
###############################################################################
#
# This file contains modified crystal structure data generated from the
# MOF subset of the Cambridge Structural Database (CSD) v543 
# hosted by the Cambridge Crystallographic Data Centre (CCDC).
#
# This work is licensed under the Creative Commons
# Attribution-NonCommercial-ShareAlike 4.0 International License.
# To view a copy of this license, visit
# http://creativecommons.org/licenses/by-nc-sa/4.0/
# or send a letter to
# Creative Commons, PO Box 1866, Mountain View, CA 94042, USA.
#
# CIF created using the CSD Python API on 29 September 2022
# The structure has been converted into the P1 space group
# The structure has a 3D framework
# The original CSD entry TEJWUE is in the rhombohedral crystal system
# The original CSD entry TEJWUE is in a Sohncke space group
# The framework has been calculated to contain at least 10.0% void space
# The void calculation uses a probe of radius 1.32A, grid spacing 0.4
# The framework is charged, counterions have been retained in the structure
#
###############################################################################

data_TEJWUE
_chemical_formula_moiety         '(C414 H213 Er32 O207 15-)n'
_symmetry_cell_setting           triclinic
_symmetry_space_group_name_H-M   'P 1'
_symmetry_Int_Tables_number      1
_space_group_name_Hall           'P 1'
loop_
_symmetry_equiv_pos_site_id
_symmetry_equiv_pos_as_xyz
1 x,y,z
_cell_length_a                   38.631(6)
_cell_length_b                   38.631(6)
_cell_length_c                   10.9896(16)
_cell_angle_alpha                90
_cell_angle_beta                 90
_cell_angle_gamma                120
_cell_volume                     14203.1
loop_
_atom_site_label
_atom_site_type_symbol
_atom_site_fract_x
_atom_site_fract_y
_atom_site_fract_z
O80 O 0.5714(4) 0.0023(4) 0.1039(13)
O89 O 0.5091(5) 0.0102(4) 0.2543(11)
Er18 Er 0.48987(2) 0.03259(2) 0.92632(7)
Er4 Er 0.04401(2) 0.54837(2) 0.14175(6)
O13 O 0.1872(4) 0.3945(4) 0.0607(13)
O14 O 0.1223(4) 0.3658(4) 0.0773(12)
O15 O 0.1383(4) 0.4170(4) 0.2839(14)
O16 O 0.2011(4) 0.4365(4) 0.2993(14)
O17 O 0.0404(4) 0.4917(4) 0.0778(14)
O23 O 0.2494(5) 0.5533(5) 0.6293(15)
C31 C 0.1541(6) 0.3849(5) 0.0155(16)
C33 C 0.1520(7) 0.4621(7) 0.0468(18)
H19 H 0.175948 0.461824 0.051800
C34 C 0.1421(7) 0.4837(6) 0.1362(19)
C35 C 0.1067(6) 0.4835(6) 0.1248(17)
H20 H 0.100626 0.498119 0.179313
C36 C 0.0801(6) 0.4621(5) 0.0337(16)
C38 C 0.0430(6) 0.4640(6) 0.0202(17)
C39 C 0.1693(6) 0.5049(6) 0.2410(19)
C40 C 0.1829(6) 0.4854(6) 0.323(2)
C41 C 0.2060(7) 0.5069(7) 0.417(2)
H22 H 0.216182 0.495097 0.468170
C42 C 0.2155(8) 0.5455(7) 0.439(3)
C43 C 0.2017(10) 0.5641(9) 0.369(3)
H23 H 0.206750 0.589700 0.387280
C44 C 0.1802(8) 0.5443(7) 0.269(3)
H24 H 0.172157 0.557798 0.216038
C45 C 0.1729(5) 0.4440(6) 0.3014(16)
C46 C 0.2462(13) 0.5705(8) 0.539(3)
O24 O 0.2637(10) 0.6072(7) 0.526(3)
Er7 Er 0.45163(2) 0.49564(3) 0.14175(6)
O37 O 0.6055(4) 0.7927(6) 0.0607(13)
O38 O 0.6342(4) 0.7565(6) 0.0773(12)
O39 O 0.5830(4) 0.7213(6) 0.2839(14)
O40 O 0.5635(4) 0.7646(6) 0.2993(14)
O41 O 0.5083(4) 0.5487(6) 0.0778(14)
O46 O 0.4467(5) 0.6961(7) 0.6293(15)
C77 C 0.6151(5) 0.7692(8) 0.0155(16)
C79 C 0.5379(7) 0.6899(10) 0.0468(18)
H42 H 0.538176 0.714124 0.051800
C80 C 0.5163(6) 0.6584(9) 0.1362(19)
C81 C 0.5165(6) 0.6232(8) 0.1248(17)
H43 H 0.501881 0.602507 0.179313
C82 C 0.5379(5) 0.6180(8) 0.0337(16)
C84 C 0.5360(6) 0.5790(8) 0.0202(17)
C85 C 0.4951(6) 0.6644(8) 0.2410(19)
C86 C 0.5146(6) 0.6975(8) 0.323(2)
C87 C 0.4931(7) 0.6991(10) 0.417(2)
H45 H 0.504903 0.721085 0.468170
C88 C 0.4545(7) 0.6700(11) 0.439(3)
C89 C 0.4359(9) 0.6376(13) 0.369(3)
H46 H 0.410300 0.617050 0.387280
C90 C 0.4557(7) 0.6359(11) 0.269(3)
H47 H 0.442202 0.614359 0.216038
C91 C 0.5560(6) 0.7289(8) 0.3014(16)
C92 C 0.4295(8) 0.6757(15) 0.539(3)
O47 O 0.3928(7) 0.6565(12) 0.526(3)
Er10 Er 0.50436(3) 0.95599(2) 0.14175(6)
O60 O 0.2073(6) 0.8128(4) 0.0607(13)
O61 O 0.2435(6) 0.8777(4) 0.0773(12)
O62 O 0.2787(6) 0.8617(4) 0.2839(14)
O63 O 0.2354(6) 0.7989(4) 0.2993(14)
O64 O 0.4513(6) 0.9596(4) 0.0778(14)
O69 O 0.3039(7) 0.7506(5) 0.6293(15)
C123 C 0.2308(8) 0.8459(6) 0.0155(16)
C125 C 0.3101(10) 0.8480(7) 0.0468(18)
H65 H 0.285876 0.824052 0.051800
C126 C 0.3416(9) 0.8579(7) 0.1362(19)
C127 C 0.3768(8) 0.8933(6) 0.1248(17)
H66 H 0.397493 0.899374 0.179313
C128 C 0.3820(8) 0.9199(6) 0.0337(16)
C130 C 0.4210(8) 0.9570(6) 0.0202(17)
C131 C 0.3356(8) 0.8307(6) 0.2410(19)
C132 C 0.3025(8) 0.8171(6) 0.323(2)
C133 C 0.3009(10) 0.7940(7) 0.417(2)
H68 H 0.278915 0.783818 0.468170
C134 C 0.3300(11) 0.7845(8) 0.439(3)
C135 C 0.3624(13) 0.7983(10) 0.369(3)
H69 H 0.382950 0.793250 0.387280
C136 C 0.3641(11) 0.8198(8) 0.269(3)
H70 H 0.385641 0.827843 0.216038
C137 C 0.2711(8) 0.8271(5) 0.3014(16)
C138 C 0.3243(15) 0.7538(13) 0.539(3)
O70 O 0.3435(12) 0.7363(10) 0.526(3)
Er11 Er 0.38685(2) 0.66117(2) 0.76224(8)
Er12 Er 0.33883(2) 0.72568(3) 0.76224(8)
Er13 Er 0.27432(3) 0.61315(2) 0.76224(8)
Er14 Er 0.333333 0.666667 0.49809(17)
Er15 Er 0.15654(2) 0.36592(2) 0.25965(7)
Er16 Er 0.63408(2) 0.79062(3) 0.25965(7)
Er17 Er 0.20938(3) 0.84346(2) 0.25965(7)
O74 O 0.4172(4) 0.4576(4) 0.3244(12)
O75 O 0.5424(4) 0.9596(6) 0.3244(12)
O76 O 0.0404(6) 0.5828(4) 0.3244(12)
O77 O 0.4510(4) 0.5221(4) 0.3460(12)
O78 O 0.4779(4) 0.9289(6) 0.3460(12)
O79 O 0.0711(6) 0.5490(4) 0.3460(12)
O82 O 0.4308(6) 0.4286(4) 0.1039(13)
O83 O 0.3827(4) 0.4764(4) 0.1235(12)
O84 O 0.5236(4) 0.9063(6) 0.1235(12)
O85 O 0.0937(6) 0.6173(4) 0.1235(12)
O86 O 0.4247(4) 0.5401(4) 0.1143(14)
O87 O 0.4599(4) 0.8846(6) 0.1143(14)
O88 O 0.1154(6) 0.5753(4) 0.1143(14)
O91 O 0.5010(6) 0.4909(5) 0.2543(11)
O1 O 0.4419(4) 0.4955(5) 0.9381(12)
O2 O 0.4937(4) 0.5139(4) 0.8143(12)
O5 O 0.2381(4) 0.3356(4) 0.4372(13)
O6 O 0.2092(4) 0.3617(4) 0.3295(13)
O11 O 0.1536(5) 0.3736(4) 0.4649(13)
O12 O 0.1758(5) 0.3435(4) 0.5876(11)
O18 O 0.0150(4) 0.4384(4) 0.9583(13)
C1 C 0.4569(5) 0.4999(6) 0.8360(18)
C2 C 0.4290(6) 0.4878(6) 0.7301(17)
C3 C 0.3891(6) 0.4696(8) 0.756(2)
H7 H 0.380391 0.467218 0.835969
C4 C 0.3613(6) 0.4544(7) 0.659(2)
H8 H 0.334176 0.439492 0.677019
C5 C 0.3729(6) 0.4607(7) 0.5409(18)
C6 C 0.4138(5) 0.4814(6) 0.5166(17)
C7 C 0.4415(6) 0.4951(5) 0.6129(16)
H9 H 0.468754 0.509333 0.596004
C8 C 0.4285(5) 0.4876(6) 0.3862(16)
C9 C 0.3422(5) 0.4488(5) 0.4452(16)
C10 C 0.3076(5) 0.4115(6) 0.4481(17)
H10 H 0.304956 0.392945 0.506688
C11 C 0.2774(5) 0.4016(5) 0.3664(16)
C12 C 0.2826(5) 0.4303(5) 0.2769(16)
H11 H 0.262210 0.424112 0.221175
C13 C 0.3160(5) 0.4659(6) 0.2701(17)
C14 C 0.3453(6) 0.4748(6) 0.3576(17)
H12 H 0.368085 0.499984 0.355928
C15 C 0.2395(5) 0.3641(5) 0.3758(16)
C16 C 0.3190(5) 0.4952(5) 0.1772(18)
C17 C 0.2872(6) 0.5015(6) 0.161(2)
H13 H 0.263999 0.486536 0.206091
C18 C 0.2889(6) 0.5296(6) 0.079(2)
H14 H 0.266686 0.532613 0.066517
C19 C 0.3232(6) 0.5528(6) 0.016(2)
C20 C 0.3564(6) 0.5483(6) 0.0340(19)
C21 C 0.3534(6) 0.5185(6) 0.1107(18)
C22 C 0.3900(5) 0.5117(5) 0.1185(17)
C24 C 0.1617(6) 0.3662(5) 0.5662(17)
C25 C 0.1547(6) 0.3865(6) 0.6702(17)
C26 C 0.1606(6) 0.3782(5) 0.7924(17)
H16 H 0.170911 0.361500 0.809615
C27 C 0.1504(5) 0.3959(5) 0.8849(16)
C28 C 0.1368(7) 0.4224(7) 0.8603(17)
C29 C 0.1328(9) 0.4307(8) 0.7390(19)
H17 H 0.124949 0.449257 0.720914
C30 C 0.1404(8) 0.4117(7) 0.6472(19)
H18 H 0.135633 0.415996 0.567131
C32 C 0.1257(6) 0.4425(6) 0.9571(17)
C37 C 0.0895(6) 0.4414(6) 0.9483(17)
H21 H 0.071621 0.427090 0.886224
O25 O 0.5045(5) 0.9464(6) 0.9381(12)
O26 O 0.4861(4) 0.9798(6) 0.8143(12)
O29 O 0.6644(4) 0.9025(6) 0.4372(13)
O30 O 0.6383(4) 0.8475(6) 0.3295(13)
O35 O 0.6264(4) 0.7800(6) 0.4649(13)
O36 O 0.6565(4) 0.8323(6) 0.5876(11)
O42 O 0.5616(4) 0.5766(6) 0.9583(13)
C47 C 0.5001(6) 0.9570(8) 0.8360(18)
C48 C 0.5122(6) 0.9412(8) 0.7301(17)
C49 C 0.5304(8) 0.9195(10) 0.756(2)
H30 H 0.532782 0.913173 0.835969
C50 C 0.5456(7) 0.9069(9) 0.659(2)
H31 H 0.560508 0.894684 0.677019
C51 C 0.5393(7) 0.9122(9) 0.5409(18)
C52 C 0.5186(6) 0.9324(8) 0.5166(17)
C53 C 0.5049(5) 0.9464(8) 0.6129(16)
H32 H 0.490667 0.959421 0.596004
C54 C 0.5124(6) 0.9409(8) 0.3862(16)
C55 C 0.5512(5) 0.8934(7) 0.4452(16)
C56 C 0.5885(6) 0.8961(8) 0.4481(17)
H33 H 0.607055 0.912011 0.506688
C57 C 0.5984(5) 0.8758(7) 0.3664(16)
C58 C 0.5697(5) 0.8523(7) 0.2769(16)
H34 H 0.575888 0.838098 0.221175
C59 C 0.5341(6) 0.8501(8) 0.2701(17)
C60 C 0.5252(6) 0.8705(8) 0.3576(17)
H35 H 0.500016 0.868101 0.355928
C61 C 0.6359(5) 0.8754(7) 0.3758(16)
C62 C 0.5048(5) 0.8238(7) 0.1772(18)
C63 C 0.4985(6) 0.7857(8) 0.161(2)
H36 H 0.513464 0.777463 0.206091
C64 C 0.4704(6) 0.7593(8) 0.079(2)
H37 H 0.467387 0.734073 0.066517
C65 C 0.4472(6) 0.7704(8) 0.016(2)
C66 C 0.4517(6) 0.8081(8) 0.0340(19)
C67 C 0.4815(6) 0.8349(8) 0.1107(18)
C68 C 0.4883(5) 0.8783(7) 0.1185(17)
C70 C 0.6338(5) 0.7955(8) 0.5662(17)
C71 C 0.6135(6) 0.7682(8) 0.6702(17)
C72 C 0.6218(5) 0.7824(8) 0.7924(17)
H39 H 0.638500 0.809411 0.809615
C73 C 0.6041(5) 0.7545(7) 0.8849(16)
C74 C 0.5776(7) 0.7144(10) 0.8603(17)
C75 C 0.5693(8) 0.7021(12) 0.7390(19)
H40 H 0.550743 0.675692 0.720914
C76 C 0.5883(7) 0.7287(11) 0.6472(19)
H41 H 0.584004 0.719637 0.567131
C78 C 0.5575(6) 0.6832(8) 0.9571(17)
C83 C 0.5586(6) 0.6481(8) 0.9483(17)
H44 H 0.572910 0.644531 0.886224
O48 O 0.0536(6) 0.5581(4) 0.9381(12)
O49 O 0.0202(6) 0.5063(4) 0.8143(12)
O52 O 0.0975(6) 0.7619(4) 0.4372(13)
O53 O 0.1525(6) 0.7908(4) 0.3295(13)
O58 O 0.2200(6) 0.8464(5) 0.4649(13)
O59 O 0.1677(6) 0.8242(5) 0.5876(11)
O65 O 0.4234(6) 0.9850(4) 0.9583(13)
C93 C 0.0430(8) 0.5431(5) 0.8360(18)
C94 C 0.0588(8) 0.5710(6) 0.7301(17)
C95 C 0.0805(10) 0.6109(6) 0.756(2)
H53 H 0.086827 0.619609 0.835969
C96 C 0.0931(9) 0.6387(6) 0.659(2)
H54 H 0.105316 0.665824 0.677019
C97 C 0.0878(9) 0.6271(6) 0.5409(18)
C98 C 0.0676(8) 0.5862(5) 0.5166(17)
C99 C 0.0536(8) 0.5585(6) 0.6129(16)
H55 H 0.040579 0.531246 0.596004
C100 C 0.0591(8) 0.5715(5) 0.3862(16)
C101 C 0.1066(7) 0.6578(5) 0.4452(16)
C102 C 0.1039(8) 0.6924(5) 0.4481(17)
H56 H 0.087989 0.695044 0.506688
C103 C 0.1242(7) 0.7226(5) 0.3664(16)
C104 C 0.1477(7) 0.7174(5) 0.2769(16)
H57 H 0.161902 0.737790 0.221175
C105 C 0.1499(8) 0.6840(5) 0.2701(17)
C106 C 0.1295(8) 0.6547(6) 0.3576(17)
H58 H 0.131899 0.631915 0.355928
C107 C 0.1246(7) 0.7605(5) 0.3758(16)
C108 C 0.1762(7) 0.6810(5) 0.1772(18)
C109 C 0.2143(8) 0.7128(6) 0.161(2)
H59 H 0.222537 0.736001 0.206091
C110 C 0.2407(8) 0.7111(6) 0.079(2)
H60 H 0.265927 0.733314 0.066517
C111 C 0.2296(8) 0.6768(6) 0.016(2)
C112 C 0.1919(8) 0.6436(6) 0.0340(19)
C113 C 0.1651(8) 0.6466(6) 0.1107(18)
C114 C 0.1217(7) 0.6100(5) 0.1185(17)
C116 C 0.2045(8) 0.8383(6) 0.5662(17)
C117 C 0.2318(8) 0.8453(6) 0.6702(17)
C118 C 0.2176(8) 0.8394(6) 0.7924(17)
H62 H 0.190589 0.829089 0.809615
C119 C 0.2455(7) 0.8496(5) 0.8849(16)
C120 C 0.2856(10) 0.8632(7) 0.8603(17)
C121 C 0.2979(12) 0.8672(9) 0.7390(19)
H63 H 0.324308 0.875051 0.720914
C122 C 0.2713(11) 0.8596(8) 0.6472(19)
H64 H 0.280363 0.864367 0.567131
C124 C 0.3168(8) 0.8743(6) 0.9571(17)
C129 C 0.3519(8) 0.9105(6) 0.9483(17)
H67 H 0.355469 0.928379 0.886224
Er20 Er 0.54271(3) 0.51013(2) 0.92632(7)
Er24 Er 0.71068(2) 0.88170(2) 0.47508(6)
Er25 Er 0.11830(2) 0.82897(3) 0.47508(6)
Er26 Er 0.17103(3) 0.28932(2) 0.47508(6)
O71 O 0.1604(4) 0.8472(4) 0.1476(12)
O72 O 0.1528(4) 0.3131(6) 0.1476(12)
O73 O 0.6869(6) 0.8396(4) 0.1476(12)
O104 O 0.6817(4) 0.7717(4) 0.2916(13)
O105 O 0.2283(4) 0.9099(6) 0.2916(13)
O106 O 0.0901(6) 0.3183(4) 0.2916(13)
O9 O 0.2949(4) 0.5804(4) 0.8908(14)
O10 O 0.3595(5) 0.6100(6) 0.8915(19)
O19 O 0.4422(5) 0.6587(5) 0.860(2)
H1 H 0.441019 0.661826 0.945906
H2 H 0.440126 0.633318 0.842889
O20 O 0.333333 0.666667 0.843(2)
H3 H 0.333333 0.666667 0.932536
O21 O 0.3768(4) 0.7061(4) 0.6505(12)
H4 H 0.401663 0.728627 0.619070
O22 O 0.3254(11) 0.6136(12) 0.382(3)
H5 H 0.297590 0.593547 0.380995
H6 H 0.333884 0.623378 0.300654
H15 H 0.380330 0.565136 0.994729
C23 C 0.3265(6) 0.5845(7) 0.926(2)
O33 O 0.4196(4) 0.7145(6) 0.8908(14)
O34 O 0.3900(6) 0.7495(8) 0.8915(19)
O43 O 0.3413(5) 0.7835(7) 0.860(2)
H25 H 0.338174 0.779193 0.945906
H26 H 0.366682 0.806808 0.842889
O44 O 0.2939(4) 0.6707(6) 0.6505(12)
H27 H 0.271373 0.673036 0.619070
O45 O 0.3864(12) 0.7118(16) 0.382(3)
H28 H 0.406453 0.704043 0.380995
H29 H 0.376622 0.710506 0.300654
H38 H 0.434864 0.815194 0.994729
C69 C 0.4155(7) 0.7420(9) 0.926(2)
O56 O 0.2855(6) 0.7051(4) 0.8908(14)
O57 O 0.2505(8) 0.6405(5) 0.8915(19)
O66 O 0.2165(7) 0.5578(5) 0.860(2)
H48 H 0.220807 0.558981 0.945906
H49 H 0.193192 0.559874 0.842889
O67 O 0.3293(6) 0.6232(4) 0.6505(12)
H50 H 0.326964 0.598337 0.619070
O68 O 0.2882(16) 0.6746(11) 0.382(3)
H51 H 0.295957 0.702410 0.380995
H52 H 0.289494 0.666116 0.300654
H61 H 0.184806 0.619670 0.994729
C115 C 0.2580(9) 0.6735(6) 0.926(2)
O81 O 0.9977(4) 0.5692(6) 0.1039(13)
O90 O 0.9898(4) 0.4990(6) 0.2543(11)
Er19 Er 0.96741(2) 0.45729(3) 0.92632(7)
Er12_2 Er 0.00550(2) 0.05901(3) 0.09557(8)
O25_2 O 0.1712(5) 0.2797(6) 0.2714(12)
O37_2 O 0.2722(4) 0.1260(6) 0.3940(13)
O38_2 O 0.3009(4) 0.0898(6) 0.4106(12)
O39_2 O 0.2497(4) 0.0546(6) 0.6172(14)
O40_2 O 0.2302(4) 0.0979(6) 0.6326(14)
C47_2 C 0.1668(6) 0.2903(8) 0.1693(18)
C48_2 C 0.1789(6) 0.2745(8) 0.0634(17)
C49_2 C 0.1971(8) 0.2528(10) 0.089(2)
H30_2 H 0.199449 0.246506 0.169302
H31_2 H 0.227175 0.228017 0.010352
O46_2 O 0.1134(5) 0.0294(7) 0.9626(15)
C71_2 C 0.2802(6) 0.1015(8) 0.0035(17)
C72_2 C 0.2885(5) 0.1157(8) 0.1257(17)
H39_2 H 0.305167 0.142744 0.142948
C73_2 C 0.2708(5) 0.0878(7) 0.2182(16)
C74_2 C 0.2443(7) 0.0477(10) 0.1936(17)
C75_2 C 0.2360(8) 0.0354(12) 0.0723(19)
H40_2 H 0.217410 0.009025 0.054247
C77_2 C 0.2818(5) 0.1025(8) 0.3488(16)
C78_2 C 0.2242(6) 0.0165(8) 0.2904(17)
C79_2 C 0.2046(7) 0.0232(10) 0.3801(18)
H42_2 H 0.204843 0.047457 0.385133
C86_2 C 0.1813(6) 0.0308(8) 0.656(2)
C87_2 C 0.1598(7) 0.0324(10) 0.750(2)
H45_2 H 0.171570 0.054418 0.801503
C88_2 C 0.1212(7) 0.0033(11) 0.772(3)
C91_2 C 0.2227(6) 0.0622(8) 0.6347(16)
C92_2 C 0.0962(8) 0.0090(15) 0.872(3)
O64_2 O 0.1180(6) 0.2929(4) 0.4111(14)
C126_2 C 0.0083(9) 0.1912(7) 0.4695(19)
C127_2 C 0.0435(8) 0.2266(6) 0.4581(17)
H66_2 H 0.064160 0.232707 0.512646
C128_2 C 0.0487(8) 0.2532(6) 0.3670(16)
C129_2 C 0.0186(8) 0.2438(6) 0.2816(17)
H67_2 H 0.022136 0.261712 0.219557
C130_2 C 0.0877(8) 0.2903(6) 0.3535(17)
C131_2 C 0.0023(8) 0.1640(6) 0.5743(19)
C135_2 C 0.0291(13) 0.1316(10) 0.702(3)
H69_2 H 0.049617 0.126583 0.720613
C136_2 C 0.0308(11) 0.1531(8) 0.602(3)
H70_2 H 0.052308 0.161176 0.549371
O70_2 O 0.0102(12) 0.0696(10) 0.859(3)
Er14_2 Er -0.000000 0.000000 0.83142(17)
Er16_2 Er 0.30075(2) 0.12395(3) 0.59298(7)
O75_2 O 0.2091(4) 0.2929(6) 0.6577(12)
O78_2 O 0.1446(4) 0.2622(6) 0.6793(12)
O84_2 O 0.1903(4) 0.2396(6) 0.4568(12)
O87_2 O 0.1266(4) 0.2179(6) 0.4476(14)
O20_2 O -0.000000 0.000000 0.176(2)
H3_2 H -0.000000 0.000000 0.265869
O29_2 O 0.3311(4) 0.2358(6) 0.7705(13)
O30_2 O 0.3050(4) 0.1808(6) 0.6628(13)
O33_2 O 0.0863(4) 0.0478(6) 0.2241(14)
O34_2 O 0.0567(6) 0.0828(8) 0.2248(19)
O35_2 O 0.2931(4) 0.1133(6) 0.7982(13)
O36_2 O 0.3232(4) 0.1656(6) 0.9209(11)
O43_2 O 0.0080(5) 0.1168(7) 0.193(2)
H25_2 H 0.004841 0.112526 0.279239
H26_2 H 0.033349 0.140141 0.176222
C50_2 C 0.2123(7) 0.2402(9) 0.992(2)
C51_2 C 0.2060(7) 0.2455(9) 0.8742(18)
C52_2 C 0.1853(6) 0.2657(8) 0.8499(17)
C53_2 C 0.1716(5) 0.2797(8) 0.9462(16)
H32_2 H 0.157334 0.292754 0.929337
C54_2 C 0.1791(6) 0.2742(8) 0.7195(16)
C55_2 C 0.2179(5) 0.2267(7) 0.7785(16)
C56_2 C 0.2552(6) 0.2294(8) 0.7814(17)
H33_2 H 0.273722 0.245344 0.840021
C57_2 C 0.2651(5) 0.2091(7) 0.6997(16)
C58_2 C 0.2364(5) 0.1856(7) 0.6102(16)
H34_2 H 0.242555 0.171431 0.554508
C59_2 C 0.2008(6) 0.1834(8) 0.6034(17)
C60_2 C 0.1919(6) 0.2038(8) 0.6909(17)
H35_2 H 0.166683 0.201434 0.689261
C61_2 C 0.3026(5) 0.2087(7) 0.7091(16)
C62_2 C 0.1715(5) 0.1571(7) 0.5105(18)
C63_2 C 0.1652(6) 0.1190(8) 0.494(2)
H36_2 H 0.180131 0.110796 0.539424
C64_2 C 0.1371(6) 0.0926(8) 0.412(2)
H37_2 H 0.134054 0.067406 0.399850
C65_2 C 0.1139(6) 0.1037(8) 0.349(2)
C66_2 C 0.1184(6) 0.1414(8) 0.3673(19)
H38_2 H 0.101531 0.148527 0.328062
C67_2 C 0.1482(6) 0.1682(8) 0.4440(18)
C68_2 C 0.1550(5) 0.2116(7) 0.4518(17)
C69_2 C 0.0822(7) 0.0753(9) 0.259(2)
C70_2 C 0.3005(5) 0.1288(8) 0.8995(17)
C76_2 C 0.2550(7) 0.0620(11) 0.9805(19)
H41_2 H 0.250671 0.052970 0.900464
Er24_2 Er 0.37734(2) 0.21504(2) 0.80842(6)
O73_2 O 0.3535(6) 0.1730(4) 0.4810(12)
O104_2 O 0.3483(4) 0.1051(4) 0.6250(13)
O21_2 O 0.0435(4) 0.0394(4) 0.9838(12)
H4_2 H 0.068330 0.061960 0.952403
O45_2 O 0.0531(12) 0.0451(16) 0.715(3)
H28_2 H 0.073120 0.037376 0.714328
H29_2 H 0.043289 0.043839 0.633987
Er11_2 Er 0.05352(2) 0.99450(2) 0.09557(8)
O1_2 O 0.1086(4) 0.8288(5) 0.2714(12)
C1_2 C 0.1236(5) 0.8332(6) 0.1693(18)
C2_2 C 0.0957(6) 0.8211(6) 0.0634(17)
C3_2 C 0.0558(6) 0.8029(8) 0.089(2)
H7_2 H 0.047058 0.800551 0.169302
H8_2 H 0.000843 0.772825 0.010352
O41_2 O 0.1750(4) 0.8820(6) 0.4111(14)
C80_2 C 0.1830(6) 0.9917(9) 0.4695(19)
C81_2 C 0.1832(6) 0.9565(8) 0.4581(17)
H43_2 H 0.168548 0.935840 0.512646
C82_2 C 0.2046(5) 0.9513(8) 0.3670(16)
C83_2 C 0.2253(6) 0.9814(8) 0.2816(17)
H44_2 H 0.239577 0.977864 0.219557
C84_2 C 0.2027(6) 0.9123(8) 0.3535(17)
C85_2 C 0.1618(6) 0.9977(8) 0.5743(19)
C89_2 C 0.1026(9) 0.9709(13) 0.702(3)
H46_2 H 0.076967 0.950383 0.720613
C90_2 C 0.1224(7) 0.9692(11) 0.602(3)
H47_2 H 0.108869 0.947692 0.549371
O47_2 O 0.0595(7) 0.9898(12) 0.859(3)
Er14_3 Er -0.000000 1.000000 0.83142(17)
O74_2 O 0.0839(4) 0.7909(4) 0.6577(12)
O77_2 O 0.1177(4) 0.8554(4) 0.6793(12)
O83_2 O 0.0494(4) 0.8097(4) 0.4568(12)
O86_2 O 0.0914(4) 0.8734(4) 0.4476(14)
O10_2 O 0.0262(5) 0.9433(6) 0.2248(19)
O19_2 O 0.1089(5) 0.9920(5) 0.193(2)
H1_2 H 0.107686 0.995159 0.279239
H2_2 H 0.106793 0.966651 0.176222
O20_3 O -0.000000 1.000000 0.176(2)
H3_3 H -0.000000 1.000000 0.265869
C4_2 C 0.0280(6) 0.7877(7) 0.992(2)
C5_2 C 0.0396(6) 0.7940(7) 0.8742(18)
C6_2 C 0.0805(5) 0.8147(6) 0.8499(17)
C7_2 C 0.1082(6) 0.8284(5) 0.9462(16)
H9_2 H 0.135421 0.842666 0.929337
C8_2 C 0.0952(5) 0.8209(6) 0.7195(16)
C9_2 C 0.0089(5) 0.7821(5) 0.7785(16)
C14_2 C 0.0120(6) 0.8081(6) 0.6909(17)
H12_2 H 0.034752 0.833317 0.689261
C20_2 C 0.0231(6) 0.8816(6) 0.3673(19)
H15_2 H 0.046997 0.898469 0.328062
C21_2 C 0.0201(6) 0.8518(6) 0.4440(18)
C22_2 C 0.0567(5) 0.8450(5) 0.4518(17)
H6_2 H 0.000551 0.956711 0.633987
O60_2 O 0.8740(6) 0.1461(4) 0.3940(13)
O61_2 O 0.9102(6) 0.2110(4) 0.4106(12)
O62_2 O 0.9454(6) 0.1950(4) 0.6172(14)
O63_2 O 0.9021(6) 0.1322(4) 0.6326(14)
O69_2 O 0.9706(7) 0.0839(5) 0.9626(15)
C117_2 C 0.8985(8) 0.1786(6) 0.0035(17)
C118_2 C 0.8843(8) 0.1727(6) 0.1257(17)
H62_2 H 0.857256 0.162422 0.142948
C119_2 C 0.9122(7) 0.1829(5) 0.2182(16)
C120_2 C 0.9523(10) 0.1965(7) 0.1936(17)
C121_2 C 0.9646(12) 0.2005(9) 0.0723(19)
H63_2 H 0.990975 0.208384 0.054247
C123_2 C 0.8975(8) 0.1792(6) 0.3488(16)
C124_2 C 0.9835(8) 0.2076(6) 0.2904(17)
C125_2 C 0.9768(10) 0.1813(7) 0.3801(18)
H65_2 H 0.952543 0.157385 0.385133
C132_2 C 0.9692(8) 0.1504(6) 0.656(2)
C133_2 C 0.9676(10) 0.1273(7) 0.750(2)
H68_2 H 0.945582 0.117151 0.801503
C134_2 C 0.9967(11) 0.1178(8) 0.772(3)
C137_2 C 0.9378(8) 0.1604(5) 0.6347(16)
C138_2 C 0.9910(15) 0.0871(13) 0.872(3)
Er14_4 Er 1.000000 0.000000 0.83142(17)
Er17_2 Er 0.87605(3) 0.17679(2) 0.59298(7)
O20_4 O 1.000000 0.000000 0.176(2)
H3_4 H 1.000000 0.000000 0.265869
O52_2 O 0.7642(6) 0.0952(4) 0.7705(13)
O53_2 O 0.8192(6) 0.1241(4) 0.6628(13)
O56_2 O 0.9522(6) 0.0384(4) 0.2241(14)
O58_2 O 0.8867(6) 0.1797(5) 0.7982(13)
O59_2 O 0.8344(6) 0.1575(5) 0.9209(11)
C102_2 C 0.7706(8) 0.0257(5) 0.7814(17)
H56_2 H 0.754656 0.028377 0.840021
C103_2 C 0.7909(7) 0.0559(5) 0.6997(16)
C104_2 C 0.8144(7) 0.0507(5) 0.6102(16)
H57_2 H 0.828569 0.071123 0.554508
C105_2 C 0.8166(8) 0.0173(5) 0.6034(17)
C107_2 C 0.7913(7) 0.0938(5) 0.7091(16)
C108_2 C 0.8429(7) 0.0143(5) 0.5105(18)
C109_2 C 0.8810(8) 0.0461(6) 0.494(2)
H59_2 H 0.889204 0.069334 0.539424
C110_2 C 0.9074(8) 0.0444(6) 0.412(2)
H60_2 H 0.932594 0.066647 0.399850
C111_2 C 0.8963(8) 0.0101(6) 0.349(2)
C115_2 C 0.9247(9) 0.0068(6) 0.259(2)
C116_2 C 0.8712(8) 0.1716(6) 0.8995(17)
C122_2 C 0.9380(11) 0.1929(8) 0.9805(19)
H64_2 H 0.947030 0.197700 0.900464
Er25_2 Er 0.78496(2) 0.16231(3) 0.80842(6)
O71_2 O 0.8270(4) 0.1806(4) 0.4810(12)
O105_2 O 0.8949(4) 0.2433(6) 0.6250(13)
O44_2 O 0.9606(4) 0.0040(6) 0.9838(12)
H27_2 H 0.938040 0.006369 0.952403
O68_2 O 0.9549(16) 0.0079(11) 0.715(3)
H51_2 H 0.962624 0.035743 0.714328
Er13_2 Er 0.94099(3) 0.94648(2) 0.09557(8)
O13_2 O 0.8539(4) 0.7278(4) 0.3940(13)
O14_2 O 0.7890(4) 0.6991(4) 0.4106(12)
O15_2 O 0.8050(4) 0.7503(4) 0.6172(14)
O16_2 O 0.8678(4) 0.7698(4) 0.6326(14)
O17_2 O 0.7071(4) 0.8250(4) 0.4111(14)
O23_2 O 0.9161(5) 0.8866(5) 0.9626(15)
C25_2 C 0.8214(6) 0.7198(6) 0.0035(17)
C26_2 C 0.8273(6) 0.7115(5) 0.1257(17)
H16_2 H 0.837578 0.694833 0.142948
C27_2 C 0.8171(5) 0.7292(5) 0.2182(16)
C28_2 C 0.8035(7) 0.7557(7) 0.1936(17)
C29_2 C 0.7995(9) 0.7640(8) 0.0723(19)
H17_2 H 0.791616 0.782590 0.054247
C31_2 C 0.8208(6) 0.7182(5) 0.3488(16)
C32_2 C 0.7924(6) 0.7758(6) 0.2904(17)
C33_2 C 0.8187(7) 0.7954(7) 0.3801(18)
H19_2 H 0.842615 0.795157 0.385133
C34_2 C 0.8088(7) 0.8170(6) 0.4695(19)
C35_2 C 0.7734(6) 0.8168(6) 0.4581(17)
H20_2 H 0.767293 0.831452 0.512646
C36_2 C 0.7468(6) 0.7954(5) 0.3670(16)
C37_2 C 0.7562(6) 0.7747(6) 0.2816(17)
H21_2 H 0.738288 0.760423 0.219557
C38_2 C 0.7097(6) 0.7973(6) 0.3535(17)
C39_2 C 0.8360(6) 0.8382(6) 0.5743(19)
C40_2 C 0.8496(6) 0.8187(6) 0.656(2)
C41_2 C 0.8727(7) 0.8402(7) 0.750(2)
H22_2 H 0.882849 0.828430 0.801503
C42_2 C 0.8822(8) 0.8788(7) 0.772(3)
C43_2 C 0.8684(10) 0.8974(9) 0.702(3)
H23_2 H 0.873417 0.923033 0.720613
C44_2 C 0.8469(8) 0.8776(7) 0.602(3)
H24_2 H 0.838824 0.891131 0.549371
C45_2 C 0.8396(5) 0.7773(6) 0.6347(16)
C46_2 C 0.9129(13) 0.9038(8) 0.872(3)
O24_2 O 0.9304(10) 0.9405(7) 0.859(3)
O48_2 O 0.7203(6) 0.8914(4) 0.2714(12)
C93_2 C 0.7097(8) 0.8764(5) 0.1693(18)
C94_2 C 0.7255(8) 0.9043(6) 0.0634(17)
C95_2 C 0.7472(10) 0.9442(6) 0.089(2)
H53_2 H 0.753494 0.952942 0.169302
H54_2 H 0.771983 0.999157 0.010352
Er14_5 Er 1.000000 1.000000 0.83142(17)
Er15_2 Er 0.82321(2) 0.69925(2) 0.59298(7)
O76_2 O 0.7071(6) 0.9161(4) 0.6577(12)
O79_2 O 0.7378(6) 0.8823(4) 0.6793(12)
O85_2 O 0.7604(6) 0.9506(4) 0.4568(12)
O88_2 O 0.7821(6) 0.9086(4) 0.4476(14)
O5_2 O 0.9048(4) 0.6689(4) 0.7705(13)
O6_2 O 0.8759(4) 0.6950(4) 0.6628(13)
O9_2 O 0.9616(4) 0.9137(4) 0.2241(14)
O11_2 O 0.8203(5) 0.7069(4) 0.7982(13)
O12_2 O 0.8425(5) 0.6768(4) 0.9209(11)
O20_5 O 1.000000 1.000000 0.176(2)
H3_5 H 1.000000 1.000000 0.265869
C10_2 C 0.9743(5) 0.7448(6) 0.7814(17)
H10_2 H 0.971623 0.726278 0.840021
C11_2 C 0.9441(5) 0.7349(5) 0.6997(16)
C12_2 C 0.9493(5) 0.7636(5) 0.6102(16)
H11_2 H 0.928877 0.757445 0.554508
C13_2 C 0.9827(5) 0.7992(6) 0.6034(17)
C15_2 C 0.9062(5) 0.6974(5) 0.7091(16)
C16_2 C 0.9857(5) 0.8285(5) 0.5105(18)
C17_2 C 0.9539(6) 0.8348(6) 0.494(2)
H13_2 H 0.930666 0.819869 0.539424
C18_2 C 0.9556(6) 0.8629(6) 0.412(2)
H14_2 H 0.933353 0.865946 0.399850
C19_2 C 0.9899(6) 0.8861(6) 0.349(2)
C23_2 C 0.9932(6) 0.9178(7) 0.259(2)
C24_2 C 0.8284(6) 0.6995(5) 0.8995(17)
C30_2 C 0.8071(8) 0.7450(7) 0.9805(19)
H18_2 H 0.802300 0.749329 0.900464
O57_2 O 0.9172(8) 0.9738(5) 0.2248(19)
O66_2 O 0.8832(7) 0.8911(5) 0.193(2)
H48_2 H 0.887474 0.892314 0.279239
H49_2 H 0.859859 0.893207 0.176222
C96_2 C 0.7598(9) 0.9720(6) 0.992(2)
C97_2 C 0.7545(9) 0.9604(6) 0.8742(18)
C98_2 C 0.7343(8) 0.9195(5) 0.8499(17)
C99_2 C 0.7203(8) 0.8918(6) 0.9462(16)
H55_2 H 0.707246 0.864579 0.929337
C100_2 C 0.7258(8) 0.9048(5) 0.7195(16)
C101_2 C 0.7733(7) 0.9911(5) 0.7785(16)
C106_2 C 0.7962(8) 0.9880(6) 0.6909(17)
H58_2 H 0.798566 0.965248 0.689261
C112_2 C 0.8586(8) 0.9769(6) 0.3673(19)
H61_2 H 0.851473 0.953003 0.328062
C113_2 C 0.8318(8) 0.9799(6) 0.4440(18)
C114_2 C 0.7884(7) 0.9433(5) 0.4518(17)
Er26_2 Er 0.83769(3) 0.62266(2) 0.80842(6)
O72_2 O 0.8194(4) 0.6465(6) 0.4810(12)
O106_2 O 0.7567(6) 0.6517(4) 0.6250(13)
O22_2 O 0.9921(11) 0.9469(12) 0.715(3)
H5_2 H 0.964257 0.926880 0.714328
O67_2 O 0.9960(6) 0.9565(4) 0.9838(12)
H50_2 H 0.993631 0.931670 0.952403
H52_2 H 0.956161 0.999449 0.633987
O23_3 O 0.5827(5) 0.2200(5) 0.2960(15)
C41_3 C 0.5393(7) 0.1736(7) 0.084(2)
H22_3 H 0.549515 0.161764 0.134837
C42_3 C 0.5488(8) 0.2122(7) 0.106(3)
C43_3 C 0.5350(10) 0.2308(9) 0.036(3)
H23_3 H 0.540083 0.256367 0.053947
C46_3 C 0.5795(13) 0.2372(8) 0.206(3)
O24_3 O 0.5970(10) 0.2739(7) 0.193(3)
O46_3 O 0.7800(5) 0.3628(7) 0.2960(15)
C87_3 C 0.8264(7) 0.3658(10) 0.084(2)
H45_3 H 0.838236 0.387752 0.134837
C88_3 C 0.7878(7) 0.3367(11) 0.106(3)
C89_3 C 0.7692(9) 0.3043(13) 0.036(3)
H46_3 H 0.743633 0.283717 0.053947
C92_3 C 0.7628(8) 0.3424(15) 0.206(3)
O47_3 O 0.7261(7) 0.3232(12) 0.193(3)
O69_3 O 0.6372(7) 0.4173(5) 0.2960(15)
C133_3 C 0.6342(10) 0.4607(7) 0.084(2)
H68_3 H 0.612248 0.450485 0.134837
C134_3 C 0.6633(11) 0.4512(8) 0.106(3)
C135_3 C 0.6957(13) 0.4650(10) 0.036(3)
H69_3 H 0.716283 0.459917 0.053947
C138_3 C 0.6576(15) 0.4205(13) 0.206(3)
O70_3 O 0.6768(12) 0.4030(10) 0.193(3)
Er11_3 Er 0.72018(2) 0.32784(2) 0.42891(8)
Er12_3 Er 0.67216(2) 0.39235(3) 0.42891(8)
Er13_3 Er 0.60765(3) 0.27982(2) 0.42891(8)
Er14_6 Er 0.666666 0.333334 0.16476(17)
O77_3 O 0.7843(4) 0.1888(4) 0.0127(12)
O78_3 O 0.8112(4) 0.5956(6) 0.0127(12)
O79_3 O 0.4044(6) 0.2157(4) 0.0127(12)
O1_3 O 0.7752(4) 0.1622(5) 0.6048(12)
O11_3 O 0.4869(5) 0.0403(4) 0.1316(13)
O13_3 O 0.5205(4) 0.0612(4) 0.7274(13)
O14_3 O 0.4556(4) 0.0325(4) 0.7440(12)
O15_3 O 0.4716(4) 0.0837(4) 0.9506(14)
O16_3 O 0.5344(4) 0.1032(4) 0.9660(14)
O17_3 O 0.3737(4) 0.1584(4) 0.7445(14)
C1_3 C 0.7902(5) 0.1666(6) 0.5027(18)
C2_3 C 0.7623(6) 0.1545(6) 0.3968(17)
C3_3 C 0.7224(6) 0.1363(8) 0.423(2)
H7_3 H 0.713724 0.133885 0.502636
C4_3 C 0.6946(6) 0.1211(7) 0.326(2)
H8_3 H 0.667509 0.106159 0.343686
C5_3 C 0.7062(6) 0.1274(7) 0.2076(18)
C6_3 C 0.7471(5) 0.1481(6) 0.1833(17)
C7_3 C 0.7748(6) 0.1618(5) 0.2796(16)
H9_3 H 0.802087 0.176000 0.262671
C8_3 C 0.7618(5) 0.1543(6) 0.0529(16)
C9_3 C 0.6755(5) 0.1155(5) 0.1119(16)
C10_3 C 0.6409(5) 0.0782(6) 0.1148(17)
H10_3 H 0.638289 0.059612 0.173355
C11_3 C 0.6107(5) 0.0683(5) 0.0331(16)
C14_3 C 0.6786(6) 0.1415(6) 0.0243(17)
H12_3 H 0.701418 0.166651 0.022595
C15_3 C 0.5728(5) 0.0308(5) 0.0425(16)
C24_3 C 0.4950(6) 0.0329(5) 0.2329(17)
C25_3 C 0.4880(6) 0.0532(6) 0.3369(17)
C26_3 C 0.4939(6) 0.0449(5) 0.4591(17)
H16_3 H 0.504244 0.028167 0.476282
C27_3 C 0.4837(5) 0.0626(5) 0.5516(16)
C28_3 C 0.4701(7) 0.0891(7) 0.5270(17)
C29_3 C 0.4661(9) 0.0974(8) 0.4057(19)
H17_3 H 0.458282 0.115924 0.387581
C30_3 C 0.4737(8) 0.0784(7) 0.3139(19)
H18_3 H 0.468966 0.082663 0.233798
C31_3 C 0.4874(6) 0.0516(5) 0.6822(16)
C32_3 C 0.4590(6) 0.1092(6) 0.6238(17)
C33_3 C 0.4853(7) 0.1288(7) 0.7135(18)
H19_3 H 0.509281 0.128491 0.718467
C34_3 C 0.4754(7) 0.1504(6) 0.8029(19)
C35_3 C 0.4400(6) 0.1502(6) 0.7915(17)
H20_3 H 0.433959 0.164786 0.845980
C36_3 C 0.4134(6) 0.1288(5) 0.7004(16)
C37_3 C 0.4228(6) 0.1081(6) 0.6150(17)
H21_3 H 0.404954 0.093757 0.552891
C38_3 C 0.3763(6) 0.1307(6) 0.6869(17)
C39_3 C 0.5026(6) 0.1716(6) 0.9077(19)
C40_3 C 0.5162(6) 0.1521(6) 0.990(2)
C44_3 C 0.5135(8) 0.2110(7) 0.936(3)
H24_3 H 0.505490 0.224465 0.882705
C45_3 C 0.5062(5) 0.1107(6) 0.9681(16)
O25_3 O 0.8378(5) 0.6131(6) 0.6048(12)
O35_3 O 0.9597(4) 0.4467(6) 0.1316(13)
O37_3 O 0.9388(4) 0.4594(6) 0.7274(13)
O38_3 O 0.9675(4) 0.4232(6) 0.7440(12)
O39_3 O 0.9163(4) 0.3880(6) 0.9506(14)
O40_3 O 0.8968(4) 0.4313(6) 0.9660(14)
O41_3 O 0.8416(4) 0.2154(6) 0.7445(14)
C47_3 C 0.8334(6) 0.6237(8) 0.5027(18)
C48_3 C 0.8455(6) 0.6079(8) 0.3968(17)
C49_3 C 0.8637(8) 0.5862(10) 0.423(2)
H30_3 H 0.866115 0.579840 0.502636
C50_3 C 0.8789(7) 0.5736(9) 0.326(2)
H31_3 H 0.893841 0.561351 0.343686
C51_3 C 0.8726(7) 0.5789(9) 0.2076(18)
C52_3 C 0.8519(6) 0.5991(8) 0.1833(17)
C53_3 C 0.8382(5) 0.6131(8) 0.2796(16)
H32_3 H 0.824000 0.626088 0.262671
C54_3 C 0.8457(6) 0.6076(8) 0.0529(16)
C55_3 C 0.8845(5) 0.5601(7) 0.1119(16)
C56_3 C 0.9218(6) 0.5628(8) 0.1148(17)
H33_3 H 0.940388 0.578678 0.173355
C57_3 C 0.9317(5) 0.5425(7) 0.0331(16)
C60_3 C 0.8585(6) 0.5372(8) 0.0243(17)
H35_3 H 0.833349 0.534768 0.022595
C61_3 C 0.9692(5) 0.5421(7) 0.0425(16)
C70_3 C 0.9671(5) 0.4622(8) 0.2329(17)
C71_3 C 0.9468(6) 0.4349(8) 0.3369(17)
C72_3 C 0.9551(5) 0.4491(8) 0.4591(17)
H39_3 H 0.971833 0.476078 0.476282
C73_3 C 0.9374(5) 0.4212(7) 0.5516(16)
C74_3 C 0.9109(7) 0.3811(10) 0.5270(17)
C75_3 C 0.9026(8) 0.3688(12) 0.4057(19)
H40_3 H 0.884076 0.342359 0.387581
C76_3 C 0.9216(7) 0.3954(11) 0.3139(19)
H41_3 H 0.917337 0.386304 0.233798
C77_3 C 0.9484(5) 0.4359(8) 0.6822(16)
C78_3 C 0.8908(6) 0.3499(8) 0.6238(17)
C79_3 C 0.8712(7) 0.3566(10) 0.7135(18)
H42_3 H 0.871509 0.380791 0.718467
C80_3 C 0.8496(6) 0.3251(9) 0.8029(19)
C81_3 C 0.8498(6) 0.2899(8) 0.7915(17)
H43_3 H 0.835214 0.269174 0.845980
C82_3 C 0.8712(5) 0.2847(8) 0.7004(16)
C83_3 C 0.8919(6) 0.3148(8) 0.6150(17)
H44_3 H 0.906243 0.311198 0.552891
C84_3 C 0.8693(6) 0.2457(8) 0.6869(17)
C85_3 C 0.8284(6) 0.3311(8) 0.9077(19)
C86_3 C 0.8479(6) 0.3642(8) 0.990(2)
C90_3 C 0.7890(7) 0.3026(11) 0.936(3)
H47_3 H 0.775535 0.281026 0.882705
C91_3 C 0.8893(6) 0.3956(8) 0.9681(16)
O48_3 O 0.3869(6) 0.2248(4) 0.6048(12)
O58_3 O 0.5533(6) 0.5131(5) 0.1316(13)
O60_3 O 0.5406(6) 0.4795(4) 0.7274(13)
O61_3 O 0.5768(6) 0.5444(4) 0.7440(12)
O62_3 O 0.6120(6) 0.5284(4) 0.9506(14)
O63_3 O 0.5687(6) 0.4656(4) 0.9660(14)
O64_3 O 0.7846(6) 0.6263(4) 0.7445(14)
C93_3 C 0.3763(8) 0.2098(5) 0.5027(18)
C94_3 C 0.3921(8) 0.2377(6) 0.3968(17)
C95_3 C 0.4138(10) 0.2776(6) 0.423(2)
H53_3 H 0.420160 0.286276 0.502636
C96_3 C 0.4264(9) 0.3054(6) 0.326(2)
H54_3 H 0.438649 0.332491 0.343686
C97_3 C 0.4211(9) 0.2938(6) 0.2076(18)
C98_3 C 0.4009(8) 0.2529(5) 0.1833(17)
C99_3 C 0.3869(8) 0.2252(6) 0.2796(16)
H55_3 H 0.373912 0.197913 0.262671
C100_3 C 0.3924(8) 0.2382(5) 0.0529(16)
C101_3 C 0.4399(7) 0.3245(5) 0.1119(16)
C102_3 C 0.4372(8) 0.3591(5) 0.1148(17)
H56_3 H 0.421322 0.361711 0.173355
C103_3 C 0.4575(7) 0.3893(5) 0.0331(16)
C106_3 C 0.4628(8) 0.3214(6) 0.0243(17)
H58_3 H 0.465232 0.298582 0.022595
C107_3 C 0.4579(7) 0.4272(5) 0.0425(16)
C116_3 C 0.5378(8) 0.5050(6) 0.2329(17)
C117_3 C 0.5651(8) 0.5120(6) 0.3369(17)
C118_3 C 0.5509(8) 0.5061(6) 0.4591(17)
H62_3 H 0.523922 0.495756 0.476282
C119_3 C 0.5788(7) 0.5163(5) 0.5516(16)
C120_3 C 0.6189(10) 0.5299(7) 0.5270(17)
C121_3 C 0.6312(12) 0.5339(9) 0.4057(19)
H63_3 H 0.657641 0.541718 0.387581
C122_3 C 0.6046(11) 0.5263(8) 0.3139(19)
H64_3 H 0.613696 0.531034 0.233798
C123_3 C 0.5641(8) 0.5126(6) 0.6822(16)
C124_3 C 0.6501(8) 0.5410(6) 0.6238(17)
C125_3 C 0.6434(10) 0.5147(7) 0.7135(18)
H65_3 H 0.619209 0.490719 0.718467
C126_3 C 0.6749(9) 0.5246(7) 0.8029(19)
C127_3 C 0.7101(8) 0.5600(6) 0.7915(17)
H66_3 H 0.730826 0.566041 0.845980
C128_3 C 0.7153(8) 0.5866(6) 0.7004(16)
C129_3 C 0.6852(8) 0.5772(6) 0.6150(17)
H67_3 H 0.688802 0.595046 0.552891
C130_3 C 0.7543(8) 0.6237(6) 0.6869(17)
C131_3 C 0.6689(8) 0.4974(6) 0.9077(19)
C132_3 C 0.6358(8) 0.4838(6) 0.990(2)
C136_3 C 0.6974(11) 0.4865(8) 0.936(3)
H70_3 H 0.718974 0.494510 0.882705
C137_3 C 0.6044(8) 0.4938(5) 0.9681(16)
O74_3 O 0.7505(4) 0.1243(4) 0.9911(12)
O75_3 O 0.8757(4) 0.6263(6) 0.9911(12)
O76_3 O 0.3737(6) 0.2495(4) 0.9911(12)
O83_3 O 0.7160(4) 0.1431(4) 0.7902(12)
O84_3 O 0.8569(4) 0.5730(6) 0.7902(12)
O85_3 O 0.4270(6) 0.2840(4) 0.7902(12)
O86_3 O 0.7580(4) 0.2068(4) 0.7810(14)
O87_3 O 0.7932(4) 0.5513(6) 0.7810(14)
O88_3 O 0.4487(6) 0.2420(4) 0.7810(14)
O6_3 O 0.5425(4) 0.0284(4) 0.9962(13)
O9_3 O 0.6282(4) 0.2471(4) 0.5575(14)
O10_3 O 0.6928(5) 0.2767(6) 0.5582(19)
O19_3 O 0.7755(5) 0.3254(5) 0.527(2)
H1_3 H 0.774352 0.328493 0.612573
H2_3 H 0.773459 0.299985 0.509556
O20_6 O 0.666666 0.333334 0.510(2)
H3_6 H 0.666666 0.333334 0.599203
O21_3 O 0.7101(4) 0.3728(4) 0.3172(12)
H4_3 H 0.734996 0.395294 0.285737
O22_3 O 0.6587(11) 0.2803(12) 0.049(3)
H5_3 H 0.630923 0.260214 0.047662
C12_3 C 0.6159(5) 0.0970(5) 0.9436(16)
H11_3 H 0.595543 0.090779 0.887842
C13_3 C 0.6493(5) 0.1326(6) 0.9368(17)
C16_3 C 0.6523(5) 0.1619(5) 0.8439(18)
C17_3 C 0.6205(6) 0.1682(6) 0.828(2)
H13_3 H 0.597332 0.153203 0.872758
C18_3 C 0.6222(6) 0.1963(6) 0.746(2)
H14_3 H 0.600019 0.199280 0.733184
C19_3 C 0.6565(6) 0.2195(6) 0.683(2)
C20_3 C 0.6897(6) 0.2150(6) 0.7007(19)
H15_3 H 0.713663 0.231803 0.661396
C21_3 C 0.6867(6) 0.1852(6) 0.7774(18)
C22_3 C 0.7233(5) 0.1784(5) 0.7852(17)
C23_3 C 0.6598(6) 0.2512(7) 0.593(2)
O30_3 O 0.9716(4) 0.5142(6) 0.9962(13)
O33_3 O 0.7529(4) 0.3812(6) 0.5575(14)
O34_3 O 0.7233(6) 0.4162(8) 0.5582(19)
O43_3 O 0.6746(5) 0.4502(7) 0.527(2)
H25_3 H 0.671507 0.445860 0.612573
H26_3 H 0.700015 0.473475 0.509556
O44_3 O 0.6272(4) 0.3374(6) 0.3172(12)
H27_3 H 0.604706 0.339703 0.285737
O45_3 O 0.7197(12) 0.3785(16) 0.049(3)
H28_3 H 0.739786 0.370710 0.047662
C58_3 C 0.9030(5) 0.5190(7) 0.9436(16)
H34_3 H 0.909221 0.504765 0.887842
C59_3 C 0.8674(6) 0.5168(8) 0.9368(17)
C62_3 C 0.8381(5) 0.4905(7) 0.8439(18)
C63_3 C 0.8318(6) 0.4524(8) 0.828(2)
H36_3 H 0.846797 0.444130 0.872758
C64_3 C 0.8037(6) 0.4260(8) 0.746(2)
H37_3 H 0.800720 0.400740 0.733184
C65_3 C 0.7805(6) 0.4371(8) 0.683(2)
C66_3 C 0.7850(6) 0.4748(8) 0.7007(19)
H38_3 H 0.768197 0.481861 0.661396
C67_3 C 0.8148(6) 0.5016(8) 0.7774(18)
C68_3 C 0.8216(5) 0.5450(7) 0.7852(17)
C69_3 C 0.7488(7) 0.4087(9) 0.593(2)
O53_3 O 0.4858(6) 0.4575(4) 0.9962(13)
O56_3 O 0.6188(6) 0.3718(4) 0.5575(14)
O57_3 O 0.5838(8) 0.3072(5) 0.5582(19)
O66_3 O 0.5498(7) 0.2245(5) 0.527(2)
H48_3 H 0.554140 0.225648 0.612573
H49_3 H 0.526525 0.226541 0.509556
O67_3 O 0.6626(6) 0.2899(4) 0.3172(12)
H50_3 H 0.660297 0.265004 0.285737
O68_3 O 0.6215(16) 0.3413(11) 0.049(3)
H51_3 H 0.629290 0.369077 0.047662
C104_3 C 0.4810(7) 0.3841(5) 0.9436(16)
H57_3 H 0.495235 0.404457 0.887842
C105_3 C 0.4832(8) 0.3507(5) 0.9368(17)
C108_3 C 0.5095(7) 0.3477(5) 0.8439(18)
C109_3 C 0.5476(8) 0.3795(6) 0.828(2)
H59_3 H 0.555870 0.402668 0.872758
C110_3 C 0.5740(8) 0.3778(6) 0.746(2)
H60_3 H 0.599260 0.399981 0.733184
C111_3 C 0.5629(8) 0.3435(6) 0.683(2)
C112_3 C 0.5252(8) 0.3103(6) 0.7007(19)
H61_3 H 0.518139 0.286337 0.661396
C113_3 C 0.4984(8) 0.3133(6) 0.7774(18)
C114_3 C 0.4550(7) 0.2767(5) 0.7852(17)
C115_3 C 0.5913(9) 0.3402(6) 0.593(2)
H6_3 H 0.667217 0.290045 0.967321
H29_3 H 0.709955 0.377173 0.967321
H52_3 H 0.622827 0.332783 0.967321
loop_
_geom_bond_atom_site_label_1
_geom_bond_atom_site_label_2
_geom_bond_site_symmetry_1
_geom_bond_site_symmetry_2
Er4 O17 1_555 1_555
O13 C31 1_555 1_555
O14 C31 1_555 1_555
O15 C45 1_555 1_555
O16 C45 1_555 1_555
O17 C38 1_555 1_555
O23 C46 1_555 1_555
H19 C33 1_555 1_555
C34 C33 1_555 1_555
C35 C34 1_555 1_555
H20 C35 1_555 1_555
C36 C35 1_555 1_555
C38 C36 1_555 1_555
C39 C34 1_555 1_555
C40 C39 1_555 1_555
C41 C40 1_555 1_555
H22 C41 1_555 1_555
C42 C41 1_555 1_555
C43 C42 1_555 1_555
H23 C43 1_555 1_555
C44 C39 1_555 1_555
H24 C44 1_555 1_555
C45 C40 1_555 1_555
C46 C42 1_555 1_555
O24 C46 1_555 1_555
O37 C77 1_555 1_555
O38 C77 1_555 1_555
O39 C91 1_555 1_555
O40 C91 1_555 1_555
O41 Er7 1_555 1_555
O46 C92 1_555 1_555
H42 C79 1_555 1_555
C80 C79 1_555 1_555
C81 C80 1_555 1_555
H43 C81 1_555 1_555
C82 C81 1_555 1_555
C84 O41 1_555 1_555
C85 C80 1_555 1_555
C86 C85 1_555 1_555
C87 C86 1_555 1_555
H45 C87 1_555 1_555
C88 C87 1_555 1_555
C89 C88 1_555 1_555
H46 C89 1_555 1_555
C90 C85 1_555 1_555
H47 C90 1_555 1_555
C91 C86 1_555 1_555
C92 C88 1_555 1_555
O47 C92 1_555 1_555
O60 C123 1_555 1_555
O61 C123 1_555 1_555
O62 C137 1_555 1_555
O63 C137 1_555 1_555
O64 Er10 1_555 1_555
O69 C138 1_555 1_555
H65 C125 1_555 1_555
C126 C125 1_555 1_555
C127 C126 1_555 1_555
H66 C127 1_555 1_555
C128 C127 1_555 1_555
C130 O64 1_555 1_555
C131 C126 1_555 1_555
C132 C131 1_555 1_555
C133 C132 1_555 1_555
H68 C133 1_555 1_555
C134 C133 1_555 1_555
C135 C134 1_555 1_555
H69 C135 1_555 1_555
C136 C131 1_555 1_555
H70 C136 1_555 1_555
C137 C132 1_555 1_555
C138 C134 1_555 1_555
O70 C138 1_555 1_555
Er11 O46 1_555 1_555
Er12 O69 1_555 1_555
Er13 O23 1_555 1_555
Er14 O24 1_555 1_555
Er15 O13 1_555 1_555
Er16 O37 1_555 1_555
Er17 O60 1_555 1_555
O74 Er7 1_555 1_555
O75 Er10 1_555 1_555
O76 Er4 1_555 1_555
O77 Er7 1_555 1_555
O78 Er10 1_555 1_555
O79 Er4 1_555 1_555
O82 Er7 1_555 1_555
O83 Er7 1_555 1_555
O84 Er10 1_555 1_555
O85 Er4 1_555 1_555
O86 Er7 1_555 1_555
O87 Er10 1_555 1_555
O88 Er4 1_555 1_555
O91 Er7 1_555 1_555
O14 Er15 1_555 1_555
O15 Er15 1_555 1_555
O16 Er15 1_555 1_555
C43 C44 1_555 1_555
O24 Er13 1_555 1_555
O38 Er16 1_555 1_555
O39 Er16 1_555 1_555
O40 Er16 1_555 1_555
C82 C84 1_555 1_555
C89 C90 1_555 1_555
O47 Er11 1_555 1_555
O47 Er14 1_555 1_555
O61 Er17 1_555 1_555
O62 Er17 1_555 1_555
O63 Er17 1_555 1_555
C128 C130 1_555 1_555
C135 C136 1_555 1_555
O70 Er12 1_555 1_555
O70 Er14 1_555 1_555
Er15 O6 1_555 1_555
O1 C1 1_555 1_555
O2 C1 1_555 1_555
O74 C8 1_555 1_555
O77 C8 1_555 1_555
O5 C15 1_555 1_555
O6 C15 1_555 1_555
O83 C22 1_555 1_555
O86 C22 1_555 1_555
O11 Er15 1_555 1_555
O12 C24 1_555 1_555
C1 C2 1_555 1_555
C2 C3 1_555 1_555
C3 H7 1_555 1_555
C4 C3 1_555 1_555
H8 C4 1_555 1_555
C5 C4 1_555 1_555
C6 C5 1_555 1_555
C7 C2 1_555 1_555
H9 C7 1_555 1_555
C8 C6 1_555 1_555
C9 C5 1_555 1_555
C10 C9 1_555 1_555
H10 C10 1_555 1_555
C11 C10 1_555 1_555
C12 C11 1_555 1_555
H11 C12 1_555 1_555
C13 C12 1_555 1_555
C14 C9 1_555 1_555
H12 C14 1_555 1_555
C15 C11 1_555 1_555
C16 C13 1_555 1_555
C17 C16 1_555 1_555
H13 C17 1_555 1_555
C18 C17 1_555 1_555
H14 C18 1_555 1_555
C19 C18 1_555 1_555
C20 C19 1_555 1_555
C21 C16 1_555 1_555
C22 C21 1_555 1_555
C24 O11 1_555 1_555
C25 C24 1_555 1_555
C26 C25 1_555 1_555
H16 C26 1_555 1_555
C27 C26 1_555 1_555
C28 C27 1_555 1_555
C29 C28 1_555 1_555
H17 C29 1_555 1_555
C30 C25 1_555 1_555
H18 C30 1_555 1_555
C32 C28 1_555 1_555
C37 C32 1_555 1_555
H21 C37 1_555 1_555
Er16 O30 1_555 1_555
O25 C47 1_555 1_555
O26 C47 1_555 1_555
O75 C54 1_555 1_555
O78 C54 1_555 1_555
O29 C61 1_555 1_555
O30 C61 1_555 1_555
O84 C68 1_555 1_555
O87 C68 1_555 1_555
O35 Er16 1_555 1_555
O36 C70 1_555 1_555
C47 C48 1_555 1_555
C48 C49 1_555 1_555
C49 H30 1_555 1_555
C50 C49 1_555 1_555
H31 C50 1_555 1_555
C51 C50 1_555 1_555
C52 C51 1_555 1_555
C53 C48 1_555 1_555
H32 C53 1_555 1_555
C54 C52 1_555 1_555
C55 C51 1_555 1_555
C56 C55 1_555 1_555
H33 C56 1_555 1_555
C57 C56 1_555 1_555
C58 C57 1_555 1_555
H34 C58 1_555 1_555
C59 C58 1_555 1_555
C60 C55 1_555 1_555
H35 C60 1_555 1_555
C61 C57 1_555 1_555
C62 C59 1_555 1_555
C63 C62 1_555 1_555
H36 C63 1_555 1_555
C64 C63 1_555 1_555
H37 C64 1_555 1_555
C65 C64 1_555 1_555
C66 C65 1_555 1_555
C67 C62 1_555 1_555
C68 C67 1_555 1_555
C70 O35 1_555 1_555
C71 C70 1_555 1_555
C72 C71 1_555 1_555
H39 C72 1_555 1_555
C73 C72 1_555 1_555
C74 C73 1_555 1_555
C75 C74 1_555 1_555
H40 C75 1_555 1_555
C76 C71 1_555 1_555
H41 C76 1_555 1_555
C78 C74 1_555 1_555
C83 C78 1_555 1_555
H44 C83 1_555 1_555
Er17 O53 1_555 1_555
O49 C93 1_555 1_555
O76 C100 1_555 1_555
O79 C100 1_555 1_555
O52 C107 1_555 1_555
O53 C107 1_555 1_555
O85 C114 1_555 1_555
O88 C114 1_555 1_555
O58 Er17 1_555 1_555
O59 C116 1_555 1_555
C93 O48 1_555 1_555
C94 C93 1_555 1_555
C95 C94 1_555 1_555
H53 C95 1_555 1_555
C96 C95 1_555 1_555
H54 C96 1_555 1_555
C97 C96 1_555 1_555
C98 C97 1_555 1_555
C99 C94 1_555 1_555
H55 C99 1_555 1_555
C100 C98 1_555 1_555
C101 C97 1_555 1_555
C102 C101 1_555 1_555
H56 C102 1_555 1_555
C103 C102 1_555 1_555
C104 C103 1_555 1_555
H57 C104 1_555 1_555
C105 C104 1_555 1_555
C106 C101 1_555 1_555
H58 C106 1_555 1_555
C107 C103 1_555 1_555
C108 C105 1_555 1_555
C109 C108 1_555 1_555
H59 C109 1_555 1_555
C110 C109 1_555 1_555
H60 C110 1_555 1_555
C111 C110 1_555 1_555
C112 C111 1_555 1_555
C113 C108 1_555 1_555
C114 C113 1_555 1_555
C116 O58 1_555 1_555
C117 C116 1_555 1_555
C118 C117 1_555 1_555
H62 C118 1_555 1_555
C119 C118 1_555 1_555
C120 C119 1_555 1_555
C121 C120 1_555 1_555
H63 C121 1_555 1_555
C122 C117 1_555 1_555
H64 C122 1_555 1_555
C124 C120 1_555 1_555
C129 C124 1_555 1_555
H67 C129 1_555 1_555
Er20 O2 1_555 1_555
Er24 O29 1_555 1_555
Er25 O52 1_555 1_555
Er26 O5 1_555 1_555
O71 Er17 1_555 1_555
O72 Er15 1_555 1_555
O73 Er16 1_555 1_555
O104 Er16 1_555 1_555
O105 Er17 1_555 1_555
O106 Er15 1_555 1_555
O12 Er26 1_555 1_555
C6 C7 1_555 1_555
C13 C14 1_555 1_555
C20 C21 1_555 1_555
C29 C30 1_555 1_555
O36 Er24 1_555 1_555
O42 Er20 1_555 1_555
C52 C53 1_555 1_555
C59 C60 1_555 1_555
C66 C67 1_555 1_555
C75 C76 1_555 1_555
O59 Er25 1_555 1_555
C98 C99 1_555 1_555
C105 C106 1_555 1_555
C112 C113 1_555 1_555
C121 C122 1_555 1_555
Er11 O10 1_555 1_555
Er14 O21 1_555 1_555
O9 C23 1_555 1_555
O10 C23 1_555 1_555
O19 Er11 1_555 1_555
H1 O19 1_555 1_555
H2 O19 1_555 1_555
O20 Er11 1_555 1_555
H3 O20 1_555 1_555
O21 Er11 1_555 1_555
H4 O21 1_555 1_555
O22 Er14 1_555 1_555
H5 O22 1_555 1_555
H6 O22 1_555 1_555
Er12 O20 1_555 1_555
O33 Er11 1_555 1_555
O34 Er12 1_555 1_555
O43 Er12 1_555 1_555
H25 O43 1_555 1_555
H26 O43 1_555 1_555
O44 Er14 1_555 1_555
H27 O44 1_555 1_555
O45 Er14 1_555 1_555
H28 O45 1_555 1_555
H29 O45 1_555 1_555
C69 O33 1_555 1_555
Er13 O9 1_555 1_555
O56 Er12 1_555 1_555
O57 Er13 1_555 1_555
O66 Er13 1_555 1_555
H48 O66 1_555 1_555
H49 O66 1_555 1_555
O67 Er11 1_555 1_555
H50 O67 1_555 1_555
O68 Er14 1_555 1_555
H51 O68 1_555 1_555
H52 O68 1_555 1_555
C115 O56 1_555 1_555
Er14 O67 1_555 1_555
O20 Er13 1_555 1_555
O21 Er12 1_555 1_555
Er12 O44 1_555 1_555
O34 C69 1_555 1_555
O44 Er13 1_555 1_555
Er13 O67 1_555 1_555
O57 C115 1_555 1_555
O25_2 C47_2 1_555 1_555
O72 C47_2 1_555 1_555
O37_2 C77_2 1_555 1_555
O38_2 C77_2 1_555 1_555
O39_2 C91_2 1_555 1_555
O40_2 C91_2 1_555 1_555
C47_2 C48_2 1_555 1_555
C48_2 C49_2 1_555 1_555
C49_2 H30_2 1_555 1_555
O46_2 C92_2 1_555 1_555
C72_2 C71_2 1_555 1_555
H39_2 C72_2 1_555 1_555
C73_2 C72_2 1_555 1_555
C74_2 C73_2 1_555 1_555
C75_2 C74_2 1_555 1_555
H40_2 C75_2 1_555 1_555
C77_2 C73_2 1_555 1_555
C78_2 C74_2 1_555 1_555
C79_2 C78_2 1_555 1_555
H42_2 C79_2 1_555 1_555
C87_2 C86_2 1_555 1_555
H45_2 C87_2 1_555 1_555
C88_2 C87_2 1_555 1_555
C91_2 C86_2 1_555 1_555
C92_2 C88_2 1_555 1_555
Er26 O25_2 1_555 1_555
O64_2 Er26 1_555 1_555
O106 C130_2 1_555 1_555
C127_2 C126_2 1_555 1_555
H66_2 C127_2 1_555 1_555
C128_2 C127_2 1_555 1_555
H67_2 C129_2 1_555 1_555
C130_2 O64_2 1_555 1_555
C131_2 C126_2 1_555 1_555
H69_2 C135_2 1_555 1_555
C136_2 C131_2 1_555 1_555
H70_2 C136_2 1_555 1_555
Er16_2 O37_2 1_555 1_555
O75_2 Er26 1_555 1_555
O78_2 Er26 1_555 1_555
O84_2 Er26 1_555 1_555
O87_2 Er26 1_555 1_555
O38_2 Er16_2 1_555 1_555
O39_2 Er16_2 1_555 1_555
O40_2 Er16_2 1_555 1_555
C128_2 C129_2 1_555 1_555
C128_2 C130_2 1_555 1_555
C135_2 C136_2 1_555 1_555
O70_2 Er14_2 1_555 1_555
H3_2 O20_2 1_555 1_555
Er12_2 O20_2 1_555 1_555
Er16_2 O30_2 1_555 1_555
O75_2 C54_2 1_555 1_555
O78_2 C54_2 1_555 1_555
O29_2 C61_2 1_555 1_555
O30_2 C61_2 1_555 1_555
O84_2 C68_2 1_555 1_555
O87_2 C68_2 1_555 1_555
O34_2 Er12_2 1_555 1_555
O35_2 Er16_2 1_555 1_555
O36_2 C70_2 1_555 1_555
O43_2 Er12_2 1_555 1_555
H25_2 O43_2 1_555 1_555
H26_2 O43_2 1_555 1_555
C51_2 C50_2 1_555 1_555
C52_2 C51_2 1_555 1_555
H32_2 C53_2 1_555 1_555
C54_2 C52_2 1_555 1_555
C55_2 C51_2 1_555 1_555
C56_2 C55_2 1_555 1_555
H33_2 C56_2 1_555 1_555
C57_2 C56_2 1_555 1_555
C58_2 C57_2 1_555 1_555
H34_2 C58_2 1_555 1_555
C59_2 C58_2 1_555 1_555
C60_2 C55_2 1_555 1_555
H35_2 C60_2 1_555 1_555
C61_2 C57_2 1_555 1_555
C62_2 C59_2 1_555 1_555
C63_2 C62_2 1_555 1_555
H36_2 C63_2 1_555 1_555
C64_2 C63_2 1_555 1_555
H37_2 C64_2 1_555 1_555
C65_2 C64_2 1_555 1_555
C66_2 C65_2 1_555 1_555
H38_2 C66_2 1_555 1_555
C67_2 C62_2 1_555 1_555
C68_2 C67_2 1_555 1_555
C69_2 O33_2 1_555 1_555
C70_2 O35_2 1_555 1_555
H41_2 C76_2 1_555 1_555
Er24_2 O29_2 1_555 1_555
O73_2 Er16_2 1_555 1_555
O104_2 Er16_2 1_555 1_555
O34_2 C69_2 1_555 1_555
O36_2 Er24_2 1_555 1_555
C52_2 C53_2 1_555 1_555
C59_2 C60_2 1_555 1_555
C65_2 C69_2 1_555 1_555
C66_2 C67_2 1_555 1_555
Er14_2 O21_2 1_555 1_555
H4_2 O21_2 1_555 1_555
O45_2 Er14_2 1_555 1_555
H28_2 O45_2 1_555 1_555
H29_2 O45_2 1_555 1_555
O1_2 C1_2 1_555 1_555
O71 C1_2 1_555 1_555
C1_2 C2_2 1_555 1_555
C2_2 C3_2 1_555 1_555
C3_2 H7_2 1_555 1_555
Er25 O1_2 1_555 1_555
O41_2 Er25 1_555 1_555
O105 C84_2 1_555 1_555
C81_2 C80_2 1_555 1_555
H43_2 C81_2 1_555 1_555
C82_2 C81_2 1_555 1_555
H44_2 C83_2 1_555 1_555
C84_2 O41_2 1_555 1_555
C85_2 C80_2 1_555 1_555
H46_2 C89_2 1_555 1_555
C90_2 C85_2 1_555 1_555
H47_2 C90_2 1_555 1_555
O74_2 Er25 1_555 1_555
O77_2 Er25 1_555 1_555
O83_2 Er25 1_555 1_555
O86_2 Er25 1_555 1_555
C82_2 C83_2 1_555 1_555
C82_2 C84_2 1_555 1_555
C89_2 C90_2 1_555 1_555
O47_2 Er14_3 1_555 1_555
Er11_2 O10_2 1_555 1_555
O74_2 C8_2 1_555 1_555
O77_2 C8_2 1_555 1_555
O83_2 C22_2 1_555 1_555
O86_2 C22_2 1_555 1_555
O19_2 Er11_2 1_555 1_555
H1_2 O19_2 1_555 1_555
H2_2 O19_2 1_555 1_555
O20_3 Er11_2 1_555 1_555
H3_3 O20_3 1_555 1_555
C5_2 C4_2 1_555 1_555
C6_2 C5_2 1_555 1_555
H9_2 C7_2 1_555 1_555
C8_2 C6_2 1_555 1_555
C9_2 C5_2 1_555 1_555
C14_2 C9_2 1_555 1_555
H12_2 C14_2 1_555 1_555
H15_2 C20_2 1_555 1_555
C22_2 C21_2 1_555 1_555
C6_2 C7_2 1_555 1_555
C20_2 C21_2 1_555 1_555
O60_2 C123_2 1_555 1_555
O61_2 C123_2 1_555 1_555
O62_2 C137_2 1_555 1_555
O63_2 C137_2 1_555 1_555
O69_2 C138_2 1_555 1_555
C118_2 C117_2 1_555 1_555
H62_2 C118_2 1_555 1_555
C119_2 C118_2 1_555 1_555
C120_2 C119_2 1_555 1_555
C121_2 C120_2 1_555 1_555
H63_2 C121_2 1_555 1_555
C123_2 C119_2 1_555 1_555
C124_2 C120_2 1_555 1_555
C125_2 C124_2 1_555 1_555
H65_2 C125_2 1_555 1_555
C133_2 C132_2 1_555 1_555
H68_2 C133_2 1_555 1_555
C134_2 C133_2 1_555 1_555
C137_2 C132_2 1_555 1_555
C138_2 C134_2 1_555 1_555
Er17_2 O60_2 1_555 1_555
O61_2 Er17_2 1_555 1_555
O62_2 Er17_2 1_555 1_555
O63_2 Er17_2 1_555 1_555
H3_4 O20_4 1_555 1_555
Er17_2 O53_2 1_555 1_555
O52_2 C107_2 1_555 1_555
O53_2 C107_2 1_555 1_555
O58_2 Er17_2 1_555 1_555
O59_2 C116_2 1_555 1_555
H56_2 C102_2 1_555 1_555
C103_2 C102_2 1_555 1_555
C104_2 C103_2 1_555 1_555
H57_2 C104_2 1_555 1_555
C105_2 C104_2 1_555 1_555
C107_2 C103_2 1_555 1_555
C108_2 C105_2 1_555 1_555
C109_2 C108_2 1_555 1_555
H59_2 C109_2 1_555 1_555
C110_2 C109_2 1_555 1_555
H60_2 C110_2 1_555 1_555
C111_2 C110_2 1_555 1_555
C115_2 O56_2 1_555 1_555
C116_2 O58_2 1_555 1_555
H64_2 C122_2 1_555 1_555
Er25_2 O52_2 1_555 1_555
O71_2 Er17_2 1_555 1_555
O105_2 Er17_2 1_555 1_555
O59_2 Er25_2 1_555 1_555
C111_2 C115_2 1_555 1_555
O44_2 Er14_4 1_555 1_555
H27_2 O44_2 1_555 1_555
O68_2 Er14_4 1_555 1_555
H51_2 O68_2 1_555 1_555
Er24 O17_2 1_555 1_555
O13_2 C31_2 1_555 1_555
O14_2 C31_2 1_555 1_555
O15_2 C45_2 1_555 1_555
O16_2 C45_2 1_555 1_555
O17_2 C38_2 1_555 1_555
O104 C38_2 1_555 1_555
O23_2 C46_2 1_555 1_555
C26_2 C25_2 1_555 1_555
H16_2 C26_2 1_555 1_555
C27_2 C26_2 1_555 1_555
C28_2 C27_2 1_555 1_555
C29_2 C28_2 1_555 1_555
H17_2 C29_2 1_555 1_555
C31_2 C27_2 1_555 1_555
C32_2 C28_2 1_555 1_555
C33_2 C32_2 1_555 1_555
H19_2 C33_2 1_555 1_555
C34_2 C33_2 1_555 1_555
C35_2 C34_2 1_555 1_555
H20_2 C35_2 1_555 1_555
C36_2 C35_2 1_555 1_555
C37_2 C32_2 1_555 1_555
H21_2 C37_2 1_555 1_555
C38_2 C36_2 1_555 1_555
C39_2 C34_2 1_555 1_555
C40_2 C39_2 1_555 1_555
C41_2 C40_2 1_555 1_555
H22_2 C41_2 1_555 1_555
C42_2 C41_2 1_555 1_555
C43_2 C42_2 1_555 1_555
H23_2 C43_2 1_555 1_555
C44_2 C39_2 1_555 1_555
H24_2 C44_2 1_555 1_555
C45_2 C40_2 1_555 1_555
C46_2 C42_2 1_555 1_555
O24_2 C46_2 1_555 1_555
O48_2 Er24 1_555 1_555
O73 C93_2 1_555 1_555
C93_2 O48_2 1_555 1_555
C94_2 C93_2 1_555 1_555
C95_2 C94_2 1_555 1_555
H53_2 C95_2 1_555 1_555
Er14_5 O24_2 1_555 1_555
Er15_2 O13_2 1_555 1_555
O76_2 Er24 1_555 1_555
O79_2 Er24 1_555 1_555
O85_2 Er24 1_555 1_555
O88_2 Er24 1_555 1_555
O14_2 Er15_2 1_555 1_555
O15_2 Er15_2 1_555 1_555
O16_2 Er15_2 1_555 1_555
C36_2 C37_2 1_555 1_555
C43_2 C44_2 1_555 1_555
Er15_2 O6_2 1_555 1_555
O5_2 C15_2 1_555 1_555
O6_2 C15_2 1_555 1_555
O9_2 C23_2 1_555 1_555
O11_2 Er15_2 1_555 1_555
O12_2 C24_2 1_555 1_555
H3_5 O20_5 1_555 1_555
H10_2 C10_2 1_555 1_555
C11_2 C10_2 1_555 1_555
C12_2 C11_2 1_555 1_555
H11_2 C12_2 1_555 1_555
C13_2 C12_2 1_555 1_555
C15_2 C11_2 1_555 1_555
C16_2 C13_2 1_555 1_555
C17_2 C16_2 1_555 1_555
H13_2 C17_2 1_555 1_555
C18_2 C17_2 1_555 1_555
H14_2 C18_2 1_555 1_555
C19_2 C18_2 1_555 1_555
C23_2 C19_2 1_555 1_555
C24_2 O11_2 1_555 1_555
H18_2 C30_2 1_555 1_555
Er13_2 O9_2 1_555 1_555
O76_2 C100_2 1_555 1_555
O79_2 C100_2 1_555 1_555
O85_2 C114_2 1_555 1_555
O88_2 C114_2 1_555 1_555
O57_2 Er13_2 1_555 1_555
O66_2 Er13_2 1_555 1_555
H48_2 O66_2 1_555 1_555
H49_2 O66_2 1_555 1_555
C97_2 C96_2 1_555 1_555
C98_2 C97_2 1_555 1_555
H55_2 C99_2 1_555 1_555
C100_2 C98_2 1_555 1_555
C101_2 C97_2 1_555 1_555
C106_2 C101_2 1_555 1_555
H58_2 C106_2 1_555 1_555
H61_2 C112_2 1_555 1_555
C114_2 C113_2 1_555 1_555
Er26_2 O5_2 1_555 1_555
O72_2 Er15_2 1_555 1_555
O106_2 Er15_2 1_555 1_555
O12_2 Er26_2 1_555 1_555
O20_5 Er13_2 1_555 1_555
C98_2 C99_2 1_555 1_555
C112_2 C113_2 1_555 1_555
O22_2 Er14_5 1_555 1_555
H5_2 O22_2 1_555 1_555
H50_2 O67_2 1_555 1_555
Er14_5 O67_2 1_555 1_555
O23_3 C46_3 1_555 1_555
H22_3 C41_3 1_555 1_555
C42_3 C41_3 1_555 1_555
C43_3 C42_3 1_555 1_555
H23_3 C43_3 1_555 1_555
C46_3 C42_3 1_555 1_555
O24_3 C46_3 1_555 1_555
O46_3 C92_3 1_555 1_555
H45_3 C87_3 1_555 1_555
C88_3 C87_3 1_555 1_555
C89_3 C88_3 1_555 1_555
H46_3 C89_3 1_555 1_555
C92_3 C88_3 1_555 1_555
O47_3 C92_3 1_555 1_555
O69_3 C138_3 1_555 1_555
H68_3 C133_3 1_555 1_555
C134_3 C133_3 1_555 1_555
C135_3 C134_3 1_555 1_555
H69_3 C135_3 1_555 1_555
C138_3 C134_3 1_555 1_555
O70_3 C138_3 1_555 1_555
Er11_3 O46_3 1_555 1_555
Er12_3 O69_3 1_555 1_555
Er13_3 O23_3 1_555 1_555
Er14_6 O24_3 1_555 1_555
O24_3 Er13_3 1_555 1_555
O47_3 Er11_3 1_555 1_555
O47_3 Er14_6 1_555 1_555
O70_3 Er12_3 1_555 1_555
O70_3 Er14_6 1_555 1_555
Er24_2 O17_3 1_555 1_555
O1_3 C1_3 1_555 1_555
O71_2 C1_3 1_555 1_555
O77_3 C8_3 1_555 1_555
O80 C15_3 1_555 1_555
O89 C24_3 1_555 1_555
O13_3 C31_3 1_555 1_555
O14_3 C31_3 1_555 1_555
O15_3 C45_3 1_555 1_555
O16_3 C45_3 1_555 1_555
O17_3 C38_3 1_555 1_555
O104_2 C38_3 1_555 1_555
C1_3 C2_3 1_555 1_555
C2_3 C3_3 1_555 1_555
C3_3 H7_3 1_555 1_555
C4_3 C3_3 1_555 1_555
H8_3 C4_3 1_555 1_555
C5_3 C4_3 1_555 1_555
C6_3 C5_3 1_555 1_555
C7_3 C2_3 1_555 1_555
H9_3 C7_3 1_555 1_555
C8_3 C6_3 1_555 1_555
C9_3 C5_3 1_555 1_555
C10_3 C9_3 1_555 1_555
H10_3 C10_3 1_555 1_555
C11_3 C10_3 1_555 1_555
C14_3 C9_3 1_555 1_555
H12_3 C14_3 1_555 1_555
C15_3 C11_3 1_555 1_555
C24_3 O11_3 1_555 1_555
C25_3 C24_3 1_555 1_555
C26_3 C25_3 1_555 1_555
H16_3 C26_3 1_555 1_555
C27_3 C26_3 1_555 1_555
C28_3 C27_3 1_555 1_555
C29_3 C28_3 1_555 1_555
H17_3 C29_3 1_555 1_555
C30_3 C25_3 1_555 1_555
H18_3 C30_3 1_555 1_555
C31_3 C27_3 1_555 1_555
C32_3 C28_3 1_555 1_555
C33_3 C32_3 1_555 1_555
H19_3 C33_3 1_555 1_555
C34_3 C33_3 1_555 1_555
C35_3 C34_3 1_555 1_555
H20_3 C35_3 1_555 1_555
C36_3 C35_3 1_555 1_555
C37_3 C32_3 1_555 1_555
H21_3 C37_3 1_555 1_555
C38_3 C36_3 1_555 1_555
C39_3 C34_3 1_555 1_555
C40_3 C39_3 1_555 1_555
C44_3 C39_3 1_555 1_555
H24_3 C44_3 1_555 1_555
C45_3 C40_3 1_555 1_555
Er25_2 O1_3 1_555 1_555
O25_3 C47_3 1_555 1_555
O72_2 C47_3 1_555 1_555
O78_3 C54_3 1_555 1_555
O81 C61_3 1_555 1_555
O90 C70_3 1_555 1_555
O37_3 C77_3 1_555 1_555
O38_3 C77_3 1_555 1_555
O39_3 C91_3 1_555 1_555
O40_3 C91_3 1_555 1_555
O41_3 Er25_2 1_555 1_555
O105_2 C84_3 1_555 1_555
C47_3 C48_3 1_555 1_555
C48_3 C49_3 1_555 1_555
C49_3 H30_3 1_555 1_555
C50_3 C49_3 1_555 1_555
H31_3 C50_3 1_555 1_555
C51_3 C50_3 1_555 1_555
C52_3 C51_3 1_555 1_555
C53_3 C48_3 1_555 1_555
H32_3 C53_3 1_555 1_555
C54_3 C52_3 1_555 1_555
C55_3 C51_3 1_555 1_555
C56_3 C55_3 1_555 1_555
H33_3 C56_3 1_555 1_555
C57_3 C56_3 1_555 1_555
C60_3 C55_3 1_555 1_555
H35_3 C60_3 1_555 1_555
C61_3 C57_3 1_555 1_555
C70_3 O35_3 1_555 1_555
C71_3 C70_3 1_555 1_555
C72_3 C71_3 1_555 1_555
H39_3 C72_3 1_555 1_555
C73_3 C72_3 1_555 1_555
C74_3 C73_3 1_555 1_555
C75_3 C74_3 1_555 1_555
H40_3 C75_3 1_555 1_555
C76_3 C71_3 1_555 1_555
H41_3 C76_3 1_555 1_555
C77_3 C73_3 1_555 1_555
C78_3 C74_3 1_555 1_555
C79_3 C78_3 1_555 1_555
H42_3 C79_3 1_555 1_555
C80_3 C79_3 1_555 1_555
C81_3 C80_3 1_555 1_555
H43_3 C81_3 1_555 1_555
C82_3 C81_3 1_555 1_555
C83_3 C78_3 1_555 1_555
H44_3 C83_3 1_555 1_555
C84_3 O41_3 1_555 1_555
C85_3 C80_3 1_555 1_555
C86_3 C85_3 1_555 1_555
C90_3 C85_3 1_555 1_555
H47_3 C90_3 1_555 1_555
C91_3 C86_3 1_555 1_555
Er26_2 O25_3 1_555 1_555
O48_3 Er24_2 1_555 1_555
O73_2 C93_3 1_555 1_555
O79_3 C100_3 1_555 1_555
O82 C107_3 1_555 1_555
O91 C116_3 1_555 1_555
O60_3 C123_3 1_555 1_555
O61_3 C123_3 1_555 1_555
O62_3 C137_3 1_555 1_555
O63_3 C137_3 1_555 1_555
O64_3 Er26_2 1_555 1_555
O106_2 C130_3 1_555 1_555
C93_3 O48_3 1_555 1_555
C94_3 C93_3 1_555 1_555
C95_3 C94_3 1_555 1_555
H53_3 C95_3 1_555 1_555
C96_3 C95_3 1_555 1_555
H54_3 C96_3 1_555 1_555
C97_3 C96_3 1_555 1_555
C98_3 C97_3 1_555 1_555
C99_3 C94_3 1_555 1_555
H55_3 C99_3 1_555 1_555
C100_3 C98_3 1_555 1_555
C101_3 C97_3 1_555 1_555
C102_3 C101_3 1_555 1_555
H56_3 C102_3 1_555 1_555
C103_3 C102_3 1_555 1_555
C106_3 C101_3 1_555 1_555
H58_3 C106_3 1_555 1_555
C107_3 C103_3 1_555 1_555
C116_3 O58_3 1_555 1_555
C117_3 C116_3 1_555 1_555
C118_3 C117_3 1_555 1_555
H62_3 C118_3 1_555 1_555
C119_3 C118_3 1_555 1_555
C120_3 C119_3 1_555 1_555
C121_3 C120_3 1_555 1_555
H63_3 C121_3 1_555 1_555
C122_3 C117_3 1_555 1_555
H64_3 C122_3 1_555 1_555
C123_3 C119_3 1_555 1_555
C124_3 C120_3 1_555 1_555
C125_3 C124_3 1_555 1_555
H65_3 C125_3 1_555 1_555
C126_3 C125_3 1_555 1_555
C127_3 C126_3 1_555 1_555
H66_3 C127_3 1_555 1_555
C128_3 C127_3 1_555 1_555
C129_3 C124_3 1_555 1_555
H67_3 C129_3 1_555 1_555
C130_3 O64_3 1_555 1_555
C131_3 C126_3 1_555 1_555
C132_3 C131_3 1_555 1_555
C136_3 C131_3 1_555 1_555
H70_3 C136_3 1_555 1_555
C137_3 C132_3 1_555 1_555
Er18 O13_3 1_555 1_555
Er19 O37_3 1_555 1_555
Er20 O60_3 1_555 1_555
O74_3 Er25_2 1_555 1_555
O75_3 Er26_2 1_555 1_555
O76_3 Er24_2 1_555 1_555
O83_3 Er25_2 1_555 1_555
O84_3 Er26_2 1_555 1_555
O85_3 Er24_2 1_555 1_555
O86_3 Er25_2 1_555 1_555
O87_3 Er26_2 1_555 1_555
O88_3 Er24_2 1_555 1_555
O14_3 Er18 1_555 1_555
O15_3 Er18 1_555 1_555
O16_3 Er18 1_555 1_555
C6_3 C7_3 1_555 1_555
C29_3 C30_3 1_555 1_555
C36_3 C37_3 1_555 1_555
O38_3 Er19 1_555 1_555
O39_3 Er19 1_555 1_555
O40_3 Er19 1_555 1_555
C52_3 C53_3 1_555 1_555
C75_3 C76_3 1_555 1_555
C82_3 C83_3 1_555 1_555
C82_3 C84_3 1_555 1_555
O61_3 Er20 1_555 1_555
O62_3 Er20 1_555 1_555
O63_3 Er20 1_555 1_555
C98_3 C99_3 1_555 1_555
C121_3 C122_3 1_555 1_555
C128_3 C129_3 1_555 1_555
C128_3 C130_3 1_555 1_555
Er11_3 O10_3 1_555 1_555
Er14_6 O21_3 1_555 1_555
Er18 O6_3 1_555 1_555
O83_3 C22_3 1_555 1_555
O86_3 C22_3 1_555 1_555
O9_3 C23_3 1_555 1_555
O10_3 C23_3 1_555 1_555
O19_3 Er11_3 1_555 1_555
H1_3 O19_3 1_555 1_555
H2_3 O19_3 1_555 1_555
O20_6 Er11_3 1_555 1_555
H3_6 O20_6 1_555 1_555
O21_3 Er11_3 1_555 1_555
H4_3 O21_3 1_555 1_555
O22_3 Er14_6 1_555 1_555
H5_3 O22_3 1_555 1_555
H11_3 C12_3 1_555 1_555
C13_3 C12_3 1_555 1_555
C16_3 C13_3 1_555 1_555
C17_3 C16_3 1_555 1_555
H13_3 C17_3 1_555 1_555
C18_3 C17_3 1_555 1_555
H14_3 C18_3 1_555 1_555
C19_3 C18_3 1_555 1_555
C20_3 C19_3 1_555 1_555
H15_3 C20_3 1_555 1_555
C21_3 C16_3 1_555 1_555
C22_3 C21_3 1_555 1_555
C23_3 C19_3 1_555 1_555
Er12_3 O20_6 1_555 1_555
Er19 O30_3 1_555 1_555
O84_3 C68_3 1_555 1_555
O87_3 C68_3 1_555 1_555
O33_3 Er11_3 1_555 1_555
O34_3 Er12_3 1_555 1_555
O43_3 Er12_3 1_555 1_555
H25_3 O43_3 1_555 1_555
H26_3 O43_3 1_555 1_555
O44_3 Er14_6 1_555 1_555
H27_3 O44_3 1_555 1_555
O45_3 Er14_6 1_555 1_555
H28_3 O45_3 1_555 1_555
H34_3 C58_3 1_555 1_555
C59_3 C58_3 1_555 1_555
C62_3 C59_3 1_555 1_555
C63_3 C62_3 1_555 1_555
H36_3 C63_3 1_555 1_555
C64_3 C63_3 1_555 1_555
H37_3 C64_3 1_555 1_555
C65_3 C64_3 1_555 1_555
C66_3 C65_3 1_555 1_555
H38_3 C66_3 1_555 1_555
C67_3 C62_3 1_555 1_555
C68_3 C67_3 1_555 1_555
C69_3 O33_3 1_555 1_555
Er13_3 O9_3 1_555 1_555
Er20 O53_3 1_555 1_555
O85_3 C114_3 1_555 1_555
O88_3 C114_3 1_555 1_555
O56_3 Er12_3 1_555 1_555
O57_3 Er13_3 1_555 1_555
O66_3 Er13_3 1_555 1_555
H48_3 O66_3 1_555 1_555
H49_3 O66_3 1_555 1_555
O67_3 Er11_3 1_555 1_555
H50_3 O67_3 1_555 1_555
O68_3 Er14_6 1_555 1_555
H51_3 O68_3 1_555 1_555
H57_3 C104_3 1_555 1_555
C105_3 C104_3 1_555 1_555
C108_3 C105_3 1_555 1_555
C109_3 C108_3 1_555 1_555
H59_3 C109_3 1_555 1_555
C110_3 C109_3 1_555 1_555
H60_3 C110_3 1_555 1_555
C111_3 C110_3 1_555 1_555
C112_3 C111_3 1_555 1_555
H61_3 C112_3 1_555 1_555
C113_3 C108_3 1_555 1_555
C114_3 C113_3 1_555 1_555
C115_3 O56_3 1_555 1_555
Er14_6 O67_3 1_555 1_555
O20_6 Er13_3 1_555 1_555
O21_3 Er12_3 1_555 1_555
C20_3 C21_3 1_555 1_555
Er12_3 O44_3 1_555 1_555
O34_3 C69_3 1_555 1_555
O44_3 Er13_3 1_555 1_555
C65_3 C69_3 1_555 1_555
C66_3 C67_3 1_555 1_555
Er13_3 O67_3 1_555 1_555
O57_3 C115_3 1_555 1_555
C111_3 C115_3 1_555 1_555
C112_3 C113_3 1_555 1_555

#END
