
###############################################################################
#
# This file contains modified crystal structure data generated from the
# MOF subset of the Cambridge Structural Database (CSD) v543 
# hosted by the Cambridge Crystallographic Data Centre (CCDC).
#
# This work is licensed under the Creative Commons
# Attribution-NonCommercial-ShareAlike 4.0 International License.
# To view a copy of this license, visit
# http://creativecommons.org/licenses/by-nc-sa/4.0/
# or send a letter to
# Creative Commons, PO Box 1866, Mountain View, CA 94042, USA.
#
# CIF created using the CSD Python API on 29 September 2022
# The structure has been converted into the P1 space group
# The structure has a 3D framework
# The original CSD entry TEJWEO is in the rhombohedral crystal system
# The original CSD entry TEJWEO is in a Sohncke space group
# The framework has been calculated to contain at least 10.0% void space
# The void calculation uses a probe of radius 1.32A, grid spacing 0.4
# The framework is charged, counterions have been retained in the structure
#
###############################################################################

data_TEJWEO
_chemical_formula_moiety         '(C414 H207 Cl6 O196 Pr32 15-)n'
_symmetry_cell_setting           triclinic
_symmetry_space_group_name_H-M   'P 1'
_symmetry_Int_Tables_number      1
_space_group_name_Hall           'P 1'
loop_
_symmetry_equiv_pos_site_id
_symmetry_equiv_pos_as_xyz
1 x,y,z
_cell_length_a                   39.092(4)
_cell_length_b                   39.092(4)
_cell_length_c                   11.2418(10)
_cell_angle_alpha                90
_cell_angle_beta                 90
_cell_angle_gamma                120
_cell_volume                     14877.9
loop_
_atom_site_label
_atom_site_type_symbol
_atom_site_fract_x
_atom_site_fract_y
_atom_site_fract_z
Pr34 Pr -0.000000 0.000000 0.1058(3)
Pr34_2 Pr -0.000000 1.000000 0.1058(3)
O42 O 0.1120(6) 0.0262(9) 0.2230(19)
C88 C 0.1173(7) 0.0015(11) 0.031(2)
C89 C 0.1553(7) 0.0304(10) 0.013(2)
H46 H 0.166729 0.051932 0.063832
C92 C 0.0967(10) 0.0068(16) 0.135(3)
Pr19 Pr 0.48981(3) 0.03301(2) 0.20373(6)
Pr34_3 Pr 1.000000 0.000000 0.1058(3)
O36 O 0.2903(5) 0.1119(7) 0.0805(13)
O37 O 0.3206(5) 0.1638(7) 0.2009(11)
O38 O 0.2717(5) 0.1258(6) 0.6655(12)
O39 O 0.2978(5) 0.0874(6) 0.6820(13)
O40 O 0.2466(4) 0.0516(6) 0.8933(13)
O41 O 0.2268(4) 0.0949(6) 0.9076(14)
C73 C 0.2220(5) 0.0161(8) 0.5642(15)
C74 C 0.2016(5) 0.0216(8) 0.6552(16)
H39 H 0.200329 0.044653 0.660288
C77 C 0.2410(7) 0.0473(10) 0.4714(16)
C78 C 0.2329(7) 0.0356(11) 0.3513(17)
H41 H 0.214605 0.009436 0.334215
C79 C 0.2505(8) 0.0608(11) 0.2599(18)
H42 H 0.244298 0.051886 0.181874
C80 C 0.2784(5) 0.1006(8) 0.2828(14)
C81 C 0.2988(6) 0.1288(9) 0.1825(17)
C82 C 0.2858(6) 0.1129(8) 0.4042(14)
H43 H 0.303410 0.139247 0.421462
C83 C 0.2672(6) 0.0864(8) 0.4978(15)
C84 C 0.2791(5) 0.1004(8) 0.6216(14)
C90 C 0.1781(5) 0.0285(7) 0.9156(18)
C91 C 0.2197(5) 0.0606(7) 0.9053(15)
Pr12 Pr 0.30033(2) 0.12347(2) 0.87039(6)
Pr20 Pr 0.37657(2) 0.21494(2) 0.08405(6)
O3 O 0.5030(5) 0.9445(5) 0.2072(11)
O4 O 0.4864(5) 0.9792(4) 0.0828(11)
O19 O 0.9142(7) 0.8880(6) 0.2230(19)
O20 O 0.9314(8) 0.9449(8) 0.120(3)
C10 C 0.5281(6) 0.9153(7) 0.0284(16)
H10 H 0.531680 0.909943 0.106467
C11 C 0.5097(6) 0.9374(6) 0.0029(15)
C14 C 0.4991(7) 0.9555(6) 0.1064(16)
C42 C 0.8842(9) 0.8827(7) 0.031(2)
C43 C 0.8751(7) 0.8447(7) 0.013(2)
H23 H 0.885203 0.833271 0.063832
C46 C 0.9101(13) 0.9033(10) 0.135(3)
O26 O 0.0555(5) 0.5585(7) 0.2072(11)
O27 O 0.0208(4) 0.5072(6) 0.0828(11)
O43 O 0.0551(8) 0.9865(11) 0.120(3)
C56 C 0.0847(7) 0.6128(9) 0.0284(16)
H33 H 0.090057 0.621737 0.106467
C57 C 0.0626(6) 0.5723(8) 0.0029(15)
C60 C 0.0445(6) 0.5436(9) 0.1064(16)
O49 O 0.4415(7) 0.4970(5) 0.2072(11)
O50 O 0.4928(6) 0.5136(5) 0.0828(11)
O66 O 0.0135(11) 0.0686(8) 0.120(3)
C102 C 0.3872(9) 0.4719(6) 0.0284(16)
H56 H 0.378263 0.468320 0.106467
C103 C 0.4277(8) 0.4903(6) 0.0029(15)
C106 C 0.4564(9) 0.5009(7) 0.1064(16)
Pr18 Pr 0.54319(2) 0.51019(3) 0.20373(6)
Pr24 Pr 0.04323(2) 0.54828(2) 0.41739(6)
Pr26 Pr 0.45172(2) 0.49496(3) 0.41739(6)
Pr28 Pr 0.50504(3) 0.95677(2) 0.41739(6)
Pr29 Pr 0.05599(4) 0.99241(4) 0.37460(12)
Pr30 Pr 0.00759(4) 0.06357(6) 0.37460(12)
Pr31 Pr 0.93643(6) 0.94401(4) 0.37460(12)
Pr34_4 Pr 1.000000 1.000000 0.1058(3)
Pr1 Pr 0.63366(2) 0.79014(2) 0.53706(6)
Pr2 Pr 0.70990(2) 0.88161(2) 0.75072(6)
Pr3 Pr 0.38932(4) 0.65908(4) 0.04127(12)
Cl1 Cl 0.333333 0.666667 0.1275(7)
O1 O 0.6403(4) 0.8502(4) 0.6142(12)
O2 O 0.6620(4) 0.9052(4) 0.7161(13)
O5 O 0.4778(4) 0.9287(4) 0.6259(12)
O6 O 0.5421(4) 0.9587(4) 0.6044(11)
O7 O 0.5236(4) 0.9042(4) 0.3972(12)
O8 O 0.4597(4) 0.8821(4) 0.3922(15)
O9 O 0.3894(7) 0.7492(7) 0.187(2)
O10 O 0.4230(7) 0.7158(7) 0.170(2)
O11 O 0.7033(4) 0.8215(4) 0.6774(12)
O12 O 0.6820(4) 0.7686(4) 0.5624(13)
O13 O 0.8216(5) 0.7097(5) 0.0805(13)
O14 O 0.8432(5) 0.6794(5) 0.2009(11)
O15 O 0.8541(4) 0.7283(5) 0.6655(12)
O16 O 0.7896(4) 0.7022(5) 0.6820(13)
O17 O 0.8050(4) 0.7534(4) 0.8933(13)
O18 O 0.8681(4) 0.7732(4) 0.9076(14)
O22 O 0.4441(7) 0.6552(6) 0.145(3)
H2 H 0.469017 0.674107 0.111019
H3 H 0.443953 0.661063 0.228262
H5 H 0.406780 0.590308 0.011952
C1 C 0.6351(5) 0.8775(5) 0.6600(14)
C2 C 0.5962(5) 0.8747(5) 0.6460(14)
C3 C 0.5685(5) 0.8512(5) 0.5591(14)
H6 H 0.575437 0.837424 0.506143
C4 C 0.5328(5) 0.8475(5) 0.5482(16)
C5 C 0.5238(6) 0.8680(6) 0.6312(16)
H7 H 0.499232 0.866222 0.625277
C6 C 0.5486(6) 0.8909(5) 0.7226(15)
C7 C 0.5849(6) 0.8939(5) 0.7270(17)
H8 H 0.602530 0.909329 0.786053
C8 C 0.5364(6) 0.9098(6) 0.8185(14)
C9 C 0.5407(8) 0.9017(8) 0.9336(16)
H9 H 0.552534 0.886577 0.949104
C12 C 0.5040(6) 0.9452(5) 0.8875(14)
H11 H 0.491853 0.959950 0.870718
C13 C 0.5168(6) 0.9303(5) 0.7977(14)
C15 C 0.5109(5) 0.9397(5) 0.6688(14)
C16 C 0.5065(6) 0.8237(6) 0.4530(18)
C17 C 0.5003(7) 0.7862(7) 0.438(2)
H12 H 0.516542 0.778529 0.476371
C18 C 0.4677(10) 0.7578(8) 0.360(3)
H13 H 0.462816 0.732126 0.350865
C19 C 0.4466(9) 0.7691(7) 0.307(3)
C20 C 0.4507(8) 0.8065(7) 0.326(3)
H14 H 0.432308 0.812332 0.293995
C21 C 0.4815(6) 0.8342(6) 0.3922(18)
C22 C 0.4890(6) 0.8764(5) 0.3946(16)
C23 C 0.4178(12) 0.7423(11) 0.214(4)
C24 C 0.7095(6) 0.7952(5) 0.6233(17)
C25 C 0.7467(6) 0.7951(5) 0.6402(15)
C26 C 0.7568(6) 0.7754(6) 0.5581(15)
H15 H 0.738970 0.760451 0.498688
C27 C 0.7941(6) 0.7780(5) 0.5642(15)
C28 C 0.8200(6) 0.7984(5) 0.6552(16)
H16 H 0.844324 0.799671 0.660288
C29 C 0.8084(6) 0.8173(5) 0.7412(16)
C30 C 0.7736(6) 0.8169(5) 0.7284(17)
H17 H 0.767685 0.831707 0.780395
C31 C 0.8063(7) 0.7590(7) 0.4714(16)
C32 C 0.8027(8) 0.7671(7) 0.3513(17)
H18 H 0.794831 0.785395 0.334215
C33 C 0.8103(8) 0.7495(8) 0.2599(18)
H19 H 0.807588 0.755702 0.181874
C34 C 0.8222(6) 0.7216(5) 0.2828(14)
C35 C 0.8300(7) 0.7012(6) 0.1825(17)
C36 C 0.8271(6) 0.7142(6) 0.4042(14)
H20 H 0.835837 0.696590 0.421462
C37 C 0.8192(6) 0.7328(6) 0.4978(15)
C38 C 0.8213(6) 0.7209(5) 0.6216(14)
C39 C 0.8356(5) 0.8396(5) 0.8403(18)
C40 C 0.8468(7) 0.8793(6) 0.861(2)
H21 H 0.838852 0.891753 0.806579
C41 C 0.8692(11) 0.9017(8) 0.960(3)
H22 H 0.873639 0.926875 0.976839
C44 C 0.8504(5) 0.8219(5) 0.9156(18)
C45 C 0.8409(5) 0.7803(5) 0.9053(15)
Pr5 Pr 0.20986(2) 0.84352(3) 0.53706(6)
Pr6 Pr 0.11839(2) 0.82829(3) 0.75072(6)
Pr7 Pr 0.34092(4) 0.73024(6) 0.04127(12)
O24 O 0.1498(4) 0.7901(6) 0.6142(12)
O25 O 0.0948(4) 0.7568(6) 0.7161(13)
O28 O 0.0713(4) 0.5491(6) 0.6259(12)
O29 O 0.0413(4) 0.5834(6) 0.6044(11)
O30 O 0.0958(4) 0.6194(6) 0.3972(12)
O31 O 0.1179(4) 0.5776(6) 0.3922(15)
O32 O 0.2508(7) 0.6402(10) 0.187(2)
O33 O 0.2842(7) 0.7072(10) 0.170(2)
O34 O 0.1785(4) 0.8818(6) 0.6774(12)
O35 O 0.2314(4) 0.9134(6) 0.5624(13)
O45 O 0.3448(6) 0.7889(9) 0.145(3)
H25 H 0.325893 0.794910 0.111019
H26 H 0.338937 0.782890 0.228262
H28 H 0.409692 0.816472 0.011952
C47 C 0.1225(5) 0.7576(7) 0.6600(14)
C48 C 0.1253(5) 0.7215(7) 0.6460(14)
C49 C 0.1488(5) 0.7173(7) 0.5591(14)
H29 H 0.162576 0.738013 0.506143
C50 C 0.1525(5) 0.6853(7) 0.5482(16)
C51 C 0.1320(6) 0.6558(8) 0.6312(16)
H30 H 0.133778 0.633010 0.625277
C52 C 0.1091(5) 0.6577(8) 0.7226(15)
C53 C 0.1061(5) 0.6910(8) 0.7270(17)
H31 H 0.090671 0.693201 0.786053
C54 C 0.0902(6) 0.6266(8) 0.8185(14)
C55 C 0.0983(8) 0.6390(11) 0.9336(16)
H32 H 0.113423 0.665957 0.949104
C58 C 0.0548(5) 0.5588(8) 0.8875(14)
H34 H 0.040050 0.531903 0.870718
C59 C 0.0697(5) 0.5865(8) 0.7977(14)
C61 C 0.0603(5) 0.5712(7) 0.6688(14)
C62 C 0.1763(6) 0.6828(8) 0.4530(18)
C63 C 0.2138(7) 0.7141(10) 0.438(2)
H35 H 0.221471 0.738013 0.476371
C64 C 0.2422(8) 0.7099(13) 0.360(3)
H36 H 0.267874 0.730690 0.350865
C65 C 0.2309(7) 0.6775(11) 0.307(3)
C66 C 0.1935(7) 0.6442(11) 0.326(3)
H37 H 0.187668 0.619976 0.293995
C67 C 0.1658(6) 0.6473(8) 0.3922(18)
C68 C 0.1236(5) 0.6126(8) 0.3946(16)
C69 C 0.2577(11) 0.6755(16) 0.214(4)
C70 C 0.2048(5) 0.9143(8) 0.6233(17)
C71 C 0.2049(5) 0.9516(8) 0.6402(15)
C72 C 0.2246(6) 0.9814(8) 0.5581(15)
H38 H 0.239549 0.978519 0.498688
C75 C 0.1827(5) 0.9911(8) 0.7412(16)
C76 C 0.1831(5) 0.9567(8) 0.7284(17)
H40 H 0.168293 0.935978 0.780395
C85 C 0.1604(5) 0.9960(7) 0.8403(18)
C86 C 0.1207(6) 0.9675(9) 0.861(2)
H44 H 0.108247 0.947099 0.806579
C87 C 0.0983(8) 0.9675(14) 0.960(3)
H45 H 0.073125 0.946764 0.976839
Pr8 Pr 0.15648(3) 0.36634(2) 0.53706(6)
Pr9 Pr 0.17171(3) 0.29010(2) 0.75072(6)
Pr10 Pr 0.26976(6) 0.61068(4) 0.04127(12)
O47 O 0.2099(6) 0.3597(4) 0.6142(12)
O48 O 0.2432(6) 0.3380(4) 0.7161(13)
O51 O 0.4509(6) 0.5222(4) 0.6259(12)
O52 O 0.4166(6) 0.4579(4) 0.6044(11)
O53 O 0.3806(6) 0.4764(4) 0.3972(12)
O54 O 0.4224(6) 0.5403(4) 0.3922(15)
O55 O 0.3598(10) 0.6106(7) 0.187(2)
O56 O 0.2928(10) 0.5770(7) 0.170(2)
O57 O 0.1182(6) 0.2967(4) 0.6774(12)
O58 O 0.0866(6) 0.3180(4) 0.5624(13)
O68 O 0.2111(9) 0.5559(7) 0.145(3)
H48 H 0.205090 0.530983 0.111019
H49 H 0.217110 0.556047 0.228262
H51 H 0.183528 0.593220 0.011952
C93 C 0.2424(7) 0.3649(5) 0.6600(14)
C94 C 0.2785(7) 0.4038(5) 0.6460(14)
C95 C 0.2827(7) 0.4315(5) 0.5591(14)
H52 H 0.261987 0.424563 0.506143
C96 C 0.3147(7) 0.4672(5) 0.5482(16)
C97 C 0.3442(8) 0.4762(6) 0.6312(16)
H53 H 0.366990 0.500768 0.625277
C98 C 0.3423(8) 0.4514(6) 0.7226(15)
C99 C 0.3090(8) 0.4151(6) 0.7270(17)
H54 H 0.306799 0.397470 0.786053
C100 C 0.3734(8) 0.4636(6) 0.8185(14)
C101 C 0.3610(11) 0.4593(8) 0.9336(16)
H55 H 0.334043 0.447466 0.949104
C104 C 0.4412(8) 0.4960(6) 0.8875(14)
H57 H 0.468097 0.508147 0.870718
C105 C 0.4135(8) 0.4832(6) 0.7977(14)
C107 C 0.4288(7) 0.4891(5) 0.6688(14)
C108 C 0.3172(8) 0.4935(6) 0.4530(18)
C109 C 0.2859(10) 0.4997(7) 0.438(2)
H58 H 0.261987 0.483458 0.476371
C110 C 0.2901(13) 0.5323(10) 0.360(3)
H59 H 0.269310 0.537184 0.350865
C111 C 0.3225(11) 0.5534(9) 0.307(3)
C112 C 0.3558(11) 0.5493(8) 0.326(3)
H60 H 0.380024 0.567692 0.293995
C113 C 0.3527(8) 0.5185(6) 0.3922(18)
C114 C 0.3874(8) 0.5110(6) 0.3946(16)
C115 C 0.3245(16) 0.5822(12) 0.214(4)
C116 C 0.0857(8) 0.2905(6) 0.6233(17)
C117 C 0.0484(8) 0.2533(6) 0.6402(15)
C118 C 0.0186(8) 0.2432(6) 0.5581(15)
H61 H 0.021481 0.261030 0.498688
C121 C 0.0089(8) 0.1916(6) 0.7412(16)
C122 C 0.0433(8) 0.2264(6) 0.7284(17)
H63 H 0.064022 0.232315 0.780395
C131 C 0.0040(7) 0.1644(5) 0.8403(18)
C132 C 0.0325(9) 0.1532(7) 0.861(2)
H67 H 0.052901 0.161148 0.806579
C133 C 0.0325(14) 0.1308(11) 0.960(3)
H68 H 0.053236 0.126361 0.976839
Pr16 Pr 0.82315(3) 0.69967(2) 0.87039(6)
Pr22 Pr 0.83838(3) 0.62343(2) 0.08405(6)
O70 O 0.1697(5) 0.2778(5) 0.5405(11)
O71 O 0.7222(5) 0.8918(7) 0.5405(11)
O72 O 0.1082(7) 0.8303(5) 0.5405(11)
O73 O 0.1531(5) 0.3125(4) 0.4161(11)
O74 O 0.6875(4) 0.8405(6) 0.4161(11)
O75 O 0.1595(6) 0.8469(5) 0.4161(11)
O76 O 0.1445(4) 0.2620(4) 0.9592(12)
O77 O 0.7380(4) 0.8824(6) 0.9592(12)
O78 O 0.1176(6) 0.8555(4) 0.9592(12)
O79 O 0.2088(4) 0.2920(4) 0.9377(11)
O80 O 0.7080(4) 0.9167(6) 0.9377(11)
O81 O 0.0833(6) 0.7912(4) 0.9377(11)
O82 O 0.1903(4) 0.2375(4) 0.7305(12)
O83 O 0.7625(4) 0.9527(6) 0.7305(12)
O84 O 0.0473(6) 0.8097(4) 0.7305(12)
O85 O 0.1264(4) 0.2154(4) 0.7255(15)
O86 O 0.7846(4) 0.9109(6) 0.7255(15)
O87 O 0.0891(6) 0.8736(4) 0.7255(15)
O88 O 0.1549(5) 0.3764(5) 0.7472(13)
O89 O 0.6236(5) 0.7786(7) 0.7472(13)
O90 O 0.2214(7) 0.8451(5) 0.7472(13)
O91 O 0.1765(5) 0.3461(5) 0.8676(11)
O92 O 0.6539(5) 0.8305(7) 0.8676(11)
O93 O 0.1695(7) 0.8235(5) 0.8676(11)
O94 O 0.1874(4) 0.3950(5) 0.3322(12)
O95 O 0.6050(5) 0.7925(6) 0.3322(12)
O96 O 0.2075(6) 0.8126(4) 0.3322(12)
O97 O 0.1229(4) 0.3689(5) 0.3487(13)
O98 O 0.6311(5) 0.7541(6) 0.3487(13)
O99 O 0.2459(6) 0.8771(4) 0.3487(13)
O100 O 0.1383(4) 0.4201(4) 0.5600(13)
O101 O 0.5799(4) 0.7183(6) 0.5600(13)
O102 O 0.2817(6) 0.8617(4) 0.5600(13)
O103 O 0.2014(4) 0.4399(4) 0.5743(14)
O104 O 0.5601(4) 0.7616(6) 0.5743(14)
O105 O 0.2384(6) 0.7986(4) 0.5743(14)
Pr4 Pr 0.333333 0.666667 0.7725(3)
O21 O 0.3750(6) 0.7017(7) 0.929(2)
H1 H 0.399658 0.723267 0.896810
O23 O 0.3919(12) 0.5969(10) 0.958(4)
H4 H 0.404515 0.603185 0.881465
O44 O 0.2983(7) 0.6733(9) 0.929(2)
H24 H 0.276733 0.676391 0.896810
O46 O 0.4031(10) 0.7950(16) 0.958(4)
H27 H 0.396815 0.801330 0.881465
O67 O 0.3267(9) 0.6250(6) 0.929(2)
H47 H 0.323609 0.600342 0.896810
O69 O 0.2050(16) 0.6081(12) 0.958(4)
H50 H 0.198670 0.595485 0.881465
O106 O 0.2475(7) 0.5547(6) 0.8897(19)
O107 O 0.4453(6) 0.6929(9) 0.8897(19)
O108 O 0.3071(9) 0.7525(7) 0.8897(19)
O109 O 0.2647(8) 0.6116(8) 0.787(3)
O110 O 0.3884(8) 0.6532(11) 0.787(3)
O111 O 0.3468(11) 0.7353(8) 0.787(3)
O65 O 0.9738(9) 0.0858(7) 0.2230(19)
C134 C 0.9985(11) 0.1158(9) 0.031(2)
C135 C 0.9696(10) 0.1249(7) 0.013(2)
H69 H 0.948068 0.114797 0.063832
C138 C 0.9932(16) 0.0899(13) 0.135(3)
Pr17 Pr 0.96699(2) 0.45681(2) 0.20373(6)
O59 O 0.8881(7) 0.1784(5) 0.0805(13)
O60 O 0.8362(7) 0.1568(5) 0.2009(11)
O61 O 0.8742(6) 0.1459(4) 0.6655(12)
O62 O 0.9126(6) 0.2104(4) 0.6820(13)
O63 O 0.9484(6) 0.1950(4) 0.8933(13)
O64 O 0.9051(6) 0.1319(4) 0.9076(14)
C119 C 0.9839(8) 0.2059(6) 0.5642(15)
C120 C 0.9784(8) 0.1800(6) 0.6552(16)
H62 H 0.955347 0.155676 0.660288
C123 C 0.9527(10) 0.1937(7) 0.4714(16)
C124 C 0.9644(11) 0.1973(8) 0.3513(17)
H64 H 0.990564 0.205169 0.334215
C125 C 0.9392(11) 0.1897(8) 0.2599(18)
H65 H 0.948114 0.192412 0.181874
C126 C 0.8994(8) 0.1778(6) 0.2828(14)
C127 C 0.8712(9) 0.1700(7) 0.1825(17)
C128 C 0.8871(8) 0.1729(6) 0.4042(14)
H66 H 0.860753 0.164163 0.421462
C129 C 0.9136(8) 0.1808(6) 0.4978(15)
C130 C 0.8996(8) 0.1787(6) 0.6216(14)
C136 C 0.9715(7) 0.1496(5) 0.9156(18)
C137 C 0.9394(7) 0.1591(5) 0.9053(15)
Pr14 Pr 0.87653(2) 0.17685(3) 0.87039(6)
Pr21 Pr 0.78506(2) 0.16162(3) 0.08405(6)
O2_2 O 0.3287(4) 0.2385(4) 0.0494(13)
O11_2 O 0.3700(4) 0.1548(4) 0.0107(12)
O16_2 O 0.4563(4) 0.0355(5) 0.0153(13)
O17_2 O 0.4717(4) 0.0867(4) 0.2266(13)
O18_2 O 0.5348(4) 0.1065(4) 0.2409(14)
O19_2 O 0.5809(7) 0.2213(6) 0.5563(19)
O20_2 O 0.5981(8) 0.2782(8) 0.453(3)
C6_2 C 0.2153(6) 0.2242(5) 0.0559(15)
C7_2 C 0.2516(6) 0.2272(5) 0.0603(17)
H8_2 H 0.269197 0.242662 0.119386
C8_2 C 0.2031(6) 0.2431(6) 0.1518(14)
C9_2 C 0.2074(8) 0.2350(8) 0.2669(16)
H9_2 H 0.219201 0.219910 0.282437
C10_2 C 0.1948(6) 0.2486(7) 0.3617(16)
H10_2 H 0.198347 0.243276 0.439800
C11_2 C 0.1764(6) 0.2707(6) 0.3362(15)
C12_2 C 0.1707(6) 0.2785(5) 0.2208(14)
H11_2 H 0.158520 0.293283 0.204051
C13_2 C 0.1835(6) 0.2636(5) 0.1310(14)
C14_2 C 0.1658(7) 0.2888(6) 0.4397(16)
C15_2 C 0.1776(5) 0.2730(5) 0.0021(14)
C29_2 C 0.4751(6) 0.1506(5) 0.0745(16)
C30_2 C 0.4403(6) 0.1502(5) 0.0617(17)
H17_2 H 0.434352 0.165040 0.113728
C39_2 C 0.5023(5) 0.1729(5) 0.1736(18)
C40_2 C 0.5135(7) 0.2126(6) 0.194(2)
H21_2 H 0.505519 0.225086 0.139912
C41_2 C 0.5359(11) 0.2350(8) 0.293(3)
H22_2 H 0.540306 0.260208 0.310172
C42_2 C 0.5509(9) 0.2160(7) 0.364(2)
C43_2 C 0.5418(7) 0.1780(7) 0.346(2)
H23_2 H 0.551870 0.166604 0.397165
C44_2 C 0.5171(5) 0.1552(5) 0.2489(18)
C45_2 C 0.5076(5) 0.1136(5) 0.2386(15)
C46_2 C 0.5768(13) 0.2366(10) 0.468(3)
Pr31_2 Pr 0.60309(6) 0.27735(4) 0.70794(12)
Pr34_5 Pr 0.666666 0.333334 0.4392(3)
O77_2 O 0.4046(4) 0.2158(6) 0.2926(12)
O80_2 O 0.3746(4) 0.2501(6) 0.2711(11)
O83_2 O 0.4291(4) 0.2861(6) 0.0639(12)
O86_2 O 0.4512(4) 0.2443(6) 0.0589(15)
Cl1_2 Cl -0.000000 0.000000 0.4608(7)
O1_2 O 0.3070(4) 0.1835(4) 0.9475(12)
O9_2 O 0.0561(7) 0.0825(7) 0.520(2)
O10_2 O 0.0897(7) 0.0491(7) 0.503(2)
O12_2 O 0.3487(4) 0.1019(4) 0.8957(13)
O13_2 O 0.4883(5) 0.0430(5) 0.4138(13)
O14_2 O 0.5099(5) 0.0127(5) 0.5342(11)
O15_2 O 0.5208(4) 0.0616(5) 0.9988(12)
O21_2 O 0.0417(6) 0.0350(7) 0.262(2)
H1_2 H 0.066325 0.056600 0.230143
H2_2 H 0.135684 0.007440 0.444352
C1_2 C 0.3018(5) 0.2108(5) 0.9933(14)
C2_2 C 0.2629(5) 0.2080(5) 0.9793(14)
C3_2 C 0.2352(5) 0.1845(5) 0.8924(14)
H6_2 H 0.242104 0.170757 0.839476
C4_2 C 0.1995(5) 0.1808(5) 0.8815(16)
C5_2 C 0.1905(6) 0.2013(6) 0.9645(16)
H7_2 H 0.165899 0.199555 0.958610
C16_2 C 0.1732(6) 0.1570(6) 0.7863(18)
C17_2 C 0.1670(7) 0.1195(7) 0.771(2)
H12_2 H 0.183209 0.111862 0.809704
C18_2 C 0.1344(10) 0.0911(8) 0.693(3)
H13_2 H 0.129483 0.065459 0.684198
C19_2 C 0.1133(9) 0.1024(7) 0.640(3)
C20_2 C 0.1174(8) 0.1398(7) 0.659(3)
H14_2 H 0.098975 0.145665 0.627328
C21_2 C 0.1482(6) 0.1675(6) 0.7255(18)
C22_2 C 0.1557(6) 0.2097(5) 0.7279(16)
C23_2 C 0.0845(12) 0.0756(11) 0.547(4)
C24_2 C 0.3762(6) 0.1285(5) 0.9566(17)
C25_2 C 0.4134(6) 0.1284(5) 0.9735(15)
C26_2 C 0.4235(6) 0.1087(6) 0.8914(15)
H15_2 H 0.405637 0.093784 0.832021
C27_2 C 0.4608(6) 0.1113(5) 0.8975(15)
C28_2 C 0.4867(6) 0.1317(5) 0.9885(16)
H16_2 H 0.510991 0.133004 0.993621
C31_2 C 0.4730(7) 0.0923(7) 0.8047(16)
C32_2 C 0.4694(8) 0.1004(7) 0.6846(17)
H18_2 H 0.461498 0.118728 0.667548
C33_2 C 0.4770(8) 0.0828(8) 0.5932(18)
H19_2 H 0.474255 0.089035 0.515207
C34_2 C 0.4889(6) 0.0549(5) 0.6161(14)
C35_2 C 0.4967(7) 0.0345(6) 0.5158(17)
C36_2 C 0.4938(6) 0.0475(6) 0.7375(14)
H20_2 H 0.502504 0.029923 0.754795
C37_2 C 0.4859(6) 0.0661(6) 0.8311(15)
C38_2 C 0.4880(6) 0.0542(5) 0.9549(14)
O45_2 O 0.0115(6) 0.1222(9) 0.478(3)
H26_2 H 0.005604 0.116223 0.561595
O46_2 O 0.0698(10) 0.1283(16) 0.291(4)
H27_2 H 0.063482 0.134663 0.214798
H28_2 H 0.076359 0.149805 0.345285
O71_2 O 0.3888(5) 0.2252(7) 0.8739(11)
O74_2 O 0.3541(4) 0.1739(6) 0.7495(11)
C98_2 C 0.0090(8) 0.7847(6) 0.0559(15)
C100_2 C 0.0401(8) 0.7969(6) 0.1518(14)
C101_2 C 0.0277(11) 0.7926(8) 0.2669(16)
H55_2 H 0.000710 0.780799 0.282437
C102_2 C 0.0539(9) 0.8052(6) 0.3617(16)
H56_2 H 0.044930 0.801653 0.439800
C103_2 C 0.0944(8) 0.8236(6) 0.3362(15)
C104_2 C 0.1079(8) 0.8293(6) 0.2208(14)
H57_2 H 0.134764 0.841480 0.204051
C105_2 C 0.0802(8) 0.8165(6) 0.1310(14)
C106_2 C 0.1231(9) 0.8342(7) 0.4397(16)
C107_2 C 0.0955(7) 0.8224(5) 0.0021(14)
Cl1_3 Cl -0.000000 1.000000 0.4608(7)
O22_2 O 0.1108(7) 0.9885(6) 0.478(3)
H3_2 H 0.110620 0.994396 0.561595
O23_2 O 0.0586(12) 0.9302(10) 0.291(4)
H4_2 H 0.071182 0.936518 0.214798
H5_2 H 0.073447 0.923641 0.345285
O55_2 O 0.0265(10) 0.9439(7) 0.520(2)
C97_2 C 0.0109(8) 0.8095(6) 0.9645(16)
H53_2 H 0.033657 0.834101 0.958610
C112_2 C 0.0225(11) 0.8826(8) 0.659(3)
H60_2 H 0.046691 0.901025 0.627328
C113_2 C 0.0194(8) 0.8518(6) 0.7255(18)
C114_2 C 0.0541(8) 0.8443(6) 0.7279(16)
O25_2 O 0.7615(4) 0.0901(6) 0.0494(13)
O34_2 O 0.8452(4) 0.2151(6) 0.0107(12)
O39_2 O 0.9645(5) 0.4207(6) 0.0153(13)
O40_2 O 0.9133(4) 0.3849(6) 0.2266(13)
O41_2 O 0.8935(4) 0.4282(6) 0.2409(14)
O42_2 O 0.7787(6) 0.3595(9) 0.5563(19)
O43_2 O 0.7218(8) 0.3198(11) 0.453(3)
C53_2 C 0.7728(5) 0.0243(8) 0.0603(17)
H31_2 H 0.757338 0.026534 0.119386
C75_2 C 0.8494(5) 0.3244(8) 0.0745(16)
C76_2 C 0.8498(5) 0.2900(8) 0.0617(17)
H40_2 H 0.834960 0.269311 0.113728
C85_2 C 0.8271(5) 0.3293(7) 0.1736(18)
C86_2 C 0.7874(6) 0.3008(9) 0.194(2)
H44_2 H 0.774914 0.280432 0.139912
C87_2 C 0.7650(8) 0.3008(14) 0.293(3)
H45_2 H 0.739792 0.280097 0.310172
C88_2 C 0.7840(7) 0.3348(11) 0.364(2)
C89_2 C 0.8220(7) 0.3637(10) 0.346(2)
H46_2 H 0.833396 0.385265 0.397165
C90_2 C 0.8448(5) 0.3618(7) 0.2489(18)
C91_2 C 0.8864(5) 0.3939(7) 0.2386(15)
C92_2 C 0.7634(10) 0.3401(16) 0.468(3)
Pr29_2 Pr 0.72265(4) 0.32575(4) 0.70794(12)
O78_2 O 0.7842(6) 0.1889(4) 0.2926(12)
O81_2 O 0.7499(6) 0.1246(4) 0.2711(11)
O84_2 O 0.7139(6) 0.1431(4) 0.0639(12)
O87_2 O 0.7557(6) 0.2070(4) 0.0589(15)
Cl1_4 Cl 1.000000 0.000000 0.4608(7)
O24_2 O 0.8165(4) 0.1234(6) 0.9475(12)
O33_2 O 0.9509(7) 0.0405(10) 0.503(2)
O35_2 O 0.8981(4) 0.2467(6) 0.8957(13)
O36_2 O 0.9570(5) 0.4452(7) 0.4138(13)
O37_2 O 0.9873(5) 0.4971(7) 0.5342(11)
O38_2 O 0.9384(5) 0.4591(6) 0.9988(12)
O44_2 O 0.9650(7) 0.0066(9) 0.262(2)
H24_2 H 0.943400 0.009724 0.230143
H25_2 H 0.992560 0.128243 0.444352
C47_2 C 0.7892(5) 0.0909(7) 0.9933(14)
C48_2 C 0.7920(5) 0.0548(7) 0.9793(14)
C49_2 C 0.8155(5) 0.0506(7) 0.8924(14)
H29_2 H 0.829243 0.071346 0.839476
C50_2 C 0.8192(5) 0.0186(7) 0.8815(16)
C62_2 C 0.8430(6) 0.0161(8) 0.7863(18)
C63_2 C 0.8805(7) 0.0474(10) 0.771(2)
H35_2 H 0.888138 0.071346 0.809704
C64_2 C 0.9089(8) 0.0432(13) 0.693(3)
H36_2 H 0.934541 0.064023 0.684198
C65_2 C 0.8976(7) 0.0108(11) 0.640(3)
C69_2 C 0.9244(11) 0.0088(16) 0.547(4)
C70_2 C 0.8715(5) 0.2476(8) 0.9566(17)
C71_2 C 0.8716(5) 0.2849(8) 0.9735(15)
C72_2 C 0.8913(6) 0.3147(8) 0.8914(15)
H38_2 H 0.906216 0.311852 0.832021
C73_2 C 0.8887(5) 0.3494(8) 0.8975(15)
C74_2 C 0.8683(5) 0.3549(8) 0.9885(16)
H39_2 H 0.866996 0.377986 0.993621
C77_2 C 0.9077(7) 0.3806(10) 0.8047(16)
C78_2 C 0.8996(7) 0.3689(11) 0.6846(17)
H41_2 H 0.881272 0.342769 0.667548
C79_2 C 0.9172(8) 0.3941(11) 0.5932(18)
H42_2 H 0.910965 0.385219 0.515207
C80_2 C 0.9451(5) 0.4339(8) 0.6161(14)
C81_2 C 0.9655(6) 0.4621(9) 0.5158(17)
C82_2 C 0.9525(6) 0.4462(8) 0.7375(14)
H43_2 H 0.970077 0.472580 0.754795
C83_2 C 0.9339(6) 0.4197(8) 0.8311(15)
C84_2 C 0.9458(5) 0.4337(8) 0.9549(14)
O72_2 O 0.7748(7) 0.1637(5) 0.8739(11)
O75_2 O 0.8261(6) 0.1803(5) 0.7495(11)
C52_2 C 0.7758(5) 0.9910(8) 0.0559(15)
C54_2 C 0.7569(6) 0.9599(8) 0.1518(14)
C55_2 C 0.7650(8) 0.9723(11) 0.2669(16)
H32_2 H 0.780090 0.999290 0.282437
C56_2 C 0.7514(7) 0.9461(9) 0.3617(16)
H33_2 H 0.756724 0.955070 0.439800
C57_2 C 0.7293(6) 0.9056(8) 0.3362(15)
C58_2 C 0.7215(5) 0.8921(8) 0.2208(14)
H34_2 H 0.706717 0.865236 0.204051
C59_2 C 0.7364(5) 0.9198(8) 0.1310(14)
C60_2 C 0.7112(6) 0.8769(9) 0.4397(16)
C61_2 C 0.7270(5) 0.9045(7) 0.0021(14)
O48_2 O 0.9099(6) 0.6713(4) 0.0494(13)
O57_2 O 0.7849(6) 0.6300(4) 0.0107(12)
O62_2 O 0.5793(6) 0.5437(4) 0.0153(13)
O63_2 O 0.6151(6) 0.5283(4) 0.2266(13)
O64_2 O 0.5718(6) 0.4652(4) 0.2409(14)
O65_2 O 0.6405(9) 0.4191(7) 0.5563(19)
O66_2 O 0.6802(11) 0.4019(8) 0.453(3)
C99_2 C 0.9757(8) 0.7484(6) 0.0603(17)
H54_2 H 0.973466 0.730803 0.119386
C121_2 C 0.6756(8) 0.5249(6) 0.0745(16)
C122_2 C 0.7100(8) 0.5597(6) 0.0617(17)
H63_2 H 0.730689 0.565648 0.113728
C131_2 C 0.6707(7) 0.4977(5) 0.1736(18)
C132_2 C 0.6992(9) 0.4865(7) 0.194(2)
H67_2 H 0.719568 0.494481 0.139912
C133_2 C 0.6992(14) 0.4641(11) 0.293(3)
H68_2 H 0.719903 0.459694 0.310172
C134_2 C 0.6652(11) 0.4491(9) 0.364(2)
C135_2 C 0.6363(10) 0.4582(7) 0.346(2)
H69_2 H 0.614735 0.448130 0.397165
C136_2 C 0.6382(7) 0.4829(5) 0.2489(18)
C137_2 C 0.6061(7) 0.4924(5) 0.2386(15)
C138_2 C 0.6599(16) 0.4232(13) 0.468(3)
Pr30_2 Pr 0.67425(4) 0.39691(6) 0.70794(12)
O76_2 O 0.8111(4) 0.5954(4) 0.2926(12)
O79_2 O 0.8754(4) 0.6254(4) 0.2711(11)
O82_2 O 0.8569(4) 0.5709(4) 0.0639(12)
O85_2 O 0.7930(4) 0.5488(4) 0.0589(15)
Cl1_5 Cl 1.000000 1.000000 0.4608(7)
O32_2 O 0.9175(7) 0.9735(10) 0.520(2)
C51_2 C 0.7987(6) 0.9891(8) 0.9645(16)
H30_2 H 0.800445 0.966343 0.958610
C66_2 C 0.8602(7) 0.9775(11) 0.659(3)
H37_2 H 0.854335 0.953309 0.627328
C67_2 C 0.8325(6) 0.9806(8) 0.7255(18)
C68_2 C 0.7903(5) 0.9459(8) 0.7279(16)
O47_2 O 0.8766(6) 0.6930(4) 0.9475(12)
O56_2 O 0.9595(10) 0.9103(7) 0.503(2)
O58_2 O 0.7533(6) 0.6513(4) 0.8957(13)
O59_2 O 0.5548(7) 0.5117(5) 0.4138(13)
O60_2 O 0.5029(7) 0.4901(5) 0.5342(11)
O61_2 O 0.5409(6) 0.4792(4) 0.9988(12)
O67_2 O 0.9934(9) 0.9583(6) 0.262(2)
H47_2 H 0.990276 0.933675 0.230143
O68_2 O 0.8778(9) 0.8892(7) 0.478(3)
H48_2 H 0.871757 0.864316 0.444352
H49_2 H 0.883777 0.889380 0.561595
O69_2 O 0.8717(16) 0.9414(12) 0.291(4)
H50_2 H 0.865337 0.928818 0.214798
H51_2 H 0.850195 0.926553 0.345285
C93_2 C 0.9091(7) 0.6982(5) 0.9933(14)
C94_2 C 0.9452(7) 0.7371(5) 0.9793(14)
C95_2 C 0.9494(7) 0.7648(5) 0.8924(14)
H52_2 H 0.928654 0.757896 0.839476
C96_2 C 0.9814(7) 0.8005(5) 0.8815(16)
C108_2 C 0.9839(8) 0.8268(6) 0.7863(18)
C109_2 C 0.9526(10) 0.8330(7) 0.771(2)
H58_2 H 0.928654 0.816791 0.809704
C110_2 C 0.9568(13) 0.8656(10) 0.693(3)
H59_2 H 0.935977 0.870517 0.684198
C111_2 C 0.9892(11) 0.8867(9) 0.640(3)
C115_2 C 0.9912(16) 0.9155(12) 0.547(4)
C116_2 C 0.7524(8) 0.6238(6) 0.9566(17)
C117_2 C 0.7151(8) 0.5866(6) 0.9735(15)
C118_2 C 0.6853(8) 0.5765(6) 0.8914(15)
H61_2 H 0.688148 0.594363 0.832021
C119_2 C 0.6506(8) 0.5392(6) 0.8975(15)
C120_2 C 0.6451(8) 0.5133(6) 0.9885(16)
H62_2 H 0.622014 0.489009 0.993621
C123_2 C 0.6194(10) 0.5270(7) 0.8047(16)
C124_2 C 0.6311(11) 0.5306(8) 0.6846(17)
H64_2 H 0.657231 0.538502 0.667548
C125_2 C 0.6059(11) 0.5230(8) 0.5932(18)
H65_2 H 0.614781 0.525745 0.515207
C126_2 C 0.5661(8) 0.5111(6) 0.6161(14)
C127_2 C 0.5379(9) 0.5033(7) 0.5158(17)
C128_2 C 0.5538(8) 0.5062(6) 0.7375(14)
H66_2 H 0.527420 0.497496 0.754795
C129_2 C 0.5803(8) 0.5141(6) 0.8311(15)
C130_2 C 0.5663(8) 0.5120(6) 0.9549(14)
O70_2 O 0.8363(5) 0.6112(5) 0.8739(11)
O73_2 O 0.8197(5) 0.6459(4) 0.7495(11)
O11_3 O 0.0366(4) 0.4882(4) 0.3441(12)
O12_3 O 0.0153(4) 0.4353(4) 0.2291(13)
C24_3 C 0.0428(6) 0.4619(5) 0.2900(17)
C25_3 C 0.0800(6) 0.4618(5) 0.3069(15)
C26_3 C 0.0901(6) 0.4421(6) 0.2248(15)
H15_3 H 0.072303 0.427118 0.165355
C27_3 C 0.1274(6) 0.4447(5) 0.2309(15)
C28_3 C 0.1533(6) 0.4651(5) 0.3219(16)
H16_3 H 0.177657 0.466338 0.326955
C29_3 C 0.1417(6) 0.4840(5) 0.4079(16)
C30_3 C 0.1069(6) 0.4836(5) 0.3951(17)
H17_3 H 0.101018 0.498374 0.447062
C31_3 C 0.1396(7) 0.4257(7) 0.1381(16)
C32_3 C 0.1360(8) 0.4338(7) 0.0180(17)
H18_3 H 0.128164 0.452062 0.000882
C36_3 C 0.1604(6) 0.3809(6) 0.0709(14)
H20_3 H 0.169170 0.363257 0.088129
C37_3 C 0.1525(6) 0.3995(6) 0.1645(15)
C38_3 C 0.1546(6) 0.3876(5) 0.2883(14)
C39_3 C 0.1689(5) 0.5063(5) 0.5070(18)
C40_3 C 0.1801(7) 0.5460(6) 0.528(2)
H21_3 H 0.172185 0.558420 0.473246
C41_3 C 0.2025(11) 0.5684(8) 0.627(3)
H22_3 H 0.206972 0.593542 0.643506
C42_3 C 0.2175(9) 0.5494(7) 0.698(2)
C43_3 C 0.2084(7) 0.5114(7) 0.680(2)
H23_3 H 0.218536 0.499938 0.730499
C44_3 C 0.1837(5) 0.4886(5) 0.5823(18)
C45_3 C 0.1742(5) 0.4470(5) 0.5720(15)
C46_3 C 0.2434(13) 0.5700(10) 0.802(3)
C33_3 C 0.1436(8) 0.4162(8) 0.9266(18)
H19_3 H 0.140921 0.422369 0.848541
C34_3 C 0.1555(6) 0.3883(5) 0.9495(14)
C35_3 C 0.1633(7) 0.3679(6) 0.8492(17)
O1_3 O 0.9736(4) 0.5169(4) 0.2809(12)
O2_3 O 0.9953(4) 0.5719(4) 0.3828(13)
C1_3 C 0.9684(5) 0.5442(5) 0.3267(14)
C2_3 C 0.9295(5) 0.5414(5) 0.3127(14)
C3_3 C 0.9018(5) 0.5179(5) 0.2258(14)
H6_3 H 0.908770 0.504091 0.172810
C4_3 C 0.8661(5) 0.5142(5) 0.2149(16)
C5_3 C 0.8571(6) 0.5347(6) 0.2979(16)
H7_3 H 0.832565 0.532889 0.291944
C6_3 C 0.8819(6) 0.5576(5) 0.3893(15)
C7_3 C 0.9182(6) 0.5606(5) 0.3937(17)
H8_3 H 0.935863 0.575996 0.452720
C8_3 C 0.8697(6) 0.5765(6) 0.4852(14)
C9_3 C 0.8740(8) 0.5684(8) 0.6003(16)
H9_3 H 0.885867 0.553244 0.615771
C10_3 C 0.8614(6) 0.5820(7) 0.6951(16)
H10_3 H 0.865013 0.576610 0.773134
C11_3 C 0.8430(6) 0.6041(6) 0.6696(15)
C12_3 C 0.8373(6) 0.6119(5) 0.5542(14)
H11_3 H 0.825186 0.626617 0.537385
C13_3 C 0.8501(6) 0.5970(5) 0.4644(14)
C14_3 C 0.8324(7) 0.6222(6) 0.7731(16)
C15_3 C 0.8442(5) 0.6064(5) 0.3355(14)
C16_3 C 0.8398(6) 0.4904(6) 0.1197(18)
C17_3 C 0.8336(7) 0.4529(7) 0.105(2)
H12_3 H 0.849875 0.445196 0.143038
C18_3 C 0.8010(10) 0.4245(8) 0.027(3)
H13_3 H 0.796149 0.398793 0.017532
C21_3 C 0.8148(6) 0.5009(6) 0.0589(18)
C22_3 C 0.8223(6) 0.5431(5) 0.0613(16)
O24_3 O 0.4831(4) 0.4568(6) 0.2809(12)
O25_3 O 0.4281(4) 0.4235(6) 0.3828(13)
O34_3 O 0.5118(4) 0.5485(6) 0.3441(12)
O35_3 O 0.5647(4) 0.5801(6) 0.2291(13)
C47_3 C 0.4558(5) 0.4243(7) 0.3267(14)
C48_3 C 0.4586(5) 0.3882(7) 0.3127(14)
C49_3 C 0.4821(5) 0.3840(7) 0.2258(14)
H29_3 H 0.495909 0.404680 0.172810
C50_3 C 0.4858(5) 0.3520(7) 0.2149(16)
C51_3 C 0.4653(6) 0.3225(8) 0.2979(16)
H30_3 H 0.467111 0.299677 0.291944
C52_3 C 0.4424(5) 0.3244(8) 0.3893(15)
C53_3 C 0.4394(5) 0.3577(8) 0.3937(17)
H31_3 H 0.424004 0.359868 0.452720
C54_3 C 0.4235(6) 0.2933(8) 0.4852(14)
C55_3 C 0.4316(8) 0.3057(11) 0.6003(16)
H32_3 H 0.446756 0.332624 0.615771
C56_3 C 0.4180(7) 0.2795(9) 0.6951(16)
H33_3 H 0.423390 0.288404 0.773134
C57_3 C 0.3959(6) 0.2390(8) 0.6696(15)
C58_3 C 0.3881(5) 0.2255(8) 0.5542(14)
H34_3 H 0.373383 0.198570 0.537385
C59_3 C 0.4030(5) 0.2532(8) 0.4644(14)
C60_3 C 0.3778(6) 0.2103(9) 0.7731(16)
C61_3 C 0.3936(5) 0.2379(7) 0.3355(14)
C62_3 C 0.5096(6) 0.3495(8) 0.1197(18)
C63_3 C 0.5471(7) 0.3808(10) 0.105(2)
H35_3 H 0.554804 0.404680 0.143038
C64_3 C 0.5755(8) 0.3766(13) 0.027(3)
H36_3 H 0.601207 0.397357 0.017532
C67_3 C 0.4991(6) 0.3140(8) 0.0589(18)
C68_3 C 0.4569(5) 0.2793(8) 0.0613(16)
C70_3 C 0.5381(5) 0.5810(8) 0.2900(17)
C71_3 C 0.5382(5) 0.6183(8) 0.3069(15)
C72_3 C 0.5579(6) 0.6481(8) 0.2248(15)
H38_3 H 0.572882 0.645186 0.165355
C73_3 C 0.5553(5) 0.6828(8) 0.2309(15)
C74_3 C 0.5349(5) 0.6883(8) 0.3219(16)
H39_3 H 0.533662 0.711320 0.326955
C75_3 C 0.5160(5) 0.6578(8) 0.4079(16)
C76_3 C 0.5164(5) 0.6234(8) 0.3951(17)
H40_3 H 0.501626 0.602645 0.447062
C77_3 C 0.5743(7) 0.7140(10) 0.1381(16)
C78_3 C 0.5662(7) 0.7023(11) 0.0180(17)
H41_3 H 0.547938 0.676103 0.000882
C82_3 C 0.6191(6) 0.7796(8) 0.0709(14)
H43_3 H 0.636743 0.805914 0.088129
C83_3 C 0.6005(6) 0.7531(8) 0.1645(15)
C84_3 C 0.6124(5) 0.7671(8) 0.2883(14)
C85_3 C 0.4937(5) 0.6627(7) 0.5070(18)
C86_3 C 0.4540(6) 0.6342(9) 0.528(2)
H44_3 H 0.441580 0.613766 0.473246
C87_3 C 0.4316(8) 0.6342(14) 0.627(3)
H45_3 H 0.406458 0.613431 0.643506
C88_3 C 0.4506(7) 0.6682(11) 0.698(2)
C89_3 C 0.4886(7) 0.6971(10) 0.680(2)
H46_3 H 0.500062 0.718599 0.730499
C90_3 C 0.5114(5) 0.6952(7) 0.5823(18)
C91_3 C 0.5530(5) 0.7273(7) 0.5720(15)
C92_3 C 0.4300(10) 0.6735(16) 0.802(3)
O47_3 O 0.5432(6) 0.0264(4) 0.2809(12)
O48_3 O 0.5765(6) 0.0047(4) 0.3828(13)
C93_3 C 0.5757(7) 0.0316(5) 0.3267(14)
C94_3 C 0.6118(7) 0.0705(5) 0.3127(14)
C95_3 C 0.6160(7) 0.0982(5) 0.2258(14)
H52_3 H 0.595320 0.091230 0.172810
C96_3 C 0.6480(7) 0.1339(5) 0.2149(16)
C97_3 C 0.6775(8) 0.1429(6) 0.2979(16)
H53_3 H 0.700323 0.167435 0.291944
C98_3 C 0.6756(8) 0.1181(6) 0.3893(15)
C99_3 C 0.6423(8) 0.0818(6) 0.3937(17)
H54_3 H 0.640132 0.064137 0.452720
C100_3 C 0.7067(8) 0.1303(6) 0.4852(14)
C101_3 C 0.6943(11) 0.1260(8) 0.6003(16)
H55_3 H 0.667376 0.114133 0.615771
C102_3 C 0.7205(9) 0.1386(6) 0.6951(16)
H56_3 H 0.711596 0.134987 0.773134
C103_3 C 0.7610(8) 0.1570(6) 0.6696(15)
C104_3 C 0.7745(8) 0.1627(6) 0.5542(14)
H57_3 H 0.801430 0.174814 0.537385
C105_3 C 0.7468(8) 0.1499(6) 0.4644(14)
C106_3 C 0.7897(9) 0.1676(7) 0.7731(16)
C107_3 C 0.7621(7) 0.1558(5) 0.3355(14)
C108_3 C 0.6505(8) 0.1602(6) 0.1197(18)
C109_3 C 0.6192(10) 0.1664(7) 0.105(2)
H58_3 H 0.595320 0.150125 0.143038
C110_3 C 0.6234(13) 0.1990(10) 0.027(3)
H59_3 H 0.602643 0.203851 0.017532
C113_3 C 0.6860(8) 0.1852(6) 0.0589(18)
C114_3 C 0.7207(8) 0.1777(6) 0.0613(16)
Cl1_6 Cl 0.666666 0.333334 0.7942(7)
O9_3 O 0.7227(7) 0.4159(7) 0.854(2)
O10_3 O 0.7563(7) 0.3825(7) 0.837(2)
O21_3 O 0.7083(6) 0.3684(7) 0.596(2)
H1_3 H 0.732991 0.389934 0.563477
O22_3 O 0.7774(7) 0.3219(6) 0.812(3)
H2_3 H 0.802350 0.340774 0.777686
H3_3 H 0.777286 0.327730 0.894929
O23_3 O 0.7252(12) 0.2636(10) 0.625(4)
H4_3 H 0.737848 0.269852 0.548132
H5_3 H 0.740113 0.256975 0.678619
C19_3 C 0.7799(9) 0.4358(7) 0.974(3)
C20_3 C 0.7840(8) 0.4732(7) 0.993(3)
H14_3 H 0.765641 0.478999 0.960662
C23_3 C 0.7511(12) 0.4090(11) 0.881(4)
O32_3 O 0.5841(7) 0.3069(10) 0.854(2)
O33_3 O 0.6175(7) 0.3739(10) 0.837(2)
O44_3 O 0.6316(7) 0.3400(9) 0.596(2)
H24_3 H 0.610066 0.343058 0.563477
O45_3 O 0.6781(6) 0.4556(9) 0.812(3)
H25_3 H 0.659226 0.461577 0.777686
H26_3 H 0.672270 0.449557 0.894929
O46_3 O 0.7364(10) 0.4617(16) 0.625(4)
H27_3 H 0.730148 0.467997 0.548132
H28_3 H 0.743025 0.483139 0.678619
C65_3 C 0.5642(7) 0.3442(11) 0.974(3)
C66_3 C 0.5268(7) 0.3109(11) 0.993(3)
H37_3 H 0.521001 0.286643 0.960662
C69_3 C 0.5910(11) 0.3422(16) 0.881(4)
C79_3 C 0.5838(8) 0.7275(11) 0.9266(18)
H42_3 H 0.577631 0.718553 0.848541
C80_3 C 0.6117(5) 0.7673(8) 0.9495(14)
C81_3 C 0.6321(6) 0.7955(9) 0.8492(17)
O55_3 O 0.6931(10) 0.2773(7) 0.854(2)
O56_3 O 0.6261(10) 0.2437(7) 0.837(2)
O67_3 O 0.6600(9) 0.2917(6) 0.596(2)
H47_3 H 0.656942 0.267009 0.563477
O68_3 O 0.5444(9) 0.2226(7) 0.812(3)
H48_3 H 0.538423 0.197650 0.777686
H49_3 H 0.550443 0.222714 0.894929
O69_3 O 0.5383(16) 0.2748(12) 0.625(4)
H50_3 H 0.532003 0.262152 0.548132
H51_3 H 0.516861 0.259887 0.678619
C111_3 C 0.6558(11) 0.2201(9) 0.974(3)
C112_3 C 0.6891(11) 0.2160(8) 0.993(3)
H60_3 H 0.713357 0.234359 0.960662
C115_3 C 0.6578(16) 0.2489(12) 0.881(4)
O57_3 O 0.4515(6) 0.9634(4) 0.3441(12)
O58_3 O 0.4199(6) 0.9847(4) 0.2291(13)
C116_3 C 0.4190(8) 0.9572(6) 0.2900(17)
C117_3 C 0.3817(8) 0.9200(6) 0.3069(15)
C118_3 C 0.3519(8) 0.9099(6) 0.2248(15)
H61_3 H 0.354814 0.927697 0.165355
C119_3 C 0.3172(8) 0.8726(6) 0.2309(15)
C120_3 C 0.3117(8) 0.8467(6) 0.3219(16)
H62_3 H 0.288680 0.822343 0.326955
C121_3 C 0.3422(8) 0.8583(6) 0.4079(16)
C122_3 C 0.3766(8) 0.8931(6) 0.3951(17)
H63_3 H 0.397355 0.898982 0.447062
C123_3 C 0.2860(10) 0.8604(7) 0.1381(16)
C124_3 C 0.2977(11) 0.8640(8) 0.0180(17)
H64_3 H 0.323897 0.871836 0.000882
C128_3 C 0.2204(8) 0.8396(6) 0.0709(14)
H66_3 H 0.194086 0.830830 0.088129
C129_3 C 0.2469(8) 0.8475(6) 0.1645(15)
C130_3 C 0.2329(8) 0.8454(6) 0.2883(14)
C131_3 C 0.3373(7) 0.8311(5) 0.5070(18)
C132_3 C 0.3658(9) 0.8199(7) 0.528(2)
H67_3 H 0.386234 0.827815 0.473246
C133_3 C 0.3658(14) 0.7975(11) 0.627(3)
H68_3 H 0.386569 0.793028 0.643506
C134_3 C 0.3318(11) 0.7825(9) 0.698(2)
C135_3 C 0.3029(10) 0.7916(7) 0.680(2)
H69_3 H 0.281401 0.781464 0.730499
C136_3 C 0.3048(7) 0.8163(5) 0.5823(18)
C137_3 C 0.2727(7) 0.8258(5) 0.5720(15)
C138_3 C 0.3265(16) 0.7566(13) 0.802(3)
C125_3 C 0.2725(11) 0.8564(8) 0.9266(18)
H65_3 H 0.281447 0.859079 0.848541
C126_3 C 0.2327(8) 0.8445(6) 0.9495(14)
C127_3 C 0.2045(9) 0.8367(7) 0.8492(17)
loop_
_geom_bond_atom_site_label_1
_geom_bond_atom_site_label_2
_geom_bond_site_symmetry_1
_geom_bond_site_symmetry_2
O42 C92 1_555 1_555
C89 C88 1_555 1_555
H46 C89 1_555 1_555
C92 C88 1_555 1_555
O36 C81 1_555 1_555
O37 C81 1_555 1_555
O38 C84 1_555 1_555
O39 C84 1_555 1_555
O40 C91 1_555 1_555
O41 C91 1_555 1_555
C74 C73 1_555 1_555
H39 C74 1_555 1_555
C77 C73 1_555 1_555
C78 C77 1_555 1_555
H41 C78 1_555 1_555
C79 C78 1_555 1_555
H42 C79 1_555 1_555
C80 C79 1_555 1_555
C81 C80 1_555 1_555
C82 C80 1_555 1_555
H43 C82 1_555 1_555
C83 C77 1_555 1_555
C84 C83 1_555 1_555
C91 C90 1_555 1_555
Pr12 O38 1_555 1_555
Pr20 O37 1_555 1_555
O39 Pr12 1_555 1_555
O40 Pr12 1_555 1_555
O41 Pr12 1_555 1_555
C82 C83 1_555 1_555
O3 C14 1_555 1_555
O4 C14 1_555 1_555
O19 C46 1_555 1_555
O20 C46 1_555 1_555
H10 C10 1_555 1_555
C11 C10 1_555 1_555
C14 C11 1_555 1_555
C43 C42 1_555 1_555
H23 C43 1_555 1_555
C46 C42 1_555 1_555
O26 C60 1_555 1_555
O27 C60 1_555 1_555
H33 C56 1_555 1_555
C57 C56 1_555 1_555
C60 C57 1_555 1_555
O49 C106 1_555 1_555
O50 C106 1_555 1_555
H56 C102 1_555 1_555
C103 C102 1_555 1_555
C106 C103 1_555 1_555
Pr18 O50 1_555 1_555
Pr24 O26 1_555 1_555
Pr26 O49 1_555 1_555
Pr28 O3 1_555 1_555
Pr31 O19 1_555 1_555
Pr34 O66 1_555 1_555
Pr34_2 O43 1_555 1_555
Pr34_4 O20 1_555 1_555
O20 Pr31 1_555 1_555
O43 Pr29 1_555 1_555
O66 Pr30 1_555 1_555
Pr1 O1 1_555 1_555
Pr2 O1 1_555 1_555
Pr3 Cl1 1_555 1_555
Cl1 Pr7 1_555 1_555
O1 C1 1_555 1_555
O2 Pr2 1_555 1_555
O5 C15 1_555 1_555
O6 C15 1_555 1_555
O7 C22 1_555 1_555
O8 C22 1_555 1_555
O9 C23 1_555 1_555
O10 Pr3 1_555 1_555
O11 Pr1 1_555 1_555
O12 Pr1 1_555 1_555
O13 C35 1_555 1_555
O14 C35 1_555 1_555
O15 C38 1_555 1_555
O16 C38 1_555 1_555
O17 C45 1_555 1_555
O18 C45 1_555 1_555
O22 Pr3 1_555 1_555
H2 O22 1_555 1_555
H3 O22 1_555 1_555
C1 O2 1_555 1_555
C2 C1 1_555 1_555
C3 C2 1_555 1_555
H6 C3 1_555 1_555
C4 C3 1_555 1_555
C5 C4 1_555 1_555
H7 C5 1_555 1_555
C6 C5 1_555 1_555
C7 C2 1_555 1_555
H8 C7 1_555 1_555
C8 C6 1_555 1_555
C9 C8 1_555 1_555
H9 C9 1_555 1_555
H11 C12 1_555 1_555
C13 C8 1_555 1_555
C15 C13 1_555 1_555
C16 C4 1_555 1_555
C17 C16 1_555 1_555
H12 C17 1_555 1_555
C18 C17 1_555 1_555
H13 C18 1_555 1_555
C19 C18 1_555 1_555
C20 C19 1_555 1_555
H14 C20 1_555 1_555
C21 C16 1_555 1_555
C22 C21 1_555 1_555
C23 O10 1_555 1_555
C24 O11 1_555 1_555
C25 C24 1_555 1_555
C26 C25 1_555 1_555
H15 C26 1_555 1_555
C27 C26 1_555 1_555
C28 C27 1_555 1_555
H16 C28 1_555 1_555
C29 C28 1_555 1_555
C30 C25 1_555 1_555
H17 C30 1_555 1_555
C31 C27 1_555 1_555
C32 C31 1_555 1_555
H18 C32 1_555 1_555
C33 C32 1_555 1_555
H19 C33 1_555 1_555
C34 C33 1_555 1_555
C35 C34 1_555 1_555
C36 C34 1_555 1_555
H20 C36 1_555 1_555
C37 C31 1_555 1_555
C38 C37 1_555 1_555
C39 C29 1_555 1_555
C40 C39 1_555 1_555
H21 C40 1_555 1_555
C41 C40 1_555 1_555
H22 C41 1_555 1_555
C44 C39 1_555 1_555
C45 C44 1_555 1_555
Pr5 O24 1_555 1_555
Pr6 O24 1_555 1_555
Pr7 O9 1_555 1_555
O24 C47 1_555 1_555
O25 Pr6 1_555 1_555
O28 C61 1_555 1_555
O29 C61 1_555 1_555
O30 C68 1_555 1_555
O31 C68 1_555 1_555
O32 C69 1_555 1_555
O33 Pr7 1_555 1_555
O34 Pr5 1_555 1_555
O35 Pr5 1_555 1_555
O45 Pr7 1_555 1_555
H25 O45 1_555 1_555
H26 O45 1_555 1_555
C47 O25 1_555 1_555
C48 C47 1_555 1_555
C49 C48 1_555 1_555
H29 C49 1_555 1_555
C50 C49 1_555 1_555
C51 C50 1_555 1_555
H30 C51 1_555 1_555
C52 C51 1_555 1_555
C53 C48 1_555 1_555
H31 C53 1_555 1_555
C54 C52 1_555 1_555
C55 C54 1_555 1_555
H32 C55 1_555 1_555
H34 C58 1_555 1_555
C59 C54 1_555 1_555
C61 C59 1_555 1_555
C62 C50 1_555 1_555
C63 C62 1_555 1_555
H35 C63 1_555 1_555
C64 C63 1_555 1_555
H36 C64 1_555 1_555
C65 C64 1_555 1_555
C66 C65 1_555 1_555
H37 C66 1_555 1_555
C67 C62 1_555 1_555
C68 C67 1_555 1_555
C69 O33 1_555 1_555
C70 O34 1_555 1_555
C71 C70 1_555 1_555
C72 C71 1_555 1_555
H38 C72 1_555 1_555
C76 C71 1_555 1_555
H40 C76 1_555 1_555
C85 C75 1_555 1_555
C86 C85 1_555 1_555
H44 C86 1_555 1_555
C87 C86 1_555 1_555
H45 C87 1_555 1_555
Pr8 O47 1_555 1_555
Pr9 O47 1_555 1_555
Pr10 Cl1 1_555 1_555
O47 C93 1_555 1_555
O48 Pr9 1_555 1_555
O51 C107 1_555 1_555
O52 C107 1_555 1_555
O53 C114 1_555 1_555
O54 C114 1_555 1_555
O55 Pr3 1_555 1_555
O56 Pr10 1_555 1_555
O57 Pr8 1_555 1_555
O58 Pr8 1_555 1_555
O68 Pr10 1_555 1_555
H48 O68 1_555 1_555
H49 O68 1_555 1_555
C93 O48 1_555 1_555
C94 C93 1_555 1_555
C95 C94 1_555 1_555
H52 C95 1_555 1_555
C96 C95 1_555 1_555
C97 C96 1_555 1_555
H53 C97 1_555 1_555
C98 C97 1_555 1_555
C99 C94 1_555 1_555
H54 C99 1_555 1_555
C100 C98 1_555 1_555
C101 C100 1_555 1_555
H55 C101 1_555 1_555
H57 C104 1_555 1_555
C105 C100 1_555 1_555
C107 C105 1_555 1_555
C108 C96 1_555 1_555
C109 C108 1_555 1_555
H58 C109 1_555 1_555
C110 C109 1_555 1_555
H59 C110 1_555 1_555
C111 C110 1_555 1_555
C112 C111 1_555 1_555
H60 C112 1_555 1_555
C113 C108 1_555 1_555
C114 C113 1_555 1_555
C115 O55 1_555 1_555
C116 O57 1_555 1_555
C117 C116 1_555 1_555
C118 C117 1_555 1_555
H61 C118 1_555 1_555
C122 C117 1_555 1_555
H63 C122 1_555 1_555
C131 C121 1_555 1_555
C132 C131 1_555 1_555
H67 C132 1_555 1_555
C133 C132 1_555 1_555
H68 C133 1_555 1_555
Pr16 O15 1_555 1_555
Pr22 O14 1_555 1_555
Pr24 O28 1_555 1_555
Pr26 O51 1_555 1_555
Pr28 O5 1_555 1_555
O70 Pr9 1_555 1_555
O71 Pr2 1_555 1_555
O72 Pr6 1_555 1_555
O73 Pr8 1_555 1_555
O74 Pr1 1_555 1_555
O75 Pr5 1_555 1_555
O76 Pr9 1_555 1_555
O77 Pr2 1_555 1_555
O78 Pr6 1_555 1_555
O79 Pr9 1_555 1_555
O80 Pr2 1_555 1_555
O81 Pr6 1_555 1_555
O82 Pr9 1_555 1_555
O83 Pr2 1_555 1_555
O84 Pr6 1_555 1_555
O85 Pr9 1_555 1_555
O86 Pr2 1_555 1_555
O87 Pr6 1_555 1_555
O88 Pr8 1_555 1_555
O89 Pr1 1_555 1_555
O90 Pr5 1_555 1_555
O91 Pr9 1_555 1_555
O92 Pr2 1_555 1_555
O93 Pr6 1_555 1_555
O94 Pr8 1_555 1_555
O95 Pr1 1_555 1_555
O96 Pr5 1_555 1_555
O97 Pr8 1_555 1_555
O98 Pr1 1_555 1_555
O99 Pr5 1_555 1_555
O100 Pr8 1_555 1_555
O101 Pr1 1_555 1_555
O102 Pr5 1_555 1_555
O103 Pr8 1_555 1_555
O104 Pr1 1_555 1_555
O105 Pr5 1_555 1_555
Pr2 O11 1_555 1_555
O6 Pr28 1_555 1_555
O7 Pr28 1_555 1_555
O8 Pr28 1_555 1_555
O12 C24 1_555 1_555
O16 Pr16 1_555 1_555
O17 Pr16 1_555 1_555
O18 Pr16 1_555 1_555
C6 C7 1_555 1_555
C12 C13 1_555 1_555
C19 C23 1_555 1_555
C20 C21 1_555 1_555
C29 C30 1_555 1_555
C36 C37 1_555 1_555
Pr6 O34 1_555 1_555
O29 Pr24 1_555 1_555
O30 Pr24 1_555 1_555
O31 Pr24 1_555 1_555
O32 Pr10 1_555 1_555
O35 C70 1_555 1_555
C52 C53 1_555 1_555
C58 C59 1_555 1_555
C65 C69 1_555 1_555
C66 C67 1_555 1_555
C75 C76 1_555 1_555
Pr9 O57 1_555 1_555
O52 Pr26 1_555 1_555
O53 Pr26 1_555 1_555
O54 Pr26 1_555 1_555
O56 C115 1_555 1_555
O58 C116 1_555 1_555
C98 C99 1_555 1_555
C104 C105 1_555 1_555
C111 C115 1_555 1_555
C112 C113 1_555 1_555
C121 C122 1_555 1_555
Pr4 O21 1_555 1_555
H1 O21 1_555 1_555
H4 O23 1_555 1_555
O44 Pr4 1_555 1_555
H24 O44 1_555 1_555
H27 O46 1_555 1_555
H47 O67 1_555 1_555
H50 O69 1_555 1_555
O109 Pr4 1_555 1_555
O111 Pr4 1_555 1_555
Pr4 O67 1_555 1_555
Pr4 O110 1_555 1_555
O65 C138 1_555 1_555
C135 C134 1_555 1_555
H69 C135 1_555 1_555
C138 C134 1_555 1_555
O59 C127 1_555 1_555
O60 C127 1_555 1_555
O61 C130 1_555 1_555
O62 C130 1_555 1_555
O63 C137 1_555 1_555
O64 C137 1_555 1_555
C120 C119 1_555 1_555
H62 C120 1_555 1_555
C123 C119 1_555 1_555
C124 C123 1_555 1_555
H64 C124 1_555 1_555
C125 C124 1_555 1_555
H65 C125 1_555 1_555
C126 C125 1_555 1_555
C127 C126 1_555 1_555
C128 C126 1_555 1_555
H66 C128 1_555 1_555
C129 C123 1_555 1_555
C130 C129 1_555 1_555
C137 C136 1_555 1_555
Pr14 O61 1_555 1_555
Pr21 O60 1_555 1_555
O62 Pr14 1_555 1_555
O63 Pr14 1_555 1_555
O64 Pr14 1_555 1_555
C128 C129 1_555 1_555
O2_2 Pr20 1_555 1_555
O70 C14_2 1_555 1_555
O73 C14_2 1_555 1_555
O17_2 C45_2 1_555 1_555
O18_2 C45_2 1_555 1_555
O19_2 C46_2 1_555 1_555
O20_2 C46_2 1_555 1_555
H8_2 C7_2 1_555 1_555
C8_2 C6_2 1_555 1_555
C9_2 C8_2 1_555 1_555
H9_2 C9_2 1_555 1_555
C10_2 C9_2 1_555 1_555
H10_2 C10_2 1_555 1_555
C11_2 C10_2 1_555 1_555
C12_2 C11_2 1_555 1_555
H11_2 C12_2 1_555 1_555
C13_2 C8_2 1_555 1_555
C14_2 C11_2 1_555 1_555
C15_2 C13_2 1_555 1_555
H17_2 C30_2 1_555 1_555
C39_2 C29_2 1_555 1_555
C40_2 C39_2 1_555 1_555
H21_2 C40_2 1_555 1_555
C41_2 C40_2 1_555 1_555
H22_2 C41_2 1_555 1_555
C42_2 C41_2 1_555 1_555
C43_2 C42_2 1_555 1_555
H23_2 C43_2 1_555 1_555
C44_2 C39_2 1_555 1_555
C45_2 C44_2 1_555 1_555
C46_2 C42_2 1_555 1_555
Pr31_2 O19_2 1_555 1_555
Pr34_5 O20_2 1_555 1_555
O77_2 Pr20 1_555 1_555
O80_2 Pr20 1_555 1_555
O83_2 Pr20 1_555 1_555
O86_2 Pr20 1_555 1_555
Pr20 O11_2 1_555 1_555
O16_2 Pr19 1_555 1_555
O17_2 Pr19 1_555 1_555
O18_2 Pr19 1_555 1_555
O20_2 Pr31_2 1_555 1_555
C6_2 C7_2 1_555 1_555
C12_2 C13_2 1_555 1_555
C29_2 C30_2 1_555 1_555
C43_2 C44_2 1_555 1_555
Pr12 O1_2 1_555 1_555
Pr34 O21_2 1_555 1_555
Cl1_2 Pr30 1_555 1_555
O1_2 C1_2 1_555 1_555
O82 C22_2 1_555 1_555
O85 C22_2 1_555 1_555
O9_2 C23_2 1_555 1_555
O12_2 Pr12 1_555 1_555
O13_2 C35_2 1_555 1_555
O14_2 C35_2 1_555 1_555
O15_2 C38_2 1_555 1_555
H1_2 O21_2 1_555 1_555
C2_2 C1_2 1_555 1_555
C3_2 C2_2 1_555 1_555
H6_2 C3_2 1_555 1_555
C4_2 C3_2 1_555 1_555
C5_2 C4_2 1_555 1_555
H7_2 C5_2 1_555 1_555
C16_2 C4_2 1_555 1_555
C17_2 C16_2 1_555 1_555
H12_2 C17_2 1_555 1_555
C18_2 C17_2 1_555 1_555
H13_2 C18_2 1_555 1_555
C19_2 C18_2 1_555 1_555
C20_2 C19_2 1_555 1_555
H14_2 C20_2 1_555 1_555
C21_2 C16_2 1_555 1_555
C22_2 C21_2 1_555 1_555
C23_2 O10_2 1_555 1_555
C25_2 C24_2 1_555 1_555
C26_2 C25_2 1_555 1_555
H15_2 C26_2 1_555 1_555
C27_2 C26_2 1_555 1_555
C28_2 C27_2 1_555 1_555
H16_2 C28_2 1_555 1_555
C31_2 C27_2 1_555 1_555
C32_2 C31_2 1_555 1_555
H18_2 C32_2 1_555 1_555
C33_2 C32_2 1_555 1_555
H19_2 C33_2 1_555 1_555
C34_2 C33_2 1_555 1_555
C35_2 C34_2 1_555 1_555
C36_2 C34_2 1_555 1_555
H20_2 C36_2 1_555 1_555
C37_2 C31_2 1_555 1_555
C38_2 C37_2 1_555 1_555
Pr30 O9_2 1_555 1_555
O45_2 Pr30 1_555 1_555
H26_2 O45_2 1_555 1_555
O46_2 Pr30 1_555 1_555
H27_2 O46_2 1_555 1_555
H28_2 O46_2 1_555 1_555
Pr19 O13_2 1_555 1_555
O74_2 Pr12 1_555 1_555
O12_2 C24_2 1_555 1_555
O21_2 Pr30 1_555 1_555
C19_2 C23_2 1_555 1_555
C20_2 C21_2 1_555 1_555
C36_2 C37_2 1_555 1_555
O72 C106_2 1_555 1_555
O75 C106_2 1_555 1_555
C100_2 C98_2 1_555 1_555
C101_2 C100_2 1_555 1_555
H55_2 C101_2 1_555 1_555
C102_2 C101_2 1_555 1_555
H56_2 C102_2 1_555 1_555
C103_2 C102_2 1_555 1_555
C104_2 C103_2 1_555 1_555
H57_2 C104_2 1_555 1_555
C105_2 C100_2 1_555 1_555
C106_2 C103_2 1_555 1_555
C107_2 C105_2 1_555 1_555
C104_2 C105_2 1_555 1_555
Pr29 Cl1_3 1_555 1_555
O22_2 Pr29 1_555 1_555
H3_2 O22_2 1_555 1_555
O23_2 Pr29 1_555 1_555
H4_2 O23_2 1_555 1_555
H5_2 O23_2 1_555 1_555
O84 C114_2 1_555 1_555
O87 C114_2 1_555 1_555
O55_2 Pr29 1_555 1_555
H53_2 C97_2 1_555 1_555
H60_2 C112_2 1_555 1_555
C114_2 C113_2 1_555 1_555
C112_2 C113_2 1_555 1_555
O25_2 Pr21 1_555 1_555
O40_2 C91_2 1_555 1_555
O41_2 C91_2 1_555 1_555
O42_2 C92_2 1_555 1_555
O43_2 C92_2 1_555 1_555
H31_2 C53_2 1_555 1_555
H40_2 C76_2 1_555 1_555
C85_2 C75_2 1_555 1_555
C86_2 C85_2 1_555 1_555
H44_2 C86_2 1_555 1_555
C87_2 C86_2 1_555 1_555
H45_2 C87_2 1_555 1_555
C88_2 C87_2 1_555 1_555
C89_2 C88_2 1_555 1_555
H46_2 C89_2 1_555 1_555
C90_2 C85_2 1_555 1_555
C91_2 C90_2 1_555 1_555
C92_2 C88_2 1_555 1_555
Pr29_2 O42_2 1_555 1_555
Pr34_5 O43_2 1_555 1_555
O78_2 Pr21 1_555 1_555
O81_2 Pr21 1_555 1_555
O84_2 Pr21 1_555 1_555
O87_2 Pr21 1_555 1_555
Pr21 O34_2 1_555 1_555
O39_2 Pr17 1_555 1_555
O40_2 Pr17 1_555 1_555
O41_2 Pr17 1_555 1_555
O43_2 Pr29_2 1_555 1_555
C75_2 C76_2 1_555 1_555
C89_2 C90_2 1_555 1_555
Pr14 O24_2 1_555 1_555
O24_2 C47_2 1_555 1_555
O35_2 Pr14 1_555 1_555
O36_2 C81_2 1_555 1_555
O37_2 C81_2 1_555 1_555
O38_2 C84_2 1_555 1_555
O44_2 Pr34_3 1_555 1_555
H24_2 O44_2 1_555 1_555
C48_2 C47_2 1_555 1_555
C49_2 C48_2 1_555 1_555
H29_2 C49_2 1_555 1_555
C50_2 C49_2 1_555 1_555
C62_2 C50_2 1_555 1_555
C63_2 C62_2 1_555 1_555
H35_2 C63_2 1_555 1_555
C64_2 C63_2 1_555 1_555
H36_2 C64_2 1_555 1_555
C65_2 C64_2 1_555 1_555
C69_2 O33_2 1_555 1_555
C71_2 C70_2 1_555 1_555
C72_2 C71_2 1_555 1_555
H38_2 C72_2 1_555 1_555
C73_2 C72_2 1_555 1_555
C74_2 C73_2 1_555 1_555
H39_2 C74_2 1_555 1_555
C77_2 C73_2 1_555 1_555
C78_2 C77_2 1_555 1_555
H41_2 C78_2 1_555 1_555
C79_2 C78_2 1_555 1_555
H42_2 C79_2 1_555 1_555
C80_2 C79_2 1_555 1_555
C81_2 C80_2 1_555 1_555
C82_2 C80_2 1_555 1_555
H43_2 C82_2 1_555 1_555
C83_2 C77_2 1_555 1_555
C84_2 C83_2 1_555 1_555
Pr17 O36_2 1_555 1_555
O75_2 Pr14 1_555 1_555
O35_2 C70_2 1_555 1_555
C65_2 C69_2 1_555 1_555
C82_2 C83_2 1_555 1_555
O71 C60_2 1_555 1_555
O74 C60_2 1_555 1_555
C54_2 C52_2 1_555 1_555
C55_2 C54_2 1_555 1_555
H32_2 C55_2 1_555 1_555
C56_2 C55_2 1_555 1_555
H33_2 C56_2 1_555 1_555
C57_2 C56_2 1_555 1_555
C58_2 C57_2 1_555 1_555
H34_2 C58_2 1_555 1_555
C59_2 C54_2 1_555 1_555
C60_2 C57_2 1_555 1_555
C61_2 C59_2 1_555 1_555
O48_2 Pr22 1_555 1_555
O63_2 C137_2 1_555 1_555
O64_2 C137_2 1_555 1_555
O65_2 C138_2 1_555 1_555
O66_2 C138_2 1_555 1_555
H54_2 C99_2 1_555 1_555
H63_2 C122_2 1_555 1_555
C131_2 C121_2 1_555 1_555
C132_2 C131_2 1_555 1_555
H67_2 C132_2 1_555 1_555
C133_2 C132_2 1_555 1_555
H68_2 C133_2 1_555 1_555
C134_2 C133_2 1_555 1_555
C135_2 C134_2 1_555 1_555
H69_2 C135_2 1_555 1_555
C136_2 C131_2 1_555 1_555
C137_2 C136_2 1_555 1_555
C138_2 C134_2 1_555 1_555
Pr30_2 O65_2 1_555 1_555
Pr34_5 O66_2 1_555 1_555
O76_2 Pr22 1_555 1_555
O79_2 Pr22 1_555 1_555
O82_2 Pr22 1_555 1_555
O85_2 Pr22 1_555 1_555
C58_2 C59_2 1_555 1_555
Pr22 O57_2 1_555 1_555
O62_2 Pr18 1_555 1_555
O63_2 Pr18 1_555 1_555
O64_2 Pr18 1_555 1_555
O66_2 Pr30_2 1_555 1_555
C121_2 C122_2 1_555 1_555
C135_2 C136_2 1_555 1_555
O83 C68_2 1_555 1_555
O86 C68_2 1_555 1_555
H30_2 C51_2 1_555 1_555
H37_2 C66_2 1_555 1_555
C68_2 C67_2 1_555 1_555
Pr16 O47_2 1_555 1_555
Pr31 Cl1_5 1_555 1_555
O47_2 C93_2 1_555 1_555
O56_2 Pr31 1_555 1_555
O58_2 Pr16 1_555 1_555
O59_2 C127_2 1_555 1_555
O60_2 C127_2 1_555 1_555
O61_2 C130_2 1_555 1_555
H47_2 O67_2 1_555 1_555
O68_2 Pr31 1_555 1_555
H48_2 O68_2 1_555 1_555
H49_2 O68_2 1_555 1_555
O69_2 Pr31 1_555 1_555
H50_2 O69_2 1_555 1_555
H51_2 O69_2 1_555 1_555
C94_2 C93_2 1_555 1_555
C95_2 C94_2 1_555 1_555
H52_2 C95_2 1_555 1_555
C96_2 C95_2 1_555 1_555
C108_2 C96_2 1_555 1_555
C109_2 C108_2 1_555 1_555
H58_2 C109_2 1_555 1_555
C110_2 C109_2 1_555 1_555
H59_2 C110_2 1_555 1_555
C111_2 C110_2 1_555 1_555
C117_2 C116_2 1_555 1_555
C118_2 C117_2 1_555 1_555
H61_2 C118_2 1_555 1_555
C119_2 C118_2 1_555 1_555
C120_2 C119_2 1_555 1_555
H62_2 C120_2 1_555 1_555
C123_2 C119_2 1_555 1_555
C124_2 C123_2 1_555 1_555
H64_2 C124_2 1_555 1_555
C125_2 C124_2 1_555 1_555
H65_2 C125_2 1_555 1_555
C126_2 C125_2 1_555 1_555
C127_2 C126_2 1_555 1_555
C128_2 C126_2 1_555 1_555
H66_2 C128_2 1_555 1_555
C129_2 C123_2 1_555 1_555
C130_2 C129_2 1_555 1_555
Pr18 O59_2 1_555 1_555
Pr26 O60_2 1_555 1_555
O73_2 Pr16 1_555 1_555
Pr34_4 O67_2 1_555 1_555
O32_2 Pr31 1_555 1_555
C66_2 C67_2 1_555 1_555
Pr31 O67_2 1_555 1_555
O56_2 C115_2 1_555 1_555
O58_2 C116_2 1_555 1_555
C111_2 C115_2 1_555 1_555
C128_2 C129_2 1_555 1_555
O94 C38_3 1_555 1_555
O97 C38_3 1_555 1_555
O100 C45_3 1_555 1_555
O103 C45_3 1_555 1_555
O106 C46_3 1_555 1_555
O109 C46_3 1_555 1_555
C24_3 O11_3 1_555 1_555
C25_3 C24_3 1_555 1_555
C26_3 C25_3 1_555 1_555
H15_3 C26_3 1_555 1_555
C27_3 C26_3 1_555 1_555
C28_3 C27_3 1_555 1_555
H16_3 C28_3 1_555 1_555
C29_3 C28_3 1_555 1_555
C30_3 C25_3 1_555 1_555
H17_3 C30_3 1_555 1_555
C31_3 C27_3 1_555 1_555
C32_3 C31_3 1_555 1_555
H18_3 C32_3 1_555 1_555
H20_3 C36_3 1_555 1_555
C37_3 C31_3 1_555 1_555
C38_3 C37_3 1_555 1_555
C39_3 C29_3 1_555 1_555
C40_3 C39_3 1_555 1_555
H21_3 C40_3 1_555 1_555
C41_3 C40_3 1_555 1_555
H22_3 C41_3 1_555 1_555
C42_3 C41_3 1_555 1_555
C43_3 C42_3 1_555 1_555
H23_3 C43_3 1_555 1_555
C44_3 C39_3 1_555 1_555
C45_3 C44_3 1_555 1_555
C46_3 C42_3 1_555 1_555
Pr24 O11_3 1_555 1_555
O12_3 C24_3 1_555 1_555
C29_3 C30_3 1_555 1_555
C36_3 C37_3 1_555 1_555
C43_3 C44_3 1_555 1_555
O88 C35_3 1_555 1_555
O91 C35_3 1_555 1_555
H19_3 C33_3 1_555 1_555
C34_3 C33_3 1_555 1_555
C35_3 C34_3 1_555 1_555
Pr17 O1_3 1_555 1_555
O1_3 C1_3 1_555 1_555
O70_2 C14_3 1_555 1_555
O73_2 C14_3 1_555 1_555
O76_2 C15_3 1_555 1_555
O79_2 C15_3 1_555 1_555
O82_2 C22_3 1_555 1_555
O85_2 C22_3 1_555 1_555
C1_3 O2_3 1_555 1_555
C2_3 C1_3 1_555 1_555
C3_3 C2_3 1_555 1_555
H6_3 C3_3 1_555 1_555
C4_3 C3_3 1_555 1_555
C5_3 C4_3 1_555 1_555
H7_3 C5_3 1_555 1_555
C6_3 C5_3 1_555 1_555
C7_3 C2_3 1_555 1_555
H8_3 C7_3 1_555 1_555
C8_3 C6_3 1_555 1_555
C9_3 C8_3 1_555 1_555
H9_3 C9_3 1_555 1_555
C10_3 C9_3 1_555 1_555
H10_3 C10_3 1_555 1_555
C11_3 C10_3 1_555 1_555
C12_3 C11_3 1_555 1_555
H11_3 C12_3 1_555 1_555
C13_3 C8_3 1_555 1_555
C14_3 C11_3 1_555 1_555
C15_3 C13_3 1_555 1_555
C16_3 C4_3 1_555 1_555
C17_3 C16_3 1_555 1_555
H12_3 C17_3 1_555 1_555
C18_3 C17_3 1_555 1_555
H13_3 C18_3 1_555 1_555
C21_3 C16_3 1_555 1_555
C22_3 C21_3 1_555 1_555
Pr18 O24_3 1_555 1_555
Pr26 O24_3 1_555 1_555
O24_3 C47_3 1_555 1_555
O25_3 Pr26 1_555 1_555
O71_2 C60_3 1_555 1_555
O74_2 C60_3 1_555 1_555
O77_2 C61_3 1_555 1_555
O80_2 C61_3 1_555 1_555
O83_2 C68_3 1_555 1_555
O86_2 C68_3 1_555 1_555
O34_3 Pr18 1_555 1_555
O35_3 Pr18 1_555 1_555
O95 C84_3 1_555 1_555
O98 C84_3 1_555 1_555
O101 C91_3 1_555 1_555
O104 C91_3 1_555 1_555
O107 C92_3 1_555 1_555
O110 C92_3 1_555 1_555
C47_3 O25_3 1_555 1_555
C48_3 C47_3 1_555 1_555
C49_3 C48_3 1_555 1_555
H29_3 C49_3 1_555 1_555
C50_3 C49_3 1_555 1_555
C51_3 C50_3 1_555 1_555
H30_3 C51_3 1_555 1_555
C52_3 C51_3 1_555 1_555
C53_3 C48_3 1_555 1_555
H31_3 C53_3 1_555 1_555
C54_3 C52_3 1_555 1_555
C55_3 C54_3 1_555 1_555
H32_3 C55_3 1_555 1_555
C56_3 C55_3 1_555 1_555
H33_3 C56_3 1_555 1_555
C57_3 C56_3 1_555 1_555
C58_3 C57_3 1_555 1_555
H34_3 C58_3 1_555 1_555
C59_3 C54_3 1_555 1_555
C60_3 C57_3 1_555 1_555
C61_3 C59_3 1_555 1_555
C62_3 C50_3 1_555 1_555
C63_3 C62_3 1_555 1_555
H35_3 C63_3 1_555 1_555
C64_3 C63_3 1_555 1_555
H36_3 C64_3 1_555 1_555
C67_3 C62_3 1_555 1_555
C68_3 C67_3 1_555 1_555
C70_3 O34_3 1_555 1_555
C71_3 C70_3 1_555 1_555
C72_3 C71_3 1_555 1_555
H38_3 C72_3 1_555 1_555
C73_3 C72_3 1_555 1_555
C74_3 C73_3 1_555 1_555
H39_3 C74_3 1_555 1_555
C75_3 C74_3 1_555 1_555
C76_3 C71_3 1_555 1_555
H40_3 C76_3 1_555 1_555
C77_3 C73_3 1_555 1_555
C78_3 C77_3 1_555 1_555
H41_3 C78_3 1_555 1_555
H43_3 C82_3 1_555 1_555
C83_3 C77_3 1_555 1_555
C84_3 C83_3 1_555 1_555
C85_3 C75_3 1_555 1_555
C86_3 C85_3 1_555 1_555
H44_3 C86_3 1_555 1_555
C87_3 C86_3 1_555 1_555
H45_3 C87_3 1_555 1_555
C88_3 C87_3 1_555 1_555
C89_3 C88_3 1_555 1_555
H46_3 C89_3 1_555 1_555
C90_3 C85_3 1_555 1_555
C91_3 C90_3 1_555 1_555
C92_3 C88_3 1_555 1_555
Pr19 O47_3 1_555 1_555
O47_3 C93_3 1_555 1_555
O72_2 C106_3 1_555 1_555
O75_2 C106_3 1_555 1_555
O78_2 C107_3 1_555 1_555
O81_2 C107_3 1_555 1_555
O84_2 C114_3 1_555 1_555
O87_2 C114_3 1_555 1_555
C93_3 O48_3 1_555 1_555
C94_3 C93_3 1_555 1_555
C95_3 C94_3 1_555 1_555
H52_3 C95_3 1_555 1_555
C96_3 C95_3 1_555 1_555
C97_3 C96_3 1_555 1_555
H53_3 C97_3 1_555 1_555
C98_3 C97_3 1_555 1_555
C99_3 C94_3 1_555 1_555
H54_3 C99_3 1_555 1_555
C100_3 C98_3 1_555 1_555
C101_3 C100_3 1_555 1_555
H55_3 C101_3 1_555 1_555
C102_3 C101_3 1_555 1_555
H56_3 C102_3 1_555 1_555
C103_3 C102_3 1_555 1_555
C104_3 C103_3 1_555 1_555
H57_3 C104_3 1_555 1_555
C105_3 C100_3 1_555 1_555
C106_3 C103_3 1_555 1_555
C107_3 C105_3 1_555 1_555
C108_3 C96_3 1_555 1_555
C109_3 C108_3 1_555 1_555
H58_3 C109_3 1_555 1_555
C110_3 C109_3 1_555 1_555
H59_3 C110_3 1_555 1_555
C113_3 C108_3 1_555 1_555
C114_3 C113_3 1_555 1_555
C6_3 C7_3 1_555 1_555
C12_3 C13_3 1_555 1_555
Pr26 O34_3 1_555 1_555
O35_3 C70_3 1_555 1_555
C52_3 C53_3 1_555 1_555
C58_3 C59_3 1_555 1_555
C75_3 C76_3 1_555 1_555
C82_3 C83_3 1_555 1_555
C89_3 C90_3 1_555 1_555
C98_3 C99_3 1_555 1_555
C104_3 C105_3 1_555 1_555
Pr29_2 Cl1_6 1_555 1_555
Pr34_5 O21_3 1_555 1_555
Cl1_6 Pr30_2 1_555 1_555
O9_3 C23_3 1_555 1_555
O10_3 Pr29_2 1_555 1_555
O21_3 Pr29_2 1_555 1_555
H1_3 O21_3 1_555 1_555
O22_3 Pr29_2 1_555 1_555
H2_3 O22_3 1_555 1_555
H3_3 O22_3 1_555 1_555
O23_3 Pr29_2 1_555 1_555
H4_3 O23_3 1_555 1_555
H5_3 O23_3 1_555 1_555
C20_3 C19_3 1_555 1_555
H14_3 C20_3 1_555 1_555
C23_3 O10_3 1_555 1_555
Pr30_2 O9_3 1_555 1_555
O32_3 C69_3 1_555 1_555
O33_3 Pr30_2 1_555 1_555
O89 C81_3 1_555 1_555
O92 C81_3 1_555 1_555
O44_3 Pr34_5 1_555 1_555
H24_3 O44_3 1_555 1_555
O45_3 Pr30_2 1_555 1_555
H25_3 O45_3 1_555 1_555
H26_3 O45_3 1_555 1_555
O46_3 Pr30_2 1_555 1_555
H27_3 O46_3 1_555 1_555
H28_3 O46_3 1_555 1_555
C66_3 C65_3 1_555 1_555
H37_3 C66_3 1_555 1_555
C69_3 O33_3 1_555 1_555
H42_3 C79_3 1_555 1_555
C80_3 C79_3 1_555 1_555
C81_3 C80_3 1_555 1_555
Pr31_2 Cl1_6 1_555 1_555
O55_3 Pr29_2 1_555 1_555
O56_3 Pr31_2 1_555 1_555
O67_3 Pr29_2 1_555 1_555
H47_3 O67_3 1_555 1_555
O68_3 Pr31_2 1_555 1_555
H48_3 O68_3 1_555 1_555
H49_3 O68_3 1_555 1_555
O69_3 Pr31_2 1_555 1_555
H50_3 O69_3 1_555 1_555
H51_3 O69_3 1_555 1_555
C112_3 C111_3 1_555 1_555
H60_3 C112_3 1_555 1_555
C115_3 O55_3 1_555 1_555
Pr34_5 O67_3 1_555 1_555
O21_3 Pr30_2 1_555 1_555
C19_3 C23_3 1_555 1_555
Pr30_2 O44_3 1_555 1_555
O32_3 Pr31_2 1_555 1_555
O44_3 Pr31_2 1_555 1_555
C65_3 C69_3 1_555 1_555
Pr31_2 O67_3 1_555 1_555
O56_3 C115_3 1_555 1_555
C111_3 C115_3 1_555 1_555
O96 C130_3 1_555 1_555
O99 C130_3 1_555 1_555
O102 C137_3 1_555 1_555
O105 C137_3 1_555 1_555
O108 C138_3 1_555 1_555
O111 C138_3 1_555 1_555
C116_3 O57_3 1_555 1_555
C117_3 C116_3 1_555 1_555
C118_3 C117_3 1_555 1_555
H61_3 C118_3 1_555 1_555
C119_3 C118_3 1_555 1_555
C120_3 C119_3 1_555 1_555
H62_3 C120_3 1_555 1_555
C121_3 C120_3 1_555 1_555
C122_3 C117_3 1_555 1_555
H63_3 C122_3 1_555 1_555
C123_3 C119_3 1_555 1_555
C124_3 C123_3 1_555 1_555
H64_3 C124_3 1_555 1_555
H66_3 C128_3 1_555 1_555
C129_3 C123_3 1_555 1_555
C130_3 C129_3 1_555 1_555
C131_3 C121_3 1_555 1_555
C132_3 C131_3 1_555 1_555
H67_3 C132_3 1_555 1_555
C133_3 C132_3 1_555 1_555
H68_3 C133_3 1_555 1_555
C134_3 C133_3 1_555 1_555
C135_3 C134_3 1_555 1_555
H69_3 C135_3 1_555 1_555
C136_3 C131_3 1_555 1_555
C137_3 C136_3 1_555 1_555
C138_3 C134_3 1_555 1_555
Pr28 O57_3 1_555 1_555
O58_3 C116_3 1_555 1_555
C121_3 C122_3 1_555 1_555
C128_3 C129_3 1_555 1_555
C135_3 C136_3 1_555 1_555
O90 C127_3 1_555 1_555
O93 C127_3 1_555 1_555
H65_3 C125_3 1_555 1_555
C126_3 C125_3 1_555 1_555
C127_3 C126_3 1_555 1_555

#END
