
###############################################################################
#
# This file contains modified crystal structure data generated from the
# MOF subset of the Cambridge Structural Database (CSD) v543 
# hosted by the Cambridge Crystallographic Data Centre (CCDC).
#
# This work is licensed under the Creative Commons
# Attribution-NonCommercial-ShareAlike 4.0 International License.
# To view a copy of this license, visit
# http://creativecommons.org/licenses/by-nc-sa/4.0/
# or send a letter to
# Creative Commons, PO Box 1866, Mountain View, CA 94042, USA.
#
# CIF created using the CSD Python API on 29 September 2022
# The structure has been converted into the P1 space group
# The structure has a 3D framework
# The original CSD entry TEJWIS is in the rhombohedral crystal system
# The original CSD entry TEJWIS is in a Sohncke space group
# The framework has been calculated to contain at least 10.0% void space
# The void calculation uses a probe of radius 1.32A, grid spacing 0.4
# The framework is charged, counterions have been retained in the structure
#
###############################################################################

data_TEJWIS
_chemical_formula_moiety         '(C453 H375 N18 Nd29 O214 6+)n'
_symmetry_cell_setting           triclinic
_symmetry_space_group_name_H-M   'P 1'
_symmetry_Int_Tables_number      1
_space_group_name_Hall           'P 1'
loop_
_symmetry_equiv_pos_site_id
_symmetry_equiv_pos_as_xyz
1 x,y,z
_cell_length_a                   38.9345(11)
_cell_length_b                   38.9345(11)
_cell_length_c                   11.2154(3)
_cell_angle_alpha                90
_cell_angle_beta                 90
_cell_angle_gamma                120
_cell_volume                     14723.6
loop_
_atom_site_label
_atom_site_type_symbol
_atom_site_fract_x
_atom_site_fract_y
_atom_site_fract_z
Nd14 Nd 0.54833(2) 0.04347(2) 0.58649(3)
O74 O 0.5075(2) 0.0223(2) 0.9179(5)
O116 O 0.4880(2) 0.0371(2) 0.6609(6)
O119 O 0.4346(2) 0.0147(2) 0.7708(7)
Nd3 Nd 0.27721(2) 0.60282(2) 0.29594(5)
Nd4 Nd 0.333333 0.666667 0.56140(10)
O5 O 0.3084(3) 0.5848(3) 0.1515(9)
O6 O 0.3743(2) 0.6199(3) 0.1621(9)
O21 O 0.2900(2) 0.6613(2) 0.3995(8)
H1 H 0.268431 0.658703 0.427125
O22 O 0.333333 0.666667 0.2067(11)
H2 H 0.333333 0.666667 0.130922
O23 O 0.2210(3) 0.5448(3) 0.1900(11)
H3 H 0.219737 0.523459 0.213600
H4 H 0.199287 0.544089 0.205851
O24 O 0.2708(4) 0.5384(4) 0.3714(14)
H5 H 0.252694 0.519108 0.332374
H6 H 0.264874 0.535518 0.445024
O25 O 0.3833(6) 0.7270(5) 0.6836(16)
H7 H 0.372030 0.728338 0.746880
H8 H 0.403150 0.724508 0.701781
C1 C 0.3421(4) 0.5917(4) 0.1245(14)
C3 C 0.3439(3) 0.5629(3) 0.0377(11)
C4 C 0.3120(3) 0.5261(3) 0.0221(9)
H9 H 0.288388 0.519048 0.061965
Nd7 Nd 0.39718(2) 0.67439(3) 0.29594(5)
O30 O 0.4152(3) 0.7236(4) 0.1515(9)
O31 O 0.3801(3) 0.7544(4) 0.1621(9)
O46 O 0.3387(2) 0.6287(3) 0.3995(8)
H27 H 0.341297 0.609728 0.427125
O47 O 0.4552(3) 0.6762(4) 0.1900(11)
H28 H 0.476541 0.696278 0.213600
H29 H 0.455911 0.655198 0.205851
O48 O 0.4616(4) 0.7324(6) 0.3714(14)
H30 H 0.480892 0.733586 0.332374
H31 H 0.464482 0.729356 0.445024
O49 O 0.2730(5) 0.6563(8) 0.6836(16)
H32 H 0.271662 0.643692 0.746880
H33 H 0.275492 0.678642 0.701781
C47 C 0.4083(4) 0.7504(6) 0.1245(14)
C49 C 0.4371(3) 0.7810(4) 0.0377(11)
C50 C 0.4739(3) 0.7859(4) 0.0221(9)
H34 H 0.480952 0.769340 0.061965
Nd10 Nd 0.32561(3) 0.72279(2) 0.29594(5)
O54 O 0.2764(4) 0.6916(3) 0.1515(9)
O55 O 0.2456(4) 0.6257(2) 0.1621(9)
O70 O 0.3713(3) 0.7100(2) 0.3995(8)
H52 H 0.390272 0.731569 0.427125
O71 O 0.3238(4) 0.7790(3) 0.1900(11)
H53 H 0.303722 0.780263 0.213600
H54 H 0.344802 0.800713 0.205851
O72 O 0.2676(6) 0.7292(4) 0.3714(14)
H55 H 0.266414 0.747306 0.332374
H56 H 0.270644 0.735126 0.445024
O73 O 0.3437(8) 0.6167(6) 0.6836(16)
H57 H 0.356308 0.627970 0.746880
H58 H 0.321358 0.596850 0.701781
C93 C 0.2496(6) 0.6579(4) 0.1245(14)
C95 C 0.2190(4) 0.6561(3) 0.0377(11)
C96 C 0.2141(4) 0.6880(3) 0.0221(9)
H59 H 0.230660 0.711612 0.061965
O98 O 0.0621(2) 0.5213(2) 0.0042(6)
O99 O 0.4787(2) 0.5408(3) 0.0042(6)
O100 O 0.4592(3) 0.9379(2) 0.0042(6)
O104 O 0.2754(3) 0.5946(4) 0.5332(12)
O105 O 0.4054(4) 0.6808(5) 0.5332(12)
O106 O 0.3192(5) 0.7246(3) 0.5332(12)
O107 O 0.2193(3) 0.5787(3) 0.4408(8)
O108 O 0.4213(3) 0.6406(4) 0.4408(8)
O109 O 0.3594(4) 0.7807(3) 0.4408(8)
Nd2 Nd 0.03274(2) 0.48965(2) 0.79970(3)
O1 O 0.2255(2) 0.3897(2) 0.1290(5)
O2 O 0.1742(2) 0.3556(2) 0.2512(5)
O3 O 0.2158(2) 0.4050(2) 0.7108(6)
O4 O 0.24976(19) 0.3751(2) 0.7324(6)
O7 O 0.28621(18) 0.42878(19) 0.9392(6)
O8 O 0.24413(19) 0.4511(2) 0.9481(6)
O9 O 0.45710(19) 0.4828(2) 0.7254(6)
O10 O 0.42390(18) 0.42782(19) 0.6207(6)
O11 O 0.0434(2) 0.4894(2) 0.5904(6)
O12 O 0.0118(2) 0.5098(3) 0.4681(5)
O20 O 0.1013(2) 0.3480(2) 0.1041(7)
C2 C 0.2799(3) 0.4574(3) 0.9446(7)
C5 C 0.3144(3) 0.4987(3) 0.9463(9)
C6 C 0.3485(3) 0.5106(3) 0.8829(8)
C7 C 0.3808(3) 0.5483(3) 0.8953(10)
H10 H 0.403690 0.556089 0.850892
C8 C 0.3785(4) 0.5746(4) 0.9754(13)
H11 H 0.400255 0.599887 0.986473
C9 C 0.2108(3) 0.3783(3) 0.2315(8)
C10 C 0.2388(2) 0.3938(2) 0.6713(7)
C11 C 0.2392(3) 0.3958(3) 0.3333(8)
C12 C 0.2256(3) 0.3885(3) 0.4493(7)
H12 H 0.198559 0.373758 0.465281
C13 C 0.2532(3) 0.4038(3) 0.5430(7)
C14 C 0.2938(3) 0.4246(3) 0.5200(8)
C15 C 0.3062(3) 0.4310(4) 0.4021(9)
H13 H 0.333164 0.445075 0.385476
C16 C 0.2799(3) 0.4172(3) 0.3103(8)
H14 H 0.288997 0.422084 0.232077
C17 C 0.4251(3) 0.4552(3) 0.6784(8)
C18 C 0.3886(2) 0.4584(3) 0.6931(8)
C19 C 0.3842(2) 0.4810(2) 0.7795(8)
H15 H 0.404557 0.493972 0.834698
C20 C 0.3519(3) 0.4855(3) 0.7887(8)
C21 C 0.3223(3) 0.4659(3) 0.7053(8)
H16 H 0.299912 0.468643 0.708919
C22 C 0.3244(3) 0.4424(3) 0.6169(8)
C23 C 0.3579(3) 0.4390(3) 0.6117(8)
H17 H 0.360027 0.423344 0.552708
C24 C 0.0347(3) 0.4967(3) 0.4896(8)
C25 C 0.0528(3) 0.4876(3) 0.0481(7)
C26 C 0.0543(3) 0.4881(3) 0.3855(7)
C27 C 0.0472(3) 0.4941(3) 0.2670(8)
H18 H 0.030705 0.504365 0.250804
C28 C 0.0644(3) 0.4849(3) 0.1738(7)
C29 C 0.0908(3) 0.4711(3) 0.1989(8)
C30 C 0.0995(4) 0.4683(4) 0.3193(8)
H19 H 0.117860 0.460495 0.337337
C31 C 0.0821(4) 0.4766(4) 0.4075(10)
H20 H 0.088695 0.474671 0.485942
C40 C 0.1277(3) 0.3747(3) 0.0419(8)
C41 C 0.1292(3) 0.4135(3) 0.0300(7)
C42 C 0.1084(3) 0.4239(3) 0.1134(8)
H24 H 0.093715 0.406404 0.173990
C43 C 0.1102(3) 0.4598(3) 0.1044(7)
C44 C 0.1306(3) 0.4856(3) 0.0123(9)
H25 H 0.131200 0.509741 0.006338
Nd6 Nd 0.51035(2) 0.54309(3) 0.79970(3)
O26 O 0.6103(2) 0.8358(3) 0.1290(5)
O27 O 0.6444(2) 0.8186(3) 0.2512(5)
O28 O 0.5950(2) 0.8108(3) 0.7108(6)
O29 O 0.6249(2) 0.87466(28) 0.7324(6)
O32 O 0.57122(19) 0.85743(26) 0.9392(6)
O33 O 0.5489(2) 0.79303(28) 0.9481(6)
O34 O 0.5172(2) 0.97430(28) 0.7254(6)
O35 O 0.57218(19) 0.99608(26) 0.6207(6)
O36 O 0.5106(2) 0.5540(3) 0.5904(6)
O37 O 0.4902(3) 0.5020(4) 0.4681(5)
O45 O 0.6520(2) 0.7533(3) 0.1041(7)
C48 C 0.5426(3) 0.8225(4) 0.9446(7)
C51 C 0.5013(3) 0.8157(4) 0.9463(9)
C52 C 0.4894(3) 0.8379(4) 0.8829(8)
C53 C 0.4517(3) 0.8325(4) 0.8953(10)
H35 H 0.443911 0.847601 0.850892
C54 C 0.4254(4) 0.8039(6) 0.9754(13)
H36 H 0.400113 0.800368 0.986473
C55 C 0.6217(3) 0.8325(4) 0.2315(8)
C56 C 0.6062(2) 0.8450(3) 0.6713(7)
C57 C 0.6042(3) 0.8434(4) 0.3333(8)
C58 C 0.6115(3) 0.8371(4) 0.4493(7)
H37 H 0.626242 0.824801 0.465281
C59 C 0.5962(3) 0.8494(4) 0.5430(7)
C60 C 0.5754(3) 0.8692(4) 0.5200(8)
C61 C 0.5690(4) 0.8752(5) 0.4021(9)
H38 H 0.554925 0.888089 0.385476
C62 C 0.5828(3) 0.8627(4) 0.3103(8)
H39 H 0.577916 0.866913 0.232077
C63 C 0.5448(3) 0.9699(4) 0.6784(8)
C64 C 0.5416(3) 0.9302(4) 0.6931(8)
C65 C 0.5190(2) 0.9032(3) 0.7795(8)
H40 H 0.506028 0.910585 0.834698
C66 C 0.5145(3) 0.8664(4) 0.7887(8)
C67 C 0.5341(3) 0.8564(4) 0.7053(8)
H41 H 0.531357 0.831269 0.708919
C68 C 0.5576(3) 0.8820(4) 0.6169(8)
C69 C 0.5610(3) 0.9189(4) 0.6117(8)
H42 H 0.576656 0.936683 0.552708
C70 C 0.5033(3) 0.5380(4) 0.4896(8)
C71 C 0.5124(3) 0.5652(4) 0.0481(7)
C72 C 0.5119(3) 0.5662(4) 0.3855(7)
C73 C 0.5059(3) 0.5531(4) 0.2670(8)
H43 H 0.495635 0.526340 0.250804
C74 C 0.5151(3) 0.5795(4) 0.1738(7)
C75 C 0.5289(3) 0.6197(4) 0.1989(8)
C76 C 0.5317(4) 0.6312(6) 0.3193(8)
H44 H 0.539505 0.657365 0.337337
C77 C 0.5234(4) 0.6055(6) 0.4075(10)
H45 H 0.525329 0.614024 0.485942
C86 C 0.6253(3) 0.7530(4) 0.0419(8)
C87 C 0.5865(3) 0.7157(4) 0.0300(7)
C88 C 0.5761(3) 0.6845(4) 0.1134(8)
H49 H 0.593596 0.687311 0.173990
C89 C 0.5402(3) 0.6504(4) 0.1044(7)
C90 C 0.5144(3) 0.6450(4) 0.0123(9)
H50 H 0.490259 0.621459 0.006338
Nd9 Nd 0.45691(3) 0.96726(2) 0.79970(3)
O50 O 0.1642(3) 0.7745(2) 0.1290(5)
O51 O 0.1814(3) 0.8258(2) 0.2512(5)
O52 O 0.1892(3) 0.7842(2) 0.7108(6)
O53 O 0.12534(28) 0.75024(19) 0.7324(6)
O56 O 0.14257(26) 0.71379(18) 0.9392(6)
O57 O 0.20697(28) 0.75587(19) 0.9481(6)
O58 O 0.02570(28) 0.54290(19) 0.7254(6)
O59 O 0.00392(26) 0.57610(18) 0.6207(6)
O60 O 0.4460(3) 0.9566(2) 0.5904(6)
O61 O 0.4980(4) 0.9882(2) 0.4681(5)
O69 O 0.2467(3) 0.8987(2) 0.1041(7)
C94 C 0.1775(4) 0.7201(3) 0.9446(7)
C97 C 0.1843(4) 0.6856(3) 0.9463(9)
C98 C 0.1621(4) 0.6515(3) 0.8829(8)
C99 C 0.1675(4) 0.6192(3) 0.8953(10)
H60 H 0.152399 0.596310 0.850892
C100 C 0.1961(6) 0.6215(4) 0.9754(13)
H61 H 0.199632 0.599745 0.986473
C101 C 0.1675(4) 0.7892(3) 0.2315(8)
C102 C 0.1550(3) 0.7612(2) 0.6713(7)
C103 C 0.1566(4) 0.7608(3) 0.3333(8)
C104 C 0.1629(4) 0.7744(3) 0.4493(7)
H62 H 0.175199 0.801441 0.465281
C105 C 0.1506(4) 0.7468(3) 0.5430(7)
C106 C 0.1308(4) 0.7062(3) 0.5200(8)
C107 C 0.1248(5) 0.6938(3) 0.4021(9)
H63 H 0.111911 0.666836 0.385476
C108 C 0.1373(4) 0.7201(3) 0.3103(8)
H64 H 0.133087 0.711003 0.232077
C109 C 0.0301(4) 0.5749(3) 0.6784(8)
C110 C 0.0698(4) 0.6114(2) 0.6931(8)
C111 C 0.0968(3) 0.6158(2) 0.7795(8)
H65 H 0.089415 0.595443 0.834698
C112 C 0.1336(4) 0.6481(3) 0.7887(8)
C113 C 0.1436(4) 0.6777(3) 0.7053(8)
H66 H 0.168731 0.700088 0.708919
C114 C 0.1180(4) 0.6756(3) 0.6169(8)
C115 C 0.0811(4) 0.6421(3) 0.6117(8)
H67 H 0.063317 0.639973 0.552708
C116 C 0.4620(4) 0.9653(3) 0.4896(8)
C117 C 0.4348(4) 0.9472(3) 0.0481(7)
C118 C 0.4338(4) 0.9457(3) 0.3855(7)
C119 C 0.4469(4) 0.9528(3) 0.2670(8)
H68 H 0.473660 0.969295 0.250804
C120 C 0.4205(4) 0.9356(3) 0.1738(7)
C121 C 0.3803(4) 0.9092(3) 0.1989(8)
C122 C 0.3688(6) 0.9005(4) 0.3193(8)
H69 H 0.342635 0.882140 0.337337
C123 C 0.3945(6) 0.9179(4) 0.4075(10)
H70 H 0.385976 0.911305 0.485942
C132 C 0.2470(4) 0.8723(3) 0.0419(8)
C133 C 0.2843(4) 0.8708(3) 0.0300(7)
C134 C 0.3155(4) 0.8916(3) 0.1134(8)
H74 H 0.312689 0.906285 0.173990
C135 C 0.3496(4) 0.8898(3) 0.1044(7)
C136 C 0.3550(4) 0.8694(3) 0.0123(9)
H75 H 0.378541 0.868800 0.006338
Nd11 Nd 0.21500(2) 0.37680(2) 0.91982(3)
Nd12 Nd 0.62320(2) 0.83820(3) 0.91982(3)
Nd13 Nd 0.16180(3) 0.78500(2) 0.91982(3)
Nd16 Nd 0.49513(3) 0.45167(2) 0.58649(3)
Nd20 Nd 0.69941(2) 0.82298(2) 0.13303(3)
Nd21 Nd 0.17702(2) 0.87642(3) 0.13303(3)
Nd22 Nd 0.12358(3) 0.30059(2) 0.13303(3)
O76 O 0.5147(3) 0.4925(2) 0.9179(5)
O89 O 0.12377(19) 0.8161(2) 0.0587(6)
O90 O 0.1839(2) 0.30763(28) 0.0587(6)
O91 O 0.69237(28) 0.87623(19) 0.0587(6)
O101 O 0.0342(2) 0.4560(2) 0.9891(6)
O102 O 0.5440(2) 0.5782(3) 0.9891(6)
O103 O 0.4218(3) 0.9658(2) 0.9891(6)
O110 O 0.0864(2) 0.4717(2) 0.7761(6)
O111 O 0.5283(2) 0.6147(3) 0.7761(6)
O112 O 0.3853(3) 0.9136(2) 0.7761(6)
O113 O 0.1054(2) 0.5344(2) 0.7642(7)
O114 O 0.4656(2) 0.5710(3) 0.7642(7)
O115 O 0.4290(3) 0.8946(2) 0.7642(7)
O118 O 0.5490(3) 0.5120(2) 0.6609(6)
O121 O 0.5800(3) 0.5654(2) 0.7708(7)
O19 O 0.1547(2) 0.3704(2) 0.9942(6)
C32 C 0.2360(4) 0.5743(5) 0.5248(14)
C33 C 0.1131(3) 0.5069(3) 0.7646(8)
C34 C 0.2150(4) 0.5493(5) 0.6351(13)
C35 C 0.1769(3) 0.5407(4) 0.6560(11)
H21 H 0.164945 0.550405 0.604807
C36 C 0.1560(3) 0.5177(3) 0.7523(9)
C37 C 0.1727(3) 0.5029(3) 0.8291(9)
C38 C 0.2130(3) 0.5136(4) 0.8086(12)
H22 H 0.225199 0.504039 0.859237
C39 C 0.2343(4) 0.5383(5) 0.7137(15)
H23 H 0.261206 0.546987 0.704487
C45 C 0.1506(3) 0.4752(3) 0.9277(7)
C46 C 0.1512(3) 0.4404(3) 0.9393(8)
H26 H 0.166215 0.434700 0.887061
O44 O 0.6296(2) 0.7843(3) 0.9942(6)
C78 C 0.4257(5) 0.6617(6) 0.5248(14)
C79 C 0.4931(3) 0.6062(4) 0.7646(8)
C80 C 0.4507(5) 0.6657(6) 0.6351(13)
C81 C 0.4593(4) 0.6362(5) 0.6560(11)
H46 H 0.449595 0.614540 0.604807
C82 C 0.4823(3) 0.6383(4) 0.7523(9)
C83 C 0.4971(3) 0.6698(4) 0.8291(9)
C84 C 0.4864(4) 0.6994(5) 0.8086(12)
H47 H 0.495961 0.721160 0.859237
C85 C 0.4617(5) 0.6960(6) 0.7137(15)
H48 H 0.453013 0.714219 0.704487
C91 C 0.5248(3) 0.6754(4) 0.9277(7)
C92 C 0.5596(3) 0.7108(4) 0.9393(8)
H51 H 0.565300 0.731515 0.887061
O68 O 0.2157(3) 0.8453(2) 0.9942(6)
C124 C 0.3383(6) 0.7640(4) 0.5248(14)
C125 C 0.3938(4) 0.8869(3) 0.7646(8)
C126 C 0.3343(6) 0.7850(4) 0.6351(13)
C127 C 0.3638(5) 0.8231(3) 0.6560(11)
H71 H 0.385460 0.835055 0.604807
C128 C 0.3617(4) 0.8440(3) 0.7523(9)
C129 C 0.3302(4) 0.8273(3) 0.8291(9)
C130 C 0.3006(5) 0.7870(3) 0.8086(12)
H72 H 0.278840 0.774801 0.859237
C131 C 0.3040(6) 0.7657(4) 0.7137(15)
H73 H 0.285781 0.738794 0.704487
C137 C 0.3246(4) 0.8494(3) 0.9277(7)
C138 C 0.2892(4) 0.8488(3) 0.9393(8)
H76 H 0.268485 0.833785 0.887061
O92 O 0.09057(18) 0.76115(19) 0.9540(6)
O93 O 0.23885(19) 0.32941(26) 0.9540(6)
O94 O 0.67059(26) 0.90943(18) 0.9540(6)
O95 O 0.6785(2) 0.8431(3) 0.8014(5)
O96 O 0.1569(3) 0.8353(4) 0.8014(5)
O97 O 0.1647(4) 0.3215(2) 0.8014(5)
Nd15 Nd 0.95653(2) 0.50487(3) 0.58649(3)
O75 O 0.9777(2) 0.4853(3) 0.9179(5)
O117 O 0.9629(2) 0.4510(3) 0.6609(6)
O120 O 0.9853(2) 0.4200(3) 0.7708(7)
Nd4_2 Nd -0.000000 0.000000 0.89473(10)
O22_2 O -0.000000 0.000000 0.5400(11)
H2_2 H -0.000000 0.000000 0.464255
Nd7_2 Nd 0.06385(2) 0.00772(3) 0.62927(5)
O28_2 O 0.2617(2) 0.1441(3) 0.0441(6)
O29_2 O 0.2916(2) 0.20799(28) 0.0657(6)
O30_2 O 0.0819(3) 0.0569(4) 0.4848(9)
O31_2 O 0.0468(3) 0.0877(4) 0.4954(9)
O32_2 O 0.23789(19) 0.19076(26) 0.2725(6)
O33_2 O 0.2156(2) 0.12636(28) 0.2814(6)
O47_2 O 0.1219(3) 0.0095(4) 0.5233(11)
H28_2 H 0.143208 0.029611 0.546933
O48_2 O 0.1283(4) 0.0657(6) 0.7047(14)
H30_2 H 0.147559 0.066919 0.665707
H31_2 H 0.131149 0.062689 0.778357
C47_2 C 0.0750(4) 0.0837(6) 0.4578(14)
C48_2 C 0.2093(3) 0.1558(4) 0.2779(7)
C49_2 C 0.1038(3) 0.1143(4) 0.3710(11)
C50_2 C 0.1406(3) 0.1192(4) 0.3554(9)
H34_2 H 0.147619 0.102673 0.395298
C51_2 C 0.1680(3) 0.1490(4) 0.2796(9)
C52_2 C 0.1561(3) 0.1712(4) 0.2162(8)
C53_2 C 0.1184(3) 0.1658(4) 0.2286(10)
H35_2 H 0.110578 0.180934 0.184225
C54_2 C 0.0921(4) 0.1372(6) 0.3087(13)
H36_2 H 0.066780 0.133701 0.319806
C56_2 C 0.2729(2) 0.1783(3) 0.0046(7)
C63_2 C 0.2115(3) 0.3032(4) 0.0117(8)
C64_2 C 0.2083(3) 0.2635(4) 0.0264(8)
C65_2 C 0.1857(2) 0.2365(3) 0.1128(8)
H40_2 H 0.172695 0.243918 0.168031
C66_2 C 0.1812(3) 0.1997(4) 0.1220(8)
C67_2 C 0.2008(3) 0.1897(4) 0.0386(8)
H41_2 H 0.198024 0.164602 0.042252
O70_2 O 0.0380(3) 0.0433(2) 0.7328(8)
H52_2 H 0.056939 0.064902 0.760458
H54_2 H 0.011469 0.134046 0.539184
Nd12_2 Nd 0.28987(2) 0.17153(3) 0.25315(3)
O100_2 O 0.1259(3) 0.2712(2) 0.3375(6)
O103_2 O 0.0885(3) 0.2991(2) 0.3224(6)
O105_2 O 0.0721(4) 0.0141(5) 0.8665(12)
O109_2 O 0.0261(4) 0.1140(3) 0.7741(8)
O112_2 O 0.0520(3) 0.2469(2) 0.1094(6)
O115_2 O 0.0957(3) 0.2279(2) 0.0975(7)
O26_2 O 0.2770(2) 0.1691(3) 0.4623(5)
O27_2 O 0.3111(2) 0.1519(3) 0.5845(5)
O44_2 O 0.2963(2) 0.1176(3) 0.3275(6)
O45_2 O 0.3187(2) 0.0866(3) 0.4374(7)
C55_2 C 0.2884(3) 0.1658(4) 0.5648(8)
C57_2 C 0.2709(3) 0.1767(4) 0.6666(8)
C58_2 C 0.2782(3) 0.1704(4) 0.7826(7)
H37_2 H 0.292909 0.158134 0.798614
C59_2 C 0.2629(3) 0.1827(4) 0.8763(7)
C60_2 C 0.2421(3) 0.2025(4) 0.8533(8)
C61_2 C 0.2357(4) 0.2085(5) 0.7354(9)
H38_2 H 0.221592 0.221422 0.718809
C62_2 C 0.2495(3) 0.1960(4) 0.6436(8)
H39_2 H 0.244583 0.200246 0.565410
C68_2 C 0.2243(3) 0.2153(4) 0.9502(8)
C69_2 C 0.2277(3) 0.2522(4) 0.9450(8)
H42_2 H 0.243323 0.270016 0.886041
C83_2 C 0.1638(3) 0.0031(4) 0.1624(9)
C84_2 C 0.1531(4) 0.0327(5) 0.1419(12)
H47_2 H 0.162628 0.054493 0.192570
C85_2 C 0.1284(5) 0.0293(6) 0.0470(15)
H48_2 H 0.119680 0.047552 0.037820
C86_2 C 0.2920(3) 0.0863(4) 0.3752(8)
C87_2 C 0.2532(3) 0.0490(4) 0.3633(7)
C88_2 C 0.2428(3) 0.0178(4) 0.4467(8)
H49_2 H 0.260263 0.020644 0.507323
C91_2 C 0.1915(3) 0.0087(4) 0.2610(7)
C92_2 C 0.2263(3) 0.0441(4) 0.2726(8)
H51_2 H 0.231967 0.064848 0.220394
O60_2 O 0.1127(3) 0.2899(2) 0.9237(6)
C116_2 C 0.1287(4) 0.2986(3) 0.8229(8)
C117_2 C 0.1015(4) 0.2805(3) 0.3814(7)
C118_2 C 0.1005(4) 0.2790(3) 0.7188(7)
C119_2 C 0.1136(4) 0.2861(3) 0.6003(8)
H68_2 H 0.140327 0.302628 0.584137
C120_2 C 0.0872(4) 0.2689(3) 0.5071(7)
C121_2 C 0.0470(4) 0.2425(3) 0.5322(8)
C122_2 C 0.0355(6) 0.2338(4) 0.6526(8)
H69_2 H 0.009302 0.215473 0.670670
C123_2 C 0.0612(6) 0.2512(4) 0.7408(10)
H70_2 H 0.052643 0.244638 0.819275
C125_2 C 0.0605(4) 0.2202(3) 0.0979(8)
C128_2 C 0.0284(4) 0.1773(3) 0.0856(9)
C135_2 C 0.0163(4) 0.2231(3) 0.4377(7)
C136_2 C 0.0217(4) 0.2027(3) 0.3456(9)
H75_2 H 0.045208 0.202133 0.339671
Nd20_2 Nd 0.36607(2) 0.15632(2) 0.46637(3)
O91_2 O 0.35903(28) 0.20957(19) 0.3921(6)
O94_2 O 0.33725(26) 0.24277(18) 0.2874(6)
O95_2 O 0.3451(2) 0.1765(3) 0.1348(5)
C124_2 C 0.0050(6) 0.0973(4) 0.8581(14)
C126_2 C 0.0010(6) 0.1183(4) 0.9684(13)
C127_2 C 0.0305(5) 0.1564(3) 0.9893(11)
H71_2 H 0.052127 0.168388 0.938140
Nd4_3 Nd -0.000000 1.000000 0.89473(10)
O6_2 O 0.0410(2) 0.9532(3) 0.4954(9)
O22_3 O -0.000000 1.000000 0.5400(11)
H2_3 H -0.000000 1.000000 0.464255
C1_2 C 0.0088(4) 0.9250(4) 0.4578(14)
C3_2 C 0.0106(3) 0.8962(3) 0.3710(11)
C6_2 C 0.0152(3) 0.8439(3) 0.2162(8)
C7_2 C 0.0475(3) 0.8816(3) 0.2286(10)
H10_2 H 0.070357 0.889422 0.184225
C8_2 C 0.0452(4) 0.9079(4) 0.3087(13)
H11_2 H 0.066922 0.933220 0.319806
C17_2 C 0.0918(3) 0.7885(3) 0.0117(8)
C18_2 C 0.0553(2) 0.7917(3) 0.0264(8)
C19_2 C 0.0509(2) 0.8143(2) 0.1128(8)
H15_2 H 0.071224 0.827305 0.168031
C20_2 C 0.0186(3) 0.8188(3) 0.1220(8)
O46_2 O 0.0054(2) 0.9620(3) 0.7328(8)
H27_2 H 0.007964 0.943061 0.760458
H29_2 H 0.122578 0.988531 0.539184
O99_2 O 0.1454(2) 0.8741(3) 0.3375(6)
O102_2 O 0.2107(2) 0.9115(3) 0.3224(6)
O108_2 O 0.0880(3) 0.9739(4) 0.7741(8)
O111_2 O 0.1950(2) 0.9480(3) 0.1094(6)
O114_2 O 0.1323(2) 0.9043(3) 0.0975(7)
C23_2 C 0.0246(3) 0.7723(3) 0.9450(8)
H17_2 H 0.026694 0.756677 0.886041
O36_2 O 0.1773(2) 0.8873(3) 0.9237(6)
C70_2 C 0.1700(3) 0.8713(4) 0.8229(8)
C71_2 C 0.1791(3) 0.8985(4) 0.3814(7)
C72_2 C 0.1786(3) 0.8995(4) 0.7188(7)
C73_2 C 0.1726(3) 0.8864(4) 0.6003(8)
H43_2 H 0.162302 0.859673 0.584137
C74_2 C 0.1818(3) 0.9128(4) 0.5071(7)
C75_2 C 0.1956(3) 0.9530(4) 0.5322(8)
C76_2 C 0.1984(4) 0.9645(6) 0.6526(8)
H44_2 H 0.206172 0.990698 0.670670
C77_2 C 0.1901(4) 0.9388(6) 0.7408(10)
H45_2 H 0.191996 0.947357 0.819275
C79_2 C 0.1598(3) 0.9395(4) 0.0979(8)
C82_2 C 0.1490(3) 0.9716(4) 0.0856(9)
C89_2 C 0.2069(3) 0.9837(4) 0.4377(7)
C90_2 C 0.1811(3) 0.9783(4) 0.3456(9)
H50_2 H 0.156926 0.954792 0.339671
C78_2 C 0.0924(5) 0.9950(6) 0.8581(14)
C80_2 C 0.1174(5) 0.9990(6) 0.9684(13)
C81_2 C 0.1260(4) 0.9695(5) 0.9893(11)
H46_2 H 0.116262 0.947873 0.938140
Nd4_4 Nd 1.000000 0.000000 0.89473(10)
O22_4 O 1.000000 0.000000 0.5400(11)
H2_4 H 1.000000 0.000000 0.464255
Nd10_2 Nd 0.99228(3) 0.05612(2) 0.62927(5)
O52_2 O 0.8559(3) 0.1175(2) 0.0441(6)
O53_2 O 0.79201(28) 0.08357(19) 0.0657(6)
O54_2 O 0.9431(4) 0.0249(3) 0.4848(9)
O56_2 O 0.80924(26) 0.04712(18) 0.2725(6)
O57_2 O 0.87364(28) 0.08920(19) 0.2814(6)
O71_2 O 0.9905(4) 0.1123(3) 0.5233(11)
H53_2 H 0.970389 0.113596 0.546933
O72_2 O 0.9343(6) 0.0625(4) 0.7047(14)
H55_2 H 0.933081 0.080639 0.665707
H56_2 H 0.937311 0.068459 0.778357
C94_2 C 0.8442(4) 0.0534(3) 0.2779(7)
C96_2 C 0.8808(4) 0.0213(3) 0.3554(9)
H59_2 H 0.897327 0.044945 0.395298
C97_2 C 0.8510(4) 0.0189(3) 0.2796(9)
C102_2 C 0.8217(3) 0.0945(2) 0.0046(7)
C113_2 C 0.8103(4) 0.0110(3) 0.0386(8)
H66_2 H 0.835398 0.033421 0.042252
Nd13_2 Nd 0.82847(3) 0.11833(2) 0.25315(3)
O106_2 O 0.9859(5) 0.0579(3) 0.8665(12)
O50_2 O 0.8309(3) 0.1078(2) 0.4623(5)
O51_2 O 0.8481(3) 0.1591(2) 0.5845(5)
O68_2 O 0.8824(3) 0.1786(2) 0.3275(6)
O69_2 O 0.9134(3) 0.2320(2) 0.4374(7)
C101_2 C 0.8342(4) 0.1225(3) 0.5648(8)
C103_2 C 0.8233(4) 0.0941(3) 0.6666(8)
C104_2 C 0.8296(4) 0.1077(3) 0.7826(7)
H62_2 H 0.841866 0.134774 0.798614
C105_2 C 0.8173(4) 0.0801(3) 0.8763(7)
C106_2 C 0.7975(4) 0.0395(3) 0.8533(8)
C107_2 C 0.7915(5) 0.0271(3) 0.7354(9)
H63_2 H 0.778578 0.000169 0.718809
C108_2 C 0.8040(4) 0.0534(3) 0.6436(8)
H64_2 H 0.799754 0.044336 0.565410
C114_2 C 0.7847(4) 0.0089(3) 0.9502(8)
C129_2 C 0.9969(4) 0.1606(3) 0.1624(9)
C130_2 C 0.9673(5) 0.1203(3) 0.1419(12)
H72_2 H 0.945507 0.108134 0.192570
C131_2 C 0.9707(6) 0.0990(4) 0.0470(15)
H73_2 H 0.952448 0.072127 0.037820
C132_2 C 0.9137(4) 0.2056(3) 0.3752(8)
C133_2 C 0.9510(4) 0.2041(3) 0.3633(7)
C134_2 C 0.9822(4) 0.2249(3) 0.4467(8)
H74_2 H 0.979356 0.239618 0.507323
C137_2 C 0.9913(4) 0.1827(3) 0.2610(7)
C138_2 C 0.9559(4) 0.1821(3) 0.2726(8)
H76_2 H 0.935152 0.167118 0.220394
Nd21_2 Nd 0.84368(2) 0.20976(3) 0.46637(3)
O89_2 O 0.79043(19) 0.1495(2) 0.3921(6)
O92_2 O 0.75723(18) 0.09449(19) 0.2874(6)
O96_2 O 0.8235(3) 0.1687(4) 0.1348(5)
Nd3_2 Nd 0.94388(2) 0.93615(2) 0.62927(5)
Nd4_5 Nd 1.000000 1.000000 0.89473(10)
O3_2 O 0.8825(2) 0.7383(2) 0.0441(6)
O4_2 O 0.91643(19) 0.7084(2) 0.0657(6)
O5_2 O 0.9751(3) 0.9181(3) 0.4848(9)
O7_2 O 0.95288(18) 0.76211(19) 0.2725(6)
O8_2 O 0.91080(19) 0.7844(2) 0.2814(6)
O21_2 O 0.9567(2) 0.9946(2) 0.7328(8)
H1_2 H 0.935098 0.992036 0.760458
O22_5 O 1.000000 1.000000 0.5400(11)
H2_5 H 1.000000 1.000000 0.464255
O23_2 O 0.8877(3) 0.8781(3) 0.5233(11)
H3_2 H 0.886404 0.856792 0.546933
H4_2 H 0.865954 0.877422 0.539184
O24_2 O 0.9375(4) 0.8717(4) 0.7047(14)
H5_2 H 0.919361 0.852441 0.665707
H6_2 H 0.931541 0.868851 0.778357
C2_2 C 0.9466(3) 0.7907(3) 0.2779(7)
C4_2 C 0.9787(3) 0.8594(3) 0.3554(9)
H9_2 H 0.955055 0.852381 0.395298
C5_2 C 0.9811(3) 0.8320(3) 0.2796(9)
C10_2 C 0.9055(2) 0.7271(2) 0.0046(7)
C21_2 C 0.9890(3) 0.7992(3) 0.0386(8)
H16_2 H 0.966579 0.801976 0.042252
O55_2 O 0.9123(4) 0.9590(2) 0.4954(9)
C93_2 C 0.9163(6) 0.9912(4) 0.4578(14)
C95_2 C 0.8857(4) 0.9894(3) 0.3710(11)
C98_2 C 0.8288(4) 0.9848(3) 0.2162(8)
C99_2 C 0.8342(4) 0.9525(3) 0.2286(10)
H60_2 H 0.819066 0.929643 0.184225
C100_2 C 0.8628(6) 0.9548(4) 0.3087(13)
H61_2 H 0.866299 0.933078 0.319806
C109_2 C 0.6968(4) 0.9082(3) 0.0117(8)
C110_2 C 0.7365(4) 0.9447(2) 0.0264(8)
C111_2 C 0.7635(3) 0.9491(2) 0.1128(8)
H65_2 H 0.756082 0.928776 0.168031
C112_2 C 0.8003(4) 0.9814(3) 0.1220(8)
Nd11_2 Nd 0.88167(2) 0.71013(2) 0.25315(3)
O98_2 O 0.7288(2) 0.8546(2) 0.3375(6)
O101_2 O 0.7009(2) 0.7893(2) 0.3224(6)
O104_2 O 0.9421(3) 0.9279(4) 0.8665(12)
O107_2 O 0.8860(3) 0.9120(3) 0.7741(8)
O110_2 O 0.7531(2) 0.8050(2) 0.1094(6)
O113_2 O 0.7721(2) 0.8677(2) 0.0975(7)
O1_2 O 0.8922(2) 0.7230(2) 0.4623(5)
O2_2 O 0.8409(2) 0.6889(2) 0.5845(5)
O11_2 O 0.7101(2) 0.8227(2) 0.9237(6)
O19_2 O 0.8214(2) 0.7037(2) 0.3275(6)
O20_2 O 0.7680(2) 0.6813(2) 0.4374(7)
C9_2 C 0.8775(3) 0.7116(3) 0.5648(8)
C11_2 C 0.9059(3) 0.7291(3) 0.6666(8)
C12_2 C 0.8923(3) 0.7218(3) 0.7826(7)
H12_2 H 0.865226 0.707091 0.798614
C13_2 C 0.9199(3) 0.7371(3) 0.8763(7)
C14_2 C 0.9605(3) 0.7579(3) 0.8533(8)
C15_2 C 0.9729(3) 0.7643(4) 0.7354(9)
H13_2 H 0.999831 0.778408 0.718809
C16_2 C 0.9466(3) 0.7505(3) 0.6436(8)
H14_2 H 0.955664 0.755417 0.565410
C22_2 C 0.9911(3) 0.7757(3) 0.9502(8)
C24_2 C 0.7014(3) 0.8300(3) 0.8229(8)
C25_2 C 0.7195(3) 0.8209(3) 0.3814(7)
C26_2 C 0.7210(3) 0.8214(3) 0.7188(7)
C27_2 C 0.7139(3) 0.8274(3) 0.6003(8)
H18_2 H 0.697372 0.837698 0.584137
C28_2 C 0.7311(3) 0.8182(3) 0.5071(7)
C29_2 C 0.7575(3) 0.8044(3) 0.5322(8)
C30_2 C 0.7662(4) 0.8016(4) 0.6526(8)
H19_2 H 0.784527 0.793828 0.670670
C31_2 C 0.7488(4) 0.8099(4) 0.7408(10)
H20_2 H 0.755362 0.808004 0.819275
C33_2 C 0.7798(3) 0.8402(3) 0.0979(8)
C36_2 C 0.8227(3) 0.8510(3) 0.0856(9)
C37_2 C 0.8394(3) 0.8362(3) 0.1624(9)
C38_2 C 0.8797(3) 0.8469(4) 0.1419(12)
H22_2 H 0.891866 0.837372 0.192570
C39_2 C 0.9010(4) 0.8716(5) 0.0470(15)
H23_2 H 0.927873 0.880320 0.037820
C40_2 C 0.7944(3) 0.7080(3) 0.3752(8)
C41_2 C 0.7959(3) 0.7468(3) 0.3633(7)
C42_2 C 0.7751(3) 0.7572(3) 0.4467(8)
H24_2 H 0.760382 0.739737 0.507323
C43_2 C 0.7769(3) 0.7931(3) 0.4377(7)
C44_2 C 0.7973(3) 0.8189(3) 0.3456(9)
H25_2 H 0.797867 0.843074 0.339671
C45_2 C 0.8173(3) 0.8085(3) 0.2610(7)
C46_2 C 0.8179(3) 0.7737(3) 0.2726(8)
H26_2 H 0.832882 0.768033 0.220394
C115_2 C 0.7478(4) 0.9754(3) 0.9450(8)
H67_2 H 0.729984 0.973306 0.886041
Nd22_2 Nd 0.79024(3) 0.63393(2) 0.46637(3)
O90_2 O 0.8505(2) 0.64097(28) 0.3921(6)
O93_2 O 0.90551(19) 0.66275(26) 0.2874(6)
O97_2 O 0.8313(4) 0.6549(2) 0.1348(5)
C32_2 C 0.9027(4) 0.9076(5) 0.8581(14)
C34_2 C 0.8817(4) 0.8826(5) 0.9684(13)
C35_2 C 0.8436(3) 0.8740(4) 0.9893(11)
H21_2 H 0.831612 0.883738 0.938140
Nd4_6 Nd 0.666666 0.333334 0.22807(10)
O21_3 O 0.6233(2) 0.3280(2) 0.0662(8)
H1_3 H 0.601764 0.325370 0.093792
O24_3 O 0.6041(4) 0.2051(4) 0.0381(14)
H6_3 H 0.598207 0.202185 0.111691
O25_2 O 0.7166(6) 0.3937(5) 0.3503(16)
H7_2 H 0.705363 0.395005 0.413547
H8_2 H 0.736483 0.391175 0.368448
O46_3 O 0.6720(2) 0.2954(3) 0.0662(8)
H27_3 H 0.674630 0.276395 0.093792
O48_3 O 0.7949(4) 0.3991(6) 0.0381(14)
H31_3 H 0.797815 0.396023 0.111691
O49_2 O 0.6063(5) 0.3230(8) 0.3503(16)
H32_2 H 0.604995 0.310359 0.413547
H33_2 H 0.608825 0.345309 0.368448
O70_3 O 0.7046(3) 0.3767(2) 0.0662(8)
H52_3 H 0.723605 0.398236 0.093792
O72_3 O 0.6009(6) 0.3959(4) 0.0381(14)
H56_3 H 0.603977 0.401793 0.111691
O73_2 O 0.6770(8) 0.2834(6) 0.3503(16)
H57_2 H 0.689641 0.294637 0.413547
H58_2 H 0.654691 0.263517 0.368448
O104_3 O 0.6087(3) 0.2613(4) 0.1999(12)
O105_3 O 0.7387(4) 0.3475(5) 0.1999(12)
O106_3 O 0.6525(5) 0.3913(3) 0.1999(12)
O107_3 O 0.5526(3) 0.2454(3) 0.1075(8)
O108_3 O 0.7546(3) 0.3073(4) 0.1075(8)
O109_3 O 0.6927(4) 0.4474(3) 0.1075(8)
Nd3_3 Nd 0.61054(2) 0.26949(2) 0.96261(5)
O3_3 O 0.5491(2) 0.0717(2) 0.3775(6)
O4_3 O 0.58309(19) 0.0418(2) 0.3991(6)
O5_3 O 0.6417(3) 0.2515(3) 0.8182(9)
O6_3 O 0.7076(2) 0.2866(3) 0.8288(9)
O7_3 O 0.61954(18) 0.09545(19) 0.6059(6)
O8_3 O 0.57746(19) 0.1178(2) 0.6148(6)
O11_3 O 0.3767(2) 0.1561(2) 0.2571(6)
O22_6 O 0.666666 0.333334 0.8734(11)
H2_6 H 0.666666 0.333334 0.797589
O23_3 O 0.5543(3) 0.2115(3) 0.8567(11)
H3_3 H 0.553070 0.190126 0.880267
H4_3 H 0.532620 0.210756 0.872518
H5_3 H 0.586027 0.185775 0.999041
C1_3 C 0.6754(4) 0.2584(4) 0.7912(14)
C2_3 C 0.6132(3) 0.1241(3) 0.6113(7)
C3_3 C 0.6772(3) 0.2296(3) 0.7044(11)
C4_3 C 0.6453(3) 0.1928(3) 0.6888(9)
H9_3 H 0.621721 0.185715 0.728632
C5_3 C 0.6477(3) 0.1654(3) 0.6130(9)
C6_3 C 0.6818(3) 0.1773(3) 0.5496(8)
C7_3 C 0.7141(3) 0.2150(3) 0.5620(10)
H10_3 H 0.737023 0.222756 0.517559
C8_3 C 0.7118(4) 0.2413(4) 0.6421(13)
H11_3 H 0.733588 0.266554 0.653140
C10_3 C 0.5721(2) 0.0605(2) 0.3380(7)
C11_3 C 0.5725(3) 0.0625(3) -0.0000(8)
C12_3 C 0.5589(3) 0.0552(3) 0.1160(7)
H12_3 H 0.531892 0.040425 0.131948
C13_3 C 0.5865(3) 0.0705(3) 0.2097(7)
C14_3 C 0.6271(3) 0.0913(3) 0.1867(8)
C15_3 C 0.6395(3) 0.0977(4) 0.0688(9)
H13_3 H 0.666497 0.111742 0.052143
C17_3 C 0.7584(3) 0.1219(3) 0.3451(8)
C18_3 C 0.7219(2) 0.1251(3) 0.3598(8)
C19_3 C 0.7175(2) 0.1477(2) 0.4462(8)
H15_3 H 0.737890 0.160639 0.501365
C20_3 C 0.6852(3) 0.1522(3) 0.4554(8)
C21_3 C 0.6556(3) 0.1326(3) 0.3720(8)
H16_3 H 0.633245 0.135310 0.375586
C22_3 C 0.6577(3) 0.1091(3) 0.2836(8)
C23_3 C 0.6912(3) 0.1057(3) 0.2784(8)
H17_3 H 0.693360 0.090011 0.219375
C24_3 C 0.3680(3) 0.1634(3) 0.1563(8)
C26_3 C 0.3876(3) 0.1548(3) 0.0522(7)
H19_3 H 0.451193 0.127162 0.004004
C31_3 C 0.4154(4) 0.1433(4) 0.0742(10)
H20_3 H 0.422028 0.141338 0.152609
Nd7_3 Nd 0.73051(2) 0.34106(3) 0.96261(5)
O28_3 O 0.9283(2) 0.4775(3) 0.3775(6)
O29_3 O 0.9582(2) 0.54133(28) 0.3991(6)
O30_3 O 0.7485(3) 0.3903(4) 0.8182(9)
O31_3 O 0.7134(3) 0.4211(4) 0.8288(9)
O32_3 O 0.90455(19) 0.52410(26) 0.6059(6)
O33_3 O 0.8822(2) 0.45970(28) 0.6148(6)
O36_3 O 0.8439(2) 0.2207(3) 0.2571(6)
O47_3 O 0.7885(3) 0.3429(4) 0.8567(11)
H28_3 H 0.809874 0.362945 0.880267
H29_3 H 0.789244 0.321865 0.872518
H30_3 H 0.814225 0.400253 0.999041
C47_3 C 0.7416(4) 0.4171(6) 0.7912(14)
C48_3 C 0.8759(3) 0.4892(4) 0.6113(7)
C49_3 C 0.7704(3) 0.4477(4) 0.7044(11)
C50_3 C 0.8072(3) 0.4526(4) 0.6888(9)
H34_3 H 0.814285 0.436007 0.728632
C51_3 C 0.8346(3) 0.4824(4) 0.6130(9)
C52_3 C 0.8227(3) 0.5046(4) 0.5496(8)
C53_3 C 0.7850(3) 0.4992(4) 0.5620(10)
H35_3 H 0.777244 0.514268 0.517559
C54_3 C 0.7587(4) 0.4706(6) 0.6421(13)
H36_3 H 0.733446 0.467035 0.653140
C56_3 C 0.9395(2) 0.5117(3) 0.3380(7)
C57_3 C 0.9375(3) 0.5101(4) -0.0000(8)
C58_3 C 0.9448(3) 0.5038(4) 0.1160(7)
H37_3 H 0.959575 0.491468 0.131948
C59_3 C 0.9295(3) 0.5161(4) 0.2097(7)
C60_3 C 0.9087(3) 0.5359(4) 0.1867(8)
C61_3 C 0.9023(4) 0.5419(5) 0.0688(9)
H38_3 H 0.888258 0.554756 0.052143
C63_3 C 0.8781(3) 0.6366(4) 0.3451(8)
C64_3 C 0.8749(3) 0.5969(4) 0.3598(8)
C65_3 C 0.8523(2) 0.5699(3) 0.4462(8)
H40_3 H 0.839361 0.577252 0.501365
C66_3 C 0.8478(3) 0.5331(4) 0.4554(8)
C67_3 C 0.8674(3) 0.5231(4) 0.3720(8)
H41_3 H 0.864690 0.497936 0.375586
C68_3 C 0.8909(3) 0.5487(4) 0.2836(8)
C69_3 C 0.8943(3) 0.5856(4) 0.2784(8)
H42_3 H 0.909989 0.603350 0.219375
C70_3 C 0.8366(3) 0.2047(4) 0.1563(8)
C72_3 C 0.8452(3) 0.2329(4) 0.0522(7)
H44_3 H 0.872838 0.324032 0.004004
C77_3 C 0.8567(4) 0.2722(6) 0.0742(10)
H45_3 H 0.858662 0.280691 0.152609
Nd10_3 Nd 0.65894(3) 0.38946(2) 0.96261(5)
O52_3 O 0.5225(3) 0.4509(2) 0.3775(6)
O53_3 O 0.45867(28) 0.41691(19) 0.3991(6)
O54_3 O 0.6097(4) 0.3583(3) 0.8182(9)
O55_3 O 0.5789(4) 0.2924(2) 0.8288(9)
O56_3 O 0.47590(26) 0.38046(18) 0.6059(6)
O57_3 O 0.54030(28) 0.42254(19) 0.6148(6)
O60_3 O 0.7793(3) 0.6233(2) 0.2571(6)
O71_3 O 0.6571(4) 0.4457(3) 0.8567(11)
H53_3 H 0.637055 0.446930 0.880267
H54_3 H 0.678135 0.467380 0.872518
H55_3 H 0.599747 0.413973 0.999041
C93_3 C 0.5829(6) 0.3246(4) 0.7912(14)
C94_3 C 0.5108(4) 0.3868(3) 0.6113(7)
C95_3 C 0.5523(4) 0.3228(3) 0.7044(11)
C96_3 C 0.5474(4) 0.3547(3) 0.6888(9)
H59_3 H 0.563993 0.378279 0.728632
C97_3 C 0.5176(4) 0.3523(3) 0.6130(9)
C98_3 C 0.4954(4) 0.3182(3) 0.5496(8)
C99_3 C 0.5008(4) 0.2859(3) 0.5620(10)
H60_3 H 0.485732 0.262977 0.517559
C100_3 C 0.5294(6) 0.2882(4) 0.6421(13)
H61_3 H 0.532965 0.266412 0.653140
C102_3 C 0.4883(3) 0.4279(2) 0.3380(7)
C103_3 C 0.4899(4) 0.4275(3) -0.0000(8)
C104_3 C 0.4962(4) 0.4411(3) 0.1160(7)
H62_3 H 0.508532 0.468108 0.131948
C105_3 C 0.4839(4) 0.4135(3) 0.2097(7)
C106_3 C 0.4641(4) 0.3729(3) 0.1867(8)
C107_3 C 0.4581(5) 0.3605(3) 0.0688(9)
H63_3 H 0.445244 0.333503 0.052143
C109_3 C 0.3634(4) 0.2416(3) 0.3451(8)
C110_3 C 0.4031(4) 0.2781(2) 0.3598(8)
C111_3 C 0.4301(3) 0.2825(2) 0.4462(8)
H65_3 H 0.422748 0.262110 0.501365
C112_3 C 0.4669(4) 0.3148(3) 0.4554(8)
C113_3 C 0.4769(4) 0.3444(3) 0.3720(8)
H66_3 H 0.502064 0.366755 0.375586
C114_3 C 0.4513(4) 0.3423(3) 0.2836(8)
C115_3 C 0.4144(4) 0.3088(3) 0.2784(8)
H67_3 H 0.396650 0.306640 0.219375
C116_3 C 0.7953(4) 0.6320(3) 0.1563(8)
C118_3 C 0.7671(4) 0.6124(3) 0.0522(7)
H69_3 H 0.675968 0.548807 0.004004
C123_3 C 0.7278(6) 0.5846(4) 0.0742(10)
H70_3 H 0.719309 0.577972 0.152609
O98_3 O 0.3954(2) 0.1880(2) 0.6709(6)
O99_3 O 0.8120(2) 0.2075(3) 0.6709(6)
O100_3 O 0.7925(3) 0.6046(2) 0.6709(6)
O101_3 O 0.3675(2) 0.1227(2) 0.6558(6)
O102_3 O 0.8773(2) 0.2449(3) 0.6558(6)
O103_3 O 0.7551(3) 0.6325(2) 0.6558(6)
O110_3 O 0.4197(2) 0.1384(2) 0.4428(6)
O111_3 O 0.8616(2) 0.2814(3) 0.4428(6)
O112_3 O 0.7186(3) 0.5803(2) 0.4428(6)
O113_3 O 0.4387(2) 0.2011(2) 0.4309(7)
O114_3 O 0.7989(2) 0.2377(3) 0.4309(7)
O115_3 O 0.7623(3) 0.5613(2) 0.4309(7)
O1_3 O 0.5588(2) 0.0564(2) 0.7957(5)
C9_3 C 0.5441(3) 0.0450(3) 0.8982(8)
C11_4 C 0.5725(3) 0.0625(3) 1.0000(8)
C16_3 C 0.6132(3) 0.0839(3) 0.9770(8)
H14_3 H 0.622330 0.088751 0.898744
C25_3 C 0.3861(3) 0.1543(3) 0.7148(7)
C27_3 C 0.3805(3) 0.1608(3) 0.9337(8)
H18_3 H 0.364038 0.171032 0.917471
C28_3 C 0.3977(3) 0.1516(3) 0.8405(7)
C29_3 C 0.4241(3) 0.1378(3) 0.8656(8)
C30_3 C 0.4328(4) 0.1350(4) 0.9860(8)
C32_3 C 0.5693(4) 0.2410(5) 0.1915(14)
C33_3 C 0.4464(3) 0.1736(3) 0.4313(8)
C34_3 C 0.5483(4) 0.2160(5) 0.3018(13)
C35_3 C 0.5102(3) 0.2074(4) 0.3227(11)
H21_3 H 0.498278 0.217072 0.271474
C36_3 C 0.4893(3) 0.1844(3) 0.4190(9)
C37_3 C 0.5060(3) 0.1696(3) 0.4958(9)
C38_3 C 0.5463(3) 0.1803(4) 0.4753(12)
H22_3 H 0.558532 0.170706 0.525904
C39_3 C 0.5676(4) 0.2050(5) 0.3804(15)
H23_3 H 0.594539 0.213654 0.371154
C40_3 C 0.4610(3) 0.0414(3) 0.7086(8)
C41_3 C 0.4625(3) 0.0802(3) 0.6967(7)
C42_3 C 0.4417(3) 0.0906(3) 0.7801(8)
H24_3 H 0.427048 0.073071 0.840657
C43_3 C 0.4435(3) 0.1265(3) 0.7711(7)
C44_3 C 0.4639(3) 0.1523(3) 0.6790(9)
H25_3 H 0.464533 0.176408 0.673005
C45_3 C 0.4839(3) 0.1419(3) 0.5944(7)
C46_3 C 0.4845(3) 0.1071(3) 0.6060(8)
H26_3 H 0.499548 0.101367 0.553728
O26_3 O 0.9436(2) 0.5025(3) 0.7957(5)
C55_3 C 0.9550(3) 0.4992(4) 0.8982(8)
C57_4 C 0.9375(3) 0.5101(4) 1.0000(8)
C62_3 C 0.9161(3) 0.5294(4) 0.9770(8)
H39_3 H 0.911249 0.533580 0.898744
C71_3 C 0.8457(3) 0.2319(4) 0.7148(7)
C73_3 C 0.8392(3) 0.2198(4) 0.9337(8)
H43_3 H 0.828968 0.193007 0.917471
C74_3 C 0.8484(3) 0.2462(4) 0.8405(7)
C75_3 C 0.8622(3) 0.2864(4) 0.8656(8)
C76_3 C 0.8650(4) 0.2979(6) 0.9860(8)
C78_3 C 0.7590(5) 0.3284(6) 0.1915(14)
C79_3 C 0.8264(3) 0.2729(4) 0.4313(8)
C80_3 C 0.7840(5) 0.3324(6) 0.3018(13)
C81_3 C 0.7926(4) 0.3029(5) 0.3227(11)
H46_3 H 0.782928 0.281207 0.271474
C82_3 C 0.8156(3) 0.3050(4) 0.4190(9)
C83_3 C 0.8304(3) 0.3365(4) 0.4958(9)
C84_3 C 0.8197(4) 0.3661(5) 0.4753(12)
H47_3 H 0.829294 0.387827 0.525904
C85_3 C 0.7950(5) 0.3627(6) 0.3804(15)
H48_3 H 0.786346 0.380886 0.371154
C86_3 C 0.9586(3) 0.4197(4) 0.7086(8)
C87_3 C 0.9198(3) 0.3824(4) 0.6967(7)
C88_3 C 0.9094(3) 0.3512(4) 0.7801(8)
H49_3 H 0.926929 0.353978 0.840657
C89_3 C 0.8735(3) 0.3171(4) 0.7711(7)
C90_3 C 0.8477(3) 0.3117(4) 0.6790(9)
H50_3 H 0.823592 0.288126 0.673005
C91_3 C 0.8581(3) 0.3421(4) 0.5944(7)
C92_3 C 0.8929(3) 0.3775(4) 0.6060(8)
H51_3 H 0.898633 0.398182 0.553728
O50_3 O 0.4975(3) 0.4412(2) 0.7957(5)
C101_3 C 0.5008(4) 0.4559(3) 0.8982(8)
C103_4 C 0.4899(4) 0.4275(3) 1.0000(8)
C108_3 C 0.4706(4) 0.3868(3) 0.9770(8)
H64_3 H 0.466420 0.377670 0.898744
C117_3 C 0.7681(4) 0.6139(3) 0.7148(7)
C119_3 C 0.7802(4) 0.6195(3) 0.9337(8)
H68_3 H 0.806993 0.635962 0.917471
C120_3 C 0.7538(4) 0.6023(3) 0.8405(7)
C121_3 C 0.7136(4) 0.5759(3) 0.8656(8)
C122_3 C 0.7021(6) 0.5672(4) 0.9860(8)
C124_3 C 0.6716(6) 0.4307(4) 0.1915(14)
C125_3 C 0.7271(4) 0.5536(3) 0.4313(8)
C126_3 C 0.6676(6) 0.4517(4) 0.3018(13)
C127_3 C 0.6971(5) 0.4898(3) 0.3227(11)
H71_3 H 0.718793 0.501722 0.271474
C128_3 C 0.6950(4) 0.5107(3) 0.4190(9)
C129_3 C 0.6635(4) 0.4940(3) 0.4958(9)
C130_3 C 0.6339(5) 0.4537(3) 0.4753(12)
H72_3 H 0.612173 0.441468 0.525904
C131_3 C 0.6373(6) 0.4324(4) 0.3804(15)
H73_3 H 0.619114 0.405461 0.371154
C132_3 C 0.5803(4) 0.5390(3) 0.7086(8)
C133_3 C 0.6176(4) 0.5375(3) 0.6967(7)
C134_3 C 0.6488(4) 0.5583(3) 0.7801(8)
H74_3 H 0.646022 0.572952 0.840657
C135_3 C 0.6829(4) 0.5565(3) 0.7711(7)
C136_3 C 0.6883(4) 0.5361(3) 0.6790(9)
H75_3 H 0.711874 0.535467 0.673005
C137_3 C 0.6579(4) 0.5161(3) 0.5944(7)
C138_3 C 0.6225(4) 0.5155(3) 0.6060(8)
H76_3 H 0.601818 0.500452 0.553728
O25_3 O 0.0500(6) 0.0603(5) 0.0169(16)
H7_3 H 0.038697 0.061671 0.080213
H8_3 H 0.069817 0.057841 0.035114
O73_3 O 0.0104(8) 0.9500(6) 0.0169(16)
H57_3 H 0.022975 0.961303 0.080213
H33_3 H 0.942159 0.011975 0.035114
O49_3 O 0.9397(5) 0.9896(8) 0.0169(16)
H32_3 H 0.938329 0.977025 0.080213
H58_3 H 0.988025 0.930183 0.035114
N1 N 0.1626(7) 0.6162(7) 0.4328(18)
H77 H 0.159302 0.630895 0.378298
H78 H 0.171937 0.602282 0.395881
C139 C 0.1243(5) 0.5889(6) 0.486(2)
H79 H 0.106301 0.572429 0.425227
H80 H 0.127638 0.572545 0.543889
H81 H 0.113871 0.603722 0.524731
C140 C 0.1920(5) 0.6426(8) 0.522(2)
H82 H 0.216685 0.659996 0.483373
H83 H 0.182331 0.658052 0.561310
H84 H 0.196098 0.626875 0.580468
N1_2 N 0.3838(7) 0.5464(10) 0.4328(18)
H77_2 H 0.369105 0.528407 0.378298
H78_2 H 0.397718 0.569655 0.395881
C139_2 C 0.4111(6) 0.5354(8) 0.486(2)
H79_2 H 0.427571 0.533872 0.425227
H80_2 H 0.427455 0.555093 0.543889
H81_2 H 0.396278 0.510149 0.524731
C140_2 C 0.3574(8) 0.5494(9) 0.522(2)
H82_2 H 0.340004 0.556689 0.483373
H83_2 H 0.341948 0.524279 0.561310
H84_2 H 0.373125 0.569223 0.580468
N1_3 N 0.4536(10) 0.8374(7) 0.4328(18)
H77_3 H 0.471593 0.840698 0.378298
H78_3 H 0.430345 0.828063 0.395881
C139_3 C 0.4646(8) 0.8757(5) 0.486(2)
H79_3 H 0.466128 0.893699 0.425227
H80_3 H 0.444907 0.872362 0.543889
H81_3 H 0.489851 0.886129 0.524731
C140_3 C 0.4506(9) 0.8080(5) 0.522(2)
H82_3 H 0.443311 0.783315 0.483373
H83_3 H 0.475721 0.817669 0.561310
H84_3 H 0.430777 0.803902 0.580468
N1_4 N 0.8293(7) 0.9495(7) 0.7661(18)
H77_4 H 0.825969 0.964228 0.711631
H78_4 H 0.838604 0.935615 0.729214
C139_4 C 0.7910(5) 0.9222(6) 0.819(2)
H79_4 H 0.772968 0.905762 0.758560
H80_4 H 0.794305 0.905878 0.877222
H81_4 H 0.780538 0.937055 0.858064
C140_4 C 0.8587(5) 0.9759(8) 0.855(2)
H82_4 H 0.883352 0.993329 0.816706
H83_4 H 0.848998 0.991385 0.894643
H84_4 H 0.862765 0.960208 0.913801
N1_5 N 0.0505(7) 0.8797(10) 0.7661(18)
H77_5 H 0.035772 0.861740 0.711631
H78_5 H 0.064385 0.902988 0.729214
C139_5 C 0.0778(6) 0.8687(8) 0.819(2)
H79_5 H 0.094238 0.867205 0.758560
H80_5 H 0.094122 0.888426 0.877222
H81_5 H 0.062945 0.843482 0.858064
C140_5 C 0.0241(8) 0.8827(9) 0.855(2)
H82_5 H 0.006671 0.890022 0.816706
H83_5 H 0.008615 0.857612 0.894643
H84_5 H 0.039792 0.902556 0.913801
N1_6 N 0.1203(10) 0.1707(7) 0.7661(18)
H77_6 H 0.138260 0.174031 0.711631
H78_6 H 0.097012 0.161396 0.729214
C139_6 C 0.1313(8) 0.2090(5) 0.819(2)
H79_6 H 0.132795 0.227032 0.758560
H80_6 H 0.111574 0.205695 0.877222
H81_6 H 0.156518 0.219462 0.858064
C140_6 C 0.1173(9) 0.1413(5) 0.855(2)
H82_6 H 0.109978 0.116648 0.816706
H83_6 H 0.142388 0.151002 0.894643
H84_6 H 0.097444 0.137235 0.913801
N1_7 N 0.4959(7) 0.2829(7) 0.0995(18)
H77_7 H 0.492635 0.297562 0.044965
H78_7 H 0.505270 0.268949 0.062548
C139_7 C 0.4576(5) 0.2556(6) 0.153(2)
H79_7 H 0.439634 0.239096 0.091894
H80_7 H 0.460971 0.239212 0.210556
H81_7 H 0.447204 0.270389 0.191398
C140_7 C 0.5253(5) 0.3093(8) 0.189(2)
H82_7 H 0.550018 0.326663 0.150040
H83_7 H 0.515664 0.324719 0.227977
H84_7 H 0.529431 0.293542 0.247135
N1_8 N 0.7171(7) 0.2131(10) 0.0995(18)
H77_8 H 0.702438 0.195074 0.044965
H78_8 H 0.731051 0.236322 0.062548
C139_8 C 0.7444(6) 0.2021(8) 0.153(2)
H79_8 H 0.760904 0.200539 0.091894
H80_8 H 0.760788 0.221760 0.210556
H81_8 H 0.729611 0.176816 0.191398
C140_8 C 0.6907(8) 0.2161(9) 0.189(2)
H82_8 H 0.673337 0.223356 0.150040
H83_8 H 0.675281 0.190946 0.227977
H84_8 H 0.706458 0.235890 0.247135
N1_9 N 0.7869(10) 0.5041(7) 0.0995(18)
H77_9 H 0.804926 0.507365 0.044965
H78_9 H 0.763678 0.494730 0.062548
C139_9 C 0.7979(8) 0.5424(5) 0.153(2)
H79_9 H 0.799461 0.560366 0.091894
H80_9 H 0.778240 0.539029 0.210556
H81_9 H 0.823184 0.552796 0.191398
C140_9 C 0.7839(9) 0.4747(5) 0.189(2)
H82_9 H 0.776644 0.449982 0.150040
H83_9 H 0.809054 0.484336 0.227977
H84_9 H 0.764110 0.470569 0.247135
N2 N 0.0461(17) 0.377(2) 0.661(4)
H85 H 0.033361 0.387809 0.626100
H86 H 0.041946 0.355836 0.618256
C141 C 0.0893(16) 0.4060(17) 0.667(6)
H87 H 0.099552 0.414369 0.588349
H88 H 0.093452 0.428583 0.713289
H89 H 0.102772 0.393872 0.704773
C142 C 0.031(2) 0.365(2) 0.785(5)
H90 H 0.003414 0.345743 0.782681
H91 H 0.045135 0.352730 0.821226
H92 H 0.035815 0.387441 0.829741
N2_2 N 0.623(2) 0.6691(26) 0.661(4)
H85_2 H 0.612191 0.645552 0.626100
H86_2 H 0.644164 0.686110 0.618256
C141_2 C 0.5940(17) 0.6833(23) 0.667(6)
H87_2 H 0.585631 0.685183 0.588349
H88_2 H 0.571417 0.664869 0.713289
H89_2 H 0.606128 0.708900 0.704773
C142_2 C 0.635(2) 0.666(3) 0.785(5)
H90_2 H 0.654257 0.657671 0.782681
H91_2 H 0.647270 0.692405 0.821226
H92_2 H 0.612559 0.648374 0.829741
N2_3 N 0.3309(26) 0.9539(17) 0.661(4)
H85_3 H 0.354448 0.966639 0.626100
H86_3 H 0.313890 0.958054 0.618256
C141_3 C 0.3167(23) 0.9107(16) 0.667(6)
H87_3 H 0.314817 0.900448 0.588349
H88_3 H 0.335131 0.906548 0.713289
H89_3 H 0.291100 0.897228 0.704773
C142_3 C 0.334(3) 0.969(2) 0.785(5)
H90_3 H 0.342329 0.996586 0.782681
H91_3 H 0.307595 0.954865 0.821226
H92_3 H 0.351626 0.964185 0.829741
C141_4 C 0.7560(16) 0.7393(17) 0.000(6)
H88_4 H 0.760119 0.761916 0.046622
H89_4 H 0.769439 0.727205 0.038106
C142_4 C 0.698(2) 0.698(2) 0.118(5)
H90_4 H 0.670081 0.679076 0.116014
H91_4 H 0.711802 0.686063 0.154559
H92_4 H 0.702482 0.720774 0.163074
N2_4 N 0.7128(17) 0.710(2) 0.994(4)
H85_4 H 0.700028 0.721142 0.959433
H86_4 H 0.708613 0.689169 0.951589
H87_4 H 0.766219 0.747702 0.921682
C141_5 C 0.2607(17) 0.0166(23) 0.000(6)
H89_5 H 0.272795 0.042233 0.038106
H91_5 H 0.313937 0.025738 0.154559
N2_5 N 0.290(2) 0.0024(26) 0.994(4)
H86_5 H 0.310831 0.019443 0.951589
H87_5 H 0.252298 0.018516 0.921682
H88_5 H 0.238084 0.998202 0.046622
C142_5 C 0.302(2) 0.999(3) 0.118(5)
H90_5 H 0.320924 0.991004 0.116014
H92_5 H 0.279226 0.981707 0.163074
H85_5 H 0.278858 0.978885 0.959433
H88_6 H 0.001798 0.239881 0.046622
C142_6 C 0.001(3) 0.302(2) 0.118(5)
H90_6 H 0.008996 0.329919 0.116014
H92_6 H 0.018293 0.297518 0.163074
H85_6 H 0.021115 0.299972 0.959433
C141_6 C 0.9834(23) 0.2440(16) 0.000(6)
H89_6 H 0.957767 0.230561 0.038106
H91_6 H 0.974262 0.288198 0.154559
N2_6 N 0.9976(26) 0.2872(17) 0.994(4)
H86_6 H 0.980557 0.291387 0.951589
H87_6 H 0.981484 0.233781 0.921682
N2_7 N 0.3794(17) 0.044(2) 0.328(4)
H85_7 H 0.366694 0.054476 0.292767
H86_7 H 0.375279 0.022503 0.284923
C141_7 C 0.4226(16) 0.0727(17) 0.334(6)
H87_7 H 0.432885 0.081036 0.255016
H88_7 H 0.426785 0.095250 0.379956
H89_7 H 0.436105 0.060539 0.371440
C142_7 C 0.364(2) 0.032(2) 0.452(5)
H90_7 H 0.336747 0.012410 0.449348
H91_7 H 0.378468 0.019397 0.487893
H92_7 H 0.369148 0.054108 0.496408
N2_8 N 0.956(2) 0.3358(26) 0.328(4)
H85_8 H 0.945524 0.312219 0.292767
H86_8 H 0.977497 0.352777 0.284923
C141_8 C 0.9273(17) 0.3500(23) 0.334(6)
H87_8 H 0.918964 0.351850 0.255016
H88_8 H 0.904750 0.331536 0.379956
H89_8 H 0.939461 0.375567 0.371440
C142_8 C 0.968(2) 0.333(3) 0.452(5)
H90_8 H 0.987590 0.324338 0.449348
H91_8 H 0.980603 0.359072 0.487893
H92_8 H 0.945892 0.315041 0.496408
N2_9 N 0.6642(26) 0.6206(17) 0.328(4)
H85_9 H 0.687781 0.633306 0.292767
H86_9 H 0.647223 0.624721 0.284923
C141_9 C 0.6500(23) 0.5774(16) 0.334(6)
H87_9 H 0.648150 0.567115 0.255016
H88_9 H 0.668464 0.573215 0.379956
H89_9 H 0.624433 0.563895 0.371440
C142_9 C 0.667(3) 0.636(2) 0.452(5)
H90_9 H 0.675662 0.663253 0.449348
H91_9 H 0.640928 0.621532 0.487893
H92_9 H 0.684959 0.630852 0.496408
loop_
_geom_bond_atom_site_label_1
_geom_bond_atom_site_label_2
_geom_bond_site_symmetry_1
_geom_bond_site_symmetry_2
Nd14 O116 1_555 1_555
Nd3 O5 1_555 1_555
Nd4 O21 1_555 1_555
O5 C1 1_555 1_555
O6 C1 1_555 1_555
O21 Nd3 1_555 1_555
H1 O21 1_555 1_555
O22 Nd3 1_555 1_555
H2 O22 1_555 1_555
O23 Nd3 1_555 1_555
H3 O23 1_555 1_555
H4 O23 1_555 1_555
O24 Nd3 1_555 1_555
H5 O24 1_555 1_555
H6 O24 1_555 1_555
O25 Nd4 1_555 1_555
H7 O25 1_555 1_555
H8 O25 1_555 1_555
C1 C3 1_555 1_555
C3 C4 1_555 1_555
C4 H9 1_555 1_555
Nd7 O6 1_555 1_555
O30 Nd7 1_555 1_555
O31 C47 1_555 1_555
O46 Nd3 1_555 1_555
H27 O46 1_555 1_555
O47 Nd7 1_555 1_555
H28 O47 1_555 1_555
H29 O47 1_555 1_555
O48 Nd7 1_555 1_555
H30 O48 1_555 1_555
H31 O48 1_555 1_555
O49 Nd4 1_555 1_555
H32 O49 1_555 1_555
H33 O49 1_555 1_555
C47 O30 1_555 1_555
C49 C47 1_555 1_555
C50 C49 1_555 1_555
H34 C50 1_555 1_555
Nd10 O21 1_555 1_555
O54 Nd10 1_555 1_555
O55 Nd3 1_555 1_555
O70 Nd4 1_555 1_555
H52 O70 1_555 1_555
O71 Nd10 1_555 1_555
H53 O71 1_555 1_555
H54 O71 1_555 1_555
O72 Nd10 1_555 1_555
H55 O72 1_555 1_555
H56 O72 1_555 1_555
O73 Nd4 1_555 1_555
H57 O73 1_555 1_555
H58 O73 1_555 1_555
C93 O54 1_555 1_555
C95 C93 1_555 1_555
C96 C95 1_555 1_555
H59 C96 1_555 1_555
O104 Nd3 1_555 1_555
O105 Nd4 1_555 1_555
O106 Nd4 1_555 1_555
O107 Nd3 1_555 1_555
O108 Nd7 1_555 1_555
O109 Nd10 1_555 1_555
Nd4 O46 1_555 1_555
Nd4 O104 1_555 1_555
O22 Nd7 1_555 1_555
O22 Nd10 1_555 1_555
Nd7 O46 1_555 1_555
Nd7 O70 1_555 1_555
Nd7 O105 1_555 1_555
O31 Nd10 1_555 1_555
Nd10 O70 1_555 1_555
Nd10 O106 1_555 1_555
O55 C93 1_555 1_555
Nd2 O11 1_555 1_555
O1 C9 1_555 1_555
O2 C9 1_555 1_555
O3 C10 1_555 1_555
O4 C10 1_555 1_555
O7 C2 1_555 1_555
O8 C2 1_555 1_555
O9 C17 1_555 1_555
O10 C17 1_555 1_555
O11 C24 1_555 1_555
O12 C24 1_555 1_555
O98 C25 1_555 1_555
O20 C40 1_555 1_555
C2 C5 1_555 1_555
C6 C5 1_555 1_555
C7 C6 1_555 1_555
H10 C7 1_555 1_555
H11 C8 1_555 1_555
C9 C11 1_555 1_555
C10 C13 1_555 1_555
C11 C12 1_555 1_555
C12 H12 1_555 1_555
C13 C12 1_555 1_555
C14 C13 1_555 1_555
C15 C14 1_555 1_555
H13 C15 1_555 1_555
C16 C11 1_555 1_555
H14 C16 1_555 1_555
C17 C18 1_555 1_555
C18 C19 1_555 1_555
C19 H15 1_555 1_555
C20 C6 1_555 1_555
C21 C20 1_555 1_555
H16 C21 1_555 1_555
C22 C14 1_555 1_555
C23 C18 1_555 1_555
H17 C23 1_555 1_555
C24 C26 1_555 1_555
C25 C28 1_555 1_555
C26 C27 1_555 1_555
C27 H18 1_555 1_555
C28 C27 1_555 1_555
C29 C28 1_555 1_555
C30 C29 1_555 1_555
H19 C30 1_555 1_555
C31 C26 1_555 1_555
H20 C31 1_555 1_555
C41 C40 1_555 1_555
C42 C41 1_555 1_555
H24 C42 1_555 1_555
C43 C29 1_555 1_555
C44 C43 1_555 1_555
H25 C44 1_555 1_555
Nd6 O9 1_555 1_555
O26 C55 1_555 1_555
O27 C55 1_555 1_555
O28 C56 1_555 1_555
O29 C56 1_555 1_555
O32 C48 1_555 1_555
O33 C48 1_555 1_555
O34 C63 1_555 1_555
O35 C63 1_555 1_555
O36 Nd6 1_555 1_555
O37 C70 1_555 1_555
O99 C71 1_555 1_555
O45 C86 1_555 1_555
C48 C51 1_555 1_555
C52 C51 1_555 1_555
C53 C52 1_555 1_555
H35 C53 1_555 1_555
H36 C54 1_555 1_555
C55 C57 1_555 1_555
C56 C59 1_555 1_555
C57 C58 1_555 1_555
C58 H37 1_555 1_555
C59 C58 1_555 1_555
C60 C59 1_555 1_555
C61 C60 1_555 1_555
H38 C61 1_555 1_555
C62 C57 1_555 1_555
H39 C62 1_555 1_555
C63 C64 1_555 1_555
C64 C65 1_555 1_555
C65 H40 1_555 1_555
C66 C52 1_555 1_555
C67 C66 1_555 1_555
H41 C67 1_555 1_555
C68 C60 1_555 1_555
C69 C64 1_555 1_555
H42 C69 1_555 1_555
C70 O36 1_555 1_555
C71 C74 1_555 1_555
C72 C70 1_555 1_555
C73 C72 1_555 1_555
H43 C73 1_555 1_555
C74 C73 1_555 1_555
C75 C74 1_555 1_555
C76 C75 1_555 1_555
H44 C76 1_555 1_555
C77 C72 1_555 1_555
H45 C77 1_555 1_555
C87 C86 1_555 1_555
C88 C87 1_555 1_555
H49 C88 1_555 1_555
C89 C75 1_555 1_555
C90 C89 1_555 1_555
H50 C90 1_555 1_555
Nd9 O34 1_555 1_555
O50 C101 1_555 1_555
O51 C101 1_555 1_555
O52 C102 1_555 1_555
O53 C102 1_555 1_555
O56 C94 1_555 1_555
O57 C94 1_555 1_555
O58 Nd2 1_555 1_555
O59 C109 1_555 1_555
O60 Nd9 1_555 1_555
O61 C116 1_555 1_555
O100 C117 1_555 1_555
O69 C132 1_555 1_555
C94 C97 1_555 1_555
C98 C97 1_555 1_555
C99 C98 1_555 1_555
H60 C99 1_555 1_555
H61 C100 1_555 1_555
C101 C103 1_555 1_555
C102 C105 1_555 1_555
C103 C104 1_555 1_555
C104 H62 1_555 1_555
C105 C104 1_555 1_555
C106 C105 1_555 1_555
C107 C106 1_555 1_555
H63 C107 1_555 1_555
C108 C103 1_555 1_555
H64 C108 1_555 1_555
C109 O58 1_555 1_555
C110 C109 1_555 1_555
C111 C110 1_555 1_555
H65 C111 1_555 1_555
C112 C98 1_555 1_555
C113 C112 1_555 1_555
H66 C113 1_555 1_555
C114 C106 1_555 1_555
C115 C110 1_555 1_555
H67 C115 1_555 1_555
C116 O60 1_555 1_555
C117 C120 1_555 1_555
C118 C116 1_555 1_555
C119 C118 1_555 1_555
H68 C119 1_555 1_555
C120 C119 1_555 1_555
C121 C120 1_555 1_555
C122 C121 1_555 1_555
H69 C122 1_555 1_555
C123 C118 1_555 1_555
H70 C123 1_555 1_555
C133 C132 1_555 1_555
C134 C133 1_555 1_555
H74 C134 1_555 1_555
C135 C121 1_555 1_555
C136 C135 1_555 1_555
H75 C136 1_555 1_555
Nd11 O3 1_555 1_555
Nd12 O28 1_555 1_555
Nd13 O52 1_555 1_555
Nd16 O9 1_555 1_555
Nd20 O27 1_555 1_555
Nd21 O51 1_555 1_555
Nd22 O2 1_555 1_555
O76 Nd6 1_555 1_555
O101 Nd2 1_555 1_555
O102 Nd6 1_555 1_555
O103 Nd9 1_555 1_555
O110 Nd2 1_555 1_555
O111 Nd6 1_555 1_555
O112 Nd9 1_555 1_555
O113 Nd2 1_555 1_555
O114 Nd6 1_555 1_555
O115 Nd9 1_555 1_555
O118 Nd6 1_555 1_555
O121 Nd6 1_555 1_555
O4 Nd11 1_555 1_555
O7 Nd11 1_555 1_555
O8 Nd11 1_555 1_555
O10 Nd16 1_555 1_555
O20 Nd22 1_555 1_555
C7 C8 1_555 1_555
C15 C16 1_555 1_555
C19 C20 1_555 1_555
C21 C22 1_555 1_555
C22 C23 1_555 1_555
C30 C31 1_555 1_555
C42 C43 1_555 1_555
O29 Nd12 1_555 1_555
O32 Nd12 1_555 1_555
O33 Nd12 1_555 1_555
O37 Nd16 1_555 1_555
O45 Nd20 1_555 1_555
C53 C54 1_555 1_555
C61 C62 1_555 1_555
C65 C66 1_555 1_555
C67 C68 1_555 1_555
C68 C69 1_555 1_555
C76 C77 1_555 1_555
C88 C89 1_555 1_555
O53 Nd13 1_555 1_555
O56 Nd13 1_555 1_555
O57 Nd13 1_555 1_555
O69 Nd21 1_555 1_555
C99 C100 1_555 1_555
C107 C108 1_555 1_555
C111 C112 1_555 1_555
C113 C114 1_555 1_555
C114 C115 1_555 1_555
C122 C123 1_555 1_555
C134 C135 1_555 1_555
Nd16 O118 1_555 1_555
Nd20 O91 1_555 1_555
Nd21 O89 1_555 1_555
Nd22 O90 1_555 1_555
O104 C32 1_555 1_555
O107 C32 1_555 1_555
O110 C33 1_555 1_555
O113 C33 1_555 1_555
O19 Nd11 1_555 1_555
C32 C34 1_555 1_555
C33 C36 1_555 1_555
C34 C35 1_555 1_555
C35 H21 1_555 1_555
C36 C35 1_555 1_555
C37 C36 1_555 1_555
C38 C37 1_555 1_555
H22 C38 1_555 1_555
C39 C34 1_555 1_555
H23 C39 1_555 1_555
C45 C37 1_555 1_555
H26 C46 1_555 1_555
O105 C78 1_555 1_555
O108 C78 1_555 1_555
O111 C79 1_555 1_555
O114 C79 1_555 1_555
O44 Nd12 1_555 1_555
C78 C80 1_555 1_555
C79 C82 1_555 1_555
C80 C81 1_555 1_555
C81 H46 1_555 1_555
C82 C81 1_555 1_555
C83 C82 1_555 1_555
C84 C83 1_555 1_555
H47 C84 1_555 1_555
C85 C80 1_555 1_555
H48 C85 1_555 1_555
C91 C83 1_555 1_555
H51 C92 1_555 1_555
O106 C124 1_555 1_555
O109 C124 1_555 1_555
O112 C125 1_555 1_555
O115 C125 1_555 1_555
O68 Nd13 1_555 1_555
C124 C126 1_555 1_555
C125 C128 1_555 1_555
C126 C127 1_555 1_555
C127 H71 1_555 1_555
C128 C127 1_555 1_555
C129 C128 1_555 1_555
C130 C129 1_555 1_555
H72 C130 1_555 1_555
C131 C126 1_555 1_555
H73 C131 1_555 1_555
C137 C129 1_555 1_555
H76 C138 1_555 1_555
O92 Nd13 1_555 1_555
O93 Nd11 1_555 1_555
O94 Nd12 1_555 1_555
O95 Nd12 1_555 1_555
O96 Nd13 1_555 1_555
O97 Nd11 1_555 1_555
C38 C39 1_555 1_555
C45 C46 1_555 1_555
C84 C85 1_555 1_555
C91 C92 1_555 1_555
C130 C131 1_555 1_555
C137 C138 1_555 1_555
Nd15 O117 1_555 1_555
H2_2 O22_2 1_555 1_555
O28_2 C56_2 1_555 1_555
O29_2 C56_2 1_555 1_555
O30_2 Nd7_2 1_555 1_555
O31_2 C47_2 1_555 1_555
O32_2 C48_2 1_555 1_555
O33_2 C48_2 1_555 1_555
O90 C63_2 1_555 1_555
O47_2 Nd7_2 1_555 1_555
H28_2 O47_2 1_555 1_555
O48_2 Nd7_2 1_555 1_555
H30_2 O48_2 1_555 1_555
H31_2 O48_2 1_555 1_555
C47_2 O30_2 1_555 1_555
C48_2 C51_2 1_555 1_555
C49_2 C47_2 1_555 1_555
C50_2 C49_2 1_555 1_555
H34_2 C50_2 1_555 1_555
C51_2 C50_2 1_555 1_555
C52_2 C51_2 1_555 1_555
C53_2 C52_2 1_555 1_555
H35_2 C53_2 1_555 1_555
C54_2 C49_2 1_555 1_555
H36_2 C54_2 1_555 1_555
C63_2 C64_2 1_555 1_555
C64_2 C65_2 1_555 1_555
C65_2 H40_2 1_555 1_555
C66_2 C52_2 1_555 1_555
C67_2 C66_2 1_555 1_555
H41_2 C67_2 1_555 1_555
O70_2 Nd4_2 1_555 1_555
H52_2 O70_2 1_555 1_555
Nd12_2 O28_2 1_555 1_555
O100_2 Nd22 1_555 1_555
O103_2 Nd22 1_555 1_555
O105_2 Nd4_2 1_555 1_555
O112_2 Nd22 1_555 1_555
O115_2 Nd22 1_555 1_555
O22_2 Nd7_2 1_555 1_555
Nd7_2 O70_2 1_555 1_555
Nd7_2 O105_2 1_555 1_555
O29_2 Nd12_2 1_555 1_555
O32_2 Nd12_2 1_555 1_555
O33_2 Nd12_2 1_555 1_555
C53_2 C54_2 1_555 1_555
C65_2 C66_2 1_555 1_555
Nd12_2 O26_2 1_555 1_555
O26_2 C55_2 1_555 1_555
O27_2 C55_2 1_555 1_555
O44_2 Nd12_2 1_555 1_555
O45_2 C86_2 1_555 1_555
C55_2 C57_2 1_555 1_555
C57_2 C58_2 1_555 1_555
C58_2 H37_2 1_555 1_555
C59_2 C58_2 1_555 1_555
C60_2 C59_2 1_555 1_555
C61_2 C60_2 1_555 1_555
H38_2 C61_2 1_555 1_555
C62_2 C57_2 1_555 1_555
H39_2 C62_2 1_555 1_555
C68_2 C60_2 1_555 1_555
H42_2 C69_2 1_555 1_555
C84_2 C83_2 1_555 1_555
H47_2 C84_2 1_555 1_555
H48_2 C85_2 1_555 1_555
C86_2 O44_2 1_555 1_555
C87_2 C86_2 1_555 1_555
C88_2 C87_2 1_555 1_555
H49_2 C88_2 1_555 1_555
C91_2 C83_2 1_555 1_555
C92_2 C87_2 1_555 1_555
H51_2 C92_2 1_555 1_555
O97 C116_2 1_555 1_555
O100_2 C117_2 1_555 1_555
O103_2 C117_2 1_555 1_555
O112_2 C125_2 1_555 1_555
O115_2 C125_2 1_555 1_555
C116_2 O60_2 1_555 1_555
C117_2 C120_2 1_555 1_555
C118_2 C116_2 1_555 1_555
C119_2 C118_2 1_555 1_555
H68_2 C119_2 1_555 1_555
C120_2 C119_2 1_555 1_555
C121_2 C120_2 1_555 1_555
C122_2 C121_2 1_555 1_555
H69_2 C122_2 1_555 1_555
C123_2 C118_2 1_555 1_555
H70_2 C123_2 1_555 1_555
C125_2 C128_2 1_555 1_555
C135_2 C121_2 1_555 1_555
C136_2 C135_2 1_555 1_555
H75_2 C136_2 1_555 1_555
Nd20_2 O27_2 1_555 1_555
O91_2 Nd12_2 1_555 1_555
O94_2 Nd12_2 1_555 1_555
O95_2 Nd12_2 1_555 1_555
O44_2 Nd20_2 1_555 1_555
O45_2 Nd20_2 1_555 1_555
C61_2 C62_2 1_555 1_555
C68_2 C69_2 1_555 1_555
C84_2 C85_2 1_555 1_555
C91_2 C92_2 1_555 1_555
C122_2 C123_2 1_555 1_555
Nd20_2 O91_2 1_555 1_555
O109_2 C124_2 1_555 1_555
C124_2 C126_2 1_555 1_555
C126_2 C127_2 1_555 1_555
C127_2 H71_2 1_555 1_555
O6_2 C1_2 1_555 1_555
O89 C17_2 1_555 1_555
H2_3 O22_3 1_555 1_555
C1_2 C3_2 1_555 1_555
C7_2 C6_2 1_555 1_555
H10_2 C7_2 1_555 1_555
C8_2 C3_2 1_555 1_555
H11_2 C8_2 1_555 1_555
C17_2 C18_2 1_555 1_555
C18_2 C19_2 1_555 1_555
C19_2 H15_2 1_555 1_555
C20_2 C6_2 1_555 1_555
H27_2 O46_2 1_555 1_555
O99_2 Nd21 1_555 1_555
O102_2 Nd21 1_555 1_555
O111_2 Nd21 1_555 1_555
O114_2 Nd21 1_555 1_555
Nd4_3 O46_2 1_555 1_555
C7_2 C8_2 1_555 1_555
C19_2 C20_2 1_555 1_555
H17_2 C23_2 1_555 1_555
O96 C70_2 1_555 1_555
O99_2 C71_2 1_555 1_555
O102_2 C71_2 1_555 1_555
O111_2 C79_2 1_555 1_555
O114_2 C79_2 1_555 1_555
C70_2 O36_2 1_555 1_555
C71_2 C74_2 1_555 1_555
C72_2 C70_2 1_555 1_555
C73_2 C72_2 1_555 1_555
H43_2 C73_2 1_555 1_555
C74_2 C73_2 1_555 1_555
C75_2 C74_2 1_555 1_555
C76_2 C75_2 1_555 1_555
H44_2 C76_2 1_555 1_555
C77_2 C72_2 1_555 1_555
H45_2 C77_2 1_555 1_555
C79_2 C82_2 1_555 1_555
C89_2 C75_2 1_555 1_555
C90_2 C89_2 1_555 1_555
H50_2 C90_2 1_555 1_555
C76_2 C77_2 1_555 1_555
O108_2 C78_2 1_555 1_555
C78_2 C80_2 1_555 1_555
C80_2 C81_2 1_555 1_555
C81_2 H46_2 1_555 1_555
H2_4 O22_4 1_555 1_555
O52_2 C102_2 1_555 1_555
O53_2 C102_2 1_555 1_555
O54_2 Nd10_2 1_555 1_555
O56_2 C94_2 1_555 1_555
O57_2 C94_2 1_555 1_555
O71_2 Nd10_2 1_555 1_555
H53_2 O71_2 1_555 1_555
O72_2 Nd10_2 1_555 1_555
H55_2 O72_2 1_555 1_555
H56_2 O72_2 1_555 1_555
C94_2 C97_2 1_555 1_555
H59_2 C96_2 1_555 1_555
C97_2 C96_2 1_555 1_555
H66_2 C113_2 1_555 1_555
Nd13_2 O52_2 1_555 1_555
O106_2 Nd4_4 1_555 1_555
O22_4 Nd10_2 1_555 1_555
Nd10_2 O106_2 1_555 1_555
O53_2 Nd13_2 1_555 1_555
O56_2 Nd13_2 1_555 1_555
O57_2 Nd13_2 1_555 1_555
Nd13_2 O50_2 1_555 1_555
O50_2 C101_2 1_555 1_555
O51_2 C101_2 1_555 1_555
O68_2 Nd13_2 1_555 1_555
O69_2 C132_2 1_555 1_555
C101_2 C103_2 1_555 1_555
C103_2 C104_2 1_555 1_555
C104_2 H62_2 1_555 1_555
C105_2 C104_2 1_555 1_555
C106_2 C105_2 1_555 1_555
C107_2 C106_2 1_555 1_555
H63_2 C107_2 1_555 1_555
C108_2 C103_2 1_555 1_555
H64_2 C108_2 1_555 1_555
C114_2 C106_2 1_555 1_555
C130_2 C129_2 1_555 1_555
H72_2 C130_2 1_555 1_555
H73_2 C131_2 1_555 1_555
C132_2 O68_2 1_555 1_555
C133_2 C132_2 1_555 1_555
C134_2 C133_2 1_555 1_555
H74_2 C134_2 1_555 1_555
C137_2 C129_2 1_555 1_555
C138_2 C133_2 1_555 1_555
H76_2 C138_2 1_555 1_555
Nd21_2 O51_2 1_555 1_555
O89_2 Nd13_2 1_555 1_555
O92_2 Nd13_2 1_555 1_555
O96_2 Nd13_2 1_555 1_555
O68_2 Nd21_2 1_555 1_555
O69_2 Nd21_2 1_555 1_555
C107_2 C108_2 1_555 1_555
C130_2 C131_2 1_555 1_555
C137_2 C138_2 1_555 1_555
Nd21_2 O89_2 1_555 1_555
Nd3_2 O5_2 1_555 1_555
Nd4_5 O21_2 1_555 1_555
O3_2 C10_2 1_555 1_555
O4_2 C10_2 1_555 1_555
O7_2 C2_2 1_555 1_555
O8_2 C2_2 1_555 1_555
O21_2 Nd3_2 1_555 1_555
H1_2 O21_2 1_555 1_555
O22_5 Nd3_2 1_555 1_555
H2_5 O22_5 1_555 1_555
O23_2 Nd3_2 1_555 1_555
H3_2 O23_2 1_555 1_555
H4_2 O23_2 1_555 1_555
O24_2 Nd3_2 1_555 1_555
H5_2 O24_2 1_555 1_555
H6_2 O24_2 1_555 1_555
C2_2 C5_2 1_555 1_555
C4_2 H9_2 1_555 1_555
C5_2 C4_2 1_555 1_555
H16_2 C21_2 1_555 1_555
O55_2 Nd3_2 1_555 1_555
C95_2 C93_2 1_555 1_555
C99_2 C98_2 1_555 1_555
H60_2 C99_2 1_555 1_555
C100_2 C95_2 1_555 1_555
H61_2 C100_2 1_555 1_555
C109_2 O91 1_555 1_555
C110_2 C109_2 1_555 1_555
C111_2 C110_2 1_555 1_555
H65_2 C111_2 1_555 1_555
C112_2 C98_2 1_555 1_555
Nd11_2 O3_2 1_555 1_555
O98_2 Nd20 1_555 1_555
O101_2 Nd20 1_555 1_555
O104_2 Nd3_2 1_555 1_555
O107_2 Nd3_2 1_555 1_555
O110_2 Nd20 1_555 1_555
O113_2 Nd20 1_555 1_555
Nd4_5 O104_2 1_555 1_555
O4_2 Nd11_2 1_555 1_555
O7_2 Nd11_2 1_555 1_555
O8_2 Nd11_2 1_555 1_555
O55_2 C93_2 1_555 1_555
C99_2 C100_2 1_555 1_555
C111_2 C112_2 1_555 1_555
Nd11_2 O1_2 1_555 1_555
O1_2 C9_2 1_555 1_555
O2_2 C9_2 1_555 1_555
O11_2 C24_2 1_555 1_555
O95 C24_2 1_555 1_555
O98_2 C25_2 1_555 1_555
O101_2 C25_2 1_555 1_555
O110_2 C33_2 1_555 1_555
O113_2 C33_2 1_555 1_555
O19_2 Nd11_2 1_555 1_555
O20_2 C40_2 1_555 1_555
C9_2 C11_2 1_555 1_555
C11_2 C12_2 1_555 1_555
C12_2 H12_2 1_555 1_555
C13_2 C12_2 1_555 1_555
C14_2 C13_2 1_555 1_555
C15_2 C14_2 1_555 1_555
H13_2 C15_2 1_555 1_555
C16_2 C11_2 1_555 1_555
H14_2 C16_2 1_555 1_555
C22_2 C14_2 1_555 1_555
C24_2 C26_2 1_555 1_555
C25_2 C28_2 1_555 1_555
C26_2 C27_2 1_555 1_555
C27_2 H18_2 1_555 1_555
C28_2 C27_2 1_555 1_555
C29_2 C28_2 1_555 1_555
C30_2 C29_2 1_555 1_555
H19_2 C30_2 1_555 1_555
C31_2 C26_2 1_555 1_555
H20_2 C31_2 1_555 1_555
C33_2 C36_2 1_555 1_555
C37_2 C36_2 1_555 1_555
C38_2 C37_2 1_555 1_555
H22_2 C38_2 1_555 1_555
H23_2 C39_2 1_555 1_555
C40_2 O19_2 1_555 1_555
C41_2 C40_2 1_555 1_555
C42_2 C41_2 1_555 1_555
H24_2 C42_2 1_555 1_555
C43_2 C29_2 1_555 1_555
C44_2 C43_2 1_555 1_555
H25_2 C44_2 1_555 1_555
C45_2 C37_2 1_555 1_555
C46_2 C41_2 1_555 1_555
H26_2 C46_2 1_555 1_555
H67_2 C115_2 1_555 1_555
Nd22_2 O2_2 1_555 1_555
O90_2 Nd11_2 1_555 1_555
O93_2 Nd11_2 1_555 1_555
O97_2 Nd11_2 1_555 1_555
O19_2 Nd22_2 1_555 1_555
O20_2 Nd22_2 1_555 1_555
C15_2 C16_2 1_555 1_555
C30_2 C31_2 1_555 1_555
C38_2 C39_2 1_555 1_555
C42_2 C43_2 1_555 1_555
C44_2 C45_2 1_555 1_555
C45_2 C46_2 1_555 1_555
Nd22_2 O90_2 1_555 1_555
O104_2 C32_2 1_555 1_555
O107_2 C32_2 1_555 1_555
C32_2 C34_2 1_555 1_555
C34_2 C35_2 1_555 1_555
C35_2 H21_2 1_555 1_555
Nd4_6 O21_3 1_555 1_555
H1_3 O21_3 1_555 1_555
H6_3 O24_3 1_555 1_555
O25_2 Nd4_6 1_555 1_555
H7_2 O25_2 1_555 1_555
H8_2 O25_2 1_555 1_555
H27_3 O46_3 1_555 1_555
H31_3 O48_3 1_555 1_555
O49_2 Nd4_6 1_555 1_555
H32_2 O49_2 1_555 1_555
H33_2 O49_2 1_555 1_555
O70_3 Nd4_6 1_555 1_555
H52_3 O70_3 1_555 1_555
H56_3 O72_3 1_555 1_555
O73_2 Nd4_6 1_555 1_555
H57_2 O73_2 1_555 1_555
H58_2 O73_2 1_555 1_555
O105_3 Nd4_6 1_555 1_555
O106_3 Nd4_6 1_555 1_555
Nd4_6 O46_3 1_555 1_555
Nd4_6 O104_3 1_555 1_555
Nd20_2 O11_3 1_555 1_555
Nd3_3 O5_3 1_555 1_555
O3_3 C10_3 1_555 1_555
O4_3 C10_3 1_555 1_555
O5_3 C1_3 1_555 1_555
O6_3 C1_3 1_555 1_555
O7_3 C2_3 1_555 1_555
O8_3 C2_3 1_555 1_555
O89_2 C17_3 1_555 1_555
O92_2 C17_3 1_555 1_555
O11_3 C24_3 1_555 1_555
O95_2 C24_3 1_555 1_555
O22_6 Nd3_3 1_555 1_555
H2_6 O22_6 1_555 1_555
O23_3 Nd3_3 1_555 1_555
H3_3 O23_3 1_555 1_555
H4_3 O23_3 1_555 1_555
C1_3 C3_3 1_555 1_555
C2_3 C5_3 1_555 1_555
C3_3 C4_3 1_555 1_555
C4_3 H9_3 1_555 1_555
C5_3 C4_3 1_555 1_555
C6_3 C5_3 1_555 1_555
C7_3 C6_3 1_555 1_555
H10_3 C7_3 1_555 1_555
C8_3 C3_3 1_555 1_555
H11_3 C8_3 1_555 1_555
C10_3 C13_3 1_555 1_555
C11_3 C12_3 1_555 1_555
C12_3 H12_3 1_555 1_555
C13_3 C12_3 1_555 1_555
C14_3 C13_3 1_555 1_555
C15_3 C14_3 1_555 1_555
H13_3 C15_3 1_555 1_555
C17_3 C18_3 1_555 1_555
C18_3 C19_3 1_555 1_555
C19_3 H15_3 1_555 1_555
C20_3 C6_3 1_555 1_555
C21_3 C20_3 1_555 1_555
H16_3 C21_3 1_555 1_555
C22_3 C14_3 1_555 1_555
C23_3 C18_3 1_555 1_555
H17_3 C23_3 1_555 1_555
C24_3 C26_3 1_555 1_555
C31_3 C26_3 1_555 1_555
H20_3 C31_3 1_555 1_555
Nd7_3 O6_3 1_555 1_555
O28_3 C56_3 1_555 1_555
O29_3 C56_3 1_555 1_555
O30_3 Nd7_3 1_555 1_555
O31_3 C47_3 1_555 1_555
O32_3 C48_3 1_555 1_555
O33_3 C48_3 1_555 1_555
O90_2 C63_3 1_555 1_555
O93_2 C63_3 1_555 1_555
O36_3 Nd21_2 1_555 1_555
O96_2 C70_3 1_555 1_555
O47_3 Nd7_3 1_555 1_555
H28_3 O47_3 1_555 1_555
H29_3 O47_3 1_555 1_555
C47_3 O30_3 1_555 1_555
C48_3 C51_3 1_555 1_555
C49_3 C47_3 1_555 1_555
C50_3 C49_3 1_555 1_555
H34_3 C50_3 1_555 1_555
C51_3 C50_3 1_555 1_555
C52_3 C51_3 1_555 1_555
C53_3 C52_3 1_555 1_555
H35_3 C53_3 1_555 1_555
C54_3 C49_3 1_555 1_555
H36_3 C54_3 1_555 1_555
C56_3 C59_3 1_555 1_555
C57_3 C58_3 1_555 1_555
C58_3 H37_3 1_555 1_555
C59_3 C58_3 1_555 1_555
C60_3 C59_3 1_555 1_555
C61_3 C60_3 1_555 1_555
H38_3 C61_3 1_555 1_555
C63_3 C64_3 1_555 1_555
C64_3 C65_3 1_555 1_555
C65_3 H40_3 1_555 1_555
C66_3 C52_3 1_555 1_555
C67_3 C66_3 1_555 1_555
H41_3 C67_3 1_555 1_555
C68_3 C60_3 1_555 1_555
C69_3 C64_3 1_555 1_555
H42_3 C69_3 1_555 1_555
C70_3 O36_3 1_555 1_555
C72_3 C70_3 1_555 1_555
C77_3 C72_3 1_555 1_555
H45_3 C77_3 1_555 1_555
O52_3 C102_3 1_555 1_555
O53_3 C102_3 1_555 1_555
O54_3 Nd10_3 1_555 1_555
O55_3 Nd3_3 1_555 1_555
O56_3 C94_3 1_555 1_555
O57_3 C94_3 1_555 1_555
O94_2 C109_3 1_555 1_555
O60_3 Nd22_2 1_555 1_555
O97_2 C116_3 1_555 1_555
O71_3 Nd10_3 1_555 1_555
H53_3 O71_3 1_555 1_555
H54_3 O71_3 1_555 1_555
C93_3 O54_3 1_555 1_555
C94_3 C97_3 1_555 1_555
C95_3 C93_3 1_555 1_555
C96_3 C95_3 1_555 1_555
H59_3 C96_3 1_555 1_555
C97_3 C96_3 1_555 1_555
C98_3 C97_3 1_555 1_555
C99_3 C98_3 1_555 1_555
H60_3 C99_3 1_555 1_555
C100_3 C95_3 1_555 1_555
H61_3 C100_3 1_555 1_555
C102_3 C105_3 1_555 1_555
C103_3 C104_3 1_555 1_555
C104_3 H62_3 1_555 1_555
C105_3 C104_3 1_555 1_555
C106_3 C105_3 1_555 1_555
C107_3 C106_3 1_555 1_555
H63_3 C107_3 1_555 1_555
C109_3 O91_2 1_555 1_555
C110_3 C109_3 1_555 1_555
C111_3 C110_3 1_555 1_555
H65_3 C111_3 1_555 1_555
C112_3 C98_3 1_555 1_555
C113_3 C112_3 1_555 1_555
H66_3 C113_3 1_555 1_555
C114_3 C106_3 1_555 1_555
C115_3 C110_3 1_555 1_555
H67_3 C115_3 1_555 1_555
C116_3 O60_3 1_555 1_555
C118_3 C116_3 1_555 1_555
C123_3 C118_3 1_555 1_555
H70_3 C123_3 1_555 1_555
Nd14 O3_3 1_555 1_555
Nd15 O28_3 1_555 1_555
Nd16 O52_3 1_555 1_555
O98_3 Nd20_2 1_555 1_555
O99_3 Nd21_2 1_555 1_555
O100_3 Nd22_2 1_555 1_555
O101_3 Nd20_2 1_555 1_555
O102_3 Nd21_2 1_555 1_555
O103_3 Nd22_2 1_555 1_555
O110_3 Nd20_2 1_555 1_555
O111_3 Nd21_2 1_555 1_555
O112_3 Nd22_2 1_555 1_555
O113_3 Nd20_2 1_555 1_555
O114_3 Nd21_2 1_555 1_555
O115_3 Nd22_2 1_555 1_555
O4_3 Nd14 1_555 1_555
O7_3 Nd14 1_555 1_555
O8_3 Nd14 1_555 1_555
O22_6 Nd7_3 1_555 1_555
O22_6 Nd10_3 1_555 1_555
C7_3 C8_3 1_555 1_555
C19_3 C20_3 1_555 1_555
C21_3 C22_3 1_555 1_555
C22_3 C23_3 1_555 1_555
O29_3 Nd15 1_555 1_555
O31_3 Nd10_3 1_555 1_555
O32_3 Nd15 1_555 1_555
O33_3 Nd15 1_555 1_555
C53_3 C54_3 1_555 1_555
C65_3 C66_3 1_555 1_555
C67_3 C68_3 1_555 1_555
C68_3 C69_3 1_555 1_555
O53_3 Nd16 1_555 1_555
O55_3 C93_3 1_555 1_555
O56_3 Nd16 1_555 1_555
O57_3 Nd16 1_555 1_555
C99_3 C100_3 1_555 1_555
C111_3 C112_3 1_555 1_555
C113_3 C114_3 1_555 1_555
C114_3 C115_3 1_555 1_555
Nd14 O1_3 1_555 1_555
O1_3 C9_3 1_555 1_555
O74 C9_3 1_555 1_555
O98_3 C25_3 1_555 1_555
O101_3 C25_3 1_555 1_555
O104_3 C32_3 1_555 1_555
O107_3 C32_3 1_555 1_555
O110_3 C33_3 1_555 1_555
O113_3 C33_3 1_555 1_555
O119 C40_3 1_555 1_555
C9_3 C11_4 1_555 1_555
C16_3 C11_4 1_555 1_555
H14_3 C16_3 1_555 1_555
C25_3 C28_3 1_555 1_555
C27_3 H18_3 1_555 1_555
C28_3 C27_3 1_555 1_555
C29_3 C28_3 1_555 1_555
C30_3 C29_3 1_555 1_555
C32_3 C34_3 1_555 1_555
C33_3 C36_3 1_555 1_555
C34_3 C35_3 1_555 1_555
C35_3 H21_3 1_555 1_555
C36_3 C35_3 1_555 1_555
C37_3 C36_3 1_555 1_555
C38_3 C37_3 1_555 1_555
H22_3 C38_3 1_555 1_555
C39_3 C34_3 1_555 1_555
H23_3 C39_3 1_555 1_555
C40_3 O116 1_555 1_555
C41_3 C40_3 1_555 1_555
C42_3 C41_3 1_555 1_555
H24_3 C42_3 1_555 1_555
C43_3 C29_3 1_555 1_555
C44_3 C43_3 1_555 1_555
H25_3 C44_3 1_555 1_555
C45_3 C37_3 1_555 1_555
C46_3 C41_3 1_555 1_555
H26_3 C46_3 1_555 1_555
Nd15 O26_3 1_555 1_555
O26_3 C55_3 1_555 1_555
O75 C55_3 1_555 1_555
O99_3 C71_3 1_555 1_555
O102_3 C71_3 1_555 1_555
O105_3 C78_3 1_555 1_555
O108_3 C78_3 1_555 1_555
O111_3 C79_3 1_555 1_555
O114_3 C79_3 1_555 1_555
O120 C86_3 1_555 1_555
C55_3 C57_4 1_555 1_555
C62_3 C57_4 1_555 1_555
H39_3 C62_3 1_555 1_555
C71_3 C74_3 1_555 1_555
H43_3 C73_3 1_555 1_555
C74_3 C73_3 1_555 1_555
C75_3 C74_3 1_555 1_555
C76_3 C75_3 1_555 1_555
C78_3 C80_3 1_555 1_555
C79_3 C82_3 1_555 1_555
C80_3 C81_3 1_555 1_555
C81_3 H46_3 1_555 1_555
C82_3 C81_3 1_555 1_555
C83_3 C82_3 1_555 1_555
C84_3 C83_3 1_555 1_555
H47_3 C84_3 1_555 1_555
C85_3 C80_3 1_555 1_555
H48_3 C85_3 1_555 1_555
C86_3 O117 1_555 1_555
C87_3 C86_3 1_555 1_555
C88_3 C87_3 1_555 1_555
H49_3 C88_3 1_555 1_555
C89_3 C75_3 1_555 1_555
C90_3 C89_3 1_555 1_555
H50_3 C90_3 1_555 1_555
C91_3 C83_3 1_555 1_555
C92_3 C87_3 1_555 1_555
H51_3 C92_3 1_555 1_555
Nd16 O50_3 1_555 1_555
O50_3 C101_3 1_555 1_555
O76 C101_3 1_555 1_555
O100_3 C117_3 1_555 1_555
O103_3 C117_3 1_555 1_555
O106_3 C124_3 1_555 1_555
O109_3 C124_3 1_555 1_555
O112_3 C125_3 1_555 1_555
O115_3 C125_3 1_555 1_555
O121 C132_3 1_555 1_555
C101_3 C103_4 1_555 1_555
C108_3 C103_4 1_555 1_555
H64_3 C108_3 1_555 1_555
C117_3 C120_3 1_555 1_555
H68_3 C119_3 1_555 1_555
C120_3 C119_3 1_555 1_555
C121_3 C120_3 1_555 1_555
C122_3 C121_3 1_555 1_555
C124_3 C126_3 1_555 1_555
C125_3 C128_3 1_555 1_555
C126_3 C127_3 1_555 1_555
C127_3 H71_3 1_555 1_555
C128_3 C127_3 1_555 1_555
C129_3 C128_3 1_555 1_555
C130_3 C129_3 1_555 1_555
H72_3 C130_3 1_555 1_555
C131_3 C126_3 1_555 1_555
H73_3 C131_3 1_555 1_555
C132_3 O118 1_555 1_555
C133_3 C132_3 1_555 1_555
C134_3 C133_3 1_555 1_555
H74_3 C134_3 1_555 1_555
C135_3 C121_3 1_555 1_555
C136_3 C135_3 1_555 1_555
H75_3 C136_3 1_555 1_555
C137_3 C129_3 1_555 1_555
C138_3 C133_3 1_555 1_555
H76_3 C138_3 1_555 1_555
C38_3 C39_3 1_555 1_555
C42_3 C43_3 1_555 1_555
C44_3 C45_3 1_555 1_555
C45_3 C46_3 1_555 1_555
C84_3 C85_3 1_555 1_555
C88_3 C89_3 1_555 1_555
C90_3 C91_3 1_555 1_555
C91_3 C92_3 1_555 1_555
C130_3 C131_3 1_555 1_555
C134_3 C135_3 1_555 1_555
C136_3 C137_3 1_555 1_555
C137_3 C138_3 1_555 1_555
H7_3 O25_3 1_555 1_555
H8_3 O25_3 1_555 1_555
H57_3 O73_3 1_555 1_555
H32_3 O49_3 1_555 1_555
N1 H77 1_555 1_555
H78 N1 1_555 1_555
C139 N1 1_555 1_555
H79 C139 1_555 1_555
H80 C139 1_555 1_555
H81 C139 1_555 1_555
C140 N1 1_555 1_555
H82 C140 1_555 1_555
H83 C140 1_555 1_555
H84 C140 1_555 1_555
N1_2 H77_2 1_555 1_555
H78_2 N1_2 1_555 1_555
C139_2 N1_2 1_555 1_555
H79_2 C139_2 1_555 1_555
H80_2 C139_2 1_555 1_555
H81_2 C139_2 1_555 1_555
C140_2 N1_2 1_555 1_555
H82_2 C140_2 1_555 1_555
H83_2 C140_2 1_555 1_555
H84_2 C140_2 1_555 1_555
N1_3 H77_3 1_555 1_555
H78_3 N1_3 1_555 1_555
C139_3 N1_3 1_555 1_555
H79_3 C139_3 1_555 1_555
H80_3 C139_3 1_555 1_555
H81_3 C139_3 1_555 1_555
C140_3 N1_3 1_555 1_555
H82_3 C140_3 1_555 1_555
H83_3 C140_3 1_555 1_555
H84_3 C140_3 1_555 1_555
N1_4 H77_4 1_555 1_555
H78_4 N1_4 1_555 1_555
C139_4 N1_4 1_555 1_555
H79_4 C139_4 1_555 1_555
H80_4 C139_4 1_555 1_555
H81_4 C139_4 1_555 1_555
C140_4 N1_4 1_555 1_555
H82_4 C140_4 1_555 1_555
H83_4 C140_4 1_555 1_555
H84_4 C140_4 1_555 1_555
N1_5 H77_5 1_555 1_555
H78_5 N1_5 1_555 1_555
C139_5 N1_5 1_555 1_555
H79_5 C139_5 1_555 1_555
H80_5 C139_5 1_555 1_555
H81_5 C139_5 1_555 1_555
C140_5 N1_5 1_555 1_555
H82_5 C140_5 1_555 1_555
H83_5 C140_5 1_555 1_555
H84_5 C140_5 1_555 1_555
N1_6 H77_6 1_555 1_555
H78_6 N1_6 1_555 1_555
C139_6 N1_6 1_555 1_555
H79_6 C139_6 1_555 1_555
H80_6 C139_6 1_555 1_555
H81_6 C139_6 1_555 1_555
C140_6 N1_6 1_555 1_555
H82_6 C140_6 1_555 1_555
H83_6 C140_6 1_555 1_555
H84_6 C140_6 1_555 1_555
N1_7 H77_7 1_555 1_555
H78_7 N1_7 1_555 1_555
C139_7 N1_7 1_555 1_555
H79_7 C139_7 1_555 1_555
H80_7 C139_7 1_555 1_555
H81_7 C139_7 1_555 1_555
C140_7 N1_7 1_555 1_555
H82_7 C140_7 1_555 1_555
H83_7 C140_7 1_555 1_555
H84_7 C140_7 1_555 1_555
N1_8 H77_8 1_555 1_555
H78_8 N1_8 1_555 1_555
C139_8 N1_8 1_555 1_555
H79_8 C139_8 1_555 1_555
H80_8 C139_8 1_555 1_555
H81_8 C139_8 1_555 1_555
C140_8 N1_8 1_555 1_555
H82_8 C140_8 1_555 1_555
H83_8 C140_8 1_555 1_555
H84_8 C140_8 1_555 1_555
N1_9 H77_9 1_555 1_555
H78_9 N1_9 1_555 1_555
C139_9 N1_9 1_555 1_555
H79_9 C139_9 1_555 1_555
H80_9 C139_9 1_555 1_555
H81_9 C139_9 1_555 1_555
C140_9 N1_9 1_555 1_555
H82_9 C140_9 1_555 1_555
H83_9 C140_9 1_555 1_555
H84_9 C140_9 1_555 1_555
N2 H85 1_555 1_555
H86 N2 1_555 1_555
C141 N2 1_555 1_555
H87 C141 1_555 1_555
H88 C141 1_555 1_555
H89 C141 1_555 1_555
C142 N2 1_555 1_555
H90 C142 1_555 1_555
H91 C142 1_555 1_555
H92 C142 1_555 1_555
N2_2 H85_2 1_555 1_555
H86_2 N2_2 1_555 1_555
C141_2 N2_2 1_555 1_555
H87_2 C141_2 1_555 1_555
H88_2 C141_2 1_555 1_555
H89_2 C141_2 1_555 1_555
C142_2 N2_2 1_555 1_555
H90_2 C142_2 1_555 1_555
H91_2 C142_2 1_555 1_555
H92_2 C142_2 1_555 1_555
N2_3 H85_3 1_555 1_555
H86_3 N2_3 1_555 1_555
C141_3 N2_3 1_555 1_555
H87_3 C141_3 1_555 1_555
H88_3 C141_3 1_555 1_555
H89_3 C141_3 1_555 1_555
C142_3 N2_3 1_555 1_555
H90_3 C142_3 1_555 1_555
H91_3 C142_3 1_555 1_555
H92_3 C142_3 1_555 1_555
H88_4 C141_4 1_555 1_555
H89_4 C141_4 1_555 1_555
H90_4 C142_4 1_555 1_555
H91_4 C142_4 1_555 1_555
H92_4 C142_4 1_555 1_555
N2_4 H85_4 1_555 1_555
H86_4 N2_4 1_555 1_555
H89_5 C141_5 1_555 1_555
H86_5 N2_5 1_555 1_555
H90_5 C142_5 1_555 1_555
H92_5 C142_5 1_555 1_555
H90_6 C142_6 1_555 1_555
H92_6 C142_6 1_555 1_555
H89_6 C141_6 1_555 1_555
H86_6 N2_6 1_555 1_555
N2_7 H85_7 1_555 1_555
H86_7 N2_7 1_555 1_555
C141_7 N2_7 1_555 1_555
H87_7 C141_7 1_555 1_555
H88_7 C141_7 1_555 1_555
H89_7 C141_7 1_555 1_555
C142_7 N2_7 1_555 1_555
H90_7 C142_7 1_555 1_555
H91_7 C142_7 1_555 1_555
H92_7 C142_7 1_555 1_555
N2_8 H85_8 1_555 1_555
H86_8 N2_8 1_555 1_555
C141_8 N2_8 1_555 1_555
H87_8 C141_8 1_555 1_555
H88_8 C141_8 1_555 1_555
H89_8 C141_8 1_555 1_555
C142_8 N2_8 1_555 1_555
H90_8 C142_8 1_555 1_555
H91_8 C142_8 1_555 1_555
H92_8 C142_8 1_555 1_555
N2_9 H85_9 1_555 1_555
H86_9 N2_9 1_555 1_555
C141_9 N2_9 1_555 1_555
H87_9 C141_9 1_555 1_555
H88_9 C141_9 1_555 1_555
H89_9 C141_9 1_555 1_555
C142_9 N2_9 1_555 1_555
H90_9 C142_9 1_555 1_555
H91_9 C142_9 1_555 1_555
H92_9 C142_9 1_555 1_555

#END
