
###############################################################################
#
# This file contains modified crystal structure data generated from the
# MOF subset of the Cambridge Structural Database (CSD) v543 
# hosted by the Cambridge Crystallographic Data Centre (CCDC).
#
# This work is licensed under the Creative Commons
# Attribution-NonCommercial-ShareAlike 4.0 International License.
# To view a copy of this license, visit
# http://creativecommons.org/licenses/by-nc-sa/4.0/
# or send a letter to
# Creative Commons, PO Box 1866, Mountain View, CA 94042, USA.
#
# CIF created using the CSD Python API on 29 September 2022
# The structure has been converted into the P1 space group
# The structure has a 3D framework
# The original CSD entry TEKDUI is in the monoclinic crystal system
# The original CSD entry TEKDUI is in a Sohncke space group
# The framework has been calculated to contain at least 10.0% void space
# The void calculation uses a probe of radius 1.32A, grid spacing 0.4
# H atom positions have been added when not included in the experimental data
#
###############################################################################

data_TEKDUI
_chemical_formula_moiety         '(C16 H12 Mn4 O24)n'
_symmetry_cell_setting           triclinic
_symmetry_space_group_name_H-M   'P 1'
_symmetry_Int_Tables_number      1
_space_group_name_Hall           'P 1'
loop_
_symmetry_equiv_pos_site_id
_symmetry_equiv_pos_as_xyz
1 x,y,z
_cell_length_a                   9.003(2)
_cell_length_b                   11.142(3)
_cell_length_c                   7.568(2)
_cell_angle_alpha                90
_cell_angle_beta                 99.51(2)
_cell_angle_gamma                90
_cell_volume                     748.724
loop_
_atom_site_label
_atom_site_type_symbol
_atom_site_fract_x
_atom_site_fract_y
_atom_site_fract_z
O8 O 0.1501(4) 0.12407(3) 0.02485(4)
Mn4 Mn 0.23860(2) -0.00000(2) 0.23011(3)
C5 C 0.0554(3) 0.10850(3) 0.88826(3)
C6 C 0.0517(2) 0.19938(3) 0.73734(3)
C7 C 0.0453(2) 0.32572(3) 0.80230(3)
C8 C 0.0426(3) 0.41576(4) 0.64585(3)
O12 O 0.1481(7) 0.40440(4) 0.55765(4)
H3 H 0.1433(42) 0.1898(53) 0.68456(32)
H4 H 0.1372(46) 0.3406(54) 0.88863(30)
Mn5 Mn 0.21388(3) 0.51228(2) 0.35574(2)
Mn4_2 Mn 0.23860(2) 1.00000(2) 0.23011(3)
Mn1 Mn 0.76140(2) 0.50000(2) 0.76989(3)
Mn2 Mn 0.78612(3) 0.01228(2) 0.64426(2)
C1 C 0.5060(2) 0.35981(2) 0.87308(3)
C2 C 0.5047(2) 0.30372(3) 0.68682(3)
C3 C 0.5070(2) 0.16724(3) 0.69816(3)
C4 C 0.4786(2) 0.11348(4) 0.51070(4)
O1 O 0.6047(2) 0.43893(3) 0.92836(3)
O2 O 0.4094(2) 0.31980(3) 0.95591(4)
O3 O 0.6342(2) 0.34702(3) 0.61568(3)
O4 O 0.6465(3) 0.12489(3) 0.78930(3)
O5 O 0.5859(3) 0.06451(4) 0.45617(3)
O6 O 0.3499(2) 0.12865(4) 0.41758(3)
O7 O 0.9686(6) 0.01948(3) 0.86100(4)
O9 O 0.9232(4) 0.17638(4) 0.60058(4)
O10 O 0.9207(3) 0.34674(3) 0.89059(4)
O11 O 0.9427(5) 0.49098(4) 0.61803(5)
H1 H 0.41301(19) 0.32905(30) 0.60717(35)
H2 H 0.42705(19) 0.14085(33) 0.7628(34)
O14 O 0.6501(2) 0.62865(4) 0.58242(3)
O15 O 0.8499(4) 0.62407(3) 0.97515(4)
O13 O 0.6887(6) 0.85798(3) 0.74031(5)
O16 O 0.8519(7) 0.90440(4) 0.44235(4)
H5 H 0.578152 0.858983 0.698798
H6 H 0.732514 0.784973 0.693962
C1_2 C 0.4940(2) 0.85981(2) 0.12692(3)
C2_2 C 0.4953(2) 0.80372(3) 0.31318(3)
C3_2 C 0.4930(2) 0.66724(3) 0.30184(3)
C4_2 C 0.5214(2) 0.61348(4) 0.48930(4)
O1_2 O 0.3953(2) 0.93893(3) 0.07164(3)
O2_2 O 0.5906(2) 0.81980(3) 0.04409(4)
O3_2 O 0.3658(2) 0.84702(3) 0.38432(3)
O4_2 O 0.3535(3) 0.62489(3) 0.21070(3)
O5_2 O 0.4141(3) 0.56451(4) 0.54383(3)
O7_2 O 0.0314(6) 0.51948(3) 0.13900(4)
O9_2 O 0.0768(4) 0.67638(4) 0.39942(4)
O10_2 O 0.0793(3) 0.84674(3) 0.10941(4)
O11_2 O 0.0573(5) 0.99098(4) 0.38197(5)
O13_2 O 0.3113(6) 0.35798(3) 0.25969(5)
H1_2 H 0.58699(19) 0.82905(30) 0.39283(35)
H2_2 H 0.57295(19) 0.64085(33) 0.2372(34)
H5_2 H 0.421848 0.358983 0.301202
H6_2 H 0.267486 0.284973 0.306038
C5_2 C 0.9446(3) 0.60850(3) 0.11174(3)
C6_2 C 0.9483(2) 0.69938(3) 0.26266(3)
C7_2 C 0.9547(2) 0.82572(3) 0.19770(3)
C8_2 C 0.9574(3) 0.91576(4) 0.35415(3)
H3_2 H 0.8567(42) 0.6898(53) 0.31544(32)
H4_2 H 0.8628(46) 0.8406(54) 0.11137(30)
loop_
_geom_bond_atom_site_label_1
_geom_bond_atom_site_label_2
_geom_bond_site_symmetry_1
_geom_bond_site_symmetry_2
Mn4 O8 1_555 1_555
C5 C6 1_555 1_555
C6 C7 1_555 1_555
C7 C8 1_555 1_555
O12 C8 1_555 1_555
H3 C6 1_555 1_555
H4 C7 1_555 1_555
Mn5 O12 1_555 1_555
Mn1 O1 1_555 1_555
Mn2 O4 1_555 1_555
C1 C2 1_555 1_555
C2 C3 1_555 1_555
C3 C4 1_555 1_555
C4 O5 1_555 1_555
O1 C1 1_555 1_555
O2 C1 1_555 1_555
O3 Mn1 1_555 1_555
O4 C3 1_555 1_555
O5 Mn2 1_555 1_555
O6 C4 1_555 1_555
O7 Mn2 1_555 1_555
O9 Mn2 1_555 1_555
O10 Mn1 1_555 1_555
O11 Mn1 1_555 1_555
H1 C2 1_555 1_555
H2 C3 1_555 1_555
Mn4 O6 1_555 1_555
O14 Mn1 1_555 1_555
O15 Mn1 1_555 1_555
C2 O3 1_555 1_555
O13 H5 1_555 1_555
O13 H6 1_555 1_555
Mn4_2 O1_2 1_555 1_555
Mn5 O4_2 1_555 1_555
C1_2 C2_2 1_555 1_555
C2_2 C3_2 1_555 1_555
C3_2 C4_2 1_555 1_555
C4_2 O5_2 1_555 1_555
O1_2 C1_2 1_555 1_555
O2_2 C1_2 1_555 1_555
O3_2 Mn4_2 1_555 1_555
O4_2 C3_2 1_555 1_555
O5_2 Mn5 1_555 1_555
O14 C4_2 1_555 1_555
O7_2 Mn5 1_555 1_555
O9_2 Mn5 1_555 1_555
O10_2 Mn4_2 1_555 1_555
O11_2 Mn4_2 1_555 1_555
O13_2 Mn5 1_555 1_555
H1_2 C2_2 1_555 1_555
H2_2 C3_2 1_555 1_555
C2_2 O3_2 1_555 1_555
O13_2 H5_2 1_555 1_555
O13_2 H6_2 1_555 1_555
C5_2 C6_2 1_555 1_555
C6_2 C7_2 1_555 1_555
C7_2 C8_2 1_555 1_555
O16 C8_2 1_555 1_555
H3_2 C6_2 1_555 1_555
H4_2 C7_2 1_555 1_555

#END
