
###############################################################################
#
# This file contains modified crystal structure data generated from the
# MOF subset of the Cambridge Structural Database (CSD) v543 
# hosted by the Cambridge Crystallographic Data Centre (CCDC).
#
# This work is licensed under the Creative Commons
# Attribution-NonCommercial-ShareAlike 4.0 International License.
# To view a copy of this license, visit
# http://creativecommons.org/licenses/by-nc-sa/4.0/
# or send a letter to
# Creative Commons, PO Box 1866, Mountain View, CA 94042, USA.
#
# CIF created using the CSD Python API on 29 September 2022
# The structure has been converted into the P1 space group
# The structure has a 3D framework
# The original CSD entry TEKYOA is in the tetragonal crystal system
# The framework has been calculated to contain at least 10.0% void space
# The void calculation uses a probe of radius 1.32A, grid spacing 0.4
# H atom positions have been added when not included in the experimental data
# Generated hydrogen atom positions removed from atoms on special positions
#
###############################################################################

data_TEKYOA
_chemical_formula_moiety         '(C632 H480 Cu50 O248)n'
_symmetry_cell_setting           triclinic
_symmetry_space_group_name_H-M   'P 1'
_symmetry_Int_Tables_number      1
_space_group_name_Hall           'P 1'
loop_
_symmetry_equiv_pos_site_id
_symmetry_equiv_pos_as_xyz
1 x,y,z
_cell_length_a                   28.36750(10)
_cell_length_b                   28.36750(10)
_cell_length_c                   28.6376(2)
_cell_angle_alpha                90
_cell_angle_beta                 90
_cell_angle_gamma                90
_cell_volume                     23045.1
loop_
_atom_site_label
_atom_site_type_symbol
_atom_site_fract_x
_atom_site_fract_y
_atom_site_fract_z
Cu1 Cu 0.316275(10) 0.316275(10) 0.225904(16)
Cu2 Cu 0.362491(10) 0.362491(10) 0.291644(17)
O1 O 0.33166(6) 0.26171(5) 0.26651(6)
O2 O 0.37001(8) 0.30185(6) 0.32220(7)
O3 O 0.44716(7) 0.21852(6) 0.45096(6)
O4 O 0.44622(6) 0.13964(6) 0.45116(6)
O13 O 0.40113(9) 0.40113(9) 0.34198(14)
O14 O 0.27556(7) 0.27556(7) 0.17808(10)
C1 C 0.34659(9) 0.08825(8) 0.31280(9)
C2 C 0.36627(10) 0.04598(9) 0.32727(9)
H1 H 0.3921 0.0465 0.3473
C3 C 0.34812(11) 0.00188(8) 0.31230(10)
C8 C 0.31162(11) 0.00098(8) 0.27846(12)
C9 C 0.29490(11) 0.04457(10) 0.26076(12)
H5 H 0.2727 0.0447 0.2368
C10 C 0.31085(10) 0.08623(9) 0.27828(11)
H6 H 0.2979 0.1142 0.2673
C11 C 0.36163(9) 0.13413(8) 0.33291(9)
C12 C 0.38860(9) 0.13615(8) 0.37395(9)
H7 H 0.3966 0.1082 0.3890
C13 C 0.40371(8) 0.17885(8) 0.39265(8)
C14 C 0.39225(8) 0.22107(8) 0.37028(8)
H8 H 0.4027 0.2497 0.3822
C15 C 0.36497(8) 0.21972(8) 0.32989(8)
C16 C 0.34975(9) 0.17673(8) 0.31173(9)
H9 H 0.3313 0.1765 0.2849
C17 C 0.43443(8) 0.17894(8) 0.43530(8)
C18 C 0.35427(8) 0.26452(8) 0.30414(8)
O27 O 0.54277(6) 0.13385(6) 0.45176(6)
O28 O 0.54356(6) 0.21260(6) 0.45132(6)
O29 O 0.63302(6) 0.29762(6) 0.33329(6)
O30 O 0.67421(6) 0.25691(6) 0.28001(6)
C56 C 0.63561(10) 0.04114(9) 0.33146(10)
H26 H 0.6105 0.0406 0.3523
C57 C 0.65581(9) 0.08383(8) 0.32028(9)
C58 C 0.69223(10) 0.08391(9) 0.28666(11)
H27 H 0.7062 0.1124 0.2785
C59 C 0.70764(11) 0.04318(10) 0.26557(12)
H28 H 0.7309 0.0447 0.2427
C71 C 0.63918(9) 0.12927(8) 0.34106(9)
C72 C 0.60799(9) 0.13053(8) 0.37888(9)
H34 H 0.5982 0.1023 0.3922
C73 C 0.59127(9) 0.17276(8) 0.39712(8)
C74 C 0.60526(8) 0.21545(8) 0.37744(8)
H35 H 0.5939 0.2438 0.3892
C75 C 0.63651(8) 0.21495(8) 0.33989(8)
C76 C 0.65367(9) 0.17232(8) 0.32263(8)
H36 H 0.6753 0.1726 0.2982
C77 C 0.55662(8) 0.17296(8) 0.43678(8)
C78 C 0.64942(8) 0.26018(7) 0.31622(8)
Cu11 Cu 0.493826(16) 0.130013(15) 0.5000
Cu12 Cu 0.495574(15) 0.222923(15) 0.5000
Cu13 Cu 0.640353(10) 0.359647(10) 0.303683(16)
Cu15 Cu 0.688559(10) 0.311441(10) 0.240374(15)
O31 O 0.26171(5) 0.33166(6) 0.26651(6)
O32 O 0.30185(6) 0.37001(8) 0.32220(7)
O41 O 0.41630(7) 0.34813(10) 0.25176(8)
O42 O 0.34813(10) 0.41630(7) 0.25176(8)
O43 O 0.37833(6) 0.30966(7) 0.19488(6)
O44 O 0.30966(7) 0.37833(6) 0.19488(6)
Cu3 Cu 0.506174(16) 0.869987(15) 0.5000
Cu4 Cu 0.504426(15) 0.777077(15) 0.5000
Cu5 Cu 0.359647(10) 0.640353(10) 0.303683(16)
Cu6 Cu 0.311441(10) 0.688559(10) 0.240374(15)
O5 O 0.45723(6) 0.86615(6) 0.45176(6)
O6 O 0.45644(6) 0.78740(6) 0.45132(6)
O7 O 0.36698(6) 0.70238(6) 0.33329(6)
O8 O 0.32579(6) 0.74309(6) 0.28001(6)
O9 O 0.41426(6) 0.65456(8) 0.26384(7)
O10 O 0.37291(6) 0.69487(8) 0.21041(7)
O11 O 0.58370(7) 0.65187(10) 0.25176(8)
O12 O 0.62167(6) 0.69034(7) 0.19488(6)
O15 O 0.51746(10) 0.94350(8) 0.5000
O16 O 0.49837(11) 0.70254(11) 0.5000
O17 O 0.39757(9) 0.60243(9) 0.35520(13)
O18 O 0.27405(8) 0.72595(8) 0.18702(11)
C4 C 0.36439(10) 0.95886(9) 0.33146(10)
H2 H 0.3895 0.9594 0.3523
C5 C 0.34419(9) 0.91617(8) 0.32028(9)
C6 C 0.30777(10) 0.91609(9) 0.28666(11)
H3 H 0.2938 0.8876 0.2785
C7 C 0.29236(11) 0.95682(10) 0.26557(12)
H4 H 0.2691 0.9553 0.2427
C19 C 0.36082(9) 0.87073(8) 0.34106(9)
C20 C 0.39201(9) 0.86947(8) 0.37888(9)
H10 H 0.4018 0.8977 0.3922
C21 C 0.40873(9) 0.82724(8) 0.39712(8)
C22 C 0.39474(8) 0.78455(8) 0.37744(8)
H11 H 0.4061 0.7562 0.3892
C23 C 0.36349(8) 0.78505(8) 0.33989(8)
C24 C 0.34633(9) 0.82768(8) 0.32263(8)
H12 H 0.3247 0.8274 0.2982
C25 C 0.44338(8) 0.82704(8) 0.43678(8)
C26 C 0.35058(8) 0.73982(7) 0.31622(8)
C27 C 0.48485(10) 0.74395(13) 0.08457(9)
C28 C 0.50263(9) 0.72755(15) 0.04343(10)
H13 H 0.5236 0.7024 0.0439
C29 C 0.48985(13) 0.74789(18) 0.0000
C30 C 0.45909(15) 0.78785(17) 0.0000
C31 C 0.45475(11) 0.78443(13) 0.08401(10)
H14 H 0.4430 0.7961 0.1121
C32 C 0.49167(9) 0.71891(13) 0.12965(9)
C33 C 0.45108(9) 0.70891(13) 0.15579(9)
H15 H 0.4217 0.7178 0.1444
C34 C 0.45416(9) 0.68605(12) 0.19838(10)
C35 C 0.49785(8) 0.67313(13) 0.21607(10)
H16 H 0.4999 0.6572 0.2444
C36 C 0.53844(9) 0.68415(12) 0.19131(10)
C37 C 0.53546(9) 0.70666(12) 0.14792(9)
H17 H 0.5628 0.7134 0.1313
C38 C 0.41011(8) 0.67742(10) 0.22655(9)
C39 C 0.58534(9) 0.67453(11) 0.21387(9)
C40 C 0.44282(12) 0.80639(13) 0.04326(11)
H18 H 0.4242 0.8333 0.0438
O23 O 0.66834(6) 0.73829(5) 0.26651(6)
O24 O 0.62999(8) 0.69815(6) 0.32220(7)
O25 O 0.55284(7) 0.78148(6) 0.45096(6)
O26 O 0.55378(6) 0.86036(6) 0.45116(6)
C53 C 0.65341(9) 0.91175(8) 0.31280(9)
C54 C 0.63373(10) 0.95402(9) 0.32727(9)
H25 H 0.6079 0.9535 0.3473
C55 C 0.65188(11) 0.99812(8) 0.31230(10)
C60 C 0.68838(11) 0.99902(8) 0.27846(12)
C61 C 0.70510(11) 0.95543(10) 0.26076(12)
H29 H 0.7273 0.9553 0.2368
C62 C 0.68915(10) 0.91377(9) 0.27828(11)
H30 H 0.7021 0.8858 0.2673
C63 C 0.63837(9) 0.86587(8) 0.33291(9)
C64 C 0.61140(9) 0.86385(8) 0.37395(9)
H31 H 0.6034 0.8918 0.3890
C65 C 0.59629(8) 0.82115(8) 0.39265(8)
C66 C 0.60775(8) 0.77893(8) 0.37028(8)
H32 H 0.5973 0.7503 0.3822
C67 C 0.63503(8) 0.78028(8) 0.32989(8)
C68 C 0.65025(9) 0.82327(8) 0.31173(9)
H33 H 0.6687 0.8235 0.2849
C69 C 0.56557(8) 0.82106(8) 0.43530(8)
C70 C 0.64573(8) 0.73548(8) 0.30414(8)
Cu7 Cu 0.683725(10) 0.683725(10) 0.225904(16)
Cu9 Cu 0.637509(10) 0.637509(10) 0.291644(17)
O33 O 0.55284(7) 0.78148(6) 0.54904(6)
O34 O 0.55378(6) 0.86036(6) 0.54884(6)
O35 O 0.45723(6) 0.86615(6) 0.54824(6)
O36 O 0.45644(6) 0.78740(6) 0.54868(6)
O37 O 0.29762(6) 0.63302(6) 0.33329(6)
O38 O 0.25691(6) 0.67421(6) 0.28001(6)
O39 O 0.34544(8) 0.58574(6) 0.26384(7)
O40 O 0.30513(8) 0.62709(6) 0.21041(7)
C29_2 C 0.48985(13) 0.74789(18) 1.0000
C30_2 C 0.45909(15) 0.78785(17) 1.0000
O19 O 0.41426(6) 0.65456(8) 0.73616(7)
O20 O 0.37291(6) 0.69487(8) 0.78959(7)
O21 O 0.58370(7) 0.65187(10) 0.74824(8)
O22 O 0.62167(6) 0.69034(7) 0.80512(6)
C41 C 0.48485(10) 0.74395(13) 0.91543(9)
C42 C 0.50263(9) 0.72755(15) 0.95657(10)
H19 H 0.5236 0.7024 0.9561
C43 C 0.45475(11) 0.78443(13) 0.91599(10)
H20 H 0.4430 0.7961 0.8879
C44 C 0.49167(9) 0.71891(13) 0.87035(9)
C45 C 0.45108(9) 0.70891(13) 0.84421(9)
H21 H 0.4217 0.7178 0.8556
C46 C 0.45416(9) 0.68605(12) 0.80162(10)
C47 C 0.49785(8) 0.67313(13) 0.78393(10)
H22 H 0.4999 0.6572 0.7556
C48 C 0.53844(9) 0.68415(12) 0.80869(10)
C49 C 0.53546(9) 0.70666(12) 0.85208(9)
H23 H 0.5628 0.7134 0.8687
C50 C 0.41011(8) 0.67742(10) 0.77345(9)
C51 C 0.58534(9) 0.67453(11) 0.78613(9)
C52 C 0.44282(12) 0.80639(13) 0.95674(11)
H24 H 0.4242 0.8333 0.9562
Cu8 Cu 0.683725(10) 0.683725(10) 0.774096(16)
Cu10 Cu 0.637509(10) 0.637509(10) 0.708356(17)
Cu14 Cu 0.359647(10) 0.640353(10) 0.696317(16)
Cu16 Cu 0.311441(10) 0.688559(10) 0.759626(15)
O9_2 O 0.58574(6) 0.34544(8) 0.26384(7)
O10_2 O 0.62709(6) 0.30513(8) 0.21041(7)
O15_2 O 0.48254(10) 0.05650(8) 0.5000
O16_2 O 0.50163(11) 0.29746(11) 0.5000
O17_2 O 0.60243(9) 0.39757(9) 0.35520(13)
O18_2 O 0.72595(8) 0.27405(8) 0.18702(11)
C27_2 C 0.51515(10) 0.25605(13) 0.08457(9)
C28_2 C 0.49737(9) 0.27245(15) 0.04343(10)
H13_2 H 0.4764 0.2976 0.0439
C29_3 C 0.51015(13) 0.25211(18) 0.0000
C30_3 C 0.54091(15) 0.21215(17) 0.0000
C31_2 C 0.54525(11) 0.21557(13) 0.08401(10)
H14_2 H 0.5570 0.2039 0.1121
C32_2 C 0.50833(9) 0.28109(13) 0.12965(9)
C33_2 C 0.54892(9) 0.29109(13) 0.15579(9)
H15_2 H 0.5783 0.2822 0.1444
C34_2 C 0.54584(9) 0.31395(12) 0.19838(10)
C35_2 C 0.50215(8) 0.32687(13) 0.21607(10)
H16_2 H 0.5001 0.3428 0.2444
C36_2 C 0.46156(9) 0.31585(12) 0.19131(10)
C37_2 C 0.46454(9) 0.29334(12) 0.14792(9)
H17_2 H 0.4372 0.2866 0.1313
C38_2 C 0.58989(8) 0.32258(10) 0.22655(9)
C39_2 C 0.41466(9) 0.32547(11) 0.21387(9)
C40_2 C 0.55718(12) 0.19361(13) 0.04326(11)
H18_2 H 0.5758 0.1667 0.0438
O33_2 O 0.44716(7) 0.21852(6) 0.54904(6)
O34_2 O 0.44622(6) 0.13964(6) 0.54884(6)
O35_2 O 0.54277(6) 0.13385(6) 0.54824(6)
O36_2 O 0.54356(6) 0.21260(6) 0.54868(6)
O37_2 O 0.70238(6) 0.36698(6) 0.33329(6)
O38_2 O 0.74309(6) 0.32579(6) 0.28001(6)
O39_2 O 0.65456(8) 0.41426(6) 0.26384(7)
O40_2 O 0.69487(8) 0.37291(6) 0.21041(7)
C29_4 C 0.51015(13) 0.25211(18) 1.0000
C30_4 C 0.54091(15) 0.21215(17) 1.0000
O19_2 O 0.58574(6) 0.34544(8) 0.73616(7)
O20_2 O 0.62709(6) 0.30513(8) 0.78959(7)
O21_2 O 0.41630(7) 0.34813(10) 0.74824(8)
O22_2 O 0.37833(6) 0.30966(7) 0.80512(6)
C41_2 C 0.51515(10) 0.25605(13) 0.91543(9)
C42_2 C 0.49737(9) 0.27245(15) 0.95657(10)
H19_2 H 0.4764 0.2976 0.9561
C43_2 C 0.54525(11) 0.21557(13) 0.91599(10)
H20_2 H 0.5570 0.2039 0.8879
C44_2 C 0.50833(9) 0.28109(13) 0.87035(9)
C45_2 C 0.54892(9) 0.29109(13) 0.84421(9)
H21_2 H 0.5783 0.2822 0.8556
C46_2 C 0.54584(9) 0.31395(12) 0.80162(10)
C47_2 C 0.50215(8) 0.32687(13) 0.78393(10)
H22_2 H 0.5001 0.3428 0.7556
C48_2 C 0.46156(9) 0.31585(12) 0.80869(10)
C49_2 C 0.46454(9) 0.29334(12) 0.85208(9)
H23_2 H 0.4372 0.2866 0.8687
C50_2 C 0.58989(8) 0.32258(10) 0.77345(9)
C51_2 C 0.41466(9) 0.32547(11) 0.78613(9)
C52_2 C 0.55718(12) 0.19361(13) 0.95674(11)
H24_2 H 0.5758 0.1667 0.9562
Cu8_2 Cu 0.316275(10) 0.316275(10) 0.774096(16)
Cu10_2 Cu 0.362491(10) 0.362491(10) 0.708356(17)
Cu14_2 Cu 0.640353(10) 0.359647(10) 0.696317(16)
Cu16_2 Cu 0.688559(10) 0.311441(10) 0.759626(15)
O13_2 O 0.59887(9) 0.59887(9) 0.34198(14)
O14_2 O 0.72444(7) 0.72444(7) 0.17808(10)
O31_2 O 0.73829(5) 0.66834(6) 0.26651(6)
O32_2 O 0.69815(6) 0.62999(8) 0.32220(7)
O42_2 O 0.65187(10) 0.58370(7) 0.25176(8)
O44_2 O 0.69034(7) 0.62167(6) 0.19488(6)
O1_2 O 0.26171(5) 0.33166(6) 0.73349(6)
O2_2 O 0.30185(6) 0.37001(8) 0.67780(7)
O3_2 O 0.21852(6) 0.44716(7) 0.54904(6)
O4_2 O 0.13964(6) 0.44622(6) 0.54884(6)
O13_3 O 0.40113(9) 0.40113(9) 0.65802(14)
O14_3 O 0.27556(7) 0.27556(7) 0.82192(10)
C1_2 C 0.08825(8) 0.34659(9) 0.68720(9)
C2_2 C 0.04598(9) 0.36627(10) 0.67273(9)
H1_2 H 0.0465 0.3921 0.6527
C3_2 C 0.00188(8) 0.34812(11) 0.68770(10)
C8_2 C 0.00098(8) 0.31162(11) 0.72154(12)
C9_2 C 0.04457(10) 0.29490(11) 0.73924(12)
H5_2 H 0.0447 0.2727 0.7632
C10_2 C 0.08623(9) 0.31085(10) 0.72172(11)
H6_2 H 0.1142 0.2979 0.7327
C11_2 C 0.13413(8) 0.36163(9) 0.66709(9)
C12_2 C 0.13615(8) 0.38860(9) 0.62605(9)
H7_2 H 0.1082 0.3966 0.6110
C13_2 C 0.17885(8) 0.40371(8) 0.60735(8)
C14_2 C 0.22107(8) 0.39225(8) 0.62972(8)
H8_2 H 0.2497 0.4027 0.6178
C15_2 C 0.21972(8) 0.36497(8) 0.67011(8)
C16_2 C 0.17673(8) 0.34975(9) 0.68827(9)
H9_2 H 0.1765 0.3313 0.7151
C17_2 C 0.17894(8) 0.43443(8) 0.56470(8)
C18_2 C 0.26452(8) 0.35427(8) 0.69586(8)
O27_2 O 0.13385(6) 0.54277(6) 0.54824(6)
O28_2 O 0.21260(6) 0.54356(6) 0.54868(6)
O29_2 O 0.29762(6) 0.63302(6) 0.66671(6)
O30_2 O 0.25691(6) 0.67421(6) 0.71999(6)
C56_2 C 0.04114(9) 0.63561(10) 0.66854(10)
H26_2 H 0.0406 0.6105 0.6477
C57_2 C 0.08383(8) 0.65581(9) 0.67972(9)
C58_2 C 0.08391(9) 0.69223(10) 0.71334(11)
H27_2 H 0.1124 0.7062 0.7215
C59_2 C 0.04318(10) 0.70764(11) 0.73443(12)
H28_2 H 0.0447 0.7309 0.7573
C71_2 C 0.12927(8) 0.63918(9) 0.65894(9)
C72_2 C 0.13053(8) 0.60799(9) 0.62112(9)
H34_2 H 0.1023 0.5982 0.6078
C73_2 C 0.17276(8) 0.59127(9) 0.60288(8)
C74_2 C 0.21545(8) 0.60526(8) 0.62256(8)
H35_2 H 0.2438 0.5939 0.6108
C75_2 C 0.21495(8) 0.63651(8) 0.66011(8)
C76_2 C 0.17232(8) 0.65367(9) 0.67737(8)
H36_2 H 0.1726 0.6753 0.7018
C77_2 C 0.17296(8) 0.55662(8) 0.56322(8)
C78_2 C 0.26018(7) 0.64942(8) 0.68378(8)
Cu11_2 Cu 0.130013(15) 0.493826(16) 0.5000
Cu12_2 Cu 0.222923(15) 0.495574(15) 0.5000
O31_3 O 0.33166(6) 0.26171(5) 0.73349(6)
O32_3 O 0.37001(8) 0.30185(6) 0.67780(7)
O41_2 O 0.34813(10) 0.41630(7) 0.74824(8)
O43_2 O 0.30966(7) 0.37833(6) 0.80512(6)
C29_5 C 0.74789(18) 0.48985(13) 0.0000
C30_5 C 0.78785(17) 0.45909(15) 0.0000
C41_3 C 0.74395(13) 0.48485(10) 0.08457(9)
C42_3 C 0.72755(15) 0.50263(9) 0.04343(10)
H19_3 H 0.7024 0.5236 0.0439
C43_3 C 0.78443(13) 0.45475(11) 0.08401(10)
H20_3 H 0.7961 0.4430 0.1121
C44_3 C 0.71891(13) 0.49167(9) 0.12965(9)
C45_3 C 0.70891(13) 0.45108(9) 0.15579(9)
H21_3 H 0.7178 0.4217 0.1444
C46_3 C 0.68605(12) 0.45416(9) 0.19838(10)
C47_3 C 0.67313(13) 0.49785(8) 0.21607(10)
H22_3 H 0.6572 0.4999 0.2444
C48_3 C 0.68415(12) 0.53844(9) 0.19131(10)
C49_3 C 0.70666(12) 0.53546(9) 0.14792(9)
H23_3 H 0.7134 0.5628 0.1313
C50_3 C 0.67742(10) 0.41011(8) 0.22655(9)
C51_3 C 0.67453(11) 0.58534(9) 0.21387(9)
C52_3 C 0.80639(13) 0.44282(12) 0.04326(11)
H24_3 H 0.8333 0.4242 0.0438
Cu3_2 Cu 0.869987(15) 0.506174(16) 0.5000
Cu4_2 Cu 0.777077(15) 0.504426(15) 0.5000
O5_2 O 0.86615(6) 0.45723(6) 0.54824(6)
O6_2 O 0.78740(6) 0.45644(6) 0.54868(6)
O7_2 O 0.70238(6) 0.36698(6) 0.66671(6)
O8_2 O 0.74309(6) 0.32579(6) 0.71999(6)
O9_3 O 0.65456(8) 0.41426(6) 0.73616(7)
O10_3 O 0.69487(8) 0.37291(6) 0.78959(7)
O11_2 O 0.65187(10) 0.58370(7) 0.74824(8)
O12_2 O 0.69034(7) 0.62167(6) 0.80512(6)
O15_3 O 0.94350(8) 0.51746(10) 0.5000
O16_3 O 0.70254(11) 0.49837(11) 0.5000
O17_3 O 0.60243(9) 0.39757(9) 0.64480(13)
O18_3 O 0.72595(8) 0.27405(8) 0.81298(11)
C4_2 C 0.95886(9) 0.36439(10) 0.66854(10)
H2_2 H 0.9594 0.3895 0.6477
C5_2 C 0.91617(8) 0.34419(9) 0.67972(9)
C6_2 C 0.91609(9) 0.30777(10) 0.71334(11)
H3_2 H 0.8876 0.2938 0.7215
C7_2 C 0.95682(10) 0.29236(11) 0.73443(12)
H4_2 H 0.9553 0.2691 0.7573
C19_2 C 0.87073(8) 0.36082(9) 0.65894(9)
C20_2 C 0.86947(8) 0.39201(9) 0.62112(9)
H10_2 H 0.8977 0.4018 0.6078
C21_2 C 0.82724(8) 0.40873(9) 0.60288(8)
C22_2 C 0.78455(8) 0.39474(8) 0.62256(8)
H11_2 H 0.7562 0.4061 0.6108
C23_2 C 0.78505(8) 0.36349(8) 0.66011(8)
C24_2 C 0.82768(8) 0.34633(9) 0.67737(8)
H12_2 H 0.8274 0.3247 0.7018
C25_2 C 0.82704(8) 0.44338(8) 0.56322(8)
C26_2 C 0.73982(7) 0.35058(8) 0.68378(8)
C27_3 C 0.74395(13) 0.48485(10) 0.91543(9)
C28_3 C 0.72755(15) 0.50263(9) 0.95657(10)
H13_3 H 0.7024 0.5236 0.9561
C29_6 C 0.74789(18) 0.48985(13) 1.0000
C30_6 C 0.78785(17) 0.45909(15) 1.0000
C31_3 C 0.78443(13) 0.45475(11) 0.91599(10)
H14_3 H 0.7961 0.4430 0.8879
C32_3 C 0.71891(13) 0.49167(9) 0.87035(9)
C33_3 C 0.70891(13) 0.45108(9) 0.84421(9)
H15_3 H 0.7178 0.4217 0.8556
C34_3 C 0.68605(12) 0.45416(9) 0.80162(10)
C35_3 C 0.67313(13) 0.49785(8) 0.78393(10)
H16_3 H 0.6572 0.4999 0.7556
C36_3 C 0.68415(12) 0.53844(9) 0.80869(10)
C37_3 C 0.70666(12) 0.53546(9) 0.85208(9)
H17_3 H 0.7134 0.5628 0.8687
C38_3 C 0.67742(10) 0.41011(8) 0.77345(9)
C39_3 C 0.67453(11) 0.58534(9) 0.78613(9)
C40_3 C 0.80639(13) 0.44282(12) 0.95674(11)
H18_3 H 0.8333 0.4242 0.9562
O23_2 O 0.73829(5) 0.66834(6) 0.73349(6)
O24_2 O 0.69815(6) 0.62999(8) 0.67780(7)
O25_2 O 0.78148(6) 0.55284(7) 0.54904(6)
O26_2 O 0.86036(6) 0.55378(6) 0.54884(6)
C53_2 C 0.91175(8) 0.65341(9) 0.68720(9)
C54_2 C 0.95402(9) 0.63373(10) 0.67273(9)
H25_2 H 0.9535 0.6079 0.6527
C55_2 C 0.99812(8) 0.65188(11) 0.68770(10)
C60_2 C 0.99902(8) 0.68838(11) 0.72154(12)
C61_2 C 0.95543(10) 0.70510(11) 0.73924(12)
H29_2 H 0.9553 0.7273 0.7632
C62_2 C 0.91377(9) 0.68915(10) 0.72172(11)
H30_2 H 0.8858 0.7021 0.7327
C63_2 C 0.86587(8) 0.63837(9) 0.66709(9)
C64_2 C 0.86385(8) 0.61140(9) 0.62605(9)
H31_2 H 0.8918 0.6034 0.6110
C65_2 C 0.82115(8) 0.59629(8) 0.60735(8)
C66_2 C 0.77893(8) 0.60775(8) 0.62972(8)
H32_2 H 0.7503 0.5973 0.6178
C67_2 C 0.78028(8) 0.63503(8) 0.67011(8)
C68_2 C 0.82327(8) 0.65025(9) 0.68827(9)
H33_2 H 0.8235 0.6687 0.7151
C69_2 C 0.82106(8) 0.56557(8) 0.56470(8)
C70_2 C 0.73548(8) 0.64573(8) 0.69586(8)
O33_3 O 0.78148(6) 0.55284(7) 0.45096(6)
O34_3 O 0.86036(6) 0.55378(6) 0.45116(6)
O35_3 O 0.86615(6) 0.45723(6) 0.45176(6)
O36_3 O 0.78740(6) 0.45644(6) 0.45132(6)
O37_3 O 0.63302(6) 0.29762(6) 0.66671(6)
O38_3 O 0.67421(6) 0.25691(6) 0.71999(6)
C29_7 C 0.25211(18) 0.51015(13) 0.0000
C30_7 C 0.21215(17) 0.54091(15) 0.0000
C41_4 C 0.25605(13) 0.51515(10) 0.08457(9)
C42_4 C 0.27245(15) 0.49737(9) 0.04343(10)
H19_4 H 0.2976 0.4764 0.0439
C43_4 C 0.21557(13) 0.54525(11) 0.08401(10)
H20_4 H 0.2039 0.5570 0.1121
C44_4 C 0.28109(13) 0.50833(9) 0.12965(9)
C45_4 C 0.29109(13) 0.54892(9) 0.15579(9)
H21_4 H 0.2822 0.5783 0.1444
C46_4 C 0.31395(12) 0.54584(9) 0.19838(10)
C47_4 C 0.32687(13) 0.50215(8) 0.21607(10)
H22_4 H 0.3428 0.5001 0.2444
C48_4 C 0.31585(12) 0.46156(9) 0.19131(10)
C49_4 C 0.29334(12) 0.46454(9) 0.14792(9)
H23_4 H 0.2866 0.4372 0.1313
C50_4 C 0.32258(10) 0.58989(8) 0.22655(9)
C51_4 C 0.32547(11) 0.41466(9) 0.21387(9)
C52_4 C 0.19361(13) 0.55718(12) 0.04326(11)
H24_4 H 0.1667 0.5758 0.0438
O9_4 O 0.34544(8) 0.58574(6) 0.73616(7)
O10_4 O 0.30513(8) 0.62709(6) 0.78959(7)
O15_4 O 0.05650(8) 0.48254(10) 0.5000
O16_4 O 0.29746(11) 0.50163(11) 0.5000
O17_4 O 0.39757(9) 0.60243(9) 0.64480(13)
O18_4 O 0.27405(8) 0.72595(8) 0.81298(11)
C27_4 C 0.25605(13) 0.51515(10) 0.91543(9)
C28_4 C 0.27245(15) 0.49737(9) 0.95657(10)
H13_4 H 0.2976 0.4764 0.9561
C29_8 C 0.25211(18) 0.51015(13) 1.0000
C30_8 C 0.21215(17) 0.54091(15) 1.0000
C31_4 C 0.21557(13) 0.54525(11) 0.91599(10)
H14_4 H 0.2039 0.5570 0.8879
C32_4 C 0.28109(13) 0.50833(9) 0.87035(9)
C33_4 C 0.29109(13) 0.54892(9) 0.84421(9)
H15_4 H 0.2822 0.5783 0.8556
C34_4 C 0.31395(12) 0.54584(9) 0.80162(10)
C35_4 C 0.32687(13) 0.50215(8) 0.78393(10)
H16_4 H 0.3428 0.5001 0.7556
C36_4 C 0.31585(12) 0.46156(9) 0.80869(10)
C37_4 C 0.29334(12) 0.46454(9) 0.85208(9)
H17_4 H 0.2866 0.4372 0.8687
C38_4 C 0.32258(10) 0.58989(8) 0.77345(9)
C39_4 C 0.32547(11) 0.41466(9) 0.78613(9)
C40_4 C 0.19361(13) 0.55718(12) 0.95674(11)
H18_4 H 0.1667 0.5758 0.9562
O33_4 O 0.21852(6) 0.44716(7) 0.45096(6)
O34_4 O 0.13964(6) 0.44622(6) 0.45116(6)
O35_4 O 0.13385(6) 0.54277(6) 0.45176(6)
O36_4 O 0.21260(6) 0.54356(6) 0.45132(6)
O37_4 O 0.36698(6) 0.70238(6) 0.66671(6)
O38_4 O 0.32579(6) 0.74309(6) 0.71999(6)
O13_4 O 0.59887(9) 0.59887(9) 0.65802(14)
O14_4 O 0.72444(7) 0.72444(7) 0.82192(10)
O31_4 O 0.66834(6) 0.73829(5) 0.73349(6)
O32_4 O 0.62999(8) 0.69815(6) 0.67780(7)
C4_3 C 0.63561(10) 0.04114(9) 0.66854(10)
H2_3 H 0.6105 0.0406 0.6477
C5_3 C 0.65581(9) 0.08383(8) 0.67972(9)
C6_3 C 0.69223(10) 0.08391(9) 0.71334(11)
H3_3 H 0.7062 0.1124 0.7215
C7_3 C 0.70764(11) 0.04318(10) 0.73443(12)
H4_3 H 0.7309 0.0447 0.7573
C19_3 C 0.63918(9) 0.12927(8) 0.65894(9)
C20_3 C 0.60799(9) 0.13053(8) 0.62112(9)
H10_3 H 0.5982 0.1023 0.6078
C21_3 C 0.59127(9) 0.17276(8) 0.60288(8)
C22_3 C 0.60526(8) 0.21545(8) 0.62256(8)
H11_3 H 0.5939 0.2438 0.6108
C23_3 C 0.63651(8) 0.21495(8) 0.66011(8)
C24_3 C 0.65367(9) 0.17232(8) 0.67737(8)
H12_3 H 0.6753 0.1726 0.7018
C25_3 C 0.55662(8) 0.17296(8) 0.56322(8)
C26_3 C 0.64942(8) 0.26018(7) 0.68378(8)
C53_3 C 0.34659(9) 0.08825(8) 0.68720(9)
C54_3 C 0.36627(10) 0.04598(9) 0.67273(9)
H25_3 H 0.3921 0.0465 0.6527
C55_3 C 0.34812(11) 0.00188(8) 0.68770(10)
C60_3 C 0.31162(11) 0.00098(8) 0.72154(12)
C61_3 C 0.29490(11) 0.04457(10) 0.73924(12)
H29_3 H 0.2727 0.0447 0.7632
C62_3 C 0.31085(10) 0.08623(9) 0.72172(11)
H30_3 H 0.2979 0.1142 0.7327
C63_3 C 0.36163(9) 0.13413(8) 0.66709(9)
C64_3 C 0.38860(9) 0.13615(8) 0.62605(9)
H31_3 H 0.3966 0.1082 0.6110
C65_3 C 0.40371(8) 0.17885(8) 0.60735(8)
C66_3 C 0.39225(8) 0.22107(8) 0.62972(8)
H32_3 H 0.4027 0.2497 0.6178
C67_3 C 0.36497(8) 0.21972(8) 0.67011(8)
C68_3 C 0.34975(9) 0.17673(8) 0.68827(9)
H33_3 H 0.3313 0.1765 0.7151
C69_3 C 0.43443(8) 0.17894(8) 0.56470(8)
C70_3 C 0.35427(8) 0.26452(8) 0.69586(8)
C1_3 C 0.65341(9) 0.91175(8) 0.68720(9)
C2_3 C 0.63373(10) 0.95402(9) 0.67273(9)
H1_3 H 0.6079 0.9535 0.6527
C3_3 C 0.65188(11) 0.99812(8) 0.68770(10)
C8_3 C 0.68838(11) 0.99902(8) 0.72154(12)
C9_3 C 0.70510(11) 0.95543(10) 0.73924(12)
H5_3 H 0.7273 0.9553 0.7632
C10_3 C 0.68915(10) 0.91377(9) 0.72172(11)
H6_3 H 0.7021 0.8858 0.7327
C11_3 C 0.63837(9) 0.86587(8) 0.66709(9)
C12_3 C 0.61140(9) 0.86385(8) 0.62605(9)
H7_3 H 0.6034 0.8918 0.6110
C13_3 C 0.59629(8) 0.82115(8) 0.60735(8)
C14_3 C 0.60775(8) 0.77893(8) 0.62972(8)
H8_3 H 0.5973 0.7503 0.6178
C15_3 C 0.63503(8) 0.78028(8) 0.67011(8)
C16_3 C 0.65025(9) 0.82327(8) 0.68827(9)
H9_3 H 0.6687 0.8235 0.7151
C17_3 C 0.56557(8) 0.82106(8) 0.56470(8)
C18_3 C 0.64573(8) 0.73548(8) 0.69586(8)
C56_3 C 0.36439(10) 0.95886(9) 0.66854(10)
H26_3 H 0.3895 0.9594 0.6477
C57_3 C 0.34419(9) 0.91617(8) 0.67972(9)
C58_3 C 0.30777(10) 0.91609(9) 0.71334(11)
H27_3 H 0.2938 0.8876 0.7215
C59_3 C 0.29236(11) 0.95682(10) 0.73443(12)
H28_3 H 0.2691 0.9553 0.7573
C71_3 C 0.36082(9) 0.87073(8) 0.65894(9)
C72_3 C 0.39201(9) 0.86947(8) 0.62112(9)
H34_3 H 0.4018 0.8977 0.6078
C73_3 C 0.40873(9) 0.82724(8) 0.60288(8)
C74_3 C 0.39474(8) 0.78455(8) 0.62256(8)
H35_3 H 0.4061 0.7562 0.6108
C75_3 C 0.36349(8) 0.78505(8) 0.66011(8)
C76_3 C 0.34633(9) 0.82768(8) 0.67737(8)
H36_3 H 0.3247 0.8274 0.7018
C77_3 C 0.44338(8) 0.82704(8) 0.56322(8)
C78_3 C 0.35058(8) 0.73982(7) 0.68378(8)
C4_4 C 0.04114(9) 0.63561(10) 0.33146(10)
H2_4 H 0.0406 0.6105 0.3523
C5_4 C 0.08383(8) 0.65581(9) 0.32028(9)
C6_4 C 0.08391(9) 0.69223(10) 0.28666(11)
H3_4 H 0.1124 0.7062 0.2785
C7_4 C 0.04318(10) 0.70764(11) 0.26557(12)
H4_4 H 0.0447 0.7309 0.2427
C19_4 C 0.12927(8) 0.63918(9) 0.34106(9)
C20_4 C 0.13053(8) 0.60799(9) 0.37888(9)
H10_4 H 0.1023 0.5982 0.3922
C21_4 C 0.17276(8) 0.59127(9) 0.39712(8)
C22_4 C 0.21545(8) 0.60526(8) 0.37744(8)
H11_4 H 0.2438 0.5939 0.3892
C23_4 C 0.21495(8) 0.63651(8) 0.33989(8)
C24_4 C 0.17232(8) 0.65367(9) 0.32263(8)
H12_4 H 0.1726 0.6753 0.2982
C25_4 C 0.17296(8) 0.55662(8) 0.43678(8)
C26_4 C 0.26018(7) 0.64942(8) 0.31622(8)
C53_4 C 0.08825(8) 0.34659(9) 0.31280(9)
C54_4 C 0.04598(9) 0.36627(10) 0.32727(9)
H25_4 H 0.0465 0.3921 0.3473
C55_4 C 0.00188(8) 0.34812(11) 0.31230(10)
C60_4 C 0.00098(8) 0.31162(11) 0.27846(12)
C61_4 C 0.04457(10) 0.29490(11) 0.26076(12)
H29_4 H 0.0447 0.2727 0.2368
C62_4 C 0.08623(9) 0.31085(10) 0.27828(11)
H30_4 H 0.1142 0.2979 0.2673
C63_4 C 0.13413(8) 0.36163(9) 0.33291(9)
C64_4 C 0.13615(8) 0.38860(9) 0.37395(9)
H31_4 H 0.1082 0.3966 0.3890
C65_4 C 0.17885(8) 0.40371(8) 0.39265(8)
C66_4 C 0.22107(8) 0.39225(8) 0.37028(8)
H32_4 H 0.2497 0.4027 0.3822
C67_4 C 0.21972(8) 0.36497(8) 0.32989(8)
C68_4 C 0.17673(8) 0.34975(9) 0.31173(9)
H33_4 H 0.1765 0.3313 0.2849
C69_4 C 0.17894(8) 0.43443(8) 0.43530(8)
C70_4 C 0.26452(8) 0.35427(8) 0.30414(8)
C1_4 C 0.91175(8) 0.65341(9) 0.31280(9)
C2_4 C 0.95402(9) 0.63373(10) 0.32727(9)
H1_4 H 0.9535 0.6079 0.3473
C3_4 C 0.99812(8) 0.65188(11) 0.31230(10)
C8_4 C 0.99902(8) 0.68838(11) 0.27846(12)
C9_4 C 0.95543(10) 0.70510(11) 0.26076(12)
H5_4 H 0.9553 0.7273 0.2368
C10_4 C 0.91377(9) 0.68915(10) 0.27828(11)
H6_4 H 0.8858 0.7021 0.2673
C11_4 C 0.86587(8) 0.63837(9) 0.33291(9)
C12_4 C 0.86385(8) 0.61140(9) 0.37395(9)
H7_4 H 0.8918 0.6034 0.3890
C13_4 C 0.82115(8) 0.59629(8) 0.39265(8)
C14_4 C 0.77893(8) 0.60775(8) 0.37028(8)
H8_4 H 0.7503 0.5973 0.3822
C15_4 C 0.78028(8) 0.63503(8) 0.32989(8)
C16_4 C 0.82327(8) 0.65025(9) 0.31173(9)
H9_4 H 0.8235 0.6687 0.2849
C17_4 C 0.82106(8) 0.56557(8) 0.43530(8)
C18_4 C 0.73548(8) 0.64573(8) 0.30414(8)
C56_4 C 0.95886(9) 0.36439(10) 0.33146(10)
H26_4 H 0.9594 0.3895 0.3523
C57_4 C 0.91617(8) 0.34419(9) 0.32028(9)
C58_4 C 0.91609(9) 0.30777(10) 0.28666(11)
H27_4 H 0.8876 0.2938 0.2785
C59_4 C 0.95682(10) 0.29236(11) 0.26557(12)
H28_4 H 0.9553 0.2691 0.2427
C71_4 C 0.87073(8) 0.36082(9) 0.34106(9)
C72_4 C 0.86947(8) 0.39201(9) 0.37888(9)
H34_4 H 0.8977 0.4018 0.3922
C73_4 C 0.82724(8) 0.40873(9) 0.39712(8)
C74_4 C 0.78455(8) 0.39474(8) 0.37744(8)
H35_4 H 0.7562 0.4061 0.3892
C75_4 C 0.78505(8) 0.36349(8) 0.33989(8)
C76_4 C 0.82768(8) 0.34633(9) 0.32263(8)
H36_4 H 0.8274 0.3247 0.2982
C77_4 C 0.82704(8) 0.44338(8) 0.43678(8)
C78_4 C 0.73982(7) 0.35058(8) 0.31622(8)
Cu3_3 Cu 0.630013(15) 0.006174(16) 0.0000
Cu4_3 Cu 0.722923(15) 0.004426(15) 0.0000
O15_5 O 0.55650(8) 0.01746(10) 0.0000
O33_5 O 0.71852(6) 0.05284(7) 0.04904(6)
O34_5 O 0.63964(6) 0.05378(6) 0.04884(6)
H40 H 0.810971 0.0205708 0.0232294
H46 H 0.548475 0.0420797 0.0233321
Cu3_4 Cu 0.630013(15) 0.006174(16) 1.0000
Cu4_4 Cu 0.722923(15) 0.004426(15) 1.0000
O11_3 O 0.84813(10) 0.08370(7) 0.75176(8)
O12_3 O 0.80966(7) 0.12167(6) 0.69488(6)
O15_6 O 0.55650(8) 0.01746(10) 1.0000
C28_5 C 0.77245(15) 0.00263(9) 0.54343(10)
H13_5 H 0.7976 0.0236 0.5439
C36_5 C 0.81585(12) 0.03844(9) 0.69131(10)
C37_5 C 0.79334(12) 0.03546(9) 0.64792(9)
H17_5 H 0.7866 0.0628 0.6313
C39_5 C 0.82547(11) 0.08534(9) 0.71387(9)
O21_3 O 0.84813(10) 0.08370(7) 0.24824(8)
O22_3 O 0.80966(7) 0.12167(6) 0.30512(6)
C42_5 C 0.77245(15) 0.00263(9) 0.45657(10)
H19_5 H 0.7976 0.0236 0.4561
C48_5 C 0.81585(12) 0.03844(9) 0.30869(10)
C49_5 C 0.79334(12) 0.03546(9) 0.35208(9)
H23_5 H 0.7866 0.0628 0.3687
C51_5 C 0.82547(11) 0.08534(9) 0.28613(9)
O23_3 O 0.76171(5) 0.16834(6) 0.76651(6)
O24_3 O 0.80185(6) 0.12999(8) 0.82220(7)
O25_3 O 0.71852(6) 0.05284(7) 0.95096(6)
O26_3 O 0.63964(6) 0.05378(6) 0.95116(6)
O27_3 O 0.36615(6) 0.04277(6) 0.95176(6)
O28_3 O 0.28740(6) 0.04356(6) 0.95132(6)
O29_3 O 0.20238(6) 0.13302(6) 0.83329(6)
O30_3 O 0.24309(6) 0.17421(6) 0.78001(6)
C53_5 C 0.58825(8) 0.15341(9) 0.81280(9)
C54_5 C 0.54598(9) 0.13373(10) 0.82727(9)
H25_5 H 0.5465 0.1079 0.8473
C55_5 C 0.50188(8) 0.15188(11) 0.81230(10)
C56_5 C 0.45886(9) 0.13561(10) 0.83146(10)
H26_5 H 0.4594 0.1105 0.8523
C57_5 C 0.41617(8) 0.15581(9) 0.82028(9)
C58_5 C 0.41609(9) 0.19223(10) 0.78666(11)
H27_5 H 0.3876 0.2062 0.7785
C59_5 C 0.45682(10) 0.20764(11) 0.76557(12)
H28_5 H 0.4553 0.2309 0.7427
C60_5 C 0.50098(8) 0.18838(11) 0.77846(12)
C61_5 C 0.54457(10) 0.20510(11) 0.76076(12)
H29_5 H 0.5447 0.2273 0.7368
C62_5 C 0.58623(9) 0.18915(10) 0.77828(11)
H30_5 H 0.6142 0.2021 0.7673
C63_5 C 0.63413(8) 0.13837(9) 0.83291(9)
C64_5 C 0.63615(8) 0.11140(9) 0.87395(9)
H31_5 H 0.6082 0.1034 0.8890
C65_5 C 0.67885(8) 0.09629(8) 0.89265(8)
C66_5 C 0.72107(8) 0.10775(8) 0.87028(8)
H32_5 H 0.7497 0.0973 0.8822
C67_5 C 0.71972(8) 0.13503(8) 0.82989(8)
C68_5 C 0.67673(8) 0.15025(9) 0.81173(9)
H33_5 H 0.6765 0.1687 0.7849
C69_5 C 0.67894(8) 0.06557(8) 0.93530(8)
C70_5 C 0.76452(8) 0.14573(8) 0.80414(8)
C71_5 C 0.37073(8) 0.13918(9) 0.84106(9)
C72_5 C 0.36947(8) 0.10799(9) 0.87888(9)
H34_5 H 0.3977 0.0982 0.8922
C73_5 C 0.32724(8) 0.09127(9) 0.89712(8)
C74_5 C 0.28455(8) 0.10526(8) 0.87744(8)
H35_5 H 0.2562 0.0939 0.8892
C75_5 C 0.28505(8) 0.13651(8) 0.83989(8)
C76_5 C 0.32768(8) 0.15367(9) 0.82263(8)
H36_5 H 0.3274 0.1753 0.7982
C77_5 C 0.32704(8) 0.05662(8) 0.93678(8)
C78_5 C 0.23982(7) 0.14942(8) 0.81622(8)
Cu7_2 Cu 0.816275(10) 0.183725(10) 0.725904(16)
Cu8_3 Cu 0.816275(10) 0.183725(10) 0.274096(16)
Cu9_2 Cu 0.862491(10) 0.137509(10) 0.791644(17)
Cu10_3 Cu 0.862491(10) 0.137509(10) 0.208356(17)
Cu13_2 Cu 0.140353(10) 0.140353(10) 0.803683(16)
Cu15_2 Cu 0.188559(10) 0.188559(10) 0.740374(15)
H39 H 0.809794 0.00609436 0.968464
O16_5 O 0.79746(11) 0.99837(11) 0.0000
Cu11_3 Cu 0.369987(15) 0.993826(16) 0.0000
Cu12_3 Cu 0.277077(15) 0.995574(15) 0.0000
O35_5 O 0.63385(6) 0.95723(6) 0.04824(6)
O36_5 O 0.71260(6) 0.95644(6) 0.04868(6)
H45 H 0.540117 0.987644 0.0081649
Cu1_2 Cu 0.183725(10) 0.816275(10) 0.725904(16)
Cu2_2 Cu 0.137509(10) 0.862491(10) 0.791644(17)
Cu5_2 Cu 0.859647(10) 0.859647(10) 0.803683(16)
Cu6_2 Cu 0.811441(10) 0.811441(10) 0.740374(15)
O1_3 O 0.23829(5) 0.83166(6) 0.76651(6)
O2_3 O 0.19815(6) 0.87001(8) 0.82220(7)
O3_3 O 0.28148(6) 0.94716(7) 0.95096(6)
O4_3 O 0.36036(6) 0.94622(6) 0.95116(6)
O5_3 O 0.63385(6) 0.95723(6) 0.95176(6)
O6_3 O 0.71260(6) 0.95644(6) 0.95132(6)
O7_3 O 0.79762(6) 0.86698(6) 0.83329(6)
O8_3 O 0.75691(6) 0.82579(6) 0.78001(6)
O9_5 O 0.84544(8) 0.91426(6) 0.76384(7)
O10_5 O 0.80513(8) 0.87291(6) 0.71041(7)
O13_5 O 0.09887(9) 0.90113(9) 0.84198(14)
O14_5 O 0.22444(7) 0.77556(7) 0.67808(10)
O16_6 O 0.79746(11) 0.99837(11) 1.0000
O17_5 O 0.89757(9) 0.89757(9) 0.85520(13)
O18_5 O 0.77405(8) 0.77405(8) 0.68702(11)
C1_5 C 0.41175(8) 0.84659(9) 0.81280(9)
C2_5 C 0.45402(9) 0.86627(10) 0.82727(9)
H1_5 H 0.4535 0.8921 0.8473
C3_5 C 0.49812(8) 0.84812(11) 0.81230(10)
C4_5 C 0.54114(9) 0.86439(10) 0.83146(10)
H2_5 H 0.5406 0.8895 0.8523
C5_5 C 0.58383(8) 0.84419(9) 0.82028(9)
C6_5 C 0.58391(9) 0.80777(10) 0.78666(11)
H3_5 H 0.6124 0.7938 0.7785
C7_5 C 0.54318(10) 0.79236(11) 0.76557(12)
H4_5 H 0.5447 0.7691 0.7427
C8_5 C 0.49902(8) 0.81162(11) 0.77846(12)
C9_5 C 0.45543(10) 0.79490(11) 0.76076(12)
H5_5 H 0.4553 0.7727 0.7368
C10_5 C 0.41377(9) 0.81085(10) 0.77828(11)
H6_5 H 0.3858 0.7979 0.7673
C11_5 C 0.36587(8) 0.86163(9) 0.83291(9)
C12_5 C 0.36385(8) 0.88860(9) 0.87395(9)
H7_5 H 0.3918 0.8966 0.8890
C13_5 C 0.32115(8) 0.90371(8) 0.89265(8)
C14_5 C 0.27893(8) 0.89225(8) 0.87028(8)
H8_5 H 0.2503 0.9027 0.8822
C15_5 C 0.28028(8) 0.86497(8) 0.82989(8)
C16_5 C 0.32327(8) 0.84975(9) 0.81173(9)
H9_5 H 0.3235 0.8313 0.7849
C17_5 C 0.32106(8) 0.93443(8) 0.93530(8)
C18_5 C 0.23548(8) 0.85427(8) 0.80414(8)
C19_5 C 0.62927(8) 0.86082(9) 0.84106(9)
C20_5 C 0.63053(8) 0.89201(9) 0.87888(9)
H10_5 H 0.6023 0.9018 0.8922
C21_5 C 0.67276(8) 0.90873(9) 0.89712(8)
C22_5 C 0.71545(8) 0.89474(8) 0.87744(8)
H11_5 H 0.7438 0.9061 0.8892
C23_5 C 0.71495(8) 0.86349(8) 0.83989(8)
C24_5 C 0.67232(8) 0.84633(9) 0.82263(8)
H12_5 H 0.6726 0.8247 0.7982
C25_5 C 0.67296(8) 0.94338(8) 0.93678(8)
C26_5 C 0.76018(7) 0.85058(8) 0.81622(8)
C27_5 C 0.75605(13) 0.98485(10) 0.58457(9)
C29_9 C 0.75211(18) 0.98985(13) 0.5000
C30_9 C 0.71215(17) 0.95909(15) 0.5000
C31_5 C 0.71557(13) 0.95475(11) 0.58401(10)
H14_5 H 0.7039 0.9430 0.6121
C32_5 C 0.78109(13) 0.99167(9) 0.62965(9)
C33_5 C 0.79109(13) 0.95108(9) 0.65579(9)
H15_5 H 0.7822 0.9217 0.6444
C34_5 C 0.81395(12) 0.95416(9) 0.69838(10)
C35_5 C 0.82687(13) 0.99785(8) 0.71607(10)
H16_5 H 0.8428 0.9999 0.7444
C38_5 C 0.82258(10) 0.91011(8) 0.72655(9)
C40_5 C 0.69361(13) 0.94282(12) 0.54326(11)
H18_5 H 0.6667 0.9242 0.5438
O19_3 O 0.84544(8) 0.91426(6) 0.23616(7)
O20_3 O 0.80513(8) 0.87291(6) 0.28959(7)
C41_5 C 0.75605(13) 0.98485(10) 0.41543(9)
C43_5 C 0.71557(13) 0.95475(11) 0.41599(10)
H20_5 H 0.7039 0.9430 0.3879
C44_5 C 0.78109(13) 0.99167(9) 0.37035(9)
C45_5 C 0.79109(13) 0.95108(9) 0.34421(9)
H21_5 H 0.7822 0.9217 0.3556
C46_5 C 0.81395(12) 0.95416(9) 0.30162(10)
C47_5 C 0.82687(13) 0.99785(8) 0.28393(10)
H22_5 H 0.8428 0.9999 0.2556
C50_5 C 0.82258(10) 0.91011(8) 0.27345(9)
C52_5 C 0.69361(13) 0.94282(12) 0.45674(11)
H24_5 H 0.6667 0.9242 0.4562
Cu11_4 Cu 0.369987(15) 0.993826(16) 1.0000
Cu12_4 Cu 0.277077(15) 0.995574(15) 1.0000
Cu14_3 Cu 0.859647(10) 0.859647(10) 0.196317(16)
Cu16_3 Cu 0.811441(10) 0.811441(10) 0.259626(15)
O31_5 O 0.16834(6) 0.76171(5) 0.76651(6)
O32_5 O 0.12999(8) 0.80185(6) 0.82220(7)
O37_5 O 0.86698(6) 0.79762(6) 0.83329(6)
O38_5 O 0.82579(6) 0.75691(6) 0.78001(6)
O39_3 O 0.91426(6) 0.84544(8) 0.76384(7)
O40_3 O 0.87291(6) 0.80513(8) 0.71041(7)
O41_3 O 0.15187(10) 0.91630(7) 0.75176(8)
O42_3 O 0.08370(7) 0.84813(10) 0.75176(8)
O43_3 O 0.19034(7) 0.87833(6) 0.69488(6)
O44_3 O 0.12167(6) 0.80966(7) 0.69488(6)
O16_7 O 0.20254(11) 0.00163(11) 0.0000
O35_6 O 0.36615(6) 0.04277(6) 0.04824(6)
O36_6 O 0.28740(6) 0.04356(6) 0.04868(6)
H45_2 H 0.459883 0.0123563 0.0081649
O9_6 O 0.15456(8) 0.08574(6) 0.76384(7)
O10_6 O 0.19487(8) 0.12709(6) 0.71041(7)
O13_6 O 0.90113(9) 0.09887(9) 0.84198(14)
O14_6 O 0.77556(7) 0.22444(7) 0.67808(10)
O16_8 O 0.20254(11) 0.00163(11) 1.0000
O17_6 O 0.10243(9) 0.10243(9) 0.85520(13)
O18_6 O 0.22595(8) 0.22595(8) 0.68702(11)
C27_6 C 0.24395(13) 0.01515(10) 0.58457(9)
C29_10 C 0.24789(18) 0.01015(13) 0.5000
C30_10 C 0.28785(17) 0.04091(15) 0.5000
C31_6 C 0.28443(13) 0.04525(11) 0.58401(10)
H14_6 H 0.2961 0.0570 0.6121
C32_6 C 0.21891(13) 0.00833(9) 0.62965(9)
C33_6 C 0.20891(13) 0.04892(9) 0.65579(9)
H15_6 H 0.2178 0.0783 0.6444
C34_6 C 0.18605(12) 0.04584(9) 0.69838(10)
C35_6 C 0.17313(13) 0.00215(8) 0.71607(10)
H16_6 H 0.1572 0.0001 0.7444
C38_6 C 0.17742(10) 0.08989(8) 0.72655(9)
C40_6 C 0.30639(13) 0.05718(12) 0.54326(11)
H18_6 H 0.3333 0.0758 0.5438
O19_4 O 0.15456(8) 0.08574(6) 0.23616(7)
O20_4 O 0.19487(8) 0.12709(6) 0.28959(7)
C41_6 C 0.24395(13) 0.01515(10) 0.41543(9)
C43_6 C 0.28443(13) 0.04525(11) 0.41599(10)
H20_6 H 0.2961 0.0570 0.3879
C44_6 C 0.21891(13) 0.00833(9) 0.37035(9)
C45_6 C 0.20891(13) 0.04892(9) 0.34421(9)
H21_6 H 0.2178 0.0783 0.3556
C46_6 C 0.18605(12) 0.04584(9) 0.30162(10)
C47_6 C 0.17313(13) 0.00215(8) 0.28393(10)
H22_6 H 0.1572 0.0001 0.2556
C50_6 C 0.17742(10) 0.08989(8) 0.27345(9)
C52_6 C 0.30639(13) 0.05718(12) 0.45674(11)
H24_6 H 0.3333 0.0758 0.4562
Cu14_4 Cu 0.140353(10) 0.140353(10) 0.196317(16)
Cu16_4 Cu 0.188559(10) 0.188559(10) 0.259626(15)
O31_6 O 0.83166(6) 0.23829(5) 0.76651(6)
O32_6 O 0.87001(8) 0.19815(6) 0.82220(7)
O37_6 O 0.13302(6) 0.20238(6) 0.83329(6)
O38_6 O 0.17421(6) 0.24309(6) 0.78001(6)
O39_4 O 0.08574(6) 0.15456(8) 0.76384(7)
O40_4 O 0.12709(6) 0.19487(8) 0.71041(7)
O42_4 O 0.91630(7) 0.15187(10) 0.75176(8)
O44_4 O 0.87833(6) 0.19034(7) 0.69488(6)
O15_7 O 0.44350(8) 0.98254(10) 0.0000
O33_6 O 0.28148(6) 0.94716(7) 0.04904(6)
O34_6 O 0.36036(6) 0.94622(6) 0.04884(6)
H40_2 H 0.189029 0.979429 0.0232294
H46_2 H 0.451525 0.95792 0.0233321
O15_8 O 0.44350(8) 0.98254(10) 1.0000
C28_6 C 0.22755(15) 0.99737(9) 0.54343(10)
H13_6 H 0.2024 0.9764 0.5439
C36_6 C 0.18415(12) 0.96156(9) 0.69131(10)
C37_6 C 0.20666(12) 0.96454(9) 0.64792(9)
H17_6 H 0.2134 0.9372 0.6313
C39_6 C 0.17453(11) 0.91466(9) 0.71387(9)
O21_4 O 0.15187(10) 0.91630(7) 0.24824(8)
O22_4 O 0.19034(7) 0.87833(6) 0.30512(6)
C42_6 C 0.22755(15) 0.99737(9) 0.45657(10)
H19_6 H 0.2024 0.9764 0.4561
C48_6 C 0.18415(12) 0.96156(9) 0.30869(10)
C49_6 C 0.20666(12) 0.96454(9) 0.35208(9)
H23_6 H 0.2134 0.9372 0.3687
C51_6 C 0.17453(11) 0.91466(9) 0.28613(9)
Cu8_4 Cu 0.183725(10) 0.816275(10) 0.274096(16)
Cu10_4 Cu 0.137509(10) 0.862491(10) 0.208356(17)
H39_2 H 0.190206 0.993906 0.968464
O1_4 O 0.16834(6) 0.76171(5) 0.23349(6)
O2_4 O 0.12999(8) 0.80185(6) 0.17780(7)
O3_4 O 0.05284(7) 0.71852(6) 0.04904(6)
O4_4 O 0.05378(6) 0.63964(6) 0.04884(6)
O5_4 O 0.04277(6) 0.36615(6) 0.04824(6)
O6_4 O 0.04356(6) 0.28740(6) 0.04868(6)
O7_4 O 0.13302(6) 0.20238(6) 0.16671(6)
O8_4 O 0.17421(6) 0.24309(6) 0.21999(6)
O9_7 O 0.08574(6) 0.15456(8) 0.23616(7)
O10_7 O 0.12709(6) 0.19487(8) 0.28959(7)
O13_7 O 0.09887(9) 0.90113(9) 0.15802(14)
O14_7 O 0.22444(7) 0.77556(7) 0.32192(10)
O16_9 O 0.00163(11) 0.20254(11) 0.0000
O17_7 O 0.10243(9) 0.10243(9) 0.14480(13)
O18_7 O 0.22595(8) 0.22595(8) 0.31298(11)
C1_6 C 0.15341(9) 0.58825(8) 0.18720(9)
C2_6 C 0.13373(10) 0.54598(9) 0.17273(9)
H1_6 H 0.1079 0.5465 0.1527
C3_6 C 0.15188(11) 0.50188(8) 0.18770(10)
C4_6 C 0.13561(10) 0.45886(9) 0.16854(10)
H2_6 H 0.1105 0.4594 0.1477
C5_6 C 0.15581(9) 0.41617(8) 0.17972(9)
C6_6 C 0.19223(10) 0.41609(9) 0.21334(11)
H3_6 H 0.2062 0.3876 0.2215
C7_6 C 0.20764(11) 0.45682(10) 0.23443(12)
H4_6 H 0.2309 0.4553 0.2573
C8_6 C 0.18838(11) 0.50098(8) 0.22154(12)
C9_6 C 0.20510(11) 0.54457(10) 0.23924(12)
H5_6 H 0.2273 0.5447 0.2632
C10_6 C 0.18915(10) 0.58623(9) 0.22172(11)
H6_6 H 0.2021 0.6142 0.2327
C11_6 C 0.13837(9) 0.63413(8) 0.16709(9)
C12_6 C 0.11140(9) 0.63615(8) 0.12605(9)
H7_6 H 0.1034 0.6082 0.1110
C13_6 C 0.09629(8) 0.67885(8) 0.10735(8)
C14_6 C 0.10775(8) 0.72107(8) 0.12972(8)
H8_6 H 0.0973 0.7497 0.1178
C15_6 C 0.13503(8) 0.71972(8) 0.17011(8)
C16_6 C 0.15025(9) 0.67673(8) 0.18827(9)
H9_6 H 0.1687 0.6765 0.2151
C17_6 C 0.06557(8) 0.67894(8) 0.06470(8)
C18_6 C 0.14573(8) 0.76452(8) 0.19586(8)
C19_6 C 0.13918(9) 0.37073(8) 0.15894(9)
C20_6 C 0.10799(9) 0.36947(8) 0.12112(9)
H10_6 H 0.0982 0.3977 0.1078
C21_6 C 0.09127(9) 0.32724(8) 0.10288(8)
C22_6 C 0.10526(8) 0.28455(8) 0.12256(8)
H11_6 H 0.0939 0.2562 0.1108
C23_6 C 0.13651(8) 0.28505(8) 0.16011(8)
C24_6 C 0.15367(9) 0.32768(8) 0.17737(8)
H12_6 H 0.1753 0.3274 0.2018
C25_6 C 0.05662(8) 0.32704(8) 0.06322(8)
C26_6 C 0.14942(8) 0.23982(7) 0.18378(8)
C27_7 C 0.01515(10) 0.24395(13) 0.41543(9)
C29_11 C 0.01015(13) 0.24789(18) 0.5000
C30_11 C 0.04091(15) 0.28785(17) 0.5000
C31_7 C 0.04525(11) 0.28443(13) 0.41599(10)
H14_7 H 0.0570 0.2961 0.3879
C32_7 C 0.00833(9) 0.21891(13) 0.37035(9)
C33_7 C 0.04892(9) 0.20891(13) 0.34421(9)
H15_7 H 0.0783 0.2178 0.3556
C34_7 C 0.04584(9) 0.18605(12) 0.30162(10)
C35_7 C 0.00215(8) 0.17313(13) 0.28393(10)
H16_7 H 0.0001 0.1572 0.2556
C38_7 C 0.08989(8) 0.17742(10) 0.27345(9)
C40_7 C 0.05718(12) 0.30639(13) 0.45674(11)
H18_7 H 0.0758 0.3333 0.4562
C41_7 C 0.01515(10) 0.24395(13) 0.58457(9)
C43_7 C 0.04525(11) 0.28443(13) 0.58401(10)
H20_7 H 0.0570 0.2961 0.6121
C44_7 C 0.00833(9) 0.21891(13) 0.62965(9)
C45_7 C 0.04892(9) 0.20891(13) 0.65579(9)
H21_7 H 0.0783 0.2178 0.6444
C46_7 C 0.04584(9) 0.18605(12) 0.69838(10)
C47_7 C 0.00215(8) 0.17313(13) 0.71607(10)
H22_7 H 0.0001 0.1572 0.7444
C50_7 C 0.08989(8) 0.17742(10) 0.72655(9)
C52_7 C 0.05718(12) 0.30639(13) 0.54326(11)
H24_7 H 0.0758 0.3333 0.5438
Cu11_5 Cu 0.006174(16) 0.630013(15) 0.0000
Cu12_5 Cu 0.004426(15) 0.722923(15) 0.0000
O31_7 O 0.23829(5) 0.83166(6) 0.23349(6)
O32_7 O 0.19815(6) 0.87001(8) 0.17780(7)
O37_7 O 0.20238(6) 0.13302(6) 0.16671(6)
O38_7 O 0.24309(6) 0.17421(6) 0.21999(6)
O41_4 O 0.08370(7) 0.84813(10) 0.24824(8)
O43_4 O 0.12167(6) 0.80966(7) 0.30512(6)
O16_10 O 0.00163(11) 0.20254(11) 1.0000
Cu11_6 Cu 0.006174(16) 0.630013(15) 1.0000
Cu12_6 Cu 0.004426(15) 0.722923(15) 1.0000
O35_7 O 0.04277(6) 0.36615(6) 0.95176(6)
O36_7 O 0.04356(6) 0.28740(6) 0.95132(6)
H45_3 H 0.0123563 0.459883 0.991835
Cu3_5 Cu 0.993826(16) 0.369987(15) 0.0000
Cu4_5 Cu 0.995574(15) 0.277077(15) 0.0000
O11_4 O 0.91630(7) 0.15187(10) 0.24824(8)
O12_4 O 0.87833(6) 0.19034(7) 0.30512(6)
O15_9 O 0.98254(10) 0.44350(8) 0.0000
C28_7 C 0.99737(9) 0.22755(15) 0.45657(10)
H13_7 H 0.9764 0.2024 0.4561
C36_7 C 0.96156(9) 0.18415(12) 0.30869(10)
C37_7 C 0.96454(9) 0.20666(12) 0.35208(9)
H17_7 H 0.9372 0.2134 0.3687
C39_7 C 0.91466(9) 0.17453(11) 0.28613(9)
C42_7 C 0.99737(9) 0.22755(15) 0.54343(10)
H19_7 H 0.9764 0.2024 0.5439
C48_7 C 0.96156(9) 0.18415(12) 0.69131(10)
C49_7 C 0.96454(9) 0.20666(12) 0.64792(9)
H23_7 H 0.9372 0.2134 0.6313
C51_7 C 0.91466(9) 0.17453(11) 0.71387(9)
O23_4 O 0.83166(6) 0.23829(5) 0.23349(6)
O24_4 O 0.87001(8) 0.19815(6) 0.17780(7)
O25_4 O 0.94716(7) 0.28148(6) 0.04904(6)
O26_4 O 0.94622(6) 0.36036(6) 0.04884(6)
O27_4 O 0.95723(6) 0.63385(6) 0.04824(6)
O28_4 O 0.95644(6) 0.71260(6) 0.04868(6)
O29_4 O 0.86698(6) 0.79762(6) 0.16671(6)
O30_4 O 0.82579(6) 0.75691(6) 0.21999(6)
C53_6 C 0.84659(9) 0.41175(8) 0.18720(9)
C54_6 C 0.86627(10) 0.45402(9) 0.17273(9)
H25_6 H 0.8921 0.4535 0.1527
C55_6 C 0.84812(11) 0.49812(8) 0.18770(10)
C56_6 C 0.86439(10) 0.54114(9) 0.16854(10)
H26_6 H 0.8895 0.5406 0.1477
C57_6 C 0.84419(9) 0.58383(8) 0.17972(9)
C58_6 C 0.80777(10) 0.58391(9) 0.21334(11)
H27_6 H 0.7938 0.6124 0.2215
C59_6 C 0.79236(11) 0.54318(10) 0.23443(12)
H28_6 H 0.7691 0.5447 0.2573
C60_6 C 0.81162(11) 0.49902(8) 0.22154(12)
C61_6 C 0.79490(11) 0.45543(10) 0.23924(12)
H29_6 H 0.7727 0.4553 0.2632
C62_6 C 0.81085(10) 0.41377(9) 0.22172(11)
H30_6 H 0.7979 0.3858 0.2327
C63_6 C 0.86163(9) 0.36587(8) 0.16709(9)
C64_6 C 0.88860(9) 0.36385(8) 0.12605(9)
H31_6 H 0.8966 0.3918 0.1110
C65_6 C 0.90371(8) 0.32115(8) 0.10735(8)
C66_6 C 0.89225(8) 0.27893(8) 0.12972(8)
H32_6 H 0.9027 0.2503 0.1178
C67_6 C 0.86497(8) 0.28028(8) 0.17011(8)
C68_6 C 0.84975(9) 0.32327(8) 0.18827(9)
H33_6 H 0.8313 0.3235 0.2151
C69_6 C 0.93443(8) 0.32106(8) 0.06470(8)
C70_6 C 0.85427(8) 0.23548(8) 0.19586(8)
C71_6 C 0.86082(9) 0.62927(8) 0.15894(9)
C72_6 C 0.89201(9) 0.63053(8) 0.12112(9)
H34_6 H 0.9018 0.6023 0.1078
C73_6 C 0.90873(9) 0.67276(8) 0.10288(8)
C74_6 C 0.89474(8) 0.71545(8) 0.12256(8)
H35_6 H 0.9061 0.7438 0.1108
C75_6 C 0.86349(8) 0.71495(8) 0.16011(8)
C76_6 C 0.84633(9) 0.67232(8) 0.17737(8)
H36_6 H 0.8247 0.6726 0.2018
C77_6 C 0.94338(8) 0.67296(8) 0.06322(8)
C78_6 C 0.85058(8) 0.76018(7) 0.18378(8)
H39_3 H 0.993906 0.190206 0.0315358
Cu3_6 Cu 0.993826(16) 0.369987(15) 1.0000
Cu4_6 Cu 0.995574(15) 0.277077(15) 1.0000
O15_10 O 0.98254(10) 0.44350(8) 1.0000
O33_7 O 0.94716(7) 0.28148(6) 0.95096(6)
O34_7 O 0.94622(6) 0.36036(6) 0.95116(6)
H40_3 H 0.979429 0.189029 0.976771
H46_3 H 0.95792 0.451525 0.976668
O15_11 O 0.01746(10) 0.55650(8) 0.0000
C28_8 C 0.00263(9) 0.77245(15) 0.45657(10)
H13_8 H 0.0236 0.7976 0.4561
C36_8 C 0.03844(9) 0.81585(12) 0.30869(10)
C37_8 C 0.03546(9) 0.79334(12) 0.35208(9)
H17_8 H 0.0628 0.7866 0.3687
C39_8 C 0.08534(9) 0.82547(11) 0.28613(9)
C42_8 C 0.00263(9) 0.77245(15) 0.54343(10)
H19_8 H 0.0236 0.7976 0.5439
C48_8 C 0.03844(9) 0.81585(12) 0.69131(10)
C49_8 C 0.03546(9) 0.79334(12) 0.64792(9)
H23_8 H 0.0628 0.7866 0.6313
C51_8 C 0.08534(9) 0.82547(11) 0.71387(9)
H39_4 H 0.00609436 0.809794 0.0315358
O15_12 O 0.01746(10) 0.55650(8) 1.0000
O33_8 O 0.05284(7) 0.71852(6) 0.95096(6)
O34_8 O 0.05378(6) 0.63964(6) 0.95116(6)
H40_4 H 0.0205708 0.810971 0.976771
H46_4 H 0.0420797 0.548475 0.976668
O9_8 O 0.91426(6) 0.84544(8) 0.23616(7)
O10_8 O 0.87291(6) 0.80513(8) 0.28959(7)
O13_8 O 0.90113(9) 0.09887(9) 0.15802(14)
O14_8 O 0.77556(7) 0.22444(7) 0.32192(10)
O16_11 O 0.99837(11) 0.79746(11) 0.0000
O17_8 O 0.89757(9) 0.89757(9) 0.14480(13)
O18_8 O 0.77405(8) 0.77405(8) 0.31298(11)
C27_8 C 0.98485(10) 0.75605(13) 0.41543(9)
C29_12 C 0.98985(13) 0.75211(18) 0.5000
C30_12 C 0.95909(15) 0.71215(17) 0.5000
C31_8 C 0.95475(11) 0.71557(13) 0.41599(10)
H14_8 H 0.9430 0.7039 0.3879
C32_8 C 0.99167(9) 0.78109(13) 0.37035(9)
C33_8 C 0.95108(9) 0.79109(13) 0.34421(9)
H15_8 H 0.9217 0.7822 0.3556
C34_8 C 0.95416(9) 0.81395(12) 0.30162(10)
C35_8 C 0.99785(8) 0.82687(13) 0.28393(10)
H16_8 H 0.9999 0.8428 0.2556
C38_8 C 0.91011(8) 0.82258(10) 0.27345(9)
C40_8 C 0.94282(12) 0.69361(13) 0.45674(11)
H18_8 H 0.9242 0.6667 0.4562
C41_8 C 0.98485(10) 0.75605(13) 0.58457(9)
C43_8 C 0.95475(11) 0.71557(13) 0.58401(10)
H20_8 H 0.9430 0.7039 0.6121
C44_8 C 0.99167(9) 0.78109(13) 0.62965(9)
C45_8 C 0.95108(9) 0.79109(13) 0.65579(9)
H21_8 H 0.9217 0.7822 0.6444
C46_8 C 0.95416(9) 0.81395(12) 0.69838(10)
C47_8 C 0.99785(8) 0.82687(13) 0.71607(10)
H22_8 H 0.9999 0.8428 0.7444
C50_8 C 0.91011(8) 0.82258(10) 0.72655(9)
C52_8 C 0.94282(12) 0.69361(13) 0.54326(11)
H24_8 H 0.9242 0.6667 0.5438
O31_8 O 0.76171(5) 0.16834(6) 0.23349(6)
O32_8 O 0.80185(6) 0.12999(8) 0.17780(7)
O37_8 O 0.79762(6) 0.86698(6) 0.16671(6)
O38_8 O 0.75691(6) 0.82579(6) 0.21999(6)
O16_12 O 0.99837(11) 0.79746(11) 1.0000
O35_8 O 0.95723(6) 0.63385(6) 0.95176(6)
O36_8 O 0.95644(6) 0.71260(6) 0.95132(6)
H45_4 H 0.987644 0.540117 0.991835
C1_7 C 0.58825(8) 0.15341(9) 0.18720(9)
C2_7 C 0.54598(9) 0.13373(10) 0.17273(9)
H1_7 H 0.5465 0.1079 0.1527
C3_7 C 0.50188(8) 0.15188(11) 0.18770(10)
C4_7 C 0.45886(9) 0.13561(10) 0.16854(10)
H2_7 H 0.4594 0.1105 0.1477
C5_7 C 0.41617(8) 0.15581(9) 0.17972(9)
C6_7 C 0.41609(9) 0.19223(10) 0.21334(11)
H3_7 H 0.3876 0.2062 0.2215
C7_7 C 0.45682(10) 0.20764(11) 0.23443(12)
H4_7 H 0.4553 0.2309 0.2573
C8_7 C 0.50098(8) 0.18838(11) 0.22154(12)
C9_7 C 0.54457(10) 0.20510(11) 0.23924(12)
H5_7 H 0.5447 0.2273 0.2632
C10_7 C 0.58623(9) 0.18915(10) 0.22172(11)
H6_7 H 0.6142 0.2021 0.2327
C11_7 C 0.63413(8) 0.13837(9) 0.16709(9)
C12_7 C 0.63615(8) 0.11140(9) 0.12605(9)
H7_7 H 0.6082 0.1034 0.1110
C13_7 C 0.67885(8) 0.09629(8) 0.10735(8)
C14_7 C 0.72107(8) 0.10775(8) 0.12972(8)
H8_7 H 0.7497 0.0973 0.1178
C15_7 C 0.71972(8) 0.13503(8) 0.17011(8)
C16_7 C 0.67673(8) 0.15025(9) 0.18827(9)
H9_7 H 0.6765 0.1687 0.2151
C17_7 C 0.67894(8) 0.06557(8) 0.06470(8)
C18_7 C 0.76452(8) 0.14573(8) 0.19586(8)
C19_7 C 0.37073(8) 0.13918(9) 0.15894(9)
C20_7 C 0.36947(8) 0.10799(9) 0.12112(9)
H10_7 H 0.3977 0.0982 0.1078
C21_7 C 0.32724(8) 0.09127(9) 0.10288(8)
C22_7 C 0.28455(8) 0.10526(8) 0.12256(8)
H11_7 H 0.2562 0.0939 0.1108
C23_7 C 0.28505(8) 0.13651(8) 0.16011(8)
C24_7 C 0.32768(8) 0.15367(9) 0.17737(8)
H12_7 H 0.3274 0.1753 0.2018
C25_7 C 0.32704(8) 0.05662(8) 0.06322(8)
C26_7 C 0.23982(7) 0.14942(8) 0.18378(8)
H45_5 H 0.459883 0.0123563 0.991835
C53_7 C 0.41175(8) 0.84659(9) 0.18720(9)
C54_7 C 0.45402(9) 0.86627(10) 0.17273(9)
H25_7 H 0.4535 0.8921 0.1527
C55_7 C 0.49812(8) 0.84812(11) 0.18770(10)
C56_7 C 0.54114(9) 0.86439(10) 0.16854(10)
H26_7 H 0.5406 0.8895 0.1477
C57_7 C 0.58383(8) 0.84419(9) 0.17972(9)
C58_7 C 0.58391(9) 0.80777(10) 0.21334(11)
H27_7 H 0.6124 0.7938 0.2215
C59_7 C 0.54318(10) 0.79236(11) 0.23443(12)
H28_7 H 0.5447 0.7691 0.2573
C60_7 C 0.49902(8) 0.81162(11) 0.22154(12)
C61_7 C 0.45543(10) 0.79490(11) 0.23924(12)
H29_7 H 0.4553 0.7727 0.2632
C62_7 C 0.41377(9) 0.81085(10) 0.22172(11)
H30_7 H 0.3858 0.7979 0.2327
C63_7 C 0.36587(8) 0.86163(9) 0.16709(9)
C64_7 C 0.36385(8) 0.88860(9) 0.12605(9)
H31_7 H 0.3918 0.8966 0.1110
C65_7 C 0.32115(8) 0.90371(8) 0.10735(8)
C66_7 C 0.27893(8) 0.89225(8) 0.12972(8)
H32_7 H 0.2503 0.9027 0.1178
C67_7 C 0.28028(8) 0.86497(8) 0.17011(8)
C68_7 C 0.32327(8) 0.84975(9) 0.18827(9)
H33_7 H 0.3235 0.8313 0.2151
C69_7 C 0.32106(8) 0.93443(8) 0.06470(8)
C70_7 C 0.23548(8) 0.85427(8) 0.19586(8)
C71_7 C 0.62927(8) 0.86082(9) 0.15894(9)
C72_7 C 0.63053(8) 0.89201(9) 0.12112(9)
H34_7 H 0.6023 0.9018 0.1078
C73_7 C 0.67276(8) 0.90873(9) 0.10288(8)
C74_7 C 0.71545(8) 0.89474(8) 0.12256(8)
H35_7 H 0.7438 0.9061 0.1108
C75_7 C 0.71495(8) 0.86349(8) 0.16011(8)
C76_7 C 0.67232(8) 0.84633(9) 0.17737(8)
H36_7 H 0.6726 0.8247 0.2018
C77_7 C 0.67296(8) 0.94338(8) 0.06322(8)
C78_7 C 0.76018(7) 0.85058(8) 0.18378(8)
H39_5 H 0.190206 0.993906 0.0315358
H40_5 H 0.189029 0.979429 0.976771
H46_5 H 0.451525 0.95792 0.976668
H39_6 H 0.809794 0.00609436 0.0315358
H40_6 H 0.810971 0.0205708 0.976771
H46_6 H 0.548475 0.0420797 0.976668
H45_6 H 0.540117 0.987644 0.991835
H40_7 H 0.0205708 0.810971 0.0232294
H46_7 H 0.0420797 0.548475 0.0233321
C53_8 C 0.15341(9) 0.58825(8) 0.81280(9)
C54_8 C 0.13373(10) 0.54598(9) 0.82727(9)
H25_8 H 0.1079 0.5465 0.8473
C55_8 C 0.15188(11) 0.50188(8) 0.81230(10)
C56_8 C 0.13561(10) 0.45886(9) 0.83146(10)
H26_8 H 0.1105 0.4594 0.8523
C57_8 C 0.15581(9) 0.41617(8) 0.82028(9)
C58_8 C 0.19223(10) 0.41609(9) 0.78666(11)
H27_8 H 0.2062 0.3876 0.7785
C59_8 C 0.20764(11) 0.45682(10) 0.76557(12)
H28_8 H 0.2309 0.4553 0.7427
C60_8 C 0.18838(11) 0.50098(8) 0.77846(12)
C61_8 C 0.20510(11) 0.54457(10) 0.76076(12)
H29_8 H 0.2273 0.5447 0.7368
C62_8 C 0.18915(10) 0.58623(9) 0.77828(11)
H30_8 H 0.2021 0.6142 0.7673
C63_8 C 0.13837(9) 0.63413(8) 0.83291(9)
C64_8 C 0.11140(9) 0.63615(8) 0.87395(9)
H31_8 H 0.1034 0.6082 0.8890
C65_8 C 0.09629(8) 0.67885(8) 0.89265(8)
C66_8 C 0.10775(8) 0.72107(8) 0.87028(8)
H32_8 H 0.0973 0.7497 0.8822
C67_8 C 0.13503(8) 0.71972(8) 0.82989(8)
C68_8 C 0.15025(9) 0.67673(8) 0.81173(9)
H33_8 H 0.1687 0.6765 0.7849
C69_8 C 0.06557(8) 0.67894(8) 0.93530(8)
C70_8 C 0.14573(8) 0.76452(8) 0.80414(8)
C71_8 C 0.13918(9) 0.37073(8) 0.84106(9)
C72_8 C 0.10799(9) 0.36947(8) 0.87888(9)
H34_8 H 0.0982 0.3977 0.8922
C73_8 C 0.09127(9) 0.32724(8) 0.89712(8)
C74_8 C 0.10526(8) 0.28455(8) 0.87744(8)
H35_8 H 0.0939 0.2562 0.8892
C75_8 C 0.13651(8) 0.28505(8) 0.83989(8)
C76_8 C 0.15367(9) 0.32768(8) 0.82263(8)
H36_8 H 0.1753 0.3274 0.7982
C77_8 C 0.05662(8) 0.32704(8) 0.93678(8)
C78_8 C 0.14942(8) 0.23982(7) 0.81622(8)
H39_7 H 0.00609436 0.809794 0.968464
H45_7 H 0.987644 0.540117 0.0081649
C1_8 C 0.84659(9) 0.41175(8) 0.81280(9)
C2_8 C 0.86627(10) 0.45402(9) 0.82727(9)
H1_8 H 0.8921 0.4535 0.8473
C3_8 C 0.84812(11) 0.49812(8) 0.81230(10)
C4_8 C 0.86439(10) 0.54114(9) 0.83146(10)
H2_8 H 0.8895 0.5406 0.8523
C5_8 C 0.84419(9) 0.58383(8) 0.82028(9)
C6_8 C 0.80777(10) 0.58391(9) 0.78666(11)
H3_8 H 0.7938 0.6124 0.7785
C7_8 C 0.79236(11) 0.54318(10) 0.76557(12)
H4_8 H 0.7691 0.5447 0.7427
C8_8 C 0.81162(11) 0.49902(8) 0.77846(12)
C9_8 C 0.79490(11) 0.45543(10) 0.76076(12)
H5_8 H 0.7727 0.4553 0.7368
C10_8 C 0.81085(10) 0.41377(9) 0.77828(11)
H6_8 H 0.7979 0.3858 0.7673
C11_8 C 0.86163(9) 0.36587(8) 0.83291(9)
C12_8 C 0.88860(9) 0.36385(8) 0.87395(9)
H7_8 H 0.8966 0.3918 0.8890
C13_8 C 0.90371(8) 0.32115(8) 0.89265(8)
C14_8 C 0.89225(8) 0.27893(8) 0.87028(8)
H8_8 H 0.9027 0.2503 0.8822
C15_8 C 0.86497(8) 0.28028(8) 0.82989(8)
C16_8 C 0.84975(9) 0.32327(8) 0.81173(9)
H9_8 H 0.8313 0.3235 0.7849
C17_8 C 0.93443(8) 0.32106(8) 0.93530(8)
C18_8 C 0.85427(8) 0.23548(8) 0.80414(8)
C19_8 C 0.86082(9) 0.62927(8) 0.84106(9)
C20_8 C 0.89201(9) 0.63053(8) 0.87888(9)
H10_8 H 0.9018 0.6023 0.8922
C21_8 C 0.90873(9) 0.67276(8) 0.89712(8)
C22_8 C 0.89474(8) 0.71545(8) 0.87744(8)
H11_8 H 0.9061 0.7438 0.8892
C23_8 C 0.86349(8) 0.71495(8) 0.83989(8)
C24_8 C 0.84633(9) 0.67232(8) 0.82263(8)
H12_8 H 0.8247 0.6726 0.7982
C25_8 C 0.94338(8) 0.67296(8) 0.93678(8)
C26_8 C 0.85058(8) 0.76018(7) 0.81622(8)
H45_8 H 0.0123563 0.459883 0.0081649
H40_8 H 0.979429 0.189029 0.0232294
H46_8 H 0.95792 0.451525 0.0233321
H39_8 H 0.993906 0.190206 0.968464
loop_
_geom_bond_atom_site_label_1
_geom_bond_atom_site_label_2
_geom_bond_site_symmetry_1
_geom_bond_site_symmetry_2
Cu1 O1 1_555 1_555
Cu2 O2 1_555 1_555
O1 C18 1_555 1_555
O2 C18 1_555 1_555
O3 C17 1_555 1_555
O4 C17 1_555 1_555
O13 Cu2 1_555 1_555
O14 Cu1 1_555 1_555
C1 C2 1_555 1_555
C2 H1 1_555 1_555
C3 C2 1_555 1_555
C8 C3 1_555 1_555
C9 C8 1_555 1_555
H5 C9 1_555 1_555
C10 C1 1_555 1_555
H6 C10 1_555 1_555
C11 C1 1_555 1_555
C12 C11 1_555 1_555
H7 C12 1_555 1_555
C13 C12 1_555 1_555
C14 C13 1_555 1_555
H8 C14 1_555 1_555
C15 C14 1_555 1_555
C16 C11 1_555 1_555
H9 C16 1_555 1_555
C17 C13 1_555 1_555
C18 C15 1_555 1_555
O27 C77 1_555 1_555
O28 C77 1_555 1_555
O29 C78 1_555 1_555
O30 C78 1_555 1_555
H26 C56 1_555 1_555
C57 C56 1_555 1_555
C58 C57 1_555 1_555
H27 C58 1_555 1_555
C59 C58 1_555 1_555
H28 C59 1_555 1_555
C71 C57 1_555 1_555
C72 C71 1_555 1_555
H34 C72 1_555 1_555
C73 C72 1_555 1_555
C74 C73 1_555 1_555
H35 C74 1_555 1_555
C75 C74 1_555 1_555
C76 C71 1_555 1_555
H36 C76 1_555 1_555
C77 C73 1_555 1_555
C78 C75 1_555 1_555
Cu11 O4 1_555 1_555
Cu12 O3 1_555 1_555
Cu13 O29 1_555 1_555
Cu15 O30 1_555 1_555
O31 Cu1 1_555 1_555
O32 Cu2 1_555 1_555
O41 Cu2 1_555 1_555
O42 Cu2 1_555 1_555
O43 Cu1 1_555 1_555
O44 Cu1 1_555 1_555
C9 C10 1_555 1_555
C15 C16 1_555 1_555
O27 Cu11 1_555 1_555
O28 Cu12 1_555 1_555
C75 C76 1_555 1_555
Cu3 O5 1_555 1_555
Cu4 O6 1_555 1_555
Cu5 O7 1_555 1_555
Cu6 O8 1_555 1_555
O5 C25 1_555 1_555
O6 C25 1_555 1_555
O7 C26 1_555 1_555
O8 C26 1_555 1_555
O9 Cu5 1_555 1_555
O10 Cu6 1_555 1_555
O11 C39 1_555 1_555
O12 C39 1_555 1_555
O15 Cu3 1_555 1_555
O16 Cu4 1_555 1_555
O17 Cu5 1_555 1_555
O18 Cu6 1_555 1_555
H2 C4 1_555 1_555
C5 C4 1_555 1_555
C6 C5 1_555 1_555
H3 C6 1_555 1_555
C7 C6 1_555 1_555
H4 C7 1_555 1_555
C19 C5 1_555 1_555
C20 C19 1_555 1_555
H10 C20 1_555 1_555
C21 C20 1_555 1_555
C22 C21 1_555 1_555
H11 C22 1_555 1_555
C23 C22 1_555 1_555
C24 C19 1_555 1_555
H12 C24 1_555 1_555
C25 C21 1_555 1_555
C26 C23 1_555 1_555
C27 C28 1_555 1_555
C28 H13 1_555 1_555
C29 C28 1_555 1_555
C30 C29 1_555 1_555
C31 C27 1_555 1_555
H14 C31 1_555 1_555
C32 C27 1_555 1_555
C33 C32 1_555 1_555
H15 C33 1_555 1_555
C34 C33 1_555 1_555
C35 C34 1_555 1_555
H16 C35 1_555 1_555
C36 C35 1_555 1_555
C37 C32 1_555 1_555
H17 C37 1_555 1_555
C38 O9 1_555 1_555
C39 C36 1_555 1_555
C40 C30 1_555 1_555
H18 C40 1_555 1_555
O23 C70 1_555 1_555
O24 C70 1_555 1_555
O25 Cu4 1_555 1_555
O26 Cu3 1_555 1_555
C53 C54 1_555 1_555
C54 H25 1_555 1_555
C55 C54 1_555 1_555
C60 C55 1_555 1_555
C61 C60 1_555 1_555
H29 C61 1_555 1_555
C62 C53 1_555 1_555
H30 C62 1_555 1_555
C63 C53 1_555 1_555
C64 C63 1_555 1_555
H31 C64 1_555 1_555
C65 C64 1_555 1_555
C66 C65 1_555 1_555
H32 C66 1_555 1_555
C67 C66 1_555 1_555
C68 C63 1_555 1_555
H33 C68 1_555 1_555
C69 O25 1_555 1_555
C70 C67 1_555 1_555
Cu7 O12 1_555 1_555
Cu9 O11 1_555 1_555
O33 Cu4 1_555 1_555
O34 Cu3 1_555 1_555
O35 Cu3 1_555 1_555
O36 Cu4 1_555 1_555
O37 Cu5 1_555 1_555
O38 Cu6 1_555 1_555
O39 Cu5 1_555 1_555
O40 Cu6 1_555 1_555
O10 C38 1_555 1_555
C23 C24 1_555 1_555
C31 C40 1_555 1_555
C34 C38 1_555 1_555
C36 C37 1_555 1_555
O23 Cu7 1_555 1_555
O24 Cu9 1_555 1_555
O26 C69 1_555 1_555
C61 C62 1_555 1_555
C65 C69 1_555 1_555
C67 C68 1_555 1_555
C30_2 C29_2 1_555 1_555
O19 C50 1_555 1_555
O20 C50 1_555 1_555
O21 C51 1_555 1_555
O22 C51 1_555 1_555
C41 C42 1_555 1_555
C42 C29_2 1_555 1_555
H19 C42 1_555 1_555
C43 C41 1_555 1_555
H20 C43 1_555 1_555
C44 C41 1_555 1_555
C45 C44 1_555 1_555
H21 C45 1_555 1_555
C46 C45 1_555 1_555
C47 C46 1_555 1_555
H22 C47 1_555 1_555
C48 C47 1_555 1_555
C49 C44 1_555 1_555
H23 C49 1_555 1_555
C50 C46 1_555 1_555
C51 C48 1_555 1_555
C52 C30_2 1_555 1_555
H24 C52 1_555 1_555
Cu8 O22 1_555 1_555
Cu10 O21 1_555 1_555
Cu14 O19 1_555 1_555
Cu16 O20 1_555 1_555
C43 C52 1_555 1_555
C48 C49 1_555 1_555
O9_2 Cu13 1_555 1_555
O10_2 Cu15 1_555 1_555
O41 C39_2 1_555 1_555
O43 C39_2 1_555 1_555
O15_2 Cu11 1_555 1_555
O16_2 Cu12 1_555 1_555
O17_2 Cu13 1_555 1_555
O18_2 Cu15 1_555 1_555
C27_2 C28_2 1_555 1_555
C28_2 H13_2 1_555 1_555
C29_3 C28_2 1_555 1_555
C30_3 C29_3 1_555 1_555
C31_2 C27_2 1_555 1_555
H14_2 C31_2 1_555 1_555
C32_2 C27_2 1_555 1_555
C33_2 C32_2 1_555 1_555
H15_2 C33_2 1_555 1_555
C34_2 C33_2 1_555 1_555
C35_2 C34_2 1_555 1_555
H16_2 C35_2 1_555 1_555
C36_2 C35_2 1_555 1_555
C37_2 C32_2 1_555 1_555
H17_2 C37_2 1_555 1_555
C38_2 O9_2 1_555 1_555
C39_2 C36_2 1_555 1_555
C40_2 C30_3 1_555 1_555
H18_2 C40_2 1_555 1_555
O33_2 Cu12 1_555 1_555
O34_2 Cu11 1_555 1_555
O35_2 Cu11 1_555 1_555
O36_2 Cu12 1_555 1_555
O37_2 Cu13 1_555 1_555
O38_2 Cu15 1_555 1_555
O39_2 Cu13 1_555 1_555
O40_2 Cu15 1_555 1_555
O10_2 C38_2 1_555 1_555
C31_2 C40_2 1_555 1_555
C34_2 C38_2 1_555 1_555
C36_2 C37_2 1_555 1_555
C30_4 C29_4 1_555 1_555
O19_2 C50_2 1_555 1_555
O20_2 C50_2 1_555 1_555
O21_2 C51_2 1_555 1_555
O22_2 C51_2 1_555 1_555
C41_2 C42_2 1_555 1_555
C42_2 C29_4 1_555 1_555
H19_2 C42_2 1_555 1_555
C43_2 C41_2 1_555 1_555
H20_2 C43_2 1_555 1_555
C44_2 C41_2 1_555 1_555
C45_2 C44_2 1_555 1_555
H21_2 C45_2 1_555 1_555
C46_2 C45_2 1_555 1_555
C47_2 C46_2 1_555 1_555
H22_2 C47_2 1_555 1_555
C48_2 C47_2 1_555 1_555
C49_2 C44_2 1_555 1_555
H23_2 C49_2 1_555 1_555
C50_2 C46_2 1_555 1_555
C51_2 C48_2 1_555 1_555
C52_2 C30_4 1_555 1_555
H24_2 C52_2 1_555 1_555
Cu8_2 O22_2 1_555 1_555
Cu10_2 O21_2 1_555 1_555
Cu14_2 O19_2 1_555 1_555
Cu16_2 O20_2 1_555 1_555
C43_2 C52_2 1_555 1_555
C48_2 C49_2 1_555 1_555
O13_2 Cu9 1_555 1_555
O14_2 Cu7 1_555 1_555
O31_2 Cu7 1_555 1_555
O32_2 Cu9 1_555 1_555
O42_2 Cu9 1_555 1_555
O44_2 Cu7 1_555 1_555
Cu8_2 O1_2 1_555 1_555
Cu10_2 O2_2 1_555 1_555
O1_2 C18_2 1_555 1_555
O2_2 C18_2 1_555 1_555
O3_2 C17_2 1_555 1_555
O4_2 C17_2 1_555 1_555
O13_3 Cu10_2 1_555 1_555
O14_3 Cu8_2 1_555 1_555
C1_2 C2_2 1_555 1_555
C2_2 H1_2 1_555 1_555
C3_2 C2_2 1_555 1_555
C8_2 C3_2 1_555 1_555
C9_2 C8_2 1_555 1_555
H5_2 C9_2 1_555 1_555
C10_2 C1_2 1_555 1_555
H6_2 C10_2 1_555 1_555
C11_2 C1_2 1_555 1_555
C12_2 C11_2 1_555 1_555
H7_2 C12_2 1_555 1_555
C13_2 C12_2 1_555 1_555
C14_2 C13_2 1_555 1_555
H8_2 C14_2 1_555 1_555
C15_2 C14_2 1_555 1_555
C16_2 C11_2 1_555 1_555
H9_2 C16_2 1_555 1_555
C17_2 C13_2 1_555 1_555
C18_2 C15_2 1_555 1_555
O27_2 C77_2 1_555 1_555
O28_2 C77_2 1_555 1_555
O29_2 C78_2 1_555 1_555
O30_2 C78_2 1_555 1_555
H26_2 C56_2 1_555 1_555
C57_2 C56_2 1_555 1_555
C58_2 C57_2 1_555 1_555
H27_2 C58_2 1_555 1_555
C59_2 C58_2 1_555 1_555
H28_2 C59_2 1_555 1_555
C71_2 C57_2 1_555 1_555
C72_2 C71_2 1_555 1_555
H34_2 C72_2 1_555 1_555
C73_2 C72_2 1_555 1_555
C74_2 C73_2 1_555 1_555
H35_2 C74_2 1_555 1_555
C75_2 C74_2 1_555 1_555
C76_2 C71_2 1_555 1_555
H36_2 C76_2 1_555 1_555
C77_2 C73_2 1_555 1_555
C78_2 C75_2 1_555 1_555
Cu11_2 O4_2 1_555 1_555
Cu12_2 O3_2 1_555 1_555
Cu14 O29_2 1_555 1_555
Cu16 O30_2 1_555 1_555
O31_3 Cu8_2 1_555 1_555
O32_3 Cu10_2 1_555 1_555
O41_2 Cu10_2 1_555 1_555
O43_2 Cu8_2 1_555 1_555
C9_2 C10_2 1_555 1_555
C15_2 C16_2 1_555 1_555
O27_2 Cu11_2 1_555 1_555
O28_2 Cu12_2 1_555 1_555
C75_2 C76_2 1_555 1_555
C30_5 C29_5 1_555 1_555
O39_2 C50_3 1_555 1_555
O40_2 C50_3 1_555 1_555
O42_2 C51_3 1_555 1_555
O44_2 C51_3 1_555 1_555
C41_3 C42_3 1_555 1_555
C42_3 C29_5 1_555 1_555
H19_3 C42_3 1_555 1_555
C43_3 C41_3 1_555 1_555
H20_3 C43_3 1_555 1_555
C44_3 C41_3 1_555 1_555
C45_3 C44_3 1_555 1_555
H21_3 C45_3 1_555 1_555
C46_3 C45_3 1_555 1_555
C47_3 C46_3 1_555 1_555
H22_3 C47_3 1_555 1_555
C48_3 C47_3 1_555 1_555
C49_3 C44_3 1_555 1_555
H23_3 C49_3 1_555 1_555
C50_3 C46_3 1_555 1_555
C51_3 C48_3 1_555 1_555
C52_3 C30_5 1_555 1_555
H24_3 C52_3 1_555 1_555
C43_3 C52_3 1_555 1_555
C48_3 C49_3 1_555 1_555
Cu3_2 O5_2 1_555 1_555
Cu4_2 O6_2 1_555 1_555
Cu14_2 O7_2 1_555 1_555
Cu16_2 O8_2 1_555 1_555
O5_2 C25_2 1_555 1_555
O6_2 C25_2 1_555 1_555
O7_2 C26_2 1_555 1_555
O8_2 C26_2 1_555 1_555
O9_3 Cu14_2 1_555 1_555
O10_3 Cu16_2 1_555 1_555
O11_2 C39_3 1_555 1_555
O12_2 C39_3 1_555 1_555
O15_3 Cu3_2 1_555 1_555
O16_3 Cu4_2 1_555 1_555
O17_3 Cu14_2 1_555 1_555
O18_3 Cu16_2 1_555 1_555
H2_2 C4_2 1_555 1_555
C5_2 C4_2 1_555 1_555
C6_2 C5_2 1_555 1_555
H3_2 C6_2 1_555 1_555
C7_2 C6_2 1_555 1_555
H4_2 C7_2 1_555 1_555
C19_2 C5_2 1_555 1_555
C20_2 C19_2 1_555 1_555
H10_2 C20_2 1_555 1_555
C21_2 C20_2 1_555 1_555
C22_2 C21_2 1_555 1_555
H11_2 C22_2 1_555 1_555
C23_2 C22_2 1_555 1_555
C24_2 C19_2 1_555 1_555
H12_2 C24_2 1_555 1_555
C25_2 C21_2 1_555 1_555
C26_2 C23_2 1_555 1_555
C27_3 C28_3 1_555 1_555
C28_3 H13_3 1_555 1_555
C29_6 C28_3 1_555 1_555
C30_6 C29_6 1_555 1_555
C31_3 C27_3 1_555 1_555
H14_3 C31_3 1_555 1_555
C32_3 C27_3 1_555 1_555
C33_3 C32_3 1_555 1_555
H15_3 C33_3 1_555 1_555
C34_3 C33_3 1_555 1_555
C35_3 C34_3 1_555 1_555
H16_3 C35_3 1_555 1_555
C36_3 C35_3 1_555 1_555
C37_3 C32_3 1_555 1_555
H17_3 C37_3 1_555 1_555
C38_3 O9_3 1_555 1_555
C39_3 C36_3 1_555 1_555
C40_3 C30_6 1_555 1_555
H18_3 C40_3 1_555 1_555
O23_2 C70_2 1_555 1_555
O24_2 C70_2 1_555 1_555
O25_2 Cu4_2 1_555 1_555
O26_2 Cu3_2 1_555 1_555
C53_2 C54_2 1_555 1_555
C54_2 H25_2 1_555 1_555
C55_2 C54_2 1_555 1_555
C60_2 C55_2 1_555 1_555
C61_2 C60_2 1_555 1_555
H29_2 C61_2 1_555 1_555
C62_2 C53_2 1_555 1_555
H30_2 C62_2 1_555 1_555
C63_2 C53_2 1_555 1_555
C64_2 C63_2 1_555 1_555
H31_2 C64_2 1_555 1_555
C65_2 C64_2 1_555 1_555
C66_2 C65_2 1_555 1_555
H32_2 C66_2 1_555 1_555
C67_2 C66_2 1_555 1_555
C68_2 C63_2 1_555 1_555
H33_2 C68_2 1_555 1_555
C69_2 O25_2 1_555 1_555
C70_2 C67_2 1_555 1_555
Cu8 O12_2 1_555 1_555
Cu10 O11_2 1_555 1_555
O33_3 Cu4_2 1_555 1_555
O34_3 Cu3_2 1_555 1_555
O35_3 Cu3_2 1_555 1_555
O36_3 Cu4_2 1_555 1_555
O37_3 Cu14_2 1_555 1_555
O38_3 Cu16_2 1_555 1_555
O10_3 C38_3 1_555 1_555
C23_2 C24_2 1_555 1_555
C31_3 C40_3 1_555 1_555
C34_3 C38_3 1_555 1_555
C36_3 C37_3 1_555 1_555
O23_2 Cu8 1_555 1_555
O24_2 Cu10 1_555 1_555
O26_2 C69_2 1_555 1_555
C61_2 C62_2 1_555 1_555
C65_2 C69_2 1_555 1_555
C67_2 C68_2 1_555 1_555
C30_7 C29_7 1_555 1_555
O39 C50_4 1_555 1_555
O40 C50_4 1_555 1_555
O42 C51_4 1_555 1_555
O44 C51_4 1_555 1_555
C41_4 C42_4 1_555 1_555
C42_4 C29_7 1_555 1_555
H19_4 C42_4 1_555 1_555
C43_4 C41_4 1_555 1_555
H20_4 C43_4 1_555 1_555
C44_4 C41_4 1_555 1_555
C45_4 C44_4 1_555 1_555
H21_4 C45_4 1_555 1_555
C46_4 C45_4 1_555 1_555
C47_4 C46_4 1_555 1_555
H22_4 C47_4 1_555 1_555
C48_4 C47_4 1_555 1_555
C49_4 C44_4 1_555 1_555
H23_4 C49_4 1_555 1_555
C50_4 C46_4 1_555 1_555
C51_4 C48_4 1_555 1_555
C52_4 C30_7 1_555 1_555
H24_4 C52_4 1_555 1_555
C43_4 C52_4 1_555 1_555
C48_4 C49_4 1_555 1_555
O9_4 Cu14 1_555 1_555
O10_4 Cu16 1_555 1_555
O41_2 C39_4 1_555 1_555
O43_2 C39_4 1_555 1_555
O15_4 Cu11_2 1_555 1_555
O16_4 Cu12_2 1_555 1_555
O17_4 Cu14 1_555 1_555
O18_4 Cu16 1_555 1_555
C27_4 C28_4 1_555 1_555
C28_4 H13_4 1_555 1_555
C29_8 C28_4 1_555 1_555
C30_8 C29_8 1_555 1_555
C31_4 C27_4 1_555 1_555
H14_4 C31_4 1_555 1_555
C32_4 C27_4 1_555 1_555
C33_4 C32_4 1_555 1_555
H15_4 C33_4 1_555 1_555
C34_4 C33_4 1_555 1_555
C35_4 C34_4 1_555 1_555
H16_4 C35_4 1_555 1_555
C36_4 C35_4 1_555 1_555
C37_4 C32_4 1_555 1_555
H17_4 C37_4 1_555 1_555
C38_4 O9_4 1_555 1_555
C39_4 C36_4 1_555 1_555
C40_4 C30_8 1_555 1_555
H18_4 C40_4 1_555 1_555
O33_4 Cu12_2 1_555 1_555
O34_4 Cu11_2 1_555 1_555
O35_4 Cu11_2 1_555 1_555
O36_4 Cu12_2 1_555 1_555
O37_4 Cu14 1_555 1_555
O38_4 Cu16 1_555 1_555
O10_4 C38_4 1_555 1_555
C31_4 C40_4 1_555 1_555
C34_4 C38_4 1_555 1_555
C36_4 C37_4 1_555 1_555
O13_4 Cu10 1_555 1_555
O14_4 Cu8 1_555 1_555
O31_4 Cu8 1_555 1_555
O32_4 Cu10 1_555 1_555
O35_2 C25_3 1_555 1_555
O36_2 C25_3 1_555 1_555
O37_3 C26_3 1_555 1_555
O38_3 C26_3 1_555 1_555
H2_3 C4_3 1_555 1_555
C5_3 C4_3 1_555 1_555
C6_3 C5_3 1_555 1_555
H3_3 C6_3 1_555 1_555
C7_3 C6_3 1_555 1_555
H4_3 C7_3 1_555 1_555
C19_3 C5_3 1_555 1_555
C20_3 C19_3 1_555 1_555
H10_3 C20_3 1_555 1_555
C21_3 C20_3 1_555 1_555
C22_3 C21_3 1_555 1_555
H11_3 C22_3 1_555 1_555
C23_3 C22_3 1_555 1_555
C24_3 C19_3 1_555 1_555
H12_3 C24_3 1_555 1_555
C25_3 C21_3 1_555 1_555
C26_3 C23_3 1_555 1_555
O31_3 C70_3 1_555 1_555
O32_3 C70_3 1_555 1_555
C53_3 C54_3 1_555 1_555
C54_3 H25_3 1_555 1_555
C55_3 C54_3 1_555 1_555
C60_3 C55_3 1_555 1_555
C61_3 C60_3 1_555 1_555
H29_3 C61_3 1_555 1_555
C62_3 C53_3 1_555 1_555
H30_3 C62_3 1_555 1_555
C63_3 C53_3 1_555 1_555
C64_3 C63_3 1_555 1_555
H31_3 C64_3 1_555 1_555
C65_3 C64_3 1_555 1_555
C66_3 C65_3 1_555 1_555
H32_3 C66_3 1_555 1_555
C67_3 C66_3 1_555 1_555
C68_3 C63_3 1_555 1_555
H33_3 C68_3 1_555 1_555
C69_3 O33_2 1_555 1_555
C70_3 C67_3 1_555 1_555
C23_3 C24_3 1_555 1_555
O34_2 C69_3 1_555 1_555
C61_3 C62_3 1_555 1_555
C65_3 C69_3 1_555 1_555
C67_3 C68_3 1_555 1_555
O31_4 C18_3 1_555 1_555
O32_4 C18_3 1_555 1_555
O33 C17_3 1_555 1_555
O34 C17_3 1_555 1_555
C1_3 C2_3 1_555 1_555
C2_3 H1_3 1_555 1_555
C3_3 C2_3 1_555 1_555
C8_3 C3_3 1_555 1_555
C9_3 C8_3 1_555 1_555
H5_3 C9_3 1_555 1_555
C10_3 C1_3 1_555 1_555
H6_3 C10_3 1_555 1_555
C11_3 C1_3 1_555 1_555
C12_3 C11_3 1_555 1_555
H7_3 C12_3 1_555 1_555
C13_3 C12_3 1_555 1_555
C14_3 C13_3 1_555 1_555
H8_3 C14_3 1_555 1_555
C15_3 C14_3 1_555 1_555
C16_3 C11_3 1_555 1_555
H9_3 C16_3 1_555 1_555
C17_3 C13_3 1_555 1_555
C18_3 C15_3 1_555 1_555
O35 C77_3 1_555 1_555
O36 C77_3 1_555 1_555
O37_4 C78_3 1_555 1_555
O38_4 C78_3 1_555 1_555
H26_3 C56_3 1_555 1_555
C57_3 C56_3 1_555 1_555
C58_3 C57_3 1_555 1_555
H27_3 C58_3 1_555 1_555
C59_3 C58_3 1_555 1_555
H28_3 C59_3 1_555 1_555
C71_3 C57_3 1_555 1_555
C72_3 C71_3 1_555 1_555
H34_3 C72_3 1_555 1_555
C73_3 C72_3 1_555 1_555
C74_3 C73_3 1_555 1_555
H35_3 C74_3 1_555 1_555
C75_3 C74_3 1_555 1_555
C76_3 C71_3 1_555 1_555
H36_3 C76_3 1_555 1_555
C77_3 C73_3 1_555 1_555
C78_3 C75_3 1_555 1_555
C9_3 C10_3 1_555 1_555
C15_3 C16_3 1_555 1_555
C75_3 C76_3 1_555 1_555
O35_4 C25_4 1_555 1_555
O36_4 C25_4 1_555 1_555
O37 C26_4 1_555 1_555
O38 C26_4 1_555 1_555
H2_4 C4_4 1_555 1_555
C5_4 C4_4 1_555 1_555
C6_4 C5_4 1_555 1_555
H3_4 C6_4 1_555 1_555
C7_4 C6_4 1_555 1_555
H4_4 C7_4 1_555 1_555
C19_4 C5_4 1_555 1_555
C20_4 C19_4 1_555 1_555
H10_4 C20_4 1_555 1_555
C21_4 C20_4 1_555 1_555
C22_4 C21_4 1_555 1_555
H11_4 C22_4 1_555 1_555
C23_4 C22_4 1_555 1_555
C24_4 C19_4 1_555 1_555
H12_4 C24_4 1_555 1_555
C25_4 C21_4 1_555 1_555
C26_4 C23_4 1_555 1_555
O31 C70_4 1_555 1_555
O32 C70_4 1_555 1_555
C53_4 C54_4 1_555 1_555
C54_4 H25_4 1_555 1_555
C55_4 C54_4 1_555 1_555
C60_4 C55_4 1_555 1_555
C61_4 C60_4 1_555 1_555
H29_4 C61_4 1_555 1_555
C62_4 C53_4 1_555 1_555
H30_4 C62_4 1_555 1_555
C63_4 C53_4 1_555 1_555
C64_4 C63_4 1_555 1_555
H31_4 C64_4 1_555 1_555
C65_4 C64_4 1_555 1_555
C66_4 C65_4 1_555 1_555
H32_4 C66_4 1_555 1_555
C67_4 C66_4 1_555 1_555
C68_4 C63_4 1_555 1_555
H33_4 C68_4 1_555 1_555
C69_4 O33_4 1_555 1_555
C70_4 C67_4 1_555 1_555
C23_4 C24_4 1_555 1_555
O34_4 C69_4 1_555 1_555
C61_4 C62_4 1_555 1_555
C65_4 C69_4 1_555 1_555
C67_4 C68_4 1_555 1_555
O31_2 C18_4 1_555 1_555
O32_2 C18_4 1_555 1_555
O33_3 C17_4 1_555 1_555
O34_3 C17_4 1_555 1_555
C1_4 C2_4 1_555 1_555
C2_4 H1_4 1_555 1_555
C3_4 C2_4 1_555 1_555
C8_4 C3_4 1_555 1_555
C9_4 C8_4 1_555 1_555
H5_4 C9_4 1_555 1_555
C10_4 C1_4 1_555 1_555
H6_4 C10_4 1_555 1_555
C11_4 C1_4 1_555 1_555
C12_4 C11_4 1_555 1_555
H7_4 C12_4 1_555 1_555
C13_4 C12_4 1_555 1_555
C14_4 C13_4 1_555 1_555
H8_4 C14_4 1_555 1_555
C15_4 C14_4 1_555 1_555
C16_4 C11_4 1_555 1_555
H9_4 C16_4 1_555 1_555
C17_4 C13_4 1_555 1_555
C18_4 C15_4 1_555 1_555
O35_3 C77_4 1_555 1_555
O36_3 C77_4 1_555 1_555
O37_2 C78_4 1_555 1_555
O38_2 C78_4 1_555 1_555
H26_4 C56_4 1_555 1_555
C57_4 C56_4 1_555 1_555
C58_4 C57_4 1_555 1_555
H27_4 C58_4 1_555 1_555
C59_4 C58_4 1_555 1_555
H28_4 C59_4 1_555 1_555
C71_4 C57_4 1_555 1_555
C72_4 C71_4 1_555 1_555
H34_4 C72_4 1_555 1_555
C73_4 C72_4 1_555 1_555
C74_4 C73_4 1_555 1_555
H35_4 C74_4 1_555 1_555
C75_4 C74_4 1_555 1_555
C76_4 C71_4 1_555 1_555
H36_4 C76_4 1_555 1_555
C77_4 C73_4 1_555 1_555
C78_4 C75_4 1_555 1_555
C9_4 C10_4 1_555 1_555
C15_4 C16_4 1_555 1_555
C75_4 C76_4 1_555 1_555
O15_5 Cu3_3 1_555 1_555
O33_5 Cu4_3 1_555 1_555
O34_5 Cu3_3 1_555 1_555
O15_5 H46 1_555 1_555
O11_3 C39_5 1_555 1_555
O12_3 C39_5 1_555 1_555
O15_6 Cu3_4 1_555 1_555
C28_5 H13_5 1_555 1_555
H17_5 C37_5 1_555 1_555
C39_5 C36_5 1_555 1_555
O21_3 C51_5 1_555 1_555
O22_3 C51_5 1_555 1_555
H19_5 C42_5 1_555 1_555
H23_5 C49_5 1_555 1_555
C51_5 C48_5 1_555 1_555
O23_3 C70_5 1_555 1_555
O24_3 C70_5 1_555 1_555
O25_3 Cu4_4 1_555 1_555
O26_3 Cu3_4 1_555 1_555
O27_3 C77_5 1_555 1_555
O28_3 C77_5 1_555 1_555
O29_3 C78_5 1_555 1_555
O30_3 C78_5 1_555 1_555
C53_5 C54_5 1_555 1_555
C54_5 H25_5 1_555 1_555
C55_5 C54_5 1_555 1_555
C56_5 C55_5 1_555 1_555
H26_5 C56_5 1_555 1_555
C57_5 C56_5 1_555 1_555
C58_5 C57_5 1_555 1_555
H27_5 C58_5 1_555 1_555
C59_5 C58_5 1_555 1_555
H28_5 C59_5 1_555 1_555
C60_5 C55_5 1_555 1_555
C61_5 C60_5 1_555 1_555
H29_5 C61_5 1_555 1_555
C62_5 C53_5 1_555 1_555
H30_5 C62_5 1_555 1_555
C63_5 C53_5 1_555 1_555
C64_5 C63_5 1_555 1_555
H31_5 C64_5 1_555 1_555
C65_5 C64_5 1_555 1_555
C66_5 C65_5 1_555 1_555
H32_5 C66_5 1_555 1_555
C67_5 C66_5 1_555 1_555
C68_5 C63_5 1_555 1_555
H33_5 C68_5 1_555 1_555
C69_5 O25_3 1_555 1_555
C70_5 C67_5 1_555 1_555
C71_5 C57_5 1_555 1_555
C72_5 C71_5 1_555 1_555
H34_5 C72_5 1_555 1_555
C73_5 C72_5 1_555 1_555
C74_5 C73_5 1_555 1_555
H35_5 C74_5 1_555 1_555
C75_5 C74_5 1_555 1_555
C76_5 C71_5 1_555 1_555
H36_5 C76_5 1_555 1_555
C77_5 C73_5 1_555 1_555
C78_5 C75_5 1_555 1_555
Cu7_2 O12_3 1_555 1_555
Cu8_3 O22_3 1_555 1_555
Cu9_2 O11_3 1_555 1_555
Cu10_3 O21_3 1_555 1_555
Cu13_2 O29_3 1_555 1_555
Cu15_2 O30_3 1_555 1_555
C36_5 C37_5 1_555 1_555
C48_5 C49_5 1_555 1_555
O23_3 Cu7_2 1_555 1_555
O24_3 Cu9_2 1_555 1_555
O26_3 C69_5 1_555 1_555
C59_5 C60_5 1_555 1_555
C61_5 C62_5 1_555 1_555
C65_5 C69_5 1_555 1_555
C67_5 C68_5 1_555 1_555
C75_5 C76_5 1_555 1_555
Cu1_2 O1_3 1_555 1_555
Cu2_2 O2_3 1_555 1_555
Cu5_2 O7_3 1_555 1_555
Cu6_2 O8_3 1_555 1_555
O1_3 C18_5 1_555 1_555
O2_3 C18_5 1_555 1_555
O3_3 C17_5 1_555 1_555
O4_3 C17_5 1_555 1_555
O5_3 C25_5 1_555 1_555
O6_3 C25_5 1_555 1_555
O7_3 C26_5 1_555 1_555
O8_3 C26_5 1_555 1_555
O9_5 Cu5_2 1_555 1_555
O10_5 Cu6_2 1_555 1_555
O13_5 Cu2_2 1_555 1_555
O14_5 Cu1_2 1_555 1_555
O17_5 Cu5_2 1_555 1_555
O18_5 Cu6_2 1_555 1_555
C1_5 C2_5 1_555 1_555
C2_5 H1_5 1_555 1_555
C3_5 C2_5 1_555 1_555
C4_5 C3_5 1_555 1_555
H2_5 C4_5 1_555 1_555
C5_5 C4_5 1_555 1_555
C6_5 C5_5 1_555 1_555
H3_5 C6_5 1_555 1_555
C7_5 C6_5 1_555 1_555
H4_5 C7_5 1_555 1_555
C8_5 C3_5 1_555 1_555
C9_5 C8_5 1_555 1_555
H5_5 C9_5 1_555 1_555
C10_5 C1_5 1_555 1_555
H6_5 C10_5 1_555 1_555
C11_5 C1_5 1_555 1_555
C12_5 C11_5 1_555 1_555
H7_5 C12_5 1_555 1_555
C13_5 C12_5 1_555 1_555
C14_5 C13_5 1_555 1_555
H8_5 C14_5 1_555 1_555
C15_5 C14_5 1_555 1_555
C16_5 C11_5 1_555 1_555
H9_5 C16_5 1_555 1_555
C17_5 C13_5 1_555 1_555
C18_5 C15_5 1_555 1_555
C19_5 C5_5 1_555 1_555
C20_5 C19_5 1_555 1_555
H10_5 C20_5 1_555 1_555
C21_5 C20_5 1_555 1_555
C22_5 C21_5 1_555 1_555
H11_5 C22_5 1_555 1_555
C23_5 C22_5 1_555 1_555
C24_5 C19_5 1_555 1_555
H12_5 C24_5 1_555 1_555
C25_5 C21_5 1_555 1_555
C26_5 C23_5 1_555 1_555
C30_9 C29_9 1_555 1_555
C31_5 C27_5 1_555 1_555
H14_5 C31_5 1_555 1_555
C32_5 C27_5 1_555 1_555
C33_5 C32_5 1_555 1_555
H15_5 C33_5 1_555 1_555
C34_5 C33_5 1_555 1_555
C35_5 C34_5 1_555 1_555
H16_5 C35_5 1_555 1_555
C38_5 O9_5 1_555 1_555
C40_5 C30_9 1_555 1_555
H18_5 C40_5 1_555 1_555
O19_3 C50_5 1_555 1_555
O20_3 C50_5 1_555 1_555
C43_5 C41_5 1_555 1_555
H20_5 C43_5 1_555 1_555
C44_5 C41_5 1_555 1_555
C45_5 C44_5 1_555 1_555
H21_5 C45_5 1_555 1_555
C46_5 C45_5 1_555 1_555
C47_5 C46_5 1_555 1_555
H22_5 C47_5 1_555 1_555
C50_5 C46_5 1_555 1_555
C52_5 C30_9 1_555 1_555
H24_5 C52_5 1_555 1_555
Cu11_4 O4_3 1_555 1_555
Cu12_4 O3_3 1_555 1_555
Cu14_3 O19_3 1_555 1_555
Cu16_3 O20_3 1_555 1_555
O31_5 Cu1_2 1_555 1_555
O32_5 Cu2_2 1_555 1_555
O37_5 Cu5_2 1_555 1_555
O38_5 Cu6_2 1_555 1_555
O39_3 Cu5_2 1_555 1_555
O40_3 Cu6_2 1_555 1_555
O41_3 Cu2_2 1_555 1_555
O42_3 Cu2_2 1_555 1_555
O43_3 Cu1_2 1_555 1_555
O44_3 Cu1_2 1_555 1_555
O10_5 C38_5 1_555 1_555
C7_5 C8_5 1_555 1_555
C9_5 C10_5 1_555 1_555
C15_5 C16_5 1_555 1_555
C23_5 C24_5 1_555 1_555
C31_5 C40_5 1_555 1_555
C34_5 C38_5 1_555 1_555
C43_5 C52_5 1_555 1_555
O9_6 Cu13_2 1_555 1_555
O10_6 Cu15_2 1_555 1_555
O13_6 Cu9_2 1_555 1_555
O14_6 Cu7_2 1_555 1_555
O17_6 Cu13_2 1_555 1_555
O18_6 Cu15_2 1_555 1_555
C30_10 C29_10 1_555 1_555
C31_6 C27_6 1_555 1_555
H14_6 C31_6 1_555 1_555
C32_6 C27_6 1_555 1_555
C33_6 C32_6 1_555 1_555
H15_6 C33_6 1_555 1_555
C34_6 C33_6 1_555 1_555
C35_6 C34_6 1_555 1_555
H16_6 C35_6 1_555 1_555
C38_6 O9_6 1_555 1_555
C40_6 C30_10 1_555 1_555
H18_6 C40_6 1_555 1_555
O19_4 C50_6 1_555 1_555
O20_4 C50_6 1_555 1_555
C43_6 C41_6 1_555 1_555
H20_6 C43_6 1_555 1_555
C44_6 C41_6 1_555 1_555
C45_6 C44_6 1_555 1_555
H21_6 C45_6 1_555 1_555
C46_6 C45_6 1_555 1_555
C47_6 C46_6 1_555 1_555
H22_6 C47_6 1_555 1_555
C50_6 C46_6 1_555 1_555
C52_6 C30_10 1_555 1_555
H24_6 C52_6 1_555 1_555
Cu14_4 O19_4 1_555 1_555
Cu16_4 O20_4 1_555 1_555
O31_6 Cu7_2 1_555 1_555
O32_6 Cu9_2 1_555 1_555
O37_6 Cu13_2 1_555 1_555
O38_6 Cu15_2 1_555 1_555
O39_4 Cu13_2 1_555 1_555
O40_4 Cu15_2 1_555 1_555
O42_4 Cu9_2 1_555 1_555
O44_4 Cu7_2 1_555 1_555
O10_6 C38_6 1_555 1_555
C31_6 C40_6 1_555 1_555
C34_6 C38_6 1_555 1_555
C43_6 C52_6 1_555 1_555
O15_7 Cu11_3 1_555 1_555
O33_6 Cu12_3 1_555 1_555
O34_6 Cu11_3 1_555 1_555
O15_7 H46_2 1_555 1_555
O41_3 C39_6 1_555 1_555
O43_3 C39_6 1_555 1_555
O15_8 Cu11_4 1_555 1_555
C28_6 H13_6 1_555 1_555
H17_6 C37_6 1_555 1_555
C39_6 C36_6 1_555 1_555
O21_4 C51_6 1_555 1_555
O22_4 C51_6 1_555 1_555
H19_6 C42_6 1_555 1_555
H23_6 C49_6 1_555 1_555
C51_6 C48_6 1_555 1_555
Cu8_4 O22_4 1_555 1_555
Cu10_4 O21_4 1_555 1_555
C36_6 C37_6 1_555 1_555
C48_6 C49_6 1_555 1_555
Cu8_4 O1_4 1_555 1_555
Cu10_4 O2_4 1_555 1_555
Cu14_4 O7_4 1_555 1_555
Cu16_4 O8_4 1_555 1_555
O1_4 C18_6 1_555 1_555
O2_4 C18_6 1_555 1_555
O3_4 C17_6 1_555 1_555
O4_4 C17_6 1_555 1_555
O5_4 C25_6 1_555 1_555
O6_4 C25_6 1_555 1_555
O7_4 C26_6 1_555 1_555
O8_4 C26_6 1_555 1_555
O9_7 Cu14_4 1_555 1_555
O10_7 Cu16_4 1_555 1_555
O13_7 Cu10_4 1_555 1_555
O14_7 Cu8_4 1_555 1_555
O17_7 Cu14_4 1_555 1_555
O18_7 Cu16_4 1_555 1_555
C1_6 C2_6 1_555 1_555
C2_6 H1_6 1_555 1_555
C3_6 C2_6 1_555 1_555
C4_6 C3_6 1_555 1_555
H2_6 C4_6 1_555 1_555
C5_6 C4_6 1_555 1_555
C6_6 C5_6 1_555 1_555
H3_6 C6_6 1_555 1_555
C7_6 C6_6 1_555 1_555
H4_6 C7_6 1_555 1_555
C8_6 C3_6 1_555 1_555
C9_6 C8_6 1_555 1_555
H5_6 C9_6 1_555 1_555
C10_6 C1_6 1_555 1_555
H6_6 C10_6 1_555 1_555
C11_6 C1_6 1_555 1_555
C12_6 C11_6 1_555 1_555
H7_6 C12_6 1_555 1_555
C13_6 C12_6 1_555 1_555
C14_6 C13_6 1_555 1_555
H8_6 C14_6 1_555 1_555
C15_6 C14_6 1_555 1_555
C16_6 C11_6 1_555 1_555
H9_6 C16_6 1_555 1_555
C17_6 C13_6 1_555 1_555
C18_6 C15_6 1_555 1_555
C19_6 C5_6 1_555 1_555
C20_6 C19_6 1_555 1_555
H10_6 C20_6 1_555 1_555
C21_6 C20_6 1_555 1_555
C22_6 C21_6 1_555 1_555
H11_6 C22_6 1_555 1_555
C23_6 C22_6 1_555 1_555
C24_6 C19_6 1_555 1_555
H12_6 C24_6 1_555 1_555
C25_6 C21_6 1_555 1_555
C26_6 C23_6 1_555 1_555
C30_11 C29_11 1_555 1_555
C31_7 C27_7 1_555 1_555
H14_7 C31_7 1_555 1_555
C32_7 C27_7 1_555 1_555
C33_7 C32_7 1_555 1_555
H15_7 C33_7 1_555 1_555
C34_7 C33_7 1_555 1_555
C35_7 C34_7 1_555 1_555
H16_7 C35_7 1_555 1_555
C38_7 O9_7 1_555 1_555
C40_7 C30_11 1_555 1_555
H18_7 C40_7 1_555 1_555
O39_4 C50_7 1_555 1_555
O40_4 C50_7 1_555 1_555
C43_7 C41_7 1_555 1_555
H20_7 C43_7 1_555 1_555
C44_7 C41_7 1_555 1_555
C45_7 C44_7 1_555 1_555
H21_7 C45_7 1_555 1_555
C46_7 C45_7 1_555 1_555
C47_7 C46_7 1_555 1_555
H22_7 C47_7 1_555 1_555
C50_7 C46_7 1_555 1_555
C52_7 C30_11 1_555 1_555
H24_7 C52_7 1_555 1_555
Cu11_5 O4_4 1_555 1_555
Cu12_5 O3_4 1_555 1_555
O31_7 Cu8_4 1_555 1_555
O32_7 Cu10_4 1_555 1_555
O37_7 Cu14_4 1_555 1_555
O38_7 Cu16_4 1_555 1_555
O41_4 Cu10_4 1_555 1_555
O43_4 Cu8_4 1_555 1_555
O10_7 C38_7 1_555 1_555
C7_6 C8_6 1_555 1_555
C9_6 C10_6 1_555 1_555
C15_6 C16_6 1_555 1_555
C23_6 C24_6 1_555 1_555
C31_7 C40_7 1_555 1_555
C34_7 C38_7 1_555 1_555
C43_7 C52_7 1_555 1_555
O11_4 C39_7 1_555 1_555
O12_4 C39_7 1_555 1_555
O15_9 Cu3_5 1_555 1_555
C28_7 H13_7 1_555 1_555
H17_7 C37_7 1_555 1_555
C39_7 C36_7 1_555 1_555
O42_4 C51_7 1_555 1_555
O44_4 C51_7 1_555 1_555
H19_7 C42_7 1_555 1_555
H23_7 C49_7 1_555 1_555
C51_7 C48_7 1_555 1_555
O23_4 C70_6 1_555 1_555
O24_4 C70_6 1_555 1_555
O25_4 Cu4_5 1_555 1_555
O26_4 Cu3_5 1_555 1_555
O27_4 C77_6 1_555 1_555
O28_4 C77_6 1_555 1_555
O29_4 C78_6 1_555 1_555
O30_4 C78_6 1_555 1_555
C53_6 C54_6 1_555 1_555
C54_6 H25_6 1_555 1_555
C55_6 C54_6 1_555 1_555
C56_6 C55_6 1_555 1_555
H26_6 C56_6 1_555 1_555
C57_6 C56_6 1_555 1_555
C58_6 C57_6 1_555 1_555
H27_6 C58_6 1_555 1_555
C59_6 C58_6 1_555 1_555
H28_6 C59_6 1_555 1_555
C60_6 C55_6 1_555 1_555
C61_6 C60_6 1_555 1_555
H29_6 C61_6 1_555 1_555
C62_6 C53_6 1_555 1_555
H30_6 C62_6 1_555 1_555
C63_6 C53_6 1_555 1_555
C64_6 C63_6 1_555 1_555
H31_6 C64_6 1_555 1_555
C65_6 C64_6 1_555 1_555
C66_6 C65_6 1_555 1_555
H32_6 C66_6 1_555 1_555
C67_6 C66_6 1_555 1_555
C68_6 C63_6 1_555 1_555
H33_6 C68_6 1_555 1_555
C69_6 O25_4 1_555 1_555
C70_6 C67_6 1_555 1_555
C71_6 C57_6 1_555 1_555
C72_6 C71_6 1_555 1_555
H34_6 C72_6 1_555 1_555
C73_6 C72_6 1_555 1_555
C74_6 C73_6 1_555 1_555
H35_6 C74_6 1_555 1_555
C75_6 C74_6 1_555 1_555
C76_6 C71_6 1_555 1_555
H36_6 C76_6 1_555 1_555
C77_6 C73_6 1_555 1_555
C78_6 C75_6 1_555 1_555
Cu8_3 O12_4 1_555 1_555
Cu10_3 O11_4 1_555 1_555
Cu14_3 O29_4 1_555 1_555
Cu16_3 O30_4 1_555 1_555
C36_7 C37_7 1_555 1_555
C48_7 C49_7 1_555 1_555
O23_4 Cu8_3 1_555 1_555
O24_4 Cu10_3 1_555 1_555
O26_4 C69_6 1_555 1_555
C59_6 C60_6 1_555 1_555
C61_6 C62_6 1_555 1_555
C65_6 C69_6 1_555 1_555
C67_6 C68_6 1_555 1_555
C75_6 C76_6 1_555 1_555
O15_10 Cu3_6 1_555 1_555
O33_7 Cu4_6 1_555 1_555
O34_7 Cu3_6 1_555 1_555
O15_10 H46_3 1_555 1_555
O41_4 C39_8 1_555 1_555
O43_4 C39_8 1_555 1_555
O15_11 Cu11_5 1_555 1_555
C28_8 H13_8 1_555 1_555
H17_8 C37_8 1_555 1_555
C39_8 C36_8 1_555 1_555
O42_3 C51_8 1_555 1_555
O44_3 C51_8 1_555 1_555
H19_8 C42_8 1_555 1_555
H23_8 C49_8 1_555 1_555
C51_8 C48_8 1_555 1_555
C36_8 C37_8 1_555 1_555
C48_8 C49_8 1_555 1_555
O15_12 Cu11_6 1_555 1_555
O33_8 Cu12_6 1_555 1_555
O34_8 Cu11_6 1_555 1_555
O15_12 H46_4 1_555 1_555
O9_8 Cu14_3 1_555 1_555
O10_8 Cu16_3 1_555 1_555
O13_8 Cu10_3 1_555 1_555
O14_8 Cu8_3 1_555 1_555
O17_8 Cu14_3 1_555 1_555
O18_8 Cu16_3 1_555 1_555
C30_12 C29_12 1_555 1_555
C31_8 C27_8 1_555 1_555
H14_8 C31_8 1_555 1_555
C32_8 C27_8 1_555 1_555
C33_8 C32_8 1_555 1_555
H15_8 C33_8 1_555 1_555
C34_8 C33_8 1_555 1_555
C35_8 C34_8 1_555 1_555
H16_8 C35_8 1_555 1_555
C38_8 O9_8 1_555 1_555
C40_8 C30_12 1_555 1_555
H18_8 C40_8 1_555 1_555
O39_3 C50_8 1_555 1_555
O40_3 C50_8 1_555 1_555
C43_8 C41_8 1_555 1_555
H20_8 C43_8 1_555 1_555
C44_8 C41_8 1_555 1_555
C45_8 C44_8 1_555 1_555
H21_8 C45_8 1_555 1_555
C46_8 C45_8 1_555 1_555
C47_8 C46_8 1_555 1_555
H22_8 C47_8 1_555 1_555
C50_8 C46_8 1_555 1_555
C52_8 C30_12 1_555 1_555
H24_8 C52_8 1_555 1_555
O31_8 Cu8_3 1_555 1_555
O32_8 Cu10_3 1_555 1_555
O37_8 Cu14_3 1_555 1_555
O38_8 Cu16_3 1_555 1_555
O10_8 C38_8 1_555 1_555
C31_8 C40_8 1_555 1_555
C34_8 C38_8 1_555 1_555
C43_8 C52_8 1_555 1_555
O31_8 C18_7 1_555 1_555
O32_8 C18_7 1_555 1_555
O33_5 C17_7 1_555 1_555
O34_5 C17_7 1_555 1_555
O35_6 C25_7 1_555 1_555
O36_6 C25_7 1_555 1_555
O37_7 C26_7 1_555 1_555
O38_7 C26_7 1_555 1_555
C1_7 C2_7 1_555 1_555
C2_7 H1_7 1_555 1_555
C3_7 C2_7 1_555 1_555
C4_7 C3_7 1_555 1_555
H2_7 C4_7 1_555 1_555
C5_7 C4_7 1_555 1_555
C6_7 C5_7 1_555 1_555
H3_7 C6_7 1_555 1_555
C7_7 C6_7 1_555 1_555
H4_7 C7_7 1_555 1_555
C8_7 C3_7 1_555 1_555
C9_7 C8_7 1_555 1_555
H5_7 C9_7 1_555 1_555
C10_7 C1_7 1_555 1_555
H6_7 C10_7 1_555 1_555
C11_7 C1_7 1_555 1_555
C12_7 C11_7 1_555 1_555
H7_7 C12_7 1_555 1_555
C13_7 C12_7 1_555 1_555
C14_7 C13_7 1_555 1_555
H8_7 C14_7 1_555 1_555
C15_7 C14_7 1_555 1_555
C16_7 C11_7 1_555 1_555
H9_7 C16_7 1_555 1_555
C17_7 C13_7 1_555 1_555
C18_7 C15_7 1_555 1_555
C19_7 C5_7 1_555 1_555
C20_7 C19_7 1_555 1_555
H10_7 C20_7 1_555 1_555
C21_7 C20_7 1_555 1_555
C22_7 C21_7 1_555 1_555
H11_7 C22_7 1_555 1_555
C23_7 C22_7 1_555 1_555
C24_7 C19_7 1_555 1_555
H12_7 C24_7 1_555 1_555
C25_7 C21_7 1_555 1_555
C26_7 C23_7 1_555 1_555
C7_7 C8_7 1_555 1_555
C9_7 C10_7 1_555 1_555
C15_7 C16_7 1_555 1_555
C23_7 C24_7 1_555 1_555
O31_7 C70_7 1_555 1_555
O32_7 C70_7 1_555 1_555
O35_5 C77_7 1_555 1_555
O36_5 C77_7 1_555 1_555
O37_8 C78_7 1_555 1_555
O38_8 C78_7 1_555 1_555
C53_7 C54_7 1_555 1_555
C54_7 H25_7 1_555 1_555
C55_7 C54_7 1_555 1_555
C56_7 C55_7 1_555 1_555
H26_7 C56_7 1_555 1_555
C57_7 C56_7 1_555 1_555
C58_7 C57_7 1_555 1_555
H27_7 C58_7 1_555 1_555
C59_7 C58_7 1_555 1_555
H28_7 C59_7 1_555 1_555
C60_7 C55_7 1_555 1_555
C61_7 C60_7 1_555 1_555
H29_7 C61_7 1_555 1_555
C62_7 C53_7 1_555 1_555
H30_7 C62_7 1_555 1_555
C63_7 C53_7 1_555 1_555
C64_7 C63_7 1_555 1_555
H31_7 C64_7 1_555 1_555
C65_7 C64_7 1_555 1_555
C66_7 C65_7 1_555 1_555
H32_7 C66_7 1_555 1_555
C67_7 C66_7 1_555 1_555
C68_7 C63_7 1_555 1_555
H33_7 C68_7 1_555 1_555
C69_7 O33_6 1_555 1_555
C70_7 C67_7 1_555 1_555
C71_7 C57_7 1_555 1_555
C72_7 C71_7 1_555 1_555
H34_7 C72_7 1_555 1_555
C73_7 C72_7 1_555 1_555
C74_7 C73_7 1_555 1_555
H35_7 C74_7 1_555 1_555
C75_7 C74_7 1_555 1_555
C76_7 C71_7 1_555 1_555
H36_7 C76_7 1_555 1_555
C77_7 C73_7 1_555 1_555
C78_7 C75_7 1_555 1_555
O34_6 C69_7 1_555 1_555
C59_7 C60_7 1_555 1_555
C61_7 C62_7 1_555 1_555
C65_7 C69_7 1_555 1_555
C67_7 C68_7 1_555 1_555
C75_7 C76_7 1_555 1_555
O15_8 H46_5 1_555 1_555
O15_6 H46_6 1_555 1_555
O15_11 H46_7 1_555 1_555
O31_5 C70_8 1_555 1_555
O32_5 C70_8 1_555 1_555
O35_7 C77_8 1_555 1_555
O36_7 C77_8 1_555 1_555
O37_6 C78_8 1_555 1_555
O38_6 C78_8 1_555 1_555
C53_8 C54_8 1_555 1_555
C54_8 H25_8 1_555 1_555
C55_8 C54_8 1_555 1_555
C56_8 C55_8 1_555 1_555
H26_8 C56_8 1_555 1_555
C57_8 C56_8 1_555 1_555
C58_8 C57_8 1_555 1_555
H27_8 C58_8 1_555 1_555
C59_8 C58_8 1_555 1_555
H28_8 C59_8 1_555 1_555
C60_8 C55_8 1_555 1_555
C61_8 C60_8 1_555 1_555
H29_8 C61_8 1_555 1_555
C62_8 C53_8 1_555 1_555
H30_8 C62_8 1_555 1_555
C63_8 C53_8 1_555 1_555
C64_8 C63_8 1_555 1_555
H31_8 C64_8 1_555 1_555
C65_8 C64_8 1_555 1_555
C66_8 C65_8 1_555 1_555
H32_8 C66_8 1_555 1_555
C67_8 C66_8 1_555 1_555
C68_8 C63_8 1_555 1_555
H33_8 C68_8 1_555 1_555
C69_8 O33_8 1_555 1_555
C70_8 C67_8 1_555 1_555
C71_8 C57_8 1_555 1_555
C72_8 C71_8 1_555 1_555
H34_8 C72_8 1_555 1_555
C73_8 C72_8 1_555 1_555
C74_8 C73_8 1_555 1_555
H35_8 C74_8 1_555 1_555
C75_8 C74_8 1_555 1_555
C76_8 C71_8 1_555 1_555
H36_8 C76_8 1_555 1_555
C77_8 C73_8 1_555 1_555
C78_8 C75_8 1_555 1_555
O34_8 C69_8 1_555 1_555
C59_8 C60_8 1_555 1_555
C61_8 C62_8 1_555 1_555
C65_8 C69_8 1_555 1_555
C67_8 C68_8 1_555 1_555
C75_8 C76_8 1_555 1_555
O31_6 C18_8 1_555 1_555
O32_6 C18_8 1_555 1_555
O33_7 C17_8 1_555 1_555
O34_7 C17_8 1_555 1_555
O35_8 C25_8 1_555 1_555
O36_8 C25_8 1_555 1_555
O37_5 C26_8 1_555 1_555
O38_5 C26_8 1_555 1_555
C1_8 C2_8 1_555 1_555
C2_8 H1_8 1_555 1_555
C3_8 C2_8 1_555 1_555
C4_8 C3_8 1_555 1_555
H2_8 C4_8 1_555 1_555
C5_8 C4_8 1_555 1_555
C6_8 C5_8 1_555 1_555
H3_8 C6_8 1_555 1_555
C7_8 C6_8 1_555 1_555
H4_8 C7_8 1_555 1_555
C8_8 C3_8 1_555 1_555
C9_8 C8_8 1_555 1_555
H5_8 C9_8 1_555 1_555
C10_8 C1_8 1_555 1_555
H6_8 C10_8 1_555 1_555
C11_8 C1_8 1_555 1_555
C12_8 C11_8 1_555 1_555
H7_8 C12_8 1_555 1_555
C13_8 C12_8 1_555 1_555
C14_8 C13_8 1_555 1_555
H8_8 C14_8 1_555 1_555
C15_8 C14_8 1_555 1_555
C16_8 C11_8 1_555 1_555
H9_8 C16_8 1_555 1_555
C17_8 C13_8 1_555 1_555
C18_8 C15_8 1_555 1_555
C19_8 C5_8 1_555 1_555
C20_8 C19_8 1_555 1_555
H10_8 C20_8 1_555 1_555
C21_8 C20_8 1_555 1_555
C22_8 C21_8 1_555 1_555
H11_8 C22_8 1_555 1_555
C23_8 C22_8 1_555 1_555
C24_8 C19_8 1_555 1_555
H12_8 C24_8 1_555 1_555
C25_8 C21_8 1_555 1_555
C26_8 C23_8 1_555 1_555
C7_8 C8_8 1_555 1_555
C9_8 C10_8 1_555 1_555
C15_8 C16_8 1_555 1_555
C23_8 C24_8 1_555 1_555
O15_9 H46_8 1_555 1_555

#END
