
###############################################################################
#
# This file contains modified crystal structure data generated from the
# MOF subset of the Cambridge Structural Database (CSD) v543 
# hosted by the Cambridge Crystallographic Data Centre (CCDC).
#
# This work is licensed under the Creative Commons
# Attribution-NonCommercial-ShareAlike 4.0 International License.
# To view a copy of this license, visit
# http://creativecommons.org/licenses/by-nc-sa/4.0/
# or send a letter to
# Creative Commons, PO Box 1866, Mountain View, CA 94042, USA.
#
# CIF created using the CSD Python API on 29 September 2022
# The structure has been converted into the P1 space group
# The structure has a 3D framework
# The original CSD entry TELTUC is in the monoclinic crystal system
# The framework has been calculated to contain at least 10.0% void space
# The void calculation uses a probe of radius 1.32A, grid spacing 0.4
#
###############################################################################

data_TELTUC
_chemical_formula_moiety         '(C128 H128 Cd8 N32 O32)n'
_symmetry_cell_setting           triclinic
_symmetry_space_group_name_H-M   'P 1'
_symmetry_Int_Tables_number      1
_space_group_name_Hall           'P 1'
loop_
_symmetry_equiv_pos_site_id
_symmetry_equiv_pos_as_xyz
1 x,y,z
_cell_length_a                   23.102(5)
_cell_length_b                   14.275(5)
_cell_length_c                   13.712(5)
_cell_angle_alpha                90
_cell_angle_beta                 104.738(5)
_cell_angle_gamma                90
_cell_volume                     4373.18
loop_
_atom_site_label
_atom_site_type_symbol
_atom_site_fract_x
_atom_site_fract_y
_atom_site_fract_z
H7 H 0.441258 0.572060 0.008679
H13 H 0.337799 0.519339 0.000332
Cd4 Cd 0.28794(2) 0.72739(2) 0.14196(3)
Cd1 Cd 0.28794(2) 0.27261(2) 0.64196(3)
O1 O 0.35462(15) 0.3910(3) 0.7130(3)
N2 N 0.20937(17) 0.3700(3) 0.6543(3)
O2 O 0.3386(2) 0.2916(3) 0.8254(3)
N3 N 0.01521(19) 0.5127(3) 0.6172(4)
C1 C 0.3783(2) 0.5261(4) 0.8833(4)
H1 H 0.365377 0.547283 0.813158
H2 H 0.007004 0.700026 0.628586
C3 C 0.1129(2) 0.4842(4) 0.6504(4)
N4 N 0.06482(19) 0.5494(3) 0.6468(4)
C4 C 0.4023(2) 0.4250(4) 0.8837(4)
H3 H 0.442023 0.426831 0.872117
H4 H 0.405733 0.397306 0.949491
C8 C 0.4276(2) 0.5919(4) 0.9397(5)
H8 H 0.412171 0.654525 0.937436
H9 H 0.460407 0.590511 0.908588
C9 C 0.2148(2) 0.4623(4) 0.6526(4)
H10 H 0.251730 0.487905 0.652147
C10 C 0.1565(2) 0.3357(4) 0.6570(5)
H11 H 0.152782 0.271105 0.661440
C11 C 0.3626(2) 0.3646(4) 0.8046(5)
C12 C 0.3242(2) 0.5284(4) 0.9280(4)
H12 H 0.298005 0.476503 0.900534
C14 C 0.1076(2) 0.3892(4) 0.6538(4)
H15 H 0.071155 0.361593 0.653790
O3 O 0.26652(15) 0.6426(2) 0.8178(3)
C15 C 0.2888(2) 0.6175(4) 0.9080(4)
O4 O 0.27910(15) 0.6653(2) 0.9788(3)
C16 C 0.1674(2) 0.5221(4) 0.6515(4)
H16 H 0.172577 0.586732 0.651523
Cd3 Cd 0.21206(2) 0.77261(2) 0.85804(3)
N5 N 0.36697(16) 0.1801(3) 0.6204(3)
O5 O 0.23348(15) 0.1426(2) 0.6822(3)
O6 O 0.22090(15) 0.1653(2) 0.5212(3)
O7 O 0.27910(15) 0.3347(2) 0.4788(3)
N1 N 0.86697(16) 0.6801(3) 0.6204(3)
C2 C 0.9707(2) 0.6700(4) 0.6241(4)
C5 C 0.9117(2) 0.5320(4) 0.6059(4)
H5 H 0.907553 0.467416 0.597914
C6 C 0.8633(2) 0.5873(4) 0.6085(4)
H6 H 0.826319 0.558669 0.601725
C7 C 0.9662(2) 0.5744(4) 0.6154(4)
C13 C 0.9200(2) 0.7205(4) 0.6260(4)
H14 H 0.922809 0.785419 0.631417
Cd2 Cd 0.78794(2) 0.77261(2) 0.64196(3)
N1_2 N 0.13303(16) 0.6801(3) 0.8796(3)
C2_2 C 0.0293(2) 0.6700(4) 0.8759(4)
C5_2 C 0.0883(2) 0.5320(4) 0.8941(4)
H5_2 H 0.092447 0.467416 0.902086
C6_2 C 0.1367(2) 0.5873(4) 0.8915(4)
H6_2 H 0.173681 0.558669 0.898275
C7_2 C 0.0338(2) 0.5744(4) 0.8846(4)
C13_2 C 0.0800(2) 0.7205(4) 0.8740(4)
H14_2 H 0.077191 0.785419 0.868583
O7_2 O 0.72090(15) 0.3347(2) 0.0212(3)
Cd1_2 Cd 0.71206(2) 0.27261(2) 0.85804(3)
O1_2 O 0.64538(15) 0.3910(3) 0.7870(3)
N2_2 N 0.79063(17) 0.3700(3) 0.8457(3)
O2_2 O 0.6614(2) 0.2916(3) 0.6746(3)
N3_2 N 0.98479(19) 0.5127(3) 0.8828(4)
C1_2 C 0.6217(2) 0.5261(4) 0.6167(4)
H1_2 H 0.634623 0.547283 0.686842
H2_2 H 0.992996 0.700026 0.871414
C3_2 C 0.8871(2) 0.4842(4) 0.8496(4)
N4_2 N 0.93518(19) 0.5494(3) 0.8532(4)
C4_2 C 0.5977(2) 0.4250(4) 0.6163(4)
H3_2 H 0.557977 0.426831 0.627883
H4_2 H 0.594267 0.397306 0.550509
C8_2 C 0.5724(2) 0.5919(4) 0.5603(5)
H7_2 H 0.558742 0.572060 0.491321
H8_2 H 0.587829 0.654525 0.562564
H9_2 H 0.539593 0.590511 0.591412
C9_2 C 0.7852(2) 0.4623(4) 0.8474(4)
H10_2 H 0.748270 0.487905 0.847853
C10_2 C 0.8435(2) 0.3357(4) 0.8430(5)
H11_2 H 0.847218 0.271105 0.838560
C11_2 C 0.6374(2) 0.3646(4) 0.6954(5)
C12_2 C 0.6758(2) 0.5284(4) 0.5720(4)
H12_2 H 0.701995 0.476503 0.599466
H13_2 H 0.662201 0.519339 0.499668
C14_2 C 0.8924(2) 0.3892(4) 0.8462(4)
H15_2 H 0.928845 0.361593 0.846210
O3_2 O 0.73348(15) 0.6426(2) 0.6822(3)
C15_2 C 0.7112(2) 0.6175(4) 0.5920(4)
O4_2 O 0.72090(15) 0.6653(2) 0.5212(3)
C16_2 C 0.8326(2) 0.5221(4) 0.8485(4)
H16_2 H 0.827423 0.586732 0.848477
Cd4_2 Cd 0.71206(2) 0.72739(2) 0.35804(3)
N5_2 N 0.63303(16) 0.1801(3) 0.8796(3)
O5_2 O 0.76652(15) 0.1426(2) 0.8178(3)
O6_2 O 0.77910(15) 0.1653(2) 0.9788(3)
H7_3 H 0.941258 0.072060 0.008679
H13_3 H 0.837799 0.019339 0.000332
Cd4_3 Cd 0.78794(2) 0.22739(2) 0.14196(3)
N3_3 N 0.51521(19) 0.0127(3) 0.6172(4)
C1_3 C 0.8783(2) 0.0261(4) 0.8833(4)
H1_3 H 0.865377 0.047283 0.813158
C2_3 C 0.4707(2) 0.1700(4) 0.6241(4)
H2_3 H 0.507004 0.200026 0.628586
N4_3 N 0.56482(19) 0.0494(3) 0.6468(4)
C5_3 C 0.4117(2) 0.0320(4) 0.6059(4)
C6_3 C 0.3633(2) 0.0873(4) 0.6085(4)
H6_3 H 0.326319 0.058669 0.601725
C7_3 C 0.4662(2) 0.0744(4) 0.6154(4)
C8_3 C 0.9276(2) 0.0919(4) 0.9397(5)
H8_3 H 0.912171 0.154525 0.937436
H9_3 H 0.960407 0.090511 0.908588
C12_3 C 0.8242(2) 0.0284(4) 0.9280(4)
C13_3 C 0.4200(2) 0.2205(4) 0.6260(4)
H14_3 H 0.422809 0.285419 0.631417
C15_3 C 0.7888(2) 0.1175(4) 0.9080(4)
C16_3 C 0.6674(2) 0.0221(4) 0.6515(4)
H16_3 H 0.672577 0.086732 0.651523
O1_3 O 0.85462(15) 0.8910(3) 0.7130(3)
N2_3 N 0.70937(17) 0.8700(3) 0.6543(3)
O2_3 O 0.8386(2) 0.7916(3) 0.8254(3)
C3_3 C 0.6129(2) 0.9842(4) 0.6504(4)
C4_3 C 0.9023(2) 0.9250(4) 0.8837(4)
H3_3 H 0.942023 0.926831 0.872117
H4_3 H 0.905733 0.897306 0.949491
H5_3 H 0.407553 0.967416 0.597914
C9_3 C 0.7148(2) 0.9623(4) 0.6526(4)
H10_3 H 0.751730 0.987905 0.652147
C10_3 C 0.6565(2) 0.8357(4) 0.6570(5)
H11_3 H 0.652782 0.771105 0.661440
C11_3 C 0.8626(2) 0.8646(4) 0.8046(5)
H12_3 H 0.798005 0.976503 0.900534
C14_3 C 0.6076(2) 0.8892(4) 0.6538(4)
H15_3 H 0.571155 0.861593 0.653790
O7_3 O 0.77910(15) 0.8347(2) 0.4788(3)
N3_4 N 0.48479(19) 0.0127(3) 0.8828(4)
C1_4 C 0.1217(2) 0.0261(4) 0.6167(4)
H1_4 H 0.134623 0.047283 0.686842
C2_4 C 0.5293(2) 0.1700(4) 0.8759(4)
H2_4 H 0.492996 0.200026 0.871414
N4_4 N 0.43518(19) 0.0494(3) 0.8532(4)
C5_4 C 0.5883(2) 0.0320(4) 0.8941(4)
C6_4 C 0.6367(2) 0.0873(4) 0.8915(4)
H6_4 H 0.673681 0.058669 0.898275
C7_4 C 0.5338(2) 0.0744(4) 0.8846(4)
C8_4 C 0.0724(2) 0.0919(4) 0.5603(5)
H7_4 H 0.058742 0.072060 0.491321
H8_4 H 0.087829 0.154525 0.562564
H9_4 H 0.039593 0.090511 0.591412
C12_4 C 0.1758(2) 0.0284(4) 0.5720(4)
H13_4 H 0.162201 0.019339 0.499668
C13_4 C 0.5800(2) 0.2205(4) 0.8740(4)
H14_4 H 0.577191 0.285419 0.868583
C15_4 C 0.2112(2) 0.1175(4) 0.5920(4)
C16_4 C 0.3326(2) 0.0221(4) 0.8485(4)
H16_4 H 0.327423 0.086732 0.848477
Cd4_4 Cd 0.21206(2) 0.22739(2) 0.35804(3)
O7_4 O 0.22090(15) 0.8347(2) 0.0212(3)
O1_4 O 0.14538(15) 0.8910(3) 0.7870(3)
N2_4 N 0.29063(17) 0.8700(3) 0.8457(3)
O2_4 O 0.1614(2) 0.7916(3) 0.6746(3)
C3_4 C 0.3871(2) 0.9842(4) 0.8496(4)
C4_4 C 0.0977(2) 0.9250(4) 0.6163(4)
H3_4 H 0.057977 0.926831 0.627883
H4_4 H 0.094267 0.897306 0.550509
H5_4 H 0.592447 0.967416 0.902086
C9_4 C 0.2852(2) 0.9623(4) 0.8474(4)
H10_4 H 0.248270 0.987905 0.847853
C10_4 C 0.3435(2) 0.8357(4) 0.8430(5)
H11_4 H 0.347218 0.771105 0.838560
C11_4 C 0.1374(2) 0.8646(4) 0.6954(5)
H12_4 H 0.201995 0.976503 0.599466
C14_4 C 0.3924(2) 0.8892(4) 0.8462(4)
H15_4 H 0.428845 0.861593 0.846210
N1_3 N 0.13303(16) 0.3199(3) 0.3796(3)
C2_5 C 0.0293(2) 0.3300(4) 0.3759(4)
C5_5 C 0.0883(2) 0.4680(4) 0.3941(4)
H5_5 H 0.092447 0.532584 0.402086
C6_5 C 0.1367(2) 0.4127(4) 0.3915(4)
H6_5 H 0.173681 0.441331 0.398275
C7_5 C 0.0338(2) 0.4256(4) 0.3846(4)
C13_5 C 0.0800(2) 0.2795(4) 0.3740(4)
H14_5 H 0.077191 0.214581 0.368583
O1_5 O 0.64538(15) 0.6090(3) 0.2870(3)
N2_5 N 0.79063(17) 0.6300(3) 0.3457(3)
O2_5 O 0.6614(2) 0.7084(3) 0.1746(3)
N3_5 N 0.98479(19) 0.4873(3) 0.3828(4)
C1_5 C 0.6217(2) 0.4739(4) 0.1167(4)
H1_5 H 0.634623 0.452717 0.186842
H2_5 H 0.992996 0.299974 0.371414
C3_5 C 0.8871(2) 0.5158(4) 0.3496(4)
N4_5 N 0.93518(19) 0.4506(3) 0.3532(4)
C4_5 C 0.5977(2) 0.5750(4) 0.1163(4)
H3_5 H 0.557977 0.573169 0.127883
H4_5 H 0.594267 0.602694 0.050509
C8_5 C 0.5724(2) 0.4081(4) 0.0603(5)
H8_5 H 0.587829 0.345475 0.062564
H9_5 H 0.539593 0.409489 0.091412
C9_5 C 0.7852(2) 0.5377(4) 0.3474(4)
H10_5 H 0.748270 0.512095 0.347853
C10_5 C 0.8435(2) 0.6643(4) 0.3430(5)
H11_5 H 0.847218 0.728895 0.338560
C11_5 C 0.6374(2) 0.6354(4) 0.1954(5)
C12_5 C 0.6758(2) 0.4716(4) 0.0720(4)
H12_5 H 0.701995 0.523497 0.099466
C14_5 C 0.8924(2) 0.6108(4) 0.3462(4)
H15_5 H 0.928845 0.638407 0.346210
O3_3 O 0.73348(15) 0.3574(2) 0.1822(3)
C15_5 C 0.7112(2) 0.3825(4) 0.0920(4)
C16_5 C 0.8326(2) 0.4779(4) 0.3485(4)
H16_5 H 0.827423 0.413268 0.348477
N5_3 N 0.63303(16) 0.8199(3) 0.3796(3)
O5_3 O 0.76652(15) 0.8574(2) 0.3178(3)
H7_5 H 0.558742 0.427940 0.991321
H13_5 H 0.662201 0.480661 0.999668
O1_6 O 0.35462(15) 0.6090(3) 0.2130(3)
N2_6 N 0.20937(17) 0.6300(3) 0.1543(3)
O2_6 O 0.3386(2) 0.7084(3) 0.3254(3)
N3_6 N 0.01521(19) 0.4873(3) 0.1172(4)
C1_6 C 0.3783(2) 0.4739(4) 0.3833(4)
H1_6 H 0.365377 0.452717 0.313158
H2_6 H 0.007004 0.299974 0.128586
C3_6 C 0.1129(2) 0.5158(4) 0.1504(4)
N4_6 N 0.06482(19) 0.4506(3) 0.1468(4)
C4_6 C 0.4023(2) 0.5750(4) 0.3837(4)
H3_6 H 0.442023 0.573169 0.372117
H4_6 H 0.405733 0.602694 0.449491
C8_6 C 0.4276(2) 0.4081(4) 0.4397(5)
H7_6 H 0.441258 0.427940 0.508679
H8_6 H 0.412171 0.345475 0.437436
H9_6 H 0.460407 0.409489 0.408588
C9_6 C 0.2148(2) 0.5377(4) 0.1526(4)
H10_6 H 0.251730 0.512095 0.152147
C10_6 C 0.1565(2) 0.6643(4) 0.1570(5)
H11_6 H 0.152782 0.728895 0.161440
C11_6 C 0.3626(2) 0.6354(4) 0.3046(5)
C12_6 C 0.3242(2) 0.4716(4) 0.4280(4)
H12_6 H 0.298005 0.523497 0.400534
H13_6 H 0.337799 0.480661 0.500332
C14_6 C 0.1076(2) 0.6108(4) 0.1538(4)
H15_6 H 0.071155 0.638407 0.153790
O3_4 O 0.26652(15) 0.3574(2) 0.3178(3)
C15_6 C 0.2888(2) 0.3825(4) 0.4080(4)
C16_6 C 0.1674(2) 0.4779(4) 0.1515(4)
H16_6 H 0.172577 0.413268 0.151523
N5_4 N 0.36697(16) 0.8199(3) 0.1204(3)
O5_4 O 0.23348(15) 0.8574(2) 0.1822(3)
N1_4 N 0.86697(16) 0.3199(3) 0.1204(3)
C2_6 C 0.9707(2) 0.3300(4) 0.1241(4)
C5_6 C 0.9117(2) 0.4680(4) 0.1059(4)
H5_6 H 0.907553 0.532584 0.097914
C6_6 C 0.8633(2) 0.4127(4) 0.1085(4)
H6_6 H 0.826319 0.441331 0.101725
C7_6 C 0.9662(2) 0.4256(4) 0.1154(4)
C13_6 C 0.9200(2) 0.2795(4) 0.1260(4)
H14_6 H 0.922809 0.214581 0.131417
O1_7 O 0.14538(15) 0.1090(3) 0.2870(3)
N2_7 N 0.29063(17) 0.1300(3) 0.3457(3)
O2_7 O 0.1614(2) 0.2084(3) 0.1746(3)
C3_7 C 0.3871(2) 0.0158(4) 0.3496(4)
C4_7 C 0.0977(2) 0.0750(4) 0.1163(4)
H3_7 H 0.057977 0.073169 0.127883
H4_7 H 0.094267 0.102694 0.050509
H5_7 H 0.592447 0.032584 0.402086
C9_7 C 0.2852(2) 0.0377(4) 0.3474(4)
H10_7 H 0.248270 0.012095 0.347853
C10_7 C 0.3435(2) 0.1643(4) 0.3430(5)
H11_7 H 0.347218 0.228895 0.338560
C11_7 C 0.1374(2) 0.1354(4) 0.1954(5)
H12_7 H 0.201995 0.023497 0.099466
C14_7 C 0.3924(2) 0.1108(4) 0.3462(4)
H15_7 H 0.428845 0.138407 0.346210
N3_7 N 0.48479(19) 0.9873(3) 0.3828(4)
C1_7 C 0.1217(2) 0.9739(4) 0.1167(4)
H1_7 H 0.134623 0.952717 0.186842
C2_7 C 0.5293(2) 0.8300(4) 0.3759(4)
H2_7 H 0.492996 0.799974 0.371414
N4_7 N 0.43518(19) 0.9506(3) 0.3532(4)
C5_7 C 0.5883(2) 0.9680(4) 0.3941(4)
C6_7 C 0.6367(2) 0.9127(4) 0.3915(4)
H6_7 H 0.673681 0.941331 0.398275
C7_7 C 0.5338(2) 0.9256(4) 0.3846(4)
C8_7 C 0.0724(2) 0.9081(4) 0.0603(5)
H8_7 H 0.087829 0.845475 0.062564
H9_7 H 0.039593 0.909489 0.091412
C12_7 C 0.1758(2) 0.9716(4) 0.0720(4)
C13_7 C 0.5800(2) 0.7795(4) 0.3740(4)
H14_7 H 0.577191 0.714581 0.368583
C15_7 C 0.2112(2) 0.8825(4) 0.0920(4)
C16_7 C 0.3326(2) 0.9779(4) 0.3485(4)
H16_7 H 0.327423 0.913268 0.348477
H7_7 H 0.058742 0.927940 0.991321
H13_7 H 0.162201 0.980661 0.999668
O1_8 O 0.85462(15) 0.1090(3) 0.2130(3)
N2_8 N 0.70937(17) 0.1300(3) 0.1543(3)
O2_8 O 0.8386(2) 0.2084(3) 0.3254(3)
C3_8 C 0.6129(2) 0.0158(4) 0.1504(4)
C4_8 C 0.9023(2) 0.0750(4) 0.3837(4)
H3_8 H 0.942023 0.073169 0.372117
H4_8 H 0.905733 0.102694 0.449491
H5_8 H 0.407553 0.032584 0.097914
C9_8 C 0.7148(2) 0.0377(4) 0.1526(4)
H10_8 H 0.751730 0.012095 0.152147
C10_8 C 0.6565(2) 0.1643(4) 0.1570(5)
H11_8 H 0.652782 0.228895 0.161440
C11_8 C 0.8626(2) 0.1354(4) 0.3046(5)
H12_8 H 0.798005 0.023497 0.400534
C14_8 C 0.6076(2) 0.1108(4) 0.1538(4)
H15_8 H 0.571155 0.138407 0.153790
N3_8 N 0.51521(19) 0.9873(3) 0.1172(4)
C1_8 C 0.8783(2) 0.9739(4) 0.3833(4)
H1_8 H 0.865377 0.952717 0.313158
C2_8 C 0.4707(2) 0.8300(4) 0.1241(4)
H2_8 H 0.507004 0.799974 0.128586
N4_8 N 0.56482(19) 0.9506(3) 0.1468(4)
C5_8 C 0.4117(2) 0.9680(4) 0.1059(4)
C6_8 C 0.3633(2) 0.9127(4) 0.1085(4)
H6_8 H 0.326319 0.941331 0.101725
C7_8 C 0.4662(2) 0.9256(4) 0.1154(4)
C8_8 C 0.9276(2) 0.9081(4) 0.4397(5)
H7_8 H 0.941258 0.927940 0.508679
H8_8 H 0.912171 0.845475 0.437436
H9_8 H 0.960407 0.909489 0.408588
C12_8 C 0.8242(2) 0.9716(4) 0.4280(4)
H13_8 H 0.837799 0.980661 0.500332
C13_8 C 0.4200(2) 0.7795(4) 0.1260(4)
H14_8 H 0.422809 0.714581 0.131417
C15_8 C 0.7888(2) 0.8825(4) 0.4080(4)
C16_8 C 0.6674(2) 0.9779(4) 0.1515(4)
H16_8 H 0.672577 0.913268 0.151523
loop_
_geom_bond_atom_site_label_1
_geom_bond_atom_site_label_2
_geom_bond_site_symmetry_1
_geom_bond_site_symmetry_2
Cd1 O1 1_555 1_555
O1 C11 1_555 1_555
N2 Cd1 1_555 1_555
O2 Cd1 1_555 1_555
N3 N4 1_555 1_555
C1 H1 1_555 1_555
C3 N4 1_555 1_555
C4 C1 1_555 1_555
H3 C4 1_555 1_555
H4 C4 1_555 1_555
C8 C1 1_555 1_555
H8 C8 1_555 1_555
H9 C8 1_555 1_555
C9 N2 1_555 1_555
H10 C9 1_555 1_555
C10 N2 1_555 1_555
H11 C10 1_555 1_555
C11 O2 1_555 1_555
C12 C1 1_555 1_555
H12 C12 1_555 1_555
C14 C3 1_555 1_555
H15 C14 1_555 1_555
O3 C15 1_555 1_555
C15 C12 1_555 1_555
O4 C15 1_555 1_555
C16 C3 1_555 1_555
H16 C16 1_555 1_555
Cd3 O3 1_555 1_555
N5 Cd1 1_555 1_555
O5 Cd1 1_555 1_555
O6 Cd1 1_555 1_555
O7 Cd1 1_555 1_555
C4 C11 1_555 1_555
C9 C16 1_555 1_555
C10 C14 1_555 1_555
O4 Cd3 1_555 1_555
N1 C6 1_555 1_555
C5 H5 1_555 1_555
C6 C5 1_555 1_555
H6 C6 1_555 1_555
C13 N1 1_555 1_555
H14 C13 1_555 1_555
Cd2 N1 1_555 1_555
C2 C7 1_555 1_555
C2 C13 1_555 1_555
C5 C7 1_555 1_555
N1_2 C6_2 1_555 1_555
C5_2 H5_2 1_555 1_555
C6_2 C5_2 1_555 1_555
H6_2 C6_2 1_555 1_555
C13_2 N1_2 1_555 1_555
H14_2 C13_2 1_555 1_555
Cd3 N1_2 1_555 1_555
C2_2 C7_2 1_555 1_555
C2_2 C13_2 1_555 1_555
C5_2 C7_2 1_555 1_555
Cd1_2 O1_2 1_555 1_555
O1_2 C11_2 1_555 1_555
N2_2 Cd1_2 1_555 1_555
O2_2 Cd1_2 1_555 1_555
N3_2 N4_2 1_555 1_555
C1_2 H1_2 1_555 1_555
C3_2 N4_2 1_555 1_555
C4_2 C1_2 1_555 1_555
H3_2 C4_2 1_555 1_555
H4_2 C4_2 1_555 1_555
C8_2 C1_2 1_555 1_555
H7_2 C8_2 1_555 1_555
H8_2 C8_2 1_555 1_555
H9_2 C8_2 1_555 1_555
C9_2 N2_2 1_555 1_555
H10_2 C9_2 1_555 1_555
C10_2 N2_2 1_555 1_555
H11_2 C10_2 1_555 1_555
C11_2 O2_2 1_555 1_555
C12_2 C1_2 1_555 1_555
H12_2 C12_2 1_555 1_555
H13_2 C12_2 1_555 1_555
C14_2 C3_2 1_555 1_555
H15_2 C14_2 1_555 1_555
O3_2 C15_2 1_555 1_555
C15_2 C12_2 1_555 1_555
O4_2 C15_2 1_555 1_555
C16_2 C3_2 1_555 1_555
H16_2 C16_2 1_555 1_555
Cd2 O3_2 1_555 1_555
Cd4_2 O4_2 1_555 1_555
N5_2 Cd1_2 1_555 1_555
O5_2 Cd1_2 1_555 1_555
O6_2 Cd1_2 1_555 1_555
C4_2 C11_2 1_555 1_555
C9_2 C16_2 1_555 1_555
C10_2 C14_2 1_555 1_555
O4_2 Cd2 1_555 1_555
N5 C6_3 1_555 1_555
N3_3 N4_3 1_555 1_555
C1_3 H1_3 1_555 1_555
C2_3 H2_3 1_555 1_555
C6_3 C5_3 1_555 1_555
H6_3 C6_3 1_555 1_555
C7_3 N3_3 1_555 1_555
C8_3 C1_3 1_555 1_555
H8_3 C8_3 1_555 1_555
H9_3 C8_3 1_555 1_555
C12_3 C1_3 1_555 1_555
C13_3 N5 1_555 1_555
H14_3 C13_3 1_555 1_555
O5_2 C15_3 1_555 1_555
C15_3 C12_3 1_555 1_555
O6_2 C15_3 1_555 1_555
H16_3 C16_3 1_555 1_555
C2_3 C7_3 1_555 1_555
C2_3 C13_3 1_555 1_555
C5_3 C7_3 1_555 1_555
Cd2 O1_3 1_555 1_555
O1_3 C11_3 1_555 1_555
N2_3 Cd2 1_555 1_555
O2_3 Cd2 1_555 1_555
H3_3 C4_3 1_555 1_555
H4_3 C4_3 1_555 1_555
C9_3 N2_3 1_555 1_555
H10_3 C9_3 1_555 1_555
C10_3 N2_3 1_555 1_555
H11_3 C10_3 1_555 1_555
C11_3 O2_3 1_555 1_555
C14_3 C3_3 1_555 1_555
H15_3 C14_3 1_555 1_555
O7_3 Cd2 1_555 1_555
C4_3 C11_3 1_555 1_555
C10_3 C14_3 1_555 1_555
N5_2 C6_4 1_555 1_555
N3_4 N4_4 1_555 1_555
C1_4 H1_4 1_555 1_555
C2_4 H2_4 1_555 1_555
C6_4 C5_4 1_555 1_555
H6_4 C6_4 1_555 1_555
C7_4 N3_4 1_555 1_555
C8_4 C1_4 1_555 1_555
H7_4 C8_4 1_555 1_555
H8_4 C8_4 1_555 1_555
H9_4 C8_4 1_555 1_555
C12_4 C1_4 1_555 1_555
H13_4 C12_4 1_555 1_555
C13_4 N5_2 1_555 1_555
H14_4 C13_4 1_555 1_555
O5 C15_4 1_555 1_555
C15_4 C12_4 1_555 1_555
O6 C15_4 1_555 1_555
H16_4 C16_4 1_555 1_555
Cd4_4 O6 1_555 1_555
C2_4 C7_4 1_555 1_555
C2_4 C13_4 1_555 1_555
C5_4 C7_4 1_555 1_555
Cd3 O1_4 1_555 1_555
O1_4 C11_4 1_555 1_555
N2_4 Cd3 1_555 1_555
O2_4 Cd3 1_555 1_555
H3_4 C4_4 1_555 1_555
H4_4 C4_4 1_555 1_555
C9_4 N2_4 1_555 1_555
H10_4 C9_4 1_555 1_555
C10_4 N2_4 1_555 1_555
H11_4 C10_4 1_555 1_555
C11_4 O2_4 1_555 1_555
C14_4 C3_4 1_555 1_555
H15_4 C14_4 1_555 1_555
C4_4 C11_4 1_555 1_555
C10_4 C14_4 1_555 1_555
N1_3 C6_5 1_555 1_555
C5_5 H5_5 1_555 1_555
C6_5 C5_5 1_555 1_555
H6_5 C6_5 1_555 1_555
C13_5 N1_3 1_555 1_555
H14_5 C13_5 1_555 1_555
Cd4_4 N1_3 1_555 1_555
C2_5 C7_5 1_555 1_555
C2_5 C13_5 1_555 1_555
C5_5 C7_5 1_555 1_555
Cd4_2 O1_5 1_555 1_555
O1_5 C11_5 1_555 1_555
N2_5 Cd4_2 1_555 1_555
O2_5 Cd4_2 1_555 1_555
N3_5 N4_5 1_555 1_555
C1_5 H1_5 1_555 1_555
C3_5 N4_5 1_555 1_555
C4_5 C1_5 1_555 1_555
H3_5 C4_5 1_555 1_555
H4_5 C4_5 1_555 1_555
C8_5 C1_5 1_555 1_555
H8_5 C8_5 1_555 1_555
H9_5 C8_5 1_555 1_555
C9_5 N2_5 1_555 1_555
H10_5 C9_5 1_555 1_555
C10_5 N2_5 1_555 1_555
H11_5 C10_5 1_555 1_555
C11_5 O2_5 1_555 1_555
C12_5 C1_5 1_555 1_555
H12_5 C12_5 1_555 1_555
C14_5 C3_5 1_555 1_555
H15_5 C14_5 1_555 1_555
O3_3 C15_5 1_555 1_555
C15_5 C12_5 1_555 1_555
O7_2 C15_5 1_555 1_555
C16_5 C3_5 1_555 1_555
H16_5 C16_5 1_555 1_555
Cd4_3 O3_3 1_555 1_555
N5_3 Cd4_2 1_555 1_555
O5_3 Cd4_2 1_555 1_555
O7_3 Cd4_2 1_555 1_555
C4_5 C11_5 1_555 1_555
C9_5 C16_5 1_555 1_555
C10_5 C14_5 1_555 1_555
O7_2 Cd4_3 1_555 1_555
Cd4 O1_6 1_555 1_555
O1_6 C11_6 1_555 1_555
N2_6 Cd4 1_555 1_555
O2_6 Cd4 1_555 1_555
N3_6 N4_6 1_555 1_555
C1_6 H1_6 1_555 1_555
C3_6 N4_6 1_555 1_555
C4_6 C1_6 1_555 1_555
H3_6 C4_6 1_555 1_555
H4_6 C4_6 1_555 1_555
C8_6 C1_6 1_555 1_555
H7_6 C8_6 1_555 1_555
H8_6 C8_6 1_555 1_555
H9_6 C8_6 1_555 1_555
C9_6 N2_6 1_555 1_555
H10_6 C9_6 1_555 1_555
C10_6 N2_6 1_555 1_555
H11_6 C10_6 1_555 1_555
C11_6 O2_6 1_555 1_555
C12_6 C1_6 1_555 1_555
H12_6 C12_6 1_555 1_555
H13_6 C12_6 1_555 1_555
C14_6 C3_6 1_555 1_555
H15_6 C14_6 1_555 1_555
O3_4 C15_6 1_555 1_555
C15_6 C12_6 1_555 1_555
O7 C15_6 1_555 1_555
C16_6 C3_6 1_555 1_555
H16_6 C16_6 1_555 1_555
Cd4_4 O3_4 1_555 1_555
N5_4 Cd4 1_555 1_555
O5_4 Cd4 1_555 1_555
O7_4 Cd4 1_555 1_555
C4_6 C11_6 1_555 1_555
C9_6 C16_6 1_555 1_555
C10_6 C14_6 1_555 1_555
O7 Cd4_4 1_555 1_555
N1_4 C6_6 1_555 1_555
C5_6 H5_6 1_555 1_555
C6_6 C5_6 1_555 1_555
H6_6 C6_6 1_555 1_555
C13_6 N1_4 1_555 1_555
H14_6 C13_6 1_555 1_555
Cd4_3 N1_4 1_555 1_555
C2_6 C7_6 1_555 1_555
C2_6 C13_6 1_555 1_555
C5_6 C7_6 1_555 1_555
Cd4_4 O1_7 1_555 1_555
O1_7 C11_7 1_555 1_555
N2_7 Cd4_4 1_555 1_555
O2_7 Cd4_4 1_555 1_555
H3_7 C4_7 1_555 1_555
H4_7 C4_7 1_555 1_555
C9_7 N2_7 1_555 1_555
H10_7 C9_7 1_555 1_555
C10_7 N2_7 1_555 1_555
H11_7 C10_7 1_555 1_555
C11_7 O2_7 1_555 1_555
C14_7 C3_7 1_555 1_555
H15_7 C14_7 1_555 1_555
C4_7 C11_7 1_555 1_555
C10_7 C14_7 1_555 1_555
N5_3 C6_7 1_555 1_555
N3_7 N4_7 1_555 1_555
C1_7 H1_7 1_555 1_555
C2_7 H2_7 1_555 1_555
C6_7 C5_7 1_555 1_555
H6_7 C6_7 1_555 1_555
C7_7 N3_7 1_555 1_555
C8_7 C1_7 1_555 1_555
H8_7 C8_7 1_555 1_555
H9_7 C8_7 1_555 1_555
C12_7 C1_7 1_555 1_555
C13_7 N5_3 1_555 1_555
H14_7 C13_7 1_555 1_555
O5_4 C15_7 1_555 1_555
C15_7 C12_7 1_555 1_555
O7_4 C15_7 1_555 1_555
H16_7 C16_7 1_555 1_555
C2_7 C7_7 1_555 1_555
C2_7 C13_7 1_555 1_555
C5_7 C7_7 1_555 1_555
Cd4_3 O1_8 1_555 1_555
O1_8 C11_8 1_555 1_555
N2_8 Cd4_3 1_555 1_555
O2_8 Cd4_3 1_555 1_555
H3_8 C4_8 1_555 1_555
H4_8 C4_8 1_555 1_555
C9_8 N2_8 1_555 1_555
H10_8 C9_8 1_555 1_555
C10_8 N2_8 1_555 1_555
H11_8 C10_8 1_555 1_555
C11_8 O2_8 1_555 1_555
C14_8 C3_8 1_555 1_555
H15_8 C14_8 1_555 1_555
C4_8 C11_8 1_555 1_555
C10_8 C14_8 1_555 1_555
N5_4 C6_8 1_555 1_555
N3_8 N4_8 1_555 1_555
C1_8 H1_8 1_555 1_555
C2_8 H2_8 1_555 1_555
C6_8 C5_8 1_555 1_555
H6_8 C6_8 1_555 1_555
C7_8 N3_8 1_555 1_555
C8_8 C1_8 1_555 1_555
H7_8 C8_8 1_555 1_555
H8_8 C8_8 1_555 1_555
H9_8 C8_8 1_555 1_555
C12_8 C1_8 1_555 1_555
H13_8 C12_8 1_555 1_555
C13_8 N5_4 1_555 1_555
H14_8 C13_8 1_555 1_555
O5_3 C15_8 1_555 1_555
C15_8 C12_8 1_555 1_555
O7_3 C15_8 1_555 1_555
H16_8 C16_8 1_555 1_555
C2_8 C7_8 1_555 1_555
C2_8 C13_8 1_555 1_555
C5_8 C7_8 1_555 1_555

#END
