
###############################################################################
#
# This file contains modified crystal structure data generated from the
# MOF subset of the Cambridge Structural Database (CSD) v543 
# hosted by the Cambridge Crystallographic Data Centre (CCDC).
#
# This work is licensed under the Creative Commons
# Attribution-NonCommercial-ShareAlike 4.0 International License.
# To view a copy of this license, visit
# http://creativecommons.org/licenses/by-nc-sa/4.0/
# or send a letter to
# Creative Commons, PO Box 1866, Mountain View, CA 94042, USA.
#
# CIF created using the CSD Python API on 29 September 2022
# The structure has been converted into the P1 space group
# The structure has a 3D framework
# The original CSD entry TEMCUM is in the rhombohedral crystal system
# The framework has been calculated to contain at least 10.0% void space
# The void calculation uses a probe of radius 1.32A, grid spacing 0.4
#
###############################################################################

data_TEMCUM
_chemical_formula_moiety         '(C252 H180 Co27 N18 O144)n'
_symmetry_cell_setting           triclinic
_symmetry_space_group_name_H-M   'P 1'
_symmetry_Int_Tables_number      1
_space_group_name_Hall           'P 1'
loop_
_symmetry_equiv_pos_site_id
_symmetry_equiv_pos_as_xyz
1 x,y,z
_cell_length_a                   33.028(3)
_cell_length_b                   33.028(3)
_cell_length_c                   13.3872(16)
_cell_angle_alpha                90
_cell_angle_beta                 90
_cell_angle_gamma                120
_cell_volume                     12646.9
loop_
_atom_site_label
_atom_site_type_symbol
_atom_site_fract_x
_atom_site_fract_y
_atom_site_fract_z
O7 O 0.34250(18) 0.13465(16) 0.5408(4)
O8 O 0.4175(2) 0.1548(2) 0.5346(6)
N1 N 0.3936(2) 0.0402(2) 0.3741(6)
C9 C 0.3501(3) 0.0104(2) 0.3427(7)
C10 C 0.3136(3) 0.0181(3) 0.3588(6)
C11 C 0.3219(3) 0.0585(3) 0.4106(5)
H9 H 0.297560 0.064604 0.420323
C12 C 0.3648(3) 0.0884(2) 0.4463(6)
C13 C 0.3743(3) 0.1299(3) 0.5141(6)
C14 C 0.4002(3) 0.0789(3) 0.4243(8)
H10 H 0.430306 0.100333 0.445053
Co5 Co 0.333333 0.166666 0.666666
Co6 Co 0.500000 0.000001 -0.000000
Co9 Co 0.45326(5) 0.21099(3) 0.61498(9)
Co6_2 Co 0.500000 0.000001 1.000000
Co7 Co -0.000001 0.500000 -0.000000
Co1 Co 0.166667 0.833333 0.333333
Co2 Co 0.21099(3) 0.75773(4) 0.38502(9)
O1 O 0.22995(14) 0.83074(15) 0.3592(4)
O2 O 0.2506(3) 0.7772(3) 0.5161(5)
H1 H 0.239720 0.771490 0.575162
H2 H 0.280330 0.792800 0.518442
O3 O 0.27241(16) 0.80185(16) 0.3053(4)
O4 O 0.2131(3) 0.6964(2) 0.3890(8)
H3 H 0.213666 0.682233 0.441548
H4 H 0.213676 0.681463 0.337868
O5 O 0.4026(2) 0.89461(19) 0.0772(5)
O6 O 0.44281(16) 0.97231(16) 0.0928(4)
C1 C 0.2666(2) 0.8362(2) 0.3154(5)
C2 C 0.3033(2) 0.8828(2) 0.2803(6)
C3 C 0.3378(2) 0.8860(2) 0.2174(5)
H5 H 0.336773 0.858900 0.194719
C4 C 0.3741(2) 0.9295(2) 0.1875(6)
C5 C 0.4088(2) 0.9321(3) 0.1147(6)
C6 C 0.3781(2) 0.9697(2) 0.2313(5)
H6 H 0.403965 0.998663 0.216636
C7 C 0.3439(2) 0.9671(3) 0.2968(6)
C8 C 0.3065(2) 0.9241(2) 0.3203(5)
H7 H 0.283229 0.922021 0.362681
H8 H 0.283799 0.996889 0.335879
O15 O 0.13465(16) 0.79215(24) 0.4592(4)
O16 O 0.1548(2) 0.7373(3) 0.4654(6)
N2 N 0.0402(2) 0.6466(3) 0.6259(6)
C23 C 0.0104(2) 0.6603(4) 0.6573(7)
C24 C 0.0181(3) 0.7045(4) 0.6412(6)
C25 C 0.0585(3) 0.7366(4) 0.5894(5)
H19 H 0.064604 0.767044 0.579677
C26 C 0.0884(2) 0.7236(4) 0.5537(6)
C27 C 0.1299(3) 0.7556(4) 0.4859(6)
C28 C 0.0789(3) 0.6787(4) 0.5757(8)
H20 H 0.100333 0.670027 0.554947
Co6_3 Co 0.500000 1.000001 -0.000000
Co7_2 Co -0.000001 0.500000 1.000000
O17 O 0.10338(14) 0.83593(15) 0.3075(4)
O19 O 0.17466(28) 0.7359(2) 0.2561(5)
O20 O 0.19617(23) 0.89052(16) 0.4261(4)
O21 O 0.13717(23) 0.77614(16) 0.2405(4)
O22 O 0.19868(16) 0.87452(24) 0.2075(4)
Co6_4 Co 0.500000 1.000001 1.000000
Co10 Co 0.42440(4) 0.88007(5) 0.94831(9)
Co7_3 Co 0.999999 0.500000 -0.000000
Co8 Co 0.88007(5) 0.45568(3) 0.05169(9)
Co3 Co 0.75773(4) 0.54674(5) 0.61498(9)
O9 O 0.83074(15) 0.60079(21) 0.6408(4)
O10 O 0.7772(3) 0.5266(4) 0.4839(5)
H11 H 0.771490 0.531770 0.424838
H12 H 0.792800 0.512470 0.481558
O11 O 0.80185(16) 0.52944(23) 0.6947(4)
O12 O 0.6964(2) 0.4833(4) 0.6110(8)
H13 H 0.682233 0.468567 0.558452
H14 H 0.681463 0.467787 0.662132
O13 O 0.89461(19) 0.49201(28) 0.9228(5)
O14 O 0.97231(16) 0.52950(23) 0.9072(4)
C15 C 0.8362(2) 0.5696(3) 0.6846(5)
C16 C 0.8828(2) 0.5795(3) 0.7197(6)
C17 C 0.8860(2) 0.5482(3) 0.7826(5)
H15 H 0.858900 0.522127 0.805281
C18 C 0.9295(2) 0.5554(3) 0.8125(6)
C19 C 0.9321(3) 0.5233(4) 0.8853(6)
C20 C 0.9697(2) 0.5916(3) 0.7687(5)
H16 H 0.998663 0.594698 0.783364
C21 C 0.9671(3) 0.6232(4) 0.7032(6)
C22 C 0.9241(2) 0.6176(3) 0.6797(5)
H17 H 0.922021 0.638792 0.637319
H18 H 0.996889 0.713090 0.664121
Co4 Co 0.833334 0.666667 0.666666
Co7_4 Co 0.999999 0.500000 1.000000
O18 O 0.7359(2) 0.56128(19) 0.7439(5)
O23 O 0.7373(3) 0.5825(2) 0.5346(6)
Co7_5 Co 0.500000 0.500000 -0.000000
Co8_2 Co 0.54432(3) 0.42440(6) 0.05169(9)
Co1_2 Co 0.166667 0.333334 0.333333
Co2_2 Co 0.24227(4) 0.45326(5) 0.38502(9)
O1_2 O 0.16926(15) 0.39921(21) 0.3592(4)
O2_2 O 0.2228(3) 0.4734(4) 0.5161(5)
H1_2 H 0.228510 0.468230 0.575162
H2_2 H 0.207200 0.487530 0.518442
O3_2 O 0.19815(16) 0.47056(23) 0.3053(4)
O4_2 O 0.3036(2) 0.5167(4) 0.3890(8)
H3_2 H 0.317767 0.531433 0.441548
H4_2 H 0.318537 0.532213 0.337868
O5_2 O 0.10539(19) 0.50799(28) 0.0772(5)
O6_2 O 0.02769(16) 0.47050(23) 0.0928(4)
C1_2 C 0.1638(2) 0.4304(3) 0.3154(5)
C2_2 C 0.1172(2) 0.4205(3) 0.2803(6)
C3_2 C 0.1140(2) 0.4518(3) 0.2174(5)
H5_2 H 0.141100 0.477873 0.194719
C4_2 C 0.0705(2) 0.4446(3) 0.1875(6)
C5_2 C 0.0679(3) 0.4767(4) 0.1147(6)
C6_2 C 0.0303(2) 0.4084(3) 0.2313(5)
H6_2 H 0.001337 0.405302 0.216636
C7_2 C 0.0329(3) 0.3768(4) 0.2968(6)
C8_2 C 0.0759(2) 0.3824(3) 0.3203(5)
H7_2 H 0.077979 0.361208 0.362681
H8_2 H 0.003111 0.286910 0.335879
O9_2 O 0.39921(21) 0.22995(26) 0.6408(4)
O10_2 O 0.4734(4) 0.2506(5) 0.4839(5)
H11_2 H 0.468230 0.239720 0.424838
H12_2 H 0.487530 0.280330 0.481558
O11_2 O 0.47056(23) 0.27241(28) 0.6947(4)
O12_2 O 0.5167(4) 0.2131(4) 0.6110(8)
H13_2 H 0.531433 0.213666 0.558452
H14_2 H 0.532213 0.213676 0.662132
O13_2 O 0.50799(28) 0.40260(34) 0.9228(5)
O14_2 O 0.47050(23) 0.44281(28) 0.9072(4)
O15_2 O 0.20785(24) 0.34250(29) 0.4592(4)
O16_2 O 0.2627(3) 0.4175(4) 0.4654(6)
N2_2 N 0.3534(3) 0.3936(4) 0.6259(6)
C15_2 C 0.4304(3) 0.2666(4) 0.6846(5)
C16_2 C 0.4205(3) 0.3033(4) 0.7197(6)
C17_2 C 0.4518(3) 0.3378(4) 0.7826(5)
H15_2 H 0.477873 0.336773 0.805281
C18_2 C 0.4446(3) 0.3741(4) 0.8125(6)
C19_2 C 0.4767(4) 0.4088(5) 0.8853(6)
C20_2 C 0.4084(3) 0.3781(4) 0.7687(5)
H16_2 H 0.405302 0.403965 0.783364
C21_2 C 0.3768(4) 0.3439(5) 0.7032(6)
C22_2 C 0.3824(3) 0.3065(4) 0.6797(5)
H17_2 H 0.361208 0.283229 0.637319
C23_2 C 0.3397(4) 0.3501(4) 0.6573(7)
C24_2 C 0.2955(4) 0.3136(5) 0.6412(6)
H18_2 H 0.286910 0.283799 0.664121
C25_2 C 0.2634(4) 0.3219(5) 0.5894(5)
H19_2 H 0.232956 0.297560 0.579677
C26_2 C 0.2764(4) 0.3648(4) 0.5537(6)
C27_2 C 0.2444(4) 0.3743(5) 0.4859(6)
C28_2 C 0.3213(4) 0.4002(5) 0.5757(8)
H20_2 H 0.329973 0.430306 0.554947
Co7_6 Co 0.500000 0.500000 1.000000
O17_2 O 0.16407(15) 0.26746(21) 0.3075(4)
O18_2 O 0.43872(19) 0.17466(28) 0.7439(5)
O19_2 O 0.2641(2) 0.43872(34) 0.2561(5)
O20_2 O 0.10948(16) 0.30564(28) 0.4261(4)
O21_2 O 0.22386(16) 0.36102(28) 0.2405(4)
O22_2 O 0.12548(24) 0.32417(29) 0.2075(4)
Co10_2 Co 0.11993(5) 0.54432(6) 0.94831(9)
O7_2 O 0.86535(16) 0.20785(24) 0.5408(4)
O8_2 O 0.8452(2) 0.2627(3) 0.5346(6)
N1_2 N 0.9598(2) 0.3534(3) 0.3741(6)
C9_2 C 0.9896(2) 0.3397(4) 0.3427(7)
C10_2 C 0.9819(3) 0.2955(4) 0.3588(6)
C11_2 C 0.9415(3) 0.2634(4) 0.4106(5)
H9_2 H 0.935396 0.232956 0.420323
C12_2 C 0.9116(2) 0.2764(4) 0.4463(6)
C13_2 C 0.8701(3) 0.2444(4) 0.5141(6)
C14_2 C 0.9211(3) 0.3213(4) 0.4243(8)
H10_2 H 0.899667 0.329973 0.445053
Co5_2 Co 0.833334 0.166666 0.666666
Co9_2 Co 0.78901(3) 0.24227(6) 0.61498(9)
Co8_3 Co 0.57560(6) 0.11993(5) 0.05169(9)
O9_3 O 0.77005(26) 0.16926(15) 0.6408(4)
O10_3 O 0.7494(5) 0.2228(3) 0.4839(5)
H11_3 H 0.760280 0.228510 0.424838
H12_3 H 0.719670 0.207200 0.481558
O11_3 O 0.72759(28) 0.19815(16) 0.6947(4)
O12_3 O 0.7869(4) 0.3036(2) 0.6110(8)
H13_3 H 0.786334 0.317767 0.558452
H14_3 H 0.786324 0.318537 0.662132
O13_3 O 0.59740(34) 0.10539(19) 0.9228(5)
O14_3 O 0.55719(28) 0.02769(16) 0.9072(4)
C15_3 C 0.7334(4) 0.1638(2) 0.6846(5)
C16_3 C 0.6967(4) 0.1172(2) 0.7197(6)
C17_3 C 0.6622(4) 0.1140(2) 0.7826(5)
H15_3 H 0.663227 0.141100 0.805281
C18_3 C 0.6259(4) 0.0705(2) 0.8125(6)
C19_3 C 0.5912(5) 0.0679(3) 0.8853(6)
C20_3 C 0.6219(4) 0.0303(2) 0.7687(5)
H16_3 H 0.596035 0.001337 0.783364
C21_3 C 0.6561(5) 0.0329(3) 0.7032(6)
C22_3 C 0.6935(4) 0.0759(2) 0.6797(5)
H17_3 H 0.716771 0.077979 0.637319
H18_3 H 0.716201 0.003111 0.664121
O18_3 O 0.82534(28) 0.2641(2) 0.7439(5)
Co1_3 Co 0.666666 0.833333 0.333333
Co2_3 Co 0.54674(5) 0.78901(3) 0.38502(9)
O1_3 O 0.60079(21) 0.77005(14) 0.3592(4)
O2_3 O 0.5266(4) 0.7494(3) 0.5161(5)
H1_3 H 0.531770 0.760280 0.575162
H2_3 H 0.512470 0.719670 0.518442
O3_3 O 0.52944(23) 0.72759(16) 0.3053(4)
O4_3 O 0.4833(4) 0.7869(3) 0.3890(8)
H3_3 H 0.468567 0.786334 0.441548
H4_3 H 0.467787 0.786324 0.337868
O5_3 O 0.49201(28) 0.5974(2) 0.0772(5)
O6_3 O 0.52950(23) 0.55719(16) 0.0928(4)
O7_3 O 0.79215(24) 0.65750(18) 0.5408(4)
N1_3 N 0.6466(3) 0.6064(2) 0.3741(6)
C1_3 C 0.5696(3) 0.7334(2) 0.3154(5)
C2_3 C 0.5795(3) 0.6967(2) 0.2803(6)
C3_3 C 0.5482(3) 0.6622(2) 0.2174(5)
H5_3 H 0.522127 0.663227 0.194719
C4_3 C 0.5554(3) 0.6259(2) 0.1875(6)
C5_3 C 0.5233(4) 0.5912(2) 0.1147(6)
C6_3 C 0.5916(3) 0.6219(2) 0.2313(5)
H6_3 H 0.594698 0.596035 0.216636
C7_3 C 0.6232(4) 0.6561(2) 0.2968(6)
C8_3 C 0.6176(3) 0.6935(2) 0.3203(5)
H7_3 H 0.638792 0.716771 0.362681
C9_3 C 0.6603(4) 0.6499(3) 0.3427(7)
C10_3 C 0.7045(4) 0.6864(3) 0.3588(6)
H8_3 H 0.713090 0.716201 0.335879
C11_3 C 0.7366(4) 0.6781(3) 0.4106(5)
H9_3 H 0.767044 0.702440 0.420323
C12_3 C 0.7236(4) 0.6352(3) 0.4463(6)
C13_3 C 0.7556(4) 0.6257(3) 0.5141(6)
C14_3 C 0.6787(4) 0.5998(3) 0.4243(8)
H10_3 H 0.670027 0.569694 0.445053
O15_3 O 0.65750(29) 0.86535(16) 0.4592(4)
O16_3 O 0.5825(4) 0.8452(2) 0.4654(6)
N2_3 N 0.6064(4) 0.9598(2) 0.6259(6)
C23_3 C 0.6499(4) 0.9896(2) 0.6573(7)
C24_3 C 0.6864(5) 0.9819(3) 0.6412(6)
C25_3 C 0.6781(5) 0.9415(3) 0.5894(5)
H19_3 H 0.702440 0.935396 0.579677
C26_3 C 0.6352(4) 0.9116(2) 0.5537(6)
C27_3 C 0.6257(5) 0.8701(3) 0.4859(6)
C28_3 C 0.5998(5) 0.9211(3) 0.5757(8)
H20_3 H 0.569694 0.899667 0.554947
O17_3 O 0.73254(21) 0.89662(14) 0.3075(4)
O19_3 O 0.56128(34) 0.82534(28) 0.2561(5)
O20_3 O 0.69436(28) 0.80383(23) 0.4261(4)
O21_3 O 0.63898(28) 0.86283(23) 0.2405(4)
O22_3 O 0.67583(29) 0.80132(16) 0.2075(4)
Co10_3 Co 0.45568(6) 0.57560(4) 0.94831(9)
O5_4 O 0.0693(2) 0.22794(19) 0.4105(5)
O7_4 O 0.00917(18) 0.46798(16) 0.8741(4)
O8_3 O 0.0842(2) 0.4881(2) 0.8679(6)
N1_4 N 0.0603(2) 0.3735(2) 0.7074(6)
C3_4 C 0.0045(2) 0.2193(2) 0.5507(5)
H5_4 H 0.003440 0.192233 0.528052
C4_4 C 0.0408(2) 0.2628(2) 0.5208(6)
C5_4 C 0.0755(2) 0.2654(3) 0.4480(6)
C6_4 C 0.0448(2) 0.3030(2) 0.5646(5)
H6_4 H 0.070632 0.331996 0.549969
C7_4 C 0.0106(2) 0.3004(3) 0.6301(6)
C9_4 C 0.0168(3) 0.3437(2) 0.6760(7)
C12_4 C 0.0315(3) 0.4217(2) 0.7796(6)
C13_4 C 0.0410(3) 0.4632(3) 0.8474(6)
C14_4 C 0.0669(3) 0.4122(3) 0.7576(8)
H10_4 H 0.096973 0.433666 0.778386
Co10_4 Co 0.09106(4) 0.21341(5) 0.28165(9)
Co2_4 Co 0.87766(3) 0.09106(4) 0.71835(9)
O1_4 O 0.89662(14) 0.16407(15) 0.6925(4)
O2_4 O 0.9173(3) 0.1105(3) 0.8494(5)
H1_4 H 0.906387 0.104823 0.908495
H2_4 H 0.946997 0.126133 0.851775
O3_4 O 0.93908(16) 0.13518(16) 0.6386(4)
O4_4 O 0.8798(3) 0.0297(2) 0.7223(8)
H3_4 H 0.880333 0.015566 0.774881
H4_4 H 0.880343 0.014796 0.671201
C1_4 C 0.9333(2) 0.1695(2) 0.6487(5)
C2_4 C 0.9700(2) 0.2161(2) 0.6136(6)
C8_4 C 0.9732(2) 0.2574(2) 0.6536(5)
H7_4 H 0.949896 0.255354 0.696014
C10_4 C 0.9803(3) 0.3514(3) 0.6921(6)
H8_4 H 0.950466 0.330222 0.669212
C11_4 C 0.9886(3) 0.3918(3) 0.7439(5)
H9_4 H 0.964227 0.397937 0.753656
O15_4 O 0.80132(16) 0.12548(24) 0.7925(4)
O16_4 O 0.8215(2) 0.0706(3) 0.7987(6)
C24_4 C 0.6848(3) 0.0378(4) 0.9745(6)
H18_4 H 0.663556 0.046423 0.997454
C25_4 C 0.7252(3) 0.0699(4) 0.9227(5)
H19_4 H 0.731271 0.100377 0.913010
C26_4 C 0.7551(2) 0.0569(4) 0.8870(6)
C27_4 C 0.7966(3) 0.0889(4) 0.8192(6)
C28_4 C 0.7456(3) 0.0120(4) 0.9090(8)
H20_4 H 0.767000 0.003360 0.888280
O19_4 O 0.84132(28) 0.0693(2) 0.5895(5)
O20_4 O 0.86283(23) 0.22386(16) 0.7595(4)
O21_4 O 0.80383(23) 0.10948(16) 0.5739(4)
O11_4 O 0.46852(16) 0.86277(23) 0.0280(4)
C15_4 C 0.5029(2) 0.9029(3) 0.0179(5)
C16_4 C 0.5495(2) 0.9128(3) 0.0530(6)
C17_4 C 0.5527(2) 0.8815(3) 0.1159(5)
H15_4 H 0.525567 0.855460 0.138614
C18_4 C 0.5962(2) 0.8887(3) 0.1458(6)
C19_4 C 0.5988(3) 0.8566(4) 0.2186(6)
C20_4 C 0.6364(2) 0.9249(3) 0.1020(5)
H16_4 H 0.665330 0.928031 0.116697
C21_4 C 0.6338(3) 0.9565(4) 0.0365(6)
C22_4 C 0.5908(2) 0.9509(3) 0.0130(5)
O9_4 O 0.49741(15) 0.93412(21) 0.9741(4)
O10_4 O 0.4439(3) 0.8599(4) 0.8172(5)
H11_4 H 0.438157 0.865103 0.758171
H12_4 H 0.459467 0.845803 0.814891
O12_4 O 0.3631(2) 0.8166(4) 0.9443(8)
H13_4 H 0.348900 0.801900 0.891785
H14_4 H 0.348130 0.801120 0.995465
N2_4 N 0.7069(2) 0.9799(3) 0.9592(6)
H17_4 H 0.588688 0.972125 0.970652
C23_4 C 0.6771(2) 0.9936(4) 0.9906(7)
O23_2 O 0.4040(3) 0.9158(2) 0.8679(6)
O11_5 O 0.13723(23) 0.60574(28) 0.0280(4)
C15_5 C 0.0971(3) 0.5999(4) 0.0179(5)
C16_5 C 0.0872(3) 0.6366(4) 0.0530(6)
C17_5 C 0.1185(3) 0.6711(4) 0.1159(5)
H15_5 H 0.144540 0.670106 0.138614
C18_5 C 0.1113(3) 0.7074(4) 0.1458(6)
C19_5 C 0.1434(4) 0.7421(5) 0.2186(6)
C20_5 C 0.0751(3) 0.7114(4) 0.1020(5)
H16_5 H 0.071969 0.737298 0.116697
C21_5 C 0.0435(4) 0.6772(5) 0.0365(6)
C22_5 C 0.0491(3) 0.6398(4) 0.0130(5)
O9_5 O 0.06588(21) 0.56328(26) 0.9741(4)
O10_5 O 0.1401(4) 0.5839(5) 0.8172(5)
H11_5 H 0.134897 0.573053 0.758171
H12_5 H 0.154197 0.613663 0.814891
O12_5 O 0.1834(4) 0.5464(4) 0.9443(8)
H13_5 H 0.198100 0.546999 0.891785
H14_5 H 0.198880 0.547009 0.995465
N2_5 N 0.0201(3) 0.7269(4) 0.9592(6)
H17_5 H 0.027875 0.616562 0.970652
C23_5 C 0.0064(4) 0.6834(4) 0.9906(7)
Co2_5 Co 0.90894(4) 0.78659(5) 0.71835(9)
O1_5 O 0.83593(15) 0.73254(21) 0.6925(4)
O2_5 O 0.8895(3) 0.8067(4) 0.8494(5)
H1_5 H 0.895177 0.801563 0.908495
H2_5 H 0.873867 0.820863 0.851775
O3_5 O 0.86482(16) 0.80389(23) 0.6386(4)
O4_5 O 0.9703(2) 0.8500(4) 0.7223(8)
H3_5 H 0.984434 0.864766 0.774881
H4_5 H 0.985204 0.865546 0.671201
O5_5 O 0.77206(19) 0.84132(28) 0.4105(5)
O7_5 O 0.53202(16) 0.54118(24) 0.8741(4)
O8_4 O 0.5119(2) 0.5960(3) 0.8679(6)
N1_5 N 0.6265(2) 0.6867(3) 0.7074(6)
C1_5 C 0.8305(2) 0.7637(3) 0.6487(5)
C2_5 C 0.7839(2) 0.7538(3) 0.6136(6)
C3_5 C 0.7807(2) 0.7851(3) 0.5507(5)
H5_5 H 0.807767 0.811206 0.528052
C4_5 C 0.7372(2) 0.7779(3) 0.5208(6)
C5_5 C 0.7346(3) 0.8100(4) 0.4480(6)
C6_5 C 0.6970(2) 0.7417(3) 0.5646(5)
H6_5 H 0.668004 0.738635 0.549969
C7_5 C 0.6996(3) 0.7101(4) 0.6301(6)
C8_5 C 0.7426(2) 0.7157(3) 0.6536(5)
H7_5 H 0.744646 0.694541 0.696014
C9_5 C 0.6563(2) 0.6730(4) 0.6760(7)
C10_5 C 0.6486(3) 0.6288(4) 0.6921(6)
H8_5 H 0.669778 0.620243 0.669212
C11_5 C 0.6082(3) 0.5967(4) 0.7439(5)
H9_5 H 0.602063 0.566289 0.753656
C12_5 C 0.5783(2) 0.6097(4) 0.7796(6)
C13_5 C 0.5368(3) 0.5777(4) 0.8474(6)
C14_5 C 0.5878(3) 0.6546(4) 0.7576(8)
H10_5 H 0.566334 0.663306 0.778386
O15_5 O 0.87452(24) 0.67583(29) 0.7925(4)
O16_5 O 0.9294(3) 0.7508(4) 0.7987(6)
C24_5 C 0.9622(4) 0.6469(5) 0.9745(6)
H18_5 H 0.953577 0.617132 0.997454
C25_5 C 0.9301(4) 0.6552(5) 0.9227(5)
H19_5 H 0.899623 0.630893 0.913010
C26_5 C 0.9431(4) 0.6981(4) 0.8870(6)
C27_5 C 0.9111(4) 0.7076(5) 0.8192(6)
C28_5 C 0.9880(4) 0.7335(5) 0.9090(8)
H20_5 H 0.996640 0.763639 0.888280
Co10_5 Co 0.78659(5) 0.87766(6) 0.28165(9)
O19_5 O 0.9307(2) 0.77206(34) 0.5895(5)
O20_5 O 0.77614(16) 0.63898(28) 0.7595(4)
O21_5 O 0.89052(16) 0.69436(28) 0.5739(4)
O11_6 O 0.39426(28) 0.53148(16) 0.0280(4)
C15_6 C 0.4001(4) 0.4971(2) 0.0179(5)
C16_6 C 0.3634(4) 0.4505(2) 0.0530(6)
C17_6 C 0.3289(4) 0.4473(2) 0.1159(5)
H15_6 H 0.329894 0.474433 0.138614
C18_6 C 0.2926(4) 0.4038(2) 0.1458(6)
C19_6 C 0.2579(5) 0.4012(3) 0.2186(6)
C20_6 C 0.2886(4) 0.3636(2) 0.1020(5)
H16_6 H 0.262702 0.334670 0.116697
C21_6 C 0.3228(5) 0.3662(3) 0.0365(6)
C22_6 C 0.3602(4) 0.4092(2) 0.0130(5)
Co2_6 Co 0.21341(5) 0.12234(3) 0.71835(9)
O1_6 O 0.26746(21) 0.10338(14) 0.6925(4)
O2_6 O 0.1933(4) 0.0827(3) 0.8494(5)
H1_6 H 0.198437 0.093613 0.908495
H2_6 H 0.179137 0.053003 0.851775
O3_6 O 0.19611(23) 0.06092(16) 0.6386(4)
O4_6 O 0.1500(4) 0.1202(3) 0.7223(8)
H3_6 H 0.135234 0.119667 0.774881
H4_6 H 0.134454 0.119657 0.671201
C1_6 C 0.2363(3) 0.0667(2) 0.6487(5)
C2_6 C 0.2462(3) 0.0300(2) 0.6136(6)
C8_6 C 0.2843(3) 0.0268(2) 0.6536(5)
H7_6 H 0.305459 0.050104 0.696014
C10_6 C 0.3712(4) 0.0197(3) 0.6921(6)
H8_6 H 0.379757 0.049534 0.669212
C11_6 C 0.4033(4) 0.0114(3) 0.7439(5)
H9_6 H 0.433711 0.035773 0.753656
O9_6 O 0.43672(26) 0.50259(15) 0.9741(4)
O10_6 O 0.4161(5) 0.5561(3) 0.8172(5)
H11_6 H 0.426947 0.561843 0.758171
H12_6 H 0.386337 0.540533 0.814891
O12_6 O 0.4536(4) 0.6369(2) 0.9443(8)
H13_6 H 0.453001 0.651100 0.891785
H14_6 H 0.452991 0.651870 0.995465
O15_6 O 0.32417(29) 0.19868(16) 0.7925(4)
O16_6 O 0.2492(4) 0.1785(2) 0.7987(6)
N2_6 N 0.2731(4) 0.2931(2) 0.9592(6)
H17_6 H 0.383438 0.411312 0.970652
C23_6 C 0.3166(4) 0.3229(2) 0.9906(7)
C24_6 C 0.3531(5) 0.3152(3) 0.9745(6)
H18_6 H 0.382868 0.336444 0.997454
C25_6 C 0.3448(5) 0.2748(3) 0.9227(5)
H19_6 H 0.369107 0.268729 0.913010
C26_6 C 0.3019(4) 0.2449(2) 0.8870(6)
C27_6 C 0.2924(5) 0.2034(3) 0.8192(6)
C28_6 C 0.2665(5) 0.2544(3) 0.9090(8)
H20_6 H 0.236361 0.233000 0.888280
O19_6 O 0.22794(34) 0.15868(28) 0.5895(5)
O20_6 O 0.36102(28) 0.13717(23) 0.7595(4)
O21_6 O 0.30564(28) 0.19617(23) 0.5739(4)
O5_6 O 0.15868(28) 0.9307(2) 0.4105(5)
O7_6 O 0.45882(24) 0.99083(18) 0.8741(4)
N1_6 N 0.3133(3) 0.9397(2) 0.7074(6)
C3_6 C 0.2149(3) 0.9955(2) 0.5507(5)
H5_6 H 0.188794 0.996560 0.528052
C4_6 C 0.2221(3) 0.9592(2) 0.5208(6)
C5_6 C 0.1900(4) 0.9245(2) 0.4480(6)
C6_6 C 0.2583(3) 0.9552(2) 0.5646(5)
H6_6 H 0.261365 0.929368 0.549969
C7_6 C 0.2899(4) 0.9894(2) 0.6301(6)
C9_6 C 0.3270(4) 0.9832(3) 0.6760(7)
C12_6 C 0.3903(4) 0.9685(3) 0.7796(6)
C13_6 C 0.4223(4) 0.9590(3) 0.8474(6)
C14_6 C 0.3454(4) 0.9331(3) 0.7576(8)
H10_6 H 0.336694 0.903027 0.778386
Co10_6 Co 0.12234(6) 0.90894(4) 0.28165(9)
O1_7 O 0.56328(14) 0.49741(15) 0.0259(4)
O2_7 O 0.5839(3) 0.4439(3) 0.1828(5)
H1_7 H 0.573053 0.438157 0.241829
H2_7 H 0.613663 0.459467 0.185109
O4_7 O 0.5464(3) 0.3631(2) 0.0557(8)
H3_7 H 0.546999 0.348900 0.108215
H4_7 H 0.547009 0.348130 0.004535
O8_5 O 0.7508(2) 0.8215(2) 0.2013(6)
N1_7 N 0.7269(2) 0.7069(2) 0.0408(6)
H7_7 H 0.616562 0.588688 0.029348
C9_7 C 0.6834(3) 0.6771(2) 0.0094(7)
C10_7 C 0.6469(3) 0.6848(3) 0.0255(6)
H8_7 H 0.617132 0.663556 0.002546
C11_7 C 0.6552(3) 0.7252(3) 0.0773(5)
H9_7 H 0.630893 0.731271 0.086990
C12_7 C 0.6981(3) 0.7551(2) 0.1130(6)
C13_7 C 0.7076(3) 0.7966(3) 0.1808(6)
C14_7 C 0.7335(3) 0.7456(3) 0.0910(8)
H10_7 H 0.763639 0.767000 0.111720
O10_7 O 0.1105(3) 0.1933(4) 0.1506(5)
H11_7 H 0.104823 0.198437 0.091505
H12_7 H 0.126133 0.179137 0.148225
O11_7 O 0.13518(16) 0.19611(23) 0.3614(4)
O12_7 O 0.0297(2) 0.1500(4) 0.2777(8)
H13_7 H 0.015566 0.135234 0.225119
H14_7 H 0.014796 0.134454 0.328799
O15_7 O 0.46798(16) 0.45882(24) 0.1259(4)
O16_7 O 0.4881(2) 0.4040(3) 0.1321(6)
N2_7 N 0.3735(2) 0.3133(3) 0.2926(6)
C15_7 C 0.1695(2) 0.2363(3) 0.3513(5)
C16_7 C 0.2161(2) 0.2462(3) 0.3864(6)
C17_7 C 0.2193(2) 0.2149(3) 0.4493(5)
H15_7 H 0.192233 0.188794 0.471948
C18_7 C 0.2628(2) 0.2221(3) 0.4792(6)
C19_7 C 0.2654(3) 0.1900(4) 0.5520(6)
C20_7 C 0.3030(2) 0.2583(3) 0.4354(5)
H16_7 H 0.331996 0.261365 0.450031
C21_7 C 0.3004(3) 0.2899(4) 0.3699(6)
C22_7 C 0.2574(2) 0.2843(3) 0.3464(5)
H17_7 H 0.255354 0.305459 0.303986
C23_7 C 0.3437(2) 0.3270(4) 0.3240(7)
C24_7 C 0.3514(3) 0.3712(4) 0.3079(6)
H18_7 H 0.330222 0.379757 0.330788
C25_7 C 0.3918(3) 0.4033(4) 0.2561(5)
H19_7 H 0.397937 0.433711 0.246344
C26_7 C 0.4217(2) 0.3903(4) 0.2204(6)
C27_7 C 0.4632(3) 0.4223(4) 0.1526(6)
C28_7 C 0.4122(3) 0.3454(4) 0.2424(8)
H20_7 H 0.433666 0.336694 0.221614
O23_3 O 0.0706(3) 0.2492(2) 0.2013(6)
O3_7 O 0.60574(16) 0.46852(16) 0.9720(4)
C1_7 C 0.5999(2) 0.5029(2) 0.9821(5)
C2_7 C 0.6366(2) 0.5495(2) 0.9470(6)
C3_7 C 0.6711(2) 0.5527(2) 0.8841(5)
H5_7 H 0.670106 0.525567 0.861386
C4_7 C 0.7074(2) 0.5962(2) 0.8542(6)
C5_7 C 0.7421(2) 0.5988(3) 0.7814(6)
C6_7 C 0.7114(2) 0.6364(2) 0.8980(5)
H6_7 H 0.737298 0.665330 0.883303
C7_7 C 0.6772(2) 0.6338(3) 0.9635(6)
C8_7 C 0.6398(2) 0.5908(2) 0.9870(5)
O1_8 O 0.50259(15) 0.06588(21) 0.0259(4)
O2_8 O 0.5561(3) 0.1401(4) 0.1828(5)
H1_8 H 0.561843 0.134897 0.241829
H2_8 H 0.540533 0.154197 0.185109
O4_8 O 0.6369(2) 0.1834(4) 0.0557(8)
H3_8 H 0.651100 0.198100 0.108215
H4_8 H 0.651870 0.198880 0.004535
N1_8 N 0.2931(2) 0.0201(3) 0.0408(6)
H7_8 H 0.411312 0.027875 0.029348
C9_8 C 0.3229(2) 0.0064(4) 0.0094(7)
O15_8 O 0.54118(24) 0.00917(29) 0.1259(4)
O16_8 O 0.5960(3) 0.0842(4) 0.1321(6)
N2_8 N 0.6867(3) 0.0603(4) 0.2926(6)
C17_8 C 0.7851(3) 0.0045(4) 0.4493(5)
H15_8 H 0.811206 0.003440 0.471948
C18_8 C 0.7779(3) 0.0408(4) 0.4792(6)
C19_8 C 0.8100(4) 0.0755(5) 0.5520(6)
C20_8 C 0.7417(3) 0.0448(4) 0.4354(5)
H16_8 H 0.738635 0.070632 0.450031
C21_8 C 0.7101(4) 0.0106(5) 0.3699(6)
C23_8 C 0.6730(4) 0.0168(4) 0.3240(7)
C26_8 C 0.6097(4) 0.0315(4) 0.2204(6)
C27_8 C 0.5777(4) 0.0410(5) 0.1526(6)
C28_8 C 0.6546(4) 0.0669(5) 0.2424(8)
H20_8 H 0.663306 0.096973 0.221614
O3_8 O 0.53148(16) 0.13723(23) 0.9720(4)
C1_8 C 0.4971(2) 0.0971(3) 0.9821(5)
C2_8 C 0.4505(2) 0.0872(3) 0.9470(6)
C3_8 C 0.4473(2) 0.1185(3) 0.8841(5)
H5_8 H 0.474433 0.144540 0.861386
C4_8 C 0.4038(2) 0.1113(3) 0.8542(6)
C5_8 C 0.4012(3) 0.1434(4) 0.7814(6)
C6_8 C 0.3636(2) 0.0751(3) 0.8980(5)
H6_8 H 0.334670 0.071969 0.883303
C7_8 C 0.3662(3) 0.0435(4) 0.9635(6)
C8_8 C 0.4092(2) 0.0491(3) 0.9870(5)
O8_6 O 0.1785(2) 0.9294(3) 0.2013(6)
C10_8 C 0.3152(3) 0.9622(4) 0.0255(6)
H8_8 H 0.336444 0.953577 0.002546
C11_8 C 0.2748(3) 0.9301(4) 0.0773(5)
H9_8 H 0.268729 0.899623 0.086990
C12_8 C 0.2449(2) 0.9431(4) 0.1130(6)
C13_8 C 0.2034(3) 0.9111(4) 0.1808(6)
C14_8 C 0.2544(3) 0.9880(4) 0.0910(8)
H10_8 H 0.233000 0.996640 0.111720
O10_8 O 0.8067(4) 0.9173(5) 0.1506(5)
H11_8 H 0.801563 0.906387 0.091505
H12_8 H 0.820863 0.946997 0.148225
O11_8 O 0.80389(23) 0.93908(28) 0.3614(4)
O12_8 O 0.8500(4) 0.8798(4) 0.2777(8)
H13_8 H 0.864766 0.880333 0.225119
H14_8 H 0.865546 0.880343 0.328799
C15_8 C 0.7637(3) 0.9333(4) 0.3513(5)
C16_8 C 0.7538(3) 0.9700(4) 0.3864(6)
C22_8 C 0.7157(3) 0.9732(4) 0.3464(5)
H17_8 H 0.694541 0.949896 0.303986
C24_8 C 0.6288(4) 0.9803(5) 0.3079(6)
H18_8 H 0.620243 0.950466 0.330788
C25_8 C 0.5967(4) 0.9886(5) 0.2561(5)
H19_8 H 0.566289 0.964227 0.246344
C10_9 C 0.0378(4) 0.3531(3) 0.0255(6)
H8_9 H 0.046423 0.382868 0.002546
C11_9 C 0.0699(4) 0.3448(3) 0.0773(5)
H9_9 H 0.100377 0.369107 0.086990
C12_9 C 0.0569(4) 0.3019(3) 0.1130(6)
C13_9 C 0.0889(4) 0.2924(3) 0.1808(6)
C14_9 C 0.0120(4) 0.2665(3) 0.0910(8)
H10_9 H 0.003360 0.236361 0.111720
O10_9 O 0.0827(5) 0.8895(3) 0.1506(5)
H11_9 H 0.093613 0.895177 0.091505
H12_9 H 0.053003 0.873867 0.148225
O11_9 O 0.06092(28) 0.86482(16) 0.3614(4)
O12_9 O 0.1202(4) 0.9703(2) 0.2777(8)
H13_9 H 0.119667 0.984434 0.225119
H14_9 H 0.119657 0.985204 0.328799
C15_9 C 0.0667(4) 0.8305(2) 0.3513(5)
C16_9 C 0.0300(4) 0.7839(2) 0.3864(6)
C22_9 C 0.0268(4) 0.7426(2) 0.3464(5)
H17_9 H 0.050104 0.744646 0.303986
C24_9 C 0.0197(5) 0.6486(3) 0.3079(6)
H18_9 H 0.049534 0.669778 0.330788
C25_9 C 0.0114(5) 0.6082(3) 0.2561(5)
H19_9 H 0.035773 0.602063 0.246344
O1_9 O 0.93412(21) 0.43672(14) 0.0259(4)
O2_9 O 0.8599(4) 0.4161(3) 0.1828(5)
H1_9 H 0.865103 0.426947 0.241829
H2_9 H 0.845803 0.386337 0.185109
O4_9 O 0.8166(4) 0.4536(3) 0.0557(8)
H3_9 H 0.801900 0.453001 0.108215
H4_9 H 0.801120 0.452991 0.004535
N1_9 N 0.9799(3) 0.2731(2) 0.0408(6)
H7_9 H 0.972125 0.383438 0.029348
C9_9 C 0.9936(4) 0.3166(3) 0.0094(7)
O15_9 O 0.99083(29) 0.53202(16) 0.1259(4)
O16_9 O 0.9158(4) 0.5119(2) 0.1321(6)
N2_9 N 0.9397(4) 0.6265(2) 0.2926(6)
C17_9 C 0.9955(4) 0.7807(2) 0.4493(5)
H15_9 H 0.996560 0.807767 0.471948
C18_9 C 0.9592(4) 0.7372(2) 0.4792(6)
C19_9 C 0.9245(5) 0.7346(3) 0.5520(6)
C20_9 C 0.9552(4) 0.6970(2) 0.4354(5)
H16_9 H 0.929368 0.668004 0.450031
C21_9 C 0.9894(5) 0.6996(3) 0.3699(6)
C23_9 C 0.9832(4) 0.6563(2) 0.3240(7)
C26_9 C 0.9685(4) 0.5783(2) 0.2204(6)
C27_9 C 0.9590(5) 0.5368(3) 0.1526(6)
C28_9 C 0.9331(5) 0.5878(3) 0.2424(8)
H20_9 H 0.903027 0.566334 0.221614
O3_9 O 0.86277(23) 0.39426(16) 0.9720(4)
C1_9 C 0.9029(3) 0.4001(2) 0.9821(5)
C2_9 C 0.9128(3) 0.3634(2) 0.9470(6)
C3_9 C 0.8815(3) 0.3289(2) 0.8841(5)
H5_9 H 0.855460 0.329894 0.861386
C4_9 C 0.8887(3) 0.2926(2) 0.8542(6)
C5_9 C 0.8566(4) 0.2579(2) 0.7814(6)
C6_9 C 0.9249(3) 0.2886(2) 0.8980(5)
H6_9 H 0.928031 0.262702 0.883303
C7_9 C 0.9565(4) 0.3228(2) 0.9635(6)
C8_9 C 0.9509(3) 0.3602(2) 0.9870(5)
loop_
_geom_bond_atom_site_label_1
_geom_bond_atom_site_label_2
_geom_bond_site_symmetry_1
_geom_bond_site_symmetry_2
O7 C13 1_555 1_555
O8 C13 1_555 1_555
N1 C9 1_555 1_555
C10 C9 1_555 1_555
C11 C10 1_555 1_555
H9 C11 1_555 1_555
C12 C11 1_555 1_555
C13 C12 1_555 1_555
C14 N1 1_555 1_555
H10 C14 1_555 1_555
Co5 O7 1_555 1_555
Co9 O8 1_555 1_555
C12 C14 1_555 1_555
Co1 O1 1_555 1_555
Co2 O1 1_555 1_555
O1 C1 1_555 1_555
O2 Co2 1_555 1_555
H1 O2 1_555 1_555
H2 O2 1_555 1_555
O3 Co2 1_555 1_555
O4 Co2 1_555 1_555
H3 O4 1_555 1_555
H4 O4 1_555 1_555
O5 C5 1_555 1_555
O6 C5 1_555 1_555
C1 O3 1_555 1_555
C2 C1 1_555 1_555
C3 C2 1_555 1_555
H5 C3 1_555 1_555
C4 C3 1_555 1_555
C5 C4 1_555 1_555
C6 C4 1_555 1_555
H6 C6 1_555 1_555
C7 C6 1_555 1_555
C8 C2 1_555 1_555
H7 C8 1_555 1_555
O15 Co1 1_555 1_555
O16 Co2 1_555 1_555
N2 C23 1_555 1_555
C24 C23 1_555 1_555
C25 C24 1_555 1_555
H19 C25 1_555 1_555
C26 C25 1_555 1_555
C27 O15 1_555 1_555
C28 N2 1_555 1_555
H20 C28 1_555 1_555
Co6_3 O6 1_555 1_555
O17 Co1 1_555 1_555
O19 Co2 1_555 1_555
O20 Co1 1_555 1_555
O21 Co1 1_555 1_555
O22 Co1 1_555 1_555
C7 C8 1_555 1_555
O16 C27 1_555 1_555
C26 C27 1_555 1_555
C26 C28 1_555 1_555
Co3 O9 1_555 1_555
O9 C15 1_555 1_555
O10 Co3 1_555 1_555
H11 O10 1_555 1_555
H12 O10 1_555 1_555
O11 Co3 1_555 1_555
O12 Co3 1_555 1_555
H13 O12 1_555 1_555
H14 O12 1_555 1_555
O13 C19 1_555 1_555
O14 C19 1_555 1_555
C15 O11 1_555 1_555
C16 C15 1_555 1_555
C17 C16 1_555 1_555
H15 C17 1_555 1_555
C18 C17 1_555 1_555
C19 C18 1_555 1_555
C20 C18 1_555 1_555
H16 C20 1_555 1_555
C21 C20 1_555 1_555
C22 C16 1_555 1_555
H17 C22 1_555 1_555
Co4 O9 1_555 1_555
Co7_4 O14 1_555 1_555
O18 Co3 1_555 1_555
O23 Co3 1_555 1_555
C21 C22 1_555 1_555
Co1_2 O1_2 1_555 1_555
Co2_2 O1_2 1_555 1_555
O1_2 C1_2 1_555 1_555
O2_2 Co2_2 1_555 1_555
H1_2 O2_2 1_555 1_555
H2_2 O2_2 1_555 1_555
O3_2 Co2_2 1_555 1_555
O4_2 Co2_2 1_555 1_555
H3_2 O4_2 1_555 1_555
H4_2 O4_2 1_555 1_555
O5_2 C5_2 1_555 1_555
O6_2 C5_2 1_555 1_555
C1_2 O3_2 1_555 1_555
C2_2 C1_2 1_555 1_555
C3_2 C2_2 1_555 1_555
H5_2 C3_2 1_555 1_555
C4_2 C3_2 1_555 1_555
C5_2 C4_2 1_555 1_555
C6_2 C4_2 1_555 1_555
H6_2 C6_2 1_555 1_555
C7_2 C6_2 1_555 1_555
C8_2 C2_2 1_555 1_555
H7_2 C8_2 1_555 1_555
Co9 O9_2 1_555 1_555
O9_2 C15_2 1_555 1_555
O10_2 Co9 1_555 1_555
H11_2 O10_2 1_555 1_555
H12_2 O10_2 1_555 1_555
O11_2 Co9 1_555 1_555
O12_2 Co9 1_555 1_555
H13_2 O12_2 1_555 1_555
H14_2 O12_2 1_555 1_555
O13_2 C19_2 1_555 1_555
O14_2 C19_2 1_555 1_555
O15_2 Co1_2 1_555 1_555
O16_2 Co2_2 1_555 1_555
N2_2 C23_2 1_555 1_555
C15_2 O11_2 1_555 1_555
C16_2 C15_2 1_555 1_555
C17_2 C16_2 1_555 1_555
H15_2 C17_2 1_555 1_555
C18_2 C17_2 1_555 1_555
C19_2 C18_2 1_555 1_555
C20_2 C18_2 1_555 1_555
H16_2 C20_2 1_555 1_555
C21_2 C20_2 1_555 1_555
C22_2 C16_2 1_555 1_555
H17_2 C22_2 1_555 1_555
C23_2 C21_2 1_555 1_555
C24_2 C23_2 1_555 1_555
H18_2 C24_2 1_555 1_555
C25_2 C24_2 1_555 1_555
H19_2 C25_2 1_555 1_555
C26_2 C25_2 1_555 1_555
C27_2 O15_2 1_555 1_555
C28_2 N2_2 1_555 1_555
H20_2 C28_2 1_555 1_555
Co5 O9_2 1_555 1_555
Co7 O6_2 1_555 1_555
Co7_6 O14_2 1_555 1_555
O17_2 Co1_2 1_555 1_555
O18_2 Co9 1_555 1_555
O19_2 Co2_2 1_555 1_555
O20_2 Co1_2 1_555 1_555
O21_2 Co1_2 1_555 1_555
O22_2 Co1_2 1_555 1_555
C7_2 C8_2 1_555 1_555
O16_2 C27_2 1_555 1_555
C21_2 C22_2 1_555 1_555
C26_2 C27_2 1_555 1_555
C26_2 C28_2 1_555 1_555
O7_2 C13_2 1_555 1_555
O8_2 C13_2 1_555 1_555
N1_2 C9_2 1_555 1_555
C10_2 C9_2 1_555 1_555
C11_2 C10_2 1_555 1_555
H9_2 C11_2 1_555 1_555
C12_2 C11_2 1_555 1_555
C13_2 C12_2 1_555 1_555
C14_2 N1_2 1_555 1_555
H10_2 C14_2 1_555 1_555
Co5_2 O7_2 1_555 1_555
Co9_2 O8_2 1_555 1_555
C12_2 C14_2 1_555 1_555
Co9_2 O9_3 1_555 1_555
O9_3 C15_3 1_555 1_555
O10_3 Co9_2 1_555 1_555
H11_3 O10_3 1_555 1_555
H12_3 O10_3 1_555 1_555
O11_3 Co9_2 1_555 1_555
O12_3 Co9_2 1_555 1_555
H13_3 O12_3 1_555 1_555
H14_3 O12_3 1_555 1_555
O13_3 C19_3 1_555 1_555
O14_3 C19_3 1_555 1_555
C15_3 O11_3 1_555 1_555
C16_3 C15_3 1_555 1_555
C17_3 C16_3 1_555 1_555
H15_3 C17_3 1_555 1_555
C18_3 C17_3 1_555 1_555
C19_3 C18_3 1_555 1_555
C20_3 C18_3 1_555 1_555
H16_3 C20_3 1_555 1_555
C21_3 C20_3 1_555 1_555
C22_3 C16_3 1_555 1_555
H17_3 C22_3 1_555 1_555
Co5_2 O9_3 1_555 1_555
Co6_2 O14_3 1_555 1_555
O18_3 Co9_2 1_555 1_555
C21_3 C22_3 1_555 1_555
Co1_3 O1_3 1_555 1_555
Co2_3 O1_3 1_555 1_555
O1_3 C1_3 1_555 1_555
O2_3 Co2_3 1_555 1_555
H1_3 O2_3 1_555 1_555
H2_3 O2_3 1_555 1_555
O3_3 Co2_3 1_555 1_555
O4_3 Co2_3 1_555 1_555
H3_3 O4_3 1_555 1_555
H4_3 O4_3 1_555 1_555
O5_3 C5_3 1_555 1_555
O6_3 C5_3 1_555 1_555
O7_3 C13_3 1_555 1_555
O23 C13_3 1_555 1_555
N1_3 C9_3 1_555 1_555
C1_3 O3_3 1_555 1_555
C2_3 C1_3 1_555 1_555
C3_3 C2_3 1_555 1_555
H5_3 C3_3 1_555 1_555
C4_3 C3_3 1_555 1_555
C5_3 C4_3 1_555 1_555
C6_3 C4_3 1_555 1_555
H6_3 C6_3 1_555 1_555
C7_3 C6_3 1_555 1_555
C8_3 C2_3 1_555 1_555
H7_3 C8_3 1_555 1_555
C9_3 C7_3 1_555 1_555
C10_3 C9_3 1_555 1_555
H8_3 C10_3 1_555 1_555
C11_3 C10_3 1_555 1_555
H9_3 C11_3 1_555 1_555
C12_3 C11_3 1_555 1_555
C13_3 C12_3 1_555 1_555
C14_3 N1_3 1_555 1_555
H10_3 C14_3 1_555 1_555
O15_3 Co1_3 1_555 1_555
O16_3 Co2_3 1_555 1_555
N2_3 C23_3 1_555 1_555
C24_3 C23_3 1_555 1_555
C25_3 C24_3 1_555 1_555
H19_3 C25_3 1_555 1_555
C26_3 C25_3 1_555 1_555
C27_3 O15_3 1_555 1_555
C28_3 N2_3 1_555 1_555
H20_3 C28_3 1_555 1_555
Co4 O7_3 1_555 1_555
Co7_5 O6_3 1_555 1_555
O17_3 Co1_3 1_555 1_555
O19_3 Co2_3 1_555 1_555
O20_3 Co1_3 1_555 1_555
O21_3 Co1_3 1_555 1_555
O22_3 Co1_3 1_555 1_555
C7_3 C8_3 1_555 1_555
C12_3 C14_3 1_555 1_555
O16_3 C27_3 1_555 1_555
C26_3 C27_3 1_555 1_555
C26_3 C28_3 1_555 1_555
O5_4 C5_4 1_555 1_555
O20_2 C5_4 1_555 1_555
O7_4 C13_4 1_555 1_555
O8_3 C13_4 1_555 1_555
N1_4 C9_4 1_555 1_555
H5_4 C3_4 1_555 1_555
C4_4 C3_4 1_555 1_555
C5_4 C4_4 1_555 1_555
C6_4 C4_4 1_555 1_555
H6_4 C6_4 1_555 1_555
C7_4 C6_4 1_555 1_555
C9_4 C7_4 1_555 1_555
C13_4 C12_4 1_555 1_555
C14_4 N1_4 1_555 1_555
H10_4 C14_4 1_555 1_555
Co7_2 O7_4 1_555 1_555
Co10_2 O8_3 1_555 1_555
Co10_4 O5_4 1_555 1_555
C12_4 C14_4 1_555 1_555
Co5_2 O1_4 1_555 1_555
Co2_4 O1_4 1_555 1_555
O1_4 C1_4 1_555 1_555
O2_4 Co2_4 1_555 1_555
H1_4 O2_4 1_555 1_555
H2_4 O2_4 1_555 1_555
O3_4 Co2_4 1_555 1_555
O4_4 Co2_4 1_555 1_555
H3_4 O4_4 1_555 1_555
H4_4 O4_4 1_555 1_555
C1_4 O3_4 1_555 1_555
C2_4 C1_4 1_555 1_555
C8_4 C2_4 1_555 1_555
H7_4 C8_4 1_555 1_555
H8_4 C10_4 1_555 1_555
C11_4 C10_4 1_555 1_555
H9_4 C11_4 1_555 1_555
O15_4 Co5_2 1_555 1_555
O16_4 Co2_4 1_555 1_555
H18_4 C24_4 1_555 1_555
C25_4 C24_4 1_555 1_555
H19_4 C25_4 1_555 1_555
C26_4 C25_4 1_555 1_555
C27_4 O15_4 1_555 1_555
H20_4 C28_4 1_555 1_555
O19_4 Co2_4 1_555 1_555
O20_4 Co5_2 1_555 1_555
O21_4 Co5_2 1_555 1_555
O16_4 C27_4 1_555 1_555
C26_4 C27_4 1_555 1_555
C26_4 C28_4 1_555 1_555
O19_3 C19_4 1_555 1_555
O21_3 C19_4 1_555 1_555
C15_4 O11_4 1_555 1_555
C16_4 C15_4 1_555 1_555
C17_4 C16_4 1_555 1_555
H15_4 C17_4 1_555 1_555
C18_4 C17_4 1_555 1_555
C19_4 C18_4 1_555 1_555
C20_4 C18_4 1_555 1_555
H16_4 C20_4 1_555 1_555
C21_4 C20_4 1_555 1_555
C22_4 C16_4 1_555 1_555
C21_4 C22_4 1_555 1_555
Co10 O9_4 1_555 1_555
O10_4 Co10 1_555 1_555
H11_4 O10_4 1_555 1_555
H12_4 O10_4 1_555 1_555
O12_4 Co10 1_555 1_555
H13_4 O12_4 1_555 1_555
H14_4 O12_4 1_555 1_555
N2_4 C23_4 1_555 1_555
Co6_4 O9_4 1_555 1_555
O23_2 Co10 1_555 1_555
O19 C19_5 1_555 1_555
O21 C19_5 1_555 1_555
C15_5 O11_5 1_555 1_555
C16_5 C15_5 1_555 1_555
C17_5 C16_5 1_555 1_555
H15_5 C17_5 1_555 1_555
C18_5 C17_5 1_555 1_555
C19_5 C18_5 1_555 1_555
C20_5 C18_5 1_555 1_555
H16_5 C20_5 1_555 1_555
C21_5 C20_5 1_555 1_555
C22_5 C16_5 1_555 1_555
C21_5 C22_5 1_555 1_555
Co10_2 O9_5 1_555 1_555
O10_5 Co10_2 1_555 1_555
H11_5 O10_5 1_555 1_555
H12_5 O10_5 1_555 1_555
O12_5 Co10_2 1_555 1_555
H13_5 O12_5 1_555 1_555
H14_5 O12_5 1_555 1_555
N2_5 C23_5 1_555 1_555
Co7_2 O9_5 1_555 1_555
Co4 O1_5 1_555 1_555
Co2_5 O1_5 1_555 1_555
O1_5 C1_5 1_555 1_555
O2_5 Co2_5 1_555 1_555
H1_5 O2_5 1_555 1_555
H2_5 O2_5 1_555 1_555
O3_5 Co2_5 1_555 1_555
O4_5 Co2_5 1_555 1_555
H3_5 O4_5 1_555 1_555
H4_5 O4_5 1_555 1_555
O5_5 C5_5 1_555 1_555
O20_3 C5_5 1_555 1_555
O7_5 C13_5 1_555 1_555
O8_4 C13_5 1_555 1_555
N1_5 C9_5 1_555 1_555
C1_5 O3_5 1_555 1_555
C2_5 C1_5 1_555 1_555
C3_5 C2_5 1_555 1_555
H5_5 C3_5 1_555 1_555
C4_5 C3_5 1_555 1_555
C5_5 C4_5 1_555 1_555
C6_5 C4_5 1_555 1_555
H6_5 C6_5 1_555 1_555
C7_5 C6_5 1_555 1_555
C8_5 C2_5 1_555 1_555
H7_5 C8_5 1_555 1_555
C9_5 C7_5 1_555 1_555
C10_5 C9_5 1_555 1_555
H8_5 C10_5 1_555 1_555
C11_5 C10_5 1_555 1_555
H9_5 C11_5 1_555 1_555
C12_5 C11_5 1_555 1_555
C13_5 C12_5 1_555 1_555
C14_5 N1_5 1_555 1_555
H10_5 C14_5 1_555 1_555
O15_5 Co4 1_555 1_555
O16_5 Co2_5 1_555 1_555
H18_5 C24_5 1_555 1_555
C25_5 C24_5 1_555 1_555
H19_5 C25_5 1_555 1_555
C26_5 C25_5 1_555 1_555
C27_5 O15_5 1_555 1_555
H20_5 C28_5 1_555 1_555
Co7_6 O7_5 1_555 1_555
Co10_3 O8_4 1_555 1_555
Co10_5 O5_5 1_555 1_555
O19_5 Co2_5 1_555 1_555
O20_5 Co4 1_555 1_555
O21_5 Co4 1_555 1_555
C7_5 C8_5 1_555 1_555
C12_5 C14_5 1_555 1_555
O16_5 C27_5 1_555 1_555
C26_5 C27_5 1_555 1_555
C26_5 C28_5 1_555 1_555
O19_2 C19_6 1_555 1_555
O21_2 C19_6 1_555 1_555
C15_6 O11_6 1_555 1_555
C16_6 C15_6 1_555 1_555
C17_6 C16_6 1_555 1_555
H15_6 C17_6 1_555 1_555
C18_6 C17_6 1_555 1_555
C19_6 C18_6 1_555 1_555
C20_6 C18_6 1_555 1_555
H16_6 C20_6 1_555 1_555
C21_6 C20_6 1_555 1_555
C22_6 C16_6 1_555 1_555
C21_6 C22_6 1_555 1_555
Co5 O1_6 1_555 1_555
Co2_6 O1_6 1_555 1_555
O1_6 C1_6 1_555 1_555
O2_6 Co2_6 1_555 1_555
H1_6 O2_6 1_555 1_555
H2_6 O2_6 1_555 1_555
O3_6 Co2_6 1_555 1_555
O4_6 Co2_6 1_555 1_555
H3_6 O4_6 1_555 1_555
H4_6 O4_6 1_555 1_555
C1_6 O3_6 1_555 1_555
C2_6 C1_6 1_555 1_555
C8_6 C2_6 1_555 1_555
H7_6 C8_6 1_555 1_555
H8_6 C10_6 1_555 1_555
C11_6 C10_6 1_555 1_555
H9_6 C11_6 1_555 1_555
Co10_3 O9_6 1_555 1_555
O10_6 Co10_3 1_555 1_555
H11_6 O10_6 1_555 1_555
H12_6 O10_6 1_555 1_555
O12_6 Co10_3 1_555 1_555
H13_6 O12_6 1_555 1_555
H14_6 O12_6 1_555 1_555
O15_6 Co5 1_555 1_555
O16_6 Co2_6 1_555 1_555
N2_6 C23_6 1_555 1_555
C24_6 C23_6 1_555 1_555
H18_6 C24_6 1_555 1_555
C25_6 C24_6 1_555 1_555
H19_6 C25_6 1_555 1_555
C26_6 C25_6 1_555 1_555
C27_6 O15_6 1_555 1_555
C28_6 N2_6 1_555 1_555
H20_6 C28_6 1_555 1_555
Co7_6 O9_6 1_555 1_555
O19_6 Co2_6 1_555 1_555
O20_6 Co5 1_555 1_555
O21_6 Co5 1_555 1_555
O16_6 C27_6 1_555 1_555
C26_6 C27_6 1_555 1_555
C26_6 C28_6 1_555 1_555
O5_6 C5_6 1_555 1_555
O20 C5_6 1_555 1_555
O7_6 C13_6 1_555 1_555
O23_2 C13_6 1_555 1_555
N1_6 C9_6 1_555 1_555
H5_6 C3_6 1_555 1_555
C4_6 C3_6 1_555 1_555
C5_6 C4_6 1_555 1_555
C6_6 C4_6 1_555 1_555
H6_6 C6_6 1_555 1_555
C7_6 C6_6 1_555 1_555
C9_6 C7_6 1_555 1_555
C13_6 C12_6 1_555 1_555
C14_6 N1_6 1_555 1_555
H10_6 C14_6 1_555 1_555
Co6_4 O7_6 1_555 1_555
Co10_6 O5_6 1_555 1_555
C12_6 C14_6 1_555 1_555
Co7_5 O1_7 1_555 1_555
Co8_2 O1_7 1_555 1_555
O2_7 Co8_2 1_555 1_555
H1_7 O2_7 1_555 1_555
H2_7 O2_7 1_555 1_555
O4_7 Co8_2 1_555 1_555
H3_7 O4_7 1_555 1_555
H4_7 O4_7 1_555 1_555
O22_3 C13_7 1_555 1_555
O8_5 C13_7 1_555 1_555
N1_7 C9_7 1_555 1_555
C10_7 C9_7 1_555 1_555
H8_7 C10_7 1_555 1_555
C11_7 C10_7 1_555 1_555
H9_7 C11_7 1_555 1_555
C12_7 C11_7 1_555 1_555
C13_7 C12_7 1_555 1_555
C14_7 N1_7 1_555 1_555
H10_7 C14_7 1_555 1_555
Co10_4 O17_2 1_555 1_555
O17_2 C15_7 1_555 1_555
O10_7 Co10_4 1_555 1_555
H11_7 O10_7 1_555 1_555
H12_7 O10_7 1_555 1_555
O11_7 Co10_4 1_555 1_555
O12_7 Co10_4 1_555 1_555
H13_7 O12_7 1_555 1_555
H14_7 O12_7 1_555 1_555
O19_6 C19_7 1_555 1_555
O21_6 C19_7 1_555 1_555
O15_7 Co7_5 1_555 1_555
O16_7 Co8_2 1_555 1_555
N2_7 C23_7 1_555 1_555
C15_7 O11_7 1_555 1_555
C16_7 C15_7 1_555 1_555
C17_7 C16_7 1_555 1_555
H15_7 C17_7 1_555 1_555
C18_7 C17_7 1_555 1_555
C19_7 C18_7 1_555 1_555
C20_7 C18_7 1_555 1_555
H16_7 C20_7 1_555 1_555
C21_7 C20_7 1_555 1_555
C22_7 C16_7 1_555 1_555
H17_7 C22_7 1_555 1_555
C23_7 C21_7 1_555 1_555
C24_7 C23_7 1_555 1_555
H18_7 C24_7 1_555 1_555
C25_7 C24_7 1_555 1_555
H19_7 C25_7 1_555 1_555
C26_7 C25_7 1_555 1_555
C27_7 O15_7 1_555 1_555
C28_7 N2_7 1_555 1_555
H20_7 C28_7 1_555 1_555
Co10_5 O8_5 1_555 1_555
O23_3 Co10_4 1_555 1_555
C12_7 C14_7 1_555 1_555
O16_7 C27_7 1_555 1_555
C21_7 C22_7 1_555 1_555
C26_7 C27_7 1_555 1_555
C26_7 C28_7 1_555 1_555
O18 C5_7 1_555 1_555
O20_5 C5_7 1_555 1_555
C1_7 O3_7 1_555 1_555
C2_7 C1_7 1_555 1_555
C3_7 C2_7 1_555 1_555
H5_7 C3_7 1_555 1_555
C4_7 C3_7 1_555 1_555
C5_7 C4_7 1_555 1_555
C6_7 C4_7 1_555 1_555
H6_7 C6_7 1_555 1_555
C7_7 C6_7 1_555 1_555
C8_7 C2_7 1_555 1_555
C7_7 C8_7 1_555 1_555
Co6 O1_8 1_555 1_555
Co8_3 O1_8 1_555 1_555
O2_8 Co8_3 1_555 1_555
H1_8 O2_8 1_555 1_555
H2_8 O2_8 1_555 1_555
O4_8 Co8_3 1_555 1_555
H3_8 O4_8 1_555 1_555
H4_8 O4_8 1_555 1_555
N1_8 C9_8 1_555 1_555
O19_4 C19_8 1_555 1_555
O21_4 C19_8 1_555 1_555
O15_8 Co6 1_555 1_555
O16_8 Co8_3 1_555 1_555
N2_8 C23_8 1_555 1_555
H15_8 C17_8 1_555 1_555
C18_8 C17_8 1_555 1_555
C19_8 C18_8 1_555 1_555
C20_8 C18_8 1_555 1_555
H16_8 C20_8 1_555 1_555
C21_8 C20_8 1_555 1_555
C23_8 C21_8 1_555 1_555
C27_8 O15_8 1_555 1_555
C28_8 N2_8 1_555 1_555
H20_8 C28_8 1_555 1_555
O16_8 C27_8 1_555 1_555
C26_8 C27_8 1_555 1_555
C26_8 C28_8 1_555 1_555
O18_2 C5_8 1_555 1_555
O20_6 C5_8 1_555 1_555
C1_8 O3_8 1_555 1_555
C2_8 C1_8 1_555 1_555
C3_8 C2_8 1_555 1_555
H5_8 C3_8 1_555 1_555
C4_8 C3_8 1_555 1_555
C5_8 C4_8 1_555 1_555
C6_8 C4_8 1_555 1_555
H6_8 C6_8 1_555 1_555
C7_8 C6_8 1_555 1_555
C8_8 C2_8 1_555 1_555
C7_8 C8_8 1_555 1_555
O22 C13_8 1_555 1_555
O8_6 C13_8 1_555 1_555
H8_8 C10_8 1_555 1_555
C11_8 C10_8 1_555 1_555
H9_8 C11_8 1_555 1_555
C12_8 C11_8 1_555 1_555
C13_8 C12_8 1_555 1_555
H10_8 C14_8 1_555 1_555
Co10_5 O17_3 1_555 1_555
O17_3 C15_8 1_555 1_555
O10_8 Co10_5 1_555 1_555
H11_8 O10_8 1_555 1_555
H12_8 O10_8 1_555 1_555
O11_8 Co10_5 1_555 1_555
O12_8 Co10_5 1_555 1_555
H13_8 O12_8 1_555 1_555
H14_8 O12_8 1_555 1_555
C15_8 O11_8 1_555 1_555
C16_8 C15_8 1_555 1_555
C22_8 C16_8 1_555 1_555
H17_8 C22_8 1_555 1_555
H18_8 C24_8 1_555 1_555
C25_8 C24_8 1_555 1_555
H19_8 C25_8 1_555 1_555
Co10_6 O8_6 1_555 1_555
C12_8 C14_8 1_555 1_555
O22_2 C13_9 1_555 1_555
O23_3 C13_9 1_555 1_555
H8_9 C10_9 1_555 1_555
C11_9 C10_9 1_555 1_555
H9_9 C11_9 1_555 1_555
C12_9 C11_9 1_555 1_555
C13_9 C12_9 1_555 1_555
H10_9 C14_9 1_555 1_555
Co10_6 O17 1_555 1_555
O17 C15_9 1_555 1_555
O10_9 Co10_6 1_555 1_555
H11_9 O10_9 1_555 1_555
H12_9 O10_9 1_555 1_555
O11_9 Co10_6 1_555 1_555
O12_9 Co10_6 1_555 1_555
H13_9 O12_9 1_555 1_555
H14_9 O12_9 1_555 1_555
C15_9 O11_9 1_555 1_555
C16_9 C15_9 1_555 1_555
C22_9 C16_9 1_555 1_555
H17_9 C22_9 1_555 1_555
H18_9 C24_9 1_555 1_555
C25_9 C24_9 1_555 1_555
H19_9 C25_9 1_555 1_555
C12_9 C14_9 1_555 1_555
Co7_3 O1_9 1_555 1_555
Co8 O1_9 1_555 1_555
O2_9 Co8 1_555 1_555
H1_9 O2_9 1_555 1_555
H2_9 O2_9 1_555 1_555
O4_9 Co8 1_555 1_555
H3_9 O4_9 1_555 1_555
H4_9 O4_9 1_555 1_555
N1_9 C9_9 1_555 1_555
O19_5 C19_9 1_555 1_555
O21_5 C19_9 1_555 1_555
O15_9 Co7_3 1_555 1_555
O16_9 Co8 1_555 1_555
N2_9 C23_9 1_555 1_555
H15_9 C17_9 1_555 1_555
C18_9 C17_9 1_555 1_555
C19_9 C18_9 1_555 1_555
C20_9 C18_9 1_555 1_555
H16_9 C20_9 1_555 1_555
C21_9 C20_9 1_555 1_555
C23_9 C21_9 1_555 1_555
C27_9 O15_9 1_555 1_555
C28_9 N2_9 1_555 1_555
H20_9 C28_9 1_555 1_555
O16_9 C27_9 1_555 1_555
C26_9 C27_9 1_555 1_555
C26_9 C28_9 1_555 1_555
O18_3 C5_9 1_555 1_555
O20_4 C5_9 1_555 1_555
C1_9 O3_9 1_555 1_555
C2_9 C1_9 1_555 1_555
C3_9 C2_9 1_555 1_555
H5_9 C3_9 1_555 1_555
C4_9 C3_9 1_555 1_555
C5_9 C4_9 1_555 1_555
C6_9 C4_9 1_555 1_555
H6_9 C6_9 1_555 1_555
C7_9 C6_9 1_555 1_555
C8_9 C2_9 1_555 1_555
C7_9 C8_9 1_555 1_555

#END
