
###############################################################################
#
# This file contains modified crystal structure data generated from the
# MOF subset of the Cambridge Structural Database (CSD) v543 
# hosted by the Cambridge Crystallographic Data Centre (CCDC).
#
# This work is licensed under the Creative Commons
# Attribution-NonCommercial-ShareAlike 4.0 International License.
# To view a copy of this license, visit
# http://creativecommons.org/licenses/by-nc-sa/4.0/
# or send a letter to
# Creative Commons, PO Box 1866, Mountain View, CA 94042, USA.
#
# CIF created using the CSD Python API on 29 September 2022
# The structure has been converted into the P1 space group
# The structure has a 3D framework
# The original CSD entry TEMPEI is in the monoclinic crystal system
# The framework has been calculated to contain at least 10.0% void space
# The void calculation uses a probe of radius 1.32A, grid spacing 0.4
# H atom positions have been added when not included in the experimental data
#
###############################################################################

data_TEMPEI
_chemical_formula_moiety         '(C504 H552 Cu24 N24 O116)n'
_symmetry_cell_setting           triclinic
_symmetry_space_group_name_H-M   'P 1'
_symmetry_Int_Tables_number      1
_space_group_name_Hall           'P 1'
loop_
_symmetry_equiv_pos_site_id
_symmetry_equiv_pos_as_xyz
1 x,y,z
_cell_length_a                   22.5641(9)
_cell_length_b                   37.1408(15)
_cell_length_c                   30.0021(11)
_cell_angle_alpha                90
_cell_angle_beta                 105.6860(10)
_cell_angle_gamma                90
_cell_volume                     24206.8
loop_
_atom_site_label
_atom_site_type_symbol
_atom_site_fract_x
_atom_site_fract_y
_atom_site_fract_z
C1 C 0.3308(7) 0.0407(4) 0.2925(5)
C2 C 0.3835(6) 0.0647(4) 0.3125(5)
C3 C 0.3780(7) 0.1018(4) 0.3055(6)
H1 H 0.3414 0.1117 0.2857
C4 C 0.4267(8) 0.1243(4) 0.3277(7)
C5 C 0.4801(7) 0.1106(4) 0.3560(6)
C6 C 0.4873(8) 0.0726(5) 0.3617(6)
C7 C 0.4375(7) 0.0504(4) 0.3390(6)
H2 H 0.4415 0.0250 0.3422
C8 C 0.4201(10) 0.1648(5) 0.3199(9)
H3 H 0.3829 0.1698 0.2949
H4 H 0.4561 0.1741 0.3113
H5 H 0.4169 0.1766 0.3484
C9 C 0.5456(10) 0.0578(6) 0.3886(9)
H6 H 0.5552 0.0361 0.3734
H7 H 0.5428 0.0518 0.4198
H8 H 0.5782 0.0757 0.3908
C10 C 0.6718(7) 0.2047(4) 0.4572(5)
C11 C 0.6234(7) 0.1788(4) 0.4314(5)
C12 C 0.5788(8) 0.1672(5) 0.4501(6)
H9 H 0.5803 0.1738 0.4810
C13 C 0.5299(9) 0.1457(5) 0.4248(7)
C14 C 0.5303(8) 0.1343(5) 0.3821(6)
C15 C 0.5772(8) 0.1456(5) 0.3614(6)
C16 C 0.6214(7) 0.1678(5) 0.3876(6)
H10 H 0.6527 0.1761 0.3744
C17 C 0.4840(13) 0.1308(8) 0.4462(10)
H11 H 0.4711 0.1069 0.4332
H12 H 0.5020 0.1287 0.4797
H13 H 0.4482 0.1468 0.4401
C18 C 0.5768(10) 0.1332(7) 0.3141(7)
H14 H 0.6179 0.1363 0.3096
H15 H 0.5653 0.1077 0.3107
H16 H 0.5469 0.1474 0.2910
C42 C 0.2945(8) 0.0010(5) 0.5705(5)
C43 C 0.2961(8) 0.0021(5) 0.6173(5)
H34 H 0.3302 0.0127 0.6391
C45 C 0.3486(9) 0.0171(7) 0.5556(6)
H38 H 0.3488 0.0074 0.5253
H39 H 0.3443 0.0433 0.5537
H40 H 0.3872 0.0108 0.5784
C48 C 0.2105(7) 0.0161(4) 0.4147(5)
H41 H 0.1908 0.0358 0.3964
C49 C 0.2144(8) 0.0146(5) 0.4628(5)
C53 C 0.1891(10) 0.0452(5) 0.4849(6)
H43 H 0.2170 0.0503 0.5155
H44 H 0.1485 0.0386 0.4884
H45 H 0.1853 0.0667 0.4654
C58 C 0.1552(12) 0.0934(7) 0.2699(9)
C59 C 0.1744(11) 0.1637(7) 0.2810(8)
C60 C 0.0928(11) 0.1358(7) 0.2230(9)
C61 C 0.8668(13) 0.2532(7) 0.4198(9)
C62 C 0.9542(11) 0.2928(6) 0.3955(8)
C63 C 0.8779(11) 0.2277(7) 0.3410(8)
N2 N 0.1392(9) 0.1365(5) 0.2628(7)
N3 N 0.9049(9) 0.2534(5) 0.3828(7)
O1 O 0.3406(4) 0.0073(3) 0.2957(3)
O2 O 0.2784(4) 0.0549(3) 0.2743(3)
O5 O 0.2821(4) 0.0135(3) 0.7059(3)
O8 O 0.2097(5) 0.0195(3) 0.3233(3)
O11 O 0.7151(4) 0.2124(3) 0.4387(4)
O12 O 0.6661(4) 0.2176(2) 0.4945(3)
O14 O 0.1473(6) 0.0750(3) 0.2502(4)
O15 O 0.8291(6) 0.2410(3) 0.4166(4)
Cu2 Cu 0.20144(7) 0.02785(4) 0.25754(5)
Cu3 Cu 0.77892(7) 0.24664(4) 0.46770(5)
O17 O 0.2063(4) 0.0269(3) 0.1933(3)
O18 O 0.8239(4) 0.2085(2) 0.5076(3)
O19 O 0.7244(4) 0.2849(3) 0.4360(3)
O20 O 0.8339(4) 0.2824(2) 0.5055(3)
Cu4 Cu 0.27527(7) 0.02746(4) 0.76741(5)
Cu8 Cu 0.72108(7) 0.25336(4) 0.53230(5)
H49 H 0.885416 0.268335 0.451599
H50 H 0.984388 0.290722 0.430502
H51 H 0.981862 0.294421 0.37092
H52 H 0.925928 0.316895 0.392697
H53 H 0.216659 0.162825 0.270098
H54 H 0.150247 0.188825 0.269438
H55 H 0.185564 0.162068 0.318598
H59 H 0.831044 0.235893 0.323497
H60 H 0.906203 0.2291 0.316846
H61 H 0.877637 0.200197 0.353526
H62 H 0.179988 0.0860004 0.305131
H67 H 0.0549103 0.119664 0.228173
H68 H 0.0768418 0.163136 0.213526
H69 H 0.109464 0.124038 0.195406
C19 C 0.1455(7) 0.9607(4) 0.2314(4)
C20 C 0.0915(6) 0.9375(4) 0.2096(4)
C21 C 0.1023(6) 0.9018(4) 0.1981(5)
H17 H 0.1429 0.8923 0.2065
C22 C 0.0532(6) 0.8805(4) 0.1743(5)
C25 C 0.0321(6) 0.9506(4) 0.1978(5)
H18 H 0.0252 0.9744 0.2067
C26 C 0.0663(8) 0.8419(4) 0.1620(7)
H19 H 0.1062 0.8341 0.1819
H20 H 0.0671 0.8408 0.1295
H21 H 0.0339 0.8259 0.1666
H32 H 0.0129 0.8856 0.0640
C37 C 0.2463(7) 0.9912(4) 0.6812(5)
C38 C 0.2477(7) 0.9877(4) 0.6320(5)
C39 C 0.2013(7) 0.9694(4) 0.6002(4)
H33 H 0.1698 0.9577 0.6104
C40 C 0.2002(8) 0.9678(5) 0.5547(5)
C41 C 0.2466(8) 0.9849(5) 0.5391(5)
C44 C 0.1479(9) 0.9486(6) 0.5206(5)
H35 H 0.1161 0.9422 0.5359
H36 H 0.1302 0.9644 0.4943
H37 H 0.1636 0.9267 0.5096
C46 C 0.2350(7) 0.9922(4) 0.3449(4)
C47 C 0.2356(7) 0.9885(4) 0.3951(4)
C50 C 0.2433(8) 0.9853(5) 0.4891(5)
C51 C 0.2678(8) 0.9579(5) 0.4678(5)
C52 C 0.2627(8) 0.9593(5) 0.4206(5)
H42 H 0.2779 0.9401 0.4060
C54 C 0.2970(13) 0.9245(7) 0.4954(7)
H46 H 0.3251 0.9130 0.4798
H47 H 0.2646 0.9075 0.4973
H48 H 0.3200 0.9318 0.5267
C55 C 0.3428(12) 0.9192(7) 0.2566(10)
C56 C 0.4008(11) 0.8626(7) 0.2903(8)
C57 C 0.4292(11) 0.8881(6) 0.2114(8)
N1 N 0.3949(9) 0.8859(5) 0.2541(7)
O3 O 0.1981(4) 0.9473(2) 0.2385(3)
O4 O 0.1335(4) 0.9930(2) 0.2411(3)
O6 O 0.2063(4) 0.9731(3) 0.6933(3)
O7 O 0.2600(4) 0.9668(2) 0.3279(3)
O13 O 0.3331(6) 0.9273(3) 0.2754(4)
Cu1 Cu 0.27527(7) 0.97254(4) 0.26741(5)
O16 O 0.2821(4) 0.9865(3) 0.2059(3)
Cu5 Cu 0.20144(7) 0.97215(4) 0.75754(5)
H56 H 0.454783 0.913229 0.214025
H57 H 0.460693 0.865482 0.214126
H58 H 0.394515 0.887025 0.178175
H63 H 0.319621 0.930401 0.222843
H64 H 0.356328 0.85039 0.288479
H65 H 0.433807 0.841641 0.28846
H66 H 0.416966 0.877204 0.322805
C23 C 0.9949(7) 0.8949(4) 0.1611(5)
C24 C 0.9824(7) 0.9306(4) 0.1736(5)
C27 C 0.9182(7) 0.9450(5) 0.1609(7)
H22 H 0.9173 0.9679 0.1768
H23 H 0.8910 0.9277 0.1702
H24 H 0.9042 0.9487 0.1274
C28 C 0.8137(7) 0.7991(3) 0.0466(5)
C29 C 0.8582(6) 0.8262(3) 0.0757(5)
C30 C 0.8660(7) 0.8269(4) 0.1232(5)
H25 H 0.8416 0.8117 0.1365
C31 C 0.9092(7) 0.8497(4) 0.1517(5)
C32 C 0.9433(7) 0.8723(4) 0.1306(5)
C33 C 0.9342(7) 0.8724(4) 0.0834(5)
C34 C 0.8926(6) 0.8486(4) 0.0563(5)
H26 H 0.8879 0.8477 0.0239
C35 C 0.9175(9) 0.8487(5) 0.2040(6)
H27 H 0.9255 0.8731 0.2167
H28 H 0.9524 0.8330 0.2185
H29 H 0.8800 0.8392 0.2102
C36 C 0.9725(8) 0.8966(5) 0.0607(6)
H30 H 0.9776 0.9203 0.0757
H31 H 0.9513 0.8994 0.0277
O9 O 0.8239(4) 0.7915(2) 0.0076(3)
O10 O 0.7756(4) 0.7849(3) 0.0640(3)
Cu7 Cu 0.72108(7) 0.74664(4) 0.03230(5)
Cu6 Cu 0.77892(7) 0.75336(4) 0.96770(5)
C1_2 C 0.1692(7) 0.5407(4) 0.2075(5)
C2_2 C 0.1165(6) 0.5647(4) 0.1875(5)
C3_2 C 0.1220(7) 0.6018(4) 0.1945(6)
H1_2 H 0.1586 0.6117 0.2143
C4_2 C 0.0733(8) 0.6243(4) 0.1723(7)
C5_2 C 0.0199(7) 0.6106(4) 0.1440(6)
C6_2 C 0.0127(8) 0.5726(5) 0.1383(6)
C7_2 C 0.0625(7) 0.5504(4) 0.1610(6)
H2_2 H 0.0585 0.5250 0.1578
C8_2 C 0.0799(10) 0.6648(5) 0.1801(9)
H3_2 H 0.1171 0.6698 0.2051
H4_2 H 0.0439 0.6741 0.1887
H5_2 H 0.0831 0.6766 0.1516
C17_2 C 0.0160(13) 0.6308(8) 0.0538(10)
H11_2 H 0.0289 0.6069 0.0668
H13_2 H 0.0518 0.6468 0.0599
C19_2 C 0.3545(7) 0.4607(4) 0.2686(4)
C20_2 C 0.4085(6) 0.4375(4) 0.2904(4)
C21_2 C 0.3977(6) 0.4018(4) 0.3019(5)
H17_2 H 0.3571 0.3923 0.2935
C22_2 C 0.4468(6) 0.3805(4) 0.3257(5)
C23_2 C 0.5051(7) 0.3949(4) 0.3389(5)
C24_2 C 0.5176(7) 0.4306(4) 0.3264(5)
C25_2 C 0.4679(6) 0.4506(4) 0.3022(5)
H18_2 H 0.4748 0.4744 0.2933
C26_2 C 0.4337(8) 0.3419(4) 0.3380(7)
H19_2 H 0.3938 0.3341 0.3181
H20_2 H 0.4329 0.3408 0.3705
H21_2 H 0.4661 0.3259 0.3334
C27_2 C 0.5818(7) 0.4450(5) 0.3391(7)
H22_2 H 0.5827 0.4679 0.3232
H23_2 H 0.6090 0.4277 0.3298
H24_2 H 0.5958 0.4487 0.3726
C28_2 C 0.6863(7) 0.2991(3) 0.4534(5)
C29_2 C 0.6418(6) 0.3262(3) 0.4243(5)
C30_2 C 0.6340(7) 0.3269(4) 0.3768(5)
H25_2 H 0.6584 0.3117 0.3635
C31_2 C 0.5908(7) 0.3497(4) 0.3483(5)
C32_2 C 0.5567(7) 0.3723(4) 0.3694(5)
C33_2 C 0.5658(7) 0.3724(4) 0.4166(5)
C34_2 C 0.6074(6) 0.3486(4) 0.4437(5)
H26_2 H 0.6121 0.3477 0.4761
C35_2 C 0.5825(9) 0.3487(5) 0.2960(6)
H27_2 H 0.5745 0.3731 0.2833
H28_2 H 0.5476 0.3330 0.2815
H29_2 H 0.6200 0.3392 0.2898
C36_2 C 0.5275(8) 0.3966(5) 0.4393(6)
H30_2 H 0.5224 0.4203 0.4243
H31_2 H 0.5487 0.3994 0.4723
H32_2 H 0.4871 0.3856 0.4360
H36_2 H 0.3698 0.4644 0.0057
C46_2 C 0.2650(7) 0.4922(4) 0.1551(4)
C47_2 C 0.2644(7) 0.4885(4) 0.1049(4)
C48_2 C 0.2895(7) 0.5161(4) 0.0853(5)
H41_2 H 0.3092 0.5358 0.1036
C49_2 C 0.2856(8) 0.5146(5) 0.0372(5)
C50_2 C 0.2567(8) 0.4853(5) 0.0109(5)
C51_2 C 0.2322(8) 0.4579(5) 0.0322(5)
C52_2 C 0.2373(8) 0.4593(5) 0.0794(5)
H42_2 H 0.2221 0.4401 0.0940
C53_2 C 0.3109(10) 0.5452(5) 0.0151(6)
H44_2 H 0.3515 0.5386 0.0116
H45_2 H 0.3147 0.5667 0.0346
C54_2 C 0.2030(13) 0.4245(7) 0.0046(7)
H46_2 H 0.1749 0.4130 0.0202
H47_2 H 0.2354 0.4075 0.0027
C55_2 C 0.1572(12) 0.4192(7) 0.2434(10)
C56_2 C 0.0992(11) 0.3626(7) 0.2097(8)
C57_2 C 0.0708(11) 0.3881(6) 0.2886(8)
C58_2 C 0.3448(12) 0.5934(7) 0.2301(9)
C59_2 C 0.3256(11) 0.6637(7) 0.2190(8)
C60_2 C 0.4072(11) 0.6358(7) 0.2770(9)
N1_2 N 0.1051(9) 0.3859(5) 0.2459(7)
N2_2 N 0.3608(9) 0.6365(5) 0.2372(7)
O1_2 O 0.1594(4) 0.5073(3) 0.2043(3)
O2_2 O 0.2216(4) 0.5549(3) 0.2257(3)
O3_2 O 0.3019(4) 0.4473(2) 0.2615(3)
O4_2 O 0.3665(4) 0.4930(2) 0.2589(3)
O7_2 O 0.2400(4) 0.4668(2) 0.1721(3)
O8_2 O 0.2903(5) 0.5195(3) 0.1767(3)
O9_2 O 0.6761(4) 0.2915(2) 0.4924(3)
O13_2 O 0.1669(6) 0.4273(3) 0.2246(4)
O14_2 O 0.3527(6) 0.5750(3) 0.2498(4)
Cu1_2 Cu 0.22473(7) 0.47254(4) 0.23259(5)
Cu2_2 Cu 0.29856(7) 0.52785(4) 0.24246(5)
O16_2 O 0.2179(4) 0.4865(3) 0.2941(3)
O17_2 O 0.2937(4) 0.5269(3) 0.3067(3)
H53_2 H 0.283341 0.662825 0.229902
H54_2 H 0.349753 0.688825 0.230562
H55_2 H 0.314436 0.662068 0.181402
H56_2 H 0.0452173 0.413229 0.285975
H57_2 H 0.0393075 0.365482 0.285874
H58_2 H 0.105485 0.387025 0.321825
H62_2 H 0.320012 0.586 0.194869
H63_2 H 0.180379 0.430401 0.277157
H64_2 H 0.143672 0.35039 0.211521
H65_2 H 0.0661934 0.341641 0.21154
H66_2 H 0.0830338 0.377204 0.177195
H67_2 H 0.44509 0.619664 0.271827
H68_2 H 0.423158 0.663136 0.286474
H69_2 H 0.390536 0.624038 0.304594
C37_2 C 0.2537(7) 0.4912(4) 0.8188(5)
C38_2 C 0.2523(7) 0.4877(4) 0.8680(5)
C39_2 C 0.2987(7) 0.4694(4) 0.8998(4)
H33_2 H 0.3302 0.4577 0.8896
C40_2 C 0.2998(8) 0.4678(5) 0.9453(5)
C41_2 C 0.2534(8) 0.4849(5) 0.9609(5)
C42_2 C 0.2055(8) 0.5010(5) 0.9295(5)
C43_2 C 0.2039(8) 0.5021(5) 0.8827(5)
H34_2 H 0.1698 0.5127 0.8609
C44_2 C 0.3521(9) 0.4486(6) 0.9794(5)
H35_2 H 0.3839 0.4422 0.9641
H37_2 H 0.3364 0.4267 0.9904
C45_2 C 0.1514(9) 0.5171(7) 0.9444(6)
H38_2 H 0.1512 0.5074 0.9747
H39_2 H 0.1557 0.5433 0.9463
H40_2 H 0.1128 0.5108 0.9216
H43_2 H 0.2830 0.5503 0.9845
H48_2 H 0.1800 0.4318 0.9733
O5_2 O 0.2179(4) 0.5135(3) 0.7941(3)
O6_2 O 0.2937(4) 0.4731(3) 0.8067(3)
Cu4_2 Cu 0.22473(7) 0.52746(4) 0.73259(5)
Cu5_2 Cu 0.29856(7) 0.47215(4) 0.74246(5)
C9_2 C 0.9544(10) 0.5578(6) 0.1114(9)
H6_2 H 0.9448 0.5361 0.1266
H7_2 H 0.9572 0.5518 0.0802
H8_2 H 0.9218 0.5757 0.1092
C10_2 C 0.8282(7) 0.7047(4) 0.0428(5)
C11_2 C 0.8766(7) 0.6788(4) 0.0686(5)
C12_2 C 0.9212(8) 0.6672(5) 0.0499(6)
H9_2 H 0.9197 0.6738 0.0190
C13_2 C 0.9701(9) 0.6457(5) 0.0752(7)
C14_2 C 0.9697(8) 0.6343(5) 0.1179(6)
C15_2 C 0.9228(8) 0.6456(5) 0.1386(6)
C16_2 C 0.8786(7) 0.6678(5) 0.1124(6)
H10_2 H 0.8473 0.6761 0.1256
H12_2 H 0.9980 0.6287 0.0203
C18_2 C 0.9232(10) 0.6332(7) 0.1859(7)
H14_2 H 0.8821 0.6363 0.1904
H15_2 H 0.9347 0.6077 0.1893
H16_2 H 0.9531 0.6474 0.2090
C61_2 C 0.6332(13) 0.7532(7) 0.0802(9)
C62_2 C 0.5458(11) 0.7928(6) 0.1045(8)
C63_2 C 0.6221(11) 0.7277(7) 0.1590(8)
N3_2 N 0.5951(9) 0.7534(5) 0.1172(7)
O11_2 O 0.7849(4) 0.7124(3) 0.0613(4)
O12_2 O 0.8339(4) 0.7176(2) 0.0055(3)
O15_2 O 0.6709(6) 0.7410(3) 0.0834(4)
H49_2 H 0.614584 0.768335 0.0484005
H50_2 H 0.515612 0.790722 0.0694981
H51_2 H 0.518138 0.794421 0.12908
H52_2 H 0.574072 0.816895 0.107303
H59_2 H 0.668956 0.735893 0.176503
H60_2 H 0.593797 0.7291 0.183154
H61_2 H 0.622363 0.700197 0.146474
O18_2 O 0.6761(4) 0.7085(2) 0.9924(3)
O20_2 O 0.6661(4) 0.7824(2) 0.9945(3)
C37_3 C 0.2463(7) 0.0088(4) 0.1812(5)
C38_3 C 0.2477(7) 0.0123(4) 0.1320(5)
C39_3 C 0.2013(7) 0.0306(4) 0.1002(4)
H33_3 H 0.1698 0.0423 0.1104
C40_3 C 0.2002(8) 0.0322(5) 0.0547(5)
C41_3 C 0.2466(8) 0.0151(5) 0.0391(5)
C44_3 C 0.1479(9) 0.0514(6) 0.0206(5)
H35_3 H 0.1161 0.0578 0.0359
H37_3 H 0.1636 0.0733 0.0096
H48_3 H 0.3200 0.0682 0.0267
C19_3 C 0.1455(7) 0.0393(4) 0.7314(4)
C20_3 C 0.0915(6) 0.0625(4) 0.7096(4)
C21_3 C 0.1023(6) 0.0982(4) 0.6981(5)
H17_3 H 0.1429 0.1077 0.7065
C22_3 C 0.0532(6) 0.1195(4) 0.6743(5)
C25_3 C 0.0321(6) 0.0494(4) 0.6978(5)
H18_3 H 0.0252 0.0256 0.7067
C26_3 C 0.0663(8) 0.1581(4) 0.6620(7)
H19_3 H 0.1062 0.1659 0.6819
H20_3 H 0.0671 0.1592 0.6295
H21_3 H 0.0339 0.1741 0.6666
H32_3 H 0.0129 0.1144 0.5640
H36_3 H 0.1302 0.0356 0.9943
C46_3 C 0.2350(7) 0.0078(4) 0.8449(4)
C47_3 C 0.2356(7) 0.0115(4) 0.8951(4)
C50_3 C 0.2433(8) 0.0147(5) 0.9891(5)
C51_3 C 0.2678(8) 0.0421(5) 0.9678(5)
C52_3 C 0.2627(8) 0.0407(5) 0.9206(5)
H42_3 H 0.2779 0.0599 0.9060
C54_3 C 0.2970(13) 0.0755(7) 0.9954(7)
H46_3 H 0.3251 0.0870 0.9798
H47_3 H 0.2646 0.0925 0.9973
C55_3 C 0.3428(12) 0.0808(7) 0.7566(10)
C56_3 C 0.4008(11) 0.1374(7) 0.7903(8)
C57_3 C 0.4292(11) 0.1119(6) 0.7114(8)
N1_3 N 0.3949(9) 0.1141(5) 0.7541(7)
O3_3 O 0.1981(4) 0.0527(2) 0.7385(3)
O4_3 O 0.1335(4) 0.0070(2) 0.7411(3)
O7_3 O 0.2600(4) 0.0332(2) 0.8279(3)
O13_3 O 0.3331(6) 0.0727(3) 0.7754(4)
H56_3 H 0.454783 0.0867708 0.714025
H57_3 H 0.460693 0.134518 0.714126
H58_3 H 0.394515 0.112975 0.678175
H63_3 H 0.319621 0.0695986 0.722843
H64_3 H 0.356328 0.14961 0.788479
H65_3 H 0.433807 0.158359 0.78846
H66_3 H 0.416966 0.122796 0.822805
C42_3 C 0.2945(8) 0.9990(5) 0.0705(5)
C43_3 C 0.2961(8) 0.9979(5) 0.1173(5)
H34_3 H 0.3302 0.9873 0.1391
C45_3 C 0.3486(9) 0.9829(7) 0.0556(6)
H38_3 H 0.3488 0.9926 0.0253
H39_3 H 0.3443 0.9567 0.0537
H40_3 H 0.3872 0.9892 0.0784
H43_3 H 0.2170 0.9497 0.0155
C1_3 C 0.3308(7) 0.9593(4) 0.7925(5)
C2_3 C 0.3835(6) 0.9353(4) 0.8125(5)
C3_3 C 0.3780(7) 0.8982(4) 0.8055(6)
H1_3 H 0.3414 0.8883 0.7857
C4_3 C 0.4267(8) 0.8757(4) 0.8277(7)
C5_3 C 0.4801(7) 0.8894(4) 0.8560(6)
C6_3 C 0.4873(8) 0.9274(5) 0.8617(6)
C7_3 C 0.4375(7) 0.9496(4) 0.8390(6)
H2_3 H 0.4415 0.9750 0.8422
C8_3 C 0.4201(10) 0.8352(5) 0.8199(9)
H3_3 H 0.3829 0.8302 0.7949
H4_3 H 0.4561 0.8259 0.8113
H5_3 H 0.4169 0.8234 0.8484
C9_3 C 0.5456(10) 0.9422(6) 0.8886(9)
H6_3 H 0.5552 0.9639 0.8734
H7_3 H 0.5428 0.9482 0.9198
H8_3 H 0.5782 0.9243 0.8908
C10_3 C 0.6718(7) 0.7953(4) 0.9572(5)
C11_3 C 0.6234(7) 0.8212(4) 0.9314(5)
C12_3 C 0.5788(8) 0.8328(5) 0.9501(6)
H9_3 H 0.5803 0.8262 0.9810
C13_3 C 0.5299(9) 0.8543(5) 0.9248(7)
C14_3 C 0.5303(8) 0.8657(5) 0.8821(6)
C15_3 C 0.5772(8) 0.8544(5) 0.8614(6)
C16_3 C 0.6214(7) 0.8322(5) 0.8876(6)
H10_3 H 0.6527 0.8239 0.8744
C17_3 C 0.4840(13) 0.8692(8) 0.9462(10)
H11_3 H 0.4711 0.8931 0.9332
H12_3 H 0.5020 0.8713 0.9797
H13_3 H 0.4482 0.8532 0.9401
C18_3 C 0.5768(10) 0.8668(7) 0.8141(7)
H14_3 H 0.6179 0.8637 0.8096
H15_3 H 0.5653 0.8923 0.8107
H16_3 H 0.5469 0.8526 0.7910
C48_3 C 0.2105(7) 0.9839(4) 0.9147(5)
H41_3 H 0.1908 0.9642 0.8964
C49_3 C 0.2144(8) 0.9854(5) 0.9628(5)
C53_3 C 0.1891(10) 0.9548(5) 0.9849(6)
H44_3 H 0.1485 0.9614 0.9884
H45_3 H 0.1853 0.9333 0.9654
C58_3 C 0.1552(12) 0.9066(7) 0.7699(9)
C59_3 C 0.1744(11) 0.8363(7) 0.7810(8)
C60_3 C 0.0928(11) 0.8642(7) 0.7230(9)
C61_3 C 0.8668(13) 0.7468(7) 0.9198(9)
C62_3 C 0.9542(11) 0.7072(6) 0.8955(8)
C63_3 C 0.8779(11) 0.7723(7) 0.8410(8)
N2_3 N 0.1392(9) 0.8635(5) 0.7628(7)
N3_3 N 0.9049(9) 0.7466(5) 0.8828(7)
O1_3 O 0.3406(4) 0.9927(3) 0.7957(3)
O2_3 O 0.2784(4) 0.9451(3) 0.7743(3)
O8_3 O 0.2097(5) 0.9805(3) 0.8233(3)
O11_3 O 0.7151(4) 0.7876(3) 0.9387(4)
O14_3 O 0.1473(6) 0.9250(3) 0.7502(4)
O15_3 O 0.8291(6) 0.7590(3) 0.9166(4)
O19_2 O 0.7244(4) 0.7151(3) 0.9360(3)
H49_3 H 0.885416 0.731665 0.951599
H50_3 H 0.984388 0.709278 0.930502
H51_3 H 0.981862 0.705579 0.87092
H52_3 H 0.925928 0.683105 0.892697
H53_3 H 0.216659 0.837175 0.770098
H54_3 H 0.150247 0.811175 0.769438
H55_3 H 0.185564 0.837932 0.818598
H59_3 H 0.831044 0.764107 0.823497
H60_3 H 0.906203 0.7709 0.816846
H61_3 H 0.877637 0.799803 0.853526
H62_3 H 0.179988 0.914 0.805131
H67_3 H 0.0549103 0.880336 0.728173
H68_3 H 0.0768418 0.836864 0.713526
H69_3 H 0.109464 0.875962 0.695406
C23_3 C 0.9949(7) 0.1051(4) 0.6611(5)
C24_3 C 0.9824(7) 0.0694(4) 0.6736(5)
C27_3 C 0.9182(7) 0.0550(5) 0.6609(7)
H22_3 H 0.9173 0.0321 0.6768
H23_3 H 0.8910 0.0723 0.6702
H24_3 H 0.9042 0.0513 0.6274
C28_3 C 0.8137(7) 0.2009(3) 0.5466(5)
C29_3 C 0.8582(6) 0.1738(3) 0.5757(5)
C30_3 C 0.8660(7) 0.1731(4) 0.6232(5)
H25_3 H 0.8416 0.1883 0.6365
C31_3 C 0.9092(7) 0.1503(4) 0.6517(5)
C32_3 C 0.9433(7) 0.1277(4) 0.6306(5)
C33_3 C 0.9342(7) 0.1276(4) 0.5834(5)
C34_3 C 0.8926(6) 0.1514(4) 0.5563(5)
H26_3 H 0.8879 0.1523 0.5239
C35_3 C 0.9175(9) 0.1513(5) 0.7040(6)
H27_3 H 0.9255 0.1269 0.7167
H28_3 H 0.9524 0.1670 0.7185
H29_3 H 0.8800 0.1608 0.7102
C36_3 C 0.9725(8) 0.1034(5) 0.5607(6)
H30_3 H 0.9776 0.0797 0.5757
H31_3 H 0.9513 0.1006 0.5277
O10_2 O 0.7756(4) 0.2151(3) 0.5640(3)
C1_4 C 0.1692(7) 0.4593(4) 0.7075(5)
C2_4 C 0.1165(6) 0.4353(4) 0.6875(5)
C3_4 C 0.1220(7) 0.3982(4) 0.6945(6)
H1_4 H 0.1586 0.3883 0.7143
C4_4 C 0.0733(8) 0.3757(4) 0.6723(7)
C5_4 C 0.0199(7) 0.3894(4) 0.6440(6)
C6_4 C 0.0127(8) 0.4274(5) 0.6383(6)
C7_4 C 0.0625(7) 0.4496(4) 0.6610(6)
H2_4 H 0.0585 0.4750 0.6578
C8_4 C 0.0799(10) 0.3352(5) 0.6801(9)
H3_4 H 0.1171 0.3302 0.7051
H4_4 H 0.0439 0.3259 0.6887
H5_4 H 0.0831 0.3234 0.6516
C17_4 C 0.0160(13) 0.3692(8) 0.5538(10)
H11_4 H 0.0289 0.3931 0.5668
H13_4 H 0.0518 0.3532 0.5599
C19_4 C 0.3545(7) 0.5393(4) 0.7686(4)
C20_4 C 0.4085(6) 0.5625(4) 0.7904(4)
C21_4 C 0.3977(6) 0.5982(4) 0.8019(5)
H17_4 H 0.3571 0.6077 0.7935
C22_4 C 0.4468(6) 0.6195(4) 0.8257(5)
C23_4 C 0.5051(7) 0.6051(4) 0.8389(5)
C24_4 C 0.5176(7) 0.5694(4) 0.8264(5)
C25_4 C 0.4679(6) 0.5494(4) 0.8022(5)
H18_4 H 0.4748 0.5256 0.7933
C26_4 C 0.4337(8) 0.6581(4) 0.8380(7)
H19_4 H 0.3938 0.6659 0.8181
H20_4 H 0.4329 0.6592 0.8705
H21_4 H 0.4661 0.6741 0.8334
C27_4 C 0.5818(7) 0.5550(5) 0.8391(7)
H22_4 H 0.5827 0.5321 0.8232
H23_4 H 0.6090 0.5723 0.8298
H24_4 H 0.5958 0.5513 0.8726
C28_4 C 0.6863(7) 0.7009(3) 0.9534(5)
C29_4 C 0.6418(6) 0.6738(3) 0.9243(5)
C30_4 C 0.6340(7) 0.6731(4) 0.8768(5)
H25_4 H 0.6584 0.6883 0.8635
C31_4 C 0.5908(7) 0.6503(4) 0.8483(5)
C32_4 C 0.5567(7) 0.6277(4) 0.8694(5)
C33_4 C 0.5658(7) 0.6276(4) 0.9166(5)
C34_4 C 0.6074(6) 0.6514(4) 0.9437(5)
H26_4 H 0.6121 0.6523 0.9761
C35_4 C 0.5825(9) 0.6513(5) 0.7960(6)
H27_4 H 0.5745 0.6269 0.7833
H28_4 H 0.5476 0.6670 0.7815
H29_4 H 0.6200 0.6608 0.7898
C36_4 C 0.5275(8) 0.6034(5) 0.9393(6)
H30_4 H 0.5224 0.5797 0.9243
H31_4 H 0.5487 0.6006 0.9723
H32_4 H 0.4871 0.6144 0.9360
C37_4 C 0.2537(7) 0.5088(4) 0.3188(5)
C38_4 C 0.2523(7) 0.5123(4) 0.3680(5)
C39_4 C 0.2987(7) 0.5306(4) 0.3998(4)
H33_4 H 0.3302 0.5423 0.3896
C40_4 C 0.2998(8) 0.5322(5) 0.4453(5)
C41_4 C 0.2534(8) 0.5151(5) 0.4609(5)
C42_4 C 0.2055(8) 0.4990(5) 0.4295(5)
C43_4 C 0.2039(8) 0.4979(5) 0.3827(5)
H34_4 H 0.1698 0.4873 0.3609
C44_4 C 0.3521(9) 0.5514(6) 0.4794(5)
H35_4 H 0.3839 0.5578 0.4641
H36_4 H 0.3698 0.5356 0.5057
H37_4 H 0.3364 0.5733 0.4904
C45_4 C 0.1514(9) 0.4829(7) 0.4444(6)
H38_4 H 0.1512 0.4926 0.4747
H39_4 H 0.1557 0.4567 0.4463
H40_4 H 0.1128 0.4892 0.4216
C46_4 C 0.2650(7) 0.5078(4) 0.6551(4)
C47_4 C 0.2644(7) 0.5115(4) 0.6049(4)
C48_4 C 0.2895(7) 0.4839(4) 0.5853(5)
H41_4 H 0.3092 0.4642 0.6036
C49_4 C 0.2856(8) 0.4854(5) 0.5372(5)
C50_4 C 0.2567(8) 0.5147(5) 0.5109(5)
C51_4 C 0.2322(8) 0.5421(5) 0.5322(5)
C52_4 C 0.2373(8) 0.5407(5) 0.5794(5)
H42_4 H 0.2221 0.5599 0.5940
C53_4 C 0.3109(10) 0.4548(5) 0.5151(6)
H43_4 H 0.2830 0.4497 0.4845
H44_4 H 0.3515 0.4614 0.5116
H45_4 H 0.3147 0.4333 0.5346
C54_4 C 0.2030(13) 0.5755(7) 0.5046(7)
H46_4 H 0.1749 0.5870 0.5202
H47_4 H 0.2354 0.5925 0.5027
H48_4 H 0.1800 0.5682 0.4733
C55_4 C 0.1572(12) 0.5808(7) 0.7434(10)
C56_4 C 0.0992(11) 0.6374(7) 0.7097(8)
C57_4 C 0.0708(11) 0.6119(6) 0.7886(8)
C58_4 C 0.3448(12) 0.4066(7) 0.7301(9)
C59_4 C 0.3256(11) 0.3363(7) 0.7190(8)
C60_4 C 0.4072(11) 0.3642(7) 0.7770(9)
N1_4 N 0.1051(9) 0.6141(5) 0.7459(7)
N2_4 N 0.3608(9) 0.3635(5) 0.7372(7)
O1_4 O 0.1594(4) 0.4927(3) 0.7043(3)
O2_4 O 0.2216(4) 0.4451(3) 0.7257(3)
O3_4 O 0.3019(4) 0.5527(2) 0.7615(3)
O4_4 O 0.3665(4) 0.5070(2) 0.7589(3)
O7_4 O 0.2400(4) 0.5332(2) 0.6721(3)
O8_4 O 0.2903(5) 0.4805(3) 0.6767(3)
O13_4 O 0.1669(6) 0.5727(3) 0.7246(4)
O14_4 O 0.3527(6) 0.4250(3) 0.7498(4)
H53_4 H 0.283341 0.337175 0.729902
H54_4 H 0.349753 0.311175 0.730562
H55_4 H 0.314436 0.337932 0.681402
H56_4 H 0.0452173 0.586771 0.785975
H57_4 H 0.0393075 0.634518 0.785874
H58_4 H 0.105485 0.612975 0.821825
H62_4 H 0.320012 0.414 0.694869
H63_4 H 0.180379 0.569599 0.777157
H64_4 H 0.143672 0.64961 0.711521
H65_4 H 0.0661934 0.658359 0.71154
H66_4 H 0.0830338 0.622796 0.677195
H67_4 H 0.44509 0.380336 0.771827
H68_4 H 0.423158 0.336864 0.786474
H69_4 H 0.390536 0.375962 0.804594
C9_4 C 0.9544(10) 0.4422(6) 0.6114(9)
H6_4 H 0.9448 0.4639 0.6266
H7_4 H 0.9572 0.4482 0.5802
H8_4 H 0.9218 0.4243 0.6092
C10_4 C 0.8282(7) 0.2953(4) 0.5428(5)
C11_4 C 0.8766(7) 0.3212(4) 0.5686(5)
C12_4 C 0.9212(8) 0.3328(5) 0.5499(6)
H9_4 H 0.9197 0.3262 0.5190
C13_4 C 0.9701(9) 0.3543(5) 0.5752(7)
C14_4 C 0.9697(8) 0.3657(5) 0.6179(6)
C15_4 C 0.9228(8) 0.3544(5) 0.6386(6)
C16_4 C 0.8786(7) 0.3322(5) 0.6124(6)
H10_4 H 0.8473 0.3239 0.6256
H12_4 H 0.9980 0.3713 0.5203
C18_4 C 0.9232(10) 0.3668(7) 0.6859(7)
H14_4 H 0.8821 0.3637 0.6904
H15_4 H 0.9347 0.3923 0.6893
H16_4 H 0.9531 0.3526 0.7090
C61_4 C 0.6332(13) 0.2468(7) 0.5802(9)
C62_4 C 0.5458(11) 0.2072(6) 0.6045(8)
C63_4 C 0.6221(11) 0.2723(7) 0.6590(8)
N3_4 N 0.5951(9) 0.2466(5) 0.6172(7)
O11_4 O 0.7849(4) 0.2876(3) 0.5613(4)
O15_4 O 0.6709(6) 0.2590(3) 0.5834(4)
H49_4 H 0.614584 0.231665 0.548401
H50_4 H 0.515612 0.209278 0.569498
H51_4 H 0.518138 0.205579 0.62908
H52_4 H 0.574072 0.183105 0.607303
H59_4 H 0.668956 0.264107 0.676503
H60_4 H 0.593797 0.2709 0.683154
H61_4 H 0.622363 0.299803 0.646474
C23_5 C 0.0051(7) 0.8949(4) 0.3389(5)
C24_5 C 0.0176(7) 0.9306(4) 0.3264(5)
C27_5 C 0.0818(7) 0.9450(5) 0.3391(7)
H22_5 H 0.0827 0.9679 0.3232
H23_5 H 0.1090 0.9277 0.3298
H24_5 H 0.0958 0.9487 0.3726
C28_5 C 0.1863(7) 0.7991(3) 0.4534(5)
C29_5 C 0.1418(6) 0.8262(3) 0.4243(5)
C30_5 C 0.1340(7) 0.8269(4) 0.3768(5)
H25_5 H 0.1584 0.8117 0.3635
C31_5 C 0.0908(7) 0.8497(4) 0.3483(5)
C32_5 C 0.0567(7) 0.8723(4) 0.3694(5)
C33_5 C 0.0658(7) 0.8724(4) 0.4166(5)
C34_5 C 0.1074(6) 0.8486(4) 0.4437(5)
H26_5 H 0.1121 0.8477 0.4761
C35_5 C 0.0825(9) 0.8487(5) 0.2960(6)
H27_5 H 0.0745 0.8731 0.2833
H28_5 H 0.0476 0.8330 0.2815
H29_5 H 0.1200 0.8392 0.2898
C36_5 C 0.0275(8) 0.8966(5) 0.4393(6)
H30_5 H 0.0224 0.9203 0.4243
H31_5 H 0.0487 0.8994 0.4723
O9_3 O 0.1761(4) 0.7915(2) 0.4924(3)
O10_3 O 0.2244(4) 0.7849(3) 0.4360(3)
Cu6_2 Cu 0.22108(7) 0.75336(4) 0.53230(5)
Cu7_2 Cu 0.27892(7) 0.74664(4) 0.46770(5)
C1_5 C 0.6692(7) 0.0407(4) 0.2075(5)
C2_5 C 0.6165(6) 0.0647(4) 0.1875(5)
C3_5 C 0.6220(7) 0.1018(4) 0.1945(6)
H1_5 H 0.6586 0.1117 0.2143
C4_5 C 0.5733(8) 0.1243(4) 0.1723(7)
C5_5 C 0.5199(7) 0.1106(4) 0.1440(6)
C6_5 C 0.5127(8) 0.0726(5) 0.1383(6)
C7_5 C 0.5625(7) 0.0504(4) 0.1610(6)
H2_5 H 0.5585 0.0250 0.1578
C8_5 C 0.5799(10) 0.1648(5) 0.1801(9)
H3_5 H 0.6171 0.1698 0.2051
H4_5 H 0.5439 0.1741 0.1887
H5_5 H 0.5831 0.1766 0.1516
C9_5 C 0.4544(10) 0.0578(6) 0.1114(9)
H6_5 H 0.4448 0.0361 0.1266
H7_5 H 0.4572 0.0518 0.0802
H8_5 H 0.4218 0.0757 0.1092
C10_5 C 0.3282(7) 0.2047(4) 0.0428(5)
C11_5 C 0.3766(7) 0.1788(4) 0.0686(5)
C12_5 C 0.4212(8) 0.1672(5) 0.0499(6)
H9_5 H 0.4197 0.1738 0.0190
C13_5 C 0.4701(9) 0.1457(5) 0.0752(7)
C14_5 C 0.4697(8) 0.1343(5) 0.1179(6)
C15_5 C 0.4228(8) 0.1456(5) 0.1386(6)
C16_5 C 0.3786(7) 0.1678(5) 0.1124(6)
H10_5 H 0.3473 0.1761 0.1256
C17_5 C 0.5160(13) 0.1308(8) 0.0538(10)
H11_5 H 0.5289 0.1069 0.0668
H12_5 H 0.4980 0.1287 0.0203
H13_5 H 0.5518 0.1468 0.0599
C18_5 C 0.4232(10) 0.1332(7) 0.1859(7)
H14_5 H 0.3821 0.1363 0.1904
H15_5 H 0.4347 0.1077 0.1893
H16_5 H 0.4531 0.1474 0.2090
C48_5 C 0.7895(7) 0.0161(4) 0.0853(5)
H41_5 H 0.8092 0.0358 0.1036
C49_5 C 0.7856(8) 0.0146(5) 0.0372(5)
C53_5 C 0.8109(10) 0.0452(5) 0.0151(6)
H44_5 H 0.8515 0.0386 0.0116
H45_5 H 0.8147 0.0667 0.0346
C58_5 C 0.8448(12) 0.0934(7) 0.2301(9)
C59_5 C 0.8256(11) 0.1637(7) 0.2190(8)
C60_5 C 0.9072(11) 0.1358(7) 0.2770(9)
C61_5 C 0.1332(13) 0.2532(7) 0.0802(9)
C62_5 C 0.0458(11) 0.2928(6) 0.1045(8)
C63_5 C 0.1221(11) 0.2277(7) 0.1590(8)
N2_5 N 0.8608(9) 0.1365(5) 0.2372(7)
N3_5 N 0.0951(9) 0.2534(5) 0.1172(7)
O1_5 O 0.6594(4) 0.0073(3) 0.2043(3)
O2_5 O 0.7216(4) 0.0549(3) 0.2257(3)
O8_5 O 0.7903(5) 0.0195(3) 0.1767(3)
O11_5 O 0.2849(4) 0.2124(3) 0.0613(4)
O12_3 O 0.3339(4) 0.2176(2) 0.0055(3)
O14_5 O 0.8527(6) 0.0750(3) 0.2498(4)
O15_5 O 0.1709(6) 0.2410(3) 0.0834(4)
Cu2_3 Cu 0.79856(7) 0.02785(4) 0.24246(5)
Cu3_2 Cu 0.22108(7) 0.24664(4) 0.03230(5)
O17_3 O 0.7937(4) 0.0269(3) 0.3067(3)
O19_3 O 0.2756(4) 0.2849(3) 0.0640(3)
H49_5 H 0.114584 0.268335 0.0484005
H50_5 H 0.0156122 0.290722 0.0694981
H51_5 H 0.0181383 0.294421 0.12908
H52_5 H 0.0740723 0.316895 0.107303
H53_5 H 0.783341 0.162825 0.229902
H54_5 H 0.849753 0.188825 0.230562
H55_5 H 0.814436 0.162068 0.181402
H59_5 H 0.168956 0.235893 0.176503
H60_5 H 0.0937974 0.2291 0.183154
H61_5 H 0.122363 0.200197 0.146474
H62_5 H 0.820012 0.0860004 0.194869
H67_5 H 0.94509 0.119664 0.271827
H68_5 H 0.923158 0.163136 0.286474
H69_5 H 0.890536 0.124038 0.304594
C42_5 C 0.7055(8) 0.0010(5) 0.9295(5)
C43_5 C 0.7039(8) 0.0021(5) 0.8827(5)
H34_5 H 0.6698 0.0127 0.8609
C45_5 C 0.6514(9) 0.0171(7) 0.9444(6)
H38_5 H 0.6512 0.0074 0.9747
H39_5 H 0.6557 0.0433 0.9463
H40_5 H 0.6128 0.0108 0.9216
H43_5 H 0.7830 0.0503 0.9845
O5_3 O 0.7179(4) 0.0135(3) 0.7941(3)
O18_3 O 0.1761(4) 0.2085(2) 0.9924(3)
O20_3 O 0.1661(4) 0.2824(2) 0.9945(3)
Cu4_3 Cu 0.72473(7) 0.02746(4) 0.73259(5)
Cu8_2 Cu 0.27892(7) 0.25336(4) 0.96770(5)
C19_5 C 0.8545(7) 0.9607(4) 0.2686(4)
C20_5 C 0.9085(6) 0.9375(4) 0.2904(4)
C21_5 C 0.8977(6) 0.9018(4) 0.3019(5)
H17_5 H 0.8571 0.8923 0.2935
C22_5 C 0.9468(6) 0.8805(4) 0.3257(5)
C25_5 C 0.9679(6) 0.9506(4) 0.3022(5)
H18_5 H 0.9748 0.9744 0.2933
C26_5 C 0.9337(8) 0.8419(4) 0.3380(7)
H19_5 H 0.8938 0.8341 0.3181
H20_5 H 0.9329 0.8408 0.3705
H21_5 H 0.9661 0.8259 0.3334
H32_5 H 0.9871 0.8856 0.4360
H36_5 H 0.8698 0.9644 0.0057
C46_5 C 0.7650(7) 0.9922(4) 0.1551(4)
C47_5 C 0.7644(7) 0.9885(4) 0.1049(4)
C50_5 C 0.7567(8) 0.9853(5) 0.0109(5)
C51_5 C 0.7322(8) 0.9579(5) 0.0322(5)
C52_5 C 0.7373(8) 0.9593(5) 0.0794(5)
H42_5 H 0.7221 0.9401 0.0940
C54_5 C 0.7030(13) 0.9245(7) 0.0046(7)
H46_5 H 0.6749 0.9130 0.0202
H47_5 H 0.7354 0.9075 0.0027
C55_5 C 0.6572(12) 0.9192(7) 0.2434(10)
C56_5 C 0.5992(11) 0.8626(7) 0.2097(8)
C57_5 C 0.5708(11) 0.8881(6) 0.2886(8)
N1_5 N 0.6051(9) 0.8859(5) 0.2459(7)
O3_5 O 0.8019(4) 0.9473(2) 0.2615(3)
O4_5 O 0.8665(4) 0.9930(2) 0.2589(3)
O7_5 O 0.7400(4) 0.9668(2) 0.1721(3)
O13_5 O 0.6669(6) 0.9273(3) 0.2246(4)
Cu1_3 Cu 0.72473(7) 0.97254(4) 0.23259(5)
O16_3 O 0.7179(4) 0.9865(3) 0.2941(3)
H56_5 H 0.545217 0.913229 0.285975
H57_5 H 0.539307 0.865482 0.285874
H58_5 H 0.605485 0.887025 0.321825
H63_5 H 0.680379 0.930401 0.277157
H64_5 H 0.643672 0.85039 0.211521
H65_5 H 0.566193 0.841641 0.21154
H66_5 H 0.583034 0.877204 0.177195
C37_5 C 0.7537(7) 0.9912(4) 0.8188(5)
C38_5 C 0.7523(7) 0.9877(4) 0.8680(5)
C39_5 C 0.7987(7) 0.9694(4) 0.8998(4)
H33_5 H 0.8302 0.9577 0.8896
C40_5 C 0.7998(8) 0.9678(5) 0.9453(5)
C41_5 C 0.7534(8) 0.9849(5) 0.9609(5)
C44_5 C 0.8521(9) 0.9486(6) 0.9794(5)
H35_5 H 0.8839 0.9422 0.9641
H37_5 H 0.8364 0.9267 0.9904
H48_5 H 0.6800 0.9318 0.9733
O6_3 O 0.7937(4) 0.9731(3) 0.8067(3)
Cu5_3 Cu 0.79856(7) 0.97215(4) 0.74246(5)
C9_6 C 0.0456(10) 0.5578(6) 0.3886(9)
H6_6 H 0.0552 0.5361 0.3734
H7_6 H 0.0428 0.5518 0.4198
H8_6 H 0.0782 0.5757 0.3908
C10_6 C 0.1718(7) 0.7047(4) 0.4572(5)
C11_6 C 0.1234(7) 0.6788(4) 0.4314(5)
C12_6 C 0.0788(8) 0.6672(5) 0.4501(6)
H9_6 H 0.0803 0.6738 0.4810
C13_6 C 0.0299(9) 0.6457(5) 0.4248(7)
C14_6 C 0.0303(8) 0.6343(5) 0.3821(6)
C15_6 C 0.0772(8) 0.6456(5) 0.3614(6)
C16_6 C 0.1214(7) 0.6678(5) 0.3876(6)
H10_6 H 0.1527 0.6761 0.3744
H12_6 H 0.0020 0.6287 0.4797
C18_6 C 0.0768(10) 0.6332(7) 0.3141(7)
H14_6 H 0.1179 0.6363 0.3096
H15_6 H 0.0653 0.6077 0.3107
H16_6 H 0.0469 0.6474 0.2910
C61_6 C 0.3668(13) 0.7532(7) 0.4198(9)
C62_6 C 0.4542(11) 0.7928(6) 0.3955(8)
C63_6 C 0.3779(11) 0.7277(7) 0.3410(8)
N3_6 N 0.4049(9) 0.7534(5) 0.3828(7)
O11_6 O 0.2151(4) 0.7124(3) 0.4387(4)
O12_4 O 0.1661(4) 0.7176(2) 0.4945(3)
O15_6 O 0.3291(6) 0.7410(3) 0.4166(4)
O18_4 O 0.3239(4) 0.7085(2) 0.5076(3)
O20_4 O 0.3339(4) 0.7824(2) 0.5055(3)
H49_6 H 0.385416 0.768335 0.451599
H50_6 H 0.484388 0.790722 0.430502
H51_6 H 0.481862 0.794421 0.37092
H52_6 H 0.425928 0.816895 0.392697
H59_6 H 0.331044 0.735893 0.323497
H60_6 H 0.406203 0.7291 0.316846
H61_6 H 0.377637 0.700197 0.353526
C1_6 C 0.8308(7) 0.5407(4) 0.2925(5)
C2_6 C 0.8835(6) 0.5647(4) 0.3125(5)
C3_6 C 0.8780(7) 0.6018(4) 0.3055(6)
H1_6 H 0.8414 0.6117 0.2857
C4_6 C 0.9267(8) 0.6243(4) 0.3277(7)
C5_6 C 0.9801(7) 0.6106(4) 0.3560(6)
C6_6 C 0.9873(8) 0.5726(5) 0.3617(6)
C7_6 C 0.9375(7) 0.5504(4) 0.3390(6)
H2_6 H 0.9415 0.5250 0.3422
C8_6 C 0.9201(10) 0.6648(5) 0.3199(9)
H3_6 H 0.8829 0.6698 0.2949
H4_6 H 0.9561 0.6741 0.3113
H5_6 H 0.9169 0.6766 0.3484
C17_6 C 0.9840(13) 0.6308(8) 0.4462(10)
H11_6 H 0.9711 0.6069 0.4332
H13_6 H 0.9482 0.6468 0.4401
C19_6 C 0.6455(7) 0.4607(4) 0.2314(4)
C20_6 C 0.5915(6) 0.4375(4) 0.2096(4)
C21_6 C 0.6023(6) 0.4018(4) 0.1981(5)
H17_6 H 0.6429 0.3923 0.2065
C22_6 C 0.5532(6) 0.3805(4) 0.1743(5)
C23_6 C 0.4949(7) 0.3949(4) 0.1611(5)
C24_6 C 0.4824(7) 0.4306(4) 0.1736(5)
C25_6 C 0.5321(6) 0.4506(4) 0.1978(5)
H18_6 H 0.5252 0.4744 0.2067
C26_6 C 0.5663(8) 0.3419(4) 0.1620(7)
H19_6 H 0.6062 0.3341 0.1819
H20_6 H 0.5671 0.3408 0.1295
H21_6 H 0.5339 0.3259 0.1666
C27_6 C 0.4182(7) 0.4450(5) 0.1609(7)
H22_6 H 0.4173 0.4679 0.1768
H23_6 H 0.3910 0.4277 0.1702
H24_6 H 0.4042 0.4487 0.1274
C28_6 C 0.3137(7) 0.2991(3) 0.0466(5)
C29_6 C 0.3582(6) 0.3262(3) 0.0757(5)
C30_6 C 0.3660(7) 0.3269(4) 0.1232(5)
H25_6 H 0.3416 0.3117 0.1365
C31_6 C 0.4092(7) 0.3497(4) 0.1517(5)
C32_6 C 0.4433(7) 0.3723(4) 0.1306(5)
C33_6 C 0.4342(7) 0.3724(4) 0.0834(5)
C34_6 C 0.3926(6) 0.3486(4) 0.0563(5)
H26_6 H 0.3879 0.3477 0.0239
C35_6 C 0.4175(9) 0.3487(5) 0.2040(6)
H27_6 H 0.4255 0.3731 0.2167
H28_6 H 0.4524 0.3330 0.2185
H29_6 H 0.3800 0.3392 0.2102
C36_6 C 0.4725(8) 0.3966(5) 0.0607(6)
H30_6 H 0.4776 0.4203 0.0757
H31_6 H 0.4513 0.3994 0.0277
H32_6 H 0.5129 0.3856 0.0640
C37_6 C 0.7463(7) 0.4912(4) 0.6812(5)
C38_6 C 0.7477(7) 0.4877(4) 0.6320(5)
C39_6 C 0.7013(7) 0.4694(4) 0.6002(4)
H33_6 H 0.6698 0.4577 0.6104
C40_6 C 0.7002(8) 0.4678(5) 0.5547(5)
C41_6 C 0.7466(8) 0.4849(5) 0.5391(5)
C42_6 C 0.7945(8) 0.5010(5) 0.5705(5)
C43_6 C 0.7961(8) 0.5021(5) 0.6173(5)
H34_6 H 0.8302 0.5127 0.6391
C44_6 C 0.6479(9) 0.4486(6) 0.5206(5)
H35_6 H 0.6161 0.4422 0.5359
H36_6 H 0.6302 0.4644 0.4943
H37_6 H 0.6636 0.4267 0.5096
C45_6 C 0.8486(9) 0.5171(7) 0.5556(6)
H38_6 H 0.8488 0.5074 0.5253
H39_6 H 0.8443 0.5433 0.5537
H40_6 H 0.8872 0.5108 0.5784
C46_6 C 0.7350(7) 0.4922(4) 0.3449(4)
C47_6 C 0.7356(7) 0.4885(4) 0.3951(4)
C48_6 C 0.7105(7) 0.5161(4) 0.4147(5)
H41_6 H 0.6908 0.5358 0.3964
C49_6 C 0.7144(8) 0.5146(5) 0.4628(5)
C50_6 C 0.7433(8) 0.4853(5) 0.4891(5)
C51_6 C 0.7678(8) 0.4579(5) 0.4678(5)
C52_6 C 0.7627(8) 0.4593(5) 0.4206(5)
H42_6 H 0.7779 0.4401 0.4060
C53_6 C 0.6891(10) 0.5452(5) 0.4849(6)
H43_6 H 0.7170 0.5503 0.5155
H44_6 H 0.6485 0.5386 0.4884
H45_6 H 0.6853 0.5667 0.4654
C54_6 C 0.7970(13) 0.4245(7) 0.4954(7)
H46_6 H 0.8251 0.4130 0.4798
H47_6 H 0.7646 0.4075 0.4973
H48_6 H 0.8200 0.4318 0.5267
C55_6 C 0.8428(12) 0.4192(7) 0.2566(10)
C56_6 C 0.9008(11) 0.3626(7) 0.2903(8)
C57_6 C 0.9292(11) 0.3881(6) 0.2114(8)
C58_6 C 0.6552(12) 0.5934(7) 0.2699(9)
C59_6 C 0.6744(11) 0.6637(7) 0.2810(8)
C60_6 C 0.5928(11) 0.6358(7) 0.2230(9)
N1_6 N 0.8949(9) 0.3859(5) 0.2541(7)
N2_6 N 0.6392(9) 0.6365(5) 0.2628(7)
O1_6 O 0.8406(4) 0.5073(3) 0.2957(3)
O2_6 O 0.7784(4) 0.5549(3) 0.2743(3)
O3_6 O 0.6981(4) 0.4473(2) 0.2385(3)
O4_6 O 0.6335(4) 0.4930(2) 0.2411(3)
O5_4 O 0.7821(4) 0.5135(3) 0.7059(3)
O6_4 O 0.7063(4) 0.4731(3) 0.6933(3)
O7_6 O 0.7600(4) 0.4668(2) 0.3279(3)
O8_6 O 0.7097(5) 0.5195(3) 0.3233(3)
O9_4 O 0.3239(4) 0.2915(2) 0.0076(3)
O13_6 O 0.8331(6) 0.4273(3) 0.2754(4)
O14_6 O 0.6473(6) 0.5750(3) 0.2502(4)
Cu1_4 Cu 0.77527(7) 0.47254(4) 0.26741(5)
Cu2_4 Cu 0.70144(7) 0.52785(4) 0.25754(5)
O16_4 O 0.7821(4) 0.4865(3) 0.2059(3)
O17_4 O 0.7063(4) 0.5269(3) 0.1933(3)
Cu4_4 Cu 0.77527(7) 0.52746(4) 0.76741(5)
Cu5_4 Cu 0.70144(7) 0.47215(4) 0.75754(5)
H53_6 H 0.716659 0.662825 0.270098
H54_6 H 0.650247 0.688825 0.269438
H55_6 H 0.685564 0.662068 0.318598
H56_6 H 0.954783 0.413229 0.214025
H57_6 H 0.960693 0.365482 0.214126
H58_6 H 0.894515 0.387025 0.178175
H62_6 H 0.679988 0.586 0.305131
H63_6 H 0.819621 0.430401 0.222843
H64_6 H 0.856328 0.35039 0.288479
H65_6 H 0.933807 0.341641 0.28846
H66_6 H 0.916966 0.377204 0.322805
H67_6 H 0.55491 0.619664 0.228173
H68_6 H 0.576842 0.663136 0.213526
H69_6 H 0.609464 0.624038 0.195406
C23_7 C 0.0051(7) 0.1051(4) 0.8389(5)
C24_7 C 0.0176(7) 0.0694(4) 0.8264(5)
C27_7 C 0.0818(7) 0.0550(5) 0.8391(7)
H22_7 H 0.0827 0.0321 0.8232
H23_7 H 0.1090 0.0723 0.8298
H24_7 H 0.0958 0.0513 0.8726
C28_7 C 0.1863(7) 0.2009(3) 0.9534(5)
C29_7 C 0.1418(6) 0.1738(3) 0.9243(5)
C30_7 C 0.1340(7) 0.1731(4) 0.8768(5)
H25_7 H 0.1584 0.1883 0.8635
C31_7 C 0.0908(7) 0.1503(4) 0.8483(5)
C32_7 C 0.0567(7) 0.1277(4) 0.8694(5)
C33_7 C 0.0658(7) 0.1276(4) 0.9166(5)
C34_7 C 0.1074(6) 0.1514(4) 0.9437(5)
H26_7 H 0.1121 0.1523 0.9761
C35_7 C 0.0825(9) 0.1513(5) 0.7960(6)
H27_7 H 0.0745 0.1269 0.7833
H28_7 H 0.0476 0.1670 0.7815
H29_7 H 0.1200 0.1608 0.7898
C36_7 C 0.0275(8) 0.1034(5) 0.9393(6)
H30_7 H 0.0224 0.0797 0.9243
H31_7 H 0.0487 0.1006 0.9723
O10_4 O 0.2244(4) 0.2151(3) 0.9360(3)
C19_7 C 0.8545(7) 0.0393(4) 0.7686(4)
C20_7 C 0.9085(6) 0.0625(4) 0.7904(4)
C21_7 C 0.8977(6) 0.0982(4) 0.8019(5)
H17_7 H 0.8571 0.1077 0.7935
C22_7 C 0.9468(6) 0.1195(4) 0.8257(5)
C25_7 C 0.9679(6) 0.0494(4) 0.8022(5)
H18_7 H 0.9748 0.0256 0.7933
C26_7 C 0.9337(8) 0.1581(4) 0.8380(7)
H19_7 H 0.8938 0.1659 0.8181
H20_7 H 0.9329 0.1592 0.8705
H21_7 H 0.9661 0.1741 0.8334
H32_7 H 0.9871 0.1144 0.9360
C37_7 C 0.7537(7) 0.0088(4) 0.3188(5)
C38_7 C 0.7523(7) 0.0123(4) 0.3680(5)
C39_7 C 0.7987(7) 0.0306(4) 0.3998(4)
H33_7 H 0.8302 0.0423 0.3896
C40_7 C 0.7998(8) 0.0322(5) 0.4453(5)
C41_7 C 0.7534(8) 0.0151(5) 0.4609(5)
C44_7 C 0.8521(9) 0.0514(6) 0.4794(5)
H35_7 H 0.8839 0.0578 0.4641
H36_7 H 0.8698 0.0356 0.5057
H37_7 H 0.8364 0.0733 0.4904
C46_7 C 0.7650(7) 0.0078(4) 0.6551(4)
C47_7 C 0.7644(7) 0.0115(4) 0.6049(4)
C50_7 C 0.7567(8) 0.0147(5) 0.5109(5)
C51_7 C 0.7322(8) 0.0421(5) 0.5322(5)
C52_7 C 0.7373(8) 0.0407(5) 0.5794(5)
H42_7 H 0.7221 0.0599 0.5940
C54_7 C 0.7030(13) 0.0755(7) 0.5046(7)
H46_7 H 0.6749 0.0870 0.5202
H47_7 H 0.7354 0.0925 0.5027
H48_7 H 0.6800 0.0682 0.4733
C55_7 C 0.6572(12) 0.0808(7) 0.7434(10)
C56_7 C 0.5992(11) 0.1374(7) 0.7097(8)
C57_7 C 0.5708(11) 0.1119(6) 0.7886(8)
N1_7 N 0.6051(9) 0.1141(5) 0.7459(7)
O3_7 O 0.8019(4) 0.0527(2) 0.7615(3)
O4_7 O 0.8665(4) 0.0070(2) 0.7589(3)
O7_7 O 0.7400(4) 0.0332(2) 0.6721(3)
O13_7 O 0.6669(6) 0.0727(3) 0.7246(4)
H56_7 H 0.545217 0.0867708 0.785975
H57_7 H 0.539307 0.134518 0.785874
H58_7 H 0.605485 0.112975 0.821825
H63_7 H 0.680379 0.0695986 0.777157
H64_7 H 0.643672 0.14961 0.711521
H65_7 H 0.566193 0.158359 0.71154
H66_7 H 0.583034 0.122796 0.677195
C1_7 C 0.6692(7) 0.9593(4) 0.7075(5)
C2_7 C 0.6165(6) 0.9353(4) 0.6875(5)
C3_7 C 0.6220(7) 0.8982(4) 0.6945(6)
H1_7 H 0.6586 0.8883 0.7143
C4_7 C 0.5733(8) 0.8757(4) 0.6723(7)
C5_7 C 0.5199(7) 0.8894(4) 0.6440(6)
C6_7 C 0.5127(8) 0.9274(5) 0.6383(6)
C7_7 C 0.5625(7) 0.9496(4) 0.6610(6)
H2_7 H 0.5585 0.9750 0.6578
C8_7 C 0.5799(10) 0.8352(5) 0.6801(9)
H3_7 H 0.6171 0.8302 0.7051
H4_7 H 0.5439 0.8259 0.6887
H5_7 H 0.5831 0.8234 0.6516
C9_7 C 0.4544(10) 0.9422(6) 0.6114(9)
H6_7 H 0.4448 0.9639 0.6266
H7_7 H 0.4572 0.9482 0.5802
H8_7 H 0.4218 0.9243 0.6092
C10_7 C 0.3282(7) 0.7953(4) 0.5428(5)
C11_7 C 0.3766(7) 0.8212(4) 0.5686(5)
C12_7 C 0.4212(8) 0.8328(5) 0.5499(6)
H9_7 H 0.4197 0.8262 0.5190
C13_7 C 0.4701(9) 0.8543(5) 0.5752(7)
C14_7 C 0.4697(8) 0.8657(5) 0.6179(6)
C15_7 C 0.4228(8) 0.8544(5) 0.6386(6)
C16_7 C 0.3786(7) 0.8322(5) 0.6124(6)
H10_7 H 0.3473 0.8239 0.6256
C17_7 C 0.5160(13) 0.8692(8) 0.5538(10)
H11_7 H 0.5289 0.8931 0.5668
H12_7 H 0.4980 0.8713 0.5203
H13_7 H 0.5518 0.8532 0.5599
C18_7 C 0.4232(10) 0.8668(7) 0.6859(7)
H14_7 H 0.3821 0.8637 0.6904
H15_7 H 0.4347 0.8923 0.6893
H16_7 H 0.4531 0.8526 0.7090
C42_7 C 0.7055(8) 0.9990(5) 0.4295(5)
C43_7 C 0.7039(8) 0.9979(5) 0.3827(5)
H34_7 H 0.6698 0.9873 0.3609
C45_7 C 0.6514(9) 0.9829(7) 0.4444(6)
H38_7 H 0.6512 0.9926 0.4747
H39_7 H 0.6557 0.9567 0.4463
H40_7 H 0.6128 0.9892 0.4216
C48_7 C 0.7895(7) 0.9839(4) 0.5853(5)
H41_7 H 0.8092 0.9642 0.6036
C49_7 C 0.7856(8) 0.9854(5) 0.5372(5)
C53_7 C 0.8109(10) 0.9548(5) 0.5151(6)
H43_7 H 0.7830 0.9497 0.4845
H44_7 H 0.8515 0.9614 0.5116
H45_7 H 0.8147 0.9333 0.5346
C58_7 C 0.8448(12) 0.9066(7) 0.7301(9)
C59_7 C 0.8256(11) 0.8363(7) 0.7190(8)
C60_7 C 0.9072(11) 0.8642(7) 0.7770(9)
C61_7 C 0.1332(13) 0.7468(7) 0.5802(9)
C62_7 C 0.0458(11) 0.7072(6) 0.6045(8)
C63_7 C 0.1221(11) 0.7723(7) 0.6590(8)
N2_7 N 0.8608(9) 0.8635(5) 0.7372(7)
N3_7 N 0.0951(9) 0.7466(5) 0.6172(7)
O1_7 O 0.6594(4) 0.9927(3) 0.7043(3)
O2_7 O 0.7216(4) 0.9451(3) 0.7257(3)
O8_7 O 0.7903(5) 0.9805(3) 0.6767(3)
O11_7 O 0.2849(4) 0.7876(3) 0.5613(4)
O14_7 O 0.8527(6) 0.9250(3) 0.7498(4)
O15_7 O 0.1709(6) 0.7590(3) 0.5834(4)
O19_4 O 0.2756(4) 0.7151(3) 0.5640(3)
H49_7 H 0.114584 0.731665 0.548401
H50_7 H 0.0156122 0.709278 0.569498
H51_7 H 0.0181383 0.705579 0.62908
H52_7 H 0.0740723 0.683105 0.607303
H53_7 H 0.783341 0.837175 0.729902
H54_7 H 0.849753 0.811175 0.730562
H55_7 H 0.814436 0.837932 0.681402
H59_7 H 0.168956 0.764107 0.676503
H60_7 H 0.0937974 0.7709 0.683154
H61_7 H 0.122363 0.799803 0.646474
H62_7 H 0.820012 0.914 0.694869
H67_7 H 0.94509 0.880336 0.771827
H68_7 H 0.923158 0.836864 0.786474
H69_7 H 0.890536 0.875962 0.804594
C9_8 C 0.0456(10) 0.4422(6) 0.8886(9)
H6_8 H 0.0552 0.4639 0.8734
H7_8 H 0.0428 0.4482 0.9198
H8_8 H 0.0782 0.4243 0.8908
C10_8 C 0.1718(7) 0.2953(4) 0.9572(5)
C11_8 C 0.1234(7) 0.3212(4) 0.9314(5)
C12_8 C 0.0788(8) 0.3328(5) 0.9501(6)
H9_8 H 0.0803 0.3262 0.9810
C13_8 C 0.0299(9) 0.3543(5) 0.9248(7)
C14_8 C 0.0303(8) 0.3657(5) 0.8821(6)
C15_8 C 0.0772(8) 0.3544(5) 0.8614(6)
C16_8 C 0.1214(7) 0.3322(5) 0.8876(6)
H10_8 H 0.1527 0.3239 0.8744
H12_8 H 0.0020 0.3713 0.9797
C18_8 C 0.0768(10) 0.3668(7) 0.8141(7)
H14_8 H 0.1179 0.3637 0.8096
H15_8 H 0.0653 0.3923 0.8107
H16_8 H 0.0469 0.3526 0.7910
C61_8 C 0.3668(13) 0.2468(7) 0.9198(9)
C62_8 C 0.4542(11) 0.2072(6) 0.8955(8)
C63_8 C 0.3779(11) 0.2723(7) 0.8410(8)
N3_8 N 0.4049(9) 0.2466(5) 0.8828(7)
O11_8 O 0.2151(4) 0.2876(3) 0.9387(4)
O15_8 O 0.3291(6) 0.2590(3) 0.9166(4)
H49_8 H 0.385416 0.231665 0.951599
H50_8 H 0.484388 0.209278 0.930502
H51_8 H 0.481862 0.205579 0.87092
H52_8 H 0.425928 0.183105 0.892697
H59_8 H 0.331044 0.264107 0.823497
H60_8 H 0.406203 0.2709 0.816846
H61_8 H 0.377637 0.299803 0.853526
C37_8 C 0.7463(7) 0.5088(4) 0.1812(5)
C38_8 C 0.7477(7) 0.5123(4) 0.1320(5)
C39_8 C 0.7013(7) 0.5306(4) 0.1002(4)
H33_8 H 0.6698 0.5423 0.1104
C40_8 C 0.7002(8) 0.5322(5) 0.0547(5)
C41_8 C 0.7466(8) 0.5151(5) 0.0391(5)
C42_8 C 0.7945(8) 0.4990(5) 0.0705(5)
C43_8 C 0.7961(8) 0.4979(5) 0.1173(5)
H34_8 H 0.8302 0.4873 0.1391
C44_8 C 0.6479(9) 0.5514(6) 0.0206(5)
H35_8 H 0.6161 0.5578 0.0359
H37_8 H 0.6636 0.5733 0.0096
C45_8 C 0.8486(9) 0.4829(7) 0.0556(6)
H38_8 H 0.8488 0.4926 0.0253
H39_8 H 0.8443 0.4567 0.0537
H40_8 H 0.8872 0.4892 0.0784
H43_8 H 0.7170 0.4497 0.0155
H48_8 H 0.8200 0.5682 0.0267
C1_8 C 0.8308(7) 0.4593(4) 0.7925(5)
C2_8 C 0.8835(6) 0.4353(4) 0.8125(5)
C3_8 C 0.8780(7) 0.3982(4) 0.8055(6)
H1_8 H 0.8414 0.3883 0.7857
C4_8 C 0.9267(8) 0.3757(4) 0.8277(7)
C5_8 C 0.9801(7) 0.3894(4) 0.8560(6)
C6_8 C 0.9873(8) 0.4274(5) 0.8617(6)
C7_8 C 0.9375(7) 0.4496(4) 0.8390(6)
H2_8 H 0.9415 0.4750 0.8422
C8_8 C 0.9201(10) 0.3352(5) 0.8199(9)
H3_8 H 0.8829 0.3302 0.7949
H4_8 H 0.9561 0.3259 0.8113
H5_8 H 0.9169 0.3234 0.8484
C17_8 C 0.9840(13) 0.3692(8) 0.9462(10)
H11_8 H 0.9711 0.3931 0.9332
H13_8 H 0.9482 0.3532 0.9401
C19_8 C 0.6455(7) 0.5393(4) 0.7314(4)
C20_8 C 0.5915(6) 0.5625(4) 0.7096(4)
C21_8 C 0.6023(6) 0.5982(4) 0.6981(5)
H17_8 H 0.6429 0.6077 0.7065
C22_8 C 0.5532(6) 0.6195(4) 0.6743(5)
C23_8 C 0.4949(7) 0.6051(4) 0.6611(5)
C24_8 C 0.4824(7) 0.5694(4) 0.6736(5)
C25_8 C 0.5321(6) 0.5494(4) 0.6978(5)
H18_8 H 0.5252 0.5256 0.7067
C26_8 C 0.5663(8) 0.6581(4) 0.6620(7)
H19_8 H 0.6062 0.6659 0.6819
H20_8 H 0.5671 0.6592 0.6295
H21_8 H 0.5339 0.6741 0.6666
C27_8 C 0.4182(7) 0.5550(5) 0.6609(7)
H22_8 H 0.4173 0.5321 0.6768
H23_8 H 0.3910 0.5723 0.6702
H24_8 H 0.4042 0.5513 0.6274
C28_8 C 0.3137(7) 0.7009(3) 0.5466(5)
C29_8 C 0.3582(6) 0.6738(3) 0.5757(5)
C30_8 C 0.3660(7) 0.6731(4) 0.6232(5)
H25_8 H 0.3416 0.6883 0.6365
C31_8 C 0.4092(7) 0.6503(4) 0.6517(5)
C32_8 C 0.4433(7) 0.6277(4) 0.6306(5)
C33_8 C 0.4342(7) 0.6276(4) 0.5834(5)
C34_8 C 0.3926(6) 0.6514(4) 0.5563(5)
H26_8 H 0.3879 0.6523 0.5239
C35_8 C 0.4175(9) 0.6513(5) 0.7040(6)
H27_8 H 0.4255 0.6269 0.7167
H28_8 H 0.4524 0.6670 0.7185
H29_8 H 0.3800 0.6608 0.7102
C36_8 C 0.4725(8) 0.6034(5) 0.5607(6)
H30_8 H 0.4776 0.5797 0.5757
H31_8 H 0.4513 0.6006 0.5277
H32_8 H 0.5129 0.6144 0.5640
H36_8 H 0.6302 0.5356 0.9943
C46_8 C 0.7350(7) 0.5078(4) 0.8449(4)
C47_8 C 0.7356(7) 0.5115(4) 0.8951(4)
C48_8 C 0.7105(7) 0.4839(4) 0.9147(5)
H41_8 H 0.6908 0.4642 0.8964
C49_8 C 0.7144(8) 0.4854(5) 0.9628(5)
C50_8 C 0.7433(8) 0.5147(5) 0.9891(5)
C51_8 C 0.7678(8) 0.5421(5) 0.9678(5)
C52_8 C 0.7627(8) 0.5407(5) 0.9206(5)
H42_8 H 0.7779 0.5599 0.9060
C53_8 C 0.6891(10) 0.4548(5) 0.9849(6)
H44_8 H 0.6485 0.4614 0.9884
H45_8 H 0.6853 0.4333 0.9654
C54_8 C 0.7970(13) 0.5755(7) 0.9954(7)
H46_8 H 0.8251 0.5870 0.9798
H47_8 H 0.7646 0.5925 0.9973
C55_8 C 0.8428(12) 0.5808(7) 0.7566(10)
C56_8 C 0.9008(11) 0.6374(7) 0.7903(8)
C57_8 C 0.9292(11) 0.6119(6) 0.7114(8)
C58_8 C 0.6552(12) 0.4066(7) 0.7699(9)
C59_8 C 0.6744(11) 0.3363(7) 0.7810(8)
C60_8 C 0.5928(11) 0.3642(7) 0.7230(9)
N1_8 N 0.8949(9) 0.6141(5) 0.7541(7)
N2_8 N 0.6392(9) 0.3635(5) 0.7628(7)
O1_8 O 0.8406(4) 0.4927(3) 0.7957(3)
O2_8 O 0.7784(4) 0.4451(3) 0.7743(3)
O3_8 O 0.6981(4) 0.5527(2) 0.7385(3)
O4_8 O 0.6335(4) 0.5070(2) 0.7411(3)
O7_8 O 0.7600(4) 0.5332(2) 0.8279(3)
O8_8 O 0.7097(5) 0.4805(3) 0.8233(3)
O13_8 O 0.8331(6) 0.5727(3) 0.7754(4)
O14_8 O 0.6473(6) 0.4250(3) 0.7502(4)
H53_8 H 0.716659 0.337175 0.770098
H54_8 H 0.650247 0.311175 0.769438
H55_8 H 0.685564 0.337932 0.818598
H56_8 H 0.954783 0.586771 0.714025
H57_8 H 0.960693 0.634518 0.714126
H58_8 H 0.894515 0.612975 0.678175
H62_8 H 0.679988 0.414 0.805131
H63_8 H 0.819621 0.569599 0.722843
H64_8 H 0.856328 0.64961 0.788479
H65_8 H 0.933807 0.658359 0.78846
H66_8 H 0.916966 0.622796 0.822805
H67_8 H 0.55491 0.380336 0.728173
H68_8 H 0.576842 0.336864 0.713526
H69_8 H 0.609464 0.375962 0.695406
loop_
_geom_bond_atom_site_label_1
_geom_bond_atom_site_label_2
_geom_bond_site_symmetry_1
_geom_bond_site_symmetry_2
C1 C2 1_555 1_555
C2 C3 1_555 1_555
C3 H1 1_555 1_555
C4 C3 1_555 1_555
C5 C4 1_555 1_555
C6 C5 1_555 1_555
C7 C2 1_555 1_555
H2 C7 1_555 1_555
C8 C4 1_555 1_555
H3 C8 1_555 1_555
H4 C8 1_555 1_555
H5 C8 1_555 1_555
C9 C6 1_555 1_555
H6 C9 1_555 1_555
H7 C9 1_555 1_555
H8 C9 1_555 1_555
C10 C11 1_555 1_555
C11 C12 1_555 1_555
C12 H9 1_555 1_555
C13 C12 1_555 1_555
C14 C5 1_555 1_555
C15 C14 1_555 1_555
C16 C11 1_555 1_555
H10 C16 1_555 1_555
C17 C13 1_555 1_555
H11 C17 1_555 1_555
H12 C17 1_555 1_555
H13 C17 1_555 1_555
C18 C15 1_555 1_555
H14 C18 1_555 1_555
H15 C18 1_555 1_555
H16 C18 1_555 1_555
H34 C43 1_555 1_555
C45 C42 1_555 1_555
H38 C45 1_555 1_555
H39 C45 1_555 1_555
H40 C45 1_555 1_555
C48 H41 1_555 1_555
C49 C48 1_555 1_555
C53 C49 1_555 1_555
H43 C53 1_555 1_555
H44 C53 1_555 1_555
H45 C53 1_555 1_555
C58 N2 1_555 1_555
C59 N2 1_555 1_555
C60 N2 1_555 1_555
C61 N3 1_555 1_555
C62 N3 1_555 1_555
C63 N3 1_555 1_555
O1 C1 1_555 1_555
O2 C1 1_555 1_555
O11 C10 1_555 1_555
O12 C10 1_555 1_555
O14 C58 1_555 1_555
O15 C61 1_555 1_555
Cu2 O2 1_555 1_555
Cu3 O11 1_555 1_555
O17 Cu2 1_555 1_555
O18 Cu3 1_555 1_555
O19 Cu3 1_555 1_555
O20 Cu3 1_555 1_555
Cu4 O5 1_555 1_555
Cu8 O12 1_555 1_555
C6 C7 1_555 1_555
C13 C14 1_555 1_555
C15 C16 1_555 1_555
C42 C43 1_555 1_555
O8 Cu2 1_555 1_555
O14 Cu2 1_555 1_555
O15 Cu3 1_555 1_555
Cu3 Cu8 1_555 1_555
C61 H49 1_555 1_555
C62 H50 1_555 1_555
C62 H51 1_555 1_555
C62 H52 1_555 1_555
C59 H53 1_555 1_555
C59 H54 1_555 1_555
C59 H55 1_555 1_555
C63 H59 1_555 1_555
C63 H60 1_555 1_555
C63 H61 1_555 1_555
C58 H62 1_555 1_555
C60 H67 1_555 1_555
C60 H68 1_555 1_555
C60 H69 1_555 1_555
C19 C20 1_555 1_555
C20 C21 1_555 1_555
C21 H17 1_555 1_555
C22 C21 1_555 1_555
C25 C20 1_555 1_555
H18 C25 1_555 1_555
C26 C22 1_555 1_555
H19 C26 1_555 1_555
H20 C26 1_555 1_555
H21 C26 1_555 1_555
C37 C38 1_555 1_555
C38 C39 1_555 1_555
C39 H33 1_555 1_555
C40 C39 1_555 1_555
C41 C40 1_555 1_555
C44 C40 1_555 1_555
H35 C44 1_555 1_555
H36 C44 1_555 1_555
H37 C44 1_555 1_555
C46 C47 1_555 1_555
C50 C41 1_555 1_555
C51 C50 1_555 1_555
C52 C47 1_555 1_555
H42 C52 1_555 1_555
C54 C51 1_555 1_555
H46 C54 1_555 1_555
H47 C54 1_555 1_555
H48 C54 1_555 1_555
C55 N1 1_555 1_555
C56 N1 1_555 1_555
C57 N1 1_555 1_555
O3 C19 1_555 1_555
O4 C19 1_555 1_555
O6 C37 1_555 1_555
O7 C46 1_555 1_555
O13 C55 1_555 1_555
O16 Cu1 1_555 1_555
Cu5 O6 1_555 1_555
C51 C52 1_555 1_555
O3 Cu1 1_555 1_555
O7 Cu1 1_555 1_555
O13 Cu1 1_555 1_555
C57 H56 1_555 1_555
C57 H57 1_555 1_555
C57 H58 1_555 1_555
C55 H63 1_555 1_555
C56 H64 1_555 1_555
C56 H65 1_555 1_555
C56 H66 1_555 1_555
C24 C23 1_555 1_555
C27 C24 1_555 1_555
H22 C27 1_555 1_555
H23 C27 1_555 1_555
H24 C27 1_555 1_555
C28 C29 1_555 1_555
C29 C30 1_555 1_555
C30 H25 1_555 1_555
C31 C30 1_555 1_555
C32 C23 1_555 1_555
C33 C32 1_555 1_555
C34 C29 1_555 1_555
H26 C34 1_555 1_555
C35 C31 1_555 1_555
H27 C35 1_555 1_555
H28 C35 1_555 1_555
H29 C35 1_555 1_555
C36 C33 1_555 1_555
H30 C36 1_555 1_555
H31 C36 1_555 1_555
O9 C28 1_555 1_555
O10 C28 1_555 1_555
Cu7 O10 1_555 1_555
C31 C32 1_555 1_555
C33 C34 1_555 1_555
C1_2 C2_2 1_555 1_555
C2_2 C3_2 1_555 1_555
C3_2 H1_2 1_555 1_555
C4_2 C3_2 1_555 1_555
C5_2 C4_2 1_555 1_555
C6_2 C5_2 1_555 1_555
C7_2 C2_2 1_555 1_555
H2_2 C7_2 1_555 1_555
C8_2 C4_2 1_555 1_555
H3_2 C8_2 1_555 1_555
H4_2 C8_2 1_555 1_555
H5_2 C8_2 1_555 1_555
H11_2 C17_2 1_555 1_555
H13_2 C17_2 1_555 1_555
C19_2 C20_2 1_555 1_555
C20_2 C21_2 1_555 1_555
C21_2 H17_2 1_555 1_555
C22_2 C21_2 1_555 1_555
C23_2 C22_2 1_555 1_555
C24_2 C23_2 1_555 1_555
C25_2 C20_2 1_555 1_555
H18_2 C25_2 1_555 1_555
C26_2 C22_2 1_555 1_555
H19_2 C26_2 1_555 1_555
H20_2 C26_2 1_555 1_555
H21_2 C26_2 1_555 1_555
C27_2 C24_2 1_555 1_555
H22_2 C27_2 1_555 1_555
H23_2 C27_2 1_555 1_555
H24_2 C27_2 1_555 1_555
C28_2 C29_2 1_555 1_555
C29_2 C30_2 1_555 1_555
C30_2 H25_2 1_555 1_555
C31_2 C30_2 1_555 1_555
C32_2 C23_2 1_555 1_555
C33_2 C32_2 1_555 1_555
C34_2 C29_2 1_555 1_555
H26_2 C34_2 1_555 1_555
C35_2 C31_2 1_555 1_555
H27_2 C35_2 1_555 1_555
H28_2 C35_2 1_555 1_555
H29_2 C35_2 1_555 1_555
C36_2 C33_2 1_555 1_555
H30_2 C36_2 1_555 1_555
H31_2 C36_2 1_555 1_555
H32_2 C36_2 1_555 1_555
C46_2 C47_2 1_555 1_555
C47_2 C48_2 1_555 1_555
C48_2 H41_2 1_555 1_555
C49_2 C48_2 1_555 1_555
C51_2 C50_2 1_555 1_555
C52_2 C47_2 1_555 1_555
H42_2 C52_2 1_555 1_555
C53_2 C49_2 1_555 1_555
H44_2 C53_2 1_555 1_555
H45_2 C53_2 1_555 1_555
C54_2 C51_2 1_555 1_555
H46_2 C54_2 1_555 1_555
H47_2 C54_2 1_555 1_555
C55_2 N1_2 1_555 1_555
C56_2 N1_2 1_555 1_555
C57_2 N1_2 1_555 1_555
C58_2 N2_2 1_555 1_555
C59_2 N2_2 1_555 1_555
C60_2 N2_2 1_555 1_555
O1_2 C1_2 1_555 1_555
O2_2 C1_2 1_555 1_555
O3_2 C19_2 1_555 1_555
O4_2 C19_2 1_555 1_555
O7_2 C46_2 1_555 1_555
O8_2 C46_2 1_555 1_555
O9_2 C28_2 1_555 1_555
O19 C28_2 1_555 1_555
O13_2 C55_2 1_555 1_555
O14_2 C58_2 1_555 1_555
Cu1_2 O1_2 1_555 1_555
Cu2_2 O2_2 1_555 1_555
O16_2 Cu1_2 1_555 1_555
O17_2 Cu2_2 1_555 1_555
Cu8 O9_2 1_555 1_555
C6_2 C7_2 1_555 1_555
C24_2 C25_2 1_555 1_555
C31_2 C32_2 1_555 1_555
C33_2 C34_2 1_555 1_555
C49_2 C50_2 1_555 1_555
C51_2 C52_2 1_555 1_555
O3_2 Cu1_2 1_555 1_555
O4_2 Cu2_2 1_555 1_555
O7_2 Cu1_2 1_555 1_555
O8_2 Cu2_2 1_555 1_555
O13_2 Cu1_2 1_555 1_555
O14_2 Cu2_2 1_555 1_555
Cu1_2 Cu2_2 1_555 1_555
C59_2 H53_2 1_555 1_555
C59_2 H54_2 1_555 1_555
C59_2 H55_2 1_555 1_555
C57_2 H56_2 1_555 1_555
C57_2 H57_2 1_555 1_555
C57_2 H58_2 1_555 1_555
C58_2 H62_2 1_555 1_555
C55_2 H63_2 1_555 1_555
C56_2 H64_2 1_555 1_555
C56_2 H65_2 1_555 1_555
C56_2 H66_2 1_555 1_555
C60_2 H67_2 1_555 1_555
C60_2 H68_2 1_555 1_555
C60_2 H69_2 1_555 1_555
C37_2 C38_2 1_555 1_555
C38_2 C39_2 1_555 1_555
C39_2 H33_2 1_555 1_555
C40_2 C39_2 1_555 1_555
C41_2 C40_2 1_555 1_555
C42_2 C41_2 1_555 1_555
C43_2 C38_2 1_555 1_555
H34_2 C43_2 1_555 1_555
C44_2 C40_2 1_555 1_555
H35_2 C44_2 1_555 1_555
H37_2 C44_2 1_555 1_555
C45_2 C42_2 1_555 1_555
H38_2 C45_2 1_555 1_555
H39_2 C45_2 1_555 1_555
H40_2 C45_2 1_555 1_555
O5_2 C37_2 1_555 1_555
O6_2 C37_2 1_555 1_555
Cu4_2 O5_2 1_555 1_555
Cu5_2 O6_2 1_555 1_555
C42_2 C43_2 1_555 1_555
Cu4_2 Cu5_2 1_555 1_555
H6_2 C9_2 1_555 1_555
H7_2 C9_2 1_555 1_555
H8_2 C9_2 1_555 1_555
C10_2 C11_2 1_555 1_555
C11_2 C12_2 1_555 1_555
C12_2 H9_2 1_555 1_555
C13_2 C12_2 1_555 1_555
C15_2 C14_2 1_555 1_555
C16_2 C11_2 1_555 1_555
H10_2 C16_2 1_555 1_555
C18_2 C15_2 1_555 1_555
H14_2 C18_2 1_555 1_555
H15_2 C18_2 1_555 1_555
H16_2 C18_2 1_555 1_555
C61_2 N3_2 1_555 1_555
C62_2 N3_2 1_555 1_555
C63_2 N3_2 1_555 1_555
O11_2 C10_2 1_555 1_555
O12_2 C10_2 1_555 1_555
O15_2 C61_2 1_555 1_555
Cu7 O11_2 1_555 1_555
C13_2 C14_2 1_555 1_555
C15_2 C16_2 1_555 1_555
O15_2 Cu7 1_555 1_555
C61_2 H49_2 1_555 1_555
C62_2 H50_2 1_555 1_555
C62_2 H51_2 1_555 1_555
C62_2 H52_2 1_555 1_555
C63_2 H59_2 1_555 1_555
C63_2 H60_2 1_555 1_555
C63_2 H61_2 1_555 1_555
C37_3 C38_3 1_555 1_555
C38_3 C39_3 1_555 1_555
C39_3 H33_3 1_555 1_555
C40_3 C39_3 1_555 1_555
C41_3 C40_3 1_555 1_555
C44_3 C40_3 1_555 1_555
H35_3 C44_3 1_555 1_555
H37_3 C44_3 1_555 1_555
O17 C37_3 1_555 1_555
C19_3 C20_3 1_555 1_555
C20_3 C21_3 1_555 1_555
C21_3 H17_3 1_555 1_555
C22_3 C21_3 1_555 1_555
C25_3 C20_3 1_555 1_555
H18_3 C25_3 1_555 1_555
C26_3 C22_3 1_555 1_555
H19_3 C26_3 1_555 1_555
H20_3 C26_3 1_555 1_555
H21_3 C26_3 1_555 1_555
C46_3 C47_3 1_555 1_555
C51_3 C50_3 1_555 1_555
C52_3 C47_3 1_555 1_555
H42_3 C52_3 1_555 1_555
C54_3 C51_3 1_555 1_555
H46_3 C54_3 1_555 1_555
H47_3 C54_3 1_555 1_555
C55_3 N1_3 1_555 1_555
C56_3 N1_3 1_555 1_555
C57_3 N1_3 1_555 1_555
O3_3 C19_3 1_555 1_555
O4_3 C19_3 1_555 1_555
O7_3 C46_3 1_555 1_555
O13_3 C55_3 1_555 1_555
C51_3 C52_3 1_555 1_555
O3_3 Cu4 1_555 1_555
O7_3 Cu4 1_555 1_555
O13_3 Cu4 1_555 1_555
C57_3 H56_3 1_555 1_555
C57_3 H57_3 1_555 1_555
C57_3 H58_3 1_555 1_555
C55_3 H63_3 1_555 1_555
C56_3 H64_3 1_555 1_555
C56_3 H65_3 1_555 1_555
C56_3 H66_3 1_555 1_555
H34_3 C43_3 1_555 1_555
C45_3 C42_3 1_555 1_555
H38_3 C45_3 1_555 1_555
H39_3 C45_3 1_555 1_555
H40_3 C45_3 1_555 1_555
C42_3 C43_3 1_555 1_555
C1_3 C2_3 1_555 1_555
C2_3 C3_3 1_555 1_555
C3_3 H1_3 1_555 1_555
C4_3 C3_3 1_555 1_555
C5_3 C4_3 1_555 1_555
C6_3 C5_3 1_555 1_555
C7_3 C2_3 1_555 1_555
H2_3 C7_3 1_555 1_555
C8_3 C4_3 1_555 1_555
H3_3 C8_3 1_555 1_555
H4_3 C8_3 1_555 1_555
H5_3 C8_3 1_555 1_555
C9_3 C6_3 1_555 1_555
H6_3 C9_3 1_555 1_555
H7_3 C9_3 1_555 1_555
H8_3 C9_3 1_555 1_555
C10_3 C11_3 1_555 1_555
C11_3 C12_3 1_555 1_555
C12_3 H9_3 1_555 1_555
C13_3 C12_3 1_555 1_555
C14_3 C5_3 1_555 1_555
C15_3 C14_3 1_555 1_555
C16_3 C11_3 1_555 1_555
H10_3 C16_3 1_555 1_555
C17_3 C13_3 1_555 1_555
H11_3 C17_3 1_555 1_555
H12_3 C17_3 1_555 1_555
H13_3 C17_3 1_555 1_555
C18_3 C15_3 1_555 1_555
H14_3 C18_3 1_555 1_555
H15_3 C18_3 1_555 1_555
H16_3 C18_3 1_555 1_555
C48_3 H41_3 1_555 1_555
C49_3 C48_3 1_555 1_555
C53_3 C49_3 1_555 1_555
H44_3 C53_3 1_555 1_555
H45_3 C53_3 1_555 1_555
C58_3 N2_3 1_555 1_555
C59_3 N2_3 1_555 1_555
C60_3 N2_3 1_555 1_555
C61_3 N3_3 1_555 1_555
C62_3 N3_3 1_555 1_555
C63_3 N3_3 1_555 1_555
O1_3 C1_3 1_555 1_555
O2_3 C1_3 1_555 1_555
O11_3 C10_3 1_555 1_555
O20_2 C10_3 1_555 1_555
O14_3 C58_3 1_555 1_555
O15_3 C61_3 1_555 1_555
Cu5 O2_3 1_555 1_555
Cu6 O11_3 1_555 1_555
O19_2 Cu6 1_555 1_555
C6_3 C7_3 1_555 1_555
C13_3 C14_3 1_555 1_555
C15_3 C16_3 1_555 1_555
O8_3 Cu5 1_555 1_555
O14_3 Cu5 1_555 1_555
O15_3 Cu6 1_555 1_555
C61_3 H49_3 1_555 1_555
C62_3 H50_3 1_555 1_555
C62_3 H51_3 1_555 1_555
C62_3 H52_3 1_555 1_555
C59_3 H53_3 1_555 1_555
C59_3 H54_3 1_555 1_555
C59_3 H55_3 1_555 1_555
C63_3 H59_3 1_555 1_555
C63_3 H60_3 1_555 1_555
C63_3 H61_3 1_555 1_555
C58_3 H62_3 1_555 1_555
C60_3 H67_3 1_555 1_555
C60_3 H68_3 1_555 1_555
C60_3 H69_3 1_555 1_555
C24_3 C23_3 1_555 1_555
C27_3 C24_3 1_555 1_555
H22_3 C27_3 1_555 1_555
H23_3 C27_3 1_555 1_555
H24_3 C27_3 1_555 1_555
C28_3 C29_3 1_555 1_555
C29_3 C30_3 1_555 1_555
C30_3 H25_3 1_555 1_555
C31_3 C30_3 1_555 1_555
C32_3 C23_3 1_555 1_555
C33_3 C32_3 1_555 1_555
C34_3 C29_3 1_555 1_555
H26_3 C34_3 1_555 1_555
C35_3 C31_3 1_555 1_555
H27_3 C35_3 1_555 1_555
H28_3 C35_3 1_555 1_555
H29_3 C35_3 1_555 1_555
C36_3 C33_3 1_555 1_555
H30_3 C36_3 1_555 1_555
H31_3 C36_3 1_555 1_555
O18 C28_3 1_555 1_555
O10_2 C28_3 1_555 1_555
Cu8 O10_2 1_555 1_555
C31_3 C32_3 1_555 1_555
C33_3 C34_3 1_555 1_555
C1_4 C2_4 1_555 1_555
C2_4 C3_4 1_555 1_555
C3_4 H1_4 1_555 1_555
C4_4 C3_4 1_555 1_555
C5_4 C4_4 1_555 1_555
C6_4 C5_4 1_555 1_555
C7_4 C2_4 1_555 1_555
H2_4 C7_4 1_555 1_555
C8_4 C4_4 1_555 1_555
H3_4 C8_4 1_555 1_555
H4_4 C8_4 1_555 1_555
H5_4 C8_4 1_555 1_555
H11_4 C17_4 1_555 1_555
H13_4 C17_4 1_555 1_555
C19_4 C20_4 1_555 1_555
C20_4 C21_4 1_555 1_555
C21_4 H17_4 1_555 1_555
C22_4 C21_4 1_555 1_555
C23_4 C22_4 1_555 1_555
C24_4 C23_4 1_555 1_555
C25_4 C20_4 1_555 1_555
H18_4 C25_4 1_555 1_555
C26_4 C22_4 1_555 1_555
H19_4 C26_4 1_555 1_555
H20_4 C26_4 1_555 1_555
H21_4 C26_4 1_555 1_555
C27_4 C24_4 1_555 1_555
H22_4 C27_4 1_555 1_555
H23_4 C27_4 1_555 1_555
H24_4 C27_4 1_555 1_555
C28_4 C29_4 1_555 1_555
C29_4 C30_4 1_555 1_555
C30_4 H25_4 1_555 1_555
C31_4 C30_4 1_555 1_555
C32_4 C23_4 1_555 1_555
C33_4 C32_4 1_555 1_555
C34_4 C29_4 1_555 1_555
H26_4 C34_4 1_555 1_555
C35_4 C31_4 1_555 1_555
H27_4 C35_4 1_555 1_555
H28_4 C35_4 1_555 1_555
H29_4 C35_4 1_555 1_555
C36_4 C33_4 1_555 1_555
H30_4 C36_4 1_555 1_555
H31_4 C36_4 1_555 1_555
H32_4 C36_4 1_555 1_555
C37_4 C38_4 1_555 1_555
C38_4 C39_4 1_555 1_555
C39_4 H33_4 1_555 1_555
C40_4 C39_4 1_555 1_555
C41_4 C40_4 1_555 1_555
C42_4 C41_4 1_555 1_555
C43_4 C38_4 1_555 1_555
H34_4 C43_4 1_555 1_555
C44_4 C40_4 1_555 1_555
H35_4 C44_4 1_555 1_555
H36_4 C44_4 1_555 1_555
H37_4 C44_4 1_555 1_555
C45_4 C42_4 1_555 1_555
H38_4 C45_4 1_555 1_555
H39_4 C45_4 1_555 1_555
H40_4 C45_4 1_555 1_555
C46_4 C47_4 1_555 1_555
C47_4 C48_4 1_555 1_555
C48_4 H41_4 1_555 1_555
C49_4 C48_4 1_555 1_555
C50_4 C41_4 1_555 1_555
C51_4 C50_4 1_555 1_555
C52_4 C47_4 1_555 1_555
H42_4 C52_4 1_555 1_555
C53_4 C49_4 1_555 1_555
H43_4 C53_4 1_555 1_555
H44_4 C53_4 1_555 1_555
H45_4 C53_4 1_555 1_555
C54_4 C51_4 1_555 1_555
H46_4 C54_4 1_555 1_555
H47_4 C54_4 1_555 1_555
H48_4 C54_4 1_555 1_555
C55_4 N1_4 1_555 1_555
C56_4 N1_4 1_555 1_555
C57_4 N1_4 1_555 1_555
C58_4 N2_4 1_555 1_555
C59_4 N2_4 1_555 1_555
C60_4 N2_4 1_555 1_555
O1_4 C1_4 1_555 1_555
O2_4 C1_4 1_555 1_555
O3_4 C19_4 1_555 1_555
O4_4 C19_4 1_555 1_555
O16_2 C37_4 1_555 1_555
O17_2 C37_4 1_555 1_555
O7_4 C46_4 1_555 1_555
O8_4 C46_4 1_555 1_555
O18_2 C28_4 1_555 1_555
O19_2 C28_4 1_555 1_555
O13_4 C55_4 1_555 1_555
O14_4 C58_4 1_555 1_555
Cu4_2 O1_4 1_555 1_555
Cu5_2 O2_4 1_555 1_555
C6_4 C7_4 1_555 1_555
C24_4 C25_4 1_555 1_555
C31_4 C32_4 1_555 1_555
C33_4 C34_4 1_555 1_555
C42_4 C43_4 1_555 1_555
C49_4 C50_4 1_555 1_555
C51_4 C52_4 1_555 1_555
O3_4 Cu4_2 1_555 1_555
O4_4 Cu5_2 1_555 1_555
O7_4 Cu4_2 1_555 1_555
O8_4 Cu5_2 1_555 1_555
O13_4 Cu4_2 1_555 1_555
O14_4 Cu5_2 1_555 1_555
C59_4 H53_4 1_555 1_555
C59_4 H54_4 1_555 1_555
C59_4 H55_4 1_555 1_555
C57_4 H56_4 1_555 1_555
C57_4 H57_4 1_555 1_555
C57_4 H58_4 1_555 1_555
C58_4 H62_4 1_555 1_555
C55_4 H63_4 1_555 1_555
C56_4 H64_4 1_555 1_555
C56_4 H65_4 1_555 1_555
C56_4 H66_4 1_555 1_555
C60_4 H67_4 1_555 1_555
C60_4 H68_4 1_555 1_555
C60_4 H69_4 1_555 1_555
H6_4 C9_4 1_555 1_555
H7_4 C9_4 1_555 1_555
H8_4 C9_4 1_555 1_555
C10_4 C11_4 1_555 1_555
C11_4 C12_4 1_555 1_555
C12_4 H9_4 1_555 1_555
C13_4 C12_4 1_555 1_555
C15_4 C14_4 1_555 1_555
C16_4 C11_4 1_555 1_555
H10_4 C16_4 1_555 1_555
C18_4 C15_4 1_555 1_555
H14_4 C18_4 1_555 1_555
H15_4 C18_4 1_555 1_555
H16_4 C18_4 1_555 1_555
C61_4 N3_4 1_555 1_555
C62_4 N3_4 1_555 1_555
C63_4 N3_4 1_555 1_555
O11_4 C10_4 1_555 1_555
O20 C10_4 1_555 1_555
O15_4 C61_4 1_555 1_555
Cu8 O11_4 1_555 1_555
C13_4 C14_4 1_555 1_555
C15_4 C16_4 1_555 1_555
O15_4 Cu8 1_555 1_555
C61_4 H49_4 1_555 1_555
C62_4 H50_4 1_555 1_555
C62_4 H51_4 1_555 1_555
C62_4 H52_4 1_555 1_555
C63_4 H59_4 1_555 1_555
C63_4 H60_4 1_555 1_555
C63_4 H61_4 1_555 1_555
C24_5 C23_5 1_555 1_555
C27_5 C24_5 1_555 1_555
H22_5 C27_5 1_555 1_555
H23_5 C27_5 1_555 1_555
H24_5 C27_5 1_555 1_555
C28_5 C29_5 1_555 1_555
C29_5 C30_5 1_555 1_555
C30_5 H25_5 1_555 1_555
C31_5 C30_5 1_555 1_555
C32_5 C23_5 1_555 1_555
C33_5 C32_5 1_555 1_555
C34_5 C29_5 1_555 1_555
H26_5 C34_5 1_555 1_555
C35_5 C31_5 1_555 1_555
H27_5 C35_5 1_555 1_555
H28_5 C35_5 1_555 1_555
H29_5 C35_5 1_555 1_555
C36_5 C33_5 1_555 1_555
H30_5 C36_5 1_555 1_555
H31_5 C36_5 1_555 1_555
O9_3 C28_5 1_555 1_555
O10_3 C28_5 1_555 1_555
Cu6_2 O9_3 1_555 1_555
Cu7_2 O10_3 1_555 1_555
C31_5 C32_5 1_555 1_555
C33_5 C34_5 1_555 1_555
Cu6_2 Cu7_2 1_555 1_555
C1_5 C2_5 1_555 1_555
C2_5 C3_5 1_555 1_555
C3_5 H1_5 1_555 1_555
C4_5 C3_5 1_555 1_555
C5_5 C4_5 1_555 1_555
C6_5 C5_5 1_555 1_555
C7_5 C2_5 1_555 1_555
H2_5 C7_5 1_555 1_555
C8_5 C4_5 1_555 1_555
H3_5 C8_5 1_555 1_555
H4_5 C8_5 1_555 1_555
H5_5 C8_5 1_555 1_555
C9_5 C6_5 1_555 1_555
H6_5 C9_5 1_555 1_555
H7_5 C9_5 1_555 1_555
H8_5 C9_5 1_555 1_555
C10_5 C11_5 1_555 1_555
C11_5 C12_5 1_555 1_555
C12_5 H9_5 1_555 1_555
C13_5 C12_5 1_555 1_555
C14_5 C5_5 1_555 1_555
C15_5 C14_5 1_555 1_555
C16_5 C11_5 1_555 1_555
H10_5 C16_5 1_555 1_555
C17_5 C13_5 1_555 1_555
H11_5 C17_5 1_555 1_555
H12_5 C17_5 1_555 1_555
H13_5 C17_5 1_555 1_555
C18_5 C15_5 1_555 1_555
H14_5 C18_5 1_555 1_555
H15_5 C18_5 1_555 1_555
H16_5 C18_5 1_555 1_555
C48_5 H41_5 1_555 1_555
C49_5 C48_5 1_555 1_555
C53_5 C49_5 1_555 1_555
H44_5 C53_5 1_555 1_555
H45_5 C53_5 1_555 1_555
C58_5 N2_5 1_555 1_555
C59_5 N2_5 1_555 1_555
C60_5 N2_5 1_555 1_555
C61_5 N3_5 1_555 1_555
C62_5 N3_5 1_555 1_555
C63_5 N3_5 1_555 1_555
O1_5 C1_5 1_555 1_555
O2_5 C1_5 1_555 1_555
O11_5 C10_5 1_555 1_555
O12_3 C10_5 1_555 1_555
O14_5 C58_5 1_555 1_555
O15_5 C61_5 1_555 1_555
Cu2_3 O2_5 1_555 1_555
Cu3_2 O11_5 1_555 1_555
O17_3 Cu2_3 1_555 1_555
O19_3 Cu3_2 1_555 1_555
C6_5 C7_5 1_555 1_555
C13_5 C14_5 1_555 1_555
C15_5 C16_5 1_555 1_555
O8_5 Cu2_3 1_555 1_555
O14_5 Cu2_3 1_555 1_555
O15_5 Cu3_2 1_555 1_555
C61_5 H49_5 1_555 1_555
C62_5 H50_5 1_555 1_555
C62_5 H51_5 1_555 1_555
C62_5 H52_5 1_555 1_555
C59_5 H53_5 1_555 1_555
C59_5 H54_5 1_555 1_555
C59_5 H55_5 1_555 1_555
C63_5 H59_5 1_555 1_555
C63_5 H60_5 1_555 1_555
C63_5 H61_5 1_555 1_555
C58_5 H62_5 1_555 1_555
C60_5 H67_5 1_555 1_555
C60_5 H68_5 1_555 1_555
C60_5 H69_5 1_555 1_555
H34_5 C43_5 1_555 1_555
C45_5 C42_5 1_555 1_555
H38_5 C45_5 1_555 1_555
H39_5 C45_5 1_555 1_555
H40_5 C45_5 1_555 1_555
Cu4_3 O5_3 1_555 1_555
C42_5 C43_5 1_555 1_555
C19_5 C20_5 1_555 1_555
C20_5 C21_5 1_555 1_555
C21_5 H17_5 1_555 1_555
C22_5 C21_5 1_555 1_555
C25_5 C20_5 1_555 1_555
H18_5 C25_5 1_555 1_555
C26_5 C22_5 1_555 1_555
H19_5 C26_5 1_555 1_555
H20_5 C26_5 1_555 1_555
H21_5 C26_5 1_555 1_555
C46_5 C47_5 1_555 1_555
C51_5 C50_5 1_555 1_555
C52_5 C47_5 1_555 1_555
H42_5 C52_5 1_555 1_555
C54_5 C51_5 1_555 1_555
H46_5 C54_5 1_555 1_555
H47_5 C54_5 1_555 1_555
C55_5 N1_5 1_555 1_555
C56_5 N1_5 1_555 1_555
C57_5 N1_5 1_555 1_555
O3_5 C19_5 1_555 1_555
O4_5 C19_5 1_555 1_555
O7_5 C46_5 1_555 1_555
O13_5 C55_5 1_555 1_555
O16_3 Cu1_3 1_555 1_555
C51_5 C52_5 1_555 1_555
O3_5 Cu1_3 1_555 1_555
O7_5 Cu1_3 1_555 1_555
O13_5 Cu1_3 1_555 1_555
C57_5 H56_5 1_555 1_555
C57_5 H57_5 1_555 1_555
C57_5 H58_5 1_555 1_555
C55_5 H63_5 1_555 1_555
C56_5 H64_5 1_555 1_555
C56_5 H65_5 1_555 1_555
C56_5 H66_5 1_555 1_555
C37_5 C38_5 1_555 1_555
C38_5 C39_5 1_555 1_555
C39_5 H33_5 1_555 1_555
C40_5 C39_5 1_555 1_555
C41_5 C40_5 1_555 1_555
C44_5 C40_5 1_555 1_555
H35_5 C44_5 1_555 1_555
H37_5 C44_5 1_555 1_555
O6_3 C37_5 1_555 1_555
Cu5_3 O6_3 1_555 1_555
H6_6 C9_6 1_555 1_555
H7_6 C9_6 1_555 1_555
H8_6 C9_6 1_555 1_555
C10_6 C11_6 1_555 1_555
C11_6 C12_6 1_555 1_555
C12_6 H9_6 1_555 1_555
C13_6 C12_6 1_555 1_555
C15_6 C14_6 1_555 1_555
C16_6 C11_6 1_555 1_555
H10_6 C16_6 1_555 1_555
C18_6 C15_6 1_555 1_555
H14_6 C18_6 1_555 1_555
H15_6 C18_6 1_555 1_555
H16_6 C18_6 1_555 1_555
C61_6 N3_6 1_555 1_555
C62_6 N3_6 1_555 1_555
C63_6 N3_6 1_555 1_555
O11_6 C10_6 1_555 1_555
O12_4 C10_6 1_555 1_555
O15_6 C61_6 1_555 1_555
Cu7_2 O11_6 1_555 1_555
O18_4 Cu7_2 1_555 1_555
O20_4 Cu7_2 1_555 1_555
Cu6_2 O12_4 1_555 1_555
C13_6 C14_6 1_555 1_555
C15_6 C16_6 1_555 1_555
O15_6 Cu7_2 1_555 1_555
C61_6 H49_6 1_555 1_555
C62_6 H50_6 1_555 1_555
C62_6 H51_6 1_555 1_555
C62_6 H52_6 1_555 1_555
C63_6 H59_6 1_555 1_555
C63_6 H60_6 1_555 1_555
C63_6 H61_6 1_555 1_555
C1_6 C2_6 1_555 1_555
C2_6 C3_6 1_555 1_555
C3_6 H1_6 1_555 1_555
C4_6 C3_6 1_555 1_555
C5_6 C4_6 1_555 1_555
C6_6 C5_6 1_555 1_555
C7_6 C2_6 1_555 1_555
H2_6 C7_6 1_555 1_555
C8_6 C4_6 1_555 1_555
H3_6 C8_6 1_555 1_555
H4_6 C8_6 1_555 1_555
H5_6 C8_6 1_555 1_555
H11_6 C17_6 1_555 1_555
H13_6 C17_6 1_555 1_555
C19_6 C20_6 1_555 1_555
C20_6 C21_6 1_555 1_555
C21_6 H17_6 1_555 1_555
C22_6 C21_6 1_555 1_555
C23_6 C22_6 1_555 1_555
C24_6 C23_6 1_555 1_555
C25_6 C20_6 1_555 1_555
H18_6 C25_6 1_555 1_555
C26_6 C22_6 1_555 1_555
H19_6 C26_6 1_555 1_555
H20_6 C26_6 1_555 1_555
H21_6 C26_6 1_555 1_555
C27_6 C24_6 1_555 1_555
H22_6 C27_6 1_555 1_555
H23_6 C27_6 1_555 1_555
H24_6 C27_6 1_555 1_555
C28_6 C29_6 1_555 1_555
C29_6 C30_6 1_555 1_555
C30_6 H25_6 1_555 1_555
C31_6 C30_6 1_555 1_555
C32_6 C23_6 1_555 1_555
C33_6 C32_6 1_555 1_555
C34_6 C29_6 1_555 1_555
H26_6 C34_6 1_555 1_555
C35_6 C31_6 1_555 1_555
H27_6 C35_6 1_555 1_555
H28_6 C35_6 1_555 1_555
H29_6 C35_6 1_555 1_555
C36_6 C33_6 1_555 1_555
H30_6 C36_6 1_555 1_555
H31_6 C36_6 1_555 1_555
H32_6 C36_6 1_555 1_555
C37_6 C38_6 1_555 1_555
C38_6 C39_6 1_555 1_555
C39_6 H33_6 1_555 1_555
C40_6 C39_6 1_555 1_555
C41_6 C40_6 1_555 1_555
C42_6 C41_6 1_555 1_555
C43_6 C38_6 1_555 1_555
H34_6 C43_6 1_555 1_555
C44_6 C40_6 1_555 1_555
H35_6 C44_6 1_555 1_555
H36_6 C44_6 1_555 1_555
H37_6 C44_6 1_555 1_555
C45_6 C42_6 1_555 1_555
H38_6 C45_6 1_555 1_555
H39_6 C45_6 1_555 1_555
H40_6 C45_6 1_555 1_555
C46_6 C47_6 1_555 1_555
C47_6 C48_6 1_555 1_555
C48_6 H41_6 1_555 1_555
C49_6 C48_6 1_555 1_555
C50_6 C41_6 1_555 1_555
C51_6 C50_6 1_555 1_555
C52_6 C47_6 1_555 1_555
H42_6 C52_6 1_555 1_555
C53_6 C49_6 1_555 1_555
H43_6 C53_6 1_555 1_555
H44_6 C53_6 1_555 1_555
H45_6 C53_6 1_555 1_555
C54_6 C51_6 1_555 1_555
H46_6 C54_6 1_555 1_555
H47_6 C54_6 1_555 1_555
H48_6 C54_6 1_555 1_555
C55_6 N1_6 1_555 1_555
C56_6 N1_6 1_555 1_555
C57_6 N1_6 1_555 1_555
C58_6 N2_6 1_555 1_555
C59_6 N2_6 1_555 1_555
C60_6 N2_6 1_555 1_555
O1_6 C1_6 1_555 1_555
O2_6 C1_6 1_555 1_555
O3_6 C19_6 1_555 1_555
O4_6 C19_6 1_555 1_555
O5_4 C37_6 1_555 1_555
O6_4 C37_6 1_555 1_555
O7_6 C46_6 1_555 1_555
O8_6 C46_6 1_555 1_555
O9_4 C28_6 1_555 1_555
O19_3 C28_6 1_555 1_555
O13_6 C55_6 1_555 1_555
O14_6 C58_6 1_555 1_555
Cu1_4 O1_6 1_555 1_555
Cu2_4 O2_6 1_555 1_555
O16_4 Cu1_4 1_555 1_555
O17_4 Cu2_4 1_555 1_555
Cu4_4 O5_4 1_555 1_555
Cu5_4 O6_4 1_555 1_555
C6_6 C7_6 1_555 1_555
C24_6 C25_6 1_555 1_555
C31_6 C32_6 1_555 1_555
C33_6 C34_6 1_555 1_555
C42_6 C43_6 1_555 1_555
C49_6 C50_6 1_555 1_555
C51_6 C52_6 1_555 1_555
O3_6 Cu1_4 1_555 1_555
O4_6 Cu2_4 1_555 1_555
O7_6 Cu1_4 1_555 1_555
O8_6 Cu2_4 1_555 1_555
O13_6 Cu1_4 1_555 1_555
O14_6 Cu2_4 1_555 1_555
Cu1_4 Cu2_4 1_555 1_555
Cu4_4 Cu5_4 1_555 1_555
C59_6 H53_6 1_555 1_555
C59_6 H54_6 1_555 1_555
C59_6 H55_6 1_555 1_555
C57_6 H56_6 1_555 1_555
C57_6 H57_6 1_555 1_555
C57_6 H58_6 1_555 1_555
C58_6 H62_6 1_555 1_555
C55_6 H63_6 1_555 1_555
C56_6 H64_6 1_555 1_555
C56_6 H65_6 1_555 1_555
C56_6 H66_6 1_555 1_555
C60_6 H67_6 1_555 1_555
C60_6 H68_6 1_555 1_555
C60_6 H69_6 1_555 1_555
C24_7 C23_7 1_555 1_555
C27_7 C24_7 1_555 1_555
H22_7 C27_7 1_555 1_555
H23_7 C27_7 1_555 1_555
H24_7 C27_7 1_555 1_555
C28_7 C29_7 1_555 1_555
C29_7 C30_7 1_555 1_555
C30_7 H25_7 1_555 1_555
C31_7 C30_7 1_555 1_555
C32_7 C23_7 1_555 1_555
C33_7 C32_7 1_555 1_555
C34_7 C29_7 1_555 1_555
H26_7 C34_7 1_555 1_555
C35_7 C31_7 1_555 1_555
H27_7 C35_7 1_555 1_555
H28_7 C35_7 1_555 1_555
H29_7 C35_7 1_555 1_555
C36_7 C33_7 1_555 1_555
H30_7 C36_7 1_555 1_555
H31_7 C36_7 1_555 1_555
O18_3 C28_7 1_555 1_555
O10_4 C28_7 1_555 1_555
Cu8_2 O10_4 1_555 1_555
C31_7 C32_7 1_555 1_555
C33_7 C34_7 1_555 1_555
C19_7 C20_7 1_555 1_555
C20_7 C21_7 1_555 1_555
C21_7 H17_7 1_555 1_555
C22_7 C21_7 1_555 1_555
C25_7 C20_7 1_555 1_555
H18_7 C25_7 1_555 1_555
C26_7 C22_7 1_555 1_555
H19_7 C26_7 1_555 1_555
H20_7 C26_7 1_555 1_555
H21_7 C26_7 1_555 1_555
C37_7 C38_7 1_555 1_555
C38_7 C39_7 1_555 1_555
C39_7 H33_7 1_555 1_555
C40_7 C39_7 1_555 1_555
C41_7 C40_7 1_555 1_555
C44_7 C40_7 1_555 1_555
H35_7 C44_7 1_555 1_555
H36_7 C44_7 1_555 1_555
H37_7 C44_7 1_555 1_555
C46_7 C47_7 1_555 1_555
C50_7 C41_7 1_555 1_555
C51_7 C50_7 1_555 1_555
C52_7 C47_7 1_555 1_555
H42_7 C52_7 1_555 1_555
C54_7 C51_7 1_555 1_555
H46_7 C54_7 1_555 1_555
H47_7 C54_7 1_555 1_555
H48_7 C54_7 1_555 1_555
C55_7 N1_7 1_555 1_555
C56_7 N1_7 1_555 1_555
C57_7 N1_7 1_555 1_555
O3_7 C19_7 1_555 1_555
O4_7 C19_7 1_555 1_555
O17_3 C37_7 1_555 1_555
O7_7 C46_7 1_555 1_555
O13_7 C55_7 1_555 1_555
C51_7 C52_7 1_555 1_555
O3_7 Cu4_3 1_555 1_555
O7_7 Cu4_3 1_555 1_555
O13_7 Cu4_3 1_555 1_555
C57_7 H56_7 1_555 1_555
C57_7 H57_7 1_555 1_555
C57_7 H58_7 1_555 1_555
C55_7 H63_7 1_555 1_555
C56_7 H64_7 1_555 1_555
C56_7 H65_7 1_555 1_555
C56_7 H66_7 1_555 1_555
C1_7 C2_7 1_555 1_555
C2_7 C3_7 1_555 1_555
C3_7 H1_7 1_555 1_555
C4_7 C3_7 1_555 1_555
C5_7 C4_7 1_555 1_555
C6_7 C5_7 1_555 1_555
C7_7 C2_7 1_555 1_555
H2_7 C7_7 1_555 1_555
C8_7 C4_7 1_555 1_555
H3_7 C8_7 1_555 1_555
H4_7 C8_7 1_555 1_555
H5_7 C8_7 1_555 1_555
C9_7 C6_7 1_555 1_555
H6_7 C9_7 1_555 1_555
H7_7 C9_7 1_555 1_555
H8_7 C9_7 1_555 1_555
C10_7 C11_7 1_555 1_555
C11_7 C12_7 1_555 1_555
C12_7 H9_7 1_555 1_555
C13_7 C12_7 1_555 1_555
C14_7 C5_7 1_555 1_555
C15_7 C14_7 1_555 1_555
C16_7 C11_7 1_555 1_555
H10_7 C16_7 1_555 1_555
C17_7 C13_7 1_555 1_555
H11_7 C17_7 1_555 1_555
H12_7 C17_7 1_555 1_555
H13_7 C17_7 1_555 1_555
C18_7 C15_7 1_555 1_555
H14_7 C18_7 1_555 1_555
H15_7 C18_7 1_555 1_555
H16_7 C18_7 1_555 1_555
H34_7 C43_7 1_555 1_555
C45_7 C42_7 1_555 1_555
H38_7 C45_7 1_555 1_555
H39_7 C45_7 1_555 1_555
H40_7 C45_7 1_555 1_555
C48_7 H41_7 1_555 1_555
C49_7 C48_7 1_555 1_555
C53_7 C49_7 1_555 1_555
H43_7 C53_7 1_555 1_555
H44_7 C53_7 1_555 1_555
H45_7 C53_7 1_555 1_555
C58_7 N2_7 1_555 1_555
C59_7 N2_7 1_555 1_555
C60_7 N2_7 1_555 1_555
C61_7 N3_7 1_555 1_555
C62_7 N3_7 1_555 1_555
C63_7 N3_7 1_555 1_555
O1_7 C1_7 1_555 1_555
O2_7 C1_7 1_555 1_555
O11_7 C10_7 1_555 1_555
O20_4 C10_7 1_555 1_555
O14_7 C58_7 1_555 1_555
O15_7 C61_7 1_555 1_555
Cu5_3 O2_7 1_555 1_555
Cu6_2 O11_7 1_555 1_555
O19_4 Cu6_2 1_555 1_555
C6_7 C7_7 1_555 1_555
C13_7 C14_7 1_555 1_555
C15_7 C16_7 1_555 1_555
C42_7 C43_7 1_555 1_555
O8_7 Cu5_3 1_555 1_555
O14_7 Cu5_3 1_555 1_555
O15_7 Cu6_2 1_555 1_555
C61_7 H49_7 1_555 1_555
C62_7 H50_7 1_555 1_555
C62_7 H51_7 1_555 1_555
C62_7 H52_7 1_555 1_555
C59_7 H53_7 1_555 1_555
C59_7 H54_7 1_555 1_555
C59_7 H55_7 1_555 1_555
C63_7 H59_7 1_555 1_555
C63_7 H60_7 1_555 1_555
C63_7 H61_7 1_555 1_555
C58_7 H62_7 1_555 1_555
C60_7 H67_7 1_555 1_555
C60_7 H68_7 1_555 1_555
C60_7 H69_7 1_555 1_555
H6_8 C9_8 1_555 1_555
H7_8 C9_8 1_555 1_555
H8_8 C9_8 1_555 1_555
C10_8 C11_8 1_555 1_555
C11_8 C12_8 1_555 1_555
C12_8 H9_8 1_555 1_555
C13_8 C12_8 1_555 1_555
C15_8 C14_8 1_555 1_555
C16_8 C11_8 1_555 1_555
H10_8 C16_8 1_555 1_555
C18_8 C15_8 1_555 1_555
H14_8 C18_8 1_555 1_555
H15_8 C18_8 1_555 1_555
H16_8 C18_8 1_555 1_555
C61_8 N3_8 1_555 1_555
C62_8 N3_8 1_555 1_555
C63_8 N3_8 1_555 1_555
O11_8 C10_8 1_555 1_555
O20_3 C10_8 1_555 1_555
O15_8 C61_8 1_555 1_555
Cu8_2 O11_8 1_555 1_555
C13_8 C14_8 1_555 1_555
C15_8 C16_8 1_555 1_555
O15_8 Cu8_2 1_555 1_555
C61_8 H49_8 1_555 1_555
C62_8 H50_8 1_555 1_555
C62_8 H51_8 1_555 1_555
C62_8 H52_8 1_555 1_555
C63_8 H59_8 1_555 1_555
C63_8 H60_8 1_555 1_555
C63_8 H61_8 1_555 1_555
C37_8 C38_8 1_555 1_555
C38_8 C39_8 1_555 1_555
C39_8 H33_8 1_555 1_555
C40_8 C39_8 1_555 1_555
C41_8 C40_8 1_555 1_555
C42_8 C41_8 1_555 1_555
C43_8 C38_8 1_555 1_555
H34_8 C43_8 1_555 1_555
C44_8 C40_8 1_555 1_555
H35_8 C44_8 1_555 1_555
H37_8 C44_8 1_555 1_555
C45_8 C42_8 1_555 1_555
H38_8 C45_8 1_555 1_555
H39_8 C45_8 1_555 1_555
H40_8 C45_8 1_555 1_555
O16_4 C37_8 1_555 1_555
O17_4 C37_8 1_555 1_555
C42_8 C43_8 1_555 1_555
C1_8 C2_8 1_555 1_555
C2_8 C3_8 1_555 1_555
C3_8 H1_8 1_555 1_555
C4_8 C3_8 1_555 1_555
C5_8 C4_8 1_555 1_555
C6_8 C5_8 1_555 1_555
C7_8 C2_8 1_555 1_555
H2_8 C7_8 1_555 1_555
C8_8 C4_8 1_555 1_555
H3_8 C8_8 1_555 1_555
H4_8 C8_8 1_555 1_555
H5_8 C8_8 1_555 1_555
H11_8 C17_8 1_555 1_555
H13_8 C17_8 1_555 1_555
C19_8 C20_8 1_555 1_555
C20_8 C21_8 1_555 1_555
C21_8 H17_8 1_555 1_555
C22_8 C21_8 1_555 1_555
C23_8 C22_8 1_555 1_555
C24_8 C23_8 1_555 1_555
C25_8 C20_8 1_555 1_555
H18_8 C25_8 1_555 1_555
C26_8 C22_8 1_555 1_555
H19_8 C26_8 1_555 1_555
H20_8 C26_8 1_555 1_555
H21_8 C26_8 1_555 1_555
C27_8 C24_8 1_555 1_555
H22_8 C27_8 1_555 1_555
H23_8 C27_8 1_555 1_555
H24_8 C27_8 1_555 1_555
C28_8 C29_8 1_555 1_555
C29_8 C30_8 1_555 1_555
C30_8 H25_8 1_555 1_555
C31_8 C30_8 1_555 1_555
C32_8 C23_8 1_555 1_555
C33_8 C32_8 1_555 1_555
C34_8 C29_8 1_555 1_555
H26_8 C34_8 1_555 1_555
C35_8 C31_8 1_555 1_555
H27_8 C35_8 1_555 1_555
H28_8 C35_8 1_555 1_555
H29_8 C35_8 1_555 1_555
C36_8 C33_8 1_555 1_555
H30_8 C36_8 1_555 1_555
H31_8 C36_8 1_555 1_555
H32_8 C36_8 1_555 1_555
C46_8 C47_8 1_555 1_555
C47_8 C48_8 1_555 1_555
C48_8 H41_8 1_555 1_555
C49_8 C48_8 1_555 1_555
C51_8 C50_8 1_555 1_555
C52_8 C47_8 1_555 1_555
H42_8 C52_8 1_555 1_555
C53_8 C49_8 1_555 1_555
H44_8 C53_8 1_555 1_555
H45_8 C53_8 1_555 1_555
C54_8 C51_8 1_555 1_555
H46_8 C54_8 1_555 1_555
H47_8 C54_8 1_555 1_555
C55_8 N1_8 1_555 1_555
C56_8 N1_8 1_555 1_555
C57_8 N1_8 1_555 1_555
C58_8 N2_8 1_555 1_555
C59_8 N2_8 1_555 1_555
C60_8 N2_8 1_555 1_555
O1_8 C1_8 1_555 1_555
O2_8 C1_8 1_555 1_555
O3_8 C19_8 1_555 1_555
O4_8 C19_8 1_555 1_555
O7_8 C46_8 1_555 1_555
O8_8 C46_8 1_555 1_555
O18_4 C28_8 1_555 1_555
O19_4 C28_8 1_555 1_555
O13_8 C55_8 1_555 1_555
O14_8 C58_8 1_555 1_555
Cu4_4 O1_8 1_555 1_555
Cu5_4 O2_8 1_555 1_555
C6_8 C7_8 1_555 1_555
C24_8 C25_8 1_555 1_555
C31_8 C32_8 1_555 1_555
C33_8 C34_8 1_555 1_555
C49_8 C50_8 1_555 1_555
C51_8 C52_8 1_555 1_555
O3_8 Cu4_4 1_555 1_555
O4_8 Cu5_4 1_555 1_555
O7_8 Cu4_4 1_555 1_555
O8_8 Cu5_4 1_555 1_555
O13_8 Cu4_4 1_555 1_555
O14_8 Cu5_4 1_555 1_555
C59_8 H53_8 1_555 1_555
C59_8 H54_8 1_555 1_555
C59_8 H55_8 1_555 1_555
C57_8 H56_8 1_555 1_555
C57_8 H57_8 1_555 1_555
C57_8 H58_8 1_555 1_555
C58_8 H62_8 1_555 1_555
C55_8 H63_8 1_555 1_555
C56_8 H64_8 1_555 1_555
C56_8 H65_8 1_555 1_555
C56_8 H66_8 1_555 1_555
C60_8 H67_8 1_555 1_555
C60_8 H68_8 1_555 1_555
C60_8 H69_8 1_555 1_555

#END
