
###############################################################################
#
# This file contains modified crystal structure data generated from the
# MOF subset of the Cambridge Structural Database (CSD) v543 
# hosted by the Cambridge Crystallographic Data Centre (CCDC).
#
# This work is licensed under the Creative Commons
# Attribution-NonCommercial-ShareAlike 4.0 International License.
# To view a copy of this license, visit
# http://creativecommons.org/licenses/by-nc-sa/4.0/
# or send a letter to
# Creative Commons, PO Box 1866, Mountain View, CA 94042, USA.
#
# CIF created using the CSD Python API on 29 September 2022
# The structure has been converted into the P1 space group
# The structure has a 3D framework
# The original CSD entry TENLIJ is in the tetragonal crystal system
# The framework has been calculated to contain at least 10.0% void space
# The void calculation uses a probe of radius 1.32A, grid spacing 0.4
#
###############################################################################

data_TENLIJ
_chemical_formula_moiety         '(C214 H144 N32 O80 Zn16)n'
_symmetry_cell_setting           triclinic
_symmetry_space_group_name_H-M   'P 1'
_symmetry_Int_Tables_number      1
_space_group_name_Hall           'P 1'
loop_
_symmetry_equiv_pos_site_id
_symmetry_equiv_pos_as_xyz
1 x,y,z
_cell_length_a                   18.3697(16)
_cell_length_b                   18.3697(16)
_cell_length_c                   23.507(5)
_cell_angle_alpha                90
_cell_angle_beta                 90
_cell_angle_gamma                90
_cell_volume                     7932.34
loop_
_atom_site_label
_atom_site_type_symbol
_atom_site_fract_x
_atom_site_fract_y
_atom_site_fract_z
C20 C 0.0314(3) 0.0994(3) 0.5313(2)
C23 C 0.0299(5) 0.0993(5) 0.4730(3)
C26 C 0.0887(5) 0.0767(7) 0.4424(4)
H15 H 0.0869 0.0727 0.4030
C29 C 0.1534(5) 0.0594(5) 0.4737(3)
H18 H 0.1958 0.0463 0.4547
C32 C 0.1517(3) 0.0625(3) 0.5313(3)
C35 C 0.2129(3) 0.0439(3) 0.5701(3)
N8 N 0.0904(2) 0.0817(2) 0.5582(2)
O12 O 0.1147(3) 0.1591(2) 0.70207(18)
O18 O 0.2011(2) 0.0495(3) 0.6226(2)
O21 O 0.2730(3) 0.0282(3) 0.5472(3)
Zn4 Zn 0.09493(4) 0.08361(4) 0.64401(3)
C1 C 0.3681(3) 0.7811(3) 0.1794(3)
C2 C 0.3494(3) 0.7186(3) 0.2187(2)
C3 C 0.3493(5) 0.7201(5) 0.2770(3)
H1 H 0.3648 0.7618 0.2959
C4 C 0.3267(7) 0.6613(5) 0.3076(4)
H2 H 0.3227 0.6631 0.3470
C5 C 0.3094(5) 0.5966(5) 0.2763(3)
H3 H 0.2963 0.5542 0.2953
C6 C 0.3125(3) 0.5983(3) 0.2187(3)
C7 C 0.2939(3) 0.5371(3) 0.1799(3)
C8 C 0.2111(4) 0.6395(3) 0.0293(3)
H4 H 0.2213 0.5904 0.0350
C11 C 0.1820(4) 0.7805(3) 0.0109(3)
H6 H 0.1730 0.8301 0.0067
C12 C 0.2351(4) 0.7556(4) 0.0462(3)
H7 H 0.2639 0.7904 0.0640
N1 N 0.2495(3) 0.6867(2) 0.0574(2)
N2 N 0.3317(2) 0.6596(2) 0.1918(2)
O1 O 0.3661(2) 0.7695(2) 0.12787(17)
O2 O 0.3853(3) 0.8409(2) 0.20207(18)
O3 O 0.2995(3) 0.5489(2) 0.1274(2)
O4 O 0.2782(3) 0.4770(3) 0.2028(3)
Zn1 Zn 0.33361(4) 0.65507(4) 0.10599(3)
O14 O 0.4091(2) 0.6353(3) 0.04793(18)
Zn8 Zn 0.40507(4) 0.91639(4) 0.14401(3)
C9 C 0.1557(4) 0.6572(3) 0.9913(3)
H5 H 0.1288 0.6212 0.9731
C10 C 0.1421(3) 0.7294(3) 0.9816(2)
C13 C 0.0524(3) 0.7060(3) 0.9120(2)
H8 H 0.0256 0.6721 0.9357
H9 H 0.0858 0.6785 0.8883
C14 C 0.0000 0.7500 0.8750
O5 O 0.0910(2) 0.7557(2) 0.94606(19)
C16 C 0.0311(3) 0.3819(3) 0.5706(3)
H11 H 0.0118 0.3852 0.4541
C38 C 0.1105(3) 0.9611(4) 0.7207(3)
H21 H 0.1596 0.9713 0.7150
C41 C 0.0928(3) 0.9057(4) 0.7587(3)
H24 H 0.1288 0.8788 0.7769
C44 C 0.0206(3) 0.8921(3) 0.7684(2)
C46 C 0.0305(3) 0.5680(4) 0.7391(3)
H26 H 0.0801 0.5770 0.7433
C49 C 0.0056(4) 0.5149(4) 0.7038(3)
H29 H 0.0404 0.4861 0.6860
C53 C 0.0440(3) 0.8024(3) 0.8380(2)
H33 H 0.0779 0.7756 0.8143
H36 H 0.0715 0.8358 0.8617
N5 N 0.0633(2) 0.9995(3) 0.6926(2)
O7 O 0.0195(2) 0.3839(2) 0.62213(17)
O10 O 0.0909(2) 0.3647(3) 0.54793(18)
O23 O 0.0057(2) 0.6590(2) 0.80394(19)
Zn5 Zn 0.16639(4) 0.34493(4) 0.60599(3)
C17 C 0.9689(3) 0.1181(3) 0.5706(3)
H12 H 0.9882 0.1148 0.4541
H30 H 0.9596 0.0139 0.6860
O8 O 0.9805(2) 0.1161(2) 0.62213(17)
O11 O 0.9091(2) 0.1353(3) 0.54793(18)
Zn6 Zn 0.83361(4) 0.15507(4) 0.60599(3)
C15 C 0.6319(3) 0.7189(3) 0.1794(3)
C18 C 0.6506(3) 0.7814(3) 0.2187(2)
C21 C 0.6507(5) 0.7799(5) 0.2770(3)
H10 H 0.6352 0.7382 0.2959
C24 C 0.6733(7) 0.8387(5) 0.3076(4)
H13 H 0.6773 0.8369 0.3470
C27 C 0.6906(5) 0.9034(5) 0.2763(3)
H16 H 0.7037 0.9458 0.2953
C30 C 0.6875(3) 0.9017(3) 0.2187(3)
C33 C 0.7061(3) 0.9629(3) 0.1799(3)
C36 C 0.7889(4) 0.8605(3) 0.0293(3)
H19 H 0.7787 0.9096 0.0350
C45 C 0.8180(4) 0.7195(3) 0.0109(3)
H25 H 0.8270 0.6699 0.0067
C48 C 0.7649(4) 0.7444(4) 0.0462(3)
H28 H 0.7361 0.7096 0.0640
N3 N 0.7505(3) 0.8133(2) 0.0574(2)
N6 N 0.6683(2) 0.8404(2) 0.1918(2)
O6 O 0.6339(2) 0.7305(2) 0.12787(17)
O9 O 0.6147(3) 0.6591(2) 0.20207(18)
O15 O 0.5909(2) 0.8647(3) 0.04793(18)
O16 O 0.7005(3) 0.9511(2) 0.1274(2)
Zn2 Zn 0.66639(4) 0.84493(4) 0.10599(3)
Zn7 Zn 0.59493(4) 0.58361(4) 0.14401(3)
C14_2 C 1.0000 0.7500 0.8750
C19 C 0.9686(3) 0.4006(3) 0.5313(2)
C22 C 0.9701(5) 0.4007(5) 0.4730(3)
C25 C 0.9113(5) 0.4233(7) 0.4424(4)
H14 H 0.9131 0.4273 0.4030
C28 C 0.8466(5) 0.4406(5) 0.4737(3)
H17 H 0.8042 0.4537 0.4547
C31 C 0.8483(3) 0.4375(3) 0.5313(3)
C34 C 0.7871(3) 0.4561(3) 0.5701(3)
C37 C 0.8895(3) 0.5389(4) 0.7207(3)
H20 H 0.8404 0.5287 0.7150
C39 C 0.8443(4) 0.8428(3) 0.9913(3)
C40 C 0.9072(3) 0.5943(4) 0.7587(3)
H22 H 0.8712 0.8788 0.9731
H23 H 0.8712 0.6212 0.7769
C42 C 0.8579(3) 0.7706(3) 0.9816(2)
C43 C 0.9794(3) 0.6079(3) 0.7684(2)
C47 C 0.9695(3) 0.9320(4) 0.7391(3)
H27 H 0.9199 0.9230 0.7433
C50 C 0.9944(4) 0.9851(4) 0.7038(3)
C51 C 0.9476(3) 0.7940(3) 0.9120(2)
C52 C 0.9560(3) 0.6976(3) 0.8380(2)
H31 H 0.9744 0.8279 0.9357
H32 H 0.9221 0.7244 0.8143
H34 H 0.9142 0.8215 0.8883
H35 H 0.9285 0.6642 0.8617
N4 N 0.9367(2) 0.5005(3) 0.6926(2)
N7 N 0.9096(2) 0.4183(2) 0.5582(2)
O13 O 0.8853(3) 0.3409(2) 0.70207(18)
O17 O 0.7989(2) 0.4505(3) 0.6226(2)
O20 O 0.7270(3) 0.4718(3) 0.5472(3)
O22 O 0.9090(2) 0.7443(2) 0.94606(19)
O24 O 0.9943(2) 0.8410(2) 0.80394(19)
Zn3 Zn 0.90507(4) 0.41639(4) 0.64401(3)
C1_2 C 0.1319(3) 0.2189(3) 0.6794(3)
C2_2 C 0.1506(3) 0.2814(3) 0.7187(2)
C3_2 C 0.1507(5) 0.2799(5) 0.7770(3)
H1_2 H 0.1352 0.2382 0.7959
C4_2 C 0.1733(7) 0.3387(5) 0.8076(4)
H2_2 H 0.1773 0.3369 0.8470
C5_2 C 0.1906(5) 0.4034(5) 0.7763(3)
H3_2 H 0.2037 0.4458 0.7953
C6_2 C 0.1875(3) 0.4017(3) 0.7187(3)
C7_2 C 0.2061(3) 0.4629(3) 0.6799(3)
C8_2 C 0.2889(4) 0.3605(3) 0.5293(3)
H4_2 H 0.2787 0.4096 0.5350
C9_2 C 0.3443(4) 0.3428(3) 0.4913(3)
H5_2 H 0.3712 0.3788 0.4731
C10_2 C 0.3579(3) 0.2706(3) 0.4816(2)
C11_2 C 0.3180(4) 0.2195(3) 0.5109(3)
H6_2 H 0.3270 0.1699 0.5067
C12_2 C 0.2649(4) 0.2444(4) 0.5462(3)
H7_2 H 0.2361 0.2096 0.5640
C13_2 C 0.4476(3) 0.2940(3) 0.4120(2)
H8_2 H 0.4744 0.3279 0.4357
H9_2 H 0.4142 0.3215 0.3883
C14_3 C 0.5000 0.2500 0.3750
N1_2 N 0.2505(3) 0.3133(2) 0.5574(2)
N2_2 N 0.1683(2) 0.3404(2) 0.6918(2)
O1_2 O 0.1339(2) 0.2305(2) 0.62787(17)
O3_2 O 0.2005(3) 0.4511(2) 0.6274(2)
O4_2 O 0.2218(3) 0.5230(3) 0.7028(3)
O5_2 O 0.4090(2) 0.2443(2) 0.44606(19)
C15_2 C 0.8681(3) 0.2811(3) 0.6794(3)
C16_2 C 0.4689(3) 0.6181(3) 0.0706(3)
C18_2 C 0.8494(3) 0.2186(3) 0.7187(2)
C19_2 C 0.5314(3) 0.5994(3) 0.0313(2)
C21_2 C 0.8493(5) 0.2201(5) 0.7770(3)
H10_2 H 0.8648 0.2618 0.7959
C24_2 C 0.8267(7) 0.1613(5) 0.8076(4)
H13_2 H 0.8227 0.1631 0.8470
C27_2 C 0.8094(5) 0.0966(5) 0.7763(3)
H16_2 H 0.7963 0.0542 0.7953
C30_2 C 0.8125(3) 0.0983(3) 0.7187(3)
C31_2 C 0.6517(3) 0.5625(3) 0.0313(3)
C33_2 C 0.7939(3) 0.0371(3) 0.6799(3)
C34_2 C 0.7129(3) 0.5439(3) 0.0701(3)
C36_2 C 0.7111(4) 0.1395(3) 0.5293(3)
C37_2 C 0.6105(3) 0.4611(4) 0.2207(3)
C38_2 C 0.3895(3) 0.0389(4) 0.2207(3)
H19_2 H 0.7213 0.0904 0.5350
H20_2 H 0.6596 0.4713 0.2150
H21_2 H 0.3404 0.0287 0.2150
C39_2 C 0.6557(4) 0.1572(3) 0.4913(3)
C40_2 C 0.5928(3) 0.4057(4) 0.2587(3)
C41_2 C 0.4072(3) 0.0943(4) 0.2587(3)
H22_2 H 0.6288 0.1212 0.4731
H23_2 H 0.6288 0.3788 0.2769
H24_2 H 0.3712 0.1212 0.2769
C42_2 C 0.6421(3) 0.2294(3) 0.4816(2)
C43_2 C 0.5206(3) 0.3921(3) 0.2684(2)
C44_2 C 0.4794(3) 0.1079(3) 0.2684(2)
C45_2 C 0.6820(4) 0.2805(3) 0.5109(3)
C46_2 C 0.4695(3) 0.4320(4) 0.2391(3)
C47_2 C 0.5305(3) 0.0680(4) 0.2391(3)
H25_2 H 0.6730 0.3301 0.5067
H26_2 H 0.4199 0.4230 0.2433
H27_2 H 0.5801 0.0770 0.2433
C48_2 C 0.7351(4) 0.2556(4) 0.5462(3)
C49_2 C 0.4944(4) 0.4851(4) 0.2038(3)
C50_2 C 0.5056(4) 0.0149(4) 0.2038(3)
H28_2 H 0.7639 0.2904 0.5640
H29_2 H 0.4596 0.5139 0.1860
C51_2 C 0.5524(3) 0.2060(3) 0.4120(2)
C52_2 C 0.5440(3) 0.3024(3) 0.3380(2)
C53_2 C 0.4560(3) 0.1976(3) 0.3380(2)
H31_2 H 0.5256 0.1721 0.4357
H32_2 H 0.5779 0.2756 0.3143
H33_2 H 0.4221 0.2244 0.3143
H34_2 H 0.5858 0.1785 0.3883
H35_2 H 0.5715 0.3358 0.3617
H36_2 H 0.4285 0.1642 0.3617
N3_2 N 0.7495(3) 0.1867(2) 0.5574(2)
N4_2 N 0.5633(2) 0.4995(3) 0.1926(2)
N5_2 N 0.4367(2) 0.0005(3) 0.1926(2)
N6_2 N 0.8317(2) 0.1596(2) 0.6918(2)
N7_2 N 0.5904(2) 0.5817(2) 0.0582(2)
O6_2 O 0.8661(2) 0.2695(2) 0.62787(17)
O7_2 O 0.4805(2) 0.6161(2) 0.12213(17)
O16_2 O 0.7995(3) 0.0489(2) 0.6274(2)
O17_2 O 0.7011(2) 0.5495(3) 0.1226(2)
O20_2 O 0.7730(3) 0.5282(3) 0.0472(3)
O22_2 O 0.5910(2) 0.2557(2) 0.44606(19)
O23_2 O 0.4943(2) 0.3410(2) 0.30394(19)
O24_2 O 0.5057(2) 0.1590(2) 0.30394(19)
C17_2 C 0.5311(3) 0.8819(3) 0.0706(3)
C20_2 C 0.4686(3) 0.9006(3) 0.0313(2)
C32_2 C 0.3483(3) 0.9375(3) 0.0313(3)
C35_2 C 0.2871(3) 0.9561(3) 0.0701(3)
H30_2 H 0.5404 0.9861 0.1860
N8_2 N 0.4096(2) 0.9183(2) 0.0582(2)
O8_2 O 0.5195(2) 0.8839(2) 0.12213(17)
O18_2 O 0.2989(2) 0.9505(3) 0.1226(2)
O19 O 0.7782(3) 0.9770(3) 0.7028(3)
O21_2 O 0.2270(3) 0.9718(3) 0.0472(3)
O19_2 O 0.7218(3) 0.0230(3) 0.2028(3)
C22_2 C 0.5299(5) 0.5993(5) 0.9730(3)
H11_2 H 0.4882 0.6148 0.9541
C25_2 C 0.5887(5) 0.5767(7) 0.9424(4)
H14_2 H 0.5869 0.5727 0.9030
C28_2 C 0.6534(5) 0.5594(5) 0.9737(3)
H17_2 H 0.6958 0.5463 0.9547
C23_2 C 0.4701(5) 0.9007(5) 0.9730(3)
H12_2 H 0.5118 0.8852 0.9541
C26_2 C 0.4113(5) 0.9233(7) 0.9424(4)
H15_2 H 0.4131 0.9273 0.9030
C29_2 C 0.3466(5) 0.9406(5) 0.9737(3)
H18_2 H 0.3042 0.9537 0.9547
C2_3 C 0.0314(3) 0.5994(3) 0.4687(2)
C3_3 C 0.0299(5) 0.5993(5) 0.5270(3)
C4_3 C 0.0887(5) 0.5767(7) 0.5576(4)
H2_3 H 0.0869 0.5727 0.5970
C5_3 C 0.1534(5) 0.5594(5) 0.5263(3)
H3_3 H 0.1958 0.5463 0.5453
C6_3 C 0.1517(3) 0.5625(3) 0.4687(3)
C7_3 C 0.2129(3) 0.5439(3) 0.4299(3)
C8_3 C 0.1105(3) 0.4611(4) 0.2793(3)
H4_3 H 0.1596 0.4713 0.2850
C9_3 C 0.0928(3) 0.4057(4) 0.2413(3)
H5_3 H 0.1288 0.3788 0.2231
C10_3 C 0.0206(3) 0.3921(3) 0.2316(2)
C13_3 C 0.0440(3) 0.3024(3) 0.1620(2)
H8_3 H 0.0779 0.2756 0.1857
H9_3 H 0.0715 0.3358 0.1383
C14_4 C 0.0000 0.2500 0.1250
N1_3 N 0.0633(2) 0.4995(3) 0.3074(2)
N2_3 N 0.0904(2) 0.5817(2) 0.4418(2)
O3_3 O 0.2011(2) 0.5495(3) 0.3774(2)
O4_3 O 0.2730(3) 0.5282(3) 0.4528(3)
Zn1_2 Zn 0.09493(4) 0.58361(4) 0.35599(3)
C40_3 C 0.1557(4) 0.1572(3) 0.0087(3)
H23_3 H 0.1288 0.1212 0.0269
C43_3 C 0.1421(3) 0.2294(3) 0.0184(2)
C45_3 C 0.0305(3) 0.0680(4) 0.2609(3)
H25_3 H 0.0801 0.0770 0.2567
C48_3 C 0.0056(4) 0.0149(4) 0.2962(3)
C52_3 C 0.0524(3) 0.2060(3) 0.0880(2)
H32_3 H 0.0256 0.1721 0.0643
H35_3 H 0.0858 0.1785 0.1117
O14_2 O 0.1147(3) 0.6591(2) 0.29793(18)
O22_3 O 0.0057(2) 0.1590(2) 0.19606(19)
O23_3 O 0.0910(2) 0.2557(2) 0.05394(19)
C16_3 C 0.3681(3) 0.2811(3) 0.8206(3)
C19_3 C 0.3494(3) 0.2186(3) 0.7813(2)
C22_3 C 0.3493(5) 0.2201(5) 0.7230(3)
H11_3 H 0.3648 0.2618 0.7041
C25_3 C 0.3267(7) 0.1613(5) 0.6924(4)
H14_3 H 0.3227 0.1631 0.6530
C28_3 C 0.3094(5) 0.0966(5) 0.7237(3)
H17_3 H 0.2963 0.0542 0.7047
C31_3 C 0.3125(3) 0.0983(3) 0.7813(3)
C34_3 C 0.2939(3) 0.0371(3) 0.8201(3)
C37_3 C 0.2111(4) 0.1395(3) 0.9707(3)
H20_3 H 0.2213 0.0904 0.9650
C46_3 C 0.1820(4) 0.2805(3) 0.9891(3)
H26_3 H 0.1730 0.3301 0.9933
C49_3 C 0.2351(4) 0.2556(4) 0.9538(3)
H29_3 H 0.2639 0.2904 0.9360
N4_3 N 0.2495(3) 0.1867(2) 0.9426(2)
N7_3 N 0.3317(2) 0.1596(2) 0.8082(2)
O7_3 O 0.3661(2) 0.2695(2) 0.87213(17)
O10_2 O 0.3853(3) 0.3409(2) 0.79793(18)
O13_2 O 0.4091(2) 0.1353(3) 0.95207(18)
O17_3 O 0.2995(3) 0.0489(2) 0.8726(2)
Zn3_2 Zn 0.33361(4) 0.15507(4) 0.89401(3)
Zn5_2 Zn 0.40507(4) 0.41639(4) 0.85599(3)
C15_3 C 0.0311(3) 0.8819(3) 0.4294(3)
H10_3 H 0.0118 0.8852 0.5459
H28_3 H 0.0404 0.9861 0.3140
O6_3 O 0.0195(2) 0.8839(2) 0.37787(17)
O9_2 O 0.0909(2) 0.8647(3) 0.45207(18)
Zn7_2 Zn 0.16639(4) 0.84493(4) 0.39401(3)
C1_3 C 0.9689(3) 0.6181(3) 0.4294(3)
H1_3 H 0.9882 0.6148 0.5459
C11_3 C 0.9695(3) 0.4320(4) 0.2609(3)
H6_3 H 0.9199 0.4230 0.2567
C12_3 C 0.9944(4) 0.4851(4) 0.2962(3)
H7_3 H 0.9596 0.5139 0.3140
C14_5 C 1.0000 0.2500 0.1250
O1_3 O 0.9805(2) 0.6161(2) 0.37787(17)
O2_2 O 0.9091(2) 0.6353(3) 0.45207(18)
O5_3 O 0.9943(2) 0.3410(2) 0.19606(19)
C36_3 C 0.8895(3) 0.0389(4) 0.2793(3)
H19_3 H 0.8404 0.0287 0.2850
C39_3 C 0.9072(3) 0.0943(4) 0.2413(3)
C41_3 C 0.8443(4) 0.3428(3) 0.0087(3)
H22_3 H 0.8712 0.1212 0.2231
H24_3 H 0.8712 0.3788 0.0269
C42_3 C 0.9794(3) 0.1079(3) 0.2316(2)
C44_3 C 0.8579(3) 0.2706(3) 0.0184(2)
C51_3 C 0.9560(3) 0.1976(3) 0.1620(2)
C53_3 C 0.9476(3) 0.2940(3) 0.0880(2)
H31_3 H 0.9221 0.2244 0.1857
H33_3 H 0.9744 0.3279 0.0643
H34_3 H 0.9285 0.1642 0.1383
H36_3 H 0.9142 0.3215 0.1117
N3_3 N 0.9367(2) 0.0005(3) 0.3074(2)
O24_3 O 0.9090(2) 0.2443(2) 0.05394(19)
Zn8_2 Zn 0.83361(4) 0.65507(4) 0.39401(3)
C17_3 C 0.6319(3) 0.2189(3) 0.8206(3)
C20_3 C 0.6506(3) 0.2814(3) 0.7813(2)
C23_3 C 0.6507(5) 0.2799(5) 0.7230(3)
H12_3 H 0.6352 0.2382 0.7041
C26_3 C 0.6733(7) 0.3387(5) 0.6924(4)
H15_3 H 0.6773 0.3369 0.6530
C29_3 C 0.6906(5) 0.4034(5) 0.7237(3)
H18_3 H 0.7037 0.4458 0.7047
C32_3 C 0.6875(3) 0.4017(3) 0.7813(3)
C35_3 C 0.7061(3) 0.4629(3) 0.8201(3)
C38_3 C 0.7889(4) 0.3605(3) 0.9707(3)
H21_3 H 0.7787 0.4096 0.9650
C47_3 C 0.8180(4) 0.2195(3) 0.9891(3)
H27_3 H 0.8270 0.1699 0.9933
C50_3 C 0.7649(4) 0.2444(4) 0.9538(3)
H30_3 H 0.7361 0.2096 0.9360
N5_3 N 0.7505(3) 0.3133(2) 0.9426(2)
N8_3 N 0.6683(2) 0.3404(2) 0.8082(2)
O8_3 O 0.6339(2) 0.2305(2) 0.87213(17)
O11_2 O 0.6147(3) 0.1591(2) 0.79793(18)
O12_2 O 0.5909(2) 0.3647(3) 0.95207(18)
O18_3 O 0.7005(3) 0.4511(2) 0.8726(2)
O21_3 O 0.7218(3) 0.5230(3) 0.7972(3)
Zn4_2 Zn 0.66639(4) 0.34493(4) 0.89401(3)
Zn6_2 Zn 0.59493(4) 0.08361(4) 0.85599(3)
C18_3 C 0.9686(3) 0.9006(3) 0.4687(2)
C21_3 C 0.9701(5) 0.9007(5) 0.5270(3)
C24_3 C 0.9113(5) 0.9233(7) 0.5576(4)
H13_3 H 0.9131 0.9273 0.5970
C27_3 C 0.8466(5) 0.9406(5) 0.5263(3)
H16_3 H 0.8042 0.9537 0.5453
C30_3 C 0.8483(3) 0.9375(3) 0.4687(3)
C33_3 C 0.7871(3) 0.9561(3) 0.4299(3)
N6_3 N 0.9096(2) 0.9183(2) 0.4418(2)
O15_2 O 0.8853(3) 0.8409(2) 0.29793(18)
O16_3 O 0.7989(2) 0.9505(3) 0.3774(2)
O19_3 O 0.7270(3) 0.9718(3) 0.4528(3)
Zn2_2 Zn 0.90507(4) 0.91639(4) 0.35599(3)
C15_4 C 0.4689(3) 0.1181(3) 0.9294(3)
C18_4 C 0.5314(3) 0.0994(3) 0.9687(2)
C30_4 C 0.6517(3) 0.0625(3) 0.9687(3)
C33_4 C 0.7129(3) 0.0439(3) 0.9299(3)
H28_4 H 0.4596 0.0139 0.8140
N6_4 N 0.5904(2) 0.0817(2) 0.9418(2)
O6_4 O 0.4805(2) 0.1161(2) 0.87787(17)
O16_4 O 0.7011(2) 0.0495(3) 0.8774(2)
O19_4 O 0.7730(3) 0.0282(3) 0.9528(3)
O20_3 O 0.2218(3) 0.0230(3) 0.2972(3)
C1_4 C 0.5311(3) 0.3819(3) 0.9294(3)
C2_4 C 0.4686(3) 0.4006(3) 0.9687(2)
C6_4 C 0.3483(3) 0.4375(3) 0.9687(3)
C7_4 C 0.2871(3) 0.4561(3) 0.9299(3)
C8_4 C 0.3895(3) 0.5389(4) 0.7793(3)
H4_4 H 0.3404 0.5287 0.7850
C9_4 C 0.4072(3) 0.5943(4) 0.7413(3)
H5_4 H 0.3712 0.6212 0.7231
C10_4 C 0.4794(3) 0.6079(3) 0.7316(2)
C11_4 C 0.5305(3) 0.5680(4) 0.7609(3)
H6_4 H 0.5801 0.5770 0.7567
C12_4 C 0.5056(4) 0.5149(4) 0.7962(3)
H7_4 H 0.5404 0.4861 0.8140
C13_4 C 0.4560(3) 0.6976(3) 0.6620(2)
H8_4 H 0.4221 0.7244 0.6857
H9_4 H 0.4285 0.6642 0.6383
C14_6 C 0.5000 0.7500 0.6250
N1_4 N 0.4367(2) 0.5005(3) 0.8074(2)
N2_4 N 0.4096(2) 0.4183(2) 0.9418(2)
O1_4 O 0.5195(2) 0.3839(2) 0.87787(17)
O3_4 O 0.2989(2) 0.4505(3) 0.8774(2)
O4_4 O 0.2270(3) 0.4718(3) 0.9528(3)
O5_4 O 0.5057(2) 0.6590(2) 0.69606(19)
C16_4 C 0.1319(3) 0.7189(3) 0.3206(3)
C17_4 C 0.8681(3) 0.7811(3) 0.3206(3)
C19_4 C 0.1506(3) 0.7814(3) 0.2813(2)
C20_4 C 0.8494(3) 0.7186(3) 0.2813(2)
C22_4 C 0.1507(5) 0.7799(5) 0.2230(3)
C23_4 C 0.8493(5) 0.7201(5) 0.2230(3)
H11_4 H 0.1352 0.7382 0.2041
H12_4 H 0.8648 0.7618 0.2041
C25_4 C 0.1733(7) 0.8387(5) 0.1924(4)
C26_4 C 0.8267(7) 0.6613(5) 0.1924(4)
H14_4 H 0.1773 0.8369 0.1530
H15_4 H 0.8227 0.6631 0.1530
C28_4 C 0.1906(5) 0.9034(5) 0.2237(3)
C29_4 C 0.8094(5) 0.5966(5) 0.2237(3)
H17_4 H 0.2037 0.9458 0.2047
H18_4 H 0.7963 0.5542 0.2047
C31_4 C 0.1875(3) 0.9017(3) 0.2813(3)
C32_4 C 0.8125(3) 0.5983(3) 0.2813(3)
C34_4 C 0.2061(3) 0.9629(3) 0.3201(3)
C35_4 C 0.7939(3) 0.5371(3) 0.3201(3)
C36_4 C 0.6105(3) 0.9611(4) 0.7793(3)
C37_4 C 0.2889(4) 0.8605(3) 0.4707(3)
C38_4 C 0.7111(4) 0.6395(3) 0.4707(3)
H19_4 H 0.6596 0.9713 0.7850
H20_4 H 0.2787 0.9096 0.4650
H21_4 H 0.7213 0.5904 0.4650
C39_4 C 0.5928(3) 0.9057(4) 0.7413(3)
C40_4 C 0.3443(4) 0.8428(3) 0.5087(3)
C41_4 C 0.6557(4) 0.6572(3) 0.5087(3)
H22_4 H 0.6288 0.8788 0.7231
H23_4 H 0.3712 0.8788 0.5269
H24_4 H 0.6288 0.6212 0.5269
C42_4 C 0.5206(3) 0.8921(3) 0.7316(2)
C43_4 C 0.3579(3) 0.7706(3) 0.5184(2)
C44_4 C 0.6421(3) 0.7294(3) 0.5184(2)
C45_4 C 0.4695(3) 0.9320(4) 0.7609(3)
C46_4 C 0.3180(4) 0.7195(3) 0.4891(3)
C47_4 C 0.6820(4) 0.7805(3) 0.4891(3)
H25_4 H 0.4199 0.9230 0.7567
H26_4 H 0.3270 0.6699 0.4933
H27_4 H 0.6730 0.8301 0.4933
C48_4 C 0.4944(4) 0.9851(4) 0.7962(3)
C49_4 C 0.2649(4) 0.7444(4) 0.4538(3)
C50_4 C 0.7351(4) 0.7556(4) 0.4538(3)
H29_4 H 0.2361 0.7096 0.4360
H30_4 H 0.7639 0.7904 0.4360
C51_4 C 0.5440(3) 0.8024(3) 0.6620(2)
C52_4 C 0.4476(3) 0.7940(3) 0.5880(2)
C53_4 C 0.5524(3) 0.7060(3) 0.5880(2)
H31_4 H 0.5779 0.7756 0.6857
H32_4 H 0.4744 0.8279 0.5643
H33_4 H 0.5256 0.6721 0.5643
H34_4 H 0.5715 0.8358 0.6383
H35_4 H 0.4142 0.8215 0.6117
H36_4 H 0.5858 0.6785 0.6117
N3_4 N 0.5633(2) 0.9995(3) 0.8074(2)
N4_4 N 0.2505(3) 0.8133(2) 0.4426(2)
N5_4 N 0.7495(3) 0.6867(2) 0.4426(2)
N7_4 N 0.1683(2) 0.8404(2) 0.3082(2)
N8_4 N 0.8317(2) 0.6596(2) 0.3082(2)
O7_4 O 0.1339(2) 0.7305(2) 0.37213(17)
O8_4 O 0.8661(2) 0.7695(2) 0.37213(17)
O17_4 O 0.2005(3) 0.9511(2) 0.3726(2)
O18_4 O 0.7995(3) 0.5489(2) 0.3726(2)
O21_4 O 0.7782(3) 0.4770(3) 0.2972(3)
O22_4 O 0.4943(2) 0.8410(2) 0.69606(19)
O23_4 O 0.4090(2) 0.7443(2) 0.55394(19)
O24_4 O 0.5910(2) 0.7557(2) 0.55394(19)
O20_4 O 0.2782(3) 0.9770(3) 0.7972(3)
C21_4 C 0.5299(5) 0.0993(5) 0.0270(3)
H10_4 H 0.4882 0.1148 0.0459
C24_4 C 0.5887(5) 0.0767(7) 0.0576(4)
H13_4 H 0.5869 0.0727 0.0970
C27_4 C 0.6534(5) 0.0594(5) 0.0263(3)
H16_4 H 0.6958 0.0463 0.0453
C3_4 C 0.4701(5) 0.4007(5) 0.0270(3)
H1_4 H 0.5118 0.3852 0.0459
C4_4 C 0.4113(5) 0.4233(7) 0.0576(4)
H2_4 H 0.4131 0.4273 0.0970
C5_4 C 0.3466(5) 0.4406(5) 0.0263(3)
H3_4 H 0.3042 0.4537 0.0453
loop_
_geom_bond_atom_site_label_1
_geom_bond_atom_site_label_2
_geom_bond_site_symmetry_1
_geom_bond_site_symmetry_2
C20 C23 1_555 1_555
C26 C23 1_555 1_555
H15 C26 1_555 1_555
C29 C26 1_555 1_555
H18 C29 1_555 1_555
C32 C29 1_555 1_555
C35 C32 1_555 1_555
N8 C20 1_555 1_555
O12 Zn4 1_555 1_555
O18 C35 1_555 1_555
O21 C35 1_555 1_555
C32 N8 1_555 1_555
N8 Zn4 1_555 1_555
O18 Zn4 1_555 1_555
C1 C2 1_555 1_555
C2 C3 1_555 1_555
C3 H1 1_555 1_555
C4 C3 1_555 1_555
H2 C4 1_555 1_555
C5 C4 1_555 1_555
H3 C5 1_555 1_555
C6 C5 1_555 1_555
C7 C6 1_555 1_555
C8 H4 1_555 1_555
H6 C11 1_555 1_555
C12 C11 1_555 1_555
H7 C12 1_555 1_555
N1 C8 1_555 1_555
N2 C2 1_555 1_555
O1 C1 1_555 1_555
O2 C1 1_555 1_555
O3 C7 1_555 1_555
O4 C7 1_555 1_555
Zn1 N1 1_555 1_555
O14 Zn1 1_555 1_555
Zn8 O2 1_555 1_555
C6 N2 1_555 1_555
C12 N1 1_555 1_555
N2 Zn1 1_555 1_555
O1 Zn1 1_555 1_555
O3 Zn1 1_555 1_555
H5 C9 1_555 1_555
C10 C9 1_555 1_555
C13 H8 1_555 1_555
H9 C13 1_555 1_555
C14 C13 1_555 1_555
O5 C10 1_555 1_555
C38 H21 1_555 1_555
C41 C38 1_555 1_555
H24 C41 1_555 1_555
C44 C41 1_555 1_555
H26 C46 1_555 1_555
C49 C46 1_555 1_555
H29 C49 1_555 1_555
C53 C14 1_555 1_555
H33 C53 1_555 1_555
H36 C53 1_555 1_555
N5 C38 1_555 1_555
O7 C16 1_555 1_555
O10 C16 1_555 1_555
Zn5 O10 1_555 1_555
C13 O5 1_555 1_555
O8 C17 1_555 1_555
O11 C17 1_555 1_555
Zn6 O11 1_555 1_555
C15 C18 1_555 1_555
C18 C21 1_555 1_555
C21 H10 1_555 1_555
C24 C21 1_555 1_555
H13 C24 1_555 1_555
C27 C24 1_555 1_555
H16 C27 1_555 1_555
C30 C27 1_555 1_555
C33 C30 1_555 1_555
C36 H19 1_555 1_555
H25 C45 1_555 1_555
C48 C45 1_555 1_555
H28 C48 1_555 1_555
N3 C36 1_555 1_555
N6 C18 1_555 1_555
O6 C15 1_555 1_555
O9 C15 1_555 1_555
O15 Zn2 1_555 1_555
O16 C33 1_555 1_555
Zn2 N3 1_555 1_555
Zn7 O9 1_555 1_555
C30 N6 1_555 1_555
C48 N3 1_555 1_555
N6 Zn2 1_555 1_555
O6 Zn2 1_555 1_555
O16 Zn2 1_555 1_555
C19 C22 1_555 1_555
C25 C22 1_555 1_555
H14 C25 1_555 1_555
C28 C25 1_555 1_555
H17 C28 1_555 1_555
C31 C28 1_555 1_555
C34 C31 1_555 1_555
C37 H20 1_555 1_555
C40 C37 1_555 1_555
H22 C39 1_555 1_555
H23 C40 1_555 1_555
C42 C39 1_555 1_555
C43 C40 1_555 1_555
H27 C47 1_555 1_555
C50 C47 1_555 1_555
C51 C14_2 1_555 1_555
C52 C14_2 1_555 1_555
H31 C51 1_555 1_555
H32 C52 1_555 1_555
H34 C51 1_555 1_555
H35 C52 1_555 1_555
N4 C37 1_555 1_555
N7 C19 1_555 1_555
O13 Zn3 1_555 1_555
O17 C34 1_555 1_555
O20 C34 1_555 1_555
O22 C42 1_555 1_555
Zn3 N4 1_555 1_555
C31 N7 1_555 1_555
C51 O22 1_555 1_555
N7 Zn3 1_555 1_555
O17 Zn3 1_555 1_555
C1_2 C2_2 1_555 1_555
C2_2 C3_2 1_555 1_555
C3_2 H1_2 1_555 1_555
C4_2 C3_2 1_555 1_555
H2_2 C4_2 1_555 1_555
C5_2 C4_2 1_555 1_555
H3_2 C5_2 1_555 1_555
C6_2 C5_2 1_555 1_555
C7_2 C6_2 1_555 1_555
C8_2 H4_2 1_555 1_555
C9_2 C8_2 1_555 1_555
H5_2 C9_2 1_555 1_555
C10_2 C9_2 1_555 1_555
C11_2 C10_2 1_555 1_555
H6_2 C11_2 1_555 1_555
C12_2 C11_2 1_555 1_555
H7_2 C12_2 1_555 1_555
C13_2 H8_2 1_555 1_555
H9_2 C13_2 1_555 1_555
C14_3 C13_2 1_555 1_555
N1_2 C8_2 1_555 1_555
N2_2 C2_2 1_555 1_555
O1_2 C1_2 1_555 1_555
O12 C1_2 1_555 1_555
O3_2 C7_2 1_555 1_555
O4_2 C7_2 1_555 1_555
O5_2 C10_2 1_555 1_555
Zn5 N1_2 1_555 1_555
C15_2 C18_2 1_555 1_555
C16_2 C19_2 1_555 1_555
C18_2 C21_2 1_555 1_555
C21_2 H10_2 1_555 1_555
C24_2 C21_2 1_555 1_555
H13_2 C24_2 1_555 1_555
C27_2 C24_2 1_555 1_555
H16_2 C27_2 1_555 1_555
C30_2 C27_2 1_555 1_555
C33_2 C30_2 1_555 1_555
C34_2 C31_2 1_555 1_555
C36_2 H19_2 1_555 1_555
C37_2 H20_2 1_555 1_555
C38_2 H21_2 1_555 1_555
C39_2 C36_2 1_555 1_555
C40_2 C37_2 1_555 1_555
C41_2 C38_2 1_555 1_555
H22_2 C39_2 1_555 1_555
H23_2 C40_2 1_555 1_555
H24_2 C41_2 1_555 1_555
C42_2 C39_2 1_555 1_555
C43_2 C40_2 1_555 1_555
C44_2 C41_2 1_555 1_555
C45_2 C42_2 1_555 1_555
C46_2 C43_2 1_555 1_555
C47_2 C44_2 1_555 1_555
H25_2 C45_2 1_555 1_555
H26_2 C46_2 1_555 1_555
H27_2 C47_2 1_555 1_555
C48_2 C45_2 1_555 1_555
C49_2 C46_2 1_555 1_555
C50_2 C47_2 1_555 1_555
H28_2 C48_2 1_555 1_555
H29_2 C49_2 1_555 1_555
C51_2 C14_3 1_555 1_555
C52_2 C14_3 1_555 1_555
C53_2 C14_3 1_555 1_555
H31_2 C51_2 1_555 1_555
H32_2 C52_2 1_555 1_555
H33_2 C53_2 1_555 1_555
H34_2 C51_2 1_555 1_555
H35_2 C52_2 1_555 1_555
H36_2 C53_2 1_555 1_555
N3_2 C36_2 1_555 1_555
N4_2 C37_2 1_555 1_555
N5_2 C38_2 1_555 1_555
N6_2 C18_2 1_555 1_555
N7_2 C19_2 1_555 1_555
O6_2 C15_2 1_555 1_555
O7_2 C16_2 1_555 1_555
O13 C15_2 1_555 1_555
O14 C16_2 1_555 1_555
O16_2 C33_2 1_555 1_555
O17_2 C34_2 1_555 1_555
O20_2 C34_2 1_555 1_555
O22_2 C42_2 1_555 1_555
O23_2 C43_2 1_555 1_555
O24_2 C44_2 1_555 1_555
Zn6 N3_2 1_555 1_555
Zn7 N4_2 1_555 1_555
C6_2 N2_2 1_555 1_555
C12_2 N1_2 1_555 1_555
C13_2 O5_2 1_555 1_555
N2_2 Zn5 1_555 1_555
O1_2 Zn5 1_555 1_555
O3_2 Zn5 1_555 1_555
C30_2 N6_2 1_555 1_555
C31_2 N7_2 1_555 1_555
C48_2 N3_2 1_555 1_555
C49_2 N4_2 1_555 1_555
C50_2 N5_2 1_555 1_555
C51_2 O22_2 1_555 1_555
C52_2 O23_2 1_555 1_555
C53_2 O24_2 1_555 1_555
N6_2 Zn6 1_555 1_555
N7_2 Zn7 1_555 1_555
O6_2 Zn6 1_555 1_555
O7_2 Zn7 1_555 1_555
O16_2 Zn6 1_555 1_555
O17_2 Zn7 1_555 1_555
C17_2 C20_2 1_555 1_555
C35_2 C32_2 1_555 1_555
N8_2 C20_2 1_555 1_555
O8_2 C17_2 1_555 1_555
O15 C17_2 1_555 1_555
O18_2 C35_2 1_555 1_555
O21_2 C35_2 1_555 1_555
C32_2 N8_2 1_555 1_555
N8_2 Zn8 1_555 1_555
O8_2 Zn8 1_555 1_555
O18_2 Zn8 1_555 1_555
C22_2 H11_2 1_555 1_555
C25_2 C22_2 1_555 1_555
H14_2 C25_2 1_555 1_555
C28_2 C25_2 1_555 1_555
H17_2 C28_2 1_555 1_555
C23_2 H12_2 1_555 1_555
C26_2 C23_2 1_555 1_555
H15_2 C26_2 1_555 1_555
C29_2 C26_2 1_555 1_555
H18_2 C29_2 1_555 1_555
C2_3 C3_3 1_555 1_555
C4_3 C3_3 1_555 1_555
H2_3 C4_3 1_555 1_555
C5_3 C4_3 1_555 1_555
H3_3 C5_3 1_555 1_555
C6_3 C5_3 1_555 1_555
C7_3 C6_3 1_555 1_555
C8_3 H4_3 1_555 1_555
C9_3 C8_3 1_555 1_555
H5_3 C9_3 1_555 1_555
C10_3 C9_3 1_555 1_555
C13_3 H8_3 1_555 1_555
H9_3 C13_3 1_555 1_555
C14_4 C13_3 1_555 1_555
N1_3 C8_3 1_555 1_555
N2_3 C2_3 1_555 1_555
O3_3 C7_3 1_555 1_555
O4_3 C7_3 1_555 1_555
Zn1_2 N1_3 1_555 1_555
H23_3 C40_3 1_555 1_555
C43_3 C40_3 1_555 1_555
H25_3 C45_3 1_555 1_555
C48_3 C45_3 1_555 1_555
C52_3 C14_4 1_555 1_555
H32_3 C52_3 1_555 1_555
H35_3 C52_3 1_555 1_555
O14_2 Zn1_2 1_555 1_555
O23_3 C43_3 1_555 1_555
C6_3 N2_3 1_555 1_555
N2_3 Zn1_2 1_555 1_555
O3_3 Zn1_2 1_555 1_555
C52_3 O23_3 1_555 1_555
C16_3 C19_3 1_555 1_555
C19_3 C22_3 1_555 1_555
C22_3 H11_3 1_555 1_555
C25_3 C22_3 1_555 1_555
H14_3 C25_3 1_555 1_555
C28_3 C25_3 1_555 1_555
H17_3 C28_3 1_555 1_555
C31_3 C28_3 1_555 1_555
C34_3 C31_3 1_555 1_555
C37_3 H20_3 1_555 1_555
H26_3 C46_3 1_555 1_555
C49_3 C46_3 1_555 1_555
H29_3 C49_3 1_555 1_555
N4_3 C37_3 1_555 1_555
N7_3 C19_3 1_555 1_555
O7_3 C16_3 1_555 1_555
O10_2 C16_3 1_555 1_555
O13_2 Zn3_2 1_555 1_555
O17_3 C34_3 1_555 1_555
Zn3_2 N4_3 1_555 1_555
Zn5_2 O10_2 1_555 1_555
C31_3 N7_3 1_555 1_555
C49_3 N4_3 1_555 1_555
N7_3 Zn3_2 1_555 1_555
O7_3 Zn3_2 1_555 1_555
O17_3 Zn3_2 1_555 1_555
O6_3 C15_3 1_555 1_555
O9_2 C15_3 1_555 1_555
Zn7_2 O9_2 1_555 1_555
H6_3 C11_3 1_555 1_555
C12_3 C11_3 1_555 1_555
H7_3 C12_3 1_555 1_555
O1_3 C1_3 1_555 1_555
O2_2 C1_3 1_555 1_555
C36_3 H19_3 1_555 1_555
C39_3 C36_3 1_555 1_555
H22_3 C39_3 1_555 1_555
H24_3 C41_3 1_555 1_555
C42_3 C39_3 1_555 1_555
C44_3 C41_3 1_555 1_555
C51_3 C14_5 1_555 1_555
C53_3 C14_5 1_555 1_555
H31_3 C51_3 1_555 1_555
H33_3 C53_3 1_555 1_555
H34_3 C51_3 1_555 1_555
H36_3 C53_3 1_555 1_555
N3_3 C36_3 1_555 1_555
O24_3 C44_3 1_555 1_555
Zn8_2 O2_2 1_555 1_555
C53_3 O24_3 1_555 1_555
C17_3 C20_3 1_555 1_555
C20_3 C23_3 1_555 1_555
C23_3 H12_3 1_555 1_555
C26_3 C23_3 1_555 1_555
H15_3 C26_3 1_555 1_555
C29_3 C26_3 1_555 1_555
H18_3 C29_3 1_555 1_555
C32_3 C29_3 1_555 1_555
C35_3 C32_3 1_555 1_555
C38_3 H21_3 1_555 1_555
H27_3 C47_3 1_555 1_555
C50_3 C47_3 1_555 1_555
H30_3 C50_3 1_555 1_555
N5_3 C38_3 1_555 1_555
N8_3 C20_3 1_555 1_555
O8_3 C17_3 1_555 1_555
O11_2 C17_3 1_555 1_555
O12_2 Zn4_2 1_555 1_555
O18_3 C35_3 1_555 1_555
O21_3 C35_3 1_555 1_555
Zn4_2 N5_3 1_555 1_555
Zn6_2 O11_2 1_555 1_555
C32_3 N8_3 1_555 1_555
C50_3 N5_3 1_555 1_555
N8_3 Zn4_2 1_555 1_555
O8_3 Zn4_2 1_555 1_555
O18_3 Zn4_2 1_555 1_555
C18_3 C21_3 1_555 1_555
C24_3 C21_3 1_555 1_555
H13_3 C24_3 1_555 1_555
C27_3 C24_3 1_555 1_555
H16_3 C27_3 1_555 1_555
C30_3 C27_3 1_555 1_555
C33_3 C30_3 1_555 1_555
N6_3 C18_3 1_555 1_555
O15_2 Zn2_2 1_555 1_555
O16_3 C33_3 1_555 1_555
O19_3 C33_3 1_555 1_555
C30_3 N6_3 1_555 1_555
N6_3 Zn2_2 1_555 1_555
O16_3 Zn2_2 1_555 1_555
C15_4 C18_4 1_555 1_555
C33_4 C30_4 1_555 1_555
N6_4 C18_4 1_555 1_555
O6_4 C15_4 1_555 1_555
O13_2 C15_4 1_555 1_555
O16_4 C33_4 1_555 1_555
O19_4 C33_4 1_555 1_555
C30_4 N6_4 1_555 1_555
N6_4 Zn6_2 1_555 1_555
O6_4 Zn6_2 1_555 1_555
O16_4 Zn6_2 1_555 1_555
C1_4 C2_4 1_555 1_555
C7_4 C6_4 1_555 1_555
C8_4 H4_4 1_555 1_555
C9_4 C8_4 1_555 1_555
H5_4 C9_4 1_555 1_555
C10_4 C9_4 1_555 1_555
C11_4 C10_4 1_555 1_555
H6_4 C11_4 1_555 1_555
C12_4 C11_4 1_555 1_555
H7_4 C12_4 1_555 1_555
C13_4 H8_4 1_555 1_555
H9_4 C13_4 1_555 1_555
C14_6 C13_4 1_555 1_555
N1_4 C8_4 1_555 1_555
N2_4 C2_4 1_555 1_555
O1_4 C1_4 1_555 1_555
O12_2 C1_4 1_555 1_555
O3_4 C7_4 1_555 1_555
O4_4 C7_4 1_555 1_555
O5_4 C10_4 1_555 1_555
Zn5_2 N1_4 1_555 1_555
C16_4 C19_4 1_555 1_555
C17_4 C20_4 1_555 1_555
C19_4 C22_4 1_555 1_555
C20_4 C23_4 1_555 1_555
C22_4 H11_4 1_555 1_555
C23_4 H12_4 1_555 1_555
C25_4 C22_4 1_555 1_555
C26_4 C23_4 1_555 1_555
H14_4 C25_4 1_555 1_555
H15_4 C26_4 1_555 1_555
C28_4 C25_4 1_555 1_555
C29_4 C26_4 1_555 1_555
H17_4 C28_4 1_555 1_555
H18_4 C29_4 1_555 1_555
C31_4 C28_4 1_555 1_555
C32_4 C29_4 1_555 1_555
C34_4 C31_4 1_555 1_555
C35_4 C32_4 1_555 1_555
C36_4 H19_4 1_555 1_555
C37_4 H20_4 1_555 1_555
C38_4 H21_4 1_555 1_555
C39_4 C36_4 1_555 1_555
C40_4 C37_4 1_555 1_555
C41_4 C38_4 1_555 1_555
H22_4 C39_4 1_555 1_555
H23_4 C40_4 1_555 1_555
H24_4 C41_4 1_555 1_555
C42_4 C39_4 1_555 1_555
C43_4 C40_4 1_555 1_555
C44_4 C41_4 1_555 1_555
C45_4 C42_4 1_555 1_555
C46_4 C43_4 1_555 1_555
C47_4 C44_4 1_555 1_555
H25_4 C45_4 1_555 1_555
H26_4 C46_4 1_555 1_555
H27_4 C47_4 1_555 1_555
C48_4 C45_4 1_555 1_555
C49_4 C46_4 1_555 1_555
C50_4 C47_4 1_555 1_555
H29_4 C49_4 1_555 1_555
H30_4 C50_4 1_555 1_555
C51_4 C14_6 1_555 1_555
C52_4 C14_6 1_555 1_555
C53_4 C14_6 1_555 1_555
H31_4 C51_4 1_555 1_555
H32_4 C52_4 1_555 1_555
H33_4 C53_4 1_555 1_555
H34_4 C51_4 1_555 1_555
H35_4 C52_4 1_555 1_555
H36_4 C53_4 1_555 1_555
N3_4 C36_4 1_555 1_555
N4_4 C37_4 1_555 1_555
N5_4 C38_4 1_555 1_555
N7_4 C19_4 1_555 1_555
N8_4 C20_4 1_555 1_555
O7_4 C16_4 1_555 1_555
O8_4 C17_4 1_555 1_555
O14_2 C16_4 1_555 1_555
O15_2 C17_4 1_555 1_555
O17_4 C34_4 1_555 1_555
O18_4 C35_4 1_555 1_555
O21_4 C35_4 1_555 1_555
O22_4 C42_4 1_555 1_555
O23_4 C43_4 1_555 1_555
O24_4 C44_4 1_555 1_555
Zn7_2 N4_4 1_555 1_555
Zn8_2 N5_4 1_555 1_555
C6_4 N2_4 1_555 1_555
C12_4 N1_4 1_555 1_555
C13_4 O5_4 1_555 1_555
N2_4 Zn5_2 1_555 1_555
O1_4 Zn5_2 1_555 1_555
O3_4 Zn5_2 1_555 1_555
C31_4 N7_4 1_555 1_555
C32_4 N8_4 1_555 1_555
C48_4 N3_4 1_555 1_555
C49_4 N4_4 1_555 1_555
C50_4 N5_4 1_555 1_555
C51_4 O22_4 1_555 1_555
C52_4 O23_4 1_555 1_555
C53_4 O24_4 1_555 1_555
N7_4 Zn7_2 1_555 1_555
N8_4 Zn8_2 1_555 1_555
O7_4 Zn7_2 1_555 1_555
O8_4 Zn8_2 1_555 1_555
O17_4 Zn7_2 1_555 1_555
O18_4 Zn8_2 1_555 1_555
C21_4 H10_4 1_555 1_555
C24_4 C21_4 1_555 1_555
H13_4 C24_4 1_555 1_555
C27_4 C24_4 1_555 1_555
H16_4 C27_4 1_555 1_555
C3_4 H1_4 1_555 1_555
C4_4 C3_4 1_555 1_555
H2_4 C4_4 1_555 1_555
C5_4 C4_4 1_555 1_555
H3_4 C5_4 1_555 1_555

#END
