
###############################################################################
#
# This file contains modified crystal structure data generated from the
# MOF subset of the Cambridge Structural Database (CSD) v543 
# hosted by the Cambridge Crystallographic Data Centre (CCDC).
#
# This work is licensed under the Creative Commons
# Attribution-NonCommercial-ShareAlike 4.0 International License.
# To view a copy of this license, visit
# http://creativecommons.org/licenses/by-nc-sa/4.0/
# or send a letter to
# Creative Commons, PO Box 1866, Mountain View, CA 94042, USA.
#
# CIF created using the CSD Python API on 29 September 2022
# The structure has been converted into the P1 space group
# The structure has a 3D framework
# The original CSD entry TEPGUS is in the orthorhombic crystal system
# The framework has been calculated to contain at least 10.0% void space
# The void calculation uses a probe of radius 1.32A, grid spacing 0.4
#
###############################################################################

data_TEPGUS
_chemical_formula_moiety         '(C44 H36 N26 O8 Zn4)n'
_symmetry_cell_setting           triclinic
_symmetry_space_group_name_H-M   'P 1'
_symmetry_Int_Tables_number      1
_space_group_name_Hall           'P 1'
loop_
_symmetry_equiv_pos_site_id
_symmetry_equiv_pos_as_xyz
1 x,y,z
_cell_length_a                   18.2266(6)
_cell_length_b                   10.3496(4)
_cell_length_c                   9.1663(3)
_cell_angle_alpha                90
_cell_angle_beta                 90
_cell_angle_gamma                90
_cell_volume                     1729.11
loop_
_atom_site_label
_atom_site_type_symbol
_atom_site_fract_x
_atom_site_fract_y
_atom_site_fract_z
O1 O 0.3186(2) 0.0498(4) 0.1100(4)
Zn3 Zn 0.40025(2) 0.02837(5) 0.37822(10)
Zn1 Zn 0.09975(2) 0.52837(5) 0.87822(10)
C6 C 0.1712(3) 0.7892(6) 0.9035(6)
C7 C 0.2162(3) 0.8799(5) 0.9711(6)
H3 H 0.2184 0.9638 0.9349
H7 H 0.1966 0.3069 0.9772
N6 N 0.1668(2) 0.6677(4) 0.9563(5)
N7 N 0.1332(3) 0.8168(6) 0.7856(6)
H8 H 0.1356 0.8928 0.7480
H9 H 0.1058 0.7588 0.7461
O3 O 0.16328(19) 0.4027(4) 0.7834(4)
N8 N 0.0143(2) 0.5705(4) 0.7531(4)
H2 H 0.0265 0.4494 0.5815
C1 C 0.5419(3) 0.1550(5) 0.2758(6)
C2 C 0.5892(3) 0.1485(5) 0.1601(6)
C3 C 0.6515(3) 0.2329(5) 0.1593(6)
C4 C 0.6086(3) 0.3044(5) 0.3841(9)
H1 H 0.6160 0.3605 0.4620
C5 C 0.5023(5) 0.0139(8) 0.1231(9)
N1 N 0.4857(2) 0.0705(4) 0.2531(4)
N2 N 0.5629(2) 0.0585(4) 0.0608(4)
N3 N 0.5502(2) 0.2312(4) 0.3943(6)
N4 N 0.6588(3) 0.3105(5) 0.2793(5)
N5 N 0.7006(3) 0.2413(5) 0.0532(6)
H6 H 0.7364 0.2950 0.0603
H2_2 H 0.5265 0.0506 0.5815
C6_2 C 0.3288(3) 0.2892(6) 0.4035(6)
C7_2 C 0.2838(3) 0.3799(5) 0.4711(6)
H3_2 H 0.2816 0.4638 0.4349
C8 C 0.2426(3) 0.3466(5) 0.5904(6)
C9 C 0.2464(3) 0.2206(6) 0.6420(7)
H4 H 0.2191 0.1947 0.7225
C10 C 0.2915(3) 0.1355(6) 0.5709(6)
H5 H 0.2933 0.0507 0.6040
C11 C 0.1927(3) 0.4423(5) 0.6616(6)
O1_2 O 0.1814(2) 0.5498(4) 0.6100(4)
N6_2 N 0.3332(2) 0.1677(4) 0.4563(5)
N7_2 N 0.3668(3) 0.3168(6) 0.2856(6)
H8_2 H 0.3644 0.3928 0.2480
H9_2 H 0.3942 0.2588 0.2461
C1_2 C 0.0419(3) 0.3450(5) 0.2758(6)
C2_2 C 0.0892(3) 0.3515(5) 0.1601(6)
C3_2 C 0.1515(3) 0.2671(5) 0.1593(6)
C4_2 C 0.1086(3) 0.1956(5) 0.3841(9)
H1_2 H 0.1160 0.1395 0.4620
C5_2 C 0.0023(5) 0.4861(8) 0.1231(9)
C8_2 C 0.2574(3) 0.8466(5) 0.0904(6)
C9_2 C 0.2536(3) 0.7206(6) 0.1420(7)
H4_2 H 0.2809 0.6947 0.2225
C10_2 C 0.2085(3) 0.6355(6) 0.0709(6)
H5_2 H 0.2067 0.5507 0.1040
C11_2 C 0.3073(3) 0.9423(5) 0.1616(6)
O2 O 0.33672(19) 0.9027(4) 0.2834(4)
N2_2 N 0.0629(2) 0.4415(4) 0.0608(4)
N3_2 N 0.0502(2) 0.2688(4) 0.3943(6)
N4_2 N 0.1588(3) 0.1895(5) 0.2793(5)
N5_2 N 0.2006(3) 0.2587(5) 0.0532(6)
H6_2 H 0.2364 0.2050 0.0603
O1_3 O 0.6814(2) 0.9502(4) 0.6100(4)
Zn3_2 Zn 0.59975(2) 0.97163(5) 0.87822(10)
C6_3 C 0.6712(3) 0.7108(6) 0.9035(6)
C7_3 C 0.7162(3) 0.6201(5) 0.9711(6)
H3_3 H 0.7184 0.5362 0.9349
N6_3 N 0.6668(2) 0.8323(4) 0.9563(5)
N7_3 N 0.6332(3) 0.6832(6) 0.7856(6)
H8_3 H 0.6356 0.6072 0.7480
H9_3 H 0.6058 0.7412 0.7461
N8_2 N 0.5143(2) 0.9295(4) 0.7531(4)
C1_3 C 0.4581(3) 0.8450(5) 0.7758(6)
C2_3 C 0.4108(3) 0.8515(5) 0.6601(6)
C3_3 C 0.3485(3) 0.7671(5) 0.6593(6)
C4_3 C 0.3914(3) 0.6956(5) 0.8841(9)
H1_3 H 0.3840 0.6395 0.9620
C5_3 C 0.4977(5) 0.9861(8) 0.6231(9)
N2_3 N 0.4371(2) 0.9415(4) 0.5608(4)
N3_3 N 0.4498(2) 0.7688(4) 0.8943(6)
N4_3 N 0.3412(3) 0.6895(5) 0.7793(5)
N5_3 N 0.2994(3) 0.7587(5) 0.5532(6)
H6_3 H 0.2636 0.7050 0.5603
H7_2 H 0.3034 0.8069 0.4772
H2_3 H 0.9735 0.5506 0.0815
N1_2 N 0.9857(2) 0.4295(4) 0.2531(4)
Zn2 Zn 0.90025(2) 0.47163(5) 0.37822(10)
C1_4 C 0.9581(3) 0.6550(5) 0.7758(6)
C2_4 C 0.9108(3) 0.6485(5) 0.6601(6)
C3_4 C 0.8485(3) 0.7329(5) 0.6593(6)
C4_4 C 0.8914(3) 0.8044(5) 0.8841(9)
H1_4 H 0.8840 0.8605 0.9620
C5_4 C 0.9977(5) 0.5139(8) 0.6231(9)
C6_4 C 0.8288(3) 0.2108(6) 0.4035(6)
C7_4 C 0.7838(3) 0.1201(5) 0.4711(6)
H3_4 H 0.7816 0.0362 0.4349
C8_3 C 0.7426(3) 0.1534(5) 0.5904(6)
C9_3 C 0.7464(3) 0.2794(6) 0.6420(7)
H4_3 H 0.7191 0.3053 0.7225
C10_3 C 0.7915(3) 0.3645(6) 0.5709(6)
H5_3 H 0.7933 0.4493 0.6040
C11_3 C 0.6927(3) 0.0577(5) 0.6616(6)
O2_2 O 0.66328(19) 0.0973(4) 0.7834(4)
N2_4 N 0.9371(2) 0.5585(4) 0.5608(4)
N3_4 N 0.9498(2) 0.7312(4) 0.8943(6)
N4_4 N 0.8412(3) 0.8105(5) 0.7793(5)
N5_4 N 0.7994(3) 0.7413(5) 0.5532(6)
H6_4 H 0.7636 0.7950 0.5603
H7_3 H 0.8034 0.6931 0.4772
N6_4 N 0.8332(2) 0.3323(4) 0.4563(5)
N7_4 N 0.8668(3) 0.1832(6) 0.2856(6)
H8_4 H 0.8644 0.1072 0.2480
H9_4 H 0.8942 0.2412 0.2461
O3_2 O 0.83672(19) 0.5973(4) 0.2834(4)
H7_4 H 0.6966 0.1931 0.9772
H2_4 H 0.4735 0.9494 0.0815
C8_4 C 0.7574(3) 0.6534(5) 0.0904(6)
C9_4 C 0.7536(3) 0.7794(6) 0.1420(7)
H4_4 H 0.7809 0.8053 0.2225
C10_4 C 0.7085(3) 0.8645(6) 0.0709(6)
H5_4 H 0.7067 0.9493 0.1040
C11_4 C 0.8073(3) 0.5577(5) 0.1616(6)
O1_4 O 0.8186(2) 0.4502(4) 0.1100(4)
loop_
_geom_bond_atom_site_label_1
_geom_bond_atom_site_label_2
_geom_bond_site_symmetry_1
_geom_bond_site_symmetry_2
C6 C7 1_555 1_555
C7 H3 1_555 1_555
N6 Zn1 1_555 1_555
N7 C6 1_555 1_555
H8 N7 1_555 1_555
H9 N7 1_555 1_555
O3 Zn1 1_555 1_555
N8 Zn1 1_555 1_555
C6 N6 1_555 1_555
C1 C2 1_555 1_555
C2 C3 1_555 1_555
C3 N4 1_555 1_555
C4 H1 1_555 1_555
N1 C1 1_555 1_555
N2 C2 1_555 1_555
N3 C1 1_555 1_555
N4 C4 1_555 1_555
N5 C3 1_555 1_555
H6 N5 1_555 1_555
Zn3 N1 1_555 1_555
C4 N3 1_555 1_555
C5 N1 1_555 1_555
C5 N2 1_555 1_555
C6_2 C7_2 1_555 1_555
C7_2 H3_2 1_555 1_555
C8 C7_2 1_555 1_555
C9 C8 1_555 1_555
H4 C9 1_555 1_555
C10 C9 1_555 1_555
H5 C10 1_555 1_555
C11 C8 1_555 1_555
O1_2 C11 1_555 1_555
O3 C11 1_555 1_555
N6_2 Zn3 1_555 1_555
N7_2 C6_2 1_555 1_555
H8_2 N7_2 1_555 1_555
H9_2 N7_2 1_555 1_555
C6_2 N6_2 1_555 1_555
C10 N6_2 1_555 1_555
C1_2 C2_2 1_555 1_555
C2_2 C3_2 1_555 1_555
C3_2 N4_2 1_555 1_555
C4_2 H1_2 1_555 1_555
C9_2 C8_2 1_555 1_555
H4_2 C9_2 1_555 1_555
C10_2 C9_2 1_555 1_555
H5_2 C10_2 1_555 1_555
C11_2 C8_2 1_555 1_555
O2 C11_2 1_555 1_555
N2_2 C2_2 1_555 1_555
N3_2 C1_2 1_555 1_555
N4_2 C4_2 1_555 1_555
N5_2 C3_2 1_555 1_555
H6_2 N5_2 1_555 1_555
C4_2 N3_2 1_555 1_555
C5_2 N2_2 1_555 1_555
C6_3 C7_3 1_555 1_555
C7_3 H3_3 1_555 1_555
N6_3 Zn3_2 1_555 1_555
N7_3 C6_3 1_555 1_555
H8_3 N7_3 1_555 1_555
H9_3 N7_3 1_555 1_555
N8_2 Zn3_2 1_555 1_555
C6_3 N6_3 1_555 1_555
C1_3 C2_3 1_555 1_555
C2_3 C3_3 1_555 1_555
C3_3 N4_3 1_555 1_555
C4_3 H1_3 1_555 1_555
N8_2 C1_3 1_555 1_555
N2_3 C2_3 1_555 1_555
N3_3 C1_3 1_555 1_555
N4_3 C4_3 1_555 1_555
N5_3 C3_3 1_555 1_555
H6_3 N5_3 1_555 1_555
H7_2 N5_3 1_555 1_555
C4_3 N3_3 1_555 1_555
C5_3 N8_2 1_555 1_555
C5_3 N2_3 1_555 1_555
Zn2 N1_2 1_555 1_555
Zn2 N2_4 1_555 1_555
C1_4 C2_4 1_555 1_555
C2_4 C3_4 1_555 1_555
C3_4 N4_4 1_555 1_555
C4_4 H1_4 1_555 1_555
C6_4 C7_4 1_555 1_555
C7_4 H3_4 1_555 1_555
C8_3 C7_4 1_555 1_555
C9_3 C8_3 1_555 1_555
H4_3 C9_3 1_555 1_555
C10_3 C9_3 1_555 1_555
H5_3 C10_3 1_555 1_555
C11_3 C8_3 1_555 1_555
O2_2 C11_3 1_555 1_555
N2_4 C2_4 1_555 1_555
N3_4 C1_4 1_555 1_555
N4_4 C4_4 1_555 1_555
N5_4 C3_4 1_555 1_555
H6_4 N5_4 1_555 1_555
H7_3 N5_4 1_555 1_555
N6_4 Zn2 1_555 1_555
N7_4 C6_4 1_555 1_555
H8_4 N7_4 1_555 1_555
H9_4 N7_4 1_555 1_555
O3_2 Zn2 1_555 1_555
C4_4 N3_4 1_555 1_555
C5_4 N2_4 1_555 1_555
C6_4 N6_4 1_555 1_555
C10_3 N6_4 1_555 1_555
C9_4 C8_4 1_555 1_555
H4_4 C9_4 1_555 1_555
C10_4 C9_4 1_555 1_555
H5_4 C10_4 1_555 1_555
C11_4 C8_4 1_555 1_555
O1_4 C11_4 1_555 1_555
O3_2 C11_4 1_555 1_555

#END
