
###############################################################################
#
# This file contains modified crystal structure data generated from the
# MOF subset of the Cambridge Structural Database (CSD) v543 
# hosted by the Cambridge Crystallographic Data Centre (CCDC).
#
# This work is licensed under the Creative Commons
# Attribution-NonCommercial-ShareAlike 4.0 International License.
# To view a copy of this license, visit
# http://creativecommons.org/licenses/by-nc-sa/4.0/
# or send a letter to
# Creative Commons, PO Box 1866, Mountain View, CA 94042, USA.
#
# CIF created using the CSD Python API on 29 September 2022
# The structure has been converted into the P1 space group
# The structure has a 3D framework
# The original CSD entry TEPNOU is in the monoclinic crystal system
# The framework has been calculated to contain at least 10.0% void space
# The void calculation uses a probe of radius 1.32A, grid spacing 0.4
#
###############################################################################

data_TEPNOU
_chemical_formula_moiety         '(C200 H118 Gd4 N16 Na8 O54 Zn4)n'
_symmetry_cell_setting           triclinic
_symmetry_space_group_name_H-M   'P 1'
_symmetry_Int_Tables_number      1
_space_group_name_Hall           'P 1'
loop_
_symmetry_equiv_pos_site_id
_symmetry_equiv_pos_as_xyz
1 x,y,z
_cell_length_a                   16.2149(6)
_cell_length_b                   16.8506(7)
_cell_length_c                   31.8606(14)
_cell_angle_alpha                90
_cell_angle_beta                 96.948(2)
_cell_angle_gamma                90
_cell_volume                     8641.37
loop_
_atom_site_label
_atom_site_type_symbol
_atom_site_fract_x
_atom_site_fract_y
_atom_site_fract_z
Zn1 Zn 0.61707(4) 0.73218(4) 0.54588(2)
Na1 Na 0.8476(2) 0.4287(2) 0.74073(11)
Na2 Na 0.0671(2) 0.1170(2) 0.73374(10)
O3 O 0.0018(3) 0.2683(2) 0.26445(13)
O4 O 0.6295(3) 0.6131(3) 0.55741(14)
O6 O 0.0096(3) 0.1891(3) 0.67608(14)
O8 O 0.8273(3) 0.2058(3) 0.26627(14)
O9 O 0.7692(3) 0.3163(3) 0.24317(17)
O10 O 0.7506(3) 0.2498(3) 0.65697(18)
O11 O 0.8110(3) 0.3583(3) 0.68088(14)
O12 O 0.8884(4) 0.5001(4) 0.8042(2)
H1 H 0.9345 0.4745 0.8225
H2 H 0.8415 0.5115 0.8205
O13 O 0.7090(6) 0.6187(3) 0.6165(3)
H3 H 0.7386 0.5977 0.6374
O14 O 0.1000(5) 0.0376(5) 0.7943(2)
H4 H 0.0503 0.0236 0.8080
H5 H 0.1425 0.0623 0.8151
O15 O 0.1979(5) 0.1730(5) 0.7366(3)
H6 H 0.2087 0.2123 0.7166
H7 H 0.2408 0.1567 0.7578
O16 O 0.7075(6) 0.4716(6) 0.7446(3)
H8 H 0.6642 0.4551 0.7236
H9 H 0.6954 0.5050 0.7671
N1 N 0.3891(3) 0.2762(3) 0.51949(14)
N2 N 0.2647(3) 0.2197(3) 0.45281(16)
N3 N 0.5123(3) 0.2732(3) 0.46199(14)
N4 N 0.3911(3) 0.2146(3) 0.39595(15)
C1 C 0.7135(4) 0.2533(4) 0.30076(18)
C2 C 0.1279(3) 0.0224(3) 0.30881(18)
C3 C 0.1284(4) 0.1853(3) 0.31795(19)
H10 H 0.1276 0.2413 0.3215
C4 C 0.0575(4) 0.2331(4) 0.61313(19)
C5 C 0.1818(4) 0.0581(4) 0.34051(17)
H11 H 0.2178 0.0262 0.3592
C6 C 0.2448(3) 0.1762(3) 0.37867(17)
C7 C 0.1834(3) 0.1396(3) 0.34498(18)
C8 C 0.6988(4) 0.3702(4) 0.62526(18)
C9 C 0.0752(4) 0.1504(4) 0.28609(19)
C12 C 0.2172(4) 0.1894(4) 0.4184(2)
C13 C 0.6011(4) 0.2450(4) 0.3591(2)
C14 C 0.2412(4) 0.2439(4) 0.5266(2)
C15 C 0.3210(4) 0.2697(4) 0.54265(18)
C16 C 0.0758(3) 0.0692(3) 0.28130(18)
H12 H 0.0403 0.0450 0.2590
C17 C 0.6404(4) 0.3295(4) 0.59678(19)
H13 H 0.6354 0.2735 0.5986
C18 C 0.7739(4) 0.2587(4) 0.26809(18)
C19 C 0.0137(4) 0.1965(4) 0.25707(18)
C20 C 0.5908(4) 0.3706(4) 0.56653(19)
C21 C 0.1768(4) 0.2411(4) 0.5563(2)
C22 C 0.5627(4) 0.2662(4) 0.4315(2)
C23 C 0.1277(4) 0.1843(4) 0.6190(2)
H14 H 0.1350 0.1484 0.6422
C24 C 0.5985(4) 0.4516(4) 0.56402(19)
H15 H 0.5643 0.4796 0.5426
C25 C 0.4573(4) 0.2166(4) 0.37373(19)
C26 C 0.5304(4) 0.3265(4) 0.53520(19)
C27 C 0.3255(4) 0.1877(4) 0.36892(17)
C28 C 0.5385(4) 0.2409(4) 0.3897(2)
C29 C 0.2153(4) 0.2197(4) 0.4852(2)
C30 C 0.4518(4) 0.3102(4) 0.5462(2)
C31 C 0.7553(4) 0.3239(4) 0.65597(19)
C32 C 0.1360(4) 0.1697(4) 0.4285(2)
H16 H 0.0915 0.1478 0.4099
C33 C 0.5588(4) 0.3065(4) 0.49647(18)
C34 C 0.1867(4) 0.1885(5) 0.5908(2)
H17 H 0.2343 0.1553 0.5948
C35 C 0.1071(4) 0.2885(4) 0.5506(2)
H18 H 0.0996 0.3240 0.5273
C36 C 0.6646(5) 0.5836(4) 0.5878(2)
C37 C 0.6555(5) 0.4942(4) 0.5921(2)
C38 C 0.0476(4) 0.2849(4) 0.5785(2)
C39 C 0.6460(4) 0.2933(6) 0.4469(2)
H20 H 0.6930 0.2931 0.4318
C40 C 0.1350(4) 0.1883(5) 0.4694(2)
H21 H 0.0893 0.1819 0.4851
C41 C 0.4336(4) 0.1893(5) 0.3319(2)
H22 H 0.4689 0.1845 0.3104
C42 C 0.7046(4) 0.4519(3) 0.6230(2)
H23 H 0.7428 0.4794 0.6428
C43 C 0.4259(5) 0.3212(5) 0.5869(2)
H24 H 0.4590 0.3419 0.6111
C44 C 0.3521(4) 0.1715(5) 0.3284(2)
H25 H 0.3188 0.1522 0.3039
C45 C 0.6434(4) 0.3185(5) 0.4867(2)
H26 H 0.6884 0.3401 0.5050
C46 C 0.7167(5) 0.1906(5) 0.3276(2)
H27 H 0.7574 0.1503 0.3266
C47 C 0.3466(5) 0.2973(5) 0.5852(2)
H28 H 0.3133 0.2983 0.6077
C48 C 0.6591(5) 0.1858(5) 0.3569(2)
H29 H 0.6601 0.1415 0.3754
C49 C 0.6558(5) 0.3116(5) 0.3017(3)
H30 H 0.6535 0.3546 0.2823
C50 C 0.5994(5) 0.3070(5) 0.3320(3)
H31 H 0.5596 0.3480 0.3334
Gd3 Gd 0.88128(2) 0.26906(2) 0.20431(2)
Gd5 Gd 0.88128(2) 0.23094(2) 0.70431(2)
Zn2 Zn 0.38293(4) 0.26782(4) 0.45412(2)
Na5 Na 0.8476(2) 0.0713(2) 0.24073(11)
Na6 Na 0.9329(2) 0.6170(2) 0.76626(10)
Na8 Na 0.0671(2) 0.3830(2) 0.23374(10)
O19 O 0.0018(3) 0.2317(2) 0.76445(13)
O23 O 0.9735(3) 0.3393(2) 0.72676(13)
O25 O 0.8273(3) 0.2942(3) 0.76627(14)
O29 O 0.1116(4) 0.0001(4) 0.6958(2)
O30 O 0.9000(5) 0.5376(5) 0.7057(2)
N5 N 0.6109(3) 0.7238(3) 0.48051(14)
N6 N 0.7353(3) 0.7803(3) 0.54719(16)
N7 N 0.4877(3) 0.7268(3) 0.53801(14)
N8 N 0.6089(3) 0.7854(3) 0.60405(15)
Gd1 Gd 0.11872(2) 0.76906(2) 0.29569(2)
O1 O 0.0824(2) 0.9051(2) 0.27226(12)
O2 O 0.1646(3) 0.8919(2) 0.33243(13)
C10 C 0.1246(4) 0.9343(3) 0.30425(17)
Na3 Na 0.1524(2) 0.9287(2) 0.75927(11)
O20 O 0.0741(3) 0.7337(3) 0.36507(14)
O22 O 0.0265(3) 0.6607(2) 0.27324(13)
O24 O 0.1727(3) 0.7058(3) 0.23373(14)
O26 O 0.2308(3) 0.8163(3) 0.25683(17)
O27 O 0.2494(3) 0.7502(3) 0.34303(18)
O28 O 0.1890(3) 0.6417(3) 0.31912(14)
O5 O 0.9259(3) 0.2663(3) 0.63493(14)
O7 O 0.9735(3) 0.1607(2) 0.22676(13)
C11 C 0.9940(4) 0.2296(4) 0.64306(18)
H19 H 0.9998 0.3179 0.5741
O17 O 0.9176(2) 0.0949(2) 0.72774(12)
Na7 Na 0.9329(2) 0.8830(2) 0.26626(10)
O18 O 0.9982(3) 0.7683(2) 0.23555(13)
O21 O 0.9904(3) 0.8109(3) 0.32392(14)
Na4 Na 0.1524(2) 0.5713(2) 0.25927(11)
O21_2 O 0.0096(3) 0.3109(3) 0.17608(14)
O5_2 O 0.0741(3) 0.7663(3) 0.86507(14)
C11_2 C 0.0060(4) 0.7296(4) 0.85694(18)
H19_2 H 0.0002 0.8179 0.9259
Gd4 Gd 0.11872(2) 0.73094(2) 0.79569(2)
O17_2 O 0.0824(2) 0.5949(2) 0.77226(12)
N5_2 N 0.3891(3) 0.2238(3) 0.01949(14)
Zn1_2 Zn 0.38293(4) 0.23218(4) 0.95412(2)
O4_2 O 0.3705(3) 0.1131(3) 0.94259(14)
H2_2 H 0.1585 0.0115 0.6795
O13_2 O 0.2910(6) 0.1187(3) 0.8835(3)
H3_2 H 0.2614 0.0977 0.8626
H9_2 H 0.3046 0.0050 0.7329
C36_2 C 0.3354(5) 0.0836(4) 0.9122(2)
N6_2 N 0.2647(3) 0.2803(3) 0.95281(16)
N7_2 N 0.5123(3) 0.2268(3) 0.96199(14)
N8_2 N 0.3911(3) 0.2854(3) 0.89595(15)
O1_2 O 0.9176(2) 0.4051(2) 0.22774(12)
O2_2 O 0.8354(3) 0.3919(2) 0.16757(13)
N2_2 N 0.7353(3) 0.7197(3) 0.04719(16)
N3_2 N 0.4877(3) 0.7732(3) 0.03801(14)
N4_2 N 0.6089(3) 0.7146(3) 0.10405(15)
C1_2 C 0.2865(4) 0.7533(4) 0.19924(18)
C2_2 C 0.8721(3) 0.5224(3) 0.19119(18)
C3_2 C 0.8716(4) 0.6853(3) 0.18205(19)
H10_2 H 0.8724 0.7413 0.1785
C5_2 C 0.8182(4) 0.5581(4) 0.15949(17)
H11_2 H 0.7822 0.5262 0.1408
C6_2 C 0.7552(3) 0.6762(3) 0.12133(17)
C7_2 C 0.8166(3) 0.6396(3) 0.15502(18)
C9_2 C 0.9248(4) 0.6504(4) 0.21391(19)
C10_2 C 0.8754(4) 0.4343(3) 0.19575(17)
C12_2 C 0.7828(4) 0.6894(4) 0.0816(2)
C13_2 C 0.3989(4) 0.7450(4) 0.1409(2)
C16_2 C 0.9242(3) 0.5692(3) 0.21870(18)
H12_2 H 0.9597 0.5450 0.2410
C18_2 C 0.2261(4) 0.7587(4) 0.23191(18)
C19_2 C 0.9863(4) 0.6965(4) 0.24293(18)
C22_2 C 0.4373(4) 0.7662(4) 0.0685(2)
C25_2 C 0.5427(4) 0.7166(4) 0.12627(19)
C27_2 C 0.6745(4) 0.6877(4) 0.13108(17)
C28_2 C 0.4615(4) 0.7409(4) 0.1103(2)
C29_2 C 0.7847(4) 0.7197(4) 0.0148(2)
C32_2 C 0.8640(4) 0.6697(4) 0.0715(2)
H16_2 H 0.9085 0.6478 0.0901
C33_2 C 0.4412(4) 0.8065(4) 0.00353(18)
C39_2 C 0.3540(4) 0.7933(6) 0.0531(2)
H20_2 H 0.3070 0.7931 0.0682
C40_2 C 0.8650(4) 0.6883(5) 0.0306(2)
H21_2 H 0.9107 0.6819 0.0149
C41_2 C 0.5664(4) 0.6893(5) 0.1681(2)
H22_2 H 0.5311 0.6845 0.1896
C44_2 C 0.6479(4) 0.6715(5) 0.1716(2)
H25_2 H 0.6812 0.6522 0.1961
C45_2 C 0.3566(4) 0.8185(5) 0.0133(2)
C46_2 C 0.2833(5) 0.6906(5) 0.1724(2)
H27_2 H 0.2426 0.6503 0.1734
C48_2 C 0.3409(5) 0.6858(5) 0.1431(2)
H29_2 H 0.3399 0.6415 0.1246
C49_2 C 0.3442(5) 0.8116(5) 0.1983(3)
H30_2 H 0.3465 0.8546 0.2177
C50_2 C 0.4006(5) 0.8070(5) 0.1680(3)
H31_2 H 0.4404 0.8480 0.1666
Zn2_2 Zn 0.61707(4) 0.76782(4) 0.04588(2)
O20_2 O 0.9259(3) 0.2337(3) 0.13493(14)
O27_2 O 0.7506(3) 0.2502(3) 0.15697(18)
O28_2 O 0.8110(3) 0.1417(3) 0.18088(14)
O6_2 O 0.9904(3) 0.6891(3) 0.82392(14)
O10_2 O 0.2494(3) 0.7498(3) 0.84303(18)
O11_2 O 0.1890(3) 0.8583(3) 0.81912(14)
H1_2 H 0.0655 0.9745 0.6775
H4_2 H 0.9497 0.5236 0.6920
H5_2 H 0.8575 0.5623 0.6849
O15_2 O 0.8021(5) 0.6730(5) 0.7634(3)
H6_2 H 0.7913 0.7123 0.7834
H7_2 H 0.7592 0.6567 0.7422
O16_2 O 0.2925(6) 0.9716(6) 0.7554(3)
H8_2 H 0.3358 0.9551 0.7764
N1_2 N 0.6109(3) 0.7762(3) 0.98051(14)
C4_2 C 0.9425(4) 0.7331(4) 0.88687(19)
C8_2 C 0.3012(4) 0.8702(4) 0.87474(18)
C14_2 C 0.7588(4) 0.7439(4) 0.9734(2)
C15_2 C 0.6790(4) 0.7697(4) 0.95735(18)
C17_2 C 0.3596(4) 0.8295(4) 0.90322(19)
H13_2 H 0.3646 0.7735 0.9014
C20_2 C 0.4092(4) 0.8706(4) 0.93347(19)
C21_2 C 0.8232(4) 0.7411(4) 0.9437(2)
C23_2 C 0.8723(4) 0.6843(4) 0.8810(2)
H14_2 H 0.8650 0.6484 0.8578
C24_2 C 0.4015(4) 0.9516(4) 0.93598(19)
H15_2 H 0.4357 0.9796 0.9574
C26_2 C 0.4696(4) 0.8265(4) 0.96480(19)
C30_2 C 0.5482(4) 0.8102(4) 0.9538(2)
C31_2 C 0.2447(4) 0.8239(4) 0.84403(19)
C34_2 C 0.8133(4) 0.6885(5) 0.9092(2)
H17_2 H 0.7657 0.6553 0.9052
C35_2 C 0.8929(4) 0.7885(4) 0.9494(2)
H18_2 H 0.9004 0.8240 0.9727
C37_2 C 0.3445(5) 0.9942(4) 0.9079(2)
C38_2 C 0.9524(4) 0.7849(4) 0.9215(2)
C42_2 C 0.2954(4) 0.9519(3) 0.8770(2)
H23_2 H 0.2572 0.9794 0.8572
C43_2 C 0.5741(5) 0.8212(5) 0.9131(2)
H24_2 H 0.5410 0.8419 0.8889
H26_2 H 0.3116 0.8401 0.9950
C47_2 C 0.6534(5) 0.7973(5) 0.9148(2)
H28_2 H 0.6867 0.7983 0.8923
O19_2 O 0.9982(3) 0.7317(2) 0.73555(13)
O23_2 O 0.0265(3) 0.8393(2) 0.77324(13)
O25_2 O 0.1727(3) 0.7942(3) 0.73373(14)
C11_3 C 0.0060(4) 0.7704(4) 0.35694(18)
H19_3 H 0.0002 0.6821 0.4259
O2_3 O 0.8354(3) 0.1081(2) 0.66757(13)
C10_3 C 0.8754(4) 0.0657(3) 0.69575(17)
O26_2 O 0.7692(3) 0.1837(3) 0.74317(17)
O4_3 O 0.3705(3) 0.3869(3) 0.44259(14)
O9_2 O 0.2308(3) 0.6837(3) 0.75683(17)
O12_2 O 0.1116(4) 0.4999(4) 0.1958(2)
H1_3 H 0.0655 0.5255 0.1775
H2_3 H 0.1585 0.4885 0.1795
O13_3 O 0.2910(6) 0.3813(3) 0.3835(3)
H3_3 H 0.2614 0.4023 0.3626
O14_2 O 0.9000(5) 0.9624(5) 0.2057(2)
H4_3 H 0.9497 0.9764 0.1920
H5_3 H 0.8575 0.9377 0.1849
O15_3 O 0.8021(5) 0.8270(5) 0.2634(3)
H6_3 H 0.7913 0.7877 0.2834
H7_3 H 0.7592 0.8433 0.2422
O16_3 O 0.2925(6) 0.5284(6) 0.2554(3)
H8_3 H 0.3358 0.5449 0.2764
H9_3 H 0.3046 0.4950 0.2329
C1_3 C 0.2865(4) 0.7467(4) 0.69924(18)
C2_3 C 0.8721(3) 0.9776(3) 0.69119(18)
C3_3 C 0.8716(4) 0.8147(3) 0.68205(19)
H10_3 H 0.8724 0.7587 0.6785
C4_3 C 0.9425(4) 0.7669(4) 0.38687(19)
C5_3 C 0.8182(4) 0.9419(4) 0.65949(17)
H11_3 H 0.7822 0.9738 0.6408
C6_3 C 0.7552(3) 0.8238(3) 0.62133(17)
C7_3 C 0.8166(3) 0.8604(3) 0.65502(18)
C8_3 C 0.3012(4) 0.6298(4) 0.37474(18)
C9_3 C 0.9248(4) 0.8496(4) 0.71391(19)
C12_3 C 0.7828(4) 0.8106(4) 0.5816(2)
C13_3 C 0.3989(4) 0.7550(4) 0.6409(2)
C14_3 C 0.7588(4) 0.7561(4) 0.4734(2)
C15_3 C 0.6790(4) 0.7303(4) 0.45735(18)
C16_3 C 0.9242(3) 0.9308(3) 0.71870(18)
H12_3 H 0.9597 0.9550 0.7410
C17_3 C 0.3596(4) 0.6705(4) 0.40322(19)
H13_3 H 0.3646 0.7265 0.4014
C18_3 C 0.2261(4) 0.7413(4) 0.73191(18)
C19_3 C 0.9863(4) 0.8035(4) 0.74293(18)
C20_3 C 0.4092(4) 0.6294(4) 0.43347(19)
C21_3 C 0.8232(4) 0.7589(4) 0.4437(2)
C22_3 C 0.4373(4) 0.7338(4) 0.5685(2)
C23_3 C 0.8723(4) 0.8157(4) 0.3810(2)
H14_3 H 0.8650 0.8516 0.3578
C24_3 C 0.4015(4) 0.5484(4) 0.43598(19)
H15_3 H 0.4357 0.5204 0.4574
C25_3 C 0.5427(4) 0.7834(4) 0.62627(19)
C26_3 C 0.4696(4) 0.6735(4) 0.46480(19)
C27_3 C 0.6745(4) 0.8123(4) 0.63108(17)
C28_3 C 0.4615(4) 0.7591(4) 0.6103(2)
C29_3 C 0.7847(4) 0.7803(4) 0.5148(2)
C30_3 C 0.5482(4) 0.6898(4) 0.4538(2)
C31_3 C 0.2447(4) 0.6761(4) 0.34403(19)
C32_3 C 0.8640(4) 0.8303(4) 0.5715(2)
H16_3 H 0.9085 0.8522 0.5901
C33_3 C 0.4412(4) 0.6935(4) 0.50353(18)
C34_3 C 0.8133(4) 0.8115(5) 0.4092(2)
H17_3 H 0.7657 0.8447 0.4052
C35_3 C 0.8929(4) 0.7115(4) 0.4494(2)
H18_3 H 0.9004 0.6760 0.4727
C36_3 C 0.3354(5) 0.4164(4) 0.4122(2)
C37_3 C 0.3445(5) 0.5058(4) 0.4079(2)
C38_3 C 0.9524(4) 0.7151(4) 0.4215(2)
C39_3 C 0.3540(4) 0.7067(6) 0.5531(2)
H20_3 H 0.3070 0.7069 0.5682
C40_3 C 0.8650(4) 0.8117(5) 0.5306(2)
H21_3 H 0.9107 0.8181 0.5149
C41_3 C 0.5664(4) 0.8107(5) 0.6681(2)
H22_3 H 0.5311 0.8155 0.6896
C42_3 C 0.2954(4) 0.5481(3) 0.3770(2)
H23_3 H 0.2572 0.5206 0.3572
C43_3 C 0.5741(5) 0.6788(5) 0.4131(2)
H24_3 H 0.5410 0.6581 0.3889
C44_3 C 0.6479(4) 0.8285(5) 0.6716(2)
H25_3 H 0.6812 0.8478 0.6961
C45_3 C 0.3566(4) 0.6815(5) 0.5133(2)
H26_3 H 0.3116 0.6599 0.4950
C46_3 C 0.2833(5) 0.8094(5) 0.6724(2)
H27_3 H 0.2426 0.8497 0.6734
C47_3 C 0.6534(5) 0.7027(5) 0.4148(2)
H28_3 H 0.6867 0.7017 0.3923
C48_3 C 0.3409(5) 0.8142(5) 0.6431(2)
H29_3 H 0.3399 0.8585 0.6246
C49_3 C 0.3442(5) 0.6884(5) 0.6983(3)
H30_3 H 0.3465 0.6454 0.7177
C50_3 C 0.4006(5) 0.6930(5) 0.6680(3)
H31_3 H 0.4404 0.6520 0.6666
O29_2 O 0.8884(4) 0.9999(4) 0.3042(2)
O30_2 O 0.1000(5) 0.4624(5) 0.2943(2)
H1_4 H 0.9345 0.0255 0.3225
H4_4 H 0.0503 0.4764 0.3080
H5_4 H 0.1425 0.4377 0.3151
O15_4 O 0.1979(5) 0.3270(5) 0.2366(3)
H6_4 H 0.2087 0.2877 0.2166
H7_4 H 0.2408 0.3433 0.2578
O16_4 O 0.7075(6) 0.0284(6) 0.2446(3)
H8_4 H 0.6642 0.0449 0.2236
C4_4 C 0.0575(4) 0.2669(4) 0.11313(19)
C8_4 C 0.6988(4) 0.1298(4) 0.12526(18)
C14_4 C 0.2412(4) 0.2561(4) 0.0266(2)
C15_4 C 0.3210(4) 0.2303(4) 0.04265(18)
C17_4 C 0.6404(4) 0.1705(4) 0.09678(19)
H13_4 H 0.6354 0.2265 0.0986
C20_4 C 0.5908(4) 0.1294(4) 0.06653(19)
C21_4 C 0.1768(4) 0.2589(4) 0.0563(2)
C23_4 C 0.1277(4) 0.3157(4) 0.1190(2)
H14_4 H 0.1350 0.3516 0.1422
C24_4 C 0.5985(4) 0.0484(4) 0.06402(19)
H15_4 H 0.5643 0.0204 0.0426
C26_4 C 0.5304(4) 0.1735(4) 0.03520(19)
C30_4 C 0.4518(4) 0.1898(4) 0.0462(2)
C31_4 C 0.7553(4) 0.1761(4) 0.15597(19)
C34_4 C 0.1867(4) 0.3115(5) 0.0908(2)
H17_4 H 0.2343 0.3447 0.0948
C35_4 C 0.1071(4) 0.2115(4) 0.0506(2)
H18_4 H 0.0996 0.1760 0.0273
C37_4 C 0.6555(5) 0.0058(4) 0.0921(2)
C38_4 C 0.0476(4) 0.2151(4) 0.0785(2)
C42_4 C 0.7046(4) 0.0481(3) 0.1230(2)
H23_4 H 0.7428 0.0206 0.1428
C43_4 C 0.4259(5) 0.1788(5) 0.0869(2)
H24_4 H 0.4590 0.1581 0.1111
H26_4 H 0.6884 0.1599 0.0050
C47_4 C 0.3466(5) 0.2027(5) 0.0852(2)
H28_4 H 0.3133 0.2017 0.1077
O2_4 O 0.1646(3) 0.6081(2) 0.83243(13)
C1_4 C 0.7135(4) 0.2467(4) 0.80076(18)
C2_4 C 0.1279(3) 0.4776(3) 0.80881(18)
C3_4 C 0.1284(4) 0.3147(3) 0.81795(19)
H10_4 H 0.1276 0.2587 0.8215
C5_4 C 0.1818(4) 0.4419(4) 0.84051(17)
H11_4 H 0.2178 0.4738 0.8592
C6_4 C 0.2448(3) 0.3238(3) 0.87867(17)
C7_4 C 0.1834(3) 0.3604(3) 0.84498(18)
C9_4 C 0.0752(4) 0.3496(4) 0.78609(19)
C10_4 C 0.1246(4) 0.5657(3) 0.80425(17)
C12_4 C 0.2172(4) 0.3106(4) 0.9184(2)
C13_4 C 0.6011(4) 0.2550(4) 0.8591(2)
C16_4 C 0.0758(3) 0.4308(3) 0.78130(18)
H12_4 H 0.0403 0.4550 0.7590
C18_4 C 0.7739(4) 0.2413(4) 0.76809(18)
C19_4 C 0.0137(4) 0.3035(4) 0.75707(18)
C22_4 C 0.5627(4) 0.2338(4) 0.9315(2)
C25_4 C 0.4573(4) 0.2834(4) 0.87373(19)
C27_4 C 0.3255(4) 0.3123(4) 0.86892(17)
C28_4 C 0.5385(4) 0.2591(4) 0.8897(2)
C29_4 C 0.2153(4) 0.2803(4) 0.9852(2)
C32_4 C 0.1360(4) 0.3303(4) 0.9285(2)
H16_4 H 0.0915 0.3522 0.9099
C33_4 C 0.5588(4) 0.1935(4) 0.99647(18)
C39_4 C 0.6460(4) 0.2067(6) 0.9469(2)
H20_4 H 0.6930 0.2069 0.9318
C40_4 C 0.1350(4) 0.3117(5) 0.9694(2)
H21_4 H 0.0893 0.3181 0.9851
C41_4 C 0.4336(4) 0.3107(5) 0.8319(2)
H22_4 H 0.4689 0.3155 0.8104
C44_4 C 0.3521(4) 0.3285(5) 0.8284(2)
H25_4 H 0.3188 0.3478 0.8039
C45_4 C 0.6434(4) 0.1815(5) 0.9867(2)
C46_4 C 0.7167(5) 0.3094(5) 0.8276(2)
H27_4 H 0.7574 0.3497 0.8266
C48_4 C 0.6591(5) 0.3142(5) 0.8569(2)
H29_4 H 0.6601 0.3585 0.8754
C49_4 C 0.6558(5) 0.1884(5) 0.8017(3)
H30_4 H 0.6535 0.1454 0.7823
C50_4 C 0.5994(5) 0.1930(5) 0.8320(3)
H31_4 H 0.5596 0.1520 0.8334
O4_4 O 0.6295(3) 0.8869(3) 0.05741(14)
H2_4 H 0.8415 0.9885 0.3205
O13_4 O 0.7090(6) 0.8813(3) 0.1165(3)
H3_4 H 0.7386 0.9023 0.1374
H9_4 H 0.6954 0.9950 0.2671
C36_4 C 0.6646(5) 0.9164(4) 0.0878(2)
C11_4 C 0.9940(4) 0.2704(4) 0.14306(18)
H19_4 H 0.9998 0.1821 0.0741
loop_
_geom_bond_atom_site_label_1
_geom_bond_atom_site_label_2
_geom_bond_site_symmetry_1
_geom_bond_site_symmetry_2
Zn1 O4 1_555 1_555
Na1 O11 1_555 1_555
Na2 O6 1_555 1_555
O3 C19 1_555 1_555
O4 C36 1_555 1_555
O8 C18 1_555 1_555
O9 C18 1_555 1_555
O10 C31 1_555 1_555
O11 C31 1_555 1_555
O12 Na1 1_555 1_555
H1 O12 1_555 1_555
H2 O12 1_555 1_555
O13 H3 1_555 1_555
O14 Na2 1_555 1_555
H4 O14 1_555 1_555
H5 O14 1_555 1_555
O15 Na2 1_555 1_555
H6 O15 1_555 1_555
H7 O15 1_555 1_555
O16 Na1 1_555 1_555
H8 O16 1_555 1_555
H9 O16 1_555 1_555
N1 C15 1_555 1_555
N2 C12 1_555 1_555
N3 C22 1_555 1_555
N4 C25 1_555 1_555
C1 C18 1_555 1_555
C2 C5 1_555 1_555
C3 H10 1_555 1_555
C5 H11 1_555 1_555
C6 C7 1_555 1_555
C7 C3 1_555 1_555
C8 C17 1_555 1_555
C9 C3 1_555 1_555
C12 C6 1_555 1_555
C13 C28 1_555 1_555
C14 C15 1_555 1_555
C15 C47 1_555 1_555
C16 C2 1_555 1_555
H12 C16 1_555 1_555
C17 H13 1_555 1_555
C19 C9 1_555 1_555
C20 C17 1_555 1_555
C21 C14 1_555 1_555
C22 C28 1_555 1_555
C23 C4 1_555 1_555
H14 C23 1_555 1_555
C24 C20 1_555 1_555
H15 C24 1_555 1_555
C25 C28 1_555 1_555
C26 C20 1_555 1_555
C27 N4 1_555 1_555
C29 N2 1_555 1_555
C30 N1 1_555 1_555
C31 C8 1_555 1_555
C32 C12 1_555 1_555
H16 C32 1_555 1_555
C33 N3 1_555 1_555
C34 C21 1_555 1_555
H17 C34 1_555 1_555
C35 C21 1_555 1_555
H18 C35 1_555 1_555
C36 O13 1_555 1_555
C37 C24 1_555 1_555
C38 C4 1_555 1_555
C39 C22 1_555 1_555
H20 C39 1_555 1_555
C40 C29 1_555 1_555
H21 C40 1_555 1_555
C41 C25 1_555 1_555
H22 C41 1_555 1_555
C42 C8 1_555 1_555
H23 C42 1_555 1_555
C43 C30 1_555 1_555
H24 C43 1_555 1_555
C44 C27 1_555 1_555
H25 C44 1_555 1_555
C45 C33 1_555 1_555
H26 C45 1_555 1_555
C46 C1 1_555 1_555
H27 C46 1_555 1_555
C47 C43 1_555 1_555
H28 C47 1_555 1_555
C48 C13 1_555 1_555
H29 C48 1_555 1_555
C49 C1 1_555 1_555
H30 C49 1_555 1_555
C50 C13 1_555 1_555
H31 C50 1_555 1_555
Gd3 O8 1_555 1_555
Gd5 O10 1_555 1_555
Zn2 N1 1_555 1_555
Na5 O8 1_555 1_555
Na6 O12 1_555 1_555
Na8 O3 1_555 1_555
O19 Na2 1_555 1_555
O23 Na1 1_555 1_555
O25 Na1 1_555 1_555
O29 Na2 1_555 1_555
O30 Na1 1_555 1_555
N5 Zn1 1_555 1_555
N6 Zn1 1_555 1_555
N7 Zn1 1_555 1_555
N8 Zn1 1_555 1_555
O9 Gd3 1_555 1_555
O11 Gd5 1_555 1_555
N2 Zn2 1_555 1_555
N3 Zn2 1_555 1_555
N4 Zn2 1_555 1_555
C5 C7 1_555 1_555
C6 C27 1_555 1_555
C9 C16 1_555 1_555
C14 C29 1_555 1_555
C23 C34 1_555 1_555
C26 C30 1_555 1_555
C26 C33 1_555 1_555
C32 C40 1_555 1_555
C35 C38 1_555 1_555
C36 C37 1_555 1_555
C37 C42 1_555 1_555
C39 C45 1_555 1_555
C41 C44 1_555 1_555
C46 C48 1_555 1_555
C49 C50 1_555 1_555
Gd5 O23 1_555 1_555
Gd5 O25 1_555 1_555
Na6 O30 1_555 1_555
Gd1 O1 1_555 1_555
O1 C10 1_555 1_555
O2 Gd1 1_555 1_555
C10 O2 1_555 1_555
O20 Gd1 1_555 1_555
O22 Gd1 1_555 1_555
O24 Gd1 1_555 1_555
O26 Gd1 1_555 1_555
O27 Gd1 1_555 1_555
O28 Gd1 1_555 1_555
O5 C11 1_555 1_555
Gd5 O5 1_555 1_555
Na5 O7 1_555 1_555
O7 Gd3 1_555 1_555
Gd5 O17 1_555 1_555
Na7 O18 1_555 1_555
Na7 O21 1_555 1_555
Na4 O22 1_555 1_555
Na8 O21_2 1_555 1_555
O5_2 C11_2 1_555 1_555
Gd4 O5_2 1_555 1_555
Gd4 O17_2 1_555 1_555
Zn1_2 O4_2 1_555 1_555
O4_2 C36_2 1_555 1_555
H2_2 O29 1_555 1_555
O13_2 H3_2 1_555 1_555
C36_2 O13_2 1_555 1_555
N6_2 Zn1_2 1_555 1_555
N7_2 Zn1_2 1_555 1_555
N8_2 Zn1_2 1_555 1_555
Gd3 O1_2 1_555 1_555
O1_2 C10_2 1_555 1_555
O2_2 Gd3 1_555 1_555
O18 C19_2 1_555 1_555
O24 C18_2 1_555 1_555
O26 C18_2 1_555 1_555
N2_2 C12_2 1_555 1_555
N3_2 C22_2 1_555 1_555
N4_2 C25_2 1_555 1_555
C1_2 C18_2 1_555 1_555
C2_2 C5_2 1_555 1_555
C3_2 H10_2 1_555 1_555
C5_2 H11_2 1_555 1_555
C6_2 C7_2 1_555 1_555
C7_2 C3_2 1_555 1_555
C9_2 C3_2 1_555 1_555
C10_2 O2_2 1_555 1_555
C12_2 C6_2 1_555 1_555
C13_2 C28_2 1_555 1_555
C16_2 C2_2 1_555 1_555
H12_2 C16_2 1_555 1_555
C19_2 C9_2 1_555 1_555
C22_2 C28_2 1_555 1_555
C25_2 C28_2 1_555 1_555
C27_2 N4_2 1_555 1_555
C29_2 N2_2 1_555 1_555
C32_2 C12_2 1_555 1_555
H16_2 C32_2 1_555 1_555
C33_2 N3_2 1_555 1_555
C39_2 C22_2 1_555 1_555
H20_2 C39_2 1_555 1_555
C40_2 C29_2 1_555 1_555
H21_2 C40_2 1_555 1_555
C41_2 C25_2 1_555 1_555
H22_2 C41_2 1_555 1_555
C44_2 C27_2 1_555 1_555
H25_2 C44_2 1_555 1_555
C45_2 C33_2 1_555 1_555
C46_2 C1_2 1_555 1_555
H27_2 C46_2 1_555 1_555
C48_2 C13_2 1_555 1_555
H29_2 C48_2 1_555 1_555
C49_2 C1_2 1_555 1_555
H30_2 C49_2 1_555 1_555
C50_2 C13_2 1_555 1_555
H31_2 C50_2 1_555 1_555
Na4 O24 1_555 1_555
O20_2 Gd3 1_555 1_555
O27_2 Gd3 1_555 1_555
O28_2 Gd3 1_555 1_555
N2_2 Zn2_2 1_555 1_555
N3_2 Zn2_2 1_555 1_555
N4_2 Zn2_2 1_555 1_555
C2_2 C10_2 1_555 1_555
C5_2 C7_2 1_555 1_555
C6_2 C27_2 1_555 1_555
C9_2 C16_2 1_555 1_555
C32_2 C40_2 1_555 1_555
C39_2 C45_2 1_555 1_555
C41_2 C44_2 1_555 1_555
C46_2 C48_2 1_555 1_555
C49_2 C50_2 1_555 1_555
Na3 O11_2 1_555 1_555
Na6 O6_2 1_555 1_555
O10_2 C31_2 1_555 1_555
O11_2 C31_2 1_555 1_555
H4_2 O30 1_555 1_555
H5_2 O30 1_555 1_555
O15_2 Na6 1_555 1_555
H6_2 O15_2 1_555 1_555
H7_2 O15_2 1_555 1_555
O16_2 Na3 1_555 1_555
H8_2 O16_2 1_555 1_555
N1_2 C15_2 1_555 1_555
C8_2 C17_2 1_555 1_555
C14_2 C15_2 1_555 1_555
C15_2 C47_2 1_555 1_555
C17_2 H13_2 1_555 1_555
C20_2 C17_2 1_555 1_555
C21_2 C14_2 1_555 1_555
C23_2 C4_2 1_555 1_555
H14_2 C23_2 1_555 1_555
C24_2 C20_2 1_555 1_555
H15_2 C24_2 1_555 1_555
C26_2 C20_2 1_555 1_555
C30_2 N1_2 1_555 1_555
C31_2 C8_2 1_555 1_555
C34_2 C21_2 1_555 1_555
H17_2 C34_2 1_555 1_555
C35_2 C21_2 1_555 1_555
H18_2 C35_2 1_555 1_555
C37_2 C24_2 1_555 1_555
C38_2 C4_2 1_555 1_555
C42_2 C8_2 1_555 1_555
H23_2 C42_2 1_555 1_555
C43_2 C30_2 1_555 1_555
H24_2 C43_2 1_555 1_555
C47_2 C43_2 1_555 1_555
H28_2 C47_2 1_555 1_555
Gd4 O10_2 1_555 1_555
O19_2 Na6 1_555 1_555
O23_2 Na3 1_555 1_555
O25_2 Na3 1_555 1_555
O11_2 Gd4 1_555 1_555
C23_2 C34_2 1_555 1_555
C26_2 C30_2 1_555 1_555
C35_2 C38_2 1_555 1_555
C37_2 C42_2 1_555 1_555
Gd4 O23_2 1_555 1_555
Gd4 O25_2 1_555 1_555
O20 C11_3 1_555 1_555
O17 C10_3 1_555 1_555
O2_3 Gd5 1_555 1_555
C10_3 O2_3 1_555 1_555
O26_2 Gd5 1_555 1_555
Zn2 O4_3 1_555 1_555
Na4 O28 1_555 1_555
O19_2 C19_3 1_555 1_555
O4_3 C36_3 1_555 1_555
O25_2 C18_3 1_555 1_555
O9_2 C18_3 1_555 1_555
O27 C31_3 1_555 1_555
O28 C31_3 1_555 1_555
O12_2 Na4 1_555 1_555
H1_3 O12_2 1_555 1_555
H2_3 O12_2 1_555 1_555
O13_3 H3_3 1_555 1_555
O14_2 Na7 1_555 1_555
H4_3 O14_2 1_555 1_555
H5_3 O14_2 1_555 1_555
O15_3 Na7 1_555 1_555
H6_3 O15_3 1_555 1_555
H7_3 O15_3 1_555 1_555
O16_3 Na4 1_555 1_555
H8_3 O16_3 1_555 1_555
H9_3 O16_3 1_555 1_555
N5 C15_3 1_555 1_555
N6 C12_3 1_555 1_555
N7 C22_3 1_555 1_555
N8 C25_3 1_555 1_555
C1_3 C18_3 1_555 1_555
C2_3 C5_3 1_555 1_555
C3_3 H10_3 1_555 1_555
C5_3 H11_3 1_555 1_555
C6_3 C7_3 1_555 1_555
C7_3 C3_3 1_555 1_555
C8_3 C17_3 1_555 1_555
C9_3 C3_3 1_555 1_555
C12_3 C6_3 1_555 1_555
C13_3 C28_3 1_555 1_555
C14_3 C15_3 1_555 1_555
C15_3 C47_3 1_555 1_555
C16_3 C2_3 1_555 1_555
H12_3 C16_3 1_555 1_555
C17_3 H13_3 1_555 1_555
C19_3 C9_3 1_555 1_555
C20_3 C17_3 1_555 1_555
C21_3 C14_3 1_555 1_555
C22_3 C28_3 1_555 1_555
C23_3 C4_3 1_555 1_555
H14_3 C23_3 1_555 1_555
C24_3 C20_3 1_555 1_555
H15_3 C24_3 1_555 1_555
C25_3 C28_3 1_555 1_555
C26_3 C20_3 1_555 1_555
C27_3 N8 1_555 1_555
C29_3 N6 1_555 1_555
C30_3 N5 1_555 1_555
C31_3 C8_3 1_555 1_555
C32_3 C12_3 1_555 1_555
H16_3 C32_3 1_555 1_555
C33_3 N7 1_555 1_555
C34_3 C21_3 1_555 1_555
H17_3 C34_3 1_555 1_555
C35_3 C21_3 1_555 1_555
H18_3 C35_3 1_555 1_555
C36_3 O13_3 1_555 1_555
C37_3 C24_3 1_555 1_555
C38_3 C4_3 1_555 1_555
C39_3 C22_3 1_555 1_555
H20_3 C39_3 1_555 1_555
C40_3 C29_3 1_555 1_555
H21_3 C40_3 1_555 1_555
C41_3 C25_3 1_555 1_555
H22_3 C41_3 1_555 1_555
C42_3 C8_3 1_555 1_555
H23_3 C42_3 1_555 1_555
C43_3 C30_3 1_555 1_555
H24_3 C43_3 1_555 1_555
C44_3 C27_3 1_555 1_555
H25_3 C44_3 1_555 1_555
C45_3 C33_3 1_555 1_555
H26_3 C45_3 1_555 1_555
C46_3 C1_3 1_555 1_555
H27_3 C46_3 1_555 1_555
C47_3 C43_3 1_555 1_555
H28_3 C47_3 1_555 1_555
C48_3 C13_3 1_555 1_555
H29_3 C48_3 1_555 1_555
C49_3 C1_3 1_555 1_555
H30_3 C49_3 1_555 1_555
C50_3 C13_3 1_555 1_555
H31_3 C50_3 1_555 1_555
Na8 O12_2 1_555 1_555
O29_2 Na7 1_555 1_555
O30_2 Na4 1_555 1_555
O9_2 Gd4 1_555 1_555
C5_3 C7_3 1_555 1_555
C6_3 C27_3 1_555 1_555
C9_3 C16_3 1_555 1_555
C14_3 C29_3 1_555 1_555
C23_3 C34_3 1_555 1_555
C26_3 C30_3 1_555 1_555
C26_3 C33_3 1_555 1_555
C32_3 C40_3 1_555 1_555
C35_3 C38_3 1_555 1_555
C36_3 C37_3 1_555 1_555
C37_3 C42_3 1_555 1_555
C39_3 C45_3 1_555 1_555
C41_3 C44_3 1_555 1_555
C46_3 C48_3 1_555 1_555
C49_3 C50_3 1_555 1_555
Na8 O30_2 1_555 1_555
Na5 O28_2 1_555 1_555
O27_2 C31_4 1_555 1_555
O28_2 C31_4 1_555 1_555
H4_4 O30_2 1_555 1_555
H5_4 O30_2 1_555 1_555
O15_4 Na8 1_555 1_555
H6_4 O15_4 1_555 1_555
H7_4 O15_4 1_555 1_555
O16_4 Na5 1_555 1_555
H8_4 O16_4 1_555 1_555
N5_2 C15_4 1_555 1_555
C8_4 C17_4 1_555 1_555
C14_4 C15_4 1_555 1_555
C15_4 C47_4 1_555 1_555
C17_4 H13_4 1_555 1_555
C20_4 C17_4 1_555 1_555
C21_4 C14_4 1_555 1_555
C23_4 C4_4 1_555 1_555
H14_4 C23_4 1_555 1_555
C24_4 C20_4 1_555 1_555
H15_4 C24_4 1_555 1_555
C26_4 C20_4 1_555 1_555
C30_4 N5_2 1_555 1_555
C31_4 C8_4 1_555 1_555
C34_4 C21_4 1_555 1_555
H17_4 C34_4 1_555 1_555
C35_4 C21_4 1_555 1_555
H18_4 C35_4 1_555 1_555
C37_4 C24_4 1_555 1_555
C38_4 C4_4 1_555 1_555
C42_4 C8_4 1_555 1_555
H23_4 C42_4 1_555 1_555
C43_4 C30_4 1_555 1_555
H24_4 C43_4 1_555 1_555
C47_4 C43_4 1_555 1_555
H28_4 C47_4 1_555 1_555
C23_4 C34_4 1_555 1_555
C26_4 C30_4 1_555 1_555
C35_4 C38_4 1_555 1_555
C37_4 C42_4 1_555 1_555
O17_2 C10_4 1_555 1_555
O2_4 Gd4 1_555 1_555
O19 C19_4 1_555 1_555
O25 C18_4 1_555 1_555
O26_2 C18_4 1_555 1_555
N6_2 C12_4 1_555 1_555
N7_2 C22_4 1_555 1_555
N8_2 C25_4 1_555 1_555
C1_4 C18_4 1_555 1_555
C2_4 C5_4 1_555 1_555
C3_4 H10_4 1_555 1_555
C5_4 H11_4 1_555 1_555
C6_4 C7_4 1_555 1_555
C7_4 C3_4 1_555 1_555
C9_4 C3_4 1_555 1_555
C10_4 O2_4 1_555 1_555
C12_4 C6_4 1_555 1_555
C13_4 C28_4 1_555 1_555
C16_4 C2_4 1_555 1_555
H12_4 C16_4 1_555 1_555
C19_4 C9_4 1_555 1_555
C22_4 C28_4 1_555 1_555
C25_4 C28_4 1_555 1_555
C27_4 N8_2 1_555 1_555
C29_4 N6_2 1_555 1_555
C32_4 C12_4 1_555 1_555
H16_4 C32_4 1_555 1_555
C33_4 N7_2 1_555 1_555
C39_4 C22_4 1_555 1_555
H20_4 C39_4 1_555 1_555
C40_4 C29_4 1_555 1_555
H21_4 C40_4 1_555 1_555
C41_4 C25_4 1_555 1_555
H22_4 C41_4 1_555 1_555
C44_4 C27_4 1_555 1_555
H25_4 C44_4 1_555 1_555
C45_4 C33_4 1_555 1_555
C46_4 C1_4 1_555 1_555
H27_4 C46_4 1_555 1_555
C48_4 C13_4 1_555 1_555
H29_4 C48_4 1_555 1_555
C49_4 C1_4 1_555 1_555
H30_4 C49_4 1_555 1_555
C50_4 C13_4 1_555 1_555
H31_4 C50_4 1_555 1_555
C2_4 C10_4 1_555 1_555
C5_4 C7_4 1_555 1_555
C6_4 C27_4 1_555 1_555
C9_4 C16_4 1_555 1_555
C32_4 C40_4 1_555 1_555
C39_4 C45_4 1_555 1_555
C41_4 C44_4 1_555 1_555
C46_4 C48_4 1_555 1_555
C49_4 C50_4 1_555 1_555
Zn2_2 O4_4 1_555 1_555
O4_4 C36_4 1_555 1_555
H2_4 O29_2 1_555 1_555
O13_4 H3_4 1_555 1_555
C36_4 O13_4 1_555 1_555
O20_2 C11_4 1_555 1_555

#END
