
###############################################################################
#
# This file contains modified crystal structure data generated from the
# MOF subset of the Cambridge Structural Database (CSD) v543 
# hosted by the Cambridge Crystallographic Data Centre (CCDC).
#
# This work is licensed under the Creative Commons
# Attribution-NonCommercial-ShareAlike 4.0 International License.
# To view a copy of this license, visit
# http://creativecommons.org/licenses/by-nc-sa/4.0/
# or send a letter to
# Creative Commons, PO Box 1866, Mountain View, CA 94042, USA.
#
# CIF created using the CSD Python API on 29 September 2022
# The structure has been converted into the P1 space group
# The structure has a 3D framework
# The original CSD entry TEPNAG is in the monoclinic crystal system
# The framework has been calculated to contain at least 10.0% void space
# The void calculation uses a probe of radius 1.32A, grid spacing 0.4
# H atom positions have been added when not included in the experimental data
#
###############################################################################

data_TEPNAG
_chemical_formula_moiety         '(C200 H108 In2 N16 Na4 O50 Zn4)n'
_symmetry_cell_setting           triclinic
_symmetry_space_group_name_H-M   'P 1'
_symmetry_Int_Tables_number      1
_space_group_name_Hall           'P 1'
loop_
_symmetry_equiv_pos_site_id
_symmetry_equiv_pos_as_xyz
1 x,y,z
_cell_length_a                   15.8380(13)
_cell_length_b                   16.5852(16)
_cell_length_c                   31.823(2)
_cell_angle_alpha                90
_cell_angle_beta                 97.707(4)
_cell_angle_gamma                90
_cell_volume                     8283.64
loop_
_atom_site_label
_atom_site_type_symbol
_atom_site_fract_x
_atom_site_fract_y
_atom_site_fract_z
Na2 Na 0.0937(4) 0.1147(5) 0.7013(2)
O3 O 0.0085(5) 0.2810(5) 0.3415(2)
O4 O 0.0166(5) 0.3101(5) 0.7599(2)
In2 In 0.09748(5) 0.22931(5) 0.79684(2)
In5 In 0.09748(5) 0.27069(5) 0.29684(2)
Na3 Na 0.0898(3) 0.6030(3) 0.76406(17)
Na7 Na 0.0937(4) 0.3853(5) 0.2013(2)
O17 O 0.0607(5) 0.0944(4) 0.7753(2)
O18 O 0.0607(5) 0.4056(4) 0.2753(2)
O23 O 0.1796(5) 0.2152(5) 0.7506(2)
Zn1 Zn 0.58836(7) 0.24546(7) 0.54230(3)
Na1 Na 0.9102(3) 0.3970(3) 0.23594(17)
O1 O 0.9393(5) 0.5944(4) 0.7247(2)
O2 O 0.8410(5) 0.6171(5) 0.6716(2)
O7 O 0.1865(6) 0.2215(6) 0.3441(3)
O9 O 0.9834(6) 0.2143(6) 0.7118(3)
O10 O 0.8992(6) 0.3246(8) 0.2948(3)
O11 O 0.1129(8) 0.1090(7) 0.3365(4)
O12 O 0.2097(9) 0.3429(9) 0.7593(4)
O13 O 0.9603(8) 0.4560(8) 0.1774(4)
O14 O 0.7710(8) 0.3631(8) 0.1967(4)
H1 H 0.7335 0.3283 0.2090
H2 H 0.7545 0.3848 0.1692
O15 O 0.8492(10) 0.5080(10) 0.2648(6)
H3 H 0.8325 0.5046 0.2923
H4 H 0.8410 0.5567 0.2491
N1 N 0.5741(5) 0.2327(6) 0.4768(2)
N2 N 0.4576(6) 0.2260(6) 0.5387(3)
N3 N 0.7027(6) 0.3020(6) 0.5382(3)
N4 N 0.5872(5) 0.2987(6) 0.6000(3)
C1 C 0.8750(6) 0.4797(6) 0.6856(3)
C2 C 0.8156(6) 0.4559(6) 0.6538(3)
H5 H 0.7819 0.4947 0.6372
C3 C 0.7382(6) 0.3438(6) 0.6120(4)
C4 C 0.8873(6) 0.5681(8) 0.6944(3)
C5 C 0.9303(7) 0.4255(7) 0.7099(3)
H6 H 0.9735 0.4438 0.7314
C6 C 0.7553(6) 0.3342(7) 0.5710(3)
C7 C 0.8040(7) 0.3737(8) 0.6456(3)
C8 C 0.4079(7) 0.2373(7) 0.5716(3)
C9 C 0.3672(6) 0.1237(7) 0.4379(3)
C10 C 0.5205(7) 0.2950(8) 0.6243(3)
C11 C 0.6572(8) 0.3283(7) 0.6256(3)
C12 C 0.4408(8) 0.2662(8) 0.6118(4)
C13 C 0.6343(7) 0.2459(7) 0.4502(3)
C14 C 0.3713(8) 0.0376(8) 0.4395(3)
H7 H 0.4151 0.0123 0.4583
C15 C 0.9185(7) 0.3445(7) 0.7009(4)
C16 C 0.8598(7) 0.3150(8) 0.6674(3)
H8 H 0.8573 0.2596 0.6597
C17 C 0.4307(7) 0.1740(8) 0.4671(3)
C18 C 0.4067(7) 0.1916(8) 0.5070(3)
C19 C 0.7448(8) 0.3040(10) 0.5028(5)
C20 C 0.3056(7) 0.1574(7) 0.4090(3)
H9 H 0.3033 0.2145 0.4067
C21 C 0.9746(8) 0.2820(9) 0.7257(3)
C23 C 0.7137(7) 0.2795(9) 0.4624(3)
C24 C 0.5043(7) 0.1926(8) 0.4530(4)
C26 C 0.2740(10) 0.2721(10) 0.7061(5)
C27 C 0.9320(9) 0.3034(8) 0.3303(4)
C28 C 0.6384(8) 0.3424(8) 0.6683(4)
H10 H 0.6765 0.3606 0.6920
C29 C 0.6039(8) 0.2118(9) 0.4083(3)
H11 H 0.6342 0.2115 0.3845
C30 C 0.9032(10) 0.2541(11) 0.3997(4)
H12 H 0.9573 0.2284 0.4033
C31 C 0.2506(8) 0.0244(8) 0.3871(4)
C32 C 0.3241(7) 0.2093(10) 0.5570(4)
H14 H 0.2767 0.2123 0.5723
C33 C 0.8792(9) 0.2965(10) 0.3661(4)
C34 C 0.3780(9) 0.2674(10) 0.6443(5)
C35 C 0.2468(8) 0.1123(8) 0.3831(4)
C36 C 0.7731(9) 0.2847(10) 0.4298(4)
C37 C 0.5555(9) 0.3242(10) 0.6671(4)
H15 H 0.5240 0.3293 0.6904
C38 C 0.8354(8) 0.3568(10) 0.5586(5)
H16 H 0.8832 0.3780 0.5764
C39 C 0.5246(9) 0.1806(9) 0.4095(4)
H17 H 0.4891 0.1560 0.3867
C40 C 0.7996(10) 0.3387(10) 0.3613(4)
H18 H 0.7819 0.3683 0.3361
C41 C 0.2960(10) 0.2012(11) 0.6914(5)
H19 H 0.2752 0.1524 0.7018
C42 C 0.8469(10) 0.2462(11) 0.4317(4)
H20 H 0.8636 0.2117 0.4551
C43 C 0.3499(9) 0.1999(10) 0.6605(5)
H21 H 0.3673 0.1494 0.6506
C44 C 0.1764(10) 0.1502(10) 0.3521(5)
C45 C 0.3230(8) 0.1791(9) 0.5191(4)
H22 H 0.2761 0.1536 0.5026
C46 C 0.8294(8) 0.3414(11) 0.5152(4)
H23 H 0.8711 0.3526 0.4972
C47 C 0.7482(9) 0.3366(10) 0.3933(4)
H24 H 0.6979 0.3684 0.3915
C48 C 0.2182(11) 0.2734(11) 0.7403(5)
C49 C 0.3036(12) 0.3434(11) 0.6908(6)
H25 H 0.2889 0.3938 0.7020
C50 C 0.3538(10) 0.3399(11) 0.6596(5)
H26 H 0.3725 0.3885 0.6481
In3 In 0.90252(5) 0.72931(5) 0.70316(2)
Na4 Na 0.9102(3) 0.1030(3) 0.73594(17)
Na6 Na 0.9063(4) 0.6147(5) 0.7987(2)
O19 O 0.1590(5) 0.1171(5) 0.8284(2)
O20 O 0.0085(5) 0.2190(5) 0.8415(2)
O22 O 0.6234(5) 0.1252(5) 0.5554(3)
O24 O 0.1865(6) 0.2785(6) 0.8441(3)
O25 O 0.9834(6) 0.2857(6) 0.2118(3)
O26 O 0.9603(8) 0.0440(8) 0.6774(4)
H27 H 0.109827 0.108042 0.305132
O5 O 0.3766(5) 0.8748(5) 0.4446(3)
O8 O 0.2681(6) 0.8556(6) 0.3924(3)
C22 C 0.3126(7) 0.9899(7) 0.4142(3)
C25 C 0.3205(9) 0.8996(10) 0.4166(5)
H13 H 0.2094 0.9918 0.3706
Zn2 Zn 0.41164(7) 0.75454(7) 0.45770(3)
C4_2 C 0.1127(6) 0.0681(8) 0.8056(3)
Na1_2 Na 0.0898(3) 0.8970(3) 0.26406(17)
O5_2 O 0.6234(5) 0.3748(5) 0.0554(3)
O7_2 O 0.8135(6) 0.7215(6) 0.1559(3)
O8_2 O 0.7319(6) 0.3556(6) 0.1076(3)
O10_2 O 0.1008(6) 0.8246(8) 0.2052(3)
O11_2 O 0.8871(8) 0.6090(7) 0.1635(4)
O13_2 O 0.0397(8) 0.9560(8) 0.3226(4)
O14_2 O 0.2290(8) 0.8631(8) 0.3033(4)
H1_2 H 0.2665 0.8283 0.2910
H2_2 H 0.2455 0.8848 0.3308
N1_2 N 0.4259(5) 0.7327(6) 0.0232(2)
C9_2 C 0.6328(6) 0.6237(7) 0.0621(3)
C13_2 C 0.3657(7) 0.7459(7) 0.0498(3)
C14_2 C 0.6287(8) 0.5376(8) 0.0605(3)
H7_2 H 0.5849 0.5123 0.0417
C17_2 C 0.5693(7) 0.6740(8) 0.0329(3)
C20_2 C 0.6944(7) 0.6574(7) 0.0910(3)
H9_2 H 0.6967 0.7145 0.0933
C22_2 C 0.6874(7) 0.4899(7) 0.0858(3)
C23_2 C 0.2863(7) 0.7795(9) 0.0376(3)
C24_2 C 0.4957(7) 0.6926(8) 0.0470(4)
C25_2 C 0.6795(9) 0.3996(10) 0.0834(5)
C27_2 C 0.0680(9) 0.8034(8) 0.1697(4)
C29_2 C 0.3961(8) 0.7118(9) 0.0917(3)
H11_2 H 0.3658 0.7115 0.1155
C30_2 C 0.0968(10) 0.7541(11) 0.1003(4)
H12_2 H 0.0427 0.7284 0.0967
C31_2 C 0.7494(8) 0.5244(8) 0.1129(4)
H13_2 H 0.7906 0.4918 0.1294
C33_2 C 0.1208(9) 0.7965(10) 0.1339(4)
C35_2 C 0.7532(8) 0.6123(8) 0.1169(4)
C36_2 C 0.2269(9) 0.7847(10) 0.0702(4)
C39_2 C 0.4754(9) 0.6806(9) 0.0905(4)
H17_2 H 0.5109 0.6560 0.1133
C40_2 C 0.2004(10) 0.8387(10) 0.1387(4)
H18_2 H 0.2181 0.8683 0.1639
C42_2 C 0.1531(10) 0.7462(11) 0.0683(4)
H20_2 H 0.1364 0.7117 0.0449
C44_2 C 0.8236(10) 0.6502(10) 0.1479(5)
H23_2 H 0.1289 0.8526 0.0028
C47_2 C 0.2518(9) 0.8366(10) 0.1067(4)
H24_2 H 0.3021 0.8684 0.1085
In4 In 0.90252(5) 0.77069(5) 0.20316(2)
Zn2_2 Zn 0.58836(7) 0.25454(7) 0.04230(3)
O25_2 O 0.0166(6) 0.7857(6) 0.2882(3)
H27_2 H 0.890173 0.608042 0.194868
Zn1_2 Zn 0.41164(7) 0.74546(7) 0.95770(3)
O6 O 0.8204(5) 0.7152(5) 0.7494(2)
O9_2 O 0.0166(6) 0.7143(6) 0.7882(3)
O12_2 O 0.7903(9) 0.8429(9) 0.7407(4)
N2_2 N 0.5424(6) 0.7260(6) 0.9613(3)
N3_2 N 0.2973(6) 0.8020(6) 0.9618(3)
N4_2 N 0.4128(5) 0.7987(6) 0.9000(3)
C1_2 C 0.1250(6) 0.9797(6) 0.8144(3)
C2_2 C 0.1844(6) 0.9559(6) 0.8462(3)
H5_2 H 0.2181 0.9947 0.8628
C3_2 C 0.2618(6) 0.8438(6) 0.8880(4)
C5_2 C 0.0697(7) 0.9255(7) 0.7901(3)
H6_2 H 0.0265 0.9438 0.7686
C6_2 C 0.2447(6) 0.8342(7) 0.9290(3)
C7_2 C 0.1960(7) 0.8737(8) 0.8544(3)
C8_2 C 0.5921(7) 0.7373(7) 0.9284(3)
C10_2 C 0.4795(7) 0.7950(8) 0.8757(3)
C11_2 C 0.3428(8) 0.8283(7) 0.8744(3)
C12_2 C 0.5592(8) 0.7662(8) 0.8882(4)
C15_2 C 0.0815(7) 0.8445(7) 0.7991(4)
C16_2 C 0.1402(7) 0.8150(8) 0.8326(3)
H8_2 H 0.1427 0.7596 0.8403
C18_2 C 0.5933(7) 0.6916(8) 0.9930(3)
C19_2 C 0.2552(8) 0.8040(10) 0.9972(5)
C21_2 C 0.0254(8) 0.7820(9) 0.7743(3)
C26_2 C 0.7260(10) 0.7721(10) 0.7939(5)
C28_2 C 0.3616(8) 0.8424(8) 0.8317(4)
H10_2 H 0.3235 0.8606 0.8080
C32_2 C 0.6759(7) 0.7093(10) 0.9430(4)
H14_2 H 0.7233 0.7123 0.9277
C34_2 C 0.6220(9) 0.7674(10) 0.8557(5)
C37_2 C 0.4445(9) 0.8242(10) 0.8329(4)
H15_2 H 0.4760 0.8293 0.8096
C38_2 C 0.1646(8) 0.8568(10) 0.9414(5)
H16_2 H 0.1168 0.8780 0.9236
C41_2 C 0.7040(10) 0.7012(11) 0.8086(5)
H19_2 H 0.7248 0.6524 0.7982
C43_2 C 0.6501(9) 0.6999(10) 0.8395(5)
H21_2 H 0.6327 0.6494 0.8494
C45_2 C 0.6770(8) 0.6791(9) 0.9809(4)
H22_2 H 0.7239 0.6536 0.9974
C46_2 C 0.1706(8) 0.8414(11) 0.9848(4)
C48_2 C 0.7818(11) 0.7734(11) 0.7597(5)
C49_2 C 0.6964(12) 0.8434(11) 0.8092(6)
H25_2 H 0.7111 0.8938 0.7980
C50_2 C 0.6462(10) 0.8399(11) 0.8404(5)
H26_2 H 0.6275 0.8885 0.8519
O20_2 O 0.9915(5) 0.7190(5) 0.6585(2)
O21 O 0.9834(5) 0.8101(5) 0.7401(2)
O22_2 O 0.3766(5) 0.6252(5) 0.9446(3)
O24_2 O 0.8135(6) 0.7785(6) 0.6559(3)
O26_2 O 0.0397(8) 0.5440(8) 0.8226(4)
O3_2 O 0.9915(5) 0.7810(5) 0.1585(2)
Na7_2 Na 0.9063(4) 0.8853(5) 0.2987(2)
O18_2 O 0.9393(5) 0.9056(4) 0.2247(2)
O8_3 O 0.7319(6) 0.1444(6) 0.6076(3)
C22_3 C 0.6874(7) 0.0101(7) 0.5858(3)
C25_3 C 0.6795(9) 0.1004(10) 0.5834(5)
H13_3 H 0.7906 0.0082 0.6294
O2_2 O 0.1590(5) 0.3829(5) 0.3284(2)
O6_2 O 0.8204(5) 0.7848(5) 0.2494(2)
O10_3 O 0.1008(6) 0.6754(8) 0.7052(3)
O11_3 O 0.8871(8) 0.8910(7) 0.6635(4)
O12_3 O 0.7903(9) 0.6571(9) 0.2407(4)
O14_3 O 0.2290(8) 0.6369(8) 0.8033(4)
H1_3 H 0.2665 0.6717 0.7910
H2_3 H 0.2455 0.6152 0.8308
O15_2 O 0.1508(10) 0.4920(10) 0.7352(6)
H3_2 H 0.1675 0.4954 0.7077
H4_2 H 0.1590 0.4433 0.7509
N1_3 N 0.4259(5) 0.7673(6) 0.5232(2)
N2_3 N 0.5424(6) 0.7740(6) 0.4613(3)
N3_3 N 0.2973(6) 0.6980(6) 0.4618(3)
N4_3 N 0.4128(5) 0.7013(6) 0.4000(3)
C1_3 C 0.1250(6) 0.5203(6) 0.3144(3)
C2_3 C 0.1844(6) 0.5441(6) 0.3462(3)
H5_3 H 0.2181 0.5053 0.3628
C3_3 C 0.2618(6) 0.6562(6) 0.3880(4)
C4_3 C 0.1127(6) 0.4319(8) 0.3056(3)
C5_3 C 0.0697(7) 0.5745(7) 0.2901(3)
H6_3 H 0.0265 0.5562 0.2686
C6_3 C 0.2447(6) 0.6658(7) 0.4290(3)
C7_3 C 0.1960(7) 0.6263(8) 0.3544(3)
C8_3 C 0.5921(7) 0.7627(7) 0.4284(3)
C9_3 C 0.6328(6) 0.8763(7) 0.5621(3)
C10_3 C 0.4795(7) 0.7050(8) 0.3757(3)
C11_3 C 0.3428(8) 0.6717(7) 0.3744(3)
C12_3 C 0.5592(8) 0.7338(8) 0.3882(4)
C13_3 C 0.3657(7) 0.7541(7) 0.5498(3)
C14_3 C 0.6287(8) 0.9624(8) 0.5605(3)
H7_3 H 0.5849 0.9877 0.5417
C15_3 C 0.0815(7) 0.6555(7) 0.2991(4)
C16_3 C 0.1402(7) 0.6850(8) 0.3326(3)
H8_3 H 0.1427 0.7404 0.3403
C17_3 C 0.5693(7) 0.8260(8) 0.5329(3)
C18_3 C 0.5933(7) 0.8084(8) 0.4930(3)
C19_3 C 0.2552(8) 0.6960(10) 0.4972(5)
C20_3 C 0.6944(7) 0.8426(7) 0.5910(3)
H9_3 H 0.6967 0.7855 0.5933
C21_3 C 0.0254(8) 0.7180(9) 0.2743(3)
C23_3 C 0.2863(7) 0.7205(9) 0.5376(3)
C24_3 C 0.4957(7) 0.8074(8) 0.5470(4)
C26_3 C 0.7260(10) 0.7279(10) 0.2939(5)
C27_3 C 0.0680(9) 0.6966(8) 0.6697(4)
C28_3 C 0.3616(8) 0.6576(8) 0.3317(4)
H10_3 H 0.3235 0.6394 0.3080
C29_3 C 0.3961(8) 0.7882(9) 0.5917(3)
H11_3 H 0.3658 0.7885 0.6155
C30_3 C 0.0968(10) 0.7459(11) 0.6003(4)
H12_3 H 0.0427 0.7716 0.5967
C31_3 C 0.7494(8) 0.9756(8) 0.6129(4)
C32_3 C 0.6759(7) 0.7907(10) 0.4430(4)
H14_3 H 0.7233 0.7877 0.4277
C33_3 C 0.1208(9) 0.7035(10) 0.6339(4)
C34_3 C 0.6220(9) 0.7326(10) 0.3557(5)
C35_3 C 0.7532(8) 0.8877(8) 0.6169(4)
C36_3 C 0.2269(9) 0.7153(10) 0.5702(4)
C37_3 C 0.4445(9) 0.6758(10) 0.3329(4)
H15_3 H 0.4760 0.6707 0.3096
C38_3 C 0.1646(8) 0.6432(10) 0.4414(5)
H16_3 H 0.1168 0.6220 0.4236
C39_3 C 0.4754(9) 0.8194(9) 0.5905(4)
H17_3 H 0.5109 0.8440 0.6133
C40_3 C 0.2004(10) 0.6613(10) 0.6387(4)
H18_3 H 0.2181 0.6317 0.6639
C41_3 C 0.7040(10) 0.7988(11) 0.3086(5)
H19_3 H 0.7248 0.8476 0.2982
C42_3 C 0.1531(10) 0.7538(11) 0.5683(4)
H20_3 H 0.1364 0.7883 0.5449
C43_3 C 0.6501(9) 0.8001(10) 0.3395(5)
H21_3 H 0.6327 0.8506 0.3494
C44_3 C 0.8236(10) 0.8498(10) 0.6479(5)
C45_3 C 0.6770(8) 0.8209(9) 0.4809(4)
H22_3 H 0.7239 0.8464 0.4974
C46_3 C 0.1706(8) 0.6586(11) 0.4848(4)
H23_3 H 0.1289 0.6474 0.5028
C47_3 C 0.2518(9) 0.6634(10) 0.6067(4)
H24_3 H 0.3021 0.6316 0.6085
C48_3 C 0.7818(11) 0.7266(11) 0.2597(5)
C49_3 C 0.6964(12) 0.6566(11) 0.3092(6)
H25_3 H 0.7111 0.6062 0.2980
C50_3 C 0.6462(10) 0.6601(11) 0.3404(5)
H26_3 H 0.6275 0.6115 0.3519
O19_2 O 0.8410(5) 0.8829(5) 0.1716(2)
O21_2 O 0.9834(5) 0.6899(5) 0.2401(2)
H27_3 H 0.890173 0.891958 0.694868
O4_2 O 0.0166(5) 0.1899(5) 0.2599(2)
O23_2 O 0.1796(5) 0.2848(5) 0.2506(2)
O12_4 O 0.2097(9) 0.1571(9) 0.2593(4)
N2_4 N 0.4576(6) 0.2740(6) 0.0387(3)
N3_4 N 0.7027(6) 0.1980(6) 0.0382(3)
N4_4 N 0.5872(5) 0.2013(6) 0.1000(3)
C1_4 C 0.8750(6) 0.0203(6) 0.1856(3)
C2_4 C 0.8156(6) 0.0441(6) 0.1538(3)
H5_4 H 0.7819 0.0053 0.1372
C3_4 C 0.7382(6) 0.1562(6) 0.1120(4)
C5_4 C 0.9303(7) 0.0745(7) 0.2099(3)
H6_4 H 0.9735 0.0562 0.2314
C6_4 C 0.7553(6) 0.1658(7) 0.0710(3)
C7_4 C 0.8040(7) 0.1263(8) 0.1456(3)
C8_4 C 0.4079(7) 0.2627(7) 0.0716(3)
C10_4 C 0.5205(7) 0.2050(8) 0.1243(3)
C11_4 C 0.6572(8) 0.1717(7) 0.1256(3)
C12_4 C 0.4408(8) 0.2338(8) 0.1118(4)
C15_4 C 0.9185(7) 0.1555(7) 0.2009(4)
C16_4 C 0.8598(7) 0.1850(8) 0.1674(3)
H8_4 H 0.8573 0.2404 0.1597
C18_4 C 0.4067(7) 0.3084(8) 0.0070(3)
C19_4 C 0.7448(8) 0.1960(10) 0.0028(5)
C21_4 C 0.9746(8) 0.2180(9) 0.2257(3)
C26_4 C 0.2740(10) 0.2279(10) 0.2061(5)
C28_4 C 0.6384(8) 0.1576(8) 0.1683(4)
H10_4 H 0.6765 0.1394 0.1920
C32_4 C 0.3241(7) 0.2907(10) 0.0570(4)
H14_4 H 0.2767 0.2877 0.0723
C34_4 C 0.3780(9) 0.2326(10) 0.1443(5)
C37_4 C 0.5555(9) 0.1758(10) 0.1671(4)
H15_4 H 0.5240 0.1707 0.1904
C38_4 C 0.8354(8) 0.1432(10) 0.0586(5)
H16_4 H 0.8832 0.1220 0.0764
C41_4 C 0.2960(10) 0.2988(11) 0.1914(5)
H19_4 H 0.2752 0.3476 0.2018
C43_4 C 0.3499(9) 0.3001(10) 0.1605(5)
H21_4 H 0.3673 0.3506 0.1506
C45_4 C 0.3230(8) 0.3209(9) 0.0191(4)
H22_4 H 0.2761 0.3464 0.0026
C46_4 C 0.8294(8) 0.1586(11) 0.0152(4)
C48_4 C 0.2182(11) 0.2266(11) 0.2403(5)
C49_4 C 0.3036(12) 0.1566(11) 0.1908(6)
H25_4 H 0.2889 0.1062 0.2020
C50_4 C 0.3538(10) 0.1601(11) 0.1596(5)
H26_4 H 0.3725 0.1115 0.1481
O8_4 O 0.2681(6) 0.6444(6) 0.8924(3)
O10_4 O 0.8992(6) 0.1754(8) 0.7948(3)
O11_4 O 0.1129(8) 0.3910(7) 0.8365(4)
O14_4 O 0.7710(8) 0.1369(8) 0.6967(4)
H1_4 H 0.7335 0.1717 0.7090
H2_4 H 0.7545 0.1152 0.6692
N1_4 N 0.5741(5) 0.2673(6) 0.9768(2)
C9_4 C 0.3672(6) 0.3763(7) 0.9379(3)
C13_4 C 0.6343(7) 0.2541(7) 0.9502(3)
C14_4 C 0.3713(8) 0.4624(8) 0.9395(3)
H7_4 H 0.4151 0.4877 0.9583
C17_4 C 0.4307(7) 0.3260(8) 0.9671(3)
C20_4 C 0.3056(7) 0.3426(7) 0.9090(3)
H9_4 H 0.3033 0.2855 0.9067
C22_4 C 0.3126(7) 0.5101(7) 0.9142(3)
C23_4 C 0.7137(7) 0.2205(9) 0.9624(3)
C24_4 C 0.5043(7) 0.3074(8) 0.9530(4)
C25_4 C 0.3205(9) 0.6004(10) 0.9166(5)
C27_4 C 0.9320(9) 0.1966(8) 0.8303(4)
C29_4 C 0.6039(8) 0.2882(9) 0.9083(3)
H11_4 H 0.6342 0.2885 0.8845
C30_4 C 0.9032(10) 0.2459(11) 0.8997(4)
H12_4 H 0.9573 0.2716 0.9033
C31_4 C 0.2506(8) 0.4756(8) 0.8871(4)
H13_4 H 0.2094 0.5082 0.8706
C33_4 C 0.8792(9) 0.2035(10) 0.8661(4)
C35_4 C 0.2468(8) 0.3877(8) 0.8831(4)
C36_4 C 0.7731(9) 0.2153(10) 0.9298(4)
C39_4 C 0.5246(9) 0.3194(9) 0.9095(4)
H17_4 H 0.4891 0.3440 0.8867
C40_4 C 0.7996(10) 0.1613(10) 0.8613(4)
H18_4 H 0.7819 0.1317 0.8361
C42_4 C 0.8469(10) 0.2538(11) 0.9317(4)
H20_4 H 0.8636 0.2883 0.9551
C44_4 C 0.1764(10) 0.3498(10) 0.8521(5)
H23_4 H 0.8711 0.1474 0.9972
C47_4 C 0.7482(9) 0.1634(10) 0.8933(4)
H24_4 H 0.6979 0.1316 0.8915
H27_4 H 0.109827 0.391958 0.805132
C4_4 C 0.8873(6) 0.9319(8) 0.1944(3)
O15_3 O 0.1508(10) 0.0080(10) 0.2352(6)
H3_3 H 0.1675 0.0046 0.2077
H4_3 H 0.1590 0.0567 0.2509
O15_4 O 0.8492(10) 0.9920(10) 0.7648(6)
H3_4 H 0.8325 0.9954 0.7923
H4_4 H 0.8410 0.9433 0.7491
loop_
_geom_bond_atom_site_label_1
_geom_bond_atom_site_label_2
_geom_bond_site_symmetry_1
_geom_bond_site_symmetry_2
In2 O4 1_555 1_555
In5 O3 1_555 1_555
O17 Na2 1_555 1_555
O23 Na2 1_555 1_555
In2 O17 1_555 1_555
In2 O23 1_555 1_555
In5 O18 1_555 1_555
Na7 O18 1_555 1_555
Zn1 N1 1_555 1_555
Na1 O10 1_555 1_555
O1 C4 1_555 1_555
O2 C4 1_555 1_555
O23 C48 1_555 1_555
O7 C44 1_555 1_555
O9 C21 1_555 1_555
O10 C27 1_555 1_555
O11 C44 1_555 1_555
O12 C48 1_555 1_555
O13 Na1 1_555 1_555
O14 Na1 1_555 1_555
H1 O14 1_555 1_555
H2 O14 1_555 1_555
O15 Na1 1_555 1_555
H3 O15 1_555 1_555
H4 O15 1_555 1_555
N1 C13 1_555 1_555
N2 Zn1 1_555 1_555
N3 Zn1 1_555 1_555
N4 Zn1 1_555 1_555
C1 C2 1_555 1_555
C2 H5 1_555 1_555
C3 C6 1_555 1_555
C4 C1 1_555 1_555
C5 C1 1_555 1_555
H6 C5 1_555 1_555
C6 N3 1_555 1_555
C7 C2 1_555 1_555
C8 N2 1_555 1_555
C9 C14 1_555 1_555
C10 N4 1_555 1_555
C11 N4 1_555 1_555
C12 C8 1_555 1_555
C13 C23 1_555 1_555
C14 H7 1_555 1_555
C15 C5 1_555 1_555
C16 C7 1_555 1_555
H8 C16 1_555 1_555
C17 C9 1_555 1_555
C18 N2 1_555 1_555
C19 N3 1_555 1_555
C20 C9 1_555 1_555
H9 C20 1_555 1_555
C21 C15 1_555 1_555
C23 C19 1_555 1_555
C24 N1 1_555 1_555
C26 C41 1_555 1_555
C27 C33 1_555 1_555
C28 C11 1_555 1_555
H10 C28 1_555 1_555
C29 C13 1_555 1_555
H11 C29 1_555 1_555
C30 H12 1_555 1_555
C32 C8 1_555 1_555
H14 C32 1_555 1_555
C33 C30 1_555 1_555
C34 C12 1_555 1_555
C35 C20 1_555 1_555
C36 C23 1_555 1_555
C37 C10 1_555 1_555
H15 C37 1_555 1_555
C38 C6 1_555 1_555
H16 C38 1_555 1_555
C39 C24 1_555 1_555
H17 C39 1_555 1_555
C40 C33 1_555 1_555
H18 C40 1_555 1_555
C41 H19 1_555 1_555
C42 C30 1_555 1_555
H20 C42 1_555 1_555
C43 C34 1_555 1_555
H21 C43 1_555 1_555
C44 C35 1_555 1_555
C45 C18 1_555 1_555
H22 C45 1_555 1_555
C46 C19 1_555 1_555
H23 C46 1_555 1_555
C47 C36 1_555 1_555
H24 C47 1_555 1_555
C48 C26 1_555 1_555
C49 C26 1_555 1_555
H25 C49 1_555 1_555
C50 C34 1_555 1_555
H26 C50 1_555 1_555
In3 O1 1_555 1_555
In5 O7 1_555 1_555
Na4 O9 1_555 1_555
Na6 O1 1_555 1_555
O19 In2 1_555 1_555
O20 In2 1_555 1_555
O22 Zn1 1_555 1_555
O24 In2 1_555 1_555
O25 Na1 1_555 1_555
O2 In3 1_555 1_555
C3 C7 1_555 1_555
C3 C11 1_555 1_555
C10 C12 1_555 1_555
C15 C16 1_555 1_555
C17 C18 1_555 1_555
C17 C24 1_555 1_555
C28 C37 1_555 1_555
C29 C39 1_555 1_555
C31 C35 1_555 1_555
C32 C45 1_555 1_555
C36 C42 1_555 1_555
C38 C46 1_555 1_555
C40 C47 1_555 1_555
C41 C43 1_555 1_555
C49 C50 1_555 1_555
Na4 O26 1_555 1_555
O11 H27 1_555 1_555
O5 C25 1_555 1_555
O8 C25 1_555 1_555
C25 C22 1_555 1_555
Zn2 O5 1_555 1_555
O17 C4_2 1_555 1_555
O19 C4_2 1_555 1_555
Na1_2 O10_2 1_555 1_555
O5_2 C25_2 1_555 1_555
O7_2 C44_2 1_555 1_555
O8_2 C25_2 1_555 1_555
O10_2 C27_2 1_555 1_555
O11_2 C44_2 1_555 1_555
O13_2 Na1_2 1_555 1_555
O14_2 Na1_2 1_555 1_555
H1_2 O14_2 1_555 1_555
H2_2 O14_2 1_555 1_555
N1_2 C13_2 1_555 1_555
C9_2 C14_2 1_555 1_555
C13_2 C23_2 1_555 1_555
C14_2 H7_2 1_555 1_555
C17_2 C9_2 1_555 1_555
C20_2 C9_2 1_555 1_555
H9_2 C20_2 1_555 1_555
C22_2 C14_2 1_555 1_555
C24_2 N1_2 1_555 1_555
C25_2 C22_2 1_555 1_555
C27_2 C33_2 1_555 1_555
C29_2 C13_2 1_555 1_555
H11_2 C29_2 1_555 1_555
C30_2 H12_2 1_555 1_555
C31_2 C22_2 1_555 1_555
H13_2 C31_2 1_555 1_555
C33_2 C30_2 1_555 1_555
C35_2 C20_2 1_555 1_555
C36_2 C23_2 1_555 1_555
C39_2 C24_2 1_555 1_555
H17_2 C39_2 1_555 1_555
C40_2 C33_2 1_555 1_555
H18_2 C40_2 1_555 1_555
C42_2 C30_2 1_555 1_555
H20_2 C42_2 1_555 1_555
C44_2 C35_2 1_555 1_555
C47_2 C36_2 1_555 1_555
H24_2 C47_2 1_555 1_555
In4 O7_2 1_555 1_555
Zn2_2 O5_2 1_555 1_555
O25_2 Na1_2 1_555 1_555
C17_2 C24_2 1_555 1_555
C29_2 C39_2 1_555 1_555
C31_2 C35_2 1_555 1_555
C36_2 C42_2 1_555 1_555
C40_2 C47_2 1_555 1_555
O11_2 H27_2 1_555 1_555
In3 O6 1_555 1_555
O6 C48_2 1_555 1_555
O9_2 C21_2 1_555 1_555
O12_2 C48_2 1_555 1_555
N2_2 Zn1_2 1_555 1_555
N3_2 Zn1_2 1_555 1_555
N4_2 Zn1_2 1_555 1_555
C1_2 C2_2 1_555 1_555
C2_2 H5_2 1_555 1_555
C3_2 C6_2 1_555 1_555
C5_2 C1_2 1_555 1_555
H6_2 C5_2 1_555 1_555
C6_2 N3_2 1_555 1_555
C7_2 C2_2 1_555 1_555
C8_2 N2_2 1_555 1_555
C10_2 N4_2 1_555 1_555
C11_2 N4_2 1_555 1_555
C12_2 C8_2 1_555 1_555
C15_2 C5_2 1_555 1_555
C16_2 C7_2 1_555 1_555
H8_2 C16_2 1_555 1_555
C18_2 N2_2 1_555 1_555
C19_2 N3_2 1_555 1_555
C21_2 C15_2 1_555 1_555
C26_2 C41_2 1_555 1_555
C28_2 C11_2 1_555 1_555
H10_2 C28_2 1_555 1_555
C32_2 C8_2 1_555 1_555
H14_2 C32_2 1_555 1_555
C34_2 C12_2 1_555 1_555
C37_2 C10_2 1_555 1_555
H15_2 C37_2 1_555 1_555
C38_2 C6_2 1_555 1_555
H16_2 C38_2 1_555 1_555
C41_2 H19_2 1_555 1_555
C43_2 C34_2 1_555 1_555
H21_2 C43_2 1_555 1_555
C45_2 C18_2 1_555 1_555
H22_2 C45_2 1_555 1_555
C46_2 C19_2 1_555 1_555
C48_2 C26_2 1_555 1_555
C49_2 C26_2 1_555 1_555
H25_2 C49_2 1_555 1_555
C50_2 C34_2 1_555 1_555
H26_2 C50_2 1_555 1_555
Na3 O9_2 1_555 1_555
Na6 O6 1_555 1_555
O20_2 In3 1_555 1_555
O21 In3 1_555 1_555
O22_2 Zn1_2 1_555 1_555
O24_2 In3 1_555 1_555
C3_2 C7_2 1_555 1_555
C3_2 C11_2 1_555 1_555
C10_2 C12_2 1_555 1_555
C15_2 C16_2 1_555 1_555
C28_2 C37_2 1_555 1_555
C32_2 C45_2 1_555 1_555
C38_2 C46_2 1_555 1_555
C41_2 C43_2 1_555 1_555
C49_2 C50_2 1_555 1_555
Na3 O26_2 1_555 1_555
In4 O3_2 1_555 1_555
In4 O18_2 1_555 1_555
Na7_2 O18_2 1_555 1_555
O22 C25_3 1_555 1_555
O8_3 C25_3 1_555 1_555
C25_3 C22_3 1_555 1_555
In4 O6_2 1_555 1_555
Zn2 N1_3 1_555 1_555
Na3 O10_3 1_555 1_555
O18 C4_3 1_555 1_555
O2_2 C4_3 1_555 1_555
O6_2 C48_3 1_555 1_555
O24_2 C44_3 1_555 1_555
O25_2 C21_3 1_555 1_555
O10_3 C27_3 1_555 1_555
O11_3 C44_3 1_555 1_555
O12_3 C48_3 1_555 1_555
O14_3 Na3 1_555 1_555
H1_3 O14_3 1_555 1_555
H2_3 O14_3 1_555 1_555
O15_2 Na3 1_555 1_555
H3_2 O15_2 1_555 1_555
H4_2 O15_2 1_555 1_555
N1_3 C13_3 1_555 1_555
N2_3 Zn2 1_555 1_555
N3_3 Zn2 1_555 1_555
N4_3 Zn2 1_555 1_555
C1_3 C2_3 1_555 1_555
C2_3 H5_3 1_555 1_555
C3_3 C6_3 1_555 1_555
C4_3 C1_3 1_555 1_555
C5_3 C1_3 1_555 1_555
H6_3 C5_3 1_555 1_555
C6_3 N3_3 1_555 1_555
C7_3 C2_3 1_555 1_555
C8_3 N2_3 1_555 1_555
C9_3 C14_3 1_555 1_555
C10_3 N4_3 1_555 1_555
C11_3 N4_3 1_555 1_555
C12_3 C8_3 1_555 1_555
C13_3 C23_3 1_555 1_555
C14_3 H7_3 1_555 1_555
C15_3 C5_3 1_555 1_555
C16_3 C7_3 1_555 1_555
H8_3 C16_3 1_555 1_555
C17_3 C9_3 1_555 1_555
C18_3 N2_3 1_555 1_555
C19_3 N3_3 1_555 1_555
C20_3 C9_3 1_555 1_555
H9_3 C20_3 1_555 1_555
C21_3 C15_3 1_555 1_555
C23_3 C19_3 1_555 1_555
C24_3 N1_3 1_555 1_555
C26_3 C41_3 1_555 1_555
C27_3 C33_3 1_555 1_555
C28_3 C11_3 1_555 1_555
H10_3 C28_3 1_555 1_555
C29_3 C13_3 1_555 1_555
H11_3 C29_3 1_555 1_555
C30_3 H12_3 1_555 1_555
C32_3 C8_3 1_555 1_555
H14_3 C32_3 1_555 1_555
C33_3 C30_3 1_555 1_555
C34_3 C12_3 1_555 1_555
C35_3 C20_3 1_555 1_555
C36_3 C23_3 1_555 1_555
C37_3 C10_3 1_555 1_555
H15_3 C37_3 1_555 1_555
C38_3 C6_3 1_555 1_555
H16_3 C38_3 1_555 1_555
C39_3 C24_3 1_555 1_555
H17_3 C39_3 1_555 1_555
C40_3 C33_3 1_555 1_555
H18_3 C40_3 1_555 1_555
C41_3 H19_3 1_555 1_555
C42_3 C30_3 1_555 1_555
H20_3 C42_3 1_555 1_555
C43_3 C34_3 1_555 1_555
H21_3 C43_3 1_555 1_555
C44_3 C35_3 1_555 1_555
C45_3 C18_3 1_555 1_555
H22_3 C45_3 1_555 1_555
C46_3 C19_3 1_555 1_555
H23_3 C46_3 1_555 1_555
C47_3 C36_3 1_555 1_555
H24_3 C47_3 1_555 1_555
C48_3 C26_3 1_555 1_555
C49_3 C26_3 1_555 1_555
H25_3 C49_3 1_555 1_555
C50_3 C34_3 1_555 1_555
H26_3 C50_3 1_555 1_555
Na7_2 O6_2 1_555 1_555
O19_2 In4 1_555 1_555
O21_2 In4 1_555 1_555
O2_2 In5 1_555 1_555
C3_3 C7_3 1_555 1_555
C3_3 C11_3 1_555 1_555
C10_3 C12_3 1_555 1_555
C15_3 C16_3 1_555 1_555
C17_3 C18_3 1_555 1_555
C17_3 C24_3 1_555 1_555
C28_3 C37_3 1_555 1_555
C29_3 C39_3 1_555 1_555
C31_3 C35_3 1_555 1_555
C32_3 C45_3 1_555 1_555
C36_3 C42_3 1_555 1_555
C38_3 C46_3 1_555 1_555
C40_3 C47_3 1_555 1_555
C41_3 C43_3 1_555 1_555
C49_3 C50_3 1_555 1_555
O11_3 H27_3 1_555 1_555
In5 O4_2 1_555 1_555
O23_2 Na7 1_555 1_555
In5 O23_2 1_555 1_555
O23_2 C48_4 1_555 1_555
O25 C21_4 1_555 1_555
O12_4 C48_4 1_555 1_555
N2_4 Zn2_2 1_555 1_555
N3_4 Zn2_2 1_555 1_555
N4_4 Zn2_2 1_555 1_555
C1_4 C2_4 1_555 1_555
C2_4 H5_4 1_555 1_555
C3_4 C6_4 1_555 1_555
C5_4 C1_4 1_555 1_555
H6_4 C5_4 1_555 1_555
C6_4 N3_4 1_555 1_555
C7_4 C2_4 1_555 1_555
C8_4 N2_4 1_555 1_555
C10_4 N4_4 1_555 1_555
C11_4 N4_4 1_555 1_555
C12_4 C8_4 1_555 1_555
C15_4 C5_4 1_555 1_555
C16_4 C7_4 1_555 1_555
H8_4 C16_4 1_555 1_555
C18_4 N2_4 1_555 1_555
C19_4 N3_4 1_555 1_555
C21_4 C15_4 1_555 1_555
C26_4 C41_4 1_555 1_555
C28_4 C11_4 1_555 1_555
H10_4 C28_4 1_555 1_555
C32_4 C8_4 1_555 1_555
H14_4 C32_4 1_555 1_555
C34_4 C12_4 1_555 1_555
C37_4 C10_4 1_555 1_555
H15_4 C37_4 1_555 1_555
C38_4 C6_4 1_555 1_555
H16_4 C38_4 1_555 1_555
C41_4 H19_4 1_555 1_555
C43_4 C34_4 1_555 1_555
H21_4 C43_4 1_555 1_555
C45_4 C18_4 1_555 1_555
H22_4 C45_4 1_555 1_555
C46_4 C19_4 1_555 1_555
C48_4 C26_4 1_555 1_555
C49_4 C26_4 1_555 1_555
H25_4 C49_4 1_555 1_555
C50_4 C34_4 1_555 1_555
H26_4 C50_4 1_555 1_555
C3_4 C7_4 1_555 1_555
C3_4 C11_4 1_555 1_555
C10_4 C12_4 1_555 1_555
C15_4 C16_4 1_555 1_555
C28_4 C37_4 1_555 1_555
C32_4 C45_4 1_555 1_555
C38_4 C46_4 1_555 1_555
C41_4 C43_4 1_555 1_555
C49_4 C50_4 1_555 1_555
Na4 O10_4 1_555 1_555
O22_2 C25_4 1_555 1_555
O24 C44_4 1_555 1_555
O8_4 C25_4 1_555 1_555
O10_4 C27_4 1_555 1_555
O11_4 C44_4 1_555 1_555
O14_4 Na4 1_555 1_555
H1_4 O14_4 1_555 1_555
H2_4 O14_4 1_555 1_555
N1_4 C13_4 1_555 1_555
C9_4 C14_4 1_555 1_555
C13_4 C23_4 1_555 1_555
C14_4 H7_4 1_555 1_555
C17_4 C9_4 1_555 1_555
C20_4 C9_4 1_555 1_555
H9_4 C20_4 1_555 1_555
C22_4 C14_4 1_555 1_555
C24_4 N1_4 1_555 1_555
C25_4 C22_4 1_555 1_555
C27_4 C33_4 1_555 1_555
C29_4 C13_4 1_555 1_555
H11_4 C29_4 1_555 1_555
C30_4 H12_4 1_555 1_555
C31_4 C22_4 1_555 1_555
H13_4 C31_4 1_555 1_555
C33_4 C30_4 1_555 1_555
C35_4 C20_4 1_555 1_555
C36_4 C23_4 1_555 1_555
C39_4 C24_4 1_555 1_555
H17_4 C39_4 1_555 1_555
C40_4 C33_4 1_555 1_555
H18_4 C40_4 1_555 1_555
C42_4 C30_4 1_555 1_555
H20_4 C42_4 1_555 1_555
C44_4 C35_4 1_555 1_555
C47_4 C36_4 1_555 1_555
H24_4 C47_4 1_555 1_555
C17_4 C24_4 1_555 1_555
C29_4 C39_4 1_555 1_555
C31_4 C35_4 1_555 1_555
C36_4 C42_4 1_555 1_555
C40_4 C47_4 1_555 1_555
O11_4 H27_4 1_555 1_555
O18_2 C4_4 1_555 1_555
O19_2 C4_4 1_555 1_555
H3_3 O15_3 1_555 1_555
H4_3 O15_3 1_555 1_555
H3_4 O15_4 1_555 1_555
H4_4 O15_4 1_555 1_555

#END
