
###############################################################################
#
# This file contains modified crystal structure data generated from the
# MOF subset of the Cambridge Structural Database (CSD) v543 
# hosted by the Cambridge Crystallographic Data Centre (CCDC).
#
# This work is licensed under the Creative Commons
# Attribution-NonCommercial-ShareAlike 4.0 International License.
# To view a copy of this license, visit
# http://creativecommons.org/licenses/by-nc-sa/4.0/
# or send a letter to
# Creative Commons, PO Box 1866, Mountain View, CA 94042, USA.
#
# CIF created using the CSD Python API on 29 September 2022
# The structure has been converted into the P1 space group
# The structure has a 3D framework
# The original CSD entry TEPNIO is in the monoclinic crystal system
# The framework has been calculated to contain at least 10.0% void space
# The void calculation uses a probe of radius 1.32A, grid spacing 0.4
#
###############################################################################

data_TEPNIO
_chemical_formula_moiety         '(C200 H118 N16 Na8 O54 Pr4 Zn4)n'
_symmetry_cell_setting           triclinic
_symmetry_space_group_name_H-M   'P 1'
_symmetry_Int_Tables_number      1
_space_group_name_Hall           'P 1'
loop_
_symmetry_equiv_pos_site_id
_symmetry_equiv_pos_as_xyz
1 x,y,z
_cell_length_a                   16.4186(6)
_cell_length_b                   16.9421(7)
_cell_length_c                   31.7145(12)
_cell_angle_alpha                90
_cell_angle_beta                 96.867(2)
_cell_angle_gamma                90
_cell_volume                     8758.6
loop_
_atom_site_label
_atom_site_type_symbol
_atom_site_fract_x
_atom_site_fract_y
_atom_site_fract_z
Zn1 Zn 0.61829(4) 0.73578(5) 0.54591(2)
Na1 Na 0.84750(19) 0.43415(18) 0.74205(10)
Na2 Na 0.06494(16) 0.12189(17) 0.73220(9)
O3 O 0.0042(3) 0.2623(3) 0.26279(14)
O4 O 0.6275(3) 0.6190(3) 0.55953(17)
O6 O 0.0061(3) 0.1961(3) 0.67326(15)
O8 O 0.8254(3) 0.1992(3) 0.26956(16)
O9 O 0.7665(3) 0.3084(3) 0.24493(18)
O10 O 0.7452(4) 0.2542(3) 0.6549(2)
O11 O 0.8029(3) 0.3634(3) 0.68220(16)
O12 O 0.8905(3) 0.5053(3) 0.80586(18)
H1 H 0.9362 0.4792 0.8239
H2 H 0.8449 0.5169 0.8227
O13 O 0.6948(6) 0.6210(5) 0.6225(3)
H3 H 0.7144 0.6738 0.6168
O14 O 0.1019(4) 0.0435(4) 0.7936(2)
H4 H 0.1449 0.0687 0.8137
H5 H 0.0541 0.0295 0.8083
O15 O 0.1975(4) 0.1736(4) 0.7349(2)
H6 H 0.2094 0.2124 0.7149
H7 H 0.2394 0.1559 0.7560
O16 O 0.7085(6) 0.4755(6) 0.7483(3)
H8 H 0.6648 0.4583 0.7280
H9 H 0.6976 0.5089 0.7710
N1 N 0.3829(3) 0.2804(4) 0.51818(15)
N2 N 0.2638(3) 0.2241(3) 0.45139(16)
N3 N 0.5077(3) 0.2709(4) 0.46351(17)
N4 N 0.3899(3) 0.2094(3) 0.39628(17)
C1 C 0.7133(4) 0.2464(4) 0.3028(2)
C2 C 0.1315(4) 0.0182(4) 0.3090(2)
C3 C 0.1308(4) 0.1821(4) 0.3173(2)
H10 H 0.1290 0.2377 0.3206
C4 C 0.0532(4) 0.2431(4) 0.6099(2)
C5 C 0.1867(4) 0.0563(4) 0.3402(2)
H11 H 0.2240 0.0258 0.3587
C6 C 0.2457(4) 0.1744(4) 0.37797(19)
C7 C 0.1868(4) 0.1373(4) 0.3437(2)
C8 C 0.6916(4) 0.3739(4) 0.6267(2)
C9 C 0.0779(4) 0.1451(4) 0.2862(2)
C12 C 0.2173(3) 0.1925(4) 0.4171(2)
C13 C 0.5992(4) 0.2362(5) 0.3616(2)
C14 C 0.2374(4) 0.2527(4) 0.5244(2)
C15 C 0.3161(4) 0.2771(5) 0.5406(2)
C16 C 0.0784(4) 0.0633(4) 0.2817(2)
H12 H 0.0424 0.0385 0.2600
C17 C 0.6340(4) 0.3334(5) 0.5966(2)
H13 H 0.6300 0.2775 0.5975
C18 C 0.7727(4) 0.2525(4) 0.2713(2)
C19 C 0.0137(4) 0.1905(4) 0.2575(2)
C20 C 0.5851(4) 0.3750(5) 0.5670(2)
C21 C 0.1721(4) 0.2511(4) 0.5543(2)
C22 C 0.5587(4) 0.2606(5) 0.4324(2)
C23 C 0.1232(5) 0.1945(5) 0.6161(3)
H14 H 0.1304 0.1589 0.6394
C24 C 0.5890(5) 0.4580(6) 0.5648(2)
H15 H 0.5541 0.4861 0.5439
C25 C 0.4568(4) 0.2117(5) 0.3754(2)
C26 C 0.5242(4) 0.3294(5) 0.5347(2)
C27 C 0.3260(4) 0.1830(4) 0.3695(2)
C28 C 0.5370(4) 0.2348(5) 0.3919(2)
C29 C 0.2131(4) 0.2276(4) 0.4825(2)
C30 C 0.4461(4) 0.3140(6) 0.5447(2)
C31 C 0.7485(5) 0.3283(5) 0.6549(3)
C32 C 0.1354(4) 0.1775(5) 0.4269(2)
H16 H 0.0914 0.1562 0.4082
C33 C 0.5536(4) 0.3032(6) 0.4980(2)
C34 C 0.1812(5) 0.1991(5) 0.5882(2)
H17 H 0.2282 0.1660 0.5922
C35 C 0.1037(4) 0.2993(5) 0.5488(2)
H18 H 0.0971 0.3357 0.5258
C36 C 0.6548(6) 0.5876(6) 0.5908(3)
C37 C 0.6460(5) 0.4989(5) 0.5943(3)
C38 C 0.0452(4) 0.2951(5) 0.5761(2)
C39 C 0.6409(5) 0.2860(6) 0.4499(3)
H20 H 0.6889 0.2825 0.4360
C40 C 0.1329(4) 0.1987(5) 0.4662(2)
H21 H 0.0865 0.1956 0.4814
C41 C 0.4355(4) 0.1807(6) 0.3335(3)
H22 H 0.4721 0.1726 0.3129
C42 C 0.6959(5) 0.4549(5) 0.6238(3)
H23 H 0.7350 0.4820 0.6430
C43 C 0.4183(5) 0.3296(8) 0.5861(3)
H24 H 0.4502 0.3515 0.6103
C44 C 0.3533(5) 0.1649(5) 0.3284(2)
H25 H 0.3211 0.1461 0.3036
C45 C 0.6369(5) 0.3150(7) 0.4887(3)
H26 H 0.6804 0.3388 0.5067
C46 C 0.7140(5) 0.1838(5) 0.3306(2)
H27 H 0.7542 0.1436 0.3299
C47 C 0.3393(5) 0.3072(6) 0.5836(2)
H28 H 0.3049 0.3103 0.6056
C48 C 0.6573(5) 0.1782(6) 0.3595(3)
H29 H 0.6586 0.1340 0.3780
C49 C 0.6522(6) 0.3034(6) 0.3030(3)
H30 H 0.6487 0.3455 0.2831
C50 C 0.5957(5) 0.2982(6) 0.3330(3)
H31 H 0.5547 0.3376 0.3336
Pr3 Pr 0.87878(2) 0.26262(2) 0.20446(2)
Pr5 Pr 0.87878(2) 0.23738(2) 0.70446(2)
Zn2 Zn 0.38171(4) 0.26422(5) 0.45409(2)
Na5 Na 0.84750(19) 0.06585(18) 0.24205(10)
Na6 Na 0.93506(16) 0.62189(17) 0.76780(9)
Na8 Na 0.06494(16) 0.37811(17) 0.23220(9)
O19 O 0.0042(3) 0.2377(3) 0.76279(14)
O23 O 0.9703(3) 0.3489(3) 0.72869(14)
O25 O 0.8254(3) 0.3008(3) 0.76956(16)
O29 O 0.1095(3) 0.0053(3) 0.69414(18)
O30 O 0.8981(4) 0.5435(4) 0.7064(2)
N5 N 0.6171(3) 0.7196(4) 0.48182(15)
N6 N 0.7362(3) 0.7759(3) 0.54861(16)
N7 N 0.4923(3) 0.7291(4) 0.53649(17)
N8 N 0.6101(3) 0.7906(3) 0.60372(17)
Pr1 Pr 0.12122(2) 0.76262(2) 0.29554(2)
O1 O 0.0836(3) 0.9013(3) 0.27342(14)
O2 O 0.1724(3) 0.8882(3) 0.33175(15)
C10 C 0.1294(4) 0.9322(4) 0.3050(2)
Na3 Na 0.15250(19) 0.93415(18) 0.75795(10)
O20 O 0.0763(3) 0.7243(3) 0.36705(14)
O22 O 0.0297(3) 0.6511(3) 0.27131(14)
O24 O 0.1746(3) 0.6992(3) 0.23044(16)
O26 O 0.2335(3) 0.8084(3) 0.25507(18)
O27 O 0.2548(4) 0.7458(3) 0.3451(2)
O28 O 0.1971(3) 0.6366(3) 0.31780(16)
O5 O 0.9237(3) 0.2757(3) 0.63295(14)
O7 O 0.9703(3) 0.1511(3) 0.22869(14)
C11 C 0.9908(4) 0.2372(4) 0.6407(2)
H19 H 0.9984 0.3284 0.5717
O17 O 0.9164(3) 0.0987(3) 0.72658(14)
Na7 Na 0.93506(16) 0.87811(17) 0.26780(9)
O18 O 0.9958(3) 0.7623(3) 0.23721(14)
O21 O 0.9939(3) 0.8039(3) 0.32674(15)
Na4 Na 0.15250(19) 0.56585(18) 0.25795(10)
O21_2 O 0.0061(3) 0.3039(3) 0.17326(15)
O5_2 O 0.0763(3) 0.7757(3) 0.86705(14)
C11_2 C 0.0092(4) 0.7372(4) 0.8593(2)
H19_2 H 0.0016 0.8284 0.9283
Pr4 Pr 0.12122(2) 0.73738(2) 0.79554(2)
O17_2 O 0.0836(3) 0.5987(3) 0.77342(14)
N5_2 N 0.3829(3) 0.2196(4) 0.01818(15)
Zn1_2 Zn 0.38171(4) 0.23578(5) 0.95409(2)
O4_2 O 0.3725(3) 0.1190(3) 0.94047(17)
H2_2 H 0.1551 0.0169 0.6773
O13_2 O 0.3052(6) 0.1210(5) 0.8775(3)
H3_2 H 0.2856 0.1738 0.8832
H9_2 H 0.3024 0.0089 0.7290
C36_2 C 0.3452(6) 0.0876(6) 0.9092(3)
N6_2 N 0.2638(3) 0.2759(3) 0.95139(16)
N7_2 N 0.5077(3) 0.2291(4) 0.96351(17)
N8_2 N 0.3899(3) 0.2906(3) 0.89628(17)
O1_2 O 0.9164(3) 0.4013(3) 0.22658(14)
O2_2 O 0.8276(3) 0.3882(3) 0.16825(15)
N2_2 N 0.7362(3) 0.7241(3) 0.04861(16)
N3_2 N 0.4923(3) 0.7709(4) 0.03649(17)
N4_2 N 0.6101(3) 0.7094(3) 0.10372(17)
C1_2 C 0.2867(4) 0.7464(4) 0.1972(2)
C2_2 C 0.8685(4) 0.5182(4) 0.1910(2)
C3_2 C 0.8692(4) 0.6821(4) 0.1827(2)
H10_2 H 0.8710 0.7377 0.1794
C5_2 C 0.8133(4) 0.5563(4) 0.1598(2)
H11_2 H 0.7760 0.5258 0.1413
C6_2 C 0.7543(4) 0.6744(4) 0.12203(19)
C7_2 C 0.8132(4) 0.6373(4) 0.1563(2)
C9_2 C 0.9221(4) 0.6451(4) 0.2138(2)
C10_2 C 0.8706(4) 0.4322(4) 0.1950(2)
C12_2 C 0.7827(3) 0.6925(4) 0.0829(2)
C13_2 C 0.4008(4) 0.7362(5) 0.1384(2)
C16_2 C 0.9216(4) 0.5633(4) 0.2183(2)
H12_2 H 0.9576 0.5385 0.2400
C18_2 C 0.2273(4) 0.7525(4) 0.2287(2)
C19_2 C 0.9863(4) 0.6905(4) 0.2425(2)
C22_2 C 0.4413(4) 0.7606(5) 0.0676(2)
C25_2 C 0.5432(4) 0.7117(5) 0.1246(2)
C27_2 C 0.6740(4) 0.6830(4) 0.1305(2)
C28_2 C 0.4630(4) 0.7348(5) 0.1081(2)
C29_2 C 0.7869(4) 0.7276(4) 0.0175(2)
C32_2 C 0.8646(4) 0.6775(5) 0.0731(2)
H16_2 H 0.9086 0.6562 0.0918
C33_2 C 0.4464(4) 0.8032(6) 0.0020(2)
C39_2 C 0.3591(5) 0.7860(6) 0.0501(3)
H20_2 H 0.3111 0.7825 0.0640
C40_2 C 0.8671(4) 0.6987(5) 0.0338(2)
H21_2 H 0.9135 0.6956 0.0186
C41_2 C 0.5645(4) 0.6807(6) 0.1665(3)
H22_2 H 0.5279 0.6726 0.1871
C44_2 C 0.6467(5) 0.6649(5) 0.1716(2)
H25_2 H 0.6789 0.6461 0.1964
C45_2 C 0.3631(5) 0.8150(7) 0.0113(3)
C46_2 C 0.2860(5) 0.6838(5) 0.1694(2)
H27_2 H 0.2458 0.6436 0.1701
C48_2 C 0.3427(5) 0.6782(6) 0.1405(3)
H29_2 H 0.3414 0.6340 0.1220
C49_2 C 0.3478(6) 0.8034(6) 0.1970(3)
H30_2 H 0.3513 0.8455 0.2169
C50_2 C 0.4043(5) 0.7982(6) 0.1670(3)
H31_2 H 0.4453 0.8376 0.1664
Zn2_2 Zn 0.61829(4) 0.76422(5) 0.04591(2)
O20_2 O 0.9237(3) 0.2243(3) 0.13295(14)
O27_2 O 0.7452(4) 0.2458(3) 0.1549(2)
O28_2 O 0.8029(3) 0.1366(3) 0.18220(16)
O6_2 O 0.9939(3) 0.6961(3) 0.82674(15)
O10_2 O 0.2548(4) 0.7542(3) 0.8451(2)
O11_2 O 0.1971(3) 0.8634(3) 0.81780(16)
H1_2 H 0.0638 0.9792 0.6761
H4_2 H 0.8551 0.5687 0.6863
H5_2 H 0.9459 0.5295 0.6917
O15_2 O 0.8025(4) 0.6736(4) 0.7651(2)
H6_2 H 0.7906 0.7124 0.7851
H7_2 H 0.7606 0.6559 0.7440
O16_2 O 0.2915(6) 0.9755(6) 0.7517(3)
H8_2 H 0.3352 0.9583 0.7720
N1_2 N 0.6171(3) 0.7804(4) 0.98182(15)
C4_2 C 0.9468(4) 0.7431(4) 0.8901(2)
C8_2 C 0.3084(4) 0.8739(4) 0.8733(2)
C14_2 C 0.7626(4) 0.7527(4) 0.9756(2)
C15_2 C 0.6839(4) 0.7771(5) 0.9594(2)
C17_2 C 0.3660(4) 0.8334(5) 0.9034(2)
H13_2 H 0.3700 0.7775 0.9025
C20_2 C 0.4149(4) 0.8750(5) 0.9330(2)
C21_2 C 0.8279(4) 0.7511(4) 0.9457(2)
C23_2 C 0.8768(5) 0.6945(5) 0.8839(3)
H14_2 H 0.8696 0.6589 0.8606
C24_2 C 0.4110(5) 0.9580(6) 0.9352(2)
H15_2 H 0.4459 0.9861 0.9561
C26_2 C 0.4758(4) 0.8294(5) 0.9653(2)
C30_2 C 0.5539(4) 0.8140(6) 0.9553(2)
C31_2 C 0.2515(5) 0.8283(5) 0.8451(3)
C34_2 C 0.8188(5) 0.6991(5) 0.9118(2)
H17_2 H 0.7718 0.6660 0.9078
C35_2 C 0.8963(4) 0.7993(5) 0.9512(2)
H18_2 H 0.9029 0.8357 0.9742
C37_2 C 0.3540(5) 0.9989(5) 0.9057(3)
C38_2 C 0.9548(4) 0.7951(5) 0.9239(2)
C42_2 C 0.3041(5) 0.9549(5) 0.8762(3)
H23_2 H 0.2650 0.9820 0.8570
C43_2 C 0.5817(5) 0.8296(8) 0.9139(3)
H24_2 H 0.5498 0.8515 0.8897
H26_2 H 0.3196 0.8388 0.9933
C47_2 C 0.6607(5) 0.8072(6) 0.9164(2)
H28_2 H 0.6951 0.8103 0.8944
O19_2 O 0.9958(3) 0.7377(3) 0.73721(14)
O23_2 O 0.0297(3) 0.8489(3) 0.77131(14)
O25_2 O 0.1746(3) 0.8008(3) 0.73044(16)
C11_3 C 0.0092(4) 0.7628(4) 0.3593(2)
H19_3 H 0.0016 0.6716 0.4283
O2_3 O 0.8276(3) 0.1118(3) 0.66825(15)
C10_3 C 0.8706(4) 0.0678(4) 0.6950(2)
O26_2 O 0.7665(3) 0.1916(3) 0.74493(18)
O4_3 O 0.3725(3) 0.3810(3) 0.44047(17)
O9_2 O 0.2335(3) 0.6916(3) 0.75507(18)
O12_2 O 0.1095(3) 0.4947(3) 0.19414(18)
H1_3 H 0.0638 0.5208 0.1761
H2_3 H 0.1551 0.4831 0.1773
O13_3 O 0.3052(6) 0.3790(5) 0.3775(3)
H3_3 H 0.2856 0.3262 0.3832
O14_2 O 0.8981(4) 0.9565(4) 0.2064(2)
H4_3 H 0.8551 0.9313 0.1863
H5_3 H 0.9459 0.9705 0.1917
O15_3 O 0.8025(4) 0.8264(4) 0.2651(2)
H6_3 H 0.7906 0.7876 0.2851
H7_3 H 0.7606 0.8441 0.2440
O16_3 O 0.2915(6) 0.5245(6) 0.2517(3)
H8_3 H 0.3352 0.5417 0.2720
H9_3 H 0.3024 0.4911 0.2290
C1_3 C 0.2867(4) 0.7536(4) 0.6972(2)
C2_3 C 0.8685(4) 0.9818(4) 0.6910(2)
C3_3 C 0.8692(4) 0.8179(4) 0.6827(2)
H10_3 H 0.8710 0.7623 0.6794
C4_3 C 0.9468(4) 0.7569(4) 0.3901(2)
C5_3 C 0.8133(4) 0.9437(4) 0.6598(2)
H11_3 H 0.7760 0.9742 0.6413
C6_3 C 0.7543(4) 0.8256(4) 0.62203(19)
C7_3 C 0.8132(4) 0.8627(4) 0.6563(2)
C8_3 C 0.3084(4) 0.6261(4) 0.3733(2)
C9_3 C 0.9221(4) 0.8549(4) 0.7138(2)
C12_3 C 0.7827(3) 0.8075(4) 0.5829(2)
C13_3 C 0.4008(4) 0.7638(5) 0.6384(2)
C14_3 C 0.7626(4) 0.7473(4) 0.4756(2)
C15_3 C 0.6839(4) 0.7229(5) 0.4594(2)
C16_3 C 0.9216(4) 0.9367(4) 0.7183(2)
H12_3 H 0.9576 0.9615 0.7400
C17_3 C 0.3660(4) 0.6666(5) 0.4034(2)
H13_3 H 0.3700 0.7225 0.4025
C18_3 C 0.2273(4) 0.7475(4) 0.7287(2)
C19_3 C 0.9863(4) 0.8095(4) 0.7425(2)
C20_3 C 0.4149(4) 0.6250(5) 0.4330(2)
C21_3 C 0.8279(4) 0.7489(4) 0.4457(2)
C22_3 C 0.4413(4) 0.7394(5) 0.5676(2)
C23_3 C 0.8768(5) 0.8055(5) 0.3839(3)
H14_3 H 0.8696 0.8411 0.3606
C24_3 C 0.4110(5) 0.5420(6) 0.4352(2)
H15_3 H 0.4459 0.5139 0.4561
C25_3 C 0.5432(4) 0.7883(5) 0.6246(2)
C26_3 C 0.4758(4) 0.6706(5) 0.4653(2)
C27_3 C 0.6740(4) 0.8170(4) 0.6305(2)
C28_3 C 0.4630(4) 0.7652(5) 0.6081(2)
C29_3 C 0.7869(4) 0.7724(4) 0.5175(2)
C30_3 C 0.5539(4) 0.6860(6) 0.4553(2)
C31_3 C 0.2515(5) 0.6717(5) 0.3451(3)
C32_3 C 0.8646(4) 0.8225(5) 0.5731(2)
H16_3 H 0.9086 0.8438 0.5918
C33_3 C 0.4464(4) 0.6968(6) 0.5020(2)
C34_3 C 0.8188(5) 0.8009(5) 0.4118(2)
H17_3 H 0.7718 0.8340 0.4078
C35_3 C 0.8963(4) 0.7007(5) 0.4512(2)
H18_3 H 0.9029 0.6643 0.4742
C36_3 C 0.3452(6) 0.4124(6) 0.4092(3)
C37_3 C 0.3540(5) 0.5011(5) 0.4057(3)
C38_3 C 0.9548(4) 0.7049(5) 0.4239(2)
C39_3 C 0.3591(5) 0.7140(6) 0.5501(3)
H20_3 H 0.3111 0.7175 0.5640
C40_3 C 0.8671(4) 0.8013(5) 0.5338(2)
H21_3 H 0.9135 0.8044 0.5186
C41_3 C 0.5645(4) 0.8193(6) 0.6665(3)
H22_3 H 0.5279 0.8274 0.6871
C42_3 C 0.3041(5) 0.5451(5) 0.3762(3)
H23_3 H 0.2650 0.5180 0.3570
C43_3 C 0.5817(5) 0.6704(8) 0.4139(3)
H24_3 H 0.5498 0.6485 0.3897
C44_3 C 0.6467(5) 0.8351(5) 0.6716(2)
H25_3 H 0.6789 0.8539 0.6964
C45_3 C 0.3631(5) 0.6850(7) 0.5113(3)
H26_3 H 0.3196 0.6612 0.4933
C46_3 C 0.2860(5) 0.8162(5) 0.6694(2)
H27_3 H 0.2458 0.8564 0.6701
C47_3 C 0.6607(5) 0.6928(6) 0.4164(2)
H28_3 H 0.6951 0.6897 0.3944
C48_3 C 0.3427(5) 0.8218(6) 0.6405(3)
H29_3 H 0.3414 0.8660 0.6220
C49_3 C 0.3478(6) 0.6966(6) 0.6970(3)
H30_3 H 0.3513 0.6545 0.7169
C50_3 C 0.4043(5) 0.7018(6) 0.6670(3)
H31_3 H 0.4453 0.6624 0.6664
O29_2 O 0.8905(3) 0.9947(3) 0.30586(18)
O30_2 O 0.1019(4) 0.4565(4) 0.2936(2)
H1_4 H 0.9362 0.0208 0.3239
H4_4 H 0.1449 0.4313 0.3137
H5_4 H 0.0541 0.4705 0.3083
O15_4 O 0.1975(4) 0.3264(4) 0.2349(2)
H6_4 H 0.2094 0.2876 0.2149
H7_4 H 0.2394 0.3441 0.2560
O16_4 O 0.7085(6) 0.0245(6) 0.2483(3)
H8_4 H 0.6648 0.0417 0.2280
C4_4 C 0.0532(4) 0.2569(4) 0.1099(2)
C8_4 C 0.6916(4) 0.1261(4) 0.1267(2)
C14_4 C 0.2374(4) 0.2473(4) 0.0244(2)
C15_4 C 0.3161(4) 0.2229(5) 0.0406(2)
C17_4 C 0.6340(4) 0.1666(5) 0.0966(2)
H13_4 H 0.6300 0.2225 0.0975
C20_4 C 0.5851(4) 0.1250(5) 0.0670(2)
C21_4 C 0.1721(4) 0.2489(4) 0.0543(2)
C23_4 C 0.1232(5) 0.3055(5) 0.1161(3)
H14_4 H 0.1304 0.3411 0.1394
C24_4 C 0.5890(5) 0.0420(6) 0.0648(2)
H15_4 H 0.5541 0.0139 0.0439
C26_4 C 0.5242(4) 0.1706(5) 0.0347(2)
C30_4 C 0.4461(4) 0.1860(6) 0.0447(2)
C31_4 C 0.7485(5) 0.1717(5) 0.1549(3)
C34_4 C 0.1812(5) 0.3009(5) 0.0882(2)
H17_4 H 0.2282 0.3340 0.0922
C35_4 C 0.1037(4) 0.2007(5) 0.0488(2)
H18_4 H 0.0971 0.1643 0.0258
C37_4 C 0.6460(5) 0.0011(5) 0.0943(3)
C38_4 C 0.0452(4) 0.2049(5) 0.0761(2)
C42_4 C 0.6959(5) 0.0451(5) 0.1238(3)
H23_4 H 0.7350 0.0180 0.1430
C43_4 C 0.4183(5) 0.1704(8) 0.0861(3)
H24_4 H 0.4502 0.1485 0.1103
H26_4 H 0.6804 0.1612 0.0067
C47_4 C 0.3393(5) 0.1928(6) 0.0836(2)
H28_4 H 0.3049 0.1897 0.1056
O2_4 O 0.1724(3) 0.6118(3) 0.83175(15)
C1_4 C 0.7133(4) 0.2536(4) 0.8028(2)
C2_4 C 0.1315(4) 0.4818(4) 0.8090(2)
C3_4 C 0.1308(4) 0.3179(4) 0.8173(2)
H10_4 H 0.1290 0.2623 0.8206
C5_4 C 0.1867(4) 0.4437(4) 0.8402(2)
H11_4 H 0.2240 0.4742 0.8587
C6_4 C 0.2457(4) 0.3256(4) 0.87797(19)
C7_4 C 0.1868(4) 0.3627(4) 0.8437(2)
C9_4 C 0.0779(4) 0.3549(4) 0.7862(2)
C10_4 C 0.1294(4) 0.5678(4) 0.8050(2)
C12_4 C 0.2173(3) 0.3075(4) 0.9171(2)
C13_4 C 0.5992(4) 0.2638(5) 0.8616(2)
C16_4 C 0.0784(4) 0.4367(4) 0.7817(2)
H12_4 H 0.0424 0.4615 0.7600
C18_4 C 0.7727(4) 0.2475(4) 0.7713(2)
C19_4 C 0.0137(4) 0.3095(4) 0.7575(2)
C22_4 C 0.5587(4) 0.2394(5) 0.9324(2)
C25_4 C 0.4568(4) 0.2883(5) 0.8754(2)
C27_4 C 0.3260(4) 0.3170(4) 0.8695(2)
C28_4 C 0.5370(4) 0.2652(5) 0.8919(2)
C29_4 C 0.2131(4) 0.2724(4) 0.9825(2)
C32_4 C 0.1354(4) 0.3225(5) 0.9269(2)
H16_4 H 0.0914 0.3438 0.9082
C33_4 C 0.5536(4) 0.1968(6) 0.9980(2)
C39_4 C 0.6409(5) 0.2140(6) 0.9499(3)
H20_4 H 0.6889 0.2175 0.9360
C40_4 C 0.1329(4) 0.3013(5) 0.9662(2)
H21_4 H 0.0865 0.3044 0.9814
C41_4 C 0.4355(4) 0.3193(6) 0.8335(3)
H22_4 H 0.4721 0.3274 0.8129
C44_4 C 0.3533(5) 0.3351(5) 0.8284(2)
H25_4 H 0.3211 0.3539 0.8036
C45_4 C 0.6369(5) 0.1850(7) 0.9887(3)
C46_4 C 0.7140(5) 0.3162(5) 0.8306(2)
H27_4 H 0.7542 0.3564 0.8299
C48_4 C 0.6573(5) 0.3218(6) 0.8595(3)
H29_4 H 0.6586 0.3660 0.8780
C49_4 C 0.6522(6) 0.1966(6) 0.8030(3)
H30_4 H 0.6487 0.1545 0.7831
C50_4 C 0.5957(5) 0.2018(6) 0.8330(3)
H31_4 H 0.5547 0.1624 0.8336
O4_4 O 0.6275(3) 0.8810(3) 0.05953(17)
H2_4 H 0.8449 0.9831 0.3227
O13_4 O 0.6948(6) 0.8790(5) 0.1225(3)
H3_4 H 0.7144 0.8262 0.1168
H9_4 H 0.6976 0.9911 0.2710
C36_4 C 0.6548(6) 0.9124(6) 0.0908(3)
C11_4 C 0.9908(4) 0.2628(4) 0.1407(2)
H19_4 H 0.9984 0.1716 0.0717
loop_
_geom_bond_atom_site_label_1
_geom_bond_atom_site_label_2
_geom_bond_site_symmetry_1
_geom_bond_site_symmetry_2
Zn1 O4 1_555 1_555
Na1 O11 1_555 1_555
Na2 O6 1_555 1_555
O3 C19 1_555 1_555
O4 C36 1_555 1_555
O8 C18 1_555 1_555
O9 C18 1_555 1_555
O10 C31 1_555 1_555
O11 C31 1_555 1_555
O12 Na1 1_555 1_555
H1 O12 1_555 1_555
H2 O12 1_555 1_555
O13 H3 1_555 1_555
O14 Na2 1_555 1_555
H4 O14 1_555 1_555
H5 O14 1_555 1_555
O15 Na2 1_555 1_555
H6 O15 1_555 1_555
H7 O15 1_555 1_555
O16 Na1 1_555 1_555
H8 O16 1_555 1_555
H9 O16 1_555 1_555
N1 C15 1_555 1_555
N2 C12 1_555 1_555
N3 C22 1_555 1_555
N4 C25 1_555 1_555
C1 C18 1_555 1_555
C2 C5 1_555 1_555
C3 H10 1_555 1_555
C5 H11 1_555 1_555
C6 C7 1_555 1_555
C7 C3 1_555 1_555
C8 C17 1_555 1_555
C9 C3 1_555 1_555
C12 C6 1_555 1_555
C13 C28 1_555 1_555
C14 C15 1_555 1_555
C15 C47 1_555 1_555
C16 C2 1_555 1_555
H12 C16 1_555 1_555
C17 H13 1_555 1_555
C19 C9 1_555 1_555
C20 C17 1_555 1_555
C21 C14 1_555 1_555
C22 C28 1_555 1_555
C23 C4 1_555 1_555
H14 C23 1_555 1_555
C24 C20 1_555 1_555
H15 C24 1_555 1_555
C25 C28 1_555 1_555
C26 C20 1_555 1_555
C27 N4 1_555 1_555
C29 N2 1_555 1_555
C30 N1 1_555 1_555
C31 C8 1_555 1_555
C32 C12 1_555 1_555
H16 C32 1_555 1_555
C33 N3 1_555 1_555
C34 C21 1_555 1_555
H17 C34 1_555 1_555
C35 C21 1_555 1_555
H18 C35 1_555 1_555
C36 O13 1_555 1_555
C37 C24 1_555 1_555
C38 C4 1_555 1_555
C39 C22 1_555 1_555
H20 C39 1_555 1_555
C40 C29 1_555 1_555
H21 C40 1_555 1_555
C41 C25 1_555 1_555
H22 C41 1_555 1_555
C42 C8 1_555 1_555
H23 C42 1_555 1_555
C43 C30 1_555 1_555
H24 C43 1_555 1_555
C44 C27 1_555 1_555
H25 C44 1_555 1_555
C45 C33 1_555 1_555
H26 C45 1_555 1_555
C46 C1 1_555 1_555
H27 C46 1_555 1_555
C47 C43 1_555 1_555
H28 C47 1_555 1_555
C48 C13 1_555 1_555
H29 C48 1_555 1_555
C49 C1 1_555 1_555
H30 C49 1_555 1_555
C50 C13 1_555 1_555
H31 C50 1_555 1_555
Pr3 O8 1_555 1_555
Pr5 O10 1_555 1_555
Zn2 N1 1_555 1_555
Na5 O8 1_555 1_555
Na6 O12 1_555 1_555
Na8 O3 1_555 1_555
O19 Na2 1_555 1_555
O23 Na1 1_555 1_555
O25 Na1 1_555 1_555
O29 Na2 1_555 1_555
O30 Na1 1_555 1_555
N5 Zn1 1_555 1_555
N6 Zn1 1_555 1_555
N7 Zn1 1_555 1_555
N8 Zn1 1_555 1_555
O9 Pr3 1_555 1_555
O11 Pr5 1_555 1_555
N2 Zn2 1_555 1_555
N3 Zn2 1_555 1_555
N4 Zn2 1_555 1_555
C5 C7 1_555 1_555
C6 C27 1_555 1_555
C9 C16 1_555 1_555
C14 C29 1_555 1_555
C23 C34 1_555 1_555
C26 C30 1_555 1_555
C26 C33 1_555 1_555
C32 C40 1_555 1_555
C35 C38 1_555 1_555
C36 C37 1_555 1_555
C37 C42 1_555 1_555
C39 C45 1_555 1_555
C41 C44 1_555 1_555
C46 C48 1_555 1_555
C49 C50 1_555 1_555
Pr5 O23 1_555 1_555
Pr5 O25 1_555 1_555
Na6 O30 1_555 1_555
Pr1 O1 1_555 1_555
O1 C10 1_555 1_555
O2 Pr1 1_555 1_555
C10 O2 1_555 1_555
O20 Pr1 1_555 1_555
O22 Pr1 1_555 1_555
O24 Pr1 1_555 1_555
O26 Pr1 1_555 1_555
O27 Pr1 1_555 1_555
O28 Pr1 1_555 1_555
O5 C11 1_555 1_555
Pr5 O5 1_555 1_555
Na5 O7 1_555 1_555
O7 Pr3 1_555 1_555
Pr5 O17 1_555 1_555
Na7 O18 1_555 1_555
Na7 O21 1_555 1_555
Na4 O22 1_555 1_555
Na8 O21_2 1_555 1_555
O5_2 C11_2 1_555 1_555
Pr4 O5_2 1_555 1_555
Pr4 O17_2 1_555 1_555
Zn1_2 O4_2 1_555 1_555
O4_2 C36_2 1_555 1_555
H2_2 O29 1_555 1_555
O13_2 H3_2 1_555 1_555
C36_2 O13_2 1_555 1_555
N6_2 Zn1_2 1_555 1_555
N7_2 Zn1_2 1_555 1_555
N8_2 Zn1_2 1_555 1_555
Pr3 O1_2 1_555 1_555
O1_2 C10_2 1_555 1_555
O2_2 Pr3 1_555 1_555
O18 C19_2 1_555 1_555
O24 C18_2 1_555 1_555
O26 C18_2 1_555 1_555
N2_2 C12_2 1_555 1_555
N3_2 C22_2 1_555 1_555
N4_2 C25_2 1_555 1_555
C1_2 C18_2 1_555 1_555
C2_2 C5_2 1_555 1_555
C3_2 H10_2 1_555 1_555
C5_2 H11_2 1_555 1_555
C6_2 C7_2 1_555 1_555
C7_2 C3_2 1_555 1_555
C9_2 C3_2 1_555 1_555
C10_2 O2_2 1_555 1_555
C12_2 C6_2 1_555 1_555
C13_2 C28_2 1_555 1_555
C16_2 C2_2 1_555 1_555
H12_2 C16_2 1_555 1_555
C19_2 C9_2 1_555 1_555
C22_2 C28_2 1_555 1_555
C25_2 C28_2 1_555 1_555
C27_2 N4_2 1_555 1_555
C29_2 N2_2 1_555 1_555
C32_2 C12_2 1_555 1_555
H16_2 C32_2 1_555 1_555
C33_2 N3_2 1_555 1_555
C39_2 C22_2 1_555 1_555
H20_2 C39_2 1_555 1_555
C40_2 C29_2 1_555 1_555
H21_2 C40_2 1_555 1_555
C41_2 C25_2 1_555 1_555
H22_2 C41_2 1_555 1_555
C44_2 C27_2 1_555 1_555
H25_2 C44_2 1_555 1_555
C45_2 C33_2 1_555 1_555
C46_2 C1_2 1_555 1_555
H27_2 C46_2 1_555 1_555
C48_2 C13_2 1_555 1_555
H29_2 C48_2 1_555 1_555
C49_2 C1_2 1_555 1_555
H30_2 C49_2 1_555 1_555
C50_2 C13_2 1_555 1_555
H31_2 C50_2 1_555 1_555
Na4 O24 1_555 1_555
O20_2 Pr3 1_555 1_555
O27_2 Pr3 1_555 1_555
O28_2 Pr3 1_555 1_555
N2_2 Zn2_2 1_555 1_555
N3_2 Zn2_2 1_555 1_555
N4_2 Zn2_2 1_555 1_555
C2_2 C10_2 1_555 1_555
C5_2 C7_2 1_555 1_555
C6_2 C27_2 1_555 1_555
C9_2 C16_2 1_555 1_555
C32_2 C40_2 1_555 1_555
C39_2 C45_2 1_555 1_555
C41_2 C44_2 1_555 1_555
C46_2 C48_2 1_555 1_555
C49_2 C50_2 1_555 1_555
Na3 O11_2 1_555 1_555
Na6 O6_2 1_555 1_555
O10_2 C31_2 1_555 1_555
O11_2 C31_2 1_555 1_555
H4_2 O30 1_555 1_555
H5_2 O30 1_555 1_555
O15_2 Na6 1_555 1_555
H6_2 O15_2 1_555 1_555
H7_2 O15_2 1_555 1_555
O16_2 Na3 1_555 1_555
H8_2 O16_2 1_555 1_555
N1_2 C15_2 1_555 1_555
C8_2 C17_2 1_555 1_555
C14_2 C15_2 1_555 1_555
C15_2 C47_2 1_555 1_555
C17_2 H13_2 1_555 1_555
C20_2 C17_2 1_555 1_555
C21_2 C14_2 1_555 1_555
C23_2 C4_2 1_555 1_555
H14_2 C23_2 1_555 1_555
C24_2 C20_2 1_555 1_555
H15_2 C24_2 1_555 1_555
C26_2 C20_2 1_555 1_555
C30_2 N1_2 1_555 1_555
C31_2 C8_2 1_555 1_555
C34_2 C21_2 1_555 1_555
H17_2 C34_2 1_555 1_555
C35_2 C21_2 1_555 1_555
H18_2 C35_2 1_555 1_555
C37_2 C24_2 1_555 1_555
C38_2 C4_2 1_555 1_555
C42_2 C8_2 1_555 1_555
H23_2 C42_2 1_555 1_555
C43_2 C30_2 1_555 1_555
H24_2 C43_2 1_555 1_555
C47_2 C43_2 1_555 1_555
H28_2 C47_2 1_555 1_555
Pr4 O10_2 1_555 1_555
O19_2 Na6 1_555 1_555
O23_2 Na3 1_555 1_555
O25_2 Na3 1_555 1_555
O11_2 Pr4 1_555 1_555
C23_2 C34_2 1_555 1_555
C26_2 C30_2 1_555 1_555
C35_2 C38_2 1_555 1_555
C37_2 C42_2 1_555 1_555
Pr4 O23_2 1_555 1_555
Pr4 O25_2 1_555 1_555
O20 C11_3 1_555 1_555
O17 C10_3 1_555 1_555
O2_3 Pr5 1_555 1_555
C10_3 O2_3 1_555 1_555
O26_2 Pr5 1_555 1_555
Zn2 O4_3 1_555 1_555
Na4 O28 1_555 1_555
O19_2 C19_3 1_555 1_555
O4_3 C36_3 1_555 1_555
O25_2 C18_3 1_555 1_555
O9_2 C18_3 1_555 1_555
O27 C31_3 1_555 1_555
O28 C31_3 1_555 1_555
O12_2 Na4 1_555 1_555
H1_3 O12_2 1_555 1_555
H2_3 O12_2 1_555 1_555
O13_3 H3_3 1_555 1_555
O14_2 Na7 1_555 1_555
H4_3 O14_2 1_555 1_555
H5_3 O14_2 1_555 1_555
O15_3 Na7 1_555 1_555
H6_3 O15_3 1_555 1_555
H7_3 O15_3 1_555 1_555
O16_3 Na4 1_555 1_555
H8_3 O16_3 1_555 1_555
H9_3 O16_3 1_555 1_555
N5 C15_3 1_555 1_555
N6 C12_3 1_555 1_555
N7 C22_3 1_555 1_555
N8 C25_3 1_555 1_555
C1_3 C18_3 1_555 1_555
C2_3 C5_3 1_555 1_555
C3_3 H10_3 1_555 1_555
C5_3 H11_3 1_555 1_555
C6_3 C7_3 1_555 1_555
C7_3 C3_3 1_555 1_555
C8_3 C17_3 1_555 1_555
C9_3 C3_3 1_555 1_555
C12_3 C6_3 1_555 1_555
C13_3 C28_3 1_555 1_555
C14_3 C15_3 1_555 1_555
C15_3 C47_3 1_555 1_555
C16_3 C2_3 1_555 1_555
H12_3 C16_3 1_555 1_555
C17_3 H13_3 1_555 1_555
C19_3 C9_3 1_555 1_555
C20_3 C17_3 1_555 1_555
C21_3 C14_3 1_555 1_555
C22_3 C28_3 1_555 1_555
C23_3 C4_3 1_555 1_555
H14_3 C23_3 1_555 1_555
C24_3 C20_3 1_555 1_555
H15_3 C24_3 1_555 1_555
C25_3 C28_3 1_555 1_555
C26_3 C20_3 1_555 1_555
C27_3 N8 1_555 1_555
C29_3 N6 1_555 1_555
C30_3 N5 1_555 1_555
C31_3 C8_3 1_555 1_555
C32_3 C12_3 1_555 1_555
H16_3 C32_3 1_555 1_555
C33_3 N7 1_555 1_555
C34_3 C21_3 1_555 1_555
H17_3 C34_3 1_555 1_555
C35_3 C21_3 1_555 1_555
H18_3 C35_3 1_555 1_555
C36_3 O13_3 1_555 1_555
C37_3 C24_3 1_555 1_555
C38_3 C4_3 1_555 1_555
C39_3 C22_3 1_555 1_555
H20_3 C39_3 1_555 1_555
C40_3 C29_3 1_555 1_555
H21_3 C40_3 1_555 1_555
C41_3 C25_3 1_555 1_555
H22_3 C41_3 1_555 1_555
C42_3 C8_3 1_555 1_555
H23_3 C42_3 1_555 1_555
C43_3 C30_3 1_555 1_555
H24_3 C43_3 1_555 1_555
C44_3 C27_3 1_555 1_555
H25_3 C44_3 1_555 1_555
C45_3 C33_3 1_555 1_555
H26_3 C45_3 1_555 1_555
C46_3 C1_3 1_555 1_555
H27_3 C46_3 1_555 1_555
C47_3 C43_3 1_555 1_555
H28_3 C47_3 1_555 1_555
C48_3 C13_3 1_555 1_555
H29_3 C48_3 1_555 1_555
C49_3 C1_3 1_555 1_555
H30_3 C49_3 1_555 1_555
C50_3 C13_3 1_555 1_555
H31_3 C50_3 1_555 1_555
Na8 O12_2 1_555 1_555
O29_2 Na7 1_555 1_555
O30_2 Na4 1_555 1_555
O9_2 Pr4 1_555 1_555
C5_3 C7_3 1_555 1_555
C6_3 C27_3 1_555 1_555
C9_3 C16_3 1_555 1_555
C14_3 C29_3 1_555 1_555
C23_3 C34_3 1_555 1_555
C26_3 C30_3 1_555 1_555
C26_3 C33_3 1_555 1_555
C32_3 C40_3 1_555 1_555
C35_3 C38_3 1_555 1_555
C36_3 C37_3 1_555 1_555
C37_3 C42_3 1_555 1_555
C39_3 C45_3 1_555 1_555
C41_3 C44_3 1_555 1_555
C46_3 C48_3 1_555 1_555
C49_3 C50_3 1_555 1_555
Na8 O30_2 1_555 1_555
Na5 O28_2 1_555 1_555
O27_2 C31_4 1_555 1_555
O28_2 C31_4 1_555 1_555
H4_4 O30_2 1_555 1_555
H5_4 O30_2 1_555 1_555
O15_4 Na8 1_555 1_555
H6_4 O15_4 1_555 1_555
H7_4 O15_4 1_555 1_555
O16_4 Na5 1_555 1_555
H8_4 O16_4 1_555 1_555
N5_2 C15_4 1_555 1_555
C8_4 C17_4 1_555 1_555
C14_4 C15_4 1_555 1_555
C15_4 C47_4 1_555 1_555
C17_4 H13_4 1_555 1_555
C20_4 C17_4 1_555 1_555
C21_4 C14_4 1_555 1_555
C23_4 C4_4 1_555 1_555
H14_4 C23_4 1_555 1_555
C24_4 C20_4 1_555 1_555
H15_4 C24_4 1_555 1_555
C26_4 C20_4 1_555 1_555
C30_4 N5_2 1_555 1_555
C31_4 C8_4 1_555 1_555
C34_4 C21_4 1_555 1_555
H17_4 C34_4 1_555 1_555
C35_4 C21_4 1_555 1_555
H18_4 C35_4 1_555 1_555
C37_4 C24_4 1_555 1_555
C38_4 C4_4 1_555 1_555
C42_4 C8_4 1_555 1_555
H23_4 C42_4 1_555 1_555
C43_4 C30_4 1_555 1_555
H24_4 C43_4 1_555 1_555
C47_4 C43_4 1_555 1_555
H28_4 C47_4 1_555 1_555
C23_4 C34_4 1_555 1_555
C26_4 C30_4 1_555 1_555
C35_4 C38_4 1_555 1_555
C37_4 C42_4 1_555 1_555
O17_2 C10_4 1_555 1_555
O2_4 Pr4 1_555 1_555
O19 C19_4 1_555 1_555
O25 C18_4 1_555 1_555
O26_2 C18_4 1_555 1_555
N6_2 C12_4 1_555 1_555
N7_2 C22_4 1_555 1_555
N8_2 C25_4 1_555 1_555
C1_4 C18_4 1_555 1_555
C2_4 C5_4 1_555 1_555
C3_4 H10_4 1_555 1_555
C5_4 H11_4 1_555 1_555
C6_4 C7_4 1_555 1_555
C7_4 C3_4 1_555 1_555
C9_4 C3_4 1_555 1_555
C10_4 O2_4 1_555 1_555
C12_4 C6_4 1_555 1_555
C13_4 C28_4 1_555 1_555
C16_4 C2_4 1_555 1_555
H12_4 C16_4 1_555 1_555
C19_4 C9_4 1_555 1_555
C22_4 C28_4 1_555 1_555
C25_4 C28_4 1_555 1_555
C27_4 N8_2 1_555 1_555
C29_4 N6_2 1_555 1_555
C32_4 C12_4 1_555 1_555
H16_4 C32_4 1_555 1_555
C33_4 N7_2 1_555 1_555
C39_4 C22_4 1_555 1_555
H20_4 C39_4 1_555 1_555
C40_4 C29_4 1_555 1_555
H21_4 C40_4 1_555 1_555
C41_4 C25_4 1_555 1_555
H22_4 C41_4 1_555 1_555
C44_4 C27_4 1_555 1_555
H25_4 C44_4 1_555 1_555
C45_4 C33_4 1_555 1_555
C46_4 C1_4 1_555 1_555
H27_4 C46_4 1_555 1_555
C48_4 C13_4 1_555 1_555
H29_4 C48_4 1_555 1_555
C49_4 C1_4 1_555 1_555
H30_4 C49_4 1_555 1_555
C50_4 C13_4 1_555 1_555
H31_4 C50_4 1_555 1_555
C2_4 C10_4 1_555 1_555
C5_4 C7_4 1_555 1_555
C6_4 C27_4 1_555 1_555
C9_4 C16_4 1_555 1_555
C32_4 C40_4 1_555 1_555
C39_4 C45_4 1_555 1_555
C41_4 C44_4 1_555 1_555
C46_4 C48_4 1_555 1_555
C49_4 C50_4 1_555 1_555
Zn2_2 O4_4 1_555 1_555
O4_4 C36_4 1_555 1_555
H2_4 O29_2 1_555 1_555
O13_4 H3_4 1_555 1_555
C36_4 O13_4 1_555 1_555
O20_2 C11_4 1_555 1_555

#END
