
###############################################################################
#
# This file contains modified crystal structure data generated from the
# MOF subset of the Cambridge Structural Database (CSD) v543 
# hosted by the Cambridge Crystallographic Data Centre (CCDC).
#
# This work is licensed under the Creative Commons
# Attribution-NonCommercial-ShareAlike 4.0 International License.
# To view a copy of this license, visit
# http://creativecommons.org/licenses/by-nc-sa/4.0/
# or send a letter to
# Creative Commons, PO Box 1866, Mountain View, CA 94042, USA.
#
# CIF created using the CSD Python API on 29 September 2022
# The structure has been converted into the P1 space group
# The structure has a 3D framework
# The original CSD entry TEQKEH is in the triclinic crystal system
# The framework has been calculated to contain at least 10.0% void space
# The void calculation uses a probe of radius 1.32A, grid spacing 0.4
#
###############################################################################

data_TEQKEH
_chemical_formula_moiety         '(C18 H24 Er2 O18)n'
_symmetry_cell_setting           triclinic
_symmetry_space_group_name_H-M   'P 1'
_symmetry_Int_Tables_number      1
_space_group_name_Hall           'P 1'
loop_
_symmetry_equiv_pos_site_id
_symmetry_equiv_pos_as_xyz
1 x,y,z
_cell_length_a                   9.247(2)
_cell_length_b                   9.437(2)
_cell_length_c                   9.862(3)
_cell_angle_alpha                74.36(2)
_cell_angle_beta                 63.38(2)
_cell_angle_gamma                87.67(2)
_cell_volume                     737.668
loop_
_atom_site_label
_atom_site_type_symbol
_atom_site_fract_x
_atom_site_fract_y
_atom_site_fract_z
_atom_site_U_iso_or_equiv
_atom_site_thermal_displace_type
H6 H 0.0374 0.0123 0.3410 0.0340 Uiso
Er1 Er 0.56149(4) 0.61995(3) 0.14494(4) 0.0153 Uani
O1 O 0.5859(7) 0.3556(6) 0.2181(7) 0.0198 Uani
O2 O 0.4263(7) 0.4472(7) 0.4096(7) 0.0214 Uani
O3 O 0.3496(7) 0.5042(8) 0.1423(8) 0.0276 Uani
O4 O 0.1999(8) 0.4055(8) 0.0662(8) 0.0283 Uani
O5 O 0.3790(8) 0.7553(7) 0.2914(8) 0.0261 Uani
O6 O 0.2604(8) 0.8906(7) 0.1539(8) 0.0267 Uani
O8 O 0.7149(9) 0.8490(7) 0.0619(9) 0.0319 Uani
O9 O 0.7293(8) 0.5961(9) 0.2716(8) 0.0289 Uani
C1 C 0.4879(11) 0.3363(10) 0.3651(11) 0.0231 Uani
C2 C 0.4495(14) 0.1894(10) 0.4798(12) 0.0309 Uani
H1 H 0.3735 0.1806 0.5837 0.0370 Uiso
C3 C 0.5152(12) 0.0699(10) 0.4453(11) 0.0267 Uani
H2 H 0.5876 0.0784 0.3403 0.0320 Uiso
C4 C 0.2153(11) 0.4597(10) 0.1647(11) 0.0227 Uani
C5 C 0.0683(11) 0.4597(10) 0.3109(10) 0.0227 Uani
C6 C 0.0733(11) 0.5005(10) 0.4270(11) 0.0215 Uani
H4 H 0.1734 0.5310 0.4157 0.0260 Uiso
C7 C 0.2769(11) 0.8431(10) 0.2793(11) 0.0227 Uani
C8 C 0.1706(12) 0.8908(10) 0.4211(11) 0.0264 Uani
H5 H 0.1880 0.8572 0.5098 0.0320 Uiso
C9 C 0.0532(12) 0.9774(11) 0.4305(12) 0.0282 Uani
H10 H 0.778(17) 0.870(17) 0.094(19) 0.0800 Uiso
H11 H 0.687(17) 0.572(18) 0.370(3) 0.0800 Uiso
H12 H 0.818(10) 0.639(17) 0.247(17) 0.0800 Uiso
H15 H 0.0319 0.5702 0.6780 0.0280 Uiso
O21 O 0.4878(8) 0.2131(7) 0.0536(7) 0.0231 Uani
H19 H 0.5471 0.1441 0.0233 0.0800 Uiso
H20 H 0.4143 0.1970 0.1630 0.0800 Uiso
H21 H 0.28(2) 0.082(12) 0.011(14) 0.0800 Uiso
O7 O 0.5122(8) 0.7869(7) 0.9464(7) 0.0231 Uani
H7 H 0.4529 0.8559 0.9767 0.0800 Uiso
H8 H 0.5857 0.8030 0.8370 0.0800 Uiso
H9 H 0.72(2) 0.918(12) 0.989(14) 0.0800 Uiso
Er6 Er 0.43851(4) 0.38005(3) 0.85506(4) 0.0153 Uani
O17 O 0.8001(8) 0.5945(8) 0.9338(8) 0.0283 Uani
O10 O 0.4141(7) 0.6444(6) 0.7819(7) 0.0198 Uani
O12 O 0.5737(7) 0.5528(7) 0.5904(7) 0.0214 Uani
C10 C 0.5121(11) 0.6637(10) 0.6349(11) 0.0231 Uani
C12 C 0.5505(14) 0.8106(10) 0.5202(12) 0.0309 Uani
H13 H 0.6265 0.8194 0.4163 0.0370 Uiso
C13 C 0.4848(12) 0.9301(10) 0.5547(11) 0.0267 Uani
H14 H 0.4124 0.9216 0.6597 0.0320 Uiso
O18 O 0.6210(8) 0.2447(7) 0.7086(8) 0.0261 Uani
O20 O 0.7396(8) 0.1094(7) 0.8461(8) 0.0267 Uani
C17 C 0.7231(11) 0.1569(10) 0.7207(11) 0.0227 Uani
C18 C 0.8294(12) 0.1092(10) 0.5789(11) 0.0264 Uani
H17 H 0.8120 0.1428 0.4902 0.0320 Uiso
C19 C 0.9468(12) 0.0226(11) 0.5695(12) 0.0282 Uani
H3 H 0.9681 0.4298 0.3220 0.0280 Uiso
O14 O 0.6504(7) 0.4958(8) 0.8577(8) 0.0276 Uani
O22 O 0.2851(9) 0.1510(7) 0.9381(9) 0.0319 Uani
O23 O 0.2707(8) 0.4039(9) 0.7284(8) 0.0289 Uani
C14 C 0.7847(11) 0.5403(10) 0.8353(11) 0.0227 Uani
C15 C 0.9317(11) 0.5403(10) 0.6891(10) 0.0227 Uani
C16 C 0.9267(11) 0.4995(10) 0.5730(11) 0.0215 Uani
H16 H 0.8266 0.4690 0.5843 0.0260 Uiso
H18 H 0.9626 0.9877 0.6590 0.0340 Uiso
H22 H 0.222(17) 0.130(17) 0.906(19) 0.0800 Uiso
H23 H 0.313(17) 0.428(18) 0.630(3) 0.0800 Uiso
H24 H 0.182(10) 0.361(17) 0.753(17) 0.0800 Uiso
loop_
_atom_site_aniso_label
_atom_site_aniso_U_11
_atom_site_aniso_U_22
_atom_site_aniso_U_33
_atom_site_aniso_U_23
_atom_site_aniso_U_13
_atom_site_aniso_U_12
Er1 0.0151 0.0159 0.0159 -0.00557 -0.00733 0.0027
O1 0.025 0.015 0.012 0 -0.004 -0.002
O2 0.026 0.018 0.021 -0.008 -0.01 0.002
O3 0.012 0.044 0.023 -0.008 -0.005 -0.004
O4 0.03 0.038 0.019 -0.015 -0.009 0.004
O5 0.025 0.03 0.033 -0.019 -0.017 0.018
O6 0.03 0.026 0.027 -0.011 -0.014 0.008
O8 0.038 0.02 0.04 0.002 -0.025 -0.004
O9 0.027 0.046 0.026 -0.015 -0.02 0.005
C1 0.026 0.027 0.027 -0.012 -0.019 0.006
C2 0.052 0.017 0.024 -0.003 -0.019 0.003
C3 0.036 0.02 0.024 -0.005 -0.014 -0.001
C4 0.023 0.026 0.025 -0.013 -0.013 0.006
C5 0.016 0.028 0.017 -0.006 -0.001 -0.007
C6 0.016 0.024 0.023 -0.009 -0.006 0
C7 0.025 0.022 0.025 -0.011 -0.012 -0.001
C8 0.028 0.025 0.024 -0.007 -0.01 0.005
C9 0.03 0.027 0.026 -0.009 -0.011 0.01
O21 0.027 0.025 0.018 -0.006 -0.011 0.003
O7 0.027 0.025 0.018 -0.006 -0.011 0.003
Er6 0.0151 0.0159 0.0159 -0.00557 -0.00733 0.0027
O17 0.03 0.038 0.019 -0.015 -0.009 0.004
O10 0.025 0.015 0.012 0 -0.004 -0.002
O12 0.026 0.018 0.021 -0.008 -0.01 0.002
C10 0.026 0.027 0.027 -0.012 -0.019 0.006
C12 0.052 0.017 0.024 -0.003 -0.019 0.003
C13 0.036 0.02 0.024 -0.005 -0.014 -0.001
O18 0.025 0.03 0.033 -0.019 -0.017 0.018
O20 0.03 0.026 0.027 -0.011 -0.014 0.008
C17 0.025 0.022 0.025 -0.011 -0.012 -0.001
C18 0.028 0.025 0.024 -0.007 -0.01 0.005
C19 0.03 0.027 0.026 -0.009 -0.011 0.01
O14 0.012 0.044 0.023 -0.008 -0.005 -0.004
O22 0.038 0.02 0.04 0.002 -0.025 -0.004
O23 0.027 0.046 0.026 -0.015 -0.02 0.005
C14 0.023 0.026 0.025 -0.013 -0.013 0.006
C15 0.016 0.028 0.017 -0.006 -0.001 -0.007
C16 0.016 0.024 0.023 -0.009 -0.006 0
loop_
_geom_bond_atom_site_label_1
_geom_bond_atom_site_label_2
_geom_bond_site_symmetry_1
_geom_bond_site_symmetry_2
Er1 O1 1_555 1_555
O1 C1 1_555 1_555
O2 Er1 1_555 1_555
O3 Er1 1_555 1_555
O4 C4 1_555 1_555
O5 Er1 1_555 1_555
O6 C7 1_555 1_555
O8 Er1 1_555 1_555
O9 Er1 1_555 1_555
C1 O2 1_555 1_555
C2 C1 1_555 1_555
H1 C2 1_555 1_555
C3 C2 1_555 1_555
H2 C3 1_555 1_555
C4 O3 1_555 1_555
C5 C4 1_555 1_555
C6 C5 1_555 1_555
H4 C6 1_555 1_555
C7 O5 1_555 1_555
C8 C7 1_555 1_555
H5 C8 1_555 1_555
C9 C8 1_555 1_555
H10 O8 1_555 1_555
H11 O9 1_555 1_555
H12 O9 1_555 1_555
H19 O21 1_555 1_555
H20 O21 1_555 1_555
H7 O7 1_555 1_555
H8 O7 1_555 1_555
Er6 O10 1_555 1_555
O10 C10 1_555 1_555
O12 Er6 1_555 1_555
C10 O12 1_555 1_555
C12 C10 1_555 1_555
H13 C12 1_555 1_555
H14 C13 1_555 1_555
C12 C13 1_555 1_555
Er6 O18 1_555 1_555
O18 C17 1_555 1_555
O20 C17 1_555 1_555
C17 C18 1_555 1_555
C18 H17 1_555 1_555
C18 C19 1_555 1_555
O14 Er6 1_555 1_555
O17 C14 1_555 1_555
O22 Er6 1_555 1_555
O23 Er6 1_555 1_555
C14 O14 1_555 1_555
C15 C14 1_555 1_555
H16 C16 1_555 1_555
H22 O22 1_555 1_555
H23 O23 1_555 1_555
H24 O23 1_555 1_555
C15 C16 1_555 1_555

#END
