
###############################################################################
#
# This file contains modified crystal structure data generated from the
# MOF subset of the Cambridge Structural Database (CSD) v543 
# hosted by the Cambridge Crystallographic Data Centre (CCDC).
#
# This work is licensed under the Creative Commons
# Attribution-NonCommercial-ShareAlike 4.0 International License.
# To view a copy of this license, visit
# http://creativecommons.org/licenses/by-nc-sa/4.0/
# or send a letter to
# Creative Commons, PO Box 1866, Mountain View, CA 94042, USA.
#
# CIF created using the CSD Python API on 29 September 2022
# The structure has been converted into the P1 space group
# The structure has a 3D framework
# The original CSD entry TEQPAI is in the orthorhombic crystal system
# The framework has been calculated to contain at least 10.0% void space
# The void calculation uses a probe of radius 1.32A, grid spacing 0.4
# H atom positions have been added when not included in the experimental data
#
###############################################################################

data_TEQPAI
_chemical_formula_moiety         '(C156 H156 N12 O62 S24 Zn16)n'
_symmetry_cell_setting           triclinic
_symmetry_space_group_name_H-M   'P 1'
_symmetry_Int_Tables_number      1
_space_group_name_Hall           'P 1'
loop_
_symmetry_equiv_pos_site_id
_symmetry_equiv_pos_as_xyz
1 x,y,z
_cell_length_a                   18.115(3)
_cell_length_b                   14.489(5)
_cell_length_c                   22.113(4)
_cell_angle_alpha                90
_cell_angle_beta                 90
_cell_angle_gamma                90
_cell_volume                     5803.96
loop_
_atom_site_label
_atom_site_type_symbol
_atom_site_fract_x
_atom_site_fract_y
_atom_site_fract_z
C36 C 0.0079(8) 0.8014(12) 0.2701(8)
C37 C 0.0678(9) 0.6922(10) 0.1910(7)
C38 C 0.0575(12) 0.2853(17) 0.2927(12)
N3 N 0.0064(7) 0.7122(8) 0.2348(7)
H19 H 0.0454964 0.688099 0.145347
H20 H 0.108669 0.747219 0.193187
H21 H 0.0937203 0.626792 0.202732
H26 H 0.00627972 0.786267 0.31832
H27 H 0.0582975 0.839076 0.259547
H32 H 0.011535 0.411459 0.280011
H33 H 0.0327643 0.303367 0.335996
H34 H 0.0840992 0.218117 0.296262
H35 H 0.098386 0.337116 0.280421
H36 H 0.00834556 0.233948 0.160852
H37 H 0.0168568 0.151192 0.219831
O10 O 0.1506(5) 0.6174(7) 0.8636(5)
O11 O 0.1326(5) 0.4771(6) 0.8193(5)
S6 S 0.0112(3) 0.4135(3) 0.8895(2)
C24 C 0.1136(9) 0.5340(15) 0.8562(8)
C25 C 0.0506(7) 0.5197(9) 0.8977(6)
C26 C 0.0174(8) 0.5757(10) 0.9416(7)
C29 C 0.0371(9) 0.6774(9) 0.9576(7)
H16 H 0.0746 0.6993 0.9305
H17 H 0.0551 0.6803 0.9984
Zn8 Zn 0.23710(9) 0.64066(10) 0.81581(8)
Zn10 Zn 0.15543(8) 0.49512(11) 0.72543(8)
O8 O 0.8006(6) 0.2235(6) 0.2253(6)
O9 O 0.7495(6) 0.2265(5) 0.3162(5)
S5 S 0.7221(3) 0.0366(3) 0.3354(2)
C18 C 0.7772(11) 0.1859(10) 0.2692(8)
C19 C 0.7700(7) 0.0866(10) 0.2744(7)
C20 C 0.7959(8) 0.0196(9) 0.2341(8)
C23 C 0.8329(8) 0.0358(9) 0.1794(9)
H14 H 0.8773 0.0700 0.1871
H15 H 0.8015 0.0705 0.1528
Zn6 Zn 0.74717(9) 0.34432(11) 0.17082(9)
Zn7 Zn 0.76290(9) 0.35934(10) 0.31581(8)
Zn1 Zn 0.67001(7) 0.50783(11) 0.24932(8)
Zn4 Zn 0.84457(8) 0.50488(11) 0.22543(8)
O1 O 0.7525(5) 0.4245(4) 0.2422(5)
O2 O 0.7888(4) 0.6302(5) 0.2227(4)
O3 O 0.6898(5) 0.6309(6) 0.2852(4)
O4 O 0.6097(5) 0.5284(7) 0.1783(5)
O5 O 0.6635(6) 0.4235(8) 0.1211(5)
O6 O 0.8108(5) 0.3603(7) 0.1015(5)
O7 O 0.8274(5) 0.5053(6) 0.1332(4)
O14 O 0.6801(6) 0.2313(8) 0.1571(6)
O15 O 0.9207(6) 0.3855(7) 0.2225(5)
O16 O 0.9411(5) 0.5812(6) 0.2130(5)
S1 S 0.7061(2) 0.8203(3) 0.3285(2)
S2 S 0.4990(2) 0.5811(3) 0.0918(2)
C1 C 0.7457(7) 0.6688(8) 0.2570(6)
C2 C 0.7525(7) 0.7726(8) 0.2661(5)
C3 C 0.7916(7) 0.8381(10) 0.2288(7)
C4 C 0.8306(7) 0.8163(9) 0.1749(7)
H1 H 0.8484 0.8721 0.1566
H2 H 0.7981 0.7852 0.1473
H3 H 0.8716 0.7769 0.1844
C5 C 0.6222(8) 0.4870(11) 0.1306(7)
C6 C 0.5784(6) 0.5174(9) 0.0772(7)
C7 C 0.5860(8) 0.4956(10) 0.0154(6)
C9 C 0.4769(8) 0.5808(10) 0.0152(7)
H4 H 0.6788 0.4187 0.0208
C14 C 0.8354(9) 0.4421(10) 0.0941(7)
C15 C 0.8796(7) 0.4646(9) 0.0383(6)
C16 C 0.9184(7) 0.5415(9) 0.0254(6)
C17 C 0.9221(8) 0.6315(9) 0.0564(6)
H10 H 0.9546 0.6719 0.0346
H11 H 0.9406 0.6229 0.0967
H12 H 0.8737 0.6582 0.0582
C21 C 0.7777(8) 0.9280(9) 0.2532(9)
C22 C 0.7371(9) 0.9303(8) 0.3031(7)
H13 H 0.8451 0.9779 0.1608
C31 C 0.6493(11) 0.2152(16) 0.1087(11)
C32 C 0.6130(13) 0.0694(17) 0.1417(12)
C33 C 0.9807(16) 0.363(2) 0.2521(14)
C34 C 0.9877(13) 0.2129(18) 0.2050(12)
C35 C 0.9476(6) 0.6556(9) 0.2420(6)
C39 C 0.5824(14) 0.1116(18) 0.0364(13)
N1 N 0.6196(9) 0.1319(13) 0.1005(8)
N2 N 0.9989(10) 0.2816(14) 0.2453(12)
O19 O 0.8494(5) 0.3826(7) 0.3636(5)
O20 O 0.8674(5) 0.5229(6) 0.3193(5)
O21 O 0.5971(5) 0.4618(6) 0.3102(4)
O22 O 0.6777(5) 0.3902(7) 0.3722(5)
H22 H 0.646343 0.267561 0.0734532
H23 H 0.623604 0.118931 0.000863173
H24 H 0.560541 0.041588 0.0359396
H25 H 0.537686 0.160437 0.0286817
H28 H 0.960204 0.843183 0.257889
H29 H 0.579159 0.0958453 0.178531
H30 H 0.586869 0.00843421 0.122431
H31 H 0.667401 0.051163 0.158916
H38 H 0.928872 0.198197 0.20184
H39 H 0.904512 0.675011 0.273899
O12 O 0.4029(5) 0.5382(6) 0.8102(4)
O13 O 0.3223(5) 0.6098(7) 0.8722(5)
S3 S 0.3994(2) 0.6177(3) 0.9789(2)
S4 S 0.8918(2) 0.3715(3) 0.9877(2)
C8 C 0.5270(7) 0.5336(8) 0.9798(6)
C10 C 0.5016(8) 0.5341(10) 0.9179(7)
C11 C 0.4357(8) 0.5743(9) 0.9110(6)
C12 C 0.6455(8) 0.4373(10) 0.9893(7)
H5 H 0.6720 0.4720 0.9593
H6 H 0.6241 0.3836 0.9708
C13 C 0.5491(7) 0.4940(9) 0.8674(6)
H7 H 0.5939 0.4696 0.8842
H8 H 0.5609 0.5417 0.8388
H9 H 0.5225 0.4456 0.8473
C27 C 0.9623(8) 0.5242(10) 0.9722(7)
C28 C 0.9535(8) 0.4378(9) 0.9468(7)
H18 H 0.9939 0.7152 0.9539
C30 C 0.3837(9) 0.5733(10) 0.8639(8)
Zn5 Zn 0.32999(7) 0.49217(11) 0.74932(8)
Zn2 Zn 0.25283(9) 0.65568(11) 0.67082(9)
O1_2 O 0.2475(5) 0.5755(4) 0.7422(5)
O2_2 O 0.2112(4) 0.3698(5) 0.7227(4)
O3_2 O 0.3102(5) 0.3691(6) 0.7852(4)
O4_2 O 0.3903(5) 0.4716(7) 0.6783(5)
O5_2 O 0.3365(6) 0.5765(8) 0.6211(5)
O6_2 O 0.1892(5) 0.6397(7) 0.6015(5)
O7_2 O 0.1726(5) 0.4947(6) 0.6332(4)
O14_2 O 0.3199(6) 0.7687(8) 0.6571(6)
O15_2 O 0.0793(6) 0.6145(7) 0.7225(5)
O16_2 O 0.0589(5) 0.4188(6) 0.7130(5)
S1_2 S 0.2939(2) 0.1797(3) 0.8285(2)
S2_2 S 0.5010(2) 0.4189(3) 0.5918(2)
S3_2 S 0.6006(2) 0.3823(3) 0.4789(2)
S4_2 S 0.1082(2) 0.6285(3) 0.4877(2)
C1_2 C 0.2543(7) 0.3312(8) 0.7570(6)
C2_2 C 0.2475(7) 0.2274(8) 0.7661(5)
C3_2 C 0.2084(7) 0.1619(10) 0.7288(7)
C4_2 C 0.1694(7) 0.1837(9) 0.6749(7)
H1_2 H 0.1516 0.1279 0.6566
H2_2 H 0.2019 0.2148 0.6473
H3_2 H 0.1284 0.2231 0.6844
C5_2 C 0.3778(8) 0.5130(11) 0.6306(7)
C6_2 C 0.4216(6) 0.4826(9) 0.5772(7)
C7_2 C 0.4140(8) 0.5044(10) 0.5154(6)
C8_2 C 0.4730(7) 0.4664(8) 0.4798(6)
C9_2 C 0.5231(8) 0.4192(10) 0.5152(7)
C10_2 C 0.4984(8) 0.4659(10) 0.4179(7)
C11_2 C 0.5643(8) 0.4257(9) 0.4110(6)
C12_2 C 0.3545(8) 0.5627(10) 0.4893(7)
H4_2 H 0.3212 0.5813 0.5208
H5_2 H 0.3280 0.5280 0.4593
H6_2 H 0.3759 0.6164 0.4708
C13_2 C 0.4509(7) 0.5060(9) 0.3674(6)
H7_2 H 0.4061 0.5304 0.3842
H8_2 H 0.4391 0.4583 0.3388
H9_2 H 0.4775 0.5544 0.3473
C14_2 C 0.1646(9) 0.5579(10) 0.5941(7)
C15_2 C 0.1204(7) 0.5354(9) 0.5383(6)
C16_2 C 0.0816(7) 0.4585(9) 0.5254(6)
C17_2 C 0.0779(8) 0.3685(9) 0.5564(6)
H10_2 H 0.0454 0.3281 0.5346
H11_2 H 0.0594 0.3771 0.5967
H12_2 H 0.1263 0.3418 0.5582
C21_2 C 0.2223(8) 0.0720(9) 0.7532(9)
C22_2 C 0.2629(9) 0.0697(8) 0.8031(7)
H13_2 H 0.1549 0.0221 0.6608
C27_2 C 0.0377(8) 0.4758(10) 0.4722(7)
C28_2 C 0.0465(8) 0.5622(9) 0.4468(7)
H18_2 H 0.0061 0.2848 0.4539
C30_2 C 0.6163(9) 0.4267(10) 0.3639(8)
C31_2 C 0.3507(11) 0.7848(16) 0.6087(11)
C32_2 C 0.3870(13) 0.9306(17) 0.6417(12)
C33_2 C 0.0193(16) 0.637(2) 0.7521(14)
C34_2 C 0.0123(13) 0.7871(18) 0.7050(12)
C35_2 C 0.0524(6) 0.3444(9) 0.7420(6)
C39_2 C 0.4176(14) 0.8884(18) 0.5364(13)
N1_2 N 0.3804(9) 0.8681(13) 0.6005(8)
N2_2 N 0.0011(10) 0.7184(14) 0.7453(12)
O17 O 0.1994(6) 0.7765(6) 0.7253(6)
O18 O 0.2505(6) 0.7735(5) 0.8162(5)
H22_2 H 0.353657 0.732439 0.573453
H23_2 H 0.376396 0.881069 0.500863
H24_2 H 0.439459 0.958412 0.53594
H25_2 H 0.462314 0.839563 0.528682
H28_2 H 0.0397955 0.156817 0.757889
H29_2 H 0.420841 0.904155 0.678531
H30_2 H 0.413131 0.991566 0.622431
H31_2 H 0.332599 0.948837 0.658916
H38_2 H 0.0711281 0.801803 0.70184
H39_2 H 0.0954882 0.324989 0.773899
S5_2 S 0.2779(3) 0.9634(3) 0.8354(2)
C18_2 C 0.2228(11) 0.8141(10) 0.7692(8)
C19_2 C 0.2300(7) 0.9134(10) 0.7744(7)
C20_2 C 0.2041(8) 0.9804(9) 0.7341(8)
C23_2 C 0.1671(8) 0.9642(9) 0.6794(9)
H14_2 H 0.1227 0.9300 0.6871
H15_2 H 0.1985 0.9295 0.6528
S6_2 S 0.9888(3) 0.5865(3) 0.3895(2)
C24_2 C 0.8864(9) 0.4660(15) 0.3562(8)
C25_2 C 0.9494(7) 0.4803(9) 0.3977(6)
C26_2 C 0.9826(8) 0.4243(10) 0.4416(7)
C29_2 C 0.9629(9) 0.3226(9) 0.4576(7)
H16_2 H 0.9254 0.3007 0.4305
H17_2 H 0.9449 0.3197 0.4984
C36_2 C 0.9921(8) 0.1986(12) 0.7701(8)
C37_2 C 0.9322(9) 0.3078(10) 0.6910(7)
C38_2 C 0.9425(12) 0.7147(17) 0.7927(12)
N3_2 N 0.9936(7) 0.2878(8) 0.7348(7)
H19_2 H 0.954504 0.311901 0.645347
H20_2 H 0.891331 0.252781 0.693187
H21_2 H 0.90628 0.373208 0.702732
H26_2 H 0.99372 0.213733 0.81832
H27_2 H 0.941702 0.160924 0.759547
H32_2 H 0.988465 0.588541 0.780011
H33_2 H 0.967236 0.696633 0.835996
H34_2 H 0.915901 0.781883 0.796262
H35_2 H 0.901614 0.662884 0.780421
H36_2 H 0.991654 0.766052 0.660852
H37_2 H 0.983143 0.848808 0.719831
O12_2 O 0.0971(5) 0.0382(6) 0.3102(4)
O13_2 O 0.1777(5) 0.1098(7) 0.3722(5)
S2_3 S 0.0010(2) 0.0811(3) 0.5918(2)
S3_3 S 0.1006(2) 0.1177(3) 0.4789(2)
C9_3 C 0.0231(8) 0.0808(10) 0.5152(7)
C11_3 C 0.0643(8) 0.0743(9) 0.4110(6)
C30_3 C 0.1163(9) 0.0733(10) 0.3639(8)
Zn9 Zn 0.26290(9) 0.14066(10) 0.31581(8)
Zn5_2 Zn 0.17001(7) 0.99217(11) 0.24932(8)
Zn1_2 Zn 0.82999(7) 0.00783(11) 0.74932(8)
Zn4_2 Zn 0.65543(8) 0.00488(11) 0.72543(8)
O2_3 O 0.7112(4) 0.1302(5) 0.7227(4)
O3_3 O 0.8102(5) 0.1309(6) 0.7852(4)
O4_3 O 0.8903(5) 0.0284(7) 0.6783(5)
O7_3 O 0.6726(5) 0.0053(6) 0.6332(4)
O8_2 O 0.6994(6) 0.7235(6) 0.7253(6)
O9_2 O 0.7505(6) 0.7265(5) 0.8162(5)
O10_2 O 0.3494(5) 0.1174(7) 0.3636(5)
O16_3 O 0.5589(5) 0.0812(6) 0.7130(5)
S1_3 S 0.7939(2) 0.3203(3) 0.8285(2)
S5_3 S 0.7779(3) 0.5366(3) 0.8354(2)
C1_3 C 0.7543(7) 0.1688(8) 0.7570(6)
C2_3 C 0.7475(7) 0.2726(8) 0.7661(5)
C3_3 C 0.7084(7) 0.3381(10) 0.7288(7)
C4_3 C 0.6694(7) 0.3163(9) 0.6749(7)
H1_3 H 0.6516 0.3721 0.6566
H2_3 H 0.7019 0.2852 0.6473
H3_3 H 0.6284 0.2769 0.6844
C6_3 C 0.9216(6) 0.0174(9) 0.5772(7)
C8_3 C 0.9730(7) 0.0336(8) 0.4798(6)
C10_3 C 0.9984(8) 0.0341(10) 0.4179(7)
H8_3 H 0.9391 0.0417 0.3388
C16_3 C 0.5816(7) 0.0415(9) 0.5254(6)
C17_3 C 0.5779(8) 0.1315(9) 0.5564(6)
H10_3 H 0.5454 0.1719 0.5346
H11_3 H 0.5594 0.1229 0.5967
H12_3 H 0.6263 0.1582 0.5582
C18_3 C 0.7228(11) 0.6859(10) 0.7692(8)
C19_3 C 0.7300(7) 0.5866(10) 0.7744(7)
C20_3 C 0.7041(8) 0.5196(9) 0.7341(8)
C21_3 C 0.7223(8) 0.4280(9) 0.7532(9)
C22_3 C 0.7629(9) 0.4303(8) 0.8031(7)
C23_3 C 0.6671(8) 0.5358(9) 0.6794(9)
H13_3 H 0.6549 0.4779 0.6608
H14_3 H 0.6227 0.5700 0.6871
H15_3 H 0.6985 0.5705 0.6528
C24_3 C 0.3864(9) 0.0340(15) 0.3562(8)
C25_3 C 0.4494(7) 0.0197(9) 0.3977(6)
C26_3 C 0.4826(8) 0.0757(10) 0.4416(7)
C27_3 C 0.5377(8) 0.0242(10) 0.4722(7)
C29_3 C 0.4629(9) 0.1774(9) 0.4576(7)
H16_3 H 0.4254 0.1993 0.4305
H17_3 H 0.4449 0.1803 0.4984
H18_3 H 0.5061 0.2152 0.4539
C35_3 C 0.5524(6) 0.1556(9) 0.7420(6)
C36_3 C 0.4921(8) 0.3014(12) 0.7701(8)
C37_3 C 0.4322(9) 0.1922(10) 0.6910(7)
N3_3 N 0.4936(7) 0.2122(8) 0.7348(7)
Zn6_2 Zn 0.75283(9) 0.84432(11) 0.67082(9)
Zn7_2 Zn 0.73710(9) 0.85934(10) 0.81581(8)
O20_2 O 0.6326(5) 0.0229(6) 0.8193(5)
H19_3 H 0.454504 0.188099 0.645347
H20_3 H 0.391331 0.247219 0.693187
H21_3 H 0.40628 0.126792 0.702732
H26_3 H 0.49372 0.286267 0.81832
H27_3 H 0.441702 0.339076 0.759547
H28_3 H 0.539796 0.343183 0.757889
H39_3 H 0.595488 0.175011 0.773899
O1_3 O 0.7475(5) 0.9245(4) 0.7422(5)
O5_3 O 0.8365(6) 0.9235(8) 0.6211(5)
O6_3 O 0.6892(5) 0.8603(7) 0.6015(5)
O11_2 O 0.3674(5) 0.9771(6) 0.3193(5)
O14_3 O 0.8199(6) 0.7313(8) 0.6571(6)
O15_3 O 0.5793(6) 0.8855(7) 0.7225(5)
S4_3 S 0.6082(2) 0.8715(3) 0.4877(2)
S6_3 S 0.4888(3) 0.9135(3) 0.3895(2)
C5_3 C 0.8778(8) 0.9870(11) 0.6306(7)
C7_3 C 0.9140(8) 0.9956(10) 0.5154(6)
C12_3 C 0.8545(8) 0.9373(10) 0.4893(7)
H4_3 H 0.8212 0.9187 0.5208
H5_3 H 0.8280 0.9720 0.4593
H6_3 H 0.8759 0.8836 0.4708
C13_3 C 0.9509(7) 0.9940(9) 0.3674(6)
H7_3 H 0.9061 0.9696 0.3842
H9_3 H 0.9775 0.9456 0.3473
C14_3 C 0.6646(9) 0.9421(10) 0.5941(7)
C15_3 C 0.6204(7) 0.9646(9) 0.5383(6)
C28_3 C 0.5465(8) 0.9378(9) 0.4468(7)
C31_3 C 0.8507(11) 0.7152(16) 0.6087(11)
C32_3 C 0.8870(13) 0.5694(17) 0.6417(12)
C33_3 C 0.5193(16) 0.863(2) 0.7521(14)
C34_3 C 0.5123(13) 0.7129(18) 0.7050(12)
C38_3 C 0.4425(12) 0.7853(17) 0.7927(12)
C39_3 C 0.9176(14) 0.6116(18) 0.5364(13)
N1_3 N 0.8804(9) 0.6319(13) 0.6005(8)
N2_3 N 0.5011(10) 0.7816(14) 0.7453(12)
Zn10_2 Zn 0.34457(8) 0.99512(11) 0.22543(8)
O19_2 O 0.6506(5) 0.8826(7) 0.8636(5)
O21_2 O 0.9029(5) 0.9618(6) 0.8102(4)
O22_2 O 0.8223(5) 0.8902(7) 0.8722(5)
H22_3 H 0.853657 0.767561 0.573453
H23_3 H 0.876396 0.618931 0.500863
H24_3 H 0.939459 0.541588 0.53594
H25_3 H 0.962314 0.660437 0.528682
H29_3 H 0.920841 0.595845 0.678531
H30_3 H 0.913131 0.508434 0.622431
H31_3 H 0.832599 0.551163 0.658916
H32_3 H 0.488465 0.911459 0.780011
H33_3 H 0.467236 0.803367 0.835996
H34_3 H 0.415901 0.718117 0.796262
H35_3 H 0.401614 0.837116 0.780421
H36_3 H 0.491654 0.733948 0.660852
H37_3 H 0.483143 0.651192 0.719831
H38_3 H 0.571128 0.698197 0.70184
Zn2_2 Zn 0.24717(9) 0.15568(11) 0.17082(9)
O1_4 O 0.2525(5) 0.0755(4) 0.2422(5)
O5_4 O 0.1635(6) 0.0765(8) 0.1211(5)
O6_4 O 0.3108(5) 0.1397(7) 0.1015(5)
O14_4 O 0.1801(6) 0.2687(8) 0.1571(6)
O15_4 O 0.4207(6) 0.1145(7) 0.2225(5)
C5_4 C 0.1222(8) 0.0130(11) 0.1306(7)
C7_4 C 0.0860(8) 0.0044(10) 0.0154(6)
H4_4 H 0.1788 0.0813 0.0208
C14_4 C 0.3354(9) 0.0579(10) 0.0941(7)
C15_4 C 0.3796(7) 0.0354(9) 0.0383(6)
C31_4 C 0.1493(11) 0.2848(16) 0.1087(11)
C32_4 C 0.1130(13) 0.4306(17) 0.1417(12)
C33_4 C 0.4807(16) 0.137(2) 0.2521(14)
C34_4 C 0.4877(13) 0.2871(18) 0.2050(12)
C38_4 C 0.5575(12) 0.2147(17) 0.2927(12)
C39_4 C 0.0824(14) 0.3884(18) 0.0364(13)
N1_4 N 0.1196(9) 0.3681(13) 0.1005(8)
N2_4 N 0.4989(10) 0.2184(14) 0.2453(12)
O17_2 O 0.3006(6) 0.2765(6) 0.2253(6)
O18_2 O 0.2495(6) 0.2735(5) 0.3162(5)
H22_4 H 0.146343 0.232439 0.0734532
H23_4 H 0.123604 0.381069 0.000863173
H24_4 H 0.0605407 0.458412 0.0359396
H25_4 H 0.0376857 0.339563 0.0286817
H29_4 H 0.0791592 0.404155 0.178531
H30_4 H 0.0868686 0.491566 0.122431
H31_4 H 0.167401 0.448837 0.158916
H32_4 H 0.511535 0.0885412 0.280011
H33_4 H 0.532764 0.196633 0.335996
H34_4 H 0.584099 0.281883 0.296262
H35_4 H 0.598386 0.162884 0.280421
H36_4 H 0.508346 0.266052 0.160852
H37_4 H 0.516857 0.348808 0.219831
H38_4 H 0.428872 0.301803 0.20184
S4_4 S 0.3918(2) 0.1285(3) 0.9877(2)
S6_4 S 0.5112(3) 0.0865(3) 0.8895(2)
C12_4 C 0.1455(8) 0.0627(10) 0.9893(7)
H5_4 H 0.1720 0.0280 0.9593
H6_4 H 0.1241 0.1164 0.9708
C13_4 C 0.0491(7) 0.0060(9) 0.8674(6)
H7_4 H 0.0939 0.0304 0.8842
H9_4 H 0.0225 0.0544 0.8473
C28_4 C 0.4535(8) 0.0622(9) 0.9468(7)
O2_4 O 0.2888(4) 0.8698(5) 0.2227(4)
O3_4 O 0.1898(5) 0.8691(6) 0.2852(4)
O4_4 O 0.1097(5) 0.9716(7) 0.1783(5)
O7_4 O 0.3274(5) 0.9947(6) 0.1332(4)
O16_4 O 0.4411(5) 0.9188(6) 0.2130(5)
S1_4 S 0.2061(2) 0.6797(3) 0.3285(2)
S5_4 S 0.2221(3) 0.4634(3) 0.3354(2)
C1_4 C 0.2457(7) 0.8312(8) 0.2570(6)
C2_4 C 0.2525(7) 0.7274(8) 0.2661(5)
C3_4 C 0.2916(7) 0.6619(10) 0.2288(7)
C4_4 C 0.3306(7) 0.6837(9) 0.1749(7)
H1_4 H 0.3484 0.6279 0.1566
H2_4 H 0.2981 0.7148 0.1473
H3_4 H 0.3716 0.7231 0.1844
C6_4 C 0.0784(6) 0.9826(9) 0.0772(7)
C16_4 C 0.4184(7) 0.9585(9) 0.0254(6)
C17_4 C 0.4221(8) 0.8685(9) 0.0564(6)
H10_4 H 0.4546 0.8281 0.0346
H11_4 H 0.4406 0.8771 0.0967
H12_4 H 0.3737 0.8418 0.0582
C18_4 C 0.2772(11) 0.3141(10) 0.2692(8)
C19_4 C 0.2700(7) 0.4134(10) 0.2744(7)
C20_4 C 0.2959(8) 0.4804(9) 0.2341(8)
C21_4 C 0.2777(8) 0.5720(9) 0.2532(9)
C22_4 C 0.2371(9) 0.5697(8) 0.3031(7)
C23_4 C 0.3329(8) 0.4642(9) 0.1794(9)
H13_4 H 0.3451 0.5221 0.1608
H14_4 H 0.3773 0.4300 0.1871
H15_4 H 0.3015 0.4295 0.1528
C35_4 C 0.4476(6) 0.8444(9) 0.2420(6)
C36_4 C 0.5079(8) 0.6986(12) 0.2701(8)
C37_4 C 0.5678(9) 0.8078(10) 0.1910(7)
N3_4 N 0.5064(7) 0.7878(8) 0.2348(7)
H19_4 H 0.545496 0.811901 0.145347
H20_4 H 0.608669 0.752781 0.193187
H21_4 H 0.59372 0.873208 0.202732
H26_4 H 0.50628 0.713733 0.31832
H27_4 H 0.558298 0.660924 0.259547
H28_4 H 0.460204 0.656817 0.257889
H39_4 H 0.404512 0.824989 0.273899
C8_4 C 0.0270(7) 0.9664(8) 0.9798(6)
C10_4 C 0.0016(8) 0.9659(10) 0.9179(7)
H8_4 H 0.0609 0.9583 0.8388
C24_4 C 0.6136(9) 0.9660(15) 0.8562(8)
C25_4 C 0.5506(7) 0.9803(9) 0.8977(6)
C26_4 C 0.5174(8) 0.9243(10) 0.9416(7)
C27_4 C 0.4623(8) 0.9758(10) 0.9722(7)
C29_4 C 0.5371(9) 0.8226(9) 0.9576(7)
H16_4 H 0.5746 0.8007 0.9305
H17_4 H 0.5551 0.8197 0.9984
H18_4 H 0.4939 0.7848 0.9539
S3_4 S 0.8994(2) 0.8823(3) 0.9789(2)
C11_4 C 0.9357(8) 0.9257(9) 0.9110(6)
C30_4 C 0.8837(9) 0.9267(10) 0.8639(8)
S2_4 S 0.9990(2) 0.9189(3) 0.0918(2)
C9_4 C 0.9769(8) 0.9192(10) 0.0152(7)
loop_
_geom_bond_atom_site_label_1
_geom_bond_atom_site_label_2
_geom_bond_site_symmetry_1
_geom_bond_site_symmetry_2
C36 N3 1_555 1_555
C37 N3 1_555 1_555
C37 H19 1_555 1_555
C37 H20 1_555 1_555
C37 H21 1_555 1_555
C36 H26 1_555 1_555
C36 H27 1_555 1_555
C38 H33 1_555 1_555
C38 H34 1_555 1_555
C38 H35 1_555 1_555
O10 C24 1_555 1_555
O11 C24 1_555 1_555
S6 C25 1_555 1_555
C24 C25 1_555 1_555
C25 C26 1_555 1_555
C29 C26 1_555 1_555
H16 C29 1_555 1_555
H17 C29 1_555 1_555
Zn8 O10 1_555 1_555
Zn10 O11 1_555 1_555
O8 C18 1_555 1_555
O9 C18 1_555 1_555
S5 C19 1_555 1_555
C18 C19 1_555 1_555
C19 C20 1_555 1_555
C23 C20 1_555 1_555
H14 C23 1_555 1_555
H15 C23 1_555 1_555
Zn6 O8 1_555 1_555
Zn7 O9 1_555 1_555
Zn1 O1 1_555 1_555
Zn6 O1 1_555 1_555
Zn7 O1 1_555 1_555
Zn4 O1 1_555 1_555
O2 Zn4 1_555 1_555
O3 Zn1 1_555 1_555
O4 Zn1 1_555 1_555
O5 Zn6 1_555 1_555
O6 Zn6 1_555 1_555
O7 Zn4 1_555 1_555
O14 Zn6 1_555 1_555
O15 Zn4 1_555 1_555
O16 Zn4 1_555 1_555
S1 C2 1_555 1_555
S2 C6 1_555 1_555
C1 O2 1_555 1_555
C2 C1 1_555 1_555
C3 C2 1_555 1_555
C4 C3 1_555 1_555
H1 C4 1_555 1_555
H2 C4 1_555 1_555
H3 C4 1_555 1_555
C5 O4 1_555 1_555
C6 C5 1_555 1_555
C7 C6 1_555 1_555
C9 S2 1_555 1_555
C14 O6 1_555 1_555
C15 C14 1_555 1_555
C16 C15 1_555 1_555
C17 C16 1_555 1_555
H10 C17 1_555 1_555
H11 C17 1_555 1_555
H12 C17 1_555 1_555
C21 C3 1_555 1_555
C22 S1 1_555 1_555
C31 O14 1_555 1_555
C32 N1 1_555 1_555
C33 O15 1_555 1_555
C34 N2 1_555 1_555
C35 O16 1_555 1_555
C39 N1 1_555 1_555
N1 C31 1_555 1_555
N2 C33 1_555 1_555
O19 Zn7 1_555 1_555
O20 Zn4 1_555 1_555
O21 Zn1 1_555 1_555
O22 Zn7 1_555 1_555
O3 C1 1_555 1_555
O5 C5 1_555 1_555
O7 C14 1_555 1_555
C21 C22 1_555 1_555
C31 H22 1_555 1_555
C39 H23 1_555 1_555
C39 H24 1_555 1_555
C39 H25 1_555 1_555
C32 H29 1_555 1_555
C32 H30 1_555 1_555
C32 H31 1_555 1_555
C34 H38 1_555 1_555
C35 H39 1_555 1_555
O12 C30 1_555 1_555
O13 C30 1_555 1_555
C10 C8 1_555 1_555
C11 S3 1_555 1_555
H5 C12 1_555 1_555
H6 C12 1_555 1_555
C13 C10 1_555 1_555
H7 C13 1_555 1_555
H8 C13 1_555 1_555
H9 C13 1_555 1_555
C28 S4 1_555 1_555
C30 C11 1_555 1_555
Zn5 O12 1_555 1_555
Zn8 O13 1_555 1_555
C10 C11 1_555 1_555
C27 C28 1_555 1_555
Zn5 O1_2 1_555 1_555
Zn2 O1_2 1_555 1_555
Zn8 O1_2 1_555 1_555
Zn10 O1_2 1_555 1_555
O2_2 Zn10 1_555 1_555
O3_2 Zn5 1_555 1_555
O4_2 Zn5 1_555 1_555
O5_2 Zn2 1_555 1_555
O6_2 Zn2 1_555 1_555
O7_2 Zn10 1_555 1_555
O21 C30_2 1_555 1_555
O22 C30_2 1_555 1_555
O14_2 Zn2 1_555 1_555
O15_2 Zn10 1_555 1_555
O16_2 Zn10 1_555 1_555
S1_2 C2_2 1_555 1_555
S2_2 C6_2 1_555 1_555
S3_2 C9_2 1_555 1_555
S4_2 C15_2 1_555 1_555
C1_2 O2_2 1_555 1_555
C2_2 C1_2 1_555 1_555
C3_2 C2_2 1_555 1_555
C4_2 C3_2 1_555 1_555
H1_2 C4_2 1_555 1_555
H2_2 C4_2 1_555 1_555
H3_2 C4_2 1_555 1_555
C5_2 O4_2 1_555 1_555
C6_2 C5_2 1_555 1_555
C7_2 C6_2 1_555 1_555
C8_2 C7_2 1_555 1_555
C9_2 S2_2 1_555 1_555
C10_2 C8_2 1_555 1_555
C11_2 S3_2 1_555 1_555
C12_2 C7_2 1_555 1_555
H4_2 C12_2 1_555 1_555
H5_2 C12_2 1_555 1_555
H6_2 C12_2 1_555 1_555
C13_2 C10_2 1_555 1_555
H7_2 C13_2 1_555 1_555
H8_2 C13_2 1_555 1_555
H9_2 C13_2 1_555 1_555
C14_2 O6_2 1_555 1_555
C15_2 C14_2 1_555 1_555
C16_2 C15_2 1_555 1_555
C17_2 C16_2 1_555 1_555
H10_2 C17_2 1_555 1_555
H11_2 C17_2 1_555 1_555
H12_2 C17_2 1_555 1_555
C21_2 C3_2 1_555 1_555
C22_2 S1_2 1_555 1_555
C27_2 C16_2 1_555 1_555
C28_2 S4_2 1_555 1_555
C30_2 C11_2 1_555 1_555
C31_2 O14_2 1_555 1_555
C32_2 N1_2 1_555 1_555
C33_2 O15_2 1_555 1_555
C34_2 N2_2 1_555 1_555
C35_2 O16_2 1_555 1_555
C39_2 N1_2 1_555 1_555
N1_2 C31_2 1_555 1_555
N2_2 C33_2 1_555 1_555
O17 Zn2 1_555 1_555
O18 Zn8 1_555 1_555
O3_2 C1_2 1_555 1_555
O5_2 C5_2 1_555 1_555
O7_2 C14_2 1_555 1_555
C8_2 C9_2 1_555 1_555
C10_2 C11_2 1_555 1_555
C21_2 C22_2 1_555 1_555
C27_2 C28_2 1_555 1_555
C31_2 H22_2 1_555 1_555
C39_2 H23_2 1_555 1_555
C39_2 H24_2 1_555 1_555
C39_2 H25_2 1_555 1_555
C32_2 H29_2 1_555 1_555
C32_2 H30_2 1_555 1_555
C32_2 H31_2 1_555 1_555
C34_2 H38_2 1_555 1_555
C35_2 H39_2 1_555 1_555
O17 C18_2 1_555 1_555
O18 C18_2 1_555 1_555
S5_2 C19_2 1_555 1_555
C18_2 C19_2 1_555 1_555
C19_2 C20_2 1_555 1_555
C23_2 C20_2 1_555 1_555
H14_2 C23_2 1_555 1_555
H15_2 C23_2 1_555 1_555
O19 C24_2 1_555 1_555
O20 C24_2 1_555 1_555
S6_2 C25_2 1_555 1_555
C24_2 C25_2 1_555 1_555
C25_2 C26_2 1_555 1_555
C29_2 C26_2 1_555 1_555
H16_2 C29_2 1_555 1_555
H17_2 C29_2 1_555 1_555
C36_2 N3_2 1_555 1_555
C37_2 N3_2 1_555 1_555
C37_2 H19_2 1_555 1_555
C37_2 H20_2 1_555 1_555
C37_2 H21_2 1_555 1_555
C36_2 H26_2 1_555 1_555
C36_2 H27_2 1_555 1_555
C38_2 H33_2 1_555 1_555
C38_2 H34_2 1_555 1_555
C38_2 H35_2 1_555 1_555
O12_2 C30_3 1_555 1_555
O13_2 C30_3 1_555 1_555
S3_3 C9_3 1_555 1_555
C9_3 S2_3 1_555 1_555
C11_3 S3_3 1_555 1_555
C30_3 C11_3 1_555 1_555
Zn9 O13_2 1_555 1_555
O2_3 Zn4_2 1_555 1_555
O3_3 Zn1_2 1_555 1_555
O4_3 Zn1_2 1_555 1_555
O7_3 Zn4_2 1_555 1_555
O8_2 C18_3 1_555 1_555
O9_2 C18_3 1_555 1_555
O10_2 C24_3 1_555 1_555
O16_3 Zn4_2 1_555 1_555
S1_3 C2_3 1_555 1_555
S5_3 C19_3 1_555 1_555
C1_3 O2_3 1_555 1_555
C2_3 C1_3 1_555 1_555
C3_3 C2_3 1_555 1_555
C4_3 C3_3 1_555 1_555
H1_3 C4_3 1_555 1_555
H2_3 C4_3 1_555 1_555
H3_3 C4_3 1_555 1_555
C10_3 C8_3 1_555 1_555
C17_3 C16_3 1_555 1_555
H10_3 C17_3 1_555 1_555
H11_3 C17_3 1_555 1_555
H12_3 C17_3 1_555 1_555
C18_3 C19_3 1_555 1_555
C19_3 C20_3 1_555 1_555
C20_3 C21_3 1_555 1_555
C21_3 C3_3 1_555 1_555
C22_3 S1_3 1_555 1_555
C23_3 C20_3 1_555 1_555
H13_3 C23_3 1_555 1_555
H14_3 C23_3 1_555 1_555
H15_3 C23_3 1_555 1_555
C24_3 C25_3 1_555 1_555
C25_3 C26_3 1_555 1_555
C26_3 C27_3 1_555 1_555
C27_3 C16_3 1_555 1_555
C29_3 C26_3 1_555 1_555
H16_3 C29_3 1_555 1_555
H17_3 C29_3 1_555 1_555
H18_3 C29_3 1_555 1_555
C35_3 O16_3 1_555 1_555
C36_3 N3_3 1_555 1_555
C37_3 N3_3 1_555 1_555
N3_3 C35_3 1_555 1_555
Zn6_2 O8_2 1_555 1_555
Zn7_2 O9_2 1_555 1_555
Zn9 O10_2 1_555 1_555
O20_2 Zn4_2 1_555 1_555
O3_3 C1_3 1_555 1_555
S5_3 C22_3 1_555 1_555
C21_3 C22_3 1_555 1_555
C37_3 H19_3 1_555 1_555
C37_3 H20_3 1_555 1_555
C37_3 H21_3 1_555 1_555
C36_3 H26_3 1_555 1_555
C36_3 H27_3 1_555 1_555
C36_3 H28_3 1_555 1_555
C35_3 H39_3 1_555 1_555
Zn6_2 O1_3 1_555 1_555
Zn7_2 O1_3 1_555 1_555
O5_3 Zn6_2 1_555 1_555
O6_3 Zn6_2 1_555 1_555
O14_3 Zn6_2 1_555 1_555
S4_3 C15_3 1_555 1_555
C12_3 C7_3 1_555 1_555
H4_3 C12_3 1_555 1_555
H5_3 C12_3 1_555 1_555
H6_3 C12_3 1_555 1_555
H7_3 C13_3 1_555 1_555
H9_3 C13_3 1_555 1_555
C14_3 O6_3 1_555 1_555
C15_3 C14_3 1_555 1_555
C28_3 S4_3 1_555 1_555
C31_3 O14_3 1_555 1_555
C32_3 N1_3 1_555 1_555
C33_3 O15_3 1_555 1_555
C34_3 N2_3 1_555 1_555
C38_3 N2_3 1_555 1_555
C39_3 N1_3 1_555 1_555
N1_3 C31_3 1_555 1_555
N2_3 C33_3 1_555 1_555
Zn10_2 O11_2 1_555 1_555
O19_2 Zn7_2 1_555 1_555
O22_2 Zn7_2 1_555 1_555
O5_3 C5_3 1_555 1_555
S6_3 C28_3 1_555 1_555
C31_3 H22_3 1_555 1_555
C39_3 H23_3 1_555 1_555
C39_3 H24_3 1_555 1_555
C39_3 H25_3 1_555 1_555
C32_3 H29_3 1_555 1_555
C32_3 H30_3 1_555 1_555
C32_3 H31_3 1_555 1_555
C33_3 H32_3 1_555 1_555
C38_3 H33_3 1_555 1_555
C38_3 H34_3 1_555 1_555
C38_3 H35_3 1_555 1_555
C34_3 H36_3 1_555 1_555
C34_3 H37_3 1_555 1_555
C34_3 H38_3 1_555 1_555
Zn2_2 O1_4 1_555 1_555
Zn9 O1_4 1_555 1_555
O5_4 Zn2_2 1_555 1_555
O6_4 Zn2_2 1_555 1_555
O14_4 Zn2_2 1_555 1_555
C14_4 O6_4 1_555 1_555
C15_4 C14_4 1_555 1_555
C31_4 O14_4 1_555 1_555
C32_4 N1_4 1_555 1_555
C33_4 O15_4 1_555 1_555
C34_4 N2_4 1_555 1_555
C38_4 N2_4 1_555 1_555
C39_4 N1_4 1_555 1_555
N1_4 C31_4 1_555 1_555
N2_4 C33_4 1_555 1_555
O17_2 Zn2_2 1_555 1_555
O18_2 Zn9 1_555 1_555
O5_4 C5_4 1_555 1_555
C31_4 H22_4 1_555 1_555
C39_4 H23_4 1_555 1_555
C39_4 H24_4 1_555 1_555
C39_4 H25_4 1_555 1_555
C32_4 H29_4 1_555 1_555
C32_4 H30_4 1_555 1_555
C32_4 H31_4 1_555 1_555
C33_4 H32_4 1_555 1_555
C38_4 H33_4 1_555 1_555
C38_4 H34_4 1_555 1_555
C38_4 H35_4 1_555 1_555
C34_4 H36_4 1_555 1_555
C34_4 H37_4 1_555 1_555
C34_4 H38_4 1_555 1_555
H5_4 C12_4 1_555 1_555
H6_4 C12_4 1_555 1_555
H7_4 C13_4 1_555 1_555
H9_4 C13_4 1_555 1_555
C28_4 S4_4 1_555 1_555
S6_4 C28_4 1_555 1_555
O2_4 Zn10_2 1_555 1_555
O3_4 Zn5_2 1_555 1_555
O4_4 Zn5_2 1_555 1_555
O7_4 Zn10_2 1_555 1_555
O17_2 C18_4 1_555 1_555
O18_2 C18_4 1_555 1_555
O16_4 Zn10_2 1_555 1_555
S1_4 C2_4 1_555 1_555
S5_4 C19_4 1_555 1_555
C1_4 O2_4 1_555 1_555
C2_4 C1_4 1_555 1_555
C3_4 C2_4 1_555 1_555
C4_4 C3_4 1_555 1_555
H1_4 C4_4 1_555 1_555
H2_4 C4_4 1_555 1_555
H3_4 C4_4 1_555 1_555
C17_4 C16_4 1_555 1_555
H10_4 C17_4 1_555 1_555
H11_4 C17_4 1_555 1_555
H12_4 C17_4 1_555 1_555
C18_4 C19_4 1_555 1_555
C19_4 C20_4 1_555 1_555
C20_4 C21_4 1_555 1_555
C21_4 C3_4 1_555 1_555
C22_4 S1_4 1_555 1_555
C23_4 C20_4 1_555 1_555
H13_4 C23_4 1_555 1_555
H14_4 C23_4 1_555 1_555
H15_4 C23_4 1_555 1_555
C35_4 O16_4 1_555 1_555
C36_4 N3_4 1_555 1_555
C37_4 N3_4 1_555 1_555
N3_4 C35_4 1_555 1_555
O3_4 C1_4 1_555 1_555
S5_4 C22_4 1_555 1_555
C21_4 C22_4 1_555 1_555
C37_4 H19_4 1_555 1_555
C37_4 H20_4 1_555 1_555
C37_4 H21_4 1_555 1_555
C36_4 H26_4 1_555 1_555
C36_4 H27_4 1_555 1_555
C36_4 H28_4 1_555 1_555
C35_4 H39_4 1_555 1_555
O19_2 C24_4 1_555 1_555
C10_4 C8_4 1_555 1_555
C24_4 C25_4 1_555 1_555
C25_4 C26_4 1_555 1_555
C26_4 C27_4 1_555 1_555
C29_4 C26_4 1_555 1_555
H16_4 C29_4 1_555 1_555
H17_4 C29_4 1_555 1_555
H18_4 C29_4 1_555 1_555
O21_2 C30_4 1_555 1_555
O22_2 C30_4 1_555 1_555
C11_4 S3_4 1_555 1_555
C30_4 C11_4 1_555 1_555
C9_4 S2_4 1_555 1_555

#END
