
###############################################################################
#
# This file contains modified crystal structure data generated from the
# MOF subset of the Cambridge Structural Database (CSD) v543 
# hosted by the Cambridge Crystallographic Data Centre (CCDC).
#
# This work is licensed under the Creative Commons
# Attribution-NonCommercial-ShareAlike 4.0 International License.
# To view a copy of this license, visit
# http://creativecommons.org/licenses/by-nc-sa/4.0/
# or send a letter to
# Creative Commons, PO Box 1866, Mountain View, CA 94042, USA.
#
# CIF created using the CSD Python API on 29 September 2022
# The structure has been converted into the P1 space group
# The structure has a 3D framework
# The original CSD entry TEQQAI is in the monoclinic crystal system
# The framework has been calculated to contain at least 10.0% void space
# The void calculation uses a probe of radius 1.32A, grid spacing 0.4
#
###############################################################################

data_TEQQAI
_chemical_formula_moiety         '(C56 H24 N8 O40 Pb2 U6)n'
_symmetry_cell_setting           triclinic
_symmetry_space_group_name_H-M   'P 1'
_symmetry_Int_Tables_number      1
_space_group_name_Hall           'P 1'
loop_
_symmetry_equiv_pos_site_id
_symmetry_equiv_pos_as_xyz
1 x,y,z
_cell_length_a                   13.9437(9)
_cell_length_b                   16.0610(9)
_cell_length_c                   8.8145(5)
_cell_angle_alpha                90
_cell_angle_beta                 116.9670(10)
_cell_angle_gamma                90
_cell_volume                     1759.37
loop_
_atom_site_label
_atom_site_type_symbol
_atom_site_fract_x
_atom_site_fract_y
_atom_site_fract_z
U1 U 0.2500 0.2500 -0.0000
Pb1 Pb 0.5000 0.433708(10) 0.2500
O3 O 0.1445(2) 0.30245(15) 0.0207(3)
O6 O 0.1776(2) 0.11248(15) 0.0154(3)
O7 O 0.6776(2) 0.38752(15) 0.5154(3)
O8 O 0.3907(2) 0.31499(15) 0.2600(3)
O9 O 0.6093(2) 0.31499(15) 0.2400(3)
O11 O 0.1327(2) 0.00847(15) 0.1388(3)
O12 O 0.3673(2) 0.50847(15) 0.3612(3)
O13 O 0.6327(2) 0.50847(15) 0.1388(3)
O14 O 0.4810(2) 0.34113(15) 0.5382(3)
N2 N 0.2982(2) 0.18544(17) 0.2997(4)
C8 C 0.2489(3) 0.1157(2) 0.3123(5)
C9 C 0.3723(3) 0.2017(2) 0.6019(5)
H4 H 0.4128 0.2335 0.6982
C10 C 0.2612(3) 0.0841(2) 0.4661(5)
H5 H 0.2289 0.0340 0.4706
C11 C 0.3226(3) 0.1287(2) 0.6137(5)
H6 H 0.3304 0.1100 0.7185
C12 C 0.1804(3) 0.0745(2) 0.1457(5)
C13 C 0.3600(3) 0.2259(2) 0.4442(5)
C14 C 0.4163(3) 0.2999(2) 0.4187(5)
U1_2 U 0.2500 0.2500 1.0000
O1 O 0.3224(2) 0.38752(15) 0.9846(3)
O2 O 0.1093(2) 0.18501(15) 0.7400(3)
O4 O 0.3673(2) 0.49153(15) 0.8612(3)
O5 O 0.0190(2) 0.15887(15) 0.4618(3)
N1 N 0.2018(2) 0.31456(17) 0.7003(4)
C1 C 0.2511(3) 0.3843(2) 0.6877(5)
C2 C 0.1277(3) 0.2983(2) 0.3981(5)
H1 H 0.0872 0.2665 0.3018
C3 C 0.2388(3) 0.4159(2) 0.5339(5)
H2 H 0.2711 0.4660 0.5294
C4 C 0.1774(3) 0.3713(2) 0.3863(5)
H3 H 0.1696 0.3900 0.2815
C5 C 0.3196(3) 0.4255(2) 0.8543(5)
C6 C 0.1400(3) 0.2741(2) 0.5558(5)
C7 C 0.0837(3) 0.2001(2) 0.5813(5)
Pb2 Pb 0.0000 0.066292(10) 0.7500
Pb3 Pb 0.5000 0.566292(10) 0.7500
O10 O 0.3555(2) 0.19755(15) 0.9793(3)
Pb4 Pb 0.0000 0.933708(10) 0.2500
Pb2_2 Pb 1.0000 0.066292(10) 0.7500
Pb4_2 Pb 1.0000 0.933708(10) 0.2500
O7_2 O 0.1776(2) 0.88752(15) 0.5154(3)
O9_2 O 0.1093(2) 0.81499(15) 0.2400(3)
O12_2 O 0.8673(2) 0.00847(15) 0.3612(3)
U1_3 U 0.7500 0.7500 -0.0000
O3_2 O 0.6445(2) 0.80245(15) 0.0207(3)
O6_2 O 0.6776(2) 0.61248(15) 0.0154(3)
O8_2 O 0.8907(2) 0.81499(15) 0.2600(3)
O14_2 O 0.9810(2) 0.84113(15) 0.5382(3)
N2_2 N 0.7982(2) 0.68544(17) 0.2997(4)
C8_2 C 0.7489(3) 0.6157(2) 0.3123(5)
C9_2 C 0.8723(3) 0.7017(2) 0.6019(5)
H4_2 H 0.9128 0.7335 0.6982
C10_2 C 0.7612(3) 0.5841(2) 0.4661(5)
H5_2 H 0.7289 0.5340 0.4706
C11_2 C 0.8226(3) 0.6287(2) 0.6137(5)
H6_2 H 0.8304 0.6100 0.7185
C12_2 C 0.6804(3) 0.5745(2) 0.1457(5)
C13_2 C 0.8600(3) 0.7259(2) 0.4442(5)
C14_2 C 0.9163(3) 0.7999(2) 0.4187(5)
U1_4 U 0.7500 0.7500 1.0000
O1_2 O 0.8224(2) 0.88752(15) 0.9846(3)
O2_2 O 0.6093(2) 0.68501(15) 0.7400(3)
O4_2 O 0.8673(2) 0.99153(15) 0.8612(3)
O5_2 O 0.5190(2) 0.65887(15) 0.4618(3)
N1_2 N 0.7018(2) 0.81456(17) 0.7003(4)
C1_2 C 0.7511(3) 0.8843(2) 0.6877(5)
C2_2 C 0.6277(3) 0.7983(2) 0.3981(5)
H1_2 H 0.5872 0.7665 0.3018
C3_2 C 0.7388(3) 0.9159(2) 0.5339(5)
H2_2 H 0.7711 0.9660 0.5294
C4_2 C 0.6774(3) 0.8713(2) 0.3863(5)
H3_2 H 0.6696 0.8900 0.2815
C5_2 C 0.8196(3) 0.9255(2) 0.8543(5)
C6_2 C 0.6400(3) 0.7741(2) 0.5558(5)
C7_2 C 0.5837(3) 0.7001(2) 0.5813(5)
O10_2 O 0.8555(2) 0.69755(15) 0.9793(3)
U1_5 U 0.7500 0.2500 0.5000
O2_3 O 0.8907(2) 0.18501(15) 0.7600(3)
O3_3 O 0.8555(2) 0.30245(15) 0.4793(3)
O4_3 O 0.6327(2) 0.49153(15) 0.6388(3)
N1_3 N 0.7982(2) 0.31456(17) 0.7997(4)
C1_3 C 0.7489(3) 0.3843(2) 0.8123(5)
C3_3 C 0.7612(3) 0.4159(2) 0.9661(5)
H2_3 H 0.7289 0.4660 0.9706
C5_3 C 0.6804(3) 0.4255(2) 0.6457(5)
C6_3 C 0.8600(3) 0.2741(2) 0.9442(5)
C7_3 C 0.9163(3) 0.2001(2) 0.9187(5)
O6_3 O 0.8224(2) 0.11248(15) 0.4846(3)
O10_3 O 0.6445(2) 0.19755(15) 0.5207(3)
N2_3 N 0.7018(2) 0.18544(17) 0.2003(4)
C8_3 C 0.7511(3) 0.1157(2) 0.1877(5)
C10_3 C 0.7388(3) 0.0841(2) 0.0339(5)
H5_3 H 0.7711 0.0340 0.0294
C12_3 C 0.8196(3) 0.0745(2) 0.3543(5)
C13_3 C 0.6400(3) 0.2259(2) 0.0558(5)
C14_3 C 0.5837(3) 0.2999(2) 0.0813(5)
O14_3 O 0.5190(2) 0.34113(15) 0.9618(3)
C9_3 C 0.6277(3) 0.2017(2) 0.8981(5)
H4_3 H 0.5872 0.2335 0.8018
C11_3 C 0.6774(3) 0.1287(2) 0.8863(5)
H6_3 H 0.6696 0.1100 0.7815
O5_3 O 0.4810(2) 0.65887(15) 0.0382(3)
C2_3 C 0.3723(3) 0.7983(2) 0.1019(5)
H1_3 H 0.4128 0.7665 0.1982
C4_3 C 0.3226(3) 0.8713(2) 0.1137(5)
H3_3 H 0.3304 0.8900 0.2185
U1_6 U 0.2500 0.7500 0.5000
O2_4 O 0.3907(2) 0.68501(15) 0.7600(3)
O3_4 O 0.3555(2) 0.80245(15) 0.4793(3)
O4_4 O 0.1327(2) 0.99153(15) 0.6388(3)
N1_4 N 0.2982(2) 0.81456(17) 0.7997(4)
C1_4 C 0.2489(3) 0.8843(2) 0.8123(5)
C3_4 C 0.2612(3) 0.9159(2) 0.9661(5)
H2_4 H 0.2289 0.9660 0.9706
C5_4 C 0.1804(3) 0.9255(2) 0.6457(5)
C6_4 C 0.3600(3) 0.7741(2) 0.9442(5)
C7_4 C 0.4163(3) 0.7001(2) 0.9187(5)
O6_4 O 0.3224(2) 0.61248(15) 0.4846(3)
O10_4 O 0.1445(2) 0.69755(15) 0.5207(3)
N2_4 N 0.2018(2) 0.68544(17) 0.2003(4)
C8_4 C 0.2511(3) 0.6157(2) 0.1877(5)
C10_4 C 0.2388(3) 0.5841(2) 0.0339(5)
H5_4 H 0.2711 0.5340 0.0294
C12_4 C 0.3196(3) 0.5745(2) 0.3543(5)
C13_4 C 0.1400(3) 0.7259(2) 0.0558(5)
C14_4 C 0.0837(3) 0.7999(2) 0.0813(5)
O5_4 O 0.9810(2) 0.15887(15) 0.0382(3)
C2_4 C 0.8723(3) 0.2983(2) 0.1019(5)
H1_4 H 0.9128 0.2665 0.1982
C4_4 C 0.8226(3) 0.3713(2) 0.1137(5)
H3_4 H 0.8304 0.3900 0.2185
O14_4 O 0.0190(2) 0.84113(15) 0.9618(3)
C9_4 C 0.1277(3) 0.7017(2) 0.8981(5)
H4_4 H 0.0872 0.7335 0.8018
C11_4 C 0.1774(3) 0.6287(2) 0.8863(5)
H6_4 H 0.1696 0.6100 0.7815
loop_
_geom_bond_atom_site_label_1
_geom_bond_atom_site_label_2
_geom_bond_site_symmetry_1
_geom_bond_site_symmetry_2
O3 U1 1_555 1_555
O6 U1 1_555 1_555
O7 Pb1 1_555 1_555
O8 U1 1_555 1_555
O9 Pb1 1_555 1_555
O11 C12 1_555 1_555
O12 Pb1 1_555 1_555
O13 Pb1 1_555 1_555
O14 C14 1_555 1_555
N2 U1 1_555 1_555
C8 N2 1_555 1_555
C9 H4 1_555 1_555
C10 C8 1_555 1_555
H5 C10 1_555 1_555
C11 C9 1_555 1_555
H6 C11 1_555 1_555
C12 O6 1_555 1_555
C13 N2 1_555 1_555
C14 O8 1_555 1_555
Pb1 O8 1_555 1_555
C8 C12 1_555 1_555
C9 C13 1_555 1_555
C10 C11 1_555 1_555
C13 C14 1_555 1_555
U1_2 O1 1_555 1_555
O1 C5 1_555 1_555
O2 U1_2 1_555 1_555
O4 C5 1_555 1_555
O5 C7 1_555 1_555
N1 U1_2 1_555 1_555
C1 N1 1_555 1_555
C2 H1 1_555 1_555
C3 C1 1_555 1_555
H2 C3 1_555 1_555
C4 C2 1_555 1_555
H3 C4 1_555 1_555
C5 C1 1_555 1_555
C6 N1 1_555 1_555
C7 O2 1_555 1_555
Pb2 O2 1_555 1_555
Pb3 O4 1_555 1_555
O10 U1_2 1_555 1_555
C2 C6 1_555 1_555
C3 C4 1_555 1_555
C6 C7 1_555 1_555
O7_2 Pb4 1_555 1_555
O9_2 Pb4 1_555 1_555
O3_2 U1_3 1_555 1_555
O6_2 U1_3 1_555 1_555
O8_2 U1_3 1_555 1_555
O13 C12_2 1_555 1_555
O14_2 C14_2 1_555 1_555
N2_2 U1_3 1_555 1_555
C8_2 N2_2 1_555 1_555
C9_2 H4_2 1_555 1_555
C10_2 C8_2 1_555 1_555
H5_2 C10_2 1_555 1_555
C11_2 C9_2 1_555 1_555
H6_2 C11_2 1_555 1_555
C12_2 O6_2 1_555 1_555
C13_2 N2_2 1_555 1_555
C14_2 O8_2 1_555 1_555
Pb4_2 O8_2 1_555 1_555
C8_2 C12_2 1_555 1_555
C9_2 C13_2 1_555 1_555
C10_2 C11_2 1_555 1_555
C13_2 C14_2 1_555 1_555
U1_4 O1_2 1_555 1_555
O1_2 C5_2 1_555 1_555
O2_2 U1_4 1_555 1_555
O4_2 C5_2 1_555 1_555
O5_2 C7_2 1_555 1_555
N1_2 U1_4 1_555 1_555
C1_2 N1_2 1_555 1_555
C2_2 H1_2 1_555 1_555
C3_2 C1_2 1_555 1_555
H2_2 C3_2 1_555 1_555
C4_2 C2_2 1_555 1_555
H3_2 C4_2 1_555 1_555
C5_2 C1_2 1_555 1_555
C6_2 N1_2 1_555 1_555
C7_2 O2_2 1_555 1_555
Pb3 O2_2 1_555 1_555
O10_2 U1_4 1_555 1_555
C2_2 C6_2 1_555 1_555
C3_2 C4_2 1_555 1_555
C6_2 C7_2 1_555 1_555
U1_5 O7 1_555 1_555
O7 C5_3 1_555 1_555
O2_3 U1_5 1_555 1_555
O3_3 U1_5 1_555 1_555
O4_3 C5_3 1_555 1_555
N1_3 U1_5 1_555 1_555
C1_3 N1_3 1_555 1_555
C3_3 C1_3 1_555 1_555
H2_3 C3_3 1_555 1_555
C5_3 C1_3 1_555 1_555
C6_3 N1_3 1_555 1_555
C7_3 O2_3 1_555 1_555
Pb2_2 O2_3 1_555 1_555
Pb3 O4_3 1_555 1_555
O6_3 U1_5 1_555 1_555
O9 U1_5 1_555 1_555
O10_3 U1_5 1_555 1_555
O12_2 C12_3 1_555 1_555
N2_3 U1_5 1_555 1_555
C8_3 N2_3 1_555 1_555
C10_3 C8_3 1_555 1_555
H5_3 C10_3 1_555 1_555
C12_3 O6_3 1_555 1_555
C13_3 N2_3 1_555 1_555
C14_3 O9 1_555 1_555
C6_3 C7_3 1_555 1_555
Pb2_2 O6_3 1_555 1_555
C8_3 C12_3 1_555 1_555
C13_3 C14_3 1_555 1_555
C9_3 H4_3 1_555 1_555
C11_3 C9_3 1_555 1_555
H6_3 C11_3 1_555 1_555
C2_3 H1_3 1_555 1_555
C4_3 C2_3 1_555 1_555
H3_3 C4_3 1_555 1_555
U1_6 O7_2 1_555 1_555
O7_2 C5_4 1_555 1_555
O2_4 U1_6 1_555 1_555
O3_4 U1_6 1_555 1_555
O4_4 C5_4 1_555 1_555
N1_4 U1_6 1_555 1_555
C1_4 N1_4 1_555 1_555
C3_4 C1_4 1_555 1_555
H2_4 C3_4 1_555 1_555
C5_4 C1_4 1_555 1_555
C6_4 N1_4 1_555 1_555
C7_4 O2_4 1_555 1_555
Pb3 O2_4 1_555 1_555
O6_4 U1_6 1_555 1_555
O9_2 U1_6 1_555 1_555
O10_4 U1_6 1_555 1_555
O12 C12_4 1_555 1_555
N2_4 U1_6 1_555 1_555
C8_4 N2_4 1_555 1_555
C10_4 C8_4 1_555 1_555
H5_4 C10_4 1_555 1_555
C12_4 O6_4 1_555 1_555
C13_4 N2_4 1_555 1_555
C14_4 O9_2 1_555 1_555
C6_4 C7_4 1_555 1_555
Pb3 O6_4 1_555 1_555
C8_4 C12_4 1_555 1_555
C13_4 C14_4 1_555 1_555
C2_4 H1_4 1_555 1_555
C4_4 C2_4 1_555 1_555
H3_4 C4_4 1_555 1_555
C9_4 H4_4 1_555 1_555
C11_4 C9_4 1_555 1_555
H6_4 C11_4 1_555 1_555

#END
