
###############################################################################
#
# This file contains modified crystal structure data generated from the
# MOF subset of the Cambridge Structural Database (CSD) v543 
# hosted by the Cambridge Crystallographic Data Centre (CCDC).
#
# This work is licensed under the Creative Commons
# Attribution-NonCommercial-ShareAlike 4.0 International License.
# To view a copy of this license, visit
# http://creativecommons.org/licenses/by-nc-sa/4.0/
# or send a letter to
# Creative Commons, PO Box 1866, Mountain View, CA 94042, USA.
#
# CIF created using the CSD Python API on 29 September 2022
# The structure has been converted into the P1 space group
# The structure has a 3D framework
# The original CSD entry TEQTEQ is in the monoclinic crystal system
# The framework has been calculated to contain at least 10.0% void space
# The void calculation uses a probe of radius 1.32A, grid spacing 0.4
#
###############################################################################

data_TEQTEQ
_chemical_formula_moiety         '(C80 H56 Mn4 N16 O16 S8)n'
_symmetry_cell_setting           triclinic
_symmetry_space_group_name_H-M   'P 1'
_symmetry_Int_Tables_number      1
_space_group_name_Hall           'P 1'
loop_
_symmetry_equiv_pos_site_id
_symmetry_equiv_pos_as_xyz
1 x,y,z
_cell_length_a                   9.1726(18)
_cell_length_b                   18.956(4)
_cell_length_c                   16.748(3)
_cell_angle_alpha                90
_cell_angle_beta                 102.13(3)
_cell_angle_gamma                90
_cell_volume                     2847.06
loop_
_atom_site_label
_atom_site_type_symbol
_atom_site_fract_x
_atom_site_fract_y
_atom_site_fract_z
Mn1 Mn 0.18163(4) 0.437875(18) 0.02118(2)
S2 S 0.43300(7) 0.24042(4) 0.21005(4)
O3 O 0.26070(19) 0.35509(9) 0.11585(12)
O4 O 0.39831(19) 0.37043(9) 0.02431(11)
N3 N 0.7207(2) 0.02151(10) 0.38687(12)
N4 N 0.6444(2) 0.19204(11) 0.14771(13)
C11 C 0.6185(3) 0.06918(13) 0.39743(14)
H8 H 0.5805 0.0668 0.4447
C12 C 0.5672(3) 0.12161(13) 0.34139(15)
H9 H 0.4959 0.1535 0.3512
C13 C 0.6218(3) 0.12680(12) 0.27039(15)
C14 C 0.7248(3) 0.07591(14) 0.25854(16)
H10 H 0.7626 0.0762 0.2112
C15 C 0.7699(3) 0.02543(13) 0.31712(16)
C16 C 0.5763(3) 0.18246(12) 0.20853(16)
C17 C 0.4657(3) 0.27954(13) 0.12304(15)
C18 C 0.5822(3) 0.24680(13) 0.09885(16)
C19 C 0.3701(3) 0.33940(13) 0.08519(16)
C20 C 0.6435(3) 0.26393(16) 0.02534(17)
H13 H 0.7400 0.2426 0.0306
H14 H 0.6523 0.3142 0.0208
Mn6 Mn 0.18163(4) 0.062125(18) 0.52118(2)
N5 N 0.0698(2) 0.14030(10) 0.42478(12)
N10 N 0.2793(2) 0.52151(10) 0.11313(12)
C21 C 0.1091(3) 0.14808(14) 0.35371(18)
H15 H 0.1769 0.1161 0.3403
C22 C 0.0559(3) 0.20077(15) 0.29806(17)
H16 H 0.0869 0.2036 0.2488
S1 S 0.02007(7) 0.66637(3) 0.81548(4)
O1 O 0.02932(18) 0.55778(9) 0.94089(10)
O2 O 0.23198(17) 0.50175(8) 0.92361(10)
N2 N 0.2146(2) 0.65203(11) 0.72680(13)
C3 C 0.0449(3) 0.75048(13) 0.68290(15)
C4 C 0.0889(3) 0.76016(15) 0.61052(18)
H3 H 0.1593 0.7301 0.5960
C5 C 0.0295(3) 0.81404(16) 0.55929(18)
H4 H 0.0610 0.8188 0.5103
C6 C 0.1023(3) 0.69122(13) 0.73692(15)
C7 C 0.1462(2) 0.59806(12) 0.83739(14)
C8 C 0.2416(3) 0.59916(13) 0.78492(15)
C9 C 0.1360(3) 0.54947(12) 0.90488(14)
C10 C 0.3685(3) 0.54979(15) 0.78436(18)
H5 H 0.4109 0.5353 0.8392
H6 H 0.4431 0.5733 0.7616
H7 H 0.3328 0.5091 0.7519
H12 H 0.5776 0.2460 0.9774
N6 N 0.0698(2) 0.35970(10) 0.92478(12)
H11 H 0.8386 0.9920 0.3079
Mn4 Mn 0.81837(4) 0.937875(18) 0.47882(2)
H25 H 0.1614 0.0080 0.6921
S3 S 0.97993(7) 0.33363(3) 0.18452(4)
O5 O 0.97068(18) 0.44222(9) 0.05911(10)
O6 O 0.76802(17) 0.49825(8) 0.07639(10)
N7 N 0.9302(2) 0.64030(10) 0.07522(12)
N8 N 0.7854(2) 0.34797(11) 0.27320(13)
C23 C 0.9551(3) 0.24952(13) 0.31710(15)
C24 C 0.9111(3) 0.23984(15) 0.38948(18)
H17 H 0.8407 0.2699 0.4040
C25 C 0.9705(3) 0.18596(16) 0.44071(18)
H18 H 0.9390 0.1812 0.4897
C26 C 0.8977(3) 0.30878(13) 0.26308(15)
C27 C 0.8538(2) 0.40194(12) 0.16261(14)
C28 C 0.7584(3) 0.40084(13) 0.21508(15)
C29 C 0.8640(3) 0.45053(12) 0.09512(14)
C30 C 0.6315(3) 0.45021(15) 0.21564(18)
H19 H 0.5891 0.4647 0.1608
H20 H 0.5569 0.4267 0.2384
H21 H 0.6672 0.4909 0.2481
H26 H 0.4224 0.7540 0.0226
N1 N 0.9302(2) 0.85970(10) 0.57522(12)
C1 C 0.8909(3) 0.85192(14) 0.64629(18)
H1 H 0.8231 0.8839 0.6597
C2 C 0.9441(3) 0.79923(15) 0.70194(17)
H2 H 0.9131 0.7964 0.7512
Mn2 Mn 0.81837(4) 0.562125(18) 0.97882(2)
S4 S 0.56700(7) 0.75958(4) 0.78995(4)
O7 O 0.73930(19) 0.64491(9) 0.88415(12)
O8 O 0.60169(19) 0.62957(9) 0.97569(11)
N9 N 0.2793(2) 0.97849(10) 0.61313(12)
N11 N 0.7207(2) 0.47849(10) 0.88687(12)
N12 N 0.3556(2) 0.80796(11) 0.85229(13)
C31 C 0.3815(3) 0.93082(13) 0.60257(14)
H22 H 0.4195 0.9332 0.5553
C32 C 0.4328(3) 0.87839(13) 0.65861(15)
H23 H 0.5041 0.8465 0.6488
C33 C 0.3782(3) 0.87320(12) 0.72961(15)
C34 C 0.2752(3) 0.92409(14) 0.74146(16)
H24 H 0.2374 0.9238 0.7888
C35 C 0.2301(3) 0.97457(13) 0.68288(16)
C36 C 0.4237(3) 0.81754(12) 0.79147(16)
C37 C 0.5343(3) 0.72046(13) 0.87696(15)
C38 C 0.4178(3) 0.75320(13) 0.90115(16)
C39 C 0.6299(3) 0.66060(13) 0.91481(16)
C40 C 0.3565(3) 0.73607(16) 0.97466(17)
H27 H 0.2600 0.7574 0.9694
H28 H 0.3477 0.6858 0.9792
C1_2 C 0.1091(3) 0.35192(14) 0.85371(18)
H1_2 H 0.1769 0.3839 0.8403
C2_2 C 0.0559(3) 0.29923(15) 0.79806(17)
H2_2 H 0.0869 0.2964 0.7488
S4_2 S 0.43300(7) 0.25958(4) 0.71005(4)
O7_2 O 0.26070(19) 0.14491(9) 0.61585(12)
O8_2 O 0.39831(19) 0.12957(9) 0.52431(11)
N12_2 N 0.6444(2) 0.30796(11) 0.64771(13)
C31_2 C 0.6185(3) 0.43082(13) 0.89743(14)
H22_2 H 0.5805 0.4332 0.9447
C32_2 C 0.5672(3) 0.37839(13) 0.84139(15)
H23_2 H 0.4959 0.3465 0.8512
C33_2 C 0.6218(3) 0.37320(12) 0.77039(15)
C34_2 C 0.7248(3) 0.42409(14) 0.75854(16)
H24_2 H 0.7626 0.4238 0.7112
C35_2 C 0.7699(3) 0.47457(13) 0.81712(16)
H25_2 H 0.8386 0.5080 0.8079
C36_2 C 0.5763(3) 0.31754(12) 0.70853(16)
C37_2 C 0.4657(3) 0.22046(13) 0.62304(15)
C38_2 C 0.5822(3) 0.25320(13) 0.59885(16)
C39_2 C 0.3701(3) 0.16060(13) 0.58519(16)
C40_2 C 0.6435(3) 0.23607(16) 0.52534(17)
H26_2 H 0.5776 0.2540 0.4774
H27_2 H 0.7400 0.2574 0.5306
H28_2 H 0.6523 0.1858 0.5208
S3_2 S 0.02007(7) 0.83363(3) 0.31548(4)
O5_2 O 0.02932(18) 0.94222(9) 0.44089(10)
O6_2 O 0.23198(17) 0.99825(8) 0.42361(10)
N8_2 N 0.2146(2) 0.84797(11) 0.22680(13)
C23_2 C 0.0449(3) 0.74952(13) 0.18290(15)
C24_2 C 0.0889(3) 0.73984(15) 0.11052(18)
H17_2 H 0.1593 0.7699 0.0960
C25_2 C 0.0295(3) 0.68596(16) 0.05929(18)
H18_2 H 0.0610 0.6812 0.0103
C26_2 C 0.1023(3) 0.80878(13) 0.23692(15)
C27_2 C 0.1462(2) 0.90194(12) 0.33739(14)
C28_2 C 0.2416(3) 0.90084(13) 0.28492(15)
C29_2 C 0.1360(3) 0.95053(12) 0.40488(14)
C30_2 C 0.3685(3) 0.95021(15) 0.28436(18)
H19_2 H 0.4109 0.9647 0.3392
H20_2 H 0.4431 0.9267 0.2616
H21_2 H 0.3328 0.9909 0.2519
S1_2 S 0.97993(7) 0.16637(3) 0.68452(4)
O1_2 O 0.97068(18) 0.05778(9) 0.55911(10)
O2_2 O 0.76802(17) 0.00175(8) 0.57639(10)
N2_2 N 0.7854(2) 0.15203(11) 0.77320(13)
C3_2 C 0.9551(3) 0.25048(13) 0.81710(15)
C4_2 C 0.9111(3) 0.26016(15) 0.88948(18)
H3_2 H 0.8407 0.2301 0.9040
C5_2 C 0.9705(3) 0.31404(16) 0.94071(18)
H4_2 H 0.9390 0.3188 0.9897
C6_2 C 0.8977(3) 0.19122(13) 0.76308(15)
C7_2 C 0.8538(2) 0.09806(12) 0.66261(14)
C8_2 C 0.7584(3) 0.09916(13) 0.71508(15)
C9_2 C 0.8640(3) 0.04947(12) 0.59512(14)
C10_2 C 0.6315(3) 0.04979(15) 0.71564(18)
H5_2 H 0.5891 0.0353 0.6608
H6_2 H 0.5569 0.0733 0.7384
H7_2 H 0.6672 0.0091 0.7481
S2_2 S 0.56700(7) 0.74042(4) 0.28995(4)
O3_2 O 0.73930(19) 0.85509(9) 0.38415(12)
O4_2 O 0.60169(19) 0.87043(9) 0.47569(11)
N4_2 N 0.3556(2) 0.69204(11) 0.35229(13)
C11_2 C 0.3815(3) 0.56918(13) 0.10257(14)
H8_2 H 0.4195 0.5668 0.0553
C12_2 C 0.4328(3) 0.62161(13) 0.15861(15)
H9_2 H 0.5041 0.6535 0.1488
C13_2 C 0.3782(3) 0.62680(12) 0.22961(15)
C14_2 C 0.2752(3) 0.57591(14) 0.24146(16)
H10_2 H 0.2374 0.5762 0.2888
C15_2 C 0.2301(3) 0.52543(13) 0.18288(16)
H11_2 H 0.1614 0.4920 0.1921
C16_2 C 0.4237(3) 0.68246(12) 0.29147(16)
C17_2 C 0.5343(3) 0.77954(13) 0.37696(15)
C18_2 C 0.4178(3) 0.74680(13) 0.40115(16)
C19_2 C 0.6299(3) 0.83940(13) 0.41481(16)
C20_2 C 0.3565(3) 0.76393(16) 0.47466(17)
H12_2 H 0.4224 0.7460 0.5226
H13_2 H 0.2600 0.7426 0.4694
H14_2 H 0.3477 0.8142 0.4792
C21_2 C 0.8909(3) 0.64808(14) 0.14629(18)
H15_2 H 0.8231 0.6161 0.1597
C22_2 C 0.9441(3) 0.70077(15) 0.20194(17)
H16_2 H 0.9131 0.7036 0.2512
loop_
_geom_bond_atom_site_label_1
_geom_bond_atom_site_label_2
_geom_bond_site_symmetry_1
_geom_bond_site_symmetry_2
S2 C16 1_555 1_555
O3 Mn1 1_555 1_555
O4 Mn1 1_555 1_555
N3 C11 1_555 1_555
N4 C16 1_555 1_555
C11 H8 1_555 1_555
C12 C11 1_555 1_555
H9 C12 1_555 1_555
C13 C12 1_555 1_555
C14 C13 1_555 1_555
H10 C14 1_555 1_555
C15 N3 1_555 1_555
C16 C13 1_555 1_555
C17 S2 1_555 1_555
C18 N4 1_555 1_555
C19 O3 1_555 1_555
C20 C18 1_555 1_555
H13 C20 1_555 1_555
H14 C20 1_555 1_555
Mn6 N5 1_555 1_555
N5 C21 1_555 1_555
N10 Mn1 1_555 1_555
C21 H15 1_555 1_555
C22 C21 1_555 1_555
H16 C22 1_555 1_555
O4 C19 1_555 1_555
C14 C15 1_555 1_555
C17 C18 1_555 1_555
C17 C19 1_555 1_555
S1 C6 1_555 1_555
O1 C9 1_555 1_555
O2 C9 1_555 1_555
N2 C6 1_555 1_555
C4 C3 1_555 1_555
H3 C4 1_555 1_555
H4 C5 1_555 1_555
C6 C3 1_555 1_555
C7 S1 1_555 1_555
C8 N2 1_555 1_555
C9 C7 1_555 1_555
C10 C8 1_555 1_555
H5 C10 1_555 1_555
H6 C10 1_555 1_555
H7 C10 1_555 1_555
C4 C5 1_555 1_555
C7 C8 1_555 1_555
S3 C26 1_555 1_555
N8 C26 1_555 1_555
C24 C23 1_555 1_555
H17 C24 1_555 1_555
H18 C25 1_555 1_555
C26 C23 1_555 1_555
C27 S3 1_555 1_555
C28 N8 1_555 1_555
C29 O5 1_555 1_555
C30 C28 1_555 1_555
H19 C30 1_555 1_555
H20 C30 1_555 1_555
H21 C30 1_555 1_555
O6 C29 1_555 1_555
C24 C25 1_555 1_555
C27 C28 1_555 1_555
C27 C29 1_555 1_555
N1 C1 1_555 1_555
C1 H1 1_555 1_555
C2 C1 1_555 1_555
H2 C2 1_555 1_555
Mn4 N1 1_555 1_555
S4 C36 1_555 1_555
O7 Mn2 1_555 1_555
O8 Mn2 1_555 1_555
N9 C31 1_555 1_555
N11 Mn2 1_555 1_555
N12 C36 1_555 1_555
C31 H22 1_555 1_555
C32 C31 1_555 1_555
H23 C32 1_555 1_555
C33 C32 1_555 1_555
C34 C33 1_555 1_555
H24 C34 1_555 1_555
C35 N9 1_555 1_555
C36 C33 1_555 1_555
C37 S4 1_555 1_555
C38 N12 1_555 1_555
C39 O7 1_555 1_555
C40 C38 1_555 1_555
H27 C40 1_555 1_555
H28 C40 1_555 1_555
O8 C39 1_555 1_555
C34 C35 1_555 1_555
C37 C38 1_555 1_555
C37 C39 1_555 1_555
N6 C1_2 1_555 1_555
C1_2 H1_2 1_555 1_555
C2_2 C1_2 1_555 1_555
H2_2 C2_2 1_555 1_555
S4_2 C36_2 1_555 1_555
O7_2 Mn6 1_555 1_555
O8_2 Mn6 1_555 1_555
N11 C31_2 1_555 1_555
N12_2 C36_2 1_555 1_555
C31_2 H22_2 1_555 1_555
C32_2 C31_2 1_555 1_555
H23_2 C32_2 1_555 1_555
C33_2 C32_2 1_555 1_555
C34_2 C33_2 1_555 1_555
H24_2 C34_2 1_555 1_555
C35_2 N11 1_555 1_555
H25_2 C35_2 1_555 1_555
C36_2 C33_2 1_555 1_555
C37_2 S4_2 1_555 1_555
C38_2 N12_2 1_555 1_555
C39_2 O7_2 1_555 1_555
C40_2 C38_2 1_555 1_555
H26_2 C40_2 1_555 1_555
H27_2 C40_2 1_555 1_555
H28_2 C40_2 1_555 1_555
O8_2 C39_2 1_555 1_555
C34_2 C35_2 1_555 1_555
C37_2 C38_2 1_555 1_555
C37_2 C39_2 1_555 1_555
S3_2 C26_2 1_555 1_555
N8_2 C26_2 1_555 1_555
C24_2 C23_2 1_555 1_555
H17_2 C24_2 1_555 1_555
H18_2 C25_2 1_555 1_555
C26_2 C23_2 1_555 1_555
C27_2 S3_2 1_555 1_555
C28_2 N8_2 1_555 1_555
C29_2 O5_2 1_555 1_555
C30_2 C28_2 1_555 1_555
H19_2 C30_2 1_555 1_555
H20_2 C30_2 1_555 1_555
H21_2 C30_2 1_555 1_555
O6_2 C29_2 1_555 1_555
C24_2 C25_2 1_555 1_555
C27_2 C28_2 1_555 1_555
C27_2 C29_2 1_555 1_555
S1_2 C6_2 1_555 1_555
O1_2 C9_2 1_555 1_555
O2_2 C9_2 1_555 1_555
N2_2 C6_2 1_555 1_555
C4_2 C3_2 1_555 1_555
H3_2 C4_2 1_555 1_555
H4_2 C5_2 1_555 1_555
C6_2 C3_2 1_555 1_555
C7_2 S1_2 1_555 1_555
C8_2 N2_2 1_555 1_555
C9_2 C7_2 1_555 1_555
C10_2 C8_2 1_555 1_555
H5_2 C10_2 1_555 1_555
H6_2 C10_2 1_555 1_555
H7_2 C10_2 1_555 1_555
C4_2 C5_2 1_555 1_555
C7_2 C8_2 1_555 1_555
S2_2 C16_2 1_555 1_555
O3_2 Mn4 1_555 1_555
O4_2 Mn4 1_555 1_555
N10 C11_2 1_555 1_555
N4_2 C16_2 1_555 1_555
C11_2 H8_2 1_555 1_555
C12_2 C11_2 1_555 1_555
H9_2 C12_2 1_555 1_555
C13_2 C12_2 1_555 1_555
C14_2 C13_2 1_555 1_555
H10_2 C14_2 1_555 1_555
C15_2 N10 1_555 1_555
H11_2 C15_2 1_555 1_555
C16_2 C13_2 1_555 1_555
C17_2 S2_2 1_555 1_555
C18_2 N4_2 1_555 1_555
C19_2 O3_2 1_555 1_555
C20_2 C18_2 1_555 1_555
H12_2 C20_2 1_555 1_555
H13_2 C20_2 1_555 1_555
H14_2 C20_2 1_555 1_555
N7 C21_2 1_555 1_555
C21_2 H15_2 1_555 1_555
C22_2 C21_2 1_555 1_555
H16_2 C22_2 1_555 1_555
O4_2 C19_2 1_555 1_555
C14_2 C15_2 1_555 1_555
C17_2 C18_2 1_555 1_555
C17_2 C19_2 1_555 1_555

#END
