
###############################################################################
#
# This file contains modified crystal structure data generated from the
# MOF subset of the Cambridge Structural Database (CSD) v543 
# hosted by the Cambridge Crystallographic Data Centre (CCDC).
#
# This work is licensed under the Creative Commons
# Attribution-NonCommercial-ShareAlike 4.0 International License.
# To view a copy of this license, visit
# http://creativecommons.org/licenses/by-nc-sa/4.0/
# or send a letter to
# Creative Commons, PO Box 1866, Mountain View, CA 94042, USA.
#
# CIF created using the CSD Python API on 29 September 2022
# The structure has been converted into the P1 space group
# The structure has a 3D framework
# The original CSD entry TEQTAM is in the monoclinic crystal system
# The framework has been calculated to contain at least 10.0% void space
# The void calculation uses a probe of radius 1.32A, grid spacing 0.4
#
###############################################################################

data_TEQTAM
_chemical_formula_moiety         '(C80 H56 Cd4 N16 O16 S8)n'
_symmetry_cell_setting           triclinic
_symmetry_space_group_name_H-M   'P 1'
_symmetry_Int_Tables_number      1
_space_group_name_Hall           'P 1'
loop_
_symmetry_equiv_pos_site_id
_symmetry_equiv_pos_as_xyz
1 x,y,z
_cell_length_a                   9.2067(18)
_cell_length_b                   19.017(4)
_cell_length_c                   16.825(3)
_cell_angle_alpha                90
_cell_angle_beta                 100.56(3)
_cell_angle_gamma                90
_cell_volume                     2895.89
loop_
_atom_site_label
_atom_site_type_symbol
_atom_site_fract_x
_atom_site_fract_y
_atom_site_fract_z
Cd1 Cd 0.18226(3) 0.440270(13) 0.017154(16)
S2 S 0.42510(13) 0.23636(5) 0.20953(6)
O3 O 0.2544(3) 0.35116(13) 0.11539(17)
O4 O 0.3970(3) 0.36343(13) 0.02319(17)
N1 N 0.0625(4) 0.13751(15) 0.42045(18)
N3 N 0.7183(4) 0.02351(15) 0.38731(17)
N4 N 0.6429(4) 0.18966(16) 0.14847(19)
C1 C 0.1052(5) 0.1467(2) 0.3488(3)
H1 H 0.1744 0.1159 0.3344
C2 C 0.0507(5) 0.1999(2) 0.2958(2)
H2 H 0.0830 0.2045 0.2468
C11 C 0.6135(5) 0.06949(19) 0.3985(2)
H8 H 0.5744 0.0667 0.4456
C12 C 0.5614(5) 0.12101(19) 0.3423(2)
H9 H 0.4891 0.1523 0.3520
C13 C 0.6180(5) 0.12576(18) 0.2711(2)
C14 C 0.7239(5) 0.0760(2) 0.2590(2)
H10 H 0.7615 0.0759 0.2113
C15 C 0.7721(5) 0.0269(2) 0.3185(2)
C16 C 0.5720(5) 0.18003(18) 0.2090(2)
C17 C 0.4609(5) 0.27531(19) 0.1231(2)
C18 C 0.5802(5) 0.2438(2) 0.0999(2)
C19 C 0.3653(5) 0.3342(2) 0.0846(2)
C20 C 0.6451(6) 0.2609(2) 0.0262(3)
H13 H 0.7492 0.2514 0.0372
H14 H 0.6291 0.3097 0.0130
Cd3 Cd 0.18226(3) 0.059730(13) 0.517154(16)
N6 N 0.2817(4) 0.52351(15) 0.11269(17)
H12 H 0.5983 0.2326 0.9816
O5 O 0.2579(3) 0.50311(12) 0.91468(15)
N5 N 0.0625(4) 0.36249(15) 0.92045(18)
H11 H 0.8446 0.9949 0.3106
Cd4 Cd 0.81774(3) 0.940270(13) 0.482846(16)
S1 S 0.96875(12) 0.33444(5) 0.18486(6)
O1 O 0.9483(3) 0.44821(13) 0.06179(14)
O2 O 0.7421(3) 0.49689(12) 0.08532(15)
N2 N 0.7725(4) 0.34286(16) 0.27558(19)
C3 C 0.9478(5) 0.24655(19) 0.3160(2)
C4 C 0.8995(5) 0.2361(2) 0.3879(3)
H3 H 0.8285 0.2655 0.4031
C5 C 0.9586(6) 0.1810(2) 0.4370(3)
H4 H 0.9235 0.1739 0.4848
C6 C 0.8886(4) 0.30602(18) 0.2640(2)
C7 C 0.8372(4) 0.40036(18) 0.1664(2)
C8 C 0.7424(5) 0.39648(19) 0.2205(2)
C9 C 0.8430(4) 0.45189(18) 0.0998(2)
C10 C 0.6113(5) 0.4433(2) 0.2240(3)
H5 H 0.6452 0.4894 0.2415
H6 H 0.5505 0.4462 0.1712
H7 H 0.5547 0.4240 0.2614
Cd2 Cd 0.81774(3) 0.559730(13) 0.982846(16)
S1_2 S 0.03125(12) 0.83444(5) 0.31514(6)
O1_2 O 0.0517(3) 0.94821(13) 0.43821(14)
O2_2 O 0.2579(3) 0.99689(12) 0.41468(15)
N2_2 N 0.2275(4) 0.84286(16) 0.22442(19)
C3_2 C 0.0522(5) 0.74655(19) 0.1840(2)
C4_2 C 0.1005(5) 0.7361(2) 0.1121(3)
H3_2 H 0.1715 0.7655 0.0969
C5_2 C 0.0414(6) 0.6810(2) 0.0630(3)
H4_2 H 0.0765 0.6739 0.0152
C6_2 C 0.1114(4) 0.80602(18) 0.2360(2)
C7_2 C 0.1628(4) 0.90036(18) 0.3336(2)
C8_2 C 0.2576(5) 0.89648(19) 0.2795(2)
C9_2 C 0.1570(4) 0.95189(18) 0.4002(2)
C10_2 C 0.3887(5) 0.9433(2) 0.2760(3)
H5_2 H 0.3548 0.9894 0.2585
H6_2 H 0.4495 0.9462 0.3288
H7_2 H 0.4453 0.9240 0.2386
O5_2 O 0.7421(3) 0.00311(12) 0.58532(15)
S2_2 S 0.57490(13) 0.73636(5) 0.29047(6)
O3_2 O 0.7456(3) 0.85116(13) 0.38461(17)
O4_2 O 0.6030(3) 0.86343(13) 0.47681(17)
N1_2 N 0.9375(4) 0.63751(15) 0.07955(18)
N4_2 N 0.3571(4) 0.68966(16) 0.35153(19)
C1_2 C 0.8948(5) 0.6467(2) 0.1512(3)
H1_2 H 0.8256 0.6159 0.1656
C2_2 C 0.9493(5) 0.6999(2) 0.2042(2)
H2_2 H 0.9170 0.7045 0.2532
C11_2 C 0.3865(5) 0.56949(19) 0.1015(2)
H8_2 H 0.4256 0.5667 0.0544
C12_2 C 0.4386(5) 0.62101(19) 0.1577(2)
H9_2 H 0.5109 0.6523 0.1480
C13_2 C 0.3820(5) 0.62576(18) 0.2289(2)
C14_2 C 0.2761(5) 0.5760(2) 0.2410(2)
H10_2 H 0.2385 0.5759 0.2887
C15_2 C 0.2279(5) 0.5269(2) 0.1815(2)
H11_2 H 0.1554 0.4949 0.1894
C16_2 C 0.4280(5) 0.68003(18) 0.2910(2)
C17_2 C 0.5391(5) 0.77531(19) 0.3769(2)
C18_2 C 0.4198(5) 0.7438(2) 0.4001(2)
C19_2 C 0.6347(5) 0.8342(2) 0.4154(2)
C20_2 C 0.3549(6) 0.7609(2) 0.4738(3)
H12_2 H 0.4017 0.7326 0.5184
H13_2 H 0.2508 0.7514 0.4628
H14_2 H 0.3709 0.8097 0.4870
N5_2 N 0.9375(4) 0.86249(15) 0.57955(18)
S1_3 S 0.03125(12) 0.66556(5) 0.81514(6)
O1_3 O 0.0517(3) 0.55179(13) 0.93821(14)
N2_3 N 0.2275(4) 0.65714(16) 0.72442(19)
C3_3 C 0.0522(5) 0.75345(19) 0.6840(2)
C4_3 C 0.1005(5) 0.7639(2) 0.6121(3)
H3_3 H 0.1715 0.7345 0.5969
C5_3 C 0.0414(6) 0.8190(2) 0.5630(3)
H4_3 H 0.0765 0.8261 0.5152
C6_3 C 0.1114(4) 0.69398(18) 0.7360(2)
C7_3 C 0.1628(4) 0.59964(18) 0.8336(2)
C8_3 C 0.2576(5) 0.60352(19) 0.7795(2)
C9_3 C 0.1570(4) 0.54811(18) 0.9002(2)
C10_3 C 0.3887(5) 0.5567(2) 0.7760(3)
H5_3 H 0.3548 0.5106 0.7585
H6_3 H 0.4495 0.5538 0.8288
H7_3 H 0.4453 0.5760 0.7386
H11_3 H 0.1554 0.0051 0.6894
H12_3 H 0.4017 0.7674 0.0184
S2_3 S 0.57490(13) 0.76364(5) 0.79047(6)
O3_3 O 0.7456(3) 0.64884(13) 0.88461(17)
O4_3 O 0.6030(3) 0.63657(13) 0.97681(17)
N3_2 N 0.2817(4) 0.97649(15) 0.61269(17)
N4_3 N 0.3571(4) 0.81034(16) 0.85153(19)
C1_3 C 0.8948(5) 0.8533(2) 0.6512(3)
H1_3 H 0.8256 0.8841 0.6656
C2_3 C 0.9493(5) 0.8001(2) 0.7042(2)
H2_3 H 0.9170 0.7955 0.7532
C11_3 C 0.3865(5) 0.93051(19) 0.6015(2)
H8_3 H 0.4256 0.9333 0.5544
C12_3 C 0.4386(5) 0.87899(19) 0.6577(2)
H9_3 H 0.5109 0.8477 0.6480
C13_3 C 0.3820(5) 0.87424(18) 0.7289(2)
C14_3 C 0.2761(5) 0.9240(2) 0.7410(2)
H10_3 H 0.2385 0.9241 0.7887
C15_3 C 0.2279(5) 0.9731(2) 0.6815(2)
C16_3 C 0.4280(5) 0.81997(18) 0.7910(2)
C17_3 C 0.5391(5) 0.72469(19) 0.8769(2)
C18_3 C 0.4198(5) 0.7562(2) 0.9001(2)
C19_3 C 0.6347(5) 0.6658(2) 0.9154(2)
C20_3 C 0.3549(6) 0.7391(2) 0.9738(3)
H13_3 H 0.2508 0.7486 0.9628
H14_3 H 0.3709 0.6903 0.9870
N6_2 N 0.7183(4) 0.47649(15) 0.88731(17)
S2_4 S 0.42510(13) 0.26364(5) 0.70953(6)
O3_4 O 0.2544(3) 0.14884(13) 0.61539(17)
O4_4 O 0.3970(3) 0.13657(13) 0.52319(17)
N4_4 N 0.6429(4) 0.31034(16) 0.64847(19)
C1_4 C 0.1052(5) 0.3533(2) 0.8488(3)
H1_4 H 0.1744 0.3841 0.8344
C2_4 C 0.0507(5) 0.3001(2) 0.7958(2)
H2_4 H 0.0830 0.2955 0.7468
C11_4 C 0.6135(5) 0.43051(19) 0.8985(2)
H8_4 H 0.5744 0.4333 0.9456
C12_4 C 0.5614(5) 0.37899(19) 0.8423(2)
H9_4 H 0.4891 0.3477 0.8520
C13_4 C 0.6180(5) 0.37424(18) 0.7711(2)
C14_4 C 0.7239(5) 0.4240(2) 0.7590(2)
H10_4 H 0.7615 0.4241 0.7113
C15_4 C 0.7721(5) 0.4731(2) 0.8185(2)
H11_4 H 0.8446 0.5051 0.8106
C16_4 C 0.5720(5) 0.31997(18) 0.7090(2)
C17_4 C 0.4609(5) 0.22469(19) 0.6231(2)
C18_4 C 0.5802(5) 0.2562(2) 0.5999(2)
C19_4 C 0.3653(5) 0.1658(2) 0.5846(2)
C20_4 C 0.6451(6) 0.2391(2) 0.5262(3)
H12_4 H 0.5983 0.2674 0.4816
H13_4 H 0.7492 0.2486 0.5372
H14_4 H 0.6291 0.1903 0.5130
S1_4 S 0.96875(12) 0.16556(5) 0.68486(6)
O1_4 O 0.9483(3) 0.05179(13) 0.56179(14)
N2_4 N 0.7725(4) 0.15714(16) 0.77558(19)
C3_4 C 0.9478(5) 0.25345(19) 0.8160(2)
C4_4 C 0.8995(5) 0.2639(2) 0.8879(3)
H3_4 H 0.8285 0.2345 0.9031
C5_4 C 0.9586(6) 0.3190(2) 0.9370(3)
H4_4 H 0.9235 0.3261 0.9848
C6_4 C 0.8886(4) 0.19398(18) 0.7640(2)
C7_4 C 0.8372(4) 0.09964(18) 0.6664(2)
C8_4 C 0.7424(5) 0.10352(19) 0.7205(2)
C9_4 C 0.8430(4) 0.04811(18) 0.5998(2)
C10_4 C 0.6113(5) 0.0567(2) 0.7240(3)
H5_4 H 0.6452 0.0106 0.7415
H6_4 H 0.5505 0.0538 0.6712
H7_4 H 0.5547 0.0760 0.7614
loop_
_geom_bond_atom_site_label_1
_geom_bond_atom_site_label_2
_geom_bond_site_symmetry_1
_geom_bond_site_symmetry_2
S2 C16 1_555 1_555
O3 Cd1 1_555 1_555
O4 Cd1 1_555 1_555
N1 C1 1_555 1_555
N3 C11 1_555 1_555
N4 C16 1_555 1_555
C1 H1 1_555 1_555
C2 C1 1_555 1_555
H2 C2 1_555 1_555
C11 H8 1_555 1_555
C12 C11 1_555 1_555
H9 C12 1_555 1_555
C13 C12 1_555 1_555
C14 C13 1_555 1_555
H10 C14 1_555 1_555
C15 N3 1_555 1_555
C16 C13 1_555 1_555
C17 S2 1_555 1_555
C18 N4 1_555 1_555
C19 O3 1_555 1_555
C20 C18 1_555 1_555
H13 C20 1_555 1_555
H14 C20 1_555 1_555
Cd3 N1 1_555 1_555
N6 Cd1 1_555 1_555
O4 C19 1_555 1_555
C14 C15 1_555 1_555
C17 C18 1_555 1_555
C17 C19 1_555 1_555
S1 C6 1_555 1_555
O1 C9 1_555 1_555
O2 C9 1_555 1_555
N2 C6 1_555 1_555
C4 C3 1_555 1_555
H3 C4 1_555 1_555
H4 C5 1_555 1_555
C6 C3 1_555 1_555
C7 S1 1_555 1_555
C8 N2 1_555 1_555
C9 C7 1_555 1_555
C10 C8 1_555 1_555
H5 C10 1_555 1_555
H6 C10 1_555 1_555
H7 C10 1_555 1_555
C4 C5 1_555 1_555
C7 C8 1_555 1_555
S1_2 C6_2 1_555 1_555
O1_2 C9_2 1_555 1_555
O2_2 C9_2 1_555 1_555
N2_2 C6_2 1_555 1_555
C4_2 C3_2 1_555 1_555
H3_2 C4_2 1_555 1_555
H4_2 C5_2 1_555 1_555
C6_2 C3_2 1_555 1_555
C7_2 S1_2 1_555 1_555
C8_2 N2_2 1_555 1_555
C9_2 C7_2 1_555 1_555
C10_2 C8_2 1_555 1_555
H5_2 C10_2 1_555 1_555
H6_2 C10_2 1_555 1_555
H7_2 C10_2 1_555 1_555
C4_2 C5_2 1_555 1_555
C7_2 C8_2 1_555 1_555
S2_2 C16_2 1_555 1_555
O3_2 Cd4 1_555 1_555
O4_2 Cd4 1_555 1_555
N1_2 C1_2 1_555 1_555
N6 C11_2 1_555 1_555
N4_2 C16_2 1_555 1_555
C1_2 H1_2 1_555 1_555
C2_2 C1_2 1_555 1_555
H2_2 C2_2 1_555 1_555
C11_2 H8_2 1_555 1_555
C12_2 C11_2 1_555 1_555
H9_2 C12_2 1_555 1_555
C13_2 C12_2 1_555 1_555
C14_2 C13_2 1_555 1_555
H10_2 C14_2 1_555 1_555
C15_2 N6 1_555 1_555
H11_2 C15_2 1_555 1_555
C16_2 C13_2 1_555 1_555
C17_2 S2_2 1_555 1_555
C18_2 N4_2 1_555 1_555
C19_2 O3_2 1_555 1_555
C20_2 C18_2 1_555 1_555
H12_2 C20_2 1_555 1_555
H13_2 C20_2 1_555 1_555
H14_2 C20_2 1_555 1_555
N5_2 Cd4 1_555 1_555
O4_2 C19_2 1_555 1_555
C14_2 C15_2 1_555 1_555
C17_2 C18_2 1_555 1_555
C17_2 C19_2 1_555 1_555
S1_3 C6_3 1_555 1_555
O1_3 C9_3 1_555 1_555
O5 C9_3 1_555 1_555
N2_3 C6_3 1_555 1_555
C4_3 C3_3 1_555 1_555
H3_3 C4_3 1_555 1_555
H4_3 C5_3 1_555 1_555
C6_3 C3_3 1_555 1_555
C7_3 S1_3 1_555 1_555
C8_3 N2_3 1_555 1_555
C9_3 C7_3 1_555 1_555
C10_3 C8_3 1_555 1_555
H5_3 C10_3 1_555 1_555
H6_3 C10_3 1_555 1_555
H7_3 C10_3 1_555 1_555
C4_3 C5_3 1_555 1_555
C7_3 C8_3 1_555 1_555
S2_3 C16_3 1_555 1_555
O3_3 Cd2 1_555 1_555
O4_3 Cd2 1_555 1_555
N5_2 C1_3 1_555 1_555
N3_2 C11_3 1_555 1_555
N4_3 C16_3 1_555 1_555
C1_3 H1_3 1_555 1_555
C2_3 C1_3 1_555 1_555
H2_3 C2_3 1_555 1_555
C11_3 H8_3 1_555 1_555
C12_3 C11_3 1_555 1_555
H9_3 C12_3 1_555 1_555
C13_3 C12_3 1_555 1_555
C14_3 C13_3 1_555 1_555
H10_3 C14_3 1_555 1_555
C15_3 N3_2 1_555 1_555
C16_3 C13_3 1_555 1_555
C17_3 S2_3 1_555 1_555
C18_3 N4_3 1_555 1_555
C19_3 O3_3 1_555 1_555
C20_3 C18_3 1_555 1_555
H13_3 C20_3 1_555 1_555
H14_3 C20_3 1_555 1_555
N6_2 Cd2 1_555 1_555
O4_3 C19_3 1_555 1_555
C14_3 C15_3 1_555 1_555
C17_3 C18_3 1_555 1_555
C17_3 C19_3 1_555 1_555
S2_4 C16_4 1_555 1_555
O3_4 Cd3 1_555 1_555
O4_4 Cd3 1_555 1_555
N5 C1_4 1_555 1_555
N6_2 C11_4 1_555 1_555
N4_4 C16_4 1_555 1_555
C1_4 H1_4 1_555 1_555
C2_4 C1_4 1_555 1_555
H2_4 C2_4 1_555 1_555
C11_4 H8_4 1_555 1_555
C12_4 C11_4 1_555 1_555
H9_4 C12_4 1_555 1_555
C13_4 C12_4 1_555 1_555
C14_4 C13_4 1_555 1_555
H10_4 C14_4 1_555 1_555
C15_4 N6_2 1_555 1_555
H11_4 C15_4 1_555 1_555
C16_4 C13_4 1_555 1_555
C17_4 S2_4 1_555 1_555
C18_4 N4_4 1_555 1_555
C19_4 O3_4 1_555 1_555
C20_4 C18_4 1_555 1_555
H12_4 C20_4 1_555 1_555
H13_4 C20_4 1_555 1_555
H14_4 C20_4 1_555 1_555
O4_4 C19_4 1_555 1_555
C14_4 C15_4 1_555 1_555
C17_4 C18_4 1_555 1_555
C17_4 C19_4 1_555 1_555
S1_4 C6_4 1_555 1_555
O1_4 C9_4 1_555 1_555
O5_2 C9_4 1_555 1_555
N2_4 C6_4 1_555 1_555
C4_4 C3_4 1_555 1_555
H3_4 C4_4 1_555 1_555
H4_4 C5_4 1_555 1_555
C6_4 C3_4 1_555 1_555
C7_4 S1_4 1_555 1_555
C8_4 N2_4 1_555 1_555
C9_4 C7_4 1_555 1_555
C10_4 C8_4 1_555 1_555
H5_4 C10_4 1_555 1_555
H6_4 C10_4 1_555 1_555
H7_4 C10_4 1_555 1_555
C4_4 C5_4 1_555 1_555
C7_4 C8_4 1_555 1_555

#END
