
###############################################################################
#
# This file contains modified crystal structure data generated from the
# MOF subset of the Cambridge Structural Database (CSD) v543 
# hosted by the Cambridge Crystallographic Data Centre (CCDC).
#
# This work is licensed under the Creative Commons
# Attribution-NonCommercial-ShareAlike 4.0 International License.
# To view a copy of this license, visit
# http://creativecommons.org/licenses/by-nc-sa/4.0/
# or send a letter to
# Creative Commons, PO Box 1866, Mountain View, CA 94042, USA.
#
# CIF created using the CSD Python API on 29 September 2022
# The structure has been converted into the P1 space group
# The structure has a 3D framework
# The original CSD entry TERFIH is in the triclinic crystal system
# The framework has been calculated to contain at least 10.0% void space
# The void calculation uses a probe of radius 1.32A, grid spacing 0.4
#
###############################################################################

data_TERFIH
_chemical_formula_moiety         '(C68 H36 Ir2 N12 O16 Zn4)n'
_symmetry_cell_setting           triclinic
_symmetry_space_group_name_H-M   'P 1'
_symmetry_Int_Tables_number      1
_space_group_name_Hall           'P 1'
loop_
_symmetry_equiv_pos_site_id
_symmetry_equiv_pos_as_xyz
1 x,y,z
_cell_length_a                   14.0368(15)
_cell_length_b                   15.1189(17)
_cell_length_c                   15.1242(17)
_cell_angle_alpha                85.358(6)
_cell_angle_beta                 85.555(5)
_cell_angle_gamma                86.350(6)
_cell_volume                     3184.2
loop_
_atom_site_label
_atom_site_type_symbol
_atom_site_fract_x
_atom_site_fract_y
_atom_site_fract_z
_atom_site_U_iso_or_equiv
_atom_site_thermal_displace_type
N7 N 0.0469(3) 0.6111(3) 0.3369(3) 0.0378 Uiso
O1 O 0.7300(3) 0.6173(3) 0.2143(3) 0.0588 Uiso
O4 O 0.8884(3) 0.5971(3) 0.2012(3) 0.0578 Uiso
C1 C 0.2427(4) 0.6158(4) 0.3397(4) 0.0434 Uiso
O5 O 0.7209(3) 0.4807(3) 0.3524(3) 0.0608 Uiso
O7 O 0.8814(3) 0.4718(3) 0.3466(3) 0.0594 Uiso
C2 C 0.1845(5) 0.6111(4) 0.4172(4) 0.0551 Uiso
H1 H 0.2111 0.6097 0.4725 0.0660 Uiso
C4 C 0.8076(4) 0.6091(4) 0.1699(4) 0.0453 Uiso
C5 C 0.0884(5) 0.6087(4) 0.4134(4) 0.0510 Uiso
H2 H 0.0496 0.6051 0.4670 0.0610 Uiso
C6 C 0.8021(4) 0.4359(4) 0.3455(4) 0.0477 Uiso
C7 C 0.1042(5) 0.6176(4) 0.2610(4) 0.0548 Uiso
H3 H 0.0762 0.6207 0.2062 0.0660 Uiso
C8 C 0.8065(4) 0.6078(4) 0.0709(4) 0.0472 Uiso
C10 C 0.8001(5) 0.3397(5) 0.3388(4) 0.0594 Uiso
C11 C 0.1994(5) 0.6198(5) 0.2610(5) 0.0590 Uiso
H4 H 0.2369 0.6241 0.2067 0.0710 Uiso
C13 C 0.8859(6) 0.5903(5) 0.0188(5) 0.0750 Uiso
H5 H 0.9446 0.5783 0.0445 0.0900 Uiso
C14 C 0.7227(7) 0.6286(6) 0.0317(6) 0.0850 Uiso
H6 H 0.6654 0.6396 0.0665 0.1020 Uiso
C15 C 0.7152(7) 0.2977(6) 0.3428(6) 0.0870 Uiso
H7 H 0.6566 0.3311 0.3500 0.1040 Uiso
C17 C 0.8822(8) 0.2894(7) 0.3215(7) 0.1010 Uiso
H8 H 0.9405 0.3171 0.3110 0.1220 Uiso
C18 C 0.7966(7) 0.1593(6) 0.3238(6) 0.0850 Uiso
C19 C 0.7955(7) 0.0622(6) 0.3198(6) 0.0890 Uiso
N2 N 0.5460(3) 0.6149(3) 0.3462(3) 0.0353 Uiso
C22 C 0.3509(4) 0.6141(4) 0.3413(4) 0.0414 Uiso
C23 C 0.4896(7) 0.6009(6) 0.4162(6) 0.0900 Uiso
H11 H 0.5170 0.5924 0.4712 0.1080 Uiso
C24 C 0.3948(8) 0.5977(7) 0.4165(7) 0.1050 Uiso
H12 H 0.3587 0.5837 0.4702 0.1260 Uiso
C25 C 0.4072(9) 0.6237(8) 0.2698(8) 0.1140 Uiso
H13 H 0.3795 0.6309 0.2148 0.1370 Uiso
C26 C 0.5070(9) 0.6240(8) 0.2694(8) 0.1150 Uiso
H14 H 0.5451 0.6306 0.2156 0.1380 Uiso
Ir1 Ir 0.6171(6) 0.1190(5) 0.3372(5) 0.1030 Uiso
Ir2 Ir 0.9646(17) 0.0910(15) 0.3290(14) 0.1900 Uiso
Zn1 Zn 0.69244(5) 0.61515(5) 0.34728(4) 0.0375 Uani
N3 N 0.8748(9) 0.0110(8) 0.2925(8) 0.0690 Uiso
C33 C 0.7155(7) 0.2078(6) 0.3364(6) 0.0880 Uiso
C34 C 0.8817(9) 0.1988(9) 0.3190(8) 0.1220 Uiso
N5 N 0.7155(9) 0.0214(9) 0.3386(8) 0.0700 Uiso
O9 O 0.7083(3) 0.6113(3) 0.4808(3) 0.0533 Uiso
O13 O 0.7088(4) 0.7473(3) 0.3404(3) 0.0670 Uiso
Zn7 Zn 0.90204(5) 0.60461(5) 0.33369(4) 0.0374 Uani
O3 O 0.8664(3) 0.6096(3) 0.4653(3) 0.0540 Uiso
C3 C 0.7874(4) 0.6110(4) 0.5114(4) 0.0395 Uiso
C9 C 0.7993(5) 0.6112(5) 0.8893(5) 0.0647 Uiso
C27 C 0.7888(4) 0.6148(4) 0.6112(4) 0.0475 Uiso
C28 C 0.7081(5) 0.6197(5) 0.6645(4) 0.0601 Uiso
H15 H 0.6488 0.6229 0.6392 0.0720 Uiso
C29 C 0.8781(5) 0.6085(5) 0.6492(5) 0.0604 Uiso
H16 H 0.9355 0.6060 0.6129 0.0720 Uiso
C30 C 0.7962(5) 0.6121(5) 0.7914(5) 0.0650 Uiso
N4 N 0.7096(5) 0.6202(5) 0.7548(5) 0.0280 Uiso
C31 C 0.7235(7) 0.6331(6) 0.9433(6) 0.0840 Uiso
H17 H 0.6666 0.6530 0.9173 0.1010 Uiso
C32 C 0.8827(7) 0.5895(6) 0.9278(6) 0.0900 Uiso
H18 H 0.9383 0.5739 0.8925 0.1080 Uiso
N6 N 0.8794(5) 0.6062(5) 0.7372(5) 0.0260 Uiso
O6 O 0.8688(4) 0.7381(3) 0.3163(3) 0.0677 Uiso
C12 C 0.7907(5) 0.8783(5) 0.3196(5) 0.0664 Uiso
C16 C 0.7892(5) 0.7817(4) 0.3264(4) 0.0516 Uiso
C20 C 0.7123(9) 0.9318(8) 0.3368(7) 0.1170 Uiso
H9 H 0.6529 0.9062 0.3479 0.1410 Uiso
C21 C 0.8735(9) 0.9218(8) 0.2947(7) 0.1120 Uiso
H10 H 0.9302 0.8883 0.2789 0.1350 Uiso
Zn5 Zn 0.09796(5) 0.39539(5) 0.66631(4) 0.0374 Uani
O6_2 O 0.1312(4) 0.2619(3) 0.6837(3) 0.0677 Uiso
O8 O 0.2912(4) 0.2527(3) 0.6596(3) 0.0670 Uiso
C12_2 C 0.2093(5) 0.1217(5) 0.6804(5) 0.0664 Uiso
C16_2 C 0.2108(5) 0.2183(4) 0.6736(4) 0.0516 Uiso
C20_2 C 0.2877(9) 0.0682(8) 0.6632(7) 0.1170 Uiso
H9_2 H 0.3471 0.0938 0.6521 0.1410 Uiso
C21_2 C 0.1265(9) 0.0782(8) 0.7053(7) 0.1120 Uiso
H10_2 H 0.0698 0.1117 0.7211 0.1350 Uiso
O10 O 0.1336(3) 0.3904(3) 0.5347(3) 0.0540 Uiso
O11 O 0.1116(3) 0.4029(3) 0.7988(3) 0.0578 Uiso
O12 O 0.1186(3) 0.5282(3) 0.6534(3) 0.0594 Uiso
Zn4 Zn 0.30756(5) 0.38485(5) 0.65272(4) 0.0375 Uani
O2 O 0.2917(3) 0.3887(3) 0.5192(3) 0.0533 Uiso
C3_2 C 0.2126(4) 0.3890(4) 0.4886(4) 0.0395 Uiso
C9_2 C 0.2007(5) 0.3888(5) 0.1107(5) 0.0647 Uiso
C27_2 C 0.2112(4) 0.3852(4) 0.3888(4) 0.0475 Uiso
C28_2 C 0.2919(5) 0.3803(5) 0.3355(4) 0.0601 Uiso
H15_2 H 0.3512 0.3771 0.3608 0.0720 Uiso
C29_2 C 0.1219(5) 0.3915(5) 0.3508(5) 0.0604 Uiso
H16_2 H 0.0645 0.3940 0.3871 0.0720 Uiso
C30_2 C 0.2038(5) 0.3879(5) 0.2086(5) 0.0650 Uiso
N4_2 N 0.2904(5) 0.3798(5) 0.2452(5) 0.0280 Uiso
C31_2 C 0.2765(7) 0.3669(6) 0.0567(6) 0.0840 Uiso
H17_2 H 0.3334 0.3470 0.0827 0.1010 Uiso
C32_2 C 0.1173(7) 0.4105(6) 0.0722(6) 0.0900 Uiso
H18_2 H 0.0617 0.4261 0.1075 0.1080 Uiso
N6_2 N 0.1206(5) 0.3938(5) 0.2628(5) 0.0260 Uiso
N1 N 0.9531(3) 0.3889(3) 0.6631(3) 0.0378 Uiso
O1_2 O 0.2700(3) 0.3827(3) 0.7857(3) 0.0588 Uiso
C1_2 C 0.7573(4) 0.3842(4) 0.6603(4) 0.0434 Uiso
O5_2 O 0.2791(3) 0.5193(3) 0.6476(3) 0.0608 Uiso
C2_2 C 0.8155(5) 0.3889(4) 0.5828(4) 0.0551 Uiso
H1_2 H 0.7889 0.3903 0.5275 0.0660 Uiso
C4_2 C 0.1924(4) 0.3909(4) 0.8301(4) 0.0453 Uiso
C5_2 C 0.9116(5) 0.3913(4) 0.5866(4) 0.0510 Uiso
H2_2 H 0.9504 0.3949 0.5330 0.0610 Uiso
C6_2 C 0.1979(4) 0.5641(4) 0.6545(4) 0.0477 Uiso
C7_2 C 0.8958(5) 0.3824(4) 0.7390(4) 0.0548 Uiso
H3_2 H 0.9238 0.3793 0.7938 0.0660 Uiso
C8_2 C 0.1935(4) 0.3922(4) 0.9291(4) 0.0472 Uiso
C10_2 C 0.1999(5) 0.6603(5) 0.6612(4) 0.0594 Uiso
C11_2 C 0.8006(5) 0.3802(5) 0.7390(5) 0.0590 Uiso
H4_2 H 0.7631 0.3759 0.7933 0.0710 Uiso
C13_2 C 0.1141(6) 0.4097(5) 0.9812(5) 0.0750 Uiso
H5_2 H 0.0554 0.4217 0.9555 0.0900 Uiso
C14_2 C 0.2773(7) 0.3714(6) 0.9683(6) 0.0850 Uiso
H6_2 H 0.3346 0.3604 0.9335 0.1020 Uiso
C15_2 C 0.2848(7) 0.7023(6) 0.6572(6) 0.0870 Uiso
H7_2 H 0.3434 0.6689 0.6500 0.1040 Uiso
C17_2 C 0.1178(8) 0.7106(7) 0.6785(7) 0.1010 Uiso
H8_2 H 0.0595 0.6829 0.6890 0.1220 Uiso
C18_2 C 0.2034(7) 0.8407(6) 0.6762(6) 0.0850 Uiso
C19_2 C 0.2045(7) 0.9378(6) 0.6802(6) 0.0890 Uiso
N2_2 N 0.4540(3) 0.3851(3) 0.6538(3) 0.0353 Uiso
C22_2 C 0.6491(4) 0.3859(4) 0.6587(4) 0.0414 Uiso
C23_2 C 0.5104(7) 0.3991(6) 0.5838(6) 0.0900 Uiso
H11_2 H 0.4830 0.4076 0.5288 0.1080 Uiso
C24_2 C 0.6052(8) 0.4023(7) 0.5835(7) 0.1050 Uiso
H12_2 H 0.6413 0.4163 0.5298 0.1260 Uiso
C25_2 C 0.5928(9) 0.3763(8) 0.7302(8) 0.1140 Uiso
H13_2 H 0.6205 0.3691 0.7852 0.1370 Uiso
C26_2 C 0.4930(9) 0.3760(8) 0.7306(8) 0.1150 Uiso
H14_2 H 0.4549 0.3694 0.7844 0.1380 Uiso
Ir1_2 Ir 0.3829(6) 0.8810(5) 0.6628(5) 0.1030 Uiso
Ir2_2 Ir 0.0354(17) 0.9090(15) 0.6710(14) 0.1900 Uiso
N3_2 N 0.1252(9) 0.9890(8) 0.7075(8) 0.0690 Uiso
C33_2 C 0.2845(7) 0.7922(6) 0.6636(6) 0.0880 Uiso
C34_2 C 0.1183(9) 0.8012(9) 0.6810(8) 0.1220 Uiso
N5_2 N 0.2845(9) 0.9786(9) 0.6614(8) 0.0700 Uiso
loop_
_atom_site_aniso_label
_atom_site_aniso_U_11
_atom_site_aniso_U_22
_atom_site_aniso_U_33
_atom_site_aniso_U_23
_atom_site_aniso_U_13
_atom_site_aniso_U_12
Zn1 0.0277 0.0466 0.0385 -0.0056 -0.0028 -0.0014
Zn7 0.0273 0.0472 0.0381 -0.006 -0.0019 -0.0019
Zn5 0.0273 0.0472 0.0381 -0.006 -0.0019 -0.0019
Zn4 0.0277 0.0466 0.0385 -0.0056 -0.0028 -0.0014
loop_
_geom_bond_atom_site_label_1
_geom_bond_atom_site_label_2
_geom_bond_site_symmetry_1
_geom_bond_site_symmetry_2
N7 C5 1_555 1_555
O1 C4 1_555 1_555
O4 C4 1_555 1_555
C1 C2 1_555 1_555
O5 C6 1_555 1_555
O7 C6 1_555 1_555
C2 H1 1_555 1_555
C4 C8 1_555 1_555
C5 C2 1_555 1_555
H2 C5 1_555 1_555
C6 C10 1_555 1_555
C7 N7 1_555 1_555
H3 C7 1_555 1_555
C8 C13 1_555 1_555
C10 C15 1_555 1_555
C11 C1 1_555 1_555
H4 C11 1_555 1_555
C13 H5 1_555 1_555
C14 C8 1_555 1_555
H6 C14 1_555 1_555
C15 H7 1_555 1_555
C17 C10 1_555 1_555
H8 C17 1_555 1_555
C18 C19 1_555 1_555
C19 N3 1_555 1_555
N2 C23 1_555 1_555
C22 C1 1_555 1_555
C23 H11 1_555 1_555
C24 C22 1_555 1_555
H12 C24 1_555 1_555
C25 C22 1_555 1_555
H13 C25 1_555 1_555
C26 N2 1_555 1_555
H14 C26 1_555 1_555
Ir1 C33 1_555 1_555
Ir2 N3 1_555 1_555
Zn1 O1 1_555 1_555
C33 C15 1_555 1_555
C34 C17 1_555 1_555
N5 C19 1_555 1_555
O9 Zn1 1_555 1_555
O13 Zn1 1_555 1_555
Zn7 O4 1_555 1_555
O5 Zn1 1_555 1_555
O7 Zn7 1_555 1_555
C7 C11 1_555 1_555
C18 C33 1_555 1_555
C18 C34 1_555 1_555
N2 Zn1 1_555 1_555
C23 C24 1_555 1_555
C25 C26 1_555 1_555
Ir1 N5 1_555 1_555
Ir2 C34 1_555 1_555
O9 C3 1_555 1_555
O3 C3 1_555 1_555
C3 C27 1_555 1_555
C9 C30 1_555 1_555
C27 C28 1_555 1_555
C28 H15 1_555 1_555
C29 C27 1_555 1_555
H16 C29 1_555 1_555
C30 N4 1_555 1_555
N4 C28 1_555 1_555
C31 C9 1_555 1_555
H17 C31 1_555 1_555
C32 C9 1_555 1_555
H18 C32 1_555 1_555
N6 C29 1_555 1_555
Zn7 O3 1_555 1_555
C30 N6 1_555 1_555
O6 C16 1_555 1_555
O13 C16 1_555 1_555
C12 C16 1_555 1_555
C20 C12 1_555 1_555
H9 C20 1_555 1_555
C21 C12 1_555 1_555
H10 C21 1_555 1_555
Zn7 O6 1_555 1_555
O6_2 C16_2 1_555 1_555
O8 C16_2 1_555 1_555
C12_2 C16_2 1_555 1_555
C20_2 C12_2 1_555 1_555
H9_2 C20_2 1_555 1_555
C21_2 C12_2 1_555 1_555
H10_2 C21_2 1_555 1_555
Zn5 O6_2 1_555 1_555
O10 Zn5 1_555 1_555
O11 Zn5 1_555 1_555
O12 Zn5 1_555 1_555
Zn4 O8 1_555 1_555
O2 C3_2 1_555 1_555
O10 C3_2 1_555 1_555
C3_2 C27_2 1_555 1_555
C9_2 C30_2 1_555 1_555
C27_2 C28_2 1_555 1_555
C28_2 H15_2 1_555 1_555
C29_2 C27_2 1_555 1_555
H16_2 C29_2 1_555 1_555
C30_2 N4_2 1_555 1_555
N4_2 C28_2 1_555 1_555
C31_2 C9_2 1_555 1_555
H17_2 C31_2 1_555 1_555
C32_2 C9_2 1_555 1_555
H18_2 C32_2 1_555 1_555
N6_2 C29_2 1_555 1_555
Zn4 O2 1_555 1_555
C30_2 N6_2 1_555 1_555
N1 C5_2 1_555 1_555
O1_2 C4_2 1_555 1_555
O11 C4_2 1_555 1_555
C1_2 C2_2 1_555 1_555
O5_2 C6_2 1_555 1_555
O12 C6_2 1_555 1_555
C2_2 H1_2 1_555 1_555
C4_2 C8_2 1_555 1_555
C5_2 C2_2 1_555 1_555
H2_2 C5_2 1_555 1_555
C6_2 C10_2 1_555 1_555
C7_2 N1 1_555 1_555
H3_2 C7_2 1_555 1_555
C8_2 C13_2 1_555 1_555
C10_2 C15_2 1_555 1_555
C11_2 C1_2 1_555 1_555
H4_2 C11_2 1_555 1_555
C13_2 H5_2 1_555 1_555
C14_2 C8_2 1_555 1_555
H6_2 C14_2 1_555 1_555
C15_2 H7_2 1_555 1_555
C17_2 C10_2 1_555 1_555
H8_2 C17_2 1_555 1_555
C18_2 C19_2 1_555 1_555
C19_2 N3_2 1_555 1_555
N2_2 C23_2 1_555 1_555
C22_2 C1_2 1_555 1_555
C23_2 H11_2 1_555 1_555
C24_2 C22_2 1_555 1_555
H12_2 C24_2 1_555 1_555
C25_2 C22_2 1_555 1_555
H13_2 C25_2 1_555 1_555
C26_2 N2_2 1_555 1_555
H14_2 C26_2 1_555 1_555
Ir1_2 C33_2 1_555 1_555
Ir2_2 N3_2 1_555 1_555
Zn4 O1_2 1_555 1_555
C33_2 C15_2 1_555 1_555
C34_2 C17_2 1_555 1_555
N5_2 C19_2 1_555 1_555
O5_2 Zn4 1_555 1_555
C7_2 C11_2 1_555 1_555
C18_2 C33_2 1_555 1_555
C18_2 C34_2 1_555 1_555
N2_2 Zn4 1_555 1_555
C23_2 C24_2 1_555 1_555
C25_2 C26_2 1_555 1_555
Ir1_2 N5_2 1_555 1_555
Ir2_2 C34_2 1_555 1_555

#END
