
###############################################################################
#
# This file contains modified crystal structure data generated from the
# MOF subset of the Cambridge Structural Database (CSD) v543 
# hosted by the Cambridge Crystallographic Data Centre (CCDC).
#
# This work is licensed under the Creative Commons
# Attribution-NonCommercial-ShareAlike 4.0 International License.
# To view a copy of this license, visit
# http://creativecommons.org/licenses/by-nc-sa/4.0/
# or send a letter to
# Creative Commons, PO Box 1866, Mountain View, CA 94042, USA.
#
# CIF created using the CSD Python API on 29 September 2022
# The structure has been converted into the P1 space group
# The structure has a 3D framework
# The original CSD entry TERNUC is in the monoclinic crystal system
# The framework has been calculated to contain at least 10.0% void space
# The void calculation uses a probe of radius 1.32A, grid spacing 0.4
#
###############################################################################

data_TERNUC
_chemical_formula_moiety         '(C288 H192 I48 N92 Zn24)n'
_symmetry_cell_setting           triclinic
_symmetry_space_group_name_H-M   'P 1'
_symmetry_Int_Tables_number      1
_space_group_name_Hall           'P 1'
loop_
_symmetry_equiv_pos_site_id
_symmetry_equiv_pos_as_xyz
1 x,y,z
_cell_length_a                   35.972(7)
_cell_length_b                   14.941(3)
_cell_length_c                   31.398(6)
_cell_angle_alpha                90
_cell_angle_beta                 102.06(3)
_cell_angle_gamma                90
_cell_volume                     16502.7
loop_
_atom_site_label
_atom_site_type_symbol
_atom_site_fract_x
_atom_site_fract_y
_atom_site_fract_z
I1 I 0.11628(2) 0.74308(3) 0.06328(2)
I2 I 0.02646(2) 0.65285(3) 0.13767(2)
I3 I 0.73301(2) 0.26709(3) 0.30025(2)
I4 I 0.62817(2) 0.34330(3) 0.20159(2)
I5 I 0.35754(2) 0.59823(7) 0.51037(2)
I6 I 0.39853(2) 0.73213(4) 0.39933(3)
Zn1 Zn 0.08084(2) 0.62529(4) 0.09814(2)
Zn2 Zn 0.67241(2) 0.35953(4) 0.27709(2)
Zn3 Zn 0.37681(2) 0.59542(5) 0.43610(3)
N1 N 0.22380(13) 0.4507(3) 0.27122(16)
N2 N 0.18459(13) 0.3228(3) 0.24996(16)
N3 N 0.51998(13) 0.2616(3) 0.47113(15)
N5 N 0.23736(13) 0.3131(3) 0.31025(16)
N6 N 0.57167(13) 0.2135(3) 0.43865(15)
N7 N 0.12160(14) 0.5545(3) 0.14284(17)
N9 N 0.53684(13) 0.3446(3) 0.41231(16)
N10 N 0.42082(13) 0.5040(3) 0.43983(17)
N11 N 0.63945(15) 0.3371(3) 0.32369(18)
N12 N 0.33399(14) 0.5338(3) 0.39129(18)
C1 C 0.48231(16) 0.3903(4) 0.44167(19)
C2 C 0.17386(17) 0.5524(4) 0.2047(2)
H1 H 0.193121 0.584653 0.223915
C3 C 0.16989(17) 0.4609(4) 0.2096(2)
C4 C 0.19975(16) 0.1805(3) 0.28353(18)
C5 C 0.54795(16) 0.2049(4) 0.46680(18)
C6 C 0.27542(16) 0.4459(4) 0.33430(19)
C7 C 0.24374(16) 0.4006(4) 0.30350(19)
C8 C 0.55287(17) 0.1237(4) 0.49560(19)
C9 C 0.14904(18) 0.5964(4) 0.1709(2)
H2 H 0.151856 0.659162 0.167864
C10 C 0.19416(16) 0.4092(3) 0.24554(19)
C11 C 0.20775(15) 0.2782(3) 0.28150(18)
C12 C 0.51510(16) 0.3295(4) 0.44196(19)
C13 C 0.52969(17) 0.1079(4) 0.5257(2)
H3 H 0.509589 0.147860 0.527741
C14 C 0.22658(17) 0.1208(4) 0.3068(2)
H4 H 0.250155 0.141816 0.323291
C15 C 0.62663(18) 0.2641(4) 0.3880(2)
H5 H 0.635171 0.224865 0.411904
C16 C 0.46852(18) 0.4068(4) 0.4792(2)
H6 H 0.479913 0.378890 0.505953
C17 C 0.21784(18) 0.0298(4) 0.3052(2)
C18 C 0.59079(16) 0.3027(4) 0.38169(19)
C19 C 0.53660(17) 0.0329(4) 0.55258(19)
H8 H 0.520650 0.022255 0.572650
C20 C 0.56499(16) 0.2864(4) 0.41251(19)
C21 C 0.16585(18) 0.1453(4) 0.2607(2)
H9 H 0.146979 0.183780 0.244614
C22 C 0.65006(19) 0.2838(4) 0.3587(2)
H10 H 0.674753 0.258137 0.363799
C23 C 0.15944(19) 0.0543(4) 0.2613(2)
H11 H 0.135817 0.031687 0.245668
C24 C 0.29559(19) 0.4025(4) 0.3718(2)
H12 H 0.289681 0.342671 0.378139
C25 C 0.28484(17) 0.5339(4) 0.3265(2)
H13 H 0.271489 0.565074 0.301565
C26 C 0.3243(2) 0.4490(4) 0.3994(2)
H14 H 0.337751 0.420073 0.424955
C27 C 0.4642(2) 0.4305(5) 0.4023(2)
H15 H 0.472812 0.419762 0.376106
C28 C 0.31423(18) 0.5755(4) 0.3558(2)
H16 H 0.320492 0.635641 0.350550
C29 C 0.43798(17) 0.4644(4) 0.4771(2)
H17 H 0.428920 0.476262 0.502876
C30 C 0.5798(2) 0.3596(5) 0.3458(2)
H18 H 0.555695 0.388292 0.340753
C31 C 0.4337(2) 0.4858(5) 0.4028(2)
H19 H 0.421108 0.512432 0.376197
C32 C 0.6045(2) 0.3740(6) 0.3174(3)
H20 H 0.596259 0.411222 0.292718
C33 C 0.1187(2) 0.4666(4) 0.1466(3)
H21 H 0.099730 0.435891 0.126192
C34 C 0.5802(3) 0.0611(5) 0.4929(3)
H22 H 0.595354 0.067750 0.471689
C36 C 0.1419(2) 0.4173(4) 0.1790(3)
H24 H 0.138932 0.354228 0.180404
N13 N 0.68518(14) 0.4963(3) 0.28295(16)
N14 N 0.06480(14) 0.5248(3) 0.05125(16)
N1_2 N 0.72380(13) 0.9507(3) 0.27122(16)
N2_2 N 0.68459(13) 0.8228(3) 0.24996(16)
N5_2 N 0.73736(13) 0.8131(3) 0.31025(16)
C1_2 C 0.98231(16) 0.8903(4) 0.44167(19)
C3_2 C 0.66989(17) 0.9609(4) 0.2096(2)
C4_2 C 0.69975(16) 0.6805(3) 0.28353(18)
C6_2 C 0.77542(16) 0.9459(4) 0.33430(19)
C7_2 C 0.74374(16) 0.9006(4) 0.30350(19)
C10_2 C 0.69416(16) 0.9092(3) 0.24554(19)
C11_2 C 0.70775(15) 0.7782(3) 0.28150(18)
C14_2 C 0.72658(17) 0.6208(4) 0.3068(2)
H4_2 H 0.750155 0.641816 0.323291
C16_2 C 0.96852(18) 0.9068(4) 0.4792(2)
H6_2 H 0.979913 0.878890 0.505953
C17_2 C 0.71784(18) 0.5298(4) 0.3052(2)
H7 H 0.736133 0.489473 0.320905
C21_2 C 0.66585(18) 0.6453(4) 0.2607(2)
H9_2 H 0.646979 0.683780 0.244614
C23_2 C 0.65944(19) 0.5543(4) 0.2613(2)
H11_2 H 0.635817 0.531687 0.245668
C24_2 C 0.79559(19) 0.9025(4) 0.3718(2)
H12_2 H 0.789681 0.842671 0.378139
C26_2 C 0.8243(2) 0.9490(4) 0.3994(2)
H14_2 H 0.837751 0.920073 0.424955
C27_2 C 0.9642(2) 0.9305(5) 0.4023(2)
H15_2 H 0.972812 0.919762 0.376106
C29_2 C 0.93798(17) 0.9644(4) 0.4771(2)
H17_2 H 0.928920 0.976262 0.502876
C31_2 C 0.9337(2) 0.9858(5) 0.4028(2)
C33_2 C 0.6187(2) 0.9666(4) 0.1466(3)
H21_2 H 0.599730 0.935891 0.126192
C36_2 C 0.6419(2) 0.9173(4) 0.1790(3)
H24_2 H 0.638932 0.854228 0.180404
C13_2 C 0.02969(17) 0.3921(4) 0.0257(2)
H3_2 H 0.009589 0.352140 0.027741
C19_2 C 0.03660(17) 0.4671(4) 0.05258(19)
H8_2 H 0.020650 0.477745 0.072650
C35 C 0.0857(3) 0.5114(5) 0.0206(3)
H23 H 0.104913 0.553547 0.018055
N4 N 0.18518(14) 0.9963(3) 0.28295(16)
N8 N 0.56480(14) 0.9752(3) 0.55125(16)
H7_2 H 0.236133 0.989473 0.320905
C35_2 C 0.5857(3) 0.9886(5) 0.5206(3)
H23_2 H 0.604913 0.946453 0.518055
Zn4 Zn 0.58084(2) 0.87471(4) 0.59814(2)
Zn5 Zn 0.17241(2) 0.85953(4) 0.27709(2)
I3_2 I 0.23301(2) 0.76709(3) 0.30025(2)
I4_2 I 0.12817(2) 0.84330(3) 0.20159(2)
N3_2 N 0.01998(13) 0.7616(3) 0.47113(15)
N6_2 N 0.07167(13) 0.7135(3) 0.43865(15)
N8_2 N 0.06480(14) 0.4752(3) 0.55125(16)
N9_2 N 0.03684(13) 0.8446(3) 0.41231(16)
N11_2 N 0.13945(15) 0.8371(3) 0.32369(18)
C5_2 C 0.04795(16) 0.7049(4) 0.46680(18)
C8_2 C 0.05287(17) 0.6237(4) 0.49560(19)
C12_2 C 0.01510(16) 0.8295(4) 0.44196(19)
C13_3 C 0.02969(17) 0.6079(4) 0.5257(2)
H3_3 H 0.009589 0.647860 0.527741
C15_2 C 0.12663(18) 0.7641(4) 0.3880(2)
H5_2 H 0.135171 0.724865 0.411904
C18_2 C 0.09079(16) 0.8027(4) 0.38169(19)
C19_3 C 0.03660(17) 0.5329(4) 0.55258(19)
H8_3 H 0.020650 0.522255 0.572650
C20_2 C 0.06499(16) 0.7864(4) 0.41251(19)
C22_2 C 0.15006(19) 0.7838(4) 0.3587(2)
H10_2 H 0.174753 0.758137 0.363799
C30_2 C 0.0798(2) 0.8596(5) 0.3458(2)
H18_2 H 0.055695 0.888292 0.340753
C32_2 C 0.1045(2) 0.8740(6) 0.3174(3)
H20_2 H 0.096259 0.911222 0.292718
C34_2 C 0.0802(3) 0.5611(5) 0.4929(3)
H22_2 H 0.095354 0.567750 0.471689
C35_3 C 0.0857(3) 0.4886(5) 0.5206(3)
H23_3 H 0.104913 0.446453 0.518055
Zn4_2 Zn 0.08084(2) 0.37471(4) 0.59814(2)
I1_2 I 0.11628(2) 0.25692(3) 0.56328(2)
I2_2 I 0.02646(2) 0.34715(3) 0.63767(2)
I3_3 I 0.73301(2) 0.73291(3) 0.80025(2)
I4_3 I 0.62817(2) 0.65670(3) 0.70159(2)
I6_2 I 0.39853(2) 0.26787(4) 0.89933(3)
Zn2_2 Zn 0.67241(2) 0.64047(4) 0.77709(2)
Zn3_2 Zn 0.37681(2) 0.40458(5) 0.93610(3)
N1_3 N 0.22380(13) 0.5493(3) 0.77122(16)
N2_3 N 0.18459(13) 0.6772(3) 0.74996(16)
N3_3 N 0.51998(13) 0.7384(3) 0.97113(15)
N5_3 N 0.23736(13) 0.6869(3) 0.81025(16)
N6_3 N 0.57167(13) 0.7865(3) 0.93865(15)
N7_2 N 0.12160(14) 0.4455(3) 0.64284(17)
N9_3 N 0.53684(13) 0.6554(3) 0.91231(16)
N10_2 N 0.42082(13) 0.4960(3) 0.93983(17)
N11_3 N 0.63945(15) 0.6629(3) 0.82369(18)
N12_2 N 0.33399(14) 0.4662(3) 0.89129(18)
C1_3 C 0.48231(16) 0.6097(4) 0.94167(19)
C2_2 C 0.17386(17) 0.4476(4) 0.7047(2)
H1_2 H 0.193121 0.415347 0.723915
C3_3 C 0.16989(17) 0.5391(4) 0.7096(2)
C4_3 C 0.19975(16) 0.8195(3) 0.78353(18)
C5_3 C 0.54795(16) 0.7951(4) 0.96680(18)
C6_3 C 0.27542(16) 0.5541(4) 0.83430(19)
C7_3 C 0.24374(16) 0.5994(4) 0.80350(19)
C8_3 C 0.55287(17) 0.8763(4) 0.99560(19)
C9_2 C 0.14904(18) 0.4036(4) 0.6709(2)
H2_2 H 0.151856 0.340838 0.667864
C10_3 C 0.19416(16) 0.5908(3) 0.74554(19)
C11_3 C 0.20775(15) 0.7218(3) 0.78150(18)
C12_3 C 0.51510(16) 0.6705(4) 0.94196(19)
C14_3 C 0.22658(17) 0.8792(4) 0.8068(2)
H4_3 H 0.250155 0.858184 0.823291
C15_3 C 0.62663(18) 0.7359(4) 0.8880(2)
H5_3 H 0.635171 0.775135 0.911904
C16_3 C 0.46852(18) 0.5932(4) 0.9792(2)
C17_3 C 0.21784(18) 0.9702(4) 0.8052(2)
C18_3 C 0.59079(16) 0.6973(4) 0.88169(19)
C20_3 C 0.56499(16) 0.7136(4) 0.91251(19)
C21_3 C 0.16585(18) 0.8547(4) 0.7607(2)
H9_3 H 0.146979 0.816220 0.744614
C22_3 C 0.65006(19) 0.7162(4) 0.8587(2)
H10_3 H 0.674753 0.741863 0.863799
C23_3 C 0.15944(19) 0.9457(4) 0.7613(2)
H11_3 H 0.135817 0.968313 0.745668
C24_3 C 0.29559(19) 0.5975(4) 0.8718(2)
H12_3 H 0.289681 0.657329 0.878139
C25_2 C 0.28484(17) 0.4661(4) 0.8265(2)
H13_2 H 0.271489 0.434926 0.801565
C26_3 C 0.3243(2) 0.5510(4) 0.8994(2)
H14_3 H 0.337751 0.579927 0.924955
C27_3 C 0.4642(2) 0.5695(5) 0.9023(2)
H15_3 H 0.472812 0.580238 0.876106
C28_2 C 0.31423(18) 0.4245(4) 0.8558(2)
H16_2 H 0.320492 0.364359 0.850550
C29_3 C 0.43798(17) 0.5356(4) 0.9771(2)
C30_3 C 0.5798(2) 0.6404(5) 0.8458(2)
H18_3 H 0.555695 0.611708 0.840753
C31_3 C 0.4337(2) 0.5142(5) 0.9028(2)
H19_2 H 0.421108 0.487568 0.876197
C32_3 C 0.6045(2) 0.6260(6) 0.8174(3)
H20_3 H 0.596259 0.588778 0.792718
C33_3 C 0.1187(2) 0.5334(4) 0.6466(3)
H21_3 H 0.099730 0.564109 0.626192
C34_3 C 0.5802(3) 0.9389(5) 0.9929(3)
H22_3 H 0.595354 0.932250 0.971689
C36_3 C 0.1419(2) 0.5827(4) 0.6790(3)
H24_3 H 0.138932 0.645772 0.680404
N13_2 N 0.68518(14) 0.5037(3) 0.78295(16)
N1_4 N 0.72380(13) 0.0493(3) 0.77122(16)
N2_4 N 0.68459(13) 0.1772(3) 0.74996(16)
N5_4 N 0.73736(13) 0.1869(3) 0.81025(16)
C1_4 C 0.98231(16) 0.1097(4) 0.94167(19)
C3_4 C 0.66989(17) 0.0391(4) 0.7096(2)
C4_4 C 0.69975(16) 0.3195(3) 0.78353(18)
C6_4 C 0.77542(16) 0.0541(4) 0.83430(19)
C7_4 C 0.74374(16) 0.0994(4) 0.80350(19)
C10_4 C 0.69416(16) 0.0908(3) 0.74554(19)
C11_4 C 0.70775(15) 0.2218(3) 0.78150(18)
C14_4 C 0.72658(17) 0.3792(4) 0.8068(2)
H4_4 H 0.750155 0.358184 0.823291
C16_4 C 0.96852(18) 0.0932(4) 0.9792(2)
C17_4 C 0.71784(18) 0.4702(4) 0.8052(2)
H7_3 H 0.736133 0.510527 0.820905
C21_4 C 0.66585(18) 0.3547(4) 0.7607(2)
H9_4 H 0.646979 0.316220 0.744614
C23_4 C 0.65944(19) 0.4457(4) 0.7613(2)
H11_4 H 0.635817 0.468313 0.745668
C24_4 C 0.79559(19) 0.0975(4) 0.8718(2)
H12_4 H 0.789681 0.157329 0.878139
C26_4 C 0.8243(2) 0.0510(4) 0.8994(2)
H14_4 H 0.837751 0.079927 0.924955
C27_4 C 0.9642(2) 0.0695(5) 0.9023(2)
H15_4 H 0.972812 0.080238 0.876106
C29_4 C 0.93798(17) 0.0356(4) 0.9771(2)
C31_4 C 0.9337(2) 0.0142(5) 0.9028(2)
C33_4 C 0.6187(2) 0.0334(4) 0.6466(3)
H21_4 H 0.599730 0.064109 0.626192
C36_4 C 0.6419(2) 0.0827(4) 0.6790(3)
H24_4 H 0.638932 0.145772 0.680404
I1_3 I 0.61628(2) 0.75692(3) 0.56328(2)
I2_3 I 0.52646(2) 0.84715(3) 0.63767(2)
I6_3 I 0.89853(2) 0.76787(4) 0.89933(3)
Zn3_3 Zn 0.87681(2) 0.90458(5) 0.93610(3)
N7_3 N 0.62160(14) 0.9455(3) 0.64284(17)
N10_3 N 0.92082(13) 0.9960(3) 0.93983(17)
N12_3 N 0.83399(14) 0.9662(3) 0.89129(18)
C2_3 C 0.67386(17) 0.9476(4) 0.7047(2)
H1_3 H 0.693121 0.915347 0.723915
C9_3 C 0.64904(18) 0.9036(4) 0.6709(2)
H2_3 H 0.651856 0.840838 0.667864
C25_3 C 0.78484(17) 0.9661(4) 0.8265(2)
H13_3 H 0.771489 0.934926 0.801565
C28_3 C 0.81423(18) 0.9245(4) 0.8558(2)
H16_3 H 0.820492 0.864359 0.850550
H19_3 H 0.921108 0.987568 0.876197
I1_4 I 0.88372(2) 0.74308(3) 0.43672(2)
I2_4 I 0.97354(2) 0.65285(3) 0.36233(2)
I3_4 I 0.26699(2) 0.26709(3) 0.19975(2)
I4_4 I 0.37183(2) 0.34330(3) 0.29841(2)
I6_4 I 0.60147(2) 0.73213(4) 0.10067(3)
Zn1_2 Zn 0.91916(2) 0.62529(4) 0.40186(2)
Zn2_3 Zn 0.32759(2) 0.35953(4) 0.22291(2)
Zn3_4 Zn 0.62319(2) 0.59542(5) 0.06390(3)
N1_5 N 0.77620(13) 0.4507(3) 0.22878(16)
N2_5 N 0.81541(13) 0.3228(3) 0.25004(16)
N3_4 N 0.48002(13) 0.2616(3) 0.02887(15)
N5_5 N 0.76264(13) 0.3131(3) 0.18975(16)
N6_4 N 0.42833(13) 0.2135(3) 0.06135(15)
N7_4 N 0.87840(14) 0.5545(3) 0.35716(17)
N9_4 N 0.46316(13) 0.3446(3) 0.08769(16)
N10_4 N 0.57918(13) 0.5040(3) 0.06017(17)
N11_4 N 0.36055(15) 0.3371(3) 0.17631(18)
N12_4 N 0.66601(14) 0.5338(3) 0.10871(18)
C1_5 C 0.51769(16) 0.3903(4) 0.05833(19)
C2_4 C 0.82614(17) 0.5524(4) 0.2953(2)
H1_4 H 0.806879 0.584653 0.276085
C3_5 C 0.83011(17) 0.4609(4) 0.2904(2)
C4_5 C 0.80025(16) 0.1805(3) 0.21647(18)
C5_4 C 0.45205(16) 0.2049(4) 0.03320(18)
C6_5 C 0.72458(16) 0.4459(4) 0.16570(19)
C7_5 C 0.75626(16) 0.4006(4) 0.19650(19)
C8_4 C 0.44713(17) 0.1237(4) 0.00440(19)
C9_4 C 0.85096(18) 0.5964(4) 0.3291(2)
H2_4 H 0.848144 0.659162 0.332136
C10_5 C 0.80584(16) 0.4092(3) 0.25446(19)
C11_5 C 0.79225(15) 0.2782(3) 0.21850(18)
C12_4 C 0.48490(16) 0.3295(4) 0.05804(19)
C14_5 C 0.77342(17) 0.1208(4) 0.1932(2)
H4_5 H 0.749845 0.141816 0.176709
C15_4 C 0.37337(18) 0.2641(4) 0.1120(2)
H5_4 H 0.364829 0.224865 0.088096
C16_5 C 0.53148(18) 0.4068(4) 0.0208(2)
C17_5 C 0.78216(18) 0.0298(4) 0.1948(2)
C18_4 C 0.40921(16) 0.3027(4) 0.11831(19)
C20_4 C 0.43501(16) 0.2864(4) 0.08749(19)
C21_5 C 0.83415(18) 0.1453(4) 0.2393(2)
H9_5 H 0.853021 0.183780 0.255386
C22_4 C 0.34994(19) 0.2838(4) 0.1413(2)
H10_4 H 0.325247 0.258137 0.136201
C23_5 C 0.84056(19) 0.0543(4) 0.2387(2)
H11_5 H 0.864183 0.031687 0.254332
C24_5 C 0.70441(19) 0.4025(4) 0.1282(2)
H12_5 H 0.710319 0.342671 0.121861
C25_4 C 0.71516(17) 0.5339(4) 0.1735(2)
H13_4 H 0.728511 0.565074 0.198435
C26_5 C 0.6757(2) 0.4490(4) 0.1006(2)
H14_5 H 0.662249 0.420073 0.075045
C27_5 C 0.5358(2) 0.4305(5) 0.0977(2)
H15_5 H 0.527188 0.419762 0.123894
C28_4 C 0.68577(18) 0.5755(4) 0.1442(2)
H16_4 H 0.679508 0.635641 0.149450
C29_5 C 0.56202(17) 0.4644(4) 0.0229(2)
C30_4 C 0.4202(2) 0.3596(5) 0.1542(2)
H18_4 H 0.444305 0.388292 0.159247
C31_5 C 0.5663(2) 0.4858(5) 0.0972(2)
H19_4 H 0.578892 0.512432 0.123803
C32_4 C 0.3955(2) 0.3740(6) 0.1826(3)
H20_4 H 0.403741 0.411222 0.207282
C33_5 C 0.8813(2) 0.4666(4) 0.3534(3)
H21_5 H 0.900270 0.435891 0.373808
C34_4 C 0.4198(3) 0.0611(5) 0.0071(3)
H22_4 H 0.404646 0.067750 0.028311
C36_5 C 0.8581(2) 0.4173(4) 0.3210(3)
H24_5 H 0.861068 0.354228 0.319596
N13_3 N 0.31482(14) 0.4963(3) 0.21705(16)
N14_2 N 0.93520(14) 0.5248(3) 0.44875(16)
I1_5 I 0.38372(2) 0.24308(3) 0.43672(2)
I2_5 I 0.47354(2) 0.15285(3) 0.36233(2)
I6_5 I 0.10147(2) 0.23213(4) 0.10067(3)
Zn1_3 Zn 0.41916(2) 0.12529(4) 0.40186(2)
Zn3_5 Zn 0.12319(2) 0.09542(5) 0.06390(3)
N7_5 N 0.37840(14) 0.0545(3) 0.35716(17)
N10_5 N 0.07918(13) 0.0040(3) 0.06017(17)
N12_5 N 0.16601(14) 0.0338(3) 0.10871(18)
C2_5 C 0.32614(17) 0.0524(4) 0.2953(2)
H1_5 H 0.306879 0.084653 0.276085
C9_5 C 0.35096(18) 0.0964(4) 0.3291(2)
H2_5 H 0.348144 0.159162 0.332136
C25_5 C 0.21516(17) 0.0339(4) 0.1735(2)
H13_5 H 0.228511 0.065074 0.198435
C28_5 C 0.18577(18) 0.0755(4) 0.1442(2)
H16_5 H 0.179508 0.135641 0.149450
H19_5 H 0.078892 0.012432 0.123803
N14_3 N 0.43520(14) 0.0248(3) 0.44875(16)
N1_6 N 0.27620(13) 0.9507(3) 0.22878(16)
N2_6 N 0.31541(13) 0.8228(3) 0.25004(16)
N5_6 N 0.26264(13) 0.8131(3) 0.18975(16)
C1_6 C 0.01769(16) 0.8903(4) 0.05833(19)
C3_6 C 0.33011(17) 0.9609(4) 0.2904(2)
C4_6 C 0.30025(16) 0.6805(3) 0.21647(18)
C6_6 C 0.22458(16) 0.9459(4) 0.16570(19)
C7_6 C 0.25626(16) 0.9006(4) 0.19650(19)
C10_6 C 0.30584(16) 0.9092(3) 0.25446(19)
C11_6 C 0.29225(15) 0.7782(3) 0.21850(18)
C14_6 C 0.27342(17) 0.6208(4) 0.1932(2)
H4_6 H 0.249845 0.641816 0.176709
C16_6 C 0.03148(18) 0.9068(4) 0.0208(2)
C17_6 C 0.28216(18) 0.5298(4) 0.1948(2)
H7_4 H 0.263867 0.489473 0.179095
C21_6 C 0.33415(18) 0.6453(4) 0.2393(2)
H9_6 H 0.353021 0.683780 0.255386
C23_6 C 0.34056(19) 0.5543(4) 0.2387(2)
H11_6 H 0.364183 0.531687 0.254332
C24_6 C 0.20441(19) 0.9025(4) 0.1282(2)
H12_6 H 0.210319 0.842671 0.121861
C26_6 C 0.1757(2) 0.9490(4) 0.1006(2)
H14_6 H 0.162249 0.920073 0.075045
C27_6 C 0.0358(2) 0.9305(5) 0.0977(2)
H15_6 H 0.027188 0.919762 0.123894
C29_6 C 0.06202(17) 0.9644(4) 0.0229(2)
C31_6 C 0.0663(2) 0.9858(5) 0.0972(2)
C33_6 C 0.3813(2) 0.9666(4) 0.3534(3)
H21_6 H 0.400270 0.935891 0.373808
C36_6 C 0.3581(2) 0.9173(4) 0.3210(3)
H24_6 H 0.361068 0.854228 0.319596
N4_2 N 0.81482(14) 0.0037(3) 0.71705(16)
H7_5 H 0.763867 0.010527 0.679095
C35_4 C 0.4143(3) 0.0114(5) 0.4794(3)
H23_4 H 0.395087 0.053547 0.481945
Zn5_2 Zn 0.82759(2) 0.14047(4) 0.72291(2)
I3_5 I 0.76699(2) 0.23291(3) 0.69975(2)
I4_5 I 0.87183(2) 0.15670(3) 0.79841(2)
N3_5 N 0.98002(13) 0.2384(3) 0.52887(15)
N6_5 N 0.92833(13) 0.2865(3) 0.56135(15)
N9_5 N 0.96316(13) 0.1554(3) 0.58769(16)
N11_5 N 0.86055(15) 0.1629(3) 0.67631(18)
C5_5 C 0.95205(16) 0.2951(4) 0.53320(18)
C8_5 C 0.94713(17) 0.3763(4) 0.50440(19)
C12_5 C 0.98490(16) 0.1705(4) 0.55804(19)
C13_4 C 0.97031(17) 0.3921(4) 0.4743(2)
H3_4 H 0.990411 0.352140 0.472259
C15_5 C 0.87337(18) 0.2359(4) 0.6120(2)
H5_5 H 0.864829 0.275135 0.588096
C18_5 C 0.90921(16) 0.1973(4) 0.61831(19)
C19_4 C 0.96340(17) 0.4671(4) 0.44742(19)
H8_4 H 0.979350 0.477745 0.427350
C20_5 C 0.93501(16) 0.2136(4) 0.58749(19)
C22_5 C 0.84994(19) 0.2162(4) 0.6413(2)
H10_5 H 0.825247 0.241863 0.636201
C30_5 C 0.9202(2) 0.1404(5) 0.6542(2)
H18_5 H 0.944305 0.111708 0.659247
C32_5 C 0.8955(2) 0.1260(6) 0.6826(3)
H20_5 H 0.903741 0.088778 0.707282
C34_5 C 0.9198(3) 0.4389(5) 0.5071(3)
H22_5 H 0.904646 0.432250 0.528311
C35_5 C 0.9143(3) 0.5114(5) 0.4794(3)
H23_5 H 0.895087 0.553547 0.481945
I5_2 I 0.64246(2) 0.59823(7) 0.98963(2)
C13_5 C 0.47031(17) 0.1079(4) 0.9743(2)
H3_5 H 0.490411 0.147860 0.972259
H6_3 H 0.520087 0.378890 0.994047
C19_5 C 0.46340(17) 0.0329(4) 0.94742(19)
H8_5 H 0.479350 0.022255 0.927350
H17_3 H 0.571080 0.476262 0.997124
N4_3 N 0.81482(14) 0.9963(3) 0.21705(16)
H7_6 H 0.763867 0.989473 0.179095
Zn5_3 Zn 0.82759(2) 0.85953(4) 0.22291(2)
I3_6 I 0.76699(2) 0.76709(3) 0.19975(2)
I4_6 I 0.87183(2) 0.84330(3) 0.29841(2)
N3_6 N 0.98002(13) 0.7616(3) 0.02887(15)
N6_6 N 0.92833(13) 0.7135(3) 0.06135(15)
N9_6 N 0.96316(13) 0.8446(3) 0.08769(16)
N11_6 N 0.86055(15) 0.8371(3) 0.17631(18)
C5_6 C 0.95205(16) 0.7049(4) 0.03320(18)
C8_6 C 0.94713(17) 0.6237(4) 0.00440(19)
C12_6 C 0.98490(16) 0.8295(4) 0.05804(19)
C15_6 C 0.87337(18) 0.7641(4) 0.1120(2)
H5_6 H 0.864829 0.724865 0.088096
C18_6 C 0.90921(16) 0.8027(4) 0.11831(19)
C20_6 C 0.93501(16) 0.7864(4) 0.08749(19)
C22_6 C 0.84994(19) 0.7838(4) 0.1413(2)
H10_6 H 0.825247 0.758137 0.136201
C30_6 C 0.9202(2) 0.8596(5) 0.1542(2)
H18_6 H 0.944305 0.888292 0.159247
C32_6 C 0.8955(2) 0.8740(6) 0.1826(3)
H20_6 H 0.903741 0.911222 0.207282
C34_6 C 0.9198(3) 0.5611(5) 0.0071(3)
H22_6 H 0.904646 0.567750 0.028311
N8_3 N 0.43520(14) 0.9752(3) 0.94875(16)
C35_6 C 0.4143(3) 0.9886(5) 0.9794(3)
H23_6 H 0.395087 0.946453 0.981945
Zn4_3 Zn 0.41916(2) 0.87471(4) 0.90186(2)
I1_6 I 0.38372(2) 0.75692(3) 0.93672(2)
I2_6 I 0.47354(2) 0.84715(3) 0.86233(2)
I5_3 I 0.14246(2) 0.90177(7) 0.48963(2)
I6_6 I 0.10147(2) 0.76787(4) 0.60067(3)
Zn3_6 Zn 0.12319(2) 0.90458(5) 0.56390(3)
N7_6 N 0.37840(14) 0.9455(3) 0.85716(17)
N10_6 N 0.07918(13) 0.9960(3) 0.56017(17)
N12_6 N 0.16601(14) 0.9662(3) 0.60871(18)
C2_6 C 0.32614(17) 0.9476(4) 0.7953(2)
H1_6 H 0.306879 0.915347 0.776085
C9_6 C 0.35096(18) 0.9036(4) 0.8291(2)
H2_6 H 0.348144 0.840838 0.832136
C25_6 C 0.21516(17) 0.9661(4) 0.6735(2)
H13_6 H 0.228511 0.934926 0.698435
C28_6 C 0.18577(18) 0.9245(4) 0.6442(2)
H16_6 H 0.179508 0.864359 0.649450
H19_6 H 0.078892 0.987568 0.623803
I1_7 I 0.61628(2) 0.24308(3) 0.06328(2)
I2_7 I 0.52646(2) 0.15285(3) 0.13767(2)
I5_4 I 0.85754(2) 0.09823(7) 0.51037(2)
I6_7 I 0.89853(2) 0.23213(4) 0.39933(3)
Zn1_4 Zn 0.58084(2) 0.12529(4) 0.09814(2)
Zn3_7 Zn 0.87681(2) 0.09542(5) 0.43610(3)
N7_7 N 0.62160(14) 0.0545(3) 0.14284(17)
N10_7 N 0.92082(13) 0.0040(3) 0.43983(17)
N12_7 N 0.83399(14) 0.0338(3) 0.39129(18)
C2_7 C 0.67386(17) 0.0524(4) 0.2047(2)
H1_7 H 0.693121 0.084653 0.223915
C9_7 C 0.64904(18) 0.0964(4) 0.1709(2)
H2_7 H 0.651856 0.159162 0.167864
C25_7 C 0.78484(17) 0.0339(4) 0.3265(2)
H13_7 H 0.771489 0.065074 0.301565
C28_7 C 0.81423(18) 0.0755(4) 0.3558(2)
H16_7 H 0.820492 0.135641 0.350550
H19_7 H 0.921108 0.012432 0.376197
N14_4 N 0.56480(14) 0.0248(3) 0.05125(16)
C35_7 C 0.5857(3) 0.0114(5) 0.0206(3)
H23_7 H 0.604913 0.053547 0.018055
I5_5 I 0.14246(2) 0.09823(7) 0.98963(2)
H6_4 H 0.020087 0.878890 0.994047
H17_4 H 0.071080 0.976262 0.997124
N8_4 N 0.93520(14) 0.4752(3) 0.94875(16)
C13_6 C 0.97031(17) 0.6079(4) 0.9743(2)
H3_6 H 0.990411 0.647860 0.972259
C19_6 C 0.96340(17) 0.5329(4) 0.94742(19)
H8_6 H 0.979350 0.522255 0.927350
C35_8 C 0.9143(3) 0.4886(5) 0.9794(3)
H23_8 H 0.895087 0.446453 0.981945
Zn4_4 Zn 0.91916(2) 0.37471(4) 0.90186(2)
I1_8 I 0.88372(2) 0.25692(3) 0.93672(2)
I2_8 I 0.97354(2) 0.34715(3) 0.86233(2)
I3_7 I 0.26699(2) 0.73291(3) 0.69975(2)
I4_7 I 0.37183(2) 0.65670(3) 0.79841(2)
I5_6 I 0.64246(2) 0.40177(7) 0.48963(2)
I6_8 I 0.60147(2) 0.26787(4) 0.60067(3)
Zn2_4 Zn 0.32759(2) 0.64047(4) 0.72291(2)
Zn3_8 Zn 0.62319(2) 0.40458(5) 0.56390(3)
N1_7 N 0.77620(13) 0.5493(3) 0.72878(16)
N2_7 N 0.81541(13) 0.6772(3) 0.75004(16)
N3_7 N 0.48002(13) 0.7384(3) 0.52887(15)
N5_7 N 0.76264(13) 0.6869(3) 0.68975(16)
N6_7 N 0.42833(13) 0.7865(3) 0.56135(15)
N7_8 N 0.87840(14) 0.4455(3) 0.85716(17)
N9_7 N 0.46316(13) 0.6554(3) 0.58769(16)
N10_8 N 0.57918(13) 0.4960(3) 0.56017(17)
N11_7 N 0.36055(15) 0.6629(3) 0.67631(18)
N12_8 N 0.66601(14) 0.4662(3) 0.60871(18)
C1_7 C 0.51769(16) 0.6097(4) 0.55833(19)
C2_8 C 0.82614(17) 0.4476(4) 0.7953(2)
H1_8 H 0.806879 0.415347 0.776085
C3_7 C 0.83011(17) 0.5391(4) 0.7904(2)
C4_7 C 0.80025(16) 0.8195(3) 0.71647(18)
C5_7 C 0.45205(16) 0.7951(4) 0.53320(18)
C6_7 C 0.72458(16) 0.5541(4) 0.66570(19)
C7_7 C 0.75626(16) 0.5994(4) 0.69650(19)
C8_7 C 0.44713(17) 0.8763(4) 0.50440(19)
C9_8 C 0.85096(18) 0.4036(4) 0.8291(2)
H2_8 H 0.848144 0.340838 0.832136
C10_7 C 0.80584(16) 0.5908(3) 0.75446(19)
C11_7 C 0.79225(15) 0.7218(3) 0.71850(18)
C12_7 C 0.48490(16) 0.6705(4) 0.55804(19)
C13_7 C 0.47031(17) 0.8921(4) 0.4743(2)
H3_7 H 0.490411 0.852140 0.472259
C14_7 C 0.77342(17) 0.8792(4) 0.6932(2)
H4_7 H 0.749845 0.858184 0.676709
C15_7 C 0.37337(18) 0.7359(4) 0.6120(2)
H5_7 H 0.364829 0.775135 0.588096
C16_7 C 0.53148(18) 0.5932(4) 0.5208(2)
H6_5 H 0.520087 0.621110 0.494047
C17_7 C 0.78216(18) 0.9702(4) 0.6948(2)
C18_7 C 0.40921(16) 0.6973(4) 0.61831(19)
C19_7 C 0.46340(17) 0.9671(4) 0.44742(19)
H8_7 H 0.479350 0.977745 0.427350
C20_7 C 0.43501(16) 0.7136(4) 0.58749(19)
C21_7 C 0.83415(18) 0.8547(4) 0.7393(2)
H9_7 H 0.853021 0.816220 0.755386
C22_7 C 0.34994(19) 0.7162(4) 0.6413(2)
H10_7 H 0.325247 0.741863 0.636201
C23_7 C 0.84056(19) 0.9457(4) 0.7387(2)
H11_7 H 0.864183 0.968313 0.754332
C24_7 C 0.70441(19) 0.5975(4) 0.6282(2)
H12_7 H 0.710319 0.657329 0.621861
C25_8 C 0.71516(17) 0.4661(4) 0.6735(2)
H13_8 H 0.728511 0.434926 0.698435
C26_7 C 0.6757(2) 0.5510(4) 0.6006(2)
H14_7 H 0.662249 0.579927 0.575045
C27_7 C 0.5358(2) 0.5695(5) 0.5977(2)
H15_7 H 0.527188 0.580238 0.623894
C28_8 C 0.68577(18) 0.4245(4) 0.6442(2)
H16_8 H 0.679508 0.364359 0.649450
C29_7 C 0.56202(17) 0.5356(4) 0.5229(2)
H17_5 H 0.571080 0.523738 0.497124
C30_7 C 0.4202(2) 0.6404(5) 0.6542(2)
H18_7 H 0.444305 0.611708 0.659247
C31_7 C 0.5663(2) 0.5142(5) 0.5972(2)
H19_8 H 0.578892 0.487568 0.623803
C32_7 C 0.3955(2) 0.6260(6) 0.6826(3)
H20_7 H 0.403741 0.588778 0.707282
C33_7 C 0.8813(2) 0.5334(4) 0.8534(3)
H21_7 H 0.900270 0.564109 0.873808
C34_7 C 0.4198(3) 0.9389(5) 0.5071(3)
H22_7 H 0.404646 0.932250 0.528311
C36_7 C 0.8581(2) 0.5827(4) 0.8210(3)
H24_7 H 0.861068 0.645772 0.819596
N13_4 N 0.31482(14) 0.5037(3) 0.71705(16)
N1_8 N 0.27620(13) 0.0493(3) 0.72878(16)
N2_8 N 0.31541(13) 0.1772(3) 0.75004(16)
N5_8 N 0.26264(13) 0.1869(3) 0.68975(16)
C1_8 C 0.01769(16) 0.1097(4) 0.55833(19)
C3_8 C 0.33011(17) 0.0391(4) 0.7904(2)
C4_8 C 0.30025(16) 0.3195(3) 0.71647(18)
C6_8 C 0.22458(16) 0.0541(4) 0.66570(19)
C7_8 C 0.25626(16) 0.0994(4) 0.69650(19)
C10_8 C 0.30584(16) 0.0908(3) 0.75446(19)
C11_8 C 0.29225(15) 0.2218(3) 0.71850(18)
C14_8 C 0.27342(17) 0.3792(4) 0.6932(2)
H4_8 H 0.249845 0.358184 0.676709
C16_8 C 0.03148(18) 0.0932(4) 0.5208(2)
H6_6 H 0.020087 0.121110 0.494047
C17_8 C 0.28216(18) 0.4702(4) 0.6948(2)
H7_7 H 0.263867 0.510527 0.679095
C21_8 C 0.33415(18) 0.3547(4) 0.7393(2)
H9_8 H 0.353021 0.316220 0.755386
C23_8 C 0.34056(19) 0.4457(4) 0.7387(2)
H11_8 H 0.364183 0.468313 0.754332
C24_8 C 0.20441(19) 0.0975(4) 0.6282(2)
H12_8 H 0.210319 0.157329 0.621861
C26_8 C 0.1757(2) 0.0510(4) 0.6006(2)
H14_8 H 0.162249 0.079927 0.575045
C27_8 C 0.0358(2) 0.0695(5) 0.5977(2)
H15_8 H 0.027188 0.080238 0.623894
C29_8 C 0.06202(17) 0.0356(4) 0.5229(2)
H17_6 H 0.071080 0.023738 0.497124
C31_8 C 0.0663(2) 0.0142(5) 0.5972(2)
C33_8 C 0.3813(2) 0.0334(4) 0.8534(3)
H21_8 H 0.400270 0.064109 0.873808
C36_8 C 0.3581(2) 0.0827(4) 0.8210(3)
H24_8 H 0.361068 0.145772 0.819596
N4_4 N 0.18518(14) 0.0037(3) 0.78295(16)
H7_8 H 0.236133 0.010527 0.820905
Zn5_4 Zn 0.17241(2) 0.14047(4) 0.77709(2)
I3_8 I 0.23301(2) 0.23291(3) 0.80025(2)
I4_8 I 0.12817(2) 0.15670(3) 0.70159(2)
N3_8 N 0.01998(13) 0.2384(3) 0.97113(15)
N6_8 N 0.07167(13) 0.2865(3) 0.93865(15)
N9_8 N 0.03684(13) 0.1554(3) 0.91231(16)
N11_8 N 0.13945(15) 0.1629(3) 0.82369(18)
C5_8 C 0.04795(16) 0.2951(4) 0.96680(18)
C8_8 C 0.05287(17) 0.3763(4) 0.99560(19)
C12_8 C 0.01510(16) 0.1705(4) 0.94196(19)
C15_8 C 0.12663(18) 0.2359(4) 0.8880(2)
H5_8 H 0.135171 0.275135 0.911904
C18_8 C 0.09079(16) 0.1973(4) 0.88169(19)
C20_8 C 0.06499(16) 0.2136(4) 0.91251(19)
C22_8 C 0.15006(19) 0.2162(4) 0.8587(2)
H10_8 H 0.174753 0.241863 0.863799
C30_8 C 0.0798(2) 0.1404(5) 0.8458(2)
H18_8 H 0.055695 0.111708 0.840753
C32_8 C 0.1045(2) 0.1260(6) 0.8174(3)
H20_8 H 0.096259 0.088778 0.792718
C34_8 C 0.0802(3) 0.4389(5) 0.9929(3)
H22_8 H 0.095354 0.432250 0.971689
I5_7 I 0.35754(2) 0.40177(7) 0.01037(2)
C13_8 C 0.52969(17) 0.8921(4) 0.0257(2)
H3_8 H 0.509589 0.852140 0.027741
H6_7 H 0.479913 0.621110 0.005953
C19_8 C 0.53660(17) 0.9671(4) 0.05258(19)
H8_8 H 0.520650 0.977745 0.072650
H17_7 H 0.428920 0.523738 0.002876
H6_8 H 0.979913 0.121110 0.005953
H17_8 H 0.928920 0.023738 0.002876
I5_8 I 0.85754(2) 0.90177(7) 0.01037(2)
loop_
_geom_bond_atom_site_label_1
_geom_bond_atom_site_label_2
_geom_bond_site_symmetry_1
_geom_bond_site_symmetry_2
I1 Zn1 1_555 1_555
I2 Zn1 1_555 1_555
I3 Zn2 1_555 1_555
I4 Zn2 1_555 1_555
I5 Zn3 1_555 1_555
I6 Zn3 1_555 1_555
Zn1 N7 1_555 1_555
Zn2 N11 1_555 1_555
Zn3 N10 1_555 1_555
N1 C7 1_555 1_555
N2 C10 1_555 1_555
N3 C5 1_555 1_555
N5 C7 1_555 1_555
N6 C5 1_555 1_555
N7 C9 1_555 1_555
N9 C12 1_555 1_555
N10 C29 1_555 1_555
N11 C22 1_555 1_555
N12 Zn3 1_555 1_555
C1 C12 1_555 1_555
C2 H1 1_555 1_555
C3 C2 1_555 1_555
C4 C11 1_555 1_555
C5 C8 1_555 1_555
C6 C7 1_555 1_555
C8 C13 1_555 1_555
C9 C2 1_555 1_555
H2 C9 1_555 1_555
C10 N1 1_555 1_555
C11 N2 1_555 1_555
C12 N3 1_555 1_555
C13 H3 1_555 1_555
C14 C4 1_555 1_555
H4 C14 1_555 1_555
C15 H5 1_555 1_555
C16 C1 1_555 1_555
H6 C16 1_555 1_555
C17 C14 1_555 1_555
C18 C15 1_555 1_555
C19 C13 1_555 1_555
H8 C19 1_555 1_555
C20 N6 1_555 1_555
C21 C4 1_555 1_555
H9 C21 1_555 1_555
C22 C15 1_555 1_555
H10 C22 1_555 1_555
H11 C23 1_555 1_555
C24 C6 1_555 1_555
H12 C24 1_555 1_555
C25 C6 1_555 1_555
H13 C25 1_555 1_555
C26 N12 1_555 1_555
H14 C26 1_555 1_555
C27 C1 1_555 1_555
H15 C27 1_555 1_555
C28 N12 1_555 1_555
H16 C28 1_555 1_555
C29 C16 1_555 1_555
H17 C29 1_555 1_555
C30 C18 1_555 1_555
H18 C30 1_555 1_555
C31 N10 1_555 1_555
H19 C31 1_555 1_555
C32 N11 1_555 1_555
H20 C32 1_555 1_555
C33 N7 1_555 1_555
H21 C33 1_555 1_555
C34 C8 1_555 1_555
H22 C34 1_555 1_555
C36 C3 1_555 1_555
H24 C36 1_555 1_555
N13 Zn2 1_555 1_555
N14 Zn1 1_555 1_555
N5 C11 1_555 1_555
N9 C20 1_555 1_555
C3 C10 1_555 1_555
C18 C20 1_555 1_555
C21 C23 1_555 1_555
C24 C26 1_555 1_555
C25 C28 1_555 1_555
C27 C31 1_555 1_555
C30 C32 1_555 1_555
C33 C36 1_555 1_555
N1_2 C7_2 1_555 1_555
N2_2 C10_2 1_555 1_555
N13 C17_2 1_555 1_555
N5_2 C7_2 1_555 1_555
C4_2 C11_2 1_555 1_555
C6_2 C7_2 1_555 1_555
C10_2 N1_2 1_555 1_555
C11_2 N2_2 1_555 1_555
C14_2 C4_2 1_555 1_555
H4_2 C14_2 1_555 1_555
C16_2 C1_2 1_555 1_555
H6_2 C16_2 1_555 1_555
C17_2 C14_2 1_555 1_555
H7 C17_2 1_555 1_555
C21_2 C4_2 1_555 1_555
H9_2 C21_2 1_555 1_555
C23_2 N13 1_555 1_555
H11_2 C23_2 1_555 1_555
C24_2 C6_2 1_555 1_555
H12_2 C24_2 1_555 1_555
H14_2 C26_2 1_555 1_555
C27_2 C1_2 1_555 1_555
H15_2 C27_2 1_555 1_555
C29_2 C16_2 1_555 1_555
H17_2 C29_2 1_555 1_555
H21_2 C33_2 1_555 1_555
C36_2 C3_2 1_555 1_555
H24_2 C36_2 1_555 1_555
N5_2 C11_2 1_555 1_555
C3_2 C10_2 1_555 1_555
C21_2 C23_2 1_555 1_555
C24_2 C26_2 1_555 1_555
C27_2 C31_2 1_555 1_555
C33_2 C36_2 1_555 1_555
N14 C19_2 1_555 1_555
C13_2 H3_2 1_555 1_555
C19_2 C13_2 1_555 1_555
H8_2 C19_2 1_555 1_555
C35 N14 1_555 1_555
H23 C35 1_555 1_555
C35_2 N8 1_555 1_555
H23_2 C35_2 1_555 1_555
Zn4 N8 1_555 1_555
Zn5 N4 1_555 1_555
I3_2 Zn5 1_555 1_555
I4_2 Zn5 1_555 1_555
Zn5 N11_2 1_555 1_555
N3_2 C5_2 1_555 1_555
N6_2 C5_2 1_555 1_555
N8_2 C19_3 1_555 1_555
N9_2 C12_2 1_555 1_555
N11_2 C22_2 1_555 1_555
C5_2 C8_2 1_555 1_555
C8_2 C13_3 1_555 1_555
C12_2 N3_2 1_555 1_555
C13_3 H3_3 1_555 1_555
C15_2 H5_2 1_555 1_555
C18_2 C15_2 1_555 1_555
C19_3 C13_3 1_555 1_555
H8_3 C19_3 1_555 1_555
C20_2 N6_2 1_555 1_555
C22_2 C15_2 1_555 1_555
H10_2 C22_2 1_555 1_555
C30_2 C18_2 1_555 1_555
H18_2 C30_2 1_555 1_555
C32_2 N11_2 1_555 1_555
H20_2 C32_2 1_555 1_555
C34_2 C8_2 1_555 1_555
H22_2 C34_2 1_555 1_555
C35_3 N8_2 1_555 1_555
H23_3 C35_3 1_555 1_555
Zn4_2 N8_2 1_555 1_555
N9_2 C20_2 1_555 1_555
C18_2 C20_2 1_555 1_555
C30_2 C32_2 1_555 1_555
C34_2 C35_3 1_555 1_555
I1_2 Zn4_2 1_555 1_555
I2_2 Zn4_2 1_555 1_555
I3_3 Zn2_2 1_555 1_555
I4_3 Zn2_2 1_555 1_555
I6_2 Zn3_2 1_555 1_555
Zn4_2 N7_2 1_555 1_555
Zn2_2 N11_3 1_555 1_555
Zn3_2 N10_2 1_555 1_555
N1_3 C7_3 1_555 1_555
N2_3 C10_3 1_555 1_555
N3_3 C5_3 1_555 1_555
N5_3 C7_3 1_555 1_555
N6_3 C5_3 1_555 1_555
N7_2 C9_2 1_555 1_555
N9_3 C12_3 1_555 1_555
N10_2 C29_3 1_555 1_555
N11_3 C22_3 1_555 1_555
N12_2 Zn3_2 1_555 1_555
C1_3 C12_3 1_555 1_555
C2_2 H1_2 1_555 1_555
C3_3 C2_2 1_555 1_555
C4_3 C11_3 1_555 1_555
C5_3 C8_3 1_555 1_555
C6_3 C7_3 1_555 1_555
C9_2 C2_2 1_555 1_555
H2_2 C9_2 1_555 1_555
C10_3 N1_3 1_555 1_555
C11_3 N2_3 1_555 1_555
C12_3 N3_3 1_555 1_555
C14_3 C4_3 1_555 1_555
H4_3 C14_3 1_555 1_555
C15_3 H5_3 1_555 1_555
C16_3 C1_3 1_555 1_555
C17_3 C14_3 1_555 1_555
C18_3 C15_3 1_555 1_555
C20_3 N6_3 1_555 1_555
C21_3 C4_3 1_555 1_555
H9_3 C21_3 1_555 1_555
C22_3 C15_3 1_555 1_555
H10_3 C22_3 1_555 1_555
H11_3 C23_3 1_555 1_555
C24_3 C6_3 1_555 1_555
H12_3 C24_3 1_555 1_555
C25_2 C6_3 1_555 1_555
H13_2 C25_2 1_555 1_555
C26_3 N12_2 1_555 1_555
H14_3 C26_3 1_555 1_555
C27_3 C1_3 1_555 1_555
H15_3 C27_3 1_555 1_555
C28_2 N12_2 1_555 1_555
H16_2 C28_2 1_555 1_555
C29_3 C16_3 1_555 1_555
C30_3 C18_3 1_555 1_555
H18_3 C30_3 1_555 1_555
C31_3 N10_2 1_555 1_555
H19_2 C31_3 1_555 1_555
C32_3 N11_3 1_555 1_555
H20_3 C32_3 1_555 1_555
C33_3 N7_2 1_555 1_555
H21_3 C33_3 1_555 1_555
C34_3 C8_3 1_555 1_555
H22_3 C34_3 1_555 1_555
C36_3 C3_3 1_555 1_555
H24_3 C36_3 1_555 1_555
N13_2 Zn2_2 1_555 1_555
N5_3 C11_3 1_555 1_555
N9_3 C20_3 1_555 1_555
C3_3 C10_3 1_555 1_555
C18_3 C20_3 1_555 1_555
C21_3 C23_3 1_555 1_555
C24_3 C26_3 1_555 1_555
C25_2 C28_2 1_555 1_555
C27_3 C31_3 1_555 1_555
C30_3 C32_3 1_555 1_555
C33_3 C36_3 1_555 1_555
N1_4 C7_4 1_555 1_555
N2_4 C10_4 1_555 1_555
N13_2 C17_4 1_555 1_555
N5_4 C7_4 1_555 1_555
C4_4 C11_4 1_555 1_555
C6_4 C7_4 1_555 1_555
C10_4 N1_4 1_555 1_555
C11_4 N2_4 1_555 1_555
C14_4 C4_4 1_555 1_555
H4_4 C14_4 1_555 1_555
C16_4 C1_4 1_555 1_555
C17_4 C14_4 1_555 1_555
H7_3 C17_4 1_555 1_555
C21_4 C4_4 1_555 1_555
H9_4 C21_4 1_555 1_555
C23_4 N13_2 1_555 1_555
H11_4 C23_4 1_555 1_555
C24_4 C6_4 1_555 1_555
H12_4 C24_4 1_555 1_555
H14_4 C26_4 1_555 1_555
C27_4 C1_4 1_555 1_555
H15_4 C27_4 1_555 1_555
C29_4 C16_4 1_555 1_555
H21_4 C33_4 1_555 1_555
C36_4 C3_4 1_555 1_555
H24_4 C36_4 1_555 1_555
N5_4 C11_4 1_555 1_555
C3_4 C10_4 1_555 1_555
C21_4 C23_4 1_555 1_555
C24_4 C26_4 1_555 1_555
C27_4 C31_4 1_555 1_555
C33_4 C36_4 1_555 1_555
I1_3 Zn4 1_555 1_555
I2_3 Zn4 1_555 1_555
I6_3 Zn3_3 1_555 1_555
Zn4 N7_3 1_555 1_555
Zn3_3 N10_3 1_555 1_555
N7_3 C9_3 1_555 1_555
N12_3 Zn3_3 1_555 1_555
C2_3 H1_3 1_555 1_555
C9_3 C2_3 1_555 1_555
H2_3 C9_3 1_555 1_555
H13_3 C25_3 1_555 1_555
C28_3 N12_3 1_555 1_555
H16_3 C28_3 1_555 1_555
C25_3 C28_3 1_555 1_555
I1_4 Zn1_2 1_555 1_555
I2_4 Zn1_2 1_555 1_555
I3_4 Zn2_3 1_555 1_555
I4_4 Zn2_3 1_555 1_555
I6_4 Zn3_4 1_555 1_555
Zn1_2 N7_4 1_555 1_555
Zn2_3 N11_4 1_555 1_555
Zn3_4 N10_4 1_555 1_555
N1_5 C7_5 1_555 1_555
N2_5 C10_5 1_555 1_555
N3_4 C5_4 1_555 1_555
N5_5 C7_5 1_555 1_555
N6_4 C5_4 1_555 1_555
N7_4 C9_4 1_555 1_555
N9_4 C12_4 1_555 1_555
N10_4 C29_5 1_555 1_555
N11_4 C22_4 1_555 1_555
N12_4 Zn3_4 1_555 1_555
C1_5 C12_4 1_555 1_555
C2_4 H1_4 1_555 1_555
C3_5 C2_4 1_555 1_555
C4_5 C11_5 1_555 1_555
C5_4 C8_4 1_555 1_555
C6_5 C7_5 1_555 1_555
C9_4 C2_4 1_555 1_555
H2_4 C9_4 1_555 1_555
C10_5 N1_5 1_555 1_555
C11_5 N2_5 1_555 1_555
C12_4 N3_4 1_555 1_555
C14_5 C4_5 1_555 1_555
H4_5 C14_5 1_555 1_555
C15_4 H5_4 1_555 1_555
C16_5 C1_5 1_555 1_555
C17_5 C14_5 1_555 1_555
C18_4 C15_4 1_555 1_555
C20_4 N6_4 1_555 1_555
C21_5 C4_5 1_555 1_555
H9_5 C21_5 1_555 1_555
C22_4 C15_4 1_555 1_555
H10_4 C22_4 1_555 1_555
H11_5 C23_5 1_555 1_555
C24_5 C6_5 1_555 1_555
H12_5 C24_5 1_555 1_555
C25_4 C6_5 1_555 1_555
H13_4 C25_4 1_555 1_555
C26_5 N12_4 1_555 1_555
H14_5 C26_5 1_555 1_555
C27_5 C1_5 1_555 1_555
H15_5 C27_5 1_555 1_555
C28_4 N12_4 1_555 1_555
H16_4 C28_4 1_555 1_555
C29_5 C16_5 1_555 1_555
C30_4 C18_4 1_555 1_555
H18_4 C30_4 1_555 1_555
C31_5 N10_4 1_555 1_555
H19_4 C31_5 1_555 1_555
C32_4 N11_4 1_555 1_555
H20_4 C32_4 1_555 1_555
C33_5 N7_4 1_555 1_555
H21_5 C33_5 1_555 1_555
C34_4 C8_4 1_555 1_555
H22_4 C34_4 1_555 1_555
C36_5 C3_5 1_555 1_555
H24_5 C36_5 1_555 1_555
N13_3 Zn2_3 1_555 1_555
N14_2 Zn1_2 1_555 1_555
N5_5 C11_5 1_555 1_555
N9_4 C20_4 1_555 1_555
C3_5 C10_5 1_555 1_555
C18_4 C20_4 1_555 1_555
C21_5 C23_5 1_555 1_555
C24_5 C26_5 1_555 1_555
C25_4 C28_4 1_555 1_555
C27_5 C31_5 1_555 1_555
C30_4 C32_4 1_555 1_555
C33_5 C36_5 1_555 1_555
I1_5 Zn1_3 1_555 1_555
I2_5 Zn1_3 1_555 1_555
I6_5 Zn3_5 1_555 1_555
Zn1_3 N7_5 1_555 1_555
Zn3_5 N10_5 1_555 1_555
N7_5 C9_5 1_555 1_555
N12_5 Zn3_5 1_555 1_555
C2_5 H1_5 1_555 1_555
C9_5 C2_5 1_555 1_555
H2_5 C9_5 1_555 1_555
H13_5 C25_5 1_555 1_555
C28_5 N12_5 1_555 1_555
H16_5 C28_5 1_555 1_555
N14_3 Zn1_3 1_555 1_555
C25_5 C28_5 1_555 1_555
N1_6 C7_6 1_555 1_555
N2_6 C10_6 1_555 1_555
N13_3 C17_6 1_555 1_555
N5_6 C7_6 1_555 1_555
C4_6 C11_6 1_555 1_555
C6_6 C7_6 1_555 1_555
C10_6 N1_6 1_555 1_555
C11_6 N2_6 1_555 1_555
C14_6 C4_6 1_555 1_555
H4_6 C14_6 1_555 1_555
C16_6 C1_6 1_555 1_555
C17_6 C14_6 1_555 1_555
H7_4 C17_6 1_555 1_555
C21_6 C4_6 1_555 1_555
H9_6 C21_6 1_555 1_555
C23_6 N13_3 1_555 1_555
H11_6 C23_6 1_555 1_555
C24_6 C6_6 1_555 1_555
H12_6 C24_6 1_555 1_555
H14_6 C26_6 1_555 1_555
C27_6 C1_6 1_555 1_555
H15_6 C27_6 1_555 1_555
C29_6 C16_6 1_555 1_555
H21_6 C33_6 1_555 1_555
C36_6 C3_6 1_555 1_555
H24_6 C36_6 1_555 1_555
N5_6 C11_6 1_555 1_555
C3_6 C10_6 1_555 1_555
C21_6 C23_6 1_555 1_555
C24_6 C26_6 1_555 1_555
C27_6 C31_6 1_555 1_555
C33_6 C36_6 1_555 1_555
C35_4 N14_3 1_555 1_555
H23_4 C35_4 1_555 1_555
Zn5_2 N4_2 1_555 1_555
I3_5 Zn5_2 1_555 1_555
I4_5 Zn5_2 1_555 1_555
Zn5_2 N11_5 1_555 1_555
N3_5 C5_5 1_555 1_555
N6_5 C5_5 1_555 1_555
N14_2 C19_4 1_555 1_555
N9_5 C12_5 1_555 1_555
N11_5 C22_5 1_555 1_555
C5_5 C8_5 1_555 1_555
C8_5 C13_4 1_555 1_555
C12_5 N3_5 1_555 1_555
C13_4 H3_4 1_555 1_555
C15_5 H5_5 1_555 1_555
C18_5 C15_5 1_555 1_555
C19_4 C13_4 1_555 1_555
H8_4 C19_4 1_555 1_555
C20_5 N6_5 1_555 1_555
C22_5 C15_5 1_555 1_555
H10_5 C22_5 1_555 1_555
C30_5 C18_5 1_555 1_555
H18_5 C30_5 1_555 1_555
C32_5 N11_5 1_555 1_555
H20_5 C32_5 1_555 1_555
C34_5 C8_5 1_555 1_555
H22_5 C34_5 1_555 1_555
C35_5 N14_2 1_555 1_555
H23_5 C35_5 1_555 1_555
N9_5 C20_5 1_555 1_555
C18_5 C20_5 1_555 1_555
C30_5 C32_5 1_555 1_555
C34_5 C35_5 1_555 1_555
C13_5 H3_5 1_555 1_555
C19_5 C13_5 1_555 1_555
H8_5 C19_5 1_555 1_555
Zn5_3 N4_3 1_555 1_555
I3_6 Zn5_3 1_555 1_555
I4_6 Zn5_3 1_555 1_555
Zn5_3 N11_6 1_555 1_555
N3_6 C5_6 1_555 1_555
N6_6 C5_6 1_555 1_555
N9_6 C12_6 1_555 1_555
N11_6 C22_6 1_555 1_555
C5_6 C8_6 1_555 1_555
C12_6 N3_6 1_555 1_555
C15_6 H5_6 1_555 1_555
C18_6 C15_6 1_555 1_555
C20_6 N6_6 1_555 1_555
C22_6 C15_6 1_555 1_555
H10_6 C22_6 1_555 1_555
C30_6 C18_6 1_555 1_555
H18_6 C30_6 1_555 1_555
C32_6 N11_6 1_555 1_555
H20_6 C32_6 1_555 1_555
C34_6 C8_6 1_555 1_555
H22_6 C34_6 1_555 1_555
N9_6 C20_6 1_555 1_555
C18_6 C20_6 1_555 1_555
C30_6 C32_6 1_555 1_555
C35_6 N8_3 1_555 1_555
H23_6 C35_6 1_555 1_555
Zn4_3 N8_3 1_555 1_555
I1_6 Zn4_3 1_555 1_555
I2_6 Zn4_3 1_555 1_555
I5_3 Zn3_6 1_555 1_555
I6_6 Zn3_6 1_555 1_555
Zn4_3 N7_6 1_555 1_555
Zn3_6 N10_6 1_555 1_555
N7_6 C9_6 1_555 1_555
N12_6 Zn3_6 1_555 1_555
C2_6 H1_6 1_555 1_555
C9_6 C2_6 1_555 1_555
H2_6 C9_6 1_555 1_555
H13_6 C25_6 1_555 1_555
C28_6 N12_6 1_555 1_555
H16_6 C28_6 1_555 1_555
C25_6 C28_6 1_555 1_555
I1_7 Zn1_4 1_555 1_555
I2_7 Zn1_4 1_555 1_555
I5_4 Zn3_7 1_555 1_555
I6_7 Zn3_7 1_555 1_555
Zn1_4 N7_7 1_555 1_555
Zn3_7 N10_7 1_555 1_555
N7_7 C9_7 1_555 1_555
N12_7 Zn3_7 1_555 1_555
C2_7 H1_7 1_555 1_555
C9_7 C2_7 1_555 1_555
H2_7 C9_7 1_555 1_555
H13_7 C25_7 1_555 1_555
C28_7 N12_7 1_555 1_555
H16_7 C28_7 1_555 1_555
N14_4 Zn1_4 1_555 1_555
C25_7 C28_7 1_555 1_555
C35_7 N14_4 1_555 1_555
H23_7 C35_7 1_555 1_555
N8_4 C19_6 1_555 1_555
C13_6 H3_6 1_555 1_555
C19_6 C13_6 1_555 1_555
H8_6 C19_6 1_555 1_555
C35_8 N8_4 1_555 1_555
H23_8 C35_8 1_555 1_555
Zn4_4 N8_4 1_555 1_555
I1_8 Zn4_4 1_555 1_555
I2_8 Zn4_4 1_555 1_555
I3_7 Zn2_4 1_555 1_555
I4_7 Zn2_4 1_555 1_555
I5_6 Zn3_8 1_555 1_555
I6_8 Zn3_8 1_555 1_555
Zn4_4 N7_8 1_555 1_555
Zn2_4 N11_7 1_555 1_555
Zn3_8 N10_8 1_555 1_555
N1_7 C7_7 1_555 1_555
N2_7 C10_7 1_555 1_555
N3_7 C5_7 1_555 1_555
N5_7 C7_7 1_555 1_555
N6_7 C5_7 1_555 1_555
N7_8 C9_8 1_555 1_555
N9_7 C12_7 1_555 1_555
N10_8 C29_7 1_555 1_555
N11_7 C22_7 1_555 1_555
N12_8 Zn3_8 1_555 1_555
C1_7 C12_7 1_555 1_555
C2_8 H1_8 1_555 1_555
C3_7 C2_8 1_555 1_555
C4_7 C11_7 1_555 1_555
C5_7 C8_7 1_555 1_555
C6_7 C7_7 1_555 1_555
C8_7 C13_7 1_555 1_555
C9_8 C2_8 1_555 1_555
H2_8 C9_8 1_555 1_555
C10_7 N1_7 1_555 1_555
C11_7 N2_7 1_555 1_555
C12_7 N3_7 1_555 1_555
C13_7 H3_7 1_555 1_555
C14_7 C4_7 1_555 1_555
H4_7 C14_7 1_555 1_555
C15_7 H5_7 1_555 1_555
C16_7 C1_7 1_555 1_555
H6_5 C16_7 1_555 1_555
C17_7 C14_7 1_555 1_555
C18_7 C15_7 1_555 1_555
C19_7 C13_7 1_555 1_555
H8_7 C19_7 1_555 1_555
C20_7 N6_7 1_555 1_555
C21_7 C4_7 1_555 1_555
H9_7 C21_7 1_555 1_555
C22_7 C15_7 1_555 1_555
H10_7 C22_7 1_555 1_555
H11_7 C23_7 1_555 1_555
C24_7 C6_7 1_555 1_555
H12_7 C24_7 1_555 1_555
C25_8 C6_7 1_555 1_555
H13_8 C25_8 1_555 1_555
C26_7 N12_8 1_555 1_555
H14_7 C26_7 1_555 1_555
C27_7 C1_7 1_555 1_555
H15_7 C27_7 1_555 1_555
C28_8 N12_8 1_555 1_555
H16_8 C28_8 1_555 1_555
C29_7 C16_7 1_555 1_555
H17_5 C29_7 1_555 1_555
C30_7 C18_7 1_555 1_555
H18_7 C30_7 1_555 1_555
C31_7 N10_8 1_555 1_555
H19_8 C31_7 1_555 1_555
C32_7 N11_7 1_555 1_555
H20_7 C32_7 1_555 1_555
C33_7 N7_8 1_555 1_555
H21_7 C33_7 1_555 1_555
C34_7 C8_7 1_555 1_555
H22_7 C34_7 1_555 1_555
C36_7 C3_7 1_555 1_555
H24_7 C36_7 1_555 1_555
N13_4 Zn2_4 1_555 1_555
N5_7 C11_7 1_555 1_555
N9_7 C20_7 1_555 1_555
C3_7 C10_7 1_555 1_555
C18_7 C20_7 1_555 1_555
C21_7 C23_7 1_555 1_555
C24_7 C26_7 1_555 1_555
C25_8 C28_8 1_555 1_555
C27_7 C31_7 1_555 1_555
C30_7 C32_7 1_555 1_555
C33_7 C36_7 1_555 1_555
N1_8 C7_8 1_555 1_555
N2_8 C10_8 1_555 1_555
N13_4 C17_8 1_555 1_555
N5_8 C7_8 1_555 1_555
C4_8 C11_8 1_555 1_555
C6_8 C7_8 1_555 1_555
C10_8 N1_8 1_555 1_555
C11_8 N2_8 1_555 1_555
C14_8 C4_8 1_555 1_555
H4_8 C14_8 1_555 1_555
C16_8 C1_8 1_555 1_555
H6_6 C16_8 1_555 1_555
C17_8 C14_8 1_555 1_555
H7_7 C17_8 1_555 1_555
C21_8 C4_8 1_555 1_555
H9_8 C21_8 1_555 1_555
C23_8 N13_4 1_555 1_555
H11_8 C23_8 1_555 1_555
C24_8 C6_8 1_555 1_555
H12_8 C24_8 1_555 1_555
H14_8 C26_8 1_555 1_555
C27_8 C1_8 1_555 1_555
H15_8 C27_8 1_555 1_555
C29_8 C16_8 1_555 1_555
H17_6 C29_8 1_555 1_555
H21_8 C33_8 1_555 1_555
C36_8 C3_8 1_555 1_555
H24_8 C36_8 1_555 1_555
N5_8 C11_8 1_555 1_555
C3_8 C10_8 1_555 1_555
C21_8 C23_8 1_555 1_555
C24_8 C26_8 1_555 1_555
C27_8 C31_8 1_555 1_555
C33_8 C36_8 1_555 1_555
Zn5_4 N4_4 1_555 1_555
I3_8 Zn5_4 1_555 1_555
I4_8 Zn5_4 1_555 1_555
Zn5_4 N11_8 1_555 1_555
N3_8 C5_8 1_555 1_555
N6_8 C5_8 1_555 1_555
N9_8 C12_8 1_555 1_555
N11_8 C22_8 1_555 1_555
C5_8 C8_8 1_555 1_555
C12_8 N3_8 1_555 1_555
C15_8 H5_8 1_555 1_555
C18_8 C15_8 1_555 1_555
C20_8 N6_8 1_555 1_555
C22_8 C15_8 1_555 1_555
H10_8 C22_8 1_555 1_555
C30_8 C18_8 1_555 1_555
H18_8 C30_8 1_555 1_555
C32_8 N11_8 1_555 1_555
H20_8 C32_8 1_555 1_555
C34_8 C8_8 1_555 1_555
H22_8 C34_8 1_555 1_555
N9_8 C20_8 1_555 1_555
C18_8 C20_8 1_555 1_555
C30_8 C32_8 1_555 1_555
C13_8 H3_8 1_555 1_555
C19_8 C13_8 1_555 1_555
H8_8 C19_8 1_555 1_555

#END
