
###############################################################################
#
# This file contains modified crystal structure data generated from the
# MOF subset of the Cambridge Structural Database (CSD) v543 
# hosted by the Cambridge Crystallographic Data Centre (CCDC).
#
# This work is licensed under the Creative Commons
# Attribution-NonCommercial-ShareAlike 4.0 International License.
# To view a copy of this license, visit
# http://creativecommons.org/licenses/by-nc-sa/4.0/
# or send a letter to
# Creative Commons, PO Box 1866, Mountain View, CA 94042, USA.
#
# CIF created using the CSD Python API on 29 September 2022
# The structure has been converted into the P1 space group
# The structure has a 3D framework
# The original CSD entry TERNOW is in the monoclinic crystal system
# The framework has been calculated to contain at least 10.0% void space
# The void calculation uses a probe of radius 1.32A, grid spacing 0.4
#
###############################################################################

data_TERNOW
_chemical_formula_moiety         '(C288 H192 I48 N92 Zn24)n'
_symmetry_cell_setting           triclinic
_symmetry_space_group_name_H-M   'P 1'
_symmetry_Int_Tables_number      1
_space_group_name_Hall           'P 1'
loop_
_symmetry_equiv_pos_site_id
_symmetry_equiv_pos_as_xyz
1 x,y,z
_cell_length_a                   35.416(3)
_cell_length_b                   14.8953(11)
_cell_length_c                   30.600(2)
_cell_angle_alpha                90
_cell_angle_beta                 101.875(2)
_cell_angle_gamma                90
_cell_volume                     15797
loop_
_atom_site_label
_atom_site_type_symbol
_atom_site_fract_x
_atom_site_fract_y
_atom_site_fract_z
I1 I 0.61555(2) 0.74391(2) 0.55844(2)
I2 I 0.52755(2) 0.64947(3) 0.63629(2)
I3 I 0.73316(2) 0.22953(3) 0.29941(2)
I4 I 0.62884(2) 0.15657(3) 0.19666(2)
Zn1 Zn 0.58169(2) 0.62565(4) 0.59509(2)
Zn3 Zn 0.67180(2) 0.13881(4) 0.27383(2)
N1 N 0.73573(12) 0.3141(3) 0.81250(15)
N2 N 0.72328(12) 0.4518(3) 0.77247(14)
N3 N 0.56567(12) 0.5240(3) 0.54854(14)
N4 N 0.53521(13) 0.1513(3) 0.41030(15)
N5 N 0.51989(12) 0.2353(3) 0.47065(14)
N6 N 0.68383(12) 0.3246(2) 0.75005(14)
N8 N 0.62332(12) 0.5562(3) 0.64022(15)
N10 N 0.57048(13) 0.2825(3) 0.43559(14)
N11 N 0.63762(15) 0.1599(3) 0.31947(16)
N12 N 0.83180(13) 0.5331(3) 0.89754(16)
C1 C 0.51449(14) 0.1674(3) 0.44171(17)
C2 C 0.74240(14) 0.4011(3) 0.80608(17)
C3 C 0.77361(14) 0.4464(3) 0.83789(17)
C4 C 0.48163(14) 0.1058(3) 0.44301(18)
C5 C 0.69821(15) 0.1815(3) 0.78427(17)
C6 C 0.46866(15) 0.0930(4) 0.4814(2)
H1 H 0.480581 0.123400 0.507997
C7 C 0.70663(14) 0.2793(3) 0.78254(16)
C8 C 0.69387(13) 0.4100(3) 0.74604(17)
C9 C 0.52927(14) 0.3924(3) 0.52293(17)
H2 H 0.508443 0.353405 0.524897
C10 C 0.67044(14) 0.4615(3) 0.70853(17)
C11 C 0.55314(14) 0.3740(3) 0.49329(16)
C12 C 0.67589(16) 0.5529(3) 0.70280(19)
H3 H 0.695947 0.584459 0.722138
C13 C 0.65139(16) 0.5971(3) 0.6682(2)
H4 H 0.654998 0.659593 0.664492
C14 C 0.54757(14) 0.2925(3) 0.46516(16)
C15 C 0.5828(2) 0.4331(4) 0.4924(2)
H5 H 0.599536 0.422897 0.472334
C16 C 0.58850(16) 0.1936(3) 0.37797(18)
C17 C 0.71623(18) 0.0314(3) 0.8066(2)
C18 C 0.79407(17) 0.4022(4) 0.8753(2)
H7 H 0.788561 0.341327 0.880798
C19 C 0.58844(18) 0.5061(4) 0.5197(2)
H8 H 0.609209 0.545617 0.518221
C20 C 0.56335(15) 0.2100(3) 0.40967(18)
C21 C 0.5784(2) 0.1333(5) 0.3432(3)
H9 H 0.554740 0.101465 0.339205
C22 C 0.72438(16) 0.1219(3) 0.80921(19)
H10 H 0.747497 0.143330 0.827736
C23 C 0.53617(15) 0.4679(3) 0.54951(18)
H11 H 0.519385 0.480711 0.569251
C24 C 0.62353(19) 0.2364(4) 0.3831(2)
H12 H 0.631316 0.278240 0.406615
C25 C 0.4635(2) 0.0630(5) 0.4048(2)
H13 H 0.471994 0.071283 0.377599
C26 C 0.78263(17) 0.5352(4) 0.8312(2)
H14 H 0.768956 0.567538 0.806080
C27 C 0.81181(18) 0.5759(4) 0.8616(2)
H15 H 0.817988 0.636753 0.856849
C28 C 0.82253(17) 0.4481(4) 0.9042(2)
H16 H 0.836110 0.417904 0.930086
C29 C 0.6419(2) 0.4188(3) 0.6787(2)
H17 H 0.637954 0.356122 0.681094
C30 C 0.65875(19) 0.0550(4) 0.7574(2)
H18 H 0.635714 0.031675 0.739435
C31 C 0.43770(15) 0.0350(4) 0.4815(2)
H19 H 0.429083 0.025017 0.508529
C32 C 0.4324(2) 0.0074(5) 0.4066(2)
C33 C 0.6191(2) 0.4679(3) 0.6452(2)
H21 H 0.599488 0.437515 0.624637
C34 C 0.66484(18) 0.1475(3) 0.7583(2)
H22 H 0.646232 0.186528 0.741348
C35 C 0.64764(19) 0.2177(4) 0.3532(2)
H23 H 0.671920 0.247048 0.357138
C36 C 0.6033(2) 0.1197(5) 0.3144(3)
H24 H 0.595656 0.080048 0.289867
Zn4 Zn 0.87488(2) 0.59420(4) 0.94329(3)
N13 N 0.68435(14) 0.0022(3) 0.28092(16)
I5 I 0.35701(2) 0.08864(6) 0.01864(2)
H6 H 0.734111 0.008812 0.323887
I6 I 0.89260(2) 0.73735(3) 0.90804(3)
N9 N 0.91996(12) 0.5068(3) 0.94420(16)
C4_2 C 0.98163(14) 0.3942(3) 0.94301(18)
C6_2 C 0.96866(15) 0.4070(4) 0.9814(2)
C25_2 C 0.9635(2) 0.4370(5) 0.9048(2)
H13_2 H 0.971994 0.428717 0.877599
C31_2 C 0.93770(15) 0.4650(4) 0.9815(2)
C32_2 C 0.9324(2) 0.4926(5) 0.9066(2)
H20 H 0.919546 0.521673 0.880070
I5_2 I 0.35701(2) 0.91136(6) 0.51864(2)
I6_2 I 0.39260(2) 0.76265(3) 0.40804(3)
Zn2 Zn 0.37488(2) 0.90580(4) 0.44329(3)
N7 N 0.68435(14) 0.9978(3) 0.78092(16)
N9_2 N 0.41996(12) 0.9932(3) 0.44420(16)
H6_2 H 0.734111 0.991188 0.823887
H20_2 H 0.419546 0.978327 0.380070
Zn5 Zn 0.67180(2) 0.86119(4) 0.77383(2)
N14 N 0.33180(13) 0.9669(3) 0.39754(16)
I3_2 I 0.73316(2) 0.77047(3) 0.79941(2)
I4_2 I 0.62884(2) 0.84343(3) 0.69666(2)
N4_2 N 0.53521(13) 0.8487(3) 0.91030(15)
N5_2 N 0.51989(12) 0.7647(3) 0.97065(14)
N10_2 N 0.57048(13) 0.7175(3) 0.93559(14)
N11_2 N 0.63762(15) 0.8401(3) 0.81947(16)
C1_2 C 0.51449(14) 0.8326(3) 0.94171(17)
C4_3 C 0.48163(14) 0.8942(3) 0.94301(18)
C6_3 C 0.46866(15) 0.9070(4) 0.9814(2)
C11_2 C 0.55314(14) 0.6260(3) 0.99329(16)
C14_2 C 0.54757(14) 0.7075(3) 0.96516(16)
C15_2 C 0.5828(2) 0.5669(4) 0.9924(2)
H5_2 H 0.599536 0.577103 0.972334
C16_2 C 0.58850(16) 0.8064(3) 0.87797(18)
C20_2 C 0.56335(15) 0.7900(3) 0.90967(18)
C21_2 C 0.5784(2) 0.8667(5) 0.8432(3)
H9_2 H 0.554740 0.898535 0.839205
C24_2 C 0.62353(19) 0.7636(4) 0.8831(2)
H12_2 H 0.631316 0.721760 0.906615
C25_3 C 0.4635(2) 0.9370(5) 0.9048(2)
H13_3 H 0.471994 0.928717 0.877599
C31_3 C 0.43770(15) 0.9650(4) 0.9815(2)
C32_3 C 0.4324(2) 0.9926(5) 0.9066(2)
C35_2 C 0.64764(19) 0.7823(4) 0.8532(2)
H23_2 H 0.671920 0.752952 0.857138
C36_2 C 0.6033(2) 0.8803(5) 0.8144(3)
H24_2 H 0.595656 0.919952 0.789867
I1_2 I 0.11555(2) 0.75609(2) 0.05844(2)
I2_2 I 0.02755(2) 0.85053(3) 0.13629(2)
Zn1_2 Zn 0.08169(2) 0.87435(4) 0.09509(2)
N3_2 N 0.06567(12) 0.9760(3) 0.04854(14)
N8_2 N 0.12332(12) 0.9438(3) 0.14022(15)
C12_2 C 0.17589(16) 0.9471(3) 0.20280(19)
H3_2 H 0.195947 0.915541 0.222138
C13_2 C 0.15139(16) 0.9029(3) 0.1682(2)
H4_2 H 0.154998 0.840407 0.164492
C19_2 C 0.08844(18) 0.9939(4) 0.0197(2)
H8_2 H 0.109209 0.954383 0.018221
C26_2 C 0.28263(17) 0.9648(4) 0.3312(2)
H14_2 H 0.268956 0.932462 0.306080
C27_2 C 0.31181(18) 0.9241(4) 0.3616(2)
H15_2 H 0.317988 0.863247 0.356849
I3_3 I 0.26684(2) 0.22953(3) 0.20059(2)
I4_3 I 0.37116(2) 0.15657(3) 0.30334(2)
Zn3_2 Zn 0.32820(2) 0.13881(4) 0.22617(2)
N4_3 N 0.46479(13) 0.1513(3) 0.08970(15)
N5_3 N 0.48011(12) 0.2353(3) 0.02935(14)
N10_3 N 0.42952(13) 0.2825(3) 0.06441(14)
N11_3 N 0.36238(15) 0.1599(3) 0.18053(16)
C1_3 C 0.48551(14) 0.1674(3) 0.05829(17)
C4_4 C 0.51837(14) 0.1058(3) 0.05699(18)
C6_4 C 0.53134(15) 0.0930(4) 0.0186(2)
C11_3 C 0.44686(14) 0.3740(3) 0.00671(16)
C14_3 C 0.45243(14) 0.2925(3) 0.03484(16)
C15_3 C 0.4172(2) 0.4331(4) 0.0076(2)
H5_3 H 0.400464 0.422897 0.027666
C16_3 C 0.41150(16) 0.1936(3) 0.12203(18)
C20_3 C 0.43665(15) 0.2100(3) 0.09033(18)
C21_3 C 0.4216(2) 0.1333(5) 0.1568(3)
H9_3 H 0.445260 0.101465 0.160795
C24_3 C 0.37647(19) 0.2364(4) 0.1169(2)
H12_3 H 0.368684 0.278240 0.093385
C25_4 C 0.5365(2) 0.0630(5) 0.0952(2)
H13_4 H 0.528006 0.071283 0.122401
C31_4 C 0.56230(15) 0.0350(4) 0.0185(2)
C32_4 C 0.5676(2) 0.0074(5) 0.0934(2)
C35_3 C 0.35236(19) 0.2177(4) 0.1468(2)
H23_3 H 0.328080 0.247048 0.142862
C36_3 C 0.3967(2) 0.1197(5) 0.1856(3)
H24_3 H 0.404344 0.080048 0.210133
N13_2 N 0.31565(14) 0.0022(3) 0.21908(16)
I1_3 I 0.88445(2) 0.24391(2) 0.94156(2)
I2_3 I 0.97245(2) 0.14947(3) 0.86371(2)
Zn1_3 Zn 0.91831(2) 0.12565(4) 0.90491(2)
N3_3 N 0.93433(12) 0.0240(3) 0.95146(14)
N8_3 N 0.87668(12) 0.0562(3) 0.85978(15)
N12_2 N 0.66820(13) 0.0331(3) 0.60246(16)
C12_3 C 0.82411(16) 0.0529(3) 0.79720(19)
H3_3 H 0.804053 0.084459 0.777862
C13_3 C 0.84861(16) 0.0971(3) 0.8318(2)
H4_3 H 0.845002 0.159593 0.835508
C19_3 C 0.91156(18) 0.0061(4) 0.9803(2)
H8_3 H 0.890791 0.045617 0.981779
C26_3 C 0.71737(17) 0.0352(4) 0.6688(2)
H14_3 H 0.731044 0.067538 0.693920
C27_3 C 0.68819(18) 0.0759(4) 0.6384(2)
H15_3 H 0.682012 0.136753 0.643151
Zn4_2 Zn 0.62512(2) 0.09420(4) 0.55671(3)
I5_3 I 0.64299(2) 0.08864(6) 0.48136(2)
I6_3 I 0.60740(2) 0.23735(3) 0.59196(3)
N9_3 N 0.58004(12) 0.0068(3) 0.55580(16)
H6_3 H 0.265889 0.008812 0.176113
H20_3 H 0.580454 0.021673 0.619930
I1_4 I 0.38445(2) 0.74391(2) 0.94156(2)
I2_4 I 0.47245(2) 0.64947(3) 0.86371(2)
Zn1_4 Zn 0.41831(2) 0.62565(4) 0.90491(2)
N1_2 N 0.26427(12) 0.3141(3) 0.68750(15)
N2_2 N 0.27672(12) 0.4518(3) 0.72753(14)
N3_4 N 0.43433(12) 0.5240(3) 0.95146(14)
N6_2 N 0.31617(12) 0.3246(2) 0.74995(14)
N8_4 N 0.37668(12) 0.5562(3) 0.85978(15)
N12_3 N 0.16820(13) 0.5331(3) 0.60246(16)
C2_2 C 0.25760(14) 0.4011(3) 0.69392(17)
C3_2 C 0.22639(14) 0.4464(3) 0.66211(17)
C5_2 C 0.30179(15) 0.1815(3) 0.71573(17)
H1_2 H 0.519419 0.123400 0.992003
C7_2 C 0.29337(14) 0.2793(3) 0.71746(16)
C8_2 C 0.30613(13) 0.4100(3) 0.75396(17)
C9_2 C 0.47073(14) 0.3924(3) 0.97707(17)
H2_2 H 0.491557 0.353405 0.975103
C10_2 C 0.32956(14) 0.4615(3) 0.79147(17)
C12_4 C 0.32411(16) 0.5529(3) 0.79720(19)
H3_4 H 0.304053 0.584459 0.777862
C13_4 C 0.34861(16) 0.5971(3) 0.8318(2)
H4_4 H 0.345002 0.659593 0.835508
C17_2 C 0.28377(18) 0.0314(3) 0.6934(2)
C18_2 C 0.20593(17) 0.4022(4) 0.6247(2)
H7_2 H 0.211439 0.341327 0.619202
C19_4 C 0.41156(18) 0.5061(4) 0.9803(2)
H8_4 H 0.390791 0.545617 0.981779
C22_2 C 0.27562(16) 0.1219(3) 0.69079(19)
H10_2 H 0.252503 0.143330 0.672264
C23_2 C 0.46383(15) 0.4679(3) 0.95049(18)
H11_2 H 0.480615 0.480711 0.930749
C26_4 C 0.21737(17) 0.5352(4) 0.6688(2)
H14_4 H 0.231044 0.567538 0.693920
C27_4 C 0.18819(18) 0.5759(4) 0.6384(2)
H15_4 H 0.182012 0.636753 0.643151
C28_2 C 0.17747(17) 0.4481(4) 0.5958(2)
H16_2 H 0.163890 0.417904 0.569914
C29_2 C 0.3581(2) 0.4188(3) 0.8213(2)
H17_2 H 0.362046 0.356122 0.818906
C30_2 C 0.34125(19) 0.0550(4) 0.7426(2)
H18_2 H 0.364286 0.031675 0.760565
H19_2 H 0.570917 0.025017 0.991471
C33_2 C 0.3809(2) 0.4679(3) 0.8548(2)
H21_2 H 0.400512 0.437515 0.875363
C34_2 C 0.33516(18) 0.1475(3) 0.7417(2)
H22_2 H 0.353768 0.186528 0.758652
Zn4_3 Zn 0.12512(2) 0.59420(4) 0.55671(3)
I5_4 I 0.14299(2) 0.58864(6) 0.48136(2)
I6_4 I 0.10740(2) 0.73735(3) 0.59196(3)
N9_4 N 0.08004(12) 0.5068(3) 0.55580(16)
C4_5 C 0.01837(14) 0.3942(3) 0.55699(18)
C6_5 C 0.03134(15) 0.4070(4) 0.5186(2)
H1_3 H 0.019419 0.376600 0.492003
C25_5 C 0.0365(2) 0.4370(5) 0.5952(2)
H13_5 H 0.028006 0.428717 0.622401
C31_5 C 0.06230(15) 0.4650(4) 0.5185(2)
H19_3 H 0.070917 0.474983 0.491471
C32_5 C 0.0676(2) 0.4926(5) 0.5934(2)
H20_4 H 0.080454 0.521673 0.619930
I6_5 I 0.60740(2) 0.76265(3) 0.09196(3)
Zn2_2 Zn 0.62512(2) 0.90580(4) 0.05671(3)
N9_5 N 0.58004(12) 0.9932(3) 0.05580(16)
H20_5 H 0.580454 0.978327 0.119930
N14_2 N 0.66820(13) 0.9669(3) 0.10246(16)
I1_5 I 0.88445(2) 0.75609(2) 0.44156(2)
I2_5 I 0.97245(2) 0.85053(3) 0.36371(2)
Zn1_5 Zn 0.91831(2) 0.87435(4) 0.40491(2)
N3_5 N 0.93433(12) 0.9760(3) 0.45146(14)
N8_5 N 0.87668(12) 0.9438(3) 0.35978(15)
C12_5 C 0.82411(16) 0.9471(3) 0.29720(19)
H3_5 H 0.804053 0.915541 0.277862
C13_5 C 0.84861(16) 0.9029(3) 0.3318(2)
H4_5 H 0.845002 0.840407 0.335508
C19_5 C 0.91156(18) 0.9939(4) 0.4803(2)
H8_5 H 0.890791 0.954383 0.481779
C26_5 C 0.71737(17) 0.9648(4) 0.1688(2)
H14_5 H 0.731044 0.932462 0.193920
C27_5 C 0.68819(18) 0.9241(4) 0.1384(2)
H15_5 H 0.682012 0.863247 0.143151
I5_5 I 0.64299(2) 0.91136(6) 0.98136(2)
N7_2 N 0.31565(14) 0.9978(3) 0.71908(16)
H6_4 H 0.265889 0.991188 0.676113
Zn5_2 Zn 0.32820(2) 0.86119(4) 0.72617(2)
I6_6 I 0.10740(2) 0.26265(3) 0.09196(3)
Zn2_3 Zn 0.12512(2) 0.40580(4) 0.05671(3)
N9_6 N 0.08004(12) 0.4932(3) 0.05580(16)
C4_6 C 0.01837(14) 0.6058(3) 0.05699(18)
C6_6 C 0.03134(15) 0.5930(4) 0.0186(2)
C25_6 C 0.0365(2) 0.5630(5) 0.0952(2)
H13_6 H 0.028006 0.571283 0.122401
C31_6 C 0.06230(15) 0.5350(4) 0.0185(2)
C32_6 C 0.0676(2) 0.5074(5) 0.0934(2)
H20_6 H 0.080454 0.478327 0.119930
N14_3 N 0.16820(13) 0.4669(3) 0.10246(16)
I1_6 I 0.38445(2) 0.25609(2) 0.44156(2)
I2_6 I 0.47245(2) 0.35053(3) 0.36371(2)
I3_4 I 0.26684(2) 0.77047(3) 0.70059(2)
I4_4 I 0.37116(2) 0.84343(3) 0.80334(2)
Zn1_6 Zn 0.41831(2) 0.37435(4) 0.40491(2)
N1_3 N 0.26427(12) 0.6859(3) 0.18750(15)
N2_3 N 0.27672(12) 0.5482(3) 0.22753(14)
N3_6 N 0.43433(12) 0.4760(3) 0.45146(14)
N4_4 N 0.46479(13) 0.8487(3) 0.58970(15)
N5_4 N 0.48011(12) 0.7647(3) 0.52935(14)
N6_3 N 0.31617(12) 0.6754(2) 0.24995(14)
N8_6 N 0.37668(12) 0.4438(3) 0.35978(15)
N10_4 N 0.42952(13) 0.7175(3) 0.56441(14)
N11_4 N 0.36238(15) 0.8401(3) 0.68053(16)
C1_4 C 0.48551(14) 0.8326(3) 0.55829(17)
C2_3 C 0.25760(14) 0.5989(3) 0.19392(17)
C3_3 C 0.22639(14) 0.5536(3) 0.16211(17)
C4_7 C 0.51837(14) 0.8942(3) 0.55699(18)
C5_3 C 0.30179(15) 0.8185(3) 0.21573(17)
C6_7 C 0.53134(15) 0.9070(4) 0.5186(2)
H1_4 H 0.519419 0.876600 0.492003
C7_3 C 0.29337(14) 0.7207(3) 0.21746(16)
C8_3 C 0.30613(13) 0.5900(3) 0.25396(17)
C9_3 C 0.47073(14) 0.6076(3) 0.47707(17)
H2_3 H 0.491557 0.646595 0.475103
C10_3 C 0.32956(14) 0.5385(3) 0.29147(17)
C11_4 C 0.44686(14) 0.6260(3) 0.50671(16)
C12_6 C 0.32411(16) 0.4471(3) 0.29720(19)
H3_6 H 0.304053 0.415541 0.277862
C13_6 C 0.34861(16) 0.4029(3) 0.3318(2)
H4_6 H 0.345002 0.340407 0.335508
C14_4 C 0.45243(14) 0.7075(3) 0.53484(16)
C15_4 C 0.4172(2) 0.5669(4) 0.5076(2)
H5_4 H 0.400464 0.577103 0.527666
C16_4 C 0.41150(16) 0.8064(3) 0.62203(18)
C17_3 C 0.28377(18) 0.9686(3) 0.1934(2)
C18_3 C 0.20593(17) 0.5978(4) 0.1247(2)
H7_3 H 0.211439 0.658673 0.119202
C19_6 C 0.41156(18) 0.4939(4) 0.4803(2)
H8_6 H 0.390791 0.454383 0.481779
C20_4 C 0.43665(15) 0.7900(3) 0.59033(18)
C21_4 C 0.4216(2) 0.8667(5) 0.6568(3)
H9_4 H 0.445260 0.898535 0.660795
C22_3 C 0.27562(16) 0.8781(3) 0.19079(19)
H10_3 H 0.252503 0.856670 0.172264
C23_3 C 0.46383(15) 0.5321(3) 0.45049(18)
H11_3 H 0.480615 0.519289 0.430749
C24_4 C 0.37647(19) 0.7636(4) 0.6169(2)
H12_4 H 0.368684 0.721760 0.593385
C25_7 C 0.5365(2) 0.9370(5) 0.5952(2)
H13_7 H 0.528006 0.928717 0.622401
C26_6 C 0.21737(17) 0.4648(4) 0.1688(2)
H14_6 H 0.231044 0.432462 0.193920
C27_6 C 0.18819(18) 0.4241(4) 0.1384(2)
H15_6 H 0.182012 0.363247 0.143151
C28_3 C 0.17747(17) 0.5519(4) 0.0958(2)
H16_3 H 0.163890 0.582096 0.069914
C29_3 C 0.3581(2) 0.5812(3) 0.3213(2)
H17_3 H 0.362046 0.643878 0.318906
C30_3 C 0.34125(19) 0.9450(4) 0.2426(2)
H18_3 H 0.364286 0.968325 0.260565
C31_7 C 0.56230(15) 0.9650(4) 0.5185(2)
H19_4 H 0.570917 0.974983 0.491471
C32_7 C 0.5676(2) 0.9926(5) 0.5934(2)
C33_3 C 0.3809(2) 0.5321(3) 0.3548(2)
H21_3 H 0.400512 0.562485 0.375363
C34_3 C 0.33516(18) 0.8525(3) 0.2417(2)
H22_3 H 0.353768 0.813472 0.258652
C35_4 C 0.35236(19) 0.7823(4) 0.6468(2)
H23_4 H 0.328080 0.752952 0.642862
C36_4 C 0.3967(2) 0.8803(5) 0.6856(3)
H24_4 H 0.404344 0.919952 0.710133
I1_7 I 0.11555(2) 0.24391(2) 0.55844(2)
I2_7 I 0.02755(2) 0.14947(3) 0.63629(2)
Zn1_7 Zn 0.08169(2) 0.12565(4) 0.59509(2)
N3_7 N 0.06567(12) 0.0240(3) 0.54854(14)
N8_7 N 0.12332(12) 0.0562(3) 0.64022(15)
N12_4 N 0.33180(13) 0.0331(3) 0.89754(16)
C12_7 C 0.17589(16) 0.0529(3) 0.70280(19)
H3_7 H 0.195947 0.084459 0.722138
C13_7 C 0.15139(16) 0.0971(3) 0.6682(2)
H4_7 H 0.154998 0.159593 0.664492
C19_7 C 0.08844(18) 0.0061(4) 0.5197(2)
H8_7 H 0.109209 0.045617 0.518221
C26_7 C 0.28263(17) 0.0352(4) 0.8312(2)
H14_7 H 0.268956 0.067538 0.806080
C27_7 C 0.31181(18) 0.0759(4) 0.8616(2)
H15_7 H 0.317988 0.136753 0.856849
Zn4_4 Zn 0.37488(2) 0.09420(4) 0.94329(3)
I6_7 I 0.39260(2) 0.23735(3) 0.90804(3)
N9_7 N 0.41996(12) 0.0068(3) 0.94420(16)
H20_7 H 0.419546 0.021673 0.880070
I3_5 I 0.23316(2) 0.72953(3) 0.29941(2)
I4_5 I 0.12884(2) 0.65657(3) 0.19666(2)
Zn3_3 Zn 0.17180(2) 0.63881(4) 0.27383(2)
N1_4 N 0.23573(12) 0.8141(3) 0.81250(15)
N2_4 N 0.22328(12) 0.9518(3) 0.77247(14)
N4_5 N 0.03521(13) 0.6513(3) 0.41030(15)
N5_5 N 0.01989(12) 0.7353(3) 0.47065(14)
N6_4 N 0.18383(12) 0.8246(2) 0.75005(14)
N7_3 N 0.18435(14) 0.4978(3) 0.78092(16)
N10_5 N 0.07048(13) 0.7825(3) 0.43559(14)
N11_5 N 0.13762(15) 0.6599(3) 0.31947(16)
C1_5 C 0.01449(14) 0.6674(3) 0.44171(17)
C2_4 C 0.24240(14) 0.9011(3) 0.80608(17)
C3_4 C 0.27361(14) 0.9464(3) 0.83789(17)
C5_4 C 0.19821(15) 0.6815(3) 0.78427(17)
C7_4 C 0.20663(14) 0.7793(3) 0.78254(16)
C8_4 C 0.19387(13) 0.9100(3) 0.74604(17)
C9_4 C 0.02927(14) 0.8924(3) 0.52293(17)
H2_4 H 0.008443 0.853405 0.524897
C10_4 C 0.17044(14) 0.9615(3) 0.70853(17)
C11_5 C 0.05314(14) 0.8740(3) 0.49329(16)
C14_5 C 0.04757(14) 0.7925(3) 0.46516(16)
C15_5 C 0.0828(2) 0.9331(4) 0.4924(2)
H5_5 H 0.099536 0.922897 0.472334
C16_5 C 0.08850(16) 0.6936(3) 0.37797(18)
C17_4 C 0.21623(18) 0.5314(3) 0.8066(2)
H6_5 H 0.234111 0.491188 0.823887
C18_4 C 0.29407(17) 0.9022(4) 0.8753(2)
H7_4 H 0.288561 0.841327 0.880798
C20_5 C 0.06335(15) 0.7100(3) 0.40967(18)
C21_5 C 0.0784(2) 0.6333(5) 0.3432(3)
H9_5 H 0.054740 0.601465 0.339205
C22_4 C 0.22438(16) 0.6219(3) 0.80921(19)
H10_4 H 0.247497 0.643330 0.827736
C23_4 C 0.03617(15) 0.9679(3) 0.54951(18)
H11_4 H 0.019385 0.980711 0.569251
C24_5 C 0.12353(19) 0.7364(4) 0.3831(2)
H12_5 H 0.131316 0.778240 0.406615
C28_4 C 0.32253(17) 0.9481(4) 0.9042(2)
H16_4 H 0.336110 0.917904 0.930086
C29_4 C 0.1419(2) 0.9188(3) 0.6787(2)
H17_4 H 0.137954 0.856122 0.681094
C30_4 C 0.15875(19) 0.5550(4) 0.7574(2)
H18_4 H 0.135714 0.531675 0.739435
C33_4 C 0.1191(2) 0.9679(3) 0.6452(2)
H21_4 H 0.099488 0.937515 0.624637
C34_4 C 0.16484(18) 0.6475(3) 0.7583(2)
H22_4 H 0.146232 0.686528 0.741348
C35_5 C 0.14764(19) 0.7177(4) 0.3532(2)
H23_5 H 0.171920 0.747048 0.357138
C36_5 C 0.1033(2) 0.6197(5) 0.3144(3)
H24_5 H 0.095656 0.580048 0.289867
Zn5_3 Zn 0.17180(2) 0.36119(4) 0.77383(2)
N13_3 N 0.18435(14) 0.5022(3) 0.28092(16)
N1_5 N 0.23573(12) 0.1859(3) 0.31250(15)
N2_5 N 0.22328(12) 0.0482(3) 0.27247(14)
N6_5 N 0.18383(12) 0.1754(2) 0.25005(14)
C2_5 C 0.24240(14) 0.0989(3) 0.30608(17)
C3_5 C 0.27361(14) 0.0536(3) 0.33789(17)
C5_5 C 0.19821(15) 0.3185(3) 0.28427(17)
C7_5 C 0.20663(14) 0.2207(3) 0.28254(16)
C8_5 C 0.19387(13) 0.0900(3) 0.24604(17)
C9_5 C 0.02927(14) 0.1076(3) 0.02293(17)
H2_5 H 0.008443 0.146595 0.024897
C10_5 C 0.17044(14) 0.0385(3) 0.20853(17)
C17_5 C 0.21623(18) 0.4686(3) 0.3066(2)
H6_6 H 0.234111 0.508812 0.323887
C18_5 C 0.29407(17) 0.0978(4) 0.3753(2)
H7_5 H 0.288561 0.158673 0.380798
C22_5 C 0.22438(16) 0.3781(3) 0.30921(19)
H10_5 H 0.247497 0.356670 0.327736
C23_5 C 0.03617(15) 0.0321(3) 0.04951(18)
H11_5 H 0.019385 0.019289 0.069251
C28_5 C 0.32253(17) 0.0519(4) 0.4042(2)
H16_5 H 0.336110 0.082096 0.430086
C29_5 C 0.1419(2) 0.0812(3) 0.1787(2)
H17_5 H 0.137954 0.143878 0.181094
C30_5 C 0.15875(19) 0.4450(4) 0.2574(2)
H18_5 H 0.135714 0.468325 0.239435
C33_5 C 0.1191(2) 0.0321(3) 0.1452(2)
H21_5 H 0.099488 0.062485 0.124637
C34_5 C 0.16484(18) 0.3525(3) 0.2583(2)
H22_5 H 0.146232 0.313472 0.241348
I3_6 I 0.23316(2) 0.27047(3) 0.79941(2)
I4_6 I 0.12884(2) 0.34343(3) 0.69666(2)
N4_6 N 0.03521(13) 0.3487(3) 0.91030(15)
N5_6 N 0.01989(12) 0.2647(3) 0.97065(14)
N10_6 N 0.07048(13) 0.2175(3) 0.93559(14)
N11_6 N 0.13762(15) 0.3401(3) 0.81947(16)
C1_6 C 0.01449(14) 0.3326(3) 0.94171(17)
C11_6 C 0.05314(14) 0.1260(3) 0.99329(16)
C14_6 C 0.04757(14) 0.2075(3) 0.96516(16)
C15_6 C 0.0828(2) 0.0669(4) 0.9924(2)
H5_6 H 0.099536 0.077103 0.972334
C16_6 C 0.08850(16) 0.3064(3) 0.87797(18)
C20_6 C 0.06335(15) 0.2900(3) 0.90967(18)
C21_6 C 0.0784(2) 0.3667(5) 0.8432(3)
H9_6 H 0.054740 0.398535 0.839205
C24_6 C 0.12353(19) 0.2636(4) 0.8831(2)
H12_6 H 0.131316 0.221760 0.906615
C35_6 C 0.14764(19) 0.2823(4) 0.8532(2)
H23_6 H 0.171920 0.252952 0.857138
C36_6 C 0.1033(2) 0.3803(5) 0.8144(3)
H24_6 H 0.095656 0.419952 0.789867
I5_6 I 0.85701(2) 0.41136(6) 0.51864(2)
I6_8 I 0.89260(2) 0.26265(3) 0.40804(3)
Zn2_4 Zn 0.87488(2) 0.40580(4) 0.44329(3)
N9_8 N 0.91996(12) 0.4932(3) 0.44420(16)
C4_8 C 0.98163(14) 0.6058(3) 0.44301(18)
C6_8 C 0.96866(15) 0.5930(4) 0.4814(2)
H1_5 H 0.980581 0.623400 0.507997
C25_8 C 0.9635(2) 0.5630(5) 0.4048(2)
H13_8 H 0.971994 0.571283 0.377599
C31_8 C 0.93770(15) 0.5350(4) 0.4815(2)
H19_5 H 0.929083 0.525017 0.508529
C32_8 C 0.9324(2) 0.5074(5) 0.4066(2)
H20_8 H 0.919546 0.478327 0.380070
N14_4 N 0.83180(13) 0.4669(3) 0.39754(16)
I1_8 I 0.61555(2) 0.25609(2) 0.05844(2)
I2_8 I 0.52755(2) 0.35053(3) 0.13629(2)
Zn1_8 Zn 0.58169(2) 0.37435(4) 0.09509(2)
N1_6 N 0.73573(12) 0.6859(3) 0.31250(15)
N2_6 N 0.72328(12) 0.5482(3) 0.27247(14)
N3_8 N 0.56567(12) 0.4760(3) 0.04854(14)
N6_6 N 0.68383(12) 0.6754(2) 0.25005(14)
N8_8 N 0.62332(12) 0.4438(3) 0.14022(15)
C2_6 C 0.74240(14) 0.5989(3) 0.30608(17)
C3_6 C 0.77361(14) 0.5536(3) 0.33789(17)
C5_6 C 0.69821(15) 0.8185(3) 0.28427(17)
H1_6 H 0.480581 0.876600 0.007997
C7_6 C 0.70663(14) 0.7207(3) 0.28254(16)
C8_6 C 0.69387(13) 0.5900(3) 0.24604(17)
C9_6 C 0.52927(14) 0.6076(3) 0.02293(17)
H2_6 H 0.508443 0.646595 0.024897
C10_6 C 0.67044(14) 0.5385(3) 0.20853(17)
C12_8 C 0.67589(16) 0.4471(3) 0.20280(19)
H3_8 H 0.695947 0.415541 0.222138
C13_8 C 0.65139(16) 0.4029(3) 0.1682(2)
H4_8 H 0.654998 0.340407 0.164492
C17_6 C 0.71623(18) 0.9686(3) 0.3066(2)
C18_6 C 0.79407(17) 0.5978(4) 0.3753(2)
H7_6 H 0.788561 0.658673 0.380798
C19_8 C 0.58844(18) 0.4939(4) 0.0197(2)
H8_8 H 0.609209 0.454383 0.018221
C22_6 C 0.72438(16) 0.8781(3) 0.30921(19)
H10_6 H 0.747497 0.856670 0.327736
C23_6 C 0.53617(15) 0.5321(3) 0.04951(18)
H11_6 H 0.519385 0.519289 0.069251
C26_8 C 0.78263(17) 0.4648(4) 0.3312(2)
H14_8 H 0.768956 0.432462 0.306080
C27_8 C 0.81181(18) 0.4241(4) 0.3616(2)
H15_8 H 0.817988 0.363247 0.356849
C28_6 C 0.82253(17) 0.5519(4) 0.4042(2)
H16_6 H 0.836110 0.582096 0.430086
C29_6 C 0.6419(2) 0.5812(3) 0.1787(2)
H17_6 H 0.637954 0.643878 0.181094
C30_6 C 0.65875(19) 0.9450(4) 0.2574(2)
H18_6 H 0.635714 0.968325 0.239435
H19_6 H 0.429083 0.974983 0.008529
C33_6 C 0.6191(2) 0.5321(3) 0.1452(2)
H21_6 H 0.599488 0.562485 0.124637
C34_6 C 0.66484(18) 0.8525(3) 0.2583(2)
H22_6 H 0.646232 0.813472 0.241348
I5_7 I 0.14299(2) 0.41136(6) 0.98136(2)
H1_7 H 0.019419 0.623400 0.992003
H19_7 H 0.070917 0.525017 0.991471
I3_7 I 0.76684(2) 0.72953(3) 0.20059(2)
I4_7 I 0.87116(2) 0.65657(3) 0.30334(2)
Zn3_4 Zn 0.82820(2) 0.63881(4) 0.22617(2)
N4_7 N 0.96479(13) 0.6513(3) 0.08970(15)
N5_7 N 0.98011(12) 0.7353(3) 0.02935(14)
N10_7 N 0.92952(13) 0.7825(3) 0.06441(14)
N11_7 N 0.86238(15) 0.6599(3) 0.18053(16)
C1_7 C 0.98551(14) 0.6674(3) 0.05829(17)
C11_7 C 0.94686(14) 0.8740(3) 0.00671(16)
C14_7 C 0.95243(14) 0.7925(3) 0.03484(16)
C15_7 C 0.9172(2) 0.9331(4) 0.0076(2)
H5_7 H 0.900464 0.922897 0.027666
C16_7 C 0.91150(16) 0.6936(3) 0.12203(18)
C20_7 C 0.93665(15) 0.7100(3) 0.09033(18)
C21_7 C 0.9216(2) 0.6333(5) 0.1568(3)
H9_7 H 0.945260 0.601465 0.160795
C24_7 C 0.87647(19) 0.7364(4) 0.1169(2)
H12_7 H 0.868684 0.778240 0.093385
C35_7 C 0.85236(19) 0.7177(4) 0.1468(2)
H23_7 H 0.828080 0.747048 0.142862
C36_7 C 0.8967(2) 0.6197(5) 0.1856(3)
H24_7 H 0.904344 0.580048 0.210133
N13_4 N 0.81565(14) 0.5022(3) 0.21908(16)
N1_7 N 0.76427(12) 0.8141(3) 0.68750(15)
N2_7 N 0.77672(12) 0.9518(3) 0.72753(14)
N6_7 N 0.81617(12) 0.8246(2) 0.74995(14)
N7_4 N 0.81565(14) 0.4978(3) 0.71908(16)
C2_7 C 0.75760(14) 0.9011(3) 0.69392(17)
C3_7 C 0.72639(14) 0.9464(3) 0.66211(17)
C5_7 C 0.80179(15) 0.6815(3) 0.71573(17)
C7_7 C 0.79337(14) 0.7793(3) 0.71746(16)
C8_7 C 0.80613(13) 0.9100(3) 0.75396(17)
C9_7 C 0.97073(14) 0.8924(3) 0.97707(17)
H2_7 H 0.991557 0.853405 0.975103
C10_7 C 0.82956(14) 0.9615(3) 0.79147(17)
C17_7 C 0.78377(18) 0.5314(3) 0.6934(2)
H6_7 H 0.765889 0.491188 0.676113
C18_7 C 0.70593(17) 0.9022(4) 0.6247(2)
H7_7 H 0.711439 0.841327 0.619202
C22_7 C 0.77562(16) 0.6219(3) 0.69079(19)
H10_7 H 0.752503 0.643330 0.672264
C23_7 C 0.96383(15) 0.9679(3) 0.95049(18)
H11_7 H 0.980615 0.980711 0.930749
C28_7 C 0.67747(17) 0.9481(4) 0.5958(2)
H16_7 H 0.663890 0.917904 0.569914
C29_7 C 0.8581(2) 0.9188(3) 0.8213(2)
H17_7 H 0.862046 0.856122 0.818906
C30_7 C 0.84125(19) 0.5550(4) 0.7426(2)
H18_7 H 0.864286 0.531675 0.760565
C33_7 C 0.8809(2) 0.9679(3) 0.8548(2)
H21_7 H 0.900512 0.937515 0.875363
C34_7 C 0.83516(18) 0.6475(3) 0.7417(2)
H22_7 H 0.853768 0.686528 0.758652
Zn5_4 Zn 0.82820(2) 0.36119(4) 0.72617(2)
I3_8 I 0.76684(2) 0.27047(3) 0.70059(2)
I4_8 I 0.87116(2) 0.34343(3) 0.80334(2)
N1_8 N 0.76427(12) 0.1859(3) 0.18750(15)
N2_8 N 0.77672(12) 0.0482(3) 0.22753(14)
N4_8 N 0.96479(13) 0.3487(3) 0.58970(15)
N5_8 N 0.98011(12) 0.2647(3) 0.52935(14)
N6_8 N 0.81617(12) 0.1754(2) 0.24995(14)
N10_8 N 0.92952(13) 0.2175(3) 0.56441(14)
N11_8 N 0.86238(15) 0.3401(3) 0.68053(16)
C1_8 C 0.98551(14) 0.3326(3) 0.55829(17)
C2_8 C 0.75760(14) 0.0989(3) 0.19392(17)
C3_8 C 0.72639(14) 0.0536(3) 0.16211(17)
C5_8 C 0.80179(15) 0.3185(3) 0.21573(17)
C7_8 C 0.79337(14) 0.2207(3) 0.21746(16)
C8_8 C 0.80613(13) 0.0900(3) 0.25396(17)
C9_8 C 0.97073(14) 0.1076(3) 0.47707(17)
H2_8 H 0.991557 0.146595 0.475103
C10_8 C 0.82956(14) 0.0385(3) 0.29147(17)
C11_8 C 0.94686(14) 0.1260(3) 0.50671(16)
C14_8 C 0.95243(14) 0.2075(3) 0.53484(16)
C15_8 C 0.9172(2) 0.0669(4) 0.5076(2)
H5_8 H 0.900464 0.077103 0.527666
C16_8 C 0.91150(16) 0.3064(3) 0.62203(18)
C17_8 C 0.78377(18) 0.4686(3) 0.1934(2)
H6_8 H 0.765889 0.508812 0.176113
C18_8 C 0.70593(17) 0.0978(4) 0.1247(2)
H7_8 H 0.711439 0.158673 0.119202
C20_8 C 0.93665(15) 0.2900(3) 0.59033(18)
C21_8 C 0.9216(2) 0.3667(5) 0.6568(3)
H9_8 H 0.945260 0.398535 0.660795
C22_8 C 0.77562(16) 0.3781(3) 0.19079(19)
H10_8 H 0.752503 0.356670 0.172264
C23_8 C 0.96383(15) 0.0321(3) 0.45049(18)
H11_8 H 0.980615 0.019289 0.430749
C24_8 C 0.87647(19) 0.2636(4) 0.6169(2)
H12_8 H 0.868684 0.221760 0.593385
C28_8 C 0.67747(17) 0.0519(4) 0.0958(2)
H16_8 H 0.663890 0.082096 0.069914
C29_8 C 0.8581(2) 0.0812(3) 0.3213(2)
H17_8 H 0.862046 0.143878 0.318906
C30_8 C 0.84125(19) 0.4450(4) 0.2426(2)
H18_8 H 0.864286 0.468325 0.260565
C33_8 C 0.8809(2) 0.0321(3) 0.3548(2)
H21_8 H 0.900512 0.062485 0.375363
C34_8 C 0.83516(18) 0.3525(3) 0.2417(2)
H22_8 H 0.853768 0.313472 0.258652
C35_8 C 0.85236(19) 0.2823(4) 0.6468(2)
H23_8 H 0.828080 0.252952 0.642862
C36_8 C 0.8967(2) 0.3803(5) 0.6856(3)
H24_8 H 0.904344 0.419952 0.710133
I5_8 I 0.85701(2) 0.58864(6) 0.01864(2)
H1_8 H 0.980581 0.376600 0.007997
H19_8 H 0.929083 0.474983 0.008529
loop_
_geom_bond_atom_site_label_1
_geom_bond_atom_site_label_2
_geom_bond_site_symmetry_1
_geom_bond_site_symmetry_2
I1 Zn1 1_555 1_555
I2 Zn1 1_555 1_555
I3 Zn3 1_555 1_555
I4 Zn3 1_555 1_555
Zn1 N3 1_555 1_555
Zn3 N11 1_555 1_555
N1 C2 1_555 1_555
N2 C2 1_555 1_555
N3 C19 1_555 1_555
N4 C1 1_555 1_555
N5 C1 1_555 1_555
N6 C7 1_555 1_555
N8 Zn1 1_555 1_555
N10 C14 1_555 1_555
N11 C35 1_555 1_555
N12 C27 1_555 1_555
C1 C4 1_555 1_555
C2 C3 1_555 1_555
C3 C18 1_555 1_555
C4 C6 1_555 1_555
C5 C7 1_555 1_555
C6 H1 1_555 1_555
C7 N1 1_555 1_555
C8 N2 1_555 1_555
C9 H2 1_555 1_555
C10 C8 1_555 1_555
C11 C9 1_555 1_555
C12 C10 1_555 1_555
H3 C12 1_555 1_555
C13 N8 1_555 1_555
H4 C13 1_555 1_555
C14 N5 1_555 1_555
C15 C11 1_555 1_555
H5 C15 1_555 1_555
C16 C20 1_555 1_555
C18 H7 1_555 1_555
C19 C15 1_555 1_555
H8 C19 1_555 1_555
C20 N4 1_555 1_555
C21 C16 1_555 1_555
H9 C21 1_555 1_555
C22 C5 1_555 1_555
H10 C22 1_555 1_555
C23 N3 1_555 1_555
H11 C23 1_555 1_555
C24 C16 1_555 1_555
H12 C24 1_555 1_555
C25 C4 1_555 1_555
H13 C25 1_555 1_555
C26 C3 1_555 1_555
H14 C26 1_555 1_555
C27 C26 1_555 1_555
H15 C27 1_555 1_555
C28 N12 1_555 1_555
H16 C28 1_555 1_555
C29 C10 1_555 1_555
H17 C29 1_555 1_555
H18 C30 1_555 1_555
C31 C6 1_555 1_555
H19 C31 1_555 1_555
C33 N8 1_555 1_555
H21 C33 1_555 1_555
C34 C5 1_555 1_555
H22 C34 1_555 1_555
C35 C24 1_555 1_555
H23 C35 1_555 1_555
C36 N11 1_555 1_555
H24 C36 1_555 1_555
Zn4 N12 1_555 1_555
N13 Zn3 1_555 1_555
N6 C8 1_555 1_555
N10 C20 1_555 1_555
C9 C23 1_555 1_555
C11 C14 1_555 1_555
C12 C13 1_555 1_555
C17 C22 1_555 1_555
C18 C28 1_555 1_555
C21 C36 1_555 1_555
C25 C32 1_555 1_555
C29 C33 1_555 1_555
C30 C34 1_555 1_555
I6 Zn4 1_555 1_555
Zn4 N9 1_555 1_555
N9 C31_2 1_555 1_555
C4_2 C6_2 1_555 1_555
C25_2 C4_2 1_555 1_555
H13_2 C25_2 1_555 1_555
C31_2 C6_2 1_555 1_555
C32_2 N9 1_555 1_555
H20 C32_2 1_555 1_555
C25_2 C32_2 1_555 1_555
I5_2 Zn2 1_555 1_555
I6_2 Zn2 1_555 1_555
Zn2 N9_2 1_555 1_555
Zn5 N7 1_555 1_555
N14 Zn2 1_555 1_555
I3_2 Zn5 1_555 1_555
I4_2 Zn5 1_555 1_555
Zn5 N11_2 1_555 1_555
N4_2 C1_2 1_555 1_555
N5_2 C1_2 1_555 1_555
N10_2 C14_2 1_555 1_555
N11_2 C35_2 1_555 1_555
C1_2 C4_3 1_555 1_555
C4_3 C6_3 1_555 1_555
C14_2 N5_2 1_555 1_555
C15_2 C11_2 1_555 1_555
H5_2 C15_2 1_555 1_555
C16_2 C20_2 1_555 1_555
C20_2 N4_2 1_555 1_555
C21_2 C16_2 1_555 1_555
H9_2 C21_2 1_555 1_555
C24_2 C16_2 1_555 1_555
H12_2 C24_2 1_555 1_555
C25_3 C4_3 1_555 1_555
H13_3 C25_3 1_555 1_555
C31_3 C6_3 1_555 1_555
C35_2 C24_2 1_555 1_555
H23_2 C35_2 1_555 1_555
C36_2 N11_2 1_555 1_555
H24_2 C36_2 1_555 1_555
N10_2 C20_2 1_555 1_555
C11_2 C14_2 1_555 1_555
C21_2 C36_2 1_555 1_555
C25_3 C32_3 1_555 1_555
I1_2 Zn1_2 1_555 1_555
I2_2 Zn1_2 1_555 1_555
Zn1_2 N3_2 1_555 1_555
N3_2 C19_2 1_555 1_555
N8_2 Zn1_2 1_555 1_555
N14 C27_2 1_555 1_555
H3_2 C12_2 1_555 1_555
C13_2 N8_2 1_555 1_555
H4_2 C13_2 1_555 1_555
H8_2 C19_2 1_555 1_555
H14_2 C26_2 1_555 1_555
C27_2 C26_2 1_555 1_555
H15_2 C27_2 1_555 1_555
C12_2 C13_2 1_555 1_555
I3_3 Zn3_2 1_555 1_555
I4_3 Zn3_2 1_555 1_555
Zn3_2 N11_3 1_555 1_555
N4_3 C1_3 1_555 1_555
N5_3 C1_3 1_555 1_555
N10_3 C14_3 1_555 1_555
N11_3 C35_3 1_555 1_555
C1_3 C4_4 1_555 1_555
C4_4 C6_4 1_555 1_555
C14_3 N5_3 1_555 1_555
C15_3 C11_3 1_555 1_555
H5_3 C15_3 1_555 1_555
C16_3 C20_3 1_555 1_555
C20_3 N4_3 1_555 1_555
C21_3 C16_3 1_555 1_555
H9_3 C21_3 1_555 1_555
C24_3 C16_3 1_555 1_555
H12_3 C24_3 1_555 1_555
C25_4 C4_4 1_555 1_555
H13_4 C25_4 1_555 1_555
C31_4 C6_4 1_555 1_555
C35_3 C24_3 1_555 1_555
H23_3 C35_3 1_555 1_555
C36_3 N11_3 1_555 1_555
H24_3 C36_3 1_555 1_555
N13_2 Zn3_2 1_555 1_555
N10_3 C20_3 1_555 1_555
C11_3 C14_3 1_555 1_555
C21_3 C36_3 1_555 1_555
C25_4 C32_4 1_555 1_555
I1_3 Zn1_3 1_555 1_555
I2_3 Zn1_3 1_555 1_555
Zn1_3 N3_3 1_555 1_555
N3_3 C19_3 1_555 1_555
N8_3 Zn1_3 1_555 1_555
N12_2 C27_3 1_555 1_555
H3_3 C12_3 1_555 1_555
C13_3 N8_3 1_555 1_555
H4_3 C13_3 1_555 1_555
H8_3 C19_3 1_555 1_555
H14_3 C26_3 1_555 1_555
C27_3 C26_3 1_555 1_555
H15_3 C27_3 1_555 1_555
Zn4_2 N12_2 1_555 1_555
C12_3 C13_3 1_555 1_555
I5_3 Zn4_2 1_555 1_555
I6_3 Zn4_2 1_555 1_555
Zn4_2 N9_3 1_555 1_555
I1_4 Zn1_4 1_555 1_555
I2_4 Zn1_4 1_555 1_555
Zn1_4 N3_4 1_555 1_555
N1_2 C2_2 1_555 1_555
N2_2 C2_2 1_555 1_555
N3_4 C19_4 1_555 1_555
N6_2 C7_2 1_555 1_555
N8_4 Zn1_4 1_555 1_555
N12_3 C27_4 1_555 1_555
C2_2 C3_2 1_555 1_555
C3_2 C18_2 1_555 1_555
C5_2 C7_2 1_555 1_555
C7_2 N1_2 1_555 1_555
C8_2 N2_2 1_555 1_555
C9_2 H2_2 1_555 1_555
C10_2 C8_2 1_555 1_555
C12_4 C10_2 1_555 1_555
H3_4 C12_4 1_555 1_555
C13_4 N8_4 1_555 1_555
H4_4 C13_4 1_555 1_555
C18_2 H7_2 1_555 1_555
H8_4 C19_4 1_555 1_555
C22_2 C5_2 1_555 1_555
H10_2 C22_2 1_555 1_555
C23_2 N3_4 1_555 1_555
H11_2 C23_2 1_555 1_555
C26_4 C3_2 1_555 1_555
H14_4 C26_4 1_555 1_555
C27_4 C26_4 1_555 1_555
H15_4 C27_4 1_555 1_555
C28_2 N12_3 1_555 1_555
H16_2 C28_2 1_555 1_555
C29_2 C10_2 1_555 1_555
H17_2 C29_2 1_555 1_555
H18_2 C30_2 1_555 1_555
C33_2 N8_4 1_555 1_555
H21_2 C33_2 1_555 1_555
C34_2 C5_2 1_555 1_555
H22_2 C34_2 1_555 1_555
Zn4_3 N12_3 1_555 1_555
N6_2 C8_2 1_555 1_555
C9_2 C23_2 1_555 1_555
C12_4 C13_4 1_555 1_555
C17_2 C22_2 1_555 1_555
C18_2 C28_2 1_555 1_555
C29_2 C33_2 1_555 1_555
C30_2 C34_2 1_555 1_555
I5_4 Zn4_3 1_555 1_555
I6_4 Zn4_3 1_555 1_555
Zn4_3 N9_4 1_555 1_555
N9_4 C31_5 1_555 1_555
C4_5 C6_5 1_555 1_555
C6_5 H1_3 1_555 1_555
C25_5 C4_5 1_555 1_555
H13_5 C25_5 1_555 1_555
C31_5 C6_5 1_555 1_555
H19_3 C31_5 1_555 1_555
C32_5 N9_4 1_555 1_555
H20_4 C32_5 1_555 1_555
C25_5 C32_5 1_555 1_555
I6_5 Zn2_2 1_555 1_555
Zn2_2 N9_5 1_555 1_555
N14_2 Zn2_2 1_555 1_555
I1_5 Zn1_5 1_555 1_555
I2_5 Zn1_5 1_555 1_555
Zn1_5 N3_5 1_555 1_555
N3_5 C19_5 1_555 1_555
N8_5 Zn1_5 1_555 1_555
N14_2 C27_5 1_555 1_555
H3_5 C12_5 1_555 1_555
C13_5 N8_5 1_555 1_555
H4_5 C13_5 1_555 1_555
H8_5 C19_5 1_555 1_555
H14_5 C26_5 1_555 1_555
C27_5 C26_5 1_555 1_555
H15_5 C27_5 1_555 1_555
C12_5 C13_5 1_555 1_555
Zn5_2 N7_2 1_555 1_555
I6_6 Zn2_3 1_555 1_555
Zn2_3 N9_6 1_555 1_555
N9_6 C31_6 1_555 1_555
C4_6 C6_6 1_555 1_555
C25_6 C4_6 1_555 1_555
H13_6 C25_6 1_555 1_555
C31_6 C6_6 1_555 1_555
C32_6 N9_6 1_555 1_555
H20_6 C32_6 1_555 1_555
N14_3 Zn2_3 1_555 1_555
C25_6 C32_6 1_555 1_555
I1_6 Zn1_6 1_555 1_555
I2_6 Zn1_6 1_555 1_555
I3_4 Zn5_2 1_555 1_555
I4_4 Zn5_2 1_555 1_555
Zn1_6 N3_6 1_555 1_555
Zn5_2 N11_4 1_555 1_555
N1_3 C2_3 1_555 1_555
N2_3 C2_3 1_555 1_555
N3_6 C19_6 1_555 1_555
N4_4 C1_4 1_555 1_555
N5_4 C1_4 1_555 1_555
N6_3 C7_3 1_555 1_555
N8_6 Zn1_6 1_555 1_555
N10_4 C14_4 1_555 1_555
N11_4 C35_4 1_555 1_555
N14_3 C27_6 1_555 1_555
C1_4 C4_7 1_555 1_555
C2_3 C3_3 1_555 1_555
C3_3 C18_3 1_555 1_555
C4_7 C6_7 1_555 1_555
C5_3 C7_3 1_555 1_555
C6_7 H1_4 1_555 1_555
C7_3 N1_3 1_555 1_555
C8_3 N2_3 1_555 1_555
C9_3 H2_3 1_555 1_555
C10_3 C8_3 1_555 1_555
C11_4 C9_3 1_555 1_555
C12_6 C10_3 1_555 1_555
H3_6 C12_6 1_555 1_555
C13_6 N8_6 1_555 1_555
H4_6 C13_6 1_555 1_555
C14_4 N5_4 1_555 1_555
C15_4 C11_4 1_555 1_555
H5_4 C15_4 1_555 1_555
C16_4 C20_4 1_555 1_555
C18_3 H7_3 1_555 1_555
C19_6 C15_4 1_555 1_555
H8_6 C19_6 1_555 1_555
C20_4 N4_4 1_555 1_555
C21_4 C16_4 1_555 1_555
H9_4 C21_4 1_555 1_555
C22_3 C5_3 1_555 1_555
H10_3 C22_3 1_555 1_555
C23_3 N3_6 1_555 1_555
H11_3 C23_3 1_555 1_555
C24_4 C16_4 1_555 1_555
H12_4 C24_4 1_555 1_555
C25_7 C4_7 1_555 1_555
H13_7 C25_7 1_555 1_555
C26_6 C3_3 1_555 1_555
H14_6 C26_6 1_555 1_555
C27_6 C26_6 1_555 1_555
H15_6 C27_6 1_555 1_555
C28_3 N14_3 1_555 1_555
H16_3 C28_3 1_555 1_555
C29_3 C10_3 1_555 1_555
H17_3 C29_3 1_555 1_555
H18_3 C30_3 1_555 1_555
C31_7 C6_7 1_555 1_555
H19_4 C31_7 1_555 1_555
C33_3 N8_6 1_555 1_555
H21_3 C33_3 1_555 1_555
C34_3 C5_3 1_555 1_555
H22_3 C34_3 1_555 1_555
C35_4 C24_4 1_555 1_555
H23_4 C35_4 1_555 1_555
C36_4 N11_4 1_555 1_555
H24_4 C36_4 1_555 1_555
N6_3 C8_3 1_555 1_555
N10_4 C20_4 1_555 1_555
C9_3 C23_3 1_555 1_555
C11_4 C14_4 1_555 1_555
C12_6 C13_6 1_555 1_555
C17_3 C22_3 1_555 1_555
C18_3 C28_3 1_555 1_555
C21_4 C36_4 1_555 1_555
C25_7 C32_7 1_555 1_555
C29_3 C33_3 1_555 1_555
C30_3 C34_3 1_555 1_555
I1_7 Zn1_7 1_555 1_555
I2_7 Zn1_7 1_555 1_555
Zn1_7 N3_7 1_555 1_555
N3_7 C19_7 1_555 1_555
N8_7 Zn1_7 1_555 1_555
N12_4 C27_7 1_555 1_555
H3_7 C12_7 1_555 1_555
C13_7 N8_7 1_555 1_555
H4_7 C13_7 1_555 1_555
H8_7 C19_7 1_555 1_555
H14_7 C26_7 1_555 1_555
C27_7 C26_7 1_555 1_555
H15_7 C27_7 1_555 1_555
Zn4_4 N12_4 1_555 1_555
C12_7 C13_7 1_555 1_555
I6_7 Zn4_4 1_555 1_555
Zn4_4 N9_7 1_555 1_555
I3_5 Zn3_3 1_555 1_555
I4_5 Zn3_3 1_555 1_555
Zn3_3 N11_5 1_555 1_555
N1_4 C2_4 1_555 1_555
N2_4 C2_4 1_555 1_555
N4_5 C1_5 1_555 1_555
N5_5 C1_5 1_555 1_555
N6_4 C7_4 1_555 1_555
N7_3 C17_4 1_555 1_555
N10_5 C14_5 1_555 1_555
N11_5 C35_5 1_555 1_555
C2_4 C3_4 1_555 1_555
C3_4 C18_4 1_555 1_555
C5_4 C7_4 1_555 1_555
C7_4 N1_4 1_555 1_555
C8_4 N2_4 1_555 1_555
C9_4 H2_4 1_555 1_555
C10_4 C8_4 1_555 1_555
C11_5 C9_4 1_555 1_555
C14_5 N5_5 1_555 1_555
C15_5 C11_5 1_555 1_555
H5_5 C15_5 1_555 1_555
C16_5 C20_5 1_555 1_555
C17_4 H6_5 1_555 1_555
C18_4 H7_4 1_555 1_555
C20_5 N4_5 1_555 1_555
C21_5 C16_5 1_555 1_555
H9_5 C21_5 1_555 1_555
C22_4 C5_4 1_555 1_555
H10_4 C22_4 1_555 1_555
H11_4 C23_4 1_555 1_555
C24_5 C16_5 1_555 1_555
H12_5 C24_5 1_555 1_555
H16_4 C28_4 1_555 1_555
C29_4 C10_4 1_555 1_555
H17_4 C29_4 1_555 1_555
C30_4 N7_3 1_555 1_555
H18_4 C30_4 1_555 1_555
H21_4 C33_4 1_555 1_555
C34_4 C5_4 1_555 1_555
H22_4 C34_4 1_555 1_555
C35_5 C24_5 1_555 1_555
H23_5 C35_5 1_555 1_555
C36_5 N11_5 1_555 1_555
H24_5 C36_5 1_555 1_555
Zn5_3 N7_3 1_555 1_555
N13_3 Zn3_3 1_555 1_555
N6_4 C8_4 1_555 1_555
N10_5 C20_5 1_555 1_555
C9_4 C23_4 1_555 1_555
C11_5 C14_5 1_555 1_555
C17_4 C22_4 1_555 1_555
C18_4 C28_4 1_555 1_555
C21_5 C36_5 1_555 1_555
C29_4 C33_4 1_555 1_555
C30_4 C34_4 1_555 1_555
N1_5 C2_5 1_555 1_555
N2_5 C2_5 1_555 1_555
N6_5 C7_5 1_555 1_555
N13_3 C17_5 1_555 1_555
C2_5 C3_5 1_555 1_555
C3_5 C18_5 1_555 1_555
C5_5 C7_5 1_555 1_555
C7_5 N1_5 1_555 1_555
C8_5 N2_5 1_555 1_555
C9_5 H2_5 1_555 1_555
C10_5 C8_5 1_555 1_555
C17_5 H6_6 1_555 1_555
C18_5 H7_5 1_555 1_555
C22_5 C5_5 1_555 1_555
H10_5 C22_5 1_555 1_555
H11_5 C23_5 1_555 1_555
H16_5 C28_5 1_555 1_555
C29_5 C10_5 1_555 1_555
H17_5 C29_5 1_555 1_555
C30_5 N13_3 1_555 1_555
H18_5 C30_5 1_555 1_555
H21_5 C33_5 1_555 1_555
C34_5 C5_5 1_555 1_555
H22_5 C34_5 1_555 1_555
N6_5 C8_5 1_555 1_555
C9_5 C23_5 1_555 1_555
C17_5 C22_5 1_555 1_555
C18_5 C28_5 1_555 1_555
C29_5 C33_5 1_555 1_555
C30_5 C34_5 1_555 1_555
I3_6 Zn5_3 1_555 1_555
I4_6 Zn5_3 1_555 1_555
Zn5_3 N11_6 1_555 1_555
N4_6 C1_6 1_555 1_555
N5_6 C1_6 1_555 1_555
N10_6 C14_6 1_555 1_555
N11_6 C35_6 1_555 1_555
C14_6 N5_6 1_555 1_555
C15_6 C11_6 1_555 1_555
H5_6 C15_6 1_555 1_555
C16_6 C20_6 1_555 1_555
C20_6 N4_6 1_555 1_555
C21_6 C16_6 1_555 1_555
H9_6 C21_6 1_555 1_555
C24_6 C16_6 1_555 1_555
H12_6 C24_6 1_555 1_555
C35_6 C24_6 1_555 1_555
H23_6 C35_6 1_555 1_555
C36_6 N11_6 1_555 1_555
H24_6 C36_6 1_555 1_555
N10_6 C20_6 1_555 1_555
C11_6 C14_6 1_555 1_555
C21_6 C36_6 1_555 1_555
I5_6 Zn2_4 1_555 1_555
I6_8 Zn2_4 1_555 1_555
Zn2_4 N9_8 1_555 1_555
N9_8 C31_8 1_555 1_555
C4_8 C6_8 1_555 1_555
C6_8 H1_5 1_555 1_555
C25_8 C4_8 1_555 1_555
H13_8 C25_8 1_555 1_555
C31_8 C6_8 1_555 1_555
H19_5 C31_8 1_555 1_555
C32_8 N9_8 1_555 1_555
H20_8 C32_8 1_555 1_555
N14_4 Zn2_4 1_555 1_555
C25_8 C32_8 1_555 1_555
I1_8 Zn1_8 1_555 1_555
I2_8 Zn1_8 1_555 1_555
Zn1_8 N3_8 1_555 1_555
N1_6 C2_6 1_555 1_555
N2_6 C2_6 1_555 1_555
N3_8 C19_8 1_555 1_555
N6_6 C7_6 1_555 1_555
N8_8 Zn1_8 1_555 1_555
N14_4 C27_8 1_555 1_555
C2_6 C3_6 1_555 1_555
C3_6 C18_6 1_555 1_555
C5_6 C7_6 1_555 1_555
C7_6 N1_6 1_555 1_555
C8_6 N2_6 1_555 1_555
C9_6 H2_6 1_555 1_555
C10_6 C8_6 1_555 1_555
C12_8 C10_6 1_555 1_555
H3_8 C12_8 1_555 1_555
C13_8 N8_8 1_555 1_555
H4_8 C13_8 1_555 1_555
C18_6 H7_6 1_555 1_555
H8_8 C19_8 1_555 1_555
C22_6 C5_6 1_555 1_555
H10_6 C22_6 1_555 1_555
C23_6 N3_8 1_555 1_555
H11_6 C23_6 1_555 1_555
C26_8 C3_6 1_555 1_555
H14_8 C26_8 1_555 1_555
C27_8 C26_8 1_555 1_555
H15_8 C27_8 1_555 1_555
C28_6 N14_4 1_555 1_555
H16_6 C28_6 1_555 1_555
C29_6 C10_6 1_555 1_555
H17_6 C29_6 1_555 1_555
H18_6 C30_6 1_555 1_555
C33_6 N8_8 1_555 1_555
H21_6 C33_6 1_555 1_555
C34_6 C5_6 1_555 1_555
H22_6 C34_6 1_555 1_555
N6_6 C8_6 1_555 1_555
C9_6 C23_6 1_555 1_555
C12_8 C13_8 1_555 1_555
C17_6 C22_6 1_555 1_555
C18_6 C28_6 1_555 1_555
C29_6 C33_6 1_555 1_555
C30_6 C34_6 1_555 1_555
I3_7 Zn3_4 1_555 1_555
I4_7 Zn3_4 1_555 1_555
Zn3_4 N11_7 1_555 1_555
N4_7 C1_7 1_555 1_555
N5_7 C1_7 1_555 1_555
N10_7 C14_7 1_555 1_555
N11_7 C35_7 1_555 1_555
C14_7 N5_7 1_555 1_555
C15_7 C11_7 1_555 1_555
H5_7 C15_7 1_555 1_555
C16_7 C20_7 1_555 1_555
C20_7 N4_7 1_555 1_555
C21_7 C16_7 1_555 1_555
H9_7 C21_7 1_555 1_555
C24_7 C16_7 1_555 1_555
H12_7 C24_7 1_555 1_555
C35_7 C24_7 1_555 1_555
H23_7 C35_7 1_555 1_555
C36_7 N11_7 1_555 1_555
H24_7 C36_7 1_555 1_555
N13_4 Zn3_4 1_555 1_555
N10_7 C20_7 1_555 1_555
C11_7 C14_7 1_555 1_555
C21_7 C36_7 1_555 1_555
N1_7 C2_7 1_555 1_555
N2_7 C2_7 1_555 1_555
N6_7 C7_7 1_555 1_555
N7_4 C17_7 1_555 1_555
C2_7 C3_7 1_555 1_555
C3_7 C18_7 1_555 1_555
C5_7 C7_7 1_555 1_555
C7_7 N1_7 1_555 1_555
C8_7 N2_7 1_555 1_555
C9_7 H2_7 1_555 1_555
C10_7 C8_7 1_555 1_555
C17_7 H6_7 1_555 1_555
C18_7 H7_7 1_555 1_555
C22_7 C5_7 1_555 1_555
H10_7 C22_7 1_555 1_555
H11_7 C23_7 1_555 1_555
H16_7 C28_7 1_555 1_555
C29_7 C10_7 1_555 1_555
H17_7 C29_7 1_555 1_555
C30_7 N7_4 1_555 1_555
H18_7 C30_7 1_555 1_555
H21_7 C33_7 1_555 1_555
C34_7 C5_7 1_555 1_555
H22_7 C34_7 1_555 1_555
Zn5_4 N7_4 1_555 1_555
N6_7 C8_7 1_555 1_555
C9_7 C23_7 1_555 1_555
C17_7 C22_7 1_555 1_555
C18_7 C28_7 1_555 1_555
C29_7 C33_7 1_555 1_555
C30_7 C34_7 1_555 1_555
I3_8 Zn5_4 1_555 1_555
I4_8 Zn5_4 1_555 1_555
Zn5_4 N11_8 1_555 1_555
N1_8 C2_8 1_555 1_555
N2_8 C2_8 1_555 1_555
N4_8 C1_8 1_555 1_555
N5_8 C1_8 1_555 1_555
N6_8 C7_8 1_555 1_555
N13_4 C17_8 1_555 1_555
N10_8 C14_8 1_555 1_555
N11_8 C35_8 1_555 1_555
C2_8 C3_8 1_555 1_555
C3_8 C18_8 1_555 1_555
C5_8 C7_8 1_555 1_555
C7_8 N1_8 1_555 1_555
C8_8 N2_8 1_555 1_555
C9_8 H2_8 1_555 1_555
C10_8 C8_8 1_555 1_555
C11_8 C9_8 1_555 1_555
C14_8 N5_8 1_555 1_555
C15_8 C11_8 1_555 1_555
H5_8 C15_8 1_555 1_555
C16_8 C20_8 1_555 1_555
C17_8 H6_8 1_555 1_555
C18_8 H7_8 1_555 1_555
C20_8 N4_8 1_555 1_555
C21_8 C16_8 1_555 1_555
H9_8 C21_8 1_555 1_555
C22_8 C5_8 1_555 1_555
H10_8 C22_8 1_555 1_555
H11_8 C23_8 1_555 1_555
C24_8 C16_8 1_555 1_555
H12_8 C24_8 1_555 1_555
H16_8 C28_8 1_555 1_555
C29_8 C10_8 1_555 1_555
H17_8 C29_8 1_555 1_555
C30_8 N13_4 1_555 1_555
H18_8 C30_8 1_555 1_555
H21_8 C33_8 1_555 1_555
C34_8 C5_8 1_555 1_555
H22_8 C34_8 1_555 1_555
C35_8 C24_8 1_555 1_555
H23_8 C35_8 1_555 1_555
C36_8 N11_8 1_555 1_555
H24_8 C36_8 1_555 1_555
N6_8 C8_8 1_555 1_555
N10_8 C20_8 1_555 1_555
C9_8 C23_8 1_555 1_555
C11_8 C14_8 1_555 1_555
C17_8 C22_8 1_555 1_555
C18_8 C28_8 1_555 1_555
C21_8 C36_8 1_555 1_555
C29_8 C33_8 1_555 1_555
C30_8 C34_8 1_555 1_555

#END
