
###############################################################################
#
# This file contains modified crystal structure data generated from the
# MOF subset of the Cambridge Structural Database (CSD) v543 
# hosted by the Cambridge Crystallographic Data Centre (CCDC).
#
# This work is licensed under the Creative Commons
# Attribution-NonCommercial-ShareAlike 4.0 International License.
# To view a copy of this license, visit
# http://creativecommons.org/licenses/by-nc-sa/4.0/
# or send a letter to
# Creative Commons, PO Box 1866, Mountain View, CA 94042, USA.
#
# CIF created using the CSD Python API on 29 September 2022
# The structure has been converted into the P1 space group
# The structure has a 3D framework
# The original CSD entry TERPEO is in the monoclinic crystal system
# The framework has been calculated to contain at least 10.0% void space
# The void calculation uses a probe of radius 1.32A, grid spacing 0.4
#
###############################################################################

data_TERPEO
_chemical_formula_moiety         '(C288 H192 I48 N96 Zn24)n'
_symmetry_cell_setting           triclinic
_symmetry_space_group_name_H-M   'P 1'
_symmetry_Int_Tables_number      1
_space_group_name_Hall           'P 1'
loop_
_symmetry_equiv_pos_site_id
_symmetry_equiv_pos_as_xyz
1 x,y,z
_cell_length_a                   35.62(2)
_cell_length_b                   14.884(8)
_cell_length_c                   30.831(19)
_cell_angle_alpha                90
_cell_angle_beta                 101.63(2)
_cell_angle_gamma                90
_cell_volume                     16010
loop_
_atom_site_label
_atom_site_type_symbol
_atom_site_fract_x
_atom_site_fract_y
_atom_site_fract_z
Zn1 Zn 0.07935(2) 0.12442(5) 0.10049(2)
I1 I 0.11432(2) 0.24341(3) 0.06584(2)
I4 I 0.02468(2) 0.15102(4) 0.13969(2)
N6 N 0.06409(16) 0.0238(4) 0.05323(18)
C25 C 0.0854(3) 0.0105(6) 0.0234(3)
H16 H 0.105096 0.052628 0.021621
N14 N 0.12001(16) 0.0540(3) 0.14521(18)
Zn1_2 Zn 0.57935(2) 0.62442(5) 0.10049(2)
I1_2 I 0.61432(2) 0.74341(3) 0.06584(2)
I4_2 I 0.52468(2) 0.65102(4) 0.13969(2)
N6_2 N 0.56409(16) 0.5238(4) 0.05323(18)
C5 C 0.52906(19) 0.3917(5) 0.0268(2)
H3 H 0.508706 0.351521 0.028529
C11 C 0.53557(19) 0.4659(4) 0.0538(2)
H7 H 0.518998 0.476490 0.073882
H12 H 0.480459 0.118698 0.006071
H13 H 0.428676 0.022606 0.001866
C25_2 C 0.5854(3) 0.5105(6) 0.0234(3)
H16_2 H 0.605096 0.552628 0.021621
N14_2 N 0.62001(16) 0.5540(3) 0.14521(18)
N8 N 0.33539(16) 0.0352(4) 0.3897(2)
C3 C 0.1738(2) 0.0508(4) 0.2053(2)
H1 H 0.193972 0.082309 0.223993
C16 C 0.2849(2) 0.0342(4) 0.3257(2)
H10 H 0.270715 0.065669 0.300932
C29 C 0.3149(2) 0.0758(5) 0.3542(3)
H18 H 0.321032 0.136053 0.348199
C32 C 0.14880(19) 0.0951(4) 0.1720(2)
H20 H 0.152366 0.157650 0.168095
Zn5 Zn 0.37846(2) 0.09831(6) 0.43283(3)
Zn2 Zn 0.87846(2) 0.59831(6) 0.43283(3)
I5 I 0.85868(2) 0.60857(8) 0.50641(3)
I6 I 0.90116(3) 0.73111(4) 0.39403(4)
N12 N 0.92160(15) 0.5047(4) 0.43751(19)
C2 C 0.98253(18) 0.3887(4) 0.4409(2)
C18 C 0.9647(2) 0.4278(5) 0.4013(2)
H11 H 0.973262 0.415359 0.374653
C19 C 0.96889(19) 0.4077(5) 0.4786(2)
H12_2 H 0.980459 0.381302 0.506071
C20 C 0.9383(2) 0.4652(5) 0.4759(2)
H13_2 H 0.928676 0.477394 0.501866
C36 C 0.9344(2) 0.4847(6) 0.4013(3)
H24 H 0.921996 0.510849 0.374016
N13 N 0.83539(16) 0.5352(4) 0.3897(2)
I5_2 I 0.35868(2) 0.10857(8) 0.50641(3)
I6_2 I 0.40116(3) 0.23111(4) 0.39403(4)
N1 N 0.72377(14) 0.4501(3) 0.27122(17)
N4 N 0.68470(15) 0.3217(3) 0.25091(17)
N7 N 0.73790(15) 0.3131(3) 0.31062(17)
N12_2 N 0.42160(15) 0.0047(4) 0.43751(19)
C1 C 0.74370(18) 0.4000(4) 0.3037(2)
C3_2 C 0.6738(2) 0.5508(4) 0.2053(2)
H1_2 H 0.693972 0.582309 0.223993
C4 C 0.7269(2) 0.1206(4) 0.3089(2)
H2 H 0.750309 0.142179 0.326101
C7 C 0.6669(2) 0.1444(4) 0.2616(2)
H4 H 0.648026 0.182739 0.245032
C8 C 0.7972(2) 0.4036(5) 0.3706(2)
H5 H 0.791949 0.343029 0.377205
C9 C 0.7187(2) 0.0301(5) 0.3073(3)
C10 C 0.70813(18) 0.2776(4) 0.2824(2)
C13 C 0.69413(18) 0.4081(4) 0.2469(2)
C16_2 C 0.7849(2) 0.5342(4) 0.3257(2)
H10_2 H 0.770715 0.565669 0.300932
C17 C 0.66877(19) 0.4601(4) 0.2109(2)
C21 C 0.70061(18) 0.1796(4) 0.2851(2)
C28 C 0.6607(2) 0.0532(5) 0.2623(3)
H17 H 0.637126 0.029925 0.246192
C29_2 C 0.8149(2) 0.5758(5) 0.3542(3)
H18_2 H 0.821032 0.636053 0.348199
C30 C 0.77596(17) 0.4458(4) 0.3337(2)
C32_2 C 0.64880(19) 0.5951(4) 0.1720(2)
H20_2 H 0.652366 0.657650 0.168095
C33 C 0.6396(3) 0.4179(5) 0.1832(3)
H21 H 0.635537 0.355382 0.186359
C34 C 0.8260(2) 0.4507(5) 0.3977(3)
H22 H 0.839911 0.421633 0.423387
C35 C 0.6158(3) 0.4659(5) 0.1505(3)
H23 H 0.595766 0.435274 0.131126
H24_2 H 0.421996 0.010849 0.374016
C5_2 C 0.02906(19) 0.8917(5) 0.0268(2)
H3_2 H 0.008706 0.851521 0.028529
C11_2 C 0.03557(19) 0.9659(4) 0.0538(2)
H7_2 H 0.018998 0.976490 0.073882
Zn3 Zn 0.17382(3) 0.64108(5) 0.77899(3)
I2 I 0.12941(2) 0.65872(4) 0.70357(2)
I3 I 0.23461(2) 0.73185(4) 0.80250(2)
N1_2 N 0.22377(14) 0.0499(3) 0.77122(17)
N2 N 0.07210(15) 0.7879(4) 0.93986(17)
N3 N 0.01966(14) 0.7394(3) 0.97106(16)
N4_2 N 0.18470(15) 0.1783(3) 0.75091(17)
N5 N 0.03716(15) 0.6577(4) 0.91220(18)
N7_2 N 0.23790(15) 0.1869(3) 0.81062(17)
N10 N 0.18636(17) 0.5038(3) 0.78474(18)
N11 N 0.14065(17) 0.6635(4) 0.82544(19)
C1_2 C 0.24370(18) 0.1000(4) 0.8037(2)
C4_2 C 0.2269(2) 0.3794(4) 0.8089(2)
H2_2 H 0.250309 0.357821 0.826101
C6 C 0.05273(18) 0.8765(4) 0.9968(2)
C7_2 C 0.1669(2) 0.3556(4) 0.7616(2)
H4_2 H 0.148026 0.317261 0.745032
C8_2 C 0.2972(2) 0.0964(5) 0.8706(2)
H5_2 H 0.291949 0.156971 0.877205
C9_2 C 0.2187(2) 0.4699(5) 0.8073(3)
H6 H 0.237187 0.509974 0.823319
C10_2 C 0.20813(18) 0.2224(4) 0.7824(2)
C12 C 0.1278(2) 0.7365(5) 0.8900(2)
H8 H 0.136511 0.774764 0.914696
C13_2 C 0.19413(18) 0.0919(4) 0.7469(2)
C14 C 0.0805(3) 0.9388(6) 0.9951(3)
H9 H 0.096513 0.932366 0.974068
C15 C 0.0916(2) 0.6993(5) 0.8829(2)
C17_2 C 0.16877(19) 0.0399(4) 0.7109(2)
C21_2 C 0.20061(18) 0.3204(4) 0.7851(2)
C22 C 0.04793(18) 0.7968(4) 0.96756(19)
C23 C 0.0808(2) 0.6440(6) 0.8465(3)
H14 H 0.056379 0.615741 0.841058
C24 C 0.1513(2) 0.7167(5) 0.8604(3)
H15 H 0.176246 0.742416 0.865361
C26 C 0.01522(18) 0.6722(4) 0.9417(2)
C27 C 0.06550(18) 0.7164(4) 0.9135(2)
C28_2 C 0.1607(2) 0.4468(5) 0.7623(3)
H17_2 H 0.137126 0.470075 0.746192
C30_2 C 0.27596(17) 0.0542(4) 0.8337(2)
C31 C 0.1053(2) 0.6300(6) 0.8183(3)
H19 H 0.096744 0.594842 0.792451
C33_2 C 0.1396(3) 0.0821(5) 0.6832(3)
H21_2 H 0.135537 0.144618 0.686359
C34_2 C 0.3260(2) 0.0493(5) 0.8977(3)
H22_2 H 0.339911 0.078367 0.923387
C35_2 C 0.1158(3) 0.0341(5) 0.6505(3)
H23_2 H 0.095766 0.064726 0.631126
N8_2 N 0.33539(16) 0.9648(4) 0.8897(2)
N9 N 0.12001(16) 0.9460(3) 0.64521(18)
C3_3 C 0.1738(2) 0.9492(4) 0.7053(2)
H1_3 H 0.193972 0.917691 0.723993
C16_3 C 0.2849(2) 0.9658(4) 0.8257(2)
H10_3 H 0.270715 0.934331 0.800932
C29_3 C 0.3149(2) 0.9242(5) 0.8542(3)
H18_3 H 0.321032 0.863947 0.848199
C32_3 C 0.14880(19) 0.9049(4) 0.6720(2)
H20_3 H 0.152366 0.842350 0.668095
Zn4 Zn 0.07935(2) 0.87558(5) 0.60049(2)
Zn5_2 Zn 0.37846(2) 0.90169(6) 0.93283(3)
Zn2_2 Zn 0.87846(2) 0.40169(6) 0.93283(3)
I6_3 I 0.90116(3) 0.26889(4) 0.89403(4)
N12_3 N 0.92160(15) 0.4953(4) 0.93751(19)
C2_2 C 0.98253(18) 0.6113(4) 0.9409(2)
C18_2 C 0.9647(2) 0.5722(5) 0.9013(2)
H11_2 H 0.973262 0.584641 0.874653
C19_2 C 0.96889(19) 0.5923(5) 0.9786(2)
C20_2 C 0.9383(2) 0.5348(5) 0.9759(2)
C36_2 C 0.9344(2) 0.5153(6) 0.9013(3)
H24_3 H 0.921996 0.489151 0.874016
N13_2 N 0.83539(16) 0.4648(4) 0.8897(2)
I6_4 I 0.40116(3) 0.76889(4) 0.89403(4)
N1_3 N 0.72377(14) 0.5499(3) 0.77122(17)
N4_3 N 0.68470(15) 0.6783(3) 0.75091(17)
N7_3 N 0.73790(15) 0.6869(3) 0.81062(17)
N9_2 N 0.62001(16) 0.4460(3) 0.64521(18)
N12_4 N 0.42160(15) 0.9953(4) 0.93751(19)
C1_3 C 0.74370(18) 0.6000(4) 0.8037(2)
C3_4 C 0.6738(2) 0.4492(4) 0.7053(2)
H1_4 H 0.693972 0.417691 0.723993
C4_3 C 0.7269(2) 0.8794(4) 0.8089(2)
H2_3 H 0.750309 0.857821 0.826101
C7_3 C 0.6669(2) 0.8556(4) 0.7616(2)
H4_3 H 0.648026 0.817261 0.745032
C8_3 C 0.7972(2) 0.5964(5) 0.8706(2)
H5_3 H 0.791949 0.656971 0.877205
C9_3 C 0.7187(2) 0.9699(5) 0.8073(3)
C10_3 C 0.70813(18) 0.7224(4) 0.7824(2)
C13_3 C 0.69413(18) 0.5919(4) 0.7469(2)
C16_4 C 0.7849(2) 0.4658(4) 0.8257(2)
H10_4 H 0.770715 0.434331 0.800932
C17_3 C 0.66877(19) 0.5399(4) 0.7109(2)
C21_3 C 0.70061(18) 0.8204(4) 0.7851(2)
C28_3 C 0.6607(2) 0.9468(5) 0.7623(3)
H17_3 H 0.637126 0.970075 0.746192
C29_4 C 0.8149(2) 0.4242(5) 0.8542(3)
H18_4 H 0.821032 0.363947 0.848199
C30_3 C 0.77596(17) 0.5542(4) 0.8337(2)
C32_4 C 0.64880(19) 0.4049(4) 0.6720(2)
H20_4 H 0.652366 0.342350 0.668095
C33_3 C 0.6396(3) 0.5821(5) 0.6832(3)
H21_3 H 0.635537 0.644618 0.686359
C34_3 C 0.8260(2) 0.5493(5) 0.8977(3)
H22_3 H 0.839911 0.578367 0.923387
C35_3 C 0.6158(3) 0.5341(5) 0.6505(3)
H23_3 H 0.595766 0.564726 0.631126
H24_4 H 0.421996 0.989151 0.874016
Zn4_2 Zn 0.57935(2) 0.37558(5) 0.60049(2)
I1_3 I 0.11432(2) 0.75659(3) 0.56584(2)
I4_3 I 0.02468(2) 0.84898(4) 0.63969(2)
N6_3 N 0.06409(16) 0.9762(4) 0.55323(18)
C25_3 C 0.0854(3) 0.9895(6) 0.5234(3)
H16_3 H 0.105096 0.947372 0.521621
Zn3_2 Zn 0.67382(3) 0.85892(5) 0.27899(3)
I1_4 I 0.61432(2) 0.25659(3) 0.56584(2)
I2_2 I 0.62941(2) 0.84128(4) 0.20357(2)
I3_2 I 0.73461(2) 0.76815(4) 0.30250(2)
I4_4 I 0.52468(2) 0.34898(4) 0.63969(2)
N2_2 N 0.57210(15) 0.7121(4) 0.43986(17)
N3_2 N 0.51966(14) 0.7606(3) 0.47106(16)
N5_2 N 0.53716(15) 0.8423(4) 0.41220(18)
N6_4 N 0.56409(16) 0.4762(4) 0.55323(18)
N10_2 N 0.68636(17) 0.9962(3) 0.28474(18)
N11_2 N 0.64065(17) 0.8365(4) 0.32544(19)
C2_3 C 0.48253(18) 0.8887(4) 0.4409(2)
C5_3 C 0.52906(19) 0.6083(5) 0.5268(2)
H3_3 H 0.508706 0.648479 0.528529
C6_2 C 0.55273(18) 0.6235(4) 0.4968(2)
H6_2 H 0.737187 0.990026 0.323319
C11_3 C 0.53557(19) 0.5341(4) 0.5538(2)
H7_3 H 0.518998 0.523510 0.573882
C12_2 C 0.6278(2) 0.7635(5) 0.3900(2)
H8_2 H 0.636511 0.725236 0.414696
C14_2 C 0.5805(3) 0.5612(6) 0.4951(3)
H9_2 H 0.596513 0.567634 0.474068
C15_2 C 0.5916(2) 0.8007(5) 0.3829(2)
C18_3 C 0.4647(2) 0.9278(5) 0.4013(2)
H11_3 H 0.473262 0.915359 0.374653
C19_3 C 0.46889(19) 0.9077(5) 0.4786(2)
H12_3 H 0.480459 0.881302 0.506071
C20_3 C 0.4383(2) 0.9652(5) 0.4759(2)
H13_3 H 0.428676 0.977394 0.501866
C22_2 C 0.54793(18) 0.7032(4) 0.46756(19)
C23_2 C 0.5808(2) 0.8560(6) 0.3465(3)
H14_2 H 0.556379 0.884259 0.341058
C24_2 C 0.6513(2) 0.7833(5) 0.3604(3)
H15_2 H 0.676246 0.757584 0.365361
C25_4 C 0.5854(3) 0.4895(6) 0.5234(3)
H16_4 H 0.605096 0.447372 0.521621
C26_2 C 0.51522(18) 0.8278(4) 0.4417(2)
C27_2 C 0.56550(18) 0.7836(4) 0.4135(2)
C31_2 C 0.6053(2) 0.8700(6) 0.3183(3)
H19_2 H 0.596744 0.905158 0.292451
C36_3 C 0.4344(2) 0.9847(6) 0.4013(3)
I5_3 I 0.85868(2) 0.39143(8) 0.00641(3)
H12_4 H 0.980459 0.618698 0.006071
H13_4 H 0.928676 0.522606 0.001866
Zn2_3 Zn 0.12154(2) 0.40169(6) 0.56717(3)
I5_4 I 0.14132(2) 0.39143(8) 0.49359(3)
I6_5 I 0.09884(3) 0.26889(4) 0.60597(4)
N12_5 N 0.07840(15) 0.4953(4) 0.56249(19)
C2_4 C 0.01747(18) 0.6113(4) 0.5591(2)
C18_4 C 0.0353(2) 0.5722(5) 0.5987(2)
H11_4 H 0.026738 0.584641 0.625347
C19_4 C 0.03111(19) 0.5923(5) 0.5214(2)
H12_5 H 0.019541 0.618698 0.493929
C20_4 C 0.0617(2) 0.5348(5) 0.5241(2)
H13_5 H 0.071324 0.522606 0.498134
C36_4 C 0.0656(2) 0.5153(6) 0.5987(3)
H24_5 H 0.078004 0.489151 0.625984
N13_3 N 0.16461(16) 0.4648(4) 0.6103(2)
N8_3 N 0.66461(16) 0.9648(4) 0.6103(2)
N9_3 N 0.87999(16) 0.9460(3) 0.85479(18)
C3_5 C 0.8262(2) 0.9492(4) 0.7947(2)
H1_5 H 0.806028 0.917691 0.776007
C16_5 C 0.7151(2) 0.9658(4) 0.6743(2)
H10_5 H 0.729285 0.934331 0.699068
C29_5 C 0.6851(2) 0.9242(5) 0.6458(3)
H18_5 H 0.678968 0.863947 0.651801
C32_5 C 0.85120(19) 0.9049(4) 0.8280(2)
H20_5 H 0.847634 0.842350 0.831905
Zn4_3 Zn 0.92065(2) 0.87558(5) 0.89951(2)
Zn5_3 Zn 0.62154(2) 0.90169(6) 0.56717(3)
I5_5 I 0.64132(2) 0.89143(8) 0.49359(3)
I6_6 I 0.59884(3) 0.76889(4) 0.60597(4)
N1_4 N 0.27623(14) 0.5499(3) 0.72878(17)
N4_4 N 0.31530(15) 0.6783(3) 0.74909(17)
N7_4 N 0.26210(15) 0.6869(3) 0.68938(17)
N9_4 N 0.37999(16) 0.4460(3) 0.85479(18)
N12_6 N 0.57840(15) 0.9953(4) 0.56249(19)
C1_4 C 0.25630(18) 0.6000(4) 0.6963(2)
C3_6 C 0.3262(2) 0.4492(4) 0.7947(2)
H1_6 H 0.306028 0.417691 0.776007
C4_4 C 0.2731(2) 0.8794(4) 0.6911(2)
H2_4 H 0.249691 0.857821 0.673899
C7_4 C 0.3331(2) 0.8556(4) 0.7384(2)
H4_4 H 0.351974 0.817261 0.754968
C8_4 C 0.2028(2) 0.5964(5) 0.6294(2)
H5_4 H 0.208051 0.656971 0.622795
C9_4 C 0.2813(2) 0.9699(5) 0.6927(3)
C10_4 C 0.29187(18) 0.7224(4) 0.7176(2)
C13_4 C 0.30587(18) 0.5919(4) 0.7531(2)
C16_6 C 0.2151(2) 0.4658(4) 0.6743(2)
H10_6 H 0.229285 0.434331 0.699068
C17_4 C 0.33123(19) 0.5399(4) 0.7891(2)
C21_4 C 0.29939(18) 0.8204(4) 0.7149(2)
C28_4 C 0.3393(2) 0.9468(5) 0.7377(3)
H17_4 H 0.362874 0.970075 0.753808
C29_6 C 0.1851(2) 0.4242(5) 0.6458(3)
H18_6 H 0.178968 0.363947 0.651801
C30_4 C 0.22404(17) 0.5542(4) 0.6663(2)
C32_6 C 0.35120(19) 0.4049(4) 0.8280(2)
H20_6 H 0.347634 0.342350 0.831905
C33_4 C 0.3604(3) 0.5821(5) 0.8168(3)
H21_4 H 0.364463 0.644618 0.813641
C34_4 C 0.1740(2) 0.5493(5) 0.6023(3)
H22_4 H 0.160089 0.578367 0.576613
C35_4 C 0.3842(3) 0.5341(5) 0.8495(3)
H23_4 H 0.404234 0.564726 0.868874
H24_6 H 0.578004 0.989151 0.625984
Zn4_4 Zn 0.42065(2) 0.37558(5) 0.89951(2)
I1_5 I 0.88568(2) 0.75659(3) 0.93416(2)
I4_5 I 0.97532(2) 0.84898(4) 0.86031(2)
N6_5 N 0.93591(16) 0.9762(4) 0.94677(18)
C25_5 C 0.9146(3) 0.9895(6) 0.9766(3)
H16_5 H 0.894904 0.947372 0.978379
I1_6 I 0.38568(2) 0.25659(3) 0.93416(2)
I4_6 I 0.47532(2) 0.34898(4) 0.86031(2)
N6_6 N 0.43591(16) 0.4762(4) 0.94677(18)
C5_4 C 0.47094(19) 0.6083(5) 0.9732(2)
H3_4 H 0.491294 0.648479 0.971471
C11_4 C 0.46443(19) 0.5341(4) 0.9462(2)
H7_4 H 0.481002 0.523510 0.926118
H12_6 H 0.519541 0.881302 0.993929
H13_6 H 0.571324 0.977394 0.998134
C25_6 C 0.4146(3) 0.4895(6) 0.9766(3)
H16_6 H 0.394904 0.447372 0.978379
Zn1_3 Zn 0.92065(2) 0.12442(5) 0.39951(2)
I1_7 I 0.88568(2) 0.24341(3) 0.43416(2)
I4_7 I 0.97532(2) 0.15102(4) 0.36031(2)
N6_7 N 0.93591(16) 0.0238(4) 0.44677(18)
C25_7 C 0.9146(3) 0.0105(6) 0.4766(3)
H16_7 H 0.894904 0.052628 0.478379
N14_3 N 0.87999(16) 0.0540(3) 0.35479(18)
Zn1_4 Zn 0.42065(2) 0.62442(5) 0.39951(2)
Zn3_3 Zn 0.32618(3) 0.14108(5) 0.72101(3)
I1_8 I 0.38568(2) 0.74341(3) 0.43416(2)
I2_3 I 0.37059(2) 0.15872(4) 0.79643(2)
I3_3 I 0.26539(2) 0.23185(4) 0.69750(2)
I4_8 I 0.47532(2) 0.65102(4) 0.36031(2)
N2_3 N 0.42790(15) 0.2879(4) 0.56014(17)
N3_3 N 0.48034(14) 0.2394(3) 0.52894(16)
N5_3 N 0.46284(15) 0.1577(4) 0.58780(18)
N6_8 N 0.43591(16) 0.5238(4) 0.44677(18)
N10_3 N 0.31364(17) 0.0038(3) 0.71526(18)
N11_3 N 0.35935(17) 0.1635(4) 0.67456(19)
C2_5 C 0.51747(18) 0.1113(4) 0.5591(2)
C5_5 C 0.47094(19) 0.3917(5) 0.4732(2)
H3_5 H 0.491294 0.351521 0.471471
C6_3 C 0.44727(18) 0.3765(4) 0.5032(2)
H6_3 H 0.262813 0.009974 0.676681
C11_5 C 0.46443(19) 0.4659(4) 0.4462(2)
H7_5 H 0.481002 0.476490 0.426118
C12_3 C 0.3722(2) 0.2365(5) 0.6100(2)
H8_3 H 0.363489 0.274764 0.585304
C14_3 C 0.4195(3) 0.4388(6) 0.5049(3)
H9_3 H 0.403487 0.432366 0.525932
C15_3 C 0.4084(2) 0.1993(5) 0.6171(2)
C18_5 C 0.5353(2) 0.0722(5) 0.5987(2)
H11_5 H 0.526738 0.084641 0.625347
C19_5 C 0.53111(19) 0.0923(5) 0.5214(2)
H12_7 H 0.519541 0.118698 0.493929
C20_5 C 0.5617(2) 0.0348(5) 0.5241(2)
H13_7 H 0.571324 0.022606 0.498134
C22_3 C 0.45207(18) 0.2968(4) 0.53244(19)
C23_3 C 0.4192(2) 0.1440(6) 0.6535(3)
H14_3 H 0.443621 0.115741 0.658942
C24_3 C 0.3487(2) 0.2167(5) 0.6396(3)
H15_3 H 0.323754 0.242416 0.634639
C25_8 C 0.4146(3) 0.5105(6) 0.4766(3)
H16_8 H 0.394904 0.552628 0.478379
C26_3 C 0.48478(18) 0.1722(4) 0.5583(2)
C27_3 C 0.43450(18) 0.2164(4) 0.5865(2)
C31_3 C 0.3947(2) 0.1300(6) 0.6817(3)
H19_3 H 0.403256 0.094842 0.707549
C36_5 C 0.5656(2) 0.0153(6) 0.5987(3)
N14_4 N 0.37999(16) 0.5540(3) 0.35479(18)
Zn2_4 Zn 0.12154(2) 0.59831(6) 0.06717(3)
I6_7 I 0.09884(3) 0.73111(4) 0.10597(4)
N12_7 N 0.07840(15) 0.5047(4) 0.06249(19)
C2_6 C 0.01747(18) 0.3887(4) 0.0591(2)
C18_6 C 0.0353(2) 0.4278(5) 0.0987(2)
H11_6 H 0.026738 0.415359 0.125347
C19_6 C 0.03111(19) 0.4077(5) 0.0214(2)
C20_6 C 0.0617(2) 0.4652(5) 0.0241(2)
C36_6 C 0.0656(2) 0.4847(6) 0.0987(3)
H24_7 H 0.078004 0.510849 0.125984
N13_4 N 0.16461(16) 0.5352(4) 0.1103(2)
N8_4 N 0.66461(16) 0.0352(4) 0.1103(2)
C3_7 C 0.8262(2) 0.0508(4) 0.2947(2)
H1_7 H 0.806028 0.082309 0.276007
C16_7 C 0.7151(2) 0.0342(4) 0.1743(2)
H10_7 H 0.729285 0.065669 0.199068
C29_7 C 0.6851(2) 0.0758(5) 0.1458(3)
H18_7 H 0.678968 0.136053 0.151801
C32_7 C 0.85120(19) 0.0951(4) 0.3280(2)
H20_7 H 0.847634 0.157650 0.331905
Zn5_4 Zn 0.62154(2) 0.09831(6) 0.06717(3)
I6_8 I 0.59884(3) 0.23111(4) 0.10597(4)
N1_5 N 0.27623(14) 0.4501(3) 0.22878(17)
N4_5 N 0.31530(15) 0.3217(3) 0.24909(17)
N7_5 N 0.26210(15) 0.3131(3) 0.18938(17)
N12_8 N 0.57840(15) 0.0047(4) 0.06249(19)
C1_5 C 0.25630(18) 0.4000(4) 0.1963(2)
C3_8 C 0.3262(2) 0.5508(4) 0.2947(2)
H1_8 H 0.306028 0.582309 0.276007
C4_5 C 0.2731(2) 0.1206(4) 0.1911(2)
H2_5 H 0.249691 0.142179 0.173899
C7_5 C 0.3331(2) 0.1444(4) 0.2384(2)
H4_5 H 0.351974 0.182739 0.254968
C8_5 C 0.2028(2) 0.4036(5) 0.1294(2)
H5_5 H 0.208051 0.343029 0.122795
C9_5 C 0.2813(2) 0.0301(5) 0.1927(3)
C10_5 C 0.29187(18) 0.2776(4) 0.2176(2)
C13_5 C 0.30587(18) 0.4081(4) 0.2531(2)
C16_8 C 0.2151(2) 0.5342(4) 0.1743(2)
H10_8 H 0.229285 0.565669 0.199068
C17_5 C 0.33123(19) 0.4601(4) 0.2891(2)
C21_5 C 0.29939(18) 0.1796(4) 0.2149(2)
C28_5 C 0.3393(2) 0.0532(5) 0.2377(3)
H17_5 H 0.362874 0.029925 0.253808
C29_8 C 0.1851(2) 0.5758(5) 0.1458(3)
H18_8 H 0.178968 0.636053 0.151801
C30_5 C 0.22404(17) 0.4458(4) 0.1663(2)
C32_8 C 0.35120(19) 0.5951(4) 0.3280(2)
H20_8 H 0.347634 0.657650 0.331905
C33_5 C 0.3604(3) 0.4179(5) 0.3168(3)
H21_5 H 0.364463 0.355382 0.313641
C34_5 C 0.1740(2) 0.4507(5) 0.1023(3)
H22_5 H 0.160089 0.421633 0.076613
C35_5 C 0.3842(3) 0.4659(5) 0.3495(3)
H23_5 H 0.404234 0.435274 0.368874
H24_8 H 0.578004 0.010849 0.125984
Zn3_4 Zn 0.82618(3) 0.64108(5) 0.72101(3)
I2_4 I 0.87059(2) 0.65872(4) 0.79643(2)
I3_4 I 0.76539(2) 0.73185(4) 0.69750(2)
N1_6 N 0.77623(14) 0.0499(3) 0.72878(17)
N2_4 N 0.92790(15) 0.7879(4) 0.56014(17)
N3_4 N 0.98034(14) 0.7394(3) 0.52894(16)
N4_6 N 0.81530(15) 0.1783(3) 0.74909(17)
N5_4 N 0.96284(15) 0.6577(4) 0.58780(18)
N7_6 N 0.76210(15) 0.1869(3) 0.68938(17)
N10_4 N 0.81364(17) 0.5038(3) 0.71526(18)
N11_4 N 0.85935(17) 0.6635(4) 0.67456(19)
C1_6 C 0.75630(18) 0.1000(4) 0.6963(2)
C4_6 C 0.7731(2) 0.3794(4) 0.6911(2)
H2_6 H 0.749691 0.357821 0.673899
C5_6 C 0.97094(19) 0.8917(5) 0.4732(2)
H3_6 H 0.991294 0.851521 0.471471
C6_4 C 0.94727(18) 0.8765(4) 0.5032(2)
C7_6 C 0.8331(2) 0.3556(4) 0.7384(2)
H4_6 H 0.851974 0.317261 0.754968
C8_6 C 0.7028(2) 0.0964(5) 0.6294(2)
H5_6 H 0.708051 0.156971 0.622795
C9_6 C 0.7813(2) 0.4699(5) 0.6927(3)
H6_4 H 0.762813 0.509974 0.676681
C10_6 C 0.79187(18) 0.2224(4) 0.7176(2)
C11_6 C 0.96443(19) 0.9659(4) 0.4462(2)
H7_6 H 0.981002 0.976490 0.426118
C12_4 C 0.8722(2) 0.7365(5) 0.6100(2)
H8_4 H 0.863489 0.774764 0.585304
C13_6 C 0.80587(18) 0.0919(4) 0.7531(2)
C14_4 C 0.9195(3) 0.9388(6) 0.5049(3)
H9_4 H 0.903487 0.932366 0.525932
C15_4 C 0.9084(2) 0.6993(5) 0.6171(2)
C17_6 C 0.83123(19) 0.0399(4) 0.7891(2)
C21_6 C 0.79939(18) 0.3204(4) 0.7149(2)
C22_4 C 0.95207(18) 0.7968(4) 0.53244(19)
C23_4 C 0.9192(2) 0.6440(6) 0.6535(3)
H14_4 H 0.943621 0.615741 0.658942
C24_4 C 0.8487(2) 0.7167(5) 0.6396(3)
H15_4 H 0.823754 0.742416 0.634639
C26_4 C 0.98478(18) 0.6722(4) 0.5583(2)
C27_4 C 0.93450(18) 0.7164(4) 0.5865(2)
C28_6 C 0.8393(2) 0.4468(5) 0.7377(3)
H17_6 H 0.862874 0.470075 0.753808
C30_6 C 0.72404(17) 0.0542(4) 0.6663(2)
C31_4 C 0.8947(2) 0.6300(6) 0.6817(3)
H19_4 H 0.903256 0.594842 0.707549
C33_6 C 0.8604(3) 0.0821(5) 0.8168(3)
H21_6 H 0.864463 0.144618 0.813641
C34_6 C 0.6740(2) 0.0493(5) 0.6023(3)
H22_6 H 0.660089 0.078367 0.576613
C35_6 C 0.8842(3) 0.0341(5) 0.8495(3)
H23_6 H 0.904234 0.064726 0.868874
Zn3_5 Zn 0.67382(3) 0.14108(5) 0.77899(3)
I2_5 I 0.62941(2) 0.15872(4) 0.70357(2)
I3_5 I 0.73461(2) 0.23185(4) 0.80250(2)
N2_5 N 0.57210(15) 0.2879(4) 0.93986(17)
N3_5 N 0.51966(14) 0.2394(3) 0.97106(16)
N5_5 N 0.53716(15) 0.1577(4) 0.91220(18)
N10_5 N 0.68636(17) 0.0038(3) 0.78474(18)
N11_5 N 0.64065(17) 0.1635(4) 0.82544(19)
C2_7 C 0.48253(18) 0.1113(4) 0.9409(2)
C6_5 C 0.55273(18) 0.3765(4) 0.9968(2)
H6_5 H 0.737187 0.009974 0.823319
C12_5 C 0.6278(2) 0.2365(5) 0.8900(2)
H8_5 H 0.636511 0.274764 0.914696
C14_5 C 0.5805(3) 0.4388(6) 0.9951(3)
H9_5 H 0.596513 0.432366 0.974068
C15_5 C 0.5916(2) 0.1993(5) 0.8829(2)
C18_7 C 0.4647(2) 0.0722(5) 0.9013(2)
H11_7 H 0.473262 0.084641 0.874653
C19_7 C 0.46889(19) 0.0923(5) 0.9786(2)
C20_7 C 0.4383(2) 0.0348(5) 0.9759(2)
C22_5 C 0.54793(18) 0.2968(4) 0.96756(19)
C23_5 C 0.5808(2) 0.1440(6) 0.8465(3)
H14_5 H 0.556379 0.115741 0.841058
C24_5 C 0.6513(2) 0.2167(5) 0.8604(3)
H15_5 H 0.676246 0.242416 0.865361
C26_5 C 0.51522(18) 0.1722(4) 0.9417(2)
C27_5 C 0.56550(18) 0.2164(4) 0.9135(2)
C31_5 C 0.6053(2) 0.1300(6) 0.8183(3)
H19_5 H 0.596744 0.094842 0.792451
C36_7 C 0.4344(2) 0.0153(6) 0.9013(3)
I5_6 I 0.35868(2) 0.89143(8) 0.00641(3)
I5_7 I 0.14132(2) 0.60857(8) 0.99359(3)
H12_8 H 0.019541 0.381302 0.993929
H13_8 H 0.071324 0.477394 0.998134
Zn3_6 Zn 0.82618(3) 0.35892(5) 0.22101(3)
I2_6 I 0.87059(2) 0.34128(4) 0.29643(2)
I3_6 I 0.76539(2) 0.26815(4) 0.19750(2)
N1_7 N 0.77623(14) 0.9501(3) 0.22878(17)
N2_6 N 0.92790(15) 0.2121(4) 0.06014(17)
N3_6 N 0.98034(14) 0.2606(3) 0.02894(16)
N4_7 N 0.81530(15) 0.8217(3) 0.24909(17)
N5_6 N 0.96284(15) 0.3423(4) 0.08780(18)
N7_7 N 0.76210(15) 0.8131(3) 0.18938(17)
N10_6 N 0.81364(17) 0.4962(3) 0.21526(18)
N11_6 N 0.85935(17) 0.3365(4) 0.17456(19)
C1_7 C 0.75630(18) 0.9000(4) 0.1963(2)
C4_7 C 0.7731(2) 0.6206(4) 0.1911(2)
H2_7 H 0.749691 0.642179 0.173899
C6_6 C 0.94727(18) 0.1235(4) 0.0032(2)
C7_7 C 0.8331(2) 0.6444(4) 0.2384(2)
H4_7 H 0.851974 0.682739 0.254968
C8_7 C 0.7028(2) 0.9036(5) 0.1294(2)
H5_7 H 0.708051 0.843029 0.122795
C9_7 C 0.7813(2) 0.5301(5) 0.1927(3)
H6_6 H 0.762813 0.490026 0.176681
C10_7 C 0.79187(18) 0.7776(4) 0.2176(2)
C12_6 C 0.8722(2) 0.2635(5) 0.1100(2)
H8_6 H 0.863489 0.225236 0.085304
C13_7 C 0.80587(18) 0.9081(4) 0.2531(2)
C14_6 C 0.9195(3) 0.0612(6) 0.0049(3)
H9_6 H 0.903487 0.067634 0.025932
C15_6 C 0.9084(2) 0.3007(5) 0.1171(2)
C17_7 C 0.83123(19) 0.9601(4) 0.2891(2)
C21_7 C 0.79939(18) 0.6796(4) 0.2149(2)
C22_6 C 0.95207(18) 0.2032(4) 0.03244(19)
C23_6 C 0.9192(2) 0.3560(6) 0.1535(3)
H14_6 H 0.943621 0.384259 0.158942
C24_6 C 0.8487(2) 0.2833(5) 0.1396(3)
H15_6 H 0.823754 0.257584 0.134639
C26_6 C 0.98478(18) 0.3278(4) 0.0583(2)
C27_6 C 0.93450(18) 0.2836(4) 0.0865(2)
C28_7 C 0.8393(2) 0.5532(5) 0.2377(3)
H17_7 H 0.862874 0.529925 0.253808
C30_7 C 0.72404(17) 0.9458(4) 0.1663(2)
C31_6 C 0.8947(2) 0.3700(6) 0.1817(3)
H19_6 H 0.903256 0.405158 0.207549
C33_7 C 0.8604(3) 0.9179(5) 0.3168(3)
H21_7 H 0.864463 0.855382 0.313641
C34_7 C 0.6740(2) 0.9507(5) 0.1023(3)
H22_7 H 0.660089 0.921633 0.076613
C35_7 C 0.8842(3) 0.9659(5) 0.3495(3)
H23_7 H 0.904234 0.935274 0.368874
C5_7 C 0.97094(19) 0.1083(5) 0.9732(2)
H3_7 H 0.991294 0.148479 0.971471
C11_7 C 0.96443(19) 0.0341(4) 0.9462(2)
H7_7 H 0.981002 0.023510 0.926118
Zn3_7 Zn 0.17382(3) 0.35892(5) 0.27899(3)
I2_7 I 0.12941(2) 0.34128(4) 0.20357(2)
I3_7 I 0.23461(2) 0.26815(4) 0.30250(2)
N1_8 N 0.22377(14) 0.9501(3) 0.27122(17)
N2_7 N 0.07210(15) 0.2121(4) 0.43986(17)
N3_7 N 0.01966(14) 0.2606(3) 0.47106(16)
N4_8 N 0.18470(15) 0.8217(3) 0.25091(17)
N5_7 N 0.03716(15) 0.3423(4) 0.41220(18)
N7_8 N 0.23790(15) 0.8131(3) 0.31062(17)
N10_7 N 0.18636(17) 0.4962(3) 0.28474(18)
N11_7 N 0.14065(17) 0.3365(4) 0.32544(19)
C1_8 C 0.24370(18) 0.9000(4) 0.3037(2)
C4_8 C 0.2269(2) 0.6206(4) 0.3089(2)
H2_8 H 0.250309 0.642179 0.326101
C5_8 C 0.02906(19) 0.1083(5) 0.5268(2)
H3_8 H 0.008706 0.148479 0.528529
C6_7 C 0.05273(18) 0.1235(4) 0.4968(2)
C7_8 C 0.1669(2) 0.6444(4) 0.2616(2)
H4_8 H 0.148026 0.682739 0.245032
C8_8 C 0.2972(2) 0.9036(5) 0.3706(2)
H5_8 H 0.291949 0.843029 0.377205
C9_8 C 0.2187(2) 0.5301(5) 0.3073(3)
H6_7 H 0.237187 0.490026 0.323319
C10_8 C 0.20813(18) 0.7776(4) 0.2824(2)
C11_8 C 0.03557(19) 0.0341(4) 0.5538(2)
H7_8 H 0.018998 0.023510 0.573882
C12_7 C 0.1278(2) 0.2635(5) 0.3900(2)
H8_7 H 0.136511 0.225236 0.414696
C13_8 C 0.19413(18) 0.9081(4) 0.2469(2)
C14_7 C 0.0805(3) 0.0612(6) 0.4951(3)
H9_7 H 0.096513 0.067634 0.474068
C15_7 C 0.0916(2) 0.3007(5) 0.3829(2)
C17_8 C 0.16877(19) 0.9601(4) 0.2109(2)
C21_8 C 0.20061(18) 0.6796(4) 0.2851(2)
C22_7 C 0.04793(18) 0.2032(4) 0.46756(19)
C23_7 C 0.0808(2) 0.3560(6) 0.3465(3)
H14_7 H 0.056379 0.384259 0.341058
C24_7 C 0.1513(2) 0.2833(5) 0.3604(3)
H15_7 H 0.176246 0.257584 0.365361
C26_7 C 0.01522(18) 0.3278(4) 0.4417(2)
C27_7 C 0.06550(18) 0.2836(4) 0.4135(2)
C28_8 C 0.1607(2) 0.5532(5) 0.2623(3)
H17_8 H 0.137126 0.529925 0.246192
C30_8 C 0.27596(17) 0.9458(4) 0.3337(2)
C31_7 C 0.1053(2) 0.3700(6) 0.3183(3)
H19_7 H 0.096744 0.405158 0.292451
C33_8 C 0.1396(3) 0.9179(5) 0.1832(3)
H21_8 H 0.135537 0.855382 0.186359
C34_8 C 0.3260(2) 0.9507(5) 0.3977(3)
H22_8 H 0.339911 0.921633 0.423387
C35_8 C 0.1158(3) 0.9659(5) 0.1505(3)
H23_8 H 0.095766 0.935274 0.131126
I5_8 I 0.64132(2) 0.10857(8) 0.99359(3)
Zn3_8 Zn 0.32618(3) 0.85892(5) 0.22101(3)
I2_8 I 0.37059(2) 0.84128(4) 0.29643(2)
I3_8 I 0.26539(2) 0.76815(4) 0.19750(2)
N2_8 N 0.42790(15) 0.7121(4) 0.06014(17)
N3_8 N 0.48034(14) 0.7606(3) 0.02894(16)
N5_8 N 0.46284(15) 0.8423(4) 0.08780(18)
N10_8 N 0.31364(17) 0.9962(3) 0.21526(18)
N11_8 N 0.35935(17) 0.8365(4) 0.17456(19)
C2_8 C 0.51747(18) 0.8887(4) 0.0591(2)
C6_8 C 0.44727(18) 0.6235(4) 0.0032(2)
H6_8 H 0.262813 0.990026 0.176681
C12_8 C 0.3722(2) 0.7635(5) 0.1100(2)
H8_8 H 0.363489 0.725236 0.085304
C14_8 C 0.4195(3) 0.5612(6) 0.0049(3)
H9_8 H 0.403487 0.567634 0.025932
C15_8 C 0.4084(2) 0.8007(5) 0.1171(2)
C18_8 C 0.5353(2) 0.9278(5) 0.0987(2)
H11_8 H 0.526738 0.915359 0.125347
C19_8 C 0.53111(19) 0.9077(5) 0.0214(2)
C20_8 C 0.5617(2) 0.9652(5) 0.0241(2)
C22_8 C 0.45207(18) 0.7032(4) 0.03244(19)
C23_8 C 0.4192(2) 0.8560(6) 0.1535(3)
H14_8 H 0.443621 0.884259 0.158942
C24_8 C 0.3487(2) 0.7833(5) 0.1396(3)
H15_8 H 0.323754 0.757584 0.134639
C26_8 C 0.48478(18) 0.8278(4) 0.0583(2)
C27_8 C 0.43450(18) 0.7836(4) 0.0865(2)
C31_8 C 0.3947(2) 0.8700(6) 0.1817(3)
H19_8 H 0.403256 0.905158 0.207549
C36_8 C 0.5656(2) 0.9847(6) 0.0987(3)
loop_
_geom_bond_atom_site_label_1
_geom_bond_atom_site_label_2
_geom_bond_site_symmetry_1
_geom_bond_site_symmetry_2
Zn1 I1 1_555 1_555
I4 Zn1 1_555 1_555
N6 Zn1 1_555 1_555
C25 N6 1_555 1_555
H16 C25 1_555 1_555
N14 Zn1 1_555 1_555
Zn1_2 I1_2 1_555 1_555
I4_2 Zn1_2 1_555 1_555
N6_2 Zn1_2 1_555 1_555
C5 H3 1_555 1_555
C11 N6_2 1_555 1_555
H7 C11 1_555 1_555
C25_2 N6_2 1_555 1_555
H16_2 C25_2 1_555 1_555
N14_2 Zn1_2 1_555 1_555
C5 C11 1_555 1_555
N8 C29 1_555 1_555
N14 C32 1_555 1_555
C3 H1 1_555 1_555
C16 H10 1_555 1_555
C29 C16 1_555 1_555
H18 C29 1_555 1_555
C32 C3 1_555 1_555
H20 C32 1_555 1_555
Zn5 N8 1_555 1_555
Zn2 I5 1_555 1_555
I6 Zn2 1_555 1_555
N12 Zn2 1_555 1_555
C2 C18 1_555 1_555
C18 H11 1_555 1_555
C19 C2 1_555 1_555
H12_2 C19 1_555 1_555
C20 N12 1_555 1_555
H13_2 C20 1_555 1_555
C36 N12 1_555 1_555
H24 C36 1_555 1_555
N13 Zn2 1_555 1_555
C18 C36 1_555 1_555
C19 C20 1_555 1_555
Zn5 I5_2 1_555 1_555
I6_2 Zn5 1_555 1_555
N1 C1 1_555 1_555
N4 C10 1_555 1_555
N7 C1 1_555 1_555
N13 C29_2 1_555 1_555
N14_2 C32_2 1_555 1_555
N12_2 Zn5 1_555 1_555
C1 C30 1_555 1_555
C3_2 H1_2 1_555 1_555
C4 H2 1_555 1_555
C7 H4 1_555 1_555
C8 H5 1_555 1_555
C10 N7 1_555 1_555
C13 N1 1_555 1_555
C16_2 H10_2 1_555 1_555
C17 C3_2 1_555 1_555
C21 C4 1_555 1_555
H17 C28 1_555 1_555
C29_2 C16_2 1_555 1_555
H18_2 C29_2 1_555 1_555
C30 C8 1_555 1_555
C32_2 C3_2 1_555 1_555
H20_2 C32_2 1_555 1_555
C33 C17 1_555 1_555
H21 C33 1_555 1_555
C34 N13 1_555 1_555
H22 C34 1_555 1_555
C35 N14_2 1_555 1_555
H23 C35 1_555 1_555
N4 C13 1_555 1_555
C4 C9 1_555 1_555
C7 C21 1_555 1_555
C7 C28 1_555 1_555
C8 C34 1_555 1_555
C10 C21 1_555 1_555
C13 C17 1_555 1_555
C16_2 C30 1_555 1_555
C33 C35 1_555 1_555
C5_2 H3_2 1_555 1_555
H7_2 C11_2 1_555 1_555
C5_2 C11_2 1_555 1_555
Zn3 I2 1_555 1_555
I3 Zn3 1_555 1_555
N1_2 C1_2 1_555 1_555
N2 C22 1_555 1_555
N3 C22 1_555 1_555
N4_2 C10_2 1_555 1_555
N5 C26 1_555 1_555
N7_2 C1_2 1_555 1_555
N10 Zn3 1_555 1_555
N11 Zn3 1_555 1_555
C1_2 C30_2 1_555 1_555
C4_2 H2_2 1_555 1_555
C7_2 H4_2 1_555 1_555
C8_2 H5_2 1_555 1_555
C9_2 N10 1_555 1_555
H6 C9_2 1_555 1_555
C10_2 N7_2 1_555 1_555
C12 H8 1_555 1_555
C13_2 N1_2 1_555 1_555
C14 C6 1_555 1_555
H9 C14 1_555 1_555
C15 C12 1_555 1_555
C21_2 C4_2 1_555 1_555
C22 C6 1_555 1_555
C23 C15 1_555 1_555
H14 C23 1_555 1_555
C24 N11 1_555 1_555
H15 C24 1_555 1_555
C26 N3 1_555 1_555
C27 N2 1_555 1_555
C28_2 N10 1_555 1_555
H17_2 C28_2 1_555 1_555
C30_2 C8_2 1_555 1_555
C31 N11 1_555 1_555
H19 C31 1_555 1_555
C33_2 C17_2 1_555 1_555
H21_2 C33_2 1_555 1_555
H22_2 C34_2 1_555 1_555
H23_2 C35_2 1_555 1_555
N4_2 C13_2 1_555 1_555
N5 C27 1_555 1_555
C4_2 C9_2 1_555 1_555
C7_2 C21_2 1_555 1_555
C7_2 C28_2 1_555 1_555
C8_2 C34_2 1_555 1_555
C10_2 C21_2 1_555 1_555
C12 C24 1_555 1_555
C13_2 C17_2 1_555 1_555
C15 C27 1_555 1_555
C23 C31 1_555 1_555
C33_2 C35_2 1_555 1_555
N8_2 C29_3 1_555 1_555
N9 C32_3 1_555 1_555
C3_3 H1_3 1_555 1_555
C16_3 H10_3 1_555 1_555
C29_3 C16_3 1_555 1_555
H18_3 C29_3 1_555 1_555
C32_3 C3_3 1_555 1_555
H20_3 C32_3 1_555 1_555
Zn4 N9 1_555 1_555
Zn5_2 N8_2 1_555 1_555
I6_3 Zn2_2 1_555 1_555
N12_3 Zn2_2 1_555 1_555
C2_2 C18_2 1_555 1_555
C18_2 H11_2 1_555 1_555
C19_2 C2_2 1_555 1_555
C20_2 N12_3 1_555 1_555
C36_2 N12_3 1_555 1_555
H24_3 C36_2 1_555 1_555
N13_2 Zn2_2 1_555 1_555
C18_2 C36_2 1_555 1_555
C19_2 C20_2 1_555 1_555
I6_4 Zn5_2 1_555 1_555
N1_3 C1_3 1_555 1_555
N4_3 C10_3 1_555 1_555
N7_3 C1_3 1_555 1_555
N13_2 C29_4 1_555 1_555
N9_2 C32_4 1_555 1_555
N12_4 Zn5_2 1_555 1_555
C1_3 C30_3 1_555 1_555
C3_4 H1_4 1_555 1_555
C4_3 H2_3 1_555 1_555
C7_3 H4_3 1_555 1_555
C8_3 H5_3 1_555 1_555
C10_3 N7_3 1_555 1_555
C13_3 N1_3 1_555 1_555
C16_4 H10_4 1_555 1_555
C17_3 C3_4 1_555 1_555
C21_3 C4_3 1_555 1_555
H17_3 C28_3 1_555 1_555
C29_4 C16_4 1_555 1_555
H18_4 C29_4 1_555 1_555
C30_3 C8_3 1_555 1_555
C32_4 C3_4 1_555 1_555
H20_4 C32_4 1_555 1_555
C33_3 C17_3 1_555 1_555
H21_3 C33_3 1_555 1_555
C34_3 N13_2 1_555 1_555
H22_3 C34_3 1_555 1_555
C35_3 N9_2 1_555 1_555
H23_3 C35_3 1_555 1_555
Zn4_2 N9_2 1_555 1_555
N4_3 C13_3 1_555 1_555
C4_3 C9_3 1_555 1_555
C7_3 C21_3 1_555 1_555
C7_3 C28_3 1_555 1_555
C8_3 C34_3 1_555 1_555
C10_3 C21_3 1_555 1_555
C13_3 C17_3 1_555 1_555
C16_4 C30_3 1_555 1_555
C33_3 C35_3 1_555 1_555
Zn4 I1_3 1_555 1_555
I4_3 Zn4 1_555 1_555
N6_3 Zn4 1_555 1_555
C25_3 N6_3 1_555 1_555
H16_3 C25_3 1_555 1_555
Zn4_2 I1_4 1_555 1_555
Zn3_2 I2_2 1_555 1_555
I3_2 Zn3_2 1_555 1_555
I4_4 Zn4_2 1_555 1_555
N2_2 C22_2 1_555 1_555
N3_2 C22_2 1_555 1_555
N5_2 C26_2 1_555 1_555
N6_4 Zn4_2 1_555 1_555
N10_2 Zn3_2 1_555 1_555
N11_2 Zn3_2 1_555 1_555
C2_3 C18_3 1_555 1_555
C5_3 H3_3 1_555 1_555
C6_2 C5_3 1_555 1_555
C11_3 N6_4 1_555 1_555
H7_3 C11_3 1_555 1_555
C12_2 H8_2 1_555 1_555
C14_2 C6_2 1_555 1_555
H9_2 C14_2 1_555 1_555
C15_2 C12_2 1_555 1_555
C18_3 H11_3 1_555 1_555
C19_3 C2_3 1_555 1_555
H12_3 C19_3 1_555 1_555
H13_3 C20_3 1_555 1_555
C22_2 C6_2 1_555 1_555
C23_2 C15_2 1_555 1_555
H14_2 C23_2 1_555 1_555
C24_2 N11_2 1_555 1_555
H15_2 C24_2 1_555 1_555
C25_4 N6_4 1_555 1_555
H16_4 C25_4 1_555 1_555
C26_2 N3_2 1_555 1_555
C27_2 N2_2 1_555 1_555
C31_2 N11_2 1_555 1_555
H19_2 C31_2 1_555 1_555
N5_2 C27_2 1_555 1_555
C2_3 C26_2 1_555 1_555
C5_3 C11_3 1_555 1_555
C12_2 C24_2 1_555 1_555
C14_2 C25_4 1_555 1_555
C15_2 C27_2 1_555 1_555
C18_3 C36_3 1_555 1_555
C19_3 C20_3 1_555 1_555
C23_2 C31_2 1_555 1_555
Zn2_3 I5_4 1_555 1_555
I6_5 Zn2_3 1_555 1_555
N12_5 Zn2_3 1_555 1_555
C2_4 C18_4 1_555 1_555
C18_4 H11_4 1_555 1_555
C19_4 C2_4 1_555 1_555
H12_5 C19_4 1_555 1_555
C20_4 N12_5 1_555 1_555
H13_5 C20_4 1_555 1_555
C36_4 N12_5 1_555 1_555
H24_5 C36_4 1_555 1_555
N13_3 Zn2_3 1_555 1_555
C18_4 C36_4 1_555 1_555
C19_4 C20_4 1_555 1_555
N8_3 C29_5 1_555 1_555
N9_3 C32_5 1_555 1_555
C3_5 H1_5 1_555 1_555
C16_5 H10_5 1_555 1_555
C29_5 C16_5 1_555 1_555
H18_5 C29_5 1_555 1_555
C32_5 C3_5 1_555 1_555
H20_5 C32_5 1_555 1_555
Zn4_3 N9_3 1_555 1_555
Zn5_3 N8_3 1_555 1_555
Zn5_3 I5_5 1_555 1_555
I6_6 Zn5_3 1_555 1_555
N1_4 C1_4 1_555 1_555
N4_4 C10_4 1_555 1_555
N7_4 C1_4 1_555 1_555
N13_3 C29_6 1_555 1_555
N9_4 C32_6 1_555 1_555
N12_6 Zn5_3 1_555 1_555
C1_4 C30_4 1_555 1_555
C3_6 H1_6 1_555 1_555
C4_4 H2_4 1_555 1_555
C7_4 H4_4 1_555 1_555
C8_4 H5_4 1_555 1_555
C10_4 N7_4 1_555 1_555
C13_4 N1_4 1_555 1_555
C16_6 H10_6 1_555 1_555
C17_4 C3_6 1_555 1_555
C21_4 C4_4 1_555 1_555
H17_4 C28_4 1_555 1_555
C29_6 C16_6 1_555 1_555
H18_6 C29_6 1_555 1_555
C30_4 C8_4 1_555 1_555
C32_6 C3_6 1_555 1_555
H20_6 C32_6 1_555 1_555
C33_4 C17_4 1_555 1_555
H21_4 C33_4 1_555 1_555
C34_4 N13_3 1_555 1_555
H22_4 C34_4 1_555 1_555
C35_4 N9_4 1_555 1_555
H23_4 C35_4 1_555 1_555
Zn4_4 N9_4 1_555 1_555
N4_4 C13_4 1_555 1_555
C4_4 C9_4 1_555 1_555
C7_4 C21_4 1_555 1_555
C7_4 C28_4 1_555 1_555
C8_4 C34_4 1_555 1_555
C10_4 C21_4 1_555 1_555
C13_4 C17_4 1_555 1_555
C16_6 C30_4 1_555 1_555
C33_4 C35_4 1_555 1_555
Zn4_3 I1_5 1_555 1_555
I4_5 Zn4_3 1_555 1_555
N6_5 Zn4_3 1_555 1_555
C25_5 N6_5 1_555 1_555
H16_5 C25_5 1_555 1_555
Zn4_4 I1_6 1_555 1_555
I4_6 Zn4_4 1_555 1_555
N6_6 Zn4_4 1_555 1_555
C5_4 H3_4 1_555 1_555
C11_4 N6_6 1_555 1_555
H7_4 C11_4 1_555 1_555
C25_6 N6_6 1_555 1_555
H16_6 C25_6 1_555 1_555
C5_4 C11_4 1_555 1_555
Zn1_3 I1_7 1_555 1_555
I4_7 Zn1_3 1_555 1_555
N6_7 Zn1_3 1_555 1_555
C25_7 N6_7 1_555 1_555
H16_7 C25_7 1_555 1_555
N14_3 Zn1_3 1_555 1_555
Zn1_4 I1_8 1_555 1_555
Zn3_3 I2_3 1_555 1_555
I3_3 Zn3_3 1_555 1_555
I4_8 Zn1_4 1_555 1_555
N2_3 C22_3 1_555 1_555
N3_3 C22_3 1_555 1_555
N5_3 C26_3 1_555 1_555
N6_8 Zn1_4 1_555 1_555
N10_3 Zn3_3 1_555 1_555
N11_3 Zn3_3 1_555 1_555
C2_5 C18_5 1_555 1_555
C5_5 H3_5 1_555 1_555
C6_3 C5_5 1_555 1_555
C11_5 N6_8 1_555 1_555
H7_5 C11_5 1_555 1_555
C12_3 H8_3 1_555 1_555
C14_3 C6_3 1_555 1_555
H9_3 C14_3 1_555 1_555
C15_3 C12_3 1_555 1_555
C18_5 H11_5 1_555 1_555
C19_5 C2_5 1_555 1_555
H12_7 C19_5 1_555 1_555
H13_7 C20_5 1_555 1_555
C22_3 C6_3 1_555 1_555
C23_3 C15_3 1_555 1_555
H14_3 C23_3 1_555 1_555
C24_3 N11_3 1_555 1_555
H15_3 C24_3 1_555 1_555
C25_8 N6_8 1_555 1_555
H16_8 C25_8 1_555 1_555
C26_3 N3_3 1_555 1_555
C27_3 N2_3 1_555 1_555
C31_3 N11_3 1_555 1_555
H19_3 C31_3 1_555 1_555
N14_4 Zn1_4 1_555 1_555
N5_3 C27_3 1_555 1_555
C2_5 C26_3 1_555 1_555
C5_5 C11_5 1_555 1_555
C12_3 C24_3 1_555 1_555
C14_3 C25_8 1_555 1_555
C15_3 C27_3 1_555 1_555
C18_5 C36_5 1_555 1_555
C19_5 C20_5 1_555 1_555
C23_3 C31_3 1_555 1_555
I6_7 Zn2_4 1_555 1_555
N12_7 Zn2_4 1_555 1_555
C2_6 C18_6 1_555 1_555
C18_6 H11_6 1_555 1_555
C19_6 C2_6 1_555 1_555
C20_6 N12_7 1_555 1_555
C36_6 N12_7 1_555 1_555
H24_7 C36_6 1_555 1_555
N13_4 Zn2_4 1_555 1_555
C18_6 C36_6 1_555 1_555
C19_6 C20_6 1_555 1_555
N8_4 C29_7 1_555 1_555
N14_3 C32_7 1_555 1_555
C3_7 H1_7 1_555 1_555
C16_7 H10_7 1_555 1_555
C29_7 C16_7 1_555 1_555
H18_7 C29_7 1_555 1_555
C32_7 C3_7 1_555 1_555
H20_7 C32_7 1_555 1_555
Zn5_4 N8_4 1_555 1_555
I6_8 Zn5_4 1_555 1_555
N1_5 C1_5 1_555 1_555
N4_5 C10_5 1_555 1_555
N7_5 C1_5 1_555 1_555
N13_4 C29_8 1_555 1_555
N14_4 C32_8 1_555 1_555
N12_8 Zn5_4 1_555 1_555
C1_5 C30_5 1_555 1_555
C3_8 H1_8 1_555 1_555
C4_5 H2_5 1_555 1_555
C7_5 H4_5 1_555 1_555
C8_5 H5_5 1_555 1_555
C10_5 N7_5 1_555 1_555
C13_5 N1_5 1_555 1_555
C16_8 H10_8 1_555 1_555
C17_5 C3_8 1_555 1_555
C21_5 C4_5 1_555 1_555
H17_5 C28_5 1_555 1_555
C29_8 C16_8 1_555 1_555
H18_8 C29_8 1_555 1_555
C30_5 C8_5 1_555 1_555
C32_8 C3_8 1_555 1_555
H20_8 C32_8 1_555 1_555
C33_5 C17_5 1_555 1_555
H21_5 C33_5 1_555 1_555
C34_5 N13_4 1_555 1_555
H22_5 C34_5 1_555 1_555
C35_5 N14_4 1_555 1_555
H23_5 C35_5 1_555 1_555
N4_5 C13_5 1_555 1_555
C4_5 C9_5 1_555 1_555
C7_5 C21_5 1_555 1_555
C7_5 C28_5 1_555 1_555
C8_5 C34_5 1_555 1_555
C10_5 C21_5 1_555 1_555
C13_5 C17_5 1_555 1_555
C16_8 C30_5 1_555 1_555
C33_5 C35_5 1_555 1_555
Zn3_4 I2_4 1_555 1_555
I3_4 Zn3_4 1_555 1_555
N1_6 C1_6 1_555 1_555
N2_4 C22_4 1_555 1_555
N3_4 C22_4 1_555 1_555
N4_6 C10_6 1_555 1_555
N5_4 C26_4 1_555 1_555
N7_6 C1_6 1_555 1_555
N10_4 Zn3_4 1_555 1_555
N11_4 Zn3_4 1_555 1_555
C1_6 C30_6 1_555 1_555
C4_6 H2_6 1_555 1_555
C5_6 H3_6 1_555 1_555
C6_4 C5_6 1_555 1_555
C7_6 H4_6 1_555 1_555
C8_6 H5_6 1_555 1_555
C9_6 N10_4 1_555 1_555
H6_4 C9_6 1_555 1_555
C10_6 N7_6 1_555 1_555
H7_6 C11_6 1_555 1_555
C12_4 H8_4 1_555 1_555
C13_6 N1_6 1_555 1_555
C14_4 C6_4 1_555 1_555
H9_4 C14_4 1_555 1_555
C15_4 C12_4 1_555 1_555
C21_6 C4_6 1_555 1_555
C22_4 C6_4 1_555 1_555
C23_4 C15_4 1_555 1_555
H14_4 C23_4 1_555 1_555
C24_4 N11_4 1_555 1_555
H15_4 C24_4 1_555 1_555
C26_4 N3_4 1_555 1_555
C27_4 N2_4 1_555 1_555
C28_6 N10_4 1_555 1_555
H17_6 C28_6 1_555 1_555
C30_6 C8_6 1_555 1_555
C31_4 N11_4 1_555 1_555
H19_4 C31_4 1_555 1_555
C33_6 C17_6 1_555 1_555
H21_6 C33_6 1_555 1_555
H22_6 C34_6 1_555 1_555
H23_6 C35_6 1_555 1_555
N4_6 C13_6 1_555 1_555
N5_4 C27_4 1_555 1_555
C4_6 C9_6 1_555 1_555
C5_6 C11_6 1_555 1_555
C7_6 C21_6 1_555 1_555
C7_6 C28_6 1_555 1_555
C8_6 C34_6 1_555 1_555
C10_6 C21_6 1_555 1_555
C12_4 C24_4 1_555 1_555
C13_6 C17_6 1_555 1_555
C15_4 C27_4 1_555 1_555
C23_4 C31_4 1_555 1_555
C33_6 C35_6 1_555 1_555
Zn3_5 I2_5 1_555 1_555
I3_5 Zn3_5 1_555 1_555
N2_5 C22_5 1_555 1_555
N3_5 C22_5 1_555 1_555
N5_5 C26_5 1_555 1_555
N10_5 Zn3_5 1_555 1_555
N11_5 Zn3_5 1_555 1_555
C2_7 C18_7 1_555 1_555
C12_5 H8_5 1_555 1_555
C14_5 C6_5 1_555 1_555
H9_5 C14_5 1_555 1_555
C15_5 C12_5 1_555 1_555
C18_7 H11_7 1_555 1_555
C19_7 C2_7 1_555 1_555
C22_5 C6_5 1_555 1_555
C23_5 C15_5 1_555 1_555
H14_5 C23_5 1_555 1_555
C24_5 N11_5 1_555 1_555
H15_5 C24_5 1_555 1_555
C26_5 N3_5 1_555 1_555
C27_5 N2_5 1_555 1_555
C31_5 N11_5 1_555 1_555
H19_5 C31_5 1_555 1_555
N5_5 C27_5 1_555 1_555
C2_7 C26_5 1_555 1_555
C12_5 C24_5 1_555 1_555
C15_5 C27_5 1_555 1_555
C18_7 C36_7 1_555 1_555
C19_7 C20_7 1_555 1_555
C23_5 C31_5 1_555 1_555
Zn3_6 I2_6 1_555 1_555
I3_6 Zn3_6 1_555 1_555
N1_7 C1_7 1_555 1_555
N2_6 C22_6 1_555 1_555
N3_6 C22_6 1_555 1_555
N4_7 C10_7 1_555 1_555
N5_6 C26_6 1_555 1_555
N7_7 C1_7 1_555 1_555
N10_6 Zn3_6 1_555 1_555
N11_6 Zn3_6 1_555 1_555
C1_7 C30_7 1_555 1_555
C4_7 H2_7 1_555 1_555
C7_7 H4_7 1_555 1_555
C8_7 H5_7 1_555 1_555
C9_7 N10_6 1_555 1_555
H6_6 C9_7 1_555 1_555
C10_7 N7_7 1_555 1_555
C12_6 H8_6 1_555 1_555
C13_7 N1_7 1_555 1_555
C14_6 C6_6 1_555 1_555
H9_6 C14_6 1_555 1_555
C15_6 C12_6 1_555 1_555
C21_7 C4_7 1_555 1_555
C22_6 C6_6 1_555 1_555
C23_6 C15_6 1_555 1_555
H14_6 C23_6 1_555 1_555
C24_6 N11_6 1_555 1_555
H15_6 C24_6 1_555 1_555
C26_6 N3_6 1_555 1_555
C27_6 N2_6 1_555 1_555
C28_7 N10_6 1_555 1_555
H17_7 C28_7 1_555 1_555
C30_7 C8_7 1_555 1_555
C31_6 N11_6 1_555 1_555
H19_6 C31_6 1_555 1_555
C33_7 C17_7 1_555 1_555
H21_7 C33_7 1_555 1_555
H22_7 C34_7 1_555 1_555
H23_7 C35_7 1_555 1_555
N4_7 C13_7 1_555 1_555
N5_6 C27_6 1_555 1_555
C4_7 C9_7 1_555 1_555
C7_7 C21_7 1_555 1_555
C7_7 C28_7 1_555 1_555
C8_7 C34_7 1_555 1_555
C10_7 C21_7 1_555 1_555
C12_6 C24_6 1_555 1_555
C13_7 C17_7 1_555 1_555
C15_6 C27_6 1_555 1_555
C23_6 C31_6 1_555 1_555
C33_7 C35_7 1_555 1_555
C5_7 H3_7 1_555 1_555
H7_7 C11_7 1_555 1_555
C5_7 C11_7 1_555 1_555
Zn3_7 I2_7 1_555 1_555
I3_7 Zn3_7 1_555 1_555
N1_8 C1_8 1_555 1_555
N2_7 C22_7 1_555 1_555
N3_7 C22_7 1_555 1_555
N4_8 C10_8 1_555 1_555
N5_7 C26_7 1_555 1_555
N7_8 C1_8 1_555 1_555
N10_7 Zn3_7 1_555 1_555
N11_7 Zn3_7 1_555 1_555
C1_8 C30_8 1_555 1_555
C4_8 H2_8 1_555 1_555
C5_8 H3_8 1_555 1_555
C6_7 C5_8 1_555 1_555
C7_8 H4_8 1_555 1_555
C8_8 H5_8 1_555 1_555
C9_8 N10_7 1_555 1_555
H6_7 C9_8 1_555 1_555
C10_8 N7_8 1_555 1_555
H7_8 C11_8 1_555 1_555
C12_7 H8_7 1_555 1_555
C13_8 N1_8 1_555 1_555
C14_7 C6_7 1_555 1_555
H9_7 C14_7 1_555 1_555
C15_7 C12_7 1_555 1_555
C21_8 C4_8 1_555 1_555
C22_7 C6_7 1_555 1_555
C23_7 C15_7 1_555 1_555
H14_7 C23_7 1_555 1_555
C24_7 N11_7 1_555 1_555
H15_7 C24_7 1_555 1_555
C26_7 N3_7 1_555 1_555
C27_7 N2_7 1_555 1_555
C28_8 N10_7 1_555 1_555
H17_8 C28_8 1_555 1_555
C30_8 C8_8 1_555 1_555
C31_7 N11_7 1_555 1_555
H19_7 C31_7 1_555 1_555
C33_8 C17_8 1_555 1_555
H21_8 C33_8 1_555 1_555
H22_8 C34_8 1_555 1_555
H23_8 C35_8 1_555 1_555
N4_8 C13_8 1_555 1_555
N5_7 C27_7 1_555 1_555
C4_8 C9_8 1_555 1_555
C5_8 C11_8 1_555 1_555
C7_8 C21_8 1_555 1_555
C7_8 C28_8 1_555 1_555
C8_8 C34_8 1_555 1_555
C10_8 C21_8 1_555 1_555
C12_7 C24_7 1_555 1_555
C13_8 C17_8 1_555 1_555
C15_7 C27_7 1_555 1_555
C23_7 C31_7 1_555 1_555
C33_8 C35_8 1_555 1_555
Zn3_8 I2_8 1_555 1_555
I3_8 Zn3_8 1_555 1_555
N2_8 C22_8 1_555 1_555
N3_8 C22_8 1_555 1_555
N5_8 C26_8 1_555 1_555
N10_8 Zn3_8 1_555 1_555
N11_8 Zn3_8 1_555 1_555
C2_8 C18_8 1_555 1_555
C12_8 H8_8 1_555 1_555
C14_8 C6_8 1_555 1_555
H9_8 C14_8 1_555 1_555
C15_8 C12_8 1_555 1_555
C18_8 H11_8 1_555 1_555
C19_8 C2_8 1_555 1_555
C22_8 C6_8 1_555 1_555
C23_8 C15_8 1_555 1_555
H14_8 C23_8 1_555 1_555
C24_8 N11_8 1_555 1_555
H15_8 C24_8 1_555 1_555
C26_8 N3_8 1_555 1_555
C27_8 N2_8 1_555 1_555
C31_8 N11_8 1_555 1_555
H19_8 C31_8 1_555 1_555
N5_8 C27_8 1_555 1_555
C2_8 C26_8 1_555 1_555
C12_8 C24_8 1_555 1_555
C15_8 C27_8 1_555 1_555
C18_8 C36_8 1_555 1_555
C19_8 C20_8 1_555 1_555
C23_8 C31_8 1_555 1_555

#END
