
###############################################################################
#
# This file contains modified crystal structure data generated from the
# MOF subset of the Cambridge Structural Database (CSD) v543 
# hosted by the Cambridge Crystallographic Data Centre (CCDC).
#
# This work is licensed under the Creative Commons
# Attribution-NonCommercial-ShareAlike 4.0 International License.
# To view a copy of this license, visit
# http://creativecommons.org/licenses/by-nc-sa/4.0/
# or send a letter to
# Creative Commons, PO Box 1866, Mountain View, CA 94042, USA.
#
# CIF created using the CSD Python API on 29 September 2022
# The structure has been converted into the P1 space group
# The structure has a 3D framework
# The original CSD entry TERPAK is in the monoclinic crystal system
# The original CSD entry TERPAK is in a Sohncke space group
# The framework has been calculated to contain at least 10.0% void space
# The void calculation uses a probe of radius 1.32A, grid spacing 0.4
#
###############################################################################

data_TERPAK
_chemical_formula_moiety         '(C288 H192 I48 N96 Zn24)n'
_symmetry_cell_setting           triclinic
_symmetry_space_group_name_H-M   'P 1'
_symmetry_Int_Tables_number      1
_space_group_name_Hall           'P 1'
loop_
_symmetry_equiv_pos_site_id
_symmetry_equiv_pos_as_xyz
1 x,y,z
_cell_length_a                   35.587(4)
_cell_length_b                   14.8874(17)
_cell_length_c                   30.854(4)
_cell_angle_alpha                90
_cell_angle_beta                 101.678(5)
_cell_angle_gamma                90
_cell_volume                     16008
loop_
_atom_site_label
_atom_site_type_symbol
_atom_site_fract_x
_atom_site_fract_y
_atom_site_fract_z
I1 I 0.47628(3) 0.11782(8) 0.10923(3)
I2 I 0.38554(3) 0.02217(6) 0.18046(3)
I5 I 0.36686(5) 0.92902(9) 0.04323(4)
I7 I 0.26576(3) 0.53270(7) 0.44876(4)
I8 I 0.37150(4) 0.60911(8) 0.54694(3)
I11 I 0.59676(5) 0.99433(9) 0.35736(8)
I12 I 0.63987(4) 0.87377(19) 0.24358(6)
Zn1 Zn 0.42079(5) 0.14289(10) 0.14732(5)
Zn3 Zn 0.62079(5) 0.86403(13) 0.31758(7)
Zn5 Zn 0.32658(5) 0.62441(11) 0.47172(6)
N2 N 0.3794(3) 0.2134(7) 0.1032(3)
N13 N 0.8805(3) 0.8190(7) 0.6037(4)
N14 N 0.6644(3) 0.8012(8) 0.3612(4)
N15 N 0.8133(3) 0.2612(8) 0.4652(4)
N16 N 0.8159(3) 0.5877(8) 0.4986(4)
N17 N 0.7759(3) 0.7157(8) 0.4785(3)
N18 N 0.7619(3) 0.5771(7) 0.4375(4)
N19 N 0.3605(3) 0.6012(8) 0.4259(4)
N20 N 0.4355(3) 0.2420(8) 0.1954(3)
N21 N 0.5790(3) 0.7687(8) 0.3126(4)
N22 N 0.4641(3) 0.6056(9) 0.3389(4)
N23 N 0.4279(2) 0.4753(7) 0.3100(3)
N24 N 0.4803(3) 0.5236(8) 0.2795(3)
C6 C 0.3509(4) 0.1729(9) 0.0776(5)
H5 H 0.347255 0.110560 0.082003
C7 C 0.3255(4) 0.2164(9) 0.0442(5)
H6 H 0.304914 0.184467 0.026355
C8 C 0.3307(3) 0.3096(8) 0.0371(4)
C9 C 0.3611(4) 0.3505(9) 0.0641(5)
H7 H 0.366331 0.412506 0.061170
C10 C 0.3840(5) 0.2975(10) 0.0961(5)
H8 H 0.405114 0.326282 0.114644
H11 H 0.347481 0.587334 0.007691
H12 H 0.360919 0.736658 0.003442
C18 C 0.3052(4) 0.3613(8) 0.0022(5)
C37 C 0.8851(5) 0.7293(10) 0.5998(6)
H25 H 0.905058 0.698700 0.619431
C38 C 0.8609(5) 0.6836(11) 0.5675(6)
H26 H 0.864449 0.620814 0.564477
C39 C 0.8310(4) 0.7267(9) 0.5388(4)
C40 C 0.8261(4) 0.8159(9) 0.5434(4)
H27 H 0.806009 0.846947 0.524337
C41 C 0.8509(4) 0.8610(9) 0.5763(4)
H28 H 0.847207 0.923560 0.579952
C42 C 0.6748(4) 0.7156(10) 0.3519(5)
H29 H 0.661470 0.687002 0.325736
C43 C 0.7034(4) 0.6711(10) 0.3788(4)
H30 H 0.709584 0.611442 0.371856
C44 C 0.7234(4) 0.7122(9) 0.4161(4)
C45 C 0.7147(3) 0.7971(9) 0.4259(5)
H31 H 0.728089 0.826552 0.451780
C46 C 0.6843(4) 0.8409(11) 0.3957(5)
H32 H 0.678508 0.901666 0.401201
C47 C 0.7820(4) 0.2948(9) 0.4430(5)
H33 H 0.764020 0.254770 0.425974
C48 C 0.7723(3) 0.3868(7) 0.4420(4)
H34 H 0.748069 0.407011 0.426243
C49 C 0.7991(4) 0.4472(8) 0.4645(4)
C50 C 0.8340(3) 0.4111(10) 0.4872(5)
H35 H 0.853570 0.449674 0.502457
C51 C 0.8401(4) 0.3178(9) 0.4871(5)
H36 H 0.863681 0.293980 0.502961
C52 C 0.7918(3) 0.5456(8) 0.4665(4)
C53 C 0.8065(3) 0.6746(8) 0.5031(4)
C54 C 0.7551(3) 0.6670(9) 0.4459(4)
C55 C 0.3954(4) 0.6306(11) 0.4333(5)
H37 H 0.404520 0.663655 0.459681
C56 C 0.4200(4) 0.6162(11) 0.4048(4)
H38 H 0.444740 0.642992 0.410530
C57 C 0.4087(3) 0.5627(9) 0.3679(4)
C58 C 0.3469(4) 0.5512(10) 0.3878(5)
H39 H 0.320980 0.531640 0.381063
C59 C 0.4651(3) 0.3007(10) 0.1957(4)
H40 H 0.481892 0.290436 0.175866
C60 C 0.4716(4) 0.3720(9) 0.2226(4)
H41 H 0.492339 0.411560 0.221723
C61 C 0.4464(3) 0.3871(8) 0.2527(4)
C62 C 0.4173(4) 0.3315(11) 0.2548(4)
H42 H 0.400597 0.339713 0.274945
C63 C 0.4134(4) 0.2577(11) 0.2236(5)
H43 H 0.392836 0.216953 0.223696
C64 C 0.5653(4) 0.7497(12) 0.3496(5)
H44 H 0.576819 0.778792 0.376368
C65 C 0.5352(4) 0.6898(10) 0.3504(4)
H45 H 0.526890 0.675989 0.377031
C66 C 0.5176(3) 0.6508(9) 0.3092(4)
C67 C 0.5309(4) 0.6714(11) 0.2720(5)
H46 H 0.519287 0.645303 0.244452
C68 C 0.5611(4) 0.7295(11) 0.2741(5)
H47 H 0.569909 0.742967 0.247766
C69 C 0.4854(3) 0.5893(8) 0.3089(4)
C70 C 0.4346(3) 0.5468(9) 0.3370(4)
C71 C 0.4514(3) 0.4676(8) 0.2825(4)
C72 C 0.3713(3) 0.5302(11) 0.3598(4)
H48 H 0.362464 0.493085 0.334766
Zn7 Zn 0.92069(4) 0.89200(10) 0.64817(5)
Zn8 Zn 0.82658(5) 0.12441(11) 0.47172(6)
N27 N 0.3133(3) 0.7612(8) 0.4652(4)
I9 I 0.97448(3) 0.91852(7) 0.60696(3)
N8 N 0.9366(3) 0.7923(8) 0.6955(4)
N9 N 0.8579(4) 0.4339(9) 0.9219(4)
N10 N 0.9623(3) 0.4280(7) 0.8368(3)
N11 N 0.9812(3) 0.5084(8) 0.7782(3)
N12 N 0.9284(4) 0.5580(9) 0.8095(4)
C24 C 0.9159(6) 0.7828(13) 0.7265(6)
H17 H 0.897607 0.827449 0.729714
C25 C 0.9203(5) 0.7126(12) 0.7528(6)
H18 H 0.904107 0.706389 0.773604
C26 C 0.9486(4) 0.6454(11) 0.7514(4)
C27 C 0.9711(4) 0.6581(10) 0.7223(5)
H19 H 0.991274 0.617284 0.720643
C28 C 0.9644(4) 0.7346(8) 0.6936(4)
H20 H 0.980240 0.744004 0.672668
C29 C 0.8953(5) 0.4009(15) 0.9298(5)
H21 H 0.903435 0.364208 0.955163
C30 C 0.9203(5) 0.4176(15) 0.9040(5)
H22 H 0.945816 0.395218 0.911370
C31 C 0.9081(4) 0.4686(9) 0.8659(5)
C32 C 0.8713(4) 0.5047(10) 0.8576(5)
H23 H 0.862694 0.542672 0.832817
C33 C 0.8478(5) 0.4838(11) 0.8864(5)
H24 H 0.822408 0.507184 0.880124
C34 C 0.9351(4) 0.4884(10) 0.8366(4)
C35 C 0.9854(4) 0.4408(10) 0.8077(4)
C36 C 0.9529(4) 0.5651(10) 0.7813(4)
Zn9 Zn 0.82378(6) 0.40850(11) 0.96718(7)
I11_2 I 0.09676(5) 0.49433(9) 0.35736(8)
I12_2 I 0.13987(4) 0.37377(19) 0.24358(6)
Zn3_2 Zn 0.12079(5) 0.36403(13) 0.31758(7)
N13_2 N 0.3805(3) 0.3190(7) 0.6037(4)
N14_2 N 0.1644(3) 0.3012(8) 0.3612(4)
N16_2 N 0.3159(3) 0.0877(8) 0.4986(4)
N17_2 N 0.2759(3) 0.2157(8) 0.4785(3)
N18_2 N 0.2619(3) 0.0771(7) 0.4375(4)
N21_2 N 0.0790(3) 0.2687(8) 0.3126(4)
C37_2 C 0.3851(5) 0.2293(10) 0.5998(6)
H25_2 H 0.405058 0.198700 0.619431
C38_2 C 0.3609(5) 0.1836(11) 0.5675(6)
H26_2 H 0.364449 0.120814 0.564477
C39_2 C 0.3310(4) 0.2267(9) 0.5388(4)
C40_2 C 0.3261(4) 0.3159(9) 0.5434(4)
H27_2 H 0.306009 0.346947 0.524337
C41_2 C 0.3509(4) 0.3610(9) 0.5763(4)
H28_2 H 0.347207 0.423560 0.579952
C42_2 C 0.1748(4) 0.2156(10) 0.3519(5)
H29_2 H 0.161470 0.187002 0.325736
C43_2 C 0.2034(4) 0.1711(10) 0.3788(4)
H30_2 H 0.209584 0.111442 0.371856
C44_2 C 0.2234(4) 0.2122(9) 0.4161(4)
C45_2 C 0.2147(3) 0.2971(9) 0.4259(5)
H31_2 H 0.228089 0.326552 0.451780
C46_2 C 0.1843(4) 0.3409(11) 0.3957(5)
H32_2 H 0.178508 0.401666 0.401201
C52_2 C 0.2918(3) 0.0456(8) 0.4665(4)
C53_2 C 0.3065(3) 0.1746(8) 0.5031(4)
C54_2 C 0.2551(3) 0.1670(9) 0.4459(4)
C64_2 C 0.0653(4) 0.2497(12) 0.3496(5)
H44_2 H 0.076819 0.278792 0.376368
C65_2 C 0.0352(4) 0.1898(10) 0.3504(4)
H45_2 H 0.026890 0.175989 0.377031
C66_2 C 0.0176(3) 0.1508(9) 0.3092(4)
C67_2 C 0.0309(4) 0.1714(11) 0.2720(5)
H46_2 H 0.019287 0.145303 0.244452
C68_2 C 0.0611(4) 0.2295(11) 0.2741(5)
H47_2 H 0.069909 0.242967 0.247766
Zn7_2 Zn 0.42069(4) 0.39200(10) 0.64817(5)
C47_2 C 0.2820(4) 0.7948(9) 0.4430(5)
H33_2 H 0.264020 0.754770 0.425974
C48_2 C 0.2723(3) 0.8868(7) 0.4420(4)
H34_2 H 0.248069 0.907011 0.426243
C49_2 C 0.2991(4) 0.9472(8) 0.4645(4)
C50_2 C 0.3340(3) 0.9111(10) 0.4872(5)
H35_2 H 0.353570 0.949674 0.502457
C51_2 C 0.3401(4) 0.8178(9) 0.4871(5)
H36_2 H 0.363681 0.793980 0.502961
I5_2 I 0.86686(5) 0.42902(9) 0.04323(4)
I7_2 I 0.76576(3) 0.03270(7) 0.44876(4)
I8_2 I 0.87150(4) 0.10911(8) 0.54694(3)
N19_2 N 0.8605(3) 0.1012(8) 0.4259(4)
N22_2 N 0.9641(3) 0.1056(9) 0.3389(4)
N24_2 N 0.9803(3) 0.0236(8) 0.2795(3)
H11_2 H 0.847481 0.087334 0.007691
H12_2 H 0.860919 0.236658 0.003442
C55_2 C 0.8954(4) 0.1306(11) 0.4333(5)
H37_2 H 0.904520 0.163655 0.459681
C56_2 C 0.9200(4) 0.1162(11) 0.4048(4)
H38_2 H 0.944740 0.142992 0.410530
C57_2 C 0.9087(3) 0.0627(9) 0.3679(4)
C58_2 C 0.8469(4) 0.0512(10) 0.3878(5)
H39_2 H 0.820980 0.031640 0.381063
C69_2 C 0.9854(3) 0.0893(8) 0.3089(4)
C70_2 C 0.9346(3) 0.0468(9) 0.3370(4)
C72_2 C 0.8713(3) 0.0302(11) 0.3598(4)
I6 I 0.76170(4) 0.49404(8) 0.94158(6)
I9_2 I 0.47448(3) 0.41852(7) 0.60696(3)
I10 I 0.38505(3) 0.51024(6) 0.68275(3)
N3 N 0.8131(4) 0.2707(7) 0.9627(4)
N8_2 N 0.4366(3) 0.2923(8) 0.6955(4)
N11_2 N 0.4812(3) 0.0084(8) 0.7782(3)
N12_2 N 0.4284(4) 0.0580(9) 0.8095(4)
C11 C 0.7793(5) 0.2361(11) 0.9373(7)
H9 H 0.760600 0.275937 0.921409
C12 C 0.7726(5) 0.1444(11) 0.9350(6)
H10 H 0.751047 0.120028 0.915214
C13 C 0.7985(4) 0.0892(9) 0.9625(5)
C14 C 0.8302(4) 0.1250(10) 0.9883(5)
C15 C 0.8375(5) 0.2140(10) 0.9867(6)
C24_2 C 0.4159(6) 0.2828(13) 0.7265(6)
H17_2 H 0.397607 0.327449 0.729714
C25_2 C 0.4203(5) 0.2126(12) 0.7528(6)
H18_2 H 0.404107 0.206389 0.773604
C26_2 C 0.4486(4) 0.1454(11) 0.7514(4)
C27_2 C 0.4711(4) 0.1581(10) 0.7223(5)
H19_2 H 0.491274 0.117284 0.720643
C28_2 C 0.4644(4) 0.2346(8) 0.6936(4)
H20_2 H 0.480240 0.244004 0.672668
C32_2 C 0.3713(4) 0.0047(10) 0.8576(5)
H23_2 H 0.362694 0.042672 0.832817
H24_2 H 0.322408 0.007184 0.880124
C36_2 C 0.4529(4) 0.0651(10) 0.7813(4)
I3 I 0.14063(4) 0.15126(14) 0.74420(5)
I4 I 0.09795(5) 0.03406(9) 0.85748(6)
I6_2 I 0.26170(4) 0.99404(8) 0.94158(6)
Zn2 Zn 0.12043(5) 0.16547(12) 0.81755(7)
Zn6 Zn 0.32378(6) 0.90850(11) 0.96718(7)
N1 N 0.1650(4) 0.2300(8) 0.8588(4)
N3_2 N 0.3131(4) 0.7707(7) 0.9627(4)
N4 N 0.2612(3) 0.4518(7) 0.9391(3)
N5 N 0.2762(3) 0.3180(7) 0.9773(4)
N6 N 0.3140(3) 0.4459(7) 0.9972(3)
N7 N 0.0770(3) 0.2596(8) 0.8122(4)
C1 C 0.1725(4) 0.3119(11) 0.8521(5)
H1 H 0.157338 0.341195 0.827262
C2 C 0.2008(4) 0.3603(10) 0.8780(5)
H2 H 0.205164 0.421013 0.870982
C3 C 0.2236(3) 0.3194(8) 0.9156(4)
C4 C 0.2144(4) 0.2287(8) 0.9225(4)
H3 H 0.229505 0.195867 0.946183
C5 C 0.1850(4) 0.1892(10) 0.8961(5)
H4 H 0.177538 0.130737 0.903453
C11_2 C 0.2793(5) 0.7361(11) 0.9373(7)
H9_2 H 0.260600 0.775937 0.921409
C12_2 C 0.2726(5) 0.6444(11) 0.9350(6)
H10_2 H 0.251047 0.620028 0.915214
C13_2 C 0.2985(4) 0.5892(9) 0.9625(5)
C14_2 C 0.3302(4) 0.6250(10) 0.9883(5)
C15_2 C 0.3375(5) 0.7140(10) 0.9867(6)
C16 C 0.2902(4) 0.4937(9) 0.9661(4)
C17 C 0.2559(4) 0.3664(10) 0.9456(5)
C19 C 0.0657(4) 0.2859(12) 0.8487(6)
H13 H 0.079430 0.265075 0.876587
C20 C 0.0353(4) 0.3412(12) 0.8477(6)
H14 H 0.026401 0.353348 0.874100
C21 C 0.0179(4) 0.3788(9) 0.8094(4)
C22 C 0.0317(4) 0.3593(9) 0.7719(5)
H15 H 0.020900 0.386792 0.744364
C23 C 0.0617(4) 0.2991(10) 0.7750(5)
H16 H 0.071467 0.285872 0.749301
N25 N 0.3579(4) 0.9339(9) 0.9219(4)
I3_2 I 0.64063(4) 0.65126(14) 0.74420(5)
I4_2 I 0.59795(5) 0.53406(9) 0.85748(6)
Zn2_2 Zn 0.62043(5) 0.66547(12) 0.81755(7)
N1_2 N 0.6650(4) 0.7300(8) 0.8588(4)
N4_2 N 0.7612(3) 0.9518(7) 0.9391(3)
N5_2 N 0.7762(3) 0.8180(7) 0.9773(4)
N6_2 N 0.8140(3) 0.9459(7) 0.9972(3)
N7_2 N 0.5770(3) 0.7596(8) 0.8122(4)
N10_2 N 0.4623(3) 0.9280(7) 0.8368(3)
C1_2 C 0.6725(4) 0.8119(11) 0.8521(5)
H1_2 H 0.657338 0.841195 0.827262
C2_2 C 0.7008(4) 0.8603(10) 0.8780(5)
H2_2 H 0.705164 0.921013 0.870982
C3_2 C 0.7236(3) 0.8194(8) 0.9156(4)
C4_2 C 0.7144(4) 0.7287(8) 0.9225(4)
H3_2 H 0.729505 0.695867 0.946183
C5_2 C 0.6850(4) 0.6892(10) 0.8961(5)
H4_2 H 0.677538 0.630737 0.903453
C16_2 C 0.7902(4) 0.9937(9) 0.9661(4)
C17_2 C 0.7559(4) 0.8664(10) 0.9456(5)
C19_2 C 0.5657(4) 0.7859(12) 0.8487(6)
H13_2 H 0.579430 0.765075 0.876587
C20_2 C 0.5353(4) 0.8412(12) 0.8477(6)
H14_2 H 0.526401 0.853348 0.874100
C21_2 C 0.5179(4) 0.8788(9) 0.8094(4)
C22_2 C 0.5317(4) 0.8593(9) 0.7719(5)
H15_2 H 0.520900 0.886792 0.744364
C23_2 C 0.5617(4) 0.7991(10) 0.7750(5)
H16_2 H 0.571467 0.785872 0.749301
C29_2 C 0.3953(5) 0.9009(15) 0.9298(5)
H21_2 H 0.403435 0.864208 0.955163
C30_2 C 0.4203(5) 0.9176(15) 0.9040(5)
H22_2 H 0.445816 0.895218 0.911370
C31_2 C 0.4081(4) 0.9686(9) 0.8659(5)
C33_2 C 0.3478(5) 0.9838(11) 0.8864(5)
C34_2 C 0.4351(4) 0.9884(10) 0.8366(4)
C35_2 C 0.4854(4) 0.9408(10) 0.8077(4)
I10_2 I 0.88505(3) 0.01024(6) 0.68275(3)
I10_3 I 0.11495(3) 0.01024(6) 0.31725(3)
I9_3 I 0.02552(3) 0.91852(7) 0.39304(3)
Zn4 Zn 0.07931(4) 0.89200(10) 0.35183(5)
N8_3 N 0.0634(3) 0.7923(8) 0.3045(4)
N9_2 N 0.1421(4) 0.4339(9) 0.0781(4)
N10_3 N 0.0377(3) 0.4280(7) 0.1632(3)
N11_3 N 0.0188(3) 0.5084(8) 0.2218(3)
N12_3 N 0.0716(4) 0.5580(9) 0.1905(4)
C24_3 C 0.0841(6) 0.7828(13) 0.2735(6)
H17_3 H 0.102393 0.827449 0.270286
C25_3 C 0.0797(5) 0.7126(12) 0.2472(6)
H18_3 H 0.095893 0.706389 0.226396
C26_3 C 0.0514(4) 0.6454(11) 0.2486(4)
C27_3 C 0.0289(4) 0.6581(10) 0.2777(5)
H19_3 H 0.008726 0.617284 0.279357
C28_3 C 0.0356(4) 0.7346(8) 0.3064(4)
H20_3 H 0.019760 0.744004 0.327332
C29_3 C 0.1047(5) 0.4009(15) 0.0702(5)
H21_3 H 0.096565 0.364208 0.044837
C30_3 C 0.0797(5) 0.4176(15) 0.0960(5)
H22_3 H 0.054184 0.395218 0.088630
C31_3 C 0.0919(4) 0.4686(9) 0.1341(5)
C32_3 C 0.1287(4) 0.5047(10) 0.1424(5)
H23_3 H 0.137306 0.542672 0.167183
C33_3 C 0.1522(5) 0.4838(11) 0.1136(5)
H24_3 H 0.177592 0.507184 0.119876
C34_3 C 0.0649(4) 0.4884(10) 0.1634(4)
C35_3 C 0.0146(4) 0.4408(10) 0.1923(4)
C36_3 C 0.0471(4) 0.5651(10) 0.2187(4)
Zn9_2 Zn 0.17622(6) 0.40850(11) 0.03282(7)
N26 N 0.1195(3) 0.8190(7) 0.3963(4)
I1_2 I 0.52372(3) 0.11782(8) 0.89077(3)
I2_2 I 0.61446(3) 0.02217(6) 0.81954(3)
I5_3 I 0.63314(5) 0.92902(9) 0.95677(4)
I7_3 I 0.73424(3) 0.53270(7) 0.55124(4)
I8_3 I 0.62850(4) 0.60911(8) 0.45306(3)
I11_3 I 0.40324(5) 0.99433(9) 0.64264(8)
I12_3 I 0.36013(4) 0.87377(19) 0.75642(6)
Zn1_2 Zn 0.57921(5) 0.14289(10) 0.85268(5)
Zn3_3 Zn 0.37921(5) 0.86403(13) 0.68242(7)
Zn5_2 Zn 0.67342(5) 0.62441(11) 0.52828(6)
N2_2 N 0.6206(3) 0.2134(7) 0.8968(3)
N14_3 N 0.3356(3) 0.8012(8) 0.6388(4)
N15_2 N 0.1867(3) 0.2612(8) 0.5348(4)
N16_3 N 0.1841(3) 0.5877(8) 0.5014(4)
N17_3 N 0.2241(3) 0.7157(8) 0.5215(3)
N18_3 N 0.2381(3) 0.5771(7) 0.5625(4)
N19_3 N 0.6395(3) 0.6012(8) 0.5741(4)
N20_2 N 0.5645(3) 0.2420(8) 0.8046(3)
N21_3 N 0.4210(3) 0.7687(8) 0.6874(4)
N22_3 N 0.5359(3) 0.6056(9) 0.6611(4)
N23_2 N 0.5721(2) 0.4753(7) 0.6900(3)
N24_3 N 0.5197(3) 0.5236(8) 0.7205(3)
C6_2 C 0.6491(4) 0.1729(9) 0.9224(5)
H5_2 H 0.652745 0.110560 0.917997
C7_2 C 0.6745(4) 0.2164(9) 0.9558(5)
H6_2 H 0.695086 0.184467 0.973645
C8_2 C 0.6693(3) 0.3096(8) 0.9629(4)
C9_2 C 0.6389(4) 0.3505(9) 0.9359(5)
H7_2 H 0.633669 0.412506 0.938830
C10_2 C 0.6160(5) 0.2975(10) 0.9039(5)
H8_2 H 0.594886 0.326282 0.885356
H11_3 H 0.652519 0.587334 0.992309
H12_3 H 0.639081 0.736658 0.996558
C18_2 C 0.6948(4) 0.3613(8) 0.9978(5)
C37_3 C 0.1149(5) 0.7293(10) 0.4002(6)
H25_3 H 0.094942 0.698700 0.380569
C38_3 C 0.1391(5) 0.6836(11) 0.4325(6)
H26_3 H 0.135551 0.620814 0.435523
C39_3 C 0.1690(4) 0.7267(9) 0.4612(4)
C40_3 C 0.1739(4) 0.8159(9) 0.4566(4)
H27_3 H 0.193991 0.846947 0.475663
C41_3 C 0.1491(4) 0.8610(9) 0.4237(4)
H28_3 H 0.152793 0.923560 0.420048
C42_3 C 0.3252(4) 0.7156(10) 0.6481(5)
H29_3 H 0.338530 0.687002 0.674264
C43_3 C 0.2966(4) 0.6711(10) 0.6212(4)
H30_3 H 0.290416 0.611442 0.628144
C44_3 C 0.2766(4) 0.7122(9) 0.5839(4)
C45_3 C 0.2853(3) 0.7971(9) 0.5741(5)
H31_3 H 0.271911 0.826552 0.548220
C46_3 C 0.3157(4) 0.8409(11) 0.6043(5)
H32_3 H 0.321492 0.901666 0.598799
C47_3 C 0.2180(4) 0.2948(9) 0.5570(5)
H33_3 H 0.235980 0.254770 0.574026
C48_3 C 0.2277(3) 0.3868(7) 0.5580(4)
H34_3 H 0.251931 0.407011 0.573757
C49_3 C 0.2009(4) 0.4472(8) 0.5355(4)
C50_3 C 0.1660(3) 0.4111(10) 0.5128(5)
H35_3 H 0.146430 0.449674 0.497543
C51_3 C 0.1599(4) 0.3178(9) 0.5129(5)
H36_3 H 0.136319 0.293980 0.497039
C52_3 C 0.2082(3) 0.5456(8) 0.5335(4)
C53_3 C 0.1935(3) 0.6746(8) 0.4969(4)
C54_3 C 0.2449(3) 0.6670(9) 0.5541(4)
C55_3 C 0.6046(4) 0.6306(11) 0.5667(5)
H37_3 H 0.595480 0.663655 0.540319
C56_3 C 0.5800(4) 0.6162(11) 0.5952(4)
H38_3 H 0.555260 0.642992 0.589470
C57_3 C 0.5913(3) 0.5627(9) 0.6321(4)
C58_3 C 0.6531(4) 0.5512(10) 0.6122(5)
H39_3 H 0.679020 0.531640 0.618937
C59_2 C 0.5349(3) 0.3007(10) 0.8043(4)
H40_2 H 0.518108 0.290436 0.824134
C60_2 C 0.5284(4) 0.3720(9) 0.7774(4)
H41_2 H 0.507661 0.411560 0.778277
C61_2 C 0.5536(3) 0.3871(8) 0.7473(4)
C62_2 C 0.5827(4) 0.3315(11) 0.7452(4)
H42_2 H 0.599403 0.339713 0.725055
C63_2 C 0.5866(4) 0.2577(11) 0.7764(5)
H43_2 H 0.607164 0.216953 0.776304
C64_3 C 0.4347(4) 0.7497(12) 0.6504(5)
H44_3 H 0.423181 0.778792 0.623632
C65_3 C 0.4648(4) 0.6898(10) 0.6496(4)
H45_3 H 0.473110 0.675989 0.622969
C66_3 C 0.4824(3) 0.6508(9) 0.6908(4)
C67_3 C 0.4691(4) 0.6714(11) 0.7280(5)
H46_3 H 0.480713 0.645303 0.755548
C68_3 C 0.4389(4) 0.7295(11) 0.7259(5)
H47_3 H 0.430091 0.742967 0.752234
C69_3 C 0.5146(3) 0.5893(8) 0.6911(4)
C70_3 C 0.5654(3) 0.5468(9) 0.6630(4)
C71_2 C 0.5486(3) 0.4676(8) 0.7175(4)
C72_3 C 0.6287(3) 0.5302(11) 0.6402(4)
H48_2 H 0.637536 0.493085 0.665234
Zn8_2 Zn 0.17342(5) 0.12441(11) 0.52828(6)
N27_2 N 0.6867(3) 0.7612(8) 0.5348(4)
I6_3 I 0.23830(4) 0.49404(8) 0.05842(6)
I9_4 I 0.52552(3) 0.41852(7) 0.39304(3)
I10_4 I 0.61495(3) 0.51024(6) 0.31725(3)
Zn4_2 Zn 0.57931(4) 0.39200(10) 0.35183(5)
N3_3 N 0.1869(4) 0.2707(7) 0.0373(4)
N8_4 N 0.5634(3) 0.2923(8) 0.3045(4)
N11_4 N 0.5188(3) 0.0084(8) 0.2218(3)
N12_4 N 0.5716(4) 0.0580(9) 0.1905(4)
C11_3 C 0.2207(5) 0.2361(11) 0.0627(7)
H9_3 H 0.239400 0.275937 0.078591
C12_3 C 0.2274(5) 0.1444(11) 0.0650(6)
H10_3 H 0.248953 0.120028 0.084786
C13_3 C 0.2015(4) 0.0892(9) 0.0375(5)
C14_3 C 0.1698(4) 0.1250(10) 0.0117(5)
C15_3 C 0.1625(5) 0.2140(10) 0.0133(6)
C24_4 C 0.5841(6) 0.2828(13) 0.2735(6)
H17_4 H 0.602393 0.327449 0.270286
C25_4 C 0.5797(5) 0.2126(12) 0.2472(6)
H18_4 H 0.595893 0.206389 0.226396
C26_4 C 0.5514(4) 0.1454(11) 0.2486(4)
C27_4 C 0.5289(4) 0.1581(10) 0.2777(5)
H19_4 H 0.508726 0.117284 0.279357
C28_4 C 0.5356(4) 0.2346(8) 0.3064(4)
H20_4 H 0.519760 0.244004 0.327332
C32_4 C 0.6287(4) 0.0047(10) 0.1424(5)
H23_4 H 0.637306 0.042672 0.167183
H24_4 H 0.677592 0.007184 0.119876
C36_4 C 0.5471(4) 0.0651(10) 0.2187(4)
N26_2 N 0.6195(3) 0.3190(7) 0.3963(4)
I5_4 I 0.13314(5) 0.42902(9) 0.95677(4)
I7_4 I 0.23424(3) 0.03270(7) 0.55124(4)
I8_4 I 0.12850(4) 0.10911(8) 0.45306(3)
N19_4 N 0.1395(3) 0.1012(8) 0.5741(4)
N22_4 N 0.0359(3) 0.1056(9) 0.6611(4)
N24_4 N 0.0197(3) 0.0236(8) 0.7205(3)
H11_4 H 0.152519 0.087334 0.992309
H12_4 H 0.139081 0.236658 0.996558
C55_4 C 0.1046(4) 0.1306(11) 0.5667(5)
H37_4 H 0.095480 0.163655 0.540319
C56_4 C 0.0800(4) 0.1162(11) 0.5952(4)
H38_4 H 0.055260 0.142992 0.589470
C57_4 C 0.0913(3) 0.0627(9) 0.6321(4)
C58_4 C 0.1531(4) 0.0512(10) 0.6122(5)
H39_4 H 0.179020 0.031640 0.618937
C69_4 C 0.0146(3) 0.0893(8) 0.6911(4)
C70_4 C 0.0654(3) 0.0468(9) 0.6630(4)
C72_4 C 0.1287(3) 0.0302(11) 0.6402(4)
I11_4 I 0.90324(5) 0.49433(9) 0.64264(8)
I12_4 I 0.86013(4) 0.37377(19) 0.75642(6)
Zn3_4 Zn 0.87921(5) 0.36403(13) 0.68242(7)
N14_4 N 0.8356(3) 0.3012(8) 0.6388(4)
N16_4 N 0.6841(3) 0.0877(8) 0.5014(4)
N17_4 N 0.7241(3) 0.2157(8) 0.5215(3)
N18_4 N 0.7381(3) 0.0771(7) 0.5625(4)
N21_4 N 0.9210(3) 0.2687(8) 0.6874(4)
C37_4 C 0.6149(5) 0.2293(10) 0.4002(6)
H25_4 H 0.594942 0.198700 0.380569
C38_4 C 0.6391(5) 0.1836(11) 0.4325(6)
H26_4 H 0.635551 0.120814 0.435523
C39_4 C 0.6690(4) 0.2267(9) 0.4612(4)
C40_4 C 0.6739(4) 0.3159(9) 0.4566(4)
H27_4 H 0.693991 0.346947 0.475663
C41_4 C 0.6491(4) 0.3610(9) 0.4237(4)
H28_4 H 0.652793 0.423560 0.420048
C42_4 C 0.8252(4) 0.2156(10) 0.6481(5)
H29_4 H 0.838530 0.187002 0.674264
C43_4 C 0.7966(4) 0.1711(10) 0.6212(4)
H30_4 H 0.790416 0.111442 0.628144
C44_4 C 0.7766(4) 0.2122(9) 0.5839(4)
C45_4 C 0.7853(3) 0.2971(9) 0.5741(5)
H31_4 H 0.771911 0.326552 0.548220
C46_4 C 0.8157(4) 0.3409(11) 0.6043(5)
H32_4 H 0.821492 0.401666 0.598799
C52_4 C 0.7082(3) 0.0456(8) 0.5335(4)
C53_4 C 0.6935(3) 0.1746(8) 0.4969(4)
C54_4 C 0.7449(3) 0.1670(9) 0.5541(4)
C64_4 C 0.9347(4) 0.2497(12) 0.6504(5)
H44_4 H 0.923181 0.278792 0.623632
C65_4 C 0.9648(4) 0.1898(10) 0.6496(4)
H45_4 H 0.973110 0.175989 0.622969
C66_4 C 0.9824(3) 0.1508(9) 0.6908(4)
C67_4 C 0.9691(4) 0.1714(11) 0.7280(5)
H46_4 H 0.980713 0.145303 0.755548
C68_4 C 0.9389(4) 0.2295(11) 0.7259(5)
H47_4 H 0.930091 0.242967 0.752234
C47_4 C 0.7180(4) 0.7948(9) 0.5570(5)
H33_4 H 0.735980 0.754770 0.574026
C48_4 C 0.7277(3) 0.8868(7) 0.5580(4)
H34_4 H 0.751931 0.907011 0.573757
C49_4 C 0.7009(4) 0.9472(8) 0.5355(4)
C50_4 C 0.6660(3) 0.9111(10) 0.5128(5)
H35_4 H 0.646430 0.949674 0.497543
C51_4 C 0.6599(4) 0.8178(9) 0.5129(5)
H36_4 H 0.636319 0.793980 0.497039
I3_3 I 0.85937(4) 0.15126(14) 0.25580(5)
I4_3 I 0.90205(5) 0.03406(9) 0.14252(6)
I6_4 I 0.73830(4) 0.99404(8) 0.05842(6)
Zn2_3 Zn 0.87957(5) 0.16547(12) 0.18245(7)
Zn6_2 Zn 0.67622(6) 0.90850(11) 0.03282(7)
N1_3 N 0.8350(4) 0.2300(8) 0.1412(4)
N3_4 N 0.6869(4) 0.7707(7) 0.0373(4)
N4_3 N 0.7388(3) 0.4518(7) 0.0609(3)
N5_3 N 0.7238(3) 0.3180(7) 0.0227(4)
N6_3 N 0.6860(3) 0.4459(7) 0.0028(3)
N7_3 N 0.9230(3) 0.2596(8) 0.1878(4)
C1_3 C 0.8275(4) 0.3119(11) 0.1479(5)
H1_3 H 0.842662 0.341195 0.172738
C2_3 C 0.7992(4) 0.3603(10) 0.1220(5)
H2_3 H 0.794836 0.421013 0.129018
C3_3 C 0.7764(3) 0.3194(8) 0.0844(4)
C4_3 C 0.7856(4) 0.2287(8) 0.0775(4)
H3_3 H 0.770495 0.195867 0.053817
C5_3 C 0.8150(4) 0.1892(10) 0.1039(5)
H4_3 H 0.822462 0.130737 0.096547
C11_4 C 0.7207(5) 0.7361(11) 0.0627(7)
H9_4 H 0.739400 0.775937 0.078591
C12_4 C 0.7274(5) 0.6444(11) 0.0650(6)
H10_4 H 0.748953 0.620028 0.084786
C13_4 C 0.7015(4) 0.5892(9) 0.0375(5)
C14_4 C 0.6698(4) 0.6250(10) 0.0117(5)
C15_4 C 0.6625(5) 0.7140(10) 0.0133(6)
C16_3 C 0.7098(4) 0.4937(9) 0.0339(4)
C17_3 C 0.7441(4) 0.3664(10) 0.0544(5)
C19_3 C 0.9343(4) 0.2859(12) 0.1513(6)
H13_3 H 0.920570 0.265075 0.123413
C20_3 C 0.9647(4) 0.3412(12) 0.1523(6)
H14_3 H 0.973599 0.353348 0.125900
C21_3 C 0.9821(4) 0.3788(9) 0.1906(4)
C22_3 C 0.9683(4) 0.3593(9) 0.2281(5)
H15_3 H 0.979100 0.386792 0.255636
C23_3 C 0.9383(4) 0.2991(10) 0.2250(5)
H16_3 H 0.928533 0.285872 0.250699
N25_2 N 0.6421(4) 0.9339(9) 0.0781(4)
I3_4 I 0.35937(4) 0.65126(14) 0.25580(5)
I4_4 I 0.40205(5) 0.53406(9) 0.14252(6)
Zn2_4 Zn 0.37957(5) 0.66547(12) 0.18245(7)
N1_4 N 0.3350(4) 0.7300(8) 0.1412(4)
N4_4 N 0.2388(3) 0.9518(7) 0.0609(3)
N5_4 N 0.2238(3) 0.8180(7) 0.0227(4)
N6_4 N 0.1860(3) 0.9459(7) 0.0028(3)
N7_4 N 0.4230(3) 0.7596(8) 0.1878(4)
N10_4 N 0.5377(3) 0.9280(7) 0.1632(3)
C1_4 C 0.3275(4) 0.8119(11) 0.1479(5)
H1_4 H 0.342662 0.841195 0.172738
C2_4 C 0.2992(4) 0.8603(10) 0.1220(5)
H2_4 H 0.294836 0.921013 0.129018
C3_4 C 0.2764(3) 0.8194(8) 0.0844(4)
C4_4 C 0.2856(4) 0.7287(8) 0.0775(4)
H3_4 H 0.270495 0.695867 0.053817
C5_4 C 0.3150(4) 0.6892(10) 0.1039(5)
H4_4 H 0.322462 0.630737 0.096547
C16_4 C 0.2098(4) 0.9937(9) 0.0339(4)
C17_4 C 0.2441(4) 0.8664(10) 0.0544(5)
C19_4 C 0.4343(4) 0.7859(12) 0.1513(6)
H13_4 H 0.420570 0.765075 0.123413
C20_4 C 0.4647(4) 0.8412(12) 0.1523(6)
H14_4 H 0.473599 0.853348 0.125900
C21_4 C 0.4821(4) 0.8788(9) 0.1906(4)
C22_4 C 0.4683(4) 0.8593(9) 0.2281(5)
H15_4 H 0.479100 0.886792 0.255636
C23_4 C 0.4383(4) 0.7991(10) 0.2250(5)
H16_4 H 0.428533 0.785872 0.250699
C29_4 C 0.6047(5) 0.9009(15) 0.0702(5)
H21_4 H 0.596565 0.864208 0.044837
C30_4 C 0.5797(5) 0.9176(15) 0.0960(5)
H22_4 H 0.554184 0.895218 0.088630
C31_4 C 0.5919(4) 0.9686(9) 0.1341(5)
C33_4 C 0.6522(5) 0.9838(11) 0.1136(5)
C34_4 C 0.5649(4) 0.9884(10) 0.1634(4)
C35_4 C 0.5146(4) 0.9408(10) 0.1923(4)
I1_3 I 0.97628(3) 0.61782(8) 0.10923(3)
I2_3 I 0.88554(3) 0.52217(6) 0.18046(3)
Zn1_3 Zn 0.92079(5) 0.64289(10) 0.14732(5)
N2_3 N 0.8794(3) 0.7134(7) 0.1032(3)
N20_3 N 0.9355(3) 0.7420(8) 0.1954(3)
N23_3 N 0.9279(2) 0.9753(7) 0.3100(3)
C6_3 C 0.8509(4) 0.6729(9) 0.0776(5)
H5_3 H 0.847255 0.610560 0.082003
C7_3 C 0.8255(4) 0.7164(9) 0.0442(5)
H6_3 H 0.804914 0.684467 0.026355
C8_3 C 0.8307(3) 0.8096(8) 0.0371(4)
C9_3 C 0.8611(4) 0.8505(9) 0.0641(5)
H7_3 H 0.866331 0.912506 0.061170
C10_3 C 0.8840(5) 0.7975(10) 0.0961(5)
H8_3 H 0.905114 0.826282 0.114644
C18_3 C 0.8052(4) 0.8613(8) 0.0022(5)
C59_3 C 0.9651(3) 0.8007(10) 0.1957(4)
H40_3 H 0.981892 0.790436 0.175866
C60_3 C 0.9716(4) 0.8720(9) 0.2226(4)
H41_3 H 0.992339 0.911560 0.221723
C61_3 C 0.9464(3) 0.8871(8) 0.2527(4)
C62_3 C 0.9173(4) 0.8315(11) 0.2548(4)
H42_3 H 0.900597 0.839713 0.274945
C63_3 C 0.9134(4) 0.7577(11) 0.2236(5)
H43_3 H 0.892836 0.716953 0.223696
C71_3 C 0.9514(3) 0.9676(8) 0.2825(4)
H48_3 H 0.862464 0.993085 0.334766
I1_4 I 0.02372(3) 0.61782(8) 0.89077(3)
I2_4 I 0.11446(3) 0.52217(6) 0.81954(3)
Zn1_4 Zn 0.07921(5) 0.64289(10) 0.85268(5)
N2_4 N 0.1206(3) 0.7134(7) 0.8968(3)
N20_4 N 0.0645(3) 0.7420(8) 0.8046(3)
N23_4 N 0.0721(2) 0.9753(7) 0.6900(3)
C6_4 C 0.1491(4) 0.6729(9) 0.9224(5)
H5_4 H 0.152745 0.610560 0.917997
C7_4 C 0.1745(4) 0.7164(9) 0.9558(5)
H6_4 H 0.195086 0.684467 0.973645
C8_4 C 0.1693(3) 0.8096(8) 0.9629(4)
C9_4 C 0.1389(4) 0.8505(9) 0.9359(5)
H7_4 H 0.133669 0.912506 0.938830
C10_4 C 0.1160(5) 0.7975(10) 0.9039(5)
H8_4 H 0.094886 0.826282 0.885356
C18_4 C 0.1948(4) 0.8613(8) 0.9978(5)
C59_4 C 0.0349(3) 0.8007(10) 0.8043(4)
H40_4 H 0.018108 0.790436 0.824134
C60_4 C 0.0284(4) 0.8720(9) 0.7774(4)
H41_4 H 0.007661 0.911560 0.778277
C61_4 C 0.0536(3) 0.8871(8) 0.7473(4)
C62_4 C 0.0827(4) 0.8315(11) 0.7452(4)
H42_4 H 0.099403 0.839713 0.725055
C63_4 C 0.0866(4) 0.7577(11) 0.7764(5)
H43_4 H 0.107164 0.716953 0.776304
C71_4 C 0.0486(3) 0.9676(8) 0.7175(4)
H48_4 H 0.137536 0.993085 0.665234
loop_
_geom_bond_atom_site_label_1
_geom_bond_atom_site_label_2
_geom_bond_site_symmetry_1
_geom_bond_site_symmetry_2
I1 Zn1 1_555 1_555
I2 Zn1 1_555 1_555
I7 Zn5 1_555 1_555
I8 Zn5 1_555 1_555
I11 Zn3 1_555 1_555
I12 Zn3 1_555 1_555
Zn1 N2 1_555 1_555
Zn3 N14 1_555 1_555
Zn5 N19 1_555 1_555
N2 C6 1_555 1_555
N13 C37 1_555 1_555
N14 C42 1_555 1_555
N15 C47 1_555 1_555
N16 C52 1_555 1_555
N17 C53 1_555 1_555
N18 C52 1_555 1_555
N19 C55 1_555 1_555
N20 Zn1 1_555 1_555
N21 Zn3 1_555 1_555
N22 C69 1_555 1_555
N23 C70 1_555 1_555
N24 C69 1_555 1_555
C6 H5 1_555 1_555
C7 C6 1_555 1_555
H6 C7 1_555 1_555
C8 C7 1_555 1_555
C9 C8 1_555 1_555
H7 C9 1_555 1_555
C10 N2 1_555 1_555
H8 C10 1_555 1_555
C37 H25 1_555 1_555
C38 C37 1_555 1_555
H26 C38 1_555 1_555
C39 C38 1_555 1_555
C40 C39 1_555 1_555
H27 C40 1_555 1_555
C41 N13 1_555 1_555
H28 C41 1_555 1_555
C42 H29 1_555 1_555
C43 C42 1_555 1_555
H30 C43 1_555 1_555
C44 C43 1_555 1_555
C45 C44 1_555 1_555
H31 C45 1_555 1_555
C46 N14 1_555 1_555
H32 C46 1_555 1_555
C47 H33 1_555 1_555
C48 C47 1_555 1_555
H34 C48 1_555 1_555
C49 C48 1_555 1_555
C50 C49 1_555 1_555
H35 C50 1_555 1_555
C51 N15 1_555 1_555
H36 C51 1_555 1_555
C52 C49 1_555 1_555
C53 N16 1_555 1_555
C54 N17 1_555 1_555
C55 H37 1_555 1_555
C56 C55 1_555 1_555
H38 C56 1_555 1_555
C57 C56 1_555 1_555
C58 N19 1_555 1_555
H39 C58 1_555 1_555
C59 N20 1_555 1_555
H40 C59 1_555 1_555
C60 C59 1_555 1_555
H41 C60 1_555 1_555
C61 C60 1_555 1_555
C62 C61 1_555 1_555
H42 C62 1_555 1_555
C63 N20 1_555 1_555
H43 C63 1_555 1_555
C64 N21 1_555 1_555
H44 C64 1_555 1_555
C65 C64 1_555 1_555
H45 C65 1_555 1_555
C66 C65 1_555 1_555
C67 C66 1_555 1_555
H46 C67 1_555 1_555
C68 N21 1_555 1_555
H47 C68 1_555 1_555
C69 C66 1_555 1_555
C70 N22 1_555 1_555
C71 N23 1_555 1_555
C72 C57 1_555 1_555
H48 C72 1_555 1_555
Zn7 N13 1_555 1_555
Zn8 N15 1_555 1_555
N27 Zn5 1_555 1_555
N18 C54 1_555 1_555
N24 C71 1_555 1_555
C8 C18 1_555 1_555
C9 C10 1_555 1_555
C39 C53 1_555 1_555
C40 C41 1_555 1_555
C44 C54 1_555 1_555
C45 C46 1_555 1_555
C50 C51 1_555 1_555
C57 C70 1_555 1_555
C58 C72 1_555 1_555
C61 C71 1_555 1_555
C62 C63 1_555 1_555
C67 C68 1_555 1_555
I9 Zn7 1_555 1_555
Zn7 N8 1_555 1_555
N8 C24 1_555 1_555
N9 C29 1_555 1_555
N10 C34 1_555 1_555
N11 C35 1_555 1_555
N12 C34 1_555 1_555
C24 H17 1_555 1_555
C25 C24 1_555 1_555
H18 C25 1_555 1_555
C26 C25 1_555 1_555
C27 C26 1_555 1_555
H19 C27 1_555 1_555
C28 N8 1_555 1_555
H20 C28 1_555 1_555
C29 H21 1_555 1_555
C30 C29 1_555 1_555
H22 C30 1_555 1_555
C31 C30 1_555 1_555
C32 C31 1_555 1_555
H23 C32 1_555 1_555
C33 N9 1_555 1_555
H24 C33 1_555 1_555
C34 C31 1_555 1_555
C35 N10 1_555 1_555
C36 N11 1_555 1_555
Zn9 N9 1_555 1_555
N12 C36 1_555 1_555
C26 C36 1_555 1_555
C27 C28 1_555 1_555
C32 C33 1_555 1_555
I11_2 Zn3_2 1_555 1_555
I12_2 Zn3_2 1_555 1_555
Zn3_2 N14_2 1_555 1_555
N13_2 C37_2 1_555 1_555
N14_2 C42_2 1_555 1_555
N16_2 C52_2 1_555 1_555
N17_2 C53_2 1_555 1_555
N18_2 C52_2 1_555 1_555
N21_2 Zn3_2 1_555 1_555
C37_2 H25_2 1_555 1_555
C38_2 C37_2 1_555 1_555
H26_2 C38_2 1_555 1_555
C39_2 C38_2 1_555 1_555
C40_2 C39_2 1_555 1_555
H27_2 C40_2 1_555 1_555
C41_2 N13_2 1_555 1_555
H28_2 C41_2 1_555 1_555
C42_2 H29_2 1_555 1_555
C43_2 C42_2 1_555 1_555
H30_2 C43_2 1_555 1_555
C44_2 C43_2 1_555 1_555
C45_2 C44_2 1_555 1_555
H31_2 C45_2 1_555 1_555
C46_2 N14_2 1_555 1_555
H32_2 C46_2 1_555 1_555
C53_2 N16_2 1_555 1_555
C54_2 N17_2 1_555 1_555
C64_2 N21_2 1_555 1_555
H44_2 C64_2 1_555 1_555
C65_2 C64_2 1_555 1_555
H45_2 C65_2 1_555 1_555
C66_2 C65_2 1_555 1_555
C67_2 C66_2 1_555 1_555
H46_2 C67_2 1_555 1_555
C68_2 N21_2 1_555 1_555
H47_2 C68_2 1_555 1_555
Zn7_2 N13_2 1_555 1_555
N18_2 C54_2 1_555 1_555
C39_2 C53_2 1_555 1_555
C40_2 C41_2 1_555 1_555
C44_2 C54_2 1_555 1_555
C45_2 C46_2 1_555 1_555
C67_2 C68_2 1_555 1_555
N27 C47_2 1_555 1_555
C47_2 H33_2 1_555 1_555
C48_2 C47_2 1_555 1_555
H34_2 C48_2 1_555 1_555
C49_2 C48_2 1_555 1_555
C50_2 C49_2 1_555 1_555
H35_2 C50_2 1_555 1_555
C51_2 N27 1_555 1_555
H36_2 C51_2 1_555 1_555
C50_2 C51_2 1_555 1_555
I7_2 Zn8 1_555 1_555
I8_2 Zn8 1_555 1_555
Zn8 N19_2 1_555 1_555
N19_2 C55_2 1_555 1_555
N22_2 C69_2 1_555 1_555
N24_2 C69_2 1_555 1_555
C55_2 H37_2 1_555 1_555
C56_2 C55_2 1_555 1_555
H38_2 C56_2 1_555 1_555
C57_2 C56_2 1_555 1_555
C58_2 N19_2 1_555 1_555
H39_2 C58_2 1_555 1_555
C70_2 N22_2 1_555 1_555
C72_2 C57_2 1_555 1_555
C57_2 C70_2 1_555 1_555
C58_2 C72_2 1_555 1_555
I6 Zn9 1_555 1_555
I9_2 Zn7_2 1_555 1_555
I10 Zn7_2 1_555 1_555
Zn7_2 N8_2 1_555 1_555
Zn9 N3 1_555 1_555
N3 C11 1_555 1_555
N8_2 C24_2 1_555 1_555
C11 H9 1_555 1_555
C12 C11 1_555 1_555
H10 C12 1_555 1_555
C13 C12 1_555 1_555
C14 C13 1_555 1_555
C15 N3 1_555 1_555
C24_2 H17_2 1_555 1_555
C25_2 C24_2 1_555 1_555
H18_2 C25_2 1_555 1_555
C26_2 C25_2 1_555 1_555
C27_2 C26_2 1_555 1_555
H19_2 C27_2 1_555 1_555
C28_2 N8_2 1_555 1_555
H20_2 C28_2 1_555 1_555
H23_2 C32_2 1_555 1_555
C36_2 N11_2 1_555 1_555
N12_2 C36_2 1_555 1_555
C14 C15 1_555 1_555
C26_2 C36_2 1_555 1_555
C27_2 C28_2 1_555 1_555
I3 Zn2 1_555 1_555
I4 Zn2 1_555 1_555
I6_2 Zn6 1_555 1_555
Zn2 N1 1_555 1_555
Zn6 N3_2 1_555 1_555
N1 C1 1_555 1_555
N3_2 C11_2 1_555 1_555
N4 C16 1_555 1_555
N5 C17 1_555 1_555
N6 C16 1_555 1_555
N7 Zn2 1_555 1_555
C1 H1 1_555 1_555
C2 C1 1_555 1_555
H2 C2 1_555 1_555
C3 C2 1_555 1_555
C4 C3 1_555 1_555
H3 C4 1_555 1_555
C5 N1 1_555 1_555
H4 C5 1_555 1_555
C11_2 H9_2 1_555 1_555
C12_2 C11_2 1_555 1_555
H10_2 C12_2 1_555 1_555
C13_2 C12_2 1_555 1_555
C14_2 C13_2 1_555 1_555
C15_2 N3_2 1_555 1_555
C16 C13_2 1_555 1_555
C17 N4 1_555 1_555
C19 N7 1_555 1_555
H13 C19 1_555 1_555
C20 C19 1_555 1_555
H14 C20 1_555 1_555
C21 C20 1_555 1_555
C22 C21 1_555 1_555
H15 C22 1_555 1_555
C23 N7 1_555 1_555
H16 C23 1_555 1_555
N25 Zn6 1_555 1_555
C3 C17 1_555 1_555
C4 C5 1_555 1_555
C14_2 C15_2 1_555 1_555
C22 C23 1_555 1_555
I3_2 Zn2_2 1_555 1_555
I4_2 Zn2_2 1_555 1_555
Zn2_2 N1_2 1_555 1_555
N1_2 C1_2 1_555 1_555
N4_2 C16_2 1_555 1_555
N5_2 C17_2 1_555 1_555
N6_2 C16_2 1_555 1_555
N7_2 Zn2_2 1_555 1_555
N25 C29_2 1_555 1_555
N10_2 C34_2 1_555 1_555
C1_2 H1_2 1_555 1_555
C2_2 C1_2 1_555 1_555
H2_2 C2_2 1_555 1_555
C3_2 C2_2 1_555 1_555
C4_2 C3_2 1_555 1_555
H3_2 C4_2 1_555 1_555
C5_2 N1_2 1_555 1_555
H4_2 C5_2 1_555 1_555
C17_2 N4_2 1_555 1_555
C19_2 N7_2 1_555 1_555
H13_2 C19_2 1_555 1_555
C20_2 C19_2 1_555 1_555
H14_2 C20_2 1_555 1_555
C21_2 C20_2 1_555 1_555
C22_2 C21_2 1_555 1_555
H15_2 C22_2 1_555 1_555
C23_2 N7_2 1_555 1_555
H16_2 C23_2 1_555 1_555
C29_2 H21_2 1_555 1_555
C30_2 C29_2 1_555 1_555
H22_2 C30_2 1_555 1_555
C31_2 C30_2 1_555 1_555
C33_2 N25 1_555 1_555
C34_2 C31_2 1_555 1_555
C35_2 N10_2 1_555 1_555
C3_2 C17_2 1_555 1_555
C4_2 C5_2 1_555 1_555
C21_2 C35_2 1_555 1_555
C22_2 C23_2 1_555 1_555
I9_3 Zn4 1_555 1_555
Zn4 N8_3 1_555 1_555
N8_3 C24_3 1_555 1_555
N9_2 C29_3 1_555 1_555
N10_3 C34_3 1_555 1_555
N11_3 C35_3 1_555 1_555
N12_3 C34_3 1_555 1_555
C24_3 H17_3 1_555 1_555
C25_3 C24_3 1_555 1_555
H18_3 C25_3 1_555 1_555
C26_3 C25_3 1_555 1_555
C27_3 C26_3 1_555 1_555
H19_3 C27_3 1_555 1_555
C28_3 N8_3 1_555 1_555
H20_3 C28_3 1_555 1_555
C29_3 H21_3 1_555 1_555
C30_3 C29_3 1_555 1_555
H22_3 C30_3 1_555 1_555
C31_3 C30_3 1_555 1_555
C32_3 C31_3 1_555 1_555
H23_3 C32_3 1_555 1_555
C33_3 N9_2 1_555 1_555
H24_3 C33_3 1_555 1_555
C34_3 C31_3 1_555 1_555
C35_3 N10_3 1_555 1_555
C36_3 N11_3 1_555 1_555
Zn9_2 N9_2 1_555 1_555
N26 Zn4 1_555 1_555
N12_3 C36_3 1_555 1_555
C26_3 C36_3 1_555 1_555
C27_3 C28_3 1_555 1_555
C32_3 C33_3 1_555 1_555
I1_2 Zn1_2 1_555 1_555
I2_2 Zn1_2 1_555 1_555
I7_3 Zn5_2 1_555 1_555
I8_3 Zn5_2 1_555 1_555
I11_3 Zn3_3 1_555 1_555
I12_3 Zn3_3 1_555 1_555
Zn1_2 N2_2 1_555 1_555
Zn3_3 N14_3 1_555 1_555
Zn5_2 N19_3 1_555 1_555
N2_2 C6_2 1_555 1_555
N26 C37_3 1_555 1_555
N14_3 C42_3 1_555 1_555
N15_2 C47_3 1_555 1_555
N16_3 C52_3 1_555 1_555
N17_3 C53_3 1_555 1_555
N18_3 C52_3 1_555 1_555
N19_3 C55_3 1_555 1_555
N20_2 Zn1_2 1_555 1_555
N21_3 Zn3_3 1_555 1_555
N22_3 C69_3 1_555 1_555
N23_2 C70_3 1_555 1_555
N24_3 C69_3 1_555 1_555
C6_2 H5_2 1_555 1_555
C7_2 C6_2 1_555 1_555
H6_2 C7_2 1_555 1_555
C8_2 C7_2 1_555 1_555
C9_2 C8_2 1_555 1_555
H7_2 C9_2 1_555 1_555
C10_2 N2_2 1_555 1_555
H8_2 C10_2 1_555 1_555
C37_3 H25_3 1_555 1_555
C38_3 C37_3 1_555 1_555
H26_3 C38_3 1_555 1_555
C39_3 C38_3 1_555 1_555
C40_3 C39_3 1_555 1_555
H27_3 C40_3 1_555 1_555
C41_3 N26 1_555 1_555
H28_3 C41_3 1_555 1_555
C42_3 H29_3 1_555 1_555
C43_3 C42_3 1_555 1_555
H30_3 C43_3 1_555 1_555
C44_3 C43_3 1_555 1_555
C45_3 C44_3 1_555 1_555
H31_3 C45_3 1_555 1_555
C46_3 N14_3 1_555 1_555
H32_3 C46_3 1_555 1_555
C47_3 H33_3 1_555 1_555
C48_3 C47_3 1_555 1_555
H34_3 C48_3 1_555 1_555
C49_3 C48_3 1_555 1_555
C50_3 C49_3 1_555 1_555
H35_3 C50_3 1_555 1_555
C51_3 N15_2 1_555 1_555
H36_3 C51_3 1_555 1_555
C52_3 C49_3 1_555 1_555
C53_3 N16_3 1_555 1_555
C54_3 N17_3 1_555 1_555
C55_3 H37_3 1_555 1_555
C56_3 C55_3 1_555 1_555
H38_3 C56_3 1_555 1_555
C57_3 C56_3 1_555 1_555
C58_3 N19_3 1_555 1_555
H39_3 C58_3 1_555 1_555
C59_2 N20_2 1_555 1_555
H40_2 C59_2 1_555 1_555
C60_2 C59_2 1_555 1_555
H41_2 C60_2 1_555 1_555
C61_2 C60_2 1_555 1_555
C62_2 C61_2 1_555 1_555
H42_2 C62_2 1_555 1_555
C63_2 N20_2 1_555 1_555
H43_2 C63_2 1_555 1_555
C64_3 N21_3 1_555 1_555
H44_3 C64_3 1_555 1_555
C65_3 C64_3 1_555 1_555
H45_3 C65_3 1_555 1_555
C66_3 C65_3 1_555 1_555
C67_3 C66_3 1_555 1_555
H46_3 C67_3 1_555 1_555
C68_3 N21_3 1_555 1_555
H47_3 C68_3 1_555 1_555
C69_3 C66_3 1_555 1_555
C70_3 N22_3 1_555 1_555
C71_2 N23_2 1_555 1_555
C72_3 C57_3 1_555 1_555
H48_2 C72_3 1_555 1_555
Zn8_2 N15_2 1_555 1_555
N27_2 Zn5_2 1_555 1_555
N18_3 C54_3 1_555 1_555
N24_3 C71_2 1_555 1_555
C8_2 C18_2 1_555 1_555
C9_2 C10_2 1_555 1_555
C39_3 C53_3 1_555 1_555
C40_3 C41_3 1_555 1_555
C44_3 C54_3 1_555 1_555
C45_3 C46_3 1_555 1_555
C50_3 C51_3 1_555 1_555
C57_3 C70_3 1_555 1_555
C58_3 C72_3 1_555 1_555
C61_2 C71_2 1_555 1_555
C62_2 C63_2 1_555 1_555
C67_3 C68_3 1_555 1_555
I6_3 Zn9_2 1_555 1_555
I9_4 Zn4_2 1_555 1_555
I10_4 Zn4_2 1_555 1_555
Zn4_2 N8_4 1_555 1_555
Zn9_2 N3_3 1_555 1_555
N3_3 C11_3 1_555 1_555
N8_4 C24_4 1_555 1_555
C11_3 H9_3 1_555 1_555
C12_3 C11_3 1_555 1_555
H10_3 C12_3 1_555 1_555
C13_3 C12_3 1_555 1_555
C14_3 C13_3 1_555 1_555
C15_3 N3_3 1_555 1_555
C24_4 H17_4 1_555 1_555
C25_4 C24_4 1_555 1_555
H18_4 C25_4 1_555 1_555
C26_4 C25_4 1_555 1_555
C27_4 C26_4 1_555 1_555
H19_4 C27_4 1_555 1_555
C28_4 N8_4 1_555 1_555
H20_4 C28_4 1_555 1_555
H23_4 C32_4 1_555 1_555
C36_4 N11_4 1_555 1_555
N26_2 Zn4_2 1_555 1_555
N12_4 C36_4 1_555 1_555
C14_3 C15_3 1_555 1_555
C26_4 C36_4 1_555 1_555
C27_4 C28_4 1_555 1_555
I7_4 Zn8_2 1_555 1_555
I8_4 Zn8_2 1_555 1_555
Zn8_2 N19_4 1_555 1_555
N19_4 C55_4 1_555 1_555
N22_4 C69_4 1_555 1_555
N24_4 C69_4 1_555 1_555
C55_4 H37_4 1_555 1_555
C56_4 C55_4 1_555 1_555
H38_4 C56_4 1_555 1_555
C57_4 C56_4 1_555 1_555
C58_4 N19_4 1_555 1_555
H39_4 C58_4 1_555 1_555
C70_4 N22_4 1_555 1_555
C72_4 C57_4 1_555 1_555
C57_4 C70_4 1_555 1_555
C58_4 C72_4 1_555 1_555
I11_4 Zn3_4 1_555 1_555
I12_4 Zn3_4 1_555 1_555
Zn3_4 N14_4 1_555 1_555
N26_2 C37_4 1_555 1_555
N14_4 C42_4 1_555 1_555
N16_4 C52_4 1_555 1_555
N17_4 C53_4 1_555 1_555
N18_4 C52_4 1_555 1_555
N21_4 Zn3_4 1_555 1_555
C37_4 H25_4 1_555 1_555
C38_4 C37_4 1_555 1_555
H26_4 C38_4 1_555 1_555
C39_4 C38_4 1_555 1_555
C40_4 C39_4 1_555 1_555
H27_4 C40_4 1_555 1_555
C41_4 N26_2 1_555 1_555
H28_4 C41_4 1_555 1_555
C42_4 H29_4 1_555 1_555
C43_4 C42_4 1_555 1_555
H30_4 C43_4 1_555 1_555
C44_4 C43_4 1_555 1_555
C45_4 C44_4 1_555 1_555
H31_4 C45_4 1_555 1_555
C46_4 N14_4 1_555 1_555
H32_4 C46_4 1_555 1_555
C53_4 N16_4 1_555 1_555
C54_4 N17_4 1_555 1_555
C64_4 N21_4 1_555 1_555
H44_4 C64_4 1_555 1_555
C65_4 C64_4 1_555 1_555
H45_4 C65_4 1_555 1_555
C66_4 C65_4 1_555 1_555
C67_4 C66_4 1_555 1_555
H46_4 C67_4 1_555 1_555
C68_4 N21_4 1_555 1_555
H47_4 C68_4 1_555 1_555
N18_4 C54_4 1_555 1_555
C39_4 C53_4 1_555 1_555
C40_4 C41_4 1_555 1_555
C44_4 C54_4 1_555 1_555
C45_4 C46_4 1_555 1_555
C67_4 C68_4 1_555 1_555
N27_2 C47_4 1_555 1_555
C47_4 H33_4 1_555 1_555
C48_4 C47_4 1_555 1_555
H34_4 C48_4 1_555 1_555
C49_4 C48_4 1_555 1_555
C50_4 C49_4 1_555 1_555
H35_4 C50_4 1_555 1_555
C51_4 N27_2 1_555 1_555
H36_4 C51_4 1_555 1_555
C50_4 C51_4 1_555 1_555
I3_3 Zn2_3 1_555 1_555
I4_3 Zn2_3 1_555 1_555
I6_4 Zn6_2 1_555 1_555
Zn2_3 N1_3 1_555 1_555
Zn6_2 N3_4 1_555 1_555
N1_3 C1_3 1_555 1_555
N3_4 C11_4 1_555 1_555
N4_3 C16_3 1_555 1_555
N5_3 C17_3 1_555 1_555
N6_3 C16_3 1_555 1_555
N7_3 Zn2_3 1_555 1_555
C1_3 H1_3 1_555 1_555
C2_3 C1_3 1_555 1_555
H2_3 C2_3 1_555 1_555
C3_3 C2_3 1_555 1_555
C4_3 C3_3 1_555 1_555
H3_3 C4_3 1_555 1_555
C5_3 N1_3 1_555 1_555
H4_3 C5_3 1_555 1_555
C11_4 H9_4 1_555 1_555
C12_4 C11_4 1_555 1_555
H10_4 C12_4 1_555 1_555
C13_4 C12_4 1_555 1_555
C14_4 C13_4 1_555 1_555
C15_4 N3_4 1_555 1_555
C16_3 C13_4 1_555 1_555
C17_3 N4_3 1_555 1_555
C19_3 N7_3 1_555 1_555
H13_3 C19_3 1_555 1_555
C20_3 C19_3 1_555 1_555
H14_3 C20_3 1_555 1_555
C21_3 C20_3 1_555 1_555
C22_3 C21_3 1_555 1_555
H15_3 C22_3 1_555 1_555
C23_3 N7_3 1_555 1_555
H16_3 C23_3 1_555 1_555
N25_2 Zn6_2 1_555 1_555
C3_3 C17_3 1_555 1_555
C4_3 C5_3 1_555 1_555
C14_4 C15_4 1_555 1_555
C22_3 C23_3 1_555 1_555
I3_4 Zn2_4 1_555 1_555
I4_4 Zn2_4 1_555 1_555
Zn2_4 N1_4 1_555 1_555
N1_4 C1_4 1_555 1_555
N4_4 C16_4 1_555 1_555
N5_4 C17_4 1_555 1_555
N6_4 C16_4 1_555 1_555
N7_4 Zn2_4 1_555 1_555
N25_2 C29_4 1_555 1_555
N10_4 C34_4 1_555 1_555
C1_4 H1_4 1_555 1_555
C2_4 C1_4 1_555 1_555
H2_4 C2_4 1_555 1_555
C3_4 C2_4 1_555 1_555
C4_4 C3_4 1_555 1_555
H3_4 C4_4 1_555 1_555
C5_4 N1_4 1_555 1_555
H4_4 C5_4 1_555 1_555
C17_4 N4_4 1_555 1_555
C19_4 N7_4 1_555 1_555
H13_4 C19_4 1_555 1_555
C20_4 C19_4 1_555 1_555
H14_4 C20_4 1_555 1_555
C21_4 C20_4 1_555 1_555
C22_4 C21_4 1_555 1_555
H15_4 C22_4 1_555 1_555
C23_4 N7_4 1_555 1_555
H16_4 C23_4 1_555 1_555
C29_4 H21_4 1_555 1_555
C30_4 C29_4 1_555 1_555
H22_4 C30_4 1_555 1_555
C31_4 C30_4 1_555 1_555
C33_4 N25_2 1_555 1_555
C34_4 C31_4 1_555 1_555
C35_4 N10_4 1_555 1_555
C3_4 C17_4 1_555 1_555
C4_4 C5_4 1_555 1_555
C21_4 C35_4 1_555 1_555
C22_4 C23_4 1_555 1_555
I1_3 Zn1_3 1_555 1_555
I2_3 Zn1_3 1_555 1_555
Zn1_3 N2_3 1_555 1_555
N2_3 C6_3 1_555 1_555
N20_3 Zn1_3 1_555 1_555
C6_3 H5_3 1_555 1_555
C7_3 C6_3 1_555 1_555
H6_3 C7_3 1_555 1_555
C8_3 C7_3 1_555 1_555
C9_3 C8_3 1_555 1_555
H7_3 C9_3 1_555 1_555
C10_3 N2_3 1_555 1_555
H8_3 C10_3 1_555 1_555
C59_3 N20_3 1_555 1_555
H40_3 C59_3 1_555 1_555
C60_3 C59_3 1_555 1_555
H41_3 C60_3 1_555 1_555
C61_3 C60_3 1_555 1_555
C62_3 C61_3 1_555 1_555
H42_3 C62_3 1_555 1_555
C63_3 N20_3 1_555 1_555
H43_3 C63_3 1_555 1_555
C71_3 N23_3 1_555 1_555
C8_3 C18_3 1_555 1_555
C9_3 C10_3 1_555 1_555
C61_3 C71_3 1_555 1_555
C62_3 C63_3 1_555 1_555
I1_4 Zn1_4 1_555 1_555
I2_4 Zn1_4 1_555 1_555
Zn1_4 N2_4 1_555 1_555
N2_4 C6_4 1_555 1_555
N20_4 Zn1_4 1_555 1_555
C6_4 H5_4 1_555 1_555
C7_4 C6_4 1_555 1_555
H6_4 C7_4 1_555 1_555
C8_4 C7_4 1_555 1_555
C9_4 C8_4 1_555 1_555
H7_4 C9_4 1_555 1_555
C10_4 N2_4 1_555 1_555
H8_4 C10_4 1_555 1_555
C59_4 N20_4 1_555 1_555
H40_4 C59_4 1_555 1_555
C60_4 C59_4 1_555 1_555
H41_4 C60_4 1_555 1_555
C61_4 C60_4 1_555 1_555
C62_4 C61_4 1_555 1_555
H42_4 C62_4 1_555 1_555
C63_4 N20_4 1_555 1_555
H43_4 C63_4 1_555 1_555
C71_4 N23_4 1_555 1_555
C8_4 C18_4 1_555 1_555
C9_4 C10_4 1_555 1_555
C61_4 C71_4 1_555 1_555
C62_4 C63_4 1_555 1_555

#END
