
###############################################################################
#
# This file contains modified crystal structure data generated from the
# MOF subset of the Cambridge Structural Database (CSD) v543 
# hosted by the Cambridge Crystallographic Data Centre (CCDC).
#
# This work is licensed under the Creative Commons
# Attribution-NonCommercial-ShareAlike 4.0 International License.
# To view a copy of this license, visit
# http://creativecommons.org/licenses/by-nc-sa/4.0/
# or send a letter to
# Creative Commons, PO Box 1866, Mountain View, CA 94042, USA.
#
# CIF created using the CSD Python API on 29 September 2022
# The structure has been converted into the P1 space group
# The structure has a 3D framework
# The original CSD entry TESGOO is in the monoclinic crystal system
# The framework has been calculated to contain at least 10.0% void space
# The void calculation uses a probe of radius 1.32A, grid spacing 0.4
#
###############################################################################

data_TESGOO
_chemical_formula_moiety         '(C24 H24 O48 Zn21)n'
_symmetry_cell_setting           triclinic
_symmetry_space_group_name_H-M   'P 1'
_symmetry_Int_Tables_number      1
_space_group_name_Hall           'P 1'
loop_
_symmetry_equiv_pos_site_id
_symmetry_equiv_pos_as_xyz
1 x,y,z
_cell_length_a                   11.3108(2)
_cell_length_b                   9.8274(2)
_cell_length_c                   18.1577(5)
_cell_angle_alpha                90
_cell_angle_beta                 126.9960(10)
_cell_angle_gamma                90
_cell_volume                     1612
loop_
_atom_site_label
_atom_site_type_symbol
_atom_site_fract_x
_atom_site_fract_y
_atom_site_fract_z
Zn13 Zn 0.0000 0.0000 0.0000
Zn13_2 Zn 0.0000 0.0000 1.0000
Zn13_3 Zn 0.0000 1.0000 0.0000
Zn14 Zn -0.0000 0.5000 0.5000
Zn13_4 Zn 0.0000 1.0000 1.0000
Zn1 Zn 0.37463(5) 0.08071(5) 0.13250(3)
Zn3 Zn 0.5000 0.0000 0.0000
O1 O 0.4362(3) 0.2030(3) 0.2456(2)
O2 O 0.5510(3) 0.0638(3) 0.3689(2)
O5 O 0.4576(3) 0.2577(3) 0.1102(2)
O6 O 0.4872(3) 0.2109(3) 0.0016(2)
O11 O 0.1620(3) 0.1568(3) 0.0598(2)
O12 O 0.2032(3) 0.3806(3) 0.0918(2)
C1 C 0.4978(4) 0.1761(4) 0.3299(3)
H1 H 0.5041 0.2482 0.3669
C3 C 0.4778(4) 0.2899(4) 0.0510(3)
H3 H 0.4866 0.3842 0.0438
C6 C 0.1214(5) 0.2812(4) 0.0510(3)
H6 H 0.0182 0.2989 0.0088
Zn9 Zn 0.42816(5) 0.39445(5) 0.18676(3)
Zn13_5 Zn 1.0000 0.0000 0.0000
O28 O 0.8804(3) 0.1166(3) 0.0305(2)
C11 C 0.7713(5) 0.1019(4) 0.0296(3)
H11 H 0.7685 0.1547 0.0724
Zn3_2 Zn 0.5000 0.0000 1.0000
Zn8 Zn 0.42816(5) 0.10555(5) 0.68676(3)
Zn13_6 Zn 1.0000 0.0000 1.0000
O15 O 0.4362(3) 0.2970(3) 0.7456(2)
O18 O 0.4113(3) 0.0034(3) 0.7804(2)
O19 O 0.3205(3) 0.0008(3) 0.8608(2)
O22 O 0.4576(3) 0.2423(3) 0.6102(2)
O25 O 0.6557(3) 0.0806(3) 0.8042(2)
O27 O 0.6611(3) 0.0225(3) 0.9766(2)
O34 O 0.2032(3) 0.1194(3) 0.5918(2)
C8 C 0.3080(5) 0.0148(4) 0.7884(3)
H8 H 0.2123 0.0359 0.7342
Zn2 Zn 0.57184(5) 0.89445(5) 0.31324(3)
Zn3_3 Zn 0.5000 1.0000 0.0000
O3 O 0.5887(3) 0.9966(3) 0.2196(2)
O4 O 0.6795(3) 0.9992(3) 0.1392(2)
O7 O 0.3443(3) 0.9194(3) 0.1958(2)
O8 O 0.0990(3) 0.9014(3) 0.1241(2)
O9 O 0.3389(3) 0.9775(3) 0.0234(2)
C2 C 0.6920(5) 0.9852(4) 0.2116(3)
H2 H 0.7877 0.9641 0.2658
C4 C 0.2302(5) 0.8750(5) 0.1871(3)
H4 H 0.2479 0.8154 0.2340
Zn6 Zn 0.62537(5) 0.58071(5) 0.36750(3)
Zn13_7 Zn 1.0000 1.0000 0.0000
Zn14_2 Zn 1.0000 0.5000 0.5000
O13 O 0.5638(3) 0.7030(3) 0.2544(2)
O16 O 0.4490(3) 0.5638(3) 0.1311(2)
O21 O 0.5424(3) 0.7577(3) 0.3898(2)
O30 O 0.8380(3) 0.6568(3) 0.4402(2)
O33 O 0.7968(3) 0.8806(3) 0.4082(2)
C7 C 0.5022(4) 0.6761(4) 0.1701(3)
H7 H 0.4959 0.7482 0.1331
C12 C 0.8786(5) 0.7812(4) 0.4490(3)
H12 H 0.9818 0.7989 0.4912
Zn3_4 Zn 0.5000 1.0000 1.0000
O10 O 0.1196(3) 0.8834(3) 0.9695(2)
C5 C 0.2287(5) 0.8981(4) 0.9704(3)
H5 H 0.2315 0.8453 0.9276
Zn5 Zn 0.62537(5) 0.91929(5) 0.86750(3)
Zn10 Zn 0.57184(5) 0.60555(5) 0.81324(3)
Zn13_8 Zn 1.0000 1.0000 1.0000
O14 O 0.5638(3) 0.7970(3) 0.7544(2)
O17 O 0.4490(3) 0.9362(3) 0.6311(2)
O20 O 0.5424(3) 0.7423(3) 0.8898(2)
O23 O 0.5128(3) 0.7891(3) 0.9984(2)
O32 O 0.8380(3) 0.8432(3) 0.9402(2)
C9 C 0.5222(4) 0.7101(4) 0.9490(3)
H9 H 0.5134 0.6158 0.9562
O26 O 0.9010(3) 0.0986(3) 0.8759(2)
C10 C 0.7698(5) 0.1250(5) 0.8129(3)
H10 H 0.7521 0.1846 0.7660
Zn7 Zn 0.37463(5) 0.41929(5) 0.63250(3)
O24 O 0.3443(3) 0.5806(3) 0.6958(2)
O26_2 O 0.0990(3) 0.5986(3) 0.6241(2)
O29 O 0.1196(3) 0.6166(3) 0.4695(2)
O31 O 0.1620(3) 0.3432(3) 0.5598(2)
C10_2 C 0.2302(5) 0.6250(5) 0.6871(3)
H10_2 H 0.2479 0.6846 0.7340
Zn3_5 Zn 0.5000 0.5000 0.5000
O3_2 O 0.4113(3) 0.4966(3) 0.2804(2)
O4_2 O 0.3205(3) 0.4992(3) 0.3608(2)
O6_2 O 0.5128(3) 0.7109(3) 0.4984(2)
O7_2 O 0.6557(3) 0.4194(3) 0.3042(2)
O8_2 O 0.9010(3) 0.4014(3) 0.3759(2)
O9_2 O 0.6611(3) 0.4775(3) 0.4766(2)
O10_2 O 0.8804(3) 0.3834(3) 0.5305(2)
C2_2 C 0.3080(5) 0.4852(4) 0.2884(3)
H2_2 H 0.2123 0.4641 0.2342
C3_2 C 0.5222(4) 0.7899(4) 0.4490(3)
H3_2 H 0.5134 0.8842 0.4562
C4_2 C 0.7698(5) 0.3750(5) 0.3129(3)
H4_2 H 0.7521 0.3154 0.2660
C5_2 C 0.7713(5) 0.3981(4) 0.5296(3)
H5_2 H 0.7685 0.3453 0.5724
O17_2 O 0.5510(3) 0.4362(3) 0.8689(2)
O18_2 O 0.5887(3) 0.5034(3) 0.7196(2)
O19_2 O 0.6795(3) 0.5008(3) 0.6392(2)
O23_2 O 0.4872(3) 0.2891(3) 0.5016(2)
O27_2 O 0.3389(3) 0.5225(3) 0.5234(2)
O34_2 O 0.7968(3) 0.6194(3) 0.9082(2)
C8_2 C 0.6920(5) 0.5148(4) 0.7116(3)
H8_2 H 0.7877 0.5359 0.7658
C9_2 C 0.4778(4) 0.2101(4) 0.5510(3)
H9_2 H 0.4866 0.1158 0.5438
C11_2 C 0.2287(5) 0.6019(4) 0.4704(3)
H11_2 H 0.2315 0.6547 0.4276
C7_2 C 0.4978(4) 0.3239(4) 0.8299(3)
H7_2 H 0.5041 0.2518 0.8669
C12_2 C 0.1214(5) 0.2188(4) 0.5510(3)
H12_2 H 0.0182 0.2011 0.5088
C1_2 C 0.5022(4) 0.8239(4) 0.6701(3)
H1_2 H 0.4959 0.7518 0.6331
C6_2 C 0.8786(5) 0.7188(4) 0.9490(3)
H6_2 H 0.9818 0.7011 0.9912
loop_
_geom_bond_atom_site_label_1
_geom_bond_atom_site_label_2
_geom_bond_site_symmetry_1
_geom_bond_site_symmetry_2
Zn1 O1 1_555 1_555
O1 C1 1_555 1_555
O2 C1 1_555 1_555
O5 Zn1 1_555 1_555
O6 Zn3 1_555 1_555
O11 Zn1 1_555 1_555
O12 C6 1_555 1_555
C1 H1 1_555 1_555
C3 O5 1_555 1_555
H3 C3 1_555 1_555
C6 O11 1_555 1_555
H6 C6 1_555 1_555
Zn9 O1 1_555 1_555
Zn13_5 O28 1_555 1_555
O28 C11 1_555 1_555
H11 C11 1_555 1_555
Zn13 O11 1_555 1_555
O5 Zn9 1_555 1_555
O6 C3 1_555 1_555
O12 Zn9 1_555 1_555
Zn8 O15 1_555 1_555
O19 Zn3_2 1_555 1_555
O22 Zn8 1_555 1_555
O27 Zn3_2 1_555 1_555
O34 Zn8 1_555 1_555
C8 O18 1_555 1_555
H8 C8 1_555 1_555
Zn8 O18 1_555 1_555
Zn8 O25 1_555 1_555
O19 C8 1_555 1_555
Zn3_3 O4 1_555 1_555
Zn13_3 O8 1_555 1_555
O4 C2 1_555 1_555
O8 C4 1_555 1_555
C2 O3 1_555 1_555
H2 C2 1_555 1_555
C4 O7 1_555 1_555
H4 C4 1_555 1_555
Zn6 O13 1_555 1_555
Zn9 O16 1_555 1_555
Zn14_2 O30 1_555 1_555
O13 Zn2 1_555 1_555
O16 C7 1_555 1_555
O21 Zn2 1_555 1_555
O30 Zn6 1_555 1_555
O33 Zn2 1_555 1_555
C7 O13 1_555 1_555
H7 C7 1_555 1_555
C12 O30 1_555 1_555
H12 C12 1_555 1_555
Zn2 O3 1_555 1_555
Zn2 O7 1_555 1_555
Zn3_3 O9 1_555 1_555
Zn6 O21 1_555 1_555
O33 C12 1_555 1_555
O10 Zn13_4 1_555 1_555
H5 C5 1_555 1_555
Zn5 O14 1_555 1_555
Zn10 O14 1_555 1_555
O20 Zn5 1_555 1_555
O23 Zn3_4 1_555 1_555
O32 Zn5 1_555 1_555
C9 O20 1_555 1_555
H9 C9 1_555 1_555
O10 C5 1_555 1_555
Zn10 O20 1_555 1_555
Zn13_8 O32 1_555 1_555
O23 C9 1_555 1_555
O25 C10 1_555 1_555
O26 Zn13_6 1_555 1_555
C10 O26 1_555 1_555
H10 C10 1_555 1_555
Zn7 O24 1_555 1_555
Zn10 O24 1_555 1_555
O24 C10_2 1_555 1_555
O26_2 Zn14 1_555 1_555
O29 Zn14 1_555 1_555
O31 Zn14 1_555 1_555
C10_2 O26_2 1_555 1_555
H10_2 C10_2 1_555 1_555
Zn7 O31 1_555 1_555
Zn3_5 O4_2 1_555 1_555
Zn14_2 O8_2 1_555 1_555
O3_2 Zn6 1_555 1_555
O4_2 C2_2 1_555 1_555
O6_2 Zn3_5 1_555 1_555
O7_2 Zn6 1_555 1_555
O8_2 C4_2 1_555 1_555
O9_2 Zn6 1_555 1_555
O10_2 Zn14_2 1_555 1_555
C2_2 O3_2 1_555 1_555
H2_2 C2_2 1_555 1_555
C3_2 O21 1_555 1_555
H3_2 C3_2 1_555 1_555
C4_2 O7_2 1_555 1_555
H4_2 C4_2 1_555 1_555
C5_2 O9_2 1_555 1_555
H5_2 C5_2 1_555 1_555
Zn7 O15 1_555 1_555
O17_2 Zn10 1_555 1_555
O18_2 Zn7 1_555 1_555
O19_2 Zn3_5 1_555 1_555
O22 Zn7 1_555 1_555
O23_2 Zn3_5 1_555 1_555
O27_2 Zn3_5 1_555 1_555
O29 C11_2 1_555 1_555
O34_2 Zn10 1_555 1_555
C8_2 O18_2 1_555 1_555
H8_2 C8_2 1_555 1_555
C9_2 O22 1_555 1_555
H9_2 C9_2 1_555 1_555
C11_2 O27_2 1_555 1_555
H11_2 C11_2 1_555 1_555
Zn9 O3_2 1_555 1_555
Zn9 O7_2 1_555 1_555
Zn3_5 O9_2 1_555 1_555
O6_2 C3_2 1_555 1_555
O10_2 C5_2 1_555 1_555
Zn7 O27_2 1_555 1_555
Zn10 O18_2 1_555 1_555
O19_2 C8_2 1_555 1_555
O23_2 C9_2 1_555 1_555
O17_2 C7_2 1_555 1_555
C7_2 O15 1_555 1_555
H7_2 C7_2 1_555 1_555
C12_2 O31 1_555 1_555
H12_2 C12_2 1_555 1_555
O34 C12_2 1_555 1_555
O14 C1_2 1_555 1_555
O17 C1_2 1_555 1_555
O34_2 C6_2 1_555 1_555
C1_2 H1_2 1_555 1_555
C6_2 O32 1_555 1_555
H6_2 C6_2 1_555 1_555

#END
