
###############################################################################
#
# This file contains modified crystal structure data generated from the
# MOF subset of the Cambridge Structural Database (CSD) v543 
# hosted by the Cambridge Crystallographic Data Centre (CCDC).
#
# This work is licensed under the Creative Commons
# Attribution-NonCommercial-ShareAlike 4.0 International License.
# To view a copy of this license, visit
# http://creativecommons.org/licenses/by-nc-sa/4.0/
# or send a letter to
# Creative Commons, PO Box 1866, Mountain View, CA 94042, USA.
#
# CIF created using the CSD Python API on 29 September 2022
# The structure has been converted into the P1 space group
# The structure has a 3D framework
# The original CSD entry TESGUU is in the monoclinic crystal system
# The framework has been calculated to contain at least 10.0% void space
# The void calculation uses a probe of radius 1.32A, grid spacing 0.4
#
###############################################################################

data_TESGUU
_chemical_formula_moiety         '(C24 H24 O48 Zn21)n'
_symmetry_cell_setting           triclinic
_symmetry_space_group_name_H-M   'P 1'
_symmetry_Int_Tables_number      1
_space_group_name_Hall           'P 1'
loop_
_symmetry_equiv_pos_site_id
_symmetry_equiv_pos_as_xyz
1 x,y,z
_cell_length_a                   11.2065(3)
_cell_length_b                   9.7744(3)
_cell_length_c                   18.3348(8)
_cell_angle_alpha                90
_cell_angle_beta                 126.6100(10)
_cell_angle_gamma                90
_cell_volume                     1612.12
loop_
_atom_site_label
_atom_site_type_symbol
_atom_site_fract_x
_atom_site_fract_y
_atom_site_fract_z
Zn13 Zn 0.0000 0.0000 0.0000
Zn13_2 Zn -0.0000 0.0000 1.0000
Zn13_3 Zn -0.0000 1.0000 0.0000
Zn14 Zn -0.0000 0.5000 0.5000
Zn13_4 Zn -0.0000 1.0000 1.0000
Zn1 Zn 0.37661(3) 0.07901(3) 0.13235(2)
Zn3 Zn 0.5000 0.0000 0.0000
O1 O 0.43304(19) 0.19900(17) 0.24520(13)
O2 O 0.5518(2) 0.05983(18) 0.36670(13)
O5 O 0.46185(19) 0.25700(17) 0.11424(13)
O6 O 0.4893(2) 0.21108(18) 0.00495(14)
O11 O 0.16372(19) 0.15566(17) 0.06095(13)
O12 O 0.20263(19) 0.38031(17) 0.09599(13)
C1 C 0.4950(3) 0.1713(3) 0.3283(2)
H1 H 0.4982 0.2425 0.3647
C3 C 0.4818(3) 0.2899(3) 0.0545(2)
H3 H 0.4919 0.3847 0.0478
C6 C 0.1222(3) 0.2808(3) 0.0523(2)
H6 H 0.0194 0.2990 0.0079
Zn9 Zn 0.42716(3) 0.39172(3) 0.18948(2)
Zn13_5 Zn 1.0000 0.0000 0.0000
O28 O 0.88549(19) 0.11646(18) 0.03486(14)
C11 C 0.7715(3) 0.1061(3) 0.0295(2)
H11 H 0.7641 0.1624 0.0689
Zn3_2 Zn 0.5000 0.0000 1.0000
Zn8 Zn 0.42716(3) 0.10828(3) 0.68948(2)
Zn13_6 Zn 1.0000 0.0000 1.0000
O15 O 0.43304(19) 0.30100(17) 0.74520(13)
O18 O 0.40832(18) 0.00515(17) 0.78170(13)
O19 O 0.3179(2) 0.00571(18) 0.86246(13)
O22 O 0.46185(19) 0.24300(17) 0.61424(13)
O25 O 0.65517(19) 0.08479(17) 0.80675(13)
O27 O 0.66082(19) 0.02672(17) 0.97584(13)
O34 O 0.20263(19) 0.11969(17) 0.59599(13)
C8 C 0.3044(3) 0.0180(3) 0.7906(2)
H8 H 0.2080 0.0389 0.7374
Zn2 Zn 0.57284(3) 0.89172(3) 0.31052(2)
Zn3_3 Zn 0.5000 1.0000 0.0000
O3 O 0.59168(18) 0.99485(17) 0.21830(13)
O4 O 0.6821(2) 0.99429(18) 0.13754(13)
O7 O 0.34483(19) 0.91521(17) 0.19325(13)
O8 O 0.0990(2) 0.89287(18) 0.12102(14)
O9 O 0.33918(19) 0.97328(17) 0.02416(13)
C2 C 0.6956(3) 0.9820(3) 0.2094(2)
H2 H 0.7920 0.9611 0.2626
C4 C 0.2300(3) 0.8662(3) 0.1827(2)
H4 H 0.2472 0.8022 0.2270
Zn6 Zn 0.62339(3) 0.57901(3) 0.36765(2)
Zn13_7 Zn 1.0000 1.0000 0.0000
Zn14_2 Zn 1.0000 0.5000 0.5000
O13 O 0.56696(19) 0.69900(17) 0.25480(13)
O16 O 0.4482(2) 0.55983(18) 0.13330(13)
O21 O 0.53815(19) 0.75700(17) 0.38576(13)
O30 O 0.83628(19) 0.65566(17) 0.43905(13)
O33 O 0.79737(19) 0.88031(17) 0.40401(13)
C7 C 0.5050(3) 0.6713(3) 0.1717(2)
H7 H 0.5018 0.7425 0.1353
C12 C 0.8778(3) 0.7808(3) 0.4477(2)
H12 H 0.9806 0.7990 0.4921
Zn3_4 Zn 0.5000 1.0000 1.0000
O10 O 0.11451(19) 0.88354(18) 0.96514(14)
C5 C 0.2285(3) 0.8939(3) 0.9705(2)
H5 H 0.2359 0.8376 0.9311
Zn5 Zn 0.62339(3) 0.92099(3) 0.86765(2)
Zn10 Zn 0.57284(3) 0.60828(3) 0.81052(2)
Zn13_8 Zn 1.0000 1.0000 1.0000
O14 O 0.56696(19) 0.80100(17) 0.75480(13)
O17 O 0.4482(2) 0.94017(18) 0.63330(13)
O20 O 0.53815(19) 0.74300(17) 0.88576(13)
O23 O 0.5107(2) 0.78892(18) 0.99505(14)
O32 O 0.83628(19) 0.84434(17) 0.93905(13)
C9 C 0.5182(3) 0.7101(3) 0.9455(2)
H9 H 0.5081 0.6153 0.9522
O26 O 0.9010(2) 0.10713(18) 0.87898(14)
C10 C 0.7700(3) 0.1338(3) 0.8173(2)
H10 H 0.7528 0.1978 0.7730
Zn7 Zn 0.37661(3) 0.42099(3) 0.63235(2)
O24 O 0.34483(19) 0.58479(17) 0.69325(13)
O26_2 O 0.0990(2) 0.60713(18) 0.62102(14)
O29 O 0.11451(19) 0.61646(18) 0.46514(14)
O31 O 0.16372(19) 0.34434(17) 0.56095(13)
C10_2 C 0.2300(3) 0.6338(3) 0.6827(2)
H10_2 H 0.2472 0.6978 0.7270
Zn3_5 Zn 0.5000 0.5000 0.5000
O3_2 O 0.40832(18) 0.49485(17) 0.28170(13)
O4_2 O 0.3179(2) 0.49429(18) 0.36246(13)
O6_2 O 0.5107(2) 0.71108(18) 0.49505(14)
O7_2 O 0.65517(19) 0.41521(17) 0.30675(13)
O8_2 O 0.9010(2) 0.39287(18) 0.37898(14)
O9_2 O 0.66082(19) 0.47328(17) 0.47584(13)
O10_2 O 0.88549(19) 0.38354(18) 0.53486(14)
C2_2 C 0.3044(3) 0.4820(3) 0.2906(2)
H2_2 H 0.2080 0.4611 0.2374
C3_2 C 0.5182(3) 0.7899(3) 0.4455(2)
H3_2 H 0.5081 0.8847 0.4522
C4_2 C 0.7700(3) 0.3662(3) 0.3173(2)
H4_2 H 0.7528 0.3022 0.2730
C5_2 C 0.7715(3) 0.3939(3) 0.5295(2)
H5_2 H 0.7641 0.3376 0.5689
O17_2 O 0.5518(2) 0.44017(18) 0.86670(13)
O18_2 O 0.59168(18) 0.50515(17) 0.71830(13)
O19_2 O 0.6821(2) 0.50571(18) 0.63754(13)
O23_2 O 0.4893(2) 0.28892(18) 0.50495(14)
O27_2 O 0.33918(19) 0.52672(17) 0.52416(13)
O34_2 O 0.79737(19) 0.61969(17) 0.90401(13)
C8_2 C 0.6956(3) 0.5180(3) 0.7094(2)
H8_2 H 0.7920 0.5389 0.7626
C9_2 C 0.4818(3) 0.2101(3) 0.5545(2)
H9_2 H 0.4919 0.1153 0.5478
C11_2 C 0.2285(3) 0.6061(3) 0.4705(2)
H11_2 H 0.2359 0.6624 0.4311
C7_2 C 0.4950(3) 0.3287(3) 0.8283(2)
H7_2 H 0.4982 0.2575 0.8647
C12_2 C 0.1222(3) 0.2192(3) 0.5523(2)
H12_2 H 0.0194 0.2010 0.5079
C1_2 C 0.5050(3) 0.8287(3) 0.6717(2)
H1_2 H 0.5018 0.7575 0.6353
C6_2 C 0.8778(3) 0.7192(3) 0.9477(2)
H6_2 H 0.9806 0.7010 0.9921
loop_
_geom_bond_atom_site_label_1
_geom_bond_atom_site_label_2
_geom_bond_site_symmetry_1
_geom_bond_site_symmetry_2
Zn1 O1 1_555 1_555
O1 C1 1_555 1_555
O2 C1 1_555 1_555
O5 Zn1 1_555 1_555
O6 Zn3 1_555 1_555
O11 Zn1 1_555 1_555
O12 C6 1_555 1_555
C1 H1 1_555 1_555
C3 O5 1_555 1_555
H3 C3 1_555 1_555
C6 O11 1_555 1_555
H6 C6 1_555 1_555
Zn9 O1 1_555 1_555
Zn13_5 O28 1_555 1_555
O28 C11 1_555 1_555
H11 C11 1_555 1_555
Zn13 O11 1_555 1_555
O5 Zn9 1_555 1_555
O6 C3 1_555 1_555
O12 Zn9 1_555 1_555
Zn8 O15 1_555 1_555
O19 Zn3_2 1_555 1_555
O22 Zn8 1_555 1_555
O27 Zn3_2 1_555 1_555
O34 Zn8 1_555 1_555
C8 O18 1_555 1_555
H8 C8 1_555 1_555
Zn8 O18 1_555 1_555
Zn8 O25 1_555 1_555
O19 C8 1_555 1_555
Zn3_3 O4 1_555 1_555
Zn13_3 O8 1_555 1_555
O4 C2 1_555 1_555
O8 C4 1_555 1_555
C2 O3 1_555 1_555
H2 C2 1_555 1_555
C4 O7 1_555 1_555
H4 C4 1_555 1_555
Zn6 O13 1_555 1_555
Zn9 O16 1_555 1_555
Zn14_2 O30 1_555 1_555
O13 Zn2 1_555 1_555
O16 C7 1_555 1_555
O21 Zn2 1_555 1_555
O30 Zn6 1_555 1_555
O33 Zn2 1_555 1_555
C7 O13 1_555 1_555
H7 C7 1_555 1_555
C12 O30 1_555 1_555
H12 C12 1_555 1_555
Zn2 O3 1_555 1_555
Zn2 O7 1_555 1_555
Zn3_3 O9 1_555 1_555
Zn6 O21 1_555 1_555
O33 C12 1_555 1_555
O10 Zn13_4 1_555 1_555
H5 C5 1_555 1_555
Zn5 O14 1_555 1_555
Zn10 O14 1_555 1_555
O20 Zn5 1_555 1_555
O23 Zn3_4 1_555 1_555
O32 Zn5 1_555 1_555
C9 O20 1_555 1_555
H9 C9 1_555 1_555
O10 C5 1_555 1_555
Zn10 O20 1_555 1_555
Zn13_8 O32 1_555 1_555
O23 C9 1_555 1_555
O25 C10 1_555 1_555
O26 Zn13_6 1_555 1_555
C10 O26 1_555 1_555
H10 C10 1_555 1_555
Zn7 O24 1_555 1_555
Zn10 O24 1_555 1_555
O24 C10_2 1_555 1_555
O26_2 Zn14 1_555 1_555
O29 Zn14 1_555 1_555
O31 Zn14 1_555 1_555
C10_2 O26_2 1_555 1_555
H10_2 C10_2 1_555 1_555
Zn7 O31 1_555 1_555
Zn3_5 O4_2 1_555 1_555
Zn14_2 O8_2 1_555 1_555
O3_2 Zn6 1_555 1_555
O4_2 C2_2 1_555 1_555
O6_2 Zn3_5 1_555 1_555
O7_2 Zn6 1_555 1_555
O8_2 C4_2 1_555 1_555
O9_2 Zn6 1_555 1_555
O10_2 Zn14_2 1_555 1_555
C2_2 O3_2 1_555 1_555
H2_2 C2_2 1_555 1_555
C3_2 O21 1_555 1_555
H3_2 C3_2 1_555 1_555
C4_2 O7_2 1_555 1_555
H4_2 C4_2 1_555 1_555
C5_2 O9_2 1_555 1_555
H5_2 C5_2 1_555 1_555
Zn7 O15 1_555 1_555
O17_2 Zn10 1_555 1_555
O18_2 Zn7 1_555 1_555
O19_2 Zn3_5 1_555 1_555
O22 Zn7 1_555 1_555
O23_2 Zn3_5 1_555 1_555
O27_2 Zn3_5 1_555 1_555
O29 C11_2 1_555 1_555
O34_2 Zn10 1_555 1_555
C8_2 O18_2 1_555 1_555
H8_2 C8_2 1_555 1_555
C9_2 O22 1_555 1_555
H9_2 C9_2 1_555 1_555
C11_2 O27_2 1_555 1_555
H11_2 C11_2 1_555 1_555
Zn9 O3_2 1_555 1_555
Zn9 O7_2 1_555 1_555
Zn3_5 O9_2 1_555 1_555
O6_2 C3_2 1_555 1_555
O10_2 C5_2 1_555 1_555
Zn7 O27_2 1_555 1_555
Zn10 O18_2 1_555 1_555
O19_2 C8_2 1_555 1_555
O23_2 C9_2 1_555 1_555
O17_2 C7_2 1_555 1_555
C7_2 O15 1_555 1_555
H7_2 C7_2 1_555 1_555
C12_2 O31 1_555 1_555
H12_2 C12_2 1_555 1_555
O34 C12_2 1_555 1_555
O14 C1_2 1_555 1_555
O17 C1_2 1_555 1_555
O34_2 C6_2 1_555 1_555
C1_2 H1_2 1_555 1_555
C6_2 O32 1_555 1_555
H6_2 C6_2 1_555 1_555

#END
