
###############################################################################
#
# This file contains modified crystal structure data generated from the
# MOF subset of the Cambridge Structural Database (CSD) v543 
# hosted by the Cambridge Crystallographic Data Centre (CCDC).
#
# This work is licensed under the Creative Commons
# Attribution-NonCommercial-ShareAlike 4.0 International License.
# To view a copy of this license, visit
# http://creativecommons.org/licenses/by-nc-sa/4.0/
# or send a letter to
# Creative Commons, PO Box 1866, Mountain View, CA 94042, USA.
#
# CIF created using the CSD Python API on 29 September 2022
# The structure has been converted into the P1 space group
# The structure has a 3D framework
# The original CSD entry TESHAB is in the monoclinic crystal system
# The framework has been calculated to contain at least 10.0% void space
# The void calculation uses a probe of radius 1.32A, grid spacing 0.4
#
###############################################################################

data_TESHAB
_chemical_formula_moiety         '(C24 H24 O48 Zn21)n'
_symmetry_cell_setting           triclinic
_symmetry_space_group_name_H-M   'P 1'
_symmetry_Int_Tables_number      1
_space_group_name_Hall           'P 1'
loop_
_symmetry_equiv_pos_site_id
_symmetry_equiv_pos_as_xyz
1 x,y,z
_cell_length_a                   11.3647(2)
_cell_length_b                   9.9781(2)
_cell_length_c                   18.7044(5)
_cell_angle_alpha                90
_cell_angle_beta                 126.4130(10)
_cell_angle_gamma                90
_cell_volume                     1706.93
loop_
_atom_site_label
_atom_site_type_symbol
_atom_site_fract_x
_atom_site_fract_y
_atom_site_fract_z
Zn13 Zn 0.0000 0.0000 0.0000
Zn13_2 Zn 0.0000 0.0000 1.0000
Zn13_3 Zn 0.0000 1.0000 0.0000
Zn14 Zn 0.0000 0.5000 0.5000
Zn13_4 Zn 0.0000 1.0000 1.0000
Zn1 Zn 0.37783(4) 0.06976(3) 0.13241(2)
Zn3 Zn 0.5000 0.0000 0.0000
O1 O 0.4417(2) 0.18466(19) 0.24777(13)
O2 O 0.5487(2) 0.03952(19) 0.36147(13)
O5 O 0.4701(2) 0.24571(19) 0.12076(13)
O6 O 0.5127(2) 0.20558(19) 0.01965(14)
O11 O 0.1691(2) 0.14559(18) 0.06968(13)
O12 O 0.2160(2) 0.36372(19) 0.10792(13)
C1 C 0.5019(3) 0.1525(3) 0.3280(2)
H1 H 0.5124 0.2214 0.3664
C3 C 0.5086(3) 0.2792(3) 0.0713(2)
H3 H 0.5368 0.3699 0.0746
C6 C 0.1321(3) 0.2677(3) 0.0678(2)
H6 H 0.0303 0.2865 0.0323
Zn9 Zn 0.43912(4) 0.37537(3) 0.19721(2)
Zn13_5 Zn 1.0000 0.0000 0.0000
O28 O 0.8941(2) 0.09415(19) 0.04478(14)
C11 C 0.7799(3) 0.0853(3) 0.0384(2)
H11 H 0.7769 0.1320 0.0815
Zn3_2 Zn 0.5000 0.0000 1.0000
Zn8 Zn 0.43912(4) 0.12463(3) 0.69721(2)
Zn13_6 Zn 1.0000 0.0000 1.0000
O15 O 0.4417(2) 0.31534(19) 0.74777(13)
O18 O 0.4175(2) 0.02126(19) 0.78654(13)
O19 O 0.3288(2) 0.0272(2) 0.86616(14)
O22 O 0.4701(2) 0.25429(19) 0.62076(13)
O25 O 0.6594(2) 0.09456(18) 0.81166(13)
O27 O 0.6649(2) 0.01943(19) 0.97954(13)
O34 O 0.2160(2) 0.13628(19) 0.60792(13)
C8 C 0.3171(3) 0.0392(3) 0.7968(2)
H8 H 0.2236 0.0645 0.7454
Zn2 Zn 0.56088(4) 0.87537(3) 0.30279(2)
Zn3_3 Zn 0.5000 1.0000 0.0000
O3 O 0.5825(2) 0.97874(19) 0.21346(13)
O4 O 0.6712(2) 0.9728(2) 0.13384(14)
O7 O 0.3406(2) 0.90544(18) 0.18834(13)
O8 O 0.0992(2) 0.8680(2) 0.10644(13)
O9 O 0.3351(2) 0.98057(19) 0.02046(13)
C2 C 0.6829(3) 0.9608(3) 0.2032(2)
H2 H 0.7764 0.9355 0.2546
C4 C 0.2272(3) 0.8437(3) 0.1688(2)
H4 H 0.2426 0.7710 0.2063
Zn6 Zn 0.62217(4) 0.56976(3) 0.36759(2)
Zn13_7 Zn 1.0000 1.0000 0.0000
Zn14_2 Zn 1.0000 0.5000 0.5000
O13 O 0.5583(2) 0.68466(19) 0.25223(13)
O16 O 0.4513(2) 0.53952(19) 0.13853(13)
O21 O 0.5299(2) 0.74571(19) 0.37924(13)
O30 O 0.8309(2) 0.64559(18) 0.43032(13)
O33 O 0.7840(2) 0.86372(19) 0.39208(13)
C7 C 0.4981(3) 0.6525(3) 0.1720(2)
H7 H 0.4876 0.7214 0.1336
C12 C 0.8679(3) 0.7677(3) 0.4322(2)
H12 H 0.9697 0.7865 0.4677
Zn3_4 Zn 0.5000 1.0000 1.0000
O10 O 0.1059(2) 0.90585(19) 0.95522(14)
C5 C 0.2201(3) 0.9147(3) 0.9616(2)
H5 H 0.2231 0.8680 0.9185
Zn5 Zn 0.62217(4) 0.93024(3) 0.86759(2)
Zn10 Zn 0.56088(4) 0.62463(3) 0.80279(2)
Zn13_8 Zn 1.0000 1.0000 1.0000
O14 O 0.5583(2) 0.81534(19) 0.75223(13)
O17 O 0.4513(2) 0.96048(19) 0.63853(13)
O20 O 0.5299(2) 0.75429(19) 0.87924(13)
O23 O 0.4873(2) 0.79442(19) 0.98035(14)
O32 O 0.8309(2) 0.85441(18) 0.93032(13)
C9 C 0.4914(3) 0.7208(3) 0.9287(2)
H9 H 0.4632 0.6301 0.9254
O26 O 0.9008(2) 0.1320(2) 0.89356(13)
C10 C 0.7728(3) 0.1563(3) 0.8312(2)
H10 H 0.7574 0.2290 0.7937
Zn7 Zn 0.37783(4) 0.43024(3) 0.63241(2)
O24 O 0.3406(2) 0.59456(18) 0.68834(13)
O26_2 O 0.0992(2) 0.6320(2) 0.60644(13)
O29 O 0.1059(2) 0.59415(19) 0.45522(14)
O31 O 0.1691(2) 0.35441(18) 0.56968(13)
C10_2 C 0.2272(3) 0.6563(3) 0.6688(2)
H10_2 H 0.2426 0.7290 0.7063
Zn3_5 Zn 0.5000 0.5000 0.5000
O3_2 O 0.4175(2) 0.47874(19) 0.28654(13)
O4_2 O 0.3288(2) 0.4728(2) 0.36616(14)
O6_2 O 0.4873(2) 0.70558(19) 0.48035(14)
O7_2 O 0.6594(2) 0.40544(18) 0.31166(13)
O8_2 O 0.9008(2) 0.3680(2) 0.39356(13)
O9_2 O 0.6649(2) 0.48057(19) 0.47954(13)
O10_2 O 0.8941(2) 0.40585(19) 0.54478(14)
C2_2 C 0.3171(3) 0.4608(3) 0.2968(2)
H2_2 H 0.2236 0.4355 0.2454
C3_2 C 0.4914(3) 0.7792(3) 0.4287(2)
H3_2 H 0.4632 0.8699 0.4254
C4_2 C 0.7728(3) 0.3437(3) 0.3312(2)
H4_2 H 0.7574 0.2710 0.2937
C5_2 C 0.7799(3) 0.4147(3) 0.5384(2)
H5_2 H 0.7769 0.3680 0.5815
O17_2 O 0.5487(2) 0.46048(19) 0.86147(13)
O18_2 O 0.5825(2) 0.52126(19) 0.71346(13)
O19_2 O 0.6712(2) 0.5272(2) 0.63384(14)
O23_2 O 0.5127(2) 0.29442(19) 0.51965(14)
O27_2 O 0.3351(2) 0.51943(19) 0.52046(13)
O34_2 O 0.7840(2) 0.63628(19) 0.89208(13)
C8_2 C 0.6829(3) 0.5392(3) 0.7032(2)
H8_2 H 0.7764 0.5645 0.7546
C9_2 C 0.5086(3) 0.2208(3) 0.5713(2)
H9_2 H 0.5368 0.1301 0.5746
C11_2 C 0.2201(3) 0.5853(3) 0.4616(2)
H11_2 H 0.2231 0.6320 0.4185
C7_2 C 0.5019(3) 0.3475(3) 0.8280(2)
H7_2 H 0.5124 0.2786 0.8664
C12_2 C 0.1321(3) 0.2323(3) 0.5678(2)
H12_2 H 0.0303 0.2135 0.5323
C1_2 C 0.4981(3) 0.8475(3) 0.6720(2)
H1_2 H 0.4876 0.7786 0.6336
C6_2 C 0.8679(3) 0.7323(3) 0.9322(2)
H6_2 H 0.9697 0.7135 0.9677
loop_
_geom_bond_atom_site_label_1
_geom_bond_atom_site_label_2
_geom_bond_site_symmetry_1
_geom_bond_site_symmetry_2
Zn1 O1 1_555 1_555
O1 C1 1_555 1_555
O2 C1 1_555 1_555
O5 Zn1 1_555 1_555
O6 Zn3 1_555 1_555
O11 Zn1 1_555 1_555
O12 C6 1_555 1_555
C1 H1 1_555 1_555
C3 O5 1_555 1_555
H3 C3 1_555 1_555
C6 O11 1_555 1_555
H6 C6 1_555 1_555
Zn9 O1 1_555 1_555
Zn13_5 O28 1_555 1_555
O28 C11 1_555 1_555
H11 C11 1_555 1_555
Zn13 O11 1_555 1_555
O5 Zn9 1_555 1_555
O6 C3 1_555 1_555
O12 Zn9 1_555 1_555
Zn8 O15 1_555 1_555
O19 Zn3_2 1_555 1_555
O22 Zn8 1_555 1_555
O27 Zn3_2 1_555 1_555
O34 Zn8 1_555 1_555
C8 O18 1_555 1_555
H8 C8 1_555 1_555
Zn8 O18 1_555 1_555
Zn8 O25 1_555 1_555
O19 C8 1_555 1_555
Zn3_3 O4 1_555 1_555
Zn13_3 O8 1_555 1_555
O4 C2 1_555 1_555
O8 C4 1_555 1_555
C2 O3 1_555 1_555
H2 C2 1_555 1_555
C4 O7 1_555 1_555
H4 C4 1_555 1_555
Zn6 O13 1_555 1_555
Zn9 O16 1_555 1_555
Zn14_2 O30 1_555 1_555
O13 Zn2 1_555 1_555
O16 C7 1_555 1_555
O21 Zn2 1_555 1_555
O30 Zn6 1_555 1_555
O33 Zn2 1_555 1_555
C7 O13 1_555 1_555
H7 C7 1_555 1_555
C12 O30 1_555 1_555
H12 C12 1_555 1_555
Zn2 O3 1_555 1_555
Zn2 O7 1_555 1_555
Zn3_3 O9 1_555 1_555
Zn6 O21 1_555 1_555
O33 C12 1_555 1_555
O10 Zn13_4 1_555 1_555
H5 C5 1_555 1_555
Zn5 O14 1_555 1_555
Zn10 O14 1_555 1_555
O20 Zn5 1_555 1_555
O23 Zn3_4 1_555 1_555
O32 Zn5 1_555 1_555
C9 O20 1_555 1_555
H9 C9 1_555 1_555
O10 C5 1_555 1_555
Zn10 O20 1_555 1_555
Zn13_8 O32 1_555 1_555
O23 C9 1_555 1_555
O25 C10 1_555 1_555
O26 Zn13_6 1_555 1_555
C10 O26 1_555 1_555
H10 C10 1_555 1_555
Zn7 O24 1_555 1_555
Zn10 O24 1_555 1_555
O24 C10_2 1_555 1_555
O26_2 Zn14 1_555 1_555
O29 Zn14 1_555 1_555
O31 Zn14 1_555 1_555
C10_2 O26_2 1_555 1_555
H10_2 C10_2 1_555 1_555
Zn7 O31 1_555 1_555
Zn3_5 O4_2 1_555 1_555
Zn14_2 O8_2 1_555 1_555
O3_2 Zn6 1_555 1_555
O4_2 C2_2 1_555 1_555
O6_2 Zn3_5 1_555 1_555
O7_2 Zn6 1_555 1_555
O8_2 C4_2 1_555 1_555
O9_2 Zn6 1_555 1_555
O10_2 Zn14_2 1_555 1_555
C2_2 O3_2 1_555 1_555
H2_2 C2_2 1_555 1_555
C3_2 O21 1_555 1_555
H3_2 C3_2 1_555 1_555
C4_2 O7_2 1_555 1_555
H4_2 C4_2 1_555 1_555
C5_2 O9_2 1_555 1_555
H5_2 C5_2 1_555 1_555
Zn7 O15 1_555 1_555
O17_2 Zn10 1_555 1_555
O18_2 Zn7 1_555 1_555
O19_2 Zn3_5 1_555 1_555
O22 Zn7 1_555 1_555
O23_2 Zn3_5 1_555 1_555
O27_2 Zn3_5 1_555 1_555
O29 C11_2 1_555 1_555
O34_2 Zn10 1_555 1_555
C8_2 O18_2 1_555 1_555
H8_2 C8_2 1_555 1_555
C9_2 O22 1_555 1_555
H9_2 C9_2 1_555 1_555
C11_2 O27_2 1_555 1_555
H11_2 C11_2 1_555 1_555
Zn9 O3_2 1_555 1_555
Zn9 O7_2 1_555 1_555
Zn3_5 O9_2 1_555 1_555
O6_2 C3_2 1_555 1_555
O10_2 C5_2 1_555 1_555
Zn7 O27_2 1_555 1_555
Zn10 O18_2 1_555 1_555
O19_2 C8_2 1_555 1_555
O23_2 C9_2 1_555 1_555
O17_2 C7_2 1_555 1_555
C7_2 O15 1_555 1_555
H7_2 C7_2 1_555 1_555
C12_2 O31 1_555 1_555
H12_2 C12_2 1_555 1_555
O34 C12_2 1_555 1_555
O14 C1_2 1_555 1_555
O17 C1_2 1_555 1_555
O34_2 C6_2 1_555 1_555
C1_2 H1_2 1_555 1_555
C6_2 O32 1_555 1_555
H6_2 C6_2 1_555 1_555

#END
