
###############################################################################
#
# This file contains modified crystal structure data generated from the
# MOF subset of the Cambridge Structural Database (CSD) v543 
# hosted by the Cambridge Crystallographic Data Centre (CCDC).
#
# This work is licensed under the Creative Commons
# Attribution-NonCommercial-ShareAlike 4.0 International License.
# To view a copy of this license, visit
# http://creativecommons.org/licenses/by-nc-sa/4.0/
# or send a letter to
# Creative Commons, PO Box 1866, Mountain View, CA 94042, USA.
#
# CIF created using the CSD Python API on 29 September 2022
# The structure has been converted into the P1 space group
# The structure has a 3D framework
# The original CSD entry TETWOG is in the triclinic crystal system
# The framework has been calculated to contain at least 10.0% void space
# The void calculation uses a probe of radius 1.32A, grid spacing 0.4
#
###############################################################################

data_TETWOG
_chemical_formula_moiety         '(C30 H30 Co6 N2 O20)n'
_symmetry_cell_setting           triclinic
_symmetry_space_group_name_H-M   'P 1'
_symmetry_Int_Tables_number      1
_space_group_name_Hall           'P 1'
loop_
_symmetry_equiv_pos_site_id
_symmetry_equiv_pos_as_xyz
1 x,y,z
_cell_length_a                   9.1238(12)
_cell_length_b                   9.6201(13)
_cell_length_c                   12.6475(17)
_cell_angle_alpha                94.475(2)
_cell_angle_beta                 104.722(2)
_cell_angle_gamma                114.437(2)
_cell_volume                     956.09
loop_
_atom_site_label
_atom_site_type_symbol
_atom_site_fract_x
_atom_site_fract_y
_atom_site_fract_z
C24 C 0.5810(6) 0.0413(5) 0.0039(4)
H26 H 0.8948 0.2257 0.0140
H28 H 0.685(2) 0.033(2) 0.071(3)
Co9 Co 0.87208(7) 0.51391(7) 0.70196(5)
N2 N 0.7769(5) 0.3664(4) 0.8052(3)
C26 C 0.6447(6) 0.1550(5) 0.9359(4)
C27 C 0.5400(6) 0.1858(6) 0.8497(4)
H23 H 0.4230 0.1363 0.8348
C28 C 0.8762(6) 0.3402(6) 0.8887(4)
H24 H 0.9928 0.3941 0.9029
C29 C 0.8185(6) 0.2385(7) 0.9559(4)
C30 C 0.6094(6) 0.2891(6) 0.7870(4)
H27 H 0.5369 0.3064 0.7291
Co1 Co 0.12792(7) 0.48609(7) 0.29804(5)
N1 N 0.2231(5) 0.6336(4) 0.1948(3)
C11 C 0.3553(6) 0.8450(5) 0.0641(4)
C12 C 0.4600(6) 0.8142(6) 0.1503(4)
H8 H 0.5770 0.8637 0.1652
C13 C 0.1238(6) 0.6598(6) 0.1113(4)
H9 H 0.0072 0.6059 0.0971
C14 C 0.1815(6) 0.7615(7) 0.0441(4)
C15 C 0.3906(6) 0.7109(6) 0.2130(4)
H12 H 0.4631 0.6936 0.2709
O12 O 0.1201(5) 0.2746(5) 0.1922(3)
O18 O 0.3299(4) 0.4254(4) 0.3388(2)
O23 O 0.2078(4) 0.6590(4) 0.4347(3)
O2 O 0.0682(4) 0.2353(4) 0.5689(3)
H1 H 0.1375 0.2943 0.5426
O3 O 0.4006(4) 0.2707(3) 0.5186(3)
C1 C 0.3297(5) 0.1513(5) 0.4410(4)
C2 C 0.2605(5) 0.3049(5) 0.2589(4)
O5 O 0.7922(4) 0.3410(4) 0.5653(3)
O6 O 0.6931(4) 0.4744(3) 0.4568(2)
C3 C 0.7032(5) 0.3501(5) 0.4756(3)
C4 C 0.6046(5) 0.2063(5) 0.3817(4)
H2 H 0.6377 0.1249 0.4022
Co2 Co 0.5000 0.5000 0.5000
Co3 Co 0.0000 0.0000 0.5000
O7 O 0.1912(4) 0.0376(4) 0.4297(3)
O8 O 0.9322(4) 0.3168(4) 0.3421(3)
O9 O 0.8601(4) 0.4516(5) 0.2277(3)
C5 C 0.3492(5) 0.2067(5) 0.2461(4)
H3 H 0.2727 0.1183 0.1835
C6 C 0.5106(6) 0.3015(6) 0.2156(4)
H4 H 0.4870 0.2838 0.1352
H5 H 0.5548 0.4123 0.2446
C7 C 0.6363(5) 0.2420(5) 0.2701(4)
H6 H 0.6029 0.1417 0.2225
C8 C 0.8188(5) 0.3442(5) 0.2803(4)
C10 C 0.4081(5) 0.1390(5) 0.3490(4)
H7 H 0.3633 0.0270 0.3202
H10 H 0.1312 0.0330 0.7045
O16 O 0.5994(4) 0.7293(3) 0.4814(3)
O20 O 0.6701(4) 0.5746(4) 0.6612(2)
O25 O 0.3069(4) 0.5256(3) 0.5432(2)
Co3_2 Co 1.0000 1.0000 0.5000
O11 O 0.8799(5) 0.7254(5) 0.8078(3)
O14 O 0.9318(4) 0.7647(4) 0.4311(3)
H16 H 0.8625 0.7057 0.4574
C16 C 0.6703(5) 0.8487(5) 0.5590(4)
C17 C 0.7395(5) 0.6951(5) 0.7411(4)
C18 C 0.2968(5) 0.6499(5) 0.5244(3)
C19 C 0.3954(5) 0.7937(5) 0.6183(4)
H17 H 0.3623 0.8751 0.5978
O26 O 0.8088(4) 0.9624(4) 0.5703(3)
O27 O 0.0678(4) 0.6832(4) 0.6579(3)
O28 O 0.1399(4) 0.5484(5) 0.7723(3)
C20 C 0.6508(5) 0.7933(5) 0.7539(4)
H18 H 0.7273 0.8817 0.8165
C21 C 0.4894(6) 0.6985(6) 0.7844(4)
H19 H 0.5130 0.7162 0.8648
H20 H 0.4452 0.5877 0.7554
C22 C 0.3637(5) 0.7580(5) 0.7299(4)
H21 H 0.3971 0.8583 0.7775
C23 C 0.1812(5) 0.6558(5) 0.7197(4)
C25 C 0.5919(5) 0.8610(5) 0.6510(4)
H22 H 0.6367 0.9730 0.6798
H25 H 0.8688 0.9670 0.2955
C9 C 0.4190(6) 0.9587(5) 0.9961(4)
H11 H 0.1052 0.7743 0.9860
H13 H 0.315(2) 0.967(2) 0.929(3)
Co3_3 Co -0.0000 1.0000 0.5000
O10 O 0.1427(5) 0.9850(5) 0.6533(3)
H14 H 0.0565 0.8957 0.6312
H30 H 0.0088 0.7415 0.4336
Co3_4 Co 1.0000 0.0000 0.5000
H15 H 0.9912 0.2585 0.5664
O29 O 0.8573(5) 0.0150(5) 0.3467(3)
H29 H 0.9435 0.1043 0.3688
loop_
_geom_bond_atom_site_label_1
_geom_bond_atom_site_label_2
_geom_bond_site_symmetry_1
_geom_bond_site_symmetry_2
H28 C24 1_555 1_555
Co9 N2 1_555 1_555
N2 C28 1_555 1_555
C27 C26 1_555 1_555
H23 C27 1_555 1_555
C28 H24 1_555 1_555
C29 C26 1_555 1_555
C30 N2 1_555 1_555
H27 C30 1_555 1_555
C27 C30 1_555 1_555
C28 C29 1_555 1_555
N1 Co1 1_555 1_555
C11 C12 1_555 1_555
C12 H8 1_555 1_555
C13 N1 1_555 1_555
H9 C13 1_555 1_555
C14 C11 1_555 1_555
C15 N1 1_555 1_555
H12 C15 1_555 1_555
O12 Co1 1_555 1_555
O18 Co1 1_555 1_555
O23 Co1 1_555 1_555
C12 C15 1_555 1_555
C13 C14 1_555 1_555
O12 C2 1_555 1_555
O2 H1 1_555 1_555
O3 C1 1_555 1_555
C1 O7 1_555 1_555
O18 C2 1_555 1_555
C2 C5 1_555 1_555
O5 C3 1_555 1_555
O6 C3 1_555 1_555
C3 C4 1_555 1_555
C4 H2 1_555 1_555
Co2 O3 1_555 1_555
Co3 O2 1_555 1_555
O7 Co3 1_555 1_555
O8 C8 1_555 1_555
C5 H3 1_555 1_555
C6 C5 1_555 1_555
H4 C6 1_555 1_555
H5 C6 1_555 1_555
C7 C4 1_555 1_555
H6 C7 1_555 1_555
C8 O9 1_555 1_555
C10 C1 1_555 1_555
H7 C10 1_555 1_555
O16 Co2 1_555 1_555
O20 Co2 1_555 1_555
O25 Co2 1_555 1_555
Co9 O5 1_555 1_555
O18 Co2 1_555 1_555
O6 Co2 1_555 1_555
C4 C10 1_555 1_555
C5 C10 1_555 1_555
C6 C7 1_555 1_555
C7 C8 1_555 1_555
O20 Co9 1_555 1_555
O11 C17 1_555 1_555
O14 Co3_2 1_555 1_555
H16 O14 1_555 1_555
O16 C16 1_555 1_555
C16 O26 1_555 1_555
O20 C17 1_555 1_555
C17 C20 1_555 1_555
O23 C18 1_555 1_555
O25 C18 1_555 1_555
C18 C19 1_555 1_555
C19 H17 1_555 1_555
Co9 O11 1_555 1_555
O26 Co3_2 1_555 1_555
O27 C23 1_555 1_555
C20 H18 1_555 1_555
C21 C20 1_555 1_555
H19 C21 1_555 1_555
H20 C21 1_555 1_555
C22 C19 1_555 1_555
H21 C22 1_555 1_555
C23 O28 1_555 1_555
C25 C16 1_555 1_555
H22 C25 1_555 1_555
C19 C25 1_555 1_555
C20 C25 1_555 1_555
C21 C22 1_555 1_555
C22 C23 1_555 1_555
H13 C9 1_555 1_555
O10 Co3_3 1_555 1_555
H14 O10 1_555 1_555
O29 Co3_4 1_555 1_555
H29 O29 1_555 1_555

#END
