
###############################################################################
#
# This file contains modified crystal structure data generated from the
# MOF subset of the Cambridge Structural Database (CSD) v543 
# hosted by the Cambridge Crystallographic Data Centre (CCDC).
#
# This work is licensed under the Creative Commons
# Attribution-NonCommercial-ShareAlike 4.0 International License.
# To view a copy of this license, visit
# http://creativecommons.org/licenses/by-nc-sa/4.0/
# or send a letter to
# Creative Commons, PO Box 1866, Mountain View, CA 94042, USA.
#
# CIF created using the CSD Python API on 29 September 2022
# The structure has been converted into the P1 space group
# The structure has a 3D framework
# The original CSD entry TETWUM is in the monoclinic crystal system
# The framework has been calculated to contain at least 10.0% void space
# The void calculation uses a probe of radius 1.32A, grid spacing 0.4
# H atom positions have been added when not included in the experimental data
# Generated hydrogen atom positions removed from atoms on special positions
#
###############################################################################

data_TETWUM
_chemical_formula_moiety         '(C168 H192 Cd13 N16 O80)n'
_symmetry_cell_setting           triclinic
_symmetry_space_group_name_H-M   'P 1'
_symmetry_Int_Tables_number      1
_space_group_name_Hall           'P 1'
loop_
_symmetry_equiv_pos_site_id
_symmetry_equiv_pos_as_xyz
1 x,y,z
_cell_length_a                   30.306(3)
_cell_length_b                   14.6161(14)
_cell_length_c                   12.0026(11)
_cell_angle_alpha                90
_cell_angle_beta                 107.468(2)
_cell_angle_gamma                90
_cell_volume                     5071.44
loop_
_atom_site_label
_atom_site_type_symbol
_atom_site_fract_x
_atom_site_fract_y
_atom_site_fract_z
Cd6 Cd 0.284118(15) 0.45860(3) 0.06867(3)
Cd11 Cd 0.323390(15) 0.16273(3) 0.17245(3)
O17 O 0.24832(14) 0.1304(3) 0.0996(3)
O20 O 0.17347(14) 0.1116(3) 0.0429(3)
O24 O 0.17964(15) 0.3046(3) 0.0093(3)
Cd1 Cd 0.215882(15) 0.04140(3) 0.93133(3)
C10 C 0.1332(2) 0.0079(4) 0.6918(5)
H7 H 0.1509 0.0477 0.6625
Cd8 Cd 0.176610(15) 0.33727(3) 0.82755(3)
C22 C 0.2823(2) 0.1905(4) 0.6338(4)
H19 H 0.2854 0.2383 0.5794
C23 C 0.2570(2) 0.2348(3) 0.7126(5)
H20 H 0.2320 0.2736 0.6653
C24 C 0.29653(19) 0.2961(4) 0.7879(4)
H21 H 0.3021 0.3409 0.7330
C25 C 0.33956(19) 0.2337(4) 0.8190(5)
H22 H 0.3668 0.2717 0.8252
C26 C 0.3321(2) 0.1696(4) 0.7119(5)
H23 H 0.3545 0.1825 0.6707
H24 H 0.3351 0.1060 0.7360
C27 C 0.2572(2) 0.1118(4) 0.5586(5)
C28 C 0.2374(2) 0.1661(4) 0.7806(5)
C29 C 0.2914(2) 0.3527(4) 0.8888(5)
C30 C 0.3477(2) 0.1803(4) 0.9329(5)
O11 O 0.28042(16) 0.0568(3) 0.5159(4)
O12 O 0.21476(15) 0.1037(3) 0.5351(3)
O13 O 0.25468(14) 0.0874(3) 0.8022(3)
O15 O 0.20295(14) 0.1893(2) 0.8135(3)
O16 O 0.25168(14) 0.3696(3) 0.9004(3)
O19 O 0.32653(14) 0.3884(3) 0.9571(3)
O22 O 0.32036(15) 0.1954(3) 0.9907(3)
O25 O 0.38096(17) 0.1266(3) 0.9615(4)
O26 O 0.13602(16) 0.4695(3) 0.8679(3)
N4 N 0.14804(17) 0.0145(3) 0.3039(4)
N6 N 0.1056(2) 0.2891(4) 0.7204(5)
O27 O 0.18210(18) 0.4332(3) 0.6715(4)
Cd2 Cd 0.176610(15) 0.66273(3) 0.32755(3)
C1 C 0.2823(2) 0.8095(4) 0.1338(4)
H1 H 0.2854 0.7617 0.0794
C2 C 0.2570(2) 0.7652(3) 0.2126(5)
H2 H 0.2320 0.7264 0.1653
C3 C 0.29653(19) 0.7039(4) 0.2879(4)
H3 H 0.3021 0.6591 0.2330
C4 C 0.33956(19) 0.7663(4) 0.3190(5)
H4 H 0.3668 0.7283 0.3252
C5 C 0.3321(2) 0.8304(4) 0.2119(5)
H5 H 0.3545 0.8175 0.1707
H6 H 0.3351 0.8940 0.2360
C6 C 0.2572(2) 0.8882(4) 0.0586(5)
C7 C 0.2374(2) 0.8339(4) 0.2806(5)
C8 C 0.2914(2) 0.6473(4) 0.3888(5)
C9 C 0.3477(2) 0.8197(4) 0.4329(5)
O1 O 0.28042(16) 0.9432(3) 0.0159(4)
O2 O 0.21476(15) 0.8963(3) 0.0351(3)
O3 O 0.25468(14) 0.9126(3) 0.3022(3)
O4 O 0.20295(14) 0.8107(2) 0.3135(3)
O5 O 0.25168(14) 0.6304(3) 0.4004(3)
O6 O 0.32653(14) 0.6116(3) 0.4571(3)
O7 O 0.32036(15) 0.8046(3) 0.4907(3)
O8 O 0.38096(17) 0.8734(3) 0.4615(4)
O9 O 0.13602(16) 0.5305(3) 0.3679(3)
O10 O 0.18210(18) 0.5668(3) 0.1715(4)
Cd4 Cd 0.215882(15) 0.95860(3) 0.43133(3)
Cd5 Cd 0.284118(15) 0.54140(3) 0.56867(3)
Cd9 Cd 0.323390(15) 0.83727(3) 0.67245(3)
C38 C 0.0889(3) 0.7889(5) 0.2465(7)
H33 H 0.1068 0.8221 0.3100
C39 C 0.0459(3) 0.8240(6) 0.1844(8)
H34 H 0.0354 0.8790 0.2062
C40 C 0.0188(3) 0.7750(7) 0.0889(9)
C41 C 0.0349(4) 0.6948(8) 0.0643(9)
H35 H 0.0170 0.6589 0.0034
C42 C 0.0789(3) 0.6648(6) 0.1309(8)
H36 H 0.0898 0.6096 0.1109
O23 O 0.17964(15) 0.6954(3) 0.5093(3)
N5 N 0.1056(2) 0.7109(4) 0.2204(5)
C11 C 0.0925(2) 0.9744(4) 0.6169(5)
H8 H 0.0835 0.9927 0.5391
C12 C 0.0653(2) 0.9152(4) 0.6541(6)
C13 C 0.0811(2) 0.8917(5) 0.7723(6)
H9 H 0.0640 0.8520 0.8037
C14 C 0.1223(2) 0.9277(4) 0.8425(6)
H10 H 0.1325 0.9105 0.9206
C15 C 0.0273(3) 0.8127(8) 0.4873(8)
H11 H 0.0470 0.7622 0.5248
H12 H 0.0426 0.8447 0.4384
C16 C 0.0214(2) 0.8751(5) 0.5765(6)
H13 H 0.0060 0.8425 0.6247
H14 H 0.0012 0.9247 0.5382
N1 N 0.14804(17) 0.9855(3) 0.8039(4)
O18 O 0.24832(14) 0.8696(3) 0.5996(3)
O21 O 0.17347(14) 0.8884(3) 0.5429(3)
Cd7 Cd 0.784118(15) 0.04140(3) 0.56867(3)
C31 C 0.8668(2) 0.0079(4) 0.8082(5)
H25 H 0.8491 0.0477 0.8375
C36 C 0.9727(3) 0.8127(8) 0.0127(8)
H30 H 0.9574 0.8447 0.0616
C17 C 0.9111(3) 0.7889(5) 0.2535(7)
H15 H 0.8932 0.8221 0.1900
C18 C 0.9541(3) 0.8240(6) 0.3156(8)
H16 H 0.9646 0.8790 0.2938
C19 C 0.9812(3) 0.7750(7) 0.4111(9)
C20 C 0.9651(4) 0.6948(8) 0.4357(9)
H17 H 0.9830 0.6589 0.4966
C21 C 0.9211(3) 0.6648(6) 0.3691(8)
H18 H 0.9102 0.6096 0.3891
N2 N 0.8944(2) 0.7109(4) 0.2796(5)
Cd10 Cd 0.823390(15) 0.66273(3) 0.17245(3)
C32 C 0.9075(2) 0.9744(4) 0.8831(5)
H26 H 0.9165 0.9927 0.9609
C33 C 0.9347(2) 0.9152(4) 0.8459(6)
C34 C 0.9189(2) 0.8917(5) 0.7277(6)
H27 H 0.9360 0.8520 0.6963
C35 C 0.8777(2) 0.9277(4) 0.6575(6)
H28 H 0.8675 0.9105 0.5794
H29 H 0.9530 0.7622 0.9752
C37 C 0.9786(2) 0.8751(5) 0.9235(6)
H31 H 0.9940 0.8425 0.8753
H32 H 0.9988 0.9247 0.9618
N3 N 0.85196(17) 0.9855(3) 0.6961(4)
N4_2 N 0.85196(17) 0.0145(3) 0.1961(4)
Cd6_2 Cd 0.715882(15) 0.45860(3) 0.43133(3)
Cd8_2 Cd 0.823390(15) 0.33727(3) 0.67245(3)
Cd11_2 Cd 0.676610(15) 0.16273(3) 0.32755(3)
C22_2 C 0.7177(2) 0.1905(4) 0.8662(4)
H19_2 H 0.7146 0.2383 0.9206
C23_2 C 0.7430(2) 0.2348(3) 0.7874(5)
H20_2 H 0.7680 0.2736 0.8347
C24_2 C 0.70347(19) 0.2961(4) 0.7121(4)
H21_2 H 0.6979 0.3409 0.7670
C25_2 C 0.66044(19) 0.2337(4) 0.6810(5)
H22_2 H 0.6332 0.2717 0.6748
C26_2 C 0.6679(2) 0.1696(4) 0.7881(5)
H23_2 H 0.6455 0.1825 0.8293
H24_2 H 0.6649 0.1060 0.7640
C27_2 C 0.7428(2) 0.1118(4) 0.9414(5)
C28_2 C 0.7626(2) 0.1661(4) 0.7194(5)
C29_2 C 0.7086(2) 0.3527(4) 0.6112(5)
C30_2 C 0.6523(2) 0.1803(4) 0.5671(5)
O11_2 O 0.71958(16) 0.0568(3) 0.9841(4)
O12_2 O 0.78524(15) 0.1037(3) 0.9649(3)
O13_2 O 0.74532(14) 0.0874(3) 0.6978(3)
O15_2 O 0.79705(14) 0.1893(2) 0.6865(3)
O16_2 O 0.74832(14) 0.3696(3) 0.5996(3)
O17_2 O 0.75168(14) 0.1304(3) 0.4004(3)
O19_2 O 0.67347(14) 0.3884(3) 0.5429(3)
O20_2 O 0.82653(14) 0.1116(3) 0.4571(3)
O22_2 O 0.67964(15) 0.1954(3) 0.5093(3)
O24_2 O 0.82036(15) 0.3046(3) 0.4907(3)
O25_2 O 0.61904(17) 0.1266(3) 0.5385(4)
O26_2 O 0.86398(16) 0.4695(3) 0.6321(3)
N6_2 N 0.8944(2) 0.2891(4) 0.7796(5)
O27_2 O 0.81790(18) 0.4332(3) 0.8285(4)
Cd3 Cd 0.784118(15) 0.95860(3) 0.06867(3)
O14 O 0.74532(14) 0.9126(3) 0.1978(3)
C1_2 C 0.7177(2) 0.8095(4) 0.3662(4)
H1_2 H 0.7146 0.7617 0.4206
C2_2 C 0.7430(2) 0.7652(3) 0.2874(5)
H2_2 H 0.7680 0.7264 0.3347
C3_2 C 0.70347(19) 0.7039(4) 0.2121(4)
H3_2 H 0.6979 0.6591 0.2670
C4_2 C 0.66044(19) 0.7663(4) 0.1810(5)
H4_2 H 0.6332 0.7283 0.1748
C5_2 C 0.6679(2) 0.8304(4) 0.2881(5)
H5_2 H 0.6455 0.8175 0.3293
H6_2 H 0.6649 0.8940 0.2640
C6_2 C 0.7428(2) 0.8882(4) 0.4414(5)
C7_2 C 0.7626(2) 0.8339(4) 0.2194(5)
C8_2 C 0.7086(2) 0.6473(4) 0.1112(5)
C9_2 C 0.6523(2) 0.8197(4) 0.0671(5)
O1_2 O 0.71958(16) 0.9432(3) 0.4841(4)
O2_2 O 0.78524(15) 0.8963(3) 0.4649(3)
O4_2 O 0.79705(14) 0.8107(2) 0.1865(3)
O5_2 O 0.74832(14) 0.6304(3) 0.0996(3)
O6_2 O 0.67347(14) 0.6116(3) 0.0429(3)
O7_2 O 0.67964(15) 0.8046(3) 0.0093(3)
O8_2 O 0.61904(17) 0.8734(3) 0.0385(4)
O9_2 O 0.86398(16) 0.5305(3) 0.1321(3)
O10_2 O 0.81790(18) 0.5668(3) 0.3285(4)
O18_2 O 0.75168(14) 0.8696(3) 0.9004(3)
O21_2 O 0.82653(14) 0.8884(3) 0.9571(3)
Cd5_2 Cd 0.715882(15) 0.54140(3) 0.93133(3)
Cd9_2 Cd 0.676610(15) 0.83727(3) 0.82755(3)
O23_2 O 0.82036(15) 0.6954(3) 0.9907(3)
C1_3 C 0.7823(2) 0.3095(4) 0.1338(4)
H1_3 H 0.7854 0.2617 0.0794
C2_3 C 0.7570(2) 0.2652(3) 0.2126(5)
H2_3 H 0.7320 0.2264 0.1653
C3_3 C 0.79653(19) 0.2039(4) 0.2879(4)
H3_3 H 0.8021 0.1591 0.2330
C4_3 C 0.83956(19) 0.2663(4) 0.3190(5)
H4_3 H 0.8668 0.2283 0.3252
C5_3 C 0.8321(2) 0.3304(4) 0.2119(5)
H5_3 H 0.8545 0.3175 0.1707
H6_3 H 0.8351 0.3940 0.2360
C6_3 C 0.7572(2) 0.3882(4) 0.0586(5)
C7_3 C 0.7374(2) 0.3339(4) 0.2806(5)
C8_3 C 0.7914(2) 0.1473(4) 0.3888(5)
C9_3 C 0.8477(2) 0.3197(4) 0.4329(5)
O1_3 O 0.78042(16) 0.4432(3) 0.0159(4)
O2_3 O 0.71476(15) 0.3963(3) 0.0351(3)
O3_2 O 0.75468(14) 0.4126(3) 0.3022(3)
O4_3 O 0.70295(14) 0.3107(2) 0.3135(3)
O8_3 O 0.88096(17) 0.3734(3) 0.4615(4)
O9_3 O 0.63602(16) 0.0305(3) 0.3679(3)
O10_3 O 0.68210(18) 0.0668(3) 0.1715(4)
C36_2 C 0.4727(3) 0.3127(8) 0.0127(8)
H30_2 H 0.4574 0.3447 0.0616
C38_2 C 0.5889(3) 0.2889(5) 0.2465(7)
H33_2 H 0.6068 0.3221 0.3100
C39_2 C 0.5459(3) 0.3240(6) 0.1844(8)
H34_2 H 0.5354 0.3790 0.2062
C40_2 C 0.5188(3) 0.2750(7) 0.0889(9)
C41_2 C 0.5349(4) 0.1948(8) 0.0643(9)
H35_2 H 0.5170 0.1589 0.0034
C42_2 C 0.5789(3) 0.1648(6) 0.1309(8)
H36_2 H 0.5898 0.1096 0.1109
N5_2 N 0.6056(2) 0.2109(4) 0.2204(5)
H37 H 0.602351 0.0375481 0.328419
C10_2 C 0.6332(2) 0.5079(4) 0.6918(5)
H7_2 H 0.6509 0.5477 0.6625
C11_2 C 0.5925(2) 0.4744(4) 0.6169(5)
H8_2 H 0.5835 0.4927 0.5391
C12_2 C 0.5653(2) 0.4152(4) 0.6541(6)
C13_2 C 0.5811(2) 0.3917(5) 0.7723(6)
H9_2 H 0.5640 0.3520 0.8037
C14_2 C 0.6223(2) 0.4277(4) 0.8425(6)
H10_2 H 0.6325 0.4105 0.9206
C15_2 C 0.5273(3) 0.3127(8) 0.4873(8)
H11_2 H 0.5470 0.2622 0.5248
H12_2 H 0.5426 0.3447 0.4384
C16_2 C 0.5214(2) 0.3751(5) 0.5765(6)
H13_2 H 0.5060 0.3425 0.6247
H14_2 H 0.5012 0.4247 0.5382
C17_2 C 0.4111(3) 0.2889(5) 0.2535(7)
H15_2 H 0.3932 0.3221 0.1900
C18_2 C 0.4541(3) 0.3240(6) 0.3156(8)
H16_2 H 0.4646 0.3790 0.2938
C19_2 C 0.4812(3) 0.2750(7) 0.4111(9)
C20_2 C 0.4651(4) 0.1948(8) 0.4357(9)
H17_2 H 0.4830 0.1589 0.4966
C21_2 C 0.4211(3) 0.1648(6) 0.3691(8)
H18_2 H 0.4102 0.1096 0.3891
N1_2 N 0.64804(17) 0.4855(3) 0.8039(4)
N2_2 N 0.3944(2) 0.2109(4) 0.2796(5)
C22_3 C 0.7823(2) 0.6905(4) 0.6338(4)
H19_3 H 0.7854 0.7383 0.5794
C23_3 C 0.7570(2) 0.7348(3) 0.7126(5)
H20_3 H 0.7320 0.7736 0.6653
C24_3 C 0.79653(19) 0.7961(4) 0.7879(4)
H21_3 H 0.8021 0.8409 0.7330
C25_3 C 0.83956(19) 0.7337(4) 0.8190(5)
H22_3 H 0.8668 0.7717 0.8252
C26_3 C 0.8321(2) 0.6696(4) 0.7119(5)
H23_3 H 0.8545 0.6825 0.6707
H24_3 H 0.8351 0.6060 0.7360
C27_3 C 0.7572(2) 0.6118(4) 0.5586(5)
C28_3 C 0.7374(2) 0.6661(4) 0.7806(5)
C29_3 C 0.7914(2) 0.8527(4) 0.8888(5)
C30_3 C 0.8477(2) 0.6803(4) 0.9329(5)
C31_2 C 0.3668(2) 0.5079(4) 0.8082(5)
H25_2 H 0.3491 0.5477 0.8375
C32_2 C 0.4075(2) 0.4744(4) 0.8831(5)
H26_2 H 0.4165 0.4927 0.9609
C33_2 C 0.4347(2) 0.4152(4) 0.8459(6)
C34_2 C 0.4189(2) 0.3917(5) 0.7277(6)
H27_2 H 0.4360 0.3520 0.6963
C35_2 C 0.3777(2) 0.4277(4) 0.6575(6)
H28_2 H 0.3675 0.4105 0.5794
H29_2 H 0.4530 0.2622 0.9752
C37_2 C 0.4786(2) 0.3751(5) 0.9235(6)
H31_2 H 0.4940 0.3425 0.8753
H32_2 H 0.4988 0.4247 0.9618
O11_3 O 0.78042(16) 0.5568(3) 0.5159(4)
O12_3 O 0.71476(15) 0.6037(3) 0.5351(3)
O13_3 O 0.75468(14) 0.5874(3) 0.8022(3)
O15_3 O 0.70295(14) 0.6893(2) 0.8135(3)
O25_3 O 0.88096(17) 0.6266(3) 0.9615(4)
O26_3 O 0.63602(16) 0.9695(3) 0.8679(3)
N3_2 N 0.35196(17) 0.4855(3) 0.6961(4)
N4_3 N 0.64804(17) 0.5145(3) 0.3039(4)
N6_3 N 0.6056(2) 0.7891(4) 0.7204(5)
O27_3 O 0.68210(18) 0.9332(3) 0.6715(4)
H41 H 0.641591 0.975 0.953484
O14_2 O 0.24532(14) 0.4126(3) 0.1978(3)
N4_4 N 0.35196(17) 0.5145(3) 0.1961(4)
C1_4 C 0.2177(2) 0.3095(4) 0.3662(4)
H1_4 H 0.2146 0.2617 0.4206
C2_4 C 0.2430(2) 0.2652(3) 0.2874(5)
H2_4 H 0.2680 0.2264 0.3347
C3_4 C 0.20347(19) 0.2039(4) 0.2121(4)
H3_4 H 0.1979 0.1591 0.2670
C4_4 C 0.16044(19) 0.2663(4) 0.1810(5)
H4_4 H 0.1332 0.2283 0.1748
C5_4 C 0.1679(2) 0.3304(4) 0.2881(5)
H5_4 H 0.1455 0.3175 0.3293
H6_4 H 0.1649 0.3940 0.2640
C6_4 C 0.2428(2) 0.3882(4) 0.4414(5)
C7_4 C 0.2626(2) 0.3339(4) 0.2194(5)
C8_4 C 0.2086(2) 0.1473(4) 0.1112(5)
C9_4 C 0.1523(2) 0.3197(4) 0.0671(5)
O1_4 O 0.21958(16) 0.4432(3) 0.4841(4)
O2_4 O 0.28524(15) 0.3963(3) 0.4649(3)
O4_4 O 0.29705(14) 0.3107(2) 0.1865(3)
O8_4 O 0.11904(17) 0.3734(3) 0.0385(4)
O9_4 O 0.36398(16) 0.0305(3) 0.1321(3)
O10_4 O 0.31790(18) 0.0668(3) 0.3285(4)
C22_4 C 0.2177(2) 0.6905(4) 0.8662(4)
H19_4 H 0.2146 0.7383 0.9206
C23_4 C 0.2430(2) 0.7348(3) 0.7874(5)
H20_4 H 0.2680 0.7736 0.8347
C24_4 C 0.20347(19) 0.7961(4) 0.7121(4)
H21_4 H 0.1979 0.8409 0.7670
C25_4 C 0.16044(19) 0.7337(4) 0.6810(5)
H22_4 H 0.1332 0.7717 0.6748
C26_4 C 0.1679(2) 0.6696(4) 0.7881(5)
H23_4 H 0.1455 0.6825 0.8293
H24_4 H 0.1649 0.6060 0.7640
C27_4 C 0.2428(2) 0.6118(4) 0.9414(5)
C28_4 C 0.2626(2) 0.6661(4) 0.7194(5)
C29_4 C 0.2086(2) 0.8527(4) 0.6112(5)
C30_4 C 0.1523(2) 0.6803(4) 0.5671(5)
O11_4 O 0.21958(16) 0.5568(3) 0.9841(4)
O12_4 O 0.28524(15) 0.6037(3) 0.9649(3)
O13_4 O 0.24532(14) 0.5874(3) 0.6978(3)
O15_4 O 0.29705(14) 0.6893(2) 0.6865(3)
O25_4 O 0.11904(17) 0.6266(3) 0.5385(4)
O26_4 O 0.36398(16) 0.9695(3) 0.6321(3)
N6_4 N 0.3944(2) 0.7891(4) 0.7796(5)
O27_4 O 0.31790(18) 0.9332(3) 0.8285(4)
H37_2 H 0.397649 0.0375481 0.171581
H41_2 H 0.358409 0.975 0.546516
C17_3 C 0.0889(3) 0.2111(5) 0.7465(7)
H15_3 H 0.1068 0.1779 0.8100
C18_3 C 0.0459(3) 0.1760(6) 0.6844(8)
H16_3 H 0.0354 0.1210 0.7062
C19_3 C 0.0188(3) 0.2250(7) 0.5889(9)
C20_3 C 0.0349(4) 0.3052(8) 0.5643(9)
H17_3 H 0.0170 0.3411 0.5034
C21_3 C 0.0789(3) 0.3352(6) 0.6309(8)
H18_3 H 0.0898 0.3904 0.6109
C32_3 C 0.0925(2) 0.0256(4) 0.1169(5)
H26_3 H 0.0835 0.0073 0.0391
C33_3 C 0.0653(2) 0.0848(4) 0.1541(6)
C34_3 C 0.0811(2) 0.1083(5) 0.2723(6)
H27_3 H 0.0640 0.1480 0.3037
C35_3 C 0.1223(2) 0.0723(4) 0.3425(6)
H28_3 H 0.1325 0.0895 0.4206
H29_3 H 0.0470 0.2378 0.0248
C37_3 C 0.0214(2) 0.1249(5) 0.0765(6)
H31_3 H 0.0060 0.1575 0.1247
H32_3 H 0.0012 0.0753 0.0382
C36_3 C 0.0273(3) 0.1873(8) 0.9873(8)
H30_3 H 0.0426 0.1553 0.9384
C31_3 C 0.1332(2) 0.9921(4) 0.1918(5)
H25_3 H 0.1509 0.9523 0.1625
C11_3 C 0.9075(2) 0.0256(4) 0.3831(5)
H8_3 H 0.9165 0.0073 0.4609
C12_3 C 0.9347(2) 0.0848(4) 0.3459(6)
C13_3 C 0.9189(2) 0.1083(5) 0.2277(6)
H9_3 H 0.9360 0.1480 0.1963
C14_3 C 0.8777(2) 0.0723(4) 0.1575(6)
H10_3 H 0.8675 0.0895 0.0794
C15_3 C 0.9727(3) 0.1873(8) 0.5127(8)
H11_3 H 0.9530 0.2378 0.4752
H12_3 H 0.9574 0.1553 0.5616
C16_3 C 0.9786(2) 0.1249(5) 0.4235(6)
H13_3 H 0.9940 0.1575 0.3753
H14_3 H 0.9988 0.0753 0.4618
C38_3 C 0.9111(3) 0.2111(5) 0.7535(7)
H33_3 H 0.8932 0.1779 0.6900
C39_3 C 0.9541(3) 0.1760(6) 0.8156(8)
H34_3 H 0.9646 0.1210 0.7938
C40_3 C 0.9812(3) 0.2250(7) 0.9111(9)
C41_3 C 0.9651(4) 0.3052(8) 0.9357(9)
H35_3 H 0.9830 0.3411 0.9966
C42_3 C 0.9211(3) 0.3352(6) 0.8691(8)
H36_3 H 0.9102 0.3904 0.8891
C10_3 C 0.8668(2) 0.9921(4) 0.3082(5)
H7_3 H 0.8491 0.9523 0.3375
C10_4 C 0.3668(2) 0.4921(4) 0.3082(5)
H7_4 H 0.3491 0.4523 0.3375
C11_4 C 0.4075(2) 0.5256(4) 0.3831(5)
H8_4 H 0.4165 0.5073 0.4609
C12_4 C 0.4347(2) 0.5848(4) 0.3459(6)
C13_4 C 0.4189(2) 0.6083(5) 0.2277(6)
H9_4 H 0.4360 0.6480 0.1963
C14_4 C 0.3777(2) 0.5723(4) 0.1575(6)
H10_4 H 0.3675 0.5895 0.0794
C15_4 C 0.4727(3) 0.6873(8) 0.5127(8)
H11_4 H 0.4530 0.7378 0.4752
H12_4 H 0.4574 0.6553 0.5616
C16_4 C 0.4786(2) 0.6249(5) 0.4235(6)
H13_4 H 0.4940 0.6575 0.3753
H14_4 H 0.4988 0.5753 0.4618
C17_4 C 0.5889(3) 0.7111(5) 0.7465(7)
H15_4 H 0.6068 0.6779 0.8100
C18_4 C 0.5459(3) 0.6760(6) 0.6844(8)
H16_4 H 0.5354 0.6210 0.7062
C19_4 C 0.5188(3) 0.7250(7) 0.5889(9)
C20_4 C 0.5349(4) 0.8052(8) 0.5643(9)
H17_4 H 0.5170 0.8411 0.5034
C21_4 C 0.5789(3) 0.8352(6) 0.6309(8)
H18_4 H 0.5898 0.8904 0.6109
C31_4 C 0.6332(2) 0.4921(4) 0.1918(5)
H25_4 H 0.6509 0.4523 0.1625
C32_4 C 0.5925(2) 0.5256(4) 0.1169(5)
H26_4 H 0.5835 0.5073 0.0391
C33_4 C 0.5653(2) 0.5848(4) 0.1541(6)
C34_4 C 0.5811(2) 0.6083(5) 0.2723(6)
H27_4 H 0.5640 0.6480 0.3037
C35_4 C 0.6223(2) 0.5723(4) 0.3425(6)
H28_4 H 0.6325 0.5895 0.4206
H29_4 H 0.5470 0.7378 0.0248
C37_4 C 0.5214(2) 0.6249(5) 0.0765(6)
H31_4 H 0.5060 0.6575 0.1247
H32_4 H 0.5012 0.5753 0.0382
H41_3 H 0.358409 0.0249999 0.0465162
C36_4 C 0.5273(3) 0.6873(8) 0.9873(8)
H30_4 H 0.5426 0.6553 0.9384
C38_4 C 0.4111(3) 0.7111(5) 0.7535(7)
H33_4 H 0.3932 0.6779 0.6900
C39_4 C 0.4541(3) 0.6760(6) 0.8156(8)
H34_4 H 0.4646 0.6210 0.7938
C40_4 C 0.4812(3) 0.7250(7) 0.9111(9)
C41_4 C 0.4651(4) 0.8052(8) 0.9357(9)
H35_4 H 0.4830 0.8411 0.9966
C42_4 C 0.4211(3) 0.8352(6) 0.8691(8)
H36_4 H 0.4102 0.8904 0.8891
H37_3 H 0.397649 0.962452 0.671581
H37_4 H 0.602351 0.962452 0.828419
H41_4 H 0.641591 0.0249999 0.453484
H42 H 0.647441 0.025379 0.838377
H38 H 0.647441 0.974621 0.338377
H42_2 H 0.352559 0.025379 0.661623
H38_2 H 0.352559 0.974621 0.161623
loop_
_geom_bond_atom_site_label_1
_geom_bond_atom_site_label_2
_geom_bond_site_symmetry_1
_geom_bond_site_symmetry_2
Cd11 O17 1_555 1_555
C10 H7 1_555 1_555
Cd8 O15 1_555 1_555
C22 H19 1_555 1_555
C23 C22 1_555 1_555
H20 C23 1_555 1_555
C24 C23 1_555 1_555
H21 C24 1_555 1_555
C25 C24 1_555 1_555
H22 C25 1_555 1_555
C26 C22 1_555 1_555
H23 C26 1_555 1_555
H24 C26 1_555 1_555
C27 C22 1_555 1_555
C28 C23 1_555 1_555
C29 C24 1_555 1_555
C30 C25 1_555 1_555
O11 C27 1_555 1_555
O13 Cd1 1_555 1_555
O15 C28 1_555 1_555
O16 Cd8 1_555 1_555
O25 C30 1_555 1_555
O26 Cd8 1_555 1_555
N6 Cd8 1_555 1_555
O27 Cd8 1_555 1_555
C25 C26 1_555 1_555
C27 O12 1_555 1_555
C28 O13 1_555 1_555
C29 O16 1_555 1_555
C29 O19 1_555 1_555
C30 O22 1_555 1_555
Cd2 O4 1_555 1_555
C1 H1 1_555 1_555
C2 C1 1_555 1_555
H2 C2 1_555 1_555
C3 C2 1_555 1_555
H3 C3 1_555 1_555
C4 C3 1_555 1_555
H4 C4 1_555 1_555
C5 C1 1_555 1_555
H5 C5 1_555 1_555
H6 C5 1_555 1_555
C6 C1 1_555 1_555
C7 C2 1_555 1_555
C8 C3 1_555 1_555
C9 C4 1_555 1_555
O1 C6 1_555 1_555
O3 C7 1_555 1_555
O4 C7 1_555 1_555
O5 Cd2 1_555 1_555
O6 C8 1_555 1_555
O7 C9 1_555 1_555
O8 C9 1_555 1_555
O9 Cd2 1_555 1_555
O10 Cd2 1_555 1_555
Cd4 O3 1_555 1_555
Cd5 O5 1_555 1_555
Cd9 O7 1_555 1_555
C38 H33 1_555 1_555
C39 C38 1_555 1_555
H34 C39 1_555 1_555
C41 C40 1_555 1_555
H35 C41 1_555 1_555
C42 C41 1_555 1_555
H36 C42 1_555 1_555
O23 Cd2 1_555 1_555
N5 Cd2 1_555 1_555
C4 C5 1_555 1_555
C6 O2 1_555 1_555
C8 O5 1_555 1_555
O6 Cd5 1_555 1_555
C38 N5 1_555 1_555
C39 C40 1_555 1_555
C42 N5 1_555 1_555
H8 C11 1_555 1_555
C12 C11 1_555 1_555
C13 C12 1_555 1_555
H9 C13 1_555 1_555
C14 C13 1_555 1_555
H10 C14 1_555 1_555
C15 H11 1_555 1_555
H12 C15 1_555 1_555
C16 C12 1_555 1_555
H13 C16 1_555 1_555
H14 C16 1_555 1_555
O18 Cd4 1_555 1_555
O21 Cd4 1_555 1_555
C14 N1 1_555 1_555
C15 C16 1_555 1_555
C31 H25 1_555 1_555
H30 C36 1_555 1_555
C17 H15 1_555 1_555
C18 C17 1_555 1_555
H16 C18 1_555 1_555
C20 C19 1_555 1_555
H17 C20 1_555 1_555
C21 C20 1_555 1_555
H18 C21 1_555 1_555
N2 C17 1_555 1_555
Cd10 N2 1_555 1_555
H26 C32 1_555 1_555
C33 C32 1_555 1_555
C34 C33 1_555 1_555
H27 C34 1_555 1_555
C35 C34 1_555 1_555
H28 C35 1_555 1_555
C37 C33 1_555 1_555
H31 C37 1_555 1_555
H32 C37 1_555 1_555
C18 C19 1_555 1_555
C21 N2 1_555 1_555
C35 N3 1_555 1_555
Cd6_2 O16_2 1_555 1_555
Cd8_2 O15_2 1_555 1_555
Cd11_2 O17_2 1_555 1_555
C22_2 H19_2 1_555 1_555
C23_2 C22_2 1_555 1_555
H20_2 C23_2 1_555 1_555
C24_2 C23_2 1_555 1_555
H21_2 C24_2 1_555 1_555
C25_2 C24_2 1_555 1_555
H22_2 C25_2 1_555 1_555
C26_2 C22_2 1_555 1_555
H23_2 C26_2 1_555 1_555
H24_2 C26_2 1_555 1_555
C27_2 C22_2 1_555 1_555
C28_2 C23_2 1_555 1_555
C29_2 C24_2 1_555 1_555
C30_2 C25_2 1_555 1_555
O11_2 C27_2 1_555 1_555
O13_2 Cd7 1_555 1_555
O15_2 C28_2 1_555 1_555
O16_2 Cd8_2 1_555 1_555
O17_2 Cd7 1_555 1_555
O19_2 Cd6_2 1_555 1_555
O20_2 Cd7 1_555 1_555
O22_2 Cd11_2 1_555 1_555
O24_2 Cd8_2 1_555 1_555
O25_2 C30_2 1_555 1_555
O26_2 Cd8_2 1_555 1_555
N6_2 Cd8_2 1_555 1_555
O27_2 Cd8_2 1_555 1_555
C25_2 C26_2 1_555 1_555
C27_2 O12_2 1_555 1_555
C28_2 O13_2 1_555 1_555
C29_2 O16_2 1_555 1_555
C29_2 O19_2 1_555 1_555
C30_2 O22_2 1_555 1_555
O14 Cd3 1_555 1_555
Cd10 O4_2 1_555 1_555
C1_2 H1_2 1_555 1_555
C2_2 C1_2 1_555 1_555
H2_2 C2_2 1_555 1_555
C3_2 C2_2 1_555 1_555
H3_2 C3_2 1_555 1_555
C4_2 C3_2 1_555 1_555
H4_2 C4_2 1_555 1_555
C5_2 C1_2 1_555 1_555
H5_2 C5_2 1_555 1_555
H6_2 C5_2 1_555 1_555
C6_2 C1_2 1_555 1_555
C7_2 C2_2 1_555 1_555
C8_2 C3_2 1_555 1_555
C9_2 C4_2 1_555 1_555
O1_2 C6_2 1_555 1_555
O14 C7_2 1_555 1_555
O4_2 C7_2 1_555 1_555
O5_2 Cd10 1_555 1_555
O6_2 C8_2 1_555 1_555
O7_2 C9_2 1_555 1_555
O8_2 C9_2 1_555 1_555
O9_2 Cd10 1_555 1_555
O10_2 Cd10 1_555 1_555
C4_2 C5_2 1_555 1_555
C6_2 O2_2 1_555 1_555
C8_2 O5_2 1_555 1_555
Cd11_2 O4_3 1_555 1_555
C1_3 H1_3 1_555 1_555
C2_3 C1_3 1_555 1_555
H2_3 C2_3 1_555 1_555
C3_3 C2_3 1_555 1_555
H3_3 C3_3 1_555 1_555
C4_3 C3_3 1_555 1_555
H4_3 C4_3 1_555 1_555
C5_3 C1_3 1_555 1_555
H5_3 C5_3 1_555 1_555
H6_3 C5_3 1_555 1_555
C6_3 C1_3 1_555 1_555
C7_3 C2_3 1_555 1_555
C8_3 C3_3 1_555 1_555
C9_3 C4_3 1_555 1_555
O1_3 C6_3 1_555 1_555
O3_2 C7_3 1_555 1_555
O4_3 C7_3 1_555 1_555
O20_2 C8_3 1_555 1_555
O24_2 C9_3 1_555 1_555
O8_3 C9_3 1_555 1_555
O9_3 Cd11_2 1_555 1_555
O10_3 Cd11_2 1_555 1_555
Cd6_2 O3_2 1_555 1_555
H30_2 C36_2 1_555 1_555
C38_2 H33_2 1_555 1_555
C39_2 C38_2 1_555 1_555
H34_2 C39_2 1_555 1_555
C40_2 C36_2 1_555 1_555
C41_2 C40_2 1_555 1_555
H35_2 C41_2 1_555 1_555
C42_2 C41_2 1_555 1_555
H36_2 C42_2 1_555 1_555
N5_2 Cd11_2 1_555 1_555
C4_3 C5_3 1_555 1_555
C6_3 O2_3 1_555 1_555
C8_3 O17_2 1_555 1_555
C38_2 N5_2 1_555 1_555
C39_2 C40_2 1_555 1_555
C42_2 N5_2 1_555 1_555
O9_3 H37 1_555 1_555
C10_2 H7_2 1_555 1_555
C11_2 C10_2 1_555 1_555
H8_2 C11_2 1_555 1_555
C12_2 C11_2 1_555 1_555
C13_2 C12_2 1_555 1_555
H9_2 C13_2 1_555 1_555
C14_2 C13_2 1_555 1_555
H10_2 C14_2 1_555 1_555
C15_2 H11_2 1_555 1_555
H12_2 C15_2 1_555 1_555
C16_2 C12_2 1_555 1_555
H13_2 C16_2 1_555 1_555
H14_2 C16_2 1_555 1_555
C17_2 H15_2 1_555 1_555
C18_2 C17_2 1_555 1_555
H16_2 C18_2 1_555 1_555
C19_2 C15_2 1_555 1_555
C20_2 C19_2 1_555 1_555
H17_2 C20_2 1_555 1_555
C21_2 C20_2 1_555 1_555
H18_2 C21_2 1_555 1_555
N1_2 Cd5_2 1_555 1_555
N2_2 C17_2 1_555 1_555
Cd6_2 O11_3 1_555 1_555
Cd5 N3_2 1_555 1_555
Cd9_2 O15_3 1_555 1_555
Cd11 N2_2 1_555 1_555
C22_3 H19_3 1_555 1_555
C23_3 C22_3 1_555 1_555
H20_3 C23_3 1_555 1_555
C24_3 C23_3 1_555 1_555
H21_3 C24_3 1_555 1_555
C25_3 C24_3 1_555 1_555
H22_3 C25_3 1_555 1_555
C26_3 C22_3 1_555 1_555
H23_3 C26_3 1_555 1_555
H24_3 C26_3 1_555 1_555
C27_3 C22_3 1_555 1_555
C28_3 C23_3 1_555 1_555
C29_3 C24_3 1_555 1_555
C30_3 C25_3 1_555 1_555
C31_2 H25_2 1_555 1_555
C32_2 C31_2 1_555 1_555
H26_2 C32_2 1_555 1_555
C33_2 C32_2 1_555 1_555
C34_2 C33_2 1_555 1_555
H27_2 C34_2 1_555 1_555
C35_2 C34_2 1_555 1_555
H28_2 C35_2 1_555 1_555
C37_2 C33_2 1_555 1_555
H31_2 C37_2 1_555 1_555
H32_2 C37_2 1_555 1_555
O11_3 C27_3 1_555 1_555
O12_3 Cd6_2 1_555 1_555
O13_3 Cd5_2 1_555 1_555
O15_3 C28_3 1_555 1_555
O18_2 Cd9_2 1_555 1_555
O25_3 C30_3 1_555 1_555
O26_3 Cd9_2 1_555 1_555
N3_2 C31_2 1_555 1_555
N4_3 Cd6_2 1_555 1_555
N6_3 Cd9_2 1_555 1_555
O27_3 Cd9_2 1_555 1_555
C10_2 N1_2 1_555 1_555
C14_2 N1_2 1_555 1_555
C15_2 C16_2 1_555 1_555
C18_2 C19_2 1_555 1_555
C21_2 N2_2 1_555 1_555
C25_3 C26_3 1_555 1_555
C27_3 O12_3 1_555 1_555
C28_3 O13_3 1_555 1_555
C29_3 O18_2 1_555 1_555
C29_3 O21_2 1_555 1_555
C30_3 O23_2 1_555 1_555
C35_2 N3_2 1_555 1_555
O26_3 H41 1_555 1_555
O14_2 Cd6 1_555 1_555
N4_4 Cd6 1_555 1_555
Cd5 O1_4 1_555 1_555
Cd11 O4_4 1_555 1_555
C1_4 H1_4 1_555 1_555
C2_4 C1_4 1_555 1_555
H2_4 C2_4 1_555 1_555
C3_4 C2_4 1_555 1_555
H3_4 C3_4 1_555 1_555
C4_4 C3_4 1_555 1_555
H4_4 C4_4 1_555 1_555
C5_4 C1_4 1_555 1_555
H5_4 C5_4 1_555 1_555
H6_4 C5_4 1_555 1_555
C6_4 C1_4 1_555 1_555
C7_4 C2_4 1_555 1_555
C8_4 C3_4 1_555 1_555
C9_4 C4_4 1_555 1_555
O1_4 C6_4 1_555 1_555
O2_4 Cd5 1_555 1_555
O14_2 C7_4 1_555 1_555
O4_4 C7_4 1_555 1_555
O20 C8_4 1_555 1_555
O24 C9_4 1_555 1_555
O8_4 C9_4 1_555 1_555
O9_4 Cd11 1_555 1_555
O10_4 Cd11 1_555 1_555
Cd9 O15_4 1_555 1_555
C22_4 H19_4 1_555 1_555
C23_4 C22_4 1_555 1_555
H20_4 C23_4 1_555 1_555
C24_4 C23_4 1_555 1_555
H21_4 C24_4 1_555 1_555
C25_4 C24_4 1_555 1_555
H22_4 C25_4 1_555 1_555
C26_4 C22_4 1_555 1_555
H23_4 C26_4 1_555 1_555
H24_4 C26_4 1_555 1_555
C27_4 C22_4 1_555 1_555
C28_4 C23_4 1_555 1_555
C29_4 C24_4 1_555 1_555
C30_4 C25_4 1_555 1_555
O11_4 C27_4 1_555 1_555
O13_4 Cd5 1_555 1_555
O15_4 C28_4 1_555 1_555
O18 Cd9 1_555 1_555
O25_4 C30_4 1_555 1_555
O26_4 Cd9 1_555 1_555
N6_4 Cd9 1_555 1_555
O27_4 Cd9 1_555 1_555
C4_4 C5_4 1_555 1_555
C6_4 O2_4 1_555 1_555
C8_4 O17 1_555 1_555
C25_4 C26_4 1_555 1_555
C27_4 O12_4 1_555 1_555
C28_4 O13_4 1_555 1_555
C29_4 O18 1_555 1_555
C29_4 O21 1_555 1_555
C30_4 O23 1_555 1_555
O9_4 H37_2 1_555 1_555
O26_4 H41_2 1_555 1_555
C17_3 H15_3 1_555 1_555
C18_3 C17_3 1_555 1_555
H16_3 C18_3 1_555 1_555
C20_3 C19_3 1_555 1_555
H17_3 C20_3 1_555 1_555
C21_3 C20_3 1_555 1_555
H18_3 C21_3 1_555 1_555
N6 C17_3 1_555 1_555
H26_3 C32_3 1_555 1_555
C33_3 C32_3 1_555 1_555
C34_3 C33_3 1_555 1_555
H27_3 C34_3 1_555 1_555
C35_3 C34_3 1_555 1_555
H28_3 C35_3 1_555 1_555
C37_3 C33_3 1_555 1_555
H31_3 C37_3 1_555 1_555
H32_3 C37_3 1_555 1_555
C18_3 C19_3 1_555 1_555
C21_3 N6 1_555 1_555
C35_3 N4 1_555 1_555
H30_3 C36_3 1_555 1_555
C31_3 H25_3 1_555 1_555
H8_3 C11_3 1_555 1_555
C12_3 C11_3 1_555 1_555
C13_3 C12_3 1_555 1_555
H9_3 C13_3 1_555 1_555
C14_3 C13_3 1_555 1_555
H10_3 C14_3 1_555 1_555
C15_3 H11_3 1_555 1_555
H12_3 C15_3 1_555 1_555
C16_3 C12_3 1_555 1_555
H13_3 C16_3 1_555 1_555
H14_3 C16_3 1_555 1_555
C14_3 N4_2 1_555 1_555
C15_3 C16_3 1_555 1_555
C38_3 H33_3 1_555 1_555
C39_3 C38_3 1_555 1_555
H34_3 C39_3 1_555 1_555
C41_3 C40_3 1_555 1_555
H35_3 C41_3 1_555 1_555
C42_3 C41_3 1_555 1_555
H36_3 C42_3 1_555 1_555
C38_3 N6_2 1_555 1_555
C39_3 C40_3 1_555 1_555
C42_3 N6_2 1_555 1_555
C10_3 H7_3 1_555 1_555
C10_4 H7_4 1_555 1_555
C11_4 C10_4 1_555 1_555
H8_4 C11_4 1_555 1_555
C12_4 C11_4 1_555 1_555
C13_4 C12_4 1_555 1_555
H9_4 C13_4 1_555 1_555
C14_4 C13_4 1_555 1_555
H10_4 C14_4 1_555 1_555
C15_4 H11_4 1_555 1_555
H12_4 C15_4 1_555 1_555
C16_4 C12_4 1_555 1_555
H13_4 C16_4 1_555 1_555
H14_4 C16_4 1_555 1_555
C17_4 H15_4 1_555 1_555
C18_4 C17_4 1_555 1_555
H16_4 C18_4 1_555 1_555
C19_4 C15_4 1_555 1_555
C20_4 C19_4 1_555 1_555
H17_4 C20_4 1_555 1_555
C21_4 C20_4 1_555 1_555
H18_4 C21_4 1_555 1_555
N6_3 C17_4 1_555 1_555
C31_4 H25_4 1_555 1_555
C32_4 C31_4 1_555 1_555
H26_4 C32_4 1_555 1_555
C33_4 C32_4 1_555 1_555
C34_4 C33_4 1_555 1_555
H27_4 C34_4 1_555 1_555
C35_4 C34_4 1_555 1_555
H28_4 C35_4 1_555 1_555
C37_4 C33_4 1_555 1_555
H31_4 C37_4 1_555 1_555
H32_4 C37_4 1_555 1_555
N4_3 C31_4 1_555 1_555
C10_4 N4_4 1_555 1_555
C14_4 N4_4 1_555 1_555
C15_4 C16_4 1_555 1_555
C18_4 C19_4 1_555 1_555
C21_4 N6_3 1_555 1_555
C35_4 N4_3 1_555 1_555
O9_4 H41_3 1_555 1_555
H30_4 C36_4 1_555 1_555
C38_4 H33_4 1_555 1_555
C39_4 C38_4 1_555 1_555
H34_4 C39_4 1_555 1_555
C40_4 C36_4 1_555 1_555
C41_4 C40_4 1_555 1_555
H35_4 C41_4 1_555 1_555
C42_4 C41_4 1_555 1_555
H36_4 C42_4 1_555 1_555
C38_4 N6_4 1_555 1_555
C39_4 C40_4 1_555 1_555
C42_4 N6_4 1_555 1_555
O26_4 H37_3 1_555 1_555
O26_3 H37_4 1_555 1_555
O9_3 H41_4 1_555 1_555

#END
