
###############################################################################
#
# This file contains modified crystal structure data generated from the
# MOF subset of the Cambridge Structural Database (CSD) v543 
# hosted by the Cambridge Crystallographic Data Centre (CCDC).
#
# This work is licensed under the Creative Commons
# Attribution-NonCommercial-ShareAlike 4.0 International License.
# To view a copy of this license, visit
# http://creativecommons.org/licenses/by-nc-sa/4.0/
# or send a letter to
# Creative Commons, PO Box 1866, Mountain View, CA 94042, USA.
#
# CIF created using the CSD Python API on 29 September 2022
# The structure has been converted into the P1 space group
# The structure has a 3D framework
# The original CSD entry TETXAT01 is in the triclinic crystal system
# The framework has been calculated to contain at least 10.0% void space
# The void calculation uses a probe of radius 1.32A, grid spacing 0.4
# H atom positions have been added when not included in the experimental data
# Generated hydrogen atom positions removed from atoms on special positions
#
###############################################################################

data_TETXAT01
_chemical_formula_moiety         '(C28 H32 Co6 N2 O20)n'
_symmetry_cell_setting           triclinic
_symmetry_space_group_name_H-M   'P 1'
_symmetry_Int_Tables_number      1
_space_group_name_Hall           'P 1'
loop_
_symmetry_equiv_pos_site_id
_symmetry_equiv_pos_as_xyz
1 x,y,z
_cell_length_a                   9.0477(2)
_cell_length_b                   9.7882(2)
_cell_length_c                   11.3856(3)
_cell_angle_alpha                88.0440(10)
_cell_angle_beta                 78.6410(10)
_cell_angle_gamma                65.8860(10)
_cell_volume                     901.088
loop_
_atom_site_label
_atom_site_type_symbol
_atom_site_fract_x
_atom_site_fract_y
_atom_site_fract_z
C16 C 0.0388(4) 0.1143(4) 0.8724(3)
H13 H 0.1537 0.0722 0.8557
H16 H 0.0132 0.2628 0.7435
O1 O 0.2901(2) 0.0531(2) 0.4286(2)
O2 O 0.1072(2) 0.2703(2) 0.51750(17)
C1 C 0.1586(3) 0.1680(3) 0.4370(2)
Co1 Co 0.33258(4) 0.53523(4) 0.28214(3)
Co2 Co -0.0000 0.5000 0.5000
Co3 Co 0.5000 0.0000 0.5000
O7 O 0.1386(2) 0.4640(2) 0.32717(16)
C5 C 0.1025(3) 0.2683(3) 0.2269(2)
H3 H 0.1689 0.1956 0.1596
N1 N 0.2106(3) 0.7046(3) 0.1763(2)
C6 C 0.0631(3) 0.1781(3) 0.3372(2)
H4 H 0.1025 0.0748 0.3052
O9 O 0.3170(2) 0.3567(3) 0.1657(2)
C7 C 0.1920(3) 0.3658(3) 0.2410(2)
C9 C 0.0442(3) 0.9382(3) 0.0370(2)
O10 O 0.6047(3) 0.0569(3) 0.3364(2)
H8 H 0.5887 0.1455 0.3404
C12 C 0.2150(4) 0.8705(5) 0.0172(4)
C13 C 0.2911(4) 0.7549(5) 0.0872(4)
H11 H 0.4060 0.7092 0.0710
C14 C 0.0470(4) 0.7701(4) 0.1953(3)
O13 O 0.4159(2) 0.4910(3) 0.7912(2)
O14 O 0.4662(2) 0.6464(2) 0.6665(2)
C21 C 0.3634(3) 0.6078(3) 0.7342(2)
O15 O 0.2802(2) 0.6732(2) 0.42921(17)
O16 O 0.2021(2) 0.5170(2) 0.54714(16)
C22 C 0.2093(3) 0.6427(3) 0.5275(2)
C23 C 0.1818(3) 0.7053(3) 0.7476(2)
H17 H 0.1582 0.7932 0.7988
C27 C 0.1286(3) 0.7644(3) 0.6275(2)
H20 H 0.1582 0.8488 0.6049
C28 C 0.0664(3) 0.6344(3) 0.8064(2)
H21 H 0.1064 0.5315 0.7760
H22 H 0.0572 0.6354 0.8927
O19 O 0.4444(3) 0.2165(2) 0.5788(2)
O22 O 0.5841(2) 0.5090(3) 0.2088(2)
O24 O 0.5338(2) 0.3536(2) 0.3335(2)
Co7 Co 0.66742(4) 0.46477(4) 0.71786(3)
H26 H 0.553277 0.0398004 0.272129
H27 H 0.274571 0.00620809 0.682182
H10 H 0.2779 0.9026 0.9574
Co3_2 Co 0.5000 1.0000 0.5000
O8 O 0.5556(3) 0.7835(2) 0.4212(2)
O20 O 0.3953(3) 0.9431(3) 0.6636(2)
H24 H 0.4113 0.8545 0.6596
O21 O 0.7099(2) 0.9469(2) 0.5714(2)
H14 H 0.7221 0.0974 0.0426
N2 N 0.7894(3) 0.2954(3) 0.8237(2)
C15 C 0.9558(3) 0.0618(3) 0.9630(2)
C17 C 0.7850(4) 0.1295(5) 0.9828(4)
C18 C 0.7089(4) 0.2451(5) 0.9128(4)
H15 H 0.5940 0.2908 0.9290
C19 C 0.9530(4) 0.2299(4) 0.8047(3)
C2 C 0.6366(3) 0.3922(3) 0.2658(2)
O5 O 0.7198(2) 0.3268(2) 0.57079(17)
Co2_2 Co 1.0000 0.5000 0.5000
O6 O 0.7979(2) 0.4830(2) 0.45286(16)
C3 C 0.7907(3) 0.3573(3) 0.4725(2)
C4 C 0.8182(3) 0.2947(3) 0.2524(2)
H2 H 0.8418 0.2068 0.2012
C8 C 0.8714(3) 0.2356(3) 0.3725(2)
H5 H 0.8418 0.1512 0.3951
C10 C 0.9336(3) 0.3656(3) 0.1936(2)
H6 H 0.8936 0.4685 0.2240
H7 H 0.9428 0.3646 0.1073
C11 C 0.9612(4) 0.8857(4) 0.1276(3)
H9 H 0.8463 0.9278 0.1443
H12 H 0.9868 0.7372 0.2565
O12 O 0.8928(2) 0.7297(2) 0.48250(17)
C20 C 0.8414(3) 0.8320(3) 0.5630(2)
O17 O 0.8614(2) 0.5360(2) 0.67283(16)
C24 C 0.8975(3) 0.7317(3) 0.7731(2)
H18 H 0.8311 0.8044 0.8404
C25 C 0.9369(3) 0.8219(3) 0.6628(2)
H19 H 0.8975 0.9252 0.6948
O18 O 0.6830(2) 0.6433(3) 0.8343(2)
C26 C 0.8080(3) 0.6342(3) 0.7590(2)
H26_2 H 0.446723 0.9602 0.727871
H27_2 H 0.725429 0.993792 0.317818
loop_
_geom_bond_atom_site_label_1
_geom_bond_atom_site_label_2
_geom_bond_site_symmetry_1
_geom_bond_site_symmetry_2
H13 C16 1_555 1_555
O1 C1 1_555 1_555
O2 C1 1_555 1_555
C1 C6 1_555 1_555
Co1 O7 1_555 1_555
Co2 O2 1_555 1_555
Co3 O1 1_555 1_555
O7 Co2 1_555 1_555
C5 H3 1_555 1_555
N1 Co1 1_555 1_555
C6 C5 1_555 1_555
H4 C6 1_555 1_555
O9 Co1 1_555 1_555
C7 O7 1_555 1_555
O10 Co3 1_555 1_555
H8 O10 1_555 1_555
C12 C9 1_555 1_555
C13 N1 1_555 1_555
H11 C13 1_555 1_555
C14 N1 1_555 1_555
O13 C21 1_555 1_555
O14 C21 1_555 1_555
C21 C23 1_555 1_555
O15 Co1 1_555 1_555
O16 Co2 1_555 1_555
C22 O15 1_555 1_555
C23 H17 1_555 1_555
C27 C22 1_555 1_555
H20 C27 1_555 1_555
C28 C23 1_555 1_555
H21 C28 1_555 1_555
H22 C28 1_555 1_555
O19 Co3 1_555 1_555
O22 Co1 1_555 1_555
O24 Co1 1_555 1_555
Co7 O13 1_555 1_555
C5 C7 1_555 1_555
O9 C7 1_555 1_555
C12 C13 1_555 1_555
O14 Co7 1_555 1_555
O16 C22 1_555 1_555
C23 C27 1_555 1_555
O10 H26 1_555 1_555
O8 Co3_2 1_555 1_555
O20 Co3_2 1_555 1_555
H24 O20 1_555 1_555
O21 Co3_2 1_555 1_555
N2 C18 1_555 1_555
C17 C15 1_555 1_555
C18 C17 1_555 1_555
H15 C18 1_555 1_555
C19 N2 1_555 1_555
Co7 N2 1_555 1_555
O22 C2 1_555 1_555
O24 C2 1_555 1_555
C2 C4 1_555 1_555
O5 C3 1_555 1_555
O6 Co2_2 1_555 1_555
C3 O6 1_555 1_555
C4 H2 1_555 1_555
C8 C3 1_555 1_555
H5 C8 1_555 1_555
C10 C4 1_555 1_555
H6 C10 1_555 1_555
H7 C10 1_555 1_555
C11 H9 1_555 1_555
O21 C20 1_555 1_555
O12 Co2_2 1_555 1_555
C20 O12 1_555 1_555
Co7 O5 1_555 1_555
O17 Co2_2 1_555 1_555
C24 H18 1_555 1_555
C25 C20 1_555 1_555
H19 C25 1_555 1_555
O18 Co7 1_555 1_555
C26 O17 1_555 1_555
C4 C8 1_555 1_555
Co7 O17 1_555 1_555
C24 C25 1_555 1_555
C24 C26 1_555 1_555
O18 C26 1_555 1_555
O20 H26_2 1_555 1_555

#END
