
###############################################################################
#
# This file contains modified crystal structure data generated from the
# MOF subset of the Cambridge Structural Database (CSD) v543 
# hosted by the Cambridge Crystallographic Data Centre (CCDC).
#
# This work is licensed under the Creative Commons
# Attribution-NonCommercial-ShareAlike 4.0 International License.
# To view a copy of this license, visit
# http://creativecommons.org/licenses/by-nc-sa/4.0/
# or send a letter to
# Creative Commons, PO Box 1866, Mountain View, CA 94042, USA.
#
# CIF created using the CSD Python API on 29 September 2022
# The structure has been converted into the P1 space group
# The structure has a 3D framework
# The original CSD entry TETYAV is in the rhombohedral crystal system
# The framework has been calculated to contain at least 10.0% void space
# The void calculation uses a probe of radius 1.32A, grid spacing 0.4
#
###############################################################################

data_TETYAV
_chemical_formula_moiety         '(C900 H756 N72 O252 Zn47)n'
_symmetry_cell_setting           triclinic
_symmetry_space_group_name_H-M   'P 1'
_symmetry_Int_Tables_number      1
_space_group_name_Hall           'P 1'
loop_
_symmetry_equiv_pos_site_id
_symmetry_equiv_pos_as_xyz
1 x,y,z
_cell_length_a                   42.436(5)
_cell_length_b                   42.436(5)
_cell_length_c                   27.473(4)
_cell_angle_alpha                90
_cell_angle_beta                 90
_cell_angle_gamma                120
_cell_volume                     42845.5
loop_
_atom_site_label
_atom_site_type_symbol
_atom_site_fract_x
_atom_site_fract_y
_atom_site_fract_z
C1 C 0.2974(4) 0.1875(3) 0.0126(4)
H1 H 0.3141 0.1798 0.0182
C2 C 0.2770(3) 0.1892(3) 0.0506(4)
C3 C 0.2538(3) 0.2019(3) 0.0420(5)
H2 H 0.2402 0.2036 0.0673
C20 C 0.2809(3) 0.1777(3) 0.1010(4)
O3 O 0.2605(2) 0.1805(2) 0.1328(3)
O4 O 0.3040(2) 0.1687(2) 0.1079(3)
Zn1 Zn 0.3333 0.1667 0.1667
Zn2 Zn 0.25980(4) 0.18052(3) 0.20149(4)
O7 O 0.2099(2) 0.1738(2) 0.2082(3)
C22 C 0.1958(3) 0.1893(3) 0.1852(5)
C23 C 0.2144(4) 0.2294(3) 0.1773(5)
H13 H 0.1986 0.2354 0.1595
H14 H 0.2363 0.2371 0.1591
H15 H 0.2202 0.2416 0.2082
N2 N 0.1616(2) 0.1691(3) 0.1782(3)
C24 C 0.1458(4) 0.1295(3) 0.1895(5)
H16 H 0.1202 0.1169 0.1826
H17 H 0.1495 0.1267 0.2233
H18 H 0.1574 0.1196 0.1699
C25 C 0.1379(4) 0.1826(3) 0.1570(5)
H19 H 0.1133 0.1628 0.1548
H20 H 0.1465 0.1924 0.1251
H21 H 0.1387 0.2013 0.1776
C40 C 0.4149(4) 0.2275(6) 0.0052(5)
H31 H 0.4269 0.2142 0.0046
C41 C 0.3970(3) 0.2280(4) 0.0482(4)
C42 C 0.3831(3) 0.2505(4) 0.0491(5)
H32 H 0.3725 0.2524 0.0777
C43 C 0.3842(3) 0.2714(5) 0.0083(5)
H33 H 0.3741 0.2864 0.0095
C44 C 0.3962(3) 0.2058(4) 0.0896(4)
O8 O 0.3802(2) 0.2059(3) 0.1269(3)
O9 O 0.4123(2) 0.1879(3) 0.0844(3)
O15 O 0.2865(2) 0.1274(3) 0.2064(3)
O16 O 0.2544(2) 0.1454(3) 0.2489(3)
O18 O 0.3627(2) 0.1646(2) 0.2254(3)
O20 O 0.2957(2) 0.2296(3) 0.2247(3)
O21 O 0.3329(2) 0.2109(3) 0.2001(3)
O22 O 0.3338(2) 0.1224(3) 0.1332(3)
Zn6 Zn 0.4999 0.5000 -0.0000
Zn10 Zn 0.40687(4) 0.15281(3) 0.13184(4)
C4 C 0.2505(4) 0.2128(4) 0.9935(5)
H3 H 0.2349 0.2219 0.9877
C5 C 0.2694(3) 0.2100(3) 0.9569(4)
C6 C 0.2931(4) 0.1972(3) 0.9669(5)
H4 H 0.3065 0.1952 0.9416
C7 C 0.2618(3) 0.2527(3) 0.9033(4)
C8 C 0.2828(4) 0.2837(3) 0.9238(5)
H5 H 0.3024 0.2868 0.9424
C9 C 0.2764(3) 0.3124(3) 0.9184(4)
H6 H 0.2916 0.3344 0.9338
C10 C 0.2473(3) 0.3088(3) 0.8899(4)
C11 C 0.2248(3) 0.2754(3) 0.8687(4)
H7 H 0.2055 0.2724 0.8496
C12 C 0.2305(3) 0.2462(3) 0.8753(4)
H8 H 0.2147 0.2234 0.8623
C13 C 0.2659(3) 0.2010(3) 0.8669(4)
C14 C 0.2514(4) 0.1646(4) 0.8699(5)
H9 H 0.2415 0.1523 0.8989
C15 C 0.2518(4) 0.1460(4) 0.8281(5)
H10 H 0.2398 0.1207 0.8287
C16 C 0.2697(3) 0.1644(3) 0.7851(4)
C17 C 0.2836(3) 0.2008(3) 0.7842(5)
H11 H 0.2942 0.2133 0.7556
C18 C 0.2825(3) 0.2206(4) 0.8250(5)
H12 H 0.2926 0.2457 0.8238
C19 C 0.2705(3) 0.1430(3) 0.7437(4)
C21 C 0.2418(3) 0.3411(3) 0.8823(4)
N1 N 0.2658(3) 0.2211(3) 0.9097(4)
O1 O 0.2865(2) 0.1591(2) 0.7064(3)
O2 O 0.2544(2) 0.1090(2) 0.7489(3)
O5 O 0.2673(2) 0.3710(2) 0.8914(3)
O6 O 0.2114(2) 0.3338(2) 0.8668(3)
C26 C 0.3693(4) 0.2234(5) 0.8207(4)
H22 H 0.3526 0.1990 0.8151
C27 C 0.3897(3) 0.2455(4) 0.7827(4)
C28 C 0.4129(3) 0.2814(4) 0.7913(5)
H23 H 0.4265 0.2967 0.7660
C29 C 0.4162(4) 0.2956(6) 0.8398(5)
H24 H 0.4318 0.3203 0.8456
C30 C 0.3973(3) 0.2739(4) 0.8764(4)
C31 C 0.3736(4) 0.2374(5) 0.8664(5)
H25 H 0.3602 0.2220 0.8917
C32 C 0.4049(3) 0.3242(4) 0.9300(4)
C33 C 0.3839(4) 0.3342(5) 0.9095(5)
H26 H 0.3643 0.3177 0.8909
C34 C 0.3903(3) 0.3693(4) 0.9149(4)
H27 H 0.3751 0.3761 0.8995
C35 C 0.4194(3) 0.3948(4) 0.9434(4)
C36 C 0.4419(3) 0.3839(4) 0.9646(4)
H28 H 0.4612 0.4002 0.9837
C37 C 0.4362(3) 0.3490(4) 0.9580(4)
H29 H 0.4520 0.3420 0.9710
C38 C 0.4008(3) 0.2684(4) 0.9664(4)
C39 C 0.4153(4) 0.2465(6) 0.9634(5)
H30 H 0.4252 0.2441 0.9344
C45 C 0.3858(3) 0.2301(4) 0.7323(4)
C46 C 0.4249(3) 0.4326(4) 0.9510(4)
N3 N 0.4009(3) 0.2886(4) 0.9236(4)
O10 O 0.4062(2) 0.2533(3) 0.7005(3)
O11 O 0.3627(2) 0.1980(3) 0.7254(3)
O12 O 0.3994(2) 0.4370(3) 0.9419(3)
O13 O 0.4553(2) 0.4557(3) 0.9665(3)
Zn3 Zn 0.40687(4) 0.25405(5) 0.63184(4)
O14 O 0.4568(2) 0.2972(3) 0.6251(3)
C47 C 0.4709(3) 0.3268(4) 0.6481(5)
C48 C 0.4523(4) 0.3483(5) 0.6560(5)
H34 H 0.4681 0.3701 0.6738
H35 H 0.4304 0.3341 0.6742
H36 H 0.4465 0.3547 0.6251
N4 N 0.5051(2) 0.3408(4) 0.6551(3)
C49 C 0.5209(4) 0.3170(5) 0.6438(5)
H37 H 0.5465 0.3300 0.6507
H38 H 0.5172 0.3105 0.6100
H39 H 0.5093 0.2955 0.6634
C50 C 0.5288(4) 0.3780(5) 0.6763(5)
H40 H 0.5534 0.3828 0.6785
H41 H 0.5202 0.3792 0.7082
H42 H 0.5280 0.3959 0.6557
O17 O 0.4123(2) 0.2243(2) 0.5844(3)
O19 O 0.3710(2) 0.2673(2) 0.6086(3)
Zn4 Zn 0.3334 0.1667 0.6666
Zn5 Zn 0.1667 0.3334 0.8334
Zn6_2 Zn 0.4999 0.5000 1.0000
Zn7 Zn 0.25405(5) 0.40687(4) 0.86816(4)
Zn8 Zn 0.41261(5) 0.48615(3) 0.96518(4)
Zn9 Zn 0.25980(4) 0.07928(5) 0.70149(4)
C1_2 C 0.8125(3) 0.1099(5) 0.0126(4)
H1_2 H 0.8202 0.1343 0.0182
C2_2 C 0.8108(3) 0.0878(4) 0.0506(4)
C3_2 C 0.7981(3) 0.0519(4) 0.0420(5)
H2_2 H 0.7964 0.0366 0.0673
C20_2 C 0.8223(3) 0.1032(4) 0.1010(4)
O3_2 O 0.8195(2) 0.0800(3) 0.1328(3)
O4_2 O 0.8313(2) 0.1353(3) 0.1079(3)
Zn1_2 Zn 0.8333 0.1666 0.1667
Zn2_2 Zn 0.81948(3) 0.07928(5) 0.20149(4)
O7_2 O 0.8262(2) 0.0361(3) 0.2082(3)
C22_2 C 0.8107(3) 0.0065(4) 0.1852(5)
C24_2 C 0.8705(3) 0.0163(5) 0.1895(5)
H16_2 H 0.8831 0.0033 0.1826
H17_2 H 0.8733 0.0228 0.2233
H18_2 H 0.8804 0.0378 0.1699
C40_2 C 0.7725(6) 0.1873(7) 0.0052(5)
H31_2 H 0.7858 0.2126 0.0046
C41_2 C 0.7720(4) 0.1689(5) 0.0482(4)
C42_2 C 0.7495(4) 0.1325(5) 0.0491(5)
H32_2 H 0.7476 0.1200 0.0777
C43_2 C 0.7286(5) 0.1127(6) 0.0083(5)
H33_2 H 0.7136 0.0876 0.0095
C44_2 C 0.7942(4) 0.1903(5) 0.0896(4)
O8_2 O 0.7941(3) 0.1742(4) 0.1269(3)
O9_2 O 0.8121(3) 0.2243(4) 0.0844(3)
O15_2 O 0.8726(3) 0.1591(4) 0.2064(3)
O16_2 O 0.8546(3) 0.1090(4) 0.2489(3)
O18_2 O 0.8354(2) 0.1980(3) 0.2254(3)
O20_2 O 0.7704(3) 0.0660(4) 0.2247(3)
O21_2 O 0.7891(3) 0.1219(4) 0.2001(3)
O22_2 O 0.8776(3) 0.2114(4) 0.1332(3)
Zn10_2 Zn 0.84719(3) 0.25405(5) 0.13184(4)
C4_2 C 0.7872(4) 0.0377(6) 0.9935(5)
H3_2 H 0.7781 0.0130 0.9877
C5_2 C 0.7900(3) 0.0594(4) 0.9569(4)
C6_2 C 0.8028(3) 0.0959(5) 0.9669(5)
H4_2 H 0.8048 0.1113 0.9416
C7_2 C 0.7473(3) 0.0091(4) 0.9033(4)
H5_2 H 0.7132 0.0156 0.9424
C13_2 C 0.7990(3) 0.0649(4) 0.8669(4)
C14_2 C 0.8354(4) 0.0868(6) 0.8699(5)
H9_2 H 0.8477 0.0892 0.8989
C15_2 C 0.8540(4) 0.1058(6) 0.8281(5)
H10_2 H 0.8793 0.1191 0.8287
C16_2 C 0.8356(3) 0.1053(4) 0.7851(4)
C17_2 C 0.7992(3) 0.0828(4) 0.7842(5)
H11_2 H 0.7867 0.0809 0.7556
C18_2 C 0.7794(4) 0.0619(5) 0.8250(5)
H12_2 H 0.7543 0.0469 0.8238
C19_2 C 0.8570(3) 0.1275(4) 0.7437(4)
N1_2 N 0.7789(3) 0.0447(4) 0.9097(4)
O1_2 O 0.8409(2) 0.1274(3) 0.7064(3)
O2_2 O 0.8910(2) 0.1454(3) 0.7489(3)
C26_2 C 0.7766(5) 0.1458(6) 0.8207(4)
H22_2 H 0.8010 0.1535 0.8151
C27_2 C 0.7545(4) 0.1441(5) 0.7827(4)
C28_2 C 0.7186(4) 0.1314(5) 0.7913(5)
H23_2 H 0.7033 0.1297 0.7660
C29_2 C 0.7044(6) 0.1205(7) 0.8398(5)
H24_2 H 0.6797 0.1114 0.8456
C30_2 C 0.7261(4) 0.1233(5) 0.8764(4)
C31_2 C 0.7626(5) 0.1361(6) 0.8664(5)
H25_2 H 0.7780 0.1381 0.8917
C32_2 C 0.6758(4) 0.0806(5) 0.9300(4)
C33_2 C 0.6658(5) 0.0496(6) 0.9095(5)
H26_2 H 0.6823 0.0465 0.8909
C34_2 C 0.6307(4) 0.0209(5) 0.9149(4)
C35_2 C 0.6052(4) 0.0245(5) 0.9434(4)
C36_2 C 0.6161(4) 0.0579(5) 0.9646(4)
H28_2 H 0.5998 0.0609 0.9837
C37_2 C 0.6510(4) 0.0871(5) 0.9580(4)
H29_2 H 0.6580 0.1099 0.9710
C38_2 C 0.7316(4) 0.1323(5) 0.9664(4)
C39_2 C 0.7535(6) 0.1687(7) 0.9634(5)
H30_2 H 0.7559 0.1810 0.9344
C45_2 C 0.7699(4) 0.1556(5) 0.7323(4)
N3_2 N 0.7114(4) 0.1122(5) 0.9236(4)
O10_2 O 0.7467(3) 0.1528(4) 0.7005(3)
O11_2 O 0.8020(3) 0.1646(4) 0.7254(3)
Zn3_2 Zn 0.74595(5) 0.15281(6) 0.63184(4)
O14_2 O 0.7028(3) 0.1595(4) 0.6251(3)
C47_2 C 0.6732(4) 0.1440(5) 0.6481(5)
C48_2 C 0.6517(5) 0.1039(6) 0.6560(5)
H34_2 H 0.6299 0.0979 0.6738
H35_2 H 0.6659 0.0962 0.6742
H36_2 H 0.6453 0.0917 0.6251
N4_2 N 0.6592(4) 0.1642(4) 0.6551(3)
C49_2 C 0.6830(5) 0.2038(6) 0.6438(5)
H37_2 H 0.6700 0.2164 0.6507
H38_2 H 0.6895 0.2066 0.6100
H39_2 H 0.7045 0.2137 0.6634
C50_2 C 0.6220(5) 0.1507(6) 0.6763(5)
H40_2 H 0.6172 0.1705 0.6785
H41_2 H 0.6208 0.1409 0.7082
H42_2 H 0.6041 0.1320 0.6557
O17_2 O 0.7757(2) 0.1879(3) 0.5844(3)
O19_2 O 0.7327(2) 0.1037(3) 0.6086(3)
Zn4_2 Zn 0.8333 0.1666 0.6666
Zn9_2 Zn 0.92072(5) 0.18052(6) 0.70149(4)
C23_2 C 0.7706(3) 0.9850(5) 0.1773(5)
H13_2 H 0.7646 0.9632 0.1595
H14_2 H 0.7629 0.9992 0.1591
H15_2 H 0.7584 0.9786 0.2082
N2_2 N 0.8309(3) 0.9925(4) 0.1782(3)
C25_2 C 0.8174(3) 0.9553(5) 0.1570(5)
H19_2 H 0.8372 0.9505 0.1548
H20_2 H 0.8076 0.9541 0.1251
H21_2 H 0.7987 0.9374 0.1776
Zn6_3 Zn 0.5000 1.0000 -0.0000
C8_2 C 0.7163(3) 0.9991(5) 0.9238(5)
C9_2 C 0.6876(3) 0.9640(4) 0.9184(4)
H6_2 H 0.6656 0.9572 0.9338
C10_2 C 0.6912(3) 0.9385(4) 0.8899(4)
C11_2 C 0.7246(3) 0.9494(4) 0.8687(4)
H7_2 H 0.7276 0.9331 0.8496
C12_2 C 0.7538(3) 0.9843(4) 0.8753(4)
H8_2 H 0.7766 0.9913 0.8623
C21_2 C 0.6589(3) 0.9007(4) 0.8823(4)
O5_2 O 0.6290(2) 0.8963(3) 0.8914(3)
O6_2 O 0.6662(2) 0.8776(3) 0.8668(3)
H27_2 H 0.6239 0.9989 0.8995
C46_2 C 0.5674(4) 0.9922(5) 0.9510(4)
O12_2 O 0.5630(3) 0.9623(4) 0.9419(3)
O13_2 O 0.5443(3) 0.9995(4) 0.9665(3)
Zn5_2 Zn 0.6666 0.8334 0.8334
Zn6_4 Zn 0.5000 1.0000 1.0000
Zn7_2 Zn 0.59313(4) 0.84719(6) 0.86816(4)
Zn8_2 Zn 0.51385(3) 0.92647(6) 0.96518(4)
C23_3 C 0.0150(5) 0.7856(4) 0.1773(5)
H13_3 H 0.0368 0.8014 0.1595
H14_3 H 0.0008 0.7637 0.1591
H15_3 H 0.0214 0.7798 0.2082
N2_3 N 0.0075(4) 0.8384(2) 0.1782(3)
C25_3 C 0.0447(5) 0.8621(4) 0.1570(5)
H19_3 H 0.0495 0.8867 0.1548
H20_3 H 0.0459 0.8535 0.1251
H21_3 H 0.0626 0.8613 0.1776
Zn6_5 Zn 0.0000 0.5001 -0.0000
C8_3 C 0.0009(5) 0.7172(4) 0.9238(5)
C9_3 C 0.0360(4) 0.7236(3) 0.9184(4)
H6_3 H 0.0428 0.7084 0.9338
C10_3 C 0.0615(4) 0.7527(3) 0.8899(4)
C11_3 C 0.0506(4) 0.7752(3) 0.8687(4)
H7_3 H 0.0669 0.7945 0.8496
C12_3 C 0.0157(4) 0.7695(3) 0.8753(4)
H8_3 H 0.0087 0.7853 0.8623
C21_3 C 0.0993(4) 0.7582(3) 0.8823(4)
O5_3 O 0.1037(3) 0.7327(2) 0.8914(3)
O6_3 O 0.1224(3) 0.7886(2) 0.8668(3)
H27_3 H 0.0011 0.6249 0.8995
C46_3 C 0.0078(5) 0.5751(3) 0.9510(4)
O12_3 O 0.0377(4) 0.6006(2) 0.9419(3)
O13_3 O 0.0005(4) 0.5447(2) 0.9665(3)
Zn5_3 Zn 0.1666 0.8333 0.8334
Zn6_6 Zn 0.0000 0.5001 1.0000
Zn7_3 Zn 0.15281(6) 0.74595(5) 0.86816(4)
Zn8_3 Zn 0.07353(6) 0.58739(5) 0.96518(4)
C1_3 C 0.8901(5) 0.7026(4) 0.0126(4)
H1_3 H 0.8657 0.6859 0.0182
C2_3 C 0.9122(4) 0.7230(3) 0.0506(4)
C3_3 C 0.9481(4) 0.7462(3) 0.0420(5)
H2_3 H 0.9634 0.7598 0.0673
C20_3 C 0.8968(4) 0.7191(3) 0.1010(4)
O3_3 O 0.9200(3) 0.7395(2) 0.1328(3)
O4_3 O 0.8647(3) 0.6960(2) 0.1079(3)
Zn1_3 Zn 0.8334 0.6667 0.1667
Zn2_3 Zn 0.92072(5) 0.74020(4) 0.20149(4)
O7_3 O 0.9639(3) 0.7901(2) 0.2082(3)
C22_3 C 0.9935(4) 0.8042(3) 0.1852(5)
C24_3 C 0.9837(5) 0.8542(4) 0.1895(5)
H16_3 H 0.9967 0.8798 0.1826
H17_3 H 0.9772 0.8505 0.2233
H18_3 H 0.9622 0.8426 0.1699
C40_3 C 0.8127(7) 0.5851(4) 0.0052(5)
H31_3 H 0.7874 0.5731 0.0046
C41_3 C 0.8311(5) 0.6030(3) 0.0482(4)
C42_3 C 0.8675(5) 0.6169(3) 0.0491(5)
H32_3 H 0.8800 0.6275 0.0777
C43_3 C 0.8873(6) 0.6158(3) 0.0083(5)
H33_3 H 0.9124 0.6259 0.0095
C44_3 C 0.8097(5) 0.6038(3) 0.0896(4)
O8_3 O 0.8258(4) 0.6198(2) 0.1269(3)
O9_3 O 0.7757(4) 0.5877(2) 0.0844(3)
O15_3 O 0.8409(4) 0.7135(2) 0.2064(3)
O16_3 O 0.8910(4) 0.7456(2) 0.2489(3)
O18_3 O 0.8020(3) 0.6373(2) 0.2254(3)
O20_3 O 0.9340(4) 0.7043(2) 0.2247(3)
O21_3 O 0.8781(4) 0.6671(2) 0.2001(3)
O22_3 O 0.7886(4) 0.6662(2) 0.1332(3)
Zn10_3 Zn 0.74595(5) 0.59313(4) 0.13184(4)
C4_3 C 0.9623(6) 0.7495(4) 0.9935(5)
H3_3 H 0.9870 0.7651 0.9877
C5_3 C 0.9406(4) 0.7306(3) 0.9569(4)
C6_3 C 0.9041(5) 0.7069(4) 0.9669(5)
H4_3 H 0.8887 0.6935 0.9416
C7_3 C 0.9909(4) 0.7382(3) 0.9033(4)
H5_3 H 0.9844 0.6976 0.9424
C13_3 C 0.9351(4) 0.7341(3) 0.8669(4)
C14_3 C 0.9132(6) 0.7486(4) 0.8699(5)
H9_3 H 0.9108 0.7585 0.8989
C15_3 C 0.8942(6) 0.7482(4) 0.8281(5)
H10_3 H 0.8809 0.7602 0.8287
C16_3 C 0.8947(4) 0.7303(3) 0.7851(4)
C17_3 C 0.9172(4) 0.7164(3) 0.7842(5)
H11_3 H 0.9191 0.7058 0.7556
C18_3 C 0.9381(5) 0.7175(3) 0.8250(5)
H12_3 H 0.9531 0.7074 0.8238
C19_3 C 0.8725(4) 0.7295(3) 0.7437(4)
N1_3 N 0.9553(4) 0.7342(3) 0.9097(4)
O1_3 O 0.8726(3) 0.7135(2) 0.7064(3)
O2_3 O 0.8546(3) 0.7456(2) 0.7489(3)
C26_3 C 0.8542(6) 0.6307(4) 0.8207(4)
H22_3 H 0.8465 0.6474 0.8151
C27_3 C 0.8559(5) 0.6103(3) 0.7827(4)
C28_3 C 0.8686(5) 0.5871(3) 0.7913(5)
H23_3 H 0.8703 0.5735 0.7660
C29_3 C 0.8795(7) 0.5838(4) 0.8398(5)
H24_3 H 0.8886 0.5682 0.8456
C30_3 C 0.8767(5) 0.6027(3) 0.8764(4)
C31_3 C 0.8639(6) 0.6264(4) 0.8664(5)
H25_3 H 0.8619 0.6398 0.8917
C32_3 C 0.9194(5) 0.5951(3) 0.9300(4)
C33_3 C 0.9504(6) 0.6161(4) 0.9095(5)
H26_3 H 0.9535 0.6357 0.8909
C34_3 C 0.9791(5) 0.6097(3) 0.9149(4)
C35_3 C 0.9755(5) 0.5806(3) 0.9434(4)
C36_3 C 0.9421(5) 0.5581(3) 0.9646(4)
H28_3 H 0.9391 0.5388 0.9837
C37_3 C 0.9129(5) 0.5638(3) 0.9580(4)
H29_3 H 0.8901 0.5480 0.9710
C38_3 C 0.8677(5) 0.5992(3) 0.9664(4)
C39_3 C 0.8313(7) 0.5847(4) 0.9634(5)
H30_3 H 0.8190 0.5748 0.9344
C45_3 C 0.8444(5) 0.6142(3) 0.7323(4)
N3_3 N 0.8878(5) 0.5991(3) 0.9236(4)
O10_3 O 0.8472(4) 0.5938(2) 0.7005(3)
O11_3 O 0.8354(4) 0.6373(2) 0.7254(3)
Zn3_3 Zn 0.84719(6) 0.59313(4) 0.63184(4)
O14_3 O 0.8405(4) 0.5432(2) 0.6251(3)
C47_3 C 0.8560(5) 0.5291(3) 0.6481(5)
C48_3 C 0.8961(6) 0.5477(4) 0.6560(5)
H34_3 H 0.9021 0.5319 0.6738
H35_3 H 0.9038 0.5696 0.6742
H36_3 H 0.9083 0.5535 0.6251
N4_3 N 0.8358(4) 0.4949(2) 0.6551(3)
C49_3 C 0.7962(6) 0.4791(4) 0.6438(5)
H37_3 H 0.7836 0.4535 0.6507
H38_3 H 0.7934 0.4828 0.6100
H39_3 H 0.7863 0.4907 0.6634
C50_3 C 0.8493(6) 0.4712(4) 0.6763(5)
H40_3 H 0.8295 0.4466 0.6785
H41_3 H 0.8591 0.4798 0.7082
H42_3 H 0.8680 0.4720 0.6557
O17_3 O 0.8121(3) 0.5877(2) 0.5844(3)
O19_3 O 0.8963(3) 0.6290(2) 0.6086(3)
Zn4_3 Zn 0.8334 0.6666 0.6666
Zn9_3 Zn 0.81948(6) 0.74020(4) 0.70149(4)
C1_4 C 0.1875(3) 0.2974(4) 0.4874(4)
H1_4 H 0.1798 0.3141 0.4818
C2_4 C 0.1892(3) 0.2770(3) 0.4494(4)
C3_4 C 0.2019(3) 0.2538(3) 0.4580(5)
H2_4 H 0.2036 0.2402 0.4327
C4_4 C 0.2128(4) 0.2505(4) 0.5065(5)
H3_4 H 0.2219 0.2349 0.5123
C5_4 C 0.2100(3) 0.2694(3) 0.5431(4)
C6_4 C 0.1972(3) 0.2931(4) 0.5331(5)
H4_4 H 0.1952 0.3065 0.5584
C7_4 C 0.2527(3) 0.2618(3) 0.5967(4)
C8_4 C 0.2837(3) 0.2828(4) 0.5762(5)
H5_4 H 0.2868 0.3024 0.5576
C9_4 C 0.3124(3) 0.2764(3) 0.5816(4)
H6_4 H 0.3344 0.2916 0.5662
C10_4 C 0.3088(3) 0.2473(3) 0.6101(4)
C11_4 C 0.2754(3) 0.2248(3) 0.6313(4)
H7_4 H 0.2724 0.2055 0.6504
C12_4 C 0.2462(3) 0.2305(3) 0.6247(4)
H8_4 H 0.2234 0.2147 0.6377
C13_4 C 0.2010(3) 0.2659(3) 0.6331(4)
C14_4 C 0.1646(4) 0.2514(4) 0.6301(5)
H9_4 H 0.1523 0.2415 0.6011
C15_4 C 0.1460(4) 0.2518(4) 0.6719(5)
H10_4 H 0.1207 0.2398 0.6713
C16_4 C 0.1644(3) 0.2697(3) 0.7149(4)
C17_4 C 0.2008(3) 0.2836(3) 0.7158(5)
H11_4 H 0.2133 0.2942 0.7444
C18_4 C 0.2206(4) 0.2825(3) 0.6750(5)
H12_4 H 0.2457 0.2926 0.6762
C19_4 C 0.1430(3) 0.2705(3) 0.7563(4)
C20_4 C 0.1777(3) 0.2809(3) 0.3990(4)
C21_4 C 0.3411(3) 0.2418(3) 0.6177(4)
N1_4 N 0.2211(3) 0.2658(3) 0.5903(4)
O1_4 O 0.1591(2) 0.2865(2) 0.7936(3)
O2_4 O 0.1090(2) 0.2544(2) 0.7511(3)
O3_4 O 0.1805(2) 0.2605(2) 0.3672(3)
O4_4 O 0.1687(2) 0.3040(2) 0.3921(3)
O6_4 O 0.3338(2) 0.2114(2) 0.6332(3)
Zn1_4 Zn 0.1667 0.3333 0.3333
Zn2_4 Zn 0.18052(3) 0.25980(4) 0.29851(4)
O7_4 O 0.1738(2) 0.2099(2) 0.2918(3)
C22_4 C 0.1893(3) 0.1958(3) 0.3148(5)
C23_4 C 0.2294(3) 0.2144(4) 0.3227(5)
H13_4 H 0.2354 0.1986 0.3405
H14_4 H 0.2371 0.2363 0.3409
H15_4 H 0.2416 0.2202 0.2918
N2_4 N 0.1691(3) 0.1616(2) 0.3218(3)
C24_4 C 0.1295(3) 0.1458(4) 0.3105(5)
H16_4 H 0.1169 0.1202 0.3174
H17_4 H 0.1267 0.1495 0.2767
H18_4 H 0.1196 0.1574 0.3301
C25_4 C 0.1826(3) 0.1379(4) 0.3430(5)
H19_4 H 0.1628 0.1133 0.3452
H20_4 H 0.1924 0.1465 0.3749
H21_4 H 0.2013 0.1387 0.3224
C26_4 C 0.2234(5) 0.3693(4) 0.6793(4)
H22_4 H 0.1990 0.3526 0.6849
C27_4 C 0.2455(4) 0.3897(3) 0.7173(4)
C28_4 C 0.2814(4) 0.4129(3) 0.7087(5)
H23_4 H 0.2967 0.4265 0.7340
C29_4 C 0.2956(6) 0.4162(4) 0.6602(5)
H24_4 H 0.3203 0.4318 0.6544
C30_4 C 0.2739(4) 0.3973(3) 0.6236(4)
C31_4 C 0.2374(5) 0.3736(4) 0.6336(5)
H25_4 H 0.2220 0.3602 0.6083
C32_4 C 0.3242(4) 0.4049(3) 0.5700(4)
C33_4 C 0.3342(5) 0.3839(4) 0.5905(5)
H26_4 H 0.3177 0.3643 0.6091
C34_4 C 0.3693(4) 0.3903(3) 0.5851(4)
H27_4 H 0.3761 0.3751 0.6005
C35_4 C 0.3948(4) 0.4194(3) 0.5566(4)
C36_4 C 0.3839(4) 0.4419(3) 0.5354(4)
H28_4 H 0.4002 0.4612 0.5163
C37_4 C 0.3490(4) 0.4362(3) 0.5420(4)
H29_4 H 0.3420 0.4520 0.5290
C38_4 C 0.2684(4) 0.4008(3) 0.5336(4)
C39_4 C 0.2465(6) 0.4153(4) 0.5366(5)
H30_4 H 0.2441 0.4252 0.5656
C40_4 C 0.2275(6) 0.4149(4) 0.4948(5)
H31_4 H 0.2142 0.4269 0.4954
C41_4 C 0.2280(4) 0.3970(3) 0.4518(4)
C42_4 C 0.2505(4) 0.3831(3) 0.4509(5)
H32_4 H 0.2524 0.3725 0.4223
C43_4 C 0.2714(5) 0.3842(3) 0.4917(5)
H33_4 H 0.2864 0.3741 0.4905
C44_4 C 0.2058(4) 0.3962(3) 0.4104(4)
C45_4 C 0.2301(4) 0.3858(3) 0.7677(4)
C46_4 C 0.4326(4) 0.4249(3) 0.5490(4)
N3_4 N 0.2886(4) 0.4009(3) 0.5764(4)
O8_4 O 0.2059(3) 0.3802(2) 0.3731(3)
O9_4 O 0.1879(3) 0.4123(2) 0.4156(3)
O10_4 O 0.2533(3) 0.4062(2) 0.7995(3)
O11_4 O 0.1980(3) 0.3627(2) 0.7746(3)
O12_4 O 0.4370(3) 0.3994(2) 0.5581(3)
O13_4 O 0.4557(3) 0.4553(2) 0.5335(3)
O14_4 O 0.2972(3) 0.4568(2) 0.8749(3)
C47_4 C 0.3268(4) 0.4709(3) 0.8519(5)
C48_4 C 0.3483(5) 0.4523(4) 0.8440(5)
H34_4 H 0.3701 0.4681 0.8262
H35_4 H 0.3341 0.4304 0.8258
H36_4 H 0.3547 0.4465 0.8749
N4_4 N 0.3408(4) 0.5051(2) 0.8449(3)
C49_4 C 0.3170(5) 0.5209(4) 0.8562(5)
H37_4 H 0.3300 0.5465 0.8493
H38_4 H 0.3105 0.5172 0.8900
H39_4 H 0.2955 0.5093 0.8366
C50_4 C 0.3780(5) 0.5288(4) 0.8237(5)
H40_4 H 0.3828 0.5534 0.8215
H41_4 H 0.3792 0.5202 0.7918
H42_4 H 0.3959 0.5280 0.8443
O15_4 O 0.1274(3) 0.2865(2) 0.2936(3)
O16_4 O 0.1454(3) 0.2544(2) 0.2511(3)
O17_4 O 0.2243(2) 0.4123(2) 0.9156(3)
O18_4 O 0.1646(2) 0.3627(2) 0.2746(3)
O20_4 O 0.2296(3) 0.2957(2) 0.2753(3)
O21_4 O 0.2109(3) 0.3329(2) 0.2999(3)
O22_4 O 0.1224(3) 0.3338(2) 0.3668(3)
Zn6_7 Zn 0.5000 0.4999 0.5000
Zn8_4 Zn 0.48615(3) 0.41261(5) 0.53482(4)
Zn9_4 Zn 0.07928(5) 0.25980(4) 0.79851(4)
Zn10_4 Zn 0.15281(3) 0.40687(4) 0.36816(4)
C8_5 C 0.7172(4) 0.0009(5) 0.5762(5)
C9_5 C 0.7236(3) 0.0360(4) 0.5816(4)
H6_5 H 0.7084 0.0428 0.5662
C10_5 C 0.7527(3) 0.0615(4) 0.6101(4)
C11_5 C 0.7752(3) 0.0506(4) 0.6313(4)
H7_5 H 0.7945 0.0669 0.6504
C12_5 C 0.7695(3) 0.0157(4) 0.6247(4)
H8_5 H 0.7853 0.0087 0.6377
C21_5 C 0.7582(3) 0.0993(4) 0.6177(4)
O6_5 O 0.7886(2) 0.1224(3) 0.6332(3)
C23_5 C 0.7856(4) 0.0150(5) 0.3227(5)
H13_5 H 0.8014 0.0368 0.3405
H14_5 H 0.7637 0.0008 0.3409
H15_5 H 0.7798 0.0214 0.2918
N2_5 N 0.8384(2) 0.0075(4) 0.3218(3)
C25_5 C 0.8621(4) 0.0447(5) 0.3430(5)
H19_5 H 0.8867 0.0495 0.3452
H20_5 H 0.8535 0.0459 0.3749
H21_5 H 0.8613 0.0626 0.3224
H27_5 H 0.6249 0.0011 0.6005
C46_5 C 0.5751(3) 0.0078(5) 0.5490(4)
O12_5 O 0.6006(2) 0.0377(4) 0.5581(3)
O13_5 O 0.5447(2) 0.0005(4) 0.5335(3)
Zn6_8 Zn 0.5001 0.0000 0.5000
Zn8_5 Zn 0.58739(5) 0.07353(6) 0.53482(4)
C1_5 C 0.7026(4) 0.8901(5) 0.4874(4)
H1_5 H 0.6859 0.8657 0.4818
C2_5 C 0.7230(3) 0.9122(4) 0.4494(4)
C3_5 C 0.7462(3) 0.9481(4) 0.4580(5)
H2_5 H 0.7598 0.9634 0.4327
C4_5 C 0.7495(4) 0.9623(6) 0.5065(5)
H3_5 H 0.7651 0.9870 0.5123
C5_5 C 0.7306(3) 0.9406(4) 0.5431(4)
C6_5 C 0.7069(4) 0.9041(5) 0.5331(5)
H4_5 H 0.6935 0.8887 0.5584
C7_5 C 0.7382(3) 0.9909(4) 0.5967(4)
H5_5 H 0.6976 0.9844 0.5576
C13_5 C 0.7341(3) 0.9351(4) 0.6331(4)
C14_5 C 0.7486(4) 0.9132(6) 0.6301(5)
H9_5 H 0.7585 0.9108 0.6011
C15_5 C 0.7482(4) 0.8942(6) 0.6719(5)
H10_5 H 0.7602 0.8809 0.6713
C16_5 C 0.7303(3) 0.8947(4) 0.7149(4)
C17_5 C 0.7164(3) 0.9172(4) 0.7158(5)
H11_5 H 0.7058 0.9191 0.7444
C18_5 C 0.7175(3) 0.9381(5) 0.6750(5)
H12_5 H 0.7074 0.9531 0.6762
C19_5 C 0.7295(3) 0.8725(4) 0.7563(4)
C20_5 C 0.7191(3) 0.8968(4) 0.3990(4)
N1_5 N 0.7342(3) 0.9553(4) 0.5903(4)
O1_5 O 0.7135(2) 0.8726(3) 0.7936(3)
O2_5 O 0.7456(2) 0.8546(3) 0.7511(3)
O3_5 O 0.7395(2) 0.9200(3) 0.3672(3)
O4_5 O 0.6960(2) 0.8647(3) 0.3921(3)
Zn1_5 Zn 0.6667 0.8334 0.3333
Zn2_5 Zn 0.74020(4) 0.92072(5) 0.29851(4)
O7_5 O 0.7901(2) 0.9639(3) 0.2918(3)
C22_5 C 0.8042(3) 0.9935(4) 0.3148(5)
C24_5 C 0.8542(4) 0.9837(5) 0.3105(5)
H16_5 H 0.8798 0.9967 0.3174
H17_5 H 0.8505 0.9772 0.2767
H18_5 H 0.8426 0.9622 0.3301
C26_5 C 0.6307(4) 0.8542(6) 0.6793(4)
H22_5 H 0.6474 0.8465 0.6849
C27_5 C 0.6103(3) 0.8559(5) 0.7173(4)
C28_5 C 0.5871(3) 0.8686(5) 0.7087(5)
H23_5 H 0.5735 0.8703 0.7340
C29_5 C 0.5838(4) 0.8795(7) 0.6602(5)
H24_5 H 0.5682 0.8886 0.6544
C30_5 C 0.6027(3) 0.8767(5) 0.6236(4)
C31_5 C 0.6264(4) 0.8639(6) 0.6336(5)
H25_5 H 0.6398 0.8619 0.6083
C32_5 C 0.5951(3) 0.9194(5) 0.5700(4)
C33_5 C 0.6161(4) 0.9504(6) 0.5905(5)
H26_5 H 0.6357 0.9535 0.6091
C34_5 C 0.6097(3) 0.9791(5) 0.5851(4)
C35_5 C 0.5806(3) 0.9755(5) 0.5566(4)
C36_5 C 0.5581(3) 0.9421(5) 0.5354(4)
H28_5 H 0.5388 0.9391 0.5163
C37_5 C 0.5638(3) 0.9129(5) 0.5420(4)
H29_5 H 0.5480 0.8901 0.5290
C38_5 C 0.5992(3) 0.8677(5) 0.5336(4)
C39_5 C 0.5847(4) 0.8313(7) 0.5366(5)
H30_5 H 0.5748 0.8190 0.5656
C40_5 C 0.5851(4) 0.8127(7) 0.4948(5)
H31_5 H 0.5731 0.7874 0.4954
C41_5 C 0.6030(3) 0.8311(5) 0.4518(4)
C42_5 C 0.6169(3) 0.8675(5) 0.4509(5)
H32_5 H 0.6275 0.8800 0.4223
C43_5 C 0.6158(3) 0.8873(6) 0.4917(5)
H33_5 H 0.6259 0.9124 0.4905
C44_5 C 0.6038(3) 0.8097(5) 0.4104(4)
C45_5 C 0.6142(3) 0.8444(5) 0.7677(4)
N3_5 N 0.5991(3) 0.8878(5) 0.5764(4)
O8_5 O 0.6198(2) 0.8258(4) 0.3731(3)
O9_5 O 0.5877(2) 0.7757(4) 0.4156(3)
O10_5 O 0.5938(2) 0.8472(4) 0.7995(3)
O11_5 O 0.6373(2) 0.8354(4) 0.7746(3)
O14_5 O 0.5432(2) 0.8405(4) 0.8749(3)
C47_5 C 0.5291(3) 0.8560(5) 0.8519(5)
C48_5 C 0.5477(4) 0.8961(6) 0.8440(5)
H34_5 H 0.5319 0.9021 0.8262
H35_5 H 0.5696 0.9038 0.8258
H36_5 H 0.5535 0.9083 0.8749
N4_5 N 0.4949(2) 0.8358(4) 0.8449(3)
C49_5 C 0.4791(4) 0.7962(6) 0.8562(5)
H37_5 H 0.4535 0.7836 0.8493
H38_5 H 0.4828 0.7934 0.8900
H39_5 H 0.4907 0.7863 0.8366
C50_5 C 0.4712(4) 0.8493(6) 0.8237(5)
H40_5 H 0.4466 0.8295 0.8215
H41_5 H 0.4798 0.8591 0.7918
H42_5 H 0.4720 0.8680 0.8443
O15_5 O 0.7135(2) 0.8409(4) 0.2936(3)
O16_5 O 0.7456(2) 0.8910(4) 0.2511(3)
O17_5 O 0.5877(2) 0.8121(3) 0.9156(3)
O18_5 O 0.6373(2) 0.8020(3) 0.2746(3)
O20_5 O 0.7043(2) 0.9340(4) 0.2753(3)
O21_5 O 0.6671(2) 0.8781(4) 0.2999(3)
O22_5 O 0.6662(2) 0.7886(4) 0.3668(3)
Zn9_5 Zn 0.74020(4) 0.81948(6) 0.79851(4)
Zn10_5 Zn 0.59313(4) 0.74595(5) 0.36816(4)
C1_6 C 0.1099(5) 0.8125(3) 0.4874(4)
H1_6 H 0.1343 0.8202 0.4818
C2_6 C 0.0878(4) 0.8108(3) 0.4494(4)
C3_6 C 0.0519(4) 0.7981(3) 0.4580(5)
H2_6 H 0.0366 0.7964 0.4327
C4_6 C 0.0377(6) 0.7872(4) 0.5065(5)
H3_6 H 0.0130 0.7781 0.5123
C5_6 C 0.0594(4) 0.7900(3) 0.5431(4)
C6_6 C 0.0959(5) 0.8028(3) 0.5331(5)
H4_6 H 0.1113 0.8048 0.5584
C7_6 C 0.0091(4) 0.7473(3) 0.5967(4)
H5_6 H 0.0156 0.7132 0.5576
C13_6 C 0.0649(4) 0.7990(3) 0.6331(4)
C14_6 C 0.0868(6) 0.8354(4) 0.6301(5)
H9_6 H 0.0892 0.8477 0.6011
C15_6 C 0.1058(6) 0.8540(4) 0.6719(5)
H10_6 H 0.1191 0.8793 0.6713
C16_6 C 0.1053(4) 0.8356(3) 0.7149(4)
C17_6 C 0.0828(4) 0.7992(3) 0.7158(5)
H11_6 H 0.0809 0.7867 0.7444
C18_6 C 0.0619(5) 0.7794(4) 0.6750(5)
H12_6 H 0.0469 0.7543 0.6762
C19_6 C 0.1275(4) 0.8570(3) 0.7563(4)
C20_6 C 0.1032(4) 0.8223(3) 0.3990(4)
N1_6 N 0.0447(4) 0.7789(3) 0.5903(4)
O1_6 O 0.1274(3) 0.8409(2) 0.7936(3)
O2_6 O 0.1454(3) 0.8910(2) 0.7511(3)
O3_6 O 0.0800(3) 0.8195(2) 0.3672(3)
O4_6 O 0.1353(3) 0.8313(2) 0.3921(3)
Zn1_6 Zn 0.1666 0.8333 0.3333
Zn2_6 Zn 0.07928(5) 0.81948(3) 0.29851(4)
O7_6 O 0.0361(3) 0.8262(2) 0.2918(3)
C22_6 C 0.0065(4) 0.8107(3) 0.3148(5)
C24_6 C 0.0163(5) 0.8705(3) 0.3105(5)
H16_6 H 0.0033 0.8831 0.3174
H17_6 H 0.0228 0.8733 0.2767
H18_6 H 0.0378 0.8804 0.3301
C26_6 C 0.1458(6) 0.7766(5) 0.6793(4)
H22_6 H 0.1535 0.8010 0.6849
C27_6 C 0.1441(5) 0.7545(4) 0.7173(4)
C28_6 C 0.1314(5) 0.7186(4) 0.7087(5)
H23_6 H 0.1297 0.7033 0.7340
C29_6 C 0.1205(7) 0.7044(6) 0.6602(5)
H24_6 H 0.1114 0.6797 0.6544
C30_6 C 0.1233(5) 0.7261(4) 0.6236(4)
C31_6 C 0.1361(6) 0.7626(5) 0.6336(5)
H25_6 H 0.1381 0.7780 0.6083
C32_6 C 0.0806(5) 0.6758(4) 0.5700(4)
C33_6 C 0.0496(6) 0.6658(5) 0.5905(5)
H26_6 H 0.0465 0.6823 0.6091
C34_6 C 0.0209(5) 0.6307(4) 0.5851(4)
C35_6 C 0.0245(5) 0.6052(4) 0.5566(4)
C36_6 C 0.0579(5) 0.6161(4) 0.5354(4)
H28_6 H 0.0609 0.5998 0.5163
C37_6 C 0.0871(5) 0.6510(4) 0.5420(4)
H29_6 H 0.1099 0.6580 0.5290
C38_6 C 0.1323(5) 0.7316(4) 0.5336(4)
C39_6 C 0.1687(7) 0.7535(6) 0.5366(5)
H30_6 H 0.1810 0.7559 0.5656
C40_6 C 0.1873(7) 0.7725(6) 0.4948(5)
H31_6 H 0.2126 0.7858 0.4954
C41_6 C 0.1689(5) 0.7720(4) 0.4518(4)
C42_6 C 0.1325(5) 0.7495(4) 0.4509(5)
H32_6 H 0.1200 0.7476 0.4223
C43_6 C 0.1127(6) 0.7286(5) 0.4917(5)
H33_6 H 0.0876 0.7136 0.4905
C44_6 C 0.1903(5) 0.7942(4) 0.4104(4)
C45_6 C 0.1556(5) 0.7699(4) 0.7677(4)
N3_6 N 0.1122(5) 0.7114(4) 0.5764(4)
O8_6 O 0.1742(4) 0.7941(3) 0.3731(3)
O9_6 O 0.2243(4) 0.8121(3) 0.4156(3)
O10_6 O 0.1528(4) 0.7467(3) 0.7995(3)
O11_6 O 0.1646(4) 0.8020(3) 0.7746(3)
O14_6 O 0.1595(4) 0.7028(3) 0.8749(3)
C47_6 C 0.1440(5) 0.6732(4) 0.8519(5)
C48_6 C 0.1039(6) 0.6517(5) 0.8440(5)
H34_6 H 0.0979 0.6299 0.8262
H35_6 H 0.0962 0.6659 0.8258
H36_6 H 0.0917 0.6453 0.8749
N4_6 N 0.1642(4) 0.6592(4) 0.8449(3)
C49_6 C 0.2038(6) 0.6830(5) 0.8562(5)
H37_6 H 0.2164 0.6700 0.8493
H38_6 H 0.2066 0.6895 0.8900
H39_6 H 0.2137 0.7045 0.8366
C50_6 C 0.1507(6) 0.6220(5) 0.8237(5)
H40_6 H 0.1705 0.6172 0.8215
H41_6 H 0.1409 0.6208 0.7918
H42_6 H 0.1320 0.6041 0.8443
O15_6 O 0.1591(4) 0.8726(3) 0.2936(3)
O16_6 O 0.1090(4) 0.8546(3) 0.2511(3)
O17_6 O 0.1879(3) 0.7757(2) 0.9156(3)
O18_6 O 0.1980(3) 0.8354(2) 0.2746(3)
O20_6 O 0.0660(4) 0.7704(3) 0.2753(3)
O21_6 O 0.1219(4) 0.7891(3) 0.2999(3)
O22_6 O 0.2114(4) 0.8776(3) 0.3668(3)
Zn9_6 Zn 0.18052(6) 0.92072(5) 0.79851(4)
Zn10_6 Zn 0.25405(5) 0.84719(3) 0.36816(4)
C8_6 C 0.9991(5) 0.7163(3) 0.5762(5)
C9_6 C 0.9640(4) 0.6876(3) 0.5816(4)
H6_6 H 0.9572 0.6656 0.5662
C10_6 C 0.9385(4) 0.6912(3) 0.6101(4)
C11_6 C 0.9494(4) 0.7246(3) 0.6313(4)
H7_6 H 0.9331 0.7276 0.6504
C12_6 C 0.9843(4) 0.7538(3) 0.6247(4)
H8_6 H 0.9913 0.7766 0.6377
C21_6 C 0.9007(4) 0.6589(3) 0.6177(4)
O6_6 O 0.8776(3) 0.6662(2) 0.6332(3)
C23_6 C 0.9850(5) 0.7706(3) 0.3227(5)
H13_6 H 0.9632 0.7646 0.3405
H14_6 H 0.9992 0.7629 0.3409
H15_6 H 0.9786 0.7584 0.2918
N2_6 N 0.9925(4) 0.8309(3) 0.3218(3)
C25_6 C 0.9553(5) 0.8174(3) 0.3430(5)
H19_6 H 0.9505 0.8372 0.3452
H20_6 H 0.9541 0.8076 0.3749
H21_6 H 0.9374 0.7987 0.3224
H27_6 H 0.9989 0.6239 0.6005
C46_6 C 0.9922(5) 0.5674(4) 0.5490(4)
O12_6 O 0.9623(4) 0.5630(3) 0.5581(3)
O13_6 O 0.9995(4) 0.5443(3) 0.5335(3)
Zn6_9 Zn 1.0000 0.5000 0.5000
Zn8_6 Zn 0.92647(6) 0.51385(3) 0.53482(4)
C26_7 C 0.0359(4) 0.5568(5) 0.1541(4)
H22_7 H 0.0192 0.5324 0.1485
C27_7 C 0.0563(3) 0.5789(4) 0.1161(4)
C28_7 C 0.0795(3) 0.6148(4) 0.1247(5)
H23_7 H 0.0931 0.6301 0.0994
C29_7 C 0.0828(4) 0.6290(6) 0.1732(5)
H24_7 H 0.0984 0.6537 0.1790
C30_7 C 0.0639(3) 0.6073(4) 0.2098(4)
C31_7 C 0.0402(4) 0.5708(5) 0.1998(5)
H25_7 H 0.0268 0.5554 0.2251
C32_7 C 0.0715(3) 0.6576(4) 0.2634(4)
C33_7 C 0.0505(4) 0.6676(5) 0.2429(5)
H26_7 H 0.0309 0.6511 0.2243
C34_7 C 0.0569(3) 0.7027(4) 0.2483(4)
H27_7 H 0.0417 0.7095 0.2329
C35_7 C 0.0860(3) 0.7282(4) 0.2768(4)
C36_7 C 0.1085(3) 0.7173(4) 0.2980(4)
H28_7 H 0.1278 0.7336 0.3171
C37_7 C 0.1028(3) 0.6824(4) 0.2914(4)
H29_7 H 0.1186 0.6754 0.3044
C38_7 C 0.0674(3) 0.6018(4) 0.2998(4)
C39_7 C 0.0819(4) 0.5799(6) 0.2968(5)
H30_7 H 0.0918 0.5775 0.2678
C40_7 C 0.0815(4) 0.5609(6) 0.3386(5)
H31_7 H 0.0935 0.5476 0.3380
C41_7 C 0.0636(3) 0.5614(4) 0.3816(4)
C42_7 C 0.0497(3) 0.5839(4) 0.3825(5)
H32_7 H 0.0391 0.5858 0.4111
C43_7 C 0.0508(3) 0.6048(5) 0.3417(5)
H33_7 H 0.0407 0.6198 0.3429
C44_7 C 0.0628(3) 0.5392(4) 0.4230(4)
C45_7 C 0.0524(3) 0.5635(4) 0.0657(4)
C46_7 C 0.0915(3) 0.7660(4) 0.2844(4)
N3_7 N 0.0675(3) 0.6220(4) 0.2570(4)
O8_7 O 0.0468(2) 0.5393(3) 0.4603(3)
O9_7 O 0.0789(2) 0.5213(3) 0.4178(3)
O10_7 O 0.0728(2) 0.5867(3) 0.0339(3)
O11_7 O 0.0293(2) 0.5314(3) 0.0588(3)
H34_7 H 0.1347 0.7035 0.0072
H35_7 H 0.0970 0.6675 0.0076
C50_7 C 0.1954(4) 0.7114(5) 0.0097(5)
H40_7 H 0.2200 0.7162 0.0119
H41_7 H 0.1868 0.7126 0.0416
O18_7 O 0.0293(2) 0.4980(2) 0.5588(3)
O22_7 O 0.0005(2) 0.4557(3) 0.4665(3)
Zn10_7 Zn 0.07353(4) 0.48615(3) 0.46518(4)
O14_7 O 0.1234(2) 0.6306(3) 0.9585(3)
C47_7 C 0.1375(3) 0.6602(4) 0.9815(5)
C48_7 C 0.1189(4) 0.6817(5) 0.9894(5)
H36_7 H 0.1131 0.6881 0.9585
N4_7 N 0.1717(2) 0.6742(4) 0.9885(3)
C49_7 C 0.1875(4) 0.6504(5) 0.9772(5)
H37_7 H 0.2131 0.6634 0.9841
H38_7 H 0.1838 0.6439 0.9434
H39_7 H 0.1759 0.6289 0.9968
H42_7 H 0.1946 0.7293 0.9891
O17_7 O 0.0789(2) 0.5577(2) 0.9178(3)
C1_7 C 0.9641(4) 0.5208(3) 0.3459(4)
H1_7 H 0.9808 0.5131 0.3515
C2_7 C 0.9437(3) 0.5225(3) 0.3839(4)
C3_7 C 0.9205(3) 0.5352(3) 0.3753(5)
H2_7 H 0.9069 0.5369 0.4006
C4_7 C 0.9172(4) 0.5461(4) 0.3268(5)
H3_7 H 0.9016 0.5552 0.3210
C5_7 C 0.9361(3) 0.5433(3) 0.2902(4)
C6_7 C 0.9598(4) 0.5305(3) 0.3002(5)
H4_7 H 0.9732 0.5285 0.2749
C7_7 C 0.9285(3) 0.5860(3) 0.2366(4)
C8_7 C 0.9495(4) 0.6170(3) 0.2571(5)
H5_7 H 0.9691 0.6201 0.2757
C9_7 C 0.9431(3) 0.6457(3) 0.2517(4)
H6_7 H 0.9583 0.6677 0.2671
C10_7 C 0.9140(3) 0.6421(3) 0.2232(4)
C11_7 C 0.8915(3) 0.6087(3) 0.2020(4)
H7_7 H 0.8722 0.6057 0.1829
C12_7 C 0.8972(3) 0.5795(3) 0.2086(4)
H8_7 H 0.8814 0.5567 0.1956
C13_7 C 0.9326(3) 0.5343(3) 0.2002(4)
C14_7 C 0.9181(4) 0.4979(4) 0.2032(5)
H9_7 H 0.9082 0.4856 0.2322
C15_7 C 0.9185(4) 0.4793(4) 0.1614(5)
H10_7 H 0.9065 0.4540 0.1620
C16_7 C 0.9364(3) 0.4977(3) 0.1184(4)
C17_7 C 0.9503(3) 0.5341(3) 0.1175(5)
H11_7 H 0.9609 0.5466 0.0889
C18_7 C 0.9492(3) 0.5539(4) 0.1583(5)
H12_7 H 0.9593 0.5790 0.1571
C19_7 C 0.9372(3) 0.4763(3) 0.0770(4)
C20_7 C 0.9476(3) 0.5110(3) 0.4343(4)
C21_7 C 0.9085(3) 0.6744(3) 0.2156(4)
N1_7 N 0.9325(3) 0.5544(3) 0.2430(4)
O1_7 O 0.9532(2) 0.4924(2) 0.0397(3)
O2_7 O 0.9211(2) 0.4423(2) 0.0822(3)
O3_7 O 0.9272(2) 0.5138(2) 0.4661(3)
O4_7 O 0.9707(2) 0.5020(2) 0.4412(3)
O7_7 O 0.8766(2) 0.5071(2) 0.5415(3)
C22_7 C 0.8625(3) 0.5226(3) 0.5185(5)
C23_7 C 0.8811(4) 0.5627(3) 0.5106(5)
H13_7 H 0.8653 0.5687 0.4928
H14_7 H 0.9030 0.5704 0.4924
H15_7 H 0.8869 0.5749 0.5415
N2_7 N 0.8283(2) 0.5024(3) 0.5115(3)
C24_7 C 0.8125(4) 0.4628(3) 0.5228(5)
H16_7 H 0.7869 0.4502 0.5159
H17_7 H 0.8162 0.4600 0.5566
H18_7 H 0.8241 0.4529 0.5032
C25_7 C 0.8046(4) 0.5159(3) 0.4903(5)
H19_7 H 0.7800 0.4961 0.4881
H20_7 H 0.8132 0.5257 0.4584
H21_7 H 0.8054 0.5346 0.5109
O15_7 O 0.9532(2) 0.4607(3) 0.5397(3)
O16_7 O 0.9211(2) 0.4787(3) 0.5822(3)
Zn9_7 Zn 0.92647(4) 0.41261(5) 0.03482(4)
C1_8 C 0.4792(3) 0.4432(5) 0.3459(4)
H1_8 H 0.4869 0.4676 0.3515
C2_8 C 0.4775(3) 0.4211(4) 0.3839(4)
C3_8 C 0.4648(3) 0.3852(4) 0.3753(5)
H2_8 H 0.4631 0.3699 0.4006
C4_8 C 0.4539(4) 0.3710(6) 0.3268(5)
H3_8 H 0.4448 0.3463 0.3210
C5_8 C 0.4567(3) 0.3927(4) 0.2902(4)
C6_8 C 0.4695(3) 0.4292(5) 0.3002(5)
H4_8 H 0.4715 0.4446 0.2749
C7_8 C 0.4140(3) 0.3424(4) 0.2366(4)
C8_8 C 0.3830(3) 0.3324(5) 0.2571(5)
H5_8 H 0.3799 0.3489 0.2757
C9_8 C 0.3543(3) 0.2973(4) 0.2517(4)
H6_8 H 0.3323 0.2905 0.2671
C10_8 C 0.3579(3) 0.2718(4) 0.2232(4)
C11_8 C 0.3913(3) 0.2827(4) 0.2020(4)
H7_8 H 0.3943 0.2664 0.1829
C12_8 C 0.4205(3) 0.3176(4) 0.2086(4)
H8_8 H 0.4433 0.3246 0.1956
C13_8 C 0.4657(3) 0.3982(4) 0.2002(4)
C14_8 C 0.5021(4) 0.4201(6) 0.2032(5)
H9_8 H 0.5144 0.4225 0.2322
C15_8 C 0.5207(4) 0.4391(6) 0.1614(5)
H10_8 H 0.5460 0.4524 0.1620
C16_8 C 0.5023(3) 0.4386(4) 0.1184(4)
C17_8 C 0.4659(3) 0.4161(4) 0.1175(5)
H11_8 H 0.4534 0.4142 0.0889
C18_8 C 0.4461(4) 0.3952(5) 0.1583(5)
H12_8 H 0.4210 0.3802 0.1571
C19_8 C 0.5237(3) 0.4608(4) 0.0770(4)
C20_8 C 0.4890(3) 0.4365(4) 0.4343(4)
C21_8 C 0.3256(3) 0.2340(4) 0.2156(4)
N1_8 N 0.4456(3) 0.3780(4) 0.2430(4)
O1_8 O 0.5076(2) 0.4607(3) 0.0397(3)
O2_8 O 0.5577(2) 0.4787(3) 0.0822(3)
O3_8 O 0.4862(2) 0.4133(3) 0.4661(3)
O4_8 O 0.4980(2) 0.4686(3) 0.4412(3)
O7_8 O 0.4929(2) 0.3694(3) 0.5415(3)
C22_8 C 0.4774(3) 0.3398(4) 0.5185(5)
C23_8 C 0.4373(3) 0.3183(5) 0.5106(5)
H13_8 H 0.4313 0.2965 0.4928
H14_8 H 0.4296 0.3325 0.4924
H15_8 H 0.4251 0.3119 0.5415
N2_8 N 0.4976(3) 0.3258(4) 0.5115(3)
C24_8 C 0.5372(3) 0.3496(5) 0.5228(5)
H16_8 H 0.5498 0.3366 0.5159
H17_8 H 0.5400 0.3561 0.5566
H18_8 H 0.5471 0.3711 0.5032
C25_8 C 0.4841(3) 0.2886(5) 0.4903(5)
H19_8 H 0.5039 0.2838 0.4881
H20_8 H 0.4743 0.2874 0.4584
H21_8 H 0.4654 0.2707 0.5109
C26_8 C 0.4432(5) 0.4792(6) 0.1541(4)
H22_8 H 0.4676 0.4869 0.1485
C27_8 C 0.4211(4) 0.4775(5) 0.1161(4)
C28_8 C 0.3852(4) 0.4648(5) 0.1247(5)
H23_8 H 0.3699 0.4631 0.0994
C29_8 C 0.3710(6) 0.4539(7) 0.1732(5)
H24_8 H 0.3463 0.4448 0.1790
C30_8 C 0.3927(4) 0.4567(5) 0.2098(4)
C31_8 C 0.4292(5) 0.4695(6) 0.1998(5)
H25_8 H 0.4446 0.4715 0.2251
C32_8 C 0.3424(4) 0.4140(5) 0.2634(4)
C33_8 C 0.3324(5) 0.3830(6) 0.2429(5)
H26_8 H 0.3489 0.3799 0.2243
C34_8 C 0.2973(4) 0.3543(5) 0.2483(4)
H27_8 H 0.2905 0.3323 0.2329
C35_8 C 0.2718(4) 0.3579(5) 0.2768(4)
C36_8 C 0.2827(4) 0.3913(5) 0.2980(4)
H28_8 H 0.2664 0.3943 0.3171
C37_8 C 0.3176(4) 0.4205(5) 0.2914(4)
H29_8 H 0.3246 0.4433 0.3044
C38_8 C 0.3982(4) 0.4657(5) 0.2998(4)
C39_8 C 0.4201(6) 0.5021(7) 0.2968(5)
H30_8 H 0.4225 0.5144 0.2678
C40_8 C 0.4391(6) 0.5207(7) 0.3386(5)
H31_8 H 0.4524 0.5460 0.3380
C41_8 C 0.4386(4) 0.5023(5) 0.3816(4)
C42_8 C 0.4161(4) 0.4659(5) 0.3825(5)
H32_8 H 0.4142 0.4534 0.4111
C43_8 C 0.3952(5) 0.4461(6) 0.3417(5)
H33_8 H 0.3802 0.4210 0.3429
C44_8 C 0.4608(4) 0.5237(5) 0.4230(4)
C45_8 C 0.4365(4) 0.4890(5) 0.0657(4)
C46_8 C 0.2340(4) 0.3256(5) 0.2844(4)
N3_8 N 0.3780(4) 0.4456(5) 0.2570(4)
O8_8 O 0.4607(3) 0.5076(4) 0.4603(3)
O9_8 O 0.4787(3) 0.5577(4) 0.4178(3)
O10_8 O 0.4133(3) 0.4862(4) 0.0339(3)
O11_8 O 0.4686(3) 0.4980(4) 0.0588(3)
H34_8 H 0.2965 0.4313 0.0072
H35_8 H 0.3325 0.4296 0.0076
C50_8 C 0.2886(5) 0.4841(6) 0.0097(5)
H40_8 H 0.2838 0.5039 0.0119
H41_8 H 0.2874 0.4743 0.0416
O15_8 O 0.5393(3) 0.4924(4) 0.5397(3)
O16_8 O 0.5213(3) 0.4423(4) 0.5822(3)
O18_8 O 0.5020(2) 0.5314(3) 0.5588(3)
O22_8 O 0.5443(3) 0.5447(4) 0.4665(3)
Zn9_8 Zn 0.58739(5) 0.51385(6) 0.03482(4)
Zn10_8 Zn 0.51385(3) 0.58739(5) 0.46518(4)
O14_8 O 0.3694(3) 0.4929(4) 0.9585(3)
C47_8 C 0.3398(4) 0.4774(5) 0.9815(5)
C48_8 C 0.3183(5) 0.4373(6) 0.9894(5)
H36_8 H 0.3119 0.4251 0.9585
N4_8 N 0.3258(4) 0.4976(4) 0.9885(3)
C49_8 C 0.3496(5) 0.5372(6) 0.9772(5)
H37_8 H 0.3366 0.5498 0.9841
H38_8 H 0.3561 0.5400 0.9434
H39_8 H 0.3711 0.5471 0.9968
H42_8 H 0.2707 0.4654 0.9891
O17_8 O 0.4423(2) 0.5213(3) 0.9178(3)
C1_9 C 0.5568(5) 0.0359(4) 0.3459(4)
H1_9 H 0.5324 0.0192 0.3515
C2_9 C 0.5789(4) 0.0563(3) 0.3839(4)
C3_9 C 0.6148(4) 0.0795(3) 0.3753(5)
H2_9 H 0.6301 0.0931 0.4006
C4_9 C 0.6290(6) 0.0828(4) 0.3268(5)
H3_9 H 0.6537 0.0984 0.3210
C5_9 C 0.6073(4) 0.0639(3) 0.2902(4)
C6_9 C 0.5708(5) 0.0402(4) 0.3002(5)
H4_9 H 0.5554 0.0268 0.2749
C7_9 C 0.6576(4) 0.0715(3) 0.2366(4)
C8_9 C 0.6676(5) 0.0505(4) 0.2571(5)
H5_9 H 0.6511 0.0309 0.2757
C9_9 C 0.7027(4) 0.0569(3) 0.2517(4)
H6_9 H 0.7095 0.0417 0.2671
C10_9 C 0.7282(4) 0.0860(3) 0.2232(4)
C11_9 C 0.7173(4) 0.1085(3) 0.2020(4)
H7_9 H 0.7336 0.1278 0.1829
C12_9 C 0.6824(4) 0.1028(3) 0.2086(4)
H8_9 H 0.6754 0.1186 0.1956
C13_9 C 0.6018(4) 0.0674(3) 0.2002(4)
C14_9 C 0.5799(6) 0.0819(4) 0.2032(5)
H9_9 H 0.5775 0.0918 0.2322
C15_9 C 0.5609(6) 0.0815(4) 0.1614(5)
H10_9 H 0.5476 0.0935 0.1620
C16_9 C 0.5614(4) 0.0636(3) 0.1184(4)
C17_9 C 0.5839(4) 0.0497(3) 0.1175(5)
H11_9 H 0.5858 0.0391 0.0889
C18_9 C 0.6048(5) 0.0508(3) 0.1583(5)
H12_9 H 0.6198 0.0407 0.1571
C19_9 C 0.5392(4) 0.0628(3) 0.0770(4)
C20_9 C 0.5635(4) 0.0524(3) 0.4343(4)
C21_9 C 0.7660(4) 0.0915(3) 0.2156(4)
N1_9 N 0.6220(4) 0.0675(3) 0.2430(4)
O1_9 O 0.5393(3) 0.0468(2) 0.0397(3)
O2_9 O 0.5213(3) 0.0789(2) 0.0822(3)
O3_9 O 0.5867(3) 0.0728(2) 0.4661(3)
O4_9 O 0.5314(3) 0.0293(2) 0.4412(3)
O7_9 O 0.6306(3) 0.1234(2) 0.5415(3)
C22_9 C 0.6602(4) 0.1375(3) 0.5185(5)
C23_9 C 0.6817(5) 0.1189(4) 0.5106(5)
H13_9 H 0.7035 0.1347 0.4928
H14_9 H 0.6675 0.0970 0.4924
H15_9 H 0.6881 0.1131 0.5415
N2_9 N 0.6742(4) 0.1717(2) 0.5115(3)
C24_9 C 0.6504(5) 0.1875(4) 0.5228(5)
H16_9 H 0.6634 0.2131 0.5159
H17_9 H 0.6439 0.1838 0.5566
H18_9 H 0.6289 0.1759 0.5032
C25_9 C 0.7114(5) 0.1954(4) 0.4903(5)
H19_9 H 0.7162 0.2200 0.4881
H20_9 H 0.7126 0.1868 0.4584
H21_9 H 0.7293 0.1946 0.5109
O15_9 O 0.5076(4) 0.0468(2) 0.5397(3)
O16_9 O 0.5577(4) 0.0789(2) 0.5822(3)
Zn9_9 Zn 0.48615(6) 0.07353(4) 0.03482(4)
C26_9 C 0.5208(6) 0.9641(4) 0.1541(4)
H22_9 H 0.5131 0.9808 0.1485
C27_9 C 0.5225(5) 0.9437(3) 0.1161(4)
C28_9 C 0.5352(5) 0.9205(3) 0.1247(5)
H23_9 H 0.5369 0.9069 0.0994
C29_9 C 0.5461(7) 0.9172(4) 0.1732(5)
H24_9 H 0.5552 0.9016 0.1790
C30_9 C 0.5433(5) 0.9361(3) 0.2098(4)
C31_9 C 0.5305(6) 0.9598(4) 0.1998(5)
H25_9 H 0.5285 0.9732 0.2251
C32_9 C 0.5860(5) 0.9285(3) 0.2634(4)
C33_9 C 0.6170(6) 0.9495(4) 0.2429(5)
H26_9 H 0.6201 0.9691 0.2243
C34_9 C 0.6457(5) 0.9431(3) 0.2483(4)
H27_9 H 0.6677 0.9583 0.2329
C35_9 C 0.6421(5) 0.9140(3) 0.2768(4)
C36_9 C 0.6087(5) 0.8915(3) 0.2980(4)
H28_9 H 0.6057 0.8722 0.3171
C37_9 C 0.5795(5) 0.8972(3) 0.2914(4)
H29_9 H 0.5567 0.8814 0.3044
C38_9 C 0.5343(5) 0.9326(3) 0.2998(4)
C39_9 C 0.4979(7) 0.9181(4) 0.2968(5)
H30_9 H 0.4856 0.9082 0.2678
C40_9 C 0.4793(7) 0.9185(4) 0.3386(5)
H31_9 H 0.4540 0.9065 0.3380
C41_9 C 0.4977(5) 0.9364(3) 0.3816(4)
C42_9 C 0.5341(5) 0.9503(3) 0.3825(5)
H32_9 H 0.5466 0.9609 0.4111
C43_9 C 0.5539(6) 0.9492(3) 0.3417(5)
H33_9 H 0.5790 0.9593 0.3429
C44_9 C 0.4763(5) 0.9372(3) 0.4230(4)
C45_9 C 0.5110(5) 0.9476(3) 0.0657(4)
C46_9 C 0.6744(5) 0.9085(3) 0.2844(4)
N3_9 N 0.5544(5) 0.9325(3) 0.2570(4)
O8_9 O 0.4924(4) 0.9532(2) 0.4603(3)
O9_9 O 0.4423(4) 0.9211(2) 0.4178(3)
O10_9 O 0.5138(4) 0.9272(2) 0.0339(3)
O11_9 O 0.5020(4) 0.9707(2) 0.0588(3)
H34_9 H 0.5687 0.8653 0.0072
H35_9 H 0.5704 0.9030 0.0076
C50_9 C 0.5159(6) 0.8046(4) 0.0097(5)
H40_9 H 0.4961 0.7800 0.0119
H41_9 H 0.5257 0.8132 0.0416
O18_9 O 0.4686(3) 0.9707(2) 0.5588(3)
O22_9 O 0.4553(4) 0.9995(2) 0.4665(3)
Zn10_9 Zn 0.41261(5) 0.92647(4) 0.46518(4)
O14_9 O 0.5071(4) 0.8766(2) 0.9585(3)
C47_9 C 0.5226(5) 0.8625(3) 0.9815(5)
C48_9 C 0.5627(6) 0.8811(4) 0.9894(5)
H36_9 H 0.5749 0.8869 0.9585
N4_9 N 0.5024(4) 0.8283(2) 0.9885(3)
C49_9 C 0.4628(6) 0.8125(4) 0.9772(5)
H37_9 H 0.4502 0.7869 0.9841
H38_9 H 0.4600 0.8162 0.9434
H39_9 H 0.4529 0.8241 0.9968
H42_9 H 0.5346 0.8054 0.9891
O17_9 O 0.4787(3) 0.9211(2) 0.9178(3)
O15_10 O 0.7941(3) 0.6198(2) 0.6269(3)
O18_10 O 0.8313(2) 0.6960(2) 0.6079(3)
O22_10 O 0.7891(3) 0.6671(2) 0.7001(3)
O15_11 O 0.3802(2) 0.1742(4) 0.6269(3)
O18_11 O 0.3040(2) 0.1353(3) 0.6079(3)
O22_11 O 0.3329(2) 0.1219(4) 0.7001(3)
O15_12 O 0.8258(4) 0.2059(3) 0.6269(3)
O18_12 O 0.8647(3) 0.1687(2) 0.6079(3)
O22_12 O 0.8781(4) 0.2109(3) 0.7001(3)
O15_13 O 0.6198(2) 0.7941(3) 0.8731(3)
O18_13 O 0.6960(2) 0.8313(2) 0.8921(3)
O22_13 O 0.6671(2) 0.7891(3) 0.7999(3)
O15_14 O 0.2059(3) 0.8258(4) 0.8731(3)
O18_14 O 0.1687(2) 0.8647(3) 0.8921(3)
O22_14 O 0.2109(3) 0.8781(4) 0.7999(3)
O15_15 O 0.1742(4) 0.3802(2) 0.8731(3)
O18_15 O 0.1353(3) 0.3040(2) 0.8921(3)
O22_15 O 0.1219(4) 0.3329(2) 0.7999(3)
O22_16 O 0.4557(3) 0.0005(2) 0.0335(3)
O18_16 O 0.4980(2) 0.0293(2) 0.9412(3)
O15_16 O 0.4607(3) 0.9532(2) 0.9603(3)
O15_17 O 0.0468(2) 0.5076(4) 0.9603(3)
O22_17 O 0.9995(2) 0.4553(4) 0.0335(3)
O18_17 O 0.9707(2) 0.4686(3) 0.9412(3)
O22_18 O 0.5447(4) 0.5443(3) 0.0335(3)
O15_18 O 0.4924(4) 0.5393(3) 0.9603(3)
O18_18 O 0.5314(3) 0.5020(2) 0.9412(3)
C4_10 C 0.7495(4) 0.7872(4) 0.0065(5)
H3_10 H 0.7651 0.7781 0.0123
C5_10 C 0.7306(3) 0.7900(3) 0.0431(4)
C6_10 C 0.7069(4) 0.8028(3) 0.0331(5)
H4_10 H 0.6935 0.8048 0.0584
C7_10 C 0.7382(3) 0.7473(3) 0.0967(4)
C8_10 C 0.7172(4) 0.7163(3) 0.0762(5)
H5_10 H 0.6976 0.7132 0.0576
C9_10 C 0.7236(3) 0.6876(3) 0.0816(4)
H6_10 H 0.7084 0.6656 0.0662
C10_10 C 0.7527(3) 0.6912(3) 0.1101(4)
C11_10 C 0.7752(3) 0.7246(3) 0.1313(4)
H7_10 H 0.7945 0.7276 0.1504
C12_10 C 0.7695(3) 0.7538(3) 0.1247(4)
H8_10 H 0.7853 0.7766 0.1377
C13_10 C 0.7341(3) 0.7990(3) 0.1331(4)
C14_10 C 0.7486(4) 0.8354(4) 0.1301(5)
H9_10 H 0.7585 0.8477 0.1011
C15_10 C 0.7482(4) 0.8540(4) 0.1719(5)
H10_10 H 0.7602 0.8793 0.1713
C16_10 C 0.7303(3) 0.8356(3) 0.2149(4)
C17_10 C 0.7164(3) 0.7992(3) 0.2158(5)
H11_10 H 0.7058 0.7867 0.2444
C18_10 C 0.7175(3) 0.7794(4) 0.1750(5)
H12_10 H 0.7074 0.7543 0.1762
C19_10 C 0.7295(3) 0.8570(3) 0.2563(4)
C21_10 C 0.7582(3) 0.6589(3) 0.1177(4)
N1_10 N 0.7342(3) 0.7789(3) 0.0903(4)
O5_4 O 0.7327(2) 0.6290(2) 0.1086(3)
C26_10 C 0.6307(4) 0.7766(5) 0.1793(4)
H22_10 H 0.6474 0.8010 0.1849
C27_10 C 0.6103(3) 0.7545(4) 0.2173(4)
C28_10 C 0.5871(3) 0.7186(4) 0.2087(5)
H23_10 H 0.5735 0.7033 0.2340
C29_10 C 0.5838(4) 0.7044(6) 0.1602(5)
H24_10 H 0.5682 0.6797 0.1544
C30_10 C 0.6027(3) 0.7261(4) 0.1236(4)
C31_10 C 0.6264(4) 0.7626(5) 0.1336(5)
H25_10 H 0.6398 0.7780 0.1083
C32_10 C 0.5951(3) 0.6758(4) 0.0700(4)
C33_10 C 0.6161(4) 0.6658(5) 0.0905(5)
H26_10 H 0.6357 0.6823 0.1091
C34_10 C 0.6097(3) 0.6307(4) 0.0851(4)
H27_10 H 0.6249 0.6239 0.1005
C35_10 C 0.5806(3) 0.6052(4) 0.0566(4)
C36_10 C 0.5581(3) 0.6161(4) 0.0354(4)
H28_10 H 0.5388 0.5998 0.0163
C37_10 C 0.5638(3) 0.6510(4) 0.0420(4)
H29_10 H 0.5480 0.6580 0.0290
C38_10 C 0.5992(3) 0.7316(4) 0.0336(4)
C39_10 C 0.5847(4) 0.7535(6) 0.0366(5)
H30_10 H 0.5748 0.7559 0.0656
C45_10 C 0.6142(3) 0.7699(4) 0.2677(4)
C46_10 C 0.5751(3) 0.5674(4) 0.0490(4)
N3_10 N 0.5991(3) 0.7114(4) 0.0764(4)
O10_10 O 0.5938(2) 0.7467(3) 0.2995(3)
O12_7 O 0.6006(2) 0.5630(3) 0.0581(3)
O14_10 O 0.5432(2) 0.7028(3) 0.3749(3)
C47_10 C 0.5291(3) 0.6732(4) 0.3519(5)
C48_10 C 0.5477(4) 0.6517(5) 0.3440(5)
H34_10 H 0.5319 0.6299 0.3262
H35_10 H 0.5696 0.6659 0.3258
H36_10 H 0.5535 0.6453 0.3749
N4_10 N 0.4949(2) 0.6592(4) 0.3449(3)
C49_10 C 0.4791(4) 0.6830(5) 0.3562(5)
H37_10 H 0.4535 0.6700 0.3493
H38_10 H 0.4828 0.6895 0.3900
H39_10 H 0.4907 0.7045 0.3366
C50_10 C 0.4712(4) 0.6220(5) 0.3237(5)
H40_10 H 0.4466 0.6172 0.3215
H41_10 H 0.4798 0.6208 0.2918
H42_10 H 0.4720 0.6041 0.3443
O19_4 O 0.6290(2) 0.7327(2) 0.3914(3)
C1_10 C 0.7026(4) 0.8125(3) 0.9874(4)
H1_10 H 0.6859 0.8202 0.9818
C2_10 C 0.7230(3) 0.8108(3) 0.9494(4)
C3_10 C 0.7462(3) 0.7981(3) 0.9580(5)
H2_10 H 0.7598 0.7964 0.9327
C20_10 C 0.7191(3) 0.8223(3) 0.8990(4)
O3_10 O 0.7395(2) 0.8195(2) 0.8672(3)
O7_10 O 0.7901(2) 0.8262(2) 0.7918(3)
C22_10 C 0.8042(3) 0.8107(3) 0.8148(5)
C23_10 C 0.7856(4) 0.7706(3) 0.8227(5)
H13_10 H 0.8014 0.7646 0.8405
H14_10 H 0.7637 0.7629 0.8409
H15_10 H 0.7798 0.7584 0.7918
N2_10 N 0.8384(2) 0.8309(3) 0.8218(3)
C24_10 C 0.8542(4) 0.8705(3) 0.8105(5)
H16_10 H 0.8798 0.8831 0.8174
H17_10 H 0.8505 0.8733 0.7767
H18_10 H 0.8426 0.8804 0.8301
C25_10 C 0.8621(4) 0.8174(3) 0.8430(5)
H19_10 H 0.8867 0.8372 0.8452
H20_10 H 0.8535 0.8076 0.8749
H21_10 H 0.8613 0.7987 0.8224
C40_10 C 0.5851(4) 0.7725(6) 0.9948(5)
H31_10 H 0.5731 0.7858 0.9954
C41_10 C 0.6030(3) 0.7720(4) 0.9518(4)
C42_10 C 0.6169(3) 0.7495(4) 0.9509(5)
H32_10 H 0.6275 0.7476 0.9223
C43_10 C 0.6158(3) 0.7286(5) 0.9917(5)
H33_10 H 0.6259 0.7136 0.9905
C44_10 C 0.6038(3) 0.7942(4) 0.9104(4)
O20_7 O 0.7043(2) 0.7704(3) 0.7753(3)
C8_11 C 0.2837(3) 0.0009(5) 0.0762(5)
C9_11 C 0.3124(3) 0.0360(4) 0.0816(4)
H6_11 H 0.3344 0.0428 0.0662
C10_11 C 0.3088(3) 0.0615(4) 0.1101(4)
C11_11 C 0.2754(3) 0.0506(4) 0.1313(4)
H7_11 H 0.2724 0.0669 0.1504
C12_11 C 0.2462(3) 0.0157(4) 0.1247(4)
H8_11 H 0.2234 0.0087 0.1377
C21_11 C 0.3411(3) 0.0993(4) 0.1177(4)
O5_5 O 0.3710(2) 0.1037(3) 0.1086(3)
H27_11 H 0.3761 0.0011 0.1005
C46_11 C 0.4326(4) 0.0078(5) 0.0490(4)
O12_8 O 0.4370(3) 0.0377(4) 0.0581(3)
Zn6_10 Zn 0.5000 0.0000 0.0000
C23_11 C 0.2294(3) 0.0150(5) 0.8227(5)
H13_11 H 0.2354 0.0368 0.8405
H14_11 H 0.2371 0.0008 0.8409
H15_11 H 0.2416 0.0214 0.7918
N2_11 N 0.1691(3) 0.0075(4) 0.8218(3)
C25_11 C 0.1826(3) 0.0447(5) 0.8430(5)
H19_11 H 0.1628 0.0495 0.8452
H20_11 H 0.1924 0.0459 0.8749
H21_11 H 0.2013 0.0626 0.8224
Zn6_11 Zn 0.5000 0.0000 1.0000
C4_11 C 0.2128(4) 0.9623(6) 0.0065(5)
H3_11 H 0.2219 0.9870 0.0123
C5_11 C 0.2100(3) 0.9406(4) 0.0431(4)
C6_11 C 0.1972(3) 0.9041(5) 0.0331(5)
H4_11 H 0.1952 0.8887 0.0584
C7_11 C 0.2527(3) 0.9909(4) 0.0967(4)
H5_11 H 0.2868 0.9844 0.0576
C13_11 C 0.2010(3) 0.9351(4) 0.1331(4)
C14_11 C 0.1646(4) 0.9132(6) 0.1301(5)
H9_11 H 0.1523 0.9108 0.1011
C15_11 C 0.1460(4) 0.8942(6) 0.1719(5)
H10_11 H 0.1207 0.8809 0.1713
C16_11 C 0.1644(3) 0.8947(4) 0.2149(4)
C17_11 C 0.2008(3) 0.9172(4) 0.2158(5)
H11_11 H 0.2133 0.9191 0.2444
C18_11 C 0.2206(4) 0.9381(5) 0.1750(5)
H12_11 H 0.2457 0.9531 0.1762
C19_11 C 0.1430(3) 0.8725(4) 0.2563(4)
N1_11 N 0.2211(3) 0.9553(4) 0.0903(4)
C26_11 C 0.2234(5) 0.8542(6) 0.1793(4)
H22_11 H 0.1990 0.8465 0.1849
C27_11 C 0.2455(4) 0.8559(5) 0.2173(4)
C28_11 C 0.2814(4) 0.8686(5) 0.2087(5)
H23_11 H 0.2967 0.8703 0.2340
C29_11 C 0.2956(6) 0.8795(7) 0.1602(5)
H24_11 H 0.3203 0.8886 0.1544
C30_11 C 0.2739(4) 0.8767(5) 0.1236(4)
C31_11 C 0.2374(5) 0.8639(6) 0.1336(5)
H25_11 H 0.2220 0.8619 0.1083
C32_11 C 0.3242(4) 0.9194(5) 0.0700(4)
C33_11 C 0.3342(5) 0.9504(6) 0.0905(5)
H26_11 H 0.3177 0.9535 0.1091
C34_11 C 0.3693(4) 0.9791(5) 0.0851(4)
C35_11 C 0.3948(4) 0.9755(5) 0.0566(4)
C36_11 C 0.3839(4) 0.9421(5) 0.0354(4)
H28_11 H 0.4002 0.9391 0.0163
C37_11 C 0.3490(4) 0.9129(5) 0.0420(4)
H29_11 H 0.3420 0.8901 0.0290
C38_11 C 0.2684(4) 0.8677(5) 0.0336(4)
C39_11 C 0.2465(6) 0.8313(7) 0.0366(5)
H30_11 H 0.2441 0.8190 0.0656
C45_11 C 0.2301(4) 0.8444(5) 0.2677(4)
N3_11 N 0.2886(4) 0.8878(5) 0.0764(4)
O10_11 O 0.2533(3) 0.8472(4) 0.2995(3)
O14_11 O 0.2972(3) 0.8405(4) 0.3749(3)
C47_11 C 0.3268(4) 0.8560(5) 0.3519(5)
C48_11 C 0.3483(5) 0.8961(6) 0.3440(5)
H34_11 H 0.3701 0.9021 0.3262
H35_11 H 0.3341 0.9038 0.3258
H36_11 H 0.3547 0.9083 0.3749
N4_11 N 0.3408(4) 0.8358(4) 0.3449(3)
C49_11 C 0.3170(5) 0.7962(6) 0.3562(5)
H37_11 H 0.3300 0.7836 0.3493
H38_11 H 0.3105 0.7934 0.3900
H39_11 H 0.2955 0.7863 0.3366
C50_11 C 0.3780(5) 0.8493(6) 0.3237(5)
H40_11 H 0.3828 0.8295 0.3215
H41_11 H 0.3792 0.8591 0.2918
H42_11 H 0.3959 0.8680 0.3443
O19_5 O 0.2673(2) 0.8963(3) 0.3914(3)
C1_11 C 0.1875(3) 0.8901(5) 0.9874(4)
H1_11 H 0.1798 0.8657 0.9818
C2_11 C 0.1892(3) 0.9122(4) 0.9494(4)
C3_11 C 0.2019(3) 0.9481(4) 0.9580(5)
H2_11 H 0.2036 0.9634 0.9327
C20_11 C 0.1777(3) 0.8968(4) 0.8990(4)
O3_11 O 0.1805(2) 0.9200(3) 0.8672(3)
O7_11 O 0.1738(2) 0.9639(3) 0.7918(3)
C22_11 C 0.1893(3) 0.9935(4) 0.8148(5)
C24_11 C 0.1295(3) 0.9837(5) 0.8105(5)
H16_11 H 0.1169 0.9967 0.8174
H17_11 H 0.1267 0.9772 0.7767
H18_11 H 0.1196 0.9622 0.8301
C40_11 C 0.2275(6) 0.8127(7) 0.9948(5)
H31_11 H 0.2142 0.7874 0.9954
C41_11 C 0.2280(4) 0.8311(5) 0.9518(4)
C42_11 C 0.2505(4) 0.8675(5) 0.9509(5)
H32_11 H 0.2524 0.8800 0.9223
C43_11 C 0.2714(5) 0.8873(6) 0.9917(5)
H33_11 H 0.2864 0.9124 0.9905
C44_11 C 0.2058(4) 0.8097(5) 0.9104(4)
O20_8 O 0.2296(3) 0.9340(4) 0.7753(3)
C4_12 C 0.0377(6) 0.2505(4) 0.0065(5)
H3_12 H 0.0130 0.2349 0.0123
C5_12 C 0.0594(4) 0.2694(3) 0.0431(4)
C6_12 C 0.0959(5) 0.2931(4) 0.0331(5)
H4_12 H 0.1113 0.3065 0.0584
C7_12 C 0.0091(4) 0.2618(3) 0.0967(4)
H5_12 H 0.0156 0.3024 0.0576
C13_12 C 0.0649(4) 0.2659(3) 0.1331(4)
C14_12 C 0.0868(6) 0.2514(4) 0.1301(5)
H9_12 H 0.0892 0.2415 0.1011
C15_12 C 0.1058(6) 0.2518(4) 0.1719(5)
H10_12 H 0.1191 0.2398 0.1713
C16_12 C 0.1053(4) 0.2697(3) 0.2149(4)
C17_12 C 0.0828(4) 0.2836(3) 0.2158(5)
H11_12 H 0.0809 0.2942 0.2444
C18_12 C 0.0619(5) 0.2825(3) 0.1750(5)
H12_12 H 0.0469 0.2926 0.1762
C19_12 C 0.1275(4) 0.2705(3) 0.2563(4)
N1_12 N 0.0447(4) 0.2658(3) 0.0903(4)
C26_12 C 0.1458(6) 0.3693(4) 0.1793(4)
H22_12 H 0.1535 0.3526 0.1849
C27_12 C 0.1441(5) 0.3897(3) 0.2173(4)
C28_12 C 0.1314(5) 0.4129(3) 0.2087(5)
H23_12 H 0.1297 0.4265 0.2340
C29_12 C 0.1205(7) 0.4162(4) 0.1602(5)
H24_12 H 0.1114 0.4318 0.1544
C30_12 C 0.1233(5) 0.3973(3) 0.1236(4)
C31_12 C 0.1361(6) 0.3736(4) 0.1336(5)
H25_12 H 0.1381 0.3602 0.1083
C32_12 C 0.0806(5) 0.4049(3) 0.0700(4)
C33_12 C 0.0496(6) 0.3839(4) 0.0905(5)
H26_12 H 0.0465 0.3643 0.1091
C34_12 C 0.0209(5) 0.3903(3) 0.0851(4)
C35_12 C 0.0245(5) 0.4194(3) 0.0566(4)
C36_12 C 0.0579(5) 0.4419(3) 0.0354(4)
H28_12 H 0.0609 0.4612 0.0163
C37_12 C 0.0871(5) 0.4362(3) 0.0420(4)
H29_12 H 0.1099 0.4520 0.0290
C38_12 C 0.1323(5) 0.4008(3) 0.0336(4)
C39_12 C 0.1687(7) 0.4153(4) 0.0366(5)
H30_12 H 0.1810 0.4252 0.0656
C45_12 C 0.1556(5) 0.3858(3) 0.2677(4)
N3_12 N 0.1122(5) 0.4009(3) 0.0764(4)
O10_12 O 0.1528(4) 0.4062(2) 0.2995(3)
O14_12 O 0.1595(4) 0.4568(2) 0.3749(3)
C47_12 C 0.1440(5) 0.4709(3) 0.3519(5)
C48_12 C 0.1039(6) 0.4523(4) 0.3440(5)
H34_12 H 0.0979 0.4681 0.3262
H35_12 H 0.0962 0.4304 0.3258
H36_12 H 0.0917 0.4465 0.3749
N4_12 N 0.1642(4) 0.5051(2) 0.3449(3)
C49_12 C 0.2038(6) 0.5209(4) 0.3562(5)
H37_12 H 0.2164 0.5465 0.3493
H38_12 H 0.2066 0.5172 0.3900
H39_12 H 0.2137 0.5093 0.3366
C50_12 C 0.1507(6) 0.5288(4) 0.3237(5)
H40_12 H 0.1705 0.5534 0.3215
H41_12 H 0.1409 0.5202 0.2918
H42_12 H 0.1320 0.5280 0.3443
O19_6 O 0.1037(3) 0.3710(2) 0.3914(3)
C1_12 C 0.1099(5) 0.2974(4) 0.9874(4)
H1_12 H 0.1343 0.3141 0.9818
C2_12 C 0.0878(4) 0.2770(3) 0.9494(4)
C3_12 C 0.0519(4) 0.2538(3) 0.9580(5)
H2_12 H 0.0366 0.2402 0.9327
C20_12 C 0.1032(4) 0.2809(3) 0.8990(4)
O3_12 O 0.0800(3) 0.2605(2) 0.8672(3)
O7_12 O 0.0361(3) 0.2099(2) 0.7918(3)
C22_12 C 0.0065(4) 0.1958(3) 0.8148(5)
C24_12 C 0.0163(5) 0.1458(4) 0.8105(5)
H16_12 H 0.0033 0.1202 0.8174
H17_12 H 0.0228 0.1495 0.7767
H18_12 H 0.0378 0.1574 0.8301
C40_12 C 0.1873(7) 0.4149(4) 0.9948(5)
H31_12 H 0.2126 0.4269 0.9954
C41_12 C 0.1689(5) 0.3970(3) 0.9518(4)
C42_12 C 0.1325(5) 0.3831(3) 0.9509(5)
H32_12 H 0.1200 0.3725 0.9223
C43_12 C 0.1127(6) 0.3842(3) 0.9917(5)
H33_12 H 0.0876 0.3741 0.9905
C44_12 C 0.1903(5) 0.3962(3) 0.9104(4)
O20_9 O 0.0660(4) 0.2957(2) 0.7753(3)
C8_12 C 0.9991(5) 0.2828(4) 0.0762(5)
C9_12 C 0.9640(4) 0.2764(3) 0.0816(4)
H6_12 H 0.9572 0.2916 0.0662
C10_12 C 0.9385(4) 0.2473(3) 0.1101(4)
C11_12 C 0.9494(4) 0.2248(3) 0.1313(4)
H7_12 H 0.9331 0.2055 0.1504
C12_12 C 0.9843(4) 0.2305(3) 0.1247(4)
H8_12 H 0.9913 0.2147 0.1377
C21_12 C 0.9007(4) 0.2418(3) 0.1177(4)
O5_6 O 0.8963(3) 0.2673(2) 0.1086(3)
H27_12 H 0.9989 0.3751 0.1005
C46_12 C 0.9922(5) 0.4249(3) 0.0490(4)
O12_9 O 0.9623(4) 0.3994(2) 0.0581(3)
Zn6_12 Zn 1.0000 0.4999 0.0000
C23_12 C 0.9850(5) 0.2144(4) 0.8227(5)
H13_12 H 0.9632 0.1986 0.8405
H14_12 H 0.9992 0.2363 0.8409
H15_12 H 0.9786 0.2202 0.7918
N2_12 N 0.9925(4) 0.1616(2) 0.8218(3)
C25_12 C 0.9553(5) 0.1379(4) 0.8430(5)
H19_12 H 0.9505 0.1133 0.8452
H20_12 H 0.9541 0.1465 0.8749
H21_12 H 0.9374 0.1387 0.8224
Zn6_13 Zn 1.0000 0.4999 1.0000
C1_13 C 0.8125(3) 0.7026(4) 0.5126(4)
H1_13 H 0.8202 0.6859 0.5182
C2_13 C 0.8108(3) 0.7230(3) 0.5506(4)
C3_13 C 0.7981(3) 0.7462(3) 0.5420(5)
H2_13 H 0.7964 0.7598 0.5673
C4_13 C 0.7872(4) 0.7495(4) 0.4935(5)
H3_13 H 0.7781 0.7651 0.4877
C5_13 C 0.7900(3) 0.7306(3) 0.4569(4)
C6_13 C 0.8028(3) 0.7069(4) 0.4669(5)
H4_13 H 0.8048 0.6935 0.4416
C7_13 C 0.7473(3) 0.7382(3) 0.4033(4)
C8_13 C 0.7163(3) 0.7172(4) 0.4238(5)
H5_13 H 0.7132 0.6976 0.4424
C9_13 C 0.6876(3) 0.7236(3) 0.4184(4)
H6_13 H 0.6656 0.7084 0.4338
C10_13 C 0.6912(3) 0.7527(3) 0.3899(4)
C11_13 C 0.7246(3) 0.7752(3) 0.3687(4)
H7_13 H 0.7276 0.7945 0.3496
C12_13 C 0.7538(3) 0.7695(3) 0.3753(4)
H8_13 H 0.7766 0.7853 0.3623
C13_13 C 0.7990(3) 0.7341(3) 0.3669(4)
C14_13 C 0.8354(4) 0.7486(4) 0.3699(5)
H9_13 H 0.8477 0.7585 0.3989
C15_13 C 0.8540(4) 0.7482(4) 0.3281(5)
H10_13 H 0.8793 0.7602 0.3287
C16_13 C 0.8356(3) 0.7303(3) 0.2851(4)
C17_13 C 0.7992(3) 0.7164(3) 0.2842(5)
H11_13 H 0.7867 0.7058 0.2556
C18_13 C 0.7794(4) 0.7175(3) 0.3250(5)
H12_13 H 0.7543 0.7074 0.3238
C19_13 C 0.8570(3) 0.7295(3) 0.2437(4)
C20_13 C 0.8223(3) 0.7191(3) 0.6010(4)
C21_13 C 0.6589(3) 0.7582(3) 0.3823(4)
N1_13 N 0.7789(3) 0.7342(3) 0.4097(4)
O3_13 O 0.8195(2) 0.7395(2) 0.6328(3)
O7_13 O 0.8262(2) 0.7901(2) 0.7082(3)
C22_13 C 0.8107(3) 0.8042(3) 0.6852(5)
C23_13 C 0.7706(3) 0.7856(4) 0.6773(5)
H13_13 H 0.7646 0.8014 0.6595
H14_13 H 0.7629 0.7637 0.6591
H15_13 H 0.7584 0.7798 0.7082
N2_13 N 0.8309(3) 0.8384(2) 0.6782(3)
C24_13 C 0.8705(3) 0.8542(4) 0.6895(5)
H16_13 H 0.8831 0.8798 0.6826
H17_13 H 0.8733 0.8505 0.7233
H18_13 H 0.8804 0.8426 0.6699
C25_13 C 0.8174(3) 0.8621(4) 0.6570(5)
H19_13 H 0.8372 0.8867 0.6548
H20_13 H 0.8076 0.8535 0.6251
H21_13 H 0.7987 0.8613 0.6776
C26_13 C 0.7766(5) 0.6307(4) 0.3207(4)
H22_13 H 0.8010 0.6474 0.3151
C27_13 C 0.7545(4) 0.6103(3) 0.2827(4)
C28_13 C 0.7186(4) 0.5871(3) 0.2913(5)
H23_13 H 0.7033 0.5735 0.2660
C29_13 C 0.7044(6) 0.5838(4) 0.3398(5)
H24_13 H 0.6797 0.5682 0.3456
C30_13 C 0.7261(4) 0.6027(3) 0.3764(4)
C31_13 C 0.7626(5) 0.6264(4) 0.3664(5)
H25_13 H 0.7780 0.6398 0.3917
C32_13 C 0.6758(4) 0.5951(3) 0.4300(4)
C33_13 C 0.6658(5) 0.6161(4) 0.4095(5)
H26_13 H 0.6823 0.6357 0.3909
C34_13 C 0.6307(4) 0.6097(3) 0.4149(4)
H27_13 H 0.6239 0.6249 0.3995
C35_13 C 0.6052(4) 0.5806(3) 0.4434(4)
C36_13 C 0.6161(4) 0.5581(3) 0.4646(4)
H28_13 H 0.5998 0.5388 0.4837
C37_13 C 0.6510(4) 0.5638(3) 0.4580(4)
H29_13 H 0.6580 0.5480 0.4710
C38_13 C 0.7316(4) 0.5992(3) 0.4664(4)
C39_13 C 0.7535(6) 0.5847(4) 0.4634(5)
H30_13 H 0.7559 0.5748 0.4344
C40_13 C 0.7725(6) 0.5851(4) 0.5052(5)
H31_13 H 0.7858 0.5731 0.5046
C41_13 C 0.7720(4) 0.6030(3) 0.5482(4)
C42_13 C 0.7495(4) 0.6169(3) 0.5491(5)
H32_13 H 0.7476 0.6275 0.5777
C43_13 C 0.7286(5) 0.6158(3) 0.5083(5)
H33_13 H 0.7136 0.6259 0.5095
C44_13 C 0.7942(4) 0.6038(3) 0.5896(4)
C45_13 C 0.7699(4) 0.6142(3) 0.2323(4)
C46_13 C 0.5674(4) 0.5751(3) 0.4510(4)
N3_13 N 0.7114(4) 0.5991(3) 0.4236(4)
O10_13 O 0.7467(3) 0.5938(2) 0.2005(3)
O12_10 O 0.5630(3) 0.6006(2) 0.4419(3)
O14_13 O 0.7028(3) 0.5432(2) 0.1251(3)
C47_13 C 0.6732(4) 0.5291(3) 0.1481(5)
C48_13 C 0.6517(5) 0.5477(4) 0.1560(5)
H34_13 H 0.6299 0.5319 0.1738
H35_13 H 0.6659 0.5696 0.1742
H36_13 H 0.6453 0.5535 0.1251
N4_13 N 0.6592(4) 0.4949(2) 0.1551(3)
C49_13 C 0.6830(5) 0.4791(4) 0.1438(5)
H37_13 H 0.6700 0.4535 0.1507
H38_13 H 0.6895 0.4828 0.1100
H39_13 H 0.7045 0.4907 0.1634
C50_13 C 0.6220(5) 0.4712(4) 0.1763(5)
H40_13 H 0.6172 0.4466 0.1785
H41_13 H 0.6208 0.4798 0.2082
H42_13 H 0.6041 0.4720 0.1557
O20_10 O 0.7704(3) 0.7043(2) 0.7247(3)
C1_14 C 0.2974(4) 0.1099(5) 0.5126(4)
H1_14 H 0.3141 0.1343 0.5182
C2_14 C 0.2770(3) 0.0878(4) 0.5506(4)
C3_14 C 0.2538(3) 0.0519(4) 0.5420(5)
H2_14 H 0.2402 0.0366 0.5673
C4_14 C 0.2505(4) 0.0377(6) 0.4935(5)
H3_14 H 0.2349 0.0130 0.4877
C5_14 C 0.2694(3) 0.0594(4) 0.4569(4)
C6_14 C 0.2931(4) 0.0959(5) 0.4669(5)
H4_14 H 0.3065 0.1113 0.4416
C7_14 C 0.2618(3) 0.0091(4) 0.4033(4)
H5_14 H 0.3024 0.0156 0.4424
C13_14 C 0.2659(3) 0.0649(4) 0.3669(4)
C14_14 C 0.2514(4) 0.0868(6) 0.3699(5)
H9_14 H 0.2415 0.0892 0.3989
C15_14 C 0.2518(4) 0.1058(6) 0.3281(5)
H10_14 H 0.2398 0.1191 0.3287
C16_14 C 0.2697(3) 0.1053(4) 0.2851(4)
C17_14 C 0.2836(3) 0.0828(4) 0.2842(5)
H11_14 H 0.2942 0.0809 0.2556
C18_14 C 0.2825(3) 0.0619(5) 0.3250(5)
H12_14 H 0.2926 0.0469 0.3238
C19_14 C 0.2705(3) 0.1275(4) 0.2437(4)
C20_14 C 0.2809(3) 0.1032(4) 0.6010(4)
N1_14 N 0.2658(3) 0.0447(4) 0.4097(4)
O3_14 O 0.2605(2) 0.0800(3) 0.6328(3)
O7_14 O 0.2099(2) 0.0361(3) 0.7082(3)
C22_14 C 0.1958(3) 0.0065(4) 0.6852(5)
C24_14 C 0.1458(4) 0.0163(5) 0.6895(5)
H16_14 H 0.1202 0.0033 0.6826
H17_14 H 0.1495 0.0228 0.7233
H18_14 H 0.1574 0.0378 0.6699
C26_14 C 0.3693(4) 0.1458(6) 0.3207(4)
H22_14 H 0.3526 0.1535 0.3151
C27_14 C 0.3897(3) 0.1441(5) 0.2827(4)
C28_14 C 0.4129(3) 0.1314(5) 0.2913(5)
H23_14 H 0.4265 0.1297 0.2660
C29_14 C 0.4162(4) 0.1205(7) 0.3398(5)
H24_14 H 0.4318 0.1114 0.3456
C30_14 C 0.3973(3) 0.1233(5) 0.3764(4)
C31_14 C 0.3736(4) 0.1361(6) 0.3664(5)
H25_14 H 0.3602 0.1381 0.3917
C32_14 C 0.4049(3) 0.0806(5) 0.4300(4)
C33_14 C 0.3839(4) 0.0496(6) 0.4095(5)
H26_14 H 0.3643 0.0465 0.3909
C34_14 C 0.3903(3) 0.0209(5) 0.4149(4)
C35_14 C 0.4194(3) 0.0245(5) 0.4434(4)
C36_14 C 0.4419(3) 0.0579(5) 0.4646(4)
H28_14 H 0.4612 0.0609 0.4837
C37_14 C 0.4362(3) 0.0871(5) 0.4580(4)
H29_14 H 0.4520 0.1099 0.4710
C38_14 C 0.4008(3) 0.1323(5) 0.4664(4)
C39_14 C 0.4153(4) 0.1687(7) 0.4634(5)
H30_14 H 0.4252 0.1810 0.4344
C40_14 C 0.4149(4) 0.1873(7) 0.5052(5)
H31_14 H 0.4269 0.2126 0.5046
C41_14 C 0.3970(3) 0.1689(5) 0.5482(4)
C42_14 C 0.3831(3) 0.1325(5) 0.5491(5)
H32_14 H 0.3725 0.1200 0.5777
C43_14 C 0.3842(3) 0.1127(6) 0.5083(5)
H33_14 H 0.3741 0.0876 0.5095
C44_14 C 0.3962(3) 0.1903(5) 0.5896(4)
C45_14 C 0.3858(3) 0.1556(5) 0.2323(4)
N3_14 N 0.4009(3) 0.1122(5) 0.4236(4)
O10_14 O 0.4062(2) 0.1528(4) 0.2005(3)
O14_14 O 0.4568(2) 0.1595(4) 0.1251(3)
C47_14 C 0.4709(3) 0.1440(5) 0.1481(5)
C48_14 C 0.4523(4) 0.1039(6) 0.1560(5)
H34_14 H 0.4681 0.0979 0.1738
H35_14 H 0.4304 0.0962 0.1742
H36_14 H 0.4465 0.0917 0.1251
N4_14 N 0.5051(2) 0.1642(4) 0.1551(3)
C49_14 C 0.5209(4) 0.2038(6) 0.1438(5)
H37_14 H 0.5465 0.2164 0.1507
H38_14 H 0.5172 0.2066 0.1100
H39_14 H 0.5093 0.2137 0.1634
C50_14 C 0.5288(4) 0.1507(6) 0.1763(5)
H40_14 H 0.5534 0.1705 0.1785
H41_14 H 0.5202 0.1409 0.2082
H42_14 H 0.5280 0.1320 0.1557
O20_11 O 0.2957(2) 0.0660(4) 0.7247(3)
C8_14 C 0.2828(4) 0.9991(5) 0.4238(5)
C9_14 C 0.2764(3) 0.9640(4) 0.4184(4)
H6_14 H 0.2916 0.9572 0.4338
C10_14 C 0.2473(3) 0.9385(4) 0.3899(4)
C11_14 C 0.2248(3) 0.9494(4) 0.3687(4)
H7_14 H 0.2055 0.9331 0.3496
C12_14 C 0.2305(3) 0.9843(4) 0.3753(4)
H8_14 H 0.2147 0.9913 0.3623
C21_14 C 0.2418(3) 0.9007(4) 0.3823(4)
C23_14 C 0.2144(4) 0.9850(5) 0.6773(5)
H13_14 H 0.1986 0.9632 0.6595
H14_14 H 0.2363 0.9992 0.6591
H15_14 H 0.2202 0.9786 0.7082
N2_14 N 0.1616(2) 0.9925(4) 0.6782(3)
C25_14 C 0.1379(4) 0.9553(5) 0.6570(5)
H19_14 H 0.1133 0.9505 0.6548
H20_14 H 0.1465 0.9541 0.6251
H21_14 H 0.1387 0.9374 0.6776
H27_14 H 0.3751 0.9989 0.3995
C46_14 C 0.4249(3) 0.9922(5) 0.4510(4)
O12_11 O 0.3994(2) 0.9623(4) 0.4419(3)
Zn6_14 Zn 0.4999 1.0000 0.5000
C8_15 C 0.0009(5) 0.2837(3) 0.4238(5)
C9_15 C 0.0360(4) 0.3124(3) 0.4184(4)
H6_15 H 0.0428 0.3344 0.4338
C10_15 C 0.0615(4) 0.3088(3) 0.3899(4)
C11_15 C 0.0506(4) 0.2754(3) 0.3687(4)
H7_15 H 0.0669 0.2724 0.3496
C12_15 C 0.0157(4) 0.2462(3) 0.3753(4)
H8_15 H 0.0087 0.2234 0.3623
C21_15 C 0.0993(4) 0.3411(3) 0.3823(4)
C23_15 C 0.0150(5) 0.2294(3) 0.6773(5)
H13_15 H 0.0368 0.2354 0.6595
H14_15 H 0.0008 0.2371 0.6591
H15_15 H 0.0214 0.2416 0.7082
N2_15 N 0.0075(4) 0.1691(3) 0.6782(3)
C25_15 C 0.0447(5) 0.1826(3) 0.6570(5)
H19_15 H 0.0495 0.1628 0.6548
H20_15 H 0.0459 0.1924 0.6251
H21_15 H 0.0626 0.2013 0.6776
H27_15 H 0.0011 0.3761 0.3995
C46_15 C 0.0078(5) 0.4326(4) 0.4510(4)
O12_12 O 0.0377(4) 0.4370(3) 0.4419(3)
Zn6_15 Zn 0.0000 0.5000 0.5000
C1_15 C 0.8901(5) 0.1875(3) 0.5126(4)
H1_15 H 0.8657 0.1798 0.5182
C2_15 C 0.9122(4) 0.1892(3) 0.5506(4)
C3_15 C 0.9481(4) 0.2019(3) 0.5420(5)
H2_15 H 0.9634 0.2036 0.5673
C4_15 C 0.9623(6) 0.2128(4) 0.4935(5)
H3_15 H 0.9870 0.2219 0.4877
C5_15 C 0.9406(4) 0.2100(3) 0.4569(4)
C6_15 C 0.9041(5) 0.1972(3) 0.4669(5)
H4_15 H 0.8887 0.1952 0.4416
C7_15 C 0.9909(4) 0.2527(3) 0.4033(4)
H5_15 H 0.9844 0.2868 0.4424
C13_15 C 0.9351(4) 0.2010(3) 0.3669(4)
C14_15 C 0.9132(6) 0.1646(4) 0.3699(5)
H9_15 H 0.9108 0.1523 0.3989
C15_15 C 0.8942(6) 0.1460(4) 0.3281(5)
H10_15 H 0.8809 0.1207 0.3287
C16_15 C 0.8947(4) 0.1644(3) 0.2851(4)
C17_15 C 0.9172(4) 0.2008(3) 0.2842(5)
H11_15 H 0.9191 0.2133 0.2556
C18_15 C 0.9381(5) 0.2206(4) 0.3250(5)
H12_15 H 0.9531 0.2457 0.3238
C19_15 C 0.8725(4) 0.1430(3) 0.2437(4)
C20_15 C 0.8968(4) 0.1777(3) 0.6010(4)
N1_15 N 0.9553(4) 0.2211(3) 0.4097(4)
O3_15 O 0.9200(3) 0.1805(2) 0.6328(3)
O7_15 O 0.9639(3) 0.1738(2) 0.7082(3)
C22_15 C 0.9935(4) 0.1893(3) 0.6852(5)
C24_15 C 0.9837(5) 0.1295(3) 0.6895(5)
H16_15 H 0.9967 0.1169 0.6826
H17_15 H 0.9772 0.1267 0.7233
H18_15 H 0.9622 0.1196 0.6699
C26_15 C 0.8542(6) 0.2234(5) 0.3207(4)
H22_15 H 0.8465 0.1990 0.3151
C27_15 C 0.8559(5) 0.2455(4) 0.2827(4)
C28_15 C 0.8686(5) 0.2814(4) 0.2913(5)
H23_15 H 0.8703 0.2967 0.2660
C29_15 C 0.8795(7) 0.2956(6) 0.3398(5)
H24_15 H 0.8886 0.3203 0.3456
C30_15 C 0.8767(5) 0.2739(4) 0.3764(4)
C31_15 C 0.8639(6) 0.2374(5) 0.3664(5)
H25_15 H 0.8619 0.2220 0.3917
C32_15 C 0.9194(5) 0.3242(4) 0.4300(4)
C33_15 C 0.9504(6) 0.3342(5) 0.4095(5)
H26_15 H 0.9535 0.3177 0.3909
C34_15 C 0.9791(5) 0.3693(4) 0.4149(4)
C35_15 C 0.9755(5) 0.3948(4) 0.4434(4)
C36_15 C 0.9421(5) 0.3839(4) 0.4646(4)
H28_15 H 0.9391 0.4002 0.4837
C37_15 C 0.9129(5) 0.3490(4) 0.4580(4)
H29_15 H 0.8901 0.3420 0.4710
C38_15 C 0.8677(5) 0.2684(4) 0.4664(4)
C39_15 C 0.8313(7) 0.2465(6) 0.4634(5)
H30_15 H 0.8190 0.2441 0.4344
C40_15 C 0.8127(7) 0.2275(6) 0.5052(5)
H31_15 H 0.7874 0.2142 0.5046
C41_15 C 0.8311(5) 0.2280(4) 0.5482(4)
C42_15 C 0.8675(5) 0.2505(4) 0.5491(5)
H32_15 H 0.8800 0.2524 0.5777
C43_15 C 0.8873(6) 0.2714(5) 0.5083(5)
H33_15 H 0.9124 0.2864 0.5095
C44_15 C 0.8097(5) 0.2058(4) 0.5896(4)
C45_15 C 0.8444(5) 0.2301(4) 0.2323(4)
N3_15 N 0.8878(5) 0.2886(4) 0.4236(4)
O10_15 O 0.8472(4) 0.2533(3) 0.2005(3)
O14_15 O 0.8405(4) 0.2972(3) 0.1251(3)
C47_15 C 0.8560(5) 0.3268(4) 0.1481(5)
C48_15 C 0.8961(6) 0.3483(5) 0.1560(5)
H34_15 H 0.9021 0.3701 0.1738
H35_15 H 0.9038 0.3341 0.1742
H36_15 H 0.9083 0.3547 0.1251
N4_15 N 0.8358(4) 0.3408(4) 0.1551(3)
C49_15 C 0.7962(6) 0.3170(5) 0.1438(5)
H37_15 H 0.7836 0.3300 0.1507
H38_15 H 0.7934 0.3105 0.1100
H39_15 H 0.7863 0.2955 0.1634
C50_15 C 0.8493(6) 0.3780(5) 0.1763(5)
H40_15 H 0.8295 0.3828 0.1785
H41_15 H 0.8591 0.3792 0.2082
H42_15 H 0.8680 0.3959 0.1557
O20_12 O 0.9340(4) 0.2296(3) 0.7247(3)
C1_16 C 0.0359(4) 0.4792(3) 0.6541(4)
H1_16 H 0.0192 0.4869 0.6485
C2_16 C 0.0563(3) 0.4775(3) 0.6161(4)
C3_16 C 0.0795(3) 0.4648(3) 0.6247(5)
H2_16 H 0.0931 0.4631 0.5994
C4_16 C 0.0828(4) 0.4539(4) 0.6732(5)
H3_16 H 0.0984 0.4448 0.6790
C5_16 C 0.0639(3) 0.4567(3) 0.7098(4)
C6_16 C 0.0402(4) 0.4695(3) 0.6998(5)
H4_16 H 0.0268 0.4715 0.7251
C7_16 C 0.0715(3) 0.4140(3) 0.7634(4)
C8_16 C 0.0505(4) 0.3830(3) 0.7429(5)
H5_16 H 0.0309 0.3799 0.7243
C9_16 C 0.0569(3) 0.3543(3) 0.7483(4)
H6_16 H 0.0417 0.3323 0.7329
C10_16 C 0.0860(3) 0.3579(3) 0.7768(4)
C11_16 C 0.1085(3) 0.3913(3) 0.7980(4)
H7_16 H 0.1278 0.3943 0.8171
C12_16 C 0.1028(3) 0.4205(3) 0.7914(4)
H8_16 H 0.1186 0.4433 0.8044
C13_16 C 0.0674(3) 0.4657(3) 0.7998(4)
C14_16 C 0.0819(4) 0.5021(4) 0.7968(5)
H9_16 H 0.0918 0.5144 0.7678
C15_16 C 0.0815(4) 0.5207(4) 0.8386(5)
H10_16 H 0.0935 0.5460 0.8380
C16_16 C 0.0636(3) 0.5023(3) 0.8816(4)
C17_16 C 0.0497(3) 0.4659(3) 0.8825(5)
H11_16 H 0.0391 0.4534 0.9111
C18_16 C 0.0508(3) 0.4461(4) 0.8417(5)
H12_16 H 0.0407 0.4210 0.8429
C19_16 C 0.0628(3) 0.5237(3) 0.9230(4)
C20_16 C 0.0524(3) 0.4890(3) 0.5657(4)
C21_16 C 0.0915(3) 0.3256(3) 0.7844(4)
N1_16 N 0.0675(3) 0.4456(3) 0.7570(4)
O3_16 O 0.0728(2) 0.4862(2) 0.5339(3)
O7_16 O 0.1234(2) 0.4929(2) 0.4585(3)
C22_16 C 0.1375(3) 0.4774(3) 0.4815(5)
C23_16 C 0.1189(4) 0.4373(3) 0.4894(5)
H13_16 H 0.1347 0.4313 0.5072
H14_16 H 0.0970 0.4296 0.5076
H15_16 H 0.1131 0.4251 0.4585
N2_16 N 0.1717(2) 0.4976(3) 0.4885(3)
C24_16 C 0.1875(4) 0.5372(3) 0.4772(5)
H16_16 H 0.2131 0.5498 0.4841
H17_16 H 0.1838 0.5400 0.4434
H18_16 H 0.1759 0.5471 0.4968
C25_16 C 0.1954(4) 0.4841(3) 0.5097(5)
H19_16 H 0.2200 0.5039 0.5119
H20_16 H 0.1868 0.4743 0.5416
H21_16 H 0.1946 0.4654 0.4891
O14_16 O 0.8766(2) 0.3694(3) 0.0415(3)
C47_16 C 0.8625(3) 0.3398(4) 0.0185(5)
C48_16 C 0.8811(4) 0.3183(5) 0.0106(5)
H36_16 H 0.8869 0.3119 0.0415
N4_16 N 0.8283(2) 0.3258(4) 0.0115(3)
C49_16 C 0.8125(4) 0.3496(5) 0.0228(5)
H37_16 H 0.7869 0.3366 0.0159
H38_16 H 0.8162 0.3561 0.0566
H39_16 H 0.8241 0.3711 0.0032
H42_16 H 0.8054 0.2707 0.0109
C26_16 C 0.9641(4) 0.4432(5) 0.8459(4)
H22_16 H 0.9808 0.4676 0.8515
C27_16 C 0.9437(3) 0.4211(4) 0.8839(4)
C28_16 C 0.9205(3) 0.3852(4) 0.8753(5)
H23_16 H 0.9069 0.3699 0.9006
C29_16 C 0.9172(4) 0.3710(6) 0.8268(5)
H24_16 H 0.9016 0.3463 0.8210
C30_16 C 0.9361(3) 0.3927(4) 0.7902(4)
C31_16 C 0.9598(4) 0.4292(5) 0.8002(5)
H25_16 H 0.9732 0.4446 0.7749
C32_16 C 0.9285(3) 0.3424(4) 0.7366(4)
C33_16 C 0.9495(4) 0.3324(5) 0.7571(5)
H26_16 H 0.9691 0.3489 0.7757
C34_16 C 0.9431(3) 0.2973(4) 0.7517(4)
H27_16 H 0.9583 0.2905 0.7671
C35_16 C 0.9140(3) 0.2718(4) 0.7232(4)
C36_16 C 0.8915(3) 0.2827(4) 0.7020(4)
H28_16 H 0.8722 0.2664 0.6829
C37_16 C 0.8972(3) 0.3176(4) 0.7086(4)
H29_16 H 0.8814 0.3246 0.6956
C38_16 C 0.9326(3) 0.3982(4) 0.7002(4)
C39_16 C 0.9181(4) 0.4201(6) 0.7032(5)
H30_16 H 0.9082 0.4225 0.7322
C40_16 C 0.9185(4) 0.4391(6) 0.6614(5)
H31_16 H 0.9065 0.4524 0.6620
C41_16 C 0.9364(3) 0.4386(4) 0.6184(4)
C42_16 C 0.9503(3) 0.4161(4) 0.6175(5)
H32_16 H 0.9609 0.4142 0.5889
C43_16 C 0.9492(3) 0.3952(5) 0.6583(5)
H33_16 H 0.9593 0.3802 0.6571
C44_16 C 0.9372(3) 0.4608(4) 0.5770(4)
C45_16 C 0.9476(3) 0.4365(4) 0.9343(4)
C46_16 C 0.9085(3) 0.2340(4) 0.7156(4)
N3_16 N 0.9325(3) 0.3780(4) 0.7430(4)
O10_16 O 0.9272(2) 0.4133(3) 0.9661(3)
H34_16 H 0.8653 0.2965 0.9928
H35_16 H 0.9030 0.3325 0.9924
C50_16 C 0.8046(4) 0.2886(5) 0.9903(5)
H40_16 H 0.7800 0.2838 0.9881
H41_16 H 0.8132 0.2874 0.9584
O14_17 O 0.6306(3) 0.5071(4) 0.0415(3)
C47_17 C 0.6602(4) 0.5226(5) 0.0185(5)
C48_17 C 0.6817(5) 0.5627(6) 0.0106(5)
H36_17 H 0.6881 0.5749 0.0415
N4_17 N 0.6742(4) 0.5024(4) 0.0115(3)
C49_17 C 0.6504(5) 0.4628(6) 0.0228(5)
H37_17 H 0.6634 0.4502 0.0159
H38_17 H 0.6439 0.4600 0.0566
H39_17 H 0.6289 0.4529 0.0032
H42_17 H 0.7293 0.5346 0.0109
C1_17 C 0.5208(3) 0.5568(5) 0.6541(4)
H1_17 H 0.5131 0.5324 0.6485
C2_17 C 0.5225(3) 0.5789(4) 0.6161(4)
C3_17 C 0.5352(3) 0.6148(4) 0.6247(5)
H2_17 H 0.5369 0.6301 0.5994
C4_17 C 0.5461(4) 0.6290(6) 0.6732(5)
H3_17 H 0.5552 0.6537 0.6790
C5_17 C 0.5433(3) 0.6073(4) 0.7098(4)
C6_17 C 0.5305(3) 0.5708(5) 0.6998(5)
H4_17 H 0.5285 0.5554 0.7251
C7_17 C 0.5860(3) 0.6576(4) 0.7634(4)
C8_17 C 0.6170(3) 0.6676(5) 0.7429(5)
H5_17 H 0.6201 0.6511 0.7243
C9_17 C 0.6457(3) 0.7027(4) 0.7483(4)
H6_17 H 0.6677 0.7095 0.7329
C10_17 C 0.6421(3) 0.7282(4) 0.7768(4)
C11_17 C 0.6087(3) 0.7173(4) 0.7980(4)
H7_17 H 0.6057 0.7336 0.8171
C12_17 C 0.5795(3) 0.6824(4) 0.7914(4)
H8_17 H 0.5567 0.6754 0.8044
C13_17 C 0.5343(3) 0.6018(4) 0.7998(4)
C14_17 C 0.4979(4) 0.5799(6) 0.7968(5)
H9_17 H 0.4856 0.5775 0.7678
C15_17 C 0.4793(4) 0.5609(6) 0.8386(5)
H10_17 H 0.4540 0.5476 0.8380
C16_17 C 0.4977(3) 0.5614(4) 0.8816(4)
C17_17 C 0.5341(3) 0.5839(4) 0.8825(5)
H11_17 H 0.5466 0.5858 0.9111
C18_17 C 0.5539(4) 0.6048(5) 0.8417(5)
H12_17 H 0.5790 0.6198 0.8429
C19_17 C 0.4763(3) 0.5392(4) 0.9230(4)
C20_17 C 0.5110(3) 0.5635(4) 0.5657(4)
C21_17 C 0.6744(3) 0.7660(4) 0.7844(4)
N1_17 N 0.5544(3) 0.6220(4) 0.7570(4)
O3_17 O 0.5138(2) 0.5867(3) 0.5339(3)
O7_17 O 0.5071(2) 0.6306(3) 0.4585(3)
C22_17 C 0.5226(3) 0.6602(4) 0.4815(5)
C23_17 C 0.5627(3) 0.6817(5) 0.4894(5)
H13_17 H 0.5687 0.7035 0.5072
H14_17 H 0.5704 0.6675 0.5076
H15_17 H 0.5749 0.6881 0.4585
N2_17 N 0.5024(3) 0.6742(4) 0.4885(3)
C24_17 C 0.4628(3) 0.6504(5) 0.4772(5)
H16_17 H 0.4502 0.6634 0.4841
H17_17 H 0.4600 0.6439 0.4434
H18_17 H 0.4529 0.6289 0.4968
C25_17 C 0.5159(3) 0.7114(5) 0.5097(5)
H19_17 H 0.4961 0.7162 0.5119
H20_17 H 0.5257 0.7126 0.5416
H21_17 H 0.5346 0.7293 0.4891
C26_17 C 0.5568(5) 0.5208(6) 0.8459(4)
H22_17 H 0.5324 0.5131 0.8515
C27_17 C 0.5789(4) 0.5225(5) 0.8839(4)
C28_17 C 0.6148(4) 0.5352(5) 0.8753(5)
H23_17 H 0.6301 0.5369 0.9006
C29_17 C 0.6290(6) 0.5461(7) 0.8268(5)
H24_17 H 0.6537 0.5552 0.8210
C30_17 C 0.6073(4) 0.5433(5) 0.7902(4)
C31_17 C 0.5708(5) 0.5305(6) 0.8002(5)
H25_17 H 0.5554 0.5285 0.7749
C32_17 C 0.6576(4) 0.5860(5) 0.7366(4)
C33_17 C 0.6676(5) 0.6170(6) 0.7571(5)
H26_17 H 0.6511 0.6201 0.7757
C34_17 C 0.7027(4) 0.6457(5) 0.7517(4)
H27_17 H 0.7095 0.6677 0.7671
C35_17 C 0.7282(4) 0.6421(5) 0.7232(4)
C36_17 C 0.7173(4) 0.6087(5) 0.7020(4)
H28_17 H 0.7336 0.6057 0.6829
C37_17 C 0.6824(4) 0.5795(5) 0.7086(4)
H29_17 H 0.6754 0.5567 0.6956
C38_17 C 0.6018(4) 0.5343(5) 0.7002(4)
C39_17 C 0.5799(6) 0.4979(7) 0.7032(5)
H30_17 H 0.5775 0.4856 0.7322
C40_17 C 0.5609(6) 0.4793(7) 0.6614(5)
H31_17 H 0.5476 0.4540 0.6620
C41_17 C 0.5614(4) 0.4977(5) 0.6184(4)
C42_17 C 0.5839(4) 0.5341(5) 0.6175(5)
H32_17 H 0.5858 0.5466 0.5889
C43_17 C 0.6048(5) 0.5539(6) 0.6583(5)
H33_17 H 0.6198 0.5790 0.6571
C44_17 C 0.5392(4) 0.4763(5) 0.5770(4)
C45_17 C 0.5635(4) 0.5110(5) 0.9343(4)
C46_17 C 0.7660(4) 0.6744(5) 0.7156(4)
N3_17 N 0.6220(4) 0.5544(5) 0.7430(4)
O10_17 O 0.5867(3) 0.5138(4) 0.9661(3)
H34_17 H 0.7035 0.5687 0.9928
H35_17 H 0.6675 0.5704 0.9924
C50_17 C 0.7114(5) 0.5159(6) 0.9903(5)
H40_17 H 0.7162 0.4961 0.9881
H41_17 H 0.7126 0.5257 0.9584
O14_18 O 0.4929(4) 0.1234(2) 0.0415(3)
C47_18 C 0.4774(5) 0.1375(3) 0.0185(5)
C48_18 C 0.4373(6) 0.1189(4) 0.0106(5)
H36_18 H 0.4251 0.1131 0.0415
N4_18 N 0.4976(4) 0.1717(2) 0.0115(3)
C49_18 C 0.5372(6) 0.1875(4) 0.0228(5)
H37_18 H 0.5498 0.2131 0.0159
H38_18 H 0.5400 0.1838 0.0566
H39_18 H 0.5471 0.1759 0.0032
H42_18 H 0.4654 0.1946 0.0109
C26_18 C 0.4792(6) 0.0359(4) 0.8459(4)
H22_18 H 0.4869 0.0192 0.8515
C27_18 C 0.4775(5) 0.0563(3) 0.8839(4)
C28_18 C 0.4648(5) 0.0795(3) 0.8753(5)
H23_18 H 0.4631 0.0931 0.9006
C29_18 C 0.4539(7) 0.0828(4) 0.8268(5)
H24_18 H 0.4448 0.0984 0.8210
C30_18 C 0.4567(5) 0.0639(3) 0.7902(4)
C31_18 C 0.4695(6) 0.0402(4) 0.8002(5)
H25_18 H 0.4715 0.0268 0.7749
C32_18 C 0.4140(5) 0.0715(3) 0.7366(4)
C33_18 C 0.3830(6) 0.0505(4) 0.7571(5)
H26_18 H 0.3799 0.0309 0.7757
C34_18 C 0.3543(5) 0.0569(3) 0.7517(4)
H27_18 H 0.3323 0.0417 0.7671
C35_18 C 0.3579(5) 0.0860(3) 0.7232(4)
C36_18 C 0.3913(5) 0.1085(3) 0.7020(4)
H28_18 H 0.3943 0.1278 0.6829
C37_18 C 0.4205(5) 0.1028(3) 0.7086(4)
H29_18 H 0.4433 0.1186 0.6956
C38_18 C 0.4657(5) 0.0674(3) 0.7002(4)
C39_18 C 0.5021(7) 0.0819(4) 0.7032(5)
H30_18 H 0.5144 0.0918 0.7322
C40_18 C 0.5207(7) 0.0815(4) 0.6614(5)
H31_18 H 0.5460 0.0935 0.6620
C41_18 C 0.5023(5) 0.0636(3) 0.6184(4)
C42_18 C 0.4659(5) 0.0497(3) 0.6175(5)
H32_18 H 0.4534 0.0391 0.5889
C43_18 C 0.4461(6) 0.0508(3) 0.6583(5)
H33_18 H 0.4210 0.0407 0.6571
C44_18 C 0.5237(5) 0.0628(3) 0.5770(4)
C45_18 C 0.4890(5) 0.0524(3) 0.9343(4)
C46_18 C 0.3256(5) 0.0915(3) 0.7156(4)
N3_18 N 0.4456(5) 0.0675(3) 0.7430(4)
O10_18 O 0.4862(4) 0.0728(2) 0.9661(3)
H34_18 H 0.4313 0.1347 0.9928
H35_18 H 0.4296 0.0970 0.9924
C50_18 C 0.4841(6) 0.1954(4) 0.9903(5)
H40_18 H 0.5039 0.2200 0.9881
H41_18 H 0.4743 0.1868 0.9584
C1_18 C 0.4432(5) 0.9641(4) 0.6541(4)
H1_18 H 0.4676 0.9808 0.6485
C2_18 C 0.4211(4) 0.9437(3) 0.6161(4)
C3_18 C 0.3852(4) 0.9205(3) 0.6247(5)
H2_18 H 0.3699 0.9069 0.5994
C4_18 C 0.3710(6) 0.9172(4) 0.6732(5)
H3_18 H 0.3463 0.9016 0.6790
C5_18 C 0.3927(4) 0.9361(3) 0.7098(4)
C6_18 C 0.4292(5) 0.9598(4) 0.6998(5)
H4_18 H 0.4446 0.9732 0.7251
C7_18 C 0.3424(4) 0.9285(3) 0.7634(4)
C8_18 C 0.3324(5) 0.9495(4) 0.7429(5)
H5_18 H 0.3489 0.9691 0.7243
C9_18 C 0.2973(4) 0.9431(3) 0.7483(4)
H6_18 H 0.2905 0.9583 0.7329
C10_18 C 0.2718(4) 0.9140(3) 0.7768(4)
C11_18 C 0.2827(4) 0.8915(3) 0.7980(4)
H7_18 H 0.2664 0.8722 0.8171
C12_18 C 0.3176(4) 0.8972(3) 0.7914(4)
H8_18 H 0.3246 0.8814 0.8044
C13_18 C 0.3982(4) 0.9326(3) 0.7998(4)
C14_18 C 0.4201(6) 0.9181(4) 0.7968(5)
H9_18 H 0.4225 0.9082 0.7678
C15_18 C 0.4391(6) 0.9185(4) 0.8386(5)
H10_18 H 0.4524 0.9065 0.8380
C16_18 C 0.4386(4) 0.9364(3) 0.8816(4)
C17_18 C 0.4161(4) 0.9503(3) 0.8825(5)
H11_18 H 0.4142 0.9609 0.9111
C18_18 C 0.3952(5) 0.9492(3) 0.8417(5)
H12_18 H 0.3802 0.9593 0.8429
C19_18 C 0.4608(4) 0.9372(3) 0.9230(4)
C20_18 C 0.4365(4) 0.9476(3) 0.5657(4)
C21_18 C 0.2340(4) 0.9085(3) 0.7844(4)
N1_18 N 0.3780(4) 0.9325(3) 0.7570(4)
O3_18 O 0.4133(3) 0.9272(2) 0.5339(3)
O7_18 O 0.3694(3) 0.8766(2) 0.4585(3)
C22_18 C 0.3398(4) 0.8625(3) 0.4815(5)
C23_18 C 0.3183(5) 0.8811(4) 0.4894(5)
H13_18 H 0.2965 0.8653 0.5072
H14_18 H 0.3325 0.9030 0.5076
H15_18 H 0.3119 0.8869 0.4585
N2_18 N 0.3258(4) 0.8283(2) 0.4885(3)
C24_18 C 0.3496(5) 0.8125(4) 0.4772(5)
H16_18 H 0.3366 0.7869 0.4841
H17_18 H 0.3561 0.8162 0.4434
H18_18 H 0.3711 0.8241 0.4968
C25_18 C 0.2886(5) 0.8046(4) 0.5097(5)
H19_18 H 0.2838 0.7800 0.5119
H20_18 H 0.2874 0.8132 0.5416
H21_18 H 0.2707 0.8054 0.4891
loop_
_geom_bond_atom_site_label_1
_geom_bond_atom_site_label_2
_geom_bond_site_symmetry_1
_geom_bond_site_symmetry_2
C1 H1 1_555 1_555
C2 C1 1_555 1_555
C3 C2 1_555 1_555
H2 C3 1_555 1_555
C20 C2 1_555 1_555
O3 C20 1_555 1_555
O4 C20 1_555 1_555
Zn1 O4 1_555 1_555
Zn2 O3 1_555 1_555
O7 Zn2 1_555 1_555
C22 O7 1_555 1_555
C23 C22 1_555 1_555
H13 C23 1_555 1_555
H14 C23 1_555 1_555
H15 C23 1_555 1_555
N2 C22 1_555 1_555
C24 N2 1_555 1_555
H16 C24 1_555 1_555
H17 C24 1_555 1_555
H18 C24 1_555 1_555
C25 N2 1_555 1_555
H19 C25 1_555 1_555
H20 C25 1_555 1_555
H21 C25 1_555 1_555
H31 C40 1_555 1_555
C41 C40 1_555 1_555
C42 C41 1_555 1_555
H32 C42 1_555 1_555
H33 C43 1_555 1_555
C44 C41 1_555 1_555
O8 Zn1 1_555 1_555
O9 C44 1_555 1_555
O15 Zn1 1_555 1_555
O16 Zn2 1_555 1_555
O18 Zn1 1_555 1_555
O20 Zn2 1_555 1_555
O21 Zn1 1_555 1_555
O22 Zn1 1_555 1_555
Zn10 O9 1_555 1_555
C42 C43 1_555 1_555
C44 O8 1_555 1_555
H3 C4 1_555 1_555
C5 C4 1_555 1_555
H4 C6 1_555 1_555
C7 C8 1_555 1_555
C8 H5 1_555 1_555
C9 C8 1_555 1_555
H6 C9 1_555 1_555
C10 C9 1_555 1_555
C11 C10 1_555 1_555
H7 C11 1_555 1_555
C12 C7 1_555 1_555
H8 C12 1_555 1_555
C13 C14 1_555 1_555
C14 H9 1_555 1_555
C15 C14 1_555 1_555
H10 C15 1_555 1_555
C16 C15 1_555 1_555
C17 C16 1_555 1_555
H11 C17 1_555 1_555
C18 C13 1_555 1_555
H12 C18 1_555 1_555
C19 C16 1_555 1_555
C21 C10 1_555 1_555
N1 C5 1_555 1_555
O1 C19 1_555 1_555
O2 C19 1_555 1_555
O5 C21 1_555 1_555
O6 C21 1_555 1_555
C26 H22 1_555 1_555
C27 C26 1_555 1_555
C28 C27 1_555 1_555
H23 C28 1_555 1_555
C29 C28 1_555 1_555
H24 C29 1_555 1_555
C30 C29 1_555 1_555
C31 C26 1_555 1_555
H25 C31 1_555 1_555
C32 C33 1_555 1_555
C33 H26 1_555 1_555
C34 C33 1_555 1_555
H27 C34 1_555 1_555
C35 C34 1_555 1_555
C36 C35 1_555 1_555
H28 C36 1_555 1_555
C37 C32 1_555 1_555
H29 C37 1_555 1_555
C38 C39 1_555 1_555
C39 H30 1_555 1_555
C45 C27 1_555 1_555
C46 C35 1_555 1_555
N3 C30 1_555 1_555
O10 C45 1_555 1_555
O11 C45 1_555 1_555
O12 C46 1_555 1_555
O13 C46 1_555 1_555
Zn3 O10 1_555 1_555
O14 Zn3 1_555 1_555
C47 O14 1_555 1_555
C48 C47 1_555 1_555
H34 C48 1_555 1_555
H35 C48 1_555 1_555
H36 C48 1_555 1_555
N4 C47 1_555 1_555
C49 N4 1_555 1_555
H37 C49 1_555 1_555
H38 C49 1_555 1_555
H39 C49 1_555 1_555
C50 N4 1_555 1_555
H40 C50 1_555 1_555
H41 C50 1_555 1_555
H42 C50 1_555 1_555
O17 Zn3 1_555 1_555
O19 Zn3 1_555 1_555
Zn4 O1 1_555 1_555
Zn5 O6 1_555 1_555
Zn6_2 O13 1_555 1_555
Zn7 O5 1_555 1_555
Zn8 O12 1_555 1_555
Zn9 O2 1_555 1_555
C5 C6 1_555 1_555
C7 N1 1_555 1_555
C11 C12 1_555 1_555
C13 N1 1_555 1_555
C17 C18 1_555 1_555
C30 C31 1_555 1_555
C32 N3 1_555 1_555
C36 C37 1_555 1_555
C38 N3 1_555 1_555
O11 Zn4 1_555 1_555
C1_2 H1_2 1_555 1_555
C2_2 C1_2 1_555 1_555
C3_2 C2_2 1_555 1_555
H2_2 C3_2 1_555 1_555
C20_2 C2_2 1_555 1_555
O3_2 C20_2 1_555 1_555
O4_2 C20_2 1_555 1_555
Zn1_2 O4_2 1_555 1_555
Zn2_2 O3_2 1_555 1_555
O7_2 Zn2_2 1_555 1_555
C22_2 O7_2 1_555 1_555
H16_2 C24_2 1_555 1_555
H17_2 C24_2 1_555 1_555
H18_2 C24_2 1_555 1_555
H31_2 C40_2 1_555 1_555
C41_2 C40_2 1_555 1_555
C42_2 C41_2 1_555 1_555
H32_2 C42_2 1_555 1_555
H33_2 C43_2 1_555 1_555
C44_2 C41_2 1_555 1_555
O8_2 Zn1_2 1_555 1_555
O9_2 C44_2 1_555 1_555
O15_2 Zn1_2 1_555 1_555
O16_2 Zn2_2 1_555 1_555
O18_2 Zn1_2 1_555 1_555
O20_2 Zn2_2 1_555 1_555
O21_2 Zn1_2 1_555 1_555
O22_2 Zn1_2 1_555 1_555
Zn10_2 O9_2 1_555 1_555
C42_2 C43_2 1_555 1_555
C44_2 O8_2 1_555 1_555
H3_2 C4_2 1_555 1_555
C5_2 C4_2 1_555 1_555
H4_2 C6_2 1_555 1_555
C13_2 C14_2 1_555 1_555
C14_2 H9_2 1_555 1_555
C15_2 C14_2 1_555 1_555
H10_2 C15_2 1_555 1_555
C16_2 C15_2 1_555 1_555
C17_2 C16_2 1_555 1_555
H11_2 C17_2 1_555 1_555
C18_2 C13_2 1_555 1_555
H12_2 C18_2 1_555 1_555
C19_2 C16_2 1_555 1_555
N1_2 C5_2 1_555 1_555
O1_2 C19_2 1_555 1_555
O2_2 C19_2 1_555 1_555
C26_2 H22_2 1_555 1_555
C27_2 C26_2 1_555 1_555
C28_2 C27_2 1_555 1_555
H23_2 C28_2 1_555 1_555
C29_2 C28_2 1_555 1_555
H24_2 C29_2 1_555 1_555
C30_2 C29_2 1_555 1_555
C31_2 C26_2 1_555 1_555
H25_2 C31_2 1_555 1_555
C32_2 C33_2 1_555 1_555
C33_2 H26_2 1_555 1_555
C34_2 C33_2 1_555 1_555
C35_2 C34_2 1_555 1_555
C36_2 C35_2 1_555 1_555
H28_2 C36_2 1_555 1_555
C37_2 C32_2 1_555 1_555
H29_2 C37_2 1_555 1_555
C38_2 C39_2 1_555 1_555
C39_2 H30_2 1_555 1_555
C45_2 C27_2 1_555 1_555
N3_2 C30_2 1_555 1_555
O10_2 C45_2 1_555 1_555
O11_2 C45_2 1_555 1_555
Zn3_2 O10_2 1_555 1_555
O14_2 Zn3_2 1_555 1_555
C47_2 O14_2 1_555 1_555
C48_2 C47_2 1_555 1_555
H34_2 C48_2 1_555 1_555
H35_2 C48_2 1_555 1_555
H36_2 C48_2 1_555 1_555
N4_2 C47_2 1_555 1_555
C49_2 N4_2 1_555 1_555
H37_2 C49_2 1_555 1_555
H38_2 C49_2 1_555 1_555
H39_2 C49_2 1_555 1_555
C50_2 N4_2 1_555 1_555
H40_2 C50_2 1_555 1_555
H41_2 C50_2 1_555 1_555
H42_2 C50_2 1_555 1_555
O17_2 Zn3_2 1_555 1_555
O19_2 Zn3_2 1_555 1_555
Zn4_2 O1_2 1_555 1_555
Zn9_2 O2_2 1_555 1_555
C5_2 C6_2 1_555 1_555
C7_2 N1_2 1_555 1_555
C13_2 N1_2 1_555 1_555
C17_2 C18_2 1_555 1_555
C30_2 C31_2 1_555 1_555
C32_2 N3_2 1_555 1_555
C36_2 C37_2 1_555 1_555
C38_2 N3_2 1_555 1_555
O11_2 Zn4_2 1_555 1_555
H13_2 C23_2 1_555 1_555
H14_2 C23_2 1_555 1_555
H15_2 C23_2 1_555 1_555
C25_2 N2_2 1_555 1_555
H19_2 C25_2 1_555 1_555
H20_2 C25_2 1_555 1_555
H21_2 C25_2 1_555 1_555
C9_2 C8_2 1_555 1_555
H6_2 C9_2 1_555 1_555
C10_2 C9_2 1_555 1_555
C11_2 C10_2 1_555 1_555
H7_2 C11_2 1_555 1_555
H8_2 C12_2 1_555 1_555
C21_2 C10_2 1_555 1_555
O5_2 C21_2 1_555 1_555
O6_2 C21_2 1_555 1_555
O12_2 C46_2 1_555 1_555
O13_2 C46_2 1_555 1_555
Zn5_2 O6_2 1_555 1_555
Zn6_4 O13_2 1_555 1_555
Zn7_2 O5_2 1_555 1_555
Zn8_2 O12_2 1_555 1_555
C11_2 C12_2 1_555 1_555
H13_3 C23_3 1_555 1_555
H14_3 C23_3 1_555 1_555
H15_3 C23_3 1_555 1_555
C25_3 N2_3 1_555 1_555
H19_3 C25_3 1_555 1_555
H20_3 C25_3 1_555 1_555
H21_3 C25_3 1_555 1_555
C9_3 C8_3 1_555 1_555
H6_3 C9_3 1_555 1_555
C10_3 C9_3 1_555 1_555
C11_3 C10_3 1_555 1_555
H7_3 C11_3 1_555 1_555
H8_3 C12_3 1_555 1_555
C21_3 C10_3 1_555 1_555
O5_3 C21_3 1_555 1_555
O6_3 C21_3 1_555 1_555
O12_3 C46_3 1_555 1_555
O13_3 C46_3 1_555 1_555
Zn5_3 O6_3 1_555 1_555
Zn6_6 O13_3 1_555 1_555
Zn7_3 O5_3 1_555 1_555
Zn8_3 O12_3 1_555 1_555
C11_3 C12_3 1_555 1_555
C1_3 H1_3 1_555 1_555
C2_3 C1_3 1_555 1_555
C3_3 C2_3 1_555 1_555
H2_3 C3_3 1_555 1_555
C20_3 C2_3 1_555 1_555
O3_3 C20_3 1_555 1_555
O4_3 C20_3 1_555 1_555
Zn1_3 O4_3 1_555 1_555
Zn2_3 O3_3 1_555 1_555
O7_3 Zn2_3 1_555 1_555
C22_3 O7_3 1_555 1_555
H16_3 C24_3 1_555 1_555
H17_3 C24_3 1_555 1_555
H18_3 C24_3 1_555 1_555
H31_3 C40_3 1_555 1_555
C41_3 C40_3 1_555 1_555
C42_3 C41_3 1_555 1_555
H32_3 C42_3 1_555 1_555
H33_3 C43_3 1_555 1_555
C44_3 C41_3 1_555 1_555
O8_3 Zn1_3 1_555 1_555
O9_3 C44_3 1_555 1_555
O15_3 Zn1_3 1_555 1_555
O16_3 Zn2_3 1_555 1_555
O18_3 Zn1_3 1_555 1_555
O20_3 Zn2_3 1_555 1_555
O21_3 Zn1_3 1_555 1_555
O22_3 Zn1_3 1_555 1_555
Zn10_3 O9_3 1_555 1_555
C42_3 C43_3 1_555 1_555
C44_3 O8_3 1_555 1_555
H3_3 C4_3 1_555 1_555
C5_3 C4_3 1_555 1_555
H4_3 C6_3 1_555 1_555
C13_3 C14_3 1_555 1_555
C14_3 H9_3 1_555 1_555
C15_3 C14_3 1_555 1_555
H10_3 C15_3 1_555 1_555
C16_3 C15_3 1_555 1_555
C17_3 C16_3 1_555 1_555
H11_3 C17_3 1_555 1_555
C18_3 C13_3 1_555 1_555
H12_3 C18_3 1_555 1_555
C19_3 C16_3 1_555 1_555
N1_3 C5_3 1_555 1_555
O1_3 C19_3 1_555 1_555
O2_3 C19_3 1_555 1_555
C26_3 H22_3 1_555 1_555
C27_3 C26_3 1_555 1_555
C28_3 C27_3 1_555 1_555
H23_3 C28_3 1_555 1_555
C29_3 C28_3 1_555 1_555
H24_3 C29_3 1_555 1_555
C30_3 C29_3 1_555 1_555
C31_3 C26_3 1_555 1_555
H25_3 C31_3 1_555 1_555
C32_3 C33_3 1_555 1_555
C33_3 H26_3 1_555 1_555
C34_3 C33_3 1_555 1_555
C35_3 C34_3 1_555 1_555
C36_3 C35_3 1_555 1_555
H28_3 C36_3 1_555 1_555
C37_3 C32_3 1_555 1_555
H29_3 C37_3 1_555 1_555
C38_3 C39_3 1_555 1_555
C39_3 H30_3 1_555 1_555
C45_3 C27_3 1_555 1_555
N3_3 C30_3 1_555 1_555
O10_3 C45_3 1_555 1_555
O11_3 C45_3 1_555 1_555
Zn3_3 O10_3 1_555 1_555
O14_3 Zn3_3 1_555 1_555
C47_3 O14_3 1_555 1_555
C48_3 C47_3 1_555 1_555
H34_3 C48_3 1_555 1_555
H35_3 C48_3 1_555 1_555
H36_3 C48_3 1_555 1_555
N4_3 C47_3 1_555 1_555
C49_3 N4_3 1_555 1_555
H37_3 C49_3 1_555 1_555
H38_3 C49_3 1_555 1_555
H39_3 C49_3 1_555 1_555
C50_3 N4_3 1_555 1_555
H40_3 C50_3 1_555 1_555
H41_3 C50_3 1_555 1_555
H42_3 C50_3 1_555 1_555
O17_3 Zn3_3 1_555 1_555
O19_3 Zn3_3 1_555 1_555
Zn4_3 O1_3 1_555 1_555
Zn9_3 O2_3 1_555 1_555
C5_3 C6_3 1_555 1_555
C7_3 N1_3 1_555 1_555
C13_3 N1_3 1_555 1_555
C17_3 C18_3 1_555 1_555
C30_3 C31_3 1_555 1_555
C32_3 N3_3 1_555 1_555
C36_3 C37_3 1_555 1_555
C38_3 N3_3 1_555 1_555
O11_3 Zn4_3 1_555 1_555
C1_4 H1_4 1_555 1_555
C2_4 C1_4 1_555 1_555
C3_4 C2_4 1_555 1_555
H2_4 C3_4 1_555 1_555
C4_4 C3_4 1_555 1_555
H3_4 C4_4 1_555 1_555
C5_4 C4_4 1_555 1_555
C6_4 C1_4 1_555 1_555
H4_4 C6_4 1_555 1_555
C7_4 C8_4 1_555 1_555
C8_4 H5_4 1_555 1_555
C9_4 C8_4 1_555 1_555
H6_4 C9_4 1_555 1_555
C10_4 C9_4 1_555 1_555
C11_4 C10_4 1_555 1_555
H7_4 C11_4 1_555 1_555
C12_4 C7_4 1_555 1_555
H8_4 C12_4 1_555 1_555
C13_4 C14_4 1_555 1_555
C14_4 H9_4 1_555 1_555
C15_4 C14_4 1_555 1_555
H10_4 C15_4 1_555 1_555
C16_4 C15_4 1_555 1_555
C17_4 C16_4 1_555 1_555
H11_4 C17_4 1_555 1_555
C18_4 C13_4 1_555 1_555
H12_4 C18_4 1_555 1_555
C19_4 C16_4 1_555 1_555
C20_4 C2_4 1_555 1_555
C21_4 C10_4 1_555 1_555
N1_4 C5_4 1_555 1_555
O1_4 C19_4 1_555 1_555
O2_4 C19_4 1_555 1_555
O3_4 C20_4 1_555 1_555
O4_4 C20_4 1_555 1_555
O19 C21_4 1_555 1_555
O6_4 C21_4 1_555 1_555
Zn1_4 O4_4 1_555 1_555
Zn2_4 O3_4 1_555 1_555
O7_4 Zn2_4 1_555 1_555
C22_4 O7_4 1_555 1_555
C23_4 C22_4 1_555 1_555
H13_4 C23_4 1_555 1_555
H14_4 C23_4 1_555 1_555
H15_4 C23_4 1_555 1_555
N2_4 C22_4 1_555 1_555
C24_4 N2_4 1_555 1_555
H16_4 C24_4 1_555 1_555
H17_4 C24_4 1_555 1_555
H18_4 C24_4 1_555 1_555
C25_4 N2_4 1_555 1_555
H19_4 C25_4 1_555 1_555
H20_4 C25_4 1_555 1_555
H21_4 C25_4 1_555 1_555
C26_4 H22_4 1_555 1_555
C27_4 C26_4 1_555 1_555
C28_4 C27_4 1_555 1_555
H23_4 C28_4 1_555 1_555
C29_4 C28_4 1_555 1_555
H24_4 C29_4 1_555 1_555
C30_4 C29_4 1_555 1_555
C31_4 C26_4 1_555 1_555
H25_4 C31_4 1_555 1_555
C32_4 C33_4 1_555 1_555
C33_4 H26_4 1_555 1_555
C34_4 C33_4 1_555 1_555
H27_4 C34_4 1_555 1_555
C35_4 C34_4 1_555 1_555
C36_4 C35_4 1_555 1_555
H28_4 C36_4 1_555 1_555
C37_4 C32_4 1_555 1_555
H29_4 C37_4 1_555 1_555
C38_4 C39_4 1_555 1_555
C39_4 H30_4 1_555 1_555
C40_4 C39_4 1_555 1_555
H31_4 C40_4 1_555 1_555
C41_4 C40_4 1_555 1_555
C42_4 C41_4 1_555 1_555
H32_4 C42_4 1_555 1_555
C43_4 C38_4 1_555 1_555
H33_4 C43_4 1_555 1_555
C44_4 C41_4 1_555 1_555
C45_4 C27_4 1_555 1_555
C46_4 C35_4 1_555 1_555
N3_4 C30_4 1_555 1_555
O8_4 Zn1_4 1_555 1_555
O9_4 C44_4 1_555 1_555
O10_4 C45_4 1_555 1_555
O11_4 C45_4 1_555 1_555
O12_4 C46_4 1_555 1_555
O13_4 C46_4 1_555 1_555
Zn7 O10_4 1_555 1_555
O14_4 Zn7 1_555 1_555
C47_4 O14_4 1_555 1_555
C48_4 C47_4 1_555 1_555
H34_4 C48_4 1_555 1_555
H35_4 C48_4 1_555 1_555
H36_4 C48_4 1_555 1_555
N4_4 C47_4 1_555 1_555
C49_4 N4_4 1_555 1_555
H37_4 C49_4 1_555 1_555
H38_4 C49_4 1_555 1_555
H39_4 C49_4 1_555 1_555
C50_4 N4_4 1_555 1_555
H40_4 C50_4 1_555 1_555
H41_4 C50_4 1_555 1_555
H42_4 C50_4 1_555 1_555
O15_4 Zn1_4 1_555 1_555
O16_4 Zn2_4 1_555 1_555
O17_4 Zn7 1_555 1_555
O18_4 Zn1_4 1_555 1_555
O20_4 Zn2_4 1_555 1_555
O21_4 Zn1_4 1_555 1_555
O22_4 Zn1_4 1_555 1_555
Zn5 O1_4 1_555 1_555
Zn4 O6_4 1_555 1_555
Zn6_7 O13_4 1_555 1_555
Zn8_4 O12_4 1_555 1_555
Zn9_4 O2_4 1_555 1_555
Zn10_4 O9_4 1_555 1_555
C5_4 C6_4 1_555 1_555
C7_4 N1_4 1_555 1_555
C11_4 C12_4 1_555 1_555
C13_4 N1_4 1_555 1_555
C17_4 C18_4 1_555 1_555
C30_4 C31_4 1_555 1_555
C32_4 N3_4 1_555 1_555
C36_4 C37_4 1_555 1_555
C38_4 N3_4 1_555 1_555
C42_4 C43_4 1_555 1_555
C44_4 O8_4 1_555 1_555
O11_4 Zn5 1_555 1_555
C9_5 C8_5 1_555 1_555
H6_5 C9_5 1_555 1_555
C10_5 C9_5 1_555 1_555
C11_5 C10_5 1_555 1_555
H7_5 C11_5 1_555 1_555
H8_5 C12_5 1_555 1_555
C21_5 C10_5 1_555 1_555
O19_2 C21_5 1_555 1_555
O6_5 C21_5 1_555 1_555
H13_5 C23_5 1_555 1_555
H14_5 C23_5 1_555 1_555
H15_5 C23_5 1_555 1_555
C25_5 N2_5 1_555 1_555
H19_5 C25_5 1_555 1_555
H20_5 C25_5 1_555 1_555
H21_5 C25_5 1_555 1_555
O12_5 C46_5 1_555 1_555
O13_5 C46_5 1_555 1_555
Zn4_2 O6_5 1_555 1_555
Zn6_8 O13_5 1_555 1_555
Zn8_5 O12_5 1_555 1_555
C11_5 C12_5 1_555 1_555
C1_5 H1_5 1_555 1_555
C2_5 C1_5 1_555 1_555
C3_5 C2_5 1_555 1_555
H2_5 C3_5 1_555 1_555
C4_5 C3_5 1_555 1_555
H3_5 C4_5 1_555 1_555
C5_5 C4_5 1_555 1_555
C6_5 C1_5 1_555 1_555
H4_5 C6_5 1_555 1_555
C13_5 C14_5 1_555 1_555
C14_5 H9_5 1_555 1_555
C15_5 C14_5 1_555 1_555
H10_5 C15_5 1_555 1_555
C16_5 C15_5 1_555 1_555
C17_5 C16_5 1_555 1_555
H11_5 C17_5 1_555 1_555
C18_5 C13_5 1_555 1_555
H12_5 C18_5 1_555 1_555
C19_5 C16_5 1_555 1_555
C20_5 C2_5 1_555 1_555
N1_5 C5_5 1_555 1_555
O1_5 C19_5 1_555 1_555
O2_5 C19_5 1_555 1_555
O3_5 C20_5 1_555 1_555
O4_5 C20_5 1_555 1_555
Zn1_5 O4_5 1_555 1_555
Zn2_5 O3_5 1_555 1_555
O7_5 Zn2_5 1_555 1_555
C22_5 O7_5 1_555 1_555
H16_5 C24_5 1_555 1_555
H17_5 C24_5 1_555 1_555
H18_5 C24_5 1_555 1_555
C26_5 H22_5 1_555 1_555
C27_5 C26_5 1_555 1_555
C28_5 C27_5 1_555 1_555
H23_5 C28_5 1_555 1_555
C29_5 C28_5 1_555 1_555
H24_5 C29_5 1_555 1_555
C30_5 C29_5 1_555 1_555
C31_5 C26_5 1_555 1_555
H25_5 C31_5 1_555 1_555
C32_5 C33_5 1_555 1_555
C33_5 H26_5 1_555 1_555
C34_5 C33_5 1_555 1_555
C35_5 C34_5 1_555 1_555
C36_5 C35_5 1_555 1_555
H28_5 C36_5 1_555 1_555
C37_5 C32_5 1_555 1_555
H29_5 C37_5 1_555 1_555
C38_5 C39_5 1_555 1_555
C39_5 H30_5 1_555 1_555
C40_5 C39_5 1_555 1_555
H31_5 C40_5 1_555 1_555
C41_5 C40_5 1_555 1_555
C42_5 C41_5 1_555 1_555
H32_5 C42_5 1_555 1_555
C43_5 C38_5 1_555 1_555
H33_5 C43_5 1_555 1_555
C44_5 C41_5 1_555 1_555
C45_5 C27_5 1_555 1_555
N3_5 C30_5 1_555 1_555
O8_5 Zn1_5 1_555 1_555
O9_5 C44_5 1_555 1_555
O10_5 C45_5 1_555 1_555
O11_5 C45_5 1_555 1_555
Zn7_2 O10_5 1_555 1_555
O14_5 Zn7_2 1_555 1_555
C47_5 O14_5 1_555 1_555
C48_5 C47_5 1_555 1_555
H34_5 C48_5 1_555 1_555
H35_5 C48_5 1_555 1_555
H36_5 C48_5 1_555 1_555
N4_5 C47_5 1_555 1_555
C49_5 N4_5 1_555 1_555
H37_5 C49_5 1_555 1_555
H38_5 C49_5 1_555 1_555
H39_5 C49_5 1_555 1_555
C50_5 N4_5 1_555 1_555
H40_5 C50_5 1_555 1_555
H41_5 C50_5 1_555 1_555
H42_5 C50_5 1_555 1_555
O15_5 Zn1_5 1_555 1_555
O16_5 Zn2_5 1_555 1_555
O17_5 Zn7_2 1_555 1_555
O18_5 Zn1_5 1_555 1_555
O20_5 Zn2_5 1_555 1_555
O21_5 Zn1_5 1_555 1_555
O22_5 Zn1_5 1_555 1_555
Zn5_2 O1_5 1_555 1_555
Zn9_5 O2_5 1_555 1_555
Zn10_5 O9_5 1_555 1_555
C5_5 C6_5 1_555 1_555
C7_5 N1_5 1_555 1_555
C13_5 N1_5 1_555 1_555
C17_5 C18_5 1_555 1_555
C30_5 C31_5 1_555 1_555
C32_5 N3_5 1_555 1_555
C36_5 C37_5 1_555 1_555
C38_5 N3_5 1_555 1_555
C42_5 C43_5 1_555 1_555
C44_5 O8_5 1_555 1_555
O11_5 Zn5_2 1_555 1_555
C1_6 H1_6 1_555 1_555
C2_6 C1_6 1_555 1_555
C3_6 C2_6 1_555 1_555
H2_6 C3_6 1_555 1_555
C4_6 C3_6 1_555 1_555
H3_6 C4_6 1_555 1_555
C5_6 C4_6 1_555 1_555
C6_6 C1_6 1_555 1_555
H4_6 C6_6 1_555 1_555
C13_6 C14_6 1_555 1_555
C14_6 H9_6 1_555 1_555
C15_6 C14_6 1_555 1_555
H10_6 C15_6 1_555 1_555
C16_6 C15_6 1_555 1_555
C17_6 C16_6 1_555 1_555
H11_6 C17_6 1_555 1_555
C18_6 C13_6 1_555 1_555
H12_6 C18_6 1_555 1_555
C19_6 C16_6 1_555 1_555
C20_6 C2_6 1_555 1_555
N1_6 C5_6 1_555 1_555
O1_6 C19_6 1_555 1_555
O2_6 C19_6 1_555 1_555
O3_6 C20_6 1_555 1_555
O4_6 C20_6 1_555 1_555
Zn1_6 O4_6 1_555 1_555
Zn2_6 O3_6 1_555 1_555
O7_6 Zn2_6 1_555 1_555
C22_6 O7_6 1_555 1_555
H16_6 C24_6 1_555 1_555
H17_6 C24_6 1_555 1_555
H18_6 C24_6 1_555 1_555
C26_6 H22_6 1_555 1_555
C27_6 C26_6 1_555 1_555
C28_6 C27_6 1_555 1_555
H23_6 C28_6 1_555 1_555
C29_6 C28_6 1_555 1_555
H24_6 C29_6 1_555 1_555
C30_6 C29_6 1_555 1_555
C31_6 C26_6 1_555 1_555
H25_6 C31_6 1_555 1_555
C32_6 C33_6 1_555 1_555
C33_6 H26_6 1_555 1_555
C34_6 C33_6 1_555 1_555
C35_6 C34_6 1_555 1_555
C36_6 C35_6 1_555 1_555
H28_6 C36_6 1_555 1_555
C37_6 C32_6 1_555 1_555
H29_6 C37_6 1_555 1_555
C38_6 C39_6 1_555 1_555
C39_6 H30_6 1_555 1_555
C40_6 C39_6 1_555 1_555
H31_6 C40_6 1_555 1_555
C41_6 C40_6 1_555 1_555
C42_6 C41_6 1_555 1_555
H32_6 C42_6 1_555 1_555
C43_6 C38_6 1_555 1_555
H33_6 C43_6 1_555 1_555
C44_6 C41_6 1_555 1_555
C45_6 C27_6 1_555 1_555
N3_6 C30_6 1_555 1_555
O8_6 Zn1_6 1_555 1_555
O9_6 C44_6 1_555 1_555
O10_6 C45_6 1_555 1_555
O11_6 C45_6 1_555 1_555
Zn7_3 O10_6 1_555 1_555
O14_6 Zn7_3 1_555 1_555
C47_6 O14_6 1_555 1_555
C48_6 C47_6 1_555 1_555
H34_6 C48_6 1_555 1_555
H35_6 C48_6 1_555 1_555
H36_6 C48_6 1_555 1_555
N4_6 C47_6 1_555 1_555
C49_6 N4_6 1_555 1_555
H37_6 C49_6 1_555 1_555
H38_6 C49_6 1_555 1_555
H39_6 C49_6 1_555 1_555
C50_6 N4_6 1_555 1_555
H40_6 C50_6 1_555 1_555
H41_6 C50_6 1_555 1_555
H42_6 C50_6 1_555 1_555
O15_6 Zn1_6 1_555 1_555
O16_6 Zn2_6 1_555 1_555
O17_6 Zn7_3 1_555 1_555
O18_6 Zn1_6 1_555 1_555
O20_6 Zn2_6 1_555 1_555
O21_6 Zn1_6 1_555 1_555
O22_6 Zn1_6 1_555 1_555
Zn5_3 O1_6 1_555 1_555
Zn9_6 O2_6 1_555 1_555
Zn10_6 O9_6 1_555 1_555
C5_6 C6_6 1_555 1_555
C7_6 N1_6 1_555 1_555
C13_6 N1_6 1_555 1_555
C17_6 C18_6 1_555 1_555
C30_6 C31_6 1_555 1_555
C32_6 N3_6 1_555 1_555
C36_6 C37_6 1_555 1_555
C38_6 N3_6 1_555 1_555
C42_6 C43_6 1_555 1_555
C44_6 O8_6 1_555 1_555
O11_6 Zn5_3 1_555 1_555
C9_6 C8_6 1_555 1_555
H6_6 C9_6 1_555 1_555
C10_6 C9_6 1_555 1_555
C11_6 C10_6 1_555 1_555
H7_6 C11_6 1_555 1_555
H8_6 C12_6 1_555 1_555
C21_6 C10_6 1_555 1_555
O19_3 C21_6 1_555 1_555
O6_6 C21_6 1_555 1_555
H13_6 C23_6 1_555 1_555
H14_6 C23_6 1_555 1_555
H15_6 C23_6 1_555 1_555
C25_6 N2_6 1_555 1_555
H19_6 C25_6 1_555 1_555
H20_6 C25_6 1_555 1_555
H21_6 C25_6 1_555 1_555
O12_6 C46_6 1_555 1_555
O13_6 C46_6 1_555 1_555
Zn4_3 O6_6 1_555 1_555
Zn6_9 O13_6 1_555 1_555
Zn8_6 O12_6 1_555 1_555
C11_6 C12_6 1_555 1_555
C26_7 H22_7 1_555 1_555
C27_7 C26_7 1_555 1_555
C28_7 C27_7 1_555 1_555
H23_7 C28_7 1_555 1_555
C29_7 C28_7 1_555 1_555
H24_7 C29_7 1_555 1_555
C30_7 C29_7 1_555 1_555
C31_7 C26_7 1_555 1_555
H25_7 C31_7 1_555 1_555
C32_7 C33_7 1_555 1_555
C33_7 H26_7 1_555 1_555
C34_7 C33_7 1_555 1_555
H27_7 C34_7 1_555 1_555
C35_7 C34_7 1_555 1_555
C36_7 C35_7 1_555 1_555
H28_7 C36_7 1_555 1_555
C37_7 C32_7 1_555 1_555
H29_7 C37_7 1_555 1_555
C38_7 C39_7 1_555 1_555
C39_7 H30_7 1_555 1_555
C40_7 C39_7 1_555 1_555
H31_7 C40_7 1_555 1_555
C41_7 C40_7 1_555 1_555
C42_7 C41_7 1_555 1_555
H32_7 C42_7 1_555 1_555
C43_7 C38_7 1_555 1_555
H33_7 C43_7 1_555 1_555
C44_7 C41_7 1_555 1_555
C45_7 C27_7 1_555 1_555
C46_7 C35_7 1_555 1_555
N3_7 C30_7 1_555 1_555
O9_7 C44_7 1_555 1_555
O10_7 C45_7 1_555 1_555
O11_7 C45_7 1_555 1_555
O20_6 C46_7 1_555 1_555
O21_6 C46_7 1_555 1_555
H40_7 C50_7 1_555 1_555
H41_7 C50_7 1_555 1_555
Zn10_7 O9_7 1_555 1_555
C30_7 C31_7 1_555 1_555
C32_7 N3_7 1_555 1_555
C36_7 C37_7 1_555 1_555
C38_7 N3_7 1_555 1_555
C42_7 C43_7 1_555 1_555
C44_7 O8_7 1_555 1_555
O11_7 Zn6_5 1_555 1_555
O14_7 Zn8_3 1_555 1_555
C47_7 O14_7 1_555 1_555
C48_7 C47_7 1_555 1_555
H36_7 C48_7 1_555 1_555
N4_7 C47_7 1_555 1_555
C49_7 N4_7 1_555 1_555
H37_7 C49_7 1_555 1_555
H38_7 C49_7 1_555 1_555
H39_7 C49_7 1_555 1_555
O17_7 Zn8_3 1_555 1_555
C1_7 H1_7 1_555 1_555
C2_7 C1_7 1_555 1_555
C3_7 C2_7 1_555 1_555
H2_7 C3_7 1_555 1_555
C4_7 C3_7 1_555 1_555
H3_7 C4_7 1_555 1_555
C5_7 C4_7 1_555 1_555
C6_7 C1_7 1_555 1_555
H4_7 C6_7 1_555 1_555
C7_7 C8_7 1_555 1_555
C8_7 H5_7 1_555 1_555
C9_7 C8_7 1_555 1_555
H6_7 C9_7 1_555 1_555
C10_7 C9_7 1_555 1_555
C11_7 C10_7 1_555 1_555
H7_7 C11_7 1_555 1_555
C12_7 C7_7 1_555 1_555
H8_7 C12_7 1_555 1_555
C13_7 C14_7 1_555 1_555
C14_7 H9_7 1_555 1_555
C15_7 C14_7 1_555 1_555
H10_7 C15_7 1_555 1_555
C16_7 C15_7 1_555 1_555
C17_7 C16_7 1_555 1_555
H11_7 C17_7 1_555 1_555
C18_7 C13_7 1_555 1_555
H12_7 C18_7 1_555 1_555
C19_7 C16_7 1_555 1_555
C20_7 C2_7 1_555 1_555
C21_7 C10_7 1_555 1_555
N1_7 C5_7 1_555 1_555
O1_7 C19_7 1_555 1_555
O2_7 C19_7 1_555 1_555
O3_7 C20_7 1_555 1_555
O4_7 C20_7 1_555 1_555
O20_3 C21_7 1_555 1_555
O21_3 C21_7 1_555 1_555
Zn6_9 O4_7 1_555 1_555
Zn8_6 O3_7 1_555 1_555
O7_7 Zn8_6 1_555 1_555
C22_7 O7_7 1_555 1_555
C23_7 C22_7 1_555 1_555
H13_7 C23_7 1_555 1_555
H14_7 C23_7 1_555 1_555
H15_7 C23_7 1_555 1_555
N2_7 C22_7 1_555 1_555
C24_7 N2_7 1_555 1_555
H16_7 C24_7 1_555 1_555
H17_7 C24_7 1_555 1_555
H18_7 C24_7 1_555 1_555
C25_7 N2_7 1_555 1_555
H19_7 C25_7 1_555 1_555
H20_7 C25_7 1_555 1_555
H21_7 C25_7 1_555 1_555
O15_7 Zn6_9 1_555 1_555
O16_7 Zn8_6 1_555 1_555
Zn9_7 O2_7 1_555 1_555
C5_7 C6_7 1_555 1_555
C7_7 N1_7 1_555 1_555
C11_7 C12_7 1_555 1_555
C13_7 N1_7 1_555 1_555
C17_7 C18_7 1_555 1_555
C1_8 H1_8 1_555 1_555
C2_8 C1_8 1_555 1_555
C3_8 C2_8 1_555 1_555
H2_8 C3_8 1_555 1_555
C4_8 C3_8 1_555 1_555
H3_8 C4_8 1_555 1_555
C5_8 C4_8 1_555 1_555
C6_8 C1_8 1_555 1_555
H4_8 C6_8 1_555 1_555
C7_8 C8_8 1_555 1_555
C8_8 H5_8 1_555 1_555
C9_8 C8_8 1_555 1_555
H6_8 C9_8 1_555 1_555
C10_8 C9_8 1_555 1_555
C11_8 C10_8 1_555 1_555
H7_8 C11_8 1_555 1_555
C12_8 C7_8 1_555 1_555
H8_8 C12_8 1_555 1_555
C13_8 C14_8 1_555 1_555
C14_8 H9_8 1_555 1_555
C15_8 C14_8 1_555 1_555
H10_8 C15_8 1_555 1_555
C16_8 C15_8 1_555 1_555
C17_8 C16_8 1_555 1_555
H11_8 C17_8 1_555 1_555
C18_8 C13_8 1_555 1_555
H12_8 C18_8 1_555 1_555
C19_8 C16_8 1_555 1_555
C20_8 C2_8 1_555 1_555
C21_8 C10_8 1_555 1_555
N1_8 C5_8 1_555 1_555
O1_8 C19_8 1_555 1_555
O2_8 C19_8 1_555 1_555
O3_8 C20_8 1_555 1_555
O4_8 C20_8 1_555 1_555
O20 C21_8 1_555 1_555
O21 C21_8 1_555 1_555
Zn6_7 O4_8 1_555 1_555
Zn8_4 O3_8 1_555 1_555
O7_8 Zn8_4 1_555 1_555
C22_8 O7_8 1_555 1_555
C23_8 C22_8 1_555 1_555
H13_8 C23_8 1_555 1_555
H14_8 C23_8 1_555 1_555
H15_8 C23_8 1_555 1_555
N2_8 C22_8 1_555 1_555
C24_8 N2_8 1_555 1_555
H16_8 C24_8 1_555 1_555
H17_8 C24_8 1_555 1_555
H18_8 C24_8 1_555 1_555
C25_8 N2_8 1_555 1_555
H19_8 C25_8 1_555 1_555
H20_8 C25_8 1_555 1_555
H21_8 C25_8 1_555 1_555
C26_8 H22_8 1_555 1_555
C27_8 C26_8 1_555 1_555
C28_8 C27_8 1_555 1_555
H23_8 C28_8 1_555 1_555
C29_8 C28_8 1_555 1_555
H24_8 C29_8 1_555 1_555
C30_8 C29_8 1_555 1_555
C31_8 C26_8 1_555 1_555
H25_8 C31_8 1_555 1_555
C32_8 C33_8 1_555 1_555
C33_8 H26_8 1_555 1_555
C34_8 C33_8 1_555 1_555
H27_8 C34_8 1_555 1_555
C35_8 C34_8 1_555 1_555
C36_8 C35_8 1_555 1_555
H28_8 C36_8 1_555 1_555
C37_8 C32_8 1_555 1_555
H29_8 C37_8 1_555 1_555
C38_8 C39_8 1_555 1_555
C39_8 H30_8 1_555 1_555
C40_8 C39_8 1_555 1_555
H31_8 C40_8 1_555 1_555
C41_8 C40_8 1_555 1_555
C42_8 C41_8 1_555 1_555
H32_8 C42_8 1_555 1_555
C43_8 C38_8 1_555 1_555
H33_8 C43_8 1_555 1_555
C44_8 C41_8 1_555 1_555
C45_8 C27_8 1_555 1_555
C46_8 C35_8 1_555 1_555
N3_8 C30_8 1_555 1_555
O8_8 Zn6_7 1_555 1_555
O9_8 C44_8 1_555 1_555
O10_8 C45_8 1_555 1_555
O11_8 C45_8 1_555 1_555
O20_4 C46_8 1_555 1_555
O21_4 C46_8 1_555 1_555
H40_8 C50_8 1_555 1_555
H41_8 C50_8 1_555 1_555
O15_8 Zn6_7 1_555 1_555
O16_8 Zn8_4 1_555 1_555
O18_8 Zn6_7 1_555 1_555
O22_8 Zn6_7 1_555 1_555
Zn6 O1_8 1_555 1_555
Zn9_8 O2_8 1_555 1_555
Zn10_8 O9_8 1_555 1_555
C5_8 C6_8 1_555 1_555
C7_8 N1_8 1_555 1_555
C11_8 C12_8 1_555 1_555
C13_8 N1_8 1_555 1_555
C17_8 C18_8 1_555 1_555
C30_8 C31_8 1_555 1_555
C32_8 N3_8 1_555 1_555
C36_8 C37_8 1_555 1_555
C38_8 N3_8 1_555 1_555
C42_8 C43_8 1_555 1_555
C44_8 O8_8 1_555 1_555
O11_8 Zn6 1_555 1_555
O14_8 Zn8 1_555 1_555
C47_8 O14_8 1_555 1_555
C48_8 C47_8 1_555 1_555
H36_8 C48_8 1_555 1_555
N4_8 C47_8 1_555 1_555
C49_8 N4_8 1_555 1_555
H37_8 C49_8 1_555 1_555
H38_8 C49_8 1_555 1_555
H39_8 C49_8 1_555 1_555
O17_8 Zn8 1_555 1_555
C1_9 H1_9 1_555 1_555
C2_9 C1_9 1_555 1_555
C3_9 C2_9 1_555 1_555
H2_9 C3_9 1_555 1_555
C4_9 C3_9 1_555 1_555
H3_9 C4_9 1_555 1_555
C5_9 C4_9 1_555 1_555
C6_9 C1_9 1_555 1_555
H4_9 C6_9 1_555 1_555
C7_9 C8_9 1_555 1_555
C8_9 H5_9 1_555 1_555
C9_9 C8_9 1_555 1_555
H6_9 C9_9 1_555 1_555
C10_9 C9_9 1_555 1_555
C11_9 C10_9 1_555 1_555
H7_9 C11_9 1_555 1_555
C12_9 C7_9 1_555 1_555
H8_9 C12_9 1_555 1_555
C13_9 C14_9 1_555 1_555
C14_9 H9_9 1_555 1_555
C15_9 C14_9 1_555 1_555
H10_9 C15_9 1_555 1_555
C16_9 C15_9 1_555 1_555
C17_9 C16_9 1_555 1_555
H11_9 C17_9 1_555 1_555
C18_9 C13_9 1_555 1_555
H12_9 C18_9 1_555 1_555
C19_9 C16_9 1_555 1_555
C20_9 C2_9 1_555 1_555
C21_9 C10_9 1_555 1_555
N1_9 C5_9 1_555 1_555
O1_9 C19_9 1_555 1_555
O2_9 C19_9 1_555 1_555
O3_9 C20_9 1_555 1_555
O4_9 C20_9 1_555 1_555
O20_2 C21_9 1_555 1_555
O21_2 C21_9 1_555 1_555
Zn6_8 O4_9 1_555 1_555
Zn8_5 O3_9 1_555 1_555
O7_9 Zn8_5 1_555 1_555
C22_9 O7_9 1_555 1_555
C23_9 C22_9 1_555 1_555
H13_9 C23_9 1_555 1_555
H14_9 C23_9 1_555 1_555
H15_9 C23_9 1_555 1_555
N2_9 C22_9 1_555 1_555
C24_9 N2_9 1_555 1_555
H16_9 C24_9 1_555 1_555
H17_9 C24_9 1_555 1_555
H18_9 C24_9 1_555 1_555
C25_9 N2_9 1_555 1_555
H19_9 C25_9 1_555 1_555
H20_9 C25_9 1_555 1_555
H21_9 C25_9 1_555 1_555
O15_9 Zn6_8 1_555 1_555
O16_9 Zn8_5 1_555 1_555
Zn9_9 O2_9 1_555 1_555
C5_9 C6_9 1_555 1_555
C7_9 N1_9 1_555 1_555
C11_9 C12_9 1_555 1_555
C13_9 N1_9 1_555 1_555
C17_9 C18_9 1_555 1_555
C26_9 H22_9 1_555 1_555
C27_9 C26_9 1_555 1_555
C28_9 C27_9 1_555 1_555
H23_9 C28_9 1_555 1_555
C29_9 C28_9 1_555 1_555
H24_9 C29_9 1_555 1_555
C30_9 C29_9 1_555 1_555
C31_9 C26_9 1_555 1_555
H25_9 C31_9 1_555 1_555
C32_9 C33_9 1_555 1_555
C33_9 H26_9 1_555 1_555
C34_9 C33_9 1_555 1_555
H27_9 C34_9 1_555 1_555
C35_9 C34_9 1_555 1_555
C36_9 C35_9 1_555 1_555
H28_9 C36_9 1_555 1_555
C37_9 C32_9 1_555 1_555
H29_9 C37_9 1_555 1_555
C38_9 C39_9 1_555 1_555
C39_9 H30_9 1_555 1_555
C40_9 C39_9 1_555 1_555
H31_9 C40_9 1_555 1_555
C41_9 C40_9 1_555 1_555
C42_9 C41_9 1_555 1_555
H32_9 C42_9 1_555 1_555
C43_9 C38_9 1_555 1_555
H33_9 C43_9 1_555 1_555
C44_9 C41_9 1_555 1_555
C45_9 C27_9 1_555 1_555
C46_9 C35_9 1_555 1_555
N3_9 C30_9 1_555 1_555
O9_9 C44_9 1_555 1_555
O10_9 C45_9 1_555 1_555
O11_9 C45_9 1_555 1_555
O20_5 C46_9 1_555 1_555
O21_5 C46_9 1_555 1_555
H40_9 C50_9 1_555 1_555
H41_9 C50_9 1_555 1_555
Zn10_9 O9_9 1_555 1_555
C30_9 C31_9 1_555 1_555
C32_9 N3_9 1_555 1_555
C36_9 C37_9 1_555 1_555
C38_9 N3_9 1_555 1_555
C42_9 C43_9 1_555 1_555
C44_9 O8_9 1_555 1_555
O11_9 Zn6_3 1_555 1_555
O14_9 Zn8_2 1_555 1_555
C47_9 O14_9 1_555 1_555
C48_9 C47_9 1_555 1_555
H36_9 C48_9 1_555 1_555
N4_9 C47_9 1_555 1_555
C49_9 N4_9 1_555 1_555
H37_9 C49_9 1_555 1_555
H38_9 C49_9 1_555 1_555
H39_9 C49_9 1_555 1_555
O17_9 Zn8_2 1_555 1_555
O15_10 Zn4_3 1_555 1_555
O18_10 Zn4_3 1_555 1_555
O22_10 Zn4_3 1_555 1_555
O15_11 Zn4 1_555 1_555
O18_11 Zn4 1_555 1_555
O22_11 Zn4 1_555 1_555
O15_12 Zn4_2 1_555 1_555
O18_12 Zn4_2 1_555 1_555
O22_12 Zn4_2 1_555 1_555
O15_13 Zn5_2 1_555 1_555
O18_13 Zn5_2 1_555 1_555
O22_13 Zn5_2 1_555 1_555
O15_14 Zn5_3 1_555 1_555
O18_14 Zn5_3 1_555 1_555
O22_14 Zn5_3 1_555 1_555
O15_15 Zn5 1_555 1_555
O18_15 Zn5 1_555 1_555
O22_15 Zn5 1_555 1_555
O15_16 Zn6_4 1_555 1_555
O15_17 Zn6_6 1_555 1_555
O22_18 Zn6 1_555 1_555
O15_18 Zn6_2 1_555 1_555
O18_18 Zn6_2 1_555 1_555
H3_10 C4_10 1_555 1_555
C5_10 C4_10 1_555 1_555
H4_10 C6_10 1_555 1_555
C7_10 C8_10 1_555 1_555
C8_10 H5_10 1_555 1_555
C9_10 C8_10 1_555 1_555
H6_10 C9_10 1_555 1_555
C10_10 C9_10 1_555 1_555
C11_10 C10_10 1_555 1_555
H7_10 C11_10 1_555 1_555
C12_10 C7_10 1_555 1_555
H8_10 C12_10 1_555 1_555
C13_10 C14_10 1_555 1_555
C14_10 H9_10 1_555 1_555
C15_10 C14_10 1_555 1_555
H10_10 C15_10 1_555 1_555
C16_10 C15_10 1_555 1_555
C17_10 C16_10 1_555 1_555
H11_10 C17_10 1_555 1_555
C18_10 C13_10 1_555 1_555
H12_10 C18_10 1_555 1_555
C19_10 C16_10 1_555 1_555
C21_10 C10_10 1_555 1_555
N1_10 C5_10 1_555 1_555
O15_5 C19_10 1_555 1_555
O16_5 C19_10 1_555 1_555
O5_4 C21_10 1_555 1_555
O22_3 C21_10 1_555 1_555
C26_10 H22_10 1_555 1_555
C27_10 C26_10 1_555 1_555
C28_10 C27_10 1_555 1_555
H23_10 C28_10 1_555 1_555
C29_10 C28_10 1_555 1_555
H24_10 C29_10 1_555 1_555
C30_10 C29_10 1_555 1_555
C31_10 C26_10 1_555 1_555
H25_10 C31_10 1_555 1_555
C32_10 C33_10 1_555 1_555
C33_10 H26_10 1_555 1_555
C34_10 C33_10 1_555 1_555
H27_10 C34_10 1_555 1_555
C35_10 C34_10 1_555 1_555
C36_10 C35_10 1_555 1_555
H28_10 C36_10 1_555 1_555
C37_10 C32_10 1_555 1_555
H29_10 C37_10 1_555 1_555
C38_10 C39_10 1_555 1_555
C39_10 H30_10 1_555 1_555
C45_10 C27_10 1_555 1_555
C46_10 C35_10 1_555 1_555
N3_10 C30_10 1_555 1_555
O10_10 C45_10 1_555 1_555
O18_5 C45_10 1_555 1_555
O12_7 C46_10 1_555 1_555
O22_18 C46_10 1_555 1_555
Zn10_5 O10_10 1_555 1_555
O14_10 Zn10_5 1_555 1_555
C47_10 O14_10 1_555 1_555
C48_10 C47_10 1_555 1_555
H34_10 C48_10 1_555 1_555
H35_10 C48_10 1_555 1_555
H36_10 C48_10 1_555 1_555
N4_10 C47_10 1_555 1_555
C49_10 N4_10 1_555 1_555
H37_10 C49_10 1_555 1_555
H38_10 C49_10 1_555 1_555
H39_10 C49_10 1_555 1_555
C50_10 N4_10 1_555 1_555
H40_10 C50_10 1_555 1_555
H41_10 C50_10 1_555 1_555
H42_10 C50_10 1_555 1_555
O19_4 Zn10_5 1_555 1_555
Zn10_3 O5_4 1_555 1_555
Zn9_8 O12_7 1_555 1_555
C5_10 C6_10 1_555 1_555
C7_10 N1_10 1_555 1_555
C11_10 C12_10 1_555 1_555
C13_10 N1_10 1_555 1_555
C17_10 C18_10 1_555 1_555
C30_10 C31_10 1_555 1_555
C32_10 N3_10 1_555 1_555
C36_10 C37_10 1_555 1_555
C38_10 N3_10 1_555 1_555
C1_10 H1_10 1_555 1_555
C2_10 C1_10 1_555 1_555
C3_10 C2_10 1_555 1_555
H2_10 C3_10 1_555 1_555
C20_10 C2_10 1_555 1_555
O3_10 C20_10 1_555 1_555
O18_13 C20_10 1_555 1_555
Zn9_5 O3_10 1_555 1_555
O7_10 Zn9_5 1_555 1_555
C22_10 O7_10 1_555 1_555
C23_10 C22_10 1_555 1_555
H13_10 C23_10 1_555 1_555
H14_10 C23_10 1_555 1_555
H15_10 C23_10 1_555 1_555
N2_10 C22_10 1_555 1_555
C24_10 N2_10 1_555 1_555
H16_10 C24_10 1_555 1_555
H17_10 C24_10 1_555 1_555
H18_10 C24_10 1_555 1_555
C25_10 N2_10 1_555 1_555
H19_10 C25_10 1_555 1_555
H20_10 C25_10 1_555 1_555
H21_10 C25_10 1_555 1_555
H31_10 C40_10 1_555 1_555
C41_10 C40_10 1_555 1_555
C42_10 C41_10 1_555 1_555
H32_10 C42_10 1_555 1_555
H33_10 C43_10 1_555 1_555
C44_10 C41_10 1_555 1_555
O17_5 C44_10 1_555 1_555
O20_7 Zn9_5 1_555 1_555
C42_10 C43_10 1_555 1_555
C44_10 O15_13 1_555 1_555
C9_11 C8_11 1_555 1_555
H6_11 C9_11 1_555 1_555
C10_11 C9_11 1_555 1_555
C11_11 C10_11 1_555 1_555
H7_11 C11_11 1_555 1_555
H8_11 C12_11 1_555 1_555
C21_11 C10_11 1_555 1_555
O5_5 C21_11 1_555 1_555
O22 C21_11 1_555 1_555
O12_8 C46_11 1_555 1_555
O22_16 C46_11 1_555 1_555
Zn6_10 O22_16 1_555 1_555
Zn10 O5_5 1_555 1_555
Zn9_9 O12_8 1_555 1_555
C11_11 C12_11 1_555 1_555
H13_11 C23_11 1_555 1_555
H14_11 C23_11 1_555 1_555
H15_11 C23_11 1_555 1_555
C25_11 N2_11 1_555 1_555
H19_11 C25_11 1_555 1_555
H20_11 C25_11 1_555 1_555
H21_11 C25_11 1_555 1_555
H3_11 C4_11 1_555 1_555
C5_11 C4_11 1_555 1_555
H4_11 C6_11 1_555 1_555
C13_11 C14_11 1_555 1_555
C14_11 H9_11 1_555 1_555
C15_11 C14_11 1_555 1_555
H10_11 C15_11 1_555 1_555
C16_11 C15_11 1_555 1_555
C17_11 C16_11 1_555 1_555
H11_11 C17_11 1_555 1_555
C18_11 C13_11 1_555 1_555
H12_11 C18_11 1_555 1_555
C19_11 C16_11 1_555 1_555
N1_11 C5_11 1_555 1_555
O15_6 C19_11 1_555 1_555
O16_6 C19_11 1_555 1_555
C26_11 H22_11 1_555 1_555
C27_11 C26_11 1_555 1_555
C28_11 C27_11 1_555 1_555
H23_11 C28_11 1_555 1_555
C29_11 C28_11 1_555 1_555
H24_11 C29_11 1_555 1_555
C30_11 C29_11 1_555 1_555
C31_11 C26_11 1_555 1_555
H25_11 C31_11 1_555 1_555
C32_11 C33_11 1_555 1_555
C33_11 H26_11 1_555 1_555
C34_11 C33_11 1_555 1_555
C35_11 C34_11 1_555 1_555
C36_11 C35_11 1_555 1_555
H28_11 C36_11 1_555 1_555
C37_11 C32_11 1_555 1_555
H29_11 C37_11 1_555 1_555
C38_11 C39_11 1_555 1_555
C39_11 H30_11 1_555 1_555
C45_11 C27_11 1_555 1_555
N3_11 C30_11 1_555 1_555
O10_11 C45_11 1_555 1_555
O18_6 C45_11 1_555 1_555
Zn10_6 O10_11 1_555 1_555
O14_11 Zn10_6 1_555 1_555
C47_11 O14_11 1_555 1_555
C48_11 C47_11 1_555 1_555
H34_11 C48_11 1_555 1_555
H35_11 C48_11 1_555 1_555
H36_11 C48_11 1_555 1_555
N4_11 C47_11 1_555 1_555
C49_11 N4_11 1_555 1_555
H37_11 C49_11 1_555 1_555
H38_11 C49_11 1_555 1_555
H39_11 C49_11 1_555 1_555
C50_11 N4_11 1_555 1_555
H40_11 C50_11 1_555 1_555
H41_11 C50_11 1_555 1_555
H42_11 C50_11 1_555 1_555
O19_5 Zn10_6 1_555 1_555
C5_11 C6_11 1_555 1_555
C7_11 N1_11 1_555 1_555
C13_11 N1_11 1_555 1_555
C17_11 C18_11 1_555 1_555
C30_11 C31_11 1_555 1_555
C32_11 N3_11 1_555 1_555
C36_11 C37_11 1_555 1_555
C38_11 N3_11 1_555 1_555
C1_11 H1_11 1_555 1_555
C2_11 C1_11 1_555 1_555
C3_11 C2_11 1_555 1_555
H2_11 C3_11 1_555 1_555
C20_11 C2_11 1_555 1_555
O3_11 C20_11 1_555 1_555
O18_14 C20_11 1_555 1_555
Zn9_6 O3_11 1_555 1_555
O7_11 Zn9_6 1_555 1_555
C22_11 O7_11 1_555 1_555
H16_11 C24_11 1_555 1_555
H17_11 C24_11 1_555 1_555
H18_11 C24_11 1_555 1_555
H31_11 C40_11 1_555 1_555
C41_11 C40_11 1_555 1_555
C42_11 C41_11 1_555 1_555
H32_11 C42_11 1_555 1_555
H33_11 C43_11 1_555 1_555
C44_11 C41_11 1_555 1_555
O17_6 C44_11 1_555 1_555
O20_8 Zn9_6 1_555 1_555
C42_11 C43_11 1_555 1_555
C44_11 O15_14 1_555 1_555
H3_12 C4_12 1_555 1_555
C5_12 C4_12 1_555 1_555
H4_12 C6_12 1_555 1_555
C13_12 C14_12 1_555 1_555
C14_12 H9_12 1_555 1_555
C15_12 C14_12 1_555 1_555
H10_12 C15_12 1_555 1_555
C16_12 C15_12 1_555 1_555
C17_12 C16_12 1_555 1_555
H11_12 C17_12 1_555 1_555
C18_12 C13_12 1_555 1_555
H12_12 C18_12 1_555 1_555
C19_12 C16_12 1_555 1_555
N1_12 C5_12 1_555 1_555
O15_4 C19_12 1_555 1_555
O16_4 C19_12 1_555 1_555
C26_12 H22_12 1_555 1_555
C27_12 C26_12 1_555 1_555
C28_12 C27_12 1_555 1_555
H23_12 C28_12 1_555 1_555
C29_12 C28_12 1_555 1_555
H24_12 C29_12 1_555 1_555
C30_12 C29_12 1_555 1_555
C31_12 C26_12 1_555 1_555
H25_12 C31_12 1_555 1_555
C32_12 C33_12 1_555 1_555
C33_12 H26_12 1_555 1_555
C34_12 C33_12 1_555 1_555
C35_12 C34_12 1_555 1_555
C36_12 C35_12 1_555 1_555
H28_12 C36_12 1_555 1_555
C37_12 C32_12 1_555 1_555
H29_12 C37_12 1_555 1_555
C38_12 C39_12 1_555 1_555
C39_12 H30_12 1_555 1_555
C45_12 C27_12 1_555 1_555
N3_12 C30_12 1_555 1_555
O10_12 C45_12 1_555 1_555
O18_4 C45_12 1_555 1_555
Zn10_4 O10_12 1_555 1_555
O14_12 Zn10_4 1_555 1_555
C47_12 O14_12 1_555 1_555
C48_12 C47_12 1_555 1_555
H34_12 C48_12 1_555 1_555
H35_12 C48_12 1_555 1_555
H36_12 C48_12 1_555 1_555
N4_12 C47_12 1_555 1_555
C49_12 N4_12 1_555 1_555
H37_12 C49_12 1_555 1_555
H38_12 C49_12 1_555 1_555
H39_12 C49_12 1_555 1_555
C50_12 N4_12 1_555 1_555
H40_12 C50_12 1_555 1_555
H41_12 C50_12 1_555 1_555
H42_12 C50_12 1_555 1_555
O19_6 Zn10_4 1_555 1_555
C5_12 C6_12 1_555 1_555
C7_12 N1_12 1_555 1_555
C13_12 N1_12 1_555 1_555
C17_12 C18_12 1_555 1_555
C30_12 C31_12 1_555 1_555
C32_12 N3_12 1_555 1_555
C36_12 C37_12 1_555 1_555
C38_12 N3_12 1_555 1_555
C1_12 H1_12 1_555 1_555
C2_12 C1_12 1_555 1_555
C3_12 C2_12 1_555 1_555
H2_12 C3_12 1_555 1_555
C20_12 C2_12 1_555 1_555
O3_12 C20_12 1_555 1_555
O18_15 C20_12 1_555 1_555
Zn9_4 O3_12 1_555 1_555
O7_12 Zn9_4 1_555 1_555
C22_12 O7_12 1_555 1_555
H16_12 C24_12 1_555 1_555
H17_12 C24_12 1_555 1_555
H18_12 C24_12 1_555 1_555
H31_12 C40_12 1_555 1_555
C41_12 C40_12 1_555 1_555
C42_12 C41_12 1_555 1_555
H32_12 C42_12 1_555 1_555
H33_12 C43_12 1_555 1_555
C44_12 C41_12 1_555 1_555
O17_4 C44_12 1_555 1_555
O20_9 Zn9_4 1_555 1_555
C42_12 C43_12 1_555 1_555
C44_12 O15_15 1_555 1_555
C9_12 C8_12 1_555 1_555
H6_12 C9_12 1_555 1_555
C10_12 C9_12 1_555 1_555
C11_12 C10_12 1_555 1_555
H7_12 C11_12 1_555 1_555
H8_12 C12_12 1_555 1_555
C21_12 C10_12 1_555 1_555
O5_6 C21_12 1_555 1_555
O22_2 C21_12 1_555 1_555
O12_9 C46_12 1_555 1_555
O22_17 C46_12 1_555 1_555
Zn6_12 O22_17 1_555 1_555
Zn10_2 O5_6 1_555 1_555
Zn9_7 O12_9 1_555 1_555
C11_12 C12_12 1_555 1_555
H13_12 C23_12 1_555 1_555
H14_12 C23_12 1_555 1_555
H15_12 C23_12 1_555 1_555
C25_12 N2_12 1_555 1_555
H19_12 C25_12 1_555 1_555
H20_12 C25_12 1_555 1_555
H21_12 C25_12 1_555 1_555
C1_13 H1_13 1_555 1_555
C2_13 C1_13 1_555 1_555
C3_13 C2_13 1_555 1_555
H2_13 C3_13 1_555 1_555
C4_13 C3_13 1_555 1_555
H3_13 C4_13 1_555 1_555
C5_13 C4_13 1_555 1_555
C6_13 C1_13 1_555 1_555
H4_13 C6_13 1_555 1_555
C7_13 C8_13 1_555 1_555
C8_13 H5_13 1_555 1_555
C9_13 C8_13 1_555 1_555
H6_13 C9_13 1_555 1_555
C10_13 C9_13 1_555 1_555
C11_13 C10_13 1_555 1_555
H7_13 C11_13 1_555 1_555
C12_13 C7_13 1_555 1_555
H8_13 C12_13 1_555 1_555
C13_13 C14_13 1_555 1_555
C14_13 H9_13 1_555 1_555
C15_13 C14_13 1_555 1_555
H10_13 C15_13 1_555 1_555
C16_13 C15_13 1_555 1_555
C17_13 C16_13 1_555 1_555
H11_13 C17_13 1_555 1_555
C18_13 C13_13 1_555 1_555
H12_13 C18_13 1_555 1_555
C19_13 C16_13 1_555 1_555
C20_13 C2_13 1_555 1_555
C21_13 C10_13 1_555 1_555
N1_13 C5_13 1_555 1_555
O15_3 C19_13 1_555 1_555
O16_3 C19_13 1_555 1_555
O3_13 C20_13 1_555 1_555
O18_10 C20_13 1_555 1_555
O19_4 C21_13 1_555 1_555
O22_5 C21_13 1_555 1_555
Zn9_3 O3_13 1_555 1_555
O7_13 Zn9_3 1_555 1_555
C22_13 O7_13 1_555 1_555
C23_13 C22_13 1_555 1_555
H13_13 C23_13 1_555 1_555
H14_13 C23_13 1_555 1_555
H15_13 C23_13 1_555 1_555
N2_13 C22_13 1_555 1_555
C24_13 N2_13 1_555 1_555
H16_13 C24_13 1_555 1_555
H17_13 C24_13 1_555 1_555
H18_13 C24_13 1_555 1_555
C25_13 N2_13 1_555 1_555
H19_13 C25_13 1_555 1_555
H20_13 C25_13 1_555 1_555
H21_13 C25_13 1_555 1_555
C26_13 H22_13 1_555 1_555
C27_13 C26_13 1_555 1_555
C28_13 C27_13 1_555 1_555
H23_13 C28_13 1_555 1_555
C29_13 C28_13 1_555 1_555
H24_13 C29_13 1_555 1_555
C30_13 C29_13 1_555 1_555
C31_13 C26_13 1_555 1_555
H25_13 C31_13 1_555 1_555
C32_13 C33_13 1_555 1_555
C33_13 H26_13 1_555 1_555
C34_13 C33_13 1_555 1_555
H27_13 C34_13 1_555 1_555
C35_13 C34_13 1_555 1_555
C36_13 C35_13 1_555 1_555
H28_13 C36_13 1_555 1_555
C37_13 C32_13 1_555 1_555
H29_13 C37_13 1_555 1_555
C38_13 C39_13 1_555 1_555
C39_13 H30_13 1_555 1_555
C40_13 C39_13 1_555 1_555
H31_13 C40_13 1_555 1_555
C41_13 C40_13 1_555 1_555
C42_13 C41_13 1_555 1_555
H32_13 C42_13 1_555 1_555
C43_13 C38_13 1_555 1_555
H33_13 C43_13 1_555 1_555
C44_13 C41_13 1_555 1_555
C45_13 C27_13 1_555 1_555
C46_13 C35_13 1_555 1_555
N3_13 C30_13 1_555 1_555
O17_3 C44_13 1_555 1_555
O10_13 C45_13 1_555 1_555
O18_3 C45_13 1_555 1_555
O12_10 C46_13 1_555 1_555
O22_8 C46_13 1_555 1_555
Zn10_3 O10_13 1_555 1_555
O14_13 Zn10_3 1_555 1_555
C47_13 O14_13 1_555 1_555
C48_13 C47_13 1_555 1_555
H34_13 C48_13 1_555 1_555
H35_13 C48_13 1_555 1_555
H36_13 C48_13 1_555 1_555
N4_13 C47_13 1_555 1_555
C49_13 N4_13 1_555 1_555
H37_13 C49_13 1_555 1_555
H38_13 C49_13 1_555 1_555
H39_13 C49_13 1_555 1_555
C50_13 N4_13 1_555 1_555
H40_13 C50_13 1_555 1_555
H41_13 C50_13 1_555 1_555
H42_13 C50_13 1_555 1_555
O20_10 Zn9_3 1_555 1_555
Zn10_8 O12_10 1_555 1_555
C5_13 C6_13 1_555 1_555
C7_13 N1_13 1_555 1_555
C11_13 C12_13 1_555 1_555
C13_13 N1_13 1_555 1_555
C17_13 C18_13 1_555 1_555
C30_13 C31_13 1_555 1_555
C32_13 N3_13 1_555 1_555
C36_13 C37_13 1_555 1_555
C38_13 N3_13 1_555 1_555
C42_13 C43_13 1_555 1_555
C44_13 O15_10 1_555 1_555
C1_14 H1_14 1_555 1_555
C2_14 C1_14 1_555 1_555
C3_14 C2_14 1_555 1_555
H2_14 C3_14 1_555 1_555
C4_14 C3_14 1_555 1_555
H3_14 C4_14 1_555 1_555
C5_14 C4_14 1_555 1_555
C6_14 C1_14 1_555 1_555
H4_14 C6_14 1_555 1_555
C13_14 C14_14 1_555 1_555
C14_14 H9_14 1_555 1_555
C15_14 C14_14 1_555 1_555
H10_14 C15_14 1_555 1_555
C16_14 C15_14 1_555 1_555
C17_14 C16_14 1_555 1_555
H11_14 C17_14 1_555 1_555
C18_14 C13_14 1_555 1_555
H12_14 C18_14 1_555 1_555
C19_14 C16_14 1_555 1_555
C20_14 C2_14 1_555 1_555
N1_14 C5_14 1_555 1_555
O15 C19_14 1_555 1_555
O16 C19_14 1_555 1_555
O3_14 C20_14 1_555 1_555
O18_11 C20_14 1_555 1_555
Zn9 O3_14 1_555 1_555
O7_14 Zn9 1_555 1_555
C22_14 O7_14 1_555 1_555
H16_14 C24_14 1_555 1_555
H17_14 C24_14 1_555 1_555
H18_14 C24_14 1_555 1_555
C26_14 H22_14 1_555 1_555
C27_14 C26_14 1_555 1_555
C28_14 C27_14 1_555 1_555
H23_14 C28_14 1_555 1_555
C29_14 C28_14 1_555 1_555
H24_14 C29_14 1_555 1_555
C30_14 C29_14 1_555 1_555
C31_14 C26_14 1_555 1_555
H25_14 C31_14 1_555 1_555
C32_14 C33_14 1_555 1_555
C33_14 H26_14 1_555 1_555
C34_14 C33_14 1_555 1_555
C35_14 C34_14 1_555 1_555
C36_14 C35_14 1_555 1_555
H28_14 C36_14 1_555 1_555
C37_14 C32_14 1_555 1_555
H29_14 C37_14 1_555 1_555
C38_14 C39_14 1_555 1_555
C39_14 H30_14 1_555 1_555
C40_14 C39_14 1_555 1_555
H31_14 C40_14 1_555 1_555
C41_14 C40_14 1_555 1_555
C42_14 C41_14 1_555 1_555
H32_14 C42_14 1_555 1_555
C43_14 C38_14 1_555 1_555
H33_14 C43_14 1_555 1_555
C44_14 C41_14 1_555 1_555
C45_14 C27_14 1_555 1_555
N3_14 C30_14 1_555 1_555
O17 C44_14 1_555 1_555
O10_14 C45_14 1_555 1_555
O18 C45_14 1_555 1_555
Zn10 O10_14 1_555 1_555
O14_14 Zn10 1_555 1_555
C47_14 O14_14 1_555 1_555
C48_14 C47_14 1_555 1_555
H34_14 C48_14 1_555 1_555
H35_14 C48_14 1_555 1_555
H36_14 C48_14 1_555 1_555
N4_14 C47_14 1_555 1_555
C49_14 N4_14 1_555 1_555
H37_14 C49_14 1_555 1_555
H38_14 C49_14 1_555 1_555
H39_14 C49_14 1_555 1_555
C50_14 N4_14 1_555 1_555
H40_14 C50_14 1_555 1_555
H41_14 C50_14 1_555 1_555
H42_14 C50_14 1_555 1_555
O20_11 Zn9 1_555 1_555
C5_14 C6_14 1_555 1_555
C7_14 N1_14 1_555 1_555
C13_14 N1_14 1_555 1_555
C17_14 C18_14 1_555 1_555
C30_14 C31_14 1_555 1_555
C32_14 N3_14 1_555 1_555
C36_14 C37_14 1_555 1_555
C38_14 N3_14 1_555 1_555
C42_14 C43_14 1_555 1_555
C44_14 O15_11 1_555 1_555
C9_14 C8_14 1_555 1_555
H6_14 C9_14 1_555 1_555
C10_14 C9_14 1_555 1_555
C11_14 C10_14 1_555 1_555
H7_14 C11_14 1_555 1_555
H8_14 C12_14 1_555 1_555
C21_14 C10_14 1_555 1_555
O19_5 C21_14 1_555 1_555
O22_6 C21_14 1_555 1_555
H13_14 C23_14 1_555 1_555
H14_14 C23_14 1_555 1_555
H15_14 C23_14 1_555 1_555
C25_14 N2_14 1_555 1_555
H19_14 C25_14 1_555 1_555
H20_14 C25_14 1_555 1_555
H21_14 C25_14 1_555 1_555
O12_11 C46_14 1_555 1_555
O22_9 C46_14 1_555 1_555
Zn6_14 O22_9 1_555 1_555
Zn10_9 O12_11 1_555 1_555
C11_14 C12_14 1_555 1_555
C9_15 C8_15 1_555 1_555
H6_15 C9_15 1_555 1_555
C10_15 C9_15 1_555 1_555
C11_15 C10_15 1_555 1_555
H7_15 C11_15 1_555 1_555
H8_15 C12_15 1_555 1_555
C21_15 C10_15 1_555 1_555
O19_6 C21_15 1_555 1_555
O22_4 C21_15 1_555 1_555
H13_15 C23_15 1_555 1_555
H14_15 C23_15 1_555 1_555
H15_15 C23_15 1_555 1_555
C25_15 N2_15 1_555 1_555
H19_15 C25_15 1_555 1_555
H20_15 C25_15 1_555 1_555
H21_15 C25_15 1_555 1_555
O12_12 C46_15 1_555 1_555
O22_7 C46_15 1_555 1_555
Zn6_15 O22_7 1_555 1_555
Zn10_7 O12_12 1_555 1_555
C11_15 C12_15 1_555 1_555
C1_15 H1_15 1_555 1_555
C2_15 C1_15 1_555 1_555
C3_15 C2_15 1_555 1_555
H2_15 C3_15 1_555 1_555
C4_15 C3_15 1_555 1_555
H3_15 C4_15 1_555 1_555
C5_15 C4_15 1_555 1_555
C6_15 C1_15 1_555 1_555
H4_15 C6_15 1_555 1_555
C13_15 C14_15 1_555 1_555
C14_15 H9_15 1_555 1_555
C15_15 C14_15 1_555 1_555
H10_15 C15_15 1_555 1_555
C16_15 C15_15 1_555 1_555
C17_15 C16_15 1_555 1_555
H11_15 C17_15 1_555 1_555
C18_15 C13_15 1_555 1_555
H12_15 C18_15 1_555 1_555
C19_15 C16_15 1_555 1_555
C20_15 C2_15 1_555 1_555
N1_15 C5_15 1_555 1_555
O15_2 C19_15 1_555 1_555
O16_2 C19_15 1_555 1_555
O3_15 C20_15 1_555 1_555
O18_12 C20_15 1_555 1_555
Zn9_2 O3_15 1_555 1_555
O7_15 Zn9_2 1_555 1_555
C22_15 O7_15 1_555 1_555
H16_15 C24_15 1_555 1_555
H17_15 C24_15 1_555 1_555
H18_15 C24_15 1_555 1_555
C26_15 H22_15 1_555 1_555
C27_15 C26_15 1_555 1_555
C28_15 C27_15 1_555 1_555
H23_15 C28_15 1_555 1_555
C29_15 C28_15 1_555 1_555
H24_15 C29_15 1_555 1_555
C30_15 C29_15 1_555 1_555
C31_15 C26_15 1_555 1_555
H25_15 C31_15 1_555 1_555
C32_15 C33_15 1_555 1_555
C33_15 H26_15 1_555 1_555
C34_15 C33_15 1_555 1_555
C35_15 C34_15 1_555 1_555
C36_15 C35_15 1_555 1_555
H28_15 C36_15 1_555 1_555
C37_15 C32_15 1_555 1_555
H29_15 C37_15 1_555 1_555
C38_15 C39_15 1_555 1_555
C39_15 H30_15 1_555 1_555
C40_15 C39_15 1_555 1_555
H31_15 C40_15 1_555 1_555
C41_15 C40_15 1_555 1_555
C42_15 C41_15 1_555 1_555
H32_15 C42_15 1_555 1_555
C43_15 C38_15 1_555 1_555
H33_15 C43_15 1_555 1_555
C44_15 C41_15 1_555 1_555
C45_15 C27_15 1_555 1_555
N3_15 C30_15 1_555 1_555
O17_2 C44_15 1_555 1_555
O10_15 C45_15 1_555 1_555
O18_2 C45_15 1_555 1_555
Zn10_2 O10_15 1_555 1_555
O14_15 Zn10_2 1_555 1_555
C47_15 O14_15 1_555 1_555
C48_15 C47_15 1_555 1_555
H34_15 C48_15 1_555 1_555
H35_15 C48_15 1_555 1_555
H36_15 C48_15 1_555 1_555
N4_15 C47_15 1_555 1_555
C49_15 N4_15 1_555 1_555
H37_15 C49_15 1_555 1_555
H38_15 C49_15 1_555 1_555
H39_15 C49_15 1_555 1_555
C50_15 N4_15 1_555 1_555
H40_15 C50_15 1_555 1_555
H41_15 C50_15 1_555 1_555
H42_15 C50_15 1_555 1_555
O20_12 Zn9_2 1_555 1_555
C5_15 C6_15 1_555 1_555
C7_15 N1_15 1_555 1_555
C13_15 N1_15 1_555 1_555
C17_15 C18_15 1_555 1_555
C30_15 C31_15 1_555 1_555
C32_15 N3_15 1_555 1_555
C36_15 C37_15 1_555 1_555
C38_15 N3_15 1_555 1_555
C42_15 C43_15 1_555 1_555
C44_15 O15_12 1_555 1_555
C1_16 H1_16 1_555 1_555
C2_16 C1_16 1_555 1_555
C3_16 C2_16 1_555 1_555
H2_16 C3_16 1_555 1_555
C4_16 C3_16 1_555 1_555
H3_16 C4_16 1_555 1_555
C5_16 C4_16 1_555 1_555
C6_16 C1_16 1_555 1_555
H4_16 C6_16 1_555 1_555
C7_16 C8_16 1_555 1_555
C8_16 H5_16 1_555 1_555
C9_16 C8_16 1_555 1_555
H6_16 C9_16 1_555 1_555
C10_16 C9_16 1_555 1_555
C11_16 C10_16 1_555 1_555
H7_16 C11_16 1_555 1_555
C12_16 C7_16 1_555 1_555
H8_16 C12_16 1_555 1_555
C13_16 C14_16 1_555 1_555
C14_16 H9_16 1_555 1_555
C15_16 C14_16 1_555 1_555
H10_16 C15_16 1_555 1_555
C16_16 C15_16 1_555 1_555
C17_16 C16_16 1_555 1_555
H11_16 C17_16 1_555 1_555
C18_16 C13_16 1_555 1_555
H12_16 C18_16 1_555 1_555
C19_16 C16_16 1_555 1_555
C20_16 C2_16 1_555 1_555
C21_16 C10_16 1_555 1_555
N1_16 C5_16 1_555 1_555
O15_17 C19_16 1_555 1_555
O17_7 C19_16 1_555 1_555
O3_16 C20_16 1_555 1_555
O18_7 C20_16 1_555 1_555
O20_9 C21_16 1_555 1_555
O22_15 C21_16 1_555 1_555
Zn6_15 O18_7 1_555 1_555
Zn10_7 O3_16 1_555 1_555
O7_16 Zn10_7 1_555 1_555
C22_16 O7_16 1_555 1_555
C23_16 C22_16 1_555 1_555
H13_16 C23_16 1_555 1_555
H14_16 C23_16 1_555 1_555
H15_16 C23_16 1_555 1_555
N2_16 C22_16 1_555 1_555
C24_16 N2_16 1_555 1_555
H16_16 C24_16 1_555 1_555
H17_16 C24_16 1_555 1_555
H18_16 C24_16 1_555 1_555
C25_16 N2_16 1_555 1_555
H19_16 C25_16 1_555 1_555
H20_16 C25_16 1_555 1_555
H21_16 C25_16 1_555 1_555
O8_7 Zn6_15 1_555 1_555
C5_16 C6_16 1_555 1_555
C7_16 N1_16 1_555 1_555
C11_16 C12_16 1_555 1_555
C13_16 N1_16 1_555 1_555
C17_16 C18_16 1_555 1_555
O14_16 Zn9_7 1_555 1_555
C47_16 O14_16 1_555 1_555
C48_16 C47_16 1_555 1_555
H36_16 C48_16 1_555 1_555
N4_16 C47_16 1_555 1_555
C49_16 N4_16 1_555 1_555
H37_16 C49_16 1_555 1_555
H38_16 C49_16 1_555 1_555
H39_16 C49_16 1_555 1_555
C26_16 H22_16 1_555 1_555
C27_16 C26_16 1_555 1_555
C28_16 C27_16 1_555 1_555
H23_16 C28_16 1_555 1_555
C29_16 C28_16 1_555 1_555
H24_16 C29_16 1_555 1_555
C30_16 C29_16 1_555 1_555
C31_16 C26_16 1_555 1_555
H25_16 C31_16 1_555 1_555
C32_16 C33_16 1_555 1_555
C33_16 H26_16 1_555 1_555
C34_16 C33_16 1_555 1_555
H27_16 C34_16 1_555 1_555
C35_16 C34_16 1_555 1_555
C36_16 C35_16 1_555 1_555
H28_16 C36_16 1_555 1_555
C37_16 C32_16 1_555 1_555
H29_16 C37_16 1_555 1_555
C38_16 C39_16 1_555 1_555
C39_16 H30_16 1_555 1_555
C40_16 C39_16 1_555 1_555
H31_16 C40_16 1_555 1_555
C41_16 C40_16 1_555 1_555
C42_16 C41_16 1_555 1_555
H32_16 C42_16 1_555 1_555
C43_16 C38_16 1_555 1_555
H33_16 C43_16 1_555 1_555
C44_16 C41_16 1_555 1_555
C45_16 C27_16 1_555 1_555
C46_16 C35_16 1_555 1_555
N3_16 C30_16 1_555 1_555
O16_7 C44_16 1_555 1_555
O10_16 C45_16 1_555 1_555
O18_17 C45_16 1_555 1_555
O20_12 C46_16 1_555 1_555
O22_12 C46_16 1_555 1_555
H40_16 C50_16 1_555 1_555
H41_16 C50_16 1_555 1_555
C30_16 C31_16 1_555 1_555
C32_16 N3_16 1_555 1_555
C36_16 C37_16 1_555 1_555
C38_16 N3_16 1_555 1_555
C42_16 C43_16 1_555 1_555
C44_16 O15_7 1_555 1_555
O18_17 Zn6_13 1_555 1_555
O14_17 Zn9_8 1_555 1_555
C47_17 O14_17 1_555 1_555
C48_17 C47_17 1_555 1_555
H36_17 C48_17 1_555 1_555
N4_17 C47_17 1_555 1_555
C49_17 N4_17 1_555 1_555
H37_17 C49_17 1_555 1_555
H38_17 C49_17 1_555 1_555
H39_17 C49_17 1_555 1_555
C1_17 H1_17 1_555 1_555
C2_17 C1_17 1_555 1_555
C3_17 C2_17 1_555 1_555
H2_17 C3_17 1_555 1_555
C4_17 C3_17 1_555 1_555
H3_17 C4_17 1_555 1_555
C5_17 C4_17 1_555 1_555
C6_17 C1_17 1_555 1_555
H4_17 C6_17 1_555 1_555
C7_17 C8_17 1_555 1_555
C8_17 H5_17 1_555 1_555
C9_17 C8_17 1_555 1_555
H6_17 C9_17 1_555 1_555
C10_17 C9_17 1_555 1_555
C11_17 C10_17 1_555 1_555
H7_17 C11_17 1_555 1_555
C12_17 C7_17 1_555 1_555
H8_17 C12_17 1_555 1_555
C13_17 C14_17 1_555 1_555
C14_17 H9_17 1_555 1_555
C15_17 C14_17 1_555 1_555
H10_17 C15_17 1_555 1_555
C16_17 C15_17 1_555 1_555
C17_17 C16_17 1_555 1_555
H11_17 C17_17 1_555 1_555
C18_17 C13_17 1_555 1_555
H12_17 C18_17 1_555 1_555
C19_17 C16_17 1_555 1_555
C20_17 C2_17 1_555 1_555
C21_17 C10_17 1_555 1_555
N1_17 C5_17 1_555 1_555
O15_18 C19_17 1_555 1_555
O17_8 C19_17 1_555 1_555
O3_17 C20_17 1_555 1_555
O18_8 C20_17 1_555 1_555
O20_7 C21_17 1_555 1_555
O22_13 C21_17 1_555 1_555
Zn10_8 O3_17 1_555 1_555
O7_17 Zn10_8 1_555 1_555
C22_17 O7_17 1_555 1_555
C23_17 C22_17 1_555 1_555
H13_17 C23_17 1_555 1_555
H14_17 C23_17 1_555 1_555
H15_17 C23_17 1_555 1_555
N2_17 C22_17 1_555 1_555
C24_17 N2_17 1_555 1_555
H16_17 C24_17 1_555 1_555
H17_17 C24_17 1_555 1_555
H18_17 C24_17 1_555 1_555
C25_17 N2_17 1_555 1_555
H19_17 C25_17 1_555 1_555
H20_17 C25_17 1_555 1_555
H21_17 C25_17 1_555 1_555
C26_17 H22_17 1_555 1_555
C27_17 C26_17 1_555 1_555
C28_17 C27_17 1_555 1_555
H23_17 C28_17 1_555 1_555
C29_17 C28_17 1_555 1_555
H24_17 C29_17 1_555 1_555
C30_17 C29_17 1_555 1_555
C31_17 C26_17 1_555 1_555
H25_17 C31_17 1_555 1_555
C32_17 C33_17 1_555 1_555
C33_17 H26_17 1_555 1_555
C34_17 C33_17 1_555 1_555
H27_17 C34_17 1_555 1_555
C35_17 C34_17 1_555 1_555
C36_17 C35_17 1_555 1_555
H28_17 C36_17 1_555 1_555
C37_17 C32_17 1_555 1_555
H29_17 C37_17 1_555 1_555
C38_17 C39_17 1_555 1_555
C39_17 H30_17 1_555 1_555
C40_17 C39_17 1_555 1_555
H31_17 C40_17 1_555 1_555
C41_17 C40_17 1_555 1_555
C42_17 C41_17 1_555 1_555
H32_17 C42_17 1_555 1_555
C43_17 C38_17 1_555 1_555
H33_17 C43_17 1_555 1_555
C44_17 C41_17 1_555 1_555
C45_17 C27_17 1_555 1_555
C46_17 C35_17 1_555 1_555
N3_17 C30_17 1_555 1_555
O16_8 C44_17 1_555 1_555
O10_17 C45_17 1_555 1_555
O18_18 C45_17 1_555 1_555
O20_10 C46_17 1_555 1_555
O22_10 C46_17 1_555 1_555
H40_17 C50_17 1_555 1_555
H41_17 C50_17 1_555 1_555
C5_17 C6_17 1_555 1_555
C7_17 N1_17 1_555 1_555
C11_17 C12_17 1_555 1_555
C13_17 N1_17 1_555 1_555
C17_17 C18_17 1_555 1_555
C30_17 C31_17 1_555 1_555
C32_17 N3_17 1_555 1_555
C36_17 C37_17 1_555 1_555
C38_17 N3_17 1_555 1_555
C42_17 C43_17 1_555 1_555
C44_17 O15_8 1_555 1_555
O14_18 Zn9_9 1_555 1_555
C47_18 O14_18 1_555 1_555
C48_18 C47_18 1_555 1_555
H36_18 C48_18 1_555 1_555
N4_18 C47_18 1_555 1_555
C49_18 N4_18 1_555 1_555
H37_18 C49_18 1_555 1_555
H38_18 C49_18 1_555 1_555
H39_18 C49_18 1_555 1_555
C26_18 H22_18 1_555 1_555
C27_18 C26_18 1_555 1_555
C28_18 C27_18 1_555 1_555
H23_18 C28_18 1_555 1_555
C29_18 C28_18 1_555 1_555
H24_18 C29_18 1_555 1_555
C30_18 C29_18 1_555 1_555
C31_18 C26_18 1_555 1_555
H25_18 C31_18 1_555 1_555
C32_18 C33_18 1_555 1_555
C33_18 H26_18 1_555 1_555
C34_18 C33_18 1_555 1_555
H27_18 C34_18 1_555 1_555
C35_18 C34_18 1_555 1_555
C36_18 C35_18 1_555 1_555
H28_18 C36_18 1_555 1_555
C37_18 C32_18 1_555 1_555
H29_18 C37_18 1_555 1_555
C38_18 C39_18 1_555 1_555
C39_18 H30_18 1_555 1_555
C40_18 C39_18 1_555 1_555
H31_18 C40_18 1_555 1_555
C41_18 C40_18 1_555 1_555
C42_18 C41_18 1_555 1_555
H32_18 C42_18 1_555 1_555
C43_18 C38_18 1_555 1_555
H33_18 C43_18 1_555 1_555
C44_18 C41_18 1_555 1_555
C45_18 C27_18 1_555 1_555
C46_18 C35_18 1_555 1_555
N3_18 C30_18 1_555 1_555
O16_9 C44_18 1_555 1_555
O10_18 C45_18 1_555 1_555
O18_16 C45_18 1_555 1_555
O20_11 C46_18 1_555 1_555
O22_11 C46_18 1_555 1_555
H40_18 C50_18 1_555 1_555
H41_18 C50_18 1_555 1_555
C30_18 C31_18 1_555 1_555
C32_18 N3_18 1_555 1_555
C36_18 C37_18 1_555 1_555
C38_18 N3_18 1_555 1_555
C42_18 C43_18 1_555 1_555
C44_18 O15_9 1_555 1_555
O18_16 Zn6_11 1_555 1_555
C1_18 H1_18 1_555 1_555
C2_18 C1_18 1_555 1_555
C3_18 C2_18 1_555 1_555
H2_18 C3_18 1_555 1_555
C4_18 C3_18 1_555 1_555
H3_18 C4_18 1_555 1_555
C5_18 C4_18 1_555 1_555
C6_18 C1_18 1_555 1_555
H4_18 C6_18 1_555 1_555
C7_18 C8_18 1_555 1_555
C8_18 H5_18 1_555 1_555
C9_18 C8_18 1_555 1_555
H6_18 C9_18 1_555 1_555
C10_18 C9_18 1_555 1_555
C11_18 C10_18 1_555 1_555
H7_18 C11_18 1_555 1_555
C12_18 C7_18 1_555 1_555
H8_18 C12_18 1_555 1_555
C13_18 C14_18 1_555 1_555
C14_18 H9_18 1_555 1_555
C15_18 C14_18 1_555 1_555
H10_18 C15_18 1_555 1_555
C16_18 C15_18 1_555 1_555
C17_18 C16_18 1_555 1_555
H11_18 C17_18 1_555 1_555
C18_18 C13_18 1_555 1_555
H12_18 C18_18 1_555 1_555
C19_18 C16_18 1_555 1_555
C20_18 C2_18 1_555 1_555
C21_18 C10_18 1_555 1_555
N1_18 C5_18 1_555 1_555
O15_16 C19_18 1_555 1_555
O17_9 C19_18 1_555 1_555
O3_18 C20_18 1_555 1_555
O18_9 C20_18 1_555 1_555
O20_8 C21_18 1_555 1_555
O22_14 C21_18 1_555 1_555
Zn6_14 O18_9 1_555 1_555
Zn10_9 O3_18 1_555 1_555
O7_18 Zn10_9 1_555 1_555
C22_18 O7_18 1_555 1_555
C23_18 C22_18 1_555 1_555
H13_18 C23_18 1_555 1_555
H14_18 C23_18 1_555 1_555
H15_18 C23_18 1_555 1_555
N2_18 C22_18 1_555 1_555
C24_18 N2_18 1_555 1_555
H16_18 C24_18 1_555 1_555
H17_18 C24_18 1_555 1_555
H18_18 C24_18 1_555 1_555
C25_18 N2_18 1_555 1_555
H19_18 C25_18 1_555 1_555
H20_18 C25_18 1_555 1_555
H21_18 C25_18 1_555 1_555
O8_9 Zn6_14 1_555 1_555
C5_18 C6_18 1_555 1_555
C7_18 N1_18 1_555 1_555
C11_18 C12_18 1_555 1_555
C13_18 N1_18 1_555 1_555
C17_18 C18_18 1_555 1_555
O1_9 Zn6_10 1_555 1_555
O1_7 Zn6_12 1_555 1_555

#END
