
###############################################################################
#
# This file contains modified crystal structure data generated from the
# MOF subset of the Cambridge Structural Database (CSD) v543 
# hosted by the Cambridge Crystallographic Data Centre (CCDC).
#
# This work is licensed under the Creative Commons
# Attribution-NonCommercial-ShareAlike 4.0 International License.
# To view a copy of this license, visit
# http://creativecommons.org/licenses/by-nc-sa/4.0/
# or send a letter to
# Creative Commons, PO Box 1866, Mountain View, CA 94042, USA.
#
# CIF created using the CSD Python API on 29 September 2022
# The structure has been converted into the P1 space group
# The structure has a 3D framework
# The original CSD entry TETZUQ is in the monoclinic crystal system
# The framework has been calculated to contain at least 10.0% void space
# The void calculation uses a probe of radius 1.32A, grid spacing 0.4
#
###############################################################################

data_TETZUQ
_chemical_formula_moiety         '(C248 H184 Co16 N56 O72 S14)n'
_symmetry_cell_setting           triclinic
_symmetry_space_group_name_H-M   'P 1'
_symmetry_Int_Tables_number      1
_space_group_name_Hall           'P 1'
loop_
_symmetry_equiv_pos_site_id
_symmetry_equiv_pos_as_xyz
1 x,y,z
_cell_length_a                   24.8012(6)
_cell_length_b                   19.4096(4)
_cell_length_c                   18.0097(4)
_cell_angle_alpha                90
_cell_angle_beta                 97.903(2)
_cell_angle_gamma                90
_cell_volume                     8587.19
loop_
_atom_site_label
_atom_site_type_symbol
_atom_site_fract_x
_atom_site_fract_y
_atom_site_fract_z
Co1 Co 0.27676(2) 0.09115(3) 0.15759(3)
Co2 Co 0.31822(2) 0.25034(3) 0.21946(3)
S2 S 0.5000 0.16195(6) 0.2500
N1 N 0.68962(12) 0.40483(15) 0.64499(18)
N2 N 0.49387(13) 0.39357(17) 0.53088(19)
N3 N 0.41494(12) 0.46078(16) 0.53570(18)
N4 N 0.49730(12) 0.49023(17) 0.61144(19)
N5 N 0.35694(12) 0.29525(15) 0.32564(17)
N6 N 0.36181(12) 0.66947(16) 0.67061(18)
N7 N 0.16133(14) 0.3378(2) 0.1984(2)
O1 O 0.27206(12) 0.05200(14) 0.04849(15)
O5 O 0.38314(10) 0.18327(13) 0.22697(15)
O6 O 0.36112(10) 0.08029(13) 0.17377(16)
O7 O 0.28385(10) 0.19455(12) 0.12467(14)
O8 O 0.32258(17) 0.25056(17) 0.0368(2)
O9 O 0.25205(10) 0.31904(13) 0.21122(16)
C1 C 0.66283(15) 0.4505(2) 0.6813(2)
H1 H 0.6826 0.4769 0.7204
C2 C 0.60718(16) 0.4609(2) 0.6643(2)
H2 H 0.5892 0.4938 0.6912
C3 C 0.57828(14) 0.42250(19) 0.6074(2)
C4 C 0.60594(16) 0.3730(2) 0.5718(2)
H3 H 0.5869 0.3441 0.5345
C5 C 0.66112(15) 0.3662(2) 0.5913(2)
H4 H 0.6799 0.3329 0.5660
C6 C 0.51961(15) 0.43570(19) 0.5831(2)
C7 C 0.44476(15) 0.49974(19) 0.5865(2)
C8 C 0.41628(15) 0.55906(19) 0.6162(2)
C9 C 0.36031(15) 0.5638(2) 0.6025(3)
H5 H 0.3396 0.5292 0.5742
C10 C 0.33460(15) 0.6192(2) 0.6304(2)
H6 H 0.2960 0.6218 0.6208
C11 C 0.41610(15) 0.66509(19) 0.6823(2)
H7 H 0.4359 0.7011 0.7095
C12 C 0.44493(15) 0.6114(2) 0.6572(2)
H8 H 0.4835 0.6101 0.6676
C13 C 0.44191(15) 0.40912(19) 0.5090(2)
C14 C 0.41176(15) 0.36657(19) 0.4477(2)
C15 C 0.43445(16) 0.3081(2) 0.4212(2)
H9 H 0.4690 0.2918 0.4438
C16 C 0.40561(15) 0.2736(2) 0.3609(2)
H10 H 0.4209 0.2328 0.3435
C17 C 0.33511(15) 0.3509(2) 0.3533(2)
H11 H 0.3004 0.3660 0.3301
C18 C 0.36042(15) 0.3875(2) 0.4139(2)
H12 H 0.3431 0.4264 0.4324
C25 C 0.39331(14) 0.12316(18) 0.2075(2)
C26 C 0.45077(14) 0.10069(19) 0.2279(2)
C27 C 0.47175(16) 0.0359(2) 0.2369(3)
C28 C 0.29526(18) 0.2043(2) 0.0569(2)
H16 H 0.2807 0.1721 0.0198
C29 C 0.20442(16) 0.2981(2) 0.2006(3)
H17 H 0.1986 0.2500 0.1936
C30 C 0.1661(2) 0.4115(3) 0.2084(4)
H18 H 0.1473 0.4257 0.2503
H19 H 0.1497 0.4347 0.1625
H20 H 0.2047 0.4241 0.2190
C31 C 0.1061(2) 0.3096(4) 0.1848(4)
H21 H 0.0873 0.3278 0.1375
H22 H 0.0862 0.3228 0.2260
H23 H 0.1080 0.2592 0.1819
O10 O 0.61686(10) 0.18327(13) 0.27303(15)
O11 O 0.63888(10) 0.08029(13) 0.32623(16)
C32 C 0.60669(14) 0.12316(18) 0.2925(2)
C33 C 0.54923(14) 0.10069(19) 0.2721(2)
C34 C 0.52825(16) 0.0359(2) 0.2631(3)
Co3 Co 0.72324(2) 0.09115(3) 0.34241(3)
Co4 Co 0.68178(2) 0.25034(3) 0.28054(3)
N12 N 0.64306(12) 0.29525(15) 0.17436(17)
N14 N 0.83867(14) 0.3378(2) 0.3016(2)
O12 O 0.72794(12) 0.05200(14) 0.45151(15)
O16 O 0.71615(10) 0.19455(12) 0.37533(14)
O17 O 0.67742(17) 0.25056(17) 0.4632(2)
O18 O 0.74795(10) 0.31904(13) 0.28878(16)
C48 C 0.58824(15) 0.36657(19) 0.0523(2)
C49 C 0.56555(16) 0.3081(2) 0.0788(2)
H33 H 0.5310 0.2918 0.0562
C50 C 0.59439(15) 0.2736(2) 0.1391(2)
H34 H 0.5791 0.2328 0.1565
C51 C 0.66489(15) 0.3509(2) 0.1467(2)
H35 H 0.6996 0.3660 0.1699
C52 C 0.63958(15) 0.3875(2) 0.0861(2)
H36 H 0.6569 0.4264 0.0676
C59 C 0.70474(18) 0.2043(2) 0.4431(2)
H39 H 0.7193 0.1721 0.4802
C60 C 0.79558(16) 0.2981(2) 0.2994(3)
H40 H 0.8014 0.2500 0.3064
C61 C 0.8339(2) 0.4115(3) 0.2916(4)
H41 H 0.8527 0.4257 0.2497
H42 H 0.8503 0.4347 0.3375
H43 H 0.7953 0.4241 0.2810
C62 C 0.8939(2) 0.3096(4) 0.3152(4)
H44 H 0.9127 0.3278 0.3625
H45 H 0.9138 0.3228 0.2740
H46 H 0.8920 0.2592 0.3181
Co8 Co 0.77676(2) 0.40885(3) 0.65759(3)
Co12 Co 0.31822(2) 0.74966(3) 0.71946(3)
N15 N 0.81038(12) 0.09517(15) 0.35501(18)
N16 N 0.18962(12) 0.09517(15) 0.14499(18)
N17 N 0.63819(12) 0.33053(16) 0.32939(18)
N18 N 0.36181(12) 0.33053(16) 0.17061(18)
O19 O 0.72115(11) 0.08237(13) 0.23003(15)
O20 O 0.27885(11) 0.08237(13) 0.26997(15)
O21 O 0.72845(11) 0.19561(13) 0.21140(15)
O22 O 0.27155(11) 0.19561(13) 0.28860(15)
N8 N 0.31038(12) 0.40483(15) 0.85501(18)
N9 N 0.50613(13) 0.39357(17) 0.96912(19)
N10 N 0.58506(12) 0.46078(16) 0.96430(18)
N11 N 0.50270(12) 0.49023(17) 0.88856(19)
N13 N 0.63819(12) 0.66947(16) 0.82939(18)
C35 C 0.33717(15) 0.4505(2) 0.8187(2)
H25 H 0.3174 0.4769 0.7796
C36 C 0.39282(16) 0.4609(2) 0.8357(2)
H26 H 0.4108 0.4938 0.8088
C37 C 0.42172(14) 0.42250(19) 0.8926(2)
C38 C 0.39406(16) 0.3730(2) 0.9282(2)
H27 H 0.4131 0.3441 0.9655
C39 C 0.33888(15) 0.3662(2) 0.9087(2)
H28 H 0.3201 0.3329 0.9340
C40 C 0.48039(15) 0.43570(19) 0.9169(2)
C41 C 0.55524(15) 0.49974(19) 0.9135(2)
C42 C 0.58372(15) 0.55906(19) 0.8838(2)
C43 C 0.63969(15) 0.5638(2) 0.8975(3)
H29 H 0.6604 0.5292 0.9258
C44 C 0.66540(15) 0.6192(2) 0.8696(2)
H30 H 0.7040 0.6218 0.8792
C45 C 0.58390(15) 0.66509(19) 0.8177(2)
H31 H 0.5641 0.7011 0.7905
C46 C 0.55507(15) 0.6114(2) 0.8428(2)
H32 H 0.5165 0.6101 0.8324
C47 C 0.55809(15) 0.40912(19) 0.9910(2)
Co7 Co 0.22324(2) 0.40885(3) 0.84241(3)
Co10 Co 0.68178(2) 0.74966(3) 0.78054(3)
O2 O 0.26706(11) 0.97414(14) 0.13671(15)
C19 C 0.26911(14) 0.99069(19) 0.0698(2)
C20 C 0.26853(15) 0.9366(2) 0.0110(2)
C21 C 0.26846(16) 0.8668(2) 0.0167(2)
H13 H 0.2671 0.8428 0.0625
H15 H 0.4508 0.9951 0.2268
H24 H 0.5492 0.9951 0.2732
S3 S 0.72838(4) 0.96286(4) 0.57908(5)
O13 O 0.73294(11) 0.97414(14) 0.36329(15)
O14 O 0.72115(11) 0.91763(13) 0.73003(15)
O15 O 0.72845(11) 0.80439(13) 0.71140(15)
C53 C 0.73089(14) 0.99069(19) 0.4302(2)
C54 C 0.73147(15) 0.9366(2) 0.4890(2)
C55 C 0.73154(16) 0.8668(2) 0.4833(2)
H37 H 0.7329 0.8428 0.4375
C56 C 0.72943(16) 0.83365(19) 0.5522(2)
H38 H 0.7290 0.7850 0.5581
C57 C 0.72815(14) 0.87892(18) 0.6096(2)
C58 C 0.72578(13) 0.86592(19) 0.6895(2)
Co5 Co 0.72324(2) 0.90885(3) 0.84241(3)
S1 S 0.27162(4) 0.96286(4) 0.92092(5)
O3 O 0.27885(11) 0.91763(13) 0.76997(15)
O4 O 0.27155(11) 0.80439(13) 0.78860(15)
C22 C 0.27057(16) 0.83365(19) 0.9478(2)
H14 H 0.2710 0.7850 0.9419
C23 C 0.27185(14) 0.87892(18) 0.8904(2)
C24 C 0.27422(13) 0.86592(19) 0.8105(2)
Co6 Co 0.27676(2) 0.90885(3) 0.65759(3)
N13_2 N 0.13819(12) 0.16947(16) 0.82939(18)
C42_2 C 0.08372(15) 0.05906(19) 0.8838(2)
C43_2 C 0.13969(15) 0.0638(2) 0.8975(3)
H29_2 H 0.1604 0.0292 0.9258
C44_2 C 0.16540(15) 0.1192(2) 0.8696(2)
H30_2 H 0.2040 0.1218 0.8792
C45_2 C 0.08390(15) 0.16509(19) 0.8177(2)
H31_2 H 0.0641 0.2011 0.7905
C46_2 C 0.05507(15) 0.1114(2) 0.8428(2)
H32_2 H 0.0165 0.1101 0.8324
Co10_2 Co 0.18178(2) 0.24966(3) 0.78054(3)
S2_2 S -0.0000 0.66195(6) 0.2500
N1_2 N 0.18962(12) 0.90483(15) 0.64499(18)
C1_2 C 0.16283(15) 0.9505(2) 0.6813(2)
H1_2 H 0.1826 0.9769 0.7204
C2_2 C 0.10718(16) 0.9609(2) 0.6643(2)
H2_2 H 0.0892 0.9938 0.6912
C3_2 C 0.07828(14) 0.92250(19) 0.6074(2)
C4_2 C 0.10594(16) 0.8730(2) 0.5718(2)
H3_2 H 0.0869 0.8441 0.5345
C5_2 C 0.16112(15) 0.8662(2) 0.5913(2)
H4_2 H 0.1799 0.8329 0.5660
C6_2 C 0.01961(15) 0.93570(19) 0.5831(2)
O10_2 O 0.11686(10) 0.68327(13) 0.27303(15)
O11_2 O 0.13888(10) 0.58029(13) 0.32623(16)
C32_2 C 0.10669(14) 0.62316(18) 0.2925(2)
C33_2 C 0.04923(14) 0.60069(19) 0.2721(2)
C34_2 C 0.02825(16) 0.5359(2) 0.2631(3)
H24_2 H 0.0492 0.4951 0.2732
Co3_2 Co 0.22324(2) 0.59115(3) 0.34241(3)
Co4_2 Co 0.18178(2) 0.75034(3) 0.28054(3)
S3_2 S 0.22838(4) 0.46286(4) 0.57908(5)
N12_2 N 0.14306(12) 0.79525(15) 0.17436(17)
N14_2 N 0.33867(14) 0.8378(2) 0.3016(2)
O12_2 O 0.22794(12) 0.55200(14) 0.45151(15)
O13_2 O 0.23294(11) 0.47414(14) 0.36329(15)
O14_2 O 0.22115(11) 0.41763(13) 0.73003(15)
O15_2 O 0.22845(11) 0.30439(13) 0.71140(15)
O16_2 O 0.21615(10) 0.69455(12) 0.37533(14)
O17_2 O 0.17742(17) 0.75056(17) 0.4632(2)
O18_2 O 0.24795(10) 0.81904(13) 0.28878(16)
C48_2 C 0.08824(15) 0.86657(19) 0.0523(2)
C49_2 C 0.06555(16) 0.8081(2) 0.0788(2)
H33_2 H 0.0310 0.7918 0.0562
C50_2 C 0.09439(15) 0.7736(2) 0.1391(2)
H34_2 H 0.0791 0.7328 0.1565
C51_2 C 0.16489(15) 0.8509(2) 0.1467(2)
H35_2 H 0.1996 0.8660 0.1699
C52_2 C 0.13958(15) 0.8875(2) 0.0861(2)
H36_2 H 0.1569 0.9264 0.0676
C53_2 C 0.23089(14) 0.49069(19) 0.4302(2)
C54_2 C 0.23147(15) 0.4366(2) 0.4890(2)
C55_2 C 0.23154(16) 0.3668(2) 0.4833(2)
H37_2 H 0.2329 0.3428 0.4375
C56_2 C 0.22943(16) 0.33365(19) 0.5522(2)
H38_2 H 0.2290 0.2850 0.5581
C57_2 C 0.22815(14) 0.37892(18) 0.6096(2)
C58_2 C 0.22578(13) 0.36592(19) 0.6895(2)
C59_2 C 0.20474(18) 0.7043(2) 0.4431(2)
H39_2 H 0.2193 0.6721 0.4802
C60_2 C 0.29558(16) 0.7981(2) 0.2994(3)
H40_2 H 0.3014 0.7500 0.3064
C61_2 C 0.3339(2) 0.9115(3) 0.2916(4)
H41_2 H 0.3527 0.9257 0.2497
H42_2 H 0.3503 0.9347 0.3375
H43_2 H 0.2953 0.9241 0.2810
C62_2 C 0.3939(2) 0.8096(4) 0.3152(4)
H44_2 H 0.4127 0.8278 0.3625
H45_2 H 0.4138 0.8228 0.2740
H46_2 H 0.3920 0.7592 0.3181
N15_2 N 0.31038(12) 0.59517(15) 0.35501(18)
N17_2 N 0.13819(12) 0.83053(16) 0.32939(18)
O19_2 O 0.22115(11) 0.58237(13) 0.23003(15)
O21_2 O 0.22845(11) 0.69561(13) 0.21140(15)
N6_2 N 0.86181(12) 0.16947(16) 0.67061(18)
C8_2 C 0.91628(15) 0.05906(19) 0.6162(2)
C9_2 C 0.86031(15) 0.0638(2) 0.6025(3)
H5_2 H 0.8396 0.0292 0.5742
C10_2 C 0.83460(15) 0.1192(2) 0.6304(2)
H6_2 H 0.7960 0.1218 0.6208
C11_2 C 0.91610(15) 0.16509(19) 0.6823(2)
H7_2 H 0.9359 0.2011 0.7095
C12_2 C 0.94493(15) 0.1114(2) 0.6572(2)
H8_2 H 0.9835 0.1101 0.6676
Co12_2 Co 0.81822(2) 0.24966(3) 0.71946(3)
Co1_2 Co 0.77676(2) 0.59115(3) 0.15759(3)
Co2_2 Co 0.81822(2) 0.75034(3) 0.21946(3)
S2_3 S 1.0000 0.66195(6) 0.2500
N2_2 N 0.99387(13) 0.89357(17) 0.53088(19)
N3_2 N 0.91494(12) 0.96078(16) 0.53570(18)
N4_2 N 0.99730(12) 0.99023(17) 0.61144(19)
N5_2 N 0.85694(12) 0.79525(15) 0.32564(17)
N7_2 N 0.66133(14) 0.8378(2) 0.1984(2)
O1_2 O 0.77206(12) 0.55200(14) 0.04849(15)
O2_2 O 0.76706(11) 0.47414(14) 0.13671(15)
O5_2 O 0.88314(10) 0.68327(13) 0.22697(15)
O6_2 O 0.86112(10) 0.58029(13) 0.17377(16)
O7_2 O 0.78385(10) 0.69455(12) 0.12467(14)
O8_2 O 0.82258(17) 0.75056(17) 0.0368(2)
O9_2 O 0.75205(10) 0.81904(13) 0.21122(16)
C7_2 C 0.94476(15) 0.99974(19) 0.5865(2)
C13_2 C 0.94191(15) 0.90912(19) 0.5090(2)
C14_2 C 0.91176(15) 0.86657(19) 0.4477(2)
C15_2 C 0.93445(16) 0.8081(2) 0.4212(2)
H9_2 H 0.9690 0.7918 0.4438
C16_2 C 0.90561(15) 0.7736(2) 0.3609(2)
H10_2 H 0.9209 0.7328 0.3435
C17_2 C 0.83511(15) 0.8509(2) 0.3533(2)
H11_2 H 0.8004 0.8660 0.3301
C18_2 C 0.86042(15) 0.8875(2) 0.4139(2)
H12_2 H 0.8431 0.9264 0.4324
C19_2 C 0.76911(14) 0.49069(19) 0.0698(2)
C20_2 C 0.76853(15) 0.4366(2) 0.0110(2)
C21_2 C 0.76846(16) 0.3668(2) 0.0167(2)
H13_2 H 0.7671 0.3428 0.0625
C25_2 C 0.89331(14) 0.62316(18) 0.2075(2)
C26_2 C 0.95077(14) 0.60069(19) 0.2279(2)
C27_2 C 0.97175(16) 0.5359(2) 0.2369(3)
H15_2 H 0.9508 0.4951 0.2268
C28_2 C 0.79526(18) 0.7043(2) 0.0569(2)
H16_2 H 0.7807 0.6721 0.0198
C29_2 C 0.70442(16) 0.7981(2) 0.2006(3)
H17_2 H 0.6986 0.7500 0.1936
C30_2 C 0.6661(2) 0.9115(3) 0.2084(4)
H18_2 H 0.6473 0.9257 0.2503
H19_2 H 0.6497 0.9347 0.1625
H20_2 H 0.7047 0.9241 0.2190
C31_2 C 0.6061(2) 0.8096(4) 0.1848(4)
H21_2 H 0.5873 0.8278 0.1375
H22_2 H 0.5862 0.8228 0.2260
H23_2 H 0.6080 0.7592 0.1819
N16_2 N 0.68962(12) 0.59517(15) 0.14499(18)
N18_2 N 0.86181(12) 0.83053(16) 0.17061(18)
O20_2 O 0.77885(11) 0.58237(13) 0.26997(15)
O22_2 O 0.77155(11) 0.69561(13) 0.28860(15)
S1_2 S 0.77162(4) 0.46286(4) 0.92092(5)
O3_2 O 0.77885(11) 0.41763(13) 0.76997(15)
O4_2 O 0.77155(11) 0.30439(13) 0.78860(15)
C22_2 C 0.77057(16) 0.33365(19) 0.9478(2)
H14_2 H 0.7710 0.2850 0.9419
C23_2 C 0.77185(14) 0.37892(18) 0.8904(2)
C24_2 C 0.77422(13) 0.36592(19) 0.8105(2)
N8_2 N 0.81038(12) 0.90483(15) 0.85501(18)
C35_2 C 0.83717(15) 0.9505(2) 0.8187(2)
H25_2 H 0.8174 0.9769 0.7796
C36_2 C 0.89282(16) 0.9609(2) 0.8357(2)
H26_2 H 0.9108 0.9938 0.8088
C37_2 C 0.92172(14) 0.92250(19) 0.8926(2)
C38_2 C 0.89406(16) 0.8730(2) 0.9282(2)
H27_2 H 0.9131 0.8441 0.9655
C39_2 C 0.83888(15) 0.8662(2) 0.9087(2)
H28_2 H 0.8201 0.8329 0.9340
C40_2 C 0.98039(15) 0.93570(19) 0.9169(2)
S1_3 S 0.72838(4) 0.03714(4) 0.07908(5)
C22_3 C 0.72943(16) 0.16635(19) 0.0522(2)
H14_3 H 0.7290 0.2150 0.0581
C23_3 C 0.72815(14) 0.12108(18) 0.1096(2)
C24_3 C 0.72578(13) 0.13408(19) 0.1895(2)
O2_3 O 0.73294(11) 0.02586(14) 0.86329(15)
C19_3 C 0.73089(14) 0.00931(19) 0.9302(2)
C20_3 C 0.73147(15) 0.0634(2) 0.9890(2)
C21_3 C 0.73154(16) 0.1332(2) 0.9833(2)
H13_3 H 0.7329 0.1572 0.9375
H15_3 H 0.5492 0.0049 0.7732
H24_3 H 0.4508 0.0049 0.7268
S3_3 S 0.27162(4) 0.03714(4) 0.42092(5)
O13_3 O 0.26706(11) 0.02586(14) 0.63671(15)
C53_3 C 0.26911(14) 0.00931(19) 0.5698(2)
C54_3 C 0.26853(15) 0.0634(2) 0.5110(2)
C55_3 C 0.26846(16) 0.1332(2) 0.5167(2)
H37_3 H 0.2671 0.1572 0.5625
C56_3 C 0.27057(16) 0.16635(19) 0.4478(2)
H38_3 H 0.2710 0.2150 0.4419
C57_3 C 0.27185(14) 0.12108(18) 0.3904(2)
C58_3 C 0.27422(13) 0.13408(19) 0.3105(2)
N9_2 N 0.49387(13) 0.60643(17) 0.03088(19)
N10_2 N 0.41494(12) 0.53922(16) 0.03570(18)
N11_2 N 0.49730(12) 0.50977(17) 0.11144(19)
C35_3 C 0.66283(15) 0.5495(2) 0.1813(2)
H25_3 H 0.6826 0.5231 0.2204
C36_3 C 0.60718(16) 0.5391(2) 0.1643(2)
H26_3 H 0.5892 0.5062 0.1912
C37_3 C 0.57828(14) 0.57750(19) 0.1074(2)
C38_3 C 0.60594(16) 0.6270(2) 0.0718(2)
H27_3 H 0.5869 0.6559 0.0345
C39_3 C 0.66112(15) 0.6338(2) 0.0913(2)
H28_3 H 0.6799 0.6671 0.0660
C40_3 C 0.51961(15) 0.56430(19) 0.0831(2)
C41_2 C 0.44476(15) 0.50026(19) 0.0865(2)
C42_3 C 0.41628(15) 0.44094(19) 0.1162(2)
C43_3 C 0.36031(15) 0.4362(2) 0.1025(3)
H29_3 H 0.3396 0.4708 0.0742
C44_3 C 0.33460(15) 0.3808(2) 0.1304(2)
H30_3 H 0.2960 0.3782 0.1208
C45_3 C 0.41610(15) 0.33491(19) 0.1823(2)
H31_3 H 0.4359 0.2989 0.2095
C46_3 C 0.44493(15) 0.3886(2) 0.1572(2)
H32_3 H 0.4835 0.3899 0.1676
C47_2 C 0.44191(15) 0.59088(19) 0.0090(2)
S2_4 S 0.5000 0.83805(6) 0.7500
N2_3 N 0.50613(13) 0.60643(17) 0.46912(19)
N3_3 N 0.58506(12) 0.53922(16) 0.46430(18)
N4_3 N 0.50270(12) 0.50977(17) 0.38856(19)
N5_3 N 0.64306(12) 0.70475(15) 0.67436(17)
N7_3 N 0.83867(14) 0.6622(2) 0.8016(2)
O1_3 O 0.72794(12) 0.94800(14) 0.95151(15)
O5_3 O 0.61686(10) 0.81673(13) 0.77303(15)
O6_3 O 0.63888(10) 0.91971(13) 0.82623(16)
O7_3 O 0.71615(10) 0.80545(12) 0.87533(14)
O8_3 O 0.67742(17) 0.74944(17) 0.9632(2)
O9_3 O 0.74795(10) 0.68096(13) 0.78878(16)
C1_3 C 0.33717(15) 0.5495(2) 0.3187(2)
H1_3 H 0.3174 0.5231 0.2796
C2_3 C 0.39282(16) 0.5391(2) 0.3357(2)
H2_3 H 0.4108 0.5062 0.3088
C3_3 C 0.42172(14) 0.57750(19) 0.3926(2)
C4_3 C 0.39406(16) 0.6270(2) 0.4282(2)
H3_3 H 0.4131 0.6559 0.4655
C5_3 C 0.33888(15) 0.6338(2) 0.4087(2)
H4_3 H 0.3201 0.6671 0.4340
C6_3 C 0.48039(15) 0.56430(19) 0.4169(2)
C7_3 C 0.55524(15) 0.50026(19) 0.4135(2)
C8_3 C 0.58372(15) 0.44094(19) 0.3838(2)
C9_3 C 0.63969(15) 0.4362(2) 0.3975(3)
H5_3 H 0.6604 0.4708 0.4258
C10_3 C 0.66540(15) 0.3808(2) 0.3696(2)
H6_3 H 0.7040 0.3782 0.3792
C11_3 C 0.58390(15) 0.33491(19) 0.3177(2)
H7_3 H 0.5641 0.2989 0.2905
C12_3 C 0.55507(15) 0.3886(2) 0.3428(2)
H8_3 H 0.5165 0.3899 0.3324
C13_3 C 0.55809(15) 0.59088(19) 0.4910(2)
C14_3 C 0.58824(15) 0.63343(19) 0.5523(2)
C15_3 C 0.56555(16) 0.6919(2) 0.5788(2)
H9_3 H 0.5310 0.7082 0.5562
C16_3 C 0.59439(15) 0.7264(2) 0.6391(2)
H10_3 H 0.5791 0.7672 0.6565
C17_3 C 0.66489(15) 0.6491(2) 0.6467(2)
H11_3 H 0.6996 0.6340 0.6699
C18_3 C 0.63958(15) 0.6125(2) 0.5861(2)
H12_3 H 0.6569 0.5736 0.5676
C25_3 C 0.60669(14) 0.87684(18) 0.7925(2)
C26_3 C 0.54923(14) 0.89931(19) 0.7721(2)
C27_3 C 0.52825(16) 0.9641(2) 0.7631(3)
C28_3 C 0.70474(18) 0.7957(2) 0.9431(2)
H16_3 H 0.7193 0.8279 0.9802
C29_3 C 0.79558(16) 0.7019(2) 0.7994(3)
H17_3 H 0.8014 0.7500 0.8064
C30_3 C 0.8339(2) 0.5885(3) 0.7916(4)
H18_3 H 0.8527 0.5743 0.7497
H19_3 H 0.8503 0.5653 0.8375
H20_3 H 0.7953 0.5759 0.7810
C31_3 C 0.8939(2) 0.6904(4) 0.8152(4)
H21_3 H 0.9127 0.6722 0.8625
H22_3 H 0.9138 0.6772 0.7740
H23_3 H 0.8920 0.7408 0.8181
O10_3 O 0.38314(10) 0.81673(13) 0.72697(15)
O11_3 O 0.36112(10) 0.91971(13) 0.67377(16)
C32_3 C 0.39331(14) 0.87684(18) 0.7075(2)
C33_3 C 0.45077(14) 0.89931(19) 0.7279(2)
C34_3 C 0.47175(16) 0.9641(2) 0.7369(3)
N12_3 N 0.35694(12) 0.70475(15) 0.82564(17)
N14_3 N 0.16133(14) 0.6622(2) 0.6984(2)
O12_3 O 0.27206(12) 0.94800(14) 0.54849(15)
O16_3 O 0.28385(10) 0.80545(12) 0.62467(14)
O17_3 O 0.32258(17) 0.74944(17) 0.5368(2)
O18_3 O 0.25205(10) 0.68096(13) 0.71122(16)
C48_3 C 0.41176(15) 0.63343(19) 0.9477(2)
C49_3 C 0.43445(16) 0.6919(2) 0.9212(2)
H33_3 H 0.4690 0.7082 0.9438
C50_3 C 0.40561(15) 0.7264(2) 0.8609(2)
H34_3 H 0.4209 0.7672 0.8435
C51_3 C 0.33511(15) 0.6491(2) 0.8533(2)
H35_3 H 0.3004 0.6340 0.8301
C52_3 C 0.36042(15) 0.6125(2) 0.9139(2)
H36_3 H 0.3431 0.5736 0.9324
C59_3 C 0.29526(18) 0.7957(2) 0.5569(2)
H39_3 H 0.2807 0.8279 0.5198
C60_3 C 0.20442(16) 0.7019(2) 0.7006(3)
H40_3 H 0.1986 0.7500 0.6936
C61_3 C 0.1661(2) 0.5885(3) 0.7084(4)
H41_3 H 0.1473 0.5743 0.7503
H42_3 H 0.1497 0.5653 0.6625
H43_3 H 0.2047 0.5759 0.7190
C62_3 C 0.1061(2) 0.6904(4) 0.6848(4)
H44_3 H 0.0873 0.6722 0.6375
H45_3 H 0.0862 0.6772 0.7260
H46_3 H 0.1080 0.7408 0.6819
S1_4 S 0.22838(4) 0.53714(4) 0.07908(5)
C22_4 C 0.22943(16) 0.66635(19) 0.0522(2)
H14_4 H 0.2290 0.7150 0.0581
C23_4 C 0.22815(14) 0.62108(18) 0.1096(2)
C24_4 C 0.22578(13) 0.63408(19) 0.1895(2)
C35_4 C 0.16283(15) 0.0495(2) 0.1813(2)
H25_4 H 0.1826 0.0231 0.2204
C36_4 C 0.10718(16) 0.0391(2) 0.1643(2)
H26_4 H 0.0892 0.0062 0.1912
C37_4 C 0.07828(14) 0.07750(19) 0.1074(2)
C38_4 C 0.10594(16) 0.1270(2) 0.0718(2)
H27_4 H 0.0869 0.1559 0.0345
C39_4 C 0.16112(15) 0.1338(2) 0.0913(2)
H28_4 H 0.1799 0.1671 0.0660
C40_4 C 0.01961(15) 0.06430(19) 0.0831(2)
S2_5 S 0.0000 0.33805(6) 0.7500
N2_4 N 0.00613(13) 0.10643(17) 0.46912(19)
N3_4 N 0.08506(12) 0.03922(16) 0.46430(18)
N4_4 N 0.00270(12) 0.00977(17) 0.38856(19)
N5_4 N 0.14306(12) 0.20475(15) 0.67436(17)
N7_4 N 0.33867(14) 0.1622(2) 0.8016(2)
O1_4 O 0.22794(12) 0.44800(14) 0.95151(15)
O2_4 O 0.23294(11) 0.52586(14) 0.86329(15)
O5_4 O 0.11686(10) 0.31673(13) 0.77303(15)
O6_4 O 0.13888(10) 0.41971(13) 0.82623(16)
O7_4 O 0.21615(10) 0.30545(12) 0.87533(14)
O8_4 O 0.17742(17) 0.24944(17) 0.9632(2)
O9_4 O 0.24795(10) 0.18096(13) 0.78878(16)
C7_4 C 0.05524(15) 0.00026(19) 0.4135(2)
C13_4 C 0.05809(15) 0.09088(19) 0.4910(2)
C14_4 C 0.08824(15) 0.13343(19) 0.5523(2)
C15_4 C 0.06555(16) 0.1919(2) 0.5788(2)
H9_4 H 0.0310 0.2082 0.5562
C16_4 C 0.09439(15) 0.2264(2) 0.6391(2)
H10_4 H 0.0791 0.2672 0.6565
C17_4 C 0.16489(15) 0.1491(2) 0.6467(2)
H11_4 H 0.1996 0.1340 0.6699
C18_4 C 0.13958(15) 0.1125(2) 0.5861(2)
H12_4 H 0.1569 0.0736 0.5676
C19_4 C 0.23089(14) 0.50931(19) 0.9302(2)
C20_4 C 0.23147(15) 0.5634(2) 0.9890(2)
C21_4 C 0.23154(16) 0.6332(2) 0.9833(2)
H13_4 H 0.2329 0.6572 0.9375
C25_4 C 0.10669(14) 0.37684(18) 0.7925(2)
C26_4 C 0.04923(14) 0.39931(19) 0.7721(2)
C27_4 C 0.02825(16) 0.4641(2) 0.7631(3)
H15_4 H 0.0492 0.5049 0.7732
C28_4 C 0.20474(18) 0.2957(2) 0.9431(2)
H16_4 H 0.2193 0.3279 0.9802
C29_4 C 0.29558(16) 0.2019(2) 0.7994(3)
H17_4 H 0.3014 0.2500 0.8064
C30_4 C 0.3339(2) 0.0885(3) 0.7916(4)
H18_4 H 0.3527 0.0743 0.7497
H19_4 H 0.3503 0.0653 0.8375
H20_4 H 0.2953 0.0759 0.7810
C31_4 C 0.3939(2) 0.1904(4) 0.8152(4)
H21_4 H 0.4127 0.1722 0.8625
H22_4 H 0.4138 0.1772 0.7740
H23_4 H 0.3920 0.2408 0.8181
C8_4 C 0.08372(15) 0.94094(19) 0.3838(2)
C9_4 C 0.13969(15) 0.9362(2) 0.3975(3)
H5_4 H 0.1604 0.9708 0.4258
C10_4 C 0.16540(15) 0.8808(2) 0.3696(2)
H6_4 H 0.2040 0.8782 0.3792
C11_4 C 0.08390(15) 0.83491(19) 0.3177(2)
H7_4 H 0.0641 0.7989 0.2905
C12_4 C 0.05507(15) 0.8886(2) 0.3428(2)
H8_4 H 0.0165 0.8899 0.3324
S2_6 S 1.0000 0.33805(6) 0.7500
C1_4 C 0.83717(15) 0.0495(2) 0.3187(2)
H1_4 H 0.8174 0.0231 0.2796
C2_4 C 0.89282(16) 0.0391(2) 0.3357(2)
H2_4 H 0.9108 0.0062 0.3088
C3_4 C 0.92172(14) 0.07750(19) 0.3926(2)
C4_4 C 0.89406(16) 0.1270(2) 0.4282(2)
H3_4 H 0.9131 0.1559 0.4655
C5_4 C 0.83888(15) 0.1338(2) 0.4087(2)
H4_4 H 0.8201 0.1671 0.4340
C6_4 C 0.98039(15) 0.06430(19) 0.4169(2)
O10_4 O 0.88314(10) 0.31673(13) 0.72697(15)
O11_4 O 0.86112(10) 0.41971(13) 0.67377(16)
C32_4 C 0.89331(14) 0.37684(18) 0.7075(2)
C33_4 C 0.95077(14) 0.39931(19) 0.7279(2)
C34_4 C 0.97175(16) 0.4641(2) 0.7369(3)
H24_4 H 0.9508 0.5049 0.7268
S3_4 S 0.77162(4) 0.53714(4) 0.42092(5)
N12_4 N 0.85694(12) 0.20475(15) 0.82564(17)
N14_4 N 0.66133(14) 0.1622(2) 0.6984(2)
O12_4 O 0.77206(12) 0.44800(14) 0.54849(15)
O13_4 O 0.76706(11) 0.52586(14) 0.63671(15)
O16_4 O 0.78385(10) 0.30545(12) 0.62467(14)
O17_4 O 0.82258(17) 0.24944(17) 0.5368(2)
O18_4 O 0.75205(10) 0.18096(13) 0.71122(16)
C48_4 C 0.91176(15) 0.13343(19) 0.9477(2)
C49_4 C 0.93445(16) 0.1919(2) 0.9212(2)
H33_4 H 0.9690 0.2082 0.9438
C50_4 C 0.90561(15) 0.2264(2) 0.8609(2)
H34_4 H 0.9209 0.2672 0.8435
C51_4 C 0.83511(15) 0.1491(2) 0.8533(2)
H35_4 H 0.8004 0.1340 0.8301
C52_4 C 0.86042(15) 0.1125(2) 0.9139(2)
H36_4 H 0.8431 0.0736 0.9324
C53_4 C 0.76911(14) 0.50931(19) 0.5698(2)
C54_4 C 0.76853(15) 0.5634(2) 0.5110(2)
C55_4 C 0.76846(16) 0.6332(2) 0.5167(2)
H37_4 H 0.7671 0.6572 0.5625
C56_4 C 0.77057(16) 0.66635(19) 0.4478(2)
H38_4 H 0.7710 0.7150 0.4419
C57_4 C 0.77185(14) 0.62108(18) 0.3904(2)
C58_4 C 0.77422(13) 0.63408(19) 0.3105(2)
C59_4 C 0.79526(18) 0.2957(2) 0.5569(2)
H39_4 H 0.7807 0.3279 0.5198
C60_4 C 0.70442(16) 0.2019(2) 0.7006(3)
H40_4 H 0.6986 0.2500 0.6936
C61_4 C 0.6661(2) 0.0885(3) 0.7084(4)
H41_4 H 0.6473 0.0743 0.7503
H42_4 H 0.6497 0.0653 0.6625
H43_4 H 0.7047 0.0759 0.7190
C62_4 C 0.6061(2) 0.1904(4) 0.6848(4)
H44_4 H 0.5873 0.1722 0.6375
H45_4 H 0.5862 0.1772 0.7260
H46_4 H 0.6080 0.2408 0.6819
C42_4 C 0.91628(15) 0.94094(19) 0.1162(2)
C43_4 C 0.86031(15) 0.9362(2) 0.1025(3)
H29_4 H 0.8396 0.9708 0.0742
C44_4 C 0.83460(15) 0.8808(2) 0.1304(2)
H30_4 H 0.7960 0.8782 0.1208
C45_4 C 0.91610(15) 0.83491(19) 0.1823(2)
H31_4 H 0.9359 0.7989 0.2095
C46_4 C 0.94493(15) 0.8886(2) 0.1572(2)
H32_4 H 0.9835 0.8899 0.1676
N9_3 N 0.00613(13) 0.89357(17) 0.96912(19)
N10_3 N 0.08506(12) 0.96078(16) 0.96430(18)
N11_3 N 0.00270(12) 0.99023(17) 0.88856(19)
C41_3 C 0.05524(15) 0.99974(19) 0.9135(2)
C47_3 C 0.05809(15) 0.90912(19) 0.9910(2)
N9_4 N 0.99387(13) 0.10643(17) 0.03088(19)
N10_4 N 0.91494(12) 0.03922(16) 0.03570(18)
N11_4 N 0.99730(12) 0.00977(17) 0.11144(19)
C41_4 C 0.94476(15) 0.00026(19) 0.0865(2)
C47_4 C 0.94191(15) 0.09088(19) 0.0090(2)
loop_
_geom_bond_atom_site_label_1
_geom_bond_atom_site_label_2
_geom_bond_site_symmetry_1
_geom_bond_site_symmetry_2
Co1 O1 1_555 1_555
Co2 N5 1_555 1_555
S2 C26 1_555 1_555
N1 C1 1_555 1_555
N2 C6 1_555 1_555
N3 C7 1_555 1_555
N4 C6 1_555 1_555
N5 C16 1_555 1_555
N6 C10 1_555 1_555
N7 C29 1_555 1_555
O5 Co2 1_555 1_555
O6 Co1 1_555 1_555
O7 Co1 1_555 1_555
O8 C28 1_555 1_555
O9 Co2 1_555 1_555
C1 H1 1_555 1_555
C2 C1 1_555 1_555
H2 C2 1_555 1_555
C3 C2 1_555 1_555
C4 C3 1_555 1_555
H3 C4 1_555 1_555
C5 N1 1_555 1_555
H4 C5 1_555 1_555
C6 C3 1_555 1_555
C7 N4 1_555 1_555
C8 C7 1_555 1_555
C9 C8 1_555 1_555
H5 C9 1_555 1_555
C10 C9 1_555 1_555
H6 C10 1_555 1_555
C11 N6 1_555 1_555
H7 C11 1_555 1_555
C12 C8 1_555 1_555
H8 C12 1_555 1_555
C13 N2 1_555 1_555
C14 C13 1_555 1_555
C15 C14 1_555 1_555
H9 C15 1_555 1_555
C16 C15 1_555 1_555
H10 C16 1_555 1_555
C17 N5 1_555 1_555
H11 C17 1_555 1_555
C18 C14 1_555 1_555
H12 C18 1_555 1_555
C25 O5 1_555 1_555
C26 C25 1_555 1_555
C27 C26 1_555 1_555
C28 O7 1_555 1_555
H16 C28 1_555 1_555
C29 O9 1_555 1_555
H17 C29 1_555 1_555
C30 N7 1_555 1_555
H18 C30 1_555 1_555
H19 C30 1_555 1_555
H20 C30 1_555 1_555
C31 N7 1_555 1_555
H21 C31 1_555 1_555
H22 C31 1_555 1_555
H23 C31 1_555 1_555
O10 C32 1_555 1_555
O11 C32 1_555 1_555
C32 C33 1_555 1_555
C33 S2 1_555 1_555
C34 C27 1_555 1_555
Co3 O11 1_555 1_555
Co4 O10 1_555 1_555
N12 Co4 1_555 1_555
N14 C60 1_555 1_555
O12 Co3 1_555 1_555
O16 Co3 1_555 1_555
O17 C59 1_555 1_555
O18 Co4 1_555 1_555
C49 C48 1_555 1_555
H33 C49 1_555 1_555
C50 N12 1_555 1_555
H34 C50 1_555 1_555
C51 N12 1_555 1_555
H35 C51 1_555 1_555
C52 C48 1_555 1_555
H36 C52 1_555 1_555
C59 O16 1_555 1_555
H39 C59 1_555 1_555
C60 O18 1_555 1_555
H40 C60 1_555 1_555
C61 N14 1_555 1_555
H41 C61 1_555 1_555
H42 C61 1_555 1_555
H43 C61 1_555 1_555
C62 N14 1_555 1_555
H44 C62 1_555 1_555
H45 C62 1_555 1_555
H46 C62 1_555 1_555
Co8 N1 1_555 1_555
Co12 N6 1_555 1_555
N15 Co3 1_555 1_555
N16 Co1 1_555 1_555
N17 Co4 1_555 1_555
N18 Co2 1_555 1_555
O19 Co3 1_555 1_555
O20 Co1 1_555 1_555
O21 Co4 1_555 1_555
O22 Co2 1_555 1_555
Co2 O7 1_555 1_555
N3 C13 1_555 1_555
O6 C25 1_555 1_555
C4 C5 1_555 1_555
C11 C12 1_555 1_555
C17 C18 1_555 1_555
C33 C34 1_555 1_555
Co4 O16 1_555 1_555
C49 C50 1_555 1_555
C51 C52 1_555 1_555
N8 C35 1_555 1_555
N9 C40 1_555 1_555
N10 C41 1_555 1_555
N11 C40 1_555 1_555
N13 C44 1_555 1_555
C35 H25 1_555 1_555
C36 C35 1_555 1_555
H26 C36 1_555 1_555
C37 C36 1_555 1_555
C38 C37 1_555 1_555
H27 C38 1_555 1_555
C39 N8 1_555 1_555
H28 C39 1_555 1_555
C40 C37 1_555 1_555
C41 N11 1_555 1_555
C42 C41 1_555 1_555
C43 C42 1_555 1_555
H29 C43 1_555 1_555
C44 C43 1_555 1_555
H30 C44 1_555 1_555
C45 N13 1_555 1_555
H31 C45 1_555 1_555
C46 C42 1_555 1_555
H32 C46 1_555 1_555
C47 N9 1_555 1_555
Co7 N8 1_555 1_555
Co10 N13 1_555 1_555
N10 C47 1_555 1_555
C38 C39 1_555 1_555
C45 C46 1_555 1_555
C19 O2 1_555 1_555
C20 C19 1_555 1_555
C21 C20 1_555 1_555
H13 C21 1_555 1_555
S3 C54 1_555 1_555
O14 C58 1_555 1_555
O15 C58 1_555 1_555
C54 C53 1_555 1_555
C55 C54 1_555 1_555
H37 C55 1_555 1_555
C56 C55 1_555 1_555
H38 C56 1_555 1_555
C57 S3 1_555 1_555
C58 C57 1_555 1_555
Co5 O14 1_555 1_555
Co10 O15 1_555 1_555
O13 C53 1_555 1_555
C56 C57 1_555 1_555
O3 C24 1_555 1_555
O4 C24 1_555 1_555
H14 C22 1_555 1_555
C23 S1 1_555 1_555
C24 C23 1_555 1_555
Co6 O3 1_555 1_555
Co12 O4 1_555 1_555
C22 C23 1_555 1_555
N13_2 C44_2 1_555 1_555
C43_2 C42_2 1_555 1_555
H29_2 C43_2 1_555 1_555
C44_2 C43_2 1_555 1_555
H30_2 C44_2 1_555 1_555
C45_2 N13_2 1_555 1_555
H31_2 C45_2 1_555 1_555
C46_2 C42_2 1_555 1_555
H32_2 C46_2 1_555 1_555
Co10_2 N13_2 1_555 1_555
C45_2 C46_2 1_555 1_555
N1_2 C1_2 1_555 1_555
C1_2 H1_2 1_555 1_555
C2_2 C1_2 1_555 1_555
H2_2 C2_2 1_555 1_555
C3_2 C2_2 1_555 1_555
C4_2 C3_2 1_555 1_555
H3_2 C4_2 1_555 1_555
C5_2 N1_2 1_555 1_555
H4_2 C5_2 1_555 1_555
C6_2 C3_2 1_555 1_555
O10_2 C32_2 1_555 1_555
O11_2 C32_2 1_555 1_555
C32_2 C33_2 1_555 1_555
C33_2 S2_2 1_555 1_555
H24_2 C34_2 1_555 1_555
Co3_2 O11_2 1_555 1_555
Co4_2 O10_2 1_555 1_555
S3_2 C54_2 1_555 1_555
N12_2 Co4_2 1_555 1_555
N14_2 C60_2 1_555 1_555
O12_2 Co3_2 1_555 1_555
O13_2 Co3_2 1_555 1_555
O14_2 C58_2 1_555 1_555
O15_2 C58_2 1_555 1_555
O16_2 Co3_2 1_555 1_555
O17_2 C59_2 1_555 1_555
O18_2 Co4_2 1_555 1_555
C49_2 C48_2 1_555 1_555
H33_2 C49_2 1_555 1_555
C50_2 N12_2 1_555 1_555
H34_2 C50_2 1_555 1_555
C51_2 N12_2 1_555 1_555
H35_2 C51_2 1_555 1_555
C52_2 C48_2 1_555 1_555
H36_2 C52_2 1_555 1_555
C53_2 O12_2 1_555 1_555
C54_2 C53_2 1_555 1_555
C55_2 C54_2 1_555 1_555
H37_2 C55_2 1_555 1_555
C56_2 C55_2 1_555 1_555
H38_2 C56_2 1_555 1_555
C57_2 S3_2 1_555 1_555
C58_2 C57_2 1_555 1_555
C59_2 O16_2 1_555 1_555
H39_2 C59_2 1_555 1_555
C60_2 O18_2 1_555 1_555
H40_2 C60_2 1_555 1_555
C61_2 N14_2 1_555 1_555
H41_2 C61_2 1_555 1_555
H42_2 C61_2 1_555 1_555
H43_2 C61_2 1_555 1_555
C62_2 N14_2 1_555 1_555
H44_2 C62_2 1_555 1_555
H45_2 C62_2 1_555 1_555
H46_2 C62_2 1_555 1_555
Co7 O14_2 1_555 1_555
Co6 N1_2 1_555 1_555
Co10_2 O15_2 1_555 1_555
N15_2 Co3_2 1_555 1_555
N17_2 Co4_2 1_555 1_555
O19_2 Co3_2 1_555 1_555
O21_2 Co4_2 1_555 1_555
C4_2 C5_2 1_555 1_555
C33_2 C34_2 1_555 1_555
Co4_2 O16_2 1_555 1_555
O13_2 C53_2 1_555 1_555
C49_2 C50_2 1_555 1_555
C51_2 C52_2 1_555 1_555
C56_2 C57_2 1_555 1_555
N6_2 C10_2 1_555 1_555
C9_2 C8_2 1_555 1_555
H5_2 C9_2 1_555 1_555
C10_2 C9_2 1_555 1_555
H6_2 C10_2 1_555 1_555
C11_2 N6_2 1_555 1_555
H7_2 C11_2 1_555 1_555
C12_2 C8_2 1_555 1_555
H8_2 C12_2 1_555 1_555
Co12_2 N6_2 1_555 1_555
C11_2 C12_2 1_555 1_555
Co1_2 O1_2 1_555 1_555
Co2_2 N5_2 1_555 1_555
S2_3 C26_2 1_555 1_555
N3_2 C7_2 1_555 1_555
N5_2 C16_2 1_555 1_555
N7_2 C29_2 1_555 1_555
O1_2 C19_2 1_555 1_555
O2_2 Co1_2 1_555 1_555
O5_2 Co2_2 1_555 1_555
O6_2 Co1_2 1_555 1_555
O7_2 Co1_2 1_555 1_555
O8_2 C28_2 1_555 1_555
O9_2 Co2_2 1_555 1_555
C7_2 N4_2 1_555 1_555
C13_2 N2_2 1_555 1_555
C14_2 C13_2 1_555 1_555
C15_2 C14_2 1_555 1_555
H9_2 C15_2 1_555 1_555
C16_2 C15_2 1_555 1_555
H10_2 C16_2 1_555 1_555
C17_2 N5_2 1_555 1_555
H11_2 C17_2 1_555 1_555
C18_2 C14_2 1_555 1_555
H12_2 C18_2 1_555 1_555
C19_2 O2_2 1_555 1_555
C20_2 C19_2 1_555 1_555
C21_2 C20_2 1_555 1_555
H13_2 C21_2 1_555 1_555
C25_2 O5_2 1_555 1_555
C26_2 C25_2 1_555 1_555
C27_2 C26_2 1_555 1_555
H15_2 C27_2 1_555 1_555
C28_2 O7_2 1_555 1_555
H16_2 C28_2 1_555 1_555
C29_2 O9_2 1_555 1_555
H17_2 C29_2 1_555 1_555
C30_2 N7_2 1_555 1_555
H18_2 C30_2 1_555 1_555
H19_2 C30_2 1_555 1_555
H20_2 C30_2 1_555 1_555
C31_2 N7_2 1_555 1_555
H21_2 C31_2 1_555 1_555
H22_2 C31_2 1_555 1_555
H23_2 C31_2 1_555 1_555
N16_2 Co1_2 1_555 1_555
N18_2 Co2_2 1_555 1_555
O20_2 Co1_2 1_555 1_555
O22_2 Co2_2 1_555 1_555
Co2_2 O7_2 1_555 1_555
N3_2 C13_2 1_555 1_555
O6_2 C25_2 1_555 1_555
C17_2 C18_2 1_555 1_555
O3_2 C24_2 1_555 1_555
O4_2 C24_2 1_555 1_555
H14_2 C22_2 1_555 1_555
C23_2 S1_2 1_555 1_555
C24_2 C23_2 1_555 1_555
N8_2 C35_2 1_555 1_555
C35_2 H25_2 1_555 1_555
C36_2 C35_2 1_555 1_555
H26_2 C36_2 1_555 1_555
C37_2 C36_2 1_555 1_555
C38_2 C37_2 1_555 1_555
H27_2 C38_2 1_555 1_555
C39_2 N8_2 1_555 1_555
H28_2 C39_2 1_555 1_555
C40_2 C37_2 1_555 1_555
Co8 O3_2 1_555 1_555
Co5 N8_2 1_555 1_555
Co12_2 O4_2 1_555 1_555
C22_2 C23_2 1_555 1_555
C38_2 C39_2 1_555 1_555
O19 C24_3 1_555 1_555
O21 C24_3 1_555 1_555
H14_3 C22_3 1_555 1_555
C23_3 S1_3 1_555 1_555
C24_3 C23_3 1_555 1_555
C22_3 C23_3 1_555 1_555
C19_3 O2_3 1_555 1_555
C20_3 C19_3 1_555 1_555
C21_3 C20_3 1_555 1_555
H13_3 C21_3 1_555 1_555
S3_3 C54_3 1_555 1_555
O20 C58_3 1_555 1_555
O22 C58_3 1_555 1_555
C54_3 C53_3 1_555 1_555
C55_3 C54_3 1_555 1_555
H37_3 C55_3 1_555 1_555
C56_3 C55_3 1_555 1_555
H38_3 C56_3 1_555 1_555
C57_3 S3_3 1_555 1_555
C58_3 C57_3 1_555 1_555
O13_3 C53_3 1_555 1_555
C56_3 C57_3 1_555 1_555
N16_2 C35_3 1_555 1_555
N9_2 C40_3 1_555 1_555
N10_2 C41_2 1_555 1_555
N11_2 C40_3 1_555 1_555
N18 C44_3 1_555 1_555
C35_3 H25_3 1_555 1_555
C36_3 C35_3 1_555 1_555
H26_3 C36_3 1_555 1_555
C37_3 C36_3 1_555 1_555
C38_3 C37_3 1_555 1_555
H27_3 C38_3 1_555 1_555
C39_3 N16_2 1_555 1_555
H28_3 C39_3 1_555 1_555
C40_3 C37_3 1_555 1_555
C41_2 N11_2 1_555 1_555
C42_3 C41_2 1_555 1_555
C43_3 C42_3 1_555 1_555
H29_3 C43_3 1_555 1_555
C44_3 C43_3 1_555 1_555
H30_3 C44_3 1_555 1_555
C45_3 N18 1_555 1_555
H31_3 C45_3 1_555 1_555
C46_3 C42_3 1_555 1_555
H32_3 C46_3 1_555 1_555
C47_2 N9_2 1_555 1_555
N10_2 C47_2 1_555 1_555
C38_3 C39_3 1_555 1_555
C45_3 C46_3 1_555 1_555
Co5 O1_3 1_555 1_555
Co10 N5_3 1_555 1_555
S2_4 C26_3 1_555 1_555
N15_2 C1_3 1_555 1_555
N2_3 C6_3 1_555 1_555
N3_3 C7_3 1_555 1_555
N4_3 C6_3 1_555 1_555
N5_3 C16_3 1_555 1_555
N17 C10_3 1_555 1_555
N7_3 C29_3 1_555 1_555
O5_3 Co10 1_555 1_555
O6_3 Co5 1_555 1_555
O7_3 Co5 1_555 1_555
O8_3 C28_3 1_555 1_555
O9_3 Co10 1_555 1_555
C1_3 H1_3 1_555 1_555
C2_3 C1_3 1_555 1_555
H2_3 C2_3 1_555 1_555
C3_3 C2_3 1_555 1_555
C4_3 C3_3 1_555 1_555
H3_3 C4_3 1_555 1_555
C5_3 N15_2 1_555 1_555
H4_3 C5_3 1_555 1_555
C6_3 C3_3 1_555 1_555
C7_3 N4_3 1_555 1_555
C8_3 C7_3 1_555 1_555
C9_3 C8_3 1_555 1_555
H5_3 C9_3 1_555 1_555
C10_3 C9_3 1_555 1_555
H6_3 C10_3 1_555 1_555
C11_3 N17 1_555 1_555
H7_3 C11_3 1_555 1_555
C12_3 C8_3 1_555 1_555
H8_3 C12_3 1_555 1_555
C13_3 N2_3 1_555 1_555
C14_3 C13_3 1_555 1_555
C15_3 C14_3 1_555 1_555
H9_3 C15_3 1_555 1_555
C16_3 C15_3 1_555 1_555
H10_3 C16_3 1_555 1_555
C17_3 N5_3 1_555 1_555
H11_3 C17_3 1_555 1_555
C18_3 C14_3 1_555 1_555
H12_3 C18_3 1_555 1_555
C25_3 O5_3 1_555 1_555
C26_3 C25_3 1_555 1_555
C27_3 C26_3 1_555 1_555
C28_3 O7_3 1_555 1_555
H16_3 C28_3 1_555 1_555
C29_3 O9_3 1_555 1_555
H17_3 C29_3 1_555 1_555
C30_3 N7_3 1_555 1_555
H18_3 C30_3 1_555 1_555
H19_3 C30_3 1_555 1_555
H20_3 C30_3 1_555 1_555
C31_3 N7_3 1_555 1_555
H21_3 C31_3 1_555 1_555
H22_3 C31_3 1_555 1_555
H23_3 C31_3 1_555 1_555
O10_3 C32_3 1_555 1_555
O11_3 C32_3 1_555 1_555
C32_3 C33_3 1_555 1_555
C33_3 S2_4 1_555 1_555
C34_3 C27_3 1_555 1_555
Co6 O11_3 1_555 1_555
Co12 O10_3 1_555 1_555
N12_3 Co12 1_555 1_555
N14_3 C60_3 1_555 1_555
O12_3 Co6 1_555 1_555
O16_3 Co6 1_555 1_555
O17_3 C59_3 1_555 1_555
O18_3 Co12 1_555 1_555
C49_3 C48_3 1_555 1_555
H33_3 C49_3 1_555 1_555
C50_3 N12_3 1_555 1_555
H34_3 C50_3 1_555 1_555
C51_3 N12_3 1_555 1_555
H35_3 C51_3 1_555 1_555
C52_3 C48_3 1_555 1_555
H36_3 C52_3 1_555 1_555
C59_3 O16_3 1_555 1_555
H39_3 C59_3 1_555 1_555
C60_3 O18_3 1_555 1_555
H40_3 C60_3 1_555 1_555
C61_3 N14_3 1_555 1_555
H41_3 C61_3 1_555 1_555
H42_3 C61_3 1_555 1_555
H43_3 C61_3 1_555 1_555
C62_3 N14_3 1_555 1_555
H44_3 C62_3 1_555 1_555
H45_3 C62_3 1_555 1_555
H46_3 C62_3 1_555 1_555
Co10 O7_3 1_555 1_555
N3_3 C13_3 1_555 1_555
O6_3 C25_3 1_555 1_555
C4_3 C5_3 1_555 1_555
C11_3 C12_3 1_555 1_555
C17_3 C18_3 1_555 1_555
C33_3 C34_3 1_555 1_555
Co12 O16_3 1_555 1_555
C49_3 C50_3 1_555 1_555
C51_3 C52_3 1_555 1_555
O19_2 C24_4 1_555 1_555
O21_2 C24_4 1_555 1_555
H14_4 C22_4 1_555 1_555
C23_4 S1_4 1_555 1_555
C24_4 C23_4 1_555 1_555
N16 C35_4 1_555 1_555
C35_4 H25_4 1_555 1_555
C36_4 C35_4 1_555 1_555
H26_4 C36_4 1_555 1_555
C37_4 C36_4 1_555 1_555
C38_4 C37_4 1_555 1_555
H27_4 C38_4 1_555 1_555
C39_4 N16 1_555 1_555
H28_4 C39_4 1_555 1_555
C40_4 C37_4 1_555 1_555
C22_4 C23_4 1_555 1_555
C38_4 C39_4 1_555 1_555
Co7 O1_4 1_555 1_555
Co10_2 N5_4 1_555 1_555
S2_5 C26_4 1_555 1_555
N3_4 C7_4 1_555 1_555
N5_4 C16_4 1_555 1_555
N7_4 C29_4 1_555 1_555
O1_4 C19_4 1_555 1_555
O2_4 Co7 1_555 1_555
O5_4 Co10_2 1_555 1_555
O6_4 Co7 1_555 1_555
O7_4 Co7 1_555 1_555
O8_4 C28_4 1_555 1_555
O9_4 Co10_2 1_555 1_555
C7_4 N4_4 1_555 1_555
C13_4 N2_4 1_555 1_555
C14_4 C13_4 1_555 1_555
C15_4 C14_4 1_555 1_555
H9_4 C15_4 1_555 1_555
C16_4 C15_4 1_555 1_555
H10_4 C16_4 1_555 1_555
C17_4 N5_4 1_555 1_555
H11_4 C17_4 1_555 1_555
C18_4 C14_4 1_555 1_555
H12_4 C18_4 1_555 1_555
C19_4 O2_4 1_555 1_555
C20_4 C19_4 1_555 1_555
C21_4 C20_4 1_555 1_555
H13_4 C21_4 1_555 1_555
C25_4 O5_4 1_555 1_555
C26_4 C25_4 1_555 1_555
C27_4 C26_4 1_555 1_555
H15_4 C27_4 1_555 1_555
C28_4 O7_4 1_555 1_555
H16_4 C28_4 1_555 1_555
C29_4 O9_4 1_555 1_555
H17_4 C29_4 1_555 1_555
C30_4 N7_4 1_555 1_555
H18_4 C30_4 1_555 1_555
H19_4 C30_4 1_555 1_555
H20_4 C30_4 1_555 1_555
C31_4 N7_4 1_555 1_555
H21_4 C31_4 1_555 1_555
H22_4 C31_4 1_555 1_555
H23_4 C31_4 1_555 1_555
Co10_2 O7_4 1_555 1_555
N3_4 C13_4 1_555 1_555
O6_4 C25_4 1_555 1_555
C17_4 C18_4 1_555 1_555
N17_2 C10_4 1_555 1_555
C9_4 C8_4 1_555 1_555
H5_4 C9_4 1_555 1_555
C10_4 C9_4 1_555 1_555
H6_4 C10_4 1_555 1_555
C11_4 N17_2 1_555 1_555
H7_4 C11_4 1_555 1_555
C12_4 C8_4 1_555 1_555
H8_4 C12_4 1_555 1_555
C11_4 C12_4 1_555 1_555
N15 C1_4 1_555 1_555
C1_4 H1_4 1_555 1_555
C2_4 C1_4 1_555 1_555
H2_4 C2_4 1_555 1_555
C3_4 C2_4 1_555 1_555
C4_4 C3_4 1_555 1_555
H3_4 C4_4 1_555 1_555
C5_4 N15 1_555 1_555
H4_4 C5_4 1_555 1_555
C6_4 C3_4 1_555 1_555
O10_4 C32_4 1_555 1_555
O11_4 C32_4 1_555 1_555
C32_4 C33_4 1_555 1_555
C33_4 S2_6 1_555 1_555
H24_4 C34_4 1_555 1_555
Co8 O11_4 1_555 1_555
Co12_2 O10_4 1_555 1_555
S3_4 C54_4 1_555 1_555
N12_4 Co12_2 1_555 1_555
N14_4 C60_4 1_555 1_555
O12_4 Co8 1_555 1_555
O13_4 Co8 1_555 1_555
O20_2 C58_4 1_555 1_555
O22_2 C58_4 1_555 1_555
O16_4 Co8 1_555 1_555
O17_4 C59_4 1_555 1_555
O18_4 Co12_2 1_555 1_555
C49_4 C48_4 1_555 1_555
H33_4 C49_4 1_555 1_555
C50_4 N12_4 1_555 1_555
H34_4 C50_4 1_555 1_555
C51_4 N12_4 1_555 1_555
H35_4 C51_4 1_555 1_555
C52_4 C48_4 1_555 1_555
H36_4 C52_4 1_555 1_555
C53_4 O12_4 1_555 1_555
C54_4 C53_4 1_555 1_555
C55_4 C54_4 1_555 1_555
H37_4 C55_4 1_555 1_555
C56_4 C55_4 1_555 1_555
H38_4 C56_4 1_555 1_555
C57_4 S3_4 1_555 1_555
C58_4 C57_4 1_555 1_555
C59_4 O16_4 1_555 1_555
H39_4 C59_4 1_555 1_555
C60_4 O18_4 1_555 1_555
H40_4 C60_4 1_555 1_555
C61_4 N14_4 1_555 1_555
H41_4 C61_4 1_555 1_555
H42_4 C61_4 1_555 1_555
H43_4 C61_4 1_555 1_555
C62_4 N14_4 1_555 1_555
H44_4 C62_4 1_555 1_555
H45_4 C62_4 1_555 1_555
H46_4 C62_4 1_555 1_555
C4_4 C5_4 1_555 1_555
C33_4 C34_4 1_555 1_555
Co12_2 O16_4 1_555 1_555
O13_4 C53_4 1_555 1_555
C49_4 C50_4 1_555 1_555
C51_4 C52_4 1_555 1_555
C56_4 C57_4 1_555 1_555
N18_2 C44_4 1_555 1_555
C43_4 C42_4 1_555 1_555
H29_4 C43_4 1_555 1_555
C44_4 C43_4 1_555 1_555
H30_4 C44_4 1_555 1_555
C45_4 N18_2 1_555 1_555
H31_4 C45_4 1_555 1_555
C46_4 C42_4 1_555 1_555
H32_4 C46_4 1_555 1_555
C45_4 C46_4 1_555 1_555
N10_3 C41_3 1_555 1_555
C41_3 N11_3 1_555 1_555
C47_3 N9_3 1_555 1_555
N10_3 C47_3 1_555 1_555
N10_4 C41_4 1_555 1_555
C41_4 N11_4 1_555 1_555
C47_4 N9_4 1_555 1_555
N10_4 C47_4 1_555 1_555

#END
