
###############################################################################
#
# This file contains modified crystal structure data generated from the
# MOF subset of the Cambridge Structural Database (CSD) v543 
# hosted by the Cambridge Crystallographic Data Centre (CCDC).
#
# This work is licensed under the Creative Commons
# Attribution-NonCommercial-ShareAlike 4.0 International License.
# To view a copy of this license, visit
# http://creativecommons.org/licenses/by-nc-sa/4.0/
# or send a letter to
# Creative Commons, PO Box 1866, Mountain View, CA 94042, USA.
#
# CIF created using the CSD Python API on 29 September 2022
# The structure has been converted into the P1 space group
# The structure has a 3D framework
# The original CSD entry TETZID is in the monoclinic crystal system
# The framework has been calculated to contain at least 10.0% void space
# The void calculation uses a probe of radius 1.32A, grid spacing 0.4
#
###############################################################################

data_TETZID
_chemical_formula_moiety         '(C192 H128 Cd8 N32 O48 S8)n'
_symmetry_cell_setting           triclinic
_symmetry_space_group_name_H-M   'P 1'
_symmetry_Int_Tables_number      1
_space_group_name_Hall           'P 1'
loop_
_symmetry_equiv_pos_site_id
_symmetry_equiv_pos_as_xyz
1 x,y,z
_cell_length_a                   20.3874(19)
_cell_length_b                   19.5406(17)
_cell_length_c                   14.9256(13)
_cell_angle_alpha                90
_cell_angle_beta                 94.3790(10)
_cell_angle_gamma                90
_cell_volume                     5928.73
loop_
_atom_site_label
_atom_site_type_symbol
_atom_site_fract_x
_atom_site_fract_y
_atom_site_fract_z
N3 N 0.0150(3) 0.5441(3) 0.6354(5)
N4 N 0.2200(2) 0.5459(2) 0.6276(3)
N7 N 0.0083(3) 0.4570(3) 0.8531(4)
N8 N 0.2143(2) 0.4567(3) 0.8477(3)
C14 C 0.1835(3) 0.4913(4) 0.6047(5)
H13 H 0.2053 0.4527 0.5860
C15 C 0.1159(3) 0.4871(4) 0.6065(5)
H14 H 0.0939 0.4468 0.5899
C16 C 0.0824(3) 0.5420(4) 0.6324(6)
C17 C 0.1205(3) 0.5981(4) 0.6581(6)
H15 H 0.0999 0.6369 0.6785
C18 C 0.1868(3) 0.5986(4) 0.6548(6)
H16 H 0.2097 0.6380 0.6727
C32 C 0.1779(4) 0.4051(4) 0.8211(6)
H25 H 0.1982 0.3666 0.7991
C33 C 0.1104(3) 0.4046(4) 0.8237(6)
H26 H 0.0869 0.3659 0.8042
C34 C 0.0771(3) 0.4602(4) 0.8548(6)
C35 C 0.1137(4) 0.5141(4) 0.8778(5)
H27 H 0.0941 0.5538 0.8973
C36 C 0.1821(3) 0.5115(4) 0.8730(5)
H28 H 0.2064 0.5506 0.8886
Cd3 Cd 0.332168(18) 0.547170(18) 0.62666(3)
Cd5 Cd 0.327531(19) 0.453324(19) 0.85672(3)
O7 O 0.3313(2) 0.83205(18) 0.0895(3)
C38 C 0.3337(3) 0.8452(3) 0.0085(4)
Cd4 Cd 0.332168(18) 0.952830(18) 0.12666(3)
O16 O 0.33223(19) 0.40509(17) 0.0074(3)
N1 N 0.6508(2) 0.5190(2) 0.6367(3)
H1 H 0.6632 0.4794 0.6196
N2 N 0.4466(2) 0.5392(2) 0.6372(3)
H2 H 0.9989 0.5833 0.6480
N5 N 0.6464(2) 0.4795(2) 0.8768(3)
H3 H 0.6605 0.5189 0.8955
N6 N 0.4409(2) 0.4594(2) 0.8649(3)
H4 H 0.9900 0.4207 0.8303
O1 O 0.68885(19) 0.6203(2) 0.6936(3)
O2 O 0.9871(2) 0.4363(3) 0.6021(5)
O3 O 0.6794(2) 0.3779(2) 0.8249(3)
O4 O 0.9868(3) 0.5632(4) 0.9081(5)
O5 O 0.3341(2) 0.5757(2) 0.7782(3)
O6 O 0.32570(19) 0.56114(18) 0.9239(3)
O8 O 0.33605(19) 0.90463(17) 0.9789(3)
O9 O 0.3323(2) 0.42217(18) 0.7074(3)
O10 O 0.32700(19) 0.43873(17) 0.5618(3)
O11 O 0.3267(2) 0.16705(17) 0.3943(3)
O12 O 0.33223(19) 0.09491(17) 0.5074(3)
S1 S 0.33024(8) 0.70434(7) 0.97884(10)
S2 S 0.32841(8) 0.29556(7) 0.50513(10)
C1 C 0.6993(3) 0.5663(4) 0.6591(4)
C2 C 0.9709(3) 0.4933(4) 0.6212(5)
C3 C 0.7681(3) 0.5426(3) 0.6434(4)
C4 C 0.7888(3) 0.4764(3) 0.6442(5)
H5 H 0.7591 0.4409 0.6506
C5 C 0.8556(3) 0.4622(4) 0.6352(6)
H6 H 0.8689 0.4167 0.6337
C6 C 0.9007(3) 0.5113(4) 0.6287(6)
C7 C 0.8795(3) 0.5778(4) 0.6233(5)
H7 H 0.9093 0.6125 0.6132
C8 C 0.8126(3) 0.5941(4) 0.6328(6)
H8 H 0.7989 0.6395 0.6319
C9 C 0.4766(3) 0.4816(3) 0.6157(5)
H9 H 0.4506 0.4441 0.5988
C10 C 0.5425(3) 0.4743(3) 0.6170(5)
H10 H 0.5606 0.4323 0.6029
C11 C 0.5830(3) 0.5293(3) 0.6391(3)
C12 C 0.5537(3) 0.5903(3) 0.6593(4)
H11 H 0.5787 0.6290 0.6740
C13 C 0.4860(3) 0.5920(3) 0.6569(5)
H12 H 0.4664 0.6334 0.6702
C19 C 0.6929(3) 0.4336(4) 0.8561(4)
C20 C 0.9676(4) 0.5051(5) 0.8837(5)
C21 C 0.7634(3) 0.4567(4) 0.8716(4)
C22 C 0.8085(4) 0.4057(5) 0.8824(6)
H17 H 0.7948 0.3605 0.8870
C23 C 0.8768(4) 0.4215(5) 0.8868(7)
H18 H 0.9079 0.3866 0.8922
C24 C 0.8967(3) 0.4881(4) 0.8830(5)
C25 C 0.8504(4) 0.5381(4) 0.8801(5)
H19 H 0.8636 0.5836 0.8815
C26 C 0.7832(3) 0.5226(4) 0.8750(5)
H20 H 0.7523 0.5577 0.8739
C27 C 0.4791(3) 0.4067(3) 0.8483(5)
H21 H 0.4584 0.3652 0.8347
C28 C 0.5476(3) 0.4079(3) 0.8495(5)
H22 H 0.5715 0.3691 0.8366
C29 C 0.5787(3) 0.4700(3) 0.8711(4)
C30 C 0.5396(3) 0.5244(3) 0.8904(4)
H23 H 0.5586 0.5665 0.9056
C31 C 0.4732(3) 0.5170(3) 0.8873(5)
H24 H 0.4485 0.5548 0.9020
C37 C 0.3309(2) 0.4010(3) 0.6289(4)
C39 C 0.3344(3) 0.3261(3) 0.6138(3)
C40 C 0.3408(4) 0.2750(3) 0.6737(4)
H29 H 0.3436 0.2818 0.7355
C41 C 0.3427(4) 0.2094(3) 0.6329(4)
H30 H 0.3489 0.1688 0.6650
C42 C 0.3346(3) 0.2126(2) 0.5424(4)
C43 C 0.3310(3) 0.5998(3) 0.8550(4)
C44 C 0.3295(3) 0.1548(3) 0.4762(4)
C45 C 0.3346(3) 0.6734(3) 0.8721(4)
C46 C 0.3416(3) 0.7246(3) 0.8127(4)
H31 H 0.3454 0.7176 0.7517
C47 C 0.3424(3) 0.7903(3) 0.8533(4)
H32 H 0.3462 0.8311 0.8219
C48 C 0.3370(3) 0.7868(2) 0.9421(4)
Cd6 Cd 0.327531(19) 0.046676(19) 0.35672(3)
O13 O 0.3313(2) 0.66795(18) 0.5895(3)
O14 O 0.33605(19) 0.59537(17) 0.4789(3)
O15 O 0.3267(2) 0.33295(17) 0.8943(3)
N7_2 N 0.0083(3) 0.0430(3) 0.3531(4)
N8_2 N 0.2143(2) 0.0433(3) 0.3477(3)
C14_2 C 0.1835(3) 0.0087(4) 0.1047(5)
H13_2 H 0.2053 0.0473 0.0860
C15_2 C 0.1159(3) 0.0129(4) 0.1065(5)
H14_2 H 0.0939 0.0532 0.0899
C32_2 C 0.1779(4) 0.0949(4) 0.3211(6)
H25_2 H 0.1982 0.1334 0.2991
C33_2 C 0.1104(3) 0.0954(4) 0.3237(6)
H26_2 H 0.0869 0.1341 0.3042
C34_2 C 0.0771(3) 0.0398(4) 0.3548(6)
N3_2 N 0.0150(3) 0.9559(3) 0.1354(5)
N4_2 N 0.2200(2) 0.9541(2) 0.1276(3)
C16_2 C 0.0824(3) 0.9580(4) 0.1324(6)
C17_2 C 0.1205(3) 0.9019(4) 0.1581(6)
H15_2 H 0.0999 0.8631 0.1785
C18_2 C 0.1868(3) 0.9014(4) 0.1548(6)
H16_2 H 0.2097 0.8620 0.1727
C35_2 C 0.1137(4) 0.9859(4) 0.3778(5)
H27_2 H 0.0941 0.9462 0.3973
C36_2 C 0.1821(3) 0.9885(4) 0.3730(5)
H28_2 H 0.2064 0.9494 0.3886
H1_2 H 0.6632 0.0206 0.1196
N5_2 N 0.6464(2) 0.0205(2) 0.3768(3)
N6_2 N 0.4409(2) 0.0406(2) 0.3649(3)
H4_2 H 0.9900 0.0793 0.3303
O2_2 O 0.9871(2) 0.0637(3) 0.1021(5)
O3_2 O 0.6794(2) 0.1221(2) 0.3249(3)
O9_2 O 0.3323(2) 0.07783(18) 0.2074(3)
O10_2 O 0.32700(19) 0.06127(17) 0.0618(3)
S2_2 S 0.32841(8) 0.20444(7) 0.00513(10)
C2_2 C 0.9709(3) 0.0067(4) 0.1212(5)
C4_2 C 0.7888(3) 0.0236(3) 0.1442(5)
H5_2 H 0.7591 0.0591 0.1506
C5_2 C 0.8556(3) 0.0378(4) 0.1352(6)
H6_2 H 0.8689 0.0833 0.1337
C9_2 C 0.4766(3) 0.0184(3) 0.1157(5)
H9_2 H 0.4506 0.0559 0.0988
C10_2 C 0.5425(3) 0.0257(3) 0.1170(5)
H10_2 H 0.5606 0.0677 0.1029
C19_2 C 0.6929(3) 0.0664(4) 0.3561(4)
C21_2 C 0.7634(3) 0.0433(4) 0.3716(4)
C22_2 C 0.8085(4) 0.0943(5) 0.3824(6)
H17_2 H 0.7948 0.1395 0.3870
C23_2 C 0.8768(4) 0.0785(5) 0.3868(7)
H18_2 H 0.9079 0.1134 0.3922
C24_2 C 0.8967(3) 0.0119(4) 0.3830(5)
C27_2 C 0.4791(3) 0.0933(3) 0.3483(5)
H21_2 H 0.4584 0.1348 0.3347
C28_2 C 0.5476(3) 0.0921(3) 0.3495(5)
H22_2 H 0.5715 0.1309 0.3366
C29_2 C 0.5787(3) 0.0300(3) 0.3711(4)
C37_2 C 0.3309(2) 0.0990(3) 0.1289(4)
C39_2 C 0.3344(3) 0.1739(3) 0.1138(3)
C40_2 C 0.3408(4) 0.2250(3) 0.1737(4)
H29_2 H 0.3436 0.2182 0.2355
C41_2 C 0.3427(4) 0.2906(3) 0.1329(4)
H30_2 H 0.3489 0.3312 0.1650
C42_2 C 0.3346(3) 0.2874(2) 0.0424(4)
C44_2 C 0.3295(3) 0.3452(3) 0.9762(4)
N1_2 N 0.6508(2) 0.9810(2) 0.1367(3)
N2_2 N 0.4466(2) 0.9608(2) 0.1372(3)
H2_2 H 0.9989 0.9167 0.1480
H3_2 H 0.6605 0.9811 0.3955
O1_2 O 0.68885(19) 0.8797(2) 0.1936(3)
O4_2 O 0.9868(3) 0.9368(4) 0.4081(5)
O5_2 O 0.3341(2) 0.9243(2) 0.2782(3)
O6_2 O 0.32570(19) 0.93886(18) 0.4239(3)
S1_2 S 0.33024(8) 0.79566(7) 0.47884(10)
C1_2 C 0.6993(3) 0.9337(4) 0.1591(4)
C3_2 C 0.7681(3) 0.9574(3) 0.1434(4)
C6_2 C 0.9007(3) 0.9887(4) 0.1287(6)
C7_2 C 0.8795(3) 0.9222(4) 0.1233(5)
H7_2 H 0.9093 0.8875 0.1132
C8_2 C 0.8126(3) 0.9059(4) 0.1328(6)
H8_2 H 0.7989 0.8605 0.1319
C11_2 C 0.5830(3) 0.9707(3) 0.1391(3)
C12_2 C 0.5537(3) 0.9097(3) 0.1593(4)
H11_2 H 0.5787 0.8710 0.1740
C13_2 C 0.4860(3) 0.9080(3) 0.1569(5)
H12_2 H 0.4664 0.8666 0.1702
C20_2 C 0.9676(4) 0.9949(5) 0.3837(5)
C25_2 C 0.8504(4) 0.9619(4) 0.3801(5)
H19_2 H 0.8636 0.9164 0.3815
C26_2 C 0.7832(3) 0.9774(4) 0.3750(5)
H20_2 H 0.7523 0.9423 0.3739
C30_2 C 0.5396(3) 0.9756(3) 0.3904(4)
H23_2 H 0.5586 0.9335 0.4056
C31_2 C 0.4732(3) 0.9830(3) 0.3873(5)
H24_2 H 0.4485 0.9452 0.4020
C38_2 C 0.3337(3) 0.6548(3) 0.5085(4)
C43_2 C 0.3310(3) 0.9002(3) 0.3550(4)
C45_2 C 0.3346(3) 0.8266(3) 0.3721(4)
C46_2 C 0.3416(3) 0.7754(3) 0.3127(4)
H31_2 H 0.3454 0.7824 0.2517
C47_2 C 0.3424(3) 0.7097(3) 0.3533(4)
H32_2 H 0.3462 0.6689 0.3219
C48_2 C 0.3370(3) 0.7132(2) 0.4421(4)
O14_2 O 0.66395(19) 0.09537(17) 0.0211(3)
Cd1 Cd 0.667832(18) 0.047170(18) 0.87334(3)
N1_3 N 0.3492(2) 0.0190(2) 0.8633(3)
N2_3 N 0.5534(2) 0.0392(2) 0.8628(3)
H2_3 H 0.0011 0.0833 0.8520
H3_3 H 0.3395 0.0189 0.6045
O1_3 O 0.31115(19) 0.1203(2) 0.8064(3)
O4_3 O 0.0132(3) 0.0632(4) 0.5919(5)
O5_3 O 0.6659(2) 0.0757(2) 0.7218(3)
O6_3 O 0.67430(19) 0.06114(18) 0.5761(3)
O7_2 O 0.6687(2) 0.33205(18) 0.4105(3)
O8_2 O 0.66395(19) 0.40463(17) 0.5211(3)
S1_3 S 0.66976(8) 0.20434(7) 0.52116(10)
C1_3 C 0.3007(3) 0.0663(4) 0.8409(4)
C3_3 C 0.2319(3) 0.0426(3) 0.8566(4)
C6_3 C 0.0993(3) 0.0113(4) 0.8713(6)
C7_3 C 0.1205(3) 0.0778(4) 0.8767(5)
H7_3 H 0.0907 0.1125 0.8868
C8_3 C 0.1874(3) 0.0941(4) 0.8672(6)
H8_3 H 0.2011 0.1395 0.8681
C11_3 C 0.4170(3) 0.0293(3) 0.8609(3)
C12_3 C 0.4463(3) 0.0903(3) 0.8407(4)
H11_3 H 0.4213 0.1290 0.8260
C13_3 C 0.5140(3) 0.0920(3) 0.8431(5)
H12_3 H 0.5336 0.1334 0.8298
C20_3 C 0.0324(4) 0.0051(5) 0.6163(5)
C25_3 C 0.1496(4) 0.0381(4) 0.6199(5)
H19_3 H 0.1364 0.0836 0.6185
C26_3 C 0.2168(3) 0.0226(4) 0.6250(5)
H20_3 H 0.2477 0.0577 0.6261
C30_3 C 0.4604(3) 0.0244(3) 0.6096(4)
H23_3 H 0.4414 0.0665 0.5944
C31_3 C 0.5268(3) 0.0170(3) 0.6127(5)
H24_3 H 0.5515 0.0548 0.5980
C38_3 C 0.6663(3) 0.3452(3) 0.4915(4)
C43_3 C 0.6690(3) 0.0998(3) 0.6450(4)
C45_3 C 0.6654(3) 0.1734(3) 0.6279(4)
C46_3 C 0.6584(3) 0.2246(3) 0.6873(4)
H31_3 H 0.6546 0.2176 0.7483
C47_3 C 0.6576(3) 0.2903(3) 0.6467(4)
H32_3 H 0.6538 0.3311 0.6781
C48_3 C 0.6630(3) 0.2868(2) 0.5579(4)
Cd4_2 Cd 0.667832(18) 0.452830(18) 0.37334(3)
N9 N 0.7800(2) 0.0459(2) 0.8724(3)
O13_2 O 0.6687(2) 0.16795(18) 0.9105(3)
O11_2 O 0.6733(2) 0.66705(17) 0.1057(3)
C44_3 C 0.6705(3) 0.6548(3) 0.0238(4)
Cd6_2 Cd 0.672469(19) 0.546676(19) 0.14328(3)
Cd2 Cd 0.672469(19) 0.953324(19) 0.64328(3)
H1_3 H 0.3368 0.9794 0.8804
N5_3 N 0.3536(2) 0.9795(2) 0.6232(3)
N6_3 N 0.5591(2) 0.9594(2) 0.6351(3)
H4_3 H 0.0100 0.9207 0.6697
O2_3 O 0.0129(2) 0.9363(3) 0.8979(5)
O3_3 O 0.3206(2) 0.8779(2) 0.6751(3)
O9_3 O 0.6677(2) 0.92217(18) 0.7926(3)
O10_3 O 0.67300(19) 0.93873(17) 0.9382(3)
O12_2 O 0.66777(19) 0.59491(17) 0.9926(3)
S2_3 S 0.67159(8) 0.79556(7) 0.99487(10)
C2_3 C 0.0291(3) 0.9933(4) 0.8788(5)
C4_3 C 0.2112(3) 0.9764(3) 0.8558(5)
H5_3 H 0.2409 0.9409 0.8494
C5_3 C 0.1444(3) 0.9622(4) 0.8648(6)
H6_3 H 0.1311 0.9167 0.8663
C9_3 C 0.5234(3) 0.9816(3) 0.8843(5)
H9_3 H 0.5494 0.9441 0.9012
C10_3 C 0.4575(3) 0.9743(3) 0.8830(5)
H10_3 H 0.4394 0.9323 0.8971
C19_3 C 0.3071(3) 0.9336(4) 0.6439(4)
C21_3 C 0.2366(3) 0.9567(4) 0.6284(4)
C22_3 C 0.1915(4) 0.9057(5) 0.6176(6)
H17_3 H 0.2052 0.8605 0.6130
C23_3 C 0.1232(4) 0.9215(5) 0.6132(7)
H18_3 H 0.0921 0.8866 0.6078
C24_3 C 0.1033(3) 0.9881(4) 0.6170(5)
C27_3 C 0.5209(3) 0.9067(3) 0.6517(5)
H21_3 H 0.5416 0.8652 0.6653
C28_3 C 0.4524(3) 0.9079(3) 0.6505(5)
H22_3 H 0.4285 0.8691 0.6634
C29_3 C 0.4213(3) 0.9700(3) 0.6289(4)
C37_3 C 0.6691(2) 0.9010(3) 0.8711(4)
C39_3 C 0.6656(3) 0.8261(3) 0.8862(3)
C40_3 C 0.6592(4) 0.7750(3) 0.8263(4)
H29_3 H 0.6564 0.7818 0.7645
C41_3 C 0.6573(4) 0.7094(3) 0.8671(4)
H30_3 H 0.6511 0.6688 0.8350
C42_3 C 0.6654(3) 0.7126(2) 0.9576(4)
N10 N 0.7857(2) 0.9567(3) 0.6523(3)
O15_2 O 0.6733(2) 0.83295(17) 0.6057(3)
O16_2 O 0.66777(19) 0.90509(17) 0.4926(3)
N3_3 N 0.9850(3) 0.0441(3) 0.8646(5)
C16_3 C 0.9176(3) 0.0420(4) 0.8676(6)
C17_3 C 0.8795(3) 0.0981(4) 0.8419(6)
H15_3 H 0.9001 0.1369 0.8215
C18_3 C 0.8132(3) 0.0986(4) 0.8452(6)
H16_3 H 0.7903 0.1380 0.8273
C35_3 C 0.8863(4) 0.0141(4) 0.6222(5)
H27_3 H 0.9059 0.0538 0.6027
C36_3 C 0.8179(3) 0.0115(4) 0.6270(5)
H28_3 H 0.7936 0.0506 0.6114
N7_3 N 0.9917(3) 0.9570(3) 0.6469(4)
C14_3 C 0.8165(3) 0.9913(4) 0.8953(5)
H13_3 H 0.7947 0.9527 0.9140
C15_3 C 0.8841(3) 0.9871(4) 0.8935(5)
H14_3 H 0.9061 0.9468 0.9101
C32_3 C 0.8221(4) 0.9051(4) 0.6789(6)
H25_3 H 0.8018 0.8666 0.7009
C33_3 C 0.8896(3) 0.9046(4) 0.6763(6)
H26_3 H 0.9131 0.8659 0.6958
C34_3 C 0.9229(3) 0.9602(4) 0.6452(6)
N1_4 N 0.3492(2) 0.4810(2) 0.3633(3)
H1_4 H 0.3368 0.5206 0.3804
N2_4 N 0.5534(2) 0.4608(2) 0.3628(3)
H2_4 H 0.0011 0.4167 0.3520
N5_4 N 0.3536(2) 0.5205(2) 0.1232(3)
H3_4 H 0.3395 0.4811 0.1045
N6_4 N 0.5591(2) 0.5406(2) 0.1351(3)
H4_4 H 0.0100 0.5793 0.1697
O1_4 O 0.31115(19) 0.3797(2) 0.3064(3)
O2_4 O 0.0129(2) 0.5637(3) 0.3979(5)
O3_4 O 0.3206(2) 0.6221(2) 0.1751(3)
O4_4 O 0.0132(3) 0.4368(4) 0.0919(5)
O5_4 O 0.6659(2) 0.4243(2) 0.2218(3)
O6_4 O 0.67430(19) 0.43886(18) 0.0761(3)
O9_4 O 0.6677(2) 0.57783(18) 0.2926(3)
O10_4 O 0.67300(19) 0.56127(17) 0.4382(3)
S1_4 S 0.66976(8) 0.29566(7) 0.02116(10)
S2_4 S 0.67159(8) 0.70444(7) 0.49487(10)
C1_4 C 0.3007(3) 0.4337(4) 0.3409(4)
C2_4 C 0.0291(3) 0.5067(4) 0.3788(5)
C3_4 C 0.2319(3) 0.4574(3) 0.3566(4)
C4_4 C 0.2112(3) 0.5236(3) 0.3558(5)
H5_4 H 0.2409 0.5591 0.3494
C5_4 C 0.1444(3) 0.5378(4) 0.3648(6)
H6_4 H 0.1311 0.5833 0.3663
C6_4 C 0.0993(3) 0.4887(4) 0.3713(6)
C7_4 C 0.1205(3) 0.4222(4) 0.3767(5)
H7_4 H 0.0907 0.3875 0.3868
C8_4 C 0.1874(3) 0.4059(4) 0.3672(6)
H8_4 H 0.2011 0.3605 0.3681
C9_4 C 0.5234(3) 0.5184(3) 0.3843(5)
H9_4 H 0.5494 0.5559 0.4012
C10_4 C 0.4575(3) 0.5257(3) 0.3830(5)
H10_4 H 0.4394 0.5677 0.3971
C11_4 C 0.4170(3) 0.4707(3) 0.3609(3)
C12_4 C 0.4463(3) 0.4097(3) 0.3407(4)
H11_4 H 0.4213 0.3710 0.3260
C13_4 C 0.5140(3) 0.4080(3) 0.3431(5)
H12_4 H 0.5336 0.3666 0.3298
C19_4 C 0.3071(3) 0.5664(4) 0.1439(4)
C20_4 C 0.0324(4) 0.4949(5) 0.1163(5)
C21_4 C 0.2366(3) 0.5433(4) 0.1284(4)
C22_4 C 0.1915(4) 0.5943(5) 0.1176(6)
H17_4 H 0.2052 0.6395 0.1130
C23_4 C 0.1232(4) 0.5785(5) 0.1132(7)
H18_4 H 0.0921 0.6134 0.1078
C24_4 C 0.1033(3) 0.5119(4) 0.1170(5)
C25_4 C 0.1496(4) 0.4619(4) 0.1199(5)
H19_4 H 0.1364 0.4164 0.1185
C26_4 C 0.2168(3) 0.4774(4) 0.1250(5)
H20_4 H 0.2477 0.4423 0.1261
C27_4 C 0.5209(3) 0.5933(3) 0.1517(5)
H21_4 H 0.5416 0.6348 0.1653
C28_4 C 0.4524(3) 0.5921(3) 0.1505(5)
H22_4 H 0.4285 0.6309 0.1634
C29_4 C 0.4213(3) 0.5300(3) 0.1289(4)
C30_4 C 0.4604(3) 0.4756(3) 0.1096(4)
H23_4 H 0.4414 0.4335 0.0944
C31_4 C 0.5268(3) 0.4830(3) 0.1127(5)
H24_4 H 0.5515 0.4452 0.0980
C37_4 C 0.6691(2) 0.5990(3) 0.3711(4)
C39_4 C 0.6656(3) 0.6739(3) 0.3862(3)
C40_4 C 0.6592(4) 0.7250(3) 0.3263(4)
H29_4 H 0.6564 0.7182 0.2645
C41_4 C 0.6573(4) 0.7906(3) 0.3671(4)
H30_4 H 0.6511 0.8312 0.3350
C42_4 C 0.6654(3) 0.7874(2) 0.4576(4)
C43_4 C 0.6690(3) 0.4002(3) 0.1450(4)
C44_4 C 0.6705(3) 0.8452(3) 0.5238(4)
C45_4 C 0.6654(3) 0.3266(3) 0.1279(4)
C46_4 C 0.6584(3) 0.2754(3) 0.1873(4)
H31_4 H 0.6546 0.2824 0.2483
C47_4 C 0.6576(3) 0.2097(3) 0.1467(4)
H32_4 H 0.6538 0.1689 0.1781
C48_4 C 0.6630(3) 0.2132(2) 0.0579(4)
N9_2 N 0.7800(2) 0.4541(2) 0.3724(3)
N10_2 N 0.7857(2) 0.5433(3) 0.1523(3)
C38_4 C 0.6663(3) 0.1548(3) 0.9915(4)
N3_4 N 0.9850(3) 0.4559(3) 0.3646(5)
N7_4 N 0.9917(3) 0.5430(3) 0.1469(4)
C14_4 C 0.8165(3) 0.5087(4) 0.3953(5)
H13_4 H 0.7947 0.5473 0.4140
C15_4 C 0.8841(3) 0.5129(4) 0.3935(5)
H14_4 H 0.9061 0.5532 0.4101
C16_4 C 0.9176(3) 0.4580(4) 0.3676(6)
C17_4 C 0.8795(3) 0.4019(4) 0.3419(6)
H15_4 H 0.9001 0.3631 0.3215
C18_4 C 0.8132(3) 0.4014(4) 0.3452(6)
H16_4 H 0.7903 0.3620 0.3273
C32_4 C 0.8221(4) 0.5949(4) 0.1789(6)
H25_4 H 0.8018 0.6334 0.2009
C33_4 C 0.8896(3) 0.5954(4) 0.1763(6)
H26_4 H 0.9131 0.6341 0.1958
C34_4 C 0.9229(3) 0.5398(4) 0.1452(6)
C35_4 C 0.8863(4) 0.4859(4) 0.1222(5)
H27_4 H 0.9059 0.4462 0.1027
C36_4 C 0.8179(3) 0.4885(4) 0.1270(5)
H28_4 H 0.7936 0.4494 0.1114
loop_
_geom_bond_atom_site_label_1
_geom_bond_atom_site_label_2
_geom_bond_site_symmetry_1
_geom_bond_site_symmetry_2
N4 C14 1_555 1_555
N8 C32 1_555 1_555
C14 H13 1_555 1_555
C15 C14 1_555 1_555
H14 C15 1_555 1_555
C16 N3 1_555 1_555
C17 C16 1_555 1_555
H15 C17 1_555 1_555
C18 N4 1_555 1_555
H16 C18 1_555 1_555
C32 H25 1_555 1_555
C33 C32 1_555 1_555
H26 C33 1_555 1_555
C34 N7 1_555 1_555
C35 C34 1_555 1_555
H27 C35 1_555 1_555
C36 N8 1_555 1_555
H28 C36 1_555 1_555
Cd3 N4 1_555 1_555
Cd5 N8 1_555 1_555
C15 C16 1_555 1_555
C17 C18 1_555 1_555
C33 C34 1_555 1_555
C35 C36 1_555 1_555
O7 C38 1_555 1_555
Cd4 O7 1_555 1_555
Cd3 N2 1_555 1_555
Cd5 N6 1_555 1_555
N1 H1 1_555 1_555
N2 C9 1_555 1_555
N5 H3 1_555 1_555
N6 C27 1_555 1_555
O1 C1 1_555 1_555
O2 C2 1_555 1_555
O3 C19 1_555 1_555
O4 C20 1_555 1_555
O5 Cd3 1_555 1_555
O6 Cd5 1_555 1_555
O9 Cd5 1_555 1_555
O10 Cd3 1_555 1_555
O11 C44 1_555 1_555
O12 C44 1_555 1_555
S1 C45 1_555 1_555
S2 C39 1_555 1_555
C1 N1 1_555 1_555
C3 C1 1_555 1_555
C4 C3 1_555 1_555
H5 C4 1_555 1_555
C5 C4 1_555 1_555
H6 C5 1_555 1_555
C6 C2 1_555 1_555
C7 C6 1_555 1_555
H7 C7 1_555 1_555
C8 C3 1_555 1_555
H8 C8 1_555 1_555
C9 H9 1_555 1_555
C10 C9 1_555 1_555
H10 C10 1_555 1_555
C11 N1 1_555 1_555
C12 C11 1_555 1_555
H11 C12 1_555 1_555
C13 N2 1_555 1_555
H12 C13 1_555 1_555
C19 N5 1_555 1_555
C21 C19 1_555 1_555
C22 C21 1_555 1_555
H17 C22 1_555 1_555
C23 C22 1_555 1_555
H18 C23 1_555 1_555
C24 C20 1_555 1_555
C25 C24 1_555 1_555
H19 C25 1_555 1_555
C26 C21 1_555 1_555
H20 C26 1_555 1_555
C27 H21 1_555 1_555
C28 C27 1_555 1_555
H22 C28 1_555 1_555
C29 N5 1_555 1_555
C30 C29 1_555 1_555
H23 C30 1_555 1_555
C31 N6 1_555 1_555
H24 C31 1_555 1_555
C37 O9 1_555 1_555
C39 C37 1_555 1_555
C40 C39 1_555 1_555
H29 C40 1_555 1_555
C41 C40 1_555 1_555
H30 C41 1_555 1_555
C42 S2 1_555 1_555
C43 O5 1_555 1_555
C44 C42 1_555 1_555
C45 C43 1_555 1_555
C46 C45 1_555 1_555
H31 C46 1_555 1_555
C47 C46 1_555 1_555
H32 C47 1_555 1_555
C48 S1 1_555 1_555
Cd6 O11 1_555 1_555
O13 Cd3 1_555 1_555
O14 Cd3 1_555 1_555
O15 Cd5 1_555 1_555
O6 C43 1_555 1_555
O10 C37 1_555 1_555
O12 Cd6 1_555 1_555
C5 C6 1_555 1_555
C7 C8 1_555 1_555
C10 C11 1_555 1_555
C12 C13 1_555 1_555
C23 C24 1_555 1_555
C25 C26 1_555 1_555
C28 C29 1_555 1_555
C30 C31 1_555 1_555
C41 C42 1_555 1_555
C47 C48 1_555 1_555
N8_2 C32_2 1_555 1_555
C14_2 H13_2 1_555 1_555
C15_2 C14_2 1_555 1_555
H14_2 C15_2 1_555 1_555
C32_2 H25_2 1_555 1_555
C33_2 C32_2 1_555 1_555
H26_2 C33_2 1_555 1_555
C34_2 N7_2 1_555 1_555
Cd6 N8_2 1_555 1_555
C33_2 C34_2 1_555 1_555
C16_2 N3_2 1_555 1_555
C17_2 C16_2 1_555 1_555
H15_2 C17_2 1_555 1_555
C18_2 N4_2 1_555 1_555
H16_2 C18_2 1_555 1_555
H27_2 C35_2 1_555 1_555
H28_2 C36_2 1_555 1_555
Cd4 N4_2 1_555 1_555
C17_2 C18_2 1_555 1_555
C35_2 C36_2 1_555 1_555
Cd6 N6_2 1_555 1_555
N6_2 C27_2 1_555 1_555
O2_2 C2_2 1_555 1_555
O3_2 C19_2 1_555 1_555
O9_2 Cd6 1_555 1_555
S2_2 C39_2 1_555 1_555
H5_2 C4_2 1_555 1_555
C5_2 C4_2 1_555 1_555
H6_2 C5_2 1_555 1_555
C9_2 H9_2 1_555 1_555
C10_2 C9_2 1_555 1_555
H10_2 C10_2 1_555 1_555
C19_2 N5_2 1_555 1_555
C21_2 C19_2 1_555 1_555
C22_2 C21_2 1_555 1_555
H17_2 C22_2 1_555 1_555
C23_2 C22_2 1_555 1_555
H18_2 C23_2 1_555 1_555
C27_2 H21_2 1_555 1_555
C28_2 C27_2 1_555 1_555
H22_2 C28_2 1_555 1_555
C29_2 N5_2 1_555 1_555
C37_2 O9_2 1_555 1_555
C39_2 C37_2 1_555 1_555
C40_2 C39_2 1_555 1_555
H29_2 C40_2 1_555 1_555
C41_2 C40_2 1_555 1_555
H30_2 C41_2 1_555 1_555
C42_2 S2_2 1_555 1_555
O10_2 C37_2 1_555 1_555
C23_2 C24_2 1_555 1_555
C28_2 C29_2 1_555 1_555
C41_2 C42_2 1_555 1_555
O15 C44_2 1_555 1_555
Cd4 N2_2 1_555 1_555
O1_2 C1_2 1_555 1_555
O4_2 C20_2 1_555 1_555
O5_2 Cd4 1_555 1_555
O13 C38_2 1_555 1_555
O14 C38_2 1_555 1_555
S1_2 C45_2 1_555 1_555
C1_2 N1_2 1_555 1_555
C3_2 C1_2 1_555 1_555
C7_2 C6_2 1_555 1_555
H7_2 C7_2 1_555 1_555
C8_2 C3_2 1_555 1_555
H8_2 C8_2 1_555 1_555
C11_2 N1_2 1_555 1_555
C12_2 C11_2 1_555 1_555
H11_2 C12_2 1_555 1_555
C13_2 N2_2 1_555 1_555
H12_2 C13_2 1_555 1_555
H19_2 C25_2 1_555 1_555
H20_2 C26_2 1_555 1_555
H23_2 C30_2 1_555 1_555
H24_2 C31_2 1_555 1_555
C38_2 C48_2 1_555 1_555
C43_2 O5_2 1_555 1_555
C45_2 C43_2 1_555 1_555
C46_2 C45_2 1_555 1_555
H31_2 C46_2 1_555 1_555
C47_2 C46_2 1_555 1_555
H32_2 C47_2 1_555 1_555
C48_2 S1_2 1_555 1_555
O6_2 C43_2 1_555 1_555
C7_2 C8_2 1_555 1_555
C12_2 C13_2 1_555 1_555
C25_2 C26_2 1_555 1_555
C30_2 C31_2 1_555 1_555
C47_2 C48_2 1_555 1_555
Cd1 N2_3 1_555 1_555
O1_3 C1_3 1_555 1_555
O4_3 C20_3 1_555 1_555
O5_3 Cd1 1_555 1_555
O7_2 C38_3 1_555 1_555
O8_2 C38_3 1_555 1_555
S1_3 C45_3 1_555 1_555
C1_3 N1_3 1_555 1_555
C3_3 C1_3 1_555 1_555
C7_3 C6_3 1_555 1_555
H7_3 C7_3 1_555 1_555
C8_3 C3_3 1_555 1_555
H8_3 C8_3 1_555 1_555
C11_3 N1_3 1_555 1_555
C12_3 C11_3 1_555 1_555
H11_3 C12_3 1_555 1_555
C13_3 N2_3 1_555 1_555
H12_3 C13_3 1_555 1_555
H19_3 C25_3 1_555 1_555
H20_3 C26_3 1_555 1_555
H23_3 C30_3 1_555 1_555
H24_3 C31_3 1_555 1_555
C38_3 C48_3 1_555 1_555
C43_3 O5_3 1_555 1_555
C45_3 C43_3 1_555 1_555
C46_3 C45_3 1_555 1_555
H31_3 C46_3 1_555 1_555
C47_3 C46_3 1_555 1_555
H32_3 C47_3 1_555 1_555
C48_3 S1_3 1_555 1_555
Cd4_2 O7_2 1_555 1_555
N9 Cd1 1_555 1_555
O13_2 Cd1 1_555 1_555
O6_3 C43_3 1_555 1_555
O8_2 Cd4_2 1_555 1_555
C7_3 C8_3 1_555 1_555
C12_3 C13_3 1_555 1_555
C25_3 C26_3 1_555 1_555
C30_3 C31_3 1_555 1_555
C47_3 C48_3 1_555 1_555
O11_2 C44_3 1_555 1_555
Cd6_2 O11_2 1_555 1_555
Cd2 N6_3 1_555 1_555
N6_3 C27_3 1_555 1_555
O2_3 C2_3 1_555 1_555
O3_3 C19_3 1_555 1_555
O9_3 Cd2 1_555 1_555
S2_3 C39_3 1_555 1_555
H5_3 C4_3 1_555 1_555
C5_3 C4_3 1_555 1_555
H6_3 C5_3 1_555 1_555
C9_3 H9_3 1_555 1_555
C10_3 C9_3 1_555 1_555
H10_3 C10_3 1_555 1_555
C19_3 N5_3 1_555 1_555
C21_3 C19_3 1_555 1_555
C22_3 C21_3 1_555 1_555
H17_3 C22_3 1_555 1_555
C23_3 C22_3 1_555 1_555
H18_3 C23_3 1_555 1_555
C27_3 H21_3 1_555 1_555
C28_3 C27_3 1_555 1_555
H22_3 C28_3 1_555 1_555
C29_3 N5_3 1_555 1_555
C37_3 O9_3 1_555 1_555
C39_3 C37_3 1_555 1_555
C40_3 C39_3 1_555 1_555
H29_3 C40_3 1_555 1_555
C41_3 C40_3 1_555 1_555
H30_3 C41_3 1_555 1_555
C42_3 S2_3 1_555 1_555
N10 Cd2 1_555 1_555
O15_2 Cd2 1_555 1_555
O16_2 Cd2 1_555 1_555
O10_3 C37_3 1_555 1_555
C23_3 C24_3 1_555 1_555
C28_3 C29_3 1_555 1_555
C41_3 C42_3 1_555 1_555
C16_3 N3_3 1_555 1_555
C17_3 C16_3 1_555 1_555
H15_3 C17_3 1_555 1_555
C18_3 N9 1_555 1_555
H16_3 C18_3 1_555 1_555
H27_3 C35_3 1_555 1_555
H28_3 C36_3 1_555 1_555
C17_3 C18_3 1_555 1_555
C35_3 C36_3 1_555 1_555
N10 C32_3 1_555 1_555
C14_3 H13_3 1_555 1_555
C15_3 C14_3 1_555 1_555
H14_3 C15_3 1_555 1_555
C32_3 H25_3 1_555 1_555
C33_3 C32_3 1_555 1_555
H26_3 C33_3 1_555 1_555
C34_3 N7_3 1_555 1_555
C33_3 C34_3 1_555 1_555
Cd4_2 N2_4 1_555 1_555
Cd6_2 N6_4 1_555 1_555
N1_4 H1_4 1_555 1_555
N2_4 C9_4 1_555 1_555
N5_4 H3_4 1_555 1_555
N6_4 C27_4 1_555 1_555
O1_4 C1_4 1_555 1_555
O2_4 C2_4 1_555 1_555
O3_4 C19_4 1_555 1_555
O4_4 C20_4 1_555 1_555
O5_4 Cd4_2 1_555 1_555
O6_4 Cd6_2 1_555 1_555
O9_4 Cd6_2 1_555 1_555
O10_4 Cd4_2 1_555 1_555
O15_2 C44_4 1_555 1_555
O16_2 C44_4 1_555 1_555
S1_4 C45_4 1_555 1_555
S2_4 C39_4 1_555 1_555
C1_4 N1_4 1_555 1_555
C3_4 C1_4 1_555 1_555
C4_4 C3_4 1_555 1_555
H5_4 C4_4 1_555 1_555
C5_4 C4_4 1_555 1_555
H6_4 C5_4 1_555 1_555
C6_4 C2_4 1_555 1_555
C7_4 C6_4 1_555 1_555
H7_4 C7_4 1_555 1_555
C8_4 C3_4 1_555 1_555
H8_4 C8_4 1_555 1_555
C9_4 H9_4 1_555 1_555
C10_4 C9_4 1_555 1_555
H10_4 C10_4 1_555 1_555
C11_4 N1_4 1_555 1_555
C12_4 C11_4 1_555 1_555
H11_4 C12_4 1_555 1_555
C13_4 N2_4 1_555 1_555
H12_4 C13_4 1_555 1_555
C19_4 N5_4 1_555 1_555
C21_4 C19_4 1_555 1_555
C22_4 C21_4 1_555 1_555
H17_4 C22_4 1_555 1_555
C23_4 C22_4 1_555 1_555
H18_4 C23_4 1_555 1_555
C24_4 C20_4 1_555 1_555
C25_4 C24_4 1_555 1_555
H19_4 C25_4 1_555 1_555
C26_4 C21_4 1_555 1_555
H20_4 C26_4 1_555 1_555
C27_4 H21_4 1_555 1_555
C28_4 C27_4 1_555 1_555
H22_4 C28_4 1_555 1_555
C29_4 N5_4 1_555 1_555
C30_4 C29_4 1_555 1_555
H23_4 C30_4 1_555 1_555
C31_4 N6_4 1_555 1_555
H24_4 C31_4 1_555 1_555
C37_4 O9_4 1_555 1_555
C39_4 C37_4 1_555 1_555
C40_4 C39_4 1_555 1_555
H29_4 C40_4 1_555 1_555
C41_4 C40_4 1_555 1_555
H30_4 C41_4 1_555 1_555
C42_4 S2_4 1_555 1_555
C43_4 O5_4 1_555 1_555
C44_4 C42_4 1_555 1_555
C45_4 C43_4 1_555 1_555
C46_4 C45_4 1_555 1_555
H31_4 C46_4 1_555 1_555
C47_4 C46_4 1_555 1_555
H32_4 C47_4 1_555 1_555
C48_4 S1_4 1_555 1_555
N9_2 Cd4_2 1_555 1_555
N10_2 Cd6_2 1_555 1_555
O6_4 C43_4 1_555 1_555
O10_4 C37_4 1_555 1_555
C5_4 C6_4 1_555 1_555
C7_4 C8_4 1_555 1_555
C10_4 C11_4 1_555 1_555
C12_4 C13_4 1_555 1_555
C23_4 C24_4 1_555 1_555
C25_4 C26_4 1_555 1_555
C28_4 C29_4 1_555 1_555
C30_4 C31_4 1_555 1_555
C41_4 C42_4 1_555 1_555
C47_4 C48_4 1_555 1_555
O13_2 C38_4 1_555 1_555
N9_2 C14_4 1_555 1_555
N10_2 C32_4 1_555 1_555
C14_4 H13_4 1_555 1_555
C15_4 C14_4 1_555 1_555
H14_4 C15_4 1_555 1_555
C16_4 N3_4 1_555 1_555
C17_4 C16_4 1_555 1_555
H15_4 C17_4 1_555 1_555
C18_4 N9_2 1_555 1_555
H16_4 C18_4 1_555 1_555
C32_4 H25_4 1_555 1_555
C33_4 C32_4 1_555 1_555
H26_4 C33_4 1_555 1_555
C34_4 N7_4 1_555 1_555
C35_4 C34_4 1_555 1_555
H27_4 C35_4 1_555 1_555
C36_4 N10_2 1_555 1_555
H28_4 C36_4 1_555 1_555
C15_4 C16_4 1_555 1_555
C17_4 C18_4 1_555 1_555
C33_4 C34_4 1_555 1_555
C35_4 C36_4 1_555 1_555

#END
