
###############################################################################
#
# This file contains modified crystal structure data generated from the
# MOF subset of the Cambridge Structural Database (CSD) v543 
# hosted by the Cambridge Crystallographic Data Centre (CCDC).
#
# This work is licensed under the Creative Commons
# Attribution-NonCommercial-ShareAlike 4.0 International License.
# To view a copy of this license, visit
# http://creativecommons.org/licenses/by-nc-sa/4.0/
# or send a letter to
# Creative Commons, PO Box 1866, Mountain View, CA 94042, USA.
#
# CIF created using the CSD Python API on 29 September 2022
# The structure has been converted into the P1 space group
# The structure has a 3D framework
# The original CSD entry TEVVEY is in the tetragonal crystal system
# The framework has been calculated to contain at least 10.0% void space
# The void calculation uses a probe of radius 1.32A, grid spacing 0.4
#
###############################################################################

data_TEVVEY
_chemical_formula_moiety         '(C288 H192 N16 Ni10 O24)n'
_symmetry_cell_setting           triclinic
_symmetry_space_group_name_H-M   'P 1'
_symmetry_Int_Tables_number      1
_space_group_name_Hall           'P 1'
loop_
_symmetry_equiv_pos_site_id
_symmetry_equiv_pos_as_xyz
1 x,y,z
_cell_length_a                   22.1745(3)
_cell_length_b                   22.1745(3)
_cell_length_c                   17.5661(7)
_cell_angle_alpha                90
_cell_angle_beta                 90
_cell_angle_gamma                90
_cell_volume                     8637.4
loop_
_atom_site_label
_atom_site_type_symbol
_atom_site_fract_x
_atom_site_fract_y
_atom_site_fract_z
Ni1 Ni 0.5000 0.0000 0.03789(15)
O6 O 0.4587(3) 0.0491(3) 0.1258(3)
O7 O 0.5875(3) 0.0261(3) 0.0706(3)
Ni1_2 Ni 0.5000 1.0000 0.03789(15)
O5 O 0.5413(3) 0.9509(3) 0.1258(3)
O8 O 0.4125(3) 0.9739(3) 0.0706(3)
Ni3 Ni 0.0000 0.0000 0.78789(15)
O1 O 0.0491(3) 0.9587(3) 0.8758(3)
C1 C 0.0110(4) 0.9171(4) 0.8743(5)
C2 C 0.0079(4) 0.8749(4) 0.9416(5)
C7 C 0.0494(5) 0.8780(4) 0.9993(5)
H4 H 0.0820 0.9057 0.9954
O4 O 0.0261(3) 0.0875(3) 0.8206(3)
C21 C 0.0391(4) 0.1680(3) 0.9465(5)
H13 H 0.0675 0.1717 0.9063
Ni3_2 Ni 0.0000 1.0000 0.78789(15)
Ni3_3 Ni 1.0000 0.0000 0.78789(15)
O2 O 0.9739(3) 0.9125(3) 0.8206(3)
C3 C 0.9609(4) 0.8320(3) 0.9465(5)
H1 H 0.9325 0.8283 0.9063
O3 O 0.9509(3) 0.0413(3) 0.8758(3)
C19 C 0.9890(4) 0.0829(4) 0.8743(5)
C20 C 0.9921(4) 0.1251(4) 0.9416(5)
C25 C 0.9506(5) 0.1220(4) 0.9993(5)
H16 H 0.9180 0.0943 0.9954
Ni3_4 Ni 1.0000 1.0000 0.78789(15)
C19_2 C 0.4171(4) 0.0110(4) 0.1243(5)
C20_2 C 0.3749(4) 0.0079(4) 0.1916(5)
C24 C 0.3416(4) 0.0448(5) 0.3134(5)
H15 H 0.3445 0.0738 0.3530
C25_2 C 0.3780(4) 0.0494(5) 0.2493(5)
H16_2 H 0.4057 0.0820 0.2454
C27 C 0.2819(4) 0.0084(5) 0.4607(5)
H17 H 0.3221 0.0222 0.4673
C28 C 0.2446(4) 0.0036(5) 0.5228(5)
H18 H 0.2601 0.0125 0.5720
C33 C 0.1488(4) 0.0287(5) 0.6390(5)
H21 H 0.1800 0.0580 0.6367
C34 C 0.1083(4) 0.0295(4) 0.6991(5)
H22 H 0.1118 0.0601 0.7366
N2 N 0.0647(3) 0.9889(3) 0.7060(4)
C21_2 C 0.3320(3) 0.9609(4) 0.1965(5)
H13_2 H 0.3283 0.9325 0.1563
C22 C 0.2955(4) 0.9563(5) 0.2600(4)
H14 H 0.2665 0.9248 0.2629
C23 C 0.3007(4) 0.9969(4) 0.3193(5)
C26 C 0.2616(4) 0.9932(4) 0.3877(4)
C29 C 0.1857(4) 0.9863(4) 0.5159(4)
C30 C 0.1642(4) 0.9698(5) 0.4436(5)
H19 H 0.1239 0.9558 0.4378
C31 C 0.2011(4) 0.9739(5) 0.3818(5)
H20 H 0.1856 0.9634 0.3332
C32 C 0.1441(4) 0.9857(4) 0.5826(5)
C35 C 0.0605(5) 0.9456(5) 0.6517(5)
H23 H 0.0305 0.9153 0.6567
C36 C 0.0982(4) 0.9439(5) 0.5897(5)
H24 H 0.0928 0.9140 0.5517
N1 N 0.9353(3) 0.0111(3) 0.7060(4)
C3_2 C 0.6680(3) 0.0391(4) 0.1965(5)
H1_2 H 0.6717 0.0675 0.1563
C4 C 0.7045(4) 0.0437(5) 0.2600(4)
H2 H 0.7335 0.0752 0.2629
C5 C 0.6993(4) 0.0031(4) 0.3193(5)
C8 C 0.7384(4) 0.0068(4) 0.3877(4)
C11 C 0.8143(4) 0.0137(4) 0.5159(4)
C12 C 0.8358(4) 0.0302(5) 0.4436(5)
H7 H 0.8761 0.0442 0.4378
C13 C 0.7989(4) 0.0261(5) 0.3818(5)
H8 H 0.8144 0.0366 0.3332
C14 C 0.8559(4) 0.0143(4) 0.5826(5)
C17 C 0.9395(5) 0.0544(5) 0.6517(5)
H11 H 0.9695 0.0847 0.6567
C18 C 0.9018(4) 0.0561(5) 0.5897(5)
H12 H 0.9072 0.0860 0.5517
C1_2 C 0.5829(4) 0.9890(4) 0.1243(5)
C2_2 C 0.6251(4) 0.9921(4) 0.1916(5)
C6 C 0.6584(4) 0.9552(5) 0.3134(5)
H3 H 0.6555 0.9262 0.3530
C7_2 C 0.6220(4) 0.9506(5) 0.2493(5)
H4_2 H 0.5943 0.9180 0.2454
C9 C 0.7181(4) 0.9916(5) 0.4607(5)
H5 H 0.6779 0.9778 0.4673
C10 C 0.7554(4) 0.9964(5) 0.5228(5)
H6 H 0.7399 0.9875 0.5720
C15 C 0.8512(4) 0.9713(5) 0.6390(5)
H9 H 0.8200 0.9420 0.6367
C16 C 0.8917(4) 0.9705(4) 0.6991(5)
H10 H 0.8882 0.9399 0.7366
O1_2 O 0.5491(3) 0.4587(3) 0.3758(3)
N1_2 N 0.4889(3) 0.0647(3) 0.9560(4)
C1_3 C 0.5110(4) 0.4171(4) 0.3743(5)
O2_2 O 0.4739(3) 0.4125(3) 0.3206(3)
C2_3 C 0.5079(4) 0.3749(4) 0.4416(5)
C3_3 C 0.4609(4) 0.3320(3) 0.4465(5)
H1_3 H 0.4325 0.3283 0.4063
C4_2 C 0.4563(5) 0.2955(4) 0.5100(4)
H2_2 H 0.4248 0.2665 0.5129
C5_2 C 0.4969(4) 0.3007(4) 0.5693(5)
C6_2 C 0.5448(5) 0.3416(4) 0.5634(5)
H3_2 H 0.5738 0.3445 0.6030
C7_3 C 0.5494(5) 0.3780(4) 0.4993(5)
H4_3 H 0.5820 0.4057 0.4954
C8_2 C 0.4932(4) 0.2616(4) 0.6377(4)
C9_2 C 0.5084(5) 0.2819(4) 0.7107(5)
H5_2 H 0.5222 0.3221 0.7173
C10_2 C 0.5036(5) 0.2446(4) 0.7728(5)
H6_2 H 0.5125 0.2601 0.8220
C11_2 C 0.4863(4) 0.1857(4) 0.7659(4)
C12_2 C 0.4698(5) 0.1642(4) 0.6936(5)
H7_2 H 0.4558 0.1239 0.6878
C13_2 C 0.4739(5) 0.2011(4) 0.6318(5)
H8_2 H 0.4634 0.1856 0.5832
C14_2 C 0.4857(4) 0.1441(4) 0.8326(5)
C15_2 C 0.5287(5) 0.1488(4) 0.8890(5)
H9_2 H 0.5580 0.1800 0.8867
C16_2 C 0.5295(4) 0.1083(4) 0.9491(5)
H10_2 H 0.5601 0.1118 0.9866
C17_2 C 0.4456(5) 0.0605(5) 0.9017(5)
H11_2 H 0.4153 0.0305 0.9067
C18_2 C 0.4439(5) 0.0982(4) 0.8397(5)
H12_2 H 0.4140 0.0928 0.8017
Ni3_5 Ni 0.5000 0.5000 0.28789(15)
O3_2 O 0.4509(3) 0.5413(3) 0.3758(3)
N2_2 N 0.5111(3) 0.9353(3) 0.9560(4)
C19_3 C 0.4890(4) 0.5829(4) 0.3743(5)
O4_2 O 0.5261(3) 0.5875(3) 0.3206(3)
C20_3 C 0.4921(4) 0.6251(4) 0.4416(5)
C21_3 C 0.5391(4) 0.6680(3) 0.4465(5)
H13_3 H 0.5675 0.6717 0.4063
C22_2 C 0.5437(5) 0.7045(4) 0.5100(4)
H14_2 H 0.5752 0.7335 0.5129
C23_2 C 0.5031(4) 0.6993(4) 0.5693(5)
C24_2 C 0.4552(5) 0.6584(4) 0.5634(5)
H15_2 H 0.4262 0.6555 0.6030
C25_3 C 0.4506(5) 0.6220(4) 0.4993(5)
H16_3 H 0.4180 0.5943 0.4954
C26_2 C 0.5068(4) 0.7384(4) 0.6377(4)
C27_2 C 0.4916(5) 0.7181(4) 0.7107(5)
H17_2 H 0.4778 0.6779 0.7173
C28_2 C 0.4964(5) 0.7554(4) 0.7728(5)
H18_2 H 0.4875 0.7399 0.8220
C29_2 C 0.5137(4) 0.8143(4) 0.7659(4)
C30_2 C 0.5302(5) 0.8358(4) 0.6936(5)
H19_2 H 0.5442 0.8761 0.6878
C31_2 C 0.5261(5) 0.7989(4) 0.6318(5)
H20_2 H 0.5366 0.8144 0.5832
C32_2 C 0.5143(4) 0.8559(4) 0.8326(5)
C33_2 C 0.4713(5) 0.8512(4) 0.8890(5)
H21_2 H 0.4420 0.8200 0.8867
C34_2 C 0.4705(4) 0.8917(4) 0.9491(5)
H22_2 H 0.4399 0.8882 0.9866
C35_2 C 0.5544(5) 0.9395(5) 0.9017(5)
H23_2 H 0.5847 0.9695 0.9067
C36_2 C 0.5561(5) 0.9018(4) 0.8397(5)
H24_2 H 0.5860 0.9072 0.8017
N1_3 N 0.4353(3) 0.5111(3) 0.2060(4)
C10_3 C 0.2554(4) 0.4964(5) 0.0228(5)
H6_3 H 0.2399 0.4875 0.0720
C11_3 C 0.3143(4) 0.5137(4) 0.0159(4)
C14_3 C 0.3559(4) 0.5143(4) 0.0826(5)
C15_3 C 0.3512(4) 0.4713(5) 0.1390(5)
H9_3 H 0.3200 0.4420 0.1367
C16_3 C 0.3917(4) 0.4705(4) 0.1991(5)
H10_3 H 0.3882 0.4399 0.2366
C17_3 C 0.4395(5) 0.5544(5) 0.1517(5)
H11_3 H 0.4695 0.5847 0.1567
C18_3 C 0.4018(4) 0.5561(5) 0.0897(5)
H12_3 H 0.4072 0.5860 0.0517
N2_3 N 0.5647(3) 0.4889(3) 0.2060(4)
C28_3 C 0.7446(4) 0.5036(5) 0.0228(5)
H18_3 H 0.7601 0.5125 0.0720
C29_3 C 0.6857(4) 0.4863(4) 0.0159(4)
C32_3 C 0.6441(4) 0.4857(4) 0.0826(5)
C33_3 C 0.6488(4) 0.5287(5) 0.1390(5)
H21_3 H 0.6800 0.5580 0.1367
C34_3 C 0.6083(4) 0.5295(4) 0.1991(5)
H22_3 H 0.6118 0.5601 0.2366
C35_3 C 0.5605(5) 0.4456(5) 0.1517(5)
H23_3 H 0.5305 0.4153 0.1567
C36_3 C 0.5982(4) 0.4439(5) 0.0897(5)
H24_3 H 0.5928 0.4140 0.0517
Ni1_3 Ni 0.0000 0.0000 0.28789(15)
N2_4 N 0.0647(3) 0.0111(3) 0.2060(4)
C29_4 C 0.1857(4) 0.0137(4) 0.0159(4)
C32_4 C 0.1441(4) 0.0143(4) 0.0826(5)
C35_4 C 0.0605(5) 0.0544(5) 0.1517(5)
H23_4 H 0.0305 0.0847 0.1567
C36_4 C 0.0982(4) 0.0561(5) 0.0897(5)
H24_4 H 0.0928 0.0860 0.0517
O5_2 O 0.0491(3) 0.0413(3) 0.3758(3)
Ni1_4 Ni 0.0000 1.0000 0.28789(15)
C28_4 C 0.2446(4) 0.9964(5) 0.0228(5)
H18_4 H 0.2601 0.9875 0.0720
C33_4 C 0.1488(4) 0.9713(5) 0.1390(5)
H21_4 H 0.1800 0.9420 0.1367
C34_4 C 0.1083(4) 0.9705(4) 0.1991(5)
H22_4 H 0.1118 0.9399 0.2366
O8_2 O 0.0261(3) 0.9125(3) 0.3206(3)
N1_4 N 0.0111(3) 0.5647(3) 0.9560(4)
C3_4 C 0.0391(4) 0.8320(3) 0.4465(5)
H1_4 H 0.0675 0.8283 0.4063
C4_3 C 0.0437(5) 0.7955(4) 0.5100(4)
H2_3 H 0.0752 0.7665 0.5129
C5_3 C 0.0031(4) 0.8007(4) 0.5693(5)
C8_3 C 0.0068(4) 0.7616(4) 0.6377(4)
C11_4 C 0.0137(4) 0.6857(4) 0.7659(4)
C12_3 C 0.0302(5) 0.6642(4) 0.6936(5)
H7_3 H 0.0442 0.6239 0.6878
C13_3 C 0.0261(5) 0.7011(4) 0.6318(5)
H8_3 H 0.0366 0.6856 0.5832
C14_4 C 0.0143(4) 0.6441(4) 0.8326(5)
C17_4 C 0.0544(5) 0.5605(5) 0.9017(5)
H11_4 H 0.0847 0.5305 0.9067
C18_4 C 0.0561(5) 0.5982(4) 0.8397(5)
H12_4 H 0.0860 0.5928 0.8017
C19_4 C 0.0110(4) 0.0829(4) 0.3743(5)
C20_4 C 0.0079(4) 0.1251(4) 0.4416(5)
C24_3 C 0.0448(5) 0.1584(4) 0.5634(5)
H15_3 H 0.0738 0.1555 0.6030
C25_4 C 0.0494(5) 0.1220(4) 0.4993(5)
H16_4 H 0.0820 0.0943 0.4954
C27_3 C 0.0084(5) 0.2181(4) 0.7107(5)
H17_3 H 0.0222 0.1779 0.7173
C28_5 C 0.0036(5) 0.2554(4) 0.7728(5)
H18_5 H 0.0125 0.2399 0.8220
C33_5 C 0.0287(5) 0.3512(4) 0.8890(5)
H21_5 H 0.0580 0.3200 0.8867
C34_5 C 0.0295(4) 0.3917(4) 0.9491(5)
H22_5 H 0.0601 0.3882 0.9866
O4_3 O 0.4125(3) 0.0261(3) 0.5706(3)
C21_4 C 0.3320(3) 0.0391(4) 0.6965(5)
H13_4 H 0.3283 0.0675 0.6563
C22_3 C 0.2955(4) 0.0437(5) 0.7600(4)
H14_3 H 0.2665 0.0752 0.7629
C23_3 C 0.3007(4) 0.0031(4) 0.8193(5)
C26_3 C 0.2616(4) 0.0068(4) 0.8877(4)
C30_3 C 0.1642(4) 0.0302(5) 0.9436(5)
H19_3 H 0.1239 0.0442 0.9378
C31_3 C 0.2011(4) 0.0261(5) 0.8818(5)
H20_3 H 0.1856 0.0366 0.8332
Ni2 Ni 0.5000 0.0000 0.53789(15)
O1_3 O 0.5413(3) 0.0491(3) 0.6258(3)
C1_4 C 0.5829(4) 0.0110(4) 0.6243(5)
C2_4 C 0.6251(4) 0.0079(4) 0.6916(5)
C6_3 C 0.6584(4) 0.0448(5) 0.8134(5)
H3_3 H 0.6555 0.0738 0.8530
C7_4 C 0.6220(4) 0.0494(5) 0.7493(5)
H4_4 H 0.5943 0.0820 0.7454
C9_3 C 0.7181(4) 0.0084(5) 0.9607(5)
H5_3 H 0.6779 0.0222 0.9673
N1_5 N 0.5111(3) 0.0647(3) 0.4560(4)
C4_4 C 0.5437(5) 0.2955(4) 0.0100(4)
H2_4 H 0.5752 0.2665 0.0129
C5_4 C 0.5031(4) 0.3007(4) 0.0693(5)
C6_4 C 0.4552(5) 0.3416(4) 0.0634(5)
H3_4 H 0.4262 0.3445 0.1030
C8_4 C 0.5068(4) 0.2616(4) 0.1377(4)
C9_4 C 0.4916(5) 0.2819(4) 0.2107(5)
H5_4 H 0.4778 0.3221 0.2173
C10_4 C 0.4964(5) 0.2446(4) 0.2728(5)
H6_4 H 0.4875 0.2601 0.3220
C11_5 C 0.5137(4) 0.1857(4) 0.2659(4)
C12_4 C 0.5302(5) 0.1642(4) 0.1936(5)
H7_4 H 0.5442 0.1239 0.1878
C13_4 C 0.5261(5) 0.2011(4) 0.1318(5)
H8_4 H 0.5366 0.1856 0.0832
C14_5 C 0.5143(4) 0.1441(4) 0.3326(5)
C15_4 C 0.4713(5) 0.1488(4) 0.3890(5)
H9_4 H 0.4420 0.1800 0.3867
C16_4 C 0.4705(4) 0.1083(4) 0.4491(5)
H10_4 H 0.4399 0.1118 0.4866
C17_5 C 0.5544(5) 0.0605(5) 0.4017(5)
H11_5 H 0.5847 0.0305 0.4067
C18_5 C 0.5561(5) 0.0982(4) 0.3397(5)
H12_5 H 0.5860 0.0928 0.3017
O3_3 O 0.4587(3) 0.9509(3) 0.6258(3)
C19_5 C 0.4171(4) 0.9890(4) 0.6243(5)
C20_5 C 0.3749(4) 0.9921(4) 0.6916(5)
C24_4 C 0.3416(4) 0.9552(5) 0.8134(5)
H15_4 H 0.3445 0.9262 0.8530
C25_5 C 0.3780(4) 0.9506(5) 0.7493(5)
H16_5 H 0.4057 0.9180 0.7454
C27_4 C 0.2819(4) 0.9916(5) 0.9607(5)
H17_4 H 0.3221 0.9778 0.9673
Ni2_2 Ni 0.5000 1.0000 0.53789(15)
O2_3 O 0.5875(3) 0.9739(3) 0.5706(3)
C3_5 C 0.6680(3) 0.9609(4) 0.6965(5)
H1_5 H 0.6717 0.9325 0.6563
C4_5 C 0.7045(4) 0.9563(5) 0.7600(4)
H2_5 H 0.7335 0.9248 0.7629
C5_5 C 0.6993(4) 0.9969(4) 0.8193(5)
C8_5 C 0.7384(4) 0.9932(4) 0.8877(4)
C12_5 C 0.8358(4) 0.9698(5) 0.9436(5)
H7_5 H 0.8761 0.9558 0.9378
C13_5 C 0.7989(4) 0.9739(5) 0.8818(5)
H8_5 H 0.8144 0.9634 0.8332
N2_5 N 0.4889(3) 0.9353(3) 0.4560(4)
C22_4 C 0.4563(5) 0.7045(4) 0.0100(4)
H14_4 H 0.4248 0.7335 0.0129
C23_4 C 0.4969(4) 0.6993(4) 0.0693(5)
C24_5 C 0.5448(5) 0.6584(4) 0.0634(5)
H15_5 H 0.5738 0.6555 0.1030
C26_4 C 0.4932(4) 0.7384(4) 0.1377(4)
C27_5 C 0.5084(5) 0.7181(4) 0.2107(5)
H17_5 H 0.5222 0.6779 0.2173
C28_6 C 0.5036(5) 0.7554(4) 0.2728(5)
H18_6 H 0.5125 0.7399 0.3220
C29_5 C 0.4863(4) 0.8143(4) 0.2659(4)
C30_4 C 0.4698(5) 0.8358(4) 0.1936(5)
H19_4 H 0.4558 0.8761 0.1878
C31_4 C 0.4739(5) 0.7989(4) 0.1318(5)
H20_4 H 0.4634 0.8144 0.0832
C32_5 C 0.4857(4) 0.8559(4) 0.3326(5)
C33_6 C 0.5287(5) 0.8512(4) 0.3890(5)
H21_6 H 0.5580 0.8200 0.3867
C34_6 C 0.5295(4) 0.8917(4) 0.4491(5)
H22_6 H 0.5601 0.8882 0.4866
C35_5 C 0.4456(5) 0.9395(5) 0.4017(5)
H23_5 H 0.4153 0.9695 0.4067
C36_5 C 0.4439(5) 0.9018(4) 0.3397(5)
H24_5 H 0.4140 0.9072 0.3017
Ni1_5 Ni 1.0000 0.0000 0.28789(15)
C10_5 C 0.7554(4) 0.0036(5) 0.0228(5)
H6_5 H 0.7399 0.0125 0.0720
C15_5 C 0.8512(4) 0.0287(5) 0.1390(5)
H9_5 H 0.8200 0.0580 0.1367
C16_5 C 0.8917(4) 0.0295(4) 0.1991(5)
H10_5 H 0.8882 0.0601 0.2366
O7_2 O 0.9739(3) 0.0875(3) 0.3206(3)
Ni1_6 Ni 1.0000 1.0000 0.28789(15)
N1_6 N 0.9353(3) 0.9889(3) 0.2060(4)
C11_6 C 0.8143(4) 0.9863(4) 0.0159(4)
C14_6 C 0.8559(4) 0.9857(4) 0.0826(5)
C17_6 C 0.9395(5) 0.9456(5) 0.1517(5)
H11_6 H 0.9695 0.9153 0.1567
C18_6 C 0.9018(4) 0.9439(5) 0.0897(5)
H12_6 H 0.9072 0.9140 0.0517
O6_2 O 0.9509(3) 0.9587(3) 0.3758(3)
C1_5 C 0.9890(4) 0.9171(4) 0.3743(5)
C2_5 C 0.9921(4) 0.8749(4) 0.4416(5)
C6_5 C 0.9552(5) 0.8416(4) 0.5634(5)
H3_5 H 0.9262 0.8445 0.6030
C7_5 C 0.9506(5) 0.8780(4) 0.4993(5)
H4_5 H 0.9180 0.9057 0.4954
C9_5 C 0.9916(5) 0.7819(4) 0.7107(5)
H5_5 H 0.9778 0.8221 0.7173
C10_6 C 0.9964(5) 0.7446(4) 0.7728(5)
H6_6 H 0.9875 0.7601 0.8220
C15_6 C 0.9713(5) 0.6488(4) 0.8890(5)
H9_6 H 0.9420 0.6800 0.8867
C16_6 C 0.9705(4) 0.6083(4) 0.9491(5)
H10_6 H 0.9399 0.6118 0.9866
N2_6 N 0.9889(3) 0.4353(3) 0.9560(4)
C21_5 C 0.9609(4) 0.1680(3) 0.4465(5)
H13_5 H 0.9325 0.1717 0.4063
C22_5 C 0.9563(5) 0.2045(4) 0.5100(4)
H14_5 H 0.9248 0.2335 0.5129
C23_5 C 0.9969(4) 0.1993(4) 0.5693(5)
C26_5 C 0.9932(4) 0.2384(4) 0.6377(4)
C29_6 C 0.9863(4) 0.3143(4) 0.7659(4)
C30_5 C 0.9698(5) 0.3358(4) 0.6936(5)
H19_5 H 0.9558 0.3761 0.6878
C31_5 C 0.9739(5) 0.2989(4) 0.6318(5)
H20_5 H 0.9634 0.3144 0.5832
C32_6 C 0.9857(4) 0.3559(4) 0.8326(5)
C35_6 C 0.9456(5) 0.4395(5) 0.9017(5)
H23_6 H 0.9153 0.4695 0.9067
C36_6 C 0.9439(5) 0.4018(4) 0.8397(5)
H24_6 H 0.9140 0.4072 0.8017
O1_4 O 0.4509(3) 0.4587(3) 0.8758(3)
C1_6 C 0.4890(4) 0.4171(4) 0.8743(5)
O2_4 O 0.5261(3) 0.4125(3) 0.8206(3)
C2_6 C 0.4921(4) 0.3749(4) 0.9416(5)
C3_6 C 0.5391(4) 0.3320(3) 0.9465(5)
H1_6 H 0.5675 0.3283 0.9063
C7_6 C 0.4506(5) 0.3780(4) 0.9993(5)
H4_6 H 0.4180 0.4057 0.9954
Ni3_6 Ni 0.5000 0.5000 0.78789(15)
O3_4 O 0.5491(3) 0.5413(3) 0.8758(3)
C19_6 C 0.5110(4) 0.5829(4) 0.8743(5)
O4_4 O 0.4739(3) 0.5875(3) 0.8206(3)
C20_6 C 0.5079(4) 0.6251(4) 0.9416(5)
C21_6 C 0.4609(4) 0.6680(3) 0.9465(5)
H13_6 H 0.4325 0.6717 0.9063
C25_6 C 0.5494(5) 0.6220(4) 0.9993(5)
H16_6 H 0.5820 0.5943 0.9954
Ni2_3 Ni -0.0000 0.5000 0.03789(15)
O1_5 O 0.0413(3) 0.5491(3) 0.1258(3)
N1_7 N 0.4353(3) 0.4889(3) 0.7060(4)
C1_7 C 0.0829(4) 0.5110(4) 0.1243(5)
O2_5 O 0.0875(3) 0.4739(3) 0.0706(3)
C2_7 C 0.1251(4) 0.5079(4) 0.1916(5)
C3_7 C 0.1680(3) 0.4609(4) 0.1965(5)
H1_7 H 0.1717 0.4325 0.1563
C4_6 C 0.2045(4) 0.4563(5) 0.2600(4)
H2_6 H 0.2335 0.4248 0.2629
C5_6 C 0.1993(4) 0.4969(4) 0.3193(5)
C6_6 C 0.1584(4) 0.5448(5) 0.3134(5)
H3_6 H 0.1555 0.5738 0.3530
C7_7 C 0.1220(4) 0.5494(5) 0.2493(5)
H4_7 H 0.0943 0.5820 0.2454
C8_6 C 0.2384(4) 0.4932(4) 0.3877(4)
C9_6 C 0.2181(4) 0.5084(5) 0.4607(5)
H5_6 H 0.1779 0.5222 0.4673
C10_7 C 0.2554(4) 0.5036(5) 0.5228(5)
H6_7 H 0.2399 0.5125 0.5720
C11_7 C 0.3143(4) 0.4863(4) 0.5159(4)
C12_6 C 0.3358(4) 0.4698(5) 0.4436(5)
H7_6 H 0.3761 0.4558 0.4378
C13_6 C 0.2989(4) 0.4739(5) 0.3818(5)
H8_6 H 0.3144 0.4634 0.3332
C14_7 C 0.3559(4) 0.4857(4) 0.5826(5)
C15_7 C 0.3512(4) 0.5287(5) 0.6390(5)
H9_7 H 0.3200 0.5580 0.6367
C16_7 C 0.3917(4) 0.5295(4) 0.6991(5)
H10_7 H 0.3882 0.5601 0.7366
C17_7 C 0.4395(5) 0.4456(5) 0.6517(5)
H11_7 H 0.4695 0.4153 0.6567
C18_7 C 0.4018(4) 0.4439(5) 0.5897(5)
H12_7 H 0.4072 0.4140 0.5517
O3_5 O 0.9587(3) 0.4509(3) 0.1258(3)
N2_7 N 0.5647(3) 0.5111(3) 0.7060(4)
C19_7 C 0.9171(4) 0.4890(4) 0.1243(5)
O4_5 O 0.9125(3) 0.5261(3) 0.0706(3)
C20_7 C 0.8749(4) 0.4921(4) 0.1916(5)
C21_7 C 0.8320(3) 0.5391(4) 0.1965(5)
H13_7 H 0.8283 0.5675 0.1563
C22_6 C 0.7955(4) 0.5437(5) 0.2600(4)
H14_6 H 0.7665 0.5752 0.2629
C23_6 C 0.8007(4) 0.5031(4) 0.3193(5)
C24_6 C 0.8416(4) 0.4552(5) 0.3134(5)
H15_6 H 0.8445 0.4262 0.3530
C25_7 C 0.8780(4) 0.4506(5) 0.2493(5)
H16_7 H 0.9057 0.4180 0.2454
C26_6 C 0.7616(4) 0.5068(4) 0.3877(4)
C27_6 C 0.7819(4) 0.4916(5) 0.4607(5)
H17_6 H 0.8221 0.4778 0.4673
C28_7 C 0.7446(4) 0.4964(5) 0.5228(5)
H18_7 H 0.7601 0.4875 0.5720
C29_7 C 0.6857(4) 0.5137(4) 0.5159(4)
C30_6 C 0.6642(4) 0.5302(5) 0.4436(5)
H19_6 H 0.6239 0.5442 0.4378
C31_6 C 0.7011(4) 0.5261(5) 0.3818(5)
H20_6 H 0.6856 0.5366 0.3332
C32_7 C 0.6441(4) 0.5143(4) 0.5826(5)
C33_7 C 0.6488(4) 0.4713(5) 0.6390(5)
H21_7 H 0.6800 0.4420 0.6367
C34_7 C 0.6083(4) 0.4705(4) 0.6991(5)
H22_7 H 0.6118 0.4399 0.7366
C35_7 C 0.5605(5) 0.5544(5) 0.6517(5)
H23_7 H 0.5305 0.5847 0.6567
C36_7 C 0.5982(4) 0.5561(5) 0.5897(5)
H24_7 H 0.5928 0.5860 0.5517
Ni2_4 Ni 1.0000 0.5000 0.03789(15)
Ni2_5 Ni -0.0000 0.5000 0.53789(15)
O1_6 O 0.0413(3) 0.4509(3) 0.6258(3)
C1_8 C 0.0829(4) 0.4890(4) 0.6243(5)
O2_6 O 0.0875(3) 0.5261(3) 0.5706(3)
C2_8 C 0.1251(4) 0.4921(4) 0.6916(5)
C3_8 C 0.1680(3) 0.5391(4) 0.6965(5)
H1_8 H 0.1717 0.5675 0.6563
C4_7 C 0.2045(4) 0.5437(5) 0.7600(4)
H2_7 H 0.2335 0.5752 0.7629
C5_7 C 0.1993(4) 0.5031(4) 0.8193(5)
C6_7 C 0.1584(4) 0.4552(5) 0.8134(5)
H3_7 H 0.1555 0.4262 0.8530
C7_8 C 0.1220(4) 0.4506(5) 0.7493(5)
H4_8 H 0.0943 0.4180 0.7454
C8_7 C 0.2384(4) 0.5068(4) 0.8877(4)
C9_7 C 0.2181(4) 0.4916(5) 0.9607(5)
H5_7 H 0.1779 0.4778 0.9673
C12_7 C 0.3358(4) 0.5302(5) 0.9436(5)
H7_7 H 0.3761 0.5442 0.9378
C13_7 C 0.2989(4) 0.5261(5) 0.8818(5)
H8_7 H 0.3144 0.5366 0.8332
O3_6 O 0.9587(3) 0.5491(3) 0.6258(3)
C19_8 C 0.9171(4) 0.5110(4) 0.6243(5)
O4_6 O 0.9125(3) 0.4739(3) 0.5706(3)
C20_8 C 0.8749(4) 0.5079(4) 0.6916(5)
C21_8 C 0.8320(3) 0.4609(4) 0.6965(5)
H13_8 H 0.8283 0.4325 0.6563
C22_7 C 0.7955(4) 0.4563(5) 0.7600(4)
H14_7 H 0.7665 0.4248 0.7629
C23_7 C 0.8007(4) 0.4969(4) 0.8193(5)
C24_7 C 0.8416(4) 0.5448(5) 0.8134(5)
H15_7 H 0.8445 0.5738 0.8530
C25_8 C 0.8780(4) 0.5494(5) 0.7493(5)
H16_8 H 0.9057 0.5820 0.7454
C26_7 C 0.7616(4) 0.4932(4) 0.8877(4)
C27_7 C 0.7819(4) 0.5084(5) 0.9607(5)
H17_7 H 0.8221 0.5222 0.9673
C30_7 C 0.6642(4) 0.4698(5) 0.9436(5)
H19_7 H 0.6239 0.4558 0.9378
C31_7 C 0.7011(4) 0.4739(5) 0.8818(5)
H20_7 H 0.6856 0.4634 0.8332
Ni2_6 Ni 1.0000 0.5000 0.53789(15)
C6_8 C 0.0448(5) 0.8416(4) 0.0634(5)
H3_8 H 0.0738 0.8445 0.1030
C9_8 C 0.0084(5) 0.7819(4) 0.2107(5)
H5_8 H 0.0222 0.8221 0.2173
C10_8 C 0.0036(5) 0.7446(4) 0.2728(5)
H6_8 H 0.0125 0.7601 0.3220
C15_8 C 0.0287(5) 0.6488(4) 0.3890(5)
H9_8 H 0.0580 0.6800 0.3867
C16_8 C 0.0295(4) 0.6083(4) 0.4491(5)
H10_8 H 0.0601 0.6118 0.4866
N2_8 N 0.0111(3) 0.4353(3) 0.4560(4)
C22_8 C 0.0437(5) 0.2045(4) 0.0100(4)
H14_8 H 0.0752 0.2335 0.0129
C23_8 C 0.0031(4) 0.1993(4) 0.0693(5)
C26_8 C 0.0068(4) 0.2384(4) 0.1377(4)
C29_8 C 0.0137(4) 0.3143(4) 0.2659(4)
C30_8 C 0.0302(5) 0.3358(4) 0.1936(5)
H19_8 H 0.0442 0.3761 0.1878
C31_8 C 0.0261(5) 0.2989(4) 0.1318(5)
H20_8 H 0.0366 0.3144 0.0832
C32_8 C 0.0143(4) 0.3559(4) 0.3326(5)
C35_8 C 0.0544(5) 0.4395(5) 0.4017(5)
H23_8 H 0.0847 0.4695 0.4067
C36_8 C 0.0561(5) 0.4018(4) 0.3397(5)
H24_8 H 0.0860 0.4072 0.3017
N1_8 N 0.9889(3) 0.5647(3) 0.4560(4)
C4_8 C 0.9563(5) 0.7955(4) 0.0100(4)
H2_8 H 0.9248 0.7665 0.0129
C5_8 C 0.9969(4) 0.8007(4) 0.0693(5)
C8_8 C 0.9932(4) 0.7616(4) 0.1377(4)
C11_8 C 0.9863(4) 0.6857(4) 0.2659(4)
C12_8 C 0.9698(5) 0.6642(4) 0.1936(5)
H7_8 H 0.9558 0.6239 0.1878
C13_8 C 0.9739(5) 0.7011(4) 0.1318(5)
H8_8 H 0.9634 0.6856 0.0832
C14_8 C 0.9857(4) 0.6441(4) 0.3326(5)
C17_8 C 0.9456(5) 0.5605(5) 0.4017(5)
H11_8 H 0.9153 0.5305 0.4067
C18_8 C 0.9439(5) 0.5982(4) 0.3397(5)
H12_8 H 0.9140 0.5928 0.3017
C24_8 C 0.9552(5) 0.1584(4) 0.0634(5)
H15_8 H 0.9262 0.1555 0.1030
C27_8 C 0.9916(5) 0.2181(4) 0.2107(5)
H17_8 H 0.9778 0.1779 0.2173
C28_8 C 0.9964(5) 0.2554(4) 0.2728(5)
H18_8 H 0.9875 0.2399 0.3220
C33_8 C 0.9713(5) 0.3512(4) 0.3890(5)
H21_8 H 0.9420 0.3200 0.3867
C34_8 C 0.9705(4) 0.3917(4) 0.4491(5)
H22_8 H 0.9399 0.3882 0.4866
loop_
_geom_bond_atom_site_label_1
_geom_bond_atom_site_label_2
_geom_bond_site_symmetry_1
_geom_bond_site_symmetry_2
O6 Ni1 1_555 1_555
O7 Ni1 1_555 1_555
O5 Ni1_2 1_555 1_555
O8 Ni1_2 1_555 1_555
O1 C1 1_555 1_555
C2 C1 1_555 1_555
C7 C2 1_555 1_555
H4 C7 1_555 1_555
O4 Ni3 1_555 1_555
H13 C21 1_555 1_555
Ni3_2 O1 1_555 1_555
O2 Ni3_4 1_555 1_555
H1 C3 1_555 1_555
O3 C19 1_555 1_555
C20 C19 1_555 1_555
C25 C20 1_555 1_555
H16 C25 1_555 1_555
Ni3_3 O3 1_555 1_555
O6 C19_2 1_555 1_555
C20_2 C19_2 1_555 1_555
H15 C24 1_555 1_555
C25_2 C20_2 1_555 1_555
H16_2 C25_2 1_555 1_555
H17 C27 1_555 1_555
C28 C27 1_555 1_555
H18 C28 1_555 1_555
H21 C33 1_555 1_555
H22 C34 1_555 1_555
C24 C25_2 1_555 1_555
C33 C34 1_555 1_555
N2 Ni3_2 1_555 1_555
H13_2 C21_2 1_555 1_555
C22 C21_2 1_555 1_555
H14 C22 1_555 1_555
C23 C22 1_555 1_555
C26 C23 1_555 1_555
C30 C29 1_555 1_555
H19 C30 1_555 1_555
C31 C26 1_555 1_555
H20 C31 1_555 1_555
C32 C29 1_555 1_555
C35 N2 1_555 1_555
H23 C35 1_555 1_555
C36 C32 1_555 1_555
H24 C36 1_555 1_555
C30 C31 1_555 1_555
C35 C36 1_555 1_555
Ni3_3 N1 1_555 1_555
H1_2 C3_2 1_555 1_555
C4 C3_2 1_555 1_555
H2 C4 1_555 1_555
C5 C4 1_555 1_555
C8 C5 1_555 1_555
C12 C11 1_555 1_555
H7 C12 1_555 1_555
C13 C8 1_555 1_555
H8 C13 1_555 1_555
C14 C11 1_555 1_555
C17 N1 1_555 1_555
H11 C17 1_555 1_555
C18 C14 1_555 1_555
H12 C18 1_555 1_555
C12 C13 1_555 1_555
C17 C18 1_555 1_555
O5 C1_2 1_555 1_555
C2_2 C1_2 1_555 1_555
H3 C6 1_555 1_555
C7_2 C2_2 1_555 1_555
H4_2 C7_2 1_555 1_555
H5 C9 1_555 1_555
C10 C9 1_555 1_555
H6 C10 1_555 1_555
H9 C15 1_555 1_555
C16 C15 1_555 1_555
H10 C16 1_555 1_555
C6 C7_2 1_555 1_555
O1_2 C1_3 1_555 1_555
N1_2 C16_2 1_555 1_555
C1_3 O2_2 1_555 1_555
O2_2 Ni3_5 1_555 1_555
C2_3 C1_3 1_555 1_555
C3_3 C2_3 1_555 1_555
H1_3 C3_3 1_555 1_555
C4_2 C3_3 1_555 1_555
H2_2 C4_2 1_555 1_555
C5_2 C4_2 1_555 1_555
C6_2 C5_2 1_555 1_555
H3_2 C6_2 1_555 1_555
C7_3 C2_3 1_555 1_555
H4_3 C7_3 1_555 1_555
C8_2 C5_2 1_555 1_555
C9_2 C8_2 1_555 1_555
H5_2 C9_2 1_555 1_555
C10_2 C9_2 1_555 1_555
H6_2 C10_2 1_555 1_555
C11_2 C10_2 1_555 1_555
C12_2 C11_2 1_555 1_555
H7_2 C12_2 1_555 1_555
C13_2 C8_2 1_555 1_555
H8_2 C13_2 1_555 1_555
C14_2 C11_2 1_555 1_555
C15_2 C14_2 1_555 1_555
H9_2 C15_2 1_555 1_555
C16_2 C15_2 1_555 1_555
H10_2 C16_2 1_555 1_555
C17_2 N1_2 1_555 1_555
H11_2 C17_2 1_555 1_555
C18_2 C14_2 1_555 1_555
H12_2 C18_2 1_555 1_555
Ni3_5 O1_2 1_555 1_555
C6_2 C7_3 1_555 1_555
C12_2 C13_2 1_555 1_555
C17_2 C18_2 1_555 1_555
O3_2 C19_3 1_555 1_555
C19_3 O4_2 1_555 1_555
O4_2 Ni3_5 1_555 1_555
C20_3 C19_3 1_555 1_555
C21_3 C20_3 1_555 1_555
H13_3 C21_3 1_555 1_555
C22_2 C21_3 1_555 1_555
H14_2 C22_2 1_555 1_555
C23_2 C22_2 1_555 1_555
C24_2 C23_2 1_555 1_555
H15_2 C24_2 1_555 1_555
C25_3 C20_3 1_555 1_555
H16_3 C25_3 1_555 1_555
C26_2 C23_2 1_555 1_555
C27_2 C26_2 1_555 1_555
H17_2 C27_2 1_555 1_555
C28_2 C27_2 1_555 1_555
H18_2 C28_2 1_555 1_555
C29_2 C28_2 1_555 1_555
C30_2 C29_2 1_555 1_555
H19_2 C30_2 1_555 1_555
C31_2 C26_2 1_555 1_555
H20_2 C31_2 1_555 1_555
C32_2 C29_2 1_555 1_555
C33_2 C32_2 1_555 1_555
H21_2 C33_2 1_555 1_555
C34_2 N2_2 1_555 1_555
H22_2 C34_2 1_555 1_555
C35_2 N2_2 1_555 1_555
H23_2 C35_2 1_555 1_555
C36_2 C32_2 1_555 1_555
H24_2 C36_2 1_555 1_555
Ni3_5 O3_2 1_555 1_555
C24_2 C25_3 1_555 1_555
C30_2 C31_2 1_555 1_555
C33_2 C34_2 1_555 1_555
C35_2 C36_2 1_555 1_555
Ni3_5 N1_3 1_555 1_555
N1_3 C16_3 1_555 1_555
H6_3 C10_3 1_555 1_555
C11_3 C10_3 1_555 1_555
C14_3 C11_3 1_555 1_555
C15_3 C14_3 1_555 1_555
H9_3 C15_3 1_555 1_555
C16_3 C15_3 1_555 1_555
H10_3 C16_3 1_555 1_555
C17_3 N1_3 1_555 1_555
H11_3 C17_3 1_555 1_555
C18_3 C14_3 1_555 1_555
H12_3 C18_3 1_555 1_555
N2_3 Ni3_5 1_555 1_555
H18_3 C28_3 1_555 1_555
C29_3 C28_3 1_555 1_555
C32_3 C29_3 1_555 1_555
C33_3 C32_3 1_555 1_555
H21_3 C33_3 1_555 1_555
C34_3 N2_3 1_555 1_555
H22_3 C34_3 1_555 1_555
C35_3 N2_3 1_555 1_555
H23_3 C35_3 1_555 1_555
C36_3 C32_3 1_555 1_555
H24_3 C36_3 1_555 1_555
C17_3 C18_3 1_555 1_555
C33_3 C34_3 1_555 1_555
C35_3 C36_3 1_555 1_555
N2_4 Ni1_3 1_555 1_555
C32_4 C29_4 1_555 1_555
C35_4 N2_4 1_555 1_555
H23_4 C35_4 1_555 1_555
C36_4 C32_4 1_555 1_555
H24_4 C36_4 1_555 1_555
O5_2 Ni1_3 1_555 1_555
C35_4 C36_4 1_555 1_555
H18_4 C28_4 1_555 1_555
H21_4 C33_4 1_555 1_555
H22_4 C34_4 1_555 1_555
O8_2 Ni1_4 1_555 1_555
C33_4 C34_4 1_555 1_555
H1_4 C3_4 1_555 1_555
C4_3 C3_4 1_555 1_555
H2_3 C4_3 1_555 1_555
C5_3 C4_3 1_555 1_555
C8_3 C5_3 1_555 1_555
C12_3 C11_4 1_555 1_555
H7_3 C12_3 1_555 1_555
C13_3 C8_3 1_555 1_555
H8_3 C13_3 1_555 1_555
C14_4 C11_4 1_555 1_555
C17_4 N1_4 1_555 1_555
H11_4 C17_4 1_555 1_555
C18_4 C14_4 1_555 1_555
H12_4 C18_4 1_555 1_555
O5_2 C19_4 1_555 1_555
C20_4 C19_4 1_555 1_555
H15_3 C24_3 1_555 1_555
C25_4 C20_4 1_555 1_555
H16_4 C25_4 1_555 1_555
H17_3 C27_3 1_555 1_555
C28_5 C27_3 1_555 1_555
H18_5 C28_5 1_555 1_555
H21_5 C33_5 1_555 1_555
H22_5 C34_5 1_555 1_555
C12_3 C13_3 1_555 1_555
C17_4 C18_4 1_555 1_555
C24_3 C25_4 1_555 1_555
C33_5 C34_5 1_555 1_555
O4_3 Ni2 1_555 1_555
H13_4 C21_4 1_555 1_555
C22_3 C21_4 1_555 1_555
H14_3 C22_3 1_555 1_555
C23_3 C22_3 1_555 1_555
C26_3 C23_3 1_555 1_555
H19_3 C30_3 1_555 1_555
C31_3 C26_3 1_555 1_555
H20_3 C31_3 1_555 1_555
C30_3 C31_3 1_555 1_555
O1_3 C1_4 1_555 1_555
C2_4 C1_4 1_555 1_555
H3_3 C6_3 1_555 1_555
C7_4 C2_4 1_555 1_555
H4_4 C7_4 1_555 1_555
H5_3 C9_3 1_555 1_555
Ni2 O1_3 1_555 1_555
C6_3 C7_4 1_555 1_555
Ni2 N1_5 1_555 1_555
N1_5 C16_4 1_555 1_555
H2_4 C4_4 1_555 1_555
C5_4 C4_4 1_555 1_555
C6_4 C5_4 1_555 1_555
H3_4 C6_4 1_555 1_555
C8_4 C5_4 1_555 1_555
C9_4 C8_4 1_555 1_555
H5_4 C9_4 1_555 1_555
C10_4 C9_4 1_555 1_555
H6_4 C10_4 1_555 1_555
C11_5 C10_4 1_555 1_555
C12_4 C11_5 1_555 1_555
H7_4 C12_4 1_555 1_555
C13_4 C8_4 1_555 1_555
H8_4 C13_4 1_555 1_555
C14_5 C11_5 1_555 1_555
C15_4 C14_5 1_555 1_555
H9_4 C15_4 1_555 1_555
C16_4 C15_4 1_555 1_555
H10_4 C16_4 1_555 1_555
C17_5 N1_5 1_555 1_555
H11_5 C17_5 1_555 1_555
C18_5 C14_5 1_555 1_555
H12_5 C18_5 1_555 1_555
C12_4 C13_4 1_555 1_555
C17_5 C18_5 1_555 1_555
O3_3 C19_5 1_555 1_555
C20_5 C19_5 1_555 1_555
H15_4 C24_4 1_555 1_555
C25_5 C20_5 1_555 1_555
H16_5 C25_5 1_555 1_555
H17_4 C27_4 1_555 1_555
Ni2_2 O3_3 1_555 1_555
C24_4 C25_5 1_555 1_555
O2_3 Ni2_2 1_555 1_555
H1_5 C3_5 1_555 1_555
C4_5 C3_5 1_555 1_555
H2_5 C4_5 1_555 1_555
C5_5 C4_5 1_555 1_555
C8_5 C5_5 1_555 1_555
H7_5 C12_5 1_555 1_555
C13_5 C8_5 1_555 1_555
H8_5 C13_5 1_555 1_555
C12_5 C13_5 1_555 1_555
N2_5 Ni2_2 1_555 1_555
H14_4 C22_4 1_555 1_555
C23_4 C22_4 1_555 1_555
C24_5 C23_4 1_555 1_555
H15_5 C24_5 1_555 1_555
C26_4 C23_4 1_555 1_555
C27_5 C26_4 1_555 1_555
H17_5 C27_5 1_555 1_555
C28_6 C27_5 1_555 1_555
H18_6 C28_6 1_555 1_555
C29_5 C28_6 1_555 1_555
C30_4 C29_5 1_555 1_555
H19_4 C30_4 1_555 1_555
C31_4 C26_4 1_555 1_555
H20_4 C31_4 1_555 1_555
C32_5 C29_5 1_555 1_555
C33_6 C32_5 1_555 1_555
H21_6 C33_6 1_555 1_555
C34_6 N2_5 1_555 1_555
H22_6 C34_6 1_555 1_555
C35_5 N2_5 1_555 1_555
H23_5 C35_5 1_555 1_555
C36_5 C32_5 1_555 1_555
H24_5 C36_5 1_555 1_555
C30_4 C31_4 1_555 1_555
C33_6 C34_6 1_555 1_555
C35_5 C36_5 1_555 1_555
H6_5 C10_5 1_555 1_555
H9_5 C15_5 1_555 1_555
C16_5 C15_5 1_555 1_555
H10_5 C16_5 1_555 1_555
O7_2 Ni1_5 1_555 1_555
Ni1_6 N1_6 1_555 1_555
C14_6 C11_6 1_555 1_555
C17_6 N1_6 1_555 1_555
H11_6 C17_6 1_555 1_555
C18_6 C14_6 1_555 1_555
H12_6 C18_6 1_555 1_555
O6_2 Ni1_6 1_555 1_555
C17_6 C18_6 1_555 1_555
O6_2 C1_5 1_555 1_555
C2_5 C1_5 1_555 1_555
H3_5 C6_5 1_555 1_555
C7_5 C2_5 1_555 1_555
H4_5 C7_5 1_555 1_555
H5_5 C9_5 1_555 1_555
C10_6 C9_5 1_555 1_555
H6_6 C10_6 1_555 1_555
H9_6 C15_6 1_555 1_555
C16_6 C15_6 1_555 1_555
H10_6 C16_6 1_555 1_555
H13_5 C21_5 1_555 1_555
C22_5 C21_5 1_555 1_555
H14_5 C22_5 1_555 1_555
C23_5 C22_5 1_555 1_555
C26_5 C23_5 1_555 1_555
C30_5 C29_6 1_555 1_555
H19_5 C30_5 1_555 1_555
C31_5 C26_5 1_555 1_555
H20_5 C31_5 1_555 1_555
C32_6 C29_6 1_555 1_555
C35_6 N2_6 1_555 1_555
H23_6 C35_6 1_555 1_555
C36_6 C32_6 1_555 1_555
H24_6 C36_6 1_555 1_555
C6_5 C7_5 1_555 1_555
C30_5 C31_5 1_555 1_555
C35_6 C36_6 1_555 1_555
O1_4 C1_6 1_555 1_555
C1_6 O2_4 1_555 1_555
O2_4 Ni3_6 1_555 1_555
C2_6 C1_6 1_555 1_555
C3_6 C2_6 1_555 1_555
H1_6 C3_6 1_555 1_555
C7_6 C2_6 1_555 1_555
H4_6 C7_6 1_555 1_555
Ni3_6 O1_4 1_555 1_555
O3_4 C19_6 1_555 1_555
C19_6 O4_4 1_555 1_555
O4_4 Ni3_6 1_555 1_555
C20_6 C19_6 1_555 1_555
C21_6 C20_6 1_555 1_555
H13_6 C21_6 1_555 1_555
C25_6 C20_6 1_555 1_555
H16_6 C25_6 1_555 1_555
Ni3_6 O3_4 1_555 1_555
Ni3_6 N1_7 1_555 1_555
O1_5 C1_7 1_555 1_555
N1_7 C16_7 1_555 1_555
C1_7 O2_5 1_555 1_555
O2_5 Ni2_3 1_555 1_555
C2_7 C1_7 1_555 1_555
C3_7 C2_7 1_555 1_555
H1_7 C3_7 1_555 1_555
C4_6 C3_7 1_555 1_555
H2_6 C4_6 1_555 1_555
C5_6 C4_6 1_555 1_555
C6_6 C5_6 1_555 1_555
H3_6 C6_6 1_555 1_555
C7_7 C2_7 1_555 1_555
H4_7 C7_7 1_555 1_555
C8_6 C5_6 1_555 1_555
C9_6 C8_6 1_555 1_555
H5_6 C9_6 1_555 1_555
C10_7 C9_6 1_555 1_555
H6_7 C10_7 1_555 1_555
C11_7 C10_7 1_555 1_555
C12_6 C11_7 1_555 1_555
H7_6 C12_6 1_555 1_555
C13_6 C8_6 1_555 1_555
H8_6 C13_6 1_555 1_555
C14_7 C11_7 1_555 1_555
C15_7 C14_7 1_555 1_555
H9_7 C15_7 1_555 1_555
C16_7 C15_7 1_555 1_555
H10_7 C16_7 1_555 1_555
C17_7 N1_7 1_555 1_555
H11_7 C17_7 1_555 1_555
C18_7 C14_7 1_555 1_555
H12_7 C18_7 1_555 1_555
O3_5 C19_7 1_555 1_555
N2_7 Ni3_6 1_555 1_555
C19_7 O4_5 1_555 1_555
O4_5 Ni2_4 1_555 1_555
C20_7 C19_7 1_555 1_555
C21_7 C20_7 1_555 1_555
H13_7 C21_7 1_555 1_555
C22_6 C21_7 1_555 1_555
H14_6 C22_6 1_555 1_555
C23_6 C22_6 1_555 1_555
C24_6 C23_6 1_555 1_555
H15_6 C24_6 1_555 1_555
C25_7 C20_7 1_555 1_555
H16_7 C25_7 1_555 1_555
C26_6 C23_6 1_555 1_555
C27_6 C26_6 1_555 1_555
H17_6 C27_6 1_555 1_555
C28_7 C27_6 1_555 1_555
H18_7 C28_7 1_555 1_555
C29_7 C28_7 1_555 1_555
C30_6 C29_7 1_555 1_555
H19_6 C30_6 1_555 1_555
C31_6 C26_6 1_555 1_555
H20_6 C31_6 1_555 1_555
C32_7 C29_7 1_555 1_555
C33_7 C32_7 1_555 1_555
H21_7 C33_7 1_555 1_555
C34_7 N2_7 1_555 1_555
H22_7 C34_7 1_555 1_555
C35_7 N2_7 1_555 1_555
H23_7 C35_7 1_555 1_555
C36_7 C32_7 1_555 1_555
H24_7 C36_7 1_555 1_555
Ni2_4 O3_5 1_555 1_555
Ni2_3 O1_5 1_555 1_555
C6_6 C7_7 1_555 1_555
C12_6 C13_6 1_555 1_555
C17_7 C18_7 1_555 1_555
C24_6 C25_7 1_555 1_555
C30_6 C31_6 1_555 1_555
C33_7 C34_7 1_555 1_555
C35_7 C36_7 1_555 1_555
O1_6 C1_8 1_555 1_555
C1_8 O2_6 1_555 1_555
O2_6 Ni2_5 1_555 1_555
C2_8 C1_8 1_555 1_555
C3_8 C2_8 1_555 1_555
H1_8 C3_8 1_555 1_555
C4_7 C3_8 1_555 1_555
H2_7 C4_7 1_555 1_555
C5_7 C4_7 1_555 1_555
C6_7 C5_7 1_555 1_555
H3_7 C6_7 1_555 1_555
C7_8 C2_8 1_555 1_555
H4_8 C7_8 1_555 1_555
C8_7 C5_7 1_555 1_555
C9_7 C8_7 1_555 1_555
H5_7 C9_7 1_555 1_555
H7_7 C12_7 1_555 1_555
C13_7 C8_7 1_555 1_555
H8_7 C13_7 1_555 1_555
O3_6 C19_8 1_555 1_555
C19_8 O4_6 1_555 1_555
O4_6 Ni2_6 1_555 1_555
C20_8 C19_8 1_555 1_555
C21_8 C20_8 1_555 1_555
H13_8 C21_8 1_555 1_555
C22_7 C21_8 1_555 1_555
H14_7 C22_7 1_555 1_555
C23_7 C22_7 1_555 1_555
C24_7 C23_7 1_555 1_555
H15_7 C24_7 1_555 1_555
C25_8 C20_8 1_555 1_555
H16_8 C25_8 1_555 1_555
C26_7 C23_7 1_555 1_555
C27_7 C26_7 1_555 1_555
H17_7 C27_7 1_555 1_555
H19_7 C30_7 1_555 1_555
C31_7 C26_7 1_555 1_555
H20_7 C31_7 1_555 1_555
Ni2_6 O3_6 1_555 1_555
Ni2_5 O1_6 1_555 1_555
C6_7 C7_8 1_555 1_555
C12_7 C13_7 1_555 1_555
C24_7 C25_8 1_555 1_555
C30_7 C31_7 1_555 1_555
H3_8 C6_8 1_555 1_555
H5_8 C9_8 1_555 1_555
C10_8 C9_8 1_555 1_555
H6_8 C10_8 1_555 1_555
H9_8 C15_8 1_555 1_555
C16_8 C15_8 1_555 1_555
H10_8 C16_8 1_555 1_555
N2_8 Ni2_5 1_555 1_555
H14_8 C22_8 1_555 1_555
C23_8 C22_8 1_555 1_555
C26_8 C23_8 1_555 1_555
C30_8 C29_8 1_555 1_555
H19_8 C30_8 1_555 1_555
C31_8 C26_8 1_555 1_555
H20_8 C31_8 1_555 1_555
C32_8 C29_8 1_555 1_555
C35_8 N2_8 1_555 1_555
H23_8 C35_8 1_555 1_555
C36_8 C32_8 1_555 1_555
H24_8 C36_8 1_555 1_555
C30_8 C31_8 1_555 1_555
C35_8 C36_8 1_555 1_555
Ni2_6 N1_8 1_555 1_555
H2_8 C4_8 1_555 1_555
C5_8 C4_8 1_555 1_555
C8_8 C5_8 1_555 1_555
C12_8 C11_8 1_555 1_555
H7_8 C12_8 1_555 1_555
C13_8 C8_8 1_555 1_555
H8_8 C13_8 1_555 1_555
C14_8 C11_8 1_555 1_555
C17_8 N1_8 1_555 1_555
H11_8 C17_8 1_555 1_555
C18_8 C14_8 1_555 1_555
H12_8 C18_8 1_555 1_555
H15_8 C24_8 1_555 1_555
H17_8 C27_8 1_555 1_555
C28_8 C27_8 1_555 1_555
H18_8 C28_8 1_555 1_555
H21_8 C33_8 1_555 1_555
H22_8 C34_8 1_555 1_555
C12_8 C13_8 1_555 1_555
C17_8 C18_8 1_555 1_555
C33_8 C34_8 1_555 1_555

#END
