
###############################################################################
#
# This file contains modified crystal structure data generated from the
# MOF subset of the Cambridge Structural Database (CSD) v543 
# hosted by the Cambridge Crystallographic Data Centre (CCDC).
#
# This work is licensed under the Creative Commons
# Attribution-NonCommercial-ShareAlike 4.0 International License.
# To view a copy of this license, visit
# http://creativecommons.org/licenses/by-nc-sa/4.0/
# or send a letter to
# Creative Commons, PO Box 1866, Mountain View, CA 94042, USA.
#
# CIF created using the CSD Python API on 29 September 2022
# The structure has been converted into the P1 space group
# The structure has a 3D framework
# The original CSD entry TEVVIC is in the tetragonal crystal system
# The framework has been calculated to contain at least 10.0% void space
# The void calculation uses a probe of radius 1.32A, grid spacing 0.4
#
###############################################################################

data_TEVVIC
_chemical_formula_moiety         '(C288 H192 N16 Ni14 O24)n'
_symmetry_cell_setting           triclinic
_symmetry_space_group_name_H-M   'P 1'
_symmetry_Int_Tables_number      1
_space_group_name_Hall           'P 1'
loop_
_symmetry_equiv_pos_site_id
_symmetry_equiv_pos_as_xyz
1 x,y,z
_cell_length_a                   19.953(2)
_cell_length_b                   19.953(2)
_cell_length_c                   18.691(3)
_cell_angle_alpha                90
_cell_angle_beta                 90
_cell_angle_gamma                90
_cell_volume                     7441.3
loop_
_atom_site_label
_atom_site_type_symbol
_atom_site_fract_x
_atom_site_fract_y
_atom_site_fract_z
Ni3 Ni 0.5000 -0.0000 0.89068(12)
Ni1 Ni 0.5000 0.5000 0.14068(12)
N1 N 0.5140(3) 0.5696(2) 0.2191(3)
O1 O 0.53363(18) 0.90262(19) 0.8587(2)
O2 O 0.4456(2) 0.95108(18) 0.8107(2)
C1 C 0.4891(3) 0.9053(3) 0.8088(4)
C2 C 0.4918(3) 0.8589(3) 0.7466(3)
C3 C 0.4409(3) 0.8621(3) 0.6958(3)
H1 H 0.4038 0.8909 0.7039
C4 C 0.4445(3) 0.8247(3) 0.6345(4)
H2 H 0.4084 0.8271 0.6014
C5 C 0.4987(4) 0.7836(3) 0.6198(4)
C6 C 0.5485(3) 0.7793(3) 0.6712(3)
H3 H 0.5859 0.7509 0.6628
C7 C 0.5450(3) 0.8158(3) 0.7345(4)
H4 H 0.5793 0.8111 0.7694
C8 C 0.5032(3) 0.7476(3) 0.5502(5)
C9 C 0.4747(3) 0.7741(3) 0.4881(4)
H5 H 0.4524 0.8162 0.4908
C10 C 0.4775(3) 0.7427(3) 0.4235(4)
H6 H 0.4571 0.7626 0.3827
C11 C 0.5108(3) 0.6805(3) 0.4171(3)
C12 C 0.5400(3) 0.6536(3) 0.4783(3)
H7 H 0.5628 0.6119 0.4754
C13 C 0.5366(3) 0.6863(3) 0.5436(3)
H8 H 0.5575 0.6671 0.5844
C14 C 0.5137(3) 0.6442(3) 0.3473(3)
C15 C 0.5662(3) 0.6034(3) 0.3298(3)
H9 H 0.6034 0.5992 0.3612
C16 C 0.5650(4) 0.5679(3) 0.2661(4)
H10 H 0.6025 0.5406 0.2545
C17 C 0.4638(3) 0.6112(3) 0.2361(3)
H11 H 0.4276 0.6149 0.2033
C18 C 0.4613(3) 0.6494(3) 0.2981(3)
H12 H 0.4246 0.6785 0.3071
N2 N 0.4860(3) 0.4304(2) 0.2191(3)
O3 O 0.46637(18) 0.09738(19) 0.8587(2)
O4 O 0.5544(2) 0.04892(18) 0.8107(2)
C19 C 0.5109(3) 0.0947(3) 0.8088(4)
C20 C 0.5082(3) 0.1411(3) 0.7466(3)
C21 C 0.5591(3) 0.1379(3) 0.6958(3)
H13 H 0.5962 0.1091 0.7039
C22 C 0.5555(3) 0.1753(3) 0.6345(4)
H14 H 0.5916 0.1729 0.6014
C23 C 0.5013(4) 0.2164(3) 0.6198(4)
C24 C 0.4515(3) 0.2207(3) 0.6712(3)
H15 H 0.4141 0.2491 0.6628
C25 C 0.4550(3) 0.1842(3) 0.7345(4)
H16 H 0.4207 0.1889 0.7694
C26 C 0.4968(3) 0.2524(3) 0.5502(5)
C27 C 0.5253(3) 0.2259(3) 0.4881(4)
H17 H 0.5476 0.1838 0.4908
C28 C 0.5225(3) 0.2573(3) 0.4235(4)
H18 H 0.5429 0.2374 0.3827
C29 C 0.4892(3) 0.3195(3) 0.4171(3)
C30 C 0.4600(3) 0.3464(3) 0.4783(3)
H19 H 0.4372 0.3881 0.4754
C31 C 0.4634(3) 0.3137(3) 0.5436(3)
H20 H 0.4425 0.3329 0.5844
C32 C 0.4863(3) 0.3558(3) 0.3473(3)
C33 C 0.4338(3) 0.3966(3) 0.3298(3)
H21 H 0.3966 0.4008 0.3612
C34 C 0.4350(4) 0.4321(3) 0.2661(4)
H22 H 0.3975 0.4594 0.2545
C35 C 0.5362(3) 0.3888(3) 0.2361(3)
H23 H 0.5724 0.3851 0.2033
C36 C 0.5387(3) 0.3506(3) 0.2981(3)
H24 H 0.5754 0.3215 0.3071
Ni3_2 Ni 0.5000 1.0000 0.89068(12)
O5 O 0.40262(19) 0.53363(18) 0.1087(2)
O6 O 0.59738(19) 0.46637(18) 0.1087(2)
O7 O 0.45108(18) 0.4456(2) 0.0607(2)
O8 O 0.54892(18) 0.5544(2) 0.0607(2)
C17_2 C 0.3888(3) 0.0362(3) 0.9861(3)
H11_2 H 0.3851 0.0724 0.9533
N2_2 N 0.5696(2) 0.0140(3) 0.9691(3)
N1_2 N 0.4304(2) 0.9860(3) 0.9691(3)
C35_2 C 0.6112(3) 0.9638(3) 0.9861(3)
H23_2 H 0.6149 0.9276 0.9533
C1_2 C 0.4053(3) 0.4891(3) 0.0588(4)
H4_2 H 0.3111 0.5793 0.0194
C19_2 C 0.5947(3) 0.5109(3) 0.0588(4)
H16_2 H 0.6889 0.4207 0.0194
O3_2 O 0.03363(18) 0.40262(19) 0.3587(2)
C24_2 C 0.0485(3) 0.2793(3) 0.1712(3)
H15_2 H 0.0859 0.2509 0.1628
C25_2 C 0.0450(3) 0.3158(3) 0.2345(4)
H16_3 H 0.0793 0.3111 0.2694
C26_2 C 0.0032(3) 0.2476(3) 0.0502(5)
C31_2 C 0.0366(3) 0.1863(3) 0.0436(3)
H20_2 H 0.0575 0.1671 0.0844
Ni2 Ni -0.0000 0.5000 0.39068(12)
O2_2 O 0.0544(2) 0.54892(18) 0.3107(2)
C1_3 C 0.0109(3) 0.5947(3) 0.3088(4)
C2_2 C 0.0082(3) 0.6411(3) 0.2466(3)
C3_2 C 0.0591(3) 0.6379(3) 0.1958(3)
H1_2 H 0.0962 0.6091 0.2039
C4_2 C 0.0555(3) 0.6753(3) 0.1345(4)
H2_2 H 0.0916 0.6729 0.1014
C5_2 C 0.0013(4) 0.7164(3) 0.1198(4)
N1_3 N 0.0696(2) 0.5140(3) 0.4691(3)
C2_3 C 0.3589(3) 0.4918(3) 0.9966(3)
C3_3 C 0.3621(3) 0.4409(3) 0.9458(3)
H1_3 H 0.3909 0.4038 0.9539
C4_3 C 0.3247(3) 0.4445(3) 0.8845(4)
H2_3 H 0.3271 0.4084 0.8514
C5_3 C 0.2836(3) 0.4987(4) 0.8698(4)
C6_2 C 0.2793(3) 0.5485(3) 0.9212(3)
H3_2 H 0.2509 0.5859 0.9128
C7_2 C 0.3158(3) 0.5450(3) 0.9845(4)
C8_2 C 0.2476(3) 0.5032(3) 0.8002(5)
C9_2 C 0.2741(3) 0.4747(3) 0.7381(4)
H5_2 H 0.3162 0.4524 0.7408
C10_2 C 0.2427(3) 0.4775(3) 0.6735(4)
H6_2 H 0.2626 0.4571 0.6327
C11_2 C 0.1805(3) 0.5108(3) 0.6671(3)
C12_2 C 0.1536(3) 0.5400(3) 0.7283(3)
H7_2 H 0.1119 0.5628 0.7254
C13_2 C 0.1863(3) 0.5366(3) 0.7936(3)
H8_2 H 0.1671 0.5575 0.8344
C14_2 C 0.1442(3) 0.5137(3) 0.5973(3)
C15_2 C 0.1034(3) 0.5662(3) 0.5798(3)
H9_2 H 0.0992 0.6034 0.6112
C16_2 C 0.0679(3) 0.5650(4) 0.5161(4)
H10_2 H 0.0406 0.6025 0.5045
C17_3 C 0.1112(3) 0.4638(3) 0.4861(3)
H11_3 H 0.1149 0.4276 0.4533
C18_2 C 0.1494(3) 0.4613(3) 0.5481(3)
H12_2 H 0.1785 0.4246 0.5571
Ni1_2 Ni 0.0000 -0.0000 0.64068(12)
N2_3 N 0.0140(3) 0.0696(2) 0.7191(3)
C29_2 C 0.0108(3) 0.1805(3) 0.9171(3)
C30_2 C 0.0400(3) 0.1536(3) 0.9783(3)
H19_2 H 0.0628 0.1119 0.9754
C32_2 C 0.0137(3) 0.1442(3) 0.8473(3)
C33_2 C 0.0662(3) 0.1034(3) 0.8298(3)
H21_2 H 0.1034 0.0992 0.8612
C34_2 C 0.0650(4) 0.0679(3) 0.7661(4)
H22_2 H 0.1025 0.0406 0.7545
O7_2 O 0.04892(18) 0.0544(2) 0.5607(2)
Ni1_3 Ni 1.0000 -0.0000 0.64068(12)
C27_2 C 0.9747(3) 0.2741(3) 0.9881(4)
H17_2 H 0.9524 0.3162 0.9908
C28_2 C 0.9775(3) 0.2427(3) 0.9235(4)
H18_2 H 0.9571 0.2626 0.8827
C35_3 C 0.9638(3) 0.1112(3) 0.7361(3)
H23_3 H 0.9276 0.1149 0.7033
C36_2 C 0.9613(3) 0.1494(3) 0.7981(3)
H24_2 H 0.9246 0.1785 0.8071
O6_2 O 0.90262(19) 0.03363(18) 0.6087(2)
C1_4 C 0.0947(3) 0.0109(3) 0.5588(4)
C2_4 C 0.1411(3) 0.0082(3) 0.4966(3)
C3_4 C 0.1379(3) 0.0591(3) 0.4458(3)
H1_4 H 0.1091 0.0962 0.4539
C4_4 C 0.1753(3) 0.0555(3) 0.3845(4)
H2_4 H 0.1729 0.0916 0.3514
C5_4 C 0.2164(3) 0.0013(4) 0.3698(4)
C9_3 C 0.2259(3) 0.0253(3) 0.2381(4)
H5_3 H 0.1838 0.0476 0.2408
C10_3 C 0.2573(3) 0.0225(3) 0.1735(4)
H6_3 H 0.2374 0.0429 0.1327
C18_3 C 0.3506(3) 0.0387(3) 0.0481(3)
H12_3 H 0.3215 0.0754 0.0571
C24_3 C 0.7793(3) 0.0485(3) 0.4212(3)
H15_3 H 0.7509 0.0859 0.4128
C25_3 C 0.8158(3) 0.0450(3) 0.4845(4)
H16_4 H 0.8111 0.0793 0.5194
C26_3 C 0.7476(3) 0.0032(3) 0.3002(5)
C29_3 C 0.6805(3) 0.0108(3) 0.1671(3)
C30_3 C 0.6536(3) 0.0400(3) 0.2283(3)
H19_3 H 0.6119 0.0628 0.2254
C31_3 C 0.6863(3) 0.0366(3) 0.2936(3)
H20_3 H 0.6671 0.0575 0.3344
C32_3 C 0.6442(3) 0.0137(3) 0.0973(3)
C33_3 C 0.6034(3) 0.0662(3) 0.0798(3)
H21_3 H 0.5992 0.1034 0.1112
C34_3 C 0.5679(3) 0.0650(4) 0.0161(4)
H22_3 H 0.5406 0.1025 0.0045
Ni1_4 Ni 0.0000 1.0000 0.64068(12)
C9_4 C 0.0253(3) 0.7259(3) 0.9881(4)
H5_4 H 0.0476 0.6838 0.9908
C10_4 C 0.0225(3) 0.7573(3) 0.9235(4)
H6_4 H 0.0429 0.7374 0.8827
C17_4 C 0.0362(3) 0.8888(3) 0.7361(3)
H11_4 H 0.0724 0.8851 0.7033
C18_4 C 0.0387(3) 0.8506(3) 0.7981(3)
H12_4 H 0.0754 0.8215 0.8071
O5_2 O 0.09738(19) 0.96637(18) 0.6087(2)
Ni1_5 Ni 1.0000 1.0000 0.64068(12)
N1_4 N 0.9860(3) 0.9304(2) 0.7191(3)
C11_3 C 0.9892(3) 0.8195(3) 0.9171(3)
C12_3 C 0.9600(3) 0.8464(3) 0.9783(3)
H7_3 H 0.9372 0.8881 0.9754
C14_3 C 0.9863(3) 0.8558(3) 0.8473(3)
C15_3 C 0.9338(3) 0.8966(3) 0.8298(3)
H9_3 H 0.8966 0.9008 0.8612
C16_3 C 0.9350(4) 0.9321(3) 0.7661(4)
H10_3 H 0.8975 0.9594 0.7545
O8_2 O 0.95108(18) 0.9456(2) 0.5607(2)
C6_3 C 0.2207(3) 0.9515(3) 0.4212(3)
H3_3 H 0.2491 0.9141 0.4128
C7_3 C 0.1842(3) 0.9550(3) 0.4845(4)
H4_3 H 0.1889 0.9207 0.5194
C8_3 C 0.2524(3) 0.9968(3) 0.3002(5)
C11_4 C 0.3195(3) 0.9892(3) 0.1671(3)
C12_4 C 0.3464(3) 0.9600(3) 0.2283(3)
H7_4 H 0.3881 0.9372 0.2254
C13_3 C 0.3137(3) 0.9634(3) 0.2936(3)
H8_3 H 0.3329 0.9425 0.3344
C14_4 C 0.3558(3) 0.9863(3) 0.0973(3)
C15_4 C 0.3966(3) 0.9338(3) 0.0798(3)
H9_4 H 0.4008 0.8966 0.1112
C16_4 C 0.4321(3) 0.9350(4) 0.0161(4)
H10_4 H 0.4594 0.8975 0.0045
C19_3 C 0.9053(3) 0.9891(3) 0.5588(4)
C20_2 C 0.8589(3) 0.9918(3) 0.4966(3)
C21_2 C 0.8621(3) 0.9409(3) 0.4458(3)
H13_2 H 0.8909 0.9038 0.4539
C22_2 C 0.8247(3) 0.9445(3) 0.3845(4)
H14_2 H 0.8271 0.9084 0.3514
C23_2 C 0.7836(3) 0.9987(4) 0.3698(4)
C27_3 C 0.7741(3) 0.9747(3) 0.2381(4)
H17_3 H 0.8162 0.9524 0.2408
C28_3 C 0.7427(3) 0.9775(3) 0.1735(4)
H18_3 H 0.7626 0.9571 0.1327
C36_3 C 0.6494(3) 0.9613(3) 0.0481(3)
H24_3 H 0.6785 0.9246 0.0571
O4_2 O 0.9456(2) 0.45108(18) 0.3107(2)
C19_4 C 0.9891(3) 0.4053(3) 0.3088(4)
C20_3 C 0.9918(3) 0.3589(3) 0.2466(3)
C21_3 C 0.9409(3) 0.3621(3) 0.1958(3)
H13_3 H 0.9038 0.3909 0.2039
C22_3 C 0.9445(3) 0.3247(3) 0.1345(4)
H14_3 H 0.9084 0.3271 0.1014
C23_3 C 0.9987(4) 0.2836(3) 0.1198(4)
Ni2_2 Ni 1.0000 0.5000 0.39068(12)
O1_2 O 0.96637(18) 0.59738(19) 0.3587(2)
C6_4 C 0.9515(3) 0.7207(3) 0.1712(3)
H3_4 H 0.9141 0.7491 0.1628
C7_4 C 0.9550(3) 0.6842(3) 0.2345(4)
H4_4 H 0.9207 0.6889 0.2694
C8_4 C 0.9968(3) 0.7524(3) 0.0502(5)
C13_4 C 0.9634(3) 0.8137(3) 0.0436(3)
H8_4 H 0.9425 0.8329 0.0844
N2_4 N 0.9304(2) 0.4860(3) 0.4691(3)
C20_4 C 0.6411(3) 0.5082(3) 0.9966(3)
C21_4 C 0.6379(3) 0.5591(3) 0.9458(3)
H13_4 H 0.6091 0.5962 0.9539
C22_4 C 0.6753(3) 0.5555(3) 0.8845(4)
H14_4 H 0.6729 0.5916 0.8514
C23_4 C 0.7164(3) 0.5013(4) 0.8698(4)
C24_4 C 0.7207(3) 0.4515(3) 0.9212(3)
H15_4 H 0.7491 0.4141 0.9128
C25_4 C 0.6842(3) 0.4550(3) 0.9845(4)
C26_4 C 0.7524(3) 0.4968(3) 0.8002(5)
C27_4 C 0.7259(3) 0.5253(3) 0.7381(4)
H17_4 H 0.6838 0.5476 0.7408
C28_4 C 0.7573(3) 0.5225(3) 0.6735(4)
H18_4 H 0.7374 0.5429 0.6327
C29_4 C 0.8195(3) 0.4892(3) 0.6671(3)
C30_4 C 0.8464(3) 0.4600(3) 0.7283(3)
H19_4 H 0.8881 0.4372 0.7254
C31_4 C 0.8137(3) 0.4634(3) 0.7936(3)
H20_4 H 0.8329 0.4425 0.8344
C32_4 C 0.8558(3) 0.4863(3) 0.5973(3)
C33_4 C 0.8966(3) 0.4338(3) 0.5798(3)
H21_4 H 0.9008 0.3966 0.6112
C34_4 C 0.9321(3) 0.4350(4) 0.5161(4)
H22_4 H 0.9594 0.3975 0.5045
C35_4 C 0.8888(3) 0.5362(3) 0.4861(3)
H23_4 H 0.8851 0.5724 0.4533
C36_4 C 0.8506(3) 0.5387(3) 0.5481(3)
H24_4 H 0.8215 0.5754 0.5571
Ni2_3 Ni 0.0000 0.0000 0.14068(12)
Ni2_4 Ni 0.0000 1.0000 0.14068(12)
O1_3 O 0.09738(19) 0.03363(18) 0.1087(2)
H4_5 H 0.1889 0.0793 0.0194
O4_3 O 0.95108(18) 0.0544(2) 0.0607(2)
C19_5 C 0.9053(3) 0.0109(3) 0.0588(4)
Ni2_5 Ni 1.0000 0.0000 0.14068(12)
O2_3 O 0.04892(18) 0.9456(2) 0.0607(2)
C1_5 C 0.0947(3) 0.9891(3) 0.0588(4)
O3_3 O 0.90262(19) 0.96637(18) 0.1087(2)
H16_5 H 0.8111 0.9207 0.0194
Ni2_6 Ni 1.0000 1.0000 0.14068(12)
Ni1_6 Ni -0.0000 0.5000 0.89068(12)
N1_5 N 0.0696(2) 0.4860(3) 0.9691(3)
C17_5 C 0.1112(3) 0.5362(3) 0.9861(3)
H11_5 H 0.1149 0.5724 0.9533
O5_3 O 0.03363(18) 0.59738(19) 0.8587(2)
O8_3 O 0.0544(2) 0.45108(18) 0.8107(2)
Ni1_7 Ni 1.0000 0.5000 0.89068(12)
N2_5 N 0.9304(2) 0.5140(3) 0.9691(3)
C35_5 C 0.8888(3) 0.4638(3) 0.9861(3)
H23_5 H 0.8851 0.4276 0.9533
O6_3 O 0.96637(18) 0.40262(19) 0.8587(2)
O7_3 O 0.9456(2) 0.54892(18) 0.8107(2)
C1_6 C 0.0109(3) 0.4053(3) 0.8088(4)
C2_5 C 0.0082(3) 0.3589(3) 0.7466(3)
C3_5 C 0.0591(3) 0.3621(3) 0.6958(3)
H1_5 H 0.0962 0.3909 0.7039
C4_5 C 0.0555(3) 0.3247(3) 0.6345(4)
H2_5 H 0.0916 0.3271 0.6014
C5_5 C 0.0013(4) 0.2836(3) 0.6198(4)
C9_5 C 0.0253(3) 0.2741(3) 0.4881(4)
H5_5 H 0.0476 0.3162 0.4908
C10_5 C 0.0225(3) 0.2427(3) 0.4235(4)
H6_5 H 0.0429 0.2626 0.3827
C17_6 C 0.0362(3) 0.1112(3) 0.2361(3)
H11_6 H 0.0724 0.1149 0.2033
C18_5 C 0.0387(3) 0.1494(3) 0.2981(3)
H12_5 H 0.0754 0.1785 0.3071
N2_6 N 0.0140(3) 0.9304(2) 0.2191(3)
C24_5 C 0.0485(3) 0.7207(3) 0.6712(3)
H15_5 H 0.0859 0.7491 0.6628
C25_5 C 0.0450(3) 0.6842(3) 0.7345(4)
H16_6 H 0.0793 0.6889 0.7694
C26_5 C 0.0032(3) 0.7524(3) 0.5502(5)
C29_5 C 0.0108(3) 0.8195(3) 0.4171(3)
C30_5 C 0.0400(3) 0.8464(3) 0.4783(3)
H19_5 H 0.0628 0.8881 0.4754
C31_5 C 0.0366(3) 0.8137(3) 0.5436(3)
H20_5 H 0.0575 0.8329 0.5844
C32_5 C 0.0137(3) 0.8558(3) 0.3473(3)
C33_5 C 0.0662(3) 0.8966(3) 0.3298(3)
H21_5 H 0.1034 0.9008 0.3612
C34_5 C 0.0650(4) 0.9321(3) 0.2661(4)
H22_5 H 0.1025 0.9594 0.2545
N1_6 N 0.9860(3) 0.0696(2) 0.2191(3)
C6_5 C 0.9515(3) 0.2793(3) 0.6712(3)
H3_5 H 0.9141 0.2509 0.6628
C7_5 C 0.9550(3) 0.3158(3) 0.7345(4)
H4_6 H 0.9207 0.3111 0.7694
C8_5 C 0.9968(3) 0.2476(3) 0.5502(5)
C11_5 C 0.9892(3) 0.1805(3) 0.4171(3)
C12_5 C 0.9600(3) 0.1536(3) 0.4783(3)
H7_5 H 0.9372 0.1119 0.4754
C13_5 C 0.9634(3) 0.1863(3) 0.5436(3)
H8_5 H 0.9425 0.1671 0.5844
C14_5 C 0.9863(3) 0.1442(3) 0.3473(3)
C15_5 C 0.9338(3) 0.1034(3) 0.3298(3)
H9_5 H 0.8966 0.0992 0.3612
C16_5 C 0.9350(4) 0.0679(3) 0.2661(4)
H10_5 H 0.8975 0.0406 0.2545
C19_6 C 0.9891(3) 0.5947(3) 0.8088(4)
C20_5 C 0.9918(3) 0.6411(3) 0.7466(3)
C21_5 C 0.9409(3) 0.6379(3) 0.6958(3)
H13_5 H 0.9038 0.6091 0.7039
C22_5 C 0.9445(3) 0.6753(3) 0.6345(4)
H14_5 H 0.9084 0.6729 0.6014
C23_5 C 0.9987(4) 0.7164(3) 0.6198(4)
C27_5 C 0.9747(3) 0.7259(3) 0.4881(4)
H17_5 H 0.9524 0.6838 0.4908
C28_5 C 0.9775(3) 0.7573(3) 0.4235(4)
H18_5 H 0.9571 0.7374 0.3827
C35_6 C 0.9638(3) 0.8888(3) 0.2361(3)
H23_6 H 0.9276 0.8851 0.2033
C36_5 C 0.9613(3) 0.8506(3) 0.2981(3)
H24_5 H 0.9246 0.8215 0.3071
Ni1_8 Ni 0.5000 -0.0000 0.39068(12)
N1_7 N 0.4304(2) 0.0140(3) 0.4691(3)
C6_6 C 0.2207(3) 0.0485(3) 0.9212(3)
H3_6 H 0.2491 0.0859 0.9128
C7_6 C 0.1842(3) 0.0450(3) 0.9845(4)
C8_6 C 0.2524(3) 0.0032(3) 0.8002(5)
C11_6 C 0.3195(3) 0.0108(3) 0.6671(3)
C12_6 C 0.3464(3) 0.0400(3) 0.7283(3)
H7_6 H 0.3881 0.0628 0.7254
C13_6 C 0.3137(3) 0.0366(3) 0.7936(3)
H8_6 H 0.3329 0.0575 0.8344
C14_6 C 0.3558(3) 0.0137(3) 0.5973(3)
C15_6 C 0.3966(3) 0.0662(3) 0.5798(3)
H9_6 H 0.4008 0.1034 0.6112
C16_6 C 0.4321(3) 0.0650(4) 0.5161(4)
H10_6 H 0.4594 0.1025 0.5045
C20_6 C 0.8589(3) 0.0082(3) 0.9966(3)
C21_6 C 0.8621(3) 0.0591(3) 0.9458(3)
H13_6 H 0.8909 0.0962 0.9539
C22_6 C 0.8247(3) 0.0555(3) 0.8845(4)
H14_6 H 0.8271 0.0916 0.8514
C23_6 C 0.7836(3) 0.0013(4) 0.8698(4)
C27_6 C 0.7741(3) 0.0253(3) 0.7381(4)
H17_6 H 0.8162 0.0476 0.7408
C28_6 C 0.7427(3) 0.0225(3) 0.6735(4)
H18_6 H 0.7626 0.0429 0.6327
C35_7 C 0.6112(3) 0.0362(3) 0.4861(3)
H23_7 H 0.6149 0.0724 0.4533
C36_6 C 0.6494(3) 0.0387(3) 0.5481(3)
H24_6 H 0.6785 0.0754 0.5571
O6_4 O 0.53363(18) 0.09738(19) 0.3587(2)
O8_4 O 0.4456(2) 0.04892(18) 0.3107(2)
Ni1_9 Ni 0.5000 1.0000 0.39068(12)
C2_6 C 0.1411(3) 0.9918(3) 0.9966(3)
C3_6 C 0.1379(3) 0.9409(3) 0.9458(3)
H1_6 H 0.1091 0.9038 0.9539
C4_6 C 0.1753(3) 0.9445(3) 0.8845(4)
H2_6 H 0.1729 0.9084 0.8514
C5_6 C 0.2164(3) 0.9987(4) 0.8698(4)
C9_6 C 0.2259(3) 0.9747(3) 0.7381(4)
H5_6 H 0.1838 0.9524 0.7408
C10_6 C 0.2573(3) 0.9775(3) 0.6735(4)
H6_6 H 0.2374 0.9571 0.6327
C17_7 C 0.3888(3) 0.9638(3) 0.4861(3)
H11_7 H 0.3851 0.9276 0.4533
C18_6 C 0.3506(3) 0.9613(3) 0.5481(3)
H12_6 H 0.3215 0.9246 0.5571
N2_7 N 0.5696(2) 0.9860(3) 0.4691(3)
C24_6 C 0.7793(3) 0.9515(3) 0.9212(3)
H15_6 H 0.7509 0.9141 0.9128
C25_6 C 0.8158(3) 0.9550(3) 0.9845(4)
C26_6 C 0.7476(3) 0.9968(3) 0.8002(5)
C29_6 C 0.6805(3) 0.9892(3) 0.6671(3)
C30_6 C 0.6536(3) 0.9600(3) 0.7283(3)
H19_6 H 0.6119 0.9372 0.7254
C31_6 C 0.6863(3) 0.9634(3) 0.7936(3)
H20_6 H 0.6671 0.9425 0.8344
C32_6 C 0.6442(3) 0.9863(3) 0.5973(3)
C33_6 C 0.6034(3) 0.9338(3) 0.5798(3)
H21_6 H 0.5992 0.8966 0.6112
C34_6 C 0.5679(3) 0.9350(4) 0.5161(4)
H22_6 H 0.5406 0.8975 0.5045
O5_4 O 0.46637(18) 0.90262(19) 0.3587(2)
O7_4 O 0.5544(2) 0.95108(18) 0.3107(2)
C1_7 C 0.4891(3) 0.0947(3) 0.3088(4)
C2_7 C 0.4918(3) 0.1411(3) 0.2466(3)
C3_7 C 0.4409(3) 0.1379(3) 0.1958(3)
H1_7 H 0.4038 0.1091 0.2039
C4_7 C 0.4445(3) 0.1753(3) 0.1345(4)
H2_7 H 0.4084 0.1729 0.1014
C5_7 C 0.4987(4) 0.2164(3) 0.1198(4)
C6_7 C 0.5485(3) 0.2207(3) 0.1712(3)
H3_7 H 0.5859 0.2491 0.1628
C7_7 C 0.5450(3) 0.1842(3) 0.2345(4)
H4_7 H 0.5793 0.1889 0.2694
C8_7 C 0.5032(3) 0.2524(3) 0.0502(5)
C13_7 C 0.5366(3) 0.3137(3) 0.0436(3)
H8_7 H 0.5575 0.3329 0.0844
C19_7 C 0.5109(3) 0.9053(3) 0.3088(4)
C20_7 C 0.5082(3) 0.8589(3) 0.2466(3)
C21_7 C 0.5591(3) 0.8621(3) 0.1958(3)
H13_7 H 0.5962 0.8909 0.2039
C22_7 C 0.5555(3) 0.8247(3) 0.1345(4)
H14_7 H 0.5916 0.8271 0.1014
C23_7 C 0.5013(4) 0.7836(3) 0.1198(4)
C24_7 C 0.4515(3) 0.7793(3) 0.1712(3)
H15_7 H 0.4141 0.7509 0.1628
C25_7 C 0.4550(3) 0.8158(3) 0.2345(4)
H16_7 H 0.4207 0.8111 0.2694
C26_7 C 0.4968(3) 0.7476(3) 0.0502(5)
C31_7 C 0.4634(3) 0.6863(3) 0.0436(3)
H20_7 H 0.4425 0.6671 0.0844
O1_4 O 0.40262(19) 0.46637(18) 0.6087(2)
O2_4 O 0.45108(18) 0.5544(2) 0.5607(2)
C1_8 C 0.4053(3) 0.5109(3) 0.5588(4)
C2_8 C 0.3589(3) 0.5082(3) 0.4966(3)
C3_8 C 0.3621(3) 0.5591(3) 0.4458(3)
H1_8 H 0.3909 0.5962 0.4539
C4_8 C 0.3247(3) 0.5555(3) 0.3845(4)
H2_8 H 0.3271 0.5916 0.3514
C5_8 C 0.2836(3) 0.5013(4) 0.3698(4)
C6_8 C 0.2793(3) 0.4515(3) 0.4212(3)
H3_8 H 0.2509 0.4141 0.4128
C7_8 C 0.3158(3) 0.4550(3) 0.4845(4)
H4_8 H 0.3111 0.4207 0.5194
C8_8 C 0.2476(3) 0.4968(3) 0.3002(5)
C9_7 C 0.2741(3) 0.5253(3) 0.2381(4)
H5_7 H 0.3162 0.5476 0.2408
C10_7 C 0.2427(3) 0.5225(3) 0.1735(4)
H6_7 H 0.2626 0.5429 0.1327
C11_7 C 0.1805(3) 0.4892(3) 0.1671(3)
C12_7 C 0.1536(3) 0.4600(3) 0.2283(3)
H7_7 H 0.1119 0.4372 0.2254
C13_8 C 0.1863(3) 0.4634(3) 0.2936(3)
H8_8 H 0.1671 0.4425 0.3344
C14_7 C 0.1442(3) 0.4863(3) 0.0973(3)
C15_7 C 0.1034(3) 0.4338(3) 0.0798(3)
H9_7 H 0.0992 0.3966 0.1112
C16_7 C 0.0679(3) 0.4350(4) 0.0161(4)
H10_7 H 0.0406 0.3975 0.0045
C18_7 C 0.1494(3) 0.5387(3) 0.0481(3)
H12_7 H 0.1785 0.5754 0.0571
Ni3_3 Ni 0.5000 0.5000 0.64068(12)
O3_4 O 0.59738(19) 0.53363(18) 0.6087(2)
O4_4 O 0.54892(18) 0.4456(2) 0.5607(2)
C19_8 C 0.5947(3) 0.4891(3) 0.5588(4)
C20_8 C 0.6411(3) 0.4918(3) 0.4966(3)
C21_8 C 0.6379(3) 0.4409(3) 0.4458(3)
H13_8 H 0.6091 0.4038 0.4539
C22_8 C 0.6753(3) 0.4445(3) 0.3845(4)
H14_8 H 0.6729 0.4084 0.3514
C23_8 C 0.7164(3) 0.4987(4) 0.3698(4)
C24_8 C 0.7207(3) 0.5485(3) 0.4212(3)
H15_8 H 0.7491 0.5859 0.4128
C25_8 C 0.6842(3) 0.5450(3) 0.4845(4)
H16_8 H 0.6889 0.5793 0.5194
C26_8 C 0.7524(3) 0.5032(3) 0.3002(5)
C27_7 C 0.7259(3) 0.4747(3) 0.2381(4)
H17_7 H 0.6838 0.4524 0.2408
C28_7 C 0.7573(3) 0.4775(3) 0.1735(4)
H18_7 H 0.7374 0.4571 0.1327
C29_7 C 0.8195(3) 0.5108(3) 0.1671(3)
C30_7 C 0.8464(3) 0.5400(3) 0.2283(3)
H19_7 H 0.8881 0.5628 0.2254
C31_8 C 0.8137(3) 0.5366(3) 0.2936(3)
H20_8 H 0.8329 0.5575 0.3344
C32_7 C 0.8558(3) 0.5137(3) 0.0973(3)
C33_7 C 0.8966(3) 0.5662(3) 0.0798(3)
H21_7 H 0.9008 0.6034 0.1112
C34_7 C 0.9321(3) 0.5650(4) 0.0161(4)
H22_7 H 0.9594 0.6025 0.0045
C36_7 C 0.8506(3) 0.4613(3) 0.0481(3)
H24_7 H 0.8215 0.4246 0.0571
N1_8 N 0.5140(3) 0.4304(2) 0.7191(3)
C9_8 C 0.4747(3) 0.2259(3) 0.9881(4)
H5_8 H 0.4524 0.1838 0.9908
C10_8 C 0.4775(3) 0.2573(3) 0.9235(4)
H6_8 H 0.4571 0.2374 0.8827
C11_8 C 0.5108(3) 0.3195(3) 0.9171(3)
C12_8 C 0.5400(3) 0.3464(3) 0.9783(3)
H7_8 H 0.5628 0.3881 0.9754
C14_8 C 0.5137(3) 0.3558(3) 0.8473(3)
C15_8 C 0.5662(3) 0.3966(3) 0.8298(3)
H9_8 H 0.6034 0.4008 0.8612
C16_8 C 0.5650(4) 0.4321(3) 0.7661(4)
H10_8 H 0.6025 0.4594 0.7545
C17_8 C 0.4638(3) 0.3888(3) 0.7361(3)
H11_8 H 0.4276 0.3851 0.7033
C18_8 C 0.4613(3) 0.3506(3) 0.7981(3)
H12_8 H 0.4246 0.3215 0.8071
N2_8 N 0.4860(3) 0.5696(2) 0.7191(3)
C27_8 C 0.5253(3) 0.7741(3) 0.9881(4)
H17_8 H 0.5476 0.8162 0.9908
C28_8 C 0.5225(3) 0.7427(3) 0.9235(4)
H18_8 H 0.5429 0.7626 0.8827
C29_8 C 0.4892(3) 0.6805(3) 0.9171(3)
C30_8 C 0.4600(3) 0.6536(3) 0.9783(3)
H19_8 H 0.4372 0.6119 0.9754
C32_8 C 0.4863(3) 0.6442(3) 0.8473(3)
C33_8 C 0.4338(3) 0.6034(3) 0.8298(3)
H21_8 H 0.3966 0.5992 0.8612
C34_8 C 0.4350(4) 0.5679(3) 0.7661(4)
H22_8 H 0.3975 0.5406 0.7545
C35_8 C 0.5362(3) 0.6112(3) 0.7361(3)
H23_8 H 0.5724 0.6149 0.7033
C36_8 C 0.5387(3) 0.6494(3) 0.7981(3)
H24_8 H 0.5754 0.6785 0.8071
loop_
_geom_bond_atom_site_label_1
_geom_bond_atom_site_label_2
_geom_bond_site_symmetry_1
_geom_bond_site_symmetry_2
Ni1 N1 1_555 1_555
N1 C16 1_555 1_555
O1 C1 1_555 1_555
O2 C1 1_555 1_555
C1 C2 1_555 1_555
C2 C3 1_555 1_555
C3 H1 1_555 1_555
C4 C3 1_555 1_555
H2 C4 1_555 1_555
C5 C4 1_555 1_555
C6 C5 1_555 1_555
H3 C6 1_555 1_555
C7 C2 1_555 1_555
H4 C7 1_555 1_555
C8 C5 1_555 1_555
C9 C8 1_555 1_555
H5 C9 1_555 1_555
C10 C9 1_555 1_555
H6 C10 1_555 1_555
C11 C10 1_555 1_555
C12 C11 1_555 1_555
H7 C12 1_555 1_555
C13 C8 1_555 1_555
H8 C13 1_555 1_555
C14 C11 1_555 1_555
C15 C14 1_555 1_555
H9 C15 1_555 1_555
C16 C15 1_555 1_555
H10 C16 1_555 1_555
C17 N1 1_555 1_555
H11 C17 1_555 1_555
C18 C14 1_555 1_555
H12 C18 1_555 1_555
N2 Ni1 1_555 1_555
O3 C19 1_555 1_555
O4 C19 1_555 1_555
C19 C20 1_555 1_555
C20 C21 1_555 1_555
C21 H13 1_555 1_555
C22 C21 1_555 1_555
H14 C22 1_555 1_555
C23 C22 1_555 1_555
C24 C23 1_555 1_555
H15 C24 1_555 1_555
C25 C20 1_555 1_555
H16 C25 1_555 1_555
C26 C23 1_555 1_555
C27 C26 1_555 1_555
H17 C27 1_555 1_555
C28 C27 1_555 1_555
H18 C28 1_555 1_555
C29 C28 1_555 1_555
C30 C29 1_555 1_555
H19 C30 1_555 1_555
C31 C26 1_555 1_555
H20 C31 1_555 1_555
C32 C29 1_555 1_555
C33 C32 1_555 1_555
H21 C33 1_555 1_555
C34 N2 1_555 1_555
H22 C34 1_555 1_555
C35 N2 1_555 1_555
H23 C35 1_555 1_555
C36 C32 1_555 1_555
H24 C36 1_555 1_555
Ni3 O3 1_555 1_555
Ni3_2 O1 1_555 1_555
O5 Ni1 1_555 1_555
O6 Ni1 1_555 1_555
O7 Ni1 1_555 1_555
O8 Ni1 1_555 1_555
O2 Ni3_2 1_555 1_555
C6 C7 1_555 1_555
C12 C13 1_555 1_555
C17 C18 1_555 1_555
O4 Ni3 1_555 1_555
C24 C25 1_555 1_555
C30 C31 1_555 1_555
C33 C34 1_555 1_555
C35 C36 1_555 1_555
H11_2 C17_2 1_555 1_555
N2_2 Ni3 1_555 1_555
Ni3_2 N1_2 1_555 1_555
H23_2 C35_2 1_555 1_555
O5 C1_2 1_555 1_555
O7 C1_2 1_555 1_555
O6 C19_2 1_555 1_555
O8 C19_2 1_555 1_555
H15_2 C24_2 1_555 1_555
H16_3 C25_2 1_555 1_555
C31_2 C26_2 1_555 1_555
H20_2 C31_2 1_555 1_555
Ni2 O3_2 1_555 1_555
C24_2 C25_2 1_555 1_555
O2_2 C1_3 1_555 1_555
C1_3 C2_2 1_555 1_555
C2_2 C3_2 1_555 1_555
C3_2 H1_2 1_555 1_555
C4_2 C3_2 1_555 1_555
H2_2 C4_2 1_555 1_555
C5_2 C4_2 1_555 1_555
O2_2 Ni2 1_555 1_555
Ni2 N1_3 1_555 1_555
N1_3 C16_2 1_555 1_555
C2_3 C3_3 1_555 1_555
C3_3 H1_3 1_555 1_555
C4_3 C3_3 1_555 1_555
H2_3 C4_3 1_555 1_555
C5_3 C4_3 1_555 1_555
C6_2 C5_3 1_555 1_555
H3_2 C6_2 1_555 1_555
C7_2 C2_3 1_555 1_555
C8_2 C5_3 1_555 1_555
C9_2 C8_2 1_555 1_555
H5_2 C9_2 1_555 1_555
C10_2 C9_2 1_555 1_555
H6_2 C10_2 1_555 1_555
C11_2 C10_2 1_555 1_555
C12_2 C11_2 1_555 1_555
H7_2 C12_2 1_555 1_555
C13_2 C8_2 1_555 1_555
H8_2 C13_2 1_555 1_555
C14_2 C11_2 1_555 1_555
C15_2 C14_2 1_555 1_555
H9_2 C15_2 1_555 1_555
C16_2 C15_2 1_555 1_555
H10_2 C16_2 1_555 1_555
C17_3 N1_3 1_555 1_555
H11_3 C17_3 1_555 1_555
C18_2 C14_2 1_555 1_555
H12_2 C18_2 1_555 1_555
C6_2 C7_2 1_555 1_555
C12_2 C13_2 1_555 1_555
C17_3 C18_2 1_555 1_555
N2_3 Ni1_2 1_555 1_555
C30_2 C29_2 1_555 1_555
H19_2 C30_2 1_555 1_555
C32_2 C29_2 1_555 1_555
C33_2 C32_2 1_555 1_555
H21_2 C33_2 1_555 1_555
C34_2 N2_3 1_555 1_555
H22_2 C34_2 1_555 1_555
O7_2 Ni1_2 1_555 1_555
C33_2 C34_2 1_555 1_555
H17_2 C27_2 1_555 1_555
C28_2 C27_2 1_555 1_555
H18_2 C28_2 1_555 1_555
H23_3 C35_3 1_555 1_555
H24_2 C36_2 1_555 1_555
O6_2 Ni1_3 1_555 1_555
C35_3 C36_2 1_555 1_555
O7_2 C1_4 1_555 1_555
C1_4 C2_4 1_555 1_555
C2_4 C3_4 1_555 1_555
C3_4 H1_4 1_555 1_555
C4_4 C3_4 1_555 1_555
H2_4 C4_4 1_555 1_555
C5_4 C4_4 1_555 1_555
H5_3 C9_3 1_555 1_555
C10_3 C9_3 1_555 1_555
H6_3 C10_3 1_555 1_555
H12_3 C18_3 1_555 1_555
H15_3 C24_3 1_555 1_555
H16_4 C25_3 1_555 1_555
C30_3 C29_3 1_555 1_555
H19_3 C30_3 1_555 1_555
C31_3 C26_3 1_555 1_555
H20_3 C31_3 1_555 1_555
C32_3 C29_3 1_555 1_555
C33_3 C32_3 1_555 1_555
H21_3 C33_3 1_555 1_555
H22_3 C34_3 1_555 1_555
C24_3 C25_3 1_555 1_555
C30_3 C31_3 1_555 1_555
C33_3 C34_3 1_555 1_555
H5_4 C9_4 1_555 1_555
C10_4 C9_4 1_555 1_555
H6_4 C10_4 1_555 1_555
H11_4 C17_4 1_555 1_555
H12_4 C18_4 1_555 1_555
O5_2 Ni1_4 1_555 1_555
C17_4 C18_4 1_555 1_555
Ni1_5 N1_4 1_555 1_555
N1_4 C16_3 1_555 1_555
C12_3 C11_3 1_555 1_555
H7_3 C12_3 1_555 1_555
C14_3 C11_3 1_555 1_555
C15_3 C14_3 1_555 1_555
H9_3 C15_3 1_555 1_555
C16_3 C15_3 1_555 1_555
H10_3 C16_3 1_555 1_555
O8_2 Ni1_5 1_555 1_555
H3_3 C6_3 1_555 1_555
H4_3 C7_3 1_555 1_555
C12_4 C11_4 1_555 1_555
H7_4 C12_4 1_555 1_555
C13_3 C8_3 1_555 1_555
H8_3 C13_3 1_555 1_555
C14_4 C11_4 1_555 1_555
C15_4 C14_4 1_555 1_555
H9_4 C15_4 1_555 1_555
C16_4 C15_4 1_555 1_555
H10_4 C16_4 1_555 1_555
O8_2 C19_3 1_555 1_555
C19_3 C20_2 1_555 1_555
C20_2 C21_2 1_555 1_555
C21_2 H13_2 1_555 1_555
C22_2 C21_2 1_555 1_555
H14_2 C22_2 1_555 1_555
C23_2 C22_2 1_555 1_555
H17_3 C27_3 1_555 1_555
C28_3 C27_3 1_555 1_555
H18_3 C28_3 1_555 1_555
H24_3 C36_3 1_555 1_555
C6_3 C7_3 1_555 1_555
C12_4 C13_3 1_555 1_555
O4_2 C19_4 1_555 1_555
C19_4 C20_3 1_555 1_555
C20_3 C21_3 1_555 1_555
C21_3 H13_3 1_555 1_555
C22_3 C21_3 1_555 1_555
H14_3 C22_3 1_555 1_555
C23_3 C22_3 1_555 1_555
O4_2 Ni2_2 1_555 1_555
H3_4 C6_4 1_555 1_555
H4_4 C7_4 1_555 1_555
C13_4 C8_4 1_555 1_555
H8_4 C13_4 1_555 1_555
Ni2_2 O1_2 1_555 1_555
C6_4 C7_4 1_555 1_555
N2_4 Ni2_2 1_555 1_555
C20_4 C21_4 1_555 1_555
C21_4 H13_4 1_555 1_555
C22_4 C21_4 1_555 1_555
H14_4 C22_4 1_555 1_555
C23_4 C22_4 1_555 1_555
C24_4 C23_4 1_555 1_555
H15_4 C24_4 1_555 1_555
C25_4 C20_4 1_555 1_555
C26_4 C23_4 1_555 1_555
C27_4 C26_4 1_555 1_555
H17_4 C27_4 1_555 1_555
C28_4 C27_4 1_555 1_555
H18_4 C28_4 1_555 1_555
C29_4 C28_4 1_555 1_555
C30_4 C29_4 1_555 1_555
H19_4 C30_4 1_555 1_555
C31_4 C26_4 1_555 1_555
H20_4 C31_4 1_555 1_555
C32_4 C29_4 1_555 1_555
C33_4 C32_4 1_555 1_555
H21_4 C33_4 1_555 1_555
C34_4 N2_4 1_555 1_555
H22_4 C34_4 1_555 1_555
C35_4 N2_4 1_555 1_555
H23_4 C35_4 1_555 1_555
C36_4 C32_4 1_555 1_555
H24_4 C36_4 1_555 1_555
C24_4 C25_4 1_555 1_555
C30_4 C31_4 1_555 1_555
C33_4 C34_4 1_555 1_555
C35_4 C36_4 1_555 1_555
O4_3 C19_5 1_555 1_555
Ni2_3 O1_3 1_555 1_555
O4_3 Ni2_5 1_555 1_555
O2_3 C1_5 1_555 1_555
Ni2_6 O3_3 1_555 1_555
O2_3 Ni2_4 1_555 1_555
Ni1_6 N1_5 1_555 1_555
C17_5 N1_5 1_555 1_555
H11_5 C17_5 1_555 1_555
O5_3 Ni1_6 1_555 1_555
O8_3 Ni1_6 1_555 1_555
N2_5 Ni1_7 1_555 1_555
C35_5 N2_5 1_555 1_555
H23_5 C35_5 1_555 1_555
O6_3 Ni1_7 1_555 1_555
O7_3 Ni1_7 1_555 1_555
O8_3 C1_6 1_555 1_555
C1_6 C2_5 1_555 1_555
C2_5 C3_5 1_555 1_555
C3_5 H1_5 1_555 1_555
C4_5 C3_5 1_555 1_555
H2_5 C4_5 1_555 1_555
C5_5 C4_5 1_555 1_555
H5_5 C9_5 1_555 1_555
C10_5 C9_5 1_555 1_555
H6_5 C10_5 1_555 1_555
H11_6 C17_6 1_555 1_555
H12_5 C18_5 1_555 1_555
C17_6 C18_5 1_555 1_555
N2_6 Ni2_4 1_555 1_555
H15_5 C24_5 1_555 1_555
H16_6 C25_5 1_555 1_555
C30_5 C29_5 1_555 1_555
H19_5 C30_5 1_555 1_555
C31_5 C26_5 1_555 1_555
H20_5 C31_5 1_555 1_555
C32_5 C29_5 1_555 1_555
C33_5 C32_5 1_555 1_555
H21_5 C33_5 1_555 1_555
C34_5 N2_6 1_555 1_555
H22_5 C34_5 1_555 1_555
C24_5 C25_5 1_555 1_555
C30_5 C31_5 1_555 1_555
C33_5 C34_5 1_555 1_555
Ni2_5 N1_6 1_555 1_555
N1_6 C16_5 1_555 1_555
H3_5 C6_5 1_555 1_555
H4_6 C7_5 1_555 1_555
C12_5 C11_5 1_555 1_555
H7_5 C12_5 1_555 1_555
C13_5 C8_5 1_555 1_555
H8_5 C13_5 1_555 1_555
C14_5 C11_5 1_555 1_555
C15_5 C14_5 1_555 1_555
H9_5 C15_5 1_555 1_555
C16_5 C15_5 1_555 1_555
H10_5 C16_5 1_555 1_555
C6_5 C7_5 1_555 1_555
C12_5 C13_5 1_555 1_555
O7_3 C19_6 1_555 1_555
C19_6 C20_5 1_555 1_555
C20_5 C21_5 1_555 1_555
C21_5 H13_5 1_555 1_555
C22_5 C21_5 1_555 1_555
H14_5 C22_5 1_555 1_555
C23_5 C22_5 1_555 1_555
H17_5 C27_5 1_555 1_555
C28_5 C27_5 1_555 1_555
H18_5 C28_5 1_555 1_555
H23_6 C35_6 1_555 1_555
H24_5 C36_5 1_555 1_555
C35_6 C36_5 1_555 1_555
Ni1_8 N1_7 1_555 1_555
N1_7 C16_6 1_555 1_555
H3_6 C6_6 1_555 1_555
C12_6 C11_6 1_555 1_555
H7_6 C12_6 1_555 1_555
C13_6 C8_6 1_555 1_555
H8_6 C13_6 1_555 1_555
C14_6 C11_6 1_555 1_555
C15_6 C14_6 1_555 1_555
H9_6 C15_6 1_555 1_555
C16_6 C15_6 1_555 1_555
H10_6 C16_6 1_555 1_555
C20_6 C21_6 1_555 1_555
C21_6 H13_6 1_555 1_555
C22_6 C21_6 1_555 1_555
H14_6 C22_6 1_555 1_555
C23_6 C22_6 1_555 1_555
H17_6 C27_6 1_555 1_555
C28_6 C27_6 1_555 1_555
H18_6 C28_6 1_555 1_555
H23_7 C35_7 1_555 1_555
H24_6 C36_6 1_555 1_555
O6_4 Ni1_8 1_555 1_555
O8_4 Ni1_8 1_555 1_555
C6_6 C7_6 1_555 1_555
C12_6 C13_6 1_555 1_555
C35_7 C36_6 1_555 1_555
C2_6 C3_6 1_555 1_555
C3_6 H1_6 1_555 1_555
C4_6 C3_6 1_555 1_555
H2_6 C4_6 1_555 1_555
C5_6 C4_6 1_555 1_555
H5_6 C9_6 1_555 1_555
C10_6 C9_6 1_555 1_555
H6_6 C10_6 1_555 1_555
H11_7 C17_7 1_555 1_555
H12_6 C18_6 1_555 1_555
N2_7 Ni1_9 1_555 1_555
H15_6 C24_6 1_555 1_555
C30_6 C29_6 1_555 1_555
H19_6 C30_6 1_555 1_555
C31_6 C26_6 1_555 1_555
H20_6 C31_6 1_555 1_555
C32_6 C29_6 1_555 1_555
C33_6 C32_6 1_555 1_555
H21_6 C33_6 1_555 1_555
C34_6 N2_7 1_555 1_555
H22_6 C34_6 1_555 1_555
O5_4 Ni1_9 1_555 1_555
O7_4 Ni1_9 1_555 1_555
C17_7 C18_6 1_555 1_555
C24_6 C25_6 1_555 1_555
C30_6 C31_6 1_555 1_555
C33_6 C34_6 1_555 1_555
O6_4 C1_7 1_555 1_555
O8_4 C1_7 1_555 1_555
C1_7 C2_7 1_555 1_555
C2_7 C3_7 1_555 1_555
C3_7 H1_7 1_555 1_555
C4_7 C3_7 1_555 1_555
H2_7 C4_7 1_555 1_555
C5_7 C4_7 1_555 1_555
C6_7 C5_7 1_555 1_555
H3_7 C6_7 1_555 1_555
C7_7 C2_7 1_555 1_555
H4_7 C7_7 1_555 1_555
C8_7 C5_7 1_555 1_555
C13_7 C8_7 1_555 1_555
H8_7 C13_7 1_555 1_555
O5_4 C19_7 1_555 1_555
O7_4 C19_7 1_555 1_555
C19_7 C20_7 1_555 1_555
C20_7 C21_7 1_555 1_555
C21_7 H13_7 1_555 1_555
C22_7 C21_7 1_555 1_555
H14_7 C22_7 1_555 1_555
C23_7 C22_7 1_555 1_555
C24_7 C23_7 1_555 1_555
H15_7 C24_7 1_555 1_555
C25_7 C20_7 1_555 1_555
H16_7 C25_7 1_555 1_555
C26_7 C23_7 1_555 1_555
C31_7 C26_7 1_555 1_555
H20_7 C31_7 1_555 1_555
C6_7 C7_7 1_555 1_555
C24_7 C25_7 1_555 1_555
O1_4 C1_8 1_555 1_555
O2_4 C1_8 1_555 1_555
C1_8 C2_8 1_555 1_555
C2_8 C3_8 1_555 1_555
C3_8 H1_8 1_555 1_555
C4_8 C3_8 1_555 1_555
H2_8 C4_8 1_555 1_555
C5_8 C4_8 1_555 1_555
C6_8 C5_8 1_555 1_555
H3_8 C6_8 1_555 1_555
C7_8 C2_8 1_555 1_555
H4_8 C7_8 1_555 1_555
C8_8 C5_8 1_555 1_555
C9_7 C8_8 1_555 1_555
H5_7 C9_7 1_555 1_555
C10_7 C9_7 1_555 1_555
H6_7 C10_7 1_555 1_555
C11_7 C10_7 1_555 1_555
C12_7 C11_7 1_555 1_555
H7_7 C12_7 1_555 1_555
C13_8 C8_8 1_555 1_555
H8_8 C13_8 1_555 1_555
C14_7 C11_7 1_555 1_555
C15_7 C14_7 1_555 1_555
H9_7 C15_7 1_555 1_555
C16_7 C15_7 1_555 1_555
H10_7 C16_7 1_555 1_555
C18_7 C14_7 1_555 1_555
H12_7 C18_7 1_555 1_555
Ni3_3 O1_4 1_555 1_555
O2_4 Ni3_3 1_555 1_555
C6_8 C7_8 1_555 1_555
C12_7 C13_8 1_555 1_555
O3_4 C19_8 1_555 1_555
O4_4 C19_8 1_555 1_555
C19_8 C20_8 1_555 1_555
C20_8 C21_8 1_555 1_555
C21_8 H13_8 1_555 1_555
C22_8 C21_8 1_555 1_555
H14_8 C22_8 1_555 1_555
C23_8 C22_8 1_555 1_555
C24_8 C23_8 1_555 1_555
H15_8 C24_8 1_555 1_555
C25_8 C20_8 1_555 1_555
H16_8 C25_8 1_555 1_555
C26_8 C23_8 1_555 1_555
C27_7 C26_8 1_555 1_555
H17_7 C27_7 1_555 1_555
C28_7 C27_7 1_555 1_555
H18_7 C28_7 1_555 1_555
C29_7 C28_7 1_555 1_555
C30_7 C29_7 1_555 1_555
H19_7 C30_7 1_555 1_555
C31_8 C26_8 1_555 1_555
H20_8 C31_8 1_555 1_555
C32_7 C29_7 1_555 1_555
C33_7 C32_7 1_555 1_555
H21_7 C33_7 1_555 1_555
H22_7 C34_7 1_555 1_555
C36_7 C32_7 1_555 1_555
H24_7 C36_7 1_555 1_555
Ni3_3 O3_4 1_555 1_555
O4_4 Ni3_3 1_555 1_555
C24_8 C25_8 1_555 1_555
C30_7 C31_8 1_555 1_555
C33_7 C34_7 1_555 1_555
Ni3_3 N1_8 1_555 1_555
N1_8 C16_8 1_555 1_555
H5_8 C9_8 1_555 1_555
C10_8 C9_8 1_555 1_555
H6_8 C10_8 1_555 1_555
C11_8 C10_8 1_555 1_555
C12_8 C11_8 1_555 1_555
H7_8 C12_8 1_555 1_555
C14_8 C11_8 1_555 1_555
C15_8 C14_8 1_555 1_555
H9_8 C15_8 1_555 1_555
C16_8 C15_8 1_555 1_555
H10_8 C16_8 1_555 1_555
C17_8 N1_8 1_555 1_555
H11_8 C17_8 1_555 1_555
C18_8 C14_8 1_555 1_555
H12_8 C18_8 1_555 1_555
N2_8 Ni3_3 1_555 1_555
H17_8 C27_8 1_555 1_555
C28_8 C27_8 1_555 1_555
H18_8 C28_8 1_555 1_555
C29_8 C28_8 1_555 1_555
C30_8 C29_8 1_555 1_555
H19_8 C30_8 1_555 1_555
C32_8 C29_8 1_555 1_555
C33_8 C32_8 1_555 1_555
H21_8 C33_8 1_555 1_555
C34_8 N2_8 1_555 1_555
H22_8 C34_8 1_555 1_555
C35_8 N2_8 1_555 1_555
H23_8 C35_8 1_555 1_555
C36_8 C32_8 1_555 1_555
H24_8 C36_8 1_555 1_555
C17_8 C18_8 1_555 1_555
C33_8 C34_8 1_555 1_555
C35_8 C36_8 1_555 1_555

#END
