
###############################################################################
#
# This file contains modified crystal structure data generated from the
# MOF subset of the Cambridge Structural Database (CSD) v543 
# hosted by the Cambridge Crystallographic Data Centre (CCDC).
#
# This work is licensed under the Creative Commons
# Attribution-NonCommercial-ShareAlike 4.0 International License.
# To view a copy of this license, visit
# http://creativecommons.org/licenses/by-nc-sa/4.0/
# or send a letter to
# Creative Commons, PO Box 1866, Mountain View, CA 94042, USA.
#
# CIF created using the CSD Python API on 29 September 2022
# The structure has been converted into the P1 space group
# The structure has a 3D framework
# The original CSD entry TEVVAU is in the tetragonal crystal system
# The framework has been calculated to contain at least 10.0% void space
# The void calculation uses a probe of radius 1.32A, grid spacing 0.4
#
###############################################################################

data_TEVVAU
_chemical_formula_moiety         '(C288 H192 N16 Ni18 O32)n'
_symmetry_cell_setting           triclinic
_symmetry_space_group_name_H-M   'P 1'
_symmetry_Int_Tables_number      1
_space_group_name_Hall           'P 1'
loop_
_symmetry_equiv_pos_site_id
_symmetry_equiv_pos_as_xyz
1 x,y,z
_cell_length_a                   24.2018(6)
_cell_length_b                   24.2018(6)
_cell_length_c                   16.2670(8)
_cell_angle_alpha                90
_cell_angle_beta                 90
_cell_angle_gamma                90
_cell_volume                     9528.02
loop_
_atom_site_label
_atom_site_type_symbol
_atom_site_fract_x
_atom_site_fract_y
_atom_site_fract_z
Ni1 Ni 0.0000 -0.0000 0.72221(10)
N1 N 0.01182(14) 0.44030(13) 0.0581(2)
C1 C 0.01877(16) 0.07465(15) 0.6287(2)
O2 O 0.04957(11) 0.03247(11) 0.62743(16)
C2 C 0.02165(17) 0.11568(16) 0.5601(2)
C3 C 0.06032(19) 0.11012(16) 0.4976(3)
H1 H 0.0859 0.0804 0.4989
C4 C 0.06187(19) 0.14745(17) 0.4336(3)
H2 H 0.0885 0.1433 0.3912
C5 C 0.0244(2) 0.19138(18) 0.4309(2)
C8 C 0.0257(2) 0.23327(18) 0.3643(3)
C9 C 0.0323(2) 0.21875(19) 0.2818(3)
H5 H 0.0380 0.1811 0.2674
C10 C 0.0306(2) 0.25876(17) 0.2207(3)
H6 H 0.0340 0.2483 0.1646
C11 C 0.0240(2) 0.31442(17) 0.2414(2)
C12 C 0.0180(2) 0.32917(18) 0.3236(3)
H7 H 0.0138 0.3669 0.3385
C13 C 0.0182(2) 0.28859(18) 0.3836(3)
H8 H 0.0130 0.2989 0.4394
C14 C 0.02127(18) 0.35794(17) 0.1763(2)
C17 C 0.04366(19) 0.44682(18) 0.1246(3)
H11 H 0.0635 0.4804 0.1306
C18 C 0.0490(2) 0.40726(18) 0.1844(3)
H12 H 0.0717 0.4139 0.2310
N3 N 0.05970(13) 0.01182(14) 0.8081(2)
Ni1_2 Ni 1.0000 -0.0000 0.72221(10)
O1 O 0.98371(11) 0.08125(11) 0.68637(17)
C6 C 0.9854(2) 0.19643(17) 0.4930(2)
H3 H 0.9597 0.2261 0.4916
C7 C 0.98353(19) 0.15861(16) 0.5573(2)
H4 H 0.9563 0.1621 0.5990
C15 C 0.98796(19) 0.35079(18) 0.1078(2)
H9 H 0.9680 0.3174 0.1003
C16 C 0.98414(18) 0.39289(17) 0.0505(2)
H10 H 0.9609 0.3878 0.0040
C10_2 C 0.24124(17) 0.0306(2) 0.9707(3)
H6_2 H 0.2517 0.0340 0.9146
C11_2 C 0.18558(17) 0.0240(2) 0.9914(2)
C14_2 C 0.14206(17) 0.02127(18) 0.9263(2)
C17_2 C 0.05318(18) 0.04366(19) 0.8746(3)
H11_2 H 0.0196 0.0635 0.8806
C18_2 C 0.09274(18) 0.0490(2) 0.9344(3)
H12_2 H 0.0861 0.0717 0.9810
C33 C 0.85079(18) 0.01204(19) 0.8578(2)
H21 H 0.8174 0.0320 0.8503
C34 C 0.89289(17) 0.01586(18) 0.8005(2)
H22 H 0.8878 0.0391 0.7540
Ni3 Ni -0.0000 0.5000 0.97221(10)
Ni3_2 Ni 1.0000 0.5000 0.97221(10)
O3 O 0.08125(11) 0.51629(11) 0.93637(17)
N2 N 0.44030(13) 0.48818(14) 0.3081(2)
C19 C 0.07465(15) 0.48123(16) 0.8787(2)
O4 O 0.03247(11) 0.45043(11) 0.87743(16)
C20 C 0.11568(16) 0.47835(17) 0.8101(2)
C21 C 0.11012(16) 0.43968(19) 0.7476(3)
H13 H 0.0804 0.4141 0.7489
C22 C 0.14745(17) 0.43813(19) 0.6836(3)
H14 H 0.1433 0.4115 0.6412
C23 C 0.19138(18) 0.4756(2) 0.6809(2)
C24 C 0.19643(17) 0.5146(2) 0.7430(2)
H15 H 0.2261 0.5403 0.7416
C25 C 0.15861(16) 0.51647(19) 0.8073(2)
H16 H 0.1621 0.5437 0.8490
C26 C 0.23327(18) 0.4743(2) 0.6143(3)
C27 C 0.21875(19) 0.4677(2) 0.5318(3)
H17 H 0.1811 0.4620 0.5174
C28 C 0.25876(17) 0.4694(2) 0.4707(3)
H18 H 0.2483 0.4660 0.4146
C29 C 0.31442(17) 0.4760(2) 0.4914(2)
C30 C 0.32917(18) 0.4820(2) 0.5736(3)
H19 H 0.3669 0.4862 0.5885
C31 C 0.28859(18) 0.4818(2) 0.6336(3)
H20 H 0.2989 0.4870 0.6894
C32 C 0.35794(17) 0.47873(18) 0.4263(2)
C33_2 C 0.35079(18) 0.51204(19) 0.3578(2)
H21_2 H 0.3174 0.5320 0.3503
C34_2 C 0.39289(17) 0.51586(18) 0.3005(2)
H22_2 H 0.3878 0.5391 0.2540
C35 C 0.44682(18) 0.45634(19) 0.3746(3)
H23 H 0.4804 0.4365 0.3806
C36 C 0.40726(18) 0.4510(2) 0.4344(3)
H24 H 0.4139 0.4283 0.4810
Ni2 Ni 0.5000 0.5000 0.22221(10)
O1_2 O 0.91875(11) 0.48371(11) 0.93637(17)
N1_2 N 0.55970(13) 0.51182(14) 0.3081(2)
C1_2 C 0.92535(15) 0.51877(16) 0.8787(2)
O2_2 O 0.96753(11) 0.54957(11) 0.87743(16)
C2_2 C 0.88432(16) 0.52165(17) 0.8101(2)
C3_2 C 0.88988(16) 0.56032(19) 0.7476(3)
H1_2 H 0.9196 0.5859 0.7489
C4_2 C 0.85255(17) 0.56187(19) 0.6836(3)
H2_2 H 0.8567 0.5885 0.6412
C5_2 C 0.80862(18) 0.5244(2) 0.6809(2)
C6_2 C 0.80357(17) 0.4854(2) 0.7430(2)
H3_2 H 0.7739 0.4597 0.7416
C7_2 C 0.84139(16) 0.48353(19) 0.8073(2)
H4_2 H 0.8379 0.4563 0.8490
C8_2 C 0.76673(18) 0.5257(2) 0.6143(3)
C9_2 C 0.78125(19) 0.5323(2) 0.5318(3)
H5_2 H 0.8189 0.5380 0.5174
C10_3 C 0.74124(17) 0.5306(2) 0.4707(3)
H6_3 H 0.7517 0.5340 0.4146
C11_3 C 0.68558(17) 0.5240(2) 0.4914(2)
C12_2 C 0.67083(18) 0.5180(2) 0.5736(3)
H7_2 H 0.6331 0.5138 0.5885
C13_2 C 0.71141(18) 0.5182(2) 0.6336(3)
H8_2 H 0.7011 0.5130 0.6894
C14_3 C 0.64206(17) 0.52127(18) 0.4263(2)
C15_2 C 0.64921(18) 0.48796(19) 0.3578(2)
H9_2 H 0.6826 0.4680 0.3503
C16_2 C 0.60711(17) 0.48414(18) 0.3005(2)
H10_2 H 0.6122 0.4609 0.2540
C17_3 C 0.55318(18) 0.54366(19) 0.3746(3)
H11_3 H 0.5196 0.5635 0.3806
C18_3 C 0.59274(18) 0.5490(2) 0.4344(3)
H12_3 H 0.5861 0.5717 0.4810
O1_3 O 0.48371(11) 0.58125(11) 0.18637(17)
C1_3 C 0.51877(16) 0.57465(15) 0.1287(2)
O2_3 O 0.54957(11) 0.53247(11) 0.12743(16)
C2_3 C 0.52165(17) 0.61568(16) 0.0601(2)
C7_3 C 0.48353(19) 0.65861(16) 0.0573(2)
H4_3 H 0.4563 0.6621 0.0990
O3_2 O 0.51629(11) 0.41875(11) 0.18637(17)
C19_2 C 0.48123(16) 0.42535(15) 0.1287(2)
O4_2 O 0.45043(11) 0.46753(11) 0.12743(16)
C20_2 C 0.47835(17) 0.38432(16) 0.0601(2)
C25_2 C 0.51647(19) 0.34139(16) 0.0573(2)
H16_2 H 0.5437 0.3379 0.0990
Ni1_3 Ni 0.0000 1.0000 0.72221(10)
O3_3 O 0.01629(11) 0.91875(11) 0.68637(17)
C24_2 C 0.0146(2) 0.80357(17) 0.4930(2)
H15_2 H 0.0403 0.7739 0.4916
C25_3 C 0.01647(19) 0.84139(16) 0.5573(2)
H16_3 H 0.0437 0.8379 0.5990
C33_3 C 0.01204(19) 0.64921(18) 0.1078(2)
H21_3 H 0.0320 0.6826 0.1003
C34_3 C 0.01586(18) 0.60711(17) 0.0505(2)
H22_3 H 0.0391 0.6122 0.0040
Ni1_4 Ni 1.0000 1.0000 0.72221(10)
N2_2 N 0.98818(14) 0.55970(13) 0.0581(2)
C19_3 C 0.98123(16) 0.92535(15) 0.6287(2)
O4_3 O 0.95043(11) 0.96753(11) 0.62743(16)
C20_3 C 0.97835(17) 0.88432(16) 0.5601(2)
C21_2 C 0.93968(19) 0.88988(16) 0.4976(3)
H13_2 H 0.9141 0.9196 0.4989
C22_2 C 0.93813(19) 0.85255(17) 0.4336(3)
H14_2 H 0.9115 0.8567 0.3912
C23_2 C 0.9756(2) 0.80862(18) 0.4309(2)
C26_2 C 0.9743(2) 0.76673(18) 0.3643(3)
C27_2 C 0.9677(2) 0.78125(19) 0.2818(3)
H17_2 H 0.9620 0.8189 0.2674
C28_2 C 0.9694(2) 0.74124(17) 0.2207(3)
H18_2 H 0.9660 0.7517 0.1646
C29_2 C 0.9760(2) 0.68558(17) 0.2414(2)
C30_2 C 0.9820(2) 0.67083(18) 0.3236(3)
H19_2 H 0.9862 0.6331 0.3385
C31_2 C 0.9818(2) 0.71141(18) 0.3836(3)
H20_2 H 0.9870 0.7011 0.4394
C32_2 C 0.97873(18) 0.64206(17) 0.1763(2)
C35_2 C 0.95634(19) 0.55318(18) 0.1246(3)
H23_2 H 0.9365 0.5196 0.1306
C36_2 C 0.9510(2) 0.59274(18) 0.1844(3)
H24_2 H 0.9283 0.5861 0.2310
N4 N 0.94030(13) 0.98818(14) 0.8081(2)
C15_3 C 0.14921(18) 0.98796(19) 0.8578(2)
H9_3 H 0.1826 0.9680 0.8503
C16_3 C 0.10711(17) 0.98414(18) 0.8005(2)
H10_3 H 0.1122 0.9609 0.7540
C28_3 C 0.75876(17) 0.9694(2) 0.9707(3)
H18_3 H 0.7483 0.9660 0.9146
C29_3 C 0.81442(17) 0.9760(2) 0.9914(2)
C32_3 C 0.85794(17) 0.97873(18) 0.9263(2)
C35_3 C 0.94682(18) 0.95634(19) 0.8746(3)
H23_3 H 0.9804 0.9365 0.8806
C36_3 C 0.90726(18) 0.9510(2) 0.9344(3)
H24_3 H 0.9139 0.9283 0.9810
Ni1_5 Ni 0.0000 -0.0000 0.22221(10)
O1_4 O 0.01629(11) 0.08125(11) 0.18637(17)
C7_4 C 0.01647(19) 0.15861(16) 0.0573(2)
H4_4 H 0.0437 0.1621 0.0990
Ni1_6 Ni 0.0000 1.0000 0.22221(10)
C19_4 C 0.01877(16) 0.92535(15) 0.1287(2)
O4_4 O 0.04957(11) 0.96753(11) 0.12743(16)
C20_4 C 0.02165(17) 0.88432(16) 0.0601(2)
N4_2 N 0.05970(13) 0.98818(14) 0.3081(2)
Ni1_7 Ni 1.0000 -0.0000 0.22221(10)
C1_4 C 0.98123(16) 0.07465(15) 0.1287(2)
O2_4 O 0.95043(11) 0.03247(11) 0.12743(16)
C2_4 C 0.97835(17) 0.11568(16) 0.0601(2)
N3_2 N 0.94030(13) 0.01182(14) 0.3081(2)
Ni1_8 Ni 1.0000 1.0000 0.22221(10)
O3_4 O 0.98371(11) 0.91875(11) 0.18637(17)
C25_4 C 0.98353(19) 0.84139(16) 0.0573(2)
H16_4 H 0.9563 0.8379 0.0990
Ni1_9 Ni 0.5000 0.0000 0.97221(10)
O1_5 O 0.41875(11) 0.01629(11) 0.93637(17)
C6_3 C 0.30357(17) 0.0146(2) 0.7430(2)
H3_3 H 0.2739 0.0403 0.7416
C7_5 C 0.34139(16) 0.01647(19) 0.8073(2)
H4_5 H 0.3379 0.0437 0.8490
C15_4 C 0.14921(18) 0.01204(19) 0.3578(2)
H9_4 H 0.1826 0.0320 0.3503
C16_4 C 0.10711(17) 0.01586(18) 0.3005(2)
H10_4 H 0.1122 0.0391 0.2540
C19_5 C 0.57465(15) 0.01877(16) 0.8787(2)
O4_5 O 0.53247(11) 0.04957(11) 0.87743(16)
C20_5 C 0.61568(16) 0.02165(17) 0.8101(2)
C21_3 C 0.61012(16) 0.06032(19) 0.7476(3)
H13_3 H 0.5804 0.0859 0.7489
C22_3 C 0.64745(17) 0.06187(19) 0.6836(3)
H14_3 H 0.6433 0.0885 0.6412
C23_3 C 0.69138(18) 0.0244(2) 0.6809(2)
C26_3 C 0.73327(18) 0.0257(2) 0.6143(3)
C27_3 C 0.71875(19) 0.0323(2) 0.5318(3)
H17_3 H 0.6811 0.0380 0.5174
C28_4 C 0.75876(17) 0.0306(2) 0.4707(3)
H18_4 H 0.7483 0.0340 0.4146
C29_4 C 0.81442(17) 0.0240(2) 0.4914(2)
C30_3 C 0.82917(18) 0.0180(2) 0.5736(3)
H19_3 H 0.8669 0.0138 0.5885
C31_3 C 0.78859(18) 0.0182(2) 0.6336(3)
H20_3 H 0.7989 0.0130 0.6894
C32_4 C 0.85794(17) 0.02127(18) 0.4263(2)
C35_4 C 0.94682(18) 0.04366(19) 0.3746(3)
H23_4 H 0.9804 0.0635 0.3806
C36_4 C 0.90726(18) 0.0490(2) 0.4344(3)
H24_4 H 0.9139 0.0717 0.4810
Ni1_10 Ni 0.5000 1.0000 0.97221(10)
C1_5 C 0.42535(15) 0.98123(16) 0.8787(2)
O2_5 O 0.46753(11) 0.95043(11) 0.87743(16)
C2_5 C 0.38432(16) 0.97835(17) 0.8101(2)
C3_3 C 0.38988(16) 0.93968(19) 0.7476(3)
H1_3 H 0.4196 0.9141 0.7489
C4_3 C 0.35255(17) 0.93813(19) 0.6836(3)
H2_3 H 0.3567 0.9115 0.6412
C5_3 C 0.30862(18) 0.9756(2) 0.6809(2)
C8_3 C 0.26673(18) 0.9743(2) 0.6143(3)
C9_3 C 0.28125(19) 0.9677(2) 0.5318(3)
H5_3 H 0.3189 0.9620 0.5174
C10_4 C 0.24124(17) 0.9694(2) 0.4707(3)
H6_4 H 0.2517 0.9660 0.4146
C11_4 C 0.18558(17) 0.9760(2) 0.4914(2)
C12_3 C 0.17083(18) 0.9820(2) 0.5736(3)
H7_3 H 0.1331 0.9862 0.5885
C13_3 C 0.21141(18) 0.9818(2) 0.6336(3)
H8_3 H 0.2011 0.9870 0.6894
C14_4 C 0.14206(17) 0.97873(18) 0.4263(2)
C17_4 C 0.05318(18) 0.95634(19) 0.3746(3)
H11_4 H 0.0196 0.9365 0.3806
C18_4 C 0.09274(18) 0.9510(2) 0.4344(3)
H12_4 H 0.0861 0.9283 0.4810
O3_5 O 0.58125(11) 0.98371(11) 0.93637(17)
C24_3 C 0.69643(17) 0.9854(2) 0.7430(2)
H15_3 H 0.7261 0.9597 0.7416
C25_5 C 0.65861(16) 0.98353(19) 0.8073(2)
H16_5 H 0.6621 0.9563 0.8490
C33_4 C 0.85079(18) 0.98796(19) 0.3578(2)
H21_4 H 0.8174 0.9680 0.3503
C34_4 C 0.89289(17) 0.98414(18) 0.3005(2)
H22_4 H 0.8878 0.9609 0.2540
C6_4 C 0.0146(2) 0.19643(17) 0.9930(2)
H3_4 H 0.0403 0.2261 0.9916
C15_5 C 0.01204(19) 0.35079(18) 0.6078(2)
H9_5 H 0.0320 0.3174 0.6003
C16_5 C 0.01586(18) 0.39289(17) 0.5505(2)
H10_5 H 0.0391 0.3878 0.5040
Ni3_3 Ni 0.0000 0.5000 0.47221(10)
N2_3 N 0.01182(14) 0.55970(13) 0.5581(2)
C21_4 C 0.06032(19) 0.88988(16) 0.9976(3)
H13_4 H 0.0859 0.9196 0.9989
C22_4 C 0.06187(19) 0.85255(17) 0.9336(3)
H14_4 H 0.0885 0.8567 0.8912
C23_4 C 0.0244(2) 0.80862(18) 0.9309(2)
C26_4 C 0.0257(2) 0.76673(18) 0.8643(3)
C27_4 C 0.0323(2) 0.78125(19) 0.7818(3)
H17_4 H 0.0380 0.8189 0.7674
C28_5 C 0.0306(2) 0.74124(17) 0.7207(3)
H18_5 H 0.0340 0.7517 0.6646
C29_5 C 0.0240(2) 0.68558(17) 0.7414(2)
C30_4 C 0.0180(2) 0.67083(18) 0.8236(3)
H19_4 H 0.0138 0.6331 0.8385
C31_4 C 0.0182(2) 0.71141(18) 0.8836(3)
H20_4 H 0.0130 0.7011 0.9394
C32_5 C 0.02127(18) 0.64206(17) 0.6763(2)
C35_5 C 0.04366(19) 0.55318(18) 0.6246(3)
H23_5 H 0.0635 0.5196 0.6306
C36_5 C 0.0490(2) 0.59274(18) 0.6844(3)
H24_5 H 0.0717 0.5861 0.7310
O3_6 O 0.08125(11) 0.48371(11) 0.43637(17)
C19_6 C 0.07465(15) 0.51877(16) 0.3787(2)
O4_6 O 0.03247(11) 0.54957(11) 0.37743(16)
C20_6 C 0.11568(16) 0.52165(17) 0.3101(2)
C21_5 C 0.11012(16) 0.56032(19) 0.2476(3)
H13_5 H 0.0804 0.5859 0.2489
C22_5 C 0.14745(17) 0.56187(19) 0.1836(3)
H14_5 H 0.1433 0.5885 0.1412
C23_5 C 0.19138(18) 0.5244(2) 0.1809(2)
C24_4 C 0.19643(17) 0.4854(2) 0.2430(2)
H15_4 H 0.2261 0.4597 0.2416
C25_6 C 0.15861(16) 0.48353(19) 0.3073(2)
H16_6 H 0.1621 0.4563 0.3490
C26_5 C 0.23327(18) 0.5257(2) 0.1143(3)
C27_5 C 0.21875(19) 0.5323(2) 0.0318(3)
H17_5 H 0.1811 0.5380 0.0174
C30_5 C 0.32917(18) 0.5180(2) 0.0736(3)
H19_5 H 0.3669 0.5138 0.0885
C31_5 C 0.28859(18) 0.5182(2) 0.1336(3)
H20_5 H 0.2989 0.5130 0.1894
N1_3 N 0.98818(14) 0.44030(13) 0.5581(2)
C3_4 C 0.93968(19) 0.11012(16) 0.9976(3)
H1_4 H 0.9141 0.0804 0.9989
C4_4 C 0.93813(19) 0.14745(17) 0.9336(3)
H2_4 H 0.9115 0.1433 0.8912
C5_4 C 0.9756(2) 0.19138(18) 0.9309(2)
C8_4 C 0.9743(2) 0.23327(18) 0.8643(3)
C9_4 C 0.9677(2) 0.21875(19) 0.7818(3)
H5_4 H 0.9620 0.1811 0.7674
C10_5 C 0.9694(2) 0.25876(17) 0.7207(3)
H6_5 H 0.9660 0.2483 0.6646
C11_5 C 0.9760(2) 0.31442(17) 0.7414(2)
C12_4 C 0.9820(2) 0.32917(18) 0.8236(3)
H7_4 H 0.9862 0.3669 0.8385
C13_4 C 0.9818(2) 0.28859(18) 0.8836(3)
H8_4 H 0.9870 0.2989 0.9394
C14_5 C 0.97873(18) 0.35794(17) 0.6763(2)
C17_5 C 0.95634(19) 0.44682(18) 0.6246(3)
H11_5 H 0.9365 0.4804 0.6306
C18_5 C 0.9510(2) 0.40726(18) 0.6844(3)
H12_5 H 0.9283 0.4139 0.7310
Ni3_4 Ni 1.0000 0.5000 0.47221(10)
C24_5 C 0.9854(2) 0.80357(17) 0.9930(2)
H15_5 H 0.9597 0.7739 0.9916
C33_5 C 0.98796(19) 0.64921(18) 0.6078(2)
H21_5 H 0.9680 0.6826 0.6003
C34_5 C 0.98414(18) 0.60711(17) 0.5505(2)
H22_5 H 0.9609 0.6122 0.5040
O1_6 O 0.91875(11) 0.51629(11) 0.43637(17)
C1_6 C 0.92535(15) 0.48123(16) 0.3787(2)
O2_6 O 0.96753(11) 0.45043(11) 0.37743(16)
C2_6 C 0.88432(16) 0.47835(17) 0.3101(2)
C3_5 C 0.88988(16) 0.43968(19) 0.2476(3)
H1_5 H 0.9196 0.4141 0.2489
C4_5 C 0.85255(17) 0.43813(19) 0.1836(3)
H2_5 H 0.8567 0.4115 0.1412
C5_5 C 0.80862(18) 0.4756(2) 0.1809(2)
C6_5 C 0.80357(17) 0.5146(2) 0.2430(2)
H3_5 H 0.7739 0.5403 0.2416
C7_6 C 0.84139(16) 0.51647(19) 0.3073(2)
H4_6 H 0.8379 0.5437 0.3490
C8_5 C 0.76673(18) 0.4743(2) 0.1143(3)
C9_5 C 0.78125(19) 0.4677(2) 0.0318(3)
H5_5 H 0.8189 0.4620 0.0174
C12_5 C 0.67083(18) 0.4820(2) 0.0736(3)
H7_5 H 0.6331 0.4862 0.0885
C13_5 C 0.71141(18) 0.4818(2) 0.1336(3)
H8_5 H 0.7011 0.4870 0.1894
N4_3 N 0.51182(14) 0.05970(13) 0.0581(2)
N3_3 N 0.48818(14) 0.94030(13) 0.0581(2)
Ni1_11 Ni 0.5000 0.5000 0.72221(10)
O1_7 O 0.51629(11) 0.58125(11) 0.68637(17)
C1_7 C 0.48123(16) 0.57465(15) 0.6287(2)
O2_7 O 0.45043(11) 0.53247(11) 0.62743(16)
C2_7 C 0.47835(17) 0.61568(16) 0.5601(2)
C3_6 C 0.43968(19) 0.61012(16) 0.4976(3)
H1_6 H 0.4141 0.5804 0.4989
C4_6 C 0.43813(19) 0.64745(17) 0.4336(3)
H2_6 H 0.4115 0.6433 0.3912
C5_6 C 0.4756(2) 0.69138(18) 0.4309(2)
C6_6 C 0.5146(2) 0.69643(17) 0.4930(2)
H3_6 H 0.5403 0.7261 0.4916
C7_7 C 0.51647(19) 0.65861(16) 0.5573(2)
H4_7 H 0.5437 0.6621 0.5990
C8_6 C 0.4743(2) 0.73327(18) 0.3643(3)
C9_6 C 0.4677(2) 0.71875(19) 0.2818(3)
H5_6 H 0.4620 0.6811 0.2674
C10_6 C 0.4694(2) 0.75876(17) 0.2207(3)
H6_6 H 0.4660 0.7483 0.1646
C11_6 C 0.4760(2) 0.81442(17) 0.2414(2)
C12_6 C 0.4820(2) 0.82917(18) 0.3236(3)
H7_6 H 0.4862 0.8669 0.3385
C13_6 C 0.4818(2) 0.78859(18) 0.3836(3)
H8_6 H 0.4870 0.7989 0.4394
C14_6 C 0.47873(18) 0.85794(17) 0.1763(2)
C15_6 C 0.51204(19) 0.85079(18) 0.1078(2)
H9_6 H 0.5320 0.8174 0.1003
C16_6 C 0.51586(18) 0.89289(17) 0.0505(2)
H10_6 H 0.5391 0.8878 0.0040
C17_6 C 0.45634(19) 0.94682(18) 0.1246(3)
H11_6 H 0.4365 0.9804 0.1306
C18_6 C 0.4510(2) 0.90726(18) 0.1844(3)
H12_6 H 0.4283 0.9139 0.2310
O3_7 O 0.48371(11) 0.41875(11) 0.68637(17)
C19_7 C 0.51877(16) 0.42535(15) 0.6287(2)
O4_7 O 0.54957(11) 0.46753(11) 0.62743(16)
C20_7 C 0.52165(17) 0.38432(16) 0.5601(2)
C21_6 C 0.56032(19) 0.38988(16) 0.4976(3)
H13_6 H 0.5859 0.4196 0.4989
C22_6 C 0.56187(19) 0.35255(17) 0.4336(3)
H14_6 H 0.5885 0.3567 0.3912
C23_6 C 0.5244(2) 0.30862(18) 0.4309(2)
C24_6 C 0.4854(2) 0.30357(17) 0.4930(2)
H15_6 H 0.4597 0.2739 0.4916
C25_7 C 0.48353(19) 0.34139(16) 0.5573(2)
H16_7 H 0.4563 0.3379 0.5990
C26_6 C 0.5257(2) 0.26673(18) 0.3643(3)
C27_6 C 0.5323(2) 0.28125(19) 0.2818(3)
H17_6 H 0.5380 0.3189 0.2674
C28_6 C 0.5306(2) 0.24124(17) 0.2207(3)
H18_6 H 0.5340 0.2517 0.1646
C29_6 C 0.5240(2) 0.18558(17) 0.2414(2)
C30_6 C 0.5180(2) 0.17083(18) 0.3236(3)
H19_6 H 0.5138 0.1331 0.3385
C31_6 C 0.5182(2) 0.21141(18) 0.3836(3)
H20_6 H 0.5130 0.2011 0.4394
C32_6 C 0.52127(18) 0.14206(17) 0.1763(2)
C33_6 C 0.48796(19) 0.14921(18) 0.1078(2)
H21_6 H 0.4680 0.1826 0.1003
C34_6 C 0.48414(18) 0.10711(17) 0.0505(2)
H22_6 H 0.4609 0.1122 0.0040
C35_6 C 0.54366(19) 0.05318(18) 0.1246(3)
H23_6 H 0.5635 0.0196 0.1306
C36_6 C 0.5490(2) 0.09274(18) 0.1844(3)
H24_6 H 0.5717 0.0861 0.2310
N3_4 N 0.44030(13) 0.51182(14) 0.8081(2)
N4_4 N 0.55970(13) 0.48818(14) 0.8081(2)
C28_7 C 0.25876(17) 0.5306(2) 0.9707(3)
H18_7 H 0.2483 0.5340 0.9146
C29_7 C 0.31442(17) 0.5240(2) 0.9914(2)
C32_7 C 0.35794(17) 0.52127(18) 0.9263(2)
C33_7 C 0.35079(18) 0.48796(19) 0.8578(2)
H21_7 H 0.3174 0.4680 0.8503
C34_7 C 0.39289(17) 0.48414(18) 0.8005(2)
H22_7 H 0.3878 0.4609 0.7540
C35_7 C 0.44682(18) 0.54366(19) 0.8746(3)
H23_7 H 0.4804 0.5635 0.8806
C36_7 C 0.40726(18) 0.5490(2) 0.9344(3)
H24_7 H 0.4139 0.5717 0.9810
C10_7 C 0.74124(17) 0.4694(2) 0.9707(3)
H6_7 H 0.7517 0.4660 0.9146
C11_7 C 0.68558(17) 0.4760(2) 0.9914(2)
C14_7 C 0.64206(17) 0.47873(18) 0.9263(2)
C15_7 C 0.64921(18) 0.51204(19) 0.8578(2)
H9_7 H 0.6826 0.5320 0.8503
C16_7 C 0.60711(17) 0.51586(18) 0.8005(2)
H10_7 H 0.6122 0.5391 0.7540
C17_7 C 0.55318(18) 0.45634(19) 0.8746(3)
H11_7 H 0.5196 0.4365 0.8806
C18_7 C 0.59274(18) 0.4510(2) 0.9344(3)
H12_7 H 0.5861 0.4283 0.9810
Ni3_5 Ni 0.5000 0.0000 0.47221(10)
N1_4 N 0.51182(14) 0.94030(13) 0.5581(2)
C3_7 C 0.56032(19) 0.61012(16) 0.9976(3)
H1_7 H 0.5859 0.5804 0.9989
C4_7 C 0.56187(19) 0.64745(17) 0.9336(3)
H2_7 H 0.5885 0.6433 0.8912
C5_7 C 0.5244(2) 0.69138(18) 0.9309(2)
C6_7 C 0.4854(2) 0.69643(17) 0.9930(2)
H3_7 H 0.4597 0.7261 0.9916
C8_7 C 0.5257(2) 0.73327(18) 0.8643(3)
C9_7 C 0.5323(2) 0.71875(19) 0.7818(3)
H5_7 H 0.5380 0.6811 0.7674
C10_8 C 0.5306(2) 0.75876(17) 0.7207(3)
H6_8 H 0.5340 0.7483 0.6646
C11_8 C 0.5240(2) 0.81442(17) 0.7414(2)
C12_7 C 0.5180(2) 0.82917(18) 0.8236(3)
H7_7 H 0.5138 0.8669 0.8385
C13_7 C 0.5182(2) 0.78859(18) 0.8836(3)
H8_7 H 0.5130 0.7989 0.9394
C14_8 C 0.52127(18) 0.85794(17) 0.6763(2)
C15_8 C 0.48796(19) 0.85079(18) 0.6078(2)
H9_8 H 0.4680 0.8174 0.6003
C16_8 C 0.48414(18) 0.89289(17) 0.5505(2)
H10_8 H 0.4609 0.8878 0.5040
C17_8 C 0.54366(19) 0.94682(18) 0.6246(3)
H11_8 H 0.5635 0.9804 0.6306
C18_8 C 0.5490(2) 0.90726(18) 0.6844(3)
H12_8 H 0.5717 0.9139 0.7310
N2_4 N 0.48818(14) 0.05970(13) 0.5581(2)
C21_7 C 0.43968(19) 0.38988(16) 0.9976(3)
H13_7 H 0.4141 0.4196 0.9989
C22_7 C 0.43813(19) 0.35255(17) 0.9336(3)
H14_7 H 0.4115 0.3567 0.8912
C23_7 C 0.4756(2) 0.30862(18) 0.9309(2)
C24_7 C 0.5146(2) 0.30357(17) 0.9930(2)
H15_7 H 0.5403 0.2739 0.9916
C26_7 C 0.4743(2) 0.26673(18) 0.8643(3)
C27_7 C 0.4677(2) 0.28125(19) 0.7818(3)
H17_7 H 0.4620 0.3189 0.7674
C28_8 C 0.4694(2) 0.24124(17) 0.7207(3)
H18_8 H 0.4660 0.2517 0.6646
C29_8 C 0.4760(2) 0.18558(17) 0.7414(2)
C30_7 C 0.4820(2) 0.17083(18) 0.8236(3)
H19_7 H 0.4862 0.1331 0.8385
C31_7 C 0.4818(2) 0.21141(18) 0.8836(3)
H20_7 H 0.4870 0.2011 0.9394
C32_8 C 0.47873(18) 0.14206(17) 0.6763(2)
C33_8 C 0.51204(19) 0.14921(18) 0.6078(2)
H21_8 H 0.5320 0.1826 0.6003
C34_8 C 0.51586(18) 0.10711(17) 0.5505(2)
H22_8 H 0.5391 0.1122 0.5040
C35_8 C 0.45634(19) 0.05318(18) 0.6246(3)
H23_8 H 0.4365 0.0196 0.6306
C36_8 C 0.4510(2) 0.09274(18) 0.6844(3)
H24_8 H 0.4283 0.0861 0.7310
Ni3_6 Ni 0.5000 1.0000 0.47221(10)
C1_8 C 0.42535(15) 0.01877(16) 0.3787(2)
O2_8 O 0.46753(11) 0.04957(11) 0.37743(16)
C2_8 C 0.38432(16) 0.02165(17) 0.3101(2)
C3_8 C 0.38988(16) 0.06032(19) 0.2476(3)
H1_8 H 0.4196 0.0859 0.2489
C4_8 C 0.35255(17) 0.06187(19) 0.1836(3)
H2_8 H 0.3567 0.0885 0.1412
C5_8 C 0.30862(18) 0.0244(2) 0.1809(2)
C8_8 C 0.26673(18) 0.0257(2) 0.1143(3)
C9_8 C 0.28125(19) 0.0323(2) 0.0318(3)
H5_8 H 0.3189 0.0380 0.0174
C12_8 C 0.17083(18) 0.0180(2) 0.0736(3)
H7_8 H 0.1331 0.0138 0.0885
C13_8 C 0.21141(18) 0.0182(2) 0.1336(3)
H8_8 H 0.2011 0.0130 0.1894
O3_8 O 0.58125(11) 0.01629(11) 0.43637(17)
C24_8 C 0.69643(17) 0.0146(2) 0.2430(2)
H15_8 H 0.7261 0.0403 0.2416
C25_8 C 0.65861(16) 0.01647(19) 0.3073(2)
H16_8 H 0.6621 0.0437 0.3490
O1_8 O 0.41875(11) 0.98371(11) 0.43637(17)
C6_8 C 0.30357(17) 0.9854(2) 0.2430(2)
H3_8 H 0.2739 0.9597 0.2416
C7_8 C 0.34139(16) 0.98353(19) 0.3073(2)
H4_8 H 0.3379 0.9563 0.3490
C19_8 C 0.57465(15) 0.98123(16) 0.3787(2)
O4_8 O 0.53247(11) 0.95043(11) 0.37743(16)
C20_8 C 0.61568(16) 0.97835(17) 0.3101(2)
C21_8 C 0.61012(16) 0.93968(19) 0.2476(3)
H13_8 H 0.5804 0.9141 0.2489
C22_8 C 0.64745(17) 0.93813(19) 0.1836(3)
H14_8 H 0.6433 0.9115 0.1412
C23_8 C 0.69138(18) 0.9756(2) 0.1809(2)
C26_8 C 0.73327(18) 0.9743(2) 0.1143(3)
C27_8 C 0.71875(19) 0.9677(2) 0.0318(3)
H17_8 H 0.6811 0.9620 0.0174
C30_8 C 0.82917(18) 0.9820(2) 0.0736(3)
H19_8 H 0.8669 0.9862 0.0885
C31_8 C 0.78859(18) 0.9818(2) 0.1336(3)
H20_8 H 0.7989 0.9870 0.1894
loop_
_geom_bond_atom_site_label_1
_geom_bond_atom_site_label_2
_geom_bond_site_symmetry_1
_geom_bond_site_symmetry_2
C1 O2 1_555 1_555
O2 Ni1 1_555 1_555
C2 C1 1_555 1_555
C3 C2 1_555 1_555
H1 C3 1_555 1_555
C4 C3 1_555 1_555
H2 C4 1_555 1_555
C5 C4 1_555 1_555
C8 C5 1_555 1_555
C9 C8 1_555 1_555
H5 C9 1_555 1_555
C10 C9 1_555 1_555
H6 C10 1_555 1_555
C11 C10 1_555 1_555
C12 C11 1_555 1_555
H7 C12 1_555 1_555
C13 C8 1_555 1_555
H8 C13 1_555 1_555
C14 C11 1_555 1_555
C17 N1 1_555 1_555
H11 C17 1_555 1_555
C18 C14 1_555 1_555
H12 C18 1_555 1_555
N3 Ni1 1_555 1_555
C12 C13 1_555 1_555
C17 C18 1_555 1_555
Ni1_2 O1 1_555 1_555
H3 C6 1_555 1_555
H4 C7 1_555 1_555
H9 C15 1_555 1_555
C16 C15 1_555 1_555
H10 C16 1_555 1_555
C6 C7 1_555 1_555
H6_2 C10_2 1_555 1_555
C11_2 C10_2 1_555 1_555
C14_2 C11_2 1_555 1_555
C17_2 N3 1_555 1_555
H11_2 C17_2 1_555 1_555
C18_2 C14_2 1_555 1_555
H12_2 C18_2 1_555 1_555
H21 C33 1_555 1_555
C34 C33 1_555 1_555
H22 C34 1_555 1_555
C17_2 C18_2 1_555 1_555
O3 Ni3 1_555 1_555
N2 C34_2 1_555 1_555
C19 O3 1_555 1_555
O4 Ni3 1_555 1_555
C20 C19 1_555 1_555
C21 C20 1_555 1_555
H13 C21 1_555 1_555
C22 C21 1_555 1_555
H14 C22 1_555 1_555
C23 C22 1_555 1_555
C24 C23 1_555 1_555
H15 C24 1_555 1_555
C25 C20 1_555 1_555
H16 C25 1_555 1_555
C26 C23 1_555 1_555
C27 C26 1_555 1_555
H17 C27 1_555 1_555
C28 C27 1_555 1_555
H18 C28 1_555 1_555
C29 C28 1_555 1_555
C30 C29 1_555 1_555
H19 C30 1_555 1_555
C31 C26 1_555 1_555
H20 C31 1_555 1_555
C32 C29 1_555 1_555
C33_2 C32 1_555 1_555
H21_2 C33_2 1_555 1_555
C34_2 C33_2 1_555 1_555
H22_2 C34_2 1_555 1_555
C35 N2 1_555 1_555
H23 C35 1_555 1_555
C36 C32 1_555 1_555
H24 C36 1_555 1_555
Ni2 N2 1_555 1_555
C19 O4 1_555 1_555
C24 C25 1_555 1_555
C30 C31 1_555 1_555
C35 C36 1_555 1_555
Ni3_2 O1_2 1_555 1_555
O1_2 C1_2 1_555 1_555
N1_2 C16_2 1_555 1_555
C1_2 O2_2 1_555 1_555
O2_2 Ni3_2 1_555 1_555
C2_2 C1_2 1_555 1_555
C3_2 C2_2 1_555 1_555
H1_2 C3_2 1_555 1_555
C4_2 C3_2 1_555 1_555
H2_2 C4_2 1_555 1_555
C5_2 C4_2 1_555 1_555
C6_2 C5_2 1_555 1_555
H3_2 C6_2 1_555 1_555
C7_2 C2_2 1_555 1_555
H4_2 C7_2 1_555 1_555
C8_2 C5_2 1_555 1_555
C9_2 C8_2 1_555 1_555
H5_2 C9_2 1_555 1_555
C10_3 C9_2 1_555 1_555
H6_3 C10_3 1_555 1_555
C11_3 C10_3 1_555 1_555
C12_2 C11_3 1_555 1_555
H7_2 C12_2 1_555 1_555
C13_2 C8_2 1_555 1_555
H8_2 C13_2 1_555 1_555
C14_3 C11_3 1_555 1_555
C15_2 C14_3 1_555 1_555
H9_2 C15_2 1_555 1_555
C16_2 C15_2 1_555 1_555
H10_2 C16_2 1_555 1_555
C17_3 N1_2 1_555 1_555
H11_3 C17_3 1_555 1_555
C18_3 C14_3 1_555 1_555
H12_3 C18_3 1_555 1_555
Ni2 N1_2 1_555 1_555
C6_2 C7_2 1_555 1_555
C12_2 C13_2 1_555 1_555
C17_3 C18_3 1_555 1_555
Ni2 O1_3 1_555 1_555
O1_3 C1_3 1_555 1_555
C1_3 O2_3 1_555 1_555
O2_3 Ni2 1_555 1_555
C2_3 C1_3 1_555 1_555
C7_3 C2_3 1_555 1_555
H4_3 C7_3 1_555 1_555
O3_2 Ni2 1_555 1_555
C19_2 O3_2 1_555 1_555
O4_2 Ni2 1_555 1_555
C20_2 C19_2 1_555 1_555
C25_2 C20_2 1_555 1_555
H16_2 C25_2 1_555 1_555
C19_2 O4_2 1_555 1_555
O3_3 Ni1_3 1_555 1_555
H15_2 C24_2 1_555 1_555
H16_3 C25_3 1_555 1_555
H21_3 C33_3 1_555 1_555
C34_3 C33_3 1_555 1_555
H22_3 C34_3 1_555 1_555
C24_2 C25_3 1_555 1_555
O4_3 Ni1_4 1_555 1_555
C20_3 C19_3 1_555 1_555
C21_2 C20_3 1_555 1_555
H13_2 C21_2 1_555 1_555
C22_2 C21_2 1_555 1_555
H14_2 C22_2 1_555 1_555
C23_2 C22_2 1_555 1_555
C26_2 C23_2 1_555 1_555
C27_2 C26_2 1_555 1_555
H17_2 C27_2 1_555 1_555
C28_2 C27_2 1_555 1_555
H18_2 C28_2 1_555 1_555
C29_2 C28_2 1_555 1_555
C30_2 C29_2 1_555 1_555
H19_2 C30_2 1_555 1_555
C31_2 C26_2 1_555 1_555
H20_2 C31_2 1_555 1_555
C32_2 C29_2 1_555 1_555
C35_2 N2_2 1_555 1_555
H23_2 C35_2 1_555 1_555
C36_2 C32_2 1_555 1_555
H24_2 C36_2 1_555 1_555
N4 Ni1_4 1_555 1_555
C19_3 O4_3 1_555 1_555
C30_2 C31_2 1_555 1_555
C35_2 C36_2 1_555 1_555
H9_3 C15_3 1_555 1_555
C16_3 C15_3 1_555 1_555
H10_3 C16_3 1_555 1_555
H18_3 C28_3 1_555 1_555
C29_3 C28_3 1_555 1_555
C32_3 C29_3 1_555 1_555
C35_3 N4 1_555 1_555
H23_3 C35_3 1_555 1_555
C36_3 C32_3 1_555 1_555
H24_3 C36_3 1_555 1_555
C35_3 C36_3 1_555 1_555
Ni1_5 O1_4 1_555 1_555
H4_4 C7_4 1_555 1_555
O4_4 Ni1_6 1_555 1_555
C20_4 C19_4 1_555 1_555
N4_2 Ni1_6 1_555 1_555
C19_4 O4_4 1_555 1_555
C1_4 O2_4 1_555 1_555
O2_4 Ni1_7 1_555 1_555
C2_4 C1_4 1_555 1_555
N3_2 Ni1_7 1_555 1_555
O3_4 Ni1_8 1_555 1_555
H16_4 C25_4 1_555 1_555
Ni1_9 O1_5 1_555 1_555
H3_3 C6_3 1_555 1_555
H4_5 C7_5 1_555 1_555
H9_4 C15_4 1_555 1_555
C16_4 C15_4 1_555 1_555
H10_4 C16_4 1_555 1_555
O4_5 Ni1_9 1_555 1_555
C20_5 C19_5 1_555 1_555
C21_3 C20_5 1_555 1_555
H13_3 C21_3 1_555 1_555
C22_3 C21_3 1_555 1_555
H14_3 C22_3 1_555 1_555
C23_3 C22_3 1_555 1_555
C26_3 C23_3 1_555 1_555
C27_3 C26_3 1_555 1_555
H17_3 C27_3 1_555 1_555
C28_4 C27_3 1_555 1_555
H18_4 C28_4 1_555 1_555
C29_4 C28_4 1_555 1_555
C30_3 C29_4 1_555 1_555
H19_3 C30_3 1_555 1_555
C31_3 C26_3 1_555 1_555
H20_3 C31_3 1_555 1_555
C32_4 C29_4 1_555 1_555
C35_4 N3_2 1_555 1_555
H23_4 C35_4 1_555 1_555
C36_4 C32_4 1_555 1_555
H24_4 C36_4 1_555 1_555
C6_3 C7_5 1_555 1_555
C19_5 O4_5 1_555 1_555
C30_3 C31_3 1_555 1_555
C35_4 C36_4 1_555 1_555
C1_5 O2_5 1_555 1_555
O2_5 Ni1_10 1_555 1_555
C2_5 C1_5 1_555 1_555
C3_3 C2_5 1_555 1_555
H1_3 C3_3 1_555 1_555
C4_3 C3_3 1_555 1_555
H2_3 C4_3 1_555 1_555
C5_3 C4_3 1_555 1_555
C8_3 C5_3 1_555 1_555
C9_3 C8_3 1_555 1_555
H5_3 C9_3 1_555 1_555
C10_4 C9_3 1_555 1_555
H6_4 C10_4 1_555 1_555
C11_4 C10_4 1_555 1_555
C12_3 C11_4 1_555 1_555
H7_3 C12_3 1_555 1_555
C13_3 C8_3 1_555 1_555
H8_3 C13_3 1_555 1_555
C14_4 C11_4 1_555 1_555
C17_4 N4_2 1_555 1_555
H11_4 C17_4 1_555 1_555
C18_4 C14_4 1_555 1_555
H12_4 C18_4 1_555 1_555
O3_5 Ni1_10 1_555 1_555
H15_3 C24_3 1_555 1_555
H16_5 C25_5 1_555 1_555
H21_4 C33_4 1_555 1_555
C34_4 C33_4 1_555 1_555
H22_4 C34_4 1_555 1_555
C12_3 C13_3 1_555 1_555
C17_4 C18_4 1_555 1_555
C24_3 C25_5 1_555 1_555
H3_4 C6_4 1_555 1_555
H9_5 C15_5 1_555 1_555
C16_5 C15_5 1_555 1_555
H10_5 C16_5 1_555 1_555
H13_4 C21_4 1_555 1_555
C22_4 C21_4 1_555 1_555
H14_4 C22_4 1_555 1_555
C23_4 C22_4 1_555 1_555
C26_4 C23_4 1_555 1_555
C27_4 C26_4 1_555 1_555
H17_4 C27_4 1_555 1_555
C28_5 C27_4 1_555 1_555
H18_5 C28_5 1_555 1_555
C29_5 C28_5 1_555 1_555
C30_4 C29_5 1_555 1_555
H19_4 C30_4 1_555 1_555
C31_4 C26_4 1_555 1_555
H20_4 C31_4 1_555 1_555
C32_5 C29_5 1_555 1_555
C35_5 N2_3 1_555 1_555
H23_5 C35_5 1_555 1_555
C36_5 C32_5 1_555 1_555
H24_5 C36_5 1_555 1_555
Ni3_3 N2_3 1_555 1_555
C30_4 C31_4 1_555 1_555
C35_5 C36_5 1_555 1_555
O3_6 Ni3_3 1_555 1_555
C19_6 O3_6 1_555 1_555
O4_6 Ni3_3 1_555 1_555
C20_6 C19_6 1_555 1_555
C21_5 C20_6 1_555 1_555
H13_5 C21_5 1_555 1_555
C22_5 C21_5 1_555 1_555
H14_5 C22_5 1_555 1_555
C23_5 C22_5 1_555 1_555
C24_4 C23_5 1_555 1_555
H15_4 C24_4 1_555 1_555
C25_6 C20_6 1_555 1_555
H16_6 C25_6 1_555 1_555
C26_5 C23_5 1_555 1_555
C27_5 C26_5 1_555 1_555
H17_5 C27_5 1_555 1_555
H19_5 C30_5 1_555 1_555
C31_5 C26_5 1_555 1_555
H20_5 C31_5 1_555 1_555
C19_6 O4_6 1_555 1_555
C24_4 C25_6 1_555 1_555
C30_5 C31_5 1_555 1_555
H1_4 C3_4 1_555 1_555
C4_4 C3_4 1_555 1_555
H2_4 C4_4 1_555 1_555
C5_4 C4_4 1_555 1_555
C8_4 C5_4 1_555 1_555
C9_4 C8_4 1_555 1_555
H5_4 C9_4 1_555 1_555
C10_5 C9_4 1_555 1_555
H6_5 C10_5 1_555 1_555
C11_5 C10_5 1_555 1_555
C12_4 C11_5 1_555 1_555
H7_4 C12_4 1_555 1_555
C13_4 C8_4 1_555 1_555
H8_4 C13_4 1_555 1_555
C14_5 C11_5 1_555 1_555
C17_5 N1_3 1_555 1_555
H11_5 C17_5 1_555 1_555
C18_5 C14_5 1_555 1_555
H12_5 C18_5 1_555 1_555
Ni3_4 N1_3 1_555 1_555
C12_4 C13_4 1_555 1_555
C17_5 C18_5 1_555 1_555
H15_5 C24_5 1_555 1_555
H21_5 C33_5 1_555 1_555
C34_5 C33_5 1_555 1_555
H22_5 C34_5 1_555 1_555
Ni3_4 O1_6 1_555 1_555
O1_6 C1_6 1_555 1_555
C1_6 O2_6 1_555 1_555
O2_6 Ni3_4 1_555 1_555
C2_6 C1_6 1_555 1_555
C3_5 C2_6 1_555 1_555
H1_5 C3_5 1_555 1_555
C4_5 C3_5 1_555 1_555
H2_5 C4_5 1_555 1_555
C5_5 C4_5 1_555 1_555
C6_5 C5_5 1_555 1_555
H3_5 C6_5 1_555 1_555
C7_6 C2_6 1_555 1_555
H4_6 C7_6 1_555 1_555
C8_5 C5_5 1_555 1_555
C9_5 C8_5 1_555 1_555
H5_5 C9_5 1_555 1_555
H7_5 C12_5 1_555 1_555
C13_5 C8_5 1_555 1_555
H8_5 C13_5 1_555 1_555
C6_5 C7_6 1_555 1_555
C12_5 C13_5 1_555 1_555
Ni1_11 O1_7 1_555 1_555
O1_7 C1_7 1_555 1_555
N3_3 C16_6 1_555 1_555
C1_7 O2_7 1_555 1_555
O2_7 Ni1_11 1_555 1_555
C2_7 C1_7 1_555 1_555
C3_6 C2_7 1_555 1_555
H1_6 C3_6 1_555 1_555
C4_6 C3_6 1_555 1_555
H2_6 C4_6 1_555 1_555
C5_6 C4_6 1_555 1_555
C6_6 C5_6 1_555 1_555
H3_6 C6_6 1_555 1_555
C7_7 C2_7 1_555 1_555
H4_7 C7_7 1_555 1_555
C8_6 C5_6 1_555 1_555
C9_6 C8_6 1_555 1_555
H5_6 C9_6 1_555 1_555
C10_6 C9_6 1_555 1_555
H6_6 C10_6 1_555 1_555
C11_6 C10_6 1_555 1_555
C12_6 C11_6 1_555 1_555
H7_6 C12_6 1_555 1_555
C13_6 C8_6 1_555 1_555
H8_6 C13_6 1_555 1_555
C14_6 C11_6 1_555 1_555
C15_6 C14_6 1_555 1_555
H9_6 C15_6 1_555 1_555
C16_6 C15_6 1_555 1_555
H10_6 C16_6 1_555 1_555
C17_6 N3_3 1_555 1_555
H11_6 C17_6 1_555 1_555
C18_6 C14_6 1_555 1_555
H12_6 C18_6 1_555 1_555
O3_7 Ni1_11 1_555 1_555
N4_3 C34_6 1_555 1_555
C19_7 O3_7 1_555 1_555
O4_7 Ni1_11 1_555 1_555
C20_7 C19_7 1_555 1_555
C21_6 C20_7 1_555 1_555
H13_6 C21_6 1_555 1_555
C22_6 C21_6 1_555 1_555
H14_6 C22_6 1_555 1_555
C23_6 C22_6 1_555 1_555
C24_6 C23_6 1_555 1_555
H15_6 C24_6 1_555 1_555
C25_7 C20_7 1_555 1_555
H16_7 C25_7 1_555 1_555
C26_6 C23_6 1_555 1_555
C27_6 C26_6 1_555 1_555
H17_6 C27_6 1_555 1_555
C28_6 C27_6 1_555 1_555
H18_6 C28_6 1_555 1_555
C29_6 C28_6 1_555 1_555
C30_6 C29_6 1_555 1_555
H19_6 C30_6 1_555 1_555
C31_6 C26_6 1_555 1_555
H20_6 C31_6 1_555 1_555
C32_6 C29_6 1_555 1_555
C33_6 C32_6 1_555 1_555
H21_6 C33_6 1_555 1_555
C34_6 C33_6 1_555 1_555
H22_6 C34_6 1_555 1_555
C35_6 N4_3 1_555 1_555
H23_6 C35_6 1_555 1_555
C36_6 C32_6 1_555 1_555
H24_6 C36_6 1_555 1_555
N3_4 Ni1_11 1_555 1_555
N4_4 Ni1_11 1_555 1_555
C6_6 C7_7 1_555 1_555
C12_6 C13_6 1_555 1_555
C17_6 C18_6 1_555 1_555
C19_7 O4_7 1_555 1_555
C24_6 C25_7 1_555 1_555
C30_6 C31_6 1_555 1_555
C35_6 C36_6 1_555 1_555
N3_4 C34_7 1_555 1_555
H18_7 C28_7 1_555 1_555
C29_7 C28_7 1_555 1_555
C32_7 C29_7 1_555 1_555
C33_7 C32_7 1_555 1_555
H21_7 C33_7 1_555 1_555
C34_7 C33_7 1_555 1_555
H22_7 C34_7 1_555 1_555
C35_7 N3_4 1_555 1_555
H23_7 C35_7 1_555 1_555
C36_7 C32_7 1_555 1_555
H24_7 C36_7 1_555 1_555
C35_7 C36_7 1_555 1_555
N4_4 C16_7 1_555 1_555
H6_7 C10_7 1_555 1_555
C11_7 C10_7 1_555 1_555
C14_7 C11_7 1_555 1_555
C15_7 C14_7 1_555 1_555
H9_7 C15_7 1_555 1_555
C16_7 C15_7 1_555 1_555
H10_7 C16_7 1_555 1_555
C17_7 N4_4 1_555 1_555
H11_7 C17_7 1_555 1_555
C18_7 C14_7 1_555 1_555
H12_7 C18_7 1_555 1_555
C17_7 C18_7 1_555 1_555
N1_4 C16_8 1_555 1_555
H1_7 C3_7 1_555 1_555
C4_7 C3_7 1_555 1_555
H2_7 C4_7 1_555 1_555
C5_7 C4_7 1_555 1_555
C6_7 C5_7 1_555 1_555
H3_7 C6_7 1_555 1_555
C8_7 C5_7 1_555 1_555
C9_7 C8_7 1_555 1_555
H5_7 C9_7 1_555 1_555
C10_8 C9_7 1_555 1_555
H6_8 C10_8 1_555 1_555
C11_8 C10_8 1_555 1_555
C12_7 C11_8 1_555 1_555
H7_7 C12_7 1_555 1_555
C13_7 C8_7 1_555 1_555
H8_7 C13_7 1_555 1_555
C14_8 C11_8 1_555 1_555
C15_8 C14_8 1_555 1_555
H9_8 C15_8 1_555 1_555
C16_8 C15_8 1_555 1_555
H10_8 C16_8 1_555 1_555
C17_8 N1_4 1_555 1_555
H11_8 C17_8 1_555 1_555
C18_8 C14_8 1_555 1_555
H12_8 C18_8 1_555 1_555
N2_4 C34_8 1_555 1_555
H13_7 C21_7 1_555 1_555
C22_7 C21_7 1_555 1_555
H14_7 C22_7 1_555 1_555
C23_7 C22_7 1_555 1_555
C24_7 C23_7 1_555 1_555
H15_7 C24_7 1_555 1_555
C26_7 C23_7 1_555 1_555
C27_7 C26_7 1_555 1_555
H17_7 C27_7 1_555 1_555
C28_8 C27_7 1_555 1_555
H18_8 C28_8 1_555 1_555
C29_8 C28_8 1_555 1_555
C30_7 C29_8 1_555 1_555
H19_7 C30_7 1_555 1_555
C31_7 C26_7 1_555 1_555
H20_7 C31_7 1_555 1_555
C32_8 C29_8 1_555 1_555
C33_8 C32_8 1_555 1_555
H21_8 C33_8 1_555 1_555
C34_8 C33_8 1_555 1_555
H22_8 C34_8 1_555 1_555
C35_8 N2_4 1_555 1_555
H23_8 C35_8 1_555 1_555
C36_8 C32_8 1_555 1_555
H24_8 C36_8 1_555 1_555
Ni3_5 N2_4 1_555 1_555
Ni3_6 N1_4 1_555 1_555
C12_7 C13_7 1_555 1_555
C17_8 C18_8 1_555 1_555
C30_7 C31_7 1_555 1_555
C35_8 C36_8 1_555 1_555
C1_8 O2_8 1_555 1_555
O2_8 Ni3_5 1_555 1_555
C2_8 C1_8 1_555 1_555
C3_8 C2_8 1_555 1_555
H1_8 C3_8 1_555 1_555
C4_8 C3_8 1_555 1_555
H2_8 C4_8 1_555 1_555
C5_8 C4_8 1_555 1_555
C8_8 C5_8 1_555 1_555
C9_8 C8_8 1_555 1_555
H5_8 C9_8 1_555 1_555
H7_8 C12_8 1_555 1_555
C13_8 C8_8 1_555 1_555
H8_8 C13_8 1_555 1_555
O3_8 Ni3_5 1_555 1_555
H15_8 C24_8 1_555 1_555
H16_8 C25_8 1_555 1_555
C12_8 C13_8 1_555 1_555
C24_8 C25_8 1_555 1_555
Ni3_6 O1_8 1_555 1_555
H3_8 C6_8 1_555 1_555
H4_8 C7_8 1_555 1_555
O4_8 Ni3_6 1_555 1_555
C20_8 C19_8 1_555 1_555
C21_8 C20_8 1_555 1_555
H13_8 C21_8 1_555 1_555
C22_8 C21_8 1_555 1_555
H14_8 C22_8 1_555 1_555
C23_8 C22_8 1_555 1_555
C26_8 C23_8 1_555 1_555
C27_8 C26_8 1_555 1_555
H17_8 C27_8 1_555 1_555
H19_8 C30_8 1_555 1_555
C31_8 C26_8 1_555 1_555
H20_8 C31_8 1_555 1_555
C6_8 C7_8 1_555 1_555
C19_8 O4_8 1_555 1_555
C30_8 C31_8 1_555 1_555

#END
