
###############################################################################
#
# This file contains modified crystal structure data generated from the
# MOF subset of the Cambridge Structural Database (CSD) v543 
# hosted by the Cambridge Crystallographic Data Centre (CCDC).
#
# This work is licensed under the Creative Commons
# Attribution-NonCommercial-ShareAlike 4.0 International License.
# To view a copy of this license, visit
# http://creativecommons.org/licenses/by-nc-sa/4.0/
# or send a letter to
# Creative Commons, PO Box 1866, Mountain View, CA 94042, USA.
#
# CIF created using the CSD Python API on 29 September 2022
# The structure has been converted into the P1 space group
# The structure has a 3D framework
# The original CSD entry TEVZUQ is in the monoclinic crystal system
# The framework has been calculated to contain at least 10.0% void space
# The void calculation uses a probe of radius 1.32A, grid spacing 0.4
#
###############################################################################

data_TEVZUQ
_chemical_formula_moiety         '(C24 H24 O48 Zn21)n'
_symmetry_cell_setting           triclinic
_symmetry_space_group_name_H-M   'P 1'
_symmetry_Int_Tables_number      1
_space_group_name_Hall           'P 1'
loop_
_symmetry_equiv_pos_site_id
_symmetry_equiv_pos_as_xyz
1 x,y,z
_cell_length_a                   11.2958(3)
_cell_length_b                   9.8250(3)
_cell_length_c                   18.3296(5)
_cell_angle_alpha                90
_cell_angle_beta                 126.534(2)
_cell_angle_gamma                90
_cell_volume                     1634.52
loop_
_atom_site_label
_atom_site_type_symbol
_atom_site_fract_x
_atom_site_fract_y
_atom_site_fract_z
Zn13 Zn 0.0000 0.0000 0.0000
Zn13_2 Zn -0.0000 0.0000 1.0000
Zn13_3 Zn 0.0000 1.0000 0.0000
Zn14 Zn -0.0000 0.5000 0.5000
Zn13_4 Zn -0.0000 1.0000 1.0000
Zn1 Zn 0.37476(4) 0.07367(4) 0.13171(2)
Zn3 Zn 0.5000 0.0000 0.0000
O1 O 0.4401(2) 0.1928(2) 0.24739(12)
O2 O 0.5573(2) 0.0535(2) 0.36809(13)
O5 O 0.4571(2) 0.2517(2) 0.11210(13)
O6 O 0.4810(2) 0.2092(2) 0.00093(13)
O11 O 0.1652(2) 0.1515(2) 0.06489(13)
O12 O 0.2081(2) 0.3734(2) 0.10186(13)
C1 C 0.5043(3) 0.1654(3) 0.3308(2)
H1 H 0.5127 0.2373 0.3682
C3 C 0.4754(3) 0.2873(3) 0.0521(2)
H3 H 0.4854 0.3819 0.0462
C6 C 0.1264(4) 0.2752(3) 0.0607(2)
H6 H 0.0237 0.2935 0.0218
Zn9 Zn 0.43380(4) 0.38496(4) 0.19208(2)
Zn13_5 Zn 1.0000 0.0000 0.0000
O28 O 0.8885(2) 0.1094(2) 0.03922(14)
C11 C 0.7740(3) 0.1057(3) 0.0324(2)
H11 H 0.7670 0.1636 0.0712
Zn3_2 Zn 0.5000 0.0000 1.0000
Zn8 Zn 0.43380(4) 0.11504(4) 0.69208(2)
Zn13_6 Zn 1.0000 0.0000 1.0000
O15 O 0.4401(2) 0.3072(2) 0.74739(12)
O18 O 0.4147(2) 0.0128(2) 0.78469(13)
O19 O 0.3202(2) 0.0036(2) 0.86240(14)
O22 O 0.4571(2) 0.2483(2) 0.61210(13)
O25 O 0.6580(2) 0.0873(2) 0.80684(13)
O27 O 0.6615(2) 0.0293(2) 0.97649(13)
O34 O 0.2081(2) 0.1266(2) 0.60186(13)
C8 C 0.3119(4) 0.0236(3) 0.7929(2)
H8 H 0.2182 0.0498 0.7401
Zn2 Zn 0.56620(4) 0.88496(4) 0.30792(2)
Zn3_3 Zn 0.5000 1.0000 0.0000
O3 O 0.5853(2) 0.9872(2) 0.21531(13)
O4 O 0.6798(2) 0.9964(2) 0.13760(14)
O7 O 0.3420(2) 0.9127(2) 0.19316(13)
O8 O 0.0985(2) 0.8815(2) 0.11630(14)
O9 O 0.3385(2) 0.9707(2) 0.02351(13)
C2 C 0.6881(4) 0.9764(3) 0.2071(2)
H2 H 0.7818 0.9502 0.2599
C4 C 0.2273(3) 0.8581(3) 0.1795(2)
H4 H 0.2437 0.7926 0.2228
Zn6 Zn 0.62524(4) 0.57367(4) 0.36829(2)
Zn13_7 Zn 1.0000 1.0000 0.0000
Zn14_2 Zn 1.0000 0.5000 0.5000
O13 O 0.5599(2) 0.6928(2) 0.25261(12)
O16 O 0.4427(2) 0.5535(2) 0.13191(13)
O21 O 0.5429(2) 0.7517(2) 0.38790(13)
O30 O 0.8348(2) 0.6515(2) 0.43511(13)
O33 O 0.7919(2) 0.8734(2) 0.39814(13)
C7 C 0.4957(3) 0.6654(3) 0.1692(2)
H7 H 0.4873 0.7373 0.1318
C12 C 0.8736(4) 0.7752(3) 0.4393(2)
H12 H 0.9763 0.7935 0.4782
Zn3_4 Zn 0.5000 1.0000 1.0000
O10 O 0.1115(2) 0.8906(2) 0.96078(14)
C5 C 0.2260(3) 0.8943(3) 0.9676(2)
H5 H 0.2330 0.8364 0.9288
Zn5 Zn 0.62524(4) 0.92633(4) 0.86829(2)
Zn10 Zn 0.56620(4) 0.61504(4) 0.80792(2)
Zn13_8 Zn 1.0000 1.0000 1.0000
O14 O 0.5599(2) 0.8072(2) 0.75261(12)
O17 O 0.4427(2) 0.9465(2) 0.63191(13)
O20 O 0.5429(2) 0.7483(2) 0.88790(13)
O23 O 0.5190(2) 0.7908(2) 0.99907(13)
O32 O 0.8348(2) 0.8485(2) 0.93511(13)
C9 C 0.5246(3) 0.7127(3) 0.9479(2)
H9 H 0.5146 0.6181 0.9538
O26 O 0.9015(2) 0.1185(2) 0.88370(14)
C10 C 0.7727(3) 0.1419(3) 0.8205(2)
H10 H 0.7563 0.2074 0.7772
Zn7 Zn 0.37476(4) 0.42633(4) 0.63171(2)
O24 O 0.3420(2) 0.5873(2) 0.69316(13)
O26_2 O 0.0985(2) 0.6185(2) 0.61630(14)
O29 O 0.1115(2) 0.6094(2) 0.46078(14)
O31 O 0.1652(2) 0.3485(2) 0.56489(13)
C10_2 C 0.2273(3) 0.6419(3) 0.6795(2)
H10_2 H 0.2437 0.7074 0.7228
Zn3_5 Zn 0.5000 0.5000 0.5000
O3_2 O 0.4147(2) 0.4872(2) 0.28469(13)
O4_2 O 0.3202(2) 0.4964(2) 0.36240(14)
O6_2 O 0.5190(2) 0.7092(2) 0.49907(13)
O7_2 O 0.6580(2) 0.4127(2) 0.30684(13)
O8_2 O 0.9015(2) 0.3815(2) 0.38370(14)
O9_2 O 0.6615(2) 0.4707(2) 0.47649(13)
O10_2 O 0.8885(2) 0.3906(2) 0.53922(14)
C2_2 C 0.3119(4) 0.4764(3) 0.2929(2)
H2_2 H 0.2182 0.4502 0.2401
C3_2 C 0.5246(3) 0.7873(3) 0.4479(2)
H3_2 H 0.5146 0.8819 0.4538
C4_2 C 0.7727(3) 0.3581(3) 0.3205(2)
H4_2 H 0.7563 0.2926 0.2772
C5_2 C 0.7740(3) 0.3943(3) 0.5324(2)
H5_2 H 0.7670 0.3364 0.5712
O17_2 O 0.5573(2) 0.4465(2) 0.86809(13)
O18_2 O 0.5853(2) 0.5128(2) 0.71531(13)
O19_2 O 0.6798(2) 0.5036(2) 0.63760(14)
O23_2 O 0.4810(2) 0.2908(2) 0.50093(13)
O27_2 O 0.3385(2) 0.5293(2) 0.52351(13)
O34_2 O 0.7919(2) 0.6266(2) 0.89814(13)
C8_2 C 0.6881(4) 0.5236(3) 0.7071(2)
H8_2 H 0.7818 0.5498 0.7599
C9_2 C 0.4754(3) 0.2127(3) 0.5521(2)
H9_2 H 0.4854 0.1181 0.5462
C11_2 C 0.2260(3) 0.6057(3) 0.4676(2)
H11_2 H 0.2330 0.6636 0.4288
C7_2 C 0.5043(3) 0.3346(3) 0.8308(2)
H7_2 H 0.5127 0.2627 0.8682
C12_2 C 0.1264(4) 0.2248(3) 0.5607(2)
H12_2 H 0.0237 0.2065 0.5218
C1_2 C 0.4957(3) 0.8346(3) 0.6692(2)
H1_2 H 0.4873 0.7627 0.6318
C6_2 C 0.8736(4) 0.7248(3) 0.9393(2)
H6_2 H 0.9763 0.7065 0.9782
loop_
_geom_bond_atom_site_label_1
_geom_bond_atom_site_label_2
_geom_bond_site_symmetry_1
_geom_bond_site_symmetry_2
Zn1 O1 1_555 1_555
O1 C1 1_555 1_555
O2 C1 1_555 1_555
O5 Zn1 1_555 1_555
O6 Zn3 1_555 1_555
O11 Zn1 1_555 1_555
O12 C6 1_555 1_555
C1 H1 1_555 1_555
C3 O5 1_555 1_555
H3 C3 1_555 1_555
C6 O11 1_555 1_555
H6 C6 1_555 1_555
Zn9 O1 1_555 1_555
Zn13_5 O28 1_555 1_555
O28 C11 1_555 1_555
H11 C11 1_555 1_555
Zn13 O11 1_555 1_555
O5 Zn9 1_555 1_555
O6 C3 1_555 1_555
O12 Zn9 1_555 1_555
Zn8 O15 1_555 1_555
O19 Zn3_2 1_555 1_555
O22 Zn8 1_555 1_555
O27 Zn3_2 1_555 1_555
O34 Zn8 1_555 1_555
C8 O18 1_555 1_555
H8 C8 1_555 1_555
Zn8 O18 1_555 1_555
Zn8 O25 1_555 1_555
O19 C8 1_555 1_555
Zn3_3 O4 1_555 1_555
Zn13_3 O8 1_555 1_555
O4 C2 1_555 1_555
O8 C4 1_555 1_555
C2 O3 1_555 1_555
H2 C2 1_555 1_555
C4 O7 1_555 1_555
H4 C4 1_555 1_555
Zn6 O13 1_555 1_555
Zn9 O16 1_555 1_555
Zn14_2 O30 1_555 1_555
O13 Zn2 1_555 1_555
O16 C7 1_555 1_555
O21 Zn2 1_555 1_555
O30 Zn6 1_555 1_555
O33 Zn2 1_555 1_555
C7 O13 1_555 1_555
H7 C7 1_555 1_555
C12 O30 1_555 1_555
H12 C12 1_555 1_555
Zn2 O3 1_555 1_555
Zn2 O7 1_555 1_555
Zn3_3 O9 1_555 1_555
Zn6 O21 1_555 1_555
O33 C12 1_555 1_555
O10 Zn13_4 1_555 1_555
H5 C5 1_555 1_555
Zn5 O14 1_555 1_555
Zn10 O14 1_555 1_555
O20 Zn5 1_555 1_555
O23 Zn3_4 1_555 1_555
O32 Zn5 1_555 1_555
C9 O20 1_555 1_555
H9 C9 1_555 1_555
O10 C5 1_555 1_555
Zn10 O20 1_555 1_555
Zn13_8 O32 1_555 1_555
O23 C9 1_555 1_555
O25 C10 1_555 1_555
O26 Zn13_6 1_555 1_555
C10 O26 1_555 1_555
H10 C10 1_555 1_555
Zn7 O24 1_555 1_555
Zn10 O24 1_555 1_555
O24 C10_2 1_555 1_555
O26_2 Zn14 1_555 1_555
O29 Zn14 1_555 1_555
O31 Zn14 1_555 1_555
C10_2 O26_2 1_555 1_555
H10_2 C10_2 1_555 1_555
Zn7 O31 1_555 1_555
Zn3_5 O4_2 1_555 1_555
Zn14_2 O8_2 1_555 1_555
O3_2 Zn6 1_555 1_555
O4_2 C2_2 1_555 1_555
O6_2 Zn3_5 1_555 1_555
O7_2 Zn6 1_555 1_555
O8_2 C4_2 1_555 1_555
O9_2 Zn6 1_555 1_555
O10_2 Zn14_2 1_555 1_555
C2_2 O3_2 1_555 1_555
H2_2 C2_2 1_555 1_555
C3_2 O21 1_555 1_555
H3_2 C3_2 1_555 1_555
C4_2 O7_2 1_555 1_555
H4_2 C4_2 1_555 1_555
C5_2 O9_2 1_555 1_555
H5_2 C5_2 1_555 1_555
Zn7 O15 1_555 1_555
O17_2 Zn10 1_555 1_555
O18_2 Zn7 1_555 1_555
O19_2 Zn3_5 1_555 1_555
O22 Zn7 1_555 1_555
O23_2 Zn3_5 1_555 1_555
O27_2 Zn3_5 1_555 1_555
O29 C11_2 1_555 1_555
O34_2 Zn10 1_555 1_555
C8_2 O18_2 1_555 1_555
H8_2 C8_2 1_555 1_555
C9_2 O22 1_555 1_555
H9_2 C9_2 1_555 1_555
C11_2 O27_2 1_555 1_555
H11_2 C11_2 1_555 1_555
Zn9 O3_2 1_555 1_555
Zn9 O7_2 1_555 1_555
Zn3_5 O9_2 1_555 1_555
O6_2 C3_2 1_555 1_555
O10_2 C5_2 1_555 1_555
Zn7 O27_2 1_555 1_555
Zn10 O18_2 1_555 1_555
O19_2 C8_2 1_555 1_555
O23_2 C9_2 1_555 1_555
O17_2 C7_2 1_555 1_555
C7_2 O15 1_555 1_555
H7_2 C7_2 1_555 1_555
C12_2 O31 1_555 1_555
H12_2 C12_2 1_555 1_555
O34 C12_2 1_555 1_555
O14 C1_2 1_555 1_555
O17 C1_2 1_555 1_555
O34_2 C6_2 1_555 1_555
C1_2 H1_2 1_555 1_555
C6_2 O32 1_555 1_555
H6_2 C6_2 1_555 1_555

#END
