
###############################################################################
#
# This file contains modified crystal structure data generated from the
# MOF subset of the Cambridge Structural Database (CSD) v543 
# hosted by the Cambridge Crystallographic Data Centre (CCDC).
#
# This work is licensed under the Creative Commons
# Attribution-NonCommercial-ShareAlike 4.0 International License.
# To view a copy of this license, visit
# http://creativecommons.org/licenses/by-nc-sa/4.0/
# or send a letter to
# Creative Commons, PO Box 1866, Mountain View, CA 94042, USA.
#
# CIF created using the CSD Python API on 29 September 2022
# The structure has been converted into the P1 space group
# The structure has a 3D framework
# The original CSD entry TEVZIE is in the monoclinic crystal system
# The framework has been calculated to contain at least 10.0% void space
# The void calculation uses a probe of radius 1.32A, grid spacing 0.4
#
###############################################################################

data_TEVZIE
_chemical_formula_moiety         '(C24 H24 O48 Zn21)n'
_symmetry_cell_setting           triclinic
_symmetry_space_group_name_H-M   'P 1'
_symmetry_Int_Tables_number      1
_space_group_name_Hall           'P 1'
loop_
_symmetry_equiv_pos_site_id
_symmetry_equiv_pos_as_xyz
1 x,y,z
_cell_length_a                   11.2956(2)
_cell_length_b                   9.8486(3)
_cell_length_c                   18.3717(4)
_cell_angle_alpha                90
_cell_angle_beta                 126.619(3)
_cell_angle_gamma                90
_cell_volume                     1640.37
loop_
_atom_site_label
_atom_site_type_symbol
_atom_site_fract_x
_atom_site_fract_y
_atom_site_fract_z
Zn13 Zn 0.0000 0.0000 0.0000
Zn13_2 Zn 0.0000 0.0000 1.0000
Zn13_3 Zn 0.0000 1.0000 0.0000
Zn14 Zn 0.0000 0.5000 0.5000
Zn13_4 Zn 0.0000 1.0000 1.0000
Zn1 Zn 0.37549(3) 0.07668(3) 0.132347(18)
Zn3 Zn 0.5000 0.0000 0.0000
O1 O 0.44338(17) 0.19613(18) 0.24775(10)
O2 O 0.56244(19) 0.05712(19) 0.36872(11)
O5 O 0.45685(17) 0.25466(18) 0.11206(10)
O6 O 0.49420(18) 0.21023(19) 0.00724(11)
O11 O 0.16473(17) 0.15265(18) 0.06596(10)
O12 O 0.20656(18) 0.37435(18) 0.10323(11)
C1 C 0.5114(3) 0.1696(3) 0.33177(16)
H1 H 0.5244 0.2424 0.3698
C3 C 0.4843(3) 0.2888(3) 0.05606(16)
H3 H 0.4982 0.3827 0.0516
C6 C 0.1245(3) 0.2755(3) 0.06255(16)
H6 H 0.0214 0.2926 0.0251
Zn9 Zn 0.43248(3) 0.38760(3) 0.191242(18)
Zn13_5 Zn 1.0000 0.0000 0.0000
O28 O 0.88905(19) 0.10695(19) 0.03956(11)
C11 C 0.7744(3) 0.0993(3) 0.03266(16)
H11 H 0.7680 0.1542 0.0727
Zn3_2 Zn 0.5000 0.0000 1.0000
Zn8 Zn 0.43248(3) 0.11240(3) 0.691242(18)
Zn13_6 Zn 1.0000 0.0000 1.0000
O15 O 0.44338(17) 0.30387(18) 0.74775(10)
O18 O 0.41375(18) 0.01248(18) 0.78469(11)
O19 O 0.32147(19) 0.01243(19) 0.86368(11)
O22 O 0.45685(17) 0.24534(18) 0.61206(10)
O25 O 0.65786(18) 0.08282(18) 0.80544(11)
O27 O 0.66192(18) 0.02452(18) 0.97673(11)
O34 O 0.20656(18) 0.12565(18) 0.60323(11)
C8 C 0.3120(3) 0.0285(3) 0.79365(17)
H8 H 0.2186 0.0557 0.7411
Zn2 Zn 0.56752(3) 0.88760(3) 0.308758(18)
Zn3_3 Zn 0.5000 1.0000 0.0000
O3 O 0.58625(18) 0.98752(18) 0.21531(11)
O4 O 0.67853(19) 0.98757(19) 0.13632(11)
O7 O 0.34214(18) 0.91718(18) 0.19456(11)
O8 O 0.09867(18) 0.88444(19) 0.11700(11)
O9 O 0.33808(18) 0.97548(18) 0.02327(11)
C2 C 0.6880(3) 0.9715(3) 0.20635(17)
H2 H 0.7814 0.9443 0.2589
C4 C 0.2281(3) 0.8636(3) 0.18148(16)
H4 H 0.2448 0.8011 0.2261
Zn6 Zn 0.62451(3) 0.57668(3) 0.367653(18)
Zn13_7 Zn 1.0000 1.0000 0.0000
Zn14_2 Zn 1.0000 0.5000 0.5000
O13 O 0.55662(17) 0.69613(18) 0.25225(10)
O16 O 0.43756(19) 0.55712(19) 0.13128(11)
O21 O 0.54315(17) 0.75466(18) 0.38794(10)
O30 O 0.83527(17) 0.65265(18) 0.43404(10)
O33 O 0.79344(18) 0.87435(18) 0.39677(11)
C7 C 0.4886(3) 0.6696(3) 0.16823(16)
H7 H 0.4756 0.7424 0.1302
C12 C 0.8755(3) 0.7755(3) 0.43745(16)
H12 H 0.9786 0.7926 0.4749
Zn3_4 Zn 0.5000 1.0000 1.0000
O10 O 0.11095(19) 0.89305(19) 0.96044(11)
C5 C 0.2256(3) 0.9007(3) 0.96734(16)
H5 H 0.2320 0.8458 0.9273
Zn5 Zn 0.62451(3) 0.92332(3) 0.867653(18)
Zn10 Zn 0.56752(3) 0.61240(3) 0.808758(18)
Zn13_8 Zn 1.0000 1.0000 1.0000
O14 O 0.55662(17) 0.80387(18) 0.75225(10)
O17 O 0.43756(19) 0.94288(19) 0.63128(11)
O20 O 0.54315(17) 0.74534(18) 0.88794(10)
O23 O 0.50580(18) 0.78977(19) 0.99276(11)
O32 O 0.83527(17) 0.84735(18) 0.93404(10)
C9 C 0.5157(3) 0.7112(3) 0.94394(16)
H9 H 0.5018 0.6173 0.9484
O26 O 0.90133(18) 0.11556(19) 0.88300(11)
C10 C 0.7719(3) 0.1364(3) 0.81852(16)
H10 H 0.7552 0.1989 0.7739
Zn7 Zn 0.37549(3) 0.42332(3) 0.632347(18)
O24 O 0.34214(18) 0.58282(18) 0.69456(11)
O26_2 O 0.09867(18) 0.61556(19) 0.61700(11)
O29 O 0.11095(19) 0.60695(19) 0.46044(11)
O31 O 0.16473(17) 0.34735(18) 0.56596(10)
C10_2 C 0.2281(3) 0.6364(3) 0.68148(16)
H10_2 H 0.2448 0.6989 0.7261
Zn3_5 Zn 0.5000 0.5000 0.5000
O3_2 O 0.41375(18) 0.48752(18) 0.28469(11)
O4_2 O 0.32147(19) 0.48757(19) 0.36368(11)
O6_2 O 0.50580(18) 0.71023(19) 0.49276(11)
O7_2 O 0.65786(18) 0.41718(18) 0.30544(11)
O8_2 O 0.90133(18) 0.38444(19) 0.38300(11)
O9_2 O 0.66192(18) 0.47548(18) 0.47673(11)
O10_2 O 0.88905(19) 0.39305(19) 0.53956(11)
C2_2 C 0.3120(3) 0.4715(3) 0.29365(17)
H2_2 H 0.2186 0.4443 0.2411
C3_2 C 0.5157(3) 0.7888(3) 0.44394(16)
H3_2 H 0.5018 0.8827 0.4484
C4_2 C 0.7719(3) 0.3636(3) 0.31852(16)
H4_2 H 0.7552 0.3011 0.2739
C5_2 C 0.7744(3) 0.4007(3) 0.53266(16)
H5_2 H 0.7680 0.3458 0.5727
O17_2 O 0.56244(19) 0.44288(19) 0.86872(11)
O18_2 O 0.58625(18) 0.51248(18) 0.71531(11)
O19_2 O 0.67853(19) 0.51243(19) 0.63632(11)
O23_2 O 0.49420(18) 0.28977(19) 0.50724(11)
O27_2 O 0.33808(18) 0.52452(18) 0.52327(11)
O34_2 O 0.79344(18) 0.62565(18) 0.89677(11)
C8_2 C 0.6880(3) 0.5285(3) 0.70635(17)
H8_2 H 0.7814 0.5557 0.7589
C9_2 C 0.4843(3) 0.2112(3) 0.55606(16)
H9_2 H 0.4982 0.1173 0.5516
C11_2 C 0.2256(3) 0.5993(3) 0.46734(16)
H11_2 H 0.2320 0.6542 0.4273
C7_2 C 0.5114(3) 0.3304(3) 0.83177(16)
H7_2 H 0.5244 0.2576 0.8698
C12_2 C 0.1245(3) 0.2245(3) 0.56255(16)
H12_2 H 0.0214 0.2074 0.5251
C1_2 C 0.4886(3) 0.8304(3) 0.66823(16)
H1_2 H 0.4756 0.7576 0.6302
C6_2 C 0.8755(3) 0.7245(3) 0.93745(16)
H6_2 H 0.9786 0.7074 0.9749
loop_
_geom_bond_atom_site_label_1
_geom_bond_atom_site_label_2
_geom_bond_site_symmetry_1
_geom_bond_site_symmetry_2
Zn1 O1 1_555 1_555
O1 C1 1_555 1_555
O2 C1 1_555 1_555
O5 Zn1 1_555 1_555
O6 Zn3 1_555 1_555
O11 Zn1 1_555 1_555
O12 C6 1_555 1_555
C1 H1 1_555 1_555
C3 O5 1_555 1_555
H3 C3 1_555 1_555
C6 O11 1_555 1_555
H6 C6 1_555 1_555
Zn9 O1 1_555 1_555
Zn13_5 O28 1_555 1_555
O28 C11 1_555 1_555
H11 C11 1_555 1_555
Zn13 O11 1_555 1_555
O5 Zn9 1_555 1_555
O6 C3 1_555 1_555
O12 Zn9 1_555 1_555
Zn8 O15 1_555 1_555
O19 Zn3_2 1_555 1_555
O22 Zn8 1_555 1_555
O27 Zn3_2 1_555 1_555
O34 Zn8 1_555 1_555
C8 O18 1_555 1_555
H8 C8 1_555 1_555
Zn8 O18 1_555 1_555
Zn8 O25 1_555 1_555
O19 C8 1_555 1_555
Zn3_3 O4 1_555 1_555
Zn13_3 O8 1_555 1_555
O4 C2 1_555 1_555
O8 C4 1_555 1_555
C2 O3 1_555 1_555
H2 C2 1_555 1_555
C4 O7 1_555 1_555
H4 C4 1_555 1_555
Zn6 O13 1_555 1_555
Zn9 O16 1_555 1_555
Zn14_2 O30 1_555 1_555
O13 Zn2 1_555 1_555
O16 C7 1_555 1_555
O21 Zn2 1_555 1_555
O30 Zn6 1_555 1_555
O33 Zn2 1_555 1_555
C7 O13 1_555 1_555
H7 C7 1_555 1_555
C12 O30 1_555 1_555
H12 C12 1_555 1_555
Zn2 O3 1_555 1_555
Zn2 O7 1_555 1_555
Zn3_3 O9 1_555 1_555
Zn6 O21 1_555 1_555
O33 C12 1_555 1_555
O10 Zn13_4 1_555 1_555
H5 C5 1_555 1_555
Zn5 O14 1_555 1_555
Zn10 O14 1_555 1_555
O20 Zn5 1_555 1_555
O23 Zn3_4 1_555 1_555
O32 Zn5 1_555 1_555
C9 O20 1_555 1_555
H9 C9 1_555 1_555
O10 C5 1_555 1_555
Zn10 O20 1_555 1_555
Zn13_8 O32 1_555 1_555
O23 C9 1_555 1_555
O25 C10 1_555 1_555
O26 Zn13_6 1_555 1_555
C10 O26 1_555 1_555
H10 C10 1_555 1_555
Zn7 O24 1_555 1_555
Zn10 O24 1_555 1_555
O24 C10_2 1_555 1_555
O26_2 Zn14 1_555 1_555
O29 Zn14 1_555 1_555
O31 Zn14 1_555 1_555
C10_2 O26_2 1_555 1_555
H10_2 C10_2 1_555 1_555
Zn7 O31 1_555 1_555
Zn3_5 O4_2 1_555 1_555
Zn14_2 O8_2 1_555 1_555
O3_2 Zn6 1_555 1_555
O4_2 C2_2 1_555 1_555
O6_2 Zn3_5 1_555 1_555
O7_2 Zn6 1_555 1_555
O8_2 C4_2 1_555 1_555
O9_2 Zn6 1_555 1_555
O10_2 Zn14_2 1_555 1_555
C2_2 O3_2 1_555 1_555
H2_2 C2_2 1_555 1_555
C3_2 O21 1_555 1_555
H3_2 C3_2 1_555 1_555
C4_2 O7_2 1_555 1_555
H4_2 C4_2 1_555 1_555
C5_2 O9_2 1_555 1_555
H5_2 C5_2 1_555 1_555
Zn7 O15 1_555 1_555
O17_2 Zn10 1_555 1_555
O18_2 Zn7 1_555 1_555
O19_2 Zn3_5 1_555 1_555
O22 Zn7 1_555 1_555
O23_2 Zn3_5 1_555 1_555
O27_2 Zn3_5 1_555 1_555
O29 C11_2 1_555 1_555
O34_2 Zn10 1_555 1_555
C8_2 O18_2 1_555 1_555
H8_2 C8_2 1_555 1_555
C9_2 O22 1_555 1_555
H9_2 C9_2 1_555 1_555
C11_2 O27_2 1_555 1_555
H11_2 C11_2 1_555 1_555
Zn9 O3_2 1_555 1_555
Zn9 O7_2 1_555 1_555
Zn3_5 O9_2 1_555 1_555
O6_2 C3_2 1_555 1_555
O10_2 C5_2 1_555 1_555
Zn7 O27_2 1_555 1_555
Zn10 O18_2 1_555 1_555
O19_2 C8_2 1_555 1_555
O23_2 C9_2 1_555 1_555
O17_2 C7_2 1_555 1_555
C7_2 O15 1_555 1_555
H7_2 C7_2 1_555 1_555
C12_2 O31 1_555 1_555
H12_2 C12_2 1_555 1_555
O34 C12_2 1_555 1_555
O14 C1_2 1_555 1_555
O17 C1_2 1_555 1_555
O34_2 C6_2 1_555 1_555
C1_2 H1_2 1_555 1_555
C6_2 O32 1_555 1_555
H6_2 C6_2 1_555 1_555

#END
