
###############################################################################
#
# This file contains modified crystal structure data generated from the
# MOF subset of the Cambridge Structural Database (CSD) v543 
# hosted by the Cambridge Crystallographic Data Centre (CCDC).
#
# This work is licensed under the Creative Commons
# Attribution-NonCommercial-ShareAlike 4.0 International License.
# To view a copy of this license, visit
# http://creativecommons.org/licenses/by-nc-sa/4.0/
# or send a letter to
# Creative Commons, PO Box 1866, Mountain View, CA 94042, USA.
#
# CIF created using the CSD Python API on 29 September 2022
# The structure has been converted into the P1 space group
# The structure has a 3D framework
# The original CSD entry TEVZOK is in the monoclinic crystal system
# The framework has been calculated to contain at least 10.0% void space
# The void calculation uses a probe of radius 1.32A, grid spacing 0.4
#
###############################################################################

data_TEVZOK
_chemical_formula_moiety         '(C24 H24 O48 Zn20)n'
_symmetry_cell_setting           triclinic
_symmetry_space_group_name_H-M   'P 1'
_symmetry_Int_Tables_number      1
_space_group_name_Hall           'P 1'
loop_
_symmetry_equiv_pos_site_id
_symmetry_equiv_pos_as_xyz
1 x,y,z
_cell_length_a                   11.2151(3)
_cell_length_b                   9.6682(2)
_cell_length_c                   18.0850(6)
_cell_angle_alpha                90
_cell_angle_beta                 127.056(2)
_cell_angle_gamma                90
_cell_volume                     1564.93
loop_
_atom_site_label
_atom_site_type_symbol
_atom_site_fract_x
_atom_site_fract_y
_atom_site_fract_z
Zn13 Zn 0.0000 0.0000 0.0000
Zn13_2 Zn 0.0000 0.0000 1.0000
Zn13_3 Zn 0.0000 1.0000 0.0000
Zn14 Zn -0.0000 0.5000 0.5000
Zn13_4 Zn 0.0000 1.0000 1.0000
Zn1 Zn 0.37441(4) 0.08285(4) 0.13099(3)
Zn3 Zn 0.5000 0.0000 0.0000
O1 O 0.4286(3) 0.2073(2) 0.24281(16)
O2 O 0.5495(3) 0.0705(2) 0.36892(16)
O3 O 0.5942(3) 0.0051(2) 0.22192(16)
O4 O 0.6859(3) 0.0105(2) 0.14096(17)
O5 O 0.4555(3) 0.2627(2) 0.10843(16)
O11 O 0.1596(3) 0.1609(2) 0.05714(16)
O12 O 0.1980(3) 0.3889(2) 0.08786(17)
C1 C 0.4923(4) 0.1823(3) 0.3280(2)
H1 H 0.4969 0.2563 0.3642
C3 C 0.4649(4) 0.2938(4) 0.0436(3)
H3 H 0.4703 0.3894 0.0339
C6 C 0.1164(4) 0.2869(4) 0.0477(2)
H6 H 0.0120 0.3035 0.0059
Zn9 Zn 0.42392(4) 0.40039(4) 0.18459(3)
Zn13_5 Zn 1.0000 0.0000 0.0000
O28 O 0.8840(3) 0.1187(2) 0.03345(17)
C11 C 0.7680(4) 0.1155(3) 0.0262(2)
H11 H 0.7580 0.1808 0.0614
Zn3_2 Zn 0.5000 0.0000 1.0000
O6 O 0.4677(3) 0.2120(2) 0.99219(17)
Zn8 Zn 0.42392(4) 0.09961(4) 0.68459(3)
Zn13_6 Zn 1.0000 0.0000 1.0000
O15 O 0.4286(3) 0.2927(2) 0.74281(16)
O22 O 0.4555(3) 0.2373(2) 0.60843(16)
O25 O 0.6534(3) 0.0797(2) 0.80407(16)
O27 O 0.6580(3) 0.0308(2) 0.97461(16)
O34 O 0.1980(3) 0.1111(2) 0.58786(17)
C8 C 0.3012(4) 0.0023(3) 0.7866(3)
H8 H 0.2035 0.0194 0.7318
Zn2 Zn 0.57608(4) 0.90039(4) 0.31541(3)
Zn3_3 Zn 0.5000 1.0000 0.0000
O7 O 0.3466(3) 0.9203(2) 0.19593(16)
O8 O 0.1008(3) 0.8976(2) 0.12555(17)
O9 O 0.3420(3) 0.9692(2) 0.02539(16)
C2 C 0.6988(4) 0.9977(3) 0.2134(3)
H2 H 0.7965 0.9806 0.2682
C4 C 0.2328(4) 0.8741(3) 0.1888(3)
H4 H 0.2526 0.8158 0.2373
Zn6 Zn 0.62559(4) 0.58285(4) 0.36901(3)
Zn13_7 Zn 1.0000 1.0000 0.0000
Zn14_2 Zn 1.0000 0.5000 0.5000
O13 O 0.5714(3) 0.7073(2) 0.25719(16)
O16 O 0.4505(3) 0.5705(2) 0.13108(16)
O21 O 0.5445(3) 0.7627(2) 0.39157(16)
O23 O 0.5323(3) 0.7880(2) 0.00781(17)
O30 O 0.8404(3) 0.6609(2) 0.44286(16)
O33 O 0.8020(3) 0.8889(2) 0.41214(17)
C7 C 0.5077(4) 0.6823(3) 0.1720(2)
H7 H 0.5031 0.7563 0.1358
C12 C 0.8836(4) 0.7869(4) 0.4523(2)
H12 H 0.9880 0.8035 0.4941
Zn3_4 Zn 0.5000 1.0000 1.0000
O10 O 0.1160(3) 0.8813(2) 0.96655(17)
C5 C 0.2320(4) 0.8845(3) 0.9738(2)
H5 H 0.2420 0.8192 0.9386
Zn5 Zn 0.62559(4) 0.91715(4) 0.86901(3)
Zn10 Zn 0.57608(4) 0.59961(4) 0.81541(3)
Zn13_8 Zn 1.0000 1.0000 1.0000
O14 O 0.5714(3) 0.7927(2) 0.75719(16)
O17 O 0.4505(3) 0.9295(2) 0.63108(16)
O18 O 0.4058(3) 0.9949(2) 0.77808(16)
O19 O 0.3141(3) 0.9895(2) 0.85904(17)
O20 O 0.5445(3) 0.7373(2) 0.89157(16)
O32 O 0.8404(3) 0.8391(2) 0.94286(16)
C9 C 0.5351(4) 0.7062(4) 0.9564(3)
H9 H 0.5297 0.6106 0.9661
O26 O 0.8992(3) 0.1024(2) 0.87445(17)
C10 C 0.7672(4) 0.1259(3) 0.8112(3)
H10 H 0.7474 0.1842 0.7627
Zn7 Zn 0.37441(4) 0.41715(4) 0.63099(3)
O24 O 0.3466(3) 0.5797(2) 0.69593(16)
O26_2 O 0.1008(3) 0.6024(2) 0.62555(17)
O29 O 0.1160(3) 0.6187(2) 0.46655(17)
O31 O 0.1596(3) 0.3391(2) 0.55714(16)
C10_2 C 0.2328(4) 0.6259(3) 0.6888(3)
H10_2 H 0.2526 0.6842 0.7373
Zn3_5 Zn 0.5000 0.5000 0.5000
O3_2 O 0.4058(3) 0.5051(2) 0.27808(16)
O4_2 O 0.3141(3) 0.5105(2) 0.35904(17)
O6_2 O 0.5323(3) 0.7120(2) 0.50781(17)
O7_2 O 0.6534(3) 0.4203(2) 0.30407(16)
O8_2 O 0.8992(3) 0.3976(2) 0.37445(17)
O9_2 O 0.6580(3) 0.4692(2) 0.47461(16)
O10_2 O 0.8840(3) 0.3813(2) 0.53345(17)
C2_2 C 0.3012(4) 0.4977(3) 0.2866(3)
H2_2 H 0.2035 0.4806 0.2318
C3_2 C 0.5351(4) 0.7938(4) 0.4564(3)
H3_2 H 0.5297 0.8894 0.4661
C4_2 C 0.7672(4) 0.3741(3) 0.3112(3)
H4_2 H 0.7474 0.3158 0.2627
C5_2 C 0.7680(4) 0.3845(3) 0.5262(2)
H5_2 H 0.7580 0.3192 0.5614
O17_2 O 0.5495(3) 0.4295(2) 0.86892(16)
O18_2 O 0.5942(3) 0.4949(2) 0.72192(16)
O19_2 O 0.6859(3) 0.4895(2) 0.64096(17)
O23_2 O 0.4677(3) 0.2880(2) 0.49219(17)
O27_2 O 0.3420(3) 0.5308(2) 0.52539(16)
O34_2 O 0.8020(3) 0.6111(2) 0.91214(17)
C8_2 C 0.6988(4) 0.5023(3) 0.7134(3)
H8_2 H 0.7965 0.5194 0.7682
C9_2 C 0.4649(4) 0.2062(4) 0.5436(3)
H9_2 H 0.4703 0.1106 0.5339
C11_2 C 0.2320(4) 0.6155(3) 0.4738(2)
H11_2 H 0.2420 0.6808 0.4386
C7_2 C 0.4923(4) 0.3177(3) 0.8280(2)
H7_2 H 0.4969 0.2437 0.8642
C12_2 C 0.1164(4) 0.2131(4) 0.5477(2)
H12_2 H 0.0120 0.1965 0.5059
C1_2 C 0.5077(4) 0.8177(3) 0.6720(2)
H1_2 H 0.5031 0.7437 0.6358
C6_2 C 0.8836(4) 0.7131(4) 0.9523(2)
H6_2 H 0.9880 0.6965 0.9941
loop_
_geom_bond_atom_site_label_1
_geom_bond_atom_site_label_2
_geom_bond_site_symmetry_1
_geom_bond_site_symmetry_2
Zn1 O1 1_555 1_555
Zn3 O4 1_555 1_555
O1 C1 1_555 1_555
O2 C1 1_555 1_555
O3 Zn1 1_555 1_555
O5 Zn1 1_555 1_555
O11 Zn1 1_555 1_555
O12 C6 1_555 1_555
C1 H1 1_555 1_555
C3 O5 1_555 1_555
H3 C3 1_555 1_555
C6 O11 1_555 1_555
H6 C6 1_555 1_555
Zn9 O1 1_555 1_555
Zn13_5 O28 1_555 1_555
O28 C11 1_555 1_555
H11 C11 1_555 1_555
Zn13 O11 1_555 1_555
O5 Zn9 1_555 1_555
O12 Zn9 1_555 1_555
O6 Zn3_2 1_555 1_555
Zn8 O15 1_555 1_555
O22 Zn8 1_555 1_555
O27 Zn3_2 1_555 1_555
O34 Zn8 1_555 1_555
H8 C8 1_555 1_555
Zn8 O25 1_555 1_555
Zn13_3 O8 1_555 1_555
O8 C4 1_555 1_555
H2 C2 1_555 1_555
C4 O7 1_555 1_555
H4 C4 1_555 1_555
Zn6 O13 1_555 1_555
Zn9 O16 1_555 1_555
Zn14_2 O30 1_555 1_555
O13 Zn2 1_555 1_555
O16 C7 1_555 1_555
O21 Zn2 1_555 1_555
O23 Zn3_3 1_555 1_555
O30 Zn6 1_555 1_555
O33 Zn2 1_555 1_555
C7 O13 1_555 1_555
H7 C7 1_555 1_555
C12 O30 1_555 1_555
H12 C12 1_555 1_555
Zn2 O7 1_555 1_555
Zn3_3 O9 1_555 1_555
Zn6 O21 1_555 1_555
O33 C12 1_555 1_555
O10 Zn13_4 1_555 1_555
H5 C5 1_555 1_555
Zn5 O14 1_555 1_555
Zn10 O14 1_555 1_555
O18 Zn5 1_555 1_555
O19 Zn3_4 1_555 1_555
O20 Zn5 1_555 1_555
O32 Zn5 1_555 1_555
C9 O20 1_555 1_555
H9 C9 1_555 1_555
O10 C5 1_555 1_555
Zn10 O20 1_555 1_555
Zn13_8 O32 1_555 1_555
O25 C10 1_555 1_555
O26 Zn13_6 1_555 1_555
C10 O26 1_555 1_555
H10 C10 1_555 1_555
Zn7 O24 1_555 1_555
Zn10 O24 1_555 1_555
O24 C10_2 1_555 1_555
O26_2 Zn14 1_555 1_555
O29 Zn14 1_555 1_555
O31 Zn14 1_555 1_555
C10_2 O26_2 1_555 1_555
H10_2 C10_2 1_555 1_555
Zn7 O31 1_555 1_555
Zn3_5 O4_2 1_555 1_555
Zn14_2 O8_2 1_555 1_555
O3_2 Zn6 1_555 1_555
O4_2 C2_2 1_555 1_555
O6_2 Zn3_5 1_555 1_555
O7_2 Zn6 1_555 1_555
O8_2 C4_2 1_555 1_555
O9_2 Zn6 1_555 1_555
O10_2 Zn14_2 1_555 1_555
C2_2 O3_2 1_555 1_555
H2_2 C2_2 1_555 1_555
C3_2 O21 1_555 1_555
H3_2 C3_2 1_555 1_555
C4_2 O7_2 1_555 1_555
H4_2 C4_2 1_555 1_555
C5_2 O9_2 1_555 1_555
H5_2 C5_2 1_555 1_555
Zn7 O15 1_555 1_555
O17_2 Zn10 1_555 1_555
O18_2 Zn7 1_555 1_555
O19_2 Zn3_5 1_555 1_555
O22 Zn7 1_555 1_555
O23_2 Zn3_5 1_555 1_555
O27_2 Zn3_5 1_555 1_555
O29 C11_2 1_555 1_555
O34_2 Zn10 1_555 1_555
C8_2 O18_2 1_555 1_555
H8_2 C8_2 1_555 1_555
C9_2 O22 1_555 1_555
H9_2 C9_2 1_555 1_555
C11_2 O27_2 1_555 1_555
H11_2 C11_2 1_555 1_555
Zn9 O3_2 1_555 1_555
Zn9 O7_2 1_555 1_555
Zn3_5 O9_2 1_555 1_555
O6_2 C3_2 1_555 1_555
O10_2 C5_2 1_555 1_555
Zn7 O27_2 1_555 1_555
Zn10 O18_2 1_555 1_555
O19_2 C8_2 1_555 1_555
O23_2 C9_2 1_555 1_555
O17_2 C7_2 1_555 1_555
C7_2 O15 1_555 1_555
H7_2 C7_2 1_555 1_555
C12_2 O31 1_555 1_555
H12_2 C12_2 1_555 1_555
O34 C12_2 1_555 1_555
O14 C1_2 1_555 1_555
O17 C1_2 1_555 1_555
O34_2 C6_2 1_555 1_555
C1_2 H1_2 1_555 1_555
C6_2 O32 1_555 1_555
H6_2 C6_2 1_555 1_555

#END
