
###############################################################################
#
# This file contains modified crystal structure data generated from the
# MOF subset of the Cambridge Structural Database (CSD) v543 
# hosted by the Cambridge Crystallographic Data Centre (CCDC).
#
# This work is licensed under the Creative Commons
# Attribution-NonCommercial-ShareAlike 4.0 International License.
# To view a copy of this license, visit
# http://creativecommons.org/licenses/by-nc-sa/4.0/
# or send a letter to
# Creative Commons, PO Box 1866, Mountain View, CA 94042, USA.
#
# CIF created using the CSD Python API on 29 September 2022
# The structure has been converted into the P1 space group
# The structure has a 3D framework
# The original CSD entry TEWFOS is in the orthorhombic crystal system
# The framework has been calculated to contain at least 10.0% void space
# The void calculation uses a probe of radius 1.32A, grid spacing 0.4
# H atom positions have been added when not included in the experimental data
# Generated hydrogen atom positions removed from atoms on special positions
#
###############################################################################

data_TEWFOS
_chemical_formula_moiety         '(C240 H208 Cu8 N32 O80)n'
_symmetry_cell_setting           triclinic
_symmetry_space_group_name_H-M   'P 1'
_symmetry_Int_Tables_number      1
_space_group_name_Hall           'P 1'
loop_
_symmetry_equiv_pos_site_id
_symmetry_equiv_pos_as_xyz
1 x,y,z
_cell_length_a                   14.7932(8)
_cell_length_b                   16.7885(7)
_cell_length_c                   27.7725(16)
_cell_angle_alpha                90
_cell_angle_beta                 90
_cell_angle_gamma                90
_cell_volume                     6897.46
loop_
_atom_site_label
_atom_site_type_symbol
_atom_site_fract_x
_atom_site_fract_y
_atom_site_fract_z
Cu1 Cu 0.2500 0.2500 0.2500
O1 O 0.32461(18) 0.23776(14) 0.19270(10)
O3 O 0.43497(18) 0.31497(15) 0.22202(10)
N2 N 0.3012(2) 0.14826(16) 0.27694(11)
C2 C 0.4028(3) 0.2718(2) 0.19074(15)
C3 C 0.3895(3) 0.1378(2) 0.28023(14)
H1 H 0.4284 0.1789 0.2691
C4 C 0.4086(3) 0.2649(2) 0.10087(15)
H2 H 0.3453 0.2747 0.1008
C5 C 0.4538(3) 0.25805(19) 0.14428(13)
C6 C 0.4280(3) 0.0691(2) 0.29938(13)
H3 H 0.4918 0.0635 0.3011
C11 C 0.2805(3) 0.0202(2) 0.31271(14)
C12 C 0.3719(3) 0.00902(19) 0.31585(12)
C13 C 0.4773(3) 0.0103(2) 0.54702(14)
C14 C 0.2471(3) 0.0897(2) 0.29325(14)
H8 H 0.1834 0.0965 0.2912
C15 C 0.4538(3) 0.2576(3) 0.05792(16)
H9 H 0.4221 0.2629 0.0283
O5 O 0.1503(7) 0.1657(6) 0.1965(4)
N3 N 0.5609(2) 0.05077(16) 0.61223(11)
O6 O 0.69895(19) 0.06903(16) 0.57451(10)
C16 C 0.6198(3) 0.0515(2) 0.57302(14)
O7 O 0.41176(19) 0.01866(16) 0.62747(10)
C19 C 0.5905(3) 0.0160(2) 0.48345(14)
H12 H 0.6502 0.0261 0.4726
C20 C 0.4743(3) 0.0258(2) 0.59969(14)
C21 C 0.5648(3) 0.0263(2) 0.53074(14)
C22 C 0.5893(3) 0.06619(19) 0.66155(13)
H13 H 0.6356 0.1087 0.6618
H14 H 0.5369 0.0848 0.6807
H15 H 0.7597 0.0198 0.6761
O8 O 0.67539(18) 0.26224(14) 0.19270(10)
O9 O 0.56503(18) 0.18503(15) 0.22202(10)
C27 C 0.5972(3) 0.2282(2) 0.19074(15)
C28 C 0.5914(3) 0.2351(2) 0.10087(15)
H17 H 0.6547 0.2253 0.1008
C29 C 0.5462(3) 0.24195(19) 0.14428(13)
C30 C 0.5462(3) 0.2424(3) 0.05792(16)
H18 H 0.5779 0.2371 0.0283
O10 O 0.3497(7) 0.3343(6) 0.3035(4)
Cu3 Cu 0.7500 0.2500 0.2500
O11 O 0.17539(18) 0.26224(14) 0.30730(10)
N5 N 0.1988(2) 0.35174(16) 0.22306(11)
N1 N 0.4391(2) 0.94923(16) 0.38777(11)
O2 O 0.30105(19) 0.93097(16) 0.42549(10)
C1 C 0.3802(3) 0.9485(2) 0.42698(14)
O4 O 0.58824(19) 0.98134(16) 0.37253(10)
C7 C 0.4095(3) 0.9840(2) 0.51655(14)
H4 H 0.3498 0.9739 0.5274
C8 C 0.5257(3) 0.9742(2) 0.40031(14)
C9 C 0.4352(3) 0.9737(2) 0.46926(14)
C10 C 0.4107(3) 0.93381(19) 0.33845(13)
H5 H 0.3644 0.8913 0.3382
H6 H 0.4631 0.9152 0.3193
H7 H 0.2403 0.9802 0.3239
N4 N 0.6988(2) 0.85174(16) 0.72306(11)
C17 C 0.6105(3) 0.8622(2) 0.71977(14)
H10 H 0.5716 0.8211 0.7309
C18 C 0.5720(3) 0.9309(2) 0.70062(13)
H11 H 0.5082 0.9365 0.6989
C23 C 0.7195(3) 0.9798(2) 0.68729(14)
C24 C 0.6281(3) 0.99098(19) 0.68415(12)
C25 C 0.5227(3) 0.9897(2) 0.45298(14)
C26 C 0.7529(3) 0.9103(2) 0.70675(14)
H16 H 0.8166 0.9035 0.7088
Cu2 Cu 0.7500 0.7500 0.7500
C7_2 C 0.0905(3) 0.0160(2) 0.01655(14)
H4_2 H 0.1502 0.0261 0.0274
Cu1_2 Cu 0.2500 0.7500 0.7500
O1_2 O 0.17539(18) 0.76224(14) 0.69270(10)
O3_2 O 0.06503(18) 0.68503(15) 0.72202(10)
N2_2 N 0.1988(2) 0.85174(16) 0.77694(11)
C2_2 C 0.0972(3) 0.7282(2) 0.69074(15)
C3_2 C 0.1105(3) 0.8622(2) 0.78023(14)
H1_2 H 0.0716 0.8211 0.7691
C4_2 C 0.0914(3) 0.7351(2) 0.60087(15)
H2_2 H 0.1547 0.7253 0.6008
C5_2 C 0.0462(3) 0.74195(19) 0.64428(13)
C6_2 C 0.0720(3) 0.9309(2) 0.79938(13)
H3_2 H 0.0082 0.9365 0.8011
C11_2 C 0.2195(3) 0.9798(2) 0.81271(14)
C12_2 C 0.1281(3) 0.99098(19) 0.81585(12)
C14_2 C 0.2529(3) 0.9103(2) 0.79325(14)
H8_2 H 0.3166 0.9035 0.7912
C15_2 C 0.0462(3) 0.7424(3) 0.55792(16)
H9_2 H 0.0779 0.7371 0.5283
O5_2 O 0.3497(7) 0.8343(6) 0.6965(4)
O10_2 O 0.1503(7) 0.6657(6) 0.8035(4)
O11_2 O 0.32461(18) 0.73776(14) 0.80730(10)
N5_2 N 0.3012(2) 0.64826(16) 0.72306(11)
N4_2 N 0.8012(2) 0.14826(16) 0.22306(11)
C17_2 C 0.8895(3) 0.1378(2) 0.21977(14)
H10_2 H 0.9284 0.1789 0.2309
C18_2 C 0.9280(3) 0.0691(2) 0.20062(13)
H11_2 H 0.9918 0.0635 0.1989
C23_2 C 0.7805(3) 0.0202(2) 0.18729(14)
C24_2 C 0.8719(3) 0.00902(19) 0.18415(12)
C26_2 C 0.7471(3) 0.0897(2) 0.20675(14)
H16_2 H 0.6834 0.0965 0.2088
C19_2 C 0.9095(3) 0.9840(2) 0.98345(14)
H12_2 H 0.8498 0.9739 0.9726
O8_2 O 0.82461(18) 0.73776(14) 0.69270(10)
O9_2 O 0.93497(18) 0.81497(15) 0.72202(10)
C27_2 C 0.9028(3) 0.7718(2) 0.69074(15)
C28_2 C 0.9086(3) 0.7649(2) 0.60087(15)
H17_2 H 0.8453 0.7747 0.6008
C29_2 C 0.9538(3) 0.75805(19) 0.64428(13)
C30_2 C 0.9538(3) 0.7576(3) 0.55792(16)
H18_2 H 0.9221 0.7629 0.5283
N3_2 N 0.0609(2) 0.55077(16) 0.11223(11)
O6_2 O 0.19895(19) 0.56903(16) 0.07451(10)
C16_2 C 0.1198(3) 0.5515(2) 0.07302(14)
C17_3 C 0.1105(3) 0.3622(2) 0.21977(14)
H10_3 H 0.0716 0.3211 0.2309
C18_3 C 0.0720(3) 0.4309(2) 0.20062(13)
H11_3 H 0.0082 0.4365 0.1989
C21_2 C 0.0648(3) 0.5263(2) 0.03074(14)
C22_2 C 0.0893(3) 0.56619(19) 0.16155(13)
H13_2 H 0.1356 0.6087 0.1618
H14_2 H 0.0369 0.5848 0.1807
C23_3 C 0.2195(3) 0.4798(2) 0.18729(14)
H15_2 H 0.2597 0.5198 0.1761
C24_3 C 0.1281(3) 0.49098(19) 0.18415(12)
C26_3 C 0.2529(3) 0.4103(2) 0.20675(14)
H16_3 H 0.3166 0.4035 0.2088
O4_2 O 0.08824(19) 0.48134(16) 0.87253(10)
C8_2 C 0.0257(3) 0.4742(2) 0.90031(14)
C19_3 C 0.0905(3) 0.5160(2) 0.98345(14)
H12_3 H 0.1502 0.5261 0.9726
C25_2 C 0.0227(3) 0.4897(2) 0.95298(14)
C7_3 C 0.9095(3) 0.4840(2) 0.01655(14)
H4_3 H 0.8498 0.4739 0.0274
C13_2 C 0.9773(3) 0.5103(2) 0.04702(14)
O7_2 O 0.91176(19) 0.51866(16) 0.12747(10)
C20_2 C 0.9743(3) 0.5258(2) 0.09969(14)
N1_2 N 0.9391(2) 0.44923(16) 0.88777(11)
O2_2 O 0.80105(19) 0.43097(16) 0.92549(10)
C1_2 C 0.8802(3) 0.4485(2) 0.92698(14)
N2_3 N 0.8012(2) 0.64826(16) 0.77694(11)
C3_3 C 0.8895(3) 0.6378(2) 0.78023(14)
H1_3 H 0.9284 0.6789 0.7691
C6_3 C 0.9280(3) 0.5691(2) 0.79938(13)
H3_3 H 0.9918 0.5635 0.8011
C9_2 C 0.9352(3) 0.4737(2) 0.96926(14)
C10_2 C 0.9107(3) 0.43381(19) 0.83845(13)
H5_2 H 0.8644 0.3913 0.8382
H6_2 H 0.9631 0.4152 0.8193
C11_3 C 0.7805(3) 0.5202(2) 0.81271(14)
H7_2 H 0.7403 0.4802 0.8239
C12_3 C 0.8719(3) 0.50902(19) 0.81585(12)
C14_3 C 0.7471(3) 0.5897(2) 0.79325(14)
H8_3 H 0.6834 0.5965 0.7912
O5_3 O 0.6503(7) 0.6657(6) 0.6965(4)
O10_3 O 0.8497(7) 0.8343(6) 0.8035(4)
O11_3 O 0.67539(18) 0.76224(14) 0.80730(10)
N1_3 N 0.5609(2) 0.55077(16) 0.38777(11)
O2_3 O 0.69895(19) 0.56903(16) 0.42549(10)
C1_3 C 0.6198(3) 0.5515(2) 0.42698(14)
N2_4 N 0.6988(2) 0.35174(16) 0.27694(11)
O4_3 O 0.41176(19) 0.51866(16) 0.37253(10)
C3_4 C 0.6105(3) 0.3622(2) 0.28023(14)
H1_4 H 0.5716 0.3211 0.2691
C6_4 C 0.5720(3) 0.4309(2) 0.29938(13)
H3_4 H 0.5082 0.4365 0.3011
C7_4 C 0.5905(3) 0.5160(2) 0.51655(14)
H4_4 H 0.6502 0.5261 0.5274
C8_3 C 0.4743(3) 0.5258(2) 0.40031(14)
C9_3 C 0.5648(3) 0.5263(2) 0.46926(14)
C10_3 C 0.5893(3) 0.56619(19) 0.33845(13)
H5_3 H 0.6356 0.6087 0.3382
H6_3 H 0.5369 0.5848 0.3193
C11_4 C 0.7195(3) 0.4798(2) 0.31271(14)
H7_3 H 0.7597 0.5198 0.3239
C12_4 C 0.6281(3) 0.49098(19) 0.31585(12)
C13_3 C 0.5227(3) 0.4897(2) 0.54702(14)
C14_4 C 0.7529(3) 0.4103(2) 0.29325(14)
H8_4 H 0.8166 0.4035 0.2912
O5_4 O 0.8497(7) 0.3343(6) 0.1965(4)
N3_3 N 0.4391(2) 0.44923(16) 0.61223(11)
O6_3 O 0.30105(19) 0.43097(16) 0.57451(10)
C16_3 C 0.3802(3) 0.4485(2) 0.57302(14)
O7_3 O 0.58824(19) 0.48134(16) 0.62747(10)
C17_4 C 0.3895(3) 0.6378(2) 0.71977(14)
H10_4 H 0.4284 0.6789 0.7309
C18_4 C 0.4280(3) 0.5691(2) 0.70062(13)
H11_4 H 0.4918 0.5635 0.6989
C19_4 C 0.4095(3) 0.4840(2) 0.48345(14)
H12_4 H 0.3498 0.4739 0.4726
C20_3 C 0.5257(3) 0.4742(2) 0.59969(14)
C21_3 C 0.4352(3) 0.4737(2) 0.53074(14)
C22_3 C 0.4107(3) 0.43381(19) 0.66155(13)
H13_3 H 0.3644 0.3913 0.6618
H14_3 H 0.4631 0.4152 0.6807
C23_4 C 0.2805(3) 0.5202(2) 0.68729(14)
H15_3 H 0.2403 0.4802 0.6761
C24_4 C 0.3719(3) 0.50902(19) 0.68415(12)
C25_3 C 0.4773(3) 0.5103(2) 0.45298(14)
C26_4 C 0.2471(3) 0.5897(2) 0.70675(14)
H16_4 H 0.1834 0.5965 0.7088
O10_4 O 0.6503(7) 0.1657(6) 0.3035(4)
O11_4 O 0.82461(18) 0.23776(14) 0.30730(10)
O3_3 O 0.56503(18) 0.68503(15) 0.77798(10)
C2_3 C 0.5972(3) 0.7282(2) 0.80926(15)
C4_3 C 0.5914(3) 0.7351(2) 0.89913(15)
H2_3 H 0.6547 0.7253 0.8992
C5_3 C 0.5462(3) 0.74195(19) 0.85572(13)
C15_3 C 0.5462(3) 0.7424(3) 0.94208(16)
H9_3 H 0.5779 0.7371 0.9717
O9_3 O 0.43497(18) 0.81497(15) 0.77798(10)
C27_3 C 0.4028(3) 0.7718(2) 0.80926(15)
C28_3 C 0.4086(3) 0.7649(2) 0.89913(15)
H17_3 H 0.3453 0.7747 0.8992
C29_3 C 0.4538(3) 0.75805(19) 0.85572(13)
C30_3 C 0.4538(3) 0.7576(3) 0.94208(16)
H18_3 H 0.4221 0.7629 0.9717
O9_4 O 0.06503(18) 0.18503(15) 0.27798(10)
C27_4 C 0.0972(3) 0.2282(2) 0.30926(15)
C28_4 C 0.0914(3) 0.2351(2) 0.39913(15)
H17_4 H 0.1547 0.2253 0.3992
C29_4 C 0.0462(3) 0.24195(19) 0.35572(13)
C30_4 C 0.0462(3) 0.2424(3) 0.44208(16)
H18_4 H 0.0779 0.2371 0.4717
O3_4 O 0.93497(18) 0.31497(15) 0.27798(10)
C2_4 C 0.9028(3) 0.2718(2) 0.30926(15)
C4_4 C 0.9086(3) 0.2649(2) 0.39913(15)
H2_4 H 0.8453 0.2747 0.3992
C5_4 C 0.9538(3) 0.25805(19) 0.35572(13)
C15_4 C 0.9538(3) 0.2576(3) 0.44208(16)
H9_4 H 0.9221 0.2629 0.4717
N1_4 N 0.0609(2) 0.05077(16) 0.88777(11)
O2_4 O 0.19895(19) 0.06903(16) 0.92549(10)
C1_4 C 0.1198(3) 0.0515(2) 0.92698(14)
C9_4 C 0.0648(3) 0.0263(2) 0.96926(14)
C10_4 C 0.0893(3) 0.06619(19) 0.83845(13)
H5_4 H 0.1356 0.1087 0.8382
H6_4 H 0.0369 0.0848 0.8193
H7_4 H 0.2597 0.0198 0.8239
C13_4 C 0.0227(3) 0.9897(2) 0.04702(14)
O7_4 O 0.08824(19) 0.98134(16) 0.12747(10)
C20_4 C 0.0257(3) 0.9742(2) 0.09969(14)
O4_4 O 0.91176(19) 0.01866(16) 0.87253(10)
C8_4 C 0.9743(3) 0.0258(2) 0.90031(14)
C25_4 C 0.9773(3) 0.0103(2) 0.95298(14)
N3_4 N 0.9391(2) 0.94923(16) 0.11223(11)
O6_4 O 0.80105(19) 0.93097(16) 0.07451(10)
C16_4 C 0.8802(3) 0.9485(2) 0.07302(14)
C21_4 C 0.9352(3) 0.9737(2) 0.03074(14)
C22_4 C 0.9107(3) 0.93381(19) 0.16155(13)
H13_4 H 0.8644 0.8913 0.1618
H14_4 H 0.9631 0.9152 0.1807
H15_4 H 0.7403 0.9802 0.1761
Cu1_3 Cu 0.7500 0.7500 0.2500
N1_5 N 0.5609(2) 0.44923(16) 0.11223(11)
O1_3 O 0.67539(18) 0.73776(14) 0.30730(10)
O2_5 O 0.69895(19) 0.43097(16) 0.07451(10)
C1_5 C 0.6198(3) 0.4485(2) 0.07302(14)
O3_5 O 0.56503(18) 0.81497(15) 0.27798(10)
N2_5 N 0.6988(2) 0.64826(16) 0.22306(11)
O4_5 O 0.41176(19) 0.48134(16) 0.12747(10)
C2_5 C 0.5972(3) 0.7718(2) 0.30926(15)
C3_5 C 0.6105(3) 0.6378(2) 0.21977(14)
H1_5 H 0.5716 0.6789 0.2309
C4_5 C 0.5914(3) 0.7649(2) 0.39913(15)
H2_5 H 0.6547 0.7747 0.3992
C5_5 C 0.5462(3) 0.75805(19) 0.35572(13)
C6_5 C 0.5720(3) 0.5691(2) 0.20062(13)
H3_5 H 0.5082 0.5635 0.1989
C8_5 C 0.4743(3) 0.4742(2) 0.09969(14)
C9_5 C 0.5648(3) 0.4737(2) 0.03074(14)
C10_5 C 0.5893(3) 0.43381(19) 0.16155(13)
H5_5 H 0.6356 0.3913 0.1618
H6_5 H 0.5369 0.4152 0.1807
C11_5 C 0.7195(3) 0.5202(2) 0.18729(14)
H7_5 H 0.7597 0.4802 0.1761
C12_5 C 0.6281(3) 0.50902(19) 0.18415(12)
C14_5 C 0.7529(3) 0.5897(2) 0.20675(14)
H8_5 H 0.8166 0.5965 0.2088
C15_5 C 0.5462(3) 0.7576(3) 0.44208(16)
H9_5 H 0.5779 0.7629 0.4717
O5_5 O 0.8497(7) 0.6657(6) 0.3035(4)
C19_5 C 0.4095(3) 0.5160(2) 0.01655(14)
H12_5 H 0.3498 0.5261 0.0274
C25_5 C 0.4773(3) 0.4897(2) 0.04702(14)
O8_3 O 0.32461(18) 0.76224(14) 0.30730(10)
O9_5 O 0.43497(18) 0.68503(15) 0.27798(10)
C27_5 C 0.4028(3) 0.7282(2) 0.30926(15)
C28_5 C 0.4086(3) 0.7351(2) 0.39913(15)
H17_5 H 0.3453 0.7253 0.3992
C29_5 C 0.4538(3) 0.74195(19) 0.35572(13)
C30_5 C 0.4538(3) 0.7424(3) 0.44208(16)
H18_5 H 0.4221 0.7371 0.4717
O10_5 O 0.6503(7) 0.8343(6) 0.1965(4)
Cu3_2 Cu 0.2500 0.7500 0.2500
O11_5 O 0.82461(18) 0.76224(14) 0.19270(10)
N5_3 N 0.8012(2) 0.85174(16) 0.27694(11)
C7_5 C 0.5905(3) 0.4840(2) 0.98345(14)
H4_5 H 0.6502 0.4739 0.9726
C13_5 C 0.5227(3) 0.5103(2) 0.95298(14)
N3_5 N 0.4391(2) 0.55077(16) 0.88777(11)
O6_5 O 0.30105(19) 0.56903(16) 0.92549(10)
C16_5 C 0.3802(3) 0.5515(2) 0.92698(14)
N4_3 N 0.3012(2) 0.35174(16) 0.77694(11)
O7_5 O 0.58824(19) 0.51866(16) 0.87253(10)
C17_5 C 0.3895(3) 0.3622(2) 0.78023(14)
H10_5 H 0.4284 0.3211 0.7691
C18_5 C 0.4280(3) 0.4309(2) 0.79938(13)
H11_5 H 0.4918 0.4365 0.8011
C20_5 C 0.5257(3) 0.5258(2) 0.90031(14)
C21_5 C 0.4352(3) 0.5263(2) 0.96926(14)
C22_5 C 0.4107(3) 0.56619(19) 0.83845(13)
H13_5 H 0.3644 0.6087 0.8382
H14_5 H 0.4631 0.5848 0.8193
C23_5 C 0.2805(3) 0.4798(2) 0.81271(14)
H15_5 H 0.2403 0.5198 0.8239
C24_5 C 0.3719(3) 0.49098(19) 0.81585(12)
C26_5 C 0.2471(3) 0.4103(2) 0.79325(14)
H16_5 H 0.1834 0.4035 0.7912
Cu2_2 Cu 0.2500 0.2500 0.7500
O4_6 O 0.08824(19) 0.51866(16) 0.62747(10)
C8_6 C 0.0257(3) 0.5258(2) 0.59969(14)
N3_6 N 0.0609(2) 0.44923(16) 0.38777(11)
O6_6 O 0.19895(19) 0.43097(16) 0.42549(10)
C16_6 C 0.1198(3) 0.4485(2) 0.42698(14)
N4_4 N 0.1988(2) 0.64826(16) 0.27694(11)
C17_6 C 0.1105(3) 0.6378(2) 0.28023(14)
H10_6 H 0.0716 0.6789 0.2691
C18_6 C 0.0720(3) 0.5691(2) 0.29938(13)
H11_6 H 0.0082 0.5635 0.3011
C19_6 C 0.0905(3) 0.4840(2) 0.51655(14)
H12_6 H 0.1502 0.4739 0.5274
C21_6 C 0.0648(3) 0.4737(2) 0.46926(14)
C22_6 C 0.0893(3) 0.43381(19) 0.33845(13)
H13_6 H 0.1356 0.3913 0.3382
H14_6 H 0.0369 0.4152 0.3193
C23_6 C 0.2195(3) 0.5202(2) 0.31271(14)
H15_6 H 0.2597 0.4802 0.3239
C24_6 C 0.1281(3) 0.50902(19) 0.31585(12)
C25_6 C 0.0227(3) 0.5103(2) 0.54702(14)
C26_6 C 0.2529(3) 0.5897(2) 0.29325(14)
H16_6 H 0.3166 0.5965 0.2912
O8_4 O 0.17539(18) 0.23776(14) 0.80730(10)
O9_6 O 0.06503(18) 0.31497(15) 0.77798(10)
C27_6 C 0.0972(3) 0.2718(2) 0.80926(15)
C28_6 C 0.0914(3) 0.2649(2) 0.89913(15)
H17_6 H 0.1547 0.2747 0.8992
C29_6 C 0.0462(3) 0.25805(19) 0.85572(13)
C30_6 C 0.0462(3) 0.2576(3) 0.94208(16)
H18_6 H 0.0779 0.2629 0.9717
Cu1_4 Cu 0.7500 0.2500 0.7500
N1_6 N 0.9391(2) 0.55077(16) 0.61223(11)
O1_4 O 0.82461(18) 0.26224(14) 0.80730(10)
O2_6 O 0.80105(19) 0.56903(16) 0.57451(10)
C1_6 C 0.8802(3) 0.5515(2) 0.57302(14)
O3_6 O 0.93497(18) 0.18503(15) 0.77798(10)
N2_6 N 0.8012(2) 0.35174(16) 0.72306(11)
C2_6 C 0.9028(3) 0.2282(2) 0.80926(15)
C3_6 C 0.8895(3) 0.3622(2) 0.71977(14)
H1_6 H 0.9284 0.3211 0.7309
C4_6 C 0.9086(3) 0.2351(2) 0.89913(15)
H2_6 H 0.8453 0.2253 0.8992
C5_6 C 0.9538(3) 0.24195(19) 0.85572(13)
C6_6 C 0.9280(3) 0.4309(2) 0.70062(13)
H3_6 H 0.9918 0.4365 0.6989
C7_6 C 0.9095(3) 0.5160(2) 0.48345(14)
H4_6 H 0.8498 0.5261 0.4726
C9_6 C 0.9352(3) 0.5263(2) 0.53074(14)
C10_6 C 0.9107(3) 0.56619(19) 0.66155(13)
H5_6 H 0.8644 0.6087 0.6618
H6_6 H 0.9631 0.5848 0.6807
C11_6 C 0.7805(3) 0.4798(2) 0.68729(14)
H7_6 H 0.7403 0.5198 0.6761
C12_6 C 0.8719(3) 0.49098(19) 0.68415(12)
C13_6 C 0.9773(3) 0.4897(2) 0.45298(14)
C14_6 C 0.7471(3) 0.4103(2) 0.70675(14)
H8_6 H 0.6834 0.4035 0.7088
C15_6 C 0.9538(3) 0.2424(3) 0.94208(16)
H9_6 H 0.9221 0.2371 0.9717
O5_6 O 0.6503(7) 0.3343(6) 0.8035(4)
O7_6 O 0.91176(19) 0.48134(16) 0.37253(10)
C20_6 C 0.9743(3) 0.4742(2) 0.40031(14)
O10_6 O 0.8497(7) 0.1657(6) 0.6965(4)
O11_6 O 0.67539(18) 0.23776(14) 0.69270(10)
N5_4 N 0.6988(2) 0.14826(16) 0.77694(11)
N2_7 N 0.1988(2) 0.14826(16) 0.72306(11)
C3_7 C 0.1105(3) 0.1378(2) 0.71977(14)
H1_7 H 0.0716 0.1789 0.7309
C6_7 C 0.0720(3) 0.0691(2) 0.70062(13)
H3_7 H 0.0082 0.0635 0.6989
C11_7 C 0.2195(3) 0.0202(2) 0.68729(14)
C12_7 C 0.1281(3) 0.00902(19) 0.68415(12)
C13_7 C 0.0227(3) 0.0103(2) 0.45298(14)
C14_7 C 0.2529(3) 0.0897(2) 0.70675(14)
H8_7 H 0.3166 0.0965 0.7088
O5_7 O 0.3497(7) 0.1657(6) 0.8035(4)
O7_7 O 0.08824(19) 0.01866(16) 0.37253(10)
C20_7 C 0.0257(3) 0.0258(2) 0.40031(14)
O10_7 O 0.1503(7) 0.3343(6) 0.6965(4)
O11_7 O 0.32461(18) 0.26224(14) 0.69270(10)
N1_7 N 0.0609(2) 0.94923(16) 0.61223(11)
O2_7 O 0.19895(19) 0.93097(16) 0.57451(10)
C1_7 C 0.1198(3) 0.9485(2) 0.57302(14)
C7_7 C 0.0905(3) 0.9840(2) 0.48345(14)
H4_7 H 0.1502 0.9739 0.4726
C9_7 C 0.0648(3) 0.9737(2) 0.53074(14)
C10_7 C 0.0893(3) 0.93381(19) 0.66155(13)
H5_7 H 0.1356 0.8913 0.6618
H6_7 H 0.0369 0.9152 0.6807
H7_7 H 0.2597 0.9802 0.6761
N3_7 N 0.9391(2) 0.05077(16) 0.38777(11)
O6_7 O 0.80105(19) 0.06903(16) 0.42549(10)
C16_7 C 0.8802(3) 0.0515(2) 0.42698(14)
C19_7 C 0.9095(3) 0.0160(2) 0.51655(14)
H12_7 H 0.8498 0.0261 0.5274
C21_7 C 0.9352(3) 0.0263(2) 0.46926(14)
C22_7 C 0.9107(3) 0.06619(19) 0.33845(13)
H13_7 H 0.8644 0.1087 0.3382
H14_7 H 0.9631 0.0848 0.3193
H15_7 H 0.7403 0.0198 0.3239
O4_7 O 0.91176(19) 0.98134(16) 0.62747(10)
C8_7 C 0.9743(3) 0.9742(2) 0.59969(14)
C17_7 C 0.8895(3) 0.8622(2) 0.28023(14)
H10_7 H 0.9284 0.8211 0.2691
C18_7 C 0.9280(3) 0.9309(2) 0.29938(13)
H11_7 H 0.9918 0.9365 0.3011
C23_7 C 0.7805(3) 0.9798(2) 0.31271(14)
C24_7 C 0.8719(3) 0.99098(19) 0.31585(12)
C25_7 C 0.9773(3) 0.9897(2) 0.54702(14)
C26_7 C 0.7471(3) 0.9103(2) 0.29325(14)
H16_7 H 0.6834 0.9035 0.2912
C7_8 C 0.4095(3) 0.0160(2) 0.98345(14)
H4_8 H 0.3498 0.0261 0.9726
C17_8 C 0.6105(3) 0.1378(2) 0.78023(14)
H10_8 H 0.5716 0.1789 0.7691
C18_8 C 0.5720(3) 0.0691(2) 0.79938(13)
H11_8 H 0.5082 0.0635 0.8011
C23_8 C 0.7195(3) 0.0202(2) 0.81271(14)
C24_8 C 0.6281(3) 0.00902(19) 0.81585(12)
C26_8 C 0.7529(3) 0.0897(2) 0.79325(14)
H16_8 H 0.8166 0.0965 0.7912
N2_8 N 0.3012(2) 0.85174(16) 0.22306(11)
C3_8 C 0.3895(3) 0.8622(2) 0.21977(14)
H1_8 H 0.4284 0.8211 0.2309
C6_8 C 0.4280(3) 0.9309(2) 0.20062(13)
H3_8 H 0.4918 0.9365 0.1989
C11_8 C 0.2805(3) 0.9798(2) 0.18729(14)
C12_8 C 0.3719(3) 0.99098(19) 0.18415(12)
C14_8 C 0.2471(3) 0.9103(2) 0.20675(14)
H8_8 H 0.1834 0.9035 0.2088
O5_8 O 0.1503(7) 0.8343(6) 0.3035(4)
C19_8 C 0.5905(3) 0.9840(2) 0.01655(14)
H12_8 H 0.6502 0.9739 0.0274
O10_8 O 0.3497(7) 0.6657(6) 0.1965(4)
O11_8 O 0.17539(18) 0.73776(14) 0.19270(10)
O3_7 O 0.43497(18) 0.18503(15) 0.72202(10)
C2_7 C 0.4028(3) 0.2282(2) 0.69074(15)
C4_7 C 0.4086(3) 0.2351(2) 0.60087(15)
H2_7 H 0.3453 0.2253 0.6008
C5_7 C 0.4538(3) 0.24195(19) 0.64428(13)
C15_7 C 0.4538(3) 0.2424(3) 0.55792(16)
H9_7 H 0.4221 0.2371 0.5283
O9_7 O 0.56503(18) 0.31497(15) 0.72202(10)
C27_7 C 0.5972(3) 0.2718(2) 0.69074(15)
C28_7 C 0.5914(3) 0.2649(2) 0.60087(15)
H17_7 H 0.6547 0.2747 0.6008
C29_7 C 0.5462(3) 0.25805(19) 0.64428(13)
C30_7 C 0.5462(3) 0.2576(3) 0.55792(16)
H18_7 H 0.5779 0.2629 0.5283
O3_8 O 0.06503(18) 0.81497(15) 0.22202(10)
C2_8 C 0.0972(3) 0.7718(2) 0.19074(15)
C4_8 C 0.0914(3) 0.7649(2) 0.10087(15)
H2_8 H 0.1547 0.7747 0.1008
C5_8 C 0.0462(3) 0.75805(19) 0.14428(13)
C15_8 C 0.0462(3) 0.7576(3) 0.05792(16)
H9_8 H 0.0779 0.7629 0.0283
O9_8 O 0.93497(18) 0.68503(15) 0.22202(10)
C27_8 C 0.9028(3) 0.7282(2) 0.19074(15)
C28_8 C 0.9086(3) 0.7351(2) 0.10087(15)
H17_8 H 0.8453 0.7253 0.1008
C29_8 C 0.9538(3) 0.74195(19) 0.14428(13)
C30_8 C 0.9538(3) 0.7424(3) 0.05792(16)
H18_8 H 0.9221 0.7371 0.0283
N1_8 N 0.4391(2) 0.05077(16) 0.11223(11)
O2_8 O 0.30105(19) 0.06903(16) 0.07451(10)
C1_8 C 0.3802(3) 0.0515(2) 0.07302(14)
O4_8 O 0.58824(19) 0.01866(16) 0.12747(10)
C8_8 C 0.5257(3) 0.0258(2) 0.09969(14)
C9_8 C 0.4352(3) 0.0263(2) 0.03074(14)
C10_8 C 0.4107(3) 0.06619(19) 0.16155(13)
H5_8 H 0.3644 0.1087 0.1618
H6_8 H 0.4631 0.0848 0.1807
H7_8 H 0.2403 0.0198 0.1761
C25_8 C 0.5227(3) 0.0103(2) 0.04702(14)
C13_8 C 0.4773(3) 0.9897(2) 0.95298(14)
N3_8 N 0.5609(2) 0.94923(16) 0.88777(11)
O6_8 O 0.69895(19) 0.93097(16) 0.92549(10)
C16_8 C 0.6198(3) 0.9485(2) 0.92698(14)
O7_8 O 0.41176(19) 0.98134(16) 0.87253(10)
C20_8 C 0.4743(3) 0.9742(2) 0.90031(14)
C21_8 C 0.5648(3) 0.9737(2) 0.96926(14)
C22_8 C 0.5893(3) 0.93381(19) 0.83845(13)
H13_8 H 0.6356 0.8913 0.8382
H14_8 H 0.5369 0.9152 0.8193
H15_8 H 0.7597 0.9802 0.8239
loop_
_geom_bond_atom_site_label_1
_geom_bond_atom_site_label_2
_geom_bond_site_symmetry_1
_geom_bond_site_symmetry_2
Cu1 O1 1_555 1_555
O1 C2 1_555 1_555
O3 C2 1_555 1_555
N2 Cu1 1_555 1_555
C2 C5 1_555 1_555
C3 N2 1_555 1_555
H1 C3 1_555 1_555
C4 H2 1_555 1_555
C5 C4 1_555 1_555
C6 C3 1_555 1_555
H3 C6 1_555 1_555
C12 C6 1_555 1_555
C14 N2 1_555 1_555
H8 C14 1_555 1_555
C15 C4 1_555 1_555
H9 C15 1_555 1_555
O5 Cu1 1_555 1_555
N3 C16 1_555 1_555
O6 C16 1_555 1_555
C16 C21 1_555 1_555
O7 C20 1_555 1_555
C19 H12 1_555 1_555
C20 C13 1_555 1_555
C21 C13 1_555 1_555
C22 N3 1_555 1_555
H13 C22 1_555 1_555
H14 C22 1_555 1_555
O8 C27 1_555 1_555
O9 C27 1_555 1_555
C27 C29 1_555 1_555
C28 H17 1_555 1_555
C29 C5 1_555 1_555
C30 C15 1_555 1_555
H18 C30 1_555 1_555
O10 Cu1 1_555 1_555
Cu3 O8 1_555 1_555
O11 Cu1 1_555 1_555
N5 Cu1 1_555 1_555
C11 C12 1_555 1_555
C11 C14 1_555 1_555
N3 C20 1_555 1_555
C19 C21 1_555 1_555
C28 C29 1_555 1_555
C28 C30 1_555 1_555
N1 C1 1_555 1_555
O2 C1 1_555 1_555
C1 C9 1_555 1_555
O4 C8 1_555 1_555
C7 H4 1_555 1_555
C8 N1 1_555 1_555
C9 C7 1_555 1_555
C10 N1 1_555 1_555
H5 C10 1_555 1_555
H6 C10 1_555 1_555
N4 C17 1_555 1_555
C17 H10 1_555 1_555
C18 C17 1_555 1_555
H11 C18 1_555 1_555
C24 C18 1_555 1_555
C25 C8 1_555 1_555
C26 N4 1_555 1_555
H16 C26 1_555 1_555
Cu2 N4 1_555 1_555
C9 C25 1_555 1_555
C23 C24 1_555 1_555
C23 C26 1_555 1_555
C7_2 H4_2 1_555 1_555
Cu1_2 O1_2 1_555 1_555
O1_2 C2_2 1_555 1_555
O3_2 C2_2 1_555 1_555
N2_2 Cu1_2 1_555 1_555
C2_2 C5_2 1_555 1_555
C3_2 N2_2 1_555 1_555
H1_2 C3_2 1_555 1_555
C4_2 H2_2 1_555 1_555
C5_2 C4_2 1_555 1_555
C6_2 C3_2 1_555 1_555
H3_2 C6_2 1_555 1_555
C12_2 C6_2 1_555 1_555
C14_2 N2_2 1_555 1_555
H8_2 C14_2 1_555 1_555
C15_2 C4_2 1_555 1_555
H9_2 C15_2 1_555 1_555
O5_2 Cu1_2 1_555 1_555
O10_2 Cu1_2 1_555 1_555
O11_2 Cu1_2 1_555 1_555
N5_2 Cu1_2 1_555 1_555
C11_2 C12_2 1_555 1_555
C11_2 C14_2 1_555 1_555
N4_2 C17_2 1_555 1_555
C17_2 H10_2 1_555 1_555
C18_2 C17_2 1_555 1_555
H11_2 C18_2 1_555 1_555
C24_2 C18_2 1_555 1_555
C26_2 N4_2 1_555 1_555
H16_2 C26_2 1_555 1_555
Cu3 N4_2 1_555 1_555
C23_2 C24_2 1_555 1_555
C23_2 C26_2 1_555 1_555
C19_2 H12_2 1_555 1_555
O8_2 C27_2 1_555 1_555
O9_2 C27_2 1_555 1_555
C27_2 C29_2 1_555 1_555
C28_2 H17_2 1_555 1_555
H18_2 C30_2 1_555 1_555
Cu2 O8_2 1_555 1_555
C28_2 C29_2 1_555 1_555
C28_2 C30_2 1_555 1_555
N3_2 C16_2 1_555 1_555
O6_2 C16_2 1_555 1_555
C16_2 C21_2 1_555 1_555
N5 C17_3 1_555 1_555
C17_3 H10_3 1_555 1_555
C18_3 C17_3 1_555 1_555
H11_3 C18_3 1_555 1_555
C22_2 N3_2 1_555 1_555
H13_2 C22_2 1_555 1_555
H14_2 C22_2 1_555 1_555
C23_3 H15_2 1_555 1_555
C24_3 C18_3 1_555 1_555
C26_3 N5 1_555 1_555
H16_3 C26_3 1_555 1_555
C22_2 C24_3 1_555 1_555
C23_3 C24_3 1_555 1_555
C23_3 C26_3 1_555 1_555
O4_2 C8_2 1_555 1_555
C19_3 H12_3 1_555 1_555
C25_2 C8_2 1_555 1_555
C19_3 C25_2 1_555 1_555
C7_3 H4_3 1_555 1_555
C13_2 C7_3 1_555 1_555
O7_2 C20_2 1_555 1_555
C20_2 C13_2 1_555 1_555
N1_2 C1_2 1_555 1_555
O2_2 C1_2 1_555 1_555
C1_2 C9_2 1_555 1_555
N2_3 Cu2 1_555 1_555
C3_3 N2_3 1_555 1_555
H1_3 C3_3 1_555 1_555
C6_3 C3_3 1_555 1_555
H3_3 C6_3 1_555 1_555
C10_2 N1_2 1_555 1_555
H5_2 C10_2 1_555 1_555
H6_2 C10_2 1_555 1_555
C11_3 H7_2 1_555 1_555
C12_3 C6_3 1_555 1_555
C14_3 N2_3 1_555 1_555
H8_3 C14_3 1_555 1_555
O5_3 Cu2 1_555 1_555
O10_3 Cu2 1_555 1_555
O11_3 Cu2 1_555 1_555
C10_2 C12_3 1_555 1_555
C11_3 C12_3 1_555 1_555
C11_3 C14_3 1_555 1_555
N1_3 C1_3 1_555 1_555
O2_3 C1_3 1_555 1_555
C1_3 C9_3 1_555 1_555
N2_4 Cu3 1_555 1_555
O4_3 C8_3 1_555 1_555
C3_4 N2_4 1_555 1_555
H1_4 C3_4 1_555 1_555
C6_4 C3_4 1_555 1_555
H3_4 C6_4 1_555 1_555
C7_4 H4_4 1_555 1_555
C8_3 N1_3 1_555 1_555
C9_3 C7_4 1_555 1_555
C10_3 N1_3 1_555 1_555
H5_3 C10_3 1_555 1_555
H6_3 C10_3 1_555 1_555
C11_4 H7_3 1_555 1_555
C12_4 C6_4 1_555 1_555
C13_3 C7_4 1_555 1_555
C14_4 N2_4 1_555 1_555
H8_4 C14_4 1_555 1_555
O5_4 Cu3 1_555 1_555
N3_3 C16_3 1_555 1_555
O6_3 C16_3 1_555 1_555
C16_3 C21_3 1_555 1_555
N5_2 C17_4 1_555 1_555
O7_3 C20_3 1_555 1_555
C17_4 H10_4 1_555 1_555
C18_4 C17_4 1_555 1_555
H11_4 C18_4 1_555 1_555
C19_4 H12_4 1_555 1_555
C20_3 C13_3 1_555 1_555
C21_3 C13_3 1_555 1_555
C22_3 N3_3 1_555 1_555
H13_3 C22_3 1_555 1_555
H14_3 C22_3 1_555 1_555
C23_4 H15_3 1_555 1_555
C24_4 C18_4 1_555 1_555
C25_3 C8_3 1_555 1_555
C26_4 N5_2 1_555 1_555
H16_4 C26_4 1_555 1_555
O10_4 Cu3 1_555 1_555
O11_4 Cu3 1_555 1_555
C9_3 C25_3 1_555 1_555
C10_3 C12_4 1_555 1_555
C11_4 C12_4 1_555 1_555
C11_4 C14_4 1_555 1_555
N3_3 C20_3 1_555 1_555
C19_4 C21_3 1_555 1_555
C19_4 C25_3 1_555 1_555
C22_3 C24_4 1_555 1_555
C23_4 C24_4 1_555 1_555
C23_4 C26_4 1_555 1_555
O11_3 C2_3 1_555 1_555
O3_3 C2_3 1_555 1_555
C2_3 C5_3 1_555 1_555
C4_3 H2_3 1_555 1_555
C5_3 C4_3 1_555 1_555
C15_3 C4_3 1_555 1_555
H9_3 C15_3 1_555 1_555
O11_2 C27_3 1_555 1_555
O9_3 C27_3 1_555 1_555
C27_3 C29_3 1_555 1_555
C28_3 H17_3 1_555 1_555
C29_3 C5_3 1_555 1_555
C30_3 C15_3 1_555 1_555
H18_3 C30_3 1_555 1_555
C28_3 C29_3 1_555 1_555
C28_3 C30_3 1_555 1_555
O11 C27_4 1_555 1_555
O9_4 C27_4 1_555 1_555
C27_4 C29_4 1_555 1_555
C28_4 H17_4 1_555 1_555
H18_4 C30_4 1_555 1_555
C28_4 C29_4 1_555 1_555
C28_4 C30_4 1_555 1_555
O11_4 C2_4 1_555 1_555
O3_4 C2_4 1_555 1_555
C2_4 C5_4 1_555 1_555
C4_4 H2_4 1_555 1_555
C5_4 C4_4 1_555 1_555
C15_4 C4_4 1_555 1_555
H9_4 C15_4 1_555 1_555
N1_4 C1_4 1_555 1_555
O2_4 C1_4 1_555 1_555
C1_4 C9_4 1_555 1_555
C10_4 N1_4 1_555 1_555
H5_4 C10_4 1_555 1_555
H6_4 C10_4 1_555 1_555
O7_4 C20_4 1_555 1_555
C20_4 C13_4 1_555 1_555
O4_4 C8_4 1_555 1_555
C25_4 C8_4 1_555 1_555
N3_4 C16_4 1_555 1_555
O6_4 C16_4 1_555 1_555
C16_4 C21_4 1_555 1_555
C22_4 N3_4 1_555 1_555
H13_4 C22_4 1_555 1_555
H14_4 C22_4 1_555 1_555
Cu1_3 O1_3 1_555 1_555
N1_5 C1_5 1_555 1_555
O1_3 C2_5 1_555 1_555
O2_5 C1_5 1_555 1_555
C1_5 C9_5 1_555 1_555
O3_5 C2_5 1_555 1_555
N2_5 Cu1_3 1_555 1_555
O4_5 C8_5 1_555 1_555
C2_5 C5_5 1_555 1_555
C3_5 N2_5 1_555 1_555
H1_5 C3_5 1_555 1_555
C4_5 H2_5 1_555 1_555
C5_5 C4_5 1_555 1_555
C6_5 C3_5 1_555 1_555
H3_5 C6_5 1_555 1_555
C8_5 N1_5 1_555 1_555
C10_5 N1_5 1_555 1_555
H5_5 C10_5 1_555 1_555
H6_5 C10_5 1_555 1_555
C11_5 H7_5 1_555 1_555
C12_5 C6_5 1_555 1_555
C14_5 N2_5 1_555 1_555
H8_5 C14_5 1_555 1_555
C15_5 C4_5 1_555 1_555
H9_5 C15_5 1_555 1_555
O5_5 Cu1_3 1_555 1_555
C19_5 H12_5 1_555 1_555
C25_5 C8_5 1_555 1_555
O8_3 C27_5 1_555 1_555
O9_5 C27_5 1_555 1_555
C27_5 C29_5 1_555 1_555
C28_5 H17_5 1_555 1_555
C29_5 C5_5 1_555 1_555
C30_5 C15_5 1_555 1_555
H18_5 C30_5 1_555 1_555
O10_5 Cu1_3 1_555 1_555
Cu3_2 O8_3 1_555 1_555
O11_5 Cu1_3 1_555 1_555
N5_3 Cu1_3 1_555 1_555
C9_5 C25_5 1_555 1_555
C10_5 C12_5 1_555 1_555
C11_5 C12_5 1_555 1_555
C11_5 C14_5 1_555 1_555
C19_5 C25_5 1_555 1_555
C28_5 C29_5 1_555 1_555
C28_5 C30_5 1_555 1_555
C7_5 H4_5 1_555 1_555
C13_5 C7_5 1_555 1_555
N3_5 C16_5 1_555 1_555
O6_5 C16_5 1_555 1_555
C16_5 C21_5 1_555 1_555
N4_3 C17_5 1_555 1_555
O7_5 C20_5 1_555 1_555
C17_5 H10_5 1_555 1_555
C18_5 C17_5 1_555 1_555
H11_5 C18_5 1_555 1_555
C20_5 C13_5 1_555 1_555
C21_5 C13_5 1_555 1_555
C22_5 N3_5 1_555 1_555
H13_5 C22_5 1_555 1_555
H14_5 C22_5 1_555 1_555
C23_5 H15_5 1_555 1_555
C24_5 C18_5 1_555 1_555
C26_5 N4_3 1_555 1_555
H16_5 C26_5 1_555 1_555
Cu2_2 N4_3 1_555 1_555
N3_5 C20_5 1_555 1_555
C22_5 C24_5 1_555 1_555
C23_5 C24_5 1_555 1_555
C23_5 C26_5 1_555 1_555
O4_6 C8_6 1_555 1_555
N3_6 C16_6 1_555 1_555
O6_6 C16_6 1_555 1_555
C16_6 C21_6 1_555 1_555
N4_4 C17_6 1_555 1_555
C17_6 H10_6 1_555 1_555
C18_6 C17_6 1_555 1_555
H11_6 C18_6 1_555 1_555
C19_6 H12_6 1_555 1_555
C22_6 N3_6 1_555 1_555
H13_6 C22_6 1_555 1_555
H14_6 C22_6 1_555 1_555
C23_6 H15_6 1_555 1_555
C24_6 C18_6 1_555 1_555
C25_6 C8_6 1_555 1_555
C26_6 N4_4 1_555 1_555
H16_6 C26_6 1_555 1_555
O8_4 C27_6 1_555 1_555
O9_6 C27_6 1_555 1_555
C27_6 C29_6 1_555 1_555
C28_6 H17_6 1_555 1_555
H18_6 C30_6 1_555 1_555
Cu3_2 N4_4 1_555 1_555
Cu2_2 O8_4 1_555 1_555
C19_6 C21_6 1_555 1_555
C19_6 C25_6 1_555 1_555
C22_6 C24_6 1_555 1_555
C23_6 C24_6 1_555 1_555
C23_6 C26_6 1_555 1_555
C28_6 C29_6 1_555 1_555
C28_6 C30_6 1_555 1_555
Cu1_4 O1_4 1_555 1_555
N1_6 C1_6 1_555 1_555
O1_4 C2_6 1_555 1_555
O2_6 C1_6 1_555 1_555
C1_6 C9_6 1_555 1_555
O3_6 C2_6 1_555 1_555
N2_6 Cu1_4 1_555 1_555
C2_6 C5_6 1_555 1_555
C3_6 N2_6 1_555 1_555
H1_6 C3_6 1_555 1_555
C4_6 H2_6 1_555 1_555
C5_6 C4_6 1_555 1_555
C6_6 C3_6 1_555 1_555
H3_6 C6_6 1_555 1_555
C7_6 H4_6 1_555 1_555
C9_6 C7_6 1_555 1_555
C10_6 N1_6 1_555 1_555
H5_6 C10_6 1_555 1_555
H6_6 C10_6 1_555 1_555
C11_6 H7_6 1_555 1_555
C12_6 C6_6 1_555 1_555
C13_6 C7_6 1_555 1_555
C14_6 N2_6 1_555 1_555
H8_6 C14_6 1_555 1_555
C15_6 C4_6 1_555 1_555
H9_6 C15_6 1_555 1_555
O5_6 Cu1_4 1_555 1_555
O7_6 C20_6 1_555 1_555
C20_6 C13_6 1_555 1_555
O10_6 Cu1_4 1_555 1_555
O11_6 Cu1_4 1_555 1_555
N5_4 Cu1_4 1_555 1_555
C10_6 C12_6 1_555 1_555
C11_6 C12_6 1_555 1_555
C11_6 C14_6 1_555 1_555
N2_7 Cu2_2 1_555 1_555
C3_7 N2_7 1_555 1_555
H1_7 C3_7 1_555 1_555
C6_7 C3_7 1_555 1_555
H3_7 C6_7 1_555 1_555
C12_7 C6_7 1_555 1_555
C14_7 N2_7 1_555 1_555
H8_7 C14_7 1_555 1_555
O5_7 Cu2_2 1_555 1_555
O7_7 C20_7 1_555 1_555
C20_7 C13_7 1_555 1_555
O10_7 Cu2_2 1_555 1_555
O11_7 Cu2_2 1_555 1_555
C11_7 C12_7 1_555 1_555
C11_7 C14_7 1_555 1_555
N1_7 C1_7 1_555 1_555
O2_7 C1_7 1_555 1_555
C1_7 C9_7 1_555 1_555
C7_7 H4_7 1_555 1_555
C9_7 C7_7 1_555 1_555
C10_7 N1_7 1_555 1_555
H5_7 C10_7 1_555 1_555
H6_7 C10_7 1_555 1_555
N3_7 C16_7 1_555 1_555
O6_7 C16_7 1_555 1_555
C16_7 C21_7 1_555 1_555
C19_7 H12_7 1_555 1_555
C22_7 N3_7 1_555 1_555
H13_7 C22_7 1_555 1_555
H14_7 C22_7 1_555 1_555
C19_7 C21_7 1_555 1_555
O4_7 C8_7 1_555 1_555
N5_3 C17_7 1_555 1_555
C17_7 H10_7 1_555 1_555
C18_7 C17_7 1_555 1_555
H11_7 C18_7 1_555 1_555
C24_7 C18_7 1_555 1_555
C25_7 C8_7 1_555 1_555
C26_7 N5_3 1_555 1_555
H16_7 C26_7 1_555 1_555
C23_7 C24_7 1_555 1_555
C23_7 C26_7 1_555 1_555
C7_8 H4_8 1_555 1_555
N5_4 C17_8 1_555 1_555
C17_8 H10_8 1_555 1_555
C18_8 C17_8 1_555 1_555
H11_8 C18_8 1_555 1_555
C24_8 C18_8 1_555 1_555
C26_8 N5_4 1_555 1_555
H16_8 C26_8 1_555 1_555
C23_8 C24_8 1_555 1_555
C23_8 C26_8 1_555 1_555
N2_8 Cu3_2 1_555 1_555
C3_8 N2_8 1_555 1_555
H1_8 C3_8 1_555 1_555
C6_8 C3_8 1_555 1_555
H3_8 C6_8 1_555 1_555
C12_8 C6_8 1_555 1_555
C14_8 N2_8 1_555 1_555
H8_8 C14_8 1_555 1_555
O5_8 Cu3_2 1_555 1_555
C19_8 H12_8 1_555 1_555
O10_8 Cu3_2 1_555 1_555
O11_8 Cu3_2 1_555 1_555
C11_8 C12_8 1_555 1_555
C11_8 C14_8 1_555 1_555
O11_7 C2_7 1_555 1_555
O3_7 C2_7 1_555 1_555
C2_7 C5_7 1_555 1_555
C4_7 H2_7 1_555 1_555
C5_7 C4_7 1_555 1_555
C15_7 C4_7 1_555 1_555
H9_7 C15_7 1_555 1_555
O11_6 C27_7 1_555 1_555
O9_7 C27_7 1_555 1_555
C27_7 C29_7 1_555 1_555
C28_7 H17_7 1_555 1_555
C29_7 C5_7 1_555 1_555
C30_7 C15_7 1_555 1_555
H18_7 C30_7 1_555 1_555
C28_7 C29_7 1_555 1_555
C28_7 C30_7 1_555 1_555
O11_8 C2_8 1_555 1_555
O3_8 C2_8 1_555 1_555
C2_8 C5_8 1_555 1_555
C4_8 H2_8 1_555 1_555
C5_8 C4_8 1_555 1_555
C15_8 C4_8 1_555 1_555
H9_8 C15_8 1_555 1_555
O11_5 C27_8 1_555 1_555
O9_8 C27_8 1_555 1_555
C27_8 C29_8 1_555 1_555
C28_8 H17_8 1_555 1_555
H18_8 C30_8 1_555 1_555
C28_8 C29_8 1_555 1_555
C28_8 C30_8 1_555 1_555
N1_8 C1_8 1_555 1_555
O2_8 C1_8 1_555 1_555
C1_8 C9_8 1_555 1_555
O4_8 C8_8 1_555 1_555
C8_8 N1_8 1_555 1_555
C10_8 N1_8 1_555 1_555
H5_8 C10_8 1_555 1_555
H6_8 C10_8 1_555 1_555
C25_8 C8_8 1_555 1_555
C9_8 C25_8 1_555 1_555
N3_8 C16_8 1_555 1_555
O6_8 C16_8 1_555 1_555
C16_8 C21_8 1_555 1_555
O7_8 C20_8 1_555 1_555
C20_8 C13_8 1_555 1_555
C21_8 C13_8 1_555 1_555
C22_8 N3_8 1_555 1_555
H13_8 C22_8 1_555 1_555
H14_8 C22_8 1_555 1_555
N3_8 C20_8 1_555 1_555

#END
