
###############################################################################
#
# This file contains modified crystal structure data generated from the
# MOF subset of the Cambridge Structural Database (CSD) v543 
# hosted by the Cambridge Crystallographic Data Centre (CCDC).
#
# This work is licensed under the Creative Commons
# Attribution-NonCommercial-ShareAlike 4.0 International License.
# To view a copy of this license, visit
# http://creativecommons.org/licenses/by-nc-sa/4.0/
# or send a letter to
# Creative Commons, PO Box 1866, Mountain View, CA 94042, USA.
#
# CIF created using the CSD Python API on 29 September 2022
# The structure has been converted into the P1 space group
# The structure has a 3D framework
# The original CSD entry TEWFUY is in the orthorhombic crystal system
# The framework has been calculated to contain at least 10.0% void space
# The void calculation uses a probe of radius 1.32A, grid spacing 0.4
# H atom positions have been added when not included in the experimental data
# Generated hydrogen atom positions removed from atoms on special positions
#
###############################################################################

data_TEWFUY
_chemical_formula_moiety         '(C240 H208 Cu8 N32 O80)n'
_symmetry_cell_setting           triclinic
_symmetry_space_group_name_H-M   'P 1'
_symmetry_Int_Tables_number      1
_space_group_name_Hall           'P 1'
loop_
_symmetry_equiv_pos_site_id
_symmetry_equiv_pos_as_xyz
1 x,y,z
_cell_length_a                   14.9179(19)
_cell_length_b                   16.766(2)
_cell_length_c                   27.650(3)
_cell_angle_alpha                90
_cell_angle_beta                 90
_cell_angle_gamma                90
_cell_volume                     6915.64
loop_
_atom_site_label
_atom_site_type_symbol
_atom_site_fract_x
_atom_site_fract_y
_atom_site_fract_z
Cu1 Cu 0.2500 0.2500 0.2500
N1 N 0.2002(4) 0.1493(4) 0.2768(2)
C1 C 0.2529(6) 0.0902(5) 0.2935(3)
H1 H 0.3160 0.0974 0.2921
C2 C 0.2203(5) 0.0190(4) 0.3128(3)
C3 C 0.1302(5) 0.0086(4) 0.3163(2)
C4 C 0.0751(5) 0.0679(5) 0.2995(2)
H3 H 0.0119 0.0616 0.3013
C5 C 0.1119(5) 0.1384(4) 0.2796(3)
H4 H 0.0728 0.1789 0.2681
C11 C 0.0219(5) 0.0122(5) 0.5468(3)
C12 C 0.4040(5) 0.2260(5) 0.3094(3)
C13 C 0.4550(5) 0.2408(4) 0.3561(2)
C14 C 0.4094(6) 0.2317(5) 0.3993(3)
H8 H 0.3473 0.2194 0.3992
C15 C 0.4541(6) 0.2406(6) 0.4427(3)
H9 H 0.4230 0.2340 0.4724
O1 O 0.3280(3) 0.2590(3) 0.30617(18)
O2 O 0.4388(3) 0.1824(3) 0.27838(17)
O5 O 0.3521(5) 0.1658(4) 0.1928(3)
C22 C 0.0245(5) 0.0279(5) 0.6002(3)
O6 O 0.0864(4) 0.0229(3) 0.62807(18)
C27 C 0.5960(5) 0.2740(5) 0.3094(3)
C28 C 0.5450(5) 0.2592(4) 0.3561(2)
C29 C 0.5906(6) 0.2683(5) 0.3993(3)
H17 H 0.6527 0.2806 0.3992
C30 C 0.5459(6) 0.2594(6) 0.4427(3)
H18 H 0.5770 0.2660 0.4724
O8 O 0.6720(3) 0.2410(3) 0.30617(18)
O9 O 0.5612(3) 0.3176(3) 0.27838(17)
O10 O 0.1479(5) 0.3342(4) 0.3072(3)
Cu3 Cu 0.7500 0.2500 0.2500
N5 N 0.2998(4) 0.3507(4) 0.2232(2)
O11 O 0.1720(3) 0.2410(3) 0.19383(18)
C10 C 0.4098(5) 0.0133(5) 0.0168(2)
H7 H 0.3503 0.0220 0.0278
N3 N 0.7002(4) 0.1493(4) 0.2232(2)
C16 C 0.7529(6) 0.0902(5) 0.2065(3)
H10 H 0.8160 0.0974 0.2079
C17 C 0.7203(5) 0.0190(4) 0.1872(3)
C18 C 0.6302(5) 0.0086(4) 0.1837(2)
C19 C 0.5751(5) 0.0679(5) 0.2005(2)
H12 H 0.5119 0.0616 0.1987
C20 C 0.6119(5) 0.1384(4) 0.2204(3)
H13 H 0.5728 0.1789 0.2319
C10_2 C 0.5902(5) 0.4867(5) 0.0168(2)
H7_2 H 0.6497 0.4780 0.0278
C11_2 C 0.5219(5) 0.5122(5) 0.0468(3)
N4 N 0.4386(4) 0.5511(3) 0.11256(18)
C16_2 C 0.2471(6) 0.4098(5) 0.2065(3)
H10_2 H 0.1840 0.4026 0.2079
C17_2 C 0.2797(5) 0.4810(4) 0.1872(3)
H11 H 0.2396 0.5214 0.1766
C18_2 C 0.3698(5) 0.4914(4) 0.1837(2)
C19_2 C 0.4249(5) 0.4321(5) 0.2005(2)
H12_2 H 0.4881 0.4384 0.1987
C20_2 C 0.3881(5) 0.3616(4) 0.2204(3)
H13_2 H 0.4272 0.3211 0.2319
C21 C 0.4078(5) 0.5661(4) 0.1623(2)
H14 H 0.4588 0.5848 0.1823
H15 H 0.3615 0.6084 0.1622
C22_2 C 0.5245(5) 0.5279(5) 0.1002(3)
C23 C 0.3813(6) 0.5513(5) 0.0730(3)
C24 C 0.4359(5) 0.5250(5) 0.0311(2)
O6_2 O 0.5864(4) 0.5229(3) 0.12807(18)
O7 O 0.3026(4) 0.5685(4) 0.07434(19)
N1_2 N 0.7998(4) 0.3507(4) 0.2768(2)
N2 N 0.9386(4) 0.5511(3) 0.38744(18)
C1_2 C 0.7471(6) 0.4098(5) 0.2935(3)
H1_2 H 0.6840 0.4026 0.2921
C2_2 C 0.7797(5) 0.4810(4) 0.3128(3)
H2 H 0.7396 0.5214 0.3234
C3_2 C 0.8698(5) 0.4914(4) 0.3163(2)
C4_2 C 0.9249(5) 0.4321(5) 0.2995(2)
H3_2 H 0.9881 0.4384 0.3013
C5_2 C 0.8881(5) 0.3616(4) 0.2796(3)
H4_2 H 0.9272 0.3211 0.2681
C6 C 0.9078(5) 0.5661(4) 0.3377(2)
H5 H 0.9588 0.5848 0.3177
H6 H 0.8615 0.6084 0.3378
C8 C 0.8813(6) 0.5513(5) 0.4270(3)
C9 C 0.9359(5) 0.5250(5) 0.4689(2)
C10_3 C 0.9098(5) 0.5133(5) 0.5168(2)
H7_3 H 0.8503 0.5220 0.5278
C11_3 C 0.9781(5) 0.4878(5) 0.5468(3)
O4 O 0.8026(4) 0.5685(4) 0.42566(19)
O5_2 O 0.6479(5) 0.3342(4) 0.1928(3)
C22_3 C 0.9755(5) 0.4721(5) 0.6002(3)
O6_3 O 0.9136(4) 0.4771(3) 0.62807(18)
O10_2 O 0.8521(5) 0.1658(4) 0.3072(3)
O11_2 O 0.8280(3) 0.2590(3) 0.19383(18)
C27_2 C 0.0960(5) 0.2740(5) 0.1906(3)
C28_2 C 0.0450(5) 0.2592(4) 0.1439(2)
C29_2 C 0.0906(6) 0.2683(5) 0.1007(3)
H17_2 H 0.1527 0.2806 0.1008
C30_2 C 0.0459(6) 0.2594(6) 0.0573(3)
H18_2 H 0.0770 0.2660 0.0276
O9_2 O 0.0612(3) 0.3176(3) 0.22162(17)
C12_2 C 0.9040(5) 0.2260(5) 0.1906(3)
C13_2 C 0.9550(5) 0.2408(4) 0.1439(2)
C14_2 C 0.9094(6) 0.2317(5) 0.1007(3)
H8_2 H 0.8473 0.2194 0.1008
C15_2 C 0.9541(6) 0.2406(6) 0.0573(3)
H9_2 H 0.9230 0.2340 0.0276
O2_2 O 0.9388(3) 0.1824(3) 0.22162(17)
N2_2 N 0.0614(4) 0.9489(3) 0.38744(18)
H2_2 H 0.2604 0.9786 0.3234
C6_2 C 0.0922(5) 0.9339(4) 0.3377(2)
H5_2 H 0.0412 0.9152 0.3177
H6_2 H 0.1385 0.8916 0.3378
C8_2 C 0.1187(6) 0.9487(5) 0.4270(3)
C9_2 C 0.0641(5) 0.9750(5) 0.4689(2)
C10_4 C 0.0902(5) 0.9867(5) 0.5168(2)
H7_4 H 0.1497 0.9780 0.5278
O4_2 O 0.1974(4) 0.9315(4) 0.42566(19)
N4_2 N 0.9386(4) 0.0511(3) 0.61256(18)
H11_2 H 0.7396 0.0214 0.6766
C21_2 C 0.9078(5) 0.0661(4) 0.6623(2)
H14_2 H 0.9588 0.0848 0.6823
H15_2 H 0.8615 0.1084 0.6622
C23_2 C 0.8813(6) 0.0513(5) 0.5730(3)
C24_2 C 0.9359(5) 0.0250(5) 0.5311(2)
C25 C 0.9098(5) 0.0133(5) 0.4832(2)
H16 H 0.8503 0.0220 0.4722
O7_2 O 0.8026(4) 0.0685(4) 0.57434(19)
C7 C 0.9755(5) 0.9721(5) 0.3998(3)
O3 O 0.9136(4) 0.9771(3) 0.37193(18)
N3_2 N 0.7998(4) 0.8507(4) 0.7232(2)
C16_3 C 0.7471(6) 0.9098(5) 0.7065(3)
H10_3 H 0.6840 0.9026 0.7079
C17_3 C 0.7797(5) 0.9810(4) 0.6872(3)
C18_3 C 0.8698(5) 0.9914(4) 0.6837(2)
C19_3 C 0.9249(5) 0.9321(5) 0.7005(2)
H12_3 H 0.9881 0.9384 0.6987
C20_3 C 0.8881(5) 0.8616(4) 0.7204(3)
H13_3 H 0.9272 0.8211 0.7319
C26 C 0.9781(5) 0.9878(5) 0.4532(3)
Cu2 Cu 0.7500 0.7500 0.7500
Cu1_2 Cu 0.2500 0.7500 0.7500
N1_3 N 0.2998(4) 0.8507(4) 0.7768(2)
C1_3 C 0.2471(6) 0.9098(5) 0.7935(3)
H1_3 H 0.1840 0.9026 0.7921
C2_3 C 0.2797(5) 0.9810(4) 0.8128(3)
C3_3 C 0.3698(5) 0.9914(4) 0.8163(2)
C4_3 C 0.4249(5) 0.9321(5) 0.7995(2)
H3_3 H 0.4881 0.9384 0.8013
C5_3 C 0.3881(5) 0.8616(4) 0.7796(3)
H4_3 H 0.4272 0.8211 0.7681
C12_3 C 0.0960(5) 0.7740(5) 0.8094(3)
C13_3 C 0.0450(5) 0.7592(4) 0.8561(2)
C14_3 C 0.0906(6) 0.7683(5) 0.8993(3)
H8_3 H 0.1527 0.7806 0.8992
C15_3 C 0.0459(6) 0.7594(6) 0.9427(3)
H9_3 H 0.0770 0.7660 0.9724
O1_2 O 0.1720(3) 0.7410(3) 0.80617(18)
O2_3 O 0.0612(3) 0.8176(3) 0.77838(17)
O5_3 O 0.1479(5) 0.8342(4) 0.6928(3)
C25_2 C 0.5902(5) 0.9867(5) 0.9832(2)
H16_2 H 0.6497 0.9780 0.9722
O10_3 O 0.3521(5) 0.6658(4) 0.8072(3)
N5_2 N 0.2002(4) 0.6493(4) 0.7232(2)
O11_3 O 0.3280(3) 0.7590(3) 0.69383(18)
C27_3 C 0.9040(5) 0.7260(5) 0.8094(3)
C28_3 C 0.9550(5) 0.7408(4) 0.8561(2)
C29_3 C 0.9094(6) 0.7317(5) 0.8993(3)
H17_3 H 0.8473 0.7194 0.8992
C30_3 C 0.9541(6) 0.7406(6) 0.9427(3)
H18_3 H 0.9230 0.7340 0.9724
O8_2 O 0.8280(3) 0.7590(3) 0.80617(18)
O9_3 O 0.9388(3) 0.6824(3) 0.77838(17)
N1_4 N 0.7002(4) 0.6493(4) 0.7768(2)
N2_3 N 0.5614(4) 0.4489(3) 0.88744(18)
C1_4 C 0.7529(6) 0.5902(5) 0.7935(3)
H1_4 H 0.8160 0.5974 0.7921
C2_4 C 0.7203(5) 0.5190(4) 0.8128(3)
H2_3 H 0.7604 0.4786 0.8234
C3_4 C 0.6302(5) 0.5086(4) 0.8163(2)
C4_4 C 0.5751(5) 0.5679(5) 0.7995(2)
H3_4 H 0.5119 0.5616 0.8013
C5_4 C 0.6119(5) 0.6384(4) 0.7796(3)
H4_4 H 0.5728 0.6789 0.7681
C6_3 C 0.5922(5) 0.4339(4) 0.8377(2)
H5_3 H 0.5412 0.4152 0.8177
H6_3 H 0.6385 0.3916 0.8378
C7_2 C 0.4755(5) 0.4721(5) 0.8998(3)
C8_3 C 0.6187(6) 0.4487(5) 0.9270(3)
C9_3 C 0.5641(5) 0.4750(5) 0.9689(2)
O3_2 O 0.4136(4) 0.4771(3) 0.87193(18)
O4_3 O 0.6974(4) 0.4315(4) 0.92566(19)
O5_4 O 0.8521(5) 0.6658(4) 0.6928(3)
C25_3 C 0.4098(5) 0.5133(5) 0.9832(2)
H16_3 H 0.3503 0.5220 0.9722
C26_2 C 0.4781(5) 0.4878(5) 0.9532(3)
O10_4 O 0.6479(5) 0.8342(4) 0.8072(3)
O11_4 O 0.6720(3) 0.7410(3) 0.69383(18)
C7_3 C 0.0245(5) 0.5279(5) 0.3998(3)
O3_3 O 0.0864(4) 0.5229(3) 0.37193(18)
N4_3 N 0.0614(4) 0.4489(3) 0.61256(18)
C16_4 C 0.2529(6) 0.5902(5) 0.7065(3)
H10_4 H 0.3160 0.5974 0.7079
C17_4 C 0.2203(5) 0.5190(4) 0.6872(3)
H11_3 H 0.2604 0.4786 0.6766
C18_4 C 0.1302(5) 0.5086(4) 0.6837(2)
C19_4 C 0.0751(5) 0.5679(5) 0.7005(2)
H12_4 H 0.0119 0.5616 0.6987
C20_4 C 0.1119(5) 0.6384(4) 0.7204(3)
H13_4 H 0.0728 0.6789 0.7319
C21_3 C 0.0922(5) 0.4339(4) 0.6623(2)
H14_3 H 0.0412 0.4152 0.6823
H15_3 H 0.1385 0.3916 0.6622
C23_3 C 0.1187(6) 0.4487(5) 0.5730(3)
C24_3 C 0.0641(5) 0.4750(5) 0.5311(2)
C25_4 C 0.0902(5) 0.4867(5) 0.4832(2)
H16_4 H 0.1497 0.4780 0.4722
C26_3 C 0.0219(5) 0.5122(5) 0.4532(3)
O7_3 O 0.1974(4) 0.4315(4) 0.57434(19)
C12_4 C 0.5960(5) 0.7740(5) 0.6906(3)
C13_4 C 0.5450(5) 0.7592(4) 0.6439(2)
C14_4 C 0.5906(6) 0.7683(5) 0.6007(3)
H8_4 H 0.6527 0.7806 0.6008
C15_4 C 0.5459(6) 0.7594(6) 0.5573(3)
H9_4 H 0.5770 0.7660 0.5276
O2_4 O 0.5612(3) 0.8176(3) 0.72162(17)
C27_4 C 0.4040(5) 0.7260(5) 0.6906(3)
C28_4 C 0.4550(5) 0.7408(4) 0.6439(2)
C29_4 C 0.4094(6) 0.7317(5) 0.6007(3)
H17_4 H 0.3473 0.7194 0.6008
C30_4 C 0.4541(6) 0.7406(6) 0.5573(3)
H18_4 H 0.4230 0.7340 0.5276
O9_4 O 0.4388(3) 0.6824(3) 0.72162(17)
N2_4 N 0.4386(4) 0.0511(3) 0.88744(18)
H2_4 H 0.2396 0.0214 0.8234
C6_4 C 0.4078(5) 0.0661(4) 0.8377(2)
H5_4 H 0.4588 0.0848 0.8177
H6_4 H 0.3615 0.1084 0.8378
C7_4 C 0.5245(5) 0.0279(5) 0.8998(3)
C8_4 C 0.3813(6) 0.0513(5) 0.9270(3)
C9_4 C 0.4359(5) 0.0250(5) 0.9689(2)
O3_4 O 0.5864(4) 0.0229(3) 0.87193(18)
O4_4 O 0.3026(4) 0.0685(4) 0.92566(19)
C26_4 C 0.5219(5) 0.0122(5) 0.9532(3)
C11_4 C 0.4781(5) 0.9878(5) 0.0468(3)
N4_4 N 0.5614(4) 0.9489(3) 0.11256(18)
H11_4 H 0.7604 0.9786 0.1766
C21_4 C 0.5922(5) 0.9339(4) 0.1623(2)
H14_4 H 0.5412 0.9152 0.1823
H15_4 H 0.6385 0.8916 0.1622
C22_4 C 0.4755(5) 0.9721(5) 0.1002(3)
C23_4 C 0.6187(6) 0.9487(5) 0.0730(3)
C24_4 C 0.5641(5) 0.9750(5) 0.0311(2)
O6_4 O 0.4136(4) 0.9771(3) 0.12807(18)
O7_4 O 0.6974(4) 0.9315(4) 0.07434(19)
C7_5 C 0.0245(5) 0.4721(5) 0.1002(3)
O3_5 O 0.0864(4) 0.4771(3) 0.12807(18)
C25_5 C 0.0902(5) 0.5133(5) 0.0168(2)
H16_5 H 0.1497 0.5220 0.0278
C26_5 C 0.0219(5) 0.4878(5) 0.0468(3)
N3_3 N 0.2002(4) 0.3507(4) 0.7768(2)
N4_5 N 0.0614(4) 0.5511(3) 0.88744(18)
C16_5 C 0.2529(6) 0.4098(5) 0.7935(3)
H10_5 H 0.3160 0.4026 0.7921
C17_5 C 0.2203(5) 0.4810(4) 0.8128(3)
H11_5 H 0.2604 0.5214 0.8234
C18_5 C 0.1302(5) 0.4914(4) 0.8163(2)
C19_5 C 0.0751(5) 0.4321(5) 0.7995(2)
H12_5 H 0.0119 0.4384 0.8013
C20_5 C 0.1119(5) 0.3616(4) 0.7796(3)
H13_5 H 0.0728 0.3211 0.7681
C21_5 C 0.0922(5) 0.5661(4) 0.8377(2)
H14_5 H 0.0412 0.5848 0.8177
H15_5 H 0.1385 0.6084 0.8378
C23_5 C 0.1187(6) 0.5513(5) 0.9270(3)
C24_5 C 0.0641(5) 0.5250(5) 0.9689(2)
O7_5 O 0.1974(4) 0.5685(4) 0.92566(19)
Cu2_2 Cu 0.2500 0.2500 0.7500
Cu1_3 Cu 0.7500 0.7500 0.2500
N1_5 N 0.7998(4) 0.6493(4) 0.2232(2)
N2_5 N 0.9386(4) 0.4489(3) 0.11256(18)
C1_5 C 0.7471(6) 0.5902(5) 0.2065(3)
H1_5 H 0.6840 0.5974 0.2079
C2_5 C 0.7797(5) 0.5190(4) 0.1872(3)
H2_5 H 0.7396 0.4786 0.1766
C3_5 C 0.8698(5) 0.5086(4) 0.1837(2)
C4_5 C 0.9249(5) 0.5679(5) 0.2005(2)
H3_5 H 0.9881 0.5616 0.1987
C5_5 C 0.8881(5) 0.6384(4) 0.2204(3)
H4_5 H 0.9272 0.6789 0.2319
C6_5 C 0.9078(5) 0.4339(4) 0.1623(2)
H5_5 H 0.9588 0.4152 0.1823
H6_5 H 0.8615 0.3916 0.1622
C8_5 C 0.8813(6) 0.4487(5) 0.0730(3)
C9_5 C 0.9359(5) 0.4750(5) 0.0311(2)
C12_5 C 0.5960(5) 0.7260(5) 0.1906(3)
C13_5 C 0.5450(5) 0.7408(4) 0.1439(2)
C14_5 C 0.5906(6) 0.7317(5) 0.1007(3)
H8_5 H 0.6527 0.7194 0.1008
C15_5 C 0.5459(6) 0.7406(6) 0.0573(3)
H9_5 H 0.5770 0.7340 0.0276
O1_3 O 0.6720(3) 0.7590(3) 0.19383(18)
O2_5 O 0.5612(3) 0.6824(3) 0.22162(17)
O4_5 O 0.8026(4) 0.4315(4) 0.07434(19)
O5_5 O 0.6479(5) 0.6658(4) 0.3072(3)
C27_5 C 0.4040(5) 0.7740(5) 0.1906(3)
C28_5 C 0.4550(5) 0.7592(4) 0.1439(2)
C29_5 C 0.4094(6) 0.7683(5) 0.1007(3)
H17_5 H 0.3473 0.7806 0.1008
C30_5 C 0.4541(6) 0.7594(6) 0.0573(3)
H18_5 H 0.4230 0.7660 0.0276
O8_3 O 0.3280(3) 0.7410(3) 0.19383(18)
O9_5 O 0.4388(3) 0.8176(3) 0.22162(17)
O10_5 O 0.8521(5) 0.8342(4) 0.1928(3)
Cu3_2 Cu 0.2500 0.7500 0.2500
N5_3 N 0.7002(4) 0.8507(4) 0.2768(2)
O11_5 O 0.8280(3) 0.7410(3) 0.30617(18)
C27_6 C 0.0960(5) 0.2260(5) 0.6906(3)
C28_6 C 0.0450(5) 0.2408(4) 0.6439(2)
C29_6 C 0.0906(6) 0.2317(5) 0.6007(3)
H17_6 H 0.1527 0.2194 0.6008
C30_6 C 0.0459(6) 0.2406(6) 0.5573(3)
H18_6 H 0.0770 0.2340 0.5276
O8_4 O 0.1720(3) 0.2590(3) 0.69383(18)
O9_6 O 0.0612(3) 0.1824(3) 0.72162(17)
Cu1_4 Cu 0.7500 0.2500 0.7500
N1_6 N 0.7002(4) 0.3507(4) 0.7232(2)
N2_6 N 0.5614(4) 0.5511(3) 0.61256(18)
C1_6 C 0.7529(6) 0.4098(5) 0.7065(3)
H1_6 H 0.8160 0.4026 0.7079
C2_6 C 0.7203(5) 0.4810(4) 0.6872(3)
H2_6 H 0.7604 0.5214 0.6766
C3_6 C 0.6302(5) 0.4914(4) 0.6837(2)
C4_6 C 0.5751(5) 0.4321(5) 0.7005(2)
H3_6 H 0.5119 0.4384 0.6987
C5_6 C 0.6119(5) 0.3616(4) 0.7204(3)
H4_6 H 0.5728 0.3211 0.7319
C6_6 C 0.5922(5) 0.5661(4) 0.6623(2)
H5_6 H 0.5412 0.5848 0.6823
H6_6 H 0.6385 0.6084 0.6622
C7_6 C 0.4755(5) 0.5279(5) 0.6002(3)
C8_6 C 0.6187(6) 0.5513(5) 0.5730(3)
C9_6 C 0.5641(5) 0.5250(5) 0.5311(2)
C10_5 C 0.5902(5) 0.5133(5) 0.4832(2)
H7_5 H 0.6497 0.5220 0.4722
C11_5 C 0.5219(5) 0.4878(5) 0.4532(3)
C12_6 C 0.9040(5) 0.2740(5) 0.6906(3)
C13_6 C 0.9550(5) 0.2592(4) 0.6439(2)
C14_6 C 0.9094(6) 0.2683(5) 0.6007(3)
H8_6 H 0.8473 0.2806 0.6008
C15_6 C 0.9541(6) 0.2594(6) 0.5573(3)
H9_6 H 0.9230 0.2660 0.5276
O1_4 O 0.8280(3) 0.2410(3) 0.69383(18)
O2_6 O 0.9388(3) 0.3176(3) 0.72162(17)
O3_6 O 0.4136(4) 0.5229(3) 0.62807(18)
O4_6 O 0.6974(4) 0.5685(4) 0.57434(19)
O5_6 O 0.8521(5) 0.3342(4) 0.8072(3)
N3_4 N 0.2998(4) 0.6493(4) 0.2768(2)
N4_6 N 0.4386(4) 0.4489(3) 0.38744(18)
C16_6 C 0.2471(6) 0.5902(5) 0.2935(3)
H10_6 H 0.1840 0.5974 0.2921
C17_6 C 0.2797(5) 0.5190(4) 0.3128(3)
H11_6 H 0.2396 0.4786 0.3234
C18_6 C 0.3698(5) 0.5086(4) 0.3163(2)
C19_6 C 0.4249(5) 0.5679(5) 0.2995(2)
H12_6 H 0.4881 0.5616 0.3013
C20_6 C 0.3881(5) 0.6384(4) 0.2796(3)
H13_6 H 0.4272 0.6789 0.2681
C21_6 C 0.4078(5) 0.4339(4) 0.3377(2)
H14_6 H 0.4588 0.4152 0.3177
H15_6 H 0.3615 0.3916 0.3378
C22_5 C 0.5245(5) 0.4721(5) 0.3998(3)
C23_6 C 0.3813(6) 0.4487(5) 0.4270(3)
C24_6 C 0.4359(5) 0.4750(5) 0.4689(2)
C25_6 C 0.4098(5) 0.4867(5) 0.5168(2)
H16_6 H 0.3503 0.4780 0.5278
C26_6 C 0.4781(5) 0.5122(5) 0.5468(3)
O6_5 O 0.5864(4) 0.4771(3) 0.37193(18)
O7_6 O 0.3026(4) 0.4315(4) 0.42566(19)
O10_6 O 0.6479(5) 0.1658(4) 0.6928(3)
N5_4 N 0.7998(4) 0.1493(4) 0.7768(2)
O11_6 O 0.6720(3) 0.2590(3) 0.80617(18)
N1_7 N 0.2998(4) 0.1493(4) 0.7232(2)
C1_7 C 0.2471(6) 0.0902(5) 0.7065(3)
H1_7 H 0.1840 0.0974 0.7079
C2_7 C 0.2797(5) 0.0190(4) 0.6872(3)
C3_7 C 0.3698(5) 0.0086(4) 0.6837(2)
C4_7 C 0.4249(5) 0.0679(5) 0.7005(2)
H3_7 H 0.4881 0.0616 0.6987
C5_7 C 0.3881(5) 0.1384(4) 0.7204(3)
H4_7 H 0.4272 0.1789 0.7319
C11_6 C 0.4781(5) 0.0122(5) 0.4532(3)
O5_7 O 0.1479(5) 0.1658(4) 0.8072(3)
N4_7 N 0.5614(4) 0.0511(3) 0.38744(18)
H11_7 H 0.7604 0.0214 0.3234
C21_7 C 0.5922(5) 0.0661(4) 0.3377(2)
H14_7 H 0.5412 0.0848 0.3177
H15_7 H 0.6385 0.1084 0.3378
C22_6 C 0.4755(5) 0.0279(5) 0.3998(3)
C23_7 C 0.6187(6) 0.0513(5) 0.4270(3)
C24_7 C 0.5641(5) 0.0250(5) 0.4689(2)
C25_7 C 0.5902(5) 0.0133(5) 0.5168(2)
H16_7 H 0.6497 0.0220 0.5278
O6_6 O 0.4136(4) 0.0229(3) 0.37193(18)
O7_7 O 0.6974(4) 0.0685(4) 0.42566(19)
O10_7 O 0.3521(5) 0.3342(4) 0.6928(3)
O11_7 O 0.3280(3) 0.2410(3) 0.80617(18)
N2_7 N 0.4386(4) 0.9489(3) 0.61256(18)
H2_7 H 0.2396 0.9786 0.6766
C6_7 C 0.4078(5) 0.9339(4) 0.6623(2)
H5_7 H 0.4588 0.9152 0.6823
H6_7 H 0.3615 0.8916 0.6622
C7_7 C 0.5245(5) 0.9721(5) 0.6002(3)
C8_7 C 0.3813(6) 0.9487(5) 0.5730(3)
C9_7 C 0.4359(5) 0.9750(5) 0.5311(2)
C10_6 C 0.4098(5) 0.9867(5) 0.4832(2)
H7_6 H 0.3503 0.9780 0.4722
O3_7 O 0.5864(4) 0.9771(3) 0.62807(18)
O4_7 O 0.3026(4) 0.9315(4) 0.57434(19)
C16_7 C 0.7529(6) 0.9098(5) 0.2935(3)
H10_7 H 0.8160 0.9026 0.2921
C17_7 C 0.7203(5) 0.9810(4) 0.3128(3)
C18_7 C 0.6302(5) 0.9914(4) 0.3163(2)
C19_7 C 0.5751(5) 0.9321(5) 0.2995(2)
H12_7 H 0.5119 0.9384 0.3013
C20_7 C 0.6119(5) 0.8616(4) 0.2796(3)
H13_7 H 0.5728 0.8211 0.2681
C26_7 C 0.5219(5) 0.9878(5) 0.5468(3)
N1_8 N 0.2002(4) 0.8507(4) 0.2232(2)
C1_8 C 0.2529(6) 0.9098(5) 0.2065(3)
H1_8 H 0.3160 0.9026 0.2079
C2_8 C 0.2203(5) 0.9810(4) 0.1872(3)
C3_8 C 0.1302(5) 0.9914(4) 0.1837(2)
C4_8 C 0.0751(5) 0.9321(5) 0.2005(2)
H3_8 H 0.0119 0.9384 0.1987
C5_8 C 0.1119(5) 0.8616(4) 0.2204(3)
H4_8 H 0.0728 0.8211 0.2319
O5_8 O 0.3521(5) 0.8342(4) 0.3072(3)
O10_8 O 0.1479(5) 0.6658(4) 0.1928(3)
O11_8 O 0.1720(3) 0.7590(3) 0.30617(18)
C16_8 C 0.7471(6) 0.0902(5) 0.7935(3)
H10_8 H 0.6840 0.0974 0.7921
C17_8 C 0.7797(5) 0.0190(4) 0.8128(3)
C18_8 C 0.8698(5) 0.0086(4) 0.8163(2)
C19_8 C 0.9249(5) 0.0679(5) 0.7995(2)
H12_8 H 0.9881 0.0616 0.8013
C20_8 C 0.8881(5) 0.1384(4) 0.7796(3)
H13_8 H 0.9272 0.1789 0.7681
C12_7 C 0.4040(5) 0.2740(5) 0.8094(3)
C13_7 C 0.4550(5) 0.2592(4) 0.8561(2)
C14_7 C 0.4094(6) 0.2683(5) 0.8993(3)
H8_7 H 0.3473 0.2806 0.8992
C15_7 C 0.4541(6) 0.2594(6) 0.9427(3)
H9_7 H 0.4230 0.2660 0.9724
O2_7 O 0.4388(3) 0.3176(3) 0.77838(17)
C27_7 C 0.5960(5) 0.2260(5) 0.8094(3)
C28_7 C 0.5450(5) 0.2408(4) 0.8561(2)
C29_7 C 0.5906(6) 0.2317(5) 0.8993(3)
H17_7 H 0.6527 0.2194 0.8992
C30_7 C 0.5459(6) 0.2406(6) 0.9427(3)
H18_7 H 0.5770 0.2340 0.9724
O9_7 O 0.5612(3) 0.1824(3) 0.77838(17)
C12_8 C 0.0960(5) 0.7260(5) 0.3094(3)
C13_8 C 0.0450(5) 0.7408(4) 0.3561(2)
C14_8 C 0.0906(6) 0.7317(5) 0.3993(3)
H8_8 H 0.1527 0.7194 0.3992
C15_8 C 0.0459(6) 0.7406(6) 0.4427(3)
H9_8 H 0.0770 0.7340 0.4724
O2_8 O 0.0612(3) 0.6824(3) 0.27838(17)
C27_8 C 0.9040(5) 0.7740(5) 0.3094(3)
C28_8 C 0.9550(5) 0.7592(4) 0.3561(2)
C29_8 C 0.9094(6) 0.7683(5) 0.3993(3)
H17_8 H 0.8473 0.7806 0.3992
C30_8 C 0.9541(6) 0.7594(6) 0.4427(3)
H18_8 H 0.9230 0.7660 0.4724
O9_8 O 0.9388(3) 0.8176(3) 0.27838(17)
C10_7 C 0.9098(5) 0.4867(5) 0.9832(2)
H7_7 H 0.8503 0.4780 0.9722
C11_7 C 0.9781(5) 0.5122(5) 0.9532(3)
C22_7 C 0.9755(5) 0.5279(5) 0.8998(3)
O6_7 O 0.9136(4) 0.5229(3) 0.87193(18)
N2_8 N 0.0614(4) 0.0511(3) 0.11256(18)
H2_8 H 0.2604 0.0214 0.1766
C6_8 C 0.0922(5) 0.0661(4) 0.1623(2)
H5_8 H 0.0412 0.0848 0.1823
H6_8 H 0.1385 0.1084 0.1622
C8_8 C 0.1187(6) 0.0513(5) 0.0730(3)
C9_8 C 0.0641(5) 0.0250(5) 0.0311(2)
O4_8 O 0.1974(4) 0.0685(4) 0.07434(19)
C10_8 C 0.0902(5) 0.0133(5) 0.9832(2)
H7_8 H 0.1497 0.0220 0.9722
C11_8 C 0.0219(5) 0.9878(5) 0.9532(3)
C22_8 C 0.0245(5) 0.9721(5) 0.8998(3)
O6_8 O 0.0864(4) 0.9771(3) 0.87193(18)
C7_8 C 0.9755(5) 0.0279(5) 0.1002(3)
O3_8 O 0.9136(4) 0.0229(3) 0.12807(18)
C26_8 C 0.9781(5) 0.0122(5) 0.0468(3)
C25_8 C 0.9098(5) 0.9867(5) 0.0168(2)
H16_8 H 0.8503 0.9780 0.0278
N4_8 N 0.9386(4) 0.9489(3) 0.88744(18)
H11_8 H 0.7396 0.9786 0.8234
C21_8 C 0.9078(5) 0.9339(4) 0.8377(2)
H14_8 H 0.9588 0.9152 0.8177
H15_8 H 0.8615 0.8916 0.8378
C23_8 C 0.8813(6) 0.9487(5) 0.9270(3)
C24_8 C 0.9359(5) 0.9750(5) 0.9689(2)
O7_8 O 0.8026(4) 0.9315(4) 0.92566(19)
loop_
_geom_bond_atom_site_label_1
_geom_bond_atom_site_label_2
_geom_bond_site_symmetry_1
_geom_bond_site_symmetry_2
Cu1 N1 1_555 1_555
N1 C1 1_555 1_555
C1 H1 1_555 1_555
C2 C1 1_555 1_555
C3 C2 1_555 1_555
C4 C3 1_555 1_555
H3 C4 1_555 1_555
C5 N1 1_555 1_555
H4 C5 1_555 1_555
C12 C13 1_555 1_555
C13 C14 1_555 1_555
C14 H8 1_555 1_555
C15 C14 1_555 1_555
H9 C15 1_555 1_555
O1 Cu1 1_555 1_555
O2 C12 1_555 1_555
O5 Cu1 1_555 1_555
C22 C11 1_555 1_555
O6 C22 1_555 1_555
C27 C28 1_555 1_555
C28 C13 1_555 1_555
C29 C28 1_555 1_555
H17 C29 1_555 1_555
C30 C15 1_555 1_555
H18 C30 1_555 1_555
O8 C27 1_555 1_555
O9 C27 1_555 1_555
O10 Cu1 1_555 1_555
Cu3 O8 1_555 1_555
N5 Cu1 1_555 1_555
O11 Cu1 1_555 1_555
C4 C5 1_555 1_555
C12 O1 1_555 1_555
C29 C30 1_555 1_555
H7 C10 1_555 1_555
N3 C16 1_555 1_555
C16 H10 1_555 1_555
C17 C16 1_555 1_555
C18 C17 1_555 1_555
C19 C18 1_555 1_555
H12 C19 1_555 1_555
C20 N3 1_555 1_555
H13 C20 1_555 1_555
Cu3 N3 1_555 1_555
C19 C20 1_555 1_555
H7_2 C10_2 1_555 1_555
C11_2 C10_2 1_555 1_555
N5 C16_2 1_555 1_555
N4 C21 1_555 1_555
C16_2 H10_2 1_555 1_555
C17_2 C16_2 1_555 1_555
H11 C17_2 1_555 1_555
C18_2 C17_2 1_555 1_555
C19_2 C18_2 1_555 1_555
H12_2 C19_2 1_555 1_555
C20_2 N5 1_555 1_555
H13_2 C20_2 1_555 1_555
C21 C18_2 1_555 1_555
H14 C21 1_555 1_555
H15 C21 1_555 1_555
C22_2 C11_2 1_555 1_555
C23 N4 1_555 1_555
C24 C11_2 1_555 1_555
O6_2 C22_2 1_555 1_555
O7 C23 1_555 1_555
N4 C22_2 1_555 1_555
C19_2 C20_2 1_555 1_555
C23 C24 1_555 1_555
Cu3 N1_2 1_555 1_555
N1_2 C1_2 1_555 1_555
N2 C6 1_555 1_555
C1_2 H1_2 1_555 1_555
C2_2 C1_2 1_555 1_555
H2 C2_2 1_555 1_555
C3_2 C2_2 1_555 1_555
C4_2 C3_2 1_555 1_555
H3_2 C4_2 1_555 1_555
C5_2 N1_2 1_555 1_555
H4_2 C5_2 1_555 1_555
C6 C3_2 1_555 1_555
H5 C6 1_555 1_555
H6 C6 1_555 1_555
C8 N2 1_555 1_555
C9 C8 1_555 1_555
C10_3 C9 1_555 1_555
H7_3 C10_3 1_555 1_555
C11_3 C10_3 1_555 1_555
O4 C8 1_555 1_555
O5_2 Cu3 1_555 1_555
C22_3 C11_3 1_555 1_555
O6_3 C22_3 1_555 1_555
O10_2 Cu3 1_555 1_555
O11_2 Cu3 1_555 1_555
C4_2 C5_2 1_555 1_555
C27_2 C28_2 1_555 1_555
C29_2 C28_2 1_555 1_555
H17_2 C29_2 1_555 1_555
H18_2 C30_2 1_555 1_555
O11 C27_2 1_555 1_555
O9_2 C27_2 1_555 1_555
C29_2 C30_2 1_555 1_555
C12_2 C13_2 1_555 1_555
C13_2 C14_2 1_555 1_555
C14_2 H8_2 1_555 1_555
C15_2 C14_2 1_555 1_555
H9_2 C15_2 1_555 1_555
O2_2 C12_2 1_555 1_555
C12_2 O11_2 1_555 1_555
N2_2 C6_2 1_555 1_555
H5_2 C6_2 1_555 1_555
H6_2 C6_2 1_555 1_555
C8_2 N2_2 1_555 1_555
C9_2 C8_2 1_555 1_555
C10_4 C9_2 1_555 1_555
H7_4 C10_4 1_555 1_555
O4_2 C8_2 1_555 1_555
N4_2 C21_2 1_555 1_555
H14_2 C21_2 1_555 1_555
H15_2 C21_2 1_555 1_555
C23_2 N4_2 1_555 1_555
C25 C24_2 1_555 1_555
H16 C25 1_555 1_555
O7_2 C23_2 1_555 1_555
C23_2 C24_2 1_555 1_555
O3 C7 1_555 1_555
N3_2 C16_3 1_555 1_555
C16_3 H10_3 1_555 1_555
C17_3 C16_3 1_555 1_555
C18_3 C17_3 1_555 1_555
C19_3 C18_3 1_555 1_555
H12_3 C19_3 1_555 1_555
C20_3 N3_2 1_555 1_555
H13_3 C20_3 1_555 1_555
C26 C7 1_555 1_555
Cu2 N3_2 1_555 1_555
C19_3 C20_3 1_555 1_555
Cu1_2 N1_3 1_555 1_555
N1_3 C1_3 1_555 1_555
C1_3 H1_3 1_555 1_555
C2_3 C1_3 1_555 1_555
C3_3 C2_3 1_555 1_555
C4_3 C3_3 1_555 1_555
H3_3 C4_3 1_555 1_555
C5_3 N1_3 1_555 1_555
H4_3 C5_3 1_555 1_555
C12_3 C13_3 1_555 1_555
C13_3 C14_3 1_555 1_555
C14_3 H8_3 1_555 1_555
C15_3 C14_3 1_555 1_555
H9_3 C15_3 1_555 1_555
O1_2 Cu1_2 1_555 1_555
O2_3 C12_3 1_555 1_555
O5_3 Cu1_2 1_555 1_555
H16_2 C25_2 1_555 1_555
O10_3 Cu1_2 1_555 1_555
N5_2 Cu1_2 1_555 1_555
O11_3 Cu1_2 1_555 1_555
C4_3 C5_3 1_555 1_555
C12_3 O1_2 1_555 1_555
C27_3 C28_3 1_555 1_555
C29_3 C28_3 1_555 1_555
H17_3 C29_3 1_555 1_555
H18_3 C30_3 1_555 1_555
O8_2 C27_3 1_555 1_555
O9_3 C27_3 1_555 1_555
Cu2 O8_2 1_555 1_555
C29_3 C30_3 1_555 1_555
Cu2 N1_4 1_555 1_555
N1_4 C1_4 1_555 1_555
N2_3 C6_3 1_555 1_555
C1_4 H1_4 1_555 1_555
C2_4 C1_4 1_555 1_555
H2_3 C2_4 1_555 1_555
C3_4 C2_4 1_555 1_555
C4_4 C3_4 1_555 1_555
H3_4 C4_4 1_555 1_555
C5_4 N1_4 1_555 1_555
H4_4 C5_4 1_555 1_555
C6_3 C3_4 1_555 1_555
H5_3 C6_3 1_555 1_555
H6_3 C6_3 1_555 1_555
C7_2 N2_3 1_555 1_555
C8_3 N2_3 1_555 1_555
C9_3 C8_3 1_555 1_555
O3_2 C7_2 1_555 1_555
O4_3 C8_3 1_555 1_555
O5_4 Cu2 1_555 1_555
H16_3 C25_3 1_555 1_555
C26_2 C7_2 1_555 1_555
O10_4 Cu2 1_555 1_555
O11_4 Cu2 1_555 1_555
C4_4 C5_4 1_555 1_555
C9_3 C26_2 1_555 1_555
C25_3 C26_2 1_555 1_555
O3_3 C7_3 1_555 1_555
N5_2 C16_4 1_555 1_555
N4_3 C21_3 1_555 1_555
C16_4 H10_4 1_555 1_555
C17_4 C16_4 1_555 1_555
H11_3 C17_4 1_555 1_555
C18_4 C17_4 1_555 1_555
C19_4 C18_4 1_555 1_555
H12_4 C19_4 1_555 1_555
C20_4 N5_2 1_555 1_555
H13_4 C20_4 1_555 1_555
C21_3 C18_4 1_555 1_555
H14_3 C21_3 1_555 1_555
H15_3 C21_3 1_555 1_555
C23_3 N4_3 1_555 1_555
C25_4 C24_3 1_555 1_555
H16_4 C25_4 1_555 1_555
C26_3 C7_3 1_555 1_555
O7_3 C23_3 1_555 1_555
C19_4 C20_4 1_555 1_555
C23_3 C24_3 1_555 1_555
C25_4 C26_3 1_555 1_555
C12_4 C13_4 1_555 1_555
C13_4 C14_4 1_555 1_555
C14_4 H8_4 1_555 1_555
C15_4 C14_4 1_555 1_555
H9_4 C15_4 1_555 1_555
O2_4 C12_4 1_555 1_555
C27_4 C28_4 1_555 1_555
C28_4 C13_4 1_555 1_555
C29_4 C28_4 1_555 1_555
H17_4 C29_4 1_555 1_555
C30_4 C15_4 1_555 1_555
H18_4 C30_4 1_555 1_555
O11_3 C27_4 1_555 1_555
O9_4 C27_4 1_555 1_555
C12_4 O11_4 1_555 1_555
C29_4 C30_4 1_555 1_555
N2_4 C6_4 1_555 1_555
H5_4 C6_4 1_555 1_555
H6_4 C6_4 1_555 1_555
C7_4 N2_4 1_555 1_555
C8_4 N2_4 1_555 1_555
C9_4 C8_4 1_555 1_555
O3_4 C7_4 1_555 1_555
O4_4 C8_4 1_555 1_555
C26_4 C7_4 1_555 1_555
C9_4 C26_4 1_555 1_555
N4_4 C21_4 1_555 1_555
H14_4 C21_4 1_555 1_555
H15_4 C21_4 1_555 1_555
C22_4 C11_4 1_555 1_555
C23_4 N4_4 1_555 1_555
C24_4 C11_4 1_555 1_555
O6_4 C22_4 1_555 1_555
O7_4 C23_4 1_555 1_555
N4_4 C22_4 1_555 1_555
C23_4 C24_4 1_555 1_555
O3_5 C7_5 1_555 1_555
H16_5 C25_5 1_555 1_555
C26_5 C7_5 1_555 1_555
C25_5 C26_5 1_555 1_555
N3_3 C16_5 1_555 1_555
N4_5 C21_5 1_555 1_555
C16_5 H10_5 1_555 1_555
C17_5 C16_5 1_555 1_555
H11_5 C17_5 1_555 1_555
C18_5 C17_5 1_555 1_555
C19_5 C18_5 1_555 1_555
H12_5 C19_5 1_555 1_555
C20_5 N3_3 1_555 1_555
H13_5 C20_5 1_555 1_555
C21_5 C18_5 1_555 1_555
H14_5 C21_5 1_555 1_555
H15_5 C21_5 1_555 1_555
C23_5 N4_5 1_555 1_555
O7_5 C23_5 1_555 1_555
Cu2_2 N3_3 1_555 1_555
C19_5 C20_5 1_555 1_555
C23_5 C24_5 1_555 1_555
Cu1_3 N1_5 1_555 1_555
N1_5 C1_5 1_555 1_555
N2_5 C6_5 1_555 1_555
C1_5 H1_5 1_555 1_555
C2_5 C1_5 1_555 1_555
H2_5 C2_5 1_555 1_555
C3_5 C2_5 1_555 1_555
C4_5 C3_5 1_555 1_555
H3_5 C4_5 1_555 1_555
C5_5 N1_5 1_555 1_555
H4_5 C5_5 1_555 1_555
C6_5 C3_5 1_555 1_555
H5_5 C6_5 1_555 1_555
H6_5 C6_5 1_555 1_555
C8_5 N2_5 1_555 1_555
C9_5 C8_5 1_555 1_555
C12_5 C13_5 1_555 1_555
C13_5 C14_5 1_555 1_555
C14_5 H8_5 1_555 1_555
C15_5 C14_5 1_555 1_555
H9_5 C15_5 1_555 1_555
O1_3 Cu1_3 1_555 1_555
O2_5 C12_5 1_555 1_555
O4_5 C8_5 1_555 1_555
O5_5 Cu1_3 1_555 1_555
C27_5 C28_5 1_555 1_555
C28_5 C13_5 1_555 1_555
C29_5 C28_5 1_555 1_555
H17_5 C29_5 1_555 1_555
C30_5 C15_5 1_555 1_555
H18_5 C30_5 1_555 1_555
O8_3 C27_5 1_555 1_555
O9_5 C27_5 1_555 1_555
O10_5 Cu1_3 1_555 1_555
Cu3_2 O8_3 1_555 1_555
N5_3 Cu1_3 1_555 1_555
O11_5 Cu1_3 1_555 1_555
C4_5 C5_5 1_555 1_555
C12_5 O1_3 1_555 1_555
C29_5 C30_5 1_555 1_555
C27_6 C28_6 1_555 1_555
C29_6 C28_6 1_555 1_555
H17_6 C29_6 1_555 1_555
H18_6 C30_6 1_555 1_555
O8_4 C27_6 1_555 1_555
O9_6 C27_6 1_555 1_555
Cu2_2 O8_4 1_555 1_555
C29_6 C30_6 1_555 1_555
Cu1_4 N1_6 1_555 1_555
N1_6 C1_6 1_555 1_555
N2_6 C6_6 1_555 1_555
C1_6 H1_6 1_555 1_555
C2_6 C1_6 1_555 1_555
H2_6 C2_6 1_555 1_555
C3_6 C2_6 1_555 1_555
C4_6 C3_6 1_555 1_555
H3_6 C4_6 1_555 1_555
C5_6 N1_6 1_555 1_555
H4_6 C5_6 1_555 1_555
C6_6 C3_6 1_555 1_555
H5_6 C6_6 1_555 1_555
H6_6 C6_6 1_555 1_555
C7_6 N2_6 1_555 1_555
C8_6 N2_6 1_555 1_555
C9_6 C8_6 1_555 1_555
C10_5 C9_6 1_555 1_555
H7_5 C10_5 1_555 1_555
C11_5 C10_5 1_555 1_555
C12_6 C13_6 1_555 1_555
C13_6 C14_6 1_555 1_555
C14_6 H8_6 1_555 1_555
C15_6 C14_6 1_555 1_555
H9_6 C15_6 1_555 1_555
O1_4 Cu1_4 1_555 1_555
O2_6 C12_6 1_555 1_555
O3_6 C7_6 1_555 1_555
O4_6 C8_6 1_555 1_555
O5_6 Cu1_4 1_555 1_555
N3_4 C16_6 1_555 1_555
N4_6 C21_6 1_555 1_555
C16_6 H10_6 1_555 1_555
C17_6 C16_6 1_555 1_555
H11_6 C17_6 1_555 1_555
C18_6 C17_6 1_555 1_555
C19_6 C18_6 1_555 1_555
H12_6 C19_6 1_555 1_555
C20_6 N3_4 1_555 1_555
H13_6 C20_6 1_555 1_555
C21_6 C18_6 1_555 1_555
H14_6 C21_6 1_555 1_555
H15_6 C21_6 1_555 1_555
C22_5 C11_5 1_555 1_555
C23_6 N4_6 1_555 1_555
C24_6 C11_5 1_555 1_555
C25_6 C24_6 1_555 1_555
H16_6 C25_6 1_555 1_555
C26_6 C7_6 1_555 1_555
O6_5 C22_5 1_555 1_555
O7_6 C23_6 1_555 1_555
O10_6 Cu1_4 1_555 1_555
Cu3_2 N3_4 1_555 1_555
N5_4 Cu1_4 1_555 1_555
O11_6 Cu1_4 1_555 1_555
C4_6 C5_6 1_555 1_555
C9_6 C26_6 1_555 1_555
C12_6 O1_4 1_555 1_555
N4_6 C22_5 1_555 1_555
C19_6 C20_6 1_555 1_555
C23_6 C24_6 1_555 1_555
C25_6 C26_6 1_555 1_555
Cu2_2 N1_7 1_555 1_555
N1_7 C1_7 1_555 1_555
C1_7 H1_7 1_555 1_555
C2_7 C1_7 1_555 1_555
C3_7 C2_7 1_555 1_555
C4_7 C3_7 1_555 1_555
H3_7 C4_7 1_555 1_555
C5_7 N1_7 1_555 1_555
H4_7 C5_7 1_555 1_555
O5_7 Cu2_2 1_555 1_555
N4_7 C21_7 1_555 1_555
H14_7 C21_7 1_555 1_555
H15_7 C21_7 1_555 1_555
C22_6 C11_6 1_555 1_555
C23_7 N4_7 1_555 1_555
C24_7 C11_6 1_555 1_555
C25_7 C24_7 1_555 1_555
H16_7 C25_7 1_555 1_555
O6_6 C22_6 1_555 1_555
O7_7 C23_7 1_555 1_555
O10_7 Cu2_2 1_555 1_555
O11_7 Cu2_2 1_555 1_555
C4_7 C5_7 1_555 1_555
N4_7 C22_6 1_555 1_555
C23_7 C24_7 1_555 1_555
N2_7 C6_7 1_555 1_555
H5_7 C6_7 1_555 1_555
H6_7 C6_7 1_555 1_555
C7_7 N2_7 1_555 1_555
C8_7 N2_7 1_555 1_555
C9_7 C8_7 1_555 1_555
C10_6 C9_7 1_555 1_555
H7_6 C10_6 1_555 1_555
O3_7 C7_7 1_555 1_555
O4_7 C8_7 1_555 1_555
N5_3 C16_7 1_555 1_555
C16_7 H10_7 1_555 1_555
C17_7 C16_7 1_555 1_555
C18_7 C17_7 1_555 1_555
C19_7 C18_7 1_555 1_555
H12_7 C19_7 1_555 1_555
C20_7 N5_3 1_555 1_555
H13_7 C20_7 1_555 1_555
C26_7 C7_7 1_555 1_555
C9_7 C26_7 1_555 1_555
C19_7 C20_7 1_555 1_555
Cu3_2 N1_8 1_555 1_555
N1_8 C1_8 1_555 1_555
C1_8 H1_8 1_555 1_555
C2_8 C1_8 1_555 1_555
C3_8 C2_8 1_555 1_555
C4_8 C3_8 1_555 1_555
H3_8 C4_8 1_555 1_555
C5_8 N1_8 1_555 1_555
H4_8 C5_8 1_555 1_555
O5_8 Cu3_2 1_555 1_555
O10_8 Cu3_2 1_555 1_555
O11_8 Cu3_2 1_555 1_555
C4_8 C5_8 1_555 1_555
N5_4 C16_8 1_555 1_555
C16_8 H10_8 1_555 1_555
C17_8 C16_8 1_555 1_555
C18_8 C17_8 1_555 1_555
C19_8 C18_8 1_555 1_555
H12_8 C19_8 1_555 1_555
C20_8 N5_4 1_555 1_555
H13_8 C20_8 1_555 1_555
C19_8 C20_8 1_555 1_555
C12_7 C13_7 1_555 1_555
C13_7 C14_7 1_555 1_555
C14_7 H8_7 1_555 1_555
C15_7 C14_7 1_555 1_555
H9_7 C15_7 1_555 1_555
O2_7 C12_7 1_555 1_555
C27_7 C28_7 1_555 1_555
C28_7 C13_7 1_555 1_555
C29_7 C28_7 1_555 1_555
H17_7 C29_7 1_555 1_555
C30_7 C15_7 1_555 1_555
H18_7 C30_7 1_555 1_555
O11_6 C27_7 1_555 1_555
O9_7 C27_7 1_555 1_555
C12_7 O11_7 1_555 1_555
C29_7 C30_7 1_555 1_555
C12_8 C13_8 1_555 1_555
C13_8 C14_8 1_555 1_555
C14_8 H8_8 1_555 1_555
C15_8 C14_8 1_555 1_555
H9_8 C15_8 1_555 1_555
O2_8 C12_8 1_555 1_555
C12_8 O11_8 1_555 1_555
C27_8 C28_8 1_555 1_555
C29_8 C28_8 1_555 1_555
H17_8 C29_8 1_555 1_555
H18_8 C30_8 1_555 1_555
O11_5 C27_8 1_555 1_555
O9_8 C27_8 1_555 1_555
C29_8 C30_8 1_555 1_555
H7_7 C10_7 1_555 1_555
C11_7 C10_7 1_555 1_555
C22_7 C11_7 1_555 1_555
O6_7 C22_7 1_555 1_555
N2_8 C6_8 1_555 1_555
H5_8 C6_8 1_555 1_555
H6_8 C6_8 1_555 1_555
C8_8 N2_8 1_555 1_555
C9_8 C8_8 1_555 1_555
O4_8 C8_8 1_555 1_555
H7_8 C10_8 1_555 1_555
C22_8 C11_8 1_555 1_555
O6_8 C22_8 1_555 1_555
O3_8 C7_8 1_555 1_555
C26_8 C7_8 1_555 1_555
H16_8 C25_8 1_555 1_555
N4_8 C21_8 1_555 1_555
H14_8 C21_8 1_555 1_555
H15_8 C21_8 1_555 1_555
C23_8 N4_8 1_555 1_555
O7_8 C23_8 1_555 1_555
C23_8 C24_8 1_555 1_555

#END
