
###############################################################################
#
# This file contains modified crystal structure data generated from the
# MOF subset of the Cambridge Structural Database (CSD) v543 
# hosted by the Cambridge Crystallographic Data Centre (CCDC).
#
# This work is licensed under the Creative Commons
# Attribution-NonCommercial-ShareAlike 4.0 International License.
# To view a copy of this license, visit
# http://creativecommons.org/licenses/by-nc-sa/4.0/
# or send a letter to
# Creative Commons, PO Box 1866, Mountain View, CA 94042, USA.
#
# CIF created using the CSD Python API on 29 September 2022
# The structure has been converted into the P1 space group
# The structure has a 3D framework
# The original CSD entry TEWGEJ is in the orthorhombic crystal system
# The framework has been calculated to contain at least 10.0% void space
# The void calculation uses a probe of radius 1.32A, grid spacing 0.4
#
###############################################################################

data_TEWGEJ
_chemical_formula_moiety         '(C256 H208 Cu8 N32 O80)n'
_symmetry_cell_setting           triclinic
_symmetry_space_group_name_H-M   'P 1'
_symmetry_Int_Tables_number      1
_space_group_name_Hall           'P 1'
loop_
_symmetry_equiv_pos_site_id
_symmetry_equiv_pos_as_xyz
1 x,y,z
_cell_length_a                   15.2841(10)
_cell_length_b                   16.7279(10)
_cell_length_c                   27.5547(15)
_cell_angle_alpha                90
_cell_angle_beta                 90
_cell_angle_gamma                90
_cell_volume                     7044.93
loop_
_atom_site_label
_atom_site_type_symbol
_atom_site_fract_x
_atom_site_fract_y
_atom_site_fract_z
N2 N 0.4349(3) 0.0529(2) 0.11215(14)
H2 H 0.2389 0.0225 0.1764
C6 C 0.4044(4) 0.0687(3) 0.16154(17)
H5 H 0.3589 0.1108 0.1609
H6 H 0.4538 0.0881 0.1816
C7 C 0.5199(4) 0.0293(3) 0.10059(18)
C8 C 0.5194(4) 0.0125(3) 0.04701(17)
C9 C 0.4353(4) 0.0262(3) 0.03015(17)
C10 C 0.3805(4) 0.0522(3) 0.07187(19)
O1 O 0.3031(3) 0.0690(3) 0.07220(14)
O2 O 0.5796(3) 0.0234(2) 0.12899(13)
N3 N 0.7004(3) 0.1477(2) 0.77773(14)
C17 C 0.7536(4) 0.0897(3) 0.79379(18)
H14 H 0.8151 0.0976 0.7920
C18 C 0.7219(4) 0.0180(3) 0.81306(18)
C19 C 0.6328(4) 0.0072(3) 0.81647(15)
C20 C 0.5777(4) 0.0667(3) 0.79950(16)
H16 H 0.5159 0.0602 0.8008
C21 C 0.6146(4) 0.1363(3) 0.78047(16)
H17 H 0.5768 0.1772 0.7690
C27 C 0.4131(4) 0.0140(3) 0.98171(18)
H20 H 0.3559 0.0232 0.9695
Cu2 Cu 0.7500 0.2500 0.7500
Cu1 Cu 0.2500 0.7500 0.2500
N1 N 0.2996(3) 0.8523(2) 0.22227(14)
C1 C 0.2464(4) 0.9103(3) 0.20621(18)
H1 H 0.1849 0.9024 0.2080
C2 C 0.2781(4) 0.9820(3) 0.18694(18)
C3 C 0.3672(4) 0.9928(3) 0.18353(15)
C4 C 0.4223(4) 0.9333(3) 0.20050(16)
H3 H 0.4841 0.9398 0.1992
C5 C 0.3854(4) 0.8637(3) 0.21953(16)
H4 H 0.4232 0.8228 0.2310
C11 C 0.5869(4) 0.9860(3) 0.01829(18)
H7 H 0.6441 0.9768 0.0305
C12 C 0.4089(4) 0.7238(3) 0.30873(18)
C13 C 0.4554(4) 0.7400(3) 0.35479(16)
C14 C 0.4125(4) 0.7310(3) 0.39894(18)
H8 H 0.3520 0.7182 0.3992
C15 C 0.4565(4) 0.7403(4) 0.44290(19)
H9 H 0.4263 0.7331 0.4727
O3 O 0.3328(2) 0.7558(2) 0.30488(11)
O4 O 0.4431(2) 0.6802(2) 0.27745(12)
O5 O 0.1585(3) 0.8354(3) 0.30121(16)
H10 H 0.1154 0.8347 0.2823
C16 C 0.1322(7) 0.8170(5) 0.3459(3)
H11 H 0.1763 0.7832 0.3615
H12 H 0.0765 0.7881 0.3442
H13 H 0.1245 0.8662 0.3647
C28 C 0.5911(4) 0.7762(3) 0.30873(18)
C29 C 0.5446(4) 0.7600(3) 0.35479(16)
C30 C 0.5875(4) 0.7690(3) 0.39894(18)
H21 H 0.6480 0.7818 0.3992
C31 C 0.5435(4) 0.7597(4) 0.44290(19)
H22 H 0.5737 0.7669 0.4727
O8 O 0.6672(2) 0.7442(2) 0.30488(11)
O9 O 0.5569(2) 0.8198(2) 0.27745(12)
O10 O 0.3415(3) 0.6646(3) 0.19879(16)
H23 H 0.3846 0.6653 0.2177
C32 C 0.3678(7) 0.6830(5) 0.1541(3)
H24 H 0.3237 0.7168 0.1385
H25 H 0.4235 0.7119 0.1558
H26 H 0.3755 0.6338 0.1353
Cu3 Cu 0.7500 0.7500 0.2500
N5 N 0.2004(3) 0.6477(2) 0.27773(14)
O11 O 0.1672(2) 0.7442(2) 0.19512(11)
Cu1_2 Cu 0.2500 0.2500 0.7500
N1_2 N 0.2004(3) 0.1477(2) 0.72227(14)
C1_2 C 0.2536(4) 0.0897(3) 0.70621(18)
H1_2 H 0.3151 0.0976 0.7080
C2_2 C 0.2219(4) 0.0180(3) 0.68694(18)
C3_2 C 0.1328(4) 0.0072(3) 0.68353(15)
C4_2 C 0.0777(4) 0.0667(3) 0.70050(16)
H3_2 H 0.0159 0.0602 0.6992
C5_2 C 0.1146(4) 0.1363(3) 0.71953(16)
H4_2 H 0.0768 0.1772 0.7310
C12_2 C 0.0911(4) 0.2762(3) 0.80873(18)
C13_2 C 0.0446(4) 0.2600(3) 0.85479(16)
C14_2 C 0.0875(4) 0.2690(3) 0.89894(18)
H8_2 H 0.1480 0.2818 0.8992
C15_2 C 0.0435(4) 0.2597(4) 0.94290(19)
H9_2 H 0.0737 0.2669 0.9727
O3_2 O 0.1672(2) 0.2442(2) 0.80488(11)
O4_2 O 0.0569(2) 0.3198(2) 0.77745(12)
O5_2 O 0.3415(3) 0.1646(3) 0.80121(16)
H10_2 H 0.3846 0.1653 0.7823
C16_2 C 0.3678(7) 0.1830(5) 0.8459(3)
H11_2 H 0.3237 0.2168 0.8615
H12_2 H 0.4235 0.2119 0.8442
H13_2 H 0.3755 0.1338 0.8647
C23 C 0.0199(4) 0.0293(3) 0.39941(18)
C24 C 0.0194(4) 0.0125(3) 0.45299(17)
O7 O 0.0796(3) 0.0234(2) 0.37101(13)
O10_2 O 0.1585(3) 0.3354(3) 0.69879(16)
H23_2 H 0.1154 0.3347 0.7177
C32_2 C 0.1322(7) 0.3170(5) 0.6541(3)
H24_2 H 0.1763 0.2832 0.6385
H25_2 H 0.0765 0.2881 0.6558
H26_2 H 0.1245 0.3662 0.6353
N5_2 N 0.2996(3) 0.3523(2) 0.77773(14)
O11_2 O 0.3328(2) 0.2558(2) 0.69512(11)
N2_2 N 0.0651(3) 0.9471(2) 0.61215(14)
H2_2 H 0.2611 0.9775 0.6764
C6_2 C 0.0956(4) 0.9313(3) 0.66154(17)
H5_2 H 0.1411 0.8892 0.6609
H6_2 H 0.0462 0.9119 0.6816
C9_2 C 0.0647(4) 0.9738(3) 0.53015(17)
C10_2 C 0.1195(4) 0.9478(3) 0.57187(19)
O1_2 O 0.1969(3) 0.9310(3) 0.57220(14)
C27_2 C 0.0869(4) 0.9860(3) 0.48171(18)
H20_2 H 0.1441 0.9768 0.4695
C11_2 C 0.9131(4) 0.0140(3) 0.51829(18)
H7_2 H 0.8559 0.0232 0.5305
N4 N 0.9349(3) 0.0529(2) 0.38785(14)
H15 H 0.7389 0.0225 0.3236
C22 C 0.9044(4) 0.0687(3) 0.33846(17)
H18 H 0.8589 0.1108 0.3391
H19 H 0.9538 0.0881 0.3184
C25 C 0.9353(4) 0.0262(3) 0.46985(17)
C26 C 0.8805(4) 0.0522(3) 0.42813(19)
O6 O 0.8031(3) 0.0690(3) 0.42780(14)
C28_2 C 0.9089(4) 0.2238(3) 0.80873(18)
C29_2 C 0.9554(4) 0.2400(3) 0.85479(16)
C30_2 C 0.9125(4) 0.2310(3) 0.89894(18)
H21_2 H 0.8520 0.2182 0.8992
C31_2 C 0.9565(4) 0.2403(4) 0.94290(19)
H22_2 H 0.9263 0.2331 0.9727
O8_2 O 0.8328(2) 0.2558(2) 0.80488(11)
O9_2 O 0.9431(2) 0.1802(2) 0.77745(12)
C7_2 C 0.9801(4) 0.9707(3) 0.60059(18)
C8_2 C 0.9806(4) 0.9875(3) 0.54701(17)
O2_2 O 0.9204(3) 0.9766(2) 0.62899(13)
N3_2 N 0.7996(3) 0.8523(2) 0.27773(14)
C17_2 C 0.7464(4) 0.9103(3) 0.29379(18)
H14_2 H 0.6849 0.9024 0.2920
C18_2 C 0.7781(4) 0.9820(3) 0.31306(18)
C19_2 C 0.8672(4) 0.9928(3) 0.31647(15)
C20_2 C 0.9223(4) 0.9333(3) 0.29950(16)
H16_2 H 0.9841 0.9398 0.3008
C21_2 C 0.8854(4) 0.8637(3) 0.28047(16)
H17_2 H 0.9232 0.8228 0.2690
C7_3 C 0.0199(4) 0.5293(3) 0.60059(18)
C8_3 C 0.0194(4) 0.5125(3) 0.54701(17)
C11_3 C 0.0869(4) 0.4860(3) 0.51829(18)
H7_3 H 0.1441 0.4768 0.5305
O2_3 O 0.0796(3) 0.5234(2) 0.62899(13)
N4_2 N 0.0651(3) 0.4471(2) 0.38785(14)
C17_3 C 0.2536(4) 0.5897(3) 0.29379(18)
H14_3 H 0.3151 0.5976 0.2920
C18_3 C 0.2219(4) 0.5180(3) 0.31306(18)
H15_2 H 0.2611 0.4775 0.3236
C19_3 C 0.1328(4) 0.5072(3) 0.31647(15)
C20_3 C 0.0777(4) 0.5667(3) 0.29950(16)
H16_3 H 0.0159 0.5602 0.3008
C21_3 C 0.1146(4) 0.6363(3) 0.28047(16)
H17_3 H 0.0768 0.6772 0.2690
C22_2 C 0.0956(4) 0.4313(3) 0.33846(17)
H18_2 H 0.1411 0.3892 0.3391
H19_2 H 0.0462 0.4119 0.3184
C25_2 C 0.0647(4) 0.4738(3) 0.46985(17)
C26_2 C 0.1195(4) 0.4478(3) 0.42813(19)
O6_2 O 0.1969(3) 0.4310(3) 0.42780(14)
N1_3 N 0.7996(3) 0.3523(2) 0.72227(14)
N2_3 N 0.9349(3) 0.5529(2) 0.61215(14)
C1_3 C 0.7464(4) 0.4103(3) 0.70621(18)
H1_3 H 0.6849 0.4024 0.7080
C2_3 C 0.7781(4) 0.4820(3) 0.68694(18)
H2_3 H 0.7389 0.5225 0.6764
C3_3 C 0.8672(4) 0.4928(3) 0.68353(15)
C4_3 C 0.9223(4) 0.4333(3) 0.70050(16)
H3_3 H 0.9841 0.4398 0.6992
C5_3 C 0.8854(4) 0.3637(3) 0.71953(16)
H4_3 H 0.9232 0.3228 0.7310
C6_3 C 0.9044(4) 0.5687(3) 0.66154(17)
H5_3 H 0.8589 0.6108 0.6609
H6_3 H 0.9538 0.5881 0.6816
C9_3 C 0.9353(4) 0.5262(3) 0.53015(17)
C10_3 C 0.8805(4) 0.5522(3) 0.57187(19)
O1_3 O 0.8031(3) 0.5690(3) 0.57220(14)
O5_3 O 0.6585(3) 0.3354(3) 0.80121(16)
H10_3 H 0.6154 0.3347 0.7823
C16_3 C 0.6322(7) 0.3170(5) 0.8459(3)
H11_3 H 0.6763 0.2832 0.8615
H12_3 H 0.5765 0.2881 0.8442
H13_3 H 0.6245 0.3662 0.8647
C23_2 C 0.9801(4) 0.4707(3) 0.39941(18)
C24_2 C 0.9806(4) 0.4875(3) 0.45299(17)
C27_3 C 0.9131(4) 0.5140(3) 0.48171(18)
H20_3 H 0.8559 0.5232 0.4695
O7_2 O 0.9204(3) 0.4766(2) 0.37101(13)
O10_3 O 0.8415(3) 0.1646(3) 0.69879(16)
H23_3 H 0.8846 0.1653 0.7177
C32_3 C 0.8678(7) 0.1830(5) 0.6541(3)
H24_3 H 0.8237 0.2168 0.6385
H25_3 H 0.9235 0.2119 0.6558
H26_3 H 0.8755 0.1338 0.6353
O11_3 O 0.6672(2) 0.2442(2) 0.69512(11)
N1_4 N 0.7004(3) 0.6477(2) 0.22227(14)
N2_4 N 0.5651(3) 0.4471(2) 0.11215(14)
C1_4 C 0.7536(4) 0.5897(3) 0.20621(18)
H1_4 H 0.8151 0.5976 0.2080
C2_4 C 0.7219(4) 0.5180(3) 0.18694(18)
H2_4 H 0.7611 0.4775 0.1764
C3_4 C 0.6328(4) 0.5072(3) 0.18353(15)
C4_4 C 0.5777(4) 0.5667(3) 0.20050(16)
H3_4 H 0.5159 0.5602 0.1992
C5_4 C 0.6146(4) 0.6363(3) 0.21953(16)
H4_4 H 0.5768 0.6772 0.2310
C6_4 C 0.5956(4) 0.4313(3) 0.16154(17)
H5_4 H 0.6411 0.3892 0.1609
H6_4 H 0.5462 0.4119 0.1816
C7_4 C 0.4801(4) 0.4707(3) 0.10059(18)
C8_4 C 0.4806(4) 0.4875(3) 0.04701(17)
C9_4 C 0.5647(4) 0.4738(3) 0.03015(17)
C10_4 C 0.6195(4) 0.4478(3) 0.07187(19)
C11_4 C 0.4131(4) 0.5140(3) 0.01829(18)
H7_4 H 0.3559 0.5232 0.0305
O1_4 O 0.6969(3) 0.4310(3) 0.07220(14)
O2_4 O 0.4204(3) 0.4766(2) 0.12899(13)
O5_4 O 0.8415(3) 0.6646(3) 0.30121(16)
H10_4 H 0.8846 0.6653 0.2823
C16_4 C 0.8678(7) 0.6830(5) 0.3459(3)
H11_4 H 0.8237 0.7168 0.3615
H12_4 H 0.9235 0.7119 0.3442
H13_4 H 0.8755 0.6338 0.3647
O10_4 O 0.6585(3) 0.8354(3) 0.19879(16)
H23_4 H 0.6154 0.8347 0.2177
C32_4 C 0.6322(7) 0.8170(5) 0.1541(3)
H24_4 H 0.6763 0.7832 0.1385
H25_4 H 0.5765 0.7881 0.1558
H26_4 H 0.6245 0.8662 0.1353
O11_4 O 0.8328(2) 0.7558(2) 0.19512(11)
N4_3 N 0.4349(3) 0.5529(2) 0.88785(14)
C17_4 C 0.2464(4) 0.4103(3) 0.79379(18)
H14_4 H 0.1849 0.4024 0.7920
C18_4 C 0.2781(4) 0.4820(3) 0.81306(18)
H15_3 H 0.2389 0.5225 0.8236
C19_4 C 0.3672(4) 0.4928(3) 0.81647(15)
C20_4 C 0.4223(4) 0.4333(3) 0.79950(16)
H16_4 H 0.4841 0.4398 0.8008
C21_4 C 0.3854(4) 0.3637(3) 0.78047(16)
H17_4 H 0.4232 0.3228 0.7690
C22_3 C 0.4044(4) 0.5687(3) 0.83846(17)
H18_3 H 0.3589 0.6108 0.8391
H19_3 H 0.4538 0.5881 0.8184
C23_3 C 0.5199(4) 0.5293(3) 0.89941(18)
C24_3 C 0.5194(4) 0.5125(3) 0.95299(17)
C25_3 C 0.4353(4) 0.5262(3) 0.96985(17)
C26_3 C 0.3805(4) 0.5522(3) 0.92813(19)
C27_4 C 0.5869(4) 0.4860(3) 0.98171(18)
H20_4 H 0.6441 0.4768 0.9695
O6_3 O 0.3031(3) 0.5690(3) 0.92780(14)
O7_3 O 0.5796(3) 0.5234(2) 0.87101(13)
C12_3 C 0.5911(4) 0.2762(3) 0.69127(18)
C13_3 C 0.5446(4) 0.2600(3) 0.64521(16)
C14_3 C 0.5875(4) 0.2690(3) 0.60106(18)
H8_3 H 0.6480 0.2818 0.6008
C15_3 C 0.5435(4) 0.2597(4) 0.55710(19)
H9_3 H 0.5737 0.2669 0.5273
O4_3 O 0.5569(2) 0.3198(2) 0.72255(12)
C28_3 C 0.4089(4) 0.2238(3) 0.69127(18)
C29_3 C 0.4554(4) 0.2400(3) 0.64521(16)
C30_3 C 0.4125(4) 0.2310(3) 0.60106(18)
H21_3 H 0.3520 0.2182 0.6008
C31_3 C 0.4565(4) 0.2403(4) 0.55710(19)
H22_3 H 0.4263 0.2331 0.5273
O9_3 O 0.4431(2) 0.1802(2) 0.72255(12)
C28_4 C 0.0911(4) 0.7762(3) 0.19127(18)
C29_4 C 0.0446(4) 0.7600(3) 0.14521(16)
C30_4 C 0.0875(4) 0.7690(3) 0.10106(18)
H21_4 H 0.1480 0.7818 0.1008
C31_4 C 0.0435(4) 0.7597(4) 0.05710(19)
H22_4 H 0.0737 0.7669 0.0273
O9_4 O 0.0569(2) 0.8198(2) 0.22255(12)
C12_4 C 0.9089(4) 0.7238(3) 0.19127(18)
C13_4 C 0.9554(4) 0.7400(3) 0.14521(16)
C14_4 C 0.9125(4) 0.7310(3) 0.10106(18)
H8_4 H 0.8520 0.7182 0.1008
C15_4 C 0.9565(4) 0.7403(4) 0.05710(19)
H9_4 H 0.9263 0.7331 0.0273
O4_4 O 0.9431(2) 0.6802(2) 0.22255(12)
N4_4 N 0.5651(3) 0.9471(2) 0.88785(14)
H15_4 H 0.7611 0.9775 0.8236
C22_4 C 0.5956(4) 0.9313(3) 0.83846(17)
H18_4 H 0.6411 0.8892 0.8391
H19_4 H 0.5462 0.9119 0.8184
C23_4 C 0.4801(4) 0.9707(3) 0.89941(18)
C24_4 C 0.4806(4) 0.9875(3) 0.95299(17)
C25_4 C 0.5647(4) 0.9738(3) 0.96985(17)
C26_4 C 0.6195(4) 0.9478(3) 0.92813(19)
O6_4 O 0.6969(3) 0.9310(3) 0.92780(14)
O7_4 O 0.4204(3) 0.9766(2) 0.87101(13)
Cu1_3 Cu 0.7500 0.2500 0.2500
N1_5 N 0.7004(3) 0.3523(2) 0.27773(14)
N2_5 N 0.5651(3) 0.5529(2) 0.38785(14)
C1_5 C 0.7536(4) 0.4103(3) 0.29379(18)
H1_5 H 0.8151 0.4024 0.2920
C2_5 C 0.7219(4) 0.4820(3) 0.31306(18)
H2_5 H 0.7611 0.5225 0.3236
C3_5 C 0.6328(4) 0.4928(3) 0.31647(15)
C4_5 C 0.5777(4) 0.4333(3) 0.29950(16)
H3_5 H 0.5159 0.4398 0.3008
C5_5 C 0.6146(4) 0.3637(3) 0.28047(16)
H4_5 H 0.5768 0.3228 0.2690
C6_5 C 0.5956(4) 0.5687(3) 0.33846(17)
H5_5 H 0.6411 0.6108 0.3391
H6_5 H 0.5462 0.5881 0.3184
C7_5 C 0.4801(4) 0.5293(3) 0.39941(18)
C8_5 C 0.4806(4) 0.5125(3) 0.45299(17)
C9_5 C 0.5647(4) 0.5262(3) 0.46985(17)
C10_5 C 0.6195(4) 0.5522(3) 0.42813(19)
C11_5 C 0.4131(4) 0.4860(3) 0.48171(18)
H7_5 H 0.3559 0.4768 0.4695
C12_5 C 0.5911(4) 0.2238(3) 0.19127(18)
C13_5 C 0.5446(4) 0.2400(3) 0.14521(16)
C14_5 C 0.5875(4) 0.2310(3) 0.10106(18)
H8_5 H 0.6480 0.2182 0.1008
C15_5 C 0.5435(4) 0.2403(4) 0.05710(19)
H9_5 H 0.5737 0.2331 0.0273
O1_5 O 0.6969(3) 0.5690(3) 0.42780(14)
O2_5 O 0.4204(3) 0.5234(2) 0.37101(13)
O3_3 O 0.6672(2) 0.2558(2) 0.19512(11)
O4_5 O 0.5569(2) 0.1802(2) 0.22255(12)
O5_5 O 0.8415(3) 0.3354(3) 0.19879(16)
H10_5 H 0.8846 0.3347 0.2177
C16_5 C 0.8678(7) 0.3170(5) 0.1541(3)
H11_5 H 0.8237 0.2832 0.1385
H12_5 H 0.9235 0.2881 0.1558
H13_5 H 0.8755 0.3662 0.1353
N3_3 N 0.2996(3) 0.6477(2) 0.72227(14)
N4_5 N 0.4349(3) 0.4471(2) 0.61215(14)
C17_5 C 0.2464(4) 0.5897(3) 0.70621(18)
H14_5 H 0.1849 0.5976 0.7080
C18_5 C 0.2781(4) 0.5180(3) 0.68694(18)
H15_5 H 0.2389 0.4775 0.6764
C19_5 C 0.3672(4) 0.5072(3) 0.68353(15)
C20_5 C 0.4223(4) 0.5667(3) 0.70050(16)
H16_5 H 0.4841 0.5602 0.6992
C21_5 C 0.3854(4) 0.6363(3) 0.71953(16)
H17_5 H 0.4232 0.6772 0.7310
C22_5 C 0.4044(4) 0.4313(3) 0.66154(17)
H18_5 H 0.3589 0.3892 0.6609
H19_5 H 0.4538 0.4119 0.6816
C23_5 C 0.5199(4) 0.4707(3) 0.60059(18)
C24_5 C 0.5194(4) 0.4875(3) 0.54701(17)
C25_5 C 0.4353(4) 0.4738(3) 0.53015(17)
C26_5 C 0.3805(4) 0.4478(3) 0.57187(19)
C27_5 C 0.5869(4) 0.5140(3) 0.51829(18)
H20_5 H 0.6441 0.5232 0.5305
O6_5 O 0.3031(3) 0.4310(3) 0.57220(14)
O7_5 O 0.5796(3) 0.4766(2) 0.62899(13)
C28_5 C 0.4089(4) 0.2762(3) 0.19127(18)
C29_5 C 0.4554(4) 0.2600(3) 0.14521(16)
C30_5 C 0.4125(4) 0.2690(3) 0.10106(18)
H21_5 H 0.3520 0.2818 0.1008
C31_5 C 0.4565(4) 0.2597(4) 0.05710(19)
H22_5 H 0.4263 0.2669 0.0273
O8_3 O 0.3328(2) 0.2442(2) 0.19512(11)
O9_5 O 0.4431(2) 0.3198(2) 0.22255(12)
O10_5 O 0.6585(3) 0.1646(3) 0.30121(16)
H23_5 H 0.6154 0.1653 0.2823
C32_5 C 0.6322(7) 0.1830(5) 0.3459(3)
H24_5 H 0.6763 0.2168 0.3615
H25_5 H 0.5765 0.2119 0.3442
H26_5 H 0.6245 0.1338 0.3647
Cu2_2 Cu 0.2500 0.7500 0.7500
Cu3_2 Cu 0.2500 0.2500 0.2500
N5_3 N 0.7996(3) 0.1477(2) 0.22227(14)
O11_5 O 0.8328(2) 0.2442(2) 0.30488(11)
N3_4 N 0.2004(3) 0.3523(2) 0.22227(14)
N4_6 N 0.0651(3) 0.5529(2) 0.11215(14)
C17_6 C 0.2536(4) 0.4103(3) 0.20621(18)
H14_6 H 0.3151 0.4024 0.2080
C18_6 C 0.2219(4) 0.4820(3) 0.18694(18)
H15_6 H 0.2611 0.5225 0.1764
C19_6 C 0.1328(4) 0.4928(3) 0.18353(15)
C20_6 C 0.0777(4) 0.4333(3) 0.20050(16)
H16_6 H 0.0159 0.4398 0.1992
C21_6 C 0.1146(4) 0.3637(3) 0.21953(16)
H17_6 H 0.0768 0.3228 0.2310
C22_6 C 0.0956(4) 0.5687(3) 0.16154(17)
H18_6 H 0.1411 0.6108 0.1609
H19_6 H 0.0462 0.5881 0.1816
C25_6 C 0.0647(4) 0.5262(3) 0.03015(17)
C26_6 C 0.1195(4) 0.5522(3) 0.07187(19)
O6_6 O 0.1969(3) 0.5690(3) 0.07220(14)
C7_6 C 0.0199(4) 0.4707(3) 0.89941(18)
C8_6 C 0.0194(4) 0.4875(3) 0.95299(17)
C11_6 C 0.0869(4) 0.5140(3) 0.98171(18)
H7_6 H 0.1441 0.5232 0.9695
O2_6 O 0.0796(3) 0.4766(2) 0.87101(13)
C28_6 C 0.0911(4) 0.7238(3) 0.69127(18)
C29_6 C 0.0446(4) 0.7400(3) 0.64521(16)
C30_6 C 0.0875(4) 0.7310(3) 0.60106(18)
H21_6 H 0.1480 0.7182 0.6008
C31_6 C 0.0435(4) 0.7403(4) 0.55710(19)
H22_6 H 0.0737 0.7331 0.5273
O8_4 O 0.1672(2) 0.7558(2) 0.69512(11)
O9_6 O 0.0569(2) 0.6802(2) 0.72255(12)
C23_6 C 0.9801(4) 0.5293(3) 0.10059(18)
C24_6 C 0.9806(4) 0.5125(3) 0.04701(17)
C27_6 C 0.9131(4) 0.4860(3) 0.01829(18)
H20_6 H 0.8559 0.4768 0.0305
O7_6 O 0.9204(3) 0.5234(2) 0.12899(13)
Cu1_4 Cu 0.7500 0.7500 0.7500
N1_6 N 0.7996(3) 0.6477(2) 0.77773(14)
N2_6 N 0.9349(3) 0.4471(2) 0.88785(14)
C1_6 C 0.7464(4) 0.5897(3) 0.79379(18)
H1_6 H 0.6849 0.5976 0.7920
C2_6 C 0.7781(4) 0.5180(3) 0.81306(18)
H2_6 H 0.7389 0.4775 0.8236
C3_6 C 0.8672(4) 0.5072(3) 0.81647(15)
C4_6 C 0.9223(4) 0.5667(3) 0.79950(16)
H3_6 H 0.9841 0.5602 0.8008
C5_6 C 0.8854(4) 0.6363(3) 0.78047(16)
H4_6 H 0.9232 0.6772 0.7690
C6_6 C 0.9044(4) 0.4313(3) 0.83846(17)
H5_6 H 0.8589 0.3892 0.8391
H6_6 H 0.9538 0.4119 0.8184
C9_6 C 0.9353(4) 0.4738(3) 0.96985(17)
C10_6 C 0.8805(4) 0.4478(3) 0.92813(19)
C12_6 C 0.9089(4) 0.7762(3) 0.69127(18)
C13_6 C 0.9554(4) 0.7600(3) 0.64521(16)
C14_6 C 0.9125(4) 0.7690(3) 0.60106(18)
H8_6 H 0.8520 0.7818 0.6008
C15_6 C 0.9565(4) 0.7597(4) 0.55710(19)
H9_6 H 0.9263 0.7669 0.5273
O1_6 O 0.8031(3) 0.4310(3) 0.92780(14)
O3_4 O 0.8328(2) 0.7442(2) 0.69512(11)
O4_6 O 0.9431(2) 0.8198(2) 0.72255(12)
O5_6 O 0.6585(3) 0.6646(3) 0.69879(16)
H10_6 H 0.6154 0.6653 0.7177
C16_6 C 0.6322(7) 0.6830(5) 0.6541(3)
H11_6 H 0.6763 0.7168 0.6385
H12_6 H 0.5765 0.7119 0.6558
H13_6 H 0.6245 0.6338 0.6353
O10_6 O 0.8415(3) 0.8354(3) 0.80121(16)
H23_6 H 0.8846 0.8347 0.7823
C32_6 C 0.8678(7) 0.8170(5) 0.8459(3)
H24_6 H 0.8237 0.7832 0.8615
H25_6 H 0.9235 0.7881 0.8442
H26_6 H 0.8755 0.8662 0.8647
N5_4 N 0.7004(3) 0.8523(2) 0.72227(14)
O11_6 O 0.6672(2) 0.7558(2) 0.80488(11)
C27_7 C 0.0869(4) 0.0140(3) 0.01829(18)
H20_7 H 0.1441 0.0232 0.0305
N1_7 N 0.2004(3) 0.8523(2) 0.77773(14)
C1_7 C 0.2536(4) 0.9103(3) 0.79379(18)
H1_7 H 0.3151 0.9024 0.7920
C2_7 C 0.2219(4) 0.9820(3) 0.81306(18)
C3_7 C 0.1328(4) 0.9928(3) 0.81647(15)
C4_7 C 0.0777(4) 0.9333(3) 0.79950(16)
H3_7 H 0.0159 0.9398 0.8008
C5_7 C 0.1146(4) 0.8637(3) 0.78047(16)
H4_7 H 0.0768 0.8228 0.7690
O5_7 O 0.3415(3) 0.8354(3) 0.69879(16)
H10_7 H 0.3846 0.8347 0.7177
C16_7 C 0.3678(7) 0.8170(5) 0.6541(3)
H11_7 H 0.3237 0.7832 0.6385
H12_7 H 0.4235 0.7881 0.6558
H13_7 H 0.3755 0.8662 0.6353
O10_7 O 0.1585(3) 0.6646(3) 0.80121(16)
H23_7 H 0.1154 0.6653 0.7823
C32_7 C 0.1322(7) 0.6830(5) 0.8459(3)
H24_7 H 0.1763 0.7168 0.8615
H25_7 H 0.0765 0.7119 0.8442
H26_7 H 0.1245 0.6338 0.8647
O11_7 O 0.3328(2) 0.7442(2) 0.80488(11)
C17_7 C 0.7464(4) 0.0897(3) 0.20621(18)
H14_7 H 0.6849 0.0976 0.2080
C18_7 C 0.7781(4) 0.0180(3) 0.18694(18)
C19_7 C 0.8672(4) 0.0072(3) 0.18353(15)
C20_7 C 0.9223(4) 0.0667(3) 0.20050(16)
H16_7 H 0.9841 0.0602 0.1992
C21_7 C 0.8854(4) 0.1363(3) 0.21953(16)
H17_7 H 0.9232 0.1772 0.2310
C11_7 C 0.9131(4) 0.9860(3) 0.98171(18)
H7_7 H 0.8559 0.9768 0.9695
N1_8 N 0.2996(3) 0.1477(2) 0.27773(14)
C1_8 C 0.2464(4) 0.0897(3) 0.29379(18)
H1_8 H 0.1849 0.0976 0.2920
C2_8 C 0.2781(4) 0.0180(3) 0.31306(18)
C3_8 C 0.3672(4) 0.0072(3) 0.31647(15)
C4_8 C 0.4223(4) 0.0667(3) 0.29950(16)
H3_8 H 0.4841 0.0602 0.3008
C5_8 C 0.3854(4) 0.1363(3) 0.28047(16)
H4_8 H 0.4232 0.1772 0.2690
C11_8 C 0.5869(4) 0.0140(3) 0.48171(18)
H7_8 H 0.6441 0.0232 0.4695
O5_8 O 0.1585(3) 0.1646(3) 0.19879(16)
H10_8 H 0.1154 0.1653 0.2177
C16_8 C 0.1322(7) 0.1830(5) 0.1541(3)
H11_8 H 0.1763 0.2168 0.1385
H12_8 H 0.0765 0.2119 0.1558
H13_8 H 0.1245 0.1338 0.1353
N4_7 N 0.5651(3) 0.0529(2) 0.61215(14)
H15_7 H 0.7611 0.0225 0.6764
C22_7 C 0.5956(4) 0.0687(3) 0.66154(17)
H18_7 H 0.6411 0.1108 0.6609
H19_7 H 0.5462 0.0881 0.6816
C23_7 C 0.4801(4) 0.0293(3) 0.60059(18)
C24_7 C 0.4806(4) 0.0125(3) 0.54701(17)
C25_7 C 0.5647(4) 0.0262(3) 0.53015(17)
C26_7 C 0.6195(4) 0.0522(3) 0.57187(19)
O6_7 O 0.6969(3) 0.0690(3) 0.57220(14)
O7_7 O 0.4204(3) 0.0234(2) 0.62899(13)
O10_8 O 0.3415(3) 0.3354(3) 0.30121(16)
H23_8 H 0.3846 0.3347 0.2823
C32_8 C 0.3678(7) 0.3170(5) 0.3459(3)
H24_8 H 0.3237 0.2832 0.3615
H25_8 H 0.4235 0.2881 0.3442
H26_8 H 0.3755 0.3662 0.3647
O11_8 O 0.1672(2) 0.2558(2) 0.30488(11)
N2_7 N 0.4349(3) 0.9471(2) 0.38785(14)
H2_7 H 0.2389 0.9775 0.3236
C6_7 C 0.4044(4) 0.9313(3) 0.33846(17)
H5_7 H 0.3589 0.8892 0.3391
H6_7 H 0.4538 0.9119 0.3184
C7_7 C 0.5199(4) 0.9707(3) 0.39941(18)
C8_7 C 0.5194(4) 0.9875(3) 0.45299(17)
C9_7 C 0.4353(4) 0.9738(3) 0.46985(17)
C10_7 C 0.3805(4) 0.9478(3) 0.42813(19)
O1_7 O 0.3031(3) 0.9310(3) 0.42780(14)
O2_7 O 0.5796(3) 0.9766(2) 0.37101(13)
C17_8 C 0.7536(4) 0.9103(3) 0.70621(18)
H14_8 H 0.8151 0.9024 0.7080
C18_8 C 0.7219(4) 0.9820(3) 0.68694(18)
C19_8 C 0.6328(4) 0.9928(3) 0.68353(15)
C20_8 C 0.5777(4) 0.9333(3) 0.70050(16)
H16_8 H 0.5159 0.9398 0.6992
C21_8 C 0.6146(4) 0.8637(3) 0.71953(16)
H17_8 H 0.5768 0.8228 0.7310
C27_8 C 0.4131(4) 0.9860(3) 0.51829(18)
H20_8 H 0.3559 0.9768 0.5305
C12_7 C 0.4089(4) 0.7762(3) 0.80873(18)
C13_7 C 0.4554(4) 0.7600(3) 0.85479(16)
C14_7 C 0.4125(4) 0.7690(3) 0.89894(18)
H8_7 H 0.3520 0.7818 0.8992
C15_7 C 0.4565(4) 0.7597(4) 0.94290(19)
H9_7 H 0.4263 0.7669 0.9727
O4_7 O 0.4431(2) 0.8198(2) 0.77745(12)
C28_7 C 0.5911(4) 0.7238(3) 0.80873(18)
C29_7 C 0.5446(4) 0.7400(3) 0.85479(16)
C30_7 C 0.5875(4) 0.7310(3) 0.89894(18)
H21_7 H 0.6480 0.7182 0.8992
C31_7 C 0.5435(4) 0.7403(4) 0.94290(19)
H22_7 H 0.5737 0.7331 0.9727
O9_7 O 0.5569(2) 0.6802(2) 0.77745(12)
C12_8 C 0.0911(4) 0.2238(3) 0.30873(18)
C13_8 C 0.0446(4) 0.2400(3) 0.35479(16)
C14_8 C 0.0875(4) 0.2310(3) 0.39894(18)
H8_8 H 0.1480 0.2182 0.3992
C15_8 C 0.0435(4) 0.2403(4) 0.44290(19)
H9_8 H 0.0737 0.2331 0.4727
O4_8 O 0.0569(2) 0.1802(2) 0.27745(12)
C28_8 C 0.9089(4) 0.2762(3) 0.30873(18)
C29_8 C 0.9554(4) 0.2600(3) 0.35479(16)
C30_8 C 0.9125(4) 0.2690(3) 0.39894(18)
H21_8 H 0.8520 0.2818 0.3992
C31_8 C 0.9565(4) 0.2597(4) 0.44290(19)
H22_8 H 0.9263 0.2669 0.4727
O9_8 O 0.9431(2) 0.3198(2) 0.27745(12)
N2_8 N 0.0651(3) 0.0529(2) 0.88785(14)
H2_8 H 0.2611 0.0225 0.8236
C6_8 C 0.0956(4) 0.0687(3) 0.83846(17)
H5_8 H 0.1411 0.1108 0.8391
H6_8 H 0.0462 0.0881 0.8184
C9_8 C 0.0647(4) 0.0262(3) 0.96985(17)
C10_8 C 0.1195(4) 0.0522(3) 0.92813(19)
O1_8 O 0.1969(3) 0.0690(3) 0.92780(14)
C23_8 C 0.0199(4) 0.9707(3) 0.10059(18)
C24_8 C 0.0194(4) 0.9875(3) 0.04701(17)
O7_8 O 0.0796(3) 0.9766(2) 0.12899(13)
C7_8 C 0.9801(4) 0.0293(3) 0.89941(18)
C8_8 C 0.9806(4) 0.0125(3) 0.95299(17)
O2_8 O 0.9204(3) 0.0234(2) 0.87101(13)
N4_8 N 0.9349(3) 0.9471(2) 0.11215(14)
H15_8 H 0.7389 0.9775 0.1764
C22_8 C 0.9044(4) 0.9313(3) 0.16154(17)
H18_8 H 0.8589 0.8892 0.1609
H19_8 H 0.9538 0.9119 0.1816
C25_8 C 0.9353(4) 0.9738(3) 0.03015(17)
C26_8 C 0.8805(4) 0.9478(3) 0.07187(19)
O6_8 O 0.8031(3) 0.9310(3) 0.07220(14)
loop_
_geom_bond_atom_site_label_1
_geom_bond_atom_site_label_2
_geom_bond_site_symmetry_1
_geom_bond_site_symmetry_2
N2 C6 1_555 1_555
H5 C6 1_555 1_555
H6 C6 1_555 1_555
C7 N2 1_555 1_555
C8 C7 1_555 1_555
C9 C8 1_555 1_555
C10 N2 1_555 1_555
O1 C10 1_555 1_555
O2 C7 1_555 1_555
C9 C10 1_555 1_555
N3 C17 1_555 1_555
C17 H14 1_555 1_555
C18 C17 1_555 1_555
C19 C18 1_555 1_555
C20 C19 1_555 1_555
H16 C20 1_555 1_555
C21 N3 1_555 1_555
H17 C21 1_555 1_555
H20 C27 1_555 1_555
Cu2 N3 1_555 1_555
C20 C21 1_555 1_555
Cu1 N1 1_555 1_555
N1 C1 1_555 1_555
C1 H1 1_555 1_555
C2 C1 1_555 1_555
C3 C2 1_555 1_555
C4 C3 1_555 1_555
H3 C4 1_555 1_555
C5 N1 1_555 1_555
H4 C5 1_555 1_555
H7 C11 1_555 1_555
C12 C13 1_555 1_555
C13 C14 1_555 1_555
C14 H8 1_555 1_555
C15 C14 1_555 1_555
H9 C15 1_555 1_555
O3 Cu1 1_555 1_555
O4 C12 1_555 1_555
O5 Cu1 1_555 1_555
H10 O5 1_555 1_555
C16 O5 1_555 1_555
H11 C16 1_555 1_555
H12 C16 1_555 1_555
H13 C16 1_555 1_555
C28 C29 1_555 1_555
C29 C13 1_555 1_555
C30 C29 1_555 1_555
H21 C30 1_555 1_555
C31 C15 1_555 1_555
H22 C31 1_555 1_555
O8 C28 1_555 1_555
O9 C28 1_555 1_555
O10 Cu1 1_555 1_555
H23 O10 1_555 1_555
C32 O10 1_555 1_555
H24 C32 1_555 1_555
H25 C32 1_555 1_555
H26 C32 1_555 1_555
Cu3 O8 1_555 1_555
N5 Cu1 1_555 1_555
O11 Cu1 1_555 1_555
C4 C5 1_555 1_555
C12 O3 1_555 1_555
C30 C31 1_555 1_555
Cu1_2 N1_2 1_555 1_555
N1_2 C1_2 1_555 1_555
C1_2 H1_2 1_555 1_555
C2_2 C1_2 1_555 1_555
C3_2 C2_2 1_555 1_555
C4_2 C3_2 1_555 1_555
H3_2 C4_2 1_555 1_555
C5_2 N1_2 1_555 1_555
H4_2 C5_2 1_555 1_555
C12_2 C13_2 1_555 1_555
C13_2 C14_2 1_555 1_555
C14_2 H8_2 1_555 1_555
C15_2 C14_2 1_555 1_555
H9_2 C15_2 1_555 1_555
O3_2 Cu1_2 1_555 1_555
O4_2 C12_2 1_555 1_555
O5_2 Cu1_2 1_555 1_555
H10_2 O5_2 1_555 1_555
C16_2 O5_2 1_555 1_555
H11_2 C16_2 1_555 1_555
H12_2 C16_2 1_555 1_555
H13_2 C16_2 1_555 1_555
C24 C23 1_555 1_555
O7 C23 1_555 1_555
O10_2 Cu1_2 1_555 1_555
H23_2 O10_2 1_555 1_555
C32_2 O10_2 1_555 1_555
H24_2 C32_2 1_555 1_555
H25_2 C32_2 1_555 1_555
H26_2 C32_2 1_555 1_555
N5_2 Cu1_2 1_555 1_555
O11_2 Cu1_2 1_555 1_555
C4_2 C5_2 1_555 1_555
C12_2 O3_2 1_555 1_555
N2_2 C6_2 1_555 1_555
H5_2 C6_2 1_555 1_555
H6_2 C6_2 1_555 1_555
C10_2 N2_2 1_555 1_555
O1_2 C10_2 1_555 1_555
C27_2 C9_2 1_555 1_555
H20_2 C27_2 1_555 1_555
C9_2 C10_2 1_555 1_555
H7_2 C11_2 1_555 1_555
N4 C22 1_555 1_555
H18 C22 1_555 1_555
H19 C22 1_555 1_555
C25 C11_2 1_555 1_555
C26 N4 1_555 1_555
O6 C26 1_555 1_555
C28_2 C29_2 1_555 1_555
C30_2 C29_2 1_555 1_555
H21_2 C30_2 1_555 1_555
H22_2 C31_2 1_555 1_555
O8_2 C28_2 1_555 1_555
O9_2 C28_2 1_555 1_555
Cu2 O8_2 1_555 1_555
C25 C26 1_555 1_555
C30_2 C31_2 1_555 1_555
C8_2 C7_2 1_555 1_555
O2_2 C7_2 1_555 1_555
N3_2 C17_2 1_555 1_555
C17_2 H14_2 1_555 1_555
C18_2 C17_2 1_555 1_555
C19_2 C18_2 1_555 1_555
C20_2 C19_2 1_555 1_555
H16_2 C20_2 1_555 1_555
C21_2 N3_2 1_555 1_555
H17_2 C21_2 1_555 1_555
Cu3 N3_2 1_555 1_555
C20_2 C21_2 1_555 1_555
C8_3 C7_3 1_555 1_555
C11_3 C8_3 1_555 1_555
H7_3 C11_3 1_555 1_555
O2_3 C7_3 1_555 1_555
N5 C17_3 1_555 1_555
N4_2 C22_2 1_555 1_555
C17_3 H14_3 1_555 1_555
C18_3 C17_3 1_555 1_555
H15_2 C18_3 1_555 1_555
C19_3 C18_3 1_555 1_555
C20_3 C19_3 1_555 1_555
H16_3 C20_3 1_555 1_555
C21_3 N5 1_555 1_555
H17_3 C21_3 1_555 1_555
C22_2 C19_3 1_555 1_555
H18_2 C22_2 1_555 1_555
H19_2 C22_2 1_555 1_555
C25_2 C11_3 1_555 1_555
C26_2 N4_2 1_555 1_555
O6_2 C26_2 1_555 1_555
C20_3 C21_3 1_555 1_555
C25_2 C26_2 1_555 1_555
Cu2 N1_3 1_555 1_555
N1_3 C1_3 1_555 1_555
N2_3 C6_3 1_555 1_555
C1_3 H1_3 1_555 1_555
C2_3 C1_3 1_555 1_555
H2_3 C2_3 1_555 1_555
C3_3 C2_3 1_555 1_555
C4_3 C3_3 1_555 1_555
H3_3 C4_3 1_555 1_555
C5_3 N1_3 1_555 1_555
H4_3 C5_3 1_555 1_555
C6_3 C3_3 1_555 1_555
H5_3 C6_3 1_555 1_555
H6_3 C6_3 1_555 1_555
C10_3 N2_3 1_555 1_555
O1_3 C10_3 1_555 1_555
O5_3 Cu2 1_555 1_555
H10_3 O5_3 1_555 1_555
C16_3 O5_3 1_555 1_555
H11_3 C16_3 1_555 1_555
H12_3 C16_3 1_555 1_555
H13_3 C16_3 1_555 1_555
C24_2 C23_2 1_555 1_555
C27_3 C9_3 1_555 1_555
H20_3 C27_3 1_555 1_555
O7_2 C23_2 1_555 1_555
O10_3 Cu2 1_555 1_555
H23_3 O10_3 1_555 1_555
C32_3 O10_3 1_555 1_555
H24_3 C32_3 1_555 1_555
H25_3 C32_3 1_555 1_555
H26_3 C32_3 1_555 1_555
O11_3 Cu2 1_555 1_555
C4_3 C5_3 1_555 1_555
C9_3 C10_3 1_555 1_555
C24_2 C27_3 1_555 1_555
Cu3 N1_4 1_555 1_555
N1_4 C1_4 1_555 1_555
N2_4 C6_4 1_555 1_555
C1_4 H1_4 1_555 1_555
C2_4 C1_4 1_555 1_555
H2_4 C2_4 1_555 1_555
C3_4 C2_4 1_555 1_555
C4_4 C3_4 1_555 1_555
H3_4 C4_4 1_555 1_555
C5_4 N1_4 1_555 1_555
H4_4 C5_4 1_555 1_555
C6_4 C3_4 1_555 1_555
H5_4 C6_4 1_555 1_555
H6_4 C6_4 1_555 1_555
C7_4 N2_4 1_555 1_555
C8_4 C7_4 1_555 1_555
C9_4 C8_4 1_555 1_555
C10_4 N2_4 1_555 1_555
C11_4 C8_4 1_555 1_555
H7_4 C11_4 1_555 1_555
O1_4 C10_4 1_555 1_555
O2_4 C7_4 1_555 1_555
O5_4 Cu3 1_555 1_555
H10_4 O5_4 1_555 1_555
C16_4 O5_4 1_555 1_555
H11_4 C16_4 1_555 1_555
H12_4 C16_4 1_555 1_555
H13_4 C16_4 1_555 1_555
O10_4 Cu3 1_555 1_555
H23_4 O10_4 1_555 1_555
C32_4 O10_4 1_555 1_555
H24_4 C32_4 1_555 1_555
H25_4 C32_4 1_555 1_555
H26_4 C32_4 1_555 1_555
O11_4 Cu3 1_555 1_555
C4_4 C5_4 1_555 1_555
C9_4 C10_4 1_555 1_555
N5_2 C17_4 1_555 1_555
N4_3 C22_3 1_555 1_555
C17_4 H14_4 1_555 1_555
C18_4 C17_4 1_555 1_555
H15_3 C18_4 1_555 1_555
C19_4 C18_4 1_555 1_555
C20_4 C19_4 1_555 1_555
H16_4 C20_4 1_555 1_555
C21_4 N5_2 1_555 1_555
H17_4 C21_4 1_555 1_555
C22_3 C19_4 1_555 1_555
H18_3 C22_3 1_555 1_555
H19_3 C22_3 1_555 1_555
C23_3 N4_3 1_555 1_555
C24_3 C23_3 1_555 1_555
C26_3 N4_3 1_555 1_555
H20_4 C27_4 1_555 1_555
O6_3 C26_3 1_555 1_555
O7_3 C23_3 1_555 1_555
C20_4 C21_4 1_555 1_555
C24_3 C25_3 1_555 1_555
C24_3 C27_4 1_555 1_555
C25_3 C26_3 1_555 1_555
C12_3 C13_3 1_555 1_555
C13_3 C14_3 1_555 1_555
C14_3 H8_3 1_555 1_555
C15_3 C14_3 1_555 1_555
H9_3 C15_3 1_555 1_555
O4_3 C12_3 1_555 1_555
C28_3 C29_3 1_555 1_555
C29_3 C13_3 1_555 1_555
C30_3 C29_3 1_555 1_555
H21_3 C30_3 1_555 1_555
C31_3 C15_3 1_555 1_555
H22_3 C31_3 1_555 1_555
O11_2 C28_3 1_555 1_555
O9_3 C28_3 1_555 1_555
C12_3 O11_3 1_555 1_555
C30_3 C31_3 1_555 1_555
C28_4 C29_4 1_555 1_555
C30_4 C29_4 1_555 1_555
H21_4 C30_4 1_555 1_555
H22_4 C31_4 1_555 1_555
O11 C28_4 1_555 1_555
O9_4 C28_4 1_555 1_555
C30_4 C31_4 1_555 1_555
C12_4 C13_4 1_555 1_555
C13_4 C14_4 1_555 1_555
C14_4 H8_4 1_555 1_555
C15_4 C14_4 1_555 1_555
H9_4 C15_4 1_555 1_555
O4_4 C12_4 1_555 1_555
C12_4 O11_4 1_555 1_555
N4_4 C22_4 1_555 1_555
H18_4 C22_4 1_555 1_555
H19_4 C22_4 1_555 1_555
C23_4 N4_4 1_555 1_555
C24_4 C23_4 1_555 1_555
C26_4 N4_4 1_555 1_555
O6_4 C26_4 1_555 1_555
O7_4 C23_4 1_555 1_555
C24_4 C25_4 1_555 1_555
C25_4 C26_4 1_555 1_555
Cu1_3 N1_5 1_555 1_555
N1_5 C1_5 1_555 1_555
N2_5 C6_5 1_555 1_555
C1_5 H1_5 1_555 1_555
C2_5 C1_5 1_555 1_555
H2_5 C2_5 1_555 1_555
C3_5 C2_5 1_555 1_555
C4_5 C3_5 1_555 1_555
H3_5 C4_5 1_555 1_555
C5_5 N1_5 1_555 1_555
H4_5 C5_5 1_555 1_555
C6_5 C3_5 1_555 1_555
H5_5 C6_5 1_555 1_555
H6_5 C6_5 1_555 1_555
C7_5 N2_5 1_555 1_555
C8_5 C7_5 1_555 1_555
C9_5 C8_5 1_555 1_555
C10_5 N2_5 1_555 1_555
C11_5 C8_5 1_555 1_555
H7_5 C11_5 1_555 1_555
C12_5 C13_5 1_555 1_555
C13_5 C14_5 1_555 1_555
C14_5 H8_5 1_555 1_555
C15_5 C14_5 1_555 1_555
H9_5 C15_5 1_555 1_555
O1_5 C10_5 1_555 1_555
O2_5 C7_5 1_555 1_555
O3_3 Cu1_3 1_555 1_555
O4_5 C12_5 1_555 1_555
O5_5 Cu1_3 1_555 1_555
H10_5 O5_5 1_555 1_555
C16_5 O5_5 1_555 1_555
H11_5 C16_5 1_555 1_555
H12_5 C16_5 1_555 1_555
H13_5 C16_5 1_555 1_555
N3_3 C17_5 1_555 1_555
N4_5 C22_5 1_555 1_555
C17_5 H14_5 1_555 1_555
C18_5 C17_5 1_555 1_555
H15_5 C18_5 1_555 1_555
C19_5 C18_5 1_555 1_555
C20_5 C19_5 1_555 1_555
H16_5 C20_5 1_555 1_555
C21_5 N3_3 1_555 1_555
H17_5 C21_5 1_555 1_555
C22_5 C19_5 1_555 1_555
H18_5 C22_5 1_555 1_555
H19_5 C22_5 1_555 1_555
C23_5 N4_5 1_555 1_555
C24_5 C23_5 1_555 1_555
C25_5 C11_5 1_555 1_555
C26_5 N4_5 1_555 1_555
C27_5 C9_5 1_555 1_555
H20_5 C27_5 1_555 1_555
O6_5 C26_5 1_555 1_555
O7_5 C23_5 1_555 1_555
C28_5 C29_5 1_555 1_555
C29_5 C13_5 1_555 1_555
C30_5 C29_5 1_555 1_555
H21_5 C30_5 1_555 1_555
C31_5 C15_5 1_555 1_555
H22_5 C31_5 1_555 1_555
O8_3 C28_5 1_555 1_555
O9_5 C28_5 1_555 1_555
O10_5 Cu1_3 1_555 1_555
H23_5 O10_5 1_555 1_555
C32_5 O10_5 1_555 1_555
H24_5 C32_5 1_555 1_555
H25_5 C32_5 1_555 1_555
H26_5 C32_5 1_555 1_555
Cu2_2 N3_3 1_555 1_555
Cu3_2 O8_3 1_555 1_555
N5_3 Cu1_3 1_555 1_555
O11_5 Cu1_3 1_555 1_555
C4_5 C5_5 1_555 1_555
C9_5 C10_5 1_555 1_555
C12_5 O3_3 1_555 1_555
C20_5 C21_5 1_555 1_555
C24_5 C25_5 1_555 1_555
C24_5 C27_5 1_555 1_555
C25_5 C26_5 1_555 1_555
C30_5 C31_5 1_555 1_555
N3_4 C17_6 1_555 1_555
N4_6 C22_6 1_555 1_555
C17_6 H14_6 1_555 1_555
C18_6 C17_6 1_555 1_555
H15_6 C18_6 1_555 1_555
C19_6 C18_6 1_555 1_555
C20_6 C19_6 1_555 1_555
H16_6 C20_6 1_555 1_555
C21_6 N3_4 1_555 1_555
H17_6 C21_6 1_555 1_555
C22_6 C19_6 1_555 1_555
H18_6 C22_6 1_555 1_555
H19_6 C22_6 1_555 1_555
C26_6 N4_6 1_555 1_555
O6_6 C26_6 1_555 1_555
Cu3_2 N3_4 1_555 1_555
C20_6 C21_6 1_555 1_555
C25_6 C26_6 1_555 1_555
C8_6 C7_6 1_555 1_555
C11_6 C8_6 1_555 1_555
H7_6 C11_6 1_555 1_555
O2_6 C7_6 1_555 1_555
C28_6 C29_6 1_555 1_555
C30_6 C29_6 1_555 1_555
H21_6 C30_6 1_555 1_555
H22_6 C31_6 1_555 1_555
O8_4 C28_6 1_555 1_555
O9_6 C28_6 1_555 1_555
Cu2_2 O8_4 1_555 1_555
C30_6 C31_6 1_555 1_555
C24_6 C23_6 1_555 1_555
H20_6 C27_6 1_555 1_555
O7_6 C23_6 1_555 1_555
C24_6 C27_6 1_555 1_555
Cu1_4 N1_6 1_555 1_555
N1_6 C1_6 1_555 1_555
N2_6 C6_6 1_555 1_555
C1_6 H1_6 1_555 1_555
C2_6 C1_6 1_555 1_555
H2_6 C2_6 1_555 1_555
C3_6 C2_6 1_555 1_555
C4_6 C3_6 1_555 1_555
H3_6 C4_6 1_555 1_555
C5_6 N1_6 1_555 1_555
H4_6 C5_6 1_555 1_555
C6_6 C3_6 1_555 1_555
H5_6 C6_6 1_555 1_555
H6_6 C6_6 1_555 1_555
C10_6 N2_6 1_555 1_555
C12_6 C13_6 1_555 1_555
C13_6 C14_6 1_555 1_555
C14_6 H8_6 1_555 1_555
C15_6 C14_6 1_555 1_555
H9_6 C15_6 1_555 1_555
O1_6 C10_6 1_555 1_555
O3_4 Cu1_4 1_555 1_555
O4_6 C12_6 1_555 1_555
O5_6 Cu1_4 1_555 1_555
H10_6 O5_6 1_555 1_555
C16_6 O5_6 1_555 1_555
H11_6 C16_6 1_555 1_555
H12_6 C16_6 1_555 1_555
H13_6 C16_6 1_555 1_555
O10_6 Cu1_4 1_555 1_555
H23_6 O10_6 1_555 1_555
C32_6 O10_6 1_555 1_555
H24_6 C32_6 1_555 1_555
H25_6 C32_6 1_555 1_555
H26_6 C32_6 1_555 1_555
N5_4 Cu1_4 1_555 1_555
O11_6 Cu1_4 1_555 1_555
C4_6 C5_6 1_555 1_555
C9_6 C10_6 1_555 1_555
C12_6 O3_4 1_555 1_555
H20_7 C27_7 1_555 1_555
Cu2_2 N1_7 1_555 1_555
N1_7 C1_7 1_555 1_555
C1_7 H1_7 1_555 1_555
C2_7 C1_7 1_555 1_555
C3_7 C2_7 1_555 1_555
C4_7 C3_7 1_555 1_555
H3_7 C4_7 1_555 1_555
C5_7 N1_7 1_555 1_555
H4_7 C5_7 1_555 1_555
O5_7 Cu2_2 1_555 1_555
H10_7 O5_7 1_555 1_555
C16_7 O5_7 1_555 1_555
H11_7 C16_7 1_555 1_555
H12_7 C16_7 1_555 1_555
H13_7 C16_7 1_555 1_555
O10_7 Cu2_2 1_555 1_555
H23_7 O10_7 1_555 1_555
C32_7 O10_7 1_555 1_555
H24_7 C32_7 1_555 1_555
H25_7 C32_7 1_555 1_555
H26_7 C32_7 1_555 1_555
O11_7 Cu2_2 1_555 1_555
C4_7 C5_7 1_555 1_555
N5_3 C17_7 1_555 1_555
C17_7 H14_7 1_555 1_555
C18_7 C17_7 1_555 1_555
C19_7 C18_7 1_555 1_555
C20_7 C19_7 1_555 1_555
H16_7 C20_7 1_555 1_555
C21_7 N5_3 1_555 1_555
H17_7 C21_7 1_555 1_555
C20_7 C21_7 1_555 1_555
H7_7 C11_7 1_555 1_555
Cu3_2 N1_8 1_555 1_555
N1_8 C1_8 1_555 1_555
C1_8 H1_8 1_555 1_555
C2_8 C1_8 1_555 1_555
C3_8 C2_8 1_555 1_555
C4_8 C3_8 1_555 1_555
H3_8 C4_8 1_555 1_555
C5_8 N1_8 1_555 1_555
H4_8 C5_8 1_555 1_555
H7_8 C11_8 1_555 1_555
O5_8 Cu3_2 1_555 1_555
H10_8 O5_8 1_555 1_555
C16_8 O5_8 1_555 1_555
H11_8 C16_8 1_555 1_555
H12_8 C16_8 1_555 1_555
H13_8 C16_8 1_555 1_555
N4_7 C22_7 1_555 1_555
H18_7 C22_7 1_555 1_555
H19_7 C22_7 1_555 1_555
C23_7 N4_7 1_555 1_555
C24_7 C23_7 1_555 1_555
C25_7 C11_8 1_555 1_555
C26_7 N4_7 1_555 1_555
O6_7 C26_7 1_555 1_555
O7_7 C23_7 1_555 1_555
O10_8 Cu3_2 1_555 1_555
H23_8 O10_8 1_555 1_555
C32_8 O10_8 1_555 1_555
H24_8 C32_8 1_555 1_555
H25_8 C32_8 1_555 1_555
H26_8 C32_8 1_555 1_555
O11_8 Cu3_2 1_555 1_555
C4_8 C5_8 1_555 1_555
C24_7 C25_7 1_555 1_555
C25_7 C26_7 1_555 1_555
N2_7 C6_7 1_555 1_555
H5_7 C6_7 1_555 1_555
H6_7 C6_7 1_555 1_555
C7_7 N2_7 1_555 1_555
C8_7 C7_7 1_555 1_555
C9_7 C8_7 1_555 1_555
C10_7 N2_7 1_555 1_555
O1_7 C10_7 1_555 1_555
O2_7 C7_7 1_555 1_555
N5_4 C17_8 1_555 1_555
C17_8 H14_8 1_555 1_555
C18_8 C17_8 1_555 1_555
C19_8 C18_8 1_555 1_555
C20_8 C19_8 1_555 1_555
H16_8 C20_8 1_555 1_555
C21_8 N5_4 1_555 1_555
H17_8 C21_8 1_555 1_555
C27_8 C9_7 1_555 1_555
H20_8 C27_8 1_555 1_555
C9_7 C10_7 1_555 1_555
C20_8 C21_8 1_555 1_555
C12_7 C13_7 1_555 1_555
C13_7 C14_7 1_555 1_555
C14_7 H8_7 1_555 1_555
C15_7 C14_7 1_555 1_555
H9_7 C15_7 1_555 1_555
O4_7 C12_7 1_555 1_555
C28_7 C29_7 1_555 1_555
C29_7 C13_7 1_555 1_555
C30_7 C29_7 1_555 1_555
H21_7 C30_7 1_555 1_555
C31_7 C15_7 1_555 1_555
H22_7 C31_7 1_555 1_555
O11_6 C28_7 1_555 1_555
O9_7 C28_7 1_555 1_555
C12_7 O11_7 1_555 1_555
C30_7 C31_7 1_555 1_555
C12_8 C13_8 1_555 1_555
C13_8 C14_8 1_555 1_555
C14_8 H8_8 1_555 1_555
C15_8 C14_8 1_555 1_555
H9_8 C15_8 1_555 1_555
O4_8 C12_8 1_555 1_555
C12_8 O11_8 1_555 1_555
C28_8 C29_8 1_555 1_555
C30_8 C29_8 1_555 1_555
H21_8 C30_8 1_555 1_555
H22_8 C31_8 1_555 1_555
O11_5 C28_8 1_555 1_555
O9_8 C28_8 1_555 1_555
C30_8 C31_8 1_555 1_555
N2_8 C6_8 1_555 1_555
H5_8 C6_8 1_555 1_555
H6_8 C6_8 1_555 1_555
C10_8 N2_8 1_555 1_555
O1_8 C10_8 1_555 1_555
C9_8 C10_8 1_555 1_555
C24_8 C23_8 1_555 1_555
O7_8 C23_8 1_555 1_555
C8_8 C7_8 1_555 1_555
O2_8 C7_8 1_555 1_555
N4_8 C22_8 1_555 1_555
H18_8 C22_8 1_555 1_555
H19_8 C22_8 1_555 1_555
C26_8 N4_8 1_555 1_555
O6_8 C26_8 1_555 1_555
C25_8 C26_8 1_555 1_555

#END
