
###############################################################################
#
# This file contains modified crystal structure data generated from the
# MOF subset of the Cambridge Structural Database (CSD) v543 
# hosted by the Cambridge Crystallographic Data Centre (CCDC).
#
# This work is licensed under the Creative Commons
# Attribution-NonCommercial-ShareAlike 4.0 International License.
# To view a copy of this license, visit
# http://creativecommons.org/licenses/by-nc-sa/4.0/
# or send a letter to
# Creative Commons, PO Box 1866, Mountain View, CA 94042, USA.
#
# CIF created using the CSD Python API on 29 September 2022
# The structure has been converted into the P1 space group
# The structure has a 3D framework
# The original CSD entry TEWGEJ01 is in the orthorhombic crystal system
# The framework has been calculated to contain at least 10.0% void space
# The void calculation uses a probe of radius 1.32A, grid spacing 0.4
#
###############################################################################

data_TEWGEJ01
_chemical_formula_moiety         '(C256 H208 Cu8 N32 O80)n'
_symmetry_cell_setting           triclinic
_symmetry_space_group_name_H-M   'P 1'
_symmetry_Int_Tables_number      1
_space_group_name_Hall           'P 1'
loop_
_symmetry_equiv_pos_site_id
_symmetry_equiv_pos_as_xyz
1 x,y,z
_cell_length_a                   15.3107(15)
_cell_length_b                   16.7284(19)
_cell_length_c                   27.412(5)
_cell_angle_alpha                90
_cell_angle_beta                 90
_cell_angle_gamma                90
_cell_volume                     7020.86
loop_
_atom_site_label
_atom_site_type_symbol
_atom_site_fract_x
_atom_site_fract_y
_atom_site_fract_z
C8 C 0.0198(3) 0.5295(3) 0.10091(18)
O2 O 0.0789(2) 0.5234(2) 0.12987(13)
C26 C 0.0870(3) 0.4856(3) 0.01836(18)
H20 H 0.1442 0.4762 0.0305
C27 C 0.0196(3) 0.5123(3) 0.04742(17)
C28 C 0.0918(3) 0.2761(3) 0.30851(17)
C29 C 0.0445(3) 0.2607(2) 0.35546(16)
C30 C 0.0875(3) 0.2695(3) 0.39967(18)
H21 H 0.1479 0.2825 0.3999
C31 C 0.0440(3) 0.2596(3) 0.44337(18)
H22 H 0.0743 0.2660 0.4734
O8 O 0.16760(18) 0.24445(17) 0.30490(12)
O9 O 0.05639(19) 0.32022(18) 0.27732(12)
Cu3 Cu 0.2500 0.2500 0.2500
N3 N 0.2010(2) 0.6483(2) 0.77763(14)
N4 N 0.0653(2) 0.4463(2) 0.88764(14)
C17 C 0.2540(3) 0.5890(3) 0.79373(18)
H14 H 0.3154 0.5963 0.7917
C18 C 0.2225(3) 0.5183(3) 0.81292(18)
H15 H 0.2619 0.4783 0.8239
C19 C 0.1332(3) 0.5061(3) 0.81602(16)
C20 C 0.0781(3) 0.5667(3) 0.79918(17)
H16 H 0.0165 0.5603 0.8005
C21 C 0.1139(3) 0.6357(3) 0.78064(17)
H17 H 0.0757 0.6765 0.7694
C22 C 0.0963(3) 0.4306(3) 0.83809(17)
H18 H 0.1419 0.3887 0.8389
H19 H 0.0473 0.4109 0.8178
C23 C 0.1200(3) 0.4474(3) 0.92816(18)
C25 C 0.0643(3) 0.4737(3) 0.97009(17)
O6 O 0.1971(2) 0.4305(2) 0.92798(13)
Cu2 Cu 0.2500 0.7500 0.7500
Cu1 Cu 0.7500 0.2500 0.2500
N1 N 0.7990(2) 0.3517(2) 0.22237(14)
N2 N 0.9347(2) 0.5537(2) 0.11236(14)
C1 C 0.7460(3) 0.4110(3) 0.20627(18)
H1 H 0.6846 0.4037 0.2083
C2 C 0.7775(3) 0.4817(3) 0.18708(18)
H2 H 0.7381 0.5217 0.1761
C3 C 0.8668(3) 0.4939(3) 0.18398(16)
C4 C 0.9219(3) 0.4333(3) 0.20082(17)
H3 H 0.9835 0.4397 0.1995
C5 C 0.8861(3) 0.3643(3) 0.21936(17)
H4 H 0.9243 0.3235 0.2306
C6 C 0.9037(3) 0.5694(3) 0.16191(17)
H5 H 0.8581 0.6113 0.1611
H6 H 0.9527 0.5891 0.1822
C7 C 0.8800(3) 0.5526(3) 0.07184(18)
C9 C 0.9357(3) 0.5263(3) 0.02991(17)
C12 C 0.9082(3) 0.2239(3) 0.30851(17)
C13 C 0.9555(3) 0.2393(2) 0.35546(16)
C14 C 0.9125(3) 0.2305(3) 0.39967(18)
H8 H 0.8521 0.2175 0.3999
C15 C 0.9560(3) 0.2404(3) 0.44337(18)
H9 H 0.9257 0.2340 0.4734
C16 C 0.6329(6) 0.3158(5) 0.3497(3)
H10 H 0.6855 0.3069 0.3693
H11 H 0.5973 0.2670 0.3495
H12 H 0.5989 0.3597 0.3638
O1 O 0.8029(2) 0.5695(2) 0.07202(13)
O3 O 0.83240(18) 0.25555(17) 0.30490(12)
O4 O 0.94361(19) 0.17978(18) 0.27732(12)
O5 O 0.6570(2) 0.3354(2) 0.30168(15)
H13 H 0.6594 0.2935 0.2848
C32 C 0.8671(6) 0.1842(5) 0.1503(3)
H23 H 0.8145 0.1931 0.1307
H24 H 0.9027 0.2330 0.1505
H25 H 0.9011 0.1403 0.1362
O10 O 0.8430(2) 0.1646(2) 0.19832(15)
H26 H 0.8406 0.2065 0.2152
N5 N 0.7010(2) 0.1483(2) 0.27763(14)
O11 O 0.66760(18) 0.24445(17) 0.19510(12)
C10 C 0.9130(3) 0.5144(3) 0.98164(18)
H7 H 0.8558 0.5238 0.9695
C11 C 0.9804(3) 0.4877(3) 0.95258(17)
C24 C 0.9802(3) 0.4705(3) 0.89909(18)
O7 O 0.9211(2) 0.4766(2) 0.87013(13)
Cu1_2 Cu 0.7500 0.7500 0.7500
N1_2 N 0.7010(2) 0.6483(2) 0.72237(14)
N2_2 N 0.5653(2) 0.4463(2) 0.61236(14)
C1_2 C 0.7540(3) 0.5890(3) 0.70627(18)
H1_2 H 0.8154 0.5963 0.7083
C2_2 C 0.7225(3) 0.5183(3) 0.68708(18)
H2_2 H 0.7619 0.4783 0.6761
C3_2 C 0.6332(3) 0.5061(3) 0.68398(16)
C4_2 C 0.5781(3) 0.5667(3) 0.70082(17)
H3_2 H 0.5165 0.5603 0.6995
C5_2 C 0.6139(3) 0.6357(3) 0.71936(17)
H4_2 H 0.5757 0.6765 0.7306
C6_2 C 0.5963(3) 0.4306(3) 0.66191(17)
H5_2 H 0.6419 0.3887 0.6611
H6_2 H 0.5473 0.4109 0.6822
C7_2 C 0.6200(3) 0.4474(3) 0.57184(18)
C8_2 C 0.4802(3) 0.4705(3) 0.60091(18)
C9_2 C 0.5643(3) 0.4737(3) 0.52991(17)
C10_2 C 0.5870(3) 0.4856(3) 0.48164(18)
H7_2 H 0.6442 0.4762 0.4695
C11_2 C 0.5196(3) 0.5123(3) 0.45258(17)
C12_2 C 0.5918(3) 0.7761(3) 0.80851(17)
C13_2 C 0.5445(3) 0.7607(2) 0.85546(16)
C14_2 C 0.5875(3) 0.7695(3) 0.89967(18)
H8_2 H 0.6479 0.7825 0.8999
C15_2 C 0.5440(3) 0.7596(3) 0.94337(18)
H9_2 H 0.5743 0.7660 0.9734
C16_2 C 0.8671(6) 0.6842(5) 0.8497(3)
H10_2 H 0.8145 0.6931 0.8693
H11_2 H 0.9027 0.7330 0.8495
H12_2 H 0.9011 0.6403 0.8638
O1_2 O 0.6971(2) 0.4305(2) 0.57202(13)
O2_2 O 0.4211(2) 0.4766(2) 0.62987(13)
O3_2 O 0.66760(18) 0.74445(17) 0.80490(12)
O4_2 O 0.55639(19) 0.82022(18) 0.77732(12)
O5_2 O 0.8430(2) 0.6646(2) 0.80168(15)
H13_2 H 0.8406 0.7065 0.7848
N3_2 N 0.2990(2) 0.3517(2) 0.27763(14)
N4_2 N 0.4347(2) 0.5537(2) 0.38764(14)
C17_2 C 0.2460(3) 0.4110(3) 0.29373(18)
H14_2 H 0.1846 0.4037 0.2917
C18_2 C 0.2775(3) 0.4817(3) 0.31292(18)
H15_2 H 0.2381 0.5217 0.3239
C19_2 C 0.3668(3) 0.4939(3) 0.31602(16)
C20_2 C 0.4219(3) 0.4333(3) 0.29918(17)
H16_2 H 0.4835 0.4397 0.3005
C21_2 C 0.3861(3) 0.3643(3) 0.28064(17)
H17_2 H 0.4243 0.3235 0.2694
C22_2 C 0.4037(3) 0.5694(3) 0.33809(17)
H18_2 H 0.3581 0.6113 0.3389
H19_2 H 0.4527 0.5891 0.3178
C23_2 C 0.3800(3) 0.5526(3) 0.42816(18)
C24_2 C 0.5198(3) 0.5295(3) 0.39909(18)
C25_2 C 0.4357(3) 0.5263(3) 0.47009(17)
C26_2 C 0.4130(3) 0.5144(3) 0.51836(18)
H20_2 H 0.3558 0.5238 0.5305
C27_2 C 0.4804(3) 0.4877(3) 0.54742(17)
O6_2 O 0.3029(2) 0.5695(2) 0.42798(13)
O7_2 O 0.5789(2) 0.5234(2) 0.37013(13)
C28_2 C 0.4082(3) 0.7239(3) 0.80851(17)
C29_2 C 0.4555(3) 0.7393(2) 0.85546(16)
C30_2 C 0.4125(3) 0.7305(3) 0.89967(18)
H21_2 H 0.3521 0.7175 0.8999
C31_2 C 0.4560(3) 0.7404(3) 0.94337(18)
H22_2 H 0.4257 0.7340 0.9734
O8_2 O 0.33240(18) 0.75555(17) 0.80490(12)
O9_2 O 0.44361(19) 0.67978(18) 0.77732(12)
C32_2 C 0.6329(6) 0.8158(5) 0.6503(3)
H23_2 H 0.6855 0.8069 0.6307
H24_2 H 0.5973 0.7670 0.6505
H25_2 H 0.5989 0.8597 0.6362
O10_2 O 0.6570(2) 0.8354(2) 0.69832(15)
H26_2 H 0.6594 0.7935 0.7152
N5_2 N 0.7990(2) 0.8517(2) 0.77763(14)
O11_2 O 0.83240(18) 0.75555(17) 0.69510(12)
N2_3 N 0.4347(2) 0.0537(2) 0.61236(14)
H2_3 H 0.2381 0.0217 0.6761
C6_3 C 0.4037(3) 0.0694(3) 0.66191(17)
H5_3 H 0.3581 0.1113 0.6611
H6_3 H 0.4527 0.0891 0.6822
C7_3 C 0.3800(3) 0.0526(3) 0.57184(18)
C8_3 C 0.5198(3) 0.0295(3) 0.60091(18)
C9_3 C 0.4357(3) 0.0263(3) 0.52991(17)
C10_3 C 0.4130(3) 0.0144(3) 0.48164(18)
H7_3 H 0.3558 0.0238 0.4695
O1_3 O 0.3029(2) 0.0695(2) 0.57202(13)
O2_3 O 0.5789(2) 0.0234(2) 0.62987(13)
C17_3 C 0.7540(3) 0.0890(3) 0.29373(18)
H14_3 H 0.8154 0.0963 0.2917
C18_3 C 0.7225(3) 0.0183(3) 0.31292(18)
C19_3 C 0.6332(3) 0.0061(3) 0.31602(16)
C20_3 C 0.5781(3) 0.0667(3) 0.29918(17)
H16_3 H 0.5165 0.0603 0.3005
C21_3 C 0.6139(3) 0.1357(3) 0.28064(17)
H17_3 H 0.5757 0.1765 0.2694
C27_3 C 0.5196(3) 0.0123(3) 0.54742(17)
N1_3 N 0.2990(2) 0.8517(2) 0.72237(14)
C1_3 C 0.2460(3) 0.9110(3) 0.70627(18)
H1_3 H 0.1846 0.9037 0.7083
C2_3 C 0.2775(3) 0.9817(3) 0.68708(18)
C3_3 C 0.3668(3) 0.9939(3) 0.68398(16)
C4_3 C 0.4219(3) 0.9333(3) 0.70082(17)
H3_3 H 0.4835 0.9397 0.6995
C5_3 C 0.3861(3) 0.8643(3) 0.71936(17)
H4_3 H 0.4243 0.8235 0.7306
C11_3 C 0.4804(3) 0.9877(3) 0.45258(17)
C16_3 C 0.1329(6) 0.8158(5) 0.8497(3)
H10_3 H 0.1855 0.8069 0.8693
H11_3 H 0.0973 0.7670 0.8495
H12_3 H 0.0989 0.8597 0.8638
O5_3 O 0.1570(2) 0.8354(2) 0.80168(15)
H13_3 H 0.1594 0.7935 0.7848
N4_3 N 0.5653(2) 0.9463(2) 0.38764(14)
H15_3 H 0.7619 0.9783 0.3239
C22_3 C 0.5963(3) 0.9306(3) 0.33809(17)
H18_3 H 0.6419 0.8887 0.3389
H19_3 H 0.5473 0.9109 0.3178
C23_3 C 0.6200(3) 0.9474(3) 0.42816(18)
C24_3 C 0.4802(3) 0.9705(3) 0.39909(18)
C25_3 C 0.5643(3) 0.9737(3) 0.47009(17)
C26_3 C 0.5870(3) 0.9856(3) 0.51836(18)
H20_3 H 0.6442 0.9762 0.5305
O6_3 O 0.6971(2) 0.9305(2) 0.42798(13)
O7_3 O 0.4211(2) 0.9766(2) 0.37013(13)
C32_3 C 0.3671(6) 0.6842(5) 0.6503(3)
H23_3 H 0.3145 0.6931 0.6307
H24_3 H 0.4027 0.7330 0.6505
H25_3 H 0.4011 0.6403 0.6362
O10_3 O 0.3430(2) 0.6646(2) 0.69832(15)
H26_3 H 0.3406 0.7065 0.7152
O11_3 O 0.16760(18) 0.74445(17) 0.69510(12)
N1_4 N 0.2010(2) 0.1483(2) 0.22237(14)
C1_4 C 0.2540(3) 0.0890(3) 0.20627(18)
H1_4 H 0.3154 0.0963 0.2083
C2_4 C 0.2225(3) 0.0183(3) 0.18708(18)
C3_4 C 0.1332(3) 0.0061(3) 0.18398(16)
C4_4 C 0.0781(3) 0.0667(3) 0.20082(17)
H3_4 H 0.0165 0.0603 0.1995
C5_4 C 0.1139(3) 0.1357(3) 0.21936(17)
H4_4 H 0.0757 0.1765 0.2306
C16_4 C 0.3671(6) 0.1842(5) 0.3497(3)
H10_4 H 0.3145 0.1931 0.3693
H11_4 H 0.4027 0.2330 0.3495
H12_4 H 0.4011 0.1403 0.3638
O5_4 O 0.3430(2) 0.1646(2) 0.30168(15)
H13_4 H 0.3406 0.2065 0.2848
C32_4 C 0.1329(6) 0.3158(5) 0.1503(3)
H23_4 H 0.1855 0.3069 0.1307
H24_4 H 0.0973 0.2670 0.1505
H25_4 H 0.0989 0.3597 0.1362
O10_4 O 0.1570(2) 0.3354(2) 0.19832(15)
H26_4 H 0.1594 0.2935 0.2152
O11_4 O 0.33240(18) 0.25555(17) 0.19510(12)
C10_4 C 0.0870(3) 0.9856(3) 0.98164(18)
H7_4 H 0.1442 0.9762 0.9695
C26_4 C 0.9130(3) 0.0144(3) 0.01836(18)
H20_4 H 0.8558 0.0238 0.0305
C17_4 C 0.7460(3) 0.9110(3) 0.79373(18)
H14_4 H 0.6846 0.9037 0.7917
C18_4 C 0.7775(3) 0.9817(3) 0.81292(18)
C19_4 C 0.8668(3) 0.9939(3) 0.81602(16)
C20_4 C 0.9219(3) 0.9333(3) 0.79918(17)
H16_4 H 0.9835 0.9397 0.8005
C21_4 C 0.8861(3) 0.8643(3) 0.78064(17)
H17_4 H 0.9243 0.8235 0.7694
C12_3 C 0.0918(3) 0.7761(3) 0.69149(17)
C13_3 C 0.0445(3) 0.7607(2) 0.64454(16)
C14_3 C 0.0875(3) 0.7695(3) 0.60033(18)
H8_3 H 0.1479 0.7825 0.6001
C15_3 C 0.0440(3) 0.7596(3) 0.55663(18)
H9_3 H 0.0743 0.7660 0.5266
O4_3 O 0.05639(19) 0.82022(18) 0.72268(12)
C28_3 C 0.9082(3) 0.7239(3) 0.69149(17)
C29_3 C 0.9555(3) 0.7393(2) 0.64454(16)
C30_3 C 0.9125(3) 0.7305(3) 0.60033(18)
H21_3 H 0.8521 0.7175 0.6001
C31_3 C 0.9560(3) 0.7404(3) 0.55663(18)
H22_3 H 0.9257 0.7340 0.5266
O9_3 O 0.94361(19) 0.67978(18) 0.72268(12)
C12_4 C 0.4082(3) 0.2239(3) 0.19149(17)
C13_4 C 0.4555(3) 0.2393(2) 0.14454(16)
C14_4 C 0.4125(3) 0.2305(3) 0.10033(18)
H8_4 H 0.3521 0.2175 0.1001
C15_4 C 0.4560(3) 0.2404(3) 0.05663(18)
H9_4 H 0.4257 0.2340 0.0266
O4_4 O 0.44361(19) 0.17978(18) 0.22268(12)
C28_4 C 0.5918(3) 0.2761(3) 0.19149(17)
C29_4 C 0.5445(3) 0.2607(2) 0.14454(16)
C30_4 C 0.5875(3) 0.2695(3) 0.10033(18)
H21_4 H 0.6479 0.2825 0.1001
C31_4 C 0.5440(3) 0.2596(3) 0.05663(18)
H22_4 H 0.5743 0.2660 0.0266
O9_4 O 0.55639(19) 0.32022(18) 0.22268(12)
N2_4 N 0.0653(2) 0.0537(2) 0.38764(14)
H2_4 H 0.2619 0.0217 0.3239
C6_4 C 0.0963(3) 0.0694(3) 0.33809(17)
H5_4 H 0.1419 0.1113 0.3389
H6_4 H 0.0473 0.0891 0.3178
C7_4 C 0.1200(3) 0.0526(3) 0.42816(18)
C9_4 C 0.0643(3) 0.0263(3) 0.47009(17)
C10_5 C 0.0870(3) 0.0144(3) 0.51836(18)
H7_5 H 0.1442 0.0238 0.5305
O1_4 O 0.1971(2) 0.0695(2) 0.42798(13)
Cu1_3 Cu 0.2500 0.7500 0.2500
N1_5 N 0.2010(2) 0.8517(2) 0.27763(14)
C1_5 C 0.2540(3) 0.9110(3) 0.29373(18)
H1_5 H 0.3154 0.9037 0.2917
C2_5 C 0.2225(3) 0.9817(3) 0.31292(18)
C3_5 C 0.1332(3) 0.9939(3) 0.31602(16)
C4_5 C 0.0781(3) 0.9333(3) 0.29918(17)
H3_5 H 0.0165 0.9397 0.3005
C5_5 C 0.1139(3) 0.8643(3) 0.28064(17)
H4_5 H 0.0757 0.8235 0.2694
C11_4 C 0.0196(3) 0.9877(3) 0.54742(17)
C12_5 C 0.0918(3) 0.7239(3) 0.19149(17)
C13_5 C 0.0445(3) 0.7393(2) 0.14454(16)
C14_5 C 0.0875(3) 0.7305(3) 0.10033(18)
H8_5 H 0.1479 0.7175 0.1001
C15_5 C 0.0440(3) 0.7404(3) 0.05663(18)
H9_5 H 0.0743 0.7340 0.0266
C16_5 C 0.3671(6) 0.8158(5) 0.1503(3)
H10_5 H 0.3145 0.8069 0.1307
H11_5 H 0.4027 0.7670 0.1505
H12_5 H 0.4011 0.8597 0.1362
O3_3 O 0.16760(18) 0.75555(17) 0.19510(12)
O4_5 O 0.05639(19) 0.67978(18) 0.22268(12)
O5_5 O 0.3430(2) 0.8354(2) 0.19832(15)
H13_5 H 0.3406 0.7935 0.2152
C24_4 C 0.0198(3) 0.9705(3) 0.60091(18)
O7_4 O 0.0789(2) 0.9766(2) 0.62987(13)
C32_5 C 0.1329(6) 0.6842(5) 0.3497(3)
H23_5 H 0.1855 0.6931 0.3693
H24_5 H 0.0973 0.7330 0.3495
H25_5 H 0.0989 0.6403 0.3638
O10_5 O 0.1570(2) 0.6646(2) 0.30168(15)
H26_5 H 0.1594 0.7065 0.2848
N5_3 N 0.2990(2) 0.6483(2) 0.22237(14)
O11_5 O 0.33240(18) 0.74445(17) 0.30490(12)
C8_4 C 0.9802(3) 0.0295(3) 0.39909(18)
O2_4 O 0.9211(2) 0.0234(2) 0.37013(13)
N3_3 N 0.7990(2) 0.1483(2) 0.72237(14)
C17_5 C 0.7460(3) 0.0890(3) 0.70627(18)
H14_5 H 0.6846 0.0963 0.7083
C18_5 C 0.7775(3) 0.0183(3) 0.68708(18)
C19_5 C 0.8668(3) 0.0061(3) 0.68398(16)
C20_5 C 0.9219(3) 0.0667(3) 0.70082(17)
H16_5 H 0.9835 0.0603 0.6995
C21_5 C 0.8861(3) 0.1357(3) 0.71936(17)
H17_5 H 0.9243 0.1765 0.7306
C27_4 C 0.9804(3) 0.0123(3) 0.45258(17)
Cu2_2 Cu 0.7500 0.2500 0.7500
N4_4 N 0.9347(2) 0.9463(2) 0.61236(14)
H15_4 H 0.7381 0.9783 0.6761
C22_4 C 0.9037(3) 0.9306(3) 0.66191(17)
H18_4 H 0.8581 0.8887 0.6611
H19_4 H 0.9527 0.9109 0.6822
C23_4 C 0.8800(3) 0.9474(3) 0.57184(18)
C25_4 C 0.9357(3) 0.9737(3) 0.52991(17)
C26_5 C 0.9130(3) 0.9856(3) 0.48164(18)
H20_5 H 0.8558 0.9762 0.4695
O6_4 O 0.8029(2) 0.9305(2) 0.57202(13)
C28_5 C 0.9082(3) 0.7761(3) 0.19149(17)
C29_5 C 0.9555(3) 0.7607(2) 0.14454(16)
C30_5 C 0.9125(3) 0.7695(3) 0.10033(18)
H21_5 H 0.8521 0.7825 0.1001
C31_5 C 0.9560(3) 0.7596(3) 0.05663(18)
H22_5 H 0.9257 0.7660 0.0266
O8_3 O 0.83240(18) 0.74445(17) 0.19510(12)
O9_5 O 0.94361(19) 0.82022(18) 0.22268(12)
Cu3_2 Cu 0.7500 0.7500 0.2500
Cu1_4 Cu 0.2500 0.2500 0.7500
N1_6 N 0.2990(2) 0.1483(2) 0.77763(14)
C1_6 C 0.2460(3) 0.0890(3) 0.79373(18)
H1_6 H 0.1846 0.0963 0.7917
C2_6 C 0.2775(3) 0.0183(3) 0.81292(18)
C3_6 C 0.3668(3) 0.0061(3) 0.81602(16)
C4_6 C 0.4219(3) 0.0667(3) 0.79918(17)
H3_6 H 0.4835 0.0603 0.8005
C5_6 C 0.3861(3) 0.1357(3) 0.78064(17)
H4_6 H 0.4243 0.1765 0.7694
C12_6 C 0.4082(3) 0.2761(3) 0.69149(17)
C13_6 C 0.4555(3) 0.2607(2) 0.64454(16)
C14_6 C 0.4125(3) 0.2695(3) 0.60033(18)
H8_6 H 0.3521 0.2825 0.6001
C15_6 C 0.4560(3) 0.2596(3) 0.55663(18)
H9_6 H 0.4257 0.2660 0.5266
C16_6 C 0.1329(6) 0.1842(5) 0.6503(3)
H10_6 H 0.1855 0.1931 0.6307
H11_6 H 0.0973 0.2330 0.6505
H12_6 H 0.0989 0.1403 0.6362
O3_4 O 0.33240(18) 0.24445(17) 0.69510(12)
O4_6 O 0.44361(19) 0.32022(18) 0.72268(12)
O5_6 O 0.1570(2) 0.1646(2) 0.69832(15)
H13_6 H 0.1594 0.2065 0.7152
C26_6 C 0.5870(3) 0.0144(3) 0.98164(18)
H20_6 H 0.6442 0.0238 0.9695
C28_6 C 0.5918(3) 0.2239(3) 0.69149(17)
C29_6 C 0.5445(3) 0.2393(2) 0.64454(16)
C30_6 C 0.5875(3) 0.2305(3) 0.60033(18)
H21_6 H 0.6479 0.2175 0.6001
C31_6 C 0.5440(3) 0.2404(3) 0.55663(18)
H22_6 H 0.5743 0.2340 0.5266
O8_4 O 0.66760(18) 0.25555(17) 0.69510(12)
O9_6 O 0.55639(19) 0.17978(18) 0.72268(12)
C32_6 C 0.3671(6) 0.3158(5) 0.8497(3)
H23_6 H 0.3145 0.3069 0.8693
H24_6 H 0.4027 0.2670 0.8495
H25_6 H 0.4011 0.3597 0.8638
O10_6 O 0.3430(2) 0.3354(2) 0.80168(15)
H26_6 H 0.3406 0.2935 0.7848
N5_4 N 0.2010(2) 0.3517(2) 0.72237(14)
O11_6 O 0.16760(18) 0.25555(17) 0.80490(12)
C10_6 C 0.4130(3) 0.9856(3) 0.01836(18)
H7_6 H 0.3558 0.9762 0.0305
N3_4 N 0.7010(2) 0.8517(2) 0.22237(14)
C17_6 C 0.7540(3) 0.9110(3) 0.20627(18)
H14_6 H 0.8154 0.9037 0.2083
C18_6 C 0.7225(3) 0.9817(3) 0.18708(18)
C19_6 C 0.6332(3) 0.9939(3) 0.18398(16)
C20_6 C 0.5781(3) 0.9333(3) 0.20082(17)
H16_6 H 0.5165 0.9397 0.1995
C21_6 C 0.6139(3) 0.8643(3) 0.21936(17)
H17_6 H 0.5757 0.8235 0.2306
C10_7 C 0.5870(3) 0.5144(3) 0.01836(18)
H7_7 H 0.6442 0.5238 0.0305
C11_5 C 0.5196(3) 0.4877(3) 0.04742(17)
N4_5 N 0.4347(2) 0.4463(2) 0.11236(14)
C17_7 C 0.2460(3) 0.5890(3) 0.20627(18)
H14_7 H 0.1846 0.5963 0.2083
C18_7 C 0.2775(3) 0.5183(3) 0.18708(18)
H15_5 H 0.2381 0.4783 0.1761
C19_7 C 0.3668(3) 0.5061(3) 0.18398(16)
C20_7 C 0.4219(3) 0.5667(3) 0.20082(17)
H16_7 H 0.4835 0.5603 0.1995
C21_7 C 0.3861(3) 0.6357(3) 0.21936(17)
H17_7 H 0.4243 0.6765 0.2306
C22_5 C 0.4037(3) 0.4306(3) 0.16191(17)
H18_5 H 0.3581 0.3887 0.1611
H19_5 H 0.4527 0.4109 0.1822
C23_5 C 0.3800(3) 0.4474(3) 0.07184(18)
C24_5 C 0.5198(3) 0.4705(3) 0.10091(18)
C25_5 C 0.4357(3) 0.4737(3) 0.02991(17)
O6_5 O 0.3029(2) 0.4305(2) 0.07202(13)
O7_5 O 0.5789(2) 0.4766(2) 0.12987(13)
N1_7 N 0.7010(2) 0.3517(2) 0.77763(14)
N2_5 N 0.5653(2) 0.5537(2) 0.88764(14)
C1_7 C 0.7540(3) 0.4110(3) 0.79373(18)
H1_7 H 0.8154 0.4037 0.7917
C2_7 C 0.7225(3) 0.4817(3) 0.81292(18)
H2_5 H 0.7619 0.5217 0.8239
C3_7 C 0.6332(3) 0.4939(3) 0.81602(16)
C4_7 C 0.5781(3) 0.4333(3) 0.79918(17)
H3_7 H 0.5165 0.4397 0.8005
C5_7 C 0.6139(3) 0.3643(3) 0.78064(17)
H4_7 H 0.5757 0.3235 0.7694
C6_5 C 0.5963(3) 0.5694(3) 0.83809(17)
H5_5 H 0.6419 0.6113 0.8389
H6_5 H 0.5473 0.5891 0.8178
C7_5 C 0.6200(3) 0.5526(3) 0.92816(18)
C8_5 C 0.4802(3) 0.5295(3) 0.89909(18)
C9_5 C 0.5643(3) 0.5263(3) 0.97009(17)
C16_7 C 0.8671(6) 0.3158(5) 0.6503(3)
H10_7 H 0.8145 0.3069 0.6307
H11_7 H 0.9027 0.2670 0.6505
H12_7 H 0.9011 0.3597 0.6362
O1_5 O 0.6971(2) 0.5695(2) 0.92798(13)
O2_5 O 0.4211(2) 0.5234(2) 0.87013(13)
O5_7 O 0.8430(2) 0.3354(2) 0.69832(15)
H13_7 H 0.8406 0.2935 0.7152
C26_7 C 0.4130(3) 0.4856(3) 0.98164(18)
H20_7 H 0.3558 0.4762 0.9695
C27_5 C 0.4804(3) 0.5123(3) 0.95258(17)
C32_7 C 0.6329(6) 0.1842(5) 0.8497(3)
H23_7 H 0.6855 0.1931 0.8693
H24_7 H 0.5973 0.2330 0.8495
H25_7 H 0.5989 0.1403 0.8638
O10_7 O 0.6570(2) 0.1646(2) 0.80168(15)
H26_7 H 0.6594 0.2065 0.7848
O11_7 O 0.83240(18) 0.24445(17) 0.80490(12)
C8_6 C 0.0198(3) 0.4705(3) 0.39909(18)
O2_6 O 0.0789(2) 0.4766(2) 0.37013(13)
N4_6 N 0.0653(2) 0.5537(2) 0.61236(14)
C17_8 C 0.2540(3) 0.4110(3) 0.70627(18)
H14_8 H 0.3154 0.4037 0.7083
C18_8 C 0.2225(3) 0.4817(3) 0.68708(18)
H15_6 H 0.2619 0.5217 0.6761
C19_8 C 0.1332(3) 0.4939(3) 0.68398(16)
C20_8 C 0.0781(3) 0.4333(3) 0.70082(17)
H16_8 H 0.0165 0.4397 0.6995
C21_8 C 0.1139(3) 0.3643(3) 0.71936(17)
H17_8 H 0.0757 0.3235 0.7306
C22_6 C 0.0963(3) 0.5694(3) 0.66191(17)
H18_6 H 0.1419 0.6113 0.6611
H19_6 H 0.0473 0.5891 0.6822
C23_6 C 0.1200(3) 0.5526(3) 0.57184(18)
C25_6 C 0.0643(3) 0.5263(3) 0.52991(17)
C26_8 C 0.0870(3) 0.5144(3) 0.48164(18)
H20_8 H 0.1442 0.5238 0.4695
C27_6 C 0.0196(3) 0.4877(3) 0.45258(17)
O6_6 O 0.1971(2) 0.5695(2) 0.57202(13)
N1_8 N 0.7990(2) 0.6483(2) 0.27763(14)
N2_6 N 0.9347(2) 0.4463(2) 0.38764(14)
C1_8 C 0.7460(3) 0.5890(3) 0.29373(18)
H1_8 H 0.6846 0.5963 0.2917
C2_8 C 0.7775(3) 0.5183(3) 0.31292(18)
H2_6 H 0.7381 0.4783 0.3239
C3_8 C 0.8668(3) 0.5061(3) 0.31602(16)
C4_8 C 0.9219(3) 0.5667(3) 0.29918(17)
H3_8 H 0.9835 0.5603 0.3005
C5_8 C 0.8861(3) 0.6357(3) 0.28064(17)
H4_8 H 0.9243 0.6765 0.2694
C6_6 C 0.9037(3) 0.4306(3) 0.33809(17)
H5_6 H 0.8581 0.3887 0.3389
H6_6 H 0.9527 0.4109 0.3178
C7_6 C 0.8800(3) 0.4474(3) 0.42816(18)
C9_6 C 0.9357(3) 0.4737(3) 0.47009(17)
C10_8 C 0.9130(3) 0.4856(3) 0.51836(18)
H7_8 H 0.8558 0.4762 0.5305
C11_6 C 0.9804(3) 0.5123(3) 0.54742(17)
C16_8 C 0.6329(6) 0.6842(5) 0.1503(3)
H10_8 H 0.6855 0.6931 0.1307
H11_8 H 0.5973 0.7330 0.1505
H12_8 H 0.5989 0.6403 0.1362
O1_6 O 0.8029(2) 0.4305(2) 0.42798(13)
O5_8 O 0.6570(2) 0.6646(2) 0.19832(15)
H13_8 H 0.6594 0.7065 0.2152
C24_6 C 0.9802(3) 0.5295(3) 0.60091(18)
O7_6 O 0.9211(2) 0.5234(2) 0.62987(13)
C32_8 C 0.8671(6) 0.8158(5) 0.3497(3)
H23_8 H 0.8145 0.8069 0.3693
H24_8 H 0.9027 0.7670 0.3495
H25_8 H 0.9011 0.8597 0.3638
O10_8 O 0.8430(2) 0.8354(2) 0.30168(15)
H26_8 H 0.8406 0.7935 0.2848
O11_8 O 0.66760(18) 0.75555(17) 0.30490(12)
C28_7 C 0.0918(3) 0.2239(3) 0.80851(17)
C29_7 C 0.0445(3) 0.2393(2) 0.85546(16)
C30_7 C 0.0875(3) 0.2305(3) 0.89967(18)
H21_7 H 0.1479 0.2175 0.8999
C31_7 C 0.0440(3) 0.2404(3) 0.94337(18)
H22_7 H 0.0743 0.2340 0.9734
O9_7 O 0.05639(19) 0.17978(18) 0.77732(12)
C12_7 C 0.9082(3) 0.2761(3) 0.80851(17)
C13_7 C 0.9555(3) 0.2607(2) 0.85546(16)
C14_7 C 0.9125(3) 0.2695(3) 0.89967(18)
H8_7 H 0.8521 0.2825 0.8999
C15_7 C 0.9560(3) 0.2596(3) 0.94337(18)
H9_7 H 0.9257 0.2660 0.9734
O4_7 O 0.94361(19) 0.32022(18) 0.77732(12)
C12_8 C 0.5918(3) 0.7239(3) 0.30851(17)
C13_8 C 0.5445(3) 0.7393(2) 0.35546(16)
C14_8 C 0.5875(3) 0.7305(3) 0.39967(18)
H8_8 H 0.6479 0.7175 0.3999
C15_8 C 0.5440(3) 0.7404(3) 0.44337(18)
H9_8 H 0.5743 0.7340 0.4734
O4_8 O 0.55639(19) 0.67978(18) 0.27732(12)
C28_8 C 0.4082(3) 0.7761(3) 0.30851(17)
C29_8 C 0.4555(3) 0.7607(2) 0.35546(16)
C30_8 C 0.4125(3) 0.7695(3) 0.39967(18)
H21_8 H 0.3521 0.7825 0.3999
C31_8 C 0.4560(3) 0.7596(3) 0.44337(18)
H22_8 H 0.4257 0.7660 0.4734
O9_8 O 0.44361(19) 0.82022(18) 0.27732(12)
C11_7 C 0.4804(3) 0.0123(3) 0.04742(17)
N4_7 N 0.5653(2) 0.0537(2) 0.11236(14)
H15_7 H 0.7619 0.0217 0.1761
C22_7 C 0.5963(3) 0.0694(3) 0.16191(17)
H18_7 H 0.6419 0.1113 0.1611
H19_7 H 0.5473 0.0891 0.1822
C23_7 C 0.6200(3) 0.0526(3) 0.07184(18)
C24_7 C 0.4802(3) 0.0295(3) 0.10091(18)
C25_7 C 0.5643(3) 0.0263(3) 0.02991(17)
O6_7 O 0.6971(2) 0.0695(2) 0.07202(13)
O7_7 O 0.4211(2) 0.0234(2) 0.12987(13)
N2_7 N 0.4347(2) 0.9463(2) 0.88764(14)
H2_7 H 0.2381 0.9783 0.8239
C6_7 C 0.4037(3) 0.9306(3) 0.83809(17)
H5_7 H 0.3581 0.8887 0.8389
H6_7 H 0.4527 0.9109 0.8178
C7_7 C 0.3800(3) 0.9474(3) 0.92816(18)
C8_7 C 0.5198(3) 0.9705(3) 0.89909(18)
C9_7 C 0.4357(3) 0.9737(3) 0.97009(17)
O1_7 O 0.3029(2) 0.9305(2) 0.92798(13)
O2_7 O 0.5789(2) 0.9766(2) 0.87013(13)
C27_7 C 0.5196(3) 0.9877(3) 0.95258(17)
C11_8 C 0.0196(3) 0.0123(3) 0.95258(17)
C24_8 C 0.0198(3) 0.0295(3) 0.89909(18)
O7_8 O 0.0789(2) 0.0234(2) 0.87013(13)
N2_8 N 0.0653(2) 0.9463(2) 0.11236(14)
H2_8 H 0.2619 0.9783 0.1761
C6_8 C 0.0963(3) 0.9306(3) 0.16191(17)
H5_8 H 0.1419 0.8887 0.1611
H6_8 H 0.0473 0.9109 0.1822
C7_8 C 0.1200(3) 0.9474(3) 0.07184(18)
C9_8 C 0.0643(3) 0.9737(3) 0.02991(17)
O1_8 O 0.1971(2) 0.9305(2) 0.07202(13)
N4_8 N 0.9347(2) 0.0537(2) 0.88764(14)
H15_8 H 0.7381 0.0217 0.8239
C22_8 C 0.9037(3) 0.0694(3) 0.83809(17)
H18_8 H 0.8581 0.1113 0.8389
H19_8 H 0.9527 0.0891 0.8178
C23_8 C 0.8800(3) 0.0526(3) 0.92816(18)
C25_8 C 0.9357(3) 0.0263(3) 0.97009(17)
O6_8 O 0.8029(2) 0.0695(2) 0.92798(13)
C8_8 C 0.9802(3) 0.9705(3) 0.10091(18)
O2_8 O 0.9211(2) 0.9766(2) 0.12987(13)
C27_8 C 0.9804(3) 0.9877(3) 0.04742(17)
loop_
_geom_bond_atom_site_label_1
_geom_bond_atom_site_label_2
_geom_bond_site_symmetry_1
_geom_bond_site_symmetry_2
O2 C8 1_555 1_555
H20 C26 1_555 1_555
C27 C8 1_555 1_555
C28 C29 1_555 1_555
C30 C29 1_555 1_555
H21 C30 1_555 1_555
H22 C31 1_555 1_555
O8 C28 1_555 1_555
O9 C28 1_555 1_555
Cu3 O8 1_555 1_555
C26 C27 1_555 1_555
C30 C31 1_555 1_555
N3 C17 1_555 1_555
N4 C22 1_555 1_555
C17 H14 1_555 1_555
C18 C17 1_555 1_555
H15 C18 1_555 1_555
C19 C18 1_555 1_555
C20 C19 1_555 1_555
H16 C20 1_555 1_555
C21 N3 1_555 1_555
H17 C21 1_555 1_555
C22 C19 1_555 1_555
H18 C22 1_555 1_555
H19 C22 1_555 1_555
C23 N4 1_555 1_555
O6 C23 1_555 1_555
Cu2 N3 1_555 1_555
C20 C21 1_555 1_555
C23 C25 1_555 1_555
Cu1 N1 1_555 1_555
N1 C1 1_555 1_555
N2 C6 1_555 1_555
C1 H1 1_555 1_555
C2 C1 1_555 1_555
H2 C2 1_555 1_555
C3 C2 1_555 1_555
C4 C3 1_555 1_555
H3 C4 1_555 1_555
C5 N1 1_555 1_555
H4 C5 1_555 1_555
C6 C3 1_555 1_555
H5 C6 1_555 1_555
H6 C6 1_555 1_555
C7 N2 1_555 1_555
C9 C7 1_555 1_555
C12 C13 1_555 1_555
C13 C14 1_555 1_555
C14 H8 1_555 1_555
C15 C14 1_555 1_555
H9 C15 1_555 1_555
C16 H10 1_555 1_555
H11 C16 1_555 1_555
H12 C16 1_555 1_555
O1 C7 1_555 1_555
O3 Cu1 1_555 1_555
O4 C12 1_555 1_555
O5 Cu1 1_555 1_555
H13 O5 1_555 1_555
C32 H23 1_555 1_555
H24 C32 1_555 1_555
H25 C32 1_555 1_555
O10 Cu1 1_555 1_555
H26 O10 1_555 1_555
N5 Cu1 1_555 1_555
O11 Cu1 1_555 1_555
C4 C5 1_555 1_555
C12 O3 1_555 1_555
C16 O5 1_555 1_555
C32 O10 1_555 1_555
H7 C10 1_555 1_555
C11 C10 1_555 1_555
C24 C11 1_555 1_555
O7 C24 1_555 1_555
Cu1_2 N1_2 1_555 1_555
N1_2 C1_2 1_555 1_555
N2_2 C6_2 1_555 1_555
C1_2 H1_2 1_555 1_555
C2_2 C1_2 1_555 1_555
H2_2 C2_2 1_555 1_555
C3_2 C2_2 1_555 1_555
C4_2 C3_2 1_555 1_555
H3_2 C4_2 1_555 1_555
C5_2 N1_2 1_555 1_555
H4_2 C5_2 1_555 1_555
C6_2 C3_2 1_555 1_555
H5_2 C6_2 1_555 1_555
H6_2 C6_2 1_555 1_555
C7_2 N2_2 1_555 1_555
C8_2 N2_2 1_555 1_555
C9_2 C7_2 1_555 1_555
C10_2 C9_2 1_555 1_555
H7_2 C10_2 1_555 1_555
C11_2 C10_2 1_555 1_555
C12_2 C13_2 1_555 1_555
C13_2 C14_2 1_555 1_555
C14_2 H8_2 1_555 1_555
C15_2 C14_2 1_555 1_555
H9_2 C15_2 1_555 1_555
C16_2 H10_2 1_555 1_555
H11_2 C16_2 1_555 1_555
H12_2 C16_2 1_555 1_555
O1_2 C7_2 1_555 1_555
O2_2 C8_2 1_555 1_555
O3_2 Cu1_2 1_555 1_555
O4_2 C12_2 1_555 1_555
O5_2 Cu1_2 1_555 1_555
H13_2 O5_2 1_555 1_555
N3_2 C17_2 1_555 1_555
N4_2 C22_2 1_555 1_555
C17_2 H14_2 1_555 1_555
C18_2 C17_2 1_555 1_555
H15_2 C18_2 1_555 1_555
C19_2 C18_2 1_555 1_555
C20_2 C19_2 1_555 1_555
H16_2 C20_2 1_555 1_555
C21_2 N3_2 1_555 1_555
H17_2 C21_2 1_555 1_555
C22_2 C19_2 1_555 1_555
H18_2 C22_2 1_555 1_555
H19_2 C22_2 1_555 1_555
C23_2 N4_2 1_555 1_555
C24_2 C11_2 1_555 1_555
C25_2 C11_2 1_555 1_555
C26_2 C25_2 1_555 1_555
H20_2 C26_2 1_555 1_555
C27_2 C8_2 1_555 1_555
O6_2 C23_2 1_555 1_555
O7_2 C24_2 1_555 1_555
C28_2 C29_2 1_555 1_555
C29_2 C13_2 1_555 1_555
C30_2 C29_2 1_555 1_555
H21_2 C30_2 1_555 1_555
C31_2 C15_2 1_555 1_555
H22_2 C31_2 1_555 1_555
O8_2 C28_2 1_555 1_555
O9_2 C28_2 1_555 1_555
C32_2 H23_2 1_555 1_555
H24_2 C32_2 1_555 1_555
H25_2 C32_2 1_555 1_555
O10_2 Cu1_2 1_555 1_555
H26_2 O10_2 1_555 1_555
Cu3 N3_2 1_555 1_555
Cu2 O8_2 1_555 1_555
N5_2 Cu1_2 1_555 1_555
O11_2 Cu1_2 1_555 1_555
C4_2 C5_2 1_555 1_555
C9_2 C27_2 1_555 1_555
C12_2 O3_2 1_555 1_555
C16_2 O5_2 1_555 1_555
N4_2 C24_2 1_555 1_555
C20_2 C21_2 1_555 1_555
C23_2 C25_2 1_555 1_555
C26_2 C27_2 1_555 1_555
C30_2 C31_2 1_555 1_555
C32_2 O10_2 1_555 1_555
N2_3 C6_3 1_555 1_555
H5_3 C6_3 1_555 1_555
H6_3 C6_3 1_555 1_555
C7_3 N2_3 1_555 1_555
C8_3 N2_3 1_555 1_555
C9_3 C7_3 1_555 1_555
C10_3 C9_3 1_555 1_555
H7_3 C10_3 1_555 1_555
O1_3 C7_3 1_555 1_555
O2_3 C8_3 1_555 1_555
N5 C17_3 1_555 1_555
C17_3 H14_3 1_555 1_555
C18_3 C17_3 1_555 1_555
C19_3 C18_3 1_555 1_555
C20_3 C19_3 1_555 1_555
H16_3 C20_3 1_555 1_555
C21_3 N5 1_555 1_555
H17_3 C21_3 1_555 1_555
C27_3 C8_3 1_555 1_555
C9_3 C27_3 1_555 1_555
C20_3 C21_3 1_555 1_555
Cu2 N1_3 1_555 1_555
N1_3 C1_3 1_555 1_555
C1_3 H1_3 1_555 1_555
C2_3 C1_3 1_555 1_555
C3_3 C2_3 1_555 1_555
C4_3 C3_3 1_555 1_555
H3_3 C4_3 1_555 1_555
C5_3 N1_3 1_555 1_555
H4_3 C5_3 1_555 1_555
C16_3 H10_3 1_555 1_555
H11_3 C16_3 1_555 1_555
H12_3 C16_3 1_555 1_555
O5_3 Cu2 1_555 1_555
H13_3 O5_3 1_555 1_555
N4_3 C22_3 1_555 1_555
H18_3 C22_3 1_555 1_555
H19_3 C22_3 1_555 1_555
C23_3 N4_3 1_555 1_555
C24_3 C11_3 1_555 1_555
C25_3 C11_3 1_555 1_555
C26_3 C25_3 1_555 1_555
H20_3 C26_3 1_555 1_555
O6_3 C23_3 1_555 1_555
O7_3 C24_3 1_555 1_555
C32_3 H23_3 1_555 1_555
H24_3 C32_3 1_555 1_555
H25_3 C32_3 1_555 1_555
O10_3 Cu2 1_555 1_555
H26_3 O10_3 1_555 1_555
O11_3 Cu2 1_555 1_555
C4_3 C5_3 1_555 1_555
C16_3 O5_3 1_555 1_555
N4_3 C24_3 1_555 1_555
C23_3 C25_3 1_555 1_555
C32_3 O10_3 1_555 1_555
Cu3 N1_4 1_555 1_555
N1_4 C1_4 1_555 1_555
C1_4 H1_4 1_555 1_555
C2_4 C1_4 1_555 1_555
C3_4 C2_4 1_555 1_555
C4_4 C3_4 1_555 1_555
H3_4 C4_4 1_555 1_555
C5_4 N1_4 1_555 1_555
H4_4 C5_4 1_555 1_555
C16_4 H10_4 1_555 1_555
H11_4 C16_4 1_555 1_555
H12_4 C16_4 1_555 1_555
O5_4 Cu3 1_555 1_555
H13_4 O5_4 1_555 1_555
C32_4 H23_4 1_555 1_555
H24_4 C32_4 1_555 1_555
H25_4 C32_4 1_555 1_555
O10_4 Cu3 1_555 1_555
H26_4 O10_4 1_555 1_555
O11_4 Cu3 1_555 1_555
C4_4 C5_4 1_555 1_555
C16_4 O5_4 1_555 1_555
C32_4 O10_4 1_555 1_555
H7_4 C10_4 1_555 1_555
H20_4 C26_4 1_555 1_555
N5_2 C17_4 1_555 1_555
C17_4 H14_4 1_555 1_555
C18_4 C17_4 1_555 1_555
C19_4 C18_4 1_555 1_555
C20_4 C19_4 1_555 1_555
H16_4 C20_4 1_555 1_555
C21_4 N5_2 1_555 1_555
H17_4 C21_4 1_555 1_555
C20_4 C21_4 1_555 1_555
C12_3 C13_3 1_555 1_555
C13_3 C14_3 1_555 1_555
C14_3 H8_3 1_555 1_555
C15_3 C14_3 1_555 1_555
H9_3 C15_3 1_555 1_555
O4_3 C12_3 1_555 1_555
C12_3 O11_3 1_555 1_555
C28_3 C29_3 1_555 1_555
C30_3 C29_3 1_555 1_555
H21_3 C30_3 1_555 1_555
H22_3 C31_3 1_555 1_555
O11_2 C28_3 1_555 1_555
O9_3 C28_3 1_555 1_555
C30_3 C31_3 1_555 1_555
C12_4 C13_4 1_555 1_555
C13_4 C14_4 1_555 1_555
C14_4 H8_4 1_555 1_555
C15_4 C14_4 1_555 1_555
H9_4 C15_4 1_555 1_555
O4_4 C12_4 1_555 1_555
C28_4 C29_4 1_555 1_555
C29_4 C13_4 1_555 1_555
C30_4 C29_4 1_555 1_555
H21_4 C30_4 1_555 1_555
C31_4 C15_4 1_555 1_555
H22_4 C31_4 1_555 1_555
O11 C28_4 1_555 1_555
O9_4 C28_4 1_555 1_555
C12_4 O11_4 1_555 1_555
C30_4 C31_4 1_555 1_555
N2_4 C6_4 1_555 1_555
H5_4 C6_4 1_555 1_555
H6_4 C6_4 1_555 1_555
C7_4 N2_4 1_555 1_555
C9_4 C7_4 1_555 1_555
C10_5 C9_4 1_555 1_555
H7_5 C10_5 1_555 1_555
O1_4 C7_4 1_555 1_555
Cu1_3 N1_5 1_555 1_555
N1_5 C1_5 1_555 1_555
C1_5 H1_5 1_555 1_555
C2_5 C1_5 1_555 1_555
C3_5 C2_5 1_555 1_555
C4_5 C3_5 1_555 1_555
H3_5 C4_5 1_555 1_555
C5_5 N1_5 1_555 1_555
H4_5 C5_5 1_555 1_555
C12_5 C13_5 1_555 1_555
C13_5 C14_5 1_555 1_555
C14_5 H8_5 1_555 1_555
C15_5 C14_5 1_555 1_555
H9_5 C15_5 1_555 1_555
C16_5 H10_5 1_555 1_555
H11_5 C16_5 1_555 1_555
H12_5 C16_5 1_555 1_555
O3_3 Cu1_3 1_555 1_555
O4_5 C12_5 1_555 1_555
O5_5 Cu1_3 1_555 1_555
H13_5 O5_5 1_555 1_555
C24_4 C11_4 1_555 1_555
O7_4 C24_4 1_555 1_555
C32_5 H23_5 1_555 1_555
H24_5 C32_5 1_555 1_555
H25_5 C32_5 1_555 1_555
O10_5 Cu1_3 1_555 1_555
H26_5 O10_5 1_555 1_555
N5_3 Cu1_3 1_555 1_555
O11_5 Cu1_3 1_555 1_555
C4_5 C5_5 1_555 1_555
C12_5 O3_3 1_555 1_555
C16_5 O5_5 1_555 1_555
C32_5 O10_5 1_555 1_555
O2_4 C8_4 1_555 1_555
N3_3 C17_5 1_555 1_555
C17_5 H14_5 1_555 1_555
C18_5 C17_5 1_555 1_555
C19_5 C18_5 1_555 1_555
C20_5 C19_5 1_555 1_555
H16_5 C20_5 1_555 1_555
C21_5 N3_3 1_555 1_555
H17_5 C21_5 1_555 1_555
C27_4 C8_4 1_555 1_555
Cu2_2 N3_3 1_555 1_555
C20_5 C21_5 1_555 1_555
N4_4 C22_4 1_555 1_555
H18_4 C22_4 1_555 1_555
H19_4 C22_4 1_555 1_555
C23_4 N4_4 1_555 1_555
C26_5 C25_4 1_555 1_555
H20_5 C26_5 1_555 1_555
O6_4 C23_4 1_555 1_555
C28_5 C29_5 1_555 1_555
C30_5 C29_5 1_555 1_555
H21_5 C30_5 1_555 1_555
H22_5 C31_5 1_555 1_555
O8_3 C28_5 1_555 1_555
O9_5 C28_5 1_555 1_555
Cu3_2 O8_3 1_555 1_555
C23_4 C25_4 1_555 1_555
C30_5 C31_5 1_555 1_555
Cu1_4 N1_6 1_555 1_555
N1_6 C1_6 1_555 1_555
C1_6 H1_6 1_555 1_555
C2_6 C1_6 1_555 1_555
C3_6 C2_6 1_555 1_555
C4_6 C3_6 1_555 1_555
H3_6 C4_6 1_555 1_555
C5_6 N1_6 1_555 1_555
H4_6 C5_6 1_555 1_555
C12_6 C13_6 1_555 1_555
C13_6 C14_6 1_555 1_555
C14_6 H8_6 1_555 1_555
C15_6 C14_6 1_555 1_555
H9_6 C15_6 1_555 1_555
C16_6 H10_6 1_555 1_555
H11_6 C16_6 1_555 1_555
H12_6 C16_6 1_555 1_555
O3_4 Cu1_4 1_555 1_555
O4_6 C12_6 1_555 1_555
O5_6 Cu1_4 1_555 1_555
H13_6 O5_6 1_555 1_555
H20_6 C26_6 1_555 1_555
C28_6 C29_6 1_555 1_555
C29_6 C13_6 1_555 1_555
C30_6 C29_6 1_555 1_555
H21_6 C30_6 1_555 1_555
C31_6 C15_6 1_555 1_555
H22_6 C31_6 1_555 1_555
O8_4 C28_6 1_555 1_555
O9_6 C28_6 1_555 1_555
C32_6 H23_6 1_555 1_555
H24_6 C32_6 1_555 1_555
H25_6 C32_6 1_555 1_555
O10_6 Cu1_4 1_555 1_555
H26_6 O10_6 1_555 1_555
Cu2_2 O8_4 1_555 1_555
N5_4 Cu1_4 1_555 1_555
O11_6 Cu1_4 1_555 1_555
C4_6 C5_6 1_555 1_555
C12_6 O3_4 1_555 1_555
C16_6 O5_6 1_555 1_555
C30_6 C31_6 1_555 1_555
C32_6 O10_6 1_555 1_555
H7_6 C10_6 1_555 1_555
N3_4 C17_6 1_555 1_555
C17_6 H14_6 1_555 1_555
C18_6 C17_6 1_555 1_555
C19_6 C18_6 1_555 1_555
C20_6 C19_6 1_555 1_555
H16_6 C20_6 1_555 1_555
C21_6 N3_4 1_555 1_555
H17_6 C21_6 1_555 1_555
Cu3_2 N3_4 1_555 1_555
C20_6 C21_6 1_555 1_555
H7_7 C10_7 1_555 1_555
C11_5 C10_7 1_555 1_555
N5_3 C17_7 1_555 1_555
N4_5 C22_5 1_555 1_555
C17_7 H14_7 1_555 1_555
C18_7 C17_7 1_555 1_555
H15_5 C18_7 1_555 1_555
C19_7 C18_7 1_555 1_555
C20_7 C19_7 1_555 1_555
H16_7 C20_7 1_555 1_555
C21_7 N5_3 1_555 1_555
H17_7 C21_7 1_555 1_555
C22_5 C19_7 1_555 1_555
H18_5 C22_5 1_555 1_555
H19_5 C22_5 1_555 1_555
C23_5 N4_5 1_555 1_555
C24_5 C11_5 1_555 1_555
C25_5 C11_5 1_555 1_555
O6_5 C23_5 1_555 1_555
O7_5 C24_5 1_555 1_555
N4_5 C24_5 1_555 1_555
C20_7 C21_7 1_555 1_555
C23_5 C25_5 1_555 1_555
Cu2_2 N1_7 1_555 1_555
N1_7 C1_7 1_555 1_555
N2_5 C6_5 1_555 1_555
C1_7 H1_7 1_555 1_555
C2_7 C1_7 1_555 1_555
H2_5 C2_7 1_555 1_555
C3_7 C2_7 1_555 1_555
C4_7 C3_7 1_555 1_555
H3_7 C4_7 1_555 1_555
C5_7 N1_7 1_555 1_555
H4_7 C5_7 1_555 1_555
C6_5 C3_7 1_555 1_555
H5_5 C6_5 1_555 1_555
H6_5 C6_5 1_555 1_555
C7_5 N2_5 1_555 1_555
C8_5 N2_5 1_555 1_555
C9_5 C7_5 1_555 1_555
C16_7 H10_7 1_555 1_555
H11_7 C16_7 1_555 1_555
H12_7 C16_7 1_555 1_555
O1_5 C7_5 1_555 1_555
O2_5 C8_5 1_555 1_555
O5_7 Cu2_2 1_555 1_555
H13_7 O5_7 1_555 1_555
H20_7 C26_7 1_555 1_555
C27_5 C8_5 1_555 1_555
C32_7 H23_7 1_555 1_555
H24_7 C32_7 1_555 1_555
H25_7 C32_7 1_555 1_555
O10_7 Cu2_2 1_555 1_555
H26_7 O10_7 1_555 1_555
O11_7 Cu2_2 1_555 1_555
C4_7 C5_7 1_555 1_555
C9_5 C27_5 1_555 1_555
C16_7 O5_7 1_555 1_555
C26_7 C27_5 1_555 1_555
C32_7 O10_7 1_555 1_555
O2_6 C8_6 1_555 1_555
N5_4 C17_8 1_555 1_555
N4_6 C22_6 1_555 1_555
C17_8 H14_8 1_555 1_555
C18_8 C17_8 1_555 1_555
H15_6 C18_8 1_555 1_555
C19_8 C18_8 1_555 1_555
C20_8 C19_8 1_555 1_555
H16_8 C20_8 1_555 1_555
C21_8 N5_4 1_555 1_555
H17_8 C21_8 1_555 1_555
C22_6 C19_8 1_555 1_555
H18_6 C22_6 1_555 1_555
H19_6 C22_6 1_555 1_555
C23_6 N4_6 1_555 1_555
C26_8 C25_6 1_555 1_555
H20_8 C26_8 1_555 1_555
C27_6 C8_6 1_555 1_555
O6_6 C23_6 1_555 1_555
C20_8 C21_8 1_555 1_555
C23_6 C25_6 1_555 1_555
C26_8 C27_6 1_555 1_555
Cu3_2 N1_8 1_555 1_555
N1_8 C1_8 1_555 1_555
N2_6 C6_6 1_555 1_555
C1_8 H1_8 1_555 1_555
C2_8 C1_8 1_555 1_555
H2_6 C2_8 1_555 1_555
C3_8 C2_8 1_555 1_555
C4_8 C3_8 1_555 1_555
H3_8 C4_8 1_555 1_555
C5_8 N1_8 1_555 1_555
H4_8 C5_8 1_555 1_555
C6_6 C3_8 1_555 1_555
H5_6 C6_6 1_555 1_555
H6_6 C6_6 1_555 1_555
C7_6 N2_6 1_555 1_555
C9_6 C7_6 1_555 1_555
C10_8 C9_6 1_555 1_555
H7_8 C10_8 1_555 1_555
C11_6 C10_8 1_555 1_555
C16_8 H10_8 1_555 1_555
H11_8 C16_8 1_555 1_555
H12_8 C16_8 1_555 1_555
O1_6 C7_6 1_555 1_555
O5_8 Cu3_2 1_555 1_555
H13_8 O5_8 1_555 1_555
C24_6 C11_6 1_555 1_555
O7_6 C24_6 1_555 1_555
C32_8 H23_8 1_555 1_555
H24_8 C32_8 1_555 1_555
H25_8 C32_8 1_555 1_555
O10_8 Cu3_2 1_555 1_555
H26_8 O10_8 1_555 1_555
O11_8 Cu3_2 1_555 1_555
C4_8 C5_8 1_555 1_555
C16_8 O5_8 1_555 1_555
C32_8 O10_8 1_555 1_555
C28_7 C29_7 1_555 1_555
C30_7 C29_7 1_555 1_555
H21_7 C30_7 1_555 1_555
H22_7 C31_7 1_555 1_555
O11_6 C28_7 1_555 1_555
O9_7 C28_7 1_555 1_555
C30_7 C31_7 1_555 1_555
C12_7 C13_7 1_555 1_555
C13_7 C14_7 1_555 1_555
C14_7 H8_7 1_555 1_555
C15_7 C14_7 1_555 1_555
H9_7 C15_7 1_555 1_555
O4_7 C12_7 1_555 1_555
C12_7 O11_7 1_555 1_555
C12_8 C13_8 1_555 1_555
C13_8 C14_8 1_555 1_555
C14_8 H8_8 1_555 1_555
C15_8 C14_8 1_555 1_555
H9_8 C15_8 1_555 1_555
O4_8 C12_8 1_555 1_555
C28_8 C29_8 1_555 1_555
C29_8 C13_8 1_555 1_555
C30_8 C29_8 1_555 1_555
H21_8 C30_8 1_555 1_555
C31_8 C15_8 1_555 1_555
H22_8 C31_8 1_555 1_555
O11_5 C28_8 1_555 1_555
O9_8 C28_8 1_555 1_555
C12_8 O11_8 1_555 1_555
C30_8 C31_8 1_555 1_555
N4_7 C22_7 1_555 1_555
H18_7 C22_7 1_555 1_555
H19_7 C22_7 1_555 1_555
C23_7 N4_7 1_555 1_555
C24_7 C11_7 1_555 1_555
C25_7 C11_7 1_555 1_555
O6_7 C23_7 1_555 1_555
O7_7 C24_7 1_555 1_555
N4_7 C24_7 1_555 1_555
C23_7 C25_7 1_555 1_555
N2_7 C6_7 1_555 1_555
H5_7 C6_7 1_555 1_555
H6_7 C6_7 1_555 1_555
C7_7 N2_7 1_555 1_555
C8_7 N2_7 1_555 1_555
C9_7 C7_7 1_555 1_555
O1_7 C7_7 1_555 1_555
O2_7 C8_7 1_555 1_555
C27_7 C8_7 1_555 1_555
C9_7 C27_7 1_555 1_555
C24_8 C11_8 1_555 1_555
O7_8 C24_8 1_555 1_555
N2_8 C6_8 1_555 1_555
H5_8 C6_8 1_555 1_555
H6_8 C6_8 1_555 1_555
C7_8 N2_8 1_555 1_555
C9_8 C7_8 1_555 1_555
O1_8 C7_8 1_555 1_555
N4_8 C22_8 1_555 1_555
H18_8 C22_8 1_555 1_555
H19_8 C22_8 1_555 1_555
C23_8 N4_8 1_555 1_555
O6_8 C23_8 1_555 1_555
C23_8 C25_8 1_555 1_555
O2_8 C8_8 1_555 1_555
C27_8 C8_8 1_555 1_555

#END
