
###############################################################################
#
# This file contains modified crystal structure data generated from the
# MOF subset of the Cambridge Structural Database (CSD) v543 
# hosted by the Cambridge Crystallographic Data Centre (CCDC).
#
# This work is licensed under the Creative Commons
# Attribution-NonCommercial-ShareAlike 4.0 International License.
# To view a copy of this license, visit
# http://creativecommons.org/licenses/by-nc-sa/4.0/
# or send a letter to
# Creative Commons, PO Box 1866, Mountain View, CA 94042, USA.
#
# CIF created using the CSD Python API on 29 September 2022
# The structure has been converted into the P1 space group
# The structure has a 3D framework
# The original CSD entry TEWMUG is in the monoclinic crystal system
# The framework has been calculated to contain at least 10.0% void space
# The void calculation uses a probe of radius 1.32A, grid spacing 0.4
# H atom positions have been added when not included in the experimental data
# Generated hydrogen atom positions removed from atoms on special positions
#
###############################################################################

data_TEWMUG
_chemical_formula_moiety         '(C256 H304 N32 O247 Zr52)n'
_symmetry_cell_setting           triclinic
_symmetry_space_group_name_H-M   'P 1'
_symmetry_Int_Tables_number      1
_space_group_name_Hall           'P 1'
loop_
_symmetry_equiv_pos_site_id
_symmetry_equiv_pos_as_xyz
1 x,y,z
_cell_length_a                   25.4692(11)
_cell_length_b                   36.3589(15)
_cell_length_c                   21.5275(9)
_cell_angle_alpha                90
_cell_angle_beta                 122.260(2)
_cell_angle_gamma                90
_cell_volume                     16857.9
loop_
_atom_site_label
_atom_site_type_symbol
_atom_site_fract_x
_atom_site_fract_y
_atom_site_fract_z
Zr2 Zr 0.51170(7) 0.54859(4) 0.08840(9)
O2 O 0.4544(11) 0.5000 0.0619(14)
O3 O 0.5651(12) 0.5000 0.1126(15)
Zr4 Zr 0.06998(8) 0.54831(5) 0.08640(10)
O4 O 0.1056(14) 0.5000 0.0645(16)
O6 O 0.0423(14) 0.5000 0.1204(18)
O11 O 0.5117(7) 0.6085(4) 0.0841(10)
O12 O 0.5268(8) 0.5440(6) 0.1999(10)
O13 O 0.0619(10) 0.6079(5) 0.0743(12)
O14 O 0.1580(10) 0.5463(7) 0.1924(12)
O28 O 0.1442(7) 0.5673(5) 0.0694(9)
C17 C 0.1657(9) 0.5592(6) 0.0319(12)
C18 C 0.2273(9) 0.5750(6) 0.0532(11)
C19 C 0.2473(11) 0.6044(7) 0.1007(14)
H7 H 0.2217 0.6143 0.1163
C20 C 0.3051(11) 0.6197(7) 0.1257(13)
C21 C 0.3444(11) 0.6043(6) 0.1053(13)
H8 H 0.3845 0.6143 0.1232
C22 C 0.3234(9) 0.5745(6) 0.0588(11)
C23 C 0.2639(9) 0.5609(6) 0.0288(12)
C24 C 0.3660(9) 0.5579(6) 0.0379(12)
O30 O 0.4234(7) 0.5675(4) 0.0788(8)
N3 N 0.3222(12) 0.6478(6) 0.1790(13)
N4 N 0.3746(11) 0.6603(6) 0.2054(13)
O31 O 0.5762(7) 0.7133(4) 0.3678(9)
O32 O 0.5679(5) 0.7593(3) 0.4323(6)
C25 C 0.5450(9) 0.7332(6) 0.3835(12)
C26 C 0.4785(9) 0.7230(6) 0.3501(12)
C27 C 0.4562(11) 0.6983(7) 0.2949(13)
H10 H 0.4813 0.6897 0.2774
C28 C 0.3958(12) 0.6858(8) 0.2643(15)
C29 C 0.3599(10) 0.6967(6) 0.2929(13)
H11 H 0.3195 0.6869 0.2736
C30 C 0.3843(9) 0.7216(5) 0.3490(11)
C31 C 0.4440(9) 0.7357(6) 0.3791(12)
H12 H 0.4607 0.7532 0.4179
C32 C 0.3460(9) 0.7313(6) 0.3814(11)
O33 O 0.3645(6) 0.7590(3) 0.4232(7)
O34 O 0.3007(7) 0.7123(4) 0.3631(8)
Zr11 Zr 0.51170(7) 0.45141(4) 0.08840(9)
Zr12 Zr 0.06998(8) 0.45169(5) 0.08640(10)
O53 O 0.5117(7) 0.3915(4) 0.0841(10)
O54 O 0.5268(8) 0.4560(6) 0.1999(10)
O55 O 0.0619(10) 0.3921(5) 0.0743(12)
O56 O 0.1580(10) 0.4537(7) 0.1924(12)
O58 O 0.1442(7) 0.4327(5) 0.0694(9)
C49 C 0.1657(9) 0.4408(6) 0.0319(12)
C50 C 0.2273(9) 0.4250(6) 0.0532(11)
C51 C 0.2473(11) 0.3956(7) 0.1007(14)
H19 H 0.2217 0.3857 0.1163
C52 C 0.3051(11) 0.3803(7) 0.1257(13)
C53 C 0.3444(11) 0.3957(6) 0.1053(13)
H20 H 0.3845 0.3857 0.1232
C54 C 0.3234(9) 0.4255(6) 0.0588(11)
C55 C 0.2639(9) 0.4391(6) 0.0288(12)
C56 C 0.3660(9) 0.4421(6) 0.0379(12)
O60 O 0.4234(7) 0.4325(4) 0.0788(8)
N7 N 0.3222(12) 0.3522(6) 0.1790(13)
N8 N 0.3746(11) 0.3397(6) 0.2054(13)
O61 O 0.5762(7) 0.2867(4) 0.3678(9)
O62 O 0.5679(5) 0.2407(3) 0.4323(6)
C57 C 0.5450(9) 0.2668(6) 0.3835(12)
C58 C 0.4785(9) 0.2770(6) 0.3501(12)
C59 C 0.4562(11) 0.3017(7) 0.2949(13)
H22 H 0.4813 0.3103 0.2774
C60 C 0.3958(12) 0.3142(8) 0.2643(15)
C61 C 0.3599(10) 0.3033(6) 0.2929(13)
H23 H 0.3195 0.3131 0.2736
C62 C 0.3843(9) 0.2784(5) 0.3490(11)
C63 C 0.4440(9) 0.2643(6) 0.3791(12)
H24 H 0.4607 0.2468 0.4179
C64 C 0.3460(9) 0.2687(6) 0.3814(11)
O63 O 0.3645(6) 0.2410(3) 0.4232(7)
O64 O 0.3007(7) 0.2877(4) 0.3631(8)
Zr14 Zr 0.61232(10) 0.5000 0.05469(12)
O65 O 0.5564(8) 0.5490(5) 0.0282(9)
O66 O 0.5564(8) 0.4510(5) 0.0282(9)
Zr23 Zr 0.67518(7) 0.29282(5) 0.40259(9)
Zr24 Zr 0.67518(7) 0.70718(5) 0.40259(9)
Zr25 Zr 0.23505(8) 0.29467(4) 0.40413(9)
Zr26 Zr 0.23505(8) 0.70533(4) 0.40413(9)
Zr29 Zr 0.33526(7) 0.22078(4) 0.49611(8)
Zr30 Zr 0.66474(7) 0.22078(4) 0.50389(8)
Zr31 Zr 0.66474(7) 0.77922(4) 0.50389(8)
Zr32 Zr 0.33526(7) 0.77922(4) 0.49611(8)
O78 O 0.6102(6) 0.4322(4) 0.1706(8)
O79 O 0.6102(6) 0.5678(4) 0.1706(8)
O83 O 0.0518(8) 0.4319(5) 0.1708(9)
O84 O 0.0518(8) 0.5681(5) 0.1708(9)
Zr1 Zr 0.38768(10) 0.5000 0.94531(12)
O1 O 0.4436(8) 0.5490(5) 0.9718(9)
Zr3 Zr 0.05827(10) 0.5000 0.93809(12)
Zr5 Zr 0.32482(7) 0.29282(5) 0.59741(9)
O5 O 0.0293(7) 0.5484(5) 0.9717(8)
O7 O 0.3175(8) 0.2769(5) 0.4979(9)
O8 O 0.2390(7) 0.3054(5) 0.5017(9)
O9 O 0.2535(7) 0.2637(4) 0.5983(11)
O10 O 0.3353(8) 0.2346(5) 0.5930(11)
O15 O 0.3790(7) 0.2888(5) 0.7168(8)
O16 O 0.3611(9) 0.3461(5) 0.5954(12)
O17 O 0.2762(9) 0.3487(5) 0.4138(12)
O18 O 0.1773(7) 0.2922(5) 0.2845(8)
O19 O 0.3275(6) 0.4636(4) 0.8542(7)
O20 O 0.3898(6) 0.4322(4) 0.8294(8)
C1 C 0.3370(9) 0.4399(5) 0.8186(9)
C2 C 0.2804(10) 0.4200(5) 0.7621(8)
C3 C 0.2219(11) 0.4302(6) 0.7466(11)
H1 H 0.2199 0.4503 0.7736
C4 C 0.1668(16) 0.4137(7) 0.6957(14)
C5 C 0.1725(13) 0.3840(6) 0.6568(12)
H2 H 0.1360 0.3715 0.6207
C6 C 0.2278(10) 0.3728(5) 0.6692(9)
C7 C 0.2829(11) 0.3913(5) 0.7230(9)
H3 H 0.3219 0.3836 0.7318
C8 C 0.2342(9) 0.3414(5) 0.6285(10)
O21 O 0.2874(7) 0.3329(4) 0.6419(8)
O22 O 0.1838(6) 0.3257(3) 0.5808(7)
N1 N 0.1127(16) 0.4274(8) 0.6872(15)
N2 N 0.0594(12) 0.4114(7) 0.6386(13)
O23 O 0.0317(6) 0.4627(4) 0.8448(7)
C11 C 0.0261(12) 0.4232(8) 0.7288(14)
H4 H 0.0560 0.4424 0.7508
C12 C 0.0229(13) 0.4021(8) 0.6719(16)
O27 O 0.1391(5) 0.5366(3) 0.9759(7)
H9 H 0.2483 0.5423 0.9922
O29 O 0.3432(5) 0.5362(3) 0.9856(7)
C41 C 0.0118(9) 0.4391(5) 0.1885(11)
C42 C 0.0139(11) 0.4165(6) 0.2465(12)
C45 C 0.0256(12) 0.3769(7) 0.3653(15)
H17 H 0.0299 0.3637 0.4059
C46 C 0.0681(11) 0.3706(6) 0.3438(13)
C47 C 0.0650(11) 0.3912(5) 0.2872(11)
H18 H 0.0959 0.3886 0.2755
C48 C 0.1166(10) 0.3428(6) 0.3838(12)
O49 O 0.1576(7) 0.3366(4) 0.3667(8)
O50 O 0.1140(6) 0.3255(3) 0.4325(7)
O51 O 0.4436(8) 0.4510(5) 0.9718(9)
O52 O 0.0293(7) 0.4516(5) 0.9717(8)
O57 O 0.1391(5) 0.4634(3) 0.9759(7)
H21 H 0.2483 0.4577 0.9922
O59 O 0.3432(5) 0.4638(3) 0.9856(7)
Zr15 Zr 0.48830(7) 0.54859(4) 0.91160(9)
Zr16 Zr 0.48830(7) 0.45141(4) 0.91160(9)
O67 O 0.4349(12) 0.5000 0.8874(15)
Zr27 Zr 0.26495(8) 0.20533(4) 0.59587(9)
Zr33 Zr 0.16474(7) 0.27922(4) 0.50389(8)
O71 O 0.2610(7) 0.1946(5) 0.4983(9)
O73 O 0.2465(7) 0.2363(4) 0.4017(11)
O75 O 0.1647(8) 0.2654(5) 0.4070(11)
O77 O 0.3275(6) 0.5364(4) 0.8542(7)
O80 O 0.3162(6) 0.1743(3) 0.4192(7)
O82 O 0.0317(6) 0.5373(4) 0.8448(7)
O86 O 0.3860(6) 0.1745(3) 0.5675(7)
O87 O 0.4238(7) 0.2867(4) 0.6322(9)
O89 O 0.4321(5) 0.2407(3) 0.5677(6)
H31 H 0.421359 0.29866 0.736173
H32 H 0.358464 0.303271 0.737121
H39 H 0.330304 0.359317 0.549873
H40 H 0.369379 0.360533 0.638902
Zr19 Zr 0.94173(10) 0.5000 0.06191(12)
O68 O 0.9707(7) 0.5484(5) 0.0283(8)
O69 O 0.9707(7) 0.4516(5) 0.0283(8)
O24 O 0.9482(8) 0.4319(5) 0.8292(9)
C9 C 0.9882(9) 0.4391(5) 0.8115(11)
C10 C 0.9861(11) 0.4165(6) 0.7535(12)
C13 C 0.9744(12) 0.3769(7) 0.6347(15)
H5 H 0.9701 0.3637 0.5941
C14 C 0.9319(11) 0.3706(6) 0.6562(13)
C15 C 0.9350(11) 0.3912(5) 0.7128(11)
H6 H 0.9041 0.3886 0.7245
C16 C 0.8834(10) 0.3428(6) 0.6162(12)
O25 O 0.8424(7) 0.3366(4) 0.6333(8)
O26 O 0.8860(6) 0.3255(3) 0.5675(7)
Zr9 Zr 0.76495(8) 0.29467(4) 0.59587(9)
O35 O 0.6825(8) 0.2769(5) 0.5021(9)
O36 O 0.7610(7) 0.3054(5) 0.4983(9)
O37 O 0.7465(7) 0.2637(4) 0.4017(11)
O38 O 0.6647(8) 0.2346(5) 0.4070(11)
O39 O 0.6210(7) 0.2888(5) 0.2832(8)
O40 O 0.6389(9) 0.3461(5) 0.4046(12)
O41 O 0.7238(9) 0.3487(5) 0.5862(12)
O42 O 0.8227(7) 0.2922(5) 0.7155(8)
O43 O 0.6725(6) 0.4636(4) 0.1458(7)
C33 C 0.6630(9) 0.4399(5) 0.1814(9)
C34 C 0.7196(10) 0.4200(5) 0.2379(8)
C35 C 0.7781(11) 0.4302(6) 0.2534(11)
H13 H 0.7801 0.4503 0.2264
C36 C 0.8332(16) 0.4137(7) 0.3043(14)
C37 C 0.8275(13) 0.3840(6) 0.3432(12)
H14 H 0.8640 0.3715 0.3793
C38 C 0.7722(10) 0.3728(5) 0.3308(9)
C39 C 0.7171(11) 0.3913(5) 0.2770(9)
H15 H 0.6781 0.3836 0.2682
C40 C 0.7658(9) 0.3414(5) 0.3715(10)
O45 O 0.7126(7) 0.3329(4) 0.3581(8)
O46 O 0.8162(6) 0.3257(3) 0.4192(7)
N5 N 0.8873(16) 0.4274(8) 0.3128(15)
N6 N 0.9406(12) 0.4114(7) 0.3614(13)
O47 O 0.9683(6) 0.4627(4) 0.1552(7)
C43 C 0.9739(12) 0.4232(8) 0.2712(14)
H16 H 0.9440 0.4424 0.2492
C44 C 0.9771(13) 0.4021(8) 0.3281(16)
Zr20 Zr 0.93002(8) 0.54831(5) 0.91360(10)
Zr21 Zr 0.93002(8) 0.45169(5) 0.91360(10)
Zr28 Zr 0.73505(8) 0.20533(4) 0.40413(9)
Zr34 Zr 0.83526(7) 0.27922(4) 0.49611(8)
O70 O 0.9577(14) 0.5000 0.8796(18)
O72 O 0.7390(7) 0.1946(5) 0.5017(9)
O74 O 0.7535(7) 0.2363(4) 0.5983(11)
O76 O 0.8353(8) 0.2654(5) 0.5930(11)
O81 O 0.6838(6) 0.1743(3) 0.5808(7)
O85 O 0.6140(6) 0.1745(3) 0.4325(7)
O91 O 0.6355(6) 0.2410(3) 0.5768(7)
O93 O 0.6993(7) 0.2877(4) 0.6369(8)
H49 H 0.578641 0.29866 0.263827
H50 H 0.641536 0.303271 0.262879
H55 H 0.669696 0.359317 0.450127
H56 H 0.630621 0.360533 0.361098
O27_2 O 0.8609(5) 0.5366(3) 0.0241(7)
H9_2 H 0.7517 0.5423 0.0078
O29_2 O 0.6568(5) 0.5362(3) 0.0144(7)
O57_2 O 0.8609(5) 0.4634(3) 0.0241(7)
H21_2 H 0.7517 0.4577 0.0078
O59_2 O 0.6568(5) 0.4638(3) 0.0144(7)
O77_2 O 0.6725(6) 0.5364(4) 0.1458(7)
O82_2 O 0.9683(6) 0.5373(4) 0.1552(7)
O2_2 O 0.5456(11) 0.5000 0.9381(14)
O4_2 O 0.8944(14) 0.5000 0.9355(16)
O11_2 O 0.4883(7) 0.6085(4) 0.9159(10)
O12_2 O 0.4732(8) 0.5440(6) 0.8001(10)
O13_2 O 0.9381(10) 0.6079(5) 0.9257(12)
O14_2 O 0.8420(10) 0.5463(7) 0.8076(12)
O28_2 O 0.8558(7) 0.5673(5) 0.9306(9)
C17_2 C 0.8343(9) 0.5592(6) 0.9681(12)
C18_2 C 0.7727(9) 0.5750(6) 0.9468(11)
C19_2 C 0.7527(11) 0.6044(7) 0.8993(14)
H7_2 H 0.7783 0.6143 0.8837
C20_2 C 0.6949(11) 0.6197(7) 0.8743(13)
C21_2 C 0.6556(11) 0.6043(6) 0.8947(13)
H8_2 H 0.6155 0.6143 0.8768
C22_2 C 0.6766(9) 0.5745(6) 0.9412(11)
C23_2 C 0.7361(9) 0.5609(6) 0.9712(12)
C24_2 C 0.6340(9) 0.5579(6) 0.9621(12)
O30_2 O 0.5766(7) 0.5675(4) 0.9212(8)
N3_2 N 0.6778(12) 0.6478(6) 0.8210(13)
N4_2 N 0.6254(11) 0.6603(6) 0.7946(13)
O31_2 O 0.4238(7) 0.7133(4) 0.6322(9)
O32_2 O 0.4321(5) 0.7593(3) 0.5677(6)
C25_2 C 0.4550(9) 0.7332(6) 0.6165(12)
C26_2 C 0.5215(9) 0.7230(6) 0.6499(12)
C27_2 C 0.5438(11) 0.6983(7) 0.7051(13)
H10_2 H 0.5187 0.6897 0.7226
C28_2 C 0.6042(12) 0.6858(8) 0.7357(15)
C29_2 C 0.6401(10) 0.6967(6) 0.7071(13)
H11_2 H 0.6805 0.6869 0.7264
C30_2 C 0.6157(9) 0.7216(5) 0.6510(11)
C31_2 C 0.5560(9) 0.7357(6) 0.6209(12)
H12_2 H 0.5393 0.7532 0.5821
C32_2 C 0.6540(9) 0.7313(6) 0.6186(11)
O33_2 O 0.6355(6) 0.7590(3) 0.5768(7)
O34_2 O 0.6993(7) 0.7123(4) 0.6369(8)
O53_2 O 0.4883(7) 0.3915(4) 0.9159(10)
O54_2 O 0.4732(8) 0.4560(6) 0.8001(10)
O55_2 O 0.9381(10) 0.3921(5) 0.9257(12)
O56_2 O 0.8420(10) 0.4537(7) 0.8076(12)
O58_2 O 0.8558(7) 0.4327(5) 0.9306(9)
C49_2 C 0.8343(9) 0.4408(6) 0.9681(12)
C50_2 C 0.7727(9) 0.4250(6) 0.9468(11)
C51_2 C 0.7527(11) 0.3956(7) 0.8993(14)
H19_2 H 0.7783 0.3857 0.8837
C52_2 C 0.6949(11) 0.3803(7) 0.8743(13)
C53_2 C 0.6556(11) 0.3957(6) 0.8947(13)
H20_2 H 0.6155 0.3857 0.8768
C54_2 C 0.6766(9) 0.4255(6) 0.9412(11)
C55_2 C 0.7361(9) 0.4391(6) 0.9712(12)
C56_2 C 0.6340(9) 0.4421(6) 0.9621(12)
O60_2 O 0.5766(7) 0.4325(4) 0.9212(8)
N7_2 N 0.6778(12) 0.3522(6) 0.8210(13)
N8_2 N 0.6254(11) 0.3397(6) 0.7946(13)
C57_2 C 0.4550(9) 0.2668(6) 0.6165(12)
C58_2 C 0.5215(9) 0.2770(6) 0.6499(12)
C59_2 C 0.5438(11) 0.3017(7) 0.7051(13)
H22_2 H 0.5187 0.3103 0.7226
C60_2 C 0.6042(12) 0.3142(8) 0.7357(15)
C61_2 C 0.6401(10) 0.3033(6) 0.7071(13)
H23_2 H 0.6805 0.3131 0.7264
C62_2 C 0.6157(9) 0.2784(5) 0.6510(11)
C63_2 C 0.5560(9) 0.2643(6) 0.6209(12)
H24_2 H 0.5393 0.2468 0.5821
C64_2 C 0.6540(9) 0.2687(6) 0.6186(11)
Zr24_2 Zr 0.32482(7) 0.70718(5) 0.59741(9)
Zr26_2 Zr 0.76495(8) 0.70533(4) 0.59587(9)
O79_2 O 0.3898(6) 0.5678(4) 0.8294(8)
O84_2 O 0.9482(8) 0.5681(5) 0.8292(9)
Zr2_2 Zr 0.01170(7) 0.04859(4) 0.08840(9)
O3_2 O 0.0651(12) -0.0000 0.1126(15)
O11_3 O 0.0117(7) 0.1085(4) 0.0841(10)
O12_3 O 0.0268(8) 0.0440(6) 0.1999(10)
O31_3 O 0.0762(7) 0.2133(4) 0.3678(9)
O32_3 O 0.0679(5) 0.2593(3) 0.4323(6)
C25_3 C 0.0450(9) 0.2332(6) 0.3835(12)
Zr14_2 Zr 0.11232(10) 0.0000 0.05469(12)
O65_2 O 0.0564(8) 0.0490(5) 0.0282(9)
Zr24_3 Zr 0.17518(7) 0.20718(5) 0.40259(9)
O79_3 O 0.1102(6) 0.0678(4) 0.1706(8)
H26 H 0.0412508 0.118397 0.133973
O3_3 O 0.0651(12) 1.0000 0.1126(15)
Zr11_2 Zr 0.01170(7) 0.95141(4) 0.08840(9)
O53_3 O 0.0117(7) 0.8915(4) 0.0841(10)
O54_3 O 0.0268(8) 0.9560(6) 0.1999(10)
O61_2 O 0.0762(7) 0.7867(4) 0.3678(9)
O62_2 O 0.0679(5) 0.7407(3) 0.4323(6)
C57_3 C 0.0450(9) 0.7668(6) 0.3835(12)
Zr14_3 Zr 0.11232(10) 1.0000 0.05469(12)
O66_2 O 0.0564(8) 0.9510(5) 0.0282(9)
Zr23_2 Zr 0.17518(7) 0.79282(5) 0.40259(9)
Zr30_2 Zr 0.16474(7) 0.72078(4) 0.50389(8)
O78_2 O 0.1102(6) 0.9322(4) 0.1706(8)
H52 H 0.0549172 0.882522 0.106073
O2_3 O 0.9544(11) 0.0000 0.0619(14)
Zr4_2 Zr 0.56998(8) 0.04831(5) 0.08640(10)
O4_3 O 0.6056(14) 0.0000 0.0645(16)
O6_2 O 0.5423(14) 0.0000 0.1204(18)
O13_3 O 0.5619(10) 0.1079(5) 0.0743(12)
O14_3 O 0.6580(10) 0.0463(7) 0.1924(12)
O28_3 O 0.6442(7) 0.0673(5) 0.0694(9)
C17_3 C 0.6657(9) 0.0592(6) 0.0319(12)
C18_3 C 0.7273(9) 0.0750(6) 0.0532(11)
C19_3 C 0.7473(11) 0.1044(7) 0.1007(14)
H7_3 H 0.7217 0.1143 0.1163
C20_3 C 0.8051(11) 0.1197(7) 0.1257(13)
C21_3 C 0.8444(11) 0.1043(6) 0.1053(13)
H8_3 H 0.8845 0.1143 0.1232
C22_3 C 0.8234(9) 0.0745(6) 0.0588(11)
C23_3 C 0.7639(9) 0.0609(6) 0.0288(12)
C24_3 C 0.8660(9) 0.0579(6) 0.0379(12)
O30_3 O 0.9234(7) 0.0675(4) 0.0788(8)
N3_3 N 0.8222(12) 0.1478(6) 0.1790(13)
N4_3 N 0.8746(11) 0.1603(6) 0.2054(13)
C26_3 C 0.9785(9) 0.2230(6) 0.3501(12)
C27_3 C 0.9562(11) 0.1983(7) 0.2949(13)
H10_3 H 0.9813 0.1897 0.2774
C28_3 C 0.8958(12) 0.1858(8) 0.2643(15)
C29_3 C 0.8599(10) 0.1967(6) 0.2929(13)
H11_3 H 0.8195 0.1869 0.2736
C30_3 C 0.8843(9) 0.2216(5) 0.3490(11)
C31_3 C 0.9440(9) 0.2357(6) 0.3791(12)
H12_3 H 0.9607 0.2532 0.4179
C32_3 C 0.8460(9) 0.2313(6) 0.3814(11)
O33_3 O 0.8645(6) 0.2590(3) 0.4232(7)
O34_3 O 0.8007(7) 0.2123(4) 0.3631(8)
Zr19_2 Zr 0.44173(10) 0.0000 0.06191(12)
O68_2 O 0.4707(7) 0.0484(5) 0.0283(8)
O84_3 O 0.5518(8) 0.0681(5) 0.1708(9)
H25 H 0.969317 0.117838 0.0663306
Zr1_2 Zr 0.88768(10) -0.0000 0.94531(12)
O1_2 O 0.9436(8) 0.0490(5) 0.9718(9)
Zr3_2 Zr 0.55827(10) 0.0000 0.93809(12)
O5_2 O 0.5293(7) 0.0484(5) 0.9717(8)
O27_3 O 0.6391(5) 0.0366(3) 0.9759(7)
H9_3 H 0.7483 0.0423 0.9922
O29_3 O 0.8432(5) 0.0362(3) 0.9856(7)
Zr15_2 Zr 0.98830(7) 0.04859(4) 0.91160(9)
O67_2 O 0.9349(12) 0.0000 0.8874(15)
Zr20_2 Zr 0.43002(8) 0.04831(5) 0.91360(10)
O70_2 O 0.4577(14) 0.0000 0.8796(18)
O77_3 O 0.8275(6) 0.0364(4) 0.8542(7)
O82_3 O 0.5317(6) 0.0373(4) 0.8448(7)
O2_4 O 0.9544(11) 1.0000 0.0619(14)
O4_4 O 0.6056(14) 1.0000 0.0645(16)
O6_3 O 0.5423(14) 1.0000 0.1204(18)
Zr12_2 Zr 0.56998(8) 0.95169(5) 0.08640(10)
O55_3 O 0.5619(10) 0.8921(5) 0.0743(12)
O56_3 O 0.6580(10) 0.9537(7) 0.1924(12)
O58_3 O 0.6442(7) 0.9327(5) 0.0694(9)
C49_3 C 0.6657(9) 0.9408(6) 0.0319(12)
C50_3 C 0.7273(9) 0.9250(6) 0.0532(11)
C51_3 C 0.7473(11) 0.8956(7) 0.1007(14)
H19_3 H 0.7217 0.8857 0.1163
C52_3 C 0.8051(11) 0.8803(7) 0.1257(13)
C53_3 C 0.8444(11) 0.8957(6) 0.1053(13)
H20_3 H 0.8845 0.8857 0.1232
C54_3 C 0.8234(9) 0.9255(6) 0.0588(11)
C55_3 C 0.7639(9) 0.9391(6) 0.0288(12)
C56_3 C 0.8660(9) 0.9421(6) 0.0379(12)
O60_3 O 0.9234(7) 0.9325(4) 0.0788(8)
N7_3 N 0.8222(12) 0.8522(6) 0.1790(13)
N8_3 N 0.8746(11) 0.8397(6) 0.2054(13)
C58_3 C 0.9785(9) 0.7770(6) 0.3501(12)
C59_3 C 0.9562(11) 0.8017(7) 0.2949(13)
H22_3 H 0.9813 0.8103 0.2774
C60_3 C 0.8958(12) 0.8142(8) 0.2643(15)
C61_3 C 0.8599(10) 0.8033(6) 0.2929(13)
H23_3 H 0.8195 0.8131 0.2736
C62_3 C 0.8843(9) 0.7784(5) 0.3490(11)
C63_3 C 0.9440(9) 0.7643(6) 0.3791(12)
H24_3 H 0.9607 0.7468 0.4179
C64_3 C 0.8460(9) 0.7687(6) 0.3814(11)
O63_2 O 0.8645(6) 0.7410(3) 0.4232(7)
O64_2 O 0.8007(7) 0.7877(4) 0.3631(8)
Zr19_3 Zr 0.44173(10) 1.0000 0.06191(12)
Zr25_2 Zr 0.73505(8) 0.79467(4) 0.40413(9)
Zr29_2 Zr 0.83526(7) 0.72078(4) 0.49611(8)
O69_2 O 0.4707(7) 0.9516(5) 0.0283(8)
O83_2 O 0.5518(8) 0.9319(5) 0.1708(9)
H51 H 0.986049 0.883287 0.0321705
H53 H 0.986284 0.95426 0.196131
Zr1_3 Zr 0.88768(10) 1.0000 0.94531(12)
Zr3_3 Zr 0.55827(10) 1.0000 0.93809(12)
Zr5_2 Zr 0.82482(7) 0.79282(5) 0.59741(9)
O7_2 O 0.8175(8) 0.7769(5) 0.4979(9)
O8_2 O 0.7390(7) 0.8054(5) 0.5017(9)
O9_2 O 0.7535(7) 0.7637(4) 0.5983(11)
O10_2 O 0.8353(8) 0.7346(5) 0.5930(11)
O15_2 O 0.8790(7) 0.7888(5) 0.7168(8)
O16_2 O 0.8611(9) 0.8461(5) 0.5954(12)
O17_2 O 0.7762(9) 0.8487(5) 0.4138(12)
O18_2 O 0.6773(7) 0.7922(5) 0.2845(8)
O19_2 O 0.8275(6) 0.9636(4) 0.8542(7)
O20_2 O 0.8898(6) 0.9322(4) 0.8294(8)
C1_2 C 0.8370(9) 0.9399(5) 0.8186(9)
C2_2 C 0.7804(10) 0.9200(5) 0.7621(8)
C3_2 C 0.7219(11) 0.9302(6) 0.7466(11)
H1_2 H 0.7199 0.9503 0.7736
C4_2 C 0.6668(16) 0.9137(7) 0.6957(14)
C5_2 C 0.6725(13) 0.8840(6) 0.6568(12)
H2_2 H 0.6360 0.8715 0.6207
C6_2 C 0.7278(10) 0.8728(5) 0.6692(9)
C7_2 C 0.7829(11) 0.8913(5) 0.7230(9)
H3_2 H 0.8219 0.8836 0.7318
C8_2 C 0.7342(9) 0.8414(5) 0.6285(10)
O21_2 O 0.7874(7) 0.8329(4) 0.6419(8)
O22_2 O 0.6838(6) 0.8257(3) 0.5808(7)
N1_2 N 0.6127(16) 0.9274(8) 0.6872(15)
N2_2 N 0.5594(12) 0.9114(7) 0.6386(13)
O23_2 O 0.5317(6) 0.9627(4) 0.8448(7)
O24_2 O 0.4482(8) 0.9319(5) 0.8292(9)
C9_2 C 0.4882(9) 0.9391(5) 0.8115(11)
C10_2 C 0.4861(11) 0.9165(6) 0.7535(12)
C11_2 C 0.5261(12) 0.9232(8) 0.7288(14)
H4_2 H 0.5560 0.9424 0.7508
C12_2 C 0.5229(13) 0.9021(8) 0.6719(16)
C13_2 C 0.4744(12) 0.8769(7) 0.6347(15)
H5_2 H 0.4701 0.8637 0.5941
C14_2 C 0.4319(11) 0.8706(6) 0.6562(13)
C15_2 C 0.4350(11) 0.8912(5) 0.7128(11)
H6_2 H 0.4041 0.8886 0.7245
C16_2 C 0.3834(10) 0.8428(6) 0.6162(12)
O25_2 O 0.3424(7) 0.8366(4) 0.6333(8)
O26_2 O 0.3860(6) 0.8255(3) 0.5675(7)
Zr9_2 Zr 0.26495(8) 0.79467(4) 0.59587(9)
O35_2 O 0.1825(8) 0.7769(5) 0.5021(9)
O36_2 O 0.2610(7) 0.8054(5) 0.4983(9)
O37_2 O 0.2465(7) 0.7637(4) 0.4017(11)
O38_2 O 0.1647(8) 0.7346(5) 0.4070(11)
O39_2 O 0.1210(7) 0.7888(5) 0.2832(8)
O40_2 O 0.1389(9) 0.8461(5) 0.4046(12)
O41_2 O 0.2238(9) 0.8487(5) 0.5862(12)
O42_2 O 0.3227(7) 0.7922(5) 0.7155(8)
O43_2 O 0.1725(6) 0.9636(4) 0.1458(7)
C33_2 C 0.1630(9) 0.9399(5) 0.1814(9)
C34_2 C 0.2196(10) 0.9200(5) 0.2379(8)
C35_2 C 0.2781(11) 0.9302(6) 0.2534(11)
H13_2 H 0.2801 0.9503 0.2264
C36_2 C 0.3332(16) 0.9137(7) 0.3043(14)
C37_2 C 0.3275(13) 0.8840(6) 0.3432(12)
H14_2 H 0.3640 0.8715 0.3793
C38_2 C 0.2722(10) 0.8728(5) 0.3308(9)
C39_2 C 0.2171(11) 0.8913(5) 0.2770(9)
H15_2 H 0.1781 0.8836 0.2682
C40_2 C 0.2658(9) 0.8414(5) 0.3715(10)
O45_2 O 0.2126(7) 0.8329(4) 0.3581(8)
O46_2 O 0.3162(6) 0.8257(3) 0.4192(7)
N5_2 N 0.3873(16) 0.9274(8) 0.3128(15)
N6_2 N 0.4406(12) 0.9114(7) 0.3614(13)
O47_2 O 0.4683(6) 0.9627(4) 0.1552(7)
C41_2 C 0.5118(9) 0.9391(5) 0.1885(11)
C42_2 C 0.5139(11) 0.9165(6) 0.2465(12)
C43_2 C 0.4739(12) 0.9232(8) 0.2712(14)
H16_2 H 0.4440 0.9424 0.2492
C44_2 C 0.4771(13) 0.9021(8) 0.3281(16)
C45_2 C 0.5256(12) 0.8769(7) 0.3653(15)
H17_2 H 0.5299 0.8637 0.4059
C46_2 C 0.5681(11) 0.8706(6) 0.3438(13)
C47_2 C 0.5650(11) 0.8912(5) 0.2872(11)
H18_2 H 0.5959 0.8886 0.2755
C48_2 C 0.6166(10) 0.8428(6) 0.3838(12)
O49_2 O 0.6576(7) 0.8366(4) 0.3667(8)
O50_2 O 0.6140(6) 0.8255(3) 0.4325(7)
O51_2 O 0.9436(8) 0.9510(5) 0.9718(9)
O52_2 O 0.5293(7) 0.9516(5) 0.9717(8)
O57_3 O 0.6391(5) 0.9634(3) 0.9759(7)
H21_3 H 0.7483 0.9577 0.9922
O59_3 O 0.8432(5) 0.9638(3) 0.9856(7)
Zr16_2 Zr 0.98830(7) 0.95141(4) 0.91160(9)
O67_3 O 0.9349(12) 1.0000 0.8874(15)
Zr21_2 Zr 0.43002(8) 0.95169(5) 0.91360(10)
O70_3 O 0.4577(14) 1.0000 0.8796(18)
O71_2 O 0.7610(7) 0.6946(5) 0.4983(9)
O72_2 O 0.2390(7) 0.6946(5) 0.5017(9)
O73_2 O 0.7465(7) 0.7363(4) 0.4017(11)
O74_2 O 0.2535(7) 0.7363(4) 0.5983(11)
O75_2 O 0.6647(8) 0.7654(5) 0.4070(11)
O76_2 O 0.3353(8) 0.7654(5) 0.5930(11)
O80_2 O 0.8162(6) 0.6743(3) 0.4192(7)
O81_2 O 0.1838(6) 0.6743(3) 0.5808(7)
O85_2 O 0.1140(6) 0.6745(3) 0.4325(7)
O86_2 O 0.8860(6) 0.6745(3) 0.5675(7)
O87_2 O 0.9238(7) 0.7867(4) 0.6322(9)
O89_2 O 0.9321(5) 0.7407(3) 0.5677(6)
O91_2 O 0.1355(6) 0.7410(3) 0.5768(7)
O93_2 O 0.1993(7) 0.7877(4) 0.6369(8)
H31_2 H 0.921359 0.79866 0.736173
H32_2 H 0.858464 0.803271 0.737121
H39_2 H 0.830304 0.859317 0.549873
H40_2 H 0.869379 0.860533 0.638902
H49_2 H 0.078641 0.79866 0.263827
H50_2 H 0.141536 0.803271 0.262879
H55_2 H 0.169696 0.859317 0.450127
H56_2 H 0.130621 0.860533 0.361098
O27_4 O 0.3609(5) 0.0366(3) 0.0241(7)
H9_4 H 0.2517 0.0423 0.0078
O29_4 O 0.1568(5) 0.0362(3) 0.0144(7)
O77_4 O 0.1725(6) 0.0364(4) 0.1458(7)
O82_4 O 0.4683(6) 0.0373(4) 0.1552(7)
O2_5 O 0.0456(11) 0.0000 0.9381(14)
O4_5 O 0.3944(14) 0.0000 0.9355(16)
O13_4 O 0.4381(10) 0.1079(5) 0.9257(12)
O14_4 O 0.3420(10) 0.0463(7) 0.8076(12)
O28_4 O 0.3558(7) 0.0673(5) 0.9306(9)
C17_4 C 0.3343(9) 0.0592(6) 0.9681(12)
C18_4 C 0.2727(9) 0.0750(6) 0.9468(11)
C19_4 C 0.2527(11) 0.1044(7) 0.8993(14)
H7_4 H 0.2783 0.1143 0.8837
C20_4 C 0.1949(11) 0.1197(7) 0.8743(13)
C21_4 C 0.1556(11) 0.1043(6) 0.8947(13)
H8_4 H 0.1155 0.1143 0.8768
C22_4 C 0.1766(9) 0.0745(6) 0.9412(11)
C23_4 C 0.2361(9) 0.0609(6) 0.9712(12)
C24_4 C 0.1340(9) 0.0579(6) 0.9621(12)
O30_4 O 0.0766(7) 0.0675(4) 0.9212(8)
N3_4 N 0.1778(12) 0.1478(6) 0.8210(13)
N4_4 N 0.1254(11) 0.1603(6) 0.7946(13)
C26_4 C 0.0215(9) 0.2230(6) 0.6499(12)
C27_4 C 0.0438(11) 0.1983(7) 0.7051(13)
H10_4 H 0.0187 0.1897 0.7226
C28_4 C 0.1042(12) 0.1858(8) 0.7357(15)
C29_4 C 0.1401(10) 0.1967(6) 0.7071(13)
H11_4 H 0.1805 0.1869 0.7264
C30_4 C 0.1157(9) 0.2216(5) 0.6510(11)
C31_4 C 0.0560(9) 0.2357(6) 0.6209(12)
H12_4 H 0.0393 0.2532 0.5821
C32_4 C 0.1540(9) 0.2313(6) 0.6186(11)
O33_4 O 0.1355(6) 0.2590(3) 0.5768(7)
O34_4 O 0.1993(7) 0.2123(4) 0.6369(8)
O84_4 O 0.4482(8) 0.0681(5) 0.8292(9)
H25_2 H 0.0306833 0.117838 0.933669
O57_4 O 0.3609(5) 0.9634(3) 0.0241(7)
H21_4 H 0.2517 0.9577 0.0078
O59_4 O 0.1568(5) 0.9638(3) 0.0144(7)
O2_6 O 0.0456(11) 1.0000 0.9381(14)
O4_6 O 0.3944(14) 1.0000 0.9355(16)
O55_4 O 0.4381(10) 0.8921(5) 0.9257(12)
O56_4 O 0.3420(10) 0.9537(7) 0.8076(12)
O58_4 O 0.3558(7) 0.9327(5) 0.9306(9)
C49_4 C 0.3343(9) 0.9408(6) 0.9681(12)
C50_4 C 0.2727(9) 0.9250(6) 0.9468(11)
C51_4 C 0.2527(11) 0.8956(7) 0.8993(14)
H19_4 H 0.2783 0.8857 0.8837
C52_4 C 0.1949(11) 0.8803(7) 0.8743(13)
C53_4 C 0.1556(11) 0.8957(6) 0.8947(13)
H20_4 H 0.1155 0.8857 0.8768
C54_4 C 0.1766(9) 0.9255(6) 0.9412(11)
C55_4 C 0.2361(9) 0.9391(6) 0.9712(12)
C56_4 C 0.1340(9) 0.9421(6) 0.9621(12)
O60_4 O 0.0766(7) 0.9325(4) 0.9212(8)
N7_4 N 0.1778(12) 0.8522(6) 0.8210(13)
N8_4 N 0.1254(11) 0.8397(6) 0.7946(13)
C58_4 C 0.0215(9) 0.7770(6) 0.6499(12)
C59_4 C 0.0438(11) 0.8017(7) 0.7051(13)
H22_4 H 0.0187 0.8103 0.7226
C60_4 C 0.1042(12) 0.8142(8) 0.7357(15)
C61_4 C 0.1401(10) 0.8033(6) 0.7071(13)
H23_4 H 0.1805 0.8131 0.7264
C62_4 C 0.1157(9) 0.7784(5) 0.6510(11)
C63_4 C 0.0560(9) 0.7643(6) 0.6209(12)
H24_4 H 0.0393 0.7468 0.5821
C64_4 C 0.1540(9) 0.7687(6) 0.6186(11)
H51_2 H 0.0139509 0.883287 0.967829
H53_2 H 0.0137161 0.95426 0.803869
O11_4 O 0.9883(7) 0.1085(4) 0.9159(10)
O12_4 O 0.9732(8) 0.0440(6) 0.8001(10)
O31_4 O 0.9238(7) 0.2133(4) 0.6322(9)
O32_4 O 0.9321(5) 0.2593(3) 0.5677(6)
C25_4 C 0.9550(9) 0.2332(6) 0.6165(12)
Zr24_4 Zr 0.82482(7) 0.20718(5) 0.59741(9)
O79_4 O 0.8898(6) 0.0678(4) 0.8294(8)
H26_2 H 0.958749 0.118397 0.866027
O53_4 O 0.9883(7) 0.8915(4) 0.9159(10)
O54_4 O 0.9732(8) 0.9560(6) 0.8001(10)
C57_4 C 0.9550(9) 0.7668(6) 0.6165(12)
H52_2 H 0.945083 0.882522 0.893927
C9_3 C 0.0118(9) 0.5609(5) 0.1885(11)
C10_3 C 0.0139(11) 0.5835(6) 0.2465(12)
C13_3 C 0.0256(12) 0.6231(7) 0.3653(15)
H5_3 H 0.0299 0.6363 0.4059
C14_3 C 0.0681(11) 0.6294(6) 0.3438(13)
C15_3 C 0.0650(11) 0.6088(5) 0.2872(11)
H6_3 H 0.0959 0.6114 0.2755
C16_3 C 0.1166(10) 0.6572(6) 0.3838(12)
O25_3 O 0.1576(7) 0.6634(4) 0.3667(8)
O35_3 O 0.3175(8) 0.7231(5) 0.4979(9)
O39_3 O 0.3790(7) 0.7112(5) 0.7168(8)
O40_3 O 0.3611(9) 0.6539(5) 0.5954(12)
O41_3 O 0.2762(9) 0.6513(5) 0.4138(12)
O42_3 O 0.1773(7) 0.7078(5) 0.2845(8)
C33_3 C 0.3370(9) 0.5601(5) 0.8186(9)
C34_3 C 0.2804(10) 0.5800(5) 0.7621(8)
C35_3 C 0.2219(11) 0.5698(6) 0.7466(11)
H13_3 H 0.2199 0.5497 0.7736
C36_3 C 0.1668(16) 0.5863(7) 0.6957(14)
C37_3 C 0.1725(13) 0.6160(6) 0.6568(12)
H14_3 H 0.1360 0.6285 0.6207
C38_3 C 0.2278(10) 0.6272(5) 0.6692(9)
C39_3 C 0.2829(11) 0.6087(5) 0.7230(9)
H15_3 H 0.3219 0.6164 0.7318
C40_3 C 0.2342(9) 0.6586(5) 0.6285(10)
O45_3 O 0.2874(7) 0.6671(4) 0.6419(8)
N5_3 N 0.1127(16) 0.5726(8) 0.6872(15)
N6_3 N 0.0594(12) 0.5886(7) 0.6386(13)
C43_3 C 0.0261(12) 0.5768(8) 0.7288(14)
H16_3 H 0.0560 0.5576 0.7508
C44_3 C 0.0229(13) 0.5979(8) 0.6719(16)
H49_3 H 0.421359 0.70134 0.736173
H50_3 H 0.358464 0.696729 0.737121
H55_3 H 0.330304 0.640683 0.549873
H56_3 H 0.369379 0.639467 0.638902
O7_3 O 0.6825(8) 0.7231(5) 0.5021(9)
O15_3 O 0.6210(7) 0.7112(5) 0.2832(8)
O16_3 O 0.6389(9) 0.6539(5) 0.4046(12)
O17_3 O 0.7238(9) 0.6513(5) 0.5862(12)
O18_3 O 0.8227(7) 0.7078(5) 0.7155(8)
C1_3 C 0.6630(9) 0.5601(5) 0.1814(9)
C2_3 C 0.7196(10) 0.5800(5) 0.2379(8)
C3_3 C 0.7781(11) 0.5698(6) 0.2534(11)
H1_3 H 0.7801 0.5497 0.2264
C4_3 C 0.8332(16) 0.5863(7) 0.3043(14)
C5_3 C 0.8275(13) 0.6160(6) 0.3432(12)
H2_3 H 0.8640 0.6285 0.3793
C6_3 C 0.7722(10) 0.6272(5) 0.3308(9)
C7_3 C 0.7171(11) 0.6087(5) 0.2770(9)
H3_3 H 0.6781 0.6164 0.2682
C8_3 C 0.7658(9) 0.6586(5) 0.3715(10)
O21_3 O 0.7126(7) 0.6671(4) 0.3581(8)
N1_3 N 0.8873(16) 0.5726(8) 0.3128(15)
N2_3 N 0.9406(12) 0.5886(7) 0.3614(13)
C11_3 C 0.9739(12) 0.5768(8) 0.2712(14)
H4_3 H 0.9440 0.5576 0.2492
C12_3 C 0.9771(13) 0.5979(8) 0.3281(16)
C41_3 C 0.9882(9) 0.5609(5) 0.8115(11)
C42_3 C 0.9861(11) 0.5835(6) 0.7535(12)
C45_3 C 0.9744(12) 0.6231(7) 0.6347(15)
H17_3 H 0.9701 0.6363 0.5941
C46_3 C 0.9319(11) 0.6294(6) 0.6562(13)
C47_3 C 0.9350(11) 0.6088(5) 0.7128(11)
H18_3 H 0.9041 0.6114 0.7245
C48_3 C 0.8834(10) 0.6572(6) 0.6162(12)
O49_3 O 0.8424(7) 0.6634(4) 0.6333(8)
H31_3 H 0.578641 0.70134 0.263827
H32_3 H 0.641536 0.696729 0.262879
H39_3 H 0.669696 0.640683 0.450127
H40_3 H 0.630621 0.639467 0.361098
O7_4 O 0.1825(8) 0.2231(5) 0.5021(9)
O15_4 O 0.1210(7) 0.2112(5) 0.2832(8)
O16_4 O 0.1389(9) 0.1539(5) 0.4046(12)
O17_4 O 0.2238(9) 0.1513(5) 0.5862(12)
O18_4 O 0.3227(7) 0.2078(5) 0.7155(8)
C1_4 C 0.1630(9) 0.0601(5) 0.1814(9)
C2_4 C 0.2196(10) 0.0800(5) 0.2379(8)
C3_4 C 0.2781(11) 0.0698(6) 0.2534(11)
H1_4 H 0.2801 0.0497 0.2264
C4_4 C 0.3332(16) 0.0863(7) 0.3043(14)
C5_4 C 0.3275(13) 0.1160(6) 0.3432(12)
H2_4 H 0.3640 0.1285 0.3793
C6_4 C 0.2722(10) 0.1272(5) 0.3308(9)
C7_4 C 0.2171(11) 0.1087(5) 0.2770(9)
H3_4 H 0.1781 0.1164 0.2682
C8_4 C 0.2658(9) 0.1586(5) 0.3715(10)
O21_4 O 0.2126(7) 0.1671(4) 0.3581(8)
N1_4 N 0.3873(16) 0.0726(8) 0.3128(15)
N2_4 N 0.4406(12) 0.0886(7) 0.3614(13)
C9_4 C 0.5118(9) 0.0609(5) 0.1885(11)
C10_4 C 0.5139(11) 0.0835(6) 0.2465(12)
C11_4 C 0.4739(12) 0.0768(8) 0.2712(14)
H4_4 H 0.4440 0.0576 0.2492
C12_4 C 0.4771(13) 0.0979(8) 0.3281(16)
C13_4 C 0.5256(12) 0.1231(7) 0.3653(15)
H5_4 H 0.5299 0.1363 0.4059
C14_4 C 0.5681(11) 0.1294(6) 0.3438(13)
C15_4 C 0.5650(11) 0.1088(5) 0.2872(11)
H6_4 H 0.5959 0.1114 0.2755
C16_4 C 0.6166(10) 0.1572(6) 0.3838(12)
O25_4 O 0.6576(7) 0.1634(4) 0.3667(8)
O35_4 O 0.8175(8) 0.2231(5) 0.4979(9)
O39_4 O 0.8790(7) 0.2112(5) 0.7168(8)
O40_4 O 0.8611(9) 0.1539(5) 0.5954(12)
O41_4 O 0.7762(9) 0.1513(5) 0.4138(12)
O42_4 O 0.6773(7) 0.2078(5) 0.2845(8)
C33_4 C 0.8370(9) 0.0601(5) 0.8186(9)
C34_4 C 0.7804(10) 0.0800(5) 0.7621(8)
C35_4 C 0.7219(11) 0.0698(6) 0.7466(11)
H13_4 H 0.7199 0.0497 0.7736
C36_4 C 0.6668(16) 0.0863(7) 0.6957(14)
C37_4 C 0.6725(13) 0.1160(6) 0.6568(12)
H14_4 H 0.6360 0.1285 0.6207
C38_4 C 0.7278(10) 0.1272(5) 0.6692(9)
C39_4 C 0.7829(11) 0.1087(5) 0.7230(9)
H15_4 H 0.8219 0.1164 0.7318
C40_4 C 0.7342(9) 0.1586(5) 0.6285(10)
O45_4 O 0.7874(7) 0.1671(4) 0.6419(8)
N5_4 N 0.6127(16) 0.0726(8) 0.6872(15)
N6_4 N 0.5594(12) 0.0886(7) 0.6386(13)
C41_4 C 0.4882(9) 0.0609(5) 0.8115(11)
C42_4 C 0.4861(11) 0.0835(6) 0.7535(12)
C43_4 C 0.5261(12) 0.0768(8) 0.7288(14)
H16_4 H 0.5560 0.0576 0.7508
C44_4 C 0.5229(13) 0.0979(8) 0.6719(16)
C45_4 C 0.4744(12) 0.1231(7) 0.6347(15)
H17_4 H 0.4701 0.1363 0.5941
C46_4 C 0.4319(11) 0.1294(6) 0.6562(13)
C47_4 C 0.4350(11) 0.1088(5) 0.7128(11)
H18_4 H 0.4041 0.1114 0.7245
C48_4 C 0.3834(10) 0.1572(6) 0.6162(12)
O49_4 O 0.3424(7) 0.1634(4) 0.6333(8)
H31_4 H 0.078641 0.20134 0.263827
H32_4 H 0.141536 0.196729 0.262879
H39_4 H 0.169696 0.140683 0.450127
H40_4 H 0.130621 0.139467 0.361098
H49_4 H 0.921359 0.20134 0.736173
H50_4 H 0.858464 0.196729 0.737121
H55_4 H 0.830304 0.140683 0.549873
H56_4 H 0.869379 0.139467 0.638902
H51_3 H 0.0139509 0.116713 0.967829
H53_3 H 0.0137161 0.0457405 0.803869
H25_3 H 0.0306833 0.882162 0.933669
H52_3 H 0.945083 0.117478 0.893927
H26_3 H 0.958749 0.881603 0.866027
H52_4 H 0.0549172 0.117478 0.106073
H26_4 H 0.0412508 0.881603 0.133973
H51_4 H 0.986049 0.116713 0.0321705
H53_4 H 0.986284 0.0457405 0.196131
H25_4 H 0.969317 0.882162 0.0663306
loop_
_geom_bond_atom_site_label_1
_geom_bond_atom_site_label_2
_geom_bond_site_symmetry_1
_geom_bond_site_symmetry_2
O3 Zr2 1_555 1_555
Zr4 O4 1_555 1_555
O4 Zr12 1_555 1_555
O6 Zr4 1_555 1_555
O11 Zr2 1_555 1_555
O12 Zr2 1_555 1_555
O13 Zr4 1_555 1_555
O14 Zr4 1_555 1_555
O28 Zr4 1_555 1_555
C18 C17 1_555 1_555
C19 C18 1_555 1_555
H7 C19 1_555 1_555
C20 C19 1_555 1_555
C21 C20 1_555 1_555
H8 C21 1_555 1_555
C22 C21 1_555 1_555
C23 C18 1_555 1_555
C24 C22 1_555 1_555
O30 Zr2 1_555 1_555
N3 C20 1_555 1_555
N4 N3 1_555 1_555
O31 C25 1_555 1_555
O32 C25 1_555 1_555
C25 C26 1_555 1_555
C26 C27 1_555 1_555
C27 H10 1_555 1_555
C28 N4 1_555 1_555
C29 C28 1_555 1_555
H11 C29 1_555 1_555
C30 C29 1_555 1_555
C31 C26 1_555 1_555
H12 C31 1_555 1_555
C32 C30 1_555 1_555
O33 C32 1_555 1_555
O34 C32 1_555 1_555
Zr11 O2 1_555 1_555
Zr12 O6 1_555 1_555
O53 Zr11 1_555 1_555
O54 Zr11 1_555 1_555
O55 Zr12 1_555 1_555
O56 Zr12 1_555 1_555
O58 Zr12 1_555 1_555
C50 C49 1_555 1_555
C51 C50 1_555 1_555
H19 C51 1_555 1_555
C52 C51 1_555 1_555
C53 C52 1_555 1_555
H20 C53 1_555 1_555
C54 C53 1_555 1_555
C55 C50 1_555 1_555
C56 C54 1_555 1_555
O60 Zr11 1_555 1_555
N7 C52 1_555 1_555
N8 N7 1_555 1_555
O61 C57 1_555 1_555
O62 C57 1_555 1_555
C57 C58 1_555 1_555
C58 C59 1_555 1_555
C59 H22 1_555 1_555
C60 N8 1_555 1_555
C61 C60 1_555 1_555
H23 C61 1_555 1_555
C62 C61 1_555 1_555
C63 C58 1_555 1_555
H24 C63 1_555 1_555
C64 C62 1_555 1_555
O63 C64 1_555 1_555
O64 C64 1_555 1_555
Zr14 O3 1_555 1_555
O65 Zr2 1_555 1_555
O66 Zr11 1_555 1_555
Zr23 O61 1_555 1_555
Zr24 O31 1_555 1_555
Zr25 O64 1_555 1_555
Zr26 O34 1_555 1_555
Zr29 O63 1_555 1_555
Zr30 O62 1_555 1_555
Zr31 O32 1_555 1_555
Zr32 O33 1_555 1_555
O78 Zr11 1_555 1_555
O79 Zr2 1_555 1_555
O83 Zr12 1_555 1_555
O84 Zr4 1_555 1_555
Zr2 O2 1_555 1_555
O3 Zr11 1_555 1_555
O28 C17 1_555 1_555
C22 C23 1_555 1_555
C24 O30 1_555 1_555
C27 C28 1_555 1_555
C30 C31 1_555 1_555
O58 C49 1_555 1_555
C54 C55 1_555 1_555
C56 O60 1_555 1_555
C59 C60 1_555 1_555
C62 C63 1_555 1_555
Zr14 O65 1_555 1_555
Zr14 O66 1_555 1_555
Zr1 O1 1_555 1_555
O1 Zr15 1_555 1_555
Zr5 O7 1_555 1_555
Zr25 O7 1_555 1_555
Zr29 O7 1_555 1_555
O5 Zr3 1_555 1_555
O8 Zr5 1_555 1_555
O9 Zr5 1_555 1_555
O10 Zr5 1_555 1_555
O15 Zr5 1_555 1_555
O16 Zr5 1_555 1_555
O17 Zr25 1_555 1_555
O18 Zr25 1_555 1_555
O19 Zr1 1_555 1_555
O20 C1 1_555 1_555
C1 O19 1_555 1_555
C2 C1 1_555 1_555
C3 C2 1_555 1_555
H1 C3 1_555 1_555
C4 C3 1_555 1_555
C5 C4 1_555 1_555
H2 C5 1_555 1_555
C6 C5 1_555 1_555
C7 C2 1_555 1_555
H3 C7 1_555 1_555
C8 C6 1_555 1_555
O21 Zr5 1_555 1_555
O22 C8 1_555 1_555
N1 C4 1_555 1_555
N2 N1 1_555 1_555
O23 Zr3 1_555 1_555
H4 C11 1_555 1_555
C12 N2 1_555 1_555
O27 Zr3 1_555 1_555
O29 Zr1 1_555 1_555
O83 C41 1_555 1_555
C41 C42 1_555 1_555
H17 C45 1_555 1_555
C46 C45 1_555 1_555
C47 C42 1_555 1_555
H18 C47 1_555 1_555
C48 C46 1_555 1_555
O49 Zr25 1_555 1_555
O50 C48 1_555 1_555
O51 Zr1 1_555 1_555
O52 Zr3 1_555 1_555
O57 Zr3 1_555 1_555
O59 Zr1 1_555 1_555
Zr16 O20 1_555 1_555
O67 Zr1 1_555 1_555
Zr27 O9 1_555 1_555
Zr33 O8 1_555 1_555
O71 Zr29 1_555 1_555
O73 Zr25 1_555 1_555
O75 Zr25 1_555 1_555
O77 Zr1 1_555 1_555
O80 Zr29 1_555 1_555
O82 Zr3 1_555 1_555
O86 Zr29 1_555 1_555
O87 Zr5 1_555 1_555
O89 Zr29 1_555 1_555
Zr25 O8 1_555 1_555
Zr29 O10 1_555 1_555
Zr29 O73 1_555 1_555
O9 Zr33 1_555 1_555
O10 Zr27 1_555 1_555
C6 C7 1_555 1_555
C8 O21 1_555 1_555
O22 Zr33 1_555 1_555
C11 C12 1_555 1_555
C46 C47 1_555 1_555
C48 O49 1_555 1_555
O50 Zr33 1_555 1_555
O51 Zr16 1_555 1_555
Zr15 O67 1_555 1_555
Zr16 O67 1_555 1_555
Zr27 O71 1_555 1_555
Zr33 O75 1_555 1_555
O15 H31 1_555 1_555
O15 H32 1_555 1_555
O16 H39 1_555 1_555
O16 H40 1_555 1_555
Zr19 O68 1_555 1_555
Zr19 O69 1_555 1_555
O24 C9 1_555 1_555
C10 C9 1_555 1_555
H5 C13 1_555 1_555
C14 C13 1_555 1_555
C15 C10 1_555 1_555
H6 C15 1_555 1_555
C16 C14 1_555 1_555
O25 C16 1_555 1_555
O26 C16 1_555 1_555
Zr23 O35 1_555 1_555
Zr9 O25 1_555 1_555
Zr30 O35 1_555 1_555
O35 Zr9 1_555 1_555
O36 Zr23 1_555 1_555
O37 Zr23 1_555 1_555
O38 Zr23 1_555 1_555
O39 Zr23 1_555 1_555
O40 Zr23 1_555 1_555
O41 Zr9 1_555 1_555
O42 Zr9 1_555 1_555
O43 C33 1_555 1_555
O78 C33 1_555 1_555
C33 C34 1_555 1_555
C34 C35 1_555 1_555
C35 H13 1_555 1_555
C36 C35 1_555 1_555
C37 C36 1_555 1_555
H14 C37 1_555 1_555
C38 C37 1_555 1_555
C39 C34 1_555 1_555
H15 C39 1_555 1_555
C40 C38 1_555 1_555
O45 Zr23 1_555 1_555
O46 C40 1_555 1_555
N5 C36 1_555 1_555
N6 N5 1_555 1_555
C43 H16 1_555 1_555
C44 N6 1_555 1_555
Zr14 O43 1_555 1_555
Zr19 O47 1_555 1_555
Zr21 O24 1_555 1_555
Zr28 O37 1_555 1_555
Zr34 O26 1_555 1_555
O72 Zr30 1_555 1_555
O74 Zr9 1_555 1_555
O76 Zr9 1_555 1_555
O81 Zr30 1_555 1_555
O85 Zr30 1_555 1_555
O91 Zr30 1_555 1_555
O93 Zr9 1_555 1_555
C14 C15 1_555 1_555
Zr9 O36 1_555 1_555
Zr30 O38 1_555 1_555
Zr30 O74 1_555 1_555
O36 Zr34 1_555 1_555
O37 Zr34 1_555 1_555
O38 Zr28 1_555 1_555
C38 C39 1_555 1_555
C40 O45 1_555 1_555
O46 Zr34 1_555 1_555
C43 C44 1_555 1_555
Zr20 O70 1_555 1_555
Zr21 O70 1_555 1_555
Zr28 O72 1_555 1_555
Zr34 O76 1_555 1_555
O39 H49 1_555 1_555
O39 H50 1_555 1_555
O40 H55 1_555 1_555
O40 H56 1_555 1_555
O27_2 Zr19 1_555 1_555
O29_2 Zr14 1_555 1_555
O57_2 Zr19 1_555 1_555
O59_2 Zr14 1_555 1_555
O77_2 Zr14 1_555 1_555
O82_2 Zr19 1_555 1_555
Zr20 O4_2 1_555 1_555
O4_2 Zr21 1_555 1_555
O11_2 Zr15 1_555 1_555
O12_2 Zr15 1_555 1_555
O13_2 Zr20 1_555 1_555
O14_2 Zr20 1_555 1_555
O28_2 Zr20 1_555 1_555
C18_2 C17_2 1_555 1_555
C19_2 C18_2 1_555 1_555
H7_2 C19_2 1_555 1_555
C20_2 C19_2 1_555 1_555
C21_2 C20_2 1_555 1_555
H8_2 C21_2 1_555 1_555
C22_2 C21_2 1_555 1_555
C23_2 C18_2 1_555 1_555
C24_2 C22_2 1_555 1_555
O30_2 Zr15 1_555 1_555
N3_2 C20_2 1_555 1_555
N4_2 N3_2 1_555 1_555
O31_2 C25_2 1_555 1_555
O32_2 C25_2 1_555 1_555
C25_2 C26_2 1_555 1_555
C26_2 C27_2 1_555 1_555
C27_2 H10_2 1_555 1_555
C28_2 N4_2 1_555 1_555
C29_2 C28_2 1_555 1_555
H11_2 C29_2 1_555 1_555
C30_2 C29_2 1_555 1_555
C31_2 C26_2 1_555 1_555
H12_2 C31_2 1_555 1_555
C32_2 C30_2 1_555 1_555
O33_2 C32_2 1_555 1_555
O34_2 C32_2 1_555 1_555
Zr16 O2_2 1_555 1_555
O53_2 Zr16 1_555 1_555
O54_2 Zr16 1_555 1_555
O55_2 Zr21 1_555 1_555
O56_2 Zr21 1_555 1_555
O58_2 Zr21 1_555 1_555
C50_2 C49_2 1_555 1_555
C51_2 C50_2 1_555 1_555
H19_2 C51_2 1_555 1_555
C52_2 C51_2 1_555 1_555
C53_2 C52_2 1_555 1_555
H20_2 C53_2 1_555 1_555
C54_2 C53_2 1_555 1_555
C55_2 C50_2 1_555 1_555
C56_2 C54_2 1_555 1_555
O60_2 Zr16 1_555 1_555
N7_2 C52_2 1_555 1_555
N8_2 N7_2 1_555 1_555
O87 C57_2 1_555 1_555
O89 C57_2 1_555 1_555
C57_2 C58_2 1_555 1_555
C58_2 C59_2 1_555 1_555
C59_2 H22_2 1_555 1_555
C60_2 N8_2 1_555 1_555
C61_2 C60_2 1_555 1_555
H23_2 C61_2 1_555 1_555
C62_2 C61_2 1_555 1_555
C63_2 C58_2 1_555 1_555
H24_2 C63_2 1_555 1_555
C64_2 C62_2 1_555 1_555
O91 C64_2 1_555 1_555
O93 C64_2 1_555 1_555
Zr24_2 O31_2 1_555 1_555
Zr26_2 O34_2 1_555 1_555
Zr32 O32_2 1_555 1_555
Zr31 O33_2 1_555 1_555
O79_2 Zr15 1_555 1_555
O84_2 Zr20 1_555 1_555
Zr15 O2_2 1_555 1_555
O28_2 C17_2 1_555 1_555
C22_2 C23_2 1_555 1_555
C24_2 O30_2 1_555 1_555
C27_2 C28_2 1_555 1_555
C30_2 C31_2 1_555 1_555
O58_2 C49_2 1_555 1_555
C54_2 C55_2 1_555 1_555
C56_2 O60_2 1_555 1_555
C59_2 C60_2 1_555 1_555
C62_2 C63_2 1_555 1_555
O3_2 Zr2_2 1_555 1_555
O11_3 Zr2_2 1_555 1_555
O12_3 Zr2_2 1_555 1_555
O31_3 C25_3 1_555 1_555
O32_3 C25_3 1_555 1_555
Zr14_2 O3_2 1_555 1_555
O65_2 Zr2_2 1_555 1_555
Zr24_3 O31_3 1_555 1_555
Zr33 O32_3 1_555 1_555
O79_3 Zr2_2 1_555 1_555
Zr14_2 O65_2 1_555 1_555
O11_3 H26 1_555 1_555
O53_3 Zr11_2 1_555 1_555
O54_3 Zr11_2 1_555 1_555
O61_2 C57_3 1_555 1_555
O62_2 C57_3 1_555 1_555
Zr14_3 O3_3 1_555 1_555
O66_2 Zr11_2 1_555 1_555
Zr23_2 O61_2 1_555 1_555
Zr30_2 O62_2 1_555 1_555
O78_2 Zr11_2 1_555 1_555
O3_3 Zr11_2 1_555 1_555
Zr14_3 O66_2 1_555 1_555
O53_3 H52 1_555 1_555
Zr4_2 O4_3 1_555 1_555
O6_2 Zr4_2 1_555 1_555
O13_3 Zr4_2 1_555 1_555
O14_3 Zr4_2 1_555 1_555
O28_3 Zr4_2 1_555 1_555
C18_3 C17_3 1_555 1_555
C19_3 C18_3 1_555 1_555
H7_3 C19_3 1_555 1_555
C20_3 C19_3 1_555 1_555
C21_3 C20_3 1_555 1_555
H8_3 C21_3 1_555 1_555
C22_3 C21_3 1_555 1_555
C23_3 C18_3 1_555 1_555
C24_3 C22_3 1_555 1_555
N3_3 C20_3 1_555 1_555
N4_3 N3_3 1_555 1_555
C26_3 C27_3 1_555 1_555
C27_3 H10_3 1_555 1_555
C28_3 N4_3 1_555 1_555
C29_3 C28_3 1_555 1_555
H11_3 C29_3 1_555 1_555
C30_3 C29_3 1_555 1_555
C31_3 C26_3 1_555 1_555
H12_3 C31_3 1_555 1_555
C32_3 C30_3 1_555 1_555
O33_3 C32_3 1_555 1_555
O34_3 C32_3 1_555 1_555
Zr19_2 O6_2 1_555 1_555
Zr28 O34_3 1_555 1_555
Zr34 O33_3 1_555 1_555
O68_2 Zr4_2 1_555 1_555
O84_3 Zr4_2 1_555 1_555
O28_3 C17_3 1_555 1_555
C22_3 C23_3 1_555 1_555
C24_3 O30_3 1_555 1_555
C27_3 C28_3 1_555 1_555
C30_3 C31_3 1_555 1_555
Zr19_2 O68_2 1_555 1_555
Zr1_2 O1_2 1_555 1_555
O1_2 Zr15_2 1_555 1_555
O5_2 Zr3_2 1_555 1_555
O27_3 Zr3_2 1_555 1_555
O29_3 Zr1_2 1_555 1_555
O67_2 Zr1_2 1_555 1_555
Zr20_2 O5_2 1_555 1_555
O70_2 Zr3_2 1_555 1_555
O77_3 Zr1_2 1_555 1_555
O82_3 Zr3_2 1_555 1_555
Zr15_2 O67_2 1_555 1_555
Zr20_2 O70_2 1_555 1_555
O4_4 Zr12_2 1_555 1_555
Zr12_2 O6_3 1_555 1_555
O55_3 Zr12_2 1_555 1_555
O56_3 Zr12_2 1_555 1_555
O58_3 Zr12_2 1_555 1_555
C50_3 C49_3 1_555 1_555
C51_3 C50_3 1_555 1_555
H19_3 C51_3 1_555 1_555
C52_3 C51_3 1_555 1_555
C53_3 C52_3 1_555 1_555
H20_3 C53_3 1_555 1_555
C54_3 C53_3 1_555 1_555
C55_3 C50_3 1_555 1_555
C56_3 C54_3 1_555 1_555
N7_3 C52_3 1_555 1_555
N8_3 N7_3 1_555 1_555
C58_3 C59_3 1_555 1_555
C59_3 H22_3 1_555 1_555
C60_3 N8_3 1_555 1_555
C61_3 C60_3 1_555 1_555
H23_3 C61_3 1_555 1_555
C62_3 C61_3 1_555 1_555
C63_3 C58_3 1_555 1_555
H24_3 C63_3 1_555 1_555
C64_3 C62_3 1_555 1_555
O63_2 C64_3 1_555 1_555
O64_2 C64_3 1_555 1_555
Zr19_3 O6_3 1_555 1_555
Zr25_2 O64_2 1_555 1_555
Zr29_2 O63_2 1_555 1_555
O69_2 Zr12_2 1_555 1_555
O83_2 Zr12_2 1_555 1_555
O58_3 C49_3 1_555 1_555
C54_3 C55_3 1_555 1_555
C56_3 O60_3 1_555 1_555
C59_3 C60_3 1_555 1_555
C62_3 C63_3 1_555 1_555
Zr19_3 O69_2 1_555 1_555
Zr5_2 O7_2 1_555 1_555
Zr25_2 O7_2 1_555 1_555
Zr29_2 O7_2 1_555 1_555
O8_2 Zr5_2 1_555 1_555
O9_2 Zr5_2 1_555 1_555
O10_2 Zr5_2 1_555 1_555
O15_2 Zr5_2 1_555 1_555
O16_2 Zr5_2 1_555 1_555
O17_2 Zr25_2 1_555 1_555
O18_2 Zr25_2 1_555 1_555
O19_2 Zr1_3 1_555 1_555
O20_2 C1_2 1_555 1_555
C1_2 O19_2 1_555 1_555
C2_2 C1_2 1_555 1_555
C3_2 C2_2 1_555 1_555
H1_2 C3_2 1_555 1_555
C4_2 C3_2 1_555 1_555
C5_2 C4_2 1_555 1_555
H2_2 C5_2 1_555 1_555
C6_2 C5_2 1_555 1_555
C7_2 C2_2 1_555 1_555
H3_2 C7_2 1_555 1_555
C8_2 C6_2 1_555 1_555
O21_2 Zr5_2 1_555 1_555
O22_2 C8_2 1_555 1_555
N1_2 C4_2 1_555 1_555
N2_2 N1_2 1_555 1_555
O23_2 Zr3_3 1_555 1_555
O24_2 C9_2 1_555 1_555
C9_2 O23_2 1_555 1_555
C10_2 C9_2 1_555 1_555
C11_2 C10_2 1_555 1_555
H4_2 C11_2 1_555 1_555
C12_2 N2_2 1_555 1_555
C13_2 C12_2 1_555 1_555
H5_2 C13_2 1_555 1_555
C14_2 C13_2 1_555 1_555
C15_2 C10_2 1_555 1_555
H6_2 C15_2 1_555 1_555
C16_2 C14_2 1_555 1_555
O25_2 C16_2 1_555 1_555
O26_2 C16_2 1_555 1_555
Zr23_2 O35_2 1_555 1_555
Zr9_2 O25_2 1_555 1_555
Zr30_2 O35_2 1_555 1_555
O35_2 Zr9_2 1_555 1_555
O36_2 Zr23_2 1_555 1_555
O37_2 Zr23_2 1_555 1_555
O38_2 Zr23_2 1_555 1_555
O39_2 Zr23_2 1_555 1_555
O40_2 Zr23_2 1_555 1_555
O41_2 Zr9_2 1_555 1_555
O42_2 Zr9_2 1_555 1_555
O43_2 C33_2 1_555 1_555
O78_2 C33_2 1_555 1_555
C33_2 C34_2 1_555 1_555
C34_2 C35_2 1_555 1_555
C35_2 H13_2 1_555 1_555
C36_2 C35_2 1_555 1_555
C37_2 C36_2 1_555 1_555
H14_2 C37_2 1_555 1_555
C38_2 C37_2 1_555 1_555
C39_2 C34_2 1_555 1_555
H15_2 C39_2 1_555 1_555
C40_2 C38_2 1_555 1_555
O45_2 Zr23_2 1_555 1_555
O46_2 C40_2 1_555 1_555
N5_2 C36_2 1_555 1_555
N6_2 N5_2 1_555 1_555
O47_2 C41_2 1_555 1_555
O83_2 C41_2 1_555 1_555
C41_2 C42_2 1_555 1_555
C42_2 C43_2 1_555 1_555
C43_2 H16_2 1_555 1_555
C44_2 N6_2 1_555 1_555
C45_2 C44_2 1_555 1_555
H17_2 C45_2 1_555 1_555
C46_2 C45_2 1_555 1_555
C47_2 C42_2 1_555 1_555
H18_2 C47_2 1_555 1_555
C48_2 C46_2 1_555 1_555
O49_2 Zr25_2 1_555 1_555
O50_2 C48_2 1_555 1_555
O51_2 Zr1_3 1_555 1_555
O52_2 Zr3_3 1_555 1_555
O57_3 Zr3_3 1_555 1_555
O59_3 Zr1_3 1_555 1_555
Zr14_3 O43_2 1_555 1_555
Zr16_2 O20_2 1_555 1_555
O67_3 Zr1_3 1_555 1_555
Zr19_3 O47_2 1_555 1_555
Zr21_2 O24_2 1_555 1_555
Zr26_2 O9_2 1_555 1_555
Zr26 O37_2 1_555 1_555
Zr31 O8_2 1_555 1_555
Zr32 O26_2 1_555 1_555
O70_3 Zr3_3 1_555 1_555
O71_2 Zr29_2 1_555 1_555
O72_2 Zr30_2 1_555 1_555
O73_2 Zr25_2 1_555 1_555
O74_2 Zr9_2 1_555 1_555
O75_2 Zr25_2 1_555 1_555
O76_2 Zr9_2 1_555 1_555
O80_2 Zr29_2 1_555 1_555
O81_2 Zr30_2 1_555 1_555
O85_2 Zr30_2 1_555 1_555
O86_2 Zr29_2 1_555 1_555
O87_2 Zr5_2 1_555 1_555
O89_2 Zr29_2 1_555 1_555
O91_2 Zr30_2 1_555 1_555
O93_2 Zr9_2 1_555 1_555
Zr25_2 O8_2 1_555 1_555
Zr29_2 O10_2 1_555 1_555
Zr29_2 O73_2 1_555 1_555
O9_2 Zr31 1_555 1_555
O10_2 Zr26_2 1_555 1_555
C6_2 C7_2 1_555 1_555
C8_2 O21_2 1_555 1_555
O22_2 Zr31 1_555 1_555
C11_2 C12_2 1_555 1_555
C14_2 C15_2 1_555 1_555
Zr9_2 O36_2 1_555 1_555
Zr30_2 O38_2 1_555 1_555
Zr30_2 O74_2 1_555 1_555
O36_2 Zr32 1_555 1_555
O37_2 Zr32 1_555 1_555
O38_2 Zr26 1_555 1_555
C38_2 C39_2 1_555 1_555
C40_2 O45_2 1_555 1_555
O46_2 Zr32 1_555 1_555
C43_2 C44_2 1_555 1_555
C46_2 C47_2 1_555 1_555
C48_2 O49_2 1_555 1_555
O50_2 Zr31 1_555 1_555
O51_2 Zr16_2 1_555 1_555
O52_2 Zr21_2 1_555 1_555
Zr16_2 O67_3 1_555 1_555
Zr21_2 O70_3 1_555 1_555
Zr26_2 O71_2 1_555 1_555
Zr26 O72_2 1_555 1_555
Zr31 O75_2 1_555 1_555
Zr32 O76_2 1_555 1_555
O15_2 H31_2 1_555 1_555
O15_2 H32_2 1_555 1_555
O16_2 H39_2 1_555 1_555
O16_2 H40_2 1_555 1_555
O39_2 H49_2 1_555 1_555
O39_2 H50_2 1_555 1_555
O40_2 H55_2 1_555 1_555
O40_2 H56_2 1_555 1_555
O27_4 Zr19_2 1_555 1_555
O29_4 Zr14_2 1_555 1_555
O77_4 Zr14_2 1_555 1_555
O82_4 Zr19_2 1_555 1_555
Zr20_2 O4_5 1_555 1_555
O13_4 Zr20_2 1_555 1_555
O14_4 Zr20_2 1_555 1_555
O28_4 Zr20_2 1_555 1_555
C18_4 C17_4 1_555 1_555
C19_4 C18_4 1_555 1_555
H7_4 C19_4 1_555 1_555
C20_4 C19_4 1_555 1_555
C21_4 C20_4 1_555 1_555
H8_4 C21_4 1_555 1_555
C22_4 C21_4 1_555 1_555
C23_4 C18_4 1_555 1_555
C24_4 C22_4 1_555 1_555
N3_4 C20_4 1_555 1_555
N4_4 N3_4 1_555 1_555
C26_4 C27_4 1_555 1_555
C27_4 H10_4 1_555 1_555
C28_4 N4_4 1_555 1_555
C29_4 C28_4 1_555 1_555
H11_4 C29_4 1_555 1_555
C30_4 C29_4 1_555 1_555
C31_4 C26_4 1_555 1_555
H12_4 C31_4 1_555 1_555
C32_4 C30_4 1_555 1_555
O33_4 C32_4 1_555 1_555
O34_4 C32_4 1_555 1_555
Zr27 O34_4 1_555 1_555
Zr33 O33_4 1_555 1_555
O84_4 Zr20_2 1_555 1_555
O28_4 C17_4 1_555 1_555
C22_4 C23_4 1_555 1_555
C24_4 O30_4 1_555 1_555
C27_4 C28_4 1_555 1_555
C30_4 C31_4 1_555 1_555
O57_4 Zr19_3 1_555 1_555
O59_4 Zr14_3 1_555 1_555
O4_6 Zr21_2 1_555 1_555
O55_4 Zr21_2 1_555 1_555
O56_4 Zr21_2 1_555 1_555
O58_4 Zr21_2 1_555 1_555
C50_4 C49_4 1_555 1_555
C51_4 C50_4 1_555 1_555
H19_4 C51_4 1_555 1_555
C52_4 C51_4 1_555 1_555
C53_4 C52_4 1_555 1_555
H20_4 C53_4 1_555 1_555
C54_4 C53_4 1_555 1_555
C55_4 C50_4 1_555 1_555
C56_4 C54_4 1_555 1_555
N7_4 C52_4 1_555 1_555
N8_4 N7_4 1_555 1_555
C58_4 C59_4 1_555 1_555
C59_4 H22_4 1_555 1_555
C60_4 N8_4 1_555 1_555
C61_4 C60_4 1_555 1_555
H23_4 C61_4 1_555 1_555
C62_4 C61_4 1_555 1_555
C63_4 C58_4 1_555 1_555
H24_4 C63_4 1_555 1_555
C64_4 C62_4 1_555 1_555
O91_2 C64_4 1_555 1_555
O93_2 C64_4 1_555 1_555
O58_4 C49_4 1_555 1_555
C54_4 C55_4 1_555 1_555
C56_4 O60_4 1_555 1_555
C59_4 C60_4 1_555 1_555
C62_4 C63_4 1_555 1_555
O11_4 Zr15_2 1_555 1_555
O12_4 Zr15_2 1_555 1_555
O31_4 C25_4 1_555 1_555
O32_4 C25_4 1_555 1_555
Zr24_4 O31_4 1_555 1_555
Zr34 O32_4 1_555 1_555
O79_4 Zr15_2 1_555 1_555
O11_4 H26_2 1_555 1_555
O53_4 Zr16_2 1_555 1_555
O54_4 Zr16_2 1_555 1_555
O87_2 C57_4 1_555 1_555
O89_2 C57_4 1_555 1_555
O53_4 H52_2 1_555 1_555
O84 C9_3 1_555 1_555
C10_3 C9_3 1_555 1_555
H5_3 C13_3 1_555 1_555
C14_3 C13_3 1_555 1_555
C15_3 C10_3 1_555 1_555
H6_3 C15_3 1_555 1_555
C16_3 C14_3 1_555 1_555
O25_3 C16_3 1_555 1_555
O85_2 C16_3 1_555 1_555
Zr24_2 O35_3 1_555 1_555
Zr26 O25_3 1_555 1_555
Zr32 O35_3 1_555 1_555
O35_3 Zr26 1_555 1_555
O72_2 Zr24_2 1_555 1_555
O74_2 Zr24_2 1_555 1_555
O76_2 Zr24_2 1_555 1_555
O39_3 Zr24_2 1_555 1_555
O40_3 Zr24_2 1_555 1_555
O41_3 Zr26 1_555 1_555
O42_3 Zr26 1_555 1_555
O77 C33_3 1_555 1_555
O79_2 C33_3 1_555 1_555
C33_3 C34_3 1_555 1_555
C34_3 C35_3 1_555 1_555
C35_3 H13_3 1_555 1_555
C36_3 C35_3 1_555 1_555
C37_3 C36_3 1_555 1_555
H14_3 C37_3 1_555 1_555
C38_3 C37_3 1_555 1_555
C39_3 C34_3 1_555 1_555
H15_3 C39_3 1_555 1_555
C40_3 C38_3 1_555 1_555
O45_3 Zr24_2 1_555 1_555
O81_2 C40_3 1_555 1_555
N5_3 C36_3 1_555 1_555
N6_3 N5_3 1_555 1_555
C43_3 H16_3 1_555 1_555
C44_3 N6_3 1_555 1_555
C14_3 C15_3 1_555 1_555
C38_3 C39_3 1_555 1_555
C40_3 O45_3 1_555 1_555
C43_3 C44_3 1_555 1_555
O39_3 H49_3 1_555 1_555
O39_3 H50_3 1_555 1_555
O40_3 H55_3 1_555 1_555
O40_3 H56_3 1_555 1_555
Zr24 O7_3 1_555 1_555
Zr26_2 O7_3 1_555 1_555
Zr31 O7_3 1_555 1_555
O71_2 Zr24 1_555 1_555
O73_2 Zr24 1_555 1_555
O75_2 Zr24 1_555 1_555
O15_3 Zr24 1_555 1_555
O16_3 Zr24 1_555 1_555
O17_3 Zr26_2 1_555 1_555
O18_3 Zr26_2 1_555 1_555
O79 C1_3 1_555 1_555
C1_3 O77_2 1_555 1_555
C2_3 C1_3 1_555 1_555
C3_3 C2_3 1_555 1_555
H1_3 C3_3 1_555 1_555
C4_3 C3_3 1_555 1_555
C5_3 C4_3 1_555 1_555
H2_3 C5_3 1_555 1_555
C6_3 C5_3 1_555 1_555
C7_3 C2_3 1_555 1_555
H3_3 C7_3 1_555 1_555
C8_3 C6_3 1_555 1_555
O21_3 Zr24 1_555 1_555
O80_2 C8_3 1_555 1_555
N1_3 C4_3 1_555 1_555
N2_3 N1_3 1_555 1_555
H4_3 C11_3 1_555 1_555
C12_3 N2_3 1_555 1_555
O84_2 C41_3 1_555 1_555
C41_3 C42_3 1_555 1_555
H17_3 C45_3 1_555 1_555
C46_3 C45_3 1_555 1_555
C47_3 C42_3 1_555 1_555
H18_3 C47_3 1_555 1_555
C48_3 C46_3 1_555 1_555
O49_3 Zr26_2 1_555 1_555
O86_2 C48_3 1_555 1_555
C6_3 C7_3 1_555 1_555
C8_3 O21_3 1_555 1_555
C11_3 C12_3 1_555 1_555
C46_3 C47_3 1_555 1_555
C48_3 O49_3 1_555 1_555
O15_3 H31_3 1_555 1_555
O15_3 H32_3 1_555 1_555
O16_3 H39_3 1_555 1_555
O16_3 H40_3 1_555 1_555
Zr24_3 O7_4 1_555 1_555
Zr27 O7_4 1_555 1_555
Zr33 O7_4 1_555 1_555
O71 Zr24_3 1_555 1_555
O73 Zr24_3 1_555 1_555
O75 Zr24_3 1_555 1_555
O15_4 Zr24_3 1_555 1_555
O16_4 Zr24_3 1_555 1_555
O17_4 Zr27 1_555 1_555
O18_4 Zr27 1_555 1_555
O79_3 C1_4 1_555 1_555
C1_4 O77_4 1_555 1_555
C2_4 C1_4 1_555 1_555
C3_4 C2_4 1_555 1_555
H1_4 C3_4 1_555 1_555
C4_4 C3_4 1_555 1_555
C5_4 C4_4 1_555 1_555
H2_4 C5_4 1_555 1_555
C6_4 C5_4 1_555 1_555
C7_4 C2_4 1_555 1_555
H3_4 C7_4 1_555 1_555
C8_4 C6_4 1_555 1_555
O21_4 Zr24_3 1_555 1_555
O80 C8_4 1_555 1_555
N1_4 C4_4 1_555 1_555
N2_4 N1_4 1_555 1_555
O84_3 C9_4 1_555 1_555
C9_4 O82_4 1_555 1_555
C10_4 C9_4 1_555 1_555
C11_4 C10_4 1_555 1_555
H4_4 C11_4 1_555 1_555
C12_4 N2_4 1_555 1_555
C13_4 C12_4 1_555 1_555
H5_4 C13_4 1_555 1_555
C14_4 C13_4 1_555 1_555
C15_4 C10_4 1_555 1_555
H6_4 C15_4 1_555 1_555
C16_4 C14_4 1_555 1_555
O25_4 C16_4 1_555 1_555
O85 C16_4 1_555 1_555
Zr24_4 O35_4 1_555 1_555
Zr28 O25_4 1_555 1_555
Zr34 O35_4 1_555 1_555
O35_4 Zr28 1_555 1_555
O72 Zr24_4 1_555 1_555
O74 Zr24_4 1_555 1_555
O76 Zr24_4 1_555 1_555
O39_4 Zr24_4 1_555 1_555
O40_4 Zr24_4 1_555 1_555
O41_4 Zr28 1_555 1_555
O42_4 Zr28 1_555 1_555
O77_3 C33_4 1_555 1_555
O79_4 C33_4 1_555 1_555
C33_4 C34_4 1_555 1_555
C34_4 C35_4 1_555 1_555
C35_4 H13_4 1_555 1_555
C36_4 C35_4 1_555 1_555
C37_4 C36_4 1_555 1_555
H14_4 C37_4 1_555 1_555
C38_4 C37_4 1_555 1_555
C39_4 C34_4 1_555 1_555
H15_4 C39_4 1_555 1_555
C40_4 C38_4 1_555 1_555
O45_4 Zr24_4 1_555 1_555
O81 C40_4 1_555 1_555
N5_4 C36_4 1_555 1_555
N6_4 N5_4 1_555 1_555
O82_3 C41_4 1_555 1_555
O84_4 C41_4 1_555 1_555
C41_4 C42_4 1_555 1_555
C42_4 C43_4 1_555 1_555
C43_4 H16_4 1_555 1_555
C44_4 N6_4 1_555 1_555
C45_4 C44_4 1_555 1_555
H17_4 C45_4 1_555 1_555
C46_4 C45_4 1_555 1_555
C47_4 C42_4 1_555 1_555
H18_4 C47_4 1_555 1_555
C48_4 C46_4 1_555 1_555
O49_4 Zr27 1_555 1_555
O86 C48_4 1_555 1_555
C6_4 C7_4 1_555 1_555
C8_4 O21_4 1_555 1_555
C11_4 C12_4 1_555 1_555
C14_4 C15_4 1_555 1_555
C38_4 C39_4 1_555 1_555
C40_4 O45_4 1_555 1_555
C43_4 C44_4 1_555 1_555
C46_4 C47_4 1_555 1_555
C48_4 O49_4 1_555 1_555
O15_4 H31_4 1_555 1_555
O15_4 H32_4 1_555 1_555
O16_4 H39_4 1_555 1_555
O16_4 H40_4 1_555 1_555
O39_4 H49_4 1_555 1_555
O39_4 H50_4 1_555 1_555
O40_4 H55_4 1_555 1_555
O40_4 H56_4 1_555 1_555
O11_4 H52_3 1_555 1_555
O53_4 H26_3 1_555 1_555
O11_3 H52_4 1_555 1_555
O53_3 H26_4 1_555 1_555

#END
