
###############################################################################
#
# This file contains modified crystal structure data generated from the
# MOF subset of the Cambridge Structural Database (CSD) v543 
# hosted by the Cambridge Crystallographic Data Centre (CCDC).
#
# This work is licensed under the Creative Commons
# Attribution-NonCommercial-ShareAlike 4.0 International License.
# To view a copy of this license, visit
# http://creativecommons.org/licenses/by-nc-sa/4.0/
# or send a letter to
# Creative Commons, PO Box 1866, Mountain View, CA 94042, USA.
#
# CIF created using the CSD Python API on 29 September 2022
# The structure has been converted into the P1 space group
# The structure has a 3D framework
# The original CSD entry TEXVUQ is in the hexagonal crystal system
# The original CSD entry TEXVUQ is in a Sohncke space group
# The framework has been calculated to contain at least 10.0% void space
# The void calculation uses a probe of radius 1.32A, grid spacing 0.4
# H atom positions have been added when not included in the experimental data
#
###############################################################################

data_TEXVUQ
_chemical_formula_moiety         '(C48 H60 Ca2 Cu12 N12 O56)n'
_symmetry_cell_setting           triclinic
_symmetry_space_group_name_H-M   'P 1'
_symmetry_Int_Tables_number      1
_space_group_name_Hall           'P 1'
loop_
_symmetry_equiv_pos_site_id
_symmetry_equiv_pos_as_xyz
1 x,y,z
_cell_length_a                   17.9607(11)
_cell_length_b                   17.9607(11)
_cell_length_c                   12.6765(8)
_cell_angle_alpha                90
_cell_angle_beta                 90
_cell_angle_gamma                120
_cell_volume                     3541.41
loop_
_atom_site_label
_atom_site_type_symbol
_atom_site_fract_x
_atom_site_fract_y
_atom_site_fract_z
N1 N 0.5892(4) 0.0980(4) 0.2033(6)
O2 O 0.4442(3) 0.0209(3) 0.3100(5)
O3 O 0.7978(4) 0.2885(6) 0.2241(6)
O4 O 0.6744(3) 0.2381(3) 0.3148(5)
C1 C 0.7191(5) 0.2326(8) 0.2388(8)
C2 C 0.6774(5) 0.1550(6) 0.1657(8)
H1 H 0.7106 0.1240 0.1675
C3 C 0.5390(5) 0.0224(5) 0.1704(7)
C7 C 0.6781(8) 0.1888(8) 0.0495(9)
H3 H 0.7385 0.2295 0.0299
H4 H 0.6566 0.1392 0.0007
O8 O 0.6296(13) 0.2298(13) 0.0327(16)
H5 H 0.6627 0.2833 0.0310
Ca4 Ca 0.6667 0.3333 0.4538(3)
Cu8 Cu 0.55240(5) 0.13845(5) 0.32146(10)
Cu10 Cu 0.86155(5) 0.41395(7) 0.32146(10)
Cu2 Cu 0.44158(5) 0.86228(5) 0.08373(11)
N2 N 0.3994(5) 0.9019(4) 0.1977(6)
O5 O 0.2023(4) 0.7029(6) 0.1871(6)
O6 O 0.5493(3) 0.9794(3) 0.0976(5)
O7 O 0.3226(3) 0.7607(3) 0.0901(5)
C4 C 0.4535(5) 0.9800(5) 0.2328(7)
C5 C 0.2748(5) 0.7613(5) 0.1653(7)
C6 C 0.3125(7) 0.8431(6) 0.2373(10)
H2 H 0.3152 0.8272 0.3122
C8 C 0.2533(8) 0.8838(8) 0.2282(16)
H6 H 0.1957 0.8424 0.2563
H7 H 0.2774 0.9360 0.2727
O9 O 0.2440(11) 0.9065(12) 0.1213(17)
H8 H 0.2682 0.9602 0.1159
Cu4 Cu 0.13772(5) 0.57930(7) 0.08373(11)
N4 N 0.0981(4) 0.4975(6) 0.1977(6)
O15 O 0.2971(6) 0.4994(7) 0.1871(6)
O16 O 0.0206(3) 0.5699(4) 0.0976(5)
O17 O 0.2393(3) 0.5619(4) 0.0901(5)
C12 C 0.0200(5) 0.4735(7) 0.2328(7)
C13 C 0.2387(5) 0.5135(7) 0.1653(7)
C14 C 0.1569(6) 0.4694(9) 0.2373(10)
H10 H 0.1728 0.4880 0.3122
C16 C 0.1162(8) 0.3695(11) 0.2282(16)
H14 H 0.1576 0.3533 0.2563
H15 H 0.0640 0.3414 0.2727
O19 O 0.0935(12) 0.3375(16) 0.1213(17)
H16 H 0.0398 0.3080 0.1159
Cu6 Cu 0.42070(7) 0.55842(5) 0.08373(11)
N5 N 0.5088(6) 0.4108(4) 0.2033(6)
N6 N 0.5025(6) 0.6006(5) 0.1977(6)
O22 O 0.5767(4) 0.5558(3) 0.3100(5)
O23 O 0.4907(7) 0.2022(4) 0.2241(6)
O24 O 0.5637(4) 0.3256(3) 0.3148(5)
O25 O 0.5006(7) 0.7977(4) 0.1871(6)
O26 O 0.4301(4) 0.4507(3) 0.0976(5)
O27 O 0.4381(4) 0.6774(3) 0.0901(5)
C17 C 0.5135(9) 0.2809(5) 0.2388(8)
C18 C 0.4776(8) 0.3226(5) 0.1657(8)
H17 H 0.4134 0.2894 0.1675
C19 C 0.4834(7) 0.4610(5) 0.1704(7)
C20 C 0.5265(7) 0.5465(5) 0.2328(7)
C21 C 0.4865(7) 0.7252(5) 0.1653(7)
C22 C 0.5306(9) 0.6875(7) 0.2373(10)
H18 H 0.5120 0.6848 0.3122
C23 C 0.5107(11) 0.3219(8) 0.0495(9)
H19 H 0.4910 0.2615 0.0299
H20 H 0.4826 0.3434 0.0007
O28 O 0.6002(18) 0.3704(13) 0.0327(16)
H21 H 0.6206 0.3373 0.0310
C24 C 0.6305(11) 0.7467(8) 0.2282(16)
H22 H 0.6467 0.8043 0.2563
H23 H 0.6586 0.7226 0.2727
O29 O 0.6625(16) 0.7560(11) 0.1213(17)
H24 H 0.6920 0.7318 0.1159
Cu12 Cu 0.58605(7) 0.44760(5) 0.32146(10)
Ca1 Ca 0.3333 0.6667 0.9538(3)
Cu1 Cu 0.44760(5) 0.86155(5) 0.82146(10)
O1 O 0.4638(2) 0.8203(2) 0.9544(5)
O10 O 0.3811(12) 0.9436(17) 0.9457(18)
Cu3 Cu 0.13845(5) 0.58605(7) 0.82146(10)
O11 O 0.1797(2) 0.6435(3) 0.9544(5)
O20 O 0.0564(17) 0.4375(21) 0.9457(18)
Cu5 Cu 0.41395(7) 0.55240(5) 0.82146(10)
O21 O 0.3565(3) 0.5362(2) 0.9544(5)
O30 O 0.5625(21) 0.6189(12) 0.9457(18)
N7 N 0.4108(4) 0.9020(4) 0.7033(6)
N8 N 0.0980(4) 0.5088(6) 0.7033(6)
N9 N 0.4912(6) 0.5892(4) 0.7033(6)
O31 O 0.5558(3) 0.9791(3) 0.8100(5)
O32 O 0.0209(3) 0.5767(4) 0.8100(5)
O33 O 0.4233(4) 0.4442(3) 0.8100(5)
O34 O 0.2022(4) 0.7115(6) 0.7241(6)
O35 O 0.2885(6) 0.4907(7) 0.7241(6)
O36 O 0.5093(7) 0.7978(4) 0.7241(6)
O37 O 0.3256(3) 0.7619(3) 0.8148(5)
O38 O 0.2381(3) 0.5637(4) 0.8148(5)
O39 O 0.4363(4) 0.6744(3) 0.8148(5)
H25 H 0.425983 0.983631 0.99552
H26 H 0.362979 0.976378 0.899571
H27 H 0.016369 0.442352 0.99552
H28 H 0.0236222 0.386602 0.899571
H29 H 0.557648 0.574017 0.99552
H30 H 0.613398 0.637021 0.899571
N3 N 0.9020(4) 0.4912(6) 0.2033(6)
O12 O 0.9791(3) 0.4233(4) 0.3100(5)
O13 O 0.7115(6) 0.5093(7) 0.2241(6)
O14 O 0.7619(3) 0.4363(4) 0.3148(5)
C9 C 0.7674(8) 0.4865(9) 0.2388(8)
C10 C 0.8450(6) 0.5224(8) 0.1657(8)
H9 H 0.8760 0.5866 0.1675
C11 C 0.9776(5) 0.5166(7) 0.1704(7)
C15 C 0.8112(8) 0.4893(11) 0.0495(9)
H11 H 0.7705 0.5090 0.0299
H12 H 0.8608 0.5174 0.0007
O18 O 0.7702(13) 0.3998(18) 0.0327(16)
H13 H 0.7167 0.3794 0.0310
C9_2 C 0.2326(8) 0.5135(9) 0.7388(8)
C10_2 C 0.1550(6) 0.4776(8) 0.6657(8)
H9_2 H 0.1240 0.4134 0.6675
C11_2 C 0.0224(5) 0.4834(7) 0.6704(7)
C15_2 C 0.1888(8) 0.5107(11) 0.5495(9)
H11_2 H 0.2295 0.4910 0.5299
H12_2 H 0.1392 0.4826 0.5007
O18_2 O 0.2298(13) 0.6002(18) 0.5327(16)
H13_2 H 0.2833 0.6206 0.5310
Cu2_2 Cu 0.55842(5) 0.13772(5) 0.58373(11)
O1_2 O 0.5362(2) 0.1797(2) 0.4544(5)
N2_2 N 0.6006(5) 0.0981(4) 0.6977(6)
O5_2 O 0.7977(4) 0.2971(6) 0.6871(6)
O6_2 O 0.4507(3) 0.0206(3) 0.5976(5)
O7_2 O 0.6774(3) 0.2393(3) 0.5901(5)
C4_2 C 0.5465(5) 0.0200(5) 0.7328(7)
C5_2 C 0.7252(5) 0.2387(5) 0.6653(7)
C6_2 C 0.6875(7) 0.1569(6) 0.7373(10)
H2_2 H 0.6848 0.1728 0.8122
C8_2 C 0.7467(8) 0.1162(8) 0.7282(16)
H6_2 H 0.8043 0.1576 0.7563
H7_2 H 0.7226 0.0640 0.7727
O9_2 O 0.7560(11) 0.0935(12) 0.6213(17)
H8_2 H 0.7318 0.0398 0.6159
O10_2 O 0.6189(12) 0.0564(17) 0.4457(18)
Cu4_2 Cu 0.86228(5) 0.42070(7) 0.58373(11)
O11_2 O 0.8203(2) 0.3565(3) 0.4544(5)
N4_2 N 0.9019(4) 0.5025(6) 0.6977(6)
O15_2 O 0.7029(6) 0.5006(7) 0.6871(6)
O16_2 O 0.9794(3) 0.4301(4) 0.5976(5)
O17_2 O 0.7607(3) 0.4381(4) 0.5901(5)
C12_2 C 0.9800(5) 0.5265(7) 0.7328(7)
C13_2 C 0.7613(5) 0.4865(7) 0.6653(7)
C14_2 C 0.8431(6) 0.5306(9) 0.7373(10)
H10_2 H 0.8272 0.5120 0.8122
C16_2 C 0.8838(8) 0.6305(11) 0.7282(16)
H14_2 H 0.8424 0.6467 0.7563
H15_2 H 0.9360 0.6586 0.7727
O19_2 O 0.9065(12) 0.6625(16) 0.6213(17)
H16_2 H 0.9602 0.6920 0.6159
O20_2 O 0.9436(17) 0.5625(21) 0.4457(18)
Cu6_2 Cu 0.57930(7) 0.44158(5) 0.58373(11)
O21_2 O 0.6435(3) 0.4638(2) 0.4544(5)
N6_2 N 0.4975(6) 0.3994(5) 0.6977(6)
O25_2 O 0.4994(7) 0.2023(4) 0.6871(6)
O26_2 O 0.5699(4) 0.5493(3) 0.5976(5)
O27_2 O 0.5619(4) 0.3226(3) 0.5901(5)
C17_2 C 0.4865(9) 0.7191(5) 0.7388(8)
C18_2 C 0.5224(8) 0.6774(5) 0.6657(8)
H17_2 H 0.5866 0.7106 0.6675
C19_2 C 0.5166(7) 0.5390(5) 0.6704(7)
C20_2 C 0.4735(7) 0.4535(5) 0.7328(7)
C21_2 C 0.5135(7) 0.2748(5) 0.6653(7)
C22_2 C 0.4694(9) 0.3125(7) 0.7373(10)
H18_2 H 0.4880 0.3152 0.8122
C23_2 C 0.4893(11) 0.6781(8) 0.5495(9)
H19_2 H 0.5090 0.7385 0.5299
H20_2 H 0.5174 0.6566 0.5007
O28_2 O 0.3998(18) 0.6296(13) 0.5327(16)
H21_2 H 0.3794 0.6627 0.5310
C24_2 C 0.3695(11) 0.2533(8) 0.7282(16)
H22_2 H 0.3533 0.1957 0.7563
H23_2 H 0.3414 0.2774 0.7727
O29_2 O 0.3375(16) 0.2440(11) 0.6213(17)
H24_2 H 0.3080 0.2682 0.6159
O30_2 O 0.4375(21) 0.3811(12) 0.4457(18)
H25_2 H 0.574017 0.016369 0.49552
H26_2 H 0.637021 0.0236222 0.399571
H27_2 H 0.983631 0.557648 0.49552
H28_2 H 0.976378 0.613398 0.399571
H29_2 H 0.442352 0.425983 0.49552
H30_2 H 0.386602 0.362979 0.399571
C1_2 C 0.2809(5) 0.7674(8) 0.7388(8)
C2_2 C 0.3226(5) 0.8450(6) 0.6657(8)
H1_2 H 0.2894 0.8760 0.6675
C3_2 C 0.4610(5) 0.9776(5) 0.6704(7)
C7_2 C 0.3219(8) 0.8112(8) 0.5495(9)
H3_2 H 0.2615 0.7705 0.5299
H4_2 H 0.3434 0.8608 0.5007
O8_2 O 0.3704(13) 0.7702(13) 0.5327(16)
H5_2 H 0.3373 0.7167 0.5310
loop_
_geom_bond_atom_site_label_1
_geom_bond_atom_site_label_2
_geom_bond_site_symmetry_1
_geom_bond_site_symmetry_2
N1 C2 1_555 1_555
O3 C1 1_555 1_555
O4 C1 1_555 1_555
C1 C2 1_555 1_555
C2 H1 1_555 1_555
C3 N1 1_555 1_555
C7 C2 1_555 1_555
H3 C7 1_555 1_555
H4 C7 1_555 1_555
O8 C7 1_555 1_555
H5 O8 1_555 1_555
Ca4 O4 1_555 1_555
Cu8 N1 1_555 1_555
Cu10 O3 1_555 1_555
O2 Cu8 1_555 1_555
O4 Cu8 1_555 1_555
N2 Cu2 1_555 1_555
O5 C5 1_555 1_555
O6 Cu2 1_555 1_555
C4 N2 1_555 1_555
C5 O7 1_555 1_555
C6 N2 1_555 1_555
H2 C6 1_555 1_555
C8 C6 1_555 1_555
H6 C8 1_555 1_555
H7 C8 1_555 1_555
O9 C8 1_555 1_555
H8 O9 1_555 1_555
Cu4 O5 1_555 1_555
N4 Cu4 1_555 1_555
O15 C13 1_555 1_555
O16 Cu4 1_555 1_555
C12 N4 1_555 1_555
C13 O17 1_555 1_555
C14 N4 1_555 1_555
H10 C14 1_555 1_555
C16 C14 1_555 1_555
H14 C16 1_555 1_555
H15 C16 1_555 1_555
O19 C16 1_555 1_555
H16 O19 1_555 1_555
Cu6 O15 1_555 1_555
N5 C18 1_555 1_555
N6 Cu6 1_555 1_555
O22 C20 1_555 1_555
O23 C17 1_555 1_555
O24 C17 1_555 1_555
O25 Cu2 1_555 1_555
O26 Cu6 1_555 1_555
C17 C18 1_555 1_555
C18 H17 1_555 1_555
C19 N5 1_555 1_555
C20 N6 1_555 1_555
C21 O25 1_555 1_555
C22 N6 1_555 1_555
H18 C22 1_555 1_555
C23 C18 1_555 1_555
H19 C23 1_555 1_555
H20 C23 1_555 1_555
O28 C23 1_555 1_555
H21 O28 1_555 1_555
C24 C22 1_555 1_555
H22 C24 1_555 1_555
H23 C24 1_555 1_555
O29 C24 1_555 1_555
H24 O29 1_555 1_555
Ca4 O24 1_555 1_555
Cu8 O23 1_555 1_555
Cu12 N5 1_555 1_555
Cu2 O7 1_555 1_555
C5 C6 1_555 1_555
Cu4 O17 1_555 1_555
C13 C14 1_555 1_555
Cu6 O27 1_555 1_555
O22 Cu12 1_555 1_555
O24 Cu12 1_555 1_555
O26 C19 1_555 1_555
O27 C21 1_555 1_555
C19 C20 1_555 1_555
C21 C22 1_555 1_555
Ca1 O1 1_555 1_555
Cu1 O1 1_555 1_555
O10 Cu1 1_555 1_555
Cu3 O11 1_555 1_555
O11 Ca1 1_555 1_555
O20 Cu3 1_555 1_555
Cu5 O21 1_555 1_555
O21 Ca1 1_555 1_555
O30 Cu5 1_555 1_555
N7 Cu1 1_555 1_555
N8 Cu3 1_555 1_555
N9 Cu5 1_555 1_555
O31 Cu1 1_555 1_555
O32 Cu3 1_555 1_555
O33 Cu5 1_555 1_555
O34 Cu3 1_555 1_555
O35 Cu5 1_555 1_555
O36 Cu1 1_555 1_555
O37 Ca1 1_555 1_555
O38 Ca1 1_555 1_555
O39 Ca1 1_555 1_555
Cu1 O37 1_555 1_555
Cu3 O38 1_555 1_555
Cu5 O39 1_555 1_555
O10 H25 1_555 1_555
O10 H26 1_555 1_555
O20 H27 1_555 1_555
O20 H28 1_555 1_555
O30 H29 1_555 1_555
O30 H30 1_555 1_555
N3 C10 1_555 1_555
O13 C9 1_555 1_555
O14 C9 1_555 1_555
C9 C10 1_555 1_555
C10 H9 1_555 1_555
C11 N3 1_555 1_555
C15 C10 1_555 1_555
H11 C15 1_555 1_555
H12 C15 1_555 1_555
O18 C15 1_555 1_555
H13 O18 1_555 1_555
Ca4 O14 1_555 1_555
Cu10 N3 1_555 1_555
Cu12 O13 1_555 1_555
O12 Cu10 1_555 1_555
O14 Cu10 1_555 1_555
N8 C10_2 1_555 1_555
O35 C9_2 1_555 1_555
O38 C9_2 1_555 1_555
C9_2 C10_2 1_555 1_555
C10_2 H9_2 1_555 1_555
C11_2 N8 1_555 1_555
C15_2 C10_2 1_555 1_555
H11_2 C15_2 1_555 1_555
H12_2 C15_2 1_555 1_555
O18_2 C15_2 1_555 1_555
H13_2 O18_2 1_555 1_555
Ca4 O1_2 1_555 1_555
Cu8 O1_2 1_555 1_555
Cu2_2 O1_2 1_555 1_555
N2_2 Cu2_2 1_555 1_555
O5_2 C5_2 1_555 1_555
O6_2 Cu2_2 1_555 1_555
O7_2 Ca4 1_555 1_555
C4_2 N2_2 1_555 1_555
C5_2 O7_2 1_555 1_555
C6_2 N2_2 1_555 1_555
H2_2 C6_2 1_555 1_555
C8_2 C6_2 1_555 1_555
H6_2 C8_2 1_555 1_555
H7_2 C8_2 1_555 1_555
O9_2 C8_2 1_555 1_555
H8_2 O9_2 1_555 1_555
O10_2 Cu8 1_555 1_555
Cu10 O11_2 1_555 1_555
Cu4_2 O5_2 1_555 1_555
O11_2 Ca4 1_555 1_555
N4_2 Cu4_2 1_555 1_555
O15_2 C13_2 1_555 1_555
O16_2 Cu4_2 1_555 1_555
O17_2 Ca4 1_555 1_555
C12_2 N4_2 1_555 1_555
C13_2 O17_2 1_555 1_555
C14_2 N4_2 1_555 1_555
H10_2 C14_2 1_555 1_555
C16_2 C14_2 1_555 1_555
H14_2 C16_2 1_555 1_555
H15_2 C16_2 1_555 1_555
O19_2 C16_2 1_555 1_555
H16_2 O19_2 1_555 1_555
O20_2 Cu10 1_555 1_555
Cu12 O21_2 1_555 1_555
Cu6_2 O15_2 1_555 1_555
O21_2 Ca4 1_555 1_555
N9 C18_2 1_555 1_555
N6_2 Cu6_2 1_555 1_555
O33 C20_2 1_555 1_555
O36 C17_2 1_555 1_555
O39 C17_2 1_555 1_555
O25_2 Cu2_2 1_555 1_555
O26_2 Cu6_2 1_555 1_555
O27_2 Ca4 1_555 1_555
C17_2 C18_2 1_555 1_555
C18_2 H17_2 1_555 1_555
C19_2 N9 1_555 1_555
C20_2 N6_2 1_555 1_555
C21_2 O25_2 1_555 1_555
C22_2 N6_2 1_555 1_555
H18_2 C22_2 1_555 1_555
C23_2 C18_2 1_555 1_555
H19_2 C23_2 1_555 1_555
H20_2 C23_2 1_555 1_555
O28_2 C23_2 1_555 1_555
H21_2 O28_2 1_555 1_555
C24_2 C22_2 1_555 1_555
H22_2 C24_2 1_555 1_555
H23_2 C24_2 1_555 1_555
O29_2 C24_2 1_555 1_555
H24_2 O29_2 1_555 1_555
O30_2 Cu12 1_555 1_555
Cu2_2 O7_2 1_555 1_555
C5_2 C6_2 1_555 1_555
Cu4_2 O11_2 1_555 1_555
Cu4_2 O17_2 1_555 1_555
C13_2 C14_2 1_555 1_555
Cu6_2 O21_2 1_555 1_555
Cu6_2 O27_2 1_555 1_555
O26_2 C19_2 1_555 1_555
O27_2 C21_2 1_555 1_555
C19_2 C20_2 1_555 1_555
C21_2 C22_2 1_555 1_555
O10_2 H25_2 1_555 1_555
O10_2 H26_2 1_555 1_555
O20_2 H27_2 1_555 1_555
O20_2 H28_2 1_555 1_555
O30_2 H29_2 1_555 1_555
O30_2 H30_2 1_555 1_555
N7 C2_2 1_555 1_555
O34 C1_2 1_555 1_555
O37 C1_2 1_555 1_555
C1_2 C2_2 1_555 1_555
C2_2 H1_2 1_555 1_555
C3_2 N7 1_555 1_555
C7_2 C2_2 1_555 1_555
H3_2 C7_2 1_555 1_555
H4_2 C7_2 1_555 1_555
O8_2 C7_2 1_555 1_555
H5_2 O8_2 1_555 1_555

#END
