
###############################################################################
#
# This file contains modified crystal structure data generated from the
# MOF subset of the Cambridge Structural Database (CSD) v543 
# hosted by the Cambridge Crystallographic Data Centre (CCDC).
#
# This work is licensed under the Creative Commons
# Attribution-NonCommercial-ShareAlike 4.0 International License.
# To view a copy of this license, visit
# http://creativecommons.org/licenses/by-nc-sa/4.0/
# or send a letter to
# Creative Commons, PO Box 1866, Mountain View, CA 94042, USA.
#
# CIF created using the CSD Python API on 29 September 2022
# The structure has been converted into the P1 space group
# The structure has a 3D framework
# The original CSD entry TEXWIF is in the hexagonal crystal system
# The original CSD entry TEXWIF is in a Sohncke space group
# The framework has been calculated to contain at least 10.0% void space
# The void calculation uses a probe of radius 1.32A, grid spacing 0.4
# H atom positions have been added when not included in the experimental data
#
###############################################################################

data_TEXWIF
_chemical_formula_moiety         '(C48 H48 Ca2 Cu12 N12 O56)n'
_symmetry_cell_setting           triclinic
_symmetry_space_group_name_H-M   'P 1'
_symmetry_Int_Tables_number      1
_space_group_name_Hall           'P 1'
loop_
_symmetry_equiv_pos_site_id
_symmetry_equiv_pos_as_xyz
1 x,y,z
_cell_length_a                   17.9504(13)
_cell_length_b                   17.9504(13)
_cell_length_c                   12.5603(11)
_cell_angle_alpha                90
_cell_angle_beta                 90
_cell_angle_gamma                120
_cell_volume                     3504.93
loop_
_atom_site_label
_atom_site_type_symbol
_atom_site_fract_x
_atom_site_fract_y
_atom_site_fract_z
O2 O 0.6750(6) 0.2385(4) 0.7462(7)
O5 O 0.4441(6) 0.0227(4) 0.7418(8)
O6 O 0.7988(5) 0.2884(6) 0.6539(9)
N2 N 0.5903(9) 0.0980(6) 0.6354(8)
C1 C 0.7186(11) 0.2316(7) 0.6700(11)
C4 C 0.6764(11) 0.1561(7) 0.5939(10)
H2 H 0.7108 0.1265 0.5867
C6 C 0.5396(7) 0.0205(7) 0.6041(9)
C8 C 0.6651(24) 0.1941(14) 0.4770(11)
O9 O 0.664(6) 0.187(4) 0.3614(17)
Ca4 Ca 0.6667 0.3333 0.8860(4)
Cu8 Cu 0.55290(10) 0.13968(7) 0.75259(12)
Cu10 Cu 0.86032(7) 0.41322(12) 0.75259(12)
H7 H 0.714796 0.261273 0.485676
H8 H 0.60216 0.187836 0.489299
H9 H 0.617645 0.12893 0.339673
Cu1 Cu 0.44171(7) 0.86126(7) 0.51713(12)
Ca1 Ca 0.3333 0.6667 0.3860(4)
O1 O 0.3222(4) 0.7603(4) 0.5249(7)
O3 O 0.5499(4) 0.9784(4) 0.5303(7)
O4 O 0.4638(3) 0.8194(3) 0.3865(8)
N1 N 0.3990(6) 0.9015(5) 0.6331(8)
C2 C 0.2742(7) 0.7613(7) 0.5997(10)
C3 C 0.3116(8) 0.8467(9) 0.6682(13)
H1 H 0.3113 0.8327 0.7452
C5 C 0.4543(9) 0.9794(6) 0.6674(10)
O7 O 0.2017(5) 0.7037(6) 0.6201(8)
O8 O 0.2499(12) 0.9130(11) 0.5432(17)
C7 C 0.2527(8) 0.8874(9) 0.6506(17)
Cu2 Cu 0.44710(10) 0.86032(7) 0.25259(12)
O10 O 0.385(4) 0.925(2) 0.400(4)
Cu3 Cu 0.13874(7) 0.58045(10) 0.51713(12)
O11 O 0.2397(4) 0.5619(6) 0.5249(7)
O13 O 0.0216(4) 0.5715(6) 0.5303(7)
O14 O 0.1806(3) 0.6444(4) 0.3865(8)
N3 N 0.0985(5) 0.4975(8) 0.6331(8)
C10 C 0.2387(7) 0.5129(10) 0.5997(10)
C11 C 0.1533(9) 0.4649(12) 0.6682(13)
H3 H 0.1673 0.4786 0.7452
C13 C 0.0206(6) 0.4749(11) 0.6674(10)
O17 O 0.2963(6) 0.4980(8) 0.6201(8)
O18 O 0.0870(11) 0.3369(16) 0.5432(17)
C15 C 0.1126(9) 0.3653(12) 0.6506(17)
Cu4 Cu 0.13968(7) 0.58678(12) 0.25259(12)
O20 O 0.075(2) 0.460(4) 0.400(4)
Cu5 Cu 0.41955(10) 0.55829(7) 0.51713(12)
O21 O 0.4381(6) 0.6778(4) 0.5249(7)
O22 O 0.5635(7) 0.3250(6) 0.7462(7)
O23 O 0.4285(6) 0.4501(4) 0.5303(7)
O24 O 0.3556(4) 0.5362(3) 0.3865(8)
O25 O 0.5786(7) 0.5559(6) 0.7418(8)
O26 O 0.4896(8) 0.2012(5) 0.6539(9)
N5 N 0.5025(8) 0.6010(6) 0.6331(8)
N6 N 0.5077(11) 0.4097(9) 0.6354(8)
C17 C 0.5130(13) 0.2814(11) 0.6700(11)
C18 C 0.4871(10) 0.7258(7) 0.5997(10)
C19 C 0.5351(12) 0.6884(8) 0.6682(13)
H5 H 0.5214 0.6887 0.7452
C20 C 0.4797(13) 0.3236(11) 0.5939(10)
H6 H 0.4157 0.2892 0.5867
C21 C 0.5251(11) 0.5457(9) 0.6674(10)
O27 O 0.5020(8) 0.7983(5) 0.6201(8)
C22 C 0.4809(10) 0.4604(7) 0.6041(9)
O28 O 0.6631(16) 0.7501(12) 0.5432(17)
C23 C 0.6347(12) 0.7473(8) 0.6506(17)
C24 C 0.5290(28) 0.3349(24) 0.4770(11)
O29 O 0.523(7) 0.336(6) 0.3614(17)
Cu6 Cu 0.41322(12) 0.55290(10) 0.25259(12)
O30 O 0.540(4) 0.615(4) 0.400(4)
O31 O 0.3250(6) 0.7615(4) 0.2462(7)
O32 O 0.2385(4) 0.5635(7) 0.2462(7)
O33 O 0.4365(7) 0.6750(6) 0.2462(7)
O34 O 0.5559(6) 0.9773(4) 0.2418(8)
O35 O 0.0227(4) 0.5786(7) 0.2418(8)
O36 O 0.4214(7) 0.4441(6) 0.2418(8)
O37 O 0.2012(5) 0.7116(6) 0.1539(9)
O38 O 0.2884(6) 0.4896(8) 0.1539(9)
O39 O 0.5104(8) 0.7988(5) 0.1539(9)
N7 N 0.4097(9) 0.9020(6) 0.1354(8)
N8 N 0.0980(6) 0.5077(11) 0.1354(8)
N9 N 0.4923(11) 0.5903(9) 0.1354(8)
Cu12 Cu 0.58678(12) 0.44710(10) 0.75259(12)
H10 H 0.227585 0.862089 0.495664
H11 H 0.276457 0.944007 0.701261
H12 H 0.187473 0.840173 0.674345
H13 H 0.137911 0.365497 0.495664
H14 H 0.66755 0.723543 0.701261
H15 H 0.6527 0.812527 0.674345
H16 H 0.634503 0.772415 0.495664
H17 H 0.0559934 0.33245 0.701261
H18 H 0.159827 0.3473 0.674345
H20 H 0.546477 0.285204 0.485676
H21 H 0.585676 0.39784 0.489299
H22 H 0.511286 0.382355 0.339673
O12 O 0.7615(4) 0.4365(7) 0.7462(7)
O15 O 0.9773(4) 0.4214(7) 0.7418(8)
O16 O 0.7116(6) 0.5104(8) 0.6539(9)
N4 N 0.9020(6) 0.4923(11) 0.6354(8)
C9 C 0.7684(7) 0.4870(13) 0.6700(11)
C12 C 0.8439(7) 0.5203(13) 0.5939(10)
H4 H 0.8735 0.5843 0.5867
C14 C 0.9795(7) 0.5191(10) 0.6041(9)
C16 C 0.8059(14) 0.4710(28) 0.4770(11)
O19 O 0.813(4) 0.477(7) 0.3614(17)
H19 H 0.87107 0.488714 0.339673
H23 H 0.738727 0.453523 0.485676
H24 H 0.812164 0.414324 0.489299
C9_2 C 0.2316(7) 0.5130(13) 0.1700(11)
C12_2 C 0.1561(7) 0.4797(13) 0.0939(10)
H4_2 H 0.1265 0.4157 0.0867
C14_2 C 0.0205(7) 0.4809(10) 0.1041(9)
Cu1_2 Cu 0.55829(7) 0.13874(7) 0.01713(12)
O1_2 O 0.6778(4) 0.2397(4) 0.0249(7)
O3_2 O 0.4501(4) 0.0216(4) 0.0303(7)
N1_2 N 0.6010(6) 0.0985(5) 0.1331(8)
C2_2 C 0.7258(7) 0.2387(7) 0.0997(10)
C3_2 C 0.6884(8) 0.1533(9) 0.1682(13)
H1_2 H 0.6887 0.1673 0.2452
C5_2 C 0.5457(9) 0.0206(6) 0.1674(10)
O7_2 O 0.7983(5) 0.2963(6) 0.1201(8)
O8_2 O 0.7501(12) 0.0870(11) 0.0432(17)
C7_2 C 0.7473(8) 0.1126(9) 0.1506(17)
Cu3_2 Cu 0.86126(7) 0.41955(10) 0.01713(12)
O11_2 O 0.7603(4) 0.4381(6) 0.0249(7)
O13_2 O 0.9784(4) 0.4285(6) 0.0303(7)
N3_2 N 0.9015(5) 0.5025(8) 0.1331(8)
C10_2 C 0.7613(7) 0.4871(10) 0.0997(10)
C11_2 C 0.8467(9) 0.5351(12) 0.1682(13)
H3_2 H 0.8327 0.5214 0.2452
C13_2 C 0.9794(6) 0.5251(11) 0.1674(10)
O17_2 O 0.7037(6) 0.5020(8) 0.1201(8)
O18_2 O 0.9130(11) 0.6631(16) 0.0432(17)
C15_2 C 0.8874(9) 0.6347(12) 0.1506(17)
Cu5_2 Cu 0.58045(10) 0.44171(7) 0.01713(12)
O21_2 O 0.5619(6) 0.3222(4) 0.0249(7)
O23_2 O 0.5715(6) 0.5499(4) 0.0303(7)
N5_2 N 0.4975(8) 0.3990(6) 0.1331(8)
C17_2 C 0.4870(13) 0.7186(11) 0.1700(11)
C18_2 C 0.5129(10) 0.2742(7) 0.0997(10)
C19_2 C 0.4649(12) 0.3116(8) 0.1682(13)
H5_2 H 0.4786 0.3113 0.2452
C20_2 C 0.5203(13) 0.6764(11) 0.0939(10)
H6_2 H 0.5843 0.7108 0.0867
C21_2 C 0.4749(11) 0.4543(9) 0.1674(10)
O27_2 O 0.4980(8) 0.2017(5) 0.1201(8)
C22_2 C 0.5191(10) 0.5396(7) 0.1041(9)
O28_2 O 0.3369(16) 0.2499(12) 0.0432(17)
C23_2 C 0.3653(12) 0.2527(8) 0.1506(17)
H11_2 H 0.723543 0.0559934 0.201261
H12_2 H 0.812527 0.159827 0.174345
H14_2 H 0.33245 0.276457 0.201261
H15_2 H 0.3473 0.187473 0.174345
H17_2 H 0.944007 0.66755 0.201261
H18_2 H 0.840173 0.6527 0.174345
O4_2 O 0.5362(3) 0.1806(3) 0.8865(8)
O10_2 O 0.615(4) 0.075(2) 0.900(4)
O14_2 O 0.8194(3) 0.3556(4) 0.8865(8)
O20_2 O 0.925(2) 0.540(4) 0.900(4)
O24_2 O 0.6444(4) 0.4638(3) 0.8865(8)
C24_2 C 0.4710(28) 0.6651(24) 0.9770(11)
O29_2 O 0.477(7) 0.664(6) 0.8614(17)
O30_2 O 0.460(4) 0.385(4) 0.900(4)
H10_2 H 0.772415 0.137911 0.995664
H13_2 H 0.862089 0.634503 0.995664
H16_2 H 0.365497 0.227585 0.995664
H20_2 H 0.453523 0.714796 0.985676
H21_2 H 0.414324 0.60216 0.989299
H22_2 H 0.488714 0.617645 0.839673
C1_2 C 0.2814(11) 0.7684(7) 0.1700(11)
C4_2 C 0.3236(11) 0.8439(7) 0.0939(10)
H2_2 H 0.2892 0.8735 0.0867
C6_2 C 0.4604(7) 0.9795(7) 0.1041(9)
C16_2 C 0.1941(14) 0.5290(28) 0.9770(11)
O19_2 O 0.187(4) 0.523(7) 0.8614(17)
H19_2 H 0.12893 0.511286 0.839673
H23_2 H 0.261273 0.546477 0.985676
H24_2 H 0.187836 0.585676 0.989299
C8_2 C 0.3349(24) 0.8059(14) 0.9770(11)
O9_2 O 0.336(6) 0.813(4) 0.8614(17)
H7_2 H 0.285204 0.738727 0.985676
H8_2 H 0.39784 0.812164 0.989299
H9_2 H 0.382355 0.87107 0.839673
loop_
_geom_bond_atom_site_label_1
_geom_bond_atom_site_label_2
_geom_bond_site_symmetry_1
_geom_bond_site_symmetry_2
O2 C1 1_555 1_555
O6 C1 1_555 1_555
N2 C4 1_555 1_555
C1 C4 1_555 1_555
C4 H2 1_555 1_555
C8 C4 1_555 1_555
O9 C8 1_555 1_555
Ca4 O2 1_555 1_555
Cu8 O2 1_555 1_555
Cu10 O6 1_555 1_555
O5 Cu8 1_555 1_555
N2 C6 1_555 1_555
N2 Cu8 1_555 1_555
C8 H7 1_555 1_555
C8 H8 1_555 1_555
O9 H9 1_555 1_555
Cu1 O1 1_555 1_555
Ca1 O1 1_555 1_555
O1 C2 1_555 1_555
O3 Cu1 1_555 1_555
O4 Cu1 1_555 1_555
N1 Cu1 1_555 1_555
C2 C3 1_555 1_555
C3 N1 1_555 1_555
H1 C3 1_555 1_555
C5 N1 1_555 1_555
O7 C2 1_555 1_555
O8 C7 1_555 1_555
C7 C3 1_555 1_555
Cu2 O4 1_555 1_555
O10 Cu1 1_555 1_555
Cu3 O7 1_555 1_555
O11 Ca1 1_555 1_555
O13 Cu3 1_555 1_555
O14 Ca1 1_555 1_555
N3 Cu3 1_555 1_555
C10 O11 1_555 1_555
C11 N3 1_555 1_555
H3 C11 1_555 1_555
C13 N3 1_555 1_555
O17 C10 1_555 1_555
O18 C15 1_555 1_555
C15 C11 1_555 1_555
Cu4 O14 1_555 1_555
O20 Cu3 1_555 1_555
Cu5 O17 1_555 1_555
O21 Ca1 1_555 1_555
O22 C17 1_555 1_555
O23 Cu5 1_555 1_555
O24 Ca1 1_555 1_555
O25 C21 1_555 1_555
O26 C17 1_555 1_555
N5 Cu5 1_555 1_555
N6 C20 1_555 1_555
C17 C20 1_555 1_555
C18 O21 1_555 1_555
C19 N5 1_555 1_555
H5 C19 1_555 1_555
C20 H6 1_555 1_555
C21 N5 1_555 1_555
O27 Cu1 1_555 1_555
C22 O23 1_555 1_555
O28 C23 1_555 1_555
C23 C19 1_555 1_555
C24 C20 1_555 1_555
O29 C24 1_555 1_555
Cu6 O24 1_555 1_555
O30 Cu5 1_555 1_555
Ca4 O22 1_555 1_555
O31 Ca1 1_555 1_555
O32 Ca1 1_555 1_555
O33 Ca1 1_555 1_555
O34 Cu2 1_555 1_555
O35 Cu4 1_555 1_555
O36 Cu6 1_555 1_555
O37 Cu4 1_555 1_555
O38 Cu6 1_555 1_555
O39 Cu2 1_555 1_555
N7 Cu2 1_555 1_555
N8 Cu4 1_555 1_555
N9 Cu6 1_555 1_555
Cu8 O26 1_555 1_555
Cu12 O22 1_555 1_555
Ca1 O4 1_555 1_555
Cu2 O10 1_555 1_555
Cu2 O31 1_555 1_555
Cu3 O11 1_555 1_555
Cu3 O14 1_555 1_555
C10 C11 1_555 1_555
Cu4 O20 1_555 1_555
Cu4 O32 1_555 1_555
Cu5 O21 1_555 1_555
Cu5 O24 1_555 1_555
O25 Cu12 1_555 1_555
N6 C22 1_555 1_555
N6 Cu12 1_555 1_555
C18 C19 1_555 1_555
C18 O27 1_555 1_555
C21 C22 1_555 1_555
Cu6 O30 1_555 1_555
Cu6 O33 1_555 1_555
O8 H10 1_555 1_555
C7 H11 1_555 1_555
C7 H12 1_555 1_555
O18 H13 1_555 1_555
C23 H14 1_555 1_555
C23 H15 1_555 1_555
O28 H16 1_555 1_555
C15 H17 1_555 1_555
C15 H18 1_555 1_555
C24 H20 1_555 1_555
C24 H21 1_555 1_555
O29 H22 1_555 1_555
O12 C9 1_555 1_555
O16 C9 1_555 1_555
N4 C12 1_555 1_555
C9 C12 1_555 1_555
C12 H4 1_555 1_555
C16 C12 1_555 1_555
O19 C16 1_555 1_555
Ca4 O12 1_555 1_555
Cu10 O12 1_555 1_555
Cu12 O16 1_555 1_555
O15 Cu10 1_555 1_555
N4 C14 1_555 1_555
N4 Cu10 1_555 1_555
O19 H19 1_555 1_555
C16 H23 1_555 1_555
C16 H24 1_555 1_555
O32 C9_2 1_555 1_555
O38 C9_2 1_555 1_555
N8 C12_2 1_555 1_555
C9_2 C12_2 1_555 1_555
C12_2 H4_2 1_555 1_555
N8 C14_2 1_555 1_555
Cu1_2 O1_2 1_555 1_555
O1_2 C2_2 1_555 1_555
O3_2 Cu1_2 1_555 1_555
N1_2 Cu1_2 1_555 1_555
C2_2 C3_2 1_555 1_555
C3_2 N1_2 1_555 1_555
H1_2 C3_2 1_555 1_555
C5_2 N1_2 1_555 1_555
O7_2 C2_2 1_555 1_555
O8_2 C7_2 1_555 1_555
C7_2 C3_2 1_555 1_555
Cu3_2 O7_2 1_555 1_555
O13_2 Cu3_2 1_555 1_555
N3_2 Cu3_2 1_555 1_555
C10_2 O11_2 1_555 1_555
C11_2 N3_2 1_555 1_555
H3_2 C11_2 1_555 1_555
C13_2 N3_2 1_555 1_555
O17_2 C10_2 1_555 1_555
O18_2 C15_2 1_555 1_555
C15_2 C11_2 1_555 1_555
Cu5_2 O17_2 1_555 1_555
O33 C17_2 1_555 1_555
O23_2 Cu5_2 1_555 1_555
O36 C21_2 1_555 1_555
O39 C17_2 1_555 1_555
N5_2 Cu5_2 1_555 1_555
N9 C20_2 1_555 1_555
C17_2 C20_2 1_555 1_555
C18_2 O21_2 1_555 1_555
C19_2 N5_2 1_555 1_555
H5_2 C19_2 1_555 1_555
C20_2 H6_2 1_555 1_555
C21_2 N5_2 1_555 1_555
O27_2 Cu1_2 1_555 1_555
C22_2 O23_2 1_555 1_555
O28_2 C23_2 1_555 1_555
C23_2 C19_2 1_555 1_555
Cu3_2 O11_2 1_555 1_555
C10_2 C11_2 1_555 1_555
Cu5_2 O21_2 1_555 1_555
N9 C22_2 1_555 1_555
C18_2 C19_2 1_555 1_555
C18_2 O27_2 1_555 1_555
C21_2 C22_2 1_555 1_555
C7_2 H11_2 1_555 1_555
C7_2 H12_2 1_555 1_555
C23_2 H14_2 1_555 1_555
C23_2 H15_2 1_555 1_555
C15_2 H17_2 1_555 1_555
C15_2 H18_2 1_555 1_555
Cu8 O4_2 1_555 1_555
O14_2 Ca4 1_555 1_555
Cu10 O14_2 1_555 1_555
O24_2 Ca4 1_555 1_555
O29_2 C24_2 1_555 1_555
Cu12 O24_2 1_555 1_555
Ca4 O4_2 1_555 1_555
Cu8 O10_2 1_555 1_555
Cu10 O20_2 1_555 1_555
Cu12 O30_2 1_555 1_555
C24_2 H20_2 1_555 1_555
C24_2 H21_2 1_555 1_555
O29_2 H22_2 1_555 1_555
O31 C1_2 1_555 1_555
O37 C1_2 1_555 1_555
N7 C4_2 1_555 1_555
C1_2 C4_2 1_555 1_555
C4_2 H2_2 1_555 1_555
N7 C6_2 1_555 1_555
O19_2 C16_2 1_555 1_555
O19_2 H19_2 1_555 1_555
C16_2 H23_2 1_555 1_555
C16_2 H24_2 1_555 1_555
O9_2 C8_2 1_555 1_555
C8_2 H7_2 1_555 1_555
C8_2 H8_2 1_555 1_555
O9_2 H9_2 1_555 1_555

#END
