
###############################################################################
#
# This file contains modified crystal structure data generated from the
# MOF subset of the Cambridge Structural Database (CSD) v543 
# hosted by the Cambridge Crystallographic Data Centre (CCDC).
#
# This work is licensed under the Creative Commons
# Attribution-NonCommercial-ShareAlike 4.0 International License.
# To view a copy of this license, visit
# http://creativecommons.org/licenses/by-nc-sa/4.0/
# or send a letter to
# Creative Commons, PO Box 1866, Mountain View, CA 94042, USA.
#
# CIF created using the CSD Python API on 29 September 2022
# The structure has been converted into the P1 space group
# The structure has a 3D framework
# The original CSD entry TEXWOL is in the orthorhombic crystal system
# The framework has been calculated to contain at least 10.0% void space
# The void calculation uses a probe of radius 1.32A, grid spacing 0.4
# The framework is charged, counterions have been retained in the structure
# H atom positions have been added when not included in the experimental data
#
###############################################################################

data_TEXWOL
_chemical_formula_moiety         '(C216 H184 N56 O8 Zn8 16+)n'
_symmetry_cell_setting           triclinic
_symmetry_space_group_name_H-M   'P 1'
_symmetry_Int_Tables_number      1
_space_group_name_Hall           'P 1'
loop_
_symmetry_equiv_pos_site_id
_symmetry_equiv_pos_as_xyz
1 x,y,z
_cell_length_a                   28.6596(7)
_cell_length_b                   27.8917(8)
_cell_length_c                   9.5500(3)
_cell_angle_alpha                90
_cell_angle_beta                 90
_cell_angle_gamma                90
_cell_volume                     7633.94
loop_
_atom_site_label
_atom_site_type_symbol
_atom_site_fract_x
_atom_site_fract_y
_atom_site_fract_z
C22 C 0.56543(19) 0.5570(2) 0.0564(6)
H16 H 0.5833 0.5571 0.1376
C23 C 0.52804(19) 0.5833(2) 0.0353(6)
H17 H 0.5151 0.6051 0.0978
O1 O 0.6727(4) 0.4881(4) 0.0876(8)
H22 H 0.65447 0.473489 0.165045
H23 H 0.701157 0.468688 0.0701536
Zn1 Zn 0.63096(2) 0.48998(2) 0.90184(7)
N1 N 0.39424(12) 0.84438(12) 0.3794(3)
N2 N 0.51178(13) 0.57267(14) 0.9040(4)
N3 N 0.38854(13) 0.92207(13) 0.3588(4)
N4 N 0.57405(13) 0.52925(15) 0.9403(4)
N5 N 0.36648(12) 0.65935(15) 0.5979(4)
N6 N 0.20984(14) 0.55594(17) 0.4085(4)
N7 N 0.16163(14) 0.51737(15) 0.2691(5)
C1 C 0.47294(14) 0.59395(16) 0.8317(5)
C2 C 0.41697(15) 0.71995(15) 0.4924(4)
H1 H 0.4418 0.6985 0.4960
C3 C 0.42375(15) 0.76516(15) 0.4371(4)
H2 H 0.4530 0.7744 0.4051
C4 C 0.38668(15) 0.79633(15) 0.4300(4)
C5 C 0.40198(14) 0.63690(15) 0.6788(4)
C6 C 0.42707(15) 0.85822(17) 0.2848(5)
H3 H 0.4481 0.8385 0.2382
C7 C 0.37202(15) 0.88437(17) 0.4228(5)
H4 H 0.3482 0.8850 0.4890
C8 C 0.42974(15) 0.66358(16) 0.7662(4)
H5 H 0.4243 0.6963 0.7757
C9 C 0.37379(15) 0.70607(16) 0.5423(5)
C10 C 0.24991(15) 0.58241(17) 0.4565(6)
C11 C 0.42302(17) 0.90597(18) 0.2720(5)
H6 H 0.4409 0.9251 0.2132
C12 C 0.32710(15) 0.63263(16) 0.5503(5)
C13 C 0.46543(15) 0.64261(16) 0.8398(5)
H7 H 0.4847 0.6614 0.8956
C14 C 0.31546(16) 0.6329(2) 0.4114(5)
H8 H 0.3338 0.6499 0.3484
C15 C 0.34296(16) 0.78336(17) 0.4807(6)
H9 H 0.3181 0.8047 0.4772
C16 C 0.20203(15) 0.53975(17) 0.2768(6)
H10 H 0.2224 0.5439 0.2020
C17 C 0.44410(16) 0.56636(18) 0.7500(6)
H11 H 0.4481 0.5333 0.7467
C18 C 0.33740(16) 0.73798(18) 0.5365(6)
H12 H 0.3084 0.7289 0.5708
C19 C 0.40913(17) 0.58797(16) 0.6727(6)
H13 H 0.3901 0.5693 0.6156
C20 C 0.54055(17) 0.53970(18) 0.8517(6)
H14 H 0.5373 0.5259 0.7636
C21 C 0.27672(18) 0.6080(2) 0.3630(6)
H15 H 0.2690 0.6086 0.2685
C24 C 0.2608(2) 0.5829(3) 0.5945(6)
H18 H 0.2420 0.5666 0.6582
C25 C 0.2998(2) 0.6076(3) 0.6411(6)
H19 H 0.3074 0.6070 0.7358
C26 C 0.1728(2) 0.5424(3) 0.4859(7)
H20 H 0.1679 0.5481 0.5807
C27 C 0.1440(3) 0.5185(3) 0.3960(8)
H21 H 0.1156 0.5049 0.4213
Zn2 Zn 0.13096(2) 0.48998(2) 0.09816(7)
Zn3 Zn 0.36904(2) 0.98998(2) 0.40184(7)
N8 N 0.61146(13) 0.42207(13) 0.8588(4)
N9 N 0.66163(14) 0.51737(15) 0.7309(5)
N1_2 N 0.10576(12) 0.34438(12) 0.1206(3)
N3_2 N 0.11146(13) 0.42207(13) 0.1412(4)
N6_2 N 0.29016(14) 0.05594(17) 0.0915(4)
N7_2 N 0.33837(14) 0.01737(15) 0.2309(5)
C2_2 C 0.08303(15) 0.21995(15) 0.0076(4)
H1_2 H 0.0582 0.1985 0.0040
C3_2 C 0.07625(15) 0.26516(15) 0.0629(4)
H2_2 H 0.0470 0.2744 0.0949
C4_2 C 0.11332(15) 0.29633(15) 0.0700(4)
C6_2 C 0.07293(15) 0.35822(17) 0.2152(5)
H3_2 H 0.0519 0.3385 0.2618
C7_2 C 0.12798(15) 0.38437(17) 0.0772(5)
H4_2 H 0.1518 0.3850 0.0110
C10_2 C 0.25009(15) 0.08241(17) 0.0435(6)
C11_2 C 0.07698(17) 0.40597(18) 0.2280(5)
H6_2 H 0.0591 0.4251 0.2868
C14_2 C 0.18454(16) 0.1329(2) 0.0886(5)
H8_2 H 0.1662 0.1499 0.1516
C15_2 C 0.15704(16) 0.28336(17) 0.0193(6)
H9_2 H 0.1819 0.3047 0.0228
C16_2 C 0.29797(15) 0.03975(17) 0.2232(6)
H10_2 H 0.2776 0.0439 0.2980
C21_2 C 0.22328(18) 0.1080(2) 0.1370(6)
H15_2 H 0.2310 0.1086 0.2315
C26_2 C 0.3272(2) 0.0424(3) 0.0141(7)
C27_2 C 0.3560(3) 0.0185(3) 0.1040(8)
H21_2 H 0.3844 0.0049 0.0787
N2_2 N 0.98822(13) 0.07267(14) 0.5960(4)
N4_2 N 0.92595(13) 0.02925(15) 0.5597(4)
C20_2 C 0.95945(17) 0.03970(18) 0.6483(6)
H14_2 H 0.9627 0.0259 0.7364
C22_2 C 0.93457(19) 0.0570(2) 0.4436(6)
H16_2 H 0.9167 0.0571 0.3624
C23_2 C 0.97196(19) 0.0833(2) 0.4647(6)
H17_2 H 0.9849 0.1051 0.4022
N9_2 N 0.83837(14) 0.01737(15) 0.7691(5)
Zn1_2 Zn 0.86904(2) 0.98998(2) 0.59816(7)
O1_2 O 0.8273(4) 0.9881(4) 0.4124(8)
N8_2 N 0.88854(13) 0.92207(13) 0.6412(4)
H22_2 H 0.84553 0.973489 0.334955
H23_2 H 0.798843 0.968688 0.429846
N2_3 N 0.01178(13) 0.57267(14) 0.0960(4)
N4_3 N 0.07405(13) 0.52925(15) 0.0597(4)
C20_3 C 0.04055(17) 0.53970(18) 0.1483(6)
H14_3 H 0.0373 0.5259 0.2364
N1_3 N 0.89424(12) 0.84438(12) 0.6206(3)
N5_2 N 0.86648(12) 0.65935(15) 0.4021(4)
N6_3 N 0.70984(14) 0.55594(17) 0.5915(4)
C1_2 C 0.97294(14) 0.59395(16) 0.1683(5)
C2_3 C 0.91697(15) 0.71995(15) 0.5076(4)
H1_3 H 0.9418 0.6985 0.5040
C3_3 C 0.92375(15) 0.76516(15) 0.5629(4)
H2_3 H 0.9530 0.7744 0.5949
C4_3 C 0.88668(15) 0.79633(15) 0.5700(4)
C5_2 C 0.90198(14) 0.63690(15) 0.3212(4)
C6_3 C 0.92707(15) 0.85822(17) 0.7152(5)
H3_3 H 0.9481 0.8385 0.7618
C7_3 C 0.87202(15) 0.88437(17) 0.5772(5)
H4_3 H 0.8482 0.8850 0.5110
C8_2 C 0.92974(15) 0.66358(16) 0.2338(4)
H5_2 H 0.9243 0.6963 0.2243
C9_2 C 0.87379(15) 0.70607(16) 0.4577(5)
C10_3 C 0.74991(15) 0.58241(17) 0.5435(6)
C11_3 C 0.92302(17) 0.90597(18) 0.7280(5)
H6_3 H 0.9409 0.9251 0.7868
C12_2 C 0.82710(15) 0.63263(16) 0.4497(5)
C13_2 C 0.96543(15) 0.64261(16) 0.1602(5)
H7_2 H 0.9847 0.6614 0.1044
C14_3 C 0.81546(16) 0.6329(2) 0.5886(5)
H8_3 H 0.8338 0.6499 0.6516
C15_3 C 0.84296(16) 0.78336(17) 0.5193(6)
H9_3 H 0.8181 0.8047 0.5228
C16_3 C 0.70203(15) 0.53975(17) 0.7232(6)
H10_3 H 0.7224 0.5439 0.7980
C17_2 C 0.94410(16) 0.56636(18) 0.2500(6)
H11_2 H 0.9481 0.5333 0.2533
C18_2 C 0.83740(16) 0.73798(18) 0.4635(6)
H12_2 H 0.8084 0.7289 0.4292
C19_2 C 0.90913(17) 0.58797(16) 0.3273(6)
H13_2 H 0.8901 0.5693 0.3844
C21_3 C 0.77672(18) 0.6080(2) 0.6370(6)
H15_3 H 0.7690 0.6086 0.7315
C24_2 C 0.7608(2) 0.5829(3) 0.4055(6)
H18_2 H 0.7420 0.5666 0.3418
C25_2 C 0.7998(2) 0.6076(3) 0.3589(6)
H19_2 H 0.8074 0.6070 0.2642
C26_3 C 0.6728(2) 0.5424(3) 0.5141(7)
H20_2 H 0.6679 0.5481 0.4193
C27_3 C 0.6440(3) 0.5185(3) 0.6040(8)
H21_3 H 0.6156 0.5049 0.5787
N2_4 N 0.48822(13) 0.07267(14) 0.4040(4)
N4_4 N 0.42595(13) 0.02925(15) 0.4403(4)
N5_3 N 0.63352(12) 0.15935(15) 0.0979(4)
C1_3 C 0.52706(14) 0.09395(16) 0.3317(5)
C5_3 C 0.59802(14) 0.13690(15) 0.1788(4)
C8_3 C 0.57026(15) 0.16358(16) 0.2662(4)
H5_3 H 0.5757 0.1963 0.2757
C9_3 C 0.62621(15) 0.20607(16) 0.0423(5)
C12_3 C 0.67290(15) 0.13263(16) 0.0503(5)
C13_3 C 0.53457(15) 0.14261(16) 0.3398(5)
H7_3 H 0.5153 0.1614 0.3956
C17_3 C 0.55590(16) 0.06636(18) 0.2500(6)
H11_3 H 0.5519 0.0333 0.2467
C18_3 C 0.66260(16) 0.23798(18) 0.0365(6)
H12_3 H 0.6916 0.2289 0.0708
C19_3 C 0.59087(17) 0.08797(16) 0.1727(6)
H13_3 H 0.6099 0.0693 0.1156
C20_4 C 0.45945(17) 0.03970(18) 0.3517(6)
H14_4 H 0.4627 0.0259 0.2636
C22_3 C 0.43457(19) 0.0570(2) 0.5564(6)
H16_3 H 0.4167 0.0571 0.6376
C23_3 C 0.47196(19) 0.0833(2) 0.5353(6)
H17_3 H 0.4849 0.1051 0.5978
C24_3 C 0.7392(2) 0.0829(3) 0.0945(6)
H18_3 H 0.7580 0.0666 0.1582
C25_3 C 0.7002(2) 0.1076(3) 0.1411(6)
H19_3 H 0.6926 0.1070 0.2358
H20_3 H 0.8321 0.0481 0.0807
N1_4 N 0.60576(12) 0.34438(12) 0.8794(3)
N6_4 N 0.79016(14) 0.05594(17) 0.9085(4)
C2_4 C 0.58303(15) 0.21995(15) 0.9924(4)
H1_4 H 0.5582 0.1985 0.9960
C3_4 C 0.57625(15) 0.26516(15) 0.9371(4)
H2_4 H 0.5470 0.2744 0.9051
C4_4 C 0.61332(15) 0.29633(15) 0.9300(4)
C6_4 C 0.57293(15) 0.35822(17) 0.7848(5)
H3_4 H 0.5519 0.3385 0.7382
C7_4 C 0.62798(15) 0.38437(17) 0.9228(5)
H4_4 H 0.6518 0.3850 0.9890
C10_4 C 0.75009(15) 0.08241(17) 0.9565(6)
C11_4 C 0.57698(17) 0.40597(18) 0.7720(5)
H6_4 H 0.5591 0.4251 0.7132
C14_4 C 0.68454(16) 0.1329(2) 0.9114(5)
H8_4 H 0.6662 0.1499 0.8484
C15_4 C 0.65704(16) 0.28336(17) 0.9807(6)
H9_4 H 0.6819 0.3047 0.9772
C16_4 C 0.79797(15) 0.03975(17) 0.7768(6)
H10_4 H 0.7776 0.0439 0.7020
C21_4 C 0.72328(18) 0.1080(2) 0.8630(6)
H15_4 H 0.7310 0.1086 0.7685
C26_4 C 0.8272(2) 0.0424(3) 0.9859(7)
C27_4 C 0.8560(3) 0.0185(3) 0.8960(8)
H21_4 H 0.8844 0.0049 0.9213
O1_3 O 0.3273(4) 0.9881(4) 0.5876(8)
H22_3 H 0.34553 0.973489 0.665045
H23_3 H 0.298843 0.968688 0.570154
N1_5 N 0.10576(12) 0.15562(12) 0.3794(3)
N3_3 N 0.11146(13) 0.07793(13) 0.3588(4)
N5_4 N 0.13352(12) 0.34065(15) 0.5979(4)
N6_5 N 0.29016(14) 0.44406(17) 0.4085(4)
N7_3 N 0.33837(14) 0.48263(15) 0.2691(5)
C1_4 C 0.02706(14) 0.40605(16) 0.8317(5)
C2_5 C 0.08303(15) 0.28005(15) 0.4924(4)
H1_5 H 0.0582 0.3015 0.4960
C3_5 C 0.07625(15) 0.23484(15) 0.4371(4)
H2_5 H 0.0470 0.2256 0.4051
C4_5 C 0.11332(15) 0.20367(15) 0.4300(4)
C5_4 C 0.09802(14) 0.36310(15) 0.6788(4)
C6_5 C 0.07293(15) 0.14178(17) 0.2848(5)
H3_5 H 0.0519 0.1615 0.2382
C7_5 C 0.12798(15) 0.11563(17) 0.4228(5)
H4_5 H 0.1518 0.1150 0.4890
C8_4 C 0.07026(15) 0.33642(16) 0.7662(4)
H5_4 H 0.0757 0.3037 0.7757
C9_4 C 0.12621(15) 0.29393(16) 0.5423(5)
C10_5 C 0.25009(15) 0.41759(17) 0.4565(6)
C11_5 C 0.07698(17) 0.09403(18) 0.2720(5)
H6_5 H 0.0591 0.0749 0.2132
C12_4 C 0.17290(15) 0.36737(16) 0.5503(5)
C13_4 C 0.03457(15) 0.35739(16) 0.8398(5)
H7_4 H 0.0153 0.3386 0.8956
C14_5 C 0.18454(16) 0.3671(2) 0.4114(5)
H8_5 H 0.1662 0.3501 0.3484
C15_5 C 0.15704(16) 0.21664(17) 0.4807(6)
H9_5 H 0.1819 0.1953 0.4772
C16_5 C 0.29797(15) 0.46025(17) 0.2768(6)
H10_5 H 0.2776 0.4561 0.2020
C17_4 C 0.05590(16) 0.43364(18) 0.7500(6)
H11_4 H 0.0519 0.4667 0.7467
C18_4 C 0.16260(16) 0.26202(18) 0.5365(6)
H12_4 H 0.1916 0.2711 0.5708
C19_4 C 0.09087(17) 0.41203(16) 0.6727(6)
H13_4 H 0.1099 0.4307 0.6156
C21_5 C 0.22328(18) 0.3920(2) 0.3630(6)
H15_5 H 0.2310 0.3914 0.2685
C24_4 C 0.2392(2) 0.4171(3) 0.5945(6)
H18_4 H 0.2580 0.4334 0.6582
C25_4 C 0.2002(2) 0.3924(3) 0.6411(6)
H19_4 H 0.1926 0.3930 0.7358
C26_5 C 0.3272(2) 0.4576(3) 0.4859(7)
H20_4 H 0.3321 0.4519 0.5807
C27_5 C 0.3560(3) 0.4815(3) 0.3960(8)
H21_5 H 0.3844 0.4951 0.4213
Zn2_2 Zn 0.36904(2) 0.51002(2) 0.09816(7)
Zn3_2 Zn 0.13096(2) 0.01002(2) 0.40184(7)
Zn1_3 Zn 0.86904(2) 0.51002(2) 0.90184(7)
N2_5 N 0.98822(13) 0.42733(14) 0.9040(4)
N4_5 N 0.92595(13) 0.47075(15) 0.9403(4)
C20_5 C 0.95945(17) 0.46030(18) 0.8517(6)
H14_5 H 0.9627 0.4741 0.7636
N8_3 N 0.88854(13) 0.57793(13) 0.8588(4)
N9_3 N 0.83837(14) 0.48263(15) 0.7309(5)
Zn1_4 Zn 0.63096(2) 0.01002(2) 0.59816(7)
O1_4 O 0.6727(4) 0.0119(4) 0.4124(8)
N8_4 N 0.61146(13) 0.07793(13) 0.6412(4)
H22_4 H 0.65447 0.0265109 0.334955
H23_4 H 0.701157 0.0313118 0.429846
N1_6 N 0.39424(12) 0.65562(12) 0.1206(3)
N3_4 N 0.38854(13) 0.57793(13) 0.1412(4)
N6_6 N 0.20984(14) 0.94406(17) 0.0915(4)
N7_4 N 0.16163(14) 0.98263(15) 0.2309(5)
C2_6 C 0.41697(15) 0.78005(15) 0.0076(4)
H1_6 H 0.4418 0.8015 0.0040
C3_6 C 0.42375(15) 0.73484(15) 0.0629(4)
H2_6 H 0.4530 0.7256 0.0949
C4_6 C 0.38668(15) 0.70367(15) 0.0700(4)
C6_6 C 0.42707(15) 0.64178(17) 0.2152(5)
H3_6 H 0.4481 0.6615 0.2618
C7_6 C 0.37202(15) 0.61563(17) 0.0772(5)
H4_6 H 0.3482 0.6150 0.0110
C10_6 C 0.24991(15) 0.91759(17) 0.0435(6)
C11_6 C 0.42302(17) 0.59403(18) 0.2280(5)
H6_6 H 0.4409 0.5749 0.2868
C14_6 C 0.31546(16) 0.8671(2) 0.0886(5)
H8_6 H 0.3338 0.8501 0.1516
C15_6 C 0.34296(16) 0.71664(17) 0.0193(6)
H9_6 H 0.3181 0.6953 0.0228
C16_6 C 0.20203(15) 0.96025(17) 0.2232(6)
H10_6 H 0.2224 0.9561 0.2980
C21_6 C 0.27672(18) 0.8920(2) 0.1370(6)
H15_6 H 0.2690 0.8914 0.2315
C26_6 C 0.1728(2) 0.9576(3) 0.0141(7)
C27_6 C 0.1440(3) 0.9815(3) 0.1040(8)
H21_6 H 0.1156 0.9951 0.0787
N2_6 N 0.51178(13) 0.92733(14) 0.5960(4)
N4_6 N 0.57405(13) 0.97075(15) 0.5597(4)
N5_5 N 0.36648(12) 0.84065(15) 0.9021(4)
C1_5 C 0.47294(14) 0.90605(16) 0.6683(5)
C5_5 C 0.40198(14) 0.86310(15) 0.8212(4)
C8_5 C 0.42974(15) 0.83642(16) 0.7338(4)
H5_5 H 0.4243 0.8037 0.7243
C9_5 C 0.37379(15) 0.79393(16) 0.9577(5)
C12_5 C 0.32710(15) 0.86737(16) 0.9497(5)
C13_5 C 0.46543(15) 0.85739(16) 0.6602(5)
H7_5 H 0.4847 0.8386 0.6044
C17_5 C 0.44410(16) 0.93364(18) 0.7500(6)
H11_5 H 0.4481 0.9667 0.7533
C18_5 C 0.33740(16) 0.76202(18) 0.9635(6)
H12_5 H 0.3084 0.7711 0.9292
C19_5 C 0.40913(17) 0.91203(16) 0.8273(6)
H13_5 H 0.3901 0.9307 0.8844
C20_6 C 0.54055(17) 0.96030(18) 0.6483(6)
H14_6 H 0.5373 0.9741 0.7364
C22_4 C 0.56543(19) 0.9430(2) 0.4436(6)
H16_4 H 0.5833 0.9429 0.3624
C23_4 C 0.52804(19) 0.9167(2) 0.4647(6)
H17_4 H 0.5151 0.8949 0.4022
C24_5 C 0.2608(2) 0.9171(3) 0.9055(6)
H18_5 H 0.2420 0.9334 0.8418
C25_5 C 0.2998(2) 0.8924(3) 0.8589(6)
H19_5 H 0.3074 0.8930 0.7642
H20_5 H 0.1679 0.9519 0.9193
N9_4 N 0.66163(14) 0.98263(15) 0.7691(5)
N1_7 N 0.60576(12) 0.15562(12) 0.6206(3)
N2_7 N 0.48822(13) 0.42733(14) 0.0960(4)
N4_7 N 0.42595(13) 0.47075(15) 0.0597(4)
N5_6 N 0.63352(12) 0.34065(15) 0.4021(4)
N6_7 N 0.79016(14) 0.44406(17) 0.5915(4)
C1_6 C 0.52706(14) 0.40605(16) 0.1683(5)
C2_7 C 0.58303(15) 0.28005(15) 0.5076(4)
H1_7 H 0.5582 0.3015 0.5040
C3_7 C 0.57625(15) 0.23484(15) 0.5629(4)
H2_7 H 0.5470 0.2256 0.5949
C4_7 C 0.61332(15) 0.20367(15) 0.5700(4)
C5_6 C 0.59802(14) 0.36310(15) 0.3212(4)
C6_7 C 0.57293(15) 0.14178(17) 0.7152(5)
H3_7 H 0.5519 0.1615 0.7618
C7_7 C 0.62798(15) 0.11563(17) 0.5772(5)
H4_7 H 0.6518 0.1150 0.5110
C8_6 C 0.57026(15) 0.33642(16) 0.2338(4)
H5_6 H 0.5757 0.3037 0.2243
C9_6 C 0.62621(15) 0.29393(16) 0.4577(5)
C10_7 C 0.75009(15) 0.41759(17) 0.5435(6)
C11_7 C 0.57698(17) 0.09403(18) 0.7280(5)
H6_7 H 0.5591 0.0749 0.7868
C12_6 C 0.67290(15) 0.36737(16) 0.4497(5)
C13_6 C 0.53457(15) 0.35739(16) 0.1602(5)
H7_6 H 0.5153 0.3386 0.1044
C14_7 C 0.68454(16) 0.3671(2) 0.5886(5)
H8_7 H 0.6662 0.3501 0.6516
C15_7 C 0.65704(16) 0.21664(17) 0.5193(6)
H9_7 H 0.6819 0.1953 0.5228
C16_7 C 0.79797(15) 0.46025(17) 0.7232(6)
H10_7 H 0.7776 0.4561 0.7980
C17_6 C 0.55590(16) 0.43364(18) 0.2500(6)
H11_6 H 0.5519 0.4667 0.2533
C18_6 C 0.66260(16) 0.26202(18) 0.4635(6)
H12_6 H 0.6916 0.2711 0.4292
C19_6 C 0.59087(17) 0.41203(16) 0.3273(6)
H13_6 H 0.6099 0.4307 0.3844
C20_7 C 0.45945(17) 0.46030(18) 0.1483(6)
H14_7 H 0.4627 0.4741 0.2364
C21_7 C 0.72328(18) 0.3920(2) 0.6370(6)
H15_7 H 0.7310 0.3914 0.7315
C24_6 C 0.7392(2) 0.4171(3) 0.4055(6)
H18_6 H 0.7580 0.4334 0.3418
C25_6 C 0.7002(2) 0.3924(3) 0.3589(6)
H19_6 H 0.6926 0.3930 0.2642
C26_7 C 0.8272(2) 0.4576(3) 0.5141(7)
H20_6 H 0.8321 0.4519 0.4193
C27_7 C 0.8560(3) 0.4815(3) 0.6040(8)
H21_7 H 0.8844 0.4951 0.5787
O1_5 O 0.1727(4) 0.0119(4) 0.5876(8)
H22_5 H 0.15447 0.0265109 0.665045
H23_5 H 0.201157 0.0313118 0.570154
N2_8 N 0.01178(13) 0.92733(14) 0.4040(4)
N4_8 N 0.07405(13) 0.97075(15) 0.4403(4)
C20_8 C 0.04055(17) 0.96030(18) 0.3517(6)
H14_8 H 0.0373 0.9741 0.2636
C22_5 C 0.06543(19) 0.9430(2) 0.5564(6)
H16_5 H 0.0833 0.9429 0.6376
C23_5 C 0.02804(19) 0.9167(2) 0.5353(6)
H17_5 H 0.0151 0.8949 0.5978
N1_8 N 0.89424(12) 0.65562(12) 0.8794(3)
N6_8 N 0.70984(14) 0.94406(17) 0.9085(4)
C2_8 C 0.91697(15) 0.78005(15) 0.9924(4)
H1_8 H 0.9418 0.8015 0.9960
C3_8 C 0.92375(15) 0.73484(15) 0.9371(4)
H2_8 H 0.9530 0.7256 0.9051
C4_8 C 0.88668(15) 0.70367(15) 0.9300(4)
C6_8 C 0.92707(15) 0.64178(17) 0.7848(5)
H3_8 H 0.9481 0.6615 0.7382
C7_8 C 0.87202(15) 0.61563(17) 0.9228(5)
H4_8 H 0.8482 0.6150 0.9890
C10_8 C 0.74991(15) 0.91759(17) 0.9565(6)
C11_8 C 0.92302(17) 0.59403(18) 0.7720(5)
H6_8 H 0.9409 0.5749 0.7132
C14_8 C 0.81546(16) 0.8671(2) 0.9114(5)
H8_8 H 0.8338 0.8501 0.8484
C15_8 C 0.84296(16) 0.71664(17) 0.9807(6)
H9_8 H 0.8181 0.6953 0.9772
C16_8 C 0.70203(15) 0.96025(17) 0.7768(6)
H10_8 H 0.7224 0.9561 0.7020
C21_8 C 0.77672(18) 0.8920(2) 0.8630(6)
H15_8 H 0.7690 0.8914 0.7685
C26_8 C 0.6728(2) 0.9576(3) 0.9859(7)
C27_8 C 0.6440(3) 0.9815(3) 0.8960(8)
H21_8 H 0.6156 0.9951 0.9213
C22_6 C 0.93457(19) 0.4430(2) 0.0564(6)
H16_6 H 0.9167 0.4429 0.1376
C23_6 C 0.97196(19) 0.4167(2) 0.0353(6)
H17_6 H 0.9849 0.3949 0.0978
O1_6 O 0.8273(4) 0.5119(4) 0.0876(8)
H22_6 H 0.84553 0.526511 0.165045
H23_6 H 0.798843 0.531312 0.0701536
N5_7 N 0.13352(12) 0.15935(15) 0.9021(4)
C1_7 C 0.02706(14) 0.09395(16) 0.6683(5)
C5_7 C 0.09802(14) 0.13690(15) 0.8212(4)
C8_7 C 0.07026(15) 0.16358(16) 0.7338(4)
H5_7 H 0.0757 0.1963 0.7243
C9_7 C 0.12621(15) 0.20607(16) 0.9577(5)
C12_7 C 0.17290(15) 0.13263(16) 0.9497(5)
C13_7 C 0.03457(15) 0.14261(16) 0.6602(5)
H7_7 H 0.0153 0.1614 0.6044
C17_7 C 0.05590(16) 0.06636(18) 0.7500(6)
H11_7 H 0.0519 0.0333 0.7533
C18_7 C 0.16260(16) 0.23798(18) 0.9635(6)
H12_7 H 0.1916 0.2289 0.9292
C19_7 C 0.09087(17) 0.08797(16) 0.8273(6)
H13_7 H 0.1099 0.0693 0.8844
C24_7 C 0.2392(2) 0.0829(3) 0.9055(6)
H18_7 H 0.2580 0.0666 0.8418
C25_7 C 0.2002(2) 0.1076(3) 0.8589(6)
H19_7 H 0.1926 0.1070 0.7642
H20_7 H 0.3321 0.0481 0.9193
C22_7 C 0.43457(19) 0.4430(2) 0.9436(6)
H16_7 H 0.4167 0.4429 0.8624
C23_7 C 0.47196(19) 0.4167(2) 0.9647(6)
H17_7 H 0.4849 0.3949 0.9022
O1_7 O 0.3273(4) 0.5119(4) 0.9124(8)
H22_7 H 0.34553 0.526511 0.834955
H23_7 H 0.298843 0.531312 0.929846
C22_8 C 0.06543(19) 0.5570(2) 0.9436(6)
H16_8 H 0.0833 0.5571 0.8624
C23_8 C 0.02804(19) 0.5833(2) 0.9647(6)
H17_8 H 0.0151 0.6051 0.9022
O1_8 O 0.1727(4) 0.4881(4) 0.9124(8)
H22_8 H 0.15447 0.473489 0.834955
H23_8 H 0.201157 0.468688 0.929846
N5_8 N 0.86648(12) 0.84065(15) 0.0979(4)
C1_8 C 0.97294(14) 0.90605(16) 0.3317(5)
C5_8 C 0.90198(14) 0.86310(15) 0.1788(4)
C8_8 C 0.92974(15) 0.83642(16) 0.2662(4)
H5_8 H 0.9243 0.8037 0.2757
C9_8 C 0.87379(15) 0.79393(16) 0.0423(5)
C12_8 C 0.82710(15) 0.86737(16) 0.0503(5)
C13_8 C 0.96543(15) 0.85739(16) 0.3398(5)
H7_8 H 0.9847 0.8386 0.3956
C17_8 C 0.94410(16) 0.93364(18) 0.2500(6)
H11_8 H 0.9481 0.9667 0.2467
C18_8 C 0.83740(16) 0.76202(18) 0.0365(6)
H12_8 H 0.8084 0.7711 0.0708
C19_8 C 0.90913(17) 0.91203(16) 0.1727(6)
H13_8 H 0.8901 0.9307 0.1156
C24_8 C 0.7608(2) 0.9171(3) 0.0945(6)
H18_8 H 0.7420 0.9334 0.1582
C25_8 C 0.7998(2) 0.8924(3) 0.1411(6)
H19_8 H 0.8074 0.8930 0.2358
H20_8 H 0.6679 0.9519 0.0807
loop_
_geom_bond_atom_site_label_1
_geom_bond_atom_site_label_2
_geom_bond_site_symmetry_1
_geom_bond_site_symmetry_2
H16 C22 1_555 1_555
H17 C23 1_555 1_555
C22 C23 1_555 1_555
O1 H22 1_555 1_555
O1 H23 1_555 1_555
Zn1 N4 1_555 1_555
N1 C4 1_555 1_555
N2 C1 1_555 1_555
N3 C7 1_555 1_555
N4 C20 1_555 1_555
N5 C5 1_555 1_555
N6 C10 1_555 1_555
N7 C16 1_555 1_555
C1 C13 1_555 1_555
C2 H1 1_555 1_555
C3 C2 1_555 1_555
H2 C3 1_555 1_555
C4 C3 1_555 1_555
C5 C8 1_555 1_555
C6 N1 1_555 1_555
H3 C6 1_555 1_555
C7 N1 1_555 1_555
H4 C7 1_555 1_555
C8 H5 1_555 1_555
C9 N5 1_555 1_555
C10 C21 1_555 1_555
C11 N3 1_555 1_555
H6 C11 1_555 1_555
C12 N5 1_555 1_555
C13 C8 1_555 1_555
H7 C13 1_555 1_555
C14 C12 1_555 1_555
H8 C14 1_555 1_555
C15 C4 1_555 1_555
H9 C15 1_555 1_555
C16 N6 1_555 1_555
H10 C16 1_555 1_555
C17 C1 1_555 1_555
H11 C17 1_555 1_555
C18 C9 1_555 1_555
H12 C18 1_555 1_555
C19 C5 1_555 1_555
H13 C19 1_555 1_555
C20 N2 1_555 1_555
H14 C20 1_555 1_555
C21 C14 1_555 1_555
H15 C21 1_555 1_555
C24 C10 1_555 1_555
H18 C24 1_555 1_555
C25 C12 1_555 1_555
H19 C25 1_555 1_555
C26 N6 1_555 1_555
H20 C26 1_555 1_555
C27 N7 1_555 1_555
H21 C27 1_555 1_555
Zn2 N7 1_555 1_555
Zn3 N3 1_555 1_555
N8 Zn1 1_555 1_555
N9 Zn1 1_555 1_555
C2 C9 1_555 1_555
C6 C11 1_555 1_555
C15 C18 1_555 1_555
C17 C19 1_555 1_555
C24 C25 1_555 1_555
C26 C27 1_555 1_555
N1_2 C4_2 1_555 1_555
N3_2 C7_2 1_555 1_555
N6_2 C10_2 1_555 1_555
N7_2 C16_2 1_555 1_555
C2_2 H1_2 1_555 1_555
C3_2 C2_2 1_555 1_555
H2_2 C3_2 1_555 1_555
C4_2 C3_2 1_555 1_555
C6_2 N1_2 1_555 1_555
H3_2 C6_2 1_555 1_555
C7_2 N1_2 1_555 1_555
H4_2 C7_2 1_555 1_555
C10_2 C21_2 1_555 1_555
C11_2 N3_2 1_555 1_555
H6_2 C11_2 1_555 1_555
H8_2 C14_2 1_555 1_555
C15_2 C4_2 1_555 1_555
H9_2 C15_2 1_555 1_555
C16_2 N6_2 1_555 1_555
H10_2 C16_2 1_555 1_555
C21_2 C14_2 1_555 1_555
H15_2 C21_2 1_555 1_555
C26_2 N6_2 1_555 1_555
C27_2 N7_2 1_555 1_555
H21_2 C27_2 1_555 1_555
Zn2 N3_2 1_555 1_555
C6_2 C11_2 1_555 1_555
C26_2 C27_2 1_555 1_555
N4_2 C20_2 1_555 1_555
C20_2 N2_2 1_555 1_555
H14_2 C20_2 1_555 1_555
C22_2 N4_2 1_555 1_555
H16_2 C22_2 1_555 1_555
C23_2 N2_2 1_555 1_555
H17_2 C23_2 1_555 1_555
C22_2 C23_2 1_555 1_555
O1_2 Zn1_2 1_555 1_555
N8_2 Zn1_2 1_555 1_555
O1_2 H22_2 1_555 1_555
O1_2 H23_2 1_555 1_555
Zn2 N4_3 1_555 1_555
N4_3 C20_3 1_555 1_555
C20_3 N2_3 1_555 1_555
H14_3 C20_3 1_555 1_555
N1_3 C4_3 1_555 1_555
N8_2 C7_3 1_555 1_555
N5_2 C5_2 1_555 1_555
N6_3 C10_3 1_555 1_555
N9 C16_3 1_555 1_555
C1_2 C13_2 1_555 1_555
C2_3 H1_3 1_555 1_555
C3_3 C2_3 1_555 1_555
H2_3 C3_3 1_555 1_555
C4_3 C3_3 1_555 1_555
C5_2 C8_2 1_555 1_555
C6_3 N1_3 1_555 1_555
H3_3 C6_3 1_555 1_555
C7_3 N1_3 1_555 1_555
H4_3 C7_3 1_555 1_555
C8_2 H5_2 1_555 1_555
C9_2 N5_2 1_555 1_555
C10_3 C21_3 1_555 1_555
C11_3 N8_2 1_555 1_555
H6_3 C11_3 1_555 1_555
C12_2 N5_2 1_555 1_555
C13_2 C8_2 1_555 1_555
H7_2 C13_2 1_555 1_555
C14_3 C12_2 1_555 1_555
H8_3 C14_3 1_555 1_555
C15_3 C4_3 1_555 1_555
H9_3 C15_3 1_555 1_555
C16_3 N6_3 1_555 1_555
H10_3 C16_3 1_555 1_555
C17_2 C1_2 1_555 1_555
H11_2 C17_2 1_555 1_555
C18_2 C9_2 1_555 1_555
H12_2 C18_2 1_555 1_555
C19_2 C5_2 1_555 1_555
H13_2 C19_2 1_555 1_555
C21_3 C14_3 1_555 1_555
H15_3 C21_3 1_555 1_555
C24_2 C10_3 1_555 1_555
H18_2 C24_2 1_555 1_555
C25_2 C12_2 1_555 1_555
H19_2 C25_2 1_555 1_555
C26_3 N6_3 1_555 1_555
H20_2 C26_3 1_555 1_555
C27_3 N9 1_555 1_555
H21_3 C27_3 1_555 1_555
C2_3 C9_2 1_555 1_555
C6_3 C11_3 1_555 1_555
C15_3 C18_2 1_555 1_555
C17_2 C19_2 1_555 1_555
C24_2 C25_2 1_555 1_555
C26_3 C27_3 1_555 1_555
N2_4 C1_3 1_555 1_555
N4_4 C20_4 1_555 1_555
N5_3 C5_3 1_555 1_555
C1_3 C13_3 1_555 1_555
C5_3 C8_3 1_555 1_555
C8_3 H5_3 1_555 1_555
C9_3 N5_3 1_555 1_555
C12_3 N5_3 1_555 1_555
C13_3 C8_3 1_555 1_555
H7_3 C13_3 1_555 1_555
C17_3 C1_3 1_555 1_555
H11_3 C17_3 1_555 1_555
C18_3 C9_3 1_555 1_555
H12_3 C18_3 1_555 1_555
C19_3 C5_3 1_555 1_555
H13_3 C19_3 1_555 1_555
C20_4 N2_4 1_555 1_555
H14_4 C20_4 1_555 1_555
C22_3 N4_4 1_555 1_555
H16_3 C22_3 1_555 1_555
C23_3 N2_4 1_555 1_555
H17_3 C23_3 1_555 1_555
H18_3 C24_3 1_555 1_555
C25_3 C12_3 1_555 1_555
H19_3 C25_3 1_555 1_555
C17_3 C19_3 1_555 1_555
C22_3 C23_3 1_555 1_555
C24_3 C25_3 1_555 1_555
N1_4 C4_4 1_555 1_555
N8 C7_4 1_555 1_555
N6_4 C10_4 1_555 1_555
N9_2 C16_4 1_555 1_555
C2_4 H1_4 1_555 1_555
C3_4 C2_4 1_555 1_555
H2_4 C3_4 1_555 1_555
C4_4 C3_4 1_555 1_555
C6_4 N1_4 1_555 1_555
H3_4 C6_4 1_555 1_555
C7_4 N1_4 1_555 1_555
H4_4 C7_4 1_555 1_555
C10_4 C21_4 1_555 1_555
C11_4 N8 1_555 1_555
H6_4 C11_4 1_555 1_555
H8_4 C14_4 1_555 1_555
C15_4 C4_4 1_555 1_555
H9_4 C15_4 1_555 1_555
C16_4 N6_4 1_555 1_555
H10_4 C16_4 1_555 1_555
C21_4 C14_4 1_555 1_555
H15_4 C21_4 1_555 1_555
C26_4 N6_4 1_555 1_555
C27_4 N9_2 1_555 1_555
H21_4 C27_4 1_555 1_555
C6_4 C11_4 1_555 1_555
C26_4 C27_4 1_555 1_555
O1_3 Zn3 1_555 1_555
O1_3 H22_3 1_555 1_555
O1_3 H23_3 1_555 1_555
N1_5 C4_5 1_555 1_555
N3_3 C7_5 1_555 1_555
N5_4 C5_4 1_555 1_555
N6_5 C10_5 1_555 1_555
N7_3 C16_5 1_555 1_555
C1_4 C13_4 1_555 1_555
C2_5 H1_5 1_555 1_555
C3_5 C2_5 1_555 1_555
H2_5 C3_5 1_555 1_555
C4_5 C3_5 1_555 1_555
C5_4 C8_4 1_555 1_555
C6_5 N1_5 1_555 1_555
H3_5 C6_5 1_555 1_555
C7_5 N1_5 1_555 1_555
H4_5 C7_5 1_555 1_555
C8_4 H5_4 1_555 1_555
C9_4 N5_4 1_555 1_555
C10_5 C21_5 1_555 1_555
C11_5 N3_3 1_555 1_555
H6_5 C11_5 1_555 1_555
C12_4 N5_4 1_555 1_555
C13_4 C8_4 1_555 1_555
H7_4 C13_4 1_555 1_555
C14_5 C12_4 1_555 1_555
H8_5 C14_5 1_555 1_555
C15_5 C4_5 1_555 1_555
H9_5 C15_5 1_555 1_555
C16_5 N6_5 1_555 1_555
H10_5 C16_5 1_555 1_555
C17_4 C1_4 1_555 1_555
H11_4 C17_4 1_555 1_555
C18_4 C9_4 1_555 1_555
H12_4 C18_4 1_555 1_555
C19_4 C5_4 1_555 1_555
H13_4 C19_4 1_555 1_555
C21_5 C14_5 1_555 1_555
H15_5 C21_5 1_555 1_555
C24_4 C10_5 1_555 1_555
H18_4 C24_4 1_555 1_555
C25_4 C12_4 1_555 1_555
H19_4 C25_4 1_555 1_555
C26_5 N6_5 1_555 1_555
H20_4 C26_5 1_555 1_555
C27_5 N7_3 1_555 1_555
H21_5 C27_5 1_555 1_555
Zn2_2 N7_3 1_555 1_555
Zn3_2 N3_3 1_555 1_555
C2_5 C9_4 1_555 1_555
C6_5 C11_5 1_555 1_555
C15_5 C18_4 1_555 1_555
C17_4 C19_4 1_555 1_555
C24_4 C25_4 1_555 1_555
C26_5 C27_5 1_555 1_555
Zn1_3 N4_5 1_555 1_555
N4_5 C20_5 1_555 1_555
C20_5 N2_5 1_555 1_555
H14_5 C20_5 1_555 1_555
N8_3 Zn1_3 1_555 1_555
N9_3 Zn1_3 1_555 1_555
O1_4 Zn1_4 1_555 1_555
N8_4 Zn1_4 1_555 1_555
O1_4 H22_4 1_555 1_555
O1_4 H23_4 1_555 1_555
N1_6 C4_6 1_555 1_555
N3_4 C7_6 1_555 1_555
N6_6 C10_6 1_555 1_555
N7_4 C16_6 1_555 1_555
C2_6 H1_6 1_555 1_555
C3_6 C2_6 1_555 1_555
H2_6 C3_6 1_555 1_555
C4_6 C3_6 1_555 1_555
C6_6 N1_6 1_555 1_555
H3_6 C6_6 1_555 1_555
C7_6 N1_6 1_555 1_555
H4_6 C7_6 1_555 1_555
C10_6 C21_6 1_555 1_555
C11_6 N3_4 1_555 1_555
H6_6 C11_6 1_555 1_555
H8_6 C14_6 1_555 1_555
C15_6 C4_6 1_555 1_555
H9_6 C15_6 1_555 1_555
C16_6 N6_6 1_555 1_555
H10_6 C16_6 1_555 1_555
C21_6 C14_6 1_555 1_555
H15_6 C21_6 1_555 1_555
C26_6 N6_6 1_555 1_555
C27_6 N7_4 1_555 1_555
H21_6 C27_6 1_555 1_555
Zn2_2 N3_4 1_555 1_555
C6_6 C11_6 1_555 1_555
C26_6 C27_6 1_555 1_555
N2_6 C1_5 1_555 1_555
N4_6 C20_6 1_555 1_555
N5_5 C5_5 1_555 1_555
C1_5 C13_5 1_555 1_555
C5_5 C8_5 1_555 1_555
C8_5 H5_5 1_555 1_555
C9_5 N5_5 1_555 1_555
C12_5 N5_5 1_555 1_555
C13_5 C8_5 1_555 1_555
H7_5 C13_5 1_555 1_555
C17_5 C1_5 1_555 1_555
H11_5 C17_5 1_555 1_555
C18_5 C9_5 1_555 1_555
H12_5 C18_5 1_555 1_555
C19_5 C5_5 1_555 1_555
H13_5 C19_5 1_555 1_555
C20_6 N2_6 1_555 1_555
H14_6 C20_6 1_555 1_555
C22_4 N4_6 1_555 1_555
H16_4 C22_4 1_555 1_555
C23_4 N2_6 1_555 1_555
H17_4 C23_4 1_555 1_555
H18_5 C24_5 1_555 1_555
C25_5 C12_5 1_555 1_555
H19_5 C25_5 1_555 1_555
C17_5 C19_5 1_555 1_555
C22_4 C23_4 1_555 1_555
C24_5 C25_5 1_555 1_555
Zn2_2 N4_7 1_555 1_555
N1_7 C4_7 1_555 1_555
N2_7 C1_6 1_555 1_555
N8_4 C7_7 1_555 1_555
N4_7 C20_7 1_555 1_555
N5_6 C5_6 1_555 1_555
N6_7 C10_7 1_555 1_555
N9_3 C16_7 1_555 1_555
C1_6 C13_6 1_555 1_555
C2_7 H1_7 1_555 1_555
C3_7 C2_7 1_555 1_555
H2_7 C3_7 1_555 1_555
C4_7 C3_7 1_555 1_555
C5_6 C8_6 1_555 1_555
C6_7 N1_7 1_555 1_555
H3_7 C6_7 1_555 1_555
C7_7 N1_7 1_555 1_555
H4_7 C7_7 1_555 1_555
C8_6 H5_6 1_555 1_555
C9_6 N5_6 1_555 1_555
C10_7 C21_7 1_555 1_555
C11_7 N8_4 1_555 1_555
H6_7 C11_7 1_555 1_555
C12_6 N5_6 1_555 1_555
C13_6 C8_6 1_555 1_555
H7_6 C13_6 1_555 1_555
C14_7 C12_6 1_555 1_555
H8_7 C14_7 1_555 1_555
C15_7 C4_7 1_555 1_555
H9_7 C15_7 1_555 1_555
C16_7 N6_7 1_555 1_555
H10_7 C16_7 1_555 1_555
C17_6 C1_6 1_555 1_555
H11_6 C17_6 1_555 1_555
C18_6 C9_6 1_555 1_555
H12_6 C18_6 1_555 1_555
C19_6 C5_6 1_555 1_555
H13_6 C19_6 1_555 1_555
C20_7 N2_7 1_555 1_555
H14_7 C20_7 1_555 1_555
C21_7 C14_7 1_555 1_555
H15_7 C21_7 1_555 1_555
C24_6 C10_7 1_555 1_555
H18_6 C24_6 1_555 1_555
C25_6 C12_6 1_555 1_555
H19_6 C25_6 1_555 1_555
C26_7 N6_7 1_555 1_555
H20_6 C26_7 1_555 1_555
C27_7 N9_3 1_555 1_555
H21_7 C27_7 1_555 1_555
C2_7 C9_6 1_555 1_555
C6_7 C11_7 1_555 1_555
C15_7 C18_6 1_555 1_555
C17_6 C19_6 1_555 1_555
C24_6 C25_6 1_555 1_555
C26_7 C27_7 1_555 1_555
O1_5 Zn3_2 1_555 1_555
O1_5 H22_5 1_555 1_555
O1_5 H23_5 1_555 1_555
N4_8 C20_8 1_555 1_555
C20_8 N2_8 1_555 1_555
H14_8 C20_8 1_555 1_555
C22_5 N4_8 1_555 1_555
H16_5 C22_5 1_555 1_555
C23_5 N2_8 1_555 1_555
H17_5 C23_5 1_555 1_555
C22_5 C23_5 1_555 1_555
N1_8 C4_8 1_555 1_555
N8_3 C7_8 1_555 1_555
N6_8 C10_8 1_555 1_555
N9_4 C16_8 1_555 1_555
C2_8 H1_8 1_555 1_555
C3_8 C2_8 1_555 1_555
H2_8 C3_8 1_555 1_555
C4_8 C3_8 1_555 1_555
C6_8 N1_8 1_555 1_555
H3_8 C6_8 1_555 1_555
C7_8 N1_8 1_555 1_555
H4_8 C7_8 1_555 1_555
C10_8 C21_8 1_555 1_555
C11_8 N8_3 1_555 1_555
H6_8 C11_8 1_555 1_555
H8_8 C14_8 1_555 1_555
C15_8 C4_8 1_555 1_555
H9_8 C15_8 1_555 1_555
C16_8 N6_8 1_555 1_555
H10_8 C16_8 1_555 1_555
C21_8 C14_8 1_555 1_555
H15_8 C21_8 1_555 1_555
C26_8 N6_8 1_555 1_555
C27_8 N9_4 1_555 1_555
H21_8 C27_8 1_555 1_555
C6_8 C11_8 1_555 1_555
C26_8 C27_8 1_555 1_555
H16_6 C22_6 1_555 1_555
H17_6 C23_6 1_555 1_555
C22_6 C23_6 1_555 1_555
O1_6 H22_6 1_555 1_555
O1_6 H23_6 1_555 1_555
N5_7 C5_7 1_555 1_555
C1_7 C13_7 1_555 1_555
C5_7 C8_7 1_555 1_555
C8_7 H5_7 1_555 1_555
C9_7 N5_7 1_555 1_555
C12_7 N5_7 1_555 1_555
C13_7 C8_7 1_555 1_555
H7_7 C13_7 1_555 1_555
C17_7 C1_7 1_555 1_555
H11_7 C17_7 1_555 1_555
C18_7 C9_7 1_555 1_555
H12_7 C18_7 1_555 1_555
C19_7 C5_7 1_555 1_555
H13_7 C19_7 1_555 1_555
H18_7 C24_7 1_555 1_555
C25_7 C12_7 1_555 1_555
H19_7 C25_7 1_555 1_555
C17_7 C19_7 1_555 1_555
C24_7 C25_7 1_555 1_555
H16_7 C22_7 1_555 1_555
H17_7 C23_7 1_555 1_555
C22_7 C23_7 1_555 1_555
O1_7 H22_7 1_555 1_555
O1_7 H23_7 1_555 1_555
H16_8 C22_8 1_555 1_555
H17_8 C23_8 1_555 1_555
C22_8 C23_8 1_555 1_555
O1_8 H22_8 1_555 1_555
O1_8 H23_8 1_555 1_555
N5_8 C5_8 1_555 1_555
C1_8 C13_8 1_555 1_555
C5_8 C8_8 1_555 1_555
C8_8 H5_8 1_555 1_555
C9_8 N5_8 1_555 1_555
C12_8 N5_8 1_555 1_555
C13_8 C8_8 1_555 1_555
H7_8 C13_8 1_555 1_555
C17_8 C1_8 1_555 1_555
H11_8 C17_8 1_555 1_555
C18_8 C9_8 1_555 1_555
H12_8 C18_8 1_555 1_555
C19_8 C5_8 1_555 1_555
H13_8 C19_8 1_555 1_555
H18_8 C24_8 1_555 1_555
C25_8 C12_8 1_555 1_555
H19_8 C25_8 1_555 1_555
C17_8 C19_8 1_555 1_555
C24_8 C25_8 1_555 1_555

#END
