
###############################################################################
#
# This file contains modified crystal structure data generated from the
# MOF subset of the Cambridge Structural Database (CSD) v543 
# hosted by the Cambridge Crystallographic Data Centre (CCDC).
#
# This work is licensed under the Creative Commons
# Attribution-NonCommercial-ShareAlike 4.0 International License.
# To view a copy of this license, visit
# http://creativecommons.org/licenses/by-nc-sa/4.0/
# or send a letter to
# Creative Commons, PO Box 1866, Mountain View, CA 94042, USA.
#
# CIF created using the CSD Python API on 29 September 2022
# The structure has been converted into the P1 space group
# The structure has a 3D framework
# The original CSD entry TEXWEB is in the hexagonal crystal system
# The original CSD entry TEXWEB is in a Sohncke space group
# The framework has been calculated to contain at least 10.0% void space
# The void calculation uses a probe of radius 1.32A, grid spacing 0.4
# H atom positions have been added when not included in the experimental data
#
###############################################################################

data_TEXWEB
_chemical_formula_moiety         '(C48 H48 Ca2 Cu9 N12 O50)n'
_symmetry_cell_setting           triclinic
_symmetry_space_group_name_H-M   'P 1'
_symmetry_Int_Tables_number      1
_space_group_name_Hall           'P 1'
loop_
_symmetry_equiv_pos_site_id
_symmetry_equiv_pos_as_xyz
1 x,y,z
_cell_length_a                   17.997(3)
_cell_length_b                   17.997(3)
_cell_length_c                   12.861(2)
_cell_angle_alpha                90
_cell_angle_beta                 90
_cell_angle_gamma                120
_cell_volume                     3607.49
loop_
_atom_site_label
_atom_site_type_symbol
_atom_site_fract_x
_atom_site_fract_y
_atom_site_fract_z
N1 N 0.0970(6) 0.5995(8) 0.3773(12)
O2 O 0.2381(4) 0.6775(6) 0.4839(10)
O3 O 0.0186(4) 0.4489(6) 0.4759(11)
O4 O 0.2977(5) 0.7979(8) 0.3864(11)
C1 C 0.2376(6) 0.7249(9) 0.4125(13)
C2 C 0.1562(8) 0.6873(12) 0.3358(15)
C6 C 0.0208(6) 0.5458(8) 0.3401(12)
C8 C 0.1138(8) 0.7457(13) 0.353(2)
O9 O 0.0918(11) 0.7525(14) 0.461(2)
Cu8 Cu 0.13571(6) 0.55875(8) 0.4911(9)
Cu12 Cu 0.42304(10) 0.86429(6) 0.4911(9)
Ca4 Ca 0.3333 0.6666 0.6190(9)
H3 H 0.0552104 0.718905 0.306999
H4 H 0.158776 0.810044 0.32528
H5 H 0.144516 0.777649 0.504327
H6 H 0.173713 0.686257 0.254983
Cu2 Cu 0.86339(6) 0.44608(8) 0.2478(9)
Ca1 Ca 0.6667 0.3334 0.1190(9)
O1 O 0.8221(2) 0.4641(4) 0.1172(11)
N2 N 0.9009(5) 0.4087(8) 0.3667(11)
O5 O 0.7619(3) 0.3248(5) 0.2554(10)
O6 O 0.9799(4) 0.5537(6) 0.2642(11)
O7 O 0.7104(5) 0.2014(9) 0.3425(11)
C3 C 0.9783(6) 0.4606(8) 0.3987(13)
C4 C 0.7668(6) 0.2799(9) 0.3331(13)
C5 C 0.8445(7) 0.3226(11) 0.4012(14)
C7 C 0.8061(9) 0.3263(15) 0.5191(14)
O8 O 0.7730(14) 0.3727(20) 0.5367(19)
Cu4 Cu 0.55392(8) 0.41731(10) 0.2478(9)
O10 O 0.5359(4) 0.3580(4) 0.1172(11)
N3 N 0.4005(8) 0.4975(10) 0.3773(12)
N4 N 0.5913(8) 0.4922(9) 0.3667(11)
O11 O 0.3225(6) 0.5606(7) 0.4839(10)
O12 O 0.5511(6) 0.5697(7) 0.4759(11)
O13 O 0.2021(8) 0.4998(9) 0.3864(11)
O14 O 0.6752(5) 0.4371(6) 0.2554(10)
O15 O 0.4463(6) 0.4262(7) 0.2642(11)
O16 O 0.7986(9) 0.5090(10) 0.3425(11)
C9 C 0.2751(9) 0.5127(11) 0.4125(13)
C10 C 0.3127(12) 0.4689(14) 0.3358(15)
C11 C 0.5394(8) 0.5177(10) 0.3987(13)
C12 C 0.7201(9) 0.4869(11) 0.3331(13)
C13 C 0.6774(11) 0.5219(13) 0.4012(14)
C14 C 0.4542(8) 0.4750(10) 0.3401(12)
C15 C 0.6737(15) 0.4798(17) 0.5191(14)
C16 C 0.2543(13) 0.3681(15) 0.353(2)
O17 O 0.6273(20) 0.4003(24) 0.5367(19)
O18 O 0.2475(14) 0.3393(18) 0.461(2)
Cu6 Cu 0.58269(10) 0.13661(6) 0.2478(9)
O19 O 0.6420(4) 0.1779(2) 0.1172(11)
N6 N 0.5078(9) 0.0991(5) 0.3667(11)
O23 O 0.5629(6) 0.2381(3) 0.2554(10)
O24 O 0.5738(7) 0.0201(4) 0.2642(11)
O25 O 0.4910(10) 0.2896(5) 0.3425(11)
C19 C 0.4823(10) 0.0217(6) 0.3987(13)
C20 C 0.5131(11) 0.2332(6) 0.3331(13)
C21 C 0.4781(13) 0.1555(7) 0.4012(14)
C23 C 0.5202(17) 0.1939(9) 0.5191(14)
O26 O 0.5997(24) 0.2270(14) 0.5367(19)
Cu10 Cu 0.44125(8) 0.57696(10) 0.4911(9)
H1 H 0.877555 0.285844 0.403596
H2 H 0.722633 0.354787 0.490524
H7 H 0.714156 0.59171 0.403596
H8 H 0.313743 0.487455 0.254983
H9 H 0.859466 0.347311 0.573177
H10 H 0.757026 0.260772 0.53761
H11 H 0.281095 0.336306 0.306999
H12 H 0.189956 0.348731 0.32528
H13 H 0.487846 0.140534 0.573177
H14 H 0.503746 0.242974 0.53761
H16 H 0.632154 0.277367 0.490524
H17 H 0.40829 0.122445 0.403596
H19 H 0.222351 0.366867 0.504327
H20 H 0.645213 0.367846 0.490524
H21 H 0.652689 0.512154 0.573177
H22 H 0.739228 0.496254 0.53761
Cu1 Cu 0.86429(6) 0.44125(8) 0.9911(9)
Cu3 Cu 0.55875(8) 0.42304(10) 0.9911(9)
Cu5 Cu 0.57696(10) 0.13571(6) 0.9911(9)
N7 N 0.9030(6) 0.4005(8) 0.8773(12)
N8 N 0.5995(8) 0.5025(10) 0.8773(12)
N9 N 0.4975(10) 0.0970(6) 0.8773(12)
O28 O 0.7619(4) 0.3225(6) 0.9839(10)
O29 O 0.6775(6) 0.4394(7) 0.9839(10)
O30 O 0.5606(7) 0.2381(4) 0.9839(10)
O31 O 0.9814(4) 0.5511(6) 0.9759(11)
O32 O 0.4489(6) 0.4303(7) 0.9759(11)
O33 O 0.5697(7) 0.0186(4) 0.9759(11)
O34 O 0.7023(5) 0.2021(8) 0.8864(11)
O35 O 0.7979(8) 0.5002(9) 0.8864(11)
O36 O 0.4998(9) 0.2977(5) 0.8864(11)
N5 N 0.5025(10) 0.9030(6) 0.3773(12)
O20 O 0.4394(7) 0.7619(4) 0.4839(10)
O21 O 0.4303(7) 0.9814(4) 0.4759(11)
O22 O 0.5002(9) 0.7023(5) 0.3864(11)
C17 C 0.4873(11) 0.7624(6) 0.4125(13)
C18 C 0.5311(14) 0.8438(8) 0.3358(15)
C22 C 0.5250(10) 0.9792(6) 0.3401(12)
C24 C 0.6319(15) 0.8862(8) 0.353(2)
O27 O 0.6607(18) 0.9082(11) 0.461(2)
H15 H 0.512545 0.826287 0.254983
H18 H 0.633133 0.855484 0.504327
H23 H 0.663694 0.94479 0.306999
H24 H 0.651269 0.841224 0.32528
H18_2 H 0.366867 0.144516 0.0043268
C17_2 C 0.5127(11) 0.2376(6) 0.9125(13)
C18_2 C 0.4689(14) 0.1562(8) 0.8358(15)
C22_2 C 0.4750(10) 0.0208(6) 0.8401(12)
C24_2 C 0.3681(15) 0.1138(8) 0.853(2)
O27_2 O 0.3393(18) 0.0918(11) 0.961(2)
H15_2 H 0.487455 0.173713 0.754983
H23_2 H 0.336306 0.0552104 0.806999
H24_2 H 0.348731 0.158776 0.82528
C7_2 C 0.1939(9) 0.6737(15) 0.0191(14)
O8_2 O 0.2270(14) 0.6273(20) 0.0367(19)
C15_2 C 0.3263(15) 0.5202(17) 0.0191(14)
O17_2 O 0.3727(20) 0.5997(24) 0.0367(19)
C23_2 C 0.4798(17) 0.8061(9) 0.0191(14)
O26_2 O 0.4003(24) 0.7730(14) 0.0367(19)
H9_2 H 0.140534 0.652689 0.0731768
H10_2 H 0.242974 0.739228 0.0376103
H13_2 H 0.512154 0.859466 0.0731768
H14_2 H 0.496254 0.757026 0.0376103
H19_2 H 0.777649 0.633133 0.0043268
H21_2 H 0.347311 0.487846 0.0731768
H22_2 H 0.260772 0.503746 0.0376103
Cu2_2 Cu 0.13661(6) 0.55392(8) 0.7478(9)
O1_2 O 0.1779(2) 0.5359(4) 0.6172(11)
N2_2 N 0.0991(5) 0.5913(8) 0.8667(11)
O5_2 O 0.2381(3) 0.6752(5) 0.7554(10)
O6_2 O 0.0201(4) 0.4463(6) 0.7642(11)
O7_2 O 0.2896(5) 0.7986(9) 0.8425(11)
C3_2 C 0.0217(6) 0.5394(8) 0.8987(13)
C4_2 C 0.2332(6) 0.7201(9) 0.8331(13)
C5_2 C 0.1555(7) 0.6774(11) 0.9012(14)
Cu4_2 Cu 0.44608(8) 0.58269(10) 0.7478(9)
O10_2 O 0.4641(4) 0.6420(4) 0.6172(11)
N4_2 N 0.4087(8) 0.5078(9) 0.8667(11)
O14_2 O 0.3248(5) 0.5629(6) 0.7554(10)
O15_2 O 0.5537(6) 0.5738(7) 0.7642(11)
O16_2 O 0.2014(9) 0.4910(10) 0.8425(11)
C9_2 C 0.7249(9) 0.4873(11) 0.9125(13)
C10_2 C 0.6873(12) 0.5311(14) 0.8358(15)
C11_2 C 0.4606(8) 0.4823(10) 0.8987(13)
C12_2 C 0.2799(9) 0.5131(11) 0.8331(13)
C13_2 C 0.3226(11) 0.4781(13) 0.9012(14)
C14_2 C 0.5458(8) 0.5250(10) 0.8401(12)
C16_2 C 0.7457(13) 0.6319(15) 0.853(2)
O18_2 O 0.7525(14) 0.6607(18) 0.961(2)
Cu6_2 Cu 0.41731(10) 0.86339(6) 0.7478(9)
O19_2 O 0.3580(4) 0.8221(2) 0.6172(11)
N6_2 N 0.4922(9) 0.9009(5) 0.8667(11)
O23_2 O 0.4371(6) 0.7619(3) 0.7554(10)
O24_2 O 0.4262(7) 0.9799(4) 0.7642(11)
O25_2 O 0.5090(10) 0.7104(5) 0.8425(11)
C19_2 C 0.5177(10) 0.9783(6) 0.8987(13)
C20_2 C 0.4869(11) 0.7668(6) 0.8331(13)
C21_2 C 0.5219(13) 0.8445(7) 0.9012(14)
H1_2 H 0.122445 0.714156 0.903596
H2_2 H 0.277367 0.645213 0.990524
H7_2 H 0.285844 0.40829 0.903596
H8_2 H 0.686257 0.512545 0.754983
H11_2 H 0.718905 0.663694 0.806999
H12_2 H 0.810044 0.651269 0.82528
H16_2 H 0.367846 0.722633 0.990524
H17_2 H 0.59171 0.877555 0.903596
H20_2 H 0.354787 0.632154 0.990524
H5_2 H 0.855484 0.222351 0.0043268
C1_2 C 0.7624(6) 0.2751(9) 0.9125(13)
C2_2 C 0.8438(8) 0.3127(12) 0.8358(15)
C6_2 C 0.9792(6) 0.4542(8) 0.8401(12)
C8_2 C 0.8862(8) 0.2543(13) 0.853(2)
O9_2 O 0.9082(11) 0.2475(14) 0.961(2)
H3_2 H 0.94479 0.281095 0.806999
H4_2 H 0.841224 0.189956 0.82528
H6_2 H 0.826287 0.313743 0.754983
loop_
_geom_bond_atom_site_label_1
_geom_bond_atom_site_label_2
_geom_bond_site_symmetry_1
_geom_bond_site_symmetry_2
N1 C2 1_555 1_555
O2 C1 1_555 1_555
O4 C1 1_555 1_555
C1 C2 1_555 1_555
C2 C8 1_555 1_555
C6 N1 1_555 1_555
C8 O9 1_555 1_555
Cu8 N1 1_555 1_555
Cu12 O4 1_555 1_555
Ca4 O2 1_555 1_555
O2 Cu8 1_555 1_555
O3 Cu8 1_555 1_555
C8 H3 1_555 1_555
C8 H4 1_555 1_555
O9 H5 1_555 1_555
C2 H6 1_555 1_555
Cu2 O1 1_555 1_555
Ca1 O1 1_555 1_555
N2 Cu2 1_555 1_555
O5 Cu2 1_555 1_555
O6 Cu2 1_555 1_555
O7 C4 1_555 1_555
C3 N2 1_555 1_555
C4 O5 1_555 1_555
C5 N2 1_555 1_555
C7 C5 1_555 1_555
O8 C7 1_555 1_555
Cu4 O10 1_555 1_555
O10 Ca1 1_555 1_555
N3 C10 1_555 1_555
N4 Cu4 1_555 1_555
O11 C9 1_555 1_555
O12 C11 1_555 1_555
O13 C9 1_555 1_555
O14 Ca1 1_555 1_555
O15 Cu4 1_555 1_555
O16 Cu2 1_555 1_555
C9 C10 1_555 1_555
C10 C16 1_555 1_555
C11 N4 1_555 1_555
C12 O14 1_555 1_555
C13 N4 1_555 1_555
C14 N3 1_555 1_555
C15 C13 1_555 1_555
C16 O18 1_555 1_555
O17 C15 1_555 1_555
Cu6 O7 1_555 1_555
O19 Ca1 1_555 1_555
N6 Cu6 1_555 1_555
O23 Ca1 1_555 1_555
O24 Cu6 1_555 1_555
O25 Cu4 1_555 1_555
C19 N6 1_555 1_555
C20 O23 1_555 1_555
C21 N6 1_555 1_555
C23 C21 1_555 1_555
O26 C23 1_555 1_555
Cu8 O13 1_555 1_555
Cu10 N3 1_555 1_555
Ca4 O11 1_555 1_555
Ca1 O5 1_555 1_555
C4 C5 1_555 1_555
Cu4 O14 1_555 1_555
O11 Cu10 1_555 1_555
O12 Cu10 1_555 1_555
O15 C14 1_555 1_555
O16 C12 1_555 1_555
C11 C14 1_555 1_555
C12 C13 1_555 1_555
Cu6 O19 1_555 1_555
Cu6 O23 1_555 1_555
O25 C20 1_555 1_555
C20 C21 1_555 1_555
C5 H1 1_555 1_555
O8 H2 1_555 1_555
C13 H7 1_555 1_555
C10 H8 1_555 1_555
C7 H9 1_555 1_555
C7 H10 1_555 1_555
C16 H11 1_555 1_555
C16 H12 1_555 1_555
C23 H13 1_555 1_555
C23 H14 1_555 1_555
O26 H16 1_555 1_555
C21 H17 1_555 1_555
O18 H19 1_555 1_555
O17 H20 1_555 1_555
C15 H21 1_555 1_555
C15 H22 1_555 1_555
N7 Cu1 1_555 1_555
N8 Cu3 1_555 1_555
N9 Cu5 1_555 1_555
O28 Cu1 1_555 1_555
O31 Cu1 1_555 1_555
O32 Cu3 1_555 1_555
O33 Cu5 1_555 1_555
O34 Cu5 1_555 1_555
O35 Cu1 1_555 1_555
O36 Cu3 1_555 1_555
Cu3 O29 1_555 1_555
Cu5 O30 1_555 1_555
N5 C18 1_555 1_555
O20 C17 1_555 1_555
O22 C17 1_555 1_555
C17 C18 1_555 1_555
C18 C24 1_555 1_555
C22 N5 1_555 1_555
C24 O27 1_555 1_555
Cu10 O22 1_555 1_555
Cu12 N5 1_555 1_555
Ca4 O20 1_555 1_555
O20 Cu12 1_555 1_555
O21 Cu12 1_555 1_555
C18 H15 1_555 1_555
O27 H18 1_555 1_555
C24 H23 1_555 1_555
C24 H24 1_555 1_555
N9 C18_2 1_555 1_555
O30 C17_2 1_555 1_555
O36 C17_2 1_555 1_555
C17_2 C18_2 1_555 1_555
C18_2 C24_2 1_555 1_555
C22_2 N9 1_555 1_555
C24_2 O27_2 1_555 1_555
C18_2 H15_2 1_555 1_555
C24_2 H23_2 1_555 1_555
C24_2 H24_2 1_555 1_555
O8_2 C7_2 1_555 1_555
O17_2 C15_2 1_555 1_555
O26_2 C23_2 1_555 1_555
C7_2 H9_2 1_555 1_555
C7_2 H10_2 1_555 1_555
C23_2 H13_2 1_555 1_555
C23_2 H14_2 1_555 1_555
C15_2 H21_2 1_555 1_555
C15_2 H22_2 1_555 1_555
Cu8 O1_2 1_555 1_555
Cu2_2 O1_2 1_555 1_555
Ca4 O1_2 1_555 1_555
N2_2 Cu2_2 1_555 1_555
O5_2 Cu2_2 1_555 1_555
O6_2 Cu2_2 1_555 1_555
O7_2 C4_2 1_555 1_555
C3_2 N2_2 1_555 1_555
C4_2 O5_2 1_555 1_555
C5_2 N2_2 1_555 1_555
Cu10 O10_2 1_555 1_555
Cu4_2 O10_2 1_555 1_555
O10_2 Ca4 1_555 1_555
N8 C10_2 1_555 1_555
N4_2 Cu4_2 1_555 1_555
O29 C9_2 1_555 1_555
O32 C11_2 1_555 1_555
O35 C9_2 1_555 1_555
O14_2 Ca4 1_555 1_555
O15_2 Cu4_2 1_555 1_555
O16_2 Cu2_2 1_555 1_555
C9_2 C10_2 1_555 1_555
C10_2 C16_2 1_555 1_555
C11_2 N4_2 1_555 1_555
C12_2 O14_2 1_555 1_555
C13_2 N4_2 1_555 1_555
C14_2 N8 1_555 1_555
C16_2 O18_2 1_555 1_555
Cu12 O19_2 1_555 1_555
Cu6_2 O7_2 1_555 1_555
O19_2 Ca4 1_555 1_555
N6_2 Cu6_2 1_555 1_555
O23_2 Ca4 1_555 1_555
O24_2 Cu6_2 1_555 1_555
O25_2 Cu4_2 1_555 1_555
C19_2 N6_2 1_555 1_555
C20_2 O23_2 1_555 1_555
C21_2 N6_2 1_555 1_555
Ca4 O5_2 1_555 1_555
C4_2 C5_2 1_555 1_555
Cu4_2 O14_2 1_555 1_555
O15_2 C14_2 1_555 1_555
O16_2 C12_2 1_555 1_555
C11_2 C14_2 1_555 1_555
C12_2 C13_2 1_555 1_555
Cu6_2 O19_2 1_555 1_555
Cu6_2 O23_2 1_555 1_555
O25_2 C20_2 1_555 1_555
C20_2 C21_2 1_555 1_555
C5_2 H1_2 1_555 1_555
C13_2 H7_2 1_555 1_555
C10_2 H8_2 1_555 1_555
C16_2 H11_2 1_555 1_555
C16_2 H12_2 1_555 1_555
C21_2 H17_2 1_555 1_555
N7 C2_2 1_555 1_555
O28 C1_2 1_555 1_555
O34 C1_2 1_555 1_555
C1_2 C2_2 1_555 1_555
C2_2 C8_2 1_555 1_555
C6_2 N7 1_555 1_555
C8_2 O9_2 1_555 1_555
C8_2 H3_2 1_555 1_555
C8_2 H4_2 1_555 1_555
C2_2 H6_2 1_555 1_555

#END
