
###############################################################################
#
# This file contains modified crystal structure data generated from the
# MOF subset of the Cambridge Structural Database (CSD) v543 
# hosted by the Cambridge Crystallographic Data Centre (CCDC).
#
# This work is licensed under the Creative Commons
# Attribution-NonCommercial-ShareAlike 4.0 International License.
# To view a copy of this license, visit
# http://creativecommons.org/licenses/by-nc-sa/4.0/
# or send a letter to
# Creative Commons, PO Box 1866, Mountain View, CA 94042, USA.
#
# CIF created using the CSD Python API on 29 September 2022
# The structure has been converted into the P1 space group
# The structure has a 3D framework
# The original CSD entry TEYBOQ is in the monoclinic crystal system
# The framework has been calculated to contain at least 10.0% void space
# The void calculation uses a probe of radius 1.32A, grid spacing 0.4
# The framework is charged, counterions have been retained in the structure
#
###############################################################################

data_TEYBOQ
_chemical_formula_moiety         '(C208 H144 N32 O64 Pb8)n'
_symmetry_cell_setting           triclinic
_symmetry_space_group_name_H-M   'P 1'
_symmetry_Int_Tables_number      1
_space_group_name_Hall           'P 1'
loop_
_symmetry_equiv_pos_site_id
_symmetry_equiv_pos_as_xyz
1 x,y,z
_cell_length_a                   43.3044(11)
_cell_length_b                   7.7682(2)
_cell_length_c                   28.6980(9)
_cell_angle_alpha                90
_cell_angle_beta                 128.5490(10)
_cell_angle_gamma                90
_cell_volume                     7550.1
loop_
_atom_site_label
_atom_site_type_symbol
_atom_site_fract_x
_atom_site_fract_y
_atom_site_fract_z
Pb1 Pb 0.223668(4) 0.115613(17) 0.222865(6)
O2 O 0.20519(9) 0.0964(3) 0.29169(14)
O7 O 0.02811(13) 0.5418(9) 0.1308(3)
O8 O 0.20044(8) 0.4331(4) 0.22035(14)
N3 N 0.02319(11) 0.6914(6) 0.0596(2)
H2 H 0.0370 0.7301 0.0488
N4 N 0.16360(9) 0.4807(4) 0.19638(15)
H3 H 0.2035 0.0490 0.3785
C21 C 0.04307(15) 0.5998(8) 0.1105(3)
C22 C 0.08624(12) 0.5666(7) 0.1412(2)
C23 C 0.10412(13) 0.4297(7) 0.1803(2)
H15 H 0.0896 0.3643 0.1887
C24 C 0.14234(13) 0.3875(5) 0.2068(2)
H16 H 0.1541 0.2914 0.2329
C25 C 0.14854(12) 0.6231(5) 0.1622(2)
H17 H 0.1645 0.6924 0.1575
C26 C 0.10939(13) 0.6679(7) 0.1337(2)
H18 H 0.0985 0.7674 0.1092
O9 O 0.27711(10) 0.3552(4) 0.22619(14)
O11 O 0.28132(8) 0.2955(4) 0.32744(12)
O12 O 0.15278(8) 0.0763(4) 0.15215(14)
O1 O 0.22289(10) 0.8552(4) 0.27381(14)
O3 O 0.2009(2) 0.2942(5) 0.4408(2)
O4 O 0.21868(8) 0.2045(4) 0.67256(12)
N1 N 0.19588(13) 0.5742(5) 0.45581(19)
H1 H 0.1917 0.6421 0.4760
N2 N 0.21240(9) 0.2515(4) 0.62326(15)
C1 C 0.21135(11) 0.9365(5) 0.29857(17)
C2 C 0.20588(11) 0.8388(5) 0.33832(18)
C3 C 0.20294(15) 0.9267(6) 0.3775(2)
C4 C 0.19919(16) 0.8352(6) 0.4154(2)
H4 H 0.1973 0.8957 0.4423
C5 C 0.19813(14) 0.6569(6) 0.4143(2)
C6 C 0.20037(15) 0.5681(6) 0.3741(2)
H5 H 0.1991 0.4460 0.3721
C7 C 0.20448(13) 0.6616(6) 0.33712(19)
H6 H 0.2064 0.6017 0.3101
C8 C 0.19921(18) 0.4051(6) 0.4688(2)
C9 C 0.20212(15) 0.3575(6) 0.5222(2)
C10 C 0.19741(14) 0.4717(6) 0.5546(2)
H7 H 0.1908 0.5885 0.5424
C11 C 0.20225(13) 0.4160(5) 0.6046(2)
H8 H 0.1984 0.4943 0.6260
C12 C 0.21609(16) 0.1385(6) 0.5916(2)
H9 H 0.2221 0.0215 0.6039
C13 C 0.21126(17) 0.1903(6) 0.5418(2)
H10 H 0.2143 0.1084 0.5204
Pb2 Pb 0.276332(4) 0.615613(17) 0.277135(6)
Pb5 Pb 0.276332(4) 0.384387(17) 0.777135(6)
O10 O 0.21868(8) 0.7955(4) 0.17256(12)
Pb4 Pb 0.223668(4) 0.884387(17) 0.722865(6)
O5 O 0.16398(9) 0.8211(6) 0.59144(16)
O6 O 0.15278(8) 0.9237(4) 0.65215(14)
C14 C 0.14157(12) 0.8574(6) 0.6033(2)
C15 C 0.09789(12) 0.8170(7) 0.5590(2)
C16 C 0.08253(16) 0.7373(11) 0.5051(3)
H11 H 0.0996 0.7120 0.4958
C17 C 0.04263(17) 0.6936(12) 0.4645(3)
H12 H 0.0326 0.6386 0.4280
C18 C 0.01758(13) 0.7319(8) 0.4783(2)
C19 C 0.03265(13) 0.8145(7) 0.5318(2)
H13 H 0.0157 0.8418 0.5412
C20 C 0.07261(13) 0.8571(6) 0.5715(2)
H14 H 0.0826 0.9145 0.6077
O5_2 O 0.33602(9) 0.3211(6) 0.90856(16)
O6_2 O 0.34722(8) 0.4237(4) 0.84785(14)
C14_2 C 0.35843(12) 0.3574(6) 0.8967(2)
C15_2 C 0.40211(12) 0.3170(7) 0.9410(2)
C16_2 C 0.41747(16) 0.2373(11) 0.9949(3)
C19_2 C 0.46735(13) 0.3145(7) 0.9682(2)
H13_2 H 0.4843 0.3418 0.9588
C20_2 C 0.42739(13) 0.3571(6) 0.9285(2)
H14_2 H 0.4174 0.4145 0.8923
O2_2 O 0.29481(9) 0.5964(3) 0.20831(14)
O8_2 O 0.29956(8) 0.9331(4) 0.27965(14)
N1_2 N 0.30412(13) 0.0742(5) 0.04419(19)
H1_2 H 0.3083 0.1421 0.0240
N4_2 N 0.33640(9) 0.9807(4) 0.30362(15)
C1_2 C 0.28865(11) 0.4365(5) 0.20143(17)
C2_2 C 0.29412(11) 0.3388(5) 0.16168(18)
C3_2 C 0.29706(15) 0.4267(6) 0.1225(2)
H3_2 H 0.2965 0.5490 0.1215
C4_2 C 0.30081(16) 0.3352(6) 0.0846(2)
H4_2 H 0.3027 0.3957 0.0577
C5_2 C 0.30187(14) 0.1569(6) 0.0857(2)
C6_2 C 0.29963(15) 0.0681(6) 0.1259(2)
C7_2 C 0.29552(13) 0.1616(6) 0.16288(19)
H6_2 H 0.2936 0.1017 0.1899
C23_2 C 0.39588(13) 0.9297(7) 0.3197(2)
H15_2 H 0.4104 0.8643 0.3113
C24_2 C 0.35766(13) 0.8875(5) 0.2932(2)
H16_2 H 0.3459 0.7914 0.2671
O12_2 O 0.34722(8) 0.5763(4) 0.34785(14)
O4_2 O 0.28132(8) 0.7045(4) 0.82744(12)
N2_2 N 0.28760(9) 0.7515(4) 0.87674(15)
C9_2 C 0.29788(15) 0.8575(6) 0.9778(2)
C10_2 C 0.30259(14) 0.9717(6) 0.9454(2)
C11_2 C 0.29775(13) 0.9160(5) 0.8954(2)
H8_2 H 0.3016 0.9943 0.8740
C12_2 C 0.28391(16) 0.6385(6) 0.9084(2)
H9_2 H 0.2779 0.5215 0.8961
C13_2 C 0.28874(17) 0.6903(6) 0.9582(2)
H10_2 H 0.2857 0.6084 0.9796
O5_3 O 0.16398(9) 0.1789(6) 0.09144(16)
C14_3 C 0.14157(12) 0.1426(6) 0.1033(2)
C15_3 C 0.09789(12) 0.1830(7) 0.0590(2)
C16_3 C 0.08253(16) 0.2627(11) 0.0051(3)
C19_3 C 0.03265(13) 0.1855(7) 0.0318(2)
H13_3 H 0.0157 0.1582 0.0412
C20_3 C 0.07261(13) 0.1429(6) 0.0715(2)
H14_3 H 0.0826 0.0855 0.1077
N2_3 N 0.21240(9) 0.7485(4) 0.12326(15)
C9_3 C 0.20212(15) 0.6425(6) 0.0222(2)
C10_3 C 0.19741(14) 0.5283(6) 0.0546(2)
H7_2 H 0.1908 0.4115 0.0424
C11_3 C 0.20225(13) 0.5840(5) 0.1046(2)
H8_3 H 0.1984 0.5057 0.1260
C12_3 C 0.21609(16) 0.8615(6) 0.0916(2)
H9_3 H 0.2221 0.9785 0.1039
C13_3 C 0.21126(17) 0.8097(6) 0.0418(2)
H10_3 H 0.2143 0.8916 0.0204
O1_2 O 0.22289(10) 0.1448(4) 0.77381(14)
O3_2 O 0.2009(2) 0.7058(5) 0.9408(2)
N1_3 N 0.19588(13) 0.4258(5) 0.95581(19)
H1_3 H 0.1917 0.3579 0.9760
C1_3 C 0.21135(11) 0.0635(5) 0.79857(17)
C2_3 C 0.20588(11) 0.1612(5) 0.83832(18)
C3_3 C 0.20294(15) 0.0733(6) 0.8775(2)
C4_3 C 0.19919(16) 0.1648(6) 0.9154(2)
H4_3 H 0.1973 0.1043 0.9423
C5_3 C 0.19813(14) 0.3431(6) 0.9143(2)
C6_3 C 0.20037(15) 0.4319(6) 0.8741(2)
H5_2 H 0.1991 0.5540 0.8721
C7_3 C 0.20448(13) 0.3384(6) 0.83712(19)
H6_3 H 0.2064 0.3983 0.8101
C8_2 C 0.19921(18) 0.5949(6) 0.9688(2)
O2_3 O 0.20519(9) 0.9036(3) 0.79169(14)
O7_2 O 0.02811(13) 0.4582(9) 0.6308(3)
O8_3 O 0.20044(8) 0.5669(4) 0.72035(14)
N3_2 N 0.02319(11) 0.3086(6) 0.5596(2)
H2_2 H 0.0370 0.2699 0.5488
N4_3 N 0.16360(9) 0.5193(4) 0.69638(15)
H3_3 H 0.2035 0.9510 0.8785
C21_2 C 0.04307(15) 0.4002(8) 0.6105(3)
C22_2 C 0.08624(12) 0.4334(7) 0.6412(2)
C23_3 C 0.10412(13) 0.5703(7) 0.6803(2)
H15_3 H 0.0896 0.6357 0.6887
C24_3 C 0.14234(13) 0.6125(5) 0.7068(2)
H16_3 H 0.1541 0.7086 0.7329
C25_2 C 0.14854(12) 0.3769(5) 0.6622(2)
H17_2 H 0.1645 0.3076 0.6575
C26_2 C 0.10939(13) 0.3321(7) 0.6337(2)
H18_2 H 0.0985 0.2326 0.6092
O9_2 O 0.27711(10) 0.6448(4) 0.72619(14)
O3_3 O 0.2991(2) 0.2058(5) 0.5592(2)
N2_4 N 0.28760(9) 0.2485(4) 0.37674(15)
H5_3 H 0.3009 0.0540 0.6279
C8_3 C 0.30079(18) 0.0949(6) 0.5312(2)
C9_4 C 0.29788(15) 0.1425(6) 0.4778(2)
C10_4 C 0.30259(14) 0.0283(6) 0.4454(2)
C11_4 C 0.29775(13) 0.0840(5) 0.3954(2)
H8_4 H 0.3016 0.0057 0.3740
C12_4 C 0.28391(16) 0.3615(6) 0.4084(2)
H9_4 H 0.2779 0.4785 0.3961
C13_4 C 0.28874(17) 0.3097(6) 0.4582(2)
H10_4 H 0.2857 0.3916 0.4796
O2_4 O 0.29481(9) 0.4036(3) 0.70831(14)
O8_4 O 0.29956(8) 0.0669(4) 0.77965(14)
N1_4 N 0.30412(13) 0.9258(5) 0.54419(19)
H1_4 H 0.3083 0.8579 0.5240
N4_4 N 0.33640(9) 0.0193(4) 0.80362(15)
C1_4 C 0.28865(11) 0.5635(5) 0.70143(17)
C2_4 C 0.29412(11) 0.6612(5) 0.66168(18)
C3_4 C 0.29706(15) 0.5733(6) 0.6225(2)
H3_4 H 0.2965 0.4510 0.6215
C4_4 C 0.30081(16) 0.6648(6) 0.5846(2)
H4_4 H 0.3027 0.6043 0.5577
C5_4 C 0.30187(14) 0.8431(6) 0.5857(2)
C6_4 C 0.29963(15) 0.9319(6) 0.6259(2)
C7_4 C 0.29552(13) 0.8384(6) 0.66288(19)
H6_4 H 0.2936 0.8983 0.6899
H7_3 H 0.3092 0.9115 0.4576
C23_4 C 0.39588(13) 0.0703(7) 0.8197(2)
H15_4 H 0.4104 0.1357 0.8113
C24_4 C 0.35766(13) 0.1125(5) 0.7932(2)
H16_4 H 0.3459 0.2086 0.7671
O5_4 O 0.33602(9) 0.6789(6) 0.40856(16)
O7_3 O 0.52811(13) 0.9582(9) 0.6308(3)
N3_3 N 0.52319(11) 0.8086(6) 0.5596(2)
H2_3 H 0.5370 0.7699 0.5488
C14_4 C 0.35843(12) 0.6426(6) 0.3967(2)
C15_4 C 0.40211(12) 0.6830(7) 0.4410(2)
C16_4 C 0.41747(16) 0.7627(11) 0.4949(3)
H11_2 H 0.4004 0.7880 0.5042
C17_2 C 0.45737(17) 0.8064(12) 0.5355(3)
H12_2 H 0.4674 0.8614 0.5720
C18_2 C 0.48242(13) 0.7681(8) 0.5217(2)
C19_4 C 0.46735(13) 0.6855(7) 0.4682(2)
H13_4 H 0.4843 0.6582 0.4588
C20_4 C 0.42739(13) 0.6429(6) 0.4285(2)
H14_4 H 0.4174 0.5855 0.3923
C21_3 C 0.54307(15) 0.9002(8) 0.6105(3)
C22_3 C 0.58624(12) 0.9334(7) 0.6412(2)
C25_3 C 0.64854(12) 0.8769(5) 0.6622(2)
H17_3 H 0.6645 0.8076 0.6575
C26_3 C 0.60939(13) 0.8321(7) 0.6337(2)
H18_3 H 0.5985 0.7326 0.6092
H11_3 H 0.9004 0.7120 0.0042
C17_3 C 0.95737(17) 0.6936(12) 0.0355(3)
H12_3 H 0.9674 0.6386 0.0720
C18_3 C 0.98242(13) 0.7319(8) 0.0217(2)
O5_5 O 0.83602(9) 0.8211(6) 0.90856(16)
O6_3 O 0.84722(8) 0.9237(4) 0.84785(14)
C14_5 C 0.85843(12) 0.8574(6) 0.8967(2)
C15_5 C 0.90211(12) 0.8170(7) 0.9410(2)
C16_5 C 0.91747(16) 0.7373(11) 0.9949(3)
C19_5 C 0.96735(13) 0.8145(7) 0.9682(2)
H13_5 H 0.9843 0.8418 0.9588
C20_5 C 0.92739(13) 0.8571(6) 0.9285(2)
H14_5 H 0.9174 0.9145 0.8923
Pb3 Pb 0.776332(4) 0.884387(17) 0.777135(6)
Pb1_2 Pb 0.776332(4) 0.115613(17) 0.277135(6)
O2_5 O 0.79481(9) 0.0964(3) 0.20831(14)
O7_4 O 0.97189(13) 0.5418(9) 0.3692(3)
O8_5 O 0.79956(8) 0.4331(4) 0.27965(14)
N3_4 N 0.97681(11) 0.6914(6) 0.4404(2)
H2_4 H 0.9630 0.7301 0.4512
N4_5 N 0.83640(9) 0.4807(4) 0.30362(15)
H3_5 H 0.7965 0.0490 0.1215
C21_4 C 0.95693(15) 0.5998(8) 0.3895(3)
C22_4 C 0.91376(12) 0.5666(7) 0.3588(2)
C23_5 C 0.89588(13) 0.4297(7) 0.3197(2)
H15_5 H 0.9104 0.3643 0.3113
C24_5 C 0.85766(13) 0.3875(5) 0.2932(2)
H16_5 H 0.8459 0.2914 0.2671
C25_4 C 0.85146(12) 0.6231(5) 0.3378(2)
H17_4 H 0.8355 0.6924 0.3425
C26_4 C 0.89061(13) 0.6679(7) 0.3663(2)
H18_4 H 0.9015 0.7674 0.3908
O9_3 O 0.72289(10) 0.3552(4) 0.27381(14)
O11_2 O 0.71868(8) 0.2955(4) 0.17256(12)
O12_3 O 0.84722(8) 0.0763(4) 0.34785(14)
O1_3 O 0.77711(10) 0.8552(4) 0.22619(14)
O3_4 O 0.7991(2) 0.2942(5) 0.0592(2)
N1_5 N 0.80412(13) 0.5742(5) 0.04419(19)
H1_5 H 0.8083 0.6421 0.0240
C1_5 C 0.78865(11) 0.9365(5) 0.20143(17)
C2_5 C 0.79412(11) 0.8388(5) 0.16168(18)
C3_5 C 0.79706(15) 0.9267(6) 0.1225(2)
C4_5 C 0.80081(16) 0.8352(6) 0.0846(2)
H4_5 H 0.8027 0.8957 0.0577
C5_5 C 0.80187(14) 0.6569(6) 0.0857(2)
C6_5 C 0.79963(15) 0.5681(6) 0.1259(2)
H5_4 H 0.8009 0.4460 0.1279
C7_5 C 0.79552(13) 0.6616(6) 0.16288(19)
H6_5 H 0.7936 0.6017 0.1899
C8_4 C 0.80079(18) 0.4051(6) 0.0312(2)
Pb2_2 Pb 0.723668(4) 0.615613(17) 0.222865(6)
O10_2 O 0.78132(8) 0.7955(4) 0.32744(12)
O4_3 O 0.78132(8) 0.2045(4) 0.82744(12)
N2_5 N 0.78760(9) 0.2515(4) 0.87674(15)
C9_5 C 0.79788(15) 0.3575(6) 0.9778(2)
C10_5 C 0.80259(14) 0.4717(6) 0.9454(2)
H7_4 H 0.8092 0.5885 0.9576
C11_5 C 0.79775(13) 0.4160(5) 0.8954(2)
H8_5 H 0.8016 0.4943 0.8740
C12_5 C 0.78391(16) 0.1385(6) 0.9084(2)
H9_5 H 0.7779 0.0215 0.8961
C13_5 C 0.78874(17) 0.1903(6) 0.9582(2)
H10_5 H 0.7857 0.1084 0.9796
Pb5_2 Pb 0.723668(4) 0.384387(17) 0.722865(6)
O2_6 O 0.70519(9) 0.5964(3) 0.29169(14)
O8_6 O 0.70044(8) 0.9331(4) 0.22035(14)
N1_6 N 0.69588(13) 0.0742(5) 0.45581(19)
H1_6 H 0.6917 0.1421 0.4760
N4_6 N 0.66360(9) 0.9807(4) 0.19638(15)
C1_6 C 0.71135(11) 0.4365(5) 0.29857(17)
C2_6 C 0.70588(11) 0.3388(5) 0.33832(18)
C3_6 C 0.70294(15) 0.4267(6) 0.3775(2)
H3_6 H 0.7035 0.5490 0.3785
C4_6 C 0.69919(16) 0.3352(6) 0.4154(2)
H4_6 H 0.6973 0.3957 0.4423
C5_6 C 0.69813(14) 0.1569(6) 0.4143(2)
C6_6 C 0.70037(15) 0.0681(6) 0.3741(2)
C7_6 C 0.70448(13) 0.1616(6) 0.33712(19)
H6_6 H 0.7064 0.1017 0.3101
H7_5 H 0.6908 0.0885 0.5424
C23_6 C 0.60412(13) 0.9297(7) 0.1803(2)
H15_6 H 0.5896 0.8643 0.1887
C24_6 C 0.64234(13) 0.8875(5) 0.2068(2)
H16_6 H 0.6541 0.7914 0.2329
O12_4 O 0.65278(8) 0.5763(4) 0.15215(14)
O3_5 O 0.7009(2) 0.7942(5) 0.4408(2)
O4_4 O 0.71868(8) 0.7045(4) 0.67256(12)
N2_6 N 0.71240(9) 0.7515(4) 0.62326(15)
H5_5 H 0.6991 0.9460 0.3721
C8_5 C 0.69921(18) 0.9051(6) 0.4688(2)
C9_6 C 0.70212(15) 0.8575(6) 0.5222(2)
C10_6 C 0.69741(14) 0.9717(6) 0.5546(2)
C11_6 C 0.70225(13) 0.9160(5) 0.6046(2)
H8_6 H 0.6984 0.9943 0.6260
C12_6 C 0.71609(16) 0.6385(6) 0.5916(2)
H9_6 H 0.7221 0.5215 0.6039
C13_6 C 0.71126(17) 0.6903(6) 0.5418(2)
H10_6 H 0.7143 0.6084 0.5204
O5_6 O 0.66398(9) 0.3211(6) 0.59144(16)
O6_4 O 0.65278(8) 0.4237(4) 0.65215(14)
O7_5 O 0.47189(13) 0.0418(9) 0.3692(3)
N3_5 N 0.47681(11) 0.1914(6) 0.4404(2)
H2_5 H 0.4630 0.2301 0.4512
C14_6 C 0.64157(12) 0.3574(6) 0.6033(2)
C15_6 C 0.59789(12) 0.3170(7) 0.5590(2)
C16_6 C 0.58253(16) 0.2373(11) 0.5051(3)
H11_4 H 0.5996 0.2120 0.4958
C17_4 C 0.54263(17) 0.1936(12) 0.4645(3)
H12_4 H 0.5326 0.1386 0.4280
C18_4 C 0.51758(13) 0.2319(8) 0.4783(2)
C19_6 C 0.53265(13) 0.3145(7) 0.5318(2)
H13_6 H 0.5157 0.3418 0.5412
C20_6 C 0.57261(13) 0.3571(6) 0.5715(2)
H14_6 H 0.5826 0.4145 0.6077
C21_5 C 0.45693(15) 0.0998(8) 0.3895(3)
C22_5 C 0.41376(12) 0.0666(7) 0.3588(2)
C25_5 C 0.35146(12) 0.1231(5) 0.3378(2)
H17_5 H 0.3355 0.1924 0.3425
C26_5 C 0.39061(13) 0.1679(7) 0.3663(2)
H18_5 H 0.4015 0.2674 0.3908
O1_4 O 0.77711(10) 0.1448(4) 0.72619(14)
O3_6 O 0.7991(2) 0.7058(5) 0.5592(2)
N1_7 N 0.80412(13) 0.4258(5) 0.54419(19)
H1_7 H 0.8083 0.3579 0.5240
N2_7 N 0.78760(9) 0.7485(4) 0.37674(15)
C1_7 C 0.78865(11) 0.0635(5) 0.70143(17)
C2_7 C 0.79412(11) 0.1612(5) 0.66168(18)
C3_7 C 0.79706(15) 0.0733(6) 0.6225(2)
C4_7 C 0.80081(16) 0.1648(6) 0.5846(2)
H4_7 H 0.8027 0.1043 0.5577
C5_7 C 0.80187(14) 0.3431(6) 0.5857(2)
C6_7 C 0.79963(15) 0.4319(6) 0.6259(2)
H5_6 H 0.8009 0.5540 0.6279
C7_7 C 0.79552(13) 0.3384(6) 0.66288(19)
H6_7 H 0.7936 0.3983 0.6899
C8_6 C 0.80079(18) 0.5949(6) 0.5312(2)
C9_7 C 0.79788(15) 0.6425(6) 0.4778(2)
C10_7 C 0.80259(14) 0.5283(6) 0.4454(2)
H7_6 H 0.8092 0.4115 0.4576
C11_7 C 0.79775(13) 0.5840(5) 0.3954(2)
H8_7 H 0.8016 0.5057 0.3740
C12_7 C 0.78391(16) 0.8615(6) 0.4084(2)
H9_7 H 0.7779 0.9785 0.3961
C13_7 C 0.78874(17) 0.8097(6) 0.4582(2)
H10_7 H 0.7857 0.8916 0.4796
O2_7 O 0.79481(9) 0.9036(3) 0.70831(14)
O7_6 O 0.97189(13) 0.4582(9) 0.8692(3)
O8_7 O 0.79956(8) 0.5669(4) 0.77965(14)
N3_6 N 0.97681(11) 0.3086(6) 0.9404(2)
H2_6 H 0.9630 0.2699 0.9512
N4_7 N 0.83640(9) 0.5193(4) 0.80362(15)
H3_7 H 0.7965 0.9510 0.6215
C21_6 C 0.95693(15) 0.4002(8) 0.8895(3)
C22_6 C 0.91376(12) 0.4334(7) 0.8588(2)
C23_7 C 0.89588(13) 0.5703(7) 0.8197(2)
H15_7 H 0.9104 0.6357 0.8113
C24_7 C 0.85766(13) 0.6125(5) 0.7932(2)
H16_7 H 0.8459 0.7086 0.7671
C25_6 C 0.85146(12) 0.3769(5) 0.8378(2)
H17_6 H 0.8355 0.3076 0.8425
C26_6 C 0.89061(13) 0.3321(7) 0.8663(2)
H18_6 H 0.9015 0.2326 0.8908
O9_4 O 0.72289(10) 0.6448(4) 0.77381(14)
O5_7 O 0.83602(9) 0.1789(6) 0.40856(16)
C14_7 C 0.85843(12) 0.1426(6) 0.3967(2)
C15_7 C 0.90211(12) 0.1830(7) 0.4410(2)
C16_7 C 0.91747(16) 0.2627(11) 0.4949(3)
H11_5 H 0.9004 0.2880 0.5042
C17_5 C 0.95737(17) 0.3064(12) 0.5355(3)
H12_5 H 0.9674 0.3614 0.5720
C18_5 C 0.98242(13) 0.2681(8) 0.5217(2)
C19_7 C 0.96735(13) 0.1855(7) 0.4682(2)
H13_7 H 0.9843 0.1582 0.4588
C20_7 C 0.92739(13) 0.1429(6) 0.4285(2)
H14_7 H 0.9174 0.0855 0.3923
O5_8 O 0.66398(9) 0.6789(6) 0.09144(16)
C14_8 C 0.64157(12) 0.6426(6) 0.1033(2)
C15_8 C 0.59789(12) 0.6830(7) 0.0590(2)
C16_8 C 0.58253(16) 0.7627(11) 0.0051(3)
C19_8 C 0.53265(13) 0.6855(7) 0.0318(2)
H13_8 H 0.5157 0.6582 0.0412
C20_8 C 0.57261(13) 0.6429(6) 0.0715(2)
H14_8 H 0.5826 0.5855 0.1077
N2_8 N 0.71240(9) 0.2485(4) 0.12326(15)
C9_8 C 0.70212(15) 0.1425(6) 0.0222(2)
C10_8 C 0.69741(14) 0.0283(6) 0.0546(2)
C11_8 C 0.70225(13) 0.0840(5) 0.1046(2)
H8_8 H 0.6984 0.0057 0.1260
C12_8 C 0.71609(16) 0.3615(6) 0.0916(2)
H9_8 H 0.7221 0.4785 0.1039
C13_8 C 0.71126(17) 0.3097(6) 0.0418(2)
H10_8 H 0.7143 0.3916 0.0204
O2_8 O 0.70519(9) 0.4036(3) 0.79169(14)
O8_8 O 0.70044(8) 0.0669(4) 0.72035(14)
N1_8 N 0.69588(13) 0.9258(5) 0.95581(19)
H1_8 H 0.6917 0.8579 0.9760
N4_8 N 0.66360(9) 0.0193(4) 0.69638(15)
C1_8 C 0.71135(11) 0.5635(5) 0.79857(17)
C2_8 C 0.70588(11) 0.6612(5) 0.83832(18)
C3_8 C 0.70294(15) 0.5733(6) 0.8775(2)
H3_8 H 0.7035 0.4510 0.8785
C4_8 C 0.69919(16) 0.6648(6) 0.9154(2)
H4_8 H 0.6973 0.6043 0.9423
C5_8 C 0.69813(14) 0.8431(6) 0.9143(2)
C6_8 C 0.70037(15) 0.9319(6) 0.8741(2)
C7_8 C 0.70448(13) 0.8384(6) 0.83712(19)
H6_8 H 0.7064 0.8983 0.8101
C23_8 C 0.60412(13) 0.0703(7) 0.6803(2)
H15_8 H 0.5896 0.1357 0.6887
C24_8 C 0.64234(13) 0.1125(5) 0.7068(2)
H16_8 H 0.6541 0.2086 0.7329
O7_7 O 0.52811(13) 0.0418(9) 0.1308(3)
N3_7 N 0.52319(11) 0.1914(6) 0.0596(2)
H2_7 H 0.5370 0.2301 0.0488
H11_6 H 0.4004 0.2120 0.0042
C17_6 C 0.45737(17) 0.1936(12) 0.0355(3)
H12_6 H 0.4674 0.1386 0.0720
C18_6 C 0.48242(13) 0.2319(8) 0.0217(2)
C21_7 C 0.54307(15) 0.0998(8) 0.1105(3)
C22_7 C 0.58624(12) 0.0666(7) 0.1412(2)
C25_7 C 0.64854(12) 0.1231(5) 0.1622(2)
H17_7 H 0.6645 0.1924 0.1575
C26_7 C 0.60939(13) 0.1679(7) 0.1337(2)
H18_7 H 0.5985 0.2674 0.1092
H7_7 H 0.3092 0.0885 0.9576
O3_7 O 0.2991(2) 0.7942(5) 0.0592(2)
H5_7 H 0.3009 0.9460 0.1279
C8_7 C 0.30079(18) 0.9051(6) 0.0312(2)
H11_7 H 0.0996 0.2880 0.9958
C17_7 C 0.04263(17) 0.3064(12) 0.9645(3)
H12_7 H 0.0326 0.3614 0.9280
C18_7 C 0.01758(13) 0.2681(8) 0.9783(2)
O7_8 O 0.47189(13) 0.9582(9) 0.8692(3)
N3_8 N 0.47681(11) 0.8086(6) 0.9404(2)
H2_8 H 0.4630 0.7699 0.9512
H11_8 H 0.5996 0.7880 0.9958
C17_8 C 0.54263(17) 0.8064(12) 0.9645(3)
H12_8 H 0.5326 0.8614 0.9280
C18_8 C 0.51758(13) 0.7681(8) 0.9783(2)
C21_8 C 0.45693(15) 0.9002(8) 0.8895(3)
C22_8 C 0.41376(12) 0.9334(7) 0.8588(2)
C25_8 C 0.35146(12) 0.8769(5) 0.8378(2)
H17_8 H 0.3355 0.8076 0.8425
C26_8 C 0.39061(13) 0.8321(7) 0.8663(2)
H18_8 H 0.4015 0.7326 0.8908
O3_8 O 0.7009(2) 0.2058(5) 0.9408(2)
H5_8 H 0.6991 0.0540 0.8721
C8_8 C 0.69921(18) 0.0949(6) 0.9688(2)
H7_8 H 0.6908 0.9115 0.0424
loop_
_geom_bond_atom_site_label_1
_geom_bond_atom_site_label_2
_geom_bond_site_symmetry_1
_geom_bond_site_symmetry_2
O2 Pb1 1_555 1_555
O7 C21 1_555 1_555
O8 Pb1 1_555 1_555
N3 H2 1_555 1_555
N4 O8 1_555 1_555
C21 N3 1_555 1_555
C22 C21 1_555 1_555
C23 C22 1_555 1_555
H15 C23 1_555 1_555
C24 N4 1_555 1_555
H16 C24 1_555 1_555
C25 N4 1_555 1_555
H17 C25 1_555 1_555
C26 C22 1_555 1_555
H18 C26 1_555 1_555
O9 Pb1 1_555 1_555
O11 Pb1 1_555 1_555
O12 Pb1 1_555 1_555
C23 C24 1_555 1_555
C25 C26 1_555 1_555
O1 C1 1_555 1_555
O3 C8 1_555 1_555
O4 N2 1_555 1_555
N1 H1 1_555 1_555
N2 C11 1_555 1_555
C2 C1 1_555 1_555
C3 C2 1_555 1_555
C4 C3 1_555 1_555
H4 C4 1_555 1_555
C5 N1 1_555 1_555
C6 C5 1_555 1_555
H5 C6 1_555 1_555
C7 C2 1_555 1_555
H6 C7 1_555 1_555
C8 N1 1_555 1_555
C9 C8 1_555 1_555
C10 C9 1_555 1_555
H7 C10 1_555 1_555
C11 C10 1_555 1_555
H8 C11 1_555 1_555
C12 N2 1_555 1_555
H9 C12 1_555 1_555
C13 C9 1_555 1_555
H10 C13 1_555 1_555
Pb2 O1 1_555 1_555
Pb5 O4 1_555 1_555
C4 C5 1_555 1_555
C6 C7 1_555 1_555
C12 C13 1_555 1_555
Pb2 O10 1_555 1_555
O5 C14 1_555 1_555
O6 C14 1_555 1_555
C14 C15 1_555 1_555
C15 C16 1_555 1_555
C16 H11 1_555 1_555
C17 C16 1_555 1_555
H12 C17 1_555 1_555
C19 C18 1_555 1_555
H13 C19 1_555 1_555
C20 C15 1_555 1_555
H14 C20 1_555 1_555
Pb4 O6 1_555 1_555
C17 C18 1_555 1_555
C19 C20 1_555 1_555
O5_2 C14_2 1_555 1_555
O6_2 C14_2 1_555 1_555
C14_2 C15_2 1_555 1_555
C15_2 C16_2 1_555 1_555
H13_2 C19_2 1_555 1_555
C20_2 C15_2 1_555 1_555
H14_2 C20_2 1_555 1_555
Pb5 O6_2 1_555 1_555
C19_2 C20_2 1_555 1_555
Pb2 O9 1_555 1_555
O9 C1_2 1_555 1_555
O2_2 Pb2 1_555 1_555
O8_2 Pb2 1_555 1_555
N1_2 H1_2 1_555 1_555
N4_2 O8_2 1_555 1_555
C1_2 O2_2 1_555 1_555
C2_2 C1_2 1_555 1_555
C3_2 C2_2 1_555 1_555
H3_2 C3_2 1_555 1_555
C4_2 C3_2 1_555 1_555
H4_2 C4_2 1_555 1_555
C5_2 N1_2 1_555 1_555
C6_2 C5_2 1_555 1_555
C7_2 C2_2 1_555 1_555
H6_2 C7_2 1_555 1_555
H15_2 C23_2 1_555 1_555
C24_2 N4_2 1_555 1_555
H16_2 C24_2 1_555 1_555
O11 Pb2 1_555 1_555
O12_2 Pb2 1_555 1_555
C4_2 C5_2 1_555 1_555
C6_2 C7_2 1_555 1_555
C23_2 C24_2 1_555 1_555
O4_2 N2_2 1_555 1_555
N2_2 C11_2 1_555 1_555
C10_2 C9_2 1_555 1_555
C11_2 C10_2 1_555 1_555
H8_2 C11_2 1_555 1_555
C12_2 N2_2 1_555 1_555
H9_2 C12_2 1_555 1_555
C13_2 C9_2 1_555 1_555
H10_2 C13_2 1_555 1_555
Pb5 O4_2 1_555 1_555
Pb4 O4_2 1_555 1_555
C12_2 C13_2 1_555 1_555
O5_3 C14_3 1_555 1_555
O12 C14_3 1_555 1_555
C14_3 C15_3 1_555 1_555
C15_3 C16_3 1_555 1_555
H13_3 C19_3 1_555 1_555
C20_3 C15_3 1_555 1_555
H14_3 C20_3 1_555 1_555
C19_3 C20_3 1_555 1_555
O10 N2_3 1_555 1_555
N2_3 C11_3 1_555 1_555
C10_3 C9_3 1_555 1_555
H7_2 C10_3 1_555 1_555
C11_3 C10_3 1_555 1_555
H8_3 C11_3 1_555 1_555
C12_3 N2_3 1_555 1_555
H9_3 C12_3 1_555 1_555
C13_3 C9_3 1_555 1_555
H10_3 C13_3 1_555 1_555
C12_3 C13_3 1_555 1_555
O1_2 C1_3 1_555 1_555
O3_2 C8_2 1_555 1_555
N1_3 H1_3 1_555 1_555
C2_3 C1_3 1_555 1_555
C3_3 C2_3 1_555 1_555
C4_3 C3_3 1_555 1_555
H4_3 C4_3 1_555 1_555
C5_3 N1_3 1_555 1_555
C6_3 C5_3 1_555 1_555
H5_2 C6_3 1_555 1_555
C7_3 C2_3 1_555 1_555
H6_3 C7_3 1_555 1_555
C8_2 N1_3 1_555 1_555
Pb5 O1_2 1_555 1_555
C4_3 C5_3 1_555 1_555
C6_3 C7_3 1_555 1_555
O2_3 Pb4 1_555 1_555
O7_2 C21_2 1_555 1_555
O8_3 Pb4 1_555 1_555
N3_2 H2_2 1_555 1_555
N4_3 O8_3 1_555 1_555
C21_2 N3_2 1_555 1_555
C22_2 C21_2 1_555 1_555
C23_3 C22_2 1_555 1_555
H15_3 C23_3 1_555 1_555
C24_3 N4_3 1_555 1_555
H16_3 C24_3 1_555 1_555
C25_2 N4_3 1_555 1_555
H17_2 C25_2 1_555 1_555
C26_2 C22_2 1_555 1_555
H18_2 C26_2 1_555 1_555
O9_2 Pb4 1_555 1_555
C23_3 C24_3 1_555 1_555
C25_2 C26_2 1_555 1_555
O3_3 C8_3 1_555 1_555
O11 N2_4 1_555 1_555
N2_4 C11_4 1_555 1_555
C9_4 C8_3 1_555 1_555
C10_4 C9_4 1_555 1_555
C11_4 C10_4 1_555 1_555
H8_4 C11_4 1_555 1_555
C12_4 N2_4 1_555 1_555
H9_4 C12_4 1_555 1_555
C13_4 C9_4 1_555 1_555
H10_4 C13_4 1_555 1_555
C12_4 C13_4 1_555 1_555
Pb5 O9_2 1_555 1_555
O9_2 C1_4 1_555 1_555
O2_4 Pb5 1_555 1_555
O8_4 Pb5 1_555 1_555
N1_4 H1_4 1_555 1_555
N4_4 O8_4 1_555 1_555
C1_4 O2_4 1_555 1_555
C2_4 C1_4 1_555 1_555
C3_4 C2_4 1_555 1_555
H3_4 C3_4 1_555 1_555
C4_4 C3_4 1_555 1_555
H4_4 C4_4 1_555 1_555
C5_4 N1_4 1_555 1_555
C6_4 C5_4 1_555 1_555
C7_4 C2_4 1_555 1_555
H6_4 C7_4 1_555 1_555
H15_4 C23_4 1_555 1_555
C24_4 N4_4 1_555 1_555
H16_4 C24_4 1_555 1_555
C4_4 C5_4 1_555 1_555
C6_4 C7_4 1_555 1_555
C23_4 C24_4 1_555 1_555
O5_4 C14_4 1_555 1_555
O12_2 C14_4 1_555 1_555
O7_3 C21_3 1_555 1_555
N3_3 H2_3 1_555 1_555
C14_4 C15_4 1_555 1_555
C15_4 C16_4 1_555 1_555
C16_4 H11_2 1_555 1_555
C17_2 C16_4 1_555 1_555
H12_2 C17_2 1_555 1_555
C18_2 N3_3 1_555 1_555
C19_4 C18_2 1_555 1_555
H13_4 C19_4 1_555 1_555
C20_4 C15_4 1_555 1_555
H14_4 C20_4 1_555 1_555
C21_3 N3_3 1_555 1_555
C22_3 C21_3 1_555 1_555
H17_3 C25_3 1_555 1_555
C26_3 C22_3 1_555 1_555
H18_3 C26_3 1_555 1_555
C17_2 C18_2 1_555 1_555
C19_4 C20_4 1_555 1_555
C25_3 C26_3 1_555 1_555
H12_3 C17_3 1_555 1_555
C17_3 C18_3 1_555 1_555
O5_5 C14_5 1_555 1_555
O6_3 C14_5 1_555 1_555
C14_5 C15_5 1_555 1_555
C15_5 C16_5 1_555 1_555
H13_5 C19_5 1_555 1_555
C20_5 C15_5 1_555 1_555
H14_5 C20_5 1_555 1_555
Pb3 O6_3 1_555 1_555
C19_5 C20_5 1_555 1_555
O2_5 Pb1_2 1_555 1_555
O7_4 C21_4 1_555 1_555
O8_5 Pb1_2 1_555 1_555
N3_4 H2_4 1_555 1_555
N4_5 O8_5 1_555 1_555
C21_4 N3_4 1_555 1_555
C22_4 C21_4 1_555 1_555
C23_5 C22_4 1_555 1_555
H15_5 C23_5 1_555 1_555
C24_5 N4_5 1_555 1_555
H16_5 C24_5 1_555 1_555
C25_4 N4_5 1_555 1_555
H17_4 C25_4 1_555 1_555
C26_4 C22_4 1_555 1_555
H18_4 C26_4 1_555 1_555
O9_3 Pb1_2 1_555 1_555
O11_2 Pb1_2 1_555 1_555
O12_3 Pb1_2 1_555 1_555
C23_5 C24_5 1_555 1_555
C25_4 C26_4 1_555 1_555
O1_3 C1_5 1_555 1_555
O3_4 C8_4 1_555 1_555
N1_5 H1_5 1_555 1_555
C2_5 C1_5 1_555 1_555
C3_5 C2_5 1_555 1_555
C4_5 C3_5 1_555 1_555
H4_5 C4_5 1_555 1_555
C5_5 N1_5 1_555 1_555
C6_5 C5_5 1_555 1_555
H5_4 C6_5 1_555 1_555
C7_5 C2_5 1_555 1_555
H6_5 C7_5 1_555 1_555
C8_4 N1_5 1_555 1_555
Pb2_2 O1_3 1_555 1_555
C4_5 C5_5 1_555 1_555
C6_5 C7_5 1_555 1_555
Pb2_2 O10_2 1_555 1_555
O4_3 N2_5 1_555 1_555
N2_5 C11_5 1_555 1_555
C10_5 C9_5 1_555 1_555
H7_4 C10_5 1_555 1_555
C11_5 C10_5 1_555 1_555
H8_5 C11_5 1_555 1_555
C12_5 N2_5 1_555 1_555
H9_5 C12_5 1_555 1_555
C13_5 C9_5 1_555 1_555
H10_5 C13_5 1_555 1_555
Pb5_2 O4_3 1_555 1_555
C12_5 C13_5 1_555 1_555
Pb2_2 O9_3 1_555 1_555
O9_3 C1_6 1_555 1_555
O2_6 Pb2_2 1_555 1_555
O8_6 Pb2_2 1_555 1_555
N1_6 H1_6 1_555 1_555
N4_6 O8_6 1_555 1_555
C1_6 O2_6 1_555 1_555
C2_6 C1_6 1_555 1_555
C3_6 C2_6 1_555 1_555
H3_6 C3_6 1_555 1_555
C4_6 C3_6 1_555 1_555
H4_6 C4_6 1_555 1_555
C5_6 N1_6 1_555 1_555
C6_6 C5_6 1_555 1_555
C7_6 C2_6 1_555 1_555
H6_6 C7_6 1_555 1_555
H15_6 C23_6 1_555 1_555
C24_6 N4_6 1_555 1_555
H16_6 C24_6 1_555 1_555
O11_2 Pb2_2 1_555 1_555
O12_4 Pb2_2 1_555 1_555
C4_6 C5_6 1_555 1_555
C6_6 C7_6 1_555 1_555
C23_6 C24_6 1_555 1_555
O3_5 C8_5 1_555 1_555
O4_4 N2_6 1_555 1_555
N2_6 C11_6 1_555 1_555
C9_6 C8_5 1_555 1_555
C10_6 C9_6 1_555 1_555
C11_6 C10_6 1_555 1_555
H8_6 C11_6 1_555 1_555
C12_6 N2_6 1_555 1_555
H9_6 C12_6 1_555 1_555
C13_6 C9_6 1_555 1_555
H10_6 C13_6 1_555 1_555
Pb5_2 O4_4 1_555 1_555
Pb3 O4_4 1_555 1_555
C12_6 C13_6 1_555 1_555
O5_6 C14_6 1_555 1_555
O6_4 C14_6 1_555 1_555
O7_5 C21_5 1_555 1_555
N3_5 H2_5 1_555 1_555
C14_6 C15_6 1_555 1_555
C15_6 C16_6 1_555 1_555
C16_6 H11_4 1_555 1_555
C17_4 C16_6 1_555 1_555
H12_4 C17_4 1_555 1_555
C18_4 N3_5 1_555 1_555
C19_6 C18_4 1_555 1_555
H13_6 C19_6 1_555 1_555
C20_6 C15_6 1_555 1_555
H14_6 C20_6 1_555 1_555
C21_5 N3_5 1_555 1_555
C22_5 C21_5 1_555 1_555
H17_5 C25_5 1_555 1_555
C26_5 C22_5 1_555 1_555
H18_5 C26_5 1_555 1_555
Pb5_2 O6_4 1_555 1_555
C17_4 C18_4 1_555 1_555
C19_6 C20_6 1_555 1_555
C25_5 C26_5 1_555 1_555
O1_4 C1_7 1_555 1_555
O3_6 C8_6 1_555 1_555
O10_2 N2_7 1_555 1_555
N1_7 H1_7 1_555 1_555
N2_7 C11_7 1_555 1_555
C2_7 C1_7 1_555 1_555
C3_7 C2_7 1_555 1_555
C4_7 C3_7 1_555 1_555
H4_7 C4_7 1_555 1_555
C5_7 N1_7 1_555 1_555
C6_7 C5_7 1_555 1_555
H5_6 C6_7 1_555 1_555
C7_7 C2_7 1_555 1_555
H6_7 C7_7 1_555 1_555
C8_6 N1_7 1_555 1_555
C9_7 C8_6 1_555 1_555
C10_7 C9_7 1_555 1_555
H7_6 C10_7 1_555 1_555
C11_7 C10_7 1_555 1_555
H8_7 C11_7 1_555 1_555
C12_7 N2_7 1_555 1_555
H9_7 C12_7 1_555 1_555
C13_7 C9_7 1_555 1_555
H10_7 C13_7 1_555 1_555
Pb5_2 O1_4 1_555 1_555
C4_7 C5_7 1_555 1_555
C6_7 C7_7 1_555 1_555
C12_7 C13_7 1_555 1_555
O2_7 Pb3 1_555 1_555
O7_6 C21_6 1_555 1_555
O8_7 Pb3 1_555 1_555
N3_6 H2_6 1_555 1_555
N4_7 O8_7 1_555 1_555
C21_6 N3_6 1_555 1_555
C22_6 C21_6 1_555 1_555
C23_7 C22_6 1_555 1_555
H15_7 C23_7 1_555 1_555
C24_7 N4_7 1_555 1_555
H16_7 C24_7 1_555 1_555
C25_6 N4_7 1_555 1_555
H17_6 C25_6 1_555 1_555
C26_6 C22_6 1_555 1_555
H18_6 C26_6 1_555 1_555
O9_4 Pb3 1_555 1_555
C23_7 C24_7 1_555 1_555
C25_6 C26_6 1_555 1_555
O5_7 C14_7 1_555 1_555
O12_3 C14_7 1_555 1_555
C14_7 C15_7 1_555 1_555
C15_7 C16_7 1_555 1_555
C16_7 H11_5 1_555 1_555
C17_5 C16_7 1_555 1_555
H12_5 C17_5 1_555 1_555
C19_7 C18_5 1_555 1_555
H13_7 C19_7 1_555 1_555
C20_7 C15_7 1_555 1_555
H14_7 C20_7 1_555 1_555
C17_5 C18_5 1_555 1_555
C19_7 C20_7 1_555 1_555
O5_8 C14_8 1_555 1_555
O12_4 C14_8 1_555 1_555
C14_8 C15_8 1_555 1_555
C15_8 C16_8 1_555 1_555
H13_8 C19_8 1_555 1_555
C20_8 C15_8 1_555 1_555
H14_8 C20_8 1_555 1_555
C19_8 C20_8 1_555 1_555
O11_2 N2_8 1_555 1_555
N2_8 C11_8 1_555 1_555
C10_8 C9_8 1_555 1_555
C11_8 C10_8 1_555 1_555
H8_8 C11_8 1_555 1_555
C12_8 N2_8 1_555 1_555
H9_8 C12_8 1_555 1_555
C13_8 C9_8 1_555 1_555
H10_8 C13_8 1_555 1_555
C12_8 C13_8 1_555 1_555
Pb5_2 O9_4 1_555 1_555
O9_4 C1_8 1_555 1_555
O2_8 Pb5_2 1_555 1_555
O8_8 Pb5_2 1_555 1_555
N1_8 H1_8 1_555 1_555
N4_8 O8_8 1_555 1_555
C1_8 O2_8 1_555 1_555
C2_8 C1_8 1_555 1_555
C3_8 C2_8 1_555 1_555
H3_8 C3_8 1_555 1_555
C4_8 C3_8 1_555 1_555
H4_8 C4_8 1_555 1_555
C5_8 N1_8 1_555 1_555
C6_8 C5_8 1_555 1_555
C7_8 C2_8 1_555 1_555
H6_8 C7_8 1_555 1_555
H15_8 C23_8 1_555 1_555
C24_8 N4_8 1_555 1_555
H16_8 C24_8 1_555 1_555
C4_8 C5_8 1_555 1_555
C6_8 C7_8 1_555 1_555
C23_8 C24_8 1_555 1_555
O7_7 C21_7 1_555 1_555
N3_7 H2_7 1_555 1_555
H12_6 C17_6 1_555 1_555
C18_6 N3_7 1_555 1_555
C21_7 N3_7 1_555 1_555
C22_7 C21_7 1_555 1_555
H17_7 C25_7 1_555 1_555
C26_7 C22_7 1_555 1_555
H18_7 C26_7 1_555 1_555
C17_6 C18_6 1_555 1_555
C25_7 C26_7 1_555 1_555
O3_7 C8_7 1_555 1_555
H12_7 C17_7 1_555 1_555
C17_7 C18_7 1_555 1_555
O7_8 C21_8 1_555 1_555
N3_8 H2_8 1_555 1_555
H12_8 C17_8 1_555 1_555
C18_8 N3_8 1_555 1_555
C21_8 N3_8 1_555 1_555
C22_8 C21_8 1_555 1_555
H17_8 C25_8 1_555 1_555
C26_8 C22_8 1_555 1_555
H18_8 C26_8 1_555 1_555
C17_8 C18_8 1_555 1_555
C25_8 C26_8 1_555 1_555
O3_8 C8_8 1_555 1_555

#END
