
###############################################################################
#
# This file contains modified crystal structure data generated from the
# MOF subset of the Cambridge Structural Database (CSD) v543 
# hosted by the Cambridge Crystallographic Data Centre (CCDC).
#
# This work is licensed under the Creative Commons
# Attribution-NonCommercial-ShareAlike 4.0 International License.
# To view a copy of this license, visit
# http://creativecommons.org/licenses/by-nc-sa/4.0/
# or send a letter to
# Creative Commons, PO Box 1866, Mountain View, CA 94042, USA.
#
# CIF created using the CSD Python API on 29 September 2022
# The structure has been converted into the P1 space group
# The structure has a 3D framework
# The original CSD entry TEYBUW is in the monoclinic crystal system
# The framework has been calculated to contain at least 10.0% void space
# The void calculation uses a probe of radius 1.32A, grid spacing 0.4
# The framework is charged, counterions have been retained in the structure
#
###############################################################################

data_TEYBUW
_chemical_formula_moiety         '(C208 H144 N32 O64 Pb8)n'
_symmetry_cell_setting           triclinic
_symmetry_space_group_name_H-M   'P 1'
_symmetry_Int_Tables_number      1
_space_group_name_Hall           'P 1'
loop_
_symmetry_equiv_pos_site_id
_symmetry_equiv_pos_as_xyz
1 x,y,z
_cell_length_a                   43.753(3)
_cell_length_b                   7.7050(3)
_cell_length_c                   28.326(2)
_cell_angle_alpha                90
_cell_angle_beta                 129.724(12)
_cell_angle_gamma                90
_cell_volume                     7344.57
loop_
_atom_site_label
_atom_site_type_symbol
_atom_site_fract_x
_atom_site_fract_y
_atom_site_fract_z
C13 C 0.3599(3) 0.3578(15) 0.4018(5)
C14 C 0.4026(3) 0.3239(16) 0.4471(5)
C15 C 0.4264(3) 0.3441(14) 0.4310(5)
H10 H 0.4148 0.3828 0.3909
C16 C 0.4673(3) 0.3085(15) 0.4729(5)
H11 H 0.4833 0.3273 0.4616
C17 C 0.4842(3) 0.2457(19) 0.5308(5)
C18 C 0.4617(4) 0.225(2) 0.5487(7)
H12 H 0.4735 0.1840 0.5888
C19 C 0.4205(4) 0.266(2) 0.5064(7)
H13 H 0.4048 0.2530 0.5186
C20 C 0.5474(3) 0.1290(16) 0.6246(5)
C21 C 0.5895(3) 0.0914(14) 0.6506(5)
C22 C 0.6108(3) 0.1906(16) 0.6412(5)
H14 H 0.5998 0.2944 0.6178
C23 C 0.6495(3) 0.1390(14) 0.6660(4)
H15 H 0.6648 0.2098 0.6606
N3 N 0.5254(3) 0.2052(15) 0.5703(5)
H18 H 0.5380 0.2350 0.5567
O5 O 0.34659(19) 0.4128(9) 0.3496(3)
O6 O 0.3375(2) 0.3264(11) 0.4151(4)
O7 O 0.5357(2) 0.0843(13) 0.6519(4)
Pb3 Pb 0.275779(10) 0.37372(5) 0.278310(16)
Pb1 Pb 0.275779(10) 0.62628(5) 0.778310(16)
C1 C 0.2874(3) 0.4502(13) 0.7009(4)
C2 C 0.2930(3) 0.3520(14) 0.6612(4)
C3 C 0.2935(3) 0.1705(13) 0.6618(5)
H1 H 0.2900 0.1106 0.6873
C4 C 0.2990(3) 0.0779(14) 0.6272(5)
C5 C 0.3023(3) 0.1655(13) 0.5862(5)
C6 C 0.3023(3) 0.3443(13) 0.5861(5)
H3 H 0.3051 0.4045 0.5598
C7 C 0.2982(3) 0.4384(14) 0.6235(5)
H4 H 0.2990 0.5616 0.6235
N1 N 0.3058(3) 0.0793(11) 0.5468(4)
H5 H 0.3120 0.1453 0.5286
H9 H 0.3124 0.0878 0.4600
C24 C 0.3550(3) 0.8917(14) 0.7893(5)
H16 H 0.3430 0.7903 0.7648
C25 C 0.3926(3) 0.9431(15) 0.8123(5)
H17 H 0.4064 0.8771 0.8028
N4 N 0.3356(2) 0.9911(11) 0.8029(4)
O1 O 0.2929(2) 0.6115(9) 0.7072(3)
O2 O 0.2756(2) 0.3709(9) 0.7256(3)
O8 O 0.2999(2) 0.9412(9) 0.7829(3)
Pb2 Pb 0.224221(10) 0.12628(5) 0.721690(16)
O9 O 0.2244(2) 0.8709(9) 0.7744(3)
O10 O 0.2827(2) 0.3057(9) 0.8280(3)
O11 O 0.2173(2) 0.8057(9) 0.6720(3)
O12 O 0.34659(19) 0.5872(9) 0.8496(3)
H2 H 0.3005 0.9549 0.6301
C8 C 0.2989(3) 0.8587(15) 0.4796(5)
C9 C 0.2892(4) 0.6871(14) 0.4597(5)
H6 H 0.2855 0.6063 0.4811
C10 C 0.2848(3) 0.6346(14) 0.4100(5)
H7 H 0.2784 0.5168 0.3974
C11 C 0.2996(3) 0.9121(13) 0.3966(5)
H8 H 0.3032 0.9891 0.3743
C12 C 0.3048(3) 0.9707(15) 0.4471(5)
C26 C 0.3012(4) 0.9127(14) 0.5325(5)
N2 N 0.2894(2) 0.7436(11) 0.3785(4)
O3 O 0.2983(4) 0.8016(13) 0.5604(5)
O4 O 0.2827(2) 0.6943(9) 0.3280(3)
Pb5 Pb 0.224221(10) 0.87372(5) 0.221690(16)
H4_2 H 0.2010 0.0616 0.8765
C20_2 C 0.0474(3) 0.6290(16) 0.6246(5)
C21_2 C 0.0895(3) 0.5914(14) 0.6506(5)
C22_2 C 0.1108(3) 0.6906(16) 0.6412(5)
H14_2 H 0.0998 0.7944 0.6178
C23_2 C 0.1495(3) 0.6390(14) 0.6660(4)
H15_2 H 0.1648 0.7098 0.6606
C24_2 C 0.1450(3) 0.3917(14) 0.7107(5)
H16_2 H 0.1570 0.2903 0.7352
C25_2 C 0.1074(3) 0.4431(15) 0.6877(5)
H17_2 H 0.0936 0.3771 0.6972
N3_2 N 0.0254(3) 0.7052(15) 0.5703(5)
H18_2 H 0.0380 0.7350 0.5567
N4_2 N 0.1644(2) 0.4911(11) 0.6971(4)
O1_2 O 0.2071(2) 0.1115(9) 0.7928(3)
O7_2 O 0.0357(2) 0.5843(13) 0.6519(4)
O8_2 O 0.2001(2) 0.4412(9) 0.7171(3)
O12_2 O 0.15341(19) 0.0872(9) 0.6504(3)
C8_2 C 0.2011(3) 0.3587(15) 0.0204(5)
C9_2 C 0.2108(4) 0.1871(14) 0.0403(5)
H6_2 H 0.2145 0.1063 0.0189
C10_2 C 0.2152(3) 0.1346(14) 0.0900(5)
H7_2 H 0.2216 0.0168 0.1026
C11_2 C 0.2004(3) 0.4121(13) 0.1034(5)
H8_2 H 0.1968 0.4891 0.1257
C12_2 C 0.1952(3) 0.4707(15) 0.0529(5)
H9_2 H 0.1876 0.5878 0.0400
N2_2 N 0.2106(2) 0.2436(11) 0.1215(4)
O4_2 O 0.2173(2) 0.1943(9) 0.1720(3)
C1_2 C 0.2126(3) 0.9502(13) 0.7991(4)
C2_2 C 0.2070(3) 0.8520(14) 0.8388(4)
C3_2 C 0.2065(3) 0.6705(13) 0.8382(5)
H1_2 H 0.2100 0.6106 0.8127
C4_2 C 0.2010(3) 0.5779(14) 0.8728(5)
H2_2 H 0.1995 0.4549 0.8699
C5_2 C 0.1977(3) 0.6655(13) 0.9138(5)
C6_2 C 0.1977(3) 0.8443(13) 0.9139(5)
H3_2 H 0.1949 0.9045 0.9402
C7_2 C 0.2018(3) 0.9384(14) 0.8765(5)
N1_2 N 0.1942(3) 0.5793(11) 0.9532(4)
H5_2 H 0.1880 0.6453 0.9714
C26_2 C 0.1988(4) 0.4127(14) 0.9675(5)
O3_2 O 0.2017(4) 0.3016(13) 0.9396(5)
C13_2 C 0.1401(3) 0.8578(15) 0.0982(5)
C14_2 C 0.0974(3) 0.8239(16) 0.0529(5)
C15_2 C 0.0736(3) 0.8441(14) 0.0690(5)
H10_2 H 0.0852 0.8828 0.1091
C16_2 C 0.0327(3) 0.8085(15) 0.0271(5)
H11_2 H 0.0167 0.8273 0.0384
O5_2 O 0.15341(19) 0.9128(9) 0.1504(3)
O6_2 O 0.1625(2) 0.8264(11) 0.0849(4)
C8_3 C 0.2989(3) 0.1413(15) 0.9796(5)
C9_3 C 0.2892(4) 0.3129(14) 0.9597(5)
H6_3 H 0.2855 0.3937 0.9811
C10_3 C 0.2848(3) 0.3654(14) 0.9100(5)
H7_3 H 0.2784 0.4832 0.8974
C11_3 C 0.2996(3) 0.0879(13) 0.8966(5)
H8_3 H 0.3032 0.0109 0.8743
C12_3 C 0.3048(3) 0.0293(15) 0.9471(5)
N2_3 N 0.2894(2) 0.2564(11) 0.8785(4)
C1_3 C 0.2874(3) 0.5498(13) 0.2009(4)
C2_3 C 0.2930(3) 0.6480(14) 0.1612(4)
C3_3 C 0.2935(3) 0.8295(13) 0.1618(5)
H1_3 H 0.2900 0.8894 0.1873
C4_3 C 0.2990(3) 0.9221(14) 0.1272(5)
C5_3 C 0.3023(3) 0.8345(13) 0.0862(5)
C6_3 C 0.3023(3) 0.6557(13) 0.0861(5)
H3_3 H 0.3051 0.5955 0.0598
C7_3 C 0.2982(3) 0.5616(14) 0.1235(5)
H4_3 H 0.2990 0.4384 0.1235
N1_3 N 0.3058(3) 0.9207(11) 0.0468(4)
H5_3 H 0.3120 0.8547 0.0286
C24_3 C 0.3550(3) 0.1083(14) 0.2893(5)
H16_3 H 0.3430 0.2097 0.2648
C25_3 C 0.3926(3) 0.0569(15) 0.3123(5)
H17_3 H 0.4064 0.1229 0.3028
N4_3 N 0.3356(2) 0.0089(11) 0.3029(4)
O1_3 O 0.2929(2) 0.3885(9) 0.2072(3)
O2_2 O 0.2756(2) 0.6291(9) 0.2256(3)
O8_3 O 0.2999(2) 0.0588(9) 0.2829(3)
O9_2 O 0.2244(2) 0.1291(9) 0.2744(3)
C13_3 C 0.3599(3) 0.6422(15) 0.9018(5)
C14_3 C 0.4026(3) 0.6761(16) 0.9471(5)
C15_3 C 0.4264(3) 0.6559(14) 0.9310(5)
H10_3 H 0.4148 0.6172 0.8909
C16_3 C 0.4673(3) 0.6915(15) 0.9729(5)
H11_3 H 0.4833 0.6727 0.9616
O6_3 O 0.3375(2) 0.6736(11) 0.9151(4)
C13_4 C 0.1401(3) 0.1422(15) 0.5982(5)
C14_4 C 0.0974(3) 0.1761(16) 0.5529(5)
C15_4 C 0.0736(3) 0.1559(14) 0.5690(5)
H10_4 H 0.0852 0.1172 0.6091
C16_4 C 0.0327(3) 0.1915(15) 0.5271(5)
H11_4 H 0.0167 0.1727 0.5384
C17_2 C 0.0158(3) 0.2543(19) 0.4692(5)
C18_2 C 0.0383(4) 0.275(2) 0.4513(7)
H12_2 H 0.0265 0.3160 0.4112
C19_2 C 0.0795(4) 0.234(2) 0.4936(7)
H13_2 H 0.0952 0.2470 0.4814
O6_4 O 0.1625(2) 0.1736(11) 0.5849(4)
C1_4 C 0.2126(3) 0.0498(13) 0.2991(4)
C2_4 C 0.2070(3) 0.1480(14) 0.3388(4)
C3_4 C 0.2065(3) 0.3295(13) 0.3382(5)
H1_4 H 0.2100 0.3894 0.3127
C4_4 C 0.2010(3) 0.4221(14) 0.3728(5)
H2_3 H 0.1995 0.5451 0.3699
C5_4 C 0.1977(3) 0.3345(13) 0.4138(5)
C6_4 C 0.1977(3) 0.1557(13) 0.4139(5)
H3_4 H 0.1949 0.0955 0.4402
C7_4 C 0.2018(3) 0.0616(14) 0.3765(5)
N1_4 N 0.1942(3) 0.4207(11) 0.4532(4)
H5_4 H 0.1880 0.3547 0.4714
C8_4 C 0.2011(3) 0.6413(15) 0.5204(5)
C9_4 C 0.2108(4) 0.8129(14) 0.5403(5)
H6_4 H 0.2145 0.8937 0.5189
C10_4 C 0.2152(3) 0.8654(14) 0.5900(5)
H7_4 H 0.2216 0.9832 0.6026
C11_4 C 0.2004(3) 0.5879(13) 0.6034(5)
H8_4 H 0.1968 0.5109 0.6257
C12_4 C 0.1952(3) 0.5293(15) 0.5529(5)
H9_3 H 0.1876 0.4122 0.5400
C26_3 C 0.1988(4) 0.5873(14) 0.4675(5)
N2_4 N 0.2106(2) 0.7564(11) 0.6215(4)
O3_3 O 0.2017(4) 0.6984(13) 0.4396(5)
H4_4 H 0.2010 0.9384 0.3765
C20_3 C 0.0474(3) 0.3710(16) 0.1246(5)
C21_3 C 0.0895(3) 0.4086(14) 0.1506(5)
C22_3 C 0.1108(3) 0.3094(16) 0.1412(5)
H14_3 H 0.0998 0.2056 0.1178
C23_3 C 0.1495(3) 0.3610(14) 0.1660(4)
H15_3 H 0.1648 0.2902 0.1606
C24_4 C 0.1450(3) 0.6083(14) 0.2107(5)
H16_4 H 0.1570 0.7097 0.2352
C25_4 C 0.1074(3) 0.5569(15) 0.1877(5)
H17_4 H 0.0936 0.6229 0.1972
N3_3 N 0.0254(3) 0.2948(15) 0.0703(5)
H18_3 H 0.0380 0.2650 0.0567
N4_4 N 0.1644(2) 0.5089(11) 0.1971(4)
O1_4 O 0.2071(2) 0.8885(9) 0.2928(3)
O7_3 O 0.0357(2) 0.4157(13) 0.1519(4)
O8_4 O 0.2001(2) 0.5588(9) 0.2171(3)
H9_4 H 0.6876 0.0878 0.0400
Pb1_2 Pb 0.724221(10) 0.62628(5) 0.721690(16)
C1_5 C 0.7126(3) 0.4502(13) 0.7991(4)
C2_5 C 0.7070(3) 0.3520(14) 0.8388(4)
C3_5 C 0.7065(3) 0.1705(13) 0.8382(5)
H1_5 H 0.7100 0.1106 0.8127
C4_5 C 0.7010(3) 0.0779(14) 0.8728(5)
C5_5 C 0.6977(3) 0.1655(13) 0.9138(5)
C6_5 C 0.6977(3) 0.3443(13) 0.9139(5)
H3_5 H 0.6949 0.4045 0.9402
C7_5 C 0.7018(3) 0.4384(14) 0.8765(5)
H4_5 H 0.7010 0.5616 0.8765
N1_5 N 0.6942(3) 0.0793(11) 0.9532(4)
H5_5 H 0.6880 0.1453 0.9714
C24_5 C 0.6450(3) 0.8917(14) 0.7107(5)
H16_5 H 0.6570 0.7903 0.7352
C25_5 C 0.6074(3) 0.9431(15) 0.6877(5)
H17_5 H 0.5936 0.8771 0.6972
N4_5 N 0.6644(2) 0.9911(11) 0.6971(4)
O1_5 O 0.7071(2) 0.6115(9) 0.7928(3)
O2_3 O 0.7244(2) 0.3709(9) 0.7744(3)
O8_5 O 0.7001(2) 0.9412(9) 0.7171(3)
Pb2_2 Pb 0.775779(10) 0.12628(5) 0.778310(16)
O9_3 O 0.7756(2) 0.8709(9) 0.7256(3)
O10_2 O 0.7173(2) 0.3057(9) 0.6720(3)
O11_2 O 0.7827(2) 0.8057(9) 0.8280(3)
O12_3 O 0.65341(19) 0.5872(9) 0.6504(3)
C8_5 C 0.7011(3) 0.8587(15) 0.0204(5)
C9_5 C 0.7108(4) 0.6871(14) 0.0403(5)
H6_5 H 0.7145 0.6063 0.0189
C10_5 C 0.7152(3) 0.6346(14) 0.0900(5)
H7_5 H 0.7216 0.5168 0.1026
C11_5 C 0.7004(3) 0.9121(13) 0.1034(5)
H8_5 H 0.6968 0.9891 0.1257
C12_5 C 0.6952(3) 0.9707(15) 0.0529(5)
N2_5 N 0.7106(2) 0.7436(11) 0.1215(4)
O4_3 O 0.7173(2) 0.6943(9) 0.1720(3)
Pb4 Pb 0.724221(10) 0.37372(5) 0.221690(16)
Pb5_2 Pb 0.775779(10) 0.87372(5) 0.278310(16)
C13_5 C 0.6401(3) 0.3578(15) 0.0982(5)
C14_5 C 0.5974(3) 0.3239(16) 0.0529(5)
C15_5 C 0.5736(3) 0.3441(14) 0.0690(5)
H10_5 H 0.5852 0.3828 0.1091
C16_5 C 0.5327(3) 0.3085(15) 0.0271(5)
H11_5 H 0.5167 0.3273 0.0384
O5_3 O 0.65341(19) 0.4128(9) 0.1504(3)
O6_5 O 0.6625(2) 0.3264(11) 0.0849(4)
C13_6 C 0.8599(3) 0.8578(15) 0.4018(5)
C14_6 C 0.9026(3) 0.8239(16) 0.4471(5)
C15_6 C 0.9264(3) 0.8441(14) 0.4310(5)
H10_6 H 0.9148 0.8828 0.3909
C16_6 C 0.9673(3) 0.8085(15) 0.4729(5)
H11_6 H 0.9833 0.8273 0.4616
C17_3 C 0.9842(3) 0.7457(19) 0.5308(5)
C18_3 C 0.9617(4) 0.725(2) 0.5487(7)
H12_3 H 0.9735 0.6840 0.5888
C19_3 C 0.9205(4) 0.766(2) 0.5064(7)
H13_3 H 0.9048 0.7530 0.5186
O5_4 O 0.84659(19) 0.9128(9) 0.3496(3)
O6_6 O 0.8375(2) 0.8264(11) 0.4151(4)
H4_6 H 0.7990 0.0616 0.6235
C20_4 C 0.9526(3) 0.6290(16) 0.8754(5)
C21_4 C 0.9105(3) 0.5914(14) 0.8494(5)
C22_4 C 0.8892(3) 0.6906(16) 0.8588(5)
H14_4 H 0.9002 0.7944 0.8822
C23_4 C 0.8505(3) 0.6390(14) 0.8340(4)
H15_4 H 0.8352 0.7098 0.8394
C24_6 C 0.8550(3) 0.3917(14) 0.7893(5)
H16_6 H 0.8430 0.2903 0.7648
C25_6 C 0.8926(3) 0.4431(15) 0.8123(5)
H17_6 H 0.9064 0.3771 0.8028
N3_4 N 0.9746(3) 0.7052(15) 0.9297(5)
H18_4 H 0.9620 0.7350 0.9433
N4_6 N 0.8356(2) 0.4911(11) 0.8029(4)
O1_6 O 0.7929(2) 0.1115(9) 0.7072(3)
O7_4 O 0.9643(2) 0.5843(13) 0.8481(4)
O8_6 O 0.7999(2) 0.4412(9) 0.7829(3)
O12_4 O 0.84659(19) 0.0872(9) 0.8496(3)
C1_6 C 0.7874(3) 0.9502(13) 0.7009(4)
C2_6 C 0.7930(3) 0.8520(14) 0.6612(4)
C3_6 C 0.7935(3) 0.6705(13) 0.6618(5)
H1_6 H 0.7900 0.6106 0.6873
C4_6 C 0.7990(3) 0.5779(14) 0.6272(5)
H2_4 H 0.8005 0.4549 0.6301
C5_6 C 0.8023(3) 0.6655(13) 0.5862(5)
C6_6 C 0.8023(3) 0.8443(13) 0.5861(5)
H3_6 H 0.8051 0.9045 0.5598
C7_6 C 0.7982(3) 0.9384(14) 0.6235(5)
N1_6 N 0.8058(3) 0.5793(11) 0.5468(4)
H5_6 H 0.8120 0.6453 0.5286
C8_6 C 0.7989(3) 0.3587(15) 0.4796(5)
C9_6 C 0.7892(4) 0.1871(14) 0.4597(5)
H6_6 H 0.7855 0.1063 0.4811
C10_6 C 0.7848(3) 0.1346(14) 0.4100(5)
H7_6 H 0.7784 0.0168 0.3974
C11_6 C 0.7996(3) 0.4121(13) 0.3966(5)
H8_6 H 0.8032 0.4891 0.3743
C12_6 C 0.8048(3) 0.4707(15) 0.4471(5)
H9_5 H 0.8124 0.5878 0.4600
C26_4 C 0.8012(4) 0.4127(14) 0.5325(5)
N2_6 N 0.7894(2) 0.2436(11) 0.3785(4)
O3_4 O 0.7983(4) 0.3016(13) 0.5604(5)
O4_4 O 0.7827(2) 0.1943(9) 0.3280(3)
C13_7 C 0.6401(3) 0.6422(15) 0.5982(5)
C14_7 C 0.5974(3) 0.6761(16) 0.5529(5)
C15_7 C 0.5736(3) 0.6559(14) 0.5690(5)
H10_7 H 0.5852 0.6172 0.6091
C16_7 C 0.5327(3) 0.6915(15) 0.5271(5)
H11_7 H 0.5167 0.6727 0.5384
C17_4 C 0.5158(3) 0.7543(19) 0.4692(5)
C18_4 C 0.5383(4) 0.775(2) 0.4513(7)
H12_4 H 0.5265 0.8160 0.4112
C19_4 C 0.5795(4) 0.734(2) 0.4936(7)
H13_4 H 0.5952 0.7470 0.4814
C20_5 C 0.4526(3) 0.8710(16) 0.3754(5)
C21_5 C 0.4105(3) 0.9086(14) 0.3494(5)
C22_5 C 0.3892(3) 0.8094(16) 0.3588(5)
H14_5 H 0.4002 0.7056 0.3822
C23_5 C 0.3505(3) 0.8610(14) 0.3340(4)
H15_5 H 0.3352 0.7902 0.3394
N3_5 N 0.4746(3) 0.7948(15) 0.4297(5)
H18_5 H 0.4620 0.7650 0.4433
O6_7 O 0.6625(2) 0.6736(11) 0.5849(4)
O7_5 O 0.4643(2) 0.9157(13) 0.3481(4)
H2_5 H 0.6995 0.0451 0.3699
C8_7 C 0.7011(3) 0.1413(15) 0.5204(5)
C9_7 C 0.7108(4) 0.3129(14) 0.5403(5)
H6_7 H 0.7145 0.3937 0.5189
C10_7 C 0.7152(3) 0.3654(14) 0.5900(5)
H7_7 H 0.7216 0.4832 0.6026
C11_7 C 0.7004(3) 0.0879(13) 0.6034(5)
H8_7 H 0.6968 0.0109 0.6257
C12_7 C 0.6952(3) 0.0293(15) 0.5529(5)
C26_5 C 0.6988(4) 0.0873(14) 0.4675(5)
N2_7 N 0.7106(2) 0.2564(11) 0.6215(4)
O3_5 O 0.7017(4) 0.1984(13) 0.4396(5)
C1_7 C 0.7126(3) 0.5498(13) 0.2991(4)
C2_7 C 0.7070(3) 0.6480(14) 0.3388(4)
C3_7 C 0.7065(3) 0.8295(13) 0.3382(5)
H1_7 H 0.7100 0.8894 0.3127
C4_7 C 0.7010(3) 0.9221(14) 0.3728(5)
C5_7 C 0.6977(3) 0.8345(13) 0.4138(5)
C6_7 C 0.6977(3) 0.6557(13) 0.4139(5)
H3_7 H 0.6949 0.5955 0.4402
C7_7 C 0.7018(3) 0.5616(14) 0.3765(5)
H4_7 H 0.7010 0.4384 0.3765
N1_7 N 0.6942(3) 0.9207(11) 0.4532(4)
H5_7 H 0.6880 0.8547 0.4714
H9_6 H 0.6876 0.9122 0.5400
C24_7 C 0.6450(3) 0.1083(14) 0.2107(5)
H16_7 H 0.6570 0.2097 0.2352
C25_7 C 0.6074(3) 0.0569(15) 0.1877(5)
H17_7 H 0.5936 0.1229 0.1972
N4_7 N 0.6644(2) 0.0089(11) 0.1971(4)
O1_7 O 0.7071(2) 0.3885(9) 0.2928(3)
O2_4 O 0.7244(2) 0.6291(9) 0.2744(3)
O8_7 O 0.7001(2) 0.0588(9) 0.2171(3)
O9_4 O 0.7756(2) 0.1291(9) 0.2256(3)
C1_8 C 0.7874(3) 0.0498(13) 0.2009(4)
C2_8 C 0.7930(3) 0.1480(14) 0.1612(4)
C3_8 C 0.7935(3) 0.3295(13) 0.1618(5)
H1_8 H 0.7900 0.3894 0.1873
C4_8 C 0.7990(3) 0.4221(14) 0.1272(5)
H2_6 H 0.8005 0.5451 0.1301
C5_8 C 0.8023(3) 0.3345(13) 0.0862(5)
C6_8 C 0.8023(3) 0.1557(13) 0.0861(5)
H3_8 H 0.8051 0.0955 0.0598
C7_8 C 0.7982(3) 0.0616(14) 0.1235(5)
N1_8 N 0.8058(3) 0.4207(11) 0.0468(4)
H5_8 H 0.8120 0.3547 0.0286
C26_6 C 0.8012(4) 0.5873(14) 0.0325(5)
O3_6 O 0.7983(4) 0.6984(13) 0.0604(5)
C8_8 C 0.7989(3) 0.6413(15) 0.9796(5)
C9_8 C 0.7892(4) 0.8129(14) 0.9597(5)
H6_8 H 0.7855 0.8937 0.9811
C10_8 C 0.7848(3) 0.8654(14) 0.9100(5)
H7_8 H 0.7784 0.9832 0.8974
C11_8 C 0.7996(3) 0.5879(13) 0.8966(5)
H8_8 H 0.8032 0.5109 0.8743
C12_8 C 0.8048(3) 0.5293(15) 0.9471(5)
H9_7 H 0.8124 0.4122 0.9600
N2_8 N 0.7894(2) 0.7564(11) 0.8785(4)
H4_8 H 0.7990 0.9384 0.1235
C20_6 C 0.9526(3) 0.3710(16) 0.3754(5)
C21_6 C 0.9105(3) 0.4086(14) 0.3494(5)
C22_6 C 0.8892(3) 0.3094(16) 0.3588(5)
H14_6 H 0.9002 0.2056 0.3822
C23_6 C 0.8505(3) 0.3610(14) 0.3340(4)
H15_6 H 0.8352 0.2902 0.3394
C24_8 C 0.8550(3) 0.6083(14) 0.2893(5)
H16_8 H 0.8430 0.7097 0.2648
C25_8 C 0.8926(3) 0.5569(15) 0.3123(5)
H17_8 H 0.9064 0.6229 0.3028
N3_6 N 0.9746(3) 0.2948(15) 0.4297(5)
H18_6 H 0.9620 0.2650 0.4433
N4_8 N 0.8356(2) 0.5089(11) 0.3029(4)
O1_8 O 0.7929(2) 0.8885(9) 0.2072(3)
O7_6 O 0.9643(2) 0.4157(13) 0.3481(4)
O8_8 O 0.7999(2) 0.5588(9) 0.2829(3)
C13_8 C 0.8599(3) 0.1422(15) 0.9018(5)
C14_8 C 0.9026(3) 0.1761(16) 0.9471(5)
C15_8 C 0.9264(3) 0.1559(14) 0.9310(5)
H10_8 H 0.9148 0.1172 0.8909
C16_8 C 0.9673(3) 0.1915(15) 0.9729(5)
H11_8 H 0.9833 0.1727 0.9616
O6_8 O 0.8375(2) 0.1736(11) 0.9151(4)
H2_7 H 0.6995 0.9549 0.8699
C26_7 C 0.6988(4) 0.9127(14) 0.9675(5)
O3_7 O 0.7017(4) 0.8016(13) 0.9396(5)
C17_5 C 0.5158(3) 0.2457(19) 0.9692(5)
C18_5 C 0.5383(4) 0.225(2) 0.9513(7)
H12_5 H 0.5265 0.1840 0.9112
C19_5 C 0.5795(4) 0.266(2) 0.9936(7)
H13_5 H 0.5952 0.2530 0.9814
C20_7 C 0.4526(3) 0.1290(16) 0.8754(5)
C21_7 C 0.4105(3) 0.0914(14) 0.8494(5)
C22_7 C 0.3892(3) 0.1906(16) 0.8588(5)
H14_7 H 0.4002 0.2944 0.8822
C23_7 C 0.3505(3) 0.1390(14) 0.8340(4)
H15_7 H 0.3352 0.2098 0.8394
N3_7 N 0.4746(3) 0.2052(15) 0.9297(5)
H18_7 H 0.4620 0.2350 0.9433
O7_7 O 0.4643(2) 0.0843(13) 0.8481(4)
C17_6 C 0.0158(3) 0.7457(19) 0.9692(5)
C18_6 C 0.0383(4) 0.725(2) 0.9513(7)
H12_6 H 0.0265 0.6840 0.9112
C19_6 C 0.0795(4) 0.766(2) 0.9936(7)
H13_6 H 0.0952 0.7530 0.9814
H2_8 H 0.3005 0.0451 0.1301
C26_8 C 0.3012(4) 0.0873(14) 0.0325(5)
O3_8 O 0.2983(4) 0.1984(13) 0.0604(5)
H9_8 H 0.3124 0.9122 0.9600
C17_7 C 0.4842(3) 0.7543(19) 0.0308(5)
C18_7 C 0.4617(4) 0.775(2) 0.0487(7)
H12_7 H 0.4735 0.8160 0.0888
C19_7 C 0.4205(4) 0.734(2) 0.0064(7)
H13_7 H 0.4048 0.7470 0.0186
C20_8 C 0.5474(3) 0.8710(16) 0.1246(5)
C21_8 C 0.5895(3) 0.9086(14) 0.1506(5)
C22_8 C 0.6108(3) 0.8094(16) 0.1412(5)
H14_8 H 0.5998 0.7056 0.1178
C23_8 C 0.6495(3) 0.8610(14) 0.1660(4)
H15_8 H 0.6648 0.7902 0.1606
N3_8 N 0.5254(3) 0.7948(15) 0.0703(5)
H18_8 H 0.5380 0.7650 0.0567
O7_8 O 0.5357(2) 0.9157(13) 0.1519(4)
C17_8 C 0.9842(3) 0.2543(19) 0.0308(5)
C18_8 C 0.9617(4) 0.275(2) 0.0487(7)
H12_8 H 0.9735 0.3160 0.0888
C19_8 C 0.9205(4) 0.234(2) 0.0064(7)
H13_8 H 0.9048 0.2470 0.0186
loop_
_geom_bond_atom_site_label_1
_geom_bond_atom_site_label_2
_geom_bond_site_symmetry_1
_geom_bond_site_symmetry_2
C13 C14 1_555 1_555
C14 C15 1_555 1_555
C15 H10 1_555 1_555
C16 C15 1_555 1_555
H11 C16 1_555 1_555
C17 C16 1_555 1_555
C18 C17 1_555 1_555
H12 C18 1_555 1_555
C19 C14 1_555 1_555
H13 C19 1_555 1_555
C20 C21 1_555 1_555
C21 C22 1_555 1_555
C22 H14 1_555 1_555
C23 C22 1_555 1_555
H15 C23 1_555 1_555
N3 C17 1_555 1_555
H18 N3 1_555 1_555
O5 C13 1_555 1_555
O6 C13 1_555 1_555
O7 C20 1_555 1_555
Pb3 O5 1_555 1_555
C18 C19 1_555 1_555
C20 N3 1_555 1_555
Pb1 O1 1_555 1_555
C1 C2 1_555 1_555
C2 C3 1_555 1_555
C3 H1 1_555 1_555
C4 C3 1_555 1_555
C5 C4 1_555 1_555
C6 C5 1_555 1_555
H3 C6 1_555 1_555
C7 C2 1_555 1_555
H4 C7 1_555 1_555
N1 C5 1_555 1_555
H5 N1 1_555 1_555
C24 H16 1_555 1_555
H17 C25 1_555 1_555
O1 C1 1_555 1_555
O2 Pb1 1_555 1_555
O8 Pb1 1_555 1_555
Pb2 O2 1_555 1_555
O9 Pb1 1_555 1_555
O10 Pb1 1_555 1_555
O11 Pb1 1_555 1_555
O12 Pb1 1_555 1_555
C1 O2 1_555 1_555
C6 C7 1_555 1_555
C24 C25 1_555 1_555
C24 N4 1_555 1_555
N4 O8 1_555 1_555
Pb2 O10 1_555 1_555
C8 C9 1_555 1_555
C9 H6 1_555 1_555
C10 C9 1_555 1_555
H7 C10 1_555 1_555
C11 H8 1_555 1_555
C12 C8 1_555 1_555
N2 C10 1_555 1_555
O3 C26 1_555 1_555
O4 N2 1_555 1_555
Pb3 O4 1_555 1_555
Pb5 O4 1_555 1_555
C8 C26 1_555 1_555
C11 C12 1_555 1_555
C11 N2 1_555 1_555
Pb2 O1_2 1_555 1_555
C20_2 C21_2 1_555 1_555
C21_2 C22_2 1_555 1_555
C22_2 H14_2 1_555 1_555
C23_2 C22_2 1_555 1_555
H15_2 C23_2 1_555 1_555
C24_2 H16_2 1_555 1_555
C25_2 C21_2 1_555 1_555
H17_2 C25_2 1_555 1_555
H18_2 N3_2 1_555 1_555
N4_2 C23_2 1_555 1_555
O7_2 C20_2 1_555 1_555
O8_2 Pb2 1_555 1_555
O12_2 Pb2 1_555 1_555
C20_2 N3_2 1_555 1_555
C24_2 C25_2 1_555 1_555
C24_2 N4_2 1_555 1_555
N4_2 O8_2 1_555 1_555
C8_2 C9_2 1_555 1_555
C9_2 H6_2 1_555 1_555
C10_2 C9_2 1_555 1_555
H7_2 C10_2 1_555 1_555
C11_2 H8_2 1_555 1_555
C12_2 C8_2 1_555 1_555
H9_2 C12_2 1_555 1_555
N2_2 C10_2 1_555 1_555
O4_2 N2_2 1_555 1_555
Pb3 O4_2 1_555 1_555
C11_2 C12_2 1_555 1_555
C11_2 N2_2 1_555 1_555
C1_2 C2_2 1_555 1_555
C2_2 C3_2 1_555 1_555
C3_2 H1_2 1_555 1_555
C4_2 C3_2 1_555 1_555
H2_2 C4_2 1_555 1_555
C5_2 C4_2 1_555 1_555
C6_2 C5_2 1_555 1_555
H3_2 C6_2 1_555 1_555
C7_2 C2_2 1_555 1_555
N1_2 C5_2 1_555 1_555
H5_2 N1_2 1_555 1_555
C26_2 N1_2 1_555 1_555
O3_2 C26_2 1_555 1_555
C1_2 O9 1_555 1_555
C6_2 C7_2 1_555 1_555
C13_2 C14_2 1_555 1_555
C14_2 C15_2 1_555 1_555
C15_2 H10_2 1_555 1_555
C16_2 C15_2 1_555 1_555
H11_2 C16_2 1_555 1_555
O5_2 C13_2 1_555 1_555
O6_2 C13_2 1_555 1_555
Pb5 O5_2 1_555 1_555
C8_3 C9_3 1_555 1_555
C9_3 H6_3 1_555 1_555
C10_3 C9_3 1_555 1_555
H7_3 C10_3 1_555 1_555
C11_3 H8_3 1_555 1_555
C12_3 C8_3 1_555 1_555
N2_3 C10_3 1_555 1_555
O10 N2_3 1_555 1_555
C11_3 C12_3 1_555 1_555
C11_3 N2_3 1_555 1_555
Pb3 O1_3 1_555 1_555
C1_3 C2_3 1_555 1_555
C2_3 C3_3 1_555 1_555
C3_3 H1_3 1_555 1_555
C4_3 C3_3 1_555 1_555
C5_3 C4_3 1_555 1_555
C6_3 C5_3 1_555 1_555
H3_3 C6_3 1_555 1_555
C7_3 C2_3 1_555 1_555
H4_3 C7_3 1_555 1_555
N1_3 C5_3 1_555 1_555
H5_3 N1_3 1_555 1_555
C24_3 H16_3 1_555 1_555
H17_3 C25_3 1_555 1_555
O1_3 C1_3 1_555 1_555
O2_2 Pb3 1_555 1_555
O8_3 Pb3 1_555 1_555
Pb5 O2_2 1_555 1_555
O9_2 Pb3 1_555 1_555
C1_3 O2_2 1_555 1_555
C6_3 C7_3 1_555 1_555
C24_3 C25_3 1_555 1_555
C24_3 N4_3 1_555 1_555
N4_3 O8_3 1_555 1_555
C13_3 C14_3 1_555 1_555
C14_3 C15_3 1_555 1_555
C15_3 H10_3 1_555 1_555
C16_3 C15_3 1_555 1_555
H11_3 C16_3 1_555 1_555
O12 C13_3 1_555 1_555
O6_3 C13_3 1_555 1_555
C13_4 C14_4 1_555 1_555
C14_4 C15_4 1_555 1_555
C15_4 H10_4 1_555 1_555
C16_4 C15_4 1_555 1_555
H11_4 C16_4 1_555 1_555
C17_2 C16_4 1_555 1_555
C18_2 C17_2 1_555 1_555
H12_2 C18_2 1_555 1_555
C19_2 C14_4 1_555 1_555
H13_2 C19_2 1_555 1_555
O12_2 C13_4 1_555 1_555
O6_4 C13_4 1_555 1_555
C18_2 C19_2 1_555 1_555
C1_4 C2_4 1_555 1_555
C2_4 C3_4 1_555 1_555
C3_4 H1_4 1_555 1_555
C4_4 C3_4 1_555 1_555
H2_3 C4_4 1_555 1_555
C5_4 C4_4 1_555 1_555
C6_4 C5_4 1_555 1_555
H3_4 C6_4 1_555 1_555
C7_4 C2_4 1_555 1_555
N1_4 C5_4 1_555 1_555
H5_4 N1_4 1_555 1_555
C8_4 C9_4 1_555 1_555
C9_4 H6_4 1_555 1_555
C10_4 C9_4 1_555 1_555
H7_4 C10_4 1_555 1_555
C11_4 H8_4 1_555 1_555
C12_4 C8_4 1_555 1_555
H9_3 C12_4 1_555 1_555
C26_3 N1_4 1_555 1_555
N2_4 C10_4 1_555 1_555
O3_3 C26_3 1_555 1_555
O11 N2_4 1_555 1_555
C1_4 O9_2 1_555 1_555
C6_4 C7_4 1_555 1_555
C8_4 C26_3 1_555 1_555
C11_4 C12_4 1_555 1_555
C11_4 N2_4 1_555 1_555
Pb5 O1_4 1_555 1_555
C20_3 C21_3 1_555 1_555
C21_3 C22_3 1_555 1_555
C22_3 H14_3 1_555 1_555
C23_3 C22_3 1_555 1_555
H15_3 C23_3 1_555 1_555
C24_4 H16_4 1_555 1_555
C25_4 C21_3 1_555 1_555
H17_4 C25_4 1_555 1_555
H18_3 N3_3 1_555 1_555
N4_4 C23_3 1_555 1_555
O7_3 C20_3 1_555 1_555
O8_4 Pb5 1_555 1_555
C20_3 N3_3 1_555 1_555
C24_4 C25_4 1_555 1_555
C24_4 N4_4 1_555 1_555
N4_4 O8_4 1_555 1_555
Pb1_2 O1_5 1_555 1_555
C1_5 C2_5 1_555 1_555
C2_5 C3_5 1_555 1_555
C3_5 H1_5 1_555 1_555
C4_5 C3_5 1_555 1_555
C5_5 C4_5 1_555 1_555
C6_5 C5_5 1_555 1_555
H3_5 C6_5 1_555 1_555
C7_5 C2_5 1_555 1_555
H4_5 C7_5 1_555 1_555
N1_5 C5_5 1_555 1_555
H5_5 N1_5 1_555 1_555
C24_5 H16_5 1_555 1_555
H17_5 C25_5 1_555 1_555
O1_5 C1_5 1_555 1_555
O2_3 Pb1_2 1_555 1_555
O8_5 Pb1_2 1_555 1_555
Pb2_2 O2_3 1_555 1_555
O9_3 Pb1_2 1_555 1_555
O10_2 Pb1_2 1_555 1_555
O11_2 Pb1_2 1_555 1_555
O12_3 Pb1_2 1_555 1_555
C1_5 O2_3 1_555 1_555
C6_5 C7_5 1_555 1_555
C24_5 C25_5 1_555 1_555
C24_5 N4_5 1_555 1_555
N4_5 O8_5 1_555 1_555
Pb2_2 O10_2 1_555 1_555
C8_5 C9_5 1_555 1_555
C9_5 H6_5 1_555 1_555
C10_5 C9_5 1_555 1_555
H7_5 C10_5 1_555 1_555
C11_5 H8_5 1_555 1_555
C12_5 C8_5 1_555 1_555
N2_5 C10_5 1_555 1_555
O4_3 N2_5 1_555 1_555
Pb4 O4_3 1_555 1_555
Pb5_2 O4_3 1_555 1_555
C11_5 C12_5 1_555 1_555
C11_5 N2_5 1_555 1_555
C13_5 C14_5 1_555 1_555
C14_5 C15_5 1_555 1_555
C15_5 H10_5 1_555 1_555
C16_5 C15_5 1_555 1_555
H11_5 C16_5 1_555 1_555
O5_3 C13_5 1_555 1_555
O6_5 C13_5 1_555 1_555
Pb4 O5_3 1_555 1_555
C13_6 C14_6 1_555 1_555
C14_6 C15_6 1_555 1_555
C15_6 H10_6 1_555 1_555
C16_6 C15_6 1_555 1_555
H11_6 C16_6 1_555 1_555
C17_3 C16_6 1_555 1_555
C18_3 C17_3 1_555 1_555
H12_3 C18_3 1_555 1_555
C19_3 C14_6 1_555 1_555
H13_3 C19_3 1_555 1_555
O5_4 C13_6 1_555 1_555
O6_6 C13_6 1_555 1_555
Pb5_2 O5_4 1_555 1_555
C18_3 C19_3 1_555 1_555
Pb2_2 O1_6 1_555 1_555
C20_4 C21_4 1_555 1_555
C21_4 C22_4 1_555 1_555
C22_4 H14_4 1_555 1_555
C23_4 C22_4 1_555 1_555
H15_4 C23_4 1_555 1_555
C24_6 H16_6 1_555 1_555
C25_6 C21_4 1_555 1_555
H17_6 C25_6 1_555 1_555
H18_4 N3_4 1_555 1_555
N4_6 C23_4 1_555 1_555
O7_4 C20_4 1_555 1_555
O8_6 Pb2_2 1_555 1_555
O12_4 Pb2_2 1_555 1_555
C20_4 N3_4 1_555 1_555
C24_6 C25_6 1_555 1_555
C24_6 N4_6 1_555 1_555
N4_6 O8_6 1_555 1_555
C1_6 C2_6 1_555 1_555
C2_6 C3_6 1_555 1_555
C3_6 H1_6 1_555 1_555
C4_6 C3_6 1_555 1_555
H2_4 C4_6 1_555 1_555
C5_6 C4_6 1_555 1_555
C6_6 C5_6 1_555 1_555
H3_6 C6_6 1_555 1_555
C7_6 C2_6 1_555 1_555
N1_6 C5_6 1_555 1_555
H5_6 N1_6 1_555 1_555
C8_6 C9_6 1_555 1_555
C9_6 H6_6 1_555 1_555
C10_6 C9_6 1_555 1_555
H7_6 C10_6 1_555 1_555
C11_6 H8_6 1_555 1_555
C12_6 C8_6 1_555 1_555
H9_5 C12_6 1_555 1_555
C26_4 N1_6 1_555 1_555
N2_6 C10_6 1_555 1_555
O3_4 C26_4 1_555 1_555
O4_4 N2_6 1_555 1_555
Pb4 O4_4 1_555 1_555
C1_6 O9_3 1_555 1_555
C6_6 C7_6 1_555 1_555
C8_6 C26_4 1_555 1_555
C11_6 C12_6 1_555 1_555
C11_6 N2_6 1_555 1_555
C13_7 C14_7 1_555 1_555
C14_7 C15_7 1_555 1_555
C15_7 H10_7 1_555 1_555
C16_7 C15_7 1_555 1_555
H11_7 C16_7 1_555 1_555
C17_4 C16_7 1_555 1_555
C18_4 C17_4 1_555 1_555
H12_4 C18_4 1_555 1_555
C19_4 C14_7 1_555 1_555
H13_4 C19_4 1_555 1_555
C20_5 C21_5 1_555 1_555
C21_5 C22_5 1_555 1_555
C22_5 H14_5 1_555 1_555
C23_5 C22_5 1_555 1_555
H15_5 C23_5 1_555 1_555
N3_5 C17_4 1_555 1_555
H18_5 N3_5 1_555 1_555
O12_3 C13_7 1_555 1_555
O6_7 C13_7 1_555 1_555
O7_5 C20_5 1_555 1_555
C18_4 C19_4 1_555 1_555
C20_5 N3_5 1_555 1_555
C8_7 C9_7 1_555 1_555
C9_7 H6_7 1_555 1_555
C10_7 C9_7 1_555 1_555
H7_7 C10_7 1_555 1_555
C11_7 H8_7 1_555 1_555
C12_7 C8_7 1_555 1_555
N2_7 C10_7 1_555 1_555
O3_5 C26_5 1_555 1_555
O10_2 N2_7 1_555 1_555
C8_7 C26_5 1_555 1_555
C11_7 C12_7 1_555 1_555
C11_7 N2_7 1_555 1_555
Pb4 O1_7 1_555 1_555
C1_7 C2_7 1_555 1_555
C2_7 C3_7 1_555 1_555
C3_7 H1_7 1_555 1_555
C4_7 C3_7 1_555 1_555
C5_7 C4_7 1_555 1_555
C6_7 C5_7 1_555 1_555
H3_7 C6_7 1_555 1_555
C7_7 C2_7 1_555 1_555
H4_7 C7_7 1_555 1_555
N1_7 C5_7 1_555 1_555
H5_7 N1_7 1_555 1_555
C24_7 H16_7 1_555 1_555
H17_7 C25_7 1_555 1_555
O1_7 C1_7 1_555 1_555
O2_4 Pb4 1_555 1_555
O8_7 Pb4 1_555 1_555
Pb5_2 O2_4 1_555 1_555
O9_4 Pb4 1_555 1_555
C1_7 O2_4 1_555 1_555
C6_7 C7_7 1_555 1_555
C24_7 C25_7 1_555 1_555
C24_7 N4_7 1_555 1_555
N4_7 O8_7 1_555 1_555
C1_8 C2_8 1_555 1_555
C2_8 C3_8 1_555 1_555
C3_8 H1_8 1_555 1_555
C4_8 C3_8 1_555 1_555
H2_6 C4_8 1_555 1_555
C5_8 C4_8 1_555 1_555
C6_8 C5_8 1_555 1_555
H3_8 C6_8 1_555 1_555
C7_8 C2_8 1_555 1_555
N1_8 C5_8 1_555 1_555
H5_8 N1_8 1_555 1_555
C26_6 N1_8 1_555 1_555
O3_6 C26_6 1_555 1_555
C1_8 O9_4 1_555 1_555
C6_8 C7_8 1_555 1_555
C8_8 C9_8 1_555 1_555
C9_8 H6_8 1_555 1_555
C10_8 C9_8 1_555 1_555
H7_8 C10_8 1_555 1_555
C11_8 H8_8 1_555 1_555
C12_8 C8_8 1_555 1_555
H9_7 C12_8 1_555 1_555
N2_8 C10_8 1_555 1_555
O11_2 N2_8 1_555 1_555
C11_8 C12_8 1_555 1_555
C11_8 N2_8 1_555 1_555
Pb5_2 O1_8 1_555 1_555
C20_6 C21_6 1_555 1_555
C21_6 C22_6 1_555 1_555
C22_6 H14_6 1_555 1_555
C23_6 C22_6 1_555 1_555
H15_6 C23_6 1_555 1_555
C24_8 H16_8 1_555 1_555
C25_8 C21_6 1_555 1_555
H17_8 C25_8 1_555 1_555
H18_6 N3_6 1_555 1_555
N4_8 C23_6 1_555 1_555
O7_6 C20_6 1_555 1_555
O8_8 Pb5_2 1_555 1_555
C20_6 N3_6 1_555 1_555
C24_8 C25_8 1_555 1_555
C24_8 N4_8 1_555 1_555
N4_8 O8_8 1_555 1_555
C13_8 C14_8 1_555 1_555
C14_8 C15_8 1_555 1_555
C15_8 H10_8 1_555 1_555
C16_8 C15_8 1_555 1_555
H11_8 C16_8 1_555 1_555
O12_4 C13_8 1_555 1_555
O6_8 C13_8 1_555 1_555
O3_7 C26_7 1_555 1_555
C18_5 C17_5 1_555 1_555
H12_5 C18_5 1_555 1_555
H13_5 C19_5 1_555 1_555
C20_7 C21_7 1_555 1_555
C21_7 C22_7 1_555 1_555
C22_7 H14_7 1_555 1_555
C23_7 C22_7 1_555 1_555
H15_7 C23_7 1_555 1_555
N3_7 C17_5 1_555 1_555
H18_7 N3_7 1_555 1_555
O7_7 C20_7 1_555 1_555
C18_5 C19_5 1_555 1_555
C20_7 N3_7 1_555 1_555
C18_6 C17_6 1_555 1_555
H12_6 C18_6 1_555 1_555
H13_6 C19_6 1_555 1_555
C18_6 C19_6 1_555 1_555
O3_8 C26_8 1_555 1_555
C18_7 C17_7 1_555 1_555
H12_7 C18_7 1_555 1_555
H13_7 C19_7 1_555 1_555
C20_8 C21_8 1_555 1_555
C21_8 C22_8 1_555 1_555
C22_8 H14_8 1_555 1_555
C23_8 C22_8 1_555 1_555
H15_8 C23_8 1_555 1_555
N3_8 C17_7 1_555 1_555
H18_8 N3_8 1_555 1_555
O7_8 C20_8 1_555 1_555
C18_7 C19_7 1_555 1_555
C20_8 N3_8 1_555 1_555
C18_8 C17_8 1_555 1_555
H12_8 C18_8 1_555 1_555
H13_8 C19_8 1_555 1_555
C18_8 C19_8 1_555 1_555

#END
