
###############################################################################
#
# This file contains modified crystal structure data generated from the
# MOF subset of the Cambridge Structural Database (CSD) v543 
# hosted by the Cambridge Crystallographic Data Centre (CCDC).
#
# This work is licensed under the Creative Commons
# Attribution-NonCommercial-ShareAlike 4.0 International License.
# To view a copy of this license, visit
# http://creativecommons.org/licenses/by-nc-sa/4.0/
# or send a letter to
# Creative Commons, PO Box 1866, Mountain View, CA 94042, USA.
#
# CIF created using the CSD Python API on 29 September 2022
# The structure has been converted into the P1 space group
# The structure has a 3D framework
# The original CSD entry TEYCAD is in the monoclinic crystal system
# The framework has been calculated to contain at least 10.0% void space
# The void calculation uses a probe of radius 1.32A, grid spacing 0.4
# The framework is charged, counterions have been retained in the structure
#
###############################################################################

data_TEYCAD
_chemical_formula_moiety         '(C104 H72 N16 O32 Pb6)n'
_symmetry_cell_setting           triclinic
_symmetry_space_group_name_H-M   'P 1'
_symmetry_Int_Tables_number      1
_space_group_name_Hall           'P 1'
loop_
_symmetry_equiv_pos_site_id
_symmetry_equiv_pos_as_xyz
1 x,y,z
_cell_length_a                   24.1114(16)
_cell_length_b                   22.9404(16)
_cell_length_c                   7.5513(5)
_cell_angle_alpha                90
_cell_angle_beta                 97.250(3)
_cell_angle_gamma                90
_cell_volume                     4143.42
loop_
_atom_site_label
_atom_site_type_symbol
_atom_site_fract_x
_atom_site_fract_y
_atom_site_fract_z
Pb1 Pb 0.0000 0.454856(12) 0.2500
O1 O 0.1161(2) 0.4444(2) 0.3325(8)
O2 O 0.05810(18) 0.3687(2) 0.3163(7)
O3 O 0.3627(2) 0.2909(2) 0.2727(8)
O4 O 0.4755(2) 0.0608(2) 0.0542(7)
N1 N 0.2854(2) 0.2325(3) 0.2504(8)
H1 H 0.2744 0.1961 0.2345
N2 N 0.4426(2) 0.1038(2) 0.1001(7)
C1 C 0.1071(3) 0.3908(3) 0.3279(9)
C2 C 0.1549(2) 0.3490(3) 0.3203(9)
C3 C 0.2098(3) 0.3692(3) 0.3383(11)
H2 H 0.2170 0.4093 0.3621
C4 C 0.2541(3) 0.3320(3) 0.3223(12)
H3 H 0.2914 0.3463 0.3402
C5 C 0.2439(3) 0.2736(3) 0.2799(9)
C6 C 0.1890(3) 0.2523(3) 0.2701(10)
H4 H 0.1818 0.2121 0.2475
C7 C 0.1455(3) 0.2896(3) 0.2931(9)
H5 H 0.1087 0.2746 0.2903
C8 C 0.3402(3) 0.2435(3) 0.2442(9)
C9 C 0.3749(3) 0.1920(3) 0.1975(9)
C10 C 0.3612(3) 0.1337(3) 0.2183(9)
H6 H 0.3276 0.1239 0.2648
C11 C 0.3955(3) 0.0904(3) 0.1726(9)
H7 H 0.3864 0.0508 0.1917
C12 C 0.4579(3) 0.1603(3) 0.0754(9)
H8 H 0.4913 0.1690 0.0260
C13 C 0.4238(3) 0.2045(3) 0.1237(10)
H9 H 0.4338 0.2440 0.1064
O10 O 0.0245(2) 0.5608(2) 0.4458(7)
Pb5 Pb 0.5000 0.045144(12) 0.7500
O11 O 0.0245(2) 0.4392(2) 0.9458(7)
Pb3 Pb 0.5000 0.954856(12) 0.2500
Pb1_2 Pb 1.0000 0.454856(12) 0.2500
O5 O 0.8839(2) 0.4444(2) 0.1675(8)
O6 O 0.94190(18) 0.3687(2) 0.1837(7)
O7 O 0.6373(2) 0.2909(2) 0.2273(8)
O8 O 0.5245(2) 0.0608(2) 0.4458(7)
N3 N 0.7146(2) 0.2325(3) 0.2496(8)
H10 H 0.7256 0.1961 0.2655
N4 N 0.5574(2) 0.1038(2) 0.3999(7)
C14 C 0.8929(3) 0.3908(3) 0.1721(9)
C15 C 0.8451(2) 0.3490(3) 0.1797(9)
C16 C 0.7902(3) 0.3692(3) 0.1617(11)
H11 H 0.7830 0.4093 0.1379
C17 C 0.7459(3) 0.3320(3) 0.1777(12)
H12 H 0.7086 0.3463 0.1598
C18 C 0.7561(3) 0.2736(3) 0.2201(9)
C19 C 0.8110(3) 0.2523(3) 0.2299(10)
H13 H 0.8182 0.2121 0.2525
C20 C 0.8545(3) 0.2896(3) 0.2069(9)
H14 H 0.8913 0.2746 0.2097
C21 C 0.6598(3) 0.2435(3) 0.2558(9)
C22 C 0.6251(3) 0.1920(3) 0.3025(9)
C23 C 0.6388(3) 0.1337(3) 0.2817(9)
H15 H 0.6724 0.1239 0.2352
C24 C 0.6045(3) 0.0904(3) 0.3274(9)
H16 H 0.6136 0.0508 0.3083
C25 C 0.5421(3) 0.1603(3) 0.4246(9)
H17 H 0.5087 0.1690 0.4740
C26 C 0.5762(3) 0.2045(3) 0.3763(10)
H18 H 0.5662 0.2440 0.3936
O9 O 0.9755(2) 0.5608(2) 0.0542(7)
O12 O 0.9755(2) 0.4392(2) 0.5542(7)
Pb5_2 Pb -0.0000 0.545144(12) 0.7500
O1_2 O 0.6161(2) 0.9444(2) 0.3325(8)
O2_2 O 0.55810(18) 0.8687(2) 0.3163(7)
O3_2 O 0.8627(2) 0.7909(2) 0.2727(8)
N1_2 N 0.7854(2) 0.7325(3) 0.2504(8)
H1_2 H 0.7744 0.6961 0.2345
N2_2 N 0.9426(2) 0.6038(2) 0.1001(7)
C1_2 C 0.6071(3) 0.8908(3) 0.3279(9)
C2_2 C 0.6549(2) 0.8490(3) 0.3203(9)
C3_2 C 0.7098(3) 0.8692(3) 0.3383(11)
H2_2 H 0.7170 0.9093 0.3621
C4_2 C 0.7541(3) 0.8320(3) 0.3223(12)
H3_2 H 0.7914 0.8463 0.3402
C5_2 C 0.7439(3) 0.7736(3) 0.2799(9)
C6_2 C 0.6890(3) 0.7523(3) 0.2701(10)
H4_2 H 0.6818 0.7121 0.2475
C7_2 C 0.6455(3) 0.7896(3) 0.2931(9)
H5_2 H 0.6087 0.7746 0.2903
C8_2 C 0.8402(3) 0.7435(3) 0.2442(9)
C9_2 C 0.8749(3) 0.6920(3) 0.1975(9)
C10_2 C 0.8612(3) 0.6337(3) 0.2183(9)
H6_2 H 0.8276 0.6239 0.2648
C11_2 C 0.8955(3) 0.5904(3) 0.1726(9)
H7_2 H 0.8864 0.5508 0.1917
C12_2 C 0.9579(3) 0.6603(3) 0.0754(9)
H8_2 H 0.9913 0.6690 0.0260
C13_2 C 0.9238(3) 0.7045(3) 0.1237(10)
H9_2 H 0.9338 0.7440 0.1064
O5_2 O 0.3839(2) 0.9444(2) 0.1675(8)
O6_2 O 0.44190(18) 0.8687(2) 0.1837(7)
O7_2 O 0.1373(2) 0.7909(2) 0.2273(8)
N3_2 N 0.2146(2) 0.7325(3) 0.2496(8)
H10_2 H 0.2256 0.6961 0.2655
N4_2 N 0.0574(2) 0.6038(2) 0.3999(7)
C14_2 C 0.3929(3) 0.8908(3) 0.1721(9)
C15_2 C 0.3451(2) 0.8490(3) 0.1797(9)
C16_2 C 0.2902(3) 0.8692(3) 0.1617(11)
H11_2 H 0.2830 0.9093 0.1379
C17_2 C 0.2459(3) 0.8320(3) 0.1777(12)
H12_2 H 0.2086 0.8463 0.1598
C18_2 C 0.2561(3) 0.7736(3) 0.2201(9)
C19_2 C 0.3110(3) 0.7523(3) 0.2299(10)
H13_2 H 0.3182 0.7121 0.2525
C20_2 C 0.3545(3) 0.7896(3) 0.2069(9)
H14_2 H 0.3913 0.7746 0.2097
C21_2 C 0.1598(3) 0.7435(3) 0.2558(9)
C22_2 C 0.1251(3) 0.6920(3) 0.3025(9)
C23_2 C 0.1388(3) 0.6337(3) 0.2817(9)
H15_2 H 0.1724 0.6239 0.2352
C24_2 C 0.1045(3) 0.5904(3) 0.3274(9)
H16_2 H 0.1136 0.5508 0.3083
C25_2 C 0.0421(3) 0.6603(3) 0.4246(9)
H17_2 H 0.0087 0.6690 0.4740
C26_2 C 0.0762(3) 0.7045(3) 0.3763(10)
H18_2 H 0.0662 0.7440 0.3936
O12_2 O 0.4755(2) 0.9392(2) 0.5542(7)
Pb5_3 Pb 1.0000 0.545144(12) 0.7500
O11_2 O 0.5245(2) 0.9392(2) 0.9458(7)
O5_3 O 0.1161(2) 0.5556(2) 0.8325(8)
O6_3 O 0.05810(18) 0.6313(2) 0.8163(7)
O7_3 O 0.3627(2) 0.7091(2) 0.7727(8)
N3_3 N 0.2854(2) 0.7675(3) 0.7504(8)
H10_3 H 0.2744 0.8039 0.7345
N4_3 N 0.4426(2) 0.8962(2) 0.6001(7)
C14_3 C 0.1071(3) 0.6092(3) 0.8279(9)
C15_3 C 0.1549(2) 0.6510(3) 0.8203(9)
C16_3 C 0.2098(3) 0.6308(3) 0.8383(11)
H11_3 H 0.2170 0.5907 0.8621
C17_3 C 0.2541(3) 0.6680(3) 0.8223(12)
H12_3 H 0.2914 0.6537 0.8402
C18_3 C 0.2439(3) 0.7264(3) 0.7799(9)
C19_3 C 0.1890(3) 0.7477(3) 0.7701(10)
H13_3 H 0.1818 0.7879 0.7475
C20_3 C 0.1455(3) 0.7104(3) 0.7931(9)
H14_3 H 0.1087 0.7254 0.7903
C21_3 C 0.3402(3) 0.7565(3) 0.7442(9)
C22_3 C 0.3749(3) 0.8080(3) 0.6975(9)
C23_3 C 0.3612(3) 0.8663(3) 0.7183(9)
H15_3 H 0.3276 0.8761 0.7648
C24_3 C 0.3955(3) 0.9096(3) 0.6726(9)
H16_3 H 0.3864 0.9492 0.6917
C25_3 C 0.4579(3) 0.8397(3) 0.5754(9)
H17_3 H 0.4913 0.8310 0.5260
C26_3 C 0.4238(3) 0.7955(3) 0.6237(10)
H18_3 H 0.4338 0.7560 0.6064
O1_3 O 0.8839(2) 0.5556(2) 0.6675(8)
O2_3 O 0.94190(18) 0.6313(2) 0.6837(7)
O3_3 O 0.6373(2) 0.7091(2) 0.7273(8)
N1_3 N 0.7146(2) 0.7675(3) 0.7496(8)
H1_3 H 0.7256 0.8039 0.7655
N2_3 N 0.5574(2) 0.8962(2) 0.8999(7)
C1_3 C 0.8929(3) 0.6092(3) 0.6721(9)
C2_3 C 0.8451(2) 0.6510(3) 0.6797(9)
C3_3 C 0.7902(3) 0.6308(3) 0.6617(11)
H2_3 H 0.7830 0.5907 0.6379
C4_3 C 0.7459(3) 0.6680(3) 0.6777(12)
H3_3 H 0.7086 0.6537 0.6598
C5_3 C 0.7561(3) 0.7264(3) 0.7201(9)
C6_3 C 0.8110(3) 0.7477(3) 0.7299(10)
H4_3 H 0.8182 0.7879 0.7525
C7_3 C 0.8545(3) 0.7104(3) 0.7069(9)
H5_3 H 0.8913 0.7254 0.7097
C8_3 C 0.6598(3) 0.7565(3) 0.7558(9)
C9_3 C 0.6251(3) 0.8080(3) 0.8025(9)
C10_3 C 0.6388(3) 0.8663(3) 0.7817(9)
H6_3 H 0.6724 0.8761 0.7352
C11_3 C 0.6045(3) 0.9096(3) 0.8274(9)
H7_3 H 0.6136 0.9492 0.8083
C12_3 C 0.5421(3) 0.8397(3) 0.9246(9)
H8_3 H 0.5087 0.8310 0.9740
C13_3 C 0.5762(3) 0.7955(3) 0.8763(10)
H9_3 H 0.5662 0.7560 0.8936
O1_4 O 0.3839(2) 0.0556(2) 0.6675(8)
O2_4 O 0.44190(18) 0.1313(2) 0.6837(7)
O3_4 O 0.1373(2) 0.2091(2) 0.7273(8)
N1_4 N 0.2146(2) 0.2675(3) 0.7496(8)
H1_4 H 0.2256 0.3039 0.7655
N2_4 N 0.0574(2) 0.3962(2) 0.8999(7)
C1_4 C 0.3929(3) 0.1092(3) 0.6721(9)
C2_4 C 0.3451(2) 0.1510(3) 0.6797(9)
C3_4 C 0.2902(3) 0.1308(3) 0.6617(11)
H2_4 H 0.2830 0.0907 0.6379
C4_4 C 0.2459(3) 0.1680(3) 0.6777(12)
H3_4 H 0.2086 0.1537 0.6598
C5_4 C 0.2561(3) 0.2264(3) 0.7201(9)
C6_4 C 0.3110(3) 0.2477(3) 0.7299(10)
H4_4 H 0.3182 0.2879 0.7525
C7_4 C 0.3545(3) 0.2104(3) 0.7069(9)
H5_4 H 0.3913 0.2254 0.7097
C8_4 C 0.1598(3) 0.2565(3) 0.7558(9)
C9_4 C 0.1251(3) 0.3080(3) 0.8025(9)
C10_4 C 0.1388(3) 0.3663(3) 0.7817(9)
H6_4 H 0.1724 0.3761 0.7352
C11_4 C 0.1045(3) 0.4096(3) 0.8274(9)
H7_4 H 0.1136 0.4492 0.8083
C12_4 C 0.0421(3) 0.3397(3) 0.9246(9)
H8_4 H 0.0087 0.3310 0.9740
C13_4 C 0.0762(3) 0.2955(3) 0.8763(10)
H9_4 H 0.0662 0.2560 0.8936
O5_4 O 0.6161(2) 0.0556(2) 0.8325(8)
O6_4 O 0.55810(18) 0.1313(2) 0.8163(7)
O7_4 O 0.8627(2) 0.2091(2) 0.7727(8)
N3_4 N 0.7854(2) 0.2675(3) 0.7504(8)
H10_4 H 0.7744 0.3039 0.7345
N4_4 N 0.9426(2) 0.3962(2) 0.6001(7)
C14_4 C 0.6071(3) 0.1092(3) 0.8279(9)
C15_4 C 0.6549(2) 0.1510(3) 0.8203(9)
C16_4 C 0.7098(3) 0.1308(3) 0.8383(11)
H11_4 H 0.7170 0.0907 0.8621
C17_4 C 0.7541(3) 0.1680(3) 0.8223(12)
H12_4 H 0.7914 0.1537 0.8402
C18_4 C 0.7439(3) 0.2264(3) 0.7799(9)
C19_4 C 0.6890(3) 0.2477(3) 0.7701(10)
H13_4 H 0.6818 0.2879 0.7475
C20_4 C 0.6455(3) 0.2104(3) 0.7931(9)
H14_4 H 0.6087 0.2254 0.7903
C21_4 C 0.8402(3) 0.2565(3) 0.7442(9)
C22_4 C 0.8749(3) 0.3080(3) 0.6975(9)
C23_4 C 0.8612(3) 0.3663(3) 0.7183(9)
H15_4 H 0.8276 0.3761 0.7648
C24_4 C 0.8955(3) 0.4096(3) 0.6726(9)
H16_4 H 0.8864 0.4492 0.6917
C25_4 C 0.9579(3) 0.3397(3) 0.5754(9)
H17_4 H 0.9913 0.3310 0.5260
C26_4 C 0.9238(3) 0.2955(3) 0.6237(10)
H18_4 H 0.9338 0.2560 0.6064
loop_
_geom_bond_atom_site_label_1
_geom_bond_atom_site_label_2
_geom_bond_site_symmetry_1
_geom_bond_site_symmetry_2
Pb1 O1 1_555 1_555
O1 C1 1_555 1_555
O2 Pb1 1_555 1_555
O3 C8 1_555 1_555
O4 N2 1_555 1_555
N1 H1 1_555 1_555
N2 C11 1_555 1_555
C1 O2 1_555 1_555
C2 C1 1_555 1_555
C3 C2 1_555 1_555
H2 C3 1_555 1_555
C4 C3 1_555 1_555
H3 C4 1_555 1_555
C5 N1 1_555 1_555
C6 C5 1_555 1_555
H4 C6 1_555 1_555
C7 C2 1_555 1_555
H5 C7 1_555 1_555
C8 N1 1_555 1_555
C9 C8 1_555 1_555
C10 C9 1_555 1_555
H6 C10 1_555 1_555
C11 C10 1_555 1_555
H7 C11 1_555 1_555
C12 N2 1_555 1_555
H8 C12 1_555 1_555
C13 C9 1_555 1_555
H9 C13 1_555 1_555
O10 Pb1 1_555 1_555
C4 C5 1_555 1_555
C6 C7 1_555 1_555
C12 C13 1_555 1_555
O5 Pb1_2 1_555 1_555
O6 Pb1_2 1_555 1_555
O7 C21 1_555 1_555
O8 N4 1_555 1_555
N3 H10 1_555 1_555
N4 C24 1_555 1_555
C14 O5 1_555 1_555
C15 C14 1_555 1_555
C16 C15 1_555 1_555
H11 C16 1_555 1_555
C17 C16 1_555 1_555
H12 C17 1_555 1_555
C18 N3 1_555 1_555
C19 C18 1_555 1_555
H13 C19 1_555 1_555
C20 C15 1_555 1_555
H14 C20 1_555 1_555
C21 N3 1_555 1_555
C22 C21 1_555 1_555
C23 C22 1_555 1_555
H15 C23 1_555 1_555
C24 C23 1_555 1_555
H16 C24 1_555 1_555
C25 N4 1_555 1_555
H17 C25 1_555 1_555
C26 C22 1_555 1_555
H18 C26 1_555 1_555
Pb5 O8 1_555 1_555
O9 Pb1_2 1_555 1_555
O12 Pb1_2 1_555 1_555
O6 C14 1_555 1_555
C17 C18 1_555 1_555
C19 C20 1_555 1_555
C25 C26 1_555 1_555
Pb3 O1_2 1_555 1_555
O1_2 C1_2 1_555 1_555
O2_2 Pb3 1_555 1_555
O3_2 C8_2 1_555 1_555
O9 N2_2 1_555 1_555
N1_2 H1_2 1_555 1_555
N2_2 C11_2 1_555 1_555
C1_2 O2_2 1_555 1_555
C2_2 C1_2 1_555 1_555
C3_2 C2_2 1_555 1_555
H2_2 C3_2 1_555 1_555
C4_2 C3_2 1_555 1_555
H3_2 C4_2 1_555 1_555
C5_2 N1_2 1_555 1_555
C6_2 C5_2 1_555 1_555
H4_2 C6_2 1_555 1_555
C7_2 C2_2 1_555 1_555
H5_2 C7_2 1_555 1_555
C8_2 N1_2 1_555 1_555
C9_2 C8_2 1_555 1_555
C10_2 C9_2 1_555 1_555
H6_2 C10_2 1_555 1_555
C11_2 C10_2 1_555 1_555
H7_2 C11_2 1_555 1_555
C12_2 N2_2 1_555 1_555
H8_2 C12_2 1_555 1_555
C13_2 C9_2 1_555 1_555
H9_2 C13_2 1_555 1_555
O5_2 Pb3 1_555 1_555
O6_2 Pb3 1_555 1_555
O7_2 C21_2 1_555 1_555
O10 N4_2 1_555 1_555
N3_2 H10_2 1_555 1_555
N4_2 C24_2 1_555 1_555
C14_2 O5_2 1_555 1_555
C15_2 C14_2 1_555 1_555
C16_2 C15_2 1_555 1_555
H11_2 C16_2 1_555 1_555
C17_2 C16_2 1_555 1_555
H12_2 C17_2 1_555 1_555
C18_2 N3_2 1_555 1_555
C19_2 C18_2 1_555 1_555
H13_2 C19_2 1_555 1_555
C20_2 C15_2 1_555 1_555
H14_2 C20_2 1_555 1_555
C21_2 N3_2 1_555 1_555
C22_2 C21_2 1_555 1_555
C23_2 C22_2 1_555 1_555
H15_2 C23_2 1_555 1_555
C24_2 C23_2 1_555 1_555
H16_2 C24_2 1_555 1_555
C25_2 N4_2 1_555 1_555
H17_2 C25_2 1_555 1_555
C26_2 C22_2 1_555 1_555
H18_2 C26_2 1_555 1_555
Pb5_2 O10 1_555 1_555
O12_2 Pb3 1_555 1_555
C4_2 C5_2 1_555 1_555
C6_2 C7_2 1_555 1_555
C12_2 C13_2 1_555 1_555
O6_2 C14_2 1_555 1_555
C17_2 C18_2 1_555 1_555
C19_2 C20_2 1_555 1_555
C25_2 C26_2 1_555 1_555
O5_3 Pb5_2 1_555 1_555
O6_3 Pb5_2 1_555 1_555
O7_3 C21_3 1_555 1_555
O12_2 N4_3 1_555 1_555
N3_3 H10_3 1_555 1_555
N4_3 C24_3 1_555 1_555
C14_3 O5_3 1_555 1_555
C15_3 C14_3 1_555 1_555
C16_3 C15_3 1_555 1_555
H11_3 C16_3 1_555 1_555
C17_3 C16_3 1_555 1_555
H12_3 C17_3 1_555 1_555
C18_3 N3_3 1_555 1_555
C19_3 C18_3 1_555 1_555
H13_3 C19_3 1_555 1_555
C20_3 C15_3 1_555 1_555
H14_3 C20_3 1_555 1_555
C21_3 N3_3 1_555 1_555
C22_3 C21_3 1_555 1_555
C23_3 C22_3 1_555 1_555
H15_3 C23_3 1_555 1_555
C24_3 C23_3 1_555 1_555
H16_3 C24_3 1_555 1_555
C25_3 N4_3 1_555 1_555
H17_3 C25_3 1_555 1_555
C26_3 C22_3 1_555 1_555
H18_3 C26_3 1_555 1_555
O11 Pb5_2 1_555 1_555
O6_3 C14_3 1_555 1_555
C17_3 C18_3 1_555 1_555
C19_3 C20_3 1_555 1_555
C25_3 C26_3 1_555 1_555
Pb5_3 O1_3 1_555 1_555
O1_3 C1_3 1_555 1_555
O2_3 Pb5_3 1_555 1_555
O3_3 C8_3 1_555 1_555
O11_2 N2_3 1_555 1_555
N1_3 H1_3 1_555 1_555
N2_3 C11_3 1_555 1_555
C1_3 O2_3 1_555 1_555
C2_3 C1_3 1_555 1_555
C3_3 C2_3 1_555 1_555
H2_3 C3_3 1_555 1_555
C4_3 C3_3 1_555 1_555
H3_3 C4_3 1_555 1_555
C5_3 N1_3 1_555 1_555
C6_3 C5_3 1_555 1_555
H4_3 C6_3 1_555 1_555
C7_3 C2_3 1_555 1_555
H5_3 C7_3 1_555 1_555
C8_3 N1_3 1_555 1_555
C9_3 C8_3 1_555 1_555
C10_3 C9_3 1_555 1_555
H6_3 C10_3 1_555 1_555
C11_3 C10_3 1_555 1_555
H7_3 C11_3 1_555 1_555
C12_3 N2_3 1_555 1_555
H8_3 C12_3 1_555 1_555
C13_3 C9_3 1_555 1_555
H9_3 C13_3 1_555 1_555
O12 Pb5_3 1_555 1_555
C4_3 C5_3 1_555 1_555
C6_3 C7_3 1_555 1_555
C12_3 C13_3 1_555 1_555
Pb5 O1_4 1_555 1_555
O1_4 C1_4 1_555 1_555
O2_4 Pb5 1_555 1_555
O3_4 C8_4 1_555 1_555
O11 N2_4 1_555 1_555
N1_4 H1_4 1_555 1_555
N2_4 C11_4 1_555 1_555
C1_4 O2_4 1_555 1_555
C2_4 C1_4 1_555 1_555
C3_4 C2_4 1_555 1_555
H2_4 C3_4 1_555 1_555
C4_4 C3_4 1_555 1_555
H3_4 C4_4 1_555 1_555
C5_4 N1_4 1_555 1_555
C6_4 C5_4 1_555 1_555
H4_4 C6_4 1_555 1_555
C7_4 C2_4 1_555 1_555
H5_4 C7_4 1_555 1_555
C8_4 N1_4 1_555 1_555
C9_4 C8_4 1_555 1_555
C10_4 C9_4 1_555 1_555
H6_4 C10_4 1_555 1_555
C11_4 C10_4 1_555 1_555
H7_4 C11_4 1_555 1_555
C12_4 N2_4 1_555 1_555
H8_4 C12_4 1_555 1_555
C13_4 C9_4 1_555 1_555
H9_4 C13_4 1_555 1_555
O5_4 Pb5 1_555 1_555
O6_4 Pb5 1_555 1_555
O7_4 C21_4 1_555 1_555
O12 N4_4 1_555 1_555
N3_4 H10_4 1_555 1_555
N4_4 C24_4 1_555 1_555
C14_4 O5_4 1_555 1_555
C15_4 C14_4 1_555 1_555
C16_4 C15_4 1_555 1_555
H11_4 C16_4 1_555 1_555
C17_4 C16_4 1_555 1_555
H12_4 C17_4 1_555 1_555
C18_4 N3_4 1_555 1_555
C19_4 C18_4 1_555 1_555
H13_4 C19_4 1_555 1_555
C20_4 C15_4 1_555 1_555
H14_4 C20_4 1_555 1_555
C21_4 N3_4 1_555 1_555
C22_4 C21_4 1_555 1_555
C23_4 C22_4 1_555 1_555
H15_4 C23_4 1_555 1_555
C24_4 C23_4 1_555 1_555
H16_4 C24_4 1_555 1_555
C25_4 N4_4 1_555 1_555
H17_4 C25_4 1_555 1_555
C26_4 C22_4 1_555 1_555
H18_4 C26_4 1_555 1_555
C4_4 C5_4 1_555 1_555
C6_4 C7_4 1_555 1_555
C12_4 C13_4 1_555 1_555
O6_4 C14_4 1_555 1_555
C17_4 C18_4 1_555 1_555
C19_4 C20_4 1_555 1_555
C25_4 C26_4 1_555 1_555

#END
