
###############################################################################
#
# This file contains modified crystal structure data generated from the
# MOF subset of the Cambridge Structural Database (CSD) v543 
# hosted by the Cambridge Crystallographic Data Centre (CCDC).
#
# This work is licensed under the Creative Commons
# Attribution-NonCommercial-ShareAlike 4.0 International License.
# To view a copy of this license, visit
# http://creativecommons.org/licenses/by-nc-sa/4.0/
# or send a letter to
# Creative Commons, PO Box 1866, Mountain View, CA 94042, USA.
#
# CIF created using the CSD Python API on 29 September 2022
# The structure has been converted into the P1 space group
# The structure has a 3D framework
# The original CSD entry TEYHIP is in the cubic crystal system
# The framework has been calculated to contain at least 10.0% void space
# The void calculation uses a probe of radius 1.32A, grid spacing 0.4
# The framework is charged, counterions have been retained in the structure
#
###############################################################################

data_TEYHIP
_chemical_formula_moiety         '(C384 H288 Cd7 N96 O48 14+)n'
_symmetry_cell_setting           triclinic
_symmetry_space_group_name_H-M   'P 1'
_symmetry_Int_Tables_number      1
_space_group_name_Hall           'P 1'
loop_
_symmetry_equiv_pos_site_id
_symmetry_equiv_pos_as_xyz
1 x,y,z
_cell_length_a                   24.756(4)
_cell_length_b                   24.756(4)
_cell_length_c                   24.756(4)
_cell_angle_alpha                90
_cell_angle_beta                 90
_cell_angle_gamma                90
_cell_volume                     15172
loop_
_atom_site_label
_atom_site_type_symbol
_atom_site_fract_x
_atom_site_fract_y
_atom_site_fract_z
Cd1 Cd 0.0000 0.0000 0.0000
Cd3 Cd 0.5000 0.0000 0.5000
Cd5 Cd 0.0000 0.5000 0.5000
C10 C 0.3727(4) 0.0021(5) 0.4614(4)
C13 C 0.0021(5) 0.4614(4) 0.3727(4)
H8 H 0.3794 0.0390 0.4630
H11 H 0.0390 0.4630 0.3794
H13 H 0.2959 0.0133 0.4322
H16 H 0.0133 0.4322 0.2959
Cd1_2 Cd 0.0000 0.0000 1.0000
N8 N 0.0882(3) 0.0294(3) 0.9768(3)
Cd1_3 Cd 0.0000 1.0000 0.0000
O1 O 0.0159(4) 0.8934(5) 0.2812(4)
N1 N 0.0294(3) 0.9768(3) 0.0882(3)
N2 N 0.0900(4) 0.9206(4) 0.2369(4)
C2 C 0.0118(4) 0.9423(5) 0.1780(4)
C3 C 0.0672(5) 0.9397(4) 0.1877(4)
C4 C 0.1019(4) 0.9559(4) 0.1463(4)
C5 C 0.0820(4) 0.9749(4) 0.0997(4)
C6 C 0.0647(5) 0.8990(5) 0.2794(5)
C7 C 0.1012(4) 0.8831(4) 0.3254(4)
C8 C 0.0871(4) 0.8404(5) 0.3542(4)
H3 H 0.1391 0.9541 0.1515
H4 H 0.1063 0.9865 0.0735
H5 H 0.0571 0.8202 0.3441
H6 H 0.1247 0.9222 0.2394
Cd3_2 Cd 0.5000 1.0000 0.5000
O2 O 0.1066(5) 0.7812(4) 0.4841(4)
O3 O 0.2188(4) 0.9841(4) 0.3934(5)
N3 N 0.0232(3) 0.5882(3) 0.4706(3)
N4 N 0.4118(3) 0.9706(3) 0.4768(3)
N12 N 0.0794(4) 0.7369(4) 0.4100(4)
N13 N 0.2631(4) 0.9100(4) 0.4206(4)
C9 C 0.0386(4) 0.6273(4) 0.5021(5)
C14 C 0.0577(5) 0.6780(4) 0.4882(4)
C15 C 0.3220(4) 0.9882(4) 0.4423(5)
C19 C 0.0603(4) 0.6877(4) 0.4328(5)
C20 C 0.3123(4) 0.9328(5) 0.4397(4)
C24 C 0.0441(4) 0.6463(4) 0.3981(4)
C25 C 0.3537(4) 0.8981(4) 0.4559(4)
C29 C 0.0251(4) 0.5997(4) 0.4180(4)
C30 C 0.4003(4) 0.9180(4) 0.4749(4)
C34 C 0.1010(5) 0.7794(5) 0.4353(5)
C35 C 0.2206(5) 0.9353(5) 0.3990(5)
C39 C 0.1169(4) 0.8254(4) 0.3988(4)
C40 C 0.1746(4) 0.8988(4) 0.3831(4)
C44 C 0.1596(5) 0.8542(4) 0.4129(4)
C45 C 0.1458(4) 0.9129(4) 0.3404(5)
H7 H 0.0370 0.6206 0.5390
H12 H 0.0678 0.7041 0.5133
H17 H 0.0459 0.6515 0.3609
H18 H 0.3485 0.8609 0.4541
H22 H 0.0135 0.5735 0.3937
H23 H 0.4265 0.8937 0.4865
H27 H 0.1559 0.9429 0.3202
H28 H 0.1798 0.8441 0.4429
H32 H 0.0778 0.7394 0.3753
H33 H 0.2606 0.8753 0.4222
Cd1_4 Cd 0.0000 1.0000 1.0000
N10 N 0.0232(3) 0.9118(3) 0.9706(3)
Cd1_5 Cd 1.0000 0.0000 0.0000
Cd4 Cd 0.5000 0.5000 0.0000
Cd5_2 Cd 1.0000 0.5000 0.5000
O4 O 0.8934(5) 0.2812(4) 0.0159(4)
O5 O 0.7812(4) 0.4841(4) 0.1066(5)
O6 O 0.9841(4) 0.3934(5) 0.2188(4)
N5 N 0.9768(3) 0.0882(3) 0.0294(3)
N6 N 0.5882(3) 0.4706(3) 0.0232(3)
N7 N 0.9706(3) 0.4768(3) 0.4118(3)
N14 N 0.9206(4) 0.2369(4) 0.0900(4)
N15 N 0.7369(4) 0.4100(4) 0.0794(4)
N16 N 0.9100(4) 0.4206(4) 0.2631(4)
C12 C 0.6273(4) 0.5021(5) 0.0386(4)
C16 C 0.9423(5) 0.1780(4) 0.0118(4)
C17 C 0.6780(4) 0.4882(4) 0.0577(5)
C18 C 0.9882(4) 0.4423(5) 0.3220(4)
C21 C 0.9397(4) 0.1877(4) 0.0672(5)
C22 C 0.6877(4) 0.4328(5) 0.0603(4)
C23 C 0.9328(5) 0.4397(4) 0.3123(4)
C26 C 0.9559(4) 0.1463(4) 0.1019(4)
C27 C 0.6463(4) 0.3981(4) 0.0441(4)
C28 C 0.8981(4) 0.4559(4) 0.3537(4)
C31 C 0.9749(4) 0.0997(4) 0.0820(4)
C32 C 0.5997(4) 0.4180(4) 0.0251(4)
C33 C 0.9180(4) 0.4749(4) 0.4003(4)
C36 C 0.8990(5) 0.2794(5) 0.0647(5)
C37 C 0.7794(5) 0.4353(5) 0.1010(5)
C38 C 0.9353(5) 0.3990(5) 0.2206(5)
C41 C 0.8831(4) 0.3254(4) 0.1012(4)
C42 C 0.8254(4) 0.3988(4) 0.1169(4)
C43 C 0.8988(4) 0.3831(4) 0.1746(4)
C46 C 0.8404(5) 0.3542(4) 0.0871(4)
C47 C 0.8542(4) 0.4129(4) 0.1596(5)
C48 C 0.9129(4) 0.3404(5) 0.1458(4)
H10 H 0.6206 0.5390 0.0370
H15 H 0.7041 0.5133 0.0678
H19 H 0.9541 0.1515 0.1391
H20 H 0.6515 0.3609 0.0459
H21 H 0.8609 0.4541 0.3485
H24 H 0.9865 0.0735 0.1063
H25 H 0.5735 0.3937 0.0135
H26 H 0.8937 0.4865 0.4265
H29 H 0.8202 0.3441 0.0571
H30 H 0.9429 0.3202 0.1559
H31 H 0.8441 0.4429 0.1798
H34 H 0.9222 0.2394 0.1247
H35 H 0.7394 0.3753 0.0778
H36 H 0.8753 0.4222 0.2606
Cd1_6 Cd 1.0000 0.0000 1.0000
Cd4_2 Cd 0.5000 0.5000 1.0000
N9 N 0.9706(3) 0.0232(3) 0.9118(3)
C11 C 0.9614(4) 0.1273(4) 0.9979(5)
H9 H 0.9630 0.1206 0.9610
H14 H 0.9322 0.2041 0.9867
Cd1_7 Cd 1.0000 1.0000 0.0000
C1 C 0.9979(5) 0.9614(4) 0.1273(4)
H1 H 0.9610 0.9630 0.1206
H2 H 0.9867 0.9322 0.2041
N11 N 0.9118(3) 0.9706(3) 0.0232(3)
Cd1_8 Cd 1.0000 1.0000 1.0000
C13_2 C 0.4614(4) 0.3727(4) 0.0021(5)
H11_2 H 0.4630 0.3794 0.0390
H16_2 H 0.4322 0.2959 0.0133
O4_2 O 0.2812(4) 0.0159(4) 0.8934(5)
O5_2 O 0.4841(4) 0.1066(5) 0.7812(4)
O6_2 O 0.3934(5) 0.2188(4) 0.9841(4)
N6_2 N 0.4706(3) 0.0232(3) 0.5882(3)
N7_2 N 0.4768(3) 0.4118(3) 0.9706(3)
N14_2 N 0.2369(4) 0.0900(4) 0.9206(4)
N15_2 N 0.4100(4) 0.0794(4) 0.7369(4)
N16_2 N 0.4206(4) 0.2631(4) 0.9100(4)
C12_2 C 0.5021(5) 0.0386(4) 0.6273(4)
C16_2 C 0.1780(4) 0.0118(4) 0.9423(5)
C17_2 C 0.4882(4) 0.0577(5) 0.6780(4)
C18_2 C 0.4423(5) 0.3220(4) 0.9882(4)
C21_2 C 0.1877(4) 0.0672(5) 0.9397(4)
C22_2 C 0.4328(5) 0.0603(4) 0.6877(4)
C23_2 C 0.4397(4) 0.3123(4) 0.9328(5)
C26_2 C 0.1463(4) 0.1019(4) 0.9559(4)
C27_2 C 0.3981(4) 0.0441(4) 0.6463(4)
C28_2 C 0.4559(4) 0.3537(4) 0.8981(4)
C31_2 C 0.0997(4) 0.0820(4) 0.9749(4)
C32_2 C 0.4180(4) 0.0251(4) 0.5997(4)
C33_2 C 0.4749(4) 0.4003(4) 0.9180(4)
C36_2 C 0.2794(5) 0.0647(5) 0.8990(5)
C37_2 C 0.4353(5) 0.1010(5) 0.7794(5)
C38_2 C 0.3990(5) 0.2206(5) 0.9353(5)
C41_2 C 0.3254(4) 0.1012(4) 0.8831(4)
C42_2 C 0.3988(4) 0.1169(4) 0.8254(4)
C43_2 C 0.3831(4) 0.1746(4) 0.8988(4)
C46_2 C 0.3542(4) 0.0871(4) 0.8404(5)
C47_2 C 0.4129(4) 0.1596(5) 0.8542(4)
C48_2 C 0.3404(5) 0.1458(4) 0.9129(4)
H10_2 H 0.5390 0.0370 0.6206
H15_2 H 0.5133 0.0678 0.7041
H19_2 H 0.1515 0.1391 0.9541
H20_2 H 0.3609 0.0459 0.6515
H21_2 H 0.4541 0.3485 0.8609
H24_2 H 0.0735 0.1063 0.9865
H25_2 H 0.3937 0.0135 0.5735
H26_2 H 0.4865 0.4265 0.8937
H29_2 H 0.3441 0.0571 0.8202
H30_2 H 0.3202 0.1559 0.9429
H31_2 H 0.4429 0.1798 0.8441
H34_2 H 0.2394 0.1247 0.9222
H35_2 H 0.3753 0.0778 0.7394
H36_2 H 0.4222 0.2606 0.8753
C11_2 C 0.1273(4) 0.9979(5) 0.9614(4)
H9_2 H 0.1206 0.9610 0.9630
H14_2 H 0.2041 0.9867 0.9322
N10_2 N 0.4768(3) 0.0882(3) 0.4706(3)
N11_2 N 0.5882(3) 0.0294(3) 0.5232(3)
O4_3 O 0.6066(5) 0.7188(4) 0.5159(4)
O5_3 O 0.7188(4) 0.5159(4) 0.6066(5)
O6_3 O 0.5159(4) 0.6066(5) 0.7188(4)
N5_2 N 0.5232(3) 0.9118(3) 0.5294(3)
N6_3 N 0.9118(3) 0.5294(3) 0.5232(3)
N7_3 N 0.5294(3) 0.5232(3) 0.9118(3)
N9_2 N 0.5294(3) 0.9768(3) 0.4118(3)
N14_3 N 0.5794(4) 0.7631(4) 0.5900(4)
N15_3 N 0.7631(4) 0.5900(4) 0.5794(4)
N16_3 N 0.5900(4) 0.5794(4) 0.7631(4)
C11_3 C 0.5386(4) 0.8727(4) 0.4979(5)
C12_3 C 0.8727(4) 0.4979(5) 0.5386(4)
C13_3 C 0.4979(5) 0.5386(4) 0.8727(4)
C16_3 C 0.5577(5) 0.8220(4) 0.5118(4)
C17_3 C 0.8220(4) 0.5118(4) 0.5577(5)
C18_3 C 0.5118(4) 0.5577(5) 0.8220(4)
C21_3 C 0.5603(4) 0.8123(4) 0.5672(5)
C22_3 C 0.8123(4) 0.5672(5) 0.5603(4)
C23_3 C 0.5672(5) 0.5603(4) 0.8123(4)
C26_3 C 0.5441(4) 0.8537(4) 0.6019(4)
C27_3 C 0.8537(4) 0.6019(4) 0.5441(4)
C28_3 C 0.6019(4) 0.5441(4) 0.8537(4)
C31_3 C 0.5251(4) 0.9003(4) 0.5820(4)
C32_3 C 0.9003(4) 0.5820(4) 0.5251(4)
C33_3 C 0.5820(4) 0.5251(4) 0.9003(4)
C36_3 C 0.6010(5) 0.7206(5) 0.5647(5)
C37_3 C 0.7206(5) 0.5647(5) 0.6010(5)
C38_3 C 0.5647(5) 0.6010(5) 0.7206(5)
C41_3 C 0.6169(4) 0.6746(4) 0.6012(4)
C42_3 C 0.6746(4) 0.6012(4) 0.6169(4)
C43_3 C 0.6012(4) 0.6169(4) 0.6746(4)
C46_3 C 0.6596(5) 0.6458(4) 0.5871(4)
C47_3 C 0.6458(4) 0.5871(4) 0.6596(5)
C48_3 C 0.5871(4) 0.6596(5) 0.6458(4)
H9_3 H 0.5370 0.8794 0.4610
H10_3 H 0.8794 0.4610 0.5370
H11_3 H 0.4610 0.5370 0.8794
H14_3 H 0.5678 0.7959 0.4867
H15_3 H 0.7959 0.4867 0.5678
H16_3 H 0.4867 0.5678 0.7959
H19_3 H 0.5459 0.8485 0.6391
H20_3 H 0.8485 0.6391 0.5459
H21_3 H 0.6391 0.5459 0.8485
H24_3 H 0.5135 0.9265 0.6063
H25_3 H 0.9265 0.6063 0.5135
H26_3 H 0.6063 0.5135 0.9265
H29_3 H 0.6798 0.6559 0.5571
H30_3 H 0.5571 0.6798 0.6559
H31_3 H 0.6559 0.5571 0.6798
H34_3 H 0.5778 0.7606 0.6247
H35_3 H 0.7606 0.6247 0.5778
H36_3 H 0.6247 0.5778 0.7606
N9_3 N 0.5232(3) 0.5882(3) 0.0294(3)
N11_3 N 0.4706(3) 0.4768(3) 0.0882(3)
N10_3 N 0.4118(3) 0.5294(3) 0.9768(3)
N9_4 N 0.0882(3) 0.4706(3) 0.4768(3)
N10_4 N 0.0294(3) 0.5232(3) 0.5882(3)
N11_4 N 0.9768(3) 0.4118(3) 0.5294(3)
C1_2 C 0.0021(5) 0.0386(4) 0.8727(4)
H1_2 H 0.0390 0.0370 0.8794
H2_2 H 0.0133 0.0678 0.7959
C11_4 C 0.0386(4) 0.8727(4) 0.0021(5)
H9_4 H 0.0370 0.8794 0.0390
H14_4 H 0.0678 0.7959 0.0133
O4_4 O 0.1066(5) 0.7188(4) 0.9841(4)
O5_4 O 0.2188(4) 0.5159(4) 0.8934(5)
O6_4 O 0.0159(4) 0.6066(5) 0.7812(4)
N14_4 N 0.0794(4) 0.7631(4) 0.9100(4)
N15_4 N 0.2631(4) 0.5900(4) 0.9206(4)
N16_4 N 0.0900(4) 0.5794(4) 0.7369(4)
C12_4 C 0.3727(4) 0.4979(5) 0.9614(4)
C16_4 C 0.0577(5) 0.8220(4) 0.9882(4)
C17_4 C 0.3220(4) 0.5118(4) 0.9423(5)
C18_4 C 0.0118(4) 0.5577(5) 0.6780(4)
C21_4 C 0.0603(4) 0.8123(4) 0.9328(5)
C22_4 C 0.3123(4) 0.5672(5) 0.9397(4)
C23_4 C 0.0672(5) 0.5603(4) 0.6877(4)
C26_4 C 0.0441(4) 0.8537(4) 0.8981(4)
C27_4 C 0.3537(4) 0.6019(4) 0.9559(4)
C28_4 C 0.1019(4) 0.5441(4) 0.6463(4)
C31_4 C 0.0251(4) 0.9003(4) 0.9180(4)
C32_4 C 0.4003(4) 0.5820(4) 0.9749(4)
C33_4 C 0.0820(4) 0.5251(4) 0.5997(4)
C36_4 C 0.1010(5) 0.7206(5) 0.9353(5)
C37_4 C 0.2206(5) 0.5647(5) 0.8990(5)
C38_4 C 0.0647(5) 0.6010(5) 0.7794(5)
C41_4 C 0.1169(4) 0.6746(4) 0.8988(4)
C42_4 C 0.1746(4) 0.6012(4) 0.8831(4)
C43_4 C 0.1012(4) 0.6169(4) 0.8254(4)
C46_4 C 0.1596(5) 0.6458(4) 0.9129(4)
C47_4 C 0.1458(4) 0.5871(4) 0.8404(5)
C48_4 C 0.0871(4) 0.6596(5) 0.8542(4)
H10_4 H 0.3794 0.4610 0.9630
H15_4 H 0.2959 0.4867 0.9322
H19_4 H 0.0459 0.8485 0.8609
H20_4 H 0.3485 0.6391 0.9541
H21_4 H 0.1391 0.5459 0.6515
H24_4 H 0.0135 0.9265 0.8937
H25_4 H 0.4265 0.6063 0.9865
H26_4 H 0.1063 0.5135 0.5735
H29_4 H 0.1798 0.6559 0.9429
H30_4 H 0.0571 0.6798 0.8441
H31_4 H 0.1559 0.5571 0.8202
H34_4 H 0.0778 0.7606 0.8753
H35_4 H 0.2606 0.6247 0.9222
H36_4 H 0.1247 0.5778 0.7394
O1_2 O 0.9841(4) 0.1066(5) 0.7188(4)
N2_2 N 0.9100(4) 0.0794(4) 0.7631(4)
C2_2 C 0.9882(4) 0.0577(5) 0.8220(4)
C3_2 C 0.9328(5) 0.0603(4) 0.8123(4)
C4_2 C 0.8981(4) 0.0441(4) 0.8537(4)
C5_2 C 0.9180(4) 0.0251(4) 0.9003(4)
C6_2 C 0.9353(5) 0.1010(5) 0.7206(5)
C7_2 C 0.8988(4) 0.1169(4) 0.6746(4)
C8_2 C 0.9129(4) 0.1596(5) 0.6458(4)
H3_2 H 0.8609 0.0459 0.8485
H4_2 H 0.8937 0.0135 0.9265
H5_2 H 0.9429 0.1798 0.6559
H6_2 H 0.8753 0.0778 0.7606
O2_2 O 0.8934(5) 0.2188(4) 0.5159(4)
O3_2 O 0.7812(4) 0.0159(4) 0.6066(5)
N12_2 N 0.9206(4) 0.2631(4) 0.5900(4)
N13_2 N 0.7369(4) 0.0900(4) 0.5794(4)
C9_2 C 0.9614(4) 0.3727(4) 0.4979(5)
C14_2 C 0.9423(5) 0.3220(4) 0.5118(4)
C15_2 C 0.6780(4) 0.0118(4) 0.5577(5)
C19_2 C 0.9397(4) 0.3123(4) 0.5672(5)
C20_2 C 0.6877(4) 0.0672(5) 0.5603(4)
C24_2 C 0.9559(4) 0.3537(4) 0.6019(4)
C25_2 C 0.6463(4) 0.1019(4) 0.5441(4)
C29_2 C 0.9749(4) 0.4003(4) 0.5820(4)
C30_2 C 0.5997(4) 0.0820(4) 0.5251(4)
C34_2 C 0.8990(5) 0.2206(5) 0.5647(5)
C35_2 C 0.7794(5) 0.0647(5) 0.6010(5)
C39_2 C 0.8831(4) 0.1746(4) 0.6012(4)
C40_2 C 0.8254(4) 0.1012(4) 0.6169(4)
C44_2 C 0.8404(5) 0.1458(4) 0.5871(4)
C45_2 C 0.8542(4) 0.0871(4) 0.6596(5)
H7_2 H 0.9630 0.3794 0.4610
H12_2 H 0.9322 0.2959 0.4867
H17_2 H 0.9541 0.3485 0.6391
H18_2 H 0.6515 0.1391 0.5459
H22_2 H 0.9865 0.4265 0.6063
H23_2 H 0.5735 0.1063 0.5135
H27_2 H 0.8441 0.0571 0.6798
H28_2 H 0.8202 0.1559 0.5571
H32_2 H 0.9222 0.2606 0.6247
H33_2 H 0.7394 0.1247 0.5778
C10_2 C 0.6273(4) 0.9979(5) 0.5386(4)
C13_4 C 0.9979(5) 0.5386(4) 0.6273(4)
H8_2 H 0.6206 0.9610 0.5370
H11_4 H 0.9610 0.5370 0.6206
H13_2 H 0.7041 0.9867 0.5678
H16_4 H 0.9867 0.5678 0.7041
C11_5 C 0.8727(4) 0.0021(5) 0.0386(4)
H9_5 H 0.8794 0.0390 0.0370
H14_5 H 0.7959 0.0133 0.0678
O4_5 O 0.7188(4) 0.9841(4) 0.1066(5)
O5_5 O 0.5159(4) 0.8934(5) 0.2188(4)
O6_5 O 0.6066(5) 0.7812(4) 0.0159(4)
N14_5 N 0.7631(4) 0.9100(4) 0.0794(4)
N15_5 N 0.5900(4) 0.9206(4) 0.2631(4)
N16_5 N 0.5794(4) 0.7369(4) 0.0900(4)
C12_5 C 0.4979(5) 0.9614(4) 0.3727(4)
C16_5 C 0.8220(4) 0.9882(4) 0.0577(5)
C17_5 C 0.5118(4) 0.9423(5) 0.3220(4)
C18_5 C 0.5577(5) 0.6780(4) 0.0118(4)
C21_5 C 0.8123(4) 0.9328(5) 0.0603(4)
C22_5 C 0.5672(5) 0.9397(4) 0.3123(4)
C23_5 C 0.5603(4) 0.6877(4) 0.0672(5)
C26_5 C 0.8537(4) 0.8981(4) 0.0441(4)
C27_5 C 0.6019(4) 0.9559(4) 0.3537(4)
C28_5 C 0.5441(4) 0.6463(4) 0.1019(4)
C31_5 C 0.9003(4) 0.9180(4) 0.0251(4)
C32_5 C 0.5820(4) 0.9749(4) 0.4003(4)
C33_5 C 0.5251(4) 0.5997(4) 0.0820(4)
C36_5 C 0.7206(5) 0.9353(5) 0.1010(5)
C37_5 C 0.5647(5) 0.8990(5) 0.2206(5)
C38_5 C 0.6010(5) 0.7794(5) 0.0647(5)
C41_5 C 0.6746(4) 0.8988(4) 0.1169(4)
C42_5 C 0.6012(4) 0.8831(4) 0.1746(4)
C43_5 C 0.6169(4) 0.8254(4) 0.1012(4)
C46_5 C 0.6458(4) 0.9129(4) 0.1596(5)
C47_5 C 0.5871(4) 0.8404(5) 0.1458(4)
C48_5 C 0.6596(5) 0.8542(4) 0.0871(4)
H10_5 H 0.4610 0.9630 0.3794
H15_5 H 0.4867 0.9322 0.2959
H19_5 H 0.8485 0.8609 0.0459
H20_5 H 0.6391 0.9541 0.3485
H21_5 H 0.5459 0.6515 0.1391
H24_5 H 0.9265 0.8937 0.0135
H25_5 H 0.6063 0.9865 0.4265
H26_5 H 0.5135 0.5735 0.1063
H29_5 H 0.6559 0.9429 0.1798
H30_5 H 0.6798 0.8441 0.0571
H31_5 H 0.5571 0.8202 0.1559
H34_5 H 0.7606 0.8753 0.0778
H35_5 H 0.6247 0.9222 0.2606
H36_5 H 0.5778 0.7394 0.1247
C13_5 C 0.5386(4) 0.6273(4) 0.9979(5)
H11_5 H 0.5370 0.6206 0.9610
H16_5 H 0.5678 0.7041 0.9867
O4_6 O 0.3934(5) 0.2812(4) 0.4841(4)
O5_6 O 0.2812(4) 0.4841(4) 0.3934(5)
O6_6 O 0.4841(4) 0.3934(5) 0.2812(4)
N14_6 N 0.4206(4) 0.2369(4) 0.4100(4)
N15_6 N 0.2369(4) 0.4100(4) 0.4206(4)
N16_6 N 0.4100(4) 0.4206(4) 0.2369(4)
C11_6 C 0.4614(4) 0.1273(4) 0.5021(5)
C12_6 C 0.1273(4) 0.5021(5) 0.4614(4)
C13_6 C 0.5021(5) 0.4614(4) 0.1273(4)
C16_6 C 0.4423(5) 0.1780(4) 0.4882(4)
C17_6 C 0.1780(4) 0.4882(4) 0.4423(5)
C18_6 C 0.4882(4) 0.4423(5) 0.1780(4)
C21_6 C 0.4397(4) 0.1877(4) 0.4328(5)
C22_6 C 0.1877(4) 0.4328(5) 0.4397(4)
C23_6 C 0.4328(5) 0.4397(4) 0.1877(4)
C26_6 C 0.4559(4) 0.1463(4) 0.3981(4)
C27_6 C 0.1463(4) 0.3981(4) 0.4559(4)
C28_6 C 0.3981(4) 0.4559(4) 0.1463(4)
C31_6 C 0.4749(4) 0.0997(4) 0.4180(4)
C32_6 C 0.0997(4) 0.4180(4) 0.4749(4)
C33_6 C 0.4180(4) 0.4749(4) 0.0997(4)
C36_6 C 0.3990(5) 0.2794(5) 0.4353(5)
C37_6 C 0.2794(5) 0.4353(5) 0.3990(5)
C38_6 C 0.4353(5) 0.3990(5) 0.2794(5)
C41_6 C 0.3831(4) 0.3254(4) 0.3988(4)
C42_6 C 0.3254(4) 0.3988(4) 0.3831(4)
C43_6 C 0.3988(4) 0.3831(4) 0.3254(4)
C46_6 C 0.3404(5) 0.3542(4) 0.4129(4)
C47_6 C 0.3542(4) 0.4129(4) 0.3404(5)
C48_6 C 0.4129(4) 0.3404(5) 0.3542(4)
H9_6 H 0.4630 0.1206 0.5390
H10_6 H 0.1206 0.5390 0.4630
H11_6 H 0.5390 0.4630 0.1206
H14_6 H 0.4322 0.2041 0.5133
H15_6 H 0.2041 0.5133 0.4322
H16_6 H 0.5133 0.4322 0.2041
H19_6 H 0.4541 0.1515 0.3609
H20_6 H 0.1515 0.3609 0.4541
H21_6 H 0.3609 0.4541 0.1515
H24_6 H 0.4865 0.0735 0.3937
H25_6 H 0.0735 0.3937 0.4865
H26_6 H 0.3937 0.4865 0.0735
H29_6 H 0.3202 0.3441 0.4429
H30_6 H 0.4429 0.3202 0.3441
H31_6 H 0.3441 0.4429 0.3202
H34_6 H 0.4222 0.2394 0.3753
H35_6 H 0.2394 0.3753 0.4222
H36_6 H 0.3753 0.4222 0.2394
Cd3_3 Cd -0.0000 0.5000 0.0000
Cd3_4 Cd -0.0000 0.5000 1.0000
Cd5_3 Cd 0.5000 -0.0000 0.0000
Cd4_3 Cd 0.0000 0.0000 0.5000
Cd5_4 Cd 0.5000 -0.0000 1.0000
C12_7 C 0.1273(4) 0.0021(5) 0.5386(4)
H10_7 H 0.1206 0.0390 0.5370
H15_7 H 0.2041 0.0133 0.5678
Cd3_5 Cd 1.0000 0.5000 0.0000
Cd5_5 Cd 0.5000 1.0000 0.0000
C9_3 C 0.5386(4) 0.1273(4) 0.0021(5)
H7_3 H 0.5370 0.1206 0.0390
H12_3 H 0.5678 0.2041 0.0133
Cd1_9 Cd 0.5000 0.5000 0.5000
O1_3 O 0.5159(4) 0.3934(5) 0.7812(4)
N1_2 N 0.5294(3) 0.4768(3) 0.5882(3)
N2_3 N 0.5900(4) 0.4206(4) 0.7369(4)
C1_3 C 0.4979(5) 0.4614(4) 0.6273(4)
C2_3 C 0.5118(4) 0.4423(5) 0.6780(4)
C3_3 C 0.5672(5) 0.4397(4) 0.6877(4)
C4_3 C 0.6019(4) 0.4559(4) 0.6463(4)
C5_3 C 0.5820(4) 0.4749(4) 0.5997(4)
C6_3 C 0.5647(5) 0.3990(5) 0.7794(5)
C7_3 C 0.6012(4) 0.3831(4) 0.8254(4)
C8_3 C 0.5871(4) 0.3404(5) 0.8542(4)
H1_3 H 0.4610 0.4630 0.6206
H2_3 H 0.4867 0.4322 0.7041
H3_3 H 0.6391 0.4541 0.6515
H4_3 H 0.6063 0.4865 0.5735
H5_3 H 0.5571 0.3202 0.8441
H6_3 H 0.6247 0.4222 0.7394
Cd3_6 Cd 1.0000 0.5000 1.0000
Cd4_4 Cd 0.0000 1.0000 0.5000
Cd5_6 Cd 0.5000 1.0000 1.0000
O2_3 O 0.6066(5) 0.2812(4) 0.9841(4)
O3_3 O 0.7188(4) 0.4841(4) 0.8934(5)
O4_7 O 0.3934(5) 0.7812(4) 0.5159(4)
O5_7 O 0.2812(4) 0.9841(4) 0.6066(5)
O6_7 O 0.4841(4) 0.8934(5) 0.7188(4)
N3_2 N 0.5232(3) 0.0882(3) 0.9706(3)
N4_2 N 0.9118(3) 0.4706(3) 0.9768(3)
N5_3 N 0.4768(3) 0.5882(3) 0.5294(3)
N6_4 N 0.0882(3) 0.9706(3) 0.5232(3)
N7_4 N 0.4706(3) 0.9768(3) 0.9118(3)
N8_2 N 0.5882(3) 0.5294(3) 0.4768(3)
N9_5 N 0.4706(3) 0.5232(3) 0.4118(3)
N10_5 N 0.5232(3) 0.4118(3) 0.4706(3)
N11_5 N 0.4118(3) 0.4706(3) 0.5232(3)
N12_3 N 0.5794(4) 0.2369(4) 0.9100(4)
N13_3 N 0.7631(4) 0.4100(4) 0.9206(4)
N14_7 N 0.4206(4) 0.7369(4) 0.5900(4)
N15_7 N 0.2369(4) 0.9100(4) 0.5794(4)
N16_7 N 0.4100(4) 0.9206(4) 0.7631(4)
C10_3 C 0.8727(4) 0.5021(5) 0.9614(4)
C11_7 C 0.4614(4) 0.6273(4) 0.4979(5)
C13_7 C 0.5021(5) 0.9614(4) 0.8727(4)
C14_3 C 0.5577(5) 0.1780(4) 0.9882(4)
C15_3 C 0.8220(4) 0.4882(4) 0.9423(5)
C16_7 C 0.4423(5) 0.6780(4) 0.5118(4)
C17_7 C 0.1780(4) 0.9882(4) 0.5577(5)
C18_7 C 0.4882(4) 0.9423(5) 0.8220(4)
C19_3 C 0.5603(4) 0.1877(4) 0.9328(5)
C20_3 C 0.8123(4) 0.4328(5) 0.9397(4)
C21_7 C 0.4397(4) 0.6877(4) 0.5672(5)
C22_7 C 0.1877(4) 0.9328(5) 0.5603(4)
C23_7 C 0.4328(5) 0.9397(4) 0.8123(4)
C24_3 C 0.5441(4) 0.1463(4) 0.8981(4)
C25_3 C 0.8537(4) 0.3981(4) 0.9559(4)
C26_7 C 0.4559(4) 0.6463(4) 0.6019(4)
C27_7 C 0.1463(4) 0.8981(4) 0.5441(4)
C28_7 C 0.3981(4) 0.9559(4) 0.8537(4)
C29_3 C 0.5251(4) 0.0997(4) 0.9180(4)
C30_3 C 0.9003(4) 0.4180(4) 0.9749(4)
C31_7 C 0.4749(4) 0.5997(4) 0.5820(4)
C32_7 C 0.0997(4) 0.9180(4) 0.5251(4)
C33_7 C 0.4180(4) 0.9749(4) 0.9003(4)
C34_3 C 0.6010(5) 0.2794(5) 0.9353(5)
C35_3 C 0.7206(5) 0.4353(5) 0.8990(5)
C36_7 C 0.3990(5) 0.7794(5) 0.5647(5)
C37_7 C 0.2794(5) 0.9353(5) 0.6010(5)
C38_7 C 0.4353(5) 0.8990(5) 0.7206(5)
C39_3 C 0.6169(4) 0.3254(4) 0.8988(4)
C40_3 C 0.6746(4) 0.3988(4) 0.8831(4)
C41_7 C 0.3831(4) 0.8254(4) 0.6012(4)
C42_7 C 0.3254(4) 0.8988(4) 0.6169(4)
C43_7 C 0.3988(4) 0.8831(4) 0.6746(4)
C44_3 C 0.6596(5) 0.3542(4) 0.9129(4)
C45_3 C 0.6458(4) 0.4129(4) 0.8404(5)
C46_7 C 0.3404(5) 0.8542(4) 0.5871(4)
C47_7 C 0.3542(4) 0.9129(4) 0.6596(5)
C48_7 C 0.4129(4) 0.8404(5) 0.6458(4)
H8_3 H 0.8794 0.5390 0.9630
H9_7 H 0.4630 0.6206 0.4610
H11_7 H 0.5390 0.9630 0.8794
H13_3 H 0.7959 0.5133 0.9322
H14_7 H 0.4322 0.7041 0.4867
H16_7 H 0.5133 0.9322 0.7959
H17_3 H 0.5459 0.1515 0.8609
H18_3 H 0.8485 0.3609 0.9541
H19_7 H 0.4541 0.6515 0.6391
H20_7 H 0.1515 0.8609 0.5459
H21_7 H 0.3609 0.9541 0.8485
H22_3 H 0.5135 0.0735 0.8937
H23_3 H 0.9265 0.3937 0.9865
H24_7 H 0.4865 0.5735 0.6063
H25_7 H 0.0735 0.8937 0.5135
H26_7 H 0.3937 0.9865 0.9265
H27_3 H 0.6559 0.4429 0.8202
H28_3 H 0.6798 0.3441 0.9429
H29_7 H 0.3202 0.8441 0.5571
H30_7 H 0.4429 0.8202 0.6559
H31_7 H 0.3441 0.9429 0.6798
H32_3 H 0.5778 0.2394 0.8753
H33_3 H 0.7606 0.3753 0.9222
H34_7 H 0.4222 0.7394 0.6247
H35_7 H 0.2394 0.8753 0.5778
H36_7 H 0.3753 0.9222 0.7606
Cd4_5 Cd 1.0000 0.0000 0.5000
Cd4_6 Cd 1.0000 1.0000 0.5000
C12_8 C 0.0021(5) 0.5386(4) 0.1273(4)
H10_8 H 0.0390 0.5370 0.1206
H15_8 H 0.0133 0.5678 0.2041
O4_8 O 0.7812(4) 0.5159(4) 0.3934(5)
O5_8 O 0.9841(4) 0.6066(5) 0.2812(4)
O6_8 O 0.8934(5) 0.7188(4) 0.4841(4)
N6_5 N 0.9706(3) 0.5232(3) 0.0882(3)
N7_5 N 0.9768(3) 0.9118(3) 0.4706(3)
N14_8 N 0.7369(4) 0.5900(4) 0.4206(4)
N15_8 N 0.9100(4) 0.5794(4) 0.2369(4)
N16_8 N 0.9206(4) 0.7631(4) 0.4100(4)
C11_8 C 0.6273(4) 0.4979(5) 0.4614(4)
C13_8 C 0.9614(4) 0.8727(4) 0.5021(5)
C16_8 C 0.6780(4) 0.5118(4) 0.4423(5)
C17_8 C 0.9882(4) 0.5577(5) 0.1780(4)
C18_8 C 0.9423(5) 0.8220(4) 0.4882(4)
C21_8 C 0.6877(4) 0.5672(5) 0.4397(4)
C22_8 C 0.9328(5) 0.5603(4) 0.1877(4)
C23_8 C 0.9397(4) 0.8123(4) 0.4328(5)
C26_8 C 0.6463(4) 0.6019(4) 0.4559(4)
C27_8 C 0.8981(4) 0.5441(4) 0.1463(4)
C28_8 C 0.9559(4) 0.8537(4) 0.3981(4)
C31_8 C 0.5997(4) 0.5820(4) 0.4749(4)
C32_8 C 0.9180(4) 0.5251(4) 0.0997(4)
C33_8 C 0.9749(4) 0.9003(4) 0.4180(4)
C36_8 C 0.7794(5) 0.5647(5) 0.3990(5)
C37_8 C 0.9353(5) 0.6010(5) 0.2794(5)
C38_8 C 0.8990(5) 0.7206(5) 0.4353(5)
C41_8 C 0.8254(4) 0.6012(4) 0.3831(4)
C42_8 C 0.8988(4) 0.6169(4) 0.3254(4)
C43_8 C 0.8831(4) 0.6746(4) 0.3988(4)
C46_8 C 0.8542(4) 0.5871(4) 0.3404(5)
C47_8 C 0.9129(4) 0.6596(5) 0.3542(4)
C48_8 C 0.8404(5) 0.6458(4) 0.4129(4)
H9_8 H 0.6206 0.4610 0.4630
H11_8 H 0.9630 0.8794 0.5390
H14_8 H 0.7041 0.4867 0.4322
H16_8 H 0.9322 0.7959 0.5133
H19_8 H 0.6515 0.6391 0.4541
H20_8 H 0.8609 0.5459 0.1515
H21_8 H 0.9541 0.8485 0.3609
H24_8 H 0.5735 0.6063 0.4865
H25_8 H 0.8937 0.5135 0.0735
H26_8 H 0.9865 0.9265 0.3937
H29_8 H 0.8441 0.5571 0.3202
H30_8 H 0.8202 0.6559 0.4429
H31_8 H 0.9429 0.6798 0.3441
H34_8 H 0.7394 0.6247 0.4222
H35_8 H 0.8753 0.5778 0.2394
H36_8 H 0.9222 0.7606 0.3753
O4_9 O 0.1066(5) 0.2188(4) 0.0159(4)
O5_9 O 0.2188(4) 0.0159(4) 0.1066(5)
O6_9 O 0.0159(4) 0.1066(5) 0.2188(4)
N5_4 N 0.0232(3) 0.4118(3) 0.0294(3)
N6_6 N 0.4118(3) 0.0294(3) 0.0232(3)
N7_6 N 0.0294(3) 0.0232(3) 0.4118(3)
N11_6 N 0.0882(3) 0.5294(3) 0.0232(3)
N14_9 N 0.0794(4) 0.2631(4) 0.0900(4)
N15_9 N 0.2631(4) 0.0900(4) 0.0794(4)
N16_9 N 0.0900(4) 0.0794(4) 0.2631(4)
C16_9 C 0.0577(5) 0.3220(4) 0.0118(4)
C17_9 C 0.3220(4) 0.0118(4) 0.0577(5)
C18_9 C 0.0118(4) 0.0577(5) 0.3220(4)
C21_9 C 0.0603(4) 0.3123(4) 0.0672(5)
C22_9 C 0.3123(4) 0.0672(5) 0.0603(4)
C23_9 C 0.0672(5) 0.0603(4) 0.3123(4)
C26_9 C 0.0441(4) 0.3537(4) 0.1019(4)
C27_9 C 0.3537(4) 0.1019(4) 0.0441(4)
C28_9 C 0.1019(4) 0.0441(4) 0.3537(4)
C31_9 C 0.0251(4) 0.4003(4) 0.0820(4)
C32_9 C 0.4003(4) 0.0820(4) 0.0251(4)
C33_9 C 0.0820(4) 0.0251(4) 0.4003(4)
C36_9 C 0.1010(5) 0.2206(5) 0.0647(5)
C37_9 C 0.2206(5) 0.0647(5) 0.1010(5)
C38_9 C 0.0647(5) 0.1010(5) 0.2206(5)
C41_9 C 0.1169(4) 0.1746(4) 0.1012(4)
C42_9 C 0.1746(4) 0.1012(4) 0.1169(4)
C43_9 C 0.1012(4) 0.1169(4) 0.1746(4)
C46_9 C 0.1596(5) 0.1458(4) 0.0871(4)
C47_9 C 0.1458(4) 0.0871(4) 0.1596(5)
C48_9 C 0.0871(4) 0.1596(5) 0.1458(4)
H19_9 H 0.0459 0.3485 0.1391
H20_9 H 0.3485 0.1391 0.0459
H21_9 H 0.1391 0.0459 0.3485
H24_9 H 0.0135 0.4265 0.1063
H25_9 H 0.4265 0.1063 0.0135
H26_9 H 0.1063 0.0135 0.4265
H29_9 H 0.1798 0.1559 0.0571
H30_9 H 0.0571 0.1798 0.1559
H31_9 H 0.1559 0.0571 0.1798
H34_9 H 0.0778 0.2606 0.1247
H35_9 H 0.2606 0.1247 0.0778
H36_9 H 0.1247 0.0778 0.2606
N9_6 N 0.0294(3) 0.4768(3) 0.9118(3)
C11_9 C 0.0386(4) 0.3727(4) 0.9979(5)
H9_9 H 0.0370 0.3794 0.9610
H14_9 H 0.0678 0.2959 0.9867
C12_9 C 0.3727(4) 0.9979(5) 0.0386(4)
H10_9 H 0.3794 0.9610 0.0370
H15_9 H 0.2959 0.9867 0.0678
C13_9 C 0.9979(5) 0.0386(4) 0.3727(4)
H11_9 H 0.9610 0.0370 0.3794
H16_9 H 0.9867 0.0678 0.2959
N10_6 N 0.9768(3) 0.5882(3) 0.9706(3)
N9_7 N 0.0232(3) 0.0882(3) 0.5294(3)
N10_7 N 0.9118(3) 0.0294(3) 0.4768(3)
N11_7 N 0.9706(3) 0.9768(3) 0.5882(3)
N10_8 N 0.5294(3) 0.0232(3) 0.0882(3)
N11_8 N 0.4768(3) 0.9118(3) 0.0294(3)
N9_8 N 0.5882(3) 0.9706(3) 0.9768(3)
O1_4 O 0.4841(4) 0.6066(5) 0.2188(4)
N2_4 N 0.4100(4) 0.5794(4) 0.2631(4)
C1_4 C 0.5021(5) 0.5386(4) 0.3727(4)
C2_4 C 0.4882(4) 0.5577(5) 0.3220(4)
C3_4 C 0.4328(5) 0.5603(4) 0.3123(4)
C4_4 C 0.3981(4) 0.5441(4) 0.3537(4)
C5_4 C 0.4180(4) 0.5251(4) 0.4003(4)
C6_4 C 0.4353(5) 0.6010(5) 0.2206(5)
C7_4 C 0.3988(4) 0.6169(4) 0.1746(4)
C8_4 C 0.4129(4) 0.6596(5) 0.1458(4)
H1_4 H 0.5390 0.5370 0.3794
H2_4 H 0.5133 0.5678 0.2959
H3_4 H 0.3609 0.5459 0.3485
H4_4 H 0.3937 0.5135 0.4265
H5_4 H 0.4429 0.6798 0.1559
H6_4 H 0.3753 0.5778 0.2606
O2_4 O 0.3934(5) 0.7188(4) 0.0159(4)
O3_4 O 0.2812(4) 0.5159(4) 0.1066(5)
O4_10 O 0.6066(5) 0.2188(4) 0.4841(4)
O5_10 O 0.7188(4) 0.0159(4) 0.3934(5)
O6_10 O 0.5159(4) 0.1066(5) 0.2812(4)
N12_4 N 0.4206(4) 0.7631(4) 0.0900(4)
N13_4 N 0.2369(4) 0.5900(4) 0.0794(4)
N14_10 N 0.5794(4) 0.2631(4) 0.4100(4)
N15_10 N 0.7631(4) 0.0900(4) 0.4206(4)
N16_10 N 0.5900(4) 0.0794(4) 0.2369(4)
C10_4 C 0.1273(4) 0.4979(5) 0.0386(4)
C11_10 C 0.5386(4) 0.3727(4) 0.5021(5)
C13_10 C 0.4979(5) 0.0386(4) 0.1273(4)
C14_4 C 0.4423(5) 0.8220(4) 0.0118(4)
C15_4 C 0.1780(4) 0.5118(4) 0.0577(5)
C16_10 C 0.5577(5) 0.3220(4) 0.4882(4)
C17_10 C 0.8220(4) 0.0118(4) 0.4423(5)
C18_10 C 0.5118(4) 0.0577(5) 0.1780(4)
C19_4 C 0.4397(4) 0.8123(4) 0.0672(5)
C20_4 C 0.1877(4) 0.5672(5) 0.0603(4)
C21_10 C 0.5603(4) 0.3123(4) 0.4328(5)
C22_10 C 0.8123(4) 0.0672(5) 0.4397(4)
C23_10 C 0.5672(5) 0.0603(4) 0.1877(4)
C24_4 C 0.4559(4) 0.8537(4) 0.1019(4)
C25_4 C 0.1463(4) 0.6019(4) 0.0441(4)
C26_10 C 0.5441(4) 0.3537(4) 0.3981(4)
C27_10 C 0.8537(4) 0.1019(4) 0.4559(4)
C28_10 C 0.6019(4) 0.0441(4) 0.1463(4)
C29_4 C 0.4749(4) 0.9003(4) 0.0820(4)
C30_4 C 0.0997(4) 0.5820(4) 0.0251(4)
C31_10 C 0.5251(4) 0.4003(4) 0.4180(4)
C32_10 C 0.9003(4) 0.0820(4) 0.4749(4)
C33_10 C 0.5820(4) 0.0251(4) 0.0997(4)
C34_4 C 0.3990(5) 0.7206(5) 0.0647(5)
C35_4 C 0.2794(5) 0.5647(5) 0.1010(5)
C36_10 C 0.6010(5) 0.2206(5) 0.4353(5)
C37_10 C 0.7206(5) 0.0647(5) 0.3990(5)
C38_10 C 0.5647(5) 0.1010(5) 0.2794(5)
C39_4 C 0.3831(4) 0.6746(4) 0.1012(4)
C40_4 C 0.3254(4) 0.6012(4) 0.1169(4)
C41_10 C 0.6169(4) 0.1746(4) 0.3988(4)
C42_10 C 0.6746(4) 0.1012(4) 0.3831(4)
C43_10 C 0.6012(4) 0.1169(4) 0.3254(4)
C44_4 C 0.3404(5) 0.6458(4) 0.0871(4)
C45_4 C 0.3542(4) 0.5871(4) 0.1596(5)
C46_10 C 0.6596(5) 0.1458(4) 0.4129(4)
C47_10 C 0.6458(4) 0.0871(4) 0.3404(5)
C48_10 C 0.5871(4) 0.1596(5) 0.3542(4)
H8_4 H 0.1206 0.4610 0.0370
H9_10 H 0.5370 0.3794 0.5390
H11_10 H 0.4610 0.0370 0.1206
H13_4 H 0.2041 0.4867 0.0678
H14_10 H 0.5678 0.2959 0.5133
H16_10 H 0.4867 0.0678 0.2041
H17_4 H 0.4541 0.8485 0.1391
H18_4 H 0.1515 0.6391 0.0459
H19_10 H 0.5459 0.3485 0.3609
H20_10 H 0.8485 0.1391 0.4541
H21_10 H 0.6391 0.0459 0.1515
H22_4 H 0.4865 0.9265 0.1063
H23_4 H 0.0735 0.6063 0.0135
H24_10 H 0.5135 0.4265 0.3937
H25_10 H 0.9265 0.1063 0.4865
H26_10 H 0.6063 0.0135 0.0735
H27_4 H 0.3441 0.5571 0.1798
H28_4 H 0.3202 0.6559 0.0571
H29_10 H 0.6798 0.1559 0.4429
H30_10 H 0.5571 0.1798 0.3441
H31_10 H 0.6559 0.0571 0.3202
H32_4 H 0.4222 0.7606 0.1247
H33_4 H 0.2394 0.6247 0.0778
H34_10 H 0.5778 0.2606 0.3753
H35_10 H 0.7606 0.1247 0.4222
H36_10 H 0.6247 0.0778 0.2394
C9_4 C 0.4614(4) 0.8727(4) 0.9979(5)
H7_4 H 0.4630 0.8794 0.9610
H12_4 H 0.4322 0.7959 0.9867
C12_10 C 0.8727(4) 0.9979(5) 0.4614(4)
H10_10 H 0.8794 0.9610 0.4630
H15_10 H 0.7959 0.9867 0.4322
O4_11 O 0.2188(4) 0.4841(4) 0.6066(5)
O5_11 O 0.0159(4) 0.3934(5) 0.7188(4)
O6_11 O 0.1066(5) 0.2812(4) 0.5159(4)
N14_11 N 0.2631(4) 0.4100(4) 0.5794(4)
N15_11 N 0.0900(4) 0.4206(4) 0.7631(4)
N16_11 N 0.0794(4) 0.2369(4) 0.5900(4)
C11_11 C 0.3727(4) 0.5021(5) 0.5386(4)
C13_11 C 0.0386(4) 0.1273(4) 0.4979(5)
C16_11 C 0.3220(4) 0.4882(4) 0.5577(5)
C17_11 C 0.0118(4) 0.4423(5) 0.8220(4)
C18_11 C 0.0577(5) 0.1780(4) 0.5118(4)
C21_11 C 0.3123(4) 0.4328(5) 0.5603(4)
C22_11 C 0.0672(5) 0.4397(4) 0.8123(4)
C23_11 C 0.0603(4) 0.1877(4) 0.5672(5)
C26_11 C 0.3537(4) 0.3981(4) 0.5441(4)
C27_11 C 0.1019(4) 0.4559(4) 0.8537(4)
C28_11 C 0.0441(4) 0.1463(4) 0.6019(4)
C31_11 C 0.4003(4) 0.4180(4) 0.5251(4)
C32_11 C 0.0820(4) 0.4749(4) 0.9003(4)
C33_11 C 0.0251(4) 0.0997(4) 0.5820(4)
C36_11 C 0.2206(5) 0.4353(5) 0.6010(5)
C37_11 C 0.0647(5) 0.3990(5) 0.7206(5)
C38_11 C 0.1010(5) 0.2794(5) 0.5647(5)
C41_11 C 0.1746(4) 0.3988(4) 0.6169(4)
C42_11 C 0.1012(4) 0.3831(4) 0.6746(4)
C43_11 C 0.1169(4) 0.3254(4) 0.6012(4)
C46_11 C 0.1458(4) 0.4129(4) 0.6596(5)
C47_11 C 0.0871(4) 0.3404(5) 0.6458(4)
C48_11 C 0.1596(5) 0.3542(4) 0.5871(4)
H9_11 H 0.3794 0.5390 0.5370
H11_11 H 0.0370 0.1206 0.4610
H14_11 H 0.2959 0.5133 0.5678
H16_11 H 0.0678 0.2041 0.4867
H19_11 H 0.3485 0.3609 0.5459
H20_11 H 0.1391 0.4541 0.8485
H21_11 H 0.0459 0.1515 0.6391
H24_11 H 0.4265 0.3937 0.5135
H25_11 H 0.1063 0.4865 0.9265
H26_11 H 0.0135 0.0735 0.6063
H29_11 H 0.1559 0.4429 0.6798
H30_11 H 0.1798 0.3441 0.5571
H31_11 H 0.0571 0.3202 0.6559
H34_11 H 0.2606 0.3753 0.5778
H35_11 H 0.1247 0.4222 0.7606
H36_11 H 0.0778 0.2394 0.6247
C12_11 C 0.9979(5) 0.4614(4) 0.8727(4)
H10_11 H 0.9610 0.4630 0.8794
H15_11 H 0.9867 0.4322 0.7959
C13_12 C 0.0021(5) 0.9614(4) 0.6273(4)
H11_12 H 0.0390 0.9630 0.6206
H16_12 H 0.0133 0.9322 0.7041
C12_12 C 0.6273(4) 0.0021(5) 0.9614(4)
H10_12 H 0.6206 0.0390 0.9630
H15_12 H 0.7041 0.0133 0.9322
C11_12 C 0.9614(4) 0.6273(4) 0.0021(5)
H9_12 H 0.9630 0.6206 0.0390
H14_12 H 0.9322 0.7041 0.0133
O4_12 O 0.8934(5) 0.7812(4) 0.9841(4)
O5_12 O 0.7812(4) 0.9841(4) 0.8934(5)
O6_12 O 0.9841(4) 0.8934(5) 0.7812(4)
N14_12 N 0.9206(4) 0.7369(4) 0.9100(4)
N15_12 N 0.7369(4) 0.9100(4) 0.9206(4)
N16_12 N 0.9100(4) 0.9206(4) 0.7369(4)
C16_12 C 0.9423(5) 0.6780(4) 0.9882(4)
C17_12 C 0.6780(4) 0.9882(4) 0.9423(5)
C18_12 C 0.9882(4) 0.9423(5) 0.6780(4)
C21_12 C 0.9397(4) 0.6877(4) 0.9328(5)
C22_12 C 0.6877(4) 0.9328(5) 0.9397(4)
C23_12 C 0.9328(5) 0.9397(4) 0.6877(4)
C26_12 C 0.9559(4) 0.6463(4) 0.8981(4)
C27_12 C 0.6463(4) 0.8981(4) 0.9559(4)
C28_12 C 0.8981(4) 0.9559(4) 0.6463(4)
C31_12 C 0.9749(4) 0.5997(4) 0.9180(4)
C32_12 C 0.5997(4) 0.9180(4) 0.9749(4)
C33_12 C 0.9180(4) 0.9749(4) 0.5997(4)
C36_12 C 0.8990(5) 0.7794(5) 0.9353(5)
C37_12 C 0.7794(5) 0.9353(5) 0.8990(5)
C38_12 C 0.9353(5) 0.8990(5) 0.7794(5)
C41_12 C 0.8831(4) 0.8254(4) 0.8988(4)
C42_12 C 0.8254(4) 0.8988(4) 0.8831(4)
C43_12 C 0.8988(4) 0.8831(4) 0.8254(4)
C46_12 C 0.8404(5) 0.8542(4) 0.9129(4)
C47_12 C 0.8542(4) 0.9129(4) 0.8404(5)
C48_12 C 0.9129(4) 0.8404(5) 0.8542(4)
H19_12 H 0.9541 0.6515 0.8609
H20_12 H 0.6515 0.8609 0.9541
H21_12 H 0.8609 0.9541 0.6515
H24_12 H 0.9865 0.5735 0.8937
H25_12 H 0.5735 0.8937 0.9865
H26_12 H 0.8937 0.9865 0.5735
H29_12 H 0.8202 0.8441 0.9429
H30_12 H 0.9429 0.8202 0.8441
H31_12 H 0.8441 0.9429 0.8202
H34_12 H 0.9222 0.7394 0.8753
H35_12 H 0.7394 0.8753 0.9222
H36_12 H 0.8753 0.9222 0.7394
loop_
_geom_bond_atom_site_label_1
_geom_bond_atom_site_label_2
_geom_bond_site_symmetry_1
_geom_bond_site_symmetry_2
H8 C10 1_555 1_555
H11 C13 1_555 1_555
N8 Cd1_2 1_555 1_555
Cd1_3 N1 1_555 1_555
O1 C6 1_555 1_555
N2 C3 1_555 1_555
C2 C3 1_555 1_555
C3 C4 1_555 1_555
C4 C5 1_555 1_555
C5 N1 1_555 1_555
C6 N2 1_555 1_555
C7 C6 1_555 1_555
C8 C7 1_555 1_555
H3 C4 1_555 1_555
H4 C5 1_555 1_555
H5 C8 1_555 1_555
H6 N2 1_555 1_555
Cd5 N3 1_555 1_555
Cd3_2 N4 1_555 1_555
O2 C34 1_555 1_555
O3 C35 1_555 1_555
N3 C9 1_555 1_555
N12 C19 1_555 1_555
N13 C20 1_555 1_555
C9 C14 1_555 1_555
C14 C19 1_555 1_555
C15 C20 1_555 1_555
C19 C24 1_555 1_555
C20 C25 1_555 1_555
C24 C29 1_555 1_555
C25 C30 1_555 1_555
C29 N3 1_555 1_555
C30 N4 1_555 1_555
C34 N12 1_555 1_555
C35 N13 1_555 1_555
C39 C8 1_555 1_555
C40 C35 1_555 1_555
C44 C39 1_555 1_555
C45 C7 1_555 1_555
H7 C9 1_555 1_555
H12 C14 1_555 1_555
H17 C24 1_555 1_555
H18 C25 1_555 1_555
H22 C29 1_555 1_555
H23 C30 1_555 1_555
H27 C45 1_555 1_555
H28 C44 1_555 1_555
H32 N12 1_555 1_555
H33 N13 1_555 1_555
C34 C39 1_555 1_555
C40 C44 1_555 1_555
C40 C45 1_555 1_555
N10 Cd1_4 1_555 1_555
Cd4 N6 1_555 1_555
Cd5_2 N7 1_555 1_555
O4 C36 1_555 1_555
O5 C37 1_555 1_555
O6 C38 1_555 1_555
N5 Cd1_5 1_555 1_555
N6 C12 1_555 1_555
N14 C21 1_555 1_555
N15 C22 1_555 1_555
N16 C23 1_555 1_555
C12 C17 1_555 1_555
C17 C22 1_555 1_555
C18 C23 1_555 1_555
C21 C16 1_555 1_555
C22 C27 1_555 1_555
C23 C28 1_555 1_555
C26 C21 1_555 1_555
C27 C32 1_555 1_555
C28 C33 1_555 1_555
C31 N5 1_555 1_555
C32 N6 1_555 1_555
C33 N7 1_555 1_555
C36 N14 1_555 1_555
C37 N15 1_555 1_555
C38 N16 1_555 1_555
C41 C36 1_555 1_555
C42 C37 1_555 1_555
C43 C38 1_555 1_555
C46 C41 1_555 1_555
C47 C42 1_555 1_555
C48 C41 1_555 1_555
H10 C12 1_555 1_555
H15 C17 1_555 1_555
H19 C26 1_555 1_555
H20 C27 1_555 1_555
H21 C28 1_555 1_555
H24 C31 1_555 1_555
H25 C32 1_555 1_555
H26 C33 1_555 1_555
H29 C46 1_555 1_555
H30 C48 1_555 1_555
H31 C47 1_555 1_555
H34 N14 1_555 1_555
H35 N15 1_555 1_555
H36 N16 1_555 1_555
C26 C31 1_555 1_555
C42 C46 1_555 1_555
C43 C47 1_555 1_555
C43 C48 1_555 1_555
N9 Cd1_6 1_555 1_555
H9 C11 1_555 1_555
H1 C1 1_555 1_555
N11 Cd1_7 1_555 1_555
H11_2 C13_2 1_555 1_555
Cd3 N6_2 1_555 1_555
Cd4_2 N7_2 1_555 1_555
O4_2 C36_2 1_555 1_555
O5_2 C37_2 1_555 1_555
O6_2 C38_2 1_555 1_555
N6_2 C12_2 1_555 1_555
N14_2 C21_2 1_555 1_555
N15_2 C22_2 1_555 1_555
N16_2 C23_2 1_555 1_555
C12_2 C17_2 1_555 1_555
C17_2 C22_2 1_555 1_555
C18_2 C23_2 1_555 1_555
C21_2 C16_2 1_555 1_555
C22_2 C27_2 1_555 1_555
C23_2 C28_2 1_555 1_555
C26_2 C21_2 1_555 1_555
C27_2 C32_2 1_555 1_555
C28_2 C33_2 1_555 1_555
C31_2 N8 1_555 1_555
C32_2 N6_2 1_555 1_555
C33_2 N7_2 1_555 1_555
C36_2 N14_2 1_555 1_555
C37_2 N15_2 1_555 1_555
C38_2 N16_2 1_555 1_555
C41_2 C36_2 1_555 1_555
C42_2 C37_2 1_555 1_555
C43_2 C38_2 1_555 1_555
C46_2 C41_2 1_555 1_555
C47_2 C42_2 1_555 1_555
C48_2 C41_2 1_555 1_555
H10_2 C12_2 1_555 1_555
H15_2 C17_2 1_555 1_555
H19_2 C26_2 1_555 1_555
H20_2 C27_2 1_555 1_555
H21_2 C28_2 1_555 1_555
H24_2 C31_2 1_555 1_555
H25_2 C32_2 1_555 1_555
H26_2 C33_2 1_555 1_555
H29_2 C46_2 1_555 1_555
H30_2 C48_2 1_555 1_555
H31_2 C47_2 1_555 1_555
H34_2 N14_2 1_555 1_555
H35_2 N15_2 1_555 1_555
H36_2 N16_2 1_555 1_555
C26_2 C31_2 1_555 1_555
C42_2 C46_2 1_555 1_555
C43_2 C47_2 1_555 1_555
C43_2 C48_2 1_555 1_555
H9_2 C11_2 1_555 1_555
N10_2 Cd3 1_555 1_555
N11_2 Cd3 1_555 1_555
Cd5_2 N6_3 1_555 1_555
Cd4_2 N7_3 1_555 1_555
O4_3 C36_3 1_555 1_555
O5_3 C37_3 1_555 1_555
O6_3 C38_3 1_555 1_555
N5_2 Cd3_2 1_555 1_555
N6_3 C12_3 1_555 1_555
N7_3 C13_3 1_555 1_555
N9_2 Cd3_2 1_555 1_555
N14_3 C21_3 1_555 1_555
N15_3 C22_3 1_555 1_555
N16_3 C23_3 1_555 1_555
C11_3 N5_2 1_555 1_555
C12_3 C17_3 1_555 1_555
C13_3 C18_3 1_555 1_555
C16_3 C11_3 1_555 1_555
C17_3 C22_3 1_555 1_555
C18_3 C23_3 1_555 1_555
C21_3 C16_3 1_555 1_555
C22_3 C27_3 1_555 1_555
C23_3 C28_3 1_555 1_555
C26_3 C21_3 1_555 1_555
C27_3 C32_3 1_555 1_555
C28_3 C33_3 1_555 1_555
C31_3 N5_2 1_555 1_555
C32_3 N6_3 1_555 1_555
C33_3 N7_3 1_555 1_555
C36_3 N14_3 1_555 1_555
C37_3 N15_3 1_555 1_555
C38_3 N16_3 1_555 1_555
C41_3 C36_3 1_555 1_555
C42_3 C37_3 1_555 1_555
C43_3 C38_3 1_555 1_555
C46_3 C41_3 1_555 1_555
C47_3 C42_3 1_555 1_555
C48_3 C41_3 1_555 1_555
H9_3 C11_3 1_555 1_555
H10_3 C12_3 1_555 1_555
H11_3 C13_3 1_555 1_555
H14_3 C16_3 1_555 1_555
H15_3 C17_3 1_555 1_555
H16_3 C18_3 1_555 1_555
H19_3 C26_3 1_555 1_555
H20_3 C27_3 1_555 1_555
H21_3 C28_3 1_555 1_555
H24_3 C31_3 1_555 1_555
H25_3 C32_3 1_555 1_555
H26_3 C33_3 1_555 1_555
H29_3 C46_3 1_555 1_555
H30_3 C48_3 1_555 1_555
H31_3 C47_3 1_555 1_555
H34_3 N14_3 1_555 1_555
H35_3 N15_3 1_555 1_555
H36_3 N16_3 1_555 1_555
C26_3 C31_3 1_555 1_555
C42_3 C46_3 1_555 1_555
C43_3 C47_3 1_555 1_555
C43_3 C48_3 1_555 1_555
N9_3 Cd4 1_555 1_555
N11_3 Cd4 1_555 1_555
N10_3 Cd4_2 1_555 1_555
N9_4 Cd5 1_555 1_555
N10_4 Cd5 1_555 1_555
N11_4 Cd5_2 1_555 1_555
H1_2 C1_2 1_555 1_555
H9_4 C11_4 1_555 1_555
O4_4 C36_4 1_555 1_555
O5_4 C37_4 1_555 1_555
O6_4 C38_4 1_555 1_555
N10_3 C12_4 1_555 1_555
N14_4 C21_4 1_555 1_555
N15_4 C22_4 1_555 1_555
N16_4 C23_4 1_555 1_555
C12_4 C17_4 1_555 1_555
C17_4 C22_4 1_555 1_555
C18_4 C23_4 1_555 1_555
C21_4 C16_4 1_555 1_555
C22_4 C27_4 1_555 1_555
C23_4 C28_4 1_555 1_555
C26_4 C21_4 1_555 1_555
C27_4 C32_4 1_555 1_555
C28_4 C33_4 1_555 1_555
C31_4 N10 1_555 1_555
C32_4 N10_3 1_555 1_555
C33_4 N10_4 1_555 1_555
C36_4 N14_4 1_555 1_555
C37_4 N15_4 1_555 1_555
C38_4 N16_4 1_555 1_555
C41_4 C36_4 1_555 1_555
C42_4 C37_4 1_555 1_555
C43_4 C38_4 1_555 1_555
C46_4 C41_4 1_555 1_555
C47_4 C42_4 1_555 1_555
C48_4 C41_4 1_555 1_555
H10_4 C12_4 1_555 1_555
H15_4 C17_4 1_555 1_555
H19_4 C26_4 1_555 1_555
H20_4 C27_4 1_555 1_555
H21_4 C28_4 1_555 1_555
H24_4 C31_4 1_555 1_555
H25_4 C32_4 1_555 1_555
H26_4 C33_4 1_555 1_555
H29_4 C46_4 1_555 1_555
H30_4 C48_4 1_555 1_555
H31_4 C47_4 1_555 1_555
H34_4 N14_4 1_555 1_555
H35_4 N15_4 1_555 1_555
H36_4 N16_4 1_555 1_555
C26_4 C31_4 1_555 1_555
C42_4 C46_4 1_555 1_555
C43_4 C47_4 1_555 1_555
C43_4 C48_4 1_555 1_555
O1_2 C6_2 1_555 1_555
N2_2 C3_2 1_555 1_555
C2_2 C3_2 1_555 1_555
C3_2 C4_2 1_555 1_555
C4_2 C5_2 1_555 1_555
C5_2 N9 1_555 1_555
C6_2 N2_2 1_555 1_555
C7_2 C6_2 1_555 1_555
C8_2 C7_2 1_555 1_555
H3_2 C4_2 1_555 1_555
H4_2 C5_2 1_555 1_555
H5_2 C8_2 1_555 1_555
H6_2 N2_2 1_555 1_555
O2_2 C34_2 1_555 1_555
O3_2 C35_2 1_555 1_555
N11_4 C9_2 1_555 1_555
N12_2 C19_2 1_555 1_555
N13_2 C20_2 1_555 1_555
C9_2 C14_2 1_555 1_555
C14_2 C19_2 1_555 1_555
C15_2 C20_2 1_555 1_555
C19_2 C24_2 1_555 1_555
C20_2 C25_2 1_555 1_555
C24_2 C29_2 1_555 1_555
C25_2 C30_2 1_555 1_555
C29_2 N11_4 1_555 1_555
C30_2 N11_2 1_555 1_555
C34_2 N12_2 1_555 1_555
C35_2 N13_2 1_555 1_555
C39_2 C8_2 1_555 1_555
C40_2 C35_2 1_555 1_555
C44_2 C39_2 1_555 1_555
C45_2 C7_2 1_555 1_555
H7_2 C9_2 1_555 1_555
H12_2 C14_2 1_555 1_555
H17_2 C24_2 1_555 1_555
H18_2 C25_2 1_555 1_555
H22_2 C29_2 1_555 1_555
H23_2 C30_2 1_555 1_555
H27_2 C45_2 1_555 1_555
H28_2 C44_2 1_555 1_555
H32_2 N12_2 1_555 1_555
H33_2 N13_2 1_555 1_555
C34_2 C39_2 1_555 1_555
C40_2 C44_2 1_555 1_555
C40_2 C45_2 1_555 1_555
H8_2 C10_2 1_555 1_555
H11_4 C13_4 1_555 1_555
H9_5 C11_5 1_555 1_555
O4_5 C36_5 1_555 1_555
O5_5 C37_5 1_555 1_555
O6_5 C38_5 1_555 1_555
N9_2 C12_5 1_555 1_555
N14_5 C21_5 1_555 1_555
N15_5 C22_5 1_555 1_555
N16_5 C23_5 1_555 1_555
C12_5 C17_5 1_555 1_555
C17_5 C22_5 1_555 1_555
C18_5 C23_5 1_555 1_555
C21_5 C16_5 1_555 1_555
C22_5 C27_5 1_555 1_555
C23_5 C28_5 1_555 1_555
C26_5 C21_5 1_555 1_555
C27_5 C32_5 1_555 1_555
C28_5 C33_5 1_555 1_555
C31_5 N11 1_555 1_555
C32_5 N9_2 1_555 1_555
C33_5 N9_3 1_555 1_555
C36_5 N14_5 1_555 1_555
C37_5 N15_5 1_555 1_555
C38_5 N16_5 1_555 1_555
C41_5 C36_5 1_555 1_555
C42_5 C37_5 1_555 1_555
C43_5 C38_5 1_555 1_555
C46_5 C41_5 1_555 1_555
C47_5 C42_5 1_555 1_555
C48_5 C41_5 1_555 1_555
H10_5 C12_5 1_555 1_555
H15_5 C17_5 1_555 1_555
H19_5 C26_5 1_555 1_555
H20_5 C27_5 1_555 1_555
H21_5 C28_5 1_555 1_555
H24_5 C31_5 1_555 1_555
H25_5 C32_5 1_555 1_555
H26_5 C33_5 1_555 1_555
H29_5 C46_5 1_555 1_555
H30_5 C48_5 1_555 1_555
H31_5 C47_5 1_555 1_555
H34_5 N14_5 1_555 1_555
H35_5 N15_5 1_555 1_555
H36_5 N16_5 1_555 1_555
C26_5 C31_5 1_555 1_555
C42_5 C46_5 1_555 1_555
C43_5 C47_5 1_555 1_555
C43_5 C48_5 1_555 1_555
H11_5 C13_5 1_555 1_555
O4_6 C36_6 1_555 1_555
O5_6 C37_6 1_555 1_555
O6_6 C38_6 1_555 1_555
N9_4 C12_6 1_555 1_555
N11_3 C13_6 1_555 1_555
N14_6 C21_6 1_555 1_555
N15_6 C22_6 1_555 1_555
N16_6 C23_6 1_555 1_555
C11_6 N10_2 1_555 1_555
C12_6 C17_6 1_555 1_555
C13_6 C18_6 1_555 1_555
C16_6 C11_6 1_555 1_555
C17_6 C22_6 1_555 1_555
C18_6 C23_6 1_555 1_555
C21_6 C16_6 1_555 1_555
C22_6 C27_6 1_555 1_555
C23_6 C28_6 1_555 1_555
C26_6 C21_6 1_555 1_555
C27_6 C32_6 1_555 1_555
C28_6 C33_6 1_555 1_555
C31_6 N10_2 1_555 1_555
C32_6 N9_4 1_555 1_555
C33_6 N11_3 1_555 1_555
C36_6 N14_6 1_555 1_555
C37_6 N15_6 1_555 1_555
C38_6 N16_6 1_555 1_555
C41_6 C36_6 1_555 1_555
C42_6 C37_6 1_555 1_555
C43_6 C38_6 1_555 1_555
C46_6 C41_6 1_555 1_555
C47_6 C42_6 1_555 1_555
C48_6 C41_6 1_555 1_555
H9_6 C11_6 1_555 1_555
H10_6 C12_6 1_555 1_555
H11_6 C13_6 1_555 1_555
H14_6 C16_6 1_555 1_555
H15_6 C17_6 1_555 1_555
H16_6 C18_6 1_555 1_555
H19_6 C26_6 1_555 1_555
H20_6 C27_6 1_555 1_555
H21_6 C28_6 1_555 1_555
H24_6 C31_6 1_555 1_555
H25_6 C32_6 1_555 1_555
H26_6 C33_6 1_555 1_555
H29_6 C46_6 1_555 1_555
H30_6 C48_6 1_555 1_555
H31_6 C47_6 1_555 1_555
H34_6 N14_6 1_555 1_555
H35_6 N15_6 1_555 1_555
H36_6 N16_6 1_555 1_555
C26_6 C31_6 1_555 1_555
C42_6 C46_6 1_555 1_555
C43_6 C47_6 1_555 1_555
C43_6 C48_6 1_555 1_555
H10_7 C12_7 1_555 1_555
H7_3 C9_3 1_555 1_555
Cd1_9 N1_2 1_555 1_555
O1_3 C6_3 1_555 1_555
N1_2 C1_3 1_555 1_555
N2_3 C3_3 1_555 1_555
C1_3 C2_3 1_555 1_555
C2_3 C3_3 1_555 1_555
C3_3 C4_3 1_555 1_555
C4_3 C5_3 1_555 1_555
C5_3 N1_2 1_555 1_555
C6_3 N2_3 1_555 1_555
C7_3 C6_3 1_555 1_555
C8_3 C7_3 1_555 1_555
H1_3 C1_3 1_555 1_555
H2_3 C2_3 1_555 1_555
H3_3 C4_3 1_555 1_555
H4_3 C5_3 1_555 1_555
H5_3 C8_3 1_555 1_555
H6_3 N2_3 1_555 1_555
Cd5_4 N3_2 1_555 1_555
Cd3_6 N4_2 1_555 1_555
Cd4_4 N6_4 1_555 1_555
Cd5_6 N7_4 1_555 1_555
O2_3 C34_3 1_555 1_555
O3_3 C35_3 1_555 1_555
O4_7 C36_7 1_555 1_555
O5_7 C37_7 1_555 1_555
O6_7 C38_7 1_555 1_555
N4_2 C10_3 1_555 1_555
N5_3 Cd1_9 1_555 1_555
N7_4 C13_7 1_555 1_555
N8_2 Cd1_9 1_555 1_555
N9_5 Cd1_9 1_555 1_555
N10_5 Cd1_9 1_555 1_555
N11_5 Cd1_9 1_555 1_555
N12_3 C19_3 1_555 1_555
N13_3 C20_3 1_555 1_555
N14_7 C21_7 1_555 1_555
N15_7 C22_7 1_555 1_555
N16_7 C23_7 1_555 1_555
C10_3 C15_3 1_555 1_555
C11_7 N5_3 1_555 1_555
C13_7 C18_7 1_555 1_555
C14_3 C19_3 1_555 1_555
C15_3 C20_3 1_555 1_555
C16_7 C11_7 1_555 1_555
C17_7 C22_7 1_555 1_555
C18_7 C23_7 1_555 1_555
C19_3 C24_3 1_555 1_555
C20_3 C25_3 1_555 1_555
C21_7 C16_7 1_555 1_555
C22_7 C27_7 1_555 1_555
C23_7 C28_7 1_555 1_555
C24_3 C29_3 1_555 1_555
C25_3 C30_3 1_555 1_555
C26_7 C21_7 1_555 1_555
C27_7 C32_7 1_555 1_555
C28_7 C33_7 1_555 1_555
C29_3 N3_2 1_555 1_555
C30_3 N4_2 1_555 1_555
C31_7 N5_3 1_555 1_555
C32_7 N6_4 1_555 1_555
C33_7 N7_4 1_555 1_555
C34_3 N12_3 1_555 1_555
C35_3 N13_3 1_555 1_555
C36_7 N14_7 1_555 1_555
C37_7 N15_7 1_555 1_555
C38_7 N16_7 1_555 1_555
C39_3 C8_3 1_555 1_555
C40_3 C35_3 1_555 1_555
C41_7 C36_7 1_555 1_555
C42_7 C37_7 1_555 1_555
C43_7 C38_7 1_555 1_555
C44_3 C39_3 1_555 1_555
C45_3 C7_3 1_555 1_555
C46_7 C41_7 1_555 1_555
C47_7 C42_7 1_555 1_555
C48_7 C41_7 1_555 1_555
H8_3 C10_3 1_555 1_555
H9_7 C11_7 1_555 1_555
H11_7 C13_7 1_555 1_555
H13_3 C15_3 1_555 1_555
H14_7 C16_7 1_555 1_555
H16_7 C18_7 1_555 1_555
H17_3 C24_3 1_555 1_555
H18_3 C25_3 1_555 1_555
H19_7 C26_7 1_555 1_555
H20_7 C27_7 1_555 1_555
H21_7 C28_7 1_555 1_555
H22_3 C29_3 1_555 1_555
H23_3 C30_3 1_555 1_555
H24_7 C31_7 1_555 1_555
H25_7 C32_7 1_555 1_555
H26_7 C33_7 1_555 1_555
H27_3 C45_3 1_555 1_555
H28_3 C44_3 1_555 1_555
H29_7 C46_7 1_555 1_555
H30_7 C48_7 1_555 1_555
H31_7 C47_7 1_555 1_555
H32_3 N12_3 1_555 1_555
H33_3 N13_3 1_555 1_555
H34_7 N14_7 1_555 1_555
H35_7 N15_7 1_555 1_555
H36_7 N16_7 1_555 1_555
C26_7 C31_7 1_555 1_555
C34_3 C39_3 1_555 1_555
C40_3 C44_3 1_555 1_555
C40_3 C45_3 1_555 1_555
C42_7 C46_7 1_555 1_555
C43_7 C47_7 1_555 1_555
C43_7 C48_7 1_555 1_555
H10_8 C12_8 1_555 1_555
Cd3_5 N6_5 1_555 1_555
Cd4_6 N7_5 1_555 1_555
O4_8 C36_8 1_555 1_555
O5_8 C37_8 1_555 1_555
O6_8 C38_8 1_555 1_555
N7_5 C13_8 1_555 1_555
N14_8 C21_8 1_555 1_555
N15_8 C22_8 1_555 1_555
N16_8 C23_8 1_555 1_555
C11_8 N8_2 1_555 1_555
C13_8 C18_8 1_555 1_555
C16_8 C11_8 1_555 1_555
C17_8 C22_8 1_555 1_555
C18_8 C23_8 1_555 1_555
C21_8 C16_8 1_555 1_555
C22_8 C27_8 1_555 1_555
C23_8 C28_8 1_555 1_555
C26_8 C21_8 1_555 1_555
C27_8 C32_8 1_555 1_555
C28_8 C33_8 1_555 1_555
C31_8 N8_2 1_555 1_555
C32_8 N6_5 1_555 1_555
C33_8 N7_5 1_555 1_555
C36_8 N14_8 1_555 1_555
C37_8 N15_8 1_555 1_555
C38_8 N16_8 1_555 1_555
C41_8 C36_8 1_555 1_555
C42_8 C37_8 1_555 1_555
C43_8 C38_8 1_555 1_555
C46_8 C41_8 1_555 1_555
C47_8 C42_8 1_555 1_555
C48_8 C41_8 1_555 1_555
H9_8 C11_8 1_555 1_555
H11_8 C13_8 1_555 1_555
H14_8 C16_8 1_555 1_555
H16_8 C18_8 1_555 1_555
H19_8 C26_8 1_555 1_555
H20_8 C27_8 1_555 1_555
H21_8 C28_8 1_555 1_555
H24_8 C31_8 1_555 1_555
H25_8 C32_8 1_555 1_555
H26_8 C33_8 1_555 1_555
H29_8 C46_8 1_555 1_555
H30_8 C48_8 1_555 1_555
H31_8 C47_8 1_555 1_555
H34_8 N14_8 1_555 1_555
H35_8 N15_8 1_555 1_555
H36_8 N16_8 1_555 1_555
C26_8 C31_8 1_555 1_555
C42_8 C46_8 1_555 1_555
C43_8 C47_8 1_555 1_555
C43_8 C48_8 1_555 1_555
Cd5_3 N6_6 1_555 1_555
Cd4_3 N7_6 1_555 1_555
O4_9 C36_9 1_555 1_555
O5_9 C37_9 1_555 1_555
O6_9 C38_9 1_555 1_555
N5_4 Cd3_3 1_555 1_555
N11_6 Cd3_3 1_555 1_555
N14_9 C21_9 1_555 1_555
N15_9 C22_9 1_555 1_555
N16_9 C23_9 1_555 1_555
C17_9 C22_9 1_555 1_555
C18_9 C23_9 1_555 1_555
C21_9 C16_9 1_555 1_555
C22_9 C27_9 1_555 1_555
C23_9 C28_9 1_555 1_555
C26_9 C21_9 1_555 1_555
C27_9 C32_9 1_555 1_555
C28_9 C33_9 1_555 1_555
C31_9 N5_4 1_555 1_555
C32_9 N6_6 1_555 1_555
C33_9 N7_6 1_555 1_555
C36_9 N14_9 1_555 1_555
C37_9 N15_9 1_555 1_555
C38_9 N16_9 1_555 1_555
C41_9 C36_9 1_555 1_555
C42_9 C37_9 1_555 1_555
C43_9 C38_9 1_555 1_555
C46_9 C41_9 1_555 1_555
C47_9 C42_9 1_555 1_555
C48_9 C41_9 1_555 1_555
H19_9 C26_9 1_555 1_555
H20_9 C27_9 1_555 1_555
H21_9 C28_9 1_555 1_555
H24_9 C31_9 1_555 1_555
H25_9 C32_9 1_555 1_555
H26_9 C33_9 1_555 1_555
H29_9 C46_9 1_555 1_555
H30_9 C48_9 1_555 1_555
H31_9 C47_9 1_555 1_555
H34_9 N14_9 1_555 1_555
H35_9 N15_9 1_555 1_555
H36_9 N16_9 1_555 1_555
C26_9 C31_9 1_555 1_555
C42_9 C46_9 1_555 1_555
C43_9 C47_9 1_555 1_555
C43_9 C48_9 1_555 1_555
N9_6 Cd3_4 1_555 1_555
H9_9 C11_9 1_555 1_555
H10_9 C12_9 1_555 1_555
H11_9 C13_9 1_555 1_555
N10_6 Cd3_6 1_555 1_555
N9_7 Cd4_3 1_555 1_555
N10_7 Cd4_5 1_555 1_555
N11_7 Cd4_6 1_555 1_555
N10_8 Cd5_3 1_555 1_555
N11_8 Cd5_5 1_555 1_555
N9_8 Cd5_6 1_555 1_555
O1_4 C6_4 1_555 1_555
N9_5 C1_4 1_555 1_555
N2_4 C3_4 1_555 1_555
C1_4 C2_4 1_555 1_555
C2_4 C3_4 1_555 1_555
C3_4 C4_4 1_555 1_555
C4_4 C5_4 1_555 1_555
C5_4 N9_5 1_555 1_555
C6_4 N2_4 1_555 1_555
C7_4 C6_4 1_555 1_555
C8_4 C7_4 1_555 1_555
H1_4 C1_4 1_555 1_555
H2_4 C2_4 1_555 1_555
H3_4 C4_4 1_555 1_555
H4_4 C5_4 1_555 1_555
H5_4 C8_4 1_555 1_555
H6_4 N2_4 1_555 1_555
O2_4 C34_4 1_555 1_555
O3_4 C35_4 1_555 1_555
O4_10 C36_10 1_555 1_555
O5_10 C37_10 1_555 1_555
O6_10 C38_10 1_555 1_555
N11_6 C10_4 1_555 1_555
N10_8 C13_10 1_555 1_555
N12_4 C19_4 1_555 1_555
N13_4 C20_4 1_555 1_555
N14_10 C21_10 1_555 1_555
N15_10 C22_10 1_555 1_555
N16_10 C23_10 1_555 1_555
C10_4 C15_4 1_555 1_555
C11_10 N10_5 1_555 1_555
C13_10 C18_10 1_555 1_555
C14_4 C19_4 1_555 1_555
C15_4 C20_4 1_555 1_555
C16_10 C11_10 1_555 1_555
C17_10 C22_10 1_555 1_555
C18_10 C23_10 1_555 1_555
C19_4 C24_4 1_555 1_555
C20_4 C25_4 1_555 1_555
C21_10 C16_10 1_555 1_555
C22_10 C27_10 1_555 1_555
C23_10 C28_10 1_555 1_555
C24_4 C29_4 1_555 1_555
C25_4 C30_4 1_555 1_555
C26_10 C21_10 1_555 1_555
C27_10 C32_10 1_555 1_555
C28_10 C33_10 1_555 1_555
C29_4 N11_8 1_555 1_555
C30_4 N11_6 1_555 1_555
C31_10 N10_5 1_555 1_555
C32_10 N10_7 1_555 1_555
C33_10 N10_8 1_555 1_555
C34_4 N12_4 1_555 1_555
C35_4 N13_4 1_555 1_555
C36_10 N14_10 1_555 1_555
C37_10 N15_10 1_555 1_555
C38_10 N16_10 1_555 1_555
C39_4 C8_4 1_555 1_555
C40_4 C35_4 1_555 1_555
C41_10 C36_10 1_555 1_555
C42_10 C37_10 1_555 1_555
C43_10 C38_10 1_555 1_555
C44_4 C39_4 1_555 1_555
C45_4 C7_4 1_555 1_555
C46_10 C41_10 1_555 1_555
C47_10 C42_10 1_555 1_555
C48_10 C41_10 1_555 1_555
H8_4 C10_4 1_555 1_555
H9_10 C11_10 1_555 1_555
H11_10 C13_10 1_555 1_555
H13_4 C15_4 1_555 1_555
H14_10 C16_10 1_555 1_555
H16_10 C18_10 1_555 1_555
H17_4 C24_4 1_555 1_555
H18_4 C25_4 1_555 1_555
H19_10 C26_10 1_555 1_555
H20_10 C27_10 1_555 1_555
H21_10 C28_10 1_555 1_555
H22_4 C29_4 1_555 1_555
H23_4 C30_4 1_555 1_555
H24_10 C31_10 1_555 1_555
H25_10 C32_10 1_555 1_555
H26_10 C33_10 1_555 1_555
H27_4 C45_4 1_555 1_555
H28_4 C44_4 1_555 1_555
H29_10 C46_10 1_555 1_555
H30_10 C48_10 1_555 1_555
H31_10 C47_10 1_555 1_555
H32_4 N12_4 1_555 1_555
H33_4 N13_4 1_555 1_555
H34_10 N14_10 1_555 1_555
H35_10 N15_10 1_555 1_555
H36_10 N16_10 1_555 1_555
C26_10 C31_10 1_555 1_555
C34_4 C39_4 1_555 1_555
C40_4 C44_4 1_555 1_555
C40_4 C45_4 1_555 1_555
C42_10 C46_10 1_555 1_555
C43_10 C47_10 1_555 1_555
C43_10 C48_10 1_555 1_555
H7_4 C9_4 1_555 1_555
H10_10 C12_10 1_555 1_555
O4_11 C36_11 1_555 1_555
O5_11 C37_11 1_555 1_555
O6_11 C38_11 1_555 1_555
N9_7 C13_11 1_555 1_555
N14_11 C21_11 1_555 1_555
N15_11 C22_11 1_555 1_555
N16_11 C23_11 1_555 1_555
C11_11 N11_5 1_555 1_555
C13_11 C18_11 1_555 1_555
C16_11 C11_11 1_555 1_555
C17_11 C22_11 1_555 1_555
C18_11 C23_11 1_555 1_555
C21_11 C16_11 1_555 1_555
C22_11 C27_11 1_555 1_555
C23_11 C28_11 1_555 1_555
C26_11 C21_11 1_555 1_555
C27_11 C32_11 1_555 1_555
C28_11 C33_11 1_555 1_555
C31_11 N11_5 1_555 1_555
C32_11 N9_6 1_555 1_555
C33_11 N9_7 1_555 1_555
C36_11 N14_11 1_555 1_555
C37_11 N15_11 1_555 1_555
C38_11 N16_11 1_555 1_555
C41_11 C36_11 1_555 1_555
C42_11 C37_11 1_555 1_555
C43_11 C38_11 1_555 1_555
C46_11 C41_11 1_555 1_555
C47_11 C42_11 1_555 1_555
C48_11 C41_11 1_555 1_555
H9_11 C11_11 1_555 1_555
H11_11 C13_11 1_555 1_555
H14_11 C16_11 1_555 1_555
H16_11 C18_11 1_555 1_555
H19_11 C26_11 1_555 1_555
H20_11 C27_11 1_555 1_555
H21_11 C28_11 1_555 1_555
H24_11 C31_11 1_555 1_555
H25_11 C32_11 1_555 1_555
H26_11 C33_11 1_555 1_555
H29_11 C46_11 1_555 1_555
H30_11 C48_11 1_555 1_555
H31_11 C47_11 1_555 1_555
H34_11 N14_11 1_555 1_555
H35_11 N15_11 1_555 1_555
H36_11 N16_11 1_555 1_555
C26_11 C31_11 1_555 1_555
C42_11 C46_11 1_555 1_555
C43_11 C47_11 1_555 1_555
C43_11 C48_11 1_555 1_555
H10_11 C12_11 1_555 1_555
H11_12 C13_12 1_555 1_555
H10_12 C12_12 1_555 1_555
H9_12 C11_12 1_555 1_555
O4_12 C36_12 1_555 1_555
O5_12 C37_12 1_555 1_555
O6_12 C38_12 1_555 1_555
N14_12 C21_12 1_555 1_555
N15_12 C22_12 1_555 1_555
N16_12 C23_12 1_555 1_555
C17_12 C22_12 1_555 1_555
C18_12 C23_12 1_555 1_555
C21_12 C16_12 1_555 1_555
C22_12 C27_12 1_555 1_555
C23_12 C28_12 1_555 1_555
C26_12 C21_12 1_555 1_555
C27_12 C32_12 1_555 1_555
C28_12 C33_12 1_555 1_555
C31_12 N10_6 1_555 1_555
C32_12 N9_8 1_555 1_555
C33_12 N11_7 1_555 1_555
C36_12 N14_12 1_555 1_555
C37_12 N15_12 1_555 1_555
C38_12 N16_12 1_555 1_555
C41_12 C36_12 1_555 1_555
C42_12 C37_12 1_555 1_555
C43_12 C38_12 1_555 1_555
C46_12 C41_12 1_555 1_555
C47_12 C42_12 1_555 1_555
C48_12 C41_12 1_555 1_555
H19_12 C26_12 1_555 1_555
H20_12 C27_12 1_555 1_555
H21_12 C28_12 1_555 1_555
H24_12 C31_12 1_555 1_555
H25_12 C32_12 1_555 1_555
H26_12 C33_12 1_555 1_555
H29_12 C46_12 1_555 1_555
H30_12 C48_12 1_555 1_555
H31_12 C47_12 1_555 1_555
H34_12 N14_12 1_555 1_555
H35_12 N15_12 1_555 1_555
H36_12 N16_12 1_555 1_555
C26_12 C31_12 1_555 1_555
C42_12 C46_12 1_555 1_555
C43_12 C47_12 1_555 1_555
C43_12 C48_12 1_555 1_555

#END
