
###############################################################################
#
# This file contains modified crystal structure data generated from the
# MOF subset of the Cambridge Structural Database (CSD) v543 
# hosted by the Cambridge Crystallographic Data Centre (CCDC).
#
# This work is licensed under the Creative Commons
# Attribution-NonCommercial-ShareAlike 4.0 International License.
# To view a copy of this license, visit
# http://creativecommons.org/licenses/by-nc-sa/4.0/
# or send a letter to
# Creative Commons, PO Box 1866, Mountain View, CA 94042, USA.
#
# CIF created using the CSD Python API on 29 September 2022
# The structure has been converted into the P1 space group
# The structure has a 3D framework
# The original CSD entry TEYMOC is in the cubic crystal system
# The framework has been calculated to contain at least 10.0% void space
# The void calculation uses a probe of radius 1.32A, grid spacing 0.4
# The framework is charged, counterions have been retained in the structure
#
###############################################################################

data_TEYMOC
_chemical_formula_moiety         '(C72 H24 Cl12 Fe44 N96 60+)n'
_symmetry_cell_setting           triclinic
_symmetry_space_group_name_H-M   'P 1'
_symmetry_Int_Tables_number      1
_space_group_name_Hall           'P 1'
loop_
_symmetry_equiv_pos_site_id
_symmetry_equiv_pos_as_xyz
1 x,y,z
_cell_length_a                   18.90048(32)
_cell_length_b                   18.90048
_cell_length_c                   18.90048
_cell_angle_alpha                90
_cell_angle_beta                 90
_cell_angle_gamma                90
_cell_volume                     6751.78
loop_
_atom_site_label
_atom_site_type_symbol
_atom_site_fract_x
_atom_site_fract_y
_atom_site_fract_z
_atom_site_U_iso_or_equiv
_atom_site_thermal_displace_type
Fe1 Fe 0.2678(27) 0.000 0.000 0.1032 Uiso
Fe1_2 Fe 0.2678(27) 0.000 1.000 0.1032 Uiso
Fe1_3 Fe 0.2678(27) 1.000 0.000 0.1032 Uiso
Fe1_4 Fe 0.2678(27) 1.000 1.000 0.1032 Uiso
Fe1_5 Fe 0.000 0.2678(27) 0.000 0.1032 Uiso
Fe1_6 Fe -0.000 0.2678(27) 1.000 0.1032 Uiso
Fe1_7 Fe 1.000 0.2678(27) 0.000 0.1032 Uiso
Fe1_8 Fe 1.000 0.2678(27) 1.000 0.1032 Uiso
Fe1_9 Fe 0.000 0.000 0.2678(27) 0.1032 Uiso
Fe1_10 Fe -0.000 1.000 0.2678(27) 0.1032 Uiso
Fe1_11 Fe 1.000 0.000 0.2678(27) 0.1032 Uiso
Fe1_12 Fe 1.000 1.000 0.2678(27) 0.1032 Uiso
Fe1_13 Fe 0.000 0.000 0.7322(27) 0.1032 Uiso
Fe1_14 Fe 0.000 1.000 0.7322(27) 0.1032 Uiso
Fe1_15 Fe 1.000 0.000 0.7322(27) 0.1032 Uiso
Fe1_16 Fe 1.000 1.000 0.7322(27) 0.1032 Uiso
Fe1_17 Fe 0.7322(27) 0.000 0.000 0.1032 Uiso
Fe1_18 Fe 0.7322(27) 0.000 1.000 0.1032 Uiso
Fe1_19 Fe 0.7322(27) 1.000 0.000 0.1032 Uiso
Fe1_20 Fe 0.7322(27) 1.000 1.000 0.1032 Uiso
Fe1_21 Fe 0.000 0.7322(27) 0.000 0.1032 Uiso
Fe1_22 Fe -0.000 0.7322(27) 1.000 0.1032 Uiso
Fe1_23 Fe 1.000 0.7322(27) 0.000 0.1032 Uiso
Fe1_24 Fe 1.000 0.7322(27) 1.000 0.1032 Uiso
Fe2 Fe 0.1331(4) 0.500 0.000 0.0020 Uiso
Cl1 Cl 0.000 0.500 0.000 0.0060 Uiso
C10 C 0.15171(32) 0.3369(4) 0.15171(32) 0.0169 Uiso
C11 C 0.18118(30) 0.2724(4) 0.18118(30) 0.0169 Uiso
C12 C 0.24214(27) 0.24214(27) 0.1470(4) 0.0169 Uiso
N13 N 0.13058(21) 0.42070(19) 0.08111(22) 0.0148 Uiso
N14 N 0.17655(22) 0.36792(21) 0.09175(21) 0.0148 Uiso
H4 H 0.2633(5) 0.2633(5) 0.1073(6) 0.0250 Uiso
C13 C 0.15171(32) 0.15171(32) 0.3369(4) 0.0169 Uiso
C14 C 0.18118(30) 0.18118(30) 0.2724(4) 0.0169 Uiso
C15 C 0.1470(4) 0.24214(27) 0.24214(27) 0.0169 Uiso
N15 N 0.08111(22) 0.13058(21) 0.42070(19) 0.0148 Uiso
N16 N 0.09175(21) 0.17655(22) 0.36792(21) 0.0148 Uiso
H5 H 0.1073(6) 0.2633(5) 0.2633(5) 0.0250 Uiso
C16 C 0.3369(4) 0.15171(32) 0.15171(32) 0.0169 Uiso
C17 C 0.2724(4) 0.18118(30) 0.18118(30) 0.0169 Uiso
C18 C 0.24214(27) 0.1470(4) 0.24214(27) 0.0169 Uiso
N17 N 0.42070(19) 0.08111(22) 0.13058(21) 0.0148 Uiso
N18 N 0.36792(21) 0.09175(21) 0.17655(22) 0.0148 Uiso
H6 H 0.2633(5) 0.1073(6) 0.2633(5) 0.0250 Uiso
N19 N 0.42070(19) 0.13058(21) 0.08111(22) 0.0148 Uiso
N20 N 0.36792(21) 0.17655(22) 0.09175(21) 0.0148 Uiso
N21 N 0.08111(22) 0.42070(19) 0.13058(21) 0.0148 Uiso
N22 N 0.09175(21) 0.36792(21) 0.17655(22) 0.0148 Uiso
N23 N 0.13058(21) 0.08111(22) 0.42070(19) 0.0148 Uiso
N24 N 0.17655(22) 0.09175(21) 0.36792(21) 0.0148 Uiso
Fe3 Fe 0.000 0.1331(4) 0.500 0.0020 Uiso
Cl2 Cl 0.000 0.000 0.500 0.0060 Uiso
Fe4 Fe 0.500 0.000 0.1331(4) 0.0020 Uiso
Cl3 Cl 0.500 0.000 0.000 0.0060 Uiso
Fe10 Fe 0.500 0.1331(4) 0.000 0.0020 Uiso
Fe11 Fe 0.000 0.500 0.1331(4) 0.0020 Uiso
Fe21 Fe 0.1331(4) 0.000 0.500 0.0020 Uiso
N101 N 0.08111(22) 0.13058(21) 0.57930(19) 0.0148 Uiso
N102 N 0.57930(19) 0.08111(22) 0.13058(21) 0.0148 Uiso
N103 N 0.13058(21) 0.57930(19) 0.08111(22) 0.0148 Uiso
N104 N 0.57930(19) 0.13058(21) 0.08111(22) 0.0148 Uiso
N105 N 0.08111(22) 0.57930(19) 0.13058(21) 0.0148 Uiso
Fe2_2 Fe 0.1331(4) 0.500 1.000 0.0020 Uiso
C1 C 0.15171(32) 0.3369(4) 0.84829(32) 0.0169 Uiso
C2 C 0.18118(30) 0.2724(4) 0.81882(30) 0.0169 Uiso
C3 C 0.24214(27) 0.24214(27) 0.8530(4) 0.0169 Uiso
Cl1_2 Cl -0.000 0.500 1.000 0.0060 Uiso
N1 N 0.13058(21) 0.42070(19) 0.91889(22) 0.0148 Uiso
N2 N 0.17655(22) 0.36792(21) 0.90825(21) 0.0148 Uiso
H1 H 0.2633(5) 0.2633(5) 0.8927(6) 0.0250 Uiso
C4 C 0.15171(32) 0.15171(32) 0.6631(4) 0.0169 Uiso
C5 C 0.18118(30) 0.18118(30) 0.7276(4) 0.0169 Uiso
C6 C 0.1470(4) 0.24214(27) 0.75786(27) 0.0169 Uiso
N4 N 0.09175(21) 0.17655(22) 0.63208(21) 0.0148 Uiso
H2 H 0.1073(6) 0.2633(5) 0.7367(5) 0.0250 Uiso
C7 C 0.3369(4) 0.15171(32) 0.84829(32) 0.0169 Uiso
C8 C 0.2724(4) 0.18118(30) 0.81882(30) 0.0169 Uiso
C9 C 0.24214(27) 0.1470(4) 0.75786(27) 0.0169 Uiso
N5 N 0.42070(19) 0.08111(22) 0.86942(21) 0.0148 Uiso
N6 N 0.36792(21) 0.09175(21) 0.82345(22) 0.0148 Uiso
H3 H 0.2633(5) 0.1073(6) 0.7367(5) 0.0250 Uiso
N7 N 0.42070(19) 0.13058(21) 0.91889(22) 0.0148 Uiso
N8 N 0.36792(21) 0.17655(22) 0.90825(21) 0.0148 Uiso
N9 N 0.08111(22) 0.42070(19) 0.86942(21) 0.0148 Uiso
N10 N 0.09175(21) 0.36792(21) 0.82345(22) 0.0148 Uiso
N11 N 0.13058(21) 0.08111(22) 0.57930(19) 0.0148 Uiso
N12 N 0.17655(22) 0.09175(21) 0.63208(21) 0.0148 Uiso
Cl3_2 Cl 0.500 0.000 1.000 0.0060 Uiso
Fe7 Fe 0.500 -0.000 0.8669(4) 0.0020 Uiso
Fe10_2 Fe 0.500 0.1331(4) 1.000 0.0020 Uiso
Fe12 Fe -0.000 0.500 0.8669(4) 0.0020 Uiso
N109 N 0.57930(19) 0.08111(22) 0.86942(21) 0.0148 Uiso
N114 N 0.13058(21) 0.57930(19) 0.91889(22) 0.0148 Uiso
N116 N 0.08111(22) 0.57930(19) 0.86942(21) 0.0148 Uiso
N120 N 0.57930(19) 0.13058(21) 0.91889(22) 0.0148 Uiso
Cl2_2 Cl -0.000 1.000 0.500 0.0060 Uiso
Fe4_2 Fe 0.500 1.000 0.1331(4) 0.0020 Uiso
Cl3_3 Cl 0.500 1.000 0.000 0.0060 Uiso
Fe9 Fe -0.000 0.8669(4) 0.500 0.0020 Uiso
C28 C 0.15171(32) 0.84829(32) 0.3369(4) 0.0169 Uiso
C29 C 0.18118(30) 0.81882(30) 0.2724(4) 0.0169 Uiso
C30 C 0.1470(4) 0.75786(27) 0.24214(27) 0.0169 Uiso
N37 N 0.08111(22) 0.86942(21) 0.42070(19) 0.0148 Uiso
N38 N 0.09175(21) 0.82345(22) 0.36792(21) 0.0148 Uiso
H10 H 0.1073(6) 0.7367(5) 0.2633(5) 0.0250 Uiso
C31 C 0.3369(4) 0.84829(32) 0.15171(32) 0.0169 Uiso
C32 C 0.2724(4) 0.81882(30) 0.18118(30) 0.0169 Uiso
C33 C 0.24214(27) 0.8530(4) 0.24214(27) 0.0169 Uiso
N39 N 0.42070(19) 0.91889(22) 0.13058(21) 0.0148 Uiso
N40 N 0.36792(21) 0.90825(21) 0.17655(22) 0.0148 Uiso
H11 H 0.2633(5) 0.8927(6) 0.2633(5) 0.0250 Uiso
C34 C 0.15171(32) 0.6631(4) 0.15171(32) 0.0169 Uiso
C35 C 0.18118(30) 0.7276(4) 0.18118(30) 0.0169 Uiso
C36 C 0.24214(27) 0.75786(27) 0.1470(4) 0.0169 Uiso
N42 N 0.17655(22) 0.63208(21) 0.09175(21) 0.0148 Uiso
H12 H 0.2633(5) 0.7367(5) 0.1073(6) 0.0250 Uiso
N44 N 0.09175(21) 0.63208(21) 0.17655(22) 0.0148 Uiso
N45 N 0.13058(21) 0.91889(22) 0.42070(19) 0.0148 Uiso
N46 N 0.17655(22) 0.90825(21) 0.36792(21) 0.0148 Uiso
N47 N 0.42070(19) 0.86942(21) 0.08111(22) 0.0148 Uiso
N48 N 0.36792(21) 0.82345(22) 0.09175(21) 0.0148 Uiso
Fe21_2 Fe 0.1331(4) 1.000 0.500 0.0020 Uiso
Fe25 Fe 0.500 0.8669(4) 0.000 0.0020 Uiso
N108 N 0.08111(22) 0.86942(21) 0.57930(19) 0.0148 Uiso
N113 N 0.57930(19) 0.91889(22) 0.13058(21) 0.0148 Uiso
Cl3_4 Cl 0.500 1.000 1.000 0.0060 Uiso
Fe7_2 Fe 0.500 1.000 0.8669(4) 0.0020 Uiso
C37 C 0.15171(32) 0.84829(32) 0.6631(4) 0.0169 Uiso
C38 C 0.18118(30) 0.81882(30) 0.7276(4) 0.0169 Uiso
C39 C 0.1470(4) 0.75786(27) 0.75786(27) 0.0169 Uiso
N50 N 0.09175(21) 0.82345(22) 0.63208(21) 0.0148 Uiso
H13 H 0.1073(6) 0.7367(5) 0.7367(5) 0.0250 Uiso
C40 C 0.3369(4) 0.84829(32) 0.84829(32) 0.0169 Uiso
C41 C 0.2724(4) 0.81882(30) 0.81882(30) 0.0169 Uiso
C42 C 0.24214(27) 0.8530(4) 0.75786(27) 0.0169 Uiso
N51 N 0.42070(19) 0.91889(22) 0.86942(21) 0.0148 Uiso
N52 N 0.36792(21) 0.90825(21) 0.82345(22) 0.0148 Uiso
H14 H 0.2633(5) 0.8927(6) 0.7367(5) 0.0250 Uiso
C43 C 0.15171(32) 0.6631(4) 0.84829(32) 0.0169 Uiso
C44 C 0.18118(30) 0.7276(4) 0.81882(30) 0.0169 Uiso
C45 C 0.24214(27) 0.75786(27) 0.8530(4) 0.0169 Uiso
N54 N 0.17655(22) 0.63208(21) 0.90825(21) 0.0148 Uiso
H15 H 0.2633(5) 0.7367(5) 0.8927(6) 0.0250 Uiso
N56 N 0.09175(21) 0.63208(21) 0.82345(22) 0.0148 Uiso
N57 N 0.13058(21) 0.91889(22) 0.57930(19) 0.0148 Uiso
N58 N 0.17655(22) 0.90825(21) 0.63208(21) 0.0148 Uiso
N59 N 0.42070(19) 0.86942(21) 0.91889(22) 0.0148 Uiso
N60 N 0.36792(21) 0.82345(22) 0.90825(21) 0.0148 Uiso
Fe25_2 Fe 0.500 0.8669(4) 1.000 0.0020 Uiso
N112 N 0.57930(19) 0.91889(22) 0.86942(21) 0.0148 Uiso
Cl1_3 Cl 1.000 0.500 0.000 0.0060 Uiso
Fe3_2 Fe 1.000 0.1331(4) 0.500 0.0020 Uiso
Cl2_3 Cl 1.000 0.000 0.500 0.0060 Uiso
C19 C 0.6631(4) 0.15171(32) 0.15171(32) 0.0169 Uiso
C20 C 0.7276(4) 0.18118(30) 0.18118(30) 0.0169 Uiso
C21 C 0.75786(27) 0.1470(4) 0.24214(27) 0.0169 Uiso
N26 N 0.63208(21) 0.09175(21) 0.17655(22) 0.0148 Uiso
H7 H 0.7367(5) 0.1073(6) 0.2633(5) 0.0250 Uiso
C22 C 0.84829(32) 0.3369(4) 0.15171(32) 0.0169 Uiso
C23 C 0.81882(30) 0.2724(4) 0.18118(30) 0.0169 Uiso
C24 C 0.75786(27) 0.24214(27) 0.1470(4) 0.0169 Uiso
N27 N 0.86942(21) 0.42070(19) 0.08111(22) 0.0148 Uiso
N28 N 0.82345(22) 0.36792(21) 0.09175(21) 0.0148 Uiso
H8 H 0.7367(5) 0.2633(5) 0.1073(6) 0.0250 Uiso
C25 C 0.84829(32) 0.15171(32) 0.3369(4) 0.0169 Uiso
C26 C 0.81882(30) 0.18118(30) 0.2724(4) 0.0169 Uiso
C27 C 0.8530(4) 0.24214(27) 0.24214(27) 0.0169 Uiso
N29 N 0.91889(22) 0.13058(21) 0.42070(19) 0.0148 Uiso
N30 N 0.90825(21) 0.17655(22) 0.36792(21) 0.0148 Uiso
H9 H 0.8927(6) 0.2633(5) 0.2633(5) 0.0250 Uiso
N31 N 0.86942(21) 0.08111(22) 0.42070(19) 0.0148 Uiso
N32 N 0.82345(22) 0.09175(21) 0.36792(21) 0.0148 Uiso
N34 N 0.63208(21) 0.17655(22) 0.09175(21) 0.0148 Uiso
N35 N 0.91889(22) 0.42070(19) 0.13058(21) 0.0148 Uiso
N36 N 0.90825(21) 0.36792(21) 0.17655(22) 0.0148 Uiso
Fe8 Fe 0.8669(4) 0.500 0.000 0.0020 Uiso
Fe11_2 Fe 1.000 0.500 0.1331(4) 0.0020 Uiso
Fe24 Fe 0.8669(4) 0.000 0.500 0.0020 Uiso
N107 N 0.86942(21) 0.57930(19) 0.08111(22) 0.0148 Uiso
N115 N 0.91889(22) 0.13058(21) 0.57930(19) 0.0148 Uiso
N118 N 0.91889(22) 0.57930(19) 0.13058(21) 0.0148 Uiso
Cl1_4 Cl 1.000 0.500 1.000 0.0060 Uiso
Fe8_2 Fe 0.8669(4) 0.500 1.000 0.0020 Uiso
Fe12_2 Fe 1.000 0.500 0.8669(4) 0.0020 Uiso
C46 C 0.6631(4) 0.15171(32) 0.84829(32) 0.0169 Uiso
C47 C 0.7276(4) 0.18118(30) 0.81882(30) 0.0169 Uiso
C48 C 0.75786(27) 0.1470(4) 0.75786(27) 0.0169 Uiso
N62 N 0.63208(21) 0.09175(21) 0.82345(22) 0.0148 Uiso
H16 H 0.7367(5) 0.1073(6) 0.7367(5) 0.0250 Uiso
C49 C 0.84829(32) 0.3369(4) 0.84829(32) 0.0169 Uiso
C50 C 0.81882(30) 0.2724(4) 0.81882(30) 0.0169 Uiso
C51 C 0.75786(27) 0.24214(27) 0.8530(4) 0.0169 Uiso
N63 N 0.86942(21) 0.42070(19) 0.91889(22) 0.0148 Uiso
N64 N 0.82345(22) 0.36792(21) 0.90825(21) 0.0148 Uiso
H17 H 0.7367(5) 0.2633(5) 0.8927(6) 0.0250 Uiso
C52 C 0.84829(32) 0.15171(32) 0.6631(4) 0.0169 Uiso
C53 C 0.81882(30) 0.18118(30) 0.7276(4) 0.0169 Uiso
C54 C 0.8530(4) 0.24214(27) 0.75786(27) 0.0169 Uiso
N66 N 0.90825(21) 0.17655(22) 0.63208(21) 0.0148 Uiso
H18 H 0.8927(6) 0.2633(5) 0.7367(5) 0.0250 Uiso
N67 N 0.86942(21) 0.08111(22) 0.57930(19) 0.0148 Uiso
N68 N 0.82345(22) 0.09175(21) 0.63208(21) 0.0148 Uiso
N70 N 0.63208(21) 0.17655(22) 0.90825(21) 0.0148 Uiso
N71 N 0.91889(22) 0.42070(19) 0.86942(21) 0.0148 Uiso
N72 N 0.90825(21) 0.36792(21) 0.82345(22) 0.0148 Uiso
N110 N 0.86942(21) 0.57930(19) 0.91889(22) 0.0148 Uiso
N117 N 0.91889(22) 0.57930(19) 0.86942(21) 0.0148 Uiso
Cl2_4 Cl 1.000 1.000 0.500 0.0060 Uiso
Fe9_2 Fe 1.000 0.8669(4) 0.500 0.0020 Uiso
C64 C 0.84829(32) 0.6631(4) 0.15171(32) 0.0169 Uiso
C65 C 0.81882(30) 0.7276(4) 0.18118(30) 0.0169 Uiso
C66 C 0.75786(27) 0.75786(27) 0.1470(4) 0.0169 Uiso
N86 N 0.82345(22) 0.63208(21) 0.09175(21) 0.0148 Uiso
H22 H 0.7367(5) 0.7367(5) 0.1073(6) 0.0250 Uiso
C67 C 0.84829(32) 0.84829(32) 0.3369(4) 0.0169 Uiso
C68 C 0.81882(30) 0.81882(30) 0.2724(4) 0.0169 Uiso
C69 C 0.8530(4) 0.75786(27) 0.24214(27) 0.0169 Uiso
N87 N 0.91889(22) 0.86942(21) 0.42070(19) 0.0148 Uiso
N88 N 0.90825(21) 0.82345(22) 0.36792(21) 0.0148 Uiso
H23 H 0.8927(6) 0.7367(5) 0.2633(5) 0.0250 Uiso
C70 C 0.6631(4) 0.84829(32) 0.15171(32) 0.0169 Uiso
C71 C 0.7276(4) 0.81882(30) 0.18118(30) 0.0169 Uiso
C72 C 0.75786(27) 0.8530(4) 0.24214(27) 0.0169 Uiso
N90 N 0.63208(21) 0.90825(21) 0.17655(22) 0.0148 Uiso
H24 H 0.7367(5) 0.8927(6) 0.2633(5) 0.0250 Uiso
N91 N 0.57930(19) 0.86942(21) 0.08111(22) 0.0148 Uiso
N92 N 0.63208(21) 0.82345(22) 0.09175(21) 0.0148 Uiso
N94 N 0.90825(21) 0.63208(21) 0.17655(22) 0.0148 Uiso
N95 N 0.86942(21) 0.91889(22) 0.42070(19) 0.0148 Uiso
N96 N 0.82345(22) 0.90825(21) 0.36792(21) 0.0148 Uiso
Fe24_2 Fe 0.8669(4) 1.000 0.500 0.0020 Uiso
N111 N 0.91889(22) 0.86942(21) 0.57930(19) 0.0148 Uiso
C55 C 0.84829(32) 0.6631(4) 0.84829(32) 0.0169 Uiso
C56 C 0.81882(30) 0.7276(4) 0.81882(30) 0.0169 Uiso
C57 C 0.75786(27) 0.75786(27) 0.8530(4) 0.0169 Uiso
N74 N 0.82345(22) 0.63208(21) 0.90825(21) 0.0148 Uiso
H19 H 0.7367(5) 0.7367(5) 0.8927(6) 0.0250 Uiso
C58 C 0.84829(32) 0.84829(32) 0.6631(4) 0.0169 Uiso
C59 C 0.81882(30) 0.81882(30) 0.7276(4) 0.0169 Uiso
C60 C 0.8530(4) 0.75786(27) 0.75786(27) 0.0169 Uiso
N76 N 0.90825(21) 0.82345(22) 0.63208(21) 0.0148 Uiso
H20 H 0.8927(6) 0.7367(5) 0.7367(5) 0.0250 Uiso
C61 C 0.6631(4) 0.84829(32) 0.84829(32) 0.0169 Uiso
C62 C 0.7276(4) 0.81882(30) 0.81882(30) 0.0169 Uiso
C63 C 0.75786(27) 0.8530(4) 0.75786(27) 0.0169 Uiso
N78 N 0.63208(21) 0.90825(21) 0.82345(22) 0.0148 Uiso
H21 H 0.7367(5) 0.8927(6) 0.7367(5) 0.0250 Uiso
N79 N 0.57930(19) 0.86942(21) 0.91889(22) 0.0148 Uiso
N80 N 0.63208(21) 0.82345(22) 0.90825(21) 0.0148 Uiso
N82 N 0.90825(21) 0.63208(21) 0.82345(22) 0.0148 Uiso
N83 N 0.86942(21) 0.91889(22) 0.57930(19) 0.0148 Uiso
N84 N 0.82345(22) 0.90825(21) 0.63208(21) 0.0148 Uiso
loop_
_geom_bond_atom_site_label_1
_geom_bond_atom_site_label_2
_geom_bond_site_symmetry_1
_geom_bond_site_symmetry_2
Fe2 Cl1 1_555 1_555
C10 C11 1_555 1_555
C11 C12 1_555 1_555
C12 H4 1_555 1_555
N13 Fe2 1_555 1_555
N14 C10 1_555 1_555
C13 C14 1_555 1_555
C14 C15 1_555 1_555
C15 C11 1_555 1_555
N15 N16 1_555 1_555
N16 C13 1_555 1_555
H5 C15 1_555 1_555
C16 C17 1_555 1_555
C17 C12 1_555 1_555
C18 C14 1_555 1_555
N17 N18 1_555 1_555
N18 C16 1_555 1_555
H6 C18 1_555 1_555
N19 N17 1_555 1_555
N20 C16 1_555 1_555
N21 N13 1_555 1_555
N22 C10 1_555 1_555
N23 N15 1_555 1_555
N24 C13 1_555 1_555
Fe3 N15 1_555 1_555
Cl2 Fe3 1_555 1_555
Fe4 N17 1_555 1_555
Cl3 Fe4 1_555 1_555
Fe11 Cl1 1_555 1_555
Fe21 N23 1_555 1_555
N101 Fe3 1_555 1_555
N102 Fe4 1_555 1_555
N103 Fe2 1_555 1_555
N104 Fe10 1_555 1_555
N105 Fe11 1_555 1_555
N13 N14 1_555 1_555
C17 C18 1_555 1_555
N19 N20 1_555 1_555
N19 Fe10 1_555 1_555
N21 N22 1_555 1_555
N21 Fe11 1_555 1_555
N23 N24 1_555 1_555
Cl2 Fe21 1_555 1_555
Cl3 Fe10 1_555 1_555
N102 N104 1_555 1_555
N103 N105 1_555 1_555
Fe2_2 Cl1_2 1_555 1_555
C1 C2 1_555 1_555
C2 C3 1_555 1_555
C3 H1 1_555 1_555
N1 Fe2_2 1_555 1_555
N2 C1 1_555 1_555
C4 C5 1_555 1_555
C5 C6 1_555 1_555
C6 C2 1_555 1_555
N101 N4 1_555 1_555
N4 C4 1_555 1_555
H2 C6 1_555 1_555
C7 C8 1_555 1_555
C8 C3 1_555 1_555
C9 C5 1_555 1_555
N5 N6 1_555 1_555
N6 C7 1_555 1_555
H3 C9 1_555 1_555
N7 N5 1_555 1_555
N8 C7 1_555 1_555
N9 N1 1_555 1_555
N10 C1 1_555 1_555
N11 N101 1_555 1_555
N12 C4 1_555 1_555
Fe7 N5 1_555 1_555
Fe10_2 N7 1_555 1_555
Fe12 Cl1_2 1_555 1_555
Fe21 N11 1_555 1_555
N109 Fe7 1_555 1_555
N114 Fe2_2 1_555 1_555
N116 Fe12 1_555 1_555
N120 Fe10_2 1_555 1_555
N1 N2 1_555 1_555
C8 C9 1_555 1_555
N7 N8 1_555 1_555
N9 N10 1_555 1_555
N9 Fe12 1_555 1_555
N11 N12 1_555 1_555
Cl3_2 Fe7 1_555 1_555
Cl3_2 Fe10_2 1_555 1_555
N109 N120 1_555 1_555
N114 N116 1_555 1_555
Cl3_3 Fe4_2 1_555 1_555
Fe9 Cl2_2 1_555 1_555
C28 C29 1_555 1_555
C29 C30 1_555 1_555
C30 H10 1_555 1_555
N37 Fe9 1_555 1_555
N38 C28 1_555 1_555
C31 C32 1_555 1_555
C32 C33 1_555 1_555
C33 C29 1_555 1_555
N39 Fe4_2 1_555 1_555
N40 C31 1_555 1_555
H11 C33 1_555 1_555
C34 C35 1_555 1_555
C35 C30 1_555 1_555
C36 C32 1_555 1_555
N103 N42 1_555 1_555
N42 C34 1_555 1_555
H12 C36 1_555 1_555
N44 C34 1_555 1_555
N45 N37 1_555 1_555
N46 C28 1_555 1_555
N47 N39 1_555 1_555
N48 C31 1_555 1_555
Fe25 Cl3_3 1_555 1_555
N108 Fe9 1_555 1_555
N113 Fe4_2 1_555 1_555
Cl2_2 Fe21_2 1_555 1_555
N37 N38 1_555 1_555
N39 N40 1_555 1_555
C35 C36 1_555 1_555
N105 N44 1_555 1_555
N45 N46 1_555 1_555
N45 Fe21_2 1_555 1_555
N47 N48 1_555 1_555
N47 Fe25 1_555 1_555
C37 C38 1_555 1_555
C38 C39 1_555 1_555
C39 H13 1_555 1_555
N108 N50 1_555 1_555
N50 C37 1_555 1_555
C40 C41 1_555 1_555
C41 C42 1_555 1_555
C42 C38 1_555 1_555
N51 Fe7_2 1_555 1_555
N52 C40 1_555 1_555
H14 C42 1_555 1_555
C43 C44 1_555 1_555
C44 C39 1_555 1_555
C45 C41 1_555 1_555
N114 N54 1_555 1_555
N54 C43 1_555 1_555
H15 C45 1_555 1_555
N56 C43 1_555 1_555
N57 N108 1_555 1_555
N58 C37 1_555 1_555
N59 N51 1_555 1_555
N60 C40 1_555 1_555
Fe25_2 Cl3_4 1_555 1_555
N112 Fe7_2 1_555 1_555
Cl3_4 Fe7_2 1_555 1_555
N51 N52 1_555 1_555
C44 C45 1_555 1_555
N116 N56 1_555 1_555
N57 N58 1_555 1_555
N57 Fe21_2 1_555 1_555
N59 N60 1_555 1_555
N59 Fe25_2 1_555 1_555
Cl1_3 Fe8 1_555 1_555
Cl2_3 Fe3_2 1_555 1_555
C19 C20 1_555 1_555
C20 C21 1_555 1_555
C21 H7 1_555 1_555
N102 N26 1_555 1_555
N26 C19 1_555 1_555
C22 C23 1_555 1_555
C23 C24 1_555 1_555
C24 C20 1_555 1_555
N27 N28 1_555 1_555
N28 C22 1_555 1_555
H8 C24 1_555 1_555
C25 C26 1_555 1_555
C26 C21 1_555 1_555
C27 C23 1_555 1_555
N29 Fe3_2 1_555 1_555
N30 C25 1_555 1_555
H9 C27 1_555 1_555
N31 N29 1_555 1_555
N32 C25 1_555 1_555
N34 C19 1_555 1_555
N35 N27 1_555 1_555
N36 C22 1_555 1_555
Fe8 N27 1_555 1_555
Fe11_2 Cl1_3 1_555 1_555
Fe24 Cl2_3 1_555 1_555
N107 Fe8 1_555 1_555
N115 Fe3_2 1_555 1_555
N118 Fe11_2 1_555 1_555
C26 C27 1_555 1_555
N29 N30 1_555 1_555
N31 N32 1_555 1_555
N31 Fe24 1_555 1_555
N104 N34 1_555 1_555
N35 N36 1_555 1_555
N35 Fe11_2 1_555 1_555
N107 N118 1_555 1_555
Cl1_4 Fe8_2 1_555 1_555
Fe12_2 Cl1_4 1_555 1_555
C46 C47 1_555 1_555
C47 C48 1_555 1_555
C48 H16 1_555 1_555
N109 N62 1_555 1_555
N62 C46 1_555 1_555
C49 C50 1_555 1_555
C50 C51 1_555 1_555
C51 C47 1_555 1_555
N63 Fe8_2 1_555 1_555
N64 C49 1_555 1_555
H17 C51 1_555 1_555
C52 C53 1_555 1_555
C53 C48 1_555 1_555
C54 C50 1_555 1_555
N66 C52 1_555 1_555
H18 C54 1_555 1_555
N67 N115 1_555 1_555
N68 C52 1_555 1_555
N70 C46 1_555 1_555
N71 Fe12_2 1_555 1_555
N72 C49 1_555 1_555
Fe24 N67 1_555 1_555
N110 Fe8_2 1_555 1_555
N117 Fe12_2 1_555 1_555
N63 N64 1_555 1_555
N63 N71 1_555 1_555
C53 C54 1_555 1_555
N115 N66 1_555 1_555
N67 N68 1_555 1_555
N120 N70 1_555 1_555
N71 N72 1_555 1_555
N110 N117 1_555 1_555
Fe9_2 Cl2_4 1_555 1_555
C64 C65 1_555 1_555
C65 C66 1_555 1_555
C66 H22 1_555 1_555
N107 N86 1_555 1_555
N86 C64 1_555 1_555
C67 C68 1_555 1_555
C68 C69 1_555 1_555
C69 C65 1_555 1_555
N87 Fe9_2 1_555 1_555
N88 C67 1_555 1_555
H23 C69 1_555 1_555
C70 C71 1_555 1_555
C71 C66 1_555 1_555
C72 C68 1_555 1_555
N90 C70 1_555 1_555
H24 C72 1_555 1_555
N91 Fe25 1_555 1_555
N92 C70 1_555 1_555
N94 C64 1_555 1_555
N95 N87 1_555 1_555
N96 C67 1_555 1_555
Fe24_2 Cl2_4 1_555 1_555
N111 Fe9_2 1_555 1_555
N87 N88 1_555 1_555
C71 C72 1_555 1_555
N113 N90 1_555 1_555
N113 N91 1_555 1_555
N91 N92 1_555 1_555
N118 N94 1_555 1_555
N95 N96 1_555 1_555
N95 Fe24_2 1_555 1_555
C55 C56 1_555 1_555
C56 C57 1_555 1_555
C57 H19 1_555 1_555
N110 N74 1_555 1_555
N74 C55 1_555 1_555
C58 C59 1_555 1_555
C59 C60 1_555 1_555
C60 C56 1_555 1_555
N111 N76 1_555 1_555
N76 C58 1_555 1_555
H20 C60 1_555 1_555
C61 C62 1_555 1_555
C62 C57 1_555 1_555
C63 C59 1_555 1_555
N112 N78 1_555 1_555
N78 C61 1_555 1_555
H21 C63 1_555 1_555
N79 N112 1_555 1_555
N80 C61 1_555 1_555
N82 C55 1_555 1_555
N83 N111 1_555 1_555
N84 C58 1_555 1_555
Fe25_2 N79 1_555 1_555
C62 C63 1_555 1_555
N79 N80 1_555 1_555
N117 N82 1_555 1_555
N83 N84 1_555 1_555
N83 Fe24_2 1_555 1_555

#END
