
###############################################################################
#
# This file contains modified crystal structure data generated from the
# MOF subset of the Cambridge Structural Database (CSD) v543 
# hosted by the Cambridge Crystallographic Data Centre (CCDC).
#
# This work is licensed under the Creative Commons
# Attribution-NonCommercial-ShareAlike 4.0 International License.
# To view a copy of this license, visit
# http://creativecommons.org/licenses/by-nc-sa/4.0/
# or send a letter to
# Creative Commons, PO Box 1866, Mountain View, CA 94042, USA.
#
# CIF created using the CSD Python API on 29 September 2022
# The structure has been converted into the P1 space group
# The structure has a 3D framework
# The original CSD entry TEYMES is in the cubic crystal system
# The framework has been calculated to contain at least 10.0% void space
# The void calculation uses a probe of radius 1.32A, grid spacing 0.4
# The framework is charged, counterions have been retained in the structure
#
###############################################################################

data_TEYMES
_chemical_formula_moiety         '(C72 H24 Cl36 Cu20 N96 36-)n'
_symmetry_cell_setting           triclinic
_symmetry_space_group_name_H-M   'P 1'
_symmetry_Int_Tables_number      1
_space_group_name_Hall           'P 1'
loop_
_symmetry_equiv_pos_site_id
_symmetry_equiv_pos_as_xyz
1 x,y,z
_cell_length_a                   18.51977(35)
_cell_length_b                   18.51977
_cell_length_c                   18.51977
_cell_angle_alpha                90
_cell_angle_beta                 90
_cell_angle_gamma                90
_cell_volume                     6351.95
loop_
_atom_site_label
_atom_site_type_symbol
_atom_site_fract_x
_atom_site_fract_y
_atom_site_fract_z
Cl1 Cl 0.3662(20) 0.3662(20) 0.000
Cl1_2 Cl 0.3662(20) 0.3662(20) 1.000
Cl1_3 Cl -0.000 0.3662(20) 0.3662(20)
Cl1_4 Cl 1.000 0.3662(20) 0.3662(20)
Cl1_5 Cl 0.3662(20) -0.000 0.3662(20)
Cl1_6 Cl 0.3662(20) 1.000 0.3662(20)
Cl1_7 Cl -0.000 0.3662(20) 0.6338(20)
Cl1_8 Cl 1.000 0.3662(20) 0.6338(20)
Cl1_9 Cl 0.6338(20) -0.000 0.3662(20)
Cl1_10 Cl 0.6338(20) 1.000 0.3662(20)
Cl1_11 Cl 0.3662(20) 0.000 0.6338(20)
Cl1_12 Cl 0.3662(20) 1.000 0.6338(20)
Cl1_13 Cl 0.6338(20) 0.3662(20) 0.000
Cl1_14 Cl 0.6338(20) 0.3662(20) 1.000
Cl1_15 Cl -0.000 0.6338(20) 0.3662(20)
Cl1_16 Cl 1.000 0.6338(20) 0.3662(20)
Cl1_17 Cl 0.3662(20) 0.6338(20) 0.000
Cl1_18 Cl 0.3662(20) 0.6338(20) 1.000
Cl1_19 Cl 0.6338(20) 0.6338(20) 0.000
Cl1_20 Cl 0.6338(20) 0.6338(20) 1.000
Cl1_21 Cl 0.000 0.6338(20) 0.6338(20)
Cl1_22 Cl 1.000 0.6338(20) 0.6338(20)
Cl1_23 Cl 0.6338(20) 0.000 0.6338(20)
Cl1_24 Cl 0.6338(20) 1.000 0.6338(20)
Cu1 Cu 0.1322(5) 0.500 0.000
Cl2 Cl 0.000 0.500 0.000
C10 C 0.14834(26) 0.33711(31) 0.14834(26)
C11 C 0.18083(23) 0.27352(32) 0.18083(23)
C12 C 0.24163(25) 0.24163(25) 0.1492(4)
N13 N 0.12964(18) 0.42512(18) 0.07873(18)
N14 N 0.17467(19) 0.37041(18) 0.08916(17)
H4 H 0.2664(5) 0.2664(5) 0.1027(7)
C13 C 0.14834(26) 0.14834(26) 0.33711(31)
C14 C 0.18083(23) 0.18083(23) 0.27352(32)
C15 C 0.1492(4) 0.24163(25) 0.24163(25)
N15 N 0.07873(18) 0.12964(18) 0.42512(18)
N16 N 0.08916(17) 0.17467(19) 0.37041(18)
H5 H 0.1027(7) 0.2664(5) 0.2664(5)
C16 C 0.33711(31) 0.14834(26) 0.14834(26)
C17 C 0.27352(32) 0.18083(23) 0.18083(23)
C18 C 0.24163(25) 0.1492(4) 0.24163(25)
N17 N 0.42512(18) 0.07873(18) 0.12964(18)
N18 N 0.37041(18) 0.08916(17) 0.17467(19)
H6 H 0.2664(5) 0.1027(7) 0.2664(5)
N19 N 0.42512(18) 0.12964(18) 0.07873(18)
N20 N 0.37041(18) 0.17467(19) 0.08916(17)
N21 N 0.07873(18) 0.42512(18) 0.12964(18)
N22 N 0.08916(17) 0.37041(18) 0.17467(19)
N23 N 0.12964(18) 0.07873(18) 0.42512(18)
N24 N 0.17467(19) 0.08916(17) 0.37041(18)
Cu2 Cu -0.000 0.1322(5) 0.500
Cl3 Cl 0.000 0.000 0.500
Cu3 Cu 0.500 -0.000 0.1322(5)
Cl4 Cl 0.500 0.000 0.000
Cu9 Cu 0.500 0.1322(5) 0.000
Cu10 Cu -0.000 0.500 0.1322(5)
Cu20 Cu 0.1322(5) 0.000 0.500
N101 N 0.07873(18) 0.12964(18) 0.57488(18)
N102 N 0.57488(18) 0.07873(18) 0.12964(18)
N103 N 0.12964(18) 0.57488(18) 0.07873(18)
N104 N 0.57488(18) 0.12964(18) 0.07873(18)
N105 N 0.07873(18) 0.57488(18) 0.12964(18)
Cu1_2 Cu 0.1322(5) 0.500 1.000
C1 C 0.14834(26) 0.33711(31) 0.85166(26)
C2 C 0.18083(23) 0.27352(32) 0.81917(23)
C3 C 0.24163(25) 0.24163(25) 0.8508(4)
Cl2_2 Cl -0.000 0.500 1.000
N1 N 0.12964(18) 0.42512(18) 0.92127(18)
N2 N 0.17467(19) 0.37041(18) 0.91084(17)
H1 H 0.2664(5) 0.2664(5) 0.8973(7)
C4 C 0.14834(26) 0.14834(26) 0.66289(31)
C5 C 0.18083(23) 0.18083(23) 0.72648(32)
C6 C 0.1492(4) 0.24163(25) 0.75837(25)
N4 N 0.08916(17) 0.17467(19) 0.62959(18)
H2 H 0.1027(7) 0.2664(5) 0.7336(5)
C7 C 0.33711(31) 0.14834(26) 0.85166(26)
C8 C 0.27352(32) 0.18083(23) 0.81917(23)
C9 C 0.24163(25) 0.1492(4) 0.75837(25)
N5 N 0.42512(18) 0.07873(18) 0.87036(18)
N6 N 0.37041(18) 0.08916(17) 0.82533(19)
H3 H 0.2664(5) 0.1027(7) 0.7336(5)
N7 N 0.42512(18) 0.12964(18) 0.92127(18)
N8 N 0.37041(18) 0.17467(19) 0.91084(17)
N9 N 0.07873(18) 0.42512(18) 0.87036(18)
N10 N 0.08916(17) 0.37041(18) 0.82533(19)
N11 N 0.12964(18) 0.07873(18) 0.57488(18)
N12 N 0.17467(19) 0.08916(17) 0.62959(18)
Cl4_2 Cl 0.500 0.000 1.000
Cu6 Cu 0.500 -0.000 0.8678(5)
Cu9_2 Cu 0.500 0.1322(5) 1.000
Cu11 Cu -0.000 0.500 0.8678(5)
N109 N 0.57488(18) 0.07873(18) 0.87036(18)
N114 N 0.12964(18) 0.57488(18) 0.92127(18)
N116 N 0.07873(18) 0.57488(18) 0.87036(18)
N120 N 0.57488(18) 0.12964(18) 0.92127(18)
Cl3_2 Cl -0.000 1.000 0.500
Cu3_2 Cu 0.500 1.000 0.1322(5)
Cl4_3 Cl 0.500 1.000 0.000
Cu8 Cu -0.000 0.8678(5) 0.500
C28 C 0.14834(26) 0.85166(26) 0.33711(31)
C29 C 0.18083(23) 0.81917(23) 0.27352(32)
C30 C 0.1492(4) 0.75837(25) 0.24163(25)
N37 N 0.07873(18) 0.87036(18) 0.42512(18)
N38 N 0.08916(17) 0.82533(19) 0.37041(18)
H10 H 0.1027(7) 0.7336(5) 0.2664(5)
C31 C 0.33711(31) 0.85166(26) 0.14834(26)
C32 C 0.27352(32) 0.81917(23) 0.18083(23)
C33 C 0.24163(25) 0.8508(4) 0.24163(25)
N39 N 0.42512(18) 0.92127(18) 0.12964(18)
N40 N 0.37041(18) 0.91084(17) 0.17467(19)
H11 H 0.2664(5) 0.8973(7) 0.2664(5)
C34 C 0.14834(26) 0.66289(31) 0.14834(26)
C35 C 0.18083(23) 0.72648(32) 0.18083(23)
C36 C 0.24163(25) 0.75837(25) 0.1492(4)
N42 N 0.17467(19) 0.62959(18) 0.08916(17)
H12 H 0.2664(5) 0.7336(5) 0.1027(7)
N44 N 0.08916(17) 0.62959(18) 0.17467(19)
N45 N 0.12964(18) 0.92127(18) 0.42512(18)
N46 N 0.17467(19) 0.91084(17) 0.37041(18)
N47 N 0.42512(18) 0.87036(18) 0.07873(18)
N48 N 0.37041(18) 0.82533(19) 0.08916(17)
Cu20_2 Cu 0.1322(5) 1.000 0.500
Cu24 Cu 0.500 0.8678(5) 0.000
N108 N 0.07873(18) 0.87036(18) 0.57488(18)
N113 N 0.57488(18) 0.92127(18) 0.12964(18)
Cl4_4 Cl 0.500 1.000 1.000
Cu6_2 Cu 0.500 1.000 0.8678(5)
C37 C 0.14834(26) 0.85166(26) 0.66289(31)
C38 C 0.18083(23) 0.81917(23) 0.72648(32)
C39 C 0.1492(4) 0.75837(25) 0.75837(25)
N50 N 0.08916(17) 0.82533(19) 0.62959(18)
H13 H 0.1027(7) 0.7336(5) 0.7336(5)
C40 C 0.33711(31) 0.85166(26) 0.85166(26)
C41 C 0.27352(32) 0.81917(23) 0.81917(23)
C42 C 0.24163(25) 0.8508(4) 0.75837(25)
N51 N 0.42512(18) 0.92127(18) 0.87036(18)
N52 N 0.37041(18) 0.91084(17) 0.82533(19)
H14 H 0.2664(5) 0.8973(7) 0.7336(5)
C43 C 0.14834(26) 0.66289(31) 0.85166(26)
C44 C 0.18083(23) 0.72648(32) 0.81917(23)
C45 C 0.24163(25) 0.75837(25) 0.8508(4)
N54 N 0.17467(19) 0.62959(18) 0.91084(17)
H15 H 0.2664(5) 0.7336(5) 0.8973(7)
N56 N 0.08916(17) 0.62959(18) 0.82533(19)
N57 N 0.12964(18) 0.92127(18) 0.57488(18)
N58 N 0.17467(19) 0.91084(17) 0.62959(18)
N59 N 0.42512(18) 0.87036(18) 0.92127(18)
N60 N 0.37041(18) 0.82533(19) 0.91084(17)
Cu24_2 Cu 0.500 0.8678(5) 1.000
N112 N 0.57488(18) 0.92127(18) 0.87036(18)
Cl2_3 Cl 1.000 0.500 0.000
Cu2_2 Cu 1.000 0.1322(5) 0.500
Cl3_3 Cl 1.000 0.000 0.500
C19 C 0.66289(31) 0.14834(26) 0.14834(26)
C20 C 0.72648(32) 0.18083(23) 0.18083(23)
C21 C 0.75837(25) 0.1492(4) 0.24163(25)
N26 N 0.62959(18) 0.08916(17) 0.17467(19)
H7 H 0.7336(5) 0.1027(7) 0.2664(5)
C22 C 0.85166(26) 0.33711(31) 0.14834(26)
C23 C 0.81917(23) 0.27352(32) 0.18083(23)
C24 C 0.75837(25) 0.24163(25) 0.1492(4)
N27 N 0.87036(18) 0.42512(18) 0.07873(18)
N28 N 0.82533(19) 0.37041(18) 0.08916(17)
H8 H 0.7336(5) 0.2664(5) 0.1027(7)
C25 C 0.85166(26) 0.14834(26) 0.33711(31)
C26 C 0.81917(23) 0.18083(23) 0.27352(32)
C27 C 0.8508(4) 0.24163(25) 0.24163(25)
N29 N 0.92127(18) 0.12964(18) 0.42512(18)
N30 N 0.91084(17) 0.17467(19) 0.37041(18)
H9 H 0.8973(7) 0.2664(5) 0.2664(5)
N31 N 0.87036(18) 0.07873(18) 0.42512(18)
N32 N 0.82533(19) 0.08916(17) 0.37041(18)
N34 N 0.62959(18) 0.17467(19) 0.08916(17)
N35 N 0.92127(18) 0.42512(18) 0.12964(18)
N36 N 0.91084(17) 0.37041(18) 0.17467(19)
Cu7 Cu 0.8678(5) 0.500 0.000
Cu10_2 Cu 1.000 0.500 0.1322(5)
Cu23 Cu 0.8678(5) 0.000 0.500
N107 N 0.87036(18) 0.57488(18) 0.07873(18)
N115 N 0.92127(18) 0.12964(18) 0.57488(18)
N118 N 0.92127(18) 0.57488(18) 0.12964(18)
Cl2_4 Cl 1.000 0.500 1.000
Cu7_2 Cu 0.8678(5) 0.500 1.000
Cu11_2 Cu 1.000 0.500 0.8678(5)
C46 C 0.66289(31) 0.14834(26) 0.85166(26)
C47 C 0.72648(32) 0.18083(23) 0.81917(23)
C48 C 0.75837(25) 0.1492(4) 0.75837(25)
N62 N 0.62959(18) 0.08916(17) 0.82533(19)
H16 H 0.7336(5) 0.1027(7) 0.7336(5)
C49 C 0.85166(26) 0.33711(31) 0.85166(26)
C50 C 0.81917(23) 0.27352(32) 0.81917(23)
C51 C 0.75837(25) 0.24163(25) 0.8508(4)
N63 N 0.87036(18) 0.42512(18) 0.92127(18)
N64 N 0.82533(19) 0.37041(18) 0.91084(17)
H17 H 0.7336(5) 0.2664(5) 0.8973(7)
C52 C 0.85166(26) 0.14834(26) 0.66289(31)
C53 C 0.81917(23) 0.18083(23) 0.72648(32)
C54 C 0.8508(4) 0.24163(25) 0.75837(25)
N66 N 0.91084(17) 0.17467(19) 0.62959(18)
H18 H 0.8973(7) 0.2664(5) 0.7336(5)
N67 N 0.87036(18) 0.07873(18) 0.57488(18)
N68 N 0.82533(19) 0.08916(17) 0.62959(18)
N70 N 0.62959(18) 0.17467(19) 0.91084(17)
N71 N 0.92127(18) 0.42512(18) 0.87036(18)
N72 N 0.91084(17) 0.37041(18) 0.82533(19)
N110 N 0.87036(18) 0.57488(18) 0.92127(18)
N117 N 0.92127(18) 0.57488(18) 0.87036(18)
Cl3_4 Cl 1.000 1.000 0.500
Cu8_2 Cu 1.000 0.8678(5) 0.500
C64 C 0.85166(26) 0.66289(31) 0.14834(26)
C65 C 0.81917(23) 0.72648(32) 0.18083(23)
C66 C 0.75837(25) 0.75837(25) 0.1492(4)
N86 N 0.82533(19) 0.62959(18) 0.08916(17)
H22 H 0.7336(5) 0.7336(5) 0.1027(7)
C67 C 0.85166(26) 0.85166(26) 0.33711(31)
C68 C 0.81917(23) 0.81917(23) 0.27352(32)
C69 C 0.8508(4) 0.75837(25) 0.24163(25)
N87 N 0.92127(18) 0.87036(18) 0.42512(18)
N88 N 0.91084(17) 0.82533(19) 0.37041(18)
H23 H 0.8973(7) 0.7336(5) 0.2664(5)
C70 C 0.66289(31) 0.85166(26) 0.14834(26)
C71 C 0.72648(32) 0.81917(23) 0.18083(23)
C72 C 0.75837(25) 0.8508(4) 0.24163(25)
N90 N 0.62959(18) 0.91084(17) 0.17467(19)
H24 H 0.7336(5) 0.8973(7) 0.2664(5)
N91 N 0.57488(18) 0.87036(18) 0.07873(18)
N92 N 0.62959(18) 0.82533(19) 0.08916(17)
N94 N 0.91084(17) 0.62959(18) 0.17467(19)
N95 N 0.87036(18) 0.92127(18) 0.42512(18)
N96 N 0.82533(19) 0.91084(17) 0.37041(18)
Cu23_2 Cu 0.8678(5) 1.000 0.500
N111 N 0.92127(18) 0.87036(18) 0.57488(18)
C55 C 0.85166(26) 0.66289(31) 0.85166(26)
C56 C 0.81917(23) 0.72648(32) 0.81917(23)
C57 C 0.75837(25) 0.75837(25) 0.8508(4)
N74 N 0.82533(19) 0.62959(18) 0.91084(17)
H19 H 0.7336(5) 0.7336(5) 0.8973(7)
C58 C 0.85166(26) 0.85166(26) 0.66289(31)
C59 C 0.81917(23) 0.81917(23) 0.72648(32)
C60 C 0.8508(4) 0.75837(25) 0.75837(25)
N76 N 0.91084(17) 0.82533(19) 0.62959(18)
H20 H 0.8973(7) 0.7336(5) 0.7336(5)
C61 C 0.66289(31) 0.85166(26) 0.85166(26)
C62 C 0.72648(32) 0.81917(23) 0.81917(23)
C63 C 0.75837(25) 0.8508(4) 0.75837(25)
N78 N 0.62959(18) 0.91084(17) 0.82533(19)
H21 H 0.7336(5) 0.8973(7) 0.7336(5)
N79 N 0.57488(18) 0.87036(18) 0.92127(18)
N80 N 0.62959(18) 0.82533(19) 0.91084(17)
N82 N 0.91084(17) 0.62959(18) 0.82533(19)
N83 N 0.87036(18) 0.92127(18) 0.57488(18)
N84 N 0.82533(19) 0.91084(17) 0.62959(18)
loop_
_geom_bond_atom_site_label_1
_geom_bond_atom_site_label_2
_geom_bond_site_symmetry_1
_geom_bond_site_symmetry_2
Cu1 Cl2 1_555 1_555
C10 C11 1_555 1_555
C11 C12 1_555 1_555
C12 H4 1_555 1_555
N13 Cu1 1_555 1_555
N14 C10 1_555 1_555
C13 C14 1_555 1_555
C14 C15 1_555 1_555
C15 C11 1_555 1_555
N15 N16 1_555 1_555
N16 C13 1_555 1_555
H5 C15 1_555 1_555
C16 C17 1_555 1_555
C17 C12 1_555 1_555
C18 C14 1_555 1_555
N17 N18 1_555 1_555
N18 C16 1_555 1_555
H6 C18 1_555 1_555
N19 N17 1_555 1_555
N20 C16 1_555 1_555
N21 N13 1_555 1_555
N22 C10 1_555 1_555
N23 N15 1_555 1_555
N24 C13 1_555 1_555
Cu2 N15 1_555 1_555
Cl3 Cu2 1_555 1_555
Cu3 N17 1_555 1_555
Cl4 Cu3 1_555 1_555
Cu10 Cl2 1_555 1_555
Cu20 N23 1_555 1_555
N101 Cu2 1_555 1_555
N102 Cu3 1_555 1_555
N103 Cu1 1_555 1_555
N104 Cu9 1_555 1_555
N105 Cu10 1_555 1_555
N13 N14 1_555 1_555
C17 C18 1_555 1_555
N19 N20 1_555 1_555
N19 Cu9 1_555 1_555
N21 N22 1_555 1_555
N21 Cu10 1_555 1_555
N23 N24 1_555 1_555
Cl3 Cu20 1_555 1_555
Cl4 Cu9 1_555 1_555
N102 N104 1_555 1_555
N103 N105 1_555 1_555
Cu1_2 Cl2_2 1_555 1_555
C1 C2 1_555 1_555
C2 C3 1_555 1_555
C3 H1 1_555 1_555
N1 Cu1_2 1_555 1_555
N2 C1 1_555 1_555
C4 C5 1_555 1_555
C5 C6 1_555 1_555
C6 C2 1_555 1_555
N101 N4 1_555 1_555
N4 C4 1_555 1_555
H2 C6 1_555 1_555
C7 C8 1_555 1_555
C8 C3 1_555 1_555
C9 C5 1_555 1_555
N5 N6 1_555 1_555
N6 C7 1_555 1_555
H3 C9 1_555 1_555
N7 N5 1_555 1_555
N8 C7 1_555 1_555
N9 N1 1_555 1_555
N10 C1 1_555 1_555
N11 N101 1_555 1_555
N12 C4 1_555 1_555
Cu6 N5 1_555 1_555
Cu9_2 N7 1_555 1_555
Cu11 Cl2_2 1_555 1_555
Cu20 N11 1_555 1_555
N109 Cu6 1_555 1_555
N114 Cu1_2 1_555 1_555
N116 Cu11 1_555 1_555
N120 Cu9_2 1_555 1_555
N1 N2 1_555 1_555
C8 C9 1_555 1_555
N7 N8 1_555 1_555
N9 N10 1_555 1_555
N9 Cu11 1_555 1_555
N11 N12 1_555 1_555
Cl4_2 Cu6 1_555 1_555
Cl4_2 Cu9_2 1_555 1_555
N109 N120 1_555 1_555
N114 N116 1_555 1_555
Cl4_3 Cu3_2 1_555 1_555
Cu8 Cl3_2 1_555 1_555
C28 C29 1_555 1_555
C29 C30 1_555 1_555
C30 H10 1_555 1_555
N37 Cu8 1_555 1_555
N38 C28 1_555 1_555
C31 C32 1_555 1_555
C32 C33 1_555 1_555
C33 C29 1_555 1_555
N39 Cu3_2 1_555 1_555
N40 C31 1_555 1_555
H11 C33 1_555 1_555
C34 C35 1_555 1_555
C35 C30 1_555 1_555
C36 C32 1_555 1_555
N103 N42 1_555 1_555
N42 C34 1_555 1_555
H12 C36 1_555 1_555
N44 C34 1_555 1_555
N45 N37 1_555 1_555
N46 C28 1_555 1_555
N47 N39 1_555 1_555
N48 C31 1_555 1_555
Cu24 Cl4_3 1_555 1_555
N108 Cu8 1_555 1_555
N113 Cu3_2 1_555 1_555
Cl3_2 Cu20_2 1_555 1_555
N37 N38 1_555 1_555
N39 N40 1_555 1_555
C35 C36 1_555 1_555
N105 N44 1_555 1_555
N45 N46 1_555 1_555
N45 Cu20_2 1_555 1_555
N47 N48 1_555 1_555
N47 Cu24 1_555 1_555
C37 C38 1_555 1_555
C38 C39 1_555 1_555
C39 H13 1_555 1_555
N108 N50 1_555 1_555
N50 C37 1_555 1_555
C40 C41 1_555 1_555
C41 C42 1_555 1_555
C42 C38 1_555 1_555
N51 Cu6_2 1_555 1_555
N52 C40 1_555 1_555
H14 C42 1_555 1_555
C43 C44 1_555 1_555
C44 C39 1_555 1_555
C45 C41 1_555 1_555
N114 N54 1_555 1_555
N54 C43 1_555 1_555
H15 C45 1_555 1_555
N56 C43 1_555 1_555
N57 N108 1_555 1_555
N58 C37 1_555 1_555
N59 N51 1_555 1_555
N60 C40 1_555 1_555
Cu24_2 Cl4_4 1_555 1_555
N112 Cu6_2 1_555 1_555
Cl4_4 Cu6_2 1_555 1_555
N51 N52 1_555 1_555
C44 C45 1_555 1_555
N116 N56 1_555 1_555
N57 N58 1_555 1_555
N57 Cu20_2 1_555 1_555
N59 N60 1_555 1_555
N59 Cu24_2 1_555 1_555
Cl2_3 Cu7 1_555 1_555
Cl3_3 Cu2_2 1_555 1_555
C19 C20 1_555 1_555
C20 C21 1_555 1_555
C21 H7 1_555 1_555
N102 N26 1_555 1_555
N26 C19 1_555 1_555
C22 C23 1_555 1_555
C23 C24 1_555 1_555
C24 C20 1_555 1_555
N27 N28 1_555 1_555
N28 C22 1_555 1_555
H8 C24 1_555 1_555
C25 C26 1_555 1_555
C26 C21 1_555 1_555
C27 C23 1_555 1_555
N29 Cu2_2 1_555 1_555
N30 C25 1_555 1_555
H9 C27 1_555 1_555
N31 N29 1_555 1_555
N32 C25 1_555 1_555
N34 C19 1_555 1_555
N35 N27 1_555 1_555
N36 C22 1_555 1_555
Cu7 N27 1_555 1_555
Cu10_2 Cl2_3 1_555 1_555
Cu23 Cl3_3 1_555 1_555
N107 Cu7 1_555 1_555
N115 Cu2_2 1_555 1_555
N118 Cu10_2 1_555 1_555
C26 C27 1_555 1_555
N29 N30 1_555 1_555
N31 N32 1_555 1_555
N31 Cu23 1_555 1_555
N104 N34 1_555 1_555
N35 N36 1_555 1_555
N35 Cu10_2 1_555 1_555
N107 N118 1_555 1_555
Cl2_4 Cu7_2 1_555 1_555
Cu11_2 Cl2_4 1_555 1_555
C46 C47 1_555 1_555
C47 C48 1_555 1_555
C48 H16 1_555 1_555
N109 N62 1_555 1_555
N62 C46 1_555 1_555
C49 C50 1_555 1_555
C50 C51 1_555 1_555
C51 C47 1_555 1_555
N63 Cu7_2 1_555 1_555
N64 C49 1_555 1_555
H17 C51 1_555 1_555
C52 C53 1_555 1_555
C53 C48 1_555 1_555
C54 C50 1_555 1_555
N66 C52 1_555 1_555
H18 C54 1_555 1_555
N67 N115 1_555 1_555
N68 C52 1_555 1_555
N70 C46 1_555 1_555
N71 Cu11_2 1_555 1_555
N72 C49 1_555 1_555
Cu23 N67 1_555 1_555
N110 Cu7_2 1_555 1_555
N117 Cu11_2 1_555 1_555
N63 N64 1_555 1_555
N63 N71 1_555 1_555
C53 C54 1_555 1_555
N115 N66 1_555 1_555
N67 N68 1_555 1_555
N120 N70 1_555 1_555
N71 N72 1_555 1_555
N110 N117 1_555 1_555
Cu8_2 Cl3_4 1_555 1_555
C64 C65 1_555 1_555
C65 C66 1_555 1_555
C66 H22 1_555 1_555
N107 N86 1_555 1_555
N86 C64 1_555 1_555
C67 C68 1_555 1_555
C68 C69 1_555 1_555
C69 C65 1_555 1_555
N87 Cu8_2 1_555 1_555
N88 C67 1_555 1_555
H23 C69 1_555 1_555
C70 C71 1_555 1_555
C71 C66 1_555 1_555
C72 C68 1_555 1_555
N90 C70 1_555 1_555
H24 C72 1_555 1_555
N91 Cu24 1_555 1_555
N92 C70 1_555 1_555
N94 C64 1_555 1_555
N95 N87 1_555 1_555
N96 C67 1_555 1_555
Cu23_2 Cl3_4 1_555 1_555
N111 Cu8_2 1_555 1_555
N87 N88 1_555 1_555
C71 C72 1_555 1_555
N113 N90 1_555 1_555
N113 N91 1_555 1_555
N91 N92 1_555 1_555
N118 N94 1_555 1_555
N95 N96 1_555 1_555
N95 Cu23_2 1_555 1_555
C55 C56 1_555 1_555
C56 C57 1_555 1_555
C57 H19 1_555 1_555
N110 N74 1_555 1_555
N74 C55 1_555 1_555
C58 C59 1_555 1_555
C59 C60 1_555 1_555
C60 C56 1_555 1_555
N111 N76 1_555 1_555
N76 C58 1_555 1_555
H20 C60 1_555 1_555
C61 C62 1_555 1_555
C62 C57 1_555 1_555
C63 C59 1_555 1_555
N112 N78 1_555 1_555
N78 C61 1_555 1_555
H21 C63 1_555 1_555
N79 N112 1_555 1_555
N80 C61 1_555 1_555
N82 C55 1_555 1_555
N83 N111 1_555 1_555
N84 C58 1_555 1_555
Cu24_2 N79 1_555 1_555
C62 C63 1_555 1_555
N79 N80 1_555 1_555
N117 N82 1_555 1_555
N83 N84 1_555 1_555
N83 Cu23_2 1_555 1_555

#END
