
###############################################################################
#
# This file contains modified crystal structure data generated from the
# MOF subset of the Cambridge Structural Database (CSD) v543 
# hosted by the Cambridge Crystallographic Data Centre (CCDC).
#
# This work is licensed under the Creative Commons
# Attribution-NonCommercial-ShareAlike 4.0 International License.
# To view a copy of this license, visit
# http://creativecommons.org/licenses/by-nc-sa/4.0/
# or send a letter to
# Creative Commons, PO Box 1866, Mountain View, CA 94042, USA.
#
# CIF created using the CSD Python API on 29 September 2022
# The structure has been converted into the P1 space group
# The structure has a 3D framework
# The original CSD entry TEYZEE is in the orthorhombic crystal system
# The framework has been calculated to contain at least 10.0% void space
# The void calculation uses a probe of radius 1.32A, grid spacing 0.4
#
###############################################################################

data_TEYZEE
_chemical_formula_moiety         '(C172 H152 Ag8 N8 O16 P8)n'
_symmetry_cell_setting           triclinic
_symmetry_space_group_name_H-M   'P 1'
_symmetry_Int_Tables_number      1
_space_group_name_Hall           'P 1'
loop_
_symmetry_equiv_pos_site_id
_symmetry_equiv_pos_as_xyz
1 x,y,z
_cell_length_a                   17.0341(8)
_cell_length_b                   21.3551(10)
_cell_length_c                   13.1534(6)
_cell_angle_alpha                90
_cell_angle_beta                 90
_cell_angle_gamma                90
_cell_volume                     4784.75
loop_
_atom_site_label
_atom_site_type_symbol
_atom_site_fract_x
_atom_site_fract_y
_atom_site_fract_z
Ag4 Ag 0.03428(4) 0.92135(3) 0.93459(4)
Ag5 Ag 0.03428(4) 0.57865(3) 0.93459(4)
H26 H 0.4752 0.0082 0.7210
C31 C 0.4144(6) 0.0346(5) 0.8457(9)
H27 H 0.4020 0.0751 0.8226
C32 C 0.3889(7) 0.0147(6) 0.9384(10)
H28 H 0.3573 0.0412 0.9783
Ag6 Ag 0.96572(4) 0.07865(3) 0.06541(4)
O8 O 0.5560(3) 0.0432(2) 0.5520(4)
Ag1 Ag 0.53428(4) 0.57865(3) 0.56541(4)
P1 P 0.53270(11) 0.61655(9) 0.73326(14)
O1 O 0.9238(4) 0.6441(3) 0.0673(5)
O2 O 0.9440(3) 0.5432(2) 0.0520(4)
N1 N 0.6343(4) 0.5889(3) 0.4467(5)
C1 C 0.6309(4) 0.6253(3) 0.7888(6)
C2 C 0.6943(5) 0.6070(4) 0.7334(7)
H1 H 0.6865 0.5902 0.6681
C3 C 0.7707(6) 0.6124(6) 0.7708(10)
H2 H 0.8138 0.5999 0.7312
C4 C 0.7816(6) 0.6363(6) 0.8661(9)
H3 H 0.8325 0.6388 0.8931
C5 C 0.7194(7) 0.6565(6) 0.9224(8)
H4 H 0.7277 0.6745 0.9867
C6 C 0.6432(5) 0.6502(5) 0.8839(7)
H5 H 0.6001 0.6630 0.9234
C7 C 0.4790(4) 0.5646(3) 0.8200(6)
C8 C 0.4586(5) 0.5051(4) 0.7857(7)
H6 H 0.4752 0.4918 0.7210
C9 C 0.4144(6) 0.4654(5) 0.8457(9)
H7 H 0.4020 0.4249 0.8226
C10 C 0.3889(7) 0.4853(6) 0.9384(10)
H8 H 0.3573 0.4588 0.9783
C11 C 0.4088(6) 0.5442(5) 0.9746(8)
C12 C 0.4532(5) 0.5821(4) 0.9155(7)
H10 H 0.4670 0.6218 0.9403
C13 C 0.4863(4) 0.6927(3) 0.7582(6)
H11 H 0.4329 0.6915 0.7305
H12 H 0.4816 0.6977 0.8320
C14 C 0.5268(7) 0.7500 0.7164(9)
H13 H 0.5240 0.7500 0.6420
H14 H 0.5822 0.7500 0.7364
C15 C 0.6450(6) 0.6422(5) 0.3998(8)
H15 H 0.6125 0.6761 0.4174
C16 C 0.7013(6) 0.6516(4) 0.3257(8)
H16 H 0.7047 0.6905 0.2926
C17 C 0.7519(5) 0.6048(4) 0.3004(6)
C18 C 0.7404(5) 0.5480(4) 0.3500(6)
H17 H 0.7729 0.5137 0.3351
C19 C 0.6818(5) 0.5421(4) 0.4204(6)
H18 H 0.6747 0.5030 0.4518
C20 C 0.8113(6) 0.6159(4) 0.2220(7)
H19 H 0.8189 0.6578 0.2026
C21 C 0.8547(5) 0.5745(4) 0.1760(6)
H20 H 0.8495 0.5324 0.1959
C22 C 0.9126(5) 0.5895(4) 0.0931(6)
P2 P 0.53270(11) 0.88345(9) 0.73326(14)
C23 C 0.6309(4) 0.8747(3) 0.7888(6)
C24 C 0.6943(5) 0.8930(4) 0.7334(7)
H21 H 0.6865 0.9098 0.6681
C25 C 0.7707(6) 0.8876(6) 0.7708(10)
H22 H 0.8138 0.9001 0.7312
C26 C 0.7816(6) 0.8637(6) 0.8661(9)
H23 H 0.8325 0.8612 0.8931
C27 C 0.7194(7) 0.8435(6) 0.9224(8)
H24 H 0.7277 0.8255 0.9867
C28 C 0.6432(5) 0.8498(5) 0.8839(7)
H25 H 0.6001 0.8370 0.9234
C29 C 0.4790(4) 0.9354(3) 0.8200(6)
C30 C 0.4586(5) 0.9949(4) 0.7857(7)
C33 C 0.4088(6) 0.9558(5) 0.9746(8)
C34 C 0.4532(5) 0.9179(4) 0.9155(7)
H30 H 0.4670 0.8782 0.9403
C35 C 0.4863(4) 0.8073(3) 0.7582(6)
H31 H 0.4329 0.8085 0.7305
H32 H 0.4816 0.8023 0.8320
Ag2 Ag 0.53428(4) 0.92135(3) 0.56541(4)
O3 O 0.9238(4) 0.8559(3) 0.0673(5)
O4 O 0.9440(3) 0.9568(2) 0.0520(4)
N2 N 0.6343(4) 0.9111(3) 0.4467(5)
C36 C 0.6450(6) 0.8578(5) 0.3998(8)
H33 H 0.6125 0.8239 0.4174
C37 C 0.7013(6) 0.8484(4) 0.3257(8)
H34 H 0.7047 0.8095 0.2926
C38 C 0.7519(5) 0.8952(4) 0.3004(6)
C39 C 0.7404(5) 0.9520(4) 0.3500(6)
H35 H 0.7729 0.9863 0.3351
C40 C 0.6818(5) 0.9579(4) 0.4204(6)
H36 H 0.6747 0.9970 0.4518
C41 C 0.8113(6) 0.8841(4) 0.2220(7)
H37 H 0.8189 0.8422 0.2026
C42 C 0.8547(5) 0.9255(4) 0.1760(6)
H38 H 0.8495 0.9676 0.1959
C43 C 0.9126(5) 0.9105(4) 0.0931(6)
Ag3 Ag 0.96572(4) 0.42135(3) 0.06541(4)
O5 O 0.5560(3) 0.4568(2) 0.5520(4)
O6 O 0.4440(3) 0.9568(2) 0.4480(4)
O7 O 0.4440(3) 0.5432(2) 0.4480(4)
O6_2 O 0.0560(3) 0.0432(2) 0.9480(4)
O7_2 O 0.0560(3) 0.4568(2) 0.9480(4)
P1_2 P 0.96730(11) 0.38345(9) 0.23326(14)
C1_2 C 0.8691(4) 0.3747(3) 0.2888(6)
C2_2 C 0.8057(5) 0.3930(4) 0.2334(7)
H1_2 H 0.8135 0.4098 0.1681
C3_2 C 0.7293(6) 0.3876(6) 0.2708(10)
H2_2 H 0.6862 0.4001 0.2312
C4_2 C 0.7184(6) 0.3637(6) 0.3661(9)
H3_2 H 0.6675 0.3612 0.3931
C5_2 C 0.7806(7) 0.3435(6) 0.4224(8)
H4_2 H 0.7723 0.3255 0.4867
C6_2 C 0.8568(5) 0.3498(5) 0.3839(7)
H5_2 H 0.8999 0.3370 0.4234
C14_2 C 0.9732(7) 0.2500 0.2164(9)
H13_2 H 0.9760 0.2500 0.1420
H14_2 H 0.9178 0.2500 0.2364
P2_2 P 0.96730(11) 0.11655(9) 0.23326(14)
C23_2 C 0.8691(4) 0.1253(3) 0.2888(6)
C24_2 C 0.8057(5) 0.1070(4) 0.2334(7)
H21_2 H 0.8135 0.0902 0.1681
C25_2 C 0.7293(6) 0.1124(6) 0.2708(10)
H22_2 H 0.6862 0.0999 0.2312
C26_2 C 0.7184(6) 0.1363(6) 0.3661(9)
H23_2 H 0.6675 0.1388 0.3931
C27_2 C 0.7806(7) 0.1565(6) 0.4224(8)
H24_2 H 0.7723 0.1745 0.4867
C28_2 C 0.8568(5) 0.1502(5) 0.3839(7)
H25_2 H 0.8999 0.1630 0.4234
O1_2 O 0.5762(4) 0.3559(3) 0.5673(5)
N1_2 N 0.8657(4) 0.4111(3) 0.9467(5)
C15_2 C 0.8550(6) 0.3578(5) 0.8998(8)
H15_2 H 0.8875 0.3239 0.9174
C16_2 C 0.7987(6) 0.3484(4) 0.8257(8)
H16_2 H 0.7953 0.3095 0.7926
C17_2 C 0.7481(5) 0.3952(4) 0.8004(6)
C18_2 C 0.7596(5) 0.4520(4) 0.8500(6)
H17_2 H 0.7271 0.4863 0.8351
C19_2 C 0.8182(5) 0.4579(4) 0.9204(6)
H18_2 H 0.8253 0.4970 0.9518
C20_2 C 0.6887(6) 0.3841(4) 0.7220(7)
H19_2 H 0.6811 0.3422 0.7026
C21_2 C 0.6453(5) 0.4255(4) 0.6760(6)
H20_2 H 0.6505 0.4676 0.6959
C22_2 C 0.5874(5) 0.4105(4) 0.5931(6)
O3_2 O 0.5762(4) 0.1441(3) 0.5673(5)
N2_2 N 0.8657(4) 0.0889(3) 0.9467(5)
C36_2 C 0.8550(6) 0.1422(5) 0.8998(8)
H33_2 H 0.8875 0.1761 0.9174
C37_2 C 0.7987(6) 0.1516(4) 0.8257(8)
H34_2 H 0.7953 0.1905 0.7926
C38_2 C 0.7481(5) 0.1048(4) 0.8004(6)
C39_2 C 0.7596(5) 0.0480(4) 0.8500(6)
H35_2 H 0.7271 0.0137 0.8351
C40_2 C 0.8182(5) 0.0421(4) 0.9204(6)
H36_2 H 0.8253 0.0030 0.9518
C41_2 C 0.6887(6) 0.1159(4) 0.7220(7)
H37_2 H 0.6811 0.1578 0.7026
C42_2 C 0.6453(5) 0.0745(4) 0.6760(6)
H38_2 H 0.6505 0.0324 0.6959
C43_2 C 0.5874(5) 0.0895(4) 0.5931(6)
Ag4_2 Ag 0.46572(4) 0.07865(3) 0.43459(4)
Ag5_2 Ag 0.46572(4) 0.42135(3) 0.43459(4)
P1_3 P 0.46730(11) 0.11655(9) 0.26674(14)
O1_3 O 0.0762(4) 0.1441(3) 0.9327(5)
N1_3 N 0.3657(4) 0.0889(3) 0.5533(5)
C1_3 C 0.3691(4) 0.1253(3) 0.2112(6)
C2_3 C 0.3057(5) 0.1070(4) 0.2666(7)
H1_3 H 0.3135 0.0902 0.3319
C3_3 C 0.2293(6) 0.1124(6) 0.2292(10)
H2_3 H 0.1862 0.0999 0.2688
C4_3 C 0.2184(6) 0.1363(6) 0.1339(9)
H3_3 H 0.1675 0.1388 0.1069
C5_3 C 0.2806(7) 0.1565(6) 0.0776(8)
H4_3 H 0.2723 0.1745 0.0133
C6_3 C 0.3568(5) 0.1502(5) 0.1161(7)
H5_3 H 0.3999 0.1630 0.0766
C7_2 C 0.5210(4) 0.0646(3) 0.1800(6)
C8_2 C 0.5414(5) 0.0051(4) 0.2143(7)
C11_2 C 0.5912(6) 0.0442(5) 0.0254(8)
C12_2 C 0.5468(5) 0.0821(4) 0.0845(7)
H10_2 H 0.5330 0.1218 0.0597
C13_2 C 0.5137(4) 0.1927(3) 0.2418(6)
H11_2 H 0.5671 0.1915 0.2695
H12_2 H 0.5184 0.1977 0.1680
C14_3 C 0.4732(7) 0.2500 0.2836(9)
H13_3 H 0.4760 0.2500 0.3580
H14_3 H 0.4178 0.2500 0.2636
C15_3 C 0.3550(6) 0.1422(5) 0.6002(8)
H15_3 H 0.3875 0.1761 0.5826
C16_3 C 0.2987(6) 0.1516(4) 0.6743(8)
H16_3 H 0.2953 0.1905 0.7074
C17_3 C 0.2481(5) 0.1048(4) 0.6996(6)
C18_3 C 0.2596(5) 0.0480(4) 0.6500(6)
H17_3 H 0.2271 0.0137 0.6649
C19_3 C 0.3182(5) 0.0421(4) 0.5796(6)
H18_3 H 0.3253 0.0030 0.5482
C20_3 C 0.1887(6) 0.1159(4) 0.7780(7)
H19_3 H 0.1811 0.1578 0.7974
C21_3 C 0.1453(5) 0.0745(4) 0.8240(6)
H20_3 H 0.1505 0.0324 0.8041
C22_3 C 0.0874(5) 0.0895(4) 0.9069(6)
P2_3 P 0.46730(11) 0.38345(9) 0.26674(14)
C23_3 C 0.3691(4) 0.3747(3) 0.2112(6)
C24_3 C 0.3057(5) 0.3930(4) 0.2666(7)
H21_3 H 0.3135 0.4098 0.3319
C25_3 C 0.2293(6) 0.3876(6) 0.2292(10)
H22_3 H 0.1862 0.4001 0.2688
C26_3 C 0.2184(6) 0.3637(6) 0.1339(9)
H23_3 H 0.1675 0.3612 0.1069
C27_3 C 0.2806(7) 0.3435(6) 0.0776(8)
H24_3 H 0.2723 0.3255 0.0133
C28_3 C 0.3568(5) 0.3498(5) 0.1161(7)
H25_3 H 0.3999 0.3370 0.0766
C29_2 C 0.5210(4) 0.4354(3) 0.1800(6)
C30_2 C 0.5414(5) 0.4949(4) 0.2143(7)
H26_2 H 0.5248 0.5082 0.2790
C31_2 C 0.5856(6) 0.5346(5) 0.1543(9)
H27_2 H 0.5980 0.5751 0.1774
C32_2 C 0.6111(7) 0.5147(6) 0.0616(10)
H28_2 H 0.6427 0.5412 0.0217
C33_2 C 0.5912(6) 0.4558(5) 0.0254(8)
C34_2 C 0.5468(5) 0.4179(4) 0.0845(7)
H30_2 H 0.5330 0.3782 0.0597
C35_2 C 0.5137(4) 0.3073(3) 0.2418(6)
H31_2 H 0.5671 0.3085 0.2695
H32_2 H 0.5184 0.3023 0.1680
O3_3 O 0.0762(4) 0.3559(3) 0.9327(5)
N2_3 N 0.3657(4) 0.4111(3) 0.5533(5)
C36_3 C 0.3550(6) 0.3578(5) 0.6002(8)
H33_3 H 0.3875 0.3239 0.5826
C37_3 C 0.2987(6) 0.3484(4) 0.6743(8)
H34_3 H 0.2953 0.3095 0.7074
C38_3 C 0.2481(5) 0.3952(4) 0.6996(6)
C39_3 C 0.2596(5) 0.4520(4) 0.6500(6)
H35_3 H 0.2271 0.4863 0.6649
C40_3 C 0.3182(5) 0.4579(4) 0.5796(6)
H36_3 H 0.3253 0.4970 0.5482
C41_3 C 0.1887(6) 0.3841(4) 0.7780(7)
H37_3 H 0.1811 0.3422 0.7974
C42_3 C 0.1453(5) 0.4255(4) 0.8240(6)
H38_3 H 0.1505 0.4676 0.8041
C43_3 C 0.0874(5) 0.4105(4) 0.9069(6)
H6_2 H 0.5248 0.9918 0.2790
C9_2 C 0.5856(6) 0.9654(5) 0.1543(9)
H7_2 H 0.5980 0.9249 0.1774
C10_2 C 0.6111(7) 0.9853(6) 0.0616(10)
H8_2 H 0.6427 0.9588 0.0217
O1_4 O 0.4238(4) 0.8559(3) 0.4327(5)
N1_4 N 0.1343(4) 0.9111(3) 0.0533(5)
C15_4 C 0.1450(6) 0.8578(5) 0.1002(8)
H15_4 H 0.1125 0.8239 0.0826
C16_4 C 0.2013(6) 0.8484(4) 0.1743(8)
H16_4 H 0.2047 0.8095 0.2074
C17_4 C 0.2519(5) 0.8952(4) 0.1996(6)
C18_4 C 0.2404(5) 0.9520(4) 0.1500(6)
H17_4 H 0.2729 0.9863 0.1649
C19_4 C 0.1818(5) 0.9579(4) 0.0796(6)
H18_4 H 0.1747 0.9970 0.0482
C20_4 C 0.3113(6) 0.8841(4) 0.2780(7)
H19_4 H 0.3189 0.8422 0.2974
C21_4 C 0.3547(5) 0.9255(4) 0.3240(6)
H20_4 H 0.3495 0.9676 0.3041
C22_4 C 0.4126(5) 0.9105(4) 0.4069(6)
O3_4 O 0.4238(4) 0.6441(3) 0.4327(5)
N2_4 N 0.1343(4) 0.5889(3) 0.0533(5)
C36_4 C 0.1450(6) 0.6422(5) 0.1002(8)
H33_4 H 0.1125 0.6761 0.0826
C37_4 C 0.2013(6) 0.6516(4) 0.1743(8)
H34_4 H 0.2047 0.6905 0.2074
C38_4 C 0.2519(5) 0.6048(4) 0.1996(6)
C39_4 C 0.2404(5) 0.5480(4) 0.1500(6)
H35_4 H 0.2729 0.5137 0.1649
C40_4 C 0.1818(5) 0.5421(4) 0.0796(6)
H36_4 H 0.1747 0.5030 0.0482
C41_4 C 0.3113(6) 0.6159(4) 0.2780(7)
H37_4 H 0.3189 0.6578 0.2974
C42_4 C 0.3547(5) 0.5745(4) 0.3240(6)
H38_4 H 0.3495 0.5324 0.3041
C43_4 C 0.4126(5) 0.5895(4) 0.4069(6)
P1_4 P 0.03270(11) 0.88345(9) 0.76674(14)
C1_4 C 0.1309(4) 0.8747(3) 0.7112(6)
C2_4 C 0.1943(5) 0.8930(4) 0.7666(7)
H1_4 H 0.1865 0.9098 0.8319
C3_4 C 0.2707(6) 0.8876(6) 0.7292(10)
H2_4 H 0.3138 0.9001 0.7688
C4_4 C 0.2816(6) 0.8637(6) 0.6339(9)
H3_4 H 0.3325 0.8612 0.6069
C5_4 C 0.2194(7) 0.8435(6) 0.5776(8)
H4_4 H 0.2277 0.8255 0.5133
C6_4 C 0.1432(5) 0.8498(5) 0.6161(7)
H5_4 H 0.1001 0.8370 0.5766
C14_4 C 0.0268(7) 0.7500 0.7836(9)
H13_4 H 0.0240 0.7500 0.8580
H14_4 H 0.0822 0.7500 0.7636
P2_4 P 0.03270(11) 0.61655(9) 0.76674(14)
C23_4 C 0.1309(4) 0.6253(3) 0.7112(6)
C24_4 C 0.1943(5) 0.6070(4) 0.7666(7)
H21_4 H 0.1865 0.5902 0.8319
C25_4 C 0.2707(6) 0.6124(6) 0.7292(10)
H22_4 H 0.3138 0.5999 0.7688
C26_4 C 0.2816(6) 0.6363(6) 0.6339(9)
H23_4 H 0.3325 0.6388 0.6069
C27_4 C 0.2194(7) 0.6565(6) 0.5776(8)
H24_4 H 0.2277 0.6745 0.5133
C28_4 C 0.1432(5) 0.6502(5) 0.6161(7)
H25_4 H 0.1001 0.6630 0.5766
H9 H 0.3918 0.5575 0.0390
H29 H 0.3918 0.9425 0.0390
C7_3 C 0.0210(4) 0.4354(3) 0.3200(6)
C8_3 C 0.0414(5) 0.4949(4) 0.2857(7)
H6_3 H 0.0248 0.5082 0.2210
C9_3 C 0.0856(6) 0.5346(5) 0.3457(9)
H7_3 H 0.0980 0.5751 0.3226
C10_3 C 0.1111(7) 0.5147(6) 0.4384(10)
H8_3 H 0.1427 0.5412 0.4783
C11_3 C 0.0912(6) 0.4558(5) 0.4746(8)
H9_2 H 0.1082 0.4425 0.5390
C12_3 C 0.0468(5) 0.4179(4) 0.4155(7)
H10_3 H 0.0330 0.3782 0.4403
C13_3 C 0.0137(4) 0.3073(3) 0.2582(6)
H11_3 H 0.0671 0.3085 0.2305
H12_3 H 0.0184 0.3023 0.3320
C29_3 C 0.0210(4) 0.0646(3) 0.3200(6)
C30_3 C 0.0414(5) 0.0051(4) 0.2857(7)
C33_3 C 0.0912(6) 0.0442(5) 0.4746(8)
H29_2 H 0.1082 0.0575 0.5390
C34_3 C 0.0468(5) 0.0821(4) 0.4155(7)
H30_3 H 0.0330 0.1218 0.4403
C35_3 C 0.0137(4) 0.1927(3) 0.2582(6)
H31_3 H 0.0671 0.1915 0.2305
H32_3 H 0.0184 0.1977 0.3320
H26_3 H 0.0248 0.9918 0.2210
C31_3 C 0.0856(6) 0.9654(5) 0.3457(9)
H27_3 H 0.0980 0.9249 0.3226
C32_3 C 0.1111(7) 0.9853(6) 0.4384(10)
H28_3 H 0.1427 0.9588 0.4783
H9_3 H 0.6082 0.0575 0.9610
H29_3 H 0.6082 0.4425 0.9610
H6_4 H 0.9752 0.0082 0.7790
C9_4 C 0.9144(6) 0.0346(5) 0.6543(9)
H7_4 H 0.9020 0.0751 0.6774
C10_4 C 0.8889(7) 0.0147(6) 0.5616(10)
H8_4 H 0.8573 0.0412 0.5217
C7_4 C 0.9790(4) 0.9354(3) 0.6800(6)
C8_4 C 0.9586(5) 0.9949(4) 0.7143(7)
C11_4 C 0.9088(6) 0.9558(5) 0.5254(8)
H9_4 H 0.8918 0.9425 0.4610
C12_4 C 0.9532(5) 0.9179(4) 0.5845(7)
H10_4 H 0.9670 0.8782 0.5597
C13_4 C 0.9863(4) 0.8073(3) 0.7418(6)
H11_4 H 0.9329 0.8085 0.7695
H12_4 H 0.9816 0.8023 0.6680
C29_4 C 0.9790(4) 0.5646(3) 0.6800(6)
C30_4 C 0.9586(5) 0.5051(4) 0.7143(7)
H26_4 H 0.9752 0.4918 0.7790
C31_4 C 0.9144(6) 0.4654(5) 0.6543(9)
H27_4 H 0.9020 0.4249 0.6774
C32_4 C 0.8889(7) 0.4853(6) 0.5616(10)
H28_4 H 0.8573 0.4588 0.5217
C33_4 C 0.9088(6) 0.5442(5) 0.5254(8)
H29_4 H 0.8918 0.5575 0.4610
C34_4 C 0.9532(5) 0.5821(4) 0.5845(7)
H30_4 H 0.9670 0.6218 0.5597
C35_4 C 0.9863(4) 0.6927(3) 0.7418(6)
H31_4 H 0.9329 0.6915 0.7695
H32_4 H 0.9816 0.6977 0.6680
loop_
_geom_bond_atom_site_label_1
_geom_bond_atom_site_label_2
_geom_bond_site_symmetry_1
_geom_bond_site_symmetry_2
H27 C31 1_555 1_555
C32 C31 1_555 1_555
H28 C32 1_555 1_555
Ag1 P1 1_555 1_555
P1 C1 1_555 1_555
O1 C22 1_555 1_555
O2 C22 1_555 1_555
N1 Ag1 1_555 1_555
C1 C2 1_555 1_555
C2 H1 1_555 1_555
C3 C2 1_555 1_555
H2 C3 1_555 1_555
C4 C3 1_555 1_555
H3 C4 1_555 1_555
C5 C4 1_555 1_555
H4 C5 1_555 1_555
C6 C1 1_555 1_555
H5 C6 1_555 1_555
C7 P1 1_555 1_555
C8 C7 1_555 1_555
H6 C8 1_555 1_555
C9 C8 1_555 1_555
H7 C9 1_555 1_555
C10 C9 1_555 1_555
H8 C10 1_555 1_555
C11 C10 1_555 1_555
C12 C7 1_555 1_555
H10 C12 1_555 1_555
C13 P1 1_555 1_555
H11 C13 1_555 1_555
H12 C13 1_555 1_555
C14 C13 1_555 1_555
H13 C14 1_555 1_555
H14 C14 1_555 1_555
C15 N1 1_555 1_555
H15 C15 1_555 1_555
C16 C15 1_555 1_555
H16 C16 1_555 1_555
C17 C16 1_555 1_555
C18 C17 1_555 1_555
H17 C18 1_555 1_555
C19 N1 1_555 1_555
H18 C19 1_555 1_555
C20 C17 1_555 1_555
H19 C20 1_555 1_555
C21 C20 1_555 1_555
H20 C21 1_555 1_555
C22 C21 1_555 1_555
P2 C23 1_555 1_555
C23 C24 1_555 1_555
C24 H21 1_555 1_555
C25 C24 1_555 1_555
H22 C25 1_555 1_555
C26 C25 1_555 1_555
H23 C26 1_555 1_555
C27 C26 1_555 1_555
H24 C27 1_555 1_555
C28 C23 1_555 1_555
H25 C28 1_555 1_555
C29 P2 1_555 1_555
C30 C29 1_555 1_555
C34 C29 1_555 1_555
H30 C34 1_555 1_555
C35 C14 1_555 1_555
H31 C35 1_555 1_555
H32 C35 1_555 1_555
Ag2 P2 1_555 1_555
O3 C43 1_555 1_555
O4 C43 1_555 1_555
N2 Ag2 1_555 1_555
C36 N2 1_555 1_555
H33 C36 1_555 1_555
C37 C36 1_555 1_555
H34 C37 1_555 1_555
C38 C37 1_555 1_555
C39 C38 1_555 1_555
H35 C39 1_555 1_555
C40 N2 1_555 1_555
H36 C40 1_555 1_555
C41 C38 1_555 1_555
H37 C41 1_555 1_555
C42 C41 1_555 1_555
H38 C42 1_555 1_555
C43 C42 1_555 1_555
Ag3 O2 1_555 1_555
O5 Ag1 1_555 1_555
O6 Ag2 1_555 1_555
O7 Ag1 1_555 1_555
C5 C6 1_555 1_555
C11 C12 1_555 1_555
C18 C19 1_555 1_555
P2 C35 1_555 1_555
C27 C28 1_555 1_555
C33 C34 1_555 1_555
C39 C40 1_555 1_555
Ag3 P1_2 1_555 1_555
P1_2 C1_2 1_555 1_555
C1_2 C2_2 1_555 1_555
C2_2 H1_2 1_555 1_555
C3_2 C2_2 1_555 1_555
H2_2 C3_2 1_555 1_555
C4_2 C3_2 1_555 1_555
H3_2 C4_2 1_555 1_555
C5_2 C4_2 1_555 1_555
H4_2 C5_2 1_555 1_555
C6_2 C1_2 1_555 1_555
H5_2 C6_2 1_555 1_555
H13_2 C14_2 1_555 1_555
H14_2 C14_2 1_555 1_555
P2_2 C23_2 1_555 1_555
C23_2 C24_2 1_555 1_555
C24_2 H21_2 1_555 1_555
C25_2 C24_2 1_555 1_555
H22_2 C25_2 1_555 1_555
C26_2 C25_2 1_555 1_555
H23_2 C26_2 1_555 1_555
C27_2 C26_2 1_555 1_555
H24_2 C27_2 1_555 1_555
C28_2 C23_2 1_555 1_555
H25_2 C28_2 1_555 1_555
Ag6 P2_2 1_555 1_555
C5_2 C6_2 1_555 1_555
C27_2 C28_2 1_555 1_555
O1_2 C22_2 1_555 1_555
O5 C22_2 1_555 1_555
C15_2 N1_2 1_555 1_555
H15_2 C15_2 1_555 1_555
C16_2 C15_2 1_555 1_555
H16_2 C16_2 1_555 1_555
C17_2 C16_2 1_555 1_555
C18_2 C17_2 1_555 1_555
H17_2 C18_2 1_555 1_555
C19_2 N1_2 1_555 1_555
H18_2 C19_2 1_555 1_555
C20_2 C17_2 1_555 1_555
H19_2 C20_2 1_555 1_555
C21_2 C20_2 1_555 1_555
H20_2 C21_2 1_555 1_555
C22_2 C21_2 1_555 1_555
O3_2 C43_2 1_555 1_555
O8 C43_2 1_555 1_555
C36_2 N2_2 1_555 1_555
H33_2 C36_2 1_555 1_555
C37_2 C36_2 1_555 1_555
H34_2 C37_2 1_555 1_555
C38_2 C37_2 1_555 1_555
C39_2 C38_2 1_555 1_555
H35_2 C39_2 1_555 1_555
C40_2 N2_2 1_555 1_555
H36_2 C40_2 1_555 1_555
C41_2 C38_2 1_555 1_555
H37_2 C41_2 1_555 1_555
C42_2 C41_2 1_555 1_555
H38_2 C42_2 1_555 1_555
C43_2 C42_2 1_555 1_555
Ag4_2 O8 1_555 1_555
Ag5_2 O5 1_555 1_555
C18_2 C19_2 1_555 1_555
C39_2 C40_2 1_555 1_555
Ag4_2 P1_3 1_555 1_555
P1_3 C1_3 1_555 1_555
O1_3 C22_3 1_555 1_555
O6_2 C22_3 1_555 1_555
N1_3 Ag4_2 1_555 1_555
C1_3 C2_3 1_555 1_555
C2_3 H1_3 1_555 1_555
C3_3 C2_3 1_555 1_555
H2_3 C3_3 1_555 1_555
C4_3 C3_3 1_555 1_555
H3_3 C4_3 1_555 1_555
C5_3 C4_3 1_555 1_555
H4_3 C5_3 1_555 1_555
C6_3 C1_3 1_555 1_555
H5_3 C6_3 1_555 1_555
C7_2 P1_3 1_555 1_555
C8_2 C7_2 1_555 1_555
C12_2 C7_2 1_555 1_555
H10_2 C12_2 1_555 1_555
C13_2 P1_3 1_555 1_555
H11_2 C13_2 1_555 1_555
H12_2 C13_2 1_555 1_555
C14_3 C13_2 1_555 1_555
H13_3 C14_3 1_555 1_555
H14_3 C14_3 1_555 1_555
C15_3 N1_3 1_555 1_555
H15_3 C15_3 1_555 1_555
C16_3 C15_3 1_555 1_555
H16_3 C16_3 1_555 1_555
C17_3 C16_3 1_555 1_555
C18_3 C17_3 1_555 1_555
H17_3 C18_3 1_555 1_555
C19_3 N1_3 1_555 1_555
H18_3 C19_3 1_555 1_555
C20_3 C17_3 1_555 1_555
H19_3 C20_3 1_555 1_555
C21_3 C20_3 1_555 1_555
H20_3 C21_3 1_555 1_555
C22_3 C21_3 1_555 1_555
P2_3 C23_3 1_555 1_555
C23_3 C24_3 1_555 1_555
C24_3 H21_3 1_555 1_555
C25_3 C24_3 1_555 1_555
H22_3 C25_3 1_555 1_555
C26_3 C25_3 1_555 1_555
H23_3 C26_3 1_555 1_555
C27_3 C26_3 1_555 1_555
H24_3 C27_3 1_555 1_555
C28_3 C23_3 1_555 1_555
H25_3 C28_3 1_555 1_555
C29_2 P2_3 1_555 1_555
C30_2 C29_2 1_555 1_555
H26_2 C30_2 1_555 1_555
C31_2 C30_2 1_555 1_555
H27_2 C31_2 1_555 1_555
C32_2 C31_2 1_555 1_555
H28_2 C32_2 1_555 1_555
C33_2 C32_2 1_555 1_555
C34_2 C29_2 1_555 1_555
H30_2 C34_2 1_555 1_555
C35_2 C14_3 1_555 1_555
H31_2 C35_2 1_555 1_555
H32_2 C35_2 1_555 1_555
Ag5_2 P2_3 1_555 1_555
O3_3 C43_3 1_555 1_555
O7_2 C43_3 1_555 1_555
N2_3 Ag5_2 1_555 1_555
C36_3 N2_3 1_555 1_555
H33_3 C36_3 1_555 1_555
C37_3 C36_3 1_555 1_555
H34_3 C37_3 1_555 1_555
C38_3 C37_3 1_555 1_555
C39_3 C38_3 1_555 1_555
H35_3 C39_3 1_555 1_555
C40_3 N2_3 1_555 1_555
H36_3 C40_3 1_555 1_555
C41_3 C38_3 1_555 1_555
H37_3 C41_3 1_555 1_555
C42_3 C41_3 1_555 1_555
H38_3 C42_3 1_555 1_555
C43_3 C42_3 1_555 1_555
Ag5 O7_2 1_555 1_555
O7 Ag5_2 1_555 1_555
C5_3 C6_3 1_555 1_555
C11_2 C12_2 1_555 1_555
C18_3 C19_3 1_555 1_555
P2_3 C35_2 1_555 1_555
C27_3 C28_3 1_555 1_555
C33_2 C34_2 1_555 1_555
C39_3 C40_3 1_555 1_555
H7_2 C9_2 1_555 1_555
C10_2 C9_2 1_555 1_555
H8_2 C10_2 1_555 1_555
O1_4 C22_4 1_555 1_555
O6 C22_4 1_555 1_555
C15_4 N1_4 1_555 1_555
H15_4 C15_4 1_555 1_555
C16_4 C15_4 1_555 1_555
H16_4 C16_4 1_555 1_555
C17_4 C16_4 1_555 1_555
C18_4 C17_4 1_555 1_555
H17_4 C18_4 1_555 1_555
C19_4 N1_4 1_555 1_555
H18_4 C19_4 1_555 1_555
C20_4 C17_4 1_555 1_555
H19_4 C20_4 1_555 1_555
C21_4 C20_4 1_555 1_555
H20_4 C21_4 1_555 1_555
C22_4 C21_4 1_555 1_555
O3_4 C43_4 1_555 1_555
O7 C43_4 1_555 1_555
C36_4 N2_4 1_555 1_555
H33_4 C36_4 1_555 1_555
C37_4 C36_4 1_555 1_555
H34_4 C37_4 1_555 1_555
C38_4 C37_4 1_555 1_555
C39_4 C38_4 1_555 1_555
H35_4 C39_4 1_555 1_555
C40_4 N2_4 1_555 1_555
H36_4 C40_4 1_555 1_555
C41_4 C38_4 1_555 1_555
H37_4 C41_4 1_555 1_555
C42_4 C41_4 1_555 1_555
H38_4 C42_4 1_555 1_555
C43_4 C42_4 1_555 1_555
C18_4 C19_4 1_555 1_555
C39_4 C40_4 1_555 1_555
Ag4 P1_4 1_555 1_555
P1_4 C1_4 1_555 1_555
C1_4 C2_4 1_555 1_555
C2_4 H1_4 1_555 1_555
C3_4 C2_4 1_555 1_555
H2_4 C3_4 1_555 1_555
C4_4 C3_4 1_555 1_555
H3_4 C4_4 1_555 1_555
C5_4 C4_4 1_555 1_555
H4_4 C5_4 1_555 1_555
C6_4 C1_4 1_555 1_555
H5_4 C6_4 1_555 1_555
H13_4 C14_4 1_555 1_555
H14_4 C14_4 1_555 1_555
P2_4 C23_4 1_555 1_555
C23_4 C24_4 1_555 1_555
C24_4 H21_4 1_555 1_555
C25_4 C24_4 1_555 1_555
H22_4 C25_4 1_555 1_555
C26_4 C25_4 1_555 1_555
H23_4 C26_4 1_555 1_555
C27_4 C26_4 1_555 1_555
H24_4 C27_4 1_555 1_555
C28_4 C23_4 1_555 1_555
H25_4 C28_4 1_555 1_555
Ag5 P2_4 1_555 1_555
C5_4 C6_4 1_555 1_555
C27_4 C28_4 1_555 1_555
C8_3 C7_3 1_555 1_555
H6_3 C8_3 1_555 1_555
C9_3 C8_3 1_555 1_555
H7_3 C9_3 1_555 1_555
C10_3 C9_3 1_555 1_555
H8_3 C10_3 1_555 1_555
C11_3 C10_3 1_555 1_555
H9_2 C11_3 1_555 1_555
C12_3 C7_3 1_555 1_555
H10_3 C12_3 1_555 1_555
H11_3 C13_3 1_555 1_555
H12_3 C13_3 1_555 1_555
C30_3 C29_3 1_555 1_555
H29_2 C33_3 1_555 1_555
C34_3 C29_3 1_555 1_555
H30_3 C34_3 1_555 1_555
H31_3 C35_3 1_555 1_555
H32_3 C35_3 1_555 1_555
C11_3 C12_3 1_555 1_555
C33_3 C34_3 1_555 1_555
H27_3 C31_3 1_555 1_555
C32_3 C31_3 1_555 1_555
H28_3 C32_3 1_555 1_555
H7_4 C9_4 1_555 1_555
C10_4 C9_4 1_555 1_555
H8_4 C10_4 1_555 1_555
C8_4 C7_4 1_555 1_555
H9_4 C11_4 1_555 1_555
C12_4 C7_4 1_555 1_555
H10_4 C12_4 1_555 1_555
H11_4 C13_4 1_555 1_555
H12_4 C13_4 1_555 1_555
C30_4 C29_4 1_555 1_555
H26_4 C30_4 1_555 1_555
C31_4 C30_4 1_555 1_555
H27_4 C31_4 1_555 1_555
C32_4 C31_4 1_555 1_555
H28_4 C32_4 1_555 1_555
C33_4 C32_4 1_555 1_555
H29_4 C33_4 1_555 1_555
C34_4 C29_4 1_555 1_555
H30_4 C34_4 1_555 1_555
H31_4 C35_4 1_555 1_555
H32_4 C35_4 1_555 1_555
C11_4 C12_4 1_555 1_555
C33_4 C34_4 1_555 1_555

#END
