
###############################################################################
#
# This file contains modified crystal structure data generated from the
# MOF subset of the Cambridge Structural Database (CSD) v543 
# hosted by the Cambridge Crystallographic Data Centre (CCDC).
#
# This work is licensed under the Creative Commons
# Attribution-NonCommercial-ShareAlike 4.0 International License.
# To view a copy of this license, visit
# http://creativecommons.org/licenses/by-nc-sa/4.0/
# or send a letter to
# Creative Commons, PO Box 1866, Mountain View, CA 94042, USA.
#
# CIF created using the CSD Python API on 29 September 2022
# The structure has been converted into the P1 space group
# The structure has a 3D framework
# The original CSD entry TEZKAM is in the monoclinic crystal system
# The framework has been calculated to contain at least 10.0% void space
# The void calculation uses a probe of radius 1.32A, grid spacing 0.4
#
###############################################################################

data_TEZKAM
_chemical_formula_moiety         '(C216 H144 N8 O48 Zn12)n'
_symmetry_cell_setting           triclinic
_symmetry_space_group_name_H-M   'P 1'
_symmetry_Int_Tables_number      1
_space_group_name_Hall           'P 1'
loop_
_symmetry_equiv_pos_site_id
_symmetry_equiv_pos_as_xyz
1 x,y,z
_cell_length_a                   14.586(2)
_cell_length_b                   18.068(3)
_cell_length_c                   24.846(3)
_cell_angle_alpha                90
_cell_angle_beta                 90.000(5)
_cell_angle_gamma                90
_cell_volume                     6547.91
loop_
_atom_site_label
_atom_site_type_symbol
_atom_site_fract_x
_atom_site_fract_y
_atom_site_fract_z
Zn9 Zn 0.03416(4) 0.94727(3) 0.64361(3)
N1 N 0.4670(3) 0.05309(19) 0.1436(2)
N2 N 0.5262(3) 0.4392(2) 0.1432(2)
C1 C 0.5153(4) 0.0877(3) 0.1054(2)
H1 H 0.5418 0.0590 0.0774
C2 C 0.5284(5) 0.1640(3) 0.1049(3)
H2 H 0.5622 0.1873 0.0769
C3 C 0.4907(4) 0.2047(2) 0.1463(3)
C4 C 0.4405(5) 0.1696(3) 0.1861(3)
C5 C 0.3931(8) 0.2089(5) 0.2316(4)
H3 H 0.3486 0.2443 0.2169
H4 H 0.4385 0.2354 0.2533
H5 H 0.3611 0.1727 0.2541
C6 C 0.4321(5) 0.0936(3) 0.1827(3)
H6 H 0.3991 0.0689 0.2103
C7 C 0.4793(4) 0.4045(3) 0.1039(3)
H7 H 0.4547 0.4325 0.0750
C8 C 0.4665(5) 0.3289(3) 0.1051(3)
H8 H 0.4314 0.3054 0.0779
C9 C 0.5057(4) 0.2866(3) 0.1469(3)
C10 C 0.5605(5) 0.3230(3) 0.1847(3)
C11 C 0.6184(7) 0.2838(4) 0.2255(4)
H9 H 0.6087 0.2303 0.2225
H10 H 0.6014 0.3004 0.2617
H11 H 0.6832 0.2951 0.2189
C12 C 0.5666(5) 0.3993(3) 0.1815(3)
H12 H 0.6014 0.4246 0.2081
Zn7 Zn 0.53416(4) 0.55273(3) 0.14361(3)
Zn1 Zn 0.46049(4) 0.93962(3) 0.14407(3)
Zn2 Zn 0.49629(4) 0.74682(3) 0.14498(2)
O1 O 0.3304(3) 0.9146(2) 0.1511(2)
O2 O 0.3824(3) 0.8083(3) 0.12049(18)
O5 O 0.5261(3) 0.9251(2) 0.07734(16)
O6 O 0.5841(3) 0.8160(2) 0.10216(17)
O9 O 0.5320(4) 0.9220(2) 0.20932(16)
O10 O 0.5056(3) 0.8018(2) 0.21767(17)
O11 O 0.9582(3) 0.9318(2) 0.58083(16)
O12 O 0.9832(3) 0.8110(2) 0.57465(16)
C13 C 0.3192(4) 0.8483(3) 0.1382(3)
C14 C 0.2241(4) 0.8189(3) 0.1405(4)
C15 C 0.1513(5) 0.8626(3) 0.1593(3)
H13 H 0.1629 0.9110 0.1725
C16 C 0.0602(4) 0.8346(3) 0.1584(3)
H14 H 0.0109 0.8638 0.1717
C17 C 0.0437(4) 0.7635(3) 0.1378(4)
C18 C 0.1179(5) 0.7198(4) 0.1203(4)
H15 H 0.1073 0.6712 0.1072
C19 C 0.2060(5) 0.7475(4) 0.1222(4)
H16 H 0.2554 0.7171 0.1107
C27 C 0.5753(5) 0.8665(3) 0.0698(3)
C28 C 0.6341(5) 0.8668(3) 0.0211(3)
H21 H 0.6209 0.9767 0.0028
C33 C 0.6708(6) 0.8009(4) 0.0023(3)
H24 H 0.6589 0.7562 0.0212
C41 C 0.5438(5) 0.8618(3) 0.2314(2)
C42 C 0.6009(5) 0.8623(3) 0.2799(3)
C43 C 0.6502(6) 0.9216(4) 0.2941(3)
H29 H 0.6478 0.9650 0.2726
C44 C 0.7059(7) 0.9206(4) 0.3408(3)
H30 H 0.7437 0.9621 0.3486
C45 C 0.7063(5) 0.8617(3) 0.3745(3)
C46 C 0.6535(5) 0.8004(3) 0.3628(3)
H31 H 0.6528 0.7591 0.3865
C47 C 0.6004(5) 0.7996(3) 0.3151(3)
H32 H 0.5643 0.7575 0.3065
C48 C 0.7636(5) 0.8637(3) 0.4239(3)
C49 C 0.7927(4) 0.9311(3) 0.4443(2)
H33 H 0.7742 0.9760 0.4276
C50 C 0.8494(5) 0.9324(3) 0.4896(2)
H34 H 0.8702 0.9787 0.5031
C51 C 0.8756(5) 0.8689(3) 0.5150(2)
C52 C 0.8482(6) 0.8010(4) 0.4937(3)
H35 H 0.8683 0.7563 0.5100
C53 C 0.7921(5) 0.7985(3) 0.4490(3)
H36 H 0.7728 0.7520 0.4351
C54 C 0.9392(5) 0.8706(3) 0.5624(2)
Zn6 Zn 0.99629(4) 0.75318(3) 0.64498(2)
O13 O 0.6144(3) 0.6889(2) 0.16666(19)
O15 O 0.4116(3) 0.6752(2) 0.18780(17)
O17 O 0.4832(3) 0.6890(2) 0.07465(16)
O7 O 0.9796(3) 0.9297(2) 0.71279(17)
O8 O 0.9116(3) 0.8248(2) 0.68780(17)
C29 C 0.6487(5) 0.9317(3) 0.9916(2)
C30 C 0.7033(5) 0.9310(3) 0.9463(2)
H22 H 0.7144 0.9759 0.9275
C31 C 0.7421(5) 0.8657(3) 0.9276(3)
C32 C 0.7254(6) 0.7992(4) 0.9555(3)
H23 H 0.7507 0.7539 0.9430
C34 C 0.7967(6) 0.8651(3) 0.8769(3)
C35 C 0.8426(6) 0.9282(3) 0.8593(3)
H25 H 0.8404 0.9716 0.8809
C36 C 0.8910(5) 0.9301(3) 0.8117(2)
H26 H 0.9246 0.9730 0.8018
C37 C 0.8897(5) 0.8686(3) 0.7788(3)
C38 C 0.8433(6) 0.8056(4) 0.7940(3)
H27 H 0.8406 0.7641 0.7706
C39 C 0.8012(7) 0.8034(4) 0.8431(3)
H28 H 0.7741 0.7583 0.8547
C40 C 0.9332(5) 0.8718(3) 0.7229(3)
O3 O 0.6639(3) 0.5783(2) 0.1424(2)
C20 C 0.9484(4) 0.7338(3) 0.1397(4)
C21 C 0.9336(4) 0.6580(3) 0.1460(4)
H17 H 0.9845 0.6253 0.1479
C22 C 0.8464(4) 0.6302(3) 0.1496(4)
H18 H 0.8373 0.5787 0.1550
C23 C 0.7724(4) 0.6763(3) 0.1454(3)
C24 C 0.7851(4) 0.7511(3) 0.1403(4)
H19 H 0.7339 0.7836 0.1396
C25 C 0.8745(4) 0.7792(3) 0.1362(4)
H20 H 0.8835 0.8308 0.1309
C26 C 0.6763(4) 0.6461(3) 0.1511(3)
O14 O 0.4796(3) 0.5703(2) 0.21279(17)
O16 O 0.4582(3) 0.5682(2) 0.08083(16)
H34_2 H 0.3702 0.5213 0.0031
C51_2 C 0.3756(5) 0.6311(3) 0.0150(2)
H35_2 H 0.3683 0.7437 0.0100
C54_2 C 0.4392(5) 0.6294(3) 0.0624(2)
O5_2 O 0.0261(3) 0.5749(2) 0.57734(16)
O6_2 O 0.0841(3) 0.6840(2) 0.60216(17)
O9_2 O 0.0320(4) 0.5780(2) 0.70932(16)
O10_2 O 0.0056(3) 0.6982(2) 0.71767(17)
N2_2 N 0.0262(3) 0.0608(2) 0.6432(2)
C1_2 C 0.0153(4) 0.4123(3) 0.6054(2)
H1_2 H 0.0418 0.4410 0.5774
C2_2 C 0.0284(5) 0.3360(3) 0.6049(3)
H2_2 H 0.0622 0.3127 0.5769
C9_2 C 0.0057(4) 0.2134(3) 0.6469(3)
C10_2 C 0.0605(5) 0.1770(3) 0.6847(3)
C11_2 C 0.1184(7) 0.2162(4) 0.7255(4)
H9_2 H 0.1087 0.2697 0.7225
H10_2 H 0.1014 0.1996 0.7617
H11_2 H 0.1832 0.2049 0.7189
C12_2 C 0.0666(5) 0.1007(3) 0.6815(3)
H12_2 H 0.1014 0.0754 0.7081
C27_2 C 0.0753(5) 0.6335(3) 0.5698(3)
C28_2 C 0.1341(5) 0.6332(3) 0.5211(3)
C29_2 C 0.1487(5) 0.5683(3) 0.4916(2)
H21_2 H 0.1209 0.5233 0.5028
C30_2 C 0.2033(5) 0.5690(3) 0.4463(2)
H22_2 H 0.2144 0.5241 0.4275
C31_2 C 0.2421(5) 0.6343(3) 0.4276(3)
C32_2 C 0.2254(6) 0.7008(4) 0.4555(3)
H23_2 H 0.2507 0.7461 0.4430
C33_2 C 0.1708(6) 0.6991(4) 0.5023(3)
H24_2 H 0.1589 0.7438 0.5212
C34_2 C 0.2967(6) 0.6349(3) 0.3769(3)
C35_2 C 0.3426(6) 0.5718(3) 0.3593(3)
H25_2 H 0.3404 0.5284 0.3809
C36_2 C 0.3910(5) 0.5699(3) 0.3117(2)
H26_2 H 0.4246 0.5270 0.3018
C37_2 C 0.3897(5) 0.6314(3) 0.2788(3)
C38_2 C 0.3433(6) 0.6944(4) 0.2940(3)
H27_2 H 0.3406 0.7359 0.2706
C39_2 C 0.3012(7) 0.6966(4) 0.3431(3)
H28_2 H 0.2741 0.7417 0.3547
C40_2 C 0.4332(5) 0.6282(3) 0.2229(3)
C41_2 C 0.0438(5) 0.6382(3) 0.7314(2)
C42_2 C 0.1009(5) 0.6377(3) 0.7799(3)
C43_2 C 0.1502(6) 0.5784(4) 0.7941(3)
H29_2 H 0.1478 0.5350 0.7726
C44_2 C 0.2059(7) 0.5794(4) 0.8408(3)
H30_2 H 0.2437 0.5379 0.8486
C45_2 C 0.2063(5) 0.6383(3) 0.8745(3)
C46_2 C 0.1535(5) 0.6996(3) 0.8628(3)
H31_2 H 0.1528 0.7409 0.8865
C47_2 C 0.1004(5) 0.7004(3) 0.8151(3)
H32_2 H 0.0643 0.7425 0.8065
C48_2 C 0.2636(5) 0.6363(3) 0.9239(3)
C49_2 C 0.2927(4) 0.5689(3) 0.9443(2)
H33_2 H 0.2742 0.5240 0.9276
C50_2 C 0.3494(5) 0.5676(3) 0.9896(2)
C52_2 C 0.3482(6) 0.6990(4) 0.9937(3)
C53_2 C 0.2921(5) 0.7015(3) 0.9490(3)
H36_2 H 0.2728 0.7480 0.9351
O13_2 O 0.1144(3) 0.8111(2) 0.66666(19)
Zn1_2 Zn 0.96049(4) 0.56038(3) 0.64407(3)
O1_2 O 0.8304(3) 0.5854(2) 0.6511(2)
O2_2 O 0.8824(3) 0.6917(3) 0.62049(18)
O3_2 O 0.1639(3) 0.9217(2) 0.6424(2)
N1_2 N 0.9670(3) 0.44691(19) 0.6436(2)
C3_2 C 0.9907(4) 0.2953(2) 0.6463(3)
C4_2 C 0.9405(5) 0.3304(3) 0.6861(3)
C5_2 C 0.8931(8) 0.2911(5) 0.7316(4)
H3_2 H 0.8486 0.2557 0.7169
H4_2 H 0.9385 0.2646 0.7533
H5_2 H 0.8611 0.3273 0.7541
C6_2 C 0.9321(5) 0.4064(3) 0.6827(3)
H6_2 H 0.8991 0.4311 0.7103
C7_2 C 0.9793(4) 0.0955(3) 0.6039(3)
H7_2 H 0.9547 0.0675 0.5750
C8_2 C 0.9665(5) 0.1711(3) 0.6051(3)
H8_2 H 0.9314 0.1946 0.5779
C13_2 C 0.8192(4) 0.6517(3) 0.6382(3)
C14_2 C 0.7241(4) 0.6811(3) 0.6405(4)
C15_2 C 0.6513(5) 0.6374(3) 0.6593(3)
H13_2 H 0.6629 0.5890 0.6725
C16_2 C 0.5602(4) 0.6654(3) 0.6584(3)
H14_2 H 0.5109 0.6362 0.6717
C17_2 C 0.5437(4) 0.7365(3) 0.6378(4)
C18_2 C 0.6179(5) 0.7802(4) 0.6203(4)
H15_2 H 0.6073 0.8288 0.6072
C19_2 C 0.7060(5) 0.7525(4) 0.6222(4)
H16_2 H 0.7554 0.7829 0.6107
C20_2 C 0.4484(4) 0.7662(3) 0.6397(4)
C21_2 C 0.4336(4) 0.8420(3) 0.6460(4)
H17_2 H 0.4845 0.8747 0.6479
C22_2 C 0.3464(4) 0.8698(3) 0.6496(4)
H18_2 H 0.3373 0.9213 0.6550
C23_2 C 0.2724(4) 0.8237(3) 0.6454(3)
C24_2 C 0.2851(4) 0.7489(3) 0.6403(4)
H19_2 H 0.2339 0.7164 0.6396
C25_2 C 0.3745(4) 0.7208(3) 0.6362(4)
H20_2 H 0.3835 0.6692 0.6309
C26_2 C 0.1763(4) 0.8539(3) 0.6511(3)
Zn4 Zn 0.00371(4) 0.24682(3) 0.35502(2)
O14_2 O 0.0204(3) 0.0703(2) 0.28721(17)
O16_2 O 0.0418(3) 0.0682(2) 0.41917(16)
Zn1_3 Zn 0.03951(4) 0.43962(3) 0.35593(3)
O1_3 O 0.1696(3) 0.4146(2) 0.3489(2)
O2_3 O 0.1176(3) 0.3083(3) 0.37951(18)
O3_3 O 0.8361(3) 0.0783(2) 0.3576(2)
O4 O 0.8856(3) 0.1889(2) 0.33334(19)
N1_3 N 0.0330(3) 0.55309(19) 0.3564(2)
C3_3 C 0.0093(4) 0.7047(2) 0.3537(3)
C4_3 C 0.0595(5) 0.6696(3) 0.3139(3)
C5_3 C 0.1069(8) 0.7089(5) 0.2684(4)
H3_3 H 0.1514 0.7443 0.2831
H4_3 H 0.0615 0.7354 0.2467
H5_3 H 0.1389 0.6727 0.2459
C6_3 C 0.0679(5) 0.5936(3) 0.3173(3)
H6_3 H 0.1009 0.5689 0.2897
C7_3 C 0.0207(4) 0.9045(3) 0.3961(3)
H7_3 H 0.0453 0.9325 0.4250
C8_3 C 0.0335(5) 0.8289(3) 0.3949(3)
H8_3 H 0.0686 0.8054 0.4221
C13_3 C 0.1808(4) 0.3483(3) 0.3618(3)
C14_3 C 0.2759(4) 0.3189(3) 0.3595(4)
C15_3 C 0.3487(5) 0.3626(3) 0.3407(3)
H13_3 H 0.3371 0.4110 0.3275
C16_3 C 0.4398(4) 0.3346(3) 0.3416(3)
H14_3 H 0.4891 0.3638 0.3283
C17_3 C 0.4563(4) 0.2635(3) 0.3622(4)
C18_3 C 0.3821(5) 0.2198(4) 0.3797(4)
H15_3 H 0.3927 0.1712 0.3928
C19_3 C 0.2940(5) 0.2475(4) 0.3778(4)
H16_3 H 0.2446 0.2171 0.3893
C20_3 C 0.5516(4) 0.2338(3) 0.3603(4)
C21_3 C 0.5664(4) 0.1580(3) 0.3540(4)
H17_3 H 0.5155 0.1253 0.3521
C22_3 C 0.6536(4) 0.1302(3) 0.3504(4)
H18_3 H 0.6627 0.0787 0.3450
C23_3 C 0.7276(4) 0.1763(3) 0.3546(3)
C24_3 C 0.7149(4) 0.2511(3) 0.3597(4)
H19_3 H 0.7661 0.2836 0.3604
C25_3 C 0.6255(4) 0.2792(3) 0.3638(4)
H20_3 H 0.6165 0.3308 0.3691
C26_3 C 0.8237(4) 0.1461(3) 0.3489(3)
Zn3 Zn 0.96584(4) 0.05273(3) 0.35639(3)
O15_2 O 0.0884(3) 0.1752(2) 0.31220(17)
O17_2 O 0.0168(3) 0.1890(2) 0.42535(16)
N3 N 0.9738(3) 0.9392(2) 0.3568(2)
O5_3 O 0.9739(3) 0.4251(2) 0.42266(16)
O6_3 O 0.9159(3) 0.3160(2) 0.39784(17)
O7_2 O 0.5204(3) 0.4297(2) 0.78721(17)
O8_2 O 0.5884(3) 0.3248(2) 0.81220(17)
O9_3 O 0.9680(4) 0.4220(2) 0.29068(16)
O10_3 O 0.9944(3) 0.3018(2) 0.28233(17)
C1_3 C 0.9847(4) 0.5877(3) 0.3946(2)
H1_3 H 0.9582 0.5590 0.4226
C2_3 C 0.9716(5) 0.6640(3) 0.3951(3)
H2_3 H 0.9378 0.6873 0.4231
C9_3 C 0.9943(4) 0.7866(3) 0.3531(3)
C10_3 C 0.9395(5) 0.8230(3) 0.3153(3)
C11_3 C 0.8816(7) 0.7838(4) 0.2745(4)
H9_3 H 0.8913 0.7303 0.2775
H10_3 H 0.8986 0.8004 0.2383
H11_3 H 0.8168 0.7951 0.2811
C12_3 C 0.9334(5) 0.8993(3) 0.3185(3)
H12_3 H 0.8986 0.9246 0.2919
C27_3 C 0.9247(5) 0.3665(3) 0.4302(3)
C28_3 C 0.8659(5) 0.3668(3) 0.4789(3)
C29_3 C 0.8513(5) 0.4317(3) 0.5084(2)
H21_3 H 0.8791 0.4767 0.4972
C30_3 C 0.7967(5) 0.4310(3) 0.5537(2)
H22_3 H 0.7856 0.4759 0.5725
C31_3 C 0.7579(5) 0.3657(3) 0.5724(3)
C32_3 C 0.7746(6) 0.2992(4) 0.5445(3)
H23_3 H 0.7493 0.2539 0.5570
C33_3 C 0.8292(6) 0.3009(4) 0.4977(3)
H24_3 H 0.8411 0.2562 0.4788
C34_3 C 0.7033(6) 0.3651(3) 0.6231(3)
C35_3 C 0.6574(6) 0.4282(3) 0.6407(3)
H25_3 H 0.6596 0.4716 0.6191
C36_3 C 0.6090(5) 0.4301(3) 0.6883(2)
H26_3 H 0.5754 0.4730 0.6982
C37_3 C 0.6103(5) 0.3686(3) 0.7212(3)
C38_3 C 0.6567(6) 0.3056(4) 0.7060(3)
H27_3 H 0.6594 0.2641 0.7294
C39_3 C 0.6988(7) 0.3034(4) 0.6569(3)
H28_3 H 0.7259 0.2583 0.6453
C40_3 C 0.5668(5) 0.3718(3) 0.7771(3)
C41_3 C 0.9562(5) 0.3618(3) 0.2686(2)
C42_3 C 0.8991(5) 0.3623(3) 0.2201(3)
C43_3 C 0.8498(6) 0.4216(4) 0.2059(3)
H29_3 H 0.8522 0.4650 0.2274
C44_3 C 0.7941(7) 0.4206(4) 0.1592(3)
H30_3 H 0.7563 0.4621 0.1514
C45_3 C 0.7937(5) 0.3617(3) 0.1255(3)
C46_3 C 0.8465(5) 0.3004(3) 0.1372(3)
H31_3 H 0.8472 0.2591 0.1135
C47_3 C 0.8996(5) 0.2996(3) 0.1849(3)
H32_3 H 0.9357 0.2575 0.1935
C48_3 C 0.7364(5) 0.3637(3) 0.0761(3)
C49_3 C 0.7073(4) 0.4311(3) 0.0557(2)
H33_3 H 0.7258 0.4760 0.0724
C50_3 C 0.6506(5) 0.4324(3) 0.0104(2)
C52_3 C 0.6518(6) 0.3010(4) 0.0063(3)
C53_3 C 0.7079(5) 0.2985(3) 0.0510(3)
H36_3 H 0.7272 0.2520 0.0649
Zn5 Zn 0.50371(4) 0.25318(3) 0.85502(2)
Zn8 Zn 0.46584(4) 0.44727(3) 0.85639(3)
O11_2 O 0.5418(3) 0.4318(2) 0.91917(16)
O12_2 O 0.5168(3) 0.3110(2) 0.92535(16)
H34_3 H 0.6298 0.4787 0.9969
C51_3 C 0.6244(5) 0.3689(3) 0.9850(2)
H35_3 H 0.6317 0.2563 0.9900
C54_3 C 0.5608(5) 0.3706(3) 0.9376(2)
O3_4 O 0.3361(3) 0.4217(2) 0.8576(2)
O4_2 O 0.3856(3) 0.3111(2) 0.83334(19)
C20_4 C 0.0516(4) 0.2662(3) 0.8603(4)
C21_4 C 0.0664(4) 0.3420(3) 0.8540(4)
H17_4 H 0.0155 0.3747 0.8521
C22_4 C 0.1536(4) 0.3698(3) 0.8504(4)
H18_4 H 0.1627 0.4213 0.8450
C23_4 C 0.2276(4) 0.3237(3) 0.8546(3)
C24_4 C 0.2149(4) 0.2489(3) 0.8597(4)
H19_4 H 0.2661 0.2164 0.8604
C25_4 C 0.1255(4) 0.2208(3) 0.8638(4)
H20_4 H 0.1165 0.1692 0.8691
C26_4 C 0.3237(4) 0.3539(3) 0.8489(3)
N3_2 N 0.4738(3) 0.5608(2) 0.8568(2)
C29_4 C 0.3513(5) 0.0683(3) 0.0084(2)
C30_4 C 0.2967(5) 0.0690(3) 0.0537(2)
H22_4 H 0.2856 0.0241 0.0725
C31_4 C 0.2579(5) 0.1343(3) 0.0724(3)
C32_4 C 0.2746(6) 0.2008(4) 0.0445(3)
H23_4 H 0.2493 0.2461 0.0570
C34_4 C 0.2033(6) 0.1349(3) 0.1231(3)
C35_4 C 0.1574(6) 0.0718(3) 0.1407(3)
H25_4 H 0.1596 0.0284 0.1191
C36_4 C 0.1090(5) 0.0699(3) 0.1883(2)
H26_4 H 0.0754 0.0270 0.1982
C37_4 C 0.1103(5) 0.1314(3) 0.2212(3)
C38_4 C 0.1567(6) 0.1944(4) 0.2060(3)
H27_4 H 0.1594 0.2359 0.2294
C39_4 C 0.1988(7) 0.1966(4) 0.1569(3)
H28_4 H 0.2259 0.2417 0.1453
C40_4 C 0.0668(5) 0.1282(3) 0.2771(3)
Zn1_4 Zn 0.53951(4) 0.06038(3) 0.85593(3)
O1_4 O 0.6696(3) 0.0854(2) 0.8489(2)
O2_4 O 0.6176(3) 0.1917(3) 0.87951(18)
O5_4 O 0.4739(3) 0.0749(2) 0.92266(16)
O6_4 O 0.4159(3) 0.1840(2) 0.89784(17)
O9_4 O 0.4680(4) 0.0780(2) 0.79068(16)
O10_4 O 0.4944(3) 0.1982(2) 0.78233(17)
C13_4 C 0.6808(4) 0.1517(3) 0.8618(3)
C14_4 C 0.7759(4) 0.1811(3) 0.8595(4)
C15_4 C 0.8487(5) 0.1374(3) 0.8407(3)
H13_4 H 0.8371 0.0890 0.8275
C16_4 C 0.9398(4) 0.1654(3) 0.8416(3)
H14_4 H 0.9891 0.1362 0.8283
C17_4 C 0.9563(4) 0.2365(3) 0.8622(4)
C18_4 C 0.8821(5) 0.2802(4) 0.8797(4)
H15_4 H 0.8927 0.3288 0.8928
C19_4 C 0.7940(5) 0.2525(4) 0.8778(4)
H16_4 H 0.7446 0.2829 0.8893
C27_4 C 0.4247(5) 0.1335(3) 0.9302(3)
C28_4 C 0.3659(5) 0.1332(3) 0.9789(3)
H21_4 H 0.3791 0.0233 0.9972
C33_4 C 0.3292(6) 0.1991(4) 0.9977(3)
H24_4 H 0.3411 0.2438 0.9788
C41_4 C 0.4562(5) 0.1382(3) 0.7686(2)
C42_4 C 0.3991(5) 0.1377(3) 0.7201(3)
C43_4 C 0.3498(6) 0.0784(4) 0.7059(3)
H29_4 H 0.3522 0.0350 0.7274
C44_4 C 0.2941(7) 0.0794(4) 0.6592(3)
H30_4 H 0.2563 0.0379 0.6514
C45_4 C 0.2937(5) 0.1383(3) 0.6255(3)
C46_4 C 0.3465(5) 0.1996(3) 0.6372(3)
H31_4 H 0.3472 0.2409 0.6135
C47_4 C 0.3996(5) 0.2004(3) 0.6849(3)
H32_4 H 0.4357 0.2425 0.6935
C48_4 C 0.2364(5) 0.1363(3) 0.5761(3)
C49_4 C 0.2073(4) 0.0689(3) 0.5557(2)
H33_4 H 0.2258 0.0240 0.5724
C50_4 C 0.1506(5) 0.0676(3) 0.5104(2)
H34_4 H 0.1298 0.0213 0.4969
C51_4 C 0.1244(5) 0.1311(3) 0.4850(2)
C52_4 C 0.1518(6) 0.1990(4) 0.5063(3)
H35_4 H 0.1317 0.2437 0.4900
C53_4 C 0.2079(5) 0.2015(3) 0.5510(3)
H36_4 H 0.2272 0.2480 0.5649
C54_4 C 0.0608(5) 0.1294(3) 0.4376(2)
N1_4 N 0.5330(3) 0.94691(19) 0.8564(2)
C1_4 C 0.4847(4) 0.9123(3) 0.8946(2)
H1_4 H 0.4582 0.9410 0.9226
C2_4 C 0.4716(5) 0.8360(3) 0.8951(3)
H2_4 H 0.4378 0.8127 0.9231
C3_4 C 0.5093(4) 0.7953(2) 0.8537(3)
C4_4 C 0.5595(5) 0.8304(3) 0.8139(3)
C5_4 C 0.6069(8) 0.7911(5) 0.7684(4)
H3_4 H 0.6514 0.7557 0.7831
H4_4 H 0.5615 0.7646 0.7467
H5_4 H 0.6389 0.8273 0.7459
C6_4 C 0.5679(5) 0.9064(3) 0.8173(3)
H6_4 H 0.6009 0.9311 0.7897
C7_4 C 0.5207(4) 0.5955(3) 0.8961(3)
H7_4 H 0.5453 0.5675 0.9250
C8_4 C 0.5335(5) 0.6711(3) 0.8949(3)
H8_4 H 0.5686 0.6946 0.9221
C9_4 C 0.4943(4) 0.7134(3) 0.8531(3)
C10_4 C 0.4395(5) 0.6770(3) 0.8153(3)
C11_4 C 0.3816(7) 0.7162(4) 0.7745(4)
H9_4 H 0.3913 0.7697 0.7775
H10_4 H 0.3986 0.6996 0.7383
H11_4 H 0.3168 0.7049 0.7811
C12_4 C 0.4334(5) 0.6007(3) 0.8185(3)
H12_4 H 0.3986 0.5754 0.7919
loop_
_geom_bond_atom_site_label_1
_geom_bond_atom_site_label_2
_geom_bond_site_symmetry_1
_geom_bond_site_symmetry_2
N2 C7 1_555 1_555
C1 N1 1_555 1_555
H1 C1 1_555 1_555
C2 C1 1_555 1_555
H2 C2 1_555 1_555
C3 C2 1_555 1_555
C4 C3 1_555 1_555
C5 C4 1_555 1_555
H3 C5 1_555 1_555
H4 C5 1_555 1_555
H5 C5 1_555 1_555
C6 N1 1_555 1_555
H6 C6 1_555 1_555
C7 H7 1_555 1_555
C8 C7 1_555 1_555
H8 C8 1_555 1_555
C9 C3 1_555 1_555
C10 C9 1_555 1_555
C11 C10 1_555 1_555
H9 C11 1_555 1_555
H10 C11 1_555 1_555
H11 C11 1_555 1_555
C12 N2 1_555 1_555
H12 C12 1_555 1_555
Zn7 N2 1_555 1_555
C4 C6 1_555 1_555
C8 C9 1_555 1_555
C10 C12 1_555 1_555
Zn1 O1 1_555 1_555
Zn2 O2 1_555 1_555
O1 C13 1_555 1_555
O2 C13 1_555 1_555
O5 Zn1 1_555 1_555
O6 Zn2 1_555 1_555
O9 Zn1 1_555 1_555
O10 Zn2 1_555 1_555
O11 C54 1_555 1_555
O12 C54 1_555 1_555
C13 C14 1_555 1_555
C14 C15 1_555 1_555
C15 H13 1_555 1_555
C16 C15 1_555 1_555
H14 C16 1_555 1_555
C17 C16 1_555 1_555
C18 C17 1_555 1_555
H15 C18 1_555 1_555
C19 C14 1_555 1_555
H16 C19 1_555 1_555
C27 O5 1_555 1_555
C28 C27 1_555 1_555
C33 C28 1_555 1_555
H24 C33 1_555 1_555
C41 O9 1_555 1_555
C42 C41 1_555 1_555
C43 C42 1_555 1_555
H29 C43 1_555 1_555
C44 C43 1_555 1_555
H30 C44 1_555 1_555
C45 C44 1_555 1_555
C46 C45 1_555 1_555
H31 C46 1_555 1_555
C47 C42 1_555 1_555
H32 C47 1_555 1_555
C48 C45 1_555 1_555
C49 C48 1_555 1_555
H33 C49 1_555 1_555
C50 C49 1_555 1_555
H34 C50 1_555 1_555
C51 C50 1_555 1_555
C52 C51 1_555 1_555
H35 C52 1_555 1_555
C53 C48 1_555 1_555
H36 C53 1_555 1_555
C54 C51 1_555 1_555
Zn6 O12 1_555 1_555
O13 Zn2 1_555 1_555
O15 Zn2 1_555 1_555
O17 Zn2 1_555 1_555
O6 C27 1_555 1_555
O10 C41 1_555 1_555
C18 C19 1_555 1_555
C46 C47 1_555 1_555
C52 C53 1_555 1_555
O7 C40 1_555 1_555
O8 C40 1_555 1_555
C30 C29 1_555 1_555
H22 C30 1_555 1_555
C31 C30 1_555 1_555
C32 C31 1_555 1_555
H23 C32 1_555 1_555
C34 C31 1_555 1_555
C35 C34 1_555 1_555
H25 C35 1_555 1_555
C36 C35 1_555 1_555
H26 C36 1_555 1_555
C37 C36 1_555 1_555
C38 C37 1_555 1_555
H27 C38 1_555 1_555
C39 C34 1_555 1_555
H28 C39 1_555 1_555
C40 C37 1_555 1_555
Zn6 O8 1_555 1_555
C38 C39 1_555 1_555
O3 C26 1_555 1_555
O13 C26 1_555 1_555
C21 C20 1_555 1_555
H17 C21 1_555 1_555
C22 C21 1_555 1_555
H18 C22 1_555 1_555
C23 C22 1_555 1_555
C24 C23 1_555 1_555
H19 C24 1_555 1_555
C25 C20 1_555 1_555
H20 C25 1_555 1_555
C26 C23 1_555 1_555
Zn7 O3 1_555 1_555
O14 Zn7 1_555 1_555
O16 Zn7 1_555 1_555
C24 C25 1_555 1_555
O16 C54_2 1_555 1_555
O17 C54_2 1_555 1_555
C54_2 C51_2 1_555 1_555
O14 C40_2 1_555 1_555
O15 C40_2 1_555 1_555
H1_2 C1_2 1_555 1_555
C2_2 C1_2 1_555 1_555
H2_2 C2_2 1_555 1_555
C10_2 C9_2 1_555 1_555
C11_2 C10_2 1_555 1_555
H9_2 C11_2 1_555 1_555
H10_2 C11_2 1_555 1_555
H11_2 C11_2 1_555 1_555
C12_2 N2_2 1_555 1_555
H12_2 C12_2 1_555 1_555
C27_2 O5_2 1_555 1_555
C28_2 C27_2 1_555 1_555
C29_2 C28_2 1_555 1_555
H21_2 C29_2 1_555 1_555
C30_2 C29_2 1_555 1_555
H22_2 C30_2 1_555 1_555
C31_2 C30_2 1_555 1_555
C32_2 C31_2 1_555 1_555
H23_2 C32_2 1_555 1_555
C33_2 C28_2 1_555 1_555
H24_2 C33_2 1_555 1_555
C34_2 C31_2 1_555 1_555
C35_2 C34_2 1_555 1_555
H25_2 C35_2 1_555 1_555
C36_2 C35_2 1_555 1_555
H26_2 C36_2 1_555 1_555
C37_2 C36_2 1_555 1_555
C38_2 C37_2 1_555 1_555
H27_2 C38_2 1_555 1_555
C39_2 C34_2 1_555 1_555
H28_2 C39_2 1_555 1_555
C40_2 C37_2 1_555 1_555
C41_2 O9_2 1_555 1_555
C42_2 C41_2 1_555 1_555
C43_2 C42_2 1_555 1_555
H29_2 C43_2 1_555 1_555
C44_2 C43_2 1_555 1_555
H30_2 C44_2 1_555 1_555
C45_2 C44_2 1_555 1_555
C46_2 C45_2 1_555 1_555
H31_2 C46_2 1_555 1_555
C47_2 C42_2 1_555 1_555
H32_2 C47_2 1_555 1_555
C48_2 C45_2 1_555 1_555
C49_2 C48_2 1_555 1_555
H33_2 C49_2 1_555 1_555
C50_2 C49_2 1_555 1_555
C53_2 C48_2 1_555 1_555
H36_2 C53_2 1_555 1_555
O6_2 C27_2 1_555 1_555
O10_2 C41_2 1_555 1_555
C10_2 C12_2 1_555 1_555
C32_2 C33_2 1_555 1_555
C38_2 C39_2 1_555 1_555
C46_2 C47_2 1_555 1_555
C52_2 C53_2 1_555 1_555
Zn1_2 O1_2 1_555 1_555
Zn6 O2_2 1_555 1_555
O1_2 C13_2 1_555 1_555
O2_2 C13_2 1_555 1_555
O3_2 C26_2 1_555 1_555
O13_2 C26_2 1_555 1_555
N1_2 Zn1_2 1_555 1_555
C4_2 C3_2 1_555 1_555
C5_2 C4_2 1_555 1_555
H3_2 C5_2 1_555 1_555
H4_2 C5_2 1_555 1_555
H5_2 C5_2 1_555 1_555
C6_2 N1_2 1_555 1_555
H6_2 C6_2 1_555 1_555
C7_2 H7_2 1_555 1_555
C8_2 C7_2 1_555 1_555
H8_2 C8_2 1_555 1_555
C13_2 C14_2 1_555 1_555
C14_2 C15_2 1_555 1_555
C15_2 H13_2 1_555 1_555
C16_2 C15_2 1_555 1_555
H14_2 C16_2 1_555 1_555
C17_2 C16_2 1_555 1_555
C18_2 C17_2 1_555 1_555
H15_2 C18_2 1_555 1_555
C19_2 C14_2 1_555 1_555
H16_2 C19_2 1_555 1_555
C20_2 C17_2 1_555 1_555
C21_2 C20_2 1_555 1_555
H17_2 C21_2 1_555 1_555
C22_2 C21_2 1_555 1_555
H18_2 C22_2 1_555 1_555
C23_2 C22_2 1_555 1_555
C24_2 C23_2 1_555 1_555
H19_2 C24_2 1_555 1_555
C25_2 C20_2 1_555 1_555
H20_2 C25_2 1_555 1_555
C26_2 C23_2 1_555 1_555
Zn9 O3_2 1_555 1_555
C4_2 C6_2 1_555 1_555
C18_2 C19_2 1_555 1_555
C24_2 C25_2 1_555 1_555
Zn1_3 O1_3 1_555 1_555
Zn4 O2_3 1_555 1_555
O1_3 C13_3 1_555 1_555
O2_3 C13_3 1_555 1_555
O3_3 C26_3 1_555 1_555
O4 C26_3 1_555 1_555
N1_3 Zn1_3 1_555 1_555
C4_3 C3_3 1_555 1_555
C5_3 C4_3 1_555 1_555
H3_3 C5_3 1_555 1_555
H4_3 C5_3 1_555 1_555
H5_3 C5_3 1_555 1_555
C6_3 N1_3 1_555 1_555
H6_3 C6_3 1_555 1_555
C7_3 H7_3 1_555 1_555
C8_3 C7_3 1_555 1_555
H8_3 C8_3 1_555 1_555
C13_3 C14_3 1_555 1_555
C14_3 C15_3 1_555 1_555
C15_3 H13_3 1_555 1_555
C16_3 C15_3 1_555 1_555
H14_3 C16_3 1_555 1_555
C17_3 C16_3 1_555 1_555
C18_3 C17_3 1_555 1_555
H15_3 C18_3 1_555 1_555
C19_3 C14_3 1_555 1_555
H16_3 C19_3 1_555 1_555
C20_3 C17_3 1_555 1_555
C21_3 C20_3 1_555 1_555
H17_3 C21_3 1_555 1_555
C22_3 C21_3 1_555 1_555
H18_3 C22_3 1_555 1_555
C23_3 C22_3 1_555 1_555
C24_3 C23_3 1_555 1_555
H19_3 C24_3 1_555 1_555
C25_3 C20_3 1_555 1_555
H20_3 C25_3 1_555 1_555
C26_3 C23_3 1_555 1_555
Zn3 O3_3 1_555 1_555
O15_2 Zn4 1_555 1_555
O17_2 Zn4 1_555 1_555
C4_3 C6_3 1_555 1_555
C18_3 C19_3 1_555 1_555
C24_3 C25_3 1_555 1_555
O7_2 C40_3 1_555 1_555
O8_2 C40_3 1_555 1_555
H1_3 C1_3 1_555 1_555
C2_3 C1_3 1_555 1_555
H2_3 C2_3 1_555 1_555
C10_3 C9_3 1_555 1_555
C11_3 C10_3 1_555 1_555
H9_3 C11_3 1_555 1_555
H10_3 C11_3 1_555 1_555
H11_3 C11_3 1_555 1_555
C12_3 N3 1_555 1_555
H12_3 C12_3 1_555 1_555
C27_3 O5_3 1_555 1_555
C28_3 C27_3 1_555 1_555
C29_3 C28_3 1_555 1_555
H21_3 C29_3 1_555 1_555
C30_3 C29_3 1_555 1_555
H22_3 C30_3 1_555 1_555
C31_3 C30_3 1_555 1_555
C32_3 C31_3 1_555 1_555
H23_3 C32_3 1_555 1_555
C33_3 C28_3 1_555 1_555
H24_3 C33_3 1_555 1_555
C34_3 C31_3 1_555 1_555
C35_3 C34_3 1_555 1_555
H25_3 C35_3 1_555 1_555
C36_3 C35_3 1_555 1_555
H26_3 C36_3 1_555 1_555
C37_3 C36_3 1_555 1_555
C38_3 C37_3 1_555 1_555
H27_3 C38_3 1_555 1_555
C39_3 C34_3 1_555 1_555
H28_3 C39_3 1_555 1_555
C40_3 C37_3 1_555 1_555
C41_3 O9_3 1_555 1_555
C42_3 C41_3 1_555 1_555
C43_3 C42_3 1_555 1_555
H29_3 C43_3 1_555 1_555
C44_3 C43_3 1_555 1_555
H30_3 C44_3 1_555 1_555
C45_3 C44_3 1_555 1_555
C46_3 C45_3 1_555 1_555
H31_3 C46_3 1_555 1_555
C47_3 C42_3 1_555 1_555
H32_3 C47_3 1_555 1_555
C48_3 C45_3 1_555 1_555
C49_3 C48_3 1_555 1_555
H33_3 C49_3 1_555 1_555
C50_3 C49_3 1_555 1_555
C53_3 C48_3 1_555 1_555
H36_3 C53_3 1_555 1_555
Zn5 O8_2 1_555 1_555
Zn8 O7_2 1_555 1_555
O6_3 C27_3 1_555 1_555
O10_3 C41_3 1_555 1_555
C10_3 C12_3 1_555 1_555
C32_3 C33_3 1_555 1_555
C38_3 C39_3 1_555 1_555
C46_3 C47_3 1_555 1_555
C52_3 C53_3 1_555 1_555
O11_2 C54_3 1_555 1_555
O12_2 C54_3 1_555 1_555
C54_3 C51_3 1_555 1_555
Zn5 O12_2 1_555 1_555
Zn8 O11_2 1_555 1_555
O3_4 C26_4 1_555 1_555
O4_2 C26_4 1_555 1_555
C21_4 C20_4 1_555 1_555
H17_4 C21_4 1_555 1_555
C22_4 C21_4 1_555 1_555
H18_4 C22_4 1_555 1_555
C23_4 C22_4 1_555 1_555
C24_4 C23_4 1_555 1_555
H19_4 C24_4 1_555 1_555
C25_4 C20_4 1_555 1_555
H20_4 C25_4 1_555 1_555
C26_4 C23_4 1_555 1_555
Zn8 O3_4 1_555 1_555
Zn5 O4_2 1_555 1_555
N3_2 Zn8 1_555 1_555
C24_4 C25_4 1_555 1_555
O14_2 C40_4 1_555 1_555
O15_2 C40_4 1_555 1_555
C30_4 C29_4 1_555 1_555
H22_4 C30_4 1_555 1_555
C31_4 C30_4 1_555 1_555
C32_4 C31_4 1_555 1_555
H23_4 C32_4 1_555 1_555
C34_4 C31_4 1_555 1_555
C35_4 C34_4 1_555 1_555
H25_4 C35_4 1_555 1_555
C36_4 C35_4 1_555 1_555
H26_4 C36_4 1_555 1_555
C37_4 C36_4 1_555 1_555
C38_4 C37_4 1_555 1_555
H27_4 C38_4 1_555 1_555
C39_4 C34_4 1_555 1_555
H28_4 C39_4 1_555 1_555
C40_4 C37_4 1_555 1_555
C38_4 C39_4 1_555 1_555
Zn1_4 O1_4 1_555 1_555
Zn5 O2_4 1_555 1_555
O1_4 C13_4 1_555 1_555
O2_4 C13_4 1_555 1_555
O5_4 Zn1_4 1_555 1_555
O6_4 Zn5 1_555 1_555
O9_4 Zn1_4 1_555 1_555
O10_4 Zn5 1_555 1_555
O16_2 C54_4 1_555 1_555
O17_2 C54_4 1_555 1_555
C13_4 C14_4 1_555 1_555
C14_4 C15_4 1_555 1_555
C15_4 H13_4 1_555 1_555
C16_4 C15_4 1_555 1_555
H14_4 C16_4 1_555 1_555
C17_4 C16_4 1_555 1_555
C18_4 C17_4 1_555 1_555
H15_4 C18_4 1_555 1_555
C19_4 C14_4 1_555 1_555
H16_4 C19_4 1_555 1_555
C27_4 O5_4 1_555 1_555
C28_4 C27_4 1_555 1_555
C33_4 C28_4 1_555 1_555
H24_4 C33_4 1_555 1_555
C41_4 O9_4 1_555 1_555
C42_4 C41_4 1_555 1_555
C43_4 C42_4 1_555 1_555
H29_4 C43_4 1_555 1_555
C44_4 C43_4 1_555 1_555
H30_4 C44_4 1_555 1_555
C45_4 C44_4 1_555 1_555
C46_4 C45_4 1_555 1_555
H31_4 C46_4 1_555 1_555
C47_4 C42_4 1_555 1_555
H32_4 C47_4 1_555 1_555
C48_4 C45_4 1_555 1_555
C49_4 C48_4 1_555 1_555
H33_4 C49_4 1_555 1_555
C50_4 C49_4 1_555 1_555
H34_4 C50_4 1_555 1_555
C51_4 C50_4 1_555 1_555
C52_4 C51_4 1_555 1_555
H35_4 C52_4 1_555 1_555
C53_4 C48_4 1_555 1_555
H36_4 C53_4 1_555 1_555
C54_4 C51_4 1_555 1_555
O6_4 C27_4 1_555 1_555
O10_4 C41_4 1_555 1_555
C18_4 C19_4 1_555 1_555
C46_4 C47_4 1_555 1_555
C52_4 C53_4 1_555 1_555
N3_2 C7_4 1_555 1_555
C1_4 N1_4 1_555 1_555
H1_4 C1_4 1_555 1_555
C2_4 C1_4 1_555 1_555
H2_4 C2_4 1_555 1_555
C3_4 C2_4 1_555 1_555
C4_4 C3_4 1_555 1_555
C5_4 C4_4 1_555 1_555
H3_4 C5_4 1_555 1_555
H4_4 C5_4 1_555 1_555
H5_4 C5_4 1_555 1_555
C6_4 N1_4 1_555 1_555
H6_4 C6_4 1_555 1_555
C7_4 H7_4 1_555 1_555
C8_4 C7_4 1_555 1_555
H8_4 C8_4 1_555 1_555
C9_4 C3_4 1_555 1_555
C10_4 C9_4 1_555 1_555
C11_4 C10_4 1_555 1_555
H9_4 C11_4 1_555 1_555
H10_4 C11_4 1_555 1_555
H11_4 C11_4 1_555 1_555
C12_4 N3_2 1_555 1_555
H12_4 C12_4 1_555 1_555
C4_4 C6_4 1_555 1_555
C8_4 C9_4 1_555 1_555
C10_4 C12_4 1_555 1_555

#END
