
###############################################################################
#
# This file contains modified crystal structure data generated from the
# MOF subset of the Cambridge Structural Database (CSD) v543 
# hosted by the Cambridge Crystallographic Data Centre (CCDC).
#
# This work is licensed under the Creative Commons
# Attribution-NonCommercial-ShareAlike 4.0 International License.
# To view a copy of this license, visit
# http://creativecommons.org/licenses/by-nc-sa/4.0/
# or send a letter to
# Creative Commons, PO Box 1866, Mountain View, CA 94042, USA.
#
# CIF created using the CSD Python API on 29 September 2022
# The structure has been converted into the P1 space group
# The structure has a 3D framework
# The original CSD entry TIBJUM is in the orthorhombic crystal system
# The framework has been calculated to contain at least 10.0% void space
# The void calculation uses a probe of radius 1.32A, grid spacing 0.4
# H atom positions have been added when not included in the experimental data
#
###############################################################################

data_TIBJUM
_chemical_formula_moiety         '(C432 H240 Co12 N72 O184 U16)n'
_symmetry_cell_setting           triclinic
_symmetry_space_group_name_H-M   'P 1'
_symmetry_Int_Tables_number      1
_space_group_name_Hall           'P 1'
loop_
_symmetry_equiv_pos_site_id
_symmetry_equiv_pos_as_xyz
1 x,y,z
_cell_length_a                   48.5145(11)
_cell_length_b                   14.6248(4)
_cell_length_c                   19.1130(4)
_cell_angle_alpha                90
_cell_angle_beta                 90
_cell_angle_gamma                90
_cell_volume                     13561
loop_
_atom_site_label
_atom_site_type_symbol
_atom_site_fract_x
_atom_site_fract_y
_atom_site_fract_z
U1 U 0.08548(2) 0.02413(2) 0.45006(2)
O1 O 0.04783(9) 0.1125(3) 0.4702(2)
O2 O 0.08451(9) 0.0576(3) 0.3604(2)
O4 O 0.13621(10) 0.0135(4) 0.4346(3)
O7 O 0.10591(9) 0.1639(3) 0.4808(2)
C1 C 0.02725(12) 0.1630(4) 0.4517(3)
O8 O 0.02315(9) 0.2416(3) 0.4703(2)
C3 C 0.00741(12) 0.1191(4) 0.4012(3)
C5 C 0.01701(12) 0.0673(4) 0.3463(3)
H1 H 0.0363 0.0584 0.3403
O27 O 0.3145(3) 0.0162(10) 0.1326(7)
O51 O 0.58624(10) 0.1163(4) 0.3046(3)
U13 U 0.62715(2) 0.04253(2) 0.33613(2)
O52 O 0.63337(12) 0.0120(4) 0.2482(3)
O53 O 0.62036(15) 0.0691(5) 0.4249(3)
O55 O 0.64305(10) 0.1855(4) 0.3097(3)
O56 O 0.67448(14) 0.0461(5) 0.3616(5)
O3 O 0.08601(10) 0.9886(3) 0.5387(3)
O5 O 0.11393(10) 0.8840(4) 0.4211(4)
O6 O 0.05408(10) 0.9137(3) 0.4211(3)
C2 C 0.13605(16) 0.9295(6) 0.4215(5)
C4 C 0.16291(16) 0.8826(6) 0.4054(5)
C7 C 0.17177(16) 0.8113(7) 0.4467(5)
C8 C 0.17943(17) 0.9167(8) 0.3536(5)
C11 C 0.19768(16) 0.7744(7) 0.4347(4)
H3 H 0.1603 0.7877 0.4828
C12 C 0.20496(17) 0.8747(8) 0.3428(5)
H4 H 0.1738 0.9673 0.3260
C13 C 0.00667(12) 0.9663(4) 0.2426(3)
N2 N 0.21396(13) 0.8084(6) 0.3822(4)
C14 C 0.20980(16) 0.6998(7) 0.4744(4)
H6 H 0.2162 0.8953 0.3052
C15 C 0.03330(12) 0.9378(4) 0.2304(3)
Co2 Co 0.2500 0.7500 0.37629(9)
N4 N 0.23465(14) 0.6730(6) 0.4496(4)
C16 C 0.19788(17) 0.6608(7) 0.5330(5)
H7 H 0.0479 0.9577 0.2597
C18 C 0.03832(13) 0.8797(5) 0.1747(4)
N9 N 0.23569(16) 0.6756(7) 0.2997(4)
C19 C 0.2464(2) 0.5998(9) 0.4792(6)
H8 H 0.1808 0.6832 0.5505
C20 C 0.21128(18) 0.5878(8) 0.5662(5)
C29 C 0.01695(14) 0.8535(5) 0.1322(4)
C30 C 0.06759(15) 0.8472(6) 0.1581(6)
C31 C 0.24072(19) 0.7099(8) 0.2347(4)
C32 C 0.2198(2) 0.6058(10) 0.3052(6)
C33 C 0.2355(2) 0.5564(10) 0.5370(6)
H10 H 0.2630 0.5768 0.4596
C34 C 0.1999(2) 0.5468(9) 0.6331(7)
H15 H 0.0203 0.8154 0.0929
O9 O 0.08624(10) 0.8837(4) 0.1954(3)
O10 O 0.07043(12) 0.7896(6) 0.1127(6)
C43 C 0.2296(3) 0.6713(11) 0.1756(6)
H16 H 0.2160 0.5837 0.3509
C44 C 0.2077(3) 0.5601(11) 0.2492(7)
H17 H 0.2446 0.5050 0.5566
O11 O 0.17448(14) 0.5461(5) 0.6384(5)
O12 O 0.2174(2) 0.5210(11) 0.6788(7)
U2 U 0.12715(2) 0.95747(2) 0.16387(2)
H26 H 0.2335 0.6965 0.1308
C49 C 0.2131(3) 0.5966(12) 0.1818(7)
H27 H 0.1964 0.5075 0.2558
C54 C 0.2002(4) 0.5466(15) 0.1194(9)
O19 O 0.2052(2) 0.5791(10) 0.0605(5)
O20 O 0.1855(3) 0.4838(10) 0.1326(7)
N10 N 0.26431(16) 0.8244(7) 0.2997(4)
N11 N 0.28604(13) 0.6916(6) 0.3822(4)
N12 N 0.26535(14) 0.8270(6) 0.4496(4)
C55 C 0.25928(19) 0.7901(8) 0.2347(4)
C56 C 0.2802(2) 0.8942(10) 0.3052(6)
C57 C 0.29504(17) 0.6253(8) 0.3428(5)
C58 C 0.30232(16) 0.7256(7) 0.4347(4)
C59 C 0.29020(16) 0.8002(7) 0.4744(4)
C60 C 0.2536(2) 0.9002(9) 0.4792(6)
C61 C 0.2704(3) 0.8287(11) 0.1756(6)
H28 H 0.2840 0.9163 0.3509
C62 C 0.2923(3) 0.9399(11) 0.2492(7)
H29 H 0.2838 0.6047 0.3052
C63 C 0.32057(17) 0.5833(8) 0.3536(5)
C64 C 0.32823(16) 0.6887(7) 0.4467(5)
C65 C 0.30212(17) 0.8392(7) 0.5330(5)
C66 C 0.2645(2) 0.9436(10) 0.5370(6)
H30 H 0.2370 0.9232 0.4596
H31 H 0.2665 0.8035 0.1308
C67 C 0.2869(3) 0.9034(12) 0.1818(7)
H32 H 0.3036 0.9925 0.2558
C68 C 0.33709(16) 0.6174(6) 0.4054(5)
H33 H 0.3262 0.5327 0.3260
H34 H 0.3397 0.7123 0.4828
H35 H 0.3192 0.8168 0.5505
C69 C 0.28872(18) 0.9122(8) 0.5662(5)
H36 H 0.2554 0.9950 0.5566
U3 U 0.12715(2) 0.54253(2) 0.66387(2)
C70 C 0.2998(4) 0.9534(15) 0.1194(9)
C71 C 0.36395(16) 0.5705(6) 0.4215(5)
C72 C 0.3001(2) 0.9532(9) 0.6331(7)
O26 O 0.2948(2) 0.9209(10) 0.0605(5)
O28 O 0.36379(10) 0.4865(4) 0.4346(3)
O29 O 0.38607(10) 0.6160(4) 0.4211(4)
O30 O 0.32552(14) 0.9539(5) 0.6384(5)
O31 O 0.2826(2) 0.9790(11) 0.6788(7)
U8 U 0.41452(2) 0.47587(2) 0.45006(2)
U9 U 0.37285(2) 0.95747(2) 0.66387(2)
O35 O 0.45217(9) 0.3875(3) 0.4702(2)
O36 O 0.41549(9) 0.4424(3) 0.3604(2)
O37 O 0.41399(10) 0.5114(3) 0.5387(3)
O38 O 0.44592(10) 0.5863(3) 0.4211(3)
O39 O 0.39409(9) 0.3361(3) 0.4808(2)
C73 C 0.47275(12) 0.3370(4) 0.4517(3)
O40 O 0.47685(9) 0.2584(3) 0.4703(2)
C74 C 0.49259(12) 0.3809(4) 0.4012(3)
C75 C 0.48299(12) 0.4327(4) 0.3463(3)
C76 C 0.52122(12) 0.3676(4) 0.4072(3)
C77 C 0.50144(12) 0.4719(4) 0.2994(3)
H37 H 0.4637 0.4416 0.3403
C78 C 0.53841(12) 0.4062(4) 0.3584(3)
H38 H 0.5286 0.3324 0.4445
N13 N 0.52896(10) 0.4574(3) 0.3053(3)
C79 C 0.49333(12) 0.5337(4) 0.2426(3)
H39 H 0.5577 0.3963 0.3624
Co3 Co 0.55011(2) 0.51133(6) 0.22914(5)
N14 N 0.51494(10) 0.5615(3) 0.2018(3)
C80 C 0.46670(12) 0.5622(4) 0.2304(3)
N15 N 0.58340(10) 0.4496(3) 0.2570(3)
N16 N 0.54343(10) 0.3997(3) 0.1761(3)
N17 N 0.55709(10) 0.6232(3) 0.2810(3)
N18 N 0.57036(10) 0.5725(3) 0.1553(3)
C81 C 0.50960(13) 0.6168(4) 0.1471(4)
H40 H 0.4521 0.5423 0.2597
C82 C 0.46168(13) 0.6203(5) 0.1747(4)
C83 C 0.58534(12) 0.3623(4) 0.2308(3)
C84 C 0.60244(13) 0.4799(5) 0.3010(3)
C85 C 0.52137(12) 0.3811(4) 0.1358(3)
C86 C 0.56256(12) 0.3344(4) 0.1861(3)
C87 C 0.54931(12) 0.6446(4) 0.3469(3)
C88 C 0.56931(12) 0.6890(4) 0.2419(3)
C89 C 0.57792(13) 0.5396(4) 0.0934(3)
C90 C 0.57679(12) 0.6595(4) 0.1708(3)
H41 H 0.5244 0.6360 0.1180
C91 C 0.48305(14) 0.6465(5) 0.1322(4)
C92 C 0.43241(15) 0.6528(6) 0.1581(6)
C93 C 0.60651(13) 0.3060(5) 0.2517(4)
H42 H 0.6017 0.5417 0.3163
C94 C 0.62332(14) 0.4241(5) 0.3251(4)
H43 H 0.5082 0.4279 0.1273
C95 C 0.51730(12) 0.2957(4) 0.1062(3)
C96 C 0.55998(13) 0.2480(5) 0.1566(3)
H44 H 0.5408 0.5990 0.3750
C97 C 0.55332(12) 0.7302(4) 0.3746(3)
C98 C 0.57424(13) 0.7763(4) 0.2672(3)
H45 H 0.5749 0.4767 0.0837
C99 C 0.59010(13) 0.5942(5) 0.0424(3)
C100 C 0.58874(12) 0.7184(4) 0.1227(3)
H46 H 0.4797 0.6846 0.0929
O41 O 0.41376(10) 0.6163(4) 0.1954(3)
O42 O 0.42957(12) 0.7104(6) 0.1127(6)
H47 H 0.6084 0.2467 0.2319
C101 C 0.62505(13) 0.3358(5) 0.3014(4)
H48 H 0.6364 0.4466 0.3579
C102 C 0.53687(12) 0.2275(4) 0.1172(3)
H49 H 0.5014 0.2838 0.0788
H50 H 0.5740 0.2033 0.1634
C103 C 0.56588(13) 0.7976(4) 0.3354(3)
H51 H 0.5474 0.7430 0.4209
H52 H 0.5831 0.8208 0.2388
C104 C 0.59475(12) 0.6863(4) 0.0566(3)
H54 H 0.5927 0.7799 0.1351
U10 U 0.37285(2) 0.54253(2) 0.16387(2)
C105 C 0.64569(16) 0.2680(6) 0.3323(5)
C106 C 0.53246(13) 0.1329(4) 0.0873(3)
C107 C 0.57022(15) 0.8932(5) 0.3630(4)
C108 C 0.60578(13) 0.7528(4) 0.0027(3)
O44 O 0.66244(15) 0.2956(5) 0.3746(5)
O45 O 0.55408(10) 0.0863(3) 0.0789(3)
O46 O 0.50894(9) 0.1090(3) 0.0739(3)
O47 O 0.59195(13) 0.9312(4) 0.3393(3)
O48 O 0.55307(12) 0.9253(4) 0.4018(3)
O49 O 0.60591(9) 0.8361(3) 0.0192(2)
U14 U 0.58548(2) 0.97587(2) 0.04994(2)
O54 O 0.64542(15) 0.8941(5) 0.3776(5)
H55 H 0.1698 0.505324 0.16158
H58 H 0.642635 0.84699 0.340859
H59 H 0.66541 0.90021 0.387741
C6 C 0.97878(12) 0.1324(4) 0.4072(3)
C9 C 0.99856(12) 0.0281(4) 0.2994(3)
C10 C 0.96159(12) 0.0938(4) 0.3584(3)
H2 H 0.9714 0.1676 0.4445
N1 N 0.97104(10) 0.0426(3) 0.3053(3)
H5 H 0.9423 0.1037 0.3624
N5 N 0.91660(10) 0.0504(3) 0.2570(3)
N6 N 0.95657(10) 0.1003(3) 0.1761(3)
C21 C 0.91466(12) 0.1377(4) 0.2308(3)
C22 C 0.89756(13) 0.0201(5) 0.3010(3)
C23 C 0.97863(12) 0.1189(4) 0.1358(3)
C24 C 0.93744(12) 0.1656(4) 0.1861(3)
C35 C 0.89349(13) 0.1940(5) 0.2517(4)
C36 C 0.87668(14) 0.0759(5) 0.3251(4)
H12 H 0.9918 0.0721 0.1273
C37 C 0.98270(12) 0.2043(4) 0.1062(3)
C38 C 0.94002(13) 0.2520(5) 0.1566(3)
H14 H 0.9251 0.0233 0.0837
H18 H 0.8916 0.2533 0.2319
C45 C 0.87495(13) 0.1642(5) 0.3014(4)
H19 H 0.8636 0.0534 0.3579
C46 C 0.96313(12) 0.2725(4) 0.1172(3)
H20 H 0.9986 0.2162 0.0788
H21 H 0.9260 0.2967 0.1634
C50 C 0.85431(16) 0.2320(6) 0.3323(5)
C51 C 0.96754(13) 0.3671(4) 0.0873(3)
O13 O 0.85695(10) 0.3145(4) 0.3097(3)
O14 O 0.83756(15) 0.2044(5) 0.3746(5)
O15 O 0.99106(9) 0.3910(3) 0.0739(3)
O24 O 0.94592(10) 0.4137(3) 0.0789(3)
U4 U 0.87285(2) 0.45747(2) 0.33613(2)
U5 U 0.91452(2) 0.52413(2) 0.04994(2)
Co1 Co 0.94989(2) 0.98867(6) 0.22914(5)
N3 N 0.98506(10) 0.9385(3) 0.2018(3)
N7 N 0.94291(10) 0.8768(3) 0.2810(3)
N8 N 0.92964(10) 0.9275(3) 0.1553(3)
C17 C 0.99040(13) 0.8832(4) 0.1471(4)
C25 C 0.95069(12) 0.8554(4) 0.3469(3)
C26 C 0.93069(12) 0.8110(4) 0.2419(3)
C27 C 0.92208(13) 0.9604(4) 0.0934(3)
C28 C 0.92321(12) 0.8405(4) 0.1708(3)
H9 H 0.9756 0.8640 0.1180
H11 H 0.8983 0.9583 0.3163
H13 H 0.9592 0.9010 0.3750
C39 C 0.94668(12) 0.7698(4) 0.3746(3)
C40 C 0.92576(13) 0.7237(4) 0.2672(3)
C41 C 0.90990(13) 0.9058(5) 0.0424(3)
C42 C 0.91126(12) 0.7816(4) 0.1227(3)
C47 C 0.93412(13) 0.7024(4) 0.3354(3)
H22 H 0.9526 0.7570 0.4209
H23 H 0.9169 0.6792 0.2388
C48 C 0.90525(12) 0.8137(4) 0.0566(3)
H25 H 0.9073 0.7201 0.1351
C52 C 0.92978(15) 0.6068(5) 0.3630(4)
C53 C 0.89422(13) 0.7472(4) 0.0027(3)
O16 O 0.90805(13) 0.5688(4) 0.3393(3)
O17 O 0.94693(12) 0.5747(4) 0.4018(3)
O21 O 0.86663(12) 0.4880(4) 0.2482(3)
O22 O 0.87964(15) 0.4309(5) 0.4249(3)
O23 O 0.85458(15) 0.6059(5) 0.3776(5)
O25 O 0.89409(9) 0.6639(3) 0.0192(2)
O32 O 0.91376(10) 0.3837(4) 0.3046(3)
O34 O 0.82552(14) 0.4539(5) 0.3616(5)
H56 H 0.857365 0.65301 0.340859
H57 H 0.83459 0.59979 0.387741
H55_2 H 0.3302 0.994676 0.16158
C76_2 C 0.02122(12) 0.6324(4) 0.0928(3)
C77_2 C 0.00144(12) 0.5281(4) 0.2006(3)
C78_2 C 0.03841(12) 0.5938(4) 0.1416(3)
H38_2 H 0.0286 0.6676 0.0555
N13_2 N 0.02896(10) 0.5426(3) 0.1947(3)
H39_2 H 0.0577 0.6037 0.1376
Co3_2 Co 0.05011(2) 0.48867(6) 0.27086(5)
N14_2 N 0.01494(10) 0.4385(3) 0.2982(3)
N15_2 N 0.08340(10) 0.5504(3) 0.2430(3)
N16_2 N 0.04343(10) 0.6003(3) 0.3239(3)
N17_2 N 0.05709(10) 0.3768(3) 0.2190(3)
N18_2 N 0.07036(10) 0.4275(3) 0.3447(3)
C81_2 C 0.00960(13) 0.3832(4) 0.3529(4)
C83_2 C 0.08534(12) 0.6377(4) 0.2692(3)
C84_2 C 0.10244(13) 0.5201(5) 0.1990(3)
C85_2 C 0.02137(12) 0.6189(4) 0.3642(3)
C86_2 C 0.06256(12) 0.6656(4) 0.3139(3)
C87_2 C 0.04931(12) 0.3554(4) 0.1531(3)
C88_2 C 0.06931(12) 0.3110(4) 0.2581(3)
C89_2 C 0.07792(13) 0.4604(4) 0.4066(3)
C90_2 C 0.07679(12) 0.3405(4) 0.3292(3)
H41_2 H 0.0244 0.3640 0.3820
C93_2 C 0.10651(13) 0.6940(5) 0.2483(4)
H42_2 H 0.1017 0.4583 0.1837
C94_2 C 0.12332(14) 0.5759(5) 0.1749(4)
H43_2 H 0.0082 0.5721 0.3727
C95_2 C 0.01730(12) 0.7043(4) 0.3938(3)
C96_2 C 0.05998(13) 0.7520(5) 0.3434(3)
H44_2 H 0.0408 0.4010 0.1250
C97_2 C 0.05332(12) 0.2698(4) 0.1254(3)
C98_2 C 0.07424(13) 0.2237(4) 0.2328(3)
H45_2 H 0.0749 0.5233 0.4163
C99_2 C 0.09010(13) 0.4058(5) 0.4576(3)
C100_2 C 0.08874(12) 0.2816(4) 0.3773(3)
H47_2 H 0.1084 0.7533 0.2681
C101_2 C 0.12505(13) 0.6642(5) 0.1986(4)
H48_2 H 0.1364 0.5534 0.1421
C102_2 C 0.03687(12) 0.7725(4) 0.3828(3)
H49_2 H 0.0014 0.7162 0.4212
H50_2 H 0.0740 0.7967 0.3366
C103_2 C 0.06588(13) 0.2024(4) 0.1646(3)
H51_2 H 0.0474 0.2570 0.0791
H52_2 H 0.0831 0.1792 0.2612
C104_2 C 0.09475(12) 0.3137(4) 0.4434(3)
H53 H 0.0952 0.4310 0.5016
H54_2 H 0.0927 0.2201 0.3649
C105_2 C 0.14569(16) 0.7320(6) 0.1677(5)
C106_2 C 0.03246(13) 0.8671(4) 0.4127(3)
C107_2 C 0.07022(15) 0.1068(5) 0.1370(4)
C108_2 C 0.10578(13) 0.2472(4) 0.4973(3)
O43 O 0.14305(10) 0.8145(4) 0.1903(3)
O44_2 O 0.16244(15) 0.7044(5) 0.1254(5)
O46_2 O 0.00894(9) 0.8910(3) 0.4261(3)
O47_2 O 0.09195(13) 0.0688(4) 0.1607(3)
O48_2 O 0.05307(12) 0.0747(4) 0.0982(3)
O50 O 0.11305(14) 0.2770(4) 0.5545(3)
O54_2 O 0.14542(15) 0.1059(5) 0.1224(5)
H58_2 H 0.142635 0.15301 0.159141
H59_2 H 0.16541 0.0997904 0.112259
O52_2 O 0.13337(12) 0.9880(4) 0.2518(3)
O53_2 O 0.12036(15) 0.9309(5) 0.0751(3)
O56_2 O 0.17448(14) 0.9539(5) 0.1384(5)
O5_2 O 0.61393(10) 0.1160(4) 0.0789(4)
C2_2 C 0.63605(16) 0.0705(6) 0.0785(5)
C4_2 C 0.66291(16) 0.1174(6) 0.0946(5)
C7_2 C 0.67177(16) 0.1887(7) 0.0533(5)
C8_2 C 0.67943(17) 0.0833(8) 0.1464(5)
C11_2 C 0.69768(16) 0.2256(7) 0.0653(4)
H3_2 H 0.6603 0.2123 0.0172
C12_2 C 0.70496(17) 0.1253(8) 0.1572(5)
H4_2 H 0.6738 0.0327 0.1740
C13_2 C 0.50667(12) 0.0337(4) 0.2574(3)
N2_2 N 0.71396(13) 0.1916(6) 0.1178(4)
C14_2 C 0.70980(16) 0.3002(7) 0.0256(4)
H6_2 H 0.7162 0.1047 0.1948
Co1_2 Co 0.44989(2) 0.01133(6) 0.27086(5)
N3_2 N 0.48506(10) 0.0615(3) 0.2982(3)
C15_2 C 0.53330(12) 0.0622(4) 0.2696(3)
Co2_2 Co 0.7500 0.2500 0.12371(9)
N4_2 N 0.73465(14) 0.3270(6) 0.0504(4)
N7_2 N 0.44291(10) 0.1232(3) 0.2190(3)
N8_2 N 0.42964(10) 0.0725(3) 0.3447(3)
C17_2 C 0.49040(13) 0.1168(4) 0.3529(4)
H7_2 H 0.5479 0.0423 0.2403
C18_2 C 0.53832(13) 0.1203(5) 0.3253(4)
N9_2 N 0.73569(16) 0.3244(7) 0.2003(4)
C19_2 C 0.7464(2) 0.4002(9) 0.0208(6)
C25_2 C 0.45069(12) 0.1446(4) 0.1531(3)
C26_2 C 0.43069(12) 0.1890(4) 0.2581(3)
C27_2 C 0.42208(13) 0.0396(4) 0.4066(3)
C28_2 C 0.42321(12) 0.1595(4) 0.3292(3)
H9_2 H 0.4756 0.1360 0.3820
C29_2 C 0.51695(14) 0.1465(5) 0.3678(4)
C30_2 C 0.56759(15) 0.1528(6) 0.3419(6)
C31_2 C 0.74072(19) 0.2901(8) 0.2653(4)
C32_2 C 0.7198(2) 0.3942(10) 0.1948(6)
H10_2 H 0.7630 0.4232 0.0404
H11_2 H 0.3983 0.0417 0.1837
H13_2 H 0.4592 0.0990 0.1250
C39_2 C 0.44668(12) 0.2302(4) 0.1254(3)
C40_2 C 0.42576(13) 0.2763(4) 0.2328(3)
C41_2 C 0.40990(13) 0.0942(5) 0.4576(3)
C42_2 C 0.41126(12) 0.2184(4) 0.3773(3)
H15_2 H 0.5203 0.1846 0.4071
O10_2 O 0.57043(12) 0.2104(6) 0.3873(6)
C43_2 C 0.7296(3) 0.3287(11) 0.3244(6)
H16_2 H 0.7160 0.4163 0.1491
C44_2 C 0.7077(3) 0.4399(11) 0.2508(7)
C47_2 C 0.43412(13) 0.2976(4) 0.1646(3)
H22_2 H 0.4526 0.2430 0.0791
H23_2 H 0.4169 0.3208 0.2612
C48_2 C 0.40525(12) 0.1863(4) 0.4434(3)
H24 H 0.4048 0.0690 0.5016
H25_2 H 0.4073 0.2799 0.3649
H26_2 H 0.7335 0.3035 0.3692
C49_2 C 0.7131(3) 0.4034(12) 0.3182(7)
H27_2 H 0.6964 0.4925 0.2442
C52_2 C 0.42978(15) 0.3932(5) 0.1370(4)
C53_2 C 0.39422(13) 0.2528(4) 0.4973(3)
C54_2 C 0.7002(4) 0.4534(15) 0.3806(9)
O16_2 O 0.40805(13) 0.4312(4) 0.1607(3)
O17_2 O 0.44693(12) 0.4253(4) 0.0982(3)
O18 O 0.38695(14) 0.2230(4) 0.5545(3)
O19_2 O 0.7052(2) 0.4209(10) 0.4395(5)
O20_2 O 0.6855(3) 0.5162(10) 0.3674(7)
O21_2 O 0.36663(12) 0.5120(4) 0.2518(3)
O22_2 O 0.37964(15) 0.5691(5) 0.0751(3)
O23_2 O 0.35458(15) 0.3941(5) 0.1224(5)
N10_2 N 0.76431(16) 0.1756(7) 0.2003(4)
N11_2 N 0.78604(13) 0.3084(6) 0.1178(4)
N12_2 N 0.76535(14) 0.1730(6) 0.0504(4)
C55_2 C 0.75928(19) 0.2099(8) 0.2653(4)
C56_2 C 0.7802(2) 0.1058(10) 0.1948(6)
C57_2 C 0.79504(17) 0.3747(8) 0.1572(5)
C58_2 C 0.80232(16) 0.2744(7) 0.0653(4)
C59_2 C 0.79020(16) 0.1998(7) 0.0256(4)
C60_2 C 0.7536(2) 0.0998(9) 0.0208(6)
C61_2 C 0.7704(3) 0.1713(11) 0.3244(6)
H28_2 H 0.7840 0.0837 0.1491
C62_2 C 0.7923(3) 0.0601(11) 0.2508(7)
H29_2 H 0.7838 0.3953 0.1948
C63_2 C 0.82057(17) 0.4167(8) 0.1464(5)
C64_2 C 0.82823(16) 0.3113(7) 0.0533(5)
H30_2 H 0.7370 0.0768 0.0404
H31_2 H 0.7665 0.1965 0.3692
C67_2 C 0.7869(3) 0.0966(12) 0.3182(7)
H32_2 H 0.8036 0.0075 0.2442
C68_2 C 0.83709(16) 0.3826(6) 0.0946(5)
H33_2 H 0.8262 0.4673 0.1740
H34_2 H 0.8397 0.2877 0.0172
C70_2 C 0.7998(4) 0.0466(15) 0.3806(9)
C71_2 C 0.86395(16) 0.4295(6) 0.0785(5)
O26_2 O 0.7948(2) 0.0791(10) 0.4395(5)
O28_2 O 0.86379(10) 0.5135(4) 0.0654(3)
O29_2 O 0.88607(10) 0.3840(4) 0.0789(4)
O33 O 0.35695(10) 0.6855(4) 0.1903(3)
O34_2 O 0.32552(14) 0.5461(5) 0.1384(5)
O35_2 O 0.95217(9) 0.6125(3) 0.0298(2)
O36_2 O 0.91549(9) 0.5576(3) 0.1396(2)
C73_2 C 0.97275(12) 0.6630(4) 0.0483(3)
O40_2 O 0.97685(9) 0.7416(3) 0.0297(2)
C74_2 C 0.99259(12) 0.6191(4) 0.0988(3)
C75_2 C 0.98299(12) 0.5673(4) 0.1537(3)
H37_2 H 0.9637 0.5584 0.1597
C79_2 C 0.99333(12) 0.4663(4) 0.2574(3)
C80_2 C 0.96670(12) 0.4378(4) 0.2696(3)
H40_2 H 0.9521 0.4577 0.2403
C82_2 C 0.96168(13) 0.3797(5) 0.3253(4)
C91_2 C 0.98305(14) 0.3535(5) 0.3678(4)
C92_2 C 0.93241(15) 0.3472(6) 0.3419(6)
H46_2 H 0.9797 0.3154 0.4071
O42_2 O 0.92957(12) 0.2896(6) 0.3873(6)
H55_3 H 0.6698 0.494676 0.33842
H56_2 H 0.357365 0.34699 0.159141
H57_2 H 0.33459 0.40021 0.112259
O3_2 O 0.58601(10) 0.0114(3) 0.9613(3)
C16_2 C 0.69788(17) 0.3392(7) 0.9670(5)
H8_2 H 0.6808 0.3168 0.9495
C20_2 C 0.71128(18) 0.4122(8) 0.9338(5)
C33_2 C 0.7355(2) 0.4436(10) 0.9630(6)
C34_2 C 0.6999(2) 0.4532(9) 0.8669(7)
H17_2 H 0.7446 0.4950 0.9434
O11_2 O 0.67448(14) 0.4539(5) 0.8616(5)
O12_2 O 0.7174(2) 0.4790(11) 0.8212(7)
C65_2 C 0.80212(17) 0.1608(7) 0.9670(5)
C66_2 C 0.7645(2) 0.0564(10) 0.9630(6)
H35_2 H 0.8192 0.1832 0.9495
C69_2 C 0.78872(18) 0.0878(8) 0.9338(5)
H36_2 H 0.7554 0.0050 0.9434
U3_2 U 0.62715(2) 0.45747(2) 0.83613(2)
C72_2 C 0.8001(2) 0.0468(9) 0.8669(7)
O30_2 O 0.82552(14) 0.0461(5) 0.8616(5)
O31_2 O 0.7826(2) 0.0210(11) 0.8212(7)
U9_2 U 0.87285(2) 0.04253(2) 0.83613(2)
O37_2 O 0.91399(10) 0.4886(3) 0.9613(3)
O1_2 O 0.54783(9) 0.8875(3) 0.0298(2)
O2_2 O 0.58451(9) 0.9424(3) 0.1396(2)
O4_2 O 0.63621(10) 0.9865(4) 0.0654(3)
C1_2 C 0.52725(12) 0.8370(4) 0.0483(3)
O8_2 O 0.52315(9) 0.7584(3) 0.0297(2)
C3_2 C 0.50741(12) 0.8809(4) 0.0988(3)
C5_2 C 0.51701(12) 0.9327(4) 0.1537(3)
C6_2 C 0.47878(12) 0.8676(4) 0.0928(3)
C9_2 C 0.49856(12) 0.9719(4) 0.2006(3)
H1_2 H 0.5363 0.9416 0.1597
C10_2 C 0.46159(12) 0.9062(4) 0.1416(3)
H2_2 H 0.4714 0.8324 0.0555
N1_2 N 0.47104(10) 0.9574(3) 0.1947(3)
H5_2 H 0.4423 0.8963 0.1376
N5_2 N 0.41660(10) 0.9496(3) 0.2430(3)
N6_2 N 0.45657(10) 0.8997(3) 0.3239(3)
C21_2 C 0.41466(12) 0.8623(4) 0.2692(3)
C22_2 C 0.39756(13) 0.9799(5) 0.1990(3)
C23_2 C 0.47863(12) 0.8811(4) 0.3642(3)
C24_2 C 0.43744(12) 0.8344(4) 0.3139(3)
C35_2 C 0.39349(13) 0.8060(5) 0.2483(4)
C36_2 C 0.37668(14) 0.9241(5) 0.1749(4)
H12_2 H 0.4918 0.9279 0.3727
C37_2 C 0.48270(12) 0.7957(4) 0.3938(3)
C38_2 C 0.44002(13) 0.7480(5) 0.3434(3)
H14_2 H 0.4251 0.9767 0.4163
H18_2 H 0.3916 0.7467 0.2681
C45_2 C 0.37495(13) 0.8358(5) 0.1986(4)
H19_2 H 0.3636 0.9466 0.1421
C46_2 C 0.46313(12) 0.7275(4) 0.3828(3)
H20_2 H 0.4986 0.7838 0.4212
H21_2 H 0.4260 0.7033 0.3366
C50_2 C 0.35431(16) 0.7680(6) 0.1677(5)
C51_2 C 0.46754(13) 0.6329(4) 0.4127(3)
O14_2 O 0.33756(15) 0.7956(5) 0.1254(5)
O15_2 O 0.49106(9) 0.6090(3) 0.4261(3)
O27_2 O 0.8145(3) 0.9838(10) 0.3674(7)
H55_4 H 0.8302 0.00532354 0.33842
Co1_3 Co 0.05011(2) 0.01133(6) 0.77086(5)
N3_3 N 0.01494(10) 0.0615(3) 0.7982(3)
N7_3 N 0.05709(10) 0.1232(3) 0.7190(3)
N8_3 N 0.07036(10) 0.0725(3) 0.8447(3)
C17_3 C 0.00960(13) 0.1168(4) 0.8529(4)
C25_3 C 0.04931(12) 0.1446(4) 0.6531(3)
C26_3 C 0.06931(12) 0.1890(4) 0.7581(3)
C27_3 C 0.07792(13) 0.0396(4) 0.9066(3)
C28_3 C 0.07679(12) 0.1595(4) 0.8292(3)
H9_3 H 0.0244 0.1360 0.8820
H11_3 H 0.1017 0.0417 0.6837
H13_3 H 0.0408 0.0990 0.6250
C39_3 C 0.05332(12) 0.2302(4) 0.6254(3)
C40_3 C 0.07424(13) 0.2763(4) 0.7328(3)
C41_3 C 0.09010(13) 0.0942(5) 0.9576(3)
C42_3 C 0.08874(12) 0.2184(4) 0.8773(3)
C47_3 C 0.06588(13) 0.2976(4) 0.6646(3)
H22_3 H 0.0474 0.2430 0.5791
H23_3 H 0.0831 0.3208 0.7612
C48_3 C 0.09475(12) 0.1863(4) 0.9434(3)
H25_3 H 0.0927 0.2799 0.8649
C52_3 C 0.07022(15) 0.3932(5) 0.6370(4)
C53_3 C 0.10578(13) 0.2528(4) 0.9973(3)
O16_3 O 0.09195(13) 0.4312(4) 0.6607(3)
O17_3 O 0.05307(12) 0.4253(4) 0.5982(3)
O21_3 O 0.13337(12) 0.5120(4) 0.7518(3)
O22_3 O 0.12036(15) 0.5691(5) 0.5751(3)
O23_3 O 0.14542(15) 0.3941(5) 0.6224(5)
O25_2 O 0.10591(9) 0.3361(3) 0.9808(2)
O32_2 O 0.08624(10) 0.6163(4) 0.6954(3)
U7 U 0.08548(2) 0.47587(2) 0.95006(2)
O33_2 O 0.14305(10) 0.6855(4) 0.6903(3)
H56_3 H 0.142635 0.34699 0.659141
H57_3 H 0.16541 0.40021 0.612259
C6_3 C 0.02122(12) 0.8676(4) 0.5928(3)
C9_3 C 0.00144(12) 0.9719(4) 0.7006(3)
C10_3 C 0.03841(12) 0.9062(4) 0.6416(3)
H2_3 H 0.0286 0.8324 0.5555
N1_3 N 0.02896(10) 0.9574(3) 0.6947(3)
H5_3 H 0.0577 0.8963 0.6376
N5_3 N 0.08340(10) 0.9496(3) 0.7430(3)
N6_3 N 0.04343(10) 0.8997(3) 0.8239(3)
C21_3 C 0.08534(12) 0.8623(4) 0.7692(3)
C22_3 C 0.10244(13) 0.9799(5) 0.6990(3)
C23_3 C 0.02137(12) 0.8811(4) 0.8642(3)
C24_3 C 0.06256(12) 0.8344(4) 0.8139(3)
C35_3 C 0.10651(13) 0.8060(5) 0.7483(4)
C36_3 C 0.12332(14) 0.9241(5) 0.6749(4)
H12_3 H 0.0082 0.9279 0.8727
C37_3 C 0.01730(12) 0.7957(4) 0.8938(3)
C38_3 C 0.05998(13) 0.7480(5) 0.8434(3)
H14_3 H 0.0749 0.9767 0.9163
H18_3 H 0.1084 0.7467 0.7681
C45_3 C 0.12505(13) 0.8358(5) 0.6986(4)
H19_3 H 0.1364 0.9466 0.6421
C46_3 C 0.03687(12) 0.7275(4) 0.8828(3)
H20_3 H 0.0014 0.7838 0.9212
H21_3 H 0.0740 0.7033 0.8366
C50_3 C 0.14569(16) 0.7680(6) 0.6677(5)
C51_3 C 0.03246(13) 0.6329(4) 0.9127(3)
O14_3 O 0.16244(15) 0.7956(5) 0.6254(5)
O15_3 O 0.00894(9) 0.6090(3) 0.9261(3)
O24_2 O 0.05408(10) 0.5863(3) 0.9211(3)
U12 U 0.41452(2) 0.02413(2) 0.95006(2)
O3_3 O 0.91399(10) 0.0114(3) 0.4613(3)
O5_3 O 0.88607(10) 0.1160(4) 0.5789(4)
O6_2 O 0.94592(10) 0.0863(3) 0.5789(3)
C2_3 C 0.86395(16) 0.0705(6) 0.5785(5)
C4_3 C 0.83709(16) 0.1174(6) 0.5946(5)
C7_3 C 0.82823(16) 0.1887(7) 0.5533(5)
C8_3 C 0.82057(17) 0.0833(8) 0.6464(5)
C11_3 C 0.80232(16) 0.2256(7) 0.5653(4)
H3_3 H 0.8397 0.2123 0.5172
C12_3 C 0.79504(17) 0.1253(8) 0.6572(5)
H4_3 H 0.8262 0.0327 0.6740
C13_3 C 0.99333(12) 0.0337(4) 0.7574(3)
N2_3 N 0.78604(13) 0.1916(6) 0.6178(4)
C14_3 C 0.79020(16) 0.3002(7) 0.5256(4)
H6_3 H 0.7838 0.1047 0.6948
C15_3 C 0.96670(12) 0.0622(4) 0.7696(3)
Co2_3 Co 0.7500 0.2500 0.62371(9)
N4_3 N 0.76535(14) 0.3270(6) 0.5504(4)
C16_3 C 0.80212(17) 0.3392(7) 0.4670(5)
H7_3 H 0.9521 0.0423 0.7403
C18_3 C 0.96168(13) 0.1203(5) 0.8253(4)
N9_3 N 0.76431(16) 0.3244(7) 0.7003(4)
C19_3 C 0.7536(2) 0.4002(9) 0.5208(6)
H8_3 H 0.8192 0.3168 0.4495
C20_3 C 0.78872(18) 0.4122(8) 0.4338(5)
C29_3 C 0.98305(14) 0.1465(5) 0.8678(4)
C30_3 C 0.93241(15) 0.1528(6) 0.8419(6)
C31_3 C 0.75928(19) 0.2901(8) 0.7653(4)
C32_3 C 0.7802(2) 0.3942(10) 0.6948(6)
C33_3 C 0.7645(2) 0.4436(10) 0.4630(6)
H10_3 H 0.7370 0.4232 0.5404
C34_3 C 0.8001(2) 0.4532(9) 0.3669(7)
H15_3 H 0.9797 0.1846 0.9071
O9_2 O 0.91376(10) 0.1163(4) 0.8046(3)
O10_3 O 0.92957(12) 0.2104(6) 0.8873(6)
C43_3 C 0.7704(3) 0.3287(11) 0.8244(6)
H16_3 H 0.7840 0.4163 0.6491
C44_3 C 0.7923(3) 0.4399(11) 0.7508(7)
H17_3 H 0.7554 0.4950 0.4434
O12_3 O 0.7826(2) 0.4790(11) 0.3212(7)
H26_3 H 0.7665 0.3035 0.8692
C49_3 C 0.7869(3) 0.4034(12) 0.8182(7)
H27_3 H 0.8036 0.4925 0.7442
C54_3 C 0.7998(4) 0.4534(15) 0.8806(9)
O19_3 O 0.7948(2) 0.4209(10) 0.9395(5)
O20_3 O 0.8145(3) 0.5162(10) 0.8674(7)
N10_3 N 0.73569(16) 0.1756(7) 0.7003(4)
N11_3 N 0.71396(13) 0.3084(6) 0.6178(4)
N12_3 N 0.73465(14) 0.1730(6) 0.5504(4)
C55_3 C 0.74072(19) 0.2099(8) 0.7653(4)
C56_3 C 0.7198(2) 0.1058(10) 0.6948(6)
C57_3 C 0.70496(17) 0.3747(8) 0.6572(5)
C58_3 C 0.69768(16) 0.2744(7) 0.5653(4)
C59_3 C 0.70980(16) 0.1998(7) 0.5256(4)
C60_3 C 0.7464(2) 0.0998(9) 0.5208(6)
C61_3 C 0.7296(3) 0.1713(11) 0.8244(6)
H28_3 H 0.7160 0.0837 0.6491
C62_3 C 0.7077(3) 0.0601(11) 0.7508(7)
H29_3 H 0.7162 0.3953 0.6948
C63_3 C 0.67943(17) 0.4167(8) 0.6464(5)
C64_3 C 0.67177(16) 0.3113(7) 0.5533(5)
C65_3 C 0.69788(17) 0.1608(7) 0.4670(5)
C66_3 C 0.7355(2) 0.0564(10) 0.4630(6)
H30_3 H 0.7630 0.0768 0.5404
H31_3 H 0.7335 0.1965 0.8692
C67_3 C 0.7131(3) 0.0966(12) 0.8182(7)
H32_3 H 0.6964 0.0075 0.7442
C68_3 C 0.66291(16) 0.3826(6) 0.5946(5)
H33_3 H 0.6738 0.4673 0.6740
H34_3 H 0.6603 0.2877 0.5172
H35_3 H 0.6808 0.1832 0.4495
C69_3 C 0.71128(18) 0.0878(8) 0.4338(5)
H36_3 H 0.7446 0.0050 0.4434
C70_3 C 0.7002(4) 0.0466(15) 0.8806(9)
C71_3 C 0.63605(16) 0.4295(6) 0.5785(5)
C72_3 C 0.6999(2) 0.0468(9) 0.3669(7)
O26_3 O 0.7052(2) 0.0791(10) 0.9395(5)
O28_3 O 0.63621(10) 0.5135(4) 0.5654(3)
O29_3 O 0.61393(10) 0.3840(4) 0.5789(4)
O31_3 O 0.7174(2) 0.0210(11) 0.3212(7)
U8_2 U 0.58548(2) 0.52413(2) 0.54994(2)
O35_3 O 0.54783(9) 0.6125(3) 0.5298(2)
O36_3 O 0.58451(9) 0.5576(3) 0.6396(2)
O37_3 O 0.58601(10) 0.4886(3) 0.4613(3)
O38_2 O 0.55408(10) 0.4137(3) 0.5789(3)
O39_2 O 0.60591(9) 0.6639(3) 0.5192(2)
C73_3 C 0.52725(12) 0.6630(4) 0.5483(3)
O40_3 O 0.52315(9) 0.7416(3) 0.5297(2)
C74_3 C 0.50741(12) 0.6191(4) 0.5988(3)
C75_3 C 0.51701(12) 0.5673(4) 0.6537(3)
C76_3 C 0.47878(12) 0.6324(4) 0.5928(3)
C77_3 C 0.49856(12) 0.5281(4) 0.7006(3)
H37_3 H 0.5363 0.5584 0.6597
C78_3 C 0.46159(12) 0.5938(4) 0.6416(3)
H38_3 H 0.4714 0.6676 0.5555
N13_3 N 0.47104(10) 0.5426(3) 0.6947(3)
C79_3 C 0.50667(12) 0.4663(4) 0.7574(3)
H39_3 H 0.4423 0.6037 0.6376
Co3_3 Co 0.44989(2) 0.48867(6) 0.77086(5)
N14_3 N 0.48506(10) 0.4385(3) 0.7982(3)
C80_3 C 0.53330(12) 0.4378(4) 0.7696(3)
N15_3 N 0.41660(10) 0.5504(3) 0.7430(3)
N16_3 N 0.45657(10) 0.6003(3) 0.8239(3)
N17_3 N 0.44291(10) 0.3768(3) 0.7190(3)
N18_3 N 0.42964(10) 0.4275(3) 0.8447(3)
C81_3 C 0.49040(13) 0.3832(4) 0.8529(4)
H40_3 H 0.5479 0.4577 0.7403
C82_3 C 0.53832(13) 0.3797(5) 0.8253(4)
C83_3 C 0.41466(12) 0.6377(4) 0.7692(3)
C84_3 C 0.39756(13) 0.5201(5) 0.6990(3)
C85_3 C 0.47863(12) 0.6189(4) 0.8642(3)
C86_3 C 0.43744(12) 0.6656(4) 0.8139(3)
C87_3 C 0.45069(12) 0.3554(4) 0.6531(3)
C88_3 C 0.43069(12) 0.3110(4) 0.7581(3)
C89_3 C 0.42208(13) 0.4604(4) 0.9066(3)
C90_3 C 0.42321(12) 0.3405(4) 0.8292(3)
H41_3 H 0.4756 0.3640 0.8820
C91_3 C 0.51695(14) 0.3535(5) 0.8678(4)
C92_3 C 0.56759(15) 0.3472(6) 0.8419(6)
C93_3 C 0.39349(13) 0.6940(5) 0.7483(4)
H42_3 H 0.3983 0.4583 0.6837
C94_3 C 0.37668(14) 0.5759(5) 0.6749(4)
H43_3 H 0.4918 0.5721 0.8727
C95_3 C 0.48270(12) 0.7043(4) 0.8938(3)
C96_3 C 0.44002(13) 0.7520(5) 0.8434(3)
H44_3 H 0.4592 0.4010 0.6250
C97_3 C 0.44668(12) 0.2698(4) 0.6254(3)
C98_3 C 0.42576(13) 0.2237(4) 0.7328(3)
H45_3 H 0.4251 0.5233 0.9163
C99_3 C 0.40990(13) 0.4058(5) 0.9576(3)
C100_3 C 0.41126(12) 0.2816(4) 0.8773(3)
H46_3 H 0.5203 0.3154 0.9071
O41_2 O 0.58624(10) 0.3837(4) 0.8046(3)
O42_3 O 0.57043(12) 0.2896(6) 0.8873(6)
H47_3 H 0.3916 0.7533 0.7681
C101_3 C 0.37495(13) 0.6642(5) 0.6986(4)
H48_3 H 0.3636 0.5534 0.6421
C102_3 C 0.46313(12) 0.7725(4) 0.8828(3)
H49_3 H 0.4986 0.7162 0.9212
H50_3 H 0.4260 0.7967 0.8366
C103_3 C 0.43412(13) 0.2024(4) 0.6646(3)
H51_3 H 0.4526 0.2570 0.5791
H52_3 H 0.4169 0.1792 0.7612
C104_3 C 0.40525(12) 0.3137(4) 0.9434(3)
H54_3 H 0.4073 0.2201 0.8649
C105_3 C 0.35431(16) 0.7320(6) 0.6677(5)
C106_3 C 0.46754(13) 0.8671(4) 0.9127(3)
C107_3 C 0.42978(15) 0.1068(5) 0.6370(4)
C108_3 C 0.39422(13) 0.2472(4) 0.9973(3)
O43_2 O 0.35695(10) 0.8145(4) 0.6903(3)
O44_3 O 0.33756(15) 0.7044(5) 0.6254(5)
O45_2 O 0.44592(10) 0.9137(3) 0.9211(3)
O46_3 O 0.49106(9) 0.8910(3) 0.9261(3)
O47_3 O 0.40805(13) 0.0688(4) 0.6607(3)
O48_3 O 0.44693(12) 0.0747(4) 0.5982(3)
O49_2 O 0.39409(9) 0.1639(3) 0.9808(2)
O54_3 O 0.35458(15) 0.1059(5) 0.6224(5)
H55_5 H 0.8302 0.494676 0.83842
H58_3 H 0.357365 0.15301 0.659141
H59_3 H 0.33459 0.0997904 0.612259
U1_2 U 0.91452(2) 0.97587(2) 0.54994(2)
O1_3 O 0.95217(9) 0.8875(3) 0.5298(2)
O2_3 O 0.91549(9) 0.9424(3) 0.6396(2)
O4_3 O 0.86379(10) 0.9865(4) 0.5654(3)
O7_2 O 0.89409(9) 0.8361(3) 0.5192(2)
C1_3 C 0.97275(12) 0.8370(4) 0.5483(3)
O8_3 O 0.97685(9) 0.7584(3) 0.5297(2)
C3_3 C 0.99259(12) 0.8809(4) 0.5988(3)
C5_3 C 0.98299(12) 0.9327(4) 0.6537(3)
H1_3 H 0.9637 0.9416 0.6597
O27_3 O 0.6855(3) 0.9838(10) 0.8674(7)
O51_2 O 0.41376(10) 0.8837(4) 0.6954(3)
O52_3 O 0.36663(12) 0.9880(4) 0.7518(3)
O53_3 O 0.37964(15) 0.9309(5) 0.5751(3)
H55_6 H 0.6698 0.00532354 0.83842
O1_4 O 0.45217(9) 0.1125(3) 0.9702(2)
O2_4 O 0.41549(9) 0.0576(3) 0.8604(2)
O4_4 O 0.36379(10) 0.0135(4) 0.9346(3)
C1_4 C 0.47275(12) 0.1630(4) 0.9517(3)
O8_4 O 0.47685(9) 0.2416(3) 0.9703(2)
C3_4 C 0.49259(12) 0.1191(4) 0.9012(3)
C5_4 C 0.48299(12) 0.0673(4) 0.8463(3)
C6_4 C 0.52122(12) 0.1324(4) 0.9072(3)
C9_4 C 0.50144(12) 0.0281(4) 0.7994(3)
H1_4 H 0.4637 0.0584 0.8403
C10_4 C 0.53841(12) 0.0938(4) 0.8584(3)
H2_4 H 0.5286 0.1676 0.9445
N1_4 N 0.52896(10) 0.0426(3) 0.8053(3)
H5_4 H 0.5577 0.1037 0.8624
N5_4 N 0.58340(10) 0.0504(3) 0.7570(3)
N6_4 N 0.54343(10) 0.1003(3) 0.6761(3)
C21_4 C 0.58534(12) 0.1377(4) 0.7308(3)
C22_4 C 0.60244(13) 0.0201(5) 0.8010(3)
C23_4 C 0.52137(12) 0.1189(4) 0.6358(3)
C24_4 C 0.56256(12) 0.1656(4) 0.6861(3)
C35_4 C 0.60651(13) 0.1940(5) 0.7517(4)
C36_4 C 0.62332(14) 0.0759(5) 0.8251(4)
H12_4 H 0.5082 0.0721 0.6273
C37_4 C 0.51730(12) 0.2043(4) 0.6062(3)
C38_4 C 0.55998(13) 0.2520(5) 0.6566(3)
H14_4 H 0.5749 0.0233 0.5837
H18_4 H 0.6084 0.2533 0.7319
C45_4 C 0.62505(13) 0.1642(5) 0.8014(4)
H19_4 H 0.6364 0.0534 0.8579
C46_4 C 0.53687(12) 0.2725(4) 0.6172(3)
H20_4 H 0.5014 0.2162 0.5788
H21_4 H 0.5740 0.2967 0.6634
C50_4 C 0.64569(16) 0.2320(6) 0.8323(5)
C51_4 C 0.53246(13) 0.3671(4) 0.5873(3)
O13_2 O 0.64305(10) 0.3145(4) 0.8097(3)
O14_4 O 0.66244(15) 0.2044(5) 0.8746(5)
O15_4 O 0.50894(9) 0.3910(3) 0.5739(3)
O27_4 O 0.1855(3) 0.0162(10) 0.6326(7)
O3_4 O 0.41399(10) 0.9886(3) 0.0387(3)
C16_4 C 0.30212(17) 0.6608(7) 0.0330(5)
H8_4 H 0.3192 0.6832 0.0505
C20_4 C 0.28872(18) 0.5878(8) 0.0662(5)
C33_4 C 0.2645(2) 0.5564(10) 0.0370(6)
C34_4 C 0.3001(2) 0.5468(9) 0.1331(7)
H17_4 H 0.2554 0.5050 0.0566
O12_4 O 0.2826(2) 0.5210(11) 0.1788(7)
C65_4 C 0.19788(17) 0.8392(7) 0.0330(5)
C66_4 C 0.2355(2) 0.9436(10) 0.0370(6)
H35_4 H 0.1808 0.8168 0.0505
C69_4 C 0.21128(18) 0.9122(8) 0.0662(5)
H36_4 H 0.2446 0.9950 0.0566
C72_4 C 0.1999(2) 0.9532(9) 0.1331(7)
O31_4 O 0.2174(2) 0.9790(11) 0.1788(7)
O37_4 O 0.08601(10) 0.5114(3) 0.0387(3)
O5_4 O 0.38607(10) 0.8840(4) 0.9211(4)
C2_4 C 0.36395(16) 0.9295(6) 0.9215(5)
C4_4 C 0.33709(16) 0.8826(6) 0.9054(5)
C7_4 C 0.32823(16) 0.8113(7) 0.9467(5)
C8_4 C 0.32057(17) 0.9167(8) 0.8536(5)
C11_4 C 0.30232(16) 0.7744(7) 0.9347(4)
H3_4 H 0.3397 0.7877 0.9828
C12_4 C 0.29504(17) 0.8747(8) 0.8428(5)
H4_4 H 0.3262 0.9673 0.8260
C13_4 C 0.49333(12) 0.9663(4) 0.7426(3)
N2_4 N 0.28604(13) 0.8084(6) 0.8822(4)
C14_4 C 0.29020(16) 0.6998(7) 0.9744(4)
H6_4 H 0.2838 0.8953 0.8052
Co1_4 Co 0.55011(2) 0.98867(6) 0.72914(5)
N3_4 N 0.51494(10) 0.9385(3) 0.7018(3)
C15_4 C 0.46670(12) 0.9378(4) 0.7304(3)
Co2_4 Co 0.2500 0.7500 0.87629(9)
N4_4 N 0.26535(14) 0.6730(6) 0.9496(4)
N7_4 N 0.55709(10) 0.8768(3) 0.7810(3)
N8_4 N 0.57036(10) 0.9275(3) 0.6553(3)
C17_4 C 0.50960(13) 0.8832(4) 0.6471(4)
H7_4 H 0.4521 0.9577 0.7597
C18_4 C 0.46168(13) 0.8797(5) 0.6747(4)
N9_4 N 0.26431(16) 0.6756(7) 0.7997(4)
C19_4 C 0.2536(2) 0.5998(9) 0.9792(6)
C25_4 C 0.54931(12) 0.8554(4) 0.8469(3)
C26_4 C 0.56931(12) 0.8110(4) 0.7419(3)
C27_4 C 0.57792(13) 0.9604(4) 0.5934(3)
C28_4 C 0.57679(12) 0.8405(4) 0.6708(3)
H9_4 H 0.5244 0.8640 0.6180
C29_4 C 0.48305(14) 0.8535(5) 0.6322(4)
C30_4 C 0.43241(15) 0.8472(6) 0.6581(6)
C31_4 C 0.25928(19) 0.7099(8) 0.7347(4)
C32_4 C 0.2802(2) 0.6058(10) 0.8052(6)
H10_4 H 0.2370 0.5768 0.9596
H11_4 H 0.6017 0.9583 0.8163
H13_4 H 0.5408 0.9010 0.8750
C39_4 C 0.55332(12) 0.7698(4) 0.8746(3)
C40_4 C 0.57424(13) 0.7237(4) 0.7672(3)
C41_4 C 0.59010(13) 0.9058(5) 0.5424(3)
C42_4 C 0.58874(12) 0.7816(4) 0.6227(3)
H15_4 H 0.4797 0.8154 0.5929
O10_4 O 0.42957(12) 0.7896(6) 0.6127(6)
C43_4 C 0.2704(3) 0.6713(11) 0.6756(6)
H16_4 H 0.2840 0.5837 0.8509
C44_4 C 0.2923(3) 0.5601(11) 0.7492(7)
C47_4 C 0.56588(13) 0.7024(4) 0.8354(3)
H22_4 H 0.5474 0.7570 0.9209
H23_4 H 0.5831 0.6792 0.7388
C48_4 C 0.59475(12) 0.8137(4) 0.5566(3)
H24_2 H 0.5952 0.9310 0.4984
H25_4 H 0.5927 0.7201 0.6351
H26_4 H 0.2665 0.6965 0.6308
C49_4 C 0.2869(3) 0.5966(12) 0.6818(7)
H27_4 H 0.3036 0.5075 0.7558
C52_4 C 0.57022(15) 0.6068(5) 0.8630(4)
C53_4 C 0.60578(13) 0.7472(4) 0.5027(3)
C54_4 C 0.2998(4) 0.5466(15) 0.6194(9)
O16_4 O 0.59195(13) 0.5688(4) 0.8393(3)
O17_4 O 0.55307(12) 0.5747(4) 0.9018(3)
O18_2 O 0.61305(14) 0.7770(4) 0.4455(3)
O19_4 O 0.2948(2) 0.5791(10) 0.5605(5)
O20_4 O 0.3145(3) 0.4838(10) 0.6326(7)
O21_4 O 0.63337(12) 0.4880(4) 0.7482(3)
O22_4 O 0.62036(15) 0.4309(5) 0.9249(3)
O23_4 O 0.64542(15) 0.6059(5) 0.8776(5)
N10_4 N 0.23569(16) 0.8244(7) 0.7997(4)
N11_4 N 0.21396(13) 0.6916(6) 0.8822(4)
N12_4 N 0.23465(14) 0.8270(6) 0.9496(4)
C55_4 C 0.24072(19) 0.7901(8) 0.7347(4)
C56_4 C 0.2198(2) 0.8942(10) 0.8052(6)
C57_4 C 0.20496(17) 0.6253(8) 0.8428(5)
C58_4 C 0.19768(16) 0.7256(7) 0.9347(4)
C59_4 C 0.20980(16) 0.8002(7) 0.9744(4)
C60_4 C 0.2464(2) 0.9002(9) 0.9792(6)
C61_4 C 0.2296(3) 0.8287(11) 0.6756(6)
H28_4 H 0.2160 0.9163 0.8509
C62_4 C 0.2077(3) 0.9399(11) 0.7492(7)
H29_4 H 0.2162 0.6047 0.8052
C63_4 C 0.17943(17) 0.5833(8) 0.8536(5)
C64_4 C 0.17177(16) 0.6887(7) 0.9467(5)
H30_4 H 0.2630 0.9232 0.9596
H31_4 H 0.2335 0.8035 0.6308
C67_4 C 0.2131(3) 0.9034(12) 0.6818(7)
H32_4 H 0.1964 0.9925 0.7558
C68_4 C 0.16291(16) 0.6174(6) 0.9054(5)
H33_4 H 0.1738 0.5327 0.8260
H34_4 H 0.1603 0.7123 0.9828
C70_4 C 0.2002(4) 0.9534(15) 0.6194(9)
C71_4 C 0.13605(16) 0.5705(6) 0.9215(5)
O26_4 O 0.2052(2) 0.9209(10) 0.5605(5)
O28_4 O 0.13621(10) 0.4865(4) 0.9346(3)
O29_4 O 0.11393(10) 0.6160(4) 0.9211(4)
O35_4 O 0.04783(9) 0.3875(3) 0.9702(2)
O36_4 O 0.08451(9) 0.4424(3) 0.8604(2)
C73_4 C 0.02725(12) 0.3370(4) 0.9517(3)
O40_4 O 0.02315(9) 0.2584(3) 0.9703(2)
C74_4 C 0.00741(12) 0.3809(4) 0.9012(3)
C75_4 C 0.01701(12) 0.4327(4) 0.8463(3)
H37_4 H 0.0363 0.4416 0.8403
C79_4 C 0.00667(12) 0.5337(4) 0.7426(3)
C80_4 C 0.03330(12) 0.5622(4) 0.7304(3)
H40_4 H 0.0479 0.5423 0.7597
C82_4 C 0.03832(13) 0.6203(5) 0.6747(4)
C91_4 C 0.01695(14) 0.6465(5) 0.6322(4)
C92_4 C 0.06759(15) 0.6528(6) 0.6581(6)
H46_4 H 0.0203 0.6846 0.5929
O42_4 O 0.07043(12) 0.7104(6) 0.6127(6)
H55_7 H 0.3302 0.505324 0.66158
H56_4 H 0.642635 0.65301 0.840859
H57_4 H 0.66541 0.59979 0.887741
O52_4 O 0.86663(12) 0.0120(4) 0.7482(3)
O53_4 O 0.87964(15) 0.0691(5) 0.9249(3)
O55_2 O 0.85695(10) 0.1855(4) 0.8097(3)
C76_4 C 0.97878(12) 0.3676(4) 0.9072(3)
C77_4 C 0.99856(12) 0.4719(4) 0.7994(3)
C78_4 C 0.96159(12) 0.4062(4) 0.8584(3)
H38_4 H 0.9714 0.3324 0.9445
N13_4 N 0.97104(10) 0.4574(3) 0.8053(3)
H39_4 H 0.9423 0.3963 0.8624
Co3_4 Co 0.94989(2) 0.51133(6) 0.72914(5)
N14_4 N 0.98506(10) 0.5615(3) 0.7018(3)
N15_4 N 0.91660(10) 0.4496(3) 0.7570(3)
N16_4 N 0.95657(10) 0.3997(3) 0.6761(3)
N17_4 N 0.94291(10) 0.6232(3) 0.7810(3)
N18_4 N 0.92964(10) 0.5725(3) 0.6553(3)
C81_4 C 0.99040(13) 0.6168(4) 0.6471(4)
C83_4 C 0.91466(12) 0.3623(4) 0.7308(3)
C84_4 C 0.89756(13) 0.4799(5) 0.8010(3)
C85_4 C 0.97863(12) 0.3811(4) 0.6358(3)
C86_4 C 0.93744(12) 0.3344(4) 0.6861(3)
C87_4 C 0.95069(12) 0.6446(4) 0.8469(3)
C88_4 C 0.93069(12) 0.6890(4) 0.7419(3)
C89_4 C 0.92208(13) 0.5396(4) 0.5934(3)
C90_4 C 0.92321(12) 0.6595(4) 0.6708(3)
H41_4 H 0.9756 0.6360 0.6180
C93_4 C 0.89349(13) 0.3060(5) 0.7517(4)
H42_4 H 0.8983 0.5417 0.8163
C94_4 C 0.87668(14) 0.4241(5) 0.8251(4)
H43_4 H 0.9918 0.4279 0.6273
C95_4 C 0.98270(12) 0.2957(4) 0.6062(3)
C96_4 C 0.94002(13) 0.2480(5) 0.6566(3)
H44_4 H 0.9592 0.5990 0.8750
C97_4 C 0.94668(12) 0.7302(4) 0.8746(3)
C98_4 C 0.92576(13) 0.7763(4) 0.7672(3)
H45_4 H 0.9251 0.4767 0.5837
C99_4 C 0.90990(13) 0.5942(5) 0.5424(3)
C100_4 C 0.91126(12) 0.7184(4) 0.6227(3)
H47_4 H 0.8916 0.2467 0.7319
C101_4 C 0.87495(13) 0.3358(5) 0.8014(4)
H48_4 H 0.8636 0.4466 0.8579
C102_4 C 0.96313(12) 0.2275(4) 0.6172(3)
H49_4 H 0.9986 0.2838 0.5788
H50_4 H 0.9260 0.2033 0.6634
C103_4 C 0.93412(13) 0.7976(4) 0.8354(3)
H51_4 H 0.9526 0.7430 0.9209
H52_4 H 0.9169 0.8208 0.7388
C104_4 C 0.90525(12) 0.6863(4) 0.5566(3)
H53_2 H 0.9048 0.5690 0.4984
H54_4 H 0.9073 0.7799 0.6351
C105_4 C 0.85431(16) 0.2680(6) 0.8323(5)
C106_4 C 0.96754(13) 0.1329(4) 0.5873(3)
C107_4 C 0.92978(15) 0.8932(5) 0.8630(4)
C108_4 C 0.89422(13) 0.7528(4) 0.5027(3)
O44_4 O 0.83756(15) 0.2956(5) 0.8746(5)
O46_4 O 0.99106(9) 0.1090(3) 0.5739(3)
O47_4 O 0.90805(13) 0.9312(4) 0.8393(3)
O48_4 O 0.94693(12) 0.9253(4) 0.9018(3)
O50_2 O 0.88695(14) 0.7230(4) 0.4455(3)
O54_4 O 0.85458(15) 0.8941(5) 0.8776(5)
H58_4 H 0.857365 0.84699 0.840859
H59_4 H 0.83459 0.90021 0.887741
H55_8 H 0.1698 0.994676 0.66158
H53_3 H 0.5952 0.5690 0.9984
O50_3 O 0.61305(14) 0.7230(4) 0.9455(3)
H24_3 H 0.9048 0.9310 0.9984
O18_3 O 0.88695(14) 0.7770(4) 0.9455(3)
H24_4 H 0.0952 0.0690 0.0016
O18_4 O 0.11305(14) 0.2230(4) 0.0545(3)
H53_4 H 0.4048 0.4310 0.0016
O50_4 O 0.38695(14) 0.2770(4) 0.0545(3)
loop_
_geom_bond_atom_site_label_1
_geom_bond_atom_site_label_2
_geom_bond_site_symmetry_1
_geom_bond_site_symmetry_2
U1 O1 1_555 1_555
O1 C1 1_555 1_555
O2 U1 1_555 1_555
O4 U1 1_555 1_555
O7 U1 1_555 1_555
C1 O8 1_555 1_555
C3 C1 1_555 1_555
C5 C3 1_555 1_555
H1 C5 1_555 1_555
O51 U13 1_555 1_555
O52 U13 1_555 1_555
O53 U13 1_555 1_555
O55 U13 1_555 1_555
O56 U13 1_555 1_555
C4 C2 1_555 1_555
C7 C4 1_555 1_555
C8 C4 1_555 1_555
C11 C7 1_555 1_555
H3 C7 1_555 1_555
C12 C8 1_555 1_555
H4 C8 1_555 1_555
N2 C11 1_555 1_555
C14 C11 1_555 1_555
H6 C12 1_555 1_555
C15 C13 1_555 1_555
Co2 N2 1_555 1_555
N4 C14 1_555 1_555
C16 C14 1_555 1_555
H7 C15 1_555 1_555
C18 C15 1_555 1_555
N9 Co2 1_555 1_555
C19 N4 1_555 1_555
H8 C16 1_555 1_555
C20 C16 1_555 1_555
C30 C18 1_555 1_555
C31 N9 1_555 1_555
C32 N9 1_555 1_555
C33 C19 1_555 1_555
H10 C19 1_555 1_555
C34 C20 1_555 1_555
H15 C29 1_555 1_555
O9 C30 1_555 1_555
O10 C30 1_555 1_555
C43 C31 1_555 1_555
H16 C32 1_555 1_555
C44 C32 1_555 1_555
H17 C33 1_555 1_555
O11 C34 1_555 1_555
O12 C34 1_555 1_555
U2 O9 1_555 1_555
H26 C43 1_555 1_555
C49 C43 1_555 1_555
H27 C44 1_555 1_555
C54 C49 1_555 1_555
O19 C54 1_555 1_555
O20 C54 1_555 1_555
N10 Co2 1_555 1_555
N11 Co2 1_555 1_555
N12 Co2 1_555 1_555
C55 C31 1_555 1_555
C56 N10 1_555 1_555
C57 N11 1_555 1_555
C58 N11 1_555 1_555
C59 N12 1_555 1_555
C60 N12 1_555 1_555
C61 C55 1_555 1_555
H28 C56 1_555 1_555
C62 C56 1_555 1_555
H29 C57 1_555 1_555
C63 C57 1_555 1_555
C64 C58 1_555 1_555
C65 C59 1_555 1_555
C66 C60 1_555 1_555
H30 C60 1_555 1_555
H31 C61 1_555 1_555
C67 C61 1_555 1_555
H32 C62 1_555 1_555
C68 C63 1_555 1_555
H33 C63 1_555 1_555
H34 C64 1_555 1_555
H35 C65 1_555 1_555
C69 C65 1_555 1_555
H36 C66 1_555 1_555
U3 O11 1_555 1_555
C70 C67 1_555 1_555
C71 C68 1_555 1_555
C72 C69 1_555 1_555
O26 C70 1_555 1_555
O28 C71 1_555 1_555
O29 C71 1_555 1_555
O30 C72 1_555 1_555
O31 C72 1_555 1_555
U8 O28 1_555 1_555
U9 O30 1_555 1_555
O35 U8 1_555 1_555
O36 U8 1_555 1_555
O37 U8 1_555 1_555
O38 U8 1_555 1_555
O39 U8 1_555 1_555
C73 O35 1_555 1_555
O40 C73 1_555 1_555
C74 C73 1_555 1_555
C75 C74 1_555 1_555
C76 C74 1_555 1_555
C77 C75 1_555 1_555
H37 C75 1_555 1_555
C78 C76 1_555 1_555
H38 C76 1_555 1_555
N13 C77 1_555 1_555
C79 C77 1_555 1_555
H39 C78 1_555 1_555
Co3 N13 1_555 1_555
N14 C79 1_555 1_555
C80 C79 1_555 1_555
N15 Co3 1_555 1_555
N16 Co3 1_555 1_555
N17 Co3 1_555 1_555
N18 Co3 1_555 1_555
C81 N14 1_555 1_555
H40 C80 1_555 1_555
C82 C80 1_555 1_555
C83 N15 1_555 1_555
C84 N15 1_555 1_555
C85 N16 1_555 1_555
C86 N16 1_555 1_555
C87 N17 1_555 1_555
C88 N17 1_555 1_555
C89 N18 1_555 1_555
C90 N18 1_555 1_555
H41 C81 1_555 1_555
C91 C81 1_555 1_555
C92 C82 1_555 1_555
C93 C83 1_555 1_555
H42 C84 1_555 1_555
C94 C84 1_555 1_555
H43 C85 1_555 1_555
C95 C85 1_555 1_555
C96 C86 1_555 1_555
H44 C87 1_555 1_555
C97 C87 1_555 1_555
C98 C88 1_555 1_555
H45 C89 1_555 1_555
C99 C89 1_555 1_555
C100 C90 1_555 1_555
H46 C91 1_555 1_555
O41 C92 1_555 1_555
O42 C92 1_555 1_555
H47 C93 1_555 1_555
C101 C93 1_555 1_555
H48 C94 1_555 1_555
C102 C95 1_555 1_555
H49 C95 1_555 1_555
H50 C96 1_555 1_555
C103 C97 1_555 1_555
H51 C97 1_555 1_555
H52 C98 1_555 1_555
C104 C99 1_555 1_555
H54 C100 1_555 1_555
U10 O41 1_555 1_555
C105 C101 1_555 1_555
C106 C102 1_555 1_555
C107 C103 1_555 1_555
C108 C104 1_555 1_555
O55 C105 1_555 1_555
O44 C105 1_555 1_555
O45 C106 1_555 1_555
O46 C106 1_555 1_555
O47 C107 1_555 1_555
O48 C107 1_555 1_555
O49 C108 1_555 1_555
U14 O49 1_555 1_555
O5 C2 1_555 1_555
C12 N2 1_555 1_555
Co2 N4 1_555 1_555
C18 C29 1_555 1_555
C20 C33 1_555 1_555
C44 C49 1_555 1_555
N10 C55 1_555 1_555
C58 C59 1_555 1_555
C62 C67 1_555 1_555
C64 C68 1_555 1_555
C66 C69 1_555 1_555
O29 U8 1_555 1_555
C78 N13 1_555 1_555
Co3 N14 1_555 1_555
C82 C91 1_555 1_555
C83 C86 1_555 1_555
C88 C90 1_555 1_555
C94 C101 1_555 1_555
C96 C102 1_555 1_555
C98 C103 1_555 1_555
C100 C104 1_555 1_555
O20 H55 1_555 1_555
O54 H58 1_555 1_555
O54 H59 1_555 1_555
C10 C6 1_555 1_555
H2 C6 1_555 1_555
N1 C9 1_555 1_555
H5 C10 1_555 1_555
C21 N5 1_555 1_555
C22 N5 1_555 1_555
C23 N6 1_555 1_555
C24 N6 1_555 1_555
C35 C21 1_555 1_555
C36 C22 1_555 1_555
H12 C23 1_555 1_555
C37 C23 1_555 1_555
C38 C24 1_555 1_555
H18 C35 1_555 1_555
C45 C35 1_555 1_555
H19 C36 1_555 1_555
C46 C37 1_555 1_555
H20 C37 1_555 1_555
H21 C38 1_555 1_555
C50 C45 1_555 1_555
C51 C46 1_555 1_555
O13 C50 1_555 1_555
O14 C50 1_555 1_555
O15 C51 1_555 1_555
O24 C51 1_555 1_555
U4 O13 1_555 1_555
U5 O24 1_555 1_555
C10 N1 1_555 1_555
C21 C24 1_555 1_555
C36 C45 1_555 1_555
C38 C46 1_555 1_555
N7 Co1 1_555 1_555
N8 Co1 1_555 1_555
C17 N3 1_555 1_555
C25 N7 1_555 1_555
C26 N7 1_555 1_555
C27 N8 1_555 1_555
C28 N8 1_555 1_555
H9 C17 1_555 1_555
H13 C25 1_555 1_555
C39 C25 1_555 1_555
C40 C26 1_555 1_555
C41 C27 1_555 1_555
C42 C28 1_555 1_555
C47 C39 1_555 1_555
H22 C39 1_555 1_555
H23 C40 1_555 1_555
C48 C41 1_555 1_555
H25 C42 1_555 1_555
C52 C47 1_555 1_555
C53 C48 1_555 1_555
O16 C52 1_555 1_555
O17 C52 1_555 1_555
O21 U4 1_555 1_555
O22 U4 1_555 1_555
O23 U4 1_555 1_555
O25 C53 1_555 1_555
O32 U4 1_555 1_555
U4 O16 1_555 1_555
U5 O25 1_555 1_555
O34 U4 1_555 1_555
Co1 N3 1_555 1_555
C26 C28 1_555 1_555
C40 C47 1_555 1_555
C42 C48 1_555 1_555
O23 H56 1_555 1_555
O23 H57 1_555 1_555
C78_2 C76_2 1_555 1_555
H38_2 C76_2 1_555 1_555
N13_2 C77_2 1_555 1_555
H39_2 C78_2 1_555 1_555
Co3_2 N13_2 1_555 1_555
N15_2 Co3_2 1_555 1_555
N16_2 Co3_2 1_555 1_555
N17_2 Co3_2 1_555 1_555
N18_2 Co3_2 1_555 1_555
C81_2 N14_2 1_555 1_555
C83_2 N15_2 1_555 1_555
C84_2 N15_2 1_555 1_555
C85_2 N16_2 1_555 1_555
C86_2 N16_2 1_555 1_555
C87_2 N17_2 1_555 1_555
C88_2 N17_2 1_555 1_555
C89_2 N18_2 1_555 1_555
C90_2 N18_2 1_555 1_555
H41_2 C81_2 1_555 1_555
C93_2 C83_2 1_555 1_555
H42_2 C84_2 1_555 1_555
C94_2 C84_2 1_555 1_555
H43_2 C85_2 1_555 1_555
C95_2 C85_2 1_555 1_555
C96_2 C86_2 1_555 1_555
H44_2 C87_2 1_555 1_555
C97_2 C87_2 1_555 1_555
C98_2 C88_2 1_555 1_555
H45_2 C89_2 1_555 1_555
C99_2 C89_2 1_555 1_555
C100_2 C90_2 1_555 1_555
H47_2 C93_2 1_555 1_555
C101_2 C93_2 1_555 1_555
H48_2 C94_2 1_555 1_555
C102_2 C95_2 1_555 1_555
H49_2 C95_2 1_555 1_555
H50_2 C96_2 1_555 1_555
C103_2 C97_2 1_555 1_555
H51_2 C97_2 1_555 1_555
H52_2 C98_2 1_555 1_555
C104_2 C99_2 1_555 1_555
H53 C99_2 1_555 1_555
H54_2 C100_2 1_555 1_555
C105_2 C101_2 1_555 1_555
C106_2 C102_2 1_555 1_555
C107_2 C103_2 1_555 1_555
C108_2 C104_2 1_555 1_555
O43 C105_2 1_555 1_555
O44_2 C105_2 1_555 1_555
O6 C106_2 1_555 1_555
O46_2 C106_2 1_555 1_555
O47_2 C107_2 1_555 1_555
O48_2 C107_2 1_555 1_555
O7 C108_2 1_555 1_555
O50 C108_2 1_555 1_555
U2 O43 1_555 1_555
C78_2 N13_2 1_555 1_555
Co3_2 N14_2 1_555 1_555
C83_2 C86_2 1_555 1_555
C88_2 C90_2 1_555 1_555
C94_2 C101_2 1_555 1_555
C96_2 C102_2 1_555 1_555
C98_2 C103_2 1_555 1_555
C100_2 C104_2 1_555 1_555
O54_2 H58_2 1_555 1_555
O54_2 H59_2 1_555 1_555
O52_2 U2 1_555 1_555
O53_2 U2 1_555 1_555
O56_2 U2 1_555 1_555
C4_2 C2_2 1_555 1_555
C7_2 C4_2 1_555 1_555
C8_2 C4_2 1_555 1_555
C11_2 C7_2 1_555 1_555
H3_2 C7_2 1_555 1_555
C12_2 C8_2 1_555 1_555
H4_2 C8_2 1_555 1_555
N2_2 C11_2 1_555 1_555
C14_2 C11_2 1_555 1_555
H6_2 C12_2 1_555 1_555
N3_2 C13_2 1_555 1_555
C15_2 C13_2 1_555 1_555
Co2_2 N2_2 1_555 1_555
N4_2 C14_2 1_555 1_555
N7_2 Co1_2 1_555 1_555
N8_2 Co1_2 1_555 1_555
C17_2 N3_2 1_555 1_555
H7_2 C15_2 1_555 1_555
C18_2 C15_2 1_555 1_555
N9_2 Co2_2 1_555 1_555
C19_2 N4_2 1_555 1_555
C25_2 N7_2 1_555 1_555
C26_2 N7_2 1_555 1_555
C27_2 N8_2 1_555 1_555
C28_2 N8_2 1_555 1_555
H9_2 C17_2 1_555 1_555
C29_2 C17_2 1_555 1_555
C30_2 C18_2 1_555 1_555
C31_2 N9_2 1_555 1_555
C32_2 N9_2 1_555 1_555
H10_2 C19_2 1_555 1_555
H13_2 C25_2 1_555 1_555
C39_2 C25_2 1_555 1_555
C40_2 C26_2 1_555 1_555
C41_2 C27_2 1_555 1_555
C42_2 C28_2 1_555 1_555
H15_2 C29_2 1_555 1_555
O51 C30_2 1_555 1_555
O10_2 C30_2 1_555 1_555
C43_2 C31_2 1_555 1_555
H16_2 C32_2 1_555 1_555
C44_2 C32_2 1_555 1_555
C47_2 C39_2 1_555 1_555
H22_2 C39_2 1_555 1_555
H23_2 C40_2 1_555 1_555
C48_2 C41_2 1_555 1_555
H24 C41_2 1_555 1_555
H25_2 C42_2 1_555 1_555
H26_2 C43_2 1_555 1_555
C49_2 C43_2 1_555 1_555
H27_2 C44_2 1_555 1_555
C52_2 C47_2 1_555 1_555
C53_2 C48_2 1_555 1_555
C54_2 C49_2 1_555 1_555
O16_2 C52_2 1_555 1_555
O17_2 C52_2 1_555 1_555
O18 C53_2 1_555 1_555
O19_2 C54_2 1_555 1_555
O20_2 C54_2 1_555 1_555
O21_2 U10 1_555 1_555
O22_2 U10 1_555 1_555
O23_2 U10 1_555 1_555
N10_2 Co2_2 1_555 1_555
N11_2 Co2_2 1_555 1_555
N12_2 Co2_2 1_555 1_555
C55_2 C31_2 1_555 1_555
C56_2 N10_2 1_555 1_555
C57_2 N11_2 1_555 1_555
C58_2 N11_2 1_555 1_555
C59_2 N12_2 1_555 1_555
C60_2 N12_2 1_555 1_555
C61_2 C55_2 1_555 1_555
H28_2 C56_2 1_555 1_555
C62_2 C56_2 1_555 1_555
H29_2 C57_2 1_555 1_555
C63_2 C57_2 1_555 1_555
C64_2 C58_2 1_555 1_555
H30_2 C60_2 1_555 1_555
H31_2 C61_2 1_555 1_555
C67_2 C61_2 1_555 1_555
H32_2 C62_2 1_555 1_555
C68_2 C63_2 1_555 1_555
H33_2 C63_2 1_555 1_555
H34_2 C64_2 1_555 1_555
C70_2 C67_2 1_555 1_555
C71_2 C68_2 1_555 1_555
O39 C53_2 1_555 1_555
O26_2 C70_2 1_555 1_555
O28_2 C71_2 1_555 1_555
O29_2 C71_2 1_555 1_555
U10 O16_2 1_555 1_555
U5 O28_2 1_555 1_555
O33 U10 1_555 1_555
O34_2 U10 1_555 1_555
O35_2 U5 1_555 1_555
O36_2 U5 1_555 1_555
C73_2 O35_2 1_555 1_555
O40_2 C73_2 1_555 1_555
C74_2 C73_2 1_555 1_555
C75_2 C74_2 1_555 1_555
H37_2 C75_2 1_555 1_555
C80_2 C79_2 1_555 1_555
H40_2 C80_2 1_555 1_555
C82_2 C80_2 1_555 1_555
C92_2 C82_2 1_555 1_555
H46_2 C91_2 1_555 1_555
O32 C92_2 1_555 1_555
O42_2 C92_2 1_555 1_555
O5_2 C2_2 1_555 1_555
C12_2 N2_2 1_555 1_555
Co1_2 N3_2 1_555 1_555
Co2_2 N4_2 1_555 1_555
C18_2 C29_2 1_555 1_555
C26_2 C28_2 1_555 1_555
C40_2 C47_2 1_555 1_555
C42_2 C48_2 1_555 1_555
C44_2 C49_2 1_555 1_555
N10_2 C55_2 1_555 1_555
C58_2 C59_2 1_555 1_555
C62_2 C67_2 1_555 1_555
C64_2 C68_2 1_555 1_555
O29_2 U5 1_555 1_555
C82_2 C91_2 1_555 1_555
O20_2 H55_3 1_555 1_555
O23_2 H56_2 1_555 1_555
O23_2 H57_2 1_555 1_555
H8_2 C16_2 1_555 1_555
C20_2 C16_2 1_555 1_555
C34_2 C20_2 1_555 1_555
H17_2 C33_2 1_555 1_555
O11_2 C34_2 1_555 1_555
O12_2 C34_2 1_555 1_555
H35_2 C65_2 1_555 1_555
C69_2 C65_2 1_555 1_555
H36_2 C66_2 1_555 1_555
U3_2 O11_2 1_555 1_555
C72_2 C69_2 1_555 1_555
O30_2 C72_2 1_555 1_555
O31_2 C72_2 1_555 1_555
U9_2 O30_2 1_555 1_555
C20_2 C33_2 1_555 1_555
C66_2 C69_2 1_555 1_555
U14 O1_2 1_555 1_555
O1_2 C1_2 1_555 1_555
O2_2 U14 1_555 1_555
O4_2 U14 1_555 1_555
C1_2 O8_2 1_555 1_555
C3_2 C1_2 1_555 1_555
C5_2 C3_2 1_555 1_555
C6_2 C3_2 1_555 1_555
C9_2 C5_2 1_555 1_555
H1_2 C5_2 1_555 1_555
C10_2 C6_2 1_555 1_555
H2_2 C6_2 1_555 1_555
N1_2 C9_2 1_555 1_555
H5_2 C10_2 1_555 1_555
C21_2 N5_2 1_555 1_555
C22_2 N5_2 1_555 1_555
C23_2 N6_2 1_555 1_555
C24_2 N6_2 1_555 1_555
C35_2 C21_2 1_555 1_555
C36_2 C22_2 1_555 1_555
H12_2 C23_2 1_555 1_555
C37_2 C23_2 1_555 1_555
C38_2 C24_2 1_555 1_555
H18_2 C35_2 1_555 1_555
C45_2 C35_2 1_555 1_555
H19_2 C36_2 1_555 1_555
C46_2 C37_2 1_555 1_555
H20_2 C37_2 1_555 1_555
H21_2 C38_2 1_555 1_555
C50_2 C45_2 1_555 1_555
C51_2 C46_2 1_555 1_555
O33 C50_2 1_555 1_555
O14_2 C50_2 1_555 1_555
O15_2 C51_2 1_555 1_555
O38 C51_2 1_555 1_555
C10_2 N1_2 1_555 1_555
C21_2 C24_2 1_555 1_555
C36_2 C45_2 1_555 1_555
C38_2 C46_2 1_555 1_555
N7_3 Co1_3 1_555 1_555
N8_3 Co1_3 1_555 1_555
C17_3 N3_3 1_555 1_555
C25_3 N7_3 1_555 1_555
C26_3 N7_3 1_555 1_555
C27_3 N8_3 1_555 1_555
C28_3 N8_3 1_555 1_555
H9_3 C17_3 1_555 1_555
H13_3 C25_3 1_555 1_555
C39_3 C25_3 1_555 1_555
C40_3 C26_3 1_555 1_555
C41_3 C27_3 1_555 1_555
C42_3 C28_3 1_555 1_555
C47_3 C39_3 1_555 1_555
H22_3 C39_3 1_555 1_555
H23_3 C40_3 1_555 1_555
C48_3 C41_3 1_555 1_555
H25_3 C42_3 1_555 1_555
C52_3 C47_3 1_555 1_555
C53_3 C48_3 1_555 1_555
O16_3 C52_3 1_555 1_555
O17_3 C52_3 1_555 1_555
O21_3 U3 1_555 1_555
O22_3 U3 1_555 1_555
O23_3 U3 1_555 1_555
O25_2 C53_3 1_555 1_555
O32_2 U3 1_555 1_555
U3 O16_3 1_555 1_555
U7 O25_2 1_555 1_555
O33_2 U3 1_555 1_555
Co1_3 N3_3 1_555 1_555
C26_3 C28_3 1_555 1_555
C40_3 C47_3 1_555 1_555
C42_3 C48_3 1_555 1_555
O23_3 H56_3 1_555 1_555
O23_3 H57_3 1_555 1_555
C10_3 C6_3 1_555 1_555
H2_3 C6_3 1_555 1_555
N1_3 C9_3 1_555 1_555
H5_3 C10_3 1_555 1_555
C21_3 N5_3 1_555 1_555
C22_3 N5_3 1_555 1_555
C23_3 N6_3 1_555 1_555
C24_3 N6_3 1_555 1_555
C35_3 C21_3 1_555 1_555
C36_3 C22_3 1_555 1_555
H12_3 C23_3 1_555 1_555
C37_3 C23_3 1_555 1_555
C38_3 C24_3 1_555 1_555
H18_3 C35_3 1_555 1_555
C45_3 C35_3 1_555 1_555
H19_3 C36_3 1_555 1_555
C46_3 C37_3 1_555 1_555
H20_3 C37_3 1_555 1_555
H21_3 C38_3 1_555 1_555
C50_3 C45_3 1_555 1_555
C51_3 C46_3 1_555 1_555
O33_2 C50_3 1_555 1_555
O14_3 C50_3 1_555 1_555
O15_3 C51_3 1_555 1_555
O24_2 C51_3 1_555 1_555
U7 O24_2 1_555 1_555
C10_3 N1_3 1_555 1_555
C21_3 C24_3 1_555 1_555
C36_3 C45_3 1_555 1_555
C38_3 C46_3 1_555 1_555
C4_3 C2_3 1_555 1_555
C7_3 C4_3 1_555 1_555
C8_3 C4_3 1_555 1_555
C11_3 C7_3 1_555 1_555
H3_3 C7_3 1_555 1_555
C12_3 C8_3 1_555 1_555
H4_3 C8_3 1_555 1_555
N2_3 C11_3 1_555 1_555
C14_3 C11_3 1_555 1_555
H6_3 C12_3 1_555 1_555
C15_3 C13_3 1_555 1_555
Co2_3 N2_3 1_555 1_555
N4_3 C14_3 1_555 1_555
C16_3 C14_3 1_555 1_555
H7_3 C15_3 1_555 1_555
C18_3 C15_3 1_555 1_555
N9_3 Co2_3 1_555 1_555
C19_3 N4_3 1_555 1_555
H8_3 C16_3 1_555 1_555
C20_3 C16_3 1_555 1_555
C30_3 C18_3 1_555 1_555
C31_3 N9_3 1_555 1_555
C32_3 N9_3 1_555 1_555
C33_3 C19_3 1_555 1_555
H10_3 C19_3 1_555 1_555
C34_3 C20_3 1_555 1_555
H15_3 C29_3 1_555 1_555
O9_2 C30_3 1_555 1_555
O10_3 C30_3 1_555 1_555
C43_3 C31_3 1_555 1_555
H16_3 C32_3 1_555 1_555
C44_3 C32_3 1_555 1_555
H17_3 C33_3 1_555 1_555
O34 C34_3 1_555 1_555
O12_3 C34_3 1_555 1_555
U9_2 O9_2 1_555 1_555
H26_3 C43_3 1_555 1_555
C49_3 C43_3 1_555 1_555
H27_3 C44_3 1_555 1_555
C54_3 C49_3 1_555 1_555
O19_3 C54_3 1_555 1_555
O20_3 C54_3 1_555 1_555
N10_3 Co2_3 1_555 1_555
N11_3 Co2_3 1_555 1_555
N12_3 Co2_3 1_555 1_555
C55_3 C31_3 1_555 1_555
C56_3 N10_3 1_555 1_555
C57_3 N11_3 1_555 1_555
C58_3 N11_3 1_555 1_555
C59_3 N12_3 1_555 1_555
C60_3 N12_3 1_555 1_555
C61_3 C55_3 1_555 1_555
H28_3 C56_3 1_555 1_555
C62_3 C56_3 1_555 1_555
H29_3 C57_3 1_555 1_555
C63_3 C57_3 1_555 1_555
C64_3 C58_3 1_555 1_555
C65_3 C59_3 1_555 1_555
C66_3 C60_3 1_555 1_555
H30_3 C60_3 1_555 1_555
H31_3 C61_3 1_555 1_555
C67_3 C61_3 1_555 1_555
H32_3 C62_3 1_555 1_555
C68_3 C63_3 1_555 1_555
H33_3 C63_3 1_555 1_555
H34_3 C64_3 1_555 1_555
H35_3 C65_3 1_555 1_555
C69_3 C65_3 1_555 1_555
H36_3 C66_3 1_555 1_555
C70_3 C67_3 1_555 1_555
C71_3 C68_3 1_555 1_555
C72_3 C69_3 1_555 1_555
O26_3 C70_3 1_555 1_555
O28_3 C71_3 1_555 1_555
O29_3 C71_3 1_555 1_555
O56 C72_3 1_555 1_555
O31_3 C72_3 1_555 1_555
U8_2 O28_3 1_555 1_555
O35_3 U8_2 1_555 1_555
O36_3 U8_2 1_555 1_555
O37_3 U8_2 1_555 1_555
O38_2 U8_2 1_555 1_555
O39_2 U8_2 1_555 1_555
C73_3 O35_3 1_555 1_555
O40_3 C73_3 1_555 1_555
C74_3 C73_3 1_555 1_555
C75_3 C74_3 1_555 1_555
C76_3 C74_3 1_555 1_555
C77_3 C75_3 1_555 1_555
H37_3 C75_3 1_555 1_555
C78_3 C76_3 1_555 1_555
H38_3 C76_3 1_555 1_555
N13_3 C77_3 1_555 1_555
C79_3 C77_3 1_555 1_555
H39_3 C78_3 1_555 1_555
Co3_3 N13_3 1_555 1_555
N14_3 C79_3 1_555 1_555
C80_3 C79_3 1_555 1_555
N15_3 Co3_3 1_555 1_555
N16_3 Co3_3 1_555 1_555
N17_3 Co3_3 1_555 1_555
N18_3 Co3_3 1_555 1_555
C81_3 N14_3 1_555 1_555
H40_3 C80_3 1_555 1_555
C82_3 C80_3 1_555 1_555
C83_3 N15_3 1_555 1_555
C84_3 N15_3 1_555 1_555
C85_3 N16_3 1_555 1_555
C86_3 N16_3 1_555 1_555
C87_3 N17_3 1_555 1_555
C88_3 N17_3 1_555 1_555
C89_3 N18_3 1_555 1_555
C90_3 N18_3 1_555 1_555
H41_3 C81_3 1_555 1_555
C91_3 C81_3 1_555 1_555
C92_3 C82_3 1_555 1_555
C93_3 C83_3 1_555 1_555
H42_3 C84_3 1_555 1_555
C94_3 C84_3 1_555 1_555
H43_3 C85_3 1_555 1_555
C95_3 C85_3 1_555 1_555
C96_3 C86_3 1_555 1_555
H44_3 C87_3 1_555 1_555
C97_3 C87_3 1_555 1_555
C98_3 C88_3 1_555 1_555
H45_3 C89_3 1_555 1_555
C99_3 C89_3 1_555 1_555
C100_3 C90_3 1_555 1_555
H46_3 C91_3 1_555 1_555
O41_2 C92_3 1_555 1_555
O42_3 C92_3 1_555 1_555
H47_3 C93_3 1_555 1_555
C101_3 C93_3 1_555 1_555
H48_3 C94_3 1_555 1_555
C102_3 C95_3 1_555 1_555
H49_3 C95_3 1_555 1_555
H50_3 C96_3 1_555 1_555
C103_3 C97_3 1_555 1_555
H51_3 C97_3 1_555 1_555
H52_3 C98_3 1_555 1_555
C104_3 C99_3 1_555 1_555
H54_3 C100_3 1_555 1_555
U3_2 O41_2 1_555 1_555
C105_3 C101_3 1_555 1_555
C106_3 C102_3 1_555 1_555
C107_3 C103_3 1_555 1_555
C108_3 C104_3 1_555 1_555
O43_2 C105_3 1_555 1_555
O44_3 C105_3 1_555 1_555
O45_2 C106_3 1_555 1_555
O46_3 C106_3 1_555 1_555
O47_3 C107_3 1_555 1_555
O48_3 C107_3 1_555 1_555
O49_2 C108_3 1_555 1_555
U9 O43_2 1_555 1_555
U12 O49_2 1_555 1_555
O5_3 C2_3 1_555 1_555
C12_3 N2_3 1_555 1_555
Co2_3 N4_3 1_555 1_555
C18_3 C29_3 1_555 1_555
C20_3 C33_3 1_555 1_555
C44_3 C49_3 1_555 1_555
N10_3 C55_3 1_555 1_555
C58_3 C59_3 1_555 1_555
C62_3 C67_3 1_555 1_555
C64_3 C68_3 1_555 1_555
C66_3 C69_3 1_555 1_555
O29_3 U8_2 1_555 1_555
C78_3 N13_3 1_555 1_555
Co3_3 N14_3 1_555 1_555
C82_3 C91_3 1_555 1_555
C83_3 C86_3 1_555 1_555
C88_3 C90_3 1_555 1_555
C94_3 C101_3 1_555 1_555
C96_3 C102_3 1_555 1_555
C98_3 C103_3 1_555 1_555
C100_3 C104_3 1_555 1_555
O20_3 H55_5 1_555 1_555
O54_3 H58_3 1_555 1_555
O54_3 H59_3 1_555 1_555
U1_2 O1_3 1_555 1_555
O1_3 C1_3 1_555 1_555
O2_3 U1_2 1_555 1_555
O4_3 U1_2 1_555 1_555
O7_2 U1_2 1_555 1_555
C1_3 O8_3 1_555 1_555
C3_3 C1_3 1_555 1_555
C5_3 C3_3 1_555 1_555
H1_3 C5_3 1_555 1_555
O51_2 U9 1_555 1_555
O52_3 U9 1_555 1_555
O53_3 U9 1_555 1_555
U12 O1_4 1_555 1_555
O1_4 C1_4 1_555 1_555
O2_4 U12 1_555 1_555
O4_4 U12 1_555 1_555
C1_4 O8_4 1_555 1_555
C3_4 C1_4 1_555 1_555
C5_4 C3_4 1_555 1_555
C6_4 C3_4 1_555 1_555
C9_4 C5_4 1_555 1_555
H1_4 C5_4 1_555 1_555
C10_4 C6_4 1_555 1_555
H2_4 C6_4 1_555 1_555
N1_4 C9_4 1_555 1_555
H5_4 C10_4 1_555 1_555
C21_4 N5_4 1_555 1_555
C22_4 N5_4 1_555 1_555
C23_4 N6_4 1_555 1_555
C24_4 N6_4 1_555 1_555
C35_4 C21_4 1_555 1_555
C36_4 C22_4 1_555 1_555
H12_4 C23_4 1_555 1_555
C37_4 C23_4 1_555 1_555
C38_4 C24_4 1_555 1_555
H18_4 C35_4 1_555 1_555
C45_4 C35_4 1_555 1_555
H19_4 C36_4 1_555 1_555
C46_4 C37_4 1_555 1_555
H20_4 C37_4 1_555 1_555
H21_4 C38_4 1_555 1_555
C50_4 C45_4 1_555 1_555
C51_4 C46_4 1_555 1_555
O13_2 C50_4 1_555 1_555
O14_4 C50_4 1_555 1_555
O15_4 C51_4 1_555 1_555
O38_2 C51_4 1_555 1_555
U3_2 O13_2 1_555 1_555
C10_4 N1_4 1_555 1_555
C21_4 C24_4 1_555 1_555
C36_4 C45_4 1_555 1_555
C38_4 C46_4 1_555 1_555
H8_4 C16_4 1_555 1_555
C20_4 C16_4 1_555 1_555
C34_4 C20_4 1_555 1_555
H17_4 C33_4 1_555 1_555
O34_2 C34_4 1_555 1_555
O12_4 C34_4 1_555 1_555
H35_4 C65_4 1_555 1_555
C69_4 C65_4 1_555 1_555
H36_4 C66_4 1_555 1_555
C72_4 C69_4 1_555 1_555
O56_2 C72_4 1_555 1_555
O31_4 C72_4 1_555 1_555
C20_4 C33_4 1_555 1_555
C66_4 C69_4 1_555 1_555
C4_4 C2_4 1_555 1_555
C7_4 C4_4 1_555 1_555
C8_4 C4_4 1_555 1_555
C11_4 C7_4 1_555 1_555
H3_4 C7_4 1_555 1_555
C12_4 C8_4 1_555 1_555
H4_4 C8_4 1_555 1_555
N2_4 C11_4 1_555 1_555
C14_4 C11_4 1_555 1_555
H6_4 C12_4 1_555 1_555
N3_4 C13_4 1_555 1_555
C15_4 C13_4 1_555 1_555
Co2_4 N2_4 1_555 1_555
N4_4 C14_4 1_555 1_555
N7_4 Co1_4 1_555 1_555
N8_4 Co1_4 1_555 1_555
C17_4 N3_4 1_555 1_555
H7_4 C15_4 1_555 1_555
C18_4 C15_4 1_555 1_555
N9_4 Co2_4 1_555 1_555
C19_4 N4_4 1_555 1_555
C25_4 N7_4 1_555 1_555
C26_4 N7_4 1_555 1_555
C27_4 N8_4 1_555 1_555
C28_4 N8_4 1_555 1_555
H9_4 C17_4 1_555 1_555
C29_4 C17_4 1_555 1_555
C30_4 C18_4 1_555 1_555
C31_4 N9_4 1_555 1_555
C32_4 N9_4 1_555 1_555
H10_4 C19_4 1_555 1_555
H13_4 C25_4 1_555 1_555
C39_4 C25_4 1_555 1_555
C40_4 C26_4 1_555 1_555
C41_4 C27_4 1_555 1_555
C42_4 C28_4 1_555 1_555
H15_4 C29_4 1_555 1_555
O51_2 C30_4 1_555 1_555
O10_4 C30_4 1_555 1_555
C43_4 C31_4 1_555 1_555
H16_4 C32_4 1_555 1_555
C44_4 C32_4 1_555 1_555
C47_4 C39_4 1_555 1_555
H22_4 C39_4 1_555 1_555
H23_4 C40_4 1_555 1_555
C48_4 C41_4 1_555 1_555
H24_2 C41_4 1_555 1_555
H25_4 C42_4 1_555 1_555
H26_4 C43_4 1_555 1_555
C49_4 C43_4 1_555 1_555
H27_4 C44_4 1_555 1_555
C52_4 C47_4 1_555 1_555
C53_4 C48_4 1_555 1_555
C54_4 C49_4 1_555 1_555
O16_4 C52_4 1_555 1_555
O17_4 C52_4 1_555 1_555
O18_2 C53_4 1_555 1_555
O19_4 C54_4 1_555 1_555
O20_4 C54_4 1_555 1_555
O21_4 U3_2 1_555 1_555
O22_4 U3_2 1_555 1_555
O23_4 U3_2 1_555 1_555
N10_4 Co2_4 1_555 1_555
N11_4 Co2_4 1_555 1_555
N12_4 Co2_4 1_555 1_555
C55_4 C31_4 1_555 1_555
C56_4 N10_4 1_555 1_555
C57_4 N11_4 1_555 1_555
C58_4 N11_4 1_555 1_555
C59_4 N12_4 1_555 1_555
C60_4 N12_4 1_555 1_555
C61_4 C55_4 1_555 1_555
H28_4 C56_4 1_555 1_555
C62_4 C56_4 1_555 1_555
H29_4 C57_4 1_555 1_555
C63_4 C57_4 1_555 1_555
C64_4 C58_4 1_555 1_555
H30_4 C60_4 1_555 1_555
H31_4 C61_4 1_555 1_555
C67_4 C61_4 1_555 1_555
H32_4 C62_4 1_555 1_555
C68_4 C63_4 1_555 1_555
H33_4 C63_4 1_555 1_555
H34_4 C64_4 1_555 1_555
C70_4 C67_4 1_555 1_555
C71_4 C68_4 1_555 1_555
O39_2 C53_4 1_555 1_555
O26_4 C70_4 1_555 1_555
O28_4 C71_4 1_555 1_555
O29_4 C71_4 1_555 1_555
U3_2 O16_4 1_555 1_555
U7 O28_4 1_555 1_555
O35_4 U7 1_555 1_555
O36_4 U7 1_555 1_555
C73_4 O35_4 1_555 1_555
O40_4 C73_4 1_555 1_555
C74_4 C73_4 1_555 1_555
C75_4 C74_4 1_555 1_555
H37_4 C75_4 1_555 1_555
C80_4 C79_4 1_555 1_555
H40_4 C80_4 1_555 1_555
C82_4 C80_4 1_555 1_555
C92_4 C82_4 1_555 1_555
H46_4 C91_4 1_555 1_555
O32_2 C92_4 1_555 1_555
O42_4 C92_4 1_555 1_555
O5_4 C2_4 1_555 1_555
C12_4 N2_4 1_555 1_555
Co1_4 N3_4 1_555 1_555
Co2_4 N4_4 1_555 1_555
C18_4 C29_4 1_555 1_555
C26_4 C28_4 1_555 1_555
C40_4 C47_4 1_555 1_555
C42_4 C48_4 1_555 1_555
C44_4 C49_4 1_555 1_555
N10_4 C55_4 1_555 1_555
C58_4 C59_4 1_555 1_555
C62_4 C67_4 1_555 1_555
C64_4 C68_4 1_555 1_555
O29_4 U7 1_555 1_555
C82_4 C91_4 1_555 1_555
O20_4 H55_7 1_555 1_555
O23_4 H56_4 1_555 1_555
O23_4 H57_4 1_555 1_555
O52_4 U9_2 1_555 1_555
O53_4 U9_2 1_555 1_555
O55_2 U9_2 1_555 1_555
C78_4 C76_4 1_555 1_555
H38_4 C76_4 1_555 1_555
N13_4 C77_4 1_555 1_555
H39_4 C78_4 1_555 1_555
Co3_4 N13_4 1_555 1_555
N15_4 Co3_4 1_555 1_555
N16_4 Co3_4 1_555 1_555
N17_4 Co3_4 1_555 1_555
N18_4 Co3_4 1_555 1_555
C81_4 N14_4 1_555 1_555
C83_4 N15_4 1_555 1_555
C84_4 N15_4 1_555 1_555
C85_4 N16_4 1_555 1_555
C86_4 N16_4 1_555 1_555
C87_4 N17_4 1_555 1_555
C88_4 N17_4 1_555 1_555
C89_4 N18_4 1_555 1_555
C90_4 N18_4 1_555 1_555
H41_4 C81_4 1_555 1_555
C93_4 C83_4 1_555 1_555
H42_4 C84_4 1_555 1_555
C94_4 C84_4 1_555 1_555
H43_4 C85_4 1_555 1_555
C95_4 C85_4 1_555 1_555
C96_4 C86_4 1_555 1_555
H44_4 C87_4 1_555 1_555
C97_4 C87_4 1_555 1_555
C98_4 C88_4 1_555 1_555
H45_4 C89_4 1_555 1_555
C99_4 C89_4 1_555 1_555
C100_4 C90_4 1_555 1_555
H47_4 C93_4 1_555 1_555
C101_4 C93_4 1_555 1_555
H48_4 C94_4 1_555 1_555
C102_4 C95_4 1_555 1_555
H49_4 C95_4 1_555 1_555
H50_4 C96_4 1_555 1_555
C103_4 C97_4 1_555 1_555
H51_4 C97_4 1_555 1_555
H52_4 C98_4 1_555 1_555
C104_4 C99_4 1_555 1_555
H53_2 C99_4 1_555 1_555
H54_4 C100_4 1_555 1_555
C105_4 C101_4 1_555 1_555
C106_4 C102_4 1_555 1_555
C107_4 C103_4 1_555 1_555
C108_4 C104_4 1_555 1_555
O55_2 C105_4 1_555 1_555
O44_4 C105_4 1_555 1_555
O6_2 C106_4 1_555 1_555
O46_4 C106_4 1_555 1_555
O47_4 C107_4 1_555 1_555
O48_4 C107_4 1_555 1_555
O7_2 C108_4 1_555 1_555
O50_2 C108_4 1_555 1_555
C78_4 N13_4 1_555 1_555
Co3_4 N14_4 1_555 1_555
C83_4 C86_4 1_555 1_555
C88_4 C90_4 1_555 1_555
C94_4 C101_4 1_555 1_555
C96_4 C102_4 1_555 1_555
C98_4 C103_4 1_555 1_555
C100_4 C104_4 1_555 1_555
O54_4 H58_4 1_555 1_555
O54_4 H59_4 1_555 1_555

#END
