
###############################################################################
#
# This file contains modified crystal structure data generated from the
# MOF subset of the Cambridge Structural Database (CSD) v543 
# hosted by the Cambridge Crystallographic Data Centre (CCDC).
#
# This work is licensed under the Creative Commons
# Attribution-NonCommercial-ShareAlike 4.0 International License.
# To view a copy of this license, visit
# http://creativecommons.org/licenses/by-nc-sa/4.0/
# or send a letter to
# Creative Commons, PO Box 1866, Mountain View, CA 94042, USA.
#
# CIF created using the CSD Python API on 29 September 2022
# The structure has been converted into the P1 space group
# The structure has a 3D framework
# The original CSD entry TIDTIM is in the tetragonal crystal system
# The original CSD entry TIDTIM is in a Sohncke space group
# The framework has been calculated to contain at least 10.0% void space
# The void calculation uses a probe of radius 1.32A, grid spacing 0.4
#
###############################################################################

data_TIDTIM
_chemical_formula_moiety         '(C184 H104 Mn8 N24 O32)n'
_symmetry_cell_setting           triclinic
_symmetry_space_group_name_H-M   'P 1'
_symmetry_Int_Tables_number      1
_space_group_name_Hall           'P 1'
loop_
_symmetry_equiv_pos_site_id
_symmetry_equiv_pos_as_xyz
1 x,y,z
_cell_length_a                   17.3875(12)
_cell_length_b                   17.3875(12)
_cell_length_c                   18.3017(9)
_cell_angle_alpha                90
_cell_angle_beta                 90
_cell_angle_gamma                90
_cell_volume                     5533.06
loop_
_atom_site_label
_atom_site_type_symbol
_atom_site_fract_x
_atom_site_fract_y
_atom_site_fract_z
Mn1 Mn 0.59983(7) 0.31881(7) 0.09180(5)
O1 O 0.5318(3) 0.3848(3) 0.1742(2)
O2 O 0.5152(3) 0.2608(3) 0.1683(2)
C1 C 0.4447(4) 0.3281(4) 0.2580(3)
C2 C 0.4494(4) 0.5797(4) 0.4570(3)
C3 C 0.3926(4) 0.4619(4) 0.4120(3)
N1 N 0.3914(4) 0.5891(3) 0.5059(3)
C4 C 0.3475(4) 0.2672(4) 0.3332(3)
C5 C 0.3341(4) 0.5378(4) 0.5086(3)
C6 C 0.4508(4) 0.5175(4) 0.4120(3)
H1 H 0.4919 0.5117 0.3800
C7 C 0.4411(4) 0.3924(4) 0.3034(3)
H2 H 0.4718 0.4347 0.2926
C8 C 0.5002(4) 0.3242(5) 0.1959(3)
C9 C 0.2085(5) 0.5087(5) 0.5712(4)
H3 H 0.1982 0.4709 0.5365
C10 C 0.3957(5) 0.2661(4) 0.2710(3)
H4 H 0.3948 0.2244 0.2392
C11 C 0.2424(5) 0.6184(5) 0.6706(3)
H5 H 0.2538 0.6559 0.7052
O3 O 0.2741(3) 0.1881(3) 0.4119(3)
C12 C 0.2753(4) 0.5510(4) 0.5666(3)
C13 C 0.3330(4) 0.4753(4) 0.4622(3)
H6 H 0.2918 0.4412 0.4643
C14 C 0.5076(4) 0.6406(4) 0.4578(3)
C15 C 0.3936(4) 0.3957(5) 0.3639(3)
O4 O 0.2750(3) 0.1604(3) 0.2940(3)
N2 N 0.5017(4) 0.6950(4) 0.5092(3)
C16 C 0.5681(5) 0.6433(5) 0.4080(4)
H7 H 0.5716 0.6059 0.3719
C17 C 0.2963(5) 0.2014(5) 0.3493(4)
C18 C 0.3480(4) 0.3316(5) 0.3770(3)
H8 H 0.3161 0.3322 0.4178
N3 N 0.2925(3) 0.6065(4) 0.6153(3)
C19 C 0.6233(6) 0.7010(6) 0.4115(4)
H9 H 0.6653 0.7011 0.3800
C20 C 0.1757(6) 0.5774(5) 0.6778(4)
H10 H 0.1432 0.5869 0.7172
C21 C 0.5535(6) 0.7513(6) 0.5134(4)
H11 H 0.5491 0.7871 0.5509
C22 C 0.1565(5) 0.5222(5) 0.6273(4)
H12 H 0.1106 0.4950 0.6306
C23 C 0.6138(7) 0.7589(6) 0.4638(5)
H13 H 0.6467 0.8011 0.4655
Mn2 Mn 0.18119(7) 0.09983(7) 0.34180(5)
Mn3 Mn 0.40017(7) 0.68119(7) 0.59180(5)
N4 N 0.6086(4) 0.4109(3) 0.0059(3)
O5 O 0.6604(3) 0.2250(3) 0.0440(3)
N5 N 0.4983(4) 0.3050(4) 0.0092(3)
N6 N 0.7075(3) 0.3935(4) 0.1153(3)
O1_2 O 0.1152(3) 0.0318(3) 0.4242(2)
O2_2 O 0.2392(3) 0.0152(3) 0.4183(2)
C8_2 C 0.1758(5) 0.0002(4) 0.4459(3)
N4_2 N 0.0891(3) 0.1086(4) 0.2559(3)
N6_2 N 0.1065(4) 0.2075(3) 0.3653(3)
C1_2 C 0.1719(4) 0.9447(4) 0.5080(3)
C3_2 C 0.0381(4) 0.8926(4) 0.6620(3)
C4_2 C 0.2328(4) 0.8475(4) 0.5832(3)
C7_2 C 0.1076(4) 0.9411(4) 0.5534(3)
H2_2 H 0.0653 0.9718 0.5426
H3_2 H 0.0291 0.6982 0.7865
C10_2 C 0.2339(4) 0.8957(5) 0.5210(3)
H4_2 H 0.2756 0.8948 0.4892
O3_2 O 0.3119(3) 0.7741(3) 0.6619(3)
C13_2 C 0.0247(4) 0.8330(4) 0.7122(3)
H6_2 H 0.0588 0.7918 0.7143
C15_2 C 0.1043(5) 0.8936(4) 0.6139(3)
O4_2 O 0.3396(3) 0.7750(3) 0.5440(3)
C17_2 C 0.2986(5) 0.7963(5) 0.5993(4)
C18_2 C 0.1684(5) 0.8480(4) 0.6270(3)
H8_2 H 0.1678 0.8161 0.6678
H12_2 H 0.0050 0.6106 0.8806
N5_2 N 0.1950(4) 0.9983(4) 0.2592(3)
C2_2 C 0.9203(4) 0.9494(4) 0.7070(3)
N1_2 N 0.9109(3) 0.8914(4) 0.7559(3)
C5_2 C 0.9622(4) 0.8341(4) 0.7586(3)
C6_2 C 0.9825(4) 0.9508(4) 0.6620(3)
H1_2 H 0.9883 0.9919 0.6300
C9_2 C 0.9913(5) 0.7085(5) 0.8212(4)
C11_2 C 0.8816(5) 0.7424(5) 0.9206(3)
H5_2 H 0.8441 0.7538 0.9552
C12_2 C 0.9490(4) 0.7753(4) 0.8166(3)
N3_2 N 0.8935(4) 0.7925(3) 0.8653(3)
C20_2 C 0.9226(5) 0.6757(6) 0.9278(4)
H10_2 H 0.9131 0.6432 0.9672
C22_2 C 0.9778(5) 0.6565(5) 0.8773(4)
Mn3_2 Mn 0.81881(7) 0.90017(7) 0.84180(5)
C5_3 C 0.6659(4) 0.4622(4) 0.0086(3)
C9_3 C 0.7915(5) 0.4913(5) 0.0712(4)
H3_3 H 0.8018 0.5291 0.0365
C11_3 C 0.7576(5) 0.3816(5) 0.1706(3)
H5_3 H 0.7462 0.3441 0.2052
C12_3 C 0.7247(4) 0.4490(4) 0.0666(3)
C20_3 C 0.8243(6) 0.4226(5) 0.1778(4)
H10_3 H 0.8568 0.4131 0.2172
C21_2 C 0.4465(6) 0.2487(6) 0.0134(4)
H11_2 H 0.4509 0.2129 0.0509
C22_3 C 0.8435(5) 0.4778(5) 0.1273(4)
H12_3 H 0.8894 0.5050 0.1306
O1_3 O 0.4682(3) 0.6152(3) 0.6742(2)
O2_3 O 0.4848(3) 0.7392(3) 0.6683(2)
C1_3 C 0.5553(4) 0.6719(4) 0.7580(3)
C2_3 C 0.5506(4) 0.4203(4) 0.9570(3)
C3_3 C 0.6074(4) 0.5381(4) 0.9120(3)
C4_3 C 0.6525(4) 0.7328(4) 0.8332(3)
C6_3 C 0.5492(4) 0.4825(4) 0.9120(3)
H1_3 H 0.5081 0.4883 0.8800
C7_3 C 0.5589(4) 0.6076(4) 0.8034(3)
H2_3 H 0.5282 0.5653 0.7926
C8_3 C 0.4998(4) 0.6758(5) 0.6959(3)
C10_3 C 0.6043(5) 0.7339(4) 0.7710(3)
H4_3 H 0.6052 0.7756 0.7392
O3_3 O 0.7259(3) 0.8119(3) 0.9119(3)
C13_3 C 0.6670(4) 0.5247(4) 0.9622(3)
H6_3 H 0.7082 0.5588 0.9643
C14_2 C 0.4924(4) 0.3594(4) 0.9578(3)
C15_3 C 0.6064(4) 0.6043(5) 0.8639(3)
O4_3 O 0.7250(3) 0.8396(3) 0.7940(3)
C16_2 C 0.4319(5) 0.3567(5) 0.9080(4)
H7_2 H 0.4284 0.3941 0.8719
C17_3 C 0.7037(5) 0.7986(5) 0.8493(4)
C18_3 C 0.6520(4) 0.6684(5) 0.8770(3)
H8_3 H 0.6839 0.6678 0.9178
C19_2 C 0.3767(6) 0.2990(6) 0.9115(4)
H9_2 H 0.3347 0.2989 0.8800
C23_2 C 0.3862(7) 0.2411(6) 0.9638(5)
H13_2 H 0.3533 0.1989 0.9655
C2_4 C 0.0797(4) 0.0506(4) 0.2070(3)
C5_4 C 0.0378(4) 0.1659(4) 0.2586(3)
C6_4 C 0.0175(4) 0.0492(4) 0.1620(3)
H1_4 H 0.0117 0.0081 0.1300
C9_4 C 0.0087(5) 0.2915(5) 0.3212(4)
C11_4 C 0.1184(5) 0.2576(5) 0.4206(3)
H5_4 H 0.1559 0.2462 0.4552
C12_4 C 0.0510(4) 0.2247(4) 0.3166(3)
C20_4 C 0.0774(5) 0.3243(6) 0.4278(4)
H10_4 H 0.0869 0.3568 0.4672
C22_4 C 0.0222(5) 0.3435(5) 0.3773(4)
C14_3 C 0.1406(4) 0.9924(4) 0.2078(3)
C16_3 C 0.1433(5) 0.9319(5) 0.1580(4)
H7_3 H 0.1059 0.9284 0.1219
C19_3 C 0.2010(6) 0.8767(6) 0.1615(4)
H9_3 H 0.2011 0.8347 0.1300
C21_3 C 0.2513(6) 0.9465(6) 0.2634(4)
H11_3 H 0.2871 0.9509 0.3009
C23_3 C 0.2589(6) 0.8862(7) 0.2138(5)
H13_3 H 0.3011 0.8533 0.2155
C1_4 C 0.8281(4) 0.0553(4) 0.0080(3)
C3_4 C 0.9619(4) 0.1074(4) 0.1620(3)
C4_4 C 0.7672(4) 0.1525(4) 0.0832(3)
C7_4 C 0.8924(4) 0.0589(4) 0.0534(3)
H2_4 H 0.9347 0.0282 0.0426
H3_4 H 0.9709 0.3018 0.2865
C10_4 C 0.7661(4) 0.1043(5) 0.0210(3)
O3_4 O 0.6881(3) 0.2259(3) 0.1619(3)
C13_4 C 0.9753(4) 0.1670(4) 0.2122(3)
H6_4 H 0.9412 0.2082 0.2143
C15_4 C 0.8957(5) 0.1064(4) 0.1139(3)
C17_4 C 0.7014(5) 0.2037(5) 0.0993(4)
C18_4 C 0.8316(5) 0.1520(4) 0.1270(3)
H8_4 H 0.8322 0.1839 0.1678
H12_4 H 0.9950 0.3894 0.3806
O1_4 O 0.8848(3) 0.9682(3) 0.9242(2)
O2_4 O 0.7608(3) 0.9848(3) 0.9183(2)
C8_4 C 0.8242(5) 0.9998(4) 0.9459(3)
C14_4 C 0.8594(4) 0.0076(4) 0.7078(3)
N2_2 N 0.8050(4) 0.0017(4) 0.7592(3)
C16_4 C 0.8567(5) 0.0681(5) 0.6580(4)
H7_4 H 0.8941 0.0716 0.6219
C19_4 C 0.7990(6) 0.1233(6) 0.6615(4)
H9_4 H 0.7989 0.1653 0.6300
C21_4 C 0.7487(6) 0.0535(6) 0.7634(4)
H11_4 H 0.7129 0.0491 0.8009
C23_4 C 0.7411(6) 0.1138(7) 0.7138(5)
H13_4 H 0.6989 0.1467 0.7155
H4_4 H 0.7244 0.1052 0.9892
Mn1_2 Mn 0.09983(7) 0.18119(7) 0.65820(5)
O1_5 O 0.0318(3) 0.1152(3) 0.5758(2)
O2_5 O 0.0152(3) 0.2392(3) 0.5817(2)
C8_5 C 0.0002(4) 0.1758(5) 0.5541(3)
N4_3 N 0.1086(4) 0.0891(3) 0.7441(3)
O5_2 O 0.1604(3) 0.2750(3) 0.7060(3)
N6_3 N 0.2075(3) 0.1065(4) 0.6347(3)
C1_5 C 0.9447(4) 0.1719(4) 0.4920(3)
C3_5 C 0.8926(4) 0.0381(4) 0.3380(3)
C4_5 C 0.8475(4) 0.2328(4) 0.4168(3)
C7_5 C 0.9411(4) 0.1076(4) 0.4466(3)
H2_5 H 0.9718 0.0653 0.4574
H3_5 H 0.6982 0.0291 0.2135
C10_5 C 0.8957(5) 0.2339(4) 0.4790(3)
H4_5 H 0.8948 0.2756 0.5108
O3_5 O 0.7741(3) 0.3119(3) 0.3381(3)
C13_5 C 0.8330(4) 0.0247(4) 0.2878(3)
H6_5 H 0.7918 0.0588 0.2857
C15_5 C 0.8936(4) 0.1043(5) 0.3861(3)
O4_4 O 0.7750(3) 0.3396(3) 0.4560(3)
C17_5 C 0.7963(5) 0.2986(5) 0.4007(4)
C18_5 C 0.8480(4) 0.1684(5) 0.3730(3)
H8_5 H 0.8161 0.1678 0.3322
H12_5 H 0.6106 0.0050 0.1194
Mn2_2 Mn 0.68119(7) 0.40017(7) 0.40820(5)
N5_3 N 0.9983(4) 0.1950(4) 0.7408(3)
C2_5 C 0.9494(4) 0.9203(4) 0.2930(3)
N1_3 N 0.8914(4) 0.9109(3) 0.2441(3)
C5_5 C 0.8341(4) 0.9622(4) 0.2414(3)
C6_5 C 0.9508(4) 0.9825(4) 0.3380(3)
H1_5 H 0.9919 0.9883 0.3700
C9_5 C 0.7085(5) 0.9913(5) 0.1788(4)
C11_5 C 0.7424(5) 0.8816(5) 0.0794(3)
H5_5 H 0.7538 0.8441 0.0448
C12_5 C 0.7753(4) 0.9490(4) 0.1834(3)
N3_3 N 0.7925(3) 0.8935(4) 0.1347(3)
C20_5 C 0.6757(6) 0.9226(5) 0.0722(4)
H10_5 H 0.6432 0.9131 0.0328
C22_5 C 0.6565(5) 0.9778(5) 0.1227(4)
Mn3_3 Mn 0.90017(7) 0.81881(7) 0.15820(5)
C2_6 C 0.0506(4) 0.0797(4) 0.7930(3)
C5_6 C 0.1659(4) 0.0378(4) 0.7414(3)
C6_6 C 0.0492(4) 0.0175(4) 0.8380(3)
H1_6 H 0.0081 0.0117 0.8700
C9_6 C 0.2915(5) 0.0087(5) 0.6788(4)
C11_6 C 0.2576(5) 0.1184(5) 0.5794(3)
H5_6 H 0.2462 0.1559 0.5448
C12_6 C 0.2247(4) 0.0510(4) 0.6834(3)
C20_6 C 0.3243(6) 0.0774(5) 0.5722(4)
H10_6 H 0.3568 0.0869 0.5328
C22_6 C 0.3435(5) 0.0222(5) 0.6227(4)
C1_6 C 0.0553(4) 0.8281(4) 0.9920(3)
C3_6 C 0.1074(4) 0.9619(4) 0.8380(3)
C4_6 C 0.1525(4) 0.7672(4) 0.9168(3)
C7_6 C 0.0589(4) 0.8924(4) 0.9466(3)
H2_6 H 0.0282 0.9347 0.9574
H3_6 H 0.3018 0.9709 0.7135
C10_6 C 0.1043(5) 0.7661(4) 0.9790(3)
O3_6 O 0.2259(3) 0.6881(3) 0.8381(3)
C13_6 C 0.1670(4) 0.9753(4) 0.7878(3)
H6_6 H 0.2082 0.9412 0.7857
C15_6 C 0.1064(4) 0.8957(5) 0.8861(3)
O4_5 O 0.2250(3) 0.6604(3) 0.9560(3)
C17_6 C 0.2037(5) 0.7014(5) 0.9007(4)
C18_6 C 0.1520(4) 0.8316(5) 0.8730(3)
H8_6 H 0.1839 0.8322 0.8322
H12_6 H 0.3894 0.9950 0.6194
Mn2_3 Mn 0.31881(7) 0.59983(7) 0.90820(5)
C14_5 C 0.9924(4) 0.1406(4) 0.7922(3)
C16_5 C 0.9319(5) 0.1433(5) 0.8420(4)
H7_5 H 0.9284 0.1059 0.8781
C19_5 C 0.8767(6) 0.2010(6) 0.8385(4)
H9_5 H 0.8347 0.2011 0.8700
C21_5 C 0.9465(6) 0.2513(6) 0.7366(4)
H11_5 H 0.9509 0.2871 0.6991
C23_5 C 0.8862(7) 0.2589(6) 0.7862(5)
H13_5 H 0.8533 0.3011 0.7845
O1_6 O 0.9682(3) 0.8848(3) 0.0758(2)
O2_6 O 0.9848(3) 0.7608(3) 0.0817(2)
C8_6 C 0.9998(4) 0.8242(5) 0.0541(3)
O5_3 O 0.8396(3) 0.7250(3) 0.2060(3)
O1_7 O 0.3848(3) 0.5318(3) 0.8258(2)
O2_7 O 0.2608(3) 0.5152(3) 0.8317(2)
C1_7 C 0.3281(4) 0.4447(4) 0.7420(3)
C2_7 C 0.5797(4) 0.4494(4) 0.5430(3)
C3_7 C 0.4619(4) 0.3926(4) 0.5880(3)
N1_4 N 0.5891(3) 0.3914(4) 0.4941(3)
C4_7 C 0.2672(4) 0.3475(4) 0.6668(3)
C5_7 C 0.5378(4) 0.3341(4) 0.4914(3)
C6_7 C 0.5175(4) 0.4508(4) 0.5880(3)
H1_7 H 0.5117 0.4919 0.6200
C7_7 C 0.3924(4) 0.4411(4) 0.6966(3)
H2_7 H 0.4347 0.4718 0.7074
C8_7 C 0.3242(5) 0.5002(4) 0.8041(3)
C9_7 C 0.5087(5) 0.2085(5) 0.4288(4)
H3_7 H 0.4709 0.1982 0.4635
C10_7 C 0.2661(4) 0.3957(5) 0.7290(3)
H4_6 H 0.2244 0.3948 0.7608
C11_7 C 0.6184(5) 0.2424(5) 0.3294(3)
H5_7 H 0.6559 0.2538 0.2948
O3_7 O 0.1881(3) 0.2741(3) 0.5881(3)
C12_7 C 0.5510(4) 0.2753(4) 0.4334(3)
C13_7 C 0.4753(4) 0.3330(4) 0.5378(3)
H6_7 H 0.4412 0.2918 0.5357
C14_6 C 0.6406(4) 0.5076(4) 0.5422(3)
C15_7 C 0.3957(5) 0.3936(4) 0.6361(3)
N2_3 N 0.6950(4) 0.5017(4) 0.4908(3)
C16_6 C 0.6433(5) 0.5681(5) 0.5920(4)
H7_6 H 0.6059 0.5716 0.6281
C17_7 C 0.2014(5) 0.2963(5) 0.6507(4)
C18_7 C 0.3316(5) 0.3480(4) 0.6230(3)
H8_7 H 0.3322 0.3161 0.5822
N3_4 N 0.6065(4) 0.2925(3) 0.3847(3)
C19_6 C 0.7010(6) 0.6233(6) 0.5885(4)
H9_6 H 0.7011 0.6653 0.6200
C20_7 C 0.5774(5) 0.1757(6) 0.3222(4)
H10_7 H 0.5869 0.1432 0.2828
C21_6 C 0.7513(6) 0.5535(6) 0.4866(4)
H11_6 H 0.7871 0.5491 0.4491
C22_7 C 0.5222(5) 0.1565(5) 0.3727(4)
H12_7 H 0.4950 0.1106 0.3694
C23_6 C 0.7589(6) 0.6138(7) 0.5362(5)
H13_6 H 0.8011 0.6467 0.5345
N4_4 N 0.4109(3) 0.6086(4) 0.9941(3)
N5_4 N 0.3050(4) 0.4983(4) 0.9908(3)
N6_4 N 0.3935(4) 0.7075(3) 0.8847(3)
O1_8 O 0.6152(3) 0.4682(3) 0.3258(2)
O2_8 O 0.7392(3) 0.4848(3) 0.3317(2)
C1_8 C 0.6719(4) 0.5553(4) 0.2420(3)
C2_8 C 0.4203(4) 0.5506(4) 0.0430(3)
C3_8 C 0.5381(4) 0.6074(4) 0.0880(3)
C4_8 C 0.7328(4) 0.6525(4) 0.1668(3)
C6_8 C 0.4825(4) 0.5492(4) 0.0880(3)
H1_8 H 0.4883 0.5081 0.1200
C7_8 C 0.6076(4) 0.5589(4) 0.1966(3)
H2_8 H 0.5653 0.5282 0.2074
C8_8 C 0.6758(5) 0.4998(4) 0.3041(3)
C10_8 C 0.7339(4) 0.6043(5) 0.2290(3)
H4_7 H 0.7756 0.6052 0.2608
O3_8 O 0.8119(3) 0.7259(3) 0.0881(3)
C13_8 C 0.5247(4) 0.6670(4) 0.0378(3)
H6_8 H 0.5588 0.7082 0.0357
C14_7 C 0.3594(4) 0.4924(4) 0.0422(3)
C15_8 C 0.6043(5) 0.6064(4) 0.1361(3)
C16_7 C 0.3567(5) 0.4319(5) 0.0920(4)
H7_7 H 0.3941 0.4284 0.1281
C17_8 C 0.7986(5) 0.7037(5) 0.1507(4)
C18_8 C 0.6684(5) 0.6520(4) 0.1230(3)
H8_8 H 0.6678 0.6839 0.0822
C19_7 C 0.2990(6) 0.3767(6) 0.0885(4)
H9_7 H 0.2989 0.3347 0.1200
C23_7 C 0.2411(6) 0.3862(7) 0.0362(5)
H13_7 H 0.1989 0.3533 0.0345
C5_8 C 0.4622(4) 0.6659(4) 0.9914(3)
C9_8 C 0.4913(5) 0.7915(5) 0.9288(4)
H3_8 H 0.5291 0.8018 0.9635
C11_8 C 0.3816(5) 0.7576(5) 0.8294(3)
H5_8 H 0.3441 0.7462 0.7948
C12_8 C 0.4490(4) 0.7247(4) 0.9334(3)
C20_8 C 0.4226(5) 0.8243(6) 0.8222(4)
H10_8 H 0.4131 0.8568 0.7828
C21_7 C 0.2487(6) 0.4465(6) 0.9866(4)
H11_7 H 0.2129 0.4509 0.9491
C22_8 C 0.4778(5) 0.8435(5) 0.8727(4)
H12_8 H 0.5050 0.8894 0.8694
C14_8 C 0.0076(4) 0.8594(4) 0.2922(3)
N2_4 N 0.0017(4) 0.8050(4) 0.2408(3)
C16_8 C 0.0681(5) 0.8567(5) 0.3420(4)
H7_8 H 0.0716 0.8941 0.3781
C19_8 C 0.1233(6) 0.7990(6) 0.3385(4)
H9_8 H 0.1653 0.7989 0.3700
C21_8 C 0.0535(6) 0.7487(6) 0.2366(4)
H11_8 H 0.0491 0.7129 0.1991
C23_8 C 0.1138(7) 0.7411(6) 0.2862(5)
H13_8 H 0.1467 0.6989 0.2845
H4_8 H 0.1052 0.7244 0.0108
loop_
_geom_bond_atom_site_label_1
_geom_bond_atom_site_label_2
_geom_bond_site_symmetry_1
_geom_bond_site_symmetry_2
Mn1 O1 1_555 1_555
O1 C8 1_555 1_555
O2 Mn1 1_555 1_555
C1 C7 1_555 1_555
C2 N1 1_555 1_555
C3 C6 1_555 1_555
N1 C5 1_555 1_555
C4 C10 1_555 1_555
C5 C12 1_555 1_555
C6 C2 1_555 1_555
H1 C6 1_555 1_555
C7 H2 1_555 1_555
C8 O2 1_555 1_555
C9 H3 1_555 1_555
C10 C1 1_555 1_555
H4 C10 1_555 1_555
C11 H5 1_555 1_555
O3 C17 1_555 1_555
C12 C9 1_555 1_555
C13 C3 1_555 1_555
H6 C13 1_555 1_555
C14 C2 1_555 1_555
C15 C3 1_555 1_555
O4 C17 1_555 1_555
N2 C14 1_555 1_555
C16 C14 1_555 1_555
H7 C16 1_555 1_555
C17 C4 1_555 1_555
C18 C4 1_555 1_555
H8 C18 1_555 1_555
N3 C11 1_555 1_555
C19 C16 1_555 1_555
H9 C19 1_555 1_555
C20 C11 1_555 1_555
H10 C20 1_555 1_555
C21 N2 1_555 1_555
H11 C21 1_555 1_555
C22 C9 1_555 1_555
H12 C22 1_555 1_555
C23 C19 1_555 1_555
H13 C23 1_555 1_555
Mn2 O4 1_555 1_555
Mn3 N1 1_555 1_555
N4 Mn1 1_555 1_555
O5 Mn1 1_555 1_555
N5 Mn1 1_555 1_555
N6 Mn1 1_555 1_555
C1 C8 1_555 1_555
C5 C13 1_555 1_555
C7 C15 1_555 1_555
C12 N3 1_555 1_555
C15 C18 1_555 1_555
N2 Mn3 1_555 1_555
N3 Mn3 1_555 1_555
C20 C22 1_555 1_555
C21 C23 1_555 1_555
Mn2 O1_2 1_555 1_555
O1_2 C8_2 1_555 1_555
O2_2 Mn2 1_555 1_555
C8_2 O2_2 1_555 1_555
N4_2 Mn2 1_555 1_555
N6_2 Mn2 1_555 1_555
C1_2 C7_2 1_555 1_555
C4_2 C10_2 1_555 1_555
C7_2 H2_2 1_555 1_555
C10_2 C1_2 1_555 1_555
H4_2 C10_2 1_555 1_555
O3_2 C17_2 1_555 1_555
C13_2 C3_2 1_555 1_555
H6_2 C13_2 1_555 1_555
C15_2 C3_2 1_555 1_555
O4_2 C17_2 1_555 1_555
C17_2 C4_2 1_555 1_555
C18_2 C4_2 1_555 1_555
H8_2 C18_2 1_555 1_555
Mn3 O4_2 1_555 1_555
C7_2 C15_2 1_555 1_555
C15_2 C18_2 1_555 1_555
C2_2 N1_2 1_555 1_555
N1_2 C5_2 1_555 1_555
C5_2 C12_2 1_555 1_555
C6_2 C2_2 1_555 1_555
H1_2 C6_2 1_555 1_555
C11_2 H5_2 1_555 1_555
C12_2 C9_2 1_555 1_555
N3_2 C11_2 1_555 1_555
C20_2 C11_2 1_555 1_555
H10_2 C20_2 1_555 1_555
C22_2 C9_2 1_555 1_555
Mn3_2 N1_2 1_555 1_555
C12_2 N3_2 1_555 1_555
N3_2 Mn3_2 1_555 1_555
C20_2 C22_2 1_555 1_555
N4 C5_3 1_555 1_555
C5_3 C12_3 1_555 1_555
C9_3 H3_3 1_555 1_555
C11_3 H5_3 1_555 1_555
C12_3 C9_3 1_555 1_555
N6 C11_3 1_555 1_555
C20_3 C11_3 1_555 1_555
H10_3 C20_3 1_555 1_555
C21_2 N5 1_555 1_555
H11_2 C21_2 1_555 1_555
C22_3 C9_3 1_555 1_555
H12_3 C22_3 1_555 1_555
C12_3 N6 1_555 1_555
C20_3 C22_3 1_555 1_555
Mn3 O1_3 1_555 1_555
O1_3 C8_3 1_555 1_555
O2_3 Mn3 1_555 1_555
C1_3 C7_3 1_555 1_555
C3_3 C6_3 1_555 1_555
C4_3 C10_3 1_555 1_555
C6_3 C2_3 1_555 1_555
H1_3 C6_3 1_555 1_555
C7_3 H2_3 1_555 1_555
C8_3 O2_3 1_555 1_555
C10_3 C1_3 1_555 1_555
H4_3 C10_3 1_555 1_555
O3_3 C17_3 1_555 1_555
C13_3 C3_3 1_555 1_555
H6_3 C13_3 1_555 1_555
C14_2 C2_3 1_555 1_555
C15_3 C3_3 1_555 1_555
O4_3 C17_3 1_555 1_555
C16_2 C14_2 1_555 1_555
H7_2 C16_2 1_555 1_555
C17_3 C4_3 1_555 1_555
C18_3 C4_3 1_555 1_555
H8_3 C18_3 1_555 1_555
C19_2 C16_2 1_555 1_555
H9_2 C19_2 1_555 1_555
C23_2 C19_2 1_555 1_555
H13_2 C23_2 1_555 1_555
Mn3_2 O4_3 1_555 1_555
C1_3 C8_3 1_555 1_555
C7_3 C15_3 1_555 1_555
C15_3 C18_3 1_555 1_555
C2_4 N4_2 1_555 1_555
N4_2 C5_4 1_555 1_555
C5_4 C12_4 1_555 1_555
C6_4 C2_4 1_555 1_555
H1_4 C6_4 1_555 1_555
C11_4 H5_4 1_555 1_555
C12_4 C9_4 1_555 1_555
N6_2 C11_4 1_555 1_555
C20_4 C11_4 1_555 1_555
H10_4 C20_4 1_555 1_555
C22_4 C9_4 1_555 1_555
C12_4 N6_2 1_555 1_555
C20_4 C22_4 1_555 1_555
N5_2 C14_3 1_555 1_555
C16_3 C14_3 1_555 1_555
H7_3 C16_3 1_555 1_555
C19_3 C16_3 1_555 1_555
H9_3 C19_3 1_555 1_555
C21_3 N5_2 1_555 1_555
H11_3 C21_3 1_555 1_555
C23_3 C19_3 1_555 1_555
H13_3 C23_3 1_555 1_555
C21_3 C23_3 1_555 1_555
C1_4 C7_4 1_555 1_555
C4_4 C10_4 1_555 1_555
C7_4 H2_4 1_555 1_555
C10_4 C1_4 1_555 1_555
O3_4 C17_4 1_555 1_555
C13_4 C3_4 1_555 1_555
H6_4 C13_4 1_555 1_555
C15_4 C3_4 1_555 1_555
O5 C17_4 1_555 1_555
C17_4 C4_4 1_555 1_555
C18_4 C4_4 1_555 1_555
H8_4 C18_4 1_555 1_555
C7_4 C15_4 1_555 1_555
C15_4 C18_4 1_555 1_555
Mn3_2 O1_4 1_555 1_555
O1_4 C8_4 1_555 1_555
O2_4 Mn3_2 1_555 1_555
C8_4 O2_4 1_555 1_555
N2_2 C14_4 1_555 1_555
C16_4 C14_4 1_555 1_555
H7_4 C16_4 1_555 1_555
C19_4 C16_4 1_555 1_555
H9_4 C19_4 1_555 1_555
C21_4 N2_2 1_555 1_555
H11_4 C21_4 1_555 1_555
C23_4 C19_4 1_555 1_555
H13_4 C23_4 1_555 1_555
C21_4 C23_4 1_555 1_555
Mn1_2 O1_5 1_555 1_555
O1_5 C8_5 1_555 1_555
O2_5 Mn1_2 1_555 1_555
C8_5 O2_5 1_555 1_555
N4_3 Mn1_2 1_555 1_555
O5_2 Mn1_2 1_555 1_555
N6_3 Mn1_2 1_555 1_555
C1_5 C7_5 1_555 1_555
C4_5 C10_5 1_555 1_555
C7_5 H2_5 1_555 1_555
C10_5 C1_5 1_555 1_555
H4_5 C10_5 1_555 1_555
O3_5 C17_5 1_555 1_555
C13_5 C3_5 1_555 1_555
H6_5 C13_5 1_555 1_555
C15_5 C3_5 1_555 1_555
O4_4 C17_5 1_555 1_555
C17_5 C4_5 1_555 1_555
C18_5 C4_5 1_555 1_555
H8_5 C18_5 1_555 1_555
Mn2_2 O4_4 1_555 1_555
C7_5 C15_5 1_555 1_555
C15_5 C18_5 1_555 1_555
C2_5 N1_3 1_555 1_555
N1_3 C5_5 1_555 1_555
C5_5 C12_5 1_555 1_555
C6_5 C2_5 1_555 1_555
H1_5 C6_5 1_555 1_555
C11_5 H5_5 1_555 1_555
C12_5 C9_5 1_555 1_555
N3_3 C11_5 1_555 1_555
C20_5 C11_5 1_555 1_555
H10_5 C20_5 1_555 1_555
C22_5 C9_5 1_555 1_555
Mn3_3 N1_3 1_555 1_555
C12_5 N3_3 1_555 1_555
N3_3 Mn3_3 1_555 1_555
C20_5 C22_5 1_555 1_555
C2_6 N4_3 1_555 1_555
N4_3 C5_6 1_555 1_555
C5_6 C12_6 1_555 1_555
C6_6 C2_6 1_555 1_555
H1_6 C6_6 1_555 1_555
C11_6 H5_6 1_555 1_555
C12_6 C9_6 1_555 1_555
N6_3 C11_6 1_555 1_555
C20_6 C11_6 1_555 1_555
H10_6 C20_6 1_555 1_555
C22_6 C9_6 1_555 1_555
C12_6 N6_3 1_555 1_555
C20_6 C22_6 1_555 1_555
C1_6 C7_6 1_555 1_555
C4_6 C10_6 1_555 1_555
C7_6 H2_6 1_555 1_555
C10_6 C1_6 1_555 1_555
O3_6 C17_6 1_555 1_555
C13_6 C3_6 1_555 1_555
H6_6 C13_6 1_555 1_555
C15_6 C3_6 1_555 1_555
O4_5 C17_6 1_555 1_555
C17_6 C4_6 1_555 1_555
C18_6 C4_6 1_555 1_555
H8_6 C18_6 1_555 1_555
Mn2_3 O4_5 1_555 1_555
C7_6 C15_6 1_555 1_555
C15_6 C18_6 1_555 1_555
N5_3 C14_5 1_555 1_555
C16_5 C14_5 1_555 1_555
H7_5 C16_5 1_555 1_555
C19_5 C16_5 1_555 1_555
H9_5 C19_5 1_555 1_555
C21_5 N5_3 1_555 1_555
H11_5 C21_5 1_555 1_555
C23_5 C19_5 1_555 1_555
H13_5 C23_5 1_555 1_555
C21_5 C23_5 1_555 1_555
Mn3_3 O1_6 1_555 1_555
O1_6 C8_6 1_555 1_555
O2_6 Mn3_3 1_555 1_555
C8_6 O2_6 1_555 1_555
O5_3 Mn3_3 1_555 1_555
Mn2_3 O1_7 1_555 1_555
O1_7 C8_7 1_555 1_555
O2_7 Mn2_3 1_555 1_555
C1_7 C7_7 1_555 1_555
C2_7 N1_4 1_555 1_555
C3_7 C6_7 1_555 1_555
N1_4 C5_7 1_555 1_555
C4_7 C10_7 1_555 1_555
C5_7 C12_7 1_555 1_555
C6_7 C2_7 1_555 1_555
H1_7 C6_7 1_555 1_555
C7_7 H2_7 1_555 1_555
C8_7 O2_7 1_555 1_555
C9_7 H3_7 1_555 1_555
C10_7 C1_7 1_555 1_555
H4_6 C10_7 1_555 1_555
C11_7 H5_7 1_555 1_555
O3_7 C17_7 1_555 1_555
C12_7 C9_7 1_555 1_555
C13_7 C3_7 1_555 1_555
H6_7 C13_7 1_555 1_555
C14_6 C2_7 1_555 1_555
C15_7 C3_7 1_555 1_555
O5_2 C17_7 1_555 1_555
N2_3 C14_6 1_555 1_555
C16_6 C14_6 1_555 1_555
H7_6 C16_6 1_555 1_555
C17_7 C4_7 1_555 1_555
C18_7 C4_7 1_555 1_555
H8_7 C18_7 1_555 1_555
N3_4 C11_7 1_555 1_555
C19_6 C16_6 1_555 1_555
H9_6 C19_6 1_555 1_555
C20_7 C11_7 1_555 1_555
H10_7 C20_7 1_555 1_555
C21_6 N2_3 1_555 1_555
H11_6 C21_6 1_555 1_555
C22_7 C9_7 1_555 1_555
H12_7 C22_7 1_555 1_555
C23_6 C19_6 1_555 1_555
H13_6 C23_6 1_555 1_555
Mn2_2 N1_4 1_555 1_555
N4_4 Mn2_3 1_555 1_555
N5_4 Mn2_3 1_555 1_555
N6_4 Mn2_3 1_555 1_555
C1_7 C8_7 1_555 1_555
C5_7 C13_7 1_555 1_555
C7_7 C15_7 1_555 1_555
C12_7 N3_4 1_555 1_555
C15_7 C18_7 1_555 1_555
N2_3 Mn2_2 1_555 1_555
N3_4 Mn2_2 1_555 1_555
C20_7 C22_7 1_555 1_555
C21_6 C23_6 1_555 1_555
Mn2_2 O1_8 1_555 1_555
O1_8 C8_8 1_555 1_555
O2_8 Mn2_2 1_555 1_555
C1_8 C7_8 1_555 1_555
C3_8 C6_8 1_555 1_555
C4_8 C10_8 1_555 1_555
C6_8 C2_8 1_555 1_555
H1_8 C6_8 1_555 1_555
C7_8 H2_8 1_555 1_555
C8_8 O2_8 1_555 1_555
C10_8 C1_8 1_555 1_555
H4_7 C10_8 1_555 1_555
O3_8 C17_8 1_555 1_555
C13_8 C3_8 1_555 1_555
H6_8 C13_8 1_555 1_555
C14_7 C2_8 1_555 1_555
C15_8 C3_8 1_555 1_555
O5_3 C17_8 1_555 1_555
C16_7 C14_7 1_555 1_555
H7_7 C16_7 1_555 1_555
C17_8 C4_8 1_555 1_555
C18_8 C4_8 1_555 1_555
H8_8 C18_8 1_555 1_555
C19_7 C16_7 1_555 1_555
H9_7 C19_7 1_555 1_555
C23_7 C19_7 1_555 1_555
H13_7 C23_7 1_555 1_555
C1_8 C8_8 1_555 1_555
C7_8 C15_8 1_555 1_555
C15_8 C18_8 1_555 1_555
N4_4 C5_8 1_555 1_555
C5_8 C12_8 1_555 1_555
C9_8 H3_8 1_555 1_555
C11_8 H5_8 1_555 1_555
C12_8 C9_8 1_555 1_555
N6_4 C11_8 1_555 1_555
C20_8 C11_8 1_555 1_555
H10_8 C20_8 1_555 1_555
C21_7 N5_4 1_555 1_555
H11_7 C21_7 1_555 1_555
C22_8 C9_8 1_555 1_555
H12_8 C22_8 1_555 1_555
C12_8 N6_4 1_555 1_555
C20_8 C22_8 1_555 1_555
N2_4 C14_8 1_555 1_555
C16_8 C14_8 1_555 1_555
H7_8 C16_8 1_555 1_555
C19_8 C16_8 1_555 1_555
H9_8 C19_8 1_555 1_555
C21_8 N2_4 1_555 1_555
H11_8 C21_8 1_555 1_555
C23_8 C19_8 1_555 1_555
H13_8 C23_8 1_555 1_555
C21_8 C23_8 1_555 1_555

#END
