
###############################################################################
#
# This file contains modified crystal structure data generated from the
# MOF subset of the Cambridge Structural Database (CSD) v543 
# hosted by the Cambridge Crystallographic Data Centre (CCDC).
#
# This work is licensed under the Creative Commons
# Attribution-NonCommercial-ShareAlike 4.0 International License.
# To view a copy of this license, visit
# http://creativecommons.org/licenses/by-nc-sa/4.0/
# or send a letter to
# Creative Commons, PO Box 1866, Mountain View, CA 94042, USA.
#
# CIF created using the CSD Python API on 29 September 2022
# The structure has been converted into the P1 space group
# The structure has a 3D framework
# The original CSD entry TIFDOB is in the tetragonal crystal system
# The original CSD entry TIFDOB is in a Sohncke space group
# The framework has been calculated to contain at least 10.0% void space
# The void calculation uses a probe of radius 1.32A, grid spacing 0.4
#
###############################################################################

data_TIFDOB
_chemical_formula_moiety         '(C488 H448 F192 Mn16 N32 O96)n'
_symmetry_cell_setting           triclinic
_symmetry_space_group_name_H-M   'P 1'
_symmetry_Int_Tables_number      1
_space_group_name_Hall           'P 1'
loop_
_symmetry_equiv_pos_site_id
_symmetry_equiv_pos_as_xyz
1 x,y,z
_cell_length_a                   20.1716(5)
_cell_length_b                   20.1716(5)
_cell_length_c                   41.2300(17)
_cell_angle_alpha                90
_cell_angle_beta                 90
_cell_angle_gamma                90
_cell_volume                     16776.2
loop_
_atom_site_label
_atom_site_type_symbol
_atom_site_fract_x
_atom_site_fract_y
_atom_site_fract_z
Mn2 Mn 0.44920(2) 0.263998(19) 0.119728(10)
O2 O 0.36375(8) 0.20960(8) 0.10823(4)
O3 O 0.28815(8) 0.36891(8) 0.35456(4)
O7 O 0.04173(10) 0.32764(9) 0.11978(5)
O8 O 0.02318(8) 0.19306(8) 0.10631(5)
O9 O 0.40526(10) 0.33457(9) 0.15060(4)
O10 O 0.46042(10) 0.20989(9) 0.16338(4)
O11 O 0.53647(10) 0.32339(9) 0.12558(5)
O12 O 0.51877(9) 0.19597(9) 0.09984(5)
N2 N 0.34386(10) 0.15430(9) 0.12052(5)
N3 N 0.32497(10) 0.34784(10) 0.33109(5)
C1 C 0.18914(11) 0.18619(10) 0.23633(5)
C2 C 0.12536(10) 0.21929(10) 0.22346(5)
C3 C 0.10595(12) 0.28466(11) 0.23008(6)
H1 H 0.1313 0.3095 0.2445
C4 C 0.05265(12) 0.31277(11) 0.21661(6)
H2 H 0.0429 0.3570 0.2207
C5 C 0.01187(11) 0.27571(12) 0.19645(5)
C6 C 0.02844(11) 0.21177(11) 0.18912(5)
H3 H 0.0015 0.1871 0.1754
C7 C 0.08415(12) 0.18388(11) 0.20182(6)
H4 H 0.0953 0.1407 0.1962
C12 C 0.23067(11) 0.17198(10) 0.20588(5)
C13 C 0.25339(12) 0.11217(11) 0.19562(6)
H14 H 0.2429 0.0747 0.2077
C14 C 0.29080(11) 0.10475(11) 0.16841(6)
H15 H 0.3071 0.0630 0.1631
C15 C 0.30487(11) 0.15767(11) 0.14866(5)
C16 C 0.28207(12) 0.21901(11) 0.15790(6)
H16 H 0.2914 0.2561 0.1453
C17 C 0.24544(11) 0.22524(11) 0.18586(5)
H17 H 0.2299 0.2670 0.1916
C18 C 0.36403(14) 0.09140(13) 0.10211(7)
C19 C 0.41998(14) 0.05879(14) 0.12248(8)
H18 H 0.4031 0.0474 0.1435
H19 H 0.4561 0.0894 0.1248
H20 H 0.4353 0.0195 0.1117
C20 C 0.39141(16) 0.10983(17) 0.06805(7)
H21 H 0.3569 0.1300 0.0554
H22 H 0.4067 0.0705 0.0573
H23 H 0.4276 0.1404 0.0704
C21 C 0.30310(13) 0.04543(14) 0.09803(8)
H24 H 0.2860 0.0339 0.1190
H25 H 0.3161 0.0059 0.0867
H26 H 0.2695 0.0680 0.0858
C22 C 0.22697(10) 0.23057(11) 0.26074(5)
C23 C 0.28938(10) 0.25534(12) 0.25509(6)
H27 H 0.3102 0.2462 0.2355
C24 C 0.32200(11) 0.29379(13) 0.27807(6)
H28 H 0.3643 0.3096 0.2736
C25 C 0.29275(12) 0.30888(11) 0.30737(6)
C26 C 0.22906(11) 0.28550(10) 0.31316(6)
H29 H 0.2075 0.2963 0.3324
C27 C 0.19890(11) 0.24766(11) 0.29120(6)
H30 H 0.1569 0.2314 0.2961
C28 C 0.39953(13) 0.36896(14) 0.33077(8)
C29 C 0.41277(15) 0.39614(16) 0.36594(7)
H31 H 0.4581 0.4103 0.3677
H32 H 0.4044 0.3617 0.3815
H33 H 0.3839 0.4330 0.3701
C30 C 0.41164(15) 0.42100(15) 0.30459(8)
H34 H 0.4029 0.4021 0.2837
H35 H 0.4569 0.4356 0.3056
H36 H 0.3827 0.4581 0.3081
C31 C 0.44183(16) 0.30541(16) 0.32574(10)
H37 H 0.4343 0.2882 0.3043
H38 H 0.4294 0.2727 0.3415
H39 H 0.4879 0.3160 0.3282
C32 C 0.17194(10) 0.12336(10) 0.25656(5)
C33 C 0.22250(11) 0.08108(11) 0.26691(5)
H40 H 0.2661 0.0908 0.2613
C34 C 0.20968(11) 0.02523(11) 0.28519(5)
C35 C 0.14408(12) 0.01131(11) 0.29525(5)
C36 C 0.09438(11) 0.05545(11) 0.28588(6)
H42 H 0.0511 0.0483 0.2929
C37 C 0.10783(11) 0.10911(10) 0.26659(5)
H43 H 0.0733 0.1366 0.2601
H46 H 0.0214 0.0090 0.3374
C47 C 0.14899(19) 0.36441(18) 0.12332(11)
C48 C 0.10233(14) 0.31035(14) 0.11646(8)
C49 C 0.12267(15) 0.24859(15) 0.10712(9)
H54 H 0.1676 0.2425 0.1030
C50 C 0.08327(14) 0.19706(14) 0.10353(7)
C51 C 0.11693(15) 0.13114(18) 0.09570(13)
C52 C 0.3924(2) 0.40819(19) 0.19210(9)
C53 C 0.41373(15) 0.33973(14) 0.18015(8)
C54 C 0.44008(15) 0.29327(14) 0.20153(7)
H55 H 0.4440 0.3036 0.2234
C55 C 0.45992(15) 0.23354(15) 0.19067(8)
C56 C 0.4797(2) 0.1898(2) 0.21476(12)
C57 C 0.6453(2) 0.35461(19) 0.12984(11)
C58 C 0.59638(15) 0.30708(13) 0.12095(8)
C59 C 0.62018(15) 0.25155(14) 0.11097(9)
H56 H 0.6659 0.2457 0.1113
C60 C 0.58104(14) 0.20020(14) 0.09982(7)
C61 C 0.6249(2) 0.13551(19) 0.09251(13)
F7 F 0.14136(14) 0.38648(13) 0.15412(8)
F8 F 0.21039(12) 0.35044(12) 0.11837(11)
F9 F 0.14231(13) 0.41599(10) 0.10543(7)
F10 F 0.14173(14) 0.10132(11) 0.12225(8)
F11 F 0.08091(12) 0.08850(11) 0.08530(9)
F12 F 0.17077(12) 0.13858(13) 0.07901(8)
F13 F 0.4247(2) 0.45240(12) 0.18232(8)
F14 F 0.33866(18) 0.43082(18) 0.17919(10)
F15 F 0.3913(2) 0.41458(12) 0.22139(6)
F16 F 0.4381(2) 0.14250(16) 0.22175(9)
F17 F 0.48789(18) 0.20766(16) 0.24564(6)
F18 F 0.52438(16) 0.14853(18) 0.21086(7)
F19 F 0.64594(15) 0.40665(13) 0.10862(9)
F20 F 0.63527(14) 0.38697(14) 0.15580(7)
F21 F 0.70673(11) 0.34277(13) 0.13052(9)
F22 F 0.59825(17) 0.08442(11) 0.09851(8)
F23 F 0.58013(19) 0.11958(14) 0.05789(10)
F24 F 0.66334(13) 0.14508(14) 0.06883(10)
O14 O 0.42592(8) 0.31576(8) 0.07710(4)
Mn3 Mn 0.22723(2) 0.45273(2) 0.358270(10)
O4 O 0.18424(8) 0.92592(8) 0.32710(4)
N4 N 0.13234(9) 0.95317(10) 0.31472(5)
H41 H 0.2441 0.9968 0.2909
C38 C 0.06510(12) 0.92212(13) 0.32287(6)
C39 C 0.02831(14) 0.96608(15) 0.34687(7)
H44 H 0.0541 0.9705 0.3663
C40 C 0.02664(14) 0.91288(16) 0.29111(7)
H48 H 0.0512 0.8842 0.2769
H49 H 0.0205 0.9552 0.2809
C41 C 0.07676(15) 0.85578(14) 0.33723(7)
H50 H 0.1008 0.8605 0.3572
H51 H 0.1020 0.8292 0.3224
H52 H 0.0350 0.8347 0.3414
Mn4 Mn 0.236002(19) 0.94920(2) 0.369728(10)
Mn1 Mn 0.95273(2) 0.27277(2) 0.108270(10)
O1 O 0.92763(8) 0.26930(8) 0.15780(4)
O5 O 0.96415(10) 0.27327(10) 0.05690(4)
O6 O 0.90454(10) 0.36487(9) 0.09898(4)
N1 N 0.95272(10) 0.30328(10) 0.18166(5)
C8 C 0.91716(13) 0.36488(14) 0.19307(7)
C9 C 0.95590(19) 0.42461(14) 0.18277(10)
H5 H 0.9990 0.4235 0.1927
H6 H 0.9329 0.4640 0.1894
H7 H 0.9606 0.4246 0.1596
C10 C 0.84486(15) 0.36042(17) 0.17840(8)
H8 H 0.8473 0.3619 0.1552
H9 H 0.8189 0.3971 0.1861
H10 H 0.8245 0.3196 0.1851
C11 C 0.90726(17) 0.3621(2) 0.23070(8)
H11 H 0.9496 0.3647 0.2412
H12 H 0.8859 0.3213 0.2365
H13 H 0.8802 0.3988 0.2375
C42 C 0.9721(2) 0.3091(2) 0.00223(9)
C43 C 0.95418(15) 0.32095(16) 0.03732(8)
C44 C 0.92921(16) 0.38317(16) 0.04355(8)
H53 H 0.9282 0.4145 0.0270
C45 C 0.90604(15) 0.39945(15) 0.07347(8)
C46 C 0.8630(2) 0.46690(16) 0.08502(13)
F4 F 0.8048(2) 0.45902(16) 0.08251(15)
F5 F 0.8975(3) 0.49981(12) 0.09690(9)
F6 F 0.8697(2) 0.50210(12) 0.05467(8)
O13 O 0.86891(8) 0.21185(8) 0.10456(4)
Mn1_2 Mn 0.04727(2) 0.72723(2) 0.608270(10)
O1_2 O 0.07237(8) 0.73070(8) 0.65780(4)
O5_2 O 0.03585(10) 0.72673(10) 0.55690(4)
O6_2 O 0.09546(10) 0.63513(9) 0.59898(4)
N1_2 N 0.04728(10) 0.69672(10) 0.68166(5)
C8_2 C 0.08284(13) 0.63512(14) 0.69307(7)
C9_2 C 0.04410(19) 0.57539(14) 0.68277(10)
H5_2 H 0.0010 0.5765 0.6927
H6_2 H 0.0671 0.5360 0.6894
H7_2 H 0.0394 0.5754 0.6596
C10_2 C 0.15514(15) 0.63958(17) 0.67840(8)
H8_2 H 0.1527 0.6381 0.6552
H9_2 H 0.1811 0.6029 0.6861
H10_2 H 0.1755 0.6804 0.6851
C11_2 C 0.09274(17) 0.6379(2) 0.73070(8)
H11_2 H 0.0504 0.6353 0.7412
H12_2 H 0.1141 0.6787 0.7365
H13_2 H 0.1198 0.6012 0.7375
C42_2 C 0.0279(2) 0.6909(2) 0.50223(9)
C43_2 C 0.04582(15) 0.67905(16) 0.53732(8)
C44_2 C 0.07079(16) 0.61683(16) 0.54355(8)
H53_2 H 0.0718 0.5855 0.5270
C45_2 C 0.09396(15) 0.60055(15) 0.57347(8)
C46_2 C 0.1370(2) 0.53310(16) 0.58502(13)
F1 F 0.0741(2) 0.72753(19) 0.48907(6)
F3 F 0.02974(16) 0.64192(17) 0.48306(6)
F4_2 F 0.1952(2) 0.54098(16) 0.58251(15)
F5_2 F 0.1025(3) 0.50019(12) 0.59690(9)
F6_2 F 0.1303(2) 0.49790(12) 0.55467(8)
O13_2 O 0.13109(8) 0.78815(8) 0.60456(4)
O4_2 O 0.81576(8) 0.07408(8) 0.82710(4)
N4_2 N 0.86766(9) 0.04683(10) 0.81472(5)
H41_2 H 0.7559 0.0032 0.7909
C38_2 C 0.93490(12) 0.07788(13) 0.82287(6)
C39_2 C 0.97169(14) 0.03392(15) 0.84687(7)
H44_2 H 0.9459 0.0295 0.8663
C40_2 C 0.97336(14) 0.08712(16) 0.79111(7)
H48_2 H 0.9488 0.1158 0.7769
H49_2 H 0.9795 0.0448 0.7809
C41_2 C 0.92324(15) 0.14422(14) 0.83723(7)
H50_2 H 0.8992 0.1395 0.8572
H51_2 H 0.8980 0.1708 0.8224
H52_2 H 0.9650 0.1653 0.8414
Mn4_2 Mn 0.763998(19) 0.05080(2) 0.869728(10)
Mn2_2 Mn 0.55080(2) 0.736002(19) 0.619728(10)
O2_2 O 0.63625(8) 0.79040(8) 0.60823(4)
O3_2 O 0.71185(8) 0.63109(8) 0.85456(4)
O7_2 O 0.95827(10) 0.67236(9) 0.61978(5)
O8_2 O 0.97682(8) 0.80694(8) 0.60631(5)
O9_2 O 0.59474(10) 0.66543(9) 0.65060(4)
O10_2 O 0.53958(10) 0.79011(9) 0.66338(4)
O11_2 O 0.46353(10) 0.67661(9) 0.62558(5)
O12_2 O 0.48123(9) 0.80403(9) 0.59984(5)
N2_2 N 0.65614(10) 0.84570(9) 0.62052(5)
N3_2 N 0.67503(10) 0.65216(10) 0.83109(5)
C1_2 C 0.81086(11) 0.81381(10) 0.73633(5)
C2_2 C 0.87464(10) 0.78071(10) 0.72346(5)
C3_2 C 0.89405(12) 0.71534(11) 0.73008(6)
H1_2 H 0.8687 0.6905 0.7445
C4_2 C 0.94735(12) 0.68723(11) 0.71661(6)
H2_2 H 0.9571 0.6430 0.7207
C5_2 C 0.98813(11) 0.72429(12) 0.69645(5)
C6_2 C 0.97156(11) 0.78823(11) 0.68912(5)
H3_2 H 0.9985 0.8129 0.6754
C7_2 C 0.91585(12) 0.81612(11) 0.70182(6)
H4_2 H 0.9047 0.8593 0.6962
C12_2 C 0.76933(11) 0.82802(10) 0.70588(5)
C13_2 C 0.74661(12) 0.88783(11) 0.69562(6)
H14_2 H 0.7571 0.9253 0.7077
C14_2 C 0.70920(11) 0.89525(11) 0.66841(6)
H15_2 H 0.6929 0.9370 0.6631
C15_2 C 0.69513(11) 0.84233(11) 0.64866(5)
C16_2 C 0.71793(12) 0.78099(11) 0.65790(6)
H16_2 H 0.7086 0.7439 0.6453
C17_2 C 0.75456(11) 0.77476(11) 0.68586(5)
H17_2 H 0.7701 0.7330 0.6916
C18_2 C 0.63597(14) 0.90860(13) 0.60211(7)
C19_2 C 0.58002(14) 0.94121(14) 0.62248(8)
H18_2 H 0.5969 0.9526 0.6435
H19_2 H 0.5439 0.9106 0.6248
H20_2 H 0.5647 0.9805 0.6117
C20_2 C 0.60859(16) 0.89017(17) 0.56805(7)
H21_2 H 0.6431 0.8700 0.5554
H22_2 H 0.5933 0.9295 0.5573
H23_2 H 0.5724 0.8596 0.5704
C21_2 C 0.69690(13) 0.95457(14) 0.59803(8)
H24_2 H 0.7140 0.9661 0.6190
H25_2 H 0.6839 0.9941 0.5867
H26_2 H 0.7305 0.9320 0.5858
C22_2 C 0.77303(10) 0.76943(11) 0.76074(5)
C23_2 C 0.71062(10) 0.74466(12) 0.75509(6)
H27_2 H 0.6898 0.7538 0.7355
C24_2 C 0.67800(11) 0.70621(13) 0.77807(6)
H28_2 H 0.6357 0.6904 0.7736
C25_2 C 0.70725(12) 0.69112(11) 0.80737(6)
C26_2 C 0.77094(11) 0.71450(10) 0.81316(6)
H29_2 H 0.7925 0.7037 0.8324
C27_2 C 0.80110(11) 0.75234(11) 0.79120(6)
H30_2 H 0.8431 0.7686 0.7961
C28_2 C 0.60047(13) 0.63104(14) 0.83077(8)
C29_2 C 0.58723(15) 0.60386(16) 0.86594(7)
H31_2 H 0.5419 0.5897 0.8677
H32_2 H 0.5956 0.6383 0.8815
H33_2 H 0.6161 0.5670 0.8701
C30_2 C 0.58836(15) 0.57900(15) 0.80459(8)
H34_2 H 0.5971 0.5979 0.7837
H35_2 H 0.5431 0.5644 0.8056
H36_2 H 0.6173 0.5419 0.8081
C31_2 C 0.55817(16) 0.69459(16) 0.82574(10)
H37_2 H 0.5657 0.7118 0.8043
H38_2 H 0.5706 0.7273 0.8415
H39_2 H 0.5121 0.6840 0.8282
C32_2 C 0.82806(10) 0.87664(10) 0.75656(5)
C33_2 C 0.77750(11) 0.91892(11) 0.76691(5)
H40_2 H 0.7339 0.9092 0.7613
C34_2 C 0.79032(11) 0.97477(11) 0.78519(5)
C35_2 C 0.85592(12) 0.98869(11) 0.79525(5)
C36_2 C 0.90562(11) 0.94455(11) 0.78588(6)
H42_2 H 0.9489 0.9517 0.7929
C37_2 C 0.89217(11) 0.89089(10) 0.76659(5)
H43_2 H 0.9267 0.8634 0.7601
H46_2 H 0.9786 0.9910 0.8374
C47_2 C 0.85101(19) 0.63559(18) 0.62332(11)
C48_2 C 0.89767(14) 0.68965(14) 0.61646(8)
C49_2 C 0.87733(15) 0.75141(15) 0.60712(9)
H54_2 H 0.8324 0.7575 0.6030
C50_2 C 0.91673(14) 0.80294(14) 0.60353(7)
C51_2 C 0.88307(15) 0.86886(18) 0.59570(13)
C52_2 C 0.6076(2) 0.59181(19) 0.69210(9)
C53_2 C 0.58627(15) 0.66027(14) 0.68015(8)
C54_2 C 0.55992(15) 0.70673(14) 0.70153(7)
H55_2 H 0.5560 0.6964 0.7234
C55_2 C 0.54008(15) 0.76646(15) 0.69067(8)
C56_2 C 0.5203(2) 0.8102(2) 0.71476(12)
C57_2 C 0.3547(2) 0.64539(19) 0.62984(11)
C58_2 C 0.40362(15) 0.69292(13) 0.62095(8)
C59_2 C 0.37982(15) 0.74845(14) 0.61097(9)
H56_2 H 0.3341 0.7543 0.6113
C60_2 C 0.41896(14) 0.79980(14) 0.59982(7)
C61_2 C 0.3751(2) 0.86449(19) 0.59251(13)
F2 F 0.97701(14) 0.7196(2) 0.49794(6)
F7_2 F 0.85864(14) 0.61352(13) 0.65412(8)
F8_2 F 0.78961(12) 0.64956(12) 0.61837(11)
F9_2 F 0.85769(13) 0.58401(10) 0.60543(7)
F10_2 F 0.85827(14) 0.89868(11) 0.62225(8)
F11_2 F 0.91909(12) 0.91150(11) 0.58530(9)
F12_2 F 0.82923(12) 0.86142(13) 0.57901(8)
F13_2 F 0.5753(2) 0.54760(12) 0.68232(8)
F14_2 F 0.66134(18) 0.56918(18) 0.67919(10)
F15_2 F 0.6087(2) 0.58542(12) 0.72139(6)
F16_2 F 0.5619(2) 0.85750(16) 0.72175(9)
F17_2 F 0.51211(18) 0.79234(16) 0.74564(6)
F18_2 F 0.47562(16) 0.85147(18) 0.71086(7)
F19_2 F 0.35406(15) 0.59335(13) 0.60862(9)
F20_2 F 0.36473(14) 0.61303(14) 0.65580(7)
F21_2 F 0.29327(11) 0.65723(13) 0.63052(9)
F22_2 F 0.40175(17) 0.91558(11) 0.59851(8)
F23_2 F 0.41987(19) 0.88042(14) 0.55789(10)
F24_2 F 0.33666(13) 0.85492(14) 0.56883(10)
O14_2 O 0.57408(8) 0.68424(8) 0.57710(4)
Mn3_2 Mn 0.77277(2) 0.54727(2) 0.858270(10)
O1_3 O 0.23070(8) 0.42763(8) 0.40780(4)
O2_3 O 0.29040(8) 0.86375(8) 0.35823(4)
O5_3 O 0.22673(10) 0.46415(10) 0.30690(4)
O6_3 O 0.13513(9) 0.40454(10) 0.34898(4)
O7_3 O 0.17236(9) 0.54173(10) 0.36978(5)
O8_3 O 0.30694(8) 0.52318(8) 0.35631(5)
O9_3 O 0.16543(9) 0.90526(10) 0.40060(4)
O10_3 O 0.29011(9) 0.96042(10) 0.41338(4)
N1_3 N 0.19672(10) 0.45272(10) 0.43166(5)
N2_3 N 0.34570(9) 0.84386(10) 0.37052(5)
N3_3 N 0.15216(10) 0.82497(10) 0.58109(5)
N4_3 N 0.54683(10) 0.63234(9) 0.56472(5)
C1_3 C 0.31381(10) 0.68914(11) 0.48633(5)
C2_3 C 0.28071(10) 0.62536(10) 0.47346(5)
C3_3 C 0.21534(11) 0.60595(12) 0.48008(6)
H1_3 H 0.1905 0.6313 0.4945
C4_3 C 0.18723(11) 0.55265(12) 0.46661(6)
H2_3 H 0.1430 0.5429 0.4707
C5_3 C 0.22429(12) 0.51187(11) 0.44645(5)
C6_3 C 0.28823(11) 0.52844(11) 0.43912(5)
H3_3 H 0.3129 0.5015 0.4254
C7_3 C 0.31612(11) 0.58415(12) 0.45182(6)
H4_3 H 0.3593 0.5953 0.4462
C8_3 C 0.13512(14) 0.41716(13) 0.44307(7)
C9_3 C 0.07539(14) 0.45590(19) 0.43277(10)
H5_3 H 0.0765 0.4990 0.4427
H6_3 H 0.0360 0.4329 0.4394
H7_3 H 0.0754 0.4606 0.4096
C10_3 C 0.13958(17) 0.34486(15) 0.42840(8)
H8_3 H 0.1381 0.3473 0.4052
H9_3 H 0.1029 0.3189 0.4361
H10_3 H 0.1804 0.3245 0.4351
C11_3 C 0.1379(2) 0.40726(17) 0.48070(8)
H11_3 H 0.1353 0.4496 0.4912
H12_3 H 0.1787 0.3859 0.4865
H13_3 H 0.1012 0.3802 0.4875
C12_3 C 0.32802(10) 0.73067(11) 0.45588(5)
C13_3 C 0.38783(11) 0.75339(12) 0.44562(6)
H14_3 H 0.4253 0.7429 0.4577
C14_3 C 0.39525(11) 0.79080(11) 0.41841(6)
H15_3 H 0.4370 0.8071 0.4131
C15_3 C 0.34233(11) 0.80487(11) 0.39866(5)
C16_3 C 0.28099(11) 0.78207(12) 0.40790(6)
H16_3 H 0.2439 0.7914 0.3953
C17_3 C 0.27476(11) 0.74544(11) 0.43586(5)
H17_3 H 0.2330 0.7299 0.4416
C18_3 C 0.40860(13) 0.86403(14) 0.35211(7)
C19_3 C 0.44121(14) 0.91998(14) 0.37248(8)
H18_3 H 0.4526 0.9031 0.3935
H19_3 H 0.4106 0.9561 0.3748
H20_3 H 0.4805 0.9353 0.3617
C20_3 C 0.39017(17) 0.89141(16) 0.31805(7)
H21_3 H 0.3700 0.8569 0.3054
H22_3 H 0.4295 0.9067 0.3073
H23_3 H 0.3596 0.9276 0.3204
C21_3 C 0.45457(14) 0.80310(13) 0.34803(8)
H24_3 H 0.4661 0.7860 0.3690
H25_3 H 0.4941 0.8161 0.3367
H26_3 H 0.4320 0.7695 0.3358
C22_3 C 0.26943(11) 0.72697(10) 0.51074(5)
C23_3 C 0.24466(12) 0.78938(10) 0.50509(6)
H27_3 H 0.2538 0.8102 0.4855
C24_3 C 0.20621(13) 0.82200(11) 0.52807(6)
H28_3 H 0.1904 0.8643 0.5236
C25_3 C 0.19112(11) 0.79275(12) 0.55737(6)
C26_3 C 0.21450(10) 0.72906(11) 0.56316(6)
H29_3 H 0.2037 0.7075 0.5824
C27_3 C 0.25234(11) 0.69890(11) 0.54120(6)
H30_3 H 0.2686 0.6569 0.5461
C28_3 C 0.13104(14) 0.89953(13) 0.58077(8)
C29_3 C 0.10386(16) 0.91277(15) 0.61594(7)
H31_3 H 0.0897 0.9581 0.6177
H32_3 H 0.1383 0.9044 0.6315
H33_3 H 0.0670 0.8839 0.6201
C30_3 C 0.07900(15) 0.91164(15) 0.55459(8)
H34_3 H 0.0979 0.9029 0.5337
H35_3 H 0.0644 0.9569 0.5556
H36_3 H 0.0419 0.8827 0.5581
C31_3 C 0.19459(16) 0.94183(16) 0.57574(10)
H37_3 H 0.2118 0.9343 0.5543
H38_3 H 0.2273 0.9294 0.5915
H39_3 H 0.1840 0.9879 0.5782
C32_3 C 0.37664(10) 0.67194(10) 0.50656(5)
C33_3 C 0.41892(11) 0.72250(11) 0.51691(5)
H40_3 H 0.4092 0.7661 0.5113
C34_3 C 0.47477(11) 0.70968(11) 0.53519(5)
H41_3 H 0.5032 0.7441 0.5409
C35_3 C 0.48869(11) 0.64408(12) 0.54525(5)
C36_3 C 0.44455(11) 0.59438(11) 0.53588(6)
H42_3 H 0.4517 0.5511 0.5429
C37_3 C 0.39089(10) 0.60783(11) 0.51659(5)
H43_3 H 0.3634 0.5733 0.5101
C38_3 C 0.57788(13) 0.56510(12) 0.57287(6)
C39_3 C 0.53392(15) 0.52831(14) 0.59687(7)
H44_3 H 0.5295 0.5541 0.6163
H45 H 0.5536 0.4862 0.6020
H46_3 H 0.4910 0.5214 0.5874
C40_3 C 0.58712(16) 0.52664(14) 0.54111(7)
H47 H 0.6066 0.4842 0.5457
H48_3 H 0.6158 0.5512 0.5269
H49_3 H 0.5448 0.5205 0.5309
C41_3 C 0.64422(14) 0.57676(15) 0.58723(7)
H50_3 H 0.6395 0.6008 0.6072
H51_3 H 0.6708 0.6020 0.5724
H52_3 H 0.6653 0.5350 0.5914
C42_3 C 0.1909(2) 0.4721(2) 0.25223(9)
C43_3 C 0.17905(16) 0.45418(15) 0.28732(8)
C44_3 C 0.11683(16) 0.42921(16) 0.29355(8)
H53_3 H 0.0855 0.4282 0.2770
C45_3 C 0.10055(15) 0.40604(15) 0.32347(8)
C46_3 C 0.03310(16) 0.3630(2) 0.33502(13)
C47_3 C 0.13559(18) 0.64899(19) 0.37332(11)
C48_3 C 0.18965(14) 0.60233(14) 0.36646(8)
C49_3 C 0.25141(15) 0.62267(15) 0.35712(9)
H54_3 H 0.2575 0.6676 0.3530
C50_3 C 0.30294(14) 0.58327(14) 0.35353(7)
C51_3 C 0.36886(18) 0.61693(15) 0.34570(13)
C52_3 C 0.09181(19) 0.8924(2) 0.44210(9)
C53_3 C 0.16027(14) 0.91373(15) 0.43015(8)
C54_3 C 0.20673(14) 0.94008(15) 0.45153(7)
H55_3 H 0.1964 0.9440 0.4734
C55_3 C 0.26646(15) 0.95992(15) 0.44067(8)
C56_3 C 0.3102(2) 0.9797(2) 0.46476(12)
F1_2 F 0.22753(19) 0.4259(2) 0.23907(6)
F2_2 F 0.2196(2) 0.52299(14) 0.24794(6)
F3_2 F 0.14192(17) 0.47026(16) 0.23306(6)
F4_3 F 0.04098(16) 0.3048(2) 0.33251(15)
F5_3 F 0.00019(12) 0.3975(3) 0.34690(9)
F7_3 F 0.11352(13) 0.64136(14) 0.40412(8)
F8_3 F 0.14956(12) 0.71039(12) 0.36837(11)
F9_3 F 0.08401(10) 0.64231(13) 0.35543(7)
F10_3 F 0.39868(11) 0.64173(14) 0.37225(8)
F11_3 F 0.41150(11) 0.58091(12) 0.33530(9)
F12_3 F 0.36142(13) 0.67077(12) 0.32901(8)
F13_3 F 0.04760(12) 0.9247(2) 0.43232(8)
F14_3 F 0.06918(18) 0.83866(18) 0.42919(10)
F15_3 F 0.08542(12) 0.8913(2) 0.47139(6)
F16_3 F 0.35750(16) 0.9381(2) 0.47175(9)
F17_3 F 0.29234(16) 0.98789(18) 0.49564(6)
N3_4 N 0.84784(10) 0.17503(10) 0.08109(5)
N4_4 N 0.45317(10) 0.36766(9) 0.06472(5)
C22_4 C 0.73057(11) 0.27303(10) 0.01074(5)
C23_4 C 0.75534(12) 0.21062(10) 0.00509(6)
C24_4 C 0.79379(13) 0.17800(11) 0.02807(6)
H28_4 H 0.8096 0.1357 0.0236
C25_4 C 0.80888(11) 0.20725(12) 0.05737(6)
C26_4 C 0.78550(10) 0.27094(11) 0.06316(6)
H29_4 H 0.7963 0.2925 0.0824
C27_4 C 0.74766(11) 0.30110(11) 0.04120(6)
H30_4 H 0.7314 0.3431 0.0461
C28_4 C 0.86896(14) 0.10047(13) 0.08077(8)
C29_4 C 0.89614(16) 0.08723(15) 0.11594(7)
H31_4 H 0.9103 0.0419 0.1177
H32_4 H 0.8617 0.0956 0.1315
H33_4 H 0.9330 0.1161 0.1201
C30_4 C 0.92100(15) 0.08836(15) 0.05459(8)
H34_4 H 0.9021 0.0971 0.0337
H35_4 H 0.9356 0.0431 0.0556
H36_4 H 0.9581 0.1173 0.0581
C31_4 C 0.80541(16) 0.05817(16) 0.07574(10)
H37_4 H 0.7882 0.0657 0.0543
H38_4 H 0.7727 0.0706 0.0915
H39_4 H 0.8160 0.0121 0.0782
C32_4 C 0.62336(10) 0.32806(10) 0.00656(5)
C33_4 C 0.58108(11) 0.27750(11) 0.01691(5)
H40_4 H 0.5908 0.2339 0.0113
C34_4 C 0.52523(11) 0.29032(11) 0.03519(5)
H41_4 H 0.4968 0.2559 0.0409
C35_4 C 0.51131(11) 0.35592(12) 0.04525(5)
C36_4 C 0.55545(11) 0.40562(11) 0.03588(6)
H42_4 H 0.5483 0.4489 0.0429
C37_4 C 0.60911(10) 0.39217(11) 0.01659(5)
H43_4 H 0.6366 0.4267 0.0101
C38_4 C 0.42212(13) 0.43490(12) 0.07287(6)
C39_4 C 0.46608(15) 0.47169(14) 0.09687(7)
H44_4 H 0.4705 0.4459 0.1163
H45_2 H 0.4464 0.5138 0.1020
H46_4 H 0.5090 0.4786 0.0874
C40_4 C 0.41288(16) 0.47336(14) 0.04111(7)
H47_2 H 0.3934 0.5158 0.0457
H48_4 H 0.3842 0.4488 0.0269
H49_4 H 0.4552 0.4795 0.0309
C41_4 C 0.35578(14) 0.42324(15) 0.08723(7)
H50_4 H 0.3605 0.3992 0.1072
H51_4 H 0.3292 0.3980 0.0724
H52_4 H 0.3347 0.4650 0.0914
O1_4 O 0.76930(8) 0.57237(8) 0.90780(4)
O2_4 O 0.70960(8) 0.13625(8) 0.85823(4)
O5_4 O 0.77327(10) 0.53585(10) 0.80690(4)
O6_4 O 0.86487(9) 0.59546(10) 0.84898(4)
O7_4 O 0.82764(9) 0.45827(10) 0.86978(5)
O8_4 O 0.69306(8) 0.47682(8) 0.85631(5)
O9_4 O 0.83457(9) 0.09474(10) 0.90060(4)
O10_4 O 0.70989(9) 0.03958(10) 0.91338(4)
N1_4 N 0.80328(10) 0.54728(10) 0.93166(5)
N2_4 N 0.65430(9) 0.15614(10) 0.87052(5)
C1_4 C 0.68619(10) 0.31086(11) 0.98633(5)
C2_4 C 0.71929(10) 0.37464(10) 0.97346(5)
C3_4 C 0.78466(11) 0.39405(12) 0.98008(6)
H1_4 H 0.8095 0.3687 0.9945
C4_4 C 0.81277(11) 0.44735(12) 0.96661(6)
H2_4 H 0.8570 0.4571 0.9707
C5_4 C 0.77571(12) 0.48813(11) 0.94645(5)
C6_4 C 0.71177(11) 0.47156(11) 0.93912(5)
H3_4 H 0.6871 0.4985 0.9254
C7_4 C 0.68388(11) 0.41585(12) 0.95182(6)
H4_4 H 0.6407 0.4047 0.9462
C8_4 C 0.86488(14) 0.58284(13) 0.94307(7)
C9_4 C 0.92461(14) 0.54410(19) 0.93277(10)
H5_4 H 0.9235 0.5010 0.9427
H6_4 H 0.9640 0.5671 0.9394
H7_4 H 0.9246 0.5394 0.9096
C10_4 C 0.86042(17) 0.65514(15) 0.92840(8)
H8_4 H 0.8619 0.6527 0.9052
H9_4 H 0.8971 0.6811 0.9361
H10_4 H 0.8196 0.6755 0.9351
C11_4 C 0.8621(2) 0.59274(17) 0.98070(8)
H11_4 H 0.8647 0.5504 0.9912
H12_4 H 0.8213 0.6141 0.9865
H13_4 H 0.8988 0.6198 0.9875
C12_4 C 0.67198(10) 0.26933(11) 0.95588(5)
C13_4 C 0.61217(11) 0.24661(12) 0.94562(6)
H14_4 H 0.5747 0.2571 0.9577
C14_4 C 0.60475(11) 0.20920(11) 0.91841(6)
H15_4 H 0.5630 0.1929 0.9131
C15_4 C 0.65767(11) 0.19513(11) 0.89866(5)
C16_4 C 0.71901(11) 0.21793(12) 0.90790(6)
H16_4 H 0.7561 0.2086 0.8953
C17_4 C 0.72524(11) 0.25456(11) 0.93586(5)
H17_4 H 0.7670 0.2701 0.9416
C18_4 C 0.59140(13) 0.13597(14) 0.85211(7)
C19_4 C 0.55879(14) 0.08002(14) 0.87248(8)
H18_4 H 0.5474 0.0969 0.8935
H19_4 H 0.5894 0.0439 0.8748
H20_4 H 0.5195 0.0647 0.8617
C20_4 C 0.60983(17) 0.10859(16) 0.81805(7)
H21_4 H 0.6300 0.1431 0.8054
H22_4 H 0.5705 0.0933 0.8073
H23_4 H 0.6404 0.0724 0.8204
C21_4 C 0.54543(14) 0.19690(13) 0.84803(8)
H24_4 H 0.5339 0.2140 0.8690
H25_4 H 0.5059 0.1839 0.8367
H26_4 H 0.5680 0.2305 0.8358
H27_4 H 0.7462 0.1898 0.9855
C42_4 C 0.8091(2) 0.5279(2) 0.75223(9)
C43_4 C 0.82095(16) 0.54582(15) 0.78732(8)
C44_4 C 0.88317(16) 0.57079(16) 0.79355(8)
H53_4 H 0.9145 0.5718 0.7770
C45_4 C 0.89945(15) 0.59396(15) 0.82347(8)
C46_4 C 0.96690(16) 0.6370(2) 0.83502(13)
C47_4 C 0.86441(18) 0.35101(19) 0.87332(11)
C48_4 C 0.81035(14) 0.39767(14) 0.86646(8)
C49_4 C 0.74859(15) 0.37733(15) 0.85712(9)
H54_4 H 0.7425 0.3324 0.8530
C50_4 C 0.69706(14) 0.41673(14) 0.85353(7)
C51_4 C 0.63114(18) 0.38307(15) 0.84570(13)
C52_4 C 0.90819(19) 0.1076(2) 0.94210(9)
C53_4 C 0.83973(14) 0.08627(15) 0.93015(8)
C54_4 C 0.79327(14) 0.05992(15) 0.95153(7)
H55_4 H 0.8036 0.0560 0.9734
C55_4 C 0.73354(15) 0.04008(15) 0.94067(8)
C56_4 C 0.6898(2) 0.0203(2) 0.96476(12)
F1_3 F 0.77247(19) 0.5741(2) 0.73907(6)
F2_3 F 0.7804(2) 0.47701(14) 0.74794(6)
F3_3 F 0.85808(17) 0.52974(16) 0.73306(6)
F4_4 F 0.95902(16) 0.6952(2) 0.83251(15)
F5_4 F 0.99981(12) 0.6025(3) 0.84690(9)
F7_4 F 0.88648(13) 0.35864(14) 0.90412(8)
F8_4 F 0.85044(12) 0.28961(12) 0.86837(11)
F9_4 F 0.91599(10) 0.35769(13) 0.85543(7)
F10_4 F 0.60132(11) 0.35827(14) 0.87225(8)
F11_4 F 0.58850(11) 0.41909(12) 0.83530(9)
F12_4 F 0.63858(13) 0.32923(12) 0.82901(8)
F13_4 F 0.95240(12) 0.0753(2) 0.93232(8)
F14_4 F 0.93082(18) 0.16134(18) 0.92919(10)
F15_4 F 0.91458(12) 0.1087(2) 0.97139(6)
F16_4 F 0.64250(16) 0.0619(2) 0.97175(9)
F17_4 F 0.70766(16) 0.01211(18) 0.99564(6)
F2_4 F 0.02299(14) 0.2804(2) 0.99794(6)
F1_4 F 0.9259(2) 0.27247(19) 0.98907(6)
F3_4 F 0.97026(16) 0.35808(17) 0.98306(6)
H45_3 H 0.9862 0.9464 0.3520
H47_3 H 0.9842 0.8934 0.2957
H45_4 H 0.0138 0.0536 0.8520
H47_4 H 0.0158 0.1066 0.7957
O11_3 O 0.17661(9) 0.03647(10) 0.37558(5)
O12_3 O 0.30403(9) 0.01877(9) 0.34984(5)
C57_3 C 0.14539(19) 0.1453(2) 0.37984(11)
C58_3 C 0.19292(13) 0.09638(15) 0.37095(8)
C59_3 C 0.24845(14) 0.12018(15) 0.36097(9)
H56_3 H 0.2543 0.1659 0.3613
C60_3 C 0.29980(14) 0.08104(14) 0.34982(7)
C61_3 C 0.36449(19) 0.1249(2) 0.34251(13)
F18_3 F 0.35147(18) 0.02438(16) 0.46086(7)
F19_3 F 0.09335(13) 0.14594(15) 0.35862(9)
F20_3 F 0.11303(14) 0.13527(14) 0.40580(7)
F21_3 F 0.15723(13) 0.20673(11) 0.38052(9)
F22_3 F 0.41558(11) 0.09825(17) 0.34851(8)
F23_3 F 0.38042(14) 0.08013(19) 0.30789(10)
F24_3 F 0.35492(14) 0.16334(13) 0.31883(10)
F6_3 F 0.99790(12) 0.3697(2) 0.30467(8)
F6_4 F 0.00210(12) 0.6303(2) 0.80467(8)
O11_4 O 0.82339(9) 0.96353(10) 0.87558(5)
O12_4 O 0.69597(9) 0.98123(9) 0.84984(5)
C57_4 C 0.85461(19) 0.8547(2) 0.87984(11)
C58_4 C 0.80708(13) 0.90362(15) 0.87095(8)
C59_4 C 0.75155(14) 0.87982(15) 0.86097(9)
H56_4 H 0.7457 0.8341 0.8613
C60_4 C 0.70020(14) 0.91896(14) 0.84982(7)
C61_4 C 0.63551(19) 0.8751(2) 0.84251(13)
F18_4 F 0.64853(18) 0.97562(16) 0.96086(7)
F19_4 F 0.90665(13) 0.85406(15) 0.85862(9)
F20_4 F 0.88697(14) 0.86473(14) 0.90580(7)
F21_4 F 0.84277(13) 0.79327(11) 0.88052(9)
F22_4 F 0.58442(11) 0.90175(17) 0.84851(8)
F23_4 F 0.61958(14) 0.91987(19) 0.80789(10)
F24_4 F 0.64508(14) 0.83666(13) 0.81883(10)
F6_5 F 0.6303(2) 0.00210(12) 0.19533(8)
Mn1_3 Mn 0.54727(2) 0.77277(2) 0.141730(10)
Mn2_3 Mn 0.05080(2) 0.763998(19) 0.130272(10)
O1_5 O 0.57237(8) 0.76930(8) 0.09220(4)
O2_5 O 0.13625(8) 0.70960(8) 0.14177(4)
O5_5 O 0.53585(10) 0.77327(10) 0.19310(4)
O6_5 O 0.59546(10) 0.86487(9) 0.15102(4)
O7_5 O 0.45827(10) 0.82764(9) 0.13022(5)
O8_5 O 0.47682(8) 0.69306(8) 0.14369(5)
O9_5 O 0.09474(10) 0.83457(9) 0.09940(4)
O10_5 O 0.03958(10) 0.70989(9) 0.08662(4)
N1_5 N 0.54728(10) 0.80328(10) 0.06834(5)
N2_5 N 0.15614(10) 0.65430(9) 0.12948(5)
C1_5 C 0.31086(11) 0.68619(10) 0.01367(5)
C2_5 C 0.37464(10) 0.71929(10) 0.02654(5)
C3_5 C 0.39405(12) 0.78466(11) 0.01992(6)
H1_5 H 0.3687 0.8095 0.0055
C4_5 C 0.44735(12) 0.81277(11) 0.03339(6)
H2_5 H 0.4571 0.8570 0.0293
C5_5 C 0.48813(11) 0.77571(12) 0.05355(5)
C6_5 C 0.47156(11) 0.71177(11) 0.06088(5)
H3_5 H 0.4985 0.6871 0.0746
C7_5 C 0.41585(12) 0.68388(11) 0.04818(6)
H4_5 H 0.4047 0.6407 0.0538
C8_5 C 0.58284(13) 0.86488(14) 0.05693(7)
C9_5 C 0.54410(19) 0.92461(14) 0.06723(10)
H5_5 H 0.5010 0.9235 0.0573
H6_5 H 0.5671 0.9640 0.0606
H7_5 H 0.5394 0.9246 0.0904
C10_5 C 0.65514(15) 0.86042(17) 0.07160(8)
H8_5 H 0.6527 0.8619 0.0948
H9_5 H 0.6811 0.8971 0.0639
H10_5 H 0.6755 0.8196 0.0649
C11_5 C 0.59274(17) 0.8621(2) 0.01930(8)
H11_5 H 0.5504 0.8647 0.0088
H12_5 H 0.6141 0.8213 0.0135
H13_5 H 0.6198 0.8988 0.0125
C12_5 C 0.26933(11) 0.67198(10) 0.04412(5)
C13_5 C 0.24661(12) 0.61217(11) 0.05438(6)
H14_5 H 0.2571 0.5747 0.0423
C14_5 C 0.20920(11) 0.60475(11) 0.08159(6)
H15_5 H 0.1929 0.5630 0.0869
C15_5 C 0.19513(11) 0.65767(11) 0.10134(5)
C16_5 C 0.21793(12) 0.71901(11) 0.09210(6)
H16_5 H 0.2086 0.7561 0.1047
C17_5 C 0.25456(11) 0.72524(11) 0.06414(5)
H17_5 H 0.2701 0.7670 0.0584
C18_5 C 0.13597(14) 0.59140(13) 0.14789(7)
C19_5 C 0.08002(14) 0.55879(14) 0.12752(8)
H18_5 H 0.0969 0.5474 0.1065
H19_5 H 0.0439 0.5894 0.1252
H20_5 H 0.0647 0.5195 0.1383
C20_5 C 0.10859(16) 0.60983(17) 0.18195(7)
H21_5 H 0.1431 0.6300 0.1946
H22_5 H 0.0933 0.5705 0.1927
H23_5 H 0.0724 0.6404 0.1796
C21_5 C 0.19690(13) 0.54543(14) 0.15197(8)
H24_5 H 0.2140 0.5339 0.1310
H25_5 H 0.1839 0.5059 0.1633
H26_5 H 0.2305 0.5680 0.1642
H27_5 H 0.1898 0.7462 0.0145
C42_5 C 0.5279(2) 0.8091(2) 0.24777(9)
C43_5 C 0.54582(15) 0.82095(16) 0.21268(8)
C44_5 C 0.57079(16) 0.88317(16) 0.20645(8)
H53_5 H 0.5718 0.9145 0.2230
C45_5 C 0.59396(15) 0.89945(15) 0.17653(8)
C46_5 C 0.6370(2) 0.96690(16) 0.16498(13)
C47_5 C 0.35101(19) 0.86441(18) 0.12668(11)
C48_5 C 0.39767(14) 0.81035(14) 0.13354(8)
C49_5 C 0.37733(15) 0.74859(15) 0.14288(9)
H54_5 H 0.3324 0.7425 0.1470
C50_5 C 0.41673(14) 0.69706(14) 0.14647(7)
C51_5 C 0.38307(15) 0.63114(18) 0.15430(13)
C52_5 C 0.1076(2) 0.90819(19) 0.05790(9)
C53_5 C 0.08627(15) 0.83973(14) 0.06985(8)
C54_5 C 0.05992(15) 0.79327(14) 0.04847(7)
H55_5 H 0.0560 0.8036 0.0266
C55_5 C 0.04008(15) 0.73354(15) 0.05933(8)
C56_5 C 0.0203(2) 0.6898(2) 0.03524(12)
F1_5 F 0.5741(2) 0.77247(19) 0.26093(6)
F2_5 F 0.47701(14) 0.7804(2) 0.25206(6)
F3_5 F 0.52974(16) 0.85808(17) 0.26694(6)
F4_5 F 0.6952(2) 0.95902(16) 0.16749(15)
F5_5 F 0.6025(3) 0.99981(12) 0.15310(9)
F7_5 F 0.35864(14) 0.88648(13) 0.09588(8)
F8_5 F 0.28961(12) 0.85044(12) 0.13163(11)
F9_5 F 0.35769(13) 0.91599(10) 0.14457(7)
F10_5 F 0.35827(14) 0.60132(11) 0.12775(8)
F11_5 F 0.41909(12) 0.58850(11) 0.16470(9)
F12_5 F 0.32923(12) 0.63858(13) 0.17099(8)
F13_5 F 0.0753(2) 0.95240(12) 0.06768(8)
F14_5 F 0.16134(18) 0.93082(18) 0.07081(10)
F15_5 F 0.1087(2) 0.91458(12) 0.02861(6)
F16_5 F 0.0619(2) 0.64250(16) 0.02825(9)
F17_5 F 0.01211(18) 0.70766(16) 0.00436(6)
O13_3 O 0.63109(8) 0.71185(8) 0.14544(4)
O14_3 O 0.07408(8) 0.81576(8) 0.17290(4)
O3_3 O 0.21185(8) 0.86891(8) 0.89544(4)
O4_3 O 0.31576(8) 0.42592(8) 0.92290(4)
N3_5 N 0.17503(10) 0.84784(10) 0.91891(5)
N4_5 N 0.36766(9) 0.45317(10) 0.93528(5)
C22_5 C 0.27303(10) 0.73057(11) 0.98926(5)
C23_5 C 0.21062(10) 0.75534(12) 0.99491(6)
C24_5 C 0.17800(11) 0.79379(13) 0.97193(6)
H28_5 H 0.1357 0.8096 0.9764
C25_5 C 0.20725(12) 0.80888(11) 0.94263(6)
C26_5 C 0.27094(11) 0.78550(10) 0.93684(6)
H29_5 H 0.2925 0.7963 0.9176
C27_5 C 0.30110(11) 0.74766(11) 0.95880(6)
H30_5 H 0.3431 0.7314 0.9539
C28_5 C 0.10047(13) 0.86896(14) 0.91923(8)
C29_5 C 0.08723(15) 0.89614(16) 0.88406(7)
H31_5 H 0.0419 0.9103 0.8823
H32_5 H 0.0956 0.8617 0.8685
H33_5 H 0.1161 0.9330 0.8799
C30_5 C 0.08836(15) 0.92100(15) 0.94541(8)
H34_5 H 0.0971 0.9021 0.9663
H35_5 H 0.0431 0.9356 0.9444
H36_5 H 0.1173 0.9581 0.9419
C31_5 C 0.05817(16) 0.80541(16) 0.92426(10)
H37_5 H 0.0657 0.7882 0.9457
H38_5 H 0.0706 0.7727 0.9085
H39_5 H 0.0121 0.8160 0.9218
C32_5 C 0.32806(10) 0.62336(10) 0.99344(5)
C33_5 C 0.27750(11) 0.58108(11) 0.98309(5)
H40_5 H 0.2339 0.5908 0.9887
C34_5 C 0.29032(11) 0.52523(11) 0.96481(5)
H41_5 H 0.2559 0.4968 0.9591
C35_5 C 0.35592(12) 0.51131(11) 0.95475(5)
C36_5 C 0.40562(11) 0.55545(11) 0.96412(6)
H42_5 H 0.4489 0.5483 0.9571
C37_5 C 0.39217(11) 0.60911(10) 0.98341(5)
H43_5 H 0.4267 0.6366 0.9899
C38_5 C 0.43490(12) 0.42212(13) 0.92713(6)
C39_5 C 0.47169(14) 0.46608(15) 0.90313(7)
H44_5 H 0.4459 0.4705 0.8837
H45_5 H 0.5138 0.4464 0.8980
H46_5 H 0.4786 0.5090 0.9126
C40_5 C 0.47336(14) 0.41288(16) 0.95889(7)
H47_5 H 0.5158 0.3934 0.9543
H48_5 H 0.4488 0.3842 0.9731
H49_5 H 0.4795 0.4552 0.9691
C41_5 C 0.42324(15) 0.35578(14) 0.91277(7)
H50_5 H 0.3992 0.3605 0.8928
H51_5 H 0.3980 0.3292 0.9276
H52_5 H 0.4650 0.3347 0.9086
Mn3_3 Mn 0.27277(2) 0.95273(2) 0.891730(10)
Mn4_3 Mn 0.263998(19) 0.44920(2) 0.880272(10)
Mn1_4 Mn 0.45273(2) 0.22723(2) 0.641730(10)
Mn2_4 Mn 0.94920(2) 0.236002(19) 0.630272(10)
O1_6 O 0.42763(8) 0.23070(8) 0.59220(4)
O2_6 O 0.86375(8) 0.29040(8) 0.64177(4)
O3_4 O 0.78815(8) 0.13109(8) 0.39544(4)
O4_4 O 0.68424(8) 0.57408(8) 0.42290(4)
O5_6 O 0.46415(10) 0.22673(10) 0.69310(4)
O6_6 O 0.40454(10) 0.13513(9) 0.65102(4)
O7_6 O 0.54173(10) 0.17236(9) 0.63022(5)
O8_6 O 0.52318(8) 0.30694(8) 0.64369(5)
O9_6 O 0.90526(10) 0.16543(9) 0.59940(4)
O10_6 O 0.96042(10) 0.29011(9) 0.58662(4)
N1_6 N 0.45272(10) 0.19672(10) 0.56834(5)
N2_6 N 0.84386(10) 0.34570(9) 0.62948(5)
N3_6 N 0.82497(10) 0.15216(10) 0.41891(5)
N4_6 N 0.63234(9) 0.54683(10) 0.43528(5)
C1_6 C 0.68914(11) 0.31381(10) 0.51367(5)
C2_6 C 0.62536(10) 0.28071(10) 0.52654(5)
C3_6 C 0.60595(12) 0.21534(11) 0.51992(6)
H1_6 H 0.6313 0.1905 0.5055
C4_6 C 0.55265(12) 0.18723(11) 0.53339(6)
H2_6 H 0.5429 0.1430 0.5293
C5_6 C 0.51187(11) 0.22429(12) 0.55355(5)
C6_6 C 0.52844(11) 0.28823(11) 0.56088(5)
H3_6 H 0.5015 0.3129 0.5746
C7_6 C 0.58415(12) 0.31612(11) 0.54818(6)
H4_6 H 0.5953 0.3593 0.5538
C8_6 C 0.41716(13) 0.13512(14) 0.55693(7)
C9_6 C 0.45590(19) 0.07539(14) 0.56723(10)
H5_6 H 0.4990 0.0765 0.5573
H6_6 H 0.4329 0.0360 0.5606
H7_6 H 0.4606 0.0754 0.5904
C10_6 C 0.34486(15) 0.13958(17) 0.57160(8)
H8_6 H 0.3473 0.1381 0.5948
H9_6 H 0.3189 0.1029 0.5639
H10_6 H 0.3245 0.1804 0.5649
C11_6 C 0.40726(17) 0.1379(2) 0.51930(8)
H11_6 H 0.4496 0.1353 0.5088
H12_6 H 0.3859 0.1787 0.5135
H13_6 H 0.3802 0.1012 0.5125
C12_6 C 0.73067(11) 0.32802(10) 0.54412(5)
C13_6 C 0.75339(12) 0.38783(11) 0.55438(6)
H14_6 H 0.7429 0.4253 0.5423
C14_6 C 0.79080(11) 0.39525(11) 0.58159(6)
H15_6 H 0.8071 0.4370 0.5869
C15_6 C 0.80487(11) 0.34233(11) 0.60134(5)
C16_6 C 0.78207(12) 0.28099(11) 0.59210(6)
H16_6 H 0.7914 0.2439 0.6047
C17_6 C 0.74544(11) 0.27476(11) 0.56414(5)
H17_6 H 0.7299 0.2330 0.5584
C18_6 C 0.86403(14) 0.40860(13) 0.64789(7)
C19_6 C 0.91998(14) 0.44121(14) 0.62752(8)
H18_6 H 0.9031 0.4526 0.6065
H19_6 H 0.9561 0.4106 0.6252
H20_6 H 0.9353 0.4805 0.6383
C20_6 C 0.89141(16) 0.39017(17) 0.68195(7)
H21_6 H 0.8569 0.3700 0.6946
H22_6 H 0.9067 0.4295 0.6927
H23_6 H 0.9276 0.3596 0.6796
C21_6 C 0.80310(13) 0.45457(14) 0.65197(8)
H24_6 H 0.7860 0.4661 0.6310
H25_6 H 0.8161 0.4941 0.6633
H26_6 H 0.7695 0.4320 0.6642
C22_6 C 0.72697(10) 0.26943(11) 0.48926(5)
C23_6 C 0.78938(10) 0.24466(12) 0.49491(6)
H27_6 H 0.8102 0.2538 0.5145
C24_6 C 0.82200(11) 0.20621(13) 0.47193(6)
H28_6 H 0.8643 0.1904 0.4764
C25_6 C 0.79275(12) 0.19112(11) 0.44263(6)
C26_6 C 0.72906(11) 0.21450(10) 0.43684(6)
H29_6 H 0.7075 0.2037 0.4176
C27_6 C 0.69890(11) 0.25234(11) 0.45880(6)
H30_6 H 0.6569 0.2686 0.4539
C28_6 C 0.89953(13) 0.13104(14) 0.41923(8)
C29_6 C 0.91277(15) 0.10386(16) 0.38406(7)
H31_6 H 0.9581 0.0897 0.3823
H32_6 H 0.9044 0.1383 0.3685
H33_6 H 0.8839 0.0670 0.3799
C30_6 C 0.91164(15) 0.07900(15) 0.44541(8)
H34_6 H 0.9029 0.0979 0.4663
H35_6 H 0.9569 0.0644 0.4444
H36_6 H 0.8827 0.0419 0.4419
C31_6 C 0.94183(16) 0.19459(16) 0.42426(10)
H37_6 H 0.9343 0.2118 0.4457
H38_6 H 0.9294 0.2273 0.4085
H39_6 H 0.9879 0.1840 0.4218
C32_6 C 0.67194(10) 0.37664(10) 0.49344(5)
C33_6 C 0.72250(11) 0.41892(11) 0.48309(5)
H40_6 H 0.7661 0.4092 0.4887
C34_6 C 0.70968(11) 0.47477(11) 0.46481(5)
H41_6 H 0.7441 0.5032 0.4591
C35_6 C 0.64408(12) 0.48869(11) 0.45475(5)
C36_6 C 0.59438(11) 0.44455(11) 0.46412(6)
H42_6 H 0.5511 0.4517 0.4571
C37_6 C 0.60783(11) 0.39089(10) 0.48341(5)
H43_6 H 0.5733 0.3634 0.4899
C38_6 C 0.56510(12) 0.57788(13) 0.42713(6)
C39_6 C 0.52831(14) 0.53392(15) 0.40313(7)
H44_6 H 0.5541 0.5295 0.3837
H45_6 H 0.4862 0.5536 0.3980
H46_6 H 0.5214 0.4910 0.4126
C40_6 C 0.52664(14) 0.58712(16) 0.45889(7)
H47_6 H 0.4842 0.6066 0.4543
H48_6 H 0.5512 0.6158 0.4731
H49_6 H 0.5205 0.5448 0.4691
C41_6 C 0.57676(15) 0.64422(14) 0.41277(7)
H50_6 H 0.6008 0.6395 0.3928
H51_6 H 0.6020 0.6708 0.4276
H52_6 H 0.5350 0.6653 0.4086
C42_6 C 0.4721(2) 0.1909(2) 0.74777(9)
C43_6 C 0.45418(15) 0.17905(16) 0.71268(8)
C44_6 C 0.42921(16) 0.11683(16) 0.70645(8)
H53_6 H 0.4282 0.0855 0.7230
C45_6 C 0.40604(15) 0.10055(15) 0.67653(8)
C46_6 C 0.3630(2) 0.03310(16) 0.66498(13)
C47_6 C 0.64899(19) 0.13559(18) 0.62668(11)
C48_6 C 0.60233(14) 0.18965(14) 0.63354(8)
C49_6 C 0.62267(15) 0.25141(15) 0.64288(9)
H54_6 H 0.6676 0.2575 0.6470
C50_6 C 0.58327(14) 0.30294(14) 0.64647(7)
C51_6 C 0.61693(15) 0.36886(18) 0.65430(13)
C52_6 C 0.8924(2) 0.09181(19) 0.55790(9)
C53_6 C 0.91373(15) 0.16027(14) 0.56985(8)
C54_6 C 0.94008(15) 0.20673(14) 0.54847(7)
H55_6 H 0.9440 0.1964 0.5266
C55_6 C 0.95992(15) 0.26646(15) 0.55933(8)
C56_6 C 0.9797(2) 0.3102(2) 0.53524(12)
F1_6 F 0.4259(2) 0.22753(19) 0.76093(6)
F2_6 F 0.52299(14) 0.2196(2) 0.75206(6)
F3_6 F 0.47026(16) 0.14192(17) 0.76694(6)
F4_6 F 0.3048(2) 0.04098(16) 0.66749(15)
F5_6 F 0.3975(3) 0.00019(12) 0.65310(9)
F7_6 F 0.64136(14) 0.11352(13) 0.59588(8)
F8_6 F 0.71039(12) 0.14956(12) 0.63163(11)
F9_6 F 0.64231(13) 0.08401(10) 0.64457(7)
F10_6 F 0.64173(14) 0.39868(11) 0.62775(8)
F11_6 F 0.58091(12) 0.41150(11) 0.66470(9)
F12_6 F 0.67077(12) 0.36142(13) 0.67099(8)
F13_6 F 0.9247(2) 0.04760(12) 0.56768(8)
F14_6 F 0.83866(18) 0.06918(18) 0.57081(10)
F15_6 F 0.8913(2) 0.08542(12) 0.52861(6)
F16_6 F 0.9381(2) 0.35750(16) 0.52825(9)
F17_6 F 0.98789(18) 0.29234(16) 0.50436(6)
O13_4 O 0.36891(8) 0.28815(8) 0.64544(4)
O14_4 O 0.92592(8) 0.18424(8) 0.67290(4)
Mn3_4 Mn 0.72723(2) 0.04727(2) 0.391730(10)
Mn4_4 Mn 0.736002(19) 0.55080(2) 0.380272(10)
O2_7 O 0.20960(8) 0.36375(8) 0.89177(4)
O7_7 O 0.32764(9) 0.04173(10) 0.88022(5)
O8_7 O 0.19306(8) 0.02318(8) 0.89369(5)
O9_7 O 0.33457(9) 0.40526(10) 0.84940(4)
O10_7 O 0.20989(9) 0.46042(10) 0.83662(4)
O11_5 O 0.32339(9) 0.53647(10) 0.87442(5)
O12_5 O 0.19597(9) 0.51877(9) 0.90016(5)
N2_7 N 0.15430(9) 0.34386(10) 0.87948(5)
N3_7 N 0.34784(10) 0.32497(10) 0.66891(5)
C1_7 C 0.18619(10) 0.18914(11) 0.76367(5)
C2_7 C 0.21929(10) 0.12536(10) 0.77654(5)
C3_7 C 0.28466(11) 0.10595(12) 0.76992(6)
H1_7 H 0.3095 0.1313 0.7555
C4_7 C 0.31277(11) 0.05265(12) 0.78339(6)
H2_7 H 0.3570 0.0429 0.7793
C5_7 C 0.27571(12) 0.01187(11) 0.80355(5)
C6_7 C 0.21177(11) 0.02844(11) 0.81088(5)
H3_7 H 0.1871 0.0015 0.8246
C7_7 C 0.18388(11) 0.08415(12) 0.79818(6)
H4_7 H 0.1407 0.0953 0.8038
C12_7 C 0.17198(10) 0.23067(11) 0.79412(5)
C13_7 C 0.11217(11) 0.25339(12) 0.80438(6)
H14_7 H 0.0747 0.2429 0.7923
C14_7 C 0.10475(11) 0.29080(11) 0.83159(6)
H15_7 H 0.0630 0.3071 0.8369
C15_7 C 0.15767(11) 0.30487(11) 0.85134(5)
C16_7 C 0.21901(11) 0.28207(12) 0.84210(6)
H16_7 H 0.2561 0.2914 0.8547
C17_7 C 0.22524(11) 0.24544(11) 0.81414(5)
H17_7 H 0.2670 0.2299 0.8084
C18_7 C 0.09140(13) 0.36403(14) 0.89789(7)
C19_7 C 0.05879(14) 0.41998(14) 0.87752(8)
H18_7 H 0.0474 0.4031 0.8565
H19_7 H 0.0894 0.4561 0.8752
H20_7 H 0.0195 0.4353 0.8883
C20_7 C 0.10983(17) 0.39141(16) 0.93195(7)
H21_7 H 0.1300 0.3569 0.9446
H22_7 H 0.0705 0.4067 0.9427
H23_7 H 0.1404 0.4276 0.9296
C21_7 C 0.04543(14) 0.30310(13) 0.90197(8)
H24_7 H 0.0339 0.2860 0.8810
H25_7 H 0.0059 0.3161 0.9133
H26_7 H 0.0680 0.2695 0.9142
C22_7 C 0.23057(11) 0.22697(10) 0.73926(5)
C23_7 C 0.25534(12) 0.28938(10) 0.74491(6)
H27_7 H 0.2462 0.3102 0.7645
C24_7 C 0.29379(13) 0.32200(11) 0.72193(6)
H28_7 H 0.3096 0.3643 0.7264
C25_7 C 0.30888(11) 0.29275(12) 0.69263(6)
C26_7 C 0.28550(10) 0.22906(11) 0.68684(6)
H29_7 H 0.2963 0.2075 0.6676
C27_7 C 0.24766(11) 0.19890(11) 0.70880(6)
H30_7 H 0.2314 0.1569 0.7039
C28_7 C 0.36896(14) 0.39953(13) 0.66923(8)
C29_7 C 0.39614(16) 0.41277(15) 0.63406(7)
H31_7 H 0.4103 0.4581 0.6323
H32_7 H 0.3617 0.4044 0.6185
H33_7 H 0.4330 0.3839 0.6299
C30_7 C 0.42100(15) 0.41164(15) 0.69541(8)
H34_7 H 0.4021 0.4029 0.7163
H35_7 H 0.4356 0.4569 0.6944
H36_7 H 0.4581 0.3827 0.6919
C31_7 C 0.30541(16) 0.44183(16) 0.67426(10)
H37_7 H 0.2882 0.4343 0.6957
H38_7 H 0.2727 0.4294 0.6585
H39_7 H 0.3160 0.4879 0.6718
C32_7 C 0.12336(10) 0.17194(10) 0.74344(5)
C33_7 C 0.08108(11) 0.22250(11) 0.73309(5)
H40_7 H 0.0908 0.2661 0.7387
C34_7 C 0.02523(11) 0.20968(11) 0.71481(5)
C35_7 C 0.01131(11) 0.14408(12) 0.70475(5)
C36_7 C 0.05545(11) 0.09438(11) 0.71412(6)
H42_7 H 0.0483 0.0511 0.7071
C37_7 C 0.10911(10) 0.10783(11) 0.73341(5)
H43_7 H 0.1366 0.0733 0.7399
H46_7 H 0.0090 0.0214 0.6626
C47_7 C 0.36441(18) 0.14899(19) 0.87668(11)
C48_7 C 0.31035(14) 0.10233(14) 0.88354(8)
C49_7 C 0.24859(15) 0.12267(15) 0.89288(9)
H54_7 H 0.2425 0.1676 0.8970
C50_7 C 0.19706(14) 0.08327(14) 0.89647(7)
C51_7 C 0.13114(18) 0.11693(15) 0.90430(13)
C52_7 C 0.40819(19) 0.3924(2) 0.80790(9)
C53_7 C 0.33973(14) 0.41373(15) 0.81985(8)
C54_7 C 0.29327(14) 0.44008(15) 0.79847(7)
H55_7 H 0.3036 0.4440 0.7766
C55_7 C 0.23354(15) 0.45992(15) 0.80933(8)
C56_7 C 0.1898(2) 0.4797(2) 0.78524(12)
C57_5 C 0.35461(19) 0.6453(2) 0.87016(11)
C58_5 C 0.30708(13) 0.59638(15) 0.87905(8)
C59_5 C 0.25155(14) 0.62018(15) 0.88903(9)
H56_5 H 0.2457 0.6659 0.8887
C60_5 C 0.20020(14) 0.58104(14) 0.90018(7)
C61_5 C 0.13551(19) 0.6249(2) 0.90749(13)
F7_7 F 0.38648(13) 0.14136(14) 0.84588(8)
F8_7 F 0.35044(12) 0.21039(12) 0.88163(11)
F9_7 F 0.41599(10) 0.14231(13) 0.89457(7)
F10_7 F 0.10132(11) 0.14173(14) 0.87775(8)
F11_7 F 0.08850(11) 0.08091(12) 0.91470(9)
F12_7 F 0.13858(13) 0.17077(12) 0.92099(8)
F13_7 F 0.45240(12) 0.4247(2) 0.81768(8)
F14_7 F 0.43082(18) 0.33866(18) 0.82081(10)
F15_7 F 0.41458(12) 0.3913(2) 0.77861(6)
F16_7 F 0.14250(16) 0.4381(2) 0.77825(9)
F17_7 F 0.20766(16) 0.48789(18) 0.75436(6)
F18_5 F 0.14853(18) 0.52438(16) 0.78914(7)
F19_5 F 0.40665(13) 0.64594(15) 0.89138(9)
F20_5 F 0.38697(14) 0.63527(14) 0.84420(7)
F21_5 F 0.34277(13) 0.70673(11) 0.86948(9)
F22_5 F 0.08442(11) 0.59825(17) 0.90149(8)
F23_5 F 0.11958(14) 0.58013(19) 0.94211(10)
F24_5 F 0.14508(14) 0.66334(13) 0.93117(10)
O1_7 O 0.26930(8) 0.92763(8) 0.84220(4)
O5_7 O 0.27327(10) 0.96415(10) 0.94310(4)
O6_7 O 0.36487(9) 0.90454(10) 0.90102(4)
N1_7 N 0.30328(10) 0.95272(10) 0.81834(5)
C8_7 C 0.36488(14) 0.91716(13) 0.80693(7)
C9_7 C 0.42461(14) 0.95590(19) 0.81723(10)
H5_7 H 0.4235 0.9990 0.8073
H6_7 H 0.4640 0.9329 0.8106
H7_7 H 0.4246 0.9606 0.8404
C10_7 C 0.36042(17) 0.84486(15) 0.82160(8)
H8_7 H 0.3619 0.8473 0.8448
H9_7 H 0.3971 0.8189 0.8139
H10_7 H 0.3196 0.8245 0.8149
C11_7 C 0.3621(2) 0.90726(17) 0.76930(8)
H11_7 H 0.3647 0.9496 0.7588
H12_7 H 0.3213 0.8859 0.7635
H13_7 H 0.3988 0.8802 0.7625
C42_7 C 0.3091(2) 0.9721(2) 0.99777(9)
C43_7 C 0.32095(16) 0.95418(15) 0.96268(8)
C44_7 C 0.38317(16) 0.92921(16) 0.95645(8)
H53_7 H 0.4145 0.9282 0.9730
C45_7 C 0.39945(15) 0.90604(15) 0.92653(8)
C46_7 C 0.46690(16) 0.8630(2) 0.91498(13)
F4_7 F 0.45902(16) 0.8048(2) 0.91749(15)
F5_7 F 0.49981(12) 0.8975(3) 0.90310(9)
F6_6 F 0.50210(12) 0.8697(2) 0.94533(8)
N4_7 N 0.95317(10) 0.13234(9) 0.68528(5)
H41_7 H 0.9968 0.2441 0.7091
C38_7 C 0.92212(13) 0.06510(12) 0.67713(6)
C39_7 C 0.96608(15) 0.02831(14) 0.65313(7)
H44_7 H 0.9705 0.0541 0.6337
C40_7 C 0.91288(16) 0.02664(14) 0.70889(7)
H48_7 H 0.8842 0.0512 0.7231
H49_7 H 0.9552 0.0205 0.7191
C41_7 C 0.85578(14) 0.07676(15) 0.66277(7)
H50_7 H 0.8605 0.1008 0.6428
H51_7 H 0.8292 0.1020 0.6776
H52_7 H 0.8347 0.0350 0.6586
N4_8 N 0.04683(10) 0.86766(9) 0.18528(5)
H41_8 H 0.0032 0.7559 0.2091
C38_8 C 0.07788(13) 0.93490(12) 0.17713(6)
C39_8 C 0.03392(15) 0.97169(14) 0.15313(7)
H44_8 H 0.0295 0.9459 0.1337
C40_8 C 0.08712(16) 0.97336(14) 0.20889(7)
H48_8 H 0.1158 0.9488 0.2231
H49_8 H 0.0448 0.9795 0.2191
C41_8 C 0.14422(14) 0.92324(15) 0.16277(7)
H50_8 H 0.1395 0.8992 0.1428
H51_8 H 0.1708 0.8980 0.1776
H52_8 H 0.1653 0.9650 0.1586
O1_8 O 0.73070(8) 0.07237(8) 0.34220(4)
O5_8 O 0.72673(10) 0.03585(10) 0.44310(4)
O6_8 O 0.63513(9) 0.09546(10) 0.40102(4)
N1_8 N 0.69672(10) 0.04728(10) 0.31834(5)
C8_8 C 0.63512(14) 0.08284(13) 0.30693(7)
C9_8 C 0.57539(14) 0.04410(19) 0.31723(10)
H5_8 H 0.5765 0.0010 0.3073
H6_8 H 0.5360 0.0671 0.3106
H7_8 H 0.5754 0.0394 0.3404
C10_8 C 0.63958(17) 0.15514(15) 0.32160(8)
H8_8 H 0.6381 0.1527 0.3448
H9_8 H 0.6029 0.1811 0.3139
H10_8 H 0.6804 0.1755 0.3149
C11_8 C 0.6379(2) 0.09274(17) 0.26930(8)
H11_8 H 0.6353 0.0504 0.2588
H12_8 H 0.6787 0.1141 0.2635
H13_8 H 0.6012 0.1198 0.2625
C42_8 C 0.6909(2) 0.0279(2) 0.49777(9)
C43_8 C 0.67905(16) 0.04582(15) 0.46268(8)
C44_8 C 0.61683(16) 0.07079(16) 0.45645(8)
H53_8 H 0.5855 0.0718 0.4730
C45_8 C 0.60055(15) 0.09396(15) 0.42653(8)
C46_8 C 0.53310(16) 0.1370(2) 0.41498(13)
F1_7 F 0.72753(19) 0.0741(2) 0.51093(6)
F3_7 F 0.64192(17) 0.02974(16) 0.51694(6)
F4_8 F 0.54098(16) 0.1952(2) 0.41749(15)
F5_8 F 0.50019(12) 0.1025(3) 0.40310(9)
F6_7 F 0.49790(12) 0.1303(2) 0.44533(8)
O2_8 O 0.79040(8) 0.63625(8) 0.39177(4)
O7_8 O 0.67236(9) 0.95827(10) 0.38022(5)
O8_8 O 0.80694(8) 0.97682(8) 0.39369(5)
O9_8 O 0.66543(9) 0.59474(10) 0.34940(4)
O10_8 O 0.79011(9) 0.53958(10) 0.33662(4)
O11_6 O 0.67661(9) 0.46353(10) 0.37442(5)
O12_6 O 0.80403(9) 0.48123(9) 0.40016(5)
N2_8 N 0.84570(9) 0.65614(10) 0.37948(5)
N3_8 N 0.65216(10) 0.67503(10) 0.16891(5)
C1_8 C 0.81381(10) 0.81086(11) 0.26367(5)
C2_8 C 0.78071(10) 0.87464(10) 0.27654(5)
C3_8 C 0.71534(11) 0.89405(12) 0.26992(6)
H1_8 H 0.6905 0.8687 0.2555
C4_8 C 0.68723(11) 0.94735(12) 0.28339(6)
H2_8 H 0.6430 0.9571 0.2793
C5_8 C 0.72429(12) 0.98813(11) 0.30355(5)
C6_8 C 0.78823(11) 0.97156(11) 0.31088(5)
H3_8 H 0.8129 0.9985 0.3246
C7_8 C 0.81612(11) 0.91585(12) 0.29818(6)
H4_8 H 0.8593 0.9047 0.3038
C12_8 C 0.82802(10) 0.76933(11) 0.29412(5)
C13_8 C 0.88783(11) 0.74661(12) 0.30438(6)
H14_8 H 0.9253 0.7571 0.2923
C14_8 C 0.89525(11) 0.70920(11) 0.33159(6)
H15_8 H 0.9370 0.6929 0.3369
C15_8 C 0.84233(11) 0.69513(11) 0.35134(5)
C16_8 C 0.78099(11) 0.71793(12) 0.34210(6)
H16_8 H 0.7439 0.7086 0.3547
C17_8 C 0.77476(11) 0.75456(11) 0.31414(5)
H17_8 H 0.7330 0.7701 0.3084
C18_8 C 0.90860(13) 0.63597(14) 0.39789(7)
C19_8 C 0.94121(14) 0.58002(14) 0.37752(8)
H18_8 H 0.9526 0.5969 0.3565
H19_8 H 0.9106 0.5439 0.3752
H20_8 H 0.9805 0.5647 0.3883
C20_8 C 0.89017(17) 0.60859(16) 0.43195(7)
H21_8 H 0.8700 0.6431 0.4446
H22_8 H 0.9295 0.5933 0.4427
H23_8 H 0.8596 0.5724 0.4296
C21_8 C 0.95457(14) 0.69690(13) 0.40197(8)
H24_8 H 0.9661 0.7140 0.3810
H25_8 H 0.9941 0.6839 0.4133
H26_8 H 0.9320 0.7305 0.4142
C22_8 C 0.76943(11) 0.77303(10) 0.23926(5)
C23_8 C 0.74466(12) 0.71062(10) 0.24491(6)
H27_8 H 0.7538 0.6898 0.2645
C24_8 C 0.70621(13) 0.67800(11) 0.22193(6)
H28_8 H 0.6904 0.6357 0.2264
C25_8 C 0.69112(11) 0.70725(12) 0.19263(6)
C26_8 C 0.71450(10) 0.77094(11) 0.18684(6)
H29_8 H 0.7037 0.7925 0.1676
C27_8 C 0.75234(11) 0.80110(11) 0.20880(6)
H30_8 H 0.7686 0.8431 0.2039
C28_8 C 0.63104(14) 0.60047(13) 0.16923(8)
C29_8 C 0.60386(16) 0.58723(15) 0.13406(7)
H31_8 H 0.5897 0.5419 0.1323
H32_8 H 0.6383 0.5956 0.1185
H33_8 H 0.5670 0.6161 0.1299
C30_8 C 0.57900(15) 0.58836(15) 0.19541(8)
H34_8 H 0.5979 0.5971 0.2163
H35_8 H 0.5644 0.5431 0.1944
H36_8 H 0.5419 0.6173 0.1919
C31_8 C 0.69459(16) 0.55817(16) 0.17426(10)
H37_8 H 0.7118 0.5657 0.1957
H38_8 H 0.7273 0.5706 0.1585
H39_8 H 0.6840 0.5121 0.1718
C32_8 C 0.87664(10) 0.82806(10) 0.24344(5)
C33_8 C 0.91892(11) 0.77750(11) 0.23309(5)
H40_8 H 0.9092 0.7339 0.2387
C34_8 C 0.97477(11) 0.79032(11) 0.21481(5)
C35_8 C 0.98869(11) 0.85592(12) 0.20475(5)
C36_8 C 0.94455(11) 0.90562(11) 0.21412(6)
H42_8 H 0.9517 0.9489 0.2071
C37_8 C 0.89089(10) 0.89217(11) 0.23341(5)
H43_8 H 0.8634 0.9267 0.2399
H46_8 H 0.9910 0.9786 0.1626
C47_8 C 0.63559(18) 0.85101(19) 0.37668(11)
C48_8 C 0.68965(14) 0.89767(14) 0.38354(8)
C49_8 C 0.75141(15) 0.87733(15) 0.39288(9)
H54_8 H 0.7575 0.8324 0.3970
C50_8 C 0.80294(14) 0.91673(14) 0.39647(7)
C51_8 C 0.86886(18) 0.88307(15) 0.40430(13)
C52_8 C 0.59181(19) 0.6076(2) 0.30790(9)
C53_8 C 0.66027(14) 0.58627(15) 0.31985(8)
C54_8 C 0.70673(14) 0.55992(15) 0.29847(7)
H55_8 H 0.6964 0.5560 0.2766
C55_8 C 0.76646(15) 0.54008(15) 0.30933(8)
C56_8 C 0.8102(2) 0.5203(2) 0.28524(12)
C57_6 C 0.64539(19) 0.3547(2) 0.37016(11)
C58_6 C 0.69292(13) 0.40362(15) 0.37905(8)
C59_6 C 0.74845(14) 0.37982(15) 0.38903(9)
H56_6 H 0.7543 0.3341 0.3887
C60_6 C 0.79980(14) 0.41896(14) 0.40018(7)
C61_6 C 0.86449(19) 0.3751(2) 0.40749(13)
F2_7 F 0.7196(2) 0.97701(14) 0.50206(6)
F7_8 F 0.61352(13) 0.85864(14) 0.34588(8)
F8_8 F 0.64956(12) 0.78961(12) 0.38163(11)
F9_8 F 0.58401(10) 0.85769(13) 0.39457(7)
F10_8 F 0.89868(11) 0.85827(14) 0.37775(8)
F11_8 F 0.91150(11) 0.91909(12) 0.41470(9)
F12_8 F 0.86142(13) 0.82923(12) 0.42099(8)
F13_8 F 0.54760(12) 0.5753(2) 0.31768(8)
F14_8 F 0.56918(18) 0.66134(18) 0.32081(10)
F15_8 F 0.58542(12) 0.6087(2) 0.27861(6)
F16_8 F 0.85750(16) 0.5619(2) 0.27825(9)
F17_8 F 0.79234(16) 0.51211(18) 0.25436(6)
F18_6 F 0.85147(18) 0.47562(16) 0.28914(7)
F19_6 F 0.59335(13) 0.35406(15) 0.39138(9)
F20_6 F 0.61303(14) 0.36473(14) 0.34420(7)
F21_6 F 0.65723(13) 0.29327(11) 0.36948(9)
F22_6 F 0.91558(11) 0.40175(17) 0.40149(8)
F23_6 F 0.88042(14) 0.41987(19) 0.44211(10)
F24_6 F 0.85492(14) 0.33666(13) 0.43117(10)
O11_7 O 0.96353(10) 0.82339(9) 0.12442(5)
O12_7 O 0.98123(9) 0.69597(9) 0.15016(5)
C57_7 C 0.8547(2) 0.85461(19) 0.12016(11)
C58_7 C 0.90362(15) 0.80708(13) 0.12905(8)
C59_7 C 0.87982(15) 0.75155(14) 0.13903(9)
H56_7 H 0.8341 0.7457 0.1387
C60_7 C 0.91896(14) 0.70020(14) 0.15018(7)
C61_7 C 0.8751(2) 0.63551(19) 0.15749(13)
F18_7 F 0.97562(16) 0.64853(18) 0.03914(7)
F19_7 F 0.85406(15) 0.90665(13) 0.14138(9)
F20_7 F 0.86473(14) 0.88697(14) 0.09420(7)
F21_7 F 0.79327(11) 0.84277(13) 0.11948(9)
F22_7 F 0.90175(17) 0.58442(11) 0.15149(8)
F23_7 F 0.91987(19) 0.61958(14) 0.19211(10)
F24_7 F 0.83666(13) 0.64508(14) 0.18117(10)
O11_8 O 0.03647(10) 0.17661(9) 0.62442(5)
O12_8 O 0.01877(9) 0.30403(9) 0.65016(5)
C57_8 C 0.1453(2) 0.14539(19) 0.62016(11)
C58_8 C 0.09638(15) 0.19292(13) 0.62905(8)
C59_8 C 0.12018(15) 0.24845(14) 0.63903(9)
H56_8 H 0.1659 0.2543 0.6387
C60_8 C 0.08104(14) 0.29980(14) 0.65018(7)
C61_8 C 0.1249(2) 0.36449(19) 0.65749(13)
F18_8 F 0.02438(16) 0.35147(18) 0.53914(7)
F19_8 F 0.14594(15) 0.09335(13) 0.64138(9)
F20_8 F 0.13527(14) 0.11303(14) 0.59420(7)
F21_8 F 0.20673(11) 0.15723(13) 0.61948(9)
F22_8 F 0.09825(17) 0.41558(11) 0.65149(8)
F23_8 F 0.08013(19) 0.38042(14) 0.69211(10)
F24_8 F 0.16334(13) 0.35492(14) 0.68117(10)
F6_8 F 0.3697(2) 0.99790(12) 0.69533(8)
F2_8 F 0.2804(2) 0.02299(14) 0.00206(6)
F1_8 F 0.27247(19) 0.9259(2) 0.01093(6)
F3_8 F 0.35808(17) 0.97026(16) 0.01694(6)
H45_7 H 0.9464 0.9862 0.6480
H47_7 H 0.8934 0.9842 0.7043
H45_8 H 0.0536 0.0138 0.1480
H47_8 H 0.1066 0.0158 0.2043
loop_
_geom_bond_atom_site_label_1
_geom_bond_atom_site_label_2
_geom_bond_site_symmetry_1
_geom_bond_site_symmetry_2
Mn2 O2 1_555 1_555
O2 N2 1_555 1_555
O3 N3 1_555 1_555
O9 Mn2 1_555 1_555
O10 Mn2 1_555 1_555
O11 Mn2 1_555 1_555
O12 Mn2 1_555 1_555
N2 C15 1_555 1_555
N3 C25 1_555 1_555
C1 C2 1_555 1_555
C2 C3 1_555 1_555
C3 H1 1_555 1_555
C4 C3 1_555 1_555
H2 C4 1_555 1_555
C5 C4 1_555 1_555
C6 C5 1_555 1_555
H3 C6 1_555 1_555
C7 C2 1_555 1_555
H4 C7 1_555 1_555
C12 C1 1_555 1_555
C13 C12 1_555 1_555
H14 C13 1_555 1_555
C14 C13 1_555 1_555
H15 C14 1_555 1_555
C15 C14 1_555 1_555
C16 C15 1_555 1_555
H16 C16 1_555 1_555
C17 C12 1_555 1_555
H17 C17 1_555 1_555
C18 N2 1_555 1_555
C19 C18 1_555 1_555
H18 C19 1_555 1_555
H19 C19 1_555 1_555
H20 C19 1_555 1_555
C20 C18 1_555 1_555
H21 C20 1_555 1_555
H22 C20 1_555 1_555
H23 C20 1_555 1_555
C21 C18 1_555 1_555
H24 C21 1_555 1_555
H25 C21 1_555 1_555
H26 C21 1_555 1_555
C22 C1 1_555 1_555
C23 C22 1_555 1_555
H27 C23 1_555 1_555
C24 C23 1_555 1_555
H28 C24 1_555 1_555
C25 C24 1_555 1_555
C26 C25 1_555 1_555
H29 C26 1_555 1_555
C27 C22 1_555 1_555
H30 C27 1_555 1_555
C28 N3 1_555 1_555
C29 C28 1_555 1_555
H31 C29 1_555 1_555
H32 C29 1_555 1_555
H33 C29 1_555 1_555
C30 C28 1_555 1_555
H34 C30 1_555 1_555
H35 C30 1_555 1_555
H36 C30 1_555 1_555
C31 C28 1_555 1_555
H37 C31 1_555 1_555
H38 C31 1_555 1_555
H39 C31 1_555 1_555
C32 C1 1_555 1_555
C33 C32 1_555 1_555
H40 C33 1_555 1_555
C34 C33 1_555 1_555
C35 C34 1_555 1_555
C36 C35 1_555 1_555
H42 C36 1_555 1_555
C37 C32 1_555 1_555
H43 C37 1_555 1_555
C47 C48 1_555 1_555
C48 O7 1_555 1_555
C49 C48 1_555 1_555
H54 C49 1_555 1_555
C50 O8 1_555 1_555
C51 C50 1_555 1_555
C52 C53 1_555 1_555
C53 O9 1_555 1_555
C54 C53 1_555 1_555
H55 C54 1_555 1_555
C55 O10 1_555 1_555
C56 C55 1_555 1_555
C57 C58 1_555 1_555
C58 O11 1_555 1_555
C59 C58 1_555 1_555
H56 C59 1_555 1_555
C60 O12 1_555 1_555
C61 C60 1_555 1_555
F7 C47 1_555 1_555
F8 C47 1_555 1_555
F9 C47 1_555 1_555
F10 C51 1_555 1_555
F11 C51 1_555 1_555
F12 C51 1_555 1_555
F13 C52 1_555 1_555
F14 C52 1_555 1_555
F15 C52 1_555 1_555
F16 C56 1_555 1_555
F17 C56 1_555 1_555
F18 C56 1_555 1_555
F19 C57 1_555 1_555
F20 C57 1_555 1_555
F21 C57 1_555 1_555
F22 C61 1_555 1_555
F23 C61 1_555 1_555
F24 C61 1_555 1_555
O14 Mn2 1_555 1_555
Mn3 O3 1_555 1_555
C6 C7 1_555 1_555
C16 C17 1_555 1_555
C26 C27 1_555 1_555
C36 C37 1_555 1_555
C49 C50 1_555 1_555
C54 C55 1_555 1_555
C59 C60 1_555 1_555
O4 N4 1_555 1_555
C38 N4 1_555 1_555
C39 C38 1_555 1_555
H44 C39 1_555 1_555
C40 C38 1_555 1_555
H48 C40 1_555 1_555
H49 C40 1_555 1_555
C41 C38 1_555 1_555
H50 C41 1_555 1_555
H51 C41 1_555 1_555
H52 C41 1_555 1_555
Mn4 O4 1_555 1_555
Mn1 O1 1_555 1_555
O1 N1 1_555 1_555
O5 Mn1 1_555 1_555
O6 Mn1 1_555 1_555
C8 N1 1_555 1_555
C9 C8 1_555 1_555
H5 C9 1_555 1_555
H6 C9 1_555 1_555
H7 C9 1_555 1_555
C10 C8 1_555 1_555
H8 C10 1_555 1_555
H9 C10 1_555 1_555
H10 C10 1_555 1_555
C11 C8 1_555 1_555
H11 C11 1_555 1_555
H12 C11 1_555 1_555
H13 C11 1_555 1_555
C42 C43 1_555 1_555
C43 O5 1_555 1_555
C44 C43 1_555 1_555
H53 C44 1_555 1_555
C45 O6 1_555 1_555
C46 C45 1_555 1_555
F4 C46 1_555 1_555
F5 C46 1_555 1_555
F6 C46 1_555 1_555
O13 Mn1 1_555 1_555
C44 C45 1_555 1_555
Mn1_2 O1_2 1_555 1_555
O1_2 N1_2 1_555 1_555
O5_2 Mn1_2 1_555 1_555
O6_2 Mn1_2 1_555 1_555
C8_2 N1_2 1_555 1_555
C9_2 C8_2 1_555 1_555
H5_2 C9_2 1_555 1_555
H6_2 C9_2 1_555 1_555
H7_2 C9_2 1_555 1_555
C10_2 C8_2 1_555 1_555
H8_2 C10_2 1_555 1_555
H9_2 C10_2 1_555 1_555
H10_2 C10_2 1_555 1_555
C11_2 C8_2 1_555 1_555
H11_2 C11_2 1_555 1_555
H12_2 C11_2 1_555 1_555
H13_2 C11_2 1_555 1_555
C42_2 C43_2 1_555 1_555
C43_2 O5_2 1_555 1_555
C44_2 C43_2 1_555 1_555
H53_2 C44_2 1_555 1_555
C45_2 O6_2 1_555 1_555
C46_2 C45_2 1_555 1_555
F1 C42_2 1_555 1_555
F3 C42_2 1_555 1_555
F4_2 C46_2 1_555 1_555
F5_2 C46_2 1_555 1_555
F6_2 C46_2 1_555 1_555
O13_2 Mn1_2 1_555 1_555
C44_2 C45_2 1_555 1_555
O4_2 N4_2 1_555 1_555
C38_2 N4_2 1_555 1_555
C39_2 C38_2 1_555 1_555
H44_2 C39_2 1_555 1_555
C40_2 C38_2 1_555 1_555
H48_2 C40_2 1_555 1_555
H49_2 C40_2 1_555 1_555
C41_2 C38_2 1_555 1_555
H50_2 C41_2 1_555 1_555
H51_2 C41_2 1_555 1_555
H52_2 C41_2 1_555 1_555
Mn4_2 O4_2 1_555 1_555
Mn2_2 O2_2 1_555 1_555
O2_2 N2_2 1_555 1_555
O3_2 N3_2 1_555 1_555
O9_2 Mn2_2 1_555 1_555
O10_2 Mn2_2 1_555 1_555
O11_2 Mn2_2 1_555 1_555
O12_2 Mn2_2 1_555 1_555
N2_2 C15_2 1_555 1_555
N3_2 C25_2 1_555 1_555
C1_2 C2_2 1_555 1_555
C2_2 C3_2 1_555 1_555
C3_2 H1_2 1_555 1_555
C4_2 C3_2 1_555 1_555
H2_2 C4_2 1_555 1_555
C5_2 C4_2 1_555 1_555
C6_2 C5_2 1_555 1_555
H3_2 C6_2 1_555 1_555
C7_2 C2_2 1_555 1_555
H4_2 C7_2 1_555 1_555
C12_2 C1_2 1_555 1_555
C13_2 C12_2 1_555 1_555
H14_2 C13_2 1_555 1_555
C14_2 C13_2 1_555 1_555
H15_2 C14_2 1_555 1_555
C15_2 C14_2 1_555 1_555
C16_2 C15_2 1_555 1_555
H16_2 C16_2 1_555 1_555
C17_2 C12_2 1_555 1_555
H17_2 C17_2 1_555 1_555
C18_2 N2_2 1_555 1_555
C19_2 C18_2 1_555 1_555
H18_2 C19_2 1_555 1_555
H19_2 C19_2 1_555 1_555
H20_2 C19_2 1_555 1_555
C20_2 C18_2 1_555 1_555
H21_2 C20_2 1_555 1_555
H22_2 C20_2 1_555 1_555
H23_2 C20_2 1_555 1_555
C21_2 C18_2 1_555 1_555
H24_2 C21_2 1_555 1_555
H25_2 C21_2 1_555 1_555
H26_2 C21_2 1_555 1_555
C22_2 C1_2 1_555 1_555
C23_2 C22_2 1_555 1_555
H27_2 C23_2 1_555 1_555
C24_2 C23_2 1_555 1_555
H28_2 C24_2 1_555 1_555
C25_2 C24_2 1_555 1_555
C26_2 C25_2 1_555 1_555
H29_2 C26_2 1_555 1_555
C27_2 C22_2 1_555 1_555
H30_2 C27_2 1_555 1_555
C28_2 N3_2 1_555 1_555
C29_2 C28_2 1_555 1_555
H31_2 C29_2 1_555 1_555
H32_2 C29_2 1_555 1_555
H33_2 C29_2 1_555 1_555
C30_2 C28_2 1_555 1_555
H34_2 C30_2 1_555 1_555
H35_2 C30_2 1_555 1_555
H36_2 C30_2 1_555 1_555
C31_2 C28_2 1_555 1_555
H37_2 C31_2 1_555 1_555
H38_2 C31_2 1_555 1_555
H39_2 C31_2 1_555 1_555
C32_2 C1_2 1_555 1_555
C33_2 C32_2 1_555 1_555
H40_2 C33_2 1_555 1_555
C34_2 C33_2 1_555 1_555
C35_2 C34_2 1_555 1_555
C36_2 C35_2 1_555 1_555
H42_2 C36_2 1_555 1_555
C37_2 C32_2 1_555 1_555
H43_2 C37_2 1_555 1_555
C47_2 C48_2 1_555 1_555
C48_2 O7_2 1_555 1_555
C49_2 C48_2 1_555 1_555
H54_2 C49_2 1_555 1_555
C50_2 O8_2 1_555 1_555
C51_2 C50_2 1_555 1_555
C52_2 C53_2 1_555 1_555
C53_2 O9_2 1_555 1_555
C54_2 C53_2 1_555 1_555
H55_2 C54_2 1_555 1_555
C55_2 O10_2 1_555 1_555
C56_2 C55_2 1_555 1_555
C57_2 C58_2 1_555 1_555
C58_2 O11_2 1_555 1_555
C59_2 C58_2 1_555 1_555
H56_2 C59_2 1_555 1_555
C60_2 O12_2 1_555 1_555
C61_2 C60_2 1_555 1_555
F7_2 C47_2 1_555 1_555
F8_2 C47_2 1_555 1_555
F9_2 C47_2 1_555 1_555
F10_2 C51_2 1_555 1_555
F11_2 C51_2 1_555 1_555
F12_2 C51_2 1_555 1_555
F13_2 C52_2 1_555 1_555
F14_2 C52_2 1_555 1_555
F15_2 C52_2 1_555 1_555
F16_2 C56_2 1_555 1_555
F17_2 C56_2 1_555 1_555
F18_2 C56_2 1_555 1_555
F19_2 C57_2 1_555 1_555
F20_2 C57_2 1_555 1_555
F21_2 C57_2 1_555 1_555
F22_2 C61_2 1_555 1_555
F23_2 C61_2 1_555 1_555
F24_2 C61_2 1_555 1_555
O14_2 Mn2_2 1_555 1_555
Mn3_2 O3_2 1_555 1_555
C6_2 C7_2 1_555 1_555
C16_2 C17_2 1_555 1_555
C26_2 C27_2 1_555 1_555
C36_2 C37_2 1_555 1_555
C49_2 C50_2 1_555 1_555
C54_2 C55_2 1_555 1_555
C59_2 C60_2 1_555 1_555
Mn3 O1_3 1_555 1_555
Mn4 O2_3 1_555 1_555
O1_3 N1_3 1_555 1_555
O2_3 N2_3 1_555 1_555
O13_2 N3_3 1_555 1_555
O14_2 N4_3 1_555 1_555
O5_3 Mn3 1_555 1_555
O6_3 Mn3 1_555 1_555
O7_3 Mn3 1_555 1_555
O8_3 Mn3 1_555 1_555
O9_3 Mn4 1_555 1_555
O10_3 Mn4 1_555 1_555
N1_3 C5_3 1_555 1_555
N2_3 C15_3 1_555 1_555
N3_3 C25_3 1_555 1_555
N4_3 C35_3 1_555 1_555
C1_3 C2_3 1_555 1_555
C2_3 C3_3 1_555 1_555
C3_3 H1_3 1_555 1_555
C4_3 C3_3 1_555 1_555
H2_3 C4_3 1_555 1_555
C5_3 C4_3 1_555 1_555
C6_3 C5_3 1_555 1_555
H3_3 C6_3 1_555 1_555
C7_3 C2_3 1_555 1_555
H4_3 C7_3 1_555 1_555
C8_3 N1_3 1_555 1_555
C9_3 C8_3 1_555 1_555
H5_3 C9_3 1_555 1_555
H6_3 C9_3 1_555 1_555
H7_3 C9_3 1_555 1_555
C10_3 C8_3 1_555 1_555
H8_3 C10_3 1_555 1_555
H9_3 C10_3 1_555 1_555
H10_3 C10_3 1_555 1_555
C11_3 C8_3 1_555 1_555
H11_3 C11_3 1_555 1_555
H12_3 C11_3 1_555 1_555
H13_3 C11_3 1_555 1_555
C12_3 C1_3 1_555 1_555
C13_3 C12_3 1_555 1_555
H14_3 C13_3 1_555 1_555
C14_3 C13_3 1_555 1_555
H15_3 C14_3 1_555 1_555
C15_3 C14_3 1_555 1_555
C16_3 C15_3 1_555 1_555
H16_3 C16_3 1_555 1_555
C17_3 C12_3 1_555 1_555
H17_3 C17_3 1_555 1_555
C18_3 N2_3 1_555 1_555
C19_3 C18_3 1_555 1_555
H18_3 C19_3 1_555 1_555
H19_3 C19_3 1_555 1_555
H20_3 C19_3 1_555 1_555
C20_3 C18_3 1_555 1_555
H21_3 C20_3 1_555 1_555
H22_3 C20_3 1_555 1_555
H23_3 C20_3 1_555 1_555
C21_3 C18_3 1_555 1_555
H24_3 C21_3 1_555 1_555
H25_3 C21_3 1_555 1_555
H26_3 C21_3 1_555 1_555
C22_3 C1_3 1_555 1_555
C23_3 C22_3 1_555 1_555
H27_3 C23_3 1_555 1_555
C24_3 C23_3 1_555 1_555
H28_3 C24_3 1_555 1_555
C25_3 C24_3 1_555 1_555
C26_3 C25_3 1_555 1_555
H29_3 C26_3 1_555 1_555
C27_3 C22_3 1_555 1_555
H30_3 C27_3 1_555 1_555
C28_3 N3_3 1_555 1_555
C29_3 C28_3 1_555 1_555
H31_3 C29_3 1_555 1_555
H32_3 C29_3 1_555 1_555
H33_3 C29_3 1_555 1_555
C30_3 C28_3 1_555 1_555
H34_3 C30_3 1_555 1_555
H35_3 C30_3 1_555 1_555
H36_3 C30_3 1_555 1_555
C31_3 C28_3 1_555 1_555
H37_3 C31_3 1_555 1_555
H38_3 C31_3 1_555 1_555
H39_3 C31_3 1_555 1_555
C32_3 C1_3 1_555 1_555
C33_3 C32_3 1_555 1_555
H40_3 C33_3 1_555 1_555
C34_3 C33_3 1_555 1_555
H41_3 C34_3 1_555 1_555
C35_3 C34_3 1_555 1_555
C36_3 C35_3 1_555 1_555
H42_3 C36_3 1_555 1_555
C37_3 C32_3 1_555 1_555
H43_3 C37_3 1_555 1_555
C38_3 N4_3 1_555 1_555
C39_3 C38_3 1_555 1_555
H44_3 C39_3 1_555 1_555
H45 C39_3 1_555 1_555
H46_3 C39_3 1_555 1_555
C40_3 C38_3 1_555 1_555
H47 C40_3 1_555 1_555
H48_3 C40_3 1_555 1_555
H49_3 C40_3 1_555 1_555
C41_3 C38_3 1_555 1_555
H50_3 C41_3 1_555 1_555
H51_3 C41_3 1_555 1_555
H52_3 C41_3 1_555 1_555
C42_3 C43_3 1_555 1_555
C43_3 O5_3 1_555 1_555
C44_3 C43_3 1_555 1_555
H53_3 C44_3 1_555 1_555
C45_3 O6_3 1_555 1_555
C46_3 C45_3 1_555 1_555
C47_3 C48_3 1_555 1_555
C48_3 O7_3 1_555 1_555
C49_3 C48_3 1_555 1_555
H54_3 C49_3 1_555 1_555
C50_3 O8_3 1_555 1_555
C51_3 C50_3 1_555 1_555
C52_3 C53_3 1_555 1_555
C53_3 O9_3 1_555 1_555
C54_3 C53_3 1_555 1_555
H55_3 C54_3 1_555 1_555
C55_3 O10_3 1_555 1_555
C56_3 C55_3 1_555 1_555
F1_2 C42_3 1_555 1_555
F2_2 C42_3 1_555 1_555
F3_2 C42_3 1_555 1_555
F4_3 C46_3 1_555 1_555
F5_3 C46_3 1_555 1_555
F7_3 C47_3 1_555 1_555
F8_3 C47_3 1_555 1_555
F9_3 C47_3 1_555 1_555
F10_3 C51_3 1_555 1_555
F11_3 C51_3 1_555 1_555
F12_3 C51_3 1_555 1_555
F13_3 C52_3 1_555 1_555
F14_3 C52_3 1_555 1_555
F15_3 C52_3 1_555 1_555
F16_3 C56_3 1_555 1_555
F17_3 C56_3 1_555 1_555
C6_3 C7_3 1_555 1_555
C16_3 C17_3 1_555 1_555
C26_3 C27_3 1_555 1_555
C36_3 C37_3 1_555 1_555
C44_3 C45_3 1_555 1_555
C49_3 C50_3 1_555 1_555
C54_3 C55_3 1_555 1_555
O13 N3_4 1_555 1_555
O14 N4_4 1_555 1_555
N3_4 C25_4 1_555 1_555
N4_4 C35_4 1_555 1_555
C23_4 C22_4 1_555 1_555
C24_4 C23_4 1_555 1_555
H28_4 C24_4 1_555 1_555
C25_4 C24_4 1_555 1_555
C26_4 C25_4 1_555 1_555
H29_4 C26_4 1_555 1_555
C27_4 C22_4 1_555 1_555
H30_4 C27_4 1_555 1_555
C28_4 N3_4 1_555 1_555
C29_4 C28_4 1_555 1_555
H31_4 C29_4 1_555 1_555
H32_4 C29_4 1_555 1_555
H33_4 C29_4 1_555 1_555
C30_4 C28_4 1_555 1_555
H34_4 C30_4 1_555 1_555
H35_4 C30_4 1_555 1_555
H36_4 C30_4 1_555 1_555
C31_4 C28_4 1_555 1_555
H37_4 C31_4 1_555 1_555
H38_4 C31_4 1_555 1_555
H39_4 C31_4 1_555 1_555
C33_4 C32_4 1_555 1_555
H40_4 C33_4 1_555 1_555
C34_4 C33_4 1_555 1_555
H41_4 C34_4 1_555 1_555
C35_4 C34_4 1_555 1_555
C36_4 C35_4 1_555 1_555
H42_4 C36_4 1_555 1_555
C37_4 C32_4 1_555 1_555
H43_4 C37_4 1_555 1_555
C38_4 N4_4 1_555 1_555
C39_4 C38_4 1_555 1_555
H44_4 C39_4 1_555 1_555
H45_2 C39_4 1_555 1_555
H46_4 C39_4 1_555 1_555
C40_4 C38_4 1_555 1_555
H47_2 C40_4 1_555 1_555
H48_4 C40_4 1_555 1_555
H49_4 C40_4 1_555 1_555
C41_4 C38_4 1_555 1_555
H50_4 C41_4 1_555 1_555
H51_4 C41_4 1_555 1_555
H52_4 C41_4 1_555 1_555
C26_4 C27_4 1_555 1_555
C36_4 C37_4 1_555 1_555
Mn3_2 O1_4 1_555 1_555
Mn4_2 O2_4 1_555 1_555
O1_4 N1_4 1_555 1_555
O2_4 N2_4 1_555 1_555
O5_4 Mn3_2 1_555 1_555
O6_4 Mn3_2 1_555 1_555
O7_4 Mn3_2 1_555 1_555
O8_4 Mn3_2 1_555 1_555
O9_4 Mn4_2 1_555 1_555
O10_4 Mn4_2 1_555 1_555
N1_4 C5_4 1_555 1_555
N2_4 C15_4 1_555 1_555
C1_4 C2_4 1_555 1_555
C2_4 C3_4 1_555 1_555
C3_4 H1_4 1_555 1_555
C4_4 C3_4 1_555 1_555
H2_4 C4_4 1_555 1_555
C5_4 C4_4 1_555 1_555
C6_4 C5_4 1_555 1_555
H3_4 C6_4 1_555 1_555
C7_4 C2_4 1_555 1_555
H4_4 C7_4 1_555 1_555
C8_4 N1_4 1_555 1_555
C9_4 C8_4 1_555 1_555
H5_4 C9_4 1_555 1_555
H6_4 C9_4 1_555 1_555
H7_4 C9_4 1_555 1_555
C10_4 C8_4 1_555 1_555
H8_4 C10_4 1_555 1_555
H9_4 C10_4 1_555 1_555
H10_4 C10_4 1_555 1_555
C11_4 C8_4 1_555 1_555
H11_4 C11_4 1_555 1_555
H12_4 C11_4 1_555 1_555
H13_4 C11_4 1_555 1_555
C12_4 C1_4 1_555 1_555
C13_4 C12_4 1_555 1_555
H14_4 C13_4 1_555 1_555
C14_4 C13_4 1_555 1_555
H15_4 C14_4 1_555 1_555
C15_4 C14_4 1_555 1_555
C16_4 C15_4 1_555 1_555
H16_4 C16_4 1_555 1_555
C17_4 C12_4 1_555 1_555
H17_4 C17_4 1_555 1_555
C18_4 N2_4 1_555 1_555
C19_4 C18_4 1_555 1_555
H18_4 C19_4 1_555 1_555
H19_4 C19_4 1_555 1_555
H20_4 C19_4 1_555 1_555
C20_4 C18_4 1_555 1_555
H21_4 C20_4 1_555 1_555
H22_4 C20_4 1_555 1_555
H23_4 C20_4 1_555 1_555
C21_4 C18_4 1_555 1_555
H24_4 C21_4 1_555 1_555
H25_4 C21_4 1_555 1_555
H26_4 C21_4 1_555 1_555
C42_4 C43_4 1_555 1_555
C43_4 O5_4 1_555 1_555
C44_4 C43_4 1_555 1_555
H53_4 C44_4 1_555 1_555
C45_4 O6_4 1_555 1_555
C46_4 C45_4 1_555 1_555
C47_4 C48_4 1_555 1_555
C48_4 O7_4 1_555 1_555
C49_4 C48_4 1_555 1_555
H54_4 C49_4 1_555 1_555
C50_4 O8_4 1_555 1_555
C51_4 C50_4 1_555 1_555
C52_4 C53_4 1_555 1_555
C53_4 O9_4 1_555 1_555
C54_4 C53_4 1_555 1_555
H55_4 C54_4 1_555 1_555
C55_4 O10_4 1_555 1_555
C56_4 C55_4 1_555 1_555
F1_3 C42_4 1_555 1_555
F2_3 C42_4 1_555 1_555
F3_3 C42_4 1_555 1_555
F4_4 C46_4 1_555 1_555
F5_4 C46_4 1_555 1_555
F7_4 C47_4 1_555 1_555
F8_4 C47_4 1_555 1_555
F9_4 C47_4 1_555 1_555
F10_4 C51_4 1_555 1_555
F11_4 C51_4 1_555 1_555
F12_4 C51_4 1_555 1_555
F13_4 C52_4 1_555 1_555
F14_4 C52_4 1_555 1_555
F15_4 C52_4 1_555 1_555
F16_4 C56_4 1_555 1_555
F17_4 C56_4 1_555 1_555
C6_4 C7_4 1_555 1_555
C16_4 C17_4 1_555 1_555
C44_4 C45_4 1_555 1_555
C49_4 C50_4 1_555 1_555
C54_4 C55_4 1_555 1_555
C57_3 C58_3 1_555 1_555
C58_3 O11_3 1_555 1_555
C59_3 C58_3 1_555 1_555
H56_3 C59_3 1_555 1_555
C60_3 O12_3 1_555 1_555
C61_3 C60_3 1_555 1_555
F19_3 C57_3 1_555 1_555
F20_3 C57_3 1_555 1_555
F21_3 C57_3 1_555 1_555
F22_3 C61_3 1_555 1_555
F23_3 C61_3 1_555 1_555
F24_3 C61_3 1_555 1_555
C59_3 C60_3 1_555 1_555
C57_4 C58_4 1_555 1_555
C58_4 O11_4 1_555 1_555
C59_4 C58_4 1_555 1_555
H56_4 C59_4 1_555 1_555
C60_4 O12_4 1_555 1_555
C61_4 C60_4 1_555 1_555
F19_4 C57_4 1_555 1_555
F20_4 C57_4 1_555 1_555
F21_4 C57_4 1_555 1_555
F22_4 C61_4 1_555 1_555
F23_4 C61_4 1_555 1_555
F24_4 C61_4 1_555 1_555
C59_4 C60_4 1_555 1_555
Mn1_3 O1_5 1_555 1_555
Mn2_3 O2_5 1_555 1_555
O1_5 N1_5 1_555 1_555
O2_5 N2_5 1_555 1_555
O5_5 Mn1_3 1_555 1_555
O6_5 Mn1_3 1_555 1_555
O7_5 Mn1_3 1_555 1_555
O8_5 Mn1_3 1_555 1_555
O9_5 Mn2_3 1_555 1_555
O10_5 Mn2_3 1_555 1_555
N1_5 C5_5 1_555 1_555
N2_5 C15_5 1_555 1_555
C1_5 C2_5 1_555 1_555
C2_5 C3_5 1_555 1_555
C3_5 H1_5 1_555 1_555
C4_5 C3_5 1_555 1_555
H2_5 C4_5 1_555 1_555
C5_5 C4_5 1_555 1_555
C6_5 C5_5 1_555 1_555
H3_5 C6_5 1_555 1_555
C7_5 C2_5 1_555 1_555
H4_5 C7_5 1_555 1_555
C8_5 N1_5 1_555 1_555
C9_5 C8_5 1_555 1_555
H5_5 C9_5 1_555 1_555
H6_5 C9_5 1_555 1_555
H7_5 C9_5 1_555 1_555
C10_5 C8_5 1_555 1_555
H8_5 C10_5 1_555 1_555
H9_5 C10_5 1_555 1_555
H10_5 C10_5 1_555 1_555
C11_5 C8_5 1_555 1_555
H11_5 C11_5 1_555 1_555
H12_5 C11_5 1_555 1_555
H13_5 C11_5 1_555 1_555
C12_5 C1_5 1_555 1_555
C13_5 C12_5 1_555 1_555
H14_5 C13_5 1_555 1_555
C14_5 C13_5 1_555 1_555
H15_5 C14_5 1_555 1_555
C15_5 C14_5 1_555 1_555
C16_5 C15_5 1_555 1_555
H16_5 C16_5 1_555 1_555
C17_5 C12_5 1_555 1_555
H17_5 C17_5 1_555 1_555
C18_5 N2_5 1_555 1_555
C19_5 C18_5 1_555 1_555
H18_5 C19_5 1_555 1_555
H19_5 C19_5 1_555 1_555
H20_5 C19_5 1_555 1_555
C20_5 C18_5 1_555 1_555
H21_5 C20_5 1_555 1_555
H22_5 C20_5 1_555 1_555
H23_5 C20_5 1_555 1_555
C21_5 C18_5 1_555 1_555
H24_5 C21_5 1_555 1_555
H25_5 C21_5 1_555 1_555
H26_5 C21_5 1_555 1_555
C42_5 C43_5 1_555 1_555
C43_5 O5_5 1_555 1_555
C44_5 C43_5 1_555 1_555
H53_5 C44_5 1_555 1_555
C45_5 O6_5 1_555 1_555
C46_5 C45_5 1_555 1_555
C47_5 C48_5 1_555 1_555
C48_5 O7_5 1_555 1_555
C49_5 C48_5 1_555 1_555
H54_5 C49_5 1_555 1_555
C50_5 O8_5 1_555 1_555
C51_5 C50_5 1_555 1_555
C52_5 C53_5 1_555 1_555
C53_5 O9_5 1_555 1_555
C54_5 C53_5 1_555 1_555
H55_5 C54_5 1_555 1_555
C55_5 O10_5 1_555 1_555
C56_5 C55_5 1_555 1_555
F1_5 C42_5 1_555 1_555
F2_5 C42_5 1_555 1_555
F3_5 C42_5 1_555 1_555
F4_5 C46_5 1_555 1_555
F5_5 C46_5 1_555 1_555
F7_5 C47_5 1_555 1_555
F8_5 C47_5 1_555 1_555
F9_5 C47_5 1_555 1_555
F10_5 C51_5 1_555 1_555
F11_5 C51_5 1_555 1_555
F12_5 C51_5 1_555 1_555
F13_5 C52_5 1_555 1_555
F14_5 C52_5 1_555 1_555
F15_5 C52_5 1_555 1_555
F16_5 C56_5 1_555 1_555
F17_5 C56_5 1_555 1_555
O13_3 Mn1_3 1_555 1_555
O14_3 Mn2_3 1_555 1_555
C6_5 C7_5 1_555 1_555
C16_5 C17_5 1_555 1_555
C44_5 C45_5 1_555 1_555
C49_5 C50_5 1_555 1_555
C54_5 C55_5 1_555 1_555
O3_3 N3_5 1_555 1_555
O4_3 N4_5 1_555 1_555
N3_5 C25_5 1_555 1_555
N4_5 C35_5 1_555 1_555
C23_5 C22_5 1_555 1_555
C24_5 C23_5 1_555 1_555
H28_5 C24_5 1_555 1_555
C25_5 C24_5 1_555 1_555
C26_5 C25_5 1_555 1_555
H29_5 C26_5 1_555 1_555
C27_5 C22_5 1_555 1_555
H30_5 C27_5 1_555 1_555
C28_5 N3_5 1_555 1_555
C29_5 C28_5 1_555 1_555
H31_5 C29_5 1_555 1_555
H32_5 C29_5 1_555 1_555
H33_5 C29_5 1_555 1_555
C30_5 C28_5 1_555 1_555
H34_5 C30_5 1_555 1_555
H35_5 C30_5 1_555 1_555
H36_5 C30_5 1_555 1_555
C31_5 C28_5 1_555 1_555
H37_5 C31_5 1_555 1_555
H38_5 C31_5 1_555 1_555
H39_5 C31_5 1_555 1_555
C33_5 C32_5 1_555 1_555
H40_5 C33_5 1_555 1_555
C34_5 C33_5 1_555 1_555
H41_5 C34_5 1_555 1_555
C35_5 C34_5 1_555 1_555
C36_5 C35_5 1_555 1_555
H42_5 C36_5 1_555 1_555
C37_5 C32_5 1_555 1_555
H43_5 C37_5 1_555 1_555
C38_5 N4_5 1_555 1_555
C39_5 C38_5 1_555 1_555
H44_5 C39_5 1_555 1_555
H45_5 C39_5 1_555 1_555
H46_5 C39_5 1_555 1_555
C40_5 C38_5 1_555 1_555
H47_5 C40_5 1_555 1_555
H48_5 C40_5 1_555 1_555
H49_5 C40_5 1_555 1_555
C41_5 C38_5 1_555 1_555
H50_5 C41_5 1_555 1_555
H51_5 C41_5 1_555 1_555
H52_5 C41_5 1_555 1_555
Mn3_3 O3_3 1_555 1_555
Mn4_3 O4_3 1_555 1_555
C26_5 C27_5 1_555 1_555
C36_5 C37_5 1_555 1_555
Mn1_4 O1_6 1_555 1_555
Mn2_4 O2_6 1_555 1_555
O1_6 N1_6 1_555 1_555
O2_6 N2_6 1_555 1_555
O3_4 N3_6 1_555 1_555
O4_4 N4_6 1_555 1_555
O5_6 Mn1_4 1_555 1_555
O6_6 Mn1_4 1_555 1_555
O7_6 Mn1_4 1_555 1_555
O8_6 Mn1_4 1_555 1_555
O9_6 Mn2_4 1_555 1_555
O10_6 Mn2_4 1_555 1_555
N1_6 C5_6 1_555 1_555
N2_6 C15_6 1_555 1_555
N3_6 C25_6 1_555 1_555
N4_6 C35_6 1_555 1_555
C1_6 C2_6 1_555 1_555
C2_6 C3_6 1_555 1_555
C3_6 H1_6 1_555 1_555
C4_6 C3_6 1_555 1_555
H2_6 C4_6 1_555 1_555
C5_6 C4_6 1_555 1_555
C6_6 C5_6 1_555 1_555
H3_6 C6_6 1_555 1_555
C7_6 C2_6 1_555 1_555
H4_6 C7_6 1_555 1_555
C8_6 N1_6 1_555 1_555
C9_6 C8_6 1_555 1_555
H5_6 C9_6 1_555 1_555
H6_6 C9_6 1_555 1_555
H7_6 C9_6 1_555 1_555
C10_6 C8_6 1_555 1_555
H8_6 C10_6 1_555 1_555
H9_6 C10_6 1_555 1_555
H10_6 C10_6 1_555 1_555
C11_6 C8_6 1_555 1_555
H11_6 C11_6 1_555 1_555
H12_6 C11_6 1_555 1_555
H13_6 C11_6 1_555 1_555
C12_6 C1_6 1_555 1_555
C13_6 C12_6 1_555 1_555
H14_6 C13_6 1_555 1_555
C14_6 C13_6 1_555 1_555
H15_6 C14_6 1_555 1_555
C15_6 C14_6 1_555 1_555
C16_6 C15_6 1_555 1_555
H16_6 C16_6 1_555 1_555
C17_6 C12_6 1_555 1_555
H17_6 C17_6 1_555 1_555
C18_6 N2_6 1_555 1_555
C19_6 C18_6 1_555 1_555
H18_6 C19_6 1_555 1_555
H19_6 C19_6 1_555 1_555
H20_6 C19_6 1_555 1_555
C20_6 C18_6 1_555 1_555
H21_6 C20_6 1_555 1_555
H22_6 C20_6 1_555 1_555
H23_6 C20_6 1_555 1_555
C21_6 C18_6 1_555 1_555
H24_6 C21_6 1_555 1_555
H25_6 C21_6 1_555 1_555
H26_6 C21_6 1_555 1_555
C22_6 C1_6 1_555 1_555
C23_6 C22_6 1_555 1_555
H27_6 C23_6 1_555 1_555
C24_6 C23_6 1_555 1_555
H28_6 C24_6 1_555 1_555
C25_6 C24_6 1_555 1_555
C26_6 C25_6 1_555 1_555
H29_6 C26_6 1_555 1_555
C27_6 C22_6 1_555 1_555
H30_6 C27_6 1_555 1_555
C28_6 N3_6 1_555 1_555
C29_6 C28_6 1_555 1_555
H31_6 C29_6 1_555 1_555
H32_6 C29_6 1_555 1_555
H33_6 C29_6 1_555 1_555
C30_6 C28_6 1_555 1_555
H34_6 C30_6 1_555 1_555
H35_6 C30_6 1_555 1_555
H36_6 C30_6 1_555 1_555
C31_6 C28_6 1_555 1_555
H37_6 C31_6 1_555 1_555
H38_6 C31_6 1_555 1_555
H39_6 C31_6 1_555 1_555
C32_6 C1_6 1_555 1_555
C33_6 C32_6 1_555 1_555
H40_6 C33_6 1_555 1_555
C34_6 C33_6 1_555 1_555
H41_6 C34_6 1_555 1_555
C35_6 C34_6 1_555 1_555
C36_6 C35_6 1_555 1_555
H42_6 C36_6 1_555 1_555
C37_6 C32_6 1_555 1_555
H43_6 C37_6 1_555 1_555
C38_6 N4_6 1_555 1_555
C39_6 C38_6 1_555 1_555
H44_6 C39_6 1_555 1_555
H45_6 C39_6 1_555 1_555
H46_6 C39_6 1_555 1_555
C40_6 C38_6 1_555 1_555
H47_6 C40_6 1_555 1_555
H48_6 C40_6 1_555 1_555
H49_6 C40_6 1_555 1_555
C41_6 C38_6 1_555 1_555
H50_6 C41_6 1_555 1_555
H51_6 C41_6 1_555 1_555
H52_6 C41_6 1_555 1_555
C42_6 C43_6 1_555 1_555
C43_6 O5_6 1_555 1_555
C44_6 C43_6 1_555 1_555
H53_6 C44_6 1_555 1_555
C45_6 O6_6 1_555 1_555
C46_6 C45_6 1_555 1_555
C47_6 C48_6 1_555 1_555
C48_6 O7_6 1_555 1_555
C49_6 C48_6 1_555 1_555
H54_6 C49_6 1_555 1_555
C50_6 O8_6 1_555 1_555
C51_6 C50_6 1_555 1_555
C52_6 C53_6 1_555 1_555
C53_6 O9_6 1_555 1_555
C54_6 C53_6 1_555 1_555
H55_6 C54_6 1_555 1_555
C55_6 O10_6 1_555 1_555
C56_6 C55_6 1_555 1_555
F1_6 C42_6 1_555 1_555
F2_6 C42_6 1_555 1_555
F3_6 C42_6 1_555 1_555
F4_6 C46_6 1_555 1_555
F5_6 C46_6 1_555 1_555
F7_6 C47_6 1_555 1_555
F8_6 C47_6 1_555 1_555
F9_6 C47_6 1_555 1_555
F10_6 C51_6 1_555 1_555
F11_6 C51_6 1_555 1_555
F12_6 C51_6 1_555 1_555
F13_6 C52_6 1_555 1_555
F14_6 C52_6 1_555 1_555
F15_6 C52_6 1_555 1_555
F16_6 C56_6 1_555 1_555
F17_6 C56_6 1_555 1_555
O13_4 Mn1_4 1_555 1_555
O14_4 Mn2_4 1_555 1_555
Mn3_4 O3_4 1_555 1_555
Mn4_4 O4_4 1_555 1_555
C6_6 C7_6 1_555 1_555
C16_6 C17_6 1_555 1_555
C26_6 C27_6 1_555 1_555
C36_6 C37_6 1_555 1_555
C44_6 C45_6 1_555 1_555
C49_6 C50_6 1_555 1_555
C54_6 C55_6 1_555 1_555
Mn4_3 O2_7 1_555 1_555
O2_7 N2_7 1_555 1_555
O13_4 N3_7 1_555 1_555
O9_7 Mn4_3 1_555 1_555
O10_7 Mn4_3 1_555 1_555
O11_5 Mn4_3 1_555 1_555
O12_5 Mn4_3 1_555 1_555
N2_7 C15_7 1_555 1_555
N3_7 C25_7 1_555 1_555
C1_7 C2_7 1_555 1_555
C2_7 C3_7 1_555 1_555
C3_7 H1_7 1_555 1_555
C4_7 C3_7 1_555 1_555
H2_7 C4_7 1_555 1_555
C5_7 C4_7 1_555 1_555
C6_7 C5_7 1_555 1_555
H3_7 C6_7 1_555 1_555
C7_7 C2_7 1_555 1_555
H4_7 C7_7 1_555 1_555
C12_7 C1_7 1_555 1_555
C13_7 C12_7 1_555 1_555
H14_7 C13_7 1_555 1_555
C14_7 C13_7 1_555 1_555
H15_7 C14_7 1_555 1_555
C15_7 C14_7 1_555 1_555
C16_7 C15_7 1_555 1_555
H16_7 C16_7 1_555 1_555
C17_7 C12_7 1_555 1_555
H17_7 C17_7 1_555 1_555
C18_7 N2_7 1_555 1_555
C19_7 C18_7 1_555 1_555
H18_7 C19_7 1_555 1_555
H19_7 C19_7 1_555 1_555
H20_7 C19_7 1_555 1_555
C20_7 C18_7 1_555 1_555
H21_7 C20_7 1_555 1_555
H22_7 C20_7 1_555 1_555
H23_7 C20_7 1_555 1_555
C21_7 C18_7 1_555 1_555
H24_7 C21_7 1_555 1_555
H25_7 C21_7 1_555 1_555
H26_7 C21_7 1_555 1_555
C22_7 C1_7 1_555 1_555
C23_7 C22_7 1_555 1_555
H27_7 C23_7 1_555 1_555
C24_7 C23_7 1_555 1_555
H28_7 C24_7 1_555 1_555
C25_7 C24_7 1_555 1_555
C26_7 C25_7 1_555 1_555
H29_7 C26_7 1_555 1_555
C27_7 C22_7 1_555 1_555
H30_7 C27_7 1_555 1_555
C28_7 N3_7 1_555 1_555
C29_7 C28_7 1_555 1_555
H31_7 C29_7 1_555 1_555
H32_7 C29_7 1_555 1_555
H33_7 C29_7 1_555 1_555
C30_7 C28_7 1_555 1_555
H34_7 C30_7 1_555 1_555
H35_7 C30_7 1_555 1_555
H36_7 C30_7 1_555 1_555
C31_7 C28_7 1_555 1_555
H37_7 C31_7 1_555 1_555
H38_7 C31_7 1_555 1_555
H39_7 C31_7 1_555 1_555
C32_7 C1_7 1_555 1_555
C33_7 C32_7 1_555 1_555
H40_7 C33_7 1_555 1_555
C34_7 C33_7 1_555 1_555
C35_7 C34_7 1_555 1_555
C36_7 C35_7 1_555 1_555
H42_7 C36_7 1_555 1_555
C37_7 C32_7 1_555 1_555
H43_7 C37_7 1_555 1_555
C47_7 C48_7 1_555 1_555
C48_7 O7_7 1_555 1_555
C49_7 C48_7 1_555 1_555
H54_7 C49_7 1_555 1_555
C50_7 O8_7 1_555 1_555
C51_7 C50_7 1_555 1_555
C52_7 C53_7 1_555 1_555
C53_7 O9_7 1_555 1_555
C54_7 C53_7 1_555 1_555
H55_7 C54_7 1_555 1_555
C55_7 O10_7 1_555 1_555
C56_7 C55_7 1_555 1_555
C57_5 C58_5 1_555 1_555
C58_5 O11_5 1_555 1_555
C59_5 C58_5 1_555 1_555
H56_5 C59_5 1_555 1_555
C60_5 O12_5 1_555 1_555
C61_5 C60_5 1_555 1_555
F7_7 C47_7 1_555 1_555
F8_7 C47_7 1_555 1_555
F9_7 C47_7 1_555 1_555
F10_7 C51_7 1_555 1_555
F11_7 C51_7 1_555 1_555
F12_7 C51_7 1_555 1_555
F13_7 C52_7 1_555 1_555
F14_7 C52_7 1_555 1_555
F15_7 C52_7 1_555 1_555
F16_7 C56_7 1_555 1_555
F17_7 C56_7 1_555 1_555
F18_5 C56_7 1_555 1_555
F19_5 C57_5 1_555 1_555
F20_5 C57_5 1_555 1_555
F21_5 C57_5 1_555 1_555
F22_5 C61_5 1_555 1_555
F23_5 C61_5 1_555 1_555
F24_5 C61_5 1_555 1_555
C6_7 C7_7 1_555 1_555
C16_7 C17_7 1_555 1_555
C26_7 C27_7 1_555 1_555
C36_7 C37_7 1_555 1_555
C49_7 C50_7 1_555 1_555
C54_7 C55_7 1_555 1_555
C59_5 C60_5 1_555 1_555
Mn3_3 O1_7 1_555 1_555
O1_7 N1_7 1_555 1_555
O5_7 Mn3_3 1_555 1_555
O6_7 Mn3_3 1_555 1_555
C8_7 N1_7 1_555 1_555
C9_7 C8_7 1_555 1_555
H5_7 C9_7 1_555 1_555
H6_7 C9_7 1_555 1_555
H7_7 C9_7 1_555 1_555
C10_7 C8_7 1_555 1_555
H8_7 C10_7 1_555 1_555
H9_7 C10_7 1_555 1_555
H10_7 C10_7 1_555 1_555
C11_7 C8_7 1_555 1_555
H11_7 C11_7 1_555 1_555
H12_7 C11_7 1_555 1_555
H13_7 C11_7 1_555 1_555
C42_7 C43_7 1_555 1_555
C43_7 O5_7 1_555 1_555
C44_7 C43_7 1_555 1_555
H53_7 C44_7 1_555 1_555
C45_7 O6_7 1_555 1_555
C46_7 C45_7 1_555 1_555
F4_7 C46_7 1_555 1_555
F5_7 C46_7 1_555 1_555
F6_6 C46_7 1_555 1_555
C44_7 C45_7 1_555 1_555
O14_4 N4_7 1_555 1_555
C38_7 N4_7 1_555 1_555
C39_7 C38_7 1_555 1_555
H44_7 C39_7 1_555 1_555
C40_7 C38_7 1_555 1_555
H48_7 C40_7 1_555 1_555
H49_7 C40_7 1_555 1_555
C41_7 C38_7 1_555 1_555
H50_7 C41_7 1_555 1_555
H51_7 C41_7 1_555 1_555
H52_7 C41_7 1_555 1_555
O14_3 N4_8 1_555 1_555
C38_8 N4_8 1_555 1_555
C39_8 C38_8 1_555 1_555
H44_8 C39_8 1_555 1_555
C40_8 C38_8 1_555 1_555
H48_8 C40_8 1_555 1_555
H49_8 C40_8 1_555 1_555
C41_8 C38_8 1_555 1_555
H50_8 C41_8 1_555 1_555
H51_8 C41_8 1_555 1_555
H52_8 C41_8 1_555 1_555
Mn3_4 O1_8 1_555 1_555
O1_8 N1_8 1_555 1_555
O5_8 Mn3_4 1_555 1_555
O6_8 Mn3_4 1_555 1_555
C8_8 N1_8 1_555 1_555
C9_8 C8_8 1_555 1_555
H5_8 C9_8 1_555 1_555
H6_8 C9_8 1_555 1_555
H7_8 C9_8 1_555 1_555
C10_8 C8_8 1_555 1_555
H8_8 C10_8 1_555 1_555
H9_8 C10_8 1_555 1_555
H10_8 C10_8 1_555 1_555
C11_8 C8_8 1_555 1_555
H11_8 C11_8 1_555 1_555
H12_8 C11_8 1_555 1_555
H13_8 C11_8 1_555 1_555
C42_8 C43_8 1_555 1_555
C43_8 O5_8 1_555 1_555
C44_8 C43_8 1_555 1_555
H53_8 C44_8 1_555 1_555
C45_8 O6_8 1_555 1_555
C46_8 C45_8 1_555 1_555
F1_7 C42_8 1_555 1_555
F3_7 C42_8 1_555 1_555
F4_8 C46_8 1_555 1_555
F5_8 C46_8 1_555 1_555
F6_7 C46_8 1_555 1_555
C44_8 C45_8 1_555 1_555
Mn4_4 O2_8 1_555 1_555
O2_8 N2_8 1_555 1_555
O13_3 N3_8 1_555 1_555
O9_8 Mn4_4 1_555 1_555
O10_8 Mn4_4 1_555 1_555
O11_6 Mn4_4 1_555 1_555
O12_6 Mn4_4 1_555 1_555
N2_8 C15_8 1_555 1_555
N3_8 C25_8 1_555 1_555
C1_8 C2_8 1_555 1_555
C2_8 C3_8 1_555 1_555
C3_8 H1_8 1_555 1_555
C4_8 C3_8 1_555 1_555
H2_8 C4_8 1_555 1_555
C5_8 C4_8 1_555 1_555
C6_8 C5_8 1_555 1_555
H3_8 C6_8 1_555 1_555
C7_8 C2_8 1_555 1_555
H4_8 C7_8 1_555 1_555
C12_8 C1_8 1_555 1_555
C13_8 C12_8 1_555 1_555
H14_8 C13_8 1_555 1_555
C14_8 C13_8 1_555 1_555
H15_8 C14_8 1_555 1_555
C15_8 C14_8 1_555 1_555
C16_8 C15_8 1_555 1_555
H16_8 C16_8 1_555 1_555
C17_8 C12_8 1_555 1_555
H17_8 C17_8 1_555 1_555
C18_8 N2_8 1_555 1_555
C19_8 C18_8 1_555 1_555
H18_8 C19_8 1_555 1_555
H19_8 C19_8 1_555 1_555
H20_8 C19_8 1_555 1_555
C20_8 C18_8 1_555 1_555
H21_8 C20_8 1_555 1_555
H22_8 C20_8 1_555 1_555
H23_8 C20_8 1_555 1_555
C21_8 C18_8 1_555 1_555
H24_8 C21_8 1_555 1_555
H25_8 C21_8 1_555 1_555
H26_8 C21_8 1_555 1_555
C22_8 C1_8 1_555 1_555
C23_8 C22_8 1_555 1_555
H27_8 C23_8 1_555 1_555
C24_8 C23_8 1_555 1_555
H28_8 C24_8 1_555 1_555
C25_8 C24_8 1_555 1_555
C26_8 C25_8 1_555 1_555
H29_8 C26_8 1_555 1_555
C27_8 C22_8 1_555 1_555
H30_8 C27_8 1_555 1_555
C28_8 N3_8 1_555 1_555
C29_8 C28_8 1_555 1_555
H31_8 C29_8 1_555 1_555
H32_8 C29_8 1_555 1_555
H33_8 C29_8 1_555 1_555
C30_8 C28_8 1_555 1_555
H34_8 C30_8 1_555 1_555
H35_8 C30_8 1_555 1_555
H36_8 C30_8 1_555 1_555
C31_8 C28_8 1_555 1_555
H37_8 C31_8 1_555 1_555
H38_8 C31_8 1_555 1_555
H39_8 C31_8 1_555 1_555
C32_8 C1_8 1_555 1_555
C33_8 C32_8 1_555 1_555
H40_8 C33_8 1_555 1_555
C34_8 C33_8 1_555 1_555
C35_8 C34_8 1_555 1_555
C36_8 C35_8 1_555 1_555
H42_8 C36_8 1_555 1_555
C37_8 C32_8 1_555 1_555
H43_8 C37_8 1_555 1_555
C47_8 C48_8 1_555 1_555
C48_8 O7_8 1_555 1_555
C49_8 C48_8 1_555 1_555
H54_8 C49_8 1_555 1_555
C50_8 O8_8 1_555 1_555
C51_8 C50_8 1_555 1_555
C52_8 C53_8 1_555 1_555
C53_8 O9_8 1_555 1_555
C54_8 C53_8 1_555 1_555
H55_8 C54_8 1_555 1_555
C55_8 O10_8 1_555 1_555
C56_8 C55_8 1_555 1_555
C57_6 C58_6 1_555 1_555
C58_6 O11_6 1_555 1_555
C59_6 C58_6 1_555 1_555
H56_6 C59_6 1_555 1_555
C60_6 O12_6 1_555 1_555
C61_6 C60_6 1_555 1_555
F7_8 C47_8 1_555 1_555
F8_8 C47_8 1_555 1_555
F9_8 C47_8 1_555 1_555
F10_8 C51_8 1_555 1_555
F11_8 C51_8 1_555 1_555
F12_8 C51_8 1_555 1_555
F13_8 C52_8 1_555 1_555
F14_8 C52_8 1_555 1_555
F15_8 C52_8 1_555 1_555
F16_8 C56_8 1_555 1_555
F17_8 C56_8 1_555 1_555
F18_6 C56_8 1_555 1_555
F19_6 C57_6 1_555 1_555
F20_6 C57_6 1_555 1_555
F21_6 C57_6 1_555 1_555
F22_6 C61_6 1_555 1_555
F23_6 C61_6 1_555 1_555
F24_6 C61_6 1_555 1_555
C6_8 C7_8 1_555 1_555
C16_8 C17_8 1_555 1_555
C26_8 C27_8 1_555 1_555
C36_8 C37_8 1_555 1_555
C49_8 C50_8 1_555 1_555
C54_8 C55_8 1_555 1_555
C59_6 C60_6 1_555 1_555
C57_7 C58_7 1_555 1_555
C58_7 O11_7 1_555 1_555
C59_7 C58_7 1_555 1_555
H56_7 C59_7 1_555 1_555
C60_7 O12_7 1_555 1_555
C61_7 C60_7 1_555 1_555
F19_7 C57_7 1_555 1_555
F20_7 C57_7 1_555 1_555
F21_7 C57_7 1_555 1_555
F22_7 C61_7 1_555 1_555
F23_7 C61_7 1_555 1_555
F24_7 C61_7 1_555 1_555
C59_7 C60_7 1_555 1_555
C57_8 C58_8 1_555 1_555
C58_8 O11_8 1_555 1_555
C59_8 C58_8 1_555 1_555
H56_8 C59_8 1_555 1_555
C60_8 O12_8 1_555 1_555
C61_8 C60_8 1_555 1_555
F19_8 C57_8 1_555 1_555
F20_8 C57_8 1_555 1_555
F21_8 C57_8 1_555 1_555
F22_8 C61_8 1_555 1_555
F23_8 C61_8 1_555 1_555
F24_8 C61_8 1_555 1_555
C59_8 C60_8 1_555 1_555

#END
