
###############################################################################
#
# This file contains modified crystal structure data generated from the
# MOF subset of the Cambridge Structural Database (CSD) v543 
# hosted by the Cambridge Crystallographic Data Centre (CCDC).
#
# This work is licensed under the Creative Commons
# Attribution-NonCommercial-ShareAlike 4.0 International License.
# To view a copy of this license, visit
# http://creativecommons.org/licenses/by-nc-sa/4.0/
# or send a letter to
# Creative Commons, PO Box 1866, Mountain View, CA 94042, USA.
#
# CIF created using the CSD Python API on 29 September 2022
# The structure has been converted into the P1 space group
# The structure has a 3D framework
# The original CSD entry TIFHEX is in the monoclinic crystal system
# The framework has been calculated to contain at least 10.0% void space
# The void calculation uses a probe of radius 1.32A, grid spacing 0.4
# The framework is charged, counterions have been retained in the structure
# H atom positions have been added when not included in the experimental data
#
###############################################################################

data_TIFHEX
_chemical_formula_moiety         '(C192 H256 Cl24 N32 O160 Sm8)n'
_symmetry_cell_setting           triclinic
_symmetry_space_group_name_H-M   'P 1'
_symmetry_Int_Tables_number      1
_space_group_name_Hall           'P 1'
loop_
_symmetry_equiv_pos_site_id
_symmetry_equiv_pos_as_xyz
1 x,y,z
_cell_length_a                   33.813(4)
_cell_length_b                   23.079(3)
_cell_length_c                   24.287(5)
_cell_angle_alpha                90
_cell_angle_beta                 134.116(10)
_cell_angle_gamma                90
_cell_volume                     13606.9
loop_
_atom_site_label
_atom_site_type_symbol
_atom_site_fract_x
_atom_site_fract_y
_atom_site_fract_z
Sm1 Sm 0.75746(3) 0.37308(4) 0.28022(5)
O1 O 0.6868(5) 0.3173(6) 0.1762(8)
O3 O 0.8006(5) 0.4412(6) 0.3806(8)
O4 O 0.7328(6) 0.5592(6) 0.6903(8)
O5 O 0.7170(5) 0.3359(6) 0.3251(8)
O6 O 0.6795(5) 0.4342(6) 0.2362(8)
O7 O 0.7856(6) 0.3204(6) 0.2218(8)
O8 O 0.8498(6) 0.4023(6) 0.3394(7)
N1 N 0.6347(6) 0.3024(7) 0.1358(8)
N3 N 0.7895(6) 0.4609(7) 0.4211(9)
N4 N 0.7441(6) 0.5482(7) 0.6487(9)
C1 C 0.5970(8) 0.3414(9) 0.0903(11)
H1 H 0.6066 0.3784 0.0878
C2 C 0.5412(7) 0.3262(9) 0.0446(11)
H2 H 0.5141 0.3539 0.0123
C3 C 0.5262(7) 0.2727(7) 0.0466(10)
C4 C 0.5701(8) 0.2349(8) 0.0959(11)
H3 H 0.5617 0.1972 0.0983
C5 C 0.6221(8) 0.2474(8) 0.1393(11)
C6 C 0.6705(10) 0.2049(10) 0.1943(15)
H4 H 0.6565 0.1677 0.1914
H5 H 0.6946 0.2193 0.2459
H6 H 0.6905 0.2013 0.1798
C8 C 0.4551(8) 0.2032(10) 0.0109(11)
H7 H 0.4826 0.1790 0.0510
C13 C 0.7941(10) 0.4262(11) 0.4641(14)
H13 H 0.8044 0.3883 0.4662
C14 C 0.7841(9) 0.4420(9) 0.5123(11)
H14 H 0.7861 0.4150 0.5426
C15 C 0.7717(8) 0.4986(9) 0.5098(11)
C16 C 0.7654(9) 0.5340(11) 0.4595(12)
H15 H 0.7555 0.5723 0.4562
C17 C 0.7728(8) 0.5167(9) 0.4135(11)
C18 C 0.7692(12) 0.5532(10) 0.3607(14)
H16 H 0.7760 0.5301 0.3352
H17 H 0.7962 0.5836 0.3892
H18 H 0.7331 0.5700 0.3234
C19 C 0.7638(8) 0.5155(9) 0.5600(11)
C20 C 0.7811(8) 0.4842(9) 0.6200(12)
H19 H 0.8004 0.4503 0.6314
C21 C 0.7724(9) 0.4988(9) 0.6665(11)
C22 C 0.7266(8) 0.5816(9) 0.5908(10)
H20 H 0.7075 0.6153 0.5813
C23 C 0.7344(10) 0.5702(10) 0.5470(13)
H21 H 0.7221 0.5956 0.5080
C24 C 0.7913(11) 0.4626(10) 0.7273(15)
H22 H 0.7819 0.4795 0.7532
H23 H 0.8305 0.4584 0.7628
H24 H 0.7742 0.4252 0.7076
Sm2 Sm 0.75746(3) 0.62692(4) 0.78022(5)
O9 O 0.8087(5) 0.2945(6) 0.3656(8)
O10 O 0.7328(6) 0.4408(6) 0.1903(8)
H25 H 0.718813 0.292916 0.326738
H26 H 0.737667 0.351122 0.377312
H27 H 0.655293 0.411183 0.237394
H28 H 0.693997 0.468267 0.270589
H29 H 0.846933 0.424242 0.301569
H30 H 0.86699 0.427207 0.38463
H31 H 0.761564 0.332513 0.16749
H32 H 0.824522 0.3298 0.250667
Sm1_2 Sm 0.25746(3) 0.87308(4) 0.28022(5)
O1_2 O 0.1868(5) 0.8173(6) 0.1762(8)
O3_2 O 0.3006(5) 0.9412(6) 0.3806(8)
O5_2 O 0.2170(5) 0.8359(6) 0.3251(8)
O6_2 O 0.1795(5) 0.9342(6) 0.2362(8)
O7_2 O 0.2856(6) 0.8204(6) 0.2218(8)
O8_2 O 0.3498(6) 0.9023(6) 0.3394(7)
N1_2 N 0.1347(6) 0.8024(7) 0.1358(8)
N3_2 N 0.2895(6) 0.9609(7) 0.4211(9)
C1_2 C 0.0970(8) 0.8414(9) 0.0903(11)
H1_2 H 0.1066 0.8784 0.0878
C2_2 C 0.0412(7) 0.8262(9) 0.0446(11)
H2_2 H 0.0141 0.8539 0.0123
C3_2 C 0.0262(7) 0.7727(7) 0.0466(10)
C4_2 C 0.0701(8) 0.7349(8) 0.0959(11)
H3_2 H 0.0617 0.6972 0.0983
C5_2 C 0.1221(8) 0.7474(8) 0.1393(11)
C6_2 C 0.1705(10) 0.7049(10) 0.1943(15)
H4_2 H 0.1565 0.6677 0.1914
H5_2 H 0.1946 0.7193 0.2459
H6_2 H 0.1905 0.7013 0.1798
C13_2 C 0.2941(10) 0.9262(11) 0.4641(14)
H13_2 H 0.3044 0.8883 0.4662
C14_2 C 0.2841(9) 0.9420(9) 0.5123(11)
H14_2 H 0.2861 0.9150 0.5426
C15_2 C 0.2717(8) 0.9986(9) 0.5098(11)
C20_2 C 0.2811(8) 0.9842(9) 0.6200(12)
H19_2 H 0.3004 0.9503 0.6314
C21_2 C 0.2724(9) 0.9988(9) 0.6665(11)
C24_2 C 0.2913(11) 0.9626(10) 0.7273(15)
H22_2 H 0.2819 0.9795 0.7532
H23_2 H 0.3305 0.9584 0.7628
H24_2 H 0.2742 0.9252 0.7076
O9_2 O 0.3087(5) 0.7945(6) 0.3656(8)
O10_2 O 0.2328(6) 0.9408(6) 0.1903(8)
H25_2 H 0.218813 0.792916 0.326738
H26_2 H 0.237667 0.851122 0.377312
H27_2 H 0.155293 0.911183 0.237394
H28_2 H 0.193997 0.968267 0.270589
H29_2 H 0.346933 0.924242 0.301569
H30_2 H 0.36699 0.927207 0.38463
H31_2 H 0.261564 0.832513 0.16749
H32_2 H 0.324522 0.8298 0.250667
O2 O 0.8087(5) 0.7055(6) 0.8656(8)
N2 N 0.8592(6) 0.7220(7) 0.9068(9)
C7 C 0.9691(7) 0.7545(8) 0.9987(10)
C9 C 0.9009(8) 0.6876(9) 0.9645(12)
H8 H 0.8926 0.6523 0.9729
C10 C 0.8696(8) 0.7721(9) 0.8904(12)
C11 C 0.9244(8) 0.7875(8) 0.9359(13)
H9 H 0.9320 0.8214 0.9241
C12 C 0.8213(10) 0.8095(11) 0.8229(14)
H10 H 0.7871 0.7911 0.7992
H11 H 0.8237 0.8136 0.7860
H12 H 0.8230 0.8471 0.8414
N4_2 N 0.7441(6) 0.4518(7) 0.1487(9)
C14_3 C 0.7841(9) 0.5580(9) 0.0123(11)
H14_3 H 0.7861 0.5850 0.0426
C15_3 C 0.7717(8) 0.5014(9) 0.0098(11)
C19_2 C 0.7638(8) 0.4845(9) 0.0600(11)
C20_3 C 0.7811(8) 0.5158(9) 0.1200(12)
H19_3 H 0.8004 0.5497 0.1314
C21_3 C 0.7724(9) 0.5012(9) 0.1665(11)
C22_2 C 0.7266(8) 0.4184(9) 0.0908(10)
H20_2 H 0.7075 0.3847 0.0813
C23_2 C 0.7344(10) 0.4298(10) 0.0470(13)
H21_2 H 0.7221 0.4044 0.0080
C24_3 C 0.7913(11) 0.5374(10) 0.2273(15)
H22_3 H 0.7819 0.5205 0.2532
H23_3 H 0.8305 0.5416 0.2628
H24_3 H 0.7742 0.5748 0.2076
O1_3 O 0.6868(5) 0.6827(6) 0.6762(8)
O3_3 O 0.8006(5) 0.5588(6) 0.8806(8)
O5_3 O 0.7170(5) 0.6641(6) 0.8251(8)
O6_3 O 0.6795(5) 0.5658(6) 0.7362(8)
O7_3 O 0.7856(6) 0.6796(6) 0.7218(8)
O8_3 O 0.8498(6) 0.5977(6) 0.8394(7)
N1_3 N 0.6347(6) 0.6976(7) 0.6358(8)
N2_2 N 0.3592(6) 0.7780(7) 0.4068(9)
N3_3 N 0.7895(6) 0.5391(7) 0.9211(9)
C1_3 C 0.5970(8) 0.6586(9) 0.5903(11)
H1_3 H 0.6066 0.6216 0.5878
C2_3 C 0.5412(7) 0.6738(9) 0.5446(11)
H2_3 H 0.5141 0.6461 0.5123
C3_3 C 0.5262(7) 0.7273(7) 0.5466(10)
C4_3 C 0.5701(8) 0.7651(8) 0.5959(11)
H3_3 H 0.5617 0.8028 0.5983
C5_3 C 0.6221(8) 0.7526(8) 0.6393(11)
C6_3 C 0.6705(10) 0.7951(10) 0.6943(15)
H4_3 H 0.6565 0.8323 0.6914
H5_3 H 0.6946 0.7807 0.7459
H6_3 H 0.6905 0.7987 0.6798
C7_2 C 0.4691(7) 0.7455(8) 0.4987(10)
C8_2 C 0.4551(8) 0.7968(10) 0.5109(11)
H7_2 H 0.4826 0.8210 0.5510
C9_2 C 0.4009(8) 0.8124(9) 0.4645(12)
H8_2 H 0.3926 0.8477 0.4729
C10_2 C 0.3696(8) 0.7279(9) 0.3904(12)
C11_2 C 0.4244(8) 0.7125(8) 0.4359(13)
H9_2 H 0.4320 0.6786 0.4241
C12_2 C 0.3213(10) 0.6905(11) 0.3229(14)
H10_2 H 0.2871 0.7089 0.2992
H11_2 H 0.3237 0.6864 0.2860
H12_2 H 0.3230 0.6529 0.3414
C13_3 C 0.7941(10) 0.5738(11) 0.9641(14)
H13_3 H 0.8044 0.6117 0.9662
C16_2 C 0.7654(9) 0.4660(11) 0.9595(12)
H15_2 H 0.7555 0.4277 0.9562
C17_2 C 0.7728(8) 0.4833(9) 0.9135(11)
C18_2 C 0.7692(12) 0.4468(10) 0.8607(14)
H16_2 H 0.7760 0.4699 0.8352
H17_2 H 0.7962 0.4164 0.8892
H18_2 H 0.7331 0.4300 0.8234
H25_3 H 0.718813 0.707084 0.826738
H26_3 H 0.737667 0.648878 0.877312
H27_3 H 0.655293 0.588817 0.737394
H28_3 H 0.693997 0.531733 0.770589
H29_3 H 0.846933 0.575758 0.801569
H30_3 H 0.86699 0.572793 0.88463
H31_3 H 0.761564 0.667487 0.66749
H32_3 H 0.824522 0.6702 0.750667
N4_3 N 0.2441(6) 0.9518(7) 0.1487(9)
C19_3 C 0.2638(8) 0.9845(9) 0.0600(11)
C22_3 C 0.2266(8) 0.9184(9) 0.0908(10)
H20_3 H 0.2075 0.8847 0.0813
C23_3 C 0.2344(10) 0.9298(10) 0.0470(13)
H21_3 H 0.2221 0.9044 0.0080
N2_3 N 0.8592(6) 0.2780(7) 0.4068(9)
C7_3 C 0.9691(7) 0.2455(8) 0.4987(10)
C8_3 C 0.9551(8) 0.2968(10) 0.5109(11)
H7_3 H 0.9826 0.3210 0.5510
C9_3 C 0.9009(8) 0.3124(9) 0.4645(12)
H8_3 H 0.8926 0.3477 0.4729
C10_3 C 0.8696(8) 0.2279(9) 0.3904(12)
C11_3 C 0.9244(8) 0.2125(8) 0.4359(13)
H9_3 H 0.9320 0.1786 0.4241
C12_3 C 0.8213(10) 0.1905(11) 0.3229(14)
H10_3 H 0.7871 0.2089 0.2992
H11_3 H 0.8237 0.1864 0.2860
H12_3 H 0.8230 0.1529 0.3414
O2_2 O 0.3087(5) 0.2055(6) 0.8656(8)
N2_4 N 0.3592(6) 0.2220(7) 0.9068(9)
C7_4 C 0.4691(7) 0.2545(8) 0.9987(10)
C9_4 C 0.4009(8) 0.1876(9) 0.9645(12)
H8_4 H 0.3926 0.1523 0.9729
C10_4 C 0.3696(8) 0.2721(9) 0.8904(12)
C11_4 C 0.4244(8) 0.2875(8) 0.9359(13)
H9_4 H 0.4320 0.3214 0.9241
C12_4 C 0.3213(10) 0.3095(11) 0.8229(14)
H10_4 H 0.2871 0.2911 0.7992
H11_4 H 0.3237 0.3136 0.7860
H12_4 H 0.3230 0.3471 0.8414
Sm3 Sm 0.25746(3) 0.12692(4) 0.78022(5)
O4_2 O 0.2328(6) 0.0592(6) 0.6903(8)
N4_4 N 0.2441(6) 0.0482(7) 0.6487(9)
C16_3 C 0.2654(9) 0.0340(11) 0.4595(12)
H15_3 H 0.2555 0.0723 0.4562
C17_3 C 0.2728(8) 0.0167(9) 0.4135(11)
C18_3 C 0.2692(12) 0.0532(10) 0.3607(14)
H16_3 H 0.2760 0.0301 0.3352
H17_3 H 0.2962 0.0836 0.3892
H18_3 H 0.2331 0.0700 0.3234
C19_4 C 0.2638(8) 0.0155(9) 0.5600(11)
C22_4 C 0.2266(8) 0.0816(9) 0.5908(10)
H20_4 H 0.2075 0.1153 0.5813
C23_4 C 0.2344(10) 0.0702(10) 0.5470(13)
H21_4 H 0.2221 0.0956 0.5080
O1_4 O 0.1868(5) 0.1827(6) 0.6762(8)
O3_4 O 0.3006(5) 0.0588(6) 0.8806(8)
O5_4 O 0.2170(5) 0.1641(6) 0.8251(8)
O6_4 O 0.1795(5) 0.0658(6) 0.7362(8)
O7_4 O 0.2856(6) 0.1796(6) 0.7218(8)
O8_4 O 0.3498(6) 0.0977(6) 0.8394(7)
N1_4 N 0.1347(6) 0.1976(7) 0.6358(8)
N3_4 N 0.2895(6) 0.0391(7) 0.9211(9)
C1_4 C 0.0970(8) 0.1586(9) 0.5903(11)
H1_4 H 0.1066 0.1216 0.5878
C2_4 C 0.0412(7) 0.1738(9) 0.5446(11)
H2_4 H 0.0141 0.1461 0.5123
C3_4 C 0.0262(7) 0.2273(7) 0.5466(10)
C4_4 C 0.0701(8) 0.2651(8) 0.5959(11)
H3_4 H 0.0617 0.3028 0.5983
C5_4 C 0.1221(8) 0.2526(8) 0.6393(11)
C6_4 C 0.1705(10) 0.2951(10) 0.6943(15)
H4_4 H 0.1565 0.3323 0.6914
H5_4 H 0.1946 0.2807 0.7459
H6_4 H 0.1905 0.2987 0.6798
C13_4 C 0.2941(10) 0.0738(11) 0.9641(14)
H13_4 H 0.3044 0.1117 0.9662
H25_4 H 0.218813 0.207084 0.826738
H26_4 H 0.237667 0.148878 0.877312
H27_4 H 0.155293 0.0888174 0.737394
H28_4 H 0.193997 0.0317326 0.770589
H29_4 H 0.346933 0.0757583 0.801569
H30_4 H 0.36699 0.0727929 0.88463
H31_4 H 0.261564 0.167487 0.66749
H32_4 H 0.324522 0.1702 0.750667
Sm1_3 Sm 0.24254(3) 0.37308(4) 0.21978(5)
O1_5 O 0.3132(5) 0.3173(6) 0.3238(8)
O2_3 O 0.6913(5) 0.2055(6) 0.6344(8)
O3_5 O 0.1994(5) 0.4412(6) 0.1194(8)
O5_5 O 0.2830(5) 0.3359(6) 0.1749(8)
O6_5 O 0.3205(5) 0.4342(6) 0.2638(8)
O7_5 O 0.2144(6) 0.3204(6) 0.2782(8)
O8_5 O 0.1502(6) 0.4023(6) 0.1606(7)
N1_5 N 0.3653(6) 0.3024(7) 0.3642(8)
N2_5 N 0.6408(6) 0.2220(7) 0.5932(9)
N3_5 N 0.2105(6) 0.4609(7) 0.0789(9)
C1_5 C 0.4030(8) 0.3414(9) 0.4097(11)
H1_5 H 0.3934 0.3784 0.4122
C2_5 C 0.4588(7) 0.3262(9) 0.4554(11)
H2_5 H 0.4859 0.3539 0.4877
C3_5 C 0.4738(7) 0.2727(7) 0.4534(10)
C4_5 C 0.4299(8) 0.2349(8) 0.4041(11)
H3_5 H 0.4383 0.1972 0.4017
C5_5 C 0.3779(8) 0.2474(8) 0.3607(11)
C6_5 C 0.3295(10) 0.2049(10) 0.3057(15)
H4_5 H 0.3435 0.1677 0.3086
H5_5 H 0.3054 0.2193 0.2541
H6_5 H 0.3095 0.2013 0.3202
C7_5 C 0.5309(7) 0.2545(8) 0.5013(10)
C8_4 C 0.5449(8) 0.2032(10) 0.4891(11)
H7_4 H 0.5174 0.1790 0.4490
C9_5 C 0.5991(8) 0.1876(9) 0.5355(12)
H8_5 H 0.6074 0.1523 0.5271
C10_5 C 0.6304(8) 0.2721(9) 0.6096(12)
C11_5 C 0.5756(8) 0.2875(8) 0.5641(13)
H9_5 H 0.5680 0.3214 0.5759
C12_5 C 0.6787(10) 0.3095(11) 0.6771(14)
H10_5 H 0.7129 0.2911 0.7008
H11_5 H 0.6763 0.3136 0.7140
H12_5 H 0.6770 0.3471 0.6586
C13_5 C 0.2059(10) 0.4262(11) 0.0359(14)
H13_5 H 0.1956 0.3883 0.0338
C16_4 C 0.2346(9) 0.5340(11) 0.0405(12)
H15_4 H 0.2445 0.5723 0.0438
C17_4 C 0.2272(8) 0.5167(9) 0.0865(11)
C18_4 C 0.2308(12) 0.5532(10) 0.1393(14)
H16_4 H 0.2240 0.5301 0.1648
H17_4 H 0.2038 0.5836 0.1108
H18_4 H 0.2669 0.5700 0.1766
Sm3_2 Sm 0.74254(3) 0.12692(4) 0.71978(5)
O9_3 O 0.1913(5) 0.2945(6) 0.1344(8)
O10_3 O 0.2672(6) 0.4408(6) 0.3097(8)
H25_5 H 0.281187 0.292916 0.173262
H26_5 H 0.262333 0.351122 0.122688
H27_5 H 0.344707 0.411183 0.262606
H28_5 H 0.306003 0.468267 0.229411
H29_5 H 0.153067 0.424242 0.198431
H30_5 H 0.13301 0.427207 0.11537
H31_5 H 0.238436 0.332513 0.33251
H32_5 H 0.175478 0.3298 0.249333
O4_3 O 0.2672(6) 0.5592(6) 0.8097(8)
N4_5 N 0.2559(6) 0.5482(7) 0.8513(9)
C14_4 C 0.2159(9) 0.4420(9) 0.9877(11)
H14_4 H 0.2139 0.4150 0.9574
C15_4 C 0.2283(8) 0.4986(9) 0.9902(11)
C19_5 C 0.2362(8) 0.5155(9) 0.9400(11)
C20_4 C 0.2189(8) 0.4842(9) 0.8800(12)
H19_4 H 0.1996 0.4503 0.8686
C21_4 C 0.2276(9) 0.4988(9) 0.8335(11)
C22_5 C 0.2734(8) 0.5816(9) 0.9092(10)
H20_5 H 0.2925 0.6153 0.9187
C23_5 C 0.2656(10) 0.5702(10) 0.9530(13)
H21_5 H 0.2779 0.5956 0.9920
C24_4 C 0.2087(11) 0.4626(10) 0.7727(15)
H22_4 H 0.2181 0.4795 0.7468
H23_4 H 0.1695 0.4584 0.7372
H24_4 H 0.2258 0.4252 0.7924
Sm2_2 Sm 0.24254(3) 0.62692(4) 0.71978(5)
O2_4 O 0.1913(5) 0.7055(6) 0.6344(8)
N2_6 N 0.1408(6) 0.7220(7) 0.5932(9)
C7_6 C 0.0309(7) 0.7545(8) 0.5013(10)
C8_5 C 0.0449(8) 0.7032(10) 0.4891(11)
H7_5 H 0.0174 0.6790 0.4490
C9_6 C 0.0991(8) 0.6876(9) 0.5355(12)
H8_6 H 0.1074 0.6523 0.5271
C10_6 C 0.1304(8) 0.7721(9) 0.6096(12)
C11_6 C 0.0756(8) 0.7875(8) 0.5641(13)
H9_6 H 0.0680 0.8214 0.5759
C12_6 C 0.1787(10) 0.8095(11) 0.6771(14)
H10_6 H 0.2129 0.7911 0.7008
H11_6 H 0.1763 0.8136 0.7140
H12_6 H 0.1770 0.8471 0.6586
O4_4 O 0.7672(6) 0.0592(6) 0.8097(8)
N4_6 N 0.7559(6) 0.0482(7) 0.8513(9)
C19_6 C 0.7362(8) 0.0155(9) 0.9400(11)
C22_6 C 0.7734(8) 0.0816(9) 0.9092(10)
H20_6 H 0.7925 0.1153 0.9187
C23_6 C 0.7656(10) 0.0702(10) 0.9530(13)
H21_6 H 0.7779 0.0956 0.9920
O1_6 O 0.3132(5) 0.6827(6) 0.8238(8)
O3_6 O 0.1994(5) 0.5588(6) 0.6194(8)
O5_6 O 0.2830(5) 0.6641(6) 0.6749(8)
O6_6 O 0.3205(5) 0.5658(6) 0.7638(8)
O7_6 O 0.2144(6) 0.6796(6) 0.7782(8)
O8_6 O 0.1502(6) 0.5977(6) 0.6606(7)
N1_6 N 0.3653(6) 0.6976(7) 0.8642(8)
N3_6 N 0.2105(6) 0.5391(7) 0.5789(9)
N4_7 N 0.2559(6) 0.4518(7) 0.3513(9)
C1_6 C 0.4030(8) 0.6586(9) 0.9097(11)
H1_6 H 0.3934 0.6216 0.9122
C2_6 C 0.4588(7) 0.6738(9) 0.9554(11)
H2_6 H 0.4859 0.6461 0.9877
C3_6 C 0.4738(7) 0.7273(7) 0.9534(10)
C4_6 C 0.4299(8) 0.7651(8) 0.9041(11)
H3_6 H 0.4383 0.8028 0.9017
C5_6 C 0.3779(8) 0.7526(8) 0.8607(11)
C6_6 C 0.3295(10) 0.7951(10) 0.8057(15)
H4_6 H 0.3435 0.8323 0.8086
H5_6 H 0.3054 0.7807 0.7541
H6_6 H 0.3095 0.7987 0.8202
C8_6 C 0.5449(8) 0.7968(10) 0.9891(11)
H7_6 H 0.5174 0.8210 0.9490
C13_6 C 0.2059(10) 0.5738(11) 0.5359(14)
H13_6 H 0.1956 0.6117 0.5338
C14_5 C 0.2159(9) 0.5580(9) 0.4877(11)
H14_5 H 0.2139 0.5850 0.4574
C15_5 C 0.2283(8) 0.5014(9) 0.4902(11)
C16_5 C 0.2346(9) 0.4660(11) 0.5405(12)
H15_5 H 0.2445 0.4277 0.5438
C17_5 C 0.2272(8) 0.4833(9) 0.5865(11)
C18_5 C 0.2308(12) 0.4468(10) 0.6393(14)
H16_5 H 0.2240 0.4699 0.6648
H17_5 H 0.2038 0.4164 0.6108
H18_5 H 0.2669 0.4300 0.6766
C19_7 C 0.2362(8) 0.4845(9) 0.4400(11)
C20_5 C 0.2189(8) 0.5158(9) 0.3800(12)
H19_5 H 0.1996 0.5497 0.3686
C21_5 C 0.2276(9) 0.5012(9) 0.3335(11)
C22_7 C 0.2734(8) 0.4184(9) 0.4092(10)
H20_7 H 0.2925 0.3847 0.4187
C23_7 C 0.2656(10) 0.4298(10) 0.4530(13)
H21_7 H 0.2779 0.4044 0.4920
C24_5 C 0.2087(11) 0.5374(10) 0.2727(15)
H22_5 H 0.2181 0.5205 0.2468
H23_5 H 0.1695 0.5416 0.2372
H24_5 H 0.2258 0.5748 0.2924
H25_6 H 0.281187 0.707084 0.673262
H26_6 H 0.262333 0.648878 0.622688
H27_6 H 0.344707 0.588817 0.762606
H28_6 H 0.306003 0.531733 0.729411
H29_6 H 0.153067 0.575758 0.698431
H30_6 H 0.13301 0.572793 0.61537
H31_6 H 0.238436 0.667487 0.83251
H32_6 H 0.175478 0.6702 0.749333
N2_7 N 0.1408(6) 0.2780(7) 0.0932(9)
C7_7 C 0.0309(7) 0.2455(8) 0.0013(10)
C9_7 C 0.0991(8) 0.3124(9) 0.0355(12)
H8_7 H 0.1074 0.3477 0.0271
C10_7 C 0.1304(8) 0.2279(9) 0.1096(12)
C11_7 C 0.0756(8) 0.2125(8) 0.0641(13)
H9_7 H 0.0680 0.1786 0.0759
C12_7 C 0.1787(10) 0.1905(11) 0.1771(14)
H10_7 H 0.2129 0.2089 0.2008
H11_7 H 0.1763 0.1864 0.2140
H12_7 H 0.1770 0.1529 0.1586
O1_7 O 0.8132(5) 0.1827(6) 0.8238(8)
O3_7 O 0.6994(5) 0.0588(6) 0.6194(8)
O5_7 O 0.7830(5) 0.1641(6) 0.6749(8)
O6_7 O 0.8205(5) 0.0658(6) 0.7638(8)
O7_7 O 0.7144(6) 0.1796(6) 0.7782(8)
O8_7 O 0.6502(6) 0.0977(6) 0.6606(7)
N1_7 N 0.8653(6) 0.1976(7) 0.8642(8)
N3_7 N 0.7105(6) 0.0391(7) 0.5789(9)
C1_7 C 0.9030(8) 0.1586(9) 0.9097(11)
H1_7 H 0.8934 0.1216 0.9122
C2_7 C 0.9588(7) 0.1738(9) 0.9554(11)
H2_7 H 0.9859 0.1461 0.9877
C3_7 C 0.9738(7) 0.2273(7) 0.9534(10)
C4_7 C 0.9299(8) 0.2651(8) 0.9041(11)
H3_7 H 0.9383 0.3028 0.9017
C5_7 C 0.8779(8) 0.2526(8) 0.8607(11)
C6_7 C 0.8295(10) 0.2951(10) 0.8057(15)
H4_7 H 0.8435 0.3323 0.8086
H5_7 H 0.8054 0.2807 0.7541
H6_7 H 0.8095 0.2987 0.8202
C13_7 C 0.7059(10) 0.0738(11) 0.5359(14)
H13_7 H 0.6956 0.1117 0.5338
C14_6 C 0.7159(9) 0.0580(9) 0.4877(11)
H14_6 H 0.7139 0.0850 0.4574
C15_6 C 0.7283(8) 0.0014(9) 0.4902(11)
C20_6 C 0.7189(8) 0.0158(9) 0.3800(12)
H19_6 H 0.6996 0.0497 0.3686
C21_6 C 0.7276(9) 0.0012(9) 0.3335(11)
C24_6 C 0.7087(11) 0.0374(10) 0.2727(15)
H22_6 H 0.7181 0.0205 0.2468
H23_6 H 0.6695 0.0416 0.2372
H24_6 H 0.7258 0.0748 0.2924
H25_7 H 0.781187 0.207084 0.673262
H26_7 H 0.762333 0.148878 0.622688
H27_7 H 0.844707 0.0888174 0.762606
H28_7 H 0.806003 0.0317326 0.729411
H29_7 H 0.653067 0.0757583 0.698431
H30_7 H 0.63301 0.0727929 0.61537
H31_7 H 0.738436 0.167487 0.83251
H32_7 H 0.675478 0.1702 0.749333
C8_7 C 0.9551(8) 0.7032(10) 0.0109(11)
H7_7 H 0.9826 0.6790 0.0510
C16_6 C 0.7346(9) 0.0340(11) 0.0405(12)
H15_6 H 0.7445 0.0723 0.0438
C17_6 C 0.7272(8) 0.0167(9) 0.0865(11)
C18_6 C 0.7308(12) 0.0532(10) 0.1393(14)
H16_6 H 0.7240 0.0301 0.1648
H17_6 H 0.7038 0.0836 0.1108
H18_6 H 0.7669 0.0700 0.1766
Sm1_4 Sm 0.74254(3) 0.87308(4) 0.21978(5)
O1_8 O 0.8132(5) 0.8173(6) 0.3238(8)
O3_8 O 0.6994(5) 0.9412(6) 0.1194(8)
O5_8 O 0.7830(5) 0.8359(6) 0.1749(8)
O6_8 O 0.8205(5) 0.9342(6) 0.2638(8)
O7_8 O 0.7144(6) 0.8204(6) 0.2782(8)
O8_8 O 0.6502(6) 0.9023(6) 0.1606(7)
N1_8 N 0.8653(6) 0.8024(7) 0.3642(8)
N3_8 N 0.7105(6) 0.9609(7) 0.0789(9)
C1_8 C 0.9030(8) 0.8414(9) 0.4097(11)
H1_8 H 0.8934 0.8784 0.4122
C2_8 C 0.9588(7) 0.8262(9) 0.4554(11)
H2_8 H 0.9859 0.8539 0.4877
C3_8 C 0.9738(7) 0.7727(7) 0.4534(10)
C4_8 C 0.9299(8) 0.7349(8) 0.4041(11)
H3_8 H 0.9383 0.6972 0.4017
C5_8 C 0.8779(8) 0.7474(8) 0.3607(11)
C6_8 C 0.8295(10) 0.7049(10) 0.3057(15)
H4_8 H 0.8435 0.6677 0.3086
H5_8 H 0.8054 0.7193 0.2541
H6_8 H 0.8095 0.7013 0.3202
C13_8 C 0.7059(10) 0.9262(11) 0.0359(14)
H13_8 H 0.6956 0.8883 0.0338
O9_4 O 0.6913(5) 0.7945(6) 0.1344(8)
O10_4 O 0.7672(6) 0.9408(6) 0.3097(8)
H25_8 H 0.781187 0.792916 0.173262
H26_8 H 0.762333 0.851122 0.122688
H27_8 H 0.844707 0.911183 0.262606
H28_8 H 0.806003 0.968267 0.229411
H29_8 H 0.653067 0.924242 0.198431
H30_8 H 0.63301 0.927207 0.11537
H31_8 H 0.738436 0.832513 0.33251
H32_8 H 0.675478 0.8298 0.249333
N2_8 N 0.6408(6) 0.7780(7) 0.0932(9)
C7_8 C 0.5309(7) 0.7455(8) 0.0013(10)
C9_8 C 0.5991(8) 0.8124(9) 0.0355(12)
H8_8 H 0.6074 0.8477 0.0271
C10_8 C 0.6304(8) 0.7279(9) 0.1096(12)
C11_8 C 0.5756(8) 0.7125(8) 0.0641(13)
H9_8 H 0.5680 0.6786 0.0759
C12_8 C 0.6787(10) 0.6905(11) 0.1771(14)
H10_8 H 0.7129 0.7089 0.2008
H11_8 H 0.6763 0.6864 0.2140
H12_8 H 0.6770 0.6529 0.1586
N4_8 N 0.7559(6) 0.9518(7) 0.3513(9)
C16_7 C 0.7346(9) 0.9660(11) 0.5405(12)
H15_7 H 0.7445 0.9277 0.5438
C17_7 C 0.7272(8) 0.9833(9) 0.5865(11)
C18_7 C 0.7308(12) 0.9468(10) 0.6393(14)
H16_7 H 0.7240 0.9699 0.6648
H17_7 H 0.7038 0.9164 0.6108
H18_7 H 0.7669 0.9300 0.6766
C19_8 C 0.7362(8) 0.9845(9) 0.4400(11)
C22_8 C 0.7734(8) 0.9184(9) 0.4092(10)
H20_8 H 0.7925 0.8847 0.4187
C23_8 C 0.7656(10) 0.9298(10) 0.4530(13)
H21_8 H 0.7779 0.9044 0.4920
C14_7 C 0.7159(9) 0.9420(9) 0.9877(11)
H14_7 H 0.7139 0.9150 0.9574
C15_7 C 0.7283(8) 0.9986(9) 0.9902(11)
C20_7 C 0.7189(8) 0.9842(9) 0.8800(12)
H19_7 H 0.6996 0.9503 0.8686
C21_7 C 0.7276(9) 0.9988(9) 0.8335(11)
C24_7 C 0.7087(11) 0.9626(10) 0.7727(15)
H22_7 H 0.7181 0.9795 0.7468
H23_7 H 0.6695 0.9584 0.7372
H24_7 H 0.7258 0.9252 0.7924
C8_8 C 0.0449(8) 0.2968(10) 0.9891(11)
H7_8 H 0.0174 0.3210 0.9490
C14_8 C 0.2841(9) 0.0580(9) 0.0123(11)
H14_8 H 0.2861 0.0850 0.0426
C15_8 C 0.2717(8) 0.0014(9) 0.0098(11)
C20_8 C 0.2811(8) 0.0158(9) 0.1200(12)
H19_8 H 0.3004 0.0497 0.1314
C21_8 C 0.2724(9) 0.0012(9) 0.1665(11)
C24_8 C 0.2913(11) 0.0374(10) 0.2273(15)
H22_8 H 0.2819 0.0205 0.2532
H23_8 H 0.3305 0.0416 0.2628
H24_8 H 0.2742 0.0748 0.2076
C16_8 C 0.2654(9) 0.9660(11) 0.9595(12)
H15_8 H 0.2555 0.9277 0.9562
C17_8 C 0.2728(8) 0.9833(9) 0.9135(11)
C18_8 C 0.2692(12) 0.9468(10) 0.8607(14)
H16_8 H 0.2760 0.9699 0.8352
H17_8 H 0.2962 0.9164 0.8892
H18_8 H 0.2331 0.9300 0.8234
O11 O 0.9231(11) 0.6043(14) 0.311(2)
O12 O 0.8963(12) 0.5971(11) 0.201(2)
O13 O 0.8857(11) 0.6855(10) 0.2312(15)
O14 O 0.9676(9) 0.6485(12) 0.2895(17)
Cl1 Cl 0.9168(3) 0.6336(3) 0.2553(4)
O11_2 O 0.0769(11) 0.6043(14) 0.189(2)
O12_2 O 0.1037(12) 0.5971(11) 0.299(2)
O13_2 O 0.1143(11) 0.6855(10) 0.2688(15)
O14_2 O 0.0324(9) 0.6485(12) 0.2105(17)
Cl1_2 Cl 0.0832(3) 0.6336(3) 0.2447(4)
O11_3 O 0.4231(11) 0.1043(14) 0.311(2)
O12_3 O 0.3963(12) 0.0971(11) 0.201(2)
O13_3 O 0.3857(11) 0.1855(10) 0.2312(15)
O14_3 O 0.4676(9) 0.1485(12) 0.2895(17)
Cl1_3 Cl 0.4168(3) 0.1336(3) 0.2553(4)
O11_4 O 0.5769(11) 0.1043(14) 0.189(2)
O12_4 O 0.6037(12) 0.0971(11) 0.299(2)
O13_4 O 0.6143(11) 0.1855(10) 0.2688(15)
O14_4 O 0.5324(9) 0.1485(12) 0.2105(17)
Cl1_4 Cl 0.5832(3) 0.1336(3) 0.2447(4)
O11_5 O 0.0769(11) 0.3957(14) 0.689(2)
O12_5 O 0.1037(12) 0.4029(11) 0.799(2)
O13_5 O 0.1143(11) 0.3145(10) 0.7688(15)
O14_5 O 0.0324(9) 0.3515(12) 0.7105(17)
Cl1_5 Cl 0.0832(3) 0.3664(3) 0.7447(4)
O11_6 O 0.9231(11) 0.3957(14) 0.811(2)
O12_6 O 0.8963(12) 0.4029(11) 0.701(2)
O13_6 O 0.8857(11) 0.3145(10) 0.7312(15)
O14_6 O 0.9676(9) 0.3515(12) 0.7895(17)
Cl1_6 Cl 0.9168(3) 0.3664(3) 0.7553(4)
O11_7 O 0.5769(11) 0.8957(14) 0.689(2)
O12_7 O 0.6037(12) 0.9029(11) 0.799(2)
O13_7 O 0.6143(11) 0.8145(10) 0.7688(15)
O14_7 O 0.5324(9) 0.8515(12) 0.7105(17)
Cl1_7 Cl 0.5832(3) 0.8664(3) 0.7447(4)
O11_8 O 0.4231(11) 0.8957(14) 0.811(2)
O12_8 O 0.3963(12) 0.9029(11) 0.701(2)
O13_8 O 0.3857(11) 0.8145(10) 0.7312(15)
O14_8 O 0.4676(9) 0.8515(12) 0.7895(17)
Cl1_8 Cl 0.4168(3) 0.8664(3) 0.7553(4)
O15 O 0.7847(16) 0.6915(16) 0.481(2)
O16 O 0.8413(13) 0.6919(13) 0.467(2)
O17 O 0.811(2) 0.7770(13) 0.457(2)
O18 O 0.7591(13) 0.7175(14) 0.3634(19)
Cl2 Cl 0.7988(6) 0.7221(5) 0.4476(7)
O15_2 O 0.2153(16) 0.6915(16) 0.019(2)
O16_2 O 0.1587(13) 0.6919(13) 0.033(2)
O17_2 O 0.189(2) 0.7770(13) 0.043(2)
O18_2 O 0.2409(13) 0.7175(14) 0.1366(19)
Cl2_2 Cl 0.2012(6) 0.7221(5) 0.0524(7)
O15_3 O 0.2847(16) 0.1915(16) 0.481(2)
O16_3 O 0.3413(13) 0.1919(13) 0.467(2)
O17_3 O 0.311(2) 0.2770(13) 0.457(2)
O18_3 O 0.2591(13) 0.2175(14) 0.3634(19)
Cl2_3 Cl 0.2988(6) 0.2221(5) 0.4476(7)
O15_4 O 0.7153(16) 0.1915(16) 0.019(2)
O16_4 O 0.6587(13) 0.1919(13) 0.033(2)
O17_4 O 0.689(2) 0.2770(13) 0.043(2)
O18_4 O 0.7409(13) 0.2175(14) 0.1366(19)
Cl2_4 Cl 0.7012(6) 0.2221(5) 0.0524(7)
O15_5 O 0.2153(16) 0.3085(16) 0.519(2)
O16_5 O 0.1587(13) 0.3081(13) 0.533(2)
O17_5 O 0.189(2) 0.2230(13) 0.543(2)
O18_5 O 0.2409(13) 0.2825(14) 0.6366(19)
Cl2_5 Cl 0.2012(6) 0.2779(5) 0.5524(7)
O15_6 O 0.7847(16) 0.3085(16) 0.981(2)
O16_6 O 0.8413(13) 0.3081(13) 0.967(2)
O17_6 O 0.811(2) 0.2230(13) 0.957(2)
O18_6 O 0.7591(13) 0.2825(14) 0.8634(19)
Cl2_6 Cl 0.7988(6) 0.2779(5) 0.9476(7)
O15_7 O 0.7153(16) 0.8085(16) 0.519(2)
O16_7 O 0.6587(13) 0.8081(13) 0.533(2)
O17_7 O 0.689(2) 0.7230(13) 0.543(2)
O18_7 O 0.7409(13) 0.7825(14) 0.6366(19)
Cl2_7 Cl 0.7012(6) 0.7779(5) 0.5524(7)
O15_8 O 0.2847(16) 0.8085(16) 0.981(2)
O16_8 O 0.3413(13) 0.8081(13) 0.967(2)
O17_8 O 0.311(2) 0.7230(13) 0.957(2)
O18_8 O 0.2591(13) 0.7825(14) 0.8634(19)
Cl2_8 Cl 0.2988(6) 0.7779(5) 0.9476(7)
O19 O 0.5953(11) 0.4796(11) 0.0519(15)
O20 O 0.6474(9) 0.5388(9) 0.1539(10)
O21 O 0.6404(13) 0.5594(14) 0.0576(18)
O22 O 0.5676(9) 0.5726(10) 0.0350(14)
Cl3 Cl 0.6121(3) 0.5364(3) 0.0736(4)
O19_2 O 0.4047(11) 0.4796(11) 0.4481(15)
O20_2 O 0.3526(9) 0.5388(9) 0.3461(10)
O21_2 O 0.3596(13) 0.5594(14) 0.4424(18)
O22_2 O 0.4324(9) 0.5726(10) 0.4650(14)
Cl3_2 Cl 0.3879(3) 0.5364(3) 0.4264(4)
O20_3 O 0.1474(9) 0.0388(9) 0.1539(10)
O21_3 O 0.1404(13) 0.0594(14) 0.0576(18)
O22_3 O 0.0676(9) 0.0726(10) 0.0350(14)
Cl3_3 Cl 0.1121(3) 0.0364(3) 0.0736(4)
O19_3 O 0.0953(11) 0.9796(11) 0.0519(15)
O20_4 O 0.8526(9) 0.0388(9) 0.3461(10)
O21_4 O 0.8596(13) 0.0594(14) 0.4424(18)
O22_4 O 0.9324(9) 0.0726(10) 0.4650(14)
Cl3_4 Cl 0.8879(3) 0.0364(3) 0.4264(4)
O19_4 O 0.9047(11) 0.9796(11) 0.4481(15)
O19_5 O 0.4047(11) 0.5204(11) 0.9481(15)
O20_5 O 0.3526(9) 0.4612(9) 0.8461(10)
O21_5 O 0.3596(13) 0.4406(14) 0.9424(18)
O22_5 O 0.4324(9) 0.4274(10) 0.9650(14)
Cl3_5 Cl 0.3879(3) 0.4636(3) 0.9264(4)
O19_6 O 0.5953(11) 0.5204(11) 0.5519(15)
O20_6 O 0.6474(9) 0.4612(9) 0.6539(10)
O21_6 O 0.6404(13) 0.4406(14) 0.5576(18)
O22_6 O 0.5676(9) 0.4274(10) 0.5350(14)
Cl3_6 Cl 0.6121(3) 0.4636(3) 0.5736(4)
O19_7 O 0.9047(11) 0.0204(11) 0.9481(15)
O20_7 O 0.8526(9) 0.9612(9) 0.8461(10)
O21_7 O 0.8596(13) 0.9406(14) 0.9424(18)
O22_7 O 0.9324(9) 0.9274(10) 0.9650(14)
Cl3_7 Cl 0.8879(3) 0.9636(3) 0.9264(4)
O19_8 O 0.0953(11) 0.0204(11) 0.5519(15)
O20_8 O 0.1474(9) 0.9612(9) 0.6539(10)
O21_8 O 0.1404(13) 0.9406(14) 0.5576(18)
O22_8 O 0.0676(9) 0.9274(10) 0.5350(14)
Cl3_8 Cl 0.1121(3) 0.9636(3) 0.5736(4)
loop_
_geom_bond_atom_site_label_1
_geom_bond_atom_site_label_2
_geom_bond_site_symmetry_1
_geom_bond_site_symmetry_2
Sm1 O1 1_555 1_555
O1 N1 1_555 1_555
O3 Sm1 1_555 1_555
O4 N4 1_555 1_555
O5 Sm1 1_555 1_555
O6 Sm1 1_555 1_555
O7 Sm1 1_555 1_555
O8 Sm1 1_555 1_555
N1 C1 1_555 1_555
N3 O3 1_555 1_555
N4 C21 1_555 1_555
C1 H1 1_555 1_555
C2 C1 1_555 1_555
H2 C2 1_555 1_555
C3 C2 1_555 1_555
C4 C3 1_555 1_555
H3 C4 1_555 1_555
C5 N1 1_555 1_555
C6 C5 1_555 1_555
H4 C6 1_555 1_555
H5 C6 1_555 1_555
H6 C6 1_555 1_555
H7 C8 1_555 1_555
C13 N3 1_555 1_555
H13 C13 1_555 1_555
C14 C13 1_555 1_555
H14 C14 1_555 1_555
C15 C14 1_555 1_555
C16 C15 1_555 1_555
H15 C16 1_555 1_555
C17 N3 1_555 1_555
C18 C17 1_555 1_555
H16 C18 1_555 1_555
H17 C18 1_555 1_555
H18 C18 1_555 1_555
C19 C15 1_555 1_555
C20 C19 1_555 1_555
H19 C20 1_555 1_555
C21 C20 1_555 1_555
C22 N4 1_555 1_555
H20 C22 1_555 1_555
C23 C19 1_555 1_555
H21 C23 1_555 1_555
C24 C21 1_555 1_555
H22 C24 1_555 1_555
H23 C24 1_555 1_555
H24 C24 1_555 1_555
Sm2 O4 1_555 1_555
O9 Sm1 1_555 1_555
O10 Sm1 1_555 1_555
C4 C5 1_555 1_555
C16 C17 1_555 1_555
C22 C23 1_555 1_555
O5 H25 1_555 1_555
O5 H26 1_555 1_555
O6 H27 1_555 1_555
O6 H28 1_555 1_555
O8 H29 1_555 1_555
O8 H30 1_555 1_555
O7 H31 1_555 1_555
O7 H32 1_555 1_555
Sm1_2 O1_2 1_555 1_555
O1_2 N1_2 1_555 1_555
O3_2 Sm1_2 1_555 1_555
O5_2 Sm1_2 1_555 1_555
O6_2 Sm1_2 1_555 1_555
O7_2 Sm1_2 1_555 1_555
O8_2 Sm1_2 1_555 1_555
N1_2 C1_2 1_555 1_555
N3_2 O3_2 1_555 1_555
C1_2 H1_2 1_555 1_555
C2_2 C1_2 1_555 1_555
H2_2 C2_2 1_555 1_555
C3_2 C2_2 1_555 1_555
C4_2 C3_2 1_555 1_555
H3_2 C4_2 1_555 1_555
C5_2 N1_2 1_555 1_555
C6_2 C5_2 1_555 1_555
H4_2 C6_2 1_555 1_555
H5_2 C6_2 1_555 1_555
H6_2 C6_2 1_555 1_555
C13_2 N3_2 1_555 1_555
H13_2 C13_2 1_555 1_555
C14_2 C13_2 1_555 1_555
H14_2 C14_2 1_555 1_555
C15_2 C14_2 1_555 1_555
H19_2 C20_2 1_555 1_555
C21_2 C20_2 1_555 1_555
C24_2 C21_2 1_555 1_555
H22_2 C24_2 1_555 1_555
H23_2 C24_2 1_555 1_555
H24_2 C24_2 1_555 1_555
O9_2 Sm1_2 1_555 1_555
O10_2 Sm1_2 1_555 1_555
C4_2 C5_2 1_555 1_555
O5_2 H25_2 1_555 1_555
O5_2 H26_2 1_555 1_555
O6_2 H27_2 1_555 1_555
O6_2 H28_2 1_555 1_555
O8_2 H29_2 1_555 1_555
O8_2 H30_2 1_555 1_555
O7_2 H31_2 1_555 1_555
O7_2 H32_2 1_555 1_555
O2 N2 1_555 1_555
N2 C9 1_555 1_555
H8 C9 1_555 1_555
C10 N2 1_555 1_555
C11 C7 1_555 1_555
H9 C11 1_555 1_555
C12 C10 1_555 1_555
H10 C12 1_555 1_555
H11 C12 1_555 1_555
H12 C12 1_555 1_555
Sm2 O2 1_555 1_555
C10 C11 1_555 1_555
O10 N4_2 1_555 1_555
N4_2 C21_3 1_555 1_555
H14_3 C14_3 1_555 1_555
C15_3 C14_3 1_555 1_555
C19_2 C15_3 1_555 1_555
C20_3 C19_2 1_555 1_555
H19_3 C20_3 1_555 1_555
C21_3 C20_3 1_555 1_555
C22_2 N4_2 1_555 1_555
H20_2 C22_2 1_555 1_555
C23_2 C19_2 1_555 1_555
H21_2 C23_2 1_555 1_555
C24_3 C21_3 1_555 1_555
H22_3 C24_3 1_555 1_555
H23_3 C24_3 1_555 1_555
H24_3 C24_3 1_555 1_555
C22_2 C23_2 1_555 1_555
Sm2 O1_3 1_555 1_555
O1_3 N1_3 1_555 1_555
O9_2 N2_2 1_555 1_555
O3_3 Sm2 1_555 1_555
O5_3 Sm2 1_555 1_555
O6_3 Sm2 1_555 1_555
O7_3 Sm2 1_555 1_555
O8_3 Sm2 1_555 1_555
N1_3 C1_3 1_555 1_555
N2_2 C9_2 1_555 1_555
N3_3 O3_3 1_555 1_555
C1_3 H1_3 1_555 1_555
C2_3 C1_3 1_555 1_555
H2_3 C2_3 1_555 1_555
C3_3 C2_3 1_555 1_555
C4_3 C3_3 1_555 1_555
H3_3 C4_3 1_555 1_555
C5_3 N1_3 1_555 1_555
C6_3 C5_3 1_555 1_555
H4_3 C6_3 1_555 1_555
H5_3 C6_3 1_555 1_555
H6_3 C6_3 1_555 1_555
C7_2 C3_3 1_555 1_555
C8_2 C7_2 1_555 1_555
H7_2 C8_2 1_555 1_555
C9_2 C8_2 1_555 1_555
H8_2 C9_2 1_555 1_555
C10_2 N2_2 1_555 1_555
C11_2 C7_2 1_555 1_555
H9_2 C11_2 1_555 1_555
C12_2 C10_2 1_555 1_555
H10_2 C12_2 1_555 1_555
H11_2 C12_2 1_555 1_555
H12_2 C12_2 1_555 1_555
C13_3 N3_3 1_555 1_555
H13_3 C13_3 1_555 1_555
H15_2 C16_2 1_555 1_555
C17_2 N3_3 1_555 1_555
C18_2 C17_2 1_555 1_555
H16_2 C18_2 1_555 1_555
H17_2 C18_2 1_555 1_555
H18_2 C18_2 1_555 1_555
C4_3 C5_3 1_555 1_555
C10_2 C11_2 1_555 1_555
C16_2 C17_2 1_555 1_555
O5_3 H25_3 1_555 1_555
O5_3 H26_3 1_555 1_555
O6_3 H27_3 1_555 1_555
O6_3 H28_3 1_555 1_555
O8_3 H29_3 1_555 1_555
O8_3 H30_3 1_555 1_555
O7_3 H31_3 1_555 1_555
O7_3 H32_3 1_555 1_555
O10_2 N4_3 1_555 1_555
C22_3 N4_3 1_555 1_555
H20_3 C22_3 1_555 1_555
C23_3 C19_3 1_555 1_555
H21_3 C23_3 1_555 1_555
C22_3 C23_3 1_555 1_555
O9 N2_3 1_555 1_555
N2_3 C9_3 1_555 1_555
C8_3 C7_3 1_555 1_555
H7_3 C8_3 1_555 1_555
C9_3 C8_3 1_555 1_555
H8_3 C9_3 1_555 1_555
C10_3 N2_3 1_555 1_555
C11_3 C7_3 1_555 1_555
H9_3 C11_3 1_555 1_555
C12_3 C10_3 1_555 1_555
H10_3 C12_3 1_555 1_555
H11_3 C12_3 1_555 1_555
H12_3 C12_3 1_555 1_555
C10_3 C11_3 1_555 1_555
O2_2 N2_4 1_555 1_555
N2_4 C9_4 1_555 1_555
H8_4 C9_4 1_555 1_555
C10_4 N2_4 1_555 1_555
C11_4 C7_4 1_555 1_555
H9_4 C11_4 1_555 1_555
C12_4 C10_4 1_555 1_555
H10_4 C12_4 1_555 1_555
H11_4 C12_4 1_555 1_555
H12_4 C12_4 1_555 1_555
Sm3 O2_2 1_555 1_555
C10_4 C11_4 1_555 1_555
O4_2 N4_4 1_555 1_555
H15_3 C16_3 1_555 1_555
C18_3 C17_3 1_555 1_555
H16_3 C18_3 1_555 1_555
H17_3 C18_3 1_555 1_555
H18_3 C18_3 1_555 1_555
C22_4 N4_4 1_555 1_555
H20_4 C22_4 1_555 1_555
C23_4 C19_4 1_555 1_555
H21_4 C23_4 1_555 1_555
Sm3 O4_2 1_555 1_555
C16_3 C17_3 1_555 1_555
C22_4 C23_4 1_555 1_555
Sm3 O1_4 1_555 1_555
O1_4 N1_4 1_555 1_555
O3_4 Sm3 1_555 1_555
O5_4 Sm3 1_555 1_555
O6_4 Sm3 1_555 1_555
O7_4 Sm3 1_555 1_555
O8_4 Sm3 1_555 1_555
N1_4 C1_4 1_555 1_555
N3_4 O3_4 1_555 1_555
C1_4 H1_4 1_555 1_555
C2_4 C1_4 1_555 1_555
H2_4 C2_4 1_555 1_555
C3_4 C2_4 1_555 1_555
C4_4 C3_4 1_555 1_555
H3_4 C4_4 1_555 1_555
C5_4 N1_4 1_555 1_555
C6_4 C5_4 1_555 1_555
H4_4 C6_4 1_555 1_555
H5_4 C6_4 1_555 1_555
H6_4 C6_4 1_555 1_555
C13_4 N3_4 1_555 1_555
H13_4 C13_4 1_555 1_555
C4_4 C5_4 1_555 1_555
O5_4 H25_4 1_555 1_555
O5_4 H26_4 1_555 1_555
O6_4 H27_4 1_555 1_555
O6_4 H28_4 1_555 1_555
O8_4 H29_4 1_555 1_555
O8_4 H30_4 1_555 1_555
O7_4 H31_4 1_555 1_555
O7_4 H32_4 1_555 1_555
Sm1_3 O1_5 1_555 1_555
O1_5 N1_5 1_555 1_555
O2_3 N2_5 1_555 1_555
O3_5 Sm1_3 1_555 1_555
O5_5 Sm1_3 1_555 1_555
O6_5 Sm1_3 1_555 1_555
O7_5 Sm1_3 1_555 1_555
O8_5 Sm1_3 1_555 1_555
N1_5 C1_5 1_555 1_555
N2_5 C9_5 1_555 1_555
N3_5 O3_5 1_555 1_555
C1_5 H1_5 1_555 1_555
C2_5 C1_5 1_555 1_555
H2_5 C2_5 1_555 1_555
C3_5 C2_5 1_555 1_555
C4_5 C3_5 1_555 1_555
H3_5 C4_5 1_555 1_555
C5_5 N1_5 1_555 1_555
C6_5 C5_5 1_555 1_555
H4_5 C6_5 1_555 1_555
H5_5 C6_5 1_555 1_555
H6_5 C6_5 1_555 1_555
C7_5 C3_5 1_555 1_555
C8_4 C7_5 1_555 1_555
H7_4 C8_4 1_555 1_555
C9_5 C8_4 1_555 1_555
H8_5 C9_5 1_555 1_555
C10_5 N2_5 1_555 1_555
C11_5 C7_5 1_555 1_555
H9_5 C11_5 1_555 1_555
C12_5 C10_5 1_555 1_555
H10_5 C12_5 1_555 1_555
H11_5 C12_5 1_555 1_555
H12_5 C12_5 1_555 1_555
C13_5 N3_5 1_555 1_555
H13_5 C13_5 1_555 1_555
H15_4 C16_4 1_555 1_555
C17_4 N3_5 1_555 1_555
C18_4 C17_4 1_555 1_555
H16_4 C18_4 1_555 1_555
H17_4 C18_4 1_555 1_555
H18_4 C18_4 1_555 1_555
Sm3_2 O2_3 1_555 1_555
O9_3 Sm1_3 1_555 1_555
O10_3 Sm1_3 1_555 1_555
C4_5 C5_5 1_555 1_555
C10_5 C11_5 1_555 1_555
C16_4 C17_4 1_555 1_555
O5_5 H25_5 1_555 1_555
O5_5 H26_5 1_555 1_555
O6_5 H27_5 1_555 1_555
O6_5 H28_5 1_555 1_555
O8_5 H29_5 1_555 1_555
O8_5 H30_5 1_555 1_555
O7_5 H31_5 1_555 1_555
O7_5 H32_5 1_555 1_555
O4_3 N4_5 1_555 1_555
N4_5 C21_4 1_555 1_555
H14_4 C14_4 1_555 1_555
C15_4 C14_4 1_555 1_555
C19_5 C15_4 1_555 1_555
C20_4 C19_5 1_555 1_555
H19_4 C20_4 1_555 1_555
C21_4 C20_4 1_555 1_555
C22_5 N4_5 1_555 1_555
H20_5 C22_5 1_555 1_555
C23_5 C19_5 1_555 1_555
H21_5 C23_5 1_555 1_555
C24_4 C21_4 1_555 1_555
H22_4 C24_4 1_555 1_555
H23_4 C24_4 1_555 1_555
H24_4 C24_4 1_555 1_555
Sm2_2 O4_3 1_555 1_555
C22_5 C23_5 1_555 1_555
O2_4 N2_6 1_555 1_555
N2_6 C9_6 1_555 1_555
C8_5 C7_6 1_555 1_555
H7_5 C8_5 1_555 1_555
C9_6 C8_5 1_555 1_555
H8_6 C9_6 1_555 1_555
C10_6 N2_6 1_555 1_555
C11_6 C7_6 1_555 1_555
H9_6 C11_6 1_555 1_555
C12_6 C10_6 1_555 1_555
H10_6 C12_6 1_555 1_555
H11_6 C12_6 1_555 1_555
H12_6 C12_6 1_555 1_555
Sm2_2 O2_4 1_555 1_555
C10_6 C11_6 1_555 1_555
O4_4 N4_6 1_555 1_555
C22_6 N4_6 1_555 1_555
H20_6 C22_6 1_555 1_555
C23_6 C19_6 1_555 1_555
H21_6 C23_6 1_555 1_555
Sm3_2 O4_4 1_555 1_555
C22_6 C23_6 1_555 1_555
Sm2_2 O1_6 1_555 1_555
O1_6 N1_6 1_555 1_555
O3_6 Sm2_2 1_555 1_555
O10_3 N4_7 1_555 1_555
O5_6 Sm2_2 1_555 1_555
O6_6 Sm2_2 1_555 1_555
O7_6 Sm2_2 1_555 1_555
O8_6 Sm2_2 1_555 1_555
N1_6 C1_6 1_555 1_555
N3_6 O3_6 1_555 1_555
N4_7 C21_5 1_555 1_555
C1_6 H1_6 1_555 1_555
C2_6 C1_6 1_555 1_555
H2_6 C2_6 1_555 1_555
C3_6 C2_6 1_555 1_555
C4_6 C3_6 1_555 1_555
H3_6 C4_6 1_555 1_555
C5_6 N1_6 1_555 1_555
C6_6 C5_6 1_555 1_555
H4_6 C6_6 1_555 1_555
H5_6 C6_6 1_555 1_555
H6_6 C6_6 1_555 1_555
H7_6 C8_6 1_555 1_555
C13_6 N3_6 1_555 1_555
H13_6 C13_6 1_555 1_555
C14_5 C13_6 1_555 1_555
H14_5 C14_5 1_555 1_555
C15_5 C14_5 1_555 1_555
C16_5 C15_5 1_555 1_555
H15_5 C16_5 1_555 1_555
C17_5 N3_6 1_555 1_555
C18_5 C17_5 1_555 1_555
H16_5 C18_5 1_555 1_555
H17_5 C18_5 1_555 1_555
H18_5 C18_5 1_555 1_555
C19_7 C15_5 1_555 1_555
C20_5 C19_7 1_555 1_555
H19_5 C20_5 1_555 1_555
C21_5 C20_5 1_555 1_555
C22_7 N4_7 1_555 1_555
H20_7 C22_7 1_555 1_555
C23_7 C19_7 1_555 1_555
H21_7 C23_7 1_555 1_555
C24_5 C21_5 1_555 1_555
H22_5 C24_5 1_555 1_555
H23_5 C24_5 1_555 1_555
H24_5 C24_5 1_555 1_555
C4_6 C5_6 1_555 1_555
C16_5 C17_5 1_555 1_555
C22_7 C23_7 1_555 1_555
O5_6 H25_6 1_555 1_555
O5_6 H26_6 1_555 1_555
O6_6 H27_6 1_555 1_555
O6_6 H28_6 1_555 1_555
O8_6 H29_6 1_555 1_555
O8_6 H30_6 1_555 1_555
O7_6 H31_6 1_555 1_555
O7_6 H32_6 1_555 1_555
O9_3 N2_7 1_555 1_555
N2_7 C9_7 1_555 1_555
H8_7 C9_7 1_555 1_555
C10_7 N2_7 1_555 1_555
C11_7 C7_7 1_555 1_555
H9_7 C11_7 1_555 1_555
C12_7 C10_7 1_555 1_555
H10_7 C12_7 1_555 1_555
H11_7 C12_7 1_555 1_555
H12_7 C12_7 1_555 1_555
C10_7 C11_7 1_555 1_555
Sm3_2 O1_7 1_555 1_555
O1_7 N1_7 1_555 1_555
O3_7 Sm3_2 1_555 1_555
O5_7 Sm3_2 1_555 1_555
O6_7 Sm3_2 1_555 1_555
O7_7 Sm3_2 1_555 1_555
O8_7 Sm3_2 1_555 1_555
N1_7 C1_7 1_555 1_555
N3_7 O3_7 1_555 1_555
C1_7 H1_7 1_555 1_555
C2_7 C1_7 1_555 1_555
H2_7 C2_7 1_555 1_555
C3_7 C2_7 1_555 1_555
C4_7 C3_7 1_555 1_555
H3_7 C4_7 1_555 1_555
C5_7 N1_7 1_555 1_555
C6_7 C5_7 1_555 1_555
H4_7 C6_7 1_555 1_555
H5_7 C6_7 1_555 1_555
H6_7 C6_7 1_555 1_555
C13_7 N3_7 1_555 1_555
H13_7 C13_7 1_555 1_555
C14_6 C13_7 1_555 1_555
H14_6 C14_6 1_555 1_555
C15_6 C14_6 1_555 1_555
H19_6 C20_6 1_555 1_555
C21_6 C20_6 1_555 1_555
C24_6 C21_6 1_555 1_555
H22_6 C24_6 1_555 1_555
H23_6 C24_6 1_555 1_555
H24_6 C24_6 1_555 1_555
C4_7 C5_7 1_555 1_555
O5_7 H25_7 1_555 1_555
O5_7 H26_7 1_555 1_555
O6_7 H27_7 1_555 1_555
O6_7 H28_7 1_555 1_555
O8_7 H29_7 1_555 1_555
O8_7 H30_7 1_555 1_555
O7_7 H31_7 1_555 1_555
O7_7 H32_7 1_555 1_555
H7_7 C8_7 1_555 1_555
H15_6 C16_6 1_555 1_555
C18_6 C17_6 1_555 1_555
H16_6 C18_6 1_555 1_555
H17_6 C18_6 1_555 1_555
H18_6 C18_6 1_555 1_555
C16_6 C17_6 1_555 1_555
Sm1_4 O1_8 1_555 1_555
O1_8 N1_8 1_555 1_555
O3_8 Sm1_4 1_555 1_555
O5_8 Sm1_4 1_555 1_555
O6_8 Sm1_4 1_555 1_555
O7_8 Sm1_4 1_555 1_555
O8_8 Sm1_4 1_555 1_555
N1_8 C1_8 1_555 1_555
N3_8 O3_8 1_555 1_555
C1_8 H1_8 1_555 1_555
C2_8 C1_8 1_555 1_555
H2_8 C2_8 1_555 1_555
C3_8 C2_8 1_555 1_555
C4_8 C3_8 1_555 1_555
H3_8 C4_8 1_555 1_555
C5_8 N1_8 1_555 1_555
C6_8 C5_8 1_555 1_555
H4_8 C6_8 1_555 1_555
H5_8 C6_8 1_555 1_555
H6_8 C6_8 1_555 1_555
C13_8 N3_8 1_555 1_555
H13_8 C13_8 1_555 1_555
O9_4 Sm1_4 1_555 1_555
O10_4 Sm1_4 1_555 1_555
C4_8 C5_8 1_555 1_555
O5_8 H25_8 1_555 1_555
O5_8 H26_8 1_555 1_555
O6_8 H27_8 1_555 1_555
O6_8 H28_8 1_555 1_555
O8_8 H29_8 1_555 1_555
O8_8 H30_8 1_555 1_555
O7_8 H31_8 1_555 1_555
O7_8 H32_8 1_555 1_555
O9_4 N2_8 1_555 1_555
N2_8 C9_8 1_555 1_555
H8_8 C9_8 1_555 1_555
C10_8 N2_8 1_555 1_555
C11_8 C7_8 1_555 1_555
H9_8 C11_8 1_555 1_555
C12_8 C10_8 1_555 1_555
H10_8 C12_8 1_555 1_555
H11_8 C12_8 1_555 1_555
H12_8 C12_8 1_555 1_555
C10_8 C11_8 1_555 1_555
O10_4 N4_8 1_555 1_555
H15_7 C16_7 1_555 1_555
C18_7 C17_7 1_555 1_555
H16_7 C18_7 1_555 1_555
H17_7 C18_7 1_555 1_555
H18_7 C18_7 1_555 1_555
C22_8 N4_8 1_555 1_555
H20_8 C22_8 1_555 1_555
C23_8 C19_8 1_555 1_555
H21_8 C23_8 1_555 1_555
C16_7 C17_7 1_555 1_555
C22_8 C23_8 1_555 1_555
H14_7 C14_7 1_555 1_555
C15_7 C14_7 1_555 1_555
H19_7 C20_7 1_555 1_555
C21_7 C20_7 1_555 1_555
C24_7 C21_7 1_555 1_555
H22_7 C24_7 1_555 1_555
H23_7 C24_7 1_555 1_555
H24_7 C24_7 1_555 1_555
H7_8 C8_8 1_555 1_555
H14_8 C14_8 1_555 1_555
C15_8 C14_8 1_555 1_555
H19_8 C20_8 1_555 1_555
C21_8 C20_8 1_555 1_555
C24_8 C21_8 1_555 1_555
H22_8 C24_8 1_555 1_555
H23_8 C24_8 1_555 1_555
H24_8 C24_8 1_555 1_555
H15_8 C16_8 1_555 1_555
C18_8 C17_8 1_555 1_555
H16_8 C18_8 1_555 1_555
H17_8 C18_8 1_555 1_555
H18_8 C18_8 1_555 1_555
C16_8 C17_8 1_555 1_555
O11 Cl1 1_555 1_555
O12 Cl1 1_555 1_555
O13 Cl1 1_555 1_555
O14 Cl1 1_555 1_555
O11_2 Cl1_2 1_555 1_555
O12_2 Cl1_2 1_555 1_555
O13_2 Cl1_2 1_555 1_555
O14_2 Cl1_2 1_555 1_555
O11_3 Cl1_3 1_555 1_555
O12_3 Cl1_3 1_555 1_555
O13_3 Cl1_3 1_555 1_555
O14_3 Cl1_3 1_555 1_555
O11_4 Cl1_4 1_555 1_555
O12_4 Cl1_4 1_555 1_555
O13_4 Cl1_4 1_555 1_555
O14_4 Cl1_4 1_555 1_555
O11_5 Cl1_5 1_555 1_555
O12_5 Cl1_5 1_555 1_555
O13_5 Cl1_5 1_555 1_555
O14_5 Cl1_5 1_555 1_555
O11_6 Cl1_6 1_555 1_555
O12_6 Cl1_6 1_555 1_555
O13_6 Cl1_6 1_555 1_555
O14_6 Cl1_6 1_555 1_555
O11_7 Cl1_7 1_555 1_555
O12_7 Cl1_7 1_555 1_555
O13_7 Cl1_7 1_555 1_555
O14_7 Cl1_7 1_555 1_555
O11_8 Cl1_8 1_555 1_555
O12_8 Cl1_8 1_555 1_555
O13_8 Cl1_8 1_555 1_555
O14_8 Cl1_8 1_555 1_555
O15 Cl2 1_555 1_555
O16 Cl2 1_555 1_555
O17 Cl2 1_555 1_555
O18 Cl2 1_555 1_555
O15_2 Cl2_2 1_555 1_555
O16_2 Cl2_2 1_555 1_555
O17_2 Cl2_2 1_555 1_555
O18_2 Cl2_2 1_555 1_555
O15_3 Cl2_3 1_555 1_555
O16_3 Cl2_3 1_555 1_555
O17_3 Cl2_3 1_555 1_555
O18_3 Cl2_3 1_555 1_555
O15_4 Cl2_4 1_555 1_555
O16_4 Cl2_4 1_555 1_555
O17_4 Cl2_4 1_555 1_555
O18_4 Cl2_4 1_555 1_555
O15_5 Cl2_5 1_555 1_555
O16_5 Cl2_5 1_555 1_555
O17_5 Cl2_5 1_555 1_555
O18_5 Cl2_5 1_555 1_555
O15_6 Cl2_6 1_555 1_555
O16_6 Cl2_6 1_555 1_555
O17_6 Cl2_6 1_555 1_555
O18_6 Cl2_6 1_555 1_555
O15_7 Cl2_7 1_555 1_555
O16_7 Cl2_7 1_555 1_555
O17_7 Cl2_7 1_555 1_555
O18_7 Cl2_7 1_555 1_555
O15_8 Cl2_8 1_555 1_555
O16_8 Cl2_8 1_555 1_555
O17_8 Cl2_8 1_555 1_555
O18_8 Cl2_8 1_555 1_555
O19 Cl3 1_555 1_555
O20 Cl3 1_555 1_555
O21 Cl3 1_555 1_555
O22 Cl3 1_555 1_555
O19_2 Cl3_2 1_555 1_555
O20_2 Cl3_2 1_555 1_555
O21_2 Cl3_2 1_555 1_555
O22_2 Cl3_2 1_555 1_555
O20_3 Cl3_3 1_555 1_555
O21_3 Cl3_3 1_555 1_555
O22_3 Cl3_3 1_555 1_555
O20_4 Cl3_4 1_555 1_555
O21_4 Cl3_4 1_555 1_555
O22_4 Cl3_4 1_555 1_555
O19_5 Cl3_5 1_555 1_555
O20_5 Cl3_5 1_555 1_555
O21_5 Cl3_5 1_555 1_555
O22_5 Cl3_5 1_555 1_555
O19_6 Cl3_6 1_555 1_555
O20_6 Cl3_6 1_555 1_555
O21_6 Cl3_6 1_555 1_555
O22_6 Cl3_6 1_555 1_555
O20_7 Cl3_7 1_555 1_555
O21_7 Cl3_7 1_555 1_555
O22_7 Cl3_7 1_555 1_555
O20_8 Cl3_8 1_555 1_555
O21_8 Cl3_8 1_555 1_555
O22_8 Cl3_8 1_555 1_555

#END
