
###############################################################################
#
# This file contains modified crystal structure data generated from the
# MOF subset of the Cambridge Structural Database (CSD) v543 
# hosted by the Cambridge Crystallographic Data Centre (CCDC).
#
# This work is licensed under the Creative Commons
# Attribution-NonCommercial-ShareAlike 4.0 International License.
# To view a copy of this license, visit
# http://creativecommons.org/licenses/by-nc-sa/4.0/
# or send a letter to
# Creative Commons, PO Box 1866, Mountain View, CA 94042, USA.
#
# CIF created using the CSD Python API on 29 September 2022
# The structure has been converted into the P1 space group
# The structure has a 3D framework
# The original CSD entry TIFHAT is in the monoclinic crystal system
# The framework has been calculated to contain at least 10.0% void space
# The void calculation uses a probe of radius 1.32A, grid spacing 0.4
# The framework is charged, counterions have been retained in the structure
# H atom positions have been added when not included in the experimental data
#
###############################################################################

data_TIFHAT
_chemical_formula_moiety         '(C192 H256 Cl24 N32 Nd8 O160)n'
_symmetry_cell_setting           triclinic
_symmetry_space_group_name_H-M   'P 1'
_symmetry_Int_Tables_number      1
_space_group_name_Hall           'P 1'
loop_
_symmetry_equiv_pos_site_id
_symmetry_equiv_pos_as_xyz
1 x,y,z
_cell_length_a                   33.912(2)
_cell_length_b                   23.1782(15)
_cell_length_c                   24.3984(16)
_cell_angle_alpha                90
_cell_angle_beta                 134.02
_cell_angle_gamma                90
_cell_volume                     13790.6
loop_
_atom_site_label
_atom_site_type_symbol
_atom_site_fract_x
_atom_site_fract_y
_atom_site_fract_z
Nd1 Nd 0.227328(16) 0.122671(17) 0.21967(2)
O1 O 0.1916(3) 0.0426(3) 0.1331(3)
O3 O 0.2930(2) 0.1906(3) 0.3107(4)
O4 O 0.6690(2) 0.3075(3) 0.6169(3)
O5 O 0.1404(3) 0.0842(3) 0.1744(4)
O6 O 0.1939(3) 0.1856(3) 0.2642(4)
O7 O 0.2612(2) 0.1521(3) 0.1602(3)
O8 O 0.3134(3) 0.0698(3) 0.2776(4)
N1 N 0.2026(3) 0.0266(3) 0.0934(4)
N3 N 0.3456(3) 0.2038(3) 0.3519(4)
N4 N 0.6182(3) 0.2892(3) 0.5783(4)
C1 C 0.1852(4) 0.0605(4) 0.0336(5)
H1 H 0.1674 0.0950 0.0242
C13 C 0.3857(4) 0.1685(4) 0.4111(5)
H13 H 0.3764 0.1351 0.4209
C14 C 0.4391(4) 0.1826(4) 0.4553(6)
H14 H 0.4663 0.1584 0.4954
C15 C 0.4545(3) 0.2340(4) 0.4414(5)
C16 C 0.4119(3) 0.2665(4) 0.3799(5)
H15 H 0.4202 0.2996 0.3681
C17 C 0.3567(3) 0.2523(4) 0.3343(5)
C18 C 0.3106(4) 0.2881(4) 0.2695(6)
H16 H 0.2844 0.2639 0.2259
H17 H 0.3242 0.3165 0.2576
H18 H 0.2932 0.3069 0.2830
C19 C 0.5117(3) 0.2525(4) 0.4906(5)
C20 C 0.5227(3) 0.3090(4) 0.4890(5)
H19 H 0.4945 0.3356 0.4581
C21 C 0.5777(4) 0.3258(4) 0.5351(6)
H20 H 0.5854 0.3643 0.5348
C22 C 0.6093(4) 0.2333(4) 0.5847(5)
C23 C 0.5555(3) 0.2162(4) 0.5390(5)
H21 H 0.5486 0.1779 0.5412
C24 C 0.6587(4) 0.1951(4) 0.6368(6)
H22 H 0.6847 0.2056 0.6341
H23 H 0.6479 0.1557 0.6214
H24 H 0.6751 0.1998 0.6881
Nd3 Nd 0.727328(16) 0.377329(17) 0.71967(2)
O9 O 0.2616(3) 0.0669(3) 0.3255(3)
O10 O 0.1690(2) 0.1925(3) 0.1169(3)
H25 H 0.145449 0.0430477 0.189407
H26 H 0.130229 0.106714 0.197676
H27 H 0.229569 0.157197 0.104479
H28 H 0.281583 0.189045 0.182986
H29 H 0.185855 0.161373 0.289019
H30 H 0.222601 0.214331 0.301332
H31 H 0.316685 0.0679107 0.240245
H32 H 0.345586 0.0904708 0.324048
Nd1_2 Nd 0.727328(16) 0.622671(17) 0.21967(2)
O1_2 O 0.6916(3) 0.5426(3) 0.1331(3)
O3_2 O 0.7930(2) 0.6906(3) 0.3107(4)
O5_2 O 0.6404(3) 0.5842(3) 0.1744(4)
O6_2 O 0.6939(3) 0.6856(3) 0.2642(4)
O7_2 O 0.7612(2) 0.6521(3) 0.1602(3)
O8_2 O 0.8134(3) 0.5698(3) 0.2776(4)
N1_2 N 0.7026(3) 0.5266(3) 0.0934(4)
N3_2 N 0.8456(3) 0.7038(3) 0.3519(4)
C1_2 C 0.6852(4) 0.5605(4) 0.0336(5)
H1_2 H 0.6674 0.5950 0.0242
C3 C 0.7208(4) 0.4941(4) 0.0025(5)
C4 C 0.7390(4) 0.4611(4) 0.0640(5)
H3 H 0.7581 0.4273 0.0751
C5 C 0.7301(4) 0.4763(4) 0.1097(5)
C6 C 0.7489(6) 0.4404(4) 0.1757(7)
H4 H 0.7715 0.4634 0.2212
H5 H 0.7697 0.4080 0.1825
H6 H 0.7176 0.4267 0.1655
C13_2 C 0.8857(4) 0.6685(4) 0.4111(5)
H13_2 H 0.8764 0.6351 0.4209
C14_2 C 0.9391(4) 0.6826(4) 0.4553(6)
H14_2 H 0.9663 0.6584 0.4954
C15_2 C 0.9545(3) 0.7340(4) 0.4414(5)
C16_2 C 0.9119(3) 0.7665(4) 0.3799(5)
H15_2 H 0.9202 0.7996 0.3681
C17_2 C 0.8567(3) 0.7523(4) 0.3343(5)
C18_2 C 0.8106(4) 0.7881(4) 0.2695(6)
H16_2 H 0.7844 0.7639 0.2259
H17_2 H 0.8242 0.8165 0.2576
H18_2 H 0.7932 0.8069 0.2830
H19_2 H 0.9945 0.8356 0.4581
O9_2 O 0.7616(3) 0.5669(3) 0.3255(3)
O10_2 O 0.6690(2) 0.6925(3) 0.1169(3)
H25_2 H 0.645449 0.543048 0.189407
H26_2 H 0.630229 0.606714 0.197676
H27_2 H 0.729569 0.657197 0.104479
H28_2 H 0.781583 0.689045 0.182986
H29_2 H 0.685855 0.661373 0.289019
H30_2 H 0.722601 0.714331 0.301332
H31_2 H 0.816685 0.567911 0.240245
H32_2 H 0.845586 0.590471 0.324048
O2 O 0.7616(3) 0.4331(3) 0.8255(3)
N2 N 0.7498(3) 0.4473(3) 0.8660(4)
C2 C 0.6928(4) 0.5456(4) 0.9887(5)
H2 H 0.6796 0.5693 0.9481
C7 C 0.7306(4) 0.4768(3) 0.9544(5)
C8 C 0.7458(4) 0.4217(4) 0.9548(5)
H7 H 0.7496 0.3938 0.9856
C9 C 0.7554(4) 0.4076(4) 0.9111(5)
H8 H 0.7659 0.3702 0.9123
C10 C 0.7343(4) 0.5028(4) 0.8622(5)
C11 C 0.7243(4) 0.5164(4) 0.9064(5)
H9 H 0.7129 0.5536 0.9040
C12 C 0.7290(5) 0.5451(4) 0.8104(6)
H10 H 0.7627 0.5462 0.8227
H11 H 0.7212 0.5828 0.8172
H12 H 0.6997 0.5332 0.7584
N2_2 N 0.2498(3) 0.0527(3) 0.3660(4)
C3_2 C 0.2208(4) 0.0059(4) 0.5025(5)
C4_2 C 0.2390(4) 0.0389(4) 0.5640(5)
H3_2 H 0.2581 0.0727 0.5751
C5_2 C 0.2301(4) 0.0237(4) 0.6097(5)
C6_2 C 0.2489(6) 0.0596(4) 0.6757(7)
H4_2 H 0.2715 0.0366 0.7212
H5_2 H 0.2697 0.0920 0.6825
H6_2 H 0.2176 0.0733 0.6655
C7_2 C 0.2306(4) 0.0232(3) 0.4544(5)
C8_2 C 0.2458(4) 0.0783(4) 0.4548(5)
H7_2 H 0.2496 0.1062 0.4856
C9_2 C 0.2554(4) 0.0924(4) 0.4111(5)
H8_2 H 0.2659 0.1298 0.4123
N4_2 N 0.6182(3) 0.7108(3) 0.0783(4)
C21_2 C 0.5777(4) 0.6742(4) 0.0351(6)
H20_2 H 0.5854 0.6357 0.0348
C22_2 C 0.6093(4) 0.7667(4) 0.0847(5)
C23_2 C 0.5555(3) 0.7838(4) 0.0390(5)
H21_2 H 0.5486 0.8221 0.0412
C24_2 C 0.6587(4) 0.8049(4) 0.1368(6)
H22_2 H 0.6847 0.7944 0.1341
H23_2 H 0.6479 0.8443 0.1214
H24_2 H 0.6751 0.8002 0.1881
N4_3 N 0.1182(3) 0.2108(3) 0.0783(4)
C21_3 C 0.0777(4) 0.1742(4) 0.0351(6)
H20_3 H 0.0854 0.1357 0.0348
C22_3 C 0.1093(4) 0.2667(4) 0.0847(5)
C23_3 C 0.0555(3) 0.2838(4) 0.0390(5)
H21_3 H 0.0486 0.3221 0.0412
C24_3 C 0.1587(4) 0.3049(4) 0.1368(6)
H22_3 H 0.1847 0.2944 0.1341
H23_3 H 0.1479 0.3443 0.1214
H24_3 H 0.1751 0.3002 0.1881
O1_3 O 0.6916(3) 0.4574(3) 0.6331(3)
O3_3 O 0.7930(2) 0.3094(3) 0.8107(4)
O5_3 O 0.6404(3) 0.4158(3) 0.6744(4)
O6_3 O 0.6939(3) 0.3144(3) 0.7642(4)
O7_3 O 0.7612(2) 0.3479(3) 0.6602(3)
O8_3 O 0.8134(3) 0.4302(3) 0.7776(4)
N1_3 N 0.7026(3) 0.4734(3) 0.5934(4)
N2_3 N 0.7498(3) 0.5527(3) 0.3660(4)
N3_3 N 0.8456(3) 0.2962(3) 0.8519(4)
C1_3 C 0.6852(4) 0.4395(4) 0.5336(5)
H1_3 H 0.6674 0.4050 0.5242
C2_2 C 0.6928(4) 0.4544(4) 0.4887(5)
H2_2 H 0.6796 0.4307 0.4481
C3_3 C 0.7208(4) 0.5059(4) 0.5025(5)
C4_3 C 0.7390(4) 0.5389(4) 0.5640(5)
H3_3 H 0.7581 0.5727 0.5751
C5_3 C 0.7301(4) 0.5237(4) 0.6097(5)
C6_3 C 0.7489(6) 0.5596(4) 0.6757(7)
H4_3 H 0.7715 0.5366 0.7212
H5_3 H 0.7697 0.5920 0.6825
H6_3 H 0.7176 0.5733 0.6655
C7_3 C 0.7306(4) 0.5232(3) 0.4544(5)
C8_3 C 0.7458(4) 0.5783(4) 0.4548(5)
H7_3 H 0.7496 0.6062 0.4856
C9_3 C 0.7554(4) 0.5924(4) 0.4111(5)
H8_3 H 0.7659 0.6298 0.4123
C10_2 C 0.7343(4) 0.4972(4) 0.3622(5)
C11_2 C 0.7243(4) 0.4836(4) 0.4064(5)
H9_2 H 0.7129 0.4464 0.4040
C12_2 C 0.7290(5) 0.4549(4) 0.3104(6)
H10_2 H 0.7627 0.4538 0.3227
H11_2 H 0.7212 0.4172 0.3172
H12_2 H 0.6997 0.4668 0.2584
C13_3 C 0.8857(4) 0.3315(4) 0.9111(5)
H13_3 H 0.8764 0.3649 0.9209
C14_3 C 0.9391(4) 0.3174(4) 0.9553(6)
H14_3 H 0.9663 0.3416 0.9954
C15_3 C 0.9545(3) 0.2660(4) 0.9414(5)
C16_3 C 0.9119(3) 0.2335(4) 0.8799(5)
H15_3 H 0.9202 0.2004 0.8681
C17_3 C 0.8567(3) 0.2477(4) 0.8343(5)
C18_3 C 0.8106(4) 0.2119(4) 0.7695(6)
H16_3 H 0.7844 0.2361 0.7259
H17_3 H 0.8242 0.1835 0.7576
H18_3 H 0.7932 0.1931 0.7830
H19_3 H 0.9945 0.1644 0.9581
H25_3 H 0.645449 0.456952 0.689407
H26_3 H 0.630229 0.393286 0.697676
H27_3 H 0.729569 0.342803 0.604479
H28_3 H 0.781583 0.310955 0.682986
H29_3 H 0.685855 0.338627 0.789019
H30_3 H 0.722601 0.285669 0.801332
H31_3 H 0.816685 0.432089 0.740245
H32_3 H 0.845586 0.409529 0.824048
C2_3 C 0.1928(4) 0.0456(4) 0.9887(5)
H2_3 H 0.1796 0.0693 0.9481
C10_3 C 0.2343(4) 0.0028(4) 0.8622(5)
C11_3 C 0.2243(4) 0.0164(4) 0.9064(5)
H9_3 H 0.2129 0.0536 0.9040
C12_3 C 0.2290(5) 0.0451(4) 0.8104(6)
H10_3 H 0.2627 0.0462 0.8227
H11_3 H 0.2212 0.0828 0.8172
H12_3 H 0.1997 0.0332 0.7584
C3_4 C 0.2208(4) 0.9941(4) 0.0025(5)
C4_4 C 0.2390(4) 0.9611(4) 0.0640(5)
H3_4 H 0.2581 0.9273 0.0751
C5_4 C 0.2301(4) 0.9763(4) 0.1097(5)
C6_4 C 0.2489(6) 0.9404(4) 0.1757(7)
H4_4 H 0.2715 0.9634 0.2212
H5_4 H 0.2697 0.9080 0.1825
H6_4 H 0.2176 0.9267 0.1655
O2_2 O 0.2616(3) 0.9331(3) 0.8255(3)
N2_4 N 0.2498(3) 0.9473(3) 0.8660(4)
C7_4 C 0.2306(4) 0.9768(3) 0.9544(5)
C8_4 C 0.2458(4) 0.9217(4) 0.9548(5)
H7_4 H 0.2496 0.8938 0.9856
C9_4 C 0.2554(4) 0.9076(4) 0.9111(5)
H8_4 H 0.2659 0.8702 0.9123
Nd2 Nd 0.227328(16) 0.877329(17) 0.71967(2)
O4_2 O 0.1690(2) 0.8075(3) 0.6169(3)
N4_4 N 0.1182(3) 0.7892(3) 0.5783(4)
C19_2 C 0.0117(3) 0.7525(4) 0.4906(5)
C20_2 C 0.0227(3) 0.8090(4) 0.4890(5)
C21_4 C 0.0777(4) 0.8258(4) 0.5351(6)
H20_4 H 0.0854 0.8643 0.5348
C22_4 C 0.1093(4) 0.7333(4) 0.5847(5)
C23_4 C 0.0555(3) 0.7162(4) 0.5390(5)
H21_4 H 0.0486 0.6779 0.5412
C24_4 C 0.1587(4) 0.6951(4) 0.6368(6)
H22_4 H 0.1847 0.7056 0.6341
H23_4 H 0.1479 0.6557 0.6214
H24_4 H 0.1751 0.6998 0.6881
O1_4 O 0.1916(3) 0.9574(3) 0.6331(3)
O3_4 O 0.2930(2) 0.8094(3) 0.8107(4)
O5_4 O 0.1404(3) 0.9158(3) 0.6744(4)
O6_4 O 0.1939(3) 0.8144(3) 0.7642(4)
O7_4 O 0.2612(2) 0.8479(3) 0.6602(3)
O8_4 O 0.3134(3) 0.9302(3) 0.7776(4)
N1_4 N 0.2026(3) 0.9734(3) 0.5934(4)
N3_4 N 0.3456(3) 0.7962(3) 0.8519(4)
C1_4 C 0.1852(4) 0.9395(4) 0.5336(5)
H1_4 H 0.1674 0.9050 0.5242
C2_4 C 0.1928(4) 0.9544(4) 0.4887(5)
H2_4 H 0.1796 0.9307 0.4481
C10_4 C 0.2343(4) 0.9972(4) 0.3622(5)
C11_4 C 0.2243(4) 0.9836(4) 0.4064(5)
H9_4 H 0.2129 0.9464 0.4040
C12_4 C 0.2290(5) 0.9549(4) 0.3104(6)
H10_4 H 0.2627 0.9538 0.3227
H11_4 H 0.2212 0.9172 0.3172
H12_4 H 0.1997 0.9668 0.2584
C13_4 C 0.3857(4) 0.8315(4) 0.9111(5)
H13_4 H 0.3764 0.8649 0.9209
C14_4 C 0.4391(4) 0.8174(4) 0.9553(6)
H14_4 H 0.4663 0.8416 0.9954
C15_4 C 0.4545(3) 0.7660(4) 0.9414(5)
C16_4 C 0.4119(3) 0.7335(4) 0.8799(5)
H15_4 H 0.4202 0.7004 0.8681
C17_4 C 0.3567(3) 0.7477(4) 0.8343(5)
C18_4 C 0.3106(4) 0.7119(4) 0.7695(6)
H16_4 H 0.2844 0.7361 0.7259
H17_4 H 0.3242 0.6835 0.7576
H18_4 H 0.2932 0.6931 0.7830
C19_3 C 0.5117(3) 0.7475(4) 0.9906(5)
C20_3 C 0.5227(3) 0.6910(4) 0.9890(5)
H19_4 H 0.4945 0.6644 0.9581
H25_4 H 0.145449 0.956952 0.689407
H26_4 H 0.130229 0.893286 0.697676
H27_4 H 0.229569 0.842803 0.604479
H28_4 H 0.281583 0.810955 0.682986
H29_4 H 0.185855 0.838627 0.789019
H30_4 H 0.222601 0.785669 0.801332
H31_4 H 0.316685 0.932089 0.740245
H32_4 H 0.345586 0.909529 0.824048
Nd1_3 Nd 0.772672(16) 0.122671(17) 0.28033(2)
O1_5 O 0.8084(3) 0.0426(3) 0.3669(3)
O3_5 O 0.7070(2) 0.1906(3) 0.1893(4)
O5_5 O 0.8596(3) 0.0842(3) 0.3256(4)
O6_5 O 0.8061(3) 0.1856(3) 0.2358(4)
O7_5 O 0.7388(2) 0.1521(3) 0.3398(3)
O8_5 O 0.6866(3) 0.0698(3) 0.2224(4)
N1_5 N 0.7974(3) 0.0266(3) 0.4066(4)
N3_5 N 0.6544(3) 0.2038(3) 0.1481(4)
C1_5 C 0.8148(4) 0.0605(4) 0.4664(5)
H1_5 H 0.8326 0.0950 0.4758
C2_5 C 0.8072(4) 0.0456(4) 0.5113(5)
H2_5 H 0.8204 0.0693 0.5519
C10_5 C 0.7657(4) 0.0028(4) 0.6378(5)
C11_5 C 0.7757(4) 0.0164(4) 0.5936(5)
H9_5 H 0.7871 0.0536 0.5960
C12_5 C 0.7710(5) 0.0451(4) 0.6896(6)
H10_5 H 0.7373 0.0462 0.6773
H11_5 H 0.7788 0.0828 0.6828
H12_5 H 0.8003 0.0332 0.7416
C13_5 C 0.6143(4) 0.1685(4) 0.0889(5)
H13_5 H 0.6236 0.1351 0.0791
C14_5 C 0.5609(4) 0.1826(4) 0.0447(6)
H14_5 H 0.5337 0.1584 0.0046
C15_5 C 0.5455(3) 0.2340(4) 0.0586(5)
C16_5 C 0.5881(3) 0.2665(4) 0.1201(5)
H15_5 H 0.5798 0.2996 0.1319
C17_5 C 0.6433(3) 0.2523(4) 0.1657(5)
C18_5 C 0.6894(4) 0.2881(4) 0.2305(6)
H16_5 H 0.7156 0.2639 0.2741
H17_5 H 0.6758 0.3165 0.2424
H18_5 H 0.7068 0.3069 0.2170
C19_4 C 0.4883(3) 0.2525(4) 0.0094(5)
C20_4 C 0.4773(3) 0.3090(4) 0.0110(5)
H19_5 H 0.5055 0.3356 0.0419
O9_3 O 0.7384(3) 0.0669(3) 0.1745(3)
O10_3 O 0.8310(2) 0.1925(3) 0.3831(3)
H25_5 H 0.854551 0.0430477 0.310593
H26_5 H 0.869771 0.106714 0.302324
H27_5 H 0.770431 0.157197 0.395521
H28_5 H 0.718417 0.189045 0.317014
H29_5 H 0.814145 0.161373 0.210981
H30_5 H 0.777399 0.214331 0.198668
H31_5 H 0.683315 0.0679107 0.259755
H32_5 H 0.654414 0.0904708 0.175952
N2_5 N 0.7502(3) 0.0527(3) 0.1340(4)
C7_5 C 0.7694(4) 0.0232(3) 0.0456(5)
C8_5 C 0.7542(4) 0.0783(4) 0.0452(5)
H7_5 H 0.7504 0.1062 0.0144
C9_5 C 0.7446(4) 0.0924(4) 0.0889(5)
H8_5 H 0.7341 0.1298 0.0877
N4_5 N 0.8818(3) 0.2108(3) 0.4217(4)
C19_5 C 0.9883(3) 0.2475(4) 0.5094(5)
C20_5 C 0.9773(3) 0.1910(4) 0.5110(5)
C21_5 C 0.9223(4) 0.1742(4) 0.4649(6)
H20_5 H 0.9146 0.1357 0.4652
C22_5 C 0.8907(4) 0.2667(4) 0.4153(5)
C23_5 C 0.9445(3) 0.2838(4) 0.4610(5)
H21_5 H 0.9514 0.3221 0.4588
C24_5 C 0.8413(4) 0.3049(4) 0.3632(6)
H22_5 H 0.8153 0.2944 0.3659
H23_5 H 0.8521 0.3443 0.3786
H24_5 H 0.8249 0.3002 0.3119
O4_3 O 0.3310(2) 0.3075(3) 0.8831(3)
N4_6 N 0.3818(3) 0.2892(3) 0.9217(4)
C21_6 C 0.4223(4) 0.3258(4) 0.9649(6)
H20_6 H 0.4146 0.3643 0.9652
C22_6 C 0.3907(4) 0.2333(4) 0.9153(5)
C23_6 C 0.4445(3) 0.2162(4) 0.9610(5)
H21_6 H 0.4514 0.1779 0.9588
C24_6 C 0.3413(4) 0.1951(4) 0.8632(6)
H22_6 H 0.3153 0.2056 0.8659
H23_6 H 0.3521 0.1557 0.8786
H24_6 H 0.3249 0.1998 0.8119
Nd3_2 Nd 0.272672(16) 0.377329(17) 0.78033(2)
O2_3 O 0.7384(3) 0.9331(3) 0.6745(3)
N2_6 N 0.7502(3) 0.9473(3) 0.6340(4)
C3_5 C 0.7792(4) 0.9941(4) 0.4975(5)
C4_5 C 0.7610(4) 0.9611(4) 0.4360(5)
H3_5 H 0.7419 0.9273 0.4249
C5_5 C 0.7699(4) 0.9763(4) 0.3903(5)
C6_5 C 0.7511(6) 0.9404(4) 0.3243(7)
H4_5 H 0.7285 0.9634 0.2788
H5_5 H 0.7303 0.9080 0.3175
H6_5 H 0.7824 0.9267 0.3345
C7_6 C 0.7694(4) 0.9768(3) 0.5456(5)
C8_6 C 0.7542(4) 0.9217(4) 0.5452(5)
H7_6 H 0.7504 0.8938 0.5144
C9_6 C 0.7446(4) 0.9076(4) 0.5889(5)
H8_6 H 0.7341 0.8702 0.5877
Nd2_2 Nd 0.772672(16) 0.877329(17) 0.78033(2)
Nd1_4 Nd 0.272672(16) 0.622671(17) 0.28033(2)
O1_6 O 0.3084(3) 0.5426(3) 0.3669(3)
O2_4 O 0.2384(3) 0.4331(3) 0.6745(3)
O3_6 O 0.2070(2) 0.6906(3) 0.1893(4)
O5_6 O 0.3596(3) 0.5842(3) 0.3256(4)
O6_6 O 0.3061(3) 0.6856(3) 0.2358(4)
O7_6 O 0.2388(2) 0.6521(3) 0.3398(3)
O8_6 O 0.1866(3) 0.5698(3) 0.2224(4)
N1_6 N 0.2974(3) 0.5266(3) 0.4066(4)
N2_7 N 0.2502(3) 0.4473(3) 0.6340(4)
N3_6 N 0.1544(3) 0.7038(3) 0.1481(4)
C1_6 C 0.3148(4) 0.5605(4) 0.4664(5)
H1_6 H 0.3326 0.5950 0.4758
C2_6 C 0.3072(4) 0.5456(4) 0.5113(5)
H2_6 H 0.3204 0.5693 0.5519
C3_6 C 0.2792(4) 0.4941(4) 0.4975(5)
C4_6 C 0.2610(4) 0.4611(4) 0.4360(5)
H3_6 H 0.2419 0.4273 0.4249
C5_6 C 0.2699(4) 0.4763(4) 0.3903(5)
C6_6 C 0.2511(6) 0.4404(4) 0.3243(7)
H4_6 H 0.2285 0.4634 0.2788
H5_6 H 0.2303 0.4080 0.3175
H6_6 H 0.2824 0.4267 0.3345
C7_7 C 0.2694(4) 0.4768(3) 0.5456(5)
C8_7 C 0.2542(4) 0.4217(4) 0.5452(5)
H7_7 H 0.2504 0.3938 0.5144
C9_7 C 0.2446(4) 0.4076(4) 0.5889(5)
H8_7 H 0.2341 0.3702 0.5877
C10_6 C 0.2657(4) 0.5028(4) 0.6378(5)
C11_6 C 0.2757(4) 0.5164(4) 0.5936(5)
H9_6 H 0.2871 0.5536 0.5960
C12_6 C 0.2710(5) 0.5451(4) 0.6896(6)
H10_6 H 0.2373 0.5462 0.6773
H11_6 H 0.2788 0.5828 0.6828
H12_6 H 0.3003 0.5332 0.7416
C13_6 C 0.1143(4) 0.6685(4) 0.0889(5)
H13_6 H 0.1236 0.6351 0.0791
C14_6 C 0.0609(4) 0.6826(4) 0.0447(6)
H14_6 H 0.0337 0.6584 0.0046
C15_6 C 0.0455(3) 0.7340(4) 0.0586(5)
C16_6 C 0.0881(3) 0.7665(4) 0.1201(5)
H15_6 H 0.0798 0.7996 0.1319
C17_6 C 0.1433(3) 0.7523(4) 0.1657(5)
C18_6 C 0.1894(4) 0.7881(4) 0.2305(6)
H16_6 H 0.2156 0.7639 0.2741
H17_6 H 0.1758 0.8165 0.2424
H18_6 H 0.2068 0.8069 0.2170
H19_6 H 0.0055 0.8356 0.0419
O9_4 O 0.2384(3) 0.5669(3) 0.1745(3)
O10_4 O 0.3310(2) 0.6925(3) 0.3831(3)
H25_6 H 0.354551 0.543048 0.310593
H26_6 H 0.369771 0.606714 0.302324
H27_6 H 0.270431 0.657197 0.395521
H28_6 H 0.218417 0.689045 0.317014
H29_6 H 0.314145 0.661373 0.210981
H30_6 H 0.277399 0.714331 0.198668
H31_6 H 0.183315 0.567911 0.259755
H32_6 H 0.154414 0.590471 0.175952
O4_4 O 0.8310(2) 0.8075(3) 0.8831(3)
N4_7 N 0.8818(3) 0.7892(3) 0.9217(4)
C21_7 C 0.9223(4) 0.8258(4) 0.9649(6)
H20_7 H 0.9146 0.8643 0.9652
C22_7 C 0.8907(4) 0.7333(4) 0.9153(5)
C23_7 C 0.9445(3) 0.7162(4) 0.9610(5)
H21_7 H 0.9514 0.6779 0.9588
C24_7 C 0.8413(4) 0.6951(4) 0.8632(6)
H22_7 H 0.8153 0.7056 0.8659
H23_7 H 0.8521 0.6557 0.8786
H24_7 H 0.8249 0.6998 0.8119
O1_7 O 0.8084(3) 0.9574(3) 0.8669(3)
O3_7 O 0.7070(2) 0.8094(3) 0.6893(4)
O5_7 O 0.8596(3) 0.9158(3) 0.8256(4)
O6_7 O 0.8061(3) 0.8144(3) 0.7358(4)
O7_7 O 0.7388(2) 0.8479(3) 0.8398(3)
O8_7 O 0.6866(3) 0.9302(3) 0.7224(4)
N1_7 N 0.7974(3) 0.9734(3) 0.9066(4)
N3_7 N 0.6544(3) 0.7962(3) 0.6481(4)
N4_8 N 0.3818(3) 0.7108(3) 0.4217(4)
C1_7 C 0.8148(4) 0.9395(4) 0.9664(5)
H1_7 H 0.8326 0.9050 0.9758
C13_7 C 0.6143(4) 0.8315(4) 0.5889(5)
H13_7 H 0.6236 0.8649 0.5791
C14_7 C 0.5609(4) 0.8174(4) 0.5447(6)
H14_7 H 0.5337 0.8416 0.5046
C15_7 C 0.5455(3) 0.7660(4) 0.5586(5)
C16_7 C 0.5881(3) 0.7335(4) 0.6201(5)
H15_7 H 0.5798 0.7004 0.6319
C17_7 C 0.6433(3) 0.7477(4) 0.6657(5)
C18_7 C 0.6894(4) 0.7119(4) 0.7305(6)
H16_7 H 0.7156 0.7361 0.7741
H17_7 H 0.6758 0.6835 0.7424
H18_7 H 0.7068 0.6931 0.7170
C19_6 C 0.4883(3) 0.7475(4) 0.5094(5)
C20_6 C 0.4773(3) 0.6910(4) 0.5110(5)
H19_7 H 0.5055 0.6644 0.5419
C21_8 C 0.4223(4) 0.6742(4) 0.4649(6)
H20_8 H 0.4146 0.6357 0.4652
C22_8 C 0.3907(4) 0.7667(4) 0.4153(5)
C23_8 C 0.4445(3) 0.7838(4) 0.4610(5)
H21_8 H 0.4514 0.8221 0.4588
C24_8 C 0.3413(4) 0.8049(4) 0.3632(6)
H22_8 H 0.3153 0.7944 0.3659
H23_8 H 0.3521 0.8443 0.3786
H24_8 H 0.3249 0.8002 0.3119
H25_7 H 0.854551 0.956952 0.810593
H26_7 H 0.869771 0.893286 0.802324
H27_7 H 0.770431 0.842803 0.895521
H28_7 H 0.718417 0.810955 0.817014
H29_7 H 0.814145 0.838627 0.710981
H30_7 H 0.777399 0.785669 0.698668
H31_7 H 0.683315 0.932089 0.759755
H32_7 H 0.654414 0.909529 0.675952
N2_8 N 0.2502(3) 0.5527(3) 0.1340(4)
C2_7 C 0.3072(4) 0.4544(4) 0.0113(5)
H2_7 H 0.3204 0.4307 0.0519
C7_8 C 0.2694(4) 0.5232(3) 0.0456(5)
C8_8 C 0.2542(4) 0.5783(4) 0.0452(5)
H7_8 H 0.2504 0.6062 0.0144
C9_8 C 0.2446(4) 0.5924(4) 0.0889(5)
H8_8 H 0.2341 0.6298 0.0877
C10_7 C 0.2657(4) 0.4972(4) 0.1378(5)
C11_7 C 0.2757(4) 0.4836(4) 0.0936(5)
H9_7 H 0.2871 0.4464 0.0960
C12_7 C 0.2710(5) 0.4549(4) 0.1896(6)
H10_7 H 0.2373 0.4538 0.1773
H11_7 H 0.2788 0.4172 0.1828
H12_7 H 0.3003 0.4668 0.2416
O1_8 O 0.3084(3) 0.4574(3) 0.8669(3)
O3_8 O 0.2070(2) 0.3094(3) 0.6893(4)
O5_8 O 0.3596(3) 0.4158(3) 0.8256(4)
O6_8 O 0.3061(3) 0.3144(3) 0.7358(4)
O7_8 O 0.2388(2) 0.3479(3) 0.8398(3)
O8_8 O 0.1866(3) 0.4302(3) 0.7224(4)
N1_8 N 0.2974(3) 0.4734(3) 0.9066(4)
N3_8 N 0.1544(3) 0.2962(3) 0.6481(4)
C1_8 C 0.3148(4) 0.4395(4) 0.9664(5)
H1_8 H 0.3326 0.4050 0.9758
C3_7 C 0.2792(4) 0.5059(4) 0.9975(5)
C4_7 C 0.2610(4) 0.5389(4) 0.9360(5)
H3_7 H 0.2419 0.5727 0.9249
C5_7 C 0.2699(4) 0.5237(4) 0.8903(5)
C6_7 C 0.2511(6) 0.5596(4) 0.8243(7)
H4_7 H 0.2285 0.5366 0.7788
H5_7 H 0.2303 0.5920 0.8175
H6_7 H 0.2824 0.5733 0.8345
C13_8 C 0.1143(4) 0.3315(4) 0.5889(5)
H13_8 H 0.1236 0.3649 0.5791
C14_8 C 0.0609(4) 0.3174(4) 0.5447(6)
H14_8 H 0.0337 0.3416 0.5046
C15_8 C 0.0455(3) 0.2660(4) 0.5586(5)
C16_8 C 0.0881(3) 0.2335(4) 0.6201(5)
H15_8 H 0.0798 0.2004 0.6319
C17_8 C 0.1433(3) 0.2477(4) 0.6657(5)
C18_8 C 0.1894(4) 0.2119(4) 0.7305(6)
H16_8 H 0.2156 0.2361 0.7741
H17_8 H 0.1758 0.1835 0.7424
H18_8 H 0.2068 0.1931 0.7170
H19_8 H 0.0055 0.1644 0.5419
H25_8 H 0.354551 0.456952 0.810593
H26_8 H 0.369771 0.393286 0.802324
H27_8 H 0.270431 0.342803 0.895521
H28_8 H 0.218417 0.310955 0.817014
H29_8 H 0.314145 0.338627 0.710981
H30_8 H 0.277399 0.285669 0.698668
H31_8 H 0.183315 0.432089 0.759755
H32_8 H 0.154414 0.409529 0.675952
C19_7 C 0.9883(3) 0.7525(4) 0.0094(5)
C20_7 C 0.9773(3) 0.8090(4) 0.0110(5)
C3_8 C 0.7792(4) 0.0059(4) 0.9975(5)
C4_8 C 0.7610(4) 0.0389(4) 0.9360(5)
H3_8 H 0.7419 0.0727 0.9249
C5_8 C 0.7699(4) 0.0237(4) 0.8903(5)
C6_8 C 0.7511(6) 0.0596(4) 0.8243(7)
H4_8 H 0.7285 0.0366 0.7788
H5_8 H 0.7303 0.0920 0.8175
H6_8 H 0.7824 0.0733 0.8345
C2_8 C 0.8072(4) 0.9544(4) 0.0113(5)
H2_8 H 0.8204 0.9307 0.0519
C10_8 C 0.7657(4) 0.9972(4) 0.1378(5)
C11_8 C 0.7757(4) 0.9836(4) 0.0936(5)
H9_8 H 0.7871 0.9464 0.0960
C12_8 C 0.7710(5) 0.9549(4) 0.1896(6)
H10_8 H 0.7373 0.9538 0.1773
H11_8 H 0.7788 0.9172 0.1828
H12_8 H 0.8003 0.9668 0.2416
C19_8 C 0.0117(3) 0.2475(4) 0.9906(5)
C20_8 C 0.0227(3) 0.1910(4) 0.9890(5)
O11 O 0.5542(7) 0.0612(7) 0.5225(10)
O13 O 0.6239(8) 0.0599(7) 0.5304(9)
O14 O 0.6406(6) 0.0314(6) 0.6327(8)
Cl1 Cl 0.5999(3) 0.0277(2) 0.5498(3)
O12 O 0.5964(9) 0.9750(7) 0.5421(12)
O11_2 O 0.4458(7) 0.0612(7) 0.9775(10)
O13_2 O 0.3761(8) 0.0599(7) 0.9696(9)
O14_2 O 0.3594(6) 0.0314(6) 0.8673(8)
Cl1_2 Cl 0.4001(3) 0.0277(2) 0.9502(3)
O12_2 O 0.4036(9) 0.9750(7) 0.9579(12)
O11_3 O 0.0542(7) 0.5612(7) 0.5225(10)
O12_3 O 0.0964(9) 0.4750(7) 0.5421(12)
O13_3 O 0.1239(8) 0.5599(7) 0.5304(9)
O14_3 O 0.1406(6) 0.5314(6) 0.6327(8)
Cl1_3 Cl 0.0999(3) 0.5277(2) 0.5498(3)
O11_4 O 0.9458(7) 0.5612(7) 0.9775(10)
O12_4 O 0.9036(9) 0.4750(7) 0.9579(12)
O13_4 O 0.8761(8) 0.5599(7) 0.9696(9)
O14_4 O 0.8594(6) 0.5314(6) 0.8673(8)
Cl1_4 Cl 0.9001(3) 0.5277(2) 0.9502(3)
O12_5 O 0.4036(9) 0.0250(7) 0.4579(12)
O11_5 O 0.4458(7) 0.9388(7) 0.4775(10)
O13_5 O 0.3761(8) 0.9401(7) 0.4696(9)
O14_5 O 0.3594(6) 0.9686(6) 0.3673(8)
Cl1_5 Cl 0.4001(3) 0.9723(2) 0.4502(3)
O12_6 O 0.5964(9) 0.0250(7) 0.0421(12)
O11_6 O 0.5542(7) 0.9388(7) 0.0225(10)
O13_6 O 0.6239(8) 0.9401(7) 0.0304(9)
O14_6 O 0.6406(6) 0.9686(6) 0.1327(8)
Cl1_6 Cl 0.5999(3) 0.9723(2) 0.0498(3)
O11_7 O 0.9458(7) 0.4388(7) 0.4775(10)
O12_7 O 0.9036(9) 0.5250(7) 0.4579(12)
O13_7 O 0.8761(8) 0.4401(7) 0.4696(9)
O14_7 O 0.8594(6) 0.4686(6) 0.3673(8)
Cl1_7 Cl 0.9001(3) 0.4723(2) 0.4502(3)
O11_8 O 0.0542(7) 0.4388(7) 0.0225(10)
O12_8 O 0.0964(9) 0.5250(7) 0.0421(12)
O13_8 O 0.1239(8) 0.4401(7) 0.0304(9)
O14_8 O 0.1406(6) 0.4686(6) 0.1327(8)
Cl1_8 Cl 0.0999(3) 0.4723(2) 0.0498(3)
O15 O 0.7425(4) 0.2110(4) 0.8436(5)
O16 O 0.7800(6) 0.1761(4) 0.9607(7)
O17 O 0.8341(5) 0.1937(6) 0.9419(8)
O18 O 0.7916(6) 0.2698(4) 0.9473(7)
Cl2 Cl 0.78775(16) 0.21334(12) 0.92496(19)
O15_2 O 0.2575(4) 0.2110(4) 0.6564(5)
O16_2 O 0.2200(6) 0.1761(4) 0.5393(7)
O17_2 O 0.1659(5) 0.1937(6) 0.5581(8)
O18_2 O 0.2084(6) 0.2698(4) 0.5527(7)
Cl2_2 Cl 0.21225(16) 0.21334(12) 0.57504(19)
O15_3 O 0.2425(4) 0.7110(4) 0.8436(5)
O16_3 O 0.2800(6) 0.6761(4) 0.9607(7)
O17_3 O 0.3341(5) 0.6937(6) 0.9419(8)
O18_3 O 0.2916(6) 0.7698(4) 0.9473(7)
Cl2_3 Cl 0.28775(16) 0.71334(12) 0.92496(19)
O15_4 O 0.7575(4) 0.7110(4) 0.6564(5)
O16_4 O 0.7200(6) 0.6761(4) 0.5393(7)
O17_4 O 0.6659(5) 0.6937(6) 0.5581(8)
O18_4 O 0.7084(6) 0.7698(4) 0.5527(7)
Cl2_4 Cl 0.71225(16) 0.71334(12) 0.57504(19)
O15_5 O 0.2575(4) 0.7890(4) 0.1564(5)
O16_5 O 0.2200(6) 0.8239(4) 0.0393(7)
O17_5 O 0.1659(5) 0.8063(6) 0.0581(8)
O18_5 O 0.2084(6) 0.7302(4) 0.0527(7)
Cl2_5 Cl 0.21225(16) 0.78666(12) 0.07504(19)
O15_6 O 0.7425(4) 0.7890(4) 0.3436(5)
O16_6 O 0.7800(6) 0.8239(4) 0.4607(7)
O17_6 O 0.8341(5) 0.8063(6) 0.4419(8)
O18_6 O 0.7916(6) 0.7302(4) 0.4473(7)
Cl2_6 Cl 0.78775(16) 0.78666(12) 0.42496(19)
O15_7 O 0.7575(4) 0.2890(4) 0.1564(5)
O16_7 O 0.7200(6) 0.3239(4) 0.0393(7)
O17_7 O 0.6659(5) 0.3063(6) 0.0581(8)
O18_7 O 0.7084(6) 0.2302(4) 0.0527(7)
Cl2_7 Cl 0.71225(16) 0.28666(12) 0.07504(19)
O15_8 O 0.2425(4) 0.2890(4) 0.3436(5)
O16_8 O 0.2800(6) 0.3239(4) 0.4607(7)
O17_8 O 0.3341(5) 0.3063(6) 0.4419(8)
O18_8 O 0.2916(6) 0.2302(4) 0.4473(7)
Cl2_8 Cl 0.28775(16) 0.28666(12) 0.42496(19)
O19 O 0.8598(5) 0.1412(6) 0.6866(8)
O20 O 0.9045(5) 0.0628(4) 0.7660(7)
O21 O 0.9459(5) 0.1531(6) 0.8010(8)
O22 O 0.9316(7) 0.1026(5) 0.7139(9)
Cl3 Cl 0.91130(12) 0.11558(11) 0.74417(16)
O19_2 O 0.1402(5) 0.1412(6) 0.8134(8)
O20_2 O 0.0955(5) 0.0628(4) 0.7340(7)
O21_2 O 0.0541(5) 0.1531(6) 0.6990(8)
O22_2 O 0.0684(7) 0.1026(5) 0.7861(9)
Cl3_2 Cl 0.08870(12) 0.11558(11) 0.75583(16)
O19_3 O 0.3598(5) 0.6412(6) 0.6866(8)
O20_3 O 0.4045(5) 0.5628(4) 0.7660(7)
O21_3 O 0.4459(5) 0.6531(6) 0.8010(8)
O22_3 O 0.4316(7) 0.6026(5) 0.7139(9)
Cl3_3 Cl 0.41130(12) 0.61558(11) 0.74417(16)
O19_4 O 0.6402(5) 0.6412(6) 0.8134(8)
O20_4 O 0.5955(5) 0.5628(4) 0.7340(7)
O21_4 O 0.5541(5) 0.6531(6) 0.6990(8)
O22_4 O 0.5684(7) 0.6026(5) 0.7861(9)
Cl3_4 Cl 0.58870(12) 0.61558(11) 0.75583(16)
O19_5 O 0.1402(5) 0.8588(6) 0.3134(8)
O20_5 O 0.0955(5) 0.9372(4) 0.2340(7)
O21_5 O 0.0541(5) 0.8469(6) 0.1990(8)
O22_5 O 0.0684(7) 0.8974(5) 0.2861(9)
Cl3_5 Cl 0.08870(12) 0.88442(11) 0.25583(16)
O19_6 O 0.8598(5) 0.8588(6) 0.1866(8)
O20_6 O 0.9045(5) 0.9372(4) 0.2660(7)
O21_6 O 0.9459(5) 0.8469(6) 0.3010(8)
O22_6 O 0.9316(7) 0.8974(5) 0.2139(9)
Cl3_6 Cl 0.91130(12) 0.88442(11) 0.24417(16)
O19_7 O 0.6402(5) 0.3588(6) 0.3134(8)
O20_7 O 0.5955(5) 0.4372(4) 0.2340(7)
O21_7 O 0.5541(5) 0.3469(6) 0.1990(8)
O22_7 O 0.5684(7) 0.3974(5) 0.2861(9)
Cl3_7 Cl 0.58870(12) 0.38442(11) 0.25583(16)
O19_8 O 0.3598(5) 0.3588(6) 0.1866(8)
O20_8 O 0.4045(5) 0.4372(4) 0.2660(7)
O21_8 O 0.4459(5) 0.3469(6) 0.3010(8)
O22_8 O 0.4316(7) 0.3974(5) 0.2139(9)
Cl3_8 Cl 0.41130(12) 0.38442(11) 0.24417(16)
loop_
_geom_bond_atom_site_label_1
_geom_bond_atom_site_label_2
_geom_bond_site_symmetry_1
_geom_bond_site_symmetry_2
Nd1 O1 1_555 1_555
O1 N1 1_555 1_555
O3 Nd1 1_555 1_555
O4 N4 1_555 1_555
O5 Nd1 1_555 1_555
O6 Nd1 1_555 1_555
O7 Nd1 1_555 1_555
O8 Nd1 1_555 1_555
N1 C1 1_555 1_555
N3 O3 1_555 1_555
N4 C21 1_555 1_555
C1 H1 1_555 1_555
C13 N3 1_555 1_555
H13 C13 1_555 1_555
C14 C13 1_555 1_555
H14 C14 1_555 1_555
C15 C14 1_555 1_555
C16 C15 1_555 1_555
H15 C16 1_555 1_555
C17 N3 1_555 1_555
C18 C17 1_555 1_555
H16 C18 1_555 1_555
H17 C18 1_555 1_555
H18 C18 1_555 1_555
C19 C15 1_555 1_555
C20 C19 1_555 1_555
H19 C20 1_555 1_555
C21 C20 1_555 1_555
H20 C21 1_555 1_555
C22 N4 1_555 1_555
C23 C19 1_555 1_555
H21 C23 1_555 1_555
C24 C22 1_555 1_555
H22 C24 1_555 1_555
H23 C24 1_555 1_555
H24 C24 1_555 1_555
Nd3 O4 1_555 1_555
O9 Nd1 1_555 1_555
O10 Nd1 1_555 1_555
C16 C17 1_555 1_555
C22 C23 1_555 1_555
O5 H25 1_555 1_555
O5 H26 1_555 1_555
O7 H27 1_555 1_555
O7 H28 1_555 1_555
O6 H29 1_555 1_555
O6 H30 1_555 1_555
O8 H31 1_555 1_555
O8 H32 1_555 1_555
Nd1_2 O1_2 1_555 1_555
O1_2 N1_2 1_555 1_555
O3_2 Nd1_2 1_555 1_555
O5_2 Nd1_2 1_555 1_555
O6_2 Nd1_2 1_555 1_555
O7_2 Nd1_2 1_555 1_555
O8_2 Nd1_2 1_555 1_555
N1_2 C1_2 1_555 1_555
N3_2 O3_2 1_555 1_555
C1_2 H1_2 1_555 1_555
C4 C3 1_555 1_555
H3 C4 1_555 1_555
C5 N1_2 1_555 1_555
C6 C5 1_555 1_555
H4 C6 1_555 1_555
H5 C6 1_555 1_555
H6 C6 1_555 1_555
C13_2 N3_2 1_555 1_555
H13_2 C13_2 1_555 1_555
C14_2 C13_2 1_555 1_555
H14_2 C14_2 1_555 1_555
C15_2 C14_2 1_555 1_555
C16_2 C15_2 1_555 1_555
H15_2 C16_2 1_555 1_555
C17_2 N3_2 1_555 1_555
C18_2 C17_2 1_555 1_555
H16_2 C18_2 1_555 1_555
H17_2 C18_2 1_555 1_555
H18_2 C18_2 1_555 1_555
O9_2 Nd1_2 1_555 1_555
O10_2 Nd1_2 1_555 1_555
C4 C5 1_555 1_555
C16_2 C17_2 1_555 1_555
O5_2 H25_2 1_555 1_555
O5_2 H26_2 1_555 1_555
O7_2 H27_2 1_555 1_555
O7_2 H28_2 1_555 1_555
O6_2 H29_2 1_555 1_555
O6_2 H30_2 1_555 1_555
O8_2 H31_2 1_555 1_555
O8_2 H32_2 1_555 1_555
O2 N2 1_555 1_555
N2 C9 1_555 1_555
H2 C2 1_555 1_555
C8 C7 1_555 1_555
H7 C8 1_555 1_555
C9 C8 1_555 1_555
H8 C9 1_555 1_555
C10 N2 1_555 1_555
C11 C7 1_555 1_555
H9 C11 1_555 1_555
C12 C10 1_555 1_555
H10 C12 1_555 1_555
H11 C12 1_555 1_555
H12 C12 1_555 1_555
Nd3 O2 1_555 1_555
C10 C11 1_555 1_555
O9 N2_2 1_555 1_555
N2_2 C9_2 1_555 1_555
C4_2 C3_2 1_555 1_555
H3_2 C4_2 1_555 1_555
C6_2 C5_2 1_555 1_555
H4_2 C6_2 1_555 1_555
H5_2 C6_2 1_555 1_555
H6_2 C6_2 1_555 1_555
C7_2 C3_2 1_555 1_555
C8_2 C7_2 1_555 1_555
H7_2 C8_2 1_555 1_555
C9_2 C8_2 1_555 1_555
H8_2 C9_2 1_555 1_555
C4_2 C5_2 1_555 1_555
O10_2 N4_2 1_555 1_555
N4_2 C21_2 1_555 1_555
H20_2 C21_2 1_555 1_555
C22_2 N4_2 1_555 1_555
H21_2 C23_2 1_555 1_555
C24_2 C22_2 1_555 1_555
H22_2 C24_2 1_555 1_555
H23_2 C24_2 1_555 1_555
H24_2 C24_2 1_555 1_555
C22_2 C23_2 1_555 1_555
O10 N4_3 1_555 1_555
N4_3 C21_3 1_555 1_555
H20_3 C21_3 1_555 1_555
C22_3 N4_3 1_555 1_555
H21_3 C23_3 1_555 1_555
C24_3 C22_3 1_555 1_555
H22_3 C24_3 1_555 1_555
H23_3 C24_3 1_555 1_555
H24_3 C24_3 1_555 1_555
C22_3 C23_3 1_555 1_555
Nd3 O1_3 1_555 1_555
O1_3 N1_3 1_555 1_555
O9_2 N2_3 1_555 1_555
O3_3 Nd3 1_555 1_555
O5_3 Nd3 1_555 1_555
O6_3 Nd3 1_555 1_555
O7_3 Nd3 1_555 1_555
O8_3 Nd3 1_555 1_555
N1_3 C1_3 1_555 1_555
N2_3 C9_3 1_555 1_555
N3_3 O3_3 1_555 1_555
C1_3 H1_3 1_555 1_555
C2_2 C1_3 1_555 1_555
H2_2 C2_2 1_555 1_555
C3_3 C2_2 1_555 1_555
C4_3 C3_3 1_555 1_555
H3_3 C4_3 1_555 1_555
C5_3 N1_3 1_555 1_555
C6_3 C5_3 1_555 1_555
H4_3 C6_3 1_555 1_555
H5_3 C6_3 1_555 1_555
H6_3 C6_3 1_555 1_555
C7_3 C3_3 1_555 1_555
C8_3 C7_3 1_555 1_555
H7_3 C8_3 1_555 1_555
C9_3 C8_3 1_555 1_555
H8_3 C9_3 1_555 1_555
C10_2 N2_3 1_555 1_555
C11_2 C7_3 1_555 1_555
H9_2 C11_2 1_555 1_555
C12_2 C10_2 1_555 1_555
H10_2 C12_2 1_555 1_555
H11_2 C12_2 1_555 1_555
H12_2 C12_2 1_555 1_555
C13_3 N3_3 1_555 1_555
H13_3 C13_3 1_555 1_555
C14_3 C13_3 1_555 1_555
H14_3 C14_3 1_555 1_555
C15_3 C14_3 1_555 1_555
C16_3 C15_3 1_555 1_555
H15_3 C16_3 1_555 1_555
C17_3 N3_3 1_555 1_555
C18_3 C17_3 1_555 1_555
H16_3 C18_3 1_555 1_555
H17_3 C18_3 1_555 1_555
H18_3 C18_3 1_555 1_555
C4_3 C5_3 1_555 1_555
C10_2 C11_2 1_555 1_555
C16_3 C17_3 1_555 1_555
O5_3 H25_3 1_555 1_555
O5_3 H26_3 1_555 1_555
O7_3 H27_3 1_555 1_555
O7_3 H28_3 1_555 1_555
O6_3 H29_3 1_555 1_555
O6_3 H30_3 1_555 1_555
O8_3 H31_3 1_555 1_555
O8_3 H32_3 1_555 1_555
H2_3 C2_3 1_555 1_555
H9_3 C11_3 1_555 1_555
C12_3 C10_3 1_555 1_555
H10_3 C12_3 1_555 1_555
H11_3 C12_3 1_555 1_555
H12_3 C12_3 1_555 1_555
C10_3 C11_3 1_555 1_555
C4_4 C3_4 1_555 1_555
H3_4 C4_4 1_555 1_555
C6_4 C5_4 1_555 1_555
H4_4 C6_4 1_555 1_555
H5_4 C6_4 1_555 1_555
H6_4 C6_4 1_555 1_555
C4_4 C5_4 1_555 1_555
O2_2 N2_4 1_555 1_555
N2_4 C9_4 1_555 1_555
C8_4 C7_4 1_555 1_555
H7_4 C8_4 1_555 1_555
C9_4 C8_4 1_555 1_555
H8_4 C9_4 1_555 1_555
Nd2 O2_2 1_555 1_555
O4_2 N4_4 1_555 1_555
N4_4 C21_4 1_555 1_555
C20_2 C19_2 1_555 1_555
C21_4 C20_2 1_555 1_555
H20_4 C21_4 1_555 1_555
C22_4 N4_4 1_555 1_555
C23_4 C19_2 1_555 1_555
H21_4 C23_4 1_555 1_555
C24_4 C22_4 1_555 1_555
H22_4 C24_4 1_555 1_555
H23_4 C24_4 1_555 1_555
H24_4 C24_4 1_555 1_555
Nd2 O4_2 1_555 1_555
C22_4 C23_4 1_555 1_555
Nd2 O1_4 1_555 1_555
O1_4 N1_4 1_555 1_555
O3_4 Nd2 1_555 1_555
O5_4 Nd2 1_555 1_555
O6_4 Nd2 1_555 1_555
O7_4 Nd2 1_555 1_555
O8_4 Nd2 1_555 1_555
N1_4 C1_4 1_555 1_555
N3_4 O3_4 1_555 1_555
C1_4 H1_4 1_555 1_555
C2_4 C1_4 1_555 1_555
H2_4 C2_4 1_555 1_555
H9_4 C11_4 1_555 1_555
C12_4 C10_4 1_555 1_555
H10_4 C12_4 1_555 1_555
H11_4 C12_4 1_555 1_555
H12_4 C12_4 1_555 1_555
C13_4 N3_4 1_555 1_555
H13_4 C13_4 1_555 1_555
C14_4 C13_4 1_555 1_555
H14_4 C14_4 1_555 1_555
C15_4 C14_4 1_555 1_555
C16_4 C15_4 1_555 1_555
H15_4 C16_4 1_555 1_555
C17_4 N3_4 1_555 1_555
C18_4 C17_4 1_555 1_555
H16_4 C18_4 1_555 1_555
H17_4 C18_4 1_555 1_555
H18_4 C18_4 1_555 1_555
C19_3 C15_4 1_555 1_555
C20_3 C19_3 1_555 1_555
H19_4 C20_3 1_555 1_555
C10_4 C11_4 1_555 1_555
C16_4 C17_4 1_555 1_555
O5_4 H25_4 1_555 1_555
O5_4 H26_4 1_555 1_555
O7_4 H27_4 1_555 1_555
O7_4 H28_4 1_555 1_555
O6_4 H29_4 1_555 1_555
O6_4 H30_4 1_555 1_555
O8_4 H31_4 1_555 1_555
O8_4 H32_4 1_555 1_555
Nd1_3 O1_5 1_555 1_555
O1_5 N1_5 1_555 1_555
O3_5 Nd1_3 1_555 1_555
O5_5 Nd1_3 1_555 1_555
O6_5 Nd1_3 1_555 1_555
O7_5 Nd1_3 1_555 1_555
O8_5 Nd1_3 1_555 1_555
N1_5 C1_5 1_555 1_555
N3_5 O3_5 1_555 1_555
C1_5 H1_5 1_555 1_555
C2_5 C1_5 1_555 1_555
H2_5 C2_5 1_555 1_555
H9_5 C11_5 1_555 1_555
C12_5 C10_5 1_555 1_555
H10_5 C12_5 1_555 1_555
H11_5 C12_5 1_555 1_555
H12_5 C12_5 1_555 1_555
C13_5 N3_5 1_555 1_555
H13_5 C13_5 1_555 1_555
C14_5 C13_5 1_555 1_555
H14_5 C14_5 1_555 1_555
C15_5 C14_5 1_555 1_555
C16_5 C15_5 1_555 1_555
H15_5 C16_5 1_555 1_555
C17_5 N3_5 1_555 1_555
C18_5 C17_5 1_555 1_555
H16_5 C18_5 1_555 1_555
H17_5 C18_5 1_555 1_555
H18_5 C18_5 1_555 1_555
C19_4 C15_5 1_555 1_555
C20_4 C19_4 1_555 1_555
H19_5 C20_4 1_555 1_555
O9_3 Nd1_3 1_555 1_555
O10_3 Nd1_3 1_555 1_555
C10_5 C11_5 1_555 1_555
C16_5 C17_5 1_555 1_555
O5_5 H25_5 1_555 1_555
O5_5 H26_5 1_555 1_555
O7_5 H27_5 1_555 1_555
O7_5 H28_5 1_555 1_555
O6_5 H29_5 1_555 1_555
O6_5 H30_5 1_555 1_555
O8_5 H31_5 1_555 1_555
O8_5 H32_5 1_555 1_555
O9_3 N2_5 1_555 1_555
N2_5 C9_5 1_555 1_555
C8_5 C7_5 1_555 1_555
H7_5 C8_5 1_555 1_555
C9_5 C8_5 1_555 1_555
H8_5 C9_5 1_555 1_555
O10_3 N4_5 1_555 1_555
N4_5 C21_5 1_555 1_555
C20_5 C19_5 1_555 1_555
C21_5 C20_5 1_555 1_555
H20_5 C21_5 1_555 1_555
C22_5 N4_5 1_555 1_555
C23_5 C19_5 1_555 1_555
H21_5 C23_5 1_555 1_555
C24_5 C22_5 1_555 1_555
H22_5 C24_5 1_555 1_555
H23_5 C24_5 1_555 1_555
H24_5 C24_5 1_555 1_555
C22_5 C23_5 1_555 1_555
O4_3 N4_6 1_555 1_555
N4_6 C21_6 1_555 1_555
H20_6 C21_6 1_555 1_555
C22_6 N4_6 1_555 1_555
H21_6 C23_6 1_555 1_555
C24_6 C22_6 1_555 1_555
H22_6 C24_6 1_555 1_555
H23_6 C24_6 1_555 1_555
H24_6 C24_6 1_555 1_555
Nd3_2 O4_3 1_555 1_555
C22_6 C23_6 1_555 1_555
O2_3 N2_6 1_555 1_555
N2_6 C9_6 1_555 1_555
C4_5 C3_5 1_555 1_555
H3_5 C4_5 1_555 1_555
C6_5 C5_5 1_555 1_555
H4_5 C6_5 1_555 1_555
H5_5 C6_5 1_555 1_555
H6_5 C6_5 1_555 1_555
C7_6 C3_5 1_555 1_555
C8_6 C7_6 1_555 1_555
H7_6 C8_6 1_555 1_555
C9_6 C8_6 1_555 1_555
H8_6 C9_6 1_555 1_555
Nd2_2 O2_3 1_555 1_555
C4_5 C5_5 1_555 1_555
Nd1_4 O1_6 1_555 1_555
O1_6 N1_6 1_555 1_555
O2_4 N2_7 1_555 1_555
O3_6 Nd1_4 1_555 1_555
O5_6 Nd1_4 1_555 1_555
O6_6 Nd1_4 1_555 1_555
O7_6 Nd1_4 1_555 1_555
O8_6 Nd1_4 1_555 1_555
N1_6 C1_6 1_555 1_555
N2_7 C9_7 1_555 1_555
N3_6 O3_6 1_555 1_555
C1_6 H1_6 1_555 1_555
C2_6 C1_6 1_555 1_555
H2_6 C2_6 1_555 1_555
C3_6 C2_6 1_555 1_555
C4_6 C3_6 1_555 1_555
H3_6 C4_6 1_555 1_555
C5_6 N1_6 1_555 1_555
C6_6 C5_6 1_555 1_555
H4_6 C6_6 1_555 1_555
H5_6 C6_6 1_555 1_555
H6_6 C6_6 1_555 1_555
C7_7 C3_6 1_555 1_555
C8_7 C7_7 1_555 1_555
H7_7 C8_7 1_555 1_555
C9_7 C8_7 1_555 1_555
H8_7 C9_7 1_555 1_555
C10_6 N2_7 1_555 1_555
C11_6 C7_7 1_555 1_555
H9_6 C11_6 1_555 1_555
C12_6 C10_6 1_555 1_555
H10_6 C12_6 1_555 1_555
H11_6 C12_6 1_555 1_555
H12_6 C12_6 1_555 1_555
C13_6 N3_6 1_555 1_555
H13_6 C13_6 1_555 1_555
C14_6 C13_6 1_555 1_555
H14_6 C14_6 1_555 1_555
C15_6 C14_6 1_555 1_555
C16_6 C15_6 1_555 1_555
H15_6 C16_6 1_555 1_555
C17_6 N3_6 1_555 1_555
C18_6 C17_6 1_555 1_555
H16_6 C18_6 1_555 1_555
H17_6 C18_6 1_555 1_555
H18_6 C18_6 1_555 1_555
Nd3_2 O2_4 1_555 1_555
O9_4 Nd1_4 1_555 1_555
O10_4 Nd1_4 1_555 1_555
C4_6 C5_6 1_555 1_555
C10_6 C11_6 1_555 1_555
C16_6 C17_6 1_555 1_555
O5_6 H25_6 1_555 1_555
O5_6 H26_6 1_555 1_555
O7_6 H27_6 1_555 1_555
O7_6 H28_6 1_555 1_555
O6_6 H29_6 1_555 1_555
O6_6 H30_6 1_555 1_555
O8_6 H31_6 1_555 1_555
O8_6 H32_6 1_555 1_555
O4_4 N4_7 1_555 1_555
N4_7 C21_7 1_555 1_555
H20_7 C21_7 1_555 1_555
C22_7 N4_7 1_555 1_555
H21_7 C23_7 1_555 1_555
C24_7 C22_7 1_555 1_555
H22_7 C24_7 1_555 1_555
H23_7 C24_7 1_555 1_555
H24_7 C24_7 1_555 1_555
Nd2_2 O4_4 1_555 1_555
C22_7 C23_7 1_555 1_555
Nd2_2 O1_7 1_555 1_555
O1_7 N1_7 1_555 1_555
O3_7 Nd2_2 1_555 1_555
O10_4 N4_8 1_555 1_555
O5_7 Nd2_2 1_555 1_555
O6_7 Nd2_2 1_555 1_555
O7_7 Nd2_2 1_555 1_555
O8_7 Nd2_2 1_555 1_555
N1_7 C1_7 1_555 1_555
N3_7 O3_7 1_555 1_555
N4_8 C21_8 1_555 1_555
C1_7 H1_7 1_555 1_555
C13_7 N3_7 1_555 1_555
H13_7 C13_7 1_555 1_555
C14_7 C13_7 1_555 1_555
H14_7 C14_7 1_555 1_555
C15_7 C14_7 1_555 1_555
C16_7 C15_7 1_555 1_555
H15_7 C16_7 1_555 1_555
C17_7 N3_7 1_555 1_555
C18_7 C17_7 1_555 1_555
H16_7 C18_7 1_555 1_555
H17_7 C18_7 1_555 1_555
H18_7 C18_7 1_555 1_555
C19_6 C15_7 1_555 1_555
C20_6 C19_6 1_555 1_555
H19_7 C20_6 1_555 1_555
C21_8 C20_6 1_555 1_555
H20_8 C21_8 1_555 1_555
C22_8 N4_8 1_555 1_555
C23_8 C19_6 1_555 1_555
H21_8 C23_8 1_555 1_555
C24_8 C22_8 1_555 1_555
H22_8 C24_8 1_555 1_555
H23_8 C24_8 1_555 1_555
H24_8 C24_8 1_555 1_555
C16_7 C17_7 1_555 1_555
C22_8 C23_8 1_555 1_555
O5_7 H25_7 1_555 1_555
O5_7 H26_7 1_555 1_555
O7_7 H27_7 1_555 1_555
O7_7 H28_7 1_555 1_555
O6_7 H29_7 1_555 1_555
O6_7 H30_7 1_555 1_555
O8_7 H31_7 1_555 1_555
O8_7 H32_7 1_555 1_555
O9_4 N2_8 1_555 1_555
N2_8 C9_8 1_555 1_555
H2_7 C2_7 1_555 1_555
C8_8 C7_8 1_555 1_555
H7_8 C8_8 1_555 1_555
C9_8 C8_8 1_555 1_555
H8_8 C9_8 1_555 1_555
C10_7 N2_8 1_555 1_555
C11_7 C7_8 1_555 1_555
H9_7 C11_7 1_555 1_555
C12_7 C10_7 1_555 1_555
H10_7 C12_7 1_555 1_555
H11_7 C12_7 1_555 1_555
H12_7 C12_7 1_555 1_555
C10_7 C11_7 1_555 1_555
Nd3_2 O1_8 1_555 1_555
O1_8 N1_8 1_555 1_555
O3_8 Nd3_2 1_555 1_555
O5_8 Nd3_2 1_555 1_555
O6_8 Nd3_2 1_555 1_555
O7_8 Nd3_2 1_555 1_555
O8_8 Nd3_2 1_555 1_555
N1_8 C1_8 1_555 1_555
N3_8 O3_8 1_555 1_555
C1_8 H1_8 1_555 1_555
C4_7 C3_7 1_555 1_555
H3_7 C4_7 1_555 1_555
C5_7 N1_8 1_555 1_555
C6_7 C5_7 1_555 1_555
H4_7 C6_7 1_555 1_555
H5_7 C6_7 1_555 1_555
H6_7 C6_7 1_555 1_555
C13_8 N3_8 1_555 1_555
H13_8 C13_8 1_555 1_555
C14_8 C13_8 1_555 1_555
H14_8 C14_8 1_555 1_555
C15_8 C14_8 1_555 1_555
C16_8 C15_8 1_555 1_555
H15_8 C16_8 1_555 1_555
C17_8 N3_8 1_555 1_555
C18_8 C17_8 1_555 1_555
H16_8 C18_8 1_555 1_555
H17_8 C18_8 1_555 1_555
H18_8 C18_8 1_555 1_555
C4_7 C5_7 1_555 1_555
C16_8 C17_8 1_555 1_555
O5_8 H25_8 1_555 1_555
O5_8 H26_8 1_555 1_555
O7_8 H27_8 1_555 1_555
O7_8 H28_8 1_555 1_555
O6_8 H29_8 1_555 1_555
O6_8 H30_8 1_555 1_555
O8_8 H31_8 1_555 1_555
O8_8 H32_8 1_555 1_555
C20_7 C19_7 1_555 1_555
C4_8 C3_8 1_555 1_555
H3_8 C4_8 1_555 1_555
C6_8 C5_8 1_555 1_555
H4_8 C6_8 1_555 1_555
H5_8 C6_8 1_555 1_555
H6_8 C6_8 1_555 1_555
C4_8 C5_8 1_555 1_555
H2_8 C2_8 1_555 1_555
H9_8 C11_8 1_555 1_555
C12_8 C10_8 1_555 1_555
H10_8 C12_8 1_555 1_555
H11_8 C12_8 1_555 1_555
H12_8 C12_8 1_555 1_555
C10_8 C11_8 1_555 1_555
C20_8 C19_8 1_555 1_555
O11 Cl1 1_555 1_555
O13 Cl1 1_555 1_555
O14 Cl1 1_555 1_555
O11_2 Cl1_2 1_555 1_555
O13_2 Cl1_2 1_555 1_555
O14_2 Cl1_2 1_555 1_555
O11_3 Cl1_3 1_555 1_555
O12_3 Cl1_3 1_555 1_555
O13_3 Cl1_3 1_555 1_555
O14_3 Cl1_3 1_555 1_555
O11_4 Cl1_4 1_555 1_555
O12_4 Cl1_4 1_555 1_555
O13_4 Cl1_4 1_555 1_555
O14_4 Cl1_4 1_555 1_555
O11_5 Cl1_5 1_555 1_555
O13_5 Cl1_5 1_555 1_555
O14_5 Cl1_5 1_555 1_555
O11_6 Cl1_6 1_555 1_555
O13_6 Cl1_6 1_555 1_555
O14_6 Cl1_6 1_555 1_555
O11_7 Cl1_7 1_555 1_555
O12_7 Cl1_7 1_555 1_555
O13_7 Cl1_7 1_555 1_555
O14_7 Cl1_7 1_555 1_555
O11_8 Cl1_8 1_555 1_555
O12_8 Cl1_8 1_555 1_555
O13_8 Cl1_8 1_555 1_555
O14_8 Cl1_8 1_555 1_555
O15 Cl2 1_555 1_555
O16 Cl2 1_555 1_555
O17 Cl2 1_555 1_555
O18 Cl2 1_555 1_555
O15_2 Cl2_2 1_555 1_555
O16_2 Cl2_2 1_555 1_555
O17_2 Cl2_2 1_555 1_555
O18_2 Cl2_2 1_555 1_555
O15_3 Cl2_3 1_555 1_555
O16_3 Cl2_3 1_555 1_555
O17_3 Cl2_3 1_555 1_555
O18_3 Cl2_3 1_555 1_555
O15_4 Cl2_4 1_555 1_555
O16_4 Cl2_4 1_555 1_555
O17_4 Cl2_4 1_555 1_555
O18_4 Cl2_4 1_555 1_555
O15_5 Cl2_5 1_555 1_555
O16_5 Cl2_5 1_555 1_555
O17_5 Cl2_5 1_555 1_555
O18_5 Cl2_5 1_555 1_555
O15_6 Cl2_6 1_555 1_555
O16_6 Cl2_6 1_555 1_555
O17_6 Cl2_6 1_555 1_555
O18_6 Cl2_6 1_555 1_555
O15_7 Cl2_7 1_555 1_555
O16_7 Cl2_7 1_555 1_555
O17_7 Cl2_7 1_555 1_555
O18_7 Cl2_7 1_555 1_555
O15_8 Cl2_8 1_555 1_555
O16_8 Cl2_8 1_555 1_555
O17_8 Cl2_8 1_555 1_555
O18_8 Cl2_8 1_555 1_555
O19 Cl3 1_555 1_555
O20 Cl3 1_555 1_555
O21 Cl3 1_555 1_555
O22 Cl3 1_555 1_555
O19_2 Cl3_2 1_555 1_555
O20_2 Cl3_2 1_555 1_555
O21_2 Cl3_2 1_555 1_555
O22_2 Cl3_2 1_555 1_555
O19_3 Cl3_3 1_555 1_555
O20_3 Cl3_3 1_555 1_555
O21_3 Cl3_3 1_555 1_555
O22_3 Cl3_3 1_555 1_555
O19_4 Cl3_4 1_555 1_555
O20_4 Cl3_4 1_555 1_555
O21_4 Cl3_4 1_555 1_555
O22_4 Cl3_4 1_555 1_555
O19_5 Cl3_5 1_555 1_555
O20_5 Cl3_5 1_555 1_555
O21_5 Cl3_5 1_555 1_555
O22_5 Cl3_5 1_555 1_555
O19_6 Cl3_6 1_555 1_555
O20_6 Cl3_6 1_555 1_555
O21_6 Cl3_6 1_555 1_555
O22_6 Cl3_6 1_555 1_555
O19_7 Cl3_7 1_555 1_555
O20_7 Cl3_7 1_555 1_555
O21_7 Cl3_7 1_555 1_555
O22_7 Cl3_7 1_555 1_555
O19_8 Cl3_8 1_555 1_555
O20_8 Cl3_8 1_555 1_555
O21_8 Cl3_8 1_555 1_555
O22_8 Cl3_8 1_555 1_555

#END
