
###############################################################################
#
# This file contains modified crystal structure data generated from the
# MOF subset of the Cambridge Structural Database (CSD) v543 
# hosted by the Cambridge Crystallographic Data Centre (CCDC).
#
# This work is licensed under the Creative Commons
# Attribution-NonCommercial-ShareAlike 4.0 International License.
# To view a copy of this license, visit
# http://creativecommons.org/licenses/by-nc-sa/4.0/
# or send a letter to
# Creative Commons, PO Box 1866, Mountain View, CA 94042, USA.
#
# CIF created using the CSD Python API on 29 September 2022
# The structure has been converted into the P1 space group
# The structure has a 3D framework
# The original CSD entry TIGSOT is in the monoclinic crystal system
# The framework has been calculated to contain at least 10.0% void space
# The void calculation uses a probe of radius 1.32A, grid spacing 0.4
# The framework is charged, counterions have been retained in the structure
#
###############################################################################

data_TIGSOT
_chemical_formula_moiety         '(C56 H60 N8 O56 P16 Zn12 4-)n'
_symmetry_cell_setting           triclinic
_symmetry_space_group_name_H-M   'P 1'
_symmetry_Int_Tables_number      1
_space_group_name_Hall           'P 1'
loop_
_symmetry_equiv_pos_site_id
_symmetry_equiv_pos_as_xyz
1 x,y,z
_cell_length_a                   9.646(3)
_cell_length_b                   9.410(3)
_cell_length_c                   30.929(10)
_cell_angle_alpha                90
_cell_angle_beta                 93.338(5)
_cell_angle_gamma                90
_cell_volume                     2802.63
loop_
_atom_site_label
_atom_site_type_symbol
_atom_site_fract_x
_atom_site_fract_y
_atom_site_fract_z
Zn1 Zn 0.03557(9) 0.27106(9) 0.14027(3)
Zn2 Zn 0.21463(9) 0.55604(13) 0.03969(3)
P2 P 0.24892(18) 0.06078(17) 0.18270(6)
P4 P 0.02478(18) 0.59927(18) 0.11450(5)
O4 O 0.1806(6) 0.1301(6) 0.14180(16)
O5 O 0.3983(5) 0.1036(6) 0.19050(19)
O7 O 0.1914(5) 0.2757(5) 0.22864(17)
H1 H 0.1485 0.3182 0.2468
O9 O 0.0696(5) 0.3996(5) 0.03312(15)
O12 O 0.1339(6) 0.6591(6) 0.08580(17)
O13 O 0.0779(5) 0.4724(5) 0.14067(17)
C1 C 0.1533(6) 0.1284(7) 0.2285(2)
C2 C 0.1935(7) 0.0544(8) 0.2723(2)
H4 H 0.1544 0.1098 0.2951
C3 C 0.3443(7) 0.0322(8) 0.2845(2)
C4 C 0.4327(8) 0.1437(9) 0.2968(3)
H6 H 0.3985 0.2362 0.2961
C5 C 0.5706(9) 0.1202(10) 0.3100(3)
H7 H 0.6291 0.1954 0.3180
Zn6 Zn 0.06167(8) 0.80211(8) 0.19345(2)
N3 N 0.3918(6) 0.4521(8) 0.0573(2)
O16 O 0.1826(5) 0.6567(6) 0.98553(16)
O6 O 0.2304(6) 0.8994(5) 0.18157(18)
N1 N 0.5330(7) 0.8784(8) 0.2991(2)
H3 H 0.5654 0.7933 0.3000
H5 H 0.1485 0.9622 0.2720
C6 C 0.6179(8) 0.9844(10) 0.3108(3)
H8 H 0.7099 0.9655 0.3196
C7 C 0.3997(8) 0.8971(8) 0.2861(2)
H9 H 0.3446 0.8193 0.2782
O15 O 0.0998(5) 0.6620(5) 0.23815(15)
P1 P 0.96249(16) 0.11013(17) 0.22080(5)
P3 P 0.92741(18) 0.37431(19) 0.05042(5)
O1 O 0.9110(5) 0.1984(6) 0.18205(17)
O3 O 0.9002(5) 0.1620(5) 0.26185(15)
O8 O 0.9316(6) 0.2543(6) 0.08325(17)
O10 O 0.8174(5) 0.3433(6) 0.01447(16)
O11 O 0.9696(6) 0.7159(6) 0.14241(16)
O14 O 0.8345(6) 0.6453(6) 0.04797(16)
H2 H 0.8654 0.6272 0.0245
C8 C 0.8769(7) 0.5359(8) 0.0788(2)
C9 C 0.7539(7) 0.5133(10) 0.1080(2)
H10 H 0.7889 0.4607 0.1333
H11 H 0.7260 0.6061 0.1180
C10 C 0.6235(7) 0.4378(9) 0.0900(3)
C11 C 0.6047(10) 0.2974(12) 0.0979(5)
H12 H 0.6761 0.2434 0.1111
C12 C 0.4802(11) 0.2370(13) 0.0865(6)
H13 H 0.4654 0.1417 0.0926
C13 C 0.3754(10) 0.3157(12) 0.0658(5)
H14 H 0.2915 0.2719 0.0577
C14 C 0.5125(8) 0.5122(9) 0.0703(2)
H15 H 0.5230 0.6092 0.0659
Zn7 Zn 0.93833(8) 0.30211(8) 0.30655(2)
Zn5 Zn 0.78537(9) 0.44396(13) 0.96031(3)
O2 O 0.9342(5) 0.9511(5) 0.21381(16)
O11_2 O 0.0304(6) 0.2159(6) 0.35759(16)
O14_2 O 0.1655(6) 0.1453(6) 0.45203(16)
H2_2 H 0.1346 0.1272 0.4755
C8_2 C 0.1231(7) 0.0359(8) 0.4212(2)
C9_2 C 0.2461(7) 0.0133(10) 0.3920(2)
H11_2 H 0.2740 0.1061 0.3820
C14_2 C 0.4875(8) 0.0122(9) 0.4297(2)
H15_2 H 0.4770 0.1092 0.4341
Zn4 Zn 0.78537(9) 0.05604(13) 0.46031(3)
P1_2 P 0.03751(16) 0.61013(17) 0.27920(5)
P3_2 P 0.07259(18) 0.87431(19) 0.44958(5)
O1_2 O 0.0890(5) 0.6984(6) 0.31795(17)
O2_2 O 0.0658(5) 0.4511(5) 0.28619(16)
O8_2 O 0.0684(6) 0.7543(6) 0.41675(17)
O10_2 O 0.1826(5) 0.8433(6) 0.48553(16)
N2 N 0.6082(6) 0.9521(8) 0.4427(2)
H10_2 H 0.2111 0.9607 0.3667
C10_2 C 0.3765(7) 0.9378(9) 0.4100(3)
C11_2 C 0.3953(10) 0.7974(12) 0.4021(5)
H12_2 H 0.3239 0.7434 0.3889
C12_2 C 0.5198(11) 0.7370(13) 0.4135(6)
H13_2 H 0.5346 0.6417 0.4074
C13_2 C 0.6246(10) 0.8157(12) 0.4342(5)
H14_2 H 0.7085 0.7719 0.4423
Zn5_2 Zn 0.21463(9) 0.94396(13) 0.53969(3)
P4_2 P 0.97522(18) 0.09927(18) 0.38550(5)
O12_2 O 0.8661(6) 0.1591(6) 0.41420(17)
O16_2 O 0.8174(5) 0.1567(6) 0.51447(16)
Zn1_2 Zn 0.96443(9) 0.77106(9) 0.35973(3)
P2_2 P 0.75108(18) 0.56078(17) 0.31730(6)
O4_2 O 0.8194(6) 0.6301(6) 0.35820(16)
O5_2 O 0.6017(5) 0.6036(6) 0.30950(19)
O6_2 O 0.7696(6) 0.3994(5) 0.31843(18)
O7_2 O 0.8086(5) 0.7757(5) 0.27136(17)
H1_2 H 0.8515 0.8182 0.2532
O9_2 O 0.9304(5) 0.8996(5) 0.46688(15)
O13_2 O 0.9221(5) 0.9724(5) 0.35933(17)
N1_2 N 0.4670(7) 0.3784(8) 0.2009(2)
H3_2 H 0.4346 0.2933 0.2000
C1_2 C 0.8467(6) 0.6284(7) 0.2715(2)
C2_2 C 0.8065(7) 0.5544(8) 0.2277(2)
H4_2 H 0.8456 0.6098 0.2049
H5_2 H 0.8515 0.4622 0.2280
C3_2 C 0.6557(7) 0.5322(8) 0.2155(2)
C4_2 C 0.5673(8) 0.6437(9) 0.2032(3)
H6_2 H 0.6015 0.7362 0.2039
C5_2 C 0.4294(9) 0.6202(10) 0.1900(3)
H7_2 H 0.3709 0.6954 0.1820
C6_2 C 0.3821(8) 0.4844(10) 0.1892(3)
H8_2 H 0.2901 0.4655 0.1804
C7_2 C 0.6003(8) 0.3971(8) 0.2139(2)
H9_2 H 0.6554 0.3193 0.2218
O2_3 O 0.0658(5) 0.0489(5) 0.78619(16)
O17 O 0.0304(6) 0.2841(6) 0.85759(16)
P1_3 P 0.03751(16) 0.88987(17) 0.77920(5)
P3_3 P 0.07259(18) 0.62569(19) 0.94958(5)
O1_3 O 0.0890(5) 0.8016(6) 0.81795(17)
O3_2 O 0.0998(5) 0.8380(5) 0.73815(15)
O8_3 O 0.0684(6) 0.7457(6) 0.91675(17)
O14_3 O 0.1655(6) 0.3547(6) 0.95203(16)
H2_3 H 0.1346 0.3728 0.9755
N2_2 N 0.6082(6) 0.5479(8) 0.9427(2)
C8_3 C 0.1231(7) 0.4641(8) 0.9212(2)
C9_3 C 0.2461(7) 0.4867(10) 0.8920(2)
H10_3 H 0.2111 0.5393 0.8667
H11_3 H 0.2740 0.3939 0.8820
C10_3 C 0.3765(7) 0.5622(9) 0.9100(3)
C11_3 C 0.3953(10) 0.7026(12) 0.9021(5)
H12_3 H 0.3239 0.7566 0.8889
C12_3 C 0.5198(11) 0.7630(13) 0.9135(6)
H13_3 H 0.5346 0.8583 0.9074
C13_3 C 0.6246(10) 0.6843(12) 0.9342(5)
H14_3 H 0.7085 0.7281 0.9423
C14_3 C 0.4875(8) 0.4878(9) 0.9297(2)
H15_3 H 0.4770 0.3908 0.9341
Zn7_2 Zn 0.06167(8) 0.69789(8) 0.69345(2)
Zn3 Zn 0.93833(8) 0.19789(8) 0.80655(2)
O6_3 O 0.7696(6) 0.1006(5) 0.81843(18)
N1_3 N 0.4670(7) 0.1216(8) 0.7009(2)
H3_3 H 0.4346 0.2067 0.7000
H5_3 H 0.8515 0.0378 0.7280
C6_3 C 0.3821(8) 0.0156(10) 0.6892(3)
H8_3 H 0.2901 0.0345 0.6804
C7_3 C 0.6003(8) 0.1029(8) 0.7139(2)
H9_3 H 0.6554 0.1807 0.7218
O15_2 O 0.9002(5) 0.3380(5) 0.76185(15)
Zn1_3 Zn 0.96443(9) 0.72894(9) 0.85973(3)
P2_3 P 0.75108(18) 0.93922(17) 0.81730(6)
P4_3 P 0.97522(18) 0.40073(18) 0.88550(5)
O4_3 O 0.8194(6) 0.8699(6) 0.85820(16)
O5_3 O 0.6017(5) 0.8964(6) 0.80950(19)
O7_3 O 0.8086(5) 0.7243(5) 0.77136(17)
H1_3 H 0.8515 0.6818 0.7532
O9_3 O 0.9304(5) 0.6004(5) 0.96688(15)
O12_3 O 0.8661(6) 0.3409(6) 0.91420(17)
O13_3 O 0.9221(5) 0.5276(5) 0.85933(17)
C1_3 C 0.8467(6) 0.8716(7) 0.7715(2)
C2_3 C 0.8065(7) 0.9456(8) 0.7277(2)
H4_3 H 0.8456 0.8902 0.7049
C3_3 C 0.6557(7) 0.9678(8) 0.7155(2)
C4_3 C 0.5673(8) 0.8563(9) 0.7032(3)
H6_3 H 0.6015 0.7638 0.7039
C5_3 C 0.4294(9) 0.8798(10) 0.6900(3)
H7_3 H 0.3709 0.8046 0.6820
Zn1_4 Zn 0.03557(9) 0.22894(9) 0.64027(3)
P2_4 P 0.24892(18) 0.43922(17) 0.68270(6)
O4_4 O 0.1806(6) 0.3699(6) 0.64180(16)
O5_4 O 0.3983(5) 0.3964(6) 0.69050(19)
O6_4 O 0.2304(6) 0.6006(5) 0.68157(18)
O7_4 O 0.1914(5) 0.2243(5) 0.72864(17)
H1_4 H 0.1485 0.1818 0.7468
O9_4 O 0.0696(5) 0.1004(5) 0.53312(15)
O13_4 O 0.0779(5) 0.0276(5) 0.64067(17)
N1_4 N 0.5330(7) 0.6216(8) 0.7991(2)
H3_4 H 0.5654 0.7067 0.8000
C1_4 C 0.1533(6) 0.3716(7) 0.7285(2)
C2_4 C 0.1935(7) 0.4456(8) 0.7723(2)
H4_4 H 0.1544 0.3902 0.7951
H5_4 H 0.1485 0.5378 0.7720
C3_4 C 0.3443(7) 0.4678(8) 0.7845(2)
C4_4 C 0.4327(8) 0.3563(9) 0.7968(3)
H6_4 H 0.3985 0.2638 0.7961
C5_4 C 0.5706(9) 0.3798(10) 0.8100(3)
H7_4 H 0.6291 0.3046 0.8180
C6_4 C 0.6179(8) 0.5156(10) 0.8108(3)
H8_4 H 0.7099 0.5345 0.8196
C7_4 C 0.3997(8) 0.6029(8) 0.7861(2)
H9_4 H 0.3446 0.6807 0.7782
N3_2 N 0.3918(6) 0.0479(8) 0.5573(2)
P4_4 P 0.02478(18) 0.90073(18) 0.61450(5)
O12_4 O 0.1339(6) 0.8409(6) 0.58580(17)
P1_4 P 0.96249(16) 0.38987(17) 0.72080(5)
P3_4 P 0.92741(18) 0.12569(19) 0.55042(5)
O1_4 O 0.9110(5) 0.3016(6) 0.68205(17)
O2_4 O 0.9342(5) 0.5489(5) 0.71381(16)
O8_4 O 0.9316(6) 0.2457(6) 0.58325(17)
H10_4 H 0.7889 0.0393 0.6333
C10_4 C 0.6235(7) 0.0622(9) 0.5900(3)
C11_4 C 0.6047(10) 0.2026(12) 0.5979(5)
H12_4 H 0.6761 0.2566 0.6111
C12_4 C 0.4802(11) 0.2630(13) 0.5865(6)
H13_4 H 0.4654 0.3583 0.5926
C13_4 C 0.3754(10) 0.1843(12) 0.5658(5)
H14_4 H 0.2915 0.2281 0.5577
O17_2 O 0.9696(6) 0.7841(6) 0.64241(16)
O14_4 O 0.8345(6) 0.8547(6) 0.54797(16)
H2_4 H 0.8654 0.8728 0.5245
C8_4 C 0.8769(7) 0.9641(8) 0.5788(2)
C9_4 C 0.7539(7) 0.9867(10) 0.6080(2)
H11_4 H 0.7260 0.8939 0.6180
C14_4 C 0.5125(8) 0.9878(9) 0.5703(2)
H15_4 H 0.5230 0.8908 0.5659
loop_
_geom_bond_atom_site_label_1
_geom_bond_atom_site_label_2
_geom_bond_site_symmetry_1
_geom_bond_site_symmetry_2
Zn2 O9 1_555 1_555
P2 O4 1_555 1_555
O4 Zn1 1_555 1_555
O5 P2 1_555 1_555
O7 H1 1_555 1_555
O12 Zn2 1_555 1_555
O13 Zn1 1_555 1_555
C2 C1 1_555 1_555
H4 C2 1_555 1_555
C3 C2 1_555 1_555
C4 C3 1_555 1_555
H6 C4 1_555 1_555
C5 C4 1_555 1_555
H7 C5 1_555 1_555
N3 Zn2 1_555 1_555
P2 C1 1_555 1_555
P4 O12 1_555 1_555
P4 O13 1_555 1_555
O7 C1 1_555 1_555
O6 Zn6 1_555 1_555
N1 H3 1_555 1_555
C6 N1 1_555 1_555
H8 C6 1_555 1_555
C7 N1 1_555 1_555
H9 C7 1_555 1_555
O15 Zn6 1_555 1_555
P1 O1 1_555 1_555
P3 O8 1_555 1_555
O3 P1 1_555 1_555
O10 P3 1_555 1_555
O14 H2 1_555 1_555
N3 C13 1_555 1_555
C8 P3 1_555 1_555
C9 C8 1_555 1_555
H10 C9 1_555 1_555
H11 C9 1_555 1_555
C10 C9 1_555 1_555
C11 C10 1_555 1_555
H12 C11 1_555 1_555
C12 C11 1_555 1_555
H13 C12 1_555 1_555
C13 C12 1_555 1_555
H14 C13 1_555 1_555
C14 N3 1_555 1_555
H15 C14 1_555 1_555
Zn7 O3 1_555 1_555
O14 C8 1_555 1_555
C10 C14 1_555 1_555
O14_2 H2_2 1_555 1_555
C9_2 C8_2 1_555 1_555
H11_2 C9_2 1_555 1_555
H15_2 C14_2 1_555 1_555
O14_2 C8_2 1_555 1_555
P1_2 O1_2 1_555 1_555
P3_2 O8_2 1_555 1_555
O2_2 P1_2 1_555 1_555
O15 P1_2 1_555 1_555
O10_2 P3_2 1_555 1_555
N2 C13_2 1_555 1_555
C11_2 C10_2 1_555 1_555
H12_2 C11_2 1_555 1_555
C12_2 C11_2 1_555 1_555
H13_2 C12_2 1_555 1_555
C13_2 C12_2 1_555 1_555
H14_2 C13_2 1_555 1_555
Zn5_2 O10_2 1_555 1_555
O12_2 Zn4 1_555 1_555
O16_2 Zn4 1_555 1_555
P4_2 O12_2 1_555 1_555
P2_2 O4_2 1_555 1_555
O4_2 Zn1_2 1_555 1_555
O5_2 P2_2 1_555 1_555
O6_2 Zn7 1_555 1_555
O7_2 H1_2 1_555 1_555
O13_2 Zn1_2 1_555 1_555
N1_2 H3_2 1_555 1_555
C2_2 C1_2 1_555 1_555
H4_2 C2_2 1_555 1_555
H5_2 C2_2 1_555 1_555
C3_2 C2_2 1_555 1_555
C4_2 C3_2 1_555 1_555
H6_2 C4_2 1_555 1_555
C5_2 C4_2 1_555 1_555
H7_2 C5_2 1_555 1_555
C6_2 N1_2 1_555 1_555
H8_2 C6_2 1_555 1_555
C7_2 N1_2 1_555 1_555
H9_2 C7_2 1_555 1_555
P2_2 O6_2 1_555 1_555
P2_2 C1_2 1_555 1_555
O7_2 C1_2 1_555 1_555
C3_2 C7_2 1_555 1_555
C5_2 C6_2 1_555 1_555
P1_3 O1_3 1_555 1_555
P3_3 O8_3 1_555 1_555
O3_2 P1_3 1_555 1_555
O16 P3_3 1_555 1_555
O14_3 H2_3 1_555 1_555
N2_2 C13_3 1_555 1_555
C8_3 P3_3 1_555 1_555
C9_3 C8_3 1_555 1_555
H10_3 C9_3 1_555 1_555
H11_3 C9_3 1_555 1_555
C10_3 C9_3 1_555 1_555
C11_3 C10_3 1_555 1_555
H12_3 C11_3 1_555 1_555
C12_3 C11_3 1_555 1_555
H13_3 C12_3 1_555 1_555
C13_3 C12_3 1_555 1_555
H14_3 C13_3 1_555 1_555
C14_3 N2_2 1_555 1_555
H15_3 C14_3 1_555 1_555
Zn5 N2_2 1_555 1_555
Zn7_2 O3_2 1_555 1_555
O14_3 C8_3 1_555 1_555
C10_3 C14_3 1_555 1_555
O6_3 Zn3 1_555 1_555
N1_3 H3_3 1_555 1_555
C6_3 N1_3 1_555 1_555
H8_3 C6_3 1_555 1_555
C7_3 N1_3 1_555 1_555
H9_3 C7_3 1_555 1_555
O15_2 Zn3 1_555 1_555
Zn5 O9_3 1_555 1_555
P2_3 O4_3 1_555 1_555
O4_3 Zn1_3 1_555 1_555
O5_3 P2_3 1_555 1_555
O7_3 H1_3 1_555 1_555
O12_3 Zn5 1_555 1_555
O13_3 Zn1_3 1_555 1_555
C2_3 C1_3 1_555 1_555
H4_3 C2_3 1_555 1_555
C3_3 C2_3 1_555 1_555
C4_3 C3_3 1_555 1_555
H6_3 C4_3 1_555 1_555
C5_3 C4_3 1_555 1_555
H7_3 C5_3 1_555 1_555
P2_3 C1_3 1_555 1_555
P4_3 O12_3 1_555 1_555
P4_3 O13_3 1_555 1_555
O7_3 C1_3 1_555 1_555
P2_4 O4_4 1_555 1_555
O4_4 Zn1_4 1_555 1_555
O5_4 P2_4 1_555 1_555
O6_4 Zn7_2 1_555 1_555
O7_4 H1_4 1_555 1_555
O13_4 Zn1_4 1_555 1_555
N1_4 H3_4 1_555 1_555
C2_4 C1_4 1_555 1_555
H4_4 C2_4 1_555 1_555
H5_4 C2_4 1_555 1_555
C3_4 C2_4 1_555 1_555
C4_4 C3_4 1_555 1_555
H6_4 C4_4 1_555 1_555
C5_4 C4_4 1_555 1_555
H7_4 C5_4 1_555 1_555
C6_4 N1_4 1_555 1_555
H8_4 C6_4 1_555 1_555
C7_4 N1_4 1_555 1_555
H9_4 C7_4 1_555 1_555
P2_4 O6_4 1_555 1_555
P2_4 C1_4 1_555 1_555
O7_4 C1_4 1_555 1_555
C3_4 C7_4 1_555 1_555
C5_4 C6_4 1_555 1_555
O12_4 Zn5_2 1_555 1_555
P4_4 O12_4 1_555 1_555
P1_4 O1_4 1_555 1_555
P3_4 O8_4 1_555 1_555
O2_4 P1_4 1_555 1_555
O15_2 P1_4 1_555 1_555
O16_2 P3_4 1_555 1_555
N3_2 C13_4 1_555 1_555
C11_4 C10_4 1_555 1_555
H12_4 C11_4 1_555 1_555
C12_4 C11_4 1_555 1_555
H13_4 C12_4 1_555 1_555
C13_4 C12_4 1_555 1_555
H14_4 C13_4 1_555 1_555
O14_4 H2_4 1_555 1_555
C9_4 C8_4 1_555 1_555
H11_4 C9_4 1_555 1_555
H15_4 C14_4 1_555 1_555
O14_4 C8_4 1_555 1_555

#END
