
###############################################################################
#
# This file contains modified crystal structure data generated from the
# MOF subset of the Cambridge Structural Database (CSD) v543 
# hosted by the Cambridge Crystallographic Data Centre (CCDC).
#
# This work is licensed under the Creative Commons
# Attribution-NonCommercial-ShareAlike 4.0 International License.
# To view a copy of this license, visit
# http://creativecommons.org/licenses/by-nc-sa/4.0/
# or send a letter to
# Creative Commons, PO Box 1866, Mountain View, CA 94042, USA.
#
# CIF created using the CSD Python API on 29 September 2022
# The structure has been converted into the P1 space group
# The structure has a 3D framework
# The original CSD entry TIGVUC is in the orthorhombic crystal system
# The framework has been calculated to contain at least 10.0% void space
# The void calculation uses a probe of radius 1.32A, grid spacing 0.4
#
###############################################################################

data_TIGVUC
_chemical_formula_moiety         '(C176 H192 N30 O46 Zn6)n'
_symmetry_cell_setting           triclinic
_symmetry_space_group_name_H-M   'P 1'
_symmetry_Int_Tables_number      1
_space_group_name_Hall           'P 1'
loop_
_symmetry_equiv_pos_site_id
_symmetry_equiv_pos_as_xyz
1 x,y,z
_cell_length_a                   22.2913(3)
_cell_length_b                   16.1324(2)
_cell_length_c                   17.3900(2)
_cell_angle_alpha                90
_cell_angle_beta                 90
_cell_angle_gamma                90
_cell_volume                     6253.66
loop_
_atom_site_label
_atom_site_type_symbol
_atom_site_fract_x
_atom_site_fract_y
_atom_site_fract_z
Zn1 Zn 0.043372(17) 0.03394(3) 0.44149(3)
Zn2 Zn 0.196493(17) 0.53647(3) 0.49191(3)
O1 O 0.08724(12) 0.12779(16) 0.48121(19)
O2 O 0.00861(13) 0.20079(18) 0.4422(2)
O3 O 0.08136(14) 0.48796(19) 0.4465(2)
O4 O 0.15592(12) 0.43233(18) 0.51119(17)
O5 O 0.06496(12) 0.2258(2) 0.64435(18)
O6 O 0.15736(12) 0.1865(2) 0.67212(18)
N1 N 0.25734(14) 0.5391(2) 0.5807(2)
N2 N 0.44904(13) 0.5604(2) 0.7362(2)
H1 H 0.4442(18) 0.6055(18) 0.710(2)
N3 N 0.57545(13) 0.5215(2) 0.7271(2)
N4 N 0.75572(13) 0.4905(2) 0.8947(2)
C1 C 0.27567(17) 0.6098(3) 0.6131(3)
H3 H 0.2597 0.6608 0.5949
C2 C 0.31708(16) 0.6115(3) 0.6723(3)
H4 H 0.3284 0.6628 0.6947
C3 C 0.34182(16) 0.5387(3) 0.6986(2)
C4 C 0.32280(19) 0.4646(3) 0.6651(3)
H5 H 0.3387 0.4129 0.6816
C5 C 0.28055(19) 0.4683(3) 0.6079(3)
H6 H 0.2669 0.4176 0.5863
C6 C 0.38622(17) 0.5391(3) 0.7638(3)
H7 H 0.3867 0.4838 0.7885
H8 H 0.3735 0.5801 0.8028
C7 C 0.49011(16) 0.5654(3) 0.8047(2)
H9 H 0.4896 0.5119 0.8326
H10 H 0.4757 0.6090 0.8403
C8 C 0.55356(16) 0.5850(3) 0.7794(2)
H11 H 0.5543 0.6396 0.7534
H12 H 0.5801 0.5880 0.8250
C9 C 0.53705(17) 0.5196(3) 0.6582(3)
H13 H 0.5525 0.4777 0.6217
H14 H 0.5383 0.5743 0.6325
C10 C 0.47278(18) 0.4989(3) 0.6796(3)
H15 H 0.4475 0.4993 0.6327
H16 H 0.4711 0.4426 0.7021
C11 C 0.63827(17) 0.5375(3) 0.7037(3)
H17 H 0.6422 0.5955 0.6859
H18 H 0.6491 0.5005 0.6604
C12 C 0.73426(18) 0.4291(3) 0.8503(3)
H19 H 0.7452 0.3737 0.8624
C13 C 0.69718(18) 0.4427(3) 0.7882(3)
H20 H 0.6833 0.3973 0.7584
C14 C 0.68024(16) 0.5227(3) 0.7695(3)
C15 C 0.7038(2) 0.5866(3) 0.8140(3)
H21 H 0.6944 0.6426 0.8023
C16 C 0.74084(18) 0.5682(3) 0.8753(3)
H22 H 0.7565 0.6126 0.9051
C33 C 0.05851(19) 0.1965(3) 0.4709(2)
C34 C 0.09293(16) 0.2736(2) 0.4965(3)
C35 C 0.07698(18) 0.3447(3) 0.4668(2)
H43 H 0.0424 0.3435 0.4349
C36 C 0.10610(17) 0.4281(3) 0.4762(2)
C37 C 0.14222(16) 0.2573(3) 0.5543(2)
H44 H 0.1717 0.2185 0.5316
H45 H 0.1633 0.3100 0.5655
C38 C 0.11880(16) 0.2215(3) 0.6281(2)
Zn5 Zn 0.803507(17) 0.46353(3) 0.99191(3)
O13 O 0.17626(13) 0.64925(17) 0.46528(18)
N9 N 0.24428(13) 0.5095(2) 0.3947(2)
N10 N 0.01124(14) 0.0309(2) 0.3334(2)
O7 O 0.08242(12) 0.92740(17) 0.45724(17)
O8 O 0.1647(2) 0.9633(2) 0.3950(3)
O9 O 0.12689(13) 0.66183(19) 0.57595(18)
O11 O 0.19500(12) 0.7818(2) 0.30117(18)
O12 O 0.29153(13) 0.8045(2) 0.32364(19)
C39 C 0.13475(18) 0.9128(3) 0.4328(2)
C40 C 0.16134(16) 0.8291(2) 0.4522(2)
C41 C 0.12702(15) 0.7754(2) 0.4888(2)
H46 H 0.0875 0.7928 0.5012
C42 C 0.14437(16) 0.6898(3) 0.5126(2)
C43 C 0.22588(16) 0.8159(3) 0.4305(3)
H47 H 0.2416 0.7685 0.4605
H48 H 0.2490 0.8656 0.4458
C44 C 0.23738(17) 0.7993(3) 0.3451(3)
O7_2 O 0.91758(12) 0.07260(17) 0.95724(17)
O8_2 O 0.8353(2) 0.0367(2) 0.8950(3)
O10 O 0.82374(13) 0.35075(17) 0.96528(18)
O11_2 O 0.80500(12) 0.2182(2) 0.80117(18)
O12_2 O 0.70847(13) 0.1955(2) 0.82364(19)
C39_2 C 0.86525(18) 0.0872(3) 0.9328(2)
C40_2 C 0.83866(16) 0.1709(2) 0.9522(2)
C41_2 C 0.87298(15) 0.2246(2) 0.9888(2)
C43_2 C 0.77412(16) 0.1841(3) 0.9305(3)
H47_2 H 0.7584 0.2315 0.9605
H48_2 H 0.7510 0.1344 0.9458
C44_2 C 0.76262(17) 0.2007(3) 0.8451(3)
O4_2 O 0.84408(12) 0.56767(18) 0.01119(17)
O5_2 O 0.93504(12) 0.7742(2) 0.14435(18)
O6_2 O 0.84264(12) 0.8135(2) 0.17212(18)
N1_2 N 0.74266(14) 0.4609(2) 0.0807(2)
N2_2 N 0.55096(13) 0.4396(2) 0.2362(2)
H1_2 H 0.5558(18) 0.3945(18) 0.210(2)
N3_2 N 0.42455(13) 0.4785(2) 0.2271(2)
C1_2 C 0.72433(17) 0.3902(3) 0.1131(3)
H3_2 H 0.7403 0.3392 0.0949
C2_2 C 0.68292(16) 0.3885(3) 0.1723(3)
H4_2 H 0.6716 0.3372 0.1947
C3_2 C 0.65818(16) 0.4613(3) 0.1986(2)
C4_2 C 0.67720(19) 0.5354(3) 0.1651(3)
H5_2 H 0.6613 0.5871 0.1816
C5_2 C 0.71945(19) 0.5317(3) 0.1079(3)
H6_2 H 0.7331 0.5824 0.0863
C6_2 C 0.61378(17) 0.4609(3) 0.2638(3)
H7_2 H 0.6133 0.5162 0.2885
H8_2 H 0.6265 0.4199 0.3028
C7_2 C 0.50989(16) 0.4346(3) 0.3047(2)
H9_2 H 0.5104 0.4881 0.3326
H10_2 H 0.5243 0.3910 0.3403
C8_2 C 0.44644(16) 0.4150(3) 0.2794(2)
H11_2 H 0.4457 0.3604 0.2534
H12_2 H 0.4199 0.4120 0.3250
C9_2 C 0.46295(17) 0.4804(3) 0.1582(3)
H13_2 H 0.4475 0.5223 0.1217
H14_2 H 0.4617 0.4257 0.1325
C10_2 C 0.52722(18) 0.5011(3) 0.1796(3)
H15_2 H 0.5525 0.5007 0.1327
H16_2 H 0.5289 0.5574 0.2021
C11_2 C 0.36173(17) 0.4625(3) 0.2037(3)
H17_2 H 0.3578 0.4045 0.1859
H18_2 H 0.3509 0.4995 0.1604
C12_2 C 0.26574(18) 0.5709(3) 0.3503(3)
H19_2 H 0.2548 0.6263 0.3624
C13_2 C 0.30282(18) 0.5573(3) 0.2882(3)
H20_2 H 0.3167 0.6027 0.2584
C14_2 C 0.31976(16) 0.4773(3) 0.2695(3)
C15_2 C 0.2962(2) 0.4134(3) 0.3140(3)
H21_2 H 0.3056 0.3574 0.3023
C16_2 C 0.25916(18) 0.4318(3) 0.3753(3)
H22_2 H 0.2435 0.3874 0.4051
C37_2 C 0.85778(16) 0.7427(3) 0.0543(2)
H44_2 H 0.8283 0.7815 0.0316
H45_2 H 0.8367 0.6900 0.0655
C38_2 C 0.88120(16) 0.7785(3) 0.1281(2)
Zn1_2 Zn 0.956628(17) 0.96606(3) 0.94149(3)
O1_2 O 0.91276(12) 0.87221(16) 0.98121(19)
O2_2 O 0.99139(13) 0.79921(18) 0.9422(2)
O3_2 O 0.91864(14) 0.51204(19) 0.9465(2)
C33_2 C 0.94149(19) 0.8035(3) 0.9709(2)
C34_2 C 0.90707(16) 0.7264(2) 0.9965(3)
C35_2 C 0.92302(18) 0.6553(3) 0.9668(2)
H43_2 H 0.9576 0.6565 0.9349
C36_2 C 0.89390(17) 0.5719(3) 0.9762(2)
N10_2 N 0.98876(14) 0.9691(2) 0.8334(2)
H39 H 0.9878 0.8493 0.8078
H39_2 H 0.0122 0.1507 0.3078
N5 N 0.97684(13) 0.0108(2) 0.5208(2)
N8 N 0.48876(14) 0.0309(2) 0.8334(2)
C20 C 0.91518(17) 0.0568(3) 0.6246(3)
H25 H 0.9015 0.1013 0.6558
C21 C 0.95579(16) 0.0709(3) 0.5670(2)
H26 H 0.9698 0.1259 0.5594
H29 H 0.7662 0.0168 0.7884
C24 C 0.68833(17) 0.0270(3) 0.7246(3)
H31 H 0.6613 0.0226 0.7696
H32 H 0.6934 0.0864 0.7119
H33 H 0.7084 0.0453 0.5739
C27 C 0.60079(16) 0.0121(3) 0.6339(3)
H38 H 0.6045 0.0675 0.6099
C28 C 0.50251(18) 0.0983(3) 0.7916(2)
H39_3 H 0.4878 0.1507 0.8078
C29 C 0.53721(17) 0.0940(3) 0.7261(3)
H40 H 0.5466 0.1428 0.6980
C30 C 0.55825(16) 0.0172(3) 0.7019(2)
Zn3 Zn 0.456628(17) 0.03394(3) 0.94149(3)
N3_3 N 0.07545(13) 0.4785(2) 0.7271(2)
N4_2 N 0.25572(13) 0.5095(2) 0.8947(2)
C8_3 C 0.05356(16) 0.4150(3) 0.7794(2)
H11_3 H 0.0543 0.3604 0.7534
H12_3 H 0.0801 0.4120 0.8250
C9_3 C 0.03705(17) 0.4804(3) 0.6582(3)
H13_3 H 0.0525 0.5223 0.6217
H14_3 H 0.0383 0.4257 0.6325
C11_3 C 0.13827(17) 0.4625(3) 0.7037(3)
H17_3 H 0.1422 0.4045 0.6859
H18_3 H 0.1491 0.4995 0.6604
C12_3 C 0.23426(18) 0.5709(3) 0.8503(3)
H19_3 H 0.2452 0.6263 0.8624
C13_3 C 0.19718(18) 0.5573(3) 0.7882(3)
H20_3 H 0.1833 0.6027 0.7584
C14_3 C 0.18024(16) 0.4773(3) 0.7695(3)
C15_3 C 0.2038(2) 0.4134(3) 0.8140(3)
H21_3 H 0.1944 0.3574 0.8023
C16_3 C 0.24084(18) 0.4318(3) 0.8753(3)
H22_3 H 0.2565 0.3874 0.9051
Zn5_2 Zn 0.303507(17) 0.53647(3) 0.99191(3)
O1_3 O 0.41276(12) 0.12779(16) 0.98121(19)
O2_3 O 0.49139(13) 0.20079(18) 0.9422(2)
O3_3 O 0.41864(14) 0.48796(19) 0.9465(2)
C33_3 C 0.44149(19) 0.1965(3) 0.9709(2)
C34_3 C 0.40707(16) 0.2736(2) 0.9965(3)
C35_3 C 0.42302(18) 0.3447(3) 0.9668(2)
H43_3 H 0.4576 0.3435 0.9349
C36_3 C 0.39390(17) 0.4281(3) 0.9762(2)
O13_2 O 0.32374(13) 0.64925(17) 0.96528(18)
O7_3 O 0.41758(12) 0.92740(17) 0.95724(17)
O8_3 O 0.3353(2) 0.9633(2) 0.8950(3)
O11_3 O 0.30500(12) 0.7818(2) 0.80117(18)
O12_3 O 0.20847(13) 0.8045(2) 0.82364(19)
C39_3 C 0.36525(18) 0.9128(3) 0.9328(2)
C40_3 C 0.33866(16) 0.8291(2) 0.9522(2)
C41_3 C 0.37298(15) 0.7754(2) 0.9888(2)
C43_3 C 0.27412(16) 0.8159(3) 0.9305(3)
H47_3 H 0.2584 0.7685 0.9605
H48_3 H 0.2510 0.8656 0.9458
C44_3 C 0.26262(17) 0.7993(3) 0.8451(3)
N6 N 0.78950(13) 0.9961(2) 0.6773(2)
N7 N 0.66183(14) 0.9820(2) 0.6577(2)
H2 H 0.6611(19) 0.9278(13) 0.663(3)
C17 C 0.95630(17) 0.9336(3) 0.5326(3)
H23 H 0.9703 0.8901 0.5005
C18 C 0.91573(17) 0.9154(3) 0.5895(3)
H24 H 0.9025 0.8599 0.5963
C19 C 0.89407(16) 0.9769(3) 0.6370(3)
C22 C 0.84797(17) 0.9608(3) 0.6986(3)
H27 H 0.8438 0.9004 0.7065
H28 H 0.8616 0.9858 0.7476
C23 C 0.74858(19) 0.9886(3) 0.7432(3)
H30 H 0.7431 0.9294 0.7562
C25 C 0.70373(16) 0.9868(3) 0.5899(3)
H34 H 0.6866 0.9554 0.5462
C26 C 0.76407(17) 0.9514(3) 0.6108(2)
H35 H 0.7598 0.8919 0.6236
H36 H 0.7916 0.9562 0.5663
H37 H 0.5840 0.9738 0.5949
C31 C 0.54072(18) 0.9472(3) 0.7418(3)
H41 H 0.5520 0.8936 0.7244
C32 C 0.50689(18) 0.9565(3) 0.8067(3)
H42 H 0.4956 0.9082 0.8345
N6_2 N 0.21050(13) 0.0039(2) 0.1773(2)
N7_2 N 0.33817(14) 0.0180(2) 0.1577(2)
H2_2 H 0.3389(19) 0.0722(13) 0.163(3)
C17_2 C 0.04370(17) 0.0664(3) 0.0326(3)
H23_2 H 0.0297 0.1099 0.0005
C18_2 C 0.08427(17) 0.0846(3) 0.0895(3)
H24_2 H 0.0975 0.1401 0.0963
C19_2 C 0.10593(16) 0.0231(3) 0.1370(3)
C22_2 C 0.15203(17) 0.0392(3) 0.1986(3)
H27_2 H 0.1562 0.0996 0.2065
H28_2 H 0.1384 0.0142 0.2476
C23_2 C 0.25142(19) 0.0114(3) 0.2432(3)
H30_2 H 0.2569 0.0706 0.2562
C25_2 C 0.29627(16) 0.0132(3) 0.0899(3)
H34_2 H 0.3134 0.0446 0.0462
C26_2 C 0.23593(17) 0.0486(3) 0.1108(2)
H35_2 H 0.2402 0.1081 0.1236
H36_2 H 0.2084 0.0438 0.0663
H37_2 H 0.4160 0.0262 0.0949
C31_2 C 0.45928(18) 0.0528(3) 0.2418(3)
H41_2 H 0.4480 0.1064 0.2244
C32_2 C 0.49311(18) 0.0435(3) 0.3067(3)
H42_2 H 0.5044 0.0918 0.3345
N5_2 N 0.02316(13) 0.9892(2) 0.0208(2)
N8_2 N 0.51124(14) 0.9691(2) 0.3334(2)
C20_2 C 0.08482(17) 0.9432(3) 0.1246(3)
H25_2 H 0.0985 0.8987 0.1558
C21_2 C 0.04421(16) 0.9291(3) 0.0670(2)
H26_2 H 0.0302 0.8741 0.0594
H29_2 H 0.2338 0.9832 0.2884
C24_2 C 0.31167(17) 0.9730(3) 0.2246(3)
H31_2 H 0.3387 0.9774 0.2696
H32_2 H 0.3066 0.9136 0.2119
H33_2 H 0.2916 0.9547 0.0739
C27_2 C 0.39921(16) 0.9879(3) 0.1339(3)
H38_2 H 0.3955 0.9325 0.1099
C28_2 C 0.49749(18) 0.9017(3) 0.2916(2)
H39_4 H 0.5122 0.8493 0.3078
C29_2 C 0.46279(17) 0.9060(3) 0.2261(3)
H40_2 H 0.4534 0.8572 0.1980
C30_2 C 0.44175(16) 0.9828(3) 0.2019(2)
Zn3_2 Zn 0.543372(17) 0.96606(3) 0.44149(3)
O7_4 O 0.58242(12) 0.07260(17) 0.45724(17)
O8_4 O 0.6647(2) 0.0367(2) 0.3950(3)
O9_2 O 0.62689(13) 0.33817(19) 0.57595(18)
O10_2 O 0.67626(13) 0.35075(17) 0.46528(18)
O11_4 O 0.69500(12) 0.2182(2) 0.30117(18)
O12_4 O 0.79153(13) 0.1955(2) 0.32364(19)
N6_3 N 0.28950(13) 0.0039(2) 0.6773(2)
N7_3 N 0.16183(14) 0.0180(2) 0.6577(2)
H2_3 H 0.1611(19) 0.0722(13) 0.663(3)
C17_3 C 0.45630(17) 0.0664(3) 0.5326(3)
H23_3 H 0.4703 0.1099 0.5005
C18_3 C 0.41573(17) 0.0846(3) 0.5895(3)
H24_3 H 0.4025 0.1401 0.5963
C19_3 C 0.39407(16) 0.0231(3) 0.6370(3)
C22_3 C 0.34797(17) 0.0392(3) 0.6986(3)
H27_3 H 0.3438 0.0996 0.7065
H28_3 H 0.3616 0.0142 0.7476
C23_3 C 0.24858(19) 0.0114(3) 0.7432(3)
H30_3 H 0.2431 0.0706 0.7562
C25_3 C 0.20373(16) 0.0132(3) 0.5899(3)
H34_3 H 0.1866 0.0446 0.5462
C26_3 C 0.26407(17) 0.0486(3) 0.6108(2)
H35_3 H 0.2598 0.1081 0.6236
H36_3 H 0.2916 0.0438 0.5663
H37_3 H 0.0840 0.0262 0.5949
C31_3 C 0.04072(18) 0.0528(3) 0.7418(3)
H41_3 H 0.0520 0.1064 0.7244
C32_3 C 0.00689(18) 0.0435(3) 0.8067(3)
C39_4 C 0.63475(18) 0.0872(3) 0.4328(2)
C40_4 C 0.66134(16) 0.1709(2) 0.4522(2)
C41_4 C 0.62702(15) 0.2246(2) 0.4888(2)
H46_2 H 0.5875 0.2072 0.5012
C42_2 C 0.64437(16) 0.3102(3) 0.5126(2)
C43_4 C 0.72588(16) 0.1841(3) 0.4305(3)
H47_4 H 0.7416 0.2315 0.4605
H48_4 H 0.7490 0.1344 0.4458
C44_4 C 0.73738(17) 0.2007(3) 0.3451(3)
Zn4 Zn 0.696493(17) 0.46353(3) 0.49191(3)
O1_4 O 0.58724(12) 0.87221(16) 0.48121(19)
O2_4 O 0.50861(13) 0.79921(18) 0.4422(2)
O3_4 O 0.58136(14) 0.51204(19) 0.4465(2)
O4_3 O 0.65592(12) 0.56767(18) 0.51119(17)
O5_3 O 0.56496(12) 0.7742(2) 0.64435(18)
O6_3 O 0.65736(12) 0.8135(2) 0.67212(18)
N1_3 N 0.75734(14) 0.4609(2) 0.5807(2)
N2_3 N 0.94904(13) 0.4396(2) 0.7362(2)
H1_3 H 0.9442(18) 0.3945(18) 0.710(2)
N5_3 N 0.47684(13) 0.9892(2) 0.5208(2)
C1_3 C 0.77567(17) 0.3902(3) 0.6131(3)
H3_3 H 0.7597 0.3392 0.5949
C2_3 C 0.81708(16) 0.3885(3) 0.6723(3)
H4_3 H 0.8284 0.3372 0.6947
C3_3 C 0.84182(16) 0.4613(3) 0.6986(2)
C4_3 C 0.82280(19) 0.5354(3) 0.6651(3)
H5_3 H 0.8387 0.5871 0.6816
C5_3 C 0.78055(19) 0.5317(3) 0.6079(3)
H6_3 H 0.7669 0.5824 0.5863
C6_3 C 0.88622(17) 0.4609(3) 0.7638(3)
H7_3 H 0.8867 0.5162 0.7885
H8_3 H 0.8735 0.4199 0.8028
C7_3 C 0.99011(16) 0.4346(3) 0.8047(2)
H9_3 H 0.9896 0.4881 0.8326
H10_3 H 0.9757 0.3910 0.8403
C10_3 C 0.97278(18) 0.5011(3) 0.6796(3)
H15_3 H 0.9475 0.5007 0.6327
H16_3 H 0.9711 0.5574 0.7021
C20_3 C 0.41518(17) 0.9432(3) 0.6246(3)
H25_3 H 0.4015 0.8987 0.6558
C21_3 C 0.45579(16) 0.9291(3) 0.5670(2)
H26_3 H 0.4698 0.8741 0.5594
H29_3 H 0.2662 0.9832 0.7884
C24_3 C 0.18833(17) 0.9730(3) 0.7246(3)
H31_3 H 0.1613 0.9774 0.7696
H32_3 H 0.1934 0.9136 0.7119
H33_3 H 0.2084 0.9547 0.5739
C27_3 C 0.10079(16) 0.9879(3) 0.6339(3)
H38_3 H 0.1045 0.9325 0.6099
C28_3 C 0.00251(18) 0.9017(3) 0.7916(2)
C29_3 C 0.03721(17) 0.9060(3) 0.7261(3)
H40_3 H 0.0466 0.8572 0.6980
C30_3 C 0.05825(16) 0.9828(3) 0.7019(2)
C33_4 C 0.55851(19) 0.8035(3) 0.4709(2)
C34_4 C 0.59293(16) 0.7264(2) 0.4965(3)
C35_4 C 0.57698(18) 0.6553(3) 0.4668(2)
H43_4 H 0.5424 0.6565 0.4349
C36_4 C 0.60610(17) 0.5719(3) 0.4762(2)
C37_3 C 0.64222(16) 0.7427(3) 0.5543(2)
H44_3 H 0.6717 0.7815 0.5316
H45_3 H 0.6633 0.6900 0.5655
C38_3 C 0.61880(16) 0.7785(3) 0.6281(2)
N9_2 N 0.74428(13) 0.4905(2) 0.3947(2)
N3_4 N 0.92455(13) 0.5215(2) 0.2271(2)
C8_4 C 0.94644(16) 0.5850(3) 0.2794(2)
H11_4 H 0.9457 0.6396 0.2534
H12_4 H 0.9199 0.5880 0.3250
C9_4 C 0.96295(17) 0.5196(3) 0.1582(3)
H13_4 H 0.9475 0.4777 0.1217
H14_4 H 0.9617 0.5743 0.1325
C11_4 C 0.86173(17) 0.5375(3) 0.2037(3)
H17_4 H 0.8578 0.5955 0.1859
H18_4 H 0.8509 0.5005 0.1604
C12_4 C 0.76574(18) 0.4291(3) 0.3503(3)
H19_4 H 0.7548 0.3737 0.3624
C13_4 C 0.80282(18) 0.4427(3) 0.2882(3)
H20_4 H 0.8167 0.3973 0.2584
C14_4 C 0.81976(16) 0.5227(3) 0.2695(3)
C15_4 C 0.7962(2) 0.5866(3) 0.3140(3)
H21_4 H 0.8056 0.6426 0.3023
C16_4 C 0.75916(18) 0.5682(3) 0.3753(3)
H22_4 H 0.7435 0.6126 0.4051
O9_3 O 0.87311(13) 0.33817(19) 0.07595(18)
H46_3 H 0.9125 0.2072 0.0012
C42_3 C 0.85563(16) 0.3102(3) 0.0126(2)
H42_3 H 0.9956 0.0918 0.8345
H42_4 H 0.0044 0.9082 0.3345
O4_4 O 0.34408(12) 0.43233(18) 0.01119(17)
O5_4 O 0.43504(12) 0.2258(2) 0.14435(18)
O6_4 O 0.34264(12) 0.1865(2) 0.17212(18)
N1_4 N 0.24266(14) 0.5391(2) 0.0807(2)
N2_4 N 0.05096(13) 0.5604(2) 0.2362(2)
H1_4 H 0.0558(18) 0.6055(18) 0.210(2)
N5_4 N 0.52316(13) 0.0108(2) 0.0208(2)
C1_4 C 0.22433(17) 0.6098(3) 0.1131(3)
H3_4 H 0.2403 0.6608 0.0949
C2_4 C 0.18292(16) 0.6115(3) 0.1723(3)
H4_4 H 0.1716 0.6628 0.1947
C3_4 C 0.15818(16) 0.5387(3) 0.1986(2)
C4_4 C 0.17720(19) 0.4646(3) 0.1651(3)
H5_4 H 0.1613 0.4129 0.1816
C5_4 C 0.21945(19) 0.4683(3) 0.1079(3)
H6_4 H 0.2331 0.4176 0.0863
C6_4 C 0.11378(17) 0.5391(3) 0.2638(3)
H7_4 H 0.1133 0.4838 0.2885
H8_4 H 0.1265 0.5801 0.3028
C7_4 C 0.00989(16) 0.5654(3) 0.3047(2)
H9_4 H 0.0104 0.5119 0.3326
H10_4 H 0.0243 0.6090 0.3403
C10_4 C 0.02722(18) 0.4989(3) 0.1796(3)
H15_4 H 0.0525 0.4993 0.1327
H16_4 H 0.0289 0.4426 0.2021
C20_4 C 0.58482(17) 0.0568(3) 0.1246(3)
H25_4 H 0.5985 0.1013 0.1558
C21_4 C 0.54421(16) 0.0709(3) 0.0670(2)
H26_4 H 0.5302 0.1259 0.0594
H29_4 H 0.7338 0.0168 0.2884
C24_4 C 0.81167(17) 0.0270(3) 0.2246(3)
H31_4 H 0.8387 0.0226 0.2696
H32_4 H 0.8066 0.0864 0.2119
H33_4 H 0.7916 0.0453 0.0739
C27_4 C 0.89921(16) 0.0121(3) 0.1339(3)
H38_4 H 0.8955 0.0675 0.1099
C28_4 C 0.99749(18) 0.0983(3) 0.2916(2)
C29_4 C 0.96279(17) 0.0940(3) 0.2261(3)
H40_4 H 0.9534 0.1428 0.1980
C30_4 C 0.94175(16) 0.0172(3) 0.2019(2)
C37_4 C 0.35778(16) 0.2573(3) 0.0543(2)
H44_4 H 0.3283 0.2185 0.0316
H45_4 H 0.3367 0.3100 0.0655
C38_4 C 0.38120(16) 0.2215(3) 0.1281(2)
O9_4 O 0.37311(13) 0.66183(19) 0.07595(18)
N6_4 N 0.71050(13) 0.9961(2) 0.1773(2)
N7_4 N 0.83817(14) 0.9820(2) 0.1577(2)
H2_4 H 0.8389(19) 0.9278(13) 0.163(3)
C17_4 C 0.54370(17) 0.9336(3) 0.0326(3)
H23_4 H 0.5297 0.8901 0.0005
C18_4 C 0.58427(17) 0.9154(3) 0.0895(3)
H24_4 H 0.5975 0.8599 0.0963
C19_4 C 0.60593(16) 0.9769(3) 0.1370(3)
C22_4 C 0.65203(17) 0.9608(3) 0.1986(3)
H27_4 H 0.6562 0.9004 0.2065
H28_4 H 0.6384 0.9858 0.2476
C23_4 C 0.75142(19) 0.9886(3) 0.2432(3)
H30_4 H 0.7569 0.9294 0.2562
C25_4 C 0.79627(16) 0.9868(3) 0.0899(3)
H34_4 H 0.8134 0.9554 0.0462
C26_4 C 0.73593(17) 0.9514(3) 0.1108(2)
H35_4 H 0.7402 0.8919 0.1236
H36_4 H 0.7084 0.9562 0.0663
H37_4 H 0.9160 0.9738 0.0949
C31_4 C 0.95928(18) 0.9472(3) 0.2418(3)
H41_4 H 0.9480 0.8936 0.2244
C32_4 C 0.99311(18) 0.9565(3) 0.3067(3)
H46_4 H 0.4125 0.7928 0.0012
C42_4 C 0.35563(16) 0.6898(3) 0.0126(2)
loop_
_geom_bond_atom_site_label_1
_geom_bond_atom_site_label_2
_geom_bond_site_symmetry_1
_geom_bond_site_symmetry_2
Zn1 O1 1_555 1_555
Zn2 O4 1_555 1_555
O1 C33 1_555 1_555
O2 C33 1_555 1_555
O3 C36 1_555 1_555
O4 C36 1_555 1_555
O5 C38 1_555 1_555
O6 C38 1_555 1_555
N1 Zn2 1_555 1_555
N2 H1 1_555 1_555
N3 C8 1_555 1_555
N4 C12 1_555 1_555
C1 N1 1_555 1_555
H3 C1 1_555 1_555
C2 C1 1_555 1_555
H4 C2 1_555 1_555
C3 C2 1_555 1_555
C4 C3 1_555 1_555
H5 C4 1_555 1_555
C5 N1 1_555 1_555
H6 C5 1_555 1_555
C6 N2 1_555 1_555
H7 C6 1_555 1_555
H8 C6 1_555 1_555
C7 N2 1_555 1_555
H9 C7 1_555 1_555
H10 C7 1_555 1_555
C8 C7 1_555 1_555
H11 C8 1_555 1_555
H12 C8 1_555 1_555
C9 N3 1_555 1_555
H13 C9 1_555 1_555
H14 C9 1_555 1_555
C10 N2 1_555 1_555
H15 C10 1_555 1_555
H16 C10 1_555 1_555
C11 N3 1_555 1_555
H17 C11 1_555 1_555
H18 C11 1_555 1_555
C12 H19 1_555 1_555
C13 C12 1_555 1_555
H20 C13 1_555 1_555
C14 C11 1_555 1_555
C15 C14 1_555 1_555
H21 C15 1_555 1_555
C16 N4 1_555 1_555
H22 C16 1_555 1_555
C33 C34 1_555 1_555
C34 C35 1_555 1_555
C35 H43 1_555 1_555
C36 C35 1_555 1_555
C37 C34 1_555 1_555
H44 C37 1_555 1_555
H45 C37 1_555 1_555
C38 C37 1_555 1_555
Zn5 N4 1_555 1_555
O13 Zn2 1_555 1_555
N9 Zn2 1_555 1_555
N10 Zn1 1_555 1_555
C3 C6 1_555 1_555
C4 C5 1_555 1_555
C9 C10 1_555 1_555
C13 C14 1_555 1_555
C15 C16 1_555 1_555
O8 C39 1_555 1_555
O9 C42 1_555 1_555
O13 C42 1_555 1_555
O11 C44 1_555 1_555
O12 C44 1_555 1_555
C39 O7 1_555 1_555
C40 C39 1_555 1_555
C41 C40 1_555 1_555
H46 C41 1_555 1_555
C42 C41 1_555 1_555
C43 C40 1_555 1_555
H47 C43 1_555 1_555
H48 C43 1_555 1_555
C44 C43 1_555 1_555
O8_2 C39_2 1_555 1_555
O11_2 C44_2 1_555 1_555
O12_2 C44_2 1_555 1_555
C39_2 O7_2 1_555 1_555
C40_2 C39_2 1_555 1_555
C41_2 C40_2 1_555 1_555
C43_2 C40_2 1_555 1_555
H47_2 C43_2 1_555 1_555
H48_2 C43_2 1_555 1_555
C44_2 C43_2 1_555 1_555
Zn5 O10 1_555 1_555
O5_2 C38_2 1_555 1_555
O6_2 C38_2 1_555 1_555
N2_2 H1_2 1_555 1_555
N3_2 C8_2 1_555 1_555
N9 C12_2 1_555 1_555
C1_2 N1_2 1_555 1_555
H3_2 C1_2 1_555 1_555
C2_2 C1_2 1_555 1_555
H4_2 C2_2 1_555 1_555
C3_2 C2_2 1_555 1_555
C4_2 C3_2 1_555 1_555
H5_2 C4_2 1_555 1_555
C5_2 N1_2 1_555 1_555
H6_2 C5_2 1_555 1_555
C6_2 N2_2 1_555 1_555
H7_2 C6_2 1_555 1_555
H8_2 C6_2 1_555 1_555
C7_2 N2_2 1_555 1_555
H9_2 C7_2 1_555 1_555
H10_2 C7_2 1_555 1_555
C8_2 C7_2 1_555 1_555
H11_2 C8_2 1_555 1_555
H12_2 C8_2 1_555 1_555
C9_2 N3_2 1_555 1_555
H13_2 C9_2 1_555 1_555
H14_2 C9_2 1_555 1_555
C10_2 N2_2 1_555 1_555
H15_2 C10_2 1_555 1_555
H16_2 C10_2 1_555 1_555
C11_2 N3_2 1_555 1_555
H17_2 C11_2 1_555 1_555
H18_2 C11_2 1_555 1_555
C12_2 H19_2 1_555 1_555
C13_2 C12_2 1_555 1_555
H20_2 C13_2 1_555 1_555
C14_2 C11_2 1_555 1_555
C15_2 C14_2 1_555 1_555
H21_2 C15_2 1_555 1_555
C16_2 N9 1_555 1_555
H22_2 C16_2 1_555 1_555
H44_2 C37_2 1_555 1_555
H45_2 C37_2 1_555 1_555
C38_2 C37_2 1_555 1_555
C3_2 C6_2 1_555 1_555
C4_2 C5_2 1_555 1_555
C9_2 C10_2 1_555 1_555
C13_2 C14_2 1_555 1_555
C15_2 C16_2 1_555 1_555
Zn1_2 O1_2 1_555 1_555
O1_2 C33_2 1_555 1_555
O2_2 C33_2 1_555 1_555
O3_2 C36_2 1_555 1_555
C33_2 C34_2 1_555 1_555
C34_2 C35_2 1_555 1_555
C35_2 H43_2 1_555 1_555
C36_2 C35_2 1_555 1_555
N10_2 Zn1_2 1_555 1_555
N8 C28 1_555 1_555
H25 C20 1_555 1_555
C21 N5 1_555 1_555
H26 C21 1_555 1_555
H31 C24 1_555 1_555
H32 C24 1_555 1_555
H38 C27 1_555 1_555
C28 H39_3 1_555 1_555
C29 C28 1_555 1_555
H40 C29 1_555 1_555
C30 C27 1_555 1_555
Zn3 N8 1_555 1_555
C20 C21 1_555 1_555
C29 C30 1_555 1_555
N3_3 C8_3 1_555 1_555
N4_2 C12_3 1_555 1_555
H11_3 C8_3 1_555 1_555
H12_3 C8_3 1_555 1_555
C9_3 N3_3 1_555 1_555
H13_3 C9_3 1_555 1_555
H14_3 C9_3 1_555 1_555
C11_3 N3_3 1_555 1_555
H17_3 C11_3 1_555 1_555
H18_3 C11_3 1_555 1_555
C12_3 H19_3 1_555 1_555
C13_3 C12_3 1_555 1_555
H20_3 C13_3 1_555 1_555
C14_3 C11_3 1_555 1_555
C15_3 C14_3 1_555 1_555
H21_3 C15_3 1_555 1_555
C16_3 N4_2 1_555 1_555
H22_3 C16_3 1_555 1_555
Zn5_2 N4_2 1_555 1_555
C13_3 C14_3 1_555 1_555
C15_3 C16_3 1_555 1_555
Zn3 O1_3 1_555 1_555
O1_3 C33_3 1_555 1_555
O2_3 C33_3 1_555 1_555
O3_3 C36_3 1_555 1_555
C33_3 C34_3 1_555 1_555
C34_3 C35_3 1_555 1_555
C35_3 H43_3 1_555 1_555
C36_3 C35_3 1_555 1_555
O13_2 Zn5_2 1_555 1_555
O8_3 C39_3 1_555 1_555
O11_3 C44_3 1_555 1_555
O12_3 C44_3 1_555 1_555
C39_3 O7_3 1_555 1_555
C40_3 C39_3 1_555 1_555
C41_3 C40_3 1_555 1_555
C43_3 C40_3 1_555 1_555
H47_3 C43_3 1_555 1_555
H48_3 C43_3 1_555 1_555
C44_3 C43_3 1_555 1_555
N6 C22 1_555 1_555
N7 H2 1_555 1_555
H23 C17 1_555 1_555
C18 C17 1_555 1_555
H24 C18 1_555 1_555
C19 C18 1_555 1_555
C22 C19 1_555 1_555
H27 C22 1_555 1_555
H28 C22 1_555 1_555
C23 N6 1_555 1_555
H30 C23 1_555 1_555
C25 N7 1_555 1_555
H34 C25 1_555 1_555
C26 N6 1_555 1_555
H35 C26 1_555 1_555
H36 C26 1_555 1_555
H41 C31 1_555 1_555
H42 C32 1_555 1_555
C25 C26 1_555 1_555
C31 C32 1_555 1_555
N6_2 C22_2 1_555 1_555
N7_2 H2_2 1_555 1_555
H23_2 C17_2 1_555 1_555
C18_2 C17_2 1_555 1_555
H24_2 C18_2 1_555 1_555
C19_2 C18_2 1_555 1_555
C22_2 C19_2 1_555 1_555
H27_2 C22_2 1_555 1_555
H28_2 C22_2 1_555 1_555
C23_2 N6_2 1_555 1_555
H30_2 C23_2 1_555 1_555
C25_2 N7_2 1_555 1_555
H34_2 C25_2 1_555 1_555
C26_2 N6_2 1_555 1_555
H35_2 C26_2 1_555 1_555
H36_2 C26_2 1_555 1_555
H41_2 C31_2 1_555 1_555
H42_2 C32_2 1_555 1_555
C25_2 C26_2 1_555 1_555
C31_2 C32_2 1_555 1_555
N8_2 C28_2 1_555 1_555
H25_2 C20_2 1_555 1_555
C21_2 N5_2 1_555 1_555
H26_2 C21_2 1_555 1_555
H31_2 C24_2 1_555 1_555
H32_2 C24_2 1_555 1_555
H38_2 C27_2 1_555 1_555
C28_2 H39_4 1_555 1_555
C29_2 C28_2 1_555 1_555
H40_2 C29_2 1_555 1_555
C30_2 C27_2 1_555 1_555
Zn3_2 N8_2 1_555 1_555
C20_2 C21_2 1_555 1_555
C29_2 C30_2 1_555 1_555
O8_4 C39_4 1_555 1_555
O9_2 C42_2 1_555 1_555
O10_2 C42_2 1_555 1_555
O11_4 C44_4 1_555 1_555
O12_4 C44_4 1_555 1_555
N6_3 C22_3 1_555 1_555
N7_3 H2_3 1_555 1_555
H23_3 C17_3 1_555 1_555
C18_3 C17_3 1_555 1_555
H24_3 C18_3 1_555 1_555
C19_3 C18_3 1_555 1_555
C22_3 C19_3 1_555 1_555
H27_3 C22_3 1_555 1_555
H28_3 C22_3 1_555 1_555
C23_3 N6_3 1_555 1_555
H30_3 C23_3 1_555 1_555
C25_3 N7_3 1_555 1_555
H34_3 C25_3 1_555 1_555
C26_3 N6_3 1_555 1_555
H35_3 C26_3 1_555 1_555
H36_3 C26_3 1_555 1_555
H41_3 C31_3 1_555 1_555
C39_4 O7_4 1_555 1_555
C40_4 C39_4 1_555 1_555
C41_4 C40_4 1_555 1_555
H46_2 C41_4 1_555 1_555
C42_2 C41_4 1_555 1_555
C43_4 C40_4 1_555 1_555
H47_4 C43_4 1_555 1_555
H48_4 C43_4 1_555 1_555
C44_4 C43_4 1_555 1_555
Zn4 O10_2 1_555 1_555
C25_3 C26_3 1_555 1_555
C31_3 C32_3 1_555 1_555
Zn3_2 O1_4 1_555 1_555
Zn4 O4_3 1_555 1_555
O1_4 C33_4 1_555 1_555
O2_4 C33_4 1_555 1_555
O3_4 C36_4 1_555 1_555
O4_3 C36_4 1_555 1_555
O5_3 C38_3 1_555 1_555
O6_3 C38_3 1_555 1_555
N1_3 Zn4 1_555 1_555
N2_3 H1_3 1_555 1_555
N5_3 Zn3_2 1_555 1_555
C1_3 N1_3 1_555 1_555
H3_3 C1_3 1_555 1_555
C2_3 C1_3 1_555 1_555
H4_3 C2_3 1_555 1_555
C3_3 C2_3 1_555 1_555
C4_3 C3_3 1_555 1_555
H5_3 C4_3 1_555 1_555
C5_3 N1_3 1_555 1_555
H6_3 C5_3 1_555 1_555
C6_3 N2_3 1_555 1_555
H7_3 C6_3 1_555 1_555
H8_3 C6_3 1_555 1_555
C7_3 N2_3 1_555 1_555
H9_3 C7_3 1_555 1_555
H10_3 C7_3 1_555 1_555
C10_3 N2_3 1_555 1_555
H15_3 C10_3 1_555 1_555
H16_3 C10_3 1_555 1_555
H25_3 C20_3 1_555 1_555
C21_3 N5_3 1_555 1_555
H26_3 C21_3 1_555 1_555
H31_3 C24_3 1_555 1_555
H32_3 C24_3 1_555 1_555
H38_3 C27_3 1_555 1_555
C29_3 C28_3 1_555 1_555
H40_3 C29_3 1_555 1_555
C30_3 C27_3 1_555 1_555
C33_4 C34_4 1_555 1_555
C34_4 C35_4 1_555 1_555
C35_4 H43_4 1_555 1_555
C36_4 C35_4 1_555 1_555
C37_3 C34_4 1_555 1_555
H44_3 C37_3 1_555 1_555
H45_3 C37_3 1_555 1_555
C38_3 C37_3 1_555 1_555
N9_2 Zn4 1_555 1_555
C3_3 C6_3 1_555 1_555
C4_3 C5_3 1_555 1_555
C20_3 C21_3 1_555 1_555
C29_3 C30_3 1_555 1_555
N3_4 C8_4 1_555 1_555
N9_2 C12_4 1_555 1_555
H11_4 C8_4 1_555 1_555
H12_4 C8_4 1_555 1_555
C9_4 N3_4 1_555 1_555
H13_4 C9_4 1_555 1_555
H14_4 C9_4 1_555 1_555
C11_4 N3_4 1_555 1_555
H17_4 C11_4 1_555 1_555
H18_4 C11_4 1_555 1_555
C12_4 H19_4 1_555 1_555
C13_4 C12_4 1_555 1_555
H20_4 C13_4 1_555 1_555
C14_4 C11_4 1_555 1_555
C15_4 C14_4 1_555 1_555
H21_4 C15_4 1_555 1_555
C16_4 N9_2 1_555 1_555
H22_4 C16_4 1_555 1_555
C13_4 C14_4 1_555 1_555
C15_4 C16_4 1_555 1_555
O9_3 C42_3 1_555 1_555
O5_4 C38_4 1_555 1_555
O6_4 C38_4 1_555 1_555
N2_4 H1_4 1_555 1_555
C1_4 N1_4 1_555 1_555
H3_4 C1_4 1_555 1_555
C2_4 C1_4 1_555 1_555
H4_4 C2_4 1_555 1_555
C3_4 C2_4 1_555 1_555
C4_4 C3_4 1_555 1_555
H5_4 C4_4 1_555 1_555
C5_4 N1_4 1_555 1_555
H6_4 C5_4 1_555 1_555
C6_4 N2_4 1_555 1_555
H7_4 C6_4 1_555 1_555
H8_4 C6_4 1_555 1_555
C7_4 N2_4 1_555 1_555
H9_4 C7_4 1_555 1_555
H10_4 C7_4 1_555 1_555
C10_4 N2_4 1_555 1_555
H15_4 C10_4 1_555 1_555
H16_4 C10_4 1_555 1_555
H25_4 C20_4 1_555 1_555
C21_4 N5_4 1_555 1_555
H26_4 C21_4 1_555 1_555
H31_4 C24_4 1_555 1_555
H32_4 C24_4 1_555 1_555
H38_4 C27_4 1_555 1_555
C29_4 C28_4 1_555 1_555
H40_4 C29_4 1_555 1_555
C30_4 C27_4 1_555 1_555
H44_4 C37_4 1_555 1_555
H45_4 C37_4 1_555 1_555
C38_4 C37_4 1_555 1_555
C3_4 C6_4 1_555 1_555
C4_4 C5_4 1_555 1_555
C20_4 C21_4 1_555 1_555
C29_4 C30_4 1_555 1_555
O9_4 C42_4 1_555 1_555
N6_4 C22_4 1_555 1_555
N7_4 H2_4 1_555 1_555
H23_4 C17_4 1_555 1_555
C18_4 C17_4 1_555 1_555
H24_4 C18_4 1_555 1_555
C19_4 C18_4 1_555 1_555
C22_4 C19_4 1_555 1_555
H27_4 C22_4 1_555 1_555
H28_4 C22_4 1_555 1_555
C23_4 N6_4 1_555 1_555
H30_4 C23_4 1_555 1_555
C25_4 N7_4 1_555 1_555
H34_4 C25_4 1_555 1_555
C26_4 N6_4 1_555 1_555
H35_4 C26_4 1_555 1_555
H36_4 C26_4 1_555 1_555
H41_4 C31_4 1_555 1_555
C25_4 C26_4 1_555 1_555
C31_4 C32_4 1_555 1_555

#END
