
###############################################################################
#
# This file contains modified crystal structure data generated from the
# MOF subset of the Cambridge Structural Database (CSD) v543 
# hosted by the Cambridge Crystallographic Data Centre (CCDC).
#
# This work is licensed under the Creative Commons
# Attribution-NonCommercial-ShareAlike 4.0 International License.
# To view a copy of this license, visit
# http://creativecommons.org/licenses/by-nc-sa/4.0/
# or send a letter to
# Creative Commons, PO Box 1866, Mountain View, CA 94042, USA.
#
# CIF created using the CSD Python API on 29 September 2022
# The structure has been converted into the P1 space group
# The structure has a 3D framework
# The original CSD entry TIHMAB is in the monoclinic crystal system
# The framework has been calculated to contain at least 10.0% void space
# The void calculation uses a probe of radius 1.32A, grid spacing 0.4
#
###############################################################################

data_TIHMAB
_chemical_formula_moiety         '(C168 H104 Co8 N24 O45)n'
_symmetry_cell_setting           triclinic
_symmetry_space_group_name_H-M   'P 1'
_symmetry_Int_Tables_number      1
_space_group_name_Hall           'P 1'
loop_
_symmetry_equiv_pos_site_id
_symmetry_equiv_pos_as_xyz
1 x,y,z
_cell_length_a                   22.2890(7)
_cell_length_b                   10.9175(2)
_cell_length_c                   21.5601(7)
_cell_angle_alpha                90
_cell_angle_beta                 112.908(4)
_cell_angle_gamma                90
_cell_volume                     4832.66
loop_
_atom_site_label
_atom_site_type_symbol
_atom_site_fract_x
_atom_site_fract_y
_atom_site_fract_z
O11 O 0.17078(13) 0.7040(3) 0.04297(15)
O12 O 0.15365(13) 0.4015(3) 0.18006(14)
N4 N 0.33449(14) 0.5899(3) 0.20082(15)
N5 N 0.31079(15) 0.6608(3) 0.23785(17)
H18 H 0.3350 0.7021 0.2725
N6 N 0.16082(14) 0.5581(3) 0.11404(16)
C29 C 0.13695(17) 0.6267(3) 0.05380(19)
C30 C 0.28305(18) 0.5422(3) 0.15218(19)
C31 C 0.05873(17) 0.4428(3) 0.08280(19)
C32 C 0.02110(18) 0.3578(3) 0.09816(19)
H19 H 0.0385 0.3144 0.1384
C33 C 0.03241(17) 0.5113(3) 0.02243(18)
C34 C 0.22626(17) 0.5836(3) 0.15884(19)
C35 C 0.06953(18) 0.6002(3) 0.00599(18)
C36 C 0.24536(18) 0.6594(4) 0.2143(2)
C37 C 0.12731(18) 0.4621(3) 0.12966(19)
C39 C 0.2898(2) 0.4588(4) 0.1007(3)
H21 H 0.3300 0.4143 0.1200
H22 H 0.2540 0.4022 0.0857
H23 H 0.2898 0.5061 0.0631
C40 C 0.2074(2) 0.7288(5) 0.2457(3)
H24 H 0.2308 0.8015 0.2666
H25 H 0.1660 0.7512 0.2118
H26 H 0.2008 0.6788 0.2791
Co6 Co 0.43180(3) 0.57618(4) 0.22188(3)
Co1 Co 0.56820(3) 0.42382(4) 0.77812(3)
O1 O 0.55447(12) 0.2394(2) 0.77168(13)
O3 O 0.44098(13) 0.4338(2) 0.63292(13)
O4 O 0.54992(13) 0.4204(2) 0.67739(13)
O5 O 0.82922(13) 0.2960(3) 0.95703(15)
O6 O 0.84635(13) 0.5985(3) 0.81994(14)
N1 N 0.66551(14) 0.4101(3) 0.79918(15)
N2 N 0.68921(15) 0.3392(3) 0.76215(17)
H1 H 0.6650 0.2979 0.7275
N3 N 0.83918(14) 0.4419(3) 0.88596(16)
C1 C 0.5000 0.1864(4) 0.7500
C3 C 0.86305(17) 0.3733(3) 0.94620(19)
C4 C 0.49783(18) 0.4696(3) 0.56158(18)
C5 C 0.49594(18) 0.4391(3) 0.62911(17)
C6 C 0.71695(18) 0.4578(3) 0.84782(19)
C7 C 0.94127(17) 0.5572(3) 0.91720(19)
C9 C 0.5000 0.0505(4) 0.7500
C10 C 0.97890(18) 0.6422(3) 0.90184(19)
H2 H 0.9615 0.6856 0.8616
C11 C 0.96759(17) 0.4887(3) 0.97757(18)
C12 C 0.77374(17) 0.4164(3) 0.84116(19)
C13 C 0.93047(18) 0.3998(3) 0.99401(18)
C14 C 0.75464(18) 0.3406(4) 0.7857(2)
C15 C 0.87269(18) 0.5379(3) 0.87034(19)
C16 C 0.5570(2) 0.4828(4) 0.5556(2)
H3 H 0.5956 0.4710 0.5929
C18 C 0.4411(2) 0.4866(4) 0.5057(2)
H5 H 0.4011 0.4774 0.5093
H7 H 0.5959 0.0277 0.7698
C21 C 0.7102(2) 0.5412(4) 0.8993(3)
H8 H 0.6700 0.5857 0.8800
H9 H 0.7460 0.5978 0.9143
H10 H 0.7102 0.4939 0.9369
C22 C 0.7926(2) 0.2712(5) 0.7543(3)
H11 H 0.7692 0.1985 0.7334
H12 H 0.8340 0.2488 0.7882
H13 H 0.7992 0.3212 0.7209
O7 O 0.44553(12) 0.2394(2) 0.72832(13)
H15 H 0.4041 0.0277 0.7302
O9 O 0.55902(13) 0.5662(2) 0.36708(13)
O10 O 0.45008(13) 0.5796(2) 0.32261(13)
C25 C 0.50217(18) 0.5304(3) 0.43842(18)
C26 C 0.50406(18) 0.5609(3) 0.37089(17)
C27 C 0.4430(2) 0.5172(4) 0.4444(2)
H16 H 0.4044 0.5290 0.4071
C28 C 0.5589(2) 0.5134(4) 0.4943(2)
H17 H 0.5989 0.5226 0.4907
Co2 Co 0.43180(3) 0.42382(4) 0.72188(3)
Co7 Co 0.56820(3) 0.57618(4) 0.27812(3)
O13 O 0.55391(15) 0.6057(2) 0.76729(17)
O14 O 0.44609(15) 0.6057(2) 0.73271(17)
O15 O 0.55902(13) 0.4338(2) 0.86708(13)
O16 O 0.45008(13) 0.4204(2) 0.82261(13)
N7 N 0.33449(14) 0.4101(3) 0.70082(15)
C2 C 0.5000 0.6590(5) 0.7500
C8 C 0.5000 0.7947(5) 0.7500
C19 C 0.5571(2) 0.8595(4) 0.7628(2)
H6 H 0.5958 0.8171 0.7721
C20 C 0.55735(18) 0.9856(3) 0.7621(2)
C23 C 0.4429(2) 0.8595(4) 0.7372(2)
H14 H 0.4042 0.8171 0.7279
C24 C 0.44265(18) 0.9856(3) 0.7379(2)
O9_2 O 0.44098(13) 0.5662(2) 0.13292(13)
O10_2 O 0.54992(13) 0.5796(2) 0.17739(13)
C25_2 C 0.49783(18) 0.5304(3) 0.06158(18)
C26_2 C 0.49594(18) 0.5609(3) 0.12911(17)
C27_2 C 0.5570(2) 0.5172(4) 0.0556(2)
H16_2 H 0.5956 0.5290 0.0929
C28_2 C 0.4411(2) 0.5134(4) 0.0057(2)
H17_2 H 0.4011 0.5226 0.0093
O5_2 O 0.17078(13) 0.2960(3) 0.54297(15)
O6_2 O 0.15365(13) 0.5985(3) 0.68006(14)
N2_2 N 0.31079(15) 0.3392(3) 0.73785(17)
H1_2 H 0.3350 0.2979 0.7725
N3_2 N 0.16082(14) 0.4419(3) 0.61404(16)
C3_2 C 0.13695(17) 0.3733(3) 0.55380(19)
C4_2 C 0.50217(18) 0.4696(3) 0.93842(18)
C5_2 C 0.50406(18) 0.4391(3) 0.87089(17)
C6_2 C 0.28305(18) 0.4578(3) 0.65218(19)
C7_2 C 0.05873(17) 0.5572(3) 0.58280(19)
C10_2 C 0.02110(18) 0.6422(3) 0.59816(19)
H2_2 H 0.0385 0.6856 0.6384
C11_2 C 0.03241(17) 0.4887(3) 0.52243(18)
C12_2 C 0.22626(17) 0.4164(3) 0.65884(19)
C13_2 C 0.06953(18) 0.3998(3) 0.50599(18)
C14_2 C 0.24536(18) 0.3406(4) 0.7143(2)
C15_2 C 0.12731(18) 0.5379(3) 0.62966(19)
C16_2 C 0.4430(2) 0.4828(4) 0.9444(2)
H3_2 H 0.4044 0.4710 0.9071
C17 C 0.04361(18) 0.3360(3) 0.44647(19)
H4 H 0.0688 0.2785 0.4357
C18_2 C 0.5589(2) 0.4866(4) 0.9943(2)
H5_2 H 0.5989 0.4774 0.9907
C21_2 C 0.2898(2) 0.5412(4) 0.6007(3)
H8_2 H 0.3300 0.5857 0.6200
H9_2 H 0.2540 0.5978 0.5857
H10_2 H 0.2898 0.4939 0.5631
C22_2 C 0.2074(2) 0.2712(5) 0.7457(3)
H11_2 H 0.2308 0.1985 0.7666
H12_2 H 0.1660 0.2488 0.7118
H13_2 H 0.2008 0.3212 0.7791
O11_2 O 0.82922(13) 0.7040(3) 0.45703(15)
O12_2 O 0.84635(13) 0.4015(3) 0.31994(14)
N4_2 N 0.66551(14) 0.5899(3) 0.29918(15)
N5_2 N 0.68921(15) 0.6608(3) 0.26215(17)
H18_2 H 0.6650 0.7021 0.2275
N6_2 N 0.83918(14) 0.5581(3) 0.38596(16)
C29_2 C 0.86305(17) 0.6267(3) 0.44620(19)
C30_2 C 0.71695(18) 0.5422(3) 0.34782(19)
C31_2 C 0.94127(17) 0.4428(3) 0.41720(19)
C32_2 C 0.97890(18) 0.3578(3) 0.40184(19)
H19_2 H 0.9615 0.3144 0.3616
C33_2 C 0.96759(17) 0.5113(3) 0.47757(18)
C34_2 C 0.77374(17) 0.5836(3) 0.34116(19)
C35_2 C 0.93047(18) 0.6002(3) 0.49401(18)
C36_2 C 0.75464(18) 0.6594(4) 0.2857(2)
C37_2 C 0.87269(18) 0.4621(3) 0.37034(19)
C38 C 0.95639(18) 0.6640(3) 0.55353(19)
H20 H 0.9312 0.7215 0.5643
C39_2 C 0.7102(2) 0.4588(4) 0.3993(3)
H21_2 H 0.6700 0.4143 0.3800
H22_2 H 0.7460 0.4022 0.4143
H23_2 H 0.7102 0.5061 0.4369
C40_2 C 0.7926(2) 0.7288(5) 0.2543(3)
H24_2 H 0.7692 0.8015 0.2334
H25_2 H 0.8340 0.7512 0.2882
H26_2 H 0.7992 0.6788 0.2209
O2 O 0.44609(15) 0.3943(2) 0.23271(17)
C2_2 C 0.5000 0.3410(5) 0.2500
C8_2 C 0.5000 0.2053(5) 0.2500
C19_2 C 0.4429(2) 0.1405(4) 0.2372(2)
H6_2 H 0.4042 0.1829 0.2279
C20_2 C 0.44265(18) 0.0144(3) 0.2379(2)
O8 O 0.55391(15) 0.3943(2) 0.26729(17)
C23_2 C 0.5571(2) 0.1405(4) 0.2628(2)
H14_2 H 0.5958 0.1829 0.2721
C24_2 C 0.55735(18) 0.0144(3) 0.2621(2)
O1_2 O 0.44553(12) 0.7606(2) 0.22832(13)
C1_2 C 0.5000 0.8136(4) 0.2500
C9_2 C 0.5000 0.9495(4) 0.2500
H7_2 H 0.4041 0.9723 0.2302
O7_2 O 0.55447(12) 0.7606(2) 0.27168(13)
H15_2 H 0.5959 0.9723 0.2698
C38_2 C 0.04361(18) 0.6640(3) 0.94647(19)
H20_2 H 0.0688 0.7215 0.9357
C17_2 C 0.95639(18) 0.3360(3) 0.05353(19)
H4_2 H 0.9312 0.2785 0.0643
O11_3 O 0.67078(13) 0.2040(3) 0.04297(15)
N4_3 N 0.83449(14) 0.0899(3) 0.20082(15)
N5_3 N 0.81079(15) 0.1608(3) 0.23785(17)
H18_3 H 0.8350 0.2021 0.2725
N6_3 N 0.66082(14) 0.0581(3) 0.11404(16)
C29_3 C 0.63695(17) 0.1267(3) 0.05380(19)
C30_3 C 0.78305(18) 0.0422(3) 0.15218(19)
C33_3 C 0.53241(17) 0.0113(3) 0.02243(18)
C34_3 C 0.72626(17) 0.0836(3) 0.15884(19)
C35_3 C 0.56953(18) 0.1002(3) 0.00599(18)
C36_3 C 0.74536(18) 0.1594(4) 0.2143(2)
H23_3 H 0.7898 0.0061 0.0631
C40_3 C 0.7074(2) 0.2288(5) 0.2457(3)
H24_3 H 0.7308 0.3015 0.2666
H25_3 H 0.6660 0.2512 0.2118
H26_3 H 0.7008 0.1788 0.2791
Co6_2 Co 0.93180(3) 0.07618(4) 0.22188(3)
O6_3 O 0.34635(13) 0.0985(3) 0.81994(14)
C7_3 C 0.44127(17) 0.0572(3) 0.91720(19)
C10_3 C 0.47890(18) 0.1422(3) 0.90184(19)
H2_3 H 0.4615 0.1856 0.8616
C15_3 C 0.37269(18) 0.0379(3) 0.87034(19)
C21_3 C 0.2102(2) 0.0412(4) 0.8993(3)
H8_3 H 0.1700 0.0857 0.8800
H9_3 H 0.2460 0.0978 0.9143
O9_3 O 0.05902(13) 0.0662(2) 0.36708(13)
C25_3 C 0.00217(18) 0.0304(3) 0.43842(18)
C26_3 C 0.00406(18) 0.0609(3) 0.37089(17)
C28_3 C 0.0589(2) 0.0134(4) 0.4943(2)
H17_3 H 0.0989 0.0226 0.4907
C38_3 C 0.54361(18) 0.1640(3) 0.94647(19)
H20_3 H 0.5688 0.2215 0.9357
Co7_2 Co 0.06820(3) 0.07618(4) 0.27812(3)
O13_2 O 0.05391(15) 0.1057(2) 0.76729(17)
C17_3 C 0.45639(18) 0.8360(3) 0.05353(19)
H4_3 H 0.4312 0.7785 0.0643
O12_3 O 0.65365(13) 0.9015(3) 0.18006(14)
C31_3 C 0.55873(17) 0.9428(3) 0.08280(19)
C32_3 C 0.52110(18) 0.8578(3) 0.09816(19)
H19_3 H 0.5385 0.8144 0.1384
C37_3 C 0.62731(18) 0.9621(3) 0.12966(19)
C39_3 C 0.7898(2) 0.9588(4) 0.1007(3)
H21_3 H 0.8300 0.9143 0.1200
H22_3 H 0.7540 0.9022 0.0857
Co1_2 Co 0.06820(3) 0.92382(4) 0.77812(3)
O1_3 O 0.05447(12) 0.7394(2) 0.77168(13)
O4_2 O 0.04992(13) 0.9204(2) 0.67739(13)
O5_3 O 0.32922(13) 0.7960(3) 0.95703(15)
N1_2 N 0.16551(14) 0.9101(3) 0.79918(15)
N2_3 N 0.18921(15) 0.8392(3) 0.76215(17)
H1_3 H 0.1650 0.7979 0.7275
N3_3 N 0.33918(14) 0.9419(3) 0.88596(16)
C1_3 C 0.0000 0.6864(4) 0.7500
C2_3 C 0.0000 0.1590(5) 0.7500
C3_3 C 0.36305(17) 0.8733(3) 0.94620(19)
C6_3 C 0.21695(18) 0.9578(3) 0.84782(19)
C8_3 C 0.0000 0.2947(5) 0.7500
C9_3 C 0.0000 0.5505(4) 0.7500
C11_3 C 0.46759(17) 0.9887(3) 0.97757(18)
C12_3 C 0.27374(17) 0.9164(3) 0.84116(19)
C13_3 C 0.43047(18) 0.8998(3) 0.99401(18)
C14_3 C 0.25464(18) 0.8406(4) 0.7857(2)
C16_3 C 0.0570(2) 0.9828(4) 0.5556(2)
H3_3 H 0.0956 0.9710 0.5929
C19_3 C 0.0571(2) 0.3595(4) 0.7628(2)
H6_3 H 0.0958 0.3171 0.7721
C20_3 C 0.05735(18) 0.4856(3) 0.7621(2)
H7_3 H 0.0959 0.5277 0.7698
H10_3 H 0.2102 0.9939 0.9369
C22_3 C 0.2926(2) 0.7712(5) 0.7543(3)
H11_3 H 0.2692 0.6985 0.7334
H12_3 H 0.3340 0.7488 0.7882
H13_3 H 0.2992 0.8212 0.7209
O15_2 O 0.05902(13) 0.9338(2) 0.86708(13)
O10_3 O 0.95008(13) 0.0796(2) 0.32261(13)
C27_3 C 0.9430(2) 0.0172(4) 0.4444(2)
H16_3 H 0.9044 0.0290 0.4071
O14_2 O 0.94609(15) 0.1057(2) 0.73271(17)
O3_2 O 0.94098(13) 0.9338(2) 0.63292(13)
C1_4 C 1.0000 0.6864(4) 0.7500
C2_4 C 1.0000 0.1590(5) 0.7500
C4_3 C 0.99783(18) 0.9696(3) 0.56158(18)
C5_3 C 0.99594(18) 0.9391(3) 0.62911(17)
C8_4 C 1.0000 0.2947(5) 0.7500
C9_4 C 1.0000 0.5505(4) 0.7500
C18_3 C 0.9411(2) 0.9866(4) 0.5057(2)
H5_3 H 0.9011 0.9774 0.5093
O7_3 O 0.94553(12) 0.7394(2) 0.72832(13)
C23_3 C 0.9429(2) 0.3595(4) 0.7372(2)
H14_3 H 0.9042 0.3171 0.7279
C24_3 C 0.94265(18) 0.4856(3) 0.7379(2)
H15_3 H 0.9041 0.5277 0.7302
Co2_2 Co 0.93180(3) 0.92382(4) 0.72188(3)
O16_2 O 0.95008(13) 0.9204(2) 0.82261(13)
N7_2 N 0.83449(14) 0.9101(3) 0.70082(15)
O10_4 O 0.04992(13) 0.0796(2) 0.17739(13)
C27_4 C 0.0570(2) 0.0172(4) 0.0556(2)
H16_4 H 0.0956 0.0290 0.0929
C4_4 C 0.00217(18) 0.9696(3) 0.93842(18)
C5_4 C 0.00406(18) 0.9391(3) 0.87089(17)
C18_4 C 0.0589(2) 0.9866(4) 0.9943(2)
H5_4 H 0.0989 0.9774 0.9907
O9_4 O 0.94098(13) 0.0662(2) 0.13292(13)
C25_4 C 0.99783(18) 0.0304(3) 0.06158(18)
C26_4 C 0.99594(18) 0.0609(3) 0.12911(17)
C28_4 C 0.9411(2) 0.0134(4) 0.0057(2)
H17_4 H 0.9011 0.0226 0.0093
O6_4 O 0.65365(13) 0.0985(3) 0.68006(14)
C7_4 C 0.55873(17) 0.0572(3) 0.58280(19)
C10_4 C 0.52110(18) 0.1422(3) 0.59816(19)
H2_4 H 0.5385 0.1856 0.6384
C15_4 C 0.62731(18) 0.0379(3) 0.62966(19)
C21_4 C 0.7898(2) 0.0412(4) 0.6007(3)
H8_4 H 0.8300 0.0857 0.6200
H9_4 H 0.7540 0.0978 0.5857
O11_4 O 0.32922(13) 0.2040(3) 0.45703(15)
N4_4 N 0.16551(14) 0.0899(3) 0.29918(15)
N5_4 N 0.18921(15) 0.1608(3) 0.26215(17)
H18_4 H 0.1650 0.2021 0.2275
N6_4 N 0.33918(14) 0.0581(3) 0.38596(16)
C29_4 C 0.36305(17) 0.1267(3) 0.44620(19)
C30_4 C 0.21695(18) 0.0422(3) 0.34782(19)
C33_4 C 0.46759(17) 0.0113(3) 0.47757(18)
C34_4 C 0.27374(17) 0.0836(3) 0.34116(19)
C35_4 C 0.43047(18) 0.1002(3) 0.49401(18)
C36_4 C 0.25464(18) 0.1594(4) 0.2857(2)
C38_4 C 0.45639(18) 0.1640(3) 0.55353(19)
H20_4 H 0.4312 0.2215 0.5643
H23_4 H 0.2102 0.0061 0.4369
C40_4 C 0.2926(2) 0.2288(5) 0.2543(3)
H24_4 H 0.2692 0.3015 0.2334
H25_4 H 0.3340 0.2512 0.2882
H26_4 H 0.2992 0.1788 0.2209
O5_4 O 0.67078(13) 0.7960(3) 0.54297(15)
N2_4 N 0.81079(15) 0.8392(3) 0.73785(17)
H1_4 H 0.8350 0.7979 0.7725
N3_4 N 0.66082(14) 0.9419(3) 0.61404(16)
C3_4 C 0.63695(17) 0.8733(3) 0.55380(19)
C6_4 C 0.78305(18) 0.9578(3) 0.65218(19)
C11_4 C 0.53241(17) 0.9887(3) 0.52243(18)
C12_4 C 0.72626(17) 0.9164(3) 0.65884(19)
C13_4 C 0.56953(18) 0.8998(3) 0.50599(18)
C14_4 C 0.74536(18) 0.8406(4) 0.7143(2)
C16_4 C 0.9430(2) 0.9828(4) 0.9444(2)
H3_4 H 0.9044 0.9710 0.9071
C17_4 C 0.54361(18) 0.8360(3) 0.44647(19)
H4_4 H 0.5688 0.7785 0.4357
H10_4 H 0.7898 0.9939 0.5631
C22_4 C 0.7074(2) 0.7712(5) 0.7457(3)
H11_4 H 0.7308 0.6985 0.7666
H12_4 H 0.6660 0.7488 0.7118
H13_4 H 0.7008 0.8212 0.7791
O12_4 O 0.34635(13) 0.9015(3) 0.31994(14)
C31_4 C 0.44127(17) 0.9428(3) 0.41720(19)
C32_4 C 0.47890(18) 0.8578(3) 0.40184(19)
H19_4 H 0.4615 0.8144 0.3616
C37_4 C 0.37269(18) 0.9621(3) 0.37034(19)
C39_4 C 0.2102(2) 0.9588(4) 0.3993(3)
H21_4 H 0.1700 0.9143 0.3800
H22_4 H 0.2460 0.9022 0.4143
C1_5 C -0.0000 0.3136(4) 0.2500
C2_5 C 0.0000 0.8410(5) 0.2500
C8_5 C 0.0000 0.7053(5) 0.2500
C9_5 C 0.0000 0.4495(4) 0.2500
O7_4 O 0.05447(12) 0.2606(2) 0.27168(13)
O8_2 O 0.05391(15) 0.8943(2) 0.26729(17)
C23_4 C 0.0571(2) 0.6405(4) 0.2628(2)
H14_4 H 0.0958 0.6829 0.2721
C24_4 C 0.05735(18) 0.5144(3) 0.2621(2)
H15_4 H 0.0959 0.4723 0.2698
O1_4 O 0.94553(12) 0.2606(2) 0.22832(13)
O2_2 O 0.94609(15) 0.8943(2) 0.23271(17)
C1_6 C 1.0000 0.3136(4) 0.2500
C2_6 C 1.0000 0.8410(5) 0.2500
C8_6 C 1.0000 0.7053(5) 0.2500
C9_6 C 1.0000 0.4495(4) 0.2500
C19_4 C 0.9429(2) 0.6405(4) 0.2372(2)
H6_4 H 0.9042 0.6829 0.2279
C20_4 C 0.94265(18) 0.5144(3) 0.2379(2)
H7_4 H 0.9041 0.4723 0.2302
loop_
_geom_bond_atom_site_label_1
_geom_bond_atom_site_label_2
_geom_bond_site_symmetry_1
_geom_bond_site_symmetry_2
O11 C29 1_555 1_555
O12 C37 1_555 1_555
N4 N5 1_555 1_555
N5 H18 1_555 1_555
N6 C29 1_555 1_555
C29 C35 1_555 1_555
C30 N4 1_555 1_555
C31 C32 1_555 1_555
H19 C32 1_555 1_555
C34 N6 1_555 1_555
C35 C33 1_555 1_555
C36 N5 1_555 1_555
C37 N6 1_555 1_555
C39 C30 1_555 1_555
H21 C39 1_555 1_555
H22 C39 1_555 1_555
H23 C39 1_555 1_555
C40 C36 1_555 1_555
H24 C40 1_555 1_555
H25 C40 1_555 1_555
H26 C40 1_555 1_555
Co6 N4 1_555 1_555
C30 C34 1_555 1_555
C31 C33 1_555 1_555
C31 C37 1_555 1_555
C34 C36 1_555 1_555
Co1 O1 1_555 1_555
O1 C1 1_555 1_555
O3 C5 1_555 1_555
O4 Co1 1_555 1_555
O5 C3 1_555 1_555
O6 C15 1_555 1_555
N1 Co1 1_555 1_555
N2 N1 1_555 1_555
H1 N2 1_555 1_555
N3 C3 1_555 1_555
C1 C9 1_555 1_555
C3 C13 1_555 1_555
C4 C5 1_555 1_555
C5 O4 1_555 1_555
C6 N1 1_555 1_555
C7 C10 1_555 1_555
C10 H2 1_555 1_555
C11 C7 1_555 1_555
C12 N3 1_555 1_555
C13 C11 1_555 1_555
C14 N2 1_555 1_555
C15 N3 1_555 1_555
C16 C4 1_555 1_555
H3 C16 1_555 1_555
C18 C4 1_555 1_555
H5 C18 1_555 1_555
C21 C6 1_555 1_555
H8 C21 1_555 1_555
H9 C21 1_555 1_555
H10 C21 1_555 1_555
C22 C14 1_555 1_555
H11 C22 1_555 1_555
H12 C22 1_555 1_555
H13 C22 1_555 1_555
O7 C1 1_555 1_555
O9 C26 1_555 1_555
O10 C26 1_555 1_555
C25 C26 1_555 1_555
C27 C18 1_555 1_555
H16 C27 1_555 1_555
C28 C16 1_555 1_555
H17 C28 1_555 1_555
Co2 O3 1_555 1_555
Co6 O10 1_555 1_555
Co7 O9 1_555 1_555
O13 Co1 1_555 1_555
O14 Co2 1_555 1_555
O15 Co1 1_555 1_555
O16 Co2 1_555 1_555
N7 Co2 1_555 1_555
C6 C12 1_555 1_555
C7 C15 1_555 1_555
C12 C14 1_555 1_555
O7 Co2 1_555 1_555
C25 C27 1_555 1_555
C25 C28 1_555 1_555
O13 C2 1_555 1_555
C2 C8 1_555 1_555
C8 C19 1_555 1_555
C19 H6 1_555 1_555
C20 C19 1_555 1_555
O14 C2 1_555 1_555
C23 C8 1_555 1_555
H14 C23 1_555 1_555
C23 C24 1_555 1_555
O9_2 C26_2 1_555 1_555
O10_2 C26_2 1_555 1_555
C25_2 C26_2 1_555 1_555
H16_2 C27_2 1_555 1_555
H17_2 C28_2 1_555 1_555
Co7 O10_2 1_555 1_555
Co6 O9_2 1_555 1_555
C25_2 C27_2 1_555 1_555
C25_2 C28_2 1_555 1_555
O15 C5_2 1_555 1_555
O5_2 C3_2 1_555 1_555
O6_2 C15_2 1_555 1_555
N2_2 N7 1_555 1_555
H1_2 N2_2 1_555 1_555
N3_2 C3_2 1_555 1_555
C3_2 C13_2 1_555 1_555
C4_2 C5_2 1_555 1_555
C5_2 O16 1_555 1_555
C6_2 N7 1_555 1_555
C7_2 C10_2 1_555 1_555
C10_2 H2_2 1_555 1_555
C11_2 C7_2 1_555 1_555
C12_2 N3_2 1_555 1_555
C13_2 C11_2 1_555 1_555
C14_2 N2_2 1_555 1_555
C15_2 N3_2 1_555 1_555
C16_2 C4_2 1_555 1_555
H3_2 C16_2 1_555 1_555
C17 C13_2 1_555 1_555
H4 C17 1_555 1_555
C18_2 C4_2 1_555 1_555
H5_2 C18_2 1_555 1_555
C21_2 C6_2 1_555 1_555
H8_2 C21_2 1_555 1_555
H9_2 C21_2 1_555 1_555
H10_2 C21_2 1_555 1_555
C22_2 C14_2 1_555 1_555
H11_2 C22_2 1_555 1_555
H12_2 C22_2 1_555 1_555
H13_2 C22_2 1_555 1_555
C6_2 C12_2 1_555 1_555
C7_2 C15_2 1_555 1_555
C12_2 C14_2 1_555 1_555
O11_2 C29_2 1_555 1_555
O12_2 C37_2 1_555 1_555
N4_2 N5_2 1_555 1_555
N5_2 H18_2 1_555 1_555
N6_2 C29_2 1_555 1_555
C29_2 C35_2 1_555 1_555
C30_2 N4_2 1_555 1_555
C31_2 C32_2 1_555 1_555
H19_2 C32_2 1_555 1_555
C34_2 N6_2 1_555 1_555
C35_2 C33_2 1_555 1_555
C36_2 N5_2 1_555 1_555
C37_2 N6_2 1_555 1_555
H20 C38 1_555 1_555
C39_2 C30_2 1_555 1_555
H21_2 C39_2 1_555 1_555
H22_2 C39_2 1_555 1_555
H23_2 C39_2 1_555 1_555
C40_2 C36_2 1_555 1_555
H24_2 C40_2 1_555 1_555
H25_2 C40_2 1_555 1_555
H26_2 C40_2 1_555 1_555
Co7 N4_2 1_555 1_555
C30_2 C34_2 1_555 1_555
C31_2 C33_2 1_555 1_555
C31_2 C37_2 1_555 1_555
C34_2 C36_2 1_555 1_555
C35_2 C38 1_555 1_555
O2 C2_2 1_555 1_555
C2_2 C8_2 1_555 1_555
C8_2 C19_2 1_555 1_555
C19_2 H6_2 1_555 1_555
C20_2 C19_2 1_555 1_555
O8 C2_2 1_555 1_555
C23_2 C8_2 1_555 1_555
H14_2 C23_2 1_555 1_555
Co6 O2 1_555 1_555
Co7 O8 1_555 1_555
C23_2 C24_2 1_555 1_555
Co6 O1_2 1_555 1_555
O1_2 C1_2 1_555 1_555
C1_2 C9_2 1_555 1_555
O7_2 C1_2 1_555 1_555
O7_2 Co7 1_555 1_555
H20_2 C38_2 1_555 1_555
H4_2 C17_2 1_555 1_555
O11_3 C29_3 1_555 1_555
N4_3 N5_3 1_555 1_555
N5_3 H18_3 1_555 1_555
N6_3 C29_3 1_555 1_555
C29_3 C35_3 1_555 1_555
C30_3 N4_3 1_555 1_555
C34_3 N6_3 1_555 1_555
C35_3 C33_3 1_555 1_555
C36_3 N5_3 1_555 1_555
C40_3 C36_3 1_555 1_555
H24_3 C40_3 1_555 1_555
H25_3 C40_3 1_555 1_555
H26_3 C40_3 1_555 1_555
Co6_2 N4_3 1_555 1_555
C30_3 C34_3 1_555 1_555
C34_3 C36_3 1_555 1_555
O6_3 C15_3 1_555 1_555
C7_3 C10_3 1_555 1_555
C10_3 H2_3 1_555 1_555
H8_3 C21_3 1_555 1_555
H9_3 C21_3 1_555 1_555
O9_3 C26_3 1_555 1_555
C25_3 C26_3 1_555 1_555
H17_3 C28_3 1_555 1_555
C38_3 C10_3 1_555 1_555
H20_3 C38_3 1_555 1_555
Co7_2 O9_3 1_555 1_555
C7_3 C15_3 1_555 1_555
C25_3 C28_3 1_555 1_555
H4_3 C17_3 1_555 1_555
O12_3 C37_3 1_555 1_555
C31_3 C32_3 1_555 1_555
C32_3 C17_3 1_555 1_555
H19_3 C32_3 1_555 1_555
H21_3 C39_3 1_555 1_555
H22_3 C39_3 1_555 1_555
C31_3 C37_3 1_555 1_555
Co1_2 O1_3 1_555 1_555
O1_3 C1_3 1_555 1_555
O13_2 C2_3 1_555 1_555
O4_2 Co1_2 1_555 1_555
O5_3 C3_3 1_555 1_555
N1_2 Co1_2 1_555 1_555
N2_3 N1_2 1_555 1_555
H1_3 N2_3 1_555 1_555
N3_3 C3_3 1_555 1_555
C1_3 C9_3 1_555 1_555
C2_3 C8_3 1_555 1_555
C3_3 C13_3 1_555 1_555
C6_3 N1_2 1_555 1_555
C8_3 C19_3 1_555 1_555
C9_3 C20_3 1_555 1_555
C12_3 N3_3 1_555 1_555
C13_3 C11_3 1_555 1_555
C14_3 N2_3 1_555 1_555
H3_3 C16_3 1_555 1_555
C19_3 H6_3 1_555 1_555
C20_3 C19_3 1_555 1_555
H7_3 C20_3 1_555 1_555
C22_3 C14_3 1_555 1_555
H11_3 C22_3 1_555 1_555
H12_3 C22_3 1_555 1_555
H13_3 C22_3 1_555 1_555
O15_2 Co1_2 1_555 1_555
C6_3 C12_3 1_555 1_555
C12_3 C14_3 1_555 1_555
H16_3 C27_3 1_555 1_555
Co6_2 O10_3 1_555 1_555
O3_2 C5_3 1_555 1_555
C1_4 C9_4 1_555 1_555
C2_4 C8_4 1_555 1_555
C4_3 C5_3 1_555 1_555
C18_3 C4_3 1_555 1_555
H5_3 C18_3 1_555 1_555
O7_3 C1_4 1_555 1_555
O14_2 C2_4 1_555 1_555
C23_3 C8_4 1_555 1_555
H14_3 C23_3 1_555 1_555
C24_3 C9_4 1_555 1_555
H15_3 C24_3 1_555 1_555
Co2_2 O3_2 1_555 1_555
O16_2 Co2_2 1_555 1_555
N7_2 Co2_2 1_555 1_555
O7_3 Co2_2 1_555 1_555
C23_3 C24_3 1_555 1_555
H16_4 C27_4 1_555 1_555
Co7_2 O10_4 1_555 1_555
O15_2 C5_4 1_555 1_555
C4_4 C5_4 1_555 1_555
C18_4 C4_4 1_555 1_555
H5_4 C18_4 1_555 1_555
O9_4 C26_4 1_555 1_555
C25_4 C26_4 1_555 1_555
H17_4 C28_4 1_555 1_555
Co6_2 O9_4 1_555 1_555
C25_4 C28_4 1_555 1_555
O6_4 C15_4 1_555 1_555
C7_4 C10_4 1_555 1_555
C10_4 H2_4 1_555 1_555
H8_4 C21_4 1_555 1_555
H9_4 C21_4 1_555 1_555
O11_4 C29_4 1_555 1_555
N4_4 N5_4 1_555 1_555
N5_4 H18_4 1_555 1_555
N6_4 C29_4 1_555 1_555
C29_4 C35_4 1_555 1_555
C30_4 N4_4 1_555 1_555
C34_4 N6_4 1_555 1_555
C35_4 C33_4 1_555 1_555
C36_4 N5_4 1_555 1_555
C38_4 C10_4 1_555 1_555
H20_4 C38_4 1_555 1_555
C40_4 C36_4 1_555 1_555
H24_4 C40_4 1_555 1_555
H25_4 C40_4 1_555 1_555
H26_4 C40_4 1_555 1_555
Co7_2 N4_4 1_555 1_555
C7_4 C15_4 1_555 1_555
C30_4 C34_4 1_555 1_555
C34_4 C36_4 1_555 1_555
C35_4 C38_4 1_555 1_555
O5_4 C3_4 1_555 1_555
N2_4 N7_2 1_555 1_555
H1_4 N2_4 1_555 1_555
N3_4 C3_4 1_555 1_555
C3_4 C13_4 1_555 1_555
C6_4 N7_2 1_555 1_555
C12_4 N3_4 1_555 1_555
C13_4 C11_4 1_555 1_555
C14_4 N2_4 1_555 1_555
H3_4 C16_4 1_555 1_555
C17_4 C13_4 1_555 1_555
H4_4 C17_4 1_555 1_555
C22_4 C14_4 1_555 1_555
H11_4 C22_4 1_555 1_555
H12_4 C22_4 1_555 1_555
H13_4 C22_4 1_555 1_555
O12_4 C37_4 1_555 1_555
C31_4 C32_4 1_555 1_555
C32_4 C17_4 1_555 1_555
H19_4 C32_4 1_555 1_555
H21_4 C39_4 1_555 1_555
H22_4 C39_4 1_555 1_555
C6_4 C12_4 1_555 1_555
C12_4 C14_4 1_555 1_555
C31_4 C37_4 1_555 1_555
C1_5 C9_5 1_555 1_555
C2_5 C8_5 1_555 1_555
O7_4 C1_5 1_555 1_555
O8_2 C2_5 1_555 1_555
C23_4 C8_5 1_555 1_555
H14_4 C23_4 1_555 1_555
C24_4 C9_5 1_555 1_555
H15_4 C24_4 1_555 1_555
O7_4 Co7_2 1_555 1_555
C23_4 C24_4 1_555 1_555
Co6_2 O1_4 1_555 1_555
O1_4 C1_6 1_555 1_555
O2_2 C2_6 1_555 1_555
C1_6 C9_6 1_555 1_555
C2_6 C8_6 1_555 1_555
C8_6 C19_4 1_555 1_555
C9_6 C20_4 1_555 1_555
C19_4 H6_4 1_555 1_555
C20_4 C19_4 1_555 1_555
H7_4 C20_4 1_555 1_555

#END
