
###############################################################################
#
# This file contains modified crystal structure data generated from the
# MOF subset of the Cambridge Structural Database (CSD) v543 
# hosted by the Cambridge Crystallographic Data Centre (CCDC).
#
# This work is licensed under the Creative Commons
# Attribution-NonCommercial-ShareAlike 4.0 International License.
# To view a copy of this license, visit
# http://creativecommons.org/licenses/by-nc-sa/4.0/
# or send a letter to
# Creative Commons, PO Box 1866, Mountain View, CA 94042, USA.
#
# CIF created using the CSD Python API on 29 September 2022
# The structure has been converted into the P1 space group
# The structure has a 3D framework
# The original CSD entry TIHROU is in the triclinic crystal system
# The framework has been calculated to contain at least 10.0% void space
# The void calculation uses a probe of radius 1.32A, grid spacing 0.4
# The framework is charged, counterions have been retained in the structure
#
###############################################################################

data_TIHROU
_chemical_formula_moiety         '(C94 H58 Eu2 N8 O40)n'
_symmetry_cell_setting           triclinic
_symmetry_space_group_name_H-M   'P 1'
_symmetry_Int_Tables_number      1
_space_group_name_Hall           'P 1'
loop_
_symmetry_equiv_pos_site_id
_symmetry_equiv_pos_as_xyz
1 x,y,z
_cell_length_a                   10.6709(12)
_cell_length_b                   18.1669(19)
_cell_length_c                   18.767(2)
_cell_angle_alpha                109.774(2)
_cell_angle_beta                 102.201(2)
_cell_angle_gamma                97.897(2)
_cell_volume                     3258.82
loop_
_atom_site_label
_atom_site_type_symbol
_atom_site_fract_x
_atom_site_fract_y
_atom_site_fract_z
O42 O 0.0275(10) 0.0781(6) 0.1315(6)
Eu7 Eu 0.02561(10) 0.05905(6) 0.89461(6)
O20 O 0.0731(11) 0.9732(8) 0.2437(7)
H6 H 0.029285 0.963493 0.283115
H7 H 0.167446 0.999162 0.275014
O43 O 0.2175(10) 0.9802(7) 0.1323(6)
O46 O 0.1311(11) 0.8560(6) 0.1123(6)
O6 O 0.0256(10) 0.9087(6) 0.9837(7)
O7 O 0.1047(11) 0.6465(6) 0.9855(7)
O15 O 0.0373(11) 0.5404(7) 0.8716(6)
H4 H 0.059263 0.515424 0.900902
C6 C 0.0030(15) 0.6620(10) 0.8681(10)
C12 C 0.0198(14) 0.7456(9) 0.9096(10)
H11 H 0.059920 0.769459 0.964814
C22 C 0.0545(15) 0.6161(11) 0.9145(12)
Eu1 Eu 0.97439(10) 0.94095(6) 0.10539(6)
O10 O 0.8272(12) 0.9647(6) 0.1739(7)
O12 O 0.7887(10) 0.9616(6) 0.0185(6)
H3 H 0.749175 0.995666 0.046427
N2 N 0.4879(12) 0.7040(8) 0.0662(8)
O18 O 0.6010(12) 0.7213(7) 0.1924(8)
C8 C 0.4952(16) 0.5411(9) 0.0122(11)
C13 C 0.5499(17) 0.6778(10) 0.1215(13)
C17 C 0.3636(17) 0.8075(10) 0.0980(10)
H12 H 0.285924 0.766809 0.082533
C23 C 0.4845(17) 0.7871(10) 0.0960(10)
C25 C 0.5995(17) 0.8477(10) 0.1217(10)
H13 H 0.681301 0.833316 0.119363
C30 C 0.5627(16) 0.5903(10) 0.0929(11)
C31 C 0.5958(17) 0.9274(10) 0.1501(10)
C37 C 0.7296(18) 0.9882(11) 0.1819(10)
C38 C 0.2286(18) 0.9087(11) 0.1242(9)
C43 C 0.3580(18) 0.8880(10) 0.1229(10)
C44 C 0.4752(16) 0.9466(10) 0.1488(10)
C45 C 0.6324(16) 0.5605(10) 0.1450(11)
H21 H 0.676519 0.593674 0.198344
O24 O 0.6257(11) 0.3134(6) 0.0542(7)
C46 C 0.6334(15) 0.4799(9) 0.1142(10)
H22 H 0.682049 0.459098 0.148380
C48 C 0.5708(16) 0.4278(10) 0.0390(11)
C51 C 0.5712(17) 0.3426(10) 0.0102(12)
O29 O 0.8355(12) 0.8104(6) 0.0363(7)
O30 O 0.8799(11) 0.5424(6) 0.0446(7)
H31 H 0.832637 0.664274 0.023308
O1 O 0.9725(10) 0.9219(6) 0.8685(6)
O3 O 0.2125(11) 0.5671(7) 0.0654(6)
H1 H 0.169527 0.589937 0.039861
O8 O 0.9723(12) 0.5804(6) 0.6336(6)
O9 O 0.6398(11) 0.6942(7) 0.6996(7)
O11 O 0.2809(11) 0.5360(6) 0.3006(7)
H2 H 0.818294 0.986349 0.990049
N1 N 0.8092(13) 0.6379(7) 0.6674(8)
O14 O 0.6035(11) 0.4069(6) 0.2404(6)
O16 O 0.3235(11) 0.1894(6) 0.0634(7)
O17 O 0.3743(11) 0.6866(6) 0.9458(7)
N3 N 0.4424(13) 0.4725(7) 0.2674(8)
C1 C 0.9928(15) 0.8825(11) 0.9104(10)
C2 C 0.5879(17) 0.5392(9) 0.4308(10)
C3 C 0.2209(15) 0.3603(10) 0.0296(10)
C4 C 0.6364(18) 0.4846(10) 0.3742(10)
C5 C 0.2749(16) 0.3141(10) 0.0683(10)
C7 C 0.3666(15) 0.5201(9) 0.8858(10)
H8 H 0.317951 0.540902 0.851620
C9 C 0.4292(16) 0.5722(10) 0.9610(11)
C10 C 0.9100(14) 0.7587(10) 0.7891(10)
H9 H 0.882151 0.790907 0.760859
C11 C 0.3468(15) 0.3514(10) 0.1466(10)
H10 H 0.382711 0.320077 0.173764
C14 C 0.3675(16) 0.4337(10) 0.1862(10)
C15 C 0.2462(15) 0.4429(10) 0.0695(10)
C16 C 0.388(2) 0.5227(10) 0.3211(11)
C18 C 0.4288(17) 0.6574(10) 0.9898(12)
C19 C 0.859(2) 0.5884(10) 0.6130(11)
C20 C 0.4650(17) 0.5583(9) 0.4050(10)
C21 C 0.2562(19) 0.2250(11) 0.0301(12)
C24 C 0.686(2) 0.6544(11) 0.6504(12)
C26 C 0.9756(15) 0.7934(10) 0.8670(10)
C27 C 0.6622(18) 0.5698(9) 0.5096(11)
C28 C 0.7509(17) 0.4600(10) 0.3954(10)
H14 H 0.781517 0.422228 0.357999
C29 C 0.3209(15) 0.4814(10) 0.1487(9)
H15 H 0.338230 0.538033 0.175109
C32 C 0.4222(17) 0.6129(9) 0.4591(10)
H16 H 0.343485 0.628996 0.442986
C33 C 0.8841(15) 0.6754(10) 0.7510(10)
C34 C 0.6185(18) 0.6235(10) 0.5644(11)
C35 C 0.8193(17) 0.4949(9) 0.4765(10)
H17 H 0.896934 0.477774 0.492539
C36 C 0.4960(17) 0.6457(9) 0.5397(10)
H18 H 0.464820 0.682498 0.577629
C39 C 0.9343(15) 0.6259(10) 0.7897(10)
H19 H 0.920621 0.569706 0.762115
C40 C 0.7844(18) 0.5512(10) 0.5341(11)
C41 C 0.1861(16) 0.4895(11) 0.0230(12)
C42 C 0.5633(19) 0.4515(11) 0.2894(11)
O21 O 0.7825(10) 0.0198(7) 0.8677(6)
O22 O 0.1728(12) 0.0353(6) 0.8261(7)
N4 N 0.5121(12) 0.2960(8) 0.9338(8)
O23 O 0.8689(11) 0.1440(6) 0.8877(6)
O25 O 0.3990(12) 0.2787(7) 0.8076(8)
C47 C 0.5048(16) 0.4589(9) 0.9878(11)
C49 C 0.4501(17) 0.3222(10) 0.8785(13)
C50 C 0.6364(17) 0.1925(10) 0.9020(10)
H23 H 0.714076 0.233191 0.917467
C52 C 0.5155(17) 0.2129(10) 0.9040(10)
C53 C 0.4005(17) 0.1523(10) 0.8783(10)
H24 H 0.318699 0.166684 0.880637
C54 C 0.4373(16) 0.4097(10) 0.9071(11)
C55 C 0.4042(17) 0.0726(10) 0.8499(10)
C56 C 0.2704(18) 0.0118(11) 0.8181(10)
C57 C 0.7714(18) 0.0913(11) 0.8758(9)
C58 C 0.6420(18) 0.1120(10) 0.8771(10)
C59 C 0.5248(16) 0.0534(10) 0.8512(10)
C60 C 0.3676(16) 0.4395(10) 0.8550(11)
H26 H 0.323481 0.406326 0.801656
O28 O 0.7875(11) 0.4329(7) 0.9346(6)
H27 H 0.830473 0.410063 0.960139
O33 O 0.0277(12) 0.4196(6) 0.3664(6)
O34 O 0.3602(11) 0.3058(7) 0.3004(7)
O35 O 0.7191(11) 0.4640(6) 0.6994(7)
H28 H 0.181706 0.013651 0.009951
N5 N 0.1908(13) 0.3621(7) 0.3326(8)
O37 O 0.3965(11) 0.5931(6) 0.7596(6)
O39 O 0.6765(11) 0.8106(6) 0.9366(7)
N6 N 0.5576(13) 0.5275(7) 0.7326(8)
C61 C 0.0072(15) 0.1175(11) 0.0896(10)
C62 C 0.4121(17) 0.4608(9) 0.5692(10)
C63 C 0.7791(15) 0.6397(10) 0.9704(10)
C64 C 0.3636(18) 0.5154(10) 0.6258(10)
C65 C 0.7251(16) 0.6859(10) 0.9317(10)
C67 C 0.0900(14) 0.2413(10) 0.2109(10)
H34 H 0.117849 0.209093 0.239141
C68 C 0.6532(15) 0.6486(10) 0.8534(10)
H35 H 0.617289 0.679923 0.826236
C70 C 0.6325(16) 0.5663(10) 0.8138(10)
C71 C 0.7538(15) 0.5571(10) 0.9305(10)
C72 C 0.612(2) 0.4773(10) 0.6789(11)
C73 C 0.141(2) 0.4116(10) 0.3870(11)
C74 C 0.5350(17) 0.4417(9) 0.5950(10)
C75 C 0.7438(19) 0.7750(11) 0.9699(12)
C77 C 0.314(2) 0.3456(11) 0.3496(12)
C78 C 0.0244(15) 0.2066(10) 0.1330(10)
C79 C 0.3378(18) 0.4302(9) 0.4904(11)
C80 C 0.2491(17) 0.5400(10) 0.6046(10)
H37 H 0.218483 0.577772 0.642001
C81 C 0.6791(15) 0.5186(10) 0.8513(9)
H38 H 0.661770 0.461967 0.824891
C82 C 0.5778(17) 0.3871(9) 0.5409(10)
H39 H 0.656515 0.371004 0.557014
C83 C 0.1159(15) 0.3246(10) 0.2490(10)
C84 C 0.3815(18) 0.3765(10) 0.4356(11)
C85 C 0.1807(17) 0.5051(9) 0.5235(10)
H40 H 0.103066 0.522226 0.507461
C86 C 0.5040(17) 0.3543(9) 0.4603(10)
H41 H 0.535180 0.317502 0.422371
C87 C 0.0657(15) 0.3741(10) 0.2103(10)
H42 H 0.079379 0.430294 0.237885
C88 C 0.2156(18) 0.4488(10) 0.4659(11)
C89 C 0.8139(16) 0.5105(11) 0.9770(12)
C90 C 0.4367(19) 0.5485(11) 0.7106(11)
O4 O 0.1645(12) 0.1896(6) 0.9637(7)
O5 O 0.1201(11) 0.4576(6) 0.9554(7)
H5 H 0.167363 0.335726 0.976692
O36 O 0.2113(10) 0.0384(6) 0.9815(6)
H29 H 0.250825 0.004334 0.953573
O31 O 0.9744(10) 0.0913(6) 0.0163(7)
O32 O 0.8953(11) 0.3535(6) 0.0145(7)
O38 O 0.9627(11) 0.4596(7) 0.1284(6)
H30 H 0.940737 0.484576 0.099098
C66 C 0.9970(15) 0.3380(10) 0.1319(10)
C69 C 0.9802(14) 0.2544(9) 0.0904(10)
H36 H 0.940080 0.230541 0.035186
C76 C 0.9455(15) 0.3839(11) 0.0855(12)
O40 O 0.9269(11) 0.0268(8) 0.7563(7)
H32 H 0.970715 0.036507 0.716885
H33 H 0.832554 0.000838 0.724986
O19 O 0.7198(10) 0.0605(6) 0.2160(7)
H20 H 0.471397 0.001585 0.166247
O26 O 0.2802(10) 0.9395(6) 0.7840(7)
H25 H 0.528603 0.998415 0.833753
N7 N 0.5910(19) 0.1830(18) 0.1431(13)
H43 H 0.529099 0.209264 0.129453
H44 H 0.556010 0.152121 0.166593
C91 C 0.607(2) 0.1282(12) 0.0699(14)
H45 H 0.520653 0.097962 0.033702
H46 H 0.658705 0.090722 0.081265
H47 H 0.653587 0.159032 0.045478
C92 C 0.700(2) 0.2424(12) 0.2019(14)
H48 H 0.749604 0.270741 0.177035
H49 H 0.756843 0.216399 0.228771
H50 H 0.666891 0.280778 0.240270
N7_2 N 0.4090(19) 0.8170(18) 0.8569(13)
H43_2 H 0.470901 0.790736 0.870547
H44_2 H 0.443990 0.847879 0.833407
C91_2 C 0.393(2) 0.8718(12) 0.9301(14)
H45_2 H 0.479347 0.902038 0.966298
H46_2 H 0.341295 0.909278 0.918735
H47_2 H 0.346413 0.840968 0.954522
C92_2 C 0.300(2) 0.7576(12) 0.7981(14)
H48_2 H 0.250396 0.729259 0.822965
H49_2 H 0.243157 0.783601 0.771229
H50_2 H 0.333109 0.719222 0.759730
loop_
_geom_bond_atom_site_label_1
_geom_bond_atom_site_label_2
_geom_bond_site_symmetry_1
_geom_bond_site_symmetry_2
H6 O20 1_555 1_555
H7 O20 1_555 1_555
O7 C22 1_555 1_555
O15 H4 1_555 1_555
C6 C12 1_555 1_555
C12 H11 1_555 1_555
C22 O15 1_555 1_555
C6 C22 1_555 1_555
O43 C38 1_555 1_555
O10 Eu1 1_555 1_555
O12 Eu1 1_555 1_555
H3 O12 1_555 1_555
N2 C13 1_555 1_555
O46 C38 1_555 1_555
O18 C13 1_555 1_555
C13 C30 1_555 1_555
C17 H12 1_555 1_555
C23 N2 1_555 1_555
C25 C23 1_555 1_555
H13 C25 1_555 1_555
C30 C8 1_555 1_555
C31 C25 1_555 1_555
C37 O10 1_555 1_555
C38 C43 1_555 1_555
C43 C17 1_555 1_555
C44 C31 1_555 1_555
C45 C30 1_555 1_555
H21 C45 1_555 1_555
O24 C51 1_555 1_555
C46 C45 1_555 1_555
H22 C46 1_555 1_555
C48 C46 1_555 1_555
O29 Eu1 1_555 1_555
C17 C23 1_555 1_555
C31 C37 1_555 1_555
C43 C44 1_555 1_555
C48 C51 1_555 1_555
O1 C1 1_555 1_555
O3 H1 1_555 1_555
O8 C19 1_555 1_555
O9 C24 1_555 1_555
O11 C16 1_555 1_555
N1 C19 1_555 1_555
O14 C42 1_555 1_555
O16 C21 1_555 1_555
O17 C18 1_555 1_555
N3 C14 1_555 1_555
C1 C26 1_555 1_555
C2 C4 1_555 1_555
C4 C28 1_555 1_555
C5 C3 1_555 1_555
C7 H8 1_555 1_555
C9 C7 1_555 1_555
C10 H9 1_555 1_555
C11 C5 1_555 1_555
H10 C11 1_555 1_555
C14 C11 1_555 1_555
C15 C3 1_555 1_555
C16 N3 1_555 1_555
C19 C40 1_555 1_555
C20 C2 1_555 1_555
C21 C5 1_555 1_555
C24 N1 1_555 1_555
C26 C10 1_555 1_555
C27 C2 1_555 1_555
C28 H14 1_555 1_555
C29 C14 1_555 1_555
H15 C29 1_555 1_555
C32 C20 1_555 1_555
H16 C32 1_555 1_555
C33 N1 1_555 1_555
C34 C24 1_555 1_555
C35 C28 1_555 1_555
H17 C35 1_555 1_555
C36 C32 1_555 1_555
H18 C36 1_555 1_555
H19 C39 1_555 1_555
C40 C27 1_555 1_555
C41 O3 1_555 1_555
C42 N3 1_555 1_555
O21 C57 1_555 1_555
O22 C56 1_555 1_555
N4 C49 1_555 1_555
O23 C57 1_555 1_555
O25 C49 1_555 1_555
C49 C54 1_555 1_555
C50 H23 1_555 1_555
C52 N4 1_555 1_555
C53 C52 1_555 1_555
H24 C53 1_555 1_555
C54 C47 1_555 1_555
C55 C53 1_555 1_555
C56 C55 1_555 1_555
C57 C58 1_555 1_555
C58 C50 1_555 1_555
C59 C55 1_555 1_555
C60 C7 1_555 1_555
H26 C60 1_555 1_555
O42 C61 1_555 1_555
O28 H27 1_555 1_555
O33 C73 1_555 1_555
O34 C77 1_555 1_555
O35 C72 1_555 1_555
N5 C73 1_555 1_555
O37 C90 1_555 1_555
O39 C75 1_555 1_555
N6 C70 1_555 1_555
C62 C64 1_555 1_555
C64 C80 1_555 1_555
C65 C63 1_555 1_555
C67 H34 1_555 1_555
C68 C65 1_555 1_555
H35 C68 1_555 1_555
C70 C68 1_555 1_555
C71 C63 1_555 1_555
C72 N6 1_555 1_555
C73 C88 1_555 1_555
C74 C62 1_555 1_555
C77 N5 1_555 1_555
C78 C61 1_555 1_555
C79 C62 1_555 1_555
C80 H37 1_555 1_555
C81 C70 1_555 1_555
H38 C81 1_555 1_555
C82 C74 1_555 1_555
H39 C82 1_555 1_555
C83 N5 1_555 1_555
C84 C77 1_555 1_555
C85 C80 1_555 1_555
H40 C85 1_555 1_555
C86 C82 1_555 1_555
H41 C86 1_555 1_555
H42 C87 1_555 1_555
C88 C79 1_555 1_555
C89 O28 1_555 1_555
C90 N6 1_555 1_555
Eu7 O22 1_555 1_555
C4 C42 1_555 1_555
C9 C18 1_555 1_555
C10 C33 1_555 1_555
C15 C29 1_555 1_555
C15 C41 1_555 1_555
C16 C20 1_555 1_555
C27 C34 1_555 1_555
C33 C39 1_555 1_555
C34 C36 1_555 1_555
C35 C40 1_555 1_555
C50 C52 1_555 1_555
C54 C60 1_555 1_555
C58 C59 1_555 1_555
C64 C90 1_555 1_555
C65 C75 1_555 1_555
C67 C78 1_555 1_555
C67 C83 1_555 1_555
C71 C81 1_555 1_555
C71 C89 1_555 1_555
C72 C74 1_555 1_555
C79 C84 1_555 1_555
C83 C87 1_555 1_555
C84 C86 1_555 1_555
C85 C88 1_555 1_555
Eu7 O4 1_555 1_555
O36 Eu7 1_555 1_555
H29 O36 1_555 1_555
O32 C76 1_555 1_555
O38 H30 1_555 1_555
C66 C69 1_555 1_555
C69 H36 1_555 1_555
C76 O38 1_555 1_555
C66 C76 1_555 1_555
H32 O40 1_555 1_555
H33 O40 1_555 1_555
N7 H43 1_555 1_555
H44 N7 1_555 1_555
C91 N7 1_555 1_555
H45 C91 1_555 1_555
H46 C91 1_555 1_555
H47 C91 1_555 1_555
C92 N7 1_555 1_555
H48 C92 1_555 1_555
H49 C92 1_555 1_555
H50 C92 1_555 1_555
N7_2 H43_2 1_555 1_555
H44_2 N7_2 1_555 1_555
C91_2 N7_2 1_555 1_555
H45_2 C91_2 1_555 1_555
H46_2 C91_2 1_555 1_555
H47_2 C91_2 1_555 1_555
C92_2 N7_2 1_555 1_555
H48_2 C92_2 1_555 1_555
H49_2 C92_2 1_555 1_555
H50_2 C92_2 1_555 1_555

#END
