
###############################################################################
#
# This file contains modified crystal structure data generated from the
# MOF subset of the Cambridge Structural Database (CSD) v543 
# hosted by the Cambridge Crystallographic Data Centre (CCDC).
#
# This work is licensed under the Creative Commons
# Attribution-NonCommercial-ShareAlike 4.0 International License.
# To view a copy of this license, visit
# http://creativecommons.org/licenses/by-nc-sa/4.0/
# or send a letter to
# Creative Commons, PO Box 1866, Mountain View, CA 94042, USA.
#
# CIF created using the CSD Python API on 29 September 2022
# The structure has been converted into the P1 space group
# The structure has a 3D framework
# The original CSD entry TIHRUA is in the triclinic crystal system
# The framework has been calculated to contain at least 10.0% void space
# The void calculation uses a probe of radius 1.32A, grid spacing 0.4
# The framework is charged, counterions have been retained in the structure
# H atom positions have been added when not included in the experimental data
#
###############################################################################

data_TIHRUA
_chemical_formula_moiety         '(C106 H84 N12 O40 Tb2)n'
_symmetry_cell_setting           triclinic
_symmetry_space_group_name_H-M   'P 1'
_symmetry_Int_Tables_number      1
_space_group_name_Hall           'P 1'
loop_
_symmetry_equiv_pos_site_id
_symmetry_equiv_pos_as_xyz
1 x,y,z
_cell_length_a                   10.6566(3)
_cell_length_b                   18.1300(5)
_cell_length_c                   19.5006(5)
_cell_angle_alpha                65.601(2)
_cell_angle_beta                 74.964(2)
_cell_angle_gamma                81.317(2)
_cell_volume                     3309.53
loop_
_atom_site_label
_atom_site_type_symbol
_atom_site_fract_x
_atom_site_fract_y
_atom_site_fract_z
Tb8 Tb 0.10721(3) 0.44122(2) 0.89259(2)
O48 O 0.0417(4) 0.5871(2) 0.98827(19)
O28 O 0.1850(4) 0.3094(2) 0.96670(19)
O39 O 0.1704(4) 0.0392(2) 0.9582(2)
H30 H 0.192271 0.162704 0.979772
C4 C 0.5107(5) 0.0418(3) 0.9866(3)
O22 O 0.9501(4) 0.3590(2) 0.8905(2)
O24 O 0.3110(4) 0.4771(2) 0.8202(2)
O25 O 0.5582(5) 0.2228(2) 0.8119(2)
O26 O 0.8754(4) 0.4843(2) 0.8726(2)
N6 N 0.5550(4) 0.2073(2) 0.9340(2)
O27 O 0.4544(4) 0.5704(2) 0.7824(3)
C54 C 0.5194(5) 0.0913(3) 0.9075(3)
C55 C 0.5831(5) 0.2925(3) 0.9052(3)
C56 C 0.7025(5) 0.3119(3) 0.9052(3)
H19 H 0.764388 0.271019 0.923152
C57 C 0.6381(5) 0.4531(3) 0.8497(3)
H20 H 0.656724 0.507335 0.830745
C60 C 0.7307(6) 0.3929(3) 0.8781(3)
C61 C 0.5193(5) 0.4328(3) 0.8493(3)
C62 C 0.5086(5) 0.0582(3) 0.8575(3)
H22 H 0.517093 0.090984 0.805301
C63 C 0.5449(6) 0.1779(3) 0.8787(3)
C64 C 0.4903(6) 0.3521(3) 0.8781(3)
H23 H 0.409124 0.338317 0.879074
C65 C 0.4209(6) 0.4986(3) 0.8153(3)
C66 C 0.8597(6) 0.4146(3) 0.8797(3)
O29 O 0.1580(4) 0.9283(2) 0.0677(2)
O30 O 0.2259(4) 0.4619(2) 0.9770(2)
O31 O 0.0703(4) 0.5777(2) 0.87517(19)
O33 O 0.1661(4) 0.9571(2) 0.8769(2)
O34 O 0.1244(4) 0.8507(2) 0.9887(2)
O37 O 0.3308(4) 0.9079(3) 0.6529(2)
N8 N 0.1317(4) 0.8602(2) 0.6740(2)
C67 C 0.0923(5) 0.7059(3) 0.8746(3)
C68 C 0.1397(5) 0.8822(3) 0.9173(3)
C69 C 0.1289(5) 0.8331(3) 0.8742(3)
C72 C 0.1043(5) 0.7510(3) 0.9149(3)
H27 H 0.096156 0.727008 0.968057
C75 C 0.1258(5) 0.8233(3) 0.7559(3)
C76 C 0.2437(5) 0.9459(3) 0.5429(3)
C77 C 0.0684(5) 0.9418(3) 0.4028(3)
C79 C 0.0317(5) 0.8461(3) 0.6472(3)
C80 C 0.0761(5) 0.9761(3) 0.3187(3)
C81 C 0.1501(5) 0.9274(3) 0.5130(3)
C83 C 0.1055(5) 0.7417(3) 0.7946(3)
H28 H 0.100506 0.710555 0.767706
C84 C 0.1601(5) 0.9611(3) 0.4323(3)
H29 H 0.175093 0.960636 0.175292
C88 C 0.1379(5) 0.8706(3) 0.7945(3)
H31 H 0.151686 0.925678 0.768065
C90 C 0.0466(5) 0.8775(3) 0.5627(3)
C92 C 0.0653(5) 0.6161(3) 0.9165(3)
C95 C 0.3373(6) 0.9994(3) 0.4948(3)
C96 C 0.2419(6) 0.9049(3) 0.6258(3)
O41 O 0.2032(8) 0.3554(5) 0.8077(4)
C97 C 0.0677(16) 0.4965(10) 0.7063(10)
O42 O 0.0979(7) 0.5008(6) 0.7577(3)
N9 N 0.2194(11) 0.2427(7) 0.7804(6)
C98 C 0.141(2) 0.1745(12) 0.7905(12)
N10 N 0.0300(15) 0.5548(10) 0.6361(9)
C99 C 0.3217(18) 0.2790(12) 0.7071(10)
C100 C 0.0042(18) 0.6438(11) 0.6209(11)
C101 C 0.1595(12) 0.2838(7) 0.8248(7)
C102 C 0.041(4) 0.524(2) 0.5741(19)
H36 H 0.154(10) 0.905(6) 0.035(5)
H61 H 0.06766 0.434113 0.712145
H62 H 0.276034 0.304141 0.657705
H63 H 0.367687 0.326917 0.710205
H64 H 0.394907 0.232032 0.700707
H65 H 0.0915104 0.6686 0.620399
H68 H 0.206325 0.122973 0.787743
H69 H 0.0728151 0.156376 0.846283
H70 H 0.0874527 0.195082 0.744741
H71 H 0.0780071 0.259063 0.873064
H73 H 0.0105395 0.572288 0.52446
H74 H 0.14157 0.504307 0.556844
O35 O 0.9976(4) 0.9625(2) 0.2911(2)
O36 O 0.9360(4) 0.8120(3) 0.6916(2)
C89 C 0.9682(6) 0.8921(3) 0.4519(3)
H32 H 0.907733 0.880033 0.431646
C93 C 0.9574(6) 0.8598(3) 0.5317(3)
H33 H 0.889935 0.826336 0.564181
H66 H 0.977578 0.675834 0.565217
H67 H 0.924906 0.65115 0.666122
H72 H 0.978873 0.473052 0.596002
O11 O 0.0024(4) 0.0375(2) 0.7089(2)
O12 O 0.0640(4) 0.1880(3) 0.3084(2)
C32 C 0.0318(6) 0.1079(3) 0.5481(3)
H12 H 0.092267 0.119967 0.568354
C41 C 0.0426(6) 0.1402(3) 0.4683(3)
H15 H 0.110065 0.173664 0.435819
O45 O 0.0499(4) 0.6410(2) 0.1095(2)
O49 O 0.1246(4) 0.5157(2) 0.1274(2)
H52 H 0.0750942 0.34885 0.333878
H53 H 0.0224223 0.324166 0.434783
H58 H 0.0211267 0.526948 0.403998
Tb1 Tb 0.89279(3) 0.55878(2) 0.10741(2)
O3 O 0.8420(4) 0.0717(2) 0.9323(2)
O4 O 0.7741(4) 0.5381(2) 0.0230(2)
O5 O 0.9297(4) 0.4223(2) 0.12483(19)
O6 O 0.9583(4) 0.4129(2) 0.01173(19)
O8 O 0.8339(4) 0.0429(2) 0.1231(2)
O9 O 0.8756(4) 0.1493(2) 0.0113(2)
O10 O 0.6890(4) 0.5229(2) 0.1798(2)
O13 O 0.6692(4) 0.0921(3) 0.3471(2)
N2 N 0.8683(4) 0.1398(2) 0.3260(2)
O17 O 0.4418(5) 0.7772(2) 0.1881(2)
N3 N 0.4450(4) 0.7927(2) 0.0660(2)
O19 O 0.5456(4) 0.4296(2) 0.2176(3)
C1 C 0.9077(5) 0.2941(3) 0.1254(3)
C2 C 0.8603(5) 0.1178(3) 0.0827(3)
C3 C 0.8711(5) 0.1669(3) 0.1258(3)
C8 C 0.4806(5) 0.9087(3) 0.0925(3)
C9 C 0.8957(5) 0.2490(3) 0.0851(3)
H4 H 0.903844 0.272992 0.031943
C12 C 0.4169(5) 0.7075(3) 0.0948(3)
C13 C 0.8742(5) 0.1767(3) 0.2441(3)
C14 C 0.7563(5) 0.0541(3) 0.4571(3)
C15 C 0.9316(5) 0.0582(3) 0.5972(3)
C17 C 0.9683(5) 0.1539(3) 0.3528(3)
C18 C 0.9239(5) 0.0239(3) 0.6813(3)
C19 C 0.8499(5) 0.0726(3) 0.4870(3)
C20 C 0.2975(5) 0.6881(3) 0.0948(3)
H5 H 0.235612 0.728981 0.076848
C22 C 0.3619(5) 0.5469(3) 0.1503(3)
H6 H 0.343276 0.492665 0.169255
C23 C 0.8945(5) 0.2583(3) 0.2054(3)
H7 H 0.899494 0.289445 0.232294
C24 C 0.8399(5) 0.0389(3) 0.5677(3)
H8 H 0.824907 0.039364 0.824708
C30 C 0.8621(5) 0.1294(3) 0.2055(3)
H11 H 0.848314 0.074322 0.231935
C31 C 0.2693(6) 0.6071(3) 0.1219(3)
C33 C 0.9534(5) 0.1225(3) 0.4373(3)
C34 C 0.4807(5) 0.5672(3) 0.1507(3)
C35 C 0.4914(5) 0.9418(3) 0.1425(3)
H13 H 0.482907 0.909016 0.194699
C36 C 0.4551(6) 0.8221(3) 0.1213(3)
C37 C 0.5097(6) 0.6479(3) 0.1219(3)
H14 H 0.590876 0.661683 0.120926
C39 C 0.9347(5) 0.3839(3) 0.0835(3)
C40 C 0.5791(6) 0.5014(3) 0.1847(3)
C42 C 0.1403(6) 0.5854(3) 0.1203(3)
C44 C 0.6627(6) 0.0006(3) 0.5052(3)
C45 C 0.7581(6) 0.0951(3) 0.3742(3)
O20 O 0.7968(8) 0.6446(5) 0.1923(4)
C46 C 0.9323(16) 0.5035(10) 0.2937(10)
O21 O 0.9021(7) 0.4992(6) 0.2423(3)
N4 N 0.7806(11) 0.7573(7) 0.2196(6)
C47 C 0.859(2) 0.8255(12) 0.2095(12)
N5 N 0.9700(15) 0.4452(10) 0.3639(9)
C48 C 0.6783(18) 0.7210(12) 0.2929(10)
C49 C 0.9958(18) 0.3562(11) 0.3791(11)
C50 C 0.8405(12) 0.7162(7) 0.1752(7)
C51 C 0.959(4) 0.476(2) 0.4259(19)
H18 H 0.846(10) 0.095(6) 0.965(5)
C52 C 0.4893(5) 0.9582(3) 0.0134(3)
O43 O 0.8150(4) 0.6906(2) 0.03330(19)
H46 H 0.912547 0.804918 0.255259
H47 H 0.927185 0.843624 0.153717
H48 H 0.793675 0.877027 0.212257
H49 H 0.605093 0.767968 0.299293
H50 H 0.632313 0.673083 0.289795
H51 H 0.723966 0.695859 0.342295
H54 H 0.90849 0.3314 0.379601
H55 H 0.921993 0.740937 0.126936
H56 H 0.85843 0.495693 0.443156
H57 H 0.98946 0.427712 0.47554
H59 H 0.93234 0.565887 0.287855
O15 O 0.8296(4) 0.9608(2) 0.0418(2)
H10 H 0.807729 0.837296 0.020228
O38 O 0.2573(4) 0.3084(2) 0.0652(2)
O40 O 0.3682(4) 0.0837(2) 0.2547(2)
N7 N 0.1807(4) 0.0260(2) 0.2716(2)
C70 C 0.1996(5) 0.1469(3) 0.1510(3)
H26 H 0.204546 0.177881 0.178095
C71 C 0.2047(5) 0.1839(3) 0.0721(3)
C73 C 0.1872(5) 0.0635(3) 0.1894(3)
C74 C 0.1690(5) 0.0051(3) 0.0285(3)
C78 C 0.2764(5) 0.0441(3) 0.2994(3)
C82 C 0.1831(5) 0.0543(3) 0.0709(3)
C85 C 0.1808(5) 0.0165(3) 0.1498(3)
C86 C 0.1932(5) 0.1379(3) 0.0320(3)
C87 C 0.2614(5) 0.0129(3) 0.3836(3)
C91 C 0.2163(5) 0.2752(3) 0.0309(3)
C94 C 0.3461(6) 0.0327(3) 0.4145(3)
H34 H 0.410521 0.068696 0.382028
H35 H 0.395159 0.013810 0.515097
C6 C 0.5228(5) 0.0740(3) 0.0397(3)
C27 C 0.5146(5) 0.0233(3) 0.1166(3)
H9 H 0.524862 0.044002 0.151109
O23 O 0.5544(4) 0.1912(2) 0.0558(2)
C58 C 0.5445(5) 0.1607(3) 0.0129(3)
H24 H 0.176294 0.489505 0.004502
H25 H 0.244157 0.414552 0.014317
H60 H 0.0509169 0.879629 0.0121662
H45 H 0.205119 0.854485 0.00326793
H1 H 0.823706 0.510495 0.995498
H2 H 0.755843 0.585448 0.985683
O7 O 0.4456(4) 0.8088(2) 0.9442(2)
C26 C 0.4555(5) 0.8393(3) 0.9871(3)
C53 C 0.4772(5) 0.9260(3) 0.9603(3)
C59 C 0.4854(5) 0.9767(3) 0.8834(3)
H21 H 0.475138 0.955998 0.848891
H45_2 H 0.794881 0.145515 0.996732
H60_2 H 0.949083 0.120371 0.987834
O14 O 0.7427(4) 0.6916(2) 0.9348(2)
O16 O 0.6318(4) 0.9163(2) 0.7453(2)
N1 N 0.8193(4) 0.9740(2) 0.7284(2)
C5 C 0.8004(5) 0.8531(3) 0.8490(3)
H3 H 0.795454 0.822119 0.821905
C7 C 0.7953(5) 0.8161(3) 0.9279(3)
C10 C 0.8128(5) 0.9365(3) 0.8106(3)
C11 C 0.8310(5) 0.9949(3) 0.9715(3)
C16 C 0.7236(5) 0.9559(3) 0.7006(3)
C21 C 0.8169(5) 0.9457(3) 0.9291(3)
C25 C 0.8192(5) 0.9835(3) 0.8502(3)
C28 C 0.8068(5) 0.8621(3) 0.9680(3)
C29 C 0.7386(5) 0.9871(3) 0.6164(3)
C38 C 0.7837(5) 0.7248(3) 0.9691(3)
C43 C 0.6539(6) 0.9673(3) 0.5855(3)
H16 H 0.589479 0.931304 0.617972
H17 H 0.604841 0.986190 0.484903
C103 C 0.5320(8) 0.3714(4) 0.0732(4)
H37 H 0.479181 0.398578 0.035839
H38 H 0.607689 0.345898 0.051075
H39 H 0.558328 0.410146 0.087860
N11 N 0.4589(7) 0.3114(5) 0.1396(4)
H40 H 0.397420 0.337129 0.163439
H41 H 0.418629 0.284292 0.123190
C104 C 0.5252(8) 0.2534(4) 0.1957(4)
H42 H 0.587239 0.221412 0.172514
H43 H 0.463469 0.218603 0.237774
H44 H 0.569605 0.280929 0.214475
C103_2 C 0.4680(8) 0.6286(4) 0.9268(4)
H37_2 H 0.520819 0.601422 0.964161
H38_2 H 0.392311 0.654102 0.948925
H39_2 H 0.441672 0.589854 0.912140
N11_2 N 0.5411(7) 0.6886(5) 0.8604(4)
H40_2 H 0.602580 0.662871 0.836561
H41_2 H 0.581371 0.715708 0.876810
C104_2 C 0.4748(8) 0.7466(4) 0.8043(4)
H42_2 H 0.412761 0.778588 0.827486
H43_2 H 0.536531 0.781397 0.762226
H44_2 H 0.430395 0.719071 0.785525
loop_
_geom_bond_atom_site_label_1
_geom_bond_atom_site_label_2
_geom_bond_site_symmetry_1
_geom_bond_site_symmetry_2
Tb8 O28 1_555 1_555
O22 C66 1_555 1_555
O24 C65 1_555 1_555
O25 C63 1_555 1_555
O26 C66 1_555 1_555
N6 C55 1_555 1_555
O27 C65 1_555 1_555
C54 C4 1_555 1_555
C55 C56 1_555 1_555
C56 H19 1_555 1_555
C57 H20 1_555 1_555
C60 C56 1_555 1_555
C61 C57 1_555 1_555
C62 C54 1_555 1_555
H22 C62 1_555 1_555
C63 N6 1_555 1_555
C64 C55 1_555 1_555
H23 C64 1_555 1_555
C65 C61 1_555 1_555
C66 C60 1_555 1_555
Tb8 O24 1_555 1_555
O30 Tb8 1_555 1_555
O31 Tb8 1_555 1_555
O48 C92 1_555 1_555
O33 C68 1_555 1_555
O34 C68 1_555 1_555
O37 C96 1_555 1_555
N8 C75 1_555 1_555
C67 C72 1_555 1_555
C68 C69 1_555 1_555
C69 C72 1_555 1_555
C72 H27 1_555 1_555
C75 C83 1_555 1_555
C76 C81 1_555 1_555
C77 C80 1_555 1_555
C79 N8 1_555 1_555
C81 C84 1_555 1_555
C83 C67 1_555 1_555
H28 C83 1_555 1_555
C84 C77 1_555 1_555
C88 C69 1_555 1_555
H31 C88 1_555 1_555
C90 C79 1_555 1_555
C92 O31 1_555 1_555
C95 C76 1_555 1_555
C96 N8 1_555 1_555
O41 Tb8 1_555 1_555
C97 O42 1_555 1_555
O42 Tb8 1_555 1_555
N9 C98 1_555 1_555
N10 C97 1_555 1_555
C99 N9 1_555 1_555
C100 N10 1_555 1_555
C101 O41 1_555 1_555
C102 N10 1_555 1_555
H36 O29 1_555 1_555
C54 C63 1_555 1_555
C57 C60 1_555 1_555
C61 C64 1_555 1_555
C67 C92 1_555 1_555
C75 C88 1_555 1_555
C76 C96 1_555 1_555
C81 C90 1_555 1_555
N9 C101 1_555 1_555
C97 H61 1_555 1_555
C99 H62 1_555 1_555
C99 H63 1_555 1_555
C99 H64 1_555 1_555
C100 H65 1_555 1_555
C98 H68 1_555 1_555
C98 H69 1_555 1_555
C98 H70 1_555 1_555
C101 H71 1_555 1_555
C102 H73 1_555 1_555
C102 H74 1_555 1_555
H32 C89 1_555 1_555
C93 C89 1_555 1_555
H33 C93 1_555 1_555
H12 C32 1_555 1_555
C41 C32 1_555 1_555
H15 C41 1_555 1_555
Tb1 O4 1_555 1_555
O45 C42 1_555 1_555
O5 Tb1 1_555 1_555
O6 C39 1_555 1_555
O8 C2 1_555 1_555
O9 C2 1_555 1_555
O10 Tb1 1_555 1_555
O13 C45 1_555 1_555
N2 C13 1_555 1_555
O17 C36 1_555 1_555
O49 C42 1_555 1_555
N3 C12 1_555 1_555
O19 C40 1_555 1_555
C1 C9 1_555 1_555
C2 C3 1_555 1_555
C3 C9 1_555 1_555
C8 C35 1_555 1_555
C9 H4 1_555 1_555
C12 C20 1_555 1_555
C13 C23 1_555 1_555
C14 C19 1_555 1_555
C15 C18 1_555 1_555
C17 N2 1_555 1_555
C19 C24 1_555 1_555
C20 H5 1_555 1_555
C22 H6 1_555 1_555
C23 C1 1_555 1_555
H7 C23 1_555 1_555
C24 C15 1_555 1_555
C30 C3 1_555 1_555
H11 C30 1_555 1_555
C31 C20 1_555 1_555
C33 C17 1_555 1_555
C34 C22 1_555 1_555
H13 C35 1_555 1_555
C36 N3 1_555 1_555
C37 C12 1_555 1_555
H14 C37 1_555 1_555
C39 O5 1_555 1_555
C40 O10 1_555 1_555
C42 C31 1_555 1_555
C44 C14 1_555 1_555
C45 N2 1_555 1_555
O20 Tb1 1_555 1_555
C46 O21 1_555 1_555
O21 Tb1 1_555 1_555
N4 C47 1_555 1_555
N5 C46 1_555 1_555
C48 N4 1_555 1_555
C49 N5 1_555 1_555
C50 O20 1_555 1_555
C51 N5 1_555 1_555
H18 O3 1_555 1_555
O43 Tb1 1_555 1_555
C1 C39 1_555 1_555
C8 C36 1_555 1_555
C8 C52 1_555 1_555
C13 C30 1_555 1_555
C14 C45 1_555 1_555
C19 C33 1_555 1_555
C22 C31 1_555 1_555
C34 C37 1_555 1_555
C34 C40 1_555 1_555
N4 C50 1_555 1_555
C47 H46 1_555 1_555
C47 H47 1_555 1_555
C47 H48 1_555 1_555
C48 H49 1_555 1_555
C48 H50 1_555 1_555
C48 H51 1_555 1_555
C49 H54 1_555 1_555
C50 H55 1_555 1_555
C51 H56 1_555 1_555
C51 H57 1_555 1_555
C46 H59 1_555 1_555
O38 C91 1_555 1_555
O40 C78 1_555 1_555
N7 C73 1_555 1_555
C70 H26 1_555 1_555
C71 C70 1_555 1_555
C73 C70 1_555 1_555
C74 C82 1_555 1_555
C78 N7 1_555 1_555
C82 C85 1_555 1_555
C85 C73 1_555 1_555
C86 C71 1_555 1_555
C87 C78 1_555 1_555
C91 C71 1_555 1_555
C94 C87 1_555 1_555
H34 C94 1_555 1_555
C82 C86 1_555 1_555
C6 C27 1_555 1_555
C27 H9 1_555 1_555
O23 C58 1_555 1_555
C58 C6 1_555 1_555
O7 C26 1_555 1_555
C53 C26 1_555 1_555
C59 C53 1_555 1_555
H21 C59 1_555 1_555
O14 C38 1_555 1_555
O16 C16 1_555 1_555
N1 C10 1_555 1_555
C5 H3 1_555 1_555
C7 C5 1_555 1_555
C10 C5 1_555 1_555
C11 C21 1_555 1_555
C16 N1 1_555 1_555
C21 C25 1_555 1_555
C25 C10 1_555 1_555
C28 C7 1_555 1_555
C29 C16 1_555 1_555
C38 C7 1_555 1_555
C43 C29 1_555 1_555
H16 C43 1_555 1_555
C21 C28 1_555 1_555
C103 H37 1_555 1_555
H38 C103 1_555 1_555
H39 C103 1_555 1_555
N11 C103 1_555 1_555
H40 N11 1_555 1_555
H41 N11 1_555 1_555
C104 N11 1_555 1_555
H42 C104 1_555 1_555
H43 C104 1_555 1_555
H44 C104 1_555 1_555
C103_2 H37_2 1_555 1_555
H38_2 C103_2 1_555 1_555
H39_2 C103_2 1_555 1_555
N11_2 C103_2 1_555 1_555
H40_2 N11_2 1_555 1_555
H41_2 N11_2 1_555 1_555
C104_2 N11_2 1_555 1_555
H42_2 C104_2 1_555 1_555
H43_2 C104_2 1_555 1_555
H44_2 C104_2 1_555 1_555

#END
