
###############################################################################
#
# This file contains modified crystal structure data generated from the
# MOF subset of the Cambridge Structural Database (CSD) v543 
# hosted by the Cambridge Crystallographic Data Centre (CCDC).
#
# This work is licensed under the Creative Commons
# Attribution-NonCommercial-ShareAlike 4.0 International License.
# To view a copy of this license, visit
# http://creativecommons.org/licenses/by-nc-sa/4.0/
# or send a letter to
# Creative Commons, PO Box 1866, Mountain View, CA 94042, USA.
#
# CIF created using the CSD Python API on 29 September 2022
# The structure has been converted into the P1 space group
# The structure has a 3D framework
# The original CSD entry TIJPOT is in the monoclinic crystal system
# The framework has been calculated to contain at least 10.0% void space
# The void calculation uses a probe of radius 1.32A, grid spacing 0.4
#
###############################################################################

data_TIJPOT
_chemical_formula_moiety         '(C56 H62 Cu9 F24 N16 O37 Si4)n'
_symmetry_cell_setting           triclinic
_symmetry_space_group_name_H-M   'P 1'
_symmetry_Int_Tables_number      1
_space_group_name_Hall           'P 1'
loop_
_symmetry_equiv_pos_site_id
_symmetry_equiv_pos_as_xyz
1 x,y,z
_cell_length_a                   12.4176(2)
_cell_length_b                   22.5346(3)
_cell_length_c                   10.1644(2)
_cell_angle_alpha                90
_cell_angle_beta                 107.054(2)
_cell_angle_gamma                90
_cell_volume                     2719.19
loop_
_atom_site_label
_atom_site_type_symbol
_atom_site_fract_x
_atom_site_fract_y
_atom_site_fract_z
C3 C 0.0399(3) 0.74712(17) 0.0415(4)
C4 C 0.2169(4) 0.7700(2) 0.0638(5)
H4 H 0.2884 0.7721 0.0476
C5 C 0.1877(4) 0.7953(2) 0.1683(5)
H5 H 0.2348 0.8191 0.2394
C6 C 0.0112(4) 0.79910(18) 0.2441(5)
H6 H 0.0601 0.7974 0.3405
C14 C 0.0921(3) 0.51418(16) 0.2218(4)
N2 N 0.0773(3) 0.78048(14) 0.1532(3)
H15 H 0.384(4) 0.5795(11) 0.028(5)
O4 O 0.1728(2) 0.62125(12) 0.0025(3)
O9 O 0.0812(2) 0.52689(13) 0.0979(3)
O10 O 0.1835(2) 0.50755(13) 0.3138(3)
Cu1 Cu 0.42268(4) 0.46962(2) 0.06485(5)
Cu3 Cu 0.21609(4) 0.53871(2) 0.04069(5)
O12 O 0.2758(2) 0.45916(12) 0.1011(3)
O13 O 0.4723(3) 0.38844(12) 0.1135(3)
O14 O 0.5578(2) 0.48169(13) 0.0096(3)
O16 O 0.4612(2) 0.50722(13) 0.2869(3)
Cu9 Cu 0.31085(5) 0.44701(2) 0.29600(6)
Cu12 Cu 0.21609(4) 0.46129(2) 0.54069(5)
C1 C 0.1578(3) 0.64303(17) 0.8840(5)
C2 C 0.1161(4) 0.70667(18) 0.8590(5)
H1 H 0.1610 0.7276 0.8073
H2 H 0.0368 0.7062 0.8005
N1 N 0.1227(3) 0.74027(14) 0.9845(4)
O2 O 0.3559(2) 0.54702(12) 0.9935(3)
O3 O 0.2758(2) 0.54084(12) 0.6011(3)
H16 H 0.225(3) 0.5654(17) 0.564(5)
O5 O 0.1682(3) 0.61713(13) 0.7804(3)
Cu2 Cu 0.31085(5) 0.55299(2) 0.79600(6)
O11 O 0.4121(3) 0.62204(13) 0.8016(3)
O15 O 0.4612(2) 0.49278(13) 0.7869(3)
O17 O 0.1835(2) 0.49245(13) 0.8138(3)
Cu6 Cu 0.42268(4) 0.53038(2) 0.56485(5)
H3 H 0.9663 0.7309 0.0080
H7 H 0.9492 0.7704 0.2351
C7 C 0.9613(3) 0.86091(17) 0.2161(4)
C11 C 0.8957(4) 0.42639(19) 0.0916(5)
H11 H 0.9469 0.3953 0.1302
C12 C 0.8120(4) 0.51405(17) 0.0603(5)
H12 H 0.7935 0.5542 0.0726
C13 C 0.9830(4) 0.5077(2) 0.2603(4)
H13 H 0.9954 0.4813 0.3411
H14 H 0.9590 0.5470 0.2850
N4 N 0.8953(3) 0.48298(15) 0.1443(3)
O1 O 0.9121(3) 0.87796(13) 0.3016(3)
O6 O 0.9723(3) 0.88844(12) 0.1135(3)
Cu7 Cu 0.92268(4) 0.96962(2) 0.06485(5)
Cu10 Cu 0.81085(5) 0.94701(2) 0.29600(6)
C8 C 0.5498(3) 0.48951(17) 0.8841(4)
C9 C 0.6592(3) 0.4970(2) 0.8459(5)
H8 H 0.6547 0.4730 0.7627
H9 H 0.6673 0.5391 0.8228
C10 C 0.8090(4) 0.42393(18) 0.9746(4)
H10 H 0.7867 0.3904 0.9163
N3 N 0.7590(3) 0.47900(16) 0.9558(4)
C1_2 C 0.1578(3) 0.35697(17) 0.3840(5)
C2_2 C 0.1161(4) 0.29333(18) 0.3590(5)
H1_2 H 0.1610 0.2724 0.3073
H2_2 H 0.0368 0.2938 0.3005
C3_2 C 0.0399(3) 0.25288(17) 0.5415(4)
C4_2 C 0.2169(4) 0.2300(2) 0.5638(5)
H4_2 H 0.2884 0.2279 0.5476
C5_2 C 0.1877(4) 0.2047(2) 0.6683(5)
H5_2 H 0.2348 0.1809 0.7394
C6_2 C 0.0112(4) 0.20090(18) 0.7441(5)
H6_2 H 0.0601 0.2026 0.8405
C14_2 C 0.0921(3) 0.48582(16) 0.7218(4)
N1_2 N 0.1227(3) 0.25973(14) 0.4845(4)
N2_2 N 0.0773(3) 0.21952(14) 0.6532(3)
O2_2 O 0.3559(2) 0.45298(12) 0.4935(3)
H15_2 H 0.384(4) 0.4205(11) 0.528(5)
H16_2 H 0.225(3) 0.4346(17) 0.064(5)
O4_2 O 0.1728(2) 0.37875(12) 0.5025(3)
O5_2 O 0.1682(3) 0.38287(13) 0.2804(3)
O9_2 O 0.0812(2) 0.47311(13) 0.5979(3)
O11_2 O 0.4121(3) 0.37796(13) 0.3016(3)
O13_2 O 0.4723(3) 0.61156(12) 0.6135(3)
O14_2 O 0.5578(2) 0.51831(13) 0.5096(3)
H3_2 H 0.9663 0.2691 0.5080
H7_2 H 0.9492 0.2296 0.7351
C7_2 C 0.9613(3) 0.13909(17) 0.7161(4)
C8_2 C 0.5498(3) 0.51049(17) 0.3841(4)
C9_2 C 0.6592(3) 0.5030(2) 0.3459(5)
H8_2 H 0.6547 0.5270 0.2627
H9_2 H 0.6673 0.4609 0.3228
C10_2 C 0.8090(4) 0.57607(18) 0.4746(4)
H10_2 H 0.7867 0.6096 0.4163
C11_2 C 0.8957(4) 0.57361(19) 0.5916(5)
H11_2 H 0.9469 0.6047 0.6302
C12_2 C 0.8120(4) 0.48595(17) 0.5603(5)
H12_2 H 0.7935 0.4458 0.5726
C13_2 C 0.9830(4) 0.4923(2) 0.7603(4)
H13_2 H 0.9954 0.5187 0.8411
H14_2 H 0.9590 0.4530 0.7850
N3_2 N 0.7590(3) 0.52100(16) 0.4558(4)
N4_2 N 0.8953(3) 0.51702(15) 0.6443(3)
O1_2 O 0.9121(3) 0.12204(13) 0.8016(3)
O6_2 O 0.9723(3) 0.11156(12) 0.6135(3)
Cu7_2 Cu 0.92268(4) 0.03038(2) 0.56485(5)
Cu10_2 Cu 0.81085(5) 0.05299(2) 0.79600(6)
O14_3 O 0.0578(2) 0.98169(13) 0.0096(3)
C3_3 C 0.5399(3) 0.24712(17) 0.0415(4)
H3_3 H 0.4663 0.2309 0.0080
C4_3 C 0.7169(4) 0.2700(2) 0.0638(5)
H4_3 H 0.7884 0.2721 0.0476
C5_3 C 0.6877(4) 0.2953(2) 0.1683(5)
H5_3 H 0.7348 0.3191 0.2394
C6_3 C 0.5112(4) 0.29910(18) 0.2441(5)
H6_3 H 0.5601 0.2974 0.3405
H7_3 H 0.4492 0.2704 0.2351
C7_3 C 0.4613(3) 0.36091(17) 0.2161(4)
C12_3 C 0.3120(4) 0.01405(17) 0.0603(5)
H12_3 H 0.2935 0.0542 0.0726
C13_3 C 0.4830(4) 0.0077(2) 0.2603(4)
H14_3 H 0.4590 0.0470 0.2850
C14_3 C 0.5921(3) 0.01418(16) 0.2218(4)
N2_3 N 0.5773(3) 0.28048(14) 0.1532(3)
H15_3 H 0.884(4) 0.0795(11) 0.028(5)
O4_3 O 0.6728(2) 0.12125(12) 0.0025(3)
O9_3 O 0.5812(2) 0.02689(13) 0.0979(3)
O10_2 O 0.6835(2) 0.00755(13) 0.3138(3)
Cu3_2 Cu 0.71609(4) 0.03871(2) 0.04069(5)
O16_2 O 0.9612(2) 0.00722(13) 0.2869(3)
C1_3 C 0.6578(3) 0.14303(17) 0.8840(5)
C2_3 C 0.6161(4) 0.20667(18) 0.8590(5)
H1_3 H 0.6610 0.2276 0.8073
H2_3 H 0.5368 0.2062 0.8005
H9_3 H 0.1673 0.0391 0.8228
N1_3 N 0.6227(3) 0.24027(14) 0.9845(4)
O2_3 O 0.8559(2) 0.04702(12) 0.9935(3)
O3_2 O 0.7758(2) 0.04084(12) 0.6011(3)
H16_3 H 0.725(3) 0.0654(17) 0.564(5)
O5_3 O 0.6682(3) 0.11713(13) 0.7804(3)
C11_3 C 0.3957(4) 0.92639(19) 0.0916(5)
H11_3 H 0.4469 0.8953 0.1302
H13_3 H 0.4954 0.9813 0.3411
N4_3 N 0.3953(3) 0.98298(15) 0.1443(3)
O12_2 O 0.7758(2) 0.95916(12) 0.1011(3)
Cu12_2 Cu 0.71609(4) 0.96129(2) 0.54069(5)
C8_3 C 0.0498(3) 0.98951(17) 0.8841(4)
C9_3 C 0.1592(3) 0.9970(2) 0.8459(5)
H8_3 H 0.1547 0.9730 0.7627
C10_3 C 0.3090(4) 0.92393(18) 0.9746(4)
H10_3 H 0.2867 0.8904 0.9163
N3_3 N 0.2590(3) 0.97900(16) 0.9558(4)
O15_2 O 0.9612(2) 0.99278(13) 0.7869(3)
O17_2 O 0.6835(2) 0.99245(13) 0.8138(3)
O14_4 O 0.0578(2) 0.01831(13) 0.5096(3)
C8_4 C 0.0498(3) 0.01049(17) 0.3841(4)
C9_4 C 0.1592(3) 0.0030(2) 0.3459(5)
H8_4 H 0.1547 0.0270 0.2627
C10_4 C 0.3090(4) 0.07607(18) 0.4746(4)
H10_4 H 0.2867 0.1096 0.4163
C11_4 C 0.3957(4) 0.07361(19) 0.5916(5)
H11_4 H 0.4469 0.1047 0.6302
H13_4 H 0.4954 0.0187 0.8411
N3_4 N 0.2590(3) 0.02100(16) 0.4558(4)
N4_4 N 0.3953(3) 0.01702(15) 0.6443(3)
C1_4 C 0.6578(3) 0.85697(17) 0.3840(5)
C2_4 C 0.6161(4) 0.79333(18) 0.3590(5)
H1_4 H 0.6610 0.7724 0.3073
H2_4 H 0.5368 0.7938 0.3005
C3_4 C 0.5399(3) 0.75288(17) 0.5415(4)
H3_4 H 0.4663 0.7691 0.5080
C4_4 C 0.7169(4) 0.7300(2) 0.5638(5)
H4_4 H 0.7884 0.7279 0.5476
C5_4 C 0.6877(4) 0.7047(2) 0.6683(5)
H5_4 H 0.7348 0.6809 0.7394
C6_4 C 0.5112(4) 0.70090(18) 0.7441(5)
H6_4 H 0.5601 0.7026 0.8405
H7_4 H 0.4492 0.7296 0.7351
C7_4 C 0.4613(3) 0.63909(17) 0.7161(4)
H9_4 H 0.1673 0.9609 0.3228
C12_4 C 0.3120(4) 0.98595(17) 0.5603(5)
H12_4 H 0.2935 0.9458 0.5726
C13_4 C 0.4830(4) 0.9923(2) 0.7603(4)
H14_4 H 0.4590 0.9530 0.7850
C14_4 C 0.5921(3) 0.98582(16) 0.7218(4)
N1_4 N 0.6227(3) 0.75973(14) 0.4845(4)
N2_4 N 0.5773(3) 0.71952(14) 0.6532(3)
O2_4 O 0.8559(2) 0.95298(12) 0.4935(3)
H15_4 H 0.884(4) 0.9205(11) 0.528(5)
H16_4 H 0.725(3) 0.9346(17) 0.064(5)
O4_4 O 0.6728(2) 0.87875(12) 0.5025(3)
O5_4 O 0.6682(3) 0.88287(13) 0.2804(3)
O9_4 O 0.5812(2) 0.97311(13) 0.5979(3)
F1 F 0.1257(2) 0.20954(12) 0.0795(3)
F2 F 0.2925(2) 0.21184(12) 0.2741(3)
F4 F 0.3018(2) 0.23415(13) 0.0465(3)
F5 F 0.3820(2) 0.14492(13) 0.1600(3)
F6 F 0.2041(3) 0.11980(12) 0.1868(3)
Si1 Si 0.25546(10) 0.17767(5) 0.12006(12)
F3 F 0.2191(2) 0.14164(12) 0.9656(3)
F1_2 F 0.1257(2) 0.79046(12) 0.5795(3)
F2_2 F 0.2925(2) 0.78816(12) 0.7741(3)
F3_2 F 0.2191(2) 0.85836(12) 0.4656(3)
F4_2 F 0.3018(2) 0.76585(13) 0.5465(3)
F5_2 F 0.3820(2) 0.85508(13) 0.6600(3)
F6_2 F 0.2041(3) 0.88020(12) 0.6868(3)
Si1_2 Si 0.25546(10) 0.82233(5) 0.62006(12)
F1_3 F 0.6257(2) 0.70954(12) 0.0795(3)
F2_3 F 0.7925(2) 0.71184(12) 0.2741(3)
F4_3 F 0.8018(2) 0.73415(13) 0.0465(3)
F5_3 F 0.8820(2) 0.64492(13) 0.1600(3)
F6_3 F 0.7041(3) 0.61980(12) 0.1868(3)
Si1_3 Si 0.75546(10) 0.67767(5) 0.12006(12)
F3_3 F 0.7191(2) 0.64164(12) 0.9656(3)
F1_4 F 0.6257(2) 0.29046(12) 0.5795(3)
F2_4 F 0.7925(2) 0.28816(12) 0.7741(3)
F3_4 F 0.7191(2) 0.35836(12) 0.4656(3)
F4_4 F 0.8018(2) 0.26585(13) 0.5465(3)
F5_4 F 0.8820(2) 0.35508(13) 0.6600(3)
F6_4 F 0.7041(3) 0.38020(12) 0.6868(3)
Si1_4 Si 0.75546(10) 0.32233(5) 0.62006(12)
loop_
_geom_bond_atom_site_label_1
_geom_bond_atom_site_label_2
_geom_bond_site_symmetry_1
_geom_bond_site_symmetry_2
C4 H4 1_555 1_555
C5 C4 1_555 1_555
H5 C5 1_555 1_555
C6 H6 1_555 1_555
N2 C3 1_555 1_555
O9 C14 1_555 1_555
O10 C14 1_555 1_555
O12 Cu1 1_555 1_555
O13 Cu1 1_555 1_555
O14 Cu1 1_555 1_555
O16 Cu1 1_555 1_555
Cu9 O10 1_555 1_555
Cu12 O10 1_555 1_555
C5 N2 1_555 1_555
C6 N2 1_555 1_555
O4 Cu3 1_555 1_555
O9 Cu3 1_555 1_555
Cu3 O12 1_555 1_555
O12 Cu9 1_555 1_555
O16 Cu9 1_555 1_555
C1 C2 1_555 1_555
C2 H1 1_555 1_555
H2 C2 1_555 1_555
N1 C2 1_555 1_555
O3 H16 1_555 1_555
O5 C1 1_555 1_555
Cu2 O2 1_555 1_555
O11 Cu2 1_555 1_555
O15 Cu2 1_555 1_555
O17 Cu2 1_555 1_555
Cu6 O3 1_555 1_555
Cu12 O3 1_555 1_555
O3 Cu2 1_555 1_555
O5 Cu2 1_555 1_555
O15 Cu6 1_555 1_555
H11 C11 1_555 1_555
C12 H12 1_555 1_555
C13 H13 1_555 1_555
H14 C13 1_555 1_555
N4 C11 1_555 1_555
O1 C7 1_555 1_555
O6 C7 1_555 1_555
Cu7 O6 1_555 1_555
Cu10 O1 1_555 1_555
C12 N4 1_555 1_555
C13 N4 1_555 1_555
C8 C9 1_555 1_555
C9 H8 1_555 1_555
H9 C9 1_555 1_555
C10 H10 1_555 1_555
N3 C9 1_555 1_555
O15 C8 1_555 1_555
C10 N3 1_555 1_555
C1_2 C2_2 1_555 1_555
C2_2 H1_2 1_555 1_555
H2_2 C2_2 1_555 1_555
C4_2 H4_2 1_555 1_555
C5_2 C4_2 1_555 1_555
H5_2 C5_2 1_555 1_555
C6_2 H6_2 1_555 1_555
N1_2 C2_2 1_555 1_555
N2_2 C3_2 1_555 1_555
O2_2 H15_2 1_555 1_555
O12 H16_2 1_555 1_555
O4_2 C1_2 1_555 1_555
O5_2 C1_2 1_555 1_555
O9_2 C14_2 1_555 1_555
O17 C14_2 1_555 1_555
Cu6 O2_2 1_555 1_555
Cu9 O2_2 1_555 1_555
Cu12 O2_2 1_555 1_555
O11_2 Cu9 1_555 1_555
O13_2 Cu6 1_555 1_555
O14_2 Cu6 1_555 1_555
C3_2 N1_2 1_555 1_555
C4_2 N1_2 1_555 1_555
C5_2 N2_2 1_555 1_555
C6_2 N2_2 1_555 1_555
O4_2 Cu12 1_555 1_555
O5_2 Cu9 1_555 1_555
O9_2 Cu12 1_555 1_555
C8_2 C9_2 1_555 1_555
C9_2 H8_2 1_555 1_555
H9_2 C9_2 1_555 1_555
C10_2 H10_2 1_555 1_555
C11_2 C10_2 1_555 1_555
H11_2 C11_2 1_555 1_555
C12_2 H12_2 1_555 1_555
C13_2 H13_2 1_555 1_555
H14_2 C13_2 1_555 1_555
N3_2 C9_2 1_555 1_555
N4_2 C11_2 1_555 1_555
O1_2 C7_2 1_555 1_555
O6_2 C7_2 1_555 1_555
O14_2 C8_2 1_555 1_555
O16 C8_2 1_555 1_555
Cu7_2 O6_2 1_555 1_555
Cu10_2 O1_2 1_555 1_555
C10_2 N3_2 1_555 1_555
C12_2 N3_2 1_555 1_555
C12_2 N4_2 1_555 1_555
C13_2 N4_2 1_555 1_555
C3_3 H3_3 1_555 1_555
C4_3 H4_3 1_555 1_555
C5_3 C4_3 1_555 1_555
H5_3 C5_3 1_555 1_555
C6_3 H6_3 1_555 1_555
H7_3 C6_3 1_555 1_555
C7_3 C6_3 1_555 1_555
C12_3 H12_3 1_555 1_555
H14_3 C13_3 1_555 1_555
C14_3 C13_3 1_555 1_555
N2_3 C3_3 1_555 1_555
O11_2 C7_3 1_555 1_555
O13 C7_3 1_555 1_555
O9_3 C14_3 1_555 1_555
O10_2 C14_3 1_555 1_555
C5_3 N2_3 1_555 1_555
C6_3 N2_3 1_555 1_555
O4_3 Cu3_2 1_555 1_555
O9_3 Cu3_2 1_555 1_555
C1_3 C2_3 1_555 1_555
C2_3 H1_3 1_555 1_555
H2_3 C2_3 1_555 1_555
N1_3 C2_3 1_555 1_555
O3_2 H16_3 1_555 1_555
O5_3 C1_3 1_555 1_555
Cu10_2 O2_3 1_555 1_555
Cu7_2 O3_2 1_555 1_555
O3_2 Cu10_2 1_555 1_555
O5_3 Cu10_2 1_555 1_555
H11_3 C11_3 1_555 1_555
N4_3 C11_3 1_555 1_555
O12_2 Cu7 1_555 1_555
O12_2 Cu10 1_555 1_555
C8_3 C9_3 1_555 1_555
C9_3 H8_3 1_555 1_555
C10_3 H10_3 1_555 1_555
N3_3 C9_3 1_555 1_555
C10_3 N3_3 1_555 1_555
C8_4 C9_4 1_555 1_555
C9_4 H8_4 1_555 1_555
C10_4 H10_4 1_555 1_555
C11_4 C10_4 1_555 1_555
H11_4 C11_4 1_555 1_555
N3_4 C9_4 1_555 1_555
N4_4 C11_4 1_555 1_555
O14_4 C8_4 1_555 1_555
C10_4 N3_4 1_555 1_555
C1_4 C2_4 1_555 1_555
C2_4 H1_4 1_555 1_555
H2_4 C2_4 1_555 1_555
C3_4 H3_4 1_555 1_555
C4_4 H4_4 1_555 1_555
C5_4 C4_4 1_555 1_555
H5_4 C5_4 1_555 1_555
C6_4 H6_4 1_555 1_555
H7_4 C6_4 1_555 1_555
C7_4 C6_4 1_555 1_555
C12_4 H12_4 1_555 1_555
H14_4 C13_4 1_555 1_555
C14_4 C13_4 1_555 1_555
N1_4 C2_4 1_555 1_555
N2_4 C3_4 1_555 1_555
O11 C7_4 1_555 1_555
O2_4 H15_4 1_555 1_555
O12_2 H16_4 1_555 1_555
O4_4 C1_4 1_555 1_555
O5_4 C1_4 1_555 1_555
O13_2 C7_4 1_555 1_555
O9_4 C14_4 1_555 1_555
O17_2 C14_4 1_555 1_555
Cu10 O2_4 1_555 1_555
Cu12_2 O2_4 1_555 1_555
C3_4 N1_4 1_555 1_555
C4_4 N1_4 1_555 1_555
C5_4 N2_4 1_555 1_555
C6_4 N2_4 1_555 1_555
O4_4 Cu12_2 1_555 1_555
O5_4 Cu10 1_555 1_555
O9_4 Cu12_2 1_555 1_555
F1 Si1 1_555 1_555
F2 Si1 1_555 1_555
F4 Si1 1_555 1_555
F5 Si1 1_555 1_555
F6 Si1 1_555 1_555
F1_2 Si1_2 1_555 1_555
F2_2 Si1_2 1_555 1_555
F3_2 Si1_2 1_555 1_555
F4_2 Si1_2 1_555 1_555
F5_2 Si1_2 1_555 1_555
F6_2 Si1_2 1_555 1_555
F1_3 Si1_3 1_555 1_555
F2_3 Si1_3 1_555 1_555
F4_3 Si1_3 1_555 1_555
F5_3 Si1_3 1_555 1_555
F6_3 Si1_3 1_555 1_555
F1_4 Si1_4 1_555 1_555
F2_4 Si1_4 1_555 1_555
F3_4 Si1_4 1_555 1_555
F4_4 Si1_4 1_555 1_555
F5_4 Si1_4 1_555 1_555
F6_4 Si1_4 1_555 1_555

#END
