
###############################################################################
#
# This file contains modified crystal structure data generated from the
# MOF subset of the Cambridge Structural Database (CSD) v543 
# hosted by the Cambridge Crystallographic Data Centre (CCDC).
#
# This work is licensed under the Creative Commons
# Attribution-NonCommercial-ShareAlike 4.0 International License.
# To view a copy of this license, visit
# http://creativecommons.org/licenses/by-nc-sa/4.0/
# or send a letter to
# Creative Commons, PO Box 1866, Mountain View, CA 94042, USA.
#
# CIF created using the CSD Python API on 29 September 2022
# The structure has been converted into the P1 space group
# The structure has a 3D framework
# The original CSD entry TIKTUF is in the tetragonal crystal system
# The original CSD entry TIKTUF is in a Sohncke space group
# The framework has been calculated to contain at least 10.0% void space
# The void calculation uses a probe of radius 1.32A, grid spacing 0.4
#
###############################################################################

data_TIKTUF
_chemical_formula_moiety         '(C84 H42 O40 V9)n'
_symmetry_cell_setting           triclinic
_symmetry_space_group_name_H-M   'P 1'
_symmetry_Int_Tables_number      1
_space_group_name_Hall           'P 1'
loop_
_symmetry_equiv_pos_site_id
_symmetry_equiv_pos_as_xyz
1 x,y,z
_cell_length_a                   15.16316(15)
_cell_length_b                   15.16316(15)
_cell_length_c                   12.0746(2)
_cell_angle_alpha                90
_cell_angle_beta                 90
_cell_angle_gamma                90
_cell_volume                     2776.21
loop_
_atom_site_label
_atom_site_type_symbol
_atom_site_fract_x
_atom_site_fract_y
_atom_site_fract_z
_atom_site_U_iso_or_equiv
_atom_site_thermal_displace_type
O4 O 0.6192(6) 0.3810(6) 0.3935(4) 0.0270 Uiso
O5 O 0.7143(4) 0.4016(6) 0.2512(5) 0.0270 Uiso
C6 C 0.6371(3) 0.4128(4) 0.2960(3) 0.0141 Uiso
C7 C 0.56961(11) 0.46191(16) 0.2360(3) 0.0141 Uiso
C8 C 0.500 0.500 0.2935(3) 0.0141 Uiso
C9 C 0.56961(11) 0.46191(16) 0.12095(18) 0.0141 Uiso
C10 C 0.500 0.500 0.06342(17) 0.0141 Uiso
H4 H 0.500 0.500 0.3762(6) 0.0141 Uiso
H5 H 0.6196(3) 0.4345(3) 0.0796(3) 0.0141 Uiso
O8 O 0.3808(6) 0.6190(6) 0.3935(4) 0.0270 Uiso
O9 O 0.2857(4) 0.5984(6) 0.2512(5) 0.0270 Uiso
C14 C 0.3629(3) 0.5872(4) 0.2960(3) 0.0141 Uiso
C15 C 0.43039(11) 0.53809(16) 0.2360(3) 0.0141 Uiso
C16 C 0.43039(11) 0.53809(16) 0.12095(18) 0.0141 Uiso
H7 H 0.3804(3) 0.5655(3) 0.0796(3) 0.0141 Uiso
V3 V 0.68902 0.31098 0.500 0.0000 Uiso
V5 V 0.81098 0.31098 0.250 0.0000 Uiso
V6 V 0.18902 0.68902 0.250 0.0000 Uiso
V8 V 0.31098 0.68902 0.500 0.0000 Uiso
O1 O 0.7601(3) 0.250 0.625 0.0270 Uiso
O2 O 0.6190(6) 0.3808(6) 0.6065(4) 0.0270 Uiso
O3 O 0.5984(6) 0.2857(4) 0.7488(5) 0.0270 Uiso
C1 C 0.5872(4) 0.3629(3) 0.7040(3) 0.0141 Uiso
C2 C 0.53809(16) 0.43039(11) 0.7640(3) 0.0141 Uiso
C3 C 0.500 0.500 0.7065(3) 0.0141 Uiso
C4 C 0.53809(16) 0.43039(11) 0.87905(18) 0.0141 Uiso
C5 C 0.500 0.500 0.93658(17) 0.0141 Uiso
H1 H 0.8194(8) 0.250 0.625 0.0270 Uiso
H2 H 0.500 0.500 0.6238(6) 0.0141 Uiso
H3 H 0.5655(3) 0.3804(3) 0.9204(3) 0.0141 Uiso
O6 O 0.3810(6) 0.6192(6) 0.6065(4) 0.0270 Uiso
O7 O 0.4016(6) 0.7143(4) 0.7488(5) 0.0270 Uiso
C11 C 0.4128(4) 0.6371(3) 0.7040(3) 0.0141 Uiso
C12 C 0.46191(16) 0.56961(11) 0.7640(3) 0.0141 Uiso
C13 C 0.46191(16) 0.56961(11) 0.87905(18) 0.0141 Uiso
H6 H 0.4345(3) 0.6196(3) 0.9204(3) 0.0141 Uiso
V2 V 0.68902 0.18902 0.750 0.0000 Uiso
O10 O 0.750 0.2399(3) 0.375 0.0270 Uiso
H8 H 0.750 0.1806(8) 0.375 0.0270 Uiso
V9 V 0.31098 0.81098 0.750 0.0000 Uiso
O11 O 0.750 0.2601(3) 0.875 0.0270 Uiso
O12 O 0.6192(6) 0.1190(6) 0.8565(4) 0.0270 Uiso
O13 O 0.6190(6) 0.1192(6) 0.6435(4) 0.0270 Uiso
O15 O 0.7857(4) 0.4016(6) 0.4988(5) 0.0270 Uiso
O16 O 0.5984(6) 0.2143(4) 0.5012(5) 0.0270 Uiso
O17 O 0.7857(4) 0.0984(6) 0.7512(5) 0.0270 Uiso
C2_2 C 0.56961(11) 0.03809(16) 0.0140(3) 0.0141 Uiso
C4_2 C 0.56961(11) 0.03809(16) 0.12905(18) 0.0141 Uiso
C5_2 C 0.500 -0.000 0.18658(17) 0.0141 Uiso
H3_2 H 0.6196(3) 0.0655(3) 0.1704(3) 0.0141 Uiso
C6_2 C 0.5872(4) 0.1371(3) 0.5460(3) 0.0141 Uiso
C7_2 C 0.53809(16) 0.06961(11) 0.4860(3) 0.0141 Uiso
C8_2 C 0.500 -0.000 0.5435(3) 0.0141 Uiso
C9_2 C 0.53809(16) 0.06961(11) 0.37095(18) 0.0141 Uiso
C10_2 C 0.500 -0.000 0.31342(17) 0.0141 Uiso
H4_2 H 0.500 -0.000 0.6262(6) 0.0141 Uiso
H5_2 H 0.5655(3) 0.1196(3) 0.3296(3) 0.0141 Uiso
V2_2 V 0.81098 0.18902 -0.000 0.0000 Uiso
O11_2 O 0.7399(3) 0.250 0.125 0.0270 Uiso
O12_2 O 0.8810(6) 0.1192(6) 0.1065(4) 0.0270 Uiso
O17_2 O 0.9016(6) 0.2857(4) 0.0012(5) 0.0270 Uiso
O3_2 O 0.7143(4) 0.0984(6) 0.9988(5) 0.0270 Uiso
C1_2 C 0.6371(3) 0.0872(4) 0.9540(3) 0.0141 Uiso
C3_2 C 0.500 -0.000 0.9565(3) 0.0141 Uiso
H1_2 H 0.750 0.3194(8) 0.875 0.0270 Uiso
H2_2 H 0.500 -0.000 0.8738(6) 0.0141 Uiso
V2_3 V 0.81098 0.18902 1.000 0.0000 Uiso
O13_2 O 0.8808(6) 0.1190(6) 0.8935(4) 0.0270 Uiso
C5_3 C 0.500 1.000 0.18658(17) 0.0141 Uiso
C8_3 C 0.500 1.000 0.5435(3) 0.0141 Uiso
C10_3 C 0.500 1.000 0.31342(17) 0.0141 Uiso
H4_3 H 0.500 1.000 0.6262(6) 0.0141 Uiso
C12_2 C 0.43039(11) 0.96191(16) 0.0140(3) 0.0141 Uiso
C13_2 C 0.43039(11) 0.96191(16) 0.12905(18) 0.0141 Uiso
H6_2 H 0.3804(3) 0.9345(3) 0.1704(3) 0.0141 Uiso
O8_2 O 0.3810(6) 0.8808(6) 0.6435(4) 0.0270 Uiso
O9_2 O 0.4016(6) 0.7857(4) 0.5012(5) 0.0270 Uiso
C14_2 C 0.4128(4) 0.8629(3) 0.5460(3) 0.0141 Uiso
C15_2 C 0.46191(16) 0.93039(11) 0.4860(3) 0.0141 Uiso
C16_2 C 0.46191(16) 0.93039(11) 0.37095(18) 0.0141 Uiso
H7_2 H 0.4345(3) 0.8804(3) 0.3296(3) 0.0141 Uiso
V9_2 V 0.18902 0.81098 -0.000 0.0000 Uiso
C3_3 C 0.500 1.000 0.9565(3) 0.0141 Uiso
H2_3 H 0.500 1.000 0.8738(6) 0.0141 Uiso
O6_2 O 0.3808(6) 0.8810(6) 0.8565(4) 0.0270 Uiso
O7_2 O 0.2857(4) 0.9016(6) 0.9988(5) 0.0270 Uiso
C11_2 C 0.3629(3) 0.9128(4) 0.9540(3) 0.0141 Uiso
V9_3 V 0.18902 0.81098 1.000 0.0000 Uiso
C3_4 C 0.000 1.000 0.2065(3) 0.0141 Uiso
C5_4 C 0.000 1.000 0.43658(17) 0.0141 Uiso
H2_4 H 0.000 1.000 0.1238(6) 0.0141 Uiso
C8_4 C 0.000 1.000 0.7935(3) 0.0141 Uiso
C10_4 C 0.000 1.000 0.56342(17) 0.0141 Uiso
H4_4 H 0.000 1.000 0.8762(6) 0.0141 Uiso
O6_3 O 0.1190(6) 0.8808(6) 0.1065(4) 0.0270 Uiso
O7_3 O 0.0984(6) 0.7857(4) 0.2488(5) 0.0270 Uiso
C11_3 C 0.0872(4) 0.8629(3) 0.2040(3) 0.0141 Uiso
C12_3 C 0.03809(16) 0.93039(11) 0.2640(3) 0.0141 Uiso
C13_3 C 0.03809(16) 0.93039(11) 0.37905(18) 0.0141 Uiso
H6_3 H 0.0655(3) 0.8804(3) 0.4204(3) 0.0141 Uiso
O8_3 O 0.1192(6) 0.8810(6) 0.8935(4) 0.0270 Uiso
O9_3 O 0.2143(4) 0.9016(6) 0.7512(5) 0.0270 Uiso
C14_3 C 0.1371(3) 0.9128(4) 0.7960(3) 0.0141 Uiso
C15_3 C 0.06961(11) 0.96191(16) 0.7360(3) 0.0141 Uiso
C16_3 C 0.06961(11) 0.96191(16) 0.62095(18) 0.0141 Uiso
H7_3 H 0.1196(3) 0.9345(3) 0.5796(3) 0.0141 Uiso
O3_3 O 0.9016(6) 0.2143(4) 0.2488(5) 0.0270 Uiso
C1_3 C 0.9128(4) 0.1371(3) 0.2040(3) 0.0141 Uiso
C2_3 C 0.96191(16) 0.06961(11) 0.2640(3) 0.0141 Uiso
C3_5 C 1.000 0.000 0.2065(3) 0.0141 Uiso
C4_3 C 0.96191(16) 0.06961(11) 0.37905(18) 0.0141 Uiso
C5_5 C 1.000 0.000 0.43658(17) 0.0141 Uiso
H1_3 H 0.6806(8) 0.250 0.125 0.0270 Uiso
H2_5 H 1.000 0.000 0.1238(6) 0.0141 Uiso
H3_3 H 0.9345(3) 0.1196(3) 0.4204(3) 0.0141 Uiso
C6_3 C 0.8629(3) 0.0872(4) 0.7960(3) 0.0141 Uiso
C7_3 C 0.93039(11) 0.03809(16) 0.7360(3) 0.0141 Uiso
C8_5 C 1.000 0.000 0.7935(3) 0.0141 Uiso
C9_3 C 0.93039(11) 0.03809(16) 0.62095(18) 0.0141 Uiso
C10_5 C 1.000 0.000 0.56342(17) 0.0141 Uiso
H4_5 H 1.000 0.000 0.8762(6) 0.0141 Uiso
H5_3 H 0.8804(3) 0.0655(3) 0.5796(3) 0.0141 Uiso
O12_3 O 0.8808(6) 0.3810(6) 0.3565(4) 0.0270 Uiso
O13_3 O 0.8810(6) 0.3808(6) 0.1435(4) 0.0270 Uiso
C8_6 C -0.000 0.500 0.0435(3) 0.0141 Uiso
H4_6 H -0.000 0.500 0.1262(6) 0.0141 Uiso
O8_4 O 0.1190(6) 0.6192(6) 0.1435(4) 0.0270 Uiso
O9_4 O 0.0984(6) 0.7143(4) 0.0012(5) 0.0270 Uiso
C14_4 C 0.0872(4) 0.6371(3) 0.0460(3) 0.0141 Uiso
C3_6 C -0.000 0.500 0.4565(3) 0.0141 Uiso
C5_6 C -0.000 0.500 0.68658(17) 0.0141 Uiso
H2_6 H -0.000 0.500 0.3738(6) 0.0141 Uiso
C10_6 C -0.000 0.500 0.81342(17) 0.0141 Uiso
O6_4 O 0.1192(6) 0.6190(6) 0.3565(4) 0.0270 Uiso
O7_4 O 0.2143(4) 0.5984(6) 0.4988(5) 0.0270 Uiso
C11_4 C 0.1371(3) 0.5872(4) 0.4540(3) 0.0141 Uiso
C12_4 C 0.06961(11) 0.53809(16) 0.5140(3) 0.0141 Uiso
C13_4 C 0.06961(11) 0.53809(16) 0.62905(18) 0.0141 Uiso
H6_4 H 0.1196(3) 0.5655(3) 0.6704(3) 0.0141 Uiso
C15_4 C 0.03809(16) 0.56961(11) 0.9860(3) 0.0141 Uiso
C16_4 C 0.03809(16) 0.56961(11) 0.87095(18) 0.0141 Uiso
H7_4 H 0.0655(3) 0.6196(3) 0.8296(3) 0.0141 Uiso
C6_4 C 0.9128(4) 0.3629(3) 0.0460(3) 0.0141 Uiso
C8_7 C 1.000 0.500 0.0435(3) 0.0141 Uiso
H4_7 H 1.000 0.500 0.1262(6) 0.0141 Uiso
C1_4 C 0.8629(3) 0.4128(4) 0.4540(3) 0.0141 Uiso
C2_4 C 0.93039(11) 0.46191(16) 0.5140(3) 0.0141 Uiso
C3_7 C 1.000 0.500 0.4565(3) 0.0141 Uiso
C4_4 C 0.93039(11) 0.46191(16) 0.62905(18) 0.0141 Uiso
C5_7 C 1.000 0.500 0.68658(17) 0.0141 Uiso
H2_7 H 1.000 0.500 0.3738(6) 0.0141 Uiso
H3_4 H 0.8804(3) 0.4345(3) 0.6704(3) 0.0141 Uiso
C7_4 C 0.96191(16) 0.43039(11) 0.9860(3) 0.0141 Uiso
C9_4 C 0.96191(16) 0.43039(11) 0.87095(18) 0.0141 Uiso
C10_7 C 1.000 0.500 0.81342(17) 0.0141 Uiso
H5_4 H 0.9345(3) 0.3804(3) 0.8296(3) 0.0141 Uiso
O1_2 O 0.2601(3) 0.750 0.125 0.0270 Uiso
H1_4 H 0.3194(8) 0.750 0.125 0.0270 Uiso
O11_3 O 0.250 0.7601(3) 0.375 0.0270 Uiso
O10_2 O 0.250 0.7399(3) 0.875 0.0270 Uiso
H8_2 H 0.250 0.6806(8) 0.875 0.0270 Uiso
H1_5 H 0.250 0.8194(8) 0.375 0.0270 Uiso
O11_4 O 0.2399(3) 0.750 0.625 0.0270 Uiso
H1_6 H 0.1806(8) 0.750 0.625 0.0270 Uiso
C3_8 C 0.000 0.000 0.2065(3) 0.0141 Uiso
C5_8 C 0.000 0.000 0.43658(17) 0.0141 Uiso
H2_8 H 0.000 0.000 0.1238(6) 0.0141 Uiso
C8_8 C 0.000 0.000 0.7935(3) 0.0141 Uiso
C10_8 C 0.000 0.000 0.56342(17) 0.0141 Uiso
H4_8 H 0.000 0.000 0.8762(6) 0.0141 Uiso
C3_9 C 1.000 1.000 0.2065(3) 0.0141 Uiso
C5_9 C 1.000 1.000 0.43658(17) 0.0141 Uiso
H2_9 H 1.000 1.000 0.1238(6) 0.0141 Uiso
C8_9 C 1.000 1.000 0.7935(3) 0.0141 Uiso
C10_9 C 1.000 1.000 0.56342(17) 0.0141 Uiso
H4_9 H 1.000 1.000 0.8762(6) 0.0141 Uiso
loop_
_geom_bond_atom_site_label_1
_geom_bond_atom_site_label_2
_geom_bond_site_symmetry_1
_geom_bond_site_symmetry_2
O4 C6 1_555 1_555
O5 C6 1_555 1_555
C6 C7 1_555 1_555
C7 C8 1_555 1_555
C8 H4 1_555 1_555
C9 C7 1_555 1_555
H5 C9 1_555 1_555
O8 C14 1_555 1_555
O9 C14 1_555 1_555
C14 C15 1_555 1_555
C15 C8 1_555 1_555
C16 C10 1_555 1_555
H7 C16 1_555 1_555
V3 O4 1_555 1_555
V5 O5 1_555 1_555
V6 O9 1_555 1_555
V8 O8 1_555 1_555
C9 C10 1_555 1_555
C15 C16 1_555 1_555
V3 O1 1_555 1_555
O1 H1 1_555 1_555
O2 V3 1_555 1_555
O3 C1 1_555 1_555
C1 O2 1_555 1_555
C2 C1 1_555 1_555
C3 C2 1_555 1_555
C4 C2 1_555 1_555
C5 C4 1_555 1_555
H2 C3 1_555 1_555
H3 C4 1_555 1_555
O6 C11 1_555 1_555
O7 C11 1_555 1_555
C11 C12 1_555 1_555
C12 C3 1_555 1_555
C13 C5 1_555 1_555
H6 C13 1_555 1_555
V2 O1 1_555 1_555
O10 V3 1_555 1_555
H8 O10 1_555 1_555
V5 O10 1_555 1_555
V8 O6 1_555 1_555
V9 O7 1_555 1_555
O11 V2 1_555 1_555
O12 V2 1_555 1_555
O13 V2 1_555 1_555
O15 V3 1_555 1_555
O16 V3 1_555 1_555
O17 V2 1_555 1_555
O3 V2 1_555 1_555
C12 C13 1_555 1_555
C4_2 C2_2 1_555 1_555
C5_2 C4_2 1_555 1_555
H3_2 C4_2 1_555 1_555
O13 C6_2 1_555 1_555
O16 C6_2 1_555 1_555
C6_2 C7_2 1_555 1_555
C7_2 C8_2 1_555 1_555
C8_2 H4_2 1_555 1_555
C9_2 C7_2 1_555 1_555
C10_2 C5_2 1_555 1_555
H5_2 C9_2 1_555 1_555
O11_2 V2_2 1_555 1_555
O12_2 V2_2 1_555 1_555
O17_2 V2_2 1_555 1_555
C9_2 C10_2 1_555 1_555
O11 H1_2 1_555 1_555
O3_2 C1_2 1_555 1_555
C1_2 O12 1_555 1_555
H2_2 C3_2 1_555 1_555
V2_3 O11 1_555 1_555
O13_2 V2_3 1_555 1_555
O3_2 V2_3 1_555 1_555
C8_3 H4_3 1_555 1_555
C10_3 C5_3 1_555 1_555
C13_2 C5_3 1_555 1_555
H6_2 C13_2 1_555 1_555
O8_2 C14_2 1_555 1_555
O9_2 C14_2 1_555 1_555
C14_2 C15_2 1_555 1_555
C15_2 C8_3 1_555 1_555
C16_2 C10_3 1_555 1_555
H7_2 C16_2 1_555 1_555
V8 O9_2 1_555 1_555
V9 O8_2 1_555 1_555
C12_2 C13_2 1_555 1_555
C15_2 C16_2 1_555 1_555
H2_3 C3_3 1_555 1_555
O6_2 C11_2 1_555 1_555
O7_2 C11_2 1_555 1_555
V9 O6_2 1_555 1_555
V9_3 O7_2 1_555 1_555
H2_4 C3_4 1_555 1_555
C8_4 H4_4 1_555 1_555
C10_4 C5_4 1_555 1_555
O6_3 C11_3 1_555 1_555
O7_3 C11_3 1_555 1_555
C11_3 C12_3 1_555 1_555
C12_3 C3_4 1_555 1_555
C13_3 C5_4 1_555 1_555
H6_3 C13_3 1_555 1_555
O8_3 C14_3 1_555 1_555
O9_3 C14_3 1_555 1_555
C14_3 C15_3 1_555 1_555
C15_3 C8_4 1_555 1_555
C16_3 C10_4 1_555 1_555
H7_3 C16_3 1_555 1_555
V9 O9_3 1_555 1_555
V9_2 O6_3 1_555 1_555
V9_3 O8_3 1_555 1_555
V6 O7_3 1_555 1_555
C12_3 C13_3 1_555 1_555
C15_3 C16_3 1_555 1_555
O11_2 H1_3 1_555 1_555
O3_3 C1_3 1_555 1_555
C1_3 O12_2 1_555 1_555
C2_3 C1_3 1_555 1_555
C3_5 C2_3 1_555 1_555
C4_3 C2_3 1_555 1_555
C5_5 C4_3 1_555 1_555
H2_5 C3_5 1_555 1_555
H3_3 C4_3 1_555 1_555
O13_2 C6_3 1_555 1_555
O17 C6_3 1_555 1_555
C6_3 C7_3 1_555 1_555
C7_3 C8_5 1_555 1_555
C8_5 H4_5 1_555 1_555
C9_3 C7_3 1_555 1_555
C10_5 C5_5 1_555 1_555
H5_3 C9_3 1_555 1_555
V5 O11_2 1_555 1_555
O12_3 V5 1_555 1_555
O13_3 V5 1_555 1_555
O3_3 V5 1_555 1_555
C9_3 C10_5 1_555 1_555
C8_6 H4_6 1_555 1_555
O8_4 C14_4 1_555 1_555
O9_4 C14_4 1_555 1_555
V9_2 O9_4 1_555 1_555
V6 O8_4 1_555 1_555
H2_6 C3_6 1_555 1_555
C10_6 C5_6 1_555 1_555
O6_4 C11_4 1_555 1_555
O7_4 C11_4 1_555 1_555
C11_4 C12_4 1_555 1_555
C12_4 C3_6 1_555 1_555
C13_4 C5_6 1_555 1_555
H6_4 C13_4 1_555 1_555
C16_4 C10_6 1_555 1_555
H7_4 C16_4 1_555 1_555
V6 O6_4 1_555 1_555
V8 O7_4 1_555 1_555
C12_4 C13_4 1_555 1_555
C15_4 C16_4 1_555 1_555
O13_3 C6_4 1_555 1_555
O17_2 C6_4 1_555 1_555
C8_7 H4_7 1_555 1_555
O15 C1_4 1_555 1_555
C1_4 O12_3 1_555 1_555
C2_4 C1_4 1_555 1_555
C3_7 C2_4 1_555 1_555
C4_4 C2_4 1_555 1_555
C5_7 C4_4 1_555 1_555
H2_7 C3_7 1_555 1_555
H3_4 C4_4 1_555 1_555
C9_4 C7_4 1_555 1_555
C10_7 C5_7 1_555 1_555
H5_4 C9_4 1_555 1_555
C9_4 C10_7 1_555 1_555
V9_2 O1_2 1_555 1_555
O1_2 H1_4 1_555 1_555
V6 O1_2 1_555 1_555
O11_3 V6 1_555 1_555
O10_2 V9_3 1_555 1_555
H8_2 O10_2 1_555 1_555
V9 O10_2 1_555 1_555
O11_3 H1_5 1_555 1_555
V8 O11_3 1_555 1_555
O11_4 V8 1_555 1_555
O11_4 H1_6 1_555 1_555
V9 O11_4 1_555 1_555
H2_8 C3_8 1_555 1_555
C8_8 H4_8 1_555 1_555
C10_8 C5_8 1_555 1_555
H2_9 C3_9 1_555 1_555
C8_9 H4_9 1_555 1_555
C10_9 C5_9 1_555 1_555

#END
