
###############################################################################
#
# This file contains modified crystal structure data generated from the
# MOF subset of the Cambridge Structural Database (CSD) v543 
# hosted by the Cambridge Crystallographic Data Centre (CCDC).
#
# This work is licensed under the Creative Commons
# Attribution-NonCommercial-ShareAlike 4.0 International License.
# To view a copy of this license, visit
# http://creativecommons.org/licenses/by-nc-sa/4.0/
# or send a letter to
# Creative Commons, PO Box 1866, Mountain View, CA 94042, USA.
#
# CIF created using the CSD Python API on 29 September 2022
# The structure has been converted into the P1 space group
# The structure has a 3D framework
# The original CSD entry TIKXAN is in the cubic crystal system
# The framework has been calculated to contain at least 10.0% void space
# The void calculation uses a probe of radius 1.32A, grid spacing 0.4
# The framework is charged, counterions have been retained in the structure
#
###############################################################################

data_TIKXAN
_chemical_formula_moiety         '(C144 H48 In10 O87 7-)n'
_symmetry_cell_setting           triclinic
_symmetry_space_group_name_H-M   'P 1'
_symmetry_Int_Tables_number      1
_space_group_name_Hall           'P 1'
loop_
_symmetry_equiv_pos_site_id
_symmetry_equiv_pos_as_xyz
1 x,y,z
_cell_length_a                   20.3732(8)
_cell_length_b                   20.3732(8)
_cell_length_c                   20.3732(8)
_cell_angle_alpha                90
_cell_angle_beta                 90
_cell_angle_gamma                90
_cell_volume                     8456.25
loop_
_atom_site_label
_atom_site_type_symbol
_atom_site_fract_x
_atom_site_fract_y
_atom_site_fract_z
In1 In 0.5000 0.2500 0.1250
O1 O 0.5538(2) 0.3318(3) 0.0850(2)
O2 O 0.4638(3) 0.3129(3) 0.0316(3)
C2 C 0.5148(3) 0.3456(3) 0.0395(3)
C3 C 0.5829(4) 0.4432(3) 0.0108(3)
H1 H 0.6104 0.4336 0.0471
In2 In 0.7500 0.6250 0.0000
In4 In 0.8750 0.0000 0.2500
In5 In 0.7500 0.3750 0.5000
In8 In 0.1250 0.5000 0.2500
In9 In 0.2500 0.1250 0.5000
O5 O 0.5818(3) 0.1962(2) 0.1650(2)
O6 O 0.8350(2) 0.0818(3) 0.3038(2)
O7 O 0.6962(2) 0.3350(2) 0.4182(3)
O8 O 0.4462(2) 0.1682(3) 0.0850(2)
O11 O 0.4182(3) 0.3038(2) 0.1650(2)
O12 O 0.1650(2) 0.4182(3) 0.3038(2)
O13 O 0.3038(2) 0.1650(2) 0.4182(3)
O15 O 0.6962(2) 0.6650(2) 0.0818(3)
O16 O 0.8318(3) 0.5850(2) 0.0538(2)
O20 O 0.6871(3) 0.5316(3) 0.0362(3)
O22 O 0.5629(3) 0.2862(3) 0.2184(3)
O23 O 0.7816(3) 0.0629(3) 0.2138(3)
O24 O 0.7862(3) 0.2816(3) 0.4371(3)
O25 O 0.5362(3) 0.1871(3) 0.0316(3)
O28 O 0.4371(3) 0.2138(3) 0.2184(3)
O29 O 0.2184(3) 0.4371(3) 0.2138(3)
O30 O 0.2138(3) 0.2184(3) 0.4371(3)
O32 O 0.7862(3) 0.7184(3) 0.0629(3)
C6 C 0.6540(3) 0.2208(3) 0.2531(4)
C7 C 0.7469(4) 0.1540(3) 0.2792(3)
C8 C 0.7208(3) 0.2469(4) 0.3460(3)
C12 C 0.3460(3) 0.2792(3) 0.2531(4)
C13 C 0.2531(4) 0.3460(3) 0.2792(3)
C14 C 0.2792(3) 0.2531(4) 0.3460(3)
C17 C 0.5956(3) 0.2352(3) 0.2105(3)
C18 C 0.7895(3) 0.0956(3) 0.2648(3)
C19 C 0.7352(3) 0.2895(3) 0.4044(3)
C20 C 0.4852(3) 0.1544(3) 0.0395(3)
C23 C 0.4044(3) 0.2648(3) 0.2105(3)
C24 C 0.2105(3) 0.4044(3) 0.2648(3)
C25 C 0.2648(3) 0.2105(3) 0.4044(3)
C28 C 0.6932(3) 0.1671(4) 0.2392(3)
C29 C 0.7608(3) 0.1932(3) 0.3329(4)
C30 C 0.6671(4) 0.2608(3) 0.3068(3)
C31 C 0.4171(4) 0.0568(3) 0.0108(3)
C34 C 0.3068(3) 0.3329(4) 0.2392(3)
C35 C 0.2392(3) 0.3068(3) 0.3329(4)
C36 C 0.3329(4) 0.2392(3) 0.3068(3)
H4 H 0.6836 0.1396 0.2029
H5 H 0.6396 0.2971 0.3164
H6 H 0.7971 0.1836 0.3604
H7 H 0.3896 0.0664 0.0471
H10 H 0.3164 0.3604 0.2029
H11 H 0.3604 0.2029 0.3164
H12 H 0.2029 0.3164 0.3604
C1 C 0.5292(3) 0.4040(3) 0.9969(4)
In2_2 In 0.7500 0.6250 1.0000
In3 In 0.3750 0.5000 0.7500
In7 In 0.6250 0.0000 0.7500
O3 O 0.6682(3) 0.5850(2) 0.9462(2)
O4 O 0.4150(2) 0.4462(2) 0.8318(3)
O10 O 0.5850(2) 0.0538(2) 0.8318(3)
O14 O 0.8038(2) 0.6650(2) 0.9182(3)
O17 O 0.3350(2) 0.4182(3) 0.6962(2)
O18 O 0.4150(2) 0.5538(2) 0.6682(3)
O19 O 0.3350(2) 0.5818(3) 0.8038(2)
O21 O 0.4684(3) 0.5362(3) 0.8129(3)
O31 O 0.7138(3) 0.7184(3) 0.9371(3)
O33 O 0.8129(3) 0.5316(3) 0.9638(3)
O34 O 0.2816(3) 0.4371(3) 0.7862(3)
O35 O 0.4684(3) 0.4638(3) 0.6871(3)
O36 O 0.2816(3) 0.5629(3) 0.7138(3)
C4 C 0.5960(3) 0.4969(4) 0.9708(3)
C5 C 0.5031(4) 0.4708(3) 0.9040(3)
C9 C 0.4708(3) 0.0960(3) 0.9969(4)
C10 C 0.4040(3) 0.0031(4) 0.9708(3)
C11 C 0.4969(4) 0.0292(3) 0.9040(3)
C15 C 0.6544(3) 0.5395(3) 0.9852(3)
C16 C 0.4605(3) 0.4852(3) 0.8456(3)
C22 C 0.5395(3) 0.0148(3) 0.8456(3)
C26 C 0.5568(3) 0.5108(3) 0.9171(4)
C27 C 0.4892(3) 0.4171(4) 0.9432(3)
C33 C 0.5108(3) 0.0829(4) 0.9432(3)
H2 H 0.4529 0.3896 0.9336
H3 H 0.5664 0.5471 0.8896
H8 H 0.5471 0.1104 0.9336
In4_2 In 0.8750 1.0000 0.2500
In6 In 0.2500 0.8750 0.0000
O26 O 0.3129(3) 0.9684(3) 0.0362(3)
In6_2 In 0.2500 0.8750 1.0000
In7_2 In 0.6250 1.0000 0.7500
O9 O 0.3318(3) 0.9150(2) 0.9462(2)
O27 O 0.5316(3) 0.9638(3) 0.8129(3)
C21 C 0.3456(3) 0.9605(3) 0.9852(3)
C32 C 0.4432(3) 0.9892(3) 0.9171(4)
H9 H 0.4336 0.9529 0.8896
O15_2 O 0.9150(2) 0.0538(2) 0.1682(3)
O17_2 O 0.6682(3) 0.4150(2) 0.5538(2)
O18_2 O 0.8038(2) 0.3350(2) 0.5818(3)
O19_2 O 0.8318(3) 0.4150(2) 0.4462(2)
O31_2 O 0.9684(3) 0.0362(3) 0.3129(3)
O34_2 O 0.6871(3) 0.4684(3) 0.4638(3)
O35_2 O 0.7138(3) 0.2816(3) 0.5629(3)
O36_2 O 0.8129(3) 0.4684(3) 0.5362(3)
O14_2 O 0.9150(2) 0.9462(2) 0.3318(3)
O16_2 O 0.8350(2) 0.9182(3) 0.1962(2)
O32_2 O 0.9684(3) 0.9638(3) 0.1871(3)
O33_2 O 0.7816(3) 0.9371(3) 0.2862(3)
O17_3 O 0.6650(2) 0.0818(3) 0.6962(2)
O34_3 O 0.7184(3) 0.0629(3) 0.7862(3)
O35_3 O 0.5316(3) 0.0362(3) 0.6871(3)
O15_3 O 0.3038(2) 0.8350(2) 0.0818(3)
O16_3 O 0.1682(3) 0.9150(2) 0.0538(2)
O32_3 O 0.2138(3) 0.7816(3) 0.0629(3)
O14_3 O 0.1962(2) 0.8350(2) 0.9182(3)
O18_3 O 0.5850(2) 0.9462(2) 0.6682(3)
O19_3 O 0.6650(2) 0.9182(3) 0.8038(2)
O31_3 O 0.2862(3) 0.7816(3) 0.9371(3)
O33_3 O 0.1871(3) 0.9684(3) 0.9638(3)
O36_3 O 0.7184(3) 0.9371(3) 0.7138(3)
O6_2 O 0.1682(3) 0.0850(2) 0.4462(2)
O23_2 O 0.1871(3) 0.0316(3) 0.5362(3)
C18_2 C 0.1544(3) 0.0395(3) 0.4852(3)
C29_2 C 0.0568(3) 0.0108(3) 0.4171(4)
H6_2 H 0.0664 0.0471 0.3896
In1_2 In 0.0000 0.7500 0.6250
O5_2 O 0.0538(2) 0.8318(3) 0.5850(2)
O8_2 O 0.0818(3) 0.6962(2) 0.6650(2)
O13_2 O 0.0850(2) 0.5538(2) 0.3318(3)
O25_2 O 0.0629(3) 0.7862(3) 0.7184(3)
O28_2 O 0.0362(3) 0.6871(3) 0.5316(3)
O30_2 O 0.0316(3) 0.4638(3) 0.3129(3)
C6_2 C 0.0292(3) 0.9040(3) 0.4969(4)
C7_2 C 0.0960(3) 0.9969(4) 0.4708(3)
C8_2 C 0.0031(4) 0.9708(3) 0.4040(3)
C9_2 C 0.1540(3) 0.7208(3) 0.7531(4)
C10_2 C 0.2469(4) 0.6540(3) 0.7792(3)
C11_2 C 0.2208(3) 0.7469(4) 0.8460(3)
C17_2 C 0.0148(3) 0.8456(3) 0.5395(3)
C20_2 C 0.0956(3) 0.7352(3) 0.7105(3)
C21_2 C 0.2895(3) 0.5956(3) 0.7648(3)
C22_2 C 0.2352(3) 0.7895(3) 0.9044(3)
C25_2 C 0.0395(3) 0.5148(3) 0.3456(3)
C28_2 C 0.0829(4) 0.9432(3) 0.5108(3)
C31_2 C 0.1932(3) 0.6671(4) 0.7392(3)
C32_2 C 0.2608(3) 0.6932(3) 0.8329(4)
C33_2 C 0.1671(4) 0.7608(3) 0.8068(3)
C36_2 C 0.0108(3) 0.5829(4) 0.4432(3)
H4_2 H 0.1104 0.9336 0.5471
H7_2 H 0.1836 0.6396 0.7029
H8_2 H 0.1396 0.7971 0.8164
H9_2 H 0.2971 0.6836 0.8604
H11_2 H 0.0471 0.6104 0.4336
In1_3 In 1.0000 0.7500 0.6250
O1_2 O 0.9182(3) 0.8038(2) 0.6650(2)
O2_2 O 0.9371(3) 0.7138(3) 0.7184(3)
C1_2 C 0.8460(3) 0.7792(3) 0.7531(4)
C2_2 C 0.9044(3) 0.7648(3) 0.7105(3)
C3_2 C 0.8068(3) 0.8329(4) 0.7392(3)
H1_2 H 0.8164 0.8604 0.7029
O11_2 O 0.9462(2) 0.6682(3) 0.5850(2)
O22_2 O 0.9638(3) 0.8129(3) 0.5316(3)
C4_2 C 0.7531(4) 0.8460(3) 0.7792(3)
C5_2 C 0.7792(3) 0.7531(4) 0.8460(3)
C12_2 C 0.9708(3) 0.5960(3) 0.4969(4)
C13_2 C 0.9040(3) 0.5031(4) 0.4708(3)
C14_2 C 0.9969(4) 0.5292(3) 0.4040(3)
C15_2 C 0.7105(3) 0.9044(3) 0.7648(3)
C16_2 C 0.7648(3) 0.7105(3) 0.9044(3)
C19_2 C 0.9605(3) 0.9852(3) 0.3456(3)
C23_2 C 0.9852(3) 0.6544(3) 0.5395(3)
C24_2 C 0.8456(3) 0.4605(3) 0.4852(3)
C26_2 C 0.7392(3) 0.8068(3) 0.8329(4)
C27_2 C 0.8329(4) 0.7392(3) 0.8068(3)
C30_2 C 0.9892(3) 0.9171(4) 0.4432(3)
C34_2 C 0.9171(4) 0.5568(3) 0.5108(3)
C35_2 C 0.9432(3) 0.4892(3) 0.4171(4)
H2_2 H 0.8604 0.7029 0.8164
H3_2 H 0.7029 0.8164 0.8604
H5_2 H 0.9529 0.8896 0.4336
H10_2 H 0.8896 0.5664 0.5471
H12_2 H 0.9336 0.4529 0.3896
In6_3 In -0.0000 0.2500 0.8750
In5_2 In 0.5000 0.7500 0.3750
In6_4 In 1.0000 0.2500 0.8750
O7_2 O 0.5538(2) 0.6682(3) 0.4150(2)
O9_2 O 0.9182(3) 0.1962(2) 0.8350(2)
O24_2 O 0.4638(3) 0.6871(3) 0.4684(3)
O26_2 O 0.9371(3) 0.2862(3) 0.7816(3)
C6_3 C 0.5960(3) 0.5031(4) 0.5292(3)
C7_3 C 0.5031(4) 0.5292(3) 0.5960(3)
C8_3 C 0.5292(3) 0.5960(3) 0.5031(4)
C9_3 C 0.7792(3) 0.2469(4) 0.6540(3)
C10_3 C 0.8460(3) 0.2208(3) 0.7469(4)
C11_3 C 0.7531(4) 0.1540(3) 0.7208(3)
C17_3 C 0.6544(3) 0.4605(3) 0.5148(3)
C18_3 C 0.4605(3) 0.5148(3) 0.6544(3)
C19_3 C 0.5148(3) 0.6544(3) 0.4605(3)
C20_3 C 0.7648(3) 0.2895(3) 0.5956(3)
C21_3 C 0.9044(3) 0.2352(3) 0.7895(3)
C22_3 C 0.7105(3) 0.0956(3) 0.7352(3)
C28_3 C 0.5568(3) 0.4892(3) 0.5829(4)
C29_3 C 0.4892(3) 0.5829(4) 0.5568(3)
C30_3 C 0.5829(4) 0.5568(3) 0.4892(3)
C31_3 C 0.8329(4) 0.2608(3) 0.6932(3)
C32_3 C 0.8068(3) 0.1671(4) 0.7608(3)
C33_3 C 0.7392(3) 0.1932(3) 0.6671(4)
H4_3 H 0.5664 0.4529 0.6104
H5_3 H 0.6104 0.5664 0.4529
H6_3 H 0.4529 0.6104 0.5664
H7_3 H 0.8604 0.2971 0.6836
H8_3 H 0.7029 0.1836 0.6396
H9_3 H 0.8164 0.1396 0.7971
O9_3 O 0.3318(3) 0.0850(2) 0.5538(2)
O26_3 O 0.3129(3) 0.0316(3) 0.4638(3)
C21_4 C 0.3456(3) 0.0395(3) 0.5148(3)
C32_4 C 0.4432(3) 0.0108(3) 0.5829(4)
H9_4 H 0.4336 0.0471 0.6104
O5_3 O 0.5818(3) 0.8038(2) 0.3350(2)
O8_3 O 0.4462(2) 0.8318(3) 0.4150(2)
O11_3 O 0.4182(3) 0.6962(2) 0.3350(2)
O12_2 O 0.1650(2) 0.5818(3) 0.1962(2)
O22_3 O 0.5629(3) 0.7138(3) 0.2816(3)
O25_3 O 0.5362(3) 0.8129(3) 0.4684(3)
O28_3 O 0.4371(3) 0.7862(3) 0.2816(3)
O29_2 O 0.2184(3) 0.5629(3) 0.2862(3)
C6_4 C 0.6540(3) 0.7792(3) 0.2469(4)
C7_4 C 0.7469(4) 0.8460(3) 0.2208(3)
C8_4 C 0.7208(3) 0.7531(4) 0.1540(3)
C9_4 C 0.4708(3) 0.9040(3) 0.5031(4)
C10_4 C 0.4040(3) 0.9969(4) 0.5292(3)
C11_4 C 0.4969(4) 0.9708(3) 0.5960(3)
C12_3 C 0.3460(3) 0.7208(3) 0.2469(4)
C13_3 C 0.2531(4) 0.6540(3) 0.2208(3)
C14_3 C 0.2792(3) 0.7469(4) 0.1540(3)
C17_4 C 0.5956(3) 0.7648(3) 0.2895(3)
C18_4 C 0.7895(3) 0.9044(3) 0.2352(3)
C19_4 C 0.7352(3) 0.7105(3) 0.0956(3)
C20_4 C 0.4852(3) 0.8456(3) 0.4605(3)
C22_4 C 0.5395(3) 0.9852(3) 0.6544(3)
C23_3 C 0.4044(3) 0.7352(3) 0.2895(3)
C24_3 C 0.2105(3) 0.5956(3) 0.2352(3)
C25_3 C 0.2648(3) 0.7895(3) 0.0956(3)
C28_4 C 0.6932(3) 0.8329(4) 0.2608(3)
C29_4 C 0.7608(3) 0.8068(3) 0.1671(4)
C30_4 C 0.6671(4) 0.7392(3) 0.1932(3)
C31_4 C 0.4171(4) 0.9432(3) 0.4892(3)
C33_4 C 0.5108(3) 0.9171(4) 0.5568(3)
C34_3 C 0.3068(3) 0.6671(4) 0.2608(3)
C35_3 C 0.2392(3) 0.6932(3) 0.1671(4)
C36_3 C 0.3329(4) 0.7608(3) 0.1932(3)
H4_4 H 0.6836 0.8604 0.2971
H5_4 H 0.6396 0.7029 0.1836
H6_4 H 0.7971 0.8164 0.1396
H7_4 H 0.3896 0.9336 0.4529
H8_4 H 0.5471 0.8896 0.5664
H10_3 H 0.3164 0.6396 0.2971
H11_3 H 0.3604 0.7971 0.1836
H12_3 H 0.2029 0.6836 0.1396
O1_3 O 0.1962(2) 0.1650(2) 0.5818(3)
O2_3 O 0.2862(3) 0.2184(3) 0.5629(3)
C1_3 C 0.2208(3) 0.2531(4) 0.6540(3)
C2_3 C 0.2352(3) 0.2105(3) 0.5956(3)
C3_3 C 0.1671(4) 0.2392(3) 0.6932(3)
H1_3 H 0.1396 0.2029 0.6836
O3_2 O 0.0818(3) 0.3038(2) 0.8350(2)
O15_4 O 0.0538(2) 0.1682(3) 0.9150(2)
O20_2 O 0.0629(3) 0.2138(3) 0.7816(3)
O31_4 O 0.0362(3) 0.3129(3) 0.9684(3)
C4_3 C 0.1540(3) 0.2792(3) 0.7469(4)
C5_3 C 0.2469(4) 0.3460(3) 0.7208(3)
C15_3 C 0.0956(3) 0.2648(3) 0.7895(3)
C16_3 C 0.2895(3) 0.4044(3) 0.7352(3)
C26_3 C 0.1932(3) 0.3329(4) 0.7608(3)
C27_3 C 0.2608(3) 0.3068(3) 0.6671(4)
H2_3 H 0.2971 0.3164 0.6396
H3_3 H 0.1836 0.3604 0.7971
O14_4 O 0.9462(2) 0.3318(3) 0.9150(2)
O32_4 O 0.9638(3) 0.1871(3) 0.9684(3)
O4_2 O 0.0850(2) 0.4462(2) 0.1682(3)
O21_2 O 0.0316(3) 0.5362(3) 0.1871(3)
C9_5 C 0.0292(3) 0.0960(3) 0.0031(4)
C10_5 C 0.0960(3) 0.0031(4) 0.0292(3)
C11_5 C 0.0031(4) 0.0292(3) 0.0960(3)
C16_4 C 0.0395(3) 0.4852(3) 0.1544(3)
C27_4 C 0.0108(3) 0.4171(4) 0.0568(3)
H2_4 H 0.0471 0.3896 0.0664
C20_5 C 0.0148(3) 0.1544(3) 0.9605(3)
C31_5 C 0.0829(4) 0.0568(3) 0.9892(3)
H7_5 H 0.1104 0.0664 0.9529
C21_5 C 0.1544(3) 0.9605(3) 0.0148(3)
C32_5 C 0.0568(3) 0.9892(3) 0.0829(4)
H9_5 H 0.0664 0.9529 0.1104
C1_4 C 0.9708(3) 0.4040(3) 0.0031(4)
C4_4 C 0.9040(3) 0.4969(4) 0.0292(3)
C5_4 C 0.9969(4) 0.4708(3) 0.0960(3)
C15_4 C 0.8456(3) 0.5395(3) 0.0148(3)
C22_5 C 0.9605(3) 0.0148(3) 0.1544(3)
C26_4 C 0.9432(3) 0.5108(3) 0.0829(4)
C33_5 C 0.9892(3) 0.0829(4) 0.0568(3)
H3_4 H 0.9336 0.5471 0.1104
H8_5 H 0.9529 0.1104 0.0664
C2_4 C 0.9852(3) 0.3456(3) 0.9605(3)
C3_4 C 0.9171(4) 0.4432(3) 0.9892(3)
H1_4 H 0.8896 0.4336 0.9529
loop_
_geom_bond_atom_site_label_1
_geom_bond_atom_site_label_2
_geom_bond_site_symmetry_1
_geom_bond_site_symmetry_2
In1 O1 1_555 1_555
O1 C2 1_555 1_555
O2 In1 1_555 1_555
C2 O2 1_555 1_555
H1 C3 1_555 1_555
In4 O6 1_555 1_555
In5 O7 1_555 1_555
In8 O12 1_555 1_555
In9 O13 1_555 1_555
O5 In1 1_555 1_555
O6 C18 1_555 1_555
O7 C19 1_555 1_555
O8 In1 1_555 1_555
O11 In1 1_555 1_555
O12 C24 1_555 1_555
O13 C25 1_555 1_555
O15 In2 1_555 1_555
O16 In2 1_555 1_555
O20 In2 1_555 1_555
O22 In1 1_555 1_555
O23 In4 1_555 1_555
O24 In5 1_555 1_555
O25 In1 1_555 1_555
O28 In1 1_555 1_555
O29 In8 1_555 1_555
O30 In9 1_555 1_555
O32 In2 1_555 1_555
C6 C17 1_555 1_555
C7 C18 1_555 1_555
C8 C19 1_555 1_555
C12 C23 1_555 1_555
C13 C24 1_555 1_555
C14 C25 1_555 1_555
C17 O5 1_555 1_555
C18 O23 1_555 1_555
C19 O24 1_555 1_555
C20 O8 1_555 1_555
C23 O11 1_555 1_555
C24 O29 1_555 1_555
C25 O30 1_555 1_555
C28 C6 1_555 1_555
C29 C7 1_555 1_555
C30 C6 1_555 1_555
C34 C12 1_555 1_555
C35 C13 1_555 1_555
C36 C12 1_555 1_555
H4 C28 1_555 1_555
H5 C30 1_555 1_555
H6 C29 1_555 1_555
H7 C31 1_555 1_555
H10 C34 1_555 1_555
H11 C36 1_555 1_555
H12 C35 1_555 1_555
O22 C17 1_555 1_555
O25 C20 1_555 1_555
O28 C23 1_555 1_555
C7 C28 1_555 1_555
C8 C29 1_555 1_555
C8 C30 1_555 1_555
C13 C34 1_555 1_555
C14 C35 1_555 1_555
C14 C36 1_555 1_555
In2_2 O3 1_555 1_555
In3 O4 1_555 1_555
In7 O10 1_555 1_555
O3 C15 1_555 1_555
O4 C16 1_555 1_555
O10 C22 1_555 1_555
O14 In2_2 1_555 1_555
O17 In3 1_555 1_555
O18 In3 1_555 1_555
O19 In3 1_555 1_555
O21 In3 1_555 1_555
O31 In2_2 1_555 1_555
O33 In2_2 1_555 1_555
O34 In3 1_555 1_555
O35 In3 1_555 1_555
O36 In3 1_555 1_555
C5 C16 1_555 1_555
C11 C22 1_555 1_555
C16 O21 1_555 1_555
C26 C4 1_555 1_555
C27 C1 1_555 1_555
C33 C9 1_555 1_555
H2 C27 1_555 1_555
H3 C26 1_555 1_555
H8 C33 1_555 1_555
C4 C15 1_555 1_555
C5 C26 1_555 1_555
C5 C27 1_555 1_555
C11 C33 1_555 1_555
O26 In6 1_555 1_555
In6_2 O9 1_555 1_555
O9 C21 1_555 1_555
O27 In7_2 1_555 1_555
H9 C32 1_555 1_555
O15_2 In4 1_555 1_555
O17_2 In5 1_555 1_555
O18_2 In5 1_555 1_555
O19_2 In5 1_555 1_555
O31_2 In4 1_555 1_555
O34_2 In5 1_555 1_555
O35_2 In5 1_555 1_555
O36_2 In5 1_555 1_555
O14_2 In4_2 1_555 1_555
O16_2 In4_2 1_555 1_555
O32_2 In4_2 1_555 1_555
O33_2 In4_2 1_555 1_555
O17_3 In7 1_555 1_555
O34_3 In7 1_555 1_555
O35_3 In7 1_555 1_555
O15_3 In6 1_555 1_555
O16_3 In6 1_555 1_555
O32_3 In6 1_555 1_555
O14_3 In6_2 1_555 1_555
O18_3 In7_2 1_555 1_555
O19_3 In7_2 1_555 1_555
O31_3 In6_2 1_555 1_555
O33_3 In6_2 1_555 1_555
O36_3 In7_2 1_555 1_555
In9 O6_2 1_555 1_555
O6_2 C18_2 1_555 1_555
O23_2 In9 1_555 1_555
C18_2 O23_2 1_555 1_555
H6_2 C29_2 1_555 1_555
In8 O13_2 1_555 1_555
O5_2 In1_2 1_555 1_555
O8_2 In1_2 1_555 1_555
O19 C21_2 1_555 1_555
O14_3 C22_2 1_555 1_555
O13_2 C25_2 1_555 1_555
O25_2 In1_2 1_555 1_555
O28_2 In1_2 1_555 1_555
O30_2 In8 1_555 1_555
C6_2 C17_2 1_555 1_555
C9_2 C20_2 1_555 1_555
C10_2 C21_2 1_555 1_555
C11_2 C22_2 1_555 1_555
C17_2 O5_2 1_555 1_555
C20_2 O8_2 1_555 1_555
C21_2 O36 1_555 1_555
C22_2 O31_3 1_555 1_555
C25_2 O30_2 1_555 1_555
C28_2 C6_2 1_555 1_555
C31_2 C9_2 1_555 1_555
C32_2 C10_2 1_555 1_555
C33_2 C9_2 1_555 1_555
H4_2 C28_2 1_555 1_555
H7_2 C31_2 1_555 1_555
H8_2 C33_2 1_555 1_555
H9_2 C32_2 1_555 1_555
H11_2 C36_2 1_555 1_555
O25_2 C20_2 1_555 1_555
C7_2 C28_2 1_555 1_555
C10_2 C31_2 1_555 1_555
C11_2 C32_2 1_555 1_555
C11_2 C33_2 1_555 1_555
In1_3 O1_2 1_555 1_555
O1_2 C2_2 1_555 1_555
O2_2 In1_3 1_555 1_555
C1_2 C2_2 1_555 1_555
C2_2 O2_2 1_555 1_555
C3_2 C1_2 1_555 1_555
H1_2 C3_2 1_555 1_555
O19_3 C15_2 1_555 1_555
O14 C16_2 1_555 1_555
O14_2 C19_2 1_555 1_555
O11_2 In1_3 1_555 1_555
O19_2 C24_2 1_555 1_555
O22_2 In1_3 1_555 1_555
C4_2 C3_2 1_555 1_555
C5_2 C16_2 1_555 1_555
C12_2 C23_2 1_555 1_555
C13_2 C24_2 1_555 1_555
C15_2 O36_3 1_555 1_555
C16_2 O31 1_555 1_555
C23_2 O11_2 1_555 1_555
C24_2 O36_2 1_555 1_555
C26_2 C4_2 1_555 1_555
C27_2 C1_2 1_555 1_555
C34_2 C12_2 1_555 1_555
C35_2 C13_2 1_555 1_555
H2_2 C27_2 1_555 1_555
H3_2 C26_2 1_555 1_555
H5_2 C30_2 1_555 1_555
H10_2 C34_2 1_555 1_555
H12_2 C35_2 1_555 1_555
C4_2 C15_2 1_555 1_555
C5_2 C26_2 1_555 1_555
C5_2 C27_2 1_555 1_555
C13_2 C34_2 1_555 1_555
C14_2 C35_2 1_555 1_555
In5_2 O7_2 1_555 1_555
In6_4 O9_2 1_555 1_555
O18 C18_3 1_555 1_555
O7_2 C19_3 1_555 1_555
O9_2 C21_3 1_555 1_555
O17_3 C22_3 1_555 1_555
O24_2 In5_2 1_555 1_555
O26_2 In6_4 1_555 1_555
C6_3 C17_3 1_555 1_555
C7_3 C18_3 1_555 1_555
C8_3 C19_3 1_555 1_555
C9_3 C20_3 1_555 1_555
C10_3 C21_3 1_555 1_555
C11_3 C22_3 1_555 1_555
C17_3 O17_2 1_555 1_555
C18_3 O35 1_555 1_555
C19_3 O24_2 1_555 1_555
C20_3 O18_2 1_555 1_555
C21_3 O26_2 1_555 1_555
C22_3 O34_3 1_555 1_555
C28_3 C6_3 1_555 1_555
C29_3 C7_3 1_555 1_555
C30_3 C6_3 1_555 1_555
C31_3 C9_3 1_555 1_555
C32_3 C10_3 1_555 1_555
C33_3 C9_3 1_555 1_555
H4_3 C28_3 1_555 1_555
H5_3 C30_3 1_555 1_555
H6_3 C29_3 1_555 1_555
H7_3 C31_3 1_555 1_555
H8_3 C33_3 1_555 1_555
H9_3 C32_3 1_555 1_555
O34_2 C17_3 1_555 1_555
O35_2 C20_3 1_555 1_555
C7_3 C28_3 1_555 1_555
C8_3 C29_3 1_555 1_555
C8_3 C30_3 1_555 1_555
C10_3 C31_3 1_555 1_555
C11_3 C32_3 1_555 1_555
C11_3 C33_3 1_555 1_555
In9 O9_3 1_555 1_555
O9_3 C21_4 1_555 1_555
O26_3 In9 1_555 1_555
C21_4 O26_3 1_555 1_555
H9_4 C32_4 1_555 1_555
In8 O12_2 1_555 1_555
O5_3 In5_2 1_555 1_555
O16_2 C18_4 1_555 1_555
O15 C19_4 1_555 1_555
O8_3 In5_2 1_555 1_555
O18_3 C22_4 1_555 1_555
O11_3 In5_2 1_555 1_555
O12_2 C24_3 1_555 1_555
O15_3 C25_3 1_555 1_555
O22_3 In5_2 1_555 1_555
O25_3 In5_2 1_555 1_555
O28_3 In5_2 1_555 1_555
O29_2 In8 1_555 1_555
C6_4 C17_4 1_555 1_555
C7_4 C18_4 1_555 1_555
C8_4 C19_4 1_555 1_555
C9_4 C20_4 1_555 1_555
C11_4 C22_4 1_555 1_555
C12_3 C23_3 1_555 1_555
C13_3 C24_3 1_555 1_555
C14_3 C25_3 1_555 1_555
C17_4 O5_3 1_555 1_555
C18_4 O33_2 1_555 1_555
C19_4 O32 1_555 1_555
C20_4 O8_3 1_555 1_555
C23_3 O11_3 1_555 1_555
C24_3 O29_2 1_555 1_555
C25_3 O32_3 1_555 1_555
C28_4 C6_4 1_555 1_555
C29_4 C7_4 1_555 1_555
C30_4 C6_4 1_555 1_555
C31_4 C9_4 1_555 1_555
C33_4 C9_4 1_555 1_555
C34_3 C12_3 1_555 1_555
C35_3 C13_3 1_555 1_555
C36_3 C12_3 1_555 1_555
H4_4 C28_4 1_555 1_555
H5_4 C30_4 1_555 1_555
H6_4 C29_4 1_555 1_555
H7_4 C31_4 1_555 1_555
H8_4 C33_4 1_555 1_555
H10_3 C34_3 1_555 1_555
H11_3 C36_3 1_555 1_555
H12_3 C35_3 1_555 1_555
O22_3 C17_4 1_555 1_555
O25_3 C20_4 1_555 1_555
O28_3 C23_3 1_555 1_555
C7_4 C28_4 1_555 1_555
C8_4 C29_4 1_555 1_555
C8_4 C30_4 1_555 1_555
C10_4 C31_4 1_555 1_555
C11_4 C33_4 1_555 1_555
C13_3 C34_3 1_555 1_555
C14_3 C35_3 1_555 1_555
C14_3 C36_3 1_555 1_555
In9 O1_3 1_555 1_555
O1_3 C2_3 1_555 1_555
O2_3 In9 1_555 1_555
C1_3 C2_3 1_555 1_555
C2_3 O2_3 1_555 1_555
C3_3 C1_3 1_555 1_555
H1_3 C3_3 1_555 1_555
In6_3 O3_2 1_555 1_555
O3_2 C15_3 1_555 1_555
O17 C16_3 1_555 1_555
O15_4 In6_3 1_555 1_555
O20_2 In6_3 1_555 1_555
O31_4 In6_3 1_555 1_555
C4_3 C3_3 1_555 1_555
C5_3 C16_3 1_555 1_555
C15_3 O20_2 1_555 1_555
C16_3 O34 1_555 1_555
C26_3 C4_3 1_555 1_555
C27_3 C1_3 1_555 1_555
H2_3 C27_3 1_555 1_555
H3_3 C26_3 1_555 1_555
C4_3 C15_3 1_555 1_555
C5_3 C26_3 1_555 1_555
C5_3 C27_3 1_555 1_555
O14_4 In6_4 1_555 1_555
O32_4 In6_4 1_555 1_555
In8 O4_2 1_555 1_555
O4_2 C16_4 1_555 1_555
O21_2 In8 1_555 1_555
C16_4 O21_2 1_555 1_555
H2_4 C27_4 1_555 1_555
C20_5 O15_4 1_555 1_555
H7_5 C31_5 1_555 1_555
O16_3 C21_5 1_555 1_555
H9_5 C32_5 1_555 1_555
O16 C15_4 1_555 1_555
O15_2 C22_5 1_555 1_555
C26_4 C4_4 1_555 1_555
H3_4 C26_4 1_555 1_555
H8_5 C33_5 1_555 1_555
C4_4 C15_4 1_555 1_555
C5_4 C26_4 1_555 1_555
O14_4 C2_4 1_555 1_555
H1_4 C3_4 1_555 1_555

#END
