
###############################################################################
#
# This file contains modified crystal structure data generated from the
# MOF subset of the Cambridge Structural Database (CSD) v543 
# hosted by the Cambridge Crystallographic Data Centre (CCDC).
#
# This work is licensed under the Creative Commons
# Attribution-NonCommercial-ShareAlike 4.0 International License.
# To view a copy of this license, visit
# http://creativecommons.org/licenses/by-nc-sa/4.0/
# or send a letter to
# Creative Commons, PO Box 1866, Mountain View, CA 94042, USA.
#
# CIF created using the CSD Python API on 29 September 2022
# The structure has been converted into the P1 space group
# The structure has a 3D framework
# The original CSD entry TILCUN is in the monoclinic crystal system
# The framework has been calculated to contain at least 10.0% void space
# The void calculation uses a probe of radius 1.32A, grid spacing 0.4
#
###############################################################################

data_TILCUN
_chemical_formula_moiety         '(C120 H80 N8 O30 Zn8)n'
_symmetry_cell_setting           triclinic
_symmetry_space_group_name_H-M   'P 1'
_symmetry_Int_Tables_number      1
_space_group_name_Hall           'P 1'
loop_
_symmetry_equiv_pos_site_id
_symmetry_equiv_pos_as_xyz
1 x,y,z
_cell_length_a                   14.161(2)
_cell_length_b                   13.997(2)
_cell_length_c                   16.339(3)
_cell_angle_alpha                90
_cell_angle_beta                 108.812(3)
_cell_angle_gamma                90
_cell_volume                     3065.58
loop_
_atom_site_label
_atom_site_type_symbol
_atom_site_fract_x
_atom_site_fract_y
_atom_site_fract_z
O18 O 0.1251(2) 0.4430(2) 0.1146(2)
C43 C 0.0526(3) 0.1597(3) 0.3617(3)
C44 C 0.0984(4) 0.1031(3) 0.4328(3)
H27 H 0.0599 0.0629 0.4544
C45 C 0.2010(4) 0.1056(4) 0.4724(3)
H28 H 0.2311 0.0696 0.5218
C46 C 0.2574(4) 0.1620(3) 0.4376(3)
H29 H 0.3264 0.1630 0.4626
C47 C 0.2129(3) 0.2171(3) 0.3663(3)
H30 H 0.2528 0.2536 0.3430
C48 C 0.1095(3) 0.2201(3) 0.3273(3)
C49 C 0.0628(3) 0.2835(3) 0.2532(3)
C50 C 0.1063(3) 0.3581(3) 0.2301(3)
H32 H 0.1682 0.3771 0.2674
C51 C 0.0635(3) 0.4132(3) 0.1494(3)
O4 O 0.0679(2) 0.3775(2) 0.9417(2)
C7 C 0.0340(4) 0.1045(4) 0.8317(3)
H5 H 0.0681 0.0858 0.7944
C8 C 0.0383(3) 0.1978(4) 0.8588(3)
H6 H 0.0760 0.2416 0.8398
Zn6 Zn 0.10362(3) 0.50860(3) 0.99607(3)
Zn4 Zn 0.7500 0.04789(5) 0.2500
Zn1 Zn 0.7500 0.25494(5) 0.2500
Zn3 Zn 0.89638(3) 0.49140(3) 0.00393(3)
O1 O 0.7972(2) 0.2252(2) 0.14435(18)
O2 O 0.7497(2) 0.0721(2) 0.12947(19)
O5 O 0.6058(2) 0.2333(2) 0.17657(18)
O6 O 0.5979(2) 0.0772(2) 0.2057(2)
O7 O 0.5296(2) 0.4252(2) 0.38027(19)
O8 O 0.3749(2) 0.4430(2) 0.3854(2)
N1 N 0.7500 0.9019(3) 0.2500
N2 N 0.7500 0.3990(3) 0.2500
N3 N 0.7511(2) 0.4907(3) 0.0019(2)
C1 C 0.7866(3) 0.1460(3) 0.1067(3)
C2 C 0.8205(3) 0.1325(3) 0.0311(3)
C3 C 0.8876(3) 0.1850(3) 0.0124(3)
H2 H 0.9079 0.2413 0.0433
C11 C 0.5594(3) 0.1562(3) 0.1769(3)
C12 C 0.4474(3) 0.1597(3) 0.1383(3)
C13 C 0.4016(4) 0.1031(3) 0.0672(3)
H7 H 0.4401 0.0629 0.0456
C14 C 0.2990(4) 0.1056(4) 0.0276(3)
C15 C 0.2426(4) 0.1620(3) 0.0624(3)
H9 H 0.1736 0.1630 0.0374
C16 C 0.2871(3) 0.2171(3) 0.1337(3)
H10 H 0.2472 0.2536 0.1570
C17 C 0.3905(3) 0.2201(3) 0.1727(3)
C18 C 0.4372(3) 0.2835(3) 0.2468(3)
H11 H 0.5026 0.2701 0.2802
C19 C 0.3937(3) 0.3581(3) 0.2699(3)
H12 H 0.3318 0.3771 0.2326
C20 C 0.4365(3) 0.4132(3) 0.3506(3)
C21 C 0.6795(3) 0.8531(3) 0.1922(3)
H13 H 0.6296 0.8867 0.1511
C22 C 0.6766(4) 0.7548(3) 0.1902(3)
H14 H 0.6254 0.7232 0.1487
C23 C 0.7500 0.7036(4) 0.2500
C24 C 0.7500 0.5974(4) 0.2500
C25 C 0.8252(3) 0.5463(3) 0.2330(3)
H15 H 0.8768 0.5780 0.2208
C26 C 0.8229(3) 0.4487(3) 0.2344(3)
H16 H 0.8747 0.4153 0.2240
C29 C 0.5532(3) 0.4975(3) 0.0013(3)
C30 C 0.6117(3) 0.4182(3) 0.0283(3)
H19 H 0.5858 0.3648 0.0474
C31 C 0.7084(3) 0.4168(3) 0.0272(3)
H20 H 0.7458 0.3614 0.0451
Zn5 Zn 0.60362(3) 0.49140(3) 0.49607(3)
Zn7 Zn 0.39638(3) 0.50860(3) 0.50393(3)
O9 O 0.7028(2) 0.2252(2) 0.35565(18)
O10 O 0.7503(2) 0.0721(2) 0.37053(19)
O11 O 0.5860(2) 0.3659(2) 0.5503(2)
O12 O 0.4321(2) 0.3775(2) 0.5583(2)
O13 O 0.9321(2) 0.6225(2) 0.0583(2)
O14 O 0.5679(2) 0.6225(2) 0.4417(2)
O15 O 0.8942(2) 0.2333(2) 0.32343(18)
O16 O 0.9021(2) 0.0772(2) 0.2943(2)
O17 O 0.9704(2) 0.4252(2) 0.11973(19)
O20 O 0.6251(2) 0.5570(2) 0.6146(2)
N6 N 0.7489(2) 0.4907(3) 0.4981(2)
C32 C 0.7134(3) 0.1460(3) 0.3933(3)
C33 C 0.6795(3) 0.1325(3) 0.4689(3)
H21 H 0.7080 0.0828 0.5065
C34 C 0.6124(3) 0.1850(3) 0.4876(3)
H22 H 0.5921 0.2413 0.4567
C35 C 0.5669(3) 0.1603(3) 0.5546(3)
C36 C 0.5686(4) 0.0667(3) 0.5830(3)
H23 H 0.6032 0.0210 0.5626
C37 C 0.5206(4) 0.0392(4) 0.6402(3)
C38 C 0.4660(4) 0.1045(4) 0.6683(3)
H25 H 0.4319 0.0858 0.7056
C39 C 0.4617(3) 0.1978(4) 0.6412(3)
H26 H 0.4240 0.2416 0.6602
C40 C 0.5124(3) 0.2278(3) 0.5863(3)
C41 C 0.5099(3) 0.3313(3) 0.5627(3)
C42 C 0.9406(3) 0.1562(3) 0.3231(3)
H31 H 0.9974 0.2701 0.2198
C52 C 0.8205(3) 0.8531(3) 0.3078(3)
H33 H 0.8704 0.8867 0.3489
C53 C 0.8234(4) 0.7548(3) 0.3098(3)
H34 H 0.8746 0.7232 0.3513
C54 C 0.6748(3) 0.5463(3) 0.2670(3)
H35 H 0.6232 0.5780 0.2792
C55 C 0.6771(3) 0.4487(3) 0.2656(3)
H36 H 0.6253 0.4153 0.2760
C56 C 0.3043(3) 0.4319(3) 0.0233(4)
H37 H 0.2755 0.3791 0.0404
C57 C 0.4016(3) 0.4250(3) 0.0256(4)
H38 H 0.4374 0.3691 0.0450
O3 O 0.9140(2) 0.3659(2) 0.9497(2)
H1 H 0.7920 0.0828 0.9935
C4 C 0.9331(3) 0.1603(3) 0.9454(3)
C5 C 0.9314(4) 0.0667(3) 0.9170(3)
H3 H 0.8968 0.0210 0.9374
C6 C 0.9794(4) 0.0392(4) 0.8598(3)
C9 C 0.9876(3) 0.2278(3) 0.9137(3)
C10 C 0.9901(3) 0.3313(3) 0.9373(3)
H8 H 0.2689 0.0696 0.9782
C27 C 0.6957(3) 0.5681(3) 0.9767(4)
H17 H 0.7245 0.6209 0.9596
C28 C 0.5984(3) 0.5750(3) 0.9744(4)
H18 H 0.5626 0.6309 0.9550
O19 O 0.8749(2) 0.5570(2) 0.8854(2)
N5 N 0.2489(2) 0.5093(3) 0.9981(2)
C58 C 0.4468(3) 0.5025(3) 0.9987(3)
C59 C 0.3883(3) 0.5818(3) 0.9717(3)
H39 H 0.4142 0.6352 0.9526
C60 C 0.2916(3) 0.5832(3) 0.9728(3)
H40 H 0.2542 0.6386 0.9549
H24 H 0.5253 0.9764 0.6598
N5_2 N 0.2511(2) 0.5093(3) 0.5019(2)
C56_2 C 0.1957(3) 0.4319(3) 0.4767(4)
H37_2 H 0.2245 0.3791 0.4596
C57_2 C 0.0984(3) 0.4250(3) 0.4744(4)
H38_2 H 0.0626 0.3691 0.4550
C58_2 C 0.0532(3) 0.5025(3) 0.5013(3)
C59_2 C 0.1117(3) 0.5818(3) 0.5283(3)
H39_2 H 0.0858 0.6352 0.5474
C60_2 C 0.2084(3) 0.5832(3) 0.5272(3)
H40_2 H 0.2458 0.6386 0.5451
C27_2 C 0.8043(3) 0.5681(3) 0.5233(4)
H17_2 H 0.7755 0.6209 0.5404
C28_2 C 0.9016(3) 0.5750(3) 0.5256(4)
H18_2 H 0.9374 0.6309 0.5450
C29_2 C 0.9468(3) 0.4975(3) 0.4987(3)
C30_2 C 0.8883(3) 0.4182(3) 0.4717(3)
H19_2 H 0.9142 0.3648 0.4526
C31_2 C 0.7916(3) 0.4168(3) 0.4728(3)
H20_2 H 0.7542 0.3614 0.4549
N4 N 0.2500 0.0981(3) 0.7500
H24_2 H 0.4747 0.0236 0.3402
O3_2 O 0.0860(2) 0.6341(2) 0.0503(2)
H1_2 H 0.2080 0.9172 0.0065
C4_2 C 0.0669(3) 0.8397(3) 0.0546(3)
C5_2 C 0.0686(4) 0.9333(3) 0.0830(3)
H3_2 H 0.1032 0.9790 0.0626
C6_2 C 0.0206(4) 0.9608(4) 0.1402(3)
C9_2 C 0.0124(3) 0.7722(3) 0.0863(3)
C10_2 C 0.0099(3) 0.6687(3) 0.0627(3)
H8_2 H 0.7311 0.9304 0.0218
Zn1_2 Zn 0.2500 0.74506(5) 0.7500
Zn2 Zn 0.2500 0.95211(5) 0.7500
O1_2 O 0.2028(2) 0.7748(2) 0.85565(18)
O2_2 O 0.2503(2) 0.9279(2) 0.87053(19)
O5_2 O 0.3942(2) 0.7667(2) 0.82343(18)
O6_2 O 0.4021(2) 0.9228(2) 0.7943(2)
O7_2 O 0.4704(2) 0.5748(2) 0.61973(19)
N2_2 N 0.2500 0.6010(3) 0.7500
C1_2 C 0.2134(3) 0.8540(3) 0.8933(3)
C2_2 C 0.1795(3) 0.8675(3) 0.9689(3)
C3_2 C 0.1124(3) 0.8150(3) 0.9876(3)
H2_2 H 0.0921 0.7587 0.9567
C11_2 C 0.4406(3) 0.8438(3) 0.8231(3)
C12_2 C 0.5526(3) 0.8403(3) 0.8617(3)
C13_2 C 0.5984(4) 0.8969(3) 0.9328(3)
H7_2 H 0.5599 0.9371 0.9544
C14_2 C 0.7010(4) 0.8944(4) 0.9724(3)
C15_2 C 0.7574(4) 0.8380(3) 0.9376(3)
H9_2 H 0.8264 0.8370 0.9626
C16_2 C 0.7129(3) 0.7829(3) 0.8663(3)
H10_2 H 0.7528 0.7464 0.8430
C17_2 C 0.6095(3) 0.7799(3) 0.8273(3)
C18_2 C 0.5628(3) 0.7165(3) 0.7532(3)
H11_2 H 0.4974 0.7299 0.7198
C19_2 C 0.6063(3) 0.6419(3) 0.7301(3)
H12_2 H 0.6682 0.6229 0.7674
C20_2 C 0.5635(3) 0.5868(3) 0.6494(3)
C21_2 C 0.3205(3) 0.1469(3) 0.8078(3)
H13_2 H 0.3704 0.1133 0.8489
C22_2 C 0.3234(4) 0.2452(3) 0.8098(3)
H14_2 H 0.3746 0.2768 0.8513
C23_2 C 0.2500 0.2964(4) 0.7500
C24_2 C 0.2500 0.4026(4) 0.7500
C25_2 C 0.1748(3) 0.4537(3) 0.7670(3)
H15_2 H 0.1232 0.4220 0.7792
C26_2 C 0.1771(3) 0.5513(3) 0.7656(3)
H16_2 H 0.1253 0.5847 0.7760
O9_2 O 0.2972(2) 0.7748(2) 0.64435(18)
O10_2 O 0.2497(2) 0.9279(2) 0.62947(19)
O11_2 O 0.4140(2) 0.6341(2) 0.4497(2)
O15_2 O 0.1058(2) 0.7667(2) 0.67657(18)
O16_2 O 0.0979(2) 0.9228(2) 0.7057(2)
O17_2 O 0.0296(2) 0.5748(2) 0.88027(19)
C32_2 C 0.2866(3) 0.8540(3) 0.6067(3)
C33_2 C 0.3205(3) 0.8675(3) 0.5311(3)
H21_2 H 0.2920 0.9172 0.4935
C34_2 C 0.3876(3) 0.8150(3) 0.5124(3)
H22_2 H 0.4079 0.7587 0.5433
C35_2 C 0.4331(3) 0.8397(3) 0.4454(3)
C36_2 C 0.4314(4) 0.9333(3) 0.4170(3)
H23_2 H 0.3968 0.9790 0.4374
C37_2 C 0.4794(4) 0.9608(4) 0.3598(3)
C38_2 C 0.5340(4) 0.8955(4) 0.3317(3)
H25_2 H 0.5681 0.9142 0.2944
C39_2 C 0.5383(3) 0.8022(4) 0.3588(3)
H26_2 H 0.5760 0.7584 0.3398
C40_2 C 0.4876(3) 0.7722(3) 0.4137(3)
C41_2 C 0.4901(3) 0.6687(3) 0.4373(3)
C42_2 C 0.0594(3) 0.8438(3) 0.6769(3)
H31_2 H 0.0026 0.7299 0.7802
C52_2 C 0.1795(3) 0.1469(3) 0.6922(3)
H33_2 H 0.1296 0.1133 0.6511
C53_2 C 0.1766(4) 0.2452(3) 0.6902(3)
H34_2 H 0.1254 0.2768 0.6487
C54_2 C 0.3252(3) 0.4537(3) 0.7330(3)
H35_2 H 0.3768 0.4220 0.7208
C55_2 C 0.3229(3) 0.5513(3) 0.7344(3)
H36_2 H 0.3747 0.5847 0.7240
C7_2 C 0.9660(4) 0.8955(4) 0.1683(3)
H5_2 H 0.9319 0.9142 0.2056
C8_2 C 0.9617(3) 0.8022(4) 0.1412(3)
H6_2 H 0.9240 0.7584 0.1602
C43_2 C 0.9474(3) 0.8403(3) 0.6383(3)
C44_2 C 0.9016(4) 0.8969(3) 0.5672(3)
H27_2 H 0.9401 0.9371 0.5456
C45_2 C 0.7990(4) 0.8944(4) 0.5276(3)
H28_2 H 0.7689 0.9304 0.4782
C46_2 C 0.7426(4) 0.8380(3) 0.5624(3)
H29_2 H 0.6736 0.8370 0.5374
C47_2 C 0.7871(3) 0.7829(3) 0.6337(3)
H30_2 H 0.7472 0.7464 0.6570
C48_2 C 0.8905(3) 0.7799(3) 0.6727(3)
C49_2 C 0.9372(3) 0.7165(3) 0.7468(3)
C50_2 C 0.8937(3) 0.6419(3) 0.7699(3)
H32_2 H 0.8318 0.6229 0.7326
C51_2 C 0.9365(3) 0.5868(3) 0.8506(3)
H4 H 0.9747 0.9764 0.8402
H4_2 H 0.0253 0.0236 0.1598
loop_
_geom_bond_atom_site_label_1
_geom_bond_atom_site_label_2
_geom_bond_site_symmetry_1
_geom_bond_site_symmetry_2
C44 C43 1_555 1_555
H27 C44 1_555 1_555
C45 C44 1_555 1_555
H28 C45 1_555 1_555
C46 C45 1_555 1_555
H29 C46 1_555 1_555
C47 C46 1_555 1_555
H30 C47 1_555 1_555
C48 C43 1_555 1_555
C49 C48 1_555 1_555
C50 C49 1_555 1_555
H32 C50 1_555 1_555
O18 C51 1_555 1_555
C47 C48 1_555 1_555
C50 C51 1_555 1_555
H5 C7 1_555 1_555
C8 C7 1_555 1_555
H6 C8 1_555 1_555
Zn6 O4 1_555 1_555
Zn1 O1 1_555 1_555
Zn4 O2 1_555 1_555
O1 C1 1_555 1_555
O2 C1 1_555 1_555
O5 Zn1 1_555 1_555
O6 Zn4 1_555 1_555
O7 C20 1_555 1_555
O8 C20 1_555 1_555
N1 C21 1_555 1_555
N2 Zn1 1_555 1_555
N3 Zn3 1_555 1_555
C1 C2 1_555 1_555
C3 C2 1_555 1_555
H2 C3 1_555 1_555
C11 O5 1_555 1_555
C12 C11 1_555 1_555
C13 C12 1_555 1_555
H7 C13 1_555 1_555
C14 C13 1_555 1_555
C15 C14 1_555 1_555
H9 C15 1_555 1_555
C16 C15 1_555 1_555
H10 C16 1_555 1_555
C17 C12 1_555 1_555
C18 C17 1_555 1_555
H11 C18 1_555 1_555
C19 C18 1_555 1_555
H12 C19 1_555 1_555
C20 C19 1_555 1_555
C21 H13 1_555 1_555
C22 C21 1_555 1_555
H14 C22 1_555 1_555
C23 C22 1_555 1_555
C24 C23 1_555 1_555
C25 C24 1_555 1_555
H15 C25 1_555 1_555
C26 N2 1_555 1_555
H16 C26 1_555 1_555
C30 C29 1_555 1_555
H19 C30 1_555 1_555
C31 N3 1_555 1_555
H20 C31 1_555 1_555
Zn5 O7 1_555 1_555
Zn7 O8 1_555 1_555
O9 Zn1 1_555 1_555
O10 Zn4 1_555 1_555
O11 Zn5 1_555 1_555
O12 Zn7 1_555 1_555
O13 Zn3 1_555 1_555
O14 Zn5 1_555 1_555
O15 Zn1 1_555 1_555
O16 Zn4 1_555 1_555
O17 Zn3 1_555 1_555
O20 Zn5 1_555 1_555
N6 Zn5 1_555 1_555
C32 O9 1_555 1_555
C33 C32 1_555 1_555
H21 C33 1_555 1_555
C34 C33 1_555 1_555
H22 C34 1_555 1_555
C35 C34 1_555 1_555
C36 C35 1_555 1_555
H23 C36 1_555 1_555
C37 C36 1_555 1_555
C38 C37 1_555 1_555
H25 C38 1_555 1_555
C39 C38 1_555 1_555
H26 C39 1_555 1_555
C40 C35 1_555 1_555
C41 O11 1_555 1_555
C42 O15 1_555 1_555
C52 N1 1_555 1_555
H33 C52 1_555 1_555
C53 C23 1_555 1_555
H34 C53 1_555 1_555
C54 C24 1_555 1_555
H35 C54 1_555 1_555
C55 N2 1_555 1_555
H36 C55 1_555 1_555
C56 H37 1_555 1_555
C57 C56 1_555 1_555
H38 C57 1_555 1_555
O6 C11 1_555 1_555
C16 C17 1_555 1_555
C25 C26 1_555 1_555
C30 C31 1_555 1_555
O10 C32 1_555 1_555
O12 C41 1_555 1_555
O16 C42 1_555 1_555
C39 C40 1_555 1_555
C40 C41 1_555 1_555
C52 C53 1_555 1_555
C54 C55 1_555 1_555
O3 C10 1_555 1_555
C5 C4 1_555 1_555
H3 C5 1_555 1_555
C6 C5 1_555 1_555
C9 C4 1_555 1_555
C10 C9 1_555 1_555
H17 C27 1_555 1_555
C28 C27 1_555 1_555
H18 C28 1_555 1_555
Zn6 N5 1_555 1_555
C59 C58 1_555 1_555
H39 C59 1_555 1_555
C60 N5 1_555 1_555
H40 C60 1_555 1_555
C59 C60 1_555 1_555
Zn7 N5_2 1_555 1_555
N5_2 C56_2 1_555 1_555
C56_2 H37_2 1_555 1_555
C57_2 C56_2 1_555 1_555
H38_2 C57_2 1_555 1_555
C59_2 C58_2 1_555 1_555
H39_2 C59_2 1_555 1_555
C60_2 N5_2 1_555 1_555
H40_2 C60_2 1_555 1_555
C57_2 C58_2 1_555 1_555
C59_2 C60_2 1_555 1_555
C27_2 N6 1_555 1_555
H17_2 C27_2 1_555 1_555
C28_2 C27_2 1_555 1_555
H18_2 C28_2 1_555 1_555
C29_2 C28_2 1_555 1_555
C30_2 C29_2 1_555 1_555
H19_2 C30_2 1_555 1_555
C31_2 N6 1_555 1_555
H20_2 C31_2 1_555 1_555
C30_2 C31_2 1_555 1_555
O3_2 C10_2 1_555 1_555
C5_2 C4_2 1_555 1_555
H3_2 C5_2 1_555 1_555
C6_2 C5_2 1_555 1_555
C9_2 C4_2 1_555 1_555
C10_2 C9_2 1_555 1_555
Zn1_2 O1_2 1_555 1_555
Zn2 O2_2 1_555 1_555
O1_2 C1_2 1_555 1_555
O2_2 C1_2 1_555 1_555
O5_2 Zn1_2 1_555 1_555
O6_2 Zn2 1_555 1_555
O7_2 C20_2 1_555 1_555
O20 C20_2 1_555 1_555
N4 C21_2 1_555 1_555
N2_2 Zn1_2 1_555 1_555
C1_2 C2_2 1_555 1_555
C3_2 C2_2 1_555 1_555
H2_2 C3_2 1_555 1_555
C11_2 O5_2 1_555 1_555
C12_2 C11_2 1_555 1_555
C13_2 C12_2 1_555 1_555
H7_2 C13_2 1_555 1_555
C14_2 C13_2 1_555 1_555
C15_2 C14_2 1_555 1_555
H9_2 C15_2 1_555 1_555
C16_2 C15_2 1_555 1_555
H10_2 C16_2 1_555 1_555
C17_2 C12_2 1_555 1_555
C18_2 C17_2 1_555 1_555
H11_2 C18_2 1_555 1_555
C19_2 C18_2 1_555 1_555
H12_2 C19_2 1_555 1_555
C20_2 C19_2 1_555 1_555
C21_2 H13_2 1_555 1_555
C22_2 C21_2 1_555 1_555
H14_2 C22_2 1_555 1_555
C23_2 C22_2 1_555 1_555
C24_2 C23_2 1_555 1_555
C25_2 C24_2 1_555 1_555
H15_2 C25_2 1_555 1_555
C26_2 N2_2 1_555 1_555
H16_2 C26_2 1_555 1_555
Zn7 O7_2 1_555 1_555
O9_2 Zn1_2 1_555 1_555
O10_2 Zn2 1_555 1_555
O11_2 Zn7 1_555 1_555
O15_2 Zn1_2 1_555 1_555
O16_2 Zn2 1_555 1_555
O17_2 Zn6 1_555 1_555
C32_2 O9_2 1_555 1_555
C33_2 C32_2 1_555 1_555
H21_2 C33_2 1_555 1_555
C34_2 C33_2 1_555 1_555
H22_2 C34_2 1_555 1_555
C35_2 C34_2 1_555 1_555
C36_2 C35_2 1_555 1_555
H23_2 C36_2 1_555 1_555
C37_2 C36_2 1_555 1_555
C38_2 C37_2 1_555 1_555
H25_2 C38_2 1_555 1_555
C39_2 C38_2 1_555 1_555
H26_2 C39_2 1_555 1_555
C40_2 C35_2 1_555 1_555
C41_2 O11_2 1_555 1_555
C42_2 O15_2 1_555 1_555
C52_2 N4 1_555 1_555
H33_2 C52_2 1_555 1_555
C53_2 C23_2 1_555 1_555
H34_2 C53_2 1_555 1_555
C54_2 C24_2 1_555 1_555
H35_2 C54_2 1_555 1_555
C55_2 N2_2 1_555 1_555
H36_2 C55_2 1_555 1_555
O6_2 C11_2 1_555 1_555
C16_2 C17_2 1_555 1_555
C25_2 C26_2 1_555 1_555
O10_2 C32_2 1_555 1_555
O14 C41_2 1_555 1_555
O16_2 C42_2 1_555 1_555
C39_2 C40_2 1_555 1_555
C40_2 C41_2 1_555 1_555
C52_2 C53_2 1_555 1_555
C54_2 C55_2 1_555 1_555
H5_2 C7_2 1_555 1_555
C8_2 C7_2 1_555 1_555
H6_2 C8_2 1_555 1_555
C44_2 C43_2 1_555 1_555
H27_2 C44_2 1_555 1_555
C45_2 C44_2 1_555 1_555
H28_2 C45_2 1_555 1_555
C46_2 C45_2 1_555 1_555
H29_2 C46_2 1_555 1_555
C47_2 C46_2 1_555 1_555
H30_2 C47_2 1_555 1_555
C48_2 C43_2 1_555 1_555
C49_2 C48_2 1_555 1_555
C50_2 C49_2 1_555 1_555
H32_2 C50_2 1_555 1_555
O19 C51_2 1_555 1_555
C47_2 C48_2 1_555 1_555
C50_2 C51_2 1_555 1_555

#END
