
###############################################################################
#
# This file contains modified crystal structure data generated from the
# MOF subset of the Cambridge Structural Database (CSD) v543 
# hosted by the Cambridge Crystallographic Data Centre (CCDC).
#
# This work is licensed under the Creative Commons
# Attribution-NonCommercial-ShareAlike 4.0 International License.
# To view a copy of this license, visit
# http://creativecommons.org/licenses/by-nc-sa/4.0/
# or send a letter to
# Creative Commons, PO Box 1866, Mountain View, CA 94042, USA.
#
# CIF created using the CSD Python API on 29 September 2022
# The structure has been converted into the P1 space group
# The structure has a 3D framework
# The original CSD entry TILDIC is in the monoclinic crystal system
# The framework has been calculated to contain at least 10.0% void space
# The void calculation uses a probe of radius 1.32A, grid spacing 0.4
#
###############################################################################

data_TILDIC
_chemical_formula_moiety         '(C62 H88 O56 Tb8)n'
_symmetry_cell_setting           triclinic
_symmetry_space_group_name_H-M   'P 1'
_symmetry_Int_Tables_number      1
_space_group_name_Hall           'P 1'
loop_
_symmetry_equiv_pos_site_id
_symmetry_equiv_pos_as_xyz
1 x,y,z
_cell_length_a                   7.942(2)
_cell_length_b                   14.950(2)
_cell_length_c                   19.644(4)
_cell_angle_alpha                90
_cell_angle_beta                 94.544(14)
_cell_angle_gamma                90
_cell_volume                     2325.06
loop_
_atom_site_label
_atom_site_type_symbol
_atom_site_fract_x
_atom_site_fract_y
_atom_site_fract_z
O16 O 0.0058(5) 0.4552(3) 0.4394(2)
Tb5 Tb 0.75632(3) 0.037132(16) 0.512260(13)
Tb1 Tb 0.74368(3) 0.462868(16) 0.487740(13)
O1 O 0.6472(5) 0.4461(3) 0.3692(2)
O2 O 0.6665(5) 0.3224(3) 0.4283(2)
O3 O 0.7674(5) 0.6133(3) 0.4413(2)
O4 O 0.5118(5) 0.5778(3) 0.4664(2)
O5 O 0.5058(5) 0.9552(3) 0.4394(2)
O6 O 0.7651(5) 0.9529(3) 0.4083(2)
O7 O 0.8840(5) 0.3555(3) 0.5606(2)
H1 H 0.8604 0.3004 0.5642
H2 H 0.9867 0.3628 0.5752
C1 C 0.6307(7) 0.3633(4) 0.3719(3)
C2 C 0.5732(7) 0.3095(4) 0.3096(3)
H3 H 0.4884 0.2669 0.3218
H4 H 0.6685 0.2758 0.2952
C3 C 0.5000 0.3656(6) 0.2500
H5 H 0.5869 0.4034 0.2345
C4 C 0.6129(7) 0.6346(4) 0.4438(3)
C5 C 0.5479(8) 0.7249(4) 0.4218(4)
H6 H 0.5567 0.7645 0.4610
H7 H 0.4292 0.7196 0.4065
C6 C 0.6401(9) 0.7673(4) 0.3649(3)
H8 H 0.6308 0.7284 0.3253
H9 H 0.7590 0.7730 0.3798
C7 C 0.5685(7) 0.8606(4) 0.3443(3)
H10 H 0.6142 0.8799 0.3024
H11 H 0.4466 0.8570 0.3362
C8 C 0.6137(7) 0.9269(4) 0.3996(3)
Tb2 Tb 0.25632(3) 0.462868(16) 0.012260(13)
Tb3 Tb 0.25632(3) 0.537132(16) 0.512260(13)
Tb4 Tb 0.24368(3) 0.962868(16) 0.487740(13)
O8 O 0.3528(5) 0.4461(3) 0.1308(2)
O9 O 0.3335(5) 0.3224(3) 0.0717(2)
O10 O 0.2326(5) 0.3867(3) 0.5587(2)
O11 O 0.2326(5) 0.6133(3) 0.0587(2)
O12 O 0.4882(5) 0.4222(3) 0.5336(2)
O14 O 0.4882(5) 0.5778(3) 0.0336(2)
O15 O 0.4942(5) 0.0448(3) 0.5606(2)
O17 O 0.9942(5) 0.5448(3) 0.5606(2)
O20 O 0.2349(5) 0.0471(3) 0.5917(2)
O21 O 0.7349(5) 0.5471(3) 0.5917(2)
C9 C 0.3693(7) 0.3633(4) 0.1281(3)
C10 C 0.4268(7) 0.3095(4) 0.1904(3)
H14 H 0.5116 0.2669 0.1782
H15 H 0.3315 0.2758 0.2048
H16 H 0.4131 0.4034 0.2655
C11 C 0.3871(7) 0.3654(4) 0.5562(3)
C12 C 0.4521(8) 0.2751(4) 0.5782(4)
H17 H 0.4433 0.2355 0.5390
H18 H 0.5708 0.2804 0.5935
C13 C 0.3599(9) 0.2327(4) 0.6351(3)
H19 H 0.3692 0.2716 0.6747
H20 H 0.2410 0.2270 0.6202
C14 C 0.4315(7) 0.1394(4) 0.6557(3)
H21 H 0.3858 0.1201 0.6976
H22 H 0.5534 0.1430 0.6638
C15 C 0.3863(7) 0.0731(4) 0.6004(3)
O13 O 0.5118(5) 0.4222(3) 0.9664(2)
O18 O 0.0058(5) 0.5448(3) 0.9394(2)
O22 O 0.2651(5) 0.5471(3) 0.9083(2)
O23 O 0.1160(5) 0.3555(3) 0.9394(2)
H12 H 0.1396 0.3004 0.9358
H13 H 0.0133 0.3628 0.9248
O19 O 0.9942(5) 0.4552(3) 0.0606(2)
O3_2 O 0.2674(5) 0.1133(3) 0.4413(2)
O4_2 O 0.0118(5) 0.0778(3) 0.4664(2)
O6_2 O 0.2651(5) 0.4529(3) 0.4083(2)
C4_2 C 0.1129(7) 0.1346(4) 0.4438(3)
C5_2 C 0.0479(8) 0.2249(4) 0.4218(4)
H6_2 H 0.0567 0.2645 0.4610
C6_2 C 0.1401(9) 0.2673(4) 0.3649(3)
H8_2 H 0.1308 0.2284 0.3253
H9_2 H 0.2590 0.2730 0.3798
C7_2 C 0.0685(7) 0.3606(4) 0.3443(3)
H10_2 H 0.1142 0.3799 0.3024
C8_2 C 0.1137(7) 0.4269(4) 0.3996(3)
O1_2 O 0.1472(5) 0.9461(3) 0.3692(2)
O2_2 O 0.1665(5) 0.8224(3) 0.4283(2)
O7_2 O 0.3840(5) 0.8555(3) 0.5606(2)
H1_2 H 0.3604 0.8004 0.5642
H2_2 H 0.4867 0.8628 0.5752
C1_2 C 0.1307(7) 0.8633(4) 0.3719(3)
C2_2 C 0.0732(7) 0.8095(4) 0.3096(3)
H4_2 H 0.1685 0.7758 0.2952
C3_2 C -0.0000 0.8656(6) 0.2500
H5_2 H 0.0869 0.9034 0.2345
H14_2 H 0.0116 0.7669 0.1782
H18_2 H 0.0708 0.7804 0.5935
H22_2 H 0.0534 0.6430 0.6638
O13_2 O 0.0118(5) 0.9222(3) 0.9664(2)
H7_2 H 0.9292 0.2196 0.4065
H11_2 H 0.9466 0.3570 0.3362
O11_2 O 0.7326(5) 0.1133(3) 0.0587(2)
O14_2 O 0.9882(5) 0.0778(3) 0.0336(2)
O18_2 O 0.5058(5) 0.0448(3) 0.9394(2)
O22_2 O 0.7651(5) 0.0471(3) 0.9083(2)
H3_2 H 0.9884 0.7669 0.3218
C3_3 C 1.0000 0.8656(6) 0.2500
Tb2_2 Tb 0.75632(3) 0.962868(16) 0.012260(13)
O8_2 O 0.8528(5) 0.9461(3) 0.1308(2)
O9_2 O 0.8335(5) 0.8224(3) 0.0717(2)
O10_2 O 0.7326(5) 0.8867(3) 0.5587(2)
O12_2 O 0.9882(5) 0.9222(3) 0.5336(2)
O19_2 O 0.4942(5) 0.9552(3) 0.0606(2)
C9_2 C 0.8693(7) 0.8633(4) 0.1281(3)
C10_2 C 0.9268(7) 0.8095(4) 0.1904(3)
H15_2 H 0.8315 0.7758 0.2048
H16_2 H 0.9131 0.9034 0.2655
C11_2 C 0.8871(7) 0.8654(4) 0.5562(3)
C12_2 C 0.9521(8) 0.7751(4) 0.5782(4)
H17_2 H 0.9433 0.7355 0.5390
C13_2 C 0.8599(9) 0.7327(4) 0.6351(3)
H19_2 H 0.8692 0.7716 0.6747
H20_2 H 0.7410 0.7270 0.6202
C14_2 C 0.9315(7) 0.6394(4) 0.6557(3)
H21_2 H 0.8858 0.6201 0.6976
C15_2 C 0.8863(7) 0.5731(4) 0.6004(3)
O23_2 O 0.6160(5) 0.8555(3) 0.9394(2)
H12_2 H 0.6396 0.8004 0.9358
H13_2 H 0.5133 0.8628 0.9248
Tb5_2 Tb 0.24368(3) 0.037132(16) 0.987740(13)
O6_3 O 0.2349(5) 0.9529(3) 0.0917(2)
C4_3 C 0.3871(7) 0.6346(4) 0.0562(3)
C5_3 C 0.4521(8) 0.7249(4) 0.0782(4)
H6_3 H 0.4433 0.7645 0.0390
H7_3 H 0.5708 0.7196 0.0935
C6_3 C 0.3599(9) 0.7673(4) 0.1351(3)
H8_3 H 0.3692 0.7284 0.1747
H9_3 H 0.2410 0.7730 0.1202
C7_3 C 0.4315(7) 0.8606(4) 0.1557(3)
H10_3 H 0.3858 0.8799 0.1976
H11_3 H 0.5534 0.8570 0.1638
C8_3 C 0.3863(7) 0.9269(4) 0.1004(3)
Tb3_2 Tb 0.74368(3) 0.537132(16) 0.987740(13)
O10_3 O 0.7674(5) 0.3867(3) 0.9413(2)
C11_3 C 0.6129(7) 0.3654(4) 0.9438(3)
C12_3 C 0.5479(8) 0.2751(4) 0.9218(4)
H17_3 H 0.5567 0.2355 0.9610
H18_3 H 0.4292 0.2804 0.9065
C13_3 C 0.6401(9) 0.2327(4) 0.8649(3)
H19_3 H 0.6308 0.2716 0.8253
H20_3 H 0.7590 0.2270 0.8798
C14_3 C 0.5685(7) 0.1394(4) 0.8443(3)
H21_3 H 0.6142 0.1201 0.8024
H22_3 H 0.4466 0.1430 0.8362
C15_3 C 0.6137(7) 0.0731(4) 0.8996(3)
H7_4 H 0.0708 0.2196 0.0935
H11_4 H 0.0534 0.3570 0.1638
O10_4 O 0.2674(5) 0.8867(3) 0.9413(2)
C11_4 C 0.1129(7) 0.8654(4) 0.9438(3)
C12_4 C 0.0479(8) 0.7751(4) 0.9218(4)
H17_4 H 0.0567 0.7355 0.9610
C13_4 C 0.1401(9) 0.7327(4) 0.8649(3)
H19_4 H 0.1308 0.7716 0.8253
H20_4 H 0.2590 0.7270 0.8798
C14_4 C 0.0685(7) 0.6394(4) 0.8443(3)
H21_4 H 0.1142 0.6201 0.8024
C15_4 C 0.1137(7) 0.5731(4) 0.8996(3)
O6_4 O 0.7349(5) 0.4529(3) 0.0917(2)
C4_4 C 0.8871(7) 0.1346(4) 0.0562(3)
C5_4 C 0.9521(8) 0.2249(4) 0.0782(4)
H6_4 H 0.9433 0.2645 0.0390
C6_4 C 0.8599(9) 0.2673(4) 0.1351(3)
H8_4 H 0.8692 0.2284 0.1747
H9_4 H 0.7410 0.2730 0.1202
C7_4 C 0.9315(7) 0.3606(4) 0.1557(3)
H10_4 H 0.8858 0.3799 0.1976
C8_4 C 0.8863(7) 0.4269(4) 0.1004(3)
H18_4 H 0.9292 0.7804 0.9065
H22_4 H 0.9466 0.6430 0.8362
O23_3 O 0.8840(5) 0.6445(3) 0.0606(2)
H12_3 H 0.8604 0.6996 0.0642
H13_3 H 0.9867 0.6372 0.0752
O1_3 O 0.3528(5) 0.5539(3) 0.6308(2)
O2_3 O 0.3335(5) 0.6776(3) 0.5717(2)
O7_3 O 0.1160(5) 0.6445(3) 0.4394(2)
H1_3 H 0.1396 0.6996 0.4358
H2_3 H 0.0133 0.6372 0.4248
C1_3 C 0.3693(7) 0.6367(4) 0.6281(3)
C2_3 C 0.4268(7) 0.6905(4) 0.6904(3)
H3_3 H 0.5116 0.7331 0.6782
H4_3 H 0.3315 0.7242 0.7048
C3_4 C 0.5000 0.6344(6) 0.7500
H5_3 H 0.4131 0.5966 0.7655
O8_3 O 0.6472(5) 0.5539(3) 0.8692(2)
O9_3 O 0.6665(5) 0.6776(3) 0.9283(2)
C9_3 C 0.6307(7) 0.6367(4) 0.8719(3)
C10_3 C 0.5732(7) 0.6905(4) 0.8096(3)
H14_3 H 0.4884 0.7331 0.8218
H15_3 H 0.6685 0.7242 0.7952
H16_3 H 0.5869 0.5966 0.7345
O23_4 O 0.3840(5) 0.1445(3) 0.0606(2)
H12_4 H 0.3604 0.1996 0.0642
H13_4 H 0.4867 0.1372 0.0752
H3_4 H 0.0116 0.2331 0.6782
C3_5 C 0.0000 0.1344(6) 0.7500
O8_4 O 0.1472(5) 0.0539(3) 0.8692(2)
O9_4 O 0.1665(5) 0.1776(3) 0.9283(2)
C9_4 C 0.1307(7) 0.1367(4) 0.8719(3)
C10_4 C 0.0732(7) 0.1905(4) 0.8096(3)
H15_4 H 0.1685 0.2242 0.7952
H16_4 H 0.0869 0.0966 0.7345
O1_4 O 0.8528(5) 0.0539(3) 0.6308(2)
O2_4 O 0.8335(5) 0.1776(3) 0.5717(2)
O7_4 O 0.6160(5) 0.1445(3) 0.4394(2)
H1_4 H 0.6396 0.1996 0.4358
H2_4 H 0.5133 0.1372 0.4248
C1_4 C 0.8693(7) 0.1367(4) 0.6281(3)
C2_4 C 0.9268(7) 0.1905(4) 0.6904(3)
H4_4 H 0.8315 0.2242 0.7048
C3_6 C 1.0000 0.1344(6) 0.7500
H5_4 H 0.9131 0.0966 0.7655
H14_4 H 0.9884 0.2331 0.8218
loop_
_geom_bond_atom_site_label_1
_geom_bond_atom_site_label_2
_geom_bond_site_symmetry_1
_geom_bond_site_symmetry_2
Tb1 O1 1_555 1_555
O1 C1 1_555 1_555
O2 Tb1 1_555 1_555
O3 Tb1 1_555 1_555
O4 Tb1 1_555 1_555
O5 C8 1_555 1_555
O6 C8 1_555 1_555
O7 Tb1 1_555 1_555
H1 O7 1_555 1_555
H2 O7 1_555 1_555
C1 O2 1_555 1_555
C2 C1 1_555 1_555
H3 C2 1_555 1_555
H4 C2 1_555 1_555
C3 C2 1_555 1_555
H5 C3 1_555 1_555
C4 O3 1_555 1_555
C5 C4 1_555 1_555
H6 C5 1_555 1_555
H7 C5 1_555 1_555
C6 C5 1_555 1_555
H8 C6 1_555 1_555
H9 C6 1_555 1_555
C7 C6 1_555 1_555
H10 C7 1_555 1_555
H11 C7 1_555 1_555
C8 C7 1_555 1_555
Tb2 O8 1_555 1_555
Tb3 O4 1_555 1_555
Tb4 O5 1_555 1_555
Tb5 O15 1_555 1_555
O8 C9 1_555 1_555
O9 Tb2 1_555 1_555
O10 Tb3 1_555 1_555
O11 Tb2 1_555 1_555
O12 Tb1 1_555 1_555
O14 Tb2 1_555 1_555
O15 C15 1_555 1_555
O17 Tb1 1_555 1_555
O21 Tb1 1_555 1_555
C9 O9 1_555 1_555
C10 C3 1_555 1_555
H14 C10 1_555 1_555
H15 C10 1_555 1_555
H16 C3 1_555 1_555
C11 O10 1_555 1_555
C12 C11 1_555 1_555
H17 C12 1_555 1_555
H18 C12 1_555 1_555
C13 C12 1_555 1_555
H19 C13 1_555 1_555
H20 C13 1_555 1_555
C14 C13 1_555 1_555
H21 C14 1_555 1_555
H22 C14 1_555 1_555
C15 O20 1_555 1_555
O4 C4 1_555 1_555
Tb3 O12 1_555 1_555
O12 C11 1_555 1_555
C9 C10 1_555 1_555
C14 C15 1_555 1_555
H12 O23 1_555 1_555
H13 O23 1_555 1_555
O16 C8_2 1_555 1_555
O6_2 C8_2 1_555 1_555
C4_2 O3_2 1_555 1_555
C5_2 C4_2 1_555 1_555
H6_2 C5_2 1_555 1_555
C6_2 C5_2 1_555 1_555
H8_2 C6_2 1_555 1_555
H9_2 C6_2 1_555 1_555
C7_2 C6_2 1_555 1_555
H10_2 C7_2 1_555 1_555
C8_2 C7_2 1_555 1_555
Tb3 O16 1_555 1_555
O4_2 C4_2 1_555 1_555
O6_2 Tb3 1_555 1_555
Tb4 O1_2 1_555 1_555
O1_2 C1_2 1_555 1_555
O2_2 Tb4 1_555 1_555
O7_2 Tb4 1_555 1_555
H1_2 O7_2 1_555 1_555
H2_2 O7_2 1_555 1_555
C1_2 O2_2 1_555 1_555
C2_2 C1_2 1_555 1_555
H4_2 C2_2 1_555 1_555
C3_2 C2_2 1_555 1_555
H5_2 C3_2 1_555 1_555
Tb2_2 O8_2 1_555 1_555
O8_2 C9_2 1_555 1_555
O9_2 Tb2_2 1_555 1_555
O17 C15_2 1_555 1_555
O19_2 Tb2_2 1_555 1_555
C9_2 O9_2 1_555 1_555
C10_2 C3_3 1_555 1_555
H15_2 C10_2 1_555 1_555
H16_2 C3_3 1_555 1_555
C11_2 O10_2 1_555 1_555
C12_2 C11_2 1_555 1_555
H17_2 C12_2 1_555 1_555
C13_2 C12_2 1_555 1_555
H19_2 C13_2 1_555 1_555
H20_2 C13_2 1_555 1_555
C14_2 C13_2 1_555 1_555
H21_2 C14_2 1_555 1_555
C15_2 O21 1_555 1_555
O12_2 C11_2 1_555 1_555
C9_2 C10_2 1_555 1_555
C14_2 C15_2 1_555 1_555
H12_2 O23_2 1_555 1_555
H13_2 O23_2 1_555 1_555
O19_2 C8_3 1_555 1_555
O6_3 C8_3 1_555 1_555
C4_3 O11 1_555 1_555
C5_3 C4_3 1_555 1_555
H6_3 C5_3 1_555 1_555
H7_3 C5_3 1_555 1_555
C6_3 C5_3 1_555 1_555
H8_3 C6_3 1_555 1_555
H9_3 C6_3 1_555 1_555
C7_3 C6_3 1_555 1_555
H10_3 C7_3 1_555 1_555
H11_3 C7_3 1_555 1_555
C8_3 C7_3 1_555 1_555
O14 C4_3 1_555 1_555
Tb5_2 O18_2 1_555 1_555
O10_3 Tb3_2 1_555 1_555
O18_2 C15_3 1_555 1_555
C11_3 O10_3 1_555 1_555
C12_3 C11_3 1_555 1_555
H17_3 C12_3 1_555 1_555
H18_3 C12_3 1_555 1_555
C13_3 C12_3 1_555 1_555
H19_3 C13_3 1_555 1_555
H20_3 C13_3 1_555 1_555
C14_3 C13_3 1_555 1_555
H21_3 C14_3 1_555 1_555
H22_3 C14_3 1_555 1_555
C15_3 O22_2 1_555 1_555
Tb3_2 O13 1_555 1_555
O13 C11_3 1_555 1_555
C14_3 C15_3 1_555 1_555
O18 C15_4 1_555 1_555
C11_4 O10_4 1_555 1_555
C12_4 C11_4 1_555 1_555
H17_4 C12_4 1_555 1_555
C13_4 C12_4 1_555 1_555
H19_4 C13_4 1_555 1_555
H20_4 C13_4 1_555 1_555
C14_4 C13_4 1_555 1_555
H21_4 C14_4 1_555 1_555
C15_4 O22 1_555 1_555
O13_2 C11_4 1_555 1_555
C14_4 C15_4 1_555 1_555
O19 C8_4 1_555 1_555
O6_4 C8_4 1_555 1_555
C4_4 O11_2 1_555 1_555
C5_4 C4_4 1_555 1_555
H6_4 C5_4 1_555 1_555
C6_4 C5_4 1_555 1_555
H8_4 C6_4 1_555 1_555
H9_4 C6_4 1_555 1_555
C7_4 C6_4 1_555 1_555
H10_4 C7_4 1_555 1_555
C8_4 C7_4 1_555 1_555
O14_2 C4_4 1_555 1_555
H12_3 O23_3 1_555 1_555
H13_3 O23_3 1_555 1_555
Tb3 O1_3 1_555 1_555
O1_3 C1_3 1_555 1_555
O2_3 Tb3 1_555 1_555
O7_3 Tb3 1_555 1_555
H1_3 O7_3 1_555 1_555
H2_3 O7_3 1_555 1_555
C1_3 O2_3 1_555 1_555
C2_3 C1_3 1_555 1_555
H3_3 C2_3 1_555 1_555
H4_3 C2_3 1_555 1_555
C3_4 C2_3 1_555 1_555
H5_3 C3_4 1_555 1_555
Tb3_2 O8_3 1_555 1_555
O8_3 C9_3 1_555 1_555
O9_3 Tb3_2 1_555 1_555
C9_3 O9_3 1_555 1_555
C10_3 C3_4 1_555 1_555
H14_3 C10_3 1_555 1_555
H15_3 C10_3 1_555 1_555
H16_3 C3_4 1_555 1_555
C9_3 C10_3 1_555 1_555
H12_4 O23_4 1_555 1_555
H13_4 O23_4 1_555 1_555
Tb5_2 O8_4 1_555 1_555
O8_4 C9_4 1_555 1_555
O9_4 Tb5_2 1_555 1_555
C9_4 O9_4 1_555 1_555
C10_4 C3_5 1_555 1_555
H15_4 C10_4 1_555 1_555
H16_4 C3_5 1_555 1_555
C9_4 C10_4 1_555 1_555
Tb5 O1_4 1_555 1_555
O1_4 C1_4 1_555 1_555
O2_4 Tb5 1_555 1_555
O7_4 Tb5 1_555 1_555
H1_4 O7_4 1_555 1_555
H2_4 O7_4 1_555 1_555
C1_4 O2_4 1_555 1_555
C2_4 C1_4 1_555 1_555
H4_4 C2_4 1_555 1_555
C3_6 C2_4 1_555 1_555
H5_4 C3_6 1_555 1_555

#END
