
###############################################################################
#
# This file contains modified crystal structure data generated from the
# MOF subset of the Cambridge Structural Database (CSD) v543 
# hosted by the Cambridge Crystallographic Data Centre (CCDC).
#
# This work is licensed under the Creative Commons
# Attribution-NonCommercial-ShareAlike 4.0 International License.
# To view a copy of this license, visit
# http://creativecommons.org/licenses/by-nc-sa/4.0/
# or send a letter to
# Creative Commons, PO Box 1866, Mountain View, CA 94042, USA.
#
# CIF created using the CSD Python API on 29 September 2022
# The structure has been converted into the P1 space group
# The structure has a 3D framework
# The original CSD entry TILHAY is in the monoclinic crystal system
# The framework has been calculated to contain at least 10.0% void space
# The void calculation uses a probe of radius 1.32A, grid spacing 0.4
# The framework is charged, counterions have been retained in the structure
#
###############################################################################

data_TILHAY
_chemical_formula_moiety         '(C64 H32 Cd2 Na8 O31 2-)n'
_symmetry_cell_setting           triclinic
_symmetry_space_group_name_H-M   'P 1'
_symmetry_Int_Tables_number      1
_space_group_name_Hall           'P 1'
loop_
_symmetry_equiv_pos_site_id
_symmetry_equiv_pos_as_xyz
1 x,y,z
_cell_length_a                   14.7366(19)
_cell_length_b                   13.5985(17)
_cell_length_c                   11.3369(14)
_cell_angle_alpha                90
_cell_angle_beta                 113.141(2)
_cell_angle_gamma                90
_cell_volume                     2089.07
loop_
_atom_site_label
_atom_site_type_symbol
_atom_site_fract_x
_atom_site_fract_y
_atom_site_fract_z
Na5 Na 0.0000 0.0000 0.0000
Na5_2 Na -0.0000 0.0000 1.0000
Na5_3 Na 0.0000 1.0000 0.0000
Na5_4 Na -0.0000 1.0000 1.0000
Cd4 Cd -0.0000 0.87233(3) 0.7500
Na5_5 Na 1.0000 0.0000 0.0000
Na5_6 Na 1.0000 0.0000 1.0000
C1 C 0.3469(3) 0.4847(3) 0.1543(4)
C2 C 0.2603(3) 0.4235(3) 0.0703(4)
C3 C 0.2127(4) 0.3625(3) 0.1259(5)
H1 H 0.2331 0.3615 0.2146
C4 C 0.1349(3) 0.3030(3) 0.0507(4)
C5 C 0.0851(4) 0.2349(3) 0.1115(5)
O1 O 0.3853(2) 0.5412(2) 0.0960(3)
O2 O 0.3767(3) 0.4810(3) 0.2730(3)
O3 O 0.0249(3) 0.1730(3) 0.0446(4)
O4 O 0.1053(3) 0.2433(3) 0.2293(4)
Na1 Na 0.5000 0.5000 0.0000
Cd1 Cd 0.5000 0.62767(3) 0.2500
C14 C 0.8961(4) 0.6940(4) 0.0820(5)
H6 H 0.9478 0.7340 0.1333
C15 C 0.7719(4) 0.5731(4) 0.0625(5)
H7 H 0.7410 0.5319 0.1006
C16 C 0.8504(5) 0.6316(4) 0.1377(5)
H8 H 0.8724 0.6288 0.2266
O6 O 0.6147(2) 0.5412(2) 0.4040(3)
O9 O 0.6233(3) 0.4810(3) 0.2270(3)
O11 O 0.5249(3) 0.6730(3) 0.0446(4)
O14 O 0.6053(3) 0.7433(3) 0.2293(4)
O15 O 0.3947(3) 0.7433(3) 0.2707(4)
Na2 Na 0.5000 0.5000 0.5000
Na5_7 Na 1.0000 1.0000 0.0000
Cd2 Cd -0.0000 0.12767(3) 0.2500
C6 C 0.1039(4) 0.3060(4) 0.9180(5)
H2 H 0.0522 0.2660 0.8667
C7 C 0.2281(4) 0.4269(4) 0.9375(5)
H3 H 0.2590 0.4681 0.8994
C8 C 0.1496(5) 0.3684(4) 0.8623(5)
H4 H 0.1276 0.3712 0.7734
Na1_2 Na 0.5000 0.5000 1.0000
C9 C 0.6531(3) 0.5153(3) 0.8457(4)
C10 C 0.7397(3) 0.5765(3) 0.9297(4)
C11 C 0.7873(4) 0.6375(3) 0.8741(5)
H5 H 0.7669 0.6385 0.7854
C12 C 0.8651(3) 0.6970(3) 0.9493(4)
C13 C 0.9149(4) 0.7651(3) 0.8885(5)
O5 O 0.6147(2) 0.4588(2) 0.9040(3)
O7 O 0.6233(3) 0.5190(3) 0.7270(3)
O8 O 0.3767(3) 0.5190(3) 0.7730(3)
O10 O 0.9751(3) 0.8270(3) 0.9554(4)
O12 O 0.4751(3) 0.3270(3) 0.9554(4)
O13 O 0.8947(3) 0.7567(3) 0.7707(4)
Na5_8 Na 1.0000 1.0000 1.0000
Cd3 Cd 0.5000 0.37233(3) 0.7500
Cd4_2 Cd 1.0000 0.87233(3) 0.7500
Cd2_2 Cd 1.0000 0.12767(3) 0.2500
C14_2 C 0.3961(4) 0.1940(4) 0.0820(5)
H6_2 H 0.4478 0.2340 0.1333
C15_2 C 0.2719(4) 0.0731(4) 0.0625(5)
H7_2 H 0.2410 0.0319 0.1006
C16_2 C 0.3504(5) 0.1316(4) 0.1377(5)
H8_2 H 0.3724 0.1288 0.2266
O6_2 O 0.1147(2) 0.0412(2) 0.4040(3)
Na2_2 Na -0.0000 0.0000 0.5000
C9_2 C 0.1531(3) 0.0153(3) 0.8457(4)
C10_2 C 0.2397(3) 0.0765(3) 0.9297(4)
C11_2 C 0.2873(4) 0.1375(3) 0.8741(5)
H5_2 H 0.2669 0.1385 0.7854
C12_2 C 0.3651(3) 0.1970(3) 0.9493(4)
C13_2 C 0.4149(4) 0.2651(3) 0.8885(5)
O7_2 O 0.1233(3) 0.0190(3) 0.7270(3)
O13_2 O 0.3947(3) 0.2567(3) 0.7707(4)
O9_2 O 0.1233(3) 0.9810(3) 0.2270(3)
Na2_3 Na -0.0000 1.0000 0.5000
O5_2 O 0.1147(2) 0.9588(2) 0.9040(3)
O1_2 O 0.8853(2) 0.0412(2) 0.0960(3)
O15_2 O 0.8947(3) 0.2433(3) 0.2707(4)
Na2_4 Na 1.0000 0.0000 0.5000
O8_2 O 0.8767(3) 0.0190(3) 0.7730(3)
C1_2 C 0.8469(3) 0.9847(3) 0.1543(4)
C2_2 C 0.7603(3) 0.9235(3) 0.0703(4)
C3_2 C 0.7127(4) 0.8625(3) 0.1259(5)
H1_2 H 0.7331 0.8615 0.2146
C4_2 C 0.6349(3) 0.8030(3) 0.0507(4)
C5_2 C 0.5851(4) 0.7349(3) 0.1115(5)
O2_2 O 0.8767(3) 0.9810(3) 0.2730(3)
Na2_5 Na 1.0000 1.0000 0.5000
C6_2 C 0.6039(4) 0.8060(4) 0.9180(5)
H2_2 H 0.5522 0.7660 0.8667
C7_2 C 0.7281(4) 0.9269(4) 0.9375(5)
H3_2 H 0.7590 0.9681 0.8994
C8_2 C 0.6496(5) 0.8684(4) 0.8623(5)
H4_2 H 0.6276 0.8712 0.7734
C1_3 C 0.6531(3) 0.4847(3) 0.3457(4)
C2_3 C 0.7397(3) 0.4235(3) 0.4297(4)
C3_3 C 0.7873(4) 0.3625(3) 0.3741(5)
H1_3 H 0.7669 0.3615 0.2854
C4_3 C 0.8651(3) 0.3030(3) 0.4493(4)
C5_3 C 0.9149(4) 0.2349(3) 0.3885(5)
C6_3 C 0.8961(4) 0.3060(4) 0.5820(5)
H2_3 H 0.9478 0.2660 0.6333
C7_3 C 0.7719(4) 0.4269(4) 0.5625(5)
H3_3 H 0.7410 0.4681 0.6006
C8_3 C 0.8504(5) 0.3684(4) 0.6377(5)
H4_3 H 0.8724 0.3712 0.7266
O3_2 O 0.9751(3) 0.1730(3) 0.4554(4)
C9_3 C 0.3469(3) 0.5153(3) 0.6543(4)
C10_3 C 0.2603(3) 0.5765(3) 0.5703(4)
C11_3 C 0.2127(4) 0.6375(3) 0.6259(5)
H5_3 H 0.2331 0.6385 0.7146
C12_3 C 0.1349(3) 0.6970(3) 0.5507(4)
C13_3 C 0.0851(4) 0.7651(3) 0.6115(5)
C14_3 C 0.1039(4) 0.6940(4) 0.4180(5)
H6_3 H 0.0522 0.7340 0.3667
C15_3 C 0.2281(4) 0.5731(4) 0.4375(5)
H7_3 H 0.2590 0.5319 0.3994
C16_3 C 0.1496(5) 0.6316(4) 0.3623(5)
H8_3 H 0.1276 0.6288 0.2734
O5_3 O 0.3853(2) 0.4588(2) 0.5960(3)
O10_2 O 0.0249(3) 0.8270(3) 0.5446(4)
O11_2 O 0.4751(3) 0.6730(3) 0.4554(4)
O12_2 O 0.5249(3) 0.3270(3) 0.5446(4)
O13_3 O 0.1053(3) 0.7567(3) 0.7293(4)
C1_4 C 0.1531(3) 0.9847(3) 0.3457(4)
C2_4 C 0.2397(3) 0.9235(3) 0.4297(4)
C3_4 C 0.2873(4) 0.8625(3) 0.3741(5)
H1_4 H 0.2669 0.8615 0.2854
C4_4 C 0.3651(3) 0.8030(3) 0.4493(4)
C5_4 C 0.4149(4) 0.7349(3) 0.3885(5)
C6_4 C 0.3961(4) 0.8060(4) 0.5820(5)
H2_4 H 0.4478 0.7660 0.6333
C7_4 C 0.2719(4) 0.9269(4) 0.5625(5)
H3_4 H 0.2410 0.9681 0.6006
C8_4 C 0.3504(5) 0.8684(4) 0.6377(5)
H4_4 H 0.3724 0.8712 0.7266
C9_4 C 0.8469(3) 0.0153(3) 0.6543(4)
C10_4 C 0.7603(3) 0.0765(3) 0.5703(4)
C11_4 C 0.7127(4) 0.1375(3) 0.6259(5)
H5_4 H 0.7331 0.1385 0.7146
C12_4 C 0.6349(3) 0.1970(3) 0.5507(4)
C13_4 C 0.5851(4) 0.2651(3) 0.6115(5)
C14_4 C 0.6039(4) 0.1940(4) 0.4180(5)
H6_4 H 0.5522 0.2340 0.3667
C15_4 C 0.7281(4) 0.0731(4) 0.4375(5)
H7_4 H 0.7590 0.0319 0.3994
C16_4 C 0.6496(5) 0.1316(4) 0.3623(5)
H8_4 H 0.6276 0.1288 0.2734
O13_4 O 0.6053(3) 0.2567(3) 0.7293(4)
O5_4 O 0.8853(2) 0.9588(2) 0.5960(3)
loop_
_geom_bond_atom_site_label_1
_geom_bond_atom_site_label_2
_geom_bond_site_symmetry_1
_geom_bond_site_symmetry_2
C1 C2 1_555 1_555
C2 C3 1_555 1_555
C3 H1 1_555 1_555
C4 C3 1_555 1_555
C5 C4 1_555 1_555
O1 C1 1_555 1_555
O2 C1 1_555 1_555
O3 C5 1_555 1_555
O4 C5 1_555 1_555
Na1 O1 1_555 1_555
Cd1 O1 1_555 1_555
H6 C14 1_555 1_555
H7 C15 1_555 1_555
C16 C14 1_555 1_555
H8 C16 1_555 1_555
O6 Cd1 1_555 1_555
O9 Na1 1_555 1_555
O11 Na1 1_555 1_555
O14 Cd1 1_555 1_555
O15 Cd1 1_555 1_555
Na2 O2 1_555 1_555
Na5 O3 1_555 1_555
Cd2 O4 1_555 1_555
C15 C16 1_555 1_555
O6 Na2 1_555 1_555
H2 C6 1_555 1_555
H3 C7 1_555 1_555
C8 C6 1_555 1_555
H4 C8 1_555 1_555
C9 C10 1_555 1_555
C10 C11 1_555 1_555
C11 H5 1_555 1_555
C12 C11 1_555 1_555
C13 C12 1_555 1_555
O5 Na1_2 1_555 1_555
O7 C9 1_555 1_555
O8 Na1_2 1_555 1_555
O10 C13 1_555 1_555
O12 Na1_2 1_555 1_555
O13 C13 1_555 1_555
Na2 O7 1_555 1_555
Na5_8 O10 1_555 1_555
Cd3 O5 1_555 1_555
Cd4_2 O13 1_555 1_555
C7 C8 1_555 1_555
C9 O5 1_555 1_555
H6_2 C14_2 1_555 1_555
H7_2 C15_2 1_555 1_555
C16_2 C14_2 1_555 1_555
H8_2 C16_2 1_555 1_555
O6_2 Cd2 1_555 1_555
C15_2 C16_2 1_555 1_555
O6_2 Na2_2 1_555 1_555
C9_2 C10_2 1_555 1_555
C10_2 C11_2 1_555 1_555
C11_2 H5_2 1_555 1_555
C12_2 C11_2 1_555 1_555
C13_2 C12_2 1_555 1_555
O7_2 C9_2 1_555 1_555
O12 C13_2 1_555 1_555
O13_2 C13_2 1_555 1_555
Na2_2 O7_2 1_555 1_555
Cd3 O13_2 1_555 1_555
O9_2 Na5_3 1_555 1_555
O5_2 Na5_4 1_555 1_555
Cd4 O5_2 1_555 1_555
Na5_5 O1_2 1_555 1_555
Cd2_2 O1_2 1_555 1_555
O15_2 Cd2_2 1_555 1_555
O8_2 Na5_6 1_555 1_555
C1_2 C2_2 1_555 1_555
C2_2 C3_2 1_555 1_555
C3_2 H1_2 1_555 1_555
C4_2 C3_2 1_555 1_555
C5_2 C4_2 1_555 1_555
O2_2 C1_2 1_555 1_555
O11 C5_2 1_555 1_555
O14 C5_2 1_555 1_555
Na2_5 O2_2 1_555 1_555
H2_2 C6_2 1_555 1_555
H3_2 C7_2 1_555 1_555
C8_2 C6_2 1_555 1_555
H4_2 C8_2 1_555 1_555
C7_2 C8_2 1_555 1_555
C1_3 C2_3 1_555 1_555
C2_3 C3_3 1_555 1_555
C3_3 H1_3 1_555 1_555
C4_3 C3_3 1_555 1_555
C5_3 C4_3 1_555 1_555
C6_3 C4_3 1_555 1_555
H2_3 C6_3 1_555 1_555
C7_3 C2_3 1_555 1_555
H3_3 C7_3 1_555 1_555
C8_3 C6_3 1_555 1_555
H4_3 C8_3 1_555 1_555
O6 C1_3 1_555 1_555
O9 C1_3 1_555 1_555
O3_2 C5_3 1_555 1_555
O15_2 C5_3 1_555 1_555
C9_3 C10_3 1_555 1_555
C10_3 C11_3 1_555 1_555
C11_3 H5_3 1_555 1_555
C12_3 C11_3 1_555 1_555
C13_3 C12_3 1_555 1_555
C14_3 C12_3 1_555 1_555
H6_3 C14_3 1_555 1_555
C15_3 C10_3 1_555 1_555
H7_3 C15_3 1_555 1_555
C16_3 C14_3 1_555 1_555
H8_3 C16_3 1_555 1_555
O5_3 Na2 1_555 1_555
O8 C9_3 1_555 1_555
O10_2 C13_3 1_555 1_555
O11_2 Na2 1_555 1_555
O12_2 Na2 1_555 1_555
O13_3 C13_3 1_555 1_555
Na2_4 O3_2 1_555 1_555
Na2_3 O10_2 1_555 1_555
Cd3 O5_3 1_555 1_555
Cd4 O13_3 1_555 1_555
C7_3 C8_3 1_555 1_555
C9_3 O5_3 1_555 1_555
C15_3 C16_3 1_555 1_555
C1_4 C2_4 1_555 1_555
C2_4 C3_4 1_555 1_555
C3_4 H1_4 1_555 1_555
C4_4 C3_4 1_555 1_555
C5_4 C4_4 1_555 1_555
C6_4 C4_4 1_555 1_555
H2_4 C6_4 1_555 1_555
C7_4 C2_4 1_555 1_555
H3_4 C7_4 1_555 1_555
C8_4 C6_4 1_555 1_555
H4_4 C8_4 1_555 1_555
O9_2 C1_4 1_555 1_555
O11_2 C5_4 1_555 1_555
O15 C5_4 1_555 1_555
C7_4 C8_4 1_555 1_555
C9_4 C10_4 1_555 1_555
C10_4 C11_4 1_555 1_555
C11_4 H5_4 1_555 1_555
C12_4 C11_4 1_555 1_555
C13_4 C12_4 1_555 1_555
C14_4 C12_4 1_555 1_555
H6_4 C14_4 1_555 1_555
C15_4 C10_4 1_555 1_555
H7_4 C15_4 1_555 1_555
C16_4 C14_4 1_555 1_555
H8_4 C16_4 1_555 1_555
O8_2 C9_4 1_555 1_555
O12_2 C13_4 1_555 1_555
O13_4 C13_4 1_555 1_555
Cd3 O13_4 1_555 1_555
C15_4 C16_4 1_555 1_555
O5_4 Na2_5 1_555 1_555
Cd4_2 O5_4 1_555 1_555

#END
