
###############################################################################
#
# This file contains modified crystal structure data generated from the
# MOF subset of the Cambridge Structural Database (CSD) v543 
# hosted by the Cambridge Crystallographic Data Centre (CCDC).
#
# This work is licensed under the Creative Commons
# Attribution-NonCommercial-ShareAlike 4.0 International License.
# To view a copy of this license, visit
# http://creativecommons.org/licenses/by-nc-sa/4.0/
# or send a letter to
# Creative Commons, PO Box 1866, Mountain View, CA 94042, USA.
#
# CIF created using the CSD Python API on 29 September 2022
# The structure has been converted into the P1 space group
# The structure has a 3D framework
# The original CSD entry TILHEC is in the monoclinic crystal system
# The framework has been calculated to contain at least 10.0% void space
# The void calculation uses a probe of radius 1.32A, grid spacing 0.4
# The framework is charged, counterions have been retained in the structure
#
###############################################################################

data_TILHEC
_chemical_formula_moiety         '(C64 H32 Co6 Na5 O32 2-)n'
_symmetry_cell_setting           triclinic
_symmetry_space_group_name_H-M   'P 1'
_symmetry_Int_Tables_number      1
_space_group_name_Hall           'P 1'
loop_
_symmetry_equiv_pos_site_id
_symmetry_equiv_pos_as_xyz
1 x,y,z
_cell_length_a                   13.3751(12)
_cell_length_b                   14.3847(12)
_cell_length_c                   11.3178(8)
_cell_angle_alpha                90
_cell_angle_beta                 111.405(7)
_cell_angle_gamma                90
_cell_volume                     2027.31
loop_
_atom_site_label
_atom_site_type_symbol
_atom_site_fract_x
_atom_site_fract_y
_atom_site_fract_z
Co1 Co -0.0000 0.11366(6) 0.2500
Na1 Na -0.0000 -0.0000 0.5000
Na2 Na -0.0000 0.0000 0.0000
O6 O 0.1344(3) 0.0261(4) 0.7086(4)
O7 O 0.1102(3) 0.0335(3) 0.3762(4)
O10 O 0.1023(6) 0.2157(4) 0.2285(9)
Na2_2 Na -0.0000 -0.0000 1.0000
Na1_2 Na -0.0000 1.0000 0.5000
Co3 Co 0.5000 0.61366(6) 0.2500
Na2_3 Na -0.0000 1.0000 0.0000
Na4 Na 0.5000 0.5000 0.5000
O5 O 0.1344(3) 0.9739(4) 0.2086(4)
C9 C 0.1570(4) 0.9783(4) 0.3244(5)
C10 C 0.2434(4) 0.9175(3) 0.4120(4)
C11 C 0.2930(4) 0.8499(4) 0.3644(5)
H5 H 0.2739 0.8441 0.2771
C12 C 0.4201(6) 0.7176(5) 0.3870(12)
C13 C 0.2741(4) 0.9260(4) 0.5431(5)
H6 H 0.2423 0.9708 0.5772
C14 C 0.3694(4) 0.7916(4) 0.4437(7)
C15 C 0.3986(5) 0.8000(5) 0.5736(7)
H7 H 0.4497 0.7601 0.6276
O9 O 0.3977(6) 0.7157(4) 0.2715(9)
O12 O 0.4836(5) 0.6628(4) 0.4585(10)
O13 O 0.0164(5) 0.8372(4) 0.5415(10)
C16 C 0.3521(5) 0.8673(5) 0.6229(6)
H8 H 0.3730 0.8736 0.7104
Na2_4 Na -0.0000 1.0000 1.0000
Co1_2 Co 1.0000 0.11366(6) 0.2500
Na1_3 Na 1.0000 -0.0000 0.5000
O2 O 0.8898(3) 0.0335(3) 0.1238(4)
Na2_5 Na 1.0000 0.0000 0.0000
O11 O 0.8977(6) 0.2157(4) 0.2715(9)
O14 O 0.9836(5) 0.1628(4) 0.4585(10)
Na2_6 Na 1.0000 -0.0000 1.0000
Na1_4 Na 1.0000 1.0000 0.5000
O1 O 0.8656(3) 0.9739(4) 0.2914(4)
C1 C 0.8430(4) 0.9783(4) 0.1756(5)
C2 C 0.7566(4) 0.9175(3) 0.0880(4)
C3 C 0.7070(4) 0.8499(4) 0.1356(5)
H1 H 0.7261 0.8441 0.2229
C4 C 0.5799(6) 0.7176(5) 0.1130(12)
C6 C 0.6306(4) 0.7916(4) 0.0563(7)
O3 O 0.6023(6) 0.7157(4) 0.2285(9)
O4 O 0.5164(5) 0.6628(4) 0.0415(10)
Na2_7 Na 1.0000 1.0000 0.0000
Na3 Na 0.5000 0.5000 0.0000
O8 O 0.8898(3) 0.9665(3) 0.6238(4)
C5 C 0.7259(4) 0.9260(4) 0.9569(5)
H2 H 0.7577 0.9708 0.9228
C7 C 0.6014(5) 0.8000(5) 0.9264(7)
H3 H 0.5503 0.7601 0.8724
C8 C 0.6479(5) 0.8673(5) 0.8771(6)
H4 H 0.6270 0.8736 0.7896
Na2_8 Na 1.0000 1.0000 1.0000
Na3_2 Na 0.5000 0.5000 1.0000
O1_2 O 0.3656(3) 0.4739(4) 0.2914(4)
O2_2 O 0.3898(3) 0.5335(3) 0.1238(4)
C1_2 C 0.3430(4) 0.4783(4) 0.1756(5)
C2_2 C 0.2566(4) 0.4175(3) 0.0880(4)
C3_2 C 0.2070(4) 0.3499(4) 0.1356(5)
H1_2 H 0.2261 0.3441 0.2229
C4_2 C 0.0799(6) 0.2176(5) 0.1130(12)
C6_2 C 0.1306(4) 0.2916(4) 0.0563(7)
O4_2 O 0.0164(5) 0.1628(4) 0.0415(10)
O5_2 O 0.6344(3) 0.4739(4) 0.2086(4)
O6_2 O 0.6344(3) 0.5261(4) 0.7086(4)
O7_2 O 0.6102(3) 0.5335(3) 0.3762(4)
O8_2 O 0.3898(3) 0.4665(3) 0.6238(4)
C9_2 C 0.6570(4) 0.4783(4) 0.3244(5)
C10_2 C 0.7434(4) 0.4175(3) 0.4120(4)
C11_2 C 0.7930(4) 0.3499(4) 0.3644(5)
H5_2 H 0.7739 0.3441 0.2771
C12_2 C 0.9201(6) 0.2176(5) 0.3870(12)
C13_2 C 0.7741(4) 0.4260(4) 0.5431(5)
H6_2 H 0.7423 0.4708 0.5772
C14_2 C 0.8694(4) 0.2916(4) 0.4437(7)
C15_2 C 0.8986(5) 0.3000(5) 0.5736(7)
H7_2 H 0.9497 0.2601 0.6276
O13_2 O 0.5164(5) 0.3372(4) 0.5415(10)
C16_2 C 0.8521(5) 0.3673(5) 0.6229(6)
H8_2 H 0.8730 0.3736 0.7104
C5_2 C 0.2259(4) 0.4260(4) 0.9569(5)
H2_2 H 0.2577 0.4708 0.9228
C7_2 C 0.1014(5) 0.3000(5) 0.9264(7)
H3_2 H 0.0503 0.2601 0.8724
C8_2 C 0.1479(5) 0.3673(5) 0.8771(6)
H4_2 H 0.1270 0.3736 0.7896
O8_3 O 0.1102(3) 0.9665(3) 0.8762(4)
O6_3 O 0.8656(3) 0.0261(4) 0.7914(4)
O13_3 O 0.9836(5) 0.8372(4) 0.9585(10)
O6_4 O 0.3656(3) 0.5261(4) 0.7914(4)
O8_4 O 0.6102(3) 0.4665(3) 0.8762(4)
O13_4 O 0.4836(5) 0.3372(4) 0.9585(10)
C5_3 C 0.2741(4) 0.0740(4) 0.0431(5)
H2_3 H 0.2423 0.0292 0.0772
C7_3 C 0.3986(5) 0.2000(5) 0.0736(7)
H3_3 H 0.4497 0.2399 0.1276
C8_3 C 0.3521(5) 0.1327(5) 0.1229(6)
H4_3 H 0.3730 0.1264 0.2104
C1_3 C 0.1570(4) 0.0217(4) 0.8244(5)
C2_3 C 0.2434(4) 0.0825(3) 0.9120(4)
C3_3 C 0.2930(4) 0.1501(4) 0.8644(5)
H1_3 H 0.2739 0.1559 0.7771
C4_3 C 0.4201(6) 0.2824(5) 0.8870(12)
C6_3 C 0.3694(4) 0.2084(4) 0.9437(7)
O3_2 O 0.3977(6) 0.2843(4) 0.7715(9)
Co2 Co 0.5000 0.38634(6) 0.7500
Co1_3 Co 0.0000 0.88634(6) 0.7500
O11_2 O 0.1023(6) 0.7843(4) 0.7285(9)
C9_3 C 0.8430(4) 0.0217(4) 0.6756(5)
C10_3 C 0.7566(4) 0.0825(3) 0.5880(4)
C11_3 C 0.7070(4) 0.1501(4) 0.6356(5)
H5_3 H 0.7261 0.1559 0.7229
C12_3 C 0.5799(6) 0.2824(5) 0.6130(12)
C13_3 C 0.7259(4) 0.0740(4) 0.4569(5)
H6_3 H 0.7577 0.0292 0.4228
C14_3 C 0.6306(4) 0.2084(4) 0.5563(7)
C15_3 C 0.6014(5) 0.2000(5) 0.4264(7)
H7_3 H 0.5503 0.2399 0.3724
O9_2 O 0.6023(6) 0.2843(4) 0.7285(9)
C16_3 C 0.6479(5) 0.1327(5) 0.3771(6)
H8_3 H 0.6270 0.1264 0.2896
Co1_4 Co 1.0000 0.88634(6) 0.7500
O10_2 O 0.8977(6) 0.7843(4) 0.7715(9)
C5_4 C 0.7741(4) 0.5740(4) 0.0431(5)
H2_4 H 0.7423 0.5292 0.0772
C7_4 C 0.8986(5) 0.7000(5) 0.0736(7)
H3_4 H 0.9497 0.7399 0.1276
C8_4 C 0.8521(5) 0.6327(5) 0.1229(6)
H4_4 H 0.8730 0.6264 0.2104
C1_4 C 0.6570(4) 0.5217(4) 0.8244(5)
C2_4 C 0.7434(4) 0.5825(3) 0.9120(4)
C3_4 C 0.7930(4) 0.6501(4) 0.8644(5)
H1_4 H 0.7739 0.6559 0.7771
C4_4 C 0.9201(6) 0.7824(5) 0.8870(12)
C6_4 C 0.8694(4) 0.7084(4) 0.9437(7)
C9_4 C 0.3430(4) 0.5217(4) 0.6756(5)
C10_4 C 0.2566(4) 0.5825(3) 0.5880(4)
C11_4 C 0.2070(4) 0.6501(4) 0.6356(5)
H5_4 H 0.2261 0.6559 0.7229
C12_4 C 0.0799(6) 0.7824(5) 0.6130(12)
C13_4 C 0.2259(4) 0.5740(4) 0.4569(5)
H6_4 H 0.2577 0.5292 0.4228
C14_4 C 0.1306(4) 0.7084(4) 0.5563(7)
C15_4 C 0.1014(5) 0.7000(5) 0.4264(7)
H7_4 H 0.0503 0.7399 0.3724
C16_4 C 0.1479(5) 0.6327(5) 0.3771(6)
H8_4 H 0.1270 0.6264 0.2896
loop_
_geom_bond_atom_site_label_1
_geom_bond_atom_site_label_2
_geom_bond_site_symmetry_1
_geom_bond_site_symmetry_2
O6 Na1 1_555 1_555
O7 Co1 1_555 1_555
O10 Co1 1_555 1_555
Na1 O7 1_555 1_555
Co3 O9 1_555 1_555
Na4 O12 1_555 1_555
O5 Na2_3 1_555 1_555
C9 O5 1_555 1_555
C10 C9 1_555 1_555
C11 C10 1_555 1_555
H5 C11 1_555 1_555
C12 C14 1_555 1_555
C13 C10 1_555 1_555
H6 C13 1_555 1_555
C14 C11 1_555 1_555
C15 C14 1_555 1_555
H7 C15 1_555 1_555
O9 C12 1_555 1_555
O12 C12 1_555 1_555
O13 Na1_2 1_555 1_555
C16 C13 1_555 1_555
H8 C16 1_555 1_555
C15 C16 1_555 1_555
Co1_2 O2 1_555 1_555
Na2_5 O2 1_555 1_555
O11 Co1_2 1_555 1_555
O14 Na1_3 1_555 1_555
Na1_4 O1 1_555 1_555
O1 C1 1_555 1_555
C1 C2 1_555 1_555
C2 C3 1_555 1_555
C3 H1 1_555 1_555
C4 C6 1_555 1_555
C6 C3 1_555 1_555
O3 C4 1_555 1_555
O4 C4 1_555 1_555
Co3 O3 1_555 1_555
Na3 O4 1_555 1_555
O8 Na1_4 1_555 1_555
H2 C5 1_555 1_555
H3 C7 1_555 1_555
C8 C5 1_555 1_555
H4 C8 1_555 1_555
C7 C8 1_555 1_555
Co3 O2_2 1_555 1_555
Na4 O1_2 1_555 1_555
O1_2 C1_2 1_555 1_555
O2_2 C1_2 1_555 1_555
C1_2 C2_2 1_555 1_555
C2_2 C3_2 1_555 1_555
C3_2 H1_2 1_555 1_555
C4_2 C6_2 1_555 1_555
C6_2 C3_2 1_555 1_555
O10 C4_2 1_555 1_555
O4_2 C4_2 1_555 1_555
Na3 O2_2 1_555 1_555
Na2 O4_2 1_555 1_555
O5_2 Na3 1_555 1_555
O6_2 Na4 1_555 1_555
O7_2 Co3 1_555 1_555
O8_2 Na4 1_555 1_555
C9_2 O5_2 1_555 1_555
C10_2 C9_2 1_555 1_555
C11_2 C10_2 1_555 1_555
H5_2 C11_2 1_555 1_555
C12_2 C14_2 1_555 1_555
C13_2 C10_2 1_555 1_555
H6_2 C13_2 1_555 1_555
C14_2 C11_2 1_555 1_555
C15_2 C14_2 1_555 1_555
H7_2 C15_2 1_555 1_555
O11 C12_2 1_555 1_555
O14 C12_2 1_555 1_555
O13_2 Na4 1_555 1_555
C16_2 C13_2 1_555 1_555
H8_2 C16_2 1_555 1_555
Na4 O7_2 1_555 1_555
O7_2 C9_2 1_555 1_555
C15_2 C16_2 1_555 1_555
H2_2 C5_2 1_555 1_555
H3_2 C7_2 1_555 1_555
C8_2 C5_2 1_555 1_555
H4_2 C8_2 1_555 1_555
C7_2 C8_2 1_555 1_555
O8_3 Na2_4 1_555 1_555
O6_3 Na2_6 1_555 1_555
O13_3 Na2_8 1_555 1_555
O6_4 Na3_2 1_555 1_555
O8_4 Na3_2 1_555 1_555
O13_4 Na3_2 1_555 1_555
H2_3 C5_3 1_555 1_555
H3_3 C7_3 1_555 1_555
C8_3 C5_3 1_555 1_555
H4_3 C8_3 1_555 1_555
C7_3 C8_3 1_555 1_555
O6 C1_3 1_555 1_555
C1_3 C2_3 1_555 1_555
C2_3 C3_3 1_555 1_555
C3_3 H1_3 1_555 1_555
C4_3 C6_3 1_555 1_555
C6_3 C3_3 1_555 1_555
O3_2 C4_3 1_555 1_555
O13_4 C4_3 1_555 1_555
Co2 O3_2 1_555 1_555
Co1_3 O8_3 1_555 1_555
O11_2 Co1_3 1_555 1_555
Co2 O9_2 1_555 1_555
C9_3 O6_3 1_555 1_555
C10_3 C9_3 1_555 1_555
C11_3 C10_3 1_555 1_555
H5_3 C11_3 1_555 1_555
C12_3 C14_3 1_555 1_555
C13_3 C10_3 1_555 1_555
H6_3 C13_3 1_555 1_555
C14_3 C11_3 1_555 1_555
C15_3 C14_3 1_555 1_555
H7_3 C15_3 1_555 1_555
O9_2 C12_3 1_555 1_555
O13_2 C12_3 1_555 1_555
C16_3 C13_3 1_555 1_555
H8_3 C16_3 1_555 1_555
C15_3 C16_3 1_555 1_555
O8 Co1_4 1_555 1_555
O10_2 Co1_4 1_555 1_555
H2_4 C5_4 1_555 1_555
H3_4 C7_4 1_555 1_555
C8_4 C5_4 1_555 1_555
H4_4 C8_4 1_555 1_555
C7_4 C8_4 1_555 1_555
Co2 O8_4 1_555 1_555
O6_2 C1_4 1_555 1_555
O8_4 C1_4 1_555 1_555
C1_4 C2_4 1_555 1_555
C2_4 C3_4 1_555 1_555
C3_4 H1_4 1_555 1_555
C4_4 C6_4 1_555 1_555
C6_4 C3_4 1_555 1_555
O10_2 C4_4 1_555 1_555
O13_3 C4_4 1_555 1_555
O8_2 Co2 1_555 1_555
C9_4 O6_4 1_555 1_555
C10_4 C9_4 1_555 1_555
C11_4 C10_4 1_555 1_555
H5_4 C11_4 1_555 1_555
C12_4 C14_4 1_555 1_555
C13_4 C10_4 1_555 1_555
H6_4 C13_4 1_555 1_555
C14_4 C11_4 1_555 1_555
C15_4 C14_4 1_555 1_555
H7_4 C15_4 1_555 1_555
O11_2 C12_4 1_555 1_555
O13 C12_4 1_555 1_555
C16_4 C13_4 1_555 1_555
H8_4 C16_4 1_555 1_555
O8_2 C9_4 1_555 1_555
C15_4 C16_4 1_555 1_555

#END
