
###############################################################################
#
# This file contains modified crystal structure data generated from the
# MOF subset of the Cambridge Structural Database (CSD) v543 
# hosted by the Cambridge Crystallographic Data Centre (CCDC).
#
# This work is licensed under the Creative Commons
# Attribution-NonCommercial-ShareAlike 4.0 International License.
# To view a copy of this license, visit
# http://creativecommons.org/licenses/by-nc-sa/4.0/
# or send a letter to
# Creative Commons, PO Box 1866, Mountain View, CA 94042, USA.
#
# CIF created using the CSD Python API on 29 September 2022
# The structure has been converted into the P1 space group
# The structure has a 3D framework
# The original CSD entry TILHAZ is in the tetragonal crystal system
# The framework has been calculated to contain at least 10.0% void space
# The void calculation uses a probe of radius 1.32A, grid spacing 0.4
#
###############################################################################

data_TILHAZ
_chemical_formula_moiety         '(C240 H368 Co28 N16 O136)n'
_symmetry_cell_setting           triclinic
_symmetry_space_group_name_H-M   'P 1'
_symmetry_Int_Tables_number      1
_space_group_name_Hall           'P 1'
loop_
_symmetry_equiv_pos_site_id
_symmetry_equiv_pos_as_xyz
1 x,y,z
_cell_length_a                   28.365(4)
_cell_length_b                   28.365(4)
_cell_length_c                   13.361(3)
_cell_angle_alpha                90
_cell_angle_beta                 90
_cell_angle_gamma                90
_cell_volume                     10749.9
loop_
_atom_site_label
_atom_site_type_symbol
_atom_site_fract_x
_atom_site_fract_y
_atom_site_fract_z
O7 O 0.11024(11) 0.05550(11) 0.5070(3)
O8 O 0.10010(12) 0.06533(12) 0.3455(3)
H11 H 0.0062 0.0659 0.5202
C10 C 0.04047(16) 0.12957(17) 0.5430(4)
H13 H 0.0585 0.1189 0.6023
H14 H 0.0307 0.1626 0.5548
C11 C 0.07251(18) 0.12788(17) 0.4513(4)
H15 H 0.0539 0.1369 0.3917
H16 H 0.0978 0.1516 0.4597
C12 C 0.09489(16) 0.08044(16) 0.4322(4)
Co5 Co 0.14183(2) 0.00639(2) 0.40522(5)
Co8 Co 0.15434(2) 0.06324(2) 0.63308(5)
Co2 Co 0.81324(2) 0.09566(2) 0.61692(5)
O1 O 0.82215(11) 0.04168(11) 0.5068(3)
O2 O 0.83615(12) 0.00791(11) 0.3595(3)
O3 O 0.69729(12) 0.05263(12) 0.1103(3)
C1 C 0.81859(15) 0.04029(15) 0.4116(4)
C2 C 0.79200(18) 0.07924(17) 0.3607(4)
H1 H 0.8089 0.1093 0.3724
H2 H 0.7605 0.0820 0.3922
C3 C 0.78557(18) 0.07268(18) 0.2490(4)
H3 H 0.7670 0.0437 0.2366
H4 H 0.8168 0.0687 0.2171
C4 C 0.76056(19) 0.11452(18) 0.2026(4)
H5 H 0.7778 0.1437 0.2205
H6 H 0.7285 0.1169 0.2313
C5 C 0.75675(18) 0.11130(18) 0.0892(4)
H7 H 0.7490 0.1430 0.0628
H8 H 0.7880 0.1024 0.0621
C6 C 0.72064(16) 0.07670(16) 0.0500(4)
O5 O 0.88382(11) 0.10592(11) 0.6120(3)
O6 O 0.91749(12) 0.03442(12) 0.6032(3)
C7 C 0.91855(16) 0.07870(17) 0.6131(4)
C8 C 0.96599(17) 0.10169(18) 0.6260(4)
H9 H 0.9828 0.0862 0.6820
H10 H 0.9613 0.1352 0.6442
C9 C 0.99671(17) 0.09902(18) 0.5320(4)
H12 H 0.9783 0.1097 0.4734
O9 O 0.80363(12) 0.15534(11) 0.5254(3)
N1 N 0.75668(17) 0.21731(15) 0.4857(4)
C13 C 0.77023(17) 0.18248(16) 0.5446(4)
H17 H 0.7535 0.1778 0.6054
C14 C 0.7805(3) 0.2277(2) 0.3920(5)
H18 H 0.7957 0.2586 0.3965
H19 H 0.7574 0.2279 0.3374
H20 H 0.8043 0.2035 0.3789
C15 C 0.7189(2) 0.2492(2) 0.5148(5)
H21 H 0.7011 0.2354 0.5704
H22 H 0.6978 0.2543 0.4578
H23 H 0.7324 0.2794 0.5358
Co3 Co 0.64183(2) 0.00639(2) 0.09478(5)
O10 O 0.74209(11) 0.08615(12) 0.6095(3)
O12 O 0.82556(11) 0.03505(11) 0.7054(3)
O14 O 0.80550(11) 0.13976(11) 0.7430(3)
O4 O 0.71495(11) 0.07556(11) 0.9554(3)
Co4 Co 0.75639(2) 0.10817(2) 0.84478(5)
Co6 Co 0.65434(2) 0.06324(2) 0.86692(5)
Co1 Co 0.85817(2) 0.99361(2) 0.59478(5)
Co7 Co 0.84566(2) 0.93676(2) 0.36692(5)
O11 O 0.80271(12) 0.94737(12) 0.6103(3)
O13 O 0.88976(11) 0.94450(11) 0.4930(3)
O15 O 0.89990(12) 0.93467(12) 0.6545(3)
O15_2 O 0.60010(12) 0.06533(12) 0.1545(3)
O13_2 O 0.61024(11) 0.05550(11) 0.9930(3)
Co2_2 Co 0.68676(2) 0.90434(2) 0.11692(5)
O1_2 O 0.67785(11) 0.95832(11) 0.0068(3)
O5_2 O 0.61618(11) 0.89408(11) 0.1120(3)
O6_2 O 0.58251(12) 0.96558(12) 0.1032(3)
O7_2 O 0.38976(11) 0.94450(11) 0.0070(3)
C7_2 C 0.58145(16) 0.92130(17) 0.1131(4)
C8_2 C 0.53401(17) 0.89831(18) 0.1260(4)
H9_2 H 0.5172 0.9138 0.1820
H10_2 H 0.5387 0.8648 0.1442
C9_2 C 0.50329(17) 0.90098(18) 0.0320(4)
H11_2 H 0.4938 0.9341 0.0202
C10_2 C 0.45953(16) 0.87043(17) 0.0430(4)
H13_2 H 0.4415 0.8811 0.1023
H14_2 H 0.4693 0.8374 0.0548
O9_2 O 0.69637(12) 0.84466(11) 0.0254(3)
C13_2 C 0.72977(17) 0.81752(16) 0.0446(4)
H17_2 H 0.7465 0.8222 0.1054
C15_2 C 0.7811(2) 0.7508(2) 0.0148(5)
H21_2 H 0.7989 0.7646 0.0704
H23_2 H 0.7676 0.7206 0.0358
Co8_2 Co 0.34566(2) 0.93676(2) 0.13308(5)
O10_2 O 0.75791(11) 0.91385(12) 0.1095(3)
O12_2 O 0.67444(11) 0.96495(11) 0.2054(3)
O14_2 O 0.69450(11) 0.86024(11) 0.2430(3)
O2_2 O 0.66385(12) 0.99209(11) 0.8595(3)
O4_2 O 0.78505(11) 0.92444(11) 0.4554(3)
C1_2 C 0.68141(15) 0.95971(15) 0.9116(4)
C2_2 C 0.70800(18) 0.92076(17) 0.8607(4)
H1_2 H 0.6911 0.8907 0.8724
H2_2 H 0.7395 0.9180 0.8922
C3_2 C 0.71443(18) 0.92732(18) 0.7490(4)
H3_2 H 0.7330 0.9563 0.7366
H4_2 H 0.6832 0.9313 0.7171
C4_2 C 0.73944(19) 0.88548(18) 0.7026(4)
H5_2 H 0.7222 0.8563 0.7205
H6_2 H 0.7715 0.8831 0.7313
C5_2 C 0.74325(18) 0.88870(18) 0.5892(4)
H7_2 H 0.7510 0.8570 0.5628
H8_2 H 0.7120 0.8976 0.5621
C6_2 C 0.77936(16) 0.92330(16) 0.5500(4)
O8_2 O 0.39990(12) 0.93467(12) 0.8455(3)
H12_2 H 0.5217 0.8903 0.9734
C11_2 C 0.42749(18) 0.87212(17) 0.9513(4)
H15_2 H 0.4461 0.8631 0.8917
H16_2 H 0.4022 0.8484 0.9597
C12_2 C 0.40511(16) 0.91956(16) 0.9322(4)
N1_2 N 0.74332(17) 0.78269(15) 0.9857(4)
C14_2 C 0.7195(3) 0.7723(2) 0.8920(5)
H18_2 H 0.7043 0.7414 0.8965
H19_2 H 0.7426 0.7721 0.8374
H20_2 H 0.6957 0.7965 0.8789
H22_2 H 0.8022 0.7457 0.9578
Co4_2 Co 0.74361(2) 0.89183(2) 0.34478(5)
Co5_2 Co 0.35817(2) 0.99361(2) 0.90522(5)
O1_3 O 0.70832(11) 0.07215(11) 0.7568(3)
C1_3 C 0.70971(15) 0.06859(15) 0.6616(4)
C2_3 C 0.67076(17) 0.04200(18) 0.6107(4)
H1_3 H 0.6407 0.0589 0.6224
H2_3 H 0.6680 0.0105 0.6422
C3_3 C 0.67732(18) 0.03557(18) 0.4990(4)
H3_3 H 0.7063 0.0170 0.4866
H4_3 H 0.6813 0.0668 0.4671
C4_3 C 0.63548(18) 0.01056(19) 0.4526(4)
H5_3 H 0.6063 0.0278 0.4705
C5_3 C 0.63870(18) 0.00675(18) 0.3392(4)
H8_3 H 0.6476 0.0380 0.3121
O5_3 O 0.64408(11) 0.13382(11) 0.8620(3)
O6_3 O 0.71558(12) 0.16749(12) 0.8532(3)
O7_3 O 0.69450(11) 0.36024(11) 0.7570(3)
O8_3 O 0.68467(12) 0.35010(12) 0.5955(3)
C7_3 C 0.67130(17) 0.16855(16) 0.8631(4)
C8_3 C 0.64831(18) 0.21599(17) 0.8760(4)
H9_3 H 0.6638 0.2328 0.9320
H10_3 H 0.6148 0.2113 0.8942
C9_3 C 0.65098(18) 0.24671(17) 0.7820(4)
H11_3 H 0.6841 0.2562 0.7702
H12_3 H 0.6403 0.2283 0.7234
C10_3 C 0.62043(17) 0.29047(16) 0.7930(4)
H13_3 H 0.6311 0.3085 0.8523
H14_3 H 0.5874 0.2807 0.8048
C11_3 C 0.62212(17) 0.32251(18) 0.7013(4)
H15_3 H 0.6131 0.3039 0.6417
H16_3 H 0.5984 0.3478 0.7097
C12_3 C 0.66956(16) 0.34489(16) 0.6822(4)
O9_3 O 0.59466(11) 0.05363(12) 0.7754(3)
N1_3 N 0.53269(15) 0.00668(17) 0.7357(4)
C13_3 C 0.56752(16) 0.02023(17) 0.7946(4)
H17_3 H 0.5722 0.0035 0.8554
C14_3 C 0.5223(2) 0.0305(3) 0.6420(5)
H18_3 H 0.4914 0.0457 0.6465
H19_3 H 0.5221 0.0074 0.5874
H20_3 H 0.5465 0.0543 0.6289
Co5_3 Co 0.74361(2) 0.39183(2) 0.65522(5)
Co8_3 Co 0.68676(2) 0.40434(2) 0.88308(5)
O11_2 O 0.80263(12) 0.05271(12) 0.8603(3)
O15_3 O 0.81533(12) 0.14990(12) 0.9045(3)
O3_2 O 0.69737(12) 0.94729(12) 0.3603(3)
H6_3 H 0.6331 0.9785 0.4813
H7_3 H 0.6070 0.9990 0.3128
C6_3 C 0.67330(16) 0.97064(16) 0.3000(4)
C15_3 C 0.5008(2) 0.9689(2) 0.7648(5)
H21_3 H 0.5146 0.9511 0.8204
H22_3 H 0.4957 0.9478 0.7078
H23_3 H 0.4706 0.9824 0.7858
C15_4 C 0.9992(2) 0.0311(2) 0.2648(5)
H21_4 H 0.9854 0.0489 0.3204
H6_4 H 0.8669 0.0215 0.9813
H7_4 H 0.8930 0.0010 0.8128
C6_4 C 0.82670(16) 0.02936(16) 0.8000(4)
O1_4 O 0.79168(11) 0.92785(11) 0.2568(3)
C1_4 C 0.79029(15) 0.93141(15) 0.1616(4)
C2_4 C 0.82924(17) 0.95800(18) 0.1107(4)
H1_4 H 0.8593 0.9411 0.1224
H2_4 H 0.8320 0.9895 0.1422
O5_4 O 0.85592(11) 0.86618(11) 0.3620(3)
O6_4 O 0.78442(12) 0.83251(12) 0.3532(3)
O7_4 O 0.80550(11) 0.63976(11) 0.2570(3)
O8_4 O 0.81533(12) 0.64990(12) 0.0955(3)
C7_4 C 0.82870(17) 0.83145(16) 0.3631(4)
C8_4 C 0.85169(18) 0.78401(17) 0.3760(4)
H9_4 H 0.8362 0.7672 0.4320
H10_4 H 0.8852 0.7887 0.3942
C9_4 C 0.84902(18) 0.75329(17) 0.2820(4)
H11_4 H 0.8159 0.7438 0.2702
H12_4 H 0.8597 0.7717 0.2234
C10_4 C 0.87957(17) 0.70953(16) 0.2930(4)
H13_4 H 0.8689 0.6915 0.3523
H14_4 H 0.9126 0.7193 0.3048
C11_4 C 0.87788(17) 0.67749(18) 0.2013(4)
H15_4 H 0.8869 0.6961 0.1417
H16_4 H 0.9016 0.6522 0.2097
C12_4 C 0.83044(16) 0.65511(16) 0.1822(4)
O9_4 O 0.90534(11) 0.94637(12) 0.2754(3)
N1_4 N 0.96731(15) 0.99332(17) 0.2357(4)
C13_4 C 0.93248(16) 0.97977(17) 0.2946(4)
H17_4 H 0.9278 0.9965 0.3554
C14_4 C 0.9777(2) 0.9695(3) 0.1420(5)
H19_4 H 0.9779 0.9926 0.0874
H20_4 H 0.9535 0.9457 0.1289
Co5_4 Co 0.75639(2) 0.60817(2) 0.15522(5)
Co8_4 Co 0.81324(2) 0.59566(2) 0.38308(5)
O15_4 O 0.68467(12) 0.85010(12) 0.4045(3)
C3_4 C 0.82268(18) 0.96443(18) 0.9990(4)
H3_4 H 0.7937 0.9830 0.9866
H4_4 H 0.8187 0.9332 0.9671
C4_4 C 0.86452(18) 0.98944(19) 0.9526(4)
H5_4 H 0.8937 0.9722 0.9705
C5_4 C 0.86130(18) 0.99325(18) 0.8392(4)
H8_4 H 0.8524 0.9620 0.8121
Co1_2 Co 0.35817(2) 0.49361(2) 0.09478(5)
Co2_3 Co 0.31324(2) 0.59566(2) 0.11692(5)
O1_5 O 0.32215(11) 0.54168(11) 0.0068(3)
O5_5 O 0.38382(11) 0.60592(11) 0.1120(3)
O6_5 O 0.41749(12) 0.53442(12) 0.1032(3)
O7_5 O 0.61024(11) 0.55550(11) 0.0070(3)
C7_5 C 0.41855(16) 0.57870(17) 0.1131(4)
C8_5 C 0.46599(17) 0.60169(18) 0.1260(4)
H9_5 H 0.4828 0.5862 0.1820
H10_5 H 0.4613 0.6352 0.1442
C9_5 C 0.49671(17) 0.59902(18) 0.0320(4)
H11_5 H 0.5062 0.5659 0.0202
C10_5 C 0.54047(16) 0.62957(17) 0.0430(4)
H13_5 H 0.5585 0.6189 0.1023
H14_5 H 0.5307 0.6626 0.0548
O9_5 O 0.30363(12) 0.65534(11) 0.0254(3)
C13_5 C 0.27023(17) 0.68248(16) 0.0446(4)
H17_5 H 0.2535 0.6778 0.1054
C15_5 C 0.2189(2) 0.7492(2) 0.0148(5)
H21_5 H 0.2011 0.7354 0.0704
H23_4 H 0.2324 0.7794 0.0358
Co8_5 Co 0.65434(2) 0.56324(2) 0.13308(5)
O10_3 O 0.24209(11) 0.58615(12) 0.1095(3)
O11_3 O 0.30271(12) 0.44737(12) 0.1103(3)
O12_3 O 0.32556(11) 0.53505(11) 0.2054(3)
O14_3 O 0.30550(11) 0.63976(11) 0.2430(3)
O15_5 O 0.39990(12) 0.43467(12) 0.1545(3)
O2_3 O 0.33615(12) 0.50791(11) 0.8595(3)
O3_3 O 0.19729(12) 0.55263(12) 0.6103(3)
O4_3 O 0.21495(11) 0.57556(11) 0.4554(3)
C1_5 C 0.31859(15) 0.54029(15) 0.9116(4)
C2_5 C 0.29200(18) 0.57924(17) 0.8607(4)
H1_5 H 0.3089 0.6093 0.8724
H2_5 H 0.2605 0.5820 0.8922
C3_5 C 0.28557(18) 0.57268(18) 0.7490(4)
H3_5 H 0.2670 0.5437 0.7366
H4_5 H 0.3168 0.5687 0.7171
C4_5 C 0.26056(19) 0.61452(18) 0.7026(4)
H5_5 H 0.2778 0.6437 0.7205
H6_5 H 0.2285 0.6169 0.7313
C5_5 C 0.25675(18) 0.61130(18) 0.5892(4)
H7_5 H 0.2490 0.6430 0.5628
H8_5 H 0.2880 0.6024 0.5621
C6_5 C 0.22064(16) 0.57670(16) 0.5500(4)
O8_5 O 0.60010(12) 0.56533(12) 0.8455(3)
H12_5 H 0.4783 0.6097 0.9734
C11_5 C 0.57251(18) 0.62788(17) 0.9513(4)
H15_5 H 0.5539 0.6369 0.8917
H16_5 H 0.5978 0.6516 0.9597
C12_5 C 0.59489(16) 0.58044(16) 0.9322(4)
N1_5 N 0.25668(17) 0.71731(15) 0.9857(4)
C14_5 C 0.2805(3) 0.7277(2) 0.8920(5)
H18_4 H 0.2957 0.7586 0.8965
H19_5 H 0.2574 0.7279 0.8374
H20_5 H 0.3043 0.7035 0.8789
H22_4 H 0.1978 0.7543 0.9578
Co3_2 Co 0.14183(2) 0.50639(2) 0.59478(5)
Co4_3 Co 0.25639(2) 0.60817(2) 0.34478(5)
Co5_5 Co 0.64183(2) 0.50639(2) 0.90522(5)
Co6_2 Co 0.15434(2) 0.56324(2) 0.36692(5)
Co7_2 Co 0.34566(2) 0.43676(2) 0.86692(5)
O13_3 O 0.38976(11) 0.44450(11) 0.9930(3)
Co2_4 Co 0.18676(2) 0.40434(2) 0.61692(5)
O1_6 O 0.17785(11) 0.45832(11) 0.5068(3)
O2_4 O 0.16385(12) 0.49209(11) 0.3595(3)
C1_6 C 0.18141(15) 0.45971(15) 0.4116(4)
C2_6 C 0.20800(18) 0.42076(17) 0.3607(4)
H1_6 H 0.1911 0.3907 0.3724
H2_6 H 0.2395 0.4180 0.3922
C3_6 C 0.21443(18) 0.42732(18) 0.2490(4)
H3_6 H 0.2330 0.4563 0.2366
H4_6 H 0.1832 0.4313 0.2171
C4_6 C 0.23944(19) 0.38548(18) 0.2026(4)
H5_6 H 0.2222 0.3563 0.2205
H6_6 H 0.2715 0.3831 0.2313
C5_6 C 0.24325(18) 0.38870(18) 0.0892(4)
H7_6 H 0.2510 0.3570 0.0628
H8_6 H 0.2120 0.3976 0.0621
C6_6 C 0.27936(16) 0.42330(16) 0.0500(4)
O5_6 O 0.11618(11) 0.39408(11) 0.6120(3)
O6_6 O 0.08251(12) 0.46558(12) 0.6032(3)
C7_6 C 0.08145(16) 0.42130(17) 0.6131(4)
C8_6 C 0.03401(17) 0.39831(18) 0.6260(4)
H9_6 H 0.0172 0.4138 0.6820
H10_6 H 0.0387 0.3648 0.6442
C9_6 C 0.00329(17) 0.40098(18) 0.5320(4)
H12_6 H 0.0217 0.3903 0.4734
O9_6 O 0.19637(12) 0.34466(11) 0.5254(3)
N1_6 N 0.24332(17) 0.28269(15) 0.4857(4)
C13_6 C 0.22977(17) 0.31752(16) 0.5446(4)
H17_6 H 0.2465 0.3222 0.6054
C14_6 C 0.2195(3) 0.2723(2) 0.3920(5)
H18_5 H 0.2043 0.2414 0.3965
H19_6 H 0.2426 0.2721 0.3374
H20_6 H 0.1957 0.2965 0.3789
C15_6 C 0.2811(2) 0.2508(2) 0.5148(5)
H21_6 H 0.2989 0.2646 0.5704
H22_5 H 0.3022 0.2457 0.4578
H23_5 H 0.2676 0.2206 0.5358
O10_4 O 0.25791(11) 0.41385(12) 0.6095(3)
O12_4 O 0.17444(11) 0.46495(11) 0.7054(3)
O13_4 O 0.11024(11) 0.55550(11) 0.4930(3)
O14_4 O 0.19450(11) 0.36024(11) 0.7430(3)
O15_6 O 0.10010(12) 0.56533(12) 0.6545(3)
O4_4 O 0.28505(11) 0.42444(11) 0.9554(3)
Co4_4 Co 0.24361(2) 0.39183(2) 0.84478(5)
O7_6 O 0.88976(11) 0.44450(11) 0.5070(3)
O8_6 O 0.89990(12) 0.43467(12) 0.3455(3)
H11_6 H 0.9938 0.4341 0.5202
C10_6 C 0.95953(16) 0.37043(17) 0.5430(4)
H13_6 H 0.9415 0.3811 0.6023
H14_6 H 0.9693 0.3374 0.5548
C11_6 C 0.92749(18) 0.37212(17) 0.4513(4)
H15_6 H 0.9461 0.3631 0.3917
H16_6 H 0.9022 0.3484 0.4597
C12_6 C 0.90511(16) 0.41956(16) 0.4322(4)
Co5_6 Co 0.85817(2) 0.49361(2) 0.40522(5)
Co8_6 Co 0.84566(2) 0.43676(2) 0.63308(5)
O1_7 O 0.20832(11) 0.57215(11) 0.2568(3)
C1_7 C 0.20971(15) 0.56859(15) 0.1616(4)
C2_7 C 0.17076(17) 0.54200(18) 0.1107(4)
H1_7 H 0.1407 0.5589 0.1224
H2_7 H 0.1680 0.5105 0.1422
O5_7 O 0.14408(11) 0.63382(11) 0.3620(3)
O6_7 O 0.21558(12) 0.66749(12) 0.3532(3)
O7_7 O 0.19450(11) 0.86024(11) 0.2570(3)
O8_7 O 0.18467(12) 0.85010(12) 0.0955(3)
C7_7 C 0.17130(17) 0.66855(16) 0.3631(4)
C8_7 C 0.14831(18) 0.71599(17) 0.3760(4)
H9_7 H 0.1638 0.7328 0.4320
H10_7 H 0.1148 0.7113 0.3942
C9_7 C 0.15098(18) 0.74671(17) 0.2820(4)
H11_7 H 0.1841 0.7562 0.2702
H12_7 H 0.1403 0.7283 0.2234
C10_7 C 0.12043(17) 0.79047(16) 0.2930(4)
H13_7 H 0.1311 0.8085 0.3523
H14_7 H 0.0874 0.7807 0.3048
C11_7 C 0.12212(17) 0.82251(18) 0.2013(4)
H15_7 H 0.1131 0.8039 0.1417
H16_7 H 0.0984 0.8478 0.2097
C12_7 C 0.16956(16) 0.84489(16) 0.1822(4)
O9_7 O 0.09466(11) 0.55363(12) 0.2754(3)
N1_7 N 0.03269(15) 0.50668(17) 0.2357(4)
C13_7 C 0.06752(16) 0.52023(17) 0.2946(4)
H17_7 H 0.0722 0.5035 0.3554
C14_7 C 0.0223(2) 0.5305(3) 0.1420(5)
H19_7 H 0.0221 0.5074 0.0874
H20_7 H 0.0465 0.5543 0.1289
C15_7 C 0.0008(2) 0.4689(2) 0.2648(5)
H21_7 H 0.0146 0.4511 0.3204
Co5_7 Co 0.24361(2) 0.89183(2) 0.15522(5)
Co8_7 Co 0.18676(2) 0.90434(2) 0.38308(5)
O11_4 O 0.30263(12) 0.55271(12) 0.3603(3)
O15_7 O 0.31533(12) 0.64990(12) 0.4045(3)
O3_4 O 0.19737(12) 0.44729(12) 0.8603(3)
C3_7 C 0.17732(18) 0.53557(18) 0.9990(4)
H3_7 H 0.2063 0.5170 0.9866
H4_7 H 0.1813 0.5668 0.9671
C4_7 C 0.13548(18) 0.51056(19) 0.9526(4)
H5_7 H 0.1063 0.5278 0.9705
H6_7 H 0.1331 0.4785 0.9813
C5_7 C 0.13870(18) 0.50675(18) 0.8392(4)
H7_7 H 0.1070 0.4990 0.8128
H8_7 H 0.1476 0.5380 0.8121
C6_7 C 0.17330(16) 0.47064(16) 0.8000(4)
O1_8 O 0.29168(11) 0.42785(11) 0.7568(3)
C1_8 C 0.29029(15) 0.43141(15) 0.6616(4)
C2_8 C 0.32924(17) 0.45800(18) 0.6107(4)
H1_8 H 0.3593 0.4411 0.6224
H2_8 H 0.3320 0.4895 0.6422
C3_8 C 0.32268(18) 0.46443(18) 0.4990(4)
H3_8 H 0.2937 0.4830 0.4866
H4_8 H 0.3187 0.4332 0.4671
C4_8 C 0.36452(18) 0.48944(19) 0.4526(4)
H5_8 H 0.3937 0.4722 0.4705
H6_8 H 0.3669 0.5215 0.4813
C5_8 C 0.36130(18) 0.49325(18) 0.3392(4)
H7_8 H 0.3930 0.5010 0.3128
H8_8 H 0.3524 0.4620 0.3121
C6_8 C 0.32670(16) 0.52936(16) 0.3000(4)
O5_8 O 0.35592(11) 0.36618(11) 0.8620(3)
O6_8 O 0.28442(12) 0.33251(12) 0.8532(3)
O7_8 O 0.30550(11) 0.13976(11) 0.7570(3)
O8_8 O 0.31533(12) 0.14990(12) 0.5955(3)
C7_8 C 0.32870(17) 0.33145(16) 0.8631(4)
C8_8 C 0.35169(18) 0.28401(17) 0.8760(4)
H9_8 H 0.3362 0.2672 0.9320
H10_8 H 0.3852 0.2887 0.8942
C9_8 C 0.34902(18) 0.25329(17) 0.7820(4)
H11_8 H 0.3159 0.2438 0.7702
H12_8 H 0.3597 0.2717 0.7234
C10_8 C 0.37957(17) 0.20953(16) 0.7930(4)
H13_8 H 0.3689 0.1915 0.8523
H14_8 H 0.4126 0.2193 0.8048
C11_8 C 0.37788(17) 0.17749(18) 0.7013(4)
H15_8 H 0.3869 0.1961 0.6417
H16_8 H 0.4016 0.1522 0.7097
C12_8 C 0.33044(16) 0.15511(16) 0.6822(4)
O9_8 O 0.40534(11) 0.44637(12) 0.7754(3)
N1_8 N 0.46731(15) 0.49332(17) 0.7357(4)
C13_8 C 0.43248(16) 0.47977(17) 0.7946(4)
H17_8 H 0.4278 0.4965 0.8554
C14_8 C 0.4777(2) 0.4695(3) 0.6420(5)
H18_6 H 0.5086 0.4543 0.6465
H19_8 H 0.4779 0.4926 0.5874
H20_8 H 0.4535 0.4457 0.6289
C15_8 C 0.4992(2) 0.5311(2) 0.7648(5)
H21_8 H 0.4854 0.5489 0.8204
H22_6 H 0.5043 0.5522 0.7078
H23_6 H 0.5294 0.5176 0.7858
Co5_8 Co 0.25639(2) 0.10817(2) 0.65522(5)
Co8_8 Co 0.31324(2) 0.09566(2) 0.88308(5)
O15_8 O 0.18467(12) 0.35010(12) 0.9045(3)
O11_5 O 0.19729(12) 0.05263(12) 0.3897(3)
O4_5 O 0.28505(11) 0.92444(11) 0.0446(3)
O1_9 O 0.17785(11) 0.95832(11) 0.4932(3)
O2_5 O 0.16385(12) 0.99209(11) 0.6405(3)
O3_5 O 0.30271(12) 0.94737(12) 0.8897(3)
C1_9 C 0.18141(15) 0.95971(15) 0.5884(4)
C2_9 C 0.20800(18) 0.92076(17) 0.6393(4)
H1_9 H 0.1911 0.8907 0.6276
H2_9 H 0.2395 0.9180 0.6078
C3_9 C 0.21443(18) 0.92732(18) 0.7510(4)
H3_9 H 0.2330 0.9563 0.7634
H4_9 H 0.1832 0.9313 0.7829
C4_9 C 0.23944(19) 0.88548(18) 0.7974(4)
H5_9 H 0.2222 0.8563 0.7795
H6_9 H 0.2715 0.8831 0.7687
C5_9 C 0.24325(18) 0.88870(18) 0.9108(4)
H7_9 H 0.2510 0.8570 0.9372
H8_9 H 0.2120 0.8976 0.9379
C6_9 C 0.27936(16) 0.92330(16) 0.9500(4)
O5_9 O 0.11618(11) 0.89408(11) 0.3880(3)
O6_9 O 0.08251(12) 0.96558(12) 0.3968(3)
C7_9 C 0.08145(16) 0.92130(17) 0.3869(4)
C8_9 C 0.03401(17) 0.89831(18) 0.3740(4)
H9_9 H 0.0172 0.9138 0.3180
H10_9 H 0.0387 0.8648 0.3558
C9_9 C 0.00329(17) 0.90098(18) 0.4680(4)
H12_9 H 0.0217 0.8903 0.5266
O9_9 O 0.19637(12) 0.84466(11) 0.4746(3)
N1_9 N 0.24332(17) 0.78269(15) 0.5143(4)
C13_9 C 0.22977(17) 0.81752(16) 0.4554(4)
H17_9 H 0.2465 0.8222 0.3946
C14_9 C 0.2195(3) 0.7723(2) 0.6080(5)
H18_7 H 0.2043 0.7414 0.6035
H19_9 H 0.2426 0.7721 0.6626
H20_9 H 0.1957 0.7965 0.6211
C15_9 C 0.2811(2) 0.7508(2) 0.4852(5)
H21_9 H 0.2989 0.7646 0.4296
H22_7 H 0.3022 0.7457 0.5422
H23_7 H 0.2676 0.7206 0.4642
O10_5 O 0.25791(11) 0.91385(12) 0.3905(3)
O12_5 O 0.17444(11) 0.96495(11) 0.2946(3)
H11_9 H 0.9938 0.9341 0.4798
C10_9 C 0.95953(16) 0.87043(17) 0.4570(4)
H13_9 H 0.9415 0.8811 0.3977
H14_9 H 0.9693 0.8374 0.4452
C11_9 C 0.92749(18) 0.87212(17) 0.5487(4)
H15_9 H 0.9461 0.8631 0.6083
H16_9 H 0.9022 0.8484 0.5403
C12_9 C 0.90511(16) 0.91956(16) 0.5678(4)
O2_6 O 0.33615(12) 0.00791(11) 0.1405(3)
O4_6 O 0.21495(11) 0.07556(11) 0.5446(3)
C1_10 C 0.31859(15) 0.04029(15) 0.0884(4)
C2_10 C 0.29200(18) 0.07924(17) 0.1393(4)
H1_10 H 0.3089 0.1093 0.1276
H2_10 H 0.2605 0.0820 0.1078
C3_10 C 0.28557(18) 0.07268(18) 0.2510(4)
H3_10 H 0.2670 0.0437 0.2634
H4_10 H 0.3168 0.0687 0.2829
C4_10 C 0.26056(19) 0.11452(18) 0.2974(4)
H5_10 H 0.2778 0.1437 0.2795
H6_10 H 0.2285 0.1169 0.2687
C5_10 C 0.25675(18) 0.11130(18) 0.4108(4)
H7_10 H 0.2490 0.1430 0.4372
H8_10 H 0.2880 0.1024 0.4379
C6_10 C 0.22064(16) 0.07670(16) 0.4500(4)
H12_10 H 0.4783 0.1097 0.0266
C11_10 C 0.57251(18) 0.12788(17) 0.0487(4)
H15_10 H 0.5539 0.1369 0.1083
H16_10 H 0.5978 0.1516 0.0403
C12_10 C 0.59489(16) 0.08044(16) 0.0678(4)
N1_10 N 0.25668(17) 0.21731(15) 0.0143(4)
C14_10 C 0.2805(3) 0.2277(2) 0.1080(5)
H18_8 H 0.2957 0.2586 0.1035
H19_10 H 0.2574 0.2279 0.1626
H20_10 H 0.3043 0.2035 0.1211
H22_8 H 0.1978 0.2543 0.0422
O1_10 O 0.32215(11) 0.04168(11) 0.9932(3)
O5_10 O 0.38382(11) 0.10592(11) 0.8880(3)
O6_10 O 0.41749(12) 0.03442(12) 0.8968(3)
C7_10 C 0.41855(16) 0.07870(17) 0.8869(4)
C8_10 C 0.46599(17) 0.10169(18) 0.8740(4)
H9_10 H 0.4828 0.0862 0.8180
H10_10 H 0.4613 0.1352 0.8558
C9_10 C 0.49671(17) 0.09902(18) 0.9680(4)
H11_10 H 0.5062 0.0659 0.9798
C10_10 C 0.54047(16) 0.12957(17) 0.9570(4)
H13_10 H 0.5585 0.1189 0.8977
H14_10 H 0.5307 0.1626 0.9452
O9_10 O 0.30363(12) 0.15534(11) 0.9746(3)
C13_10 C 0.27023(17) 0.18248(16) 0.9554(4)
H17_10 H 0.2535 0.1778 0.8946
C15_10 C 0.2189(2) 0.2492(2) 0.9852(5)
H21_10 H 0.2011 0.2354 0.9296
H23_8 H 0.2324 0.2794 0.9642
O10_6 O 0.24209(11) 0.08615(12) 0.8905(3)
O12_6 O 0.32556(11) 0.03505(11) 0.7946(3)
O3_6 O 0.30263(12) 0.05271(12) 0.6397(3)
H6_11 H 0.3669 0.0215 0.5187
H7_11 H 0.3930 0.0010 0.6872
C6_11 C 0.32670(16) 0.02936(16) 0.7000(4)
C15_11 C 0.4992(2) 0.0311(2) 0.2352(5)
H21_11 H 0.4854 0.0489 0.1796
H22_9 H 0.5043 0.0522 0.2922
H23_9 H 0.5294 0.0176 0.2142
O1_11 O 0.29168(11) 0.92785(11) 0.2432(3)
C1_11 C 0.29029(15) 0.93141(15) 0.3384(4)
C2_11 C 0.32924(17) 0.95800(18) 0.3893(4)
H1_11 H 0.3593 0.9411 0.3776
H2_11 H 0.3320 0.9895 0.3578
C3_11 C 0.32268(18) 0.96443(18) 0.5010(4)
H3_11 H 0.2937 0.9830 0.5134
H4_11 H 0.3187 0.9332 0.5329
C4_11 C 0.36452(18) 0.98944(19) 0.5474(4)
H5_11 H 0.3937 0.9722 0.5295
C5_11 C 0.36130(18) 0.99325(18) 0.6608(4)
H8_11 H 0.3524 0.9620 0.6879
O5_11 O 0.35592(11) 0.86618(11) 0.1380(3)
O6_11 O 0.28442(12) 0.83251(12) 0.1468(3)
C7_11 C 0.32870(17) 0.83145(16) 0.1369(4)
C8_11 C 0.35169(18) 0.78401(17) 0.1240(4)
H9_11 H 0.3362 0.7672 0.0680
H10_11 H 0.3852 0.7887 0.1058
C9_11 C 0.34902(18) 0.75329(17) 0.2180(4)
H11_11 H 0.3159 0.7438 0.2298
H12_11 H 0.3597 0.7717 0.2766
C10_11 C 0.37957(17) 0.70953(16) 0.2070(4)
H13_11 H 0.3689 0.6915 0.1477
H14_11 H 0.4126 0.7193 0.1952
C11_11 C 0.37788(17) 0.67749(18) 0.2987(4)
H15_11 H 0.3869 0.6961 0.3583
H16_11 H 0.4016 0.6522 0.2903
C12_11 C 0.33044(16) 0.65511(16) 0.3178(4)
O9_11 O 0.40534(11) 0.94637(12) 0.2246(3)
N1_11 N 0.46731(15) 0.99332(17) 0.2643(4)
C13_11 C 0.43248(16) 0.97977(17) 0.2054(4)
H17_11 H 0.4278 0.9965 0.1446
C14_11 C 0.4777(2) 0.9695(3) 0.3580(5)
H18_9 H 0.5086 0.9543 0.3535
H19_11 H 0.4779 0.9926 0.4126
H20_11 H 0.4535 0.9457 0.3711
O11_6 O 0.19737(12) 0.94729(12) 0.1397(3)
C3_12 C 0.17732(18) 0.03557(18) 0.0010(4)
H3_12 H 0.2063 0.0170 0.0134
H4_12 H 0.1813 0.0668 0.0329
C4_12 C 0.13548(18) 0.01056(19) 0.0474(4)
H5_12 H 0.1063 0.0278 0.0295
C5_12 C 0.13870(18) 0.00675(18) 0.1608(4)
H8_12 H 0.1476 0.0380 0.1879
O1_12 O 0.20832(11) 0.07215(11) 0.7432(3)
C1_12 C 0.20971(15) 0.06859(15) 0.8384(4)
C2_12 C 0.17076(17) 0.04200(18) 0.8893(4)
H1_12 H 0.1407 0.0589 0.8776
H2_12 H 0.1680 0.0105 0.8578
O5_12 O 0.14408(11) 0.13382(11) 0.6380(3)
O6_12 O 0.21558(12) 0.16749(12) 0.6468(3)
C7_12 C 0.17130(17) 0.16855(16) 0.6369(4)
C8_12 C 0.14831(18) 0.21599(17) 0.6240(4)
H9_12 H 0.1638 0.2328 0.5680
H10_12 H 0.1148 0.2113 0.6058
C9_12 C 0.15098(18) 0.24671(17) 0.7180(4)
H11_12 H 0.1841 0.2562 0.7298
H12_12 H 0.1403 0.2283 0.7766
C10_12 C 0.12043(17) 0.29047(16) 0.7070(4)
H13_12 H 0.1311 0.3085 0.6477
H14_12 H 0.0874 0.2807 0.6952
C11_12 C 0.12212(17) 0.32251(18) 0.7987(4)
H15_12 H 0.1131 0.3039 0.8583
H16_12 H 0.0984 0.3478 0.7903
C12_12 C 0.16956(16) 0.34489(16) 0.8178(4)
O9_12 O 0.09466(11) 0.05363(12) 0.7246(3)
N1_12 N 0.03269(15) 0.00668(17) 0.7643(4)
C13_12 C 0.06752(16) 0.02023(17) 0.7054(4)
H17_12 H 0.0722 0.0035 0.6446
C14_12 C 0.0223(2) 0.0305(3) 0.8580(5)
H19_12 H 0.0221 0.0074 0.9126
H20_12 H 0.0465 0.0543 0.8711
H6_12 H 0.1331 0.9785 0.0187
H7_12 H 0.1070 0.9990 0.1872
C6_12 C 0.17330(16) 0.97064(16) 0.2000(4)
C15_12 C 0.0008(2) 0.9689(2) 0.7352(5)
H21_12 H 0.0146 0.9511 0.6796
O2_7 O 0.66385(12) 0.49209(11) 0.1405(3)
O3_7 O 0.80271(12) 0.44737(12) 0.3897(3)
O4_7 O 0.78505(11) 0.42444(11) 0.5446(3)
C1_13 C 0.68141(15) 0.45971(15) 0.0884(4)
C2_13 C 0.70800(18) 0.42076(17) 0.1393(4)
H1_13 H 0.6911 0.3907 0.1276
H2_13 H 0.7395 0.4180 0.1078
C3_13 C 0.71443(18) 0.42732(18) 0.2510(4)
H3_13 H 0.7330 0.4563 0.2634
H4_13 H 0.6832 0.4313 0.2829
C4_13 C 0.73944(19) 0.38548(18) 0.2974(4)
H5_13 H 0.7222 0.3563 0.2795
H6_13 H 0.7715 0.3831 0.2687
C5_13 C 0.74325(18) 0.38870(18) 0.4108(4)
H7_13 H 0.7510 0.3570 0.4372
H8_13 H 0.7120 0.3976 0.4379
C6_13 C 0.77936(16) 0.42330(16) 0.4500(4)
H12_13 H 0.5217 0.3903 0.0266
C11_13 C 0.42749(18) 0.37212(17) 0.0487(4)
H15_13 H 0.4461 0.3631 0.1083
H16_13 H 0.4022 0.3484 0.0403
C12_13 C 0.40511(16) 0.41956(16) 0.0678(4)
N1_13 N 0.74332(17) 0.28269(15) 0.0143(4)
C14_13 C 0.7195(3) 0.2723(2) 0.1080(5)
H18_10 H 0.7043 0.2414 0.1035
H19_13 H 0.7426 0.2721 0.1626
H20_13 H 0.6957 0.2965 0.1211
H22_10 H 0.8022 0.2457 0.0422
O1_13 O 0.67785(11) 0.45832(11) 0.9932(3)
O5_13 O 0.61618(11) 0.39408(11) 0.8880(3)
O6_13 O 0.58251(12) 0.46558(12) 0.8968(3)
C7_13 C 0.58145(16) 0.42130(17) 0.8869(4)
C8_13 C 0.53401(17) 0.39831(18) 0.8740(4)
H9_13 H 0.5172 0.4138 0.8180
H10_13 H 0.5387 0.3648 0.8558
C9_13 C 0.50329(17) 0.40098(18) 0.9680(4)
H11_13 H 0.4938 0.4341 0.9798
C10_13 C 0.45953(16) 0.37043(17) 0.9570(4)
H13_13 H 0.4415 0.3811 0.8977
H14_13 H 0.4693 0.3374 0.9452
O9_13 O 0.69637(12) 0.34466(11) 0.9746(3)
C13_13 C 0.72977(17) 0.31752(16) 0.9554(4)
H17_13 H 0.7465 0.3222 0.8946
C15_13 C 0.7811(2) 0.2508(2) 0.9852(5)
H21_13 H 0.7989 0.2646 0.9296
H23_10 H 0.7676 0.2206 0.9642
O10_7 O 0.75791(11) 0.41385(12) 0.8905(3)
O11_7 O 0.69729(12) 0.55263(12) 0.8897(3)
O12_7 O 0.67444(11) 0.46495(11) 0.7946(3)
H11_14 H 0.0062 0.5659 0.4798
C10_14 C 0.04047(16) 0.62957(17) 0.4570(4)
H13_14 H 0.0585 0.6189 0.3977
H14_14 H 0.0307 0.6626 0.4452
C11_14 C 0.07251(18) 0.62788(17) 0.5487(4)
H15_14 H 0.0539 0.6369 0.6083
H16_14 H 0.0978 0.6516 0.5403
C12_14 C 0.09489(16) 0.58044(16) 0.5678(4)
O4_8 O 0.71495(11) 0.57556(11) 0.0446(3)
O1_14 O 0.82215(11) 0.54168(11) 0.4932(3)
O2_8 O 0.83615(12) 0.50791(11) 0.6405(3)
C1_14 C 0.81859(15) 0.54029(15) 0.5884(4)
C2_14 C 0.79200(18) 0.57924(17) 0.6393(4)
H1_14 H 0.8089 0.6093 0.6276
H2_14 H 0.7605 0.5820 0.6078
C3_14 C 0.78557(18) 0.57268(18) 0.7510(4)
H3_14 H 0.7670 0.5437 0.7634
H4_14 H 0.8168 0.5687 0.7829
C4_14 C 0.76056(19) 0.61452(18) 0.7974(4)
H5_14 H 0.7778 0.6437 0.7795
H6_14 H 0.7285 0.6169 0.7687
C5_14 C 0.75675(18) 0.61130(18) 0.9108(4)
H7_14 H 0.7490 0.6430 0.9372
H8_14 H 0.7880 0.6024 0.9379
C6_14 C 0.72064(16) 0.57670(16) 0.9500(4)
O5_14 O 0.88382(11) 0.60592(11) 0.3880(3)
O6_14 O 0.91749(12) 0.53442(12) 0.3968(3)
C7_14 C 0.91855(16) 0.57870(17) 0.3869(4)
C8_14 C 0.96599(17) 0.60169(18) 0.3740(4)
H9_14 H 0.9828 0.5862 0.3180
H10_14 H 0.9613 0.6352 0.3558
C9_14 C 0.99671(17) 0.59902(18) 0.4680(4)
H12_14 H 0.9783 0.6097 0.5266
O9_14 O 0.80363(12) 0.65534(11) 0.4746(3)
N1_14 N 0.75668(17) 0.71731(15) 0.5143(4)
C13_14 C 0.77023(17) 0.68248(16) 0.4554(4)
H17_14 H 0.7535 0.6778 0.3946
C14_14 C 0.7805(3) 0.7277(2) 0.6080(5)
H18_11 H 0.7957 0.7586 0.6035
H19_14 H 0.7574 0.7279 0.6626
H20_14 H 0.8043 0.7035 0.6211
C15_14 C 0.7189(2) 0.7492(2) 0.4852(5)
H21_14 H 0.7011 0.7354 0.4296
H22_11 H 0.6978 0.7543 0.5422
H23_11 H 0.7324 0.7794 0.4642
O10_8 O 0.74209(11) 0.58615(12) 0.3905(3)
O12_8 O 0.82556(11) 0.53505(11) 0.2946(3)
O3_8 O 0.80263(12) 0.55271(12) 0.1397(3)
C3_15 C 0.82268(18) 0.46443(18) 0.0010(4)
H3_15 H 0.7937 0.4830 0.0134
H4_15 H 0.8187 0.4332 0.0329
C4_15 C 0.86452(18) 0.48944(19) 0.0474(4)
H5_15 H 0.8937 0.4722 0.0295
H6_15 H 0.8669 0.5215 0.0187
C5_15 C 0.86130(18) 0.49325(18) 0.1608(4)
H7_15 H 0.8930 0.5010 0.1872
H8_15 H 0.8524 0.4620 0.1879
C6_15 C 0.82670(16) 0.52936(16) 0.2000(4)
O1_15 O 0.79168(11) 0.42785(11) 0.7432(3)
C1_15 C 0.79029(15) 0.43141(15) 0.8384(4)
C2_15 C 0.82924(17) 0.45800(18) 0.8893(4)
H1_15 H 0.8593 0.4411 0.8776
H2_15 H 0.8320 0.4895 0.8578
O5_15 O 0.85592(11) 0.36618(11) 0.6380(3)
O6_15 O 0.78442(12) 0.33251(12) 0.6468(3)
C7_15 C 0.82870(17) 0.33145(16) 0.6369(4)
C8_15 C 0.85169(18) 0.28401(17) 0.6240(4)
H9_15 H 0.8362 0.2672 0.5680
H10_15 H 0.8852 0.2887 0.6058
C9_15 C 0.84902(18) 0.25329(17) 0.7180(4)
H11_15 H 0.8159 0.2438 0.7298
H12_15 H 0.8597 0.2717 0.7766
C10_15 C 0.87957(17) 0.20953(16) 0.7070(4)
H13_15 H 0.8689 0.1915 0.6477
H14_15 H 0.9126 0.2193 0.6952
C11_15 C 0.87788(17) 0.17749(18) 0.7987(4)
H15_15 H 0.8869 0.1961 0.8583
H16_15 H 0.9016 0.1522 0.7903
C12_15 C 0.83044(16) 0.15511(16) 0.8178(4)
O9_15 O 0.90534(11) 0.44637(12) 0.7246(3)
N1_15 N 0.96731(15) 0.49332(17) 0.7643(4)
C13_15 C 0.93248(16) 0.47977(17) 0.7054(4)
H17_15 H 0.9278 0.4965 0.6446
C14_15 C 0.9777(2) 0.4695(3) 0.8580(5)
H19_15 H 0.9779 0.4926 0.9126
H20_15 H 0.9535 0.4457 0.8711
C15_15 C 0.9992(2) 0.5311(2) 0.7352(5)
H21_15 H 0.9854 0.5489 0.6796
O11_8 O 0.69737(12) 0.44729(12) 0.6397(3)
O1_16 O 0.70832(11) 0.57215(11) 0.2432(3)
C1_16 C 0.70971(15) 0.56859(15) 0.3384(4)
C2_16 C 0.67076(17) 0.54200(18) 0.3893(4)
H1_16 H 0.6407 0.5589 0.3776
H2_16 H 0.6680 0.5105 0.3578
C3_16 C 0.67732(18) 0.53557(18) 0.5010(4)
H3_16 H 0.7063 0.5170 0.5134
H4_16 H 0.6813 0.5668 0.5329
C4_16 C 0.63548(18) 0.51056(19) 0.5474(4)
H5_16 H 0.6063 0.5278 0.5295
H6_16 H 0.6331 0.4785 0.5187
C5_16 C 0.63870(18) 0.50675(18) 0.6608(4)
H7_16 H 0.6070 0.4990 0.6872
H8_16 H 0.6476 0.5380 0.6879
C6_16 C 0.67330(16) 0.47064(16) 0.7000(4)
O5_16 O 0.64408(11) 0.63382(11) 0.1380(3)
O6_16 O 0.71558(12) 0.66749(12) 0.1468(3)
C7_16 C 0.67130(17) 0.66855(16) 0.1369(4)
C8_16 C 0.64831(18) 0.71599(17) 0.1240(4)
H9_16 H 0.6638 0.7328 0.0680
H10_16 H 0.6148 0.7113 0.1058
C9_16 C 0.65098(18) 0.74671(17) 0.2180(4)
H11_16 H 0.6841 0.7562 0.2298
H12_16 H 0.6403 0.7283 0.2766
C10_16 C 0.62043(17) 0.79047(16) 0.2070(4)
H13_16 H 0.6311 0.8085 0.1477
H14_16 H 0.5874 0.7807 0.1952
C11_16 C 0.62212(17) 0.82251(18) 0.2987(4)
H15_16 H 0.6131 0.8039 0.3583
H16_16 H 0.5984 0.8478 0.2903
C12_16 C 0.66956(16) 0.84489(16) 0.3178(4)
O9_16 O 0.59466(11) 0.55363(12) 0.2246(3)
N1_16 N 0.53269(15) 0.50668(17) 0.2643(4)
C13_16 C 0.56752(16) 0.52023(17) 0.2054(4)
H17_16 H 0.5722 0.5035 0.1446
C14_16 C 0.5223(2) 0.5305(3) 0.3580(5)
H18_12 H 0.4914 0.5457 0.3535
H19_16 H 0.5221 0.5074 0.4126
H20_16 H 0.5465 0.5543 0.3711
C15_16 C 0.5008(2) 0.4689(2) 0.2352(5)
H21_16 H 0.5146 0.4511 0.1796
H22_12 H 0.4957 0.4478 0.2922
H23_12 H 0.4706 0.4824 0.2142
H22_13 H 0.0043 0.0522 0.2078
H23_13 H 0.0294 0.0176 0.2858
H18_13 H 0.0086 0.9543 0.1465
H18_14 H 0.9914 0.5457 0.1465
H22_14 H 0.9957 0.4478 0.2078
H23_14 H 0.9706 0.4824 0.2858
H18_15 H 0.9914 0.0457 0.8535
H22_15 H 0.9957 0.9478 0.7922
H23_15 H 0.9706 0.9824 0.7142
H18_16 H 0.0086 0.4543 0.8535
H22_16 H 0.0043 0.5522 0.7922
H23_16 H 0.0294 0.5176 0.7142
loop_
_geom_bond_atom_site_label_1
_geom_bond_atom_site_label_2
_geom_bond_site_symmetry_1
_geom_bond_site_symmetry_2
O7 C12 1_555 1_555
O8 C12 1_555 1_555
H13 C10 1_555 1_555
H14 C10 1_555 1_555
C11 C10 1_555 1_555
H15 C11 1_555 1_555
H16 C11 1_555 1_555
C12 C11 1_555 1_555
Co5 O7 1_555 1_555
Co8 O7 1_555 1_555
O8 Co5 1_555 1_555
Co2 O1 1_555 1_555
O1 C1 1_555 1_555
O2 C1 1_555 1_555
O3 C6 1_555 1_555
C1 C2 1_555 1_555
C2 H1 1_555 1_555
H2 C2 1_555 1_555
C3 C2 1_555 1_555
H3 C3 1_555 1_555
H4 C3 1_555 1_555
C4 C3 1_555 1_555
H5 C4 1_555 1_555
H6 C4 1_555 1_555
C5 C4 1_555 1_555
H7 C5 1_555 1_555
H8 C5 1_555 1_555
C6 C5 1_555 1_555
O5 Co2 1_555 1_555
C7 O5 1_555 1_555
C8 C7 1_555 1_555
H9 C8 1_555 1_555
H10 C8 1_555 1_555
C9 C8 1_555 1_555
H12 C9 1_555 1_555
O9 Co2 1_555 1_555
N1 C13 1_555 1_555
C13 O9 1_555 1_555
H17 C13 1_555 1_555
C14 N1 1_555 1_555
H18 C14 1_555 1_555
H19 C14 1_555 1_555
H20 C14 1_555 1_555
C15 N1 1_555 1_555
H21 C15 1_555 1_555
H22 C15 1_555 1_555
H23 C15 1_555 1_555
Co3 O3 1_555 1_555
O10 Co2 1_555 1_555
O14 Co2 1_555 1_555
Co2 O12 1_555 1_555
O6 C7 1_555 1_555
Co4 O4 1_555 1_555
Co6 O4 1_555 1_555
O11 Co1 1_555 1_555
O13 Co1 1_555 1_555
O15 Co1 1_555 1_555
Co7 O13 1_555 1_555
O15_2 Co3 1_555 1_555
Co6 O13_2 1_555 1_555
Co2_2 O1_2 1_555 1_555
O5_2 Co2_2 1_555 1_555
C7_2 O5_2 1_555 1_555
C8_2 C7_2 1_555 1_555
H9_2 C8_2 1_555 1_555
H10_2 C8_2 1_555 1_555
C9_2 C8_2 1_555 1_555
H11_2 C9_2 1_555 1_555
C10_2 C9_2 1_555 1_555
H13_2 C10_2 1_555 1_555
H14_2 C10_2 1_555 1_555
O9_2 Co2_2 1_555 1_555
C13_2 O9_2 1_555 1_555
H17_2 C13_2 1_555 1_555
H21_2 C15_2 1_555 1_555
H23_2 C15_2 1_555 1_555
Co8_2 O7_2 1_555 1_555
O10_2 Co2_2 1_555 1_555
O14_2 Co2_2 1_555 1_555
Co2_2 O12_2 1_555 1_555
O6_2 C7_2 1_555 1_555
O2_2 C1_2 1_555 1_555
O11 C6_2 1_555 1_555
O4_2 C6_2 1_555 1_555
C1_2 C2_2 1_555 1_555
C2_2 H1_2 1_555 1_555
H2_2 C2_2 1_555 1_555
C3_2 C2_2 1_555 1_555
H3_2 C3_2 1_555 1_555
H4_2 C3_2 1_555 1_555
C4_2 C3_2 1_555 1_555
H5_2 C4_2 1_555 1_555
H6_2 C4_2 1_555 1_555
C5_2 C4_2 1_555 1_555
H7_2 C5_2 1_555 1_555
H8_2 C5_2 1_555 1_555
C6_2 C5_2 1_555 1_555
O8_2 C12_2 1_555 1_555
H15_2 C11_2 1_555 1_555
H16_2 C11_2 1_555 1_555
C12_2 C11_2 1_555 1_555
C14_2 N1_2 1_555 1_555
H18_2 C14_2 1_555 1_555
H19_2 C14_2 1_555 1_555
H20_2 C14_2 1_555 1_555
Co4_2 O4_2 1_555 1_555
Co7 O4_2 1_555 1_555
O8_2 Co5_2 1_555 1_555
Co4 O1_3 1_555 1_555
Co6 O1_3 1_555 1_555
O1_3 C1_3 1_555 1_555
O10 C1_3 1_555 1_555
C1_3 C2_3 1_555 1_555
C2_3 H1_3 1_555 1_555
H2_3 C2_3 1_555 1_555
C3_3 C2_3 1_555 1_555
H3_3 C3_3 1_555 1_555
H4_3 C3_3 1_555 1_555
C4_3 C3_3 1_555 1_555
H5_3 C4_3 1_555 1_555
C5_3 C4_3 1_555 1_555
H8_3 C5_3 1_555 1_555
O5_3 Co6 1_555 1_555
O6_3 Co4 1_555 1_555
O7_3 C12_3 1_555 1_555
O8_3 C12_3 1_555 1_555
C7_3 O5_3 1_555 1_555
C8_3 C7_3 1_555 1_555
H9_3 C8_3 1_555 1_555
H10_3 C8_3 1_555 1_555
C9_3 C8_3 1_555 1_555
H11_3 C9_3 1_555 1_555
H12_3 C9_3 1_555 1_555
C10_3 C9_3 1_555 1_555
H13_3 C10_3 1_555 1_555
H14_3 C10_3 1_555 1_555
C11_3 C10_3 1_555 1_555
H15_3 C11_3 1_555 1_555
H16_3 C11_3 1_555 1_555
C12_3 C11_3 1_555 1_555
O9_3 Co6 1_555 1_555
N1_3 C13_3 1_555 1_555
C13_3 O9_3 1_555 1_555
H17_3 C13_3 1_555 1_555
C14_3 N1_3 1_555 1_555
H18_3 C14_3 1_555 1_555
H19_3 C14_3 1_555 1_555
H20_3 C14_3 1_555 1_555
Co5_3 O7_3 1_555 1_555
Co8_3 O7_3 1_555 1_555
O11_2 Co4 1_555 1_555
O14 Co4 1_555 1_555
O15_3 Co4 1_555 1_555
O6_3 C7_3 1_555 1_555
O8_3 Co5_3 1_555 1_555
O3_2 C6_3 1_555 1_555
O12_2 C6_3 1_555 1_555
H21_3 C15_3 1_555 1_555
H22_3 C15_3 1_555 1_555
H23_3 C15_3 1_555 1_555
Co4_2 O3_2 1_555 1_555
H21_4 C15_4 1_555 1_555
O11_2 C6_4 1_555 1_555
O12 C6_4 1_555 1_555
Co4_2 O1_4 1_555 1_555
Co7 O1_4 1_555 1_555
O1_4 C1_4 1_555 1_555
O10_2 C1_4 1_555 1_555
C1_4 C2_4 1_555 1_555
C2_4 H1_4 1_555 1_555
H2_4 C2_4 1_555 1_555
O5_4 Co7 1_555 1_555
O6_4 Co4_2 1_555 1_555
O7_4 C12_4 1_555 1_555
O8_4 C12_4 1_555 1_555
C7_4 O5_4 1_555 1_555
C8_4 C7_4 1_555 1_555
H9_4 C8_4 1_555 1_555
H10_4 C8_4 1_555 1_555
C9_4 C8_4 1_555 1_555
H11_4 C9_4 1_555 1_555
H12_4 C9_4 1_555 1_555
C10_4 C9_4 1_555 1_555
H13_4 C10_4 1_555 1_555
H14_4 C10_4 1_555 1_555
C11_4 C10_4 1_555 1_555
H15_4 C11_4 1_555 1_555
H16_4 C11_4 1_555 1_555
C12_4 C11_4 1_555 1_555
O9_4 Co7 1_555 1_555
N1_4 C13_4 1_555 1_555
C13_4 O9_4 1_555 1_555
H17_4 C13_4 1_555 1_555
C14_4 N1_4 1_555 1_555
H19_4 C14_4 1_555 1_555
H20_4 C14_4 1_555 1_555
Co5_4 O7_4 1_555 1_555
Co8_4 O7_4 1_555 1_555
O14_2 Co4_2 1_555 1_555
O15_4 Co4_2 1_555 1_555
O6_4 C7_4 1_555 1_555
O8_4 Co5_4 1_555 1_555
H3_4 C3_4 1_555 1_555
H4_4 C3_4 1_555 1_555
C4_4 C3_4 1_555 1_555
H5_4 C4_4 1_555 1_555
C5_4 C4_4 1_555 1_555
H8_4 C5_4 1_555 1_555
Co1_2 O1_5 1_555 1_555
Co2_3 O1_5 1_555 1_555
O5_5 Co2_3 1_555 1_555
O6_5 Co1_2 1_555 1_555
C7_5 O5_5 1_555 1_555
C8_5 C7_5 1_555 1_555
H9_5 C8_5 1_555 1_555
H10_5 C8_5 1_555 1_555
C9_5 C8_5 1_555 1_555
H11_5 C9_5 1_555 1_555
C10_5 C9_5 1_555 1_555
H13_5 C10_5 1_555 1_555
H14_5 C10_5 1_555 1_555
O9_5 Co2_3 1_555 1_555
C13_5 O9_5 1_555 1_555
H17_5 C13_5 1_555 1_555
H21_5 C15_5 1_555 1_555
H23_4 C15_5 1_555 1_555
Co8_5 O7_5 1_555 1_555
O10_3 Co2_3 1_555 1_555
O11_3 Co1_2 1_555 1_555
O12_3 Co1_2 1_555 1_555
O14_3 Co2_3 1_555 1_555
O15_5 Co1_2 1_555 1_555
Co2_3 O12_3 1_555 1_555
O6_5 C7_5 1_555 1_555
O2_3 C1_5 1_555 1_555
O3_3 C6_5 1_555 1_555
O4_3 C6_5 1_555 1_555
C1_5 C2_5 1_555 1_555
C2_5 H1_5 1_555 1_555
H2_5 C2_5 1_555 1_555
C3_5 C2_5 1_555 1_555
H3_5 C3_5 1_555 1_555
H4_5 C3_5 1_555 1_555
C4_5 C3_5 1_555 1_555
H5_5 C4_5 1_555 1_555
H6_5 C4_5 1_555 1_555
C5_5 C4_5 1_555 1_555
H7_5 C5_5 1_555 1_555
H8_5 C5_5 1_555 1_555
C6_5 C5_5 1_555 1_555
O8_5 C12_5 1_555 1_555
H15_5 C11_5 1_555 1_555
H16_5 C11_5 1_555 1_555
C12_5 C11_5 1_555 1_555
C14_5 N1_5 1_555 1_555
H18_4 C14_5 1_555 1_555
H19_5 C14_5 1_555 1_555
H20_5 C14_5 1_555 1_555
Co3_2 O3_3 1_555 1_555
Co4_3 O4_3 1_555 1_555
Co6_2 O4_3 1_555 1_555
Co7_2 O2_3 1_555 1_555
O8_5 Co5_5 1_555 1_555
Co7_2 O13_3 1_555 1_555
Co3_2 O1_6 1_555 1_555
Co2_4 O1_6 1_555 1_555
O1_6 C1_6 1_555 1_555
O2_4 C1_6 1_555 1_555
O11_3 C6_6 1_555 1_555
C1_6 C2_6 1_555 1_555
C2_6 H1_6 1_555 1_555
H2_6 C2_6 1_555 1_555
C3_6 C2_6 1_555 1_555
H3_6 C3_6 1_555 1_555
H4_6 C3_6 1_555 1_555
C4_6 C3_6 1_555 1_555
H5_6 C4_6 1_555 1_555
H6_6 C4_6 1_555 1_555
C5_6 C4_6 1_555 1_555
H7_6 C5_6 1_555 1_555
H8_6 C5_6 1_555 1_555
C6_6 C5_6 1_555 1_555
O5_6 Co2_4 1_555 1_555
O6_6 Co3_2 1_555 1_555
C7_6 O5_6 1_555 1_555
C8_6 C7_6 1_555 1_555
H9_6 C8_6 1_555 1_555
H10_6 C8_6 1_555 1_555
C9_6 C8_6 1_555 1_555
H12_6 C9_6 1_555 1_555
O9_6 Co2_4 1_555 1_555
N1_6 C13_6 1_555 1_555
C13_6 O9_6 1_555 1_555
H17_6 C13_6 1_555 1_555
C14_6 N1_6 1_555 1_555
H18_5 C14_6 1_555 1_555
H19_6 C14_6 1_555 1_555
H20_6 C14_6 1_555 1_555
C15_6 N1_6 1_555 1_555
H21_6 C15_6 1_555 1_555
H22_5 C15_6 1_555 1_555
H23_5 C15_6 1_555 1_555
Co6_2 O2_4 1_555 1_555
O10_4 Co2_4 1_555 1_555
O12_4 Co3_2 1_555 1_555
O13_4 Co3_2 1_555 1_555
O14_4 Co2_4 1_555 1_555
O15_6 Co3_2 1_555 1_555
Co2_4 O12_4 1_555 1_555
O6_6 C7_6 1_555 1_555
Co6_2 O13_4 1_555 1_555
Co4_4 O4_4 1_555 1_555
Co7_2 O4_4 1_555 1_555
O7_6 C12_6 1_555 1_555
O8_6 C12_6 1_555 1_555
H13_6 C10_6 1_555 1_555
H14_6 C10_6 1_555 1_555
C11_6 C10_6 1_555 1_555
H15_6 C11_6 1_555 1_555
H16_6 C11_6 1_555 1_555
C12_6 C11_6 1_555 1_555
Co5_6 O7_6 1_555 1_555
Co8_6 O7_6 1_555 1_555
O8_6 Co5_6 1_555 1_555
Co4_3 O1_7 1_555 1_555
Co6_2 O1_7 1_555 1_555
O1_7 C1_7 1_555 1_555
O10_3 C1_7 1_555 1_555
C1_7 C2_7 1_555 1_555
C2_7 H1_7 1_555 1_555
H2_7 C2_7 1_555 1_555
O5_7 Co6_2 1_555 1_555
O6_7 Co4_3 1_555 1_555
O7_7 C12_7 1_555 1_555
O8_7 C12_7 1_555 1_555
C7_7 O5_7 1_555 1_555
C8_7 C7_7 1_555 1_555
H9_7 C8_7 1_555 1_555
H10_7 C8_7 1_555 1_555
C9_7 C8_7 1_555 1_555
H11_7 C9_7 1_555 1_555
H12_7 C9_7 1_555 1_555
C10_7 C9_7 1_555 1_555
H13_7 C10_7 1_555 1_555
H14_7 C10_7 1_555 1_555
C11_7 C10_7 1_555 1_555
H15_7 C11_7 1_555 1_555
H16_7 C11_7 1_555 1_555
C12_7 C11_7 1_555 1_555
O9_7 Co6_2 1_555 1_555
N1_7 C13_7 1_555 1_555
C13_7 O9_7 1_555 1_555
H17_7 C13_7 1_555 1_555
C14_7 N1_7 1_555 1_555
H19_7 C14_7 1_555 1_555
H20_7 C14_7 1_555 1_555
C15_7 N1_7 1_555 1_555
H21_7 C15_7 1_555 1_555
Co5_7 O7_7 1_555 1_555
Co8_7 O7_7 1_555 1_555
O11_4 Co4_3 1_555 1_555
O14_3 Co4_3 1_555 1_555
O15_7 Co4_3 1_555 1_555
O6_7 C7_7 1_555 1_555
O8_7 Co5_7 1_555 1_555
O3_4 C6_7 1_555 1_555
O12_4 C6_7 1_555 1_555
H3_7 C3_7 1_555 1_555
H4_7 C3_7 1_555 1_555
C4_7 C3_7 1_555 1_555
H5_7 C4_7 1_555 1_555
H6_7 C4_7 1_555 1_555
C5_7 C4_7 1_555 1_555
H7_7 C5_7 1_555 1_555
H8_7 C5_7 1_555 1_555
C6_7 C5_7 1_555 1_555
Co4_4 O3_4 1_555 1_555
Co4_4 O1_8 1_555 1_555
Co7_2 O1_8 1_555 1_555
O1_8 C1_8 1_555 1_555
O10_4 C1_8 1_555 1_555
O11_4 C6_8 1_555 1_555
O12_3 C6_8 1_555 1_555
C1_8 C2_8 1_555 1_555
C2_8 H1_8 1_555 1_555
H2_8 C2_8 1_555 1_555
C3_8 C2_8 1_555 1_555
H3_8 C3_8 1_555 1_555
H4_8 C3_8 1_555 1_555
C4_8 C3_8 1_555 1_555
H5_8 C4_8 1_555 1_555
H6_8 C4_8 1_555 1_555
C5_8 C4_8 1_555 1_555
H7_8 C5_8 1_555 1_555
H8_8 C5_8 1_555 1_555
C6_8 C5_8 1_555 1_555
O5_8 Co7_2 1_555 1_555
O6_8 Co4_4 1_555 1_555
O7_8 C12_8 1_555 1_555
O8_8 C12_8 1_555 1_555
C7_8 O5_8 1_555 1_555
C8_8 C7_8 1_555 1_555
H9_8 C8_8 1_555 1_555
H10_8 C8_8 1_555 1_555
C9_8 C8_8 1_555 1_555
H11_8 C9_8 1_555 1_555
H12_8 C9_8 1_555 1_555
C10_8 C9_8 1_555 1_555
H13_8 C10_8 1_555 1_555
H14_8 C10_8 1_555 1_555
C11_8 C10_8 1_555 1_555
H15_8 C11_8 1_555 1_555
H16_8 C11_8 1_555 1_555
C12_8 C11_8 1_555 1_555
O9_8 Co7_2 1_555 1_555
N1_8 C13_8 1_555 1_555
C13_8 O9_8 1_555 1_555
H17_8 C13_8 1_555 1_555
C14_8 N1_8 1_555 1_555
H18_6 C14_8 1_555 1_555
H19_8 C14_8 1_555 1_555
H20_8 C14_8 1_555 1_555
C15_8 N1_8 1_555 1_555
H21_8 C15_8 1_555 1_555
H22_6 C15_8 1_555 1_555
H23_6 C15_8 1_555 1_555
Co5_8 O7_8 1_555 1_555
Co8_8 O7_8 1_555 1_555
O14_4 Co4_4 1_555 1_555
O15_8 Co4_4 1_555 1_555
O6_8 C7_8 1_555 1_555
O8_8 Co5_8 1_555 1_555
O11_5 Co5 1_555 1_555
Co5_7 O4_5 1_555 1_555
Co8_2 O4_5 1_555 1_555
Co8_7 O1_9 1_555 1_555
O1_9 C1_9 1_555 1_555
O2_5 C1_9 1_555 1_555
O3_5 C6_9 1_555 1_555
C1_9 C2_9 1_555 1_555
C2_9 H1_9 1_555 1_555
H2_9 C2_9 1_555 1_555
C3_9 C2_9 1_555 1_555
H3_9 C3_9 1_555 1_555
H4_9 C3_9 1_555 1_555
C4_9 C3_9 1_555 1_555
H5_9 C4_9 1_555 1_555
H6_9 C4_9 1_555 1_555
C5_9 C4_9 1_555 1_555
H7_9 C5_9 1_555 1_555
H8_9 C5_9 1_555 1_555
C6_9 C5_9 1_555 1_555
O5_9 Co8_7 1_555 1_555
C7_9 O5_9 1_555 1_555
C8_9 C7_9 1_555 1_555
H9_9 C8_9 1_555 1_555
H10_9 C8_9 1_555 1_555
C9_9 C8_9 1_555 1_555
H12_9 C9_9 1_555 1_555
O9_9 Co8_7 1_555 1_555
N1_9 C13_9 1_555 1_555
C13_9 O9_9 1_555 1_555
H17_9 C13_9 1_555 1_555
C14_9 N1_9 1_555 1_555
H18_7 C14_9 1_555 1_555
H19_9 C14_9 1_555 1_555
H20_9 C14_9 1_555 1_555
C15_9 N1_9 1_555 1_555
H21_9 C15_9 1_555 1_555
H22_7 C15_9 1_555 1_555
H23_7 C15_9 1_555 1_555
Co5_2 O3_5 1_555 1_555
O10_5 Co8_7 1_555 1_555
Co8_7 O12_5 1_555 1_555
O6_9 C7_9 1_555 1_555
O13 C12_9 1_555 1_555
O15 C12_9 1_555 1_555
H13_9 C10_9 1_555 1_555
H14_9 C10_9 1_555 1_555
C11_9 C10_9 1_555 1_555
H15_9 C11_9 1_555 1_555
H16_9 C11_9 1_555 1_555
C12_9 C11_9 1_555 1_555
O2_6 C1_10 1_555 1_555
O11_5 C6_10 1_555 1_555
O4_6 C6_10 1_555 1_555
C1_10 C2_10 1_555 1_555
C2_10 H1_10 1_555 1_555
H2_10 C2_10 1_555 1_555
C3_10 C2_10 1_555 1_555
H3_10 C3_10 1_555 1_555
H4_10 C3_10 1_555 1_555
C4_10 C3_10 1_555 1_555
H5_10 C4_10 1_555 1_555
H6_10 C4_10 1_555 1_555
C5_10 C4_10 1_555 1_555
H7_10 C5_10 1_555 1_555
H8_10 C5_10 1_555 1_555
C6_10 C5_10 1_555 1_555
O15_2 C12_10 1_555 1_555
H15_10 C11_10 1_555 1_555
H16_10 C11_10 1_555 1_555
C12_10 C11_10 1_555 1_555
C14_10 N1_10 1_555 1_555
H18_8 C14_10 1_555 1_555
H19_10 C14_10 1_555 1_555
H20_10 C14_10 1_555 1_555
Co5_8 O4_6 1_555 1_555
Co8 O4_6 1_555 1_555
Co8_8 O1_10 1_555 1_555
O5_10 Co8_8 1_555 1_555
C7_10 O5_10 1_555 1_555
C8_10 C7_10 1_555 1_555
H9_10 C8_10 1_555 1_555
H10_10 C8_10 1_555 1_555
C9_10 C8_10 1_555 1_555
H11_10 C9_10 1_555 1_555
C10_10 C9_10 1_555 1_555
H13_10 C10_10 1_555 1_555
H14_10 C10_10 1_555 1_555
O9_10 Co8_8 1_555 1_555
C13_10 O9_10 1_555 1_555
H17_10 C13_10 1_555 1_555
H21_10 C15_10 1_555 1_555
H23_8 C15_10 1_555 1_555
O10_6 Co8_8 1_555 1_555
Co8_8 O12_6 1_555 1_555
O6_10 C7_10 1_555 1_555
O3_6 C6_11 1_555 1_555
O12_6 C6_11 1_555 1_555
H21_11 C15_11 1_555 1_555
H22_9 C15_11 1_555 1_555
H23_9 C15_11 1_555 1_555
Co5_8 O3_6 1_555 1_555
Co5_7 O1_11 1_555 1_555
Co8_2 O1_11 1_555 1_555
O1_11 C1_11 1_555 1_555
O10_5 C1_11 1_555 1_555
C1_11 C2_11 1_555 1_555
C2_11 H1_11 1_555 1_555
H2_11 C2_11 1_555 1_555
C3_11 C2_11 1_555 1_555
H3_11 C3_11 1_555 1_555
H4_11 C3_11 1_555 1_555
C4_11 C3_11 1_555 1_555
H5_11 C4_11 1_555 1_555
C5_11 C4_11 1_555 1_555
H8_11 C5_11 1_555 1_555
O5_11 Co8_2 1_555 1_555
O6_11 Co5_7 1_555 1_555
O14_3 C12_11 1_555 1_555
O15_7 C12_11 1_555 1_555
C7_11 O5_11 1_555 1_555
C8_11 C7_11 1_555 1_555
H9_11 C8_11 1_555 1_555
H10_11 C8_11 1_555 1_555
C9_11 C8_11 1_555 1_555
H11_11 C9_11 1_555 1_555
H12_11 C9_11 1_555 1_555
C10_11 C9_11 1_555 1_555
H13_11 C10_11 1_555 1_555
H14_11 C10_11 1_555 1_555
C11_11 C10_11 1_555 1_555
H15_11 C11_11 1_555 1_555
H16_11 C11_11 1_555 1_555
C12_11 C11_11 1_555 1_555
O9_11 Co8_2 1_555 1_555
N1_11 C13_11 1_555 1_555
C13_11 O9_11 1_555 1_555
H17_11 C13_11 1_555 1_555
C14_11 N1_11 1_555 1_555
H18_9 C14_11 1_555 1_555
H19_11 C14_11 1_555 1_555
H20_11 C14_11 1_555 1_555
O11_6 Co5_7 1_555 1_555
O6_11 C7_11 1_555 1_555
H3_12 C3_12 1_555 1_555
H4_12 C3_12 1_555 1_555
C4_12 C3_12 1_555 1_555
H5_12 C4_12 1_555 1_555
C5_12 C4_12 1_555 1_555
H8_12 C5_12 1_555 1_555
Co5_8 O1_12 1_555 1_555
Co8 O1_12 1_555 1_555
O1_12 C1_12 1_555 1_555
O10_6 C1_12 1_555 1_555
C1_12 C2_12 1_555 1_555
C2_12 H1_12 1_555 1_555
H2_12 C2_12 1_555 1_555
O5_12 Co8 1_555 1_555
O6_12 Co5_8 1_555 1_555
O14_4 C12_12 1_555 1_555
O15_8 C12_12 1_555 1_555
C7_12 O5_12 1_555 1_555
C8_12 C7_12 1_555 1_555
H9_12 C8_12 1_555 1_555
H10_12 C8_12 1_555 1_555
C9_12 C8_12 1_555 1_555
H11_12 C9_12 1_555 1_555
H12_12 C9_12 1_555 1_555
C10_12 C9_12 1_555 1_555
H13_12 C10_12 1_555 1_555
H14_12 C10_12 1_555 1_555
C11_12 C10_12 1_555 1_555
H15_12 C11_12 1_555 1_555
H16_12 C11_12 1_555 1_555
C12_12 C11_12 1_555 1_555
O9_12 Co8 1_555 1_555
N1_12 C13_12 1_555 1_555
C13_12 O9_12 1_555 1_555
H17_12 C13_12 1_555 1_555
C14_12 N1_12 1_555 1_555
H19_12 C14_12 1_555 1_555
H20_12 C14_12 1_555 1_555
O6_12 C7_12 1_555 1_555
O11_6 C6_12 1_555 1_555
O12_5 C6_12 1_555 1_555
H21_12 C15_12 1_555 1_555
O2_7 C1_13 1_555 1_555
O3_7 C6_13 1_555 1_555
O4_7 C6_13 1_555 1_555
C1_13 C2_13 1_555 1_555
C2_13 H1_13 1_555 1_555
H2_13 C2_13 1_555 1_555
C3_13 C2_13 1_555 1_555
H3_13 C3_13 1_555 1_555
H4_13 C3_13 1_555 1_555
C4_13 C3_13 1_555 1_555
H5_13 C4_13 1_555 1_555
H6_13 C4_13 1_555 1_555
C5_13 C4_13 1_555 1_555
H7_13 C5_13 1_555 1_555
H8_13 C5_13 1_555 1_555
C6_13 C5_13 1_555 1_555
O15_5 C12_13 1_555 1_555
H15_13 C11_13 1_555 1_555
H16_13 C11_13 1_555 1_555
C12_13 C11_13 1_555 1_555
C14_13 N1_13 1_555 1_555
H18_10 C14_13 1_555 1_555
H19_13 C14_13 1_555 1_555
H20_13 C14_13 1_555 1_555
Co5_6 O3_7 1_555 1_555
Co5_3 O4_7 1_555 1_555
Co8_6 O4_7 1_555 1_555
Co8_5 O2_7 1_555 1_555
Co5_5 O1_13 1_555 1_555
Co8_3 O1_13 1_555 1_555
O5_13 Co8_3 1_555 1_555
O6_13 Co5_5 1_555 1_555
C7_13 O5_13 1_555 1_555
C8_13 C7_13 1_555 1_555
H9_13 C8_13 1_555 1_555
H10_13 C8_13 1_555 1_555
C9_13 C8_13 1_555 1_555
H11_13 C9_13 1_555 1_555
C10_13 C9_13 1_555 1_555
H13_13 C10_13 1_555 1_555
H14_13 C10_13 1_555 1_555
O9_13 Co8_3 1_555 1_555
C13_13 O9_13 1_555 1_555
H17_13 C13_13 1_555 1_555
H21_13 C15_13 1_555 1_555
H23_10 C15_13 1_555 1_555
O10_7 Co8_3 1_555 1_555
O11_7 Co5_5 1_555 1_555
O12_7 Co5_5 1_555 1_555
Co8_3 O12_7 1_555 1_555
O6_13 C7_13 1_555 1_555
O13_4 C12_14 1_555 1_555
O15_6 C12_14 1_555 1_555
H13_14 C10_14 1_555 1_555
H14_14 C10_14 1_555 1_555
C11_14 C10_14 1_555 1_555
H15_14 C11_14 1_555 1_555
H16_14 C11_14 1_555 1_555
C12_14 C11_14 1_555 1_555
Co5_4 O4_8 1_555 1_555
Co8_5 O4_8 1_555 1_555
Co5_6 O1_14 1_555 1_555
Co8_4 O1_14 1_555 1_555
O1_14 C1_14 1_555 1_555
O2_8 C1_14 1_555 1_555
O11_7 C6_14 1_555 1_555
C1_14 C2_14 1_555 1_555
C2_14 H1_14 1_555 1_555
H2_14 C2_14 1_555 1_555
C3_14 C2_14 1_555 1_555
H3_14 C3_14 1_555 1_555
H4_14 C3_14 1_555 1_555
C4_14 C3_14 1_555 1_555
H5_14 C4_14 1_555 1_555
H6_14 C4_14 1_555 1_555
C5_14 C4_14 1_555 1_555
H7_14 C5_14 1_555 1_555
H8_14 C5_14 1_555 1_555
C6_14 C5_14 1_555 1_555
O5_14 Co8_4 1_555 1_555
O6_14 Co5_6 1_555 1_555
C7_14 O5_14 1_555 1_555
C8_14 C7_14 1_555 1_555
H9_14 C8_14 1_555 1_555
H10_14 C8_14 1_555 1_555
C9_14 C8_14 1_555 1_555
H12_14 C9_14 1_555 1_555
O9_14 Co8_4 1_555 1_555
N1_14 C13_14 1_555 1_555
C13_14 O9_14 1_555 1_555
H17_14 C13_14 1_555 1_555
C14_14 N1_14 1_555 1_555
H18_11 C14_14 1_555 1_555
H19_14 C14_14 1_555 1_555
H20_14 C14_14 1_555 1_555
C15_14 N1_14 1_555 1_555
H21_14 C15_14 1_555 1_555
H22_11 C15_14 1_555 1_555
H23_11 C15_14 1_555 1_555
Co8_6 O2_8 1_555 1_555
O10_8 Co8_4 1_555 1_555
O12_8 Co5_6 1_555 1_555
Co8_4 O12_8 1_555 1_555
O6_14 C7_14 1_555 1_555
O3_8 C6_15 1_555 1_555
O12_8 C6_15 1_555 1_555
H3_15 C3_15 1_555 1_555
H4_15 C3_15 1_555 1_555
C4_15 C3_15 1_555 1_555
H5_15 C4_15 1_555 1_555
H6_15 C4_15 1_555 1_555
C5_15 C4_15 1_555 1_555
H7_15 C5_15 1_555 1_555
H8_15 C5_15 1_555 1_555
C6_15 C5_15 1_555 1_555
Co5_4 O3_8 1_555 1_555
Co5_3 O1_15 1_555 1_555
Co8_6 O1_15 1_555 1_555
O1_15 C1_15 1_555 1_555
O10_7 C1_15 1_555 1_555
C1_15 C2_15 1_555 1_555
C2_15 H1_15 1_555 1_555
H2_15 C2_15 1_555 1_555
O5_15 Co8_6 1_555 1_555
O6_15 Co5_3 1_555 1_555
O14 C12_15 1_555 1_555
O15_3 C12_15 1_555 1_555
C7_15 O5_15 1_555 1_555
C8_15 C7_15 1_555 1_555
H9_15 C8_15 1_555 1_555
H10_15 C8_15 1_555 1_555
C9_15 C8_15 1_555 1_555
H11_15 C9_15 1_555 1_555
H12_15 C9_15 1_555 1_555
C10_15 C9_15 1_555 1_555
H13_15 C10_15 1_555 1_555
H14_15 C10_15 1_555 1_555
C11_15 C10_15 1_555 1_555
H15_15 C11_15 1_555 1_555
H16_15 C11_15 1_555 1_555
C12_15 C11_15 1_555 1_555
O9_15 Co8_6 1_555 1_555
N1_15 C13_15 1_555 1_555
C13_15 O9_15 1_555 1_555
H17_15 C13_15 1_555 1_555
C14_15 N1_15 1_555 1_555
H19_15 C14_15 1_555 1_555
H20_15 C14_15 1_555 1_555
C15_15 N1_15 1_555 1_555
H21_15 C15_15 1_555 1_555
O11_8 Co5_3 1_555 1_555
O6_15 C7_15 1_555 1_555
Co5_4 O1_16 1_555 1_555
Co8_5 O1_16 1_555 1_555
O1_16 C1_16 1_555 1_555
O10_8 C1_16 1_555 1_555
O11_8 C6_16 1_555 1_555
O12_7 C6_16 1_555 1_555
C1_16 C2_16 1_555 1_555
C2_16 H1_16 1_555 1_555
H2_16 C2_16 1_555 1_555
C3_16 C2_16 1_555 1_555
H3_16 C3_16 1_555 1_555
H4_16 C3_16 1_555 1_555
C4_16 C3_16 1_555 1_555
H5_16 C4_16 1_555 1_555
H6_16 C4_16 1_555 1_555
C5_16 C4_16 1_555 1_555
H7_16 C5_16 1_555 1_555
H8_16 C5_16 1_555 1_555
C6_16 C5_16 1_555 1_555
O5_16 Co8_5 1_555 1_555
O6_16 Co5_4 1_555 1_555
O14_2 C12_16 1_555 1_555
O15_4 C12_16 1_555 1_555
C7_16 O5_16 1_555 1_555
C8_16 C7_16 1_555 1_555
H9_16 C8_16 1_555 1_555
H10_16 C8_16 1_555 1_555
C9_16 C8_16 1_555 1_555
H11_16 C9_16 1_555 1_555
H12_16 C9_16 1_555 1_555
C10_16 C9_16 1_555 1_555
H13_16 C10_16 1_555 1_555
H14_16 C10_16 1_555 1_555
C11_16 C10_16 1_555 1_555
H15_16 C11_16 1_555 1_555
H16_16 C11_16 1_555 1_555
C12_16 C11_16 1_555 1_555
O9_16 Co8_5 1_555 1_555
N1_16 C13_16 1_555 1_555
C13_16 O9_16 1_555 1_555
H17_16 C13_16 1_555 1_555
C14_16 N1_16 1_555 1_555
H18_12 C14_16 1_555 1_555
H19_16 C14_16 1_555 1_555
H20_16 C14_16 1_555 1_555
C15_16 N1_16 1_555 1_555
H21_16 C15_16 1_555 1_555
H22_12 C15_16 1_555 1_555
H23_12 C15_16 1_555 1_555
O6_16 C7_16 1_555 1_555

#END
