
###############################################################################
#
# This file contains modified crystal structure data generated from the
# MOF subset of the Cambridge Structural Database (CSD) v543 
# hosted by the Cambridge Crystallographic Data Centre (CCDC).
#
# This work is licensed under the Creative Commons
# Attribution-NonCommercial-ShareAlike 4.0 International License.
# To view a copy of this license, visit
# http://creativecommons.org/licenses/by-nc-sa/4.0/
# or send a letter to
# Creative Commons, PO Box 1866, Mountain View, CA 94042, USA.
#
# CIF created using the CSD Python API on 29 September 2022
# The structure has been converted into the P1 space group
# The structure has a 3D framework
# The original CSD entry TILJEG is in the monoclinic crystal system
# The framework has been calculated to contain at least 10.0% void space
# The void calculation uses a probe of radius 1.32A, grid spacing 0.4
# The framework is charged, counterions have been retained in the structure
#
###############################################################################

data_TILJEG
_chemical_formula_moiety         '(C288 H128 N48 O94 Zn22 3-)n'
_symmetry_cell_setting           triclinic
_symmetry_space_group_name_H-M   'P 1'
_symmetry_Int_Tables_number      1
_space_group_name_Hall           'P 1'
loop_
_symmetry_equiv_pos_site_id
_symmetry_equiv_pos_as_xyz
1 x,y,z
_cell_length_a                   35.367(4)
_cell_length_b                   26.090(2)
_cell_length_c                   25.014(2)
_cell_angle_alpha                90
_cell_angle_beta                 134.963(7)
_cell_angle_gamma                90
_cell_volume                     16331.3
loop_
_atom_site_label
_atom_site_type_symbol
_atom_site_fract_x
_atom_site_fract_y
_atom_site_fract_z
O14 O 0.00548(14) 0.36633(15) 0.4726(2)
O22 O 0.0031(2) 0.29158(19) 0.4328(3)
Zn7 Zn 0.08004(2) 0.34759(2) 0.56773(3)
Zn13 Zn 0.0000 0.87501(3) 0.2500
Zn4 Zn 0.91996(2) 0.65241(2) 0.43227(3)
O13 O 0.98051(17) 0.82544(16) 0.2842(2)
O15 O 0.78259(13) 0.84314(13) 0.4319(2)
Zn5 Zn 0.76218(2) 0.40239(2) 0.09223(3)
C37 C 0.9500(2) 0.7920(2) 0.3343(3)
O16 O 0.78255(16) 0.61632(15) 0.5382(2)
O17 O 0.89969(15) 0.59315(13) 0.3674(2)
O18 O 0.9469(3) 0.8786(2) 0.3073(4)
N7 N 0.79072(16) 0.46525(15) 0.1621(2)
C38 C 0.7644(2) 0.5083(2) 0.1340(3)
C39 C 0.9721(3) 0.7439(3) 0.3465(4)
H17 H 0.9928 0.7387 0.3368
O19 O 0.7905(2) 0.88237(18) 0.3634(3)
N8 N 0.83508(17) 0.37490(17) 0.2018(2)
C40 C 0.8546(2) 0.8011(2) 0.3871(3)
H18 H 0.8551 0.8312 0.3676
N9 N 0.88331(19) 0.62531(17) 0.4681(3)
C41 C 0.9200(2) 0.7984(2) 0.3504(3)
H19 H 0.9052 0.8301 0.3439
C42 C 0.8547(2) 0.65922(19) 0.4664(3)
C43 C 0.9121(2) 0.7564(2) 0.3768(3)
N10 N 0.70317(18) 0.45994(16) 0.0194(3)
N11 N 0.87889(15) 0.71501(15) 0.4196(2)
N12 N 0.93390(18) 0.71029(16) 0.3874(2)
C44 C 0.9605(3) 0.8368(3) 0.3078(4)
C45 C 0.7146(2) 0.5065(2) 0.0521(3)
C46 C 0.9105(2) 0.3980(2) 0.3301(3)
H20 H 0.9290 0.4230 0.3676
C47 C 0.8276(2) 0.7992(2) 0.4081(3)
C48 C 0.8305(2) 0.5496(2) 0.2525(3)
C49 C 0.8588(2) 0.5036(2) 0.2824(3)
H21 H 0.8913 0.5011 0.3327
C50 C 0.9634(3) 0.7047(2) 0.3725(4)
H22 H 0.9784 0.6729 0.3802
C51 C 0.7983(2) 0.8471(2) 0.3998(4)
C52 C 0.8877(3) 0.5768(2) 0.4918(4)
H23 H 0.9072 0.5526 0.4921
C53 C 0.9835(3) 0.3329(3) 0.4223(4)
C54 C 0.8263(2) 0.7534(2) 0.4347(3)
H24 H 0.8084 0.7509 0.4493
C55 C 0.8640(3) 0.5628(2) 0.5152(4)
H25 H 0.8667 0.5292 0.5301
C56 C 0.9307(2) 0.3488(2) 0.3453(3)
C57 C 0.8808(2) 0.7582(2) 0.3952(3)
C58 C 0.8114(3) 0.5831(3) 0.5447(4)
C59 C 0.8364(2) 0.46134(18) 0.2340(3)
C60 C 0.8359(2) 0.5988(2) 0.5168(3)
C61 C 0.8524(2) 0.71139(18) 0.4391(3)
O21 O 0.8206(3) 0.54177(19) 0.5738(4)
C62 C 0.8619(2) 0.40897(19) 0.2574(3)
C63 C 0.8305(2) 0.6477(2) 0.4908(3)
H26 H 0.8110 0.6725 0.4896
C64 C 0.7827(2) 0.5510(2) 0.1787(3)
H27 H 0.7625 0.5809 0.1585
C65 C 0.8542(3) 0.3269(2) 0.2164(4)
H28 H 0.8354 0.3029 0.1776
C68 C 0.9012(3) 0.3130(2) 0.2878(4)
H30 H 0.9132 0.2793 0.2974
C70 C 0.8516(3) 0.5969(2) 0.3039(3)
C71 C 0.6803(2) 0.5485(2) 0.0106(3)
H32 H 0.6882 0.5801 0.0336
O24 O 0.82318(19) 0.63269(18) 0.2823(3)
O28 O 0.99452(14) 0.63367(15) 0.5274(2)
O29 O 0.71741(13) 0.34314(13) 0.0681(2)
Zn8 Zn 0.73782(2) 0.90239(2) 0.40777(3)
Zn10 Zn 0.76218(2) 0.59761(2) 0.59223(3)
O31 O 0.78255(16) 0.38368(15) 0.0382(2)
Zn13_2 Zn 1.0000 0.87501(3) 0.2500
Zn1 Zn 0.08004(2) 0.65241(2) 0.06773(3)
O1 O 0.01949(17) 0.82544(16) 0.2158(2)
O3 O 0.21741(13) 0.84314(13) 0.0681(2)
Zn2 Zn 0.23782(2) 0.40239(2) 0.40777(3)
C1 C 0.0500(2) 0.7920(2) 0.1657(3)
O5 O 0.10031(15) 0.59315(13) 0.1326(2)
Zn3 Zn 0.5000 0.62499(3) 0.7500
O6 O 0.0531(3) 0.8786(2) 0.1927(4)
N1 N 0.20928(16) 0.46525(15) 0.3379(2)
C2 C 0.2356(2) 0.5083(2) 0.3660(3)
C3 C 0.0279(3) 0.7439(3) 0.1535(4)
H1 H 0.0072 0.7387 0.1632
O7 O 0.2095(2) 0.88237(18) 0.1366(3)
N2 N 0.16492(17) 0.37490(17) 0.2982(2)
C4 C 0.1454(2) 0.8011(2) 0.1129(3)
H2 H 0.1449 0.8312 0.1324
N3 N 0.11669(19) 0.62531(17) 0.0319(3)
C5 C 0.0800(2) 0.7984(2) 0.1496(3)
H3 H 0.0948 0.8301 0.1561
C6 C 0.1453(2) 0.65922(19) 0.0336(3)
C7 C 0.0879(2) 0.7564(2) 0.1232(3)
N4 N 0.29683(18) 0.45994(16) 0.4806(3)
N5 N 0.12111(15) 0.71501(15) 0.0804(2)
N6 N 0.06610(18) 0.71029(16) 0.1126(2)
C8 C 0.0395(3) 0.8368(3) 0.1922(4)
C9 C 0.2854(2) 0.5065(2) 0.4479(3)
C10 C 0.0895(2) 0.3980(2) 0.1699(3)
H4 H 0.0710 0.4230 0.1324
O8 O 0.44630(16) 0.57539(16) 0.6769(2)
C11 C 0.1724(2) 0.7992(2) 0.0919(3)
C12 C 0.1695(2) 0.5496(2) 0.2475(3)
C13 C 0.1412(2) 0.5036(2) 0.2176(3)
H5 H 0.1087 0.5011 0.1673
C14 C 0.0366(3) 0.7047(2) 0.1275(4)
H6 H 0.0216 0.6729 0.1198
C15 C 0.2017(2) 0.8471(2) 0.1002(4)
C16 C 0.1123(3) 0.5768(2) 0.0082(4)
H7 H 0.0928 0.5526 0.0079
C17 C 0.0165(3) 0.3329(3) 0.0777(4)
C18 C 0.1737(2) 0.7534(2) 0.0653(3)
H8 H 0.1916 0.7509 0.0507
C20 C 0.0693(2) 0.3488(2) 0.1547(3)
C21 C 0.1192(2) 0.7582(2) 0.1048(3)
C23 C 0.1636(2) 0.46134(18) 0.2660(3)
C25 C 0.1476(2) 0.71139(18) 0.0609(3)
C26 C 0.1381(2) 0.40897(19) 0.2426(3)
C27 C 0.1695(2) 0.6477(2) 0.0092(3)
H10 H 0.1890 0.6725 0.0104
C28 C 0.2173(2) 0.5510(2) 0.3213(3)
H11 H 0.2375 0.5809 0.3415
C29 C 0.1458(3) 0.3269(2) 0.2836(4)
H12 H 0.1646 0.3029 0.3224
C30 C 0.4033(3) 0.5864(3) 0.6144(4)
C31 C 0.3411(3) 0.4547(2) 0.5544(3)
H13 H 0.3484 0.4229 0.5770
C32 C 0.0988(3) 0.3130(2) 0.2122(4)
H14 H 0.0868 0.2793 0.2026
O11 O 0.3899(2) 0.6286(2) 0.5869(3)
C33 C 0.3755(3) 0.4939(3) 0.5973(3)
H15 H 0.4057 0.4886 0.6484
C34 C 0.1484(3) 0.5969(2) 0.1961(3)
C35 C 0.3197(2) 0.5485(2) 0.4894(3)
H16 H 0.3118 0.5801 0.4664
C36 C 0.3661(2) 0.5415(2) 0.5660(3)
O12 O 0.17682(19) 0.63269(18) 0.2177(3)
O20 O 0.55370(16) 0.57539(16) 0.8231(2)
C66 C 0.5967(3) 0.5864(3) 0.8856(4)
C67 C 0.6589(3) 0.4547(2) 0.9456(3)
H29 H 0.6516 0.4229 0.9230
O23 O 0.6101(2) 0.6286(2) 0.9131(3)
C69 C 0.6245(3) 0.4939(3) 0.9027(3)
H31 H 0.5943 0.4886 0.8516
C72 C 0.6339(2) 0.5415(2) 0.9340(3)
O25 O 0.48051(17) 0.67456(16) 0.7842(2)
O26 O 0.51949(17) 0.67456(16) 0.7158(2)
O30 O 0.28259(13) 0.34314(13) 0.4319(2)
Zn9 Zn 0.26218(2) 0.90239(2) 0.09223(3)
O32 O 0.21745(16) 0.38368(15) 0.4618(2)
O4 O 0.21745(16) 0.61632(15) 0.9618(2)
C19 C 0.1360(3) 0.5628(2) 0.9848(4)
H9 H 0.1333 0.5292 0.9699
C22 C 0.1886(3) 0.5831(3) 0.9553(4)
C24 C 0.1641(2) 0.5988(2) 0.9832(3)
O9 O 0.1794(3) 0.54177(19) 0.9262(4)
O27 O 0.00548(14) 0.63367(15) 0.9726(2)
Zn11 Zn 0.23782(2) 0.59761(2) 0.90777(3)
O2 O 0.99452(14) 0.36633(15) 0.0274(2)
O10 O 0.9969(2) 0.29158(19) 0.0672(3)
Zn6 Zn 0.91996(2) 0.34759(2) 0.93227(3)
Zn4_2 Zn 0.41996(2) 0.15241(2) 0.43227(3)
O13_2 O 0.48051(17) 0.32544(16) 0.2842(2)
C37_2 C 0.4500(2) 0.2920(2) 0.3343(3)
O16_2 O 0.28255(16) 0.11632(15) 0.5382(2)
O17_2 O 0.39969(15) 0.09315(13) 0.3674(2)
O18_2 O 0.4469(3) 0.3786(2) 0.3073(4)
C38_2 C 0.2644(2) 0.0083(2) 0.1340(3)
C39_2 C 0.4721(3) 0.2439(3) 0.3465(4)
H17_2 H 0.4928 0.2387 0.3368
O19_2 O 0.2905(2) 0.38237(18) 0.3634(3)
C40_2 C 0.3546(2) 0.3011(2) 0.3871(3)
H18_2 H 0.3551 0.3312 0.3676
N9_2 N 0.38331(19) 0.12531(17) 0.4681(3)
C41_2 C 0.4200(2) 0.2984(2) 0.3504(3)
H19_2 H 0.4052 0.3301 0.3439
C42_2 C 0.3547(2) 0.15922(19) 0.4664(3)
C43_2 C 0.4121(2) 0.2564(2) 0.3768(3)
N11_2 N 0.37889(15) 0.21501(15) 0.4196(2)
N12_2 N 0.43390(18) 0.21029(16) 0.3874(2)
C44_2 C 0.4605(3) 0.3368(3) 0.3078(4)
C45_2 C 0.2146(2) 0.0065(2) 0.0521(3)
C47_2 C 0.3276(2) 0.2992(2) 0.4081(3)
C48_2 C 0.3305(2) 0.0496(2) 0.2525(3)
C49_2 C 0.3588(2) 0.0036(2) 0.2824(3)
H21_2 H 0.3913 0.0011 0.3327
C50_2 C 0.4634(3) 0.2047(2) 0.3725(4)
H22_2 H 0.4784 0.1729 0.3802
C51_2 C 0.2983(2) 0.3471(2) 0.3998(4)
C52_2 C 0.3877(3) 0.0768(2) 0.4918(4)
H23_2 H 0.4072 0.0526 0.4921
C54_2 C 0.3263(2) 0.2534(2) 0.4347(3)
H24_2 H 0.3084 0.2509 0.4493
C55_2 C 0.3640(3) 0.0628(2) 0.5152(4)
H25_2 H 0.3667 0.0292 0.5301
C57_2 C 0.3808(2) 0.2582(2) 0.3952(3)
C58_2 C 0.3114(3) 0.0831(3) 0.5447(4)
C60_2 C 0.3359(2) 0.0988(2) 0.5168(3)
C61_2 C 0.3524(2) 0.21139(18) 0.4391(3)
O21_2 O 0.3206(3) 0.04177(19) 0.5738(4)
C63_2 C 0.3305(2) 0.1477(2) 0.4908(3)
H26_2 H 0.3110 0.1725 0.4896
C64_2 C 0.2827(2) 0.0510(2) 0.1787(3)
H27_2 H 0.2625 0.0809 0.1585
C70_2 C 0.3516(3) 0.0969(2) 0.3039(3)
C71_2 C 0.1803(2) 0.0485(2) 0.0106(3)
H32_2 H 0.1882 0.0801 0.0336
O24_2 O 0.32318(19) 0.13269(18) 0.2823(3)
O28_2 O 0.49452(14) 0.13367(15) 0.5274(2)
Zn10_2 Zn 0.26218(2) 0.09761(2) 0.59223(3)
Zn13_3 Zn 0.5000 0.37501(3) 0.2500
Zn3_2 Zn 0.0000 0.12499(3) 0.7500
O20_2 O 0.05370(16) 0.07539(16) 0.8231(2)
C66_2 C 0.0967(3) 0.0864(3) 0.8856(4)
O23_2 O 0.1101(2) 0.1286(2) 0.9131(3)
C72_2 C 0.1339(2) 0.0415(2) 0.9340(3)
O26_2 O 0.01949(17) 0.17456(16) 0.7158(2)
O14_2 O 0.50548(14) 0.86633(15) 0.4726(2)
N7_2 N 0.29072(16) 0.96525(15) 0.1621(2)
N8_2 N 0.33508(17) 0.87490(17) 0.2018(2)
N10_2 N 0.20317(18) 0.95994(16) 0.0194(3)
C46_2 C 0.4105(2) 0.8980(2) 0.3301(3)
H20_2 H 0.4290 0.9230 0.3676
C53_2 C 0.4835(3) 0.8329(3) 0.4223(4)
C56_2 C 0.4307(2) 0.8488(2) 0.3453(3)
C59_2 C 0.3364(2) 0.96134(18) 0.2340(3)
C62_2 C 0.3619(2) 0.90897(19) 0.2574(3)
O22_2 O 0.5031(2) 0.79158(19) 0.4328(3)
C65_2 C 0.3542(3) 0.8269(2) 0.2164(4)
H28_2 H 0.3354 0.8029 0.1776
C68_2 C 0.4012(3) 0.8130(2) 0.2878(4)
H30_2 H 0.4132 0.7793 0.2974
Zn7_2 Zn 0.58004(2) 0.84759(2) 0.56773(3)
O31_2 O 0.28255(16) 0.88368(15) 0.0382(2)
Zn1_2 Zn 0.58004(2) 0.15241(2) 0.06773(3)
O1_2 O 0.51949(17) 0.32544(16) 0.2158(2)
C1_2 C 0.5500(2) 0.2920(2) 0.1657(3)
O5_2 O 0.60031(15) 0.09315(13) 0.1326(2)
Zn3_3 Zn 1.0000 0.12499(3) 0.7500
O6_2 O 0.5531(3) 0.3786(2) 0.1927(4)
C2_2 C 0.7356(2) 0.0083(2) 0.3660(3)
C3_2 C 0.5279(3) 0.2439(3) 0.1535(4)
H1_2 H 0.5072 0.2387 0.1632
O7_2 O 0.7095(2) 0.38237(18) 0.1366(3)
C4_2 C 0.6454(2) 0.3011(2) 0.1129(3)
H2_2 H 0.6449 0.3312 0.1324
N3_2 N 0.61669(19) 0.12531(17) 0.0319(3)
C5_2 C 0.5800(2) 0.2984(2) 0.1496(3)
H3_2 H 0.5948 0.3301 0.1561
C6_2 C 0.6453(2) 0.15922(19) 0.0336(3)
C7_2 C 0.5879(2) 0.2564(2) 0.1232(3)
N5_2 N 0.62111(15) 0.21501(15) 0.0804(2)
N6_2 N 0.56610(18) 0.21029(16) 0.1126(2)
C8_2 C 0.5395(3) 0.3368(3) 0.1922(4)
C9_2 C 0.7854(2) 0.0065(2) 0.4479(3)
O8_2 O 0.94630(16) 0.07539(16) 0.6769(2)
C11_2 C 0.6724(2) 0.2992(2) 0.0919(3)
C12_2 C 0.6695(2) 0.0496(2) 0.2475(3)
C13_2 C 0.6412(2) 0.0036(2) 0.2176(3)
H5_2 H 0.6087 0.0011 0.1673
C14_2 C 0.5366(3) 0.2047(2) 0.1275(4)
H6_2 H 0.5216 0.1729 0.1198
C15_2 C 0.7017(2) 0.3471(2) 0.1002(4)
C16_2 C 0.6123(3) 0.0768(2) 0.0082(4)
H7_2 H 0.5928 0.0526 0.0079
C18_2 C 0.6737(2) 0.2534(2) 0.0653(3)
H8_2 H 0.6916 0.2509 0.0507
C21_2 C 0.6192(2) 0.2582(2) 0.1048(3)
C25_2 C 0.6476(2) 0.21139(18) 0.0609(3)
C27_2 C 0.6695(2) 0.1477(2) 0.0092(3)
H10_2 H 0.6890 0.1725 0.0104
C28_2 C 0.7173(2) 0.0510(2) 0.3213(3)
H11_2 H 0.7375 0.0809 0.3415
C30_2 C 0.9033(3) 0.0864(3) 0.6144(4)
O11_2 O 0.8899(2) 0.1286(2) 0.5869(3)
C34_2 C 0.6484(3) 0.0969(2) 0.1961(3)
C35_2 C 0.8197(2) 0.0485(2) 0.4894(3)
H16_2 H 0.8118 0.0801 0.4664
C36_2 C 0.8661(2) 0.0415(2) 0.5660(3)
O12_2 O 0.67682(19) 0.13269(18) 0.2177(3)
O25_2 O 0.98051(17) 0.17456(16) 0.7842(2)
O4_2 O 0.71745(16) 0.11632(15) 0.9618(2)
C19_2 C 0.6360(3) 0.0628(2) 0.9848(4)
H9_2 H 0.6333 0.0292 0.9699
C22_2 C 0.6886(3) 0.0831(3) 0.9553(4)
C24_2 C 0.6641(2) 0.0988(2) 0.9832(3)
O9_2 O 0.6794(3) 0.04177(19) 0.9262(4)
O27_2 O 0.50548(14) 0.13367(15) 0.9726(2)
Zn11_2 Zn 0.73782(2) 0.09761(2) 0.90777(3)
O2_2 O 0.49452(14) 0.86633(15) 0.0274(2)
N1_2 N 0.70928(16) 0.96525(15) 0.3379(2)
N2_2 N 0.66492(17) 0.87490(17) 0.2982(2)
N4_2 N 0.79683(18) 0.95994(16) 0.4806(3)
C10_2 C 0.5895(2) 0.8980(2) 0.1699(3)
H4_2 H 0.5710 0.9230 0.1324
C17_2 C 0.5165(3) 0.8329(3) 0.0777(4)
C20_2 C 0.5693(2) 0.8488(2) 0.1547(3)
C23_2 C 0.6636(2) 0.96134(18) 0.2660(3)
C26_2 C 0.6381(2) 0.90897(19) 0.2426(3)
O10_2 O 0.4969(2) 0.79158(19) 0.0672(3)
C29_2 C 0.6458(3) 0.8269(2) 0.2836(4)
H12_2 H 0.6646 0.8029 0.3224
C31_2 C 0.8411(3) 0.9547(2) 0.5544(3)
H13_2 H 0.8484 0.9229 0.5770
C32_2 C 0.5988(3) 0.8130(2) 0.2122(4)
H14_2 H 0.5868 0.7793 0.2026
C33_2 C 0.8755(3) 0.9939(3) 0.5973(3)
H15_2 H 0.9057 0.9886 0.6484
O32_2 O 0.71745(16) 0.88368(15) 0.4618(2)
Zn6_2 Zn 0.41996(2) 0.84759(2) 0.93227(3)
O10_3 O 0.0031(2) 0.70842(19) 0.9328(3)
C19_3 C 0.8640(3) 0.4372(2) 0.0152(4)
H9_3 H 0.8667 0.4708 0.0301
C22_3 C 0.8114(3) 0.4169(3) 0.0447(4)
C24_3 C 0.8359(2) 0.4012(2) 0.0168(3)
O9_3 O 0.8206(3) 0.45823(19) 0.0738(4)
O3_2 O 0.78259(13) 0.15686(13) 0.9319(2)
C1_3 C 0.9500(2) 0.2080(2) 0.8343(3)
O5_3 O 0.89969(15) 0.40685(13) 0.8674(2)
O6_3 O 0.9469(3) 0.1214(2) 0.8073(4)
N1_3 N 0.79072(16) 0.53475(15) 0.6621(2)
C2_3 C 0.7644(2) 0.4917(2) 0.6340(3)
C3_3 C 0.9721(3) 0.2561(3) 0.8465(4)
H1_3 H 0.9928 0.2613 0.8368
O7_3 O 0.7905(2) 0.11763(18) 0.8634(3)
N2_3 N 0.83508(17) 0.62510(17) 0.7018(2)
C4_3 C 0.8546(2) 0.1989(2) 0.8871(3)
H2_3 H 0.8551 0.1688 0.8676
N3_3 N 0.88331(19) 0.37469(17) 0.9681(3)
C5_3 C 0.9200(2) 0.2016(2) 0.8504(3)
H3_3 H 0.9052 0.1699 0.8439
C6_3 C 0.8547(2) 0.34078(19) 0.9664(3)
C7_3 C 0.9121(2) 0.2436(2) 0.8768(3)
N4_3 N 0.70317(18) 0.54006(16) 0.5194(3)
N5_3 N 0.87889(15) 0.28499(15) 0.9196(2)
N6_3 N 0.93390(18) 0.28971(16) 0.8874(2)
C8_3 C 0.9605(3) 0.1632(3) 0.8078(4)
C9_3 C 0.7146(2) 0.4935(2) 0.5521(3)
C10_3 C 0.9105(2) 0.6020(2) 0.8301(3)
H4_3 H 0.9290 0.5770 0.8676
O8_3 O 0.55370(16) 0.42461(16) 0.3231(2)
C11_3 C 0.8276(2) 0.2008(2) 0.9081(3)
C12_3 C 0.8305(2) 0.4504(2) 0.7525(3)
C13_3 C 0.8588(2) 0.4964(2) 0.7824(3)
H5_3 H 0.8913 0.4989 0.8327
C14_3 C 0.9634(3) 0.2953(2) 0.8725(4)
H6_3 H 0.9784 0.3271 0.8802
C15_3 C 0.7983(2) 0.1529(2) 0.8998(4)
C16_3 C 0.8877(3) 0.4232(2) 0.9918(4)
H7_3 H 0.9072 0.4474 0.9921
C17_3 C 0.9835(3) 0.6671(3) 0.9223(4)
C18_3 C 0.8263(2) 0.2466(2) 0.9347(3)
H8_3 H 0.8084 0.2491 0.9493
C20_3 C 0.9307(2) 0.6512(2) 0.8453(3)
C21_3 C 0.8808(2) 0.2418(2) 0.8952(3)
C23_3 C 0.8364(2) 0.53866(18) 0.7340(3)
C25_3 C 0.8524(2) 0.28861(18) 0.9391(3)
C26_3 C 0.8619(2) 0.59103(19) 0.7574(3)
C27_3 C 0.8305(2) 0.3523(2) 0.9908(3)
H10_3 H 0.8110 0.3275 0.9896
C28_3 C 0.7827(2) 0.4490(2) 0.6787(3)
H11_3 H 0.7625 0.4191 0.6585
C29_3 C 0.8542(3) 0.6731(2) 0.7164(4)
H12_3 H 0.8354 0.6971 0.6776
C30_3 C 0.5967(3) 0.4136(3) 0.3856(4)
C31_3 C 0.6589(3) 0.5453(2) 0.4456(3)
H13_3 H 0.6516 0.5771 0.4230
C32_3 C 0.9012(3) 0.6870(2) 0.7878(4)
H14_3 H 0.9132 0.7207 0.7974
O11_3 O 0.6101(2) 0.3714(2) 0.4131(3)
C33_3 C 0.6245(3) 0.5061(3) 0.4027(3)
H15_3 H 0.5943 0.5114 0.3516
C34_3 C 0.8516(3) 0.4031(2) 0.8039(3)
C35_3 C 0.6803(2) 0.4515(2) 0.5106(3)
H16_3 H 0.6882 0.4199 0.5336
C36_3 C 0.6339(2) 0.4585(2) 0.4340(3)
O12_3 O 0.82318(19) 0.36731(18) 0.7823(3)
O20_3 O 0.44630(16) 0.42461(16) 0.1769(2)
C66_3 C 0.4033(3) 0.4136(3) 0.1144(4)
C67_2 C 0.3411(3) 0.5453(2) 0.0544(3)
H29_2 H 0.3484 0.5771 0.0770
O23_3 O 0.3899(2) 0.3714(2) 0.0869(3)
C69_2 C 0.3755(3) 0.5061(3) 0.0973(3)
H31_2 H 0.4057 0.5114 0.1484
C72_3 C 0.3661(2) 0.4585(2) 0.0660(3)
O30_2 O 0.71741(13) 0.65686(13) 0.5681(2)
O15_2 O 0.21741(13) 0.15686(13) 0.5681(2)
C37_3 C 0.0500(2) 0.2080(2) 0.6657(3)
O17_3 O 0.10031(15) 0.40685(13) 0.6326(2)
O18_3 O 0.0531(3) 0.1214(2) 0.6927(4)
N7_3 N 0.20928(16) 0.53475(15) 0.8379(2)
C38_3 C 0.2356(2) 0.4917(2) 0.8660(3)
C39_3 C 0.0279(3) 0.2561(3) 0.6535(4)
H17_3 H 0.0072 0.2613 0.6632
O19_3 O 0.2095(2) 0.11763(18) 0.6366(3)
N8_3 N 0.16492(17) 0.62510(17) 0.7982(2)
C40_3 C 0.1454(2) 0.1989(2) 0.6129(3)
H18_3 H 0.1449 0.1688 0.6324
N9_3 N 0.11669(19) 0.37469(17) 0.5319(3)
C41_3 C 0.0800(2) 0.2016(2) 0.6496(3)
H19_3 H 0.0948 0.1699 0.6561
C42_3 C 0.1453(2) 0.34078(19) 0.5336(3)
C43_3 C 0.0879(2) 0.2436(2) 0.6232(3)
N10_3 N 0.29683(18) 0.54006(16) 0.9806(3)
N11_3 N 0.12111(15) 0.28499(15) 0.5804(2)
N12_3 N 0.06610(18) 0.28971(16) 0.6126(2)
C44_3 C 0.0395(3) 0.1632(3) 0.6922(4)
C45_3 C 0.2854(2) 0.4935(2) 0.9479(3)
C46_3 C 0.0895(2) 0.6020(2) 0.6699(3)
H20_3 H 0.0710 0.5770 0.6324
C47_3 C 0.1724(2) 0.2008(2) 0.5919(3)
C48_3 C 0.1695(2) 0.4504(2) 0.7475(3)
C49_3 C 0.1412(2) 0.4964(2) 0.7176(3)
H21_3 H 0.1087 0.4989 0.6673
C50_3 C 0.0366(3) 0.2953(2) 0.6275(4)
H22_3 H 0.0216 0.3271 0.6198
C51_3 C 0.2017(2) 0.1529(2) 0.6002(4)
C52_3 C 0.1123(3) 0.4232(2) 0.5082(4)
H23_3 H 0.0928 0.4474 0.5079
C53_3 C 0.0165(3) 0.6671(3) 0.5777(4)
C54_3 C 0.1737(2) 0.2466(2) 0.5653(3)
H24_3 H 0.1916 0.2491 0.5507
C55_3 C 0.1360(3) 0.4372(2) 0.4848(4)
H25_3 H 0.1333 0.4708 0.4699
C56_3 C 0.0693(2) 0.6512(2) 0.6547(3)
C57_3 C 0.1192(2) 0.2418(2) 0.6048(3)
C58_3 C 0.1886(3) 0.4169(3) 0.4553(4)
C59_3 C 0.1636(2) 0.53866(18) 0.7660(3)
C60_3 C 0.1641(2) 0.4012(2) 0.4832(3)
C61_3 C 0.1476(2) 0.28861(18) 0.5609(3)
O21_3 O 0.1794(3) 0.45823(19) 0.4262(4)
C62_3 C 0.1381(2) 0.59103(19) 0.7426(3)
C63_3 C 0.1695(2) 0.3523(2) 0.5092(3)
H26_3 H 0.1890 0.3275 0.5104
C64_3 C 0.2173(2) 0.4490(2) 0.8213(3)
H27_3 H 0.2375 0.4191 0.8415
C65_3 C 0.1458(3) 0.6731(2) 0.7836(4)
H28_3 H 0.1646 0.6971 0.8224
C68_3 C 0.0988(3) 0.6870(2) 0.7122(4)
H30_3 H 0.0868 0.7207 0.7026
C70_3 C 0.1484(3) 0.4031(2) 0.6961(3)
C71_3 C 0.3197(2) 0.4515(2) 0.9894(3)
H32_3 H 0.3118 0.4199 0.9664
O24_3 O 0.17682(19) 0.36731(18) 0.7177(3)
O29_2 O 0.28259(13) 0.65686(13) 0.9319(2)
O22_3 O 0.9969(2) 0.70842(19) 0.5672(3)
N1_4 N 0.29072(16) 0.03475(15) 0.6621(2)
N2_4 N 0.33508(17) 0.12510(17) 0.7018(2)
N4_4 N 0.20317(18) 0.04006(16) 0.5194(3)
C10_4 C 0.4105(2) 0.1020(2) 0.8301(3)
H4_4 H 0.4290 0.0770 0.8676
C17_4 C 0.4835(3) 0.1671(3) 0.9223(4)
C20_4 C 0.4307(2) 0.1512(2) 0.8453(3)
C23_4 C 0.3364(2) 0.03866(18) 0.7340(3)
C26_4 C 0.3619(2) 0.09103(19) 0.7574(3)
O10_4 O 0.5031(2) 0.20842(19) 0.9328(3)
C29_4 C 0.3542(3) 0.1731(2) 0.7164(4)
H12_4 H 0.3354 0.1971 0.6776
C31_4 C 0.1589(3) 0.0453(2) 0.4456(3)
H13_4 H 0.1516 0.0771 0.4230
C32_4 C 0.4012(3) 0.1870(2) 0.7878(4)
H14_4 H 0.4132 0.2207 0.7974
C33_4 C 0.1245(3) 0.0061(3) 0.4027(3)
H15_4 H 0.0943 0.0114 0.3516
C19_4 C 0.3640(3) 0.9372(2) 0.0152(4)
H9_4 H 0.3667 0.9708 0.0301
C22_4 C 0.3114(3) 0.9169(3) 0.0447(4)
C24_4 C 0.3359(2) 0.9012(2) 0.0168(3)
O9_4 O 0.3206(3) 0.95823(19) 0.0738(4)
C1_4 C 0.4500(2) 0.7080(2) 0.8343(3)
O5_4 O 0.39969(15) 0.90685(13) 0.8674(2)
O6_4 O 0.4469(3) 0.6214(2) 0.8073(4)
C2_4 C 0.2644(2) 0.9917(2) 0.6340(3)
C3_4 C 0.4721(3) 0.7561(3) 0.8465(4)
H1_4 H 0.4928 0.7613 0.8368
O7_4 O 0.2905(2) 0.61763(18) 0.8634(3)
C4_4 C 0.3546(2) 0.6989(2) 0.8871(3)
H2_4 H 0.3551 0.6688 0.8676
N3_4 N 0.38331(19) 0.87469(17) 0.9681(3)
C5_4 C 0.4200(2) 0.7016(2) 0.8504(3)
H3_4 H 0.4052 0.6699 0.8439
C6_4 C 0.3547(2) 0.84078(19) 0.9664(3)
C7_4 C 0.4121(2) 0.7436(2) 0.8768(3)
N5_4 N 0.37889(15) 0.78499(15) 0.9196(2)
N6_4 N 0.43390(18) 0.78971(16) 0.8874(2)
C8_4 C 0.4605(3) 0.6632(3) 0.8078(4)
C9_4 C 0.2146(2) 0.9935(2) 0.5521(3)
O8_4 O 0.05370(16) 0.92461(16) 0.3231(2)
C11_4 C 0.3276(2) 0.7008(2) 0.9081(3)
C12_4 C 0.3305(2) 0.9504(2) 0.7525(3)
C13_4 C 0.3588(2) 0.9964(2) 0.7824(3)
H5_4 H 0.3913 0.9989 0.8327
C14_4 C 0.4634(3) 0.7953(2) 0.8725(4)
H6_4 H 0.4784 0.8271 0.8802
C15_4 C 0.2983(2) 0.6529(2) 0.8998(4)
C16_4 C 0.3877(3) 0.9232(2) 0.9918(4)
H7_4 H 0.4072 0.9474 0.9921
C18_4 C 0.3263(2) 0.7466(2) 0.9347(3)
H8_4 H 0.3084 0.7491 0.9493
C21_4 C 0.3808(2) 0.7418(2) 0.8952(3)
C25_4 C 0.3524(2) 0.78861(18) 0.9391(3)
C27_4 C 0.3305(2) 0.8523(2) 0.9908(3)
H10_4 H 0.3110 0.8275 0.9896
C28_4 C 0.2827(2) 0.9490(2) 0.6787(3)
H11_4 H 0.2625 0.9191 0.6585
C30_4 C 0.0967(3) 0.9136(3) 0.3856(4)
O11_4 O 0.1101(2) 0.8714(2) 0.4131(3)
C34_4 C 0.3516(3) 0.9031(2) 0.8039(3)
C35_4 C 0.1803(2) 0.9515(2) 0.5106(3)
H16_4 H 0.1882 0.9199 0.5336
C36_4 C 0.1339(2) 0.9585(2) 0.4340(3)
O12_4 O 0.32318(19) 0.86731(18) 0.7823(3)
N7_4 N 0.70928(16) 0.03475(15) 0.8379(2)
N8_4 N 0.66492(17) 0.12510(17) 0.7982(2)
N10_4 N 0.79683(18) 0.04006(16) 0.9806(3)
C46_4 C 0.5895(2) 0.1020(2) 0.6699(3)
H20_4 H 0.5710 0.0770 0.6324
C53_4 C 0.5165(3) 0.1671(3) 0.5777(4)
C56_4 C 0.5693(2) 0.1512(2) 0.6547(3)
C59_4 C 0.6636(2) 0.03866(18) 0.7660(3)
C62_4 C 0.6381(2) 0.09103(19) 0.7426(3)
O22_4 O 0.4969(2) 0.20842(19) 0.5672(3)
C65_4 C 0.6458(3) 0.1731(2) 0.7836(4)
H28_4 H 0.6646 0.1971 0.8224
C68_4 C 0.5988(3) 0.1870(2) 0.7122(4)
H30_4 H 0.5868 0.2207 0.7026
O20_4 O 0.94630(16) 0.92461(16) 0.1769(2)
C66_4 C 0.9033(3) 0.9136(3) 0.1144(4)
O23_4 O 0.8899(2) 0.8714(2) 0.0869(3)
C72_4 C 0.8661(2) 0.9585(2) 0.0660(3)
C37_4 C 0.5500(2) 0.7080(2) 0.6657(3)
O17_4 O 0.60031(15) 0.90685(13) 0.6326(2)
O18_4 O 0.5531(3) 0.6214(2) 0.6927(4)
C38_4 C 0.7356(2) 0.9917(2) 0.8660(3)
C39_4 C 0.5279(3) 0.7561(3) 0.6535(4)
H17_4 H 0.5072 0.7613 0.6632
O19_4 O 0.7095(2) 0.61763(18) 0.6366(3)
C40_4 C 0.6454(2) 0.6989(2) 0.6129(3)
H18_4 H 0.6449 0.6688 0.6324
N9_4 N 0.61669(19) 0.87469(17) 0.5319(3)
C41_4 C 0.5800(2) 0.7016(2) 0.6496(3)
H19_4 H 0.5948 0.6699 0.6561
C42_4 C 0.6453(2) 0.84078(19) 0.5336(3)
C43_4 C 0.5879(2) 0.7436(2) 0.6232(3)
N11_4 N 0.62111(15) 0.78499(15) 0.5804(2)
N12_4 N 0.56610(18) 0.78971(16) 0.6126(2)
C44_4 C 0.5395(3) 0.6632(3) 0.6922(4)
C45_4 C 0.7854(2) 0.9935(2) 0.9479(3)
C47_4 C 0.6724(2) 0.7008(2) 0.5919(3)
C48_4 C 0.6695(2) 0.9504(2) 0.7475(3)
C49_4 C 0.6412(2) 0.9964(2) 0.7176(3)
H21_4 H 0.6087 0.9989 0.6673
C50_4 C 0.5366(3) 0.7953(2) 0.6275(4)
H22_4 H 0.5216 0.8271 0.6198
C51_4 C 0.7017(2) 0.6529(2) 0.6002(4)
C52_4 C 0.6123(3) 0.9232(2) 0.5082(4)
H23_4 H 0.5928 0.9474 0.5079
C54_4 C 0.6737(2) 0.7466(2) 0.5653(3)
H24_4 H 0.6916 0.7491 0.5507
C55_4 C 0.6360(3) 0.9372(2) 0.4848(4)
H25_4 H 0.6333 0.9708 0.4699
C57_4 C 0.6192(2) 0.7418(2) 0.6048(3)
C58_4 C 0.6886(3) 0.9169(3) 0.4553(4)
C60_4 C 0.6641(2) 0.9012(2) 0.4832(3)
C61_4 C 0.6476(2) 0.78861(18) 0.5609(3)
O21_4 O 0.6794(3) 0.95823(19) 0.4262(4)
C63_4 C 0.6695(2) 0.8523(2) 0.5092(3)
H26_4 H 0.6890 0.8275 0.5104
C64_4 C 0.7173(2) 0.9490(2) 0.8213(3)
H27_4 H 0.7375 0.9191 0.8415
C70_4 C 0.6484(3) 0.9031(2) 0.6961(3)
C71_4 C 0.8197(2) 0.9515(2) 0.9894(3)
H32_4 H 0.8118 0.9199 0.9664
O24_4 O 0.67682(19) 0.86731(18) 0.7177(3)
C67_3 C 0.1589(3) 0.9547(2) 0.9456(3)
H29_3 H 0.1516 0.9229 0.9230
C69_3 C 0.1245(3) 0.9939(3) 0.9027(3)
H31_3 H 0.0943 0.9886 0.8516
C67_4 C 0.8411(3) 0.0453(2) 0.0544(3)
H29_4 H 0.8484 0.0771 0.0770
C69_4 C 0.8755(3) 0.0061(3) 0.0973(3)
H31_4 H 0.9057 0.0114 0.1484
loop_
_geom_bond_atom_site_label_1
_geom_bond_atom_site_label_2
_geom_bond_site_symmetry_1
_geom_bond_site_symmetry_2
Zn7 O14 1_555 1_555
Zn4 O17 1_555 1_555
O13 C44 1_555 1_555
O15 C51 1_555 1_555
Zn5 N7 1_555 1_555
C37 C39 1_555 1_555
O16 C58 1_555 1_555
O17 C70 1_555 1_555
O18 C44 1_555 1_555
N7 C38 1_555 1_555
C38 C45 1_555 1_555
C39 H17 1_555 1_555
O19 C51 1_555 1_555
N8 Zn5 1_555 1_555
C40 H18 1_555 1_555
N9 Zn4 1_555 1_555
C41 C37 1_555 1_555
H19 C41 1_555 1_555
C42 N9 1_555 1_555
C43 C41 1_555 1_555
N10 Zn5 1_555 1_555
N11 Zn4 1_555 1_555
N12 Zn4 1_555 1_555
C44 C37 1_555 1_555
C45 N10 1_555 1_555
C46 H20 1_555 1_555
C47 C40 1_555 1_555
C48 C49 1_555 1_555
C49 H21 1_555 1_555
C50 C39 1_555 1_555
H22 C50 1_555 1_555
C51 C47 1_555 1_555
C52 N9 1_555 1_555
H23 C52 1_555 1_555
C53 C56 1_555 1_555
C54 C47 1_555 1_555
H24 C54 1_555 1_555
C55 C52 1_555 1_555
H25 C55 1_555 1_555
C56 C46 1_555 1_555
C57 C40 1_555 1_555
C58 C60 1_555 1_555
C59 N7 1_555 1_555
C60 C55 1_555 1_555
C61 C42 1_555 1_555
O21 C58 1_555 1_555
C62 N8 1_555 1_555
C63 C42 1_555 1_555
H26 C63 1_555 1_555
C64 C38 1_555 1_555
H27 C64 1_555 1_555
C65 N8 1_555 1_555
H28 C65 1_555 1_555
C68 C56 1_555 1_555
H30 C68 1_555 1_555
C70 C48 1_555 1_555
C71 C45 1_555 1_555
H32 C71 1_555 1_555
O24 C70 1_555 1_555
O28 Zn4 1_555 1_555
O29 Zn5 1_555 1_555
Zn8 O15 1_555 1_555
Zn10 O16 1_555 1_555
O31 Zn5 1_555 1_555
Zn13_2 O13 1_555 1_555
C43 N12 1_555 1_555
C43 C57 1_555 1_555
N11 C57 1_555 1_555
N11 C61 1_555 1_555
N12 C50 1_555 1_555
C46 C62 1_555 1_555
C48 C64 1_555 1_555
C49 C59 1_555 1_555
C54 C61 1_555 1_555
C59 C62 1_555 1_555
C60 C63 1_555 1_555
C65 C68 1_555 1_555
Zn1 O5 1_555 1_555
O1 C8 1_555 1_555
O3 C15 1_555 1_555
Zn2 N1 1_555 1_555
C1 C3 1_555 1_555
O5 C34 1_555 1_555
Zn3 O8 1_555 1_555
O6 C8 1_555 1_555
N1 C2 1_555 1_555
C2 C9 1_555 1_555
C3 H1 1_555 1_555
O7 C15 1_555 1_555
N2 Zn2 1_555 1_555
C4 H2 1_555 1_555
N3 Zn1 1_555 1_555
C5 C1 1_555 1_555
H3 C5 1_555 1_555
C6 N3 1_555 1_555
C7 C5 1_555 1_555
N4 Zn2 1_555 1_555
N5 Zn1 1_555 1_555
N6 Zn1 1_555 1_555
C8 C1 1_555 1_555
C9 N4 1_555 1_555
C10 H4 1_555 1_555
O8 C30 1_555 1_555
C11 C4 1_555 1_555
C12 C13 1_555 1_555
C13 H5 1_555 1_555
C14 C3 1_555 1_555
H6 C14 1_555 1_555
C15 C11 1_555 1_555
C16 N3 1_555 1_555
H7 C16 1_555 1_555
C17 C20 1_555 1_555
C18 C11 1_555 1_555
H8 C18 1_555 1_555
C20 C10 1_555 1_555
C21 C4 1_555 1_555
C23 N1 1_555 1_555
C25 C6 1_555 1_555
C26 N2 1_555 1_555
C27 C6 1_555 1_555
H10 C27 1_555 1_555
C28 C2 1_555 1_555
H11 C28 1_555 1_555
C29 N2 1_555 1_555
H12 C29 1_555 1_555
C30 O11 1_555 1_555
C31 N4 1_555 1_555
H13 C31 1_555 1_555
C32 C20 1_555 1_555
H14 C32 1_555 1_555
C33 C31 1_555 1_555
H15 C33 1_555 1_555
C34 C12 1_555 1_555
C35 C9 1_555 1_555
H16 C35 1_555 1_555
C36 C30 1_555 1_555
O12 C34 1_555 1_555
O20 Zn3 1_555 1_555
C66 O20 1_555 1_555
H29 C67 1_555 1_555
O23 C66 1_555 1_555
C69 C67 1_555 1_555
H31 C69 1_555 1_555
C72 C66 1_555 1_555
O25 Zn3 1_555 1_555
O26 Zn3 1_555 1_555
O30 Zn2 1_555 1_555
Zn9 O3 1_555 1_555
O32 Zn2 1_555 1_555
Zn13 O1 1_555 1_555
C7 N6 1_555 1_555
C7 C21 1_555 1_555
N5 C21 1_555 1_555
N5 C25 1_555 1_555
N6 C14 1_555 1_555
C10 C26 1_555 1_555
C12 C28 1_555 1_555
C13 C23 1_555 1_555
C18 C25 1_555 1_555
C23 C26 1_555 1_555
C29 C32 1_555 1_555
C33 C36 1_555 1_555
C35 C36 1_555 1_555
C69 C72 1_555 1_555
O4 C22 1_555 1_555
H9 C19 1_555 1_555
C22 C24 1_555 1_555
C24 C19 1_555 1_555
O9 C22 1_555 1_555
Zn11 O4 1_555 1_555
Zn4_2 O17_2 1_555 1_555
O13_2 C44_2 1_555 1_555
O30 C51_2 1_555 1_555
C37_2 C39_2 1_555 1_555
O16_2 C58_2 1_555 1_555
O17_2 C70_2 1_555 1_555
O18_2 C44_2 1_555 1_555
C38_2 C45_2 1_555 1_555
C39_2 H17_2 1_555 1_555
O19_2 C51_2 1_555 1_555
C40_2 H18_2 1_555 1_555
N9_2 Zn4_2 1_555 1_555
C41_2 C37_2 1_555 1_555
H19_2 C41_2 1_555 1_555
C42_2 N9_2 1_555 1_555
C43_2 C41_2 1_555 1_555
N11_2 Zn4_2 1_555 1_555
N12_2 Zn4_2 1_555 1_555
C44_2 C37_2 1_555 1_555
C47_2 C40_2 1_555 1_555
C48_2 C49_2 1_555 1_555
C49_2 H21_2 1_555 1_555
C50_2 C39_2 1_555 1_555
H22_2 C50_2 1_555 1_555
C51_2 C47_2 1_555 1_555
C52_2 N9_2 1_555 1_555
H23_2 C52_2 1_555 1_555
C54_2 C47_2 1_555 1_555
H24_2 C54_2 1_555 1_555
C55_2 C52_2 1_555 1_555
H25_2 C55_2 1_555 1_555
C57_2 C40_2 1_555 1_555
C58_2 C60_2 1_555 1_555
C60_2 C55_2 1_555 1_555
C61_2 C42_2 1_555 1_555
O21_2 C58_2 1_555 1_555
C63_2 C42_2 1_555 1_555
H26_2 C63_2 1_555 1_555
C64_2 C38_2 1_555 1_555
H27_2 C64_2 1_555 1_555
C70_2 C48_2 1_555 1_555
C71_2 C45_2 1_555 1_555
H32_2 C71_2 1_555 1_555
O24_2 C70_2 1_555 1_555
O28_2 Zn4_2 1_555 1_555
Zn10_2 O16_2 1_555 1_555
Zn13_3 O13_2 1_555 1_555
C43_2 N12_2 1_555 1_555
C43_2 C57_2 1_555 1_555
N11_2 C57_2 1_555 1_555
N11_2 C61_2 1_555 1_555
N12_2 C50_2 1_555 1_555
C48_2 C64_2 1_555 1_555
C54_2 C61_2 1_555 1_555
C60_2 C63_2 1_555 1_555
O20_2 Zn3_2 1_555 1_555
C66_2 O20_2 1_555 1_555
O23_2 C66_2 1_555 1_555
C72_2 C66_2 1_555 1_555
O26_2 Zn3_2 1_555 1_555
O14_2 C53_2 1_555 1_555
Zn9 N7_2 1_555 1_555
N8_2 Zn9 1_555 1_555
N10_2 Zn9 1_555 1_555
C46_2 H20_2 1_555 1_555
C53_2 C56_2 1_555 1_555
C56_2 C46_2 1_555 1_555
C59_2 N7_2 1_555 1_555
C62_2 N8_2 1_555 1_555
O22_2 C53_2 1_555 1_555
C65_2 N8_2 1_555 1_555
H28_2 C65_2 1_555 1_555
C68_2 C56_2 1_555 1_555
H30_2 C68_2 1_555 1_555
Zn7_2 O14_2 1_555 1_555
O31_2 Zn9 1_555 1_555
C46_2 C62_2 1_555 1_555
C59_2 C62_2 1_555 1_555
C65_2 C68_2 1_555 1_555
Zn1_2 O5_2 1_555 1_555
O1_2 C8_2 1_555 1_555
O29 C15_2 1_555 1_555
C1_2 C3_2 1_555 1_555
O5_2 C34_2 1_555 1_555
Zn3_3 O8_2 1_555 1_555
O6_2 C8_2 1_555 1_555
C2_2 C9_2 1_555 1_555
C3_2 H1_2 1_555 1_555
O7_2 C15_2 1_555 1_555
C4_2 H2_2 1_555 1_555
N3_2 Zn1_2 1_555 1_555
C5_2 C1_2 1_555 1_555
H3_2 C5_2 1_555 1_555
C6_2 N3_2 1_555 1_555
C7_2 C5_2 1_555 1_555
N5_2 Zn1_2 1_555 1_555
N6_2 Zn1_2 1_555 1_555
C8_2 C1_2 1_555 1_555
O8_2 C30_2 1_555 1_555
C11_2 C4_2 1_555 1_555
C12_2 C13_2 1_555 1_555
C13_2 H5_2 1_555 1_555
C14_2 C3_2 1_555 1_555
H6_2 C14_2 1_555 1_555
C15_2 C11_2 1_555 1_555
C16_2 N3_2 1_555 1_555
H7_2 C16_2 1_555 1_555
C18_2 C11_2 1_555 1_555
H8_2 C18_2 1_555 1_555
C21_2 C4_2 1_555 1_555
C25_2 C6_2 1_555 1_555
C27_2 C6_2 1_555 1_555
H10_2 C27_2 1_555 1_555
C28_2 C2_2 1_555 1_555
H11_2 C28_2 1_555 1_555
C30_2 O11_2 1_555 1_555
C34_2 C12_2 1_555 1_555
C35_2 C9_2 1_555 1_555
H16_2 C35_2 1_555 1_555
C36_2 C30_2 1_555 1_555
O12_2 C34_2 1_555 1_555
O25_2 Zn3_3 1_555 1_555
Zn13_3 O1_2 1_555 1_555
C7_2 N6_2 1_555 1_555
C7_2 C21_2 1_555 1_555
N5_2 C21_2 1_555 1_555
N5_2 C25_2 1_555 1_555
N6_2 C14_2 1_555 1_555
C12_2 C28_2 1_555 1_555
C18_2 C25_2 1_555 1_555
C35_2 C36_2 1_555 1_555
O4_2 C22_2 1_555 1_555
H9_2 C19_2 1_555 1_555
C22_2 C24_2 1_555 1_555
C24_2 C19_2 1_555 1_555
O9_2 C22_2 1_555 1_555
Zn11_2 O4_2 1_555 1_555
O2_2 C17_2 1_555 1_555
Zn8 N1_2 1_555 1_555
N2_2 Zn8 1_555 1_555
N4_2 Zn8 1_555 1_555
C10_2 H4_2 1_555 1_555
C17_2 C20_2 1_555 1_555
C20_2 C10_2 1_555 1_555
C23_2 N1_2 1_555 1_555
C26_2 N2_2 1_555 1_555
O10_2 C17_2 1_555 1_555
C29_2 N2_2 1_555 1_555
H12_2 C29_2 1_555 1_555
C31_2 N4_2 1_555 1_555
H13_2 C31_2 1_555 1_555
C32_2 C20_2 1_555 1_555
H14_2 C32_2 1_555 1_555
C33_2 C31_2 1_555 1_555
H15_2 C33_2 1_555 1_555
O32_2 Zn8 1_555 1_555
C10_2 C26_2 1_555 1_555
C23_2 C26_2 1_555 1_555
C29_2 C32_2 1_555 1_555
O31 C22_3 1_555 1_555
H9_3 C19_3 1_555 1_555
C22_3 C24_3 1_555 1_555
C24_3 C19_3 1_555 1_555
O9_3 C22_3 1_555 1_555
Zn6 O5_3 1_555 1_555
O25_2 C8_3 1_555 1_555
O3_2 C15_3 1_555 1_555
Zn10 N1_3 1_555 1_555
C1_3 C3_3 1_555 1_555
O5_3 C34_3 1_555 1_555
Zn13_3 O8_3 1_555 1_555
O6_3 C8_3 1_555 1_555
N1_3 C2_3 1_555 1_555
C2_3 C9_3 1_555 1_555
C3_3 H1_3 1_555 1_555
O7_3 C15_3 1_555 1_555
N2_3 Zn10 1_555 1_555
C4_3 H2_3 1_555 1_555
N3_3 Zn6 1_555 1_555
C5_3 C1_3 1_555 1_555
H3_3 C5_3 1_555 1_555
C6_3 N3_3 1_555 1_555
C7_3 C5_3 1_555 1_555
N4_3 Zn10 1_555 1_555
N5_3 Zn6 1_555 1_555
N6_3 Zn6 1_555 1_555
C8_3 C1_3 1_555 1_555
C9_3 N4_3 1_555 1_555
C10_3 H4_3 1_555 1_555
O8_3 C30_3 1_555 1_555
C11_3 C4_3 1_555 1_555
C12_3 C13_3 1_555 1_555
C13_3 H5_3 1_555 1_555
C14_3 C3_3 1_555 1_555
H6_3 C14_3 1_555 1_555
C15_3 C11_3 1_555 1_555
C16_3 N3_3 1_555 1_555
H7_3 C16_3 1_555 1_555
C17_3 C20_3 1_555 1_555
C18_3 C11_3 1_555 1_555
H8_3 C18_3 1_555 1_555
C20_3 C10_3 1_555 1_555
C21_3 C4_3 1_555 1_555
C23_3 N1_3 1_555 1_555
C25_3 C6_3 1_555 1_555
C26_3 N2_3 1_555 1_555
C27_3 C6_3 1_555 1_555
H10_3 C27_3 1_555 1_555
C28_3 C2_3 1_555 1_555
H11_3 C28_3 1_555 1_555
C29_3 N2_3 1_555 1_555
H12_3 C29_3 1_555 1_555
C30_3 O11_3 1_555 1_555
C31_3 N4_3 1_555 1_555
H13_3 C31_3 1_555 1_555
C32_3 C20_3 1_555 1_555
H14_3 C32_3 1_555 1_555
C33_3 C31_3 1_555 1_555
H15_3 C33_3 1_555 1_555
C34_3 C12_3 1_555 1_555
C35_3 C9_3 1_555 1_555
H16_3 C35_3 1_555 1_555
C36_3 C30_3 1_555 1_555
O12_3 C34_3 1_555 1_555
O20_3 Zn13_3 1_555 1_555
C66_3 O20_3 1_555 1_555
H29_2 C67_2 1_555 1_555
O23_3 C66_3 1_555 1_555
C69_2 C67_2 1_555 1_555
H31_2 C69_2 1_555 1_555
C72_3 C66_3 1_555 1_555
O30_2 Zn10 1_555 1_555
Zn11_2 O3_2 1_555 1_555
C7_3 N6_3 1_555 1_555
C7_3 C21_3 1_555 1_555
N5_3 C21_3 1_555 1_555
N5_3 C25_3 1_555 1_555
N6_3 C14_3 1_555 1_555
C10_3 C26_3 1_555 1_555
C12_3 C28_3 1_555 1_555
C13_3 C23_3 1_555 1_555
C18_3 C25_3 1_555 1_555
C23_3 C26_3 1_555 1_555
C29_3 C32_3 1_555 1_555
C33_3 C36_3 1_555 1_555
C35_3 C36_3 1_555 1_555
C69_2 C72_3 1_555 1_555
Zn7 O17_3 1_555 1_555
O26_2 C44_3 1_555 1_555
O15_2 C51_3 1_555 1_555
Zn11 N7_3 1_555 1_555
C37_3 C39_3 1_555 1_555
O32 C58_3 1_555 1_555
O17_3 C70_3 1_555 1_555
O18_3 C44_3 1_555 1_555
N7_3 C38_3 1_555 1_555
C38_3 C45_3 1_555 1_555
C39_3 H17_3 1_555 1_555
O19_3 C51_3 1_555 1_555
N8_3 Zn11 1_555 1_555
C40_3 H18_3 1_555 1_555
N9_3 Zn7 1_555 1_555
C41_3 C37_3 1_555 1_555
H19_3 C41_3 1_555 1_555
C42_3 N9_3 1_555 1_555
C43_3 C41_3 1_555 1_555
N10_3 Zn11 1_555 1_555
N11_3 Zn7 1_555 1_555
N12_3 Zn7 1_555 1_555
C44_3 C37_3 1_555 1_555
C45_3 N10_3 1_555 1_555
C46_3 H20_3 1_555 1_555
C47_3 C40_3 1_555 1_555
C48_3 C49_3 1_555 1_555
C49_3 H21_3 1_555 1_555
C50_3 C39_3 1_555 1_555
H22_3 C50_3 1_555 1_555
C51_3 C47_3 1_555 1_555
C52_3 N9_3 1_555 1_555
H23_3 C52_3 1_555 1_555
C53_3 C56_3 1_555 1_555
C54_3 C47_3 1_555 1_555
H24_3 C54_3 1_555 1_555
C55_3 C52_3 1_555 1_555
H25_3 C55_3 1_555 1_555
C56_3 C46_3 1_555 1_555
C57_3 C40_3 1_555 1_555
C58_3 C60_3 1_555 1_555
C59_3 N7_3 1_555 1_555
C60_3 C55_3 1_555 1_555
C61_3 C42_3 1_555 1_555
O21_3 C58_3 1_555 1_555
C62_3 N8_3 1_555 1_555
C63_3 C42_3 1_555 1_555
H26_3 C63_3 1_555 1_555
C64_3 C38_3 1_555 1_555
H27_3 C64_3 1_555 1_555
C65_3 N8_3 1_555 1_555
H28_3 C65_3 1_555 1_555
C68_3 C56_3 1_555 1_555
H30_3 C68_3 1_555 1_555
C70_3 C48_3 1_555 1_555
C71_3 C45_3 1_555 1_555
H32_3 C71_3 1_555 1_555
O24_3 C70_3 1_555 1_555
O29_2 Zn11 1_555 1_555
Zn10_2 O15_2 1_555 1_555
C43_3 N12_3 1_555 1_555
C43_3 C57_3 1_555 1_555
N11_3 C57_3 1_555 1_555
N11_3 C61_3 1_555 1_555
N12_3 C50_3 1_555 1_555
C46_3 C62_3 1_555 1_555
C48_3 C64_3 1_555 1_555
C49_3 C59_3 1_555 1_555
C54_3 C61_3 1_555 1_555
C59_3 C62_3 1_555 1_555
C60_3 C63_3 1_555 1_555
C65_3 C68_3 1_555 1_555
O27_2 C17_4 1_555 1_555
Zn10_2 N1_4 1_555 1_555
N2_4 Zn10_2 1_555 1_555
N4_4 Zn10_2 1_555 1_555
C10_4 H4_4 1_555 1_555
C17_4 C20_4 1_555 1_555
C20_4 C10_4 1_555 1_555
C23_4 N1_4 1_555 1_555
C26_4 N2_4 1_555 1_555
O10_4 C17_4 1_555 1_555
C29_4 N2_4 1_555 1_555
H12_4 C29_4 1_555 1_555
C31_4 N4_4 1_555 1_555
H13_4 C31_4 1_555 1_555
C32_4 C20_4 1_555 1_555
H14_4 C32_4 1_555 1_555
C33_4 C31_4 1_555 1_555
H15_4 C33_4 1_555 1_555
C10_4 C26_4 1_555 1_555
C23_4 C26_4 1_555 1_555
C29_4 C32_4 1_555 1_555
O31_2 C22_4 1_555 1_555
H9_4 C19_4 1_555 1_555
C22_4 C24_4 1_555 1_555
C24_4 C19_4 1_555 1_555
O9_4 C22_4 1_555 1_555
Zn6_2 O5_4 1_555 1_555
O25 C8_4 1_555 1_555
O29_2 C15_4 1_555 1_555
C1_4 C3_4 1_555 1_555
O5_4 C34_4 1_555 1_555
Zn13 O8_4 1_555 1_555
O6_4 C8_4 1_555 1_555
C2_4 C9_4 1_555 1_555
C3_4 H1_4 1_555 1_555
O7_4 C15_4 1_555 1_555
C4_4 H2_4 1_555 1_555
N3_4 Zn6_2 1_555 1_555
C5_4 C1_4 1_555 1_555
H3_4 C5_4 1_555 1_555
C6_4 N3_4 1_555 1_555
C7_4 C5_4 1_555 1_555
N5_4 Zn6_2 1_555 1_555
N6_4 Zn6_2 1_555 1_555
C8_4 C1_4 1_555 1_555
O8_4 C30_4 1_555 1_555
C11_4 C4_4 1_555 1_555
C12_4 C13_4 1_555 1_555
C13_4 H5_4 1_555 1_555
C14_4 C3_4 1_555 1_555
H6_4 C14_4 1_555 1_555
C15_4 C11_4 1_555 1_555
C16_4 N3_4 1_555 1_555
H7_4 C16_4 1_555 1_555
C18_4 C11_4 1_555 1_555
H8_4 C18_4 1_555 1_555
C21_4 C4_4 1_555 1_555
C25_4 C6_4 1_555 1_555
C27_4 C6_4 1_555 1_555
H10_4 C27_4 1_555 1_555
C28_4 C2_4 1_555 1_555
H11_4 C28_4 1_555 1_555
C30_4 O11_4 1_555 1_555
C34_4 C12_4 1_555 1_555
C35_4 C9_4 1_555 1_555
H16_4 C35_4 1_555 1_555
C36_4 C30_4 1_555 1_555
O12_4 C34_4 1_555 1_555
C7_4 N6_4 1_555 1_555
C7_4 C21_4 1_555 1_555
N5_4 C21_4 1_555 1_555
N5_4 C25_4 1_555 1_555
N6_4 C14_4 1_555 1_555
C12_4 C28_4 1_555 1_555
C18_4 C25_4 1_555 1_555
C35_4 C36_4 1_555 1_555
O28_2 C53_4 1_555 1_555
Zn11_2 N7_4 1_555 1_555
N8_4 Zn11_2 1_555 1_555
N10_4 Zn11_2 1_555 1_555
C46_4 H20_4 1_555 1_555
C53_4 C56_4 1_555 1_555
C56_4 C46_4 1_555 1_555
C59_4 N7_4 1_555 1_555
C62_4 N8_4 1_555 1_555
O22_4 C53_4 1_555 1_555
C65_4 N8_4 1_555 1_555
H28_4 C65_4 1_555 1_555
C68_4 C56_4 1_555 1_555
H30_4 C68_4 1_555 1_555
C46_4 C62_4 1_555 1_555
C59_4 C62_4 1_555 1_555
C65_4 C68_4 1_555 1_555
O20_4 Zn13_2 1_555 1_555
C66_4 O20_4 1_555 1_555
O23_4 C66_4 1_555 1_555
C72_4 C66_4 1_555 1_555
Zn7_2 O17_4 1_555 1_555
O26 C44_4 1_555 1_555
O30_2 C51_4 1_555 1_555
C37_4 C39_4 1_555 1_555
O32_2 C58_4 1_555 1_555
O17_4 C70_4 1_555 1_555
O18_4 C44_4 1_555 1_555
C38_4 C45_4 1_555 1_555
C39_4 H17_4 1_555 1_555
O19_4 C51_4 1_555 1_555
C40_4 H18_4 1_555 1_555
N9_4 Zn7_2 1_555 1_555
C41_4 C37_4 1_555 1_555
H19_4 C41_4 1_555 1_555
C42_4 N9_4 1_555 1_555
C43_4 C41_4 1_555 1_555
N11_4 Zn7_2 1_555 1_555
N12_4 Zn7_2 1_555 1_555
C44_4 C37_4 1_555 1_555
C47_4 C40_4 1_555 1_555
C48_4 C49_4 1_555 1_555
C49_4 H21_4 1_555 1_555
C50_4 C39_4 1_555 1_555
H22_4 C50_4 1_555 1_555
C51_4 C47_4 1_555 1_555
C52_4 N9_4 1_555 1_555
H23_4 C52_4 1_555 1_555
C54_4 C47_4 1_555 1_555
H24_4 C54_4 1_555 1_555
C55_4 C52_4 1_555 1_555
H25_4 C55_4 1_555 1_555
C57_4 C40_4 1_555 1_555
C58_4 C60_4 1_555 1_555
C60_4 C55_4 1_555 1_555
C61_4 C42_4 1_555 1_555
O21_4 C58_4 1_555 1_555
C63_4 C42_4 1_555 1_555
H26_4 C63_4 1_555 1_555
C64_4 C38_4 1_555 1_555
H27_4 C64_4 1_555 1_555
C70_4 C48_4 1_555 1_555
C71_4 C45_4 1_555 1_555
H32_4 C71_4 1_555 1_555
O24_4 C70_4 1_555 1_555
C43_4 N12_4 1_555 1_555
C43_4 C57_4 1_555 1_555
N11_4 C57_4 1_555 1_555
N11_4 C61_4 1_555 1_555
N12_4 C50_4 1_555 1_555
C48_4 C64_4 1_555 1_555
C54_4 C61_4 1_555 1_555
C60_4 C63_4 1_555 1_555
H29_3 C67_3 1_555 1_555
C69_3 C67_3 1_555 1_555
H31_3 C69_3 1_555 1_555
H29_4 C67_4 1_555 1_555
C69_4 C67_4 1_555 1_555
H31_4 C69_4 1_555 1_555

#END
