
###############################################################################
#
# This file contains modified crystal structure data generated from the
# MOF subset of the Cambridge Structural Database (CSD) v543 
# hosted by the Cambridge Crystallographic Data Centre (CCDC).
#
# This work is licensed under the Creative Commons
# Attribution-NonCommercial-ShareAlike 4.0 International License.
# To view a copy of this license, visit
# http://creativecommons.org/licenses/by-nc-sa/4.0/
# or send a letter to
# Creative Commons, PO Box 1866, Mountain View, CA 94042, USA.
#
# CIF created using the CSD Python API on 29 September 2022
# The structure has been converted into the P1 space group
# The structure has a 3D framework
# The original CSD entry TILWIV is in the monoclinic crystal system
# The framework has been calculated to contain at least 10.0% void space
# The void calculation uses a probe of radius 1.32A, grid spacing 0.4
# H atom positions have been added when not included in the experimental data
#
###############################################################################

data_TILWIV
_chemical_formula_moiety         '(C48 H48 O56 P8 Pb10 S8)n'
_symmetry_cell_setting           triclinic
_symmetry_space_group_name_H-M   'P 1'
_symmetry_Int_Tables_number      1
_space_group_name_Hall           'P 1'
loop_
_symmetry_equiv_pos_site_id
_symmetry_equiv_pos_as_xyz
1 x,y,z
_cell_length_a                   10.36420(10)
_cell_length_b                   15.5661(3)
_cell_length_c                   16.4630(2)
_cell_angle_alpha                90
_cell_angle_beta                 102.9650(10)
_cell_angle_gamma                90
_cell_volume                     2588.27
loop_
_atom_site_label
_atom_site_type_symbol
_atom_site_fract_x
_atom_site_fract_y
_atom_site_fract_z
Pb7 Pb 0.26659(2) 0.072716(15) 0.043677(15)
S2 S 0.25223(16) 0.20667(10) 0.84516(11)
P2 P 0.09151(16) 0.45860(10) 0.60913(10)
C7 C 0.1517(6) 0.4260(4) 0.7170(4)
C8 C 0.1654(6) 0.3397(4) 0.7386(4)
H5 H 0.1366 0.2974 0.6987
C9 C 0.2232(6) 0.3172(4) 0.8210(4)
C10 C 0.2651(8) 0.3787(5) 0.8815(5)
H6 H 0.3037 0.3628 0.9359
C11 C 0.2486(9) 0.4648(5) 0.8595(5)
H7 H 0.2750 0.5072 0.8997
C12 C 0.1924(7) 0.4878(4) 0.7772(4)
H8 H 0.1824 0.5455 0.7628
O8 O 0.2082(4) 0.5040(3) 0.5851(3)
O9 O 0.0442(5) 0.3784(3) 0.5573(3)
O10 O 0.1347(5) 0.1591(3) 0.8067(3)
O11 O 0.3651(5) 0.1846(3) 0.8085(3)
O12 O 0.2919(6) 0.2010(3) 0.9358(3)
Pb6 Pb 0.23341(2) 0.572716(15) 0.456323(15)
Pb8 Pb 0.08360(2) 0.335360(16) 0.427420(16)
Pb9 Pb 0.58360(2) 0.164640(16) 0.927420(16)
Pb11 Pb 0.44876(3) 0.491234(18) 0.672617(16)
O20 O 0.1349(5) 0.6846(3) 0.6915(3)
Pb12 Pb 0.05124(3) 0.991234(18) 0.827383(16)
Pb1 Pb 0.76659(2) 0.427284(15) 0.543677(15)
Pb2 Pb 0.91640(2) 0.664640(16) 0.572580(16)
Pb3 Pb 0.55124(3) 0.508766(18) 0.327383(16)
S1 S 0.7787(2) 0.85006(12) 0.76293(12)
P1 P 0.56708(15) 0.61836(10) 0.52128(10)
C1 C 0.5715(6) 0.7281(4) 0.5596(4)
C2 C 0.6526(6) 0.7468(4) 0.6372(4)
H1 H 0.7000 0.7032 0.6693
C3 C 0.6625(7) 0.8312(4) 0.6667(4)
C4 C 0.5899(8) 0.8960(5) 0.6218(5)
H2 H 0.5962 0.9519 0.6423
C5 C 0.5059(8) 0.8765(5) 0.5444(5)
H3 H 0.4558 0.9199 0.5136
C6 C 0.4968(7) 0.7934(4) 0.5136(5)
H4 H 0.4409 0.7812 0.4623
O1 O 0.7040(4) 0.5801(3) 0.5565(3)
O2 O 0.5272(5) 0.6213(3) 0.4265(3)
O3 O 0.4615(4) 0.5702(3) 0.5558(3)
O4 O 0.7556(8) 0.9364(4) 0.7913(4)
O5 O 0.7571(6) 0.7848(4) 0.8212(4)
O6 O 0.9066(6) 0.8449(5) 0.7414(4)
O7 O 0.9727(4) 0.5192(3) 0.6057(3)
O13 O 0.3735(7) 0.4197(5) 0.2210(5)
O14 O 0.8396(8) 0.8107(5) 0.4704(5)
Pb5 Pb 0.73341(2) 0.927284(15) 0.956323(15)
O15 O 0.5385(4) 0.4298(3) 0.4442(3)
O16 O 0.7444(8) 0.4364(4) 0.7087(4)
O17 O 0.7918(4) 0.4960(3) 0.4149(3)
O18 O 0.9558(5) 0.6216(3) 0.4427(3)
O19 O 0.6347(5) 0.3409(3) 0.3067(3)
O21 O 0.7919(6) 0.2990(3) 0.4358(3)
H9 H 0.317319 0.459421 0.180822
H10 H 0.418981 0.378956 0.190336
H11 H 0.770318 0.842904 0.490688
H12 H 0.917648 0.848381 0.472699
H4_2 H 0.0591 0.2812 0.0377
H3_2 H 0.0442 0.4199 0.9864
C6_2 C 0.0032(7) 0.2934(4) 0.9864(5)
O3_2 O 0.0385(4) 0.0702(3) 0.9442(3)
Pb3_2 Pb 0.94876(3) 0.008766(18) 0.172617(16)
O2_2 O 0.9728(5) 0.1213(3) 0.0735(3)
O14_2 O 0.6604(8) 0.3107(5) 0.0296(5)
O18_2 O 0.5442(5) 0.1216(3) 0.0573(3)
H11_2 H 0.729682 0.342904 0.00931232
H12_2 H 0.582352 0.348381 0.0273008
S1_2 S 0.7213(2) 0.35006(12) 0.73707(12)
P1_2 P 0.93292(15) 0.11836(10) 0.97872(10)
C1_2 C 0.9285(6) 0.2281(4) 0.9404(4)
C2_2 C 0.8474(6) 0.2468(4) 0.8628(4)
H1_2 H 0.8000 0.2032 0.8307
C3_2 C 0.8375(7) 0.3312(4) 0.8333(4)
C4_2 C 0.9101(8) 0.3960(5) 0.8782(5)
H2_2 H 0.9038 0.4519 0.8577
C5_2 C 0.9941(8) 0.3765(5) 0.9556(5)
H7_2 H 0.2250 0.0072 0.6003
H8_2 H 0.3176 0.0455 0.7372
O1_2 O 0.7960(4) 0.0801(3) 0.9435(3)
O5_2 O 0.7429(6) 0.2848(4) 0.6788(4)
O6_2 O 0.5934(6) 0.3449(5) 0.7586(4)
O7_2 O 0.5273(4) 0.0192(3) 0.8943(3)
O8_2 O 0.2918(4) 0.0040(3) 0.9149(3)
Pb8_2 Pb 0.41640(2) 0.835360(16) 0.072580(16)
O15_2 O 0.9615(4) 0.9298(3) 0.0558(3)
O17_2 O 0.7082(4) 0.9960(3) 0.0851(3)
O19_2 O 0.8653(5) 0.8409(3) 0.1933(3)
O21_2 O 0.7081(6) 0.7990(3) 0.0642(3)
S2_2 S 0.24777(16) 0.70667(10) 0.65484(11)
P2_2 P 0.40849(16) 0.95860(10) 0.89087(10)
C7_2 C 0.3483(6) 0.9260(4) 0.7830(4)
C8_2 C 0.3346(6) 0.8397(4) 0.7614(4)
H5_2 H 0.3634 0.7974 0.8013
C9_2 C 0.2768(6) 0.8172(4) 0.6790(4)
C10_2 C 0.2349(8) 0.8787(5) 0.6185(5)
H6_2 H 0.1963 0.8628 0.5641
C11_2 C 0.2514(9) 0.9648(5) 0.6405(5)
C12_2 C 0.3076(7) 0.9878(4) 0.7228(4)
O9_2 O 0.4558(5) 0.8784(3) 0.9427(3)
O10_2 O 0.3653(5) 0.6591(3) 0.6933(3)
O12_2 O 0.2081(6) 0.7010(3) 0.5642(3)
S1_3 S 0.2213(2) 0.14994(12) 0.23707(12)
P1_3 P 0.43292(15) 0.38164(10) 0.47872(10)
C1_3 C 0.4285(6) 0.2719(4) 0.4404(4)
C2_3 C 0.3474(6) 0.2532(4) 0.3628(4)
H1_3 H 0.3000 0.2968 0.3307
C3_3 C 0.3375(7) 0.1688(4) 0.3333(4)
C4_3 C 0.4101(8) 0.1040(5) 0.3782(5)
H2_3 H 0.4038 0.0481 0.3577
C5_3 C 0.4941(8) 0.1235(5) 0.4556(5)
H3_3 H 0.5442 0.0801 0.4864
C6_3 C 0.5032(7) 0.2066(4) 0.4864(5)
H4_3 H 0.5591 0.2188 0.5377
O1_3 O 0.2960(4) 0.4199(3) 0.4435(3)
O2_3 O 0.4728(5) 0.3787(3) 0.5735(3)
O4_2 O 0.2444(8) 0.0636(4) 0.2087(4)
O5_3 O 0.2429(6) 0.2152(4) 0.1788(4)
O6_3 O 0.0934(6) 0.1551(5) 0.2586(4)
O7_3 O 0.0273(4) 0.4808(3) 0.3943(3)
O13_2 O 0.6265(7) 0.5803(5) 0.7790(5)
O14_3 O 0.1604(8) 0.1893(5) 0.5296(5)
O16_2 O 0.2556(8) 0.5636(4) 0.2913(4)
H9_2 H 0.682681 0.540579 0.819178
H10_2 H 0.581019 0.621044 0.809664
H11_3 H 0.229682 0.157096 0.509312
H12_3 H 0.0823522 0.151619 0.527301
S2_3 S 0.74777(16) 0.79333(10) 0.15484(11)
P2_3 P 0.90849(16) 0.54140(10) 0.39087(10)
C7_3 C 0.8483(6) 0.5740(4) 0.2830(4)
C8_3 C 0.8346(6) 0.6603(4) 0.2614(4)
H5_3 H 0.8634 0.7026 0.3013
C9_3 C 0.7768(6) 0.6828(4) 0.1790(4)
C10_3 C 0.7349(8) 0.6213(5) 0.1185(5)
H6_3 H 0.6963 0.6372 0.0641
C11_3 C 0.7514(9) 0.5352(5) 0.1405(5)
H7_3 H 0.7250 0.4928 0.1003
C12_3 C 0.8076(7) 0.5122(4) 0.2228(4)
H8_3 H 0.8176 0.4545 0.2372
O11_2 O 0.6349(5) 0.8154(3) 0.1915(3)
O20_2 O 0.8651(5) 0.3154(3) 0.3085(3)
S2_4 S 0.75223(16) 0.29333(10) 0.34516(11)
P2_4 P 0.59151(16) 0.04140(10) 0.10913(10)
C7_4 C 0.6517(6) 0.0740(4) 0.2170(4)
C8_4 C 0.6654(6) 0.1603(4) 0.2386(4)
H5_4 H 0.6366 0.2026 0.1987
C9_4 C 0.7232(6) 0.1828(4) 0.3210(4)
C10_4 C 0.7651(8) 0.1213(5) 0.3815(5)
H6_4 H 0.8037 0.1372 0.4359
C11_4 C 0.7486(9) 0.0352(5) 0.3595(5)
C12_4 C 0.6924(7) 0.0122(4) 0.2772(4)
S1_4 S 0.2787(2) 0.64994(12) 0.26293(12)
P1_4 P 0.06708(15) 0.88164(10) 0.02128(10)
C1_4 C 0.0715(6) 0.7719(4) 0.0596(4)
C2_4 C 0.1526(6) 0.7532(4) 0.1372(4)
H1_4 H 0.2000 0.7968 0.1693
C3_4 C 0.1625(7) 0.6688(4) 0.1667(4)
C4_4 C 0.0899(8) 0.6040(5) 0.1218(5)
H2_4 H 0.0962 0.5481 0.1423
C5_4 C 0.0059(8) 0.6235(5) 0.0444(5)
H7_4 H 0.7750 0.9928 0.3997
H8_4 H 0.6824 0.9545 0.2628
O1_4 O 0.2040(4) 0.9199(3) 0.0565(3)
O5_4 O 0.2571(6) 0.7152(4) 0.3212(4)
O6_4 O 0.4066(6) 0.6551(5) 0.2414(4)
O7_4 O 0.4727(4) 0.9808(3) 0.1057(3)
O2_4 O 0.0272(5) 0.8787(3) 0.9265(3)
O14_4 O 0.3396(8) 0.6893(5) 0.9704(5)
H11_4 H 0.270318 0.657096 0.990688
H12_4 H 0.417648 0.651619 0.972699
H3_4 H 0.9558 0.5801 0.0136
C6_4 C 0.9968(7) 0.7066(4) 0.0136(5)
H4_4 H 0.9409 0.7188 0.9623
O13_3 O 0.1265(7) 0.9197(5) 0.2790(5)
H9_3 H 0.182681 0.959421 0.319178
H10_3 H 0.0810195 0.878956 0.309664
O13_4 O 0.8735(7) 0.0803(5) 0.7210(5)
H9_4 H 0.817319 0.0405785 0.680822
H10_4 H 0.918981 0.121044 0.690336
loop_
_geom_bond_atom_site_label_1
_geom_bond_atom_site_label_2
_geom_bond_site_symmetry_1
_geom_bond_site_symmetry_2
S2 C9 1_555 1_555
P2 C7 1_555 1_555
C7 C8 1_555 1_555
C8 H5 1_555 1_555
C9 C8 1_555 1_555
C10 C9 1_555 1_555
H6 C10 1_555 1_555
C11 C10 1_555 1_555
H7 C11 1_555 1_555
C12 C7 1_555 1_555
H8 C12 1_555 1_555
O8 P2 1_555 1_555
O9 P2 1_555 1_555
O10 S2 1_555 1_555
O11 S2 1_555 1_555
O12 S2 1_555 1_555
Pb6 O8 1_555 1_555
Pb8 O9 1_555 1_555
Pb9 O11 1_555 1_555
Pb11 O8 1_555 1_555
C11 C12 1_555 1_555
Pb1 O1 1_555 1_555
Pb2 O1 1_555 1_555
Pb3 O2 1_555 1_555
S1 C3 1_555 1_555
P1 C1 1_555 1_555
C1 C2 1_555 1_555
C2 H1 1_555 1_555
C3 C2 1_555 1_555
C4 C3 1_555 1_555
H2 C4 1_555 1_555
C5 C4 1_555 1_555
H3 C5 1_555 1_555
C6 C1 1_555 1_555
H4 C6 1_555 1_555
O1 P1 1_555 1_555
O2 P1 1_555 1_555
O3 P1 1_555 1_555
O4 S1 1_555 1_555
O5 S1 1_555 1_555
O6 S1 1_555 1_555
O7 Pb1 1_555 1_555
O13 Pb3 1_555 1_555
O14 Pb2 1_555 1_555
Pb6 O3 1_555 1_555
Pb5 O4 1_555 1_555
Pb11 O3 1_555 1_555
O15 Pb1 1_555 1_555
O16 Pb1 1_555 1_555
O17 Pb1 1_555 1_555
O18 Pb2 1_555 1_555
O19 Pb3 1_555 1_555
O21 Pb1 1_555 1_555
Pb2 O7 1_555 1_555
Pb3 O15 1_555 1_555
Pb3 O17 1_555 1_555
C5 C6 1_555 1_555
O13 H9 1_555 1_555
O13 H10 1_555 1_555
O14 H11 1_555 1_555
O14 H12 1_555 1_555
Pb3_2 O2_2 1_555 1_555
O14_2 H11_2 1_555 1_555
O14_2 H12_2 1_555 1_555
Pb9 O1_2 1_555 1_555
S1_2 C3_2 1_555 1_555
P1_2 C1_2 1_555 1_555
C1_2 C2_2 1_555 1_555
C2_2 H1_2 1_555 1_555
C3_2 C2_2 1_555 1_555
C4_2 C3_2 1_555 1_555
H2_2 C4_2 1_555 1_555
C5_2 C4_2 1_555 1_555
O1_2 P1_2 1_555 1_555
O16 S1_2 1_555 1_555
O5_2 S1_2 1_555 1_555
O6_2 S1_2 1_555 1_555
Pb9 O7_2 1_555 1_555
S2_2 C9_2 1_555 1_555
P2_2 C7_2 1_555 1_555
C7_2 C8_2 1_555 1_555
C8_2 H5_2 1_555 1_555
C9_2 C8_2 1_555 1_555
C10_2 C9_2 1_555 1_555
H6_2 C10_2 1_555 1_555
C11_2 C10_2 1_555 1_555
C12_2 C7_2 1_555 1_555
O9_2 P2_2 1_555 1_555
O10_2 S2_2 1_555 1_555
O20 S2_2 1_555 1_555
O12_2 S2_2 1_555 1_555
Pb6 O12_2 1_555 1_555
Pb11 O10_2 1_555 1_555
C11_2 C12_2 1_555 1_555
Pb6 O1_3 1_555 1_555
Pb8 O1_3 1_555 1_555
Pb11 O2_3 1_555 1_555
S1_3 C3_3 1_555 1_555
P1_3 C1_3 1_555 1_555
C1_3 C2_3 1_555 1_555
C2_3 H1_3 1_555 1_555
C3_3 C2_3 1_555 1_555
C4_3 C3_3 1_555 1_555
H2_3 C4_3 1_555 1_555
C5_3 C4_3 1_555 1_555
H3_3 C5_3 1_555 1_555
C6_3 C1_3 1_555 1_555
H4_3 C6_3 1_555 1_555
O1_3 P1_3 1_555 1_555
O2_3 P1_3 1_555 1_555
O15 P1_3 1_555 1_555
O4_2 S1_3 1_555 1_555
O5_3 S1_3 1_555 1_555
O6_3 S1_3 1_555 1_555
O7_3 Pb6 1_555 1_555
O13_2 Pb11 1_555 1_555
O14_3 Pb8 1_555 1_555
Pb7 O4_2 1_555 1_555
O16_2 Pb6 1_555 1_555
Pb8 O7_3 1_555 1_555
C5_3 C6_3 1_555 1_555
O13_2 H9_2 1_555 1_555
O13_2 H10_2 1_555 1_555
O14_3 H11_3 1_555 1_555
O14_3 H12_3 1_555 1_555
S2_3 C9_3 1_555 1_555
P2_3 C7_3 1_555 1_555
C7_3 C8_3 1_555 1_555
C8_3 H5_3 1_555 1_555
C9_3 C8_3 1_555 1_555
C10_3 C9_3 1_555 1_555
H6_3 C10_3 1_555 1_555
C11_3 C10_3 1_555 1_555
H7_3 C11_3 1_555 1_555
C12_3 C7_3 1_555 1_555
H8_3 C12_3 1_555 1_555
O17 P2_3 1_555 1_555
O18 P2_3 1_555 1_555
O19_2 S2_3 1_555 1_555
O11_2 S2_3 1_555 1_555
O21_2 S2_3 1_555 1_555
Pb8_2 O11_2 1_555 1_555
C11_3 C12_3 1_555 1_555
S2_4 C9_4 1_555 1_555
P2_4 C7_4 1_555 1_555
C7_4 C8_4 1_555 1_555
C8_4 H5_4 1_555 1_555
C9_4 C8_4 1_555 1_555
C10_4 C9_4 1_555 1_555
H6_4 C10_4 1_555 1_555
C11_4 C10_4 1_555 1_555
C12_4 C7_4 1_555 1_555
O18_2 P2_4 1_555 1_555
O19 S2_4 1_555 1_555
O20_2 S2_4 1_555 1_555
O21 S2_4 1_555 1_555
C11_4 C12_4 1_555 1_555
Pb8_2 O1_4 1_555 1_555
S1_4 C3_4 1_555 1_555
P1_4 C1_4 1_555 1_555
C1_4 C2_4 1_555 1_555
C2_4 H1_4 1_555 1_555
C3_4 C2_4 1_555 1_555
C4_4 C3_4 1_555 1_555
H2_4 C4_4 1_555 1_555
C5_4 C4_4 1_555 1_555
O1_4 P1_4 1_555 1_555
O16_2 S1_4 1_555 1_555
O5_4 S1_4 1_555 1_555
O6_4 S1_4 1_555 1_555
Pb8_2 O7_4 1_555 1_555
Pb12 O2_4 1_555 1_555
O14_4 H11_4 1_555 1_555
O14_4 H12_4 1_555 1_555
O13_3 H9_3 1_555 1_555
O13_3 H10_3 1_555 1_555
O13_4 H9_4 1_555 1_555
O13_4 H10_4 1_555 1_555

#END
