
###############################################################################
#
# This file contains modified crystal structure data generated from the
# MOF subset of the Cambridge Structural Database (CSD) v543 
# hosted by the Cambridge Crystallographic Data Centre (CCDC).
#
# This work is licensed under the Creative Commons
# Attribution-NonCommercial-ShareAlike 4.0 International License.
# To view a copy of this license, visit
# http://creativecommons.org/licenses/by-nc-sa/4.0/
# or send a letter to
# Creative Commons, PO Box 1866, Mountain View, CA 94042, USA.
#
# CIF created using the CSD Python API on 29 September 2022
# The structure has been converted into the P1 space group
# The structure has a 3D framework
# The original CSD entry TINFIH is in the monoclinic crystal system
# The framework has been calculated to contain at least 10.0% void space
# The void calculation uses a probe of radius 1.32A, grid spacing 0.4
# H atom positions have been added when not included in the experimental data
#
###############################################################################

data_TINFIH
_chemical_formula_moiety         '(C28 H24 N4 O46 U8)n'
_symmetry_cell_setting           triclinic
_symmetry_space_group_name_H-M   'P 1'
_symmetry_Int_Tables_number      1
_space_group_name_Hall           'P 1'
loop_
_symmetry_equiv_pos_site_id
_symmetry_equiv_pos_as_xyz
1 x,y,z
_cell_length_a                   10.327(3)
_cell_length_b                   12.129(3)
_cell_length_c                   15.073(4)
_cell_angle_alpha                90
_cell_angle_beta                 106.288(8)
_cell_angle_gamma                90
_cell_volume                     1812.21
loop_
_atom_site_label
_atom_site_type_symbol
_atom_site_fract_x
_atom_site_fract_y
_atom_site_fract_z
U5 U 0.16176(3) 0.07060(3) 0.57247(2)
O14 O 0.0706(6) 0.9454(6) 0.4530(5)
C1 C 0.5066(8) 0.1648(7) 0.4464(5)
C2 C 0.5759(8) 0.2196(7) 0.5271(6)
H1 H 0.6506 0.1873 0.5683
C3 C 0.5314(9) 0.3239(7) 0.5452(6)
C4 C 0.4147(9) 0.3668(7) 0.4807(6)
H2 H 0.3805 0.4353 0.4905
C5 C 0.3527(8) 0.3065(6) 0.4037(5)
C6 C 0.2307(8) 0.3454(6) 0.3303(6)
C7 C 0.5485(7) 0.0560(6) 0.4171(6)
N1 N 0.3951(7) 0.2067(5) 0.3851(4)
O1 O 0.1787(6) 0.0285(5) 0.3011(4)
O2 O 0.3764(7) 0.1788(5) 0.1819(4)
O3 O 0.4770(6) 0.0193(5) 0.3407(4)
O4 O 0.1787(7) 0.2803(5) 0.2664(4)
O5 O 0.1880(6) 0.4431(5) 0.3366(4)
O6 O 0.6486(6) 0.0067(5) 0.4684(4)
O7 O 0.8142(9) 0.0388(7) 0.3443(5)
O11 O 0.9294(6) 0.0546(6) 0.5470(5)
O12 O 0.5896(6) 0.3804(5) 0.6202(4)
U1 U 0.27649(3) 0.10399(2) 0.24086(2)
O15 O 0.0896(6) 0.1196(5) 0.1202(4)
U3 U 0.22351(3) 0.60399(2) 0.25914(2)
U4 U 0.77649(3) 0.39601(2) 0.74086(2)
O8 O 0.8583(7) 0.8214(6) 0.5090(5)
O9 O 0.6339(8) 0.8355(7) 0.3283(6)
O10 O 0.8963(8) 0.8085(9) 0.3119(7)
U2 U 0.83824(3) 0.92940(3) 0.42753(2)
O13 O 0.3120(6) 0.9431(5) 0.1634(4)
H3 H 0.572691 0.891121 0.28977
H4 H 0.661282 0.781292 0.287593
H5 H 0.859991 0.840834 0.249309
H6 H 0.995897 0.801834 0.32642
C4_2 C 0.0853(9) 0.8668(7) 0.0193(6)
H2_2 H 0.1195 0.9353 0.0095
C5_2 C 0.1473(8) 0.8065(6) 0.0963(5)
C6_2 C 0.2693(8) 0.8454(6) 0.1697(6)
N1_2 N 0.1049(7) 0.7067(5) 0.1149(4)
O1_2 O 0.3213(6) 0.5285(5) 0.1989(4)
O2_2 O 0.1236(7) 0.6788(5) 0.3181(4)
O3_2 O 0.0230(6) 0.5193(5) 0.1593(4)
O4_2 O 0.3213(7) 0.7803(5) 0.2336(4)
O15_2 O 0.4104(6) 0.6196(5) 0.3798(4)
C1_2 C 0.9934(8) 0.6648(7) 0.0536(5)
C7_2 C 0.9515(7) 0.5560(6) 0.0829(6)
O6_2 O 0.8514(6) 0.5067(5) 0.0316(4)
O7_2 O 0.6858(9) 0.5388(7) 0.1557(5)
O9_2 O 0.8661(8) 0.3355(7) 0.1717(6)
O10_2 O 0.6037(8) 0.3085(9) 0.1881(7)
U2_2 U 0.66176(3) 0.42940(3) 0.07247(2)
O14_2 O 0.4294(6) 0.4454(6) 0.0470(5)
H3_2 H 0.927309 0.391121 0.21023
H4_2 H 0.838718 0.281292 0.212407
H5_2 H 0.640009 0.340834 0.250691
H6_2 H 0.504103 0.301834 0.17358
C2_2 C 0.9241(8) 0.7196(7) 0.9729(6)
H1_2 H 0.8494 0.6873 0.9317
C3_2 C 0.9686(9) 0.8239(7) 0.9548(6)
O8_2 O 0.6417(7) 0.3214(6) 0.9910(5)
O11_2 O 0.5706(6) 0.5546(6) 0.9530(5)
O12_2 O 0.9104(6) 0.8804(5) 0.8798(4)
U4_2 U 0.72351(3) 0.89601(2) 0.75914(2)
U5_2 U 0.33824(3) 0.57060(3) 0.92753(2)
O8_3 O 0.1417(7) 0.1786(6) 0.4910(5)
O9_3 O 0.3661(8) 0.1645(7) 0.6717(6)
O10_3 O 0.1037(8) 0.1915(9) 0.6881(7)
O13_2 O 0.6880(6) 0.0569(5) 0.8366(4)
H3_3 H 0.427309 0.108879 0.71023
H4_3 H 0.338718 0.218708 0.712407
H5_3 H 0.140009 0.159166 0.750691
H6_3 H 0.00410344 0.198166 0.67358
C1_3 C 0.4934(8) 0.8352(7) 0.5536(5)
C2_3 C 0.4241(8) 0.7804(7) 0.4729(6)
H1_3 H 0.3494 0.8127 0.4317
C3_3 C 0.4686(9) 0.6761(7) 0.4548(6)
C4_3 C 0.5853(9) 0.6332(7) 0.5193(6)
H2_3 H 0.6195 0.5647 0.5095
C5_3 C 0.6473(8) 0.6935(6) 0.5963(5)
C6_3 C 0.7693(8) 0.6546(6) 0.6697(6)
C7_3 C 0.4515(7) 0.9440(6) 0.5829(6)
N1_3 N 0.6049(7) 0.7933(5) 0.6149(4)
O1_3 O 0.8213(6) 0.9715(5) 0.6989(4)
O2_3 O 0.6236(7) 0.8212(5) 0.8181(4)
O3_3 O 0.5230(6) 0.9807(5) 0.6593(4)
O4_3 O 0.8213(7) 0.7197(5) 0.7336(4)
O5_2 O 0.8120(6) 0.5569(5) 0.6634(4)
O6_3 O 0.3514(6) 0.9933(5) 0.5316(4)
O7_3 O 0.1858(9) 0.9612(7) 0.6557(5)
C2_4 C 0.0759(8) 0.2804(7) 0.0271(6)
H1_4 H 0.1506 0.3127 0.0683
C3_4 C 0.0314(9) 0.1761(7) 0.0452(6)
O8_4 O 0.3583(7) 0.6786(6) 0.0090(5)
C1_4 C 0.0066(8) 0.3352(7) 0.9464(5)
C7_4 C 0.0485(7) 0.4440(6) 0.9171(6)
O6_4 O 0.1486(6) 0.4933(5) 0.9684(4)
O7_4 O 0.3142(9) 0.4612(7) 0.8443(5)
O9_4 O 0.1339(8) 0.6645(7) 0.8283(6)
O10_4 O 0.3963(8) 0.6915(9) 0.8119(7)
H3_4 H 0.072691 0.608879 0.78977
H4_4 H 0.161282 0.718708 0.787593
H5_4 H 0.359991 0.659166 0.749309
H6_4 H 0.495897 0.698166 0.82642
C4_4 C 0.9147(9) 0.1332(7) 0.9807(6)
H2_4 H 0.8805 0.0647 0.9905
C5_4 C 0.8527(8) 0.1935(6) 0.9037(5)
C6_4 C 0.7307(8) 0.1546(6) 0.8303(6)
N1_4 N 0.8951(7) 0.2933(5) 0.8851(4)
O1_4 O 0.6787(6) 0.4715(5) 0.8011(4)
O2_4 O 0.8764(7) 0.3212(5) 0.6819(4)
O3_4 O 0.9770(6) 0.4807(5) 0.8407(4)
O4_4 O 0.6787(7) 0.2197(5) 0.7664(4)
loop_
_geom_bond_atom_site_label_1
_geom_bond_atom_site_label_2
_geom_bond_site_symmetry_1
_geom_bond_site_symmetry_2
C1 C2 1_555 1_555
C2 H1 1_555 1_555
C3 C2 1_555 1_555
C4 C3 1_555 1_555
H2 C4 1_555 1_555
C5 C4 1_555 1_555
C6 C5 1_555 1_555
C7 C1 1_555 1_555
N1 C1 1_555 1_555
O1 U1 1_555 1_555
O2 U1 1_555 1_555
O3 C7 1_555 1_555
O4 C6 1_555 1_555
O5 C6 1_555 1_555
O6 C7 1_555 1_555
O12 C3 1_555 1_555
U1 N1 1_555 1_555
O15 U1 1_555 1_555
U3 O5 1_555 1_555
U4 O12 1_555 1_555
C5 N1 1_555 1_555
O3 U1 1_555 1_555
O4 U1 1_555 1_555
O8 U2 1_555 1_555
O9 U2 1_555 1_555
O10 U2 1_555 1_555
O9 H3 1_555 1_555
O9 H4 1_555 1_555
O10 H5 1_555 1_555
O10 H6 1_555 1_555
H2_2 C4_2 1_555 1_555
C5_2 C4_2 1_555 1_555
C6_2 C5_2 1_555 1_555
O1_2 U3 1_555 1_555
O2_2 U3 1_555 1_555
O4_2 C6_2 1_555 1_555
O13 C6_2 1_555 1_555
U3 N1_2 1_555 1_555
O15_2 U3 1_555 1_555
C5_2 N1_2 1_555 1_555
O3_2 U3 1_555 1_555
O4_2 U3 1_555 1_555
C7_2 C1_2 1_555 1_555
O6_2 C7_2 1_555 1_555
O7_2 U2_2 1_555 1_555
O9_2 U2_2 1_555 1_555
O10_2 U2_2 1_555 1_555
U2_2 O6_2 1_555 1_555
O14_2 U2_2 1_555 1_555
O9_2 H3_2 1_555 1_555
O9_2 H4_2 1_555 1_555
O10_2 H5_2 1_555 1_555
O10_2 H6_2 1_555 1_555
C2_2 H1_2 1_555 1_555
C3_2 C2_2 1_555 1_555
O12_2 C3_2 1_555 1_555
U4_2 O12_2 1_555 1_555
U5_2 O11_2 1_555 1_555
O8_3 U5 1_555 1_555
O9_3 U5 1_555 1_555
O10_3 U5 1_555 1_555
O9_3 H3_3 1_555 1_555
O9_3 H4_3 1_555 1_555
O10_3 H5_3 1_555 1_555
O10_3 H6_3 1_555 1_555
C1_3 C2_3 1_555 1_555
C2_3 H1_3 1_555 1_555
C3_3 C2_3 1_555 1_555
C4_3 C3_3 1_555 1_555
H2_3 C4_3 1_555 1_555
C5_3 C4_3 1_555 1_555
C6_3 C5_3 1_555 1_555
C7_3 C1_3 1_555 1_555
N1_3 C1_3 1_555 1_555
O1_3 U4_2 1_555 1_555
O2_3 U4_2 1_555 1_555
O3_3 C7_3 1_555 1_555
O4_3 C6_3 1_555 1_555
O5_2 C6_3 1_555 1_555
O6_3 C7_3 1_555 1_555
O15_2 C3_3 1_555 1_555
U4_2 N1_3 1_555 1_555
U4 O5_2 1_555 1_555
C5_3 N1_3 1_555 1_555
O3_3 U4_2 1_555 1_555
O4_3 U4_2 1_555 1_555
C2_4 H1_4 1_555 1_555
C3_4 C2_4 1_555 1_555
O15 C3_4 1_555 1_555
C7_4 C1_4 1_555 1_555
O6_4 C7_4 1_555 1_555
O7_4 U5_2 1_555 1_555
O9_4 U5_2 1_555 1_555
O10_4 U5_2 1_555 1_555
U5_2 O6_4 1_555 1_555
O9_4 H3_4 1_555 1_555
O9_4 H4_4 1_555 1_555
O10_4 H5_4 1_555 1_555
O10_4 H6_4 1_555 1_555
H2_4 C4_4 1_555 1_555
C5_4 C4_4 1_555 1_555
C6_4 C5_4 1_555 1_555
O1_4 U4 1_555 1_555
O2_4 U4 1_555 1_555
O4_4 C6_4 1_555 1_555
O13_2 C6_4 1_555 1_555
U4 N1_4 1_555 1_555
C5_4 N1_4 1_555 1_555
O3_4 U4 1_555 1_555
O4_4 U4 1_555 1_555

#END
