
###############################################################################
#
# This file contains modified crystal structure data generated from the
# MOF subset of the Cambridge Structural Database (CSD) v543 
# hosted by the Cambridge Crystallographic Data Centre (CCDC).
#
# This work is licensed under the Creative Commons
# Attribution-NonCommercial-ShareAlike 4.0 International License.
# To view a copy of this license, visit
# http://creativecommons.org/licenses/by-nc-sa/4.0/
# or send a letter to
# Creative Commons, PO Box 1866, Mountain View, CA 94042, USA.
#
# CIF created using the CSD Python API on 29 September 2022
# The structure has been converted into the P1 space group
# The structure has a 3D framework
# The original CSD entry TINFED is in the orthorhombic crystal system
# The framework has been calculated to contain at least 10.0% void space
# The void calculation uses a probe of radius 1.32A, grid spacing 0.4
# The framework is charged, counterions have been retained in the structure
#
###############################################################################

data_TINFED
_chemical_formula_moiety         '(C228 H64 N32 O222 U32)n'
_symmetry_cell_setting           triclinic
_symmetry_space_group_name_H-M   'P 1'
_symmetry_Int_Tables_number      1
_space_group_name_Hall           'P 1'
loop_
_symmetry_equiv_pos_site_id
_symmetry_equiv_pos_as_xyz
1 x,y,z
_cell_length_a                   28.995(3)
_cell_length_b                   32.585(4)
_cell_length_c                   9.3986(11)
_cell_angle_alpha                90
_cell_angle_beta                 90
_cell_angle_gamma                90
_cell_volume                     8879.82
loop_
_atom_site_label
_atom_site_type_symbol
_atom_site_fract_x
_atom_site_fract_y
_atom_site_fract_z
C1 C 0.0108(4) 0.3223(4) 0.7245(15)
C2 C 0.0299(5) 0.3387(4) 0.8451(18)
H1 H 0.0448 0.3226 0.9126
C3 C 0.0253(6) 0.3828(4) 0.8610(19)
C4 C 0.0000(5) 0.4041(4) 0.7593(18)
C7 C 0.0148(5) 0.2771(4) 0.6932(13)
O2 O 0.0183(3) 0.3224(3) 0.3308(11)
O7 O 0.0331(3) 0.2547(3) 0.7873(10)
O8 O 0.0456(5) 0.4023(4) 0.9688(17)
U3 U 0.035876(14) 0.191206(12) 0.89831(6)
U4 U 0.785876(14) 0.558794(12) 0.14831(6)
C4_2 C 1.0000(5) 0.4041(4) 0.7593(18)
H2 H 0.9959 0.4323 0.7676
C5 C 0.9814(4) 0.3831(3) 0.6466(18)
C6 C 0.9537(5) 0.4026(4) 0.5306(18)
C8 C 0.8596(4) 0.5900(3) 0.7155(14)
C9 C 0.8508(4) 0.6314(4) 0.7020(15)
H3 H 0.8332 0.6452 0.7694
C10 C 0.8690(5) 0.6521(3) 0.5850(16)
C11 C 0.8954(4) 0.6302(4) 0.4895(16)
H4 H 0.9087 0.6433 0.4117
C12 C 0.9021(4) 0.5885(4) 0.5104(16)
C13 C 0.9316(5) 0.5625(4) 0.415(2)
C14 C 0.8435(5) 0.5638(4) 0.8395(15)
N1 N 0.9872(4) 0.3426(3) 0.6263(12)
N2 N 0.8846(4) 0.5684(3) 0.6233(11)
O1 O 0.9091(4) 0.2958(3) 0.4665(11)
O3 O 0.8192(4) 0.5798(3) 0.9320(10)
O4 O 0.9433(3) 0.3797(3) 0.4258(12)
O5 O 0.9419(4) 0.4403(3) 0.5464(15)
O6 O 0.9990(4) 0.2647(3) 0.5750(10)
O9 O 0.9499(4) 0.5075(3) 0.7571(14)
O10 O 0.8518(4) 0.4815(3) 0.5611(15)
O11 O 0.9343(4) 0.5247(3) 0.4527(12)
O12 O 0.9511(6) 0.5783(4) 0.3087(18)
O13 O 0.8596(4) 0.6915(3) 0.5714(13)
O14 O 0.8566(4) 0.5269(3) 0.8383(11)
U1 U 0.964124(14) 0.308794(12) 0.39831(6)
U2 U 0.901554(15) 0.494101(11) 0.65841(6)
O15 O 0.9308(4) 0.3298(3) 0.1820(10)
O16 O 0.9669(3) 0.2453(3) 0.2873(10)
O17 O 0.8904(4) 0.4415(3) 0.8214(13)
U5 U 0.848446(15) 0.744101(11) 0.40841(6)
U4_2 U 0.214124(14) 0.441206(12) 0.14831(6)
C4_3 C 0.0000(5) 0.5959(4) 0.7593(18)
H2_2 H 0.0041 0.5677 0.7676
C5_2 C 0.0186(4) 0.6169(3) 0.6466(18)
C6_2 C 0.0463(5) 0.5974(4) 0.5306(18)
C8_2 C 0.1404(4) 0.4100(3) 0.7155(14)
C9_2 C 0.1492(4) 0.3686(4) 0.7020(15)
H3_2 H 0.1668 0.3548 0.7694
C10_2 C 0.1310(5) 0.3479(3) 0.5850(16)
C11_2 C 0.1046(4) 0.3698(4) 0.4895(16)
H4_2 H 0.0913 0.3567 0.4117
C12_2 C 0.0979(4) 0.4115(4) 0.5104(16)
C13_2 C 0.0684(5) 0.4375(4) 0.415(2)
C14_2 C 0.1565(5) 0.4362(4) 0.8395(15)
N1_2 N 0.0128(4) 0.6574(3) 0.6263(12)
N2_2 N 0.1154(4) 0.4316(3) 0.6233(11)
O1_2 O 0.0909(4) 0.7042(3) 0.4665(11)
O3_2 O 0.1808(4) 0.4202(3) 0.9320(10)
O4_2 O 0.0567(3) 0.6203(3) 0.4258(12)
O5_2 O 0.0581(4) 0.5597(3) 0.5464(15)
O6_2 O 0.0010(4) 0.7353(3) 0.5750(10)
O9_2 O 0.0501(4) 0.4925(3) 0.7571(14)
O10_2 O 0.1482(4) 0.5185(3) 0.5611(15)
O11_2 O 0.0657(4) 0.4753(3) 0.4527(12)
O12_2 O 0.0489(6) 0.4217(4) 0.3087(18)
O13_2 O 0.1404(4) 0.3085(3) 0.5714(13)
O14_2 O 0.1434(4) 0.4731(3) 0.8383(11)
U1_2 U 0.035876(14) 0.691206(12) 0.39831(6)
U2_2 U 0.098446(15) 0.505899(11) 0.65841(6)
O15_2 O 0.0692(4) 0.6702(3) 0.1820(10)
O16_2 O 0.0331(3) 0.7547(3) 0.2873(10)
O17_2 O 0.1096(4) 0.5585(3) 0.8214(13)
U5_2 U 0.151554(15) 0.255899(11) 0.40841(6)
C1_2 C 0.9892(4) 0.6777(4) 0.7245(15)
C2_2 C 0.9701(5) 0.6613(4) 0.8451(18)
H1_2 H 0.9552 0.6774 0.9126
C3_2 C 0.9747(6) 0.6172(4) 0.8610(19)
C4_4 C 1.0000(5) 0.5959(4) 0.7593(18)
C7_2 C 0.9852(5) 0.7229(4) 0.6932(13)
O2_2 O 0.9817(3) 0.6776(3) 0.3308(11)
O7_2 O 0.9669(3) 0.7453(3) 0.7873(10)
O8_2 O 0.9544(5) 0.5977(4) 0.9688(17)
U3_2 U 0.964124(14) 0.808794(12) 0.89831(6)
C2_3 C 0.2201(5) 0.5887(4) 0.0951(18)
H1_3 H 0.2052 0.5726 0.1626
C3_3 C 0.2247(6) 0.6328(4) 0.1110(19)
C4_5 C 0.2500(5) 0.6541(4) 0.0093(18)
H2_3 H 0.2541 0.6823 0.0176
H3_3 H 0.4168 0.8952 0.0194
C14_3 C 0.4065(5) 0.8138(4) 0.0895(15)
O3_3 O 0.4308(4) 0.8298(3) 0.1820(10)
O7_3 O 0.2169(3) 0.5047(3) 0.0373(10)
O8_3 O 0.2044(5) 0.6523(4) 0.2188(17)
O9_3 O 0.3001(4) 0.7575(3) 0.0071(14)
O14_3 O 0.3934(4) 0.7769(3) 0.0883(11)
O17_3 O 0.3596(4) 0.6915(3) 0.0714(13)
U4_3 U 0.464124(14) 0.808794(12) 0.39831(6)
C1_3 C 0.2392(4) 0.5723(4) 0.9745(15)
C5_3 C 0.2686(4) 0.6331(3) 0.8966(18)
C6_3 C 0.2963(5) 0.6526(4) 0.7806(18)
C7_3 C 0.2352(5) 0.5271(4) 0.9432(13)
C8_3 C 0.3904(4) 0.8400(3) 0.9655(14)
C9_3 C 0.3992(4) 0.8814(4) 0.9520(15)
C10_3 C 0.3810(5) 0.9021(3) 0.8350(16)
C11_3 C 0.3546(4) 0.8802(4) 0.7395(16)
H4_3 H 0.3413 0.8933 0.6617
C12_3 C 0.3479(4) 0.8385(4) 0.7604(16)
C13_3 C 0.3184(5) 0.8125(4) 0.665(2)
N1_3 N 0.2628(4) 0.5926(3) 0.8763(12)
N2_3 N 0.3654(4) 0.8184(3) 0.8733(11)
O1_3 O 0.3409(4) 0.5458(3) 0.7165(11)
O2_3 O 0.2317(3) 0.5724(3) 0.5808(11)
O4_3 O 0.3067(3) 0.6297(3) 0.6758(12)
O5_3 O 0.3081(4) 0.6903(3) 0.7964(15)
O6_3 O 0.2510(4) 0.5147(3) 0.8250(10)
O10_3 O 0.3982(4) 0.7315(3) 0.8111(15)
O11_3 O 0.3157(4) 0.7747(3) 0.7027(12)
O12_3 O 0.2989(6) 0.8283(4) 0.5587(18)
O13_3 O 0.3904(4) 0.9415(3) 0.8214(13)
U1_3 U 0.285876(14) 0.558794(12) 0.64831(6)
U2_3 U 0.348446(15) 0.744101(11) 0.90841(6)
O15_3 O 0.3192(4) 0.5798(3) 0.4320(10)
O16_3 O 0.2831(3) 0.4953(3) 0.5373(10)
U5_3 U 0.401554(15) 0.994101(11) 0.65841(6)
U3_3 U 0.285876(14) 0.058794(12) 0.14831(6)
O16_4 O 0.2169(3) 0.0047(3) 0.5373(10)
C2_4 C 0.2799(5) 0.9113(4) 0.0951(18)
H1_4 H 0.2948 0.9274 0.1626
C3_4 C 0.2753(6) 0.8672(4) 0.1110(19)
C4_6 C 0.2500(5) 0.8459(4) 0.0093(18)
H2_4 H 0.2459 0.8177 0.0176
H3_4 H 0.0832 0.6048 0.0194
C14_4 C 0.0935(5) 0.6862(4) 0.0895(15)
O7_4 O 0.2831(3) 0.9953(3) 0.0373(10)
O8_4 O 0.2956(5) 0.8477(4) 0.2188(17)
O9_4 O 0.1999(4) 0.7425(3) 0.0071(14)
O14_4 O 0.1066(4) 0.7231(3) 0.0883(11)
O17_4 O 0.1404(4) 0.8085(3) 0.0714(13)
C1_4 C 0.2608(4) 0.9277(4) 0.9745(15)
C5_4 C 0.2314(4) 0.8669(3) 0.8966(18)
C6_4 C 0.2037(5) 0.8474(4) 0.7806(18)
C7_4 C 0.2648(5) 0.9729(4) 0.9432(13)
C8_4 C 0.1096(4) 0.6600(3) 0.9655(14)
C9_4 C 0.1008(4) 0.6186(4) 0.9520(15)
C10_4 C 0.1190(5) 0.5979(3) 0.8350(16)
C11_4 C 0.1454(4) 0.6198(4) 0.7395(16)
H4_4 H 0.1587 0.6067 0.6617
C12_4 C 0.1521(4) 0.6615(4) 0.7604(16)
C13_4 C 0.1816(5) 0.6875(4) 0.665(2)
N1_4 N 0.2372(4) 0.9074(3) 0.8763(12)
N2_4 N 0.1346(4) 0.6816(3) 0.8733(11)
O1_4 O 0.1591(4) 0.9542(3) 0.7165(11)
O2_4 O 0.2683(3) 0.9276(3) 0.5808(11)
O4_4 O 0.1933(3) 0.8703(3) 0.6758(12)
O5_4 O 0.1919(4) 0.8097(3) 0.7964(15)
O6_4 O 0.2490(4) 0.9853(3) 0.8250(10)
O10_4 O 0.1018(4) 0.7685(3) 0.8111(15)
O11_4 O 0.1843(4) 0.7253(3) 0.7027(12)
O12_4 O 0.2011(6) 0.6717(4) 0.5587(18)
U1_4 U 0.214124(14) 0.941206(12) 0.64831(6)
U2_4 U 0.151554(15) 0.755899(11) 0.90841(6)
O15_4 O 0.1808(4) 0.9202(3) 0.4320(10)
C1_5 C 0.0108(4) 0.8223(4) 0.2245(15)
C2_5 C 0.0299(5) 0.8387(4) 0.3451(18)
H1_5 H 0.0448 0.8226 0.4126
C3_5 C 0.0253(6) 0.8828(4) 0.3610(19)
C4_7 C 0.0000(5) 0.9041(4) 0.2593(18)
C7_5 C 0.0148(5) 0.7771(4) 0.1932(13)
O8_5 O 0.0456(5) 0.9023(4) 0.4688(17)
C8_5 C 0.8596(4) 0.0900(3) 0.2155(14)
C9_5 C 0.8508(4) 0.1314(4) 0.2020(15)
H3_5 H 0.8332 0.1452 0.2694
C10_5 C 0.8690(5) 0.1521(3) 0.0850(16)
C12_5 C 0.9021(4) 0.0885(4) 0.0104(16)
C14_5 C 0.8435(5) 0.0638(4) 0.3395(15)
N2_5 N 0.8846(4) 0.0684(3) 0.1233(11)
O3_4 O 0.8192(4) 0.0798(3) 0.4320(10)
O9_5 O 0.9499(4) 0.0075(3) 0.2571(14)
O13_4 O 0.8596(4) 0.1915(3) 0.0714(13)
O14_5 O 0.8566(4) 0.0269(3) 0.3383(11)
U4_4 U 0.785876(14) 0.058794(12) 0.64831(6)
C11_5 C 0.8954(4) 0.1302(4) 0.9895(16)
H4_5 H 0.9087 0.1433 0.9117
C13_5 C 0.9316(5) 0.0625(4) 0.915(2)
O11_5 O 0.9343(4) 0.0247(3) 0.9527(12)
O12_5 O 0.9511(6) 0.0783(4) 0.8087(18)
U5_4 U 0.848446(15) 0.244101(11) 0.90841(6)
C4_8 C 1.0000(5) 0.9041(4) 0.2593(18)
H2_5 H 0.9959 0.9323 0.2676
C5_5 C 0.9814(4) 0.8831(3) 0.1466(18)
C6_5 C 0.9537(5) 0.9026(4) 0.0306(18)
N1_5 N 0.9872(4) 0.8426(3) 0.1263(12)
O5_5 O 0.9419(4) 0.9403(3) 0.0464(15)
O6_5 O 0.9990(4) 0.7647(3) 0.0750(10)
O10_5 O 0.8518(4) 0.9815(3) 0.0611(15)
U2_5 U 0.901554(15) 0.994101(11) 0.15841(6)
O17_5 O 0.8904(4) 0.9415(3) 0.3214(13)
O1_5 O 0.9091(4) 0.7958(3) 0.9665(11)
O4_5 O 0.9433(3) 0.8797(3) 0.9258(12)
O15_5 O 0.9308(4) 0.8298(3) 0.6820(10)
C4_9 C -0.0000(5) 0.0959(4) 0.2593(18)
H2_6 H 0.0041 0.0677 0.2676
C5_6 C 0.0186(4) 0.1169(3) 0.1466(18)
C6_6 C 0.0463(5) 0.0974(4) 0.0306(18)
N1_6 N 0.0128(4) 0.1574(3) 0.1263(12)
O5_6 O 0.0581(4) 0.0597(3) 0.0464(15)
O6_6 O 0.0010(4) 0.2353(3) 0.0750(10)
O10_6 O 0.1482(4) 0.0185(3) 0.0611(15)
U2_6 U 0.098446(15) 0.005899(11) 0.15841(6)
O17_6 O 0.1096(4) 0.0585(3) 0.3214(13)
O1_6 O 0.0909(4) 0.2042(3) 0.9665(11)
O4_6 O 0.0567(3) 0.1203(3) 0.9258(12)
O15_6 O 0.0692(4) 0.1702(3) 0.6820(10)
C8_6 C 0.1404(4) 0.9100(3) 0.2155(14)
C9_6 C 0.1492(4) 0.8686(4) 0.2020(15)
H3_6 H 0.1668 0.8548 0.2694
C10_6 C 0.1310(5) 0.8479(3) 0.0850(16)
C12_6 C 0.0979(4) 0.9115(4) 0.0104(16)
C14_6 C 0.1565(5) 0.9362(4) 0.3395(15)
N2_6 N 0.1154(4) 0.9316(3) 0.1233(11)
O9_6 O 0.0501(4) 0.9925(3) 0.2571(14)
O14_6 O 0.1434(4) 0.9731(3) 0.3383(11)
C11_6 C 0.1046(4) 0.8698(4) 0.9895(16)
H4_6 H 0.0913 0.8567 0.9117
C13_6 C 0.0684(5) 0.9375(4) 0.915(2)
O11_6 O 0.0657(4) 0.9753(3) 0.9527(12)
O12_6 O 0.0489(6) 0.9217(4) 0.8087(18)
C1_6 C 0.9892(4) 0.1777(4) 0.2245(15)
C2_6 C 0.9701(5) 0.1613(4) 0.3451(18)
H1_6 H 0.9552 0.1774 0.4126
C3_6 C 0.9747(6) 0.1172(4) 0.3610(19)
C4_10 C 1.0000(5) 0.0959(4) 0.2593(18)
C7_6 C 0.9852(5) 0.2229(4) 0.1932(13)
O8_6 O 0.9544(5) 0.0977(4) 0.4688(17)
C1_7 C 0.2392(4) 0.0723(4) 0.4745(15)
C2_7 C 0.2201(5) 0.0887(4) 0.5951(18)
H1_7 H 0.2052 0.0726 0.6626
C3_7 C 0.2247(6) 0.1328(4) 0.6110(19)
C4_11 C 0.2500(5) 0.1541(4) 0.5093(18)
H2_7 H 0.2541 0.1823 0.5176
C5_7 C 0.2686(4) 0.1331(3) 0.3966(18)
C6_7 C 0.2963(5) 0.1526(4) 0.2806(18)
C7_7 C 0.2352(5) 0.0271(4) 0.4432(13)
C8_7 C 0.3904(4) 0.3400(3) 0.4655(14)
C9_7 C 0.3992(4) 0.3814(4) 0.4520(15)
H3_7 H 0.4168 0.3952 0.5194
C10_7 C 0.3810(5) 0.4021(3) 0.3350(16)
C11_7 C 0.3546(4) 0.3802(4) 0.2395(16)
H4_7 H 0.3413 0.3933 0.1617
C12_7 C 0.3479(4) 0.3385(4) 0.2604(16)
C13_7 C 0.3184(5) 0.3125(4) 0.165(2)
C14_7 C 0.4065(5) 0.3138(4) 0.5895(15)
N1_7 N 0.2628(4) 0.0926(3) 0.3763(12)
N2_7 N 0.3654(4) 0.3184(3) 0.3733(11)
O1_7 O 0.3409(4) 0.0458(3) 0.2165(11)
O2_5 O 0.2317(3) 0.0724(3) 0.0808(11)
O3_5 O 0.4308(4) 0.3298(3) 0.6820(10)
O4_7 O 0.3067(3) 0.1297(3) 0.1758(12)
O5_7 O 0.3081(4) 0.1903(3) 0.2964(15)
O6_7 O 0.2510(4) 0.0147(3) 0.3250(10)
O8_7 O 0.2044(5) 0.1523(4) 0.7188(17)
O9_7 O 0.3001(4) 0.2575(3) 0.5071(14)
O10_7 O 0.3982(4) 0.2315(3) 0.3111(15)
O11_7 O 0.3157(4) 0.2747(3) 0.2027(12)
O12_7 O 0.2989(6) 0.3283(4) 0.0587(18)
O13_5 O 0.3904(4) 0.4415(3) 0.3214(13)
O14_7 O 0.3934(4) 0.2769(3) 0.5883(11)
U2_7 U 0.348446(15) 0.244101(11) 0.40841(6)
O17_7 O 0.3596(4) 0.1915(3) 0.5714(13)
U4_5 U 0.464124(14) 0.308794(12) 0.89831(6)
U5_5 U 0.401554(15) 0.494101(11) 0.15841(6)
O15_7 O 0.3192(4) 0.0798(3) 0.9320(10)
C1_8 C 0.2608(4) 0.4277(4) 0.4745(15)
C2_8 C 0.2799(5) 0.4113(4) 0.5951(18)
H1_8 H 0.2948 0.4274 0.6626
C3_8 C 0.2753(6) 0.3672(4) 0.6110(19)
C4_12 C 0.2500(5) 0.3459(4) 0.5093(18)
H2_8 H 0.2459 0.3177 0.5176
C5_8 C 0.2314(4) 0.3669(3) 0.3966(18)
C6_8 C 0.2037(5) 0.3474(4) 0.2806(18)
C7_8 C 0.2648(5) 0.4729(4) 0.4432(13)
C8_8 C 0.1096(4) 0.1600(3) 0.4655(14)
C9_8 C 0.1008(4) 0.1186(4) 0.4520(15)
H3_8 H 0.0832 0.1048 0.5194
C10_8 C 0.1190(5) 0.0979(3) 0.3350(16)
C11_8 C 0.1454(4) 0.1198(4) 0.2395(16)
H4_8 H 0.1587 0.1067 0.1617
C12_8 C 0.1521(4) 0.1615(4) 0.2604(16)
C13_8 C 0.1816(5) 0.1875(4) 0.165(2)
C14_8 C 0.0935(5) 0.1862(4) 0.5895(15)
N1_8 N 0.2372(4) 0.4074(3) 0.3763(12)
N2_8 N 0.1346(4) 0.1816(3) 0.3733(11)
O1_8 O 0.1591(4) 0.4542(3) 0.2165(11)
O2_6 O 0.2683(3) 0.4276(3) 0.0808(11)
O4_8 O 0.1933(3) 0.3703(3) 0.1758(12)
O5_8 O 0.1919(4) 0.3097(3) 0.2964(15)
O6_8 O 0.2490(4) 0.4853(3) 0.3250(10)
O8_8 O 0.2956(5) 0.3477(4) 0.7188(17)
O9_8 O 0.1999(4) 0.2425(3) 0.5071(14)
O10_8 O 0.1018(4) 0.2685(3) 0.3111(15)
O11_8 O 0.1843(4) 0.2253(3) 0.2027(12)
O12_8 O 0.2011(6) 0.1717(4) 0.0587(18)
O14_8 O 0.1066(4) 0.2231(3) 0.5883(11)
C1_9 C 0.5108(4) 0.3223(4) 0.2245(15)
C2_9 C 0.5299(5) 0.3387(4) 0.3451(18)
H1_9 H 0.5448 0.3226 0.4126
C3_9 C 0.5253(6) 0.3828(4) 0.3610(19)
C4_13 C 0.5000(5) 0.4041(4) 0.2593(18)
H2_9 H 0.4959 0.4323 0.2676
C5_9 C 0.4814(4) 0.3831(3) 0.1466(18)
C6_9 C 0.4537(5) 0.4026(4) 0.0306(18)
C7_9 C 0.5148(5) 0.2771(4) 0.1932(13)
C8_9 C 0.3596(4) 0.5900(3) 0.2155(14)
C9_9 C 0.3508(4) 0.6314(4) 0.2020(15)
H3_9 H 0.3332 0.6452 0.2694
C10_9 C 0.3690(5) 0.6521(3) 0.0850(16)
C12_9 C 0.4021(4) 0.5885(4) 0.0104(16)
C14_9 C 0.3435(5) 0.5638(4) 0.3395(15)
N1_9 N 0.4872(4) 0.3426(3) 0.1263(12)
N2_9 N 0.3846(4) 0.5684(3) 0.1233(11)
O5_9 O 0.4419(4) 0.4403(3) 0.0464(15)
O6_9 O 0.4990(4) 0.2647(3) 0.0750(10)
O7_5 O 0.5331(3) 0.2547(3) 0.2873(10)
O8_9 O 0.5456(5) 0.4023(4) 0.4688(17)
O9_9 O 0.4499(4) 0.5075(3) 0.2571(14)
O10_9 O 0.3518(4) 0.4815(3) 0.0611(15)
O14_9 O 0.3566(4) 0.5269(3) 0.3383(11)
U3_4 U 0.535876(14) 0.191206(12) 0.39831(6)
C11_9 C 0.3954(4) 0.6302(4) 0.9895(16)
H4_9 H 0.4087 0.6433 0.9117
C13_9 C 0.4316(5) 0.5625(4) 0.915(2)
O1_9 O 0.4091(4) 0.2958(3) 0.9665(11)
O2_7 O 0.5183(3) 0.3224(3) 0.8308(11)
O4_9 O 0.4433(3) 0.3797(3) 0.9258(12)
O11_9 O 0.4343(4) 0.5247(3) 0.9527(12)
O12_9 O 0.4511(6) 0.5783(4) 0.8087(18)
O16_5 O 0.4669(3) 0.2453(3) 0.7873(10)
C1_10 C 0.4892(4) 0.6777(4) 0.2245(15)
C2_10 C 0.4701(5) 0.6613(4) 0.3451(18)
H1_10 H 0.4552 0.6774 0.4126
C3_10 C 0.4747(6) 0.6172(4) 0.3610(19)
C4_14 C 0.5000(5) 0.5959(4) 0.2593(18)
H2_10 H 0.5041 0.5677 0.2676
C5_10 C 0.5186(4) 0.6169(3) 0.1466(18)
C6_10 C 0.5463(5) 0.5974(4) 0.0306(18)
C7_10 C 0.4852(5) 0.7229(4) 0.1932(13)
C8_10 C 0.6404(4) 0.4100(3) 0.2155(14)
C9_10 C 0.6492(4) 0.3686(4) 0.2020(15)
H3_10 H 0.6668 0.3548 0.2694
C10_10 C 0.6310(5) 0.3479(3) 0.0850(16)
C12_10 C 0.5979(4) 0.4115(4) 0.0104(16)
C14_10 C 0.6565(5) 0.4362(4) 0.3395(15)
N1_10 N 0.5128(4) 0.6574(3) 0.1263(12)
N2_10 N 0.6154(4) 0.4316(3) 0.1233(11)
O3_6 O 0.6808(4) 0.4202(3) 0.4320(10)
O5_10 O 0.5581(4) 0.5597(3) 0.0464(15)
O6_10 O 0.5010(4) 0.7353(3) 0.0750(10)
O7_6 O 0.4669(3) 0.7453(3) 0.2873(10)
O8_10 O 0.4544(5) 0.5977(4) 0.4688(17)
O9_10 O 0.5501(4) 0.4925(3) 0.2571(14)
O10_10 O 0.6482(4) 0.5185(3) 0.0611(15)
O13_6 O 0.6404(4) 0.3085(3) 0.0714(13)
O14_10 O 0.6434(4) 0.4731(3) 0.3383(11)
U2_8 U 0.598446(15) 0.505899(11) 0.15841(6)
O17_8 O 0.6096(4) 0.5585(3) 0.3214(13)
U4_6 U 0.714124(14) 0.441206(12) 0.64831(6)
C11_10 C 0.6046(4) 0.3698(4) 0.9895(16)
H4_10 H 0.5913 0.3567 0.9117
C13_10 C 0.5684(5) 0.4375(4) 0.915(2)
O1_10 O 0.5909(4) 0.7042(3) 0.9665(11)
O2_8 O 0.4817(3) 0.6776(3) 0.8308(11)
O4_10 O 0.5567(3) 0.6203(3) 0.9258(12)
O11_10 O 0.5657(4) 0.4753(3) 0.9527(12)
O12_10 O 0.5489(6) 0.4217(4) 0.8087(18)
U1_5 U 0.535876(14) 0.691206(12) 0.89831(6)
O15_8 O 0.5692(4) 0.6702(3) 0.6820(10)
O16_6 O 0.5331(3) 0.7547(3) 0.7873(10)
U5_6 U 0.651554(15) 0.255899(11) 0.90841(6)
C1_11 C 0.7392(4) 0.5723(4) 0.4745(15)
C2_11 C 0.7201(5) 0.5887(4) 0.5951(18)
H1_11 H 0.7052 0.5726 0.6626
C3_11 C 0.7247(6) 0.6328(4) 0.6110(19)
C4_15 C 0.7500(5) 0.6541(4) 0.5093(18)
H2_11 H 0.7541 0.6823 0.5176
C5_11 C 0.7686(4) 0.6331(3) 0.3966(18)
C6_11 C 0.7963(5) 0.6526(4) 0.2806(18)
C7_11 C 0.7352(5) 0.5271(4) 0.4432(13)
C8_11 C 0.8904(4) 0.8400(3) 0.4655(14)
C9_11 C 0.8992(4) 0.8814(4) 0.4520(15)
H3_11 H 0.9168 0.8952 0.5194
C10_11 C 0.8810(5) 0.9021(3) 0.3350(16)
C11_11 C 0.8546(4) 0.8802(4) 0.2395(16)
H4_11 H 0.8413 0.8933 0.1617
C12_11 C 0.8479(4) 0.8385(4) 0.2604(16)
C13_11 C 0.8184(5) 0.8125(4) 0.165(2)
C14_11 C 0.9065(5) 0.8138(4) 0.5895(15)
N1_11 N 0.7628(4) 0.5926(3) 0.3763(12)
N2_11 N 0.8654(4) 0.8184(3) 0.3733(11)
O1_11 O 0.8409(4) 0.5458(3) 0.2165(11)
O2_9 O 0.7317(3) 0.5724(3) 0.0808(11)
O4_11 O 0.8067(3) 0.6297(3) 0.1758(12)
O5_11 O 0.8081(4) 0.6903(3) 0.2964(15)
O6_11 O 0.7510(4) 0.5147(3) 0.3250(10)
O7_7 O 0.7169(3) 0.5047(3) 0.5373(10)
O8_11 O 0.7044(5) 0.6523(4) 0.7188(17)
O9_11 O 0.8001(4) 0.7575(3) 0.5071(14)
O10_11 O 0.8982(4) 0.7315(3) 0.3111(15)
O11_11 O 0.8157(4) 0.7747(3) 0.2027(12)
O12_11 O 0.7989(6) 0.8283(4) 0.0587(18)
O14_11 O 0.8934(4) 0.7769(3) 0.5883(11)
O16_7 O 0.7831(3) 0.4953(3) 0.0373(10)
O16_8 O 0.7169(3) 0.0047(3) 0.0373(10)
C1_12 C 0.7608(4) 0.9277(4) 0.4745(15)
C2_12 C 0.7799(5) 0.9113(4) 0.5951(18)
H1_12 H 0.7948 0.9274 0.6626
C3_12 C 0.7753(6) 0.8672(4) 0.6110(19)
C4_16 C 0.7500(5) 0.8459(4) 0.5093(18)
H2_12 H 0.7459 0.8177 0.5176
C5_12 C 0.7314(4) 0.8669(3) 0.3966(18)
C6_12 C 0.7037(5) 0.8474(4) 0.2806(18)
C7_12 C 0.7648(5) 0.9729(4) 0.4432(13)
C8_12 C 0.6096(4) 0.6600(3) 0.4655(14)
C9_12 C 0.6008(4) 0.6186(4) 0.4520(15)
H3_12 H 0.5832 0.6048 0.5194
C10_12 C 0.6190(5) 0.5979(3) 0.3350(16)
C11_12 C 0.6454(4) 0.6198(4) 0.2395(16)
H4_12 H 0.6587 0.6067 0.1617
C12_12 C 0.6521(4) 0.6615(4) 0.2604(16)
C13_12 C 0.6816(5) 0.6875(4) 0.165(2)
C14_12 C 0.5935(5) 0.6862(4) 0.5895(15)
N1_12 N 0.7372(4) 0.9074(3) 0.3763(12)
N2_12 N 0.6346(4) 0.6816(3) 0.3733(11)
O1_12 O 0.6591(4) 0.9542(3) 0.2165(11)
O2_10 O 0.7683(3) 0.9276(3) 0.0808(11)
O4_12 O 0.6933(3) 0.8703(3) 0.1758(12)
O5_12 O 0.6919(4) 0.8097(3) 0.2964(15)
O6_12 O 0.7490(4) 0.9853(3) 0.3250(10)
O7_8 O 0.7831(3) 0.9953(3) 0.5373(10)
O8_12 O 0.7956(5) 0.8477(4) 0.7188(17)
O9_12 O 0.6999(4) 0.7425(3) 0.5071(14)
O10_12 O 0.6018(4) 0.7685(3) 0.3111(15)
O11_12 O 0.6843(4) 0.7253(3) 0.2027(12)
O12_12 O 0.7011(6) 0.6717(4) 0.0587(18)
O14_12 O 0.6066(4) 0.7231(3) 0.5883(11)
U1_6 U 0.714124(14) 0.941206(12) 0.14831(6)
U2_9 U 0.651554(15) 0.755899(11) 0.40841(6)
O17_9 O 0.6404(4) 0.8085(3) 0.5714(13)
O15_9 O 0.6808(4) 0.9202(3) 0.9320(10)
C8_13 C 0.3596(4) 0.0900(3) 0.7155(14)
C9_13 C 0.3508(4) 0.1314(4) 0.7020(15)
H3_13 H 0.3332 0.1452 0.7694
C10_13 C 0.3690(5) 0.1521(3) 0.5850(16)
C11_13 C 0.3954(4) 0.1302(4) 0.4895(16)
H4_13 H 0.4087 0.1433 0.4117
C12_13 C 0.4021(4) 0.0885(4) 0.5104(16)
C13_13 C 0.4316(5) 0.0625(4) 0.415(2)
C14_13 C 0.3435(5) 0.0638(4) 0.8395(15)
N2_13 N 0.3846(4) 0.0684(3) 0.6233(11)
O9_13 O 0.4499(4) 0.0075(3) 0.7571(14)
O11_13 O 0.4343(4) 0.0247(3) 0.4527(12)
O12_13 O 0.4511(6) 0.0783(4) 0.3087(18)
O14_13 O 0.3566(4) 0.0269(3) 0.8383(11)
C1_13 C 0.5108(4) 0.8223(4) 0.7245(15)
C2_13 C 0.5299(5) 0.8387(4) 0.8451(18)
H1_13 H 0.5448 0.8226 0.9126
C3_13 C 0.5253(6) 0.8828(4) 0.8610(19)
C4_17 C 0.5000(5) 0.9041(4) 0.7593(18)
H2_13 H 0.4959 0.9323 0.7676
C5_13 C 0.4814(4) 0.8831(3) 0.6466(18)
C6_13 C 0.4537(5) 0.9026(4) 0.5306(18)
C7_13 C 0.5148(5) 0.7771(4) 0.6932(13)
N1_13 N 0.4872(4) 0.8426(3) 0.6263(12)
O1_13 O 0.4091(4) 0.7958(3) 0.4665(11)
O2_11 O 0.5183(3) 0.8224(3) 0.3308(11)
O4_13 O 0.4433(3) 0.8797(3) 0.4258(12)
O5_13 O 0.4419(4) 0.9403(3) 0.5464(15)
O6_13 O 0.4990(4) 0.7647(3) 0.5750(10)
O8_13 O 0.5456(5) 0.9023(4) 0.9688(17)
O10_13 O 0.3518(4) 0.9815(3) 0.5611(15)
C1_14 C 0.4892(4) 0.1777(4) 0.7245(15)
C2_14 C 0.4701(5) 0.1613(4) 0.8451(18)
H1_14 H 0.4552 0.1774 0.9126
C3_14 C 0.4747(6) 0.1172(4) 0.8610(19)
C4_18 C 0.5000(5) 0.0959(4) 0.7593(18)
H2_14 H 0.5041 0.0677 0.7676
C5_14 C 0.5186(4) 0.1169(3) 0.6466(18)
C6_14 C 0.5463(5) 0.0974(4) 0.5306(18)
C7_14 C 0.4852(5) 0.2229(4) 0.6932(13)
N1_14 N 0.5128(4) 0.1574(3) 0.6263(12)
O1_14 O 0.5909(4) 0.2042(3) 0.4665(11)
O2_12 O 0.4817(3) 0.1776(3) 0.3308(11)
O4_14 O 0.5567(3) 0.1203(3) 0.4258(12)
O5_14 O 0.5581(4) 0.0597(3) 0.5464(15)
O6_14 O 0.5010(4) 0.2353(3) 0.5750(10)
O8_14 O 0.4544(5) 0.0977(4) 0.9688(17)
O10_14 O 0.6482(4) 0.0185(3) 0.5611(15)
U2_10 U 0.598446(15) 0.005899(11) 0.65841(6)
O15_10 O 0.5692(4) 0.1702(3) 0.1820(10)
O17_10 O 0.6096(4) 0.0585(3) 0.8214(13)
C8_14 C 0.6404(4) 0.9100(3) 0.7155(14)
C9_14 C 0.6492(4) 0.8686(4) 0.7020(15)
H3_14 H 0.6668 0.8548 0.7694
C10_14 C 0.6310(5) 0.8479(3) 0.5850(16)
C11_14 C 0.6046(4) 0.8698(4) 0.4895(16)
H4_14 H 0.5913 0.8567 0.4117
C12_14 C 0.5979(4) 0.9115(4) 0.5104(16)
C13_14 C 0.5684(5) 0.9375(4) 0.415(2)
C14_14 C 0.6565(5) 0.9362(4) 0.8395(15)
N2_14 N 0.6154(4) 0.9316(3) 0.6233(11)
O9_14 O 0.5501(4) 0.9925(3) 0.7571(14)
O11_14 O 0.5657(4) 0.9753(3) 0.4527(12)
O12_14 O 0.5489(6) 0.9217(4) 0.3087(18)
O14_14 O 0.6434(4) 0.9731(3) 0.8383(11)
C2_15 C 0.7201(5) 0.0887(4) 0.0951(18)
H1_15 H 0.7052 0.0726 0.1626
C3_15 C 0.7247(6) 0.1328(4) 0.1110(19)
C4_19 C 0.7500(5) 0.1541(4) 0.0093(18)
H2_15 H 0.7541 0.1823 0.0176
H3_15 H 0.9168 0.3952 0.0194
C14_15 C 0.9065(5) 0.3138(4) 0.0895(15)
O8_15 O 0.7044(5) 0.1523(4) 0.2188(17)
O9_15 O 0.8001(4) 0.2575(3) 0.0071(14)
O14_15 O 0.8934(4) 0.2769(3) 0.0883(11)
C1_15 C 0.7392(4) 0.0723(4) 0.9745(15)
C5_15 C 0.7686(4) 0.1331(3) 0.8966(18)
C6_15 C 0.7963(5) 0.1526(4) 0.7806(18)
C7_15 C 0.7352(5) 0.0271(4) 0.9432(13)
C8_15 C 0.8904(4) 0.3400(3) 0.9655(14)
C9_15 C 0.8992(4) 0.3814(4) 0.9520(15)
C10_15 C 0.8810(5) 0.4021(3) 0.8350(16)
C11_15 C 0.8546(4) 0.3802(4) 0.7395(16)
H4_15 H 0.8413 0.3933 0.6617
C12_15 C 0.8479(4) 0.3385(4) 0.7604(16)
C13_15 C 0.8184(5) 0.3125(4) 0.665(2)
N1_15 N 0.7628(4) 0.0926(3) 0.8763(12)
N2_15 N 0.8654(4) 0.3184(3) 0.8733(11)
O1_15 O 0.8409(4) 0.0458(3) 0.7165(11)
O2_13 O 0.7317(3) 0.0724(3) 0.5808(11)
O4_15 O 0.8067(3) 0.1297(3) 0.6758(12)
O5_15 O 0.8081(4) 0.1903(3) 0.7964(15)
O6_15 O 0.7510(4) 0.0147(3) 0.8250(10)
O10_15 O 0.8982(4) 0.2315(3) 0.8111(15)
O11_15 O 0.8157(4) 0.2747(3) 0.7027(12)
O12_15 O 0.7989(6) 0.3283(4) 0.5587(18)
C2_16 C 0.7799(5) 0.4113(4) 0.0951(18)
H1_16 H 0.7948 0.4274 0.1626
C3_16 C 0.7753(6) 0.3672(4) 0.1110(19)
C4_20 C 0.7500(5) 0.3459(4) 0.0093(18)
H2_16 H 0.7459 0.3177 0.0176
H3_16 H 0.5832 0.1048 0.0194
C14_16 C 0.5935(5) 0.1862(4) 0.0895(15)
O8_16 O 0.7956(5) 0.3477(4) 0.2188(17)
O9_16 O 0.6999(4) 0.2425(3) 0.0071(14)
O14_16 O 0.6066(4) 0.2231(3) 0.0883(11)
C1_16 C 0.7608(4) 0.4277(4) 0.9745(15)
C5_16 C 0.7314(4) 0.3669(3) 0.8966(18)
C6_16 C 0.7037(5) 0.3474(4) 0.7806(18)
C7_16 C 0.7648(5) 0.4729(4) 0.9432(13)
C8_16 C 0.6096(4) 0.1600(3) 0.9655(14)
C9_16 C 0.6008(4) 0.1186(4) 0.9520(15)
C10_16 C 0.6190(5) 0.0979(3) 0.8350(16)
C11_16 C 0.6454(4) 0.1198(4) 0.7395(16)
H4_16 H 0.6587 0.1067 0.6617
C12_16 C 0.6521(4) 0.1615(4) 0.7604(16)
C13_16 C 0.6816(5) 0.1875(4) 0.665(2)
N1_16 N 0.7372(4) 0.4074(3) 0.8763(12)
N2_16 N 0.6346(4) 0.1816(3) 0.8733(11)
O1_16 O 0.6591(4) 0.4542(3) 0.7165(11)
O2_14 O 0.7683(3) 0.4276(3) 0.5808(11)
O4_16 O 0.6933(3) 0.3703(3) 0.6758(12)
O5_16 O 0.6919(4) 0.3097(3) 0.7964(15)
O6_16 O 0.7490(4) 0.4853(3) 0.8250(10)
O10_16 O 0.6018(4) 0.2685(3) 0.8111(15)
O11_16 O 0.6843(4) 0.2253(3) 0.7027(12)
O12_16 O 0.7011(6) 0.1717(4) 0.5587(18)
O2_15 O 0.0183(3) 0.8224(3) 0.8308(11)
O2_16 O 0.9817(3) 0.1776(3) 0.8308(11)
loop_
_geom_bond_atom_site_label_1
_geom_bond_atom_site_label_2
_geom_bond_site_symmetry_1
_geom_bond_site_symmetry_2
C1 C2 1_555 1_555
C2 H1 1_555 1_555
C3 C2 1_555 1_555
C4 C3 1_555 1_555
C7 C1 1_555 1_555
O7 C7 1_555 1_555
O8 C3 1_555 1_555
U3 O7 1_555 1_555
H2 C4_2 1_555 1_555
C5 C4_2 1_555 1_555
C6 C5 1_555 1_555
C8 C9 1_555 1_555
C9 H3 1_555 1_555
C10 C9 1_555 1_555
C11 C10 1_555 1_555
H4 C11 1_555 1_555
C12 C11 1_555 1_555
C13 C12 1_555 1_555
C14 C8 1_555 1_555
N2 C8 1_555 1_555
O1 U1 1_555 1_555
O3 C14 1_555 1_555
O4 C6 1_555 1_555
O5 C6 1_555 1_555
O9 U2 1_555 1_555
O10 U2 1_555 1_555
O11 C13 1_555 1_555
O12 C13 1_555 1_555
O13 C10 1_555 1_555
O14 C14 1_555 1_555
U1 N1 1_555 1_555
U2 N2 1_555 1_555
O15 U1 1_555 1_555
O16 U1 1_555 1_555
O17 U2 1_555 1_555
U5 O13 1_555 1_555
C5 N1 1_555 1_555
C12 N2 1_555 1_555
O4 U1 1_555 1_555
O5 U2 1_555 1_555
O6 U1 1_555 1_555
O11 U2 1_555 1_555
O14 U2 1_555 1_555
H2_2 C4_3 1_555 1_555
C5_2 C4_3 1_555 1_555
C6_2 C5_2 1_555 1_555
C8_2 C9_2 1_555 1_555
C9_2 H3_2 1_555 1_555
C10_2 C9_2 1_555 1_555
C11_2 C10_2 1_555 1_555
H4_2 C11_2 1_555 1_555
C12_2 C11_2 1_555 1_555
C13_2 C12_2 1_555 1_555
C14_2 C8_2 1_555 1_555
N2_2 C8_2 1_555 1_555
O1_2 U1_2 1_555 1_555
O3_2 C14_2 1_555 1_555
O4_2 C6_2 1_555 1_555
O5_2 C6_2 1_555 1_555
O9_2 U2_2 1_555 1_555
O10_2 U2_2 1_555 1_555
O11_2 C13_2 1_555 1_555
O12_2 C13_2 1_555 1_555
O13_2 C10_2 1_555 1_555
O14_2 C14_2 1_555 1_555
U1_2 N1_2 1_555 1_555
U2_2 N2_2 1_555 1_555
O15_2 U1_2 1_555 1_555
O16_2 U1_2 1_555 1_555
O17_2 U2_2 1_555 1_555
U5_2 O13_2 1_555 1_555
C5_2 N1_2 1_555 1_555
C12_2 N2_2 1_555 1_555
O4_2 U1_2 1_555 1_555
O5_2 U2_2 1_555 1_555
O6_2 U1_2 1_555 1_555
O11_2 U2_2 1_555 1_555
O14_2 U2_2 1_555 1_555
C1_2 C2_2 1_555 1_555
C2_2 H1_2 1_555 1_555
C3_2 C2_2 1_555 1_555
C4_4 C3_2 1_555 1_555
C7_2 C1_2 1_555 1_555
O7_2 C7_2 1_555 1_555
O8_2 C3_2 1_555 1_555
U3_2 O7_2 1_555 1_555
C2_3 H1_3 1_555 1_555
C3_3 C2_3 1_555 1_555
C4_5 C3_3 1_555 1_555
H2_3 C4_5 1_555 1_555
O3_3 C14_3 1_555 1_555
O8_3 C3_3 1_555 1_555
O14_3 C14_3 1_555 1_555
U4_2 O7_3 1_555 1_555
U4_3 O3_3 1_555 1_555
C6_3 C5_3 1_555 1_555
C7_3 C1_3 1_555 1_555
C8_3 C9_3 1_555 1_555
C10_3 C9_3 1_555 1_555
C11_3 C10_3 1_555 1_555
H4_3 C11_3 1_555 1_555
C12_3 C11_3 1_555 1_555
C13_3 C12_3 1_555 1_555
N1_3 C1_3 1_555 1_555
N2_3 C8_3 1_555 1_555
O1_3 U1_3 1_555 1_555
O2_3 U1_3 1_555 1_555
O4_3 C6_3 1_555 1_555
O5_3 C6_3 1_555 1_555
O6_3 C7_3 1_555 1_555
O10_3 U2_3 1_555 1_555
O11_3 C13_3 1_555 1_555
O12_3 C13_3 1_555 1_555
O13_3 C10_3 1_555 1_555
U1_3 N1_3 1_555 1_555
U2_3 N2_3 1_555 1_555
O15_3 U1_3 1_555 1_555
O16_3 U1_3 1_555 1_555
U5_3 O13_3 1_555 1_555
C5_3 N1_3 1_555 1_555
C12_3 N2_3 1_555 1_555
O4_3 U1_3 1_555 1_555
O5_3 U2_3 1_555 1_555
O6_3 U1_3 1_555 1_555
O11_3 U2_3 1_555 1_555
C2_4 H1_4 1_555 1_555
C3_4 C2_4 1_555 1_555
C4_6 C3_4 1_555 1_555
H2_4 C4_6 1_555 1_555
O15_2 C14_4 1_555 1_555
O8_4 C3_4 1_555 1_555
O14_4 C14_4 1_555 1_555
C6_4 C5_4 1_555 1_555
C7_4 C1_4 1_555 1_555
C8_4 C9_4 1_555 1_555
C10_4 C9_4 1_555 1_555
C11_4 C10_4 1_555 1_555
H4_4 C11_4 1_555 1_555
C12_4 C11_4 1_555 1_555
C13_4 C12_4 1_555 1_555
N1_4 C1_4 1_555 1_555
N2_4 C8_4 1_555 1_555
O1_4 U1_4 1_555 1_555
O2_4 U1_4 1_555 1_555
O4_4 C6_4 1_555 1_555
O5_4 C6_4 1_555 1_555
O6_4 C7_4 1_555 1_555
O10_4 U2_4 1_555 1_555
O11_4 C13_4 1_555 1_555
O12_4 C13_4 1_555 1_555
O17_2 C10_4 1_555 1_555
U1_4 N1_4 1_555 1_555
U2_4 N2_4 1_555 1_555
O15_4 U1_4 1_555 1_555
C5_4 N1_4 1_555 1_555
C12_4 N2_4 1_555 1_555
O4_4 U1_4 1_555 1_555
O5_4 U2_4 1_555 1_555
O6_4 U1_4 1_555 1_555
O11_4 U2_4 1_555 1_555
C1_5 C2_5 1_555 1_555
C2_5 H1_5 1_555 1_555
C3_5 C2_5 1_555 1_555
C4_7 C3_5 1_555 1_555
C7_5 C1_5 1_555 1_555
O16_2 C7_5 1_555 1_555
O8_5 C3_5 1_555 1_555
C8_5 C9_5 1_555 1_555
C9_5 H3_5 1_555 1_555
C10_5 C9_5 1_555 1_555
C14_5 C8_5 1_555 1_555
N2_5 C8_5 1_555 1_555
O3_4 C14_5 1_555 1_555
O13_4 C10_5 1_555 1_555
O14_5 C14_5 1_555 1_555
U4_4 O3_4 1_555 1_555
C12_5 N2_5 1_555 1_555
H4_5 C11_5 1_555 1_555
O11_5 C13_5 1_555 1_555
O12_5 C13_5 1_555 1_555
H2_5 C4_8 1_555 1_555
C5_5 C4_8 1_555 1_555
C6_5 C5_5 1_555 1_555
O5_5 C6_5 1_555 1_555
O10_5 U2_5 1_555 1_555
O17_5 U2_5 1_555 1_555
C5_5 N1_5 1_555 1_555
O5_5 U2_5 1_555 1_555
O1_5 U3_2 1_555 1_555
O15_5 U3_2 1_555 1_555
O4_5 U3_2 1_555 1_555
H2_6 C4_9 1_555 1_555
C5_6 C4_9 1_555 1_555
C6_6 C5_6 1_555 1_555
O5_6 C6_6 1_555 1_555
O10_6 U2_6 1_555 1_555
O17_6 U2_6 1_555 1_555
C5_6 N1_6 1_555 1_555
O5_6 U2_6 1_555 1_555
O1_6 U3 1_555 1_555
O15_6 U3 1_555 1_555
O4_6 U3 1_555 1_555
C8_6 C9_6 1_555 1_555
C9_6 H3_6 1_555 1_555
C10_6 C9_6 1_555 1_555
C14_6 C8_6 1_555 1_555
N2_6 C8_6 1_555 1_555
O15_4 C14_6 1_555 1_555
O17_4 C10_6 1_555 1_555
O14_6 C14_6 1_555 1_555
C12_6 N2_6 1_555 1_555
H4_6 C11_6 1_555 1_555
O11_6 C13_6 1_555 1_555
O12_6 C13_6 1_555 1_555
C1_6 C2_6 1_555 1_555
C2_6 H1_6 1_555 1_555
C3_6 C2_6 1_555 1_555
C4_10 C3_6 1_555 1_555
C7_6 C1_6 1_555 1_555
O16 C7_6 1_555 1_555
O8_6 C3_6 1_555 1_555
C1_7 C2_7 1_555 1_555
C2_7 H1_7 1_555 1_555
C3_7 C2_7 1_555 1_555
C4_11 C3_7 1_555 1_555
H2_7 C4_11 1_555 1_555
C5_7 C4_11 1_555 1_555
C6_7 C5_7 1_555 1_555
C7_7 C1_7 1_555 1_555
C8_7 C9_7 1_555 1_555
C9_7 H3_7 1_555 1_555
C10_7 C9_7 1_555 1_555
C11_7 C10_7 1_555 1_555
H4_7 C11_7 1_555 1_555
C12_7 C11_7 1_555 1_555
C13_7 C12_7 1_555 1_555
C14_7 C8_7 1_555 1_555
N1_7 C1_7 1_555 1_555
N2_7 C8_7 1_555 1_555
O1_7 U3_3 1_555 1_555
O2_5 U3_3 1_555 1_555
O3_5 C14_7 1_555 1_555
O4_7 C6_7 1_555 1_555
O5_7 C6_7 1_555 1_555
O6_7 C7_7 1_555 1_555
O16_4 C7_7 1_555 1_555
O8_7 C3_7 1_555 1_555
O9_7 U2_7 1_555 1_555
O10_7 U2_7 1_555 1_555
O11_7 C13_7 1_555 1_555
O12_7 C13_7 1_555 1_555
O13_5 C10_7 1_555 1_555
O14_7 C14_7 1_555 1_555
U3_3 N1_7 1_555 1_555
U2_7 N2_7 1_555 1_555
O17_7 U2_7 1_555 1_555
U4_5 O3_5 1_555 1_555
U5_5 O13_5 1_555 1_555
C5_7 N1_7 1_555 1_555
C12_7 N2_7 1_555 1_555
O4_7 U3_3 1_555 1_555
O5_7 U2_7 1_555 1_555
O6_7 U3_3 1_555 1_555
O11_7 U2_7 1_555 1_555
O14_7 U2_7 1_555 1_555
C1_8 C2_8 1_555 1_555
C2_8 H1_8 1_555 1_555
C3_8 C2_8 1_555 1_555
C4_12 C3_8 1_555 1_555
H2_8 C4_12 1_555 1_555
C5_8 C4_12 1_555 1_555
C6_8 C5_8 1_555 1_555
C7_8 C1_8 1_555 1_555
C8_8 C9_8 1_555 1_555
C9_8 H3_8 1_555 1_555
C10_8 C9_8 1_555 1_555
C11_8 C10_8 1_555 1_555
H4_8 C11_8 1_555 1_555
C12_8 C11_8 1_555 1_555
C13_8 C12_8 1_555 1_555
C14_8 C8_8 1_555 1_555
N1_8 C1_8 1_555 1_555
N2_8 C8_8 1_555 1_555
O1_8 U4_2 1_555 1_555
O2_6 U4_2 1_555 1_555
O15_6 C14_8 1_555 1_555
O4_8 C6_8 1_555 1_555
O5_8 C6_8 1_555 1_555
O6_8 C7_8 1_555 1_555
O16_3 C7_8 1_555 1_555
O8_8 C3_8 1_555 1_555
O9_8 U5_2 1_555 1_555
O10_8 U5_2 1_555 1_555
O11_8 C13_8 1_555 1_555
O12_8 C13_8 1_555 1_555
O17_6 C10_8 1_555 1_555
O14_8 C14_8 1_555 1_555
U4_2 N1_8 1_555 1_555
U5_2 N2_8 1_555 1_555
C5_8 N1_8 1_555 1_555
C12_8 N2_8 1_555 1_555
O4_8 U4_2 1_555 1_555
O5_8 U5_2 1_555 1_555
O6_8 U4_2 1_555 1_555
O11_8 U5_2 1_555 1_555
O14_8 U5_2 1_555 1_555
C1_9 C2_9 1_555 1_555
C2_9 H1_9 1_555 1_555
C3_9 C2_9 1_555 1_555
C4_13 C3_9 1_555 1_555
H2_9 C4_13 1_555 1_555
C5_9 C4_13 1_555 1_555
C6_9 C5_9 1_555 1_555
C7_9 C1_9 1_555 1_555
C8_9 C9_9 1_555 1_555
C9_9 H3_9 1_555 1_555
C10_9 C9_9 1_555 1_555
C14_9 C8_9 1_555 1_555
N1_9 C1_9 1_555 1_555
N2_9 C8_9 1_555 1_555
O15_3 C14_9 1_555 1_555
O5_9 C6_9 1_555 1_555
O6_9 C7_9 1_555 1_555
O7_5 C7_9 1_555 1_555
O8_9 C3_9 1_555 1_555
O9_9 U5_5 1_555 1_555
O10_9 U5_5 1_555 1_555
O17_3 C10_9 1_555 1_555
O14_9 C14_9 1_555 1_555
U5_5 N2_9 1_555 1_555
U3_4 O7_5 1_555 1_555
C5_9 N1_9 1_555 1_555
C12_9 N2_9 1_555 1_555
O5_9 U5_5 1_555 1_555
O14_9 U5_5 1_555 1_555
H4_9 C11_9 1_555 1_555
O1_9 U4_5 1_555 1_555
O2_7 U4_5 1_555 1_555
O11_9 C13_9 1_555 1_555
O12_9 C13_9 1_555 1_555
O16_5 U4_5 1_555 1_555
O4_9 U4_5 1_555 1_555
C1_10 C2_10 1_555 1_555
C2_10 H1_10 1_555 1_555
C3_10 C2_10 1_555 1_555
C4_14 C3_10 1_555 1_555
H2_10 C4_14 1_555 1_555
C5_10 C4_14 1_555 1_555
C6_10 C5_10 1_555 1_555
C7_10 C1_10 1_555 1_555
C8_10 C9_10 1_555 1_555
C9_10 H3_10 1_555 1_555
C10_10 C9_10 1_555 1_555
C14_10 C8_10 1_555 1_555
N1_10 C1_10 1_555 1_555
N2_10 C8_10 1_555 1_555
O3_6 C14_10 1_555 1_555
O5_10 C6_10 1_555 1_555
O6_10 C7_10 1_555 1_555
O7_6 C7_10 1_555 1_555
O8_10 C3_10 1_555 1_555
O9_10 U2_8 1_555 1_555
O10_10 U2_8 1_555 1_555
O13_6 C10_10 1_555 1_555
O14_10 C14_10 1_555 1_555
U2_8 N2_10 1_555 1_555
O17_8 U2_8 1_555 1_555
U4_3 O7_6 1_555 1_555
U4_6 O3_6 1_555 1_555
C5_10 N1_10 1_555 1_555
C12_10 N2_10 1_555 1_555
O5_10 U2_8 1_555 1_555
O14_10 U2_8 1_555 1_555
H4_10 C11_10 1_555 1_555
O1_10 U1_5 1_555 1_555
O2_8 U1_5 1_555 1_555
O11_10 C13_10 1_555 1_555
O12_10 C13_10 1_555 1_555
O15_8 U1_5 1_555 1_555
O16_6 U1_5 1_555 1_555
O4_10 U1_5 1_555 1_555
C1_11 C2_11 1_555 1_555
C2_11 H1_11 1_555 1_555
C3_11 C2_11 1_555 1_555
C4_15 C3_11 1_555 1_555
H2_11 C4_15 1_555 1_555
C5_11 C4_15 1_555 1_555
C6_11 C5_11 1_555 1_555
C7_11 C1_11 1_555 1_555
C8_11 C9_11 1_555 1_555
C9_11 H3_11 1_555 1_555
C10_11 C9_11 1_555 1_555
C11_11 C10_11 1_555 1_555
H4_11 C11_11 1_555 1_555
C12_11 C11_11 1_555 1_555
C13_11 C12_11 1_555 1_555
C14_11 C8_11 1_555 1_555
N1_11 C1_11 1_555 1_555
N2_11 C8_11 1_555 1_555
O1_11 U4 1_555 1_555
O2_9 U4 1_555 1_555
O15_5 C14_11 1_555 1_555
O4_11 C6_11 1_555 1_555
O5_11 C6_11 1_555 1_555
O6_11 C7_11 1_555 1_555
O7_7 C7_11 1_555 1_555
O8_11 C3_11 1_555 1_555
O9_11 U5 1_555 1_555
O10_11 U5 1_555 1_555
O11_11 C13_11 1_555 1_555
O12_11 C13_11 1_555 1_555
O17_5 C10_11 1_555 1_555
O14_11 C14_11 1_555 1_555
U4 N1_11 1_555 1_555
U5 N2_11 1_555 1_555
O16_7 U4 1_555 1_555
U4_6 O7_7 1_555 1_555
C5_11 N1_11 1_555 1_555
C12_11 N2_11 1_555 1_555
O4_11 U4 1_555 1_555
O5_11 U5 1_555 1_555
O6_11 U4 1_555 1_555
O11_11 U5 1_555 1_555
O14_11 U5 1_555 1_555
C1_12 C2_12 1_555 1_555
C2_12 H1_12 1_555 1_555
C3_12 C2_12 1_555 1_555
C4_16 C3_12 1_555 1_555
H2_12 C4_16 1_555 1_555
C5_12 C4_16 1_555 1_555
C6_12 C5_12 1_555 1_555
C7_12 C1_12 1_555 1_555
C8_12 C9_12 1_555 1_555
C9_12 H3_12 1_555 1_555
C10_12 C9_12 1_555 1_555
C11_12 C10_12 1_555 1_555
H4_12 C11_12 1_555 1_555
C12_12 C11_12 1_555 1_555
C13_12 C12_12 1_555 1_555
C14_12 C8_12 1_555 1_555
N1_12 C1_12 1_555 1_555
N2_12 C8_12 1_555 1_555
O1_12 U1_6 1_555 1_555
O2_10 U1_6 1_555 1_555
O15_8 C14_12 1_555 1_555
O4_12 C6_12 1_555 1_555
O5_12 C6_12 1_555 1_555
O6_12 C7_12 1_555 1_555
O7_8 C7_12 1_555 1_555
O8_12 C3_12 1_555 1_555
O9_12 U2_9 1_555 1_555
O10_12 U2_9 1_555 1_555
O11_12 C13_12 1_555 1_555
O12_12 C13_12 1_555 1_555
O17_8 C10_12 1_555 1_555
O14_12 C14_12 1_555 1_555
U1_6 N1_12 1_555 1_555
U2_9 N2_12 1_555 1_555
O17_9 U2_9 1_555 1_555
C5_12 N1_12 1_555 1_555
C12_12 N2_12 1_555 1_555
O4_12 U1_6 1_555 1_555
O5_12 U2_9 1_555 1_555
O6_12 U1_6 1_555 1_555
O11_12 U2_9 1_555 1_555
O14_12 U2_9 1_555 1_555
C8_13 C9_13 1_555 1_555
C9_13 H3_13 1_555 1_555
C10_13 C9_13 1_555 1_555
C11_13 C10_13 1_555 1_555
H4_13 C11_13 1_555 1_555
C12_13 C11_13 1_555 1_555
C13_13 C12_13 1_555 1_555
C14_13 C8_13 1_555 1_555
N2_13 C8_13 1_555 1_555
O15_7 C14_13 1_555 1_555
O11_13 C13_13 1_555 1_555
O12_13 C13_13 1_555 1_555
O17_7 C10_13 1_555 1_555
O14_13 C14_13 1_555 1_555
C12_13 N2_13 1_555 1_555
C1_13 C2_13 1_555 1_555
C2_13 H1_13 1_555 1_555
C3_13 C2_13 1_555 1_555
C4_17 C3_13 1_555 1_555
H2_13 C4_17 1_555 1_555
C5_13 C4_17 1_555 1_555
C6_13 C5_13 1_555 1_555
C7_13 C1_13 1_555 1_555
N1_13 C1_13 1_555 1_555
O1_13 U4_3 1_555 1_555
O2_11 U4_3 1_555 1_555
O4_13 C6_13 1_555 1_555
O5_13 C6_13 1_555 1_555
O6_13 C7_13 1_555 1_555
O16_6 C7_13 1_555 1_555
O8_13 C3_13 1_555 1_555
O10_13 U5_3 1_555 1_555
U4_3 N1_13 1_555 1_555
C5_13 N1_13 1_555 1_555
O4_13 U4_3 1_555 1_555
O5_13 U5_3 1_555 1_555
O6_13 U4_3 1_555 1_555
C1_14 C2_14 1_555 1_555
C2_14 H1_14 1_555 1_555
C3_14 C2_14 1_555 1_555
C4_18 C3_14 1_555 1_555
H2_14 C4_18 1_555 1_555
C5_14 C4_18 1_555 1_555
C6_14 C5_14 1_555 1_555
C7_14 C1_14 1_555 1_555
N1_14 C1_14 1_555 1_555
O1_14 U3_4 1_555 1_555
O2_12 U3_4 1_555 1_555
O4_14 C6_14 1_555 1_555
O5_14 C6_14 1_555 1_555
O6_14 C7_14 1_555 1_555
O16_5 C7_14 1_555 1_555
O8_14 C3_14 1_555 1_555
O10_14 U2_10 1_555 1_555
U3_4 N1_14 1_555 1_555
O15_10 U3_4 1_555 1_555
O17_10 U2_10 1_555 1_555
C5_14 N1_14 1_555 1_555
O4_14 U3_4 1_555 1_555
O5_14 U2_10 1_555 1_555
O6_14 U3_4 1_555 1_555
C8_14 C9_14 1_555 1_555
C9_14 H3_14 1_555 1_555
C10_14 C9_14 1_555 1_555
C11_14 C10_14 1_555 1_555
H4_14 C11_14 1_555 1_555
C12_14 C11_14 1_555 1_555
C13_14 C12_14 1_555 1_555
C14_14 C8_14 1_555 1_555
N2_14 C8_14 1_555 1_555
O15_9 C14_14 1_555 1_555
O11_14 C13_14 1_555 1_555
O12_14 C13_14 1_555 1_555
O17_9 C10_14 1_555 1_555
O14_14 C14_14 1_555 1_555
C12_14 N2_14 1_555 1_555
C2_15 H1_15 1_555 1_555
C3_15 C2_15 1_555 1_555
C4_19 C3_15 1_555 1_555
H2_15 C4_19 1_555 1_555
O15 C14_15 1_555 1_555
O8_15 C3_15 1_555 1_555
O14_15 C14_15 1_555 1_555
C6_15 C5_15 1_555 1_555
C7_15 C1_15 1_555 1_555
C8_15 C9_15 1_555 1_555
C10_15 C9_15 1_555 1_555
C11_15 C10_15 1_555 1_555
H4_15 C11_15 1_555 1_555
C12_15 C11_15 1_555 1_555
C13_15 C12_15 1_555 1_555
N1_15 C1_15 1_555 1_555
N2_15 C8_15 1_555 1_555
O1_15 U4_4 1_555 1_555
O2_13 U4_4 1_555 1_555
O4_15 C6_15 1_555 1_555
O5_15 C6_15 1_555 1_555
O6_15 C7_15 1_555 1_555
O10_15 U5_4 1_555 1_555
O11_15 C13_15 1_555 1_555
O12_15 C13_15 1_555 1_555
O17 C10_15 1_555 1_555
U4_4 N1_15 1_555 1_555
U5_4 N2_15 1_555 1_555
C5_15 N1_15 1_555 1_555
C12_15 N2_15 1_555 1_555
O4_15 U4_4 1_555 1_555
O5_15 U5_4 1_555 1_555
O6_15 U4_4 1_555 1_555
O11_15 U5_4 1_555 1_555
C2_16 H1_16 1_555 1_555
C3_16 C2_16 1_555 1_555
C4_20 C3_16 1_555 1_555
H2_16 C4_20 1_555 1_555
O15_10 C14_16 1_555 1_555
O8_16 C3_16 1_555 1_555
O14_16 C14_16 1_555 1_555
C6_16 C5_16 1_555 1_555
C7_16 C1_16 1_555 1_555
C8_16 C9_16 1_555 1_555
C10_16 C9_16 1_555 1_555
C11_16 C10_16 1_555 1_555
H4_16 C11_16 1_555 1_555
C12_16 C11_16 1_555 1_555
C13_16 C12_16 1_555 1_555
N1_16 C1_16 1_555 1_555
N2_16 C8_16 1_555 1_555
O1_16 U4_6 1_555 1_555
O2_14 U4_6 1_555 1_555
O4_16 C6_16 1_555 1_555
O5_16 C6_16 1_555 1_555
O6_16 C7_16 1_555 1_555
O10_16 U5_6 1_555 1_555
O11_16 C13_16 1_555 1_555
O12_16 C13_16 1_555 1_555
O17_10 C10_16 1_555 1_555
U4_6 N1_16 1_555 1_555
U5_6 N2_16 1_555 1_555
C5_16 N1_16 1_555 1_555
C12_16 N2_16 1_555 1_555
O4_16 U4_6 1_555 1_555
O5_16 U5_6 1_555 1_555
O6_16 U4_6 1_555 1_555
O11_16 U5_6 1_555 1_555

#END
