
###############################################################################
#
# This file contains modified crystal structure data generated from the
# MOF subset of the Cambridge Structural Database (CSD) v543 
# hosted by the Cambridge Crystallographic Data Centre (CCDC).
#
# This work is licensed under the Creative Commons
# Attribution-NonCommercial-ShareAlike 4.0 International License.
# To view a copy of this license, visit
# http://creativecommons.org/licenses/by-nc-sa/4.0/
# or send a letter to
# Creative Commons, PO Box 1866, Mountain View, CA 94042, USA.
#
# CIF created using the CSD Python API on 29 September 2022
# The structure has been converted into the P1 space group
# The structure has a 3D framework
# The original CSD entry TIPROZ is in the cubic crystal system
# The framework has been calculated to contain at least 10.0% void space
# The void calculation uses a probe of radius 1.32A, grid spacing 0.4
#
###############################################################################

data_TIPROZ
_chemical_formula_moiety         '(C96 H96 Co23 O144)n'
_symmetry_cell_setting           triclinic
_symmetry_space_group_name_H-M   'P 1'
_symmetry_Int_Tables_number      1
_space_group_name_Hall           'P 1'
loop_
_symmetry_equiv_pos_site_id
_symmetry_equiv_pos_as_xyz
1 x,y,z
_cell_length_a                   16.255(3)
_cell_length_b                   16.255(3)
_cell_length_c                   16.255(3)
_cell_angle_alpha                90
_cell_angle_beta                 90
_cell_angle_gamma                90
_cell_volume                     4294.98
loop_
_atom_site_label
_atom_site_type_symbol
_atom_site_fract_x
_atom_site_fract_y
_atom_site_fract_z
Co1 Co 0.00201(8) 0.00201 0.25000
O1 O 0.1185(4) 0.0140(5) 0.3007(4)
C1 C 0.1918(4) 0.0165(6) 0.2704(5)
H2 H 0.001(5) 0.104(7) 0.382(6)
C3 C 0.2296(5) 0.0165(6) 0.1918(4)
O4 O 0.1993(4) 0.0140(5) 0.1185(4)
C4 C 0.3082(4) 0.0165(6) 0.2296(5)
O5 O 0.3815(4) 0.0140(5) 0.1993(4)
C5 C 0.2704(5) 0.0165(6) 0.3082(4)
O6 O 0.3007(4) 0.0140(5) 0.3815(4)
O10 O 0.0140(5) 0.1185(4) 0.1993(4)
C9 C 0.0165(6) 0.1918(4) 0.2296(5)
C10 C 0.0165(6) 0.2296(5) 0.3082(4)
O11 O 0.0140(5) 0.1993(4) 0.3815(4)
C11 C 0.0165(6) 0.3082(4) 0.2704(5)
O12 O 0.0140(5) 0.3815(4) 0.3007(4)
C12 C 0.0165(6) 0.2704(5) 0.1918(4)
O13 O 0.0140(5) 0.3007(4) 0.1185(4)
H4 H 0.104(7) 0.001(5) 0.118(6)
Co2 Co 0.25000 0.00201 0.00201(8)
Co3 Co 0.49799(8) 0.00201 0.25000
Co4 Co 0.25000 0.00201 0.49799(8)
H6 H 0.118(6) 0.104(7) 0.001(5)
H8 H 0.382(6) 0.001(5) 0.104(7)
O21 O 0.5366(4) 0.0402(4) 0.1369(3)
H9 H 0.591(5) 0.058(6) 0.126(6)
H10 H 0.499(5) 0.104(7) 0.118(6)
H12 H 0.396(7) 0.001(5) 0.382(6)
O23 O 0.3631(3) 0.0402(4) 0.5366(4)
H13 H 0.374(6) 0.058(6) 0.591(5)
H14 H 0.382(6) 0.104(7) 0.499(5)
H16 H 0.118(6) 0.001(5) 0.396(7)
Co8 Co 0.00201(8) 0.25000 0.49799
Co9 Co 0.00201(8) 0.49799 0.25000
Co10 Co 0.00201(8) 0.25000 0.00201
O25 O 0.3007(4) 0.1185(4) 0.0140(5)
O28 O 0.4860(5) 0.1185(4) 0.3007(4)
O31 O 0.1993(4) 0.1185(4) 0.4860(5)
O19 O 0.1369(3) 0.0402(4) 0.9634(4)
H5 H 0.126(6) 0.058(6) 0.909(5)
C6 C 0.0009(7) 0.7744(6) 0.1887(5)
O7 O 0.0035(5) 0.8001(4) 0.1195(4)
C8 C 0.0009(7) 0.7256(6) 0.3113(5)
O9 O 0.0035(5) 0.6999(4) 0.3805(4)
O18 O 0.0402(4) 0.9634(4) 0.1369(3)
H3 H 0.058(6) 0.909(5) 0.126(6)
O20 O 0.3631(3) 0.9634(4) 0.0402(4)
H7 H 0.374(6) 0.909(5) 0.058(6)
O22 O 0.4598(4) 0.9634(4) 0.3631(3)
H11 H 0.442(6) 0.909(5) 0.374(6)
O24 O 0.1369(3) 0.9634(4) 0.4598(4)
H15 H 0.126(6) 0.909(5) 0.442(6)
O29 O 0.6195(4) 0.9965(5) 0.3001(4)
O30 O 0.5035(5) 0.8805(4) 0.1999(4)
O32 O 0.1999(4) 0.9965(5) 0.6195(4)
O33 O 0.3001(4) 0.8805(4) 0.5035(5)
O26 O 0.3001(4) 0.9965(5) 0.8805(4)
O27 O 0.1999(4) 0.8805(4) 0.9965(5)
O3 O 0.9634(4) 0.0402(4) 0.3631(3)
H1 H 0.909(5) 0.058(6) 0.374(6)
C14 C 0.7744(6) 0.0009(7) 0.3113(5)
O15 O 0.8001(4) 0.0035(5) 0.3805(4)
C16 C 0.7256(6) 0.0009(7) 0.1887(5)
O17 O 0.6999(4) 0.0035(5) 0.1195(4)
O2 O 0.9965(5) 0.8805(4) 0.3001(4)
C2 C 0.9991(7) 0.8113(5) 0.2744(6)
C7 C 0.9991(7) 0.6887(5) 0.2256(6)
O8 O 0.9965(5) 0.6195(4) 0.1999(4)
O14 O 0.8805(4) 0.9965(5) 0.1999(4)
C13 C 0.8113(5) 0.9991(7) 0.2256(6)
C15 C 0.6887(5) 0.9991(7) 0.2744(6)
Co7 Co 0.99799(8) 0.75000 0.50201
Co11 Co 0.75000 0.99799(8) 0.50201
Co5 Co 0.99799(8) 0.75000 0.99799
Co13 Co 0.75000 0.99799(8) 0.99799
C1_2 C 0.4835(6) 0.1918(4) 0.2704(5)
C3_2 C 0.4835(6) 0.2296(5) 0.1918(4)
O4_2 O 0.4860(5) 0.1993(4) 0.1185(4)
C4_2 C 0.4835(6) 0.3082(4) 0.2296(5)
O5_2 O 0.4860(5) 0.3815(4) 0.1993(4)
C5_2 C 0.4835(6) 0.2704(5) 0.3082(4)
O6_2 O 0.4860(5) 0.3007(4) 0.3815(4)
Co2_2 Co 0.49799 0.25000 0.00201(8)
Co3_2 Co 0.49799 0.49799(8) 0.25000
Co4_2 Co 0.49799 0.25000 0.49799(8)
H6_2 H 0.396(7) 0.118(6) 0.001(5)
O20_2 O 0.5366(4) 0.3631(3) 0.0402(4)
H7_2 H 0.591(5) 0.374(6) 0.058(6)
H8_2 H 0.499(5) 0.382(6) 0.104(7)
O21_2 O 0.4598(4) 0.5366(4) 0.1369(3)
H9_2 H 0.442(6) 0.591(5) 0.126(6)
H10_2 H 0.396(7) 0.499(5) 0.118(6)
O22_2 O 0.5366(4) 0.4598(4) 0.3631(3)
H11_2 H 0.591(5) 0.442(6) 0.374(6)
H12_2 H 0.499(5) 0.396(7) 0.382(6)
O23_2 O 0.4598(4) 0.3631(3) 0.5366(4)
H13_2 H 0.442(6) 0.374(6) 0.591(5)
H14_2 H 0.396(7) 0.382(6) 0.499(5)
O24_2 O 0.5366(4) 0.1369(3) 0.4598(4)
H15_2 H 0.591(5) 0.126(6) 0.442(6)
H16_2 H 0.499(5) 0.118(6) 0.396(7)
O25_2 O 0.3815(4) 0.3007(4) 0.0140(5)
O28_2 O 0.3815(4) 0.4860(5) 0.3007(4)
O29_2 O 0.5035(5) 0.6195(4) 0.3001(4)
O30_2 O 0.6195(4) 0.5035(5) 0.1999(4)
O31_2 O 0.3815(4) 0.1993(4) 0.4860(5)
O32_2 O 0.5035(5) 0.1999(4) 0.6195(4)
O33_2 O 0.6195(4) 0.3001(4) 0.5035(5)
O19_2 O 0.4598(4) 0.1369(3) 0.9634(4)
H5_2 H 0.442(6) 0.126(6) 0.909(5)
O26_2 O 0.5035(5) 0.3001(4) 0.8805(4)
O27_2 O 0.6195(4) 0.1999(4) 0.9965(5)
C13_2 C 0.5009(7) 0.8113(5) 0.2256(6)
C14_2 C 0.4991(7) 0.7744(6) 0.3113(5)
O15_2 O 0.4965(5) 0.8001(4) 0.3805(4)
C15_2 C 0.5009(7) 0.6887(5) 0.2744(6)
C16_2 C 0.4991(7) 0.7256(6) 0.1887(5)
O17_2 O 0.4965(5) 0.6999(4) 0.1195(4)
Co11_2 Co 0.50201(8) 0.75000 0.50201
Co13_2 Co 0.50201(8) 0.75000 0.99799
O1_2 O 0.1185(4) 0.4860(5) 0.1993(4)
C1_3 C 0.1918(4) 0.4835(6) 0.2296(5)
H2_2 H 0.001(5) 0.396(7) 0.118(6)
C3_3 C 0.2296(5) 0.4835(6) 0.3082(4)
O4_3 O 0.1993(4) 0.4860(5) 0.3815(4)
C4_3 C 0.3082(4) 0.4835(6) 0.2704(5)
C5_3 C 0.2704(5) 0.4835(6) 0.1918(4)
O6_3 O 0.3007(4) 0.4860(5) 0.1185(4)
O18_2 O 0.0402(4) 0.5366(4) 0.3631(3)
H3_2 H 0.058(6) 0.591(5) 0.374(6)
H4_2 H 0.104(7) 0.499(5) 0.382(6)
Co2_3 Co 0.25000 0.49799 0.49799(8)
Co4_3 Co 0.25000 0.49799 0.00201(8)
O19_3 O 0.1369(3) 0.4598(4) 0.5366(4)
H5_3 H 0.126(6) 0.442(6) 0.591(5)
H6_3 H 0.118(6) 0.396(7) 0.499(5)
O20_3 O 0.3631(3) 0.5366(4) 0.4598(4)
H7_3 H 0.374(6) 0.591(5) 0.442(6)
H8_3 H 0.382(6) 0.499(5) 0.396(7)
H14_3 H 0.382(6) 0.396(7) 0.001(5)
O24_3 O 0.1369(3) 0.5366(4) 0.0402(4)
H15_3 H 0.126(6) 0.591(5) 0.058(6)
H16_3 H 0.118(6) 0.499(5) 0.104(7)
O25_3 O 0.3007(4) 0.3815(4) 0.4860(5)
O26_3 O 0.3001(4) 0.5035(5) 0.6195(4)
O27_3 O 0.1999(4) 0.6195(4) 0.5035(5)
O31_3 O 0.1993(4) 0.3815(4) 0.0140(5)
O23_3 O 0.3631(3) 0.4598(4) 0.9634(4)
H13_3 H 0.374(6) 0.442(6) 0.909(5)
O32_3 O 0.1999(4) 0.5035(5) 0.8805(4)
O33_3 O 0.3001(4) 0.6195(4) 0.9965(5)
O3_2 O 0.9634(4) 0.4598(4) 0.1369(3)
H1_2 H 0.909(5) 0.442(6) 0.126(6)
O14_2 O 0.8805(4) 0.5035(5) 0.3001(4)
C13_3 C 0.8113(5) 0.5009(7) 0.2744(6)
C14_3 C 0.7744(6) 0.4991(7) 0.1887(5)
O15_3 O 0.8001(4) 0.4965(5) 0.1195(4)
C15_3 C 0.6887(5) 0.5009(7) 0.2256(6)
C16_3 C 0.7256(6) 0.4991(7) 0.3113(5)
O17_3 O 0.6999(4) 0.4965(5) 0.3805(4)
Co13_3 Co 0.75000 0.50201(8) 0.50201
Co11_3 Co 0.75000 0.50201(8) 0.99799
C1_4 C 0.2704(5) 0.1918(4) 0.0165(6)
C3_4 C 0.1918(4) 0.2296(5) 0.0165(6)
O4_4 O 0.1185(4) 0.1993(4) 0.0140(5)
C4_4 C 0.2296(5) 0.3082(4) 0.0165(6)
C5_4 C 0.3082(4) 0.2704(5) 0.0165(6)
H6_4 H 0.001(5) 0.118(6) 0.104(7)
H8_4 H 0.104(7) 0.382(6) 0.001(5)
C6_2 C 0.1887(5) 0.0009(7) 0.7744(6)
O7_2 O 0.1195(4) 0.0035(5) 0.8001(4)
C8_2 C 0.3113(5) 0.0009(7) 0.7256(6)
O9_2 O 0.3805(4) 0.0035(5) 0.6999(4)
O20_4 O 0.0402(4) 0.3631(3) 0.9634(4)
H7_4 H 0.058(6) 0.374(6) 0.909(5)
C14_4 C 0.3113(5) 0.7744(6) 0.0009(7)
O15_4 O 0.3805(4) 0.8001(4) 0.0035(5)
C16_4 C 0.1887(5) 0.7256(6) 0.0009(7)
O17_4 O 0.1195(4) 0.6999(4) 0.0035(5)
C2_2 C 0.2744(6) 0.9991(7) 0.8113(5)
C7_2 C 0.2256(6) 0.9991(7) 0.6887(5)
C13_4 C 0.2256(6) 0.8113(5) 0.9991(7)
C15_4 C 0.2744(6) 0.6887(5) 0.9991(7)
Co7_2 Co 0.50201 0.99799(8) 0.75000
O19_4 O 0.9634(4) 0.1369(3) 0.0402(4)
H5_4 H 0.909(5) 0.126(6) 0.058(6)
O26_4 O 0.8805(4) 0.3001(4) 0.9965(5)
O27_4 O 0.9965(5) 0.1999(4) 0.8805(4)
Co5_2 Co 0.99799 0.99799(8) 0.75000
O19_5 O 0.0402(4) 0.1369(3) 0.5366(4)
H5_5 H 0.058(6) 0.126(6) 0.591(5)
H6_5 H 0.104(7) 0.118(6) 0.499(5)
H8_5 H 0.001(5) 0.382(6) 0.396(7)
O25_4 O 0.1185(4) 0.3007(4) 0.4860(5)
O20_5 O 0.9634(4) 0.3631(3) 0.4598(4)
H7_5 H 0.909(5) 0.374(6) 0.442(6)
O26_5 O 0.9965(5) 0.3001(4) 0.6195(4)
O27_5 O 0.8805(4) 0.1999(4) 0.5035(5)
C14_5 C 0.7256(6) 0.3113(5) 0.0009(7)
O15_5 O 0.6999(4) 0.3805(4) 0.0035(5)
C16_5 C 0.7744(6) 0.1887(5) 0.0009(7)
O17_5 O 0.8001(4) 0.1195(4) 0.0035(5)
C2_3 C 0.5009(7) 0.2744(6) 0.8113(5)
C6_3 C 0.4991(7) 0.1887(5) 0.7744(6)
O7_3 O 0.4965(5) 0.1195(4) 0.8001(4)
C7_3 C 0.5009(7) 0.2256(6) 0.6887(5)
C8_3 C 0.4991(7) 0.3113(5) 0.7256(6)
O9_3 O 0.4965(5) 0.3805(4) 0.6999(4)
C13_5 C 0.6887(5) 0.2256(6) 0.9991(7)
C15_5 C 0.8113(5) 0.2744(6) 0.9991(7)
Co7_3 Co 0.50201(8) 0.50201 0.75000
C2_4 C 0.2256(6) 0.5009(7) 0.8113(5)
C6_4 C 0.3113(5) 0.4991(7) 0.7744(6)
O7_4 O 0.3805(4) 0.4965(5) 0.8001(4)
C7_4 C 0.2744(6) 0.5009(7) 0.6887(5)
C8_4 C 0.1887(5) 0.4991(7) 0.7256(6)
O9_4 O 0.1195(4) 0.4965(5) 0.6999(4)
Co7_4 Co 0.99799 0.50201(8) 0.75000
C6_5 C 0.0009(7) 0.3113(5) 0.7744(6)
O7_5 O 0.0035(5) 0.3805(4) 0.8001(4)
C8_5 C 0.0009(7) 0.1887(5) 0.7256(6)
O9_5 O 0.0035(5) 0.1195(4) 0.6999(4)
C2_5 C 0.9991(7) 0.2256(6) 0.8113(5)
C7_5 C 0.9991(7) 0.2744(6) 0.6887(5)
C1_5 C 0.2704(5) 0.3082(4) 0.4835(6)
C3_5 C 0.1918(4) 0.2704(5) 0.4835(6)
C4_5 C 0.2296(5) 0.1918(4) 0.4835(6)
C5_5 C 0.3082(4) 0.2296(5) 0.4835(6)
C13_6 C 0.2256(6) 0.6887(5) 0.5009(7)
C14_6 C 0.3113(5) 0.7256(6) 0.4991(7)
O15_6 O 0.3805(4) 0.6999(4) 0.4965(5)
C15_6 C 0.2744(6) 0.8113(5) 0.5009(7)
C16_6 C 0.1887(5) 0.7744(6) 0.4991(7)
O17_6 O 0.1195(4) 0.8001(4) 0.4965(5)
C13_7 C 0.6887(5) 0.2744(6) 0.5009(7)
C14_7 C 0.7256(6) 0.1887(5) 0.4991(7)
O15_7 O 0.6999(4) 0.1195(4) 0.4965(5)
C15_7 C 0.8113(5) 0.2256(6) 0.5009(7)
C16_7 C 0.7744(6) 0.3113(5) 0.4991(7)
O17_7 O 0.8001(4) 0.3805(4) 0.4965(5)
O19_6 O 0.0366(4) 0.5402(4) 0.8631(3)
H5_6 H 0.091(5) 0.558(6) 0.874(6)
O3_3 O 0.6369(3) 0.5402(4) 0.0366(4)
H1_3 H 0.626(6) 0.558(6) 0.091(5)
O1_3 O 0.6993(4) 0.5140(5) 0.8815(4)
C1_6 C 0.7296(5) 0.5165(6) 0.8082(4)
H2_3 H 0.618(6) 0.604(7) 0.999(5)
C3_6 C 0.8082(4) 0.5165(6) 0.7704(5)
O4_5 O 0.8815(4) 0.5140(5) 0.8007(4)
C4_6 C 0.7704(5) 0.5165(6) 0.6918(4)
O5_3 O 0.8007(4) 0.5140(5) 0.6185(4)
C5_6 C 0.6918(4) 0.5165(6) 0.7296(5)
O6_4 O 0.6185(4) 0.5140(5) 0.6993(4)
O10_2 O 0.8007(4) 0.6185(4) 0.9860(5)
C9_2 C 0.7704(5) 0.6918(4) 0.9835(6)
C10_2 C 0.6918(4) 0.7296(5) 0.9835(6)
O11_2 O 0.6185(4) 0.6993(4) 0.9860(5)
C11_2 C 0.7296(5) 0.8082(4) 0.9835(6)
O12_2 O 0.6993(4) 0.8815(4) 0.9860(5)
C12_2 C 0.8082(4) 0.7704(5) 0.9835(6)
O13_2 O 0.8815(4) 0.8007(4) 0.9860(5)
O18_3 O 0.8631(3) 0.4634(4) 0.9598(4)
H3_3 H 0.874(6) 0.409(5) 0.942(6)
H4_3 H 0.882(6) 0.501(5) 0.896(7)
H6_6 H 0.999(5) 0.604(7) 0.882(6)
O20_6 O 0.9598(4) 0.4634(4) 0.6369(3)
H7_6 H 0.942(6) 0.409(5) 0.626(6)
H8_6 H 0.896(7) 0.501(5) 0.618(6)
O21_3 O 0.8631(3) 0.5402(4) 0.4634(4)
H9_3 H 0.874(6) 0.558(6) 0.409(5)
H10_3 H 0.882(6) 0.604(7) 0.501(5)
O22_3 O 0.6369(3) 0.4634(4) 0.5402(4)
H11_3 H 0.626(6) 0.409(5) 0.558(6)
H12_3 H 0.618(6) 0.501(5) 0.604(7)
O23_4 O 0.4634(4) 0.5402(4) 0.6369(3)
H13_4 H 0.409(5) 0.558(6) 0.626(6)
H14_4 H 0.501(5) 0.604(7) 0.618(6)
O24_4 O 0.5402(4) 0.4634(4) 0.8631(3)
H15_4 H 0.558(6) 0.409(5) 0.874(6)
H16_4 H 0.604(7) 0.501(5) 0.882(6)
O25_5 O 0.9860(5) 0.6185(4) 0.6993(4)
O28_3 O 0.6993(4) 0.6185(4) 0.5140(5)
O31_4 O 0.5140(5) 0.6185(4) 0.8007(4)
O3_4 O 0.0366(4) 0.9598(4) 0.6369(3)
H1_4 H 0.091(5) 0.942(6) 0.626(6)
O18_4 O 0.9598(4) 0.0366(4) 0.8631(3)
H3_4 H 0.942(6) 0.091(5) 0.874(6)
O20_7 O 0.6369(3) 0.0366(4) 0.9598(4)
H7_7 H 0.626(6) 0.091(5) 0.942(6)
O22_4 O 0.5402(4) 0.0366(4) 0.6369(3)
H11_4 H 0.558(6) 0.091(5) 0.626(6)
O24_5 O 0.8631(3) 0.0366(4) 0.5402(4)
H15_5 H 0.874(6) 0.091(5) 0.558(6)
O19_7 O 0.8631(3) 0.9598(4) 0.0366(4)
H5_7 H 0.874(6) 0.942(6) 0.091(5)
O1_4 O 0.8815(4) 0.9860(5) 0.6993(4)
C1_7 C 0.8082(4) 0.9835(6) 0.7296(5)
H2_4 H 0.999(5) 0.896(7) 0.618(6)
C3_7 C 0.7704(5) 0.9835(6) 0.8082(4)
O4_6 O 0.8007(4) 0.9860(5) 0.8815(4)
C4_7 C 0.6918(4) 0.9835(6) 0.7704(5)
O5_4 O 0.6185(4) 0.9860(5) 0.8007(4)
C5_7 C 0.7296(5) 0.9835(6) 0.6918(4)
O6_5 O 0.6993(4) 0.9860(5) 0.6185(4)
O10_3 O 0.9860(5) 0.8815(4) 0.8007(4)
C9_3 C 0.9835(6) 0.8082(4) 0.7704(5)
C10_3 C 0.9835(6) 0.7704(5) 0.6918(4)
O11_3 O 0.9860(5) 0.8007(4) 0.6185(4)
C11_3 C 0.9835(6) 0.6918(4) 0.7296(5)
C12_3 C 0.9835(6) 0.7296(5) 0.8082(4)
O13_3 O 0.9860(5) 0.6993(4) 0.8815(4)
H4_4 H 0.896(7) 0.999(5) 0.882(6)
H6_7 H 0.882(6) 0.896(7) 0.999(5)
H8_7 H 0.618(6) 0.999(5) 0.896(7)
O21_4 O 0.4634(4) 0.9598(4) 0.8631(3)
H9_4 H 0.409(5) 0.942(6) 0.874(6)
H10_4 H 0.501(5) 0.896(7) 0.882(6)
H12_4 H 0.604(7) 0.999(5) 0.618(6)
O23_5 O 0.6369(3) 0.9598(4) 0.4634(4)
H13_5 H 0.626(6) 0.942(6) 0.409(5)
H14_5 H 0.618(6) 0.896(7) 0.501(5)
H16_5 H 0.882(6) 0.999(5) 0.604(7)
O28_4 O 0.5140(5) 0.8815(4) 0.6993(4)
O31_5 O 0.8007(4) 0.8815(4) 0.5140(5)
O19_8 O 0.5402(4) 0.8631(3) 0.0366(4)
H5_8 H 0.558(6) 0.874(6) 0.091(5)
C1_8 C 0.5165(6) 0.8082(4) 0.7296(5)
C3_8 C 0.5165(6) 0.7704(5) 0.8082(4)
O4_7 O 0.5140(5) 0.8007(4) 0.8815(4)
C4_8 C 0.5165(6) 0.6918(4) 0.7704(5)
C5_8 C 0.5165(6) 0.7296(5) 0.6918(4)
O6_6 O 0.5140(5) 0.6993(4) 0.6185(4)
H6_8 H 0.604(7) 0.882(6) 0.999(5)
O20_8 O 0.4634(4) 0.6369(3) 0.9598(4)
H7_8 H 0.409(5) 0.626(6) 0.942(6)
H8_8 H 0.501(5) 0.618(6) 0.896(7)
O23_6 O 0.5402(4) 0.6369(3) 0.4634(4)
H13_6 H 0.558(6) 0.626(6) 0.409(5)
H14_6 H 0.604(7) 0.618(6) 0.501(5)
O24_6 O 0.4634(4) 0.8631(3) 0.5402(4)
H15_6 H 0.409(5) 0.874(6) 0.558(6)
H16_6 H 0.501(5) 0.882(6) 0.604(7)
O31_6 O 0.6185(4) 0.8007(4) 0.5140(5)
O19_9 O 0.0366(4) 0.8631(3) 0.9598(4)
H5_9 H 0.091(5) 0.874(6) 0.942(6)
O20_9 O 0.9598(4) 0.6369(3) 0.0366(4)
H7_9 H 0.942(6) 0.626(6) 0.091(5)
H6_9 H 0.999(5) 0.882(6) 0.896(7)
H8_9 H 0.896(7) 0.618(6) 0.999(5)
O20_10 O 0.0366(4) 0.6369(3) 0.5402(4)
H7_10 H 0.091(5) 0.626(6) 0.558(6)
O19_10 O 0.9598(4) 0.8631(3) 0.4634(4)
H5_10 H 0.942(6) 0.874(6) 0.409(5)
H6_10 H 0.896(7) 0.882(6) 0.501(5)
H8_10 H 0.999(5) 0.618(6) 0.604(7)
O25_6 O 0.8815(4) 0.6993(4) 0.5140(5)
C1_9 C 0.7296(5) 0.6918(4) 0.5165(6)
C3_9 C 0.8082(4) 0.7296(5) 0.5165(6)
C4_9 C 0.7704(5) 0.8082(4) 0.5165(6)
C5_9 C 0.6918(4) 0.7704(5) 0.5165(6)
loop_
_geom_bond_atom_site_label_1
_geom_bond_atom_site_label_2
_geom_bond_site_symmetry_1
_geom_bond_site_symmetry_2
Co1 O1 1_555 1_555
O1 C1 1_555 1_555
C1 C3 1_555 1_555
C3 O4 1_555 1_555
O4 Co2 1_555 1_555
C4 C3 1_555 1_555
O5 C4 1_555 1_555
C5 C1 1_555 1_555
O6 C5 1_555 1_555
O10 Co1 1_555 1_555
C9 O10 1_555 1_555
C10 C9 1_555 1_555
O11 C10 1_555 1_555
C11 C10 1_555 1_555
O12 C11 1_555 1_555
C12 C9 1_555 1_555
O13 C12 1_555 1_555
Co3 O5 1_555 1_555
Co4 O6 1_555 1_555
O21 Co3 1_555 1_555
H9 O21 1_555 1_555
H10 O21 1_555 1_555
O23 Co4 1_555 1_555
H13 O23 1_555 1_555
H14 O23 1_555 1_555
Co8 O11 1_555 1_555
Co9 O12 1_555 1_555
Co10 O13 1_555 1_555
O25 Co2 1_555 1_555
O28 Co3 1_555 1_555
O31 Co4 1_555 1_555
C4 C5 1_555 1_555
C11 C12 1_555 1_555
O19 H5 1_555 1_555
O7 C6 1_555 1_555
O9 C8 1_555 1_555
H3 O18 1_555 1_555
H7 O20 1_555 1_555
H11 O22 1_555 1_555
H15 O24 1_555 1_555
H1 O3 1_555 1_555
O15 C14 1_555 1_555
O17 C16 1_555 1_555
C2 O2 1_555 1_555
O8 C7 1_555 1_555
C13 O14 1_555 1_555
O29 C15 1_555 1_555
O28 C1_2 1_555 1_555
C1_2 C3_2 1_555 1_555
C3_2 O4_2 1_555 1_555
O4_2 Co2_2 1_555 1_555
C4_2 C3_2 1_555 1_555
O5_2 C4_2 1_555 1_555
C5_2 C1_2 1_555 1_555
O6_2 C5_2 1_555 1_555
Co3_2 O5_2 1_555 1_555
Co4_2 O6_2 1_555 1_555
O20_2 Co2_2 1_555 1_555
H7_2 O20_2 1_555 1_555
H8_2 O20_2 1_555 1_555
O21_2 Co3_2 1_555 1_555
H9_2 O21_2 1_555 1_555
H10_2 O21_2 1_555 1_555
O22_2 Co3_2 1_555 1_555
H11_2 O22_2 1_555 1_555
H12_2 O22_2 1_555 1_555
O23_2 Co4_2 1_555 1_555
H13_2 O23_2 1_555 1_555
H14_2 O23_2 1_555 1_555
O24_2 Co4_2 1_555 1_555
H15_2 O24_2 1_555 1_555
H16_2 O24_2 1_555 1_555
O25_2 Co2_2 1_555 1_555
O28_2 Co3_2 1_555 1_555
O29_2 Co3_2 1_555 1_555
O30_2 Co3_2 1_555 1_555
O31_2 Co4_2 1_555 1_555
O32_2 Co4_2 1_555 1_555
O33_2 Co4_2 1_555 1_555
C4_2 C5_2 1_555 1_555
O19_2 H5_2 1_555 1_555
C13_2 O30 1_555 1_555
C14_2 C13_2 1_555 1_555
O15_2 C14_2 1_555 1_555
C15_2 C14_2 1_555 1_555
O29_2 C15_2 1_555 1_555
C16_2 C13_2 1_555 1_555
O17_2 C16_2 1_555 1_555
Co11_2 O15_2 1_555 1_555
C15_2 C16_2 1_555 1_555
Co9 O1_2 1_555 1_555
O1_2 C1_3 1_555 1_555
C1_3 C3_3 1_555 1_555
C3_3 O4_3 1_555 1_555
O4_3 Co2_3 1_555 1_555
C4_3 C3_3 1_555 1_555
O28_2 C4_3 1_555 1_555
C5_3 C1_3 1_555 1_555
O6_3 C5_3 1_555 1_555
O18_2 Co9 1_555 1_555
H3_2 O18_2 1_555 1_555
H4_2 O18_2 1_555 1_555
Co2_3 O19_3 1_555 1_555
Co4_3 O6_3 1_555 1_555
O19_3 H5_3 1_555 1_555
H6_3 O19_3 1_555 1_555
O20_3 Co2_3 1_555 1_555
H7_3 O20_3 1_555 1_555
H8_3 O20_3 1_555 1_555
O24_3 Co4_3 1_555 1_555
H15_3 O24_3 1_555 1_555
H16_3 O24_3 1_555 1_555
O25_3 Co2_3 1_555 1_555
O26_3 Co2_3 1_555 1_555
O27_3 Co2_3 1_555 1_555
O31_3 Co4_3 1_555 1_555
C4_3 C5_3 1_555 1_555
H13_3 O23_3 1_555 1_555
H1_2 O3_2 1_555 1_555
C13_3 O14_2 1_555 1_555
C14_3 C13_3 1_555 1_555
O15_3 C14_3 1_555 1_555
C15_3 C14_3 1_555 1_555
O30_2 C15_3 1_555 1_555
C16_3 C13_3 1_555 1_555
O17_3 C16_3 1_555 1_555
Co13_3 O17_3 1_555 1_555
C15_3 C16_3 1_555 1_555
O25 C1_4 1_555 1_555
C1_4 C3_4 1_555 1_555
C3_4 O4_4 1_555 1_555
O4_4 Co10 1_555 1_555
C4_4 C3_4 1_555 1_555
O31_3 C4_4 1_555 1_555
C5_4 C1_4 1_555 1_555
O25_2 C5_4 1_555 1_555
C4_4 C5_4 1_555 1_555
O7_2 C6_2 1_555 1_555
O9_2 C8_2 1_555 1_555
H7_4 O20_4 1_555 1_555
O15_4 C14_4 1_555 1_555
O17_4 C16_4 1_555 1_555
C2_2 O26 1_555 1_555
O32 C7_2 1_555 1_555
C13_4 O27 1_555 1_555
O33_3 C15_4 1_555 1_555
O19_4 H5_4 1_555 1_555
Co8 O19_5 1_555 1_555
O19_5 H5_5 1_555 1_555
H6_5 O19_5 1_555 1_555
O25_4 Co8 1_555 1_555
H7_5 O20_5 1_555 1_555
O15_5 C14_5 1_555 1_555
O17_5 C16_5 1_555 1_555
C2_3 O26_2 1_555 1_555
C6_3 C2_3 1_555 1_555
O7_3 C6_3 1_555 1_555
C7_3 C6_3 1_555 1_555
O32_2 C7_3 1_555 1_555
C8_3 C2_3 1_555 1_555
O9_3 C8_3 1_555 1_555
C13_5 O27_2 1_555 1_555
O26_4 C15_5 1_555 1_555
Co7_3 O9_3 1_555 1_555
C7_3 C8_3 1_555 1_555
C2_4 O32_3 1_555 1_555
C6_4 C2_4 1_555 1_555
O7_4 C6_4 1_555 1_555
C7_4 C6_4 1_555 1_555
O26_3 C7_4 1_555 1_555
C8_4 C2_4 1_555 1_555
O9_4 C8_4 1_555 1_555
Co7_3 O7_4 1_555 1_555
C7_4 C8_4 1_555 1_555
O7_5 C6_5 1_555 1_555
O9_5 C8_5 1_555 1_555
C2_5 O27_4 1_555 1_555
O26_5 C7_5 1_555 1_555
O25_3 C1_5 1_555 1_555
C1_5 C3_5 1_555 1_555
C3_5 O25_4 1_555 1_555
C4_5 C3_5 1_555 1_555
O31 C4_5 1_555 1_555
C5_5 C1_5 1_555 1_555
O31_2 C5_5 1_555 1_555
C13_6 O27_3 1_555 1_555
C14_6 C13_6 1_555 1_555
O15_6 C14_6 1_555 1_555
C15_6 C14_6 1_555 1_555
O33 C15_6 1_555 1_555
C16_6 C13_6 1_555 1_555
O17_6 C16_6 1_555 1_555
Co11_2 O15_6 1_555 1_555
C4_5 C5_5 1_555 1_555
C15_6 C16_6 1_555 1_555
C13_7 O33_2 1_555 1_555
C14_7 C13_7 1_555 1_555
O15_7 C14_7 1_555 1_555
C15_7 C14_7 1_555 1_555
O27_5 C15_7 1_555 1_555
C16_7 C13_7 1_555 1_555
O17_7 C16_7 1_555 1_555
Co13_3 O17_7 1_555 1_555
C15_7 C16_7 1_555 1_555
O19_6 H5_6 1_555 1_555
H1_3 O3_3 1_555 1_555
Co11_3 O1_3 1_555 1_555
O1_3 C1_6 1_555 1_555
C1_6 C3_6 1_555 1_555
C3_6 O4_5 1_555 1_555
O4_5 Co7_4 1_555 1_555
C4_6 C3_6 1_555 1_555
O5_3 C4_6 1_555 1_555
C5_6 C1_6 1_555 1_555
O6_4 C5_6 1_555 1_555
O10_2 Co11_3 1_555 1_555
C9_2 O10_2 1_555 1_555
C10_2 C9_2 1_555 1_555
O11_2 C10_2 1_555 1_555
C11_2 C10_2 1_555 1_555
O12_2 C11_2 1_555 1_555
C12_2 C9_2 1_555 1_555
O13_2 C12_2 1_555 1_555
O18_3 Co11_3 1_555 1_555
H3_3 O18_3 1_555 1_555
H4_3 O18_3 1_555 1_555
Co13_3 O5_3 1_555 1_555
Co7_3 O6_4 1_555 1_555
O20_6 Co7_4 1_555 1_555
H7_6 O20_6 1_555 1_555
H8_6 O20_6 1_555 1_555
O21_3 Co13_3 1_555 1_555
H9_3 O21_3 1_555 1_555
H10_3 O21_3 1_555 1_555
O22_3 Co13_3 1_555 1_555
H11_3 O22_3 1_555 1_555
H12_3 O22_3 1_555 1_555
O23_4 Co7_3 1_555 1_555
H13_4 O23_4 1_555 1_555
H14_4 O23_4 1_555 1_555
O24_4 Co7_3 1_555 1_555
H15_4 O24_4 1_555 1_555
H16_4 O24_4 1_555 1_555
Co13_2 O11_2 1_555 1_555
Co13 O12_2 1_555 1_555
Co5 O13_2 1_555 1_555
O25_5 Co7_4 1_555 1_555
O28_3 Co13_3 1_555 1_555
O31_4 Co7_3 1_555 1_555
C4_6 C5_6 1_555 1_555
C11_2 C12_2 1_555 1_555
H1_4 O3_4 1_555 1_555
H3_4 O18_4 1_555 1_555
H7_7 O20_7 1_555 1_555
H11_4 O22_4 1_555 1_555
H15_5 O24_5 1_555 1_555
O19_7 H5_7 1_555 1_555
Co5_2 O1_4 1_555 1_555
O1_4 C1_7 1_555 1_555
C1_7 C3_7 1_555 1_555
C3_7 O4_6 1_555 1_555
O4_6 Co13 1_555 1_555
C4_7 C3_7 1_555 1_555
O5_4 C4_7 1_555 1_555
C5_7 C1_7 1_555 1_555
O6_5 C5_7 1_555 1_555
O10_3 Co5_2 1_555 1_555
C9_3 O10_3 1_555 1_555
C10_3 C9_3 1_555 1_555
O11_3 C10_3 1_555 1_555
C11_3 C10_3 1_555 1_555
O25_5 C11_3 1_555 1_555
C12_3 C9_3 1_555 1_555
O13_3 C12_3 1_555 1_555
Co7_2 O5_4 1_555 1_555
Co11 O6_5 1_555 1_555
O21_4 Co7_2 1_555 1_555
H9_4 O21_4 1_555 1_555
H10_4 O21_4 1_555 1_555
O23_5 Co11 1_555 1_555
H13_5 O23_5 1_555 1_555
H14_5 O23_5 1_555 1_555
Co7 O11_3 1_555 1_555
Co5 O13_3 1_555 1_555
O28_4 Co7_2 1_555 1_555
O31_5 Co11 1_555 1_555
C4_7 C5_7 1_555 1_555
C11_3 C12_3 1_555 1_555
O19_8 H5_8 1_555 1_555
O28_4 C1_8 1_555 1_555
C1_8 C3_8 1_555 1_555
C3_8 O4_7 1_555 1_555
O4_7 Co13_2 1_555 1_555
C4_8 C3_8 1_555 1_555
O31_4 C4_8 1_555 1_555
C5_8 C1_8 1_555 1_555
O6_6 C5_8 1_555 1_555
Co11_2 O6_6 1_555 1_555
O20_8 Co13_2 1_555 1_555
H7_8 O20_8 1_555 1_555
H8_8 O20_8 1_555 1_555
O23_6 Co11_2 1_555 1_555
H13_6 O23_6 1_555 1_555
H14_6 O23_6 1_555 1_555
O24_6 Co11_2 1_555 1_555
H15_6 O24_6 1_555 1_555
H16_6 O24_6 1_555 1_555
O31_6 Co11_2 1_555 1_555
C4_8 C5_8 1_555 1_555
O19_9 H5_9 1_555 1_555
H7_9 O20_9 1_555 1_555
H7_10 O20_10 1_555 1_555
Co7 O19_10 1_555 1_555
O19_10 H5_10 1_555 1_555
H6_10 O19_10 1_555 1_555
O25_6 Co7 1_555 1_555
O28_3 C1_9 1_555 1_555
C1_9 C3_9 1_555 1_555
C3_9 O25_6 1_555 1_555
C4_9 C3_9 1_555 1_555
O31_5 C4_9 1_555 1_555
C5_9 C1_9 1_555 1_555
O31_6 C5_9 1_555 1_555
C4_9 C5_9 1_555 1_555

#END
