
###############################################################################
#
# This file contains modified crystal structure data generated from the
# MOF subset of the Cambridge Structural Database (CSD) v543 
# hosted by the Cambridge Crystallographic Data Centre (CCDC).
#
# This work is licensed under the Creative Commons
# Attribution-NonCommercial-ShareAlike 4.0 International License.
# To view a copy of this license, visit
# http://creativecommons.org/licenses/by-nc-sa/4.0/
# or send a letter to
# Creative Commons, PO Box 1866, Mountain View, CA 94042, USA.
#
# CIF created using the CSD Python API on 29 September 2022
# The structure has been converted into the P1 space group
# The structure has a 3D framework
# The original CSD entry TIPRIT01 is in the cubic crystal system
# The framework has been calculated to contain at least 10.0% void space
# The void calculation uses a probe of radius 1.32A, grid spacing 0.4
#
###############################################################################

data_TIPRIT01
_chemical_formula_moiety         '(C96 H96 Fe18 O144)n'
_symmetry_cell_setting           triclinic
_symmetry_space_group_name_H-M   'P 1'
_symmetry_Int_Tables_number      1
_space_group_name_Hall           'P 1'
loop_
_symmetry_equiv_pos_site_id
_symmetry_equiv_pos_as_xyz
1 x,y,z
_cell_length_a                   16.3606(9)
_cell_length_b                   16.3606(9)
_cell_length_c                   16.3606(9)
_cell_angle_alpha                90
_cell_angle_beta                 90
_cell_angle_gamma                90
_cell_volume                     4379.23
loop_
_atom_site_label
_atom_site_type_symbol
_atom_site_fract_x
_atom_site_fract_y
_atom_site_fract_z
Fe6 Fe 0.498475(16) 0.001525(16) 0.2500
Fe1 Fe 0.498475(16) 0.498475(16) 0.2500
C1 C 0.30900(13) 0.48407(15) 0.22728(14)
O1 O 0.37958(10) 0.48778(12) 0.19866(10)
C2 C 0.50044(14) 0.69069(14) 0.22811(17)
O2 O 0.50261(12) 0.61950(10) 0.20032(11)
O3 O 0.46029(10) 0.53742(10) 0.36497(11)
H1 H 0.4137 0.5200 0.3818
H2 H 0.4700 0.5869 0.3797
C3 C 0.22728(14) 0.48407(15) 0.19100(13)
C4 C 0.19100(13) 0.48407(15) 0.27272(14)
C5 C 0.27272(14) 0.48407(15) 0.30900(13)
O4 O 0.30134(10) 0.48778(12) 0.37958(10)
O5 O 0.12042(10) 0.48778(12) 0.30134(10)
O6 O 0.19866(10) 0.48778(12) 0.12042(10)
C6 C 0.49956(14) 0.77189(17) 0.19069(14)
C7 C 0.50044(14) 0.80931(14) 0.27189(17)
C8 C 0.49956(14) 0.72811(17) 0.30931(14)
O7 O 0.49739(12) 0.70032(11) 0.38050(10)
O8 O 0.50261(12) 0.88050(10) 0.29968(11)
O9 O 0.49739(12) 0.79968(11) 0.11950(10)
O10 O 0.53742(10) 0.46029(10) 0.13503(11)
H3 H 0.5200 0.4137 0.1182
H4 H 0.5869 0.4700 0.1203
Fe2 Fe 0.2500 0.498475(16) 0.498475(16)
O11 O 0.13503(11) 0.53742(10) 0.46029(10)
H5 H 0.1182 0.5200 0.4137
H6 H 0.1203 0.5869 0.4700
O12 O 0.36497(11) 0.46029(10) 0.53742(10)
H7 H 0.3818 0.4137 0.5200
H8 H 0.3797 0.4700 0.5869
O13 O 0.48778(12) 0.37958(10) 0.30134(10)
O14 O 0.61950(10) 0.50261(12) 0.29968(11)
Fe3 Fe 0.001525(16) 0.498475(16) 0.2500
Fe4 Fe 0.2500 0.498475(16) 0.001525(16)
Fe5 Fe 0.501525(16) 0.7500 0.501525(16)
O15 O 0.19866(10) 0.37958(10) 0.48778(12)
O16 O 0.20032(11) 0.50261(12) 0.61950(10)
O17 O 0.29968(11) 0.61950(10) 0.50261(12)
Fe7 Fe 0.501525(16) 0.7500 0.998475(16)
C1_2 C 0.22728(14) 0.30900(13) 0.48407(15)
C2_2 C 0.22811(17) 0.50044(14) 0.69069(14)
C3_2 C 0.19100(13) 0.22728(14) 0.48407(15)
C4_2 C 0.27272(14) 0.19100(13) 0.48407(15)
C5_2 C 0.30900(13) 0.27272(14) 0.48407(15)
O4_2 O 0.37958(10) 0.30134(10) 0.48778(12)
O5_2 O 0.30134(10) 0.12042(10) 0.48778(12)
O6_2 O 0.12042(10) 0.19866(10) 0.48778(12)
C6_2 C 0.19069(14) 0.49956(14) 0.77189(17)
C7_2 C 0.27189(17) 0.50044(14) 0.80931(14)
C8_2 C 0.30931(14) 0.49956(14) 0.72811(17)
O7_2 O 0.38050(10) 0.49739(12) 0.70032(11)
O8_2 O 0.29968(11) 0.50261(12) 0.88050(10)
O9_2 O 0.11950(10) 0.49739(12) 0.79968(11)
Fe2_2 Fe 0.498475(16) 0.2500 0.498475(16)
O11_2 O 0.46029(10) 0.13503(11) 0.53742(10)
H5_2 H 0.4137 0.1182 0.5200
H6_2 H 0.4700 0.1203 0.5869
O12_2 O 0.53742(10) 0.36497(11) 0.46029(10)
H7_2 H 0.5200 0.3818 0.4137
H8_2 H 0.5869 0.3797 0.4700
Fe3_2 Fe 0.2500 0.001525(16) 0.498475(16)
Fe4_2 Fe 0.001525(16) 0.2500 0.498475(16)
Fe5_2 Fe 0.501525(16) 0.501525(16) 0.7500
O15_2 O 0.48778(12) 0.19866(10) 0.37958(10)
O16_2 O 0.61950(10) 0.20032(11) 0.50261(12)
O17_2 O 0.50261(12) 0.29968(11) 0.61950(10)
Fe7_2 Fe 0.998475(16) 0.501525(16) 0.7500
C1_3 C 0.48407(15) 0.22728(14) 0.30900(13)
C2_3 C 0.69069(14) 0.22811(17) 0.50044(14)
C3_3 C 0.48407(15) 0.19100(13) 0.22728(14)
C4_3 C 0.48407(15) 0.27272(14) 0.19100(13)
C5_3 C 0.48407(15) 0.30900(13) 0.27272(14)
O5_3 O 0.48778(12) 0.30134(10) 0.12042(10)
O6_3 O 0.48778(12) 0.12042(10) 0.19866(10)
C6_3 C 0.77189(17) 0.19069(14) 0.49956(14)
C7_3 C 0.80931(14) 0.27189(17) 0.50044(14)
C8_3 C 0.72811(17) 0.30931(14) 0.49956(14)
O7_3 O 0.70032(11) 0.38050(10) 0.49739(12)
O8_3 O 0.88050(10) 0.29968(11) 0.50261(12)
O9_3 O 0.79968(11) 0.11950(10) 0.49739(12)
Fe3_3 Fe 0.498475(16) 0.2500 0.001525(16)
Fe5_3 Fe 0.7500 0.501525(16) 0.501525(16)
Fe7_3 Fe 0.7500 0.998475(16) 0.501525(16)
C2_4 C 0.69069(14) 0.50044(14) 0.27189(17)
C6_4 C 0.77189(17) 0.49956(14) 0.30931(14)
C7_4 C 0.80931(14) 0.50044(14) 0.22811(17)
C8_4 C 0.72811(17) 0.49956(14) 0.19069(14)
O7_4 O 0.70032(11) 0.49739(12) 0.11950(10)
O8_4 O 0.88050(10) 0.50261(12) 0.20032(11)
O9_4 O 0.79968(11) 0.49739(12) 0.38050(10)
O11_3 O 0.53742(10) 0.13503(11) 0.03971(10)
H5_3 H 0.5200 0.1182 0.0863
H6_3 H 0.5869 0.1203 0.0300
O15_3 O 0.37958(10) 0.19866(10) 0.01222(12)
O12_3 O 0.46029(10) 0.36497(11) 0.96258(10)
H7_3 H 0.4137 0.3818 0.9800
H8_3 H 0.4700 0.3797 0.9131
Fe5_4 Fe 0.7500 0.501525(16) 0.998475(16)
O16_3 O 0.50261(12) 0.20032(11) 0.88050(10)
O17_3 O 0.61950(10) 0.29968(11) 0.99739(12)
Fe6_2 Fe 0.001525(16) 0.001525(16) 0.2500
O3_2 O 0.53742(10) 0.03971(10) 0.36497(11)
H1_2 H 0.5200 0.0863 0.3818
H2_2 H 0.5869 0.0300 0.3797
C6_5 C 0.77189(17) 0.00044(14) 0.19069(14)
C8_5 C 0.72811(17) 0.00044(14) 0.30931(14)
O7_5 O 0.70032(11) 0.00261(12) 0.38050(10)
O9_5 O 0.79968(11) 0.00261(12) 0.11950(10)
O13_2 O 0.37958(10) 0.01222(12) 0.30134(10)
C2_5 C 0.69069(14) 0.99956(14) 0.22811(17)
O2_2 O 0.61950(10) 0.99739(12) 0.20032(11)
C7_5 C 0.80931(14) 0.99956(14) 0.27189(17)
O8_5 O 0.88050(10) 0.99739(12) 0.29968(11)
O10_2 O 0.46029(10) 0.96258(10) 0.13503(11)
H3_2 H 0.4137 0.9800 0.1182
H4_2 H 0.4700 0.9131 0.1203
Fe7_4 Fe 0.7500 0.998475(16) 0.998475(16)
C1_4 C 0.01593(15) 0.30900(13) 0.22728(14)
O1_2 O 0.01222(12) 0.37958(10) 0.19866(10)
C3_4 C 0.01593(15) 0.22728(14) 0.19100(13)
C4_4 C 0.01593(15) 0.19100(13) 0.27272(14)
C5_4 C 0.01593(15) 0.27272(14) 0.30900(13)
O4_3 O 0.01222(12) 0.30134(10) 0.37958(10)
O5_4 O 0.01222(12) 0.12042(10) 0.30134(10)
O6_4 O 0.01222(12) 0.19866(10) 0.12042(10)
O10_3 O 0.03971(10) 0.53742(10) 0.13503(11)
H3_3 H 0.0863 0.5200 0.1182
H4_3 H 0.0300 0.5869 0.1203
O12_4 O 0.03971(10) 0.36497(11) 0.53742(10)
H7_4 H 0.0863 0.3818 0.5200
H8_4 H 0.0300 0.3797 0.5869
Fe4_3 Fe 0.001525(16) 0.2500 0.001525(16)
O3_3 O 0.96258(10) 0.46029(10) 0.36497(11)
H1_3 H 0.9800 0.4137 0.3818
H2_3 H 0.9131 0.4700 0.3797
O11_4 O 0.96258(10) 0.13503(11) 0.46029(10)
H5_4 H 0.9800 0.1182 0.4137
H6_4 H 0.9131 0.1203 0.4700
O14_2 O 0.99739(12) 0.61950(10) 0.29968(11)
O16_4 O 0.99739(12) 0.20032(11) 0.61950(10)
C1_5 C 0.30900(13) 0.22728(14) 0.01593(15)
C3_5 C 0.22728(14) 0.19100(13) 0.01593(15)
C4_5 C 0.19100(13) 0.27272(14) 0.01593(15)
C5_5 C 0.27272(14) 0.30900(13) 0.01593(15)
O4_4 O 0.30134(10) 0.37958(10) 0.01222(12)
O5_5 O 0.12042(10) 0.30134(10) 0.01222(12)
O6_5 O 0.19866(10) 0.12042(10) 0.01222(12)
O12_5 O 0.36497(11) 0.53742(10) 0.03971(10)
H7_5 H 0.3818 0.5200 0.0863
H8_5 H 0.3797 0.5869 0.0300
Fe4_4 Fe 0.2500 0.001525(16) 0.001525(16)
C2_6 C 0.50044(14) 0.22811(17) 0.80931(14)
C6_6 C 0.49956(14) 0.19069(14) 0.72811(17)
C7_6 C 0.50044(14) 0.27189(17) 0.69069(14)
C8_6 C 0.49956(14) 0.30931(14) 0.77189(17)
O7_6 O 0.49739(12) 0.38050(10) 0.79968(11)
O9_6 O 0.49739(12) 0.11950(10) 0.70032(11)
O11_5 O 0.13503(11) 0.46029(10) 0.96258(10)
H5_5 H 0.1182 0.4137 0.9800
H6_5 H 0.1203 0.4700 0.9131
O16_5 O 0.20032(11) 0.61950(10) 0.99739(12)
Fe7_5 Fe 0.501525(16) 0.998475(16) 0.7500
C6_7 C 0.00044(14) 0.19069(14) 0.77189(17)
C8_7 C 0.00044(14) 0.30931(14) 0.72811(17)
O7_7 O 0.00261(12) 0.38050(10) 0.70032(11)
O9_7 O 0.00261(12) 0.11950(10) 0.79968(11)
C2_7 C 0.99956(14) 0.22811(17) 0.69069(14)
C7_7 C 0.99956(14) 0.27189(17) 0.80931(14)
O8_6 O 0.99739(12) 0.29968(11) 0.88050(10)
Fe7_6 Fe 0.998475(16) 0.998475(16) 0.7500
O11_6 O 0.13503(11) 0.03971(10) 0.53742(10)
H5_6 H 0.1182 0.0863 0.5200
H6_6 H 0.1203 0.0300 0.5869
O15_4 O 0.19866(10) 0.01222(12) 0.37958(10)
O12_6 O 0.36497(11) 0.96258(10) 0.46029(10)
H7_6 H 0.3818 0.9800 0.4137
H8_6 H 0.3797 0.9131 0.4700
O16_6 O 0.20032(11) 0.88050(10) 0.50261(12)
O17_4 O 0.29968(11) 0.99739(12) 0.61950(10)
C6_8 C 0.19069(14) 0.77189(17) 0.00044(14)
C8_8 C 0.30931(14) 0.72811(17) 0.00044(14)
O7_8 O 0.38050(10) 0.70032(11) 0.00261(12)
O9_8 O 0.11950(10) 0.79968(11) 0.00261(12)
C2_8 C 0.22811(17) 0.69069(14) 0.99956(14)
C7_8 C 0.27189(17) 0.80931(14) 0.99956(14)
O8_7 O 0.29968(11) 0.88050(10) 0.99739(12)
Fe7_7 Fe 0.998475(16) 0.7500 0.998475(16)
C1_6 C 0.22728(14) 0.01593(15) 0.30900(13)
C3_6 C 0.19100(13) 0.01593(15) 0.22728(14)
C4_6 C 0.27272(14) 0.01593(15) 0.19100(13)
C5_6 C 0.30900(13) 0.01593(15) 0.27272(14)
O5_6 O 0.30134(10) 0.01222(12) 0.12042(10)
O6_6 O 0.12042(10) 0.01222(12) 0.19866(10)
C2_9 C 0.22811(17) 0.80931(14) 0.50044(14)
C6_9 C 0.19069(14) 0.72811(17) 0.49956(14)
C7_9 C 0.27189(17) 0.69069(14) 0.50044(14)
C8_9 C 0.30931(14) 0.77189(17) 0.49956(14)
O7_9 O 0.38050(10) 0.79968(11) 0.49739(12)
O9_9 O 0.11950(10) 0.70032(11) 0.49739(12)
Fe7_8 Fe 0.998475(16) 0.7500 0.501525(16)
O3_4 O 0.03971(10) 0.96258(10) 0.36497(11)
H1_4 H 0.0863 0.9800 0.3818
H2_4 H 0.0300 0.9131 0.3797
C6_10 C 0.00044(14) 0.72811(17) 0.19069(14)
C8_10 C 0.00044(14) 0.77189(17) 0.30931(14)
O7_10 O 0.00261(12) 0.79968(11) 0.38050(10)
O9_10 O 0.00261(12) 0.70032(11) 0.11950(10)
O10_4 O 0.96258(10) 0.03971(10) 0.13503(11)
H3_4 H 0.9800 0.0863 0.1182
H4_4 H 0.9131 0.0300 0.1203
C2_10 C 0.99956(14) 0.80931(14) 0.22811(17)
O2_3 O 0.99739(12) 0.88050(10) 0.20032(11)
C7_10 C 0.99956(14) 0.69069(14) 0.27189(17)
O12_7 O 0.36497(11) 0.03971(10) 0.96258(10)
H7_7 H 0.3818 0.0863 0.9800
H8_7 H 0.3797 0.0300 0.9131
O11_7 O 0.13503(11) 0.96258(10) 0.03971(10)
H5_7 H 0.1182 0.9800 0.0863
H6_7 H 0.1203 0.9131 0.0300
O16_7 O 0.20032(11) 0.99739(12) 0.88050(10)
C6_11 C 0.19069(14) 0.00044(14) 0.72811(17)
C8_11 C 0.30931(14) 0.00044(14) 0.77189(17)
O7_11 O 0.38050(10) 0.00261(12) 0.79968(11)
O9_11 O 0.11950(10) 0.00261(12) 0.70032(11)
C2_11 C 0.22811(17) 0.99956(14) 0.80931(14)
C7_11 C 0.27189(17) 0.99956(14) 0.69069(14)
O11_8 O 0.03971(10) 0.13503(11) 0.96258(10)
H5_8 H 0.0863 0.1182 0.9800
H6_8 H 0.0300 0.1203 0.9131
O12_8 O 0.96258(10) 0.36497(11) 0.03971(10)
H7_8 H 0.9800 0.3818 0.0863
H8_8 H 0.9131 0.3797 0.0300
O16_8 O 0.88050(10) 0.20032(11) 0.99739(12)
C6_12 C 0.72811(17) 0.19069(14) 0.00044(14)
C8_12 C 0.77189(17) 0.30931(14) 0.00044(14)
O7_12 O 0.79968(11) 0.38050(10) 0.00261(12)
O9_12 O 0.70032(11) 0.11950(10) 0.00261(12)
C2_12 C 0.80931(14) 0.22811(17) 0.99956(14)
C7_12 C 0.69069(14) 0.27189(17) 0.99956(14)
C1_7 C 0.69100(13) 0.51593(15) 0.77272(14)
O1_3 O 0.62042(10) 0.51222(12) 0.80134(10)
O3_5 O 0.53971(10) 0.46258(10) 0.63503(11)
H1_5 H 0.5863 0.4800 0.6182
H2_5 H 0.5300 0.4131 0.6203
C3_7 C 0.77272(14) 0.51593(15) 0.80900(13)
C4_7 C 0.80900(13) 0.51593(15) 0.72728(14)
C5_7 C 0.72728(14) 0.51593(15) 0.69100(13)
O4_5 O 0.69866(10) 0.51222(12) 0.62042(10)
O5_7 O 0.87958(10) 0.51222(12) 0.69866(10)
O6_7 O 0.80134(10) 0.51222(12) 0.87958(10)
O10_5 O 0.46258(10) 0.53971(10) 0.86497(11)
H3_5 H 0.4800 0.5863 0.8818
H4_5 H 0.4131 0.5300 0.8797
O11_9 O 0.86497(11) 0.46258(10) 0.53971(10)
H5_9 H 0.8818 0.4800 0.5863
H6_9 H 0.8797 0.4131 0.5300
O12_9 O 0.63503(11) 0.53971(10) 0.46258(10)
H7_9 H 0.6182 0.5863 0.4800
H8_9 H 0.6203 0.5300 0.4131
O13_3 O 0.51222(12) 0.62042(10) 0.69866(10)
O15_5 O 0.80134(10) 0.62042(10) 0.51222(12)
C1_8 C 0.77272(14) 0.69100(13) 0.51593(15)
C3_8 C 0.80900(13) 0.77272(14) 0.51593(15)
C4_8 C 0.72728(14) 0.80900(13) 0.51593(15)
C5_8 C 0.69100(13) 0.72728(14) 0.51593(15)
O4_6 O 0.62042(10) 0.69866(10) 0.51222(12)
O5_8 O 0.69866(10) 0.87958(10) 0.51222(12)
O6_8 O 0.87958(10) 0.80134(10) 0.51222(12)
O11_10 O 0.53971(10) 0.86497(11) 0.46258(10)
H5_10 H 0.5863 0.8818 0.4800
H6_10 H 0.5300 0.8797 0.4131
O12_10 O 0.46258(10) 0.63503(11) 0.53971(10)
H7_10 H 0.4800 0.6182 0.5863
H8_10 H 0.4131 0.6203 0.5300
O15_6 O 0.51222(12) 0.80134(10) 0.62042(10)
C1_9 C 0.51593(15) 0.77272(14) 0.69100(13)
C3_9 C 0.51593(15) 0.80900(13) 0.77272(14)
C4_9 C 0.51593(15) 0.72728(14) 0.80900(13)
C5_9 C 0.51593(15) 0.69100(13) 0.72728(14)
O5_9 O 0.51222(12) 0.69866(10) 0.87958(10)
O6_9 O 0.51222(12) 0.87958(10) 0.80134(10)
O12_11 O 0.53971(10) 0.63503(11) 0.03742(10)
H7_11 H 0.5863 0.6182 0.0200
H8_11 H 0.5300 0.6203 0.0869
O11_11 O 0.46258(10) 0.86497(11) 0.96029(10)
H5_11 H 0.4800 0.8818 0.9137
H6_11 H 0.4131 0.8797 0.9700
O15_7 O 0.62042(10) 0.80134(10) 0.98778(12)
O10_6 O 0.53971(10) 0.03742(10) 0.86497(11)
H3_6 H 0.5863 0.0200 0.8818
H4_6 H 0.5300 0.0869 0.8797
O3_6 O 0.46258(10) 0.96029(10) 0.63503(11)
H1_6 H 0.4800 0.9137 0.6182
H2_6 H 0.4131 0.9700 0.6203
O13_4 O 0.62042(10) 0.98778(12) 0.69866(10)
O3_7 O 0.03742(10) 0.53971(10) 0.63503(11)
H1_7 H 0.0200 0.5863 0.6182
H2_7 H 0.0869 0.5300 0.6203
O11_12 O 0.03742(10) 0.86497(11) 0.53971(10)
H5_12 H 0.0200 0.8818 0.5863
H6_12 H 0.0869 0.8797 0.5300
C1_10 C 0.98407(15) 0.69100(13) 0.77272(14)
O1_4 O 0.98778(12) 0.62042(10) 0.80134(10)
C3_10 C 0.98407(15) 0.77272(14) 0.80900(13)
C4_10 C 0.98407(15) 0.80900(13) 0.72728(14)
C5_10 C 0.98407(15) 0.72728(14) 0.69100(13)
O4_7 O 0.98778(12) 0.69866(10) 0.62042(10)
O5_10 O 0.98778(12) 0.87958(10) 0.69866(10)
O6_10 O 0.98778(12) 0.80134(10) 0.87958(10)
O10_7 O 0.96029(10) 0.46258(10) 0.86497(11)
H3_7 H 0.9137 0.4800 0.8818
H4_7 H 0.9700 0.4131 0.8797
O12_12 O 0.96029(10) 0.63503(11) 0.46258(10)
H7_12 H 0.9137 0.6182 0.4800
H8_12 H 0.9700 0.6203 0.4131
O11_13 O 0.86497(11) 0.53971(10) 0.03742(10)
H5_13 H 0.8818 0.5863 0.0200
H6_13 H 0.8797 0.5300 0.0869
C1_11 C 0.69100(13) 0.77272(14) 0.98407(15)
C3_11 C 0.77272(14) 0.80900(13) 0.98407(15)
C4_11 C 0.80900(13) 0.72728(14) 0.98407(15)
C5_11 C 0.72728(14) 0.69100(13) 0.98407(15)
O4_8 O 0.69866(10) 0.62042(10) 0.98778(12)
O5_11 O 0.87958(10) 0.69866(10) 0.98778(12)
O6_11 O 0.80134(10) 0.87958(10) 0.98778(12)
O12_13 O 0.63503(11) 0.46258(10) 0.96029(10)
H7_13 H 0.6182 0.4800 0.9137
H8_13 H 0.6203 0.4131 0.9700
O12_14 O 0.63503(11) 0.03742(10) 0.53971(10)
H7_14 H 0.6182 0.0200 0.5863
H8_14 H 0.6203 0.0869 0.5300
O11_14 O 0.86497(11) 0.96029(10) 0.46258(10)
H5_14 H 0.8818 0.9137 0.4800
H6_14 H 0.8797 0.9700 0.4131
O15_8 O 0.80134(10) 0.98778(12) 0.62042(10)
C1_12 C 0.77272(14) 0.98407(15) 0.69100(13)
C3_12 C 0.80900(13) 0.98407(15) 0.77272(14)
C4_12 C 0.72728(14) 0.98407(15) 0.80900(13)
C5_12 C 0.69100(13) 0.98407(15) 0.72728(14)
O5_12 O 0.69866(10) 0.98778(12) 0.87958(10)
O6_12 O 0.87958(10) 0.98778(12) 0.80134(10)
O10_8 O 0.03742(10) 0.96029(10) 0.86497(11)
H3_8 H 0.0200 0.9137 0.8818
H4_8 H 0.0869 0.9700 0.8797
O3_8 O 0.96029(10) 0.03742(10) 0.63503(11)
H1_8 H 0.9137 0.0200 0.6182
H2_8 H 0.9700 0.0869 0.6203
O11_15 O 0.86497(11) 0.03742(10) 0.96029(10)
H5_15 H 0.8818 0.0200 0.9137
H6_15 H 0.8797 0.0869 0.9700
O12_15 O 0.63503(11) 0.96029(10) 0.03742(10)
H7_15 H 0.6182 0.9137 0.0200
H8_15 H 0.6203 0.9700 0.0869
O12_16 O 0.03742(10) 0.63503(11) 0.96029(10)
H7_16 H 0.0200 0.6182 0.9137
H8_16 H 0.0869 0.6203 0.9700
O11_16 O 0.96029(10) 0.86497(11) 0.03742(10)
H5_16 H 0.9137 0.8818 0.0200
H6_16 H 0.9700 0.8797 0.0869
loop_
_geom_bond_atom_site_label_1
_geom_bond_atom_site_label_2
_geom_bond_site_symmetry_1
_geom_bond_site_symmetry_2
Fe1 O1 1_555 1_555
C1 O1 1_555 1_555
C2 O2 1_555 1_555
O2 Fe1 1_555 1_555
O3 Fe1 1_555 1_555
H1 O3 1_555 1_555
H2 O3 1_555 1_555
C3 C1 1_555 1_555
C4 C3 1_555 1_555
C5 C1 1_555 1_555
O4 C5 1_555 1_555
O5 C4 1_555 1_555
O6 C3 1_555 1_555
C6 C2 1_555 1_555
C7 C6 1_555 1_555
C8 C2 1_555 1_555
O7 C8 1_555 1_555
O8 C7 1_555 1_555
O9 C6 1_555 1_555
O10 Fe1 1_555 1_555
H3 O10 1_555 1_555
H4 O10 1_555 1_555
Fe2 O4 1_555 1_555
O11 Fe2 1_555 1_555
H5 O11 1_555 1_555
H6 O11 1_555 1_555
O12 Fe2 1_555 1_555
H7 O12 1_555 1_555
H8 O12 1_555 1_555
O13 Fe1 1_555 1_555
O14 Fe1 1_555 1_555
Fe3 O5 1_555 1_555
Fe4 O6 1_555 1_555
Fe5 O7 1_555 1_555
O15 Fe2 1_555 1_555
O16 Fe2 1_555 1_555
O17 Fe2 1_555 1_555
C4 C5 1_555 1_555
C7 C8 1_555 1_555
C1_2 O15 1_555 1_555
C2_2 O16 1_555 1_555
C3_2 C1_2 1_555 1_555
C4_2 C3_2 1_555 1_555
C5_2 C1_2 1_555 1_555
O4_2 C5_2 1_555 1_555
O5_2 C4_2 1_555 1_555
O6_2 C3_2 1_555 1_555
C6_2 C2_2 1_555 1_555
C7_2 C6_2 1_555 1_555
C8_2 C2_2 1_555 1_555
O7_2 C8_2 1_555 1_555
O8_2 C7_2 1_555 1_555
O9_2 C6_2 1_555 1_555
Fe2_2 O4_2 1_555 1_555
O11_2 Fe2_2 1_555 1_555
H5_2 O11_2 1_555 1_555
H6_2 O11_2 1_555 1_555
O12_2 Fe2_2 1_555 1_555
H7_2 O12_2 1_555 1_555
H8_2 O12_2 1_555 1_555
Fe3_2 O5_2 1_555 1_555
Fe4_2 O6_2 1_555 1_555
Fe5_2 O7_2 1_555 1_555
O15_2 Fe2_2 1_555 1_555
O16_2 Fe2_2 1_555 1_555
O17_2 Fe2_2 1_555 1_555
C4_2 C5_2 1_555 1_555
C7_2 C8_2 1_555 1_555
C1_3 O15_2 1_555 1_555
C2_3 O16_2 1_555 1_555
C3_3 C1_3 1_555 1_555
C4_3 C3_3 1_555 1_555
C5_3 C1_3 1_555 1_555
O13 C5_3 1_555 1_555
O5_3 C4_3 1_555 1_555
O6_3 C3_3 1_555 1_555
C6_3 C2_3 1_555 1_555
C7_3 C6_3 1_555 1_555
C8_3 C2_3 1_555 1_555
O7_3 C8_3 1_555 1_555
O8_3 C7_3 1_555 1_555
O9_3 C6_3 1_555 1_555
Fe3_3 O5_3 1_555 1_555
Fe6 O6_3 1_555 1_555
Fe5_3 O7_3 1_555 1_555
C4_3 C5_3 1_555 1_555
C7_3 C8_3 1_555 1_555
C2_4 O14 1_555 1_555
C6_4 C2_4 1_555 1_555
C7_4 C6_4 1_555 1_555
C8_4 C2_4 1_555 1_555
O7_4 C8_4 1_555 1_555
O8_4 C7_4 1_555 1_555
O9_4 C6_4 1_555 1_555
O11_3 Fe3_3 1_555 1_555
H5_3 O11_3 1_555 1_555
H6_3 O11_3 1_555 1_555
Fe5_3 O9_4 1_555 1_555
O15_3 Fe3_3 1_555 1_555
C7_4 C8_4 1_555 1_555
H7_3 O12_3 1_555 1_555
H8_3 O12_3 1_555 1_555
O3_2 Fe6 1_555 1_555
H1_2 O3_2 1_555 1_555
H2_2 O3_2 1_555 1_555
O7_5 C8_5 1_555 1_555
O9_5 C6_5 1_555 1_555
O13_2 Fe6 1_555 1_555
C2_5 O2_2 1_555 1_555
O8_5 C7_5 1_555 1_555
H3_2 O10_2 1_555 1_555
H4_2 O10_2 1_555 1_555
Fe3 O1_2 1_555 1_555
C1_4 O1_2 1_555 1_555
C3_4 C1_4 1_555 1_555
C4_4 C3_4 1_555 1_555
C5_4 C1_4 1_555 1_555
O4_3 C5_4 1_555 1_555
O5_4 C4_4 1_555 1_555
O6_4 C3_4 1_555 1_555
O10_3 Fe3 1_555 1_555
H3_3 O10_3 1_555 1_555
H4_3 O10_3 1_555 1_555
Fe4_2 O4_3 1_555 1_555
O12_4 Fe4_2 1_555 1_555
H7_4 O12_4 1_555 1_555
H8_4 O12_4 1_555 1_555
Fe6_2 O5_4 1_555 1_555
Fe4_3 O6_4 1_555 1_555
C4_4 C5_4 1_555 1_555
H1_3 O3_3 1_555 1_555
H2_3 O3_3 1_555 1_555
H5_4 O11_4 1_555 1_555
H6_4 O11_4 1_555 1_555
C1_5 O15_3 1_555 1_555
C3_5 C1_5 1_555 1_555
C4_5 C3_5 1_555 1_555
C5_5 C1_5 1_555 1_555
O4_4 C5_5 1_555 1_555
O5_5 C4_5 1_555 1_555
O6_5 C3_5 1_555 1_555
Fe4 O4_4 1_555 1_555
O12_5 Fe4 1_555 1_555
H7_5 O12_5 1_555 1_555
H8_5 O12_5 1_555 1_555
Fe4_3 O5_5 1_555 1_555
Fe4_4 O6_5 1_555 1_555
C4_5 C5_5 1_555 1_555
C2_6 O16_3 1_555 1_555
C6_6 C2_6 1_555 1_555
C7_6 C6_6 1_555 1_555
C8_6 C2_6 1_555 1_555
O7_6 C8_6 1_555 1_555
O17_2 C7_6 1_555 1_555
O9_6 C6_6 1_555 1_555
H5_5 O11_5 1_555 1_555
H6_5 O11_5 1_555 1_555
Fe5_2 O7_6 1_555 1_555
C7_6 C8_6 1_555 1_555
O7_7 C8_7 1_555 1_555
O9_7 C6_7 1_555 1_555
C2_7 O16_4 1_555 1_555
O8_6 C7_7 1_555 1_555
O11_6 Fe3_2 1_555 1_555
H5_6 O11_6 1_555 1_555
H6_6 O11_6 1_555 1_555
O15_4 Fe3_2 1_555 1_555
H7_6 O12_6 1_555 1_555
H8_6 O12_6 1_555 1_555
O7_8 C8_8 1_555 1_555
O9_8 C6_8 1_555 1_555
C2_8 O16_5 1_555 1_555
O8_7 C7_8 1_555 1_555
C1_6 O15_4 1_555 1_555
C3_6 C1_6 1_555 1_555
C4_6 C3_6 1_555 1_555
C5_6 C1_6 1_555 1_555
O13_2 C5_6 1_555 1_555
O5_6 C4_6 1_555 1_555
O6_6 C3_6 1_555 1_555
Fe4_4 O5_6 1_555 1_555
Fe6_2 O6_6 1_555 1_555
C4_6 C5_6 1_555 1_555
C2_9 O16_6 1_555 1_555
C6_9 C2_9 1_555 1_555
C7_9 C6_9 1_555 1_555
C8_9 C2_9 1_555 1_555
O7_9 C8_9 1_555 1_555
O17 C7_9 1_555 1_555
O9_9 C6_9 1_555 1_555
Fe5 O7_9 1_555 1_555
C7_9 C8_9 1_555 1_555
H1_4 O3_4 1_555 1_555
H2_4 O3_4 1_555 1_555
O7_10 C8_10 1_555 1_555
O9_10 C6_10 1_555 1_555
H3_4 O10_4 1_555 1_555
H4_4 O10_4 1_555 1_555
C2_10 O2_3 1_555 1_555
O14_2 C7_10 1_555 1_555
H7_7 O12_7 1_555 1_555
H8_7 O12_7 1_555 1_555
H5_7 O11_7 1_555 1_555
H6_7 O11_7 1_555 1_555
O7_11 C8_11 1_555 1_555
O9_11 C6_11 1_555 1_555
C2_11 O16_7 1_555 1_555
O17_4 C7_11 1_555 1_555
H5_8 O11_8 1_555 1_555
H6_8 O11_8 1_555 1_555
H7_8 O12_8 1_555 1_555
H8_8 O12_8 1_555 1_555
O7_12 C8_12 1_555 1_555
O9_12 C6_12 1_555 1_555
C2_12 O16_8 1_555 1_555
O17_3 C7_12 1_555 1_555
Fe5_2 O1_3 1_555 1_555
C1_7 O1_3 1_555 1_555
O3_5 Fe5_2 1_555 1_555
H1_5 O3_5 1_555 1_555
H2_5 O3_5 1_555 1_555
C3_7 C1_7 1_555 1_555
C4_7 C3_7 1_555 1_555
C5_7 C1_7 1_555 1_555
O4_5 C5_7 1_555 1_555
O5_7 C4_7 1_555 1_555
O6_7 C3_7 1_555 1_555
O10_5 Fe5_2 1_555 1_555
H3_5 O10_5 1_555 1_555
H4_5 O10_5 1_555 1_555
Fe5_3 O4_5 1_555 1_555
O11_9 Fe5_3 1_555 1_555
H5_9 O11_9 1_555 1_555
H6_9 O11_9 1_555 1_555
O12_9 Fe5_3 1_555 1_555
H7_9 O12_9 1_555 1_555
H8_9 O12_9 1_555 1_555
O13_3 Fe5_2 1_555 1_555
Fe7_2 O5_7 1_555 1_555
Fe5_4 O6_7 1_555 1_555
O15_5 Fe5_3 1_555 1_555
C4_7 C5_7 1_555 1_555
C1_8 O15_5 1_555 1_555
C3_8 C1_8 1_555 1_555
C4_8 C3_8 1_555 1_555
C5_8 C1_8 1_555 1_555
O4_6 C5_8 1_555 1_555
O5_8 C4_8 1_555 1_555
O6_8 C3_8 1_555 1_555
Fe5 O4_6 1_555 1_555
O11_10 Fe5 1_555 1_555
H5_10 O11_10 1_555 1_555
H6_10 O11_10 1_555 1_555
O12_10 Fe5 1_555 1_555
H7_10 O12_10 1_555 1_555
H8_10 O12_10 1_555 1_555
Fe7_3 O5_8 1_555 1_555
Fe7_8 O6_8 1_555 1_555
O15_6 Fe5 1_555 1_555
C4_8 C5_8 1_555 1_555
C1_9 O15_6 1_555 1_555
C3_9 C1_9 1_555 1_555
C4_9 C3_9 1_555 1_555
C5_9 C1_9 1_555 1_555
O13_3 C5_9 1_555 1_555
O5_9 C4_9 1_555 1_555
O6_9 C3_9 1_555 1_555
Fe7 O5_9 1_555 1_555
Fe7_5 O6_9 1_555 1_555
C4_9 C5_9 1_555 1_555
H7_11 O12_11 1_555 1_555
H8_11 O12_11 1_555 1_555
O11_11 Fe7 1_555 1_555
H5_11 O11_11 1_555 1_555
H6_11 O11_11 1_555 1_555
O15_7 Fe7 1_555 1_555
H3_6 O10_6 1_555 1_555
H4_6 O10_6 1_555 1_555
O3_6 Fe7_5 1_555 1_555
H1_6 O3_6 1_555 1_555
H2_6 O3_6 1_555 1_555
O13_4 Fe7_5 1_555 1_555
H1_7 O3_7 1_555 1_555
H2_7 O3_7 1_555 1_555
H5_12 O11_12 1_555 1_555
H6_12 O11_12 1_555 1_555
Fe7_2 O1_4 1_555 1_555
C1_10 O1_4 1_555 1_555
C3_10 C1_10 1_555 1_555
C4_10 C3_10 1_555 1_555
C5_10 C1_10 1_555 1_555
O4_7 C5_10 1_555 1_555
O5_10 C4_10 1_555 1_555
O6_10 C3_10 1_555 1_555
O10_7 Fe7_2 1_555 1_555
H3_7 O10_7 1_555 1_555
H4_7 O10_7 1_555 1_555
Fe7_8 O4_7 1_555 1_555
O12_12 Fe7_8 1_555 1_555
H7_12 O12_12 1_555 1_555
H8_12 O12_12 1_555 1_555
Fe7_6 O5_10 1_555 1_555
Fe7_7 O6_10 1_555 1_555
C4_10 C5_10 1_555 1_555
H5_13 O11_13 1_555 1_555
H6_13 O11_13 1_555 1_555
C1_11 O15_7 1_555 1_555
C3_11 C1_11 1_555 1_555
C4_11 C3_11 1_555 1_555
C5_11 C1_11 1_555 1_555
O4_8 C5_11 1_555 1_555
O5_11 C4_11 1_555 1_555
O6_11 C3_11 1_555 1_555
Fe5_4 O4_8 1_555 1_555
O12_13 Fe5_4 1_555 1_555
H7_13 O12_13 1_555 1_555
H8_13 O12_13 1_555 1_555
Fe7_7 O5_11 1_555 1_555
Fe7_4 O6_11 1_555 1_555
C4_11 C5_11 1_555 1_555
H7_14 O12_14 1_555 1_555
H8_14 O12_14 1_555 1_555
O11_14 Fe7_3 1_555 1_555
H5_14 O11_14 1_555 1_555
H6_14 O11_14 1_555 1_555
O15_8 Fe7_3 1_555 1_555
C1_12 O15_8 1_555 1_555
C3_12 C1_12 1_555 1_555
C4_12 C3_12 1_555 1_555
C5_12 C1_12 1_555 1_555
O13_4 C5_12 1_555 1_555
O5_12 C4_12 1_555 1_555
O6_12 C3_12 1_555 1_555
Fe7_4 O5_12 1_555 1_555
Fe7_6 O6_12 1_555 1_555
C4_12 C5_12 1_555 1_555
H3_8 O10_8 1_555 1_555
H4_8 O10_8 1_555 1_555
H1_8 O3_8 1_555 1_555
H2_8 O3_8 1_555 1_555
H5_15 O11_15 1_555 1_555
H6_15 O11_15 1_555 1_555
H7_15 O12_15 1_555 1_555
H8_15 O12_15 1_555 1_555
H7_16 O12_16 1_555 1_555
H8_16 O12_16 1_555 1_555
H5_16 O11_16 1_555 1_555
H6_16 O11_16 1_555 1_555

#END
