
###############################################################################
#
# This file contains modified crystal structure data generated from the
# MOF subset of the Cambridge Structural Database (CSD) v543 
# hosted by the Cambridge Crystallographic Data Centre (CCDC).
#
# This work is licensed under the Creative Commons
# Attribution-NonCommercial-ShareAlike 4.0 International License.
# To view a copy of this license, visit
# http://creativecommons.org/licenses/by-nc-sa/4.0/
# or send a letter to
# Creative Commons, PO Box 1866, Mountain View, CA 94042, USA.
#
# CIF created using the CSD Python API on 29 September 2022
# The structure has been converted into the P1 space group
# The structure has a 3D framework
# The original CSD entry TIQHAD is in the tetragonal crystal system
# The framework has been calculated to contain at least 10.0% void space
# The void calculation uses a probe of radius 1.32A, grid spacing 0.4
# H atom positions have been added when not included in the experimental data
# Generated hydrogen atom positions removed from atoms on special positions
#
###############################################################################

data_TIQHAD
_chemical_formula_moiety         '(C40 H40 Cl1 Gd8 N8 Na6 O38 S8)n'
_symmetry_cell_setting           triclinic
_symmetry_space_group_name_H-M   'P 1'
_symmetry_Int_Tables_number      1
_space_group_name_Hall           'P 1'
loop_
_symmetry_equiv_pos_site_id
_symmetry_equiv_pos_as_xyz
1 x,y,z
_cell_length_a                   12.234(5)
_cell_length_b                   12.234(5)
_cell_length_c                   12.373(5)
_cell_angle_alpha                90
_cell_angle_beta                 90
_cell_angle_gamma                90
_cell_volume                     1851.88
loop_
_atom_site_label
_atom_site_type_symbol
_atom_site_fract_x
_atom_site_fract_y
_atom_site_fract_z
C1 C 0.2364(6) 0.1317(7) 0.1794(6)
H1 H 0.2801 0.1073 0.1228
C2 C 0.2788(6) 0.1362(7) 0.2817(6)
H2 H 0.3508 0.1157 0.2947
C3 C 0.2114(5) 0.1725(5) 0.3670(6)
C4 C 0.1027(6) 0.1997(6) 0.3464(6)
H3 H 0.0562 0.2202 0.4023
C5 C 0.0653(5) 0.1953(5) 0.2409(5)
N1 N 0.1318(5) 0.1622(5) 0.1592(5)
O1 O 0.0943(4) 0.1570(4) 0.0591(4)
O3 O 0.3311(4) 0.0860(4) 0.5125(6)
O4 O 0.3326(4) 0.2837(4) 0.4962(7)
O5 O 0.1740(5) 0.1916(5) 0.5722(4)
Na1 Na 0.5000 0.0000 0.5130(5)
Na2 Na 0.5287(3) 0.2782(6) 0.4933(6)
S1 S 0.26585(12) 0.18359(12) 0.4998(2)
Gd1 Gd 0.0000 0.0000 0.0000
Cl1 Cl 0.5000 0.5000 0.5000
O9 O 0.5828(6) 0.1178(6) 0.3832(6)
O10 O 0.5090(14) 0.3485(14) 0.3204(14)
O25 O 0.7163(4) 0.3326(4) 0.5038(7)
O35 O 0.5400(5) 0.1437(5) 0.6499(5)
O47 O 0.5118(5) 0.3284(5) 0.7068(9)
Na4 Na -0.0000 0.5000 0.4870(5)
Na13 Na 0.2782(6) 0.4713(3) 0.5067(6)
Na15 Na 0.4713(3) 0.7218(6) 0.4933(6)
Na16 Na 0.7218(6) 0.5287(3) 0.5067(6)
Gd1_2 Gd -0.0000 -0.0000 1.0000
C27 C 0.2364(6) 0.0452(5) 0.7859(5)
C30 C 0.3424(6) 0.0727(6) 0.7618(6)
H17 H 0.3893 0.0197 0.7344
C33 C 0.3808(6) 0.1785(6) 0.7776(6)
C36 C 0.3087(7) 0.2543(6) 0.8250(6)
H20 H 0.3325 0.3247 0.8408
C39 C 0.2034(6) 0.2239(5) 0.8477(6)
H23 H 0.1555 0.2752 0.8766
N7 N 0.1677(5) 0.1225(5) 0.8292(4)
O15 O 0.0654(4) 0.0968(4) 0.8463(4)
O42 O 0.5827(5) 0.1924(7) 0.8337(6)
S7 S 0.51576(14) 0.21338(15) 0.74035(16)
H27 H 0.57736 0.113931 0.85353
Na1_2 Na 0.5000 1.0000 0.5130(5)
Gd1_3 Gd 0.0000 1.0000 0.0000
C26 C 0.0452(5) 0.7636(6) 0.2141(5)
C29 C 0.0727(6) 0.6576(6) 0.2382(6)
H16 H 0.0197 0.6107 0.2656
C32 C 0.1785(6) 0.6192(6) 0.2224(6)
C35 C 0.2543(6) 0.6913(7) 0.1750(6)
H19 H 0.3247 0.6675 0.1592
C38 C 0.2239(5) 0.7966(6) 0.1523(6)
H22 H 0.2752 0.8445 0.1234
N6 N 0.1225(5) 0.8323(5) 0.1708(4)
O14 O 0.0968(4) 0.9346(4) 0.1537(4)
O20 O 0.6689(4) 0.9140(4) 0.5125(6)
O32 O 0.1437(5) 0.4600(5) 0.3501(5)
O36 O 0.4600(5) 0.8563(5) 0.6499(5)
O41 O 0.1924(7) 0.4173(5) 0.1663(6)
O44 O 0.3284(5) 0.4882(5) 0.2932(9)
S6 S 0.21338(15) 0.48424(14) 0.25965(16)
O51 O 0.4172(6) 0.8822(6) 0.3832(6)
Gd1_4 Gd 0.0000 1.0000 1.0000
C12 C 0.1317(7) 0.7636(6) 0.8206(6)
H8 H 0.1073 0.7199 0.8772
C15 C 0.1362(7) 0.7212(6) 0.7183(6)
H11 H 0.1157 0.6492 0.7053
C18 C 0.1725(5) 0.7886(5) 0.6330(6)
C21 C 0.1997(6) 0.8973(6) 0.6536(6)
H14 H 0.2202 0.9438 0.5977
C24 C 0.1953(5) 0.9347(5) 0.7591(5)
N4 N 0.1622(5) 0.8682(5) 0.8408(5)
O12 O 0.1570(4) 0.9057(4) 0.9409(4)
O18 O 0.0860(4) 0.6689(4) 0.4875(6)
O23 O 0.2837(4) 0.6674(4) 0.5038(7)
O30 O 0.1916(5) 0.8260(5) 0.4278(4)
S4 S 0.18359(12) 0.73415(12) 0.5002(2)
O54 O 0.1178(6) 0.4172(6) 0.6168(6)
O57 O 0.3485(14) 0.4910(14) 0.6796(14)
C6 C 0.9548(5) 0.2364(6) 0.2141(5)
C7 C 0.9273(6) 0.3424(6) 0.2382(6)
H4 H 0.9803 0.3893 0.2656
C8 C 0.8215(6) 0.3808(6) 0.2224(6)
C9 C 0.7457(6) 0.3087(7) 0.1750(6)
H5 H 0.6753 0.3325 0.1592
C10 C 0.7761(5) 0.2034(6) 0.1523(6)
H6 H 0.7248 0.1555 0.1234
N2 N 0.8775(5) 0.1677(5) 0.1708(4)
O2 O 0.9032(4) 0.0654(4) 0.1537(4)
O6 O 0.8563(5) 0.5400(5) 0.3501(5)
O7 O 0.8076(7) 0.5827(5) 0.1663(6)
O8 O 0.6716(5) 0.5118(5) 0.2932(9)
S2 S 0.78662(15) 0.51576(14) 0.25965(16)
Gd1_5 Gd 1.0000 0.0000 0.0000
Na4_2 Na 1.0000 0.5000 0.4870(5)
Gd1_6 Gd 1.0000 -0.0000 1.0000
C13 C 0.8683(7) 0.2364(6) 0.8206(6)
H9 H 0.8927 0.2801 0.8772
C16 C 0.8638(7) 0.2788(6) 0.7183(6)
H12 H 0.8843 0.3508 0.7053
C19 C 0.8275(5) 0.2114(5) 0.6330(6)
C22 C 0.8003(6) 0.1027(6) 0.6536(6)
H15 H 0.7798 0.0562 0.5977
C25 C 0.8047(5) 0.0653(5) 0.7591(5)
N5 N 0.8378(5) 0.1318(5) 0.8408(5)
O13 O 0.8430(4) 0.0943(4) 0.9409(4)
O19 O 0.9140(4) 0.3311(4) 0.4875(6)
O28 O 0.6674(4) 0.7163(4) 0.4962(7)
O31 O 0.8084(5) 0.1740(5) 0.4278(4)
S5 S 0.81641(12) 0.26585(12) 0.5002(2)
O55 O 0.8822(6) 0.5828(6) 0.6168(6)
O58 O 0.6515(14) 0.5090(14) 0.6796(14)
Gd1_7 Gd 1.0000 1.0000 0.0000
C11 C 0.7636(6) 0.8683(7) 0.1794(6)
H7 H 0.7199 0.8927 0.1228
C14 C 0.7212(6) 0.8638(7) 0.2817(6)
H10 H 0.6492 0.8843 0.2947
C17 C 0.7886(5) 0.8275(5) 0.3670(6)
C20 C 0.8973(6) 0.8003(6) 0.3464(6)
H13 H 0.9438 0.7798 0.4023
C23 C 0.9347(5) 0.8047(5) 0.2409(5)
N3 N 0.8682(5) 0.8378(5) 0.1592(5)
O11 O 0.9057(4) 0.8430(4) 0.0591(4)
O29 O 0.8260(5) 0.8084(5) 0.5722(4)
O48 O 0.4882(5) 0.6716(5) 0.7068(9)
S3 S 0.73415(12) 0.81641(12) 0.4998(2)
O56 O 0.4910(14) 0.6515(14) 0.3204(14)
Gd1_8 Gd 1.0000 1.0000 1.0000
C28 C 0.7636(6) 0.9548(5) 0.7859(5)
C31 C 0.6576(6) 0.9273(6) 0.7618(6)
H18 H 0.6107 0.9803 0.7344
C34 C 0.6192(6) 0.8215(6) 0.7776(6)
C37 C 0.6913(7) 0.7457(6) 0.8250(6)
H21 H 0.6675 0.6753 0.8408
C40 C 0.7966(6) 0.7761(5) 0.8477(6)
H24 H 0.8445 0.7248 0.8766
N8 N 0.8323(5) 0.8775(5) 0.8292(4)
O16 O 0.9346(4) 0.9032(4) 0.8463(4)
O43 O 0.4173(5) 0.8076(7) 0.8337(6)
S8 S 0.48424(14) 0.78662(15) 0.74035(16)
H27_2 H 0.42264 0.886069 0.85353
H27_3 H 0.113931 0.42264 0.14647
H27_4 H 0.886069 0.57736 0.14647
loop_
_geom_bond_atom_site_label_1
_geom_bond_atom_site_label_2
_geom_bond_site_symmetry_1
_geom_bond_site_symmetry_2
C1 H1 1_555 1_555
C2 C1 1_555 1_555
H2 C2 1_555 1_555
C3 C2 1_555 1_555
C4 C3 1_555 1_555
H3 C4 1_555 1_555
C5 C4 1_555 1_555
N1 C1 1_555 1_555
O1 N1 1_555 1_555
O3 Na1 1_555 1_555
O4 Na2 1_555 1_555
O5 S1 1_555 1_555
Na1 O9 1_555 1_555
Na2 Cl1 1_555 1_555
S1 C3 1_555 1_555
Gd1 O1 1_555 1_555
Cl1 Na13 1_555 1_555
O9 Na2 1_555 1_555
O10 Na2 1_555 1_555
O25 Na2 1_555 1_555
O35 Na1 1_555 1_555
O47 Na2 1_555 1_555
Na13 O4 1_555 1_555
Na15 Cl1 1_555 1_555
Na16 Cl1 1_555 1_555
C5 N1 1_555 1_555
O3 S1 1_555 1_555
O4 S1 1_555 1_555
Na2 O35 1_555 1_555
O25 Na16 1_555 1_555
C30 C27 1_555 1_555
H17 C30 1_555 1_555
C33 C30 1_555 1_555
C36 C33 1_555 1_555
H20 C36 1_555 1_555
C39 C36 1_555 1_555
H23 C39 1_555 1_555
N7 C27 1_555 1_555
O15 Gd1_2 1_555 1_555
O42 S7 1_555 1_555
S7 C33 1_555 1_555
C39 N7 1_555 1_555
N7 O15 1_555 1_555
O35 S7 1_555 1_555
O47 S7 1_555 1_555
O42 H27 1_555 1_555
C29 C26 1_555 1_555
H16 C29 1_555 1_555
C32 C29 1_555 1_555
C35 C32 1_555 1_555
H19 C35 1_555 1_555
C38 C35 1_555 1_555
H22 C38 1_555 1_555
N6 C26 1_555 1_555
O14 Gd1_3 1_555 1_555
O20 Na1_2 1_555 1_555
O32 Na4 1_555 1_555
O36 Na1_2 1_555 1_555
O41 S6 1_555 1_555
O44 Na13 1_555 1_555
Na13 O32 1_555 1_555
Na15 O36 1_555 1_555
S6 C32 1_555 1_555
O51 Na1_2 1_555 1_555
C38 N6 1_555 1_555
N6 O14 1_555 1_555
O32 S6 1_555 1_555
O44 S6 1_555 1_555
Na15 O51 1_555 1_555
C12 H8 1_555 1_555
C15 C12 1_555 1_555
H11 C15 1_555 1_555
C18 C15 1_555 1_555
C21 C18 1_555 1_555
H14 C21 1_555 1_555
C24 C21 1_555 1_555
N4 C12 1_555 1_555
O12 Gd1_4 1_555 1_555
O18 Na4 1_555 1_555
O23 Na13 1_555 1_555
O30 S4 1_555 1_555
Na4 O54 1_555 1_555
Na15 O23 1_555 1_555
S4 C18 1_555 1_555
O54 Na13 1_555 1_555
O57 Na13 1_555 1_555
C24 N4 1_555 1_555
N4 O12 1_555 1_555
O18 S4 1_555 1_555
O23 S4 1_555 1_555
C7 C6 1_555 1_555
H4 C7 1_555 1_555
C8 C7 1_555 1_555
C9 C8 1_555 1_555
H5 C9 1_555 1_555
C10 C9 1_555 1_555
H6 C10 1_555 1_555
N2 C6 1_555 1_555
O2 N2 1_555 1_555
O6 S2 1_555 1_555
O7 S2 1_555 1_555
O8 S2 1_555 1_555
S2 C8 1_555 1_555
Na4_2 O6 1_555 1_555
Na16 O6 1_555 1_555
C10 N2 1_555 1_555
O2 Gd1_5 1_555 1_555
O8 Na16 1_555 1_555
C13 H9 1_555 1_555
C16 C13 1_555 1_555
H12 C16 1_555 1_555
C19 C16 1_555 1_555
C22 C19 1_555 1_555
H15 C22 1_555 1_555
C25 C22 1_555 1_555
N5 C13 1_555 1_555
O13 Gd1_6 1_555 1_555
O19 Na4_2 1_555 1_555
O28 Na16 1_555 1_555
O31 S5 1_555 1_555
Na4_2 O55 1_555 1_555
S5 C19 1_555 1_555
O55 Na16 1_555 1_555
O58 Na16 1_555 1_555
C25 N5 1_555 1_555
N5 O13 1_555 1_555
O19 S5 1_555 1_555
O25 S5 1_555 1_555
C11 H7 1_555 1_555
C14 C11 1_555 1_555
H10 C14 1_555 1_555
C17 C14 1_555 1_555
C20 C17 1_555 1_555
H13 C20 1_555 1_555
C23 C20 1_555 1_555
N3 C11 1_555 1_555
O11 Gd1_7 1_555 1_555
O28 Na15 1_555 1_555
O29 S3 1_555 1_555
O48 Na15 1_555 1_555
S3 C17 1_555 1_555
O56 Na15 1_555 1_555
C23 N3 1_555 1_555
N3 O11 1_555 1_555
O20 S3 1_555 1_555
O28 S3 1_555 1_555
C31 C28 1_555 1_555
H18 C31 1_555 1_555
C34 C31 1_555 1_555
C37 C34 1_555 1_555
H21 C37 1_555 1_555
C40 C37 1_555 1_555
H24 C40 1_555 1_555
N8 C28 1_555 1_555
O16 Gd1_8 1_555 1_555
O43 S8 1_555 1_555
S8 C34 1_555 1_555
C40 N8 1_555 1_555
N8 O16 1_555 1_555
O36 S8 1_555 1_555
O48 S8 1_555 1_555
O43 H27_2 1_555 1_555
O41 H27_3 1_555 1_555
O7 H27_4 1_555 1_555

#END
