
###############################################################################
#
# This file contains modified crystal structure data generated from the
# MOF subset of the Cambridge Structural Database (CSD) v543 
# hosted by the Cambridge Crystallographic Data Centre (CCDC).
#
# This work is licensed under the Creative Commons
# Attribution-NonCommercial-ShareAlike 4.0 International License.
# To view a copy of this license, visit
# http://creativecommons.org/licenses/by-nc-sa/4.0/
# or send a letter to
# Creative Commons, PO Box 1866, Mountain View, CA 94042, USA.
#
# CIF created using the CSD Python API on 29 September 2022
# The structure has been converted into the P1 space group
# The structure has a 3D framework
# The original CSD entry TIRQOB is in the cubic crystal system
# The framework has been calculated to contain at least 10.0% void space
# The void calculation uses a probe of radius 1.32A, grid spacing 0.4
# H atom positions have been added when not included in the experimental data
#
###############################################################################

data_TIRQOB
_chemical_formula_moiety         '(C768 H480 O256 Zn64)n'
_symmetry_cell_setting           triclinic
_symmetry_space_group_name_H-M   'P 1'
_symmetry_Int_Tables_number      1
_space_group_name_Hall           'P 1'
loop_
_symmetry_equiv_pos_site_id
_symmetry_equiv_pos_as_xyz
1 x,y,z
_cell_length_a                   28.79(1)
_cell_length_b                   28.79(1)
_cell_length_c                   28.79(1)
_cell_angle_alpha                90
_cell_angle_beta                 90
_cell_angle_gamma                90
_cell_volume                     23863
loop_
_atom_site_label
_atom_site_type_symbol
_atom_site_fract_x
_atom_site_fract_y
_atom_site_fract_z
Zn1 Zn 0.00289(3) 0.00289(3) 0.00289(3)
Zn2 Zn 0.10633(3) 0.02814(3) 0.02441(3)
O1 O 0.04157(15) 0.04157(15) 0.04157(15)
O6 O 0.1513(3) 0.0656(3) 0.0715(2)
Zn3 Zn 0.02814(3) 0.02441(3) 0.10633(3)
Zn4 Zn 0.02441(3) 0.10633(3) 0.02814(3)
O21 O 0.0656(3) 0.0715(2) 0.1513(3)
O22 O 0.0715(2) 0.1513(3) 0.0656(3)
H25 H 0.0552919 0.103848 0.145219
H26 H 0.0592819 0.0634187 0.18423
H27 H 0.103848 0.145219 0.0552919
H28 H 0.0634187 0.18423 0.0592819
H29 H 0.145219 0.0552919 0.103848
H30 H 0.18423 0.0592819 0.0634187
C21 C 0.0098(3) 0.0994(5) 0.8600(4)
H9 H 0.0283 0.0910 0.8850
C23 C 0.0296(4) 0.1092(5) 0.8186(3)
H11 H 0.0615 0.1056 0.8147
C27 C 0.0034(4) 0.1240(6) 0.7836(4)
H15 H 0.0180 0.1294 0.7553
O11 O 0.12692(19) 0.07563(19) 0.97717(19)
O18 O 0.0619(2) 0.1185(2) 0.9696(2)
C3 C 0.0994(5) 0.8600(4) 0.0098(3)
H1 H 0.0910 0.8850 0.0283
C4 C 0.1092(5) 0.8186(3) 0.0296(4)
H2 H 0.1056 0.8147 0.0615
C6 C 0.1240(6) 0.7836(4) 0.0034(4)
H4 H 0.1294 0.7553 0.0180
O12 O 0.07563(19) 0.97717(19) 0.12692(19)
O16 O 0.1185(2) 0.9696(2) 0.0619(2)
C1 C 0.1020(3) 0.8658(3) 0.9591(3)
C2 C 0.1210(3) 0.8285(3) 0.9324(3)
C5 C 0.1319(4) 0.7862(3) 0.9572(4)
H3 H 0.1443 0.7609 0.9414
O2 O 0.0975(2) 0.98119(18) 0.96745(17)
C7 C 0.0699(3) 0.9476(3) 0.9625(2)
C8 C 0.1107(3) 0.8772(3) 0.8115(3)
H5 H 0.1233 0.8534 0.7935
C9 C 0.0730(3) 0.9498(3) 0.8618(3)
H6 H 0.0600 0.9742 0.8785
C10 C 0.1092(3) 0.8726(3) 0.8593(3)
C11 C 0.0886(3) 0.9062(2) 0.9365(3)
C12 C 0.0750(3) 0.9525(3) 0.8173(3)
H7 H 0.0639 0.9788 0.8021
C13 C 0.0906(3) 0.9093(3) 0.8866(3)
C14 C 0.0944(3) 0.9149(4) 0.7910(3)
H8 H 0.0956 0.9172 0.7588
C15 C 0.1252(3) 0.8315(3) 0.8835(3)
C16 C 0.1470(4) 0.7924(4) 0.8569(4)
O3 O 0.12308(19) 0.77283(19) 0.82563(19)
O4 O 0.1881(2) 0.7804(2) 0.8685(2)
O5 O 0.03169(19) 0.94456(19) 0.9798(2)
Zn5 Zn 0.14367(3) 0.72559(3) 0.77814(3)
Zn6 Zn 0.22559(3) 0.72186(3) 0.85633(3)
C22 C 0.8600(4) 0.0098(3) 0.0994(5)
H10 H 0.8850 0.0283 0.0910
C24 C 0.8186(3) 0.0296(4) 0.1092(5)
H12 H 0.8147 0.0615 0.1056
C28 C 0.7836(4) 0.0034(4) 0.1240(6)
H16 H 0.7553 0.0180 0.1294
O13 O 0.97717(19) 0.12692(19) 0.07563(19)
O17 O 0.9696(2) 0.0619(2) 0.1185(2)
C17 C 0.9591(3) 0.1020(3) 0.8658(3)
C19 C 0.9324(3) 0.1210(3) 0.8285(3)
C25 C 0.9572(4) 0.1319(4) 0.7862(3)
H13 H 0.9414 0.1443 0.7609
Zn7 Zn 0.77814(3) 0.14367(3) 0.72559(3)
Zn8 Zn 0.85633(3) 0.22559(3) 0.72186(3)
O7 O 0.96745(17) 0.0975(2) 0.98119(18)
C29 C 0.9625(2) 0.0699(3) 0.9476(3)
C31 C 0.8115(3) 0.1107(3) 0.8772(3)
H17 H 0.7935 0.1233 0.8534
C33 C 0.8618(3) 0.0730(3) 0.9498(3)
H19 H 0.8785 0.0600 0.9742
C35 C 0.8593(3) 0.1092(3) 0.8726(3)
C37 C 0.9365(3) 0.0886(3) 0.9062(2)
C39 C 0.8173(3) 0.0750(3) 0.9525(3)
H21 H 0.8021 0.0639 0.9788
C41 C 0.8866(3) 0.0906(3) 0.9093(3)
C43 C 0.7910(3) 0.0944(3) 0.9149(4)
H23 H 0.7588 0.0956 0.9172
C45 C 0.8835(3) 0.1252(3) 0.8315(3)
C47 C 0.8569(4) 0.1470(4) 0.7924(4)
O9 O 0.82563(19) 0.12308(19) 0.77283(19)
O14 O 0.8685(2) 0.1881(2) 0.7804(2)
O19 O 0.9798(2) 0.03169(19) 0.94456(19)
C18 C 0.8658(3) 0.9591(3) 0.1020(3)
C20 C 0.8285(3) 0.9324(3) 0.1210(3)
C26 C 0.7862(3) 0.9572(4) 0.1319(4)
H14 H 0.7609 0.9414 0.1443
Zn9 Zn 0.72559(3) 0.77814(3) 0.14367(3)
Zn10 Zn 0.72186(3) 0.85633(3) 0.22559(3)
O8 O 0.98119(18) 0.96745(17) 0.0975(2)
C30 C 0.9476(3) 0.9625(2) 0.0699(3)
C32 C 0.8772(3) 0.8115(3) 0.1107(3)
H18 H 0.8534 0.7935 0.1233
C34 C 0.9498(3) 0.8618(3) 0.0730(3)
H20 H 0.9742 0.8785 0.0600
C36 C 0.8726(3) 0.8593(3) 0.1092(3)
C38 C 0.9062(2) 0.9365(3) 0.0886(3)
C40 C 0.9525(3) 0.8173(3) 0.0750(3)
H22 H 0.9788 0.8021 0.0639
C42 C 0.9093(3) 0.8866(3) 0.0906(3)
C44 C 0.9149(4) 0.7910(3) 0.0944(3)
H24 H 0.9172 0.7588 0.0956
C46 C 0.8315(3) 0.8835(3) 0.1252(3)
C48 C 0.7924(4) 0.8569(4) 0.1470(4)
O10 O 0.77283(19) 0.82563(19) 0.12308(19)
O15 O 0.7804(2) 0.8685(2) 0.1881(2)
O20 O 0.94456(19) 0.9798(2) 0.03169(19)
C1_2 C 0.3980(3) 0.1342(3) 0.4591(3)
C2_2 C 0.3790(3) 0.1715(3) 0.4324(3)
C3_2 C 0.4006(5) 0.1400(4) 0.5098(3)
H1_2 H 0.4090 0.1150 0.5283
C4_2 C 0.3908(5) 0.1814(3) 0.5296(4)
H2_2 H 0.3944 0.1853 0.5615
C5_2 C 0.3681(4) 0.2138(3) 0.4572(4)
H3_2 H 0.3557 0.2391 0.4414
C6_2 C 0.3760(6) 0.2164(4) 0.5034(4)
H4_2 H 0.3706 0.2447 0.5180
O2_2 O 0.4025(2) 0.01881(18) 0.46745(17)
C7_2 C 0.4301(3) 0.0524(3) 0.4625(2)
C8_2 C 0.3893(3) 0.1228(3) 0.3115(3)
H5_2 H 0.3767 0.1466 0.2935
C9_2 C 0.4270(3) 0.0502(3) 0.3618(3)
H6_2 H 0.4400 0.0258 0.3785
C10_2 C 0.3908(3) 0.1274(3) 0.3593(3)
C11_2 C 0.4114(3) 0.0938(2) 0.4365(3)
C12_2 C 0.4250(3) 0.0475(3) 0.3173(3)
H7_2 H 0.4361 0.0212 0.3021
C13_2 C 0.4094(3) 0.0907(3) 0.3866(3)
C14_2 C 0.4056(3) 0.0851(4) 0.2910(3)
H8_2 H 0.4044 0.0828 0.2588
C15_2 C 0.3748(3) 0.1685(3) 0.3835(3)
C16_2 C 0.3530(4) 0.2076(4) 0.3569(4)
O3_2 O 0.37692(19) 0.22717(19) 0.32563(19)
O4_2 O 0.3119(2) 0.2196(2) 0.3685(2)
O5_2 O 0.46831(19) 0.05544(19) 0.4798(2)
C18_2 C 0.6342(3) 0.0409(3) 0.6020(3)
C20_2 C 0.6715(3) 0.0676(3) 0.6210(3)
C26_2 C 0.7138(3) 0.0428(4) 0.6319(4)
H14_2 H 0.7391 0.0586 0.6443
Zn5_2 Zn 0.35633(3) 0.27441(3) 0.27814(3)
Zn6_2 Zn 0.27441(3) 0.27814(3) 0.35633(3)
Zn9_2 Zn 0.77441(3) 0.22186(3) 0.64367(3)
O8_2 O 0.51881(18) 0.03255(17) 0.5975(2)
C30_2 C 0.5524(3) 0.0375(2) 0.5699(3)
C32_2 C 0.6228(3) 0.1885(3) 0.6107(3)
H18_2 H 0.6466 0.2065 0.6233
C34_2 C 0.5502(3) 0.1382(3) 0.5730(3)
H20_2 H 0.5258 0.1215 0.5600
C36_2 C 0.6274(3) 0.1407(3) 0.6092(3)
C38_2 C 0.5938(2) 0.0635(3) 0.5886(3)
C40_2 C 0.5475(3) 0.1827(3) 0.5750(3)
H22_2 H 0.5212 0.1979 0.5639
C42_2 C 0.5907(3) 0.1134(3) 0.5906(3)
C44_2 C 0.5851(4) 0.2090(3) 0.5944(3)
H24_2 H 0.5828 0.2412 0.5956
C46_2 C 0.6685(3) 0.1165(3) 0.6252(3)
C48_2 C 0.7076(4) 0.1431(4) 0.6470(4)
O10_2 O 0.72717(19) 0.17437(19) 0.62308(19)
O12_2 O 0.42437(19) 0.02283(19) 0.62692(19)
O15_2 O 0.7196(2) 0.1315(2) 0.6881(2)
O16_2 O 0.3815(2) 0.0304(2) 0.5619(2)
O20_2 O 0.55544(19) 0.0202(2) 0.53169(19)
Zn1_2 Zn 0.49711(3) 0.99711(3) 0.50289(3)
Zn2_2 Zn 0.39367(3) 0.97186(3) 0.52441(3)
O1_2 O 0.45843(15) 0.95843(15) 0.54157(15)
O6_2 O 0.3487(3) 0.9344(3) 0.5715(2)
C17_2 C 0.5409(3) 0.8980(3) 0.3658(3)
C19_2 C 0.5676(3) 0.8790(3) 0.3285(3)
C21_2 C 0.4902(3) 0.9006(5) 0.3600(4)
C22_2 C 0.6400(4) 0.9902(3) 0.5994(5)
H9_2 H 0.4717 0.9090 0.3850
H10_2 H 0.6150 0.9717 0.5910
C23_2 C 0.4704(4) 0.8908(5) 0.3186(3)
C24_2 C 0.6814(3) 0.9704(4) 0.6092(5)
H11_2 H 0.4385 0.8944 0.3147
H12_2 H 0.6853 0.9385 0.6056
C25_2 C 0.5428(4) 0.8681(4) 0.2862(3)
H13_2 H 0.5586 0.8557 0.2609
C27_2 C 0.4966(4) 0.8760(6) 0.2836(4)
C28_2 C 0.7164(4) 0.9966(4) 0.6240(6)
H15_2 H 0.4820 0.8706 0.2553
H16_2 H 0.7447 0.9820 0.6294
Zn3_2 Zn 0.47186(3) 0.97559(3) 0.60633(3)
Zn4_2 Zn 0.47559(3) 0.89367(3) 0.52814(3)
Zn8_2 Zn 0.64367(3) 0.77441(3) 0.22186(3)
O7_2 O 0.53255(17) 0.9025(2) 0.48119(18)
C29_2 C 0.5375(2) 0.9301(3) 0.4476(3)
C31_2 C 0.6885(3) 0.8893(3) 0.3772(3)
H17_2 H 0.7065 0.8767 0.3534
C33_2 C 0.6382(3) 0.9270(3) 0.4498(3)
H19_2 H 0.6215 0.9400 0.4742
C35_2 C 0.6407(3) 0.8908(3) 0.3726(3)
C37_2 C 0.5635(3) 0.9114(3) 0.4062(2)
C39_2 C 0.6827(3) 0.9250(3) 0.4525(3)
H21_2 H 0.6979 0.9361 0.4788
C41_2 C 0.6134(3) 0.9094(3) 0.4093(3)
C43_2 C 0.7090(3) 0.9056(3) 0.4149(4)
H23_2 H 0.7412 0.9044 0.4172
C45_2 C 0.6165(3) 0.8748(3) 0.3315(3)
C47_2 C 0.6431(4) 0.8530(4) 0.2924(4)
O9_2 O 0.67437(19) 0.87692(19) 0.27283(19)
O11_2 O 0.37308(19) 0.92437(19) 0.47717(19)
O13_2 O 0.52283(19) 0.87308(19) 0.57563(19)
O14_2 O 0.6315(2) 0.8119(2) 0.2804(2)
O17_2 O 0.5304(2) 0.9381(2) 0.6185(2)
O18_2 O 0.4381(2) 0.8815(2) 0.4696(2)
O19_2 O 0.5202(2) 0.96831(19) 0.44456(19)
O21_2 O 0.4344(3) 0.9285(2) 0.6513(3)
O22_2 O 0.4285(2) 0.8487(3) 0.5656(3)
H25_2 H 0.444708 0.896152 0.645219
H26_2 H 0.440718 0.936581 0.68423
H27_2 H 0.396152 0.854781 0.555292
H28_2 H 0.436581 0.81577 0.559282
H29_2 H 0.354781 0.944708 0.603848
H30_2 H 0.31577 0.940718 0.563419
C17_3 C 0.0409(3) 0.6020(3) 0.6342(3)
C18_3 C 0.1342(3) 0.4591(3) 0.3980(3)
C19_3 C 0.0676(3) 0.6210(3) 0.6715(3)
C20_3 C 0.1715(3) 0.4324(3) 0.3790(3)
C22_3 C 0.1400(4) 0.5098(3) 0.4006(5)
H10_3 H 0.1150 0.5283 0.4090
C24_3 C 0.1814(3) 0.5296(4) 0.3908(5)
H12_3 H 0.1853 0.5615 0.3944
C25_3 C 0.0428(4) 0.6319(4) 0.7138(3)
C26_3 C 0.2138(3) 0.4572(4) 0.3681(4)
H13_3 H 0.0586 0.6443 0.7391
H14_3 H 0.2391 0.4414 0.3557
C28_3 C 0.2164(4) 0.5034(4) 0.3760(6)
H16_3 H 0.2447 0.5180 0.3706
Zn7_2 Zn 0.22186(3) 0.64367(3) 0.77441(3)
Zn10_2 Zn 0.27814(3) 0.35633(3) 0.27441(3)
O7_3 O 0.03255(17) 0.5975(2) 0.51881(18)
O8_3 O 0.01881(18) 0.46745(17) 0.4025(2)
C29_3 C 0.0375(2) 0.5699(3) 0.5524(3)
C30_3 C 0.0524(3) 0.4625(2) 0.4301(3)
C31_3 C 0.1885(3) 0.6107(3) 0.6228(3)
C32_3 C 0.1228(3) 0.3115(3) 0.3893(3)
H17_3 H 0.2065 0.6233 0.6466
H18_3 H 0.1466 0.2935 0.3767
C33_3 C 0.1382(3) 0.5730(3) 0.5502(3)
C34_3 C 0.0502(3) 0.3618(3) 0.4270(3)
H19_3 H 0.1215 0.5600 0.5258
H20_3 H 0.0258 0.3785 0.4400
C35_3 C 0.1407(3) 0.6092(3) 0.6274(3)
C36_3 C 0.1274(3) 0.3593(3) 0.3908(3)
C37_3 C 0.0635(3) 0.5886(3) 0.5938(2)
C38_3 C 0.0938(2) 0.4365(3) 0.4114(3)
C39_3 C 0.1827(3) 0.5750(3) 0.5475(3)
C40_3 C 0.0475(3) 0.3173(3) 0.4250(3)
H21_3 H 0.1979 0.5639 0.5212
H22_3 H 0.0212 0.3021 0.4361
C41_3 C 0.1134(3) 0.5906(3) 0.5907(3)
C42_3 C 0.0907(3) 0.3866(3) 0.4094(3)
C43_3 C 0.2090(3) 0.5944(3) 0.5851(4)
C44_3 C 0.0851(4) 0.2910(3) 0.4056(3)
H23_3 H 0.2412 0.5956 0.5828
H24_3 H 0.0828 0.2588 0.4044
C45_3 C 0.1165(3) 0.6252(3) 0.6685(3)
C46_3 C 0.1685(3) 0.3835(3) 0.3748(3)
C47_3 C 0.1431(4) 0.6470(4) 0.7076(4)
C48_3 C 0.2076(4) 0.3569(4) 0.3530(4)
O9_3 O 0.17437(19) 0.62308(19) 0.72717(19)
O10_3 O 0.22717(19) 0.32563(19) 0.37692(19)
O13_3 O 0.02283(19) 0.62692(19) 0.42437(19)
O14_3 O 0.1315(2) 0.6881(2) 0.7196(2)
O15_3 O 0.2196(2) 0.3685(2) 0.3119(2)
O17_3 O 0.0304(2) 0.5619(2) 0.3815(2)
O19_3 O 0.0202(2) 0.53169(19) 0.55544(19)
O20_3 O 0.05544(19) 0.4798(2) 0.46831(19)
C1_3 C 0.8980(3) 0.3658(3) 0.5409(3)
C2_3 C 0.8790(3) 0.3285(3) 0.5676(3)
C3_3 C 0.9006(5) 0.3600(4) 0.4902(3)
H1_3 H 0.9090 0.3850 0.4717
C4_3 C 0.8908(5) 0.3186(3) 0.4704(4)
H2_3 H 0.8944 0.3147 0.4385
C5_3 C 0.8681(4) 0.2862(3) 0.5428(4)
H3_3 H 0.8557 0.2609 0.5586
C6_3 C 0.8760(6) 0.2836(4) 0.4966(4)
H4_3 H 0.8706 0.2553 0.4820
Zn1_3 Zn 0.99711(3) 0.50289(3) 0.49711(3)
Zn2_3 Zn 0.89367(3) 0.52814(3) 0.47559(3)
O1_3 O 0.95843(15) 0.54157(15) 0.45843(15)
O2_3 O 0.9025(2) 0.48119(18) 0.53255(17)
C7_3 C 0.9301(3) 0.4476(3) 0.5375(2)
C8_3 C 0.8893(3) 0.3772(3) 0.6885(3)
H5_3 H 0.8767 0.3534 0.7065
C9_3 C 0.9270(3) 0.4498(3) 0.6382(3)
H6_3 H 0.9400 0.4742 0.6215
C10_3 C 0.8908(3) 0.3726(3) 0.6407(3)
C11_3 C 0.9114(3) 0.4062(2) 0.5635(3)
C12_3 C 0.9250(3) 0.4525(3) 0.6827(3)
H7_3 H 0.9361 0.4788 0.6979
C13_3 C 0.9094(3) 0.4093(3) 0.6134(3)
C14_3 C 0.9056(3) 0.4149(4) 0.7090(3)
H8_3 H 0.9044 0.4172 0.7412
C15_3 C 0.8748(3) 0.3315(3) 0.6165(3)
C16_3 C 0.8530(4) 0.2924(4) 0.6431(4)
O3_3 O 0.87692(19) 0.27283(19) 0.67437(19)
O4_3 O 0.8119(2) 0.2804(2) 0.6315(2)
O5_3 O 0.96831(19) 0.44456(19) 0.5202(2)
O6_3 O 0.8487(3) 0.5656(3) 0.4285(2)
C21_3 C 0.9902(3) 0.5994(5) 0.6400(4)
H9_3 H 0.9717 0.5910 0.6150
C23_3 C 0.9704(4) 0.6092(5) 0.6814(3)
H11_3 H 0.9385 0.6056 0.6853
C27_3 C 0.9966(4) 0.6240(6) 0.7164(4)
H15_3 H 0.9820 0.6294 0.7447
Zn3_3 Zn 0.97186(3) 0.52441(3) 0.39367(3)
Zn4_3 Zn 0.97559(3) 0.60633(3) 0.47186(3)
O11_3 O 0.87308(19) 0.57563(19) 0.52283(19)
O12_3 O 0.92437(19) 0.47717(19) 0.37308(19)
O16_3 O 0.8815(2) 0.4696(2) 0.4381(2)
O18_3 O 0.9381(2) 0.6185(2) 0.5304(2)
O21_3 O 0.9344(3) 0.5715(2) 0.3487(3)
O22_3 O 0.9285(2) 0.6513(3) 0.4344(3)
H25_3 H 0.944708 0.603848 0.354781
H26_3 H 0.940718 0.563419 0.31577
H27_3 H 0.896152 0.645219 0.444708
H28_3 H 0.936581 0.68423 0.440718
H29_3 H 0.854781 0.555292 0.396152
H30_3 H 0.81577 0.559282 0.436581
C1_4 C 0.6020(3) 0.6342(3) 0.0409(3)
C2_4 C 0.6210(3) 0.6715(3) 0.0676(3)
C5_4 C 0.6319(4) 0.7138(3) 0.0428(4)
H3_4 H 0.6443 0.7391 0.0586
O2_4 O 0.5975(2) 0.51881(18) 0.03255(17)
C7_4 C 0.5699(3) 0.5524(3) 0.0375(2)
C8_4 C 0.6107(3) 0.6228(3) 0.1885(3)
H5_4 H 0.6233 0.6466 0.2065
C9_4 C 0.5730(3) 0.5502(3) 0.1382(3)
H6_4 H 0.5600 0.5258 0.1215
C10_4 C 0.6092(3) 0.6274(3) 0.1407(3)
C11_4 C 0.5886(3) 0.5938(2) 0.0635(3)
C12_4 C 0.5750(3) 0.5475(3) 0.1827(3)
H7_4 H 0.5639 0.5212 0.1979
C13_4 C 0.5906(3) 0.5907(3) 0.1134(3)
C14_4 C 0.5944(3) 0.5851(4) 0.2090(3)
H8_4 H 0.5956 0.5828 0.2412
C15_4 C 0.6252(3) 0.6685(3) 0.1165(3)
C16_4 C 0.6470(4) 0.7076(4) 0.1431(4)
O3_4 O 0.62308(19) 0.72717(19) 0.17437(19)
O4_4 O 0.6881(2) 0.7196(2) 0.1315(2)
O5_4 O 0.53169(19) 0.55544(19) 0.0202(2)
C17_4 C 0.4591(3) 0.3980(3) 0.1342(3)
C19_4 C 0.4324(3) 0.3790(3) 0.1715(3)
C21_4 C 0.5098(3) 0.4006(5) 0.1400(4)
H9_4 H 0.5283 0.4090 0.1150
C23_4 C 0.5296(4) 0.3908(5) 0.1814(3)
H11_4 H 0.5615 0.3944 0.1853
C25_4 C 0.4572(4) 0.3681(4) 0.2138(3)
H13_4 H 0.4414 0.3557 0.2391
C27_4 C 0.5034(4) 0.3760(6) 0.2164(4)
H15_4 H 0.5180 0.3706 0.2447
O7_4 O 0.46745(17) 0.4025(2) 0.01881(18)
C29_4 C 0.4625(2) 0.4301(3) 0.0524(3)
C31_4 C 0.3115(3) 0.3893(3) 0.1228(3)
H17_4 H 0.2935 0.3767 0.1466
C33_4 C 0.3618(3) 0.4270(3) 0.0502(3)
H19_4 H 0.3785 0.4400 0.0258
C35_4 C 0.3593(3) 0.3908(3) 0.1274(3)
C37_4 C 0.4365(3) 0.4114(3) 0.0938(2)
C39_4 C 0.3173(3) 0.4250(3) 0.0475(3)
H21_4 H 0.3021 0.4361 0.0212
C41_4 C 0.3866(3) 0.4094(3) 0.0907(3)
C43_4 C 0.2910(3) 0.4056(3) 0.0851(4)
H23_4 H 0.2588 0.4044 0.0828
C45_4 C 0.3835(3) 0.3748(3) 0.1685(3)
C47_4 C 0.3569(4) 0.3530(4) 0.2076(4)
O9_4 O 0.32563(19) 0.37692(19) 0.22717(19)
O11_4 O 0.62692(19) 0.42437(19) 0.02283(19)
O14_4 O 0.3685(2) 0.3119(2) 0.2196(2)
O18_4 O 0.5619(2) 0.3815(2) 0.0304(2)
O19_4 O 0.4798(2) 0.46831(19) 0.05544(19)
C3_4 C 0.5994(5) 0.6400(4) 0.9902(3)
H1_4 H 0.5910 0.6150 0.9717
C4_4 C 0.6092(5) 0.6814(3) 0.9704(4)
H2_4 H 0.6056 0.6853 0.9385
C6_4 C 0.6240(6) 0.7164(4) 0.9966(4)
H4_4 H 0.6294 0.7447 0.9820
Zn1_4 Zn 0.50289(3) 0.49711(3) 0.99711(3)
Zn2_4 Zn 0.60633(3) 0.47186(3) 0.97559(3)
O1_4 O 0.54157(15) 0.45843(15) 0.95843(15)
O6_4 O 0.6513(3) 0.4344(3) 0.9285(2)
C18_4 C 0.3658(3) 0.5409(3) 0.8980(3)
C20_4 C 0.3285(3) 0.5676(3) 0.8790(3)
C22_4 C 0.3600(4) 0.4902(3) 0.9006(5)
H10_4 H 0.3850 0.4717 0.9090
C24_4 C 0.3186(3) 0.4704(4) 0.8908(5)
H12_4 H 0.3147 0.4385 0.8944
C26_4 C 0.2862(3) 0.5428(4) 0.8681(4)
H14_4 H 0.2609 0.5586 0.8557
C28_4 C 0.2836(4) 0.4966(4) 0.8760(6)
H16_4 H 0.2553 0.4820 0.8706
Zn3_4 Zn 0.52814(3) 0.47559(3) 0.89367(3)
Zn4_4 Zn 0.52441(3) 0.39367(3) 0.97186(3)
O8_4 O 0.48119(18) 0.53255(17) 0.9025(2)
C30_4 C 0.4476(3) 0.5375(2) 0.9301(3)
C32_4 C 0.3772(3) 0.6885(3) 0.8893(3)
H18_4 H 0.3534 0.7065 0.8767
C34_4 C 0.4498(3) 0.6382(3) 0.9270(3)
H20_4 H 0.4742 0.6215 0.9400
C36_4 C 0.3726(3) 0.6407(3) 0.8908(3)
C38_4 C 0.4062(2) 0.5635(3) 0.9114(3)
C40_4 C 0.4525(3) 0.6827(3) 0.9250(3)
H22_4 H 0.4788 0.6979 0.9361
C42_4 C 0.4093(3) 0.6134(3) 0.9094(3)
C44_4 C 0.4149(4) 0.7090(3) 0.9056(3)
H24_4 H 0.4172 0.7412 0.9044
C46_4 C 0.3315(3) 0.6165(3) 0.8748(3)
C48_4 C 0.2924(4) 0.6431(4) 0.8530(4)
O10_4 O 0.27283(19) 0.67437(19) 0.87692(19)
O12_4 O 0.57563(19) 0.52283(19) 0.87308(19)
O13_4 O 0.47717(19) 0.37308(19) 0.92437(19)
O15_4 O 0.2804(2) 0.6315(2) 0.8119(2)
O16_4 O 0.6185(2) 0.5304(2) 0.9381(2)
O17_4 O 0.4696(2) 0.4381(2) 0.8815(2)
O20_4 O 0.44456(19) 0.5202(2) 0.96831(19)
O21_4 O 0.5656(3) 0.4285(2) 0.8487(3)
O22_4 O 0.5715(2) 0.3487(3) 0.9344(3)
H25_4 H 0.555292 0.396152 0.854781
H26_4 H 0.559282 0.436581 0.81577
H27_4 H 0.603848 0.354781 0.944708
H28_4 H 0.563419 0.31577 0.940718
H29_4 H 0.645219 0.444708 0.896152
H30_4 H 0.68423 0.440718 0.936581
C1_5 C 0.1158(3) 0.3520(3) 0.2091(3)
C2_5 C 0.0785(3) 0.3710(3) 0.1824(3)
C3_5 C 0.1100(4) 0.3494(5) 0.2598(3)
H1_5 H 0.1350 0.3410 0.2783
C4_5 C 0.0686(3) 0.3592(5) 0.2796(4)
H2_5 H 0.0647 0.3556 0.3115
C5_5 C 0.0362(3) 0.3819(4) 0.2072(4)
H3_5 H 0.0109 0.3943 0.1914
C6_5 C 0.0336(4) 0.3740(6) 0.2534(4)
H4_5 H 0.0053 0.3794 0.2680
Zn1_5 Zn 0.25289(3) 0.25289(3) 0.25289(3)
O1_5 O 0.29157(15) 0.29157(15) 0.29157(15)
O2_5 O 0.23119(18) 0.3475(2) 0.21745(17)
C7_5 C 0.1976(3) 0.3199(3) 0.2125(2)
C8_5 C 0.1272(3) 0.3607(3) 0.0615(3)
H5_5 H 0.1034 0.3733 0.0435
C9_5 C 0.1998(3) 0.3230(3) 0.1118(3)
H6_5 H 0.2242 0.3100 0.1285
C10_5 C 0.1226(3) 0.3592(3) 0.1093(3)
C11_5 C 0.1562(2) 0.3386(3) 0.1865(3)
C12_5 C 0.2025(3) 0.3250(3) 0.0673(3)
H7_5 H 0.2288 0.3139 0.0521
C13_5 C 0.1593(3) 0.3406(3) 0.1366(3)
C14_5 C 0.1649(4) 0.3444(3) 0.0410(3)
H8_5 H 0.1672 0.3456 0.0088
C15_5 C 0.0815(3) 0.3752(3) 0.1335(3)
C16_5 C 0.0424(4) 0.3970(4) 0.1069(4)
O3_5 O 0.02283(19) 0.37308(19) 0.07563(19)
O4_5 O 0.0304(2) 0.4381(2) 0.1185(2)
O5_5 O 0.19456(19) 0.28169(19) 0.2298(2)
O6_5 O 0.3156(3) 0.4013(3) 0.3215(2)
C17_5 C 0.3520(3) 0.2091(3) 0.1158(3)
C18_5 C 0.2091(3) 0.1158(3) 0.3520(3)
C19_5 C 0.3710(3) 0.1824(3) 0.0785(3)
C20_5 C 0.1824(3) 0.0785(3) 0.3710(3)
C21_5 C 0.3494(5) 0.2598(3) 0.1100(4)
C22_5 C 0.2598(3) 0.1100(4) 0.3494(5)
H9_5 H 0.3410 0.2783 0.1350
H10_5 H 0.2783 0.1350 0.3410
C23_5 C 0.3592(5) 0.2796(4) 0.0686(3)
C24_5 C 0.2796(4) 0.0686(3) 0.3592(5)
H11_5 H 0.3556 0.3115 0.0647
H12_5 H 0.3115 0.0647 0.3556
C25_5 C 0.3819(4) 0.2072(4) 0.0362(3)
C26_5 C 0.2072(4) 0.0362(3) 0.3819(4)
H13_5 H 0.3943 0.1914 0.0109
H14_5 H 0.1914 0.0109 0.3943
C27_5 C 0.3740(6) 0.2534(4) 0.0336(4)
C28_5 C 0.2534(4) 0.0336(4) 0.3740(6)
H15_5 H 0.3794 0.2680 0.0053
H16_5 H 0.2680 0.0053 0.3794
O7_5 O 0.3475(2) 0.21745(17) 0.23119(18)
O8_5 O 0.21745(17) 0.23119(18) 0.3475(2)
C29_5 C 0.3199(3) 0.2125(2) 0.1976(3)
C30_5 C 0.2125(2) 0.1976(3) 0.3199(3)
C31_5 C 0.3607(3) 0.0615(3) 0.1272(3)
C32_5 C 0.0615(3) 0.1272(3) 0.3607(3)
H17_5 H 0.3733 0.0435 0.1034
H18_5 H 0.0435 0.1034 0.3733
C33_5 C 0.3230(3) 0.1118(3) 0.1998(3)
C34_5 C 0.1118(3) 0.1998(3) 0.3230(3)
H19_5 H 0.3100 0.1285 0.2242
H20_5 H 0.1285 0.2242 0.3100
C35_5 C 0.3592(3) 0.1093(3) 0.1226(3)
C36_5 C 0.1093(3) 0.1226(3) 0.3592(3)
C37_5 C 0.3386(3) 0.1865(3) 0.1562(2)
C38_5 C 0.1865(3) 0.1562(2) 0.3386(3)
C39_5 C 0.3250(3) 0.0673(3) 0.2025(3)
C40_5 C 0.0673(3) 0.2025(3) 0.3250(3)
H21_5 H 0.3139 0.0521 0.2288
H22_5 H 0.0521 0.2288 0.3139
C41_5 C 0.3406(3) 0.1366(3) 0.1593(3)
C42_5 C 0.1366(3) 0.1593(3) 0.3406(3)
C43_5 C 0.3444(3) 0.0410(3) 0.1649(4)
C44_5 C 0.0410(3) 0.1649(4) 0.3444(3)
H23_5 H 0.3456 0.0088 0.1672
H24_5 H 0.0088 0.1672 0.3456
C45_5 C 0.3752(3) 0.1335(3) 0.0815(3)
C46_5 C 0.1335(3) 0.0815(3) 0.3752(3)
C47_5 C 0.3970(4) 0.1069(4) 0.0424(4)
C48_5 C 0.1069(4) 0.0424(4) 0.3970(4)
O9_5 O 0.37308(19) 0.07563(19) 0.02283(19)
O10_5 O 0.07563(19) 0.02283(19) 0.37308(19)
O14_5 O 0.4381(2) 0.1185(2) 0.0304(2)
O15_5 O 0.1185(2) 0.0304(2) 0.4381(2)
O19_5 O 0.28169(19) 0.2298(2) 0.19456(19)
O20_5 O 0.2298(2) 0.19456(19) 0.28169(19)
O21_5 O 0.3215(2) 0.3156(3) 0.4013(3)
O22_5 O 0.4013(3) 0.3215(2) 0.3156(3)
H25_5 H 0.353848 0.305292 0.395219
H26_5 H 0.313419 0.309282 0.43423
H27_5 H 0.395219 0.353848 0.305292
H28_5 H 0.43423 0.313419 0.309282
H29_5 H 0.305292 0.395219 0.353848
H30_5 H 0.309282 0.43423 0.313419
Zn7_3 Zn 0.39367(3) 0.02814(3) 0.97559(3)
Zn8_3 Zn 0.47559(3) 0.10633(3) 0.97186(3)
Zn9_3 Zn 0.02814(3) 0.97559(3) 0.39367(3)
Zn10_3 Zn 0.10633(3) 0.97186(3) 0.47559(3)
Zn5_3 Zn 0.97559(3) 0.39367(3) 0.02814(3)
Zn6_3 Zn 0.97186(3) 0.47559(3) 0.10633(3)
Zn9_4 Zn 0.47186(3) 0.02441(3) 0.89367(3)
C1_6 C 0.3842(3) 0.6480(3) 0.7091(3)
C2_6 C 0.4215(3) 0.6290(3) 0.6824(3)
C3_6 C 0.3900(4) 0.6506(5) 0.7598(3)
H1_6 H 0.3650 0.6590 0.7783
C4_6 C 0.4314(3) 0.6408(5) 0.7796(4)
H2_6 H 0.4353 0.6444 0.8115
C5_6 C 0.4638(3) 0.6181(4) 0.7072(4)
H3_6 H 0.4891 0.6057 0.6914
C6_6 C 0.4664(4) 0.6260(6) 0.7534(4)
H4_6 H 0.4947 0.6206 0.7680
Zn1_6 Zn 0.24711(3) 0.74711(3) 0.75289(3)
O1_6 O 0.20843(15) 0.70843(15) 0.79157(15)
O2_6 O 0.26881(18) 0.6525(2) 0.71745(17)
C7_6 C 0.3024(3) 0.6801(3) 0.7125(2)
C8_6 C 0.3728(3) 0.6393(3) 0.5615(3)
H5_6 H 0.3966 0.6267 0.5435
C9_6 C 0.3002(3) 0.6770(3) 0.6118(3)
H6_6 H 0.2758 0.6900 0.6285
C10_6 C 0.3774(3) 0.6408(3) 0.6093(3)
C11_6 C 0.3438(2) 0.6614(3) 0.6865(3)
C12_6 C 0.2975(3) 0.6750(3) 0.5673(3)
H7_6 H 0.2712 0.6861 0.5521
C13_6 C 0.3407(3) 0.6594(3) 0.6366(3)
C14_6 C 0.3351(4) 0.6556(3) 0.5410(3)
H8_6 H 0.3328 0.6544 0.5088
C15_6 C 0.4185(3) 0.6248(3) 0.6335(3)
C16_6 C 0.4576(4) 0.6030(4) 0.6069(4)
O3_6 O 0.47717(19) 0.62692(19) 0.57563(19)
O4_6 O 0.4696(2) 0.5619(2) 0.6185(2)
O5_6 O 0.30544(19) 0.71831(19) 0.7298(2)
O6_6 O 0.1844(3) 0.5987(3) 0.8215(2)
C17_6 C 0.1480(3) 0.7909(3) 0.6158(3)
C18_6 C 0.2909(3) 0.8842(3) 0.8520(3)
C19_6 C 0.1290(3) 0.8176(3) 0.5785(3)
C20_6 C 0.3176(3) 0.9215(3) 0.8710(3)
C21_6 C 0.1506(5) 0.7402(3) 0.6100(4)
C22_6 C 0.2402(3) 0.8900(4) 0.8494(5)
H9_6 H 0.1590 0.7217 0.6350
H10_6 H 0.2217 0.8650 0.8410
C23_6 C 0.1408(5) 0.7204(4) 0.5686(3)
C24_6 C 0.2204(4) 0.9314(3) 0.8592(5)
H11_6 H 0.1444 0.6885 0.5647
H12_6 H 0.1885 0.9353 0.8556
C25_6 C 0.1181(4) 0.7928(4) 0.5362(3)
C26_6 C 0.2928(4) 0.9638(3) 0.8819(4)
H13_6 H 0.1057 0.8086 0.5109
H14_6 H 0.3086 0.9891 0.8943
C27_6 C 0.1260(6) 0.7466(4) 0.5336(4)
C28_6 C 0.2466(4) 0.9664(4) 0.8740(6)
H15_6 H 0.1206 0.7320 0.5053
H16_6 H 0.2320 0.9947 0.8794
Zn5_4 Zn 0.52441(3) 0.60633(3) 0.52814(3)
Zn6_4 Zn 0.52814(3) 0.52441(3) 0.60633(3)
Zn8_4 Zn 0.02441(3) 0.89367(3) 0.47186(3)
O7_6 O 0.1525(2) 0.78255(17) 0.73119(18)
O8_6 O 0.28255(17) 0.76881(18) 0.8475(2)
C29_6 C 0.1801(3) 0.7875(2) 0.6976(3)
C30_6 C 0.2875(2) 0.8024(3) 0.8199(3)
C31_6 C 0.1393(3) 0.9385(3) 0.6272(3)
C32_6 C 0.4385(3) 0.8728(3) 0.8607(3)
H17_6 H 0.1267 0.9565 0.6034
H18_6 H 0.4565 0.8966 0.8733
C33_6 C 0.1770(3) 0.8882(3) 0.6998(3)
C34_6 C 0.3882(3) 0.8002(3) 0.8230(3)
H19_6 H 0.1900 0.8715 0.7242
H20_6 H 0.3715 0.7758 0.8100
C35_6 C 0.1408(3) 0.8907(3) 0.6226(3)
C36_6 C 0.3907(3) 0.8774(3) 0.8592(3)
C37_6 C 0.1614(3) 0.8135(3) 0.6562(2)
C38_6 C 0.3135(3) 0.8438(2) 0.8386(3)
C39_6 C 0.1750(3) 0.9327(3) 0.7025(3)
C40_6 C 0.4327(3) 0.7975(3) 0.8250(3)
H21_6 H 0.1861 0.9479 0.7288
H22_6 H 0.4479 0.7712 0.8139
C41_6 C 0.1594(3) 0.8634(3) 0.6593(3)
C42_6 C 0.3634(3) 0.8407(3) 0.8406(3)
C43_6 C 0.1556(3) 0.9590(3) 0.6649(4)
C44_6 C 0.4590(3) 0.8351(4) 0.8444(3)
H23_6 H 0.1544 0.9912 0.6672
H24_6 H 0.4912 0.8328 0.8456
C45_6 C 0.1248(3) 0.8665(3) 0.5815(3)
C46_6 C 0.3665(3) 0.9185(3) 0.8752(3)
C47_6 C 0.1030(4) 0.8931(4) 0.5424(4)
C48_6 C 0.3931(4) 0.9576(4) 0.8970(4)
O9_6 O 0.12692(19) 0.92437(19) 0.52283(19)
O10_6 O 0.42437(19) 0.97717(19) 0.87308(19)
O14_6 O 0.0619(2) 0.8815(2) 0.5304(2)
O15_6 O 0.3815(2) 0.9696(2) 0.9381(2)
O19_6 O 0.21831(19) 0.7702(2) 0.69456(19)
O20_6 O 0.2702(2) 0.80544(19) 0.78169(19)
O21_6 O 0.1785(2) 0.6844(3) 0.9013(3)
O22_6 O 0.0987(3) 0.6785(2) 0.8156(3)
H25_6 H 0.146152 0.694708 0.895219
H26_6 H 0.186581 0.690718 0.93423
H27_6 H 0.104781 0.646152 0.805292
H28_6 H 0.0657696 0.686581 0.809282
H29_6 H 0.194708 0.604781 0.853848
H30_6 H 0.190718 0.56577 0.813419
Zn7_4 Zn 0.89367(3) 0.47186(3) 0.02441(3)
C1_7 C 0.6158(3) 0.1480(3) 0.7909(3)
C2_7 C 0.5785(3) 0.1290(3) 0.8176(3)
C3_7 C 0.6100(4) 0.1506(5) 0.7402(3)
H1_7 H 0.6350 0.1590 0.7217
C4_7 C 0.5686(3) 0.1408(5) 0.7204(4)
H2_7 H 0.5647 0.1444 0.6885
C5_7 C 0.5362(3) 0.1181(4) 0.7928(4)
H3_7 H 0.5109 0.1057 0.8086
C6_7 C 0.5336(4) 0.1260(6) 0.7466(4)
H4_7 H 0.5053 0.1206 0.7320
Zn1_7 Zn 0.75289(3) 0.24711(3) 0.74711(3)
O1_7 O 0.79157(15) 0.20843(15) 0.70843(15)
O2_7 O 0.73119(18) 0.1525(2) 0.78255(17)
C7_7 C 0.6976(3) 0.1801(3) 0.7875(2)
C8_7 C 0.6272(3) 0.1393(3) 0.9385(3)
H5_7 H 0.6034 0.1267 0.9565
C9_7 C 0.6998(3) 0.1770(3) 0.8882(3)
H6_7 H 0.7242 0.1900 0.8715
C10_7 C 0.6226(3) 0.1408(3) 0.8907(3)
C11_7 C 0.6562(2) 0.1614(3) 0.8135(3)
C12_7 C 0.7025(3) 0.1750(3) 0.9327(3)
H7_7 H 0.7288 0.1861 0.9479
C13_7 C 0.6593(3) 0.1594(3) 0.8634(3)
C14_7 C 0.6649(4) 0.1556(3) 0.9590(3)
H8_7 H 0.6672 0.1544 0.9912
C15_7 C 0.5815(3) 0.1248(3) 0.8665(3)
C16_7 C 0.5424(4) 0.1030(4) 0.8931(4)
O3_7 O 0.52283(19) 0.12692(19) 0.92437(19)
O4_7 O 0.5304(2) 0.0619(2) 0.8815(2)
O5_7 O 0.69456(19) 0.21831(19) 0.7702(2)
O6_7 O 0.8156(3) 0.0987(3) 0.6785(2)
C17_7 C 0.8520(3) 0.2909(3) 0.8842(3)
C18_7 C 0.7091(3) 0.3842(3) 0.6480(3)
C19_7 C 0.8710(3) 0.3176(3) 0.9215(3)
C20_7 C 0.6824(3) 0.4215(3) 0.6290(3)
C21_7 C 0.8494(5) 0.2402(3) 0.8900(4)
C22_7 C 0.7598(3) 0.3900(4) 0.6506(5)
H9_7 H 0.8410 0.2217 0.8650
H10_7 H 0.7783 0.3650 0.6590
C23_7 C 0.8592(5) 0.2204(4) 0.9314(3)
C24_7 C 0.7796(4) 0.4314(3) 0.6408(5)
H11_7 H 0.8556 0.1885 0.9353
H12_7 H 0.8115 0.4353 0.6444
C25_7 C 0.8819(4) 0.2928(4) 0.9638(3)
C26_7 C 0.7072(4) 0.4638(3) 0.6181(4)
H13_7 H 0.8943 0.3086 0.9891
H14_7 H 0.6914 0.4891 0.6057
C27_7 C 0.8740(6) 0.2466(4) 0.9664(4)
C28_7 C 0.7534(4) 0.4664(4) 0.6260(6)
H15_7 H 0.8794 0.2320 0.9947
H16_7 H 0.7680 0.4947 0.6206
Zn10_4 Zn 0.60633(3) 0.52814(3) 0.52441(3)
O7_7 O 0.8475(2) 0.28255(17) 0.76881(18)
O8_7 O 0.71745(17) 0.26881(18) 0.6525(2)
C29_7 C 0.8199(3) 0.2875(2) 0.8024(3)
C30_7 C 0.7125(2) 0.3024(3) 0.6801(3)
C31_7 C 0.8607(3) 0.4385(3) 0.8728(3)
C32_7 C 0.5615(3) 0.3728(3) 0.6393(3)
H17_7 H 0.8733 0.4565 0.8966
H18_7 H 0.5435 0.3966 0.6267
C33_7 C 0.8230(3) 0.3882(3) 0.8002(3)
C34_7 C 0.6118(3) 0.3002(3) 0.6770(3)
H19_7 H 0.8100 0.3715 0.7758
H20_7 H 0.6285 0.2758 0.6900
C35_7 C 0.8592(3) 0.3907(3) 0.8774(3)
C36_7 C 0.6093(3) 0.3774(3) 0.6408(3)
C37_7 C 0.8386(3) 0.3135(3) 0.8438(2)
C38_7 C 0.6865(3) 0.3438(2) 0.6614(3)
C39_7 C 0.8250(3) 0.4327(3) 0.7975(3)
C40_7 C 0.5673(3) 0.2975(3) 0.6750(3)
H21_7 H 0.8139 0.4479 0.7712
H22_7 H 0.5521 0.2712 0.6861
C41_7 C 0.8406(3) 0.3634(3) 0.8407(3)
C42_7 C 0.6366(3) 0.3407(3) 0.6594(3)
C43_7 C 0.8444(3) 0.4590(3) 0.8351(4)
C44_7 C 0.5410(3) 0.3351(4) 0.6556(3)
H23_7 H 0.8456 0.4912 0.8328
H24_7 H 0.5088 0.3328 0.6544
C45_7 C 0.8752(3) 0.3665(3) 0.9185(3)
C46_7 C 0.6335(3) 0.4185(3) 0.6248(3)
C47_7 C 0.8970(4) 0.3931(4) 0.9576(4)
C48_7 C 0.6069(4) 0.4576(4) 0.6030(4)
O9_7 O 0.87308(19) 0.42437(19) 0.97717(19)
O10_7 O 0.57563(19) 0.47717(19) 0.62692(19)
O14_7 O 0.9381(2) 0.3815(2) 0.9696(2)
O15_7 O 0.6185(2) 0.4696(2) 0.5619(2)
O19_7 O 0.78169(19) 0.2702(2) 0.80544(19)
O20_7 O 0.7298(2) 0.30544(19) 0.71831(19)
O21_7 O 0.8215(2) 0.1844(3) 0.5987(3)
O22_7 O 0.9013(3) 0.1785(2) 0.6844(3)
H25_7 H 0.853848 0.194708 0.604781
H26_7 H 0.813419 0.190718 0.56577
H27_7 H 0.895219 0.146152 0.694708
H28_7 H 0.93423 0.186581 0.690718
H29_7 H 0.805292 0.104781 0.646152
H30_7 H 0.809282 0.0657696 0.686581
C1_8 C 0.8842(3) 0.8520(3) 0.2909(3)
C2_8 C 0.9215(3) 0.8710(3) 0.3176(3)
C3_8 C 0.8900(4) 0.8494(5) 0.2402(3)
H1_8 H 0.8650 0.8410 0.2217
C4_8 C 0.9314(3) 0.8592(5) 0.2204(4)
H2_8 H 0.9353 0.8556 0.1885
C5_8 C 0.9638(3) 0.8819(4) 0.2928(4)
H3_8 H 0.9891 0.8943 0.3086
C6_8 C 0.9664(4) 0.8740(6) 0.2466(4)
H4_8 H 0.9947 0.8794 0.2320
Zn1_8 Zn 0.74711(3) 0.75289(3) 0.24711(3)
O1_8 O 0.70843(15) 0.79157(15) 0.20843(15)
O2_8 O 0.76881(18) 0.8475(2) 0.28255(17)
C7_8 C 0.8024(3) 0.8199(3) 0.2875(2)
C8_8 C 0.8728(3) 0.8607(3) 0.4385(3)
H5_8 H 0.8966 0.8733 0.4565
C9_8 C 0.8002(3) 0.8230(3) 0.3882(3)
H6_8 H 0.7758 0.8100 0.3715
C10_8 C 0.8774(3) 0.8592(3) 0.3907(3)
C11_8 C 0.8438(2) 0.8386(3) 0.3135(3)
C12_8 C 0.7975(3) 0.8250(3) 0.4327(3)
H7_8 H 0.7712 0.8139 0.4479
C13_8 C 0.8407(3) 0.8406(3) 0.3634(3)
C14_8 C 0.8351(4) 0.8444(3) 0.4590(3)
H8_8 H 0.8328 0.8456 0.4912
C15_8 C 0.9185(3) 0.8752(3) 0.3665(3)
C16_8 C 0.9576(4) 0.8970(4) 0.3931(4)
O3_8 O 0.97717(19) 0.87308(19) 0.42437(19)
O4_8 O 0.9696(2) 0.9381(2) 0.3815(2)
O5_8 O 0.80544(19) 0.78169(19) 0.2702(2)
O6_8 O 0.6844(3) 0.9013(3) 0.1785(2)
C17_8 C 0.6480(3) 0.7091(3) 0.3842(3)
C18_8 C 0.7909(3) 0.6158(3) 0.1480(3)
C19_8 C 0.6290(3) 0.6824(3) 0.4215(3)
C20_8 C 0.8176(3) 0.5785(3) 0.1290(3)
C21_8 C 0.6506(5) 0.7598(3) 0.3900(4)
C22_8 C 0.7402(3) 0.6100(4) 0.1506(5)
H9_8 H 0.6590 0.7783 0.3650
H10_8 H 0.7217 0.6350 0.1590
C23_8 C 0.6408(5) 0.7796(4) 0.4314(3)
C24_8 C 0.7204(4) 0.5686(3) 0.1408(5)
H11_8 H 0.6444 0.8115 0.4353
H12_8 H 0.6885 0.5647 0.1444
C25_8 C 0.6181(4) 0.7072(4) 0.4638(3)
C26_8 C 0.7928(4) 0.5362(3) 0.1181(4)
H13_8 H 0.6057 0.6914 0.4891
H14_8 H 0.8086 0.5109 0.1057
C27_8 C 0.6260(6) 0.7534(4) 0.4664(4)
C28_8 C 0.7466(4) 0.5336(4) 0.1260(6)
H15_8 H 0.6206 0.7680 0.4947
H16_8 H 0.7320 0.5053 0.1206
O7_8 O 0.6525(2) 0.71745(17) 0.26881(18)
O8_8 O 0.78255(17) 0.73119(18) 0.1525(2)
C29_8 C 0.6801(3) 0.7125(2) 0.3024(3)
C30_8 C 0.7875(2) 0.6976(3) 0.1801(3)
C31_8 C 0.6393(3) 0.5615(3) 0.3728(3)
C32_8 C 0.9385(3) 0.6272(3) 0.1393(3)
H17_8 H 0.6267 0.5435 0.3966
H18_8 H 0.9565 0.6034 0.1267
C33_8 C 0.6770(3) 0.6118(3) 0.3002(3)
C34_8 C 0.8882(3) 0.6998(3) 0.1770(3)
H19_8 H 0.6900 0.6285 0.2758
H20_8 H 0.8715 0.7242 0.1900
C35_8 C 0.6408(3) 0.6093(3) 0.3774(3)
C36_8 C 0.8907(3) 0.6226(3) 0.1408(3)
C37_8 C 0.6614(3) 0.6865(3) 0.3438(2)
C38_8 C 0.8135(3) 0.6562(2) 0.1614(3)
C39_8 C 0.6750(3) 0.5673(3) 0.2975(3)
C40_8 C 0.9327(3) 0.7025(3) 0.1750(3)
H21_8 H 0.6861 0.5521 0.2712
H22_8 H 0.9479 0.7288 0.1861
C41_8 C 0.6594(3) 0.6366(3) 0.3407(3)
C42_8 C 0.8634(3) 0.6593(3) 0.1594(3)
C43_8 C 0.6556(3) 0.5410(3) 0.3351(4)
C44_8 C 0.9590(3) 0.6649(4) 0.1556(3)
H23_8 H 0.6544 0.5088 0.3328
H24_8 H 0.9912 0.6672 0.1544
C45_8 C 0.6248(3) 0.6335(3) 0.4185(3)
C46_8 C 0.8665(3) 0.5815(3) 0.1248(3)
C47_8 C 0.6030(4) 0.6069(4) 0.4576(4)
C48_8 C 0.8931(4) 0.5424(4) 0.1030(4)
O9_8 O 0.62692(19) 0.57563(19) 0.47717(19)
O10_8 O 0.92437(19) 0.52283(19) 0.12692(19)
O14_8 O 0.5619(2) 0.6185(2) 0.4696(2)
O15_8 O 0.8815(2) 0.5304(2) 0.0619(2)
O19_8 O 0.71831(19) 0.7298(2) 0.30544(19)
O20_8 O 0.7702(2) 0.69456(19) 0.21831(19)
O21_8 O 0.6785(2) 0.8156(3) 0.0987(3)
O22_8 O 0.5987(3) 0.8215(2) 0.1844(3)
H25_8 H 0.646152 0.805292 0.104781
H26_8 H 0.686581 0.809282 0.0657696
H27_8 H 0.604781 0.853848 0.194708
H28_8 H 0.56577 0.813419 0.190718
H29_8 H 0.694708 0.895219 0.146152
H30_8 H 0.690718 0.93423 0.186581
C1_9 C 0.6020(3) 0.3658(3) 0.4591(3)
C2_9 C 0.6210(3) 0.3285(3) 0.4324(3)
C3_9 C 0.5994(5) 0.3600(4) 0.5098(3)
H1_9 H 0.5910 0.3850 0.5283
C4_9 C 0.6092(5) 0.3186(3) 0.5296(4)
H2_9 H 0.6056 0.3147 0.5615
C5_9 C 0.6319(4) 0.2862(3) 0.4572(4)
H3_9 H 0.6443 0.2609 0.4414
C6_9 C 0.6240(6) 0.2836(4) 0.5034(4)
H4_9 H 0.6294 0.2553 0.5180
Zn1_9 Zn 0.50289(3) 0.50289(3) 0.50289(3)
O1_9 O 0.54157(15) 0.54157(15) 0.54157(15)
O2_9 O 0.5975(2) 0.48119(18) 0.46745(17)
C7_9 C 0.5699(3) 0.4476(3) 0.4625(2)
C8_9 C 0.6107(3) 0.3772(3) 0.3115(3)
H5_9 H 0.6233 0.3534 0.2935
C9_9 C 0.5730(3) 0.4498(3) 0.3618(3)
H6_9 H 0.5600 0.4742 0.3785
C10_9 C 0.6092(3) 0.3726(3) 0.3593(3)
C11_9 C 0.5886(3) 0.4062(2) 0.4365(3)
C12_9 C 0.5750(3) 0.4525(3) 0.3173(3)
H7_9 H 0.5639 0.4788 0.3021
C13_9 C 0.5906(3) 0.4093(3) 0.3866(3)
C14_9 C 0.5944(3) 0.4149(4) 0.2910(3)
H8_9 H 0.5956 0.4172 0.2588
C15_9 C 0.6252(3) 0.3315(3) 0.3835(3)
C16_9 C 0.6470(4) 0.2924(4) 0.3569(4)
O3_9 O 0.62308(19) 0.27283(19) 0.32563(19)
O4_9 O 0.6881(2) 0.2804(2) 0.3685(2)
O5_9 O 0.53169(19) 0.44456(19) 0.4798(2)
O6_9 O 0.6513(3) 0.5656(3) 0.5715(2)
C17_9 C 0.4591(3) 0.6020(3) 0.3658(3)
C18_9 C 0.3658(3) 0.4591(3) 0.6020(3)
C19_9 C 0.4324(3) 0.6210(3) 0.3285(3)
C20_9 C 0.3285(3) 0.4324(3) 0.6210(3)
C21_9 C 0.5098(3) 0.5994(5) 0.3600(4)
C22_9 C 0.3600(4) 0.5098(3) 0.5994(5)
H9_9 H 0.5283 0.5910 0.3850
H10_9 H 0.3850 0.5283 0.5910
C23_9 C 0.5296(4) 0.6092(5) 0.3186(3)
C24_9 C 0.3186(3) 0.5296(4) 0.6092(5)
H11_9 H 0.5615 0.6056 0.3147
H12_9 H 0.3147 0.5615 0.6056
C25_9 C 0.4572(4) 0.6319(4) 0.2862(3)
C26_9 C 0.2862(3) 0.4572(4) 0.6319(4)
H13_9 H 0.4414 0.6443 0.2609
H14_9 H 0.2609 0.4414 0.6443
C27_9 C 0.5034(4) 0.6240(6) 0.2836(4)
C28_9 C 0.2836(4) 0.5034(4) 0.6240(6)
H15_9 H 0.5180 0.6294 0.2553
H16_9 H 0.2553 0.5180 0.6294
Zn5_5 Zn 0.64367(3) 0.22559(3) 0.27814(3)
Zn6_5 Zn 0.72559(3) 0.22186(3) 0.35633(3)
Zn7_5 Zn 0.27814(3) 0.64367(3) 0.22559(3)
Zn8_5 Zn 0.35633(3) 0.72559(3) 0.22186(3)
Zn9_5 Zn 0.22559(3) 0.27814(3) 0.64367(3)
Zn10_5 Zn 0.22186(3) 0.35633(3) 0.72559(3)
O7_9 O 0.46745(17) 0.5975(2) 0.48119(18)
O8_9 O 0.48119(18) 0.46745(17) 0.5975(2)
C29_9 C 0.4625(2) 0.5699(3) 0.4476(3)
C30_9 C 0.4476(3) 0.4625(2) 0.5699(3)
C31_9 C 0.3115(3) 0.6107(3) 0.3772(3)
C32_9 C 0.3772(3) 0.3115(3) 0.6107(3)
H17_9 H 0.2935 0.6233 0.3534
H18_9 H 0.3534 0.2935 0.6233
C33_9 C 0.3618(3) 0.5730(3) 0.4498(3)
C34_9 C 0.4498(3) 0.3618(3) 0.5730(3)
H19_9 H 0.3785 0.5600 0.4742
H20_9 H 0.4742 0.3785 0.5600
C35_9 C 0.3593(3) 0.6092(3) 0.3726(3)
C36_9 C 0.3726(3) 0.3593(3) 0.6092(3)
C37_9 C 0.4365(3) 0.5886(3) 0.4062(2)
C38_9 C 0.4062(2) 0.4365(3) 0.5886(3)
C39_9 C 0.3173(3) 0.5750(3) 0.4525(3)
C40_9 C 0.4525(3) 0.3173(3) 0.5750(3)
H21_9 H 0.3021 0.5639 0.4788
H22_9 H 0.4788 0.3021 0.5639
C41_9 C 0.3866(3) 0.5906(3) 0.4093(3)
C42_9 C 0.4093(3) 0.3866(3) 0.5906(3)
C43_9 C 0.2910(3) 0.5944(3) 0.4149(4)
C44_9 C 0.4149(4) 0.2910(3) 0.5944(3)
H23_9 H 0.2588 0.5956 0.4172
H24_9 H 0.4172 0.2588 0.5956
C45_9 C 0.3835(3) 0.6252(3) 0.3315(3)
C46_9 C 0.3315(3) 0.3835(3) 0.6252(3)
C47_9 C 0.3569(4) 0.6470(4) 0.2924(4)
C48_9 C 0.2924(4) 0.3569(4) 0.6470(4)
O9_9 O 0.32563(19) 0.62308(19) 0.27283(19)
O10_9 O 0.27283(19) 0.32563(19) 0.62308(19)
O14_9 O 0.3685(2) 0.6881(2) 0.2804(2)
O15_9 O 0.2804(2) 0.3685(2) 0.6881(2)
O19_9 O 0.4798(2) 0.53169(19) 0.44456(19)
O20_9 O 0.44456(19) 0.4798(2) 0.53169(19)
O21_9 O 0.5656(3) 0.5715(2) 0.6513(3)
O22_9 O 0.5715(2) 0.6513(3) 0.5656(3)
H25_9 H 0.555292 0.603848 0.645219
H26_9 H 0.559282 0.563419 0.68423
H27_9 H 0.603848 0.645219 0.555292
H28_9 H 0.563419 0.68423 0.559282
H29_9 H 0.645219 0.555292 0.603848
H30_9 H 0.68423 0.559282 0.563419
C18_10 C 0.1342(3) 0.5409(3) 0.1020(3)
C20_10 C 0.1715(3) 0.5676(3) 0.1210(3)
C22_10 C 0.1400(4) 0.4902(3) 0.0994(5)
H10_10 H 0.1150 0.4717 0.0910
C24_10 C 0.1814(3) 0.4704(4) 0.1092(5)
H12_10 H 0.1853 0.4385 0.1056
C26_10 C 0.2138(3) 0.5428(4) 0.1319(4)
H14_10 H 0.2391 0.5586 0.1443
C28_10 C 0.2164(4) 0.4966(4) 0.1240(6)
H16_10 H 0.2447 0.4820 0.1294
Zn9_6 Zn 0.27441(3) 0.72186(3) 0.14367(3)
O8_10 O 0.01881(18) 0.53255(17) 0.0975(2)
C30_10 C 0.0524(3) 0.5375(2) 0.0699(3)
C32_10 C 0.1228(3) 0.6885(3) 0.1107(3)
H18_10 H 0.1466 0.7065 0.1233
C34_10 C 0.0502(3) 0.6382(3) 0.0730(3)
H20_10 H 0.0258 0.6215 0.0600
C36_10 C 0.1274(3) 0.6407(3) 0.1092(3)
C38_10 C 0.0938(2) 0.5635(3) 0.0886(3)
C40_10 C 0.0475(3) 0.6827(3) 0.0750(3)
H22_10 H 0.0212 0.6979 0.0639
C42_10 C 0.0907(3) 0.6134(3) 0.0906(3)
C44_10 C 0.0851(4) 0.7090(3) 0.0944(3)
H24_10 H 0.0828 0.7412 0.0956
C46_10 C 0.1685(3) 0.6165(3) 0.1252(3)
C48_10 C 0.2076(4) 0.6431(4) 0.1470(4)
O10_10 O 0.22717(19) 0.67437(19) 0.12308(19)
O15_10 O 0.2196(2) 0.6315(2) 0.1881(2)
O20_10 O 0.05544(19) 0.5202(2) 0.03169(19)
C17_10 C 0.0409(3) 0.3980(3) 0.8658(3)
C19_10 C 0.0676(3) 0.3790(3) 0.8285(3)
C25_10 C 0.0428(4) 0.3681(4) 0.7862(3)
H13_10 H 0.0586 0.3557 0.7609
Zn8_6 Zn 0.14367(3) 0.27441(3) 0.72186(3)
O7_10 O 0.03255(17) 0.4025(2) 0.98119(18)
C29_10 C 0.0375(2) 0.4301(3) 0.9476(3)
C31_10 C 0.1885(3) 0.3893(3) 0.8772(3)
H17_10 H 0.2065 0.3767 0.8534
C33_10 C 0.1382(3) 0.4270(3) 0.9498(3)
H19_10 H 0.1215 0.4400 0.9742
C35_10 C 0.1407(3) 0.3908(3) 0.8726(3)
C37_10 C 0.0635(3) 0.4114(3) 0.9062(2)
C39_10 C 0.1827(3) 0.4250(3) 0.9525(3)
H21_10 H 0.1979 0.4361 0.9788
C41_10 C 0.1134(3) 0.4094(3) 0.9093(3)
C43_10 C 0.2090(3) 0.4056(3) 0.9149(4)
H23_10 H 0.2412 0.4044 0.9172
C45_10 C 0.1165(3) 0.3748(3) 0.8315(3)
C47_10 C 0.1431(4) 0.3530(4) 0.7924(4)
O9_10 O 0.17437(19) 0.37692(19) 0.77283(19)
O14_10 O 0.1315(2) 0.3119(2) 0.7804(2)
O19_10 O 0.0202(2) 0.46831(19) 0.94456(19)
C3_10 C 0.9006(5) 0.6400(4) 0.0098(3)
H1_10 H 0.9090 0.6150 0.0283
C4_10 C 0.8908(5) 0.6814(3) 0.0296(4)
H2_10 H 0.8944 0.6853 0.0615
C6_10 C 0.8760(6) 0.7164(4) 0.0034(4)
H4_10 H 0.8706 0.7447 0.0180
Zn1_10 Zn 0.99711(3) 0.49711(3) 0.00289(3)
O1_10 O 0.95843(15) 0.45843(15) 0.04157(15)
O6_10 O 0.8487(3) 0.4344(3) 0.0715(2)
O21_10 O 0.9344(3) 0.4285(2) 0.1513(3)
O22_10 O 0.9285(2) 0.3487(3) 0.0656(3)
H25_10 H 0.944708 0.396152 0.145219
H26_10 H 0.940718 0.436581 0.18423
H27_10 H 0.896152 0.354781 0.0552919
H28_10 H 0.936581 0.31577 0.0592819
H29_10 H 0.854781 0.444708 0.103848
H30_10 H 0.81577 0.440718 0.0634187
C1_10 C 0.8980(3) 0.6342(3) 0.9591(3)
C2_10 C 0.8790(3) 0.6715(3) 0.9324(3)
C5_10 C 0.8681(4) 0.7138(3) 0.9572(4)
H3_10 H 0.8557 0.7391 0.9414
O2_10 O 0.9025(2) 0.51881(18) 0.96745(17)
C7_10 C 0.9301(3) 0.5524(3) 0.9625(2)
C8_10 C 0.8893(3) 0.6228(3) 0.8115(3)
H5_10 H 0.8767 0.6466 0.7935
C9_10 C 0.9270(3) 0.5502(3) 0.8618(3)
H6_10 H 0.9400 0.5258 0.8785
C10_10 C 0.8908(3) 0.6274(3) 0.8593(3)
C11_10 C 0.9114(3) 0.5938(2) 0.9365(3)
C12_10 C 0.9250(3) 0.5475(3) 0.8173(3)
H7_10 H 0.9361 0.5212 0.8021
C13_10 C 0.9094(3) 0.5907(3) 0.8866(3)
C14_10 C 0.9056(3) 0.5851(4) 0.7910(3)
H8_10 H 0.9044 0.5828 0.7588
C15_10 C 0.8748(3) 0.6685(3) 0.8835(3)
C16_10 C 0.8530(4) 0.7076(4) 0.8569(4)
O3_10 O 0.87692(19) 0.72717(19) 0.82563(19)
O4_10 O 0.8119(2) 0.7196(2) 0.8685(2)
O5_10 O 0.96831(19) 0.55544(19) 0.9798(2)
C21_10 C 0.9902(3) 0.4006(5) 0.8600(4)
H9_10 H 0.9717 0.4090 0.8850
C23_10 C 0.9704(4) 0.3908(5) 0.8186(3)
H11_10 H 0.9385 0.3944 0.8147
C27_10 C 0.9966(4) 0.3760(6) 0.7836(4)
H15_10 H 0.9820 0.3706 0.7553
Zn5_6 Zn 0.85633(3) 0.77441(3) 0.77814(3)
Zn6_6 Zn 0.77441(3) 0.77814(3) 0.85633(3)
C17_11 C 0.5409(3) 0.1020(3) 0.1342(3)
C19_11 C 0.5676(3) 0.1210(3) 0.1715(3)
C21_11 C 0.4902(3) 0.0994(5) 0.1400(4)
H9_11 H 0.4717 0.0910 0.1150
C23_11 C 0.4704(4) 0.1092(5) 0.1814(3)
H11_11 H 0.4385 0.1056 0.1853
C25_11 C 0.5428(4) 0.1319(4) 0.2138(3)
H13_11 H 0.5586 0.1443 0.2391
C27_11 C 0.4966(4) 0.1240(6) 0.2164(4)
H15_11 H 0.4820 0.1294 0.2447
Zn7_6 Zn 0.72186(3) 0.14367(3) 0.27441(3)
O7_11 O 0.53255(17) 0.0975(2) 0.01881(18)
C29_11 C 0.5375(2) 0.0699(3) 0.0524(3)
C31_11 C 0.6885(3) 0.1107(3) 0.1228(3)
H17_11 H 0.7065 0.1233 0.1466
C33_11 C 0.6382(3) 0.0730(3) 0.0502(3)
H19_11 H 0.6215 0.0600 0.0258
C35_11 C 0.6407(3) 0.1092(3) 0.1274(3)
C37_11 C 0.5635(3) 0.0886(3) 0.0938(2)
C39_11 C 0.6827(3) 0.0750(3) 0.0475(3)
H21_11 H 0.6979 0.0639 0.0212
C41_11 C 0.6134(3) 0.0906(3) 0.0907(3)
C43_11 C 0.7090(3) 0.0944(3) 0.0851(4)
H23_11 H 0.7412 0.0956 0.0828
C45_11 C 0.6165(3) 0.1252(3) 0.1685(3)
C47_11 C 0.6431(4) 0.1470(4) 0.2076(4)
O9_11 O 0.67437(19) 0.12308(19) 0.22717(19)
O14_11 O 0.6315(2) 0.1881(2) 0.2196(2)
O19_11 O 0.5202(2) 0.03169(19) 0.05544(19)
Zn1_11 Zn 0.49711(3) 0.00289(3) 0.99711(3)
O1_11 O 0.45843(15) 0.04157(15) 0.95843(15)
O6_11 O 0.3487(3) 0.0656(3) 0.9285(2)
C22_11 C 0.6400(4) 0.0098(3) 0.9006(5)
H10_11 H 0.6150 0.0283 0.9090
C24_11 C 0.6814(3) 0.0296(4) 0.8908(5)
H12_11 H 0.6853 0.0615 0.8944
C28_11 C 0.7164(4) 0.0034(4) 0.8760(6)
H16_11 H 0.7447 0.0180 0.8706
O21_11 O 0.4344(3) 0.0715(2) 0.8487(3)
O22_11 O 0.4285(2) 0.1513(3) 0.9344(3)
H25_11 H 0.444708 0.103848 0.854781
H26_11 H 0.440718 0.0634187 0.81577
H27_11 H 0.396152 0.145219 0.944708
H28_11 H 0.436581 0.18423 0.940718
H29_11 H 0.354781 0.0552919 0.896152
H30_11 H 0.31577 0.0592819 0.936581
C1_11 C 0.3980(3) 0.8658(3) 0.0409(3)
C2_11 C 0.3790(3) 0.8285(3) 0.0676(3)
C5_11 C 0.3681(4) 0.7862(3) 0.0428(4)
H3_11 H 0.3557 0.7609 0.0586
O2_11 O 0.4025(2) 0.98119(18) 0.03255(17)
C7_11 C 0.4301(3) 0.9476(3) 0.0375(2)
C8_11 C 0.3893(3) 0.8772(3) 0.1885(3)
H5_11 H 0.3767 0.8534 0.2065
C9_11 C 0.4270(3) 0.9498(3) 0.1382(3)
H6_11 H 0.4400 0.9742 0.1215
C10_11 C 0.3908(3) 0.8726(3) 0.1407(3)
C11_11 C 0.4114(3) 0.9062(2) 0.0635(3)
C12_11 C 0.4250(3) 0.9525(3) 0.1827(3)
H7_11 H 0.4361 0.9788 0.1979
C13_11 C 0.4094(3) 0.9093(3) 0.1134(3)
C14_11 C 0.4056(3) 0.9149(4) 0.2090(3)
H8_11 H 0.4044 0.9172 0.2412
C15_11 C 0.3748(3) 0.8315(3) 0.1165(3)
C16_11 C 0.3530(4) 0.7924(4) 0.1431(4)
O3_11 O 0.37692(19) 0.77283(19) 0.17437(19)
O4_11 O 0.3119(2) 0.7804(2) 0.1315(2)
O5_11 O 0.46831(19) 0.94456(19) 0.0202(2)
C3_11 C 0.4006(5) 0.8600(4) 0.9902(3)
H1_11 H 0.4090 0.8850 0.9717
C4_11 C 0.3908(5) 0.8186(3) 0.9704(4)
H2_11 H 0.3944 0.8147 0.9385
C6_11 C 0.3760(6) 0.7836(4) 0.9966(4)
H4_11 H 0.3706 0.7553 0.9820
C18_11 C 0.6342(3) 0.9591(3) 0.8980(3)
C20_11 C 0.6715(3) 0.9324(3) 0.8790(3)
C26_11 C 0.7138(3) 0.9572(4) 0.8681(4)
H14_11 H 0.7391 0.9414 0.8557
Zn10_6 Zn 0.77814(3) 0.85633(3) 0.77441(3)
O8_11 O 0.51881(18) 0.96745(17) 0.9025(2)
C30_11 C 0.5524(3) 0.9625(2) 0.9301(3)
C32_11 C 0.6228(3) 0.8115(3) 0.8893(3)
H18_11 H 0.6466 0.7935 0.8767
C34_11 C 0.5502(3) 0.8618(3) 0.9270(3)
H20_11 H 0.5258 0.8785 0.9400
C36_11 C 0.6274(3) 0.8593(3) 0.8908(3)
C38_11 C 0.5938(2) 0.9365(3) 0.9114(3)
C40_11 C 0.5475(3) 0.8173(3) 0.9250(3)
H22_11 H 0.5212 0.8021 0.9361
C42_11 C 0.5907(3) 0.8866(3) 0.9094(3)
C44_11 C 0.5851(4) 0.7910(3) 0.9056(3)
H24_11 H 0.5828 0.7588 0.9044
C46_11 C 0.6685(3) 0.8835(3) 0.8748(3)
C48_11 C 0.7076(4) 0.8569(4) 0.8530(4)
O10_11 O 0.72717(19) 0.82563(19) 0.87692(19)
O15_11 O 0.7196(2) 0.8685(2) 0.8119(2)
O20_11 O 0.55544(19) 0.9798(2) 0.96831(19)
C1_12 C 0.1020(3) 0.1342(3) 0.5409(3)
C2_12 C 0.1210(3) 0.1715(3) 0.5676(3)
C3_12 C 0.0994(5) 0.1400(4) 0.4902(3)
H1_12 H 0.0910 0.1150 0.4717
C4_12 C 0.1092(5) 0.1814(3) 0.4704(4)
H2_12 H 0.1056 0.1853 0.4385
C5_12 C 0.1319(4) 0.2138(3) 0.5428(4)
H3_12 H 0.1443 0.2391 0.5586
C6_12 C 0.1240(6) 0.2164(4) 0.4966(4)
H4_12 H 0.1294 0.2447 0.4820
O2_12 O 0.0975(2) 0.01881(18) 0.53255(17)
C7_12 C 0.0699(3) 0.0524(3) 0.5375(2)
C8_12 C 0.1107(3) 0.1228(3) 0.6885(3)
H5_12 H 0.1233 0.1466 0.7065
C9_12 C 0.0730(3) 0.0502(3) 0.6382(3)
H6_12 H 0.0600 0.0258 0.6215
C10_12 C 0.1092(3) 0.1274(3) 0.6407(3)
C11_12 C 0.0886(3) 0.0938(2) 0.5635(3)
C12_12 C 0.0750(3) 0.0475(3) 0.6827(3)
H7_12 H 0.0639 0.0212 0.6979
C13_12 C 0.0906(3) 0.0907(3) 0.6134(3)
C14_12 C 0.0944(3) 0.0851(4) 0.7090(3)
H8_12 H 0.0956 0.0828 0.7412
C15_12 C 0.1252(3) 0.1685(3) 0.6165(3)
C16_12 C 0.1470(4) 0.2076(4) 0.6431(4)
O3_12 O 0.12308(19) 0.22717(19) 0.67437(19)
O4_12 O 0.1881(2) 0.2196(2) 0.6315(2)
O5_12 O 0.03169(19) 0.05544(19) 0.5202(2)
Zn1_12 Zn 0.00289(3) 0.99711(3) 0.49711(3)
O1_12 O 0.04157(15) 0.95843(15) 0.45843(15)
O6_12 O 0.1513(3) 0.9344(3) 0.4285(2)
C21_12 C 0.0098(3) 0.9006(5) 0.6400(4)
H9_12 H 0.0283 0.9090 0.6150
C23_12 C 0.0296(4) 0.8908(5) 0.6814(3)
H11_12 H 0.0615 0.8944 0.6853
C27_12 C 0.0034(4) 0.8760(6) 0.7164(4)
H15_12 H 0.0180 0.8706 0.7447
O21_12 O 0.0656(3) 0.9285(2) 0.3487(3)
O22_12 O 0.0715(2) 0.8487(3) 0.4344(3)
H25_12 H 0.0552919 0.896152 0.354781
H26_12 H 0.0592819 0.936581 0.31577
H27_12 H 0.103848 0.854781 0.444708
H28_12 H 0.0634187 0.81577 0.440718
H29_12 H 0.145219 0.944708 0.396152
H30_12 H 0.18423 0.940718 0.436581
C18_12 C 0.8658(3) 0.0409(3) 0.3980(3)
C20_12 C 0.8285(3) 0.0676(3) 0.3790(3)
C26_12 C 0.7862(3) 0.0428(4) 0.3681(4)
H14_12 H 0.7609 0.0586 0.3557
O8_12 O 0.98119(18) 0.03255(17) 0.4025(2)
C30_12 C 0.9476(3) 0.0375(2) 0.4301(3)
C32_12 C 0.8772(3) 0.1885(3) 0.3893(3)
H18_12 H 0.8534 0.2065 0.3767
C34_12 C 0.9498(3) 0.1382(3) 0.4270(3)
H20_12 H 0.9742 0.1215 0.4400
C36_12 C 0.8726(3) 0.1407(3) 0.3908(3)
C38_12 C 0.9062(2) 0.0635(3) 0.4114(3)
C40_12 C 0.9525(3) 0.1827(3) 0.4250(3)
H22_12 H 0.9788 0.1979 0.4361
C42_12 C 0.9093(3) 0.1134(3) 0.4094(3)
C44_12 C 0.9149(4) 0.2090(3) 0.4056(3)
H24_12 H 0.9172 0.2412 0.4044
C46_12 C 0.8315(3) 0.1165(3) 0.3748(3)
C48_12 C 0.7924(4) 0.1431(4) 0.3530(4)
O10_12 O 0.77283(19) 0.17437(19) 0.37692(19)
O15_12 O 0.7804(2) 0.1315(2) 0.3119(2)
O20_12 O 0.94456(19) 0.0202(2) 0.46831(19)
C17_12 C 0.9591(3) 0.8980(3) 0.6342(3)
C19_12 C 0.9324(3) 0.8790(3) 0.6715(3)
C22_12 C 0.8600(4) 0.9902(3) 0.4006(5)
H10_12 H 0.8850 0.9717 0.4090
C24_12 C 0.8186(3) 0.9704(4) 0.3908(5)
H12_12 H 0.8147 0.9385 0.3944
C25_12 C 0.9572(4) 0.8681(4) 0.7138(3)
H13_12 H 0.9414 0.8557 0.7391
C28_12 C 0.7836(4) 0.9966(4) 0.3760(6)
H16_12 H 0.7553 0.9820 0.3706
O7_12 O 0.96745(17) 0.9025(2) 0.51881(18)
C29_12 C 0.9625(2) 0.9301(3) 0.5524(3)
C31_12 C 0.8115(3) 0.8893(3) 0.6228(3)
H17_12 H 0.7935 0.8767 0.6466
C33_12 C 0.8618(3) 0.9270(3) 0.5502(3)
H19_12 H 0.8785 0.9400 0.5258
C35_12 C 0.8593(3) 0.8908(3) 0.6274(3)
C37_12 C 0.9365(3) 0.9114(3) 0.5938(2)
C39_12 C 0.8173(3) 0.9250(3) 0.5475(3)
H21_12 H 0.8021 0.9361 0.5212
C41_12 C 0.8866(3) 0.9094(3) 0.5907(3)
C43_12 C 0.7910(3) 0.9056(3) 0.5851(4)
H23_12 H 0.7588 0.9044 0.5828
C45_12 C 0.8835(3) 0.8748(3) 0.6685(3)
C47_12 C 0.8569(4) 0.8530(4) 0.7076(4)
O9_12 O 0.82563(19) 0.87692(19) 0.72717(19)
O14_12 O 0.8685(2) 0.8119(2) 0.7196(2)
O19_12 O 0.9798(2) 0.96831(19) 0.55544(19)
C1_13 C 0.6158(3) 0.8520(3) 0.7091(3)
C2_13 C 0.5785(3) 0.8710(3) 0.6824(3)
C3_13 C 0.6100(4) 0.8494(5) 0.7598(3)
H1_13 H 0.6350 0.8410 0.7783
C4_13 C 0.5686(3) 0.8592(5) 0.7796(4)
H2_13 H 0.5647 0.8556 0.8115
C5_13 C 0.5362(3) 0.8819(4) 0.7072(4)
H3_13 H 0.5109 0.8943 0.6914
C6_13 C 0.5336(4) 0.8740(6) 0.7534(4)
H4_13 H 0.5053 0.8794 0.7680
Zn1_13 Zn 0.75289(3) 0.75289(3) 0.75289(3)
O1_13 O 0.79157(15) 0.79157(15) 0.79157(15)
O2_13 O 0.73119(18) 0.8475(2) 0.71745(17)
C7_13 C 0.6976(3) 0.8199(3) 0.7125(2)
C8_13 C 0.6272(3) 0.8607(3) 0.5615(3)
H5_13 H 0.6034 0.8733 0.5435
C9_13 C 0.6998(3) 0.8230(3) 0.6118(3)
H6_13 H 0.7242 0.8100 0.6285
C10_13 C 0.6226(3) 0.8592(3) 0.6093(3)
C11_13 C 0.6562(2) 0.8386(3) 0.6865(3)
C12_13 C 0.7025(3) 0.8250(3) 0.5673(3)
H7_13 H 0.7288 0.8139 0.5521
C13_13 C 0.6593(3) 0.8406(3) 0.6366(3)
C14_13 C 0.6649(4) 0.8444(3) 0.5410(3)
H8_13 H 0.6672 0.8456 0.5088
C15_13 C 0.5815(3) 0.8752(3) 0.6335(3)
C16_13 C 0.5424(4) 0.8970(4) 0.6069(4)
O5_13 O 0.69456(19) 0.78169(19) 0.7298(2)
O6_13 O 0.8156(3) 0.9013(3) 0.8215(2)
C17_13 C 0.8520(3) 0.7091(3) 0.6158(3)
C18_13 C 0.7091(3) 0.6158(3) 0.8520(3)
C19_13 C 0.8710(3) 0.6824(3) 0.5785(3)
C20_13 C 0.6824(3) 0.5785(3) 0.8710(3)
C21_13 C 0.8494(5) 0.7598(3) 0.6100(4)
C22_13 C 0.7598(3) 0.6100(4) 0.8494(5)
H9_13 H 0.8410 0.7783 0.6350
H10_13 H 0.7783 0.6350 0.8410
C23_13 C 0.8592(5) 0.7796(4) 0.5686(3)
C24_13 C 0.7796(4) 0.5686(3) 0.8592(5)
H11_13 H 0.8556 0.8115 0.5647
H12_13 H 0.8115 0.5647 0.8556
C25_13 C 0.8819(4) 0.7072(4) 0.5362(3)
C26_13 C 0.7072(4) 0.5362(3) 0.8819(4)
H13_13 H 0.8943 0.6914 0.5109
H14_13 H 0.6914 0.5109 0.8943
C27_13 C 0.8740(6) 0.7534(4) 0.5336(4)
C28_13 C 0.7534(4) 0.5336(4) 0.8740(6)
H15_13 H 0.8794 0.7680 0.5053
H16_13 H 0.7680 0.5053 0.8794
O7_13 O 0.8475(2) 0.71745(17) 0.73119(18)
O8_13 O 0.71745(17) 0.73119(18) 0.8475(2)
C29_13 C 0.8199(3) 0.7125(2) 0.6976(3)
C30_13 C 0.7125(2) 0.6976(3) 0.8199(3)
C31_13 C 0.8607(3) 0.5615(3) 0.6272(3)
C32_13 C 0.5615(3) 0.6272(3) 0.8607(3)
H17_13 H 0.8733 0.5435 0.6034
H18_13 H 0.5435 0.6034 0.8733
C33_13 C 0.8230(3) 0.6118(3) 0.6998(3)
C34_13 C 0.6118(3) 0.6998(3) 0.8230(3)
H19_13 H 0.8100 0.6285 0.7242
H20_13 H 0.6285 0.7242 0.8100
C35_13 C 0.8592(3) 0.6093(3) 0.6226(3)
C36_13 C 0.6093(3) 0.6226(3) 0.8592(3)
C37_13 C 0.8386(3) 0.6865(3) 0.6562(2)
C38_13 C 0.6865(3) 0.6562(2) 0.8386(3)
C39_13 C 0.8250(3) 0.5673(3) 0.7025(3)
C40_13 C 0.5673(3) 0.7025(3) 0.8250(3)
H21_13 H 0.8139 0.5521 0.7288
H22_13 H 0.5521 0.7288 0.8139
C41_13 C 0.8406(3) 0.6366(3) 0.6593(3)
C42_13 C 0.6366(3) 0.6593(3) 0.8406(3)
C43_13 C 0.8444(3) 0.5410(3) 0.6649(4)
C44_13 C 0.5410(3) 0.6649(4) 0.8444(3)
H23_13 H 0.8456 0.5088 0.6672
H24_13 H 0.5088 0.6672 0.8456
C45_13 C 0.8752(3) 0.6335(3) 0.5815(3)
C46_13 C 0.6335(3) 0.5815(3) 0.8752(3)
C47_13 C 0.8970(4) 0.6069(4) 0.5424(4)
C48_13 C 0.6069(4) 0.5424(4) 0.8970(4)
O19_13 O 0.78169(19) 0.7298(2) 0.69456(19)
O20_13 O 0.7298(2) 0.69456(19) 0.78169(19)
O21_13 O 0.8215(2) 0.8156(3) 0.9013(3)
O22_13 O 0.9013(3) 0.8215(2) 0.8156(3)
H25_13 H 0.853848 0.805292 0.895219
H26_13 H 0.813419 0.809282 0.93423
H27_13 H 0.895219 0.853848 0.805292
H28_13 H 0.93423 0.813419 0.809282
H29_13 H 0.805292 0.895219 0.853848
H30_13 H 0.809282 0.93423 0.813419
C1_14 C 0.8842(3) 0.1480(3) 0.2091(3)
C2_14 C 0.9215(3) 0.1290(3) 0.1824(3)
C3_14 C 0.8900(4) 0.1506(5) 0.2598(3)
H1_14 H 0.8650 0.1590 0.2783
C4_14 C 0.9314(3) 0.1408(5) 0.2796(4)
H2_14 H 0.9353 0.1444 0.3115
C5_14 C 0.9638(3) 0.1181(4) 0.2072(4)
H3_14 H 0.9891 0.1057 0.1914
C6_14 C 0.9664(4) 0.1260(6) 0.2534(4)
H4_14 H 0.9947 0.1206 0.2680
Zn1_14 Zn 0.74711(3) 0.24711(3) 0.25289(3)
O1_14 O 0.70843(15) 0.20843(15) 0.29157(15)
O2_14 O 0.76881(18) 0.1525(2) 0.21745(17)
C7_14 C 0.8024(3) 0.1801(3) 0.2125(2)
C8_14 C 0.8728(3) 0.1393(3) 0.0615(3)
H5_14 H 0.8966 0.1267 0.0435
C9_14 C 0.8002(3) 0.1770(3) 0.1118(3)
H6_14 H 0.7758 0.1900 0.1285
C10_14 C 0.8774(3) 0.1408(3) 0.1093(3)
C11_14 C 0.8438(2) 0.1614(3) 0.1865(3)
C12_14 C 0.7975(3) 0.1750(3) 0.0673(3)
H7_14 H 0.7712 0.1861 0.0521
C13_14 C 0.8407(3) 0.1594(3) 0.1366(3)
C14_14 C 0.8351(4) 0.1556(3) 0.0410(3)
H8_14 H 0.8328 0.1544 0.0088
C15_14 C 0.9185(3) 0.1248(3) 0.1335(3)
C16_14 C 0.9576(4) 0.1030(4) 0.1069(4)
O5_14 O 0.80544(19) 0.21831(19) 0.2298(2)
O6_14 O 0.6844(3) 0.0987(3) 0.3215(2)
C17_14 C 0.6480(3) 0.2909(3) 0.1158(3)
C18_14 C 0.7909(3) 0.3842(3) 0.3520(3)
C19_14 C 0.6290(3) 0.3176(3) 0.0785(3)
C20_14 C 0.8176(3) 0.4215(3) 0.3710(3)
C21_14 C 0.6506(5) 0.2402(3) 0.1100(4)
C22_14 C 0.7402(3) 0.3900(4) 0.3494(5)
H9_14 H 0.6590 0.2217 0.1350
H10_14 H 0.7217 0.3650 0.3410
C23_14 C 0.6408(5) 0.2204(4) 0.0686(3)
C24_14 C 0.7204(4) 0.4314(3) 0.3592(5)
H11_14 H 0.6444 0.1885 0.0647
H12_14 H 0.6885 0.4353 0.3556
C25_14 C 0.6181(4) 0.2928(4) 0.0362(3)
C26_14 C 0.7928(4) 0.4638(3) 0.3819(4)
H13_14 H 0.6057 0.3086 0.0109
H14_14 H 0.8086 0.4891 0.3943
C27_14 C 0.6260(6) 0.2466(4) 0.0336(4)
C28_14 C 0.7466(4) 0.4664(4) 0.3740(6)
H15_14 H 0.6206 0.2320 0.0053
H16_14 H 0.7320 0.4947 0.3794
O7_14 O 0.6525(2) 0.28255(17) 0.23119(18)
O8_14 O 0.78255(17) 0.26881(18) 0.3475(2)
C29_14 C 0.6801(3) 0.2875(2) 0.1976(3)
C30_14 C 0.7875(2) 0.3024(3) 0.3199(3)
C31_14 C 0.6393(3) 0.4385(3) 0.1272(3)
C32_14 C 0.9385(3) 0.3728(3) 0.3607(3)
H17_14 H 0.6267 0.4565 0.1034
H18_14 H 0.9565 0.3966 0.3733
C33_14 C 0.6770(3) 0.3882(3) 0.1998(3)
C34_14 C 0.8882(3) 0.3002(3) 0.3230(3)
H19_14 H 0.6900 0.3715 0.2242
H20_14 H 0.8715 0.2758 0.3100
C35_14 C 0.6408(3) 0.3907(3) 0.1226(3)
C36_14 C 0.8907(3) 0.3774(3) 0.3592(3)
C37_14 C 0.6614(3) 0.3135(3) 0.1562(2)
C38_14 C 0.8135(3) 0.3438(2) 0.3386(3)
C39_14 C 0.6750(3) 0.4327(3) 0.2025(3)
C40_14 C 0.9327(3) 0.2975(3) 0.3250(3)
H21_14 H 0.6861 0.4479 0.2288
H22_14 H 0.9479 0.2712 0.3139
C41_14 C 0.6594(3) 0.3634(3) 0.1593(3)
C42_14 C 0.8634(3) 0.3407(3) 0.3406(3)
C43_14 C 0.6556(3) 0.4590(3) 0.1649(4)
C44_14 C 0.9590(3) 0.3351(4) 0.3444(3)
H23_14 H 0.6544 0.4912 0.1672
H24_14 H 0.9912 0.3328 0.3456
C45_14 C 0.6248(3) 0.3665(3) 0.0815(3)
C46_14 C 0.8665(3) 0.4185(3) 0.3752(3)
C47_14 C 0.6030(4) 0.3931(4) 0.0424(4)
C48_14 C 0.8931(4) 0.4576(4) 0.3970(4)
O19_14 O 0.71831(19) 0.2702(2) 0.19456(19)
O20_14 O 0.7702(2) 0.30544(19) 0.28169(19)
O21_14 O 0.6785(2) 0.1844(3) 0.4013(3)
O22_14 O 0.5987(3) 0.1785(2) 0.3156(3)
H25_14 H 0.646152 0.194708 0.395219
H26_14 H 0.686581 0.190718 0.43423
H27_14 H 0.604781 0.146152 0.305292
H28_14 H 0.56577 0.186581 0.309282
H29_14 H 0.694708 0.104781 0.353848
H30_14 H 0.690718 0.0657696 0.313419
C1_15 C 0.1158(3) 0.6480(3) 0.2909(3)
C2_15 C 0.0785(3) 0.6290(3) 0.3176(3)
C3_15 C 0.1100(4) 0.6506(5) 0.2402(3)
H1_15 H 0.1350 0.6590 0.2217
C4_15 C 0.0686(3) 0.6408(5) 0.2204(4)
H2_15 H 0.0647 0.6444 0.1885
C5_15 C 0.0362(3) 0.6181(4) 0.2928(4)
H3_15 H 0.0109 0.6057 0.3086
C6_15 C 0.0336(4) 0.6260(6) 0.2466(4)
H4_15 H 0.0053 0.6206 0.2320
Zn1_15 Zn 0.25289(3) 0.74711(3) 0.24711(3)
O1_15 O 0.29157(15) 0.70843(15) 0.20843(15)
O2_15 O 0.23119(18) 0.6525(2) 0.28255(17)
C7_15 C 0.1976(3) 0.6801(3) 0.2875(2)
C8_15 C 0.1272(3) 0.6393(3) 0.4385(3)
H5_15 H 0.1034 0.6267 0.4565
C9_15 C 0.1998(3) 0.6770(3) 0.3882(3)
H6_15 H 0.2242 0.6900 0.3715
C10_15 C 0.1226(3) 0.6408(3) 0.3907(3)
C11_15 C 0.1562(2) 0.6614(3) 0.3135(3)
C12_15 C 0.2025(3) 0.6750(3) 0.4327(3)
H7_15 H 0.2288 0.6861 0.4479
C13_15 C 0.1593(3) 0.6594(3) 0.3634(3)
C14_15 C 0.1649(4) 0.6556(3) 0.4590(3)
H8_15 H 0.1672 0.6544 0.4912
C15_15 C 0.0815(3) 0.6248(3) 0.3665(3)
C16_15 C 0.0424(4) 0.6030(4) 0.3931(4)
O5_15 O 0.19456(19) 0.71831(19) 0.2702(2)
O6_15 O 0.3156(3) 0.5987(3) 0.1785(2)
C17_15 C 0.3520(3) 0.7909(3) 0.3842(3)
C18_15 C 0.2091(3) 0.8842(3) 0.1480(3)
C19_15 C 0.3710(3) 0.8176(3) 0.4215(3)
C20_15 C 0.1824(3) 0.9215(3) 0.1290(3)
C21_15 C 0.3494(5) 0.7402(3) 0.3900(4)
C22_15 C 0.2598(3) 0.8900(4) 0.1506(5)
H9_15 H 0.3410 0.7217 0.3650
H10_15 H 0.2783 0.8650 0.1590
C23_15 C 0.3592(5) 0.7204(4) 0.4314(3)
C24_15 C 0.2796(4) 0.9314(3) 0.1408(5)
H11_15 H 0.3556 0.6885 0.4353
H12_15 H 0.3115 0.9353 0.1444
C25_15 C 0.3819(4) 0.7928(4) 0.4638(3)
C26_15 C 0.2072(4) 0.9638(3) 0.1181(4)
H13_15 H 0.3943 0.8086 0.4891
H14_15 H 0.1914 0.9891 0.1057
C27_15 C 0.3740(6) 0.7466(4) 0.4664(4)
C28_15 C 0.2534(4) 0.9664(4) 0.1260(6)
H15_15 H 0.3794 0.7320 0.4947
H16_15 H 0.2680 0.9947 0.1206
O7_15 O 0.3475(2) 0.78255(17) 0.26881(18)
O8_15 O 0.21745(17) 0.76881(18) 0.1525(2)
C29_15 C 0.3199(3) 0.7875(2) 0.3024(3)
C30_15 C 0.2125(2) 0.8024(3) 0.1801(3)
C31_15 C 0.3607(3) 0.9385(3) 0.3728(3)
C32_15 C 0.0615(3) 0.8728(3) 0.1393(3)
H17_15 H 0.3733 0.9565 0.3966
H18_15 H 0.0435 0.8966 0.1267
C33_15 C 0.3230(3) 0.8882(3) 0.3002(3)
C34_15 C 0.1118(3) 0.8002(3) 0.1770(3)
H19_15 H 0.3100 0.8715 0.2758
H20_15 H 0.1285 0.7758 0.1900
C35_15 C 0.3592(3) 0.8907(3) 0.3774(3)
C36_15 C 0.1093(3) 0.8774(3) 0.1408(3)
C37_15 C 0.3386(3) 0.8135(3) 0.3438(2)
C38_15 C 0.1865(3) 0.8438(2) 0.1614(3)
C39_15 C 0.3250(3) 0.9327(3) 0.2975(3)
C40_15 C 0.0673(3) 0.7975(3) 0.1750(3)
H21_15 H 0.3139 0.9479 0.2712
H22_15 H 0.0521 0.7712 0.1861
C41_15 C 0.3406(3) 0.8634(3) 0.3407(3)
C42_15 C 0.1366(3) 0.8407(3) 0.1594(3)
C43_15 C 0.3444(3) 0.9590(3) 0.3351(4)
C44_15 C 0.0410(3) 0.8351(4) 0.1556(3)
H23_15 H 0.3456 0.9912 0.3328
H24_15 H 0.0088 0.8328 0.1544
C45_15 C 0.3752(3) 0.8665(3) 0.4185(3)
C46_15 C 0.1335(3) 0.9185(3) 0.1248(3)
C47_15 C 0.3970(4) 0.8931(4) 0.4576(4)
C48_15 C 0.1069(4) 0.9576(4) 0.1030(4)
O19_15 O 0.28169(19) 0.7702(2) 0.30544(19)
O20_15 O 0.2298(2) 0.80544(19) 0.21831(19)
O21_15 O 0.3215(2) 0.6844(3) 0.0987(3)
O22_15 O 0.4013(3) 0.6785(2) 0.1844(3)
H25_15 H 0.353848 0.694708 0.104781
H26_15 H 0.313419 0.690718 0.0657696
H27_15 H 0.395219 0.646152 0.194708
H28_15 H 0.43423 0.686581 0.190718
H29_15 H 0.305292 0.604781 0.146152
H30_15 H 0.309282 0.56577 0.186581
C1_16 C 0.3842(3) 0.3520(3) 0.7909(3)
C2_16 C 0.4215(3) 0.3710(3) 0.8176(3)
C3_16 C 0.3900(4) 0.3494(5) 0.7402(3)
H1_16 H 0.3650 0.3410 0.7217
C4_16 C 0.4314(3) 0.3592(5) 0.7204(4)
H2_16 H 0.4353 0.3556 0.6885
C5_16 C 0.4638(3) 0.3819(4) 0.7928(4)
H3_16 H 0.4891 0.3943 0.8086
C6_16 C 0.4664(4) 0.3740(6) 0.7466(4)
H4_16 H 0.4947 0.3794 0.7320
Zn1_16 Zn 0.24711(3) 0.25289(3) 0.74711(3)
O1_16 O 0.20843(15) 0.29157(15) 0.70843(15)
O2_16 O 0.26881(18) 0.3475(2) 0.78255(17)
C7_16 C 0.3024(3) 0.3199(3) 0.7875(2)
C8_16 C 0.3728(3) 0.3607(3) 0.9385(3)
H5_16 H 0.3966 0.3733 0.9565
C9_16 C 0.3002(3) 0.3230(3) 0.8882(3)
H6_16 H 0.2758 0.3100 0.8715
C10_16 C 0.3774(3) 0.3592(3) 0.8907(3)
C11_16 C 0.3438(2) 0.3386(3) 0.8135(3)
C12_16 C 0.2975(3) 0.3250(3) 0.9327(3)
H7_16 H 0.2712 0.3139 0.9479
C13_16 C 0.3407(3) 0.3406(3) 0.8634(3)
C14_16 C 0.3351(4) 0.3444(3) 0.9590(3)
H8_16 H 0.3328 0.3456 0.9912
C15_16 C 0.4185(3) 0.3752(3) 0.8665(3)
C16_16 C 0.4576(4) 0.3970(4) 0.8931(4)
O5_16 O 0.30544(19) 0.28169(19) 0.7702(2)
O6_16 O 0.1844(3) 0.4013(3) 0.6785(2)
C17_16 C 0.1480(3) 0.2091(3) 0.8842(3)
C18_16 C 0.2909(3) 0.1158(3) 0.6480(3)
C19_16 C 0.1290(3) 0.1824(3) 0.9215(3)
C20_16 C 0.3176(3) 0.0785(3) 0.6290(3)
C21_16 C 0.1506(5) 0.2598(3) 0.8900(4)
C22_16 C 0.2402(3) 0.1100(4) 0.6506(5)
H9_16 H 0.1590 0.2783 0.8650
H10_16 H 0.2217 0.1350 0.6590
C23_16 C 0.1408(5) 0.2796(4) 0.9314(3)
C24_16 C 0.2204(4) 0.0686(3) 0.6408(5)
H11_16 H 0.1444 0.3115 0.9353
H12_16 H 0.1885 0.0647 0.6444
C25_16 C 0.1181(4) 0.2072(4) 0.9638(3)
C26_16 C 0.2928(4) 0.0362(3) 0.6181(4)
H13_16 H 0.1057 0.1914 0.9891
H14_16 H 0.3086 0.0109 0.6057
C27_16 C 0.1260(6) 0.2534(4) 0.9664(4)
C28_16 C 0.2466(4) 0.0336(4) 0.6260(6)
H15_16 H 0.1206 0.2680 0.9947
H16_16 H 0.2320 0.0053 0.6206
O7_16 O 0.1525(2) 0.21745(17) 0.76881(18)
O8_16 O 0.28255(17) 0.23119(18) 0.6525(2)
C29_16 C 0.1801(3) 0.2125(2) 0.8024(3)
C30_16 C 0.2875(2) 0.1976(3) 0.6801(3)
C31_16 C 0.1393(3) 0.0615(3) 0.8728(3)
C32_16 C 0.4385(3) 0.1272(3) 0.6393(3)
H17_16 H 0.1267 0.0435 0.8966
H18_16 H 0.4565 0.1034 0.6267
C33_16 C 0.1770(3) 0.1118(3) 0.8002(3)
C34_16 C 0.3882(3) 0.1998(3) 0.6770(3)
H19_16 H 0.1900 0.1285 0.7758
H20_16 H 0.3715 0.2242 0.6900
C35_16 C 0.1408(3) 0.1093(3) 0.8774(3)
C36_16 C 0.3907(3) 0.1226(3) 0.6408(3)
C37_16 C 0.1614(3) 0.1865(3) 0.8438(2)
C38_16 C 0.3135(3) 0.1562(2) 0.6614(3)
C39_16 C 0.1750(3) 0.0673(3) 0.7975(3)
C40_16 C 0.4327(3) 0.2025(3) 0.6750(3)
H21_16 H 0.1861 0.0521 0.7712
H22_16 H 0.4479 0.2288 0.6861
C41_16 C 0.1594(3) 0.1366(3) 0.8407(3)
C42_16 C 0.3634(3) 0.1593(3) 0.6594(3)
C43_16 C 0.1556(3) 0.0410(3) 0.8351(4)
C44_16 C 0.4590(3) 0.1649(4) 0.6556(3)
H23_16 H 0.1544 0.0088 0.8328
H24_16 H 0.4912 0.1672 0.6544
C45_16 C 0.1248(3) 0.1335(3) 0.9185(3)
C46_16 C 0.3665(3) 0.0815(3) 0.6248(3)
C47_16 C 0.1030(4) 0.1069(4) 0.9576(4)
C48_16 C 0.3931(4) 0.0424(4) 0.6030(4)
O19_16 O 0.21831(19) 0.2298(2) 0.80544(19)
O20_16 O 0.2702(2) 0.19456(19) 0.71831(19)
O21_16 O 0.1785(2) 0.3156(3) 0.5987(3)
O22_16 O 0.0987(3) 0.3215(2) 0.6844(3)
H25_16 H 0.146152 0.305292 0.604781
H26_16 H 0.186581 0.309282 0.56577
H27_16 H 0.104781 0.353848 0.694708
H28_16 H 0.0657696 0.313419 0.690718
H29_16 H 0.194708 0.395219 0.646152
H30_16 H 0.190718 0.43423 0.686581
loop_
_geom_bond_atom_site_label_1
_geom_bond_atom_site_label_2
_geom_bond_site_symmetry_1
_geom_bond_site_symmetry_2
Zn1 O1 1_555 1_555
Zn2 O1 1_555 1_555
O1 Zn3 1_555 1_555
O6 Zn2 1_555 1_555
Zn4 O1 1_555 1_555
O21 Zn3 1_555 1_555
O22 Zn4 1_555 1_555
O21 H25 1_555 1_555
O21 H26 1_555 1_555
O22 H27 1_555 1_555
O22 H28 1_555 1_555
O6 H29 1_555 1_555
O6 H30 1_555 1_555
H9 C21 1_555 1_555
C23 C21 1_555 1_555
H11 C23 1_555 1_555
C27 C23 1_555 1_555
H15 C27 1_555 1_555
H1 C3 1_555 1_555
C4 C3 1_555 1_555
H2 C4 1_555 1_555
C6 C4 1_555 1_555
H4 C6 1_555 1_555
C1 C2 1_555 1_555
C2 C5 1_555 1_555
C5 H3 1_555 1_555
C7 O2 1_555 1_555
C8 H5 1_555 1_555
C9 H6 1_555 1_555
C10 C8 1_555 1_555
C11 C1 1_555 1_555
C12 C9 1_555 1_555
H7 C12 1_555 1_555
C13 C9 1_555 1_555
C14 C8 1_555 1_555
H8 C14 1_555 1_555
C15 C2 1_555 1_555
C16 C15 1_555 1_555
O3 C16 1_555 1_555
O4 C16 1_555 1_555
Zn5 O3 1_555 1_555
Zn6 O4 1_555 1_555
C7 C11 1_555 1_555
C7 O5 1_555 1_555
C10 C13 1_555 1_555
C10 C15 1_555 1_555
C11 C13 1_555 1_555
C12 C14 1_555 1_555
H10 C22 1_555 1_555
C24 C22 1_555 1_555
H12 C24 1_555 1_555
C28 C24 1_555 1_555
H16 C28 1_555 1_555
C17 C19 1_555 1_555
C19 C25 1_555 1_555
C25 H13 1_555 1_555
Zn7 O9 1_555 1_555
Zn8 O14 1_555 1_555
C29 O7 1_555 1_555
C31 H17 1_555 1_555
C33 H19 1_555 1_555
C35 C31 1_555 1_555
C37 C17 1_555 1_555
C39 C33 1_555 1_555
H21 C39 1_555 1_555
C41 C33 1_555 1_555
C43 C31 1_555 1_555
H23 C43 1_555 1_555
C45 C19 1_555 1_555
C47 C45 1_555 1_555
O9 C47 1_555 1_555
O14 C47 1_555 1_555
C29 C37 1_555 1_555
C29 O19 1_555 1_555
C35 C41 1_555 1_555
C35 C45 1_555 1_555
C37 C41 1_555 1_555
C39 C43 1_555 1_555
C18 C20 1_555 1_555
C20 C26 1_555 1_555
C26 H14 1_555 1_555
Zn9 O10 1_555 1_555
Zn10 O15 1_555 1_555
O8 C30 1_555 1_555
C30 C38 1_555 1_555
C32 H18 1_555 1_555
C34 H20 1_555 1_555
C36 C32 1_555 1_555
C38 C18 1_555 1_555
C40 C34 1_555 1_555
H22 C40 1_555 1_555
C42 C34 1_555 1_555
C44 C32 1_555 1_555
H24 C44 1_555 1_555
C46 C20 1_555 1_555
C48 C46 1_555 1_555
O10 C48 1_555 1_555
O15 C48 1_555 1_555
C30 O20 1_555 1_555
C36 C42 1_555 1_555
C36 C46 1_555 1_555
C38 C42 1_555 1_555
C40 C44 1_555 1_555
C1_2 C2_2 1_555 1_555
C2_2 C5_2 1_555 1_555
C3_2 C1_2 1_555 1_555
H1_2 C3_2 1_555 1_555
C4_2 C3_2 1_555 1_555
H2_2 C4_2 1_555 1_555
C5_2 H3_2 1_555 1_555
C6_2 C4_2 1_555 1_555
H4_2 C6_2 1_555 1_555
C7_2 O2_2 1_555 1_555
C8_2 H5_2 1_555 1_555
C9_2 H6_2 1_555 1_555
C10_2 C8_2 1_555 1_555
C11_2 C1_2 1_555 1_555
C12_2 C9_2 1_555 1_555
H7_2 C12_2 1_555 1_555
C13_2 C9_2 1_555 1_555
C14_2 C8_2 1_555 1_555
H8_2 C14_2 1_555 1_555
C15_2 C2_2 1_555 1_555
C16_2 C15_2 1_555 1_555
O3_2 C16_2 1_555 1_555
O4_2 C16_2 1_555 1_555
C18_2 C20_2 1_555 1_555
C20_2 C26_2 1_555 1_555
C26_2 H14_2 1_555 1_555
Zn5_2 O3_2 1_555 1_555
Zn6_2 O4_2 1_555 1_555
Zn9_2 O10_2 1_555 1_555
Zn7 O15_2 1_555 1_555
O8_2 C30_2 1_555 1_555
C30_2 C38_2 1_555 1_555
C32_2 H18_2 1_555 1_555
C34_2 H20_2 1_555 1_555
C36_2 C32_2 1_555 1_555
C38_2 C18_2 1_555 1_555
C40_2 C34_2 1_555 1_555
H22_2 C40_2 1_555 1_555
C42_2 C34_2 1_555 1_555
C44_2 C32_2 1_555 1_555
H24_2 C44_2 1_555 1_555
C46_2 C20_2 1_555 1_555
C48_2 C46_2 1_555 1_555
O10_2 C48_2 1_555 1_555
O15_2 C48_2 1_555 1_555
C5_2 C6_2 1_555 1_555
C7_2 C11_2 1_555 1_555
C7_2 O5_2 1_555 1_555
C10_2 C13_2 1_555 1_555
C10_2 C15_2 1_555 1_555
C11_2 C13_2 1_555 1_555
C12_2 C14_2 1_555 1_555
C30_2 O20_2 1_555 1_555
C36_2 C42_2 1_555 1_555
C36_2 C46_2 1_555 1_555
C38_2 C42_2 1_555 1_555
C40_2 C44_2 1_555 1_555
Zn1_2 O1_2 1_555 1_555
Zn2_2 O1_2 1_555 1_555
O1_2 Zn3_2 1_555 1_555
O6_2 Zn2_2 1_555 1_555
C17_2 C19_2 1_555 1_555
C19_2 C25_2 1_555 1_555
C21_2 C17_2 1_555 1_555
H9_2 C21_2 1_555 1_555
H10_2 C22_2 1_555 1_555
C23_2 C21_2 1_555 1_555
C24_2 C22_2 1_555 1_555
H11_2 C23_2 1_555 1_555
H12_2 C24_2 1_555 1_555
C25_2 H13_2 1_555 1_555
C27_2 C23_2 1_555 1_555
C28_2 C24_2 1_555 1_555
H15_2 C27_2 1_555 1_555
H16_2 C28_2 1_555 1_555
Zn4_2 O1_2 1_555 1_555
Zn10 O9_2 1_555 1_555
Zn8_2 O14_2 1_555 1_555
O7_2 Zn4_2 1_555 1_555
C29_2 O7_2 1_555 1_555
C31_2 H17_2 1_555 1_555
C33_2 H19_2 1_555 1_555
C35_2 C31_2 1_555 1_555
C37_2 C17_2 1_555 1_555
C39_2 C33_2 1_555 1_555
H21_2 C39_2 1_555 1_555
C41_2 C33_2 1_555 1_555
C43_2 C31_2 1_555 1_555
H23_2 C43_2 1_555 1_555
C45_2 C19_2 1_555 1_555
C47_2 C45_2 1_555 1_555
O9_2 C47_2 1_555 1_555
O11_2 Zn2_2 1_555 1_555
O13_2 Zn4_2 1_555 1_555
O14_2 C47_2 1_555 1_555
O17_2 Zn3_2 1_555 1_555
O18_2 Zn4_2 1_555 1_555
O19_2 Zn1_2 1_555 1_555
O21_2 Zn3_2 1_555 1_555
O22_2 Zn4_2 1_555 1_555
C25_2 C27_2 1_555 1_555
C29_2 C37_2 1_555 1_555
C29_2 O19_2 1_555 1_555
C35_2 C41_2 1_555 1_555
C35_2 C45_2 1_555 1_555
C37_2 C41_2 1_555 1_555
C39_2 C43_2 1_555 1_555
O21_2 H25_2 1_555 1_555
O21_2 H26_2 1_555 1_555
O22_2 H27_2 1_555 1_555
O22_2 H28_2 1_555 1_555
O6_2 H29_2 1_555 1_555
O6_2 H30_2 1_555 1_555
C17_3 C19_3 1_555 1_555
C18_3 C20_3 1_555 1_555
C19_3 C25_3 1_555 1_555
C20_3 C26_3 1_555 1_555
C22_3 C18_3 1_555 1_555
H10_3 C22_3 1_555 1_555
C24_3 C22_3 1_555 1_555
H12_3 C24_3 1_555 1_555
C25_3 H13_3 1_555 1_555
C26_3 H14_3 1_555 1_555
C28_3 C24_3 1_555 1_555
H16_3 C28_3 1_555 1_555
Zn7_2 O9_3 1_555 1_555
Zn5 O14_3 1_555 1_555
Zn6_2 O10_3 1_555 1_555
Zn10_2 O15_3 1_555 1_555
O8_3 C30_3 1_555 1_555
C29_3 O7_3 1_555 1_555
C30_3 C38_3 1_555 1_555
C31_3 H17_3 1_555 1_555
C32_3 H18_3 1_555 1_555
C33_3 H19_3 1_555 1_555
C34_3 H20_3 1_555 1_555
C35_3 C31_3 1_555 1_555
C36_3 C32_3 1_555 1_555
C37_3 C17_3 1_555 1_555
C38_3 C18_3 1_555 1_555
C39_3 C33_3 1_555 1_555
C40_3 C34_3 1_555 1_555
H21_3 C39_3 1_555 1_555
H22_3 C40_3 1_555 1_555
C41_3 C33_3 1_555 1_555
C42_3 C34_3 1_555 1_555
C43_3 C31_3 1_555 1_555
C44_3 C32_3 1_555 1_555
H23_3 C43_3 1_555 1_555
H24_3 C44_3 1_555 1_555
C45_3 C19_3 1_555 1_555
C46_3 C20_3 1_555 1_555
C47_3 C45_3 1_555 1_555
C48_3 C46_3 1_555 1_555
O9_3 C47_3 1_555 1_555
O10_3 C48_3 1_555 1_555
O14_3 C47_3 1_555 1_555
O15_3 C48_3 1_555 1_555
C26_3 C28_3 1_555 1_555
C29_3 C37_3 1_555 1_555
C29_3 O19_3 1_555 1_555
C30_3 O20_3 1_555 1_555
C35_3 C41_3 1_555 1_555
C35_3 C45_3 1_555 1_555
C36_3 C42_3 1_555 1_555
C36_3 C46_3 1_555 1_555
C37_3 C41_3 1_555 1_555
C38_3 C42_3 1_555 1_555
C39_3 C43_3 1_555 1_555
C40_3 C44_3 1_555 1_555
C1_3 C2_3 1_555 1_555
C2_3 C5_3 1_555 1_555
C3_3 C1_3 1_555 1_555
H1_3 C3_3 1_555 1_555
C4_3 C3_3 1_555 1_555
H2_3 C4_3 1_555 1_555
C5_3 H3_3 1_555 1_555
C6_3 C4_3 1_555 1_555
H4_3 C6_3 1_555 1_555
Zn1_3 O1_3 1_555 1_555
Zn2_3 O1_3 1_555 1_555
O1_3 Zn3_3 1_555 1_555
O2_3 Zn2_3 1_555 1_555
C7_3 O2_3 1_555 1_555
C8_3 H5_3 1_555 1_555
C9_3 H6_3 1_555 1_555
C10_3 C8_3 1_555 1_555
C11_3 C1_3 1_555 1_555
C12_3 C9_3 1_555 1_555
H7_3 C12_3 1_555 1_555
C13_3 C9_3 1_555 1_555
C14_3 C8_3 1_555 1_555
H8_3 C14_3 1_555 1_555
C15_3 C2_3 1_555 1_555
C16_3 C15_3 1_555 1_555
O3_3 C16_3 1_555 1_555
O4_3 C16_3 1_555 1_555
O5_3 Zn1_3 1_555 1_555
O6_3 Zn2_3 1_555 1_555
H9_3 C21_3 1_555 1_555
C23_3 C21_3 1_555 1_555
H11_3 C23_3 1_555 1_555
C27_3 C23_3 1_555 1_555
H15_3 C27_3 1_555 1_555
Zn4_3 O1_3 1_555 1_555
Zn8 O3_3 1_555 1_555
Zn9_2 O4_3 1_555 1_555
O11_3 Zn2_3 1_555 1_555
O12_3 Zn3_3 1_555 1_555
O16_3 Zn2_3 1_555 1_555
O18_3 Zn4_3 1_555 1_555
O21_3 Zn3_3 1_555 1_555
O22_3 Zn4_3 1_555 1_555
C5_3 C6_3 1_555 1_555
C7_3 C11_3 1_555 1_555
C7_3 O5_3 1_555 1_555
C10_3 C13_3 1_555 1_555
C10_3 C15_3 1_555 1_555
C11_3 C13_3 1_555 1_555
C12_3 C14_3 1_555 1_555
O21_3 H25_3 1_555 1_555
O21_3 H26_3 1_555 1_555
O22_3 H27_3 1_555 1_555
O22_3 H28_3 1_555 1_555
O6_3 H29_3 1_555 1_555
O6_3 H30_3 1_555 1_555
C1_4 C2_4 1_555 1_555
C2_4 C5_4 1_555 1_555
C5_4 H3_4 1_555 1_555
C7_4 O2_4 1_555 1_555
C8_4 H5_4 1_555 1_555
C9_4 H6_4 1_555 1_555
C10_4 C8_4 1_555 1_555
C11_4 C1_4 1_555 1_555
C12_4 C9_4 1_555 1_555
H7_4 C12_4 1_555 1_555
C13_4 C9_4 1_555 1_555
C14_4 C8_4 1_555 1_555
H8_4 C14_4 1_555 1_555
C15_4 C2_4 1_555 1_555
C16_4 C15_4 1_555 1_555
O3_4 C16_4 1_555 1_555
O4_4 C16_4 1_555 1_555
C17_4 C19_4 1_555 1_555
C19_4 C25_4 1_555 1_555
C21_4 C17_4 1_555 1_555
H9_4 C21_4 1_555 1_555
C23_4 C21_4 1_555 1_555
H11_4 C23_4 1_555 1_555
C25_4 H13_4 1_555 1_555
C27_4 C23_4 1_555 1_555
H15_4 C27_4 1_555 1_555
Zn8_2 O3_4 1_555 1_555
Zn9 O4_4 1_555 1_555
Zn10_2 O9_4 1_555 1_555
Zn5_2 O14_4 1_555 1_555
C29_4 O7_4 1_555 1_555
C31_4 H17_4 1_555 1_555
C33_4 H19_4 1_555 1_555
C35_4 C31_4 1_555 1_555
C37_4 C17_4 1_555 1_555
C39_4 C33_4 1_555 1_555
H21_4 C39_4 1_555 1_555
C41_4 C33_4 1_555 1_555
C43_4 C31_4 1_555 1_555
H23_4 C43_4 1_555 1_555
C45_4 C19_4 1_555 1_555
C47_4 C45_4 1_555 1_555
O9_4 C47_4 1_555 1_555
O14_4 C47_4 1_555 1_555
C7_4 C11_4 1_555 1_555
C7_4 O5_4 1_555 1_555
C10_4 C13_4 1_555 1_555
C10_4 C15_4 1_555 1_555
C11_4 C13_4 1_555 1_555
C12_4 C14_4 1_555 1_555
C25_4 C27_4 1_555 1_555
C29_4 C37_4 1_555 1_555
C29_4 O19_4 1_555 1_555
C35_4 C41_4 1_555 1_555
C35_4 C45_4 1_555 1_555
C37_4 C41_4 1_555 1_555
C39_4 C43_4 1_555 1_555
H1_4 C3_4 1_555 1_555
C4_4 C3_4 1_555 1_555
H2_4 C4_4 1_555 1_555
C6_4 C4_4 1_555 1_555
H4_4 C6_4 1_555 1_555
Zn1_4 O1_4 1_555 1_555
Zn2_4 O1_4 1_555 1_555
O1_4 Zn3_4 1_555 1_555
O6_4 Zn2_4 1_555 1_555
C18_4 C20_4 1_555 1_555
C20_4 C26_4 1_555 1_555
C22_4 C18_4 1_555 1_555
H10_4 C22_4 1_555 1_555
C24_4 C22_4 1_555 1_555
H12_4 C24_4 1_555 1_555
C26_4 H14_4 1_555 1_555
C28_4 C24_4 1_555 1_555
H16_4 C28_4 1_555 1_555
Zn3_4 O8_4 1_555 1_555
Zn4_4 O1_4 1_555 1_555
Zn6 O10_4 1_555 1_555
Zn7_2 O15_4 1_555 1_555
O8_4 C30_4 1_555 1_555
C30_4 C38_4 1_555 1_555
C32_4 H18_4 1_555 1_555
C34_4 H20_4 1_555 1_555
C36_4 C32_4 1_555 1_555
C38_4 C18_4 1_555 1_555
C40_4 C34_4 1_555 1_555
H22_4 C40_4 1_555 1_555
C42_4 C34_4 1_555 1_555
C44_4 C32_4 1_555 1_555
H24_4 C44_4 1_555 1_555
C46_4 C20_4 1_555 1_555
C48_4 C46_4 1_555 1_555
O10_4 C48_4 1_555 1_555
O12_4 Zn3_4 1_555 1_555
O13_4 Zn4_4 1_555 1_555
O15_4 C48_4 1_555 1_555
O16_4 Zn2_4 1_555 1_555
O17_4 Zn3_4 1_555 1_555
O20_4 Zn1_4 1_555 1_555
O21_4 Zn3_4 1_555 1_555
O22_4 Zn4_4 1_555 1_555
C26_4 C28_4 1_555 1_555
C30_4 O20_4 1_555 1_555
C36_4 C42_4 1_555 1_555
C36_4 C46_4 1_555 1_555
C38_4 C42_4 1_555 1_555
C40_4 C44_4 1_555 1_555
O21_4 H25_4 1_555 1_555
O21_4 H26_4 1_555 1_555
O22_4 H27_4 1_555 1_555
O22_4 H28_4 1_555 1_555
O6_4 H29_4 1_555 1_555
O6_4 H30_4 1_555 1_555
C1_5 C2_5 1_555 1_555
C2_5 C5_5 1_555 1_555
C3_5 C1_5 1_555 1_555
H1_5 C3_5 1_555 1_555
C4_5 C3_5 1_555 1_555
H2_5 C4_5 1_555 1_555
C5_5 H3_5 1_555 1_555
C6_5 C4_5 1_555 1_555
H4_5 C6_5 1_555 1_555
Zn1_5 O1_5 1_555 1_555
Zn10_2 O1_5 1_555 1_555
O1_5 Zn6_2 1_555 1_555
O2_5 Zn10_2 1_555 1_555
C7_5 O2_5 1_555 1_555
C8_5 H5_5 1_555 1_555
C9_5 H6_5 1_555 1_555
C10_5 C8_5 1_555 1_555
C11_5 C1_5 1_555 1_555
C12_5 C9_5 1_555 1_555
H7_5 C12_5 1_555 1_555
C13_5 C9_5 1_555 1_555
C14_5 C8_5 1_555 1_555
H8_5 C14_5 1_555 1_555
C15_5 C2_5 1_555 1_555
C16_5 C15_5 1_555 1_555
O3_5 C16_5 1_555 1_555
O4_5 C16_5 1_555 1_555
O5_5 Zn1_5 1_555 1_555
O6_5 Zn10_2 1_555 1_555
C17_5 C19_5 1_555 1_555
C18_5 C20_5 1_555 1_555
C19_5 C25_5 1_555 1_555
C20_5 C26_5 1_555 1_555
C21_5 C17_5 1_555 1_555
C22_5 C18_5 1_555 1_555
H9_5 C21_5 1_555 1_555
H10_5 C22_5 1_555 1_555
C23_5 C21_5 1_555 1_555
C24_5 C22_5 1_555 1_555
H11_5 C23_5 1_555 1_555
H12_5 C24_5 1_555 1_555
C25_5 H13_5 1_555 1_555
C26_5 H14_5 1_555 1_555
C27_5 C23_5 1_555 1_555
C28_5 C24_5 1_555 1_555
H15_5 C27_5 1_555 1_555
H16_5 C28_5 1_555 1_555
Zn6_2 O8_5 1_555 1_555
Zn5_2 O1_5 1_555 1_555
O7_5 Zn5_2 1_555 1_555
O8_5 C30_5 1_555 1_555
C29_5 O7_5 1_555 1_555
C30_5 C38_5 1_555 1_555
C31_5 H17_5 1_555 1_555
C32_5 H18_5 1_555 1_555
C33_5 H19_5 1_555 1_555
C34_5 H20_5 1_555 1_555
C35_5 C31_5 1_555 1_555
C36_5 C32_5 1_555 1_555
C37_5 C17_5 1_555 1_555
C38_5 C18_5 1_555 1_555
C39_5 C33_5 1_555 1_555
C40_5 C34_5 1_555 1_555
H21_5 C39_5 1_555 1_555
H22_5 C40_5 1_555 1_555
C41_5 C33_5 1_555 1_555
C42_5 C34_5 1_555 1_555
C43_5 C31_5 1_555 1_555
C44_5 C32_5 1_555 1_555
H23_5 C43_5 1_555 1_555
H24_5 C44_5 1_555 1_555
C45_5 C19_5 1_555 1_555
C46_5 C20_5 1_555 1_555
C47_5 C45_5 1_555 1_555
C48_5 C46_5 1_555 1_555
O9_5 C47_5 1_555 1_555
O10_5 C48_5 1_555 1_555
O14_5 C47_5 1_555 1_555
O15_5 C48_5 1_555 1_555
O19_5 Zn1_5 1_555 1_555
O20_5 Zn1_5 1_555 1_555
O21_5 Zn6_2 1_555 1_555
O22_5 Zn5_2 1_555 1_555
C5_5 C6_5 1_555 1_555
C7_5 C11_5 1_555 1_555
C7_5 O5_5 1_555 1_555
C10_5 C13_5 1_555 1_555
C10_5 C15_5 1_555 1_555
C11_5 C13_5 1_555 1_555
C12_5 C14_5 1_555 1_555
C25_5 C27_5 1_555 1_555
C26_5 C28_5 1_555 1_555
C29_5 C37_5 1_555 1_555
C29_5 O19_5 1_555 1_555
C30_5 O20_5 1_555 1_555
C35_5 C41_5 1_555 1_555
C35_5 C45_5 1_555 1_555
C36_5 C42_5 1_555 1_555
C36_5 C46_5 1_555 1_555
C37_5 C41_5 1_555 1_555
C38_5 C42_5 1_555 1_555
C39_5 C43_5 1_555 1_555
C40_5 C44_5 1_555 1_555
O21_5 H25_5 1_555 1_555
O21_5 H26_5 1_555 1_555
O22_5 H27_5 1_555 1_555
O22_5 H28_5 1_555 1_555
O6_5 H29_5 1_555 1_555
O6_5 H30_5 1_555 1_555
C1_6 C2_6 1_555 1_555
C2_6 C5_6 1_555 1_555
C3_6 C1_6 1_555 1_555
H1_6 C3_6 1_555 1_555
C4_6 C3_6 1_555 1_555
H2_6 C4_6 1_555 1_555
C5_6 H3_6 1_555 1_555
C6_6 C4_6 1_555 1_555
H4_6 C6_6 1_555 1_555
Zn1_6 O1_6 1_555 1_555
Zn7_2 O1_6 1_555 1_555
O1_6 Zn6 1_555 1_555
O2_6 Zn7_2 1_555 1_555
C7_6 O2_6 1_555 1_555
C8_6 H5_6 1_555 1_555
C9_6 H6_6 1_555 1_555
C10_6 C8_6 1_555 1_555
C11_6 C1_6 1_555 1_555
C12_6 C9_6 1_555 1_555
H7_6 C12_6 1_555 1_555
C13_6 C9_6 1_555 1_555
C14_6 C8_6 1_555 1_555
H8_6 C14_6 1_555 1_555
C15_6 C2_6 1_555 1_555
C16_6 C15_6 1_555 1_555
O3_6 C16_6 1_555 1_555
O4_6 C16_6 1_555 1_555
O5_6 Zn1_6 1_555 1_555
O6_6 Zn7_2 1_555 1_555
C17_6 C19_6 1_555 1_555
C18_6 C20_6 1_555 1_555
C19_6 C25_6 1_555 1_555
C20_6 C26_6 1_555 1_555
C21_6 C17_6 1_555 1_555
C22_6 C18_6 1_555 1_555
H9_6 C21_6 1_555 1_555
H10_6 C22_6 1_555 1_555
C23_6 C21_6 1_555 1_555
C24_6 C22_6 1_555 1_555
H11_6 C23_6 1_555 1_555
H12_6 C24_6 1_555 1_555
C25_6 H13_6 1_555 1_555
C26_6 H14_6 1_555 1_555
C27_6 C23_6 1_555 1_555
C28_6 C24_6 1_555 1_555
H15_6 C27_6 1_555 1_555
H16_6 C28_6 1_555 1_555
Zn6 O8_6 1_555 1_555
Zn5 O1_6 1_555 1_555
Zn5_4 O3_6 1_555 1_555
Zn6_4 O4_6 1_555 1_555
Zn10_3 O9_6 1_555 1_555
Zn8_4 O14_6 1_555 1_555
O7_6 Zn5 1_555 1_555
O8_6 C30_6 1_555 1_555
C29_6 O7_6 1_555 1_555
C30_6 C38_6 1_555 1_555
C31_6 H17_6 1_555 1_555
C32_6 H18_6 1_555 1_555
C33_6 H19_6 1_555 1_555
C34_6 H20_6 1_555 1_555
C35_6 C31_6 1_555 1_555
C36_6 C32_6 1_555 1_555
C37_6 C17_6 1_555 1_555
C38_6 C18_6 1_555 1_555
C39_6 C33_6 1_555 1_555
C40_6 C34_6 1_555 1_555
H21_6 C39_6 1_555 1_555
H22_6 C40_6 1_555 1_555
C41_6 C33_6 1_555 1_555
C42_6 C34_6 1_555 1_555
C43_6 C31_6 1_555 1_555
C44_6 C32_6 1_555 1_555
H23_6 C43_6 1_555 1_555
H24_6 C44_6 1_555 1_555
C45_6 C19_6 1_555 1_555
C46_6 C20_6 1_555 1_555
C47_6 C45_6 1_555 1_555
C48_6 C46_6 1_555 1_555
O9_6 C47_6 1_555 1_555
O10_6 C48_6 1_555 1_555
O14_6 C47_6 1_555 1_555
O15_6 C48_6 1_555 1_555
O19_6 Zn1_6 1_555 1_555
O20_6 Zn1_6 1_555 1_555
O21_6 Zn6 1_555 1_555
O22_6 Zn5 1_555 1_555
C5_6 C6_6 1_555 1_555
C7_6 C11_6 1_555 1_555
C7_6 O5_6 1_555 1_555
C10_6 C13_6 1_555 1_555
C10_6 C15_6 1_555 1_555
C11_6 C13_6 1_555 1_555
C12_6 C14_6 1_555 1_555
C25_6 C27_6 1_555 1_555
C26_6 C28_6 1_555 1_555
C29_6 C37_6 1_555 1_555
C29_6 O19_6 1_555 1_555
C30_6 O20_6 1_555 1_555
C35_6 C41_6 1_555 1_555
C35_6 C45_6 1_555 1_555
C36_6 C42_6 1_555 1_555
C36_6 C46_6 1_555 1_555
C37_6 C41_6 1_555 1_555
C38_6 C42_6 1_555 1_555
C39_6 C43_6 1_555 1_555
C40_6 C44_6 1_555 1_555
O21_6 H25_6 1_555 1_555
O21_6 H26_6 1_555 1_555
O22_6 H27_6 1_555 1_555
O22_6 H28_6 1_555 1_555
O6_6 H29_6 1_555 1_555
O6_6 H30_6 1_555 1_555
C1_7 C2_7 1_555 1_555
C2_7 C5_7 1_555 1_555
C3_7 C1_7 1_555 1_555
H1_7 C3_7 1_555 1_555
C4_7 C3_7 1_555 1_555
H2_7 C4_7 1_555 1_555
C5_7 H3_7 1_555 1_555
C6_7 C4_7 1_555 1_555
H4_7 C6_7 1_555 1_555
Zn1_7 O1_7 1_555 1_555
Zn7 O1_7 1_555 1_555
O1_7 Zn9_2 1_555 1_555
O2_7 Zn7 1_555 1_555
C7_7 O2_7 1_555 1_555
C8_7 H5_7 1_555 1_555
C9_7 H6_7 1_555 1_555
C10_7 C8_7 1_555 1_555
C11_7 C1_7 1_555 1_555
C12_7 C9_7 1_555 1_555
H7_7 C12_7 1_555 1_555
C13_7 C9_7 1_555 1_555
C14_7 C8_7 1_555 1_555
H8_7 C14_7 1_555 1_555
C15_7 C2_7 1_555 1_555
C16_7 C15_7 1_555 1_555
O3_7 C16_7 1_555 1_555
O4_7 C16_7 1_555 1_555
O5_7 Zn1_7 1_555 1_555
O6_7 Zn7 1_555 1_555
C17_7 C19_7 1_555 1_555
C18_7 C20_7 1_555 1_555
C19_7 C25_7 1_555 1_555
C20_7 C26_7 1_555 1_555
C21_7 C17_7 1_555 1_555
C22_7 C18_7 1_555 1_555
H9_7 C21_7 1_555 1_555
H10_7 C22_7 1_555 1_555
C23_7 C21_7 1_555 1_555
C24_7 C22_7 1_555 1_555
H11_7 C23_7 1_555 1_555
H12_7 C24_7 1_555 1_555
C25_7 H13_7 1_555 1_555
C26_7 H14_7 1_555 1_555
C27_7 C23_7 1_555 1_555
C28_7 C24_7 1_555 1_555
H15_7 C27_7 1_555 1_555
H16_7 C28_7 1_555 1_555
Zn9_2 O8_7 1_555 1_555
Zn8 O1_7 1_555 1_555
Zn8_3 O3_7 1_555 1_555
Zn9_4 O4_7 1_555 1_555
Zn6_4 O10_7 1_555 1_555
Zn10_4 O15_7 1_555 1_555
O7_7 Zn8 1_555 1_555
O8_7 C30_7 1_555 1_555
C29_7 O7_7 1_555 1_555
C30_7 C38_7 1_555 1_555
C31_7 H17_7 1_555 1_555
C32_7 H18_7 1_555 1_555
C33_7 H19_7 1_555 1_555
C34_7 H20_7 1_555 1_555
C35_7 C31_7 1_555 1_555
C36_7 C32_7 1_555 1_555
C37_7 C17_7 1_555 1_555
C38_7 C18_7 1_555 1_555
C39_7 C33_7 1_555 1_555
C40_7 C34_7 1_555 1_555
H21_7 C39_7 1_555 1_555
H22_7 C40_7 1_555 1_555
C41_7 C33_7 1_555 1_555
C42_7 C34_7 1_555 1_555
C43_7 C31_7 1_555 1_555
C44_7 C32_7 1_555 1_555
H23_7 C43_7 1_555 1_555
H24_7 C44_7 1_555 1_555
C45_7 C19_7 1_555 1_555
C46_7 C20_7 1_555 1_555
C47_7 C45_7 1_555 1_555
C48_7 C46_7 1_555 1_555
O9_7 C47_7 1_555 1_555
O10_7 C48_7 1_555 1_555
O14_7 C47_7 1_555 1_555
O15_7 C48_7 1_555 1_555
O19_7 Zn1_7 1_555 1_555
O20_7 Zn1_7 1_555 1_555
O21_7 Zn9_2 1_555 1_555
O22_7 Zn8 1_555 1_555
C5_7 C6_7 1_555 1_555
C7_7 C11_7 1_555 1_555
C7_7 O5_7 1_555 1_555
C10_7 C13_7 1_555 1_555
C10_7 C15_7 1_555 1_555
C11_7 C13_7 1_555 1_555
C12_7 C14_7 1_555 1_555
C25_7 C27_7 1_555 1_555
C26_7 C28_7 1_555 1_555
C29_7 C37_7 1_555 1_555
C29_7 O19_7 1_555 1_555
C30_7 O20_7 1_555 1_555
C35_7 C41_7 1_555 1_555
C35_7 C45_7 1_555 1_555
C36_7 C42_7 1_555 1_555
C36_7 C46_7 1_555 1_555
C37_7 C41_7 1_555 1_555
C38_7 C42_7 1_555 1_555
C39_7 C43_7 1_555 1_555
C40_7 C44_7 1_555 1_555
O21_7 H25_7 1_555 1_555
O21_7 H26_7 1_555 1_555
O22_7 H27_7 1_555 1_555
O22_7 H28_7 1_555 1_555
O6_7 H29_7 1_555 1_555
O6_7 H30_7 1_555 1_555
C1_8 C2_8 1_555 1_555
C2_8 C5_8 1_555 1_555
C3_8 C1_8 1_555 1_555
H1_8 C3_8 1_555 1_555
C4_8 C3_8 1_555 1_555
H2_8 C4_8 1_555 1_555
C5_8 H3_8 1_555 1_555
C6_8 C4_8 1_555 1_555
H4_8 C6_8 1_555 1_555
Zn1_8 O1_8 1_555 1_555
Zn10 O1_8 1_555 1_555
O1_8 Zn9 1_555 1_555
O2_8 Zn10 1_555 1_555
C7_8 O2_8 1_555 1_555
C8_8 H5_8 1_555 1_555
C9_8 H6_8 1_555 1_555
C10_8 C8_8 1_555 1_555
C11_8 C1_8 1_555 1_555
C12_8 C9_8 1_555 1_555
H7_8 C12_8 1_555 1_555
C13_8 C9_8 1_555 1_555
C14_8 C8_8 1_555 1_555
H8_8 C14_8 1_555 1_555
C15_8 C2_8 1_555 1_555
C16_8 C15_8 1_555 1_555
O3_8 C16_8 1_555 1_555
O4_8 C16_8 1_555 1_555
O5_8 Zn1_8 1_555 1_555
O6_8 Zn10 1_555 1_555
C17_8 C19_8 1_555 1_555
C18_8 C20_8 1_555 1_555
C19_8 C25_8 1_555 1_555
C20_8 C26_8 1_555 1_555
C21_8 C17_8 1_555 1_555
C22_8 C18_8 1_555 1_555
H9_8 C21_8 1_555 1_555
H10_8 C22_8 1_555 1_555
C23_8 C21_8 1_555 1_555
C24_8 C22_8 1_555 1_555
H11_8 C23_8 1_555 1_555
H12_8 C24_8 1_555 1_555
C25_8 H13_8 1_555 1_555
C26_8 H14_8 1_555 1_555
C27_8 C23_8 1_555 1_555
C28_8 C24_8 1_555 1_555
H15_8 C27_8 1_555 1_555
H16_8 C28_8 1_555 1_555
Zn9 O8_8 1_555 1_555
Zn8_2 O1_8 1_555 1_555
Zn10_4 O9_8 1_555 1_555
Zn5_4 O14_8 1_555 1_555
Zn6_3 O10_8 1_555 1_555
Zn7_4 O15_8 1_555 1_555
O7_8 Zn8_2 1_555 1_555
O8_8 C30_8 1_555 1_555
C29_8 O7_8 1_555 1_555
C30_8 C38_8 1_555 1_555
C31_8 H17_8 1_555 1_555
C32_8 H18_8 1_555 1_555
C33_8 H19_8 1_555 1_555
C34_8 H20_8 1_555 1_555
C35_8 C31_8 1_555 1_555
C36_8 C32_8 1_555 1_555
C37_8 C17_8 1_555 1_555
C38_8 C18_8 1_555 1_555
C39_8 C33_8 1_555 1_555
C40_8 C34_8 1_555 1_555
H21_8 C39_8 1_555 1_555
H22_8 C40_8 1_555 1_555
C41_8 C33_8 1_555 1_555
C42_8 C34_8 1_555 1_555
C43_8 C31_8 1_555 1_555
C44_8 C32_8 1_555 1_555
H23_8 C43_8 1_555 1_555
H24_8 C44_8 1_555 1_555
C45_8 C19_8 1_555 1_555
C46_8 C20_8 1_555 1_555
C47_8 C45_8 1_555 1_555
C48_8 C46_8 1_555 1_555
O9_8 C47_8 1_555 1_555
O10_8 C48_8 1_555 1_555
O14_8 C47_8 1_555 1_555
O15_8 C48_8 1_555 1_555
O19_8 Zn1_8 1_555 1_555
O20_8 Zn1_8 1_555 1_555
O21_8 Zn9 1_555 1_555
O22_8 Zn8_2 1_555 1_555
C5_8 C6_8 1_555 1_555
C7_8 C11_8 1_555 1_555
C7_8 O5_8 1_555 1_555
C10_8 C13_8 1_555 1_555
C10_8 C15_8 1_555 1_555
C11_8 C13_8 1_555 1_555
C12_8 C14_8 1_555 1_555
C25_8 C27_8 1_555 1_555
C26_8 C28_8 1_555 1_555
C29_8 C37_8 1_555 1_555
C29_8 O19_8 1_555 1_555
C30_8 O20_8 1_555 1_555
C35_8 C41_8 1_555 1_555
C35_8 C45_8 1_555 1_555
C36_8 C42_8 1_555 1_555
C36_8 C46_8 1_555 1_555
C37_8 C41_8 1_555 1_555
C38_8 C42_8 1_555 1_555
C39_8 C43_8 1_555 1_555
C40_8 C44_8 1_555 1_555
O21_8 H25_8 1_555 1_555
O21_8 H26_8 1_555 1_555
O22_8 H27_8 1_555 1_555
O22_8 H28_8 1_555 1_555
O6_8 H29_8 1_555 1_555
O6_8 H30_8 1_555 1_555
C1_9 C2_9 1_555 1_555
C2_9 C5_9 1_555 1_555
C3_9 C1_9 1_555 1_555
H1_9 C3_9 1_555 1_555
C4_9 C3_9 1_555 1_555
H2_9 C4_9 1_555 1_555
C5_9 H3_9 1_555 1_555
C6_9 C4_9 1_555 1_555
H4_9 C6_9 1_555 1_555
Zn1_9 O1_9 1_555 1_555
Zn10_4 O1_9 1_555 1_555
O1_9 Zn6_4 1_555 1_555
O2_9 Zn10_4 1_555 1_555
C7_9 O2_9 1_555 1_555
C8_9 H5_9 1_555 1_555
C9_9 H6_9 1_555 1_555
C10_9 C8_9 1_555 1_555
C11_9 C1_9 1_555 1_555
C12_9 C9_9 1_555 1_555
H7_9 C12_9 1_555 1_555
C13_9 C9_9 1_555 1_555
C14_9 C8_9 1_555 1_555
H8_9 C14_9 1_555 1_555
C15_9 C2_9 1_555 1_555
C16_9 C15_9 1_555 1_555
O3_9 C16_9 1_555 1_555
O4_9 C16_9 1_555 1_555
O5_9 Zn1_9 1_555 1_555
O6_9 Zn10_4 1_555 1_555
C17_9 C19_9 1_555 1_555
C18_9 C20_9 1_555 1_555
C19_9 C25_9 1_555 1_555
C20_9 C26_9 1_555 1_555
C21_9 C17_9 1_555 1_555
C22_9 C18_9 1_555 1_555
H9_9 C21_9 1_555 1_555
H10_9 C22_9 1_555 1_555
C23_9 C21_9 1_555 1_555
C24_9 C22_9 1_555 1_555
H11_9 C23_9 1_555 1_555
H12_9 C24_9 1_555 1_555
C25_9 H13_9 1_555 1_555
C26_9 H14_9 1_555 1_555
C27_9 C23_9 1_555 1_555
C28_9 C24_9 1_555 1_555
H15_9 C27_9 1_555 1_555
H16_9 C28_9 1_555 1_555
Zn6_4 O8_9 1_555 1_555
Zn5_4 O1_9 1_555 1_555
Zn5_5 O3_9 1_555 1_555
Zn6_5 O4_9 1_555 1_555
Zn7_5 O9_9 1_555 1_555
Zn8_5 O14_9 1_555 1_555
Zn9_5 O10_9 1_555 1_555
Zn10_5 O15_9 1_555 1_555
O7_9 Zn5_4 1_555 1_555
O8_9 C30_9 1_555 1_555
C29_9 O7_9 1_555 1_555
C30_9 C38_9 1_555 1_555
C31_9 H17_9 1_555 1_555
C32_9 H18_9 1_555 1_555
C33_9 H19_9 1_555 1_555
C34_9 H20_9 1_555 1_555
C35_9 C31_9 1_555 1_555
C36_9 C32_9 1_555 1_555
C37_9 C17_9 1_555 1_555
C38_9 C18_9 1_555 1_555
C39_9 C33_9 1_555 1_555
C40_9 C34_9 1_555 1_555
H21_9 C39_9 1_555 1_555
H22_9 C40_9 1_555 1_555
C41_9 C33_9 1_555 1_555
C42_9 C34_9 1_555 1_555
C43_9 C31_9 1_555 1_555
C44_9 C32_9 1_555 1_555
H23_9 C43_9 1_555 1_555
H24_9 C44_9 1_555 1_555
C45_9 C19_9 1_555 1_555
C46_9 C20_9 1_555 1_555
C47_9 C45_9 1_555 1_555
C48_9 C46_9 1_555 1_555
O9_9 C47_9 1_555 1_555
O10_9 C48_9 1_555 1_555
O14_9 C47_9 1_555 1_555
O15_9 C48_9 1_555 1_555
O19_9 Zn1_9 1_555 1_555
O20_9 Zn1_9 1_555 1_555
O21_9 Zn6_4 1_555 1_555
O22_9 Zn5_4 1_555 1_555
C5_9 C6_9 1_555 1_555
C7_9 C11_9 1_555 1_555
C7_9 O5_9 1_555 1_555
C10_9 C13_9 1_555 1_555
C10_9 C15_9 1_555 1_555
C11_9 C13_9 1_555 1_555
C12_9 C14_9 1_555 1_555
C25_9 C27_9 1_555 1_555
C26_9 C28_9 1_555 1_555
C29_9 C37_9 1_555 1_555
C29_9 O19_9 1_555 1_555
C30_9 O20_9 1_555 1_555
C35_9 C41_9 1_555 1_555
C35_9 C45_9 1_555 1_555
C36_9 C42_9 1_555 1_555
C36_9 C46_9 1_555 1_555
C37_9 C41_9 1_555 1_555
C38_9 C42_9 1_555 1_555
C39_9 C43_9 1_555 1_555
C40_9 C44_9 1_555 1_555
O21_9 H25_9 1_555 1_555
O21_9 H26_9 1_555 1_555
O22_9 H27_9 1_555 1_555
O22_9 H28_9 1_555 1_555
O6_9 H29_9 1_555 1_555
O6_9 H30_9 1_555 1_555
C18_10 C20_10 1_555 1_555
C20_10 C26_10 1_555 1_555
C22_10 C18_10 1_555 1_555
H10_10 C22_10 1_555 1_555
C24_10 C22_10 1_555 1_555
H12_10 C24_10 1_555 1_555
C26_10 H14_10 1_555 1_555
C28_10 C24_10 1_555 1_555
H16_10 C28_10 1_555 1_555
Zn9_6 O10_10 1_555 1_555
Zn7_5 O15_10 1_555 1_555
O8_10 C30_10 1_555 1_555
C30_10 C38_10 1_555 1_555
C32_10 H18_10 1_555 1_555
C34_10 H20_10 1_555 1_555
C36_10 C32_10 1_555 1_555
C38_10 C18_10 1_555 1_555
C40_10 C34_10 1_555 1_555
H22_10 C40_10 1_555 1_555
C42_10 C34_10 1_555 1_555
C44_10 C32_10 1_555 1_555
H24_10 C44_10 1_555 1_555
C46_10 C20_10 1_555 1_555
C48_10 C46_10 1_555 1_555
O10_10 C48_10 1_555 1_555
O15_10 C48_10 1_555 1_555
C26_10 C28_10 1_555 1_555
C30_10 O20_10 1_555 1_555
C36_10 C42_10 1_555 1_555
C36_10 C46_10 1_555 1_555
C38_10 C42_10 1_555 1_555
C40_10 C44_10 1_555 1_555
C17_10 C19_10 1_555 1_555
C19_10 C25_10 1_555 1_555
C25_10 H13_10 1_555 1_555
Zn10_5 O9_10 1_555 1_555
Zn8_6 O14_10 1_555 1_555
C29_10 O7_10 1_555 1_555
C31_10 H17_10 1_555 1_555
C33_10 H19_10 1_555 1_555
C35_10 C31_10 1_555 1_555
C37_10 C17_10 1_555 1_555
C39_10 C33_10 1_555 1_555
H21_10 C39_10 1_555 1_555
C41_10 C33_10 1_555 1_555
C43_10 C31_10 1_555 1_555
H23_10 C43_10 1_555 1_555
C45_10 C19_10 1_555 1_555
C47_10 C45_10 1_555 1_555
O9_10 C47_10 1_555 1_555
O14_10 C47_10 1_555 1_555
C29_10 C37_10 1_555 1_555
C29_10 O19_10 1_555 1_555
C35_10 C41_10 1_555 1_555
C35_10 C45_10 1_555 1_555
C37_10 C41_10 1_555 1_555
C39_10 C43_10 1_555 1_555
H1_10 C3_10 1_555 1_555
C4_10 C3_10 1_555 1_555
H2_10 C4_10 1_555 1_555
C6_10 C4_10 1_555 1_555
H4_10 C6_10 1_555 1_555
Zn1_10 O1_10 1_555 1_555
Zn7_4 O1_10 1_555 1_555
O1_10 Zn6_3 1_555 1_555
O6_10 Zn7_4 1_555 1_555
Zn5_3 O1_10 1_555 1_555
O21_10 Zn6_3 1_555 1_555
O22_10 Zn5_3 1_555 1_555
O21_10 H25_10 1_555 1_555
O21_10 H26_10 1_555 1_555
O22_10 H27_10 1_555 1_555
O22_10 H28_10 1_555 1_555
O6_10 H29_10 1_555 1_555
O6_10 H30_10 1_555 1_555
C1_10 C2_10 1_555 1_555
C2_10 C5_10 1_555 1_555
C5_10 H3_10 1_555 1_555
C7_10 O2_10 1_555 1_555
C8_10 H5_10 1_555 1_555
C9_10 H6_10 1_555 1_555
C10_10 C8_10 1_555 1_555
C11_10 C1_10 1_555 1_555
C12_10 C9_10 1_555 1_555
H7_10 C12_10 1_555 1_555
C13_10 C9_10 1_555 1_555
C14_10 C8_10 1_555 1_555
H8_10 C14_10 1_555 1_555
C15_10 C2_10 1_555 1_555
C16_10 C15_10 1_555 1_555
O3_10 C16_10 1_555 1_555
O4_10 C16_10 1_555 1_555
H9_10 C21_10 1_555 1_555
C23_10 C21_10 1_555 1_555
H11_10 C23_10 1_555 1_555
C27_10 C23_10 1_555 1_555
H15_10 C27_10 1_555 1_555
Zn5_6 O3_10 1_555 1_555
Zn6_6 O4_10 1_555 1_555
C7_10 C11_10 1_555 1_555
C7_10 O5_10 1_555 1_555
C10_10 C13_10 1_555 1_555
C10_10 C15_10 1_555 1_555
C11_10 C13_10 1_555 1_555
C12_10 C14_10 1_555 1_555
C17_11 C19_11 1_555 1_555
C19_11 C25_11 1_555 1_555
C21_11 C17_11 1_555 1_555
H9_11 C21_11 1_555 1_555
C23_11 C21_11 1_555 1_555
H11_11 C23_11 1_555 1_555
C25_11 H13_11 1_555 1_555
C27_11 C23_11 1_555 1_555
H15_11 C27_11 1_555 1_555
Zn7_6 O9_11 1_555 1_555
Zn5_5 O14_11 1_555 1_555
C29_11 O7_11 1_555 1_555
C31_11 H17_11 1_555 1_555
C33_11 H19_11 1_555 1_555
C35_11 C31_11 1_555 1_555
C37_11 C17_11 1_555 1_555
C39_11 C33_11 1_555 1_555
H21_11 C39_11 1_555 1_555
C41_11 C33_11 1_555 1_555
C43_11 C31_11 1_555 1_555
H23_11 C43_11 1_555 1_555
C45_11 C19_11 1_555 1_555
C47_11 C45_11 1_555 1_555
O9_11 C47_11 1_555 1_555
O14_11 C47_11 1_555 1_555
C25_11 C27_11 1_555 1_555
C29_11 C37_11 1_555 1_555
C29_11 O19_11 1_555 1_555
C35_11 C41_11 1_555 1_555
C35_11 C45_11 1_555 1_555
C37_11 C41_11 1_555 1_555
C39_11 C43_11 1_555 1_555
Zn1_11 O1_11 1_555 1_555
Zn7_3 O1_11 1_555 1_555
O1_11 Zn9_4 1_555 1_555
O6_11 Zn7_3 1_555 1_555
H10_11 C22_11 1_555 1_555
C24_11 C22_11 1_555 1_555
H12_11 C24_11 1_555 1_555
C28_11 C24_11 1_555 1_555
H16_11 C28_11 1_555 1_555
Zn8_3 O1_11 1_555 1_555
O21_11 Zn9_4 1_555 1_555
O22_11 Zn8_3 1_555 1_555
O21_11 H25_11 1_555 1_555
O21_11 H26_11 1_555 1_555
O22_11 H27_11 1_555 1_555
O22_11 H28_11 1_555 1_555
O6_11 H29_11 1_555 1_555
O6_11 H30_11 1_555 1_555
C1_11 C2_11 1_555 1_555
C2_11 C5_11 1_555 1_555
C5_11 H3_11 1_555 1_555
C7_11 O2_11 1_555 1_555
C8_11 H5_11 1_555 1_555
C9_11 H6_11 1_555 1_555
C10_11 C8_11 1_555 1_555
C11_11 C1_11 1_555 1_555
C12_11 C9_11 1_555 1_555
H7_11 C12_11 1_555 1_555
C13_11 C9_11 1_555 1_555
C14_11 C8_11 1_555 1_555
H8_11 C14_11 1_555 1_555
C15_11 C2_11 1_555 1_555
C16_11 C15_11 1_555 1_555
O3_11 C16_11 1_555 1_555
O4_11 C16_11 1_555 1_555
Zn8_5 O3_11 1_555 1_555
Zn9_6 O4_11 1_555 1_555
C7_11 C11_11 1_555 1_555
C7_11 O5_11 1_555 1_555
C10_11 C13_11 1_555 1_555
C10_11 C15_11 1_555 1_555
C11_11 C13_11 1_555 1_555
C12_11 C14_11 1_555 1_555
H1_11 C3_11 1_555 1_555
C4_11 C3_11 1_555 1_555
H2_11 C4_11 1_555 1_555
C6_11 C4_11 1_555 1_555
H4_11 C6_11 1_555 1_555
C18_11 C20_11 1_555 1_555
C20_11 C26_11 1_555 1_555
C26_11 H14_11 1_555 1_555
Zn6_6 O10_11 1_555 1_555
Zn10_6 O15_11 1_555 1_555
O8_11 C30_11 1_555 1_555
C30_11 C38_11 1_555 1_555
C32_11 H18_11 1_555 1_555
C34_11 H20_11 1_555 1_555
C36_11 C32_11 1_555 1_555
C38_11 C18_11 1_555 1_555
C40_11 C34_11 1_555 1_555
H22_11 C40_11 1_555 1_555
C42_11 C34_11 1_555 1_555
C44_11 C32_11 1_555 1_555
H24_11 C44_11 1_555 1_555
C46_11 C20_11 1_555 1_555
C48_11 C46_11 1_555 1_555
O10_11 C48_11 1_555 1_555
O15_11 C48_11 1_555 1_555
C30_11 O20_11 1_555 1_555
C36_11 C42_11 1_555 1_555
C36_11 C46_11 1_555 1_555
C38_11 C42_11 1_555 1_555
C40_11 C44_11 1_555 1_555
C1_12 C2_12 1_555 1_555
C2_12 C5_12 1_555 1_555
C3_12 C1_12 1_555 1_555
H1_12 C3_12 1_555 1_555
C4_12 C3_12 1_555 1_555
H2_12 C4_12 1_555 1_555
C5_12 H3_12 1_555 1_555
C6_12 C4_12 1_555 1_555
H4_12 C6_12 1_555 1_555
C7_12 O2_12 1_555 1_555
C8_12 H5_12 1_555 1_555
C9_12 H6_12 1_555 1_555
C10_12 C8_12 1_555 1_555
C11_12 C1_12 1_555 1_555
C12_12 C9_12 1_555 1_555
H7_12 C12_12 1_555 1_555
C13_12 C9_12 1_555 1_555
C14_12 C8_12 1_555 1_555
H8_12 C14_12 1_555 1_555
C15_12 C2_12 1_555 1_555
C16_12 C15_12 1_555 1_555
O3_12 C16_12 1_555 1_555
O4_12 C16_12 1_555 1_555
Zn8_6 O3_12 1_555 1_555
Zn9_5 O4_12 1_555 1_555
C5_12 C6_12 1_555 1_555
C7_12 C11_12 1_555 1_555
C7_12 O5_12 1_555 1_555
C10_12 C13_12 1_555 1_555
C10_12 C15_12 1_555 1_555
C11_12 C13_12 1_555 1_555
C12_12 C14_12 1_555 1_555
Zn1_12 O1_12 1_555 1_555
Zn10_3 O1_12 1_555 1_555
O1_12 Zn9_3 1_555 1_555
O6_12 Zn10_3 1_555 1_555
H9_12 C21_12 1_555 1_555
C23_12 C21_12 1_555 1_555
H11_12 C23_12 1_555 1_555
C27_12 C23_12 1_555 1_555
H15_12 C27_12 1_555 1_555
Zn8_4 O1_12 1_555 1_555
O21_12 Zn9_3 1_555 1_555
O22_12 Zn8_4 1_555 1_555
O21_12 H25_12 1_555 1_555
O21_12 H26_12 1_555 1_555
O22_12 H27_12 1_555 1_555
O22_12 H28_12 1_555 1_555
O6_12 H29_12 1_555 1_555
O6_12 H30_12 1_555 1_555
C18_12 C20_12 1_555 1_555
C20_12 C26_12 1_555 1_555
C26_12 H14_12 1_555 1_555
Zn6_5 O10_12 1_555 1_555
Zn7_6 O15_12 1_555 1_555
O8_12 C30_12 1_555 1_555
C30_12 C38_12 1_555 1_555
C32_12 H18_12 1_555 1_555
C34_12 H20_12 1_555 1_555
C36_12 C32_12 1_555 1_555
C38_12 C18_12 1_555 1_555
C40_12 C34_12 1_555 1_555
H22_12 C40_12 1_555 1_555
C42_12 C34_12 1_555 1_555
C44_12 C32_12 1_555 1_555
H24_12 C44_12 1_555 1_555
C46_12 C20_12 1_555 1_555
C48_12 C46_12 1_555 1_555
O10_12 C48_12 1_555 1_555
O15_12 C48_12 1_555 1_555
C30_12 O20_12 1_555 1_555
C36_12 C42_12 1_555 1_555
C36_12 C46_12 1_555 1_555
C38_12 C42_12 1_555 1_555
C40_12 C44_12 1_555 1_555
C17_12 C19_12 1_555 1_555
C19_12 C25_12 1_555 1_555
H10_12 C22_12 1_555 1_555
C24_12 C22_12 1_555 1_555
H12_12 C24_12 1_555 1_555
C25_12 H13_12 1_555 1_555
C28_12 C24_12 1_555 1_555
H16_12 C28_12 1_555 1_555
Zn10_6 O9_12 1_555 1_555
Zn5_6 O14_12 1_555 1_555
C29_12 O7_12 1_555 1_555
C31_12 H17_12 1_555 1_555
C33_12 H19_12 1_555 1_555
C35_12 C31_12 1_555 1_555
C37_12 C17_12 1_555 1_555
C39_12 C33_12 1_555 1_555
H21_12 C39_12 1_555 1_555
C41_12 C33_12 1_555 1_555
C43_12 C31_12 1_555 1_555
H23_12 C43_12 1_555 1_555
C45_12 C19_12 1_555 1_555
C47_12 C45_12 1_555 1_555
O9_12 C47_12 1_555 1_555
O14_12 C47_12 1_555 1_555
C29_12 C37_12 1_555 1_555
C29_12 O19_12 1_555 1_555
C35_12 C41_12 1_555 1_555
C35_12 C45_12 1_555 1_555
C37_12 C41_12 1_555 1_555
C39_12 C43_12 1_555 1_555
C1_13 C2_13 1_555 1_555
C2_13 C5_13 1_555 1_555
C3_13 C1_13 1_555 1_555
H1_13 C3_13 1_555 1_555
C4_13 C3_13 1_555 1_555
H2_13 C4_13 1_555 1_555
C5_13 H3_13 1_555 1_555
C6_13 C4_13 1_555 1_555
H4_13 C6_13 1_555 1_555
Zn1_13 O1_13 1_555 1_555
Zn10_6 O1_13 1_555 1_555
O1_13 Zn6_6 1_555 1_555
O2_13 Zn10_6 1_555 1_555
C7_13 O2_13 1_555 1_555
C8_13 H5_13 1_555 1_555
C9_13 H6_13 1_555 1_555
C10_13 C8_13 1_555 1_555
C11_13 C1_13 1_555 1_555
C12_13 C9_13 1_555 1_555
H7_13 C12_13 1_555 1_555
C13_13 C9_13 1_555 1_555
C14_13 C8_13 1_555 1_555
H8_13 C14_13 1_555 1_555
C15_13 C2_13 1_555 1_555
C16_13 C15_13 1_555 1_555
O13_2 C16_13 1_555 1_555
O17_2 C16_13 1_555 1_555
O5_13 Zn1_13 1_555 1_555
O6_13 Zn10_6 1_555 1_555
C17_13 C19_13 1_555 1_555
C18_13 C20_13 1_555 1_555
C19_13 C25_13 1_555 1_555
C20_13 C26_13 1_555 1_555
C21_13 C17_13 1_555 1_555
C22_13 C18_13 1_555 1_555
H9_13 C21_13 1_555 1_555
H10_13 C22_13 1_555 1_555
C23_13 C21_13 1_555 1_555
C24_13 C22_13 1_555 1_555
H11_13 C23_13 1_555 1_555
H12_13 C24_13 1_555 1_555
C25_13 H13_13 1_555 1_555
C26_13 H14_13 1_555 1_555
C27_13 C23_13 1_555 1_555
C28_13 C24_13 1_555 1_555
H15_13 C27_13 1_555 1_555
H16_13 C28_13 1_555 1_555
Zn6_6 O8_13 1_555 1_555
Zn5_6 O1_13 1_555 1_555
O7_13 Zn5_6 1_555 1_555
O8_13 C30_13 1_555 1_555
C29_13 O7_13 1_555 1_555
C30_13 C38_13 1_555 1_555
C31_13 H17_13 1_555 1_555
C32_13 H18_13 1_555 1_555
C33_13 H19_13 1_555 1_555
C34_13 H20_13 1_555 1_555
C35_13 C31_13 1_555 1_555
C36_13 C32_13 1_555 1_555
C37_13 C17_13 1_555 1_555
C38_13 C18_13 1_555 1_555
C39_13 C33_13 1_555 1_555
C40_13 C34_13 1_555 1_555
H21_13 C39_13 1_555 1_555
H22_13 C40_13 1_555 1_555
C41_13 C33_13 1_555 1_555
C42_13 C34_13 1_555 1_555
C43_13 C31_13 1_555 1_555
C44_13 C32_13 1_555 1_555
H23_13 C43_13 1_555 1_555
H24_13 C44_13 1_555 1_555
C45_13 C19_13 1_555 1_555
C46_13 C20_13 1_555 1_555
C47_13 C45_13 1_555 1_555
C48_13 C46_13 1_555 1_555
O11_3 C47_13 1_555 1_555
O12_4 C48_13 1_555 1_555
O18_3 C47_13 1_555 1_555
O16_4 C48_13 1_555 1_555
O19_13 Zn1_13 1_555 1_555
O20_13 Zn1_13 1_555 1_555
O21_13 Zn6_6 1_555 1_555
O22_13 Zn5_6 1_555 1_555
C5_13 C6_13 1_555 1_555
C7_13 C11_13 1_555 1_555
C7_13 O5_13 1_555 1_555
C10_13 C13_13 1_555 1_555
C10_13 C15_13 1_555 1_555
C11_13 C13_13 1_555 1_555
C12_13 C14_13 1_555 1_555
C25_13 C27_13 1_555 1_555
C26_13 C28_13 1_555 1_555
C29_13 C37_13 1_555 1_555
C29_13 O19_13 1_555 1_555
C30_13 O20_13 1_555 1_555
C35_13 C41_13 1_555 1_555
C35_13 C45_13 1_555 1_555
C36_13 C42_13 1_555 1_555
C36_13 C46_13 1_555 1_555
C37_13 C41_13 1_555 1_555
C38_13 C42_13 1_555 1_555
C39_13 C43_13 1_555 1_555
C40_13 C44_13 1_555 1_555
O21_13 H25_13 1_555 1_555
O21_13 H26_13 1_555 1_555
O22_13 H27_13 1_555 1_555
O22_13 H28_13 1_555 1_555
O6_13 H29_13 1_555 1_555
O6_13 H30_13 1_555 1_555
C1_14 C2_14 1_555 1_555
C2_14 C5_14 1_555 1_555
C3_14 C1_14 1_555 1_555
H1_14 C3_14 1_555 1_555
C4_14 C3_14 1_555 1_555
H2_14 C4_14 1_555 1_555
C5_14 H3_14 1_555 1_555
C6_14 C4_14 1_555 1_555
H4_14 C6_14 1_555 1_555
Zn1_14 O1_14 1_555 1_555
Zn7_6 O1_14 1_555 1_555
O1_14 Zn6_5 1_555 1_555
O2_14 Zn7_6 1_555 1_555
C7_14 O2_14 1_555 1_555
C8_14 H5_14 1_555 1_555
C9_14 H6_14 1_555 1_555
C10_14 C8_14 1_555 1_555
C11_14 C1_14 1_555 1_555
C12_14 C9_14 1_555 1_555
H7_14 C12_14 1_555 1_555
C13_14 C9_14 1_555 1_555
C14_14 C8_14 1_555 1_555
H8_14 C14_14 1_555 1_555
C15_14 C2_14 1_555 1_555
C16_14 C15_14 1_555 1_555
O13 C16_14 1_555 1_555
O17 C16_14 1_555 1_555
O5_14 Zn1_14 1_555 1_555
O6_14 Zn7_6 1_555 1_555
C17_14 C19_14 1_555 1_555
C18_14 C20_14 1_555 1_555
C19_14 C25_14 1_555 1_555
C20_14 C26_14 1_555 1_555
C21_14 C17_14 1_555 1_555
C22_14 C18_14 1_555 1_555
H9_14 C21_14 1_555 1_555
H10_14 C22_14 1_555 1_555
C23_14 C21_14 1_555 1_555
C24_14 C22_14 1_555 1_555
H11_14 C23_14 1_555 1_555
H12_14 C24_14 1_555 1_555
C25_14 H13_14 1_555 1_555
C26_14 H14_14 1_555 1_555
C27_14 C23_14 1_555 1_555
C28_14 C24_14 1_555 1_555
H15_14 C27_14 1_555 1_555
H16_14 C28_14 1_555 1_555
Zn6_5 O8_14 1_555 1_555
Zn5_5 O1_14 1_555 1_555
O7_14 Zn5_5 1_555 1_555
O8_14 C30_14 1_555 1_555
C29_14 O7_14 1_555 1_555
C30_14 C38_14 1_555 1_555
C31_14 H17_14 1_555 1_555
C32_14 H18_14 1_555 1_555
C33_14 H19_14 1_555 1_555
C34_14 H20_14 1_555 1_555
C35_14 C31_14 1_555 1_555
C36_14 C32_14 1_555 1_555
C37_14 C17_14 1_555 1_555
C38_14 C18_14 1_555 1_555
C39_14 C33_14 1_555 1_555
C40_14 C34_14 1_555 1_555
H21_14 C39_14 1_555 1_555
H22_14 C40_14 1_555 1_555
C41_14 C33_14 1_555 1_555
C42_14 C34_14 1_555 1_555
C43_14 C31_14 1_555 1_555
C44_14 C32_14 1_555 1_555
H23_14 C43_14 1_555 1_555
H24_14 C44_14 1_555 1_555
C45_14 C19_14 1_555 1_555
C46_14 C20_14 1_555 1_555
C47_14 C45_14 1_555 1_555
C48_14 C46_14 1_555 1_555
O11_4 C47_14 1_555 1_555
O12_3 C48_14 1_555 1_555
O18_4 C47_14 1_555 1_555
O16_3 C48_14 1_555 1_555
O19_14 Zn1_14 1_555 1_555
O20_14 Zn1_14 1_555 1_555
O21_14 Zn6_5 1_555 1_555
O22_14 Zn5_5 1_555 1_555
C5_14 C6_14 1_555 1_555
C7_14 C11_14 1_555 1_555
C7_14 O5_14 1_555 1_555
C10_14 C13_14 1_555 1_555
C10_14 C15_14 1_555 1_555
C11_14 C13_14 1_555 1_555
C12_14 C14_14 1_555 1_555
C25_14 C27_14 1_555 1_555
C26_14 C28_14 1_555 1_555
C29_14 C37_14 1_555 1_555
C29_14 O19_14 1_555 1_555
C30_14 O20_14 1_555 1_555
C35_14 C41_14 1_555 1_555
C35_14 C45_14 1_555 1_555
C36_14 C42_14 1_555 1_555
C36_14 C46_14 1_555 1_555
C37_14 C41_14 1_555 1_555
C38_14 C42_14 1_555 1_555
C39_14 C43_14 1_555 1_555
C40_14 C44_14 1_555 1_555
O21_14 H25_14 1_555 1_555
O21_14 H26_14 1_555 1_555
O22_14 H27_14 1_555 1_555
O22_14 H28_14 1_555 1_555
O6_14 H29_14 1_555 1_555
O6_14 H30_14 1_555 1_555
C1_15 C2_15 1_555 1_555
C2_15 C5_15 1_555 1_555
C3_15 C1_15 1_555 1_555
H1_15 C3_15 1_555 1_555
C4_15 C3_15 1_555 1_555
H2_15 C4_15 1_555 1_555
C5_15 H3_15 1_555 1_555
C6_15 C4_15 1_555 1_555
H4_15 C6_15 1_555 1_555
Zn1_15 O1_15 1_555 1_555
Zn7_5 O1_15 1_555 1_555
O1_15 Zn9_6 1_555 1_555
O2_15 Zn7_5 1_555 1_555
C7_15 O2_15 1_555 1_555
C8_15 H5_15 1_555 1_555
C9_15 H6_15 1_555 1_555
C10_15 C8_15 1_555 1_555
C11_15 C1_15 1_555 1_555
C12_15 C9_15 1_555 1_555
H7_15 C12_15 1_555 1_555
C13_15 C9_15 1_555 1_555
C14_15 C8_15 1_555 1_555
H8_15 C14_15 1_555 1_555
C15_15 C2_15 1_555 1_555
C16_15 C15_15 1_555 1_555
O13_3 C16_15 1_555 1_555
O17_3 C16_15 1_555 1_555
O5_15 Zn1_15 1_555 1_555
O6_15 Zn7_5 1_555 1_555
C17_15 C19_15 1_555 1_555
C18_15 C20_15 1_555 1_555
C19_15 C25_15 1_555 1_555
C20_15 C26_15 1_555 1_555
C21_15 C17_15 1_555 1_555
C22_15 C18_15 1_555 1_555
H9_15 C21_15 1_555 1_555
H10_15 C22_15 1_555 1_555
C23_15 C21_15 1_555 1_555
C24_15 C22_15 1_555 1_555
H11_15 C23_15 1_555 1_555
H12_15 C24_15 1_555 1_555
C25_15 H13_15 1_555 1_555
C26_15 H14_15 1_555 1_555
C27_15 C23_15 1_555 1_555
C28_15 C24_15 1_555 1_555
H15_15 C27_15 1_555 1_555
H16_15 C28_15 1_555 1_555
Zn9_6 O8_15 1_555 1_555
Zn8_5 O1_15 1_555 1_555
O7_15 Zn8_5 1_555 1_555
O8_15 C30_15 1_555 1_555
C29_15 O7_15 1_555 1_555
C30_15 C38_15 1_555 1_555
C31_15 H17_15 1_555 1_555
C32_15 H18_15 1_555 1_555
C33_15 H19_15 1_555 1_555
C34_15 H20_15 1_555 1_555
C35_15 C31_15 1_555 1_555
C36_15 C32_15 1_555 1_555
C37_15 C17_15 1_555 1_555
C38_15 C18_15 1_555 1_555
C39_15 C33_15 1_555 1_555
C40_15 C34_15 1_555 1_555
H21_15 C39_15 1_555 1_555
H22_15 C40_15 1_555 1_555
C41_15 C33_15 1_555 1_555
C42_15 C34_15 1_555 1_555
C43_15 C31_15 1_555 1_555
C44_15 C32_15 1_555 1_555
H23_15 C43_15 1_555 1_555
H24_15 C44_15 1_555 1_555
C45_15 C19_15 1_555 1_555
C46_15 C20_15 1_555 1_555
C47_15 C45_15 1_555 1_555
C48_15 C46_15 1_555 1_555
O11_2 C47_15 1_555 1_555
O12 C48_15 1_555 1_555
O18_2 C47_15 1_555 1_555
O16 C48_15 1_555 1_555
O19_15 Zn1_15 1_555 1_555
O20_15 Zn1_15 1_555 1_555
O21_15 Zn9_6 1_555 1_555
O22_15 Zn8_5 1_555 1_555
C5_15 C6_15 1_555 1_555
C7_15 C11_15 1_555 1_555
C7_15 O5_15 1_555 1_555
C10_15 C13_15 1_555 1_555
C10_15 C15_15 1_555 1_555
C11_15 C13_15 1_555 1_555
C12_15 C14_15 1_555 1_555
C25_15 C27_15 1_555 1_555
C26_15 C28_15 1_555 1_555
C29_15 C37_15 1_555 1_555
C29_15 O19_15 1_555 1_555
C30_15 O20_15 1_555 1_555
C35_15 C41_15 1_555 1_555
C35_15 C45_15 1_555 1_555
C36_15 C42_15 1_555 1_555
C36_15 C46_15 1_555 1_555
C37_15 C41_15 1_555 1_555
C38_15 C42_15 1_555 1_555
C39_15 C43_15 1_555 1_555
C40_15 C44_15 1_555 1_555
O21_15 H25_15 1_555 1_555
O21_15 H26_15 1_555 1_555
O22_15 H27_15 1_555 1_555
O22_15 H28_15 1_555 1_555
O6_15 H29_15 1_555 1_555
O6_15 H30_15 1_555 1_555
C1_16 C2_16 1_555 1_555
C2_16 C5_16 1_555 1_555
C3_16 C1_16 1_555 1_555
H1_16 C3_16 1_555 1_555
C4_16 C3_16 1_555 1_555
H2_16 C4_16 1_555 1_555
C5_16 H3_16 1_555 1_555
C6_16 C4_16 1_555 1_555
H4_16 C6_16 1_555 1_555
Zn1_16 O1_16 1_555 1_555
Zn10_5 O1_16 1_555 1_555
O1_16 Zn9_5 1_555 1_555
O2_16 Zn10_5 1_555 1_555
C7_16 O2_16 1_555 1_555
C8_16 H5_16 1_555 1_555
C9_16 H6_16 1_555 1_555
C10_16 C8_16 1_555 1_555
C11_16 C1_16 1_555 1_555
C12_16 C9_16 1_555 1_555
H7_16 C12_16 1_555 1_555
C13_16 C9_16 1_555 1_555
C14_16 C8_16 1_555 1_555
H8_16 C14_16 1_555 1_555
C15_16 C2_16 1_555 1_555
C16_16 C15_16 1_555 1_555
O13_4 C16_16 1_555 1_555
O17_4 C16_16 1_555 1_555
O5_16 Zn1_16 1_555 1_555
O6_16 Zn10_5 1_555 1_555
C17_16 C19_16 1_555 1_555
C18_16 C20_16 1_555 1_555
C19_16 C25_16 1_555 1_555
C20_16 C26_16 1_555 1_555
C21_16 C17_16 1_555 1_555
C22_16 C18_16 1_555 1_555
H9_16 C21_16 1_555 1_555
H10_16 C22_16 1_555 1_555
C23_16 C21_16 1_555 1_555
C24_16 C22_16 1_555 1_555
H11_16 C23_16 1_555 1_555
H12_16 C24_16 1_555 1_555
C25_16 H13_16 1_555 1_555
C26_16 H14_16 1_555 1_555
C27_16 C23_16 1_555 1_555
C28_16 C24_16 1_555 1_555
H15_16 C27_16 1_555 1_555
H16_16 C28_16 1_555 1_555
Zn9_5 O8_16 1_555 1_555
Zn8_6 O1_16 1_555 1_555
O7_16 Zn8_6 1_555 1_555
O8_16 C30_16 1_555 1_555
C29_16 O7_16 1_555 1_555
C30_16 C38_16 1_555 1_555
C31_16 H17_16 1_555 1_555
C32_16 H18_16 1_555 1_555
C33_16 H19_16 1_555 1_555
C34_16 H20_16 1_555 1_555
C35_16 C31_16 1_555 1_555
C36_16 C32_16 1_555 1_555
C37_16 C17_16 1_555 1_555
C38_16 C18_16 1_555 1_555
C39_16 C33_16 1_555 1_555
C40_16 C34_16 1_555 1_555
H21_16 C39_16 1_555 1_555
H22_16 C40_16 1_555 1_555
C41_16 C33_16 1_555 1_555
C42_16 C34_16 1_555 1_555
C43_16 C31_16 1_555 1_555
C44_16 C32_16 1_555 1_555
H23_16 C43_16 1_555 1_555
H24_16 C44_16 1_555 1_555
C45_16 C19_16 1_555 1_555
C46_16 C20_16 1_555 1_555
C47_16 C45_16 1_555 1_555
C48_16 C46_16 1_555 1_555
O11 C47_16 1_555 1_555
O12_2 C48_16 1_555 1_555
O18 C47_16 1_555 1_555
O16_2 C48_16 1_555 1_555
O19_16 Zn1_16 1_555 1_555
O20_16 Zn1_16 1_555 1_555
O21_16 Zn9_5 1_555 1_555
O22_16 Zn8_6 1_555 1_555
C5_16 C6_16 1_555 1_555
C7_16 C11_16 1_555 1_555
C7_16 O5_16 1_555 1_555
C10_16 C13_16 1_555 1_555
C10_16 C15_16 1_555 1_555
C11_16 C13_16 1_555 1_555
C12_16 C14_16 1_555 1_555
C25_16 C27_16 1_555 1_555
C26_16 C28_16 1_555 1_555
C29_16 C37_16 1_555 1_555
C29_16 O19_16 1_555 1_555
C30_16 O20_16 1_555 1_555
C35_16 C41_16 1_555 1_555
C35_16 C45_16 1_555 1_555
C36_16 C42_16 1_555 1_555
C36_16 C46_16 1_555 1_555
C37_16 C41_16 1_555 1_555
C38_16 C42_16 1_555 1_555
C39_16 C43_16 1_555 1_555
C40_16 C44_16 1_555 1_555
O21_16 H25_16 1_555 1_555
O21_16 H26_16 1_555 1_555
O22_16 H27_16 1_555 1_555
O22_16 H28_16 1_555 1_555
O6_16 H29_16 1_555 1_555
O6_16 H30_16 1_555 1_555

#END
