
###############################################################################
#
# This file contains modified crystal structure data generated from the
# MOF subset of the Cambridge Structural Database (CSD) v543 
# hosted by the Cambridge Crystallographic Data Centre (CCDC).
#
# This work is licensed under the Creative Commons
# Attribution-NonCommercial-ShareAlike 4.0 International License.
# To view a copy of this license, visit
# http://creativecommons.org/licenses/by-nc-sa/4.0/
# or send a letter to
# Creative Commons, PO Box 1866, Mountain View, CA 94042, USA.
#
# CIF created using the CSD Python API on 29 September 2022
# The structure has been converted into the P1 space group
# The structure has a 3D framework
# The original CSD entry TIRRIW is in the triclinic crystal system
# The framework has been calculated to contain at least 10.0% void space
# The void calculation uses a probe of radius 1.32A, grid spacing 0.4
#
###############################################################################

data_TIRRIW
_chemical_formula_moiety         '(C68 H40 Co4 N4 O16)n'
_symmetry_cell_setting           triclinic
_symmetry_space_group_name_H-M   'P 1'
_symmetry_Int_Tables_number      1
_space_group_name_Hall           'P 1'
loop_
_symmetry_equiv_pos_site_id
_symmetry_equiv_pos_as_xyz
1 x,y,z
_cell_length_a                   12.939(5)
_cell_length_b                   13.092(5)
_cell_length_c                   13.754(4)
_cell_angle_alpha                85.449(11)
_cell_angle_beta                 70.302(12)
_cell_angle_gamma                83.731(10)
_cell_volume                     2178.18
loop_
_atom_site_label
_atom_site_type_symbol
_atom_site_fract_x
_atom_site_fract_y
_atom_site_fract_z
O2 O 0.0354(2) 0.16256(17) 0.59857(17)
O3 O 0.7019(2) 0.18907(19) 0.6821(2)
O4 O 0.6425(2) 0.1915(2) 0.8536(2)
C1 C 0.0519(3) 0.1692(3) 0.6828(3)
C2 C 0.1664(3) 0.1712(3) 0.6812(3)
C3 C 0.1879(3) 0.1866(3) 0.7689(3)
H1 H 0.1277 0.1966 0.8311
C4 C 0.2962(3) 0.1883(3) 0.7713(3)
C5 C 0.3160(3) 0.2064(3) 0.8614(3)
H2 H 0.2562 0.2184 0.9235
C6 C 0.4209(4) 0.2066(3) 0.8601(3)
H3 H 0.4337 0.2172 0.9224
C7 C 0.5122(3) 0.1916(3) 0.7686(3)
C8 C 0.4899(3) 0.1763(3) 0.6810(3)
H4 H 0.5501 0.1676 0.6186
C9 C 0.3843(3) 0.1727(3) 0.6780(3)
C10 C 0.3605(3) 0.1575(3) 0.5876(3)
H5 H 0.4194 0.1488 0.5242
C11 C 0.2550(3) 0.1549(3) 0.5890(3)
H6 H 0.2413 0.1422 0.5276
C12 C 0.6267(4) 0.1907(3) 0.7673(3)
Co3 Co 0.80514(4) 0.18318(3) 0.82998(3)
Co5 Co 0.87224(4) 0.17448(3) 0.61831(3)
N2 N 0.8666(3) 0.1760(2) 0.4714(2)
C25 C 0.8853(7) 0.1083(5) 0.0041(5)
C26 C 0.9041(6) 0.1089(5) 0.0967(5)
H14 H 0.9579 0.0611 0.1118
C27 C 0.8413(4) 0.1828(3) 0.1693(3)
C28 C 0.8071(4) 0.2667(3) 0.1258(3)
H15 H 0.7890 0.3292 0.1609
C29 C 0.7976(5) 0.2639(3) 0.0289(3)
C30 C 0.8511(4) 0.1805(3) 0.2734(3)
C31 C 0.8736(4) 0.0930(3) 0.3230(3)
H17 H 0.8851 0.0297 0.2900
C32 C 0.8804(3) 0.0930(3) 0.4210(3)
H18 H 0.8959 0.0290 0.4533
C33 C 0.8208(10) 0.2569(7) 0.4347(6)
H19 H 0.7957 0.3152 0.4761
C34 C 0.8067(10) 0.2625(7) 0.3388(7)
H20 H 0.7677 0.3209 0.3178
O1 O 0.9766(2) 0.17461(19) 0.77006(19)
O5 O 0.8178(2) 0.02860(17) 0.82151(17)
O6 O 0.8655(2) 0.02178(17) 0.64949(16)
N1 N 0.8171(3) 0.1825(2) 0.9745(2)
H13 H 0.9209 0.0543 0.9589
H16 H 0.7749 0.3267 0.9994
O11 O 0.8636(2) 0.32803(17) 0.62646(16)
O12 O 0.8079(2) 0.33458(17) 0.79877(17)
C13 C 0.8401(3) 0.9814(3) 0.7384(3)
C14 C 0.8347(3) 0.8671(3) 0.7498(3)
C15 C 0.8555(3) 0.8107(3) 0.6658(3)
H7 H 0.8733 0.8447 0.5994
C16 C 0.8516(3) 0.7044(3) 0.6741(2)
C17 C 0.8742(3) 0.6426(3) 0.5876(3)
H8 H 0.8943 0.6748 0.5202
C18 C 0.8682(3) 0.5395(3) 0.5980(3)
H9 H 0.8830 0.5005 0.5386
C19 C 0.8397(3) 0.4900(3) 0.6976(3)
C20 C 0.8152(3) 0.5470(3) 0.7830(3)
H10 H 0.7926 0.5138 0.8499
C21 C 0.8230(4) 0.6548(3) 0.7732(3)
C22 C 0.8011(4) 0.7131(3) 0.8602(3)
H11 H 0.7821 0.6805 0.9274
C23 C 0.8073(4) 0.8161(3) 0.8480(3)
H12 H 0.7926 0.8551 0.9073
C24 C 0.8363(3) 0.3766(3) 0.7087(3)
O7 O 0.1364(2) 0.67197(17) 0.37354(16)
O8 O 0.1921(2) 0.66542(17) 0.20123(17)
C13_2 C 0.1599(3) 0.0186(3) 0.2616(3)
C14_2 C 0.1653(3) 0.1329(3) 0.2502(3)
C15_2 C 0.1445(3) 0.1893(3) 0.3342(3)
H7_2 H 0.1267 0.1553 0.4006
C16_2 C 0.1484(3) 0.2956(3) 0.3259(2)
C17_2 C 0.1258(3) 0.3574(3) 0.4124(3)
H8_2 H 0.1057 0.3252 0.4798
C18_2 C 0.1318(3) 0.4605(3) 0.4020(3)
H9_2 H 0.1170 0.4995 0.4614
C19_2 C 0.1603(3) 0.5100(3) 0.3024(3)
C20_2 C 0.1848(3) 0.4530(3) 0.2170(3)
H10_2 H 0.2074 0.4862 0.1501
C21_2 C 0.1770(4) 0.3452(3) 0.2268(3)
C22_2 C 0.1989(4) 0.2869(3) 0.1398(3)
H11_2 H 0.2179 0.3195 0.0726
C23_2 C 0.1927(4) 0.1839(3) 0.1520(3)
H12_2 H 0.2074 0.1449 0.0927
C24_2 C 0.1637(3) 0.6234(3) 0.2913(3)
Co4 Co 0.19486(4) 0.81682(3) 0.17002(3)
Co6 Co 0.12776(4) 0.82552(3) 0.38169(3)
O1_2 O 0.0234(2) 0.82539(19) 0.22994(19)
O5_2 O 0.1822(2) 0.97140(17) 0.17849(17)
O6_2 O 0.1345(2) 0.97822(17) 0.35051(16)
N1_2 N 0.1829(3) 0.8175(2) 0.0255(2)
H13_2 H 0.0791 0.9457 0.0411
H16_2 H 0.2251 0.6733 0.0006
O9 O 0.2981(2) 0.81093(19) 0.3179(2)
O10 O 0.3575(2) 0.8085(2) 0.1464(2)
N3 N 0.1334(3) 0.8240(2) 0.5286(2)
C25_2 C 0.1147(7) 0.8917(5) 0.9959(5)
C26_2 C 0.0959(6) 0.8911(5) 0.9033(5)
H14_2 H 0.0421 0.9389 0.8882
C27_2 C 0.1587(4) 0.8172(3) 0.8307(3)
C28_2 C 0.1929(4) 0.7333(3) 0.8742(3)
H15_2 H 0.2110 0.6708 0.8391
C29_2 C 0.2024(5) 0.7361(3) 0.9711(3)
C30_2 C 0.1489(4) 0.8195(3) 0.7266(3)
C31_2 C 0.1264(4) 0.9070(3) 0.6770(3)
H17_2 H 0.1149 0.9703 0.7100
C32_2 C 0.1196(3) 0.9070(3) 0.5790(3)
H18_2 H 0.1041 0.9710 0.5467
C33_2 C 0.1792(10) 0.7431(7) 0.5653(6)
H19_2 H 0.2043 0.6848 0.5239
C34_2 C 0.1933(10) 0.7375(7) 0.6612(7)
H20_2 H 0.2323 0.6791 0.6822
O2_2 O 0.9646(2) 0.83744(17) 0.40143(17)
C1_2 C 0.9481(3) 0.8308(3) 0.3172(3)
C2_2 C 0.8336(3) 0.8288(3) 0.3188(3)
C3_2 C 0.8121(3) 0.8134(3) 0.2311(3)
H1_2 H 0.8723 0.8034 0.1689
C4_2 C 0.7038(3) 0.8117(3) 0.2287(3)
C5_2 C 0.6840(3) 0.7936(3) 0.1386(3)
H2_2 H 0.7438 0.7816 0.0765
C6_2 C 0.5791(4) 0.7934(3) 0.1399(3)
H3_2 H 0.5663 0.7828 0.0776
C7_2 C 0.4878(3) 0.8084(3) 0.2314(3)
C8_2 C 0.5101(3) 0.8237(3) 0.3190(3)
H4_2 H 0.4499 0.8324 0.3814
C9_2 C 0.6157(3) 0.8273(3) 0.3220(3)
C10_2 C 0.6395(3) 0.8425(3) 0.4124(3)
H5_2 H 0.5806 0.8512 0.4758
C11_2 C 0.7450(3) 0.8451(3) 0.4110(3)
H6_2 H 0.7587 0.8578 0.4724
C12_2 C 0.3733(4) 0.8093(3) 0.2327(3)
loop_
_geom_bond_atom_site_label_1
_geom_bond_atom_site_label_2
_geom_bond_site_symmetry_1
_geom_bond_site_symmetry_2
O2 C1 1_555 1_555
O3 C12 1_555 1_555
O4 C12 1_555 1_555
C1 C2 1_555 1_555
C2 C3 1_555 1_555
C3 H1 1_555 1_555
C4 C3 1_555 1_555
C5 C4 1_555 1_555
H2 C5 1_555 1_555
C6 C5 1_555 1_555
H3 C6 1_555 1_555
C7 C6 1_555 1_555
C8 C7 1_555 1_555
H4 C8 1_555 1_555
C9 C4 1_555 1_555
C10 C9 1_555 1_555
H5 C10 1_555 1_555
C11 C2 1_555 1_555
H6 C11 1_555 1_555
C12 C7 1_555 1_555
Co3 O4 1_555 1_555
Co5 O3 1_555 1_555
C8 C9 1_555 1_555
C10 C11 1_555 1_555
N2 C32 1_555 1_555
C26 C25 1_555 1_555
H14 C26 1_555 1_555
C27 C26 1_555 1_555
C28 C27 1_555 1_555
H15 C28 1_555 1_555
C30 C27 1_555 1_555
C31 C30 1_555 1_555
H17 C31 1_555 1_555
C32 C31 1_555 1_555
H18 C32 1_555 1_555
C33 N2 1_555 1_555
H19 C33 1_555 1_555
C34 C30 1_555 1_555
H20 C34 1_555 1_555
Co5 N2 1_555 1_555
C28 C29 1_555 1_555
C33 C34 1_555 1_555
Co3 O1 1_555 1_555
O5 Co3 1_555 1_555
O6 Co5 1_555 1_555
N1 Co3 1_555 1_555
O11 Co5 1_555 1_555
O12 Co3 1_555 1_555
O11 C24 1_555 1_555
O12 C24 1_555 1_555
C14 C13 1_555 1_555
C15 C14 1_555 1_555
H7 C15 1_555 1_555
C16 C15 1_555 1_555
C17 C16 1_555 1_555
H8 C17 1_555 1_555
C18 C17 1_555 1_555
H9 C18 1_555 1_555
C19 C18 1_555 1_555
C20 C19 1_555 1_555
H10 C20 1_555 1_555
C21 C16 1_555 1_555
C22 C21 1_555 1_555
H11 C22 1_555 1_555
C23 C14 1_555 1_555
H12 C23 1_555 1_555
C24 C19 1_555 1_555
C20 C21 1_555 1_555
C22 C23 1_555 1_555
O7 C24_2 1_555 1_555
O8 C24_2 1_555 1_555
C14_2 C13_2 1_555 1_555
C15_2 C14_2 1_555 1_555
H7_2 C15_2 1_555 1_555
C16_2 C15_2 1_555 1_555
C17_2 C16_2 1_555 1_555
H8_2 C17_2 1_555 1_555
C18_2 C17_2 1_555 1_555
H9_2 C18_2 1_555 1_555
C19_2 C18_2 1_555 1_555
C20_2 C19_2 1_555 1_555
H10_2 C20_2 1_555 1_555
C21_2 C16_2 1_555 1_555
C22_2 C21_2 1_555 1_555
H11_2 C22_2 1_555 1_555
C23_2 C14_2 1_555 1_555
H12_2 C23_2 1_555 1_555
C24_2 C19_2 1_555 1_555
Co4 O8 1_555 1_555
Co6 O7 1_555 1_555
C20_2 C21_2 1_555 1_555
C22_2 C23_2 1_555 1_555
Co4 O1_2 1_555 1_555
O5_2 Co4 1_555 1_555
O6_2 Co6 1_555 1_555
N1_2 Co4 1_555 1_555
O9 Co6 1_555 1_555
O10 Co4 1_555 1_555
N3 Co6 1_555 1_555
N3 C32_2 1_555 1_555
C26_2 C25_2 1_555 1_555
H14_2 C26_2 1_555 1_555
C27_2 C26_2 1_555 1_555
C28_2 C27_2 1_555 1_555
H15_2 C28_2 1_555 1_555
C30_2 C27_2 1_555 1_555
C31_2 C30_2 1_555 1_555
H17_2 C31_2 1_555 1_555
C32_2 C31_2 1_555 1_555
H18_2 C32_2 1_555 1_555
C33_2 N3 1_555 1_555
H19_2 C33_2 1_555 1_555
C34_2 C30_2 1_555 1_555
H20_2 C34_2 1_555 1_555
C28_2 C29_2 1_555 1_555
C33_2 C34_2 1_555 1_555
O2_2 C1_2 1_555 1_555
O9 C12_2 1_555 1_555
O10 C12_2 1_555 1_555
C1_2 C2_2 1_555 1_555
C2_2 C3_2 1_555 1_555
C3_2 H1_2 1_555 1_555
C4_2 C3_2 1_555 1_555
C5_2 C4_2 1_555 1_555
H2_2 C5_2 1_555 1_555
C6_2 C5_2 1_555 1_555
H3_2 C6_2 1_555 1_555
C7_2 C6_2 1_555 1_555
C8_2 C7_2 1_555 1_555
H4_2 C8_2 1_555 1_555
C9_2 C4_2 1_555 1_555
C10_2 C9_2 1_555 1_555
H5_2 C10_2 1_555 1_555
C11_2 C2_2 1_555 1_555
H6_2 C11_2 1_555 1_555
C12_2 C7_2 1_555 1_555
C8_2 C9_2 1_555 1_555
C10_2 C11_2 1_555 1_555

#END
