
###############################################################################
#
# This file contains modified crystal structure data generated from the
# MOF subset of the Cambridge Structural Database (CSD) v543 
# hosted by the Cambridge Crystallographic Data Centre (CCDC).
#
# This work is licensed under the Creative Commons
# Attribution-NonCommercial-ShareAlike 4.0 International License.
# To view a copy of this license, visit
# http://creativecommons.org/licenses/by-nc-sa/4.0/
# or send a letter to
# Creative Commons, PO Box 1866, Mountain View, CA 94042, USA.
#
# CIF created using the CSD Python API on 29 September 2022
# The structure has been converted into the P1 space group
# The structure has a 3D framework
# The original CSD entry TISGUY is in the monoclinic crystal system
# The framework has been calculated to contain at least 10.0% void space
# The void calculation uses a probe of radius 1.32A, grid spacing 0.4
#
###############################################################################

data_TISGUY
_chemical_formula_moiety         '(C144 H128 N16 Ni8 O48)n'
_symmetry_cell_setting           triclinic
_symmetry_space_group_name_H-M   'P 1'
_symmetry_Int_Tables_number      1
_space_group_name_Hall           'P 1'
loop_
_symmetry_equiv_pos_site_id
_symmetry_equiv_pos_as_xyz
1 x,y,z
_cell_length_a                   14.8904(12)
_cell_length_b                   28.226(2)
_cell_length_c                   9.9562(9)
_cell_angle_alpha                90
_cell_angle_beta                 106.306(2)
_cell_angle_gamma                90
_cell_volume                     4016.24
loop_
_atom_site_label
_atom_site_type_symbol
_atom_site_fract_x
_atom_site_fract_y
_atom_site_fract_z
C19 C 0.0062(4) 0.67336(19) 0.5060(7)
H19 H 0.0710 0.6808 0.5360
Ni2 Ni 0.51089(4) 0.66437(2) 0.23384(7)
O3 O 0.3666(2) 0.66377(11) 0.1753(4)
O4 O 0.3580(3) 0.59277(14) 0.0779(5)
O5 O 0.6571(2) 0.66728(12) 0.2921(4)
O6 O 0.6900(3) 0.61175(17) 0.4584(5)
H3 H 0.267(3) 0.4944(19) 0.059(3)
H4 H 0.286(4) 0.5402(8) 0.026(5)
O11 O 0.5196(3) 0.62270(13) 0.0677(4)
H5 H 0.473(2) 0.6041(13) 0.050(4)
H6 H 0.570(2) 0.6064(16) 0.095(4)
O12 O 0.5113(3) 0.60594(13) 0.3621(4)
H7 H 0.478(3) 0.5850(8) 0.3078(19)
H8 H 0.5706(17) 0.5954(11) 0.365(3)
N3 N 0.5088(3) 0.70984(14) 0.3980(4)
N4 N 0.5114(3) 0.72268(14) 0.1022(4)
C8 C 0.1484(3) 0.64657(17) 0.0308(6)
C9 C 0.0577(4) 0.6407(2) 0.0423(6)
C10 C 0.0411(4) 0.6100(2) 0.1429(7)
C11 C 0.1137(5) 0.5870(2) 0.2332(7)
H15 H 0.1017 0.5665 0.3019
C12 C 0.2032(4) 0.5928(2) 0.2271(6)
H16 H 0.2529 0.5764 0.2909
C13 C 0.2216(3) 0.62276(16) 0.1278(5)
C14 C 0.3221(4) 0.62722(17) 0.1268(6)
C15 C 0.7135(4) 0.64231(19) 0.3837(6)
C16 C 0.8165(4) 0.65164(17) 0.4149(6)
C17 C 0.8674(4) 0.64845(19) 0.5560(6)
H17 H 0.8361 0.6385 0.6222
C18 C 0.9614(4) 0.6592(2) 0.6024(7)
H18 H 0.9944 0.6570 0.6989
C20 C 0.9579(4) 0.67685(18) 0.3651(6)
H20 H 0.9902 0.6867 0.3002
C21 C 0.8624(4) 0.66615(16) 0.3171(6)
C22 C 0.8187(3) 0.67165(17) 0.1627(6)
C23 C 0.8343(4) 0.71386(18) 0.0982(7)
H21 H 0.8682 0.7387 0.1544
C27 C 0.7672(3) 0.63586(17) 0.0770(6)
C29 C 0.0826(3) 0.47897(16) 0.0437(5)
H25 H 0.1412 0.4634 0.0784
C33 C 0.4426(3) 0.71114(18) 0.4654(6)
H29 H 0.3938 0.6883 0.4434
C34 C 0.4437(4) 0.75523(18) 0.0654(6)
H30 H 0.3950 0.7551 0.1098
C35 C 0.5786(4) 0.72490(19) 0.0376(6)
H31 H 0.6291 0.7030 0.0628
C36 C 0.5767(4) 0.74208(18) 0.4358(6)
H32 H 0.6252 0.7422 0.3909
Ni3 Ni 0.82913(4) 0.49040(2) 0.18217(7)
Ni7 Ni 0.51089(4) 0.83563(2) 0.73384(7)
O20 O 0.8263(2) 0.56275(11) 0.1690(4)
O22 O 0.6739(3) 0.57228(14) 0.1188(8)
N11 N 0.5114(3) 0.77732(14) 0.6022(4)
C60 C 0.1980(4) 0.2799(2) 0.0428(7)
H54 H 0.1855 0.2510 0.0834
C61 C 0.2487(4) 0.3151(2) 0.1276(7)
H55 H 0.2707 0.3107 0.2260
C62 C 0.2671(4) 0.35703(19) 0.0673(6)
H56 H 0.3032 0.3811 0.1246
C64 C 0.7533(3) 0.58696(17) 0.1291(6)
C66 C 0.0147(3) 0.47261(17) 0.1124(5)
H58 H 0.0277 0.4526 0.1923
C70 C 0.4437(4) 0.74477(18) 0.5654(6)
H62 H 0.3950 0.7449 0.6098
C71 C 0.5786(4) 0.77510(19) 0.5376(6)
H63 H 0.6291 0.7970 0.5628
Ni1 Ni 0.17087(4) 0.50960(2) 0.81783(7)
O1 O 0.1655(2) 0.58254(11) 0.8152(4)
O2 O 0.2867(3) 0.60098(14) 0.7368(5)
O7 O 0.1737(2) 0.43725(11) 0.8310(4)
O8 O 0.3261(3) 0.42772(14) 0.8812(8)
O9 O 0.2662(3) 0.51013(13) 0.6981(4)
H1 H 0.308(3) 0.4914(17) 0.739(5)
H2 H 0.284(3) 0.5384(8) 0.700(5)
O10 O 0.2776(2) 0.51174(13) 0.9970(4)
N1 N 0.0687(3) 0.50614(13) 0.9307(4)
N2 N 0.0666(3) 0.50369(14) 0.6288(4)
C1 C 0.2241(4) 0.61132(18) 0.7928(6)
C2 C 0.2135(4) 0.66309(17) 0.8263(6)
C3 C 0.2455(4) 0.69678(19) 0.7459(6)
H9 H 0.2772 0.6865 0.6806
C4 C 0.2314(4) 0.7448(2) 0.7610(6)
H10 H 0.2562 0.7673 0.7104
C5 C 0.1808(4) 0.75948(19) 0.8502(6)
H11 H 0.1666 0.7921 0.8560
C6 C 0.1509(4) 0.72670(19) 0.9312(6)
H12 H 0.1161 0.7373 0.9923
C7 C 0.1702(3) 0.67854(17) 0.9256(5)
H13 H 0.0073 0.6576 0.9817
C24 C 0.8020(4) 0.7201(2) 0.9572(7)
H22 H 0.8145 0.7490 0.9166
C25 C 0.7513(4) 0.6849(2) 0.8724(7)
H23 H 0.7293 0.6893 0.7740
C26 C 0.7329(4) 0.64297(19) 0.9327(6)
H24 H 0.6968 0.6189 0.8754
C28 C 0.2467(3) 0.41304(17) 0.8709(6)
C31 C 0.0304(3) 0.54174(16) 0.5547(5)
H27 H 0.0507 0.5722 0.5911
C32 C 0.0358(4) 0.46162(16) 0.5735(5)
H28 H 0.0598 0.4335 0.6233
Ni6 Ni 0.48911(4) 0.33563(2) 0.76616(7)
O15 O 0.6334(2) 0.33623(11) 0.8247(4)
O18 O 0.3429(2) 0.33272(12) 0.7079(4)
O19 O 0.3100(3) 0.38825(17) 0.5416(5)
O25 O 0.4804(3) 0.37730(13) 0.9323(4)
H37 H 0.527(2) 0.3959(13) 0.950(4)
H38 H 0.430(2) 0.3936(16) 0.905(4)
O26 O 0.4887(3) 0.39406(13) 0.6379(4)
H39 H 0.522(3) 0.4150(8) 0.6922(19)
H40 H 0.4294(17) 0.4046(11) 0.635(3)
N8 N 0.4912(3) 0.29016(14) 0.6020(4)
N9 N 0.5088(3) 0.79016(14) 0.8980(4)
N10 N 0.4886(3) 0.27732(14) 0.8978(4)
H46 H 0.0210 0.3949 0.8519
C51 C 0.2865(4) 0.35769(19) 0.6163(6)
C52 C 0.1835(4) 0.34836(17) 0.5851(6)
C53 C 0.1326(4) 0.35155(19) 0.4440(6)
H49 H 0.1639 0.3615 0.3778
C54 C 0.0386(4) 0.3408(2) 0.3976(7)
H50 H 0.0056 0.3430 0.3011
C56 C 0.0421(4) 0.32315(18) 0.6349(6)
H52 H 0.0098 0.3133 0.6998
C57 C 0.1376(4) 0.33385(16) 0.6829(6)
C58 C 0.1813(3) 0.32835(17) 0.8373(6)
C59 C 0.1657(4) 0.28614(18) 0.9018(7)
H53 H 0.1318 0.2613 0.8456
C63 C 0.2328(3) 0.36414(17) 0.9230(6)
C69 C 0.4426(3) 0.78886(18) 0.9654(6)
H61 H 0.3938 0.8117 0.9434
C72 C 0.5767(4) 0.75792(18) 0.9358(6)
H64 H 0.6252 0.7578 0.8909
H14 H 0.9790 0.6051 0.1481
O13 O 0.8345(2) 0.41746(11) 0.1848(4)
O14 O 0.7133(3) 0.39902(14) 0.2632(5)
O23 O 0.7338(3) 0.48987(13) 0.3019(4)
H33 H 0.692(3) 0.5086(17) 0.261(5)
H34 H 0.716(3) 0.4616(8) 0.300(5)
O24 O 0.7224(2) 0.48826(13) 0.0030(4)
N5 N 0.9313(3) 0.49386(13) 0.0693(4)
N6 N 0.9334(3) 0.49631(14) 0.3712(4)
C37 C 0.7759(4) 0.38868(18) 0.2072(6)
C38 C 0.7865(4) 0.33691(17) 0.1737(6)
C39 C 0.7545(4) 0.30322(19) 0.2541(6)
H41 H 0.7228 0.3135 0.3194
C40 C 0.7686(4) 0.2552(2) 0.2390(6)
H42 H 0.7438 0.2327 0.2896
C41 C 0.8192(4) 0.24052(19) 0.1498(6)
H43 H 0.8334 0.2079 0.1440
C42 C 0.8491(4) 0.27330(19) 0.0688(6)
H44 H 0.8839 0.2627 0.0077
C43 C 0.8298(3) 0.32146(17) 0.0744(5)
H45 H 0.9927 0.3424 0.0183
C30 C 0.9853(3) 0.52739(17) 0.8876(5)
H26 H 0.9723 0.5474 0.8077
O17 O 0.6420(3) 0.40723(14) 0.9221(5)
H35 H 0.733(3) 0.5056(19) 0.941(3)
H36 H 0.714(4) 0.4598(8) 0.974(5)
C44 C 0.8516(3) 0.35343(17) 0.9692(6)
C45 C 0.9423(4) 0.3593(2) 0.9577(6)
C46 C 0.9589(4) 0.3900(2) 0.8571(7)
C47 C 0.8863(5) 0.4130(2) 0.7668(7)
H47 H 0.8983 0.4335 0.6981
C48 C 0.7968(4) 0.4072(2) 0.7729(6)
H48 H 0.7471 0.4236 0.7091
C49 C 0.7784(3) 0.37724(16) 0.8722(5)
C50 C 0.6779(4) 0.37278(17) 0.8732(6)
C55 C 0.9938(4) 0.32664(19) 0.4940(7)
H51 H 0.9290 0.3192 0.4640
C65 C 0.9174(3) 0.52103(16) 0.9563(5)
H57 H 0.8588 0.5366 0.9216
C67 C 0.9696(3) 0.45826(16) 0.4453(5)
H59 H 0.9493 0.4278 0.4089
C68 C 0.9642(4) 0.53838(16) 0.4265(5)
H60 H 0.9402 0.5665 0.3767
C68_2 C 0.0358(4) 0.03838(16) 0.0735(5)
H60_2 H 0.0598 0.0665 0.1233
H14_2 H 0.0210 0.1051 0.3519
C30_2 C 0.0147(3) 0.02739(17) 0.6124(5)
H26_2 H 0.0277 0.0474 0.6923
O21 O 0.1737(2) 0.06275(11) 0.3310(4)
H33_2 H 0.308(3) 0.0086(17) 0.239(5)
H35_2 H 0.267(3) 0.0056(19) 0.559(3)
C65_2 C 0.0826(3) 0.02103(16) 0.5437(5)
H57_2 H 0.1412 0.0366 0.5784
Ni5 Ni 0.17087(4) 0.99040(2) 0.31783(7)
N7 N 0.0666(3) 0.99631(14) 0.1288(4)
C55_2 C 0.0062(4) 0.82664(19) 0.0060(7)
H51_2 H 0.0710 0.8192 0.0360
C67_2 C 0.0304(3) 0.95826(16) 0.0547(5)
H59_2 H 0.0507 0.9278 0.0911
O13_2 O 0.1655(2) 0.91746(11) 0.3152(4)
O14_2 O 0.2867(3) 0.89902(14) 0.2368(5)
O16 O 0.3666(2) 0.83623(11) 0.6753(4)
O17_2 O 0.3580(3) 0.90723(14) 0.5779(5)
O23_2 O 0.2662(3) 0.98987(13) 0.1981(4)
H34_2 H 0.284(3) 0.9616(8) 0.200(5)
O24_2 O 0.2776(2) 0.98826(13) 0.4970(4)
H36_2 H 0.286(4) 0.9598(8) 0.526(5)
N5_2 N 0.0687(3) 0.99386(13) 0.4307(4)
C37_2 C 0.2241(4) 0.88868(18) 0.2928(6)
C38_2 C 0.2135(4) 0.83691(17) 0.3263(6)
C39_2 C 0.2455(4) 0.80322(19) 0.2459(6)
H41_2 H 0.2772 0.8135 0.1806
C40_2 C 0.2314(4) 0.7552(2) 0.2610(6)
H42_2 H 0.2562 0.7327 0.2104
C41_2 C 0.1808(4) 0.74052(19) 0.3502(6)
H43_2 H 0.1666 0.7079 0.3560
C42_2 C 0.1509(4) 0.77330(19) 0.4312(6)
H44_2 H 0.1161 0.7627 0.4923
C43_2 C 0.1702(3) 0.82146(17) 0.4256(5)
C44_2 C 0.1484(3) 0.85343(17) 0.5308(6)
C45_2 C 0.0577(4) 0.8593(2) 0.5423(6)
H45_2 H 0.0073 0.8424 0.4817
C46_2 C 0.0411(4) 0.8900(2) 0.6429(7)
C47_2 C 0.1137(5) 0.9130(2) 0.7332(7)
H47_2 H 0.1017 0.9335 0.8019
C48_2 C 0.2032(4) 0.9072(2) 0.7271(6)
H48_2 H 0.2529 0.9236 0.7909
C49_2 C 0.2216(3) 0.87724(16) 0.6278(5)
C50_2 C 0.3221(4) 0.87278(17) 0.6268(6)
Ni1_2 Ni 0.82913(4) 0.00960(2) 0.68217(7)
Ni2_2 Ni 0.48911(4) 0.16437(2) 0.26616(7)
O1_2 O 0.8345(2) 0.08254(11) 0.6848(4)
O2_2 O 0.7133(3) 0.10098(14) 0.7632(5)
O3_2 O 0.6334(2) 0.16377(11) 0.3247(4)
O4_2 O 0.6420(3) 0.09277(14) 0.4221(5)
O5_2 O 0.3429(2) 0.16728(12) 0.2079(4)
O6_2 O 0.3100(3) 0.11175(17) 0.0416(5)
O9_2 O 0.7338(3) 0.01013(13) 0.8019(4)
H2_2 H 0.716(3) 0.0384(8) 0.800(5)
O10_2 O 0.7224(2) 0.01174(13) 0.5030(4)
H4_2 H 0.714(4) 0.0402(8) 0.474(5)
O11_2 O 0.4804(3) 0.12270(13) 0.4323(4)
H5_2 H 0.527(2) 0.1041(13) 0.450(4)
H6_2 H 0.430(2) 0.1064(16) 0.405(4)
O12_2 O 0.4887(3) 0.10594(13) 0.1379(4)
H7_2 H 0.522(3) 0.0850(8) 0.1922(19)
H8_2 H 0.4294(17) 0.0954(11) 0.135(3)
N1_2 N 0.9313(3) 0.00614(13) 0.5693(4)
N2_2 N 0.9334(3) 0.00369(14) 0.8712(4)
N3_2 N 0.4912(3) 0.20984(14) 0.1020(4)
N4_2 N 0.4886(3) 0.22268(14) 0.3978(4)
C1_2 C 0.7759(4) 0.11132(18) 0.7072(6)
C2_2 C 0.7865(4) 0.16309(17) 0.6737(6)
C3_2 C 0.7545(4) 0.19678(19) 0.7541(6)
H9_2 H 0.7228 0.1865 0.8194
C4_2 C 0.7686(4) 0.2448(2) 0.7390(6)
H10_2 H 0.7438 0.2673 0.7896
C5_2 C 0.8192(4) 0.25948(19) 0.6498(6)
H11_2 H 0.8334 0.2921 0.6440
C6_2 C 0.8491(4) 0.22670(19) 0.5688(6)
H12_2 H 0.8839 0.2373 0.5077
C7_2 C 0.8298(3) 0.17854(17) 0.5744(5)
C8_2 C 0.8516(3) 0.14657(17) 0.4692(6)
C9_2 C 0.9423(4) 0.1407(2) 0.4577(6)
H13_2 H 0.9927 0.1576 0.5183
C10_2 C 0.9589(4) 0.1100(2) 0.3571(7)
C11_2 C 0.8863(5) 0.0870(2) 0.2668(7)
H15_2 H 0.8983 0.0665 0.1981
C12_2 C 0.7968(4) 0.0928(2) 0.2729(6)
H16_2 H 0.7471 0.0764 0.2091
C13_2 C 0.7784(3) 0.12276(16) 0.3722(5)
C14_2 C 0.6779(4) 0.12722(17) 0.3732(6)
C15_2 C 0.2865(4) 0.14231(19) 0.1163(6)
C16_2 C 0.1835(4) 0.15164(17) 0.0851(6)
C20_2 C 0.0421(4) 0.17685(18) 0.1349(6)
H20_2 H 0.0098 0.1867 0.1998
C21_2 C 0.1376(4) 0.16615(16) 0.1829(6)
C22_2 C 0.1813(3) 0.17165(17) 0.3373(6)
C23_2 C 0.1657(4) 0.21386(18) 0.4018(7)
H21_2 H 0.1318 0.2387 0.3456
C24_2 C 0.1980(4) 0.2201(2) 0.5428(7)
H22_2 H 0.1855 0.2490 0.5834
C25_2 C 0.2487(4) 0.1849(2) 0.6276(7)
H23_2 H 0.2707 0.1893 0.7260
C26_2 C 0.2671(4) 0.14297(19) 0.5673(6)
H24_2 H 0.3032 0.1189 0.6246
C27_2 C 0.2328(3) 0.13586(17) 0.4230(6)
C31_2 C 0.9696(3) 0.04174(16) 0.9453(5)
H27_2 H 0.9493 0.0722 0.9089
C33_2 C 0.5574(3) 0.21114(18) 0.0346(6)
H29_2 H 0.6062 0.1883 0.0566
C34_2 C 0.5563(4) 0.25523(18) 0.4346(6)
H30_2 H 0.6050 0.2551 0.3902
C35_2 C 0.4214(4) 0.22490(19) 0.4624(6)
H31_2 H 0.3709 0.2030 0.4372
C36_2 C 0.4233(4) 0.24208(18) 0.0642(6)
H32_2 H 0.3748 0.2422 0.1091
O22_2 O 0.3261(3) 0.07228(14) 0.3812(8)
C64_2 C 0.2467(3) 0.08696(17) 0.3709(6)
C69_2 C 0.5574(3) 0.28886(18) 0.5346(6)
H61_2 H 0.6062 0.3117 0.5566
C72_2 C 0.4233(4) 0.25792(18) 0.5642(6)
H64_2 H 0.3748 0.2578 0.6091
C17_2 C 0.1326(4) 0.14845(19) 0.9440(6)
H17_2 H 0.1639 0.1385 0.8778
C18_2 C 0.0386(4) 0.1592(2) 0.8976(7)
H18_2 H 0.0056 0.1570 0.8011
C70_2 C 0.5563(4) 0.24477(18) 0.9346(6)
H62_2 H 0.6050 0.2449 0.8902
C71_2 C 0.4214(4) 0.27510(19) 0.9624(6)
H63_2 H 0.3709 0.2970 0.9372
C53_2 C 0.8674(4) 0.85155(19) 0.0560(6)
H49_2 H 0.8361 0.8615 0.1222
C54_2 C 0.9614(4) 0.8408(2) 0.1024(7)
H50_2 H 0.9944 0.8430 0.1989
O7_2 O 0.8263(2) 0.93725(11) 0.6690(4)
O8_2 O 0.6739(3) 0.92772(14) 0.6188(8)
H1_2 H 0.692(3) 0.9914(17) 0.761(5)
H3_2 H 0.733(3) 0.9944(19) 0.441(3)
C28_2 C 0.7533(3) 0.91304(17) 0.6291(6)
C29_2 C 0.9174(3) 0.97897(16) 0.4563(5)
H25_2 H 0.8588 0.9634 0.4216
C32_2 C 0.9642(4) 0.96162(16) 0.9265(5)
H28_2 H 0.9402 0.9335 0.8767
O18_2 O 0.6571(2) 0.83272(12) 0.7921(4)
O19_2 O 0.6900(3) 0.88825(17) 0.9584(5)
O25_2 O 0.5196(3) 0.87730(13) 0.5677(4)
H37_2 H 0.473(2) 0.8959(13) 0.550(4)
H38_2 H 0.570(2) 0.8936(16) 0.595(4)
O26_2 O 0.5113(3) 0.89406(13) 0.8621(4)
H39_2 H 0.478(3) 0.9150(8) 0.8078(19)
H40_2 H 0.5706(17) 0.9046(11) 0.865(3)
H46_2 H 0.9790 0.8949 0.6481
C51_2 C 0.7135(4) 0.85769(19) 0.8837(6)
C52_2 C 0.8165(4) 0.84836(17) 0.9149(6)
C56_2 C 0.9579(4) 0.82315(18) 0.8651(6)
H52_2 H 0.9902 0.8133 0.8002
C57_2 C 0.8624(4) 0.83385(16) 0.8171(6)
C58_2 C 0.8187(3) 0.82835(17) 0.6627(6)
C59_2 C 0.8343(4) 0.78614(18) 0.5982(7)
H53_2 H 0.8682 0.7613 0.6544
C60_2 C 0.8020(4) 0.7799(2) 0.4572(7)
H54_2 H 0.8145 0.7510 0.4166
C61_2 C 0.7513(4) 0.8151(2) 0.3724(7)
H55_2 H 0.7293 0.8107 0.2740
C62_2 C 0.7329(4) 0.85703(19) 0.4327(6)
H56_2 H 0.6968 0.8811 0.3754
C63_2 C 0.7672(3) 0.86414(17) 0.5770(6)
C66_2 C 0.9853(3) 0.97261(17) 0.3876(5)
H58_2 H 0.9723 0.9526 0.3077
C19_2 C 0.9938(4) 0.17336(19) 0.9940(7)
H19_2 H 0.9290 0.1808 0.9640
loop_
_geom_bond_atom_site_label_1
_geom_bond_atom_site_label_2
_geom_bond_site_symmetry_1
_geom_bond_site_symmetry_2
H19 C19 1_555 1_555
Ni2 O3 1_555 1_555
O3 C14 1_555 1_555
O4 C14 1_555 1_555
O5 Ni2 1_555 1_555
O6 C15 1_555 1_555
O11 Ni2 1_555 1_555
H5 O11 1_555 1_555
H6 O11 1_555 1_555
O12 Ni2 1_555 1_555
H7 O12 1_555 1_555
H8 O12 1_555 1_555
N3 Ni2 1_555 1_555
N4 Ni2 1_555 1_555
C9 C8 1_555 1_555
C10 C9 1_555 1_555
C11 C10 1_555 1_555
H15 C11 1_555 1_555
C12 C11 1_555 1_555
H16 C12 1_555 1_555
C13 C8 1_555 1_555
C14 C13 1_555 1_555
C15 O5 1_555 1_555
C16 C15 1_555 1_555
C17 C16 1_555 1_555
H17 C17 1_555 1_555
C18 C17 1_555 1_555
H18 C18 1_555 1_555
H20 C20 1_555 1_555
C21 C16 1_555 1_555
C22 C21 1_555 1_555
C23 C22 1_555 1_555
H21 C23 1_555 1_555
C27 C22 1_555 1_555
H25 C29 1_555 1_555
C33 N3 1_555 1_555
H29 C33 1_555 1_555
C34 N4 1_555 1_555
H30 C34 1_555 1_555
C35 N4 1_555 1_555
H31 C35 1_555 1_555
C36 N3 1_555 1_555
H32 C36 1_555 1_555
Ni3 O20 1_555 1_555
Ni7 N11 1_555 1_555
O20 C64 1_555 1_555
O22 C64 1_555 1_555
N11 C70 1_555 1_555
H54 C60 1_555 1_555
C61 C60 1_555 1_555
H55 C61 1_555 1_555
C62 C61 1_555 1_555
H56 C62 1_555 1_555
C64 C27 1_555 1_555
C66 C29 1_555 1_555
H58 C66 1_555 1_555
C70 C33 1_555 1_555
H62 C70 1_555 1_555
C71 C36 1_555 1_555
H63 C71 1_555 1_555
C12 C13 1_555 1_555
C20 C21 1_555 1_555
N11 C71 1_555 1_555
Ni1 O1 1_555 1_555
O1 C1 1_555 1_555
O2 C1 1_555 1_555
O7 Ni1 1_555 1_555
O8 C28 1_555 1_555
O9 Ni1 1_555 1_555
H1 O9 1_555 1_555
H2 O9 1_555 1_555
O10 Ni1 1_555 1_555
N1 Ni1 1_555 1_555
N2 Ni1 1_555 1_555
C1 C2 1_555 1_555
C2 C3 1_555 1_555
C3 H9 1_555 1_555
C4 C3 1_555 1_555
H10 C4 1_555 1_555
C5 C4 1_555 1_555
H11 C5 1_555 1_555
C6 C5 1_555 1_555
H12 C6 1_555 1_555
C7 C2 1_555 1_555
H22 C24 1_555 1_555
C25 C24 1_555 1_555
H23 C25 1_555 1_555
C26 C25 1_555 1_555
H24 C26 1_555 1_555
C28 O7 1_555 1_555
C31 N2 1_555 1_555
H27 C31 1_555 1_555
C32 N2 1_555 1_555
H28 C32 1_555 1_555
Ni6 O15 1_555 1_555
Ni7 N9 1_555 1_555
O18 Ni6 1_555 1_555
O19 C51 1_555 1_555
O25 Ni6 1_555 1_555
H37 O25 1_555 1_555
H38 O25 1_555 1_555
O26 Ni6 1_555 1_555
H39 O26 1_555 1_555
H40 O26 1_555 1_555
N8 Ni6 1_555 1_555
N9 C69 1_555 1_555
N10 Ni6 1_555 1_555
C51 O18 1_555 1_555
C52 C51 1_555 1_555
C53 C52 1_555 1_555
H49 C53 1_555 1_555
C54 C53 1_555 1_555
H50 C54 1_555 1_555
H52 C56 1_555 1_555
C57 C52 1_555 1_555
C58 C57 1_555 1_555
C59 C58 1_555 1_555
H53 C59 1_555 1_555
C63 C28 1_555 1_555
H61 C69 1_555 1_555
H64 C72 1_555 1_555
C6 C7 1_555 1_555
N9 C72 1_555 1_555
C56 C57 1_555 1_555
C58 C63 1_555 1_555
Ni3 O13 1_555 1_555
O13 C37 1_555 1_555
O14 C37 1_555 1_555
O23 Ni3 1_555 1_555
H33 O23 1_555 1_555
H34 O23 1_555 1_555
O24 Ni3 1_555 1_555
N5 Ni3 1_555 1_555
N6 Ni3 1_555 1_555
C37 C38 1_555 1_555
C38 C39 1_555 1_555
C39 H41 1_555 1_555
C40 C39 1_555 1_555
H42 C40 1_555 1_555
C41 C40 1_555 1_555
H43 C41 1_555 1_555
C42 C41 1_555 1_555
H44 C42 1_555 1_555
C43 C38 1_555 1_555
C42 C43 1_555 1_555
H26 C30 1_555 1_555
O15 C50 1_555 1_555
O17 C50 1_555 1_555
N6 C67 1_555 1_555
C45 C44 1_555 1_555
C46 C45 1_555 1_555
C47 C46 1_555 1_555
H47 C47 1_555 1_555
C48 C47 1_555 1_555
H48 C48 1_555 1_555
C49 C44 1_555 1_555
C50 C49 1_555 1_555
H51 C55 1_555 1_555
C65 C30 1_555 1_555
H57 C65 1_555 1_555
H59 C67 1_555 1_555
H60 C68 1_555 1_555
N6 C68 1_555 1_555
C48 C49 1_555 1_555
H60_2 C68_2 1_555 1_555
H26_2 C30_2 1_555 1_555
C65_2 C30_2 1_555 1_555
H57_2 C65_2 1_555 1_555
Ni5 N7 1_555 1_555
N7 C67_2 1_555 1_555
H51_2 C55_2 1_555 1_555
H59_2 C67_2 1_555 1_555
Ni5 O13_2 1_555 1_555
Ni7 O16 1_555 1_555
O13_2 C37_2 1_555 1_555
O14_2 C37_2 1_555 1_555
O16 C50_2 1_555 1_555
O17_2 C50_2 1_555 1_555
O23_2 Ni5 1_555 1_555
H34_2 O23_2 1_555 1_555
O24_2 Ni5 1_555 1_555
H36_2 O24_2 1_555 1_555
N5_2 Ni5 1_555 1_555
C37_2 C38_2 1_555 1_555
C38_2 C39_2 1_555 1_555
C39_2 H41_2 1_555 1_555
C40_2 C39_2 1_555 1_555
H42_2 C40_2 1_555 1_555
C41_2 C40_2 1_555 1_555
H43_2 C41_2 1_555 1_555
C42_2 C41_2 1_555 1_555
H44_2 C42_2 1_555 1_555
C43_2 C38_2 1_555 1_555
C44_2 C43_2 1_555 1_555
C45_2 C44_2 1_555 1_555
H45_2 C45_2 1_555 1_555
C46_2 C45_2 1_555 1_555
C47_2 C46_2 1_555 1_555
H47_2 C47_2 1_555 1_555
C48_2 C47_2 1_555 1_555
H48_2 C48_2 1_555 1_555
C49_2 C44_2 1_555 1_555
C50_2 C49_2 1_555 1_555
C42_2 C43_2 1_555 1_555
C48_2 C49_2 1_555 1_555
Ni1_2 O1_2 1_555 1_555
Ni2_2 O3_2 1_555 1_555
O1_2 C1_2 1_555 1_555
O2_2 C1_2 1_555 1_555
O3_2 C14_2 1_555 1_555
O4_2 C14_2 1_555 1_555
O5_2 Ni2_2 1_555 1_555
O6_2 C15_2 1_555 1_555
O9_2 Ni1_2 1_555 1_555
H2_2 O9_2 1_555 1_555
O10_2 Ni1_2 1_555 1_555
H4_2 O10_2 1_555 1_555
O11_2 Ni2_2 1_555 1_555
H5_2 O11_2 1_555 1_555
H6_2 O11_2 1_555 1_555
O12_2 Ni2_2 1_555 1_555
H7_2 O12_2 1_555 1_555
H8_2 O12_2 1_555 1_555
N1_2 Ni1_2 1_555 1_555
N2_2 Ni1_2 1_555 1_555
N3_2 Ni2_2 1_555 1_555
N4_2 Ni2_2 1_555 1_555
C1_2 C2_2 1_555 1_555
C2_2 C3_2 1_555 1_555
C3_2 H9_2 1_555 1_555
C4_2 C3_2 1_555 1_555
H10_2 C4_2 1_555 1_555
C5_2 C4_2 1_555 1_555
H11_2 C5_2 1_555 1_555
C6_2 C5_2 1_555 1_555
H12_2 C6_2 1_555 1_555
C7_2 C2_2 1_555 1_555
C8_2 C7_2 1_555 1_555
C9_2 C8_2 1_555 1_555
H13_2 C9_2 1_555 1_555
C10_2 C9_2 1_555 1_555
C11_2 C10_2 1_555 1_555
H15_2 C11_2 1_555 1_555
C12_2 C11_2 1_555 1_555
H16_2 C12_2 1_555 1_555
C13_2 C8_2 1_555 1_555
C14_2 C13_2 1_555 1_555
C15_2 O5_2 1_555 1_555
C16_2 C15_2 1_555 1_555
H20_2 C20_2 1_555 1_555
C21_2 C16_2 1_555 1_555
C22_2 C21_2 1_555 1_555
C23_2 C22_2 1_555 1_555
H21_2 C23_2 1_555 1_555
C24_2 C23_2 1_555 1_555
H22_2 C24_2 1_555 1_555
C25_2 C24_2 1_555 1_555
H23_2 C25_2 1_555 1_555
C26_2 C25_2 1_555 1_555
H24_2 C26_2 1_555 1_555
C27_2 C22_2 1_555 1_555
C31_2 N2_2 1_555 1_555
H27_2 C31_2 1_555 1_555
C33_2 N3_2 1_555 1_555
H29_2 C33_2 1_555 1_555
C34_2 N4_2 1_555 1_555
H30_2 C34_2 1_555 1_555
C35_2 N4_2 1_555 1_555
H31_2 C35_2 1_555 1_555
C36_2 N3_2 1_555 1_555
H32_2 C36_2 1_555 1_555
O21 C64_2 1_555 1_555
O22_2 C64_2 1_555 1_555
N8 C69_2 1_555 1_555
C64_2 C27_2 1_555 1_555
C69_2 C34_2 1_555 1_555
H61_2 C69_2 1_555 1_555
C72_2 C35_2 1_555 1_555
H64_2 C72_2 1_555 1_555
C6_2 C7_2 1_555 1_555
C12_2 C13_2 1_555 1_555
C20_2 C21_2 1_555 1_555
C26_2 C27_2 1_555 1_555
N8 C72_2 1_555 1_555
H17_2 C17_2 1_555 1_555
C18_2 C17_2 1_555 1_555
H18_2 C18_2 1_555 1_555
N10 C70_2 1_555 1_555
H62_2 C70_2 1_555 1_555
H63_2 C71_2 1_555 1_555
N10 C71_2 1_555 1_555
H49_2 C53_2 1_555 1_555
C54_2 C53_2 1_555 1_555
H50_2 C54_2 1_555 1_555
O8_2 C28_2 1_555 1_555
C28_2 O7_2 1_555 1_555
H25_2 C29_2 1_555 1_555
H28_2 C32_2 1_555 1_555
O18_2 Ni7 1_555 1_555
O19_2 C51_2 1_555 1_555
O25_2 Ni7 1_555 1_555
H37_2 O25_2 1_555 1_555
H38_2 O25_2 1_555 1_555
O26_2 Ni7 1_555 1_555
H39_2 O26_2 1_555 1_555
H40_2 O26_2 1_555 1_555
C51_2 O18_2 1_555 1_555
C52_2 C51_2 1_555 1_555
H52_2 C56_2 1_555 1_555
C57_2 C52_2 1_555 1_555
C58_2 C57_2 1_555 1_555
C59_2 C58_2 1_555 1_555
H53_2 C59_2 1_555 1_555
C60_2 C59_2 1_555 1_555
H54_2 C60_2 1_555 1_555
C61_2 C60_2 1_555 1_555
H55_2 C61_2 1_555 1_555
C62_2 C61_2 1_555 1_555
H56_2 C62_2 1_555 1_555
C63_2 C28_2 1_555 1_555
C66_2 C29_2 1_555 1_555
H58_2 C66_2 1_555 1_555
C56_2 C57_2 1_555 1_555
C58_2 C63_2 1_555 1_555
C62_2 C63_2 1_555 1_555
H19_2 C19_2 1_555 1_555

#END
