
###############################################################################
#
# This file contains modified crystal structure data generated from the
# MOF subset of the Cambridge Structural Database (CSD) v543 
# hosted by the Cambridge Crystallographic Data Centre (CCDC).
#
# This work is licensed under the Creative Commons
# Attribution-NonCommercial-ShareAlike 4.0 International License.
# To view a copy of this license, visit
# http://creativecommons.org/licenses/by-nc-sa/4.0/
# or send a letter to
# Creative Commons, PO Box 1866, Mountain View, CA 94042, USA.
#
# CIF created using the CSD Python API on 29 September 2022
# The structure has been converted into the P1 space group
# The structure has a 3D framework
# The original CSD entry TISHAF is in the rhombohedral crystal system
# The framework has been calculated to contain at least 10.0% void space
# The void calculation uses a probe of radius 1.32A, grid spacing 0.4
#
###############################################################################

data_TISHAF
_chemical_formula_moiety         '(C702 H522 Fe36 N18 O190)n'
_symmetry_cell_setting           triclinic
_symmetry_space_group_name_H-M   'P 1'
_symmetry_Int_Tables_number      1
_space_group_name_Hall           'P 1'
loop_
_symmetry_equiv_pos_site_id
_symmetry_equiv_pos_as_xyz
1 x,y,z
_cell_length_a                   38.2457(15)
_cell_length_b                   38.2457(15)
_cell_length_c                   20.8226(15)
_cell_angle_alpha                90
_cell_angle_beta                 90
_cell_angle_gamma                120.00
_cell_volume                     26377.3
loop_
_atom_site_label
_atom_site_type_symbol
_atom_site_fract_x
_atom_site_fract_y
_atom_site_fract_z
O5 O 0.28502(9) 0.17426(9) 0.03606(13)
O6 O 0.30014(8) 0.12652(8) 0.06473(13)
C27 C 0.29801(12) 0.15092(12) 0.0240(2)
Fe4 Fe 0.793939(24) 0.079999(17) 0.11619(3)
Fe6 Fe 0.286059(17) 0.206061(24) 0.11619(3)
Fe10 Fe 0.380607(17) 0.127273(24) 0.21715(3)
Fe13 Fe 0.795363(24) 0.166117(17) 0.17192(3)
Fe14 Fe 0.295913(17) 0.128697(24) 0.16142(3)
O13 O 0.74196(11) 0.07831(8) 0.08721(13)
O15 O 0.73789(11) 0.12316(8) 0.15158(13)
O17 O 0.38851(13) 0.09751(9) 0.14751(16)
O19 O 0.76417(9) 0.04233(9) 0.18583(16)
O21 O 0.39650(16) 0.13433(13) 0.05890(17)
O25 O 0.82574(9) 0.11076(13) 0.03606(13)
O30 O 0.79319(8) 0.15971(11) 0.26860(13)
O34 O 0.77296(11) 0.20381(8) 0.18582(14)
O38 O 0.83930(12) 0.06821(9) 0.13622(15)
O41 O 0.81440(10) 0.12841(7) 0.15866(12)
O43 O 0.85226(10) 0.20493(7) 0.17468(12)
C43 C 0.54466(19) 0.06594(14) 0.0191(2)
H31 H 0.5507 0.0786 0.0590
C53 C 0.60963(19) 0.06453(14) 0.0239(2)
C55 C 0.62594(20) 0.04017(15) 0.0173(2)
C57 C 0.66329(20) 0.05026(15) 0.0453(2)
H39 H 0.6742 0.0336 0.0393
C59 C 0.68377(18) 0.08480(13) 0.0814(2)
C61 C 0.66685(21) 0.10809(15) 0.0896(2)
H41 H 0.6799 0.1309 0.1155
C63 C 0.63057(20) 0.09918(15) 0.0607(2)
H43 H 0.6203 0.1165 0.0661
C65 C 0.72383(18) 0.09575(13) 0.1086(2)
C67 C 0.48141(21) 0.07099(16) 0.0151(2)
C69 C 0.47441(21) 0.06951(15) 0.0805(2)
H45 H 0.4879 0.0614 0.1086
C71 C 0.44712(20) 0.08016(15) 0.1040(2)
H47 H 0.4412 0.0775 0.1477
C73 C 0.42841(21) 0.09483(16) 0.0635(2)
C79 C 0.40184(23) 0.10965(17) 0.0912(3)
O45 O 0.79982(15) 0.18355(10) 0.07552(16)
H71 H 0.8129(14) 0.2087(6) 0.0632(15)
H73 H 0.7786(16) 0.1734(10) 0.0504(15)
O47 O 0.77457(16) 0.03093(11) 0.0541(2)
C113 C 0.7406(4) 0.0069(3) 0.0384(5)
H75 H 0.7193 0.0045 0.0634
Fe9 Fe 0.206061(24) 0.920001(17) 0.88381(3)
Fe17 Fe 0.128697(24) 0.832783(17) 0.83858(3)
O22 O 0.17426(9) 0.88924(13) 0.96394(13)
O26 O 0.12652(8) 0.82638(11) 0.93527(13)
C92 C 0.15092(12) 0.85291(17) 0.9760(2)
Fe9_2 Fe 0.079999(17) 0.286059(29) 0.88381(3)
Fe17_2 Fe 0.167217(17) 0.295913(29) 0.83858(3)
O22_2 O 0.11076(13) 0.28502(16) 0.96394(13)
O26_2 O 0.17362(11) 0.30014(14) 0.93527(13)
C92_2 C 0.14709(17) 0.29801(21) 0.9760(2)
O6_2 O 0.87348(8) 0.17362(11) 0.06473(13)
C27_2 C 0.84908(12) 0.14709(17) 0.0240(2)
Fe4_2 Fe 0.920001(17) 0.713941(29) 0.11619(3)
Fe10_2 Fe 0.872727(24) 0.253335(29) 0.21715(3)
Fe13_2 Fe 0.833883(17) 0.629247(29) 0.17192(3)
Fe14_2 Fe 0.871303(24) 0.167217(29) 0.16142(3)
O13_2 O 0.92169(8) 0.66366(14) 0.08721(13)
O15_2 O 0.87684(8) 0.61474(14) 0.15158(13)
O17_2 O 0.90249(9) 0.29101(16) 0.14751(16)
O19_2 O 0.95767(9) 0.72185(13) 0.18583(16)
O21_2 O 0.86567(13) 0.26218(21) 0.05890(17)
O25_2 O 0.88924(13) 0.71498(16) 0.03606(13)
O30_2 O 0.84029(11) 0.63347(14) 0.26860(13)
O34_2 O 0.79619(8) 0.56916(14) 0.18582(14)
O38_2 O 0.93179(9) 0.77110(15) 0.13622(15)
O41_2 O 0.87159(7) 0.68600(12) 0.15866(12)
O43_2 O 0.79507(7) 0.64734(12) 0.17468(12)
C43_2 C 0.93406(14) 0.47873(24) 0.0191(2)
H31_2 H 0.9214 0.4722 0.0590
C53_2 C 0.93547(14) 0.54511(24) 0.0239(2)
C55_2 C 0.95983(15) 0.58578(25) 0.0173(2)
C57_2 C 0.94974(15) 0.61304(25) 0.0453(2)
H39_2 H 0.9664 0.6407 0.0393
C59_2 C 0.91520(13) 0.59898(22) 0.0814(2)
C61_2 C 0.89191(15) 0.55877(26) 0.0896(2)
H41_2 H 0.8691 0.5491 0.1155
C63_2 C 0.90082(15) 0.53140(25) 0.0607(2)
H43_2 H 0.8835 0.5039 0.0661
C65_2 C 0.90425(13) 0.62809(22) 0.1086(2)
C67_2 C 0.92901(16) 0.41043(26) 0.0151(2)
C69_2 C 0.93049(15) 0.40491(26) 0.0805(2)
H45_2 H 0.9386 0.4266 0.1086
C71_2 C 0.91984(15) 0.36697(25) 0.1040(2)
H47_2 H 0.9225 0.3638 0.1477
C73_2 C 0.90517(16) 0.33359(26) 0.0635(2)
C79_2 C 0.89035(17) 0.29220(29) 0.0912(3)
O45_2 O 0.81645(10) 0.61628(18) 0.07552(16)
H71_2 H 0.7913(6) 0.6043(15) 0.0632(15)
H73_2 H 0.8266(10) 0.6053(19) 0.0504(15)
O47_2 O 0.96907(11) 0.74365(19) 0.0541(2)
C113_2 C 0.9931(3) 0.7338(5) 0.0384(5)
H75_2 H 0.9955 0.7149 0.0634
O6_3 O 0.82638(11) 0.69986(8) 0.06473(13)
C27_3 C 0.85291(17) 0.70199(12) 0.0240(2)
Fe10_3 Fe 0.746665(29) 0.619393(17) 0.21715(3)
Fe13_3 Fe 0.370753(29) 0.204637(24) 0.17192(3)
Fe14_3 Fe 0.832783(29) 0.704087(17) 0.16142(3)
O13_3 O 0.33634(14) 0.25804(11) 0.08721(13)
O15_3 O 0.38526(14) 0.26211(11) 0.15158(13)
O17_3 O 0.70899(16) 0.61149(13) 0.14751(16)
O19_3 O 0.27815(13) 0.23583(9) 0.18583(16)
O21_3 O 0.73782(21) 0.60350(16) 0.05890(17)
O30_3 O 0.36653(14) 0.20681(8) 0.26860(13)
O34_3 O 0.43084(14) 0.22704(11) 0.18582(14)
O38_3 O 0.22890(15) 0.16070(12) 0.13622(15)
O41_3 O 0.31400(12) 0.18560(10) 0.15866(12)
O43_3 O 0.35266(12) 0.14774(10) 0.17468(12)
C43_3 C 0.52127(24) 0.45534(19) 0.0191(2)
H31_3 H 0.5278 0.4493 0.0590
C53_3 C 0.45489(24) 0.39037(19) 0.0239(2)
C55_3 C 0.41422(25) 0.37406(20) 0.0173(2)
C57_3 C 0.38696(25) 0.33671(20) 0.0453(2)
H39_3 H 0.3593 0.3258 0.0393
C59_3 C 0.40102(22) 0.31623(18) 0.0814(2)
C61_3 C 0.44123(26) 0.33315(21) 0.0896(2)
H41_3 H 0.4509 0.3201 0.1155
C63_3 C 0.46860(25) 0.36943(20) 0.0607(2)
H43_3 H 0.4961 0.3797 0.0661
C65_3 C 0.37191(22) 0.27617(18) 0.1086(2)
C67_3 C 0.58957(26) 0.51859(21) 0.0151(2)
C69_3 C 0.59509(26) 0.52559(21) 0.0805(2)
H45_3 H 0.5734 0.5121 0.1086
C71_3 C 0.63303(25) 0.55288(20) 0.1040(2)
H47_3 H 0.6362 0.5588 0.1477
C73_3 C 0.66641(26) 0.57159(21) 0.0635(2)
C79_3 C 0.70780(29) 0.59816(23) 0.0912(3)
O45_3 O 0.38372(18) 0.20018(15) 0.07552(16)
H71_3 H 0.3957(15) 0.1871(14) 0.0632(15)
H73_3 H 0.3947(19) 0.2214(16) 0.0504(15)
O47_3 O 0.25635(19) 0.22543(16) 0.0541(2)
C113_3 C 0.2662(5) 0.2594(4) 0.0384(5)
H75_3 H 0.2851 0.2807 0.0634
Fe9_3 Fe 0.713941(29) 0.793939(24) 0.88381(3)
Fe17_3 Fe 0.704087(29) 0.871303(24) 0.83858(3)
O22_3 O 0.71498(16) 0.82574(9) 0.96394(13)
O26_3 O 0.69986(14) 0.87348(8) 0.93527(13)
C92_3 C 0.70199(21) 0.84908(12) 0.9760(2)
Fe2 Fe 0.166117(17) 0.370753(17) 0.82808(3)
O1 O 0.07831(8) 0.33634(8) 0.91279(13)
O2 O 0.12316(8) 0.38526(8) 0.84842(13)
O3 O 0.09751(9) 0.70899(9) 0.85249(16)
O4 O 0.13433(13) 0.73782(10) 0.94110(17)
O7 O 0.12953(8) 0.23582(8) 0.85248(14)
O8 O 0.06821(9) 0.22890(8) 0.86378(15)
O9 O 0.12841(7) 0.31400(7) 0.84134(12)
C2 C 0.06594(14) 0.52127(13) 0.9809(2)
H1 H 0.0786 0.5278 0.9410
C7 C 0.06453(14) 0.45489(13) 0.9761(2)
C8 C 0.04017(15) 0.41422(13) 0.9827(2)
C9 C 0.05026(15) 0.38696(13) 0.9547(2)
H5 H 0.0336 0.3593 0.9607
C10 C 0.08480(13) 0.40102(13) 0.9186(2)
C11 C 0.10809(15) 0.44123(14) 0.9104(2)
H6 H 0.1309 0.4509 0.8845
C12 C 0.09918(15) 0.46860(13) 0.9393(2)
H7 H 0.1165 0.4961 0.9339
C13 C 0.09575(13) 0.37191(13) 0.8914(2)
C14 C 0.07099(16) 0.58957(13) 0.9849(2)
C15 C 0.06951(15) 0.59509(14) 0.9195(2)
H8 H 0.0614 0.5734 0.8914
C16 C 0.08016(15) 0.63303(13) 0.8960(2)
H9 H 0.0775 0.6362 0.8523
C17 C 0.09483(16) 0.66641(14) 0.9365(2)
C20 C 0.10965(17) 0.70780(15) 0.9088(3)
C28 C 0.04115(17) 0.02355(16) 0.8297(4)
H16 H 0.0691 0.0396 0.8278
C29 C 0.01780(17) 0.04188(16) 0.8310(4)
C30 C 0.03665(17) 0.08704(16) 0.8338(4)
C31 C 0.07632(18) 0.11233(17) 0.8223(5)
H17 H 0.0919 0.1013 0.8081
C32 C 0.09458(16) 0.15288(16) 0.8302(4)
H18 H 0.1222 0.1689 0.8226
C33 C 0.07253(14) 0.17037(15) 0.8495(3)
C34 C 0.03321(18) 0.14568(17) 0.8654(5)
H19 H 0.0184 0.1565 0.8829
C35 C 0.01493(19) 0.10393(19) 0.8556(6)
C36 C 0.09194(14) 0.21519(13) 0.8572(2)
O10 O 0.18355(10) 0.38372(11) 0.92448(16)
H21 H 0.2087(6) 0.3957(13) 0.9368(15)
H22 H 0.1734(10) 0.3947(13) 0.9496(15)
O11 O 0.03093(11) 0.25635(12) 0.9459(2)
C37 C 0.0069(3) 0.2662(2) 0.9616(5)
H23 H 0.0045 0.2851 0.9366
Fe5 Fe 0.127273(24) 0.746665(17) 0.78285(3)
Fe11 Fe 0.253335(17) 0.380607(17) 0.78285(3)
O16 O 0.04233(9) 0.27815(13) 0.81417(16)
O20 O 0.07116(10) 0.27016(16) 0.72556(17)
O28 O 0.15971(11) 0.36653(8) 0.73140(13)
O33 O 0.20381(8) 0.43084(8) 0.81418(14)
O39 O 0.20493(7) 0.35266(7) 0.82532(12)
H48 H 0.0160 0.2445 0.6363
C78 C 0.04114(15) 0.26482(23) 0.7578(3)
H69 H 0.1000 0.0124 0.8642
O32 O 0.10630(11) 0.87047(8) 0.85248(14)
O36 O 0.16070(12) 0.93179(9) 0.86378(15)
C96 C 0.02409(23) 0.98220(17) 0.8310(4)
C99 C 0.05040(23) 0.96335(17) 0.8338(4)
C101 C 0.03602(25) 0.92368(18) 0.8223(5)
H63 H 0.0095 0.9081 0.8081
C103 C 0.05831(23) 0.90542(16) 0.8302(4)
H65 H 0.0468 0.8778 0.8226
C105 C 0.09785(21) 0.92747(14) 0.8495(3)
C107 C 0.11248(25) 0.96679(18) 0.8654(5)
H67 H 0.1382 0.9816 0.8829
C109 C 0.08901(27) 0.98507(19) 0.8556(6)
C111 C 0.12326(19) 0.90806(14) 0.8572(2)
H20 H 0.9876 0.0875 0.8642
O22_4 O 0.84093(9) 0.22257(13) 0.29727(13)
C40 C 0.81697(13) 0.09524(19) 0.6570(2)
C42 C 0.85461(13) 0.12200(19) 0.6857(2)
H30 H 0.8612 0.1159 0.7256
C44 C 0.88193(13) 0.15768(20) 0.6537(2)
C46 C 0.87178(14) 0.16616(21) 0.5949(2)
H32 H 0.8901 0.1896 0.5737
C48 C 0.83473(14) 0.14047(21) 0.5661(2)
C50 C 0.80765(13) 0.10471(19) 0.5983(2)
H34 H 0.7830 0.0871 0.5794
C52 C 0.78823(13) 0.05703(19) 0.6905(2)
C54 C 0.74756(13) 0.04072(20) 0.6839(2)
H36 H 0.7377 0.0546 0.6605
C56 C 0.72030(13) 0.00337(20) 0.7119(2)
C62 C 0.80194(13) 0.03609(20) 0.7273(2)
H42 H 0.8295 0.0463 0.7327
C66 C 0.92291(13) 0.18525(21) 0.6817(2)
C68 C 0.92843(14) 0.19225(21) 0.7471(2)
H44 H 0.9068 0.1787 0.7752
C70 C 0.96637(13) 0.21954(20) 0.7706(2)
H46 H 0.9696 0.2254 0.8143
C72 C 0.99975(14) 0.23825(21) 0.7301(2)
C74 C 0.99420(15) 0.23118(24) 0.6642(2)
C76 C 0.95613(16) 0.20419(26) 0.6404(2)
H50 H 0.9527 0.1987 0.5966
C80 C 0.82571(13) 0.15050(19) 0.5014(2)
C82 C 0.83982(14) 0.19152(21) 0.4859(2)
H52 H 0.8523 0.2113 0.5172
C84 C 0.83526(14) 0.20228(20) 0.4247(2)
H54 H 0.8442 0.2291 0.4151
C86 C 0.81726(13) 0.17295(18) 0.3771(2)
C88 C 0.80178(14) 0.13311(21) 0.3929(2)
H56 H 0.7881 0.1133 0.3620
C90 C 0.80617(14) 0.12173(21) 0.4546(2)
H58 H 0.7959 0.0945 0.4642
C92_4 C 0.81759(12) 0.18624(17) 0.3093(2)
C95 C 0.97645(16) 0.01759(23) 0.8297(4)
H61 H 0.9604 0.0294 0.8278
Fe3 Fe 0.619393(17) 0.872727(24) 0.78285(3)
Fe18 Fe 0.629247(17) 0.795363(24) 0.82808(3)
O12 O 0.66968(8) 0.92470(11) 0.75387(13)
O14 O 0.71860(8) 0.92877(11) 0.81824(13)
O18 O 0.61149(13) 0.90249(9) 0.85249(16)
O24 O 0.61835(9) 0.84093(9) 0.70273(13)
O31 O 0.76418(8) 0.89370(11) 0.85248(14)
O35 O 0.77110(8) 0.83930(12) 0.86378(15)
O37 O 0.56224(8) 0.82736(12) 0.80288(15)
O40 O 0.64734(7) 0.85226(10) 0.82532(12)
O42 O 0.68600(7) 0.81440(10) 0.84134(12)
H38 H 0.6927 0.9924 0.7059
C58 C 0.73436(13) 0.98289(18) 0.7480(2)
C60 C 0.77457(14) 0.99981(21) 0.7562(2)
H40 H 0.7843 0.9867 0.7821
C64 C 0.70525(13) 0.94283(18) 0.7752(2)
C94 C 0.98241(23) 0.95885(17) 0.8297(4)
H60 H 0.9706 0.9309 0.8278
C97 C 0.95812(16) 0.97591(23) 0.8310(4)
C98 C 0.91296(16) 0.94960(23) 0.8338(4)
C100 C 0.88767(17) 0.96398(25) 0.8223(5)
H62 H 0.8987 0.9905 0.8081
C102 C 0.84712(16) 0.94169(23) 0.8302(4)
H64 H 0.8311 0.9532 0.8226
C104 C 0.82963(15) 0.90215(21) 0.8495(3)
C106 C 0.85432(17) 0.88752(25) 0.8654(5)
H66 H 0.8435 0.8618 0.8829
C108 C 0.89607(19) 0.91099(27) 0.8556(6)
H68 H 0.9125 0.9000 0.8642
C110 C 0.78481(13) 0.87674(19) 0.8572(2)
O44 O 0.71706(11) 0.86684(15) 0.74218(16)
H70 H 0.7291(13) 0.8537(14) 0.7298(15)
H72 H 0.7281(13) 0.8880(16) 0.7170(15)
O46 O 0.58969(12) 0.89209(16) 0.7207(2)
C112 C 0.5996(2) 0.9260(4) 0.7050(5)
H74 H 0.6185 0.9473 0.7300
N2 N 0.5835(3) 0.9353(4) 0.6488(4)
C114 C 0.6026(4) 0.9778(5) 0.6371(6)
H76 H 0.6256 0.9919 0.6649
H78 H 0.6114 0.9834 0.5932
H80 H 0.5838 0.9870 0.6453
C116 C 0.5476(4) 0.8934(6) 0.6302(7)
H82 H 0.5486 0.8728 0.6551
H84 H 0.5226 0.8928 0.6386
H86 H 0.5492 0.8886 0.5854
Fe18_2 Fe 0.204637(24) 0.833883(29) 0.82808(3)
O12_2 O 0.07530(11) 0.74497(14) 0.75387(13)
O14_2 O 0.07123(11) 0.78982(14) 0.81824(13)
O24_2 O 0.15907(9) 0.77743(13) 0.70273(13)
O37_2 O 0.17264(12) 0.73487(14) 0.80288(15)
O40_2 O 0.14774(10) 0.79507(12) 0.82532(12)
O42_2 O 0.18560(10) 0.87159(12) 0.84134(12)
H38_2 H 0.0076 0.7002 0.7059
C58_2 C 0.01711(18) 0.75146(22) 0.7480(2)
C60_2 C 0.00019(21) 0.77475(25) 0.7562(2)
H40_2 H 0.0133 0.7975 0.7821
C64_2 C 0.05717(18) 0.76241(22) 0.7752(2)
O44_2 O 0.13316(15) 0.85021(19) 0.74218(16)
H70_2 H 0.1463(14) 0.8753(19) 0.7298(15)
H72_2 H 0.1120(16) 0.8400(21) 0.7170(15)
O46_2 O 0.10791(16) 0.69759(20) 0.7207(2)
C112_2 C 0.0740(4) 0.6735(4) 0.7050(5)
H74_2 H 0.0527 0.6711 0.7300
N2_2 N 0.0647(4) 0.6481(5) 0.6488(4)
C114_2 C 0.0222(5) 0.6247(6) 0.6371(6)
H76_2 H 0.0081 0.6336 0.6649
H78_2 H 0.0166 0.6279 0.5932
H80_2 H 0.0130 0.5967 0.6453
C116_2 C 0.1066(6) 0.6541(7) 0.6302(7)
H82_2 H 0.1272 0.6757 0.6551
H84_2 H 0.1072 0.6297 0.6386
H86_2 H 0.1114 0.6605 0.5854
O1_2 O 0.66366(8) 0.74196(11) 0.91279(13)
O2_2 O 0.61474(8) 0.73789(11) 0.84842(13)
O3_2 O 0.29101(9) 0.38851(13) 0.85249(16)
O4_2 O 0.26218(10) 0.39650(16) 0.94110(17)
C2_2 C 0.47873(13) 0.54466(19) 0.9809(2)
H1_2 H 0.4722 0.5507 0.9410
C7_2 C 0.54511(13) 0.60963(19) 0.9761(2)
C8_2 C 0.58578(13) 0.62594(20) 0.9827(2)
C9_2 C 0.61304(13) 0.66329(20) 0.9547(2)
H5_2 H 0.6407 0.6742 0.9607
C10_2 C 0.59898(13) 0.68377(18) 0.9186(2)
C11_2 C 0.55877(14) 0.66685(21) 0.9104(2)
H6_2 H 0.5491 0.6799 0.8845
C12_2 C 0.53140(13) 0.63057(20) 0.9393(2)
H7_2 H 0.5039 0.6203 0.9339
C13_2 C 0.62809(13) 0.72383(18) 0.8914(2)
C14_2 C 0.41043(13) 0.48141(21) 0.9849(2)
C15_2 C 0.40491(14) 0.47441(21) 0.9195(2)
H8_2 H 0.4266 0.4879 0.8914
C16_2 C 0.36697(13) 0.44712(20) 0.8960(2)
H9_2 H 0.3638 0.4412 0.8523
C17_2 C 0.33359(14) 0.42841(21) 0.9365(2)
C20_2 C 0.29220(15) 0.40184(23) 0.9088(3)
O10_2 O 0.61628(11) 0.79982(15) 0.92448(16)
H21_2 H 0.6043(13) 0.8129(14) 0.9368(15)
H22_2 H 0.6053(13) 0.7786(16) 0.9496(15)
O11_2 O 0.74365(12) 0.77457(16) 0.9459(2)
C37_2 C 0.7338(2) 0.7406(4) 0.9616(5)
H23_2 H 0.7149 0.7193 0.9366
O16_2 O 0.72185(13) 0.76417(16) 0.81417(16)
O20_2 O 0.72984(16) 0.80099(19) 0.72556(17)
O22_5 O 0.77743(13) 0.61835(16) 0.29727(13)
O28_2 O 0.63347(8) 0.79319(14) 0.73140(13)
O33_2 O 0.56916(8) 0.77296(11) 0.81418(14)
C40_2 C 0.90476(19) 0.72172(23) 0.6570(2)
C42_2 C 0.87800(19) 0.73260(23) 0.6857(2)
H30_2 H 0.8841 0.7452 0.7256
C44_2 C 0.84232(20) 0.72424(24) 0.6537(2)
C46_2 C 0.83384(21) 0.70561(25) 0.5949(2)
H32_2 H 0.8104 0.7004 0.5737
C48_2 C 0.85953(21) 0.69425(25) 0.5661(2)
C50_2 C 0.89529(19) 0.70293(23) 0.5983(2)
H34_2 H 0.9129 0.6958 0.5794
C52_2 C 0.94297(19) 0.73119(23) 0.6905(2)
C54_2 C 0.95928(20) 0.70683(24) 0.6839(2)
H36_2 H 0.9454 0.6830 0.6605
C56_2 C 0.99663(20) 0.71692(24) 0.7119(2)
C62_2 C 0.96391(20) 0.76584(24) 0.7273(2)
H42_2 H 0.9537 0.7831 0.7327
C66_2 C 0.81475(21) 0.73765(25) 0.6817(2)
C68_2 C 0.80775(21) 0.73617(25) 0.7471(2)
H44_2 H 0.8213 0.7280 0.7752
C70_2 C 0.78046(20) 0.74682(24) 0.7706(2)
H46_2 H 0.7746 0.7441 0.8143
C72_2 C 0.76175(21) 0.76149(25) 0.7301(2)
C74_2 C 0.76882(24) 0.76301(28) 0.6642(2)
H48_2 H 0.7555 0.7714 0.6363
C76_2 C 0.79581(26) 0.75193(31) 0.6404(2)
H50_2 H 0.8013 0.7539 0.5966
C78_2 C 0.73518(23) 0.77631(27) 0.7578(3)
C80_2 C 0.84950(19) 0.67520(23) 0.5014(2)
C82_2 C 0.80848(21) 0.64829(25) 0.4859(2)
H52_2 H 0.7887 0.6409 0.5172
C84_2 C 0.79772(20) 0.63297(24) 0.4247(2)
H54_2 H 0.7709 0.6150 0.4151
C86_2 C 0.82705(18) 0.64430(22) 0.3771(2)
C88_2 C 0.86689(21) 0.66866(25) 0.3929(2)
H56_2 H 0.8867 0.6747 0.3620
C90_2 C 0.87827(21) 0.68443(25) 0.4546(2)
H58_2 H 0.9055 0.7013 0.4642
C92_5 C 0.81376(17) 0.63134(21) 0.3093(2)
O12_3 O 0.25503(14) 0.33032(8) 0.75387(13)
O14_3 O 0.21018(14) 0.28140(8) 0.81824(13)
O22_6 O 0.38165(16) 0.15907(9) 0.29727(13)
O24_3 O 0.22257(13) 0.38165(9) 0.70273(13)
O37_3 O 0.26513(14) 0.43776(8) 0.80288(15)
C40_3 C 0.27828(23) 0.18303(13) 0.6570(2)
C42_3 C 0.26740(23) 0.14539(13) 0.6857(2)
H30_3 H 0.2548 0.1388 0.7256
C44_3 C 0.27576(24) 0.11807(13) 0.6537(2)
C46_3 C 0.29439(25) 0.12822(14) 0.5949(2)
H32_3 H 0.2996 0.1099 0.5737
C48_3 C 0.30575(25) 0.16527(14) 0.5661(2)
C50_3 C 0.29707(23) 0.19235(13) 0.5983(2)
H34_3 H 0.3042 0.2170 0.5794
C52_3 C 0.26881(23) 0.21177(13) 0.6905(2)
C54_3 C 0.29317(24) 0.25244(13) 0.6839(2)
H36_3 H 0.3170 0.2623 0.6605
C56_3 C 0.28308(24) 0.27970(13) 0.7119(2)
H38_3 H 0.2998 0.3073 0.7059
C58_3 C 0.24854(22) 0.26564(13) 0.7480(2)
C60_3 C 0.22525(25) 0.22543(14) 0.7562(2)
H40_3 H 0.2025 0.2157 0.7821
C62_3 C 0.23416(24) 0.19806(13) 0.7273(2)
H42_3 H 0.2169 0.1705 0.7327
C64_3 C 0.23759(22) 0.29475(13) 0.7752(2)
C66_3 C 0.26235(25) 0.07709(13) 0.6817(2)
C68_3 C 0.26383(25) 0.07157(14) 0.7471(2)
H44_3 H 0.2720 0.0932 0.7752
C70_3 C 0.25318(24) 0.03363(13) 0.7706(2)
H46_3 H 0.2559 0.0304 0.8143
C72_3 C 0.23851(25) 0.00025(14) 0.7301(2)
C74_3 C 0.23699(28) 0.00580(15) 0.6642(2)
C76_3 C 0.24807(31) 0.04387(16) 0.6404(2)
H50_3 H 0.2461 0.0473 0.5966
C80_3 C 0.32480(23) 0.17429(13) 0.5014(2)
C82_3 C 0.35171(25) 0.16018(14) 0.4859(2)
H52_3 H 0.3591 0.1477 0.5172
C84_3 C 0.36703(24) 0.16474(14) 0.4247(2)
H54_3 H 0.3850 0.1558 0.4151
C86_3 C 0.35570(22) 0.18274(13) 0.3771(2)
C88_3 C 0.33134(25) 0.19822(14) 0.3929(2)
H56_3 H 0.3253 0.2119 0.3620
C90_3 C 0.31557(25) 0.19383(14) 0.4546(2)
H58_3 H 0.2987 0.2041 0.4642
C92_6 C 0.36866(21) 0.18241(12) 0.3093(2)
O44_3 O 0.14979(19) 0.28294(11) 0.74218(16)
H70_3 H 0.1247(19) 0.2709(13) 0.7298(15)
H72_3 H 0.1600(21) 0.2719(13) 0.7170(15)
O46_3 O 0.30241(20) 0.41031(12) 0.7207(2)
C112_3 C 0.3265(4) 0.4004(2) 0.7050(5)
H74_3 H 0.3289 0.3815 0.7300
N2_3 N 0.3519(5) 0.4165(3) 0.6488(4)
C114_3 C 0.3753(6) 0.3974(4) 0.6371(6)
H76_3 H 0.3664 0.3744 0.6649
H78_3 H 0.3721 0.3886 0.5932
H80_3 H 0.4033 0.4162 0.6453
C116_3 C 0.3459(7) 0.4524(4) 0.6302(7)
H82_3 H 0.3243 0.4514 0.6551
H84_3 H 0.3703 0.4774 0.6386
H86_3 H 0.3395 0.4508 0.5854
O1_3 O 0.25804(11) 0.92169(8) 0.91279(13)
O2_3 O 0.26211(11) 0.87684(8) 0.84842(13)
O4_3 O 0.60350(16) 0.86567(13) 0.94110(17)
C2_3 C 0.45534(19) 0.93406(14) 0.9809(2)
H1_3 H 0.4493 0.9214 0.9410
C7_3 C 0.39037(19) 0.93547(14) 0.9761(2)
C8_3 C 0.37406(20) 0.95983(15) 0.9827(2)
C9_3 C 0.33671(20) 0.94974(15) 0.9547(2)
H5_3 H 0.3258 0.9664 0.9607
C10_3 C 0.31623(18) 0.91520(13) 0.9186(2)
C11_3 C 0.33315(21) 0.89191(15) 0.9104(2)
H6_3 H 0.3201 0.8691 0.8845
C12_3 C 0.36943(20) 0.90082(15) 0.9393(2)
H7_3 H 0.3797 0.8835 0.9339
C13_3 C 0.27617(18) 0.90425(13) 0.8914(2)
C14_3 C 0.51859(21) 0.92901(16) 0.9849(2)
C15_3 C 0.52559(21) 0.93049(15) 0.9195(2)
H8_3 H 0.5121 0.9386 0.8914
C16_3 C 0.55288(20) 0.91984(15) 0.8960(2)
H9_3 H 0.5588 0.9225 0.8523
C17_3 C 0.57159(21) 0.90517(16) 0.9365(2)
C20_3 C 0.59816(23) 0.89035(17) 0.9088(3)
O10_3 O 0.20018(15) 0.81645(10) 0.92448(16)
H21_3 H 0.1871(14) 0.7913(6) 0.9368(15)
H22_3 H 0.2214(16) 0.8266(10) 0.9496(15)
O11_3 O 0.22543(16) 0.96907(11) 0.9459(2)
C37_3 C 0.2594(4) 0.9931(3) 0.9616(5)
H23_3 H 0.2807 0.9955 0.9366
O16_3 O 0.23583(16) 0.95767(9) 0.81417(16)
O20_3 O 0.19901(19) 0.92884(10) 0.72556(17)
O28_3 O 0.20681(14) 0.84029(11) 0.73140(13)
O33_3 O 0.22704(11) 0.79619(8) 0.81418(14)
H48_3 H 0.2286 0.9840 0.6363
C78_3 C 0.22369(27) 0.95886(15) 0.7578(3)
O4_4 O 0.80099(13) 0.07116(10) 0.27444(17)
H10 H 0.7714 0.0160 0.3637
C20_4 C 0.77631(17) 0.04114(15) 0.2422(3)
O1_4 O 0.74497(8) 0.66968(8) 0.24613(13)
O2_4 O 0.78982(8) 0.71860(8) 0.18176(13)
O8_2 O 0.73487(9) 0.56224(8) 0.19712(15)
C1 C 0.72172(14) 0.81697(13) 0.3430(2)
C2_4 C 0.73260(14) 0.85461(13) 0.3143(2)
H1_4 H 0.7452 0.8612 0.2744
C3 C 0.72424(15) 0.88193(13) 0.3463(2)
C4 C 0.70561(15) 0.87178(14) 0.4051(2)
H2 H 0.7004 0.8901 0.4263
C5 C 0.69425(15) 0.83473(14) 0.4339(2)
C6 C 0.70293(14) 0.80765(13) 0.4017(2)
H3 H 0.6958 0.7830 0.4206
C7_4 C 0.73119(14) 0.78823(13) 0.3095(2)
C8_4 C 0.70683(15) 0.74756(13) 0.3161(2)
H4 H 0.6830 0.7377 0.3395
C9_4 C 0.71692(15) 0.72030(13) 0.2881(2)
H5_4 H 0.7002 0.6927 0.2941
C10_4 C 0.75146(13) 0.73436(13) 0.2520(2)
C11_4 C 0.77475(15) 0.77457(14) 0.2438(2)
H6_4 H 0.7975 0.7843 0.2179
C12_4 C 0.76584(15) 0.80194(13) 0.2727(2)
H7_4 H 0.7831 0.8295 0.2673
C13_4 C 0.76241(13) 0.70525(13) 0.2248(2)
C14_4 C 0.73765(16) 0.92291(13) 0.3183(2)
C15_4 C 0.73617(15) 0.92843(14) 0.2529(2)
H8_4 H 0.7280 0.9068 0.2248
C16_4 C 0.74682(15) 0.96637(13) 0.2294(2)
H9_4 H 0.7441 0.9696 0.1857
C17_4 C 0.76149(16) 0.99975(14) 0.2699(2)
C18 C 0.76301(19) 0.99420(15) 0.3358(2)
C19 C 0.7519(2) 0.95613(16) 0.3596(2)
H11 H 0.7539 0.9527 0.4034
C21 C 0.67520(14) 0.82571(13) 0.4986(2)
C22 C 0.64829(15) 0.83982(14) 0.5141(2)
H12 H 0.6409 0.8523 0.4828
C23 C 0.63297(14) 0.83526(14) 0.5753(2)
H13 H 0.6150 0.8442 0.5849
C24 C 0.64430(13) 0.81726(13) 0.6229(2)
C25 C 0.66866(15) 0.80178(14) 0.6071(2)
H14 H 0.6747 0.7881 0.6380
C26 C 0.68443(15) 0.80617(14) 0.5454(2)
H15 H 0.7013 0.7959 0.5358
C27_4 C 0.63134(12) 0.81759(12) 0.6907(2)
C28_2 C 0.70781(17) 0.35689(16) 0.1631(4)
H16_2 H 0.7357 0.3730 0.1612
C29_2 C 0.68446(17) 0.37522(16) 0.1644(4)
C30_2 C 0.70331(17) 0.42038(16) 0.1672(4)
C31_2 C 0.74298(18) 0.44567(17) 0.1557(5)
H17_2 H 0.7585 0.4347 0.1415
C32_2 C 0.76124(16) 0.48622(16) 0.1636(4)
H18_2 H 0.7888 0.5023 0.1560
C33_2 C 0.73919(14) 0.50371(15) 0.1829(3)
C34_2 C 0.69987(18) 0.47902(17) 0.1988(5)
H19_2 H 0.6850 0.4899 0.2163
C35_2 C 0.68159(19) 0.43727(19) 0.1890(6)
H20_2 H 0.6542 0.4209 0.1976
C36_2 C 0.75860(14) 0.54853(13) 0.1906(2)
O10_4 O 0.85021(10) 0.71706(11) 0.25782(16)
H21_4 H 0.8753(6) 0.7291(13) 0.2702(15)
H22_4 H 0.8400(10) 0.7281(13) 0.2830(15)
O11_4 O 0.69759(11) 0.58969(12) 0.2793(2)
C37_4 C 0.6735(3) 0.5996(2) 0.2950(5)
H23_4 H 0.6711 0.6185 0.2700
N1 N 0.6481(3) 0.5835(3) 0.3512(4)
C38 C 0.6247(3) 0.6026(4) 0.3629(6)
H24 H 0.6336 0.6256 0.3351
H25 H 0.6279 0.6114 0.4068
H26 H 0.5967 0.5838 0.3547
C39 C 0.6541(4) 0.5476(4) 0.3698(7)
H27 H 0.6757 0.5486 0.3449
H28 H 0.6297 0.5226 0.3614
H29 H 0.6605 0.5492 0.4146
O33_4 O 0.87047(8) 0.76418(8) 0.14752(14)
O35_2 O 0.43776(8) 0.17264(12) 0.19712(15)
O36_2 O 0.82736(12) 0.26513(9) 0.19712(15)
C94_2 C 0.64907(23) 0.29219(17) 0.1631(4)
C95_2 C 0.64311(16) 0.35093(23) 0.1631(4)
H60_2 H 0.6372 0.2643 0.1612
H61_2 H 0.6270 0.3628 0.1612
C96_2 C 0.69075(23) 0.31554(17) 0.1644(4)
C97_2 C 0.62478(16) 0.30925(23) 0.1644(4)
C98_2 C 0.57962(16) 0.28294(23) 0.1672(4)
C99_2 C 0.71706(23) 0.29669(17) 0.1672(4)
C100_2 C 0.55433(17) 0.29732(25) 0.1557(5)
C101_2 C 0.70268(25) 0.25702(18) 0.1557(5)
H62_2 H 0.5653 0.3239 0.1415
H63_2 H 0.6761 0.2415 0.1415
C102_2 C 0.51378(16) 0.27503(23) 0.1636(4)
C103_2 C 0.72497(23) 0.23876(16) 0.1636(4)
H64_2 H 0.4977 0.2866 0.1560
H65_2 H 0.7134 0.2112 0.1560
C104_2 C 0.49629(15) 0.23549(21) 0.1829(3)
C105_2 C 0.76451(21) 0.26081(14) 0.1829(3)
C106_2 C 0.52098(17) 0.22086(25) 0.1988(5)
C107_2 C 0.77914(25) 0.30013(18) 0.1988(5)
H66_2 H 0.5101 0.1952 0.2163
H67_2 H 0.8048 0.3150 0.2163
C108_2 C 0.56273(19) 0.24433(27) 0.1890(6)
C109_2 C 0.75567(27) 0.31841(19) 0.1890(6)
H68_2 H 0.5791 0.2334 0.1976
H69_2 H 0.7666 0.3458 0.1976
C110_2 C 0.45147(13) 0.21008(19) 0.1906(2)
C111_2 C 0.78992(19) 0.24140(14) 0.1906(2)
O1_5 O 0.33032(8) 0.07530(11) 0.24613(13)
O2_5 O 0.28140(8) 0.07123(11) 0.18176(13)
H5_5 H 0.3073 0.0076 0.2941
C10_5 C 0.26564(13) 0.01711(18) 0.2520(2)
C11_5 C 0.22543(14) 0.00019(21) 0.2438(2)
H6_5 H 0.2157 0.0133 0.2179
C13_5 C 0.29475(13) 0.05717(18) 0.2248(2)
O10_5 O 0.28294(11) 0.13316(15) 0.25782(16)
H21_5 H 0.2709(13) 0.1463(14) 0.2702(15)
H22_5 H 0.2719(13) 0.1120(16) 0.2830(15)
O11_5 O 0.41031(12) 0.10791(16) 0.2793(2)
C37_5 C 0.4004(2) 0.0740(4) 0.2950(5)
H23_5 H 0.3815 0.0527 0.2700
N1_2 N 0.4165(3) 0.0647(4) 0.3512(4)
C38_2 C 0.3974(4) 0.0222(5) 0.3629(6)
H24_2 H 0.3744 0.0081 0.3351
H25_2 H 0.3886 0.0166 0.4068
H26_2 H 0.4162 0.0130 0.3547
C39_2 C 0.4524(4) 0.1066(6) 0.3698(7)
H27_2 H 0.4514 0.1272 0.3449
H28_2 H 0.4774 0.1072 0.3614
H29_2 H 0.4508 0.1114 0.4146
O33_5 O 0.23582(8) 0.10630(11) 0.14752(14)
C1_2 C 0.18303(13) 0.90476(19) 0.3430(2)
C2_5 C 0.14539(13) 0.87800(19) 0.3143(2)
H1_5 H 0.1388 0.8841 0.2744
C3_2 C 0.11807(13) 0.84232(20) 0.3463(2)
C4_2 C 0.12822(14) 0.83384(21) 0.4051(2)
H2_2 H 0.1099 0.8104 0.4263
C5_2 C 0.16527(14) 0.85953(21) 0.4339(2)
C6_2 C 0.19235(13) 0.89529(19) 0.4017(2)
H3_2 H 0.2170 0.9129 0.4206
C7_5 C 0.21177(13) 0.94297(19) 0.3095(2)
C8_5 C 0.25244(13) 0.95928(20) 0.3161(2)
H4_2 H 0.2623 0.9454 0.3395
C9_5 C 0.27970(13) 0.99663(20) 0.2881(2)
C12_5 C 0.19806(13) 0.96391(20) 0.2727(2)
H7_5 H 0.1705 0.9537 0.2673
C14_5 C 0.07709(13) 0.81475(21) 0.3183(2)
C15_5 C 0.07157(14) 0.80775(21) 0.2529(2)
H8_5 H 0.0932 0.8213 0.2248
C16_5 C 0.03363(13) 0.78046(20) 0.2294(2)
H9_5 H 0.0304 0.7746 0.1857
C17_5 C 0.00025(14) 0.76175(21) 0.2699(2)
C18_2 C 0.00580(15) 0.76882(24) 0.3358(2)
C19_2 C 0.04387(16) 0.79581(26) 0.3596(2)
H11_2 H 0.0473 0.8013 0.4034
C21_2 C 0.17429(13) 0.84950(19) 0.4986(2)
C22_2 C 0.16018(14) 0.80848(21) 0.5141(2)
H12_2 H 0.1477 0.7887 0.4828
C23_2 C 0.16474(14) 0.79772(20) 0.5753(2)
H13_2 H 0.1558 0.7709 0.5849
C24_2 C 0.18274(13) 0.82705(18) 0.6229(2)
C25_2 C 0.19822(14) 0.86689(21) 0.6071(2)
H14_2 H 0.2119 0.8867 0.6380
C26_2 C 0.19383(14) 0.87827(21) 0.5454(2)
H15_2 H 0.2041 0.9055 0.5358
C27_5 C 0.18241(12) 0.81376(17) 0.6907(2)
O4_5 O 0.92884(10) 0.72984(16) 0.27444(17)
H10_2 H 0.9840 0.7555 0.3637
C20_5 C 0.95886(15) 0.73518(23) 0.2422(3)
O4_6 O 0.27016(16) 0.19901(13) 0.27444(17)
C1_3 C 0.09524(19) 0.27828(14) 0.3430(2)
C2_6 C 0.12200(19) 0.26740(14) 0.3143(2)
H1_6 H 0.1159 0.2548 0.2744
C3_3 C 0.15768(20) 0.27576(15) 0.3463(2)
C4_3 C 0.16616(21) 0.29439(15) 0.4051(2)
H2_3 H 0.1896 0.2996 0.4263
C5_3 C 0.14047(21) 0.30575(15) 0.4339(2)
C6_3 C 0.10471(19) 0.29707(14) 0.4017(2)
H3_3 H 0.0871 0.3042 0.4206
C7_6 C 0.05703(19) 0.26881(14) 0.3095(2)
C8_6 C 0.04072(20) 0.29317(15) 0.3161(2)
H4_3 H 0.0546 0.3170 0.3395
C9_6 C 0.00337(20) 0.28308(15) 0.2881(2)
C12_6 C 0.03609(20) 0.23416(15) 0.2727(2)
H7_6 H 0.0463 0.2169 0.2673
C14_6 C 0.18525(21) 0.26235(16) 0.3183(2)
C15_6 C 0.19225(21) 0.26383(15) 0.2529(2)
H8_6 H 0.1787 0.2720 0.2248
C16_6 C 0.21954(20) 0.25318(15) 0.2294(2)
H9_6 H 0.2254 0.2559 0.1857
C17_6 C 0.23825(21) 0.23851(16) 0.2699(2)
C18_3 C 0.23118(24) 0.23699(19) 0.3358(2)
H10_3 H 0.2445 0.2286 0.3637
C19_3 C 0.20419(26) 0.2481(2) 0.3596(2)
H11_3 H 0.1987 0.2461 0.4034
C20_6 C 0.26482(23) 0.22369(17) 0.2422(3)
C21_3 C 0.15050(19) 0.32480(14) 0.4986(2)
C22_3 C 0.19152(21) 0.35171(15) 0.5141(2)
H12_3 H 0.2113 0.3591 0.4828
C23_3 C 0.20228(20) 0.36703(14) 0.5753(2)
H13_3 H 0.2291 0.3850 0.5849
C24_3 C 0.17295(18) 0.35570(13) 0.6229(2)
C25_3 C 0.13311(21) 0.33134(15) 0.6071(2)
H14_3 H 0.1133 0.3253 0.6380
C26_3 C 0.12173(21) 0.31557(15) 0.5454(2)
H15_3 H 0.0945 0.2987 0.5358
C27_6 C 0.18624(17) 0.36866(12) 0.6907(2)
O1_6 O 0.92470(11) 0.25503(8) 0.24613(13)
O2_6 O 0.92877(11) 0.21018(8) 0.18176(13)
H5_6 H 0.9924 0.2998 0.2941
C10_6 C 0.98289(18) 0.24854(13) 0.2520(2)
C11_6 C 0.99981(21) 0.22525(15) 0.2438(2)
H6_6 H 0.9867 0.2025 0.2179
C13_6 C 0.94283(18) 0.23759(13) 0.2248(2)
O10_6 O 0.86684(15) 0.14979(10) 0.25782(16)
H21_6 H 0.8537(14) 0.1247(6) 0.2702(15)
H22_6 H 0.8880(16) 0.1600(10) 0.2830(15)
O11_6 O 0.89209(16) 0.30241(11) 0.2793(2)
C37_6 C 0.9260(4) 0.3265(3) 0.2950(5)
H23_6 H 0.9473 0.3289 0.2700
N1_3 N 0.9353(4) 0.3519(3) 0.3512(4)
C38_3 C 0.9778(5) 0.3753(3) 0.3629(6)
H24_3 H 0.9919 0.3664 0.3351
H25_3 H 0.9834 0.3721 0.4068
H26_3 H 0.9870 0.4033 0.3547
C39_3 C 0.8934(6) 0.3459(4) 0.3698(7)
H27_3 H 0.8728 0.3243 0.3449
H28_3 H 0.8928 0.3703 0.3614
H29_3 H 0.8886 0.3395 0.4146
O33_6 O 0.89370(11) 0.12953(8) 0.14752(14)
C94_3 C 0.01759(23) 0.04115(17) 0.1703(4)
H60_3 H 0.0294 0.0691 0.1722
C97_3 C 0.04188(16) 0.02409(23) 0.1690(4)
C98_3 C 0.08704(16) 0.05040(23) 0.1662(4)
C100_3 C 0.11233(17) 0.03602(25) 0.1777(5)
H62_3 H 0.1013 0.0095 0.1919
C102_3 C 0.15288(16) 0.05831(23) 0.1698(4)
H64_3 H 0.1689 0.0468 0.1774
C104_3 C 0.17037(15) 0.09785(21) 0.1505(3)
C106_3 C 0.14568(17) 0.11248(25) 0.1346(5)
H66_3 H 0.1565 0.1382 0.1171
C108_3 C 0.10393(19) 0.08901(27) 0.1444(6)
H68_3 H 0.0875 0.1000 0.1358
C110_3 C 0.21519(13) 0.12326(19) 0.1428(2)
H20_3 H 0.0124 0.9125 0.1358
C95_3 C 0.02355(16) 0.98241(23) 0.1703(4)
H61_3 H 0.0396 0.9706 0.1722
C96_3 C 0.97591(23) 0.01780(17) 0.1690(4)
C99_3 C 0.94960(23) 0.03665(17) 0.1662(4)
C101_3 C 0.96398(25) 0.07632(18) 0.1777(5)
H63_3 H 0.9905 0.0919 0.1919
C103_3 C 0.94169(23) 0.09458(16) 0.1698(4)
H65_3 H 0.9532 0.1222 0.1774
C105_3 C 0.90215(21) 0.07253(14) 0.1505(3)
C107_3 C 0.88752(25) 0.03321(18) 0.1346(5)
H67_3 H 0.8618 0.0184 0.1171
C109_3 C 0.91099(27) 0.01493(19) 0.1444(6)
C111_3 C 0.87674(19) 0.09194(14) 0.1428(2)
C28_3 C 0.95885(17) 0.97645(16) 0.1703(4)
H16_3 H 0.9309 0.9604 0.1722
C29_3 C 0.98220(17) 0.95812(16) 0.1690(4)
C30_3 C 0.96335(17) 0.91296(16) 0.1662(4)
C31_3 C 0.92368(18) 0.88767(17) 0.1777(5)
H17_3 H 0.9081 0.8987 0.1919
C32_3 C 0.90542(16) 0.84712(16) 0.1698(4)
H18_3 H 0.8778 0.8311 0.1774
C33_3 C 0.92747(14) 0.82963(15) 0.1505(3)
C34_3 C 0.96679(18) 0.85432(17) 0.1346(5)
H19_3 H 0.9816 0.8435 0.1171
C35_3 C 0.98507(19) 0.89607(19) 0.1444(6)
C36_3 C 0.90806(14) 0.78481(13) 0.1428(2)
H69_3 H 0.9000 0.9876 0.1358
C28_4 C 0.29219(17) 0.64311(16) 0.8369(4)
H16_4 H 0.2643 0.6270 0.8388
C29_4 C 0.31554(17) 0.62478(16) 0.8356(4)
C30_4 C 0.29669(17) 0.57962(16) 0.8328(4)
C31_4 C 0.25702(18) 0.55433(17) 0.8443(5)
H17_4 H 0.2415 0.5653 0.8585
C32_4 C 0.23876(16) 0.51378(16) 0.8364(4)
H18_4 H 0.2112 0.4977 0.8440
C33_4 C 0.26081(14) 0.49629(15) 0.8171(3)
C34_4 C 0.30013(18) 0.52098(17) 0.8012(5)
H19_4 H 0.3150 0.5101 0.7837
C35_4 C 0.31841(19) 0.56273(19) 0.8110(6)
H20_4 H 0.3458 0.5791 0.8024
C36_4 C 0.24140(14) 0.45147(13) 0.8094(2)
C94_4 C 0.35093(23) 0.70781(17) 0.8369(4)
C95_4 C 0.35689(16) 0.64907(23) 0.8369(4)
H60_4 H 0.3628 0.7357 0.8388
H61_4 H 0.3730 0.6372 0.8388
C96_4 C 0.30925(23) 0.68446(17) 0.8356(4)
C97_4 C 0.37522(16) 0.69075(23) 0.8356(4)
C98_4 C 0.42038(16) 0.71706(23) 0.8328(4)
C99_4 C 0.28294(23) 0.70331(17) 0.8328(4)
C100_4 C 0.44567(17) 0.70268(25) 0.8443(5)
C101_4 C 0.29732(25) 0.74298(18) 0.8443(5)
H62_4 H 0.4347 0.6761 0.8585
H63_4 H 0.3239 0.7585 0.8585
C102_4 C 0.48622(16) 0.72497(23) 0.8364(4)
C103_4 C 0.27503(23) 0.76124(16) 0.8364(4)
H64_4 H 0.5023 0.7134 0.8440
H65_4 H 0.2866 0.7888 0.8440
C104_4 C 0.50371(15) 0.76451(21) 0.8171(3)
C105_4 C 0.23549(21) 0.73919(14) 0.8171(3)
C106_4 C 0.47902(17) 0.77914(25) 0.8012(5)
C107_4 C 0.22086(25) 0.69987(18) 0.8012(5)
H66_4 H 0.4899 0.8048 0.7837
H67_4 H 0.1952 0.6850 0.7837
C108_4 C 0.43727(19) 0.75567(27) 0.8110(6)
C109_4 C 0.24433(27) 0.68159(19) 0.8110(6)
H68_4 H 0.4209 0.7666 0.8024
H69_4 H 0.2334 0.6542 0.8024
C110_4 C 0.54853(13) 0.78992(19) 0.8094(2)
C111_4 C 0.21008(19) 0.75860(14) 0.8094(2)
Fe2_2 Fe 0.499450(17) 0.037420(17) 0.49475(3)
O1_7 O 0.41164(8) 0.00301(8) 0.57946(13)
O2_7 O 0.45649(8) 0.05193(8) 0.51509(13)
O3_3 O 0.43084(9) 0.37566(9) 0.51916(16)
O4_7 O 0.46766(13) 0.40449(10) 0.60777(17)
C1_4 C 0.38839(14) 0.15030(13) 0.6763(2)
C2_7 C 0.39927(14) 0.18794(13) 0.6476(2)
H1_7 H 0.4119 0.1945 0.6077
C3_4 C 0.39091(15) 0.21526(13) 0.6796(2)
C4_4 C 0.37228(15) 0.20511(14) 0.7384(2)
H2_4 H 0.3671 0.2234 0.7596
C5_4 C 0.36092(15) 0.16806(14) 0.7672(2)
C6_4 C 0.36960(14) 0.14098(13) 0.7350(2)
H3_4 H 0.3625 0.1163 0.7539
C7_7 C 0.39786(14) 0.12156(13) 0.6428(2)
C8_7 C 0.37350(15) 0.08089(13) 0.6494(2)
H4_4 H 0.3497 0.0710 0.6728
C9_7 C 0.38359(15) 0.05363(13) 0.6214(2)
H5_7 H 0.3669 0.0260 0.6274
C10_7 C 0.41813(13) 0.06769(13) 0.5853(2)
C11_7 C 0.44142(15) 0.10790(14) 0.5771(2)
H6_7 H 0.4642 0.1176 0.5512
C12_7 C 0.43251(15) 0.13527(13) 0.6060(2)
H7_7 H 0.4498 0.1628 0.6006
C13_7 C 0.42908(13) 0.03858(13) 0.5581(2)
C14_7 C 0.40432(16) 0.25624(13) 0.6516(2)
C15_7 C 0.40284(15) 0.26176(14) 0.5862(2)
H8_7 H 0.3947 0.2401 0.5581
C16_7 C 0.41349(15) 0.29970(13) 0.5627(2)
H9_7 H 0.4108 0.3029 0.5190
C17_7 C 0.42816(16) 0.33308(14) 0.6032(2)
C18_4 C 0.42968(19) 0.32753(15) 0.6691(2)
H10_4 H 0.4381 0.3493 0.6970
C19_4 C 0.4186(2) 0.28946(16) 0.6929(2)
H11_4 H 0.4206 0.2860 0.7367
C20_7 C 0.44298(17) 0.37447(15) 0.5755(3)
C21_4 C 0.34187(14) 0.15904(13) 0.8319(2)
C22_4 C 0.31496(15) 0.17315(14) 0.8474(2)
H12_4 H 0.3076 0.1856 0.8161
C23_4 C 0.29964(14) 0.16859(14) 0.9086(2)
H13_4 H 0.2817 0.1775 0.9182
C24_4 C 0.31097(13) 0.15059(13) 0.9562(2)
C25_4 C 0.33533(15) 0.13511(14) 0.9404(2)
H14_4 H 0.3414 0.1214 0.9713
C26_4 C 0.35110(15) 0.13950(14) 0.8787(2)
H15_4 H 0.3680 0.1292 0.8691
O10_7 O 0.51688(10) 0.05039(11) 0.59115(16)
H21_7 H 0.5420(6) 0.0624(13) 0.6035(15)
H22_7 H 0.5067(10) 0.0614(13) 0.6163(15)
Fe5_2 Fe 0.460606(24) 0.413332(17) 0.44952(3)
Fe11_2 Fe 0.586668(17) 0.047274(17) 0.44952(3)
O28_4 O 0.49305(11) 0.03319(8) 0.39806(13)
O33_7 O 0.53714(8) 0.09751(8) 0.48085(14)
O39_2 O 0.53826(7) 0.01933(7) 0.49199(12)
C41 C 0.57142(19) 0.05506(14) 0.9904(2)
C45 C 0.50898(20) 0.05758(15) 0.9871(2)
C47 C 0.50050(21) 0.03895(15) 0.9283(2)
H33 H 0.4770 0.0338 0.9071
C49 C 0.52619(21) 0.02759(15) 0.8995(2)
C51 C 0.56195(19) 0.03627(14) 0.9317(2)
H35 H 0.5795 0.0292 0.9128
H37 H 0.6120 0.0164 0.9939
C75 C 0.43548(24) 0.09635(19) 0.9976(2)
H49 H 0.4221 0.1048 0.9697
C77 C 0.46247(26) 0.0853(2) 0.9738(2)
H51 H 0.4679 0.0873 0.9300
C81 C 0.51616(19) 0.00854(14) 0.8348(2)
C89 C 0.53355(21) 0.00200(15) 0.7263(2)
H57 H 0.5533 0.0081 0.6954
C91 C 0.54493(21) 0.01777(15) 0.7880(2)
H59 H 0.5721 0.0347 0.7976
H83 H 0.7938 0.0091 0.9885
Fe1 Fe 0.413332(17) 0.952726(17) 0.55048(3)
O7_2 O 0.46286(8) 0.90249(8) 0.51915(14)
O8_3 O 0.40154(9) 0.89557(8) 0.53045(15)
O9_2 O 0.46174(7) 0.98067(7) 0.50801(12)
C28_5 C 0.37448(17) 0.69022(16) 0.4964(4)
H16_5 H 0.4024 0.7063 0.4945
C29_5 C 0.35113(17) 0.70855(16) 0.4977(4)
C30_5 C 0.36998(17) 0.75371(16) 0.5005(4)
C31_5 C 0.40965(18) 0.77900(17) 0.4890(5)
H17_5 H 0.4252 0.7680 0.4748
C32_5 C 0.42791(16) 0.81955(16) 0.4969(4)
H18_5 H 0.4555 0.8356 0.4893
C33_5 C 0.40586(14) 0.83704(15) 0.5162(3)
C34_5 C 0.36654(18) 0.81235(17) 0.5321(5)
H19_5 H 0.3517 0.8232 0.5496
C35_5 C 0.34826(19) 0.77060(19) 0.5223(6)
H20_5 H 0.3209 0.7542 0.5309
C36_5 C 0.42527(14) 0.88186(13) 0.5239(2)
O11_7 O 0.36426(11) 0.92302(12) 0.6126(2)
C37_7 C 0.3402(3) 0.9329(2) 0.6283(5)
H23_7 H 0.3378 0.9518 0.6033
N1_4 N 0.3148(3) 0.9168(3) 0.6845(4)
C38_4 C 0.2914(3) 0.9359(4) 0.6962(6)
H24_4 H 0.3003 0.9589 0.6684
H25_4 H 0.2946 0.9447 0.7401
H26_4 H 0.2634 0.9171 0.6880
C39_4 C 0.3208(4) 0.8809(4) 0.7031(7)
H27_4 H 0.3424 0.8819 0.6782
H28_4 H 0.2964 0.8559 0.6947
H29_4 H 0.3272 0.8825 0.7479
Fe7 Fe 0.047274(17) 0.460606(24) 0.55048(3)
Fe8 Fe 0.539394(24) 0.586668(17) 0.55048(3)
Fe12 Fe 0.037420(17) 0.537970(24) 0.50525(3)
Fe15 Fe 0.500550(17) 0.962580(17) 0.50525(3)
Fe16 Fe 0.462030(24) 0.499450(17) 0.50525(3)
O12_4 O 0.00301(8) 0.59137(11) 0.42054(13)
O14_4 O 0.05193(8) 0.59544(11) 0.48491(13)
O16_4 O 0.37566(9) 0.94482(13) 0.48084(16)
O20_4 O 0.40449(10) 0.93683(16) 0.39223(17)
O23 O 0.44409(13) 0.95169(9) 0.63061(13)
O27 O 0.50695(11) 0.96681(8) 0.60194(13)
O29 O 0.03319(8) 0.54015(8) 0.60194(13)
O31_2 O 0.09751(8) 0.56037(11) 0.51915(14)
O32_2 O 0.43963(11) 0.53714(8) 0.51915(14)
O35_3 O 0.10443(8) 0.50597(12) 0.53045(15)
O36_3 O 0.49403(12) 0.59846(9) 0.53045(15)
O42_3 O 0.01933(7) 0.48107(10) 0.50801(12)
C40_4 C 0.15030(13) 0.76191(19) 0.3237(2)
C42_4 C 0.18794(13) 0.78867(19) 0.3524(2)
H30_4 H 0.1945 0.7826 0.3923
C44_4 C 0.21526(13) 0.82435(20) 0.3204(2)
C46_4 C 0.20511(14) 0.83283(21) 0.2616(2)
H32_4 H 0.2234 0.8563 0.2404
C48_4 C 0.16806(14) 0.80714(21) 0.2328(2)
C50_4 C 0.14098(13) 0.77138(19) 0.2650(2)
H34_4 H 0.1163 0.7538 0.2461
C52_4 C 0.12156(13) 0.72370(19) 0.3572(2)
C54_4 C 0.08089(13) 0.70739(20) 0.3506(2)
H36_4 H 0.0710 0.7213 0.3272
C56_4 C 0.05363(13) 0.67004(20) 0.3786(2)
H38_4 H 0.0260 0.6591 0.3726
C58_4 C 0.06769(13) 0.64956(18) 0.4147(2)
C60_4 C 0.10790(14) 0.66648(21) 0.4229(2)
H40_4 H 0.1176 0.6534 0.4488
C62_4 C 0.13527(13) 0.70276(20) 0.3940(2)
H42_4 H 0.1628 0.7130 0.3994
C64_4 C 0.03858(13) 0.60950(18) 0.4419(2)
C66_4 C 0.25624(13) 0.85192(21) 0.3484(2)
C68_4 C 0.26176(14) 0.85892(21) 0.4138(2)
H44_4 H 0.2401 0.8454 0.4419
C70_4 C 0.29970(13) 0.88621(20) 0.4373(2)
H46_4 H 0.3029 0.8921 0.4810
C72_4 C 0.33308(14) 0.90492(21) 0.3968(2)
C74_4 C 0.32753(15) 0.89785(24) 0.3309(2)
H48_4 H 0.3493 0.9112 0.3030
C76_4 C 0.28946(16) 0.87086(26) 0.3071(2)
H50_4 H 0.2860 0.8654 0.2633
C78_4 C 0.37447(15) 0.93149(23) 0.4245(3)
C80_4 C 0.15904(13) 0.81717(19) 0.1681(2)
C82_4 C 0.17315(14) 0.85819(21) 0.1526(2)
C83 C 0.47514(21) 0.98163(15) 0.8193(2)
H52_4 H 0.1856 0.8780 0.1839
H53 H 0.4553 0.9743 0.8506
C84_4 C 0.16859(14) 0.86895(20) 0.0914(2)
C85 C 0.46438(20) 0.96631(14) 0.7581(2)
H54_4 H 0.1775 0.8958 0.0818
H55 H 0.4375 0.9484 0.7485
C86_4 C 0.15059(13) 0.83962(18) 0.0438(2)
C87 C 0.49371(18) 0.97764(13) 0.7105(2)
C88_4 C 0.13511(14) 0.79978(21) 0.0596(2)
H56_4 H 0.1214 0.7800 0.0287
C90_4 C 0.13950(14) 0.78840(21) 0.1213(2)
H58_4 H 0.1292 0.7612 0.1309
C93 C 0.48042(17) 0.96468(12) 0.6427(2)
C94_5 C 0.31574(23) 0.62552(17) 0.4964(4)
C95_5 C 0.30978(16) 0.68426(23) 0.4964(4)
H60_5 H 0.3039 0.5976 0.4945
H61_5 H 0.2937 0.6961 0.4945
C96_5 C 0.35742(23) 0.64887(17) 0.4977(4)
C97_5 C 0.29145(16) 0.64258(23) 0.4977(4)
C98_5 C 0.24629(16) 0.61627(23) 0.5005(4)
C99_5 C 0.38373(23) 0.63002(17) 0.5005(4)
C100_5 C 0.22100(17) 0.63065(25) 0.4890(5)
C101_5 C 0.36935(25) 0.59035(18) 0.4890(5)
H62_5 H 0.2320 0.6572 0.4748
H63_5 H 0.3428 0.5748 0.4748
C102_5 C 0.18045(16) 0.60836(23) 0.4969(4)
C103_5 C 0.39164(23) 0.57209(16) 0.4969(4)
H64_5 H 0.1644 0.6199 0.4893
H65_5 H 0.3801 0.5445 0.4893
C104_5 C 0.16296(15) 0.56882(21) 0.5162(3)
C105_5 C 0.43118(21) 0.59414(14) 0.5162(3)
C106_5 C 0.18765(17) 0.55419(25) 0.5321(5)
C107_5 C 0.44581(25) 0.63346(18) 0.5321(5)
H66_5 H 0.1768 0.5285 0.5496
H67_5 H 0.4715 0.6483 0.5496
C108_5 C 0.22940(19) 0.57766(27) 0.5223(6)
C109_5 C 0.42234(27) 0.65174(19) 0.5223(6)
H68_5 H 0.2458 0.5667 0.5309
H69_5 H 0.4333 0.6791 0.5309
C110_5 C 0.11814(13) 0.54341(19) 0.5239(2)
C111_5 C 0.45659(19) 0.57473(14) 0.5239(2)
O44_4 O 0.05039(11) 0.53351(15) 0.40885(16)
H70_4 H 0.0624(13) 0.5204(14) 0.3965(15)
H72_4 H 0.0614(13) 0.5547(16) 0.3837(15)
N3 N 0.7313(4) 0.9815(3) 0.9822(4)
C115 C 0.6888(5) 0.9581(3) 0.9705(6)
H77 H 0.6747 0.9670 0.9983
H79 H 0.6832 0.9613 0.9266
H81 H 0.6796 0.9301 0.9787
C117 C 0.7732(6) 0.9875(4) 0.9636(7)
H85 H 0.7738 0.9631 0.9720
H87 H 0.7780 0.9939 0.9188
Fe3_2 Fe 0.952726(17) 0.539394(24) 0.44952(3)
Fe18_3 Fe 0.962580(17) 0.462030(24) 0.49475(3)
O18_2 O 0.94482(13) 0.56916(9) 0.51916(16)
O24_4 O 0.95169(9) 0.50759(9) 0.36939(13)
O37_4 O 0.89557(8) 0.49403(12) 0.46955(15)
O40_3 O 0.98067(7) 0.51893(10) 0.49199(12)
O46_4 O 0.92302(12) 0.55876(16) 0.3874(2)
C112_4 C 0.9329(2) 0.5927(4) 0.3717(5)
H74_4 H 0.9518 0.6140 0.3967
N2_4 N 0.9168(3) 0.6020(4) 0.3155(4)
C114_4 C 0.9359(4) 0.6445(5) 0.3038(6)
H76_4 H 0.9589 0.6586 0.3316
H78_4 H 0.9447 0.6501 0.2599
H80_4 H 0.9171 0.6537 0.3120
C116_4 C 0.8809(4) 0.5601(6) 0.2969(7)
H82_4 H 0.8819 0.5395 0.3218
H84_4 H 0.8559 0.5595 0.3053
H86_4 H 0.8825 0.5553 0.2521
O11_8 O 0.07698(12) 0.44124(16) 0.6126(2)
C37_8 C 0.0671(2) 0.4073(4) 0.6283(5)
H23_8 H 0.0482 0.3860 0.6033
N1_5 N 0.0832(3) 0.3980(4) 0.6845(4)
C38_5 C 0.0641(4) 0.3555(5) 0.6962(6)
H24_5 H 0.0411 0.3414 0.6684
H25_5 H 0.0553 0.3499 0.7401
H26_5 H 0.0829 0.3463 0.6880
C39_5 C 0.1191(4) 0.4399(6) 0.7031(7)
H27_5 H 0.1181 0.4605 0.6782
H28_5 H 0.1441 0.4405 0.6947
H29_5 H 0.1175 0.4447 0.7479
Fe18_4 Fe 0.537970(24) 0.500550(29) 0.49475(3)
O12_5 O 0.40863(11) 0.41164(14) 0.42054(13)
O14_5 O 0.40456(11) 0.45649(14) 0.48491(13)
O16_5 O 0.05518(13) 0.43084(16) 0.48084(16)
O20_5 O 0.06317(16) 0.46766(19) 0.39223(17)
O23_2 O 0.04831(9) 0.49241(16) 0.63061(13)
O24_5 O 0.49241(9) 0.44409(13) 0.36939(13)
O29_2 O 0.45985(8) 0.49305(11) 0.60194(13)
O37_5 O 0.50597(12) 0.40154(14) 0.46955(15)
O40_4 O 0.48107(10) 0.46174(12) 0.49199(12)
O42_4 O 0.51893(10) 0.53826(12) 0.50801(12)
C40_5 C 0.23809(19) 0.38839(23) 0.3237(2)
C42_5 C 0.21133(19) 0.39927(23) 0.3524(2)
H30_5 H 0.2174 0.4119 0.3923
C44_5 C 0.17565(20) 0.39091(24) 0.3204(2)
C46_5 C 0.16717(21) 0.37228(25) 0.2616(2)
H32_5 H 0.1437 0.3671 0.2404
C48_5 C 0.19286(21) 0.36092(25) 0.2328(2)
C50_5 C 0.22862(19) 0.36960(23) 0.2650(2)
H34_5 H 0.2462 0.3625 0.2461
C52_5 C 0.27630(19) 0.39786(23) 0.3572(2)
C54_5 C 0.29261(20) 0.37350(24) 0.3506(2)
H36_5 H 0.2787 0.3497 0.3272
C56_5 C 0.32996(20) 0.38359(24) 0.3786(2)
H38_5 H 0.3409 0.3669 0.3726
C58_5 C 0.35044(18) 0.41813(22) 0.4147(2)
C60_5 C 0.33352(21) 0.44142(25) 0.4229(2)
H40_5 H 0.3466 0.4642 0.4488
C62_5 C 0.29724(20) 0.43251(24) 0.3940(2)
H42_5 H 0.2870 0.4498 0.3994
C64_5 C 0.39050(18) 0.42908(22) 0.4419(2)
C66_5 C 0.14808(21) 0.40432(25) 0.3484(2)
C68_5 C 0.14108(21) 0.40284(25) 0.4138(2)
H44_5 H 0.1546 0.3947 0.4419
C70_5 C 0.11379(20) 0.41349(24) 0.4373(2)
H46_5 H 0.1079 0.4108 0.4810
C72_5 C 0.09508(21) 0.42816(25) 0.3968(2)
C74_5 C 0.10215(24) 0.42968(28) 0.3309(2)
H48_5 H 0.0888 0.4381 0.3030
C76_5 C 0.12914(26) 0.41860(31) 0.3071(2)
H50_5 H 0.1346 0.4206 0.2633
C78_5 C 0.06851(23) 0.44298(27) 0.4245(3)
C80_5 C 0.18283(19) 0.34187(23) 0.1681(2)
C82_5 C 0.14181(21) 0.31496(25) 0.1526(2)
C83_2 C 0.01837(15) 0.49352(26) 0.8193(2)
H52_5 H 0.1220 0.3076 0.1839
H53_2 H 0.0257 0.4811 0.8506
C84_5 C 0.13105(20) 0.29964(24) 0.0914(2)
C85_2 C 0.03369(14) 0.49808(24) 0.7581(2)
H54_5 H 0.1042 0.2817 0.0818
H55_2 H 0.0516 0.4892 0.7485
C86_5 C 0.16038(18) 0.31097(22) 0.0438(2)
C87_2 C 0.02236(13) 0.51608(22) 0.7105(2)
C88_5 C 0.20022(21) 0.33533(25) 0.0596(2)
H56_5 H 0.2200 0.3414 0.0287
C90_5 C 0.21160(21) 0.35110(25) 0.1213(2)
H58_5 H 0.2388 0.3680 0.1309
C93_2 C 0.03532(12) 0.51575(21) 0.6427(2)
O44_5 O 0.46649(15) 0.51688(19) 0.40885(16)
H70_5 H 0.4796(14) 0.5420(19) 0.3965(15)
H72_5 H 0.4453(16) 0.5067(21) 0.3837(15)
O46_5 O 0.44124(16) 0.36426(20) 0.3874(2)
C112_5 C 0.4073(4) 0.3402(4) 0.3717(5)
H74_5 H 0.3860 0.3378 0.3967
N2_5 N 0.3980(4) 0.3148(5) 0.3155(4)
N3_2 N 0.0185(3) 0.7499(5) 0.9822(4)
C114_5 C 0.3555(5) 0.2914(6) 0.3038(6)
C115_2 C 0.0419(3) 0.7308(6) 0.9705(6)
H76_5 H 0.3414 0.3003 0.3316
H77_2 H 0.0330 0.7078 0.9983
H78_5 H 0.3499 0.2946 0.2599
H79_2 H 0.0387 0.7220 0.9266
H80_5 H 0.3463 0.2634 0.3120
H81_2 H 0.0699 0.7496 0.9787
C116_5 C 0.4399(6) 0.3208(7) 0.2969(7)
C117_2 C 0.0125(4) 0.7858(7) 0.9636(7)
H82_5 H 0.4605 0.3424 0.3218
H84_5 H 0.4405 0.2964 0.3053
H85_2 H 0.0369 0.8108 0.9720
H86_5 H 0.4447 0.3272 0.2521
H87_2 H 0.0061 0.7842 0.9188
O1_8 O 0.99699(8) 0.40863(11) 0.57946(13)
O2_8 O 0.94807(8) 0.40456(11) 0.51509(13)
O3_4 O 0.62434(9) 0.05518(13) 0.51916(16)
O4_8 O 0.59551(10) 0.06317(16) 0.60777(17)
C1_5 C 0.84970(13) 0.23809(19) 0.6763(2)
C2_8 C 0.81206(13) 0.21133(19) 0.6476(2)
H1_8 H 0.8055 0.2174 0.6077
C3_5 C 0.78474(13) 0.17565(20) 0.6796(2)
C4_5 C 0.79489(14) 0.16717(21) 0.7384(2)
H2_5 H 0.7766 0.1437 0.7596
C5_5 C 0.83194(14) 0.19286(21) 0.7672(2)
C6_5 C 0.85902(13) 0.22862(19) 0.7350(2)
H3_5 H 0.8837 0.2462 0.7539
C7_8 C 0.87844(13) 0.27630(19) 0.6428(2)
C8_8 C 0.91911(13) 0.29261(20) 0.6494(2)
H4_5 H 0.9290 0.2787 0.6728
C9_8 C 0.94637(13) 0.32996(20) 0.6214(2)
H5_8 H 0.9740 0.3409 0.6274
C10_8 C 0.93231(13) 0.35044(18) 0.5853(2)
C11_8 C 0.89210(14) 0.33352(21) 0.5771(2)
H6_8 H 0.8824 0.3466 0.5512
C12_8 C 0.86473(13) 0.29724(20) 0.6060(2)
H7_8 H 0.8372 0.2870 0.6006
C13_8 C 0.96142(13) 0.39050(18) 0.5581(2)
C14_8 C 0.74376(13) 0.14808(21) 0.6516(2)
C15_8 C 0.73824(14) 0.14108(21) 0.5862(2)
H8_8 H 0.7599 0.1546 0.5581
C16_8 C 0.70030(13) 0.11379(20) 0.5627(2)
H9_8 H 0.6971 0.1079 0.5190
C17_8 C 0.66692(14) 0.09508(21) 0.6032(2)
C18_5 C 0.67247(15) 0.10215(24) 0.6691(2)
H10_5 H 0.6507 0.0888 0.6970
C19_5 C 0.71054(16) 0.12914(26) 0.6929(2)
H11_5 H 0.7140 0.1346 0.7367
C20_8 C 0.62553(15) 0.06851(23) 0.5755(3)
C21_5 C 0.84096(13) 0.18283(19) 0.8319(2)
C22_5 C 0.82685(14) 0.14181(21) 0.8474(2)
H12_5 H 0.8144 0.1220 0.8161
C23_5 C 0.83141(14) 0.13105(20) 0.9086(2)
H13_5 H 0.8225 0.1042 0.9182
C24_5 C 0.84941(13) 0.16038(18) 0.9562(2)
C25_5 C 0.86489(14) 0.20022(21) 0.9404(2)
H14_5 H 0.8786 0.2200 0.9713
C26_5 C 0.86050(14) 0.21160(21) 0.8787(2)
H15_5 H 0.8708 0.2388 0.8691
O10_8 O 0.94961(11) 0.46649(15) 0.59115(16)
H21_8 H 0.9376(13) 0.4796(14) 0.6035(15)
H22_8 H 0.9386(13) 0.4453(16) 0.6163(15)
O28_5 O 0.96681(8) 0.45985(14) 0.39806(13)
O33_8 O 0.90249(8) 0.43963(11) 0.48085(14)
C41_2 C 0.94494(14) 0.51637(24) 0.9904(2)
C45_2 C 0.94242(15) 0.45141(25) 0.9871(2)
C47_2 C 0.96105(15) 0.46156(26) 0.9283(2)
H33_2 H 0.9662 0.4433 0.9071
C49_2 C 0.97241(15) 0.49861(26) 0.8995(2)
C51_2 C 0.96373(14) 0.52569(24) 0.9317(2)
H35_2 H 0.9708 0.5504 0.9128
H37_2 H 0.9836 0.5957 0.9939
C75_2 C 0.90365(19) 0.33914(31) 0.9976(2)
H49_2 H 0.8952 0.3174 0.9697
C77_2 C 0.9147(2) 0.37721(33) 0.9738(2)
H51_2 H 0.9127 0.3807 0.9300
C81_2 C 0.99146(14) 0.50763(24) 0.8348(2)
C89_2 C 0.99800(15) 0.53156(26) 0.7263(2)
H57_2 H 0.9919 0.5453 0.6954
C91_2 C 0.98223(15) 0.52717(26) 0.7880(2)
H59_2 H 0.9653 0.5375 0.7976
H83_2 H 0.9909 0.7848 0.9885
O24_6 O 0.55591(13) 0.04831(9) 0.36939(13)
O37_6 O 0.59846(14) 0.10443(8) 0.46955(15)
O46_6 O 0.63574(20) 0.07698(12) 0.3874(2)
C112_6 C 0.6598(4) 0.0671(2) 0.3717(5)
H74_6 H 0.6622 0.0482 0.3967
N2_6 N 0.6852(5) 0.0832(3) 0.3155(4)
C114_6 C 0.7086(6) 0.0641(4) 0.3038(6)
H76_6 H 0.6997 0.0411 0.3316
H78_6 H 0.7054 0.0553 0.2599
H80_6 H 0.7366 0.0829 0.3120
C116_6 C 0.6792(7) 0.1191(4) 0.2969(7)
H82_6 H 0.6576 0.1181 0.3218
H84_6 H 0.7036 0.1441 0.3053
H86_6 H 0.6728 0.1175 0.2521
O1_9 O 0.59137(11) 0.58836(8) 0.57946(13)
O2_9 O 0.59544(11) 0.54351(8) 0.51509(13)
O4_9 O 0.93683(16) 0.53234(13) 0.60777(17)
C1_6 C 0.76191(19) 0.61161(14) 0.6763(2)
C2_9 C 0.78867(19) 0.60073(14) 0.6476(2)
H1_9 H 0.7826 0.5881 0.6077
C3_6 C 0.82435(20) 0.60909(15) 0.6796(2)
C4_6 C 0.83283(21) 0.62772(15) 0.7384(2)
H2_6 H 0.8563 0.6329 0.7596
C5_6 C 0.80714(21) 0.63908(15) 0.7672(2)
C6_6 C 0.77138(19) 0.63040(14) 0.7350(2)
H3_6 H 0.7538 0.6375 0.7539
C7_9 C 0.72370(19) 0.60214(14) 0.6428(2)
C8_9 C 0.70739(20) 0.62650(15) 0.6494(2)
H4_6 H 0.7213 0.6503 0.6728
C9_9 C 0.67004(20) 0.61641(15) 0.6214(2)
H5_9 H 0.6591 0.6331 0.6274
C10_9 C 0.64956(18) 0.58187(13) 0.5853(2)
C11_9 C 0.66648(21) 0.55858(15) 0.5771(2)
H6_9 H 0.6534 0.5358 0.5512
C12_9 C 0.70276(20) 0.56749(15) 0.6060(2)
H7_9 H 0.7130 0.5502 0.6006
C13_9 C 0.60950(18) 0.57092(13) 0.5581(2)
C14_9 C 0.85192(21) 0.59568(16) 0.6516(2)
C15_9 C 0.85892(21) 0.59716(15) 0.5862(2)
H8_9 H 0.8454 0.6053 0.5581
C16_9 C 0.88621(20) 0.58651(15) 0.5627(2)
H9_9 H 0.8921 0.5892 0.5190
C17_9 C 0.90492(21) 0.57184(16) 0.6032(2)
C18_6 C 0.89785(24) 0.57032(19) 0.6691(2)
H10_6 H 0.9112 0.5619 0.6970
C19_6 C 0.87086(26) 0.5814(2) 0.6929(2)
H11_6 H 0.8654 0.5794 0.7367
C20_9 C 0.93149(23) 0.55702(17) 0.5755(3)
C21_6 C 0.81717(19) 0.65813(14) 0.8319(2)
C22_6 C 0.85819(21) 0.68504(15) 0.8474(2)
H12_6 H 0.8780 0.6924 0.8161
C23_6 C 0.86895(20) 0.70036(14) 0.9086(2)
H13_6 H 0.8958 0.7183 0.9182
C24_6 C 0.83962(18) 0.68903(13) 0.9562(2)
C25_6 C 0.79978(21) 0.66467(15) 0.9404(2)
H14_6 H 0.7800 0.6586 0.9713
C26_6 C 0.78840(21) 0.64890(15) 0.8787(2)
H15_6 H 0.7612 0.6320 0.8691
O10_9 O 0.53351(15) 0.48312(10) 0.59115(16)
H21_9 H 0.5204(14) 0.4580(6) 0.6035(15)
H22_9 H 0.5547(16) 0.4933(10) 0.6163(15)
O11_9 O 0.55876(16) 0.63574(11) 0.6126(2)
C37_9 C 0.5927(4) 0.6598(3) 0.6283(5)
H23_9 H 0.6140 0.6622 0.6033
N1_6 N 0.6020(4) 0.6852(3) 0.6845(4)
C38_6 C 0.6445(5) 0.7086(3) 0.6962(6)
H24_6 H 0.6586 0.6997 0.6684
H25_6 H 0.6501 0.7054 0.7401
H26_6 H 0.6537 0.7366 0.6880
C39_6 C 0.5601(6) 0.6792(4) 0.7031(7)
H27_6 H 0.5395 0.6576 0.6782
H28_6 H 0.5595 0.7036 0.6947
H29_6 H 0.5553 0.6728 0.7479
O12_6 O 0.58836(14) 0.99699(8) 0.42054(13)
O14_6 O 0.54351(14) 0.94807(8) 0.48491(13)
O16_6 O 0.56916(16) 0.62434(9) 0.48084(16)
O20_6 O 0.53234(19) 0.59551(10) 0.39223(17)
O23_3 O 0.50759(16) 0.55591(13) 0.63061(13)
O28_6 O 0.54015(14) 0.50695(11) 0.39806(13)
O33_9 O 0.56037(11) 0.46286(8) 0.48085(14)
C40_6 C 0.61161(23) 0.84970(13) 0.3237(2)
C41_3 C 0.48363(24) 0.42858(19) 0.9904(2)
C42_6 C 0.60073(23) 0.81206(13) 0.3524(2)
H30_6 H 0.5881 0.8055 0.3923
C44_6 C 0.60909(24) 0.78474(13) 0.3204(2)
C45_3 C 0.54859(25) 0.49102(20) 0.9871(2)
C46_6 C 0.62772(25) 0.79489(14) 0.2616(2)
C47_3 C 0.53844(26) 0.49950(21) 0.9283(2)
H32_6 H 0.6329 0.7766 0.2404
H33_3 H 0.5567 0.5230 0.9071
C48_6 C 0.63908(25) 0.83194(14) 0.2328(2)
C49_3 C 0.50139(26) 0.47381(21) 0.8995(2)
C50_6 C 0.63040(23) 0.85902(13) 0.2650(2)
C51_3 C 0.47431(24) 0.43805(19) 0.9317(2)
H34_6 H 0.6375 0.8837 0.2461
H35_3 H 0.4496 0.4205 0.9128
C52_6 C 0.60214(23) 0.87844(13) 0.3572(2)
C54_6 C 0.62650(24) 0.91911(13) 0.3506(2)
H36_6 H 0.6503 0.9290 0.3272
H37_3 H 0.4043 0.3880 0.9939
C56_6 C 0.61641(24) 0.94637(13) 0.3786(2)
H38_6 H 0.6331 0.9740 0.3726
C58_6 C 0.58187(22) 0.93231(13) 0.4147(2)
C60_6 C 0.55858(25) 0.89210(14) 0.4229(2)
H40_6 H 0.5358 0.8824 0.4488
C62_6 C 0.56749(24) 0.86473(13) 0.3940(2)
H42_6 H 0.5502 0.8372 0.3994
C64_6 C 0.57092(22) 0.96142(13) 0.4419(2)
C66_6 C 0.59568(25) 0.74376(13) 0.3484(2)
C68_6 C 0.59716(25) 0.73824(14) 0.4138(2)
H44_6 H 0.6053 0.7599 0.4419
C70_6 C 0.58651(24) 0.70030(13) 0.4373(2)
H46_6 H 0.5892 0.6971 0.4810
C72_6 C 0.57184(25) 0.66692(14) 0.3968(2)
C74_6 C 0.57032(28) 0.67247(15) 0.3309(2)
C75_3 C 0.66086(31) 0.56452(24) 0.9976(2)
H48_6 H 0.5619 0.6507 0.3030
H49_3 H 0.6826 0.5779 0.9697
C76_6 C 0.58140(31) 0.71054(16) 0.3071(2)
C77_3 C 0.62279(33) 0.53753(26) 0.9738(2)
H50_6 H 0.5794 0.7140 0.2633
H51_3 H 0.6193 0.5321 0.9300
C78_6 C 0.55702(27) 0.62553(15) 0.4245(3)
C80_6 C 0.65813(23) 0.84096(13) 0.1681(2)
C81_3 C 0.49237(24) 0.48384(19) 0.8348(2)
C82_6 C 0.68504(25) 0.82685(14) 0.1526(2)
C83_3 C 0.50648(26) 0.52486(21) 0.8193(2)
H52_6 H 0.6924 0.8144 0.1839
H53_3 H 0.5189 0.5447 0.8506
C84_6 C 0.70036(24) 0.83141(14) 0.0914(2)
C85_3 C 0.50192(24) 0.53562(20) 0.7581(2)
H54_6 H 0.7183 0.8225 0.0818
H55_3 H 0.5108 0.5625 0.7485
C86_6 C 0.68903(22) 0.84941(13) 0.0438(2)
C87_3 C 0.48392(22) 0.50629(18) 0.7105(2)
C88_6 C 0.66467(25) 0.86489(14) 0.0596(2)
C89_3 C 0.46844(26) 0.46645(21) 0.7263(2)
H56_6 H 0.6586 0.8786 0.0287
H57_3 H 0.4547 0.4467 0.6954
C90_6 C 0.64890(25) 0.86050(14) 0.1213(2)
C91_3 C 0.47283(26) 0.45507(21) 0.7880(2)
H58_6 H 0.6320 0.8708 0.1309
H59_3 H 0.4625 0.4279 0.7976
C93_3 C 0.48425(21) 0.51958(17) 0.6427(2)
O44_6 O 0.48312(19) 0.94961(11) 0.40885(16)
H70_6 H 0.4580(19) 0.9376(13) 0.3965(15)
H72_6 H 0.4933(21) 0.9386(13) 0.3837(15)
N3_3 N 0.2501(5) 0.2687(4) 0.9822(4)
C115_3 C 0.2692(6) 0.3112(5) 0.9705(6)
H77_3 H 0.2922 0.3253 0.9983
H79_3 H 0.2780 0.3168 0.9266
H81_3 H 0.2504 0.3204 0.9787
C117_3 C 0.2142(7) 0.2268(6) 0.9636(7)
H83_3 H 0.2152 0.2062 0.9885
H85_3 H 0.1892 0.2262 0.9720
H87_3 H 0.2158 0.2220 0.9188
C1_7 C 0.05506(14) 0.48363(13) 0.0096(2)
C3_7 C 0.05758(15) 0.54859(13) 0.0129(2)
C4_7 C 0.03895(15) 0.53844(14) 0.0717(2)
H2_7 H 0.0338 0.5567 0.0929
C5_7 C 0.02759(15) 0.50139(14) 0.1005(2)
C6_7 C 0.03627(14) 0.47431(13) 0.0683(2)
H3_7 H 0.0292 0.4496 0.0872
H4_7 H 0.0164 0.4043 0.0061
C18_7 C 0.09635(19) 0.66086(15) 0.0024(2)
H10_7 H 0.1048 0.6826 0.0303
C19_7 C 0.0853(2) 0.62279(16) 0.0262(2)
H11_7 H 0.0873 0.6193 0.0700
C21_7 C 0.00854(14) 0.49237(13) 0.1652(2)
C25_7 C 0.00200(15) 0.46844(14) 0.2737(2)
H14_7 H 0.0081 0.4547 0.3046
C26_7 C 0.01777(15) 0.47283(14) 0.2120(2)
H15_7 H 0.0347 0.4625 0.2024
H27_7 H 0.0091 0.2152 0.0115
C22_7 C 0.98163(15) 0.50648(14) 0.1807(2)
H12_7 H 0.9743 0.5189 0.1494
C23_7 C 0.96631(14) 0.50192(14) 0.2419(2)
H13_7 H 0.9484 0.5108 0.2515
C24_7 C 0.97764(13) 0.48392(13) 0.2895(2)
C27_7 C 0.96468(12) 0.48425(12) 0.3573(2)
N1_7 N 0.9815(3) 0.2501(3) 0.0178(4)
C38_7 C 0.9581(3) 0.2692(4) 0.0295(6)
H24_7 H 0.9670 0.2922 0.0017
H25_7 H 0.9613 0.2780 0.0734
H26_7 H 0.9301 0.2504 0.0213
C39_7 C 0.9875(4) 0.2142(4) 0.0364(7)
H28_7 H 0.9631 0.1892 0.0280
H29_7 H 0.9939 0.2158 0.0812
C1_8 C 0.51637(13) 0.57142(19) 0.0096(2)
C3_8 C 0.45141(13) 0.50898(20) 0.0129(2)
C4_8 C 0.46156(14) 0.50050(21) 0.0717(2)
H2_8 H 0.4433 0.4770 0.0929
C5_8 C 0.49861(14) 0.52619(21) 0.1005(2)
C6_8 C 0.52569(13) 0.56195(19) 0.0683(2)
H3_8 H 0.5504 0.5795 0.0872
H4_8 H 0.5957 0.6120 0.0061
C18_8 C 0.33914(15) 0.43548(24) 0.0024(2)
H10_8 H 0.3174 0.4221 0.0303
C19_8 C 0.37721(16) 0.46247(26) 0.0262(2)
H11_8 H 0.3807 0.4679 0.0700
C21_8 C 0.50763(13) 0.51616(19) 0.1652(2)
C22_8 C 0.49352(14) 0.47514(21) 0.1807(2)
H12_8 H 0.4811 0.4553 0.1494
C23_8 C 0.49808(14) 0.46438(20) 0.2419(2)
H13_8 H 0.4892 0.4375 0.2515
C24_8 C 0.51608(13) 0.49371(18) 0.2895(2)
C25_8 C 0.53156(14) 0.53355(21) 0.2737(2)
H14_8 H 0.5453 0.5533 0.3046
C26_8 C 0.52717(14) 0.54493(21) 0.2120(2)
H15_8 H 0.5375 0.5721 0.2024
C27_8 C 0.51575(12) 0.48042(17) 0.3573(2)
N1_8 N 0.7499(3) 0.7313(4) 0.0178(4)
C38_8 C 0.7308(4) 0.6888(5) 0.0295(6)
H24_8 H 0.7078 0.6747 0.0017
H25_8 H 0.7220 0.6832 0.0734
H26_8 H 0.7496 0.6796 0.0213
C39_8 C 0.7858(4) 0.7732(6) 0.0364(7)
H27_8 H 0.7848 0.7938 0.0115
H28_8 H 0.8108 0.7738 0.0280
H29_8 H 0.7842 0.7780 0.0812
C22_9 C 0.52486(21) 0.01837(15) 0.1807(2)
H12_9 H 0.5447 0.0257 0.1494
C23_9 C 0.53562(20) 0.03369(14) 0.2419(2)
H13_9 H 0.5625 0.0516 0.2515
C24_9 C 0.50629(18) 0.02236(13) 0.2895(2)
C27_9 C 0.51958(17) 0.03532(12) 0.3573(2)
N1_9 N 0.2687(4) 0.0185(3) 0.0178(4)
C38_9 C 0.3112(5) 0.0419(3) 0.0295(6)
H24_9 H 0.3253 0.0330 0.0017
H25_9 H 0.3168 0.0387 0.0734
H26_9 H 0.3204 0.0699 0.0213
C39_9 C 0.2268(6) 0.0125(4) 0.0364(7)
H28_9 H 0.2262 0.0369 0.0280
H29_9 H 0.2220 0.0061 0.0812
C1_9 C 0.42858(19) 0.94494(14) 0.0096(2)
C3_9 C 0.49102(20) 0.94242(15) 0.0129(2)
C4_9 C 0.49950(21) 0.96105(15) 0.0717(2)
H2_9 H 0.5230 0.9662 0.0929
C5_9 C 0.47381(21) 0.97241(15) 0.1005(2)
C6_9 C 0.43805(19) 0.96373(14) 0.0683(2)
H3_9 H 0.4205 0.9708 0.0872
H4_9 H 0.3880 0.9836 0.0061
C18_9 C 0.56452(24) 0.90365(19) 0.0024(2)
H10_9 H 0.5779 0.8952 0.0303
C19_9 C 0.53753(26) 0.9147(2) 0.0262(2)
H11_9 H 0.5321 0.9127 0.0700
C21_9 C 0.48384(19) 0.99146(14) 0.1652(2)
C25_9 C 0.46645(21) 0.99800(15) 0.2737(2)
H14_9 H 0.4467 0.9919 0.3046
C26_9 C 0.45507(21) 0.98223(15) 0.2120(2)
H15_9 H 0.4279 0.9653 0.2024
H27_9 H 0.2062 0.9909 0.0115
C28_6 C 0.62552(17) 0.30978(16) 0.5036(4)
H16_6 H 0.5976 0.2937 0.5055
C29_6 C 0.64887(17) 0.29145(16) 0.5023(4)
C30_6 C 0.63002(17) 0.24629(16) 0.4995(4)
C31_6 C 0.59035(18) 0.22100(17) 0.5110(5)
H17_6 H 0.5748 0.2320 0.5252
C32_6 C 0.57209(16) 0.18045(16) 0.5031(4)
H18_6 H 0.5445 0.1644 0.5107
C33_6 C 0.59414(14) 0.16296(15) 0.4838(3)
C34_6 C 0.63346(18) 0.18765(17) 0.4679(5)
H19_6 H 0.6483 0.1768 0.4504
C35_6 C 0.65174(19) 0.22940(19) 0.4777(6)
H20_6 H 0.6791 0.2458 0.4691
C36_6 C 0.57473(14) 0.11814(13) 0.4761(2)
C94_6 C 0.68426(23) 0.37448(17) 0.5036(4)
C95_6 C 0.69022(16) 0.31574(23) 0.5036(4)
H60_6 H 0.6961 0.4024 0.5055
H61_6 H 0.7063 0.3039 0.5055
C96_6 C 0.64258(23) 0.35113(17) 0.5023(4)
C97_6 C 0.70855(16) 0.35742(23) 0.5023(4)
C98_6 C 0.75371(16) 0.38373(23) 0.4995(4)
C99_6 C 0.61627(23) 0.36998(17) 0.4995(4)
C100_6 C 0.77900(17) 0.36935(25) 0.5110(5)
C101_6 C 0.63065(25) 0.40965(18) 0.5110(5)
H62_6 H 0.7680 0.3428 0.5252
H63_6 H 0.6572 0.4252 0.5252
C102_6 C 0.81955(16) 0.39164(23) 0.5031(4)
C103_6 C 0.60836(23) 0.42791(16) 0.5031(4)
H64_6 H 0.8356 0.3801 0.5107
H65_6 H 0.6199 0.4555 0.5107
C104_6 C 0.83704(15) 0.43118(21) 0.4838(3)
C105_6 C 0.56882(21) 0.40586(14) 0.4838(3)
C106_6 C 0.81235(17) 0.44581(25) 0.4679(5)
C107_6 C 0.55419(25) 0.36654(18) 0.4679(5)
H66_6 H 0.8232 0.4715 0.4504
H67_6 H 0.5285 0.3517 0.4504
C108_6 C 0.77060(19) 0.42234(27) 0.4777(6)
C109_6 C 0.57766(27) 0.34826(19) 0.4777(6)
H68_6 H 0.7542 0.4333 0.4691
H69_6 H 0.5667 0.3209 0.4691
C110_6 C 0.88186(13) 0.45659(19) 0.4761(2)
C111_6 C 0.54341(19) 0.42527(14) 0.4761(2)
loop_
_geom_bond_atom_site_label_1
_geom_bond_atom_site_label_2
_geom_bond_site_symmetry_1
_geom_bond_site_symmetry_2
O5 C27 1_555 1_555
O6 C27 1_555 1_555
Fe4 O13 1_555 1_555
Fe6 O5 1_555 1_555
Fe10 O17 1_555 1_555
Fe13 O15 1_555 1_555
Fe14 O6 1_555 1_555
O13 C65 1_555 1_555
O15 C65 1_555 1_555
O17 C79 1_555 1_555
O19 Fe4 1_555 1_555
O21 C79 1_555 1_555
O25 Fe4 1_555 1_555
O30 Fe13 1_555 1_555
O34 Fe13 1_555 1_555
O38 Fe4 1_555 1_555
O41 Fe4 1_555 1_555
O43 Fe13 1_555 1_555
C43 H31 1_555 1_555
C55 C53 1_555 1_555
C57 C55 1_555 1_555
H39 C57 1_555 1_555
C59 C57 1_555 1_555
C61 C59 1_555 1_555
H41 C61 1_555 1_555
C63 C53 1_555 1_555
H43 C63 1_555 1_555
C65 C59 1_555 1_555
C69 C67 1_555 1_555
H45 C69 1_555 1_555
C71 C69 1_555 1_555
H47 C71 1_555 1_555
C73 C71 1_555 1_555
C79 C73 1_555 1_555
O45 Fe13 1_555 1_555
H71 O45 1_555 1_555
H73 O45 1_555 1_555
O47 Fe4 1_555 1_555
C113 O47 1_555 1_555
H75 C113 1_555 1_555
Fe13 O41 1_555 1_555
C61 C63 1_555 1_555
Fe9 O22 1_555 1_555
Fe17 O26 1_555 1_555
O22 C92 1_555 1_555
O26 C92 1_555 1_555
Fe9_2 O22_2 1_555 1_555
Fe17_2 O26_2 1_555 1_555
O22_2 C92_2 1_555 1_555
O26_2 C92_2 1_555 1_555
O25 C27_2 1_555 1_555
O6_2 C27_2 1_555 1_555
Fe4_2 O13_2 1_555 1_555
Fe10_2 O17_2 1_555 1_555
Fe13_2 O15_2 1_555 1_555
Fe14_2 O6_2 1_555 1_555
O13_2 C65_2 1_555 1_555
O15_2 C65_2 1_555 1_555
O17_2 C79_2 1_555 1_555
O19_2 Fe4_2 1_555 1_555
O21_2 C79_2 1_555 1_555
O25_2 Fe4_2 1_555 1_555
O30_2 Fe13_2 1_555 1_555
O34_2 Fe13_2 1_555 1_555
O38_2 Fe4_2 1_555 1_555
O41_2 Fe4_2 1_555 1_555
O43_2 Fe13_2 1_555 1_555
C43_2 H31_2 1_555 1_555
C55_2 C53_2 1_555 1_555
C57_2 C55_2 1_555 1_555
H39_2 C57_2 1_555 1_555
C59_2 C57_2 1_555 1_555
C61_2 C59_2 1_555 1_555
H41_2 C61_2 1_555 1_555
C63_2 C53_2 1_555 1_555
H43_2 C63_2 1_555 1_555
C65_2 C59_2 1_555 1_555
C69_2 C67_2 1_555 1_555
H45_2 C69_2 1_555 1_555
C71_2 C69_2 1_555 1_555
H47_2 C71_2 1_555 1_555
C73_2 C71_2 1_555 1_555
C79_2 C73_2 1_555 1_555
O45_2 Fe13_2 1_555 1_555
H71_2 O45_2 1_555 1_555
H73_2 O45_2 1_555 1_555
O47_2 Fe4_2 1_555 1_555
C113_2 O47_2 1_555 1_555
H75_2 C113_2 1_555 1_555
Fe13_2 O41_2 1_555 1_555
C61_2 C63_2 1_555 1_555
O25_2 C27_3 1_555 1_555
O6_3 C27_3 1_555 1_555
Fe6 O13_3 1_555 1_555
Fe10_3 O17_3 1_555 1_555
Fe13_3 O15_3 1_555 1_555
Fe14_3 O6_3 1_555 1_555
O13_3 C65_3 1_555 1_555
O15_3 C65_3 1_555 1_555
O17_3 C79_3 1_555 1_555
O19_3 Fe6 1_555 1_555
O21_3 C79_3 1_555 1_555
O30_3 Fe13_3 1_555 1_555
O34_3 Fe13_3 1_555 1_555
O38_3 Fe6 1_555 1_555
O41_3 Fe6 1_555 1_555
O43_3 Fe13_3 1_555 1_555
C43_3 H31_3 1_555 1_555
C55_3 C53_3 1_555 1_555
C57_3 C55_3 1_555 1_555
H39_3 C57_3 1_555 1_555
C59_3 C57_3 1_555 1_555
C61_3 C59_3 1_555 1_555
H41_3 C61_3 1_555 1_555
C63_3 C53_3 1_555 1_555
H43_3 C63_3 1_555 1_555
C65_3 C59_3 1_555 1_555
C69_3 C67_3 1_555 1_555
H45_3 C69_3 1_555 1_555
C71_3 C69_3 1_555 1_555
H47_3 C71_3 1_555 1_555
C73_3 C71_3 1_555 1_555
C79_3 C73_3 1_555 1_555
O45_3 Fe13_3 1_555 1_555
H71_3 O45_3 1_555 1_555
H73_3 O45_3 1_555 1_555
O47_3 Fe6 1_555 1_555
C113_3 O47_3 1_555 1_555
H75_3 C113_3 1_555 1_555
Fe13_3 O41_3 1_555 1_555
C61_3 C63_3 1_555 1_555
Fe9_3 O22_3 1_555 1_555
Fe17_3 O26_3 1_555 1_555
O22_3 C92_3 1_555 1_555
O26_3 C92_3 1_555 1_555
Fe9_2 O1 1_555 1_555
Fe2 O2 1_555 1_555
O1 C13 1_555 1_555
O2 C13 1_555 1_555
O3 C20 1_555 1_555
O4 C20 1_555 1_555
O7 C36 1_555 1_555
O8 Fe9_2 1_555 1_555
O9 Fe9_2 1_555 1_555
C2 H1 1_555 1_555
C8 C7 1_555 1_555
C9 C8 1_555 1_555
H5 C9 1_555 1_555
C10 C9 1_555 1_555
C11 C10 1_555 1_555
H6 C11 1_555 1_555
C12 C7 1_555 1_555
H7 C12 1_555 1_555
C13 C10 1_555 1_555
C15 C14 1_555 1_555
H8 C15 1_555 1_555
C16 C15 1_555 1_555
H9 C16 1_555 1_555
C17 C16 1_555 1_555
C20 C17 1_555 1_555
C28 H16 1_555 1_555
C29 C28 1_555 1_555
C30 C29 1_555 1_555
C31 C30 1_555 1_555
H17 C31 1_555 1_555
C32 C31 1_555 1_555
H18 C32 1_555 1_555
C33 C32 1_555 1_555
C34 C33 1_555 1_555
H19 C34 1_555 1_555
C35 C30 1_555 1_555
C36 O8 1_555 1_555
O10 Fe2 1_555 1_555
H21 O10 1_555 1_555
H22 O10 1_555 1_555
O11 Fe9_2 1_555 1_555
C37 O11 1_555 1_555
H23 C37 1_555 1_555
Fe5 O3 1_555 1_555
Fe11 O39 1_555 1_555
Fe17_2 O7 1_555 1_555
O16 Fe9_2 1_555 1_555
O20 C78 1_555 1_555
O28 Fe2 1_555 1_555
O33 Fe2 1_555 1_555
O39 Fe2 1_555 1_555
C78 O16 1_555 1_555
Fe2 O9 1_555 1_555
O9 Fe17_2 1_555 1_555
C11 C12 1_555 1_555
C33 C36 1_555 1_555
C34 C35 1_555 1_555
Fe17_2 O39 1_555 1_555
Fe9 O36 1_555 1_555
Fe17 O32 1_555 1_555
O32 C111 1_555 1_555
O36 C111 1_555 1_555
C99 C96 1_555 1_555
C101 C99 1_555 1_555
H63 C101 1_555 1_555
C103 C101 1_555 1_555
H65 C103 1_555 1_555
C105 C103 1_555 1_555
C107 C105 1_555 1_555
H67 C107 1_555 1_555
C109 C99 1_555 1_555
C111 C105 1_555 1_555
C107 C109 1_555 1_555
Fe10_2 O22_4 1_555 1_555
O22_4 C92_4 1_555 1_555
O30 C92_4 1_555 1_555
C40 C42 1_555 1_555
C42 H30 1_555 1_555
C44 C42 1_555 1_555
C46 C44 1_555 1_555
H32 C46 1_555 1_555
C48 C46 1_555 1_555
C50 C40 1_555 1_555
H34 C50 1_555 1_555
C52 C40 1_555 1_555
C54 C52 1_555 1_555
H36 C54 1_555 1_555
C56 C54 1_555 1_555
C62 C52 1_555 1_555
H42 C62 1_555 1_555
C66 C44 1_555 1_555
C68 C66 1_555 1_555
H44 C68 1_555 1_555
C70 C68 1_555 1_555
H46 C70 1_555 1_555
C72 C70 1_555 1_555
C74 C72 1_555 1_555
C76 C66 1_555 1_555
H50 C76 1_555 1_555
C80 C48 1_555 1_555
C82 C80 1_555 1_555
H52 C82 1_555 1_555
C84 C82 1_555 1_555
H54 C84 1_555 1_555
C86 C84 1_555 1_555
C88 C86 1_555 1_555
H56 C88 1_555 1_555
C90 C80 1_555 1_555
H58 C90 1_555 1_555
C92_4 C86 1_555 1_555
H61 C95 1_555 1_555
C48 C50 1_555 1_555
C74 C76 1_555 1_555
C88 C90 1_555 1_555
Fe3 O12 1_555 1_555
Fe9_3 O35 1_555 1_555
Fe17_3 O14 1_555 1_555
Fe18 O40 1_555 1_555
O12 C64 1_555 1_555
O14 C64 1_555 1_555
O18 Fe3 1_555 1_555
O24 Fe3 1_555 1_555
O31 Fe17_3 1_555 1_555
O35 C110 1_555 1_555
O37 Fe3 1_555 1_555
O40 Fe3 1_555 1_555
O42 Fe9_3 1_555 1_555
C60 C58 1_555 1_555
H40 C60 1_555 1_555
C64 C58 1_555 1_555
C94 H60 1_555 1_555
C97 C94 1_555 1_555
C98 C97 1_555 1_555
C100 C98 1_555 1_555
H62 C100 1_555 1_555
C102 C100 1_555 1_555
H64 C102 1_555 1_555
C104 C102 1_555 1_555
C106 C104 1_555 1_555
H66 C106 1_555 1_555
C108 C98 1_555 1_555
H68 C108 1_555 1_555
C110 O31 1_555 1_555
O44 Fe17_3 1_555 1_555
H70 O44 1_555 1_555
H72 O44 1_555 1_555
O46 Fe3 1_555 1_555
C112 O46 1_555 1_555
H74 C112 1_555 1_555
N2 C112 1_555 1_555
C114 N2 1_555 1_555
H76 C114 1_555 1_555
H78 C114 1_555 1_555
H80 C114 1_555 1_555
C116 N2 1_555 1_555
H82 C116 1_555 1_555
H84 C116 1_555 1_555
H86 C116 1_555 1_555
Fe17_3 O40 1_555 1_555
Fe17_3 O42 1_555 1_555
Fe18 O42 1_555 1_555
C104 C110 1_555 1_555
C106 C108 1_555 1_555
Fe5 O12_2 1_555 1_555
Fe17 O14_2 1_555 1_555
Fe18_2 O40_2 1_555 1_555
O12_2 C64_2 1_555 1_555
O14_2 C64_2 1_555 1_555
O24_2 Fe5 1_555 1_555
O37_2 Fe5 1_555 1_555
O40_2 Fe5 1_555 1_555
O42_2 Fe9 1_555 1_555
C60_2 C58_2 1_555 1_555
H40_2 C60_2 1_555 1_555
C64_2 C58_2 1_555 1_555
O44_2 Fe17 1_555 1_555
H70_2 O44_2 1_555 1_555
H72_2 O44_2 1_555 1_555
O46_2 Fe5 1_555 1_555
C112_2 O46_2 1_555 1_555
H74_2 C112_2 1_555 1_555
N2_2 C112_2 1_555 1_555
C114_2 N2_2 1_555 1_555
H76_2 C114_2 1_555 1_555
H78_2 C114_2 1_555 1_555
H80_2 C114_2 1_555 1_555
C116_2 N2_2 1_555 1_555
H82_2 C116_2 1_555 1_555
H84_2 C116_2 1_555 1_555
H86_2 C116_2 1_555 1_555
Fe17 O40_2 1_555 1_555
Fe17 O42_2 1_555 1_555
Fe18_2 O42_2 1_555 1_555
Fe9_3 O1_2 1_555 1_555
Fe18 O2_2 1_555 1_555
O1_2 C13_2 1_555 1_555
O2_2 C13_2 1_555 1_555
O3_2 C20_2 1_555 1_555
O4_2 C20_2 1_555 1_555
C2_2 H1_2 1_555 1_555
C8_2 C7_2 1_555 1_555
C9_2 C8_2 1_555 1_555
H5_2 C9_2 1_555 1_555
C10_2 C9_2 1_555 1_555
C11_2 C10_2 1_555 1_555
H6_2 C11_2 1_555 1_555
C12_2 C7_2 1_555 1_555
H7_2 C12_2 1_555 1_555
C13_2 C10_2 1_555 1_555
C15_2 C14_2 1_555 1_555
H8_2 C15_2 1_555 1_555
C16_2 C15_2 1_555 1_555
H9_2 C16_2 1_555 1_555
C17_2 C16_2 1_555 1_555
C20_2 C17_2 1_555 1_555
O10_2 Fe18 1_555 1_555
H21_2 O10_2 1_555 1_555
H22_2 O10_2 1_555 1_555
O11_2 Fe9_3 1_555 1_555
C37_2 O11_2 1_555 1_555
H23_2 C37_2 1_555 1_555
Fe11 O3_2 1_555 1_555
Fe10_3 O22_5 1_555 1_555
O16_2 Fe9_3 1_555 1_555
O20_2 C78_2 1_555 1_555
O22_5 C92_5 1_555 1_555
O30_2 C92_5 1_555 1_555
O28_2 Fe18 1_555 1_555
O33_2 Fe18 1_555 1_555
C40_2 C42_2 1_555 1_555
C42_2 H30_2 1_555 1_555
C44_2 C42_2 1_555 1_555
C46_2 C44_2 1_555 1_555
H32_2 C46_2 1_555 1_555
C48_2 C46_2 1_555 1_555
C50_2 C40_2 1_555 1_555
H34_2 C50_2 1_555 1_555
C52_2 C40_2 1_555 1_555
C54_2 C52_2 1_555 1_555
H36_2 C54_2 1_555 1_555
C56_2 C54_2 1_555 1_555
C62_2 C52_2 1_555 1_555
H42_2 C62_2 1_555 1_555
C66_2 C44_2 1_555 1_555
C68_2 C66_2 1_555 1_555
H44_2 C68_2 1_555 1_555
C70_2 C68_2 1_555 1_555
H46_2 C70_2 1_555 1_555
C72_2 C70_2 1_555 1_555
C74_2 C72_2 1_555 1_555
H48_2 C74_2 1_555 1_555
C76_2 C66_2 1_555 1_555
H50_2 C76_2 1_555 1_555
C78_2 O16_2 1_555 1_555
C80_2 C48_2 1_555 1_555
C82_2 C80_2 1_555 1_555
H52_2 C82_2 1_555 1_555
C84_2 C82_2 1_555 1_555
H54_2 C84_2 1_555 1_555
C86_2 C84_2 1_555 1_555
C88_2 C86_2 1_555 1_555
H56_2 C88_2 1_555 1_555
C90_2 C80_2 1_555 1_555
H58_2 C90_2 1_555 1_555
C92_5 C86_2 1_555 1_555
C11_2 C12_2 1_555 1_555
C48_2 C50_2 1_555 1_555
C72_2 C78_2 1_555 1_555
C74_2 C76_2 1_555 1_555
C88_2 C90_2 1_555 1_555
Fe11 O12_3 1_555 1_555
Fe10 O22_6 1_555 1_555
Fe17_2 O14_3 1_555 1_555
O12_3 C64_3 1_555 1_555
O14_3 C64_3 1_555 1_555
O22_6 C92_6 1_555 1_555
O24_3 Fe11 1_555 1_555
O30_3 C92_6 1_555 1_555
O37_3 Fe11 1_555 1_555
C40_3 C42_3 1_555 1_555
C42_3 H30_3 1_555 1_555
C44_3 C42_3 1_555 1_555
C46_3 C44_3 1_555 1_555
H32_3 C46_3 1_555 1_555
C48_3 C46_3 1_555 1_555
C50_3 C40_3 1_555 1_555
H34_3 C50_3 1_555 1_555
C52_3 C40_3 1_555 1_555
C54_3 C52_3 1_555 1_555
H36_3 C54_3 1_555 1_555
C56_3 C54_3 1_555 1_555
H38_3 C56_3 1_555 1_555
C58_3 C56_3 1_555 1_555
C60_3 C58_3 1_555 1_555
H40_3 C60_3 1_555 1_555
C62_3 C52_3 1_555 1_555
H42_3 C62_3 1_555 1_555
C64_3 C58_3 1_555 1_555
C66_3 C44_3 1_555 1_555
C68_3 C66_3 1_555 1_555
H44_3 C68_3 1_555 1_555
C70_3 C68_3 1_555 1_555
H46_3 C70_3 1_555 1_555
C72_3 C70_3 1_555 1_555
C74_3 C72_3 1_555 1_555
C76_3 C66_3 1_555 1_555
H50_3 C76_3 1_555 1_555
C80_3 C48_3 1_555 1_555
C82_3 C80_3 1_555 1_555
H52_3 C82_3 1_555 1_555
C84_3 C82_3 1_555 1_555
H54_3 C84_3 1_555 1_555
C86_3 C84_3 1_555 1_555
C88_3 C86_3 1_555 1_555
H56_3 C88_3 1_555 1_555
C90_3 C80_3 1_555 1_555
H58_3 C90_3 1_555 1_555
C92_6 C86_3 1_555 1_555
O44_3 Fe17_2 1_555 1_555
H70_3 O44_3 1_555 1_555
H72_3 O44_3 1_555 1_555
O46_3 Fe11 1_555 1_555
C112_3 O46_3 1_555 1_555
H74_3 C112_3 1_555 1_555
N2_3 C112_3 1_555 1_555
C114_3 N2_3 1_555 1_555
H76_3 C114_3 1_555 1_555
H78_3 C114_3 1_555 1_555
H80_3 C114_3 1_555 1_555
C116_3 N2_3 1_555 1_555
H82_3 C116_3 1_555 1_555
H84_3 C116_3 1_555 1_555
H86_3 C116_3 1_555 1_555
C48_3 C50_3 1_555 1_555
C60_3 C62_3 1_555 1_555
C74_3 C76_3 1_555 1_555
C88_3 C90_3 1_555 1_555
Fe9 O1_3 1_555 1_555
Fe18_2 O2_3 1_555 1_555
O1_3 C13_3 1_555 1_555
O2_3 C13_3 1_555 1_555
O18 C20_3 1_555 1_555
O4_3 C20_3 1_555 1_555
C2_3 H1_3 1_555 1_555
C8_3 C7_3 1_555 1_555
C9_3 C8_3 1_555 1_555
H5_3 C9_3 1_555 1_555
C10_3 C9_3 1_555 1_555
C11_3 C10_3 1_555 1_555
H6_3 C11_3 1_555 1_555
C12_3 C7_3 1_555 1_555
H7_3 C12_3 1_555 1_555
C13_3 C10_3 1_555 1_555
C15_3 C14_3 1_555 1_555
H8_3 C15_3 1_555 1_555
C16_3 C15_3 1_555 1_555
H9_3 C16_3 1_555 1_555
C17_3 C16_3 1_555 1_555
C20_3 C17_3 1_555 1_555
O10_3 Fe18_2 1_555 1_555
H21_3 O10_3 1_555 1_555
H22_3 O10_3 1_555 1_555
O11_3 Fe9 1_555 1_555
C37_3 O11_3 1_555 1_555
H23_3 C37_3 1_555 1_555
O16_3 Fe9 1_555 1_555
O20_3 C78_3 1_555 1_555
O28_3 Fe18_2 1_555 1_555
O33_3 Fe18_2 1_555 1_555
C78_3 O16_3 1_555 1_555
C11_3 C12_3 1_555 1_555
O19 C20_4 1_555 1_555
O4_4 C20_4 1_555 1_555
Fe10_3 O1_4 1_555 1_555
Fe14_3 O2_4 1_555 1_555
O1_4 C13_4 1_555 1_555
O2_4 C13_4 1_555 1_555
O24 C27_4 1_555 1_555
O28_2 C27_4 1_555 1_555
O34_2 C36_2 1_555 1_555
O8_2 Fe10_3 1_555 1_555
O43_2 Fe10_3 1_555 1_555
C1 C2_4 1_555 1_555
C2_4 H1_4 1_555 1_555
C3 C2_4 1_555 1_555
C4 C3 1_555 1_555
H2 C4 1_555 1_555
C5 C4 1_555 1_555
C6 C1 1_555 1_555
H3 C6 1_555 1_555
C7_4 C1 1_555 1_555
C8_4 C7_4 1_555 1_555
H4 C8_4 1_555 1_555
C9_4 C8_4 1_555 1_555
H5_4 C9_4 1_555 1_555
C10_4 C9_4 1_555 1_555
C11_4 C10_4 1_555 1_555
H6_4 C11_4 1_555 1_555
C12_4 C7_4 1_555 1_555
H7_4 C12_4 1_555 1_555
C13_4 C10_4 1_555 1_555
C14_4 C3 1_555 1_555
C15_4 C14_4 1_555 1_555
H8_4 C15_4 1_555 1_555
C16_4 C15_4 1_555 1_555
H9_4 C16_4 1_555 1_555
C17_4 C16_4 1_555 1_555
C18 C17_4 1_555 1_555
C19 C14_4 1_555 1_555
H11 C19 1_555 1_555
C21 C5 1_555 1_555
C22 C21 1_555 1_555
H12 C22 1_555 1_555
C23 C22 1_555 1_555
H13 C23 1_555 1_555
C24 C23 1_555 1_555
C25 C24 1_555 1_555
H14 C25 1_555 1_555
C26 C21 1_555 1_555
H15 C26 1_555 1_555
C27_4 C24 1_555 1_555
C28_2 H16_2 1_555 1_555
C29_2 C28_2 1_555 1_555
C30_2 C29_2 1_555 1_555
C31_2 C30_2 1_555 1_555
H17_2 C31_2 1_555 1_555
C32_2 C31_2 1_555 1_555
H18_2 C32_2 1_555 1_555
C33_2 C32_2 1_555 1_555
C34_2 C33_2 1_555 1_555
H19_2 C34_2 1_555 1_555
C35_2 C30_2 1_555 1_555
H20_2 C35_2 1_555 1_555
C36_2 O8_2 1_555 1_555
O10_4 Fe14_3 1_555 1_555
H21_4 O10_4 1_555 1_555
H22_4 O10_4 1_555 1_555
O11_4 Fe10_3 1_555 1_555
C37_4 O11_4 1_555 1_555
H23_4 C37_4 1_555 1_555
N1 C37_4 1_555 1_555
C38 N1 1_555 1_555
H24 C38 1_555 1_555
H25 C38 1_555 1_555
H26 C38 1_555 1_555
C39 N1 1_555 1_555
H27 C39 1_555 1_555
H28 C39 1_555 1_555
H29 C39 1_555 1_555
Fe10 O35_2 1_555 1_555
Fe10_2 O36_2 1_555 1_555
Fe14 O41_3 1_555 1_555
O34 C111_2 1_555 1_555
O33_4 Fe14_3 1_555 1_555
O35_2 C110_2 1_555 1_555
O36_2 C111_2 1_555 1_555
O41_2 Fe14_3 1_555 1_555
O43_3 Fe10 1_555 1_555
C94_2 H60_2 1_555 1_555
C95_2 C29_2 1_555 1_555
H61_2 C95_2 1_555 1_555
C96_2 C28_2 1_555 1_555
C97_2 C94_2 1_555 1_555
C98_2 C97_2 1_555 1_555
C99_2 C96_2 1_555 1_555
C100_2 C98_2 1_555 1_555
C101_2 C99_2 1_555 1_555
H62_2 C100_2 1_555 1_555
H63_2 C101_2 1_555 1_555
C102_2 C100_2 1_555 1_555
C103_2 C101_2 1_555 1_555
H64_2 C102_2 1_555 1_555
H65_2 C103_2 1_555 1_555
C104_2 C102_2 1_555 1_555
C105_2 C103_2 1_555 1_555
C106_2 C104_2 1_555 1_555
C107_2 C105_2 1_555 1_555
H66_2 C106_2 1_555 1_555
H67_2 C107_2 1_555 1_555
C108_2 C98_2 1_555 1_555
C109_2 C99_2 1_555 1_555
H68_2 C108_2 1_555 1_555
H69_2 C109_2 1_555 1_555
C110_2 O34_3 1_555 1_555
C111_2 C105_2 1_555 1_555
Fe14_3 O43_2 1_555 1_555
C5 C6 1_555 1_555
C11_4 C12_4 1_555 1_555
C18 C19 1_555 1_555
C25 C26 1_555 1_555
C33_2 C36_2 1_555 1_555
C34_2 C35_2 1_555 1_555
Fe14 O43_3 1_555 1_555
C94_2 C96_2 1_555 1_555
C95_2 C97_2 1_555 1_555
C104_2 C110_2 1_555 1_555
C106_2 C108_2 1_555 1_555
C107_2 C109_2 1_555 1_555
Fe10 O1_5 1_555 1_555
Fe14 O2_5 1_555 1_555
O1_5 C13_5 1_555 1_555
O2_5 C13_5 1_555 1_555
C11_5 C10_5 1_555 1_555
H6_5 C11_5 1_555 1_555
C13_5 C10_5 1_555 1_555
O10_5 Fe14 1_555 1_555
H21_5 O10_5 1_555 1_555
H22_5 O10_5 1_555 1_555
O11_5 Fe10 1_555 1_555
C37_5 O11_5 1_555 1_555
H23_5 C37_5 1_555 1_555
N1_2 C37_5 1_555 1_555
C38_2 N1_2 1_555 1_555
H24_2 C38_2 1_555 1_555
H25_2 C38_2 1_555 1_555
H26_2 C38_2 1_555 1_555
C39_2 N1_2 1_555 1_555
H27_2 C39_2 1_555 1_555
H28_2 C39_2 1_555 1_555
H29_2 C39_2 1_555 1_555
Fe14_2 O41 1_555 1_555
O33_5 Fe14 1_555 1_555
O43 Fe10_2 1_555 1_555
Fe14_2 O43 1_555 1_555
O24_2 C27_5 1_555 1_555
O28_3 C27_5 1_555 1_555
C1_2 C2_5 1_555 1_555
C2_5 H1_5 1_555 1_555
C3_2 C2_5 1_555 1_555
C4_2 C3_2 1_555 1_555
H2_2 C4_2 1_555 1_555
C5_2 C4_2 1_555 1_555
C6_2 C1_2 1_555 1_555
H3_2 C6_2 1_555 1_555
C7_5 C1_2 1_555 1_555
C8_5 C7_5 1_555 1_555
H4_2 C8_5 1_555 1_555
C9_5 C8_5 1_555 1_555
C12_5 C7_5 1_555 1_555
H7_5 C12_5 1_555 1_555
C14_5 C3_2 1_555 1_555
C15_5 C14_5 1_555 1_555
H8_5 C15_5 1_555 1_555
C16_5 C15_5 1_555 1_555
H9_5 C16_5 1_555 1_555
C17_5 C16_5 1_555 1_555
C18_2 C17_5 1_555 1_555
C19_2 C14_5 1_555 1_555
H11_2 C19_2 1_555 1_555
C21_2 C5_2 1_555 1_555
C22_2 C21_2 1_555 1_555
H12_2 C22_2 1_555 1_555
C23_2 C22_2 1_555 1_555
H13_2 C23_2 1_555 1_555
C24_2 C23_2 1_555 1_555
C25_2 C24_2 1_555 1_555
H14_2 C25_2 1_555 1_555
C26_2 C21_2 1_555 1_555
H15_2 C26_2 1_555 1_555
C27_5 C24_2 1_555 1_555
C5_2 C6_2 1_555 1_555
C18_2 C19_2 1_555 1_555
C25_2 C26_2 1_555 1_555
O19_2 C20_5 1_555 1_555
O4_5 C20_5 1_555 1_555
O19_3 C20_6 1_555 1_555
O4_6 C20_6 1_555 1_555
O24_3 C27_6 1_555 1_555
O28 C27_6 1_555 1_555
C1_3 C2_6 1_555 1_555
C2_6 H1_6 1_555 1_555
C3_3 C2_6 1_555 1_555
C4_3 C3_3 1_555 1_555
H2_3 C4_3 1_555 1_555
C5_3 C4_3 1_555 1_555
C6_3 C1_3 1_555 1_555
H3_3 C6_3 1_555 1_555
C7_6 C1_3 1_555 1_555
C8_6 C7_6 1_555 1_555
H4_3 C8_6 1_555 1_555
C9_6 C8_6 1_555 1_555
C12_6 C7_6 1_555 1_555
H7_6 C12_6 1_555 1_555
C14_6 C3_3 1_555 1_555
C15_6 C14_6 1_555 1_555
H8_6 C15_6 1_555 1_555
C16_6 C15_6 1_555 1_555
H9_6 C16_6 1_555 1_555
C17_6 C16_6 1_555 1_555
C18_3 C17_6 1_555 1_555
H10_3 C18_3 1_555 1_555
C19_3 C14_6 1_555 1_555
H11_3 C19_3 1_555 1_555
C20_6 C17_6 1_555 1_555
C21_3 C5_3 1_555 1_555
C22_3 C21_3 1_555 1_555
H12_3 C22_3 1_555 1_555
C23_3 C22_3 1_555 1_555
H13_3 C23_3 1_555 1_555
C24_3 C23_3 1_555 1_555
C25_3 C24_3 1_555 1_555
H14_3 C25_3 1_555 1_555
C26_3 C21_3 1_555 1_555
H15_3 C26_3 1_555 1_555
C27_6 C24_3 1_555 1_555
C5_3 C6_3 1_555 1_555
C18_3 C19_3 1_555 1_555
C25_3 C26_3 1_555 1_555
Fe10_2 O1_6 1_555 1_555
Fe14_2 O2_6 1_555 1_555
O1_6 C13_6 1_555 1_555
O2_6 C13_6 1_555 1_555
C11_6 C10_6 1_555 1_555
H6_6 C11_6 1_555 1_555
C13_6 C10_6 1_555 1_555
O10_6 Fe14_2 1_555 1_555
H21_6 O10_6 1_555 1_555
H22_6 O10_6 1_555 1_555
O11_6 Fe10_2 1_555 1_555
C37_6 O11_6 1_555 1_555
H23_6 C37_6 1_555 1_555
N1_3 C37_6 1_555 1_555
C38_3 N1_3 1_555 1_555
H24_3 C38_3 1_555 1_555
H25_3 C38_3 1_555 1_555
H26_3 C38_3 1_555 1_555
C39_3 N1_3 1_555 1_555
H27_3 C39_3 1_555 1_555
H28_3 C39_3 1_555 1_555
H29_3 C39_3 1_555 1_555
O33_6 Fe14_2 1_555 1_555
O38_3 C110_3 1_555 1_555
C94_3 H60_3 1_555 1_555
C97_3 C94_3 1_555 1_555
C98_3 C97_3 1_555 1_555
C100_3 C98_3 1_555 1_555
H62_3 C100_3 1_555 1_555
C102_3 C100_3 1_555 1_555
H64_3 C102_3 1_555 1_555
C104_3 C102_3 1_555 1_555
C106_3 C104_3 1_555 1_555
H66_3 C106_3 1_555 1_555
C108_3 C98_3 1_555 1_555
H68_3 C108_3 1_555 1_555
C110_3 O33_5 1_555 1_555
C104_3 C110_3 1_555 1_555
C106_3 C108_3 1_555 1_555
H61_3 C95_3 1_555 1_555
O33_6 C111_3 1_555 1_555
O38 C111_3 1_555 1_555
C99_3 C96_3 1_555 1_555
C101_3 C99_3 1_555 1_555
H63_3 C101_3 1_555 1_555
C103_3 C101_3 1_555 1_555
H65_3 C103_3 1_555 1_555
C105_3 C103_3 1_555 1_555
C107_3 C105_3 1_555 1_555
H67_3 C107_3 1_555 1_555
C109_3 C99_3 1_555 1_555
C111_3 C105_3 1_555 1_555
C107_3 C109_3 1_555 1_555
O33_4 C36_3 1_555 1_555
C28_3 H16_3 1_555 1_555
C29_3 C28_3 1_555 1_555
C30_3 C29_3 1_555 1_555
C31_3 C30_3 1_555 1_555
H17_3 C31_3 1_555 1_555
C32_3 C31_3 1_555 1_555
H18_3 C32_3 1_555 1_555
C33_3 C32_3 1_555 1_555
C34_3 C33_3 1_555 1_555
H19_3 C34_3 1_555 1_555
C35_3 C30_3 1_555 1_555
C36_3 O38_2 1_555 1_555
C33_3 C36_3 1_555 1_555
C34_3 C35_3 1_555 1_555
O33 C36_4 1_555 1_555
C28_4 H16_4 1_555 1_555
C29_4 C28_4 1_555 1_555
C30_4 C29_4 1_555 1_555
C31_4 C30_4 1_555 1_555
H17_4 C31_4 1_555 1_555
C32_4 C31_4 1_555 1_555
H18_4 C32_4 1_555 1_555
C33_4 C32_4 1_555 1_555
C34_4 C33_4 1_555 1_555
H19_4 C34_4 1_555 1_555
C35_4 C30_4 1_555 1_555
H20_4 C35_4 1_555 1_555
C36_4 O37_3 1_555 1_555
O33_3 C111_4 1_555 1_555
O37 C110_4 1_555 1_555
O37_2 C111_4 1_555 1_555
C94_4 H60_4 1_555 1_555
C95_4 C29_4 1_555 1_555
H61_4 C95_4 1_555 1_555
C96_4 C28_4 1_555 1_555
C97_4 C94_4 1_555 1_555
C98_4 C97_4 1_555 1_555
C99_4 C96_4 1_555 1_555
C100_4 C98_4 1_555 1_555
C101_4 C99_4 1_555 1_555
H62_4 C100_4 1_555 1_555
H63_4 C101_4 1_555 1_555
C102_4 C100_4 1_555 1_555
C103_4 C101_4 1_555 1_555
H64_4 C102_4 1_555 1_555
H65_4 C103_4 1_555 1_555
C104_4 C102_4 1_555 1_555
C105_4 C103_4 1_555 1_555
C106_4 C104_4 1_555 1_555
C107_4 C105_4 1_555 1_555
H66_4 C106_4 1_555 1_555
H67_4 C107_4 1_555 1_555
C108_4 C98_4 1_555 1_555
C109_4 C99_4 1_555 1_555
H68_4 C108_4 1_555 1_555
H69_4 C109_4 1_555 1_555
C110_4 O33_2 1_555 1_555
C111_4 C105_4 1_555 1_555
C33_4 C36_4 1_555 1_555
C34_4 C35_4 1_555 1_555
C94_4 C96_4 1_555 1_555
C95_4 C97_4 1_555 1_555
C104_4 C110_4 1_555 1_555
C106_4 C108_4 1_555 1_555
C107_4 C109_4 1_555 1_555
Fe2_2 O2_7 1_555 1_555
O1_7 C13_7 1_555 1_555
O2_7 C13_7 1_555 1_555
O3_3 C20_7 1_555 1_555
O4_7 C20_7 1_555 1_555
C1_4 C2_7 1_555 1_555
C2_7 H1_7 1_555 1_555
C3_4 C2_7 1_555 1_555
C4_4 C3_4 1_555 1_555
H2_4 C4_4 1_555 1_555
C5_4 C4_4 1_555 1_555
C6_4 C1_4 1_555 1_555
H3_4 C6_4 1_555 1_555
C7_7 C1_4 1_555 1_555
C8_7 C7_7 1_555 1_555
H4_4 C8_7 1_555 1_555
C9_7 C8_7 1_555 1_555
H5_7 C9_7 1_555 1_555
C10_7 C9_7 1_555 1_555
C11_7 C10_7 1_555 1_555
H6_7 C11_7 1_555 1_555
C12_7 C7_7 1_555 1_555
H7_7 C12_7 1_555 1_555
C13_7 C10_7 1_555 1_555
C14_7 C3_4 1_555 1_555
C15_7 C14_7 1_555 1_555
H8_7 C15_7 1_555 1_555
C16_7 C15_7 1_555 1_555
H9_7 C16_7 1_555 1_555
C17_7 C16_7 1_555 1_555
C18_4 C17_7 1_555 1_555
H10_4 C18_4 1_555 1_555
C19_4 C14_7 1_555 1_555
H11_4 C19_4 1_555 1_555
C20_7 C17_7 1_555 1_555
C21_4 C5_4 1_555 1_555
C22_4 C21_4 1_555 1_555
H12_4 C22_4 1_555 1_555
C23_4 C22_4 1_555 1_555
H13_4 C23_4 1_555 1_555
C24_4 C23_4 1_555 1_555
C25_4 C24_4 1_555 1_555
H14_4 C25_4 1_555 1_555
C26_4 C21_4 1_555 1_555
H15_4 C26_4 1_555 1_555
O10_7 Fe2_2 1_555 1_555
H21_7 O10_7 1_555 1_555
H22_7 O10_7 1_555 1_555
Fe5_2 O3_3 1_555 1_555
Fe11_2 O39_2 1_555 1_555
O28_4 Fe2_2 1_555 1_555
O33_7 Fe2_2 1_555 1_555
O39_2 Fe2_2 1_555 1_555
C47 C45 1_555 1_555
H33 C47 1_555 1_555
C49 C47 1_555 1_555
C51 C41 1_555 1_555
H35 C51 1_555 1_555
H49 C75 1_555 1_555
H51 C77 1_555 1_555
C81 C49 1_555 1_555
H57 C89 1_555 1_555
C91 C81 1_555 1_555
H59 C91 1_555 1_555
C5_4 C6_4 1_555 1_555
C11_7 C12_7 1_555 1_555
C18_4 C19_4 1_555 1_555
C25_4 C26_4 1_555 1_555
C49 C51 1_555 1_555
C75 C77 1_555 1_555
C89 C91 1_555 1_555
O7_2 C36_5 1_555 1_555
O8_3 Fe1 1_555 1_555
O9_2 Fe1 1_555 1_555
C28_5 H16_5 1_555 1_555
C29_5 C28_5 1_555 1_555
C30_5 C29_5 1_555 1_555
C31_5 C30_5 1_555 1_555
H17_5 C31_5 1_555 1_555
C32_5 C31_5 1_555 1_555
H18_5 C32_5 1_555 1_555
C33_5 C32_5 1_555 1_555
C34_5 C33_5 1_555 1_555
H19_5 C34_5 1_555 1_555
C35_5 C30_5 1_555 1_555
H20_5 C35_5 1_555 1_555
C36_5 O8_3 1_555 1_555
O11_7 Fe1 1_555 1_555
C37_7 O11_7 1_555 1_555
H23_7 C37_7 1_555 1_555
N1_4 C37_7 1_555 1_555
C38_4 N1_4 1_555 1_555
H24_4 C38_4 1_555 1_555
H25_4 C38_4 1_555 1_555
H26_4 C38_4 1_555 1_555
C39_4 N1_4 1_555 1_555
H27_4 C39_4 1_555 1_555
H28_4 C39_4 1_555 1_555
H29_4 C39_4 1_555 1_555
Fe7 O35_3 1_555 1_555
Fe8 O36_3 1_555 1_555
Fe12 O14_4 1_555 1_555
Fe15 O7_2 1_555 1_555
Fe16 O32_2 1_555 1_555
O12_4 C64_4 1_555 1_555
O14_4 C64_4 1_555 1_555
O16_4 Fe1 1_555 1_555
O20_4 C78_4 1_555 1_555
O23 Fe1 1_555 1_555
O27 Fe15 1_555 1_555
O29 Fe12 1_555 1_555
O31_2 Fe12 1_555 1_555
O32_2 C111_5 1_555 1_555
O35_3 C110_5 1_555 1_555
O36_3 C111_5 1_555 1_555
O42_3 Fe7 1_555 1_555
C40_4 C42_4 1_555 1_555
C42_4 H30_4 1_555 1_555
C44_4 C42_4 1_555 1_555
C46_4 C44_4 1_555 1_555
H32_4 C46_4 1_555 1_555
C48_4 C46_4 1_555 1_555
C50_4 C40_4 1_555 1_555
H34_4 C50_4 1_555 1_555
C52_4 C40_4 1_555 1_555
C54_4 C52_4 1_555 1_555
H36_4 C54_4 1_555 1_555
C56_4 C54_4 1_555 1_555
H38_4 C56_4 1_555 1_555
C58_4 C56_4 1_555 1_555
C60_4 C58_4 1_555 1_555
H40_4 C60_4 1_555 1_555
C62_4 C52_4 1_555 1_555
H42_4 C62_4 1_555 1_555
C64_4 C58_4 1_555 1_555
C66_4 C44_4 1_555 1_555
C68_4 C66_4 1_555 1_555
H44_4 C68_4 1_555 1_555
C70_4 C68_4 1_555 1_555
H46_4 C70_4 1_555 1_555
C72_4 C70_4 1_555 1_555
C74_4 C72_4 1_555 1_555
H48_4 C74_4 1_555 1_555
C76_4 C66_4 1_555 1_555
H50_4 C76_4 1_555 1_555
C78_4 O16_4 1_555 1_555
C80_4 C48_4 1_555 1_555
C82_4 C80_4 1_555 1_555
H52_4 C82_4 1_555 1_555
H53 C83 1_555 1_555
C84_4 C82_4 1_555 1_555
C85 C83 1_555 1_555
H54_4 C84_4 1_555 1_555
H55 C85 1_555 1_555
C86_4 C84_4 1_555 1_555
C87 C85 1_555 1_555
C88_4 C86_4 1_555 1_555
H56_4 C88_4 1_555 1_555
C90_4 C80_4 1_555 1_555
H58_4 C90_4 1_555 1_555
C93 O23 1_555 1_555
C94_5 H60_5 1_555 1_555
C95_5 C29_5 1_555 1_555
H61_5 C95_5 1_555 1_555
C96_5 C28_5 1_555 1_555
C97_5 C94_5 1_555 1_555
C98_5 C97_5 1_555 1_555
C99_5 C96_5 1_555 1_555
C100_5 C98_5 1_555 1_555
C101_5 C99_5 1_555 1_555
H62_5 C100_5 1_555 1_555
H63_5 C101_5 1_555 1_555
C102_5 C100_5 1_555 1_555
C103_5 C101_5 1_555 1_555
H64_5 C102_5 1_555 1_555
H65_5 C103_5 1_555 1_555
C104_5 C102_5 1_555 1_555
C105_5 C103_5 1_555 1_555
C106_5 C104_5 1_555 1_555
C107_5 C105_5 1_555 1_555
H66_5 C106_5 1_555 1_555
H67_5 C107_5 1_555 1_555
C108_5 C98_5 1_555 1_555
C109_5 C99_5 1_555 1_555
H68_5 C108_5 1_555 1_555
H69_5 C109_5 1_555 1_555
C110_5 O31_2 1_555 1_555
C111_5 C105_5 1_555 1_555
O44_4 Fe12 1_555 1_555
H70_4 O44_4 1_555 1_555
H72_4 O44_4 1_555 1_555
C115 N3 1_555 1_555
H77 C115 1_555 1_555
H79 C115 1_555 1_555
H81 C115 1_555 1_555
C117 N3 1_555 1_555
H85 C117 1_555 1_555
H87 C117 1_555 1_555
O9_2 Fe15 1_555 1_555
C33_5 C36_5 1_555 1_555
C34_5 C35_5 1_555 1_555
Fe12 O42_3 1_555 1_555
O27 C93 1_555 1_555
C48_4 C50_4 1_555 1_555
C60_4 C62_4 1_555 1_555
C72_4 C78_4 1_555 1_555
C74_4 C76_4 1_555 1_555
C87 C93 1_555 1_555
C88_4 C90_4 1_555 1_555
C94_5 C96_5 1_555 1_555
C95_5 C97_5 1_555 1_555
C104_5 C110_5 1_555 1_555
C106_5 C108_5 1_555 1_555
C107_5 C109_5 1_555 1_555
Fe18_3 O40_3 1_555 1_555
O18_2 Fe3_2 1_555 1_555
O24_4 Fe3_2 1_555 1_555
O37_4 Fe3_2 1_555 1_555
O40_3 Fe3_2 1_555 1_555
O46_4 Fe3_2 1_555 1_555
C112_4 O46_4 1_555 1_555
H74_4 C112_4 1_555 1_555
N2_4 C112_4 1_555 1_555
C114_4 N2_4 1_555 1_555
H76_4 C114_4 1_555 1_555
H78_4 C114_4 1_555 1_555
H80_4 C114_4 1_555 1_555
C116_4 N2_4 1_555 1_555
H82_4 C116_4 1_555 1_555
H84_4 C116_4 1_555 1_555
H86_4 C116_4 1_555 1_555
O11_8 Fe7 1_555 1_555
C37_8 O11_8 1_555 1_555
H23_8 C37_8 1_555 1_555
N1_5 C37_8 1_555 1_555
C38_5 N1_5 1_555 1_555
H24_5 C38_5 1_555 1_555
H25_5 C38_5 1_555 1_555
H26_5 C38_5 1_555 1_555
C39_5 N1_5 1_555 1_555
H27_5 C39_5 1_555 1_555
H28_5 C39_5 1_555 1_555
H29_5 C39_5 1_555 1_555
Fe5_2 O12_5 1_555 1_555
Fe16 O14_5 1_555 1_555
Fe18_4 O40_4 1_555 1_555
O12_5 C64_5 1_555 1_555
O14_5 C64_5 1_555 1_555
O16_5 Fe7 1_555 1_555
O20_5 C78_5 1_555 1_555
O23_2 Fe7 1_555 1_555
O24_5 Fe5_2 1_555 1_555
O29_2 Fe16 1_555 1_555
O37_5 Fe5_2 1_555 1_555
O40_4 Fe5_2 1_555 1_555
O42_4 Fe8 1_555 1_555
C40_5 C42_5 1_555 1_555
C42_5 H30_5 1_555 1_555
C44_5 C42_5 1_555 1_555
C46_5 C44_5 1_555 1_555
H32_5 C46_5 1_555 1_555
C48_5 C46_5 1_555 1_555
C50_5 C40_5 1_555 1_555
H34_5 C50_5 1_555 1_555
C52_5 C40_5 1_555 1_555
C54_5 C52_5 1_555 1_555
H36_5 C54_5 1_555 1_555
C56_5 C54_5 1_555 1_555
H38_5 C56_5 1_555 1_555
C58_5 C56_5 1_555 1_555
C60_5 C58_5 1_555 1_555
H40_5 C60_5 1_555 1_555
C62_5 C52_5 1_555 1_555
H42_5 C62_5 1_555 1_555
C64_5 C58_5 1_555 1_555
C66_5 C44_5 1_555 1_555
C68_5 C66_5 1_555 1_555
H44_5 C68_5 1_555 1_555
C70_5 C68_5 1_555 1_555
H46_5 C70_5 1_555 1_555
C72_5 C70_5 1_555 1_555
C74_5 C72_5 1_555 1_555
H48_5 C74_5 1_555 1_555
C76_5 C66_5 1_555 1_555
H50_5 C76_5 1_555 1_555
C78_5 O16_5 1_555 1_555
C80_5 C48_5 1_555 1_555
C82_5 C80_5 1_555 1_555
H52_5 C82_5 1_555 1_555
H53_2 C83_2 1_555 1_555
C84_5 C82_5 1_555 1_555
C85_2 C83_2 1_555 1_555
H54_5 C84_5 1_555 1_555
H55_2 C85_2 1_555 1_555
C86_5 C84_5 1_555 1_555
C87_2 C85_2 1_555 1_555
C88_5 C86_5 1_555 1_555
H56_5 C88_5 1_555 1_555
C90_5 C80_5 1_555 1_555
H58_5 C90_5 1_555 1_555
C93_2 O23_2 1_555 1_555
O44_5 Fe16 1_555 1_555
H70_5 O44_5 1_555 1_555
H72_5 O44_5 1_555 1_555
O46_5 Fe5_2 1_555 1_555
C112_5 O46_5 1_555 1_555
H74_5 C112_5 1_555 1_555
N2_5 C112_5 1_555 1_555
C114_5 N2_5 1_555 1_555
C115_2 N3_2 1_555 1_555
H76_5 C114_5 1_555 1_555
H77_2 C115_2 1_555 1_555
H78_5 C114_5 1_555 1_555
H79_2 C115_2 1_555 1_555
H80_5 C114_5 1_555 1_555
H81_2 C115_2 1_555 1_555
C116_5 N2_5 1_555 1_555
C117_2 N3_2 1_555 1_555
H82_5 C116_5 1_555 1_555
H84_5 C116_5 1_555 1_555
H85_2 C117_2 1_555 1_555
H86_5 C116_5 1_555 1_555
H87_2 C117_2 1_555 1_555
Fe16 O40_4 1_555 1_555
Fe16 O42_4 1_555 1_555
Fe18_4 O42_4 1_555 1_555
O29 C93_2 1_555 1_555
C48_5 C50_5 1_555 1_555
C60_5 C62_5 1_555 1_555
C72_5 C78_5 1_555 1_555
C74_5 C76_5 1_555 1_555
C87_2 C93_2 1_555 1_555
C88_5 C90_5 1_555 1_555
Fe18_3 O2_8 1_555 1_555
O1_8 C13_8 1_555 1_555
O2_8 C13_8 1_555 1_555
O3_4 C20_8 1_555 1_555
O4_8 C20_8 1_555 1_555
C1_5 C2_8 1_555 1_555
C2_8 H1_8 1_555 1_555
C3_5 C2_8 1_555 1_555
C4_5 C3_5 1_555 1_555
H2_5 C4_5 1_555 1_555
C5_5 C4_5 1_555 1_555
C6_5 C1_5 1_555 1_555
H3_5 C6_5 1_555 1_555
C7_8 C1_5 1_555 1_555
C8_8 C7_8 1_555 1_555
H4_5 C8_8 1_555 1_555
C9_8 C8_8 1_555 1_555
H5_8 C9_8 1_555 1_555
C10_8 C9_8 1_555 1_555
C11_8 C10_8 1_555 1_555
H6_8 C11_8 1_555 1_555
C12_8 C7_8 1_555 1_555
H7_8 C12_8 1_555 1_555
C13_8 C10_8 1_555 1_555
C14_8 C3_5 1_555 1_555
C15_8 C14_8 1_555 1_555
H8_8 C15_8 1_555 1_555
C16_8 C15_8 1_555 1_555
H9_8 C16_8 1_555 1_555
C17_8 C16_8 1_555 1_555
C18_5 C17_8 1_555 1_555
H10_5 C18_5 1_555 1_555
C19_5 C14_8 1_555 1_555
H11_5 C19_5 1_555 1_555
C20_8 C17_8 1_555 1_555
C21_5 C5_5 1_555 1_555
C22_5 C21_5 1_555 1_555
H12_5 C22_5 1_555 1_555
C23_5 C22_5 1_555 1_555
H13_5 C23_5 1_555 1_555
C24_5 C23_5 1_555 1_555
C25_5 C24_5 1_555 1_555
H14_5 C25_5 1_555 1_555
C26_5 C21_5 1_555 1_555
H15_5 C26_5 1_555 1_555
O10_8 Fe18_3 1_555 1_555
H21_8 O10_8 1_555 1_555
H22_8 O10_8 1_555 1_555
Fe11_2 O3_4 1_555 1_555
O28_5 Fe18_3 1_555 1_555
O33_8 Fe18_3 1_555 1_555
C47_2 C45_2 1_555 1_555
H33_2 C47_2 1_555 1_555
C49_2 C47_2 1_555 1_555
C51_2 C41_2 1_555 1_555
H35_2 C51_2 1_555 1_555
H49_2 C75_2 1_555 1_555
H51_2 C77_2 1_555 1_555
C81_2 C49_2 1_555 1_555
H57_2 C89_2 1_555 1_555
C91_2 C81_2 1_555 1_555
H59_2 C91_2 1_555 1_555
C5_5 C6_5 1_555 1_555
C11_8 C12_8 1_555 1_555
C18_5 C19_5 1_555 1_555
C25_5 C26_5 1_555 1_555
C49_2 C51_2 1_555 1_555
C75_2 C77_2 1_555 1_555
C89_2 C91_2 1_555 1_555
O24_6 Fe11_2 1_555 1_555
O37_6 Fe11_2 1_555 1_555
O46_6 Fe11_2 1_555 1_555
C112_6 O46_6 1_555 1_555
H74_6 C112_6 1_555 1_555
N2_6 C112_6 1_555 1_555
C114_6 N2_6 1_555 1_555
H76_6 C114_6 1_555 1_555
H78_6 C114_6 1_555 1_555
H80_6 C114_6 1_555 1_555
C116_6 N2_6 1_555 1_555
H82_6 C116_6 1_555 1_555
H84_6 C116_6 1_555 1_555
H86_6 C116_6 1_555 1_555
Fe8 O1_9 1_555 1_555
Fe18_4 O2_9 1_555 1_555
O1_9 C13_9 1_555 1_555
O2_9 C13_9 1_555 1_555
O18_2 C20_9 1_555 1_555
O4_9 C20_9 1_555 1_555
C1_6 C2_9 1_555 1_555
C2_9 H1_9 1_555 1_555
C3_6 C2_9 1_555 1_555
C4_6 C3_6 1_555 1_555
H2_6 C4_6 1_555 1_555
C5_6 C4_6 1_555 1_555
C6_6 C1_6 1_555 1_555
H3_6 C6_6 1_555 1_555
C7_9 C1_6 1_555 1_555
C8_9 C7_9 1_555 1_555
H4_6 C8_9 1_555 1_555
C9_9 C8_9 1_555 1_555
H5_9 C9_9 1_555 1_555
C10_9 C9_9 1_555 1_555
C11_9 C10_9 1_555 1_555
H6_9 C11_9 1_555 1_555
C12_9 C7_9 1_555 1_555
H7_9 C12_9 1_555 1_555
C13_9 C10_9 1_555 1_555
C14_9 C3_6 1_555 1_555
C15_9 C14_9 1_555 1_555
H8_9 C15_9 1_555 1_555
C16_9 C15_9 1_555 1_555
H9_9 C16_9 1_555 1_555
C17_9 C16_9 1_555 1_555
C18_6 C17_9 1_555 1_555
H10_6 C18_6 1_555 1_555
C19_6 C14_9 1_555 1_555
H11_6 C19_6 1_555 1_555
C20_9 C17_9 1_555 1_555
C21_6 C5_6 1_555 1_555
C22_6 C21_6 1_555 1_555
H12_6 C22_6 1_555 1_555
C23_6 C22_6 1_555 1_555
H13_6 C23_6 1_555 1_555
C24_6 C23_6 1_555 1_555
C25_6 C24_6 1_555 1_555
H14_6 C25_6 1_555 1_555
C26_6 C21_6 1_555 1_555
H15_6 C26_6 1_555 1_555
O10_9 Fe18_4 1_555 1_555
H21_9 O10_9 1_555 1_555
H22_9 O10_9 1_555 1_555
O11_9 Fe8 1_555 1_555
C37_9 O11_9 1_555 1_555
H23_9 C37_9 1_555 1_555
N1_6 C37_9 1_555 1_555
C38_6 N1_6 1_555 1_555
H24_6 C38_6 1_555 1_555
H25_6 C38_6 1_555 1_555
H26_6 C38_6 1_555 1_555
C39_6 N1_6 1_555 1_555
H27_6 C39_6 1_555 1_555
H28_6 C39_6 1_555 1_555
H29_6 C39_6 1_555 1_555
Fe15 O14_6 1_555 1_555
O12_6 C64_6 1_555 1_555
O14_6 C64_6 1_555 1_555
O16_6 Fe8 1_555 1_555
O20_6 C78_6 1_555 1_555
O23_3 Fe8 1_555 1_555
O28_6 Fe18_4 1_555 1_555
O33_9 Fe18_4 1_555 1_555
C40_6 C42_6 1_555 1_555
C42_6 H30_6 1_555 1_555
C44_6 C42_6 1_555 1_555
C46_6 C44_6 1_555 1_555
C47_3 C45_3 1_555 1_555
H32_6 C46_6 1_555 1_555
H33_3 C47_3 1_555 1_555
C48_6 C46_6 1_555 1_555
C49_3 C47_3 1_555 1_555
C50_6 C40_6 1_555 1_555
C51_3 C41_3 1_555 1_555
H34_6 C50_6 1_555 1_555
H35_3 C51_3 1_555 1_555
C52_6 C40_6 1_555 1_555
C54_6 C52_6 1_555 1_555
H36_6 C54_6 1_555 1_555
C56_6 C54_6 1_555 1_555
H38_6 C56_6 1_555 1_555
C58_6 C56_6 1_555 1_555
C60_6 C58_6 1_555 1_555
H40_6 C60_6 1_555 1_555
C62_6 C52_6 1_555 1_555
H42_6 C62_6 1_555 1_555
C64_6 C58_6 1_555 1_555
C66_6 C44_6 1_555 1_555
C68_6 C66_6 1_555 1_555
H44_6 C68_6 1_555 1_555
C70_6 C68_6 1_555 1_555
H46_6 C70_6 1_555 1_555
C72_6 C70_6 1_555 1_555
C74_6 C72_6 1_555 1_555
H48_6 C74_6 1_555 1_555
H49_3 C75_3 1_555 1_555
C76_6 C66_6 1_555 1_555
H50_6 C76_6 1_555 1_555
H51_3 C77_3 1_555 1_555
C78_6 O16_6 1_555 1_555
C80_6 C48_6 1_555 1_555
C81_3 C49_3 1_555 1_555
C82_6 C80_6 1_555 1_555
C83_3 C81_3 1_555 1_555
H52_6 C82_6 1_555 1_555
H53_3 C83_3 1_555 1_555
C84_6 C82_6 1_555 1_555
C85_3 C83_3 1_555 1_555
H54_6 C84_6 1_555 1_555
H55_3 C85_3 1_555 1_555
C86_6 C84_6 1_555 1_555
C87_3 C85_3 1_555 1_555
C88_6 C86_6 1_555 1_555
C89_3 C87_3 1_555 1_555
H56_6 C88_6 1_555 1_555
H57_3 C89_3 1_555 1_555
C90_6 C80_6 1_555 1_555
C91_3 C81_3 1_555 1_555
H58_6 C90_6 1_555 1_555
H59_3 C91_3 1_555 1_555
C93_3 O23_3 1_555 1_555
O44_6 Fe15 1_555 1_555
H70_6 O44_6 1_555 1_555
H72_6 O44_6 1_555 1_555
C115_3 N3_3 1_555 1_555
H77_3 C115_3 1_555 1_555
H79_3 C115_3 1_555 1_555
H81_3 C115_3 1_555 1_555
C117_3 N3_3 1_555 1_555
H83_3 C117_3 1_555 1_555
H85_3 C117_3 1_555 1_555
H87_3 C117_3 1_555 1_555
C5_6 C6_6 1_555 1_555
C11_9 C12_9 1_555 1_555
C18_6 C19_6 1_555 1_555
C25_6 C26_6 1_555 1_555
O29_2 C93_3 1_555 1_555
C48_6 C50_6 1_555 1_555
C49_3 C51_3 1_555 1_555
C60_6 C62_6 1_555 1_555
C72_6 C78_6 1_555 1_555
C74_6 C76_6 1_555 1_555
C75_3 C77_3 1_555 1_555
C87_3 C93_3 1_555 1_555
C88_6 C90_6 1_555 1_555
C89_3 C91_3 1_555 1_555
C4_7 C3_7 1_555 1_555
H2_7 C4_7 1_555 1_555
C5_7 C4_7 1_555 1_555
C6_7 C1_7 1_555 1_555
H3_7 C6_7 1_555 1_555
H10_7 C18_7 1_555 1_555
H11_7 C19_7 1_555 1_555
C21_7 C5_7 1_555 1_555
H14_7 C25_7 1_555 1_555
C26_7 C21_7 1_555 1_555
H15_7 C26_7 1_555 1_555
C5_7 C6_7 1_555 1_555
C18_7 C19_7 1_555 1_555
C25_7 C26_7 1_555 1_555
O24_4 C27_7 1_555 1_555
O28_5 C27_7 1_555 1_555
H12_7 C22_7 1_555 1_555
C23_7 C22_7 1_555 1_555
H13_7 C23_7 1_555 1_555
C24_7 C23_7 1_555 1_555
C27_7 C24_7 1_555 1_555
C38_7 N1_7 1_555 1_555
H24_7 C38_7 1_555 1_555
H25_7 C38_7 1_555 1_555
H26_7 C38_7 1_555 1_555
C39_7 N1_7 1_555 1_555
H28_7 C39_7 1_555 1_555
H29_7 C39_7 1_555 1_555
O24_5 C27_8 1_555 1_555
O28_6 C27_8 1_555 1_555
C4_8 C3_8 1_555 1_555
H2_8 C4_8 1_555 1_555
C5_8 C4_8 1_555 1_555
C6_8 C1_8 1_555 1_555
H3_8 C6_8 1_555 1_555
H10_8 C18_8 1_555 1_555
H11_8 C19_8 1_555 1_555
C21_8 C5_8 1_555 1_555
C22_8 C21_8 1_555 1_555
H12_8 C22_8 1_555 1_555
C23_8 C22_8 1_555 1_555
H13_8 C23_8 1_555 1_555
C24_8 C23_8 1_555 1_555
C25_8 C24_8 1_555 1_555
H14_8 C25_8 1_555 1_555
C26_8 C21_8 1_555 1_555
H15_8 C26_8 1_555 1_555
C27_8 C24_8 1_555 1_555
C38_8 N1_8 1_555 1_555
H24_8 C38_8 1_555 1_555
H25_8 C38_8 1_555 1_555
H26_8 C38_8 1_555 1_555
C39_8 N1_8 1_555 1_555
H27_8 C39_8 1_555 1_555
H28_8 C39_8 1_555 1_555
H29_8 C39_8 1_555 1_555
C5_8 C6_8 1_555 1_555
C18_8 C19_8 1_555 1_555
C25_8 C26_8 1_555 1_555
O24_6 C27_9 1_555 1_555
O28_4 C27_9 1_555 1_555
H12_9 C22_9 1_555 1_555
C23_9 C22_9 1_555 1_555
H13_9 C23_9 1_555 1_555
C24_9 C23_9 1_555 1_555
C27_9 C24_9 1_555 1_555
C38_9 N1_9 1_555 1_555
H24_9 C38_9 1_555 1_555
H25_9 C38_9 1_555 1_555
H26_9 C38_9 1_555 1_555
C39_9 N1_9 1_555 1_555
H28_9 C39_9 1_555 1_555
H29_9 C39_9 1_555 1_555
C4_9 C3_9 1_555 1_555
H2_9 C4_9 1_555 1_555
C5_9 C4_9 1_555 1_555
C6_9 C1_9 1_555 1_555
H3_9 C6_9 1_555 1_555
H10_9 C18_9 1_555 1_555
H11_9 C19_9 1_555 1_555
C21_9 C5_9 1_555 1_555
H14_9 C25_9 1_555 1_555
C26_9 C21_9 1_555 1_555
H15_9 C26_9 1_555 1_555
C5_9 C6_9 1_555 1_555
C18_9 C19_9 1_555 1_555
C25_9 C26_9 1_555 1_555
O33_7 C36_6 1_555 1_555
C28_6 H16_6 1_555 1_555
C29_6 C28_6 1_555 1_555
C30_6 C29_6 1_555 1_555
C31_6 C30_6 1_555 1_555
H17_6 C31_6 1_555 1_555
C32_6 C31_6 1_555 1_555
H18_6 C32_6 1_555 1_555
C33_6 C32_6 1_555 1_555
C34_6 C33_6 1_555 1_555
H19_6 C34_6 1_555 1_555
C35_6 C30_6 1_555 1_555
H20_6 C35_6 1_555 1_555
C36_6 O37_6 1_555 1_555
O33_9 C111_6 1_555 1_555
O37_4 C110_6 1_555 1_555
O37_5 C111_6 1_555 1_555
C94_6 H60_6 1_555 1_555
C95_6 C29_6 1_555 1_555
H61_6 C95_6 1_555 1_555
C96_6 C28_6 1_555 1_555
C97_6 C94_6 1_555 1_555
C98_6 C97_6 1_555 1_555
C99_6 C96_6 1_555 1_555
C100_6 C98_6 1_555 1_555
C101_6 C99_6 1_555 1_555
H62_6 C100_6 1_555 1_555
H63_6 C101_6 1_555 1_555
C102_6 C100_6 1_555 1_555
C103_6 C101_6 1_555 1_555
H64_6 C102_6 1_555 1_555
H65_6 C103_6 1_555 1_555
C104_6 C102_6 1_555 1_555
C105_6 C103_6 1_555 1_555
C106_6 C104_6 1_555 1_555
C107_6 C105_6 1_555 1_555
H66_6 C106_6 1_555 1_555
H67_6 C107_6 1_555 1_555
C108_6 C98_6 1_555 1_555
C109_6 C99_6 1_555 1_555
H68_6 C108_6 1_555 1_555
H69_6 C109_6 1_555 1_555
C110_6 O33_8 1_555 1_555
C111_6 C105_6 1_555 1_555
C33_6 C36_6 1_555 1_555
C34_6 C35_6 1_555 1_555
C94_6 C96_6 1_555 1_555
C95_6 C97_6 1_555 1_555
C104_6 C110_6 1_555 1_555
C106_6 C108_6 1_555 1_555
C107_6 C109_6 1_555 1_555

#END
