
###############################################################################
#
# This file contains modified crystal structure data generated from the
# MOF subset of the Cambridge Structural Database (CSD) v543 
# hosted by the Cambridge Crystallographic Data Centre (CCDC).
#
# This work is licensed under the Creative Commons
# Attribution-NonCommercial-ShareAlike 4.0 International License.
# To view a copy of this license, visit
# http://creativecommons.org/licenses/by-nc-sa/4.0/
# or send a letter to
# Creative Commons, PO Box 1866, Mountain View, CA 94042, USA.
#
# CIF created using the CSD Python API on 29 September 2022
# The structure has been converted into the P1 space group
# The structure has a 3D framework
# The original CSD entry TISKOW is in the monoclinic crystal system
# The framework has been calculated to contain at least 10.0% void space
# The void calculation uses a probe of radius 1.32A, grid spacing 0.4
# H atom positions have been added when not included in the experimental data
# Generated hydrogen atom positions removed from atoms on special positions
#
###############################################################################

data_TISKOW
_chemical_formula_moiety         '(C128 H160 N72 O88 Zn32)n'
_symmetry_cell_setting           triclinic
_symmetry_space_group_name_H-M   'P 1'
_symmetry_Int_Tables_number      1
_space_group_name_Hall           'P 1'
loop_
_symmetry_equiv_pos_site_id
_symmetry_equiv_pos_as_xyz
1 x,y,z
_cell_length_a                   25.192(2)
_cell_length_b                   14.2036(9)
_cell_length_c                   18.7190(16)
_cell_angle_alpha                90
_cell_angle_beta                 119.594(2)
_cell_angle_gamma                90
_cell_volume                     5824.2
loop_
_atom_site_label
_atom_site_type_symbol
_atom_site_fract_x
_atom_site_fract_y
_atom_site_fract_z
Zn1 Zn 0.5000 0.0000 0.5000
Zn2 Zn 0.67838(3) 0.07970(4) 0.36492(3)
C4 C 0.8174(3) 0.2379(4) 0.6714(4)
C5 C 0.4126(2) 0.0446(4) 0.3125(3)
H2 H 0.4289 0.1049 0.3195
C7 C 0.6367(3) 0.1584(4) 0.4768(4)
H4 H 0.6646 0.2076 0.4923
C8 C 0.8011(2) 0.1362(4) 0.6565(3)
C9 C 0.4532(2) 0.2825(4) 0.5090(4)
H5 H 0.4626 0.3458 0.5221
C11 C 0.8133(3) 0.1100(5) 0.8009(4)
C13 C 0.8043(3) 0.0768(4) 0.7192(4)
C14 C 0.7902(2) 0.0964(4) 0.5824(3)
H7 H 0.7875 0.1352 0.5407
C15 C 0.5852(2) 0.0369(4) 0.4194(3)
N3 N 0.49451(19) 0.2159(3) 0.5282(3)
N5 N 0.6300(2) 0.0915(4) 0.4219(3)
N6 N 0.3656(2) 0.0136(3) 0.2415(3)
N7 N 0.5991(2) 0.1459(3) 0.5059(3)
N9 N 0.5653(2) 0.0660(3) 0.4682(3)
O1 O 0.6842(2) 0.2614(4) 0.6625(3)
O2 O 0.5805(2) 0.3070(3) 0.6837(3)
O3 O 0.7821(2) 0.1768(5) 0.8012(3)
O5 O 0.8502(4) 0.0698(4) 0.8649(3)
O6 O 0.75163(19) 0.5070(3) 0.5748(2)
O8 O 0.8660(2) 0.2615(3) 0.7295(4)
O9 O 0.7205(2) 0.2030(3) 0.3822(3)
O11 O 0.5890(4) 0.3520(5) 0.5279(6)
Zn5 Zn 0.82162(3) 0.42030(4) 0.63508(3)
Zn6 Zn 0.32162(3) 0.07970(4) 0.13508(3)
Zn9 Zn 0.81389(2) 0.19266(4) 0.92350(3)
Zn10 Zn 0.31389(2) 0.30734(4) 0.42350(3)
Zn12 Zn 0.68611(2) 0.69266(4) 0.57650(3)
Zn13 Zn 0.68611(2) 0.30734(4) 0.07650(3)
Zn14 Zn 0.81389(2) 0.80734(4) 0.42350(3)
Zn15 Zn 0.58938(3) 0.22079(4) 0.59473(4)
C17 C 0.4050(2) 0.1572(4) 0.4632(3)
H9 H 0.3732 0.1142 0.4375
C18 C 0.7242(2) 0.6624(4) 0.3776(3)
C19 C 0.7168(2) 0.5002(4) 0.4301(3)
C20 C 0.6826(3) 0.2621(4) 0.3286(4)
C22 C 0.6415(2) 0.0754(4) 0.7403(3)
H11 H 0.6707 0.1166 0.7775
C24 C 0.6989(2) 0.3638(4) 0.3435(3)
C26 C 0.7205(2) 0.5433(4) 0.5051(3)
C27 C 0.6867(3) 0.3900(5) 0.1991(4)
C28 C 0.7043(3) 0.5176(5) 0.2954(3)
H14 H 0.7037 0.5563 0.2548
C29 C 0.6957(3) 0.4232(4) 0.2808(4)
C30 C 0.7098(2) 0.4036(4) 0.4176(3)
H15 H 0.7125 0.3648 0.4593
H16 H 0.4300 0.0161 0.6138
C32 C 0.7139(2) 0.5583(4) 0.3680(3)
N10 N 0.56700(19) 0.0189(3) 0.6293(3)
N11 N 0.60199(19) 0.0976(3) 0.6634(3)
N13 N 0.3969(2) 0.2490(3) 0.4690(3)
N14 N 0.3700(2) 0.0915(4) 0.0781(3)
N16 N 0.6344(2) 0.0136(3) 0.2585(3)
N19 N 0.46297(19) 0.1343(3) 0.4979(3)
O14 O 0.2821(2) 0.3232(5) 0.3012(3)
O16 O 0.7179(2) 0.3232(5) 0.1988(3)
O17 O 0.27601(18) 0.1877(3) 0.4320(2)
O18 O 0.77601(18) 0.6877(3) 0.4320(2)
O19 O 0.3502(4) 0.4302(4) 0.3649(3)
O21 O 0.6498(4) 0.4302(4) 0.1351(3)
O24 O 0.31165(18) 0.3851(3) 0.5077(2)
O26 O 0.68835(18) 0.6149(3) 0.4923(2)
O27 O 0.6340(2) 0.2385(3) 0.2705(4)
O28 O 0.2795(2) 0.2030(3) 0.1178(3)
O29 O 0.7795(2) 0.2970(3) 0.6178(3)
O30 O 0.6839(2) 0.7173(3) 0.3284(3)
Zn1_2 Zn 0.5000 1.0000 0.5000
Zn4 Zn 0.41062(3) 0.77921(4) 0.40527(4)
C1 C 0.5950(2) 0.8428(4) 0.5368(3)
H1 H 0.6268 0.8858 0.5625
C2 C 0.7758(2) 0.8376(4) 0.6224(3)
C3 C 0.7832(2) 0.9998(4) 0.5699(3)
C6 C 0.3585(2) 0.9246(4) 0.2597(3)
H3 H 0.3293 0.8834 0.2225
C10 C 0.7795(2) 0.9567(4) 0.4949(3)
C12 C 0.7957(3) 0.9824(5) 0.7046(3)
H6 H 0.7963 0.9437 0.7452
H8 H 0.5700 0.9839 0.3862
C16 C 0.7861(2) 0.9417(4) 0.6320(3)
N1 N 0.43300(19) 0.9811(3) 0.3707(3)
N2 N 0.39801(19) 0.9024(3) 0.3366(3)
N4 N 0.6031(2) 0.7510(3) 0.5310(3)
N8 N 0.53703(19) 0.8657(3) 0.5021(3)
O4 O 0.72399(18) 0.8123(3) 0.5680(2)
O7 O 0.81165(18) 0.8851(3) 0.5077(2)
O10 O 0.8161(2) 0.7827(3) 0.6716(3)
Zn7 Zn 0.67838(3) 0.92030(4) 0.86492(3)
Zn8 Zn 0.32162(3) 0.92030(4) 0.63508(3)
C21 C 0.5874(2) 0.9554(4) 0.6875(3)
H10 H 0.5711 0.8951 0.6805
C23 C 0.3633(3) 0.8416(4) 0.5232(4)
H12 H 0.3354 0.7924 0.5077
C25 C 0.5468(2) 0.7175(4) 0.4910(4)
H13 H 0.5374 0.6542 0.4779
C31 C 0.4148(2) 0.9631(4) 0.5806(3)
N12 N 0.50549(19) 0.7841(3) 0.4718(3)
N15 N 0.3700(2) 0.9085(4) 0.5781(3)
N17 N 0.6344(2) 0.9864(3) 0.7585(3)
N18 N 0.4009(2) 0.8541(3) 0.4941(3)
N20 N 0.4347(2) 0.9340(3) 0.5318(3)
O12 O 0.3158(2) 0.7386(4) 0.3375(3)
O13 O 0.4195(2) 0.6930(3) 0.3163(3)
O15 O 0.7179(2) 0.6768(5) 0.6988(3)
O20 O 0.6498(4) 0.5698(4) 0.6351(3)
O22 O 0.74837(19) 0.9930(3) 0.4252(2)
O23 O 0.25163(19) 0.9930(3) 0.0748(2)
O31 O 0.4110(4) 0.6480(5) 0.4721(6)
O6_2 O 0.25163(19) 0.0070(3) 0.5748(2)
Zn12_2 Zn 0.18611(2) 0.19266(4) 0.57650(3)
C18_2 C 0.2242(2) 0.1624(4) 0.3776(3)
C19_2 C 0.2168(2) 0.0002(4) 0.4301(3)
C26_2 C 0.2205(2) 0.0433(4) 0.5051(3)
C28_2 C 0.2043(3) 0.0176(5) 0.2954(3)
H14_2 H 0.2037 0.0563 0.2548
C32_2 C 0.2139(2) 0.0583(4) 0.3680(3)
O26_2 O 0.18835(18) 0.1149(3) 0.4923(2)
O30_2 O 0.1839(2) 0.2173(3) 0.3284(3)
Zn1_3 Zn 0.0000 0.5000 0.5000
Zn2_2 Zn 0.17838(3) 0.57970(4) 0.36492(3)
C1_2 C 0.0950(2) 0.3428(4) 0.5368(3)
H1_2 H 0.1268 0.3858 0.5625
C2_2 C 0.2758(2) 0.3376(4) 0.6224(3)
C3_2 C 0.2832(2) 0.4998(4) 0.5699(3)
C4_2 C 0.3174(3) 0.7379(4) 0.6714(4)
C7_2 C 0.1367(3) 0.6584(4) 0.4768(4)
H4_2 H 0.1646 0.7076 0.4923
C8_2 C 0.3011(2) 0.6362(4) 0.6565(3)
C10_2 C 0.2795(2) 0.4567(4) 0.4949(3)
C11_2 C 0.3133(3) 0.6100(5) 0.8009(4)
C12_2 C 0.2957(3) 0.4824(5) 0.7046(3)
H6_2 H 0.2963 0.4437 0.7452
C13_2 C 0.3043(3) 0.5768(4) 0.7192(4)
C14_2 C 0.2902(2) 0.5964(4) 0.5824(3)
H7_2 H 0.2875 0.6352 0.5407
C15_2 C 0.0852(2) 0.5369(4) 0.4194(3)
H8_2 H 0.0700 0.4839 0.3862
C16_2 C 0.2861(2) 0.4417(4) 0.6320(3)
N4_2 N 0.1031(2) 0.2510(3) 0.5310(3)
N5_2 N 0.1300(2) 0.5915(4) 0.4219(3)
N7_2 N 0.0991(2) 0.6459(3) 0.5059(3)
N8_2 N 0.03703(19) 0.3657(3) 0.5021(3)
N9_2 N 0.0653(2) 0.5660(3) 0.4682(3)
O1_2 O 0.1842(2) 0.7614(4) 0.6625(3)
O2_2 O 0.0805(2) 0.8070(3) 0.6837(3)
O3_2 O 0.2821(2) 0.6768(5) 0.8012(3)
O4_2 O 0.22399(18) 0.3123(3) 0.5680(2)
O5_2 O 0.3502(4) 0.5698(4) 0.8649(3)
O8_2 O 0.3660(2) 0.7615(3) 0.7295(4)
O9_2 O 0.2205(2) 0.7030(3) 0.3822(3)
O10_2 O 0.3161(2) 0.2827(3) 0.6716(3)
O11_2 O 0.0890(4) 0.8520(5) 0.5279(6)
Zn7_2 Zn 0.17838(3) 0.42030(4) 0.86492(3)
Zn9_2 Zn 0.31389(2) 0.69266(4) 0.92350(3)
Zn13_2 Zn 0.18611(2) 0.80734(4) 0.07650(3)
Zn15_2 Zn 0.08938(3) 0.72079(4) 0.59473(4)
C20_2 C 0.1826(3) 0.7621(4) 0.3286(4)
C21_2 C 0.0874(2) 0.4554(4) 0.6875(3)
H10_2 H 0.0711 0.3951 0.6805
C22_2 C 0.1415(2) 0.5754(4) 0.7403(3)
H11_2 H 0.1707 0.6166 0.7775
C24_2 C 0.1989(2) 0.8638(4) 0.3435(3)
C25_2 C 0.0468(2) 0.2175(4) 0.4910(4)
H13_2 H 0.0374 0.1542 0.4779
C27_2 C 0.1867(3) 0.8900(5) 0.1991(4)
C29_2 C 0.1957(3) 0.9232(4) 0.2808(4)
C30_2 C 0.2098(2) 0.9036(4) 0.4176(3)
H15_2 H 0.2125 0.8648 0.4593
N10_2 N 0.06700(19) 0.5189(3) 0.6293(3)
N11_2 N 0.10199(19) 0.5976(3) 0.6634(3)
N12_2 N 0.00549(19) 0.2841(3) 0.4718(3)
N16_2 N 0.1344(2) 0.5136(3) 0.2585(3)
N17_2 N 0.1344(2) 0.4864(3) 0.7585(3)
O15_2 O 0.2179(2) 0.1768(5) 0.6988(3)
O16_2 O 0.2179(2) 0.8232(5) 0.1988(3)
O20_2 O 0.1498(4) 0.0698(4) 0.6351(3)
O21_2 O 0.1498(4) 0.9302(4) 0.1351(3)
O22_2 O 0.24837(19) 0.4930(3) 0.4252(2)
O27_2 O 0.1340(2) 0.7385(3) 0.2705(4)
O29_2 O 0.2795(2) 0.7970(3) 0.6178(3)
Zn1_4 Zn 1.0000 0.5000 0.5000
Zn4_2 Zn 0.91062(3) 0.27921(4) 0.40527(4)
C5_2 C 0.9126(2) 0.5446(4) 0.3125(3)
H2_2 H 0.9289 0.6049 0.3195
C6_2 C 0.8585(2) 0.4246(4) 0.2597(3)
H3_2 H 0.8293 0.3834 0.2225
C9_2 C 0.9532(2) 0.7825(4) 0.5090(4)
H5_2 H 0.9626 0.8458 0.5221
N1_2 N 0.93300(19) 0.4811(3) 0.3707(3)
N2_2 N 0.89801(19) 0.4024(3) 0.3366(3)
N3_2 N 0.99451(19) 0.7159(3) 0.5282(3)
N6_2 N 0.8656(2) 0.5136(3) 0.2415(3)
Zn6_2 Zn 0.82162(3) 0.57970(4) 0.13508(3)
C17_2 C 0.9050(2) 0.6572(4) 0.4632(3)
H9_2 H 0.8732 0.6142 0.4375
C23_2 C 0.8633(3) 0.3416(4) 0.5232(4)
H12_2 H 0.8354 0.2924 0.5077
C31_2 C 0.9148(2) 0.4631(4) 0.5806(3)
H16_2 H 0.9300 0.5161 0.6138
N13_2 N 0.8969(2) 0.7490(3) 0.4690(3)
N14_2 N 0.8700(2) 0.5915(4) 0.0781(3)
N15_2 N 0.8700(2) 0.4085(4) 0.5781(3)
N18_2 N 0.9009(2) 0.3541(3) 0.4941(3)
N19_2 N 0.96297(19) 0.6343(3) 0.4979(3)
N20_2 N 0.9347(2) 0.4340(3) 0.5318(3)
O12_2 O 0.8158(2) 0.2386(4) 0.3375(3)
O13_2 O 0.9195(2) 0.1930(3) 0.3163(3)
O14_2 O 0.7821(2) 0.8232(5) 0.3012(3)
O19_2 O 0.8502(4) 0.9302(4) 0.3649(3)
O23_2 O 0.75163(19) 0.4930(3) 0.0748(2)
O28_2 O 0.7795(2) 0.7030(3) 0.1178(3)
O31_2 O 0.9110(4) 0.1480(5) 0.4721(6)
Zn1_5 Zn 0.5000 0.0000 0.0000
C5_3 C 0.5874(2) 0.0446(4) 0.1875(3)
H2_3 H 0.5711 0.1049 0.1805
C7_3 C 0.3633(3) 0.1584(4) 0.0232(4)
H4_3 H 0.3354 0.2076 0.0077
C15_3 C 0.4148(2) 0.0369(4) 0.0806(3)
N9_3 N 0.4347(2) 0.0660(3) 0.0318(3)
C17_3 C 0.5950(2) 0.1572(4) 0.0368(3)
H9_3 H 0.6268 0.1142 0.0625
C18_3 C 0.2758(2) 0.6624(4) 0.1224(3)
C19_3 C 0.2832(2) 0.5002(4) 0.0699(3)
C20_3 C 0.3174(3) 0.2621(4) 0.1714(4)
C24_3 C 0.3011(2) 0.3638(4) 0.1565(3)
C27_3 C 0.3133(3) 0.3900(5) 0.3009(4)
C28_3 C 0.2957(3) 0.5176(5) 0.2046(3)
H14_3 H 0.2963 0.5563 0.2452
C29_3 C 0.3043(3) 0.4232(4) 0.2192(4)
C30_3 C 0.2902(2) 0.4036(4) 0.0824(3)
H15_3 H 0.2875 0.3648 0.0407
C32_3 C 0.2861(2) 0.5583(4) 0.1320(3)
N13_3 N 0.6031(2) 0.2490(3) 0.0310(3)
N19_3 N 0.53703(19) 0.1343(3) 0.0021(3)
O17_2 O 0.72399(18) 0.1877(3) 0.0680(2)
O18_2 O 0.22399(18) 0.6877(3) 0.0680(2)
O26_3 O 0.31165(18) 0.6149(3) 0.0077(2)
O27_3 O 0.3660(2) 0.2385(3) 0.2295(4)
O30_3 O 0.3161(2) 0.7173(3) 0.1716(3)
Zn1_6 Zn 0.5000 0.0000 1.0000
C4_3 C 0.1826(3) 0.2379(4) 0.8286(4)
C8_3 C 0.1989(2) 0.1362(4) 0.8435(3)
C9_3 C 0.5468(2) 0.2825(4) 0.9910(4)
H5_3 H 0.5374 0.3458 0.9779
C11_3 C 0.1867(3) 0.1100(5) 0.6991(4)
C13_3 C 0.1957(3) 0.0768(4) 0.7808(4)
C14_3 C 0.2098(2) 0.0964(4) 0.9176(3)
H7_3 H 0.2125 0.1352 0.9593
N3_3 N 0.50549(19) 0.2159(3) 0.9718(3)
N7_3 N 0.4009(2) 0.1459(3) 0.9941(3)
O1_3 O 0.3158(2) 0.2614(4) 0.8375(3)
O2_3 O 0.4195(2) 0.3070(3) 0.8163(3)
O6_3 O 0.24837(19) 0.5070(3) 0.9252(2)
O8_3 O 0.1340(2) 0.2615(3) 0.7705(4)
O11_3 O 0.4110(4) 0.3520(5) 0.9721(6)
Zn15_3 Zn 0.41062(3) 0.22079(4) 0.90527(4)
C22_3 C 0.3585(2) 0.0754(4) 0.7597(3)
H11_3 H 0.3293 0.1166 0.7225
C26_3 C 0.2795(2) 0.5433(4) 0.9949(3)
H16_3 H 0.5700 0.0161 0.8862
N10_3 N 0.43300(19) 0.0189(3) 0.8707(3)
N11_3 N 0.39801(19) 0.0976(3) 0.8366(3)
O24_2 O 0.68835(18) 0.3851(3) 0.9923(2)
O29_3 O 0.2205(2) 0.2970(3) 0.8822(3)
Zn1_7 Zn 0.5000 1.0000 0.0000
Zn4_3 Zn 0.58938(3) 0.77921(4) 0.09473(4)
C6_3 C 0.6415(2) 0.9246(4) 0.2403(3)
H3_3 H 0.6707 0.8834 0.2775
C10_3 C 0.2205(2) 0.9567(4) 0.0051(3)
H8_3 H 0.4300 0.9839 0.1138
N1_3 N 0.56700(19) 0.9811(3) 0.1293(3)
N2_3 N 0.60199(19) 0.9024(3) 0.1634(3)
C25_3 C 0.4532(2) 0.7175(4) 0.0090(4)
H13_3 H 0.4626 0.6542 0.0221
N12_3 N 0.49451(19) 0.7841(3) 0.0282(3)
N18_3 N 0.5991(2) 0.8541(3) 0.0059(3)
O12_3 O 0.6842(2) 0.7386(4) 0.1625(3)
O13_3 O 0.5805(2) 0.6930(3) 0.1837(3)
O31_3 O 0.5890(4) 0.6480(5) 0.0279(6)
Zn1_8 Zn 0.5000 1.0000 1.0000
C1_3 C 0.4050(2) 0.8428(4) 0.9632(3)
H1_3 H 0.3732 0.8858 0.9375
C2_3 C 0.2242(2) 0.8376(4) 0.8776(3)
C3_3 C 0.2168(2) 0.9998(4) 0.9301(3)
C12_3 C 0.2043(3) 0.9824(5) 0.7954(3)
H6_3 H 0.2037 0.9437 0.7548
C16_3 C 0.2139(2) 0.9417(4) 0.8680(3)
N4_3 N 0.3969(2) 0.7510(3) 0.9690(3)
N8_3 N 0.46297(19) 0.8657(3) 0.9979(3)
O4_3 O 0.27601(18) 0.8123(3) 0.9320(2)
O7_2 O 0.18835(18) 0.8851(3) 0.9923(2)
O10_3 O 0.1839(2) 0.7827(3) 0.8284(3)
C21_3 C 0.4126(2) 0.9554(4) 0.8125(3)
H10_3 H 0.4289 0.8951 0.8195
C23_3 C 0.6367(3) 0.8416(4) 0.9768(4)
H12_3 H 0.6646 0.7924 0.9923
C31_3 C 0.5852(2) 0.9631(4) 0.9194(3)
N15_3 N 0.6300(2) 0.9085(4) 0.9219(3)
N17_3 N 0.3656(2) 0.9864(3) 0.7415(3)
N20_3 N 0.5653(2) 0.9340(3) 0.9682(3)
H28 H 0.546555 0.624157 0.995266
Zn1_9 Zn -0.0000 0.5000 0.0000
Zn4_4 Zn 0.08938(3) 0.27921(4) 0.09473(4)
C5_4 C 0.0874(2) 0.5446(4) 0.1875(3)
H2_4 H 0.0711 0.6049 0.1805
C6_4 C 0.1415(2) 0.4246(4) 0.2403(3)
H3_4 H 0.1707 0.3834 0.2775
N1_4 N 0.06700(19) 0.4811(3) 0.1293(3)
N2_4 N 0.10199(19) 0.4024(3) 0.1634(3)
C17_4 C 0.0950(2) 0.6572(4) 0.0368(3)
H9_4 H 0.1268 0.6142 0.0625
N13_4 N 0.1031(2) 0.7490(3) 0.0310(3)
N18_4 N 0.0991(2) 0.3541(3) 0.0059(3)
N19_4 N 0.03703(19) 0.6343(3) 0.0021(3)
O12_4 O 0.1842(2) 0.2386(4) 0.1625(3)
O13_4 O 0.0805(2) 0.1930(3) 0.1837(3)
O31_4 O 0.0890(4) 0.1480(5) 0.0279(6)
Zn1_10 Zn 0.0000 0.5000 1.0000
C9_4 C 0.0468(2) 0.7825(4) 0.9910(4)
H5_4 H 0.0374 0.8458 0.9779
N3_4 N 0.00549(19) 0.7159(3) 0.9718(3)
C23_4 C 0.1367(3) 0.3416(4) 0.9768(4)
H12_4 H 0.1646 0.2924 0.9923
C31_4 C 0.0852(2) 0.4631(4) 0.9194(3)
H16_4 H 0.0700 0.5161 0.8862
N15_4 N 0.1300(2) 0.4085(4) 0.9219(3)
N20_4 N 0.0653(2) 0.4340(3) 0.9682(3)
H28_2 H 0.0465549 0.124157 0.995266
C18_4 C 0.7758(2) 0.1624(4) 0.1224(3)
C19_4 C 0.7832(2) 0.0002(4) 0.0699(3)
C28_4 C 0.7957(3) 0.0176(5) 0.2046(3)
H14_4 H 0.7963 0.0563 0.2452
C32_4 C 0.7861(2) 0.0583(4) 0.1320(3)
O26_4 O 0.81165(18) 0.1149(3) 0.0077(2)
O30_4 O 0.8161(2) 0.2173(3) 0.1716(3)
O6_4 O 0.74837(19) 0.0070(3) 0.9252(2)
C26_4 C 0.7795(2) 0.0433(4) 0.9949(3)
Zn1_11 Zn 1.0000 0.5000 0.0000
C7_4 C 0.8633(3) 0.6584(4) 0.0232(4)
H4_4 H 0.8354 0.7076 0.0077
C10_4 C 0.7205(2) 0.4567(4) 0.0051(3)
C15_4 C 0.9148(2) 0.5369(4) 0.0806(3)
H8_4 H 0.9300 0.4839 0.1138
N9_4 N 0.9347(2) 0.5660(3) 0.0318(3)
C20_4 C 0.8174(3) 0.7621(4) 0.1714(4)
C24_4 C 0.8011(2) 0.8638(4) 0.1565(3)
C25_4 C 0.9532(2) 0.2175(4) 0.0090(4)
H13_4 H 0.9626 0.1542 0.0221
C27_4 C 0.8133(3) 0.8900(5) 0.3009(4)
C29_4 C 0.8043(3) 0.9232(4) 0.2192(4)
C30_4 C 0.7902(2) 0.9036(4) 0.0824(3)
H15_4 H 0.7875 0.8648 0.0407
N12_4 N 0.99451(19) 0.2841(3) 0.0282(3)
O27_4 O 0.8660(2) 0.7385(3) 0.2295(4)
Zn1_12 Zn 1.0000 0.5000 1.0000
C1_4 C 0.9050(2) 0.3428(4) 0.9632(3)
H1_4 H 0.8732 0.3858 0.9375
C2_4 C 0.7242(2) 0.3376(4) 0.8776(3)
C3_4 C 0.7168(2) 0.4998(4) 0.9301(3)
C4_4 C 0.6826(3) 0.7379(4) 0.8286(4)
C8_4 C 0.6989(2) 0.6362(4) 0.8435(3)
C11_4 C 0.6867(3) 0.6100(5) 0.6991(4)
C12_4 C 0.7043(3) 0.4824(5) 0.7954(3)
H6_4 H 0.7037 0.4437 0.7548
C13_4 C 0.6957(3) 0.5768(4) 0.7808(4)
C14_4 C 0.7098(2) 0.5964(4) 0.9176(3)
H7_4 H 0.7125 0.6352 0.9593
C16_4 C 0.7139(2) 0.4417(4) 0.8680(3)
N4_4 N 0.8969(2) 0.2510(3) 0.9690(3)
N7_4 N 0.9009(2) 0.6459(3) 0.9941(3)
N8_4 N 0.96297(19) 0.3657(3) 0.9979(3)
O1_4 O 0.8158(2) 0.7614(4) 0.8375(3)
O2_4 O 0.9195(2) 0.8070(3) 0.8163(3)
O4_4 O 0.77601(18) 0.3123(3) 0.9320(2)
O8_4 O 0.6340(2) 0.7615(3) 0.7705(4)
O10_4 O 0.6839(2) 0.2827(3) 0.8284(3)
O11_4 O 0.9110(4) 0.8520(5) 0.9721(6)
Zn15_4 Zn 0.91062(3) 0.72079(4) 0.90527(4)
C21_4 C 0.9126(2) 0.4554(4) 0.8125(3)
H10_4 H 0.9289 0.3951 0.8195
C22_4 C 0.8585(2) 0.5754(4) 0.7597(3)
H11_4 H 0.8293 0.6166 0.7225
N10_4 N 0.93300(19) 0.5189(3) 0.8707(3)
N11_4 N 0.89801(19) 0.5976(3) 0.8366(3)
N17_4 N 0.8656(2) 0.4864(3) 0.7415(3)
O29_4 O 0.7205(2) 0.7970(3) 0.8822(3)
H28_3 H 0.453445 0.375843 0.00473442
H28_4 H 0.953445 0.875843 0.00473442
loop_
_geom_bond_atom_site_label_1
_geom_bond_atom_site_label_2
_geom_bond_site_symmetry_1
_geom_bond_site_symmetry_2
Zn2 N5 1_555 1_555
C4 C8 1_555 1_555
C5 H2 1_555 1_555
C7 H4 1_555 1_555
C8 C13 1_555 1_555
C9 H5 1_555 1_555
C11 C13 1_555 1_555
H7 C14 1_555 1_555
N3 C9 1_555 1_555
N5 C7 1_555 1_555
N6 C5 1_555 1_555
N7 C7 1_555 1_555
N9 Zn1 1_555 1_555
O1 Zn15 1_555 1_555
O2 Zn15 1_555 1_555
O3 C11 1_555 1_555
O5 C11 1_555 1_555
O6 Zn5 1_555 1_555
O8 C4 1_555 1_555
O9 Zn2 1_555 1_555
O11 Zn15 1_555 1_555
Zn5 O29 1_555 1_555
Zn6 N6 1_555 1_555
Zn9 O3 1_555 1_555
Zn10 N13 1_555 1_555
Zn12 O26 1_555 1_555
Zn13 O16 1_555 1_555
Zn14 O18 1_555 1_555
Zn15 N3 1_555 1_555
C17 H9 1_555 1_555
C18 C32 1_555 1_555
C19 C26 1_555 1_555
C20 O9 1_555 1_555
C22 H11 1_555 1_555
C24 C20 1_555 1_555
C26 O6 1_555 1_555
C27 C29 1_555 1_555
C28 H14 1_555 1_555
C29 C24 1_555 1_555
C30 C19 1_555 1_555
H15 C30 1_555 1_555
C32 C19 1_555 1_555
N10 Zn1 1_555 1_555
N11 Zn15 1_555 1_555
N13 C9 1_555 1_555
N14 Zn6 1_555 1_555
N16 Zn2 1_555 1_555
N19 Zn1 1_555 1_555
O14 Zn10 1_555 1_555
O16 C27 1_555 1_555
O17 Zn10 1_555 1_555
O18 C18 1_555 1_555
O19 Zn10 1_555 1_555
O21 Zn13 1_555 1_555
O24 Zn10 1_555 1_555
O26 C26 1_555 1_555
O27 C20 1_555 1_555
O28 Zn6 1_555 1_555
O29 C4 1_555 1_555
O30 C18 1_555 1_555
C8 C14 1_555 1_555
C15 N5 1_555 1_555
C15 N9 1_555 1_555
N3 N19 1_555 1_555
N7 N9 1_555 1_555
N7 Zn15 1_555 1_555
O5 Zn9 1_555 1_555
C17 N13 1_555 1_555
C17 N19 1_555 1_555
C22 N11 1_555 1_555
C24 C30 1_555 1_555
C27 O21 1_555 1_555
C28 C29 1_555 1_555
C28 C32 1_555 1_555
N10 N11 1_555 1_555
Zn1_2 N1 1_555 1_555
Zn12 N4 1_555 1_555
Zn4 N2 1_555 1_555
C1 H1 1_555 1_555
C2 C16 1_555 1_555
C3 C10 1_555 1_555
C6 H3 1_555 1_555
C10 O7 1_555 1_555
C12 H6 1_555 1_555
C16 C3 1_555 1_555
N2 C6 1_555 1_555
N4 C1 1_555 1_555
N8 Zn1_2 1_555 1_555
O4 Zn12 1_555 1_555
O7 Zn14 1_555 1_555
O10 C2 1_555 1_555
Zn7 N17 1_555 1_555
Zn8 N15 1_555 1_555
C21 H10 1_555 1_555
C23 H12 1_555 1_555
C25 N4 1_555 1_555
H13 C25 1_555 1_555
N12 Zn4 1_555 1_555
N15 C23 1_555 1_555
N17 C21 1_555 1_555
N18 Zn4 1_555 1_555
N20 Zn1_2 1_555 1_555
O12 Zn4 1_555 1_555
O13 Zn4 1_555 1_555
O15 Zn12 1_555 1_555
O20 Zn12 1_555 1_555
O31 Zn4 1_555 1_555
C1 N8 1_555 1_555
C2 O4 1_555 1_555
C10 O22 1_555 1_555
C12 C16 1_555 1_555
N1 N2 1_555 1_555
N8 N12 1_555 1_555
C23 N18 1_555 1_555
C25 N12 1_555 1_555
C31 N15 1_555 1_555
C31 N20 1_555 1_555
N18 N20 1_555 1_555
Zn12_2 O26_2 1_555 1_555
C18_2 C32_2 1_555 1_555
C19_2 C26_2 1_555 1_555
C26_2 O6_2 1_555 1_555
C28_2 H14_2 1_555 1_555
C32_2 C19_2 1_555 1_555
O17 C18_2 1_555 1_555
O26_2 C26_2 1_555 1_555
O30_2 C18_2 1_555 1_555
C28_2 C32_2 1_555 1_555
Zn2_2 N5_2 1_555 1_555
Zn12_2 N4_2 1_555 1_555
C1_2 H1_2 1_555 1_555
C2_2 C16_2 1_555 1_555
C3_2 C10_2 1_555 1_555
C4_2 C8_2 1_555 1_555
C7_2 H4_2 1_555 1_555
C8_2 C13_2 1_555 1_555
C10_2 O24 1_555 1_555
C11_2 C13_2 1_555 1_555
C12_2 H6_2 1_555 1_555
C13_2 C12_2 1_555 1_555
C14_2 C3_2 1_555 1_555
H7_2 C14_2 1_555 1_555
C15_2 H8_2 1_555 1_555
C16_2 C3_2 1_555 1_555
N4_2 C1_2 1_555 1_555
N5_2 C7_2 1_555 1_555
N7_2 C7_2 1_555 1_555
N8_2 Zn1_3 1_555 1_555
N9_2 Zn1_3 1_555 1_555
O1_2 Zn15_2 1_555 1_555
O2_2 Zn15_2 1_555 1_555
O3_2 C11_2 1_555 1_555
O4_2 Zn12_2 1_555 1_555
O5_2 C11_2 1_555 1_555
O8_2 C4_2 1_555 1_555
O9_2 Zn2_2 1_555 1_555
O10_2 C2_2 1_555 1_555
O11_2 Zn15_2 1_555 1_555
Zn8 O29_2 1_555 1_555
Zn7_2 N17_2 1_555 1_555
Zn9_2 O3_2 1_555 1_555
Zn13_2 O16_2 1_555 1_555
C20_2 O9_2 1_555 1_555
C21_2 H10_2 1_555 1_555
C22_2 H11_2 1_555 1_555
C24_2 C20_2 1_555 1_555
C25_2 N4_2 1_555 1_555
H13_2 C25_2 1_555 1_555
C27_2 C29_2 1_555 1_555
C29_2 C24_2 1_555 1_555
H15_2 C30_2 1_555 1_555
N10_2 Zn1_3 1_555 1_555
N11_2 Zn15_2 1_555 1_555
N16_2 Zn2_2 1_555 1_555
N17_2 C21_2 1_555 1_555
O15_2 Zn12_2 1_555 1_555
O16_2 C27_2 1_555 1_555
O20_2 Zn12_2 1_555 1_555
O21_2 Zn13_2 1_555 1_555
O22_2 Zn2_2 1_555 1_555
O27_2 C20_2 1_555 1_555
O29_2 C4_2 1_555 1_555
C1_2 N8_2 1_555 1_555
C2_2 O4_2 1_555 1_555
C8_2 C14_2 1_555 1_555
C10_2 O22_2 1_555 1_555
C12_2 C16_2 1_555 1_555
C15_2 N5_2 1_555 1_555
C15_2 N9_2 1_555 1_555
N7_2 N9_2 1_555 1_555
N7_2 Zn15_2 1_555 1_555
N8_2 N12_2 1_555 1_555
O5_2 Zn9_2 1_555 1_555
C21_2 N10_2 1_555 1_555
C22_2 N11_2 1_555 1_555
C22_2 N17_2 1_555 1_555
C24_2 C30_2 1_555 1_555
C25_2 N12_2 1_555 1_555
C27_2 O21_2 1_555 1_555
N10_2 N11_2 1_555 1_555
Zn1_4 N1_2 1_555 1_555
Zn4_2 N2_2 1_555 1_555
C5_2 H2_2 1_555 1_555
C6_2 H3_2 1_555 1_555
C9_2 H5_2 1_555 1_555
N1_2 C5_2 1_555 1_555
N2_2 C6_2 1_555 1_555
N3_2 C9_2 1_555 1_555
N6_2 C5_2 1_555 1_555
Zn6_2 N6_2 1_555 1_555
Zn5 N15_2 1_555 1_555
Zn14 N13_2 1_555 1_555
C17_2 H9_2 1_555 1_555
C23_2 H12_2 1_555 1_555
C31_2 H16_2 1_555 1_555
N13_2 C9_2 1_555 1_555
N14_2 Zn6_2 1_555 1_555
N15_2 C23_2 1_555 1_555
N18_2 Zn4_2 1_555 1_555
N19_2 Zn1_4 1_555 1_555
N20_2 Zn1_4 1_555 1_555
O12_2 Zn4_2 1_555 1_555
O13_2 Zn4_2 1_555 1_555
O14_2 Zn14 1_555 1_555
O19_2 Zn14 1_555 1_555
O23_2 Zn6_2 1_555 1_555
O28_2 Zn6_2 1_555 1_555
O31_2 Zn4_2 1_555 1_555
C6_2 N6_2 1_555 1_555
N1_2 N2_2 1_555 1_555
N3_2 N19_2 1_555 1_555
C17_2 N13_2 1_555 1_555
C17_2 N19_2 1_555 1_555
C23_2 N18_2 1_555 1_555
C31_2 N15_2 1_555 1_555
C31_2 N20_2 1_555 1_555
N18_2 N20_2 1_555 1_555
C5_3 H2_3 1_555 1_555
C7_3 H4_3 1_555 1_555
N14 C7_3 1_555 1_555
N16 C5_3 1_555 1_555
N9_3 Zn1_5 1_555 1_555
Zn13 N13_3 1_555 1_555
Zn13_2 O18_2 1_555 1_555
C17_3 H9_3 1_555 1_555
C18_3 C32_3 1_555 1_555
C20_3 O28 1_555 1_555
C24_3 C20_3 1_555 1_555
C27_3 C29_3 1_555 1_555
C28_3 H14_3 1_555 1_555
C29_3 C24_3 1_555 1_555
C30_3 C19_3 1_555 1_555
H15_3 C30_3 1_555 1_555
C32_3 C19_3 1_555 1_555
N19_3 Zn1_5 1_555 1_555
O14 C27_3 1_555 1_555
O17_2 Zn13 1_555 1_555
O18_2 C18_3 1_555 1_555
O27_3 C20_3 1_555 1_555
O30_3 C18_3 1_555 1_555
C15_3 N14 1_555 1_555
C15_3 N9_3 1_555 1_555
C17_3 N13_3 1_555 1_555
C17_3 N19_3 1_555 1_555
C24_3 C30_3 1_555 1_555
C27_3 O19 1_555 1_555
C28_3 C29_3 1_555 1_555
C28_3 C32_3 1_555 1_555
C4_3 C8_3 1_555 1_555
C8_3 C13_3 1_555 1_555
C9_3 H5_3 1_555 1_555
C11_3 C13_3 1_555 1_555
H7_3 C14_3 1_555 1_555
N3_3 C9_3 1_555 1_555
O1_3 Zn15_3 1_555 1_555
O2_3 Zn15_3 1_555 1_555
O15_2 C11_3 1_555 1_555
O20_2 C11_3 1_555 1_555
O6_3 Zn7_2 1_555 1_555
O8_3 C4_3 1_555 1_555
O11_3 Zn15_3 1_555 1_555
Zn7_2 O29_3 1_555 1_555
Zn15_3 N3_3 1_555 1_555
C22_3 H11_3 1_555 1_555
C26_3 O6_3 1_555 1_555
N10_3 Zn1_6 1_555 1_555
N11_3 Zn15_3 1_555 1_555
O29_3 C4_3 1_555 1_555
C8_3 C14_3 1_555 1_555
N7_3 Zn15_3 1_555 1_555
C22_3 N11_3 1_555 1_555
N10_3 N11_3 1_555 1_555
Zn1_7 N1_3 1_555 1_555
Zn4_3 N2_3 1_555 1_555
C6_3 H3_3 1_555 1_555
N2_3 C6_3 1_555 1_555
H13_3 C25_3 1_555 1_555
N12_3 Zn4_3 1_555 1_555
N18_3 Zn4_3 1_555 1_555
O12_3 Zn4_3 1_555 1_555
O13_3 Zn4_3 1_555 1_555
O31_3 Zn4_3 1_555 1_555
C10_3 O23 1_555 1_555
N1_3 N2_3 1_555 1_555
C25_3 N12_3 1_555 1_555
Zn9_2 N4_3 1_555 1_555
C1_3 H1_3 1_555 1_555
C2_3 C16_3 1_555 1_555
C12_3 H6_3 1_555 1_555
C16_3 C3_3 1_555 1_555
N4_3 C1_3 1_555 1_555
N8_3 Zn1_8 1_555 1_555
O4_3 Zn9_2 1_555 1_555
O10_3 C2_3 1_555 1_555
Zn8 N17_3 1_555 1_555
Zn7 N15_3 1_555 1_555
C21_3 H10_3 1_555 1_555
C23_3 H12_3 1_555 1_555
N15_3 C23_3 1_555 1_555
N17_3 C21_3 1_555 1_555
N20_3 Zn1_8 1_555 1_555
C1_3 N8_3 1_555 1_555
C2_3 O4_3 1_555 1_555
C12_3 C16_3 1_555 1_555
C31_3 N15_3 1_555 1_555
C31_3 N20_3 1_555 1_555
Zn1_9 N1_4 1_555 1_555
Zn4_4 N2_4 1_555 1_555
C5_4 H2_4 1_555 1_555
C6_4 H3_4 1_555 1_555
N1_4 C5_4 1_555 1_555
N2_4 C6_4 1_555 1_555
N16_2 C5_4 1_555 1_555
Zn13_2 N13_4 1_555 1_555
C17_4 H9_4 1_555 1_555
N18_4 Zn4_4 1_555 1_555
N19_4 Zn1_9 1_555 1_555
O12_4 Zn4_4 1_555 1_555
O13_4 Zn4_4 1_555 1_555
O31_4 Zn4_4 1_555 1_555
C6_4 N16_2 1_555 1_555
N1_4 N2_4 1_555 1_555
C17_4 N13_4 1_555 1_555
C17_4 N19_4 1_555 1_555
C9_4 H5_4 1_555 1_555
N3_4 C9_4 1_555 1_555
Zn7_2 N15_4 1_555 1_555
C23_4 H12_4 1_555 1_555
C31_4 H16_4 1_555 1_555
N15_4 C23_4 1_555 1_555
N20_4 Zn1_10 1_555 1_555
C31_4 N15_4 1_555 1_555
C31_4 N20_4 1_555 1_555
C18_4 C32_4 1_555 1_555
C28_4 H14_4 1_555 1_555
C32_4 C19_4 1_555 1_555
O17_2 C18_4 1_555 1_555
O30_4 C18_4 1_555 1_555
C28_4 C32_4 1_555 1_555
C26_4 O6_4 1_555 1_555
C7_4 H4_4 1_555 1_555
C15_4 H8_4 1_555 1_555
N14_2 C7_4 1_555 1_555
N9_4 Zn1_11 1_555 1_555
C20_4 O28_2 1_555 1_555
C24_4 C20_4 1_555 1_555
H13_4 C25_4 1_555 1_555
C27_4 C29_4 1_555 1_555
C29_4 C24_4 1_555 1_555
H15_4 C30_4 1_555 1_555
O14_2 C27_4 1_555 1_555
O27_4 C20_4 1_555 1_555
C10_4 O23_2 1_555 1_555
C15_4 N14_2 1_555 1_555
C15_4 N9_4 1_555 1_555
C24_4 C30_4 1_555 1_555
C25_4 N12_4 1_555 1_555
C27_4 O19_2 1_555 1_555
Zn9 N4_4 1_555 1_555
C1_4 H1_4 1_555 1_555
C2_4 C16_4 1_555 1_555
C4_4 C8_4 1_555 1_555
C8_4 C13_4 1_555 1_555
C11_4 C13_4 1_555 1_555
C12_4 H6_4 1_555 1_555
C13_4 C12_4 1_555 1_555
C14_4 C3_4 1_555 1_555
H7_4 C14_4 1_555 1_555
C16_4 C3_4 1_555 1_555
N4_4 C1_4 1_555 1_555
N8_4 Zn1_12 1_555 1_555
O1_4 Zn15_4 1_555 1_555
O2_4 Zn15_4 1_555 1_555
O15 C11_4 1_555 1_555
O4_4 Zn9 1_555 1_555
O20 C11_4 1_555 1_555
O8_4 C4_4 1_555 1_555
O10_4 C2_4 1_555 1_555
O11_4 Zn15_4 1_555 1_555
Zn7 O29_4 1_555 1_555
Zn5 N17_4 1_555 1_555
C21_4 H10_4 1_555 1_555
C22_4 H11_4 1_555 1_555
N10_4 Zn1_12 1_555 1_555
N11_4 Zn15_4 1_555 1_555
N17_4 C21_4 1_555 1_555
O29_4 C4_4 1_555 1_555
C1_4 N8_4 1_555 1_555
C2_4 O4_4 1_555 1_555
C8_4 C14_4 1_555 1_555
C12_4 C16_4 1_555 1_555
N7_4 Zn15_4 1_555 1_555
C21_4 N10_4 1_555 1_555
C22_4 N11_4 1_555 1_555
C22_4 N17_4 1_555 1_555
N10_4 N11_4 1_555 1_555

#END
