
###############################################################################
#
# This file contains modified crystal structure data generated from the
# MOF subset of the Cambridge Structural Database (CSD) v543 
# hosted by the Cambridge Crystallographic Data Centre (CCDC).
#
# This work is licensed under the Creative Commons
# Attribution-NonCommercial-ShareAlike 4.0 International License.
# To view a copy of this license, visit
# http://creativecommons.org/licenses/by-nc-sa/4.0/
# or send a letter to
# Creative Commons, PO Box 1866, Mountain View, CA 94042, USA.
#
# CIF created using the CSD Python API on 29 September 2022
# The structure has been converted into the P1 space group
# The structure has a 3D framework
# The original CSD entry TISNEQ is in the monoclinic crystal system
# The framework has been calculated to contain at least 10.0% void space
# The void calculation uses a probe of radius 1.32A, grid spacing 0.4
#
###############################################################################

data_TISNEQ
_chemical_formula_moiety         '(C104 H80 N24 O22 Zn4)n'
_symmetry_cell_setting           triclinic
_symmetry_space_group_name_H-M   'P 1'
_symmetry_Int_Tables_number      1
_space_group_name_Hall           'P 1'
loop_
_symmetry_equiv_pos_site_id
_symmetry_equiv_pos_as_xyz
1 x,y,z
_cell_length_a                   10.4405(7)
_cell_length_b                   20.4540(14)
_cell_length_c                   13.3926(8)
_cell_angle_alpha                90
_cell_angle_beta                 94.425(6)
_cell_angle_gamma                90
_cell_volume                     2851.46
loop_
_atom_site_label
_atom_site_type_symbol
_atom_site_fract_x
_atom_site_fract_y
_atom_site_fract_z
C27 C 0.5485(3) 0.06665(14) 0.4070(2)
H21 H 0.5280 0.1081 0.4296
C29 C 0.3917(3) 0.06571(14) 0.25594(17)
C30 C 0.2986(3) 0.02512(13) 0.21202(18)
C31 C 0.2050(3) 0.05144(14) 0.1443(2)
C32 C 0.2036(3) 0.11714(15) 0.1252(2)
H24 H 0.1395 0.1349 0.0812
C33 C 0.2980(3) 0.15749(14) 0.1714(2)
H25 H 0.2972 0.2021 0.1580
C34 C 0.3925(3) 0.13139(15) 0.2368(2)
H26 H 0.4561 0.1580 0.2675
C35 C 0.0360(3) 0.02997(13) 0.01857(19)
N8 N 0.6354(2) 0.02956(11) 0.45105(16)
N9 N 0.4905(2) 0.03828(10) 0.32401(15)
O7 O 0.11703(19) 0.00825(9) 0.10315(14)
H28 H 0.0868 0.0475 0.9672
C28 C 0.5483(3) 0.98004(13) 0.32044(18)
H22 H 0.5287 0.9485 0.2717
H23 H 0.2984 0.9808 0.2274
N7 N 0.6359(2) 0.97356(10) 0.39451(14)
Zn4 Zn 0.74659(3) 0.896901(14) 0.43727(2)
O12 O 0.11785(17) 0.66665(8) 0.97048(13)
Zn3 Zn 0.24659(3) 0.603099(14) 0.93727(2)
C36 C 0.9804(3) 0.99050(13) 0.6492(2)
C37 C 0.9459(3) 0.89230(15) 0.61090(18)
H30 H 0.9508 0.8469 0.6089
N10 N 0.8657(2) 0.92646(10) 0.55452(14)
N11 N 0.8869(2) 0.99108(11) 0.57851(16)
C45 C 0.9045(3) 0.82241(12) 0.18669(18)
C49 C 0.9437(3) 0.74792(12) 0.05387(19)
H39 H 0.9125 0.7194 0.0036
C50 C 0.8580(3) 0.78095(12) 0.11008(18)
H40 H 0.7700 0.7754 0.0965
C51 C 0.8151(3) 0.85198(13) 0.2554(2)
O9 O 0.86612(17) 0.87337(8) 0.33882(13)
O10 O 0.6985(2) 0.85328(10) 0.23444(15)
O13 O 0.61785(17) 0.83335(8) 0.47048(13)
C1 C 0.0485(3) 0.43335(14) 0.9070(2)
H1 H 0.0280 0.3919 0.9296
C2 C 0.0483(3) 0.51996(13) 0.82044(18)
H2 H 0.0287 0.5515 0.7717
C19 C 0.4045(3) 0.67759(12) 0.68669(18)
C20 C 0.5347(3) 0.66669(13) 0.7014(2)
H17 H 0.5658 0.6372 0.7503
C21 C 0.6197(3) 0.69901(13) 0.6445(2)
H18 H 0.7074 0.6911 0.6550
C22 C 0.5743(3) 0.74322(12) 0.57157(18)
C23 C 0.4437(3) 0.75208(12) 0.55387(19)
H19 H 0.4125 0.7806 0.5036
C24 C 0.3580(3) 0.71905(12) 0.61008(18)
H20 H 0.2700 0.7246 0.5965
C25 C 0.3151(3) 0.64802(13) 0.7554(2)
C26 C 0.6680(3) 0.78585(14) 0.5230(2)
N1 N 0.1359(2) 0.52644(10) 0.89451(14)
N2 N 0.1354(2) 0.47044(11) 0.95105(16)
O3 O 0.36612(17) 0.62663(8) 0.83882(13)
O4 O 0.1985(2) 0.64672(10) 0.73444(15)
O5 O 0.78403(19) 0.77605(8) 0.53457(14)
H7 H 0.0230 0.9365 0.9619
H27 H 0.9770 0.0635 0.0381
Zn1 Zn 0.25341(3) 0.103099(14) 0.56273(2)
C2_2 C 0.4517(3) 0.01996(13) 0.67956(18)
H2_2 H 0.4713 0.0515 0.7283
H3 H 0.7016 0.0192 0.7726
C10 C 0.0196(3) 0.00950(13) 0.3508(2)
C11 C 0.0541(3) 0.10770(15) 0.38910(18)
H10 H 0.0492 0.1531 0.3911
C19_2 C 0.0955(3) 0.17759(12) 0.81331(18)
C23_2 C 0.0563(3) 0.25208(12) 0.94613(19)
H19_2 H 0.0875 0.2806 0.9964
C24_2 C 0.1420(3) 0.21905(12) 0.88992(18)
H20_2 H 0.2300 0.2246 0.9035
C25_2 C 0.1849(3) 0.14802(13) 0.7446(2)
N1_2 N 0.3641(2) 0.02644(10) 0.60549(14)
N4 N 0.1343(2) 0.07354(10) 0.44548(14)
N5 N 0.1131(2) 0.00892(11) 0.42149(16)
O3_2 O 0.13388(17) 0.12663(8) 0.66118(13)
O4_2 O 0.3015(2) 0.14672(10) 0.76556(15)
O14 O 0.38215(17) 0.16665(8) 0.52952(13)
O6 O 0.88215(17) 0.33335(8) 0.02952(13)
Zn5 Zn 0.75341(3) 0.396901(14) 0.06273(2)
C45_2 C 0.5955(3) 0.32241(12) 0.31331(18)
C46 C 0.4653(3) 0.33331(13) 0.2986(2)
H37 H 0.4342 0.3628 0.2497
C47 C 0.3803(3) 0.30099(13) 0.3555(2)
H38 H 0.2926 0.3089 0.3450
C48 C 0.4257(3) 0.25678(12) 0.42843(18)
C49_2 C 0.5563(3) 0.24792(12) 0.44613(19)
H39_2 H 0.5875 0.2194 0.4964
C50_2 C 0.6420(3) 0.28095(12) 0.38992(18)
H40_2 H 0.7300 0.2754 0.4035
C51_2 C 0.6849(3) 0.35198(13) 0.2446(2)
C52 C 0.3320(3) 0.21415(14) 0.4770(2)
O9_2 O 0.63388(17) 0.37337(8) 0.16118(13)
O10_2 O 0.8015(2) 0.35328(10) 0.26556(15)
O11 O 0.21597(19) 0.22395(8) 0.46543(14)
N13 N 0.8641(2) 0.47356(10) 0.10549(14)
C27_2 C 0.9515(3) 0.56665(14) 0.0930(2)
H21_2 H 0.9720 0.6081 0.0704
C28_2 C 0.9517(3) 0.48004(13) 0.17956(18)
H22_2 H 0.9713 0.4485 0.2283
N8_2 N 0.8646(2) 0.52956(11) 0.04895(16)
H8 H 0.9132 0.9525 0.0328
C1_2 C 0.4515(3) 0.93335(14) 0.5930(2)
H1_2 H 0.4720 0.8919 0.5704
C3 C 0.6083(3) 0.93429(14) 0.74406(17)
C4 C 0.7014(3) 0.97488(13) 0.78798(18)
C5 C 0.7950(3) 0.94856(14) 0.8557(2)
C6 C 0.7964(3) 0.88286(15) 0.8748(2)
H4 H 0.8605 0.8651 0.9188
C7 C 0.7020(3) 0.84251(14) 0.8286(2)
H5 H 0.7028 0.7979 0.8420
C8 C 0.6075(3) 0.86861(15) 0.7632(2)
H6 H 0.5439 0.8420 0.7325
C9 C 0.9640(3) 0.97003(13) 0.98143(19)
N2_2 N 0.3646(2) 0.97044(11) 0.54895(16)
N3 N 0.5095(2) 0.96172(10) 0.67599(15)
O1 O 0.88297(19) 0.99175(9) 0.89685(14)
C12 C 0.8790(2) 0.09084(13) 0.25385(17)
C13 C 0.8007(2) 0.04435(13) 0.20602(18)
H11 H 0.8115 0.0003 0.2215
C14 C 0.7050(3) 0.06443(14) 0.13421(18)
C15 C 0.6875(3) 0.12970(15) 0.1116(2)
H12 H 0.6236 0.1432 0.0638
C16 C 0.7678(3) 0.17464(14) 0.1620(2)
H13 H 0.7570 0.2189 0.1476
C17 C 0.8629(3) 0.15565(14) 0.2325(2)
H14 H 0.9158 0.1867 0.2655
C18 C 0.5325(3) 0.03193(13) 0.01470(18)
H16 H 0.4717 0.0626 0.0396
C20_2 C 0.9653(3) 0.16669(13) 0.7986(2)
H17_2 H 0.9342 0.1372 0.7497
C21_2 C 0.8803(3) 0.19901(13) 0.8555(2)
H18_2 H 0.7926 0.1911 0.8450
C22_2 C 0.9257(3) 0.24322(12) 0.92843(18)
C26_2 C 0.8320(3) 0.28585(14) 0.9770(2)
N6 N 0.9790(2) 0.07033(10) 0.32744(14)
O2 O 0.62985(18) 0.01460(9) 0.09221(13)
O5_2 O 0.71597(19) 0.27605(8) 0.96543(14)
H15 H 0.5708 0.0514 0.9580
H29 H 0.0150 0.0280 0.6798
H9 H 0.9850 0.9720 0.3202
H35 H 0.4292 0.9486 0.0420
C38 C 0.1210(2) 0.90916(13) 0.74615(17)
C39 C 0.1993(2) 0.95565(13) 0.79398(18)
H31 H 0.1885 0.9997 0.7785
C40 C 0.2950(3) 0.93557(14) 0.86579(18)
C41 C 0.3125(3) 0.87030(15) 0.8884(2)
H32 H 0.3764 0.8568 0.9362
C42 C 0.2322(3) 0.82536(14) 0.8380(2)
H33 H 0.2430 0.7811 0.8524
C43 C 0.1371(3) 0.84435(14) 0.7675(2)
H34 H 0.0842 0.8133 0.7345
C44 C 0.4675(3) 0.96807(13) 0.98530(18)
H36 H 0.5283 0.9374 0.9604
N12 N 0.0210(2) 0.92967(10) 0.67256(14)
O8 O 0.37015(18) 0.98540(9) 0.90779(13)
C46_2 C 0.0347(3) 0.83331(13) 0.2014(2)
H37_2 H 0.0658 0.8628 0.2503
C47_2 C 0.1197(3) 0.80099(13) 0.1445(2)
H38_2 H 0.2074 0.8089 0.1550
C48_2 C 0.0743(3) 0.75678(12) 0.07157(18)
C52_2 C 0.1680(3) 0.71415(14) 0.0230(2)
O11_2 O 0.28403(19) 0.72395(8) 0.03457(14)
H16_2 H 0.0283 0.5626 0.4604
C36_2 C 0.5196(3) 0.49050(13) 0.8508(2)
H29_2 H 0.4850 0.5280 0.8202
C37_2 C 0.5541(3) 0.39230(15) 0.88910(18)
H30_2 H 0.5492 0.3469 0.8911
C38_2 C 0.3790(2) 0.40916(13) 0.75385(17)
C39_2 C 0.3007(2) 0.45565(13) 0.70602(18)
H31_2 H 0.3115 0.4997 0.7215
C40_2 C 0.2050(3) 0.43557(14) 0.63421(18)
C41_2 C 0.1875(3) 0.37030(15) 0.6116(2)
H32_2 H 0.1236 0.3568 0.5638
C42_2 C 0.2678(3) 0.32536(14) 0.6620(2)
H33_2 H 0.2570 0.2811 0.6476
C43_2 C 0.3629(3) 0.34435(14) 0.7325(2)
H34_2 H 0.4158 0.3133 0.7655
C44_2 C 0.0325(3) 0.46807(13) 0.51470(18)
H35_2 H 0.0708 0.4486 0.4580
N10_2 N 0.6343(2) 0.42646(10) 0.94548(14)
N11_2 N 0.6131(2) 0.49108(11) 0.92149(16)
N12_2 N 0.4790(2) 0.42967(10) 0.82744(14)
O8_2 O 0.12985(18) 0.48540(9) 0.59221(13)
C10_2 C 0.4804(3) 0.50950(13) 0.1492(2)
H9_2 H 0.5150 0.4720 0.1798
C11_2 C 0.4459(3) 0.60770(15) 0.11090(18)
H10_2 H 0.4508 0.6531 0.1089
C12_2 C 0.6210(2) 0.59084(13) 0.24615(17)
C13_2 C 0.6993(2) 0.54435(13) 0.29398(18)
H11_2 H 0.6885 0.5003 0.2785
C14_2 C 0.7950(3) 0.56443(14) 0.36579(18)
C15_2 C 0.8125(3) 0.62970(15) 0.3884(2)
H12_2 H 0.8764 0.6432 0.4362
C16_2 C 0.7322(3) 0.67464(14) 0.3380(2)
H13_2 H 0.7430 0.7189 0.3524
C17_2 C 0.6371(3) 0.65565(14) 0.2675(2)
H14_2 H 0.5842 0.6867 0.2345
C18_2 C 0.9675(3) 0.53193(13) 0.48530(18)
H15_2 H 0.9292 0.5514 0.5420
N4_2 N 0.3657(2) 0.57354(10) 0.05452(14)
N5_2 N 0.3869(2) 0.50892(11) 0.07851(16)
N6_2 N 0.5210(2) 0.57033(10) 0.17256(14)
O2_2 O 0.87015(18) 0.51460(9) 0.40779(13)
H36_2 H 0.9717 0.4374 0.5396
C3_2 C 0.8917(3) 0.43429(14) 0.75594(17)
C4_2 C 0.7986(3) 0.47488(13) 0.71202(18)
H3_2 H 0.7984 0.5192 0.7274
C5_2 C 0.7050(3) 0.44856(14) 0.6443(2)
C6_2 C 0.7036(3) 0.38286(15) 0.6252(2)
H4_2 H 0.6395 0.3651 0.5812
C7_2 C 0.7980(3) 0.34251(14) 0.6714(2)
H5_2 H 0.7972 0.2979 0.6580
C8_2 C 0.8925(3) 0.36861(15) 0.7368(2)
H6_2 H 0.9561 0.3420 0.7675
C9_2 C 0.5360(3) 0.47003(13) 0.51857(19)
H7_2 H 0.4770 0.4365 0.5381
H8_2 H 0.5868 0.4525 0.4672
N3_2 N 0.9905(2) 0.46172(10) 0.82401(15)
O1_2 O 0.61703(19) 0.49175(9) 0.60315(14)
C29_2 C 0.1083(3) 0.56571(14) 0.24406(17)
C30_2 C 0.2014(3) 0.52512(13) 0.28798(18)
H23_2 H 0.2016 0.4808 0.2726
C31_2 C 0.2950(3) 0.55144(14) 0.3557(2)
C32_2 C 0.2964(3) 0.61714(15) 0.3748(2)
H24_2 H 0.3605 0.6349 0.4188
C33_2 C 0.2020(3) 0.65749(14) 0.3286(2)
H25_2 H 0.2028 0.7021 0.3420
C34_2 C 0.1075(3) 0.63139(15) 0.2632(2)
H26_2 H 0.0439 0.6580 0.2325
C35_2 C 0.4640(3) 0.52997(13) 0.48143(19)
H27_2 H 0.5230 0.5635 0.4619
H28_2 H 0.4132 0.5475 0.5328
N9_2 N 0.0095(2) 0.53828(10) 0.17599(15)
O7_2 O 0.38297(19) 0.50825(9) 0.39685(14)
loop_
_geom_bond_atom_site_label_1
_geom_bond_atom_site_label_2
_geom_bond_site_symmetry_1
_geom_bond_site_symmetry_2
C27 H21 1_555 1_555
C29 C30 1_555 1_555
C31 C30 1_555 1_555
C32 C31 1_555 1_555
H24 C32 1_555 1_555
C33 C32 1_555 1_555
H25 C33 1_555 1_555
C34 C29 1_555 1_555
H26 C34 1_555 1_555
N8 C27 1_555 1_555
N9 C27 1_555 1_555
O7 C31 1_555 1_555
C29 N9 1_555 1_555
C33 C34 1_555 1_555
C35 O7 1_555 1_555
C28 H22 1_555 1_555
N7 C28 1_555 1_555
Zn4 N7 1_555 1_555
Zn3 O12 1_555 1_555
C37 H30 1_555 1_555
N10 C37 1_555 1_555
N11 C36 1_555 1_555
Zn4 N10 1_555 1_555
H39 C49 1_555 1_555
C50 C45 1_555 1_555
H40 C50 1_555 1_555
C51 C45 1_555 1_555
O9 Zn4 1_555 1_555
O10 C51 1_555 1_555
O13 Zn4 1_555 1_555
N10 N11 1_555 1_555
C49 C50 1_555 1_555
C51 O9 1_555 1_555
Zn3 N1 1_555 1_555
C1 H1 1_555 1_555
C2 H2 1_555 1_555
C19 C20 1_555 1_555
C20 H17 1_555 1_555
C21 C20 1_555 1_555
H18 C21 1_555 1_555
C22 C21 1_555 1_555
C23 C22 1_555 1_555
H19 C23 1_555 1_555
C24 C19 1_555 1_555
H20 C24 1_555 1_555
C25 C19 1_555 1_555
C26 C22 1_555 1_555
N1 C2 1_555 1_555
N2 C1 1_555 1_555
O3 Zn3 1_555 1_555
O4 C25 1_555 1_555
O5 C26 1_555 1_555
O13 C26 1_555 1_555
C23 C24 1_555 1_555
C25 O3 1_555 1_555
N1 N2 1_555 1_555
Zn1 N1_2 1_555 1_555
C2_2 H2_2 1_555 1_555
C11 H10 1_555 1_555
H19_2 C23_2 1_555 1_555
C24_2 C19_2 1_555 1_555
H20_2 C24_2 1_555 1_555
C25_2 C19_2 1_555 1_555
N1_2 C2_2 1_555 1_555
N4 Zn1 1_555 1_555
N5 C10 1_555 1_555
O3_2 Zn1 1_555 1_555
O4_2 C25_2 1_555 1_555
O14 Zn1 1_555 1_555
C11 N4 1_555 1_555
C23_2 C24_2 1_555 1_555
C25_2 O3_2 1_555 1_555
N4 N5 1_555 1_555
Zn5 O6 1_555 1_555
C45_2 C46 1_555 1_555
C46 H37 1_555 1_555
C47 C46 1_555 1_555
H38 C47 1_555 1_555
C48 C47 1_555 1_555
C49_2 C48 1_555 1_555
H39_2 C49_2 1_555 1_555
C50_2 C45_2 1_555 1_555
H40_2 C50_2 1_555 1_555
C51_2 C45_2 1_555 1_555
C52 C48 1_555 1_555
O9_2 Zn5 1_555 1_555
O10_2 C51_2 1_555 1_555
O11 C52 1_555 1_555
O14 C52 1_555 1_555
N13 Zn5 1_555 1_555
C49_2 C50_2 1_555 1_555
C51_2 O9_2 1_555 1_555
C27_2 H21_2 1_555 1_555
C28_2 H22_2 1_555 1_555
N13 C28_2 1_555 1_555
N8_2 C27_2 1_555 1_555
N13 N8_2 1_555 1_555
C1_2 H1_2 1_555 1_555
C3 C4 1_555 1_555
C5 C4 1_555 1_555
C6 C5 1_555 1_555
H4 C6 1_555 1_555
C7 C6 1_555 1_555
H5 C7 1_555 1_555
C8 C3 1_555 1_555
H6 C8 1_555 1_555
N2_2 C1_2 1_555 1_555
N3 C1_2 1_555 1_555
O1 C5 1_555 1_555
C3 N3 1_555 1_555
C7 C8 1_555 1_555
C9 O1 1_555 1_555
C12 C13 1_555 1_555
C13 H11 1_555 1_555
C14 C13 1_555 1_555
C15 C14 1_555 1_555
H12 C15 1_555 1_555
C16 C15 1_555 1_555
H13 C16 1_555 1_555
C17 C12 1_555 1_555
H14 C17 1_555 1_555
H16 C18 1_555 1_555
C20_2 H17_2 1_555 1_555
C21_2 C20_2 1_555 1_555
H18_2 C21_2 1_555 1_555
C22_2 C21_2 1_555 1_555
C26_2 C22_2 1_555 1_555
O2 C14 1_555 1_555
O5_2 C26_2 1_555 1_555
C12 N6 1_555 1_555
C16 C17 1_555 1_555
C18 O2 1_555 1_555
C38 C39 1_555 1_555
C39 H31 1_555 1_555
C40 C39 1_555 1_555
C41 C40 1_555 1_555
H32 C41 1_555 1_555
C42 C41 1_555 1_555
H33 C42 1_555 1_555
C43 C38 1_555 1_555
H34 C43 1_555 1_555
H36 C44 1_555 1_555
O8 C40 1_555 1_555
C46_2 H37_2 1_555 1_555
C47_2 C46_2 1_555 1_555
H38_2 C47_2 1_555 1_555
C48_2 C47_2 1_555 1_555
C52_2 C48_2 1_555 1_555
O11_2 C52_2 1_555 1_555
C38 N12 1_555 1_555
C42 C43 1_555 1_555
C44 O8 1_555 1_555
C36_2 H29_2 1_555 1_555
C37_2 H30_2 1_555 1_555
C38_2 C39_2 1_555 1_555
C39_2 H31_2 1_555 1_555
C40_2 C39_2 1_555 1_555
C41_2 C40_2 1_555 1_555
H32_2 C41_2 1_555 1_555
C42_2 C41_2 1_555 1_555
H33_2 C42_2 1_555 1_555
C43_2 C38_2 1_555 1_555
H34_2 C43_2 1_555 1_555
H35_2 C44_2 1_555 1_555
N10_2 C37_2 1_555 1_555
N11_2 C36_2 1_555 1_555
N12_2 C36_2 1_555 1_555
O8_2 C40_2 1_555 1_555
C37_2 N12_2 1_555 1_555
C38_2 N12_2 1_555 1_555
C42_2 C43_2 1_555 1_555
C44_2 O8_2 1_555 1_555
N10_2 N11_2 1_555 1_555
C10_2 H9_2 1_555 1_555
C11_2 H10_2 1_555 1_555
C12_2 C13_2 1_555 1_555
C13_2 H11_2 1_555 1_555
C14_2 C13_2 1_555 1_555
C15_2 C14_2 1_555 1_555
H12_2 C15_2 1_555 1_555
C16_2 C15_2 1_555 1_555
H13_2 C16_2 1_555 1_555
C17_2 C12_2 1_555 1_555
H14_2 C17_2 1_555 1_555
C18_2 H15_2 1_555 1_555
N5_2 C10_2 1_555 1_555
N6_2 C10_2 1_555 1_555
O2_2 C14_2 1_555 1_555
C11_2 N4_2 1_555 1_555
C11_2 N6_2 1_555 1_555
C12_2 N6_2 1_555 1_555
C16_2 C17_2 1_555 1_555
C18_2 O2_2 1_555 1_555
N4_2 N5_2 1_555 1_555
C3_2 C4_2 1_555 1_555
C4_2 H3_2 1_555 1_555
C5_2 C4_2 1_555 1_555
C6_2 C5_2 1_555 1_555
H4_2 C6_2 1_555 1_555
C7_2 C6_2 1_555 1_555
H5_2 C7_2 1_555 1_555
C8_2 C3_2 1_555 1_555
H6_2 C8_2 1_555 1_555
C9_2 H7_2 1_555 1_555
H8_2 C9_2 1_555 1_555
O1_2 C5_2 1_555 1_555
C29_2 C30_2 1_555 1_555
C30_2 H23_2 1_555 1_555
C31_2 C30_2 1_555 1_555
C32_2 C31_2 1_555 1_555
H24_2 C32_2 1_555 1_555
C33_2 C32_2 1_555 1_555
H25_2 C33_2 1_555 1_555
C34_2 C29_2 1_555 1_555
H26_2 C34_2 1_555 1_555
C35_2 C9_2 1_555 1_555
H27_2 C35_2 1_555 1_555
H28_2 C35_2 1_555 1_555
O7_2 C31_2 1_555 1_555
C3_2 N3_2 1_555 1_555
C7_2 C8_2 1_555 1_555
C9_2 O1_2 1_555 1_555
C29_2 N9_2 1_555 1_555
C33_2 C34_2 1_555 1_555
C35_2 O7_2 1_555 1_555

#END
