
###############################################################################
#
# This file contains modified crystal structure data generated from the
# MOF subset of the Cambridge Structural Database (CSD) v543 
# hosted by the Cambridge Crystallographic Data Centre (CCDC).
#
# This work is licensed under the Creative Commons
# Attribution-NonCommercial-ShareAlike 4.0 International License.
# To view a copy of this license, visit
# http://creativecommons.org/licenses/by-nc-sa/4.0/
# or send a letter to
# Creative Commons, PO Box 1866, Mountain View, CA 94042, USA.
#
# CIF created using the CSD Python API on 29 September 2022
# The structure has been converted into the P1 space group
# The structure has a 3D framework
# The original CSD entry TISNUH is in the hexagonal crystal system
# The framework has been calculated to contain at least 10.0% void space
# The void calculation uses a probe of radius 1.32A, grid spacing 0.4
# H atom positions have been added when not included in the experimental data
# Generated hydrogen atom positions removed from atoms on special positions
#
###############################################################################

data_TISNUH
_chemical_formula_moiety         '(C264 H324 O100 Zr26)n'
_symmetry_cell_setting           triclinic
_symmetry_space_group_name_H-M   'P 1'
_symmetry_Int_Tables_number      1
_space_group_name_Hall           'P 1'
loop_
_symmetry_equiv_pos_site_id
_symmetry_equiv_pos_as_xyz
1 x,y,z
_cell_length_a                   38.964(2)
_cell_length_b                   38.964(2)
_cell_length_c                   16.861(11)
_cell_angle_alpha                90
_cell_angle_beta                 90
_cell_angle_gamma                120
_cell_volume                     22168.7
loop_
_atom_site_label
_atom_site_type_symbol
_atom_site_fract_x
_atom_site_fract_y
_atom_site_fract_z
O5 O -0.000000 0.4579(3) 0.2604(6)
O6 O -0.000000 0.3970(3) 0.3972(6)
Zr2 Zr -0.000000 0.45462(4) 0.39531(8)
O13 O 0.0357(4) 0.51785(18) 0.3960(7)
O14 O 0.0358(3) 0.5660(3) 0.500000
O15 O -0.000000 0.5421(3) 0.2604(6)
O16 O -0.000000 0.6030(3) 0.3972(6)
Zr3 Zr -0.000000 0.54538(4) 0.39531(8)
O17 O 0.0599(2) 0.5922(2) 0.3500(5)
O19 O 0.0599(2) 0.4677(3) 0.3500(5)
O24 O 0.0358(3) 0.4698(4) 0.500000
Zr5 Zr 0.07225(6) 0.53613(3) 0.500000
Zr10 Zr -0.000000 0.454620(40) 0.60469(8)
Zr12 Zr -0.000000 0.545380(40) 0.60469(8)
C1 C 0.9041(3) 0.3981(3) 0.3661(6)
C2 C 0.8727(3) 0.3685(4) 0.3144(7)
C3 C 0.8344(4) 0.3604(4) 0.3245(7)
H1 H 0.828816 0.373422 0.364109
C4 C 0.8038(4) 0.3329(4) 0.2767(7)
H2 H 0.778024 0.327804 0.284461
C5 C 0.8119(4) 0.3134(4) 0.2176(6)
C6 C 0.8522(4) 0.3218(4) 0.2073(7)
H3 H 0.858353 0.308960 0.168151
C7 C 0.8816(4) 0.3493(4) 0.2563(7)
H4 H 0.907589 0.354798 0.249995
C8 C 0.7487(3) 0.2513(3) 0.2056(10)
H5 H 0.748262 0.251737 0.260755
C9 C 0.7805(3) 0.2826(4) 0.1677(7)
C10 C 0.7793(4) 0.2817(4) 0.0849(7)
C11 C 0.8099(4) 0.3147(4) 0.0383(6)
H6 H 0.829937 0.336327 0.064897
C12 C 0.7490(3) 0.2510(3) 0.0412(9)
O1 O 0.9401(2) 0.4078(2) 0.3500(5)
O2 O 0.8941(2) 0.4128(2) 0.4212(4)
O3 O 0.9643(4) 0.48215(18) 0.3960(7)
O4 O 0.9642(3) 0.4340(3) 0.500000
O5_2 O 1.000000 0.4579(3) 0.2604(6)
O6_2 O 1.000000 0.3970(3) 0.3972(6)
Zr1 Zr 0.92775(6) 0.46387(3) 0.500000
Zr2_2 Zr 1.000000 0.45462(4) 0.39531(8)
C35 C 0.6019(3) 0.0959(3) 0.3661(6)
C36 C 0.6315(4) 0.1273(3) 0.3144(7)
C37 C 0.6396(4) 0.1656(4) 0.3245(7)
H18 H 0.626578 0.171184 0.364109
C38 C 0.6671(4) 0.1962(4) 0.2767(7)
H19 H 0.672196 0.221976 0.284461
C39 C 0.6866(4) 0.1881(4) 0.2176(6)
C40 C 0.6782(4) 0.1478(4) 0.2073(7)
H20 H 0.691040 0.141647 0.168151
C41 C 0.6507(4) 0.1184(4) 0.2563(7)
H21 H 0.645202 0.092411 0.249995
C42 C 0.7174(4) 0.2195(3) 0.1677(7)
C43 C 0.7183(4) 0.2207(4) 0.0849(7)
C44 C 0.6853(4) 0.1901(4) 0.0383(6)
H22 H 0.663673 0.170063 0.064897
O11 O 0.5922(2) 0.0599(2) 0.3500(5)
O12 O 0.5872(2) 0.1059(2) 0.4212(4)
O15_2 O 1.000000 0.5421(3) 0.2604(6)
O16_2 O 1.000000 0.6030(3) 0.3972(6)
Zr3_2 Zr 1.000000 0.54538(4) 0.39531(8)
O18 O 0.9401(2) 0.5323(3) 0.3500(5)
O20 O 0.8941(2) 0.4813(3) 0.5788(4)
O21 O 0.8941(2) 0.4128(2) 0.5788(4)
O22 O 0.8941(2) 0.4813(3) 0.4212(4)
O23 O 0.9643(4) 0.48215(44) 0.6040(7)
O25 O 0.9642(3) 0.5302(4) 0.500000
Zr7 Zr 0.53612(7) 0.07225(6) 0.500000
Zr8 Zr 0.545380(40) 0.000000 0.39531(8)
Zr10_2 Zr 1.000000 0.454620(40) 0.60469(8)
Zr12_2 Zr 1.000000 0.545380(40) 0.60469(8)
C13 C 0.6019(3) 0.0959(3) 0.6339(6)
C14 C 0.6315(4) 0.1273(3) 0.6856(7)
C15 C 0.6396(4) 0.1656(4) 0.6755(7)
H7 H 0.626578 0.171184 0.635891
C16 C 0.6671(4) 0.1962(4) 0.7233(7)
H8 H 0.672196 0.221976 0.715539
C17 C 0.6866(4) 0.1881(4) 0.7824(6)
C18 C 0.6782(4) 0.1478(4) 0.7927(7)
H9 H 0.691040 0.141647 0.831849
C19 C 0.6507(4) 0.1184(4) 0.7437(7)
H10 H 0.645202 0.092411 0.750005
C20 C 0.7487(3) 0.2513(3) 0.7944(10)
H11 H 0.748263 0.251738 0.739245
C21 C 0.7174(4) 0.2195(3) 0.8323(7)
C22 C 0.7183(4) 0.2207(4) 0.9151(7)
C23 C 0.6853(4) 0.1901(4) 0.9617(6)
H12 H 0.663673 0.170063 0.935103
C24 C 0.7490(3) 0.2510(3) 0.9588(9)
O7 O 0.5922(2) 0.0599(2) 0.6500(5)
O8 O 0.5872(2) 0.1059(2) 0.5788(4)
C25 C 0.9041(3) 0.3981(3) 0.6339(6)
C26 C 0.8727(3) 0.3685(4) 0.6856(7)
C27 C 0.8344(4) 0.3604(4) 0.6755(7)
H13 H 0.828816 0.373422 0.635891
C28 C 0.8038(4) 0.3329(4) 0.7233(7)
H14 H 0.778024 0.327804 0.715539
C29 C 0.8119(4) 0.3134(4) 0.7824(6)
C30 C 0.8522(4) 0.3218(4) 0.7927(7)
H15 H 0.858353 0.308960 0.831849
C31 C 0.8816(4) 0.3493(4) 0.7437(7)
H16 H 0.907589 0.354798 0.750005
C32 C 0.7805(3) 0.2826(4) 0.8323(7)
C33 C 0.7793(4) 0.2817(4) 0.9151(7)
C34 C 0.8099(4) 0.3147(4) 0.9617(6)
H17 H 0.829937 0.336327 0.935103
O9 O 0.9401(2) 0.4078(2) 0.6500(5)
Zr11 Zr 0.54538(4) -0.000000 0.60469(8)
Zr8_2 Zr 0.545380(40) 1.000000 0.39531(8)
Zr11_2 Zr 0.54538(4) 1.000000 0.60469(8)
Zr8_3 Zr 0.454620(40) 0.000000 0.39531(8)
Zr11_3 Zr 0.45462(4) 0.000000 0.60469(8)
C1_2 C 0.0959(3) 0.6019(3) 0.3661(6)
C2_2 C 0.1273(3) 0.6315(4) 0.3144(7)
C3_2 C 0.1656(4) 0.6396(4) 0.3245(7)
H1_2 H 0.171184 0.626578 0.364109
C4_2 C 0.1962(4) 0.6671(4) 0.2767(7)
H2_2 H 0.221976 0.672196 0.284461
C5_2 C 0.1881(4) 0.6866(4) 0.2176(6)
C6_2 C 0.1478(4) 0.6782(4) 0.2073(7)
H3_2 H 0.141647 0.691040 0.168151
C7_2 C 0.1184(4) 0.6507(4) 0.2563(7)
H4_2 H 0.092411 0.645202 0.249995
C8_2 C 0.2513(3) 0.7487(3) 0.2056(10)
H5_2 H 0.251738 0.748263 0.260755
C9_2 C 0.2195(3) 0.7174(4) 0.1677(7)
C10_2 C 0.2207(4) 0.7183(4) 0.0849(7)
C11_2 C 0.1901(4) 0.6853(4) 0.0383(6)
H6_2 H 0.170063 0.663673 0.064897
C12_2 C 0.2510(3) 0.7490(3) 0.0412(9)
O2_2 O 0.1059(2) 0.5872(2) 0.4212(4)
C35_2 C 0.3981(3) 0.9041(3) 0.3661(6)
C36_2 C 0.3685(4) 0.8727(3) 0.3144(7)
C37_2 C 0.3604(4) 0.8344(4) 0.3245(7)
H18_2 H 0.373422 0.828816 0.364109
C38_2 C 0.3329(4) 0.8038(4) 0.2767(7)
H19_2 H 0.327804 0.778024 0.284461
C39_2 C 0.3134(4) 0.8119(4) 0.2176(6)
C40_2 C 0.3218(4) 0.8522(4) 0.2073(7)
H20_2 H 0.308960 0.858353 0.168151
C41_2 C 0.3493(4) 0.8816(4) 0.2563(7)
H21_2 H 0.354798 0.907589 0.249995
C42_2 C 0.2826(4) 0.7805(3) 0.1677(7)
C43_2 C 0.2817(4) 0.7793(4) 0.0849(7)
C44_2 C 0.3147(4) 0.8099(4) 0.0383(6)
H22_2 H 0.336327 0.829937 0.064897
O11_2 O 0.4078(2) 0.9401(2) 0.3500(5)
O12_2 O 0.4128(2) 0.8941(2) 0.4212(4)
O20_2 O 0.1059(2) 0.5187(3) 0.5788(4)
O21_2 O 0.1059(2) 0.5872(2) 0.5788(4)
O22_2 O 0.1059(2) 0.5187(3) 0.4212(4)
O23_2 O 0.0357(4) 0.51785(44) 0.6040(7)
Zr7_2 Zr 0.46388(7) 0.92775(6) 0.500000
Zr8_4 Zr 0.454620(40) 1.000000 0.39531(8)
C13_2 C 0.3981(3) 0.9041(3) 0.6339(6)
C14_2 C 0.3685(4) 0.8727(3) 0.6856(7)
C15_2 C 0.3604(4) 0.8344(4) 0.6755(7)
H7_2 H 0.373422 0.828816 0.635891
C16_2 C 0.3329(4) 0.8038(4) 0.7233(7)
H8_2 H 0.327804 0.778024 0.715539
C17_2 C 0.3134(4) 0.8119(4) 0.7824(6)
C18_2 C 0.3218(4) 0.8522(4) 0.7927(7)
H9_2 H 0.308960 0.858353 0.831849
C19_2 C 0.3493(4) 0.8816(4) 0.7437(7)
H10_2 H 0.354798 0.907589 0.750005
C20_2 C 0.2513(3) 0.7487(3) 0.7944(10)
H11_2 H 0.251737 0.748262 0.739245
C21_2 C 0.2826(4) 0.7805(3) 0.8323(7)
C22_2 C 0.2817(4) 0.7793(4) 0.9151(7)
C23_2 C 0.3147(4) 0.8099(4) 0.9617(6)
H12_2 H 0.336327 0.829937 0.935103
C24_2 C 0.2510(3) 0.7490(3) 0.9588(9)
O7_2 O 0.4078(2) 0.9401(2) 0.6500(5)
O8_2 O 0.4128(2) 0.8941(2) 0.5788(4)
C25_2 C 0.0959(3) 0.6019(3) 0.6339(6)
C26_2 C 0.1273(3) 0.6315(4) 0.6856(7)
C27_2 C 0.1656(4) 0.6396(4) 0.6755(7)
H13_2 H 0.171184 0.626578 0.635891
C28_2 C 0.1962(4) 0.6671(4) 0.7233(7)
H14_2 H 0.221976 0.672196 0.715539
C29_2 C 0.1881(4) 0.6866(4) 0.7824(6)
C30_2 C 0.1478(4) 0.6782(4) 0.7927(7)
H15_2 H 0.141647 0.691040 0.831849
C31_2 C 0.1184(4) 0.6507(4) 0.7437(7)
H16_2 H 0.092411 0.645202 0.750005
C32_2 C 0.2195(3) 0.7174(4) 0.8323(7)
C33_2 C 0.2207(4) 0.7183(4) 0.9151(7)
C34_2 C 0.1901(4) 0.6853(4) 0.9617(6)
H17_2 H 0.170063 0.663673 0.935103
O9_2 O 0.0599(2) 0.5922(2) 0.6500(5)
Zr11_4 Zr 0.45462(4) 1.000000 0.60469(8)
C1_3 C 0.6019(3) 0.5060(4) 0.3661(6)
C2_3 C 0.6315(4) 0.5042(5) 0.3144(7)
C3_3 C 0.6396(4) 0.4740(6) 0.3245(7)
H1_3 H 0.626578 0.455394 0.364109
C4_3 C 0.6671(4) 0.4709(6) 0.2767(7)
H2_3 H 0.672196 0.450220 0.284461
C5_3 C 0.6866(4) 0.4985(6) 0.2176(6)
C6_3 C 0.6782(4) 0.5304(6) 0.2073(7)
H3_3 H 0.691040 0.549393 0.168151
C7_3 C 0.6507(4) 0.5323(6) 0.2563(7)
H4_3 H 0.645202 0.552791 0.249995
C8_3 C 0.7487(3) 0.4974(4) 0.2056(10)
H5_3 H 0.748263 0.496525 0.260755
C9_3 C 0.7174(4) 0.4979(5) 0.1677(7)
C10_3 C 0.7183(4) 0.4976(6) 0.0849(7)
C11_3 C 0.6853(4) 0.4952(6) 0.0383(6)
H6_3 H 0.663673 0.493610 0.064897
C12_3 C 0.7490(3) 0.4980(4) 0.0412(9)
O1_2 O 0.5922(2) 0.5323(3) 0.3500(5)
O2_3 O 0.5872(2) 0.4813(3) 0.4212(4)
O3_2 O 0.51785(18) 0.48215(44) 0.3960(7)
O4_2 O 0.5660(3) 0.5302(4) 0.500000
O5_3 O 0.5421(3) 0.54210(30) 0.2604(6)
O6_3 O 0.6030(3) 0.60300(30) 0.3972(6)
Zr1_2 Zr 0.53613(3) 0.46388(7) 0.500000
Zr2_3 Zr 0.54538(4) 0.545380(40) 0.39531(8)
C35_3 C 0.9041(3) 0.5060(4) 0.3661(6)
C36_3 C 0.8727(3) 0.5042(5) 0.3144(7)
C37_3 C 0.8344(4) 0.4740(6) 0.3245(7)
H18_3 H 0.828816 0.455394 0.364109
C38_3 C 0.8038(4) 0.4709(6) 0.2767(7)
H19_3 H 0.778024 0.450220 0.284461
C39_3 C 0.8119(4) 0.4985(6) 0.2176(6)
C40_3 C 0.8522(4) 0.5304(6) 0.2073(7)
H20_3 H 0.858353 0.549393 0.168151
C41_3 C 0.8816(4) 0.5323(6) 0.2563(7)
H21_3 H 0.907589 0.552791 0.249995
C42_3 C 0.7805(3) 0.4979(5) 0.1677(7)
C43_3 C 0.7793(4) 0.4976(6) 0.0849(7)
C44_3 C 0.8099(4) 0.4952(6) 0.0383(6)
H22_3 H 0.829937 0.493610 0.064897
O13_2 O 0.48215(18) 0.51785(44) 0.3960(7)
O14_2 O 0.4340(3) 0.4698(4) 0.500000
O15_3 O 0.4579(3) 0.45790(30) 0.2604(6)
O16_3 O 0.3970(3) 0.39700(30) 0.3972(6)
Zr3_3 Zr 0.45462(4) 0.454620(40) 0.39531(8)
O17_2 O 0.4078(2) 0.4677(3) 0.3500(5)
O18_2 O 0.4677(3) 0.4078(4) 0.3500(5)
O19_2 O 0.5323(3) 0.5922(4) 0.3500(5)
O20_3 O 0.5187(3) 0.4128(4) 0.5788(4)
O21_3 O 0.5872(2) 0.4813(3) 0.5788(4)
O22_3 O 0.5187(3) 0.4128(4) 0.4212(4)
O23_3 O 0.51785(44) 0.48215(59) 0.6040(7)
O24_2 O 0.5302(4) 0.5660(5) 0.500000
O25_2 O 0.4698(4) 0.4340(5) 0.500000
Zr5_2 Zr 0.46387(3) 0.53612(7) 0.500000
Zr10_3 Zr 0.545380(40) 0.545380(40) 0.60469(8)
Zr12_3 Zr 0.454620(40) 0.454620(40) 0.60469(8)
C13_3 C 0.9041(3) 0.5060(4) 0.6339(6)
C14_3 C 0.8727(3) 0.5042(5) 0.6856(7)
C15_3 C 0.8344(4) 0.4740(6) 0.6755(7)
H7_3 H 0.828816 0.455394 0.635891
C16_3 C 0.8038(4) 0.4709(6) 0.7233(7)
H8_3 H 0.778024 0.450220 0.715539
C17_3 C 0.8119(4) 0.4985(6) 0.7824(6)
C18_3 C 0.8522(4) 0.5304(6) 0.7927(7)
H9_3 H 0.858353 0.549393 0.831849
C19_3 C 0.8816(4) 0.5323(6) 0.7437(7)
H10_3 H 0.907589 0.552791 0.750005
C20_3 C 0.7487(3) 0.4974(4) 0.7944(10)
H11_3 H 0.748262 0.496525 0.739245
C21_3 C 0.7805(3) 0.4979(5) 0.8323(7)
C22_3 C 0.7793(4) 0.4976(6) 0.9151(7)
C23_3 C 0.8099(4) 0.4952(6) 0.9617(6)
H12_3 H 0.829937 0.493610 0.935103
C24_3 C 0.7490(3) 0.4980(4) 0.9588(9)
O7_3 O 0.9401(2) 0.5323(3) 0.6500(5)
C25_3 C 0.6019(3) 0.5060(4) 0.6339(6)
C26_3 C 0.6315(4) 0.5042(5) 0.6856(7)
C27_3 C 0.6396(4) 0.4740(6) 0.6755(7)
H13_3 H 0.626578 0.455394 0.635891
C28_3 C 0.6671(4) 0.4709(6) 0.7233(7)
H14_3 H 0.672196 0.450220 0.715539
C29_3 C 0.6866(4) 0.4985(6) 0.7824(6)
C30_3 C 0.6782(4) 0.5304(6) 0.7927(7)
H15_3 H 0.691040 0.549393 0.831849
C31_3 C 0.6507(4) 0.5323(6) 0.7437(7)
H16_3 H 0.645202 0.552791 0.750005
C32_3 C 0.7174(4) 0.4979(5) 0.8323(7)
C33_3 C 0.7183(4) 0.4976(6) 0.9151(7)
C34_3 C 0.6853(4) 0.4952(6) 0.9617(6)
H17_3 H 0.663673 0.493610 0.935103
O9_3 O 0.5922(2) 0.5323(3) 0.6500(5)
C1_4 C 0.4940(4) 0.0959(3) 0.3661(6)
C2_4 C 0.4958(5) 0.1273(3) 0.3144(7)
C3_4 C 0.5260(6) 0.1656(4) 0.3245(7)
H1_4 H 0.544606 0.171184 0.364109
C4_4 C 0.5291(6) 0.1962(4) 0.2767(7)
H2_4 H 0.549780 0.221976 0.284461
C5_4 C 0.5015(6) 0.1881(4) 0.2176(6)
C6_4 C 0.4696(6) 0.1478(4) 0.2073(7)
H3_4 H 0.450607 0.141647 0.168151
C7_4 C 0.4677(6) 0.1184(4) 0.2563(7)
H4_4 H 0.447209 0.092411 0.249995
C8_4 C 0.5026(4) 0.2513(3) 0.2056(10)
H5_4 H 0.503475 0.251738 0.260755
C9_4 C 0.5021(5) 0.2195(3) 0.1677(7)
C10_4 C 0.5024(6) 0.2207(4) 0.0849(7)
C11_4 C 0.5048(6) 0.1901(4) 0.0383(6)
H6_4 H 0.506390 0.170063 0.064897
C12_4 C 0.5020(4) 0.2510(3) 0.0412(9)
O1_3 O 0.4677(3) 0.0599(2) 0.3500(5)
O2_4 O 0.5187(3) 0.1059(2) 0.4212(4)
O3_3 O 0.51785(44) 0.0357(4) 0.3960(7)
O4_3 O 0.4698(4) 0.0358(3) 0.500000
O5_4 O 0.45790(30) 0.000000 0.2604(6)
O6_4 O 0.39700(30) 0.000000 0.3972(6)
C35_4 C 0.4940(4) 0.3981(3) 0.3661(6)
C36_4 C 0.4958(5) 0.3685(4) 0.3144(7)
C37_4 C 0.5260(6) 0.3604(4) 0.3245(7)
H18_4 H 0.544606 0.373422 0.364109
C38_4 C 0.5291(6) 0.3329(4) 0.2767(7)
H19_4 H 0.549780 0.327804 0.284461
C39_4 C 0.5015(6) 0.3134(4) 0.2176(6)
C40_4 C 0.4696(6) 0.3218(4) 0.2073(7)
H20_4 H 0.450607 0.308960 0.168151
C41_4 C 0.4677(6) 0.3493(4) 0.2563(7)
H21_4 H 0.447209 0.354798 0.249995
C42_4 C 0.5021(5) 0.2826(4) 0.1677(7)
C43_4 C 0.5024(6) 0.2817(4) 0.0849(7)
C44_4 C 0.5048(6) 0.3147(4) 0.0383(6)
H22_4 H 0.506390 0.336327 0.064897
O15_4 O 0.54210(30) 0.000000 0.2604(6)
O16_4 O 0.60300(30) 0.000000 0.3972(6)
O21_4 O 0.5187(3) 0.1059(2) 0.5788(4)
O23_4 O 0.51785(59) 0.0357(4) 0.6040(7)
O25_3 O 0.5660(5) 0.0358(3) 0.500000
C13_4 C 0.4940(4) 0.3981(3) 0.6339(6)
C14_4 C 0.4958(5) 0.3685(4) 0.6856(7)
C15_4 C 0.5260(6) 0.3604(4) 0.6755(7)
H7_4 H 0.544606 0.373422 0.635891
C16_4 C 0.5291(6) 0.3329(4) 0.7233(7)
H8_4 H 0.549780 0.327804 0.715539
C17_4 C 0.5015(6) 0.3134(4) 0.7824(6)
C18_4 C 0.4696(6) 0.3218(4) 0.7927(7)
H9_4 H 0.450607 0.308960 0.831849
C19_4 C 0.4677(6) 0.3493(4) 0.7437(7)
H10_4 H 0.447209 0.354798 0.750005
C20_4 C 0.5026(4) 0.2513(3) 0.7944(10)
H11_4 H 0.503475 0.251737 0.739245
C21_4 C 0.5021(5) 0.2826(4) 0.8323(7)
C22_4 C 0.5024(6) 0.2817(4) 0.9151(7)
C23_4 C 0.5048(6) 0.3147(4) 0.9617(6)
H12_4 H 0.506390 0.336327 0.935103
C24_4 C 0.5020(4) 0.2510(3) 0.9588(9)
O7_4 O 0.4677(3) 0.4078(2) 0.6500(5)
C25_4 C 0.4940(4) 0.0959(3) 0.6339(6)
C26_4 C 0.4958(5) 0.1273(3) 0.6856(7)
C27_4 C 0.5260(6) 0.1656(4) 0.6755(7)
H13_4 H 0.544606 0.171184 0.635891
C28_4 C 0.5291(6) 0.1962(4) 0.7233(7)
H14_4 H 0.549780 0.221976 0.715539
C29_4 C 0.5015(6) 0.1881(4) 0.7824(6)
C30_4 C 0.4696(6) 0.1478(4) 0.7927(7)
H15_4 H 0.450607 0.141647 0.831849
C31_4 C 0.4677(6) 0.1184(4) 0.7437(7)
H16_4 H 0.447209 0.092411 0.750005
C32_4 C 0.5021(5) 0.2195(3) 0.8323(7)
C33_4 C 0.5024(6) 0.2207(4) 0.9151(7)
C34_4 C 0.5048(6) 0.1901(4) 0.9617(6)
H17_4 H 0.506390 0.170063 0.935103
O9_4 O 0.4677(3) 0.0599(2) 0.6500(5)
O5_5 O 0.45790(30) 1.000000 0.2604(6)
O6_5 O 0.39700(30) 1.000000 0.3972(6)
O13_3 O 0.48215(44) 0.9643(4) 0.3960(7)
O14_3 O 0.5302(4) 0.9642(3) 0.500000
O15_5 O 0.54210(30) 1.000000 0.2604(6)
O16_5 O 0.60300(30) 1.000000 0.3972(6)
O17_3 O 0.5323(3) 0.9401(2) 0.3500(5)
O24_3 O 0.4340(5) 0.9642(3) 0.500000
C1_5 C 0.5060(4) 0.9041(3) 0.3661(6)
C2_5 C 0.5042(5) 0.8727(3) 0.3144(7)
C3_5 C 0.4740(6) 0.8344(4) 0.3245(7)
H1_5 H 0.455394 0.828816 0.364109
C4_5 C 0.4709(6) 0.8038(4) 0.2767(7)
H2_5 H 0.450220 0.778024 0.284461
C5_5 C 0.4985(6) 0.8119(4) 0.2176(6)
C6_5 C 0.5304(6) 0.8522(4) 0.2073(7)
H3_5 H 0.549393 0.858353 0.168151
C7_5 C 0.5323(6) 0.8816(4) 0.2563(7)
H4_5 H 0.552791 0.907589 0.249995
C8_5 C 0.4974(4) 0.7487(3) 0.2056(10)
H5_5 H 0.496525 0.748262 0.260755
C9_5 C 0.4979(5) 0.7805(3) 0.1677(7)
C10_5 C 0.4976(6) 0.7793(4) 0.0849(7)
C11_5 C 0.4952(6) 0.8099(4) 0.0383(6)
H6_5 H 0.493610 0.829937 0.064897
C12_5 C 0.4980(4) 0.7490(3) 0.0412(9)
O2_5 O 0.4813(3) 0.8941(2) 0.4212(4)
C35_5 C 0.5060(4) 0.6019(3) 0.3661(6)
C36_5 C 0.5042(5) 0.6315(4) 0.3144(7)
C37_5 C 0.4740(6) 0.6396(4) 0.3245(7)
H18_5 H 0.455394 0.626578 0.364109
C38_5 C 0.4709(6) 0.6671(4) 0.2767(7)
H19_5 H 0.450220 0.672196 0.284461
C39_5 C 0.4985(6) 0.6866(4) 0.2176(6)
C40_5 C 0.5304(6) 0.6782(4) 0.2073(7)
H20_5 H 0.549393 0.691040 0.168151
C41_5 C 0.5323(6) 0.6507(4) 0.2563(7)
H21_5 H 0.552791 0.645202 0.249995
C42_5 C 0.4979(5) 0.7174(4) 0.1677(7)
C43_5 C 0.4976(6) 0.7183(4) 0.0849(7)
C44_5 C 0.4952(6) 0.6853(4) 0.0383(6)
H22_5 H 0.493610 0.663673 0.064897
O12_3 O 0.4813(3) 0.5872(2) 0.4212(4)
O21_5 O 0.4813(3) 0.8941(2) 0.5788(4)
O23_5 O 0.48215(59) 0.9643(4) 0.6040(7)
C13_5 C 0.5060(4) 0.6019(3) 0.6339(6)
C14_5 C 0.5042(5) 0.6315(4) 0.6856(7)
C15_5 C 0.4740(6) 0.6396(4) 0.6755(7)
H7_5 H 0.455394 0.626578 0.635891
C16_5 C 0.4709(6) 0.6671(4) 0.7233(7)
H8_5 H 0.450220 0.672196 0.715539
C17_5 C 0.4985(6) 0.6866(4) 0.7824(6)
C18_5 C 0.5304(6) 0.6782(4) 0.7927(7)
H9_5 H 0.549393 0.691040 0.831849
C19_5 C 0.5323(6) 0.6507(4) 0.7437(7)
H10_5 H 0.552791 0.645202 0.750005
C20_5 C 0.4974(4) 0.7487(3) 0.7944(10)
H11_5 H 0.496525 0.748263 0.739245
C21_5 C 0.4979(5) 0.7174(4) 0.8323(7)
C22_5 C 0.4976(6) 0.7183(4) 0.9151(7)
C23_5 C 0.4952(6) 0.6853(4) 0.9617(6)
H12_5 H 0.493610 0.663673 0.935103
C24_5 C 0.4980(4) 0.7490(3) 0.9588(9)
O7_5 O 0.5323(3) 0.5922(2) 0.6500(5)
O8_3 O 0.4813(3) 0.5872(2) 0.5788(4)
C25_5 C 0.5060(4) 0.9041(3) 0.6339(6)
C26_5 C 0.5042(5) 0.8727(3) 0.6856(7)
C27_5 C 0.4740(6) 0.8344(4) 0.6755(7)
H13_5 H 0.455394 0.828816 0.635891
C28_5 C 0.4709(6) 0.8038(4) 0.7233(7)
H14_5 H 0.450220 0.778024 0.715539
C29_5 C 0.4985(6) 0.8119(4) 0.7824(6)
C30_5 C 0.5304(6) 0.8522(4) 0.7927(7)
H15_5 H 0.549393 0.858353 0.831849
C31_5 C 0.5323(6) 0.8816(4) 0.7437(7)
H16_5 H 0.552791 0.907589 0.750005
C32_5 C 0.4979(5) 0.7805(3) 0.8323(7)
C33_5 C 0.4976(6) 0.7793(4) 0.9151(7)
C34_5 C 0.4952(6) 0.8099(4) 0.9617(6)
H17_5 H 0.493610 0.829937 0.935103
O9_5 O 0.5323(3) 0.9401(2) 0.6500(5)
C1_6 C 0.3981(3) 0.4940(4) 0.3661(6)
C2_6 C 0.3685(4) 0.4958(5) 0.3144(7)
C3_6 C 0.3604(4) 0.5260(6) 0.3245(7)
H1_6 H 0.373422 0.544606 0.364109
C4_6 C 0.3329(4) 0.5291(6) 0.2767(7)
H2_6 H 0.327804 0.549780 0.284461
C5_6 C 0.3134(4) 0.5015(6) 0.2176(6)
C6_6 C 0.3218(4) 0.4696(6) 0.2073(7)
H3_6 H 0.308960 0.450607 0.168151
C7_6 C 0.3493(4) 0.4677(6) 0.2563(7)
H4_6 H 0.354798 0.447209 0.249995
C8_6 C 0.2513(3) 0.5026(4) 0.2056(10)
H5_6 H 0.251737 0.503475 0.260755
C9_6 C 0.2826(4) 0.5021(5) 0.1677(7)
C10_6 C 0.2817(4) 0.5024(6) 0.0849(7)
C11_6 C 0.3147(4) 0.5048(6) 0.0383(6)
H6_6 H 0.336327 0.506390 0.064897
C12_6 C 0.2510(3) 0.5020(4) 0.0412(9)
O2_6 O 0.4128(2) 0.5187(3) 0.4212(4)
C35_6 C 0.0959(3) 0.4940(4) 0.3661(6)
C36_6 C 0.1273(3) 0.4958(5) 0.3144(7)
C37_6 C 0.1656(4) 0.5260(6) 0.3245(7)
H18_6 H 0.171184 0.544606 0.364109
C38_6 C 0.1962(4) 0.5291(6) 0.2767(7)
H19_6 H 0.221976 0.549780 0.284461
C39_6 C 0.1881(4) 0.5015(6) 0.2176(6)
C40_6 C 0.1478(4) 0.4696(6) 0.2073(7)
H20_6 H 0.141647 0.450607 0.168151
C41_6 C 0.1184(4) 0.4677(6) 0.2563(7)
H21_6 H 0.092411 0.447209 0.249995
C42_6 C 0.2195(3) 0.5021(5) 0.1677(7)
C43_6 C 0.2207(4) 0.5024(6) 0.0849(7)
C44_6 C 0.1901(4) 0.5048(6) 0.0383(6)
H22_6 H 0.170063 0.506390 0.064897
O21_6 O 0.4128(2) 0.5187(3) 0.5788(4)
O23_6 O 0.48215(44) 0.51785(59) 0.6040(7)
C13_6 C 0.0959(3) 0.4940(4) 0.6339(6)
C14_6 C 0.1273(3) 0.4958(5) 0.6856(7)
C15_6 C 0.1656(4) 0.5260(6) 0.6755(7)
H7_6 H 0.171184 0.544606 0.635891
C16_6 C 0.1962(4) 0.5291(6) 0.7233(7)
H8_6 H 0.221976 0.549780 0.715539
C17_6 C 0.1881(4) 0.5015(6) 0.7824(6)
C18_6 C 0.1478(4) 0.4696(6) 0.7927(7)
H9_6 H 0.141647 0.450607 0.831849
C19_6 C 0.1184(4) 0.4677(6) 0.7437(7)
H10_6 H 0.092411 0.447209 0.750005
C20_6 C 0.2513(3) 0.5026(4) 0.7944(10)
H11_6 H 0.251738 0.503475 0.739245
C21_6 C 0.2195(3) 0.5021(5) 0.8323(7)
C22_6 C 0.2207(4) 0.5024(6) 0.9151(7)
C23_6 C 0.1901(4) 0.5048(6) 0.9617(6)
H12_6 H 0.170063 0.506390 0.935103
C24_6 C 0.2510(3) 0.5020(4) 0.9588(9)
O7_6 O 0.0599(2) 0.4677(3) 0.6500(5)
C25_6 C 0.3981(3) 0.4940(4) 0.6339(6)
C26_6 C 0.3685(4) 0.4958(5) 0.6856(7)
C27_6 C 0.3604(4) 0.5260(6) 0.6755(7)
H13_6 H 0.373422 0.544606 0.635891
C28_6 C 0.3329(4) 0.5291(6) 0.7233(7)
H14_6 H 0.327804 0.549780 0.715539
C29_6 C 0.3134(4) 0.5015(6) 0.7824(6)
C30_6 C 0.3218(4) 0.4696(6) 0.7927(7)
H15_6 H 0.308960 0.450607 0.831849
C31_6 C 0.3493(4) 0.4677(6) 0.7437(7)
H16_6 H 0.354798 0.447209 0.750005
C32_6 C 0.2826(4) 0.5021(5) 0.8323(7)
C33_6 C 0.2817(4) 0.5024(6) 0.9151(7)
C34_6 C 0.3147(4) 0.5048(6) 0.9617(6)
H17_6 H 0.336327 0.506390 0.935103
O9_6 O 0.4078(2) 0.4677(3) 0.6500(5)
O5_6 O 0.54210(30) 0.5421(3) 0.7396(6)
O6_6 O 0.60300(30) 0.6030(3) 0.6028(6)
O15_6 O 0.45790(30) 0.4579(3) 0.7396(6)
O16_6 O 0.39700(30) 0.3970(3) 0.6028(6)
O5_7 O 0.000000 0.45790(30) 0.7396(6)
O6_7 O -0.000000 0.39700(30) 0.6028(6)
O15_7 O 0.000000 0.54210(30) 0.7396(6)
O16_7 O -0.000000 0.60300(30) 0.6028(6)
O5_8 O 1.000000 0.45790(30) 0.7396(6)
O6_8 O 1.000000 0.39700(30) 0.6028(6)
O15_8 O 1.000000 0.54210(30) 0.7396(6)
O16_8 O 1.000000 0.60300(30) 0.6028(6)
O5_9 O 0.4579(3) -0.000000 0.7396(6)
O6_9 O 0.3970(3) 0.000000 0.6028(6)
O15_9 O 0.5421(3) -0.000000 0.7396(6)
O16_9 O 0.6030(3) 0.000000 0.6028(6)
O5_10 O 0.4579(3) 1.000000 0.7396(6)
O6_10 O 0.3970(3) 1.000000 0.6028(6)
O15_10 O 0.5421(3) 1.000000 0.7396(6)
O16_10 O 0.6030(3) 1.000000 0.6028(6)
loop_
_geom_bond_atom_site_label_1
_geom_bond_atom_site_label_2
_geom_bond_site_symmetry_1
_geom_bond_site_symmetry_2
O5 Zr2 1_555 1_555
O6 Zr2 1_555 1_555
O13 Zr2 1_555 1_555
O14 Zr3 1_555 1_555
O15 Zr3 1_555 1_555
O16 Zr3 1_555 1_555
O17 Zr3 1_555 1_555
O19 Zr2 1_555 1_555
O24 Zr2 1_555 1_555
Zr5 O13 1_555 1_555
Zr12 O14 1_555 1_555
O13 Zr3 1_555 1_555
O14 Zr5 1_555 1_555
O24 Zr5 1_555 1_555
O24 Zr10 1_555 1_555
C1 C2 1_555 1_555
C2 C3 1_555 1_555
C3 H1 1_555 1_555
C4 C3 1_555 1_555
H2 C4 1_555 1_555
C5 C4 1_555 1_555
C6 C5 1_555 1_555
H3 C6 1_555 1_555
C7 C2 1_555 1_555
H4 C7 1_555 1_555
C8 H5 1_555 1_555
C9 C5 1_555 1_555
C10 C9 1_555 1_555
C11 C10 1_555 1_555
H6 C11 1_555 1_555
C12 C10 1_555 1_555
O1 C1 1_555 1_555
O2 C1 1_555 1_555
O3 Zr1 1_555 1_555
O4 Zr1 1_555 1_555
O5_2 Zr2_2 1_555 1_555
O6_2 Zr2_2 1_555 1_555
Zr1 O2 1_555 1_555
Zr2_2 O1 1_555 1_555
C35 C36 1_555 1_555
C36 C37 1_555 1_555
C37 H18 1_555 1_555
C38 C37 1_555 1_555
H19 C38 1_555 1_555
C39 C38 1_555 1_555
C40 C39 1_555 1_555
H20 C40 1_555 1_555
C41 C36 1_555 1_555
H21 C41 1_555 1_555
C42 C8 1_555 1_555
C43 C12 1_555 1_555
H22 C44 1_555 1_555
O11 C35 1_555 1_555
O12 C35 1_555 1_555
O15_2 Zr3_2 1_555 1_555
O16_2 Zr3_2 1_555 1_555
Zr3_2 O3 1_555 1_555
O18 Zr3_2 1_555 1_555
O20 Zr1 1_555 1_555
O21 Zr1 1_555 1_555
O22 Zr1 1_555 1_555
O23 Zr1 1_555 1_555
O25 Zr1 1_555 1_555
Zr7 O12 1_555 1_555
Zr8 O11 1_555 1_555
Zr10_2 O4 1_555 1_555
C6 C7 1_555 1_555
C8 C9 1_555 1_555
O3 Zr2_2 1_555 1_555
O4 Zr2_2 1_555 1_555
C39 C42 1_555 1_555
C40 C41 1_555 1_555
C42 C43 1_555 1_555
C43 C44 1_555 1_555
Zr3_2 O25 1_555 1_555
O23 Zr10_2 1_555 1_555
O23 Zr12_2 1_555 1_555
O25 Zr12_2 1_555 1_555
C13 C14 1_555 1_555
C14 C15 1_555 1_555
C15 H7 1_555 1_555
C16 C15 1_555 1_555
H8 C16 1_555 1_555
C17 C16 1_555 1_555
C18 C17 1_555 1_555
H9 C18 1_555 1_555
C19 C14 1_555 1_555
H10 C19 1_555 1_555
C20 H11 1_555 1_555
C21 C17 1_555 1_555
C22 C21 1_555 1_555
C23 C22 1_555 1_555
H12 C23 1_555 1_555
O7 C13 1_555 1_555
O8 C13 1_555 1_555
C25 C26 1_555 1_555
C26 C27 1_555 1_555
C27 H13 1_555 1_555
C28 C27 1_555 1_555
H14 C28 1_555 1_555
C29 C28 1_555 1_555
C30 C29 1_555 1_555
H15 C30 1_555 1_555
C31 C26 1_555 1_555
H16 C31 1_555 1_555
C32 C20 1_555 1_555
C33 C24 1_555 1_555
H17 C34 1_555 1_555
O9 C25 1_555 1_555
O21 C25 1_555 1_555
Zr7 O8 1_555 1_555
Zr10_2 O9 1_555 1_555
Zr11 O7 1_555 1_555
C18 C19 1_555 1_555
C20 C21 1_555 1_555
C22 C24 1_555 1_555
C29 C32 1_555 1_555
C30 C31 1_555 1_555
C32 C33 1_555 1_555
C33 C34 1_555 1_555
C1_2 C2_2 1_555 1_555
C2_2 C3_2 1_555 1_555
C3_2 H1_2 1_555 1_555
C4_2 C3_2 1_555 1_555
H2_2 C4_2 1_555 1_555
C5_2 C4_2 1_555 1_555
C6_2 C5_2 1_555 1_555
H3_2 C6_2 1_555 1_555
C7_2 C2_2 1_555 1_555
H4_2 C7_2 1_555 1_555
C8_2 H5_2 1_555 1_555
C9_2 C5_2 1_555 1_555
C10_2 C9_2 1_555 1_555
C11_2 C10_2 1_555 1_555
H6_2 C11_2 1_555 1_555
C12_2 C10_2 1_555 1_555
O17 C1_2 1_555 1_555
O2_2 C1_2 1_555 1_555
Zr5 O2_2 1_555 1_555
C35_2 C36_2 1_555 1_555
C36_2 C37_2 1_555 1_555
C37_2 H18_2 1_555 1_555
C38_2 C37_2 1_555 1_555
H19_2 C38_2 1_555 1_555
C39_2 C38_2 1_555 1_555
C40_2 C39_2 1_555 1_555
H20_2 C40_2 1_555 1_555
C41_2 C36_2 1_555 1_555
H21_2 C41_2 1_555 1_555
C42_2 C8_2 1_555 1_555
C43_2 C12_2 1_555 1_555
H22_2 C44_2 1_555 1_555
O11_2 C35_2 1_555 1_555
O12_2 C35_2 1_555 1_555
O20_2 Zr5 1_555 1_555
O21_2 Zr5 1_555 1_555
O22_2 Zr5 1_555 1_555
O23_2 Zr5 1_555 1_555
Zr7_2 O12_2 1_555 1_555
Zr8_4 O11_2 1_555 1_555
C6_2 C7_2 1_555 1_555
C8_2 C9_2 1_555 1_555
C39_2 C42_2 1_555 1_555
C40_2 C41_2 1_555 1_555
C42_2 C43_2 1_555 1_555
C43_2 C44_2 1_555 1_555
O23_2 Zr12 1_555 1_555
O23_2 Zr10 1_555 1_555
C13_2 C14_2 1_555 1_555
C14_2 C15_2 1_555 1_555
C15_2 H7_2 1_555 1_555
C16_2 C15_2 1_555 1_555
H8_2 C16_2 1_555 1_555
C17_2 C16_2 1_555 1_555
C18_2 C17_2 1_555 1_555
H9_2 C18_2 1_555 1_555
C19_2 C14_2 1_555 1_555
H10_2 C19_2 1_555 1_555
C20_2 H11_2 1_555 1_555
C21_2 C17_2 1_555 1_555
C22_2 C21_2 1_555 1_555
C23_2 C22_2 1_555 1_555
H12_2 C23_2 1_555 1_555
O7_2 C13_2 1_555 1_555
O8_2 C13_2 1_555 1_555
C25_2 C26_2 1_555 1_555
C26_2 C27_2 1_555 1_555
C27_2 H13_2 1_555 1_555
C28_2 C27_2 1_555 1_555
H14_2 C28_2 1_555 1_555
C29_2 C28_2 1_555 1_555
C30_2 C29_2 1_555 1_555
H15_2 C30_2 1_555 1_555
C31_2 C26_2 1_555 1_555
H16_2 C31_2 1_555 1_555
C32_2 C20_2 1_555 1_555
C33_2 C24_2 1_555 1_555
H17_2 C34_2 1_555 1_555
O9_2 C25_2 1_555 1_555
O21_2 C25_2 1_555 1_555
Zr7_2 O8_2 1_555 1_555
Zr12 O9_2 1_555 1_555
Zr11_4 O7_2 1_555 1_555
C18_2 C19_2 1_555 1_555
C20_2 C21_2 1_555 1_555
C22_2 C24_2 1_555 1_555
C29_2 C32_2 1_555 1_555
C30_2 C31_2 1_555 1_555
C32_2 C33_2 1_555 1_555
C33_2 C34_2 1_555 1_555
C1_3 C2_3 1_555 1_555
C2_3 C3_3 1_555 1_555
C3_3 H1_3 1_555 1_555
C4_3 C3_3 1_555 1_555
H2_3 C4_3 1_555 1_555
C5_3 C4_3 1_555 1_555
C6_3 C5_3 1_555 1_555
H3_3 C6_3 1_555 1_555
C7_3 C2_3 1_555 1_555
H4_3 C7_3 1_555 1_555
C8_3 H5_3 1_555 1_555
C9_3 C5_3 1_555 1_555
C10_3 C9_3 1_555 1_555
C11_3 C10_3 1_555 1_555
H6_3 C11_3 1_555 1_555
C12_3 C10_3 1_555 1_555
O1_2 C1_3 1_555 1_555
O2_3 C1_3 1_555 1_555
O3_2 Zr1_2 1_555 1_555
O4_2 Zr1_2 1_555 1_555
O5_3 Zr2_3 1_555 1_555
O6_3 Zr2_3 1_555 1_555
Zr1_2 O2_3 1_555 1_555
Zr2_3 O1_2 1_555 1_555
C35_3 C36_3 1_555 1_555
C36_3 C37_3 1_555 1_555
C37_3 H18_3 1_555 1_555
C38_3 C37_3 1_555 1_555
H19_3 C38_3 1_555 1_555
C39_3 C38_3 1_555 1_555
C40_3 C39_3 1_555 1_555
H20_3 C40_3 1_555 1_555
C41_3 C36_3 1_555 1_555
H21_3 C41_3 1_555 1_555
C42_3 C8_3 1_555 1_555
C43_3 C12_3 1_555 1_555
H22_3 C44_3 1_555 1_555
O18 C35_3 1_555 1_555
O22 C35_3 1_555 1_555
O13_2 Zr2_3 1_555 1_555
O14_2 Zr3_3 1_555 1_555
O15_3 Zr3_3 1_555 1_555
O16_3 Zr3_3 1_555 1_555
Zr3_3 O3_2 1_555 1_555
O17_2 Zr3_3 1_555 1_555
O18_2 Zr3_3 1_555 1_555
O19_2 Zr2_3 1_555 1_555
O20_3 Zr1_2 1_555 1_555
O21_3 Zr1_2 1_555 1_555
O22_3 Zr1_2 1_555 1_555
O23_3 Zr1_2 1_555 1_555
O24_2 Zr2_3 1_555 1_555
O25_2 Zr1_2 1_555 1_555
Zr5_2 O13_2 1_555 1_555
Zr10_3 O4_2 1_555 1_555
Zr12_3 O14_2 1_555 1_555
C6_3 C7_3 1_555 1_555
C8_3 C9_3 1_555 1_555
O3_2 Zr2_3 1_555 1_555
O4_2 Zr2_3 1_555 1_555
C39_3 C42_3 1_555 1_555
C40_3 C41_3 1_555 1_555
C42_3 C43_3 1_555 1_555
C43_3 C44_3 1_555 1_555
O13_2 Zr3_3 1_555 1_555
O14_2 Zr5_2 1_555 1_555
Zr3_3 O25_2 1_555 1_555
O23_3 Zr10_3 1_555 1_555
O23_3 Zr12_3 1_555 1_555
O24_2 Zr5_2 1_555 1_555
O24_2 Zr10_3 1_555 1_555
O25_2 Zr12_3 1_555 1_555
C13_3 C14_3 1_555 1_555
C14_3 C15_3 1_555 1_555
C15_3 H7_3 1_555 1_555
C16_3 C15_3 1_555 1_555
H8_3 C16_3 1_555 1_555
C17_3 C16_3 1_555 1_555
C18_3 C17_3 1_555 1_555
H9_3 C18_3 1_555 1_555
C19_3 C14_3 1_555 1_555
H10_3 C19_3 1_555 1_555
C20_3 H11_3 1_555 1_555
C21_3 C17_3 1_555 1_555
C22_3 C21_3 1_555 1_555
C23_3 C22_3 1_555 1_555
H12_3 C23_3 1_555 1_555
O7_3 C13_3 1_555 1_555
O20 C13_3 1_555 1_555
C25_3 C26_3 1_555 1_555
C26_3 C27_3 1_555 1_555
C27_3 H13_3 1_555 1_555
C28_3 C27_3 1_555 1_555
H14_3 C28_3 1_555 1_555
C29_3 C28_3 1_555 1_555
C30_3 C29_3 1_555 1_555
H15_3 C30_3 1_555 1_555
C31_3 C26_3 1_555 1_555
H16_3 C31_3 1_555 1_555
C32_3 C20_3 1_555 1_555
C33_3 C24_3 1_555 1_555
H17_3 C34_3 1_555 1_555
O9_3 C25_3 1_555 1_555
O21_3 C25_3 1_555 1_555
Zr10_3 O9_3 1_555 1_555
Zr12_2 O7_3 1_555 1_555
C18_3 C19_3 1_555 1_555
C20_3 C21_3 1_555 1_555
C22_3 C24_3 1_555 1_555
C29_3 C32_3 1_555 1_555
C30_3 C31_3 1_555 1_555
C32_3 C33_3 1_555 1_555
C33_3 C34_3 1_555 1_555
C1_4 C2_4 1_555 1_555
C2_4 C3_4 1_555 1_555
C3_4 H1_4 1_555 1_555
C4_4 C3_4 1_555 1_555
H2_4 C4_4 1_555 1_555
C5_4 C4_4 1_555 1_555
C6_4 C5_4 1_555 1_555
H3_4 C6_4 1_555 1_555
C7_4 C2_4 1_555 1_555
H4_4 C7_4 1_555 1_555
C8_4 H5_4 1_555 1_555
C9_4 C5_4 1_555 1_555
C10_4 C9_4 1_555 1_555
C11_4 C10_4 1_555 1_555
H6_4 C11_4 1_555 1_555
C12_4 C10_4 1_555 1_555
O1_3 C1_4 1_555 1_555
O2_4 C1_4 1_555 1_555
O3_3 Zr7 1_555 1_555
O4_3 Zr7 1_555 1_555
O5_4 Zr8_3 1_555 1_555
O6_4 Zr8_3 1_555 1_555
Zr7 O2_4 1_555 1_555
Zr8_3 O1_3 1_555 1_555
C35_4 C36_4 1_555 1_555
C36_4 C37_4 1_555 1_555
C37_4 H18_4 1_555 1_555
C38_4 C37_4 1_555 1_555
H19_4 C38_4 1_555 1_555
C39_4 C38_4 1_555 1_555
C40_4 C39_4 1_555 1_555
H20_4 C40_4 1_555 1_555
C41_4 C36_4 1_555 1_555
H21_4 C41_4 1_555 1_555
C42_4 C8_4 1_555 1_555
C43_4 C12_4 1_555 1_555
H22_4 C44_4 1_555 1_555
O18_2 C35_4 1_555 1_555
O22_3 C35_4 1_555 1_555
O15_4 Zr8 1_555 1_555
O16_4 Zr8 1_555 1_555
Zr8 O3_3 1_555 1_555
O21_4 Zr7 1_555 1_555
O23_4 Zr7 1_555 1_555
O25_3 Zr7 1_555 1_555
Zr11_3 O4_3 1_555 1_555
C6_4 C7_4 1_555 1_555
C8_4 C9_4 1_555 1_555
O3_3 Zr8_3 1_555 1_555
O4_3 Zr8_3 1_555 1_555
C39_4 C42_4 1_555 1_555
C40_4 C41_4 1_555 1_555
C42_4 C43_4 1_555 1_555
C43_4 C44_4 1_555 1_555
Zr8 O25_3 1_555 1_555
O23_4 Zr11_3 1_555 1_555
O23_4 Zr11 1_555 1_555
O25_3 Zr11 1_555 1_555
C13_4 C14_4 1_555 1_555
C14_4 C15_4 1_555 1_555
C15_4 H7_4 1_555 1_555
C16_4 C15_4 1_555 1_555
H8_4 C16_4 1_555 1_555
C17_4 C16_4 1_555 1_555
C18_4 C17_4 1_555 1_555
H9_4 C18_4 1_555 1_555
C19_4 C14_4 1_555 1_555
H10_4 C19_4 1_555 1_555
C20_4 H11_4 1_555 1_555
C21_4 C17_4 1_555 1_555
C22_4 C21_4 1_555 1_555
C23_4 C22_4 1_555 1_555
H12_4 C23_4 1_555 1_555
O7_4 C13_4 1_555 1_555
O20_3 C13_4 1_555 1_555
C25_4 C26_4 1_555 1_555
C26_4 C27_4 1_555 1_555
C27_4 H13_4 1_555 1_555
C28_4 C27_4 1_555 1_555
H14_4 C28_4 1_555 1_555
C29_4 C28_4 1_555 1_555
C30_4 C29_4 1_555 1_555
H15_4 C30_4 1_555 1_555
C31_4 C26_4 1_555 1_555
H16_4 C31_4 1_555 1_555
C32_4 C20_4 1_555 1_555
C33_4 C24_4 1_555 1_555
H17_4 C34_4 1_555 1_555
O9_4 C25_4 1_555 1_555
O21_4 C25_4 1_555 1_555
Zr11_3 O9_4 1_555 1_555
Zr12_3 O7_4 1_555 1_555
C18_4 C19_4 1_555 1_555
C20_4 C21_4 1_555 1_555
C22_4 C24_4 1_555 1_555
C29_4 C32_4 1_555 1_555
C30_4 C31_4 1_555 1_555
C32_4 C33_4 1_555 1_555
C33_4 C34_4 1_555 1_555
O5_5 Zr8_4 1_555 1_555
O6_5 Zr8_4 1_555 1_555
O13_3 Zr8_4 1_555 1_555
O14_3 Zr8_2 1_555 1_555
O15_5 Zr8_2 1_555 1_555
O16_5 Zr8_2 1_555 1_555
O17_3 Zr8_2 1_555 1_555
O24_3 Zr8_4 1_555 1_555
Zr7_2 O13_3 1_555 1_555
Zr11_2 O14_3 1_555 1_555
O13_3 Zr8_2 1_555 1_555
O14_3 Zr7_2 1_555 1_555
O24_3 Zr7_2 1_555 1_555
O24_3 Zr11_4 1_555 1_555
C1_5 C2_5 1_555 1_555
C2_5 C3_5 1_555 1_555
C3_5 H1_5 1_555 1_555
C4_5 C3_5 1_555 1_555
H2_5 C4_5 1_555 1_555
C5_5 C4_5 1_555 1_555
C6_5 C5_5 1_555 1_555
H3_5 C6_5 1_555 1_555
C7_5 C2_5 1_555 1_555
H4_5 C7_5 1_555 1_555
C8_5 H5_5 1_555 1_555
C9_5 C5_5 1_555 1_555
C10_5 C9_5 1_555 1_555
C11_5 C10_5 1_555 1_555
H6_5 C11_5 1_555 1_555
C12_5 C10_5 1_555 1_555
O17_3 C1_5 1_555 1_555
O2_5 C1_5 1_555 1_555
Zr7_2 O2_5 1_555 1_555
C35_5 C36_5 1_555 1_555
C36_5 C37_5 1_555 1_555
C37_5 H18_5 1_555 1_555
C38_5 C37_5 1_555 1_555
H19_5 C38_5 1_555 1_555
C39_5 C38_5 1_555 1_555
C40_5 C39_5 1_555 1_555
H20_5 C40_5 1_555 1_555
C41_5 C36_5 1_555 1_555
H21_5 C41_5 1_555 1_555
C42_5 C8_5 1_555 1_555
C43_5 C12_5 1_555 1_555
H22_5 C44_5 1_555 1_555
O19_2 C35_5 1_555 1_555
O12_3 C35_5 1_555 1_555
O21_5 Zr7_2 1_555 1_555
O23_5 Zr7_2 1_555 1_555
Zr5_2 O12_3 1_555 1_555
C6_5 C7_5 1_555 1_555
C8_5 C9_5 1_555 1_555
C39_5 C42_5 1_555 1_555
C40_5 C41_5 1_555 1_555
C42_5 C43_5 1_555 1_555
C43_5 C44_5 1_555 1_555
O23_5 Zr11_2 1_555 1_555
O23_5 Zr11_4 1_555 1_555
C13_5 C14_5 1_555 1_555
C14_5 C15_5 1_555 1_555
C15_5 H7_5 1_555 1_555
C16_5 C15_5 1_555 1_555
H8_5 C16_5 1_555 1_555
C17_5 C16_5 1_555 1_555
C18_5 C17_5 1_555 1_555
H9_5 C18_5 1_555 1_555
C19_5 C14_5 1_555 1_555
H10_5 C19_5 1_555 1_555
C20_5 H11_5 1_555 1_555
C21_5 C17_5 1_555 1_555
C22_5 C21_5 1_555 1_555
C23_5 C22_5 1_555 1_555
H12_5 C23_5 1_555 1_555
O7_5 C13_5 1_555 1_555
O8_3 C13_5 1_555 1_555
C25_5 C26_5 1_555 1_555
C26_5 C27_5 1_555 1_555
C27_5 H13_5 1_555 1_555
C28_5 C27_5 1_555 1_555
H14_5 C28_5 1_555 1_555
C29_5 C28_5 1_555 1_555
C30_5 C29_5 1_555 1_555
H15_5 C30_5 1_555 1_555
C31_5 C26_5 1_555 1_555
H16_5 C31_5 1_555 1_555
C32_5 C20_5 1_555 1_555
C33_5 C24_5 1_555 1_555
H17_5 C34_5 1_555 1_555
O9_5 C25_5 1_555 1_555
O21_5 C25_5 1_555 1_555
Zr5_2 O8_3 1_555 1_555
Zr11_2 O9_5 1_555 1_555
Zr10_3 O7_5 1_555 1_555
C18_5 C19_5 1_555 1_555
C20_5 C21_5 1_555 1_555
C22_5 C24_5 1_555 1_555
C29_5 C32_5 1_555 1_555
C30_5 C31_5 1_555 1_555
C32_5 C33_5 1_555 1_555
C33_5 C34_5 1_555 1_555
C1_6 C2_6 1_555 1_555
C2_6 C3_6 1_555 1_555
C3_6 H1_6 1_555 1_555
C4_6 C3_6 1_555 1_555
H2_6 C4_6 1_555 1_555
C5_6 C4_6 1_555 1_555
C6_6 C5_6 1_555 1_555
H3_6 C6_6 1_555 1_555
C7_6 C2_6 1_555 1_555
H4_6 C7_6 1_555 1_555
C8_6 H5_6 1_555 1_555
C9_6 C5_6 1_555 1_555
C10_6 C9_6 1_555 1_555
C11_6 C10_6 1_555 1_555
H6_6 C11_6 1_555 1_555
C12_6 C10_6 1_555 1_555
O17_2 C1_6 1_555 1_555
O2_6 C1_6 1_555 1_555
Zr5_2 O2_6 1_555 1_555
C35_6 C36_6 1_555 1_555
C36_6 C37_6 1_555 1_555
C37_6 H18_6 1_555 1_555
C38_6 C37_6 1_555 1_555
H19_6 C38_6 1_555 1_555
C39_6 C38_6 1_555 1_555
C40_6 C39_6 1_555 1_555
H20_6 C40_6 1_555 1_555
C41_6 C36_6 1_555 1_555
H21_6 C41_6 1_555 1_555
C42_6 C8_6 1_555 1_555
C43_6 C12_6 1_555 1_555
H22_6 C44_6 1_555 1_555
O19 C35_6 1_555 1_555
O22_2 C35_6 1_555 1_555
O21_6 Zr5_2 1_555 1_555
O23_6 Zr5_2 1_555 1_555
C6_6 C7_6 1_555 1_555
C8_6 C9_6 1_555 1_555
C39_6 C42_6 1_555 1_555
C40_6 C41_6 1_555 1_555
C42_6 C43_6 1_555 1_555
C43_6 C44_6 1_555 1_555
O23_6 Zr12_3 1_555 1_555
O23_6 Zr10_3 1_555 1_555
C13_6 C14_6 1_555 1_555
C14_6 C15_6 1_555 1_555
C15_6 H7_6 1_555 1_555
C16_6 C15_6 1_555 1_555
H8_6 C16_6 1_555 1_555
C17_6 C16_6 1_555 1_555
C18_6 C17_6 1_555 1_555
H9_6 C18_6 1_555 1_555
C19_6 C14_6 1_555 1_555
H10_6 C19_6 1_555 1_555
C20_6 H11_6 1_555 1_555
C21_6 C17_6 1_555 1_555
C22_6 C21_6 1_555 1_555
C23_6 C22_6 1_555 1_555
H12_6 C23_6 1_555 1_555
O7_6 C13_6 1_555 1_555
O20_2 C13_6 1_555 1_555
C25_6 C26_6 1_555 1_555
C26_6 C27_6 1_555 1_555
C27_6 H13_6 1_555 1_555
C28_6 C27_6 1_555 1_555
H14_6 C28_6 1_555 1_555
C29_6 C28_6 1_555 1_555
C30_6 C29_6 1_555 1_555
H15_6 C30_6 1_555 1_555
C31_6 C26_6 1_555 1_555
H16_6 C31_6 1_555 1_555
C32_6 C20_6 1_555 1_555
C33_6 C24_6 1_555 1_555
H17_6 C34_6 1_555 1_555
O9_6 C25_6 1_555 1_555
O21_6 C25_6 1_555 1_555
Zr12_3 O9_6 1_555 1_555
Zr10 O7_6 1_555 1_555
C18_6 C19_6 1_555 1_555
C20_6 C21_6 1_555 1_555
C22_6 C24_6 1_555 1_555
C29_6 C32_6 1_555 1_555
C30_6 C31_6 1_555 1_555
C32_6 C33_6 1_555 1_555
C33_6 C34_6 1_555 1_555
O5_6 Zr10_3 1_555 1_555
O6_6 Zr10_3 1_555 1_555
O15_6 Zr12_3 1_555 1_555
O16_6 Zr12_3 1_555 1_555
O5_7 Zr10 1_555 1_555
O6_7 Zr10 1_555 1_555
O15_7 Zr12 1_555 1_555
O16_7 Zr12 1_555 1_555
O5_8 Zr10_2 1_555 1_555
O6_8 Zr10_2 1_555 1_555
O15_8 Zr12_2 1_555 1_555
O16_8 Zr12_2 1_555 1_555
O5_9 Zr11_3 1_555 1_555
O6_9 Zr11_3 1_555 1_555
O15_9 Zr11 1_555 1_555
O16_9 Zr11 1_555 1_555
O5_10 Zr11_4 1_555 1_555
O6_10 Zr11_4 1_555 1_555
O15_10 Zr11_2 1_555 1_555
O16_10 Zr11_2 1_555 1_555

#END
