
###############################################################################
#
# This file contains modified crystal structure data generated from the
# MOF subset of the Cambridge Structural Database (CSD) v543 
# hosted by the Cambridge Crystallographic Data Centre (CCDC).
#
# This work is licensed under the Creative Commons
# Attribution-NonCommercial-ShareAlike 4.0 International License.
# To view a copy of this license, visit
# http://creativecommons.org/licenses/by-nc-sa/4.0/
# or send a letter to
# Creative Commons, PO Box 1866, Mountain View, CA 94042, USA.
#
# CIF created using the CSD Python API on 29 September 2022
# The structure has been converted into the P1 space group
# The structure has a 3D framework
# The original CSD entry TISPAP is in the hexagonal crystal system
# The framework has been calculated to contain at least 10.0% void space
# The void calculation uses a probe of radius 1.32A, grid spacing 0.4
# H atom positions have been added when not included in the experimental data
# Generated hydrogen atom positions removed from atoms on special positions
#
###############################################################################

data_TISPAP
_chemical_formula_moiety         '(C264 H324 O100 Zr26)n'
_symmetry_cell_setting           triclinic
_symmetry_space_group_name_H-M   'P 1'
_symmetry_Int_Tables_number      1
_space_group_name_Hall           'P 1'
loop_
_symmetry_equiv_pos_site_id
_symmetry_equiv_pos_as_xyz
1 x,y,z
_cell_length_a                   39.403(6)
_cell_length_b                   39.403(6)
_cell_length_c                   16.379(3)
_cell_angle_alpha                90
_cell_angle_beta                 90
_cell_angle_gamma                120
_cell_volume                     22023
loop_
_atom_site_label
_atom_site_type_symbol
_atom_site_fract_x
_atom_site_fract_y
_atom_site_fract_z
Zr8 Zr 0.54476(4) -0.00000(6) 0.39217(10)
Zr12 Zr 0.54476(4) 0.00000(6) 0.60783(10)
C1 C 0.5073(4) 0.6009(3) 0.3668(8)
C2 C 0.5086(4) 0.6332(4) 0.3159(8)
C3 C 0.4794(4) 0.6423(4) 0.3256(8)
H1 H 0.459080 0.628703 0.364303
C4 C 0.4803(5) 0.6722(4) 0.2766(9)
H2 H 0.459557 0.677810 0.281287
C5 C 0.5102(5) 0.6937(4) 0.2222(8)
C6 C 0.5377(6) 0.6837(4) 0.2128(9)
H3 H 0.557985 0.697614 0.173983
C7 C 0.5380(4) 0.6529(4) 0.2589(9)
H4 H 0.557789 0.646198 0.250550
C8 C 0.5100(7) 0.7550(3) 0.2100(12)
H5 H 0.508954 0.754477 0.267991
C9 C 0.5106(5) 0.7249(4) 0.1728(8)
C10 C 0.5107(5) 0.6933(4) 0.0399(8)
H6 H 0.509581 0.671553 0.067350
C11 C 0.5124(5) 0.7252(4) 0.0894(8)
C12 C 0.5120(7) 0.7560(3) 0.0459(11)
O1 O 0.5332(3) 0.5915(2) 0.3492(6)
O2 O 0.4811(2) 0.5856(2) 0.4174(5)
O3 O 0.48275(17) 0.51725(17) 0.3913(8)
O4 O 0.5278(3) 0.5635(4) 0.500000
O5 O 0.5427(3) 0.5427(3) 0.2585(7)
O6 O 0.6004(3) 0.6004(3) 0.4009(8)
Zr1 Zr 0.46430(3) 0.53570(3) 0.500000
Zr2 Zr 0.54476(4) 0.54476(4) 0.39217(10)
C35 C 0.5073(4) 0.9064(5) 0.3668(8)
C36 C 0.5086(4) 0.8754(6) 0.3159(8)
C37 C 0.4794(4) 0.8371(6) 0.3256(8)
H18 H 0.459080 0.830377 0.364303
C38 C 0.4803(5) 0.8081(6) 0.2766(9)
H19 H 0.459557 0.781747 0.281287
C39 C 0.5102(5) 0.8165(6) 0.2222(8)
C40 C 0.5377(6) 0.8540(7) 0.2128(9)
H20 H 0.557985 0.860371 0.173983
C41 C 0.5380(4) 0.8851(6) 0.2589(9)
H21 H 0.557789 0.911591 0.250550
C42 C 0.5106(5) 0.7857(6) 0.1728(8)
C43 C 0.5107(5) 0.8174(6) 0.0399(8)
H22 H 0.509581 0.838028 0.067350
C44 C 0.5124(5) 0.7872(6) 0.0894(8)
O11 O 0.5332(3) 0.9417(4) 0.3492(6)
O12 O 0.4811(2) 0.8955(3) 0.4174(5)
O13 O 0.51725(17) 0.48275(17) 0.3913(8)
O14 O 0.4722(3) 0.4365(4) 0.500000
O15 O 0.4573(3) 0.4573(3) 0.2585(7)
O16 O 0.3996(3) 0.3996(3) 0.4009(8)
Zr3 Zr 0.45524(4) 0.45524(4) 0.39217(10)
O17 O 0.4668(3) 0.4085(2) 0.3492(6)
O18 O 0.4085(2) 0.4668(3) 0.3492(6)
O19 O 0.5915(2) 0.5332(3) 0.3492(6)
O20 O 0.4144(2) 0.5189(2) 0.5826(5)
O21 O 0.4811(2) 0.5856(2) 0.5826(5)
O22 O 0.4144(2) 0.5189(2) 0.4174(5)
O23 O 0.48275(17) 0.51725(17) 0.6087(8)
O24 O 0.5635(4) 0.5278(3) 0.500000
O25 O 0.4365(4) 0.4722(3) 0.500000
Zr5 Zr 0.53570(3) 0.46430(3) 0.500000
Zr7 Zr 0.46430(3) 0.92860(4) 0.500000
Zr8_2 Zr 0.54476(4) 1.00000(6) 0.39217(10)
Zr10 Zr 0.54476(4) 0.54476(4) 0.60783(10)
Zr11 Zr 0.45524(4) 0.45524(4) 0.60783(10)
C13 C 0.5073(4) 0.9064(5) 0.6332(8)
C14 C 0.5086(4) 0.8754(6) 0.6841(8)
C15 C 0.4794(4) 0.8371(6) 0.6744(8)
H7 H 0.459080 0.830377 0.635697
C16 C 0.4803(5) 0.8081(6) 0.7234(9)
H8 H 0.459557 0.781747 0.718713
C17 C 0.5102(5) 0.8165(6) 0.7778(8)
C18 C 0.5377(6) 0.8540(7) 0.7872(9)
H9 H 0.557985 0.860371 0.826017
C19 C 0.5380(4) 0.8851(6) 0.7411(9)
H10 H 0.557789 0.911591 0.749450
C20 C 0.5100(7) 0.7550(8) 0.7900(12)
H11 H 0.508954 0.754477 0.732009
C21 C 0.5106(5) 0.7857(6) 0.8272(8)
C22 C 0.5107(5) 0.8174(6) 0.9601(8)
H12 H 0.509581 0.838028 0.932650
C23 C 0.5124(5) 0.7872(6) 0.9106(8)
C24 C 0.5120(7) 0.7560(8) 0.9541(11)
O7 O 0.5332(3) 0.9417(4) 0.6508(6)
O8 O 0.4811(2) 0.8955(3) 0.5826(5)
C25 C 0.5073(4) 0.6009(3) 0.6332(8)
C26 C 0.5086(4) 0.6332(4) 0.6841(8)
C27 C 0.4794(4) 0.6423(4) 0.6744(8)
H13 H 0.459080 0.628703 0.635697
C28 C 0.4803(5) 0.6722(4) 0.7234(9)
H14 H 0.459557 0.677810 0.718713
C29 C 0.5102(5) 0.6937(4) 0.7778(8)
C30 C 0.5377(6) 0.6837(4) 0.7872(9)
H15 H 0.557985 0.697614 0.826017
C31 C 0.5380(4) 0.6529(4) 0.7411(9)
H16 H 0.557789 0.646198 0.749450
C32 C 0.5106(5) 0.7249(4) 0.8272(8)
C33 C 0.5107(5) 0.6933(4) 0.9601(8)
H17 H 0.509581 0.671553 0.932650
C34 C 0.5124(5) 0.7252(4) 0.9106(8)
O9 O 0.5332(3) 0.5915(2) 0.6508(6)
Zr12_2 Zr 0.54476(4) 1.00000(6) 0.60783(10)
C1_2 C 0.4927(4) 0.3991(3) 0.3668(8)
C2_2 C 0.4914(4) 0.3668(4) 0.3159(8)
C3_2 C 0.5206(4) 0.3577(4) 0.3256(8)
H1_2 H 0.540920 0.371297 0.364303
C4_2 C 0.5197(5) 0.3278(4) 0.2766(9)
H2_2 H 0.540443 0.322190 0.281287
C5_2 C 0.4898(5) 0.3063(4) 0.2222(8)
C6_2 C 0.4623(6) 0.3163(4) 0.2128(9)
H3_2 H 0.442015 0.302386 0.173983
C7_2 C 0.4620(4) 0.3471(4) 0.2589(9)
H4_2 H 0.442211 0.353802 0.250550
C8_2 C 0.4900(7) 0.2450(3) 0.2100(12)
H5_2 H 0.491046 0.245523 0.267991
C9_2 C 0.4894(5) 0.2751(4) 0.1728(8)
C10_2 C 0.4893(5) 0.3067(4) 0.0399(8)
H6_2 H 0.490419 0.328447 0.067350
C11_2 C 0.4876(5) 0.2748(4) 0.0894(8)
C12_2 C 0.4880(7) 0.2440(3) 0.0459(11)
O2_2 O 0.5189(2) 0.4144(2) 0.4174(5)
C35_2 C 0.4927(4) 0.0936(5) 0.3668(8)
C36_2 C 0.4914(4) 0.1246(6) 0.3159(8)
C37_2 C 0.5206(4) 0.1629(6) 0.3256(8)
H18_2 H 0.540920 0.169623 0.364303
C38_2 C 0.5197(5) 0.1919(6) 0.2766(9)
H19_2 H 0.540443 0.218253 0.281287
C39_2 C 0.4898(5) 0.1835(6) 0.2222(8)
C40_2 C 0.4623(6) 0.1460(7) 0.2128(9)
H20_2 H 0.442015 0.139629 0.173983
C41_2 C 0.4620(4) 0.1149(6) 0.2589(9)
H21_2 H 0.442211 0.088409 0.250550
C42_2 C 0.4894(5) 0.2143(6) 0.1728(8)
C43_2 C 0.4893(5) 0.1826(6) 0.0399(8)
H22_2 H 0.490419 0.161972 0.067350
C44_2 C 0.4876(5) 0.2128(6) 0.0894(8)
O11_2 O 0.4668(3) 0.0583(4) 0.3492(6)
O12_2 O 0.5189(2) 0.1045(3) 0.4174(5)
O20_2 O 0.5856(2) 0.4811(2) 0.5826(5)
O21_2 O 0.5189(2) 0.4144(2) 0.5826(5)
O22_2 O 0.5856(2) 0.4811(2) 0.4174(5)
O23_2 O 0.51725(17) 0.48275(17) 0.6087(8)
Zr7_2 Zr 0.53570(3) 0.07140(4) 0.500000
Zr8_3 Zr 0.45524(4) -0.00000(6) 0.39217(10)
C13_2 C 0.4927(4) 0.0936(5) 0.6332(8)
C14_2 C 0.4914(4) 0.1246(6) 0.6841(8)
C15_2 C 0.5206(4) 0.1629(6) 0.6744(8)
H7_2 H 0.540920 0.169623 0.635697
C16_2 C 0.5197(5) 0.1919(6) 0.7234(9)
H8_2 H 0.540443 0.218253 0.718713
C17_2 C 0.4898(5) 0.1835(6) 0.7778(8)
C18_2 C 0.4623(6) 0.1460(7) 0.7872(9)
H9_2 H 0.442015 0.139629 0.826017
C19_2 C 0.4620(4) 0.1149(6) 0.7411(9)
H10_2 H 0.442211 0.088409 0.749450
C20_2 C 0.4900(7) 0.2450(8) 0.7900(12)
H11_2 H 0.491046 0.245523 0.732009
C21_2 C 0.4894(5) 0.2143(6) 0.8272(8)
C22_2 C 0.4893(5) 0.1826(6) 0.9601(8)
H12_2 H 0.490419 0.161972 0.932650
C23_2 C 0.4876(5) 0.2128(6) 0.9106(8)
C24_2 C 0.4880(7) 0.2440(8) 0.9541(11)
O7_2 O 0.4668(3) 0.0583(4) 0.6508(6)
O8_2 O 0.5189(2) 0.1045(3) 0.5826(5)
C25_2 C 0.4927(4) 0.3991(3) 0.6332(8)
C26_2 C 0.4914(4) 0.3668(4) 0.6841(8)
C27_2 C 0.5206(4) 0.3577(4) 0.6744(8)
H13_2 H 0.540920 0.371297 0.635697
C28_2 C 0.5197(5) 0.3278(4) 0.7234(9)
H14_2 H 0.540443 0.322190 0.718713
C29_2 C 0.4898(5) 0.3063(4) 0.7778(8)
C30_2 C 0.4623(6) 0.3163(4) 0.7872(9)
H15_2 H 0.442015 0.302386 0.826017
C31_2 C 0.4620(4) 0.3471(4) 0.7411(9)
H16_2 H 0.442211 0.353802 0.749450
C32_2 C 0.4894(5) 0.2751(4) 0.8272(8)
C33_2 C 0.4893(5) 0.3067(4) 0.9601(8)
H17_2 H 0.490419 0.328447 0.932650
C34_2 C 0.4876(5) 0.2748(4) 0.9106(8)
O9_2 O 0.4668(3) 0.4085(2) 0.6508(6)
Zr12_3 Zr 0.45524(4) 0.00000(6) 0.60783(10)
Zr8_4 Zr 0.45524(4) 1.00000(6) 0.39217(10)
Zr12_4 Zr 0.45524(4) 1.00000(6) 0.60783(10)
O5_2 O 0.4573(3) -0.0000(4) 0.2585(7)
O6_2 O 0.3996(3) 0.0000(4) 0.4009(8)
O13_2 O 0.51725(17) 0.03450(24) 0.3913(8)
O14_2 O 0.5635(4) 0.0357(5) 0.500000
O15_2 O 0.5427(3) -0.0000(4) 0.2585(7)
O16_2 O 0.6004(3) -0.0000(4) 0.4009(8)
O17_2 O 0.5915(2) 0.0583(4) 0.3492(6)
O24_2 O 0.4722(3) 0.0357(5) 0.500000
C1_3 C 0.3991(3) 0.9064(5) 0.3668(8)
C2_3 C 0.3668(4) 0.8754(6) 0.3159(8)
C3_3 C 0.3577(4) 0.8371(6) 0.3256(8)
H1_3 H 0.371297 0.830377 0.364303
C4_3 C 0.3278(4) 0.8081(6) 0.2766(9)
H2_3 H 0.322190 0.781747 0.281287
C5_3 C 0.3063(4) 0.8165(6) 0.2222(8)
C6_3 C 0.3163(4) 0.8540(7) 0.2128(9)
H3_3 H 0.302386 0.860371 0.173983
C7_3 C 0.3471(4) 0.8851(6) 0.2589(9)
H4_3 H 0.353802 0.911591 0.250550
C8_3 C 0.2450(3) 0.7550(8) 0.2100(12)
H5_3 H 0.245523 0.754477 0.267991
C9_3 C 0.2751(4) 0.7857(6) 0.1728(8)
C10_3 C 0.3067(4) 0.8174(6) 0.0399(8)
H6_3 H 0.328447 0.838028 0.067350
C11_3 C 0.2748(4) 0.7872(6) 0.0894(8)
C12_3 C 0.2440(3) 0.7560(8) 0.0459(11)
O1_2 O 0.4085(2) 0.9417(4) 0.3492(6)
O2_3 O 0.4144(2) 0.8955(3) 0.4174(5)
O3_2 O 0.48275(17) 0.96550(24) 0.3913(8)
O4_2 O 0.4365(4) 0.9643(5) 0.500000
O5_3 O 0.4573(3) 1.0000(4) 0.2585(7)
O6_3 O 0.3996(3) 1.0000(4) 0.4009(8)
C35_3 C 0.0936(5) 0.6009(6) 0.3668(8)
C36_3 C 0.1246(6) 0.6332(7) 0.3159(8)
C37_3 C 0.1629(6) 0.6423(7) 0.3256(8)
H18_3 H 0.169623 0.628703 0.364303
C38_3 C 0.1919(6) 0.6722(8) 0.2766(9)
H19_3 H 0.218253 0.677810 0.281287
C39_3 C 0.1835(6) 0.6937(8) 0.2222(8)
C40_3 C 0.1460(7) 0.6837(9) 0.2128(9)
H20_3 H 0.139629 0.697614 0.173983
C41_3 C 0.1149(6) 0.6529(7) 0.2589(9)
H21_3 H 0.088409 0.646198 0.250550
C42_3 C 0.2143(6) 0.7249(8) 0.1728(8)
C43_3 C 0.1826(6) 0.6933(8) 0.0399(8)
H22_3 H 0.161972 0.671553 0.067350
C44_3 C 0.2128(6) 0.7252(8) 0.0894(8)
O11_3 O 0.0583(4) 0.5915(5) 0.3492(6)
O12_3 O 0.1045(3) 0.5856(4) 0.4174(5)
O15_3 O 0.5427(3) 1.0000(4) 0.2585(7)
O16_3 O 0.6004(3) 1.0000(4) 0.4009(8)
O21_3 O 0.4144(2) 0.8955(3) 0.5826(5)
O23_3 O 0.48275(17) 0.96550(24) 0.6087(8)
O25_2 O 0.5278(3) 0.9643(5) 0.500000
Zr7_3 Zr 0.07140(4) 0.53570(5) 0.500000
Zr8_5 Zr -0.00000(6) 0.54476(7) 0.39217(10)
C13_3 C 0.0936(5) 0.6009(6) 0.6332(8)
C14_3 C 0.1246(6) 0.6332(7) 0.6841(8)
C15_3 C 0.1629(6) 0.6423(7) 0.6744(8)
H7_3 H 0.169623 0.628703 0.635697
C16_3 C 0.1919(6) 0.6722(8) 0.7234(9)
H8_3 H 0.218253 0.677810 0.718713
C17_3 C 0.1835(6) 0.6937(8) 0.7778(8)
C18_3 C 0.1460(7) 0.6837(9) 0.7872(9)
H9_3 H 0.139629 0.697614 0.826017
C19_3 C 0.1149(6) 0.6529(7) 0.7411(9)
H10_3 H 0.088409 0.646198 0.749450
C20_3 C 0.2450(8) 0.7550(11) 0.7900(12)
H11_3 H 0.245523 0.754477 0.732009
C21_3 C 0.2143(6) 0.7249(8) 0.8272(8)
C22_3 C 0.1826(6) 0.6933(8) 0.9601(8)
H12_3 H 0.161972 0.671553 0.932650
C23_3 C 0.2128(6) 0.7252(8) 0.9106(8)
C24_3 C 0.2440(8) 0.7560(11) 0.9541(11)
O7_3 O 0.0583(4) 0.5915(5) 0.6508(6)
O8_3 O 0.1045(3) 0.5856(4) 0.5826(5)
C25_3 C 0.3991(3) 0.9064(5) 0.6332(8)
C26_3 C 0.3668(4) 0.8754(6) 0.6841(8)
C27_3 C 0.3577(4) 0.8371(6) 0.6744(8)
H13_3 H 0.371297 0.830377 0.635697
C28_3 C 0.3278(4) 0.8081(6) 0.7234(9)
H14_3 H 0.322190 0.781747 0.718713
C29_3 C 0.3063(4) 0.8165(6) 0.7778(8)
C30_3 C 0.3163(4) 0.8540(7) 0.7872(9)
H15_3 H 0.302386 0.860371 0.826017
C31_3 C 0.3471(4) 0.8851(6) 0.7411(9)
H16_3 H 0.353802 0.911591 0.749450
C32_3 C 0.2751(4) 0.7857(6) 0.8272(8)
C33_3 C 0.3067(4) 0.8174(6) 0.9601(8)
H17_3 H 0.328447 0.838028 0.932650
C34_3 C 0.2748(4) 0.7872(6) 0.9106(8)
O9_3 O 0.4085(2) 0.9417(4) 0.6508(6)
Zr12_5 Zr -0.00000(6) 0.54476(7) 0.60783(10)
Zr8_6 Zr 1.00000(6) 0.54476(7) 0.39217(10)
Zr12_6 Zr 1.00000(6) 0.54476(7) 0.60783(10)
C1_4 C 0.0936(5) 0.4927(4) 0.3668(8)
C2_4 C 0.1246(6) 0.4914(4) 0.3159(8)
C3_4 C 0.1629(6) 0.5206(4) 0.3256(8)
H1_4 H 0.169623 0.540920 0.364303
C4_4 C 0.1919(6) 0.5197(5) 0.2766(9)
H2_4 H 0.218253 0.540443 0.281287
C5_4 C 0.1835(6) 0.4898(5) 0.2222(8)
C6_4 C 0.1460(7) 0.4623(6) 0.2128(9)
H3_4 H 0.139629 0.442015 0.173983
C7_4 C 0.1149(6) 0.4620(4) 0.2589(9)
H4_4 H 0.088409 0.442211 0.250550
C8_4 C 0.2450(8) 0.4900(7) 0.2100(12)
H5_4 H 0.245523 0.491046 0.267991
C9_4 C 0.2143(6) 0.4894(5) 0.1728(8)
C10_4 C 0.1826(6) 0.4893(5) 0.0399(8)
H6_4 H 0.161972 0.490419 0.067350
C11_4 C 0.2128(6) 0.4876(5) 0.0894(8)
C12_4 C 0.2440(8) 0.4880(7) 0.0459(11)
O1_3 O 0.0583(4) 0.4668(3) 0.3492(6)
O2_4 O 0.1045(3) 0.5189(2) 0.4174(5)
O3_3 O 0.03450(24) 0.51725(17) 0.3913(8)
O4_3 O 0.0357(5) 0.4722(3) 0.500000
O5_4 O -0.0000(4) 0.4573(3) 0.2585(7)
O6_4 O -0.0000(4) 0.3996(3) 0.4009(8)
Zr2_2 Zr -0.00000(6) 0.45524(4) 0.39217(10)
C35_4 C 0.3991(6) 0.4927(4) 0.3668(8)
C36_4 C 0.3668(7) 0.4914(4) 0.3159(8)
C37_4 C 0.3577(7) 0.5206(4) 0.3256(8)
H18_4 H 0.371297 0.540920 0.364303
C38_4 C 0.3278(8) 0.5197(5) 0.2766(9)
H19_4 H 0.322190 0.540443 0.281287
C39_4 C 0.3063(8) 0.4898(5) 0.2222(8)
C40_4 C 0.3163(9) 0.4623(6) 0.2128(9)
H20_4 H 0.302386 0.442015 0.173983
C41_4 C 0.3471(7) 0.4620(4) 0.2589(9)
H21_4 H 0.353802 0.442211 0.250550
C42_4 C 0.2751(8) 0.4894(5) 0.1728(8)
C43_4 C 0.3067(8) 0.4893(5) 0.0399(8)
H22_4 H 0.328447 0.490419 0.067350
C44_4 C 0.2748(8) 0.4876(5) 0.0894(8)
O15_4 O -0.0000(4) 0.5427(3) 0.2585(7)
O16_4 O -0.0000(4) 0.6004(3) 0.4009(8)
O21_4 O 0.1045(3) 0.5189(2) 0.5826(5)
O23_4 O 0.03450(24) 0.51725(17) 0.6087(8)
O25_3 O 0.0357(5) 0.5635(4) 0.500000
Zr10_2 Zr -0.00000(6) 0.45524(4) 0.60783(10)
C13_4 C 0.3991(6) 0.4927(4) 0.6332(8)
C14_4 C 0.3668(7) 0.4914(4) 0.6841(8)
C15_4 C 0.3577(7) 0.5206(4) 0.6744(8)
H7_4 H 0.371297 0.540920 0.635697
C16_4 C 0.3278(8) 0.5197(5) 0.7234(9)
H8_4 H 0.322190 0.540443 0.718713
C17_4 C 0.3063(8) 0.4898(5) 0.7778(8)
C18_4 C 0.3163(9) 0.4623(6) 0.7872(9)
H9_4 H 0.302386 0.442015 0.826017
C19_4 C 0.3471(7) 0.4620(4) 0.7411(9)
H10_4 H 0.353802 0.442211 0.749450
C20_4 C 0.2450(11) 0.4900(7) 0.7900(12)
H11_4 H 0.245523 0.491046 0.732009
C21_4 C 0.2751(8) 0.4894(5) 0.8272(8)
C22_4 C 0.3067(8) 0.4893(5) 0.9601(8)
H12_4 H 0.328447 0.490419 0.932650
C23_4 C 0.2748(8) 0.4876(5) 0.9106(8)
C24_4 C 0.2440(11) 0.4880(7) 0.9541(11)
O7_4 O 0.4085(5) 0.4668(3) 0.6508(6)
C25_4 C 0.0936(5) 0.4927(4) 0.6332(8)
C26_4 C 0.1246(6) 0.4914(4) 0.6841(8)
C27_4 C 0.1629(6) 0.5206(4) 0.6744(8)
H13_4 H 0.169623 0.540920 0.635697
C28_4 C 0.1919(6) 0.5197(5) 0.7234(9)
H14_4 H 0.218253 0.540443 0.718713
C29_4 C 0.1835(6) 0.4898(5) 0.7778(8)
C30_4 C 0.1460(7) 0.4623(6) 0.7872(9)
H15_4 H 0.139629 0.442015 0.826017
C31_4 C 0.1149(6) 0.4620(4) 0.7411(9)
H16_4 H 0.088409 0.442211 0.749450
C32_4 C 0.2143(6) 0.4894(5) 0.8272(8)
C33_4 C 0.1826(6) 0.4893(5) 0.9601(8)
H17_4 H 0.161972 0.490419 0.932650
C34_4 C 0.2128(6) 0.4876(5) 0.9106(8)
O9_4 O 0.0583(4) 0.4668(3) 0.6508(6)
O5_5 O 1.0000(4) 0.4573(3) 0.2585(7)
O6_5 O 1.0000(4) 0.3996(3) 0.4009(8)
Zr2_3 Zr 1.00000(6) 0.45524(4) 0.39217(10)
O13_3 O 0.96550(24) 0.48275(17) 0.3913(8)
O14_3 O 0.9643(5) 0.5278(3) 0.500000
O15_5 O 1.0000(4) 0.5427(3) 0.2585(7)
O16_5 O 1.0000(4) 0.6004(3) 0.4009(8)
O17_3 O 0.9417(4) 0.5332(3) 0.3492(6)
O19_2 O 0.9417(4) 0.4085(2) 0.3492(6)
O24_3 O 0.9643(5) 0.4365(4) 0.500000
Zr5_2 Zr 0.92860(4) 0.46430(3) 0.500000
Zr10_3 Zr 1.00000(6) 0.45524(4) 0.60783(10)
C1_5 C 0.9064(5) 0.5073(4) 0.3668(8)
C2_5 C 0.8754(6) 0.5086(4) 0.3159(8)
C3_5 C 0.8371(6) 0.4794(4) 0.3256(8)
H1_5 H 0.830377 0.459080 0.364303
C4_5 C 0.8081(6) 0.4803(5) 0.2766(9)
H2_5 H 0.781747 0.459557 0.281287
C5_5 C 0.8165(6) 0.5102(5) 0.2222(8)
C6_5 C 0.8540(7) 0.5377(6) 0.2128(9)
H3_5 H 0.860371 0.557985 0.173983
C7_5 C 0.8851(6) 0.5380(4) 0.2589(9)
H4_5 H 0.911591 0.557789 0.250550
C8_5 C 0.7550(8) 0.5100(7) 0.2100(12)
H5_5 H 0.754477 0.508954 0.267991
C9_5 C 0.7857(6) 0.5106(5) 0.1728(8)
C10_5 C 0.8174(6) 0.5107(5) 0.0399(8)
H6_5 H 0.838028 0.509581 0.067350
C11_5 C 0.7872(6) 0.5124(5) 0.0894(8)
C12_5 C 0.7560(8) 0.5120(7) 0.0459(11)
O2_5 O 0.8955(3) 0.4811(2) 0.4174(5)
C35_5 C 0.6009(6) 0.5073(4) 0.3668(8)
C36_5 C 0.6332(7) 0.5086(4) 0.3159(8)
C37_5 C 0.6423(7) 0.4794(4) 0.3256(8)
H18_5 H 0.628703 0.459080 0.364303
C38_5 C 0.6722(8) 0.4803(5) 0.2766(9)
H19_5 H 0.677810 0.459557 0.281287
C39_5 C 0.6937(8) 0.5102(5) 0.2222(8)
C40_5 C 0.6837(9) 0.5377(6) 0.2128(9)
H20_5 H 0.697614 0.557985 0.173983
C41_5 C 0.6529(7) 0.5380(4) 0.2589(9)
H21_5 H 0.646198 0.557789 0.250550
C42_5 C 0.7249(8) 0.5106(5) 0.1728(8)
C43_5 C 0.6933(8) 0.5107(5) 0.0399(8)
H22_5 H 0.671553 0.509581 0.067350
C44_5 C 0.7252(8) 0.5124(5) 0.0894(8)
O20_3 O 0.8955(3) 0.4144(2) 0.5826(5)
O21_5 O 0.8955(3) 0.4811(2) 0.5826(5)
O22_3 O 0.8955(3) 0.4144(2) 0.4174(5)
O23_5 O 0.96550(24) 0.48275(17) 0.6087(8)
C13_5 C 0.6009(6) 0.5073(4) 0.6332(8)
C14_5 C 0.6332(7) 0.5086(4) 0.6841(8)
C15_5 C 0.6423(7) 0.4794(4) 0.6744(8)
H7_5 H 0.628703 0.459080 0.635697
C16_5 C 0.6722(8) 0.4803(5) 0.7234(9)
H8_5 H 0.677810 0.459557 0.718713
C17_5 C 0.6937(8) 0.5102(5) 0.7778(8)
C18_5 C 0.6837(9) 0.5377(6) 0.7872(9)
H9_5 H 0.697614 0.557985 0.826017
C19_5 C 0.6529(7) 0.5380(4) 0.7411(9)
H10_5 H 0.646198 0.557789 0.749450
C20_5 C 0.7550(11) 0.5100(7) 0.7900(12)
H11_5 H 0.754477 0.508954 0.732009
C21_5 C 0.7249(8) 0.5106(5) 0.8272(8)
C22_5 C 0.6933(8) 0.5107(5) 0.9601(8)
H12_5 H 0.671553 0.509581 0.932650
C23_5 C 0.7252(8) 0.5124(5) 0.9106(8)
C24_5 C 0.7560(11) 0.5120(7) 0.9541(11)
O7_5 O 0.5915(5) 0.5332(3) 0.6508(6)
C25_5 C 0.9064(5) 0.5073(4) 0.6332(8)
C26_5 C 0.8754(6) 0.5086(4) 0.6841(8)
C27_5 C 0.8371(6) 0.4794(4) 0.6744(8)
H13_5 H 0.830377 0.459080 0.635697
C28_5 C 0.8081(6) 0.4803(5) 0.7234(9)
H14_5 H 0.781747 0.459557 0.718713
C29_5 C 0.8165(6) 0.5102(5) 0.7778(8)
C30_5 C 0.8540(7) 0.5377(6) 0.7872(9)
H15_5 H 0.860371 0.557985 0.826017
C31_5 C 0.8851(6) 0.5380(4) 0.7411(9)
H16_5 H 0.911591 0.557789 0.749450
C32_5 C 0.7857(6) 0.5106(5) 0.8272(8)
C33_5 C 0.8174(6) 0.5107(5) 0.9601(8)
H17_5 H 0.838028 0.509581 0.932650
C34_5 C 0.7872(6) 0.5124(5) 0.9106(8)
O9_5 O 0.9417(4) 0.5332(3) 0.6508(6)
C1_6 C 0.6009(3) 0.0936(5) 0.3668(8)
C2_6 C 0.6332(4) 0.1246(6) 0.3159(8)
C3_6 C 0.6423(4) 0.1629(6) 0.3256(8)
H1_6 H 0.628703 0.169623 0.364303
C4_6 C 0.6722(4) 0.1919(6) 0.2766(9)
H2_6 H 0.677810 0.218253 0.281287
C5_6 C 0.6937(4) 0.1835(6) 0.2222(8)
C6_6 C 0.6837(4) 0.1460(7) 0.2128(9)
H3_6 H 0.697614 0.139629 0.173983
C7_6 C 0.6529(4) 0.1149(6) 0.2589(9)
H4_6 H 0.646198 0.088409 0.250550
C8_6 C 0.7550(3) 0.2450(8) 0.2100(12)
H5_6 H 0.754477 0.245523 0.267991
C9_6 C 0.7249(4) 0.2143(6) 0.1728(8)
C10_6 C 0.6933(4) 0.1826(6) 0.0399(8)
H6_6 H 0.671553 0.161972 0.067350
C11_6 C 0.7252(4) 0.2128(6) 0.0894(8)
C12_6 C 0.7560(3) 0.2440(8) 0.0459(11)
O2_6 O 0.5856(2) 0.1045(3) 0.4174(5)
C35_6 C 0.9064(5) 0.3991(6) 0.3668(8)
C36_6 C 0.8754(6) 0.3668(7) 0.3159(8)
C37_6 C 0.8371(6) 0.3577(7) 0.3256(8)
H18_6 H 0.830377 0.371297 0.364303
C38_6 C 0.8081(6) 0.3278(8) 0.2766(9)
H19_6 H 0.781747 0.322190 0.281287
C39_6 C 0.8165(6) 0.3063(8) 0.2222(8)
C40_6 C 0.8540(7) 0.3163(9) 0.2128(9)
H20_6 H 0.860371 0.302386 0.173983
C41_6 C 0.8851(6) 0.3471(7) 0.2589(9)
H21_6 H 0.911591 0.353802 0.250550
C42_6 C 0.7857(6) 0.2751(8) 0.1728(8)
C43_6 C 0.8174(6) 0.3067(8) 0.0399(8)
H22_6 H 0.838028 0.328447 0.067350
C44_6 C 0.7872(6) 0.2748(8) 0.0894(8)
O21_6 O 0.5856(2) 0.1045(3) 0.5826(5)
O23_6 O 0.51725(17) 0.03450(24) 0.6087(8)
C13_6 C 0.9064(5) 0.3991(6) 0.6332(8)
C14_6 C 0.8754(6) 0.3668(7) 0.6841(8)
C15_6 C 0.8371(6) 0.3577(7) 0.6744(8)
H7_6 H 0.830377 0.371297 0.635697
C16_6 C 0.8081(6) 0.3278(8) 0.7234(9)
H8_6 H 0.781747 0.322190 0.718713
C17_6 C 0.8165(6) 0.3063(8) 0.7778(8)
C18_6 C 0.8540(7) 0.3163(9) 0.7872(9)
H9_6 H 0.860371 0.302386 0.826017
C19_6 C 0.8851(6) 0.3471(7) 0.7411(9)
H10_6 H 0.911591 0.353802 0.749450
C20_6 C 0.7550(8) 0.2450(11) 0.7900(12)
H11_6 H 0.754477 0.245523 0.732009
C21_6 C 0.7857(6) 0.2751(8) 0.8272(8)
C22_6 C 0.8174(6) 0.3067(8) 0.9601(8)
H12_6 H 0.838028 0.328447 0.932650
C23_6 C 0.7872(6) 0.2748(8) 0.9106(8)
C24_6 C 0.7560(8) 0.2440(11) 0.9541(11)
O7_6 O 0.9417(4) 0.4085(5) 0.6508(6)
C25_6 C 0.6009(3) 0.0936(5) 0.6332(8)
C26_6 C 0.6332(4) 0.1246(6) 0.6841(8)
C27_6 C 0.6423(4) 0.1629(6) 0.6744(8)
H13_6 H 0.628703 0.169623 0.635697
C28_6 C 0.6722(4) 0.1919(6) 0.7234(9)
H14_6 H 0.677810 0.218253 0.718713
C29_6 C 0.6937(4) 0.1835(6) 0.7778(8)
C30_6 C 0.6837(4) 0.1460(7) 0.7872(9)
H15_6 H 0.697614 0.139629 0.826017
C31_6 C 0.6529(4) 0.1149(6) 0.7411(9)
H16_6 H 0.646198 0.088409 0.749450
C32_6 C 0.7249(4) 0.2143(6) 0.8272(8)
C33_6 C 0.6933(4) 0.1826(6) 0.9601(8)
H17_6 H 0.671553 0.161972 0.932650
C34_6 C 0.7252(4) 0.2128(6) 0.9106(8)
O9_6 O 0.5915(2) 0.0583(4) 0.6508(6)
O5_6 O -0.0000(4) 0.4573(3) 0.7415(7)
O6_6 O 0.0000(4) 0.3996(3) 0.5991(8)
O15_6 O -0.0000(4) 0.5427(3) 0.7415(7)
O16_6 O -0.0000(4) 0.6004(3) 0.5991(8)
O5_7 O 1.0000(4) 0.4573(3) 0.7415(7)
O6_7 O 1.0000(4) 0.3996(3) 0.5991(8)
O15_7 O 1.0000(4) 0.5427(3) 0.7415(7)
O16_7 O 1.0000(4) 0.6004(3) 0.5991(8)
O5_8 O 0.4573(3) 0.0000(4) 0.7415(7)
O6_8 O 0.3996(3) 0.0000(4) 0.5991(8)
O15_8 O 0.5427(3) 0.0000(4) 0.7415(7)
O16_8 O 0.6004(3) 0.0000(4) 0.5991(8)
O5_9 O 0.4573(3) 1.0000(4) 0.7415(7)
O6_9 O 0.3996(3) 1.0000(4) 0.5991(8)
O15_9 O 0.5427(3) 1.0000(4) 0.7415(7)
O16_9 O 0.6004(3) 1.0000(4) 0.5991(8)
O5_10 O 0.5427(3) 0.5427(3) 0.7415(7)
O6_10 O 0.6004(3) 0.6004(3) 0.5991(8)
O15_10 O 0.4573(3) 0.4573(3) 0.7415(7)
O16_10 O 0.3996(3) 0.3996(3) 0.5991(8)
loop_
_geom_bond_atom_site_label_1
_geom_bond_atom_site_label_2
_geom_bond_site_symmetry_1
_geom_bond_site_symmetry_2
C1 C2 1_555 1_555
C2 C3 1_555 1_555
C3 H1 1_555 1_555
C4 C3 1_555 1_555
H2 C4 1_555 1_555
C5 C4 1_555 1_555
C6 C5 1_555 1_555
H3 C6 1_555 1_555
C7 C2 1_555 1_555
H4 C7 1_555 1_555
C8 H5 1_555 1_555
C9 C5 1_555 1_555
C10 H6 1_555 1_555
C11 C9 1_555 1_555
C12 C11 1_555 1_555
O1 C1 1_555 1_555
O2 C1 1_555 1_555
O3 Zr1 1_555 1_555
O4 Zr1 1_555 1_555
O5 Zr2 1_555 1_555
O6 Zr2 1_555 1_555
Zr1 O2 1_555 1_555
Zr2 O1 1_555 1_555
C35 C36 1_555 1_555
C36 C37 1_555 1_555
C37 H18 1_555 1_555
C38 C37 1_555 1_555
H19 C38 1_555 1_555
C39 C38 1_555 1_555
C40 C39 1_555 1_555
H20 C40 1_555 1_555
C41 C36 1_555 1_555
H21 C41 1_555 1_555
C42 C8 1_555 1_555
H22 C43 1_555 1_555
C44 C12 1_555 1_555
O11 C35 1_555 1_555
O12 C35 1_555 1_555
O13 Zr2 1_555 1_555
O14 Zr3 1_555 1_555
O15 Zr3 1_555 1_555
O16 Zr3 1_555 1_555
Zr3 O3 1_555 1_555
O17 Zr3 1_555 1_555
O18 Zr3 1_555 1_555
O19 Zr2 1_555 1_555
O20 Zr1 1_555 1_555
O21 Zr1 1_555 1_555
O22 Zr1 1_555 1_555
O23 Zr1 1_555 1_555
O24 Zr2 1_555 1_555
O25 Zr1 1_555 1_555
Zr5 O13 1_555 1_555
Zr7 O12 1_555 1_555
Zr8_2 O11 1_555 1_555
Zr10 O4 1_555 1_555
Zr11 O14 1_555 1_555
C6 C7 1_555 1_555
C8 C9 1_555 1_555
C10 C11 1_555 1_555
O3 Zr2 1_555 1_555
O4 Zr2 1_555 1_555
C39 C42 1_555 1_555
C40 C41 1_555 1_555
C42 C44 1_555 1_555
C43 C44 1_555 1_555
O13 Zr3 1_555 1_555
O14 Zr5 1_555 1_555
Zr3 O25 1_555 1_555
O23 Zr10 1_555 1_555
O23 Zr11 1_555 1_555
O24 Zr5 1_555 1_555
O24 Zr10 1_555 1_555
O25 Zr11 1_555 1_555
C13 C14 1_555 1_555
C14 C15 1_555 1_555
C15 H7 1_555 1_555
C16 C15 1_555 1_555
H8 C16 1_555 1_555
C17 C16 1_555 1_555
C18 C17 1_555 1_555
H9 C18 1_555 1_555
C19 C14 1_555 1_555
H10 C19 1_555 1_555
C20 H11 1_555 1_555
C21 C17 1_555 1_555
C22 H12 1_555 1_555
C23 C21 1_555 1_555
O7 C13 1_555 1_555
O8 C13 1_555 1_555
C25 C26 1_555 1_555
C26 C27 1_555 1_555
C27 H13 1_555 1_555
C28 C27 1_555 1_555
H14 C28 1_555 1_555
C29 C28 1_555 1_555
C30 C29 1_555 1_555
H15 C30 1_555 1_555
C31 C26 1_555 1_555
H16 C31 1_555 1_555
C32 C20 1_555 1_555
H17 C33 1_555 1_555
C34 C24 1_555 1_555
O9 C25 1_555 1_555
O21 C25 1_555 1_555
Zr7 O8 1_555 1_555
Zr10 O9 1_555 1_555
Zr12_2 O7 1_555 1_555
C18 C19 1_555 1_555
C20 C21 1_555 1_555
C22 C23 1_555 1_555
C23 C24 1_555 1_555
C29 C32 1_555 1_555
C30 C31 1_555 1_555
C32 C34 1_555 1_555
C33 C34 1_555 1_555
C1_2 C2_2 1_555 1_555
C2_2 C3_2 1_555 1_555
C3_2 H1_2 1_555 1_555
C4_2 C3_2 1_555 1_555
H2_2 C4_2 1_555 1_555
C5_2 C4_2 1_555 1_555
C6_2 C5_2 1_555 1_555
H3_2 C6_2 1_555 1_555
C7_2 C2_2 1_555 1_555
H4_2 C7_2 1_555 1_555
C8_2 H5_2 1_555 1_555
C9_2 C5_2 1_555 1_555
C10_2 H6_2 1_555 1_555
C11_2 C9_2 1_555 1_555
C12_2 C11_2 1_555 1_555
O17 C1_2 1_555 1_555
O2_2 C1_2 1_555 1_555
Zr5 O2_2 1_555 1_555
C35_2 C36_2 1_555 1_555
C36_2 C37_2 1_555 1_555
C37_2 H18_2 1_555 1_555
C38_2 C37_2 1_555 1_555
H19_2 C38_2 1_555 1_555
C39_2 C38_2 1_555 1_555
C40_2 C39_2 1_555 1_555
H20_2 C40_2 1_555 1_555
C41_2 C36_2 1_555 1_555
H21_2 C41_2 1_555 1_555
C42_2 C8_2 1_555 1_555
H22_2 C43_2 1_555 1_555
C44_2 C12_2 1_555 1_555
O11_2 C35_2 1_555 1_555
O12_2 C35_2 1_555 1_555
O20_2 Zr5 1_555 1_555
O21_2 Zr5 1_555 1_555
O22_2 Zr5 1_555 1_555
O23_2 Zr5 1_555 1_555
Zr7_2 O12_2 1_555 1_555
Zr8_3 O11_2 1_555 1_555
C6_2 C7_2 1_555 1_555
C8_2 C9_2 1_555 1_555
C10_2 C11_2 1_555 1_555
C39_2 C42_2 1_555 1_555
C40_2 C41_2 1_555 1_555
C42_2 C44_2 1_555 1_555
C43_2 C44_2 1_555 1_555
O23_2 Zr11 1_555 1_555
O23_2 Zr10 1_555 1_555
C13_2 C14_2 1_555 1_555
C14_2 C15_2 1_555 1_555
C15_2 H7_2 1_555 1_555
C16_2 C15_2 1_555 1_555
H8_2 C16_2 1_555 1_555
C17_2 C16_2 1_555 1_555
C18_2 C17_2 1_555 1_555
H9_2 C18_2 1_555 1_555
C19_2 C14_2 1_555 1_555
H10_2 C19_2 1_555 1_555
C20_2 H11_2 1_555 1_555
C21_2 C17_2 1_555 1_555
C22_2 H12_2 1_555 1_555
C23_2 C21_2 1_555 1_555
O7_2 C13_2 1_555 1_555
O8_2 C13_2 1_555 1_555
C25_2 C26_2 1_555 1_555
C26_2 C27_2 1_555 1_555
C27_2 H13_2 1_555 1_555
C28_2 C27_2 1_555 1_555
H14_2 C28_2 1_555 1_555
C29_2 C28_2 1_555 1_555
C30_2 C29_2 1_555 1_555
H15_2 C30_2 1_555 1_555
C31_2 C26_2 1_555 1_555
H16_2 C31_2 1_555 1_555
C32_2 C20_2 1_555 1_555
H17_2 C33_2 1_555 1_555
C34_2 C24_2 1_555 1_555
O9_2 C25_2 1_555 1_555
O21_2 C25_2 1_555 1_555
Zr7_2 O8_2 1_555 1_555
Zr11 O9_2 1_555 1_555
Zr12_3 O7_2 1_555 1_555
C18_2 C19_2 1_555 1_555
C20_2 C21_2 1_555 1_555
C22_2 C23_2 1_555 1_555
C23_2 C24_2 1_555 1_555
C29_2 C32_2 1_555 1_555
C30_2 C31_2 1_555 1_555
C32_2 C34_2 1_555 1_555
C33_2 C34_2 1_555 1_555
O5_2 Zr8_3 1_555 1_555
O6_2 Zr8_3 1_555 1_555
O13_2 Zr8_3 1_555 1_555
O14_2 Zr8 1_555 1_555
O15_2 Zr8 1_555 1_555
O16_2 Zr8 1_555 1_555
O17_2 Zr8 1_555 1_555
O24_2 Zr8_3 1_555 1_555
Zr7_2 O13_2 1_555 1_555
Zr12 O14_2 1_555 1_555
O13_2 Zr8 1_555 1_555
O14_2 Zr7_2 1_555 1_555
O24_2 Zr7_2 1_555 1_555
O24_2 Zr12_3 1_555 1_555
C1_3 C2_3 1_555 1_555
C2_3 C3_3 1_555 1_555
C3_3 H1_3 1_555 1_555
C4_3 C3_3 1_555 1_555
H2_3 C4_3 1_555 1_555
C5_3 C4_3 1_555 1_555
C6_3 C5_3 1_555 1_555
H3_3 C6_3 1_555 1_555
C7_3 C2_3 1_555 1_555
H4_3 C7_3 1_555 1_555
C8_3 H5_3 1_555 1_555
C9_3 C5_3 1_555 1_555
C10_3 H6_3 1_555 1_555
C11_3 C9_3 1_555 1_555
C12_3 C11_3 1_555 1_555
O1_2 C1_3 1_555 1_555
O2_3 C1_3 1_555 1_555
O3_2 Zr7 1_555 1_555
O4_2 Zr7 1_555 1_555
O5_3 Zr8_4 1_555 1_555
O6_3 Zr8_4 1_555 1_555
Zr7 O2_3 1_555 1_555
Zr8_4 O1_2 1_555 1_555
C35_3 C36_3 1_555 1_555
C36_3 C37_3 1_555 1_555
C37_3 H18_3 1_555 1_555
C38_3 C37_3 1_555 1_555
H19_3 C38_3 1_555 1_555
C39_3 C38_3 1_555 1_555
C40_3 C39_3 1_555 1_555
H20_3 C40_3 1_555 1_555
C41_3 C36_3 1_555 1_555
H21_3 C41_3 1_555 1_555
C42_3 C8_3 1_555 1_555
H22_3 C43_3 1_555 1_555
C44_3 C12_3 1_555 1_555
O11_3 C35_3 1_555 1_555
O12_3 C35_3 1_555 1_555
O15_3 Zr8_2 1_555 1_555
O16_3 Zr8_2 1_555 1_555
Zr8_2 O3_2 1_555 1_555
O21_3 Zr7 1_555 1_555
O23_3 Zr7 1_555 1_555
O25_2 Zr7 1_555 1_555
Zr7_3 O12_3 1_555 1_555
Zr8_5 O11_3 1_555 1_555
Zr12_4 O4_2 1_555 1_555
C6_3 C7_3 1_555 1_555
C8_3 C9_3 1_555 1_555
C10_3 C11_3 1_555 1_555
O3_2 Zr8_4 1_555 1_555
O4_2 Zr8_4 1_555 1_555
C39_3 C42_3 1_555 1_555
C40_3 C41_3 1_555 1_555
C42_3 C44_3 1_555 1_555
C43_3 C44_3 1_555 1_555
Zr8_2 O25_2 1_555 1_555
O23_3 Zr12_4 1_555 1_555
O23_3 Zr12_2 1_555 1_555
O25_2 Zr12_2 1_555 1_555
C13_3 C14_3 1_555 1_555
C14_3 C15_3 1_555 1_555
C15_3 H7_3 1_555 1_555
C16_3 C15_3 1_555 1_555
H8_3 C16_3 1_555 1_555
C17_3 C16_3 1_555 1_555
C18_3 C17_3 1_555 1_555
H9_3 C18_3 1_555 1_555
C19_3 C14_3 1_555 1_555
H10_3 C19_3 1_555 1_555
C20_3 H11_3 1_555 1_555
C21_3 C17_3 1_555 1_555
C22_3 H12_3 1_555 1_555
C23_3 C21_3 1_555 1_555
O7_3 C13_3 1_555 1_555
O8_3 C13_3 1_555 1_555
C25_3 C26_3 1_555 1_555
C26_3 C27_3 1_555 1_555
C27_3 H13_3 1_555 1_555
C28_3 C27_3 1_555 1_555
H14_3 C28_3 1_555 1_555
C29_3 C28_3 1_555 1_555
C30_3 C29_3 1_555 1_555
H15_3 C30_3 1_555 1_555
C31_3 C26_3 1_555 1_555
H16_3 C31_3 1_555 1_555
C32_3 C20_3 1_555 1_555
H17_3 C33_3 1_555 1_555
C34_3 C24_3 1_555 1_555
O9_3 C25_3 1_555 1_555
O21_3 C25_3 1_555 1_555
Zr7_3 O8_3 1_555 1_555
Zr12_4 O9_3 1_555 1_555
Zr12_5 O7_3 1_555 1_555
C18_3 C19_3 1_555 1_555
C20_3 C21_3 1_555 1_555
C22_3 C23_3 1_555 1_555
C23_3 C24_3 1_555 1_555
C29_3 C32_3 1_555 1_555
C30_3 C31_3 1_555 1_555
C32_3 C34_3 1_555 1_555
C33_3 C34_3 1_555 1_555
C1_4 C2_4 1_555 1_555
C2_4 C3_4 1_555 1_555
C3_4 H1_4 1_555 1_555
C4_4 C3_4 1_555 1_555
H2_4 C4_4 1_555 1_555
C5_4 C4_4 1_555 1_555
C6_4 C5_4 1_555 1_555
H3_4 C6_4 1_555 1_555
C7_4 C2_4 1_555 1_555
H4_4 C7_4 1_555 1_555
C8_4 H5_4 1_555 1_555
C9_4 C5_4 1_555 1_555
C10_4 H6_4 1_555 1_555
C11_4 C9_4 1_555 1_555
C12_4 C11_4 1_555 1_555
O1_3 C1_4 1_555 1_555
O2_4 C1_4 1_555 1_555
O3_3 Zr7_3 1_555 1_555
O4_3 Zr7_3 1_555 1_555
O5_4 Zr2_2 1_555 1_555
O6_4 Zr2_2 1_555 1_555
Zr7_3 O2_4 1_555 1_555
Zr2_2 O1_3 1_555 1_555
C35_4 C36_4 1_555 1_555
C36_4 C37_4 1_555 1_555
C37_4 H18_4 1_555 1_555
C38_4 C37_4 1_555 1_555
H19_4 C38_4 1_555 1_555
C39_4 C38_4 1_555 1_555
C40_4 C39_4 1_555 1_555
H20_4 C40_4 1_555 1_555
C41_4 C36_4 1_555 1_555
H21_4 C41_4 1_555 1_555
C42_4 C8_4 1_555 1_555
H22_4 C43_4 1_555 1_555
C44_4 C12_4 1_555 1_555
O18 C35_4 1_555 1_555
O22 C35_4 1_555 1_555
O15_4 Zr8_5 1_555 1_555
O16_4 Zr8_5 1_555 1_555
Zr8_5 O3_3 1_555 1_555
O21_4 Zr7_3 1_555 1_555
O23_4 Zr7_3 1_555 1_555
O25_3 Zr7_3 1_555 1_555
Zr10_2 O4_3 1_555 1_555
C6_4 C7_4 1_555 1_555
C8_4 C9_4 1_555 1_555
C10_4 C11_4 1_555 1_555
O3_3 Zr2_2 1_555 1_555
O4_3 Zr2_2 1_555 1_555
C39_4 C42_4 1_555 1_555
C40_4 C41_4 1_555 1_555
C42_4 C44_4 1_555 1_555
C43_4 C44_4 1_555 1_555
Zr8_5 O25_3 1_555 1_555
O23_4 Zr10_2 1_555 1_555
O23_4 Zr12_5 1_555 1_555
O25_3 Zr12_5 1_555 1_555
C13_4 C14_4 1_555 1_555
C14_4 C15_4 1_555 1_555
C15_4 H7_4 1_555 1_555
C16_4 C15_4 1_555 1_555
H8_4 C16_4 1_555 1_555
C17_4 C16_4 1_555 1_555
C18_4 C17_4 1_555 1_555
H9_4 C18_4 1_555 1_555
C19_4 C14_4 1_555 1_555
H10_4 C19_4 1_555 1_555
C20_4 H11_4 1_555 1_555
C21_4 C17_4 1_555 1_555
C22_4 H12_4 1_555 1_555
C23_4 C21_4 1_555 1_555
O7_4 C13_4 1_555 1_555
O20 C13_4 1_555 1_555
C25_4 C26_4 1_555 1_555
C26_4 C27_4 1_555 1_555
C27_4 H13_4 1_555 1_555
C28_4 C27_4 1_555 1_555
H14_4 C28_4 1_555 1_555
C29_4 C28_4 1_555 1_555
C30_4 C29_4 1_555 1_555
H15_4 C30_4 1_555 1_555
C31_4 C26_4 1_555 1_555
H16_4 C31_4 1_555 1_555
C32_4 C20_4 1_555 1_555
H17_4 C33_4 1_555 1_555
C34_4 C24_4 1_555 1_555
O9_4 C25_4 1_555 1_555
O21_4 C25_4 1_555 1_555
Zr10_2 O9_4 1_555 1_555
Zr11 O7_4 1_555 1_555
C18_4 C19_4 1_555 1_555
C20_4 C21_4 1_555 1_555
C22_4 C23_4 1_555 1_555
C23_4 C24_4 1_555 1_555
C29_4 C32_4 1_555 1_555
C30_4 C31_4 1_555 1_555
C32_4 C34_4 1_555 1_555
C33_4 C34_4 1_555 1_555
O5_5 Zr2_3 1_555 1_555
O6_5 Zr2_3 1_555 1_555
O13_3 Zr2_3 1_555 1_555
O14_3 Zr8_6 1_555 1_555
O15_5 Zr8_6 1_555 1_555
O16_5 Zr8_6 1_555 1_555
O17_3 Zr8_6 1_555 1_555
O19_2 Zr2_3 1_555 1_555
O24_3 Zr2_3 1_555 1_555
Zr5_2 O13_3 1_555 1_555
Zr12_6 O14_3 1_555 1_555
O13_3 Zr8_6 1_555 1_555
O14_3 Zr5_2 1_555 1_555
O24_3 Zr5_2 1_555 1_555
O24_3 Zr10_3 1_555 1_555
C1_5 C2_5 1_555 1_555
C2_5 C3_5 1_555 1_555
C3_5 H1_5 1_555 1_555
C4_5 C3_5 1_555 1_555
H2_5 C4_5 1_555 1_555
C5_5 C4_5 1_555 1_555
C6_5 C5_5 1_555 1_555
H3_5 C6_5 1_555 1_555
C7_5 C2_5 1_555 1_555
H4_5 C7_5 1_555 1_555
C8_5 H5_5 1_555 1_555
C9_5 C5_5 1_555 1_555
C10_5 H6_5 1_555 1_555
C11_5 C9_5 1_555 1_555
C12_5 C11_5 1_555 1_555
O17_3 C1_5 1_555 1_555
O2_5 C1_5 1_555 1_555
Zr5_2 O2_5 1_555 1_555
C35_5 C36_5 1_555 1_555
C36_5 C37_5 1_555 1_555
C37_5 H18_5 1_555 1_555
C38_5 C37_5 1_555 1_555
H19_5 C38_5 1_555 1_555
C39_5 C38_5 1_555 1_555
C40_5 C39_5 1_555 1_555
H20_5 C40_5 1_555 1_555
C41_5 C36_5 1_555 1_555
H21_5 C41_5 1_555 1_555
C42_5 C8_5 1_555 1_555
H22_5 C43_5 1_555 1_555
C44_5 C12_5 1_555 1_555
O19 C35_5 1_555 1_555
O22_2 C35_5 1_555 1_555
O20_3 Zr5_2 1_555 1_555
O21_5 Zr5_2 1_555 1_555
O22_3 Zr5_2 1_555 1_555
O23_5 Zr5_2 1_555 1_555
C6_5 C7_5 1_555 1_555
C8_5 C9_5 1_555 1_555
C10_5 C11_5 1_555 1_555
C39_5 C42_5 1_555 1_555
C40_5 C41_5 1_555 1_555
C42_5 C44_5 1_555 1_555
C43_5 C44_5 1_555 1_555
O23_5 Zr12_6 1_555 1_555
O23_5 Zr10_3 1_555 1_555
C13_5 C14_5 1_555 1_555
C14_5 C15_5 1_555 1_555
C15_5 H7_5 1_555 1_555
C16_5 C15_5 1_555 1_555
H8_5 C16_5 1_555 1_555
C17_5 C16_5 1_555 1_555
C18_5 C17_5 1_555 1_555
H9_5 C18_5 1_555 1_555
C19_5 C14_5 1_555 1_555
H10_5 C19_5 1_555 1_555
C20_5 H11_5 1_555 1_555
C21_5 C17_5 1_555 1_555
C22_5 H12_5 1_555 1_555
C23_5 C21_5 1_555 1_555
O7_5 C13_5 1_555 1_555
O20_2 C13_5 1_555 1_555
C25_5 C26_5 1_555 1_555
C26_5 C27_5 1_555 1_555
C27_5 H13_5 1_555 1_555
C28_5 C27_5 1_555 1_555
H14_5 C28_5 1_555 1_555
C29_5 C28_5 1_555 1_555
C30_5 C29_5 1_555 1_555
H15_5 C30_5 1_555 1_555
C31_5 C26_5 1_555 1_555
H16_5 C31_5 1_555 1_555
C32_5 C20_5 1_555 1_555
H17_5 C33_5 1_555 1_555
C34_5 C24_5 1_555 1_555
O9_5 C25_5 1_555 1_555
O21_5 C25_5 1_555 1_555
Zr12_6 O9_5 1_555 1_555
Zr10 O7_5 1_555 1_555
C18_5 C19_5 1_555 1_555
C20_5 C21_5 1_555 1_555
C22_5 C23_5 1_555 1_555
C23_5 C24_5 1_555 1_555
C29_5 C32_5 1_555 1_555
C30_5 C31_5 1_555 1_555
C32_5 C34_5 1_555 1_555
C33_5 C34_5 1_555 1_555
C1_6 C2_6 1_555 1_555
C2_6 C3_6 1_555 1_555
C3_6 H1_6 1_555 1_555
C4_6 C3_6 1_555 1_555
H2_6 C4_6 1_555 1_555
C5_6 C4_6 1_555 1_555
C6_6 C5_6 1_555 1_555
H3_6 C6_6 1_555 1_555
C7_6 C2_6 1_555 1_555
H4_6 C7_6 1_555 1_555
C8_6 H5_6 1_555 1_555
C9_6 C5_6 1_555 1_555
C10_6 H6_6 1_555 1_555
C11_6 C9_6 1_555 1_555
C12_6 C11_6 1_555 1_555
O17_2 C1_6 1_555 1_555
O2_6 C1_6 1_555 1_555
Zr7_2 O2_6 1_555 1_555
C35_6 C36_6 1_555 1_555
C36_6 C37_6 1_555 1_555
C37_6 H18_6 1_555 1_555
C38_6 C37_6 1_555 1_555
H19_6 C38_6 1_555 1_555
C39_6 C38_6 1_555 1_555
C40_6 C39_6 1_555 1_555
H20_6 C40_6 1_555 1_555
C41_6 C36_6 1_555 1_555
H21_6 C41_6 1_555 1_555
C42_6 C8_6 1_555 1_555
H22_6 C43_6 1_555 1_555
C44_6 C12_6 1_555 1_555
O19_2 C35_6 1_555 1_555
O22_3 C35_6 1_555 1_555
O21_6 Zr7_2 1_555 1_555
O23_6 Zr7_2 1_555 1_555
C6_6 C7_6 1_555 1_555
C8_6 C9_6 1_555 1_555
C10_6 C11_6 1_555 1_555
C39_6 C42_6 1_555 1_555
C40_6 C41_6 1_555 1_555
C42_6 C44_6 1_555 1_555
C43_6 C44_6 1_555 1_555
O23_6 Zr12 1_555 1_555
O23_6 Zr12_3 1_555 1_555
C13_6 C14_6 1_555 1_555
C14_6 C15_6 1_555 1_555
C15_6 H7_6 1_555 1_555
C16_6 C15_6 1_555 1_555
H8_6 C16_6 1_555 1_555
C17_6 C16_6 1_555 1_555
C18_6 C17_6 1_555 1_555
H9_6 C18_6 1_555 1_555
C19_6 C14_6 1_555 1_555
H10_6 C19_6 1_555 1_555
C20_6 H11_6 1_555 1_555
C21_6 C17_6 1_555 1_555
C22_6 H12_6 1_555 1_555
C23_6 C21_6 1_555 1_555
O7_6 C13_6 1_555 1_555
O20_3 C13_6 1_555 1_555
C25_6 C26_6 1_555 1_555
C26_6 C27_6 1_555 1_555
C27_6 H13_6 1_555 1_555
C28_6 C27_6 1_555 1_555
H14_6 C28_6 1_555 1_555
C29_6 C28_6 1_555 1_555
C30_6 C29_6 1_555 1_555
H15_6 C30_6 1_555 1_555
C31_6 C26_6 1_555 1_555
H16_6 C31_6 1_555 1_555
C32_6 C20_6 1_555 1_555
H17_6 C33_6 1_555 1_555
C34_6 C24_6 1_555 1_555
O9_6 C25_6 1_555 1_555
O21_6 C25_6 1_555 1_555
Zr12 O9_6 1_555 1_555
Zr10_3 O7_6 1_555 1_555
C18_6 C19_6 1_555 1_555
C20_6 C21_6 1_555 1_555
C22_6 C23_6 1_555 1_555
C23_6 C24_6 1_555 1_555
C29_6 C32_6 1_555 1_555
C30_6 C31_6 1_555 1_555
C32_6 C34_6 1_555 1_555
C33_6 C34_6 1_555 1_555
O5_6 Zr10_2 1_555 1_555
O6_6 Zr10_2 1_555 1_555
O15_6 Zr12_5 1_555 1_555
O16_6 Zr12_5 1_555 1_555
O5_7 Zr10_3 1_555 1_555
O6_7 Zr10_3 1_555 1_555
O15_7 Zr12_6 1_555 1_555
O16_7 Zr12_6 1_555 1_555
O5_8 Zr12_3 1_555 1_555
O6_8 Zr12_3 1_555 1_555
O15_8 Zr12 1_555 1_555
O16_8 Zr12 1_555 1_555
O5_9 Zr12_4 1_555 1_555
O6_9 Zr12_4 1_555 1_555
O15_9 Zr12_2 1_555 1_555
O16_9 Zr12_2 1_555 1_555
O5_10 Zr10 1_555 1_555
O6_10 Zr10 1_555 1_555
O15_10 Zr11 1_555 1_555
O16_10 Zr11 1_555 1_555

#END
