
###############################################################################
#
# This file contains modified crystal structure data generated from the
# MOF subset of the Cambridge Structural Database (CSD) v543 
# hosted by the Cambridge Crystallographic Data Centre (CCDC).
#
# This work is licensed under the Creative Commons
# Attribution-NonCommercial-ShareAlike 4.0 International License.
# To view a copy of this license, visit
# http://creativecommons.org/licenses/by-nc-sa/4.0/
# or send a letter to
# Creative Commons, PO Box 1866, Mountain View, CA 94042, USA.
#
# CIF created using the CSD Python API on 29 September 2022
# The structure has been converted into the P1 space group
# The structure has a 3D framework
# The original CSD entry TISWEZ is in the tetragonal crystal system
# The framework has been calculated to contain at least 10.0% void space
# The void calculation uses a probe of radius 1.32A, grid spacing 0.4
#
###############################################################################

data_TISWEZ
_chemical_formula_moiety         '(C192 H240 Gd32 N48 O180)n'
_symmetry_cell_setting           triclinic
_symmetry_space_group_name_H-M   'P 1'
_symmetry_Int_Tables_number      1
_space_group_name_Hall           'P 1'
loop_
_symmetry_equiv_pos_site_id
_symmetry_equiv_pos_as_xyz
1 x,y,z
_cell_length_a                   25.830(4)
_cell_length_b                   25.830(4)
_cell_length_c                   11.945(2)
_cell_angle_alpha                90
_cell_angle_beta                 90
_cell_angle_gamma                90
_cell_volume                     7969.57
loop_
_atom_site_label
_atom_site_type_symbol
_atom_site_fract_x
_atom_site_fract_y
_atom_site_fract_z
Gd5 Gd 0.16917(3) 0.03205(3) 0.84671(6)
O15 O 0.1801(4) 0.0000(4) 0.6667(9)
O2 O 0.2259(5) 0.1018(5) 0.7543(10)
O4 O 0.2500(4) 0.0699(4) 0.9167(9)
N1 N 0.3268(5) 0.1360(5) 0.9492(12)
H1 H 0.353(7) 0.117(7) 0.919(16)
O8 O 0.1497(5) 0.1105(4) 0.9399(10)
C1 C 0.3505(6) 0.1834(7) 0.9983(15)
H3 H 0.3525 0.2100 0.9411
C2 C 0.2532(7) 0.1036(7) 0.8385(15)
C6 C 0.2903(6) 0.1480(6) 0.8593(14)
H8 H 0.3094 0.1554 0.7911
H9 H 0.2708 0.1788 0.8790
H10 H 0.0969 0.1856 0.9987
O1 O 0.0038(5) 0.0812(4) 0.8825(10)
O6 O 0.0754(4) 0.0336(4) 0.8832(9)
N1_2 N 0.1140(5) 0.0768(5) 0.6992(12)
H1_2 H 0.133(7) 0.103(7) 0.669(16)
C1_2 C 0.0666(7) 0.1005(6) 0.7483(15)
H3_2 H 0.0400 0.1025 0.6911
H4 H 0.0744 0.1355 0.7723
C2_2 C 0.1464(7) 0.0032(7) 0.5885(15)
C4 C 0.0463(6) 0.0704(6) 0.8459(14)
C6_2 C 0.1020(6) 0.0403(6) 0.6093(14)
H8_2 H 0.0946 0.0594 0.5411
H9_2 H 0.0712 0.0208 0.6290
H2 H 0.307(8) 0.831(8) 0.001(18)
H7 H 0.2632 0.9105 0.0346
O11 O 0.1953(7) 0.7362(6) 0.0115(14)
C9 C 0.2318(7) 0.8218(8) 0.0122(17)
H12 H 0.2042 0.8470 0.0047
H13 H 0.2377 0.8158 0.0913
Gd1 Gd 0.29228(3) 0.81340(3) 0.75543(7)
Gd2 Gd 0.21795(3) 0.91917(3) 0.59671(6)
O1_2 O 0.1688(4) 0.7538(5) 0.6325(10)
O2_2 O 0.2741(5) 0.8982(5) 0.2543(10)
O3 O 0.2483(4) 0.8962(4) 0.7793(10)
O4_2 O 0.2500(4) 0.9301(4) 0.4167(9)
O5 O 0.2314(4) 0.9667(4) 0.8783(10)
O6_2 O 0.2164(4) 0.8254(4) 0.6332(9)
O7 O 0.2228(4) 0.7670(4) 0.8489(10)
N1_3 N 0.1732(5) 0.8640(5) 0.4492(12)
H1_3 H 0.147(7) 0.883(7) 0.419(16)
O8_2 O 0.3503(5) 0.8895(4) 0.4399(10)
O9 O 0.3063(4) 0.8702(5) 0.5954(10)
N2 N 0.2795(6) 0.8421(6) 0.9603(13)
C1_3 C 0.1495(6) 0.8166(7) 0.4983(15)
H3_3 H 0.1475 0.7900 0.4411
H4_2 H 0.1145 0.8244 0.5223
C2_3 C 0.2468(7) 0.8964(7) 0.3385(15)
C3 C 0.2506(6) 0.9233(6) 0.8696(14)
O10 O 0.3678(6) 0.8568(5) 0.8239(14)
C4_2 C 0.1796(6) 0.7963(6) 0.5959(14)
N3 N 0.3787(7) 0.7946(7) 0.6529(15)
H5 H 0.376(9) 0.763(9) 0.62(2)
C5 C 0.2791(7) 0.8996(7) 0.9650(16)
H6 H 0.3145 0.9121 0.9646
C6_3 C 0.2097(6) 0.8520(6) 0.3593(14)
H8_3 H 0.1906 0.8446 0.2911
H9_3 H 0.2292 0.8212 0.3790
C7 C 0.3451(7) 0.8671(7) 0.5325(15)
C8 C 0.3912(9) 0.8327(9) 0.565(2)
H10_2 H 0.4031 0.8144 0.4987
H11 H 0.4193 0.8546 0.5906
O12 O 0.4423(10) 0.8312(12) 0.911(3)
C10 C 0.2158(7) 0.7707(7) 0.9551(15)
C11 C 0.4097(11) 0.8317(11) 0.833(2)
C12 C 0.4202(8) 0.7907(9) 0.736(2)
H14 H 0.4534 0.7976 0.7015
H15 H 0.4211 0.7560 0.7676
Gd3 Gd 0.20772(3) 0.68660(3) 0.74457(7)
Gd4 Gd 0.33083(3) 0.96795(3) 0.34671(6)
O13 O 0.3312(4) 0.7462(5) 0.8675(10)
O14 O 0.1482(5) 0.9759(5) 0.5043(10)
O15_2 O 0.1801(4) 1.0000(4) 0.6667(9)
O16 O 0.2833(4) 0.9814(4) 0.6283(10)
O17 O 0.2772(4) 0.7330(4) 0.6511(10)
O18 O 0.1395(4) 0.8997(5) 0.6899(10)
Gd1_2 Gd 0.20772(3) 0.18660(3) 0.25543(7)
Gd2_2 Gd 0.28205(3) 0.08083(3) 0.09671(6)
O1_3 O 0.3312(4) 0.2462(5) 0.1325(10)
O3_2 O 0.2517(4) 0.1038(4) 0.2793(10)
O5_2 O 0.2686(4) 0.0333(4) 0.3783(10)
O6_3 O 0.2836(4) 0.1746(4) 0.1332(9)
O7_2 O 0.2772(4) 0.2330(4) 0.3489(10)
O9_2 O 0.1937(4) 0.1298(5) 0.0954(10)
N2_2 N 0.2205(6) 0.1579(6) 0.4603(13)
H2_2 H 0.193(8) 0.169(8) 0.501(18)
H4_3 H 0.3855 0.1756 0.0223
C3_2 C 0.2494(6) 0.0767(6) 0.3696(14)
O10_2 O 0.1322(6) 0.1432(5) 0.3239(14)
C4_3 C 0.3204(6) 0.2037(6) 0.0959(14)
N3_2 N 0.1213(7) 0.2054(7) 0.1529(15)
H5_2 H 0.124(9) 0.237(9) 0.12(2)
C5_2 C 0.2209(7) 0.1004(7) 0.4650(16)
H6_2 H 0.1855 0.0879 0.4646
H7_2 H 0.2368 0.0895 0.5346
O11_2 O 0.3047(7) 0.2638(6) 0.5115(14)
C7_2 C 0.1549(7) 0.1329(7) 0.0325(15)
C8_2 C 0.1088(9) 0.1673(9) 0.065(2)
H11_2 H 0.0807 0.1454 0.0906
C9_2 C 0.2682(7) 0.1782(8) 0.5122(17)
H12_2 H 0.2958 0.1530 0.5047
H13_2 H 0.2623 0.1842 0.5913
O12_2 O 0.0577(10) 0.1688(12) 0.411(3)
C10_2 C 0.2842(7) 0.2293(7) 0.4551(15)
C11_2 C 0.0903(11) 0.1683(11) 0.333(2)
C12_2 C 0.0798(8) 0.2093(9) 0.236(2)
H14_2 H 0.0466 0.2024 0.2015
H15_2 H 0.0789 0.2440 0.2676
Gd3_2 Gd 0.29228(3) 0.31340(3) 0.24457(7)
O13_2 O 0.1688(4) 0.2538(5) 0.3675(10)
O14_2 O 0.3518(5) 0.0241(5) 0.0043(10)
O15_3 O 0.3199(4) 0.0000(4) 0.1667(9)
O16_2 O 0.2167(4) 0.0186(4) 0.1283(10)
O17_2 O 0.2228(4) 0.2670(4) 0.1511(10)
O18_2 O 0.3605(4) 0.1003(5) 0.1899(10)
O15_4 O 0.3199(4) 1.0000(4) 0.1667(9)
O11_3 O 0.0138(6) 0.4453(7) 0.2615(14)
O13_3 O 0.0038(5) 0.5812(4) 0.1175(10)
Gd3_3 Gd 0.06340(3) 0.45772(3) 0.99457(7)
O17_3 O 0.0170(4) 0.5272(4) 0.9011(10)
Gd1_3 Gd 0.93660(3) 0.54228(3) 0.00543(7)
O3_3 O 0.8538(4) 0.4983(4) 0.0293(10)
O5_3 O 0.7833(4) 0.4814(4) 0.1283(10)
O7_3 O 0.9830(4) 0.4728(4) 0.0989(10)
N2_3 N 0.9079(6) 0.5295(6) 0.2103(13)
H2_3 H 0.919(8) 0.557(8) 0.251(18)
C3_3 C 0.8267(6) 0.5006(6) 0.1196(14)
O10_3 O 0.8932(5) 0.6178(6) 0.0739(14)
C5_3 C 0.8504(7) 0.5291(7) 0.2150(16)
H6_3 H 0.8379 0.5645 0.2146
H7_3 H 0.8395 0.5132 0.2846
C9_3 C 0.9282(8) 0.4818(7) 0.2622(17)
H12_3 H 0.9030 0.4542 0.2547
H13_3 H 0.9342 0.4877 0.3413
O12_3 O 0.9188(12) 0.6923(10) 0.161(3)
C10_3 C 0.9793(7) 0.4658(7) 0.2051(15)
C11_3 C 0.9183(11) 0.6597(11) 0.083(2)
H15_3 H 0.9940 0.6711 0.0176
Gd5_2 Gd 0.71795(3) 0.41917(3) 0.09671(6)
Gd2_3 Gd 0.83083(3) 0.46795(3) 0.84671(6)
O1_4 O 0.9962(5) 0.4188(4) 0.8825(10)
O2_3 O 0.8518(5) 0.5241(5) 0.5043(10)
O4_3 O 0.8199(4) 0.5000(4) 0.6667(9)
O6_4 O 0.9246(4) 0.4664(4) 0.8832(9)
N1_4 N 0.8860(5) 0.4232(5) 0.6992(12)
H1_4 H 0.867(7) 0.397(7) 0.669(16)
O8_3 O 0.8605(4) 0.6003(5) 0.6899(10)
O9_3 O 0.8798(5) 0.5563(4) 0.8454(10)
C1_4 C 0.9334(7) 0.3995(6) 0.7483(15)
H3_4 H 0.9600 0.3975 0.6911
H4_4 H 0.9256 0.3645 0.7723
C2_4 C 0.8536(7) 0.4968(7) 0.5885(15)
C4_4 C 0.9537(6) 0.4296(6) 0.8459(14)
N3_3 N 0.9554(7) 0.6287(7) 0.9029(15)
H5_3 H 0.987(9) 0.626(9) 0.87(2)
C6_4 C 0.8980(6) 0.4597(6) 0.6093(14)
H8_4 H 0.9054 0.4406 0.5411
H9_4 H 0.9288 0.4792 0.6290
C7_3 C 0.8829(7) 0.5951(7) 0.7825(15)
C8_3 C 0.9173(9) 0.6412(9) 0.815(2)
H10_3 H 0.9356 0.6531 0.7487
H11_3 H 0.8954 0.6693 0.8406
C12_3 C 0.9593(9) 0.6702(8) 0.986(2)
H14_3 H 0.9524 0.7034 0.9515
Gd4_2 Gd 0.78205(3) 0.58083(3) 0.59671(6)
O14_3 O 0.7741(5) 0.3982(5) 0.7543(10)
O15_5 O 0.7500(4) 0.4301(4) 0.9167(9)
O16_3 O 0.7686(4) 0.5333(4) 0.8783(10)
O18_3 O 0.8503(5) 0.3895(4) 0.9399(10)
Gd1_4 Gd 0.56340(3) 0.45772(3) 0.50543(7)
Gd2_4 Gd 0.66917(3) 0.53205(3) 0.34671(6)
O1_5 O 0.5038(5) 0.5812(4) 0.3825(10)
O2_4 O 0.6482(5) 0.4759(5) 0.0043(10)
O3_4 O 0.6462(4) 0.5017(4) 0.5293(10)
O4_4 O 0.6801(4) 0.5000(4) 0.1667(9)
O5_4 O 0.7167(4) 0.5186(4) 0.6283(10)
O6_5 O 0.5754(4) 0.5336(4) 0.3832(9)
O7_4 O 0.5170(4) 0.5272(4) 0.5989(10)
N1_5 N 0.6140(5) 0.5768(5) 0.1992(12)
H1_5 H 0.633(7) 0.603(7) 0.169(16)
O8_4 O 0.6395(4) 0.3997(5) 0.1899(10)
O9_4 O 0.6202(5) 0.4437(4) 0.3454(10)
N2_4 N 0.5921(6) 0.4705(6) 0.7103(13)
H2_4 H 0.581(8) 0.443(8) 0.751(18)
C1_5 C 0.5666(7) 0.6005(6) 0.2483(15)
H3_5 H 0.5400 0.6025 0.1911
H4_5 H 0.5744 0.6355 0.2723
C2_5 C 0.6464(7) 0.5032(7) 0.0885(15)
C3_4 C 0.6733(6) 0.4994(6) 0.6196(14)
O10_4 O 0.6068(5) 0.3822(6) 0.5739(14)
C4_5 C 0.5463(6) 0.5704(6) 0.3459(14)
N3_4 N 0.5446(7) 0.3713(7) 0.4029(15)
H5_4 H 0.513(9) 0.374(9) 0.37(2)
C5_4 C 0.6496(7) 0.4709(7) 0.7150(16)
H6_4 H 0.6621 0.4355 0.7146
H7_4 H 0.6605 0.4868 0.7846
O11_4 O 0.4862(6) 0.5547(7) 0.7615(14)
C6_5 C 0.6020(6) 0.5403(6) 0.1093(14)
H8_5 H 0.5946 0.5594 0.0411
H9_5 H 0.5712 0.5208 0.1290
C7_4 C 0.6171(7) 0.4049(7) 0.2825(15)
C8_4 C 0.5827(9) 0.3588(9) 0.315(2)
H10_4 H 0.5644 0.3469 0.2487
H11_4 H 0.6046 0.3307 0.3406
C9_4 C 0.5718(8) 0.5182(7) 0.7622(17)
H12_4 H 0.5970 0.5458 0.7547
H13_4 H 0.5658 0.5123 0.8413
O12_4 O 0.5812(12) 0.3077(10) 0.661(3)
C10_4 C 0.5207(7) 0.5342(7) 0.7051(15)
C11_4 C 0.5817(11) 0.3403(11) 0.583(2)
C12_4 C 0.5407(9) 0.3298(8) 0.486(2)
H14_4 H 0.5476 0.2966 0.4515
H15_4 H 0.5060 0.3289 0.5176
Gd3_4 Gd 0.43660(3) 0.54228(3) 0.49457(7)
O13_4 O 0.4962(5) 0.4188(4) 0.6175(10)
O14_4 O 0.7259(5) 0.6018(5) 0.2543(10)
O15_6 O 0.7500(4) 0.5699(4) 0.4167(9)
O16_4 O 0.7314(4) 0.4667(4) 0.3783(10)
O17_4 O 0.4830(4) 0.4728(4) 0.4011(10)
O18_4 O 0.6497(5) 0.6105(4) 0.4399(10)
Gd1_5 Gd 0.79228(3) 0.31340(3) 0.25543(7)
O1_6 O 0.6688(4) 0.2538(5) 0.1325(10)
O3_5 O 0.7483(4) 0.3962(4) 0.2793(10)
O6_6 O 0.7164(4) 0.3254(4) 0.1332(9)
O7_5 O 0.7228(4) 0.2670(4) 0.3489(10)
O9_5 O 0.8063(4) 0.3702(5) 0.0954(10)
N2_5 N 0.7795(6) 0.3421(6) 0.4603(13)
H2_5 H 0.807(8) 0.331(8) 0.501(18)
H4_6 H 0.6145 0.3244 0.0223
C3_5 C 0.7506(6) 0.4233(6) 0.3696(14)
O10_5 O 0.8678(6) 0.3568(5) 0.3239(14)
C4_6 C 0.6796(6) 0.2963(6) 0.0959(14)
N3_5 N 0.8787(7) 0.2946(7) 0.1529(15)
H5_5 H 0.876(9) 0.263(9) 0.12(2)
C5_5 C 0.7791(7) 0.3996(7) 0.4650(16)
H6_5 H 0.8145 0.4121 0.4646
H7_5 H 0.7632 0.4105 0.5346
O11_5 O 0.6953(7) 0.2362(6) 0.5115(14)
C7_5 C 0.8451(7) 0.3671(7) 0.0325(15)
C8_5 C 0.8912(9) 0.3327(9) 0.065(2)
H11_5 H 0.9193 0.3546 0.0906
C9_5 C 0.7318(7) 0.3218(8) 0.5122(17)
H12_5 H 0.7042 0.3470 0.5047
H13_5 H 0.7377 0.3158 0.5913
O12_5 O 0.9423(10) 0.3312(12) 0.411(3)
C10_5 C 0.7158(7) 0.2707(7) 0.4551(15)
C11_5 C 0.9097(11) 0.3317(11) 0.333(2)
C12_5 C 0.9202(8) 0.2907(9) 0.236(2)
H14_5 H 0.9534 0.2976 0.2015
H15_5 H 0.9211 0.2560 0.2676
Gd3_5 Gd 0.70772(3) 0.18660(3) 0.24457(7)
O13_5 O 0.8312(4) 0.2462(5) 0.3675(10)
O17_5 O 0.7772(4) 0.2330(4) 0.1511(10)
N1_6 N 0.6732(5) 0.3640(5) 0.9492(12)
H1_6 H 0.647(7) 0.383(7) 0.919(16)
C1_6 C 0.6495(6) 0.3166(7) 0.9983(15)
H3_6 H 0.6475 0.2900 0.9411
C2_6 C 0.7468(7) 0.3964(7) 0.8385(15)
C6_6 C 0.7097(6) 0.3520(6) 0.8593(14)
H8_6 H 0.6906 0.3446 0.7911
H9_6 H 0.7292 0.3212 0.8790
H10_5 H 0.9031 0.3144 0.9987
Gd1_6 Gd 0.70772(3) 0.68660(3) 0.75543(7)
O1_7 O 0.8312(4) 0.7462(5) 0.6325(10)
O3_6 O 0.7517(4) 0.6038(4) 0.7793(10)
O6_7 O 0.7836(4) 0.6746(4) 0.6332(9)
O7_6 O 0.7772(4) 0.7330(4) 0.8489(10)
N1_7 N 0.8268(5) 0.6360(5) 0.4492(12)
H1_7 H 0.853(7) 0.617(7) 0.419(16)
O9_6 O 0.6937(4) 0.6298(5) 0.5954(10)
N2_6 N 0.7205(6) 0.6579(6) 0.9603(13)
C1_7 C 0.8505(6) 0.6834(7) 0.4983(15)
H3_7 H 0.8525 0.7100 0.4411
H4_7 H 0.8855 0.6756 0.5223
C2_7 C 0.7532(7) 0.6036(7) 0.3385(15)
C3_6 C 0.7494(6) 0.5767(6) 0.8696(14)
O10_6 O 0.6322(6) 0.6432(5) 0.8239(14)
C4_7 C 0.8204(6) 0.7037(6) 0.5959(14)
N3_6 N 0.6213(7) 0.7054(7) 0.6529(15)
H5_6 H 0.624(9) 0.737(9) 0.62(2)
C5_6 C 0.7209(7) 0.6004(7) 0.9650(16)
H6_6 H 0.6855 0.5879 0.9646
C6_7 C 0.7903(6) 0.6480(6) 0.3593(14)
H8_7 H 0.8094 0.6554 0.2911
H9_7 H 0.7708 0.6788 0.3790
C7_6 C 0.6549(7) 0.6329(7) 0.5325(15)
C8_6 C 0.6088(9) 0.6673(9) 0.565(2)
H10_6 H 0.5969 0.6856 0.4987
H11_6 H 0.5807 0.6454 0.5906
O12_6 O 0.5577(10) 0.6688(12) 0.911(3)
C10_6 C 0.7842(7) 0.7293(7) 0.9551(15)
C11_6 C 0.5903(11) 0.6683(11) 0.833(2)
C12_6 C 0.5798(8) 0.7093(9) 0.736(2)
H14_6 H 0.5466 0.7024 0.7015
H15_6 H 0.5789 0.7440 0.7676
Gd3_6 Gd 0.79228(3) 0.81340(3) 0.74457(7)
O13_6 O 0.6688(4) 0.7538(5) 0.8675(10)
O17_6 O 0.7228(4) 0.7670(4) 0.6511(10)
Gd1_7 Gd 0.43660(3) 0.04228(3) 0.50543(7)
O9_7 O 0.3798(5) 0.0563(4) 0.3454(10)
N2_7 N 0.4079(6) 0.0295(6) 0.7103(13)
H2_6 H 0.419(8) 0.057(8) 0.751(18)
C3_7 C 0.3267(6) 0.0006(6) 0.6196(14)
O10_7 O 0.3932(5) 0.1178(6) 0.5739(14)
N3_7 N 0.4554(7) 0.1287(7) 0.4029(15)
H5_7 H 0.487(9) 0.126(9) 0.37(2)
C5_7 C 0.3504(7) 0.0291(7) 0.7150(16)
H6_7 H 0.3379 0.0645 0.7146
H7_6 H 0.3395 0.0132 0.7846
C7_7 C 0.3829(7) 0.0951(7) 0.2825(15)
C8_7 C 0.4173(9) 0.1412(9) 0.315(2)
H10_7 H 0.4356 0.1531 0.2487
H11_7 H 0.3954 0.1693 0.3406
O12_7 O 0.4188(12) 0.1923(10) 0.661(3)
C11_7 C 0.4183(11) 0.1597(11) 0.583(2)
C12_7 C 0.4593(9) 0.1702(8) 0.486(2)
H14_7 H 0.4524 0.2034 0.4515
H15_7 H 0.4940 0.1711 0.5176
O13_7 O 0.5038(5) 0.0812(4) 0.6175(10)
O17_7 O 0.5170(4) 0.0272(4) 0.4011(10)
O1_8 O 0.4962(5) 0.9188(4) 0.3825(10)
O3_7 O 0.3538(4) 0.9983(4) 0.5293(10)
O6_8 O 0.4246(4) 0.9664(4) 0.3832(9)
O7_7 O 0.4830(4) 0.9728(4) 0.5989(10)
N1_8 N 0.3860(5) 0.9232(5) 0.1992(12)
H1_8 H 0.367(7) 0.897(7) 0.169(16)
C1_8 C 0.4334(7) 0.8995(6) 0.2483(15)
H3_8 H 0.4600 0.8975 0.1911
H4_8 H 0.4256 0.8645 0.2723
C2_8 C 0.3536(7) 0.9968(7) 0.0885(15)
C4_8 C 0.4537(6) 0.9296(6) 0.3459(14)
O11_6 O 0.5138(6) 0.9453(7) 0.7615(14)
C6_8 C 0.3980(6) 0.9597(6) 0.1093(14)
H8_8 H 0.4054 0.9406 0.0411
H9_8 H 0.4288 0.9792 0.1290
C9_6 C 0.4282(8) 0.9818(7) 0.7622(17)
H12_6 H 0.4030 0.9542 0.7547
H13_6 H 0.4342 0.9877 0.8413
C10_7 C 0.4793(7) 0.9658(7) 0.7051(15)
Gd3_7 Gd 0.56340(3) 0.95772(3) 0.49457(7)
O3_8 O 0.1462(4) 0.0017(4) 0.0293(10)
O7_8 O 0.0170(4) 0.0272(4) 0.0989(10)
C9_7 C 0.0718(8) 0.0182(7) 0.2622(17)
H12_7 H 0.0970 0.0458 0.2547
H13_7 H 0.0658 0.0123 0.3413
C10_8 C 0.0207(7) 0.0342(7) 0.2051(15)
O9_8 O 0.1202(5) 0.9437(4) 0.8454(10)
N3_8 N 0.0446(7) 0.8713(7) 0.9029(15)
H5_8 H 0.013(9) 0.874(9) 0.87(2)
C7_8 C 0.1171(7) 0.9049(7) 0.7825(15)
C8_8 C 0.0827(9) 0.8588(9) 0.815(2)
H10_8 H 0.0644 0.8469 0.7487
H11_8 H 0.1046 0.8307 0.8406
C12_8 C 0.0407(9) 0.8298(8) 0.986(2)
H14_8 H 0.0476 0.7966 0.9515
O17_8 O 0.9830(4) 0.9728(4) 0.9011(10)
Gd2_5 Gd 0.78205(3) 0.08083(3) 0.40329(6)
O2_5 O 0.7259(5) 0.1018(5) 0.7457(10)
O3_9 O 0.7517(4) 0.1038(4) 0.2207(10)
O4_5 O 0.7500(4) 0.0699(4) 0.5833(9)
O5_5 O 0.7686(4) 0.0333(4) 0.1217(10)
O6_9 O 0.7836(4) 0.1746(4) 0.3668(9)
N1_9 N 0.8268(5) 0.1360(5) 0.5508(12)
H1_9 H 0.853(7) 0.117(7) 0.581(16)
O8_5 O 0.6497(5) 0.1105(4) 0.5601(10)
O9_9 O 0.6937(4) 0.1298(5) 0.4046(10)
N2_8 N 0.7205(6) 0.1579(6) 0.0397(13)
C1_9 C 0.8505(6) 0.1834(7) 0.5017(15)
H3_9 H 0.8525 0.2100 0.5589
H4_9 H 0.8855 0.1756 0.4777
C2_9 C 0.7532(7) 0.1036(7) 0.6615(15)
C3_8 C 0.7494(6) 0.0767(6) 0.1304(14)
O10_8 O 0.6322(6) 0.1432(5) 0.1761(14)
C4_9 C 0.8204(6) 0.2037(6) 0.4041(14)
N3_9 N 0.6213(7) 0.2054(7) 0.3471(15)
H5_9 H 0.624(9) 0.237(9) 0.38(2)
C5_8 C 0.7209(7) 0.1004(7) 0.0350(16)
H6_8 H 0.6855 0.0879 0.0354
C6_9 C 0.7903(6) 0.1480(6) 0.6407(14)
H8_9 H 0.8094 0.1554 0.7089
H9_9 H 0.7708 0.1788 0.6210
C7_9 C 0.6549(7) 0.1329(7) 0.4675(15)
C8_9 C 0.6088(9) 0.1673(9) 0.435(2)
H10_9 H 0.5969 0.1856 0.5013
H11_9 H 0.5807 0.1454 0.4094
O12_8 O 0.5577(10) 0.1688(12) 0.089(3)
C10_9 C 0.7842(7) 0.2293(7) 0.0449(15)
C11_8 C 0.5903(11) 0.1683(11) 0.167(2)
C12_9 C 0.5798(8) 0.2093(9) 0.264(2)
H14_9 H 0.5466 0.2024 0.2985
H15_8 H 0.5789 0.2440 0.2324
Gd4_3 Gd 0.66917(3) 0.03205(3) 0.65329(6)
O14_5 O 0.8518(5) 0.0241(5) 0.4957(10)
O15_7 O 0.8199(4) 0.0000(4) 0.3333(9)
O16_5 O 0.7167(4) 0.0186(4) 0.3717(10)
O18_5 O 0.8605(4) 0.1003(5) 0.3101(10)
O15_8 O 0.6801(4) 0.0000(4) 0.8333(9)
Gd2_6 Gd 0.71795(3) 0.91917(3) 0.90329(6)
O3_10 O 0.7483(4) 0.8962(4) 0.7207(10)
O5_6 O 0.7314(4) 0.9667(4) 0.6217(10)
O6_10 O 0.7164(4) 0.8254(4) 0.8668(9)
O9_10 O 0.8063(4) 0.8702(5) 0.9046(10)
N2_9 N 0.7795(6) 0.8421(6) 0.5397(13)
H2_7 H 0.807(8) 0.831(8) 0.499(18)
H4_10 H 0.6145 0.8244 0.9777
C3_9 C 0.7506(6) 0.9233(6) 0.6304(14)
O10_9 O 0.8678(6) 0.8568(5) 0.6761(14)
C4_10 C 0.6796(6) 0.7963(6) 0.9041(14)
N3_10 N 0.8787(7) 0.7946(7) 0.8471(15)
H5_10 H 0.876(9) 0.763(9) 0.88(2)
C5_9 C 0.7791(7) 0.8996(7) 0.5350(16)
H6_9 H 0.8145 0.9121 0.5354
H7_7 H 0.7632 0.9105 0.4654
O11_7 O 0.6953(7) 0.7362(6) 0.4885(14)
C7_10 C 0.8451(7) 0.8671(7) 0.9675(15)
C8_10 C 0.8912(9) 0.8327(9) 0.935(2)
H11_10 H 0.9193 0.8546 0.9094
C9_8 C 0.7318(7) 0.8218(8) 0.4878(17)
H12_8 H 0.7042 0.8470 0.4953
H13_8 H 0.7377 0.8158 0.4087
O12_9 O 0.9423(10) 0.8312(12) 0.589(3)
C10_10 C 0.7158(7) 0.7707(7) 0.5449(15)
C11_9 C 0.9097(11) 0.8317(11) 0.667(2)
C12_10 C 0.9202(8) 0.7907(9) 0.764(2)
H14_10 H 0.9534 0.7976 0.7985
H15_9 H 0.9211 0.7560 0.7324
O14_6 O 0.6482(5) 0.9759(5) 0.9957(10)
O15_9 O 0.6801(4) 1.0000(4) 0.8333(9)
O16_6 O 0.7833(4) 0.9814(4) 0.8717(10)
O18_6 O 0.6395(4) 0.8997(5) 0.8101(10)
Gd2_7 Gd 0.16917(3) 0.53205(3) 0.15329(6)
O2_6 O 0.1482(5) 0.4759(5) 0.4957(10)
O4_6 O 0.1801(4) 0.5000(4) 0.3333(9)
O6_11 O 0.0754(4) 0.5336(4) 0.1168(9)
N1_10 N 0.1140(5) 0.5768(5) 0.3008(12)
H1_10 H 0.133(7) 0.603(7) 0.331(16)
O8_6 O 0.1395(4) 0.3997(5) 0.3101(10)
O9_11 O 0.1202(5) 0.4437(4) 0.1546(10)
C1_10 C 0.0666(7) 0.6005(6) 0.2517(15)
H3_10 H 0.0400 0.6025 0.3089
H4_11 H 0.0744 0.6355 0.2277
C2_10 C 0.1464(7) 0.5032(7) 0.4115(15)
C4_11 C 0.0463(6) 0.5704(6) 0.1541(14)
N3_11 N 0.0446(7) 0.3713(7) 0.0971(15)
H5_11 H 0.013(9) 0.374(9) 0.13(2)
C6_10 C 0.1020(6) 0.5403(6) 0.3907(14)
H8_10 H 0.0946 0.5594 0.4589
H9_10 H 0.0712 0.5208 0.3710
C7_11 C 0.1171(7) 0.4049(7) 0.2175(15)
C8_11 C 0.0827(9) 0.3588(9) 0.185(2)
H10_10 H 0.0644 0.3469 0.2513
H11_11 H 0.1046 0.3307 0.1594
C12_11 C 0.0407(9) 0.3298(8) 0.014(2)
H14_11 H 0.0476 0.2966 0.0485
Gd4_4 Gd 0.21795(3) 0.41917(3) 0.40329(6)
O14_7 O 0.2259(5) 0.6018(5) 0.2457(10)
O15_10 O 0.2500(4) 0.5699(4) 0.0833(9)
O16_7 O 0.2314(4) 0.4667(4) 0.1217(10)
O18_7 O 0.1497(5) 0.6105(4) 0.0601(10)
O3_11 O 0.1462(4) 0.5017(4) 0.9707(10)
O5_7 O 0.2167(4) 0.5186(4) 0.8717(10)
N2_10 N 0.0921(6) 0.4705(6) 0.7897(13)
H2_8 H 0.081(8) 0.443(8) 0.749(18)
C3_10 C 0.1733(6) 0.4994(6) 0.8804(14)
O10_10 O 0.1068(5) 0.3822(6) 0.9261(14)
C5_10 C 0.1496(7) 0.4709(7) 0.7850(16)
H6_10 H 0.1621 0.4355 0.7854
H7_8 H 0.1605 0.4868 0.7154
C9_9 C 0.0718(8) 0.5182(7) 0.7378(17)
H12_9 H 0.0970 0.5458 0.7453
H13_9 H 0.0658 0.5123 0.6587
O12_10 O 0.0812(12) 0.3077(10) 0.839(3)
C10_11 C 0.0207(7) 0.5342(7) 0.7949(15)
C11_10 C 0.0817(11) 0.3403(11) 0.917(2)
H15_10 H 0.0060 0.3289 0.9824
Gd5_3 Gd 0.28205(3) 0.58083(3) 0.90329(6)
O11_8 O 0.9862(6) 0.5547(7) 0.7385(14)
Gd2_8 Gd 0.33083(3) 0.46795(3) 0.65329(6)
O2_7 O 0.3518(5) 0.5241(5) 0.9957(10)
O3_12 O 0.3538(4) 0.4983(4) 0.4707(10)
O4_7 O 0.3199(4) 0.5000(4) 0.8333(9)
O5_8 O 0.2833(4) 0.4814(4) 0.3717(10)
O6_12 O 0.4246(4) 0.4664(4) 0.6168(9)
N1_11 N 0.3860(5) 0.4232(5) 0.8008(12)
H1_11 H 0.367(7) 0.397(7) 0.831(16)
O8_7 O 0.3605(4) 0.6003(5) 0.8101(10)
O9_12 O 0.3798(5) 0.5563(4) 0.6546(10)
N2_11 N 0.4079(6) 0.5295(6) 0.2897(13)
H2_9 H 0.419(8) 0.557(8) 0.249(18)
C1_11 C 0.4334(7) 0.3995(6) 0.7517(15)
H3_11 H 0.4600 0.3975 0.8089
H4_12 H 0.4256 0.3645 0.7277
C2_11 C 0.3536(7) 0.4968(7) 0.9115(15)
C3_11 C 0.3267(6) 0.5006(6) 0.3804(14)
O10_11 O 0.3932(5) 0.6178(6) 0.4261(14)
C4_12 C 0.4537(6) 0.4296(6) 0.6541(14)
N3_12 N 0.4554(7) 0.6287(7) 0.5971(15)
H5_12 H 0.487(9) 0.626(9) 0.63(2)
C5_11 C 0.3504(7) 0.5291(7) 0.2850(16)
H6_11 H 0.3379 0.5645 0.2854
H7_9 H 0.3395 0.5132 0.2154
O11_9 O 0.5138(6) 0.4453(7) 0.2385(14)
C6_11 C 0.3980(6) 0.4597(6) 0.8907(14)
H8_11 H 0.4054 0.4406 0.9589
H9_11 H 0.4288 0.4792 0.8710
C7_12 C 0.3829(7) 0.5951(7) 0.7175(15)
C8_12 C 0.4173(9) 0.6412(9) 0.685(2)
H10_11 H 0.4356 0.6531 0.7513
H11_12 H 0.3954 0.6693 0.6594
C9_10 C 0.4282(8) 0.4818(7) 0.2378(17)
H12_10 H 0.4030 0.4542 0.2453
H13_10 H 0.4342 0.4877 0.1587
O12_11 O 0.4188(12) 0.6923(10) 0.339(3)
C10_12 C 0.4793(7) 0.4658(7) 0.2949(15)
C11_11 C 0.4183(11) 0.6597(11) 0.417(2)
C12_12 C 0.4593(9) 0.6702(8) 0.514(2)
H14_12 H 0.4524 0.7034 0.5485
H15_11 H 0.4940 0.6711 0.4824
O14_8 O 0.2741(5) 0.3982(5) 0.7457(10)
O15_11 O 0.2500(4) 0.4301(4) 0.5833(9)
O16_8 O 0.2686(4) 0.5333(4) 0.6217(10)
O18_8 O 0.3503(5) 0.3895(4) 0.5601(10)
N1_12 N 0.3268(5) 0.6360(5) 0.0508(12)
H1_12 H 0.353(7) 0.617(7) 0.081(16)
C1_12 C 0.3505(6) 0.6834(7) 0.0017(15)
H3_12 H 0.3525 0.7100 0.0589
C2_12 C 0.2532(7) 0.6036(7) 0.1615(15)
C6_12 C 0.2903(6) 0.6480(6) 0.1407(14)
H8_12 H 0.3094 0.6554 0.2089
H9_12 H 0.2708 0.6788 0.1210
H10_12 H 0.0969 0.6856 0.0013
O3_13 O 0.2517(4) 0.6038(4) 0.7207(10)
O6_13 O 0.2836(4) 0.6746(4) 0.8668(9)
O9_13 O 0.1937(4) 0.6298(5) 0.9046(10)
N2_12 N 0.2205(6) 0.6579(6) 0.5397(13)
H2_10 H 0.193(8) 0.669(8) 0.499(18)
H4_13 H 0.3855 0.6756 0.9777
C3_12 C 0.2494(6) 0.5767(6) 0.6304(14)
O10_12 O 0.1322(6) 0.6432(5) 0.6761(14)
C4_13 C 0.3204(6) 0.7037(6) 0.9041(14)
N3_13 N 0.1213(7) 0.7054(7) 0.8471(15)
H5_13 H 0.124(9) 0.737(9) 0.88(2)
C5_12 C 0.2209(7) 0.6004(7) 0.5350(16)
H6_12 H 0.1855 0.5879 0.5354
H7_10 H 0.2368 0.5895 0.4654
O11_10 O 0.3047(7) 0.7638(6) 0.4885(14)
C7_13 C 0.1549(7) 0.6329(7) 0.9675(15)
C8_13 C 0.1088(9) 0.6673(9) 0.935(2)
H11_13 H 0.0807 0.6454 0.9094
C9_11 C 0.2682(7) 0.6782(8) 0.4878(17)
H12_11 H 0.2958 0.6530 0.4953
H13_11 H 0.2623 0.6842 0.4087
O12_12 O 0.0577(10) 0.6688(12) 0.589(3)
C10_13 C 0.2842(7) 0.7293(7) 0.5449(15)
C11_12 C 0.0903(11) 0.6683(11) 0.667(2)
C12_13 C 0.0798(8) 0.7093(9) 0.764(2)
H14_13 H 0.0466 0.7024 0.7985
H15_12 H 0.0789 0.7440 0.7324
O3_14 O 0.2483(4) 0.3962(4) 0.2207(10)
O6_14 O 0.2164(4) 0.3254(4) 0.3668(9)
N1_13 N 0.1732(5) 0.3640(5) 0.5508(12)
H1_13 H 0.147(7) 0.383(7) 0.581(16)
O9_14 O 0.3063(4) 0.3702(5) 0.4046(10)
N2_13 N 0.2795(6) 0.3421(6) 0.0397(13)
C1_13 C 0.1495(6) 0.3166(7) 0.5017(15)
H3_13 H 0.1475 0.2900 0.5589
H4_14 H 0.1145 0.3244 0.4777
C2_13 C 0.2468(7) 0.3964(7) 0.6615(15)
C3_13 C 0.2506(6) 0.4233(6) 0.1304(14)
O10_13 O 0.3678(6) 0.3568(5) 0.1761(14)
C4_14 C 0.1796(6) 0.2963(6) 0.4041(14)
N3_14 N 0.3787(7) 0.2946(7) 0.3471(15)
H5_14 H 0.376(9) 0.263(9) 0.38(2)
C5_13 C 0.2791(7) 0.3996(7) 0.0350(16)
H6_13 H 0.3145 0.4121 0.0354
C6_13 C 0.2097(6) 0.3520(6) 0.6407(14)
H8_13 H 0.1906 0.3446 0.7089
H9_13 H 0.2292 0.3212 0.6210
C7_14 C 0.3451(7) 0.3671(7) 0.4675(15)
C8_14 C 0.3912(9) 0.3327(9) 0.435(2)
H10_13 H 0.4031 0.3144 0.5013
H11_14 H 0.4193 0.3546 0.4094
O12_13 O 0.4423(10) 0.3312(12) 0.089(3)
C10_14 C 0.2158(7) 0.2707(7) 0.0449(15)
C11_13 C 0.4097(11) 0.3317(11) 0.167(2)
C12_14 C 0.4202(8) 0.2907(9) 0.264(2)
H14_14 H 0.4534 0.2976 0.2985
H15_13 H 0.4211 0.2560 0.2324
O3_15 O 0.6462(4) 0.0017(4) 0.4707(10)
O6_15 O 0.5754(4) 0.0336(4) 0.6168(9)
N1_14 N 0.6140(5) 0.0768(5) 0.8008(12)
H1_14 H 0.633(7) 0.103(7) 0.831(16)
C1_14 C 0.5666(7) 0.1005(6) 0.7517(15)
H3_14 H 0.5400 0.1025 0.8089
H4_15 H 0.5744 0.1355 0.7277
C2_14 C 0.6464(7) 0.0032(7) 0.9115(15)
C4_15 C 0.5463(6) 0.0704(6) 0.6541(14)
O11_11 O 0.4862(6) 0.0547(7) 0.2385(14)
C6_14 C 0.6020(6) 0.0403(6) 0.8907(14)
H8_14 H 0.5946 0.0594 0.9589
H9_14 H 0.5712 0.0208 0.8710
C9_12 C 0.5718(8) 0.0182(7) 0.2378(17)
H12_12 H 0.5970 0.0458 0.2453
H13_12 H 0.5658 0.0123 0.1587
C10_15 C 0.5207(7) 0.0342(7) 0.2949(15)
O9_15 O 0.6202(5) 0.9437(4) 0.6546(10)
N2_14 N 0.5921(6) 0.9705(6) 0.2897(13)
H2_11 H 0.581(8) 0.943(8) 0.249(18)
C3_14 C 0.6733(6) 0.9994(6) 0.3804(14)
O10_14 O 0.6068(5) 0.8822(6) 0.4261(14)
N3_15 N 0.5446(7) 0.8713(7) 0.5971(15)
H5_15 H 0.513(9) 0.874(9) 0.63(2)
C5_14 C 0.6496(7) 0.9709(7) 0.2850(16)
H6_14 H 0.6621 0.9355 0.2854
H7_11 H 0.6605 0.9868 0.2154
C7_15 C 0.6171(7) 0.9049(7) 0.7175(15)
C8_15 C 0.5827(9) 0.8588(9) 0.685(2)
H10_14 H 0.5644 0.8469 0.7513
H11_15 H 0.6046 0.8307 0.6594
O12_14 O 0.5812(12) 0.8077(10) 0.339(3)
C11_14 C 0.5817(11) 0.8403(11) 0.417(2)
C12_15 C 0.5407(9) 0.8298(8) 0.514(2)
H14_15 H 0.5476 0.7966 0.5485
H15_14 H 0.5060 0.8289 0.4824
O9_16 O 0.8798(5) 0.0563(4) 0.1546(10)
N3_16 N 0.9554(7) 0.1287(7) 0.0971(15)
H5_16 H 0.987(9) 0.126(9) 0.13(2)
C7_16 C 0.8829(7) 0.0951(7) 0.2175(15)
C8_16 C 0.9173(9) 0.1412(9) 0.185(2)
H10_15 H 0.9356 0.1531 0.2513
H11_16 H 0.8954 0.1693 0.1594
C12_16 C 0.9593(9) 0.1702(8) 0.014(2)
H14_16 H 0.9524 0.2034 0.0485
O3_16 O 0.8538(4) 0.9983(4) 0.9707(10)
C9_13 C 0.9282(8) 0.9818(7) 0.7378(17)
H12_13 H 0.9030 0.9542 0.7453
H13_13 H 0.9342 0.9877 0.6587
C10_16 C 0.9793(7) 0.9658(7) 0.7949(15)
H2_12 H 0.693(8) 0.669(8) 0.001(18)
H7_12 H 0.7368 0.5895 0.0346
O11_12 O 0.8047(7) 0.7638(6) 0.0115(14)
C9_14 C 0.7682(7) 0.6782(8) 0.0122(17)
H12_14 H 0.7958 0.6530 0.0047
H13_14 H 0.7623 0.6842 0.0913
Gd1_8 Gd 0.06340(3) 0.95772(3) 0.00543(7)
N2_15 N 0.0921(6) 0.9705(6) 0.2103(13)
H2_13 H 0.081(8) 0.943(8) 0.251(18)
C3_15 C 0.1733(6) 0.9994(6) 0.1196(14)
O10_15 O 0.1068(5) 0.8822(6) 0.0739(14)
C5_15 C 0.1496(7) 0.9709(7) 0.2150(16)
H6_15 H 0.1621 0.9355 0.2146
H7_13 H 0.1605 0.9868 0.2846
O12_15 O 0.0812(12) 0.8077(10) 0.161(3)
C11_15 C 0.0817(11) 0.8403(11) 0.083(2)
H15_15 H 0.0060 0.8289 0.0176
O11_13 O 0.9862(6) 0.0547(7) 0.2615(14)
Gd3_8 Gd 0.93660(3) 0.04228(3) 0.99457(7)
N2_16 N 0.9079(6) 0.0295(6) 0.7897(13)
H2_14 H 0.919(8) 0.057(8) 0.749(18)
C3_16 C 0.8267(6) 0.0006(6) 0.8804(14)
O10_16 O 0.8932(5) 0.1178(6) 0.9261(14)
C5_16 C 0.8504(7) 0.0291(7) 0.7850(16)
H6_16 H 0.8379 0.0645 0.7854
H7_14 H 0.8395 0.0132 0.7154
O12_16 O 0.9188(12) 0.1923(10) 0.839(3)
C11_16 C 0.9183(11) 0.1597(11) 0.917(2)
H15_16 H 0.9940 0.1711 0.9824
O13_8 O 0.9962(5) 0.9188(4) 0.1175(10)
Gd5_4 Gd 0.83083(3) 0.96795(3) 0.15329(6)
O15_12 O 0.8199(4) 1.0000(4) 0.3333(9)
O2_8 O 0.7741(5) 0.8982(5) 0.2457(10)
O4_8 O 0.7500(4) 0.9301(4) 0.0833(9)
N1_15 N 0.6732(5) 0.8640(5) 0.0508(12)
H1_15 H 0.647(7) 0.883(7) 0.081(16)
O8_8 O 0.8503(5) 0.8895(4) 0.0601(10)
C1_15 C 0.6495(6) 0.8166(7) 0.0017(15)
H3_15 H 0.6475 0.7900 0.0589
C2_15 C 0.7468(7) 0.8964(7) 0.1615(15)
C6_15 C 0.7097(6) 0.8520(6) 0.1407(14)
H8_15 H 0.6906 0.8446 0.2089
H9_15 H 0.7292 0.8212 0.1210
H10_16 H 0.9031 0.8144 0.0013
O6_16 O 0.9246(4) 0.9664(4) 0.1168(9)
N1_16 N 0.8860(5) 0.9232(5) 0.3008(12)
H1_16 H 0.867(7) 0.897(7) 0.331(16)
C1_16 C 0.9334(7) 0.8995(6) 0.2517(15)
H3_16 H 0.9600 0.8975 0.3089
H4_16 H 0.9256 0.8645 0.2277
C2_16 C 0.8536(7) 0.9968(7) 0.4115(15)
C4_16 C 0.9537(6) 0.9296(6) 0.1541(14)
C6_16 C 0.8980(6) 0.9597(6) 0.3907(14)
H8_16 H 0.9054 0.9406 0.4589
H9_16 H 0.9288 0.9792 0.3710
H2_15 H 0.693(8) 0.169(8) 0.999(18)
H7_15 H 0.7368 0.0895 0.9654
O11_14 O 0.8047(7) 0.2638(6) 0.9885(14)
C9_15 C 0.7682(7) 0.1782(8) 0.9878(17)
H12_15 H 0.7958 0.1530 0.9953
H13_15 H 0.7623 0.1842 0.9087
H2_16 H 0.307(8) 0.331(8) 0.999(18)
H7_16 H 0.2632 0.4105 0.9654
O11_15 O 0.1953(7) 0.2362(6) 0.9885(14)
C9_16 C 0.2318(7) 0.3218(8) 0.9878(17)
H12_16 H 0.2042 0.3470 0.9953
H13_16 H 0.2377 0.3158 0.9087
O11_16 O 0.0138(6) 0.9453(7) 0.7385(14)
loop_
_geom_bond_atom_site_label_1
_geom_bond_atom_site_label_2
_geom_bond_site_symmetry_1
_geom_bond_site_symmetry_2
Gd5 O15 1_555 1_555
O2 C2 1_555 1_555
H1 N1 1_555 1_555
C1 N1 1_555 1_555
H3 C1 1_555 1_555
C2 O4 1_555 1_555
C6 N1 1_555 1_555
H8 C6 1_555 1_555
H9 C6 1_555 1_555
Gd5 O2 1_555 1_555
O4 Gd5 1_555 1_555
O8 Gd5 1_555 1_555
C2 C6 1_555 1_555
O1 C4 1_555 1_555
N1_2 Gd5 1_555 1_555
H1_2 N1_2 1_555 1_555
C1_2 N1_2 1_555 1_555
H3_2 C1_2 1_555 1_555
H4 C1_2 1_555 1_555
C2_2 O15 1_555 1_555
C4 O6 1_555 1_555
C6_2 N1_2 1_555 1_555
H8_2 C6_2 1_555 1_555
H9_2 C6_2 1_555 1_555
Gd5 O6 1_555 1_555
C1_2 C4 1_555 1_555
C2_2 C6_2 1_555 1_555
H12 C9 1_555 1_555
H13 C9 1_555 1_555
Gd1 O3 1_555 1_555
Gd2 O3 1_555 1_555
O1_2 C4_2 1_555 1_555
O2_2 C2_3 1_555 1_555
O3 C3 1_555 1_555
O4_2 Gd2 1_555 1_555
O5 C3 1_555 1_555
O6_2 Gd1 1_555 1_555
O7 Gd1 1_555 1_555
N1_3 Gd2 1_555 1_555
H1_3 N1_3 1_555 1_555
O8_2 C7 1_555 1_555
O9 Gd1 1_555 1_555
N2 Gd1 1_555 1_555
C1_3 N1_3 1_555 1_555
H3_3 C1_3 1_555 1_555
H4_2 C1_3 1_555 1_555
C2_3 O4_2 1_555 1_555
C3 C5 1_555 1_555
O10 Gd1 1_555 1_555
C4_2 O6_2 1_555 1_555
N3 Gd1 1_555 1_555
H5 N3 1_555 1_555
C5 N2 1_555 1_555
H6 C5 1_555 1_555
C6_3 N1_3 1_555 1_555
H8_3 C6_3 1_555 1_555
H9_3 C6_3 1_555 1_555
C7 O9 1_555 1_555
C8 N3 1_555 1_555
H10_2 C8 1_555 1_555
H11 C8 1_555 1_555
O12 C11 1_555 1_555
C10 O7 1_555 1_555
C11 O10 1_555 1_555
C12 N3 1_555 1_555
H14 C12 1_555 1_555
H15 C12 1_555 1_555
Gd3 O1_2 1_555 1_555
Gd4 O2_2 1_555 1_555
O13 Gd1 1_555 1_555
O14 Gd2 1_555 1_555
O15_2 Gd2 1_555 1_555
O16 Gd2 1_555 1_555
O17 Gd1 1_555 1_555
O18 Gd2 1_555 1_555
Gd2 O6_2 1_555 1_555
Gd2 O9 1_555 1_555
O4_2 Gd4 1_555 1_555
O7 Gd3 1_555 1_555
O8_2 Gd4 1_555 1_555
C1_3 C4_2 1_555 1_555
C2_3 C6_3 1_555 1_555
C7 C8 1_555 1_555
C11 C12 1_555 1_555
Gd3 O17 1_555 1_555
Gd1_2 O3_2 1_555 1_555
Gd2_2 O3_2 1_555 1_555
O1_3 C4_3 1_555 1_555
O3_2 C3_2 1_555 1_555
O5_2 C3_2 1_555 1_555
O6_3 Gd1_2 1_555 1_555
O7_2 Gd1_2 1_555 1_555
O9_2 Gd1_2 1_555 1_555
N2_2 Gd1_2 1_555 1_555
H2_2 N2_2 1_555 1_555
C3_2 C5_2 1_555 1_555
O10_2 Gd1_2 1_555 1_555
C4_3 O6_3 1_555 1_555
N3_2 Gd1_2 1_555 1_555
H5_2 N3_2 1_555 1_555
C5_2 N2_2 1_555 1_555
H6_2 C5_2 1_555 1_555
H7_2 C5_2 1_555 1_555
O11_2 C10_2 1_555 1_555
C7_2 O9_2 1_555 1_555
C8_2 N3_2 1_555 1_555
H11_2 C8_2 1_555 1_555
C9_2 N2_2 1_555 1_555
H12_2 C9_2 1_555 1_555
H13_2 C9_2 1_555 1_555
O12_2 C11_2 1_555 1_555
C10_2 O7_2 1_555 1_555
C11_2 O10_2 1_555 1_555
C12_2 N3_2 1_555 1_555
H14_2 C12_2 1_555 1_555
H15_2 C12_2 1_555 1_555
Gd3_2 O1_3 1_555 1_555
O13_2 Gd1_2 1_555 1_555
O14_2 Gd2_2 1_555 1_555
O15_3 Gd2_2 1_555 1_555
O16_2 Gd2_2 1_555 1_555
O17_2 Gd1_2 1_555 1_555
O18_2 Gd2_2 1_555 1_555
Gd2_2 O6_3 1_555 1_555
Gd2_2 O9_2 1_555 1_555
O7_2 Gd3_2 1_555 1_555
C7_2 C8_2 1_555 1_555
C9_2 C10_2 1_555 1_555
C11_2 C12_2 1_555 1_555
Gd3_2 O17_2 1_555 1_555
Gd4 O15_4 1_555 1_555
Gd3_3 O17_3 1_555 1_555
Gd1_3 O3_3 1_555 1_555
O3_3 C3_3 1_555 1_555
O5_3 C3_3 1_555 1_555
O7_3 Gd1_3 1_555 1_555
N2_3 Gd1_3 1_555 1_555
H2_3 N2_3 1_555 1_555
C3_3 C5_3 1_555 1_555
O10_3 Gd1_3 1_555 1_555
C5_3 N2_3 1_555 1_555
H6_3 C5_3 1_555 1_555
H7_3 C5_3 1_555 1_555
C9_3 N2_3 1_555 1_555
H12_3 C9_3 1_555 1_555
H13_3 C9_3 1_555 1_555
O12_3 C11_3 1_555 1_555
C10_3 O7_3 1_555 1_555
C11_3 O10_3 1_555 1_555
Gd5_2 O5_3 1_555 1_555
C9_3 C10_3 1_555 1_555
O1_4 C4_4 1_555 1_555
O2_3 C2_4 1_555 1_555
O4_3 Gd2_3 1_555 1_555
N1_4 Gd2_3 1_555 1_555
H1_4 N1_4 1_555 1_555
O8_3 C7_3 1_555 1_555
C1_4 N1_4 1_555 1_555
H3_4 C1_4 1_555 1_555
H4_4 C1_4 1_555 1_555
C2_4 O4_3 1_555 1_555
C4_4 O6_4 1_555 1_555
H5_3 N3_3 1_555 1_555
C6_4 N1_4 1_555 1_555
H8_4 C6_4 1_555 1_555
H9_4 C6_4 1_555 1_555
C7_3 O9_3 1_555 1_555
C8_3 N3_3 1_555 1_555
H10_3 C8_3 1_555 1_555
H11_3 C8_3 1_555 1_555
C12_3 N3_3 1_555 1_555
H14_3 C12_3 1_555 1_555
Gd4_2 O2_3 1_555 1_555
O14_3 Gd2_3 1_555 1_555
O15_5 Gd2_3 1_555 1_555
O16_3 Gd2_3 1_555 1_555
O18_3 Gd2_3 1_555 1_555
Gd2_3 O6_4 1_555 1_555
Gd2_3 O9_3 1_555 1_555
O4_3 Gd4_2 1_555 1_555
O8_3 Gd4_2 1_555 1_555
C1_4 C4_4 1_555 1_555
C2_4 C6_4 1_555 1_555
C7_3 C8_3 1_555 1_555
Gd1_4 O3_4 1_555 1_555
Gd2_4 O3_4 1_555 1_555
O1_5 C4_5 1_555 1_555
O2_4 C2_5 1_555 1_555
O3_4 C3_4 1_555 1_555
O4_4 Gd2_4 1_555 1_555
O5_4 C3_4 1_555 1_555
O6_5 Gd1_4 1_555 1_555
O7_4 Gd1_4 1_555 1_555
N1_5 Gd2_4 1_555 1_555
H1_5 N1_5 1_555 1_555
O8_4 C7_4 1_555 1_555
O9_4 Gd1_4 1_555 1_555
N2_4 Gd1_4 1_555 1_555
H2_4 N2_4 1_555 1_555
C1_5 N1_5 1_555 1_555
H3_5 C1_5 1_555 1_555
H4_5 C1_5 1_555 1_555
C2_5 O4_4 1_555 1_555
C3_4 C5_4 1_555 1_555
O10_4 Gd1_4 1_555 1_555
C4_5 O6_5 1_555 1_555
N3_4 Gd1_4 1_555 1_555
H5_4 N3_4 1_555 1_555
C5_4 N2_4 1_555 1_555
H6_4 C5_4 1_555 1_555
H7_4 C5_4 1_555 1_555
O11_4 C10_4 1_555 1_555
C6_5 N1_5 1_555 1_555
H8_5 C6_5 1_555 1_555
H9_5 C6_5 1_555 1_555
C7_4 O9_4 1_555 1_555
C8_4 N3_4 1_555 1_555
H10_4 C8_4 1_555 1_555
H11_4 C8_4 1_555 1_555
C9_4 N2_4 1_555 1_555
H12_4 C9_4 1_555 1_555
H13_4 C9_4 1_555 1_555
O12_4 C11_4 1_555 1_555
C10_4 O7_4 1_555 1_555
C11_4 O10_4 1_555 1_555
C12_4 N3_4 1_555 1_555
H14_4 C12_4 1_555 1_555
H15_4 C12_4 1_555 1_555
Gd3_4 O1_5 1_555 1_555
Gd5_2 O2_4 1_555 1_555
Gd4_2 O5_4 1_555 1_555
O13_4 Gd1_4 1_555 1_555
O14_4 Gd2_4 1_555 1_555
O15_6 Gd2_4 1_555 1_555
O16_4 Gd2_4 1_555 1_555
O17_4 Gd1_4 1_555 1_555
O18_4 Gd2_4 1_555 1_555
Gd2_4 O6_5 1_555 1_555
Gd2_4 O9_4 1_555 1_555
O4_4 Gd5_2 1_555 1_555
O7_4 Gd3_4 1_555 1_555
O8_4 Gd5_2 1_555 1_555
C1_5 C4_5 1_555 1_555
C2_5 C6_5 1_555 1_555
C7_4 C8_4 1_555 1_555
C9_4 C10_4 1_555 1_555
C11_4 C12_4 1_555 1_555
Gd3_4 O17_4 1_555 1_555
Gd4_2 O15_6 1_555 1_555
Gd1_5 O3_5 1_555 1_555
Gd5_2 O3_5 1_555 1_555
O1_6 C4_6 1_555 1_555
O3_5 C3_5 1_555 1_555
O16_4 C3_5 1_555 1_555
O6_6 Gd1_5 1_555 1_555
O7_5 Gd1_5 1_555 1_555
O9_5 Gd1_5 1_555 1_555
N2_5 Gd1_5 1_555 1_555
H2_5 N2_5 1_555 1_555
C3_5 C5_5 1_555 1_555
O10_5 Gd1_5 1_555 1_555
C4_6 O6_6 1_555 1_555
N3_5 Gd1_5 1_555 1_555
H5_5 N3_5 1_555 1_555
C5_5 N2_5 1_555 1_555
H6_5 C5_5 1_555 1_555
H7_5 C5_5 1_555 1_555
O11_5 C10_5 1_555 1_555
C7_5 O9_5 1_555 1_555
C8_5 N3_5 1_555 1_555
H11_5 C8_5 1_555 1_555
C9_5 N2_5 1_555 1_555
H12_5 C9_5 1_555 1_555
H13_5 C9_5 1_555 1_555
O12_5 C11_5 1_555 1_555
C10_5 O7_5 1_555 1_555
C11_5 O10_5 1_555 1_555
C12_5 N3_5 1_555 1_555
H14_5 C12_5 1_555 1_555
H15_5 C12_5 1_555 1_555
Gd3_5 O1_6 1_555 1_555
O13_5 Gd1_5 1_555 1_555
O17_5 Gd1_5 1_555 1_555
Gd5_2 O6_6 1_555 1_555
Gd5_2 O9_5 1_555 1_555
O7_5 Gd3_5 1_555 1_555
C7_5 C8_5 1_555 1_555
C9_5 C10_5 1_555 1_555
C11_5 C12_5 1_555 1_555
Gd3_5 O17_5 1_555 1_555
O14_3 C2_6 1_555 1_555
H1_6 N1_6 1_555 1_555
C1_6 N1_6 1_555 1_555
H3_6 C1_6 1_555 1_555
C2_6 O15_5 1_555 1_555
C6_6 N1_6 1_555 1_555
H8_6 C6_6 1_555 1_555
H9_6 C6_6 1_555 1_555
C2_6 C6_6 1_555 1_555
Gd1_6 O3_6 1_555 1_555
Gd4_2 O3_6 1_555 1_555
O1_7 C4_7 1_555 1_555
O14_4 C2_7 1_555 1_555
O3_6 C3_6 1_555 1_555
O16_3 C3_6 1_555 1_555
O6_7 Gd1_6 1_555 1_555
O7_6 Gd1_6 1_555 1_555
N1_7 Gd4_2 1_555 1_555
H1_7 N1_7 1_555 1_555
O18_4 C7_6 1_555 1_555
O9_6 Gd1_6 1_555 1_555
N2_6 Gd1_6 1_555 1_555
C1_7 N1_7 1_555 1_555
H3_7 C1_7 1_555 1_555
H4_7 C1_7 1_555 1_555
C2_7 O15_6 1_555 1_555
C3_6 C5_6 1_555 1_555
O10_6 Gd1_6 1_555 1_555
C4_7 O6_7 1_555 1_555
N3_6 Gd1_6 1_555 1_555
H5_6 N3_6 1_555 1_555
C5_6 N2_6 1_555 1_555
H6_6 C5_6 1_555 1_555
C6_7 N1_7 1_555 1_555
H8_7 C6_7 1_555 1_555
H9_7 C6_7 1_555 1_555
C7_6 O9_6 1_555 1_555
C8_6 N3_6 1_555 1_555
H10_6 C8_6 1_555 1_555
H11_6 C8_6 1_555 1_555
O12_6 C11_6 1_555 1_555
C10_6 O7_6 1_555 1_555
C11_6 O10_6 1_555 1_555
C12_6 N3_6 1_555 1_555
H14_6 C12_6 1_555 1_555
H15_6 C12_6 1_555 1_555
Gd3_6 O1_7 1_555 1_555
O13_6 Gd1_6 1_555 1_555
O17_6 Gd1_6 1_555 1_555
Gd4_2 O6_7 1_555 1_555
Gd4_2 O9_6 1_555 1_555
O7_6 Gd3_6 1_555 1_555
C1_7 C4_7 1_555 1_555
C2_7 C6_7 1_555 1_555
C7_6 C8_6 1_555 1_555
C11_6 C12_6 1_555 1_555
Gd3_6 O17_6 1_555 1_555
O18_2 C7_7 1_555 1_555
O9_7 Gd1_7 1_555 1_555
N2_7 Gd1_7 1_555 1_555
H2_6 N2_7 1_555 1_555
C3_7 C5_7 1_555 1_555
O10_7 Gd1_7 1_555 1_555
N3_7 Gd1_7 1_555 1_555
H5_7 N3_7 1_555 1_555
C5_7 N2_7 1_555 1_555
H6_7 C5_7 1_555 1_555
H7_6 C5_7 1_555 1_555
C7_7 O9_7 1_555 1_555
C8_7 N3_7 1_555 1_555
H10_7 C8_7 1_555 1_555
H11_7 C8_7 1_555 1_555
O12_7 C11_7 1_555 1_555
C11_7 O10_7 1_555 1_555
C12_7 N3_7 1_555 1_555
H14_7 C12_7 1_555 1_555
H15_7 C12_7 1_555 1_555
O13_7 Gd1_7 1_555 1_555
O17_7 Gd1_7 1_555 1_555
C7_7 C8_7 1_555 1_555
C11_7 C12_7 1_555 1_555
Gd4 O3_7 1_555 1_555
O1_8 C4_8 1_555 1_555
N1_8 Gd4 1_555 1_555
H1_8 N1_8 1_555 1_555
C1_8 N1_8 1_555 1_555
H3_8 C1_8 1_555 1_555
H4_8 C1_8 1_555 1_555
C2_8 O15_4 1_555 1_555
C4_8 O6_8 1_555 1_555
O11_6 C10_7 1_555 1_555
C6_8 N1_8 1_555 1_555
H8_8 C6_8 1_555 1_555
H9_8 C6_8 1_555 1_555
H12_6 C9_6 1_555 1_555
H13_6 C9_6 1_555 1_555
C10_7 O7_7 1_555 1_555
Gd3_7 O1_8 1_555 1_555
Gd4 O6_8 1_555 1_555
O7_7 Gd3_7 1_555 1_555
C1_8 C4_8 1_555 1_555
C2_8 C6_8 1_555 1_555
C9_6 C10_7 1_555 1_555
H12_7 C9_7 1_555 1_555
H13_7 C9_7 1_555 1_555
C10_8 O7_8 1_555 1_555
C9_7 C10_8 1_555 1_555
O18 C7_8 1_555 1_555
H5_8 N3_8 1_555 1_555
C7_8 O9_8 1_555 1_555
C8_8 N3_8 1_555 1_555
H10_8 C8_8 1_555 1_555
H11_8 C8_8 1_555 1_555
C12_8 N3_8 1_555 1_555
H14_8 C12_8 1_555 1_555
C7_8 C8_8 1_555 1_555
Gd3_5 O3_9 1_555 1_555
Gd2_5 O3_9 1_555 1_555
O13_5 C4_9 1_555 1_555
O2_5 C2_9 1_555 1_555
O3_9 C3_8 1_555 1_555
O4_5 Gd2_5 1_555 1_555
O5_5 C3_8 1_555 1_555
O6_9 Gd3_5 1_555 1_555
N1_9 Gd2_5 1_555 1_555
H1_9 N1_9 1_555 1_555
O8_5 C7_9 1_555 1_555
O9_9 Gd3_5 1_555 1_555
N2_8 Gd3_5 1_555 1_555
C1_9 N1_9 1_555 1_555
H3_9 C1_9 1_555 1_555
H4_9 C1_9 1_555 1_555
C2_9 O4_5 1_555 1_555
C3_8 C5_8 1_555 1_555
O10_8 Gd3_5 1_555 1_555
C4_9 O6_9 1_555 1_555
N3_9 Gd3_5 1_555 1_555
H5_9 N3_9 1_555 1_555
C5_8 N2_8 1_555 1_555
H6_8 C5_8 1_555 1_555
C6_9 N1_9 1_555 1_555
H8_9 C6_9 1_555 1_555
H9_9 C6_9 1_555 1_555
C7_9 O9_9 1_555 1_555
C8_9 N3_9 1_555 1_555
H10_9 C8_9 1_555 1_555
H11_9 C8_9 1_555 1_555
O12_8 C11_8 1_555 1_555
C10_9 O17_5 1_555 1_555
C11_8 O10_8 1_555 1_555
C12_9 N3_9 1_555 1_555
H14_9 C12_9 1_555 1_555
H15_8 C12_9 1_555 1_555
Gd4_3 O2_5 1_555 1_555
O14_5 Gd2_5 1_555 1_555
O15_7 Gd2_5 1_555 1_555
O16_5 Gd2_5 1_555 1_555
O18_5 Gd2_5 1_555 1_555
Gd2_5 O6_9 1_555 1_555
Gd2_5 O9_9 1_555 1_555
O4_5 Gd4_3 1_555 1_555
O8_5 Gd4_3 1_555 1_555
C1_9 C4_9 1_555 1_555
C2_9 C6_9 1_555 1_555
C7_9 C8_9 1_555 1_555
C11_8 C12_9 1_555 1_555
Gd4_3 O15_8 1_555 1_555
Gd3_6 O3_10 1_555 1_555
Gd2_6 O3_10 1_555 1_555
O13_6 C4_10 1_555 1_555
O3_10 C3_9 1_555 1_555
O5_6 C3_9 1_555 1_555
O6_10 Gd3_6 1_555 1_555
O9_10 Gd3_6 1_555 1_555
N2_9 Gd3_6 1_555 1_555
H2_7 N2_9 1_555 1_555
C3_9 C5_9 1_555 1_555
O10_9 Gd3_6 1_555 1_555
C4_10 O6_10 1_555 1_555
N3_10 Gd3_6 1_555 1_555
H5_10 N3_10 1_555 1_555
C5_9 N2_9 1_555 1_555
H6_9 C5_9 1_555 1_555
H7_7 C5_9 1_555 1_555
O11_7 C10_10 1_555 1_555
C7_10 O9_10 1_555 1_555
C8_10 N3_10 1_555 1_555
H11_10 C8_10 1_555 1_555
C9_8 N2_9 1_555 1_555
H12_8 C9_8 1_555 1_555
H13_8 C9_8 1_555 1_555
O12_9 C11_9 1_555 1_555
C10_10 O17_6 1_555 1_555
C11_9 O10_9 1_555 1_555
C12_10 N3_10 1_555 1_555
H14_10 C12_10 1_555 1_555
H15_9 C12_10 1_555 1_555
O14_6 Gd2_6 1_555 1_555
O15_9 Gd2_6 1_555 1_555
O16_6 Gd2_6 1_555 1_555
O18_6 Gd2_6 1_555 1_555
Gd2_6 O6_10 1_555 1_555
Gd2_6 O9_10 1_555 1_555
C7_10 C8_10 1_555 1_555
C9_8 C10_10 1_555 1_555
C11_9 C12_10 1_555 1_555
O13_3 C4_11 1_555 1_555
O2_6 C2_10 1_555 1_555
O4_6 Gd2_7 1_555 1_555
N1_10 Gd2_7 1_555 1_555
H1_10 N1_10 1_555 1_555
O8_6 C7_11 1_555 1_555
C1_10 N1_10 1_555 1_555
H3_10 C1_10 1_555 1_555
H4_11 C1_10 1_555 1_555
C2_10 O4_6 1_555 1_555
C4_11 O6_11 1_555 1_555
H5_11 N3_11 1_555 1_555
C6_10 N1_10 1_555 1_555
H8_10 C6_10 1_555 1_555
H9_10 C6_10 1_555 1_555
C7_11 O9_11 1_555 1_555
C8_11 N3_11 1_555 1_555
H10_10 C8_11 1_555 1_555
H11_11 C8_11 1_555 1_555
C12_11 N3_11 1_555 1_555
H14_11 C12_11 1_555 1_555
Gd4_4 O2_6 1_555 1_555
O14_7 Gd2_7 1_555 1_555
O15_10 Gd2_7 1_555 1_555
O16_7 Gd2_7 1_555 1_555
O18_7 Gd2_7 1_555 1_555
Gd2_7 O6_11 1_555 1_555
Gd2_7 O9_11 1_555 1_555
O4_6 Gd4_4 1_555 1_555
O8_6 Gd4_4 1_555 1_555
C1_10 C4_11 1_555 1_555
C2_10 C6_10 1_555 1_555
C7_11 C8_11 1_555 1_555
Gd3_3 O3_11 1_555 1_555
O3_11 C3_10 1_555 1_555
O5_7 C3_10 1_555 1_555
N2_10 Gd3_3 1_555 1_555
H2_8 N2_10 1_555 1_555
C3_10 C5_10 1_555 1_555
O10_10 Gd3_3 1_555 1_555
C5_10 N2_10 1_555 1_555
H6_10 C5_10 1_555 1_555
H7_8 C5_10 1_555 1_555
C9_9 N2_10 1_555 1_555
H12_9 C9_9 1_555 1_555
H13_9 C9_9 1_555 1_555
O12_10 C11_10 1_555 1_555
C10_11 O17_3 1_555 1_555
C11_10 O10_10 1_555 1_555
Gd5_3 O5_7 1_555 1_555
C9_9 C10_11 1_555 1_555
Gd3_4 O3_12 1_555 1_555
Gd2_8 O3_12 1_555 1_555
O13_4 C4_12 1_555 1_555
O2_7 C2_11 1_555 1_555
O3_12 C3_11 1_555 1_555
O4_7 Gd2_8 1_555 1_555
O5_8 C3_11 1_555 1_555
O6_12 Gd3_4 1_555 1_555
N1_11 Gd2_8 1_555 1_555
H1_11 N1_11 1_555 1_555
O8_7 C7_12 1_555 1_555
O9_12 Gd3_4 1_555 1_555
N2_11 Gd3_4 1_555 1_555
H2_9 N2_11 1_555 1_555
C1_11 N1_11 1_555 1_555
H3_11 C1_11 1_555 1_555
H4_12 C1_11 1_555 1_555
C2_11 O4_7 1_555 1_555
C3_11 C5_11 1_555 1_555
O10_11 Gd3_4 1_555 1_555
C4_12 O6_12 1_555 1_555
N3_12 Gd3_4 1_555 1_555
H5_12 N3_12 1_555 1_555
C5_11 N2_11 1_555 1_555
H6_11 C5_11 1_555 1_555
H7_9 C5_11 1_555 1_555
O11_9 C10_12 1_555 1_555
C6_11 N1_11 1_555 1_555
H8_11 C6_11 1_555 1_555
H9_11 C6_11 1_555 1_555
C7_12 O9_12 1_555 1_555
C8_12 N3_12 1_555 1_555
H10_11 C8_12 1_555 1_555
H11_12 C8_12 1_555 1_555
C9_10 N2_11 1_555 1_555
H12_10 C9_10 1_555 1_555
H13_10 C9_10 1_555 1_555
O12_11 C11_11 1_555 1_555
C10_12 O17_4 1_555 1_555
C11_11 O10_11 1_555 1_555
C12_12 N3_12 1_555 1_555
H14_12 C12_12 1_555 1_555
H15_11 C12_12 1_555 1_555
Gd5_3 O2_7 1_555 1_555
Gd4_4 O5_8 1_555 1_555
O14_8 Gd2_8 1_555 1_555
O15_11 Gd2_8 1_555 1_555
O16_8 Gd2_8 1_555 1_555
O18_8 Gd2_8 1_555 1_555
Gd2_8 O6_12 1_555 1_555
Gd2_8 O9_12 1_555 1_555
O4_7 Gd5_3 1_555 1_555
O8_7 Gd5_3 1_555 1_555
C1_11 C4_12 1_555 1_555
C2_11 C6_11 1_555 1_555
C7_12 C8_12 1_555 1_555
C9_10 C10_12 1_555 1_555
C11_11 C12_12 1_555 1_555
Gd4_4 O15_11 1_555 1_555
O14_7 C2_12 1_555 1_555
H1_12 N1_12 1_555 1_555
C1_12 N1_12 1_555 1_555
H3_12 C1_12 1_555 1_555
C2_12 O15_10 1_555 1_555
C6_12 N1_12 1_555 1_555
H8_12 C6_12 1_555 1_555
H9_12 C6_12 1_555 1_555
C2_12 C6_12 1_555 1_555
Gd3 O3_13 1_555 1_555
Gd5_3 O3_13 1_555 1_555
O13 C4_13 1_555 1_555
O3_13 C3_12 1_555 1_555
O16_8 C3_12 1_555 1_555
O6_13 Gd3 1_555 1_555
O9_13 Gd3 1_555 1_555
N2_12 Gd3 1_555 1_555
H2_10 N2_12 1_555 1_555
C3_12 C5_12 1_555 1_555
O10_12 Gd3 1_555 1_555
C4_13 O6_13 1_555 1_555
N3_13 Gd3 1_555 1_555
H5_13 N3_13 1_555 1_555
C5_12 N2_12 1_555 1_555
H6_12 C5_12 1_555 1_555
H7_10 C5_12 1_555 1_555
O11_10 C10_13 1_555 1_555
C7_13 O9_13 1_555 1_555
C8_13 N3_13 1_555 1_555
H11_13 C8_13 1_555 1_555
C9_11 N2_12 1_555 1_555
H12_11 C9_11 1_555 1_555
H13_11 C9_11 1_555 1_555
O12_12 C11_12 1_555 1_555
C10_13 O17 1_555 1_555
C11_12 O10_12 1_555 1_555
C12_13 N3_13 1_555 1_555
H14_13 C12_13 1_555 1_555
H15_12 C12_13 1_555 1_555
Gd5_3 O6_13 1_555 1_555
Gd5_3 O9_13 1_555 1_555
C7_13 C8_13 1_555 1_555
C9_11 C10_13 1_555 1_555
C11_12 C12_13 1_555 1_555
Gd3_2 O3_14 1_555 1_555
Gd4_4 O3_14 1_555 1_555
O13_2 C4_14 1_555 1_555
O14_8 C2_13 1_555 1_555
O3_14 C3_13 1_555 1_555
O16_7 C3_13 1_555 1_555
O6_14 Gd3_2 1_555 1_555
N1_13 Gd4_4 1_555 1_555
H1_13 N1_13 1_555 1_555
O18_8 C7_14 1_555 1_555
O9_14 Gd3_2 1_555 1_555
N2_13 Gd3_2 1_555 1_555
C1_13 N1_13 1_555 1_555
H3_13 C1_13 1_555 1_555
H4_14 C1_13 1_555 1_555
C2_13 O15_11 1_555 1_555
C3_13 C5_13 1_555 1_555
O10_13 Gd3_2 1_555 1_555
C4_14 O6_14 1_555 1_555
N3_14 Gd3_2 1_555 1_555
H5_14 N3_14 1_555 1_555
C5_13 N2_13 1_555 1_555
H6_13 C5_13 1_555 1_555
C6_13 N1_13 1_555 1_555
H8_13 C6_13 1_555 1_555
H9_13 C6_13 1_555 1_555
C7_14 O9_14 1_555 1_555
C8_14 N3_14 1_555 1_555
H10_13 C8_14 1_555 1_555
H11_14 C8_14 1_555 1_555
O12_13 C11_13 1_555 1_555
C10_14 O17_2 1_555 1_555
C11_13 O10_13 1_555 1_555
C12_14 N3_14 1_555 1_555
H14_14 C12_14 1_555 1_555
H15_13 C12_14 1_555 1_555
Gd4_4 O6_14 1_555 1_555
Gd4_4 O9_14 1_555 1_555
C1_13 C4_14 1_555 1_555
C2_13 C6_13 1_555 1_555
C7_14 C8_14 1_555 1_555
C11_13 C12_14 1_555 1_555
Gd4_3 O3_15 1_555 1_555
O13_7 C4_15 1_555 1_555
N1_14 Gd4_3 1_555 1_555
H1_14 N1_14 1_555 1_555
C1_14 N1_14 1_555 1_555
H3_14 C1_14 1_555 1_555
H4_15 C1_14 1_555 1_555
C2_14 O15_8 1_555 1_555
C4_15 O6_15 1_555 1_555
O11_11 C10_15 1_555 1_555
C6_14 N1_14 1_555 1_555
H8_14 C6_14 1_555 1_555
H9_14 C6_14 1_555 1_555
H12_12 C9_12 1_555 1_555
H13_12 C9_12 1_555 1_555
C10_15 O17_7 1_555 1_555
Gd4_3 O6_15 1_555 1_555
C1_14 C4_15 1_555 1_555
C2_14 C6_14 1_555 1_555
C9_12 C10_15 1_555 1_555
O18_6 C7_15 1_555 1_555
O9_15 Gd3_7 1_555 1_555
N2_14 Gd3_7 1_555 1_555
H2_11 N2_14 1_555 1_555
C3_14 C5_14 1_555 1_555
O10_14 Gd3_7 1_555 1_555
N3_15 Gd3_7 1_555 1_555
H5_15 N3_15 1_555 1_555
C5_14 N2_14 1_555 1_555
H6_14 C5_14 1_555 1_555
H7_11 C5_14 1_555 1_555
C7_15 O9_15 1_555 1_555
C8_15 N3_15 1_555 1_555
H10_14 C8_15 1_555 1_555
H11_15 C8_15 1_555 1_555
O12_14 C11_14 1_555 1_555
C11_14 O10_14 1_555 1_555
C12_15 N3_15 1_555 1_555
H14_15 C12_15 1_555 1_555
H15_14 C12_15 1_555 1_555
C7_15 C8_15 1_555 1_555
C11_14 C12_15 1_555 1_555
O18_5 C7_16 1_555 1_555
H5_16 N3_16 1_555 1_555
C7_16 O9_16 1_555 1_555
C8_16 N3_16 1_555 1_555
H10_15 C8_16 1_555 1_555
H11_16 C8_16 1_555 1_555
C12_16 N3_16 1_555 1_555
H14_16 C12_16 1_555 1_555
C7_16 C8_16 1_555 1_555
H12_13 C9_13 1_555 1_555
H13_13 C9_13 1_555 1_555
C10_16 O17_8 1_555 1_555
C9_13 C10_16 1_555 1_555
H12_14 C9_14 1_555 1_555
H13_14 C9_14 1_555 1_555
N2_15 Gd1_8 1_555 1_555
H2_13 N2_15 1_555 1_555
C3_15 C5_15 1_555 1_555
O10_15 Gd1_8 1_555 1_555
C5_15 N2_15 1_555 1_555
H6_15 C5_15 1_555 1_555
H7_13 C5_15 1_555 1_555
O12_15 C11_15 1_555 1_555
C11_15 O10_15 1_555 1_555
N2_16 Gd3_8 1_555 1_555
H2_14 N2_16 1_555 1_555
C3_16 C5_16 1_555 1_555
O10_16 Gd3_8 1_555 1_555
C5_16 N2_16 1_555 1_555
H6_16 C5_16 1_555 1_555
H7_14 C5_16 1_555 1_555
O12_16 C11_16 1_555 1_555
C11_16 O10_16 1_555 1_555
Gd5_4 O15_12 1_555 1_555
O2_8 C2_15 1_555 1_555
H1_15 N1_15 1_555 1_555
C1_15 N1_15 1_555 1_555
H3_15 C1_15 1_555 1_555
C2_15 O4_8 1_555 1_555
C6_15 N1_15 1_555 1_555
H8_15 C6_15 1_555 1_555
H9_15 C6_15 1_555 1_555
Gd5_4 O2_8 1_555 1_555
O4_8 Gd5_4 1_555 1_555
O8_8 Gd5_4 1_555 1_555
C2_15 C6_15 1_555 1_555
O13_8 C4_16 1_555 1_555
N1_16 Gd5_4 1_555 1_555
H1_16 N1_16 1_555 1_555
C1_16 N1_16 1_555 1_555
H3_16 C1_16 1_555 1_555
H4_16 C1_16 1_555 1_555
C2_16 O15_12 1_555 1_555
C4_16 O6_16 1_555 1_555
C6_16 N1_16 1_555 1_555
H8_16 C6_16 1_555 1_555
H9_16 C6_16 1_555 1_555
Gd5_4 O6_16 1_555 1_555
C1_16 C4_16 1_555 1_555
C2_16 C6_16 1_555 1_555
H12_15 C9_15 1_555 1_555
H13_15 C9_15 1_555 1_555
H12_16 C9_16 1_555 1_555
H13_16 C9_16 1_555 1_555

#END
