
###############################################################################
#
# This file contains modified crystal structure data generated from the
# MOF subset of the Cambridge Structural Database (CSD) v543 
# hosted by the Cambridge Crystallographic Data Centre (CCDC).
#
# This work is licensed under the Creative Commons
# Attribution-NonCommercial-ShareAlike 4.0 International License.
# To view a copy of this license, visit
# http://creativecommons.org/licenses/by-nc-sa/4.0/
# or send a letter to
# Creative Commons, PO Box 1866, Mountain View, CA 94042, USA.
#
# CIF created using the CSD Python API on 29 September 2022
# The structure has been converted into the P1 space group
# The structure has a 3D framework
# The original CSD entry TITBUV is in the monoclinic crystal system
# The original CSD entry TITBUV is in a Sohncke space group
# The framework has been calculated to contain at least 10.0% void space
# The void calculation uses a probe of radius 1.32A, grid spacing 0.4
# The framework is charged, counterions have been retained in the structure
#
###############################################################################

data_TITBUV
_chemical_formula_moiety         '(C56 H24 N24 O16 Zn5 4-)n'
_symmetry_cell_setting           triclinic
_symmetry_space_group_name_H-M   'P 1'
_symmetry_Int_Tables_number      1
_space_group_name_Hall           'P 1'
loop_
_symmetry_equiv_pos_site_id
_symmetry_equiv_pos_as_xyz
1 x,y,z
_cell_length_a                   10.1264(10)
_cell_length_b                   15.0101(8)
_cell_length_c                   17.4862(18)
_cell_angle_alpha                90
_cell_angle_beta                 106.359(6)
_cell_angle_gamma                90
_cell_volume                     2550.27
loop_
_atom_site_label
_atom_site_type_symbol
_atom_site_fract_x
_atom_site_fract_y
_atom_site_fract_z
Zn2 Zn 0.41104(7) 0.23888(5) 0.16927(4)
Zn3 Zn 0.22740(7) 0.58213(5) 0.54309(4)
O1 O 0.4218(6) 0.3519(4) 0.1132(3)
N2 N 0.1530(6) 0.1547(4) 0.1766(4)
N4 N 0.0143(6) 0.1524(4) 0.1384(3)
O5 O 0.3205(6) 0.4807(4) 0.5123(3)
N5 N 0.2022(6) 0.2188(4) 0.1347(3)
N8 N 0.5775(6) 0.1635(4) 0.3149(3)
N9 N 0.6140(6) 0.1621(4) 0.3928(3)
N10 N 0.4793(6) 0.2265(4) 0.2853(3)
O6 O 0.6530(6) 0.3491(5) 0.1442(4)
C5 C 0.5385(8) 0.3804(5) 0.1077(4)
C6 C 0.1029(7) 0.2592(5) 0.0813(4)
C8 C 0.4553(6) 0.2671(4) 0.3521(4)
H4 H 0.3261 0.4530 0.0023
C15 C 0.1046(7) 0.3261(5) 0.0243(4)
H5 H 0.1860 0.3520 0.0206
C16 C 0.5327(7) 0.4508(6) 0.0457(4)
C18 C 0.6568(8) 0.4847(6) 0.0324(5)
H7 H 0.7401 0.4589 0.0599
C20 C 0.3672(7) 0.3356(5) 0.3609(4)
H8 H 0.3052 0.3604 0.3164
C21 C 0.2851(8) 0.4391(5) 0.4493(5)
C22 C 0.3728(8) 0.3650(5) 0.4333(5)
C23 C 0.5444(7) 0.2270(5) 0.4184(4)
C26 C 0.4636(9) 0.3267(6) 0.5017(5)
H10 H 0.4671 0.3497 0.5516
C27 C 0.5494(8) 0.2544(6) 0.4964(5)
H11 H 0.6057 0.2266 0.5413
O8 O 0.1795(9) 0.4552(6) 0.3931(4)
Zn8 Zn 0.77260(7) 0.08213(5) 0.45691(4)
O9 O 0.1346(6) 0.6621(3) 0.4567(3)
N14 N 0.5095(6) 0.1459(5) 0.1237(3)
N15 N 0.3860(6) 0.6621(4) 0.6072(3)
N16 N 0.1217(6) 0.5295(4) 0.6138(3)
Zn1 Zn 0.09807(7) 0.55096(5) 0.84164(4)
N1 N 0.3553(6) 0.6435(4) 0.8469(4)
O2 O 0.0893(6) 0.4520(4) 0.9087(3)
N3 N 0.2998(5) 0.5824(4) 0.8860(3)
N6 N 0.4905(6) 0.6459(5) 0.8763(3)
N7 N 0.0723(6) 0.5186(4) 0.7281(3)
C1 C 0.4061(6) 0.5431(5) 0.9417(4)
C2 C 0.5291(7) 0.5822(6) 0.9345(4)
N11 N 0.1299(5) 0.5710(4) 0.6828(3)
C9 C 0.6581(8) 0.5500(7) 0.9834(5)
H2 H 0.7406 0.5750 0.9805
C10 C 0.0266(7) 0.3792(5) 0.5581(4)
H3 H 0.0449 0.3837 0.5090
C14 C 0.4075(7) 0.4779(5) 0.9975(4)
C19 C 0.0640(7) 0.4482(4) 0.6151(4)
C24 C 0.0265(7) 0.4430(5) 0.6853(4)
Zn5 Zn 0.58896(7) 0.73888(5) 0.83073(4)
C4 C 0.8533(7) 0.2431(7) 0.0300(6)
H1 H 0.7713 0.2160 0.0313
C11 C 0.9808(7) 0.2172(5) 0.0845(4)
Zn4 Zn 0.90193(7) 0.05096(5) 0.15836(4)
O3 O 0.8654(6) 0.1621(3) 0.5433(3)
O4 O 0.9322(6) 0.2368(4) 0.4510(3)
C3 C 0.9751(8) 0.4195(5) 0.9113(5)
O7 O 0.8656(6) 0.4455(5) 0.8667(3)
C7 C 0.9783(8) 0.3504(5) 0.9747(4)
C12 C 0.9621(8) 0.3049(5) 0.5775(4)
C13 C 0.9185(7) 0.2314(5) 0.5169(4)
C17 C 0.8544(8) 0.3065(6) 0.9776(4)
H6 H 0.7717 0.3232 0.9414
C25 C 0.9649(9) 0.3661(6) 0.7072(5)
H9 H 0.9500 0.3606 0.7571
C28 C 0.9284(8) 0.3000(6) 0.6511(4)
H12 H 0.8804 0.2507 0.6614
N13 N 0.9857(6) 0.6524(4) 0.8616(3)
O4_2 O 0.0678(6) 0.7368(4) 0.5490(3)
C3_2 C 0.0249(8) 0.9195(5) 0.0887(5)
O7_2 O 0.1344(6) 0.9455(5) 0.1333(3)
C7_2 C 0.0217(8) 0.8504(5) 0.0253(4)
C12_2 C 0.0379(8) 0.8049(5) 0.4225(4)
C13_2 C 0.0815(7) 0.7314(5) 0.4831(4)
C17_2 C 0.1456(8) 0.8065(6) 0.0224(4)
H6_2 H 0.2283 0.8232 0.0586
C25_2 C 0.0351(9) 0.8661(6) 0.2928(5)
H9_2 H 0.0500 0.8606 0.2429
C28_2 C 0.0716(8) 0.8000(6) 0.3489(4)
H12_2 H 0.1196 0.7507 0.3386
C4_2 C 0.1467(7) 0.7431(7) 0.9700(6)
H1_2 H 0.2287 0.7160 0.9687
C11_2 C 0.0192(7) 0.7172(5) 0.9155(4)
N1_2 N 0.6447(6) 0.1435(4) 0.1531(4)
N3_2 N 0.7002(5) 0.0824(4) 0.1140(3)
N7_2 N 0.9277(6) 0.0186(4) 0.2719(3)
C1_2 C 0.5939(6) 0.0431(5) 0.0583(4)
C2_2 C 0.4709(7) 0.0822(6) 0.0655(4)
N11_2 N 0.8701(5) 0.0710(4) 0.3172(3)
C9_2 C 0.3419(8) 0.0500(7) 0.0166(5)
H2_2 H 0.2594 0.0750 0.0195
N12 N 0.8783(6) 0.0295(4) 0.3862(3)
O1_2 O 0.5782(6) 0.8519(4) 0.8868(3)
N2_2 N 0.8470(6) 0.6547(4) 0.8234(4)
O5_2 O 0.6795(6) 0.9807(4) 0.4877(3)
N5_2 N 0.7978(6) 0.7188(4) 0.8653(3)
N8_2 N 0.4225(6) 0.6635(4) 0.6851(3)
N10_2 N 0.5207(6) 0.7265(4) 0.7147(3)
O6_2 O 0.3470(6) 0.8491(5) 0.8558(4)
C5_2 C 0.4615(8) 0.8804(5) 0.8923(4)
C6_2 C 0.8971(7) 0.7592(5) 0.9187(4)
C8_2 C 0.5447(6) 0.7671(4) 0.6479(4)
H4_2 H 0.6739 0.9530 0.9977
C15_2 C 0.8954(7) 0.8261(5) 0.9757(4)
H5_2 H 0.8140 0.8520 0.9794
C16_2 C 0.4673(7) 0.9508(6) 0.9543(4)
C18_2 C 0.3432(8) 0.9847(6) 0.9676(5)
H7_2 H 0.2599 0.9589 0.9401
C20_2 C 0.6328(7) 0.8356(5) 0.6391(4)
H8_2 H 0.6948 0.8604 0.6836
C21_2 C 0.7149(8) 0.9391(5) 0.5507(5)
C22_2 C 0.6272(8) 0.8650(5) 0.5667(5)
C23_2 C 0.4556(7) 0.7270(5) 0.5816(4)
C26_2 C 0.5364(9) 0.8267(6) 0.4983(5)
H10_2 H 0.5329 0.8497 0.4484
C27_2 C 0.4506(8) 0.7544(6) 0.5036(5)
H11_2 H 0.3943 0.7266 0.4587
O8_2 O 0.8205(9) 0.9552(6) 0.6069(4)
O2_2 O 0.9107(6) 0.9520(4) 0.0913(3)
C10_2 C 0.9734(7) 0.8792(5) 0.4419(4)
H3_2 H 0.9551 0.8837 0.4910
C14_2 C 0.5925(7) 0.9779(5) 0.0025(4)
C19_2 C 0.9360(7) 0.9482(4) 0.3849(4)
C24_2 C 0.9735(7) 0.9430(5) 0.3147(4)
loop_
_geom_bond_atom_site_label_1
_geom_bond_atom_site_label_2
_geom_bond_site_symmetry_1
_geom_bond_site_symmetry_2
Zn2 O1 1_555 1_555
Zn3 O5 1_555 1_555
O1 C5 1_555 1_555
N2 N4 1_555 1_555
O5 C21 1_555 1_555
N5 Zn2 1_555 1_555
N8 N9 1_555 1_555
N9 C23 1_555 1_555
N10 Zn2 1_555 1_555
O6 C5 1_555 1_555
C5 C16 1_555 1_555
C6 N5 1_555 1_555
C8 N10 1_555 1_555
C15 C6 1_555 1_555
H5 C15 1_555 1_555
H7 C18 1_555 1_555
C20 C8 1_555 1_555
H8 C20 1_555 1_555
C21 C22 1_555 1_555
C22 C20 1_555 1_555
C23 C8 1_555 1_555
C26 C22 1_555 1_555
H10 C26 1_555 1_555
C27 C23 1_555 1_555
H11 C27 1_555 1_555
O8 C21 1_555 1_555
Zn8 N9 1_555 1_555
O9 Zn3 1_555 1_555
N14 Zn2 1_555 1_555
N15 Zn3 1_555 1_555
N16 Zn3 1_555 1_555
N2 N5 1_555 1_555
N8 N10 1_555 1_555
C16 C18 1_555 1_555
C26 C27 1_555 1_555
Zn1 O2 1_555 1_555
N1 N3 1_555 1_555
N3 Zn1 1_555 1_555
N6 N1 1_555 1_555
N7 Zn1 1_555 1_555
C1 N3 1_555 1_555
C2 N6 1_555 1_555
N11 N7 1_555 1_555
C9 C2 1_555 1_555
H2 C9 1_555 1_555
C10 H3 1_555 1_555
C14 C1 1_555 1_555
N16 N11 1_555 1_555
C19 C10 1_555 1_555
C24 N7 1_555 1_555
Zn5 N6 1_555 1_555
C1 C2 1_555 1_555
N16 C19 1_555 1_555
C19 C24 1_555 1_555
C4 H1 1_555 1_555
C11 C4 1_555 1_555
O3 C13 1_555 1_555
O4 C13 1_555 1_555
C3 O7 1_555 1_555
C7 C3 1_555 1_555
C13 C12 1_555 1_555
H6 C17 1_555 1_555
H9 C25 1_555 1_555
C28 C12 1_555 1_555
H12 C28 1_555 1_555
Zn8 O3 1_555 1_555
C7 C17 1_555 1_555
C25 C28 1_555 1_555
O9 C13_2 1_555 1_555
O4_2 C13_2 1_555 1_555
C3_2 O7_2 1_555 1_555
C7_2 C3_2 1_555 1_555
C13_2 C12_2 1_555 1_555
H6_2 C17_2 1_555 1_555
H9_2 C25_2 1_555 1_555
C28_2 C12_2 1_555 1_555
H12_2 C28_2 1_555 1_555
C7_2 C17_2 1_555 1_555
C25_2 C28_2 1_555 1_555
C4_2 H1_2 1_555 1_555
C11_2 C4_2 1_555 1_555
N1_2 N3_2 1_555 1_555
N3_2 Zn4 1_555 1_555
N14 N1_2 1_555 1_555
N7_2 Zn4 1_555 1_555
C1_2 N3_2 1_555 1_555
C2_2 N14 1_555 1_555
N11_2 N7_2 1_555 1_555
C9_2 C2_2 1_555 1_555
H2_2 C9_2 1_555 1_555
N12 N11_2 1_555 1_555
Zn8 N12 1_555 1_555
C1_2 C2_2 1_555 1_555
Zn5 O1_2 1_555 1_555
O1_2 C5_2 1_555 1_555
N2_2 N13 1_555 1_555
O5_2 C21_2 1_555 1_555
N5_2 Zn5 1_555 1_555
N8_2 N15 1_555 1_555
N15 C23_2 1_555 1_555
N10_2 Zn5 1_555 1_555
O6_2 C5_2 1_555 1_555
C5_2 C16_2 1_555 1_555
C6_2 N5_2 1_555 1_555
C8_2 N10_2 1_555 1_555
C15_2 C6_2 1_555 1_555
H5_2 C15_2 1_555 1_555
H7_2 C18_2 1_555 1_555
C20_2 C8_2 1_555 1_555
H8_2 C20_2 1_555 1_555
C21_2 C22_2 1_555 1_555
C22_2 C20_2 1_555 1_555
C23_2 C8_2 1_555 1_555
C26_2 C22_2 1_555 1_555
H10_2 C26_2 1_555 1_555
C27_2 C23_2 1_555 1_555
H11_2 C27_2 1_555 1_555
O8_2 C21_2 1_555 1_555
N2_2 N5_2 1_555 1_555
N8_2 N10_2 1_555 1_555
C16_2 C18_2 1_555 1_555
C26_2 C27_2 1_555 1_555
C10_2 H3_2 1_555 1_555
C19_2 C10_2 1_555 1_555
C19_2 C24_2 1_555 1_555

#END
