
###############################################################################
#
# This file contains modified crystal structure data generated from the
# MOF subset of the Cambridge Structural Database (CSD) v543 
# hosted by the Cambridge Crystallographic Data Centre (CCDC).
#
# This work is licensed under the Creative Commons
# Attribution-NonCommercial-ShareAlike 4.0 International License.
# To view a copy of this license, visit
# http://creativecommons.org/licenses/by-nc-sa/4.0/
# or send a letter to
# Creative Commons, PO Box 1866, Mountain View, CA 94042, USA.
#
# CIF created using the CSD Python API on 29 September 2022
# The structure has been converted into the P1 space group
# The structure has a 3D framework
# The original CSD entry TITBOP is in the tetragonal crystal system
# The framework has been calculated to contain at least 10.0% void space
# The void calculation uses a probe of radius 1.32A, grid spacing 0.4
#
###############################################################################

data_TITBOP
_chemical_formula_moiety         '(C224 H176 N64 O24 Zn16)n'
_symmetry_cell_setting           triclinic
_symmetry_space_group_name_H-M   'P 1'
_symmetry_Int_Tables_number      1
_space_group_name_Hall           'P 1'
loop_
_symmetry_equiv_pos_site_id
_symmetry_equiv_pos_as_xyz
1 x,y,z
_cell_length_a                   18.1524(7)
_cell_length_b                   18.1524(7)
_cell_length_c                   27.5897(16)
_cell_angle_alpha                90
_cell_angle_beta                 90
_cell_angle_gamma                90
_cell_volume                     9091.07
loop_
_atom_site_label
_atom_site_type_symbol
_atom_site_fract_x
_atom_site_fract_y
_atom_site_fract_z
C1 C 0.0259(5) 0.0835(5) 0.5859(3)
C2 C 0.0711(5) 0.0137(6) 0.5948(3)
O2 O 0.1101(3) 0.0110(3) 0.6316(2)
C8 C 0.0295(5) 0.1448(6) 0.6186(3)
H4 H 0.0582 0.1410 0.6464
H11 H 0.0134 0.3385 0.2621
O1 O 0.0646(3) 0.9650(3) 0.56273(19)
Zn3 Zn 0.12905(5) 0.88187(5) 0.56228(3)
Zn1 Zn 0.87095(5) 0.11813(5) 0.43772(3)
N1 N 0.8819(4) 0.2422(4) 0.5034(2)
C3 C 0.9494(5) 0.2132(5) 0.5657(3)
N2 N 0.9049(4) 0.1748(4) 0.4963(2)
N3 N 0.8758(5) 0.1878(5) 0.3818(3)
C4 C 0.9501(4) 0.1535(5) 0.5340(3)
N4 N 0.9077(4) 0.2675(4) 0.5458(2)
C5 C 0.8642(8) 0.2576(7) 0.3881(3)
H1 H 0.8434 0.2711 0.4176
C6 C 0.9867(4) 0.0884(5) 0.5439(3)
H2 H 0.9846 0.0490 0.5224
C7 C 0.9915(5) 0.2091(5) 0.6099(3)
H3 H 0.9930 0.2482 0.6316
C9 C 0.9062(8) 0.1642(7) 0.3395(4)
H5 H 0.9217 0.1156 0.3358
C10 C 0.8945(7) 0.3390(8) 0.2412(6)
H6 H 0.9057 0.3464 0.2072
H7 H 0.8768 0.2891 0.2459
C11 C 0.8791(9) 0.3142(10) 0.3561(6)
H8 H 0.8643 0.3626 0.3615
C12 C 0.9202(11) 0.2916(12) 0.3132(7)
C13 C 0.9136(8) 0.2155(10) 0.3012(6)
H9 H 0.9143 0.2000 0.2691
C14 C 0.9669(13) 0.3556(13) 0.2752(7)
H10 H 0.9702 0.4054 0.2878
N5 N 0.6878(5) 0.3758(5) 0.1182(3)
C15 C 0.7576(7) 0.3642(8) 0.1119(3)
H12 H 0.7711 0.3434 0.0824
C16 C 0.6642(7) 0.4062(8) 0.1605(4)
H13 H 0.6156 0.4217 0.1642
C17 C 0.8390(8) 0.3945(7) 0.2588(6)
H14 H 0.8464 0.4057 0.2928
H15 H 0.7891 0.3768 0.2541
C18 C 0.8142(10) 0.3791(9) 0.1439(6)
H16 H 0.8626 0.3643 0.1385
C19 C 0.7916(12) 0.4202(11) 0.1868(7)
C20 C 0.7155(10) 0.4136(8) 0.1988(6)
H17 H 0.7000 0.4143 0.2309
C21 C 0.8556(13) 0.4669(13) 0.2248(7)
H18 H 0.9054 0.4702 0.2122
H19 H 0.8385 0.5134 0.2379
Zn2 Zn 0.61813(5) 0.37095(5) 0.06228(3)
N7 N 0.6748(4) 0.4049(4) 0.0037(2)
Zn4 Zn 0.88187(5) 0.37095(5) 0.56228(3)
O5 O 0.9354(3) 0.0350(3) 0.43727(19)
O6 O 0.5350(3) 0.4354(3) 0.06273(19)
N9 N 0.7675(4) 0.0923(4) 0.4542(2)
N10 N 0.5923(4) 0.2675(4) 0.0458(2)
N6 N 0.7422(4) 0.3819(4) 0.9966(2)
C22 C 0.5835(5) 0.5259(5) 0.9141(3)
C23 C 0.5137(6) 0.5711(5) 0.9052(3)
C24 C 0.7132(5) 0.4494(5) 0.9343(3)
O3 O 0.4650(3) 0.5646(3) 0.93727(19)
C25 C 0.6535(5) 0.4501(4) 0.9660(3)
N8 N 0.7675(4) 0.4077(4) 0.9542(2)
O4 O 0.5110(3) 0.6101(3) 0.8684(2)
C26 C 0.5884(5) 0.4867(4) 0.9561(3)
H20 H 0.5490 0.4846 0.9776
C27 C 0.7091(5) 0.4915(5) 0.8901(3)
H21 H 0.7482 0.4930 0.8684
C28 C 0.6448(6) 0.5295(5) 0.8814(3)
H22 H 0.6410 0.5582 0.8536
Zn5 Zn 0.87095(5) 0.38187(5) 0.93772(3)
Zn6 Zn 0.38187(5) 0.62905(5) 0.93772(3)
O3_2 O 0.0350(3) 0.9354(3) 0.93727(19)
Zn6_2 Zn 0.11813(5) 0.87095(5) 0.93772(3)
Zn1_2 Zn 0.62905(5) 0.38187(5) 0.43772(3)
N1_2 N 0.6181(4) 0.2578(4) 0.5034(2)
C1_2 C 0.4741(5) 0.4165(5) 0.5859(3)
C2_2 C 0.4289(5) 0.4863(6) 0.5948(3)
C3_2 C 0.5506(5) 0.2868(5) 0.5657(3)
O1_2 O 0.4354(3) 0.5350(3) 0.56273(19)
N2_2 N 0.5951(4) 0.3252(4) 0.4963(2)
N3_2 N 0.6242(5) 0.3122(5) 0.3818(3)
C4_2 C 0.5499(4) 0.3465(5) 0.5340(3)
N4_2 N 0.5923(4) 0.2325(4) 0.5458(2)
O2_2 O 0.3899(3) 0.4890(3) 0.6316(2)
C5_2 C 0.6358(8) 0.2424(7) 0.3881(3)
H1_2 H 0.6566 0.2289 0.4176
C6_2 C 0.5133(4) 0.4116(5) 0.5439(3)
H2_2 H 0.5154 0.4510 0.5224
C7_2 C 0.5085(5) 0.2909(5) 0.6099(3)
H3_2 H 0.5070 0.2518 0.6316
C8_2 C 0.4705(5) 0.3552(6) 0.6186(3)
H4_2 H 0.4418 0.3590 0.6464
C9_2 C 0.5938(8) 0.3358(7) 0.3395(4)
H5_2 H 0.5783 0.3844 0.3358
C10_2 C 0.6055(7) 0.1610(8) 0.2412(6)
H6_2 H 0.5943 0.1536 0.2072
H7_2 H 0.6232 0.2109 0.2459
C11_2 C 0.6209(9) 0.1858(10) 0.3561(6)
H8_2 H 0.6357 0.1374 0.3615
C12_2 C 0.5798(11) 0.2084(12) 0.3132(7)
C13_2 C 0.5864(8) 0.2845(10) 0.3012(6)
H9_2 H 0.5857 0.3000 0.2691
C14_2 C 0.5331(13) 0.1444(13) 0.2752(7)
H10_2 H 0.5298 0.0946 0.2878
H11_2 H 0.4866 0.1615 0.2621
N5_2 N 0.8122(5) 0.1242(5) 0.1182(3)
C15_2 C 0.7424(7) 0.1358(8) 0.1119(3)
H12_2 H 0.7289 0.1566 0.0824
C16_2 C 0.8358(7) 0.0938(8) 0.1605(4)
H13_2 H 0.8844 0.0783 0.1642
C17_2 C 0.6610(8) 0.1055(7) 0.2588(6)
H14_2 H 0.6536 0.0943 0.2928
H15_2 H 0.7109 0.1232 0.2541
C18_2 C 0.6858(10) 0.1209(9) 0.1439(6)
H16_2 H 0.6374 0.1357 0.1385
C19_2 C 0.7084(12) 0.0798(11) 0.1868(7)
C20_2 C 0.7845(10) 0.0864(8) 0.1988(6)
H17_2 H 0.8000 0.0857 0.2309
C21_2 C 0.6444(13) 0.0331(13) 0.2248(7)
H18_2 H 0.5946 0.0298 0.2122
Zn2_2 Zn 0.88187(5) 0.12905(5) 0.06228(3)
N7_2 N 0.8252(4) 0.0951(4) 0.0037(2)
Zn3_2 Zn 0.37095(5) 0.61813(5) 0.56228(3)
Zn4_2 Zn 0.61813(5) 0.12905(5) 0.56228(3)
O5_2 O 0.5646(3) 0.4650(3) 0.43727(19)
O6_2 O 0.9650(3) 0.0646(3) 0.06273(19)
N9_2 N 0.7325(4) 0.4077(4) 0.4542(2)
N10_2 N 0.9077(4) 0.2325(4) 0.0458(2)
N6_2 N 0.7578(4) 0.1181(4) 0.9966(2)
C24_2 C 0.7868(5) 0.0506(5) 0.9343(3)
C25_2 C 0.8465(5) 0.0499(4) 0.9660(3)
N8_2 N 0.7325(4) 0.0923(4) 0.9542(2)
C26_2 C 0.9116(5) 0.0133(4) 0.9561(3)
H20_2 H 0.9510 0.0154 0.9776
C27_2 C 0.7909(5) 0.0085(5) 0.8901(3)
H21_2 H 0.7518 0.0070 0.8684
Zn5_2 Zn 0.62905(5) 0.11813(5) 0.93772(3)
C1_3 C 0.4165(5) 0.0259(5) 0.5859(3)
C2_3 C 0.4863(6) 0.0711(5) 0.5948(3)
O1_3 O 0.5350(3) 0.0646(3) 0.56273(19)
O2_3 O 0.4890(3) 0.1101(3) 0.6316(2)
C8_3 C 0.3552(6) 0.0295(5) 0.6186(3)
H4_3 H 0.3590 0.0582 0.6464
H11_3 H 0.1615 0.0134 0.2621
Zn1_3 Zn 0.38187(5) 0.87095(5) 0.43772(3)
N1_3 N 0.2578(4) 0.8819(4) 0.5034(2)
C3_3 C 0.2868(5) 0.9494(5) 0.5657(3)
N2_3 N 0.3252(4) 0.9049(4) 0.4963(2)
N3_3 N 0.3122(5) 0.8758(5) 0.3818(3)
C4_3 C 0.3465(5) 0.9501(4) 0.5340(3)
N4_3 N 0.2325(4) 0.9077(4) 0.5458(2)
C5_3 C 0.2424(7) 0.8642(8) 0.3881(3)
H1_3 H 0.2289 0.8434 0.4176
C6_3 C 0.4116(5) 0.9867(4) 0.5439(3)
H2_3 H 0.4510 0.9846 0.5224
C7_3 C 0.2909(5) 0.9915(5) 0.6099(3)
H3_3 H 0.2518 0.9930 0.6316
C9_3 C 0.3358(7) 0.9062(8) 0.3395(4)
H5_3 H 0.3844 0.9217 0.3358
C10_3 C 0.1610(8) 0.8945(7) 0.2412(6)
H6_3 H 0.1536 0.9057 0.2072
H7_3 H 0.2109 0.8768 0.2459
C11_3 C 0.1858(10) 0.8791(9) 0.3561(6)
H8_3 H 0.1374 0.8643 0.3615
C12_3 C 0.2084(12) 0.9202(11) 0.3132(7)
C13_3 C 0.2845(10) 0.9136(8) 0.3012(6)
H9_3 H 0.3000 0.9143 0.2691
C14_3 C 0.1444(13) 0.9669(13) 0.2752(7)
H10_3 H 0.0946 0.9702 0.2878
N5_3 N 0.1242(5) 0.6878(5) 0.1182(3)
C15_3 C 0.1358(8) 0.7576(7) 0.1119(3)
H12_3 H 0.1566 0.7711 0.0824
C16_3 C 0.0938(8) 0.6642(7) 0.1605(4)
H13_3 H 0.0783 0.6156 0.1642
C17_3 C 0.1055(7) 0.8390(8) 0.2588(6)
H14_3 H 0.0943 0.8464 0.2928
H15_3 H 0.1232 0.7891 0.2541
C18_3 C 0.1209(9) 0.8142(10) 0.1439(6)
H16_3 H 0.1357 0.8626 0.1385
C19_3 C 0.0798(11) 0.7916(12) 0.1868(7)
C20_3 C 0.0864(8) 0.7155(10) 0.1988(6)
H17_3 H 0.0857 0.7000 0.2309
C21_3 C 0.0331(13) 0.8556(13) 0.2248(7)
H18_3 H 0.0298 0.9054 0.2122
Zn2_3 Zn 0.12905(5) 0.61813(5) 0.06228(3)
N7_3 N 0.0951(4) 0.6748(4) 0.0037(2)
O5_3 O 0.4650(3) 0.9354(3) 0.43727(19)
O6_3 O 0.0646(3) 0.5350(3) 0.06273(19)
N9_3 N 0.4077(4) 0.7675(4) 0.4542(2)
N10_3 N 0.2325(4) 0.5923(4) 0.0458(2)
N6_3 N 0.1181(4) 0.7422(4) 0.9966(2)
C24_3 C 0.0506(5) 0.7132(5) 0.9343(3)
C25_3 C 0.0499(4) 0.6535(5) 0.9660(3)
N8_3 N 0.0923(4) 0.7675(4) 0.9542(2)
C26_3 C 0.0133(4) 0.5884(5) 0.9561(3)
H20_3 H 0.0154 0.5490 0.9776
C27_3 C 0.0085(5) 0.7091(5) 0.8901(3)
H21_3 H 0.0070 0.7482 0.8684
C22_2 C 0.9741(5) 0.5835(5) 0.9141(3)
C23_2 C 0.9289(5) 0.5137(6) 0.9052(3)
O3_3 O 0.9354(3) 0.4650(3) 0.93727(19)
O4_2 O 0.8899(3) 0.5110(3) 0.8684(2)
C28_2 C 0.9705(5) 0.6448(6) 0.8814(3)
H22_2 H 0.9418 0.6410 0.8536
O3_4 O 0.5646(3) 0.0350(3) 0.93727(19)
Zn1_4 Zn 0.11813(5) 0.62905(5) 0.43772(3)
N1_4 N 0.2422(4) 0.6181(4) 0.5034(2)
C1_4 C 0.0835(5) 0.4741(5) 0.5859(3)
C2_4 C 0.0137(6) 0.4289(5) 0.5948(3)
C3_4 C 0.2132(5) 0.5506(5) 0.5657(3)
N2_4 N 0.1748(4) 0.5951(4) 0.4963(2)
N3_4 N 0.1878(5) 0.6242(5) 0.3818(3)
C4_4 C 0.1535(5) 0.5499(4) 0.5340(3)
N4_4 N 0.2675(4) 0.5923(4) 0.5458(2)
O2_4 O 0.0110(3) 0.3899(3) 0.6316(2)
C5_4 C 0.2576(7) 0.6358(8) 0.3881(3)
H1_4 H 0.2711 0.6566 0.4176
C6_4 C 0.0884(5) 0.5133(4) 0.5439(3)
H2_4 H 0.0490 0.5154 0.5224
C7_4 C 0.2091(5) 0.5085(5) 0.6099(3)
H3_4 H 0.2482 0.5070 0.6316
C8_4 C 0.1448(6) 0.4705(5) 0.6186(3)
H4_4 H 0.1410 0.4418 0.6464
C9_4 C 0.1642(7) 0.5938(8) 0.3395(4)
H5_4 H 0.1156 0.5783 0.3358
C10_4 C 0.3390(8) 0.6055(7) 0.2412(6)
H6_4 H 0.3464 0.5943 0.2072
H7_4 H 0.2891 0.6232 0.2459
C11_4 C 0.3142(10) 0.6209(9) 0.3561(6)
H8_4 H 0.3626 0.6357 0.3615
C12_4 C 0.2916(12) 0.5798(11) 0.3132(7)
C13_4 C 0.2155(10) 0.5864(8) 0.3012(6)
H9_4 H 0.2000 0.5857 0.2691
C14_4 C 0.3556(13) 0.5331(13) 0.2752(7)
H10_4 H 0.4054 0.5298 0.2878
H11_4 H 0.3385 0.4866 0.2621
N5_4 N 0.3758(5) 0.8122(5) 0.1182(3)
C15_4 C 0.3642(8) 0.7424(7) 0.1119(3)
H12_4 H 0.3434 0.7289 0.0824
C16_4 C 0.4062(8) 0.8358(7) 0.1605(4)
H13_4 H 0.4217 0.8844 0.1642
C17_4 C 0.3945(7) 0.6610(8) 0.2588(6)
H14_4 H 0.4057 0.6536 0.2928
H15_4 H 0.3768 0.7109 0.2541
C18_4 C 0.3791(9) 0.6858(10) 0.1439(6)
H16_4 H 0.3643 0.6374 0.1385
C19_4 C 0.4202(11) 0.7084(12) 0.1868(7)
C20_4 C 0.4136(8) 0.7845(10) 0.1988(6)
H17_4 H 0.4143 0.8000 0.2309
C21_4 C 0.4669(13) 0.6444(13) 0.2248(7)
H18_4 H 0.4702 0.5946 0.2122
H19_2 H 0.5134 0.6615 0.2379
Zn2_4 Zn 0.37095(5) 0.88187(5) 0.06228(3)
N7_4 N 0.4049(4) 0.8252(4) 0.0037(2)
O5_4 O 0.0350(3) 0.5646(3) 0.43727(19)
O6_4 O 0.4354(3) 0.9650(3) 0.06273(19)
N9_4 N 0.0923(4) 0.7325(4) 0.4542(2)
N10_4 N 0.2675(4) 0.9077(4) 0.0458(2)
N6_4 N 0.3819(4) 0.7578(4) 0.9966(2)
C22_3 C 0.5259(5) 0.9165(5) 0.9141(3)
C23_3 C 0.5711(5) 0.9863(6) 0.9052(3)
C24_4 C 0.4494(5) 0.7868(5) 0.9343(3)
C25_4 C 0.4501(4) 0.8465(5) 0.9660(3)
N8_4 N 0.4077(4) 0.7325(4) 0.9542(2)
O4_3 O 0.6101(3) 0.9890(3) 0.8684(2)
C26_4 C 0.4867(4) 0.9116(5) 0.9561(3)
H20_4 H 0.4846 0.9510 0.9776
C27_4 C 0.4915(5) 0.7909(5) 0.8901(3)
H21_4 H 0.4930 0.7518 0.8684
C28_3 C 0.5295(5) 0.8552(6) 0.8814(3)
H22_3 H 0.5582 0.8590 0.8536
O1_4 O 0.9650(3) 0.4354(3) 0.56273(19)
N6_5 N 0.2578(4) 0.6181(4) 0.0034(2)
C22_4 C 0.4165(5) 0.4741(5) 0.0859(3)
C23_4 C 0.4863(6) 0.4289(5) 0.0948(3)
C24_5 C 0.2868(5) 0.5506(5) 0.0657(3)
C25_5 C 0.3465(5) 0.5499(4) 0.0340(3)
O4_4 O 0.4890(3) 0.3899(3) 0.1316(2)
C26_5 C 0.4116(5) 0.5133(4) 0.0439(3)
H20_5 H 0.4510 0.5154 0.0224
C27_5 C 0.2909(5) 0.5085(5) 0.1099(3)
H21_5 H 0.2518 0.5070 0.1316
C28_4 C 0.3552(6) 0.4705(5) 0.1186(3)
H22_4 H 0.3590 0.4418 0.1464
N1_5 N 0.1181(4) 0.7578(4) 0.4966(2)
C3_5 C 0.0506(5) 0.7868(5) 0.4343(3)
N2_5 N 0.0951(4) 0.8252(4) 0.5037(2)
N3_5 N 0.1242(5) 0.8122(5) 0.6182(3)
C4_5 C 0.0499(4) 0.8465(5) 0.4660(3)
C5_5 C 0.1358(8) 0.7424(7) 0.6119(3)
H1_5 H 0.1566 0.7289 0.5824
C6_5 C 0.0133(4) 0.9116(5) 0.4561(3)
H2_5 H 0.0154 0.9510 0.4776
C7_5 C 0.0085(5) 0.7909(5) 0.3901(3)
H3_5 H 0.0070 0.7518 0.3684
C9_5 C 0.0938(8) 0.8358(7) 0.6605(4)
H5_5 H 0.0783 0.8844 0.6642
C10_5 C 0.1055(7) 0.6610(8) 0.7588(6)
H6_5 H 0.0943 0.6536 0.7928
H7_5 H 0.1232 0.7109 0.7541
C11_5 C 0.1209(9) 0.6858(10) 0.6439(6)
H8_5 H 0.1357 0.6374 0.6385
C12_5 C 0.0798(11) 0.7084(12) 0.6868(7)
C13_5 C 0.0864(8) 0.7845(10) 0.6988(6)
H9_5 H 0.0857 0.8000 0.7309
C14_5 C 0.0331(13) 0.6444(13) 0.7248(7)
H10_5 H 0.0298 0.5946 0.7122
N5_5 N 0.3122(5) 0.6242(5) 0.8818(3)
C15_5 C 0.2424(7) 0.6358(8) 0.8881(3)
H12_5 H 0.2289 0.6566 0.9176
C16_5 C 0.3358(7) 0.5938(8) 0.8395(4)
H13_5 H 0.3844 0.5783 0.8358
C17_5 C 0.1610(8) 0.6055(7) 0.7412(6)
H14_5 H 0.1536 0.5943 0.7072
H15_5 H 0.2109 0.6232 0.7459
C18_5 C 0.1858(10) 0.6209(9) 0.8561(6)
H16_5 H 0.1374 0.6357 0.8615
C19_5 C 0.2084(12) 0.5798(11) 0.8132(7)
C20_5 C 0.2845(10) 0.5864(8) 0.8012(6)
H17_5 H 0.3000 0.5857 0.7691
C21_5 C 0.1444(13) 0.5331(13) 0.7752(7)
H18_5 H 0.0946 0.5298 0.7878
H19_3 H 0.1615 0.4866 0.7621
N7_5 N 0.3252(4) 0.5951(4) 0.9963(2)
N6_6 N 0.2422(4) 0.8819(4) 0.0034(2)
C24_6 C 0.2132(5) 0.9494(5) 0.0657(3)
C25_6 C 0.1535(5) 0.9501(4) 0.0340(3)
C26_6 C 0.0884(5) 0.9867(4) 0.0439(3)
H20_6 H 0.0490 0.9846 0.0224
C27_6 C 0.2091(5) 0.9915(5) 0.1099(3)
H21_6 H 0.2482 0.9930 0.1316
N1_6 N 0.3819(4) 0.7422(4) 0.4966(2)
C1_5 C 0.5259(5) 0.5835(5) 0.4141(3)
C2_5 C 0.5711(5) 0.5137(6) 0.4052(3)
C3_6 C 0.4494(5) 0.7132(5) 0.4343(3)
N2_6 N 0.4049(4) 0.6748(4) 0.5037(2)
N3_6 N 0.3758(5) 0.6878(5) 0.6182(3)
C4_6 C 0.4501(4) 0.6535(5) 0.4660(3)
O2_5 O 0.6101(3) 0.5110(3) 0.3684(2)
C5_6 C 0.3642(8) 0.7576(7) 0.6119(3)
H1_6 H 0.3434 0.7711 0.5824
C6_6 C 0.4867(4) 0.5884(5) 0.4561(3)
H2_6 H 0.4846 0.5490 0.4776
C7_6 C 0.4915(5) 0.7091(5) 0.3901(3)
H3_6 H 0.4930 0.7482 0.3684
C8_5 C 0.5295(5) 0.6448(6) 0.3814(3)
H4_5 H 0.5582 0.6410 0.3536
C9_6 C 0.4062(8) 0.6642(7) 0.6605(4)
H5_6 H 0.4217 0.6156 0.6642
C10_6 C 0.3945(7) 0.8390(8) 0.7588(6)
H6_6 H 0.4057 0.8464 0.7928
H7_6 H 0.3768 0.7891 0.7541
C11_6 C 0.3791(9) 0.8142(10) 0.6439(6)
H8_6 H 0.3643 0.8626 0.6385
C12_6 C 0.4202(11) 0.7916(12) 0.6868(7)
C13_6 C 0.4136(8) 0.7155(10) 0.6988(6)
H9_6 H 0.4143 0.7000 0.7309
C14_6 C 0.4669(13) 0.8556(13) 0.7248(7)
H10_6 H 0.4702 0.9054 0.7122
H11_5 H 0.5134 0.8385 0.7379
N5_6 N 0.1878(5) 0.8758(5) 0.8818(3)
C15_6 C 0.2576(7) 0.8642(8) 0.8881(3)
H12_6 H 0.2711 0.8434 0.9176
C16_6 C 0.1642(7) 0.9062(8) 0.8395(4)
H13_6 H 0.1156 0.9217 0.8358
C17_6 C 0.3390(8) 0.8945(7) 0.7412(6)
H14_6 H 0.3464 0.9057 0.7072
H15_6 H 0.2891 0.8768 0.7459
C18_6 C 0.3142(10) 0.8791(9) 0.8561(6)
H16_6 H 0.3626 0.8643 0.8615
C19_6 C 0.2916(12) 0.9202(11) 0.8132(7)
C20_6 C 0.2155(10) 0.9136(8) 0.8012(6)
H17_6 H 0.2000 0.9143 0.7691
C21_6 C 0.3556(13) 0.9669(13) 0.7752(7)
H18_6 H 0.4054 0.9702 0.7878
N7_6 N 0.1748(4) 0.9049(4) 0.9963(2)
C22_5 C 0.0259(5) 0.4165(5) 0.0859(3)
C23_5 C 0.0711(5) 0.4863(6) 0.0948(3)
O4_5 O 0.1101(3) 0.4890(3) 0.1316(2)
C28_5 C 0.0295(5) 0.3552(6) 0.1186(3)
H22_5 H 0.0582 0.3590 0.1464
N6_7 N 0.8819(4) 0.2578(4) 0.0034(2)
C24_7 C 0.9494(5) 0.2868(5) 0.0657(3)
C25_7 C 0.9501(4) 0.3465(5) 0.0340(3)
C26_7 C 0.9867(4) 0.4116(5) 0.0439(3)
H20_7 H 0.9846 0.4510 0.0224
C27_7 C 0.9915(5) 0.2909(5) 0.1099(3)
H21_7 H 0.9930 0.2518 0.1316
N1_7 N 0.7422(4) 0.1181(4) 0.4966(2)
C3_7 C 0.7132(5) 0.0506(5) 0.4343(3)
N2_7 N 0.6748(4) 0.0951(4) 0.5037(2)
N3_7 N 0.6878(5) 0.1242(5) 0.6182(3)
C4_7 C 0.6535(5) 0.0499(4) 0.4660(3)
C5_7 C 0.7576(7) 0.1358(8) 0.6119(3)
H1_7 H 0.7711 0.1566 0.5824
C6_7 C 0.5884(5) 0.0133(4) 0.4561(3)
H2_7 H 0.5490 0.0154 0.4776
C7_7 C 0.7091(5) 0.0085(5) 0.3901(3)
H3_7 H 0.7482 0.0070 0.3684
C9_7 C 0.6642(7) 0.0938(8) 0.6605(4)
H5_7 H 0.6156 0.0783 0.6642
C10_7 C 0.8390(8) 0.1055(7) 0.7588(6)
H6_7 H 0.8464 0.0943 0.7928
H7_7 H 0.7891 0.1232 0.7541
C11_7 C 0.8142(10) 0.1209(9) 0.6439(6)
H8_7 H 0.8626 0.1357 0.6385
C12_7 C 0.7916(12) 0.0798(11) 0.6868(7)
C13_7 C 0.7155(10) 0.0864(8) 0.6988(6)
H9_7 H 0.7000 0.0857 0.7309
C14_7 C 0.8556(13) 0.0331(13) 0.7248(7)
H10_7 H 0.9054 0.0298 0.7122
N5_7 N 0.8758(5) 0.3122(5) 0.8818(3)
C15_7 C 0.8642(8) 0.2424(7) 0.8881(3)
H12_7 H 0.8434 0.2289 0.9176
C16_7 C 0.9062(8) 0.3358(7) 0.8395(4)
H13_7 H 0.9217 0.3844 0.8358
C17_7 C 0.8945(7) 0.1610(8) 0.7412(6)
H14_7 H 0.9057 0.1536 0.7072
H15_7 H 0.8768 0.2109 0.7459
C18_7 C 0.8791(9) 0.1858(10) 0.8561(6)
H16_7 H 0.8643 0.1374 0.8615
C19_7 C 0.9202(11) 0.2084(12) 0.8132(7)
C20_7 C 0.9136(8) 0.2845(10) 0.8012(6)
H17_7 H 0.9143 0.3000 0.7691
C21_7 C 0.9669(13) 0.1444(13) 0.7752(7)
H18_7 H 0.9702 0.0946 0.7878
N7_7 N 0.9049(4) 0.3252(4) 0.9963(2)
C1_6 C 0.5835(5) 0.9741(5) 0.4141(3)
C2_6 C 0.5137(6) 0.9289(5) 0.4052(3)
O2_6 O 0.5110(3) 0.8899(3) 0.3684(2)
C8_6 C 0.6448(6) 0.9705(5) 0.3814(3)
H4_6 H 0.6410 0.9418 0.3536
H11_6 H 0.8385 0.9866 0.7379
N6_8 N 0.6181(4) 0.2422(4) 0.0034(2)
C22_6 C 0.4741(5) 0.0835(5) 0.0859(3)
C23_6 C 0.4289(5) 0.0137(6) 0.0948(3)
C24_8 C 0.5506(5) 0.2132(5) 0.0657(3)
C25_8 C 0.5499(4) 0.1535(5) 0.0340(3)
O4_6 O 0.3899(3) 0.0110(3) 0.1316(2)
C26_8 C 0.5133(4) 0.0884(5) 0.0439(3)
H20_8 H 0.5154 0.0490 0.0224
C27_8 C 0.5085(5) 0.2091(5) 0.1099(3)
H21_8 H 0.5070 0.2482 0.1316
C28_6 C 0.4705(5) 0.1448(6) 0.1186(3)
H22_6 H 0.4418 0.1410 0.1464
N1_8 N 0.7578(4) 0.3819(4) 0.4966(2)
C1_7 C 0.9165(5) 0.5259(5) 0.4141(3)
C2_7 C 0.9863(6) 0.5711(5) 0.4052(3)
C3_8 C 0.7868(5) 0.4494(5) 0.4343(3)
N2_8 N 0.8252(4) 0.4049(4) 0.5037(2)
N3_8 N 0.8122(5) 0.3758(5) 0.6182(3)
C4_8 C 0.8465(5) 0.4501(4) 0.4660(3)
O2_7 O 0.9890(3) 0.6101(3) 0.3684(2)
C5_8 C 0.7424(7) 0.3642(8) 0.6119(3)
H1_8 H 0.7289 0.3434 0.5824
C6_8 C 0.9116(5) 0.4867(4) 0.4561(3)
H2_8 H 0.9510 0.4846 0.4776
C7_8 C 0.7909(5) 0.4915(5) 0.3901(3)
H3_8 H 0.7518 0.4930 0.3684
C8_7 C 0.8552(6) 0.5295(5) 0.3814(3)
H4_7 H 0.8590 0.5582 0.3536
C9_8 C 0.8358(7) 0.4062(8) 0.6605(4)
H5_8 H 0.8844 0.4217 0.6642
C10_8 C 0.6610(8) 0.3945(7) 0.7588(6)
H6_8 H 0.6536 0.4057 0.7928
H7_8 H 0.7109 0.3768 0.7541
C11_8 C 0.6858(10) 0.3791(9) 0.6439(6)
H8_8 H 0.6374 0.3643 0.6385
C12_8 C 0.7084(12) 0.4202(11) 0.6868(7)
C13_8 C 0.7845(10) 0.4136(8) 0.6988(6)
H9_8 H 0.8000 0.4143 0.7309
C14_8 C 0.6444(13) 0.4669(13) 0.7248(7)
H10_8 H 0.5946 0.4702 0.7122
H11_7 H 0.6615 0.5134 0.7379
N5_8 N 0.6242(5) 0.1878(5) 0.8818(3)
C15_8 C 0.6358(8) 0.2576(7) 0.8881(3)
H12_8 H 0.6566 0.2711 0.9176
C16_8 C 0.5938(8) 0.1642(7) 0.8395(4)
H13_8 H 0.5783 0.1156 0.8358
C17_8 C 0.6055(7) 0.3390(8) 0.7412(6)
H14_8 H 0.5943 0.3464 0.7072
H15_8 H 0.6232 0.2891 0.7459
C18_8 C 0.6209(9) 0.3142(10) 0.8561(6)
H16_8 H 0.6357 0.3626 0.8615
C19_8 C 0.5798(11) 0.2916(12) 0.8132(7)
C20_8 C 0.5864(8) 0.2155(10) 0.8012(6)
H17_8 H 0.5857 0.2000 0.7691
C21_8 C 0.5331(13) 0.3556(13) 0.7752(7)
H18_8 H 0.5298 0.4054 0.7878
H19_4 H 0.4866 0.3385 0.7621
N7_8 N 0.5951(4) 0.1748(4) 0.9963(2)
H19_5 H 0.6615 0.9866 0.2379
C22_7 C 0.9165(5) 0.9741(5) 0.9141(3)
C23_7 C 0.9863(6) 0.9289(5) 0.9052(3)
O4_7 O 0.9890(3) 0.8899(3) 0.8684(2)
C28_7 C 0.8552(6) 0.9705(5) 0.8814(3)
H22_7 H 0.8590 0.9418 0.8536
H19_6 H 0.9866 0.8385 0.2379
C1_8 C 0.9741(5) 0.9165(5) 0.4141(3)
C2_8 C 0.9289(5) 0.9863(6) 0.4052(3)
O2_8 O 0.8899(3) 0.9890(3) 0.3684(2)
C8_8 C 0.9705(5) 0.8552(6) 0.3814(3)
H4_8 H 0.9418 0.8590 0.3536
H11_8 H 0.9866 0.6615 0.7379
C22_8 C 0.0835(5) 0.0259(5) 0.0859(3)
C23_8 C 0.0137(6) 0.0711(5) 0.0948(3)
O4_8 O 0.0110(3) 0.1101(3) 0.1316(2)
C28_8 C 0.1448(6) 0.0295(5) 0.1186(3)
H22_8 H 0.1410 0.0582 0.1464
H19_7 H 0.3385 0.0134 0.7621
H19_8 H 0.0134 0.1615 0.7621
loop_
_geom_bond_atom_site_label_1
_geom_bond_atom_site_label_2
_geom_bond_site_symmetry_1
_geom_bond_site_symmetry_2
C1 C2 1_555 1_555
O2 C2 1_555 1_555
C8 C1 1_555 1_555
H4 C8 1_555 1_555
O1 Zn3 1_555 1_555
Zn1 N2 1_555 1_555
N1 N2 1_555 1_555
C3 C4 1_555 1_555
N2 C4 1_555 1_555
N3 Zn1 1_555 1_555
C4 C6 1_555 1_555
N4 N1 1_555 1_555
C5 N3 1_555 1_555
H1 C5 1_555 1_555
H2 C6 1_555 1_555
C7 C3 1_555 1_555
H3 C7 1_555 1_555
C9 N3 1_555 1_555
H5 C9 1_555 1_555
C10 H6 1_555 1_555
H7 C10 1_555 1_555
C11 C5 1_555 1_555
H8 C11 1_555 1_555
C12 C11 1_555 1_555
C13 C9 1_555 1_555
H9 C13 1_555 1_555
C14 C10 1_555 1_555
H10 C14 1_555 1_555
N5 C15 1_555 1_555
C15 H12 1_555 1_555
C16 N5 1_555 1_555
H13 C16 1_555 1_555
C17 C10 1_555 1_555
H14 C17 1_555 1_555
H15 C17 1_555 1_555
C18 C15 1_555 1_555
H16 C18 1_555 1_555
C19 C18 1_555 1_555
C20 C16 1_555 1_555
H17 C20 1_555 1_555
C21 C17 1_555 1_555
H18 C21 1_555 1_555
H19 C21 1_555 1_555
Zn2 N5 1_555 1_555
N7 Zn2 1_555 1_555
Zn4 N4 1_555 1_555
O5 Zn1 1_555 1_555
O6 Zn2 1_555 1_555
N9 Zn1 1_555 1_555
N10 Zn2 1_555 1_555
C3 N4 1_555 1_555
C12 C13 1_555 1_555
C12 C14 1_555 1_555
C19 C20 1_555 1_555
C19 C21 1_555 1_555
C22 C23 1_555 1_555
C23 O3 1_555 1_555
C24 C25 1_555 1_555
O3 Zn6 1_555 1_555
N8 N6 1_555 1_555
O4 C23 1_555 1_555
C26 C22 1_555 1_555
H20 C26 1_555 1_555
C27 C24 1_555 1_555
H21 C27 1_555 1_555
C28 C22 1_555 1_555
H22 C28 1_555 1_555
Zn5 N8 1_555 1_555
C24 N8 1_555 1_555
C25 C26 1_555 1_555
C27 C28 1_555 1_555
O3_2 Zn6_2 1_555 1_555
Zn1_2 N2_2 1_555 1_555
N1_2 N2_2 1_555 1_555
C1_2 C2_2 1_555 1_555
C2_2 O1_2 1_555 1_555
C3_2 C4_2 1_555 1_555
O1_2 Zn3_2 1_555 1_555
N2_2 C4_2 1_555 1_555
N3_2 Zn1_2 1_555 1_555
C4_2 C6_2 1_555 1_555
N4_2 N1_2 1_555 1_555
O2_2 C2_2 1_555 1_555
C5_2 N3_2 1_555 1_555
H1_2 C5_2 1_555 1_555
C6_2 C1_2 1_555 1_555
H2_2 C6_2 1_555 1_555
C7_2 C3_2 1_555 1_555
H3_2 C7_2 1_555 1_555
C8_2 C1_2 1_555 1_555
H4_2 C8_2 1_555 1_555
C9_2 N3_2 1_555 1_555
H5_2 C9_2 1_555 1_555
C10_2 H6_2 1_555 1_555
H7_2 C10_2 1_555 1_555
C11_2 C5_2 1_555 1_555
H8_2 C11_2 1_555 1_555
C12_2 C11_2 1_555 1_555
C13_2 C9_2 1_555 1_555
H9_2 C13_2 1_555 1_555
C14_2 C10_2 1_555 1_555
H10_2 C14_2 1_555 1_555
H11_2 C14_2 1_555 1_555
N5_2 C15_2 1_555 1_555
C15_2 H12_2 1_555 1_555
C16_2 N5_2 1_555 1_555
H13_2 C16_2 1_555 1_555
C17_2 C10_2 1_555 1_555
H14_2 C17_2 1_555 1_555
H15_2 C17_2 1_555 1_555
C18_2 C15_2 1_555 1_555
H16_2 C18_2 1_555 1_555
C19_2 C18_2 1_555 1_555
C20_2 C16_2 1_555 1_555
H17_2 C20_2 1_555 1_555
C21_2 C17_2 1_555 1_555
H18_2 C21_2 1_555 1_555
Zn2_2 N5_2 1_555 1_555
N7_2 Zn2_2 1_555 1_555
Zn4_2 N4_2 1_555 1_555
O5_2 Zn1_2 1_555 1_555
O6_2 Zn2_2 1_555 1_555
N9_2 Zn1_2 1_555 1_555
N10_2 Zn2_2 1_555 1_555
C3_2 N4_2 1_555 1_555
C7_2 C8_2 1_555 1_555
C12_2 C13_2 1_555 1_555
C12_2 C14_2 1_555 1_555
C19_2 C20_2 1_555 1_555
C19_2 C21_2 1_555 1_555
C24_2 C25_2 1_555 1_555
N8_2 N6_2 1_555 1_555
H20_2 C26_2 1_555 1_555
C27_2 C24_2 1_555 1_555
H21_2 C27_2 1_555 1_555
Zn5_2 N8_2 1_555 1_555
C24_2 N8_2 1_555 1_555
C25_2 C26_2 1_555 1_555
C1_3 C2_3 1_555 1_555
C2_3 O1_3 1_555 1_555
O1_3 Zn4_2 1_555 1_555
O2_3 C2_3 1_555 1_555
C8_3 C1_3 1_555 1_555
H4_3 C8_3 1_555 1_555
Zn1_3 N2_3 1_555 1_555
N1_3 N2_3 1_555 1_555
C3_3 C4_3 1_555 1_555
N2_3 C4_3 1_555 1_555
N3_3 Zn1_3 1_555 1_555
C4_3 C6_3 1_555 1_555
N4_3 N1_3 1_555 1_555
C5_3 N3_3 1_555 1_555
H1_3 C5_3 1_555 1_555
H2_3 C6_3 1_555 1_555
C7_3 C3_3 1_555 1_555
H3_3 C7_3 1_555 1_555
C9_3 N3_3 1_555 1_555
H5_3 C9_3 1_555 1_555
C10_3 H6_3 1_555 1_555
H7_3 C10_3 1_555 1_555
C11_3 C5_3 1_555 1_555
H8_3 C11_3 1_555 1_555
C12_3 C11_3 1_555 1_555
C13_3 C9_3 1_555 1_555
H9_3 C13_3 1_555 1_555
C14_3 C10_3 1_555 1_555
H10_3 C14_3 1_555 1_555
N5_3 C15_3 1_555 1_555
C15_3 H12_3 1_555 1_555
C16_3 N5_3 1_555 1_555
H13_3 C16_3 1_555 1_555
C17_3 C10_3 1_555 1_555
H14_3 C17_3 1_555 1_555
H15_3 C17_3 1_555 1_555
C18_3 C15_3 1_555 1_555
H16_3 C18_3 1_555 1_555
C19_3 C18_3 1_555 1_555
C20_3 C16_3 1_555 1_555
H17_3 C20_3 1_555 1_555
C21_3 C17_3 1_555 1_555
H18_3 C21_3 1_555 1_555
Zn2_3 N5_3 1_555 1_555
N7_3 Zn2_3 1_555 1_555
Zn3 N4_3 1_555 1_555
O5_3 Zn1_3 1_555 1_555
O6_3 Zn2_3 1_555 1_555
N9_3 Zn1_3 1_555 1_555
N10_3 Zn2_3 1_555 1_555
C3_3 N4_3 1_555 1_555
C12_3 C13_3 1_555 1_555
C12_3 C14_3 1_555 1_555
C19_3 C20_3 1_555 1_555
C19_3 C21_3 1_555 1_555
C24_3 C25_3 1_555 1_555
N8_3 N6_3 1_555 1_555
H20_3 C26_3 1_555 1_555
C27_3 C24_3 1_555 1_555
H21_3 C27_3 1_555 1_555
Zn6_2 N8_3 1_555 1_555
C24_3 N8_3 1_555 1_555
C25_3 C26_3 1_555 1_555
C22_2 C23_2 1_555 1_555
C23_2 O3_3 1_555 1_555
O3_3 Zn5 1_555 1_555
O4_2 C23_2 1_555 1_555
C28_2 C22_2 1_555 1_555
H22_2 C28_2 1_555 1_555
O3_4 Zn5_2 1_555 1_555
Zn1_4 N2_4 1_555 1_555
N1_4 N2_4 1_555 1_555
C1_4 C2_4 1_555 1_555
C3_4 C4_4 1_555 1_555
N2_4 C4_4 1_555 1_555
N3_4 Zn1_4 1_555 1_555
C4_4 C6_4 1_555 1_555
N4_4 N1_4 1_555 1_555
O2_4 C2_4 1_555 1_555
C5_4 N3_4 1_555 1_555
H1_4 C5_4 1_555 1_555
C6_4 C1_4 1_555 1_555
H2_4 C6_4 1_555 1_555
C7_4 C3_4 1_555 1_555
H3_4 C7_4 1_555 1_555
C8_4 C1_4 1_555 1_555
H4_4 C8_4 1_555 1_555
C9_4 N3_4 1_555 1_555
H5_4 C9_4 1_555 1_555
C10_4 H6_4 1_555 1_555
H7_4 C10_4 1_555 1_555
C11_4 C5_4 1_555 1_555
H8_4 C11_4 1_555 1_555
C12_4 C11_4 1_555 1_555
C13_4 C9_4 1_555 1_555
H9_4 C13_4 1_555 1_555
C14_4 C10_4 1_555 1_555
H10_4 C14_4 1_555 1_555
H11_4 C14_4 1_555 1_555
N5_4 C15_4 1_555 1_555
C15_4 H12_4 1_555 1_555
C16_4 N5_4 1_555 1_555
H13_4 C16_4 1_555 1_555
C17_4 C10_4 1_555 1_555
H14_4 C17_4 1_555 1_555
H15_4 C17_4 1_555 1_555
C18_4 C15_4 1_555 1_555
H16_4 C18_4 1_555 1_555
C19_4 C18_4 1_555 1_555
C20_4 C16_4 1_555 1_555
H17_4 C20_4 1_555 1_555
C21_4 C17_4 1_555 1_555
H18_4 C21_4 1_555 1_555
H19_2 C21_4 1_555 1_555
Zn2_4 N5_4 1_555 1_555
N7_4 Zn2_4 1_555 1_555
Zn3_2 N4_4 1_555 1_555
O5_4 Zn1_4 1_555 1_555
O6_4 Zn2_4 1_555 1_555
N9_4 Zn1_4 1_555 1_555
N10_4 Zn2_4 1_555 1_555
C3_4 N4_4 1_555 1_555
C7_4 C8_4 1_555 1_555
C12_4 C13_4 1_555 1_555
C12_4 C14_4 1_555 1_555
C19_4 C20_4 1_555 1_555
C19_4 C21_4 1_555 1_555
C22_3 C23_3 1_555 1_555
C24_4 C25_4 1_555 1_555
N8_4 N6_4 1_555 1_555
O4_3 C23_3 1_555 1_555
C26_4 C22_3 1_555 1_555
H20_4 C26_4 1_555 1_555
C27_4 C24_4 1_555 1_555
H21_4 C27_4 1_555 1_555
C28_3 C22_3 1_555 1_555
H22_3 C28_3 1_555 1_555
Zn6 N8_4 1_555 1_555
C24_4 N8_4 1_555 1_555
C25_4 C26_4 1_555 1_555
C27_4 C28_3 1_555 1_555
O1_4 Zn4 1_555 1_555
C22_4 C23_4 1_555 1_555
C23_4 O6 1_555 1_555
C24_5 C25_5 1_555 1_555
N10_3 N6_5 1_555 1_555
O4_4 C23_4 1_555 1_555
C26_5 C22_4 1_555 1_555
H20_5 C26_5 1_555 1_555
C27_5 C24_5 1_555 1_555
H21_5 C27_5 1_555 1_555
C28_4 C22_4 1_555 1_555
H22_4 C28_4 1_555 1_555
C24_5 N10_3 1_555 1_555
C25_5 C26_5 1_555 1_555
C27_5 C28_4 1_555 1_555
Zn3 N2_5 1_555 1_555
N1_5 N2_5 1_555 1_555
C3_5 C4_5 1_555 1_555
N2_5 C4_5 1_555 1_555
N3_5 Zn3 1_555 1_555
C4_5 C6_5 1_555 1_555
N9_4 N1_5 1_555 1_555
C5_5 N3_5 1_555 1_555
H1_5 C5_5 1_555 1_555
H2_5 C6_5 1_555 1_555
C7_5 C3_5 1_555 1_555
H3_5 C7_5 1_555 1_555
C9_5 N3_5 1_555 1_555
H5_5 C9_5 1_555 1_555
C10_5 H6_5 1_555 1_555
H7_5 C10_5 1_555 1_555
C11_5 C5_5 1_555 1_555
H8_5 C11_5 1_555 1_555
C12_5 C11_5 1_555 1_555
C13_5 C9_5 1_555 1_555
H9_5 C13_5 1_555 1_555
C14_5 C10_5 1_555 1_555
H10_5 C14_5 1_555 1_555
N5_5 C15_5 1_555 1_555
C15_5 H12_5 1_555 1_555
C16_5 N5_5 1_555 1_555
H13_5 C16_5 1_555 1_555
C17_5 C10_5 1_555 1_555
H14_5 C17_5 1_555 1_555
H15_5 C17_5 1_555 1_555
C18_5 C15_5 1_555 1_555
H16_5 C18_5 1_555 1_555
C19_5 C18_5 1_555 1_555
C20_5 C16_5 1_555 1_555
H17_5 C20_5 1_555 1_555
C21_5 C17_5 1_555 1_555
H18_5 C21_5 1_555 1_555
H19_3 C21_5 1_555 1_555
Zn6 N5_5 1_555 1_555
N7_5 Zn6 1_555 1_555
C3_5 N9_4 1_555 1_555
C12_5 C13_5 1_555 1_555
C12_5 C14_5 1_555 1_555
C19_5 C20_5 1_555 1_555
C19_5 C21_5 1_555 1_555
C24_6 C25_6 1_555 1_555
N10_4 N6_6 1_555 1_555
H20_6 C26_6 1_555 1_555
C27_6 C24_6 1_555 1_555
H21_6 C27_6 1_555 1_555
C24_6 N10_4 1_555 1_555
C25_6 C26_6 1_555 1_555
Zn3_2 N2_6 1_555 1_555
N1_6 N2_6 1_555 1_555
C1_5 C2_5 1_555 1_555
C2_5 O5_2 1_555 1_555
C3_6 C4_6 1_555 1_555
N2_6 C4_6 1_555 1_555
N3_6 Zn3_2 1_555 1_555
C4_6 C6_6 1_555 1_555
N9_3 N1_6 1_555 1_555
O2_5 C2_5 1_555 1_555
C5_6 N3_6 1_555 1_555
H1_6 C5_6 1_555 1_555
C6_6 C1_5 1_555 1_555
H2_6 C6_6 1_555 1_555
C7_6 C3_6 1_555 1_555
H3_6 C7_6 1_555 1_555
C8_5 C1_5 1_555 1_555
H4_5 C8_5 1_555 1_555
C9_6 N3_6 1_555 1_555
H5_6 C9_6 1_555 1_555
C10_6 H6_6 1_555 1_555
H7_6 C10_6 1_555 1_555
C11_6 C5_6 1_555 1_555
H8_6 C11_6 1_555 1_555
C12_6 C11_6 1_555 1_555
C13_6 C9_6 1_555 1_555
H9_6 C13_6 1_555 1_555
C14_6 C10_6 1_555 1_555
H10_6 C14_6 1_555 1_555
H11_5 C14_6 1_555 1_555
N5_6 C15_6 1_555 1_555
C15_6 H12_6 1_555 1_555
C16_6 N5_6 1_555 1_555
H13_6 C16_6 1_555 1_555
C17_6 C10_6 1_555 1_555
H14_6 C17_6 1_555 1_555
H15_6 C17_6 1_555 1_555
C18_6 C15_6 1_555 1_555
H16_6 C18_6 1_555 1_555
C19_6 C18_6 1_555 1_555
C20_6 C16_6 1_555 1_555
H17_6 C20_6 1_555 1_555
C21_6 C17_6 1_555 1_555
H18_6 C21_6 1_555 1_555
Zn6_2 N5_6 1_555 1_555
N7_6 Zn6_2 1_555 1_555
C3_6 N9_3 1_555 1_555
C7_6 C8_5 1_555 1_555
C12_6 C13_6 1_555 1_555
C12_6 C14_6 1_555 1_555
C19_6 C20_6 1_555 1_555
C19_6 C21_6 1_555 1_555
C22_5 C23_5 1_555 1_555
C23_5 O6_3 1_555 1_555
O4_5 C23_5 1_555 1_555
C28_5 C22_5 1_555 1_555
H22_5 C28_5 1_555 1_555
C24_7 C25_7 1_555 1_555
N10_2 N6_7 1_555 1_555
H20_7 C26_7 1_555 1_555
C27_7 C24_7 1_555 1_555
H21_7 C27_7 1_555 1_555
C24_7 N10_2 1_555 1_555
C25_7 C26_7 1_555 1_555
Zn4_2 N2_7 1_555 1_555
N1_7 N2_7 1_555 1_555
C3_7 C4_7 1_555 1_555
N2_7 C4_7 1_555 1_555
N3_7 Zn4_2 1_555 1_555
C4_7 C6_7 1_555 1_555
N9 N1_7 1_555 1_555
C5_7 N3_7 1_555 1_555
H1_7 C5_7 1_555 1_555
H2_7 C6_7 1_555 1_555
C7_7 C3_7 1_555 1_555
H3_7 C7_7 1_555 1_555
C9_7 N3_7 1_555 1_555
H5_7 C9_7 1_555 1_555
C10_7 H6_7 1_555 1_555
H7_7 C10_7 1_555 1_555
C11_7 C5_7 1_555 1_555
H8_7 C11_7 1_555 1_555
C12_7 C11_7 1_555 1_555
C13_7 C9_7 1_555 1_555
H9_7 C13_7 1_555 1_555
C14_7 C10_7 1_555 1_555
H10_7 C14_7 1_555 1_555
N5_7 C15_7 1_555 1_555
C15_7 H12_7 1_555 1_555
C16_7 N5_7 1_555 1_555
H13_7 C16_7 1_555 1_555
C17_7 C10_7 1_555 1_555
H14_7 C17_7 1_555 1_555
H15_7 C17_7 1_555 1_555
C18_7 C15_7 1_555 1_555
H16_7 C18_7 1_555 1_555
C19_7 C18_7 1_555 1_555
C20_7 C16_7 1_555 1_555
H17_7 C20_7 1_555 1_555
C21_7 C17_7 1_555 1_555
H18_7 C21_7 1_555 1_555
Zn5 N5_7 1_555 1_555
N7_7 Zn5 1_555 1_555
C3_7 N9 1_555 1_555
C12_7 C13_7 1_555 1_555
C12_7 C14_7 1_555 1_555
C19_7 C20_7 1_555 1_555
C19_7 C21_7 1_555 1_555
C1_6 C2_6 1_555 1_555
C2_6 O5_3 1_555 1_555
O2_6 C2_6 1_555 1_555
C8_6 C1_6 1_555 1_555
H4_6 C8_6 1_555 1_555
C22_6 C23_6 1_555 1_555
C24_8 C25_8 1_555 1_555
N10 N6_8 1_555 1_555
O4_6 C23_6 1_555 1_555
C26_8 C22_6 1_555 1_555
H20_8 C26_8 1_555 1_555
C27_8 C24_8 1_555 1_555
H21_8 C27_8 1_555 1_555
C28_6 C22_6 1_555 1_555
H22_6 C28_6 1_555 1_555
C24_8 N10 1_555 1_555
C25_8 C26_8 1_555 1_555
C27_8 C28_6 1_555 1_555
Zn4 N2_8 1_555 1_555
N1_8 N2_8 1_555 1_555
C1_7 C2_7 1_555 1_555
C3_8 C4_8 1_555 1_555
N2_8 C4_8 1_555 1_555
N3_8 Zn4 1_555 1_555
C4_8 C6_8 1_555 1_555
N9_2 N1_8 1_555 1_555
O2_7 C2_7 1_555 1_555
C5_8 N3_8 1_555 1_555
H1_8 C5_8 1_555 1_555
C6_8 C1_7 1_555 1_555
H2_8 C6_8 1_555 1_555
C7_8 C3_8 1_555 1_555
H3_8 C7_8 1_555 1_555
C8_7 C1_7 1_555 1_555
H4_7 C8_7 1_555 1_555
C9_8 N3_8 1_555 1_555
H5_8 C9_8 1_555 1_555
C10_8 H6_8 1_555 1_555
H7_8 C10_8 1_555 1_555
C11_8 C5_8 1_555 1_555
H8_8 C11_8 1_555 1_555
C12_8 C11_8 1_555 1_555
C13_8 C9_8 1_555 1_555
H9_8 C13_8 1_555 1_555
C14_8 C10_8 1_555 1_555
H10_8 C14_8 1_555 1_555
H11_7 C14_8 1_555 1_555
N5_8 C15_8 1_555 1_555
C15_8 H12_8 1_555 1_555
C16_8 N5_8 1_555 1_555
H13_8 C16_8 1_555 1_555
C17_8 C10_8 1_555 1_555
H14_8 C17_8 1_555 1_555
H15_8 C17_8 1_555 1_555
C18_8 C15_8 1_555 1_555
H16_8 C18_8 1_555 1_555
C19_8 C18_8 1_555 1_555
C20_8 C16_8 1_555 1_555
H17_8 C20_8 1_555 1_555
C21_8 C17_8 1_555 1_555
H18_8 C21_8 1_555 1_555
H19_4 C21_8 1_555 1_555
Zn5_2 N5_8 1_555 1_555
N7_8 Zn5_2 1_555 1_555
C3_8 N9_2 1_555 1_555
C7_8 C8_7 1_555 1_555
C12_8 C13_8 1_555 1_555
C12_8 C14_8 1_555 1_555
C19_8 C20_8 1_555 1_555
C19_8 C21_8 1_555 1_555
C22_7 C23_7 1_555 1_555
O4_7 C23_7 1_555 1_555
C28_7 C22_7 1_555 1_555
H22_7 C28_7 1_555 1_555
C1_8 C2_8 1_555 1_555
O2_8 C2_8 1_555 1_555
C8_8 C1_8 1_555 1_555
H4_8 C8_8 1_555 1_555
C22_8 C23_8 1_555 1_555
O4_8 C23_8 1_555 1_555
C28_8 C22_8 1_555 1_555
H22_8 C28_8 1_555 1_555

#END
