
###############################################################################
#
# This file contains modified crystal structure data generated from the
# MOF subset of the Cambridge Structural Database (CSD) v543 
# hosted by the Cambridge Crystallographic Data Centre (CCDC).
#
# This work is licensed under the Creative Commons
# Attribution-NonCommercial-ShareAlike 4.0 International License.
# To view a copy of this license, visit
# http://creativecommons.org/licenses/by-nc-sa/4.0/
# or send a letter to
# Creative Commons, PO Box 1866, Mountain View, CA 94042, USA.
#
# CIF created using the CSD Python API on 29 September 2022
# The structure has been converted into the P1 space group
# The structure has a 3D framework
# The original CSD entry TIVXOM is in the rhombohedral crystal system
# The framework has been calculated to contain at least 10.0% void space
# The void calculation uses a probe of radius 1.32A, grid spacing 0.4
# The framework is charged, counterions have been retained in the structure
#
###############################################################################

data_TIVXOM
_chemical_formula_moiety         '(C60 H72 F18 N24 O18 S6 6-)n'
_symmetry_cell_setting           triclinic
_symmetry_space_group_name_H-M   'P 1'
_symmetry_Int_Tables_number      1
_space_group_name_Hall           'P 1'
loop_
_symmetry_equiv_pos_site_id
_symmetry_equiv_pos_as_xyz
1 x,y,z
_cell_length_a                   17.6984(14)
_cell_length_b                   17.6984(14)
_cell_length_c                   17.6984(14)
_cell_angle_alpha                116.66
_cell_angle_beta                 116.66
_cell_angle_gamma                116.66
_cell_volume                     2572.6
loop_
_atom_site_label
_atom_site_type_symbol
_atom_site_fract_x
_atom_site_fract_y
_atom_site_fract_z
H9 H 0.1582 0.0060 0.6400
N1 N 0.06501(18) 0.81922(18) 0.53232(17)
N2 N 0.01529(17) 0.64796(18) 0.46427(17)
C1 C 0.1414(2) 0.8298(2) 0.5231(2)
H1 H 0.2029 0.8967 0.5418
C2 C 0.1097(2) 0.7249(2) 0.4821(2)
H2 H 0.1468 0.7069 0.4676
H7 H 0.0521 0.9088 0.4052
C8 C 0.0625(2) 0.9079(2) 0.5674(2)
H8 H 0.0405 0.9124 0.6093
Ag2 Ag 0.102269(18) 0.550548(15) 0.632363(17)
Ag1 Ag 0.897731(18) 0.449452(15) 0.367637(17)
N3 N 0.76099(17) 0.75084(15) 0.25882(16)
N4 N 0.95509(18) 0.85188(16) 0.44023(16)
C3 C 0.9909(2) 0.7075(2) 0.4967(2)
C4 C 0.8967(3) 0.6604(3) 0.4972(3)
H3 H 0.8562 0.5794 0.4683
H4 H 0.9542 0.7396 0.5933
H5 H 0.8194 0.6320 0.4303
C5 C 0.8514(2) 0.8010(2) 0.2652(2)
H6 H 0.8322 0.7924 0.2015
C6 C 0.9727(2) 0.8649(2) 0.3767(2)
C7 C 0.8258(2) 0.78300(19) 0.3658(2)
C9 C 0.7668(2) 0.7503(3) 0.4007(3)
H10 H 0.6729 0.7001 0.3320
H11 H 0.7576 0.6900 0.3959
H12 H 0.8314 0.8394 0.4971
Ag3 Ag 0.550548(15) 0.632363(17) 0.102269(18)
N5 N 0.74118(16) 0.23901(17) 0.24916(15)
N1_2 N 0.53232(17) 0.06501(18) 0.81922(18)
N2_2 N 0.46427(17) 0.01529(17) 0.64796(18)
C1_2 C 0.5231(2) 0.1414(2) 0.8298(2)
H1_2 H 0.5418 0.2029 0.8967
C2_2 C 0.4821(2) 0.1097(2) 0.7249(2)
H2_2 H 0.4676 0.1468 0.7069
H7_2 H 0.4052 0.0521 0.9088
C8_2 C 0.5674(2) 0.0625(2) 0.9079(2)
H8_2 H 0.6093 0.0405 0.9124
Ag2_2 Ag 0.632363(17) 0.102269(18) 0.550548(15)
Ag1_2 Ag 0.367637(17) 0.897731(18) 0.449452(15)
N3_2 N 0.25882(16) 0.76099(17) 0.75084(15)
N4_2 N 0.44023(16) 0.95509(18) 0.85188(16)
C3_2 C 0.4967(2) 0.9909(2) 0.7075(2)
C4_2 C 0.4972(3) 0.8967(3) 0.6604(3)
H3_2 H 0.4683 0.8562 0.5794
H4_2 H 0.5933 0.9542 0.7396
H5_2 H 0.4303 0.8194 0.6320
C5_2 C 0.2652(2) 0.8514(2) 0.8010(2)
H6_2 H 0.2015 0.8322 0.7924
C6_2 C 0.3767(2) 0.9727(2) 0.8649(2)
C7_2 C 0.3658(2) 0.8258(2) 0.78300(19)
C9_2 C 0.4007(3) 0.7668(2) 0.7503(3)
H10_2 H 0.3320 0.6729 0.7001
H11_2 H 0.3959 0.7576 0.6900
H12_2 H 0.4971 0.8314 0.8394
N5_2 N 0.24916(15) 0.74118(16) 0.23901(17)
N1_3 N 0.81922(18) 0.53232(17) 0.06501(18)
N2_3 N 0.64796(18) 0.46427(17) 0.01529(17)
C1_3 C 0.8298(2) 0.5231(2) 0.1414(2)
H1_3 H 0.8967 0.5418 0.2029
C2_3 C 0.7249(2) 0.4821(2) 0.1097(2)
H2_3 H 0.7069 0.4676 0.1468
H7_3 H 0.9088 0.4052 0.0521
C8_3 C 0.9079(2) 0.5674(2) 0.0625(2)
H8_3 H 0.9124 0.6093 0.0405
Ag1_3 Ag 0.449452(15) 0.367637(17) 0.897731(18)
N3_3 N 0.75084(15) 0.25882(16) 0.76099(17)
N4_3 N 0.85188(16) 0.44023(16) 0.95509(18)
C3_3 C 0.7075(2) 0.4967(2) 0.9909(2)
C4_3 C 0.6604(3) 0.4972(3) 0.8967(3)
H3_3 H 0.5794 0.4683 0.8562
H4_3 H 0.7396 0.5933 0.9542
H5_3 H 0.6320 0.4303 0.8194
C5_3 C 0.8010(2) 0.2652(2) 0.8514(2)
H6_3 H 0.7924 0.2015 0.8322
C6_3 C 0.8649(2) 0.3767(2) 0.9727(2)
C7_3 C 0.78300(19) 0.3658(2) 0.8258(2)
C9_3 C 0.7503(3) 0.4007(3) 0.7668(2)
H10_3 H 0.7001 0.3320 0.6729
H11_3 H 0.6900 0.3959 0.7576
H12_3 H 0.8394 0.4971 0.8314
N5_3 N 0.23901(17) 0.24916(15) 0.74118(16)
N4_4 N 0.04491(18) 0.14812(16) 0.55977(16)
C3_4 C 0.0091(2) 0.2925(2) 0.5033(2)
C4_4 C 0.1033(3) 0.3396(3) 0.5028(3)
H3_4 H 0.1438 0.4206 0.5317
H4_4 H 0.0458 0.2604 0.4067
H5_4 H 0.1806 0.3680 0.5697
C5_4 C 0.1486(2) 0.1990(2) 0.7348(2)
H6_4 H 0.1678 0.2076 0.7985
C6_4 C 0.0273(2) 0.1351(2) 0.6233(2)
C7_4 C 0.1742(2) 0.21700(19) 0.6342(2)
C9_4 C 0.2332(2) 0.2497(3) 0.5993(3)
H10_4 H 0.3271 0.2999 0.6680
H11_4 H 0.2424 0.3100 0.6041
H12_4 H 0.1686 0.1606 0.5029
N1_4 N 0.93499(18) 0.18078(18) 0.46768(17)
N2_4 N 0.98471(17) 0.35204(18) 0.53573(17)
C1_4 C 0.8586(2) 0.1702(2) 0.4769(2)
H1_4 H 0.7971 0.1033 0.4582
C2_4 C 0.8903(2) 0.2751(2) 0.5179(2)
H2_4 H 0.8532 0.2931 0.5324
H7_4 H 0.9479 0.0912 0.5948
C8_4 C 0.9375(2) 0.0921(2) 0.4326(2)
H8_4 H 0.9595 0.0876 0.3907
N4_5 N 0.55977(16) 0.04491(18) 0.14812(16)
C3_5 C 0.5033(2) 0.0091(2) 0.2925(2)
C4_5 C 0.5028(3) 0.1033(3) 0.3396(3)
H3_5 H 0.5317 0.1438 0.4206
H4_5 H 0.4067 0.0458 0.2604
H5_5 H 0.5697 0.1806 0.3680
C5_5 C 0.7348(2) 0.1486(2) 0.1990(2)
H6_5 H 0.7985 0.1678 0.2076
C6_5 C 0.6233(2) 0.0273(2) 0.1351(2)
C7_5 C 0.6342(2) 0.1742(2) 0.21700(19)
C9_5 C 0.5993(3) 0.2332(2) 0.2497(3)
H10_5 H 0.6680 0.3271 0.2999
H11_5 H 0.6041 0.2424 0.3100
H12_5 H 0.5029 0.1686 0.1606
N1_5 N 0.46768(17) 0.93499(18) 0.18078(18)
N2_5 N 0.53573(17) 0.98471(17) 0.35204(18)
C1_5 C 0.4769(2) 0.8586(2) 0.1702(2)
H1_5 H 0.4582 0.7971 0.1033
C2_5 C 0.5179(2) 0.8903(2) 0.2751(2)
H2_5 H 0.5324 0.8532 0.2931
H7_5 H 0.5948 0.9479 0.0912
C8_5 C 0.4326(2) 0.9375(2) 0.0921(2)
H8_5 H 0.3907 0.9595 0.0876
N4_6 N 0.14812(16) 0.55977(16) 0.04491(18)
C3_6 C 0.2925(2) 0.5033(2) 0.0091(2)
C4_6 C 0.3396(3) 0.5028(3) 0.1033(3)
H3_6 H 0.4206 0.5317 0.1438
H4_6 H 0.2604 0.4067 0.0458
H5_6 H 0.3680 0.5697 0.1806
C5_6 C 0.1990(2) 0.7348(2) 0.1486(2)
H6_6 H 0.2076 0.7985 0.1678
C6_6 C 0.1351(2) 0.6233(2) 0.0273(2)
C7_6 C 0.21700(19) 0.6342(2) 0.1742(2)
C9_6 C 0.2497(3) 0.5993(3) 0.2332(2)
H10_6 H 0.2999 0.6680 0.3271
H11_6 H 0.3100 0.6041 0.2424
H12_6 H 0.1606 0.5029 0.1686
N1_6 N 0.18078(18) 0.46768(17) 0.93499(18)
N2_6 N 0.35204(18) 0.53573(17) 0.98471(17)
C1_6 C 0.1702(2) 0.4769(2) 0.8586(2)
H1_6 H 0.1033 0.4582 0.7971
C2_6 C 0.2751(2) 0.5179(2) 0.8903(2)
H2_6 H 0.2931 0.5324 0.8532
H7_6 H 0.0912 0.5948 0.9479
C8_6 C 0.0921(2) 0.4326(2) 0.9375(2)
H8_6 H 0.0876 0.3907 0.9595
H9_2 H 0.6400 0.1582 0.0060
H9_3 H 0.0060 0.6400 0.1582
H9_4 H 0.8418 0.9940 0.3600
H9_5 H 0.3600 0.8418 0.9940
H9_6 H 0.9940 0.3600 0.8418
S1 S 0.02663(6) 0.42495(7) 0.27479(7)
O1 O 0.0534(2) 0.4440(2) 0.3733(2)
O2 O 0.1308(3) 0.5464(3) 0.3299(3)
C10 C 0.0055(4) 0.3083(3) 0.1818(4)
F1 F 0.0616(5) 0.3188(5) 0.1473(5)
F3 F 0.1106(5) 0.3354(5) 0.2869(5)
O3 O 0.8929(3) 0.3557(3) 0.1684(3)
F2 F 0.8694(4) 0.1635(4) 0.0873(4)
S1_2 S 0.27479(7) 0.02663(6) 0.42495(7)
O1_2 O 0.3733(2) 0.0534(2) 0.4440(2)
O2_2 O 0.3299(3) 0.1308(3) 0.5464(3)
C10_2 C 0.1818(4) 0.0055(4) 0.3083(3)
F1_2 F 0.1473(5) 0.0616(5) 0.3188(5)
F3_2 F 0.2869(5) 0.1106(5) 0.3354(5)
O3_2 O 0.1684(3) 0.8929(3) 0.3557(3)
F2_2 F 0.0873(4) 0.8694(4) 0.1635(4)
S1_3 S 0.42495(7) 0.27479(7) 0.02663(6)
O1_3 O 0.4440(2) 0.3733(2) 0.0534(2)
O2_3 O 0.5464(3) 0.3299(3) 0.1308(3)
C10_3 C 0.3083(3) 0.1818(4) 0.0055(4)
F1_3 F 0.3188(5) 0.1473(5) 0.0616(5)
F3_3 F 0.3354(5) 0.2869(5) 0.1106(5)
O3_3 O 0.3557(3) 0.1684(3) 0.8929(3)
F2_3 F 0.1635(4) 0.0873(4) 0.8694(4)
O3_4 O 0.1071(3) 0.6443(3) 0.8316(3)
F2_4 F 0.1306(4) 0.8365(4) 0.9127(4)
S1_4 S 0.97337(6) 0.57505(7) 0.72521(7)
O1_4 O 0.9466(2) 0.5560(2) 0.6267(2)
O2_4 O 0.8692(3) 0.4536(3) 0.6701(3)
C10_4 C 0.9945(4) 0.6917(3) 0.8182(4)
F1_4 F 0.9384(5) 0.6812(5) 0.8527(5)
F3_4 F 0.8894(5) 0.6646(5) 0.7131(5)
O3_5 O 0.8316(3) 0.1071(3) 0.6443(3)
F2_5 F 0.9127(4) 0.1306(4) 0.8365(4)
S1_5 S 0.72521(7) 0.97337(6) 0.57505(7)
O1_5 O 0.6267(2) 0.9466(2) 0.5560(2)
O2_5 O 0.6701(3) 0.8692(3) 0.4536(3)
C10_5 C 0.8182(4) 0.9945(4) 0.6917(3)
F1_5 F 0.8527(5) 0.9384(5) 0.6812(5)
F3_5 F 0.7131(5) 0.8894(5) 0.6646(5)
O3_6 O 0.6443(3) 0.8316(3) 0.1071(3)
F2_6 F 0.8365(4) 0.9127(4) 0.1306(4)
S1_6 S 0.57505(7) 0.72521(7) 0.97337(6)
O1_6 O 0.5560(2) 0.6267(2) 0.9466(2)
O2_6 O 0.4536(3) 0.6701(3) 0.8692(3)
C10_6 C 0.6917(3) 0.8182(4) 0.9945(4)
F1_6 F 0.6812(5) 0.8527(5) 0.9384(5)
F3_6 F 0.6646(5) 0.7131(5) 0.8894(5)
loop_
_geom_bond_atom_site_label_1
_geom_bond_atom_site_label_2
_geom_bond_site_symmetry_1
_geom_bond_site_symmetry_2
N1 C1 1_555 1_555
N2 C2 1_555 1_555
C1 H1 1_555 1_555
C2 C1 1_555 1_555
H2 C2 1_555 1_555
C8 N1 1_555 1_555
H8 C8 1_555 1_555
N3 C5 1_555 1_555
N4 C6 1_555 1_555
C4 C3 1_555 1_555
H3 C4 1_555 1_555
H4 C4 1_555 1_555
H5 C4 1_555 1_555
C5 H6 1_555 1_555
C6 C5 1_555 1_555
C7 N3 1_555 1_555
C9 C7 1_555 1_555
H10 C9 1_555 1_555
H11 C9 1_555 1_555
H12 C9 1_555 1_555
Ag3 N3 1_555 1_555
N5 Ag1 1_555 1_555
N4 C7 1_555 1_555
N1_2 C1_2 1_555 1_555
N2_2 C2_2 1_555 1_555
C1_2 H1_2 1_555 1_555
C2_2 C1_2 1_555 1_555
H2_2 C2_2 1_555 1_555
C8_2 N1_2 1_555 1_555
H8_2 C8_2 1_555 1_555
N3_2 C5_2 1_555 1_555
N4_2 C6_2 1_555 1_555
C4_2 C3_2 1_555 1_555
H3_2 C4_2 1_555 1_555
H4_2 C4_2 1_555 1_555
H5_2 C4_2 1_555 1_555
C5_2 H6_2 1_555 1_555
C6_2 C5_2 1_555 1_555
C7_2 N3_2 1_555 1_555
C9_2 C7_2 1_555 1_555
H10_2 C9_2 1_555 1_555
H11_2 C9_2 1_555 1_555
H12_2 C9_2 1_555 1_555
Ag2 N3_2 1_555 1_555
N5_2 Ag1_2 1_555 1_555
N4_2 C7_2 1_555 1_555
N1_3 C1_3 1_555 1_555
N2_3 C2_3 1_555 1_555
C1_3 H1_3 1_555 1_555
C2_3 C1_3 1_555 1_555
H2_3 C2_3 1_555 1_555
C8_3 N1_3 1_555 1_555
H8_3 C8_3 1_555 1_555
N3_3 C5_3 1_555 1_555
N4_3 C6_3 1_555 1_555
C4_3 C3_3 1_555 1_555
H3_3 C4_3 1_555 1_555
H4_3 C4_3 1_555 1_555
H5_3 C4_3 1_555 1_555
C5_3 H6_3 1_555 1_555
C6_3 C5_3 1_555 1_555
C7_3 N3_3 1_555 1_555
C9_3 C7_3 1_555 1_555
H10_3 C9_3 1_555 1_555
H11_3 C9_3 1_555 1_555
H12_3 C9_3 1_555 1_555
Ag2_2 N3_3 1_555 1_555
N5_3 Ag1_3 1_555 1_555
N4_3 C7_3 1_555 1_555
N5_3 C5_4 1_555 1_555
N4_4 C6_4 1_555 1_555
C4_4 C3_4 1_555 1_555
H3_4 C4_4 1_555 1_555
H4_4 C4_4 1_555 1_555
H5_4 C4_4 1_555 1_555
C5_4 H6_4 1_555 1_555
C6_4 C5_4 1_555 1_555
C7_4 N5_3 1_555 1_555
C9_4 C7_4 1_555 1_555
H10_4 C9_4 1_555 1_555
H11_4 C9_4 1_555 1_555
H12_4 C9_4 1_555 1_555
N4_4 C7_4 1_555 1_555
N1_4 C1_4 1_555 1_555
N2_4 C2_4 1_555 1_555
C1_4 H1_4 1_555 1_555
C2_4 C1_4 1_555 1_555
H2_4 C2_4 1_555 1_555
C8_4 N1_4 1_555 1_555
H8_4 C8_4 1_555 1_555
N5 C5_5 1_555 1_555
N4_5 C6_5 1_555 1_555
C4_5 C3_5 1_555 1_555
H3_5 C4_5 1_555 1_555
H4_5 C4_5 1_555 1_555
H5_5 C4_5 1_555 1_555
C5_5 H6_5 1_555 1_555
C6_5 C5_5 1_555 1_555
C7_5 N5 1_555 1_555
C9_5 C7_5 1_555 1_555
H10_5 C9_5 1_555 1_555
H11_5 C9_5 1_555 1_555
H12_5 C9_5 1_555 1_555
N4_5 C7_5 1_555 1_555
N1_5 C1_5 1_555 1_555
N2_5 C2_5 1_555 1_555
C1_5 H1_5 1_555 1_555
C2_5 C1_5 1_555 1_555
H2_5 C2_5 1_555 1_555
C8_5 N1_5 1_555 1_555
H8_5 C8_5 1_555 1_555
N5_2 C5_6 1_555 1_555
N4_6 C6_6 1_555 1_555
C4_6 C3_6 1_555 1_555
H3_6 C4_6 1_555 1_555
H4_6 C4_6 1_555 1_555
H5_6 C4_6 1_555 1_555
C5_6 H6_6 1_555 1_555
C6_6 C5_6 1_555 1_555
C7_6 N5_2 1_555 1_555
C9_6 C7_6 1_555 1_555
H10_6 C9_6 1_555 1_555
H11_6 C9_6 1_555 1_555
H12_6 C9_6 1_555 1_555
N4_6 C7_6 1_555 1_555
N1_6 C1_6 1_555 1_555
N2_6 C2_6 1_555 1_555
C1_6 H1_6 1_555 1_555
C2_6 C1_6 1_555 1_555
H2_6 C2_6 1_555 1_555
C8_6 N1_6 1_555 1_555
H8_6 C8_6 1_555 1_555
S1 O1 1_555 1_555
O2 S1 1_555 1_555
C10 S1 1_555 1_555
F1 C10 1_555 1_555
F3 C10 1_555 1_555
S1_2 O1_2 1_555 1_555
O2_2 S1_2 1_555 1_555
C10_2 S1_2 1_555 1_555
F1_2 C10_2 1_555 1_555
F3_2 C10_2 1_555 1_555
S1_3 O1_3 1_555 1_555
O2_3 S1_3 1_555 1_555
C10_3 S1_3 1_555 1_555
F1_3 C10_3 1_555 1_555
F3_3 C10_3 1_555 1_555
S1_4 O1_4 1_555 1_555
O2_4 S1_4 1_555 1_555
C10_4 S1_4 1_555 1_555
F1_4 C10_4 1_555 1_555
F3_4 C10_4 1_555 1_555
S1_5 O1_5 1_555 1_555
O2_5 S1_5 1_555 1_555
C10_5 S1_5 1_555 1_555
F1_5 C10_5 1_555 1_555
F3_5 C10_5 1_555 1_555
S1_6 O1_6 1_555 1_555
O2_6 S1_6 1_555 1_555
C10_6 S1_6 1_555 1_555
F1_6 C10_6 1_555 1_555
F3_6 C10_6 1_555 1_555

#END
