
###############################################################################
#
# This file contains modified crystal structure data generated from the
# MOF subset of the Cambridge Structural Database (CSD) v543 
# hosted by the Cambridge Crystallographic Data Centre (CCDC).
#
# This work is licensed under the Creative Commons
# Attribution-NonCommercial-ShareAlike 4.0 International License.
# To view a copy of this license, visit
# http://creativecommons.org/licenses/by-nc-sa/4.0/
# or send a letter to
# Creative Commons, PO Box 1866, Mountain View, CA 94042, USA.
#
# CIF created using the CSD Python API on 29 September 2022
# The structure has been converted into the P1 space group
# The structure has a 3D framework
# The original CSD entry TIXCEK is in the tetragonal crystal system
# The framework has been calculated to contain at least 10.0% void space
# The void calculation uses a probe of radius 1.32A, grid spacing 0.4
#
###############################################################################

data_TIXCEK
_chemical_formula_moiety         '(C240 H160 N96 Zn12)n'
_symmetry_cell_setting           triclinic
_symmetry_space_group_name_H-M   'P 1'
_symmetry_Int_Tables_number      1
_space_group_name_Hall           'P 1'
loop_
_symmetry_equiv_pos_site_id
_symmetry_equiv_pos_as_xyz
1 x,y,z
_cell_length_a                   23.4346(12)
_cell_length_b                   23.4346(12)
_cell_length_c                   14.9150(15)
_cell_angle_alpha                90
_cell_angle_beta                 90
_cell_angle_gamma                90
_cell_volume                     8191.03
loop_
_atom_site_label
_atom_site_type_symbol
_atom_site_fract_x
_atom_site_fract_y
_atom_site_fract_z
Zn1 Zn 0.375758(14) 0.047272(15) 0.15967(2)
N7 N 0.34608(10) 0.07072(10) 0.04173(15)
N8 N 0.33062(10) 0.08897(10) 0.25414(15)
N9 N 0.45850(10) 0.06275(11) 0.17051(16)
N1 N 0.35815(10) 0.96652(10) 0.19511(16)
N2 N 0.32072(10) 0.90392(10) 0.29173(15)
C1 C 0.34014(12) 0.91666(12) 0.04850(19)
H2 H 0.2562 0.9024 0.0288
C6 C 0.39145(12) 0.92347(12) 0.00375(19)
H4 H 0.4243 0.9318 0.0363
C7 C 0.33683(12) 0.92099(12) 0.14707(19)
C10 C 0.31406(13) 0.88357(13) 0.2066(2)
H5 H 0.2966 0.8492 0.1917
C11 C 0.34698(13) 0.95347(13) 0.2801(2)
H6 H 0.3568 0.9772 0.3276
Zn3 Zn 0.297272(15) 0.874242(14) 0.40967(2)
N3 N 0.19182(10) 0.87030(11) 0.88460(17)
N4 N 0.16938(10) 0.91103(10) 0.75414(15)
N5 N 0.45406(11) 0.93264(12) 0.77357(17)
H1 H 0.4290(18) 0.9327(18) 0.727(2)
N6 N 0.54150(10) 0.93725(11) 0.82949(16)
C2 C 0.29085(12) 0.90662(13) 0.99919(19)
C3 C 0.29262(12) 0.90273(12) 0.90641(18)
C4 C 0.34505(12) 0.90698(12) 0.86329(19)
H3 H 0.3468 0.9023 0.8014
C5 C 0.39480(12) 0.91812(13) 0.91076(19)
C8 C 0.23973(12) 0.89811(12) 0.85370(18)
C9 C 0.44950(12) 0.92600(13) 0.86478(19)
C12 C 0.15127(13) 0.87926(13) 0.8226(2)
H7 H 0.1144 0.8648 0.8270
C13 C 0.22558(12) 0.92256(13) 0.77450(19)
H8 H 0.2502 0.9440 0.7390
C14 C 0.50961(13) 0.93953(14) 0.7569(2)
H9 H 0.5243 0.9453 0.6997
C15 C 0.50308(12) 0.92901(14) 0.8985(2)
H10 H 0.5125 0.9260 0.9589
Zn2 Zn 0.124242(14) 0.952728(15) 0.65967(2)
Zn4 Zn 0.624242(14) 0.952728(15) 0.84033(2)
N1_2 N 0.14185(10) 0.03348(10) 0.69511(16)
N2_2 N 0.17928(10) 0.09608(10) 0.79173(15)
N3_2 N 0.30818(10) 0.12970(11) 0.38460(17)
N5_2 N 0.04594(11) 0.06736(12) 0.27357(17)
H1_2 H 0.0710(18) 0.0673(18) 0.227(2)
C1_2 C 0.15986(12) 0.08334(12) 0.54850(19)
C2_2 C 0.20915(12) 0.09338(13) 0.49919(19)
H2_2 H 0.2438 0.0976 0.5288
C3_2 C 0.20738(12) 0.09727(12) 0.40641(18)
C4_2 C 0.15495(12) 0.09302(12) 0.36329(19)
H3_2 H 0.1532 0.0977 0.3014
C5_2 C 0.10520(12) 0.08188(13) 0.41076(19)
C6_2 C 0.10855(12) 0.07653(12) 0.50375(19)
H4_2 H 0.0757 0.0682 0.5363
C7_2 C 0.16317(12) 0.07901(12) 0.64707(19)
C8_2 C 0.26027(12) 0.10189(12) 0.35370(18)
C9_2 C 0.05050(12) 0.07400(13) 0.36478(19)
C10_2 C 0.18594(13) 0.11643(13) 0.7066(2)
H5_2 H 0.2034 0.1508 0.6917
C11_2 C 0.15302(13) 0.04653(13) 0.7801(2)
H6_2 H 0.1432 0.0228 0.8276
C12_2 C 0.34873(13) 0.12074(13) 0.3226(2)
H7_2 H 0.3856 0.1352 0.3270
C13_2 C 0.27442(12) 0.07744(13) 0.27450(19)
H8_2 H 0.2498 0.0560 0.2390
Zn3_2 Zn 0.202728(15) 0.125758(14) 0.90967(2)
N7_2 N 0.15392(10) 0.92928(10) 0.54173(15)
N9_2 N 0.04150(10) 0.93725(11) 0.67051(16)
N6_2 N 0.95850(10) 0.06275(11) 0.32949(16)
C14_2 C 0.99039(13) 0.06047(14) 0.2569(2)
H9_2 H 0.9757 0.0547 0.1997
C15_2 C 0.99692(12) 0.07099(14) 0.3985(2)
H10_2 H 0.9875 0.0740 0.4589
Zn4_2 Zn 0.875758(14) 0.047272(15) 0.34033(2)
Zn1_2 Zn 0.702728(15) 0.625758(14) 0.40967(2)
N1_3 N 0.78348(10) 0.60815(10) 0.44511(16)
N2_3 N 0.84608(10) 0.57072(10) 0.54173(15)
N3_3 N 0.87970(11) 0.44182(10) 0.13460(17)
N4_2 N 0.83897(10) 0.41938(10) 0.00414(15)
N5_3 N 0.81736(12) 0.70406(11) 0.02357(17)
N6_3 N 0.81275(11) 0.79150(10) 0.07949(16)
C1_3 C 0.83334(12) 0.59014(12) 0.29850(19)
C2_3 C 0.84338(13) 0.54085(12) 0.24919(19)
H2_3 H 0.8476 0.5062 0.2788
C3_3 C 0.84727(12) 0.54262(12) 0.15641(18)
C4_3 C 0.84302(12) 0.59505(12) 0.11329(19)
H3_3 H 0.8477 0.5968 0.0514
C5_3 C 0.83188(13) 0.64480(12) 0.16076(19)
C6_3 C 0.82653(12) 0.64145(12) 0.25375(19)
H4_3 H 0.8182 0.6743 0.2863
C7_3 C 0.82901(12) 0.58683(12) 0.39707(19)
C8_3 C 0.85189(12) 0.48973(12) 0.10370(18)
C9_3 C 0.82400(13) 0.69950(12) 0.11478(19)
C10_3 C 0.86643(13) 0.56406(13) 0.4566(2)
H5_3 H 0.9008 0.5466 0.4417
C11_3 C 0.79653(13) 0.59698(13) 0.5301(2)
H6_3 H 0.7728 0.6068 0.5776
C12_3 C 0.87074(13) 0.40127(13) 0.0726(2)
H7_3 H 0.8852 0.3644 0.0770
C13_3 C 0.82744(13) 0.47558(12) 0.02450(19)
C14_3 C 0.81047(14) 0.75961(13) 0.0069(2)
C15_3 C 0.82099(14) 0.75308(12) 0.1485(2)
H10_3 H 0.8240 0.7625 0.2089
Zn3_3 Zn 0.875758(14) 0.547272(15) 0.65967(2)
Zn4_3 Zn 0.797272(15) 0.874242(14) 0.09033(2)
N7_3 N 0.67928(10) 0.59608(10) 0.29173(15)
N8_2 N 0.66103(10) 0.58062(10) 0.50414(15)
N9_3 N 0.68725(11) 0.70850(10) 0.42051(16)
H1_3 H 0.8173(18) 0.6790(18) 0.977(2)
H8_3 H 0.8060 0.5002 0.9890
H9_3 H 0.8047 0.7743 0.9497
Zn2_2 Zn 0.797272(15) 0.374242(14) 0.90967(2)
N2_4 N 0.65392(10) 0.42928(10) 0.04173(15)
C11_4 C 0.70347(13) 0.40302(13) 0.0301(2)
H6_4 H 0.7272 0.3932 0.0776
Zn3_4 Zn 0.624242(14) 0.452728(15) 0.15967(2)
N1_4 N 0.71652(10) 0.39185(10) 0.94511(16)
N3_4 N 0.62030(11) 0.55818(10) 0.63460(17)
N5_4 N 0.68264(12) 0.29594(11) 0.52357(17)
H1_4 H 0.6827(18) 0.3210(18) 0.477(2)
N6_4 N 0.68725(11) 0.20850(10) 0.57949(16)
C1_4 C 0.66666(12) 0.40986(12) 0.79850(19)
C2_4 C 0.65662(13) 0.45915(12) 0.74919(19)
H2_4 H 0.6524 0.4938 0.7788
C3_4 C 0.65273(12) 0.45738(12) 0.65641(18)
C4_4 C 0.65698(12) 0.40495(12) 0.61329(19)
H3_4 H 0.6523 0.4032 0.5514
C5_4 C 0.66812(13) 0.35520(12) 0.66076(19)
C6_4 C 0.67347(12) 0.35855(12) 0.75375(19)
H4_4 H 0.6818 0.3257 0.7863
C7_4 C 0.67099(12) 0.41317(12) 0.89707(19)
C8_4 C 0.64811(12) 0.51027(12) 0.60370(18)
C9_4 C 0.67600(13) 0.30050(12) 0.61478(19)
C10_4 C 0.63357(13) 0.43594(13) 0.9566(2)
H5_4 H 0.5992 0.4534 0.9417
C12_4 C 0.62926(13) 0.59873(13) 0.5726(2)
H7_4 H 0.6148 0.6356 0.5770
C13_4 C 0.67256(13) 0.52442(12) 0.52450(19)
H8_4 H 0.6940 0.4998 0.4890
C14_4 C 0.68953(14) 0.24039(13) 0.5069(2)
H9_4 H 0.6953 0.2257 0.4497
C15_4 C 0.67901(14) 0.24692(12) 0.6485(2)
H10_4 H 0.6760 0.2375 0.7089
Zn4_4 Zn 0.702728(15) 0.125758(14) 0.59033(2)
N7_4 N 0.82072(10) 0.40392(10) 0.79173(15)
N9_4 N 0.81275(11) 0.29150(10) 0.92051(16)
N6_5 N 0.04150(10) 0.43725(11) 0.32949(16)
C14_5 C 0.00961(13) 0.43953(14) 0.2569(2)
H9_5 H 0.0243 0.4453 0.1997
C15_5 C 0.00308(12) 0.42901(14) 0.3985(2)
H10_5 H 0.0125 0.4260 0.4589
Zn4_5 Zn 0.124242(14) 0.452728(15) 0.34033(2)
N1_5 N 0.85815(10) 0.46652(10) 0.69511(16)
N3_5 N 0.69182(10) 0.37030(11) 0.38460(17)
N4_3 N 0.66938(10) 0.41103(10) 0.25414(15)
N5_5 N 0.95406(11) 0.43264(12) 0.27357(17)
H1_5 H 0.9290(18) 0.4327(18) 0.227(2)
C1_5 C 0.84014(12) 0.41666(12) 0.54850(19)
C2_5 C 0.79085(12) 0.40662(13) 0.49919(19)
H2_5 H 0.7562 0.4024 0.5288
C3_5 C 0.79262(12) 0.40273(12) 0.40641(18)
C4_5 C 0.84505(12) 0.40698(12) 0.36329(19)
H3_5 H 0.8468 0.4023 0.3014
C5_5 C 0.89480(12) 0.41812(13) 0.41076(19)
C6_5 C 0.89145(12) 0.42347(12) 0.50375(19)
H4_5 H 0.9243 0.4318 0.5363
C7_5 C 0.83683(12) 0.42099(12) 0.64707(19)
C8_5 C 0.73973(12) 0.39811(12) 0.35370(18)
C9_5 C 0.94950(12) 0.42600(13) 0.36478(19)
C10_5 C 0.81406(13) 0.38357(13) 0.7066(2)
H5_5 H 0.7966 0.3492 0.6917
C11_5 C 0.84698(13) 0.45347(13) 0.7801(2)
H6_5 H 0.8568 0.4772 0.8276
C12_5 C 0.65127(13) 0.37926(13) 0.3226(2)
H7_5 H 0.6144 0.3648 0.3270
C13_5 C 0.72558(12) 0.42256(13) 0.27450(19)
H8_5 H 0.7502 0.4440 0.2390
N8_3 N 0.83062(10) 0.58897(10) 0.75414(15)
N9_5 N 0.95850(10) 0.56275(11) 0.67051(16)
N1_6 N 0.64185(10) 0.53348(10) 0.19511(16)
C1_6 C 0.65986(12) 0.58334(12) 0.04850(19)
H2_6 H 0.7438 0.5976 0.0288
C6_6 C 0.60855(12) 0.57653(12) 0.00375(19)
H4_6 H 0.5757 0.5682 0.0363
C7_6 C 0.66317(12) 0.57901(12) 0.14707(19)
C10_6 C 0.68594(13) 0.61643(13) 0.2066(2)
H5_6 H 0.7034 0.6508 0.1917
C11_6 C 0.65302(13) 0.54653(13) 0.2801(2)
H6_6 H 0.6432 0.5228 0.3276
N9_6 N 0.54150(10) 0.43725(11) 0.17051(16)
N3_6 N 0.80818(10) 0.62970(11) 0.88460(17)
N5_6 N 0.54594(11) 0.56736(12) 0.77357(17)
H1_6 H 0.5710(18) 0.5673(18) 0.727(2)
N6_6 N 0.45850(10) 0.56275(11) 0.82949(16)
C2_6 C 0.70915(12) 0.59338(13) 0.99919(19)
C3_6 C 0.70738(12) 0.59727(12) 0.90641(18)
C4_6 C 0.65495(12) 0.59302(12) 0.86329(19)
H3_6 H 0.6532 0.5977 0.8014
C5_6 C 0.60520(12) 0.58188(13) 0.91076(19)
C8_6 C 0.76027(12) 0.60189(12) 0.85370(18)
C9_6 C 0.55050(12) 0.57400(13) 0.86478(19)
C12_6 C 0.84873(13) 0.62074(13) 0.8226(2)
H7_6 H 0.8856 0.6352 0.8270
C13_6 C 0.77442(12) 0.57744(13) 0.77450(19)
H8_6 H 0.7498 0.5560 0.7390
C14_6 C 0.49039(13) 0.56047(14) 0.7569(2)
H9_6 H 0.4757 0.5547 0.6997
C15_6 C 0.49692(12) 0.57099(14) 0.8985(2)
H10_6 H 0.4875 0.5740 0.9589
Zn4_6 Zn 0.375758(14) 0.547272(15) 0.84033(2)
C11_7 C 0.29653(13) 0.09698(13) 0.0301(2)
H6_7 H 0.2728 0.1068 0.0776
N8_4 N 0.16103(10) 0.08062(10) 0.00414(15)
N1_7 N 0.28348(10) 0.10815(10) 0.94511(16)
N5_7 N 0.31736(12) 0.20406(11) 0.52357(17)
H1_7 H 0.3173(18) 0.1790(18) 0.477(2)
N6_7 N 0.31275(11) 0.29150(10) 0.57949(16)
C1_7 C 0.33334(12) 0.09014(12) 0.79850(19)
C2_7 C 0.34338(13) 0.04085(12) 0.74919(19)
H2_7 H 0.3476 0.0062 0.7788
C3_7 C 0.34727(12) 0.04262(12) 0.65641(18)
C4_7 C 0.34302(12) 0.09505(12) 0.61329(19)
H3_7 H 0.3477 0.0968 0.5514
C5_7 C 0.33188(13) 0.14480(12) 0.66076(19)
C6_7 C 0.32653(12) 0.14145(12) 0.75375(19)
H4_7 H 0.3182 0.1743 0.7863
C7_7 C 0.32901(12) 0.08683(12) 0.89707(19)
C9_7 C 0.32400(13) 0.19950(12) 0.61478(19)
C10_7 C 0.36643(13) 0.06406(13) 0.9566(2)
H5_7 H 0.4008 0.0466 0.9417
H8_7 H 0.3060 0.0002 0.4890
C14_7 C 0.31047(14) 0.25961(13) 0.5069(2)
H9_7 H 0.3047 0.2743 0.4497
C15_7 C 0.32099(14) 0.25308(12) 0.6485(2)
H10_7 H 0.3240 0.2625 0.7089
Zn4_7 Zn 0.297272(15) 0.374242(14) 0.59033(2)
N9_7 N 0.18725(11) 0.20850(10) 0.92051(16)
N3_7 N 0.37970(11) 0.94182(10) 0.63460(17)
N4_4 N 0.33897(10) 0.91938(10) 0.50414(15)
C8_7 C 0.35189(12) 0.98973(12) 0.60370(18)
C12_7 C 0.37074(13) 0.90127(13) 0.5726(2)
H7_7 H 0.3852 0.8644 0.5770
C13_7 C 0.32744(13) 0.97558(12) 0.52450(19)
N3_8 N 0.12030(11) 0.05818(10) 0.13460(17)
C8_8 C 0.14811(12) 0.01027(12) 0.10370(18)
C12_8 C 0.12926(13) 0.09873(13) 0.0726(2)
H7_8 H 0.1148 0.1356 0.0770
C13_8 C 0.17256(13) 0.02442(12) 0.02450(19)
N1_8 N 0.21652(10) 0.89185(10) 0.44511(16)
N5_8 N 0.18264(12) 0.79594(11) 0.02357(17)
N6_8 N 0.18725(11) 0.70850(10) 0.07949(16)
C1_8 C 0.16666(12) 0.90986(12) 0.29850(19)
C2_8 C 0.15662(13) 0.95915(12) 0.24919(19)
H2_8 H 0.1524 0.9938 0.2788
C3_8 C 0.15273(12) 0.95738(12) 0.15641(18)
C4_8 C 0.15698(12) 0.90495(12) 0.11329(19)
H3_8 H 0.1523 0.9032 0.0514
C5_8 C 0.16812(13) 0.85520(12) 0.16076(19)
C6_8 C 0.17347(12) 0.85855(12) 0.25375(19)
H4_8 H 0.1818 0.8257 0.2863
C7_8 C 0.17099(12) 0.91317(12) 0.39707(19)
C9_8 C 0.17600(13) 0.80050(12) 0.11478(19)
C10_8 C 0.13357(13) 0.93594(13) 0.4566(2)
H5_8 H 0.0992 0.9534 0.4417
C11_8 C 0.20347(13) 0.90302(13) 0.5301(2)
H6_8 H 0.2272 0.8932 0.5776
C14_8 C 0.18953(14) 0.74039(13) 0.0069(2)
C15_8 C 0.17901(14) 0.74692(12) 0.1485(2)
H10_8 H 0.1760 0.7375 0.2089
Zn4_8 Zn 0.202728(15) 0.625758(14) 0.09033(2)
N9_8 N 0.31275(11) 0.79150(10) 0.42051(16)
N3_9 N 0.80818(10) 0.12970(11) 0.11540(17)
N4_5 N 0.83062(10) 0.08897(10) 0.24586(15)
N5_9 N 0.54594(11) 0.06736(12) 0.22643(17)
H1_8 H 0.5710(18) 0.0673(18) 0.273(2)
C2_9 C 0.70915(12) 0.09338(13) 0.00081(19)
C3_9 C 0.70738(12) 0.09727(12) 0.09359(18)
C4_9 C 0.65495(12) 0.09302(12) 0.13671(19)
H3_9 H 0.6532 0.0977 0.1986
C5_9 C 0.60520(12) 0.08188(13) 0.08924(19)
C8_9 C 0.76027(12) 0.10189(12) 0.14630(18)
C9_9 C 0.55050(12) 0.07400(13) 0.13522(19)
C12_9 C 0.84873(13) 0.12074(13) 0.1774(2)
H7_9 H 0.8856 0.1352 0.1730
C13_9 C 0.77442(12) 0.07744(13) 0.22550(19)
H8_8 H 0.7498 0.0560 0.2610
C14_9 C 0.49039(13) 0.06047(14) 0.2431(2)
H9_8 H 0.4757 0.0547 0.3003
C15_9 C 0.49692(12) 0.07099(14) 0.1015(2)
H10_9 H 0.4875 0.0740 0.0411
N1_9 N 0.64185(10) 0.03348(10) 0.80489(16)
N2_5 N 0.67928(10) 0.09608(10) 0.70827(15)
C1_9 C 0.65986(12) 0.08334(12) 0.95150(19)
H2_9 H 0.7438 0.0976 0.9712
C6_9 C 0.60855(12) 0.07653(12) 0.99625(19)
H4_9 H 0.5757 0.0682 0.9637
C7_9 C 0.66317(12) 0.07901(12) 0.85293(19)
C10_9 C 0.68594(13) 0.11643(13) 0.7934(2)
H5_9 H 0.7034 0.1508 0.8083
C11_9 C 0.65302(13) 0.04653(13) 0.7199(2)
H6_9 H 0.6432 0.0228 0.6724
N7_5 N 0.65392(10) 0.92928(10) 0.95827(15)
N8_5 N 0.66938(10) 0.91103(10) 0.74586(15)
C14_10 C 0.00961(13) 0.93953(14) 0.7431(2)
H9_9 H 0.0243 0.9453 0.8003
C15_10 C 0.00308(12) 0.92901(14) 0.6015(2)
H10_10 H 0.0125 0.9260 0.5411
N7_6 N 0.84608(10) 0.07072(10) 0.45827(15)
N1_10 N 0.85815(10) 0.96652(10) 0.30489(16)
N2_6 N 0.82072(10) 0.90392(10) 0.20827(15)
N3_10 N 0.69182(10) 0.87030(11) 0.61540(17)
N5_10 N 0.95406(11) 0.93264(12) 0.72643(17)
H1_9 H 0.9290(18) 0.9327(18) 0.773(2)
C1_10 C 0.84014(12) 0.91666(12) 0.45150(19)
C2_10 C 0.79085(12) 0.90662(13) 0.50081(19)
H2_10 H 0.7562 0.9024 0.4712
C3_10 C 0.79262(12) 0.90273(12) 0.59359(18)
C4_10 C 0.84505(12) 0.90698(12) 0.63671(19)
H3_10 H 0.8468 0.9023 0.6986
C5_10 C 0.89480(12) 0.91812(13) 0.58924(19)
C6_10 C 0.89145(12) 0.92347(12) 0.49625(19)
H4_10 H 0.9243 0.9318 0.4637
C7_10 C 0.83683(12) 0.92099(12) 0.35293(19)
C8_10 C 0.73973(12) 0.89811(12) 0.64630(18)
C9_10 C 0.94950(12) 0.92600(13) 0.63522(19)
C10_10 C 0.81406(13) 0.88357(13) 0.2934(2)
H5_10 H 0.7966 0.8492 0.3083
C11_10 C 0.84698(13) 0.95347(13) 0.2199(2)
H6_10 H 0.8568 0.9772 0.1724
C12_10 C 0.65127(13) 0.87926(13) 0.6774(2)
H7_10 H 0.6144 0.8648 0.6730
C13_10 C 0.72558(12) 0.92256(13) 0.72550(19)
H8_9 H 0.7502 0.9440 0.7610
H1_10 H 0.1827(18) 0.3210(18) 0.023(2)
H8_10 H 0.1940 0.4998 0.0110
H9_10 H 0.1953 0.2257 0.0503
N1_11 N 0.21652(10) 0.39185(10) 0.55489(16)
N2_7 N 0.15392(10) 0.42928(10) 0.45827(15)
N3_11 N 0.12030(11) 0.55818(10) 0.86540(17)
N4_6 N 0.16103(10) 0.58062(10) 0.99586(15)
N5_11 N 0.18264(12) 0.29594(11) 0.97643(17)
C1_11 C 0.16666(12) 0.40986(12) 0.70150(19)
C2_11 C 0.15662(13) 0.45915(12) 0.75081(19)
H2_11 H 0.1524 0.4938 0.7212
C3_11 C 0.15273(12) 0.45738(12) 0.84359(18)
C4_11 C 0.15698(12) 0.40495(12) 0.88671(19)
H3_11 H 0.1523 0.4032 0.9486
C5_11 C 0.16812(13) 0.35520(12) 0.83924(19)
C6_11 C 0.17347(12) 0.35855(12) 0.74625(19)
H4_11 H 0.1818 0.3257 0.7137
C7_11 C 0.17099(12) 0.41317(12) 0.60293(19)
C8_11 C 0.14811(12) 0.51027(12) 0.89630(18)
C9_11 C 0.17600(13) 0.30050(12) 0.88522(19)
C10_11 C 0.13357(13) 0.43594(13) 0.5434(2)
H5_11 H 0.0992 0.4534 0.5583
C11_11 C 0.20347(13) 0.40302(13) 0.4699(2)
H6_11 H 0.2272 0.3932 0.4224
C12_11 C 0.12926(13) 0.59873(13) 0.9274(2)
H7_11 H 0.1148 0.6356 0.9230
C13_11 C 0.17256(13) 0.52442(12) 0.97550(19)
C14_11 C 0.18953(14) 0.24039(13) 0.9931(2)
C15_11 C 0.17901(14) 0.24692(12) 0.8515(2)
H10_11 H 0.1760 0.2375 0.7911
N7_7 N 0.32072(10) 0.40392(10) 0.70827(15)
N8_6 N 0.33897(10) 0.41938(10) 0.49586(15)
N1_12 N 0.28348(10) 0.60815(10) 0.05489(16)
N3_12 N 0.37970(11) 0.44182(10) 0.36540(17)
N5_12 N 0.31736(12) 0.70406(11) 0.47643(17)
H1_11 H 0.3173(18) 0.6790(18) 0.523(2)
C1_12 C 0.33334(12) 0.59014(12) 0.20150(19)
C2_12 C 0.34338(13) 0.54085(12) 0.25081(19)
H2_12 H 0.3476 0.5062 0.2212
C3_12 C 0.34727(12) 0.54262(12) 0.34359(18)
C4_12 C 0.34302(12) 0.59505(12) 0.38671(19)
H3_12 H 0.3477 0.5968 0.4486
C5_12 C 0.33188(13) 0.64480(12) 0.33924(19)
C6_12 C 0.32653(12) 0.64145(12) 0.24625(19)
H4_12 H 0.3182 0.6743 0.2137
C7_12 C 0.32901(12) 0.58683(12) 0.10293(19)
C8_12 C 0.35189(12) 0.48973(12) 0.39630(18)
C9_12 C 0.32400(13) 0.69950(12) 0.38522(19)
C10_12 C 0.36643(13) 0.56406(13) 0.0434(2)
H5_12 H 0.4008 0.5466 0.0583
C12_12 C 0.37074(13) 0.40127(13) 0.4274(2)
H7_12 H 0.3852 0.3644 0.4230
C13_12 C 0.32744(13) 0.47558(12) 0.47550(19)
H8_11 H 0.3060 0.5002 0.5110
C14_12 C 0.31047(14) 0.75961(13) 0.4931(2)
H9_11 H 0.3047 0.7743 0.5503
C15_12 C 0.32099(14) 0.75308(12) 0.3515(2)
H10_12 H 0.3240 0.7625 0.2911
N7_8 N 0.17928(10) 0.59608(10) 0.20827(15)
N2_8 N 0.34608(10) 0.57072(10) 0.95827(15)
C11_12 C 0.29653(13) 0.59698(13) 0.9699(2)
H6_12 H 0.2728 0.6068 0.9224
N1_13 N 0.14185(10) 0.53348(10) 0.30489(16)
N3_13 N 0.30818(10) 0.62970(11) 0.61540(17)
N4_7 N 0.33062(10) 0.58897(10) 0.74586(15)
N5_13 N 0.04594(11) 0.56736(12) 0.72643(17)
H1_12 H 0.0710(18) 0.5673(18) 0.773(2)
C1_13 C 0.15986(12) 0.58334(12) 0.45150(19)
C2_13 C 0.20915(12) 0.59338(13) 0.50081(19)
H2_13 H 0.2438 0.5976 0.4712
C3_13 C 0.20738(12) 0.59727(12) 0.59359(18)
C4_13 C 0.15495(12) 0.59302(12) 0.63671(19)
H3_13 H 0.1532 0.5977 0.6986
C5_13 C 0.10520(12) 0.58188(13) 0.58924(19)
C6_13 C 0.10855(12) 0.57653(12) 0.49625(19)
H4_13 H 0.0757 0.5682 0.4637
C7_13 C 0.16317(12) 0.57901(12) 0.35293(19)
C8_13 C 0.26027(12) 0.60189(12) 0.64630(18)
C9_13 C 0.05050(12) 0.57400(13) 0.63522(19)
C10_13 C 0.18594(13) 0.61643(13) 0.2934(2)
H5_13 H 0.2034 0.6508 0.3083
C11_13 C 0.15302(13) 0.54653(13) 0.2199(2)
H6_13 H 0.1432 0.5228 0.1724
C12_13 C 0.34873(13) 0.62074(13) 0.6774(2)
H7_13 H 0.3856 0.6352 0.6730
C13_13 C 0.27442(12) 0.57744(13) 0.72550(19)
H8_12 H 0.2498 0.5560 0.7610
N8_7 N 0.16938(10) 0.41103(10) 0.24586(15)
C14_13 C 0.99039(13) 0.56047(14) 0.7431(2)
H9_12 H 0.9757 0.5547 0.8003
C15_13 C 0.99692(12) 0.57099(14) 0.6015(2)
H10_13 H 0.9875 0.5740 0.5411
N3_14 N 0.19182(10) 0.37030(11) 0.11540(17)
N5_14 N 0.45406(11) 0.43264(12) 0.22643(17)
H1_13 H 0.4290(18) 0.4327(18) 0.273(2)
C2_14 C 0.29085(12) 0.40662(13) 0.00081(19)
C3_14 C 0.29262(12) 0.40273(12) 0.09359(18)
C4_14 C 0.34505(12) 0.40698(12) 0.13671(19)
H3_14 H 0.3468 0.4023 0.1986
C5_14 C 0.39480(12) 0.41812(13) 0.08924(19)
C8_14 C 0.23973(12) 0.39811(12) 0.14630(18)
C9_14 C 0.44950(12) 0.42600(13) 0.13522(19)
C12_14 C 0.15127(13) 0.37926(13) 0.1774(2)
H7_14 H 0.1144 0.3648 0.1730
C13_14 C 0.22558(12) 0.42256(13) 0.22550(19)
H8_13 H 0.2502 0.4440 0.2610
C14_14 C 0.50961(13) 0.43953(14) 0.2431(2)
H9_13 H 0.5243 0.4453 0.3003
C15_14 C 0.50308(12) 0.42901(14) 0.1015(2)
H10_14 H 0.5125 0.4260 0.0411
N1_14 N 0.35815(10) 0.46652(10) 0.80489(16)
C1_14 C 0.34014(12) 0.41666(12) 0.95150(19)
H2_14 H 0.2562 0.4024 0.9712
C6_14 C 0.39145(12) 0.42347(12) 0.99625(19)
H4_14 H 0.4243 0.4318 0.9637
C7_14 C 0.33683(12) 0.42099(12) 0.85293(19)
C10_14 C 0.31406(13) 0.38357(13) 0.7934(2)
H5_14 H 0.2966 0.3492 0.8083
C11_14 C 0.34698(13) 0.45347(13) 0.7199(2)
H6_14 H 0.3568 0.4772 0.6724
N3_15 N 0.62030(11) 0.05818(10) 0.36540(17)
N4_8 N 0.66103(10) 0.08062(10) 0.49586(15)
C8_15 C 0.64811(12) 0.01027(12) 0.39630(18)
C12_15 C 0.62926(13) 0.09873(13) 0.4274(2)
H7_15 H 0.6148 0.1356 0.4230
C13_15 C 0.67256(13) 0.02442(12) 0.47550(19)
N1_15 N 0.71652(10) 0.89185(10) 0.05489(16)
N5_15 N 0.68264(12) 0.79594(11) 0.47643(17)
H1_14 H 0.6827(18) 0.8210(18) 0.523(2)
C1_15 C 0.66666(12) 0.90986(12) 0.20150(19)
C2_15 C 0.65662(13) 0.95915(12) 0.25081(19)
H2_15 H 0.6524 0.9938 0.2212
C3_15 C 0.65273(12) 0.95738(12) 0.34359(18)
C4_15 C 0.65698(12) 0.90495(12) 0.38671(19)
H3_15 H 0.6523 0.9032 0.4486
C5_15 C 0.66812(13) 0.85520(12) 0.33924(19)
C6_15 C 0.67347(12) 0.85855(12) 0.24625(19)
H4_15 H 0.6818 0.8257 0.2137
C7_15 C 0.67099(12) 0.91317(12) 0.10293(19)
C9_15 C 0.67600(13) 0.80050(12) 0.38522(19)
C10_15 C 0.63357(13) 0.93594(13) 0.0434(2)
H5_15 H 0.5992 0.9534 0.0583
H8_14 H 0.6940 0.9998 0.5110
C14_15 C 0.68953(14) 0.74039(13) 0.4931(2)
H9_14 H 0.6953 0.7257 0.5503
C15_15 C 0.67901(14) 0.74692(12) 0.3515(2)
H10_15 H 0.6760 0.7375 0.2911
C11_15 C 0.70347(13) 0.90302(13) 0.9699(2)
H6_15 H 0.7272 0.8932 0.9224
N8_8 N 0.83897(10) 0.91938(10) 0.99586(15)
N1_16 N 0.78348(10) 0.10815(10) 0.55489(16)
N5_16 N 0.81736(12) 0.20406(11) 0.97643(17)
C1_16 C 0.83334(12) 0.09014(12) 0.70150(19)
C2_16 C 0.84338(13) 0.04085(12) 0.75081(19)
H2_16 H 0.8476 0.0062 0.7212
C3_16 C 0.84727(12) 0.04262(12) 0.84359(18)
C4_16 C 0.84302(12) 0.09505(12) 0.88671(19)
H3_16 H 0.8477 0.0968 0.9486
C5_16 C 0.83188(13) 0.14480(12) 0.83924(19)
C6_16 C 0.82653(12) 0.14145(12) 0.74625(19)
H4_16 H 0.8182 0.1743 0.7137
C7_16 C 0.82901(12) 0.08683(12) 0.60293(19)
C9_16 C 0.82400(13) 0.19950(12) 0.88522(19)
C10_16 C 0.86643(13) 0.06406(13) 0.5434(2)
H5_16 H 0.9008 0.0466 0.5583
C11_16 C 0.79653(13) 0.09698(13) 0.4699(2)
H6_16 H 0.7728 0.1068 0.4224
C14_16 C 0.81047(14) 0.25961(13) 0.9931(2)
C15_16 C 0.82099(14) 0.25308(12) 0.8515(2)
H10_16 H 0.8240 0.2625 0.7911
N3_16 N 0.87970(11) 0.94182(10) 0.86540(17)
C8_16 C 0.85189(12) 0.98973(12) 0.89630(18)
C12_16 C 0.87074(13) 0.90127(13) 0.9274(2)
H7_16 H 0.8852 0.8644 0.9230
C13_16 C 0.82744(13) 0.97558(12) 0.97550(19)
H1_15 H 0.1827(18) 0.8210(18) 0.977(2)
H8_15 H 0.1940 0.9998 0.9890
H9_15 H 0.1953 0.7257 0.9497
H1_16 H 0.8173(18) 0.1790(18) 0.023(2)
H8_16 H 0.8060 0.0002 0.0110
H9_16 H 0.8047 0.2743 0.0503
loop_
_geom_bond_atom_site_label_1
_geom_bond_atom_site_label_2
_geom_bond_site_symmetry_1
_geom_bond_site_symmetry_2
N7 Zn1 1_555 1_555
N8 Zn1 1_555 1_555
N9 Zn1 1_555 1_555
N1 C7 1_555 1_555
N2 C10 1_555 1_555
C6 C1 1_555 1_555
H4 C6 1_555 1_555
C7 C1 1_555 1_555
C10 C7 1_555 1_555
H5 C10 1_555 1_555
C11 N1 1_555 1_555
H6 C11 1_555 1_555
Zn3 N2 1_555 1_555
N2 C11 1_555 1_555
N3 C8 1_555 1_555
N4 C12 1_555 1_555
N5 H1 1_555 1_555
N6 C14 1_555 1_555
C3 C2 1_555 1_555
C4 C3 1_555 1_555
H3 C4 1_555 1_555
C5 C4 1_555 1_555
C8 C3 1_555 1_555
C9 N5 1_555 1_555
C12 N3 1_555 1_555
H7 C12 1_555 1_555
C13 N4 1_555 1_555
H8 C13 1_555 1_555
C14 N5 1_555 1_555
H9 C14 1_555 1_555
C15 N6 1_555 1_555
H10 C15 1_555 1_555
Zn2 N4 1_555 1_555
Zn4 N6 1_555 1_555
C5 C9 1_555 1_555
C8 C13 1_555 1_555
C9 C15 1_555 1_555
N1_2 C7_2 1_555 1_555
N2_2 C10_2 1_555 1_555
N3_2 C8_2 1_555 1_555
N8 C12_2 1_555 1_555
N5_2 H1_2 1_555 1_555
C1_2 C2_2 1_555 1_555
C2_2 H2_2 1_555 1_555
C3_2 C2_2 1_555 1_555
C4_2 C3_2 1_555 1_555
H3_2 C4_2 1_555 1_555
C5_2 C4_2 1_555 1_555
C6_2 C1_2 1_555 1_555
H4_2 C6_2 1_555 1_555
C7_2 C1_2 1_555 1_555
C8_2 C3_2 1_555 1_555
C9_2 N5_2 1_555 1_555
C10_2 C7_2 1_555 1_555
H5_2 C10_2 1_555 1_555
C11_2 N1_2 1_555 1_555
H6_2 C11_2 1_555 1_555
C12_2 N3_2 1_555 1_555
H7_2 C12_2 1_555 1_555
C13_2 N8 1_555 1_555
H8_2 C13_2 1_555 1_555
Zn3_2 N2_2 1_555 1_555
N2_2 C11_2 1_555 1_555
C5_2 C6_2 1_555 1_555
C5_2 C9_2 1_555 1_555
C8_2 C13_2 1_555 1_555
N7_2 Zn2 1_555 1_555
N9_2 Zn2 1_555 1_555
N6_2 C14_2 1_555 1_555
H9_2 C14_2 1_555 1_555
C15_2 N6_2 1_555 1_555
H10_2 C15_2 1_555 1_555
Zn4_2 N6_2 1_555 1_555
Zn1_2 N1_3 1_555 1_555
N1_3 C7_3 1_555 1_555
N2_3 C10_3 1_555 1_555
N3_3 C8_3 1_555 1_555
N4_2 C12_3 1_555 1_555
N6_3 C14_3 1_555 1_555
C1_3 C2_3 1_555 1_555
C2_3 H2_3 1_555 1_555
C3_3 C2_3 1_555 1_555
C4_3 C3_3 1_555 1_555
H3_3 C4_3 1_555 1_555
C5_3 C4_3 1_555 1_555
C6_3 C1_3 1_555 1_555
H4_3 C6_3 1_555 1_555
C7_3 C1_3 1_555 1_555
C8_3 C3_3 1_555 1_555
C9_3 N5_3 1_555 1_555
C10_3 C7_3 1_555 1_555
H5_3 C10_3 1_555 1_555
C11_3 N1_3 1_555 1_555
H6_3 C11_3 1_555 1_555
C12_3 N3_3 1_555 1_555
H7_3 C12_3 1_555 1_555
C13_3 N4_2 1_555 1_555
C14_3 N5_3 1_555 1_555
C15_3 N6_3 1_555 1_555
H10_3 C15_3 1_555 1_555
Zn3_3 N2_3 1_555 1_555
Zn4_3 N6_3 1_555 1_555
N7_3 Zn1_2 1_555 1_555
N8_2 Zn1_2 1_555 1_555
N9_3 Zn1_2 1_555 1_555
N2_3 C11_3 1_555 1_555
C5_3 C6_3 1_555 1_555
C5_3 C9_3 1_555 1_555
C8_3 C13_3 1_555 1_555
C9_3 C15_3 1_555 1_555
H6_4 C11_4 1_555 1_555
Zn3_4 N2_4 1_555 1_555
N2_4 C11_4 1_555 1_555
Zn2_2 N1_4 1_555 1_555
N1_4 C7_4 1_555 1_555
N3_4 C8_4 1_555 1_555
N8_2 C12_4 1_555 1_555
N5_4 H1_4 1_555 1_555
N6_4 C14_4 1_555 1_555
C1_4 C2_4 1_555 1_555
C2_4 H2_4 1_555 1_555
C3_4 C2_4 1_555 1_555
C4_4 C3_4 1_555 1_555
H3_4 C4_4 1_555 1_555
C5_4 C4_4 1_555 1_555
C6_4 C1_4 1_555 1_555
H4_4 C6_4 1_555 1_555
C7_4 C1_4 1_555 1_555
C8_4 C3_4 1_555 1_555
C9_4 N5_4 1_555 1_555
C10_4 C7_4 1_555 1_555
H5_4 C10_4 1_555 1_555
C12_4 N3_4 1_555 1_555
H7_4 C12_4 1_555 1_555
C13_4 N8_2 1_555 1_555
H8_4 C13_4 1_555 1_555
C14_4 N5_4 1_555 1_555
H9_4 C14_4 1_555 1_555
C15_4 N6_4 1_555 1_555
H10_4 C15_4 1_555 1_555
Zn4_4 N6_4 1_555 1_555
N7_4 Zn2_2 1_555 1_555
N9_4 Zn2_2 1_555 1_555
C5_4 C6_4 1_555 1_555
C5_4 C9_4 1_555 1_555
C8_4 C13_4 1_555 1_555
C9_4 C15_4 1_555 1_555
N6_5 C14_5 1_555 1_555
H9_5 C14_5 1_555 1_555
C15_5 N6_5 1_555 1_555
H10_5 C15_5 1_555 1_555
Zn4_5 N6_5 1_555 1_555
Zn3_3 N1_5 1_555 1_555
N1_5 C7_5 1_555 1_555
N7_4 C10_5 1_555 1_555
N3_5 C8_5 1_555 1_555
N4_3 C12_5 1_555 1_555
N5_5 H1_5 1_555 1_555
C1_5 C2_5 1_555 1_555
C2_5 H2_5 1_555 1_555
C3_5 C2_5 1_555 1_555
C4_5 C3_5 1_555 1_555
H3_5 C4_5 1_555 1_555
C5_5 C4_5 1_555 1_555
C6_5 C1_5 1_555 1_555
H4_5 C6_5 1_555 1_555
C7_5 C1_5 1_555 1_555
C8_5 C3_5 1_555 1_555
C9_5 N5_5 1_555 1_555
C10_5 C7_5 1_555 1_555
H5_5 C10_5 1_555 1_555
C11_5 N1_5 1_555 1_555
H6_5 C11_5 1_555 1_555
C12_5 N3_5 1_555 1_555
H7_5 C12_5 1_555 1_555
C13_5 N4_3 1_555 1_555
H8_5 C13_5 1_555 1_555
Zn3_4 N4_3 1_555 1_555
N8_3 Zn3_3 1_555 1_555
N9_5 Zn3_3 1_555 1_555
N7_4 C11_5 1_555 1_555
C5_5 C6_5 1_555 1_555
C5_5 C9_5 1_555 1_555
C8_5 C13_5 1_555 1_555
Zn3_4 N1_6 1_555 1_555
N1_6 C7_6 1_555 1_555
N7_3 C10_6 1_555 1_555
C6_6 C1_6 1_555 1_555
H4_6 C6_6 1_555 1_555
C7_6 C1_6 1_555 1_555
C10_6 C7_6 1_555 1_555
H5_6 C10_6 1_555 1_555
C11_6 N1_6 1_555 1_555
H6_6 C11_6 1_555 1_555
N9_6 Zn3_4 1_555 1_555
N7_3 C11_6 1_555 1_555
N3_6 C8_6 1_555 1_555
N8_3 C12_6 1_555 1_555
N5_6 H1_6 1_555 1_555
N6_6 C14_6 1_555 1_555
C3_6 C2_6 1_555 1_555
C4_6 C3_6 1_555 1_555
H3_6 C4_6 1_555 1_555
C5_6 C4_6 1_555 1_555
C8_6 C3_6 1_555 1_555
C9_6 N5_6 1_555 1_555
C12_6 N3_6 1_555 1_555
H7_6 C12_6 1_555 1_555
C13_6 N8_3 1_555 1_555
H8_6 C13_6 1_555 1_555
C14_6 N5_6 1_555 1_555
H9_6 C14_6 1_555 1_555
C15_6 N6_6 1_555 1_555
H10_6 C15_6 1_555 1_555
Zn4_6 N6_6 1_555 1_555
C5_6 C9_6 1_555 1_555
C8_6 C13_6 1_555 1_555
C9_6 C15_6 1_555 1_555
H6_7 C11_7 1_555 1_555
N7 C11_7 1_555 1_555
Zn3_2 N1_7 1_555 1_555
N1_7 C7_7 1_555 1_555
N5_7 H1_7 1_555 1_555
N6_7 C14_7 1_555 1_555
C1_7 C2_7 1_555 1_555
C2_7 H2_7 1_555 1_555
C3_7 C2_7 1_555 1_555
C4_7 C3_7 1_555 1_555
H3_7 C4_7 1_555 1_555
C5_7 C4_7 1_555 1_555
C6_7 C1_7 1_555 1_555
H4_7 C6_7 1_555 1_555
C7_7 C1_7 1_555 1_555
C9_7 N5_7 1_555 1_555
C10_7 C7_7 1_555 1_555
H5_7 C10_7 1_555 1_555
C14_7 N5_7 1_555 1_555
H9_7 C14_7 1_555 1_555
C15_7 N6_7 1_555 1_555
H10_7 C15_7 1_555 1_555
Zn4_7 N6_7 1_555 1_555
N9_7 Zn3_2 1_555 1_555
C5_7 C6_7 1_555 1_555
C5_7 C9_7 1_555 1_555
C9_7 C15_7 1_555 1_555
N3_7 C8_7 1_555 1_555
N4_4 C12_7 1_555 1_555
C12_7 N3_7 1_555 1_555
H7_7 C12_7 1_555 1_555
C13_7 N4_4 1_555 1_555
Zn3 N4_4 1_555 1_555
C8_7 C13_7 1_555 1_555
N3_8 C8_8 1_555 1_555
N8_4 C12_8 1_555 1_555
C12_8 N3_8 1_555 1_555
H7_8 C12_8 1_555 1_555
C13_8 N8_4 1_555 1_555
C8_8 C13_8 1_555 1_555
Zn3 N1_8 1_555 1_555
N1_8 C7_8 1_555 1_555
N7_2 C10_8 1_555 1_555
N6_8 C14_8 1_555 1_555
C1_8 C2_8 1_555 1_555
C2_8 H2_8 1_555 1_555
C3_8 C2_8 1_555 1_555
C4_8 C3_8 1_555 1_555
H3_8 C4_8 1_555 1_555
C5_8 C4_8 1_555 1_555
C6_8 C1_8 1_555 1_555
H4_8 C6_8 1_555 1_555
C7_8 C1_8 1_555 1_555
C9_8 N5_8 1_555 1_555
C10_8 C7_8 1_555 1_555
H5_8 C10_8 1_555 1_555
C11_8 N1_8 1_555 1_555
H6_8 C11_8 1_555 1_555
C14_8 N5_8 1_555 1_555
C15_8 N6_8 1_555 1_555
H10_8 C15_8 1_555 1_555
Zn4_8 N6_8 1_555 1_555
N9_8 Zn3 1_555 1_555
N7_2 C11_8 1_555 1_555
C5_8 C6_8 1_555 1_555
C5_8 C9_8 1_555 1_555
C9_8 C15_8 1_555 1_555
N3_9 C8_9 1_555 1_555
N4_5 C12_9 1_555 1_555
N5_9 H1_8 1_555 1_555
N9 C14_9 1_555 1_555
C3_9 C2_9 1_555 1_555
C4_9 C3_9 1_555 1_555
H3_9 C4_9 1_555 1_555
C5_9 C4_9 1_555 1_555
C8_9 C3_9 1_555 1_555
C9_9 N5_9 1_555 1_555
C12_9 N3_9 1_555 1_555
H7_9 C12_9 1_555 1_555
C13_9 N4_5 1_555 1_555
H8_8 C13_9 1_555 1_555
C14_9 N5_9 1_555 1_555
H9_8 C14_9 1_555 1_555
C15_9 N9 1_555 1_555
H10_9 C15_9 1_555 1_555
Zn4_2 N4_5 1_555 1_555
C5_9 C9_9 1_555 1_555
C8_9 C13_9 1_555 1_555
C9_9 C15_9 1_555 1_555
N1_9 C7_9 1_555 1_555
N2_5 C10_9 1_555 1_555
C6_9 C1_9 1_555 1_555
H4_9 C6_9 1_555 1_555
C7_9 C1_9 1_555 1_555
C10_9 C7_9 1_555 1_555
H5_9 C10_9 1_555 1_555
C11_9 N1_9 1_555 1_555
H6_9 C11_9 1_555 1_555
Zn4_4 N2_5 1_555 1_555
N2_5 C11_9 1_555 1_555
N7_5 Zn4 1_555 1_555
N8_5 Zn4 1_555 1_555
N9_2 C14_10 1_555 1_555
H9_9 C14_10 1_555 1_555
C15_10 N9_2 1_555 1_555
H10_10 C15_10 1_555 1_555
N7_6 Zn4_2 1_555 1_555
N1_10 C7_10 1_555 1_555
N2_6 C10_10 1_555 1_555
N3_10 C8_10 1_555 1_555
N8_5 C12_10 1_555 1_555
N5_10 H1_9 1_555 1_555
C1_10 C2_10 1_555 1_555
C2_10 H2_10 1_555 1_555
C3_10 C2_10 1_555 1_555
C4_10 C3_10 1_555 1_555
H3_10 C4_10 1_555 1_555
C5_10 C4_10 1_555 1_555
C6_10 C1_10 1_555 1_555
H4_10 C6_10 1_555 1_555
C7_10 C1_10 1_555 1_555
C8_10 C3_10 1_555 1_555
C9_10 N5_10 1_555 1_555
C10_10 C7_10 1_555 1_555
H5_10 C10_10 1_555 1_555
C11_10 N1_10 1_555 1_555
H6_10 C11_10 1_555 1_555
C12_10 N3_10 1_555 1_555
H7_10 C12_10 1_555 1_555
C13_10 N8_5 1_555 1_555
H8_9 C13_10 1_555 1_555
Zn4_3 N2_6 1_555 1_555
N2_6 C11_10 1_555 1_555
C5_10 C6_10 1_555 1_555
C5_10 C9_10 1_555 1_555
C8_10 C13_10 1_555 1_555
Zn4_7 N1_11 1_555 1_555
N1_11 C7_11 1_555 1_555
N2_7 C10_11 1_555 1_555
N3_11 C8_11 1_555 1_555
N4_6 C12_11 1_555 1_555
N9_7 C14_11 1_555 1_555
C1_11 C2_11 1_555 1_555
C2_11 H2_11 1_555 1_555
C3_11 C2_11 1_555 1_555
C4_11 C3_11 1_555 1_555
H3_11 C4_11 1_555 1_555
C5_11 C4_11 1_555 1_555
C6_11 C1_11 1_555 1_555
H4_11 C6_11 1_555 1_555
C7_11 C1_11 1_555 1_555
C8_11 C3_11 1_555 1_555
C9_11 N5_11 1_555 1_555
C10_11 C7_11 1_555 1_555
H5_11 C10_11 1_555 1_555
C11_11 N1_11 1_555 1_555
H6_11 C11_11 1_555 1_555
C12_11 N3_11 1_555 1_555
H7_11 C12_11 1_555 1_555
C13_11 N4_6 1_555 1_555
C14_11 N5_11 1_555 1_555
C15_11 N9_7 1_555 1_555
H10_11 C15_11 1_555 1_555
Zn4_5 N2_7 1_555 1_555
N7_7 Zn4_7 1_555 1_555
N8_6 Zn4_7 1_555 1_555
N2_7 C11_11 1_555 1_555
C5_11 C6_11 1_555 1_555
C5_11 C9_11 1_555 1_555
C8_11 C13_11 1_555 1_555
C9_11 C15_11 1_555 1_555
Zn4_8 N1_12 1_555 1_555
N1_12 C7_12 1_555 1_555
N3_12 C8_12 1_555 1_555
N8_6 C12_12 1_555 1_555
N5_12 H1_11 1_555 1_555
N9_8 C14_12 1_555 1_555
C1_12 C2_12 1_555 1_555
C2_12 H2_12 1_555 1_555
C3_12 C2_12 1_555 1_555
C4_12 C3_12 1_555 1_555
H3_12 C4_12 1_555 1_555
C5_12 C4_12 1_555 1_555
C6_12 C1_12 1_555 1_555
H4_12 C6_12 1_555 1_555
C7_12 C1_12 1_555 1_555
C8_12 C3_12 1_555 1_555
C9_12 N5_12 1_555 1_555
C10_12 C7_12 1_555 1_555
H5_12 C10_12 1_555 1_555
C12_12 N3_12 1_555 1_555
H7_12 C12_12 1_555 1_555
C13_12 N8_6 1_555 1_555
H8_11 C13_12 1_555 1_555
C14_12 N5_12 1_555 1_555
H9_11 C14_12 1_555 1_555
C15_12 N9_8 1_555 1_555
H10_12 C15_12 1_555 1_555
N7_8 Zn4_8 1_555 1_555
C5_12 C6_12 1_555 1_555
C5_12 C9_12 1_555 1_555
C8_12 C13_12 1_555 1_555
C9_12 C15_12 1_555 1_555
H6_12 C11_12 1_555 1_555
Zn4_6 N2_8 1_555 1_555
N2_8 C11_12 1_555 1_555
Zn4_5 N1_13 1_555 1_555
N1_13 C7_13 1_555 1_555
N7_8 C10_13 1_555 1_555
N3_13 C8_13 1_555 1_555
N4_7 C12_13 1_555 1_555
N5_13 H1_12 1_555 1_555
C1_13 C2_13 1_555 1_555
C2_13 H2_13 1_555 1_555
C3_13 C2_13 1_555 1_555
C4_13 C3_13 1_555 1_555
H3_13 C4_13 1_555 1_555
C5_13 C4_13 1_555 1_555
C6_13 C1_13 1_555 1_555
H4_13 C6_13 1_555 1_555
C7_13 C1_13 1_555 1_555
C8_13 C3_13 1_555 1_555
C9_13 N5_13 1_555 1_555
C10_13 C7_13 1_555 1_555
H5_13 C10_13 1_555 1_555
C11_13 N1_13 1_555 1_555
H6_13 C11_13 1_555 1_555
C12_13 N3_13 1_555 1_555
H7_13 C12_13 1_555 1_555
C13_13 N4_7 1_555 1_555
H8_12 C13_13 1_555 1_555
Zn4_6 N4_7 1_555 1_555
N8_7 Zn4_5 1_555 1_555
N7_8 C11_13 1_555 1_555
C5_13 C6_13 1_555 1_555
C5_13 C9_13 1_555 1_555
C8_13 C13_13 1_555 1_555
N9_5 C14_13 1_555 1_555
H9_12 C14_13 1_555 1_555
C15_13 N9_5 1_555 1_555
H10_13 C15_13 1_555 1_555
N3_14 C8_14 1_555 1_555
N8_7 C12_14 1_555 1_555
N5_14 H1_13 1_555 1_555
N9_6 C14_14 1_555 1_555
C3_14 C2_14 1_555 1_555
C4_14 C3_14 1_555 1_555
H3_14 C4_14 1_555 1_555
C5_14 C4_14 1_555 1_555
C8_14 C3_14 1_555 1_555
C9_14 N5_14 1_555 1_555
C12_14 N3_14 1_555 1_555
H7_14 C12_14 1_555 1_555
C13_14 N8_7 1_555 1_555
H8_13 C13_14 1_555 1_555
C14_14 N5_14 1_555 1_555
H9_13 C14_14 1_555 1_555
C15_14 N9_6 1_555 1_555
H10_14 C15_14 1_555 1_555
C5_14 C9_14 1_555 1_555
C8_14 C13_14 1_555 1_555
C9_14 C15_14 1_555 1_555
Zn4_6 N1_14 1_555 1_555
N1_14 C7_14 1_555 1_555
N7_7 C10_14 1_555 1_555
C6_14 C1_14 1_555 1_555
H4_14 C6_14 1_555 1_555
C7_14 C1_14 1_555 1_555
C10_14 C7_14 1_555 1_555
H5_14 C10_14 1_555 1_555
C11_14 N1_14 1_555 1_555
H6_14 C11_14 1_555 1_555
N7_7 C11_14 1_555 1_555
N3_15 C8_15 1_555 1_555
N4_8 C12_15 1_555 1_555
C12_15 N3_15 1_555 1_555
H7_15 C12_15 1_555 1_555
C13_15 N4_8 1_555 1_555
Zn4_4 N4_8 1_555 1_555
C8_15 C13_15 1_555 1_555
Zn4_3 N1_15 1_555 1_555
N1_15 C7_15 1_555 1_555
N5_15 H1_14 1_555 1_555
N9_3 C14_15 1_555 1_555
C1_15 C2_15 1_555 1_555
C2_15 H2_15 1_555 1_555
C3_15 C2_15 1_555 1_555
C4_15 C3_15 1_555 1_555
H3_15 C4_15 1_555 1_555
C5_15 C4_15 1_555 1_555
C6_15 C1_15 1_555 1_555
H4_15 C6_15 1_555 1_555
C7_15 C1_15 1_555 1_555
C9_15 N5_15 1_555 1_555
C10_15 C7_15 1_555 1_555
H5_15 C10_15 1_555 1_555
C14_15 N5_15 1_555 1_555
H9_14 C14_15 1_555 1_555
C15_15 N9_3 1_555 1_555
H10_15 C15_15 1_555 1_555
C5_15 C6_15 1_555 1_555
C5_15 C9_15 1_555 1_555
C9_15 C15_15 1_555 1_555
H6_15 C11_15 1_555 1_555
N7_5 C11_15 1_555 1_555
Zn4_4 N1_16 1_555 1_555
N1_16 C7_16 1_555 1_555
N7_6 C10_16 1_555 1_555
N9_4 C14_16 1_555 1_555
C1_16 C2_16 1_555 1_555
C2_16 H2_16 1_555 1_555
C3_16 C2_16 1_555 1_555
C4_16 C3_16 1_555 1_555
H3_16 C4_16 1_555 1_555
C5_16 C4_16 1_555 1_555
C6_16 C1_16 1_555 1_555
H4_16 C6_16 1_555 1_555
C7_16 C1_16 1_555 1_555
C9_16 N5_16 1_555 1_555
C10_16 C7_16 1_555 1_555
H5_16 C10_16 1_555 1_555
C11_16 N1_16 1_555 1_555
H6_16 C11_16 1_555 1_555
C14_16 N5_16 1_555 1_555
C15_16 N9_4 1_555 1_555
H10_16 C15_16 1_555 1_555
N7_6 C11_16 1_555 1_555
C5_16 C6_16 1_555 1_555
C5_16 C9_16 1_555 1_555
C9_16 C15_16 1_555 1_555
N3_16 C8_16 1_555 1_555
N8_8 C12_16 1_555 1_555
C12_16 N3_16 1_555 1_555
H7_16 C12_16 1_555 1_555
C13_16 N8_8 1_555 1_555
C8_16 C13_16 1_555 1_555

#END
