
###############################################################################
#
# This file contains modified crystal structure data generated from the
# MOF subset of the Cambridge Structural Database (CSD) v543 
# hosted by the Cambridge Crystallographic Data Centre (CCDC).
#
# This work is licensed under the Creative Commons
# Attribution-NonCommercial-ShareAlike 4.0 International License.
# To view a copy of this license, visit
# http://creativecommons.org/licenses/by-nc-sa/4.0/
# or send a letter to
# Creative Commons, PO Box 1866, Mountain View, CA 94042, USA.
#
# CIF created using the CSD Python API on 29 September 2022
# The structure has been converted into the P1 space group
# The structure has a 3D framework
# The original CSD entry TIXVON is in the orthorhombic crystal system
# The framework has been calculated to contain at least 10.0% void space
# The void calculation uses a probe of radius 1.32A, grid spacing 0.4
# H atom positions have been added when not included in the experimental data
# Generated hydrogen atom positions removed from atoms on special positions
#
###############################################################################

data_TIXVON
_chemical_formula_moiety         '(C200 H200 Mg12 N8 O76)n'
_symmetry_cell_setting           triclinic
_symmetry_space_group_name_H-M   'P 1'
_symmetry_Int_Tables_number      1
_space_group_name_Hall           'P 1'
loop_
_symmetry_equiv_pos_site_id
_symmetry_equiv_pos_as_xyz
1 x,y,z
_cell_length_a                   23.7111(13)
_cell_length_b                   11.3748(4)
_cell_length_c                   22.0842(10)
_cell_angle_alpha                90
_cell_angle_beta                 90
_cell_angle_gamma                90
_cell_volume                     5956.31
loop_
_atom_site_label
_atom_site_type_symbol
_atom_site_fract_x
_atom_site_fract_y
_atom_site_fract_z
O13 O 0.10331(13) 0.1964(3) 0.06102(16)
O15 O 0.07158(12) 0.0124(3) 0.05175(14)
O16 O 0.45587(12) 0.0405(3) 0.42283(13)
O17 O 0.40275(13) 0.2021(3) 0.42943(15)
O19 O 0.10843(17) 0.4243(3) 0.0175(2)
C34 C 0.2373(2) 0.0765(4) 0.1684(2)
H26 H 0.2678 0.1245 0.1781
C35 C 0.19491(19) 0.1163(4) 0.1306(2)
H27 H 0.1969 0.1923 0.1153
C36 C 0.14939(17) 0.0454(4) 0.11503(19)
C42 C 0.37923(18) 0.0614(4) 0.3552(2)
C43 C 0.3261(2) 0.1077(4) 0.3452(2)
H32 H 0.3138 0.1708 0.3684
C44 C 0.2911(2) 0.0620(4) 0.3012(2)
H33 H 0.2551 0.0927 0.2956
C45 C 0.10427(18) 0.0877(4) 0.0727(2)
C46 C 0.41581(19) 0.1050(4) 0.4066(2)
H35 H 0.2336 0.3914 0.0068
C48 C 0.1548(3) 0.4692(5) 0.0207(3)
C49 C 0.1188(3) 0.6046(6) 0.0910(3)
H37 H 0.0871 0.5523 0.0883
H38 H 0.1083 0.6807 0.0760
H39 H 0.1304 0.6111 0.1325
C50 C 0.2190(3) 0.6238(6) 0.0522(4)
H40 H 0.2455 0.5819 0.0274
H41 H 0.2340 0.6321 0.0924
H42 H 0.2123 0.7002 0.0352
N2 N 0.1655(2) 0.5581(5) 0.0548(3)
Mg4 Mg 0.0000 0.0000 0.0000
Mg5 Mg 0.5000 0.0000 0.5000
Mg7 Mg 0.44058(6) 0.28890(12) 0.49757(7)
Mg3 Mg 0.05942(6) 0.28890(12) 0.99757(7)
O14 O 0.02249(15) 0.3983(3) 0.93230(15)
C47 C 0.2035(3) 0.4172(7) 0.9811(4)
H34 H 0.1895 0.3518 0.9581
H36 H 0.2172 0.4767 0.9540
Mg4_2 Mg 0.0000 0.0000 1.0000
O23 O 0.09725(13) 0.2021(3) 0.92943(15)
H46 H 0.0507443 0.456345 0.917888
O18 O 0.27693(16) 0.9110(3) 0.22397(17)
C33 C 0.2335(2) 0.9638(4) 0.1916(2)
C37 C 0.14668(19) 0.9337(4) 0.1398(2)
H28 H 0.1164 0.8852 0.1302
C38 C 0.1881(2) 0.8932(4) 0.1784(2)
H29 H 0.1853 0.8186 0.1953
C39 C 0.3099(2) 0.9702(4) 0.2658(2)
C40 C 0.3632(2) 0.9242(4) 0.2740(2)
H30 H 0.3759 0.8631 0.2495
C41 C 0.39772(19) 0.9700(4) 0.3190(2)
H31 H 0.4336 0.9389 0.3248
Mg4_3 Mg 0.0000 1.0000 0.0000
Mg5_2 Mg 0.5000 1.0000 0.5000
Mg4_4 Mg 0.0000 1.0000 1.0000
Mg1 Mg 0.5000 0.5000 0.0000
O1 O 0.39669(13) 0.3036(3) 0.06102(16)
O3 O 0.42842(12) 0.4876(3) 0.05175(14)
O4 O 0.04413(12) 0.4595(3) 0.42283(13)
O5 O 0.09725(13) 0.2979(3) 0.42943(15)
O6 O 0.22307(16) 0.5890(3) 0.22397(17)
O7 O 0.51786(11) 0.3140(2) 0.01163(13)
O8 O 0.50442(12) 0.1463(2) 0.05747(14)
O9 O 0.7500 0.2500 0.1558(2)
O10 O 0.39157(17) 0.0757(3) 0.0175(2)
C1 C 0.2665(2) 0.5362(4) 0.1916(2)
C2 C 0.2627(2) 0.4235(4) 0.1684(2)
H1 H 0.2322 0.3755 0.1781
C3 C 0.30509(19) 0.3837(4) 0.1306(2)
H2 H 0.3031 0.3077 0.1153
C4 C 0.35061(17) 0.4546(4) 0.11503(19)
C5 C 0.35332(19) 0.5663(4) 0.1398(2)
H3 H 0.3836 0.6148 0.1302
C6 C 0.3119(2) 0.6068(4) 0.1784(2)
H4 H 0.3147 0.6814 0.1953
C7 C 0.1901(2) 0.5298(4) 0.2658(2)
C8 C 0.1368(2) 0.5758(4) 0.2740(2)
H5 H 0.1241 0.6369 0.2495
C9 C 0.10228(19) 0.5300(4) 0.3190(2)
H6 H 0.0664 0.5611 0.3248
C10 C 0.12077(18) 0.4386(4) 0.3552(2)
C11 C 0.1739(2) 0.3923(4) 0.3452(2)
H7 H 0.1862 0.3292 0.3684
C12 C 0.2089(2) 0.4380(4) 0.3012(2)
H8 H 0.2449 0.4073 0.2956
C13 C 0.39573(18) 0.4123(4) 0.0727(2)
C14 C 0.08419(19) 0.3950(4) 0.4066(2)
C15 C 0.69938(19) 0.2419(5) 0.1233(2)
C16 C 0.6619(2) 0.1562(5) 0.1412(2)
H9 H 0.6718 0.1014 0.1706
C17 C 0.60912(19) 0.1536(4) 0.1146(2)
H10 H 0.5833 0.0963 0.1263
C18 C 0.59408(17) 0.2346(4) 0.07082(19)
C19 C 0.63268(18) 0.3184(4) 0.0525(2)
H11 H 0.6233 0.3721 0.0224
C20 C 0.68613(18) 0.3219(4) 0.0797(2)
H12 H 0.7123 0.3783 0.0679
C21 C 0.53608(17) 0.2317(4) 0.04546(19)
H14 H 0.2664 0.1086 0.0068
C23 C 0.3452(3) 0.0308(5) 0.0207(3)
O11 O 0.98214(11) 0.1860(2) 0.01163(13)
O12 O 0.99558(12) 0.3537(2) 0.05747(14)
C26 C 0.80062(19) 0.2581(5) 0.1233(2)
C27 C 0.8381(2) 0.3438(5) 0.1412(2)
H22 H 0.8282 0.3986 0.1706
C28 C 0.89088(19) 0.3464(4) 0.1146(2)
H23 H 0.9167 0.4037 0.1263
C29 C 0.90592(17) 0.2654(4) 0.07082(19)
C30 C 0.86732(18) 0.1816(4) 0.0525(2)
H24 H 0.8767 0.1279 0.0224
C31 C 0.81387(18) 0.1781(4) 0.0797(2)
H25 H 0.7877 0.1217 0.0679
C32 C 0.96392(17) 0.2683(4) 0.04546(19)
Mg4_5 Mg 1.0000 0.0000 0.0000
Mg6 Mg 0.0000 0.5000 0.5000
Mg8 Mg 0.05942(6) 0.21110(12) 0.49757(7)
O21 O 0.54413(12) 0.5405(3) 0.07717(13)
Mg1_2 Mg 0.5000 0.5000 1.0000
Mg2 Mg 0.44058(6) 0.21110(12) 0.99757(7)
O2 O 0.47751(15) 0.1017(3) 0.93230(15)
C22 C 0.2965(3) 0.0828(7) 0.9811(4)
H13 H 0.3105 0.1482 0.9581
H15 H 0.2828 0.0233 0.9540
Mg4_6 Mg 1.0000 0.0000 1.0000
O20 O 0.57158(12) 0.5124(3) 0.94825(14)
O22 O 0.45587(12) 0.4595(3) 0.92283(13)
O24 O 0.40275(13) 0.2979(3) 0.92943(15)
O25 O 0.48214(11) 0.6860(2) 0.98837(13)
H45 H 0.989932 0.440395 0.950459
C24 C 0.3812(3) 0.8954(6) 0.0910(3)
H16 H 0.4129 0.9477 0.0883
H17 H 0.3917 0.8193 0.0760
H18 H 0.3696 0.8889 0.1325
C25 C 0.2810(3) 0.8762(6) 0.0522(4)
H19 H 0.2545 0.9181 0.0274
H20 H 0.2660 0.8679 0.0924
H21 H 0.2877 0.7998 0.0352
N1 N 0.3345(2) 0.9419(5) 0.0548(3)
Mg4_7 Mg 1.0000 1.0000 0.0000
Mg4_8 Mg 1.0000 1.0000 1.0000
Mg6_2 Mg 1.0000 0.5000 0.5000
O22_2 O 0.04413(12) 0.0405(3) 0.92283(13)
H43 H 0.047407 0.40275 0.896233
O25_2 O 0.01786(11) 0.8140(2) 0.98837(13)
H44 H 0.985282 0.36572 0.920287
O21_2 O 0.95587(12) 0.9595(3) 0.07717(13)
O20_2 O 0.92842(12) 0.9876(3) 0.94825(14)
O6_2 O 0.77693(16) 0.0890(3) 0.27603(17)
C1_2 C 0.7335(2) 0.0362(4) 0.3084(2)
C5_2 C 0.64668(19) 0.0663(4) 0.3602(2)
H3_2 H 0.6164 0.1148 0.3698
C6_2 C 0.6881(2) 0.1068(4) 0.3216(2)
H4_2 H 0.6853 0.1814 0.3047
C7_2 C 0.8099(2) 0.0298(4) 0.2342(2)
C8_2 C 0.8632(2) 0.0758(4) 0.2260(2)
H5_2 H 0.8759 0.1369 0.2505
C9_2 C 0.89772(19) 0.0300(4) 0.1810(2)
H6_2 H 0.9336 0.0611 0.1752
O20_3 O 0.42842(12) 0.0124(3) 0.55175(14)
O25_3 O 0.51786(11) 0.1860(2) 0.51163(13)
Mg2_2 Mg 0.55942(6) 0.71110(12) 0.50243(7)
O1_2 O 0.60331(13) 0.8036(3) 0.43898(16)
O2_2 O 0.52249(15) 0.6017(3) 0.56770(15)
O3_2 O 0.57158(12) 0.9876(3) 0.44825(14)
O5_2 O 0.90275(13) 0.7979(3) 0.07057(15)
O7_2 O 0.48214(11) 0.8140(2) 0.48837(13)
O8_2 O 0.49558(12) 0.6463(2) 0.44253(14)
O9_2 O 0.2500 0.7500 0.3442(2)
O10_2 O 0.60843(17) 0.5757(3) 0.4825(2)
C2_2 C 0.7373(2) 0.9235(4) 0.3316(2)
H1_2 H 0.7678 0.8755 0.3219
C3_2 C 0.69491(19) 0.8837(4) 0.3694(2)
H2_2 H 0.6969 0.8077 0.3847
C4_2 C 0.64939(17) 0.9546(4) 0.38497(19)
C10_2 C 0.87923(18) 0.9386(4) 0.1448(2)
C11_2 C 0.8261(2) 0.8923(4) 0.1548(2)
H7_2 H 0.8138 0.8292 0.1316
C12_2 C 0.7911(2) 0.9380(4) 0.1988(2)
H8_2 H 0.7551 0.9073 0.2044
C13_2 C 0.60427(18) 0.9123(4) 0.4273(2)
C14_2 C 0.91581(19) 0.8950(4) 0.0934(2)
C15_2 C 0.30062(19) 0.7419(5) 0.3767(2)
C16_2 C 0.3381(2) 0.6562(5) 0.3588(2)
H9_2 H 0.3282 0.6014 0.3294
C17_2 C 0.39088(19) 0.6536(4) 0.3854(2)
H10_2 H 0.4167 0.5963 0.3737
C18_2 C 0.40592(17) 0.7346(4) 0.42918(19)
C19_2 C 0.36732(18) 0.8184(4) 0.4475(2)
H11_2 H 0.3767 0.8721 0.4776
C20_2 C 0.31387(18) 0.8219(4) 0.4203(2)
H12_2 H 0.2877 0.8783 0.4321
C21_2 C 0.46392(17) 0.7317(4) 0.45454(19)
C22_2 C 0.7035(3) 0.5828(7) 0.5189(4)
H13_2 H 0.6895 0.6482 0.5419
H14_2 H 0.7336 0.6086 0.4932
H15_2 H 0.7172 0.5233 0.5460
C23_2 C 0.6548(3) 0.5308(5) 0.4793(3)
C24_2 C 0.6188(3) 0.3954(6) 0.4090(3)
H16_2 H 0.5871 0.4477 0.4117
H17_2 H 0.6083 0.3193 0.4240
H18_2 H 0.6304 0.3889 0.3675
C25_2 C 0.7190(3) 0.3762(6) 0.4478(4)
H19_2 H 0.7455 0.4181 0.4726
H20_2 H 0.7340 0.3679 0.4076
H21_2 H 0.7123 0.2998 0.4648
N1_2 N 0.6655(2) 0.4419(5) 0.4452(3)
O11_2 O 0.01786(11) 0.6860(2) 0.48837(13)
O12_2 O 0.00442(12) 0.8537(2) 0.44253(14)
C26_2 C 0.19938(19) 0.7581(5) 0.3767(2)
C27_2 C 0.1619(2) 0.8438(5) 0.3588(2)
H22_2 H 0.1718 0.8986 0.3294
C28_2 C 0.10912(19) 0.8464(4) 0.3854(2)
H23_2 H 0.0833 0.9037 0.3737
C29_2 C 0.09408(17) 0.7654(4) 0.42918(19)
C30_2 C 0.13268(18) 0.6816(4) 0.4475(2)
H24_2 H 0.1233 0.6279 0.4776
C31_2 C 0.18613(18) 0.6781(4) 0.4203(2)
H25_2 H 0.2123 0.6217 0.4321
C32_2 C 0.03608(17) 0.7683(4) 0.45454(19)
Mg8_2 Mg 0.94058(6) 0.71110(12) 0.00243(7)
O22_3 O 0.54413(12) 0.9595(3) 0.57717(13)
O24_2 O 0.59725(13) 0.7979(3) 0.57057(15)
H45_2 H 0.0100677 0.940395 0.549541
Mg3_2 Mg 0.94058(6) 0.78890(12) 0.50243(7)
O13_2 O 0.89669(13) 0.6964(3) 0.43898(16)
O14_2 O 0.97751(15) 0.8983(3) 0.56770(15)
O15_2 O 0.92842(12) 0.5124(3) 0.44825(14)
O17_2 O 0.59725(13) 0.7021(3) 0.07057(15)
O18_2 O 0.72307(16) 0.4110(3) 0.27603(17)
O19_2 O 0.89157(17) 0.9243(3) 0.4825(2)
C33_2 C 0.7665(2) 0.4638(4) 0.3084(2)
C34_2 C 0.7627(2) 0.5765(4) 0.3316(2)
H26_2 H 0.7322 0.6245 0.3219
C35_2 C 0.80509(19) 0.6163(4) 0.3694(2)
H27_2 H 0.8031 0.6923 0.3847
C36_2 C 0.85061(17) 0.5454(4) 0.38497(19)
C37_2 C 0.85332(19) 0.4337(4) 0.3602(2)
H28_2 H 0.8836 0.3852 0.3698
C38_2 C 0.8119(2) 0.3932(4) 0.3216(2)
H29_2 H 0.8147 0.3186 0.3047
C39_2 C 0.6901(2) 0.4702(4) 0.2342(2)
C40_2 C 0.6368(2) 0.4242(4) 0.2260(2)
H30_2 H 0.6241 0.3631 0.2505
C41_2 C 0.60228(19) 0.4700(4) 0.1810(2)
H31_2 H 0.5664 0.4389 0.1752
C42_2 C 0.62077(18) 0.5614(4) 0.1448(2)
C43_2 C 0.6739(2) 0.6077(4) 0.1548(2)
H32_2 H 0.6862 0.6708 0.1316
C44_2 C 0.7089(2) 0.5620(4) 0.1988(2)
H33_2 H 0.7449 0.5927 0.2044
C45_2 C 0.89573(18) 0.5877(4) 0.4273(2)
C46_2 C 0.58419(19) 0.6050(4) 0.0934(2)
C47_2 C 0.7965(3) 0.9172(7) 0.5189(4)
H34_2 H 0.8105 0.8518 0.5419
H35_2 H 0.7664 0.8914 0.4932
H36_2 H 0.7828 0.9767 0.5460
C48_2 C 0.8452(3) 0.9692(5) 0.4793(3)
Mg7_2 Mg 0.55942(6) 0.78890(12) 0.00243(7)
O23_2 O 0.90275(13) 0.7021(3) 0.57057(15)
H46_2 H 0.949256 0.956345 0.582112
O20_4 O 0.07158(12) 0.4876(3) 0.55175(14)
H44_2 H 0.0147176 0.86572 0.579713
O22_4 O 0.95587(12) 0.5405(3) 0.57717(13)
O25_4 O 0.98214(11) 0.3140(2) 0.51163(13)
H43_2 H 0.952593 0.90275 0.603767
C24_3 C 0.6188(3) 0.1046(6) 0.9090(3)
H16_3 H 0.5871 0.0523 0.9117
H17_3 H 0.6083 0.1807 0.9240
H18_3 H 0.6304 0.1111 0.8675
C25_3 C 0.7190(3) 0.1238(6) 0.9478(4)
H19_3 H 0.7455 0.0819 0.9726
H20_3 H 0.7340 0.1321 0.9076
H21_3 H 0.7123 0.2002 0.9648
N1_3 N 0.6655(2) 0.0581(5) 0.9452(3)
O2_3 O 0.52249(15) 0.8983(3) 0.06770(15)
C22_3 C 0.7035(3) 0.9172(7) 0.0189(4)
H13_3 H 0.6895 0.8518 0.0419
H15_3 H 0.7172 0.9767 0.0460
H45_3 H 0.0100677 0.559605 0.0495406
O1_3 O 0.60331(13) 0.6964(3) 0.93898(16)
O6_3 O 0.77693(16) 0.4110(3) 0.77603(17)
O8_3 O 0.49558(12) 0.8537(2) 0.94253(14)
O9_3 O 0.2500 0.7500 0.8442(2)
O10_3 O 0.60843(17) 0.9243(3) 0.9825(2)
C1_3 C 0.7335(2) 0.4638(4) 0.8084(2)
C2_3 C 0.7373(2) 0.5765(4) 0.8316(2)
H1_3 H 0.7678 0.6245 0.8219
C3_3 C 0.69491(19) 0.6163(4) 0.8694(2)
H2_3 H 0.6969 0.6923 0.8847
C4_3 C 0.64939(17) 0.5454(4) 0.88497(19)
C5_3 C 0.64668(19) 0.4337(4) 0.8602(2)
H3_3 H 0.6164 0.3852 0.8698
C6_3 C 0.6881(2) 0.3932(4) 0.8216(2)
H4_3 H 0.6853 0.3186 0.8047
C7_3 C 0.8099(2) 0.4702(4) 0.7342(2)
C8_3 C 0.8632(2) 0.4242(4) 0.7260(2)
H5_3 H 0.8759 0.3631 0.7505
C9_3 C 0.89772(19) 0.4700(4) 0.6810(2)
H6_3 H 0.9336 0.4389 0.6752
C10_3 C 0.87923(18) 0.5614(4) 0.6448(2)
C11_3 C 0.8261(2) 0.6077(4) 0.6548(2)
H7_3 H 0.8138 0.6708 0.6316
C12_3 C 0.7911(2) 0.5620(4) 0.6988(2)
H8_3 H 0.7551 0.5927 0.7044
C13_3 C 0.60427(18) 0.5877(4) 0.9273(2)
C14_3 C 0.91581(19) 0.6050(4) 0.5934(2)
C15_3 C 0.30062(19) 0.7581(5) 0.8767(2)
C16_3 C 0.3381(2) 0.8438(5) 0.8588(2)
H9_3 H 0.3282 0.8986 0.8294
C17_3 C 0.39088(19) 0.8464(4) 0.8854(2)
H10_3 H 0.4167 0.9037 0.8737
C18_3 C 0.40592(17) 0.7654(4) 0.92918(19)
C19_3 C 0.36732(18) 0.6816(4) 0.9475(2)
H11_3 H 0.3767 0.6279 0.9776
C20_3 C 0.31387(18) 0.6781(4) 0.9203(2)
H12_3 H 0.2877 0.6217 0.9321
C21_3 C 0.46392(17) 0.7683(4) 0.95454(19)
H14_3 H 0.7336 0.8914 0.9932
C23_3 C 0.6548(3) 0.9692(5) 0.9793(3)
O12_3 O 0.00442(12) 0.6463(2) 0.94253(14)
C26_3 C 0.19938(19) 0.7419(5) 0.8767(2)
C27_3 C 0.1619(2) 0.6562(5) 0.8588(2)
H22_3 H 0.1718 0.6014 0.8294
C28_3 C 0.10912(19) 0.6536(4) 0.8854(2)
H23_3 H 0.0833 0.5963 0.8737
C29_3 C 0.09408(17) 0.7346(4) 0.92918(19)
C30_3 C 0.13268(18) 0.8184(4) 0.9475(2)
H24_3 H 0.1233 0.8721 0.9776
C31_3 C 0.18613(18) 0.8219(4) 0.9203(2)
H25_3 H 0.2123 0.8783 0.9321
C32_3 C 0.03608(17) 0.7317(4) 0.95454(19)
O18_3 O 0.72307(16) 0.0890(3) 0.77603(17)
C33_3 C 0.7665(2) 0.0362(4) 0.8084(2)
C37_3 C 0.85332(19) 0.0663(4) 0.8602(2)
H28_3 H 0.8836 0.1148 0.8698
C38_3 C 0.8119(2) 0.1068(4) 0.8216(2)
H29_3 H 0.8147 0.1814 0.8047
C39_3 C 0.6901(2) 0.0298(4) 0.7342(2)
C40_3 C 0.6368(2) 0.0758(4) 0.7260(2)
H30_3 H 0.6241 0.1369 0.7505
C41_3 C 0.60228(19) 0.0300(4) 0.6810(2)
H31_3 H 0.5664 0.0611 0.6752
O14_3 O 0.97751(15) 0.6017(3) 0.06770(15)
C47_3 C 0.7965(3) 0.5828(7) 0.0189(4)
H34_3 H 0.8105 0.6482 0.0419
H36_3 H 0.7828 0.5233 0.0460
H46_3 H 0.949256 0.543655 0.0821123
O13_3 O 0.89669(13) 0.8036(3) 0.93898(16)
O19_3 O 0.89157(17) 0.5757(3) 0.9825(2)
C34_3 C 0.7627(2) 0.9235(4) 0.8316(2)
H26_3 H 0.7322 0.8755 0.8219
C35_3 C 0.80509(19) 0.8837(4) 0.8694(2)
H27_3 H 0.8031 0.8077 0.8847
C36_3 C 0.85061(17) 0.9546(4) 0.88497(19)
C42_3 C 0.62077(18) 0.9386(4) 0.6448(2)
C43_3 C 0.6739(2) 0.8923(4) 0.6548(2)
H32_3 H 0.6862 0.8292 0.6316
C44_3 C 0.7089(2) 0.9380(4) 0.6988(2)
H33_3 H 0.7449 0.9073 0.7044
C45_3 C 0.89573(18) 0.9123(4) 0.9273(2)
C46_3 C 0.58419(19) 0.8950(4) 0.5934(2)
H35_3 H 0.7664 0.6086 0.9932
C48_3 C 0.8452(3) 0.5308(5) 0.9793(3)
C49_2 C 0.8812(3) 0.3954(6) 0.9090(3)
H37_2 H 0.9129 0.4477 0.9117
H38_2 H 0.8917 0.3193 0.9240
H39_2 H 0.8696 0.3889 0.8675
C50_2 C 0.7810(3) 0.3762(6) 0.9478(4)
H40_2 H 0.7545 0.4181 0.9726
H41_2 H 0.7660 0.3679 0.9076
H42_2 H 0.7877 0.2998 0.9648
N2_2 N 0.8345(2) 0.4419(5) 0.9452(3)
H44_3 H 0.0147176 0.63428 0.0797126
H43_3 H 0.952593 0.59725 0.103767
O13_4 O 0.10331(13) 0.3036(3) 0.56102(16)
O14_4 O 0.02249(15) 0.1017(3) 0.43230(15)
O18_4 O 0.27693(16) 0.5890(3) 0.72397(17)
O19_4 O 0.10843(17) 0.0757(3) 0.5175(2)
C33_4 C 0.2335(2) 0.5362(4) 0.6916(2)
C34_4 C 0.2373(2) 0.4235(4) 0.6684(2)
H26_4 H 0.2678 0.3755 0.6781
C35_4 C 0.19491(19) 0.3837(4) 0.6306(2)
H27_4 H 0.1969 0.3077 0.6153
C36_4 C 0.14939(17) 0.4546(4) 0.61503(19)
C37_4 C 0.14668(19) 0.5663(4) 0.6398(2)
H28_4 H 0.1164 0.6148 0.6302
C38_4 C 0.1881(2) 0.6068(4) 0.6784(2)
H29_4 H 0.1853 0.6814 0.6953
C39_4 C 0.3099(2) 0.5298(4) 0.7658(2)
C40_4 C 0.3632(2) 0.5758(4) 0.7740(2)
H30_4 H 0.3759 0.6369 0.7495
C41_4 C 0.39772(19) 0.5300(4) 0.8190(2)
H31_4 H 0.4336 0.5611 0.8248
C42_4 C 0.37923(18) 0.4386(4) 0.8552(2)
C43_4 C 0.3261(2) 0.3923(4) 0.8452(2)
H32_4 H 0.3138 0.3292 0.8684
C44_4 C 0.2911(2) 0.4380(4) 0.8012(2)
H33_4 H 0.2551 0.4073 0.7956
C45_4 C 0.10427(18) 0.4123(4) 0.5727(2)
C46_4 C 0.41581(19) 0.3950(4) 0.9066(2)
C47_4 C 0.2035(3) 0.0828(7) 0.4811(4)
H34_4 H 0.1895 0.1482 0.4581
H35_4 H 0.2336 0.1086 0.5068
H36_4 H 0.2172 0.0233 0.4540
C48_4 C 0.1548(3) 0.0308(5) 0.5207(3)
H46_4 H 0.0507443 0.0436554 0.417888
O1_4 O 0.39669(13) 0.1964(3) 0.56102(16)
O2_4 O 0.47751(15) 0.3983(3) 0.43230(15)
O8_4 O 0.50442(12) 0.3537(2) 0.55747(14)
O9_4 O 0.7500 0.2500 0.6558(2)
O10_4 O 0.39157(17) 0.4243(3) 0.5175(2)
C2_4 C 0.2627(2) 0.0765(4) 0.6684(2)
H1_4 H 0.2322 0.1245 0.6781
C3_4 C 0.30509(19) 0.1163(4) 0.6306(2)
H2_4 H 0.3031 0.1923 0.6153
C4_4 C 0.35061(17) 0.0454(4) 0.61503(19)
C10_4 C 0.12077(18) 0.0614(4) 0.8552(2)
C11_4 C 0.1739(2) 0.1077(4) 0.8452(2)
H7_4 H 0.1862 0.1708 0.8684
C12_4 C 0.2089(2) 0.0620(4) 0.8012(2)
H8_4 H 0.2449 0.0927 0.7956
C13_4 C 0.39573(18) 0.0877(4) 0.5727(2)
C14_4 C 0.08419(19) 0.1050(4) 0.9066(2)
C15_4 C 0.69938(19) 0.2581(5) 0.6233(2)
C16_4 C 0.6619(2) 0.3438(5) 0.6412(2)
H9_4 H 0.6718 0.3986 0.6706
C17_4 C 0.60912(19) 0.3464(4) 0.6146(2)
H10_4 H 0.5833 0.4037 0.6263
C18_4 C 0.59408(17) 0.2654(4) 0.57082(19)
C19_4 C 0.63268(18) 0.1816(4) 0.5525(2)
H11_4 H 0.6233 0.1279 0.5224
C20_4 C 0.68613(18) 0.1781(4) 0.5797(2)
H12_4 H 0.7123 0.1217 0.5679
C21_4 C 0.53608(17) 0.2683(4) 0.54546(19)
C22_4 C 0.2965(3) 0.4172(7) 0.4811(4)
H13_4 H 0.3105 0.3518 0.4581
H14_4 H 0.2664 0.3914 0.5068
H15_4 H 0.2828 0.4767 0.4540
C23_4 C 0.3452(3) 0.4692(5) 0.5207(3)
C24_4 C 0.3812(3) 0.6046(6) 0.5910(3)
H16_4 H 0.4129 0.5523 0.5883
H17_4 H 0.3917 0.6807 0.5760
H18_4 H 0.3696 0.6111 0.6325
C25_4 C 0.2810(3) 0.6238(6) 0.5522(4)
H19_4 H 0.2545 0.5819 0.5274
H20_4 H 0.2660 0.6321 0.5924
H21_4 H 0.2877 0.7002 0.5352
N1_4 N 0.3345(2) 0.5581(5) 0.5548(3)
O12_4 O 0.99558(12) 0.1463(2) 0.55747(14)
C26_4 C 0.80062(19) 0.2419(5) 0.6233(2)
C27_4 C 0.8381(2) 0.1562(5) 0.6412(2)
H22_4 H 0.8282 0.1014 0.6706
C28_4 C 0.89088(19) 0.1536(4) 0.6146(2)
H23_4 H 0.9167 0.0963 0.6263
C29_4 C 0.90592(17) 0.2346(4) 0.57082(19)
C30_4 C 0.86732(18) 0.3184(4) 0.5525(2)
H24_4 H 0.8767 0.3721 0.5224
C31_4 C 0.81387(18) 0.3219(4) 0.5797(2)
H25_4 H 0.7877 0.3783 0.5679
C32_4 C 0.96392(17) 0.2317(4) 0.54546(19)
H45_4 H 0.989932 0.0596051 0.450459
O6_4 O 0.22307(16) 0.9110(3) 0.72397(17)
C1_4 C 0.2665(2) 0.9638(4) 0.6916(2)
C5_4 C 0.35332(19) 0.9337(4) 0.6398(2)
H3_4 H 0.3836 0.8852 0.6302
C6_4 C 0.3119(2) 0.8932(4) 0.6784(2)
H4_4 H 0.3147 0.8186 0.6953
C7_4 C 0.1901(2) 0.9702(4) 0.7658(2)
C8_4 C 0.1368(2) 0.9242(4) 0.7740(2)
H5_4 H 0.1241 0.8631 0.7495
C9_4 C 0.10228(19) 0.9700(4) 0.8190(2)
H6_4 H 0.0664 0.9389 0.8248
H43_4 H 0.047407 0.0972504 0.396233
H44_4 H 0.985282 0.13428 0.420287
C49_3 C 0.8812(3) 0.1046(6) 0.4090(3)
H37_3 H 0.9129 0.0523 0.4117
H38_3 H 0.8917 0.1807 0.4240
H39_3 H 0.8696 0.1111 0.3675
C50_3 C 0.7810(3) 0.1238(6) 0.4478(4)
H40_3 H 0.7545 0.0819 0.4726
H41_3 H 0.7660 0.1321 0.4076
H42_3 H 0.7877 0.2002 0.4648
N2_3 N 0.8345(2) 0.0581(5) 0.4452(3)
C49_4 C 0.1188(3) 0.8954(6) 0.5910(3)
H37_4 H 0.0871 0.9477 0.5883
H38_4 H 0.1083 0.8193 0.5760
H39_4 H 0.1304 0.8889 0.6325
C50_4 C 0.2190(3) 0.8762(6) 0.5522(4)
H40_4 H 0.2455 0.9181 0.5274
H41_4 H 0.2340 0.8679 0.5924
H42_4 H 0.2123 0.7998 0.5352
N2_4 N 0.1655(2) 0.9419(5) 0.5548(3)
loop_
_geom_bond_atom_site_label_1
_geom_bond_atom_site_label_2
_geom_bond_site_symmetry_1
_geom_bond_site_symmetry_2
O15 C45 1_555 1_555
O16 C46 1_555 1_555
O17 C46 1_555 1_555
C34 H26 1_555 1_555
C35 C34 1_555 1_555
H27 C35 1_555 1_555
C36 C35 1_555 1_555
C43 C42 1_555 1_555
H32 C43 1_555 1_555
H33 C44 1_555 1_555
C45 O13 1_555 1_555
C46 C42 1_555 1_555
C48 O19 1_555 1_555
C49 H37 1_555 1_555
H38 C49 1_555 1_555
H39 C49 1_555 1_555
C50 H40 1_555 1_555
H41 C50 1_555 1_555
H42 C50 1_555 1_555
N2 C48 1_555 1_555
Mg5 O16 1_555 1_555
Mg7 O17 1_555 1_555
O15 Mg4 1_555 1_555
C36 C45 1_555 1_555
C43 C44 1_555 1_555
C49 N2 1_555 1_555
C50 N2 1_555 1_555
O14 Mg3 1_555 1_555
C47 H34 1_555 1_555
H36 C47 1_555 1_555
O23 Mg3 1_555 1_555
O14 H46 1_555 1_555
O18 C33 1_555 1_555
H28 C37 1_555 1_555
C38 C33 1_555 1_555
H29 C38 1_555 1_555
C39 O18 1_555 1_555
C40 C39 1_555 1_555
H30 C40 1_555 1_555
C41 C40 1_555 1_555
H31 C41 1_555 1_555
C37 C38 1_555 1_555
Mg1 O3 1_555 1_555
O1 C13 1_555 1_555
O3 C13 1_555 1_555
O4 C14 1_555 1_555
O5 C14 1_555 1_555
O6 C1 1_555 1_555
O7 Mg1 1_555 1_555
O9 C15 1_555 1_555
C1 C2 1_555 1_555
C2 H1 1_555 1_555
C3 C2 1_555 1_555
H2 C3 1_555 1_555
C4 C3 1_555 1_555
C5 C4 1_555 1_555
H3 C5 1_555 1_555
C6 C1 1_555 1_555
H4 C6 1_555 1_555
C7 O6 1_555 1_555
C8 C7 1_555 1_555
H5 C8 1_555 1_555
C9 C8 1_555 1_555
H6 C9 1_555 1_555
C10 C9 1_555 1_555
C11 C10 1_555 1_555
H7 C11 1_555 1_555
C12 C7 1_555 1_555
H8 C12 1_555 1_555
C13 C4 1_555 1_555
C14 C10 1_555 1_555
C15 C16 1_555 1_555
C16 H9 1_555 1_555
C17 C16 1_555 1_555
H10 C17 1_555 1_555
C18 C17 1_555 1_555
C19 C18 1_555 1_555
H11 C19 1_555 1_555
C20 C15 1_555 1_555
H12 C20 1_555 1_555
C21 O7 1_555 1_555
C23 O10 1_555 1_555
O11 C32 1_555 1_555
O12 C32 1_555 1_555
C26 O9 1_555 1_555
C27 C26 1_555 1_555
H22 C27 1_555 1_555
C28 C27 1_555 1_555
H23 C28 1_555 1_555
C29 C28 1_555 1_555
C30 C29 1_555 1_555
H24 C30 1_555 1_555
C31 C26 1_555 1_555
H25 C31 1_555 1_555
C32 C29 1_555 1_555
Mg4_5 O11 1_555 1_555
Mg6 O4 1_555 1_555
Mg8 O5 1_555 1_555
O21 Mg1 1_555 1_555
O8 C21 1_555 1_555
C5 C6 1_555 1_555
C11 C12 1_555 1_555
C18 C21 1_555 1_555
C19 C20 1_555 1_555
C30 C31 1_555 1_555
O2 Mg2 1_555 1_555
C22 H13 1_555 1_555
H15 C22 1_555 1_555
O20 Mg1_2 1_555 1_555
O22 Mg1_2 1_555 1_555
O24 Mg2 1_555 1_555
O25 Mg1_2 1_555 1_555
C24 H16 1_555 1_555
H17 C24 1_555 1_555
H18 C24 1_555 1_555
C25 H19 1_555 1_555
H20 C25 1_555 1_555
H21 C25 1_555 1_555
C24 N1 1_555 1_555
C25 N1 1_555 1_555
O22_2 Mg4_2 1_555 1_555
O14 H43 1_555 1_555
O25_2 Mg4_4 1_555 1_555
O21_2 Mg4_7 1_555 1_555
O20_2 Mg4_8 1_555 1_555
O6_2 C1_2 1_555 1_555
H3_2 C5_2 1_555 1_555
C6_2 C1_2 1_555 1_555
H4_2 C6_2 1_555 1_555
C7_2 O6_2 1_555 1_555
C8_2 C7_2 1_555 1_555
H5_2 C8_2 1_555 1_555
C9_2 C8_2 1_555 1_555
H6_2 C9_2 1_555 1_555
O20_3 Mg5 1_555 1_555
O25_3 Mg5 1_555 1_555
C5_2 C6_2 1_555 1_555
Mg5_2 O3_2 1_555 1_555
Mg2_2 O1_2 1_555 1_555
O1_2 C13_2 1_555 1_555
O2_2 Mg2_2 1_555 1_555
O3_2 C13_2 1_555 1_555
O21_2 C14_2 1_555 1_555
O5_2 C14_2 1_555 1_555
O7_2 Mg5_2 1_555 1_555
O8_2 Mg2_2 1_555 1_555
O9_2 C15_2 1_555 1_555
O10_2 Mg2_2 1_555 1_555
C2_2 H1_2 1_555 1_555
C3_2 C2_2 1_555 1_555
H2_2 C3_2 1_555 1_555
C4_2 C3_2 1_555 1_555
C11_2 C10_2 1_555 1_555
H7_2 C11_2 1_555 1_555
H8_2 C12_2 1_555 1_555
C13_2 C4_2 1_555 1_555
C14_2 C10_2 1_555 1_555
C15_2 C16_2 1_555 1_555
C16_2 H9_2 1_555 1_555
C17_2 C16_2 1_555 1_555
H10_2 C17_2 1_555 1_555
C18_2 C17_2 1_555 1_555
C19_2 C18_2 1_555 1_555
H11_2 C19_2 1_555 1_555
C20_2 C15_2 1_555 1_555
H12_2 C20_2 1_555 1_555
C21_2 O7_2 1_555 1_555
C22_2 H13_2 1_555 1_555
H14_2 C22_2 1_555 1_555
H15_2 C22_2 1_555 1_555
C23_2 O10_2 1_555 1_555
C24_2 H16_2 1_555 1_555
H17_2 C24_2 1_555 1_555
H18_2 C24_2 1_555 1_555
C25_2 H19_2 1_555 1_555
H20_2 C25_2 1_555 1_555
H21_2 C25_2 1_555 1_555
N1_2 C23_2 1_555 1_555
O11_2 C32_2 1_555 1_555
O12_2 C32_2 1_555 1_555
C26_2 O9_2 1_555 1_555
C27_2 C26_2 1_555 1_555
H22_2 C27_2 1_555 1_555
C28_2 C27_2 1_555 1_555
H23_2 C28_2 1_555 1_555
C29_2 C28_2 1_555 1_555
C30_2 C29_2 1_555 1_555
H24_2 C30_2 1_555 1_555
C31_2 C26_2 1_555 1_555
H25_2 C31_2 1_555 1_555
C32_2 C29_2 1_555 1_555
Mg6 O11_2 1_555 1_555
Mg8_2 O5_2 1_555 1_555
O22_3 Mg5_2 1_555 1_555
O24_2 Mg2_2 1_555 1_555
Mg2_2 O7_2 1_555 1_555
O8_2 C21_2 1_555 1_555
C11_2 C12_2 1_555 1_555
C18_2 C21_2 1_555 1_555
C19_2 C20_2 1_555 1_555
C22_2 C23_2 1_555 1_555
C24_2 N1_2 1_555 1_555
C25_2 N1_2 1_555 1_555
C30_2 C31_2 1_555 1_555
O13_2 Mg3_2 1_555 1_555
O14_2 Mg3_2 1_555 1_555
O15_2 C45_2 1_555 1_555
O21 C46_2 1_555 1_555
O17_2 C46_2 1_555 1_555
O18_2 C33_2 1_555 1_555
O19_2 Mg3_2 1_555 1_555
C33_2 C34_2 1_555 1_555
C34_2 H26_2 1_555 1_555
C35_2 C34_2 1_555 1_555
H27_2 C35_2 1_555 1_555
C36_2 C35_2 1_555 1_555
C37_2 C36_2 1_555 1_555
H28_2 C37_2 1_555 1_555
C38_2 C33_2 1_555 1_555
H29_2 C38_2 1_555 1_555
C39_2 O18_2 1_555 1_555
C40_2 C39_2 1_555 1_555
H30_2 C40_2 1_555 1_555
C41_2 C40_2 1_555 1_555
H31_2 C41_2 1_555 1_555
C42_2 C41_2 1_555 1_555
C43_2 C42_2 1_555 1_555
H32_2 C43_2 1_555 1_555
C44_2 C39_2 1_555 1_555
H33_2 C44_2 1_555 1_555
C45_2 O13_2 1_555 1_555
C46_2 C42_2 1_555 1_555
C47_2 H34_2 1_555 1_555
H35_2 C47_2 1_555 1_555
H36_2 C47_2 1_555 1_555
C48_2 O19_2 1_555 1_555
Mg7_2 O17_2 1_555 1_555
O23_2 Mg3_2 1_555 1_555
O15_2 Mg6_2 1_555 1_555
C36_2 C45_2 1_555 1_555
C37_2 C38_2 1_555 1_555
C43_2 C44_2 1_555 1_555
C47_2 C48_2 1_555 1_555
O14_2 H46_2 1_555 1_555
O20_4 Mg6 1_555 1_555
O22_4 Mg6_2 1_555 1_555
O25_4 Mg6_2 1_555 1_555
O14_2 H43_2 1_555 1_555
C24_3 H16_3 1_555 1_555
H17_3 C24_3 1_555 1_555
H18_3 C24_3 1_555 1_555
C25_3 H19_3 1_555 1_555
H20_3 C25_3 1_555 1_555
H21_3 C25_3 1_555 1_555
C24_3 N1_3 1_555 1_555
C25_3 N1_3 1_555 1_555
O2_3 Mg7_2 1_555 1_555
C22_3 H13_3 1_555 1_555
H15_3 C22_3 1_555 1_555
O1_3 C13_3 1_555 1_555
O20 C13_3 1_555 1_555
O22_4 C14_3 1_555 1_555
O23_2 C14_3 1_555 1_555
O6_3 C1_3 1_555 1_555
O9_3 C15_3 1_555 1_555
C1_3 C2_3 1_555 1_555
C2_3 H1_3 1_555 1_555
C3_3 C2_3 1_555 1_555
H2_3 C3_3 1_555 1_555
C4_3 C3_3 1_555 1_555
C5_3 C4_3 1_555 1_555
H3_3 C5_3 1_555 1_555
C6_3 C1_3 1_555 1_555
H4_3 C6_3 1_555 1_555
C7_3 O6_3 1_555 1_555
C8_3 C7_3 1_555 1_555
H5_3 C8_3 1_555 1_555
C9_3 C8_3 1_555 1_555
H6_3 C9_3 1_555 1_555
C10_3 C9_3 1_555 1_555
C11_3 C10_3 1_555 1_555
H7_3 C11_3 1_555 1_555
C12_3 C7_3 1_555 1_555
H8_3 C12_3 1_555 1_555
C13_3 C4_3 1_555 1_555
C14_3 C10_3 1_555 1_555
C15_3 C16_3 1_555 1_555
C16_3 H9_3 1_555 1_555
C17_3 C16_3 1_555 1_555
H10_3 C17_3 1_555 1_555
C18_3 C17_3 1_555 1_555
C19_3 C18_3 1_555 1_555
H11_3 C19_3 1_555 1_555
C20_3 C15_3 1_555 1_555
H12_3 C20_3 1_555 1_555
C21_3 O25 1_555 1_555
C23_3 O10_3 1_555 1_555
O25_2 C32_3 1_555 1_555
O12_3 C32_3 1_555 1_555
C26_3 O9_3 1_555 1_555
C27_3 C26_3 1_555 1_555
H22_3 C27_3 1_555 1_555
C28_3 C27_3 1_555 1_555
H23_3 C28_3 1_555 1_555
C29_3 C28_3 1_555 1_555
C30_3 C29_3 1_555 1_555
H24_3 C30_3 1_555 1_555
C31_3 C26_3 1_555 1_555
H25_3 C31_3 1_555 1_555
C32_3 C29_3 1_555 1_555
O8_3 C21_3 1_555 1_555
C5_3 C6_3 1_555 1_555
C11_3 C12_3 1_555 1_555
C18_3 C21_3 1_555 1_555
C19_3 C20_3 1_555 1_555
C30_3 C31_3 1_555 1_555
O18_3 C33_3 1_555 1_555
H28_3 C37_3 1_555 1_555
C38_3 C33_3 1_555 1_555
H29_3 C38_3 1_555 1_555
C39_3 O18_3 1_555 1_555
C40_3 C39_3 1_555 1_555
H30_3 C40_3 1_555 1_555
C41_3 C40_3 1_555 1_555
H31_3 C41_3 1_555 1_555
C37_3 C38_3 1_555 1_555
O14_3 Mg8_2 1_555 1_555
C47_3 H34_3 1_555 1_555
H36_3 C47_3 1_555 1_555
O14_3 H46_3 1_555 1_555
O20_2 C45_3 1_555 1_555
O22_3 C46_3 1_555 1_555
O24_2 C46_3 1_555 1_555
C34_3 H26_3 1_555 1_555
C35_3 C34_3 1_555 1_555
H27_3 C35_3 1_555 1_555
C36_3 C35_3 1_555 1_555
C43_3 C42_3 1_555 1_555
H32_3 C43_3 1_555 1_555
H33_3 C44_3 1_555 1_555
C45_3 O13_3 1_555 1_555
C46_3 C42_3 1_555 1_555
C48_3 O19_3 1_555 1_555
C49_2 H37_2 1_555 1_555
H38_2 C49_2 1_555 1_555
H39_2 C49_2 1_555 1_555
C50_2 H40_2 1_555 1_555
H41_2 C50_2 1_555 1_555
H42_2 C50_2 1_555 1_555
N2_2 C48_3 1_555 1_555
C36_3 C45_3 1_555 1_555
C43_3 C44_3 1_555 1_555
C49_2 N2_2 1_555 1_555
C50_2 N2_2 1_555 1_555
O14_3 H43_3 1_555 1_555
O13_4 Mg8 1_555 1_555
O14_4 Mg8 1_555 1_555
O20_4 C45_4 1_555 1_555
O22 C46_4 1_555 1_555
O24 C46_4 1_555 1_555
O18_4 C33_4 1_555 1_555
O19_4 Mg8 1_555 1_555
C33_4 C34_4 1_555 1_555
C34_4 H26_4 1_555 1_555
C35_4 C34_4 1_555 1_555
H27_4 C35_4 1_555 1_555
C36_4 C35_4 1_555 1_555
C37_4 C36_4 1_555 1_555
H28_4 C37_4 1_555 1_555
C38_4 C33_4 1_555 1_555
H29_4 C38_4 1_555 1_555
C39_4 O18_4 1_555 1_555
C40_4 C39_4 1_555 1_555
H30_4 C40_4 1_555 1_555
C41_4 C40_4 1_555 1_555
H31_4 C41_4 1_555 1_555
C42_4 C41_4 1_555 1_555
C43_4 C42_4 1_555 1_555
H32_4 C43_4 1_555 1_555
C44_4 C39_4 1_555 1_555
H33_4 C44_4 1_555 1_555
C45_4 O13_4 1_555 1_555
C46_4 C42_4 1_555 1_555
C47_4 H34_4 1_555 1_555
H35_4 C47_4 1_555 1_555
H36_4 C47_4 1_555 1_555
C48_4 O19_4 1_555 1_555
C36_4 C45_4 1_555 1_555
C37_4 C38_4 1_555 1_555
C43_4 C44_4 1_555 1_555
C47_4 C48_4 1_555 1_555
O14_4 H46_4 1_555 1_555
Mg7 O1_4 1_555 1_555
O1_4 C13_4 1_555 1_555
O2_4 Mg7 1_555 1_555
O20_3 C13_4 1_555 1_555
O22_2 C14_4 1_555 1_555
O23 C14_4 1_555 1_555
O8_4 Mg7 1_555 1_555
O9_4 C15_4 1_555 1_555
O10_4 Mg7 1_555 1_555
C2_4 H1_4 1_555 1_555
C3_4 C2_4 1_555 1_555
H2_4 C3_4 1_555 1_555
C4_4 C3_4 1_555 1_555
C11_4 C10_4 1_555 1_555
H7_4 C11_4 1_555 1_555
H8_4 C12_4 1_555 1_555
C13_4 C4_4 1_555 1_555
C14_4 C10_4 1_555 1_555
C15_4 C16_4 1_555 1_555
C16_4 H9_4 1_555 1_555
C17_4 C16_4 1_555 1_555
H10_4 C17_4 1_555 1_555
C18_4 C17_4 1_555 1_555
C19_4 C18_4 1_555 1_555
H11_4 C19_4 1_555 1_555
C20_4 C15_4 1_555 1_555
H12_4 C20_4 1_555 1_555
C21_4 O25_3 1_555 1_555
C22_4 H13_4 1_555 1_555
H14_4 C22_4 1_555 1_555
H15_4 C22_4 1_555 1_555
C23_4 O10_4 1_555 1_555
C24_4 H16_4 1_555 1_555
H17_4 C24_4 1_555 1_555
H18_4 C24_4 1_555 1_555
C25_4 H19_4 1_555 1_555
H20_4 C25_4 1_555 1_555
H21_4 C25_4 1_555 1_555
N1_4 C23_4 1_555 1_555
O25_4 C32_4 1_555 1_555
O12_4 C32_4 1_555 1_555
C26_4 O9_4 1_555 1_555
C27_4 C26_4 1_555 1_555
H22_4 C27_4 1_555 1_555
C28_4 C27_4 1_555 1_555
H23_4 C28_4 1_555 1_555
C29_4 C28_4 1_555 1_555
C30_4 C29_4 1_555 1_555
H24_4 C30_4 1_555 1_555
C31_4 C26_4 1_555 1_555
H25_4 C31_4 1_555 1_555
C32_4 C29_4 1_555 1_555
Mg7 O25_3 1_555 1_555
O8_4 C21_4 1_555 1_555
C11_4 C12_4 1_555 1_555
C18_4 C21_4 1_555 1_555
C19_4 C20_4 1_555 1_555
C22_4 C23_4 1_555 1_555
C24_4 N1_4 1_555 1_555
C25_4 N1_4 1_555 1_555
C30_4 C31_4 1_555 1_555
O6_4 C1_4 1_555 1_555
H3_4 C5_4 1_555 1_555
C6_4 C1_4 1_555 1_555
H4_4 C6_4 1_555 1_555
C7_4 O6_4 1_555 1_555
C8_4 C7_4 1_555 1_555
H5_4 C8_4 1_555 1_555
C9_4 C8_4 1_555 1_555
H6_4 C9_4 1_555 1_555
C5_4 C6_4 1_555 1_555
O14_4 H43_4 1_555 1_555
C49_3 H37_3 1_555 1_555
H38_3 C49_3 1_555 1_555
H39_3 C49_3 1_555 1_555
C50_3 H40_3 1_555 1_555
H41_3 C50_3 1_555 1_555
H42_3 C50_3 1_555 1_555
C49_3 N2_3 1_555 1_555
C50_3 N2_3 1_555 1_555
C49_4 H37_4 1_555 1_555
H38_4 C49_4 1_555 1_555
H39_4 C49_4 1_555 1_555
C50_4 H40_4 1_555 1_555
H41_4 C50_4 1_555 1_555
H42_4 C50_4 1_555 1_555
C49_4 N2_4 1_555 1_555
C50_4 N2_4 1_555 1_555

#END
