
###############################################################################
#
# This file contains modified crystal structure data generated from the
# MOF subset of the Cambridge Structural Database (CSD) v543 
# hosted by the Cambridge Crystallographic Data Centre (CCDC).
#
# This work is licensed under the Creative Commons
# Attribution-NonCommercial-ShareAlike 4.0 International License.
# To view a copy of this license, visit
# http://creativecommons.org/licenses/by-nc-sa/4.0/
# or send a letter to
# Creative Commons, PO Box 1866, Mountain View, CA 94042, USA.
#
# CIF created using the CSD Python API on 29 September 2022
# The structure has been converted into the P1 space group
# The structure has a 3D framework
# The original CSD entry TIYMEU is in the orthorhombic crystal system
# The framework has been calculated to contain at least 10.0% void space
# The void calculation uses a probe of radius 1.32A, grid spacing 0.4
# H atom positions have been added when not included in the experimental data
#
###############################################################################

data_TIYMEU
_chemical_formula_moiety         '(C192 H272 O108 Sm16)n'
_symmetry_cell_setting           triclinic
_symmetry_space_group_name_H-M   'P 1'
_symmetry_Int_Tables_number      1
_space_group_name_Hall           'P 1'
loop_
_symmetry_equiv_pos_site_id
_symmetry_equiv_pos_as_xyz
1 x,y,z
_cell_length_a                   36.7878(2)
_cell_length_b                   10.43930(10)
_cell_length_c                   16.1676(2)
_cell_angle_alpha                90
_cell_angle_beta                 90
_cell_angle_gamma                90
_cell_volume                     6208.99
loop_
_atom_site_label
_atom_site_type_symbol
_atom_site_fract_x
_atom_site_fract_y
_atom_site_fract_z
O11 O 0.35839(18) 0.1087(6) 0.3993(4)
O12 O 0.3453(2) 0.0177(6) 0.5172(4)
C24 C 0.3518(2) 0.0061(8) 0.4412(6)
Sm5 Sm 0.371754(12) 0.22183(4) 0.27061(3)
Sm8 Sm 0.358970(12) 0.25217(4) 0.52607(3)
O1 O 0.3288(2) 0.0615(7) 0.0731(5)
C1 C 0.3230(2) 0.0165(8) 0.1454(6)
Sm2 Sm 0.358970(12) 0.24783(4) 0.02607(3)
O2 O 0.34172(18) 0.0485(6) 0.2071(5)
O3 O 0.17433(16) 0.1922(6) 0.1540(4)
O4 O 0.19185(18) 0.1966(6) 0.2836(4)
O5 O 0.39921(17) 0.2929(6) 0.1480(4)
C5 C 0.2391(2) 0.0529(9) 0.1076(6)
H6 H 0.2535 0.1305 0.1031
H7 H 0.2198 0.0572 0.0666
O6 O 0.41837(19) 0.3647(7) 0.0274(4)
C6 C 0.2517(3) 0.0330(10) 0.2590(7)
H8 H 0.2661 0.1109 0.2602
H9 H 0.2402 0.0232 0.3127
O7 O 0.58220(19) 0.5476(6) 0.2346(4)
C7 C 0.2224(3) 0.0457(10) 0.1933(6)
O8 O 0.56607(18) 0.7255(6) 0.1730(4)
C8 C 0.1955(2) 0.1540(8) 0.2107(5)
O9 O 0.36592(17) 0.3638(5) 0.3969(3)
C9 C 0.4219(2) 0.3591(9) 0.1052(6)
O10 O 0.3758(2) 0.4652(6) 0.2791(4)
C10 C 0.4531(3) 0.4240(10) 0.1497(7)
H11 H 0.4462 0.4334 0.2079
C11 C 0.4601(3) 0.5588(10) 0.1148(9)
H12 H 0.4384 0.6107 0.1214
H13 H 0.4655 0.5529 0.0562
C12 C 0.4876(3) 0.3446(10) 0.1465(8)
H14 H 0.4942 0.3296 0.0892
H15 H 0.4832 0.2621 0.1722
O13 O 0.4070(2) 0.0846(7) 0.0426(5)
C13 C 0.4925(3) 0.6237(10) 0.1605(10)
H16 H 0.4972 0.7068 0.1359
H17 H 0.4861 0.6368 0.2181
C14 C 0.5191(3) 0.4110(10) 0.1906(7)
H18 H 0.5133 0.4191 0.2489
H19 H 0.5408 0.3586 0.1857
C15 C 0.5266(2) 0.5418(8) 0.1553(6)
H20 H 0.5315 0.5293 0.0962
C16 C 0.5598(2) 0.6095(9) 0.1910(6)
C17 C 0.3701(3) 0.4688(9) 0.3561(6)
C18 C 0.3665(3) 0.5965(8) 0.4010(5)
H21 H 0.3685 0.5808 0.4606
C19 C 0.3288(3) 0.6558(9) 0.3835(6)
H22 H 0.3259 0.6688 0.3245
H23 H 0.3099 0.5973 0.4018
C20 C 0.3967(3) 0.6900(9) 0.3753(7)
H24 H 0.4202 0.6533 0.3884
H25 H 0.3957 0.7040 0.3160
C21 C 0.3246(3) 0.7832(8) 0.4281(6)
H26 H 0.3259 0.7696 0.4874
H27 H 0.3010 0.8198 0.4155
C22 C 0.3923(3) 0.8182(9) 0.4204(7)
H28 H 0.4114 0.8765 0.4032
H29 H 0.3946 0.8048 0.4796
C23 C 0.3550(3) 0.8776(8) 0.4011(6)
H30 H 0.3532 0.8894 0.3411
Sm3 Sm 0.128246(12) 0.27817(4) 0.27061(3)
Sm4 Sm 0.628246(12) 0.72183(4) 0.22939(3)
Sm6 Sm 0.141030(12) 0.25217(4) 0.02607(3)
O15 O 0.32567(16) 0.3078(6) 0.1540(4)
O16 O 0.30815(18) 0.3034(6) 0.2836(4)
O17 O 0.41780(19) 0.0476(6) 0.2654(4)
O18 O 0.43393(18) 0.2255(6) 0.3270(4)
O22 O 0.3453(2) 0.4823(6) 0.0172(4)
H33 H 0.401687 0.0103827 0.00613521
H34 H 0.430866 0.122129 0.0272337
O14 O 0.2949(2) 0.2334(7) 0.9564(4)
O19 O 0.36592(17) 0.1362(5) 0.8969(3)
O21 O 0.35839(18) 0.3913(6) 0.8993(4)
H31 H 0.275792 0.233862 0.99978
H32 H 0.291395 0.307943 0.91909
O1_2 O 0.1712(2) 0.4385(7) 0.0731(5)
C1_2 C 0.1770(2) 0.4835(8) 0.1454(6)
O2_2 O 0.15828(18) 0.4515(6) 0.2071(5)
C2 C 0.2071(2) 0.5808(9) 0.1556(7)
H1 H 0.1963 0.6656 0.1470
C3 C 0.2367(3) 0.5640(10) 0.0899(7)
H2 H 0.2517 0.6404 0.0881
H3 H 0.2254 0.5538 0.0361
C4 C 0.2235(3) 0.5804(11) 0.2432(7)
H4 H 0.2372 0.6588 0.2513
H5 H 0.2039 0.5792 0.2833
O5_2 O 0.10079(17) 0.2071(6) 0.1480(4)
C5_2 C 0.2609(2) 0.4471(9) 0.1076(6)
H6_2 H 0.2465 0.3695 0.1031
H7_2 H 0.2802 0.4428 0.0666
O6_2 O 0.08163(19) 0.1353(7) 0.0274(4)
C6_2 C 0.2483(3) 0.4670(10) 0.2590(7)
H8_2 H 0.2339 0.3891 0.2602
H9_2 H 0.2598 0.4768 0.3127
C7_2 C 0.2776(3) 0.4543(10) 0.1933(6)
H10 H 0.2917 0.5340 0.1949
C8_2 C 0.3045(2) 0.3460(8) 0.2107(5)
O9_2 O 0.13408(17) 0.1362(5) 0.3969(3)
C9_2 C 0.0781(2) 0.1409(9) 0.1052(6)
O10_2 O 0.1242(2) 0.0348(6) 0.2791(4)
C10_2 C 0.0469(3) 0.0760(10) 0.1497(7)
H11_2 H 0.0538 0.0666 0.2079
C12_2 C 0.0124(3) 0.1554(10) 0.1465(8)
H14_2 H 0.0058 0.1704 0.0892
H15_2 H 0.0168 0.2379 0.1722
O13_2 O 0.0930(2) 0.4154(7) 0.0426(5)
C17_2 C 0.1299(3) 0.0312(9) 0.3561(6)
Sm7 Sm 0.141030(12) 0.24783(4) 0.52607(3)
O17_2 O 0.08220(19) 0.4524(6) 0.2654(4)
O18_2 O 0.06607(18) 0.2745(6) 0.3270(4)
O20 O 0.14161(18) 0.3913(6) 0.3993(4)
O22_2 O 0.1547(2) 0.0177(6) 0.0172(4)
H33_2 H 0.0983131 0.489617 0.00613521
H34_2 H 0.0691341 0.377871 0.0272337
O14_2 O 0.2051(2) 0.2666(7) 0.9564(4)
O19_2 O 0.13408(17) 0.3638(5) 0.8969(3)
O21_2 O 0.14161(18) 0.1087(6) 0.8993(4)
H31_2 H 0.224208 0.266138 0.99978
H32_2 H 0.208605 0.192057 0.91909
C11_2 C 0.0399(3) 0.9412(10) 0.1148(9)
H12_2 H 0.0616 0.8893 0.1214
H13_2 H 0.0345 0.9471 0.0562
O12_2 O 0.1547(2) 0.4823(6) 0.5172(4)
C13_2 C 0.0075(3) 0.8763(10) 0.1605(10)
H16_2 H 0.0028 0.7932 0.1359
H17_2 H 0.0139 0.8632 0.2181
C18_2 C 0.1335(3) 0.9035(8) 0.4010(5)
H21_2 H 0.1315 0.9192 0.4606
C19_2 C 0.1712(3) 0.8442(9) 0.3835(6)
H22_2 H 0.1741 0.8312 0.3245
H23_2 H 0.1901 0.9027 0.4018
C20_2 C 0.1033(3) 0.8100(9) 0.3753(7)
H24_2 H 0.0798 0.8467 0.3884
H25_2 H 0.1043 0.7960 0.3160
C21_2 C 0.1754(3) 0.7168(8) 0.4281(6)
H26_2 H 0.1741 0.7304 0.4874
H27_2 H 0.1990 0.6802 0.4155
C22_2 C 0.1077(3) 0.6818(9) 0.4204(7)
H28_2 H 0.0886 0.6235 0.4032
H29_2 H 0.1054 0.6952 0.4796
C23_2 C 0.1450(3) 0.6224(8) 0.4011(6)
H30_2 H 0.1468 0.6106 0.3411
C24_2 C 0.1482(2) 0.4939(8) 0.4412(6)
O7_2 O 0.91780(19) 0.9524(6) 0.2346(4)
O8_2 O 0.93393(18) 0.7745(6) 0.1730(4)
C15_2 C 0.9734(2) 0.9582(8) 0.1553(6)
H20_2 H 0.9685 0.9707 0.0962
C16_2 C 0.9402(2) 0.8905(9) 0.1910(6)
Sm4_2 Sm 0.871754(12) 0.77817(4) 0.22939(3)
C14_2 C 0.0191(3) 0.5890(10) 0.3094(7)
H18_2 H 0.0133 0.5809 0.2511
H19_2 H 0.0408 0.6414 0.3143
C15_3 C 0.0266(2) 0.4582(8) 0.3447(6)
H20_3 H 0.0315 0.4707 0.4038
C16_3 C 0.0598(2) 0.3905(9) 0.3090(6)
O1_3 O 0.8288(2) 0.9385(7) 0.4269(5)
C1_3 C 0.8230(2) 0.9835(8) 0.3546(6)
Sm2_2 Sm 0.858970(12) 0.75217(4) 0.47393(3)
O2_3 O 0.84172(18) 0.9515(6) 0.2929(5)
O3_2 O 0.67433(16) 0.8078(6) 0.3460(4)
O4_2 O 0.69185(18) 0.8034(6) 0.2164(4)
O5_3 O 0.89921(17) 0.7071(6) 0.3520(4)
C5_3 C 0.7391(2) 0.9471(9) 0.3924(6)
H6_3 H 0.7535 0.8695 0.3969
H7_3 H 0.7198 0.9428 0.4334
O6_3 O 0.91837(19) 0.6353(7) 0.4726(4)
C6_3 C 0.7517(3) 0.9670(10) 0.2410(7)
H8_3 H 0.7661 0.8891 0.2398
H9_3 H 0.7402 0.9768 0.1873
C7_3 C 0.7224(3) 0.9543(10) 0.3067(6)
C8_3 C 0.6955(2) 0.8460(8) 0.2893(5)
O9_3 O 0.86592(17) 0.6362(5) 0.1031(3)
C9_3 C 0.9219(2) 0.6409(9) 0.3948(6)
O10_3 O 0.8758(2) 0.5348(6) 0.2209(4)
C10_3 C 0.9531(3) 0.5760(10) 0.3503(7)
H11_3 H 0.9462 0.5666 0.2921
C11_3 C 0.9601(3) 0.4412(10) 0.3852(9)
H12_3 H 0.9384 0.3893 0.3786
H13_3 H 0.9655 0.4471 0.4438
C12_3 C 0.9876(3) 0.6554(10) 0.3535(8)
H14_3 H 0.9942 0.6704 0.4108
H15_3 H 0.9832 0.7379 0.3278
O13_3 O 0.9070(2) 0.9154(7) 0.4574(5)
C13_3 C 0.9925(3) 0.3763(10) 0.3395(10)
H16_3 H 0.9972 0.2932 0.3641
H17_3 H 0.9861 0.3632 0.2819
O14_3 O 0.7949(2) 0.7666(7) 0.5436(4)
C17_3 C 0.8701(3) 0.5312(9) 0.1439(6)
C18_3 C 0.8665(3) 0.4035(8) 0.0990(5)
H21_3 H 0.8685 0.4192 0.0394
C19_3 C 0.8288(3) 0.3442(9) 0.1165(6)
H22_3 H 0.8259 0.3312 0.1755
H23_3 H 0.8099 0.4027 0.0982
C20_3 C 0.8967(3) 0.3100(9) 0.1247(7)
H24_3 H 0.9202 0.3467 0.1116
H25_3 H 0.8957 0.2960 0.1840
C21_3 C 0.8246(3) 0.2168(8) 0.0719(6)
H26_3 H 0.8259 0.2304 0.0126
H27_3 H 0.8010 0.1802 0.0845
C22_3 C 0.8923(3) 0.1818(9) 0.0796(7)
H28_3 H 0.9114 0.1235 0.0968
H29_3 H 0.8946 0.1952 0.0204
C23_3 C 0.8550(3) 0.1224(8) 0.0989(6)
H30_3 H 0.8532 0.1106 0.1589
Sm6_2 Sm 0.641030(12) 0.74783(4) 0.47393(3)
O15_2 O 0.82567(16) 0.6922(6) 0.3460(4)
O16_2 O 0.80815(18) 0.6966(6) 0.2164(4)
O19_3 O 0.86592(17) 0.8638(5) 0.6031(3)
O20_2 O 0.85839(18) 0.8913(6) 0.1007(4)
O21_3 O 0.85839(18) 0.6087(6) 0.6007(4)
O22_3 O 0.8453(2) 0.5177(6) 0.4828(4)
H31_3 H 0.775792 0.766138 0.50022
H32_3 H 0.791395 0.692057 0.58091
H33_3 H 0.901687 0.989617 0.493865
H34_3 H 0.930866 0.877871 0.472766
Sm7_2 Sm 0.858970(12) 0.74783(4) 0.97393(3)
C24_3 C 0.8518(2) 0.9939(8) 0.0588(6)
O12_3 O 0.8453(2) 0.9823(6) 0.9828(4)
O11_2 O 0.64161(18) 0.6087(6) 0.1007(4)
C11_4 C 0.5399(3) 0.0588(10) 0.3852(9)
H12_4 H 0.5616 0.1107 0.3786
H13_4 H 0.5345 0.0529 0.4438
C13_4 C 0.5075(3) 0.1237(10) 0.3395(10)
H16_4 H 0.5028 0.2068 0.3641
H17_4 H 0.5139 0.1368 0.2819
C15_4 C 0.4734(2) 0.0418(8) 0.3447(6)
H20_4 H 0.4685 0.0293 0.4038
C16_4 C 0.4402(2) 0.1095(9) 0.3090(6)
C18_4 C 0.6335(3) 0.0965(8) 0.0990(5)
H21_4 H 0.6315 0.0808 0.0394
C19_4 C 0.6712(3) 0.1558(9) 0.1165(6)
H22_4 H 0.6741 0.1688 0.1755
H23_4 H 0.6901 0.0973 0.0982
C20_4 C 0.6033(3) 0.1900(9) 0.1247(7)
H24_4 H 0.5798 0.1533 0.1116
H25_4 H 0.6043 0.2040 0.1840
C21_4 C 0.6754(3) 0.2832(8) 0.0719(6)
H26_4 H 0.6741 0.2696 0.0126
H27_4 H 0.6990 0.3198 0.0845
C22_4 C 0.6077(3) 0.3182(9) 0.0796(7)
H28_4 H 0.5886 0.3765 0.0968
H29_4 H 0.6054 0.3048 0.0204
C23_4 C 0.6450(3) 0.3776(8) 0.0989(6)
H30_4 H 0.6468 0.3894 0.1589
C24_4 C 0.6482(2) 0.5061(8) 0.0588(6)
O12_4 O 0.6547(2) 0.5177(6) 0.9828(4)
Sm8_2 Sm 0.641030(12) 0.75217(4) 0.97393(3)
O1_4 O 0.6712(2) 0.5615(7) 0.4269(5)
C1_4 C 0.6770(2) 0.5165(8) 0.3546(6)
O2_4 O 0.65828(18) 0.5485(6) 0.2929(5)
C2_2 C 0.7071(2) 0.4192(9) 0.3444(7)
H1_2 H 0.6963 0.3344 0.3530
C3_2 C 0.7367(3) 0.4360(10) 0.4101(7)
H2_2 H 0.7517 0.3596 0.4119
H3_2 H 0.7254 0.4462 0.4639
C4_2 C 0.7235(3) 0.4196(11) 0.2568(7)
H4_2 H 0.7372 0.3412 0.2487
H5_2 H 0.7039 0.4208 0.2167
O5_4 O 0.60079(17) 0.7929(6) 0.3520(4)
C5_4 C 0.7609(2) 0.5529(9) 0.3924(6)
H6_4 H 0.7465 0.6305 0.3969
H7_4 H 0.7802 0.5572 0.4334
O6_4 O 0.58163(19) 0.8647(7) 0.4726(4)
C6_4 C 0.7483(3) 0.5330(10) 0.2410(7)
H8_4 H 0.7339 0.6109 0.2398
H9_4 H 0.7598 0.5232 0.1873
C7_4 C 0.7776(3) 0.5457(10) 0.3067(6)
H10_2 H 0.7917 0.4660 0.3051
C8_4 C 0.8045(2) 0.6540(8) 0.2893(5)
O9_4 O 0.63408(17) 0.8638(5) 0.1031(3)
C9_4 C 0.5781(2) 0.8591(9) 0.3948(6)
O10_4 O 0.6242(2) 0.9652(6) 0.2209(4)
C10_4 C 0.5469(3) 0.9240(10) 0.3503(7)
H11_4 H 0.5538 0.9334 0.2921
C12_4 C 0.5124(3) 0.8446(10) 0.3535(8)
H14_4 H 0.5058 0.8296 0.4108
H15_4 H 0.5168 0.7621 0.3278
O13_4 O 0.5930(2) 0.5846(7) 0.4574(5)
O14_4 O 0.7051(2) 0.7334(7) 0.5436(4)
C14_3 C 0.4809(3) 0.9110(10) 0.3094(7)
H18_3 H 0.4867 0.9191 0.2511
H19_3 H 0.4592 0.8586 0.3143
C17_4 C 0.6299(3) 0.9688(9) 0.1439(6)
O19_4 O 0.63408(17) 0.6362(5) 0.6031(3)
O21_4 O 0.64161(18) 0.8913(6) 0.6007(4)
O22_4 O 0.6547(2) 0.9823(6) 0.4828(4)
H31_4 H 0.724208 0.733862 0.50022
H32_4 H 0.708605 0.807943 0.58091
H33_4 H 0.598313 0.510383 0.493865
H34_4 H 0.569134 0.622129 0.472766
O14_5 O 0.7051(2) 0.7666(7) 0.0436(4)
H31_5 H 0.724208 0.766138 0.000219978
H32_5 H 0.708605 0.692057 0.0809102
Sm1 Sm 0.628246(12) 0.77817(4) 0.72939(3)
O1_5 O 0.6712(2) 0.9385(7) 0.9269(5)
C1_5 C 0.6770(2) 0.9835(8) 0.8546(6)
O2_5 O 0.65828(18) 0.9515(6) 0.7929(5)
O3_3 O 0.82567(16) 0.8078(6) 0.8460(4)
O4_3 O 0.80815(18) 0.8034(6) 0.7164(4)
O5_5 O 0.60079(17) 0.7071(6) 0.8520(4)
C5_5 C 0.7609(2) 0.9471(9) 0.8924(6)
H6_5 H 0.7465 0.8695 0.8969
H7_5 H 0.7802 0.9428 0.9334
O6_5 O 0.58163(19) 0.6353(7) 0.9726(4)
C6_5 C 0.7483(3) 0.9670(10) 0.7410(7)
H8_5 H 0.7339 0.8891 0.7398
H9_5 H 0.7598 0.9768 0.6873
O7_3 O 0.41780(19) 0.4524(6) 0.7654(4)
C7_5 C 0.7776(3) 0.9543(10) 0.8067(6)
O8_3 O 0.43393(18) 0.2745(6) 0.8270(4)
C8_5 C 0.8045(2) 0.8460(8) 0.7893(5)
C9_5 C 0.5781(2) 0.6409(9) 0.8948(6)
O10_5 O 0.6242(2) 0.5348(6) 0.7209(4)
C10_5 C 0.5469(3) 0.5760(10) 0.8503(7)
H11_5 H 0.5538 0.5666 0.7921
C11_5 C 0.5399(3) 0.4412(10) 0.8852(9)
H12_5 H 0.5616 0.3893 0.8786
H13_5 H 0.5345 0.4471 0.9438
C12_5 C 0.5124(3) 0.6554(10) 0.8535(8)
H14_5 H 0.5058 0.6704 0.9108
H15_5 H 0.5168 0.7379 0.8278
O13_5 O 0.5930(2) 0.9154(7) 0.9574(5)
C13_5 C 0.5075(3) 0.3763(10) 0.8395(10)
H16_5 H 0.5028 0.2932 0.8641
H17_5 H 0.5139 0.3632 0.7819
C14_4 C 0.4809(3) 0.5890(10) 0.8094(7)
H18_4 H 0.4867 0.5809 0.7511
H19_4 H 0.4592 0.6414 0.8143
C15_5 C 0.4734(2) 0.4582(8) 0.8447(6)
H20_5 H 0.4685 0.4707 0.9038
C16_5 C 0.4402(2) 0.3905(9) 0.8090(6)
C17_5 C 0.6299(3) 0.5312(9) 0.6439(6)
C18_5 C 0.6335(3) 0.4035(8) 0.5990(5)
H21_5 H 0.6315 0.4192 0.5394
C19_5 C 0.6712(3) 0.3442(9) 0.6165(6)
H22_5 H 0.6741 0.3312 0.6755
H23_5 H 0.6901 0.4027 0.5982
C20_5 C 0.6033(3) 0.3100(9) 0.6247(7)
H24_5 H 0.5798 0.3467 0.6116
H25_5 H 0.6043 0.2960 0.6840
C21_5 C 0.6754(3) 0.2168(8) 0.5719(6)
H26_5 H 0.6741 0.2304 0.5126
H27_5 H 0.6990 0.1802 0.5845
C22_5 C 0.6077(3) 0.1818(9) 0.5796(7)
H28_5 H 0.5886 0.1235 0.5968
H29_5 H 0.6054 0.1952 0.5204
C23_5 C 0.6450(3) 0.1224(8) 0.5989(6)
H30_5 H 0.6468 0.1106 0.6589
Sm3_2 Sm 0.871754(12) 0.72183(4) 0.72939(3)
Sm4_3 Sm 0.371754(12) 0.27817(4) 0.77061(3)
O15_3 O 0.67433(16) 0.6922(6) 0.8460(4)
O16_3 O 0.69185(18) 0.6966(6) 0.7164(4)
O17_3 O 0.58220(19) 0.9524(6) 0.7346(4)
O18_3 O 0.56607(18) 0.7745(6) 0.6730(4)
H33_5 H 0.598313 0.989617 0.993865
H34_5 H 0.569134 0.877871 0.972766
C24_5 C 0.6482(2) 0.9939(8) 0.5588(6)
O7_4 O 0.08220(19) 0.0476(6) 0.7654(4)
O8_4 O 0.06607(18) 0.2255(6) 0.8270(4)
C15_6 C 0.0266(2) 0.0418(8) 0.8447(6)
H20_6 H 0.0315 0.0293 0.9038
C16_6 C 0.0598(2) 0.1095(9) 0.8090(6)
Sm4_4 Sm 0.128246(12) 0.22183(4) 0.77061(3)
C11_6 C 0.9601(3) 0.0588(10) 0.8852(9)
H12_6 H 0.9384 0.1107 0.8786
H13_6 H 0.9655 0.0529 0.9438
C13_6 C 0.9925(3) 0.1237(10) 0.8395(10)
H16_6 H 0.9972 0.2068 0.8641
H17_6 H 0.9861 0.1368 0.7819
C18_6 C 0.8665(3) 0.0965(8) 0.5990(5)
H21_6 H 0.8685 0.0808 0.5394
C19_6 C 0.8288(3) 0.1558(9) 0.6165(6)
H22_6 H 0.8259 0.1688 0.6755
H23_6 H 0.8099 0.0973 0.5982
C20_6 C 0.8967(3) 0.1900(9) 0.6247(7)
H24_6 H 0.9202 0.1533 0.6116
H25_6 H 0.8957 0.2040 0.6840
C21_6 C 0.8246(3) 0.2832(8) 0.5719(6)
H26_6 H 0.8259 0.2696 0.5126
H27_6 H 0.8010 0.3198 0.5845
C22_6 C 0.8923(3) 0.3182(9) 0.5796(7)
H28_6 H 0.9114 0.3765 0.5968
H29_6 H 0.8946 0.3048 0.5204
C23_6 C 0.8550(3) 0.3776(8) 0.5989(6)
H30_6 H 0.8532 0.3894 0.6589
C24_6 C 0.8518(2) 0.5061(8) 0.5588(6)
O14_6 O 0.7949(2) 0.7334(7) 0.0436(4)
H31_6 H 0.775792 0.733862 0.000219978
H32_6 H 0.791395 0.807943 0.0809102
O1_6 O 0.8288(2) 0.5615(7) 0.9269(5)
C1_6 C 0.8230(2) 0.5165(8) 0.8546(6)
O2_6 O 0.84172(18) 0.5485(6) 0.7929(5)
C2_3 C 0.7929(2) 0.4192(9) 0.8444(7)
H1_3 H 0.8037 0.3344 0.8530
C3_3 C 0.7633(3) 0.4360(10) 0.9101(7)
H2_3 H 0.7483 0.3596 0.9119
H3_3 H 0.7746 0.4462 0.9639
C4_3 C 0.7765(3) 0.4196(11) 0.7568(7)
H4_3 H 0.7628 0.3412 0.7487
H5_3 H 0.7961 0.4208 0.7167
O5_6 O 0.89921(17) 0.7929(6) 0.8520(4)
C5_6 C 0.7391(2) 0.5529(9) 0.8924(6)
H6_6 H 0.7535 0.6305 0.8969
H7_6 H 0.7198 0.5572 0.9334
O6_6 O 0.91837(19) 0.8647(7) 0.9726(4)
C6_6 C 0.7517(3) 0.5330(10) 0.7410(7)
H8_6 H 0.7661 0.6109 0.7398
H9_6 H 0.7402 0.5232 0.6873
C7_6 C 0.7224(3) 0.5457(10) 0.8067(6)
H10_3 H 0.7083 0.4660 0.8051
C8_6 C 0.6955(2) 0.6540(8) 0.7893(5)
C9_6 C 0.9219(2) 0.8591(9) 0.8948(6)
O10_6 O 0.8758(2) 0.9652(6) 0.7209(4)
C10_6 C 0.9531(3) 0.9240(10) 0.8503(7)
H11_6 H 0.9462 0.9334 0.7921
C12_6 C 0.9876(3) 0.8446(10) 0.8535(8)
H14_6 H 0.9942 0.8296 0.9108
H15_6 H 0.9832 0.7621 0.8278
O13_6 O 0.9070(2) 0.5846(7) 0.9574(5)
C17_6 C 0.8701(3) 0.9688(9) 0.6439(6)
O17_4 O 0.91780(19) 0.5476(6) 0.7346(4)
O18_4 O 0.93393(18) 0.7255(6) 0.6730(4)
H33_6 H 0.901687 0.510383 0.993865
H34_6 H 0.930866 0.622129 0.972766
C24_7 C 0.1482(2) 0.0061(8) 0.9412(6)
O1_7 O 0.1712(2) 0.0615(7) 0.5731(5)
C1_7 C 0.1770(2) 0.0165(8) 0.6454(6)
O2_7 O 0.15828(18) 0.0485(6) 0.7071(5)
O3_4 O 0.32567(16) 0.1922(6) 0.6540(4)
O4_4 O 0.30815(18) 0.1966(6) 0.7836(4)
O5_7 O 0.10079(17) 0.2929(6) 0.6480(4)
C5_7 C 0.2609(2) 0.0529(9) 0.6076(6)
H6_7 H 0.2465 0.1305 0.6031
H7_7 H 0.2802 0.0572 0.5666
O6_7 O 0.08163(19) 0.3647(7) 0.5274(4)
C6_7 C 0.2483(3) 0.0330(10) 0.7590(7)
H8_7 H 0.2339 0.1109 0.7602
H9_7 H 0.2598 0.0232 0.8127
C7_7 C 0.2776(3) 0.0457(10) 0.6933(6)
C8_7 C 0.3045(2) 0.1540(8) 0.7107(5)
C9_7 C 0.0781(2) 0.3591(9) 0.6052(6)
O10_7 O 0.1242(2) 0.4652(6) 0.7791(4)
C10_7 C 0.0469(3) 0.4240(10) 0.6497(7)
H11_7 H 0.0538 0.4334 0.7079
C11_7 C 0.0399(3) 0.5588(10) 0.6148(9)
H12_7 H 0.0616 0.6107 0.6214
H13_7 H 0.0345 0.5529 0.5562
C12_7 C 0.0124(3) 0.3446(10) 0.6465(8)
H14_7 H 0.0058 0.3296 0.5892
H15_7 H 0.0168 0.2621 0.6722
O13_7 O 0.0930(2) 0.0846(7) 0.5426(5)
C13_7 C 0.0075(3) 0.6237(10) 0.6605(10)
H16_7 H 0.0028 0.7068 0.6359
H17_7 H 0.0139 0.6368 0.7181
O14_7 O 0.2051(2) 0.2334(7) 0.4564(4)
C17_7 C 0.1299(3) 0.4688(9) 0.8561(6)
C18_7 C 0.1335(3) 0.5965(8) 0.9010(5)
H21_7 H 0.1315 0.5808 0.9606
C19_7 C 0.1712(3) 0.6558(9) 0.8835(6)
H22_7 H 0.1741 0.6688 0.8245
H23_7 H 0.1901 0.5973 0.9018
C20_7 C 0.1033(3) 0.6900(9) 0.8753(7)
H24_7 H 0.0798 0.6533 0.8884
H25_7 H 0.1043 0.7040 0.8160
C21_7 C 0.1754(3) 0.7832(8) 0.9281(6)
H26_7 H 0.1741 0.7696 0.9874
H27_7 H 0.1990 0.8198 0.9155
C22_7 C 0.1077(3) 0.8182(9) 0.9204(7)
H28_7 H 0.0886 0.8765 0.9032
H29_7 H 0.1054 0.8048 0.9796
C23_7 C 0.1450(3) 0.8776(8) 0.9011(6)
H30_7 H 0.1468 0.8894 0.8411
O15_4 O 0.17433(16) 0.3078(6) 0.6540(4)
O16_4 O 0.19185(18) 0.3034(6) 0.7836(4)
H31_7 H 0.224208 0.233862 0.49978
H32_7 H 0.208605 0.307943 0.41909
H33_7 H 0.0983131 0.0103827 0.506135
H34_7 H 0.0691341 0.122129 0.527234
C14_5 C 0.9809(3) 0.4110(10) 0.6906(7)
H18_5 H 0.9867 0.4191 0.7489
H19_5 H 0.9592 0.3586 0.6857
C15_7 C 0.9734(2) 0.5418(8) 0.6553(6)
H20_7 H 0.9685 0.5293 0.5962
C16_7 C 0.9402(2) 0.6095(9) 0.6910(6)
O1_8 O 0.3288(2) 0.4385(7) 0.5731(5)
C1_8 C 0.3230(2) 0.4835(8) 0.6454(6)
O2_8 O 0.34172(18) 0.4515(6) 0.7071(5)
C2_4 C 0.2929(2) 0.5808(9) 0.6556(7)
H1_4 H 0.3037 0.6656 0.6470
C3_4 C 0.2633(3) 0.5640(10) 0.5899(7)
H2_4 H 0.2483 0.6404 0.5881
H3_4 H 0.2746 0.5538 0.5361
C4_4 C 0.2765(3) 0.5804(11) 0.7432(7)
H4_4 H 0.2628 0.6588 0.7513
H5_4 H 0.2961 0.5792 0.7833
O5_8 O 0.39921(17) 0.2071(6) 0.6480(4)
C5_8 C 0.2391(2) 0.4471(9) 0.6076(6)
H6_8 H 0.2535 0.3695 0.6031
H7_8 H 0.2198 0.4428 0.5666
O6_8 O 0.41837(19) 0.1353(7) 0.5274(4)
C6_8 C 0.2517(3) 0.4670(10) 0.7590(7)
H8_8 H 0.2661 0.3891 0.7602
H9_8 H 0.2402 0.4768 0.8127
C7_8 C 0.2224(3) 0.4543(10) 0.6933(6)
H10_4 H 0.2083 0.5340 0.6949
C8_8 C 0.1955(2) 0.3460(8) 0.7107(5)
C9_8 C 0.4219(2) 0.1409(9) 0.6052(6)
O10_8 O 0.3758(2) 0.0348(6) 0.7791(4)
C10_8 C 0.4531(3) 0.0760(10) 0.6497(7)
H11_8 H 0.4462 0.0666 0.7079
C12_8 C 0.4876(3) 0.1554(10) 0.6465(8)
H14_8 H 0.4942 0.1704 0.5892
H15_8 H 0.4832 0.2379 0.6722
O13_8 O 0.4070(2) 0.4154(7) 0.5426(5)
O14_8 O 0.2949(2) 0.2666(7) 0.4564(4)
C14_6 C 0.5191(3) 0.0890(10) 0.6906(7)
H18_6 H 0.5133 0.0809 0.7489
H19_6 H 0.5408 0.1414 0.6857
C17_8 C 0.3701(3) 0.0312(9) 0.8561(6)
H31_8 H 0.275792 0.266138 0.49978
H32_8 H 0.291395 0.192057 0.41909
H33_8 H 0.401687 0.489617 0.506135
H34_8 H 0.430866 0.377871 0.527234
C11_8 C 0.4601(3) 0.9412(10) 0.6148(9)
H12_8 H 0.4384 0.8893 0.6214
H13_8 H 0.4655 0.9471 0.5562
C13_8 C 0.4925(3) 0.8763(10) 0.6605(10)
H16_8 H 0.4972 0.7932 0.6359
H17_8 H 0.4861 0.8632 0.7181
C15_8 C 0.5266(2) 0.9582(8) 0.6553(6)
H20_8 H 0.5315 0.9707 0.5962
C16_8 C 0.5598(2) 0.8905(9) 0.6910(6)
C18_8 C 0.3665(3) 0.9035(8) 0.9010(5)
H21_8 H 0.3685 0.9192 0.9606
C19_8 C 0.3288(3) 0.8442(9) 0.8835(6)
H22_8 H 0.3259 0.8312 0.8245
H23_8 H 0.3099 0.9027 0.9018
C20_8 C 0.3967(3) 0.8100(9) 0.8753(7)
H24_8 H 0.4202 0.8467 0.8884
H25_8 H 0.3957 0.7960 0.8160
C21_8 C 0.3246(3) 0.7168(8) 0.9281(6)
H26_8 H 0.3259 0.7304 0.9874
H27_8 H 0.3010 0.6802 0.9155
C22_8 C 0.3923(3) 0.6818(9) 0.9204(7)
H28_8 H 0.4114 0.6235 0.9032
H29_8 H 0.3946 0.6952 0.9796
C23_8 C 0.3550(3) 0.6224(8) 0.9011(6)
H30_8 H 0.3532 0.6106 0.8411
C24_8 C 0.3518(2) 0.4939(8) 0.9412(6)
C2_5 C 0.2929(2) 0.9192(9) 0.1556(7)
H1_5 H 0.3037 0.8344 0.1470
C3_5 C 0.2633(3) 0.9360(10) 0.0899(7)
H2_5 H 0.2483 0.8596 0.0881
H3_5 H 0.2746 0.9462 0.0361
C4_5 C 0.2765(3) 0.9196(11) 0.2432(7)
H4_5 H 0.2628 0.8412 0.2513
H5_5 H 0.2961 0.9208 0.2833
H10_5 H 0.2083 0.9660 0.1949
C14_7 C 0.9809(3) 0.0890(10) 0.1906(7)
H18_7 H 0.9867 0.0809 0.2489
H19_7 H 0.9592 0.1414 0.1857
C2_6 C 0.7929(2) 0.0808(9) 0.3444(7)
H1_6 H 0.8037 0.1656 0.3530
C3_6 C 0.7633(3) 0.0640(10) 0.4101(7)
H2_6 H 0.7483 0.1404 0.4119
H3_6 H 0.7746 0.0538 0.4639
C4_6 C 0.7765(3) 0.0804(11) 0.2568(7)
H4_6 H 0.7628 0.1588 0.2487
H5_6 H 0.7961 0.0792 0.2167
H10_6 H 0.7083 0.0340 0.3051
C2_7 C 0.7071(2) 0.0808(9) 0.8444(7)
H1_7 H 0.6963 0.1656 0.8530
C3_7 C 0.7367(3) 0.0640(10) 0.9101(7)
H2_7 H 0.7517 0.1404 0.9119
H3_7 H 0.7254 0.0538 0.9639
C4_7 C 0.7235(3) 0.0804(11) 0.7568(7)
H4_7 H 0.7372 0.1588 0.7487
H5_7 H 0.7039 0.0792 0.7167
H10_7 H 0.7917 0.0340 0.8051
C14_8 C 0.0191(3) 0.9110(10) 0.8094(7)
H18_8 H 0.0133 0.9191 0.7511
H19_8 H 0.0408 0.8586 0.8143
C2_8 C 0.2071(2) 0.9192(9) 0.6556(7)
H1_8 H 0.1963 0.8344 0.6470
C3_8 C 0.2367(3) 0.9360(10) 0.5899(7)
H2_8 H 0.2517 0.8596 0.5881
H3_8 H 0.2254 0.9462 0.5361
C4_8 C 0.2235(3) 0.9196(11) 0.7432(7)
H4_8 H 0.2372 0.8412 0.7513
H5_8 H 0.2039 0.9208 0.7833
H10_8 H 0.2917 0.9660 0.6949
loop_
_geom_bond_atom_site_label_1
_geom_bond_atom_site_label_2
_geom_bond_site_symmetry_1
_geom_bond_site_symmetry_2
O11 C24 1_555 1_555
O12 C24 1_555 1_555
Sm5 O11 1_555 1_555
Sm8 O11 1_555 1_555
O12 Sm8 1_555 1_555
Sm5 O2 1_555 1_555
O1 C1 1_555 1_555
C1 O2 1_555 1_555
Sm2 O1 1_555 1_555
O3 C8 1_555 1_555
O4 C8 1_555 1_555
O5 Sm5 1_555 1_555
H6 C5 1_555 1_555
H7 C5 1_555 1_555
O6 Sm2 1_555 1_555
H8 C6 1_555 1_555
H9 C6 1_555 1_555
O7 C16 1_555 1_555
C7 C5 1_555 1_555
O8 C16 1_555 1_555
C8 C7 1_555 1_555
O9 Sm5 1_555 1_555
C9 O5 1_555 1_555
O10 Sm5 1_555 1_555
C10 C9 1_555 1_555
H11 C10 1_555 1_555
C11 C10 1_555 1_555
H12 C11 1_555 1_555
H13 C11 1_555 1_555
C12 C10 1_555 1_555
H14 C12 1_555 1_555
H15 C12 1_555 1_555
O13 Sm2 1_555 1_555
C13 C11 1_555 1_555
H16 C13 1_555 1_555
H17 C13 1_555 1_555
C14 C12 1_555 1_555
H18 C14 1_555 1_555
H19 C14 1_555 1_555
C15 C13 1_555 1_555
H20 C15 1_555 1_555
C16 C15 1_555 1_555
C17 O9 1_555 1_555
C18 C17 1_555 1_555
H21 C18 1_555 1_555
C19 C18 1_555 1_555
H22 C19 1_555 1_555
H23 C19 1_555 1_555
C20 C18 1_555 1_555
H24 C20 1_555 1_555
H25 C20 1_555 1_555
C21 C19 1_555 1_555
H26 C21 1_555 1_555
H27 C21 1_555 1_555
C22 C20 1_555 1_555
H28 C22 1_555 1_555
H29 C22 1_555 1_555
C23 C21 1_555 1_555
H30 C23 1_555 1_555
Sm3 O3 1_555 1_555
Sm4 O7 1_555 1_555
Sm6 O3 1_555 1_555
Sm8 O9 1_555 1_555
O15 Sm5 1_555 1_555
O16 Sm5 1_555 1_555
O17 Sm5 1_555 1_555
O18 Sm5 1_555 1_555
O22 Sm2 1_555 1_555
Sm2 O5 1_555 1_555
Sm2 O15 1_555 1_555
O4 Sm3 1_555 1_555
O6 C9 1_555 1_555
C6 C7 1_555 1_555
O8 Sm4 1_555 1_555
O10 C17 1_555 1_555
C14 C15 1_555 1_555
C22 C23 1_555 1_555
O13 H33 1_555 1_555
O13 H34 1_555 1_555
O14 H31 1_555 1_555
O14 H32 1_555 1_555
Sm3 O2_2 1_555 1_555
O1_2 C1_2 1_555 1_555
C1_2 O2_2 1_555 1_555
Sm6 O1_2 1_555 1_555
C2 C1_2 1_555 1_555
H1 C2 1_555 1_555
O15 C8_2 1_555 1_555
C3 C2 1_555 1_555
H2 C3 1_555 1_555
H3 C3 1_555 1_555
O16 C8_2 1_555 1_555
C4 C2 1_555 1_555
H4 C4 1_555 1_555
H5 C4 1_555 1_555
O5_2 Sm3 1_555 1_555
C5_2 C3 1_555 1_555
H6_2 C5_2 1_555 1_555
H7_2 C5_2 1_555 1_555
O6_2 Sm6 1_555 1_555
C6_2 C4 1_555 1_555
H8_2 C6_2 1_555 1_555
H9_2 C6_2 1_555 1_555
C7_2 C5_2 1_555 1_555
H10 C7_2 1_555 1_555
C8_2 C7_2 1_555 1_555
O9_2 Sm3 1_555 1_555
C9_2 O5_2 1_555 1_555
O10_2 Sm3 1_555 1_555
C10_2 C9_2 1_555 1_555
H11_2 C10_2 1_555 1_555
C12_2 C10_2 1_555 1_555
H14_2 C12_2 1_555 1_555
H15_2 C12_2 1_555 1_555
O13_2 Sm6 1_555 1_555
C17_2 O9_2 1_555 1_555
Sm7 O9_2 1_555 1_555
O17_2 Sm3 1_555 1_555
O18_2 Sm3 1_555 1_555
O20 Sm3 1_555 1_555
O22_2 Sm6 1_555 1_555
Sm6 O5_2 1_555 1_555
O6_2 C9_2 1_555 1_555
C6_2 C7_2 1_555 1_555
O10_2 C17_2 1_555 1_555
Sm7 O20 1_555 1_555
O13_2 H33_2 1_555 1_555
O13_2 H34_2 1_555 1_555
O14_2 H31_2 1_555 1_555
O14_2 H32_2 1_555 1_555
O20 C24_2 1_555 1_555
H12_2 C11_2 1_555 1_555
H13_2 C11_2 1_555 1_555
O12_2 C24_2 1_555 1_555
C13_2 C11_2 1_555 1_555
H16_2 C13_2 1_555 1_555
H17_2 C13_2 1_555 1_555
H21_2 C18_2 1_555 1_555
C19_2 C18_2 1_555 1_555
H22_2 C19_2 1_555 1_555
H23_2 C19_2 1_555 1_555
C20_2 C18_2 1_555 1_555
H24_2 C20_2 1_555 1_555
H25_2 C20_2 1_555 1_555
C21_2 C19_2 1_555 1_555
H26_2 C21_2 1_555 1_555
H27_2 C21_2 1_555 1_555
C22_2 C20_2 1_555 1_555
H28_2 C22_2 1_555 1_555
H29_2 C22_2 1_555 1_555
C23_2 C21_2 1_555 1_555
H30_2 C23_2 1_555 1_555
C24_2 C23_2 1_555 1_555
O12_2 Sm7 1_555 1_555
C22_2 C23_2 1_555 1_555
O7_2 C16_2 1_555 1_555
O8_2 C16_2 1_555 1_555
H20_2 C15_2 1_555 1_555
C16_2 C15_2 1_555 1_555
Sm4_2 O7_2 1_555 1_555
O8_2 Sm4_2 1_555 1_555
O17_2 C16_3 1_555 1_555
O18_2 C16_3 1_555 1_555
H18_2 C14_2 1_555 1_555
H19_2 C14_2 1_555 1_555
H20_3 C15_3 1_555 1_555
C16_3 C15_3 1_555 1_555
C14_2 C15_3 1_555 1_555
Sm4_2 O2_3 1_555 1_555
O1_3 C1_3 1_555 1_555
C1_3 O2_3 1_555 1_555
Sm2_2 O1_3 1_555 1_555
O3_2 C8_3 1_555 1_555
O4_2 C8_3 1_555 1_555
O5_3 Sm4_2 1_555 1_555
H6_3 C5_3 1_555 1_555
H7_3 C5_3 1_555 1_555
O6_3 Sm2_2 1_555 1_555
H8_3 C6_3 1_555 1_555
H9_3 C6_3 1_555 1_555
C7_3 C5_3 1_555 1_555
C8_3 C7_3 1_555 1_555
O9_3 Sm4_2 1_555 1_555
C9_3 O5_3 1_555 1_555
O10_3 Sm4_2 1_555 1_555
C10_3 C9_3 1_555 1_555
H11_3 C10_3 1_555 1_555
C11_3 C10_3 1_555 1_555
H12_3 C11_3 1_555 1_555
H13_3 C11_3 1_555 1_555
C12_3 C10_3 1_555 1_555
H14_3 C12_3 1_555 1_555
H15_3 C12_3 1_555 1_555
O13_3 Sm2_2 1_555 1_555
C13_3 C11_3 1_555 1_555
H16_3 C13_3 1_555 1_555
H17_3 C13_3 1_555 1_555
O14_3 Sm2_2 1_555 1_555
C17_3 O9_3 1_555 1_555
C18_3 C17_3 1_555 1_555
H21_3 C18_3 1_555 1_555
C19_3 C18_3 1_555 1_555
H22_3 C19_3 1_555 1_555
H23_3 C19_3 1_555 1_555
C20_3 C18_3 1_555 1_555
H24_3 C20_3 1_555 1_555
H25_3 C20_3 1_555 1_555
C21_3 C19_3 1_555 1_555
H26_3 C21_3 1_555 1_555
H27_3 C21_3 1_555 1_555
C22_3 C20_3 1_555 1_555
H28_3 C22_3 1_555 1_555
H29_3 C22_3 1_555 1_555
C23_3 C21_3 1_555 1_555
H30_3 C23_3 1_555 1_555
Sm4 O3_2 1_555 1_555
Sm6_2 O3_2 1_555 1_555
O15_2 Sm4_2 1_555 1_555
O16_2 Sm4_2 1_555 1_555
O19_3 Sm2_2 1_555 1_555
O20_2 Sm4_2 1_555 1_555
O21_3 Sm2_2 1_555 1_555
O22_3 Sm2_2 1_555 1_555
Sm2_2 O5_3 1_555 1_555
Sm2_2 O15_2 1_555 1_555
O4_2 Sm4 1_555 1_555
O6_3 C9_3 1_555 1_555
C6_3 C7_3 1_555 1_555
O10_3 C17_3 1_555 1_555
C22_3 C23_3 1_555 1_555
O14_3 H31_3 1_555 1_555
O14_3 H32_3 1_555 1_555
O13_3 H33_3 1_555 1_555
O13_3 H34_3 1_555 1_555
O20_2 C24_3 1_555 1_555
O12_3 Sm7_2 1_555 1_555
O17 C16_4 1_555 1_555
O18 C16_4 1_555 1_555
O11_2 C24_4 1_555 1_555
H12_4 C11_4 1_555 1_555
H13_4 C11_4 1_555 1_555
C13_4 C11_4 1_555 1_555
H16_4 C13_4 1_555 1_555
H17_4 C13_4 1_555 1_555
C15_4 C13_4 1_555 1_555
H20_4 C15_4 1_555 1_555
C16_4 C15_4 1_555 1_555
H21_4 C18_4 1_555 1_555
C19_4 C18_4 1_555 1_555
H22_4 C19_4 1_555 1_555
H23_4 C19_4 1_555 1_555
C20_4 C18_4 1_555 1_555
H24_4 C20_4 1_555 1_555
H25_4 C20_4 1_555 1_555
C21_4 C19_4 1_555 1_555
H26_4 C21_4 1_555 1_555
H27_4 C21_4 1_555 1_555
C22_4 C20_4 1_555 1_555
H28_4 C22_4 1_555 1_555
H29_4 C22_4 1_555 1_555
C23_4 C21_4 1_555 1_555
H30_4 C23_4 1_555 1_555
C24_4 C23_4 1_555 1_555
Sm4 O11_2 1_555 1_555
C22_4 C23_4 1_555 1_555
O12_4 Sm8_2 1_555 1_555
Sm4 O2_4 1_555 1_555
O1_4 C1_4 1_555 1_555
C1_4 O2_4 1_555 1_555
Sm6_2 O1_4 1_555 1_555
C2_2 C1_4 1_555 1_555
H1_2 C2_2 1_555 1_555
O15_2 C8_4 1_555 1_555
C3_2 C2_2 1_555 1_555
H2_2 C3_2 1_555 1_555
H3_2 C3_2 1_555 1_555
O16_2 C8_4 1_555 1_555
C4_2 C2_2 1_555 1_555
H4_2 C4_2 1_555 1_555
H5_2 C4_2 1_555 1_555
O5_4 Sm4 1_555 1_555
C5_4 C3_2 1_555 1_555
H6_4 C5_4 1_555 1_555
H7_4 C5_4 1_555 1_555
O6_4 Sm6_2 1_555 1_555
C6_4 C4_2 1_555 1_555
H8_4 C6_4 1_555 1_555
H9_4 C6_4 1_555 1_555
C7_4 C5_4 1_555 1_555
H10_2 C7_4 1_555 1_555
C8_4 C7_4 1_555 1_555
O9_4 Sm4 1_555 1_555
C9_4 O5_4 1_555 1_555
O10_4 Sm4 1_555 1_555
C10_4 C9_4 1_555 1_555
H11_4 C10_4 1_555 1_555
C12_4 C10_4 1_555 1_555
H14_4 C12_4 1_555 1_555
H15_4 C12_4 1_555 1_555
O13_4 Sm6_2 1_555 1_555
O14_4 Sm6_2 1_555 1_555
C14_3 C12_4 1_555 1_555
H18_3 C14_3 1_555 1_555
H19_3 C14_3 1_555 1_555
C17_4 O9_4 1_555 1_555
O19_4 Sm6_2 1_555 1_555
O21_4 Sm6_2 1_555 1_555
O22_4 Sm6_2 1_555 1_555
Sm6_2 O5_4 1_555 1_555
O6_4 C9_4 1_555 1_555
C6_4 C7_4 1_555 1_555
O10_4 C17_4 1_555 1_555
O14_4 H31_4 1_555 1_555
O14_4 H32_4 1_555 1_555
O13_4 H33_4 1_555 1_555
O13_4 H34_4 1_555 1_555
O14_5 H31_5 1_555 1_555
O14_5 H32_5 1_555 1_555
Sm1 O2_5 1_555 1_555
O1_5 C1_5 1_555 1_555
C1_5 O2_5 1_555 1_555
Sm8_2 O1_5 1_555 1_555
O3_3 C8_5 1_555 1_555
O4_3 C8_5 1_555 1_555
O5_5 Sm1 1_555 1_555
H6_5 C5_5 1_555 1_555
H7_5 C5_5 1_555 1_555
O6_5 Sm8_2 1_555 1_555
H8_5 C6_5 1_555 1_555
H9_5 C6_5 1_555 1_555
O7_3 C16_5 1_555 1_555
C7_5 C5_5 1_555 1_555
O8_3 C16_5 1_555 1_555
C8_5 C7_5 1_555 1_555
O19_4 Sm1 1_555 1_555
C9_5 O5_5 1_555 1_555
O10_5 Sm1 1_555 1_555
C10_5 C9_5 1_555 1_555
H11_5 C10_5 1_555 1_555
C11_5 C10_5 1_555 1_555
H12_5 C11_5 1_555 1_555
H13_5 C11_5 1_555 1_555
C12_5 C10_5 1_555 1_555
H14_5 C12_5 1_555 1_555
H15_5 C12_5 1_555 1_555
O13_5 Sm8_2 1_555 1_555
C13_5 C11_5 1_555 1_555
H16_5 C13_5 1_555 1_555
H17_5 C13_5 1_555 1_555
C14_4 C12_5 1_555 1_555
H18_4 C14_4 1_555 1_555
H19_4 C14_4 1_555 1_555
C15_5 C13_5 1_555 1_555
H20_5 C15_5 1_555 1_555
C16_5 C15_5 1_555 1_555
C17_5 O19_4 1_555 1_555
C18_5 C17_5 1_555 1_555
H21_5 C18_5 1_555 1_555
C19_5 C18_5 1_555 1_555
H22_5 C19_5 1_555 1_555
H23_5 C19_5 1_555 1_555
C20_5 C18_5 1_555 1_555
H24_5 C20_5 1_555 1_555
H25_5 C20_5 1_555 1_555
C21_5 C19_5 1_555 1_555
H26_5 C21_5 1_555 1_555
H27_5 C21_5 1_555 1_555
C22_5 C20_5 1_555 1_555
H28_5 C22_5 1_555 1_555
H29_5 C22_5 1_555 1_555
C23_5 C21_5 1_555 1_555
H30_5 C23_5 1_555 1_555
Sm3_2 O3_3 1_555 1_555
Sm4_3 O7_3 1_555 1_555
Sm7_2 O3_3 1_555 1_555
O15_3 Sm1 1_555 1_555
O16_3 Sm1 1_555 1_555
O17_3 Sm1 1_555 1_555
O18_3 Sm1 1_555 1_555
O21_4 Sm1 1_555 1_555
Sm8_2 O5_5 1_555 1_555
Sm8_2 O15_3 1_555 1_555
O4_3 Sm3_2 1_555 1_555
O6_5 C9_5 1_555 1_555
C6_5 C7_5 1_555 1_555
O8_3 Sm4_3 1_555 1_555
O10_5 C17_5 1_555 1_555
C14_4 C15_5 1_555 1_555
C22_5 C23_5 1_555 1_555
O13_5 H33_5 1_555 1_555
O13_5 H34_5 1_555 1_555
O21_4 C24_5 1_555 1_555
O22_4 C24_5 1_555 1_555
O7_4 C16_6 1_555 1_555
O8_4 C16_6 1_555 1_555
H20_6 C15_6 1_555 1_555
C16_6 C15_6 1_555 1_555
Sm4_4 O7_4 1_555 1_555
O8_4 Sm4_4 1_555 1_555
O21_3 C24_6 1_555 1_555
H12_6 C11_6 1_555 1_555
H13_6 C11_6 1_555 1_555
O22_3 C24_6 1_555 1_555
C13_6 C11_6 1_555 1_555
H16_6 C13_6 1_555 1_555
H17_6 C13_6 1_555 1_555
H21_6 C18_6 1_555 1_555
C19_6 C18_6 1_555 1_555
H22_6 C19_6 1_555 1_555
H23_6 C19_6 1_555 1_555
C20_6 C18_6 1_555 1_555
H24_6 C20_6 1_555 1_555
H25_6 C20_6 1_555 1_555
C21_6 C19_6 1_555 1_555
H26_6 C21_6 1_555 1_555
H27_6 C21_6 1_555 1_555
C22_6 C20_6 1_555 1_555
H28_6 C22_6 1_555 1_555
H29_6 C22_6 1_555 1_555
C23_6 C21_6 1_555 1_555
H30_6 C23_6 1_555 1_555
C24_6 C23_6 1_555 1_555
Sm3_2 O21_3 1_555 1_555
C22_6 C23_6 1_555 1_555
O14_6 H31_6 1_555 1_555
O14_6 H32_6 1_555 1_555
Sm3_2 O2_6 1_555 1_555
O1_6 C1_6 1_555 1_555
C1_6 O2_6 1_555 1_555
Sm7_2 O1_6 1_555 1_555
C2_3 C1_6 1_555 1_555
H1_3 C2_3 1_555 1_555
O15_3 C8_6 1_555 1_555
C3_3 C2_3 1_555 1_555
H2_3 C3_3 1_555 1_555
H3_3 C3_3 1_555 1_555
O16_3 C8_6 1_555 1_555
C4_3 C2_3 1_555 1_555
H4_3 C4_3 1_555 1_555
H5_3 C4_3 1_555 1_555
O5_6 Sm3_2 1_555 1_555
C5_6 C3_3 1_555 1_555
H6_6 C5_6 1_555 1_555
H7_6 C5_6 1_555 1_555
O6_6 Sm7_2 1_555 1_555
C6_6 C4_3 1_555 1_555
H8_6 C6_6 1_555 1_555
H9_6 C6_6 1_555 1_555
C7_6 C5_6 1_555 1_555
H10_3 C7_6 1_555 1_555
C8_6 C7_6 1_555 1_555
O19_3 Sm3_2 1_555 1_555
C9_6 O5_6 1_555 1_555
O10_6 Sm3_2 1_555 1_555
C10_6 C9_6 1_555 1_555
H11_6 C10_6 1_555 1_555
C12_6 C10_6 1_555 1_555
H14_6 C12_6 1_555 1_555
H15_6 C12_6 1_555 1_555
O13_6 Sm7_2 1_555 1_555
C17_6 O19_3 1_555 1_555
O17_4 Sm3_2 1_555 1_555
O18_4 Sm3_2 1_555 1_555
Sm7_2 O5_6 1_555 1_555
O6_6 C9_6 1_555 1_555
C6_6 C7_6 1_555 1_555
O10_6 C17_6 1_555 1_555
O13_6 H33_6 1_555 1_555
O13_6 H34_6 1_555 1_555
O21_2 C24_7 1_555 1_555
Sm4_4 O21_2 1_555 1_555
Sm4_4 O2_7 1_555 1_555
O1_7 C1_7 1_555 1_555
C1_7 O2_7 1_555 1_555
Sm7 O1_7 1_555 1_555
O3_4 C8_7 1_555 1_555
O4_4 C8_7 1_555 1_555
O5_7 Sm4_4 1_555 1_555
H6_7 C5_7 1_555 1_555
H7_7 C5_7 1_555 1_555
O6_7 Sm7 1_555 1_555
H8_7 C6_7 1_555 1_555
H9_7 C6_7 1_555 1_555
C7_7 C5_7 1_555 1_555
C8_7 C7_7 1_555 1_555
O19_2 Sm4_4 1_555 1_555
C9_7 O5_7 1_555 1_555
O10_7 Sm4_4 1_555 1_555
C10_7 C9_7 1_555 1_555
H11_7 C10_7 1_555 1_555
C11_7 C10_7 1_555 1_555
H12_7 C11_7 1_555 1_555
H13_7 C11_7 1_555 1_555
C12_7 C10_7 1_555 1_555
H14_7 C12_7 1_555 1_555
H15_7 C12_7 1_555 1_555
O13_7 Sm7 1_555 1_555
C13_7 C11_7 1_555 1_555
H16_7 C13_7 1_555 1_555
H17_7 C13_7 1_555 1_555
O14_7 Sm7 1_555 1_555
C17_7 O19_2 1_555 1_555
C18_7 C17_7 1_555 1_555
H21_7 C18_7 1_555 1_555
C19_7 C18_7 1_555 1_555
H22_7 C19_7 1_555 1_555
H23_7 C19_7 1_555 1_555
C20_7 C18_7 1_555 1_555
H24_7 C20_7 1_555 1_555
H25_7 C20_7 1_555 1_555
C21_7 C19_7 1_555 1_555
H26_7 C21_7 1_555 1_555
H27_7 C21_7 1_555 1_555
C22_7 C20_7 1_555 1_555
H28_7 C22_7 1_555 1_555
H29_7 C22_7 1_555 1_555
C23_7 C21_7 1_555 1_555
H30_7 C23_7 1_555 1_555
Sm4_3 O3_4 1_555 1_555
Sm8 O3_4 1_555 1_555
O15_4 Sm4_4 1_555 1_555
O16_4 Sm4_4 1_555 1_555
Sm7 O5_7 1_555 1_555
Sm7 O15_4 1_555 1_555
O4_4 Sm4_3 1_555 1_555
O6_7 C9_7 1_555 1_555
C6_7 C7_7 1_555 1_555
O10_7 C17_7 1_555 1_555
C22_7 C23_7 1_555 1_555
O14_7 H31_7 1_555 1_555
O14_7 H32_7 1_555 1_555
O13_7 H33_7 1_555 1_555
O13_7 H34_7 1_555 1_555
O17_4 C16_7 1_555 1_555
O18_4 C16_7 1_555 1_555
H18_5 C14_5 1_555 1_555
H19_5 C14_5 1_555 1_555
H20_7 C15_7 1_555 1_555
C16_7 C15_7 1_555 1_555
C14_5 C15_7 1_555 1_555
Sm4_3 O2_8 1_555 1_555
O1_8 C1_8 1_555 1_555
C1_8 O2_8 1_555 1_555
Sm8 O1_8 1_555 1_555
C2_4 C1_8 1_555 1_555
H1_4 C2_4 1_555 1_555
O15_4 C8_8 1_555 1_555
C3_4 C2_4 1_555 1_555
H2_4 C3_4 1_555 1_555
H3_4 C3_4 1_555 1_555
O16_4 C8_8 1_555 1_555
C4_4 C2_4 1_555 1_555
H4_4 C4_4 1_555 1_555
H5_4 C4_4 1_555 1_555
O5_8 Sm4_3 1_555 1_555
C5_8 C3_4 1_555 1_555
H6_8 C5_8 1_555 1_555
H7_8 C5_8 1_555 1_555
O6_8 Sm8 1_555 1_555
C6_8 C4_4 1_555 1_555
H8_8 C6_8 1_555 1_555
H9_8 C6_8 1_555 1_555
C7_8 C5_8 1_555 1_555
H10_4 C7_8 1_555 1_555
C8_8 C7_8 1_555 1_555
O19 Sm4_3 1_555 1_555
C9_8 O5_8 1_555 1_555
O10_8 Sm4_3 1_555 1_555
C10_8 C9_8 1_555 1_555
H11_8 C10_8 1_555 1_555
C12_8 C10_8 1_555 1_555
H14_8 C12_8 1_555 1_555
H15_8 C12_8 1_555 1_555
O13_8 Sm8 1_555 1_555
O14_8 Sm8 1_555 1_555
C14_6 C12_8 1_555 1_555
H18_6 C14_6 1_555 1_555
H19_6 C14_6 1_555 1_555
C17_8 O19 1_555 1_555
O21 Sm4_3 1_555 1_555
Sm8 O5_8 1_555 1_555
O6_8 C9_8 1_555 1_555
C6_8 C7_8 1_555 1_555
O10_8 C17_8 1_555 1_555
O14_8 H31_8 1_555 1_555
O14_8 H32_8 1_555 1_555
O13_8 H33_8 1_555 1_555
O13_8 H34_8 1_555 1_555
O17_3 C16_8 1_555 1_555
O18_3 C16_8 1_555 1_555
O21 C24_8 1_555 1_555
H12_8 C11_8 1_555 1_555
H13_8 C11_8 1_555 1_555
C13_8 C11_8 1_555 1_555
H16_8 C13_8 1_555 1_555
H17_8 C13_8 1_555 1_555
C15_8 C13_8 1_555 1_555
H20_8 C15_8 1_555 1_555
C16_8 C15_8 1_555 1_555
H21_8 C18_8 1_555 1_555
C19_8 C18_8 1_555 1_555
H22_8 C19_8 1_555 1_555
H23_8 C19_8 1_555 1_555
C20_8 C18_8 1_555 1_555
H24_8 C20_8 1_555 1_555
H25_8 C20_8 1_555 1_555
C21_8 C19_8 1_555 1_555
H26_8 C21_8 1_555 1_555
H27_8 C21_8 1_555 1_555
C22_8 C20_8 1_555 1_555
H28_8 C22_8 1_555 1_555
H29_8 C22_8 1_555 1_555
C23_8 C21_8 1_555 1_555
H30_8 C23_8 1_555 1_555
C24_8 C23_8 1_555 1_555
C22_8 C23_8 1_555 1_555
H1_5 C2_5 1_555 1_555
C3_5 C2_5 1_555 1_555
H2_5 C3_5 1_555 1_555
H3_5 C3_5 1_555 1_555
C4_5 C2_5 1_555 1_555
H4_5 C4_5 1_555 1_555
H5_5 C4_5 1_555 1_555
H18_7 C14_7 1_555 1_555
H19_7 C14_7 1_555 1_555
H1_6 C2_6 1_555 1_555
C3_6 C2_6 1_555 1_555
H2_6 C3_6 1_555 1_555
H3_6 C3_6 1_555 1_555
C4_6 C2_6 1_555 1_555
H4_6 C4_6 1_555 1_555
H5_6 C4_6 1_555 1_555
H1_7 C2_7 1_555 1_555
C3_7 C2_7 1_555 1_555
H2_7 C3_7 1_555 1_555
H3_7 C3_7 1_555 1_555
C4_7 C2_7 1_555 1_555
H4_7 C4_7 1_555 1_555
H5_7 C4_7 1_555 1_555
H18_8 C14_8 1_555 1_555
H19_8 C14_8 1_555 1_555
H1_8 C2_8 1_555 1_555
C3_8 C2_8 1_555 1_555
H2_8 C3_8 1_555 1_555
H3_8 C3_8 1_555 1_555
C4_8 C2_8 1_555 1_555
H4_8 C4_8 1_555 1_555
H5_8 C4_8 1_555 1_555

#END
