
###############################################################################
#
# This file contains modified crystal structure data generated from the
# MOF subset of the Cambridge Structural Database (CSD) v543 
# hosted by the Cambridge Crystallographic Data Centre (CCDC).
#
# This work is licensed under the Creative Commons
# Attribution-NonCommercial-ShareAlike 4.0 International License.
# To view a copy of this license, visit
# http://creativecommons.org/licenses/by-nc-sa/4.0/
# or send a letter to
# Creative Commons, PO Box 1866, Mountain View, CA 94042, USA.
#
# CIF created using the CSD Python API on 29 September 2022
# The structure has been converted into the P1 space group
# The structure has a 3D framework
# The original CSD entry TIZKUK is in the monoclinic crystal system
# The framework has been calculated to contain at least 10.0% void space
# The void calculation uses a probe of radius 1.32A, grid spacing 0.4
#
###############################################################################

data_TIZKUK
_chemical_formula_moiety         '(C104 H236 Cu16 K4 N16 O87 S16)n'
_symmetry_cell_setting           triclinic
_symmetry_space_group_name_H-M   'P 1'
_symmetry_Int_Tables_number      1
_space_group_name_Hall           'P 1'
loop_
_symmetry_equiv_pos_site_id
_symmetry_equiv_pos_as_xyz
1 x,y,z
_cell_length_a                   18.015(4)
_cell_length_b                   20.690(4)
_cell_length_c                   14.782(3)
_cell_angle_alpha                90
_cell_angle_beta                 113.71(3)
_cell_angle_gamma                90
_cell_volume                     5044.64
loop_
_atom_site_label
_atom_site_type_symbol
_atom_site_fract_x
_atom_site_fract_y
_atom_site_fract_z
Cu1 Cu 0.30847(8) 0.34935(7) 0.34138(10)
Cu2 Cu 0.43543(10) 0.35417(7) 0.22732(11)
Cu3 Cu 0.62604(9) 0.36700(7) 0.32807(11)
Cu4 Cu 0.49620(9) 0.33325(7) 0.43828(10)
S1 S 0.1863(2) 0.44061(16) 0.1789(3)
S2 S 0.7455(2) 0.43384(18) 0.5195(4)
S3 S 0.5229(4) 0.1378(3) 0.0677(5)
S4 S 0.3405(3) 0.16670(19) 0.5302(4)
C1 C 0.3910(9) 0.3780(8) 0.5417(10)
H1 H 0.4418 0.3994 0.5805
H2 H 0.3788 0.3484 0.5847
C2 C 0.3266(9) 0.4265(7) 0.5041(10)
H3 H 0.3466 0.4646 0.4829
H4 H 0.3096 0.4392 0.5560
C3 C 0.1665(11) 0.3026(8) 0.3764(13)
H5 H 0.1403 0.2716 0.4032
H6 H 0.1244 0.3244 0.3216
C4 C 0.2093(8) 0.3507(7) 0.4533(10)
H7 H 0.2468 0.3286 0.5117
H8 H 0.1704 0.3738 0.4712
C5 C 0.2155(9) 0.4859(7) 0.2908(11)
H9 H 0.2735 0.4936 0.3173
H10 H 0.1885 0.5276 0.2764
C6 C 0.1945(9) 0.4514(6) 0.3676(11)
H11 H 0.1408 0.4327 0.3363
H12 H 0.1937 0.4823 0.4166
C7 C 0.5371(14) 0.4326(10) 0.1513(17)
H13 H 0.4958 0.4644 0.1455
H14 H 0.5268 0.4169 0.0855
C8 C 0.6158(13) 0.4632(10) 0.1925(17)
H15 H 0.6339 0.4678 0.1393
H16 H 0.6079 0.5066 0.2121
C9 C 0.7620(18) 0.3411(13) 0.272(2)
H17 H 0.8115 0.3461 0.3311
H18 H 0.7761 0.3202 0.2224
C10 C 0.7308(17) 0.4017(13) 0.238(2)
H19 H 0.7002 0.3979 0.1674
H20 H 0.7766 0.4296 0.2476
C11 C 0.7267(17) 0.4963(12) 0.447(2)
H21 H 0.6709 0.5096 0.4284
H22 H 0.7615 0.5318 0.4822
C12 C 0.7404(14) 0.4813(11) 0.3588(19)
H23 H 0.7944 0.4631 0.3809
H24 H 0.7416 0.5222 0.3273
C13 C 0.3426(9) 0.2439(6) 0.2279(10)
H25 H 0.2938 0.2288 0.2340
H26 H 0.3838 0.2106 0.2536
C14 C 0.3254(9) 0.2568(7) 0.1218(10)
H27 H 0.3153 0.2164 0.0857
H28 H 0.2772 0.2835 0.0928
C15 C 0.3149(12) 0.3803(8) 0.0105(12)
H29 H 0.2618 0.3650 0.0029
C16 C 0.3651(11) 0.3258(7) 0.0138(11)
H31 H 0.4118 0.3404 0.0023
C17 C 0.4410(11) 0.1902(8) 0.0422(13)
H34 H 0.3946 0.1662 0.0419
C18 C 0.4632(9) 0.2447(7) 0.1211(10)
H35 H 0.4844 0.2248 0.1859
H36 H 0.5064 0.2704 0.1161
C19 C 0.6066(9) 0.2459(6) 0.4064(10)
H37 H 0.6623 0.2530 0.4520
H38 H 0.6070 0.2213 0.3507
C20 C 0.5637(9) 0.2086(7) 0.4565(11)
H39 H 0.5980 0.1736 0.4942
H40 H 0.5145 0.1900 0.4075
C21 C 0.6056(11) 0.3322(9) 0.6553(13)
H41 H 0.5653 0.3236 0.6818
H42 H 0.6560 0.3435 0.7099
C22 C 0.6180(9) 0.2726(7) 0.6052(12)
H43 H 0.6584 0.2812 0.5788
H44 H 0.6381 0.2380 0.6531
C23 C 0.4129(9) 0.1944(7) 0.4840(12)
H45 H 0.4249 0.1595 0.4482
H46 H 0.3892 0.2295 0.4379
C24 C 0.4890(8) 0.2169(7) 0.5625(11)
H47 H 0.5183 0.1799 0.6003
H48 H 0.4762 0.2449 0.6070
C25 C 0.4624(13) 0.4686(7) 0.3575(14)
H49 H 0.5184 0.4812 0.3869
H50 H 0.4362 0.4811 0.4000
H51 H 0.4362 0.4896 0.2946
N1 N 0.2557(6) 0.3985(5) 0.4182(7)
N2 N 0.6818(7) 0.4349(6) 0.2750(10)
N3 N 0.3947(6) 0.2900(5) 0.1144(8)
N4 N 0.5423(7) 0.2524(6) 0.5251(10)
O1 O 0.3995(6) 0.3435(5) 0.4666(7)
O2 O 0.2167(6) 0.2697(4) 0.3413(7)
H52 H 0.2143 0.2266 0.3224
O3 O 0.2268(6) 0.3770(4) 0.2083(7)
O4 O 0.2181(7) 0.4757(5) 0.1195(8)
O5 O 0.0991(7) 0.4348(5) 0.1399(8)
O6 O 0.5311(7) 0.3817(5) 0.2083(7)
O7 O 0.7085(9) 0.3010(6) 0.2940(11)
H53 H 0.7078 0.2560 0.2941
O8 O 0.7129(8) 0.3721(5) 0.4651(11)
O9 O 0.7109(8) 0.4470(6) 0.5951(11)
O10 O 0.8291(7) 0.4291(6) 0.5771(10)
O11 O 0.3705(5) 0.3030(4) 0.2833(6)
O12 O 0.3484(6) 0.4201(5) 0.0983(7)
H54 H 0.3376 0.4636 0.1029
O13 O 0.5463(8) 0.1135(7) 0.1692(12)
O14 O 0.4572(8) 0.4050(5) 0.3448(9)
O15 O 0.5811(8) 0.1739(6) 0.0523(9)
O16 O 0.5684(8) 0.3057(6) 0.3731(9)
O17 O 0.5791(8) 0.3858(5) 0.5871(9)
H55 H 0.5914 0.4295 0.5986
O18 O 0.2659(7) 0.1588(6) 0.4426(11)
O19 O 0.3307(7) 0.2203(6) 0.5896(11)
O20 O 0.3725(8) 0.1066(6) 0.5830(12)
H56 H 0.0108 0.4443 0.3750
H57 H 0.0299 0.5738 0.3509
H58 H 0.0174 0.5461 0.4426
K2 K 0.9651(2) 0.50488(17) 0.6393(3)
K4 K 0.4651(2) 0.00488(17) 0.6393(3)
O24 O 0.0463(8) 0.6135(7) 0.1692(12)
K3 K 0.4651(2) 0.99512(17) 0.1393(3)
K1 K 0.9651(2) 0.49512(17) 0.1393(3)
O21 O 0.9998(10) 0.4822(8) 0.3381(12)
C26 C 0.997(2) 0.5460(15) 0.372(2)
H59 H 0.9421 0.5612 0.3445
O23 O 0.8291(7) 0.5709(6) 0.0771(10)
O25 O 0.8725(8) 0.3934(6) 0.0830(12)
S2_2 S 0.7455(2) 0.56616(18) 0.0195(4)
S4_2 S 0.3405(3) 0.83330(19) 0.0302(4)
C1_2 C 0.3910(9) 0.6220(8) 0.0417(10)
H1_2 H 0.4418 0.6006 0.0805
H2_2 H 0.3788 0.6516 0.0847
C2_2 C 0.3266(9) 0.5735(7) 0.0041(10)
H4_2 H 0.3096 0.5608 0.0560
H7_2 H 0.2468 0.6714 0.0117
C21_2 C 0.6056(11) 0.6678(9) 0.1553(13)
H41_2 H 0.5653 0.6764 0.1818
H42_2 H 0.6560 0.6565 0.2099
C22_2 C 0.6180(9) 0.7274(7) 0.1052(12)
H43_2 H 0.6584 0.7188 0.0788
H44_2 H 0.6381 0.7620 0.1531
C24_2 C 0.4890(8) 0.7831(7) 0.0625(11)
H47_2 H 0.5183 0.8201 0.1003
H48_2 H 0.4762 0.7551 0.1070
N4_2 N 0.5423(7) 0.7476(6) 0.0251(10)
O9_2 O 0.7109(8) 0.5530(6) 0.0951(11)
O17_2 O 0.5791(8) 0.6142(5) 0.0871(9)
H55_2 H 0.5914 0.5705 0.0986
O19_2 O 0.3307(7) 0.7797(6) 0.0896(11)
O20_2 O 0.3725(8) 0.8934(6) 0.0830(12)
Cu1_2 Cu 0.30847(8) 0.65065(7) 0.84138(10)
Cu2_2 Cu 0.43543(10) 0.64583(7) 0.72732(11)
Cu3_2 Cu 0.62604(9) 0.63300(7) 0.82807(11)
Cu4_2 Cu 0.49620(9) 0.66675(7) 0.93828(10)
S1_2 S 0.1863(2) 0.55939(16) 0.6789(3)
S3_2 S 0.5229(4) 0.8622(3) 0.5677(5)
H3_2 H 0.3466 0.5354 0.9829
C3_2 C 0.1665(11) 0.6974(8) 0.8764(13)
H5_2 H 0.1403 0.7284 0.9032
H6_2 H 0.1244 0.6756 0.8216
C4_2 C 0.2093(8) 0.6493(7) 0.9533(10)
H8_2 H 0.1704 0.6262 0.9712
C5_2 C 0.2155(9) 0.5141(7) 0.7908(11)
H9_2 H 0.2735 0.5064 0.8173
H10_2 H 0.1885 0.4724 0.7764
C6_2 C 0.1945(9) 0.5486(6) 0.8676(11)
H11_2 H 0.1408 0.5673 0.8363
H12_2 H 0.1937 0.5177 0.9166
C7_2 C 0.5371(14) 0.5674(10) 0.6513(17)
H13_2 H 0.4958 0.5356 0.6455
H14_2 H 0.5268 0.5831 0.5855
C8_2 C 0.6158(13) 0.5368(10) 0.6925(17)
H15_2 H 0.6339 0.5322 0.6393
H16_2 H 0.6079 0.4934 0.7121
C9_2 C 0.7620(18) 0.6589(13) 0.772(2)
H17_2 H 0.8115 0.6539 0.8311
H18_2 H 0.7761 0.6798 0.7224
C10_2 C 0.7308(17) 0.5983(13) 0.738(2)
H19_2 H 0.7002 0.6021 0.6674
H20_2 H 0.7766 0.5704 0.7476
C11_2 C 0.7267(17) 0.5037(12) 0.947(2)
H21_2 H 0.6709 0.4904 0.9284
H22_2 H 0.7615 0.4682 0.9822
C12_2 C 0.7404(14) 0.5187(11) 0.8588(19)
H23_2 H 0.7944 0.5369 0.8809
H24_2 H 0.7416 0.4778 0.8273
C13_2 C 0.3426(9) 0.7561(6) 0.7279(10)
H25_2 H 0.2938 0.7712 0.7340
H26_2 H 0.3838 0.7894 0.7536
C14_2 C 0.3254(9) 0.7432(7) 0.6218(10)
H27_2 H 0.3153 0.7836 0.5857
H28_2 H 0.2772 0.7165 0.5928
C15_2 C 0.3149(12) 0.6197(8) 0.5105(12)
H29_2 H 0.2618 0.6350 0.5029
H30 H 0.3079 0.5936 0.4532
C16_2 C 0.3651(11) 0.6742(7) 0.5138(11)
H31_2 H 0.4118 0.6596 0.5023
H32 H 0.3348 0.7041 0.4613
C17_2 C 0.4410(11) 0.8098(8) 0.5422(13)
H33 H 0.4264 0.7909 0.4772
H34_2 H 0.3946 0.8338 0.5419
C18_2 C 0.4632(9) 0.7553(7) 0.6211(10)
H35_2 H 0.4844 0.7752 0.6859
H36_2 H 0.5064 0.7296 0.6161
C19_2 C 0.6066(9) 0.7541(6) 0.9064(10)
H37_2 H 0.6623 0.7470 0.9520
H38_2 H 0.6070 0.7787 0.8507
C20_2 C 0.5637(9) 0.7914(7) 0.9565(11)
H39_2 H 0.5980 0.8264 0.9942
H40_2 H 0.5145 0.8100 0.9075
C23_2 C 0.4129(9) 0.8056(7) 0.9840(12)
H45_2 H 0.4249 0.8405 0.9482
H46_2 H 0.3892 0.7705 0.9379
C25_2 C 0.4624(13) 0.5314(7) 0.8575(14)
H49_2 H 0.5184 0.5188 0.8869
H50_2 H 0.4362 0.5189 0.9000
H51_2 H 0.4362 0.5104 0.7946
N1_2 N 0.2557(6) 0.6015(5) 0.9182(7)
N2_2 N 0.6818(7) 0.5651(6) 0.7750(10)
N3_2 N 0.3947(6) 0.7100(5) 0.6144(8)
O1_2 O 0.3995(6) 0.6565(5) 0.9666(7)
O2_2 O 0.2167(6) 0.7303(4) 0.8413(7)
H52_2 H 0.2143 0.7734 0.8224
O3_2 O 0.2268(6) 0.6230(4) 0.7083(7)
O4_2 O 0.2181(7) 0.5243(5) 0.6195(8)
O5_2 O 0.0991(7) 0.5652(5) 0.6399(8)
O6_2 O 0.5311(7) 0.6183(5) 0.7083(7)
O7_2 O 0.7085(9) 0.6990(6) 0.7940(11)
H53_2 H 0.7078 0.7440 0.7941
O8_2 O 0.7129(8) 0.6279(5) 0.9651(11)
O11_2 O 0.3705(5) 0.6970(4) 0.7833(6)
O12_2 O 0.3484(6) 0.5799(5) 0.5983(7)
H54_2 H 0.3376 0.5364 0.6029
O13_2 O 0.5463(8) 0.8865(7) 0.6692(12)
O14_2 O 0.4572(8) 0.5950(5) 0.8448(9)
O15_2 O 0.5811(8) 0.8261(6) 0.5523(9)
O16_2 O 0.5684(8) 0.6943(6) 0.8731(9)
O18_2 O 0.2659(7) 0.8412(6) 0.9426(11)
H56_2 H 0.0108 0.5557 0.8750
O22 O 0.4852(13) 0.9142(9) 0.4918(13)
H57_2 H 0.0299 0.4262 0.8509
H58_2 H 0.0174 0.4539 0.9426
O24_2 O 0.0463(8) 0.3865(7) 0.6692(12)
O21_2 O 0.9998(10) 0.5178(8) 0.8381(12)
C26_2 C 0.997(2) 0.4540(15) 0.872(2)
H59_2 H 0.9421 0.4388 0.8445
O25_2 O 0.8725(8) 0.6066(6) 0.5830(12)
O26 O 0.9852(13) 0.4142(9) 0.4918(13)
H16_3 H 0.1079 0.0066 0.2121
H21_3 H 0.1709 0.0096 0.4284
H22_3 H 0.2615 0.0318 0.4822
H24_3 H 0.2416 0.0222 0.3273
Cu3_3 Cu 0.12604(9) 0.86700(7) 0.32807(11)
S2_3 S 0.2455(2) 0.93384(18) 0.5195(4)
S3_3 S 0.0229(4) 0.6378(3) 0.0677(5)
C7_3 C 0.0371(14) 0.9326(10) 0.1513(17)
H14_3 H 0.0268 0.9169 0.0855
C8_3 C 0.1158(13) 0.9632(10) 0.1925(17)
H15_3 H 0.1339 0.9678 0.1393
C9_3 C 0.2620(18) 0.8411(13) 0.272(2)
H17_3 H 0.3115 0.8461 0.3311
H18_3 H 0.2761 0.8202 0.2224
C10_3 C 0.2308(17) 0.9017(13) 0.238(2)
H19_3 H 0.2002 0.8979 0.1674
H20_3 H 0.2766 0.9296 0.2476
C11_3 C 0.2267(17) 0.9963(12) 0.447(2)
C12_3 C 0.2404(14) 0.9813(11) 0.3588(19)
H23_3 H 0.2944 0.9631 0.3809
H36_3 H 0.0064 0.7704 0.1161
C19_3 C 0.1066(9) 0.7459(6) 0.4064(10)
H37_3 H 0.1623 0.7530 0.4520
H38_3 H 0.1070 0.7213 0.3507
C20_3 C 0.0637(9) 0.7086(7) 0.4565(11)
H39_3 H 0.0980 0.6736 0.4942
H40_3 H 0.0145 0.6900 0.4075
C21_3 C 0.1056(11) 0.8322(9) 0.6553(13)
H41_3 H 0.0653 0.8236 0.6818
H42_3 H 0.1560 0.8435 0.7099
C22_3 C 0.1180(9) 0.7726(7) 0.6052(12)
H43_3 H 0.1584 0.7812 0.5788
H44_3 H 0.1381 0.7380 0.6531
H47_3 H 0.0183 0.6799 0.6003
H49_3 H 0.0184 0.9812 0.3869
N2_3 N 0.1818(7) 0.9349(6) 0.2750(10)
N4_3 N 0.0423(7) 0.7524(6) 0.5251(10)
O6_3 O 0.0311(7) 0.8817(5) 0.2083(7)
O7_3 O 0.2085(9) 0.8010(6) 0.2940(11)
H53_3 H 0.2078 0.7560 0.2941
O8_3 O 0.2129(8) 0.8721(5) 0.4651(11)
O9_3 O 0.2109(8) 0.9470(6) 0.5951(11)
O10_2 O 0.3291(7) 0.9291(6) 0.5771(10)
O15_3 O 0.0811(8) 0.6739(6) 0.0523(9)
O16_3 O 0.0684(8) 0.8057(6) 0.3731(9)
O17_3 O 0.0791(8) 0.8858(5) 0.5871(9)
H55_3 H 0.0914 0.9295 0.5986
H10_3 H 0.6885 0.0276 0.2764
C26_3 C 0.497(2) 0.0460(15) 0.372(2)
H57_3 H 0.5299 0.0738 0.3509
H58_3 H 0.5174 0.0461 0.4426
H59_3 H 0.4421 0.0612 0.3445
O23_2 O 0.3291(7) 0.0709(6) 0.0771(10)
Cu1_3 Cu 0.80847(8) 0.84935(7) 0.34138(10)
Cu2_3 Cu 0.93543(10) 0.85417(7) 0.22732(11)
Cu4_3 Cu 0.99620(9) 0.83325(7) 0.43828(10)
S1_3 S 0.6863(2) 0.94061(16) 0.1789(3)
S4_3 S 0.8405(3) 0.66670(19) 0.5302(4)
C1_3 C 0.8910(9) 0.8780(8) 0.5417(10)
H1_3 H 0.9418 0.8994 0.5805
H2_3 H 0.8788 0.8484 0.5847
C2_3 C 0.8266(9) 0.9265(7) 0.5041(10)
H3_3 H 0.8466 0.9646 0.4829
H4_3 H 0.8096 0.9392 0.5560
C3_3 C 0.6665(11) 0.8026(8) 0.3764(13)
H5_3 H 0.6403 0.7716 0.4032
H6_3 H 0.6244 0.8244 0.3216
C4_3 C 0.7093(8) 0.8507(7) 0.4533(10)
H7_3 H 0.7468 0.8286 0.5117
H8_3 H 0.6704 0.8738 0.4712
C5_3 C 0.7155(9) 0.9859(7) 0.2908(11)
H9_3 H 0.7735 0.9936 0.3173
C6_3 C 0.6945(9) 0.9514(6) 0.3676(11)
H11_3 H 0.6408 0.9327 0.3363
H12_3 H 0.6937 0.9823 0.4166
H13_3 H 0.9958 0.9644 0.1455
C13_3 C 0.8426(9) 0.7439(6) 0.2279(10)
H25_3 H 0.7938 0.7288 0.2340
H26_3 H 0.8838 0.7106 0.2536
C14_3 C 0.8254(9) 0.7568(7) 0.1218(10)
H27_3 H 0.8153 0.7164 0.0857
H28_3 H 0.7772 0.7835 0.0928
C15_3 C 0.8149(12) 0.8803(8) 0.0105(12)
H29_3 H 0.7618 0.8650 0.0029
C16_3 C 0.8651(11) 0.8258(7) 0.0138(11)
H31_3 H 0.9118 0.8404 0.0023
C17_3 C 0.9410(11) 0.6902(8) 0.0422(13)
H34_3 H 0.8946 0.6662 0.0419
C18_3 C 0.9632(9) 0.7447(7) 0.1211(10)
H35_3 H 0.9844 0.7248 0.1859
C23_3 C 0.9129(9) 0.6944(7) 0.4840(12)
H45_3 H 0.9249 0.6595 0.4482
H46_3 H 0.8892 0.7295 0.4379
C24_3 C 0.9890(8) 0.7169(7) 0.5625(11)
H48_3 H 0.9762 0.7449 0.6070
C25_3 C 0.9624(13) 0.9686(7) 0.3575(14)
H50_3 H 0.9362 0.9811 0.4000
H51_3 H 0.9362 0.9896 0.2946
N1_3 N 0.7557(6) 0.8985(5) 0.4182(7)
N3_3 N 0.8947(6) 0.7900(5) 0.1144(8)
O1_3 O 0.8995(6) 0.8435(5) 0.4666(7)
O2_3 O 0.7167(6) 0.7697(4) 0.3413(7)
H52_3 H 0.7143 0.7266 0.3224
O3_3 O 0.7268(6) 0.8770(4) 0.2083(7)
O4_3 O 0.7181(7) 0.9757(5) 0.1195(8)
O5_3 O 0.5991(7) 0.9348(5) 0.1399(8)
O11_3 O 0.8705(5) 0.8030(4) 0.2833(6)
O12_3 O 0.8484(6) 0.9201(5) 0.0983(7)
H54_3 H 0.8376 0.9636 0.1029
O14_3 O 0.9572(8) 0.9050(5) 0.3448(9)
O18_3 O 0.7659(7) 0.6588(6) 0.4426(11)
O19_3 O 0.8307(7) 0.7203(6) 0.5896(11)
O21_3 O 0.4998(10) 0.9822(8) 0.3381(12)
H56_3 H 0.5108 0.9443 0.3750
S2_4 S 0.2455(2) 0.06616(18) 0.0195(4)
C21_4 C 0.1056(11) 0.1678(9) 0.1553(13)
H41_4 H 0.0653 0.1764 0.1818
H42_4 H 0.1560 0.1565 0.2099
C22_4 C 0.1180(9) 0.2274(7) 0.1052(12)
H43_4 H 0.1584 0.2188 0.0788
H44_4 H 0.1381 0.2620 0.1531
H47_4 H 0.0183 0.3201 0.1003
N4_4 N 0.0423(7) 0.2476(6) 0.0251(10)
O9_4 O 0.2109(8) 0.0530(6) 0.0951(11)
O17_4 O 0.0791(8) 0.1142(5) 0.0871(9)
H55_4 H 0.0914 0.0705 0.0986
Cu3_4 Cu 0.12604(9) 0.13300(7) 0.82807(11)
S3_4 S 0.0229(4) 0.3622(3) 0.5677(5)
C7_4 C 0.0371(14) 0.0674(10) 0.6513(17)
H14_4 H 0.0268 0.0831 0.5855
C8_4 C 0.1158(13) 0.0368(10) 0.6925(17)
H15_4 H 0.1339 0.0322 0.6393
C9_4 C 0.2620(18) 0.1589(13) 0.772(2)
H17_4 H 0.3115 0.1539 0.8311
H18_4 H 0.2761 0.1798 0.7224
C10_4 C 0.2308(17) 0.0983(13) 0.738(2)
H19_4 H 0.2002 0.1021 0.6674
H20_4 H 0.2766 0.0704 0.7476
C11_4 C 0.2267(17) 0.0037(12) 0.947(2)
C12_4 C 0.2404(14) 0.0187(11) 0.8588(19)
H23_4 H 0.2944 0.0369 0.8809
H36_4 H 0.0064 0.2296 0.6161
C19_4 C 0.1066(9) 0.2541(6) 0.9064(10)
H37_4 H 0.1623 0.2470 0.9520
H38_4 H 0.1070 0.2787 0.8507
C20_4 C 0.0637(9) 0.2914(7) 0.9565(11)
H39_4 H 0.0980 0.3264 0.9942
H40_4 H 0.0145 0.3100 0.9075
H49_4 H 0.0184 0.0188 0.8869
N2_4 N 0.1818(7) 0.0651(6) 0.7750(10)
O6_4 O 0.0311(7) 0.1183(5) 0.7083(7)
O7_4 O 0.2085(9) 0.1990(6) 0.7940(11)
H53_4 H 0.2078 0.2440 0.7941
O8_4 O 0.2129(8) 0.1279(5) 0.9651(11)
O15_4 O 0.0811(8) 0.3261(6) 0.5523(9)
O16_4 O 0.0684(8) 0.1943(6) 0.8731(9)
S4_4 S 0.8405(3) 0.33330(19) 0.0302(4)
C1_4 C 0.8910(9) 0.1220(8) 0.0417(10)
H1_4 H 0.9418 0.1006 0.0805
H2_4 H 0.8788 0.1516 0.0847
C2_4 C 0.8266(9) 0.0735(7) 0.0041(10)
H4_4 H 0.8096 0.0608 0.0560
H7_4 H 0.7468 0.1714 0.0117
C24_4 C 0.9890(8) 0.2831(7) 0.0625(11)
H48_4 H 0.9762 0.2551 0.1070
O19_4 O 0.8307(7) 0.2797(6) 0.0896(11)
Cu1_4 Cu 0.80847(8) 0.15065(7) 0.84138(10)
Cu2_4 Cu 0.93543(10) 0.14583(7) 0.72732(11)
Cu4_4 Cu 0.99620(9) 0.16675(7) 0.93828(10)
S1_4 S 0.6863(2) 0.05939(16) 0.6789(3)
H3_4 H 0.8466 0.0354 0.9829
C3_4 C 0.6665(11) 0.1974(8) 0.8764(13)
H5_4 H 0.6403 0.2284 0.9032
H6_4 H 0.6244 0.1756 0.8216
C4_4 C 0.7093(8) 0.1493(7) 0.9533(10)
H8_4 H 0.6704 0.1262 0.9712
C5_4 C 0.7155(9) 0.0141(7) 0.7908(11)
H9_4 H 0.7735 0.0064 0.8173
C6_4 C 0.6945(9) 0.0486(6) 0.8676(11)
H11_4 H 0.6408 0.0673 0.8363
H12_4 H 0.6937 0.0177 0.9166
H13_4 H 0.9958 0.0356 0.6455
C13_4 C 0.8426(9) 0.2561(6) 0.7279(10)
H25_4 H 0.7938 0.2712 0.7340
H26_4 H 0.8838 0.2894 0.7536
C14_4 C 0.8254(9) 0.2432(7) 0.6218(10)
H27_4 H 0.8153 0.2836 0.5857
H28_4 H 0.7772 0.2165 0.5928
C15_4 C 0.8149(12) 0.1197(8) 0.5105(12)
H29_4 H 0.7618 0.1350 0.5029
H30_2 H 0.8079 0.0936 0.4532
C16_4 C 0.8651(11) 0.1742(7) 0.5138(11)
H31_4 H 0.9118 0.1596 0.5023
H32_2 H 0.8348 0.2041 0.4613
C17_4 C 0.9410(11) 0.3098(8) 0.5422(13)
H33_2 H 0.9264 0.2909 0.4772
H34_4 H 0.8946 0.3338 0.5419
C18_4 C 0.9632(9) 0.2553(7) 0.6211(10)
H35_4 H 0.9844 0.2752 0.6859
C23_4 C 0.9129(9) 0.3056(7) 0.9840(12)
H45_4 H 0.9249 0.3405 0.9482
H46_4 H 0.8892 0.2705 0.9379
C25_4 C 0.9624(13) 0.0314(7) 0.8575(14)
H50_4 H 0.9362 0.0189 0.9000
H51_4 H 0.9362 0.0104 0.7946
N1_4 N 0.7557(6) 0.1015(5) 0.9182(7)
N3_4 N 0.8947(6) 0.2100(5) 0.6144(8)
O1_4 O 0.8995(6) 0.1565(5) 0.9666(7)
O2_4 O 0.7167(6) 0.2303(4) 0.8413(7)
H52_4 H 0.7143 0.2734 0.8224
O3_4 O 0.7268(6) 0.1230(4) 0.7083(7)
O4_4 O 0.7181(7) 0.0243(5) 0.6195(8)
O5_4 O 0.5991(7) 0.0652(5) 0.6399(8)
O11_4 O 0.8705(5) 0.1970(4) 0.7833(6)
O12_4 O 0.8484(6) 0.0799(5) 0.5983(7)
H54_4 H 0.8376 0.0364 0.6029
O14_4 O 0.9572(8) 0.0950(5) 0.8448(9)
O18_4 O 0.7659(7) 0.3412(6) 0.9426(11)
O21_4 O 0.4998(10) 0.0178(8) 0.8381(12)
H56_4 H 0.5108 0.0557 0.8750
H10_4 H 0.6885 0.9724 0.7764
C26_4 C 0.497(2) 0.9540(15) 0.872(2)
H57_4 H 0.5299 0.9262 0.8509
H58_4 H 0.5174 0.9539 0.9426
H59_4 H 0.4421 0.9388 0.8445
H30_3 H 0.3079 0.4064 0.9532
H32_3 H 0.3348 0.2959 0.9613
H33_3 H 0.4264 0.2091 0.9772
O22_2 O 0.4852(13) 0.0858(9) 0.9918(13)
O26_2 O 0.9852(13) 0.5858(9) 0.9918(13)
H30_4 H 0.8079 0.9064 0.9532
H32_4 H 0.8348 0.7959 0.9613
H33_4 H 0.9264 0.7091 0.9772
H16_4 H 0.1079 0.9934 0.7121
H21_4 H 0.1709 0.9904 0.9284
H22_4 H 0.2615 0.9682 0.9822
H24_4 H 0.2416 0.9778 0.8273
loop_
_geom_bond_atom_site_label_1
_geom_bond_atom_site_label_2
_geom_bond_site_symmetry_1
_geom_bond_site_symmetry_2
Cu1 N1 1_555 1_555
Cu2 N3 1_555 1_555
Cu3 N2 1_555 1_555
Cu4 N4 1_555 1_555
S1 C5 1_555 1_555
S2 C11 1_555 1_555
S3 C17 1_555 1_555
S4 C23 1_555 1_555
C1 H1 1_555 1_555
H2 C1 1_555 1_555
C2 C1 1_555 1_555
H3 C2 1_555 1_555
H4 C2 1_555 1_555
C3 H5 1_555 1_555
H6 C3 1_555 1_555
C4 C3 1_555 1_555
H7 C4 1_555 1_555
H8 C4 1_555 1_555
C5 H9 1_555 1_555
H10 C5 1_555 1_555
C6 C5 1_555 1_555
H11 C6 1_555 1_555
H12 C6 1_555 1_555
C7 H13 1_555 1_555
H14 C7 1_555 1_555
C8 C7 1_555 1_555
H15 C8 1_555 1_555
H16 C8 1_555 1_555
C9 H17 1_555 1_555
H18 C9 1_555 1_555
C10 C9 1_555 1_555
H19 C10 1_555 1_555
H20 C10 1_555 1_555
C11 H21 1_555 1_555
H22 C11 1_555 1_555
C12 C11 1_555 1_555
H23 C12 1_555 1_555
H24 C12 1_555 1_555
C13 H25 1_555 1_555
H26 C13 1_555 1_555
C14 C13 1_555 1_555
H27 C14 1_555 1_555
H28 C14 1_555 1_555
C15 H29 1_555 1_555
C16 C15 1_555 1_555
H31 C16 1_555 1_555
H34 C17 1_555 1_555
C18 C17 1_555 1_555
H35 C18 1_555 1_555
H36 C18 1_555 1_555
C19 H37 1_555 1_555
H38 C19 1_555 1_555
C20 C19 1_555 1_555
H39 C20 1_555 1_555
H40 C20 1_555 1_555
C21 H41 1_555 1_555
H42 C21 1_555 1_555
C22 C21 1_555 1_555
H43 C22 1_555 1_555
H44 C22 1_555 1_555
C23 H45 1_555 1_555
H46 C23 1_555 1_555
C24 C23 1_555 1_555
H47 C24 1_555 1_555
H48 C24 1_555 1_555
C25 H49 1_555 1_555
H50 C25 1_555 1_555
H51 C25 1_555 1_555
N1 C2 1_555 1_555
N2 C8 1_555 1_555
N3 C14 1_555 1_555
N4 C20 1_555 1_555
O1 Cu1 1_555 1_555
O2 Cu1 1_555 1_555
H52 O2 1_555 1_555
O3 Cu1 1_555 1_555
O4 S1 1_555 1_555
O5 S1 1_555 1_555
O6 Cu2 1_555 1_555
O7 Cu3 1_555 1_555
H53 O7 1_555 1_555
O8 Cu3 1_555 1_555
O9 S2 1_555 1_555
O10 S2 1_555 1_555
O11 Cu1 1_555 1_555
O12 Cu2 1_555 1_555
H54 O12 1_555 1_555
O13 S3 1_555 1_555
O14 Cu2 1_555 1_555
O15 S3 1_555 1_555
O16 Cu2 1_555 1_555
O17 Cu4 1_555 1_555
H55 O17 1_555 1_555
O18 S4 1_555 1_555
O19 S4 1_555 1_555
O20 S4 1_555 1_555
K2 O10 1_555 1_555
K4 O20 1_555 1_555
Cu2 O11 1_555 1_555
Cu3 O6 1_555 1_555
Cu3 O16 1_555 1_555
Cu4 O1 1_555 1_555
Cu4 O11 1_555 1_555
Cu4 O14 1_555 1_555
Cu4 O16 1_555 1_555
S1 O3 1_555 1_555
S2 O8 1_555 1_555
C1 O1 1_555 1_555
C3 O2 1_555 1_555
C4 N1 1_555 1_555
C6 N1 1_555 1_555
C7 O6 1_555 1_555
C9 O7 1_555 1_555
C10 N2 1_555 1_555
C12 N2 1_555 1_555
C13 O11 1_555 1_555
C15 O12 1_555 1_555
C16 N3 1_555 1_555
C18 N3 1_555 1_555
C19 O16 1_555 1_555
C21 O17 1_555 1_555
C22 N4 1_555 1_555
C24 N4 1_555 1_555
C25 O14 1_555 1_555
O21 K1 1_555 1_555
C26 O21 1_555 1_555
H59 C26 1_555 1_555
O23 K1 1_555 1_555
O25 K1 1_555 1_555
C1_2 H1_2 1_555 1_555
H2_2 C1_2 1_555 1_555
C2_2 C1_2 1_555 1_555
H4_2 C2_2 1_555 1_555
C21_2 H41_2 1_555 1_555
H42_2 C21_2 1_555 1_555
C22_2 C21_2 1_555 1_555
H43_2 C22_2 1_555 1_555
H44_2 C22_2 1_555 1_555
H47_2 C24_2 1_555 1_555
H48_2 C24_2 1_555 1_555
O9_2 S2_2 1_555 1_555
O23 S2_2 1_555 1_555
H55_2 O17_2 1_555 1_555
O19_2 S4_2 1_555 1_555
O20_2 S4_2 1_555 1_555
K3 O20_2 1_555 1_555
C21_2 O17_2 1_555 1_555
C22_2 N4_2 1_555 1_555
C24_2 N4_2 1_555 1_555
Cu1_2 N1_2 1_555 1_555
Cu2_2 N3_2 1_555 1_555
Cu3_2 N2_2 1_555 1_555
S1_2 C5_2 1_555 1_555
S3_2 C17_2 1_555 1_555
C3_2 H5_2 1_555 1_555
H6_2 C3_2 1_555 1_555
C4_2 C3_2 1_555 1_555
H8_2 C4_2 1_555 1_555
C5_2 H9_2 1_555 1_555
H10_2 C5_2 1_555 1_555
C6_2 C5_2 1_555 1_555
H11_2 C6_2 1_555 1_555
H12_2 C6_2 1_555 1_555
C7_2 H13_2 1_555 1_555
H14_2 C7_2 1_555 1_555
C8_2 C7_2 1_555 1_555
H15_2 C8_2 1_555 1_555
H16_2 C8_2 1_555 1_555
C9_2 H17_2 1_555 1_555
H18_2 C9_2 1_555 1_555
C10_2 C9_2 1_555 1_555
H19_2 C10_2 1_555 1_555
H20_2 C10_2 1_555 1_555
C11_2 H21_2 1_555 1_555
H22_2 C11_2 1_555 1_555
C12_2 C11_2 1_555 1_555
H23_2 C12_2 1_555 1_555
H24_2 C12_2 1_555 1_555
C13_2 H25_2 1_555 1_555
H26_2 C13_2 1_555 1_555
C14_2 C13_2 1_555 1_555
H27_2 C14_2 1_555 1_555
H28_2 C14_2 1_555 1_555
C15_2 H29_2 1_555 1_555
H30 C15_2 1_555 1_555
C16_2 C15_2 1_555 1_555
H31_2 C16_2 1_555 1_555
H32 C16_2 1_555 1_555
C17_2 H33 1_555 1_555
H34_2 C17_2 1_555 1_555
C18_2 C17_2 1_555 1_555
H35_2 C18_2 1_555 1_555
H36_2 C18_2 1_555 1_555
C19_2 H37_2 1_555 1_555
H38_2 C19_2 1_555 1_555
C20_2 C19_2 1_555 1_555
H39_2 C20_2 1_555 1_555
H40_2 C20_2 1_555 1_555
C23_2 H45_2 1_555 1_555
H46_2 C23_2 1_555 1_555
C25_2 H49_2 1_555 1_555
H50_2 C25_2 1_555 1_555
H51_2 C25_2 1_555 1_555
N2_2 C8_2 1_555 1_555
N3_2 C14_2 1_555 1_555
O1_2 Cu1_2 1_555 1_555
O2_2 Cu1_2 1_555 1_555
H52_2 O2_2 1_555 1_555
O3_2 Cu1_2 1_555 1_555
O4_2 S1_2 1_555 1_555
O5_2 S1_2 1_555 1_555
O6_2 Cu2_2 1_555 1_555
O7_2 Cu3_2 1_555 1_555
H53_2 O7_2 1_555 1_555
O8_2 Cu3_2 1_555 1_555
O11_2 Cu1_2 1_555 1_555
O12_2 Cu2_2 1_555 1_555
H54_2 O12_2 1_555 1_555
O13_2 S3_2 1_555 1_555
O14_2 Cu2_2 1_555 1_555
O15_2 S3_2 1_555 1_555
O16_2 Cu2_2 1_555 1_555
O22 S3_2 1_555 1_555
Cu2_2 O11_2 1_555 1_555
Cu3_2 O6_2 1_555 1_555
Cu3_2 O16_2 1_555 1_555
Cu4_2 O1_2 1_555 1_555
Cu4_2 O11_2 1_555 1_555
Cu4_2 O14_2 1_555 1_555
Cu4_2 O16_2 1_555 1_555
S1_2 O3_2 1_555 1_555
C3_2 O2_2 1_555 1_555
C4_2 N1_2 1_555 1_555
C6_2 N1_2 1_555 1_555
C7_2 O6_2 1_555 1_555
C9_2 O7_2 1_555 1_555
C10_2 N2_2 1_555 1_555
C12_2 N2_2 1_555 1_555
C13_2 O11_2 1_555 1_555
C15_2 O12_2 1_555 1_555
C16_2 N3_2 1_555 1_555
C18_2 N3_2 1_555 1_555
C19_2 O16_2 1_555 1_555
C25_2 O14_2 1_555 1_555
O21_2 K2 1_555 1_555
C26_2 O21_2 1_555 1_555
H59_2 C26_2 1_555 1_555
O25_2 K2 1_555 1_555
O26 K2 1_555 1_555
Cu3_3 N2_3 1_555 1_555
S2_3 C11_3 1_555 1_555
H14_3 C7_3 1_555 1_555
C8_3 C7_3 1_555 1_555
H15_3 C8_3 1_555 1_555
C9_3 H17_3 1_555 1_555
H18_3 C9_3 1_555 1_555
C10_3 C9_3 1_555 1_555
H19_3 C10_3 1_555 1_555
H20_3 C10_3 1_555 1_555
C12_3 C11_3 1_555 1_555
H23_3 C12_3 1_555 1_555
C19_3 H37_3 1_555 1_555
H38_3 C19_3 1_555 1_555
C20_3 C19_3 1_555 1_555
H39_3 C20_3 1_555 1_555
H40_3 C20_3 1_555 1_555
C21_3 H41_3 1_555 1_555
H42_3 C21_3 1_555 1_555
C22_3 C21_3 1_555 1_555
H43_3 C22_3 1_555 1_555
H44_3 C22_3 1_555 1_555
N2_3 C8_3 1_555 1_555
N4_3 C20_3 1_555 1_555
O7_3 Cu3_3 1_555 1_555
H53_3 O7_3 1_555 1_555
O8_3 Cu3_3 1_555 1_555
O9_3 S2_3 1_555 1_555
O10_2 S2_3 1_555 1_555
O24 S3_3 1_555 1_555
O15_3 S3_3 1_555 1_555
H55_3 O17_3 1_555 1_555
Cu3_3 O6_3 1_555 1_555
Cu3_3 O16_3 1_555 1_555
S2_3 O8_3 1_555 1_555
C7_3 O6_3 1_555 1_555
C9_3 O7_3 1_555 1_555
C10_3 N2_3 1_555 1_555
C12_3 N2_3 1_555 1_555
C19_3 O16_3 1_555 1_555
C21_3 O17_3 1_555 1_555
C22_3 N4_3 1_555 1_555
H57_3 C26_3 1_555 1_555
H58_3 C26_3 1_555 1_555
H59_3 C26_3 1_555 1_555
Cu1_3 N1_3 1_555 1_555
Cu2_3 N3_3 1_555 1_555
K3 O5_3 1_555 1_555
S1_3 C5_3 1_555 1_555
S4_3 C23_3 1_555 1_555
C1_3 H1_3 1_555 1_555
H2_3 C1_3 1_555 1_555
C2_3 C1_3 1_555 1_555
H3_3 C2_3 1_555 1_555
H4_3 C2_3 1_555 1_555
C3_3 H5_3 1_555 1_555
H6_3 C3_3 1_555 1_555
C4_3 C3_3 1_555 1_555
H7_3 C4_3 1_555 1_555
H8_3 C4_3 1_555 1_555
C5_3 H9_3 1_555 1_555
C6_3 C5_3 1_555 1_555
H11_3 C6_3 1_555 1_555
H12_3 C6_3 1_555 1_555
C13_3 H25_3 1_555 1_555
H26_3 C13_3 1_555 1_555
C14_3 C13_3 1_555 1_555
H27_3 C14_3 1_555 1_555
H28_3 C14_3 1_555 1_555
C15_3 H29_3 1_555 1_555
C16_3 C15_3 1_555 1_555
H31_3 C16_3 1_555 1_555
H34_3 C17_3 1_555 1_555
C18_3 C17_3 1_555 1_555
H35_3 C18_3 1_555 1_555
C23_3 H45_3 1_555 1_555
H46_3 C23_3 1_555 1_555
C24_3 C23_3 1_555 1_555
H48_3 C24_3 1_555 1_555
H50_3 C25_3 1_555 1_555
H51_3 C25_3 1_555 1_555
N1_3 C2_3 1_555 1_555
N3_3 C14_3 1_555 1_555
O1_3 Cu1_3 1_555 1_555
O2_3 Cu1_3 1_555 1_555
H52_3 O2_3 1_555 1_555
O3_3 Cu1_3 1_555 1_555
O4_3 S1_3 1_555 1_555
O5_3 S1_3 1_555 1_555
O11_3 Cu1_3 1_555 1_555
O12_3 Cu2_3 1_555 1_555
H54_3 O12_3 1_555 1_555
O14_3 Cu2_3 1_555 1_555
O18_3 S4_3 1_555 1_555
O19_3 S4_3 1_555 1_555
O25_2 S4_3 1_555 1_555
O21_3 K3 1_555 1_555
H56_3 O21_3 1_555 1_555
Cu2_3 O11_3 1_555 1_555
Cu4_3 O1_3 1_555 1_555
Cu4_3 O11_3 1_555 1_555
Cu4_3 O14_3 1_555 1_555
S1_3 O3_3 1_555 1_555
C1_3 O1_3 1_555 1_555
C3_3 O2_3 1_555 1_555
C4_3 N1_3 1_555 1_555
C6_3 N1_3 1_555 1_555
C13_3 O11_3 1_555 1_555
C15_3 O12_3 1_555 1_555
C16_3 N3_3 1_555 1_555
C18_3 N3_3 1_555 1_555
C25_3 O14_3 1_555 1_555
C21_4 H41_4 1_555 1_555
H42_4 C21_4 1_555 1_555
C22_4 C21_4 1_555 1_555
H43_4 C22_4 1_555 1_555
H44_4 C22_4 1_555 1_555
O9_4 S2_4 1_555 1_555
O23_2 S2_4 1_555 1_555
H55_4 O17_4 1_555 1_555
C21_4 O17_4 1_555 1_555
C22_4 N4_4 1_555 1_555
Cu3_4 N2_4 1_555 1_555
H14_4 C7_4 1_555 1_555
C8_4 C7_4 1_555 1_555
H15_4 C8_4 1_555 1_555
C9_4 H17_4 1_555 1_555
H18_4 C9_4 1_555 1_555
C10_4 C9_4 1_555 1_555
H19_4 C10_4 1_555 1_555
H20_4 C10_4 1_555 1_555
C12_4 C11_4 1_555 1_555
H23_4 C12_4 1_555 1_555
C19_4 H37_4 1_555 1_555
H38_4 C19_4 1_555 1_555
C20_4 C19_4 1_555 1_555
H39_4 C20_4 1_555 1_555
H40_4 C20_4 1_555 1_555
N2_4 C8_4 1_555 1_555
O7_4 Cu3_4 1_555 1_555
H53_4 O7_4 1_555 1_555
O8_4 Cu3_4 1_555 1_555
O24_2 S3_4 1_555 1_555
O15_4 S3_4 1_555 1_555
Cu3_4 O6_4 1_555 1_555
Cu3_4 O16_4 1_555 1_555
C7_4 O6_4 1_555 1_555
C9_4 O7_4 1_555 1_555
C10_4 N2_4 1_555 1_555
C12_4 N2_4 1_555 1_555
C19_4 O16_4 1_555 1_555
C1_4 H1_4 1_555 1_555
H2_4 C1_4 1_555 1_555
C2_4 C1_4 1_555 1_555
H4_4 C2_4 1_555 1_555
H48_4 C24_4 1_555 1_555
O19_4 S4_4 1_555 1_555
O25 S4_4 1_555 1_555
Cu1_4 N1_4 1_555 1_555
Cu2_4 N3_4 1_555 1_555
K4 O5_4 1_555 1_555
S1_4 C5_4 1_555 1_555
C3_4 H5_4 1_555 1_555
H6_4 C3_4 1_555 1_555
C4_4 C3_4 1_555 1_555
H8_4 C4_4 1_555 1_555
C5_4 H9_4 1_555 1_555
C6_4 C5_4 1_555 1_555
H11_4 C6_4 1_555 1_555
H12_4 C6_4 1_555 1_555
C13_4 H25_4 1_555 1_555
H26_4 C13_4 1_555 1_555
C14_4 C13_4 1_555 1_555
H27_4 C14_4 1_555 1_555
H28_4 C14_4 1_555 1_555
C15_4 H29_4 1_555 1_555
H30_2 C15_4 1_555 1_555
C16_4 C15_4 1_555 1_555
H31_4 C16_4 1_555 1_555
H32_2 C16_4 1_555 1_555
C17_4 H33_2 1_555 1_555
H34_4 C17_4 1_555 1_555
C18_4 C17_4 1_555 1_555
H35_4 C18_4 1_555 1_555
C23_4 H45_4 1_555 1_555
H46_4 C23_4 1_555 1_555
H50_4 C25_4 1_555 1_555
H51_4 C25_4 1_555 1_555
N3_4 C14_4 1_555 1_555
O1_4 Cu1_4 1_555 1_555
O2_4 Cu1_4 1_555 1_555
H52_4 O2_4 1_555 1_555
O3_4 Cu1_4 1_555 1_555
O4_4 S1_4 1_555 1_555
O5_4 S1_4 1_555 1_555
O11_4 Cu1_4 1_555 1_555
O12_4 Cu2_4 1_555 1_555
H54_4 O12_4 1_555 1_555
O14_4 Cu2_4 1_555 1_555
O21_4 K4 1_555 1_555
H56_4 O21_4 1_555 1_555
Cu2_4 O11_4 1_555 1_555
Cu4_4 O1_4 1_555 1_555
Cu4_4 O11_4 1_555 1_555
Cu4_4 O14_4 1_555 1_555
S1_4 O3_4 1_555 1_555
C3_4 O2_4 1_555 1_555
C4_4 N1_4 1_555 1_555
C6_4 N1_4 1_555 1_555
C13_4 O11_4 1_555 1_555
C15_4 O12_4 1_555 1_555
C16_4 N3_4 1_555 1_555
C18_4 N3_4 1_555 1_555
C25_4 O14_4 1_555 1_555
H57_4 C26_4 1_555 1_555
H58_4 C26_4 1_555 1_555
H59_4 C26_4 1_555 1_555

#END
