
###############################################################################
#
# This file contains modified crystal structure data generated from the
# MOF subset of the Cambridge Structural Database (CSD) v543 
# hosted by the Cambridge Crystallographic Data Centre (CCDC).
#
# This work is licensed under the Creative Commons
# Attribution-NonCommercial-ShareAlike 4.0 International License.
# To view a copy of this license, visit
# http://creativecommons.org/licenses/by-nc-sa/4.0/
# or send a letter to
# Creative Commons, PO Box 1866, Mountain View, CA 94042, USA.
#
# CIF created using the CSD Python API on 29 September 2022
# The structure has been converted into the P1 space group
# The structure has a 3D framework
# The original CSD entry TIZVED01 is in the monoclinic crystal system
# The framework has been calculated to contain at least 10.0% void space
# The void calculation uses a probe of radius 1.32A, grid spacing 0.4
# The framework is charged, counterions have been retained in the structure
#
###############################################################################

data_TIZVED01
_chemical_formula_moiety         '(C80 H64 B4 Cu4 F16 N16)n'
_symmetry_cell_setting           triclinic
_symmetry_space_group_name_H-M   'P 1'
_symmetry_Int_Tables_number      1
_space_group_name_Hall           'P 1'
loop_
_symmetry_equiv_pos_site_id
_symmetry_equiv_pos_as_xyz
1 x,y,z
_cell_length_a                   9.599(3)
_cell_length_b                   27.298(5)
_cell_length_c                   13.367(3)
_cell_angle_alpha                90
_cell_angle_beta                 105.45(2)
_cell_angle_gamma                90
_cell_volume                     3376.03
loop_
_atom_site_label
_atom_site_type_symbol
_atom_site_fract_x
_atom_site_fract_y
_atom_site_fract_z
N5 N 0.596(1) 0.5721(4) 0.0566(8)
N6 N 0.370(1) 0.6570(4) 0.0836(8)
C3 C 0.970(1) 0.4533(5) 0.198(1)
C4 C 0.852(2) 0.4789(5) 0.131(1)
C5 C 0.814(1) 0.5237(6) 0.168(1)
C6 C 0.891(2) 0.5416(5) 0.270(1)
C8 C 0.700(2) 0.5502(5) 0.110(1)
C9 C 0.770(2) 0.4596(6) 0.029(1)
H1 H 0.9966 0.4247 0.1739
H2 H 0.8627 0.5680 0.3220
H3 H 0.8290 0.4238 0.0120
H4 H 0.7208 0.4567 0.0437
N2 N 0.096(1) 0.9279(4) 0.5566(8)
C5_2 C 0.314(1) 0.9763(6) 0.668(1)
C6_2 C 0.391(2) 0.9584(5) 0.770(1)
C7 C 0.510(1) 0.9832(5) 0.8272(8)
C8_2 C 0.200(2) 0.9498(5) 0.610(1)
C10 C 0.591(1) 0.9631(5) 0.934(1)
H2_2 H 0.3627 0.9320 0.8220
H6 H 0.5326 0.9603 0.9773
H7 H 0.6308 0.9311 0.9234
H8 H 0.6724 0.9841 0.9622
N3 N 0.001(1) 0.8421(5) 0.387(1)
C11 C 0.051(1) 0.8141(5) 0.340(1)
C12 C 0.125(1) 0.7800(5) 0.2885(9)
C13 C 0.106(2) 0.7297(7) 0.302(1)
C14 C 0.171(1) 0.6955(5) 0.2528(9)
C15 C 0.259(1) 0.7153(6) 0.191(1)
C16 C 0.267(2) 0.7649(5) 0.173(1)
C17 C 0.197(2) 0.7966(6) 0.224(1)
C18 C 0.322(2) 0.6809(6) 0.129(1)
C19 C 0.168(2) 0.6443(6) 0.269(1)
C20 C 0.218(2) 0.8543(6) 0.203(1)
H9 H 0.0516 0.7216 0.3473
H10 H 0.3207 0.7771 0.1339
H11 H 0.0617 0.6353 0.2501
H12 H 0.2120 0.6263 0.2307
H13 H 0.2001 0.6374 0.3419
H14 H 0.2618 0.8700 0.2739
H15 H 0.2685 0.8619 0.1604
H16 H 0.1206 0.8698 0.1843
N1 N 0.261(1) 0.5757(4) 0.8966(9)
N3_2 N 0.501(1) 0.6579(5) 0.887(1)
N4 N 0.870(1) 0.8430(4) 0.5836(8)
C1 C 0.171(1) 0.5550(5) 0.854(1)
C2 C 0.044(1) 0.5260(5) 0.788(1)
C7_2 C 0.010(1) 0.4832(5) 0.8272(8)
C10_2 C 0.091(1) 0.4631(5) 0.934(1)
C11_2 C 0.551(1) 0.6859(5) 0.840(1)
C12_2 C 0.625(1) 0.7200(5) 0.7885(9)
C13_2 C 0.606(2) 0.7703(7) 0.802(1)
C14_2 C 0.671(1) 0.8045(5) 0.7528(9)
C15_2 C 0.759(1) 0.7847(6) 0.691(1)
C16_2 C 0.767(2) 0.7351(5) 0.673(1)
C17_2 C 0.697(2) 0.7034(6) 0.724(1)
C18_2 C 0.822(2) 0.8191(6) 0.629(1)
C19_2 C 0.668(2) 0.8557(6) 0.769(1)
C20_2 C 0.718(2) 0.6457(6) 0.703(1)
Cu1 Cu 0.4291 0.61339(3) 0.9815
H6_2 H 0.0326 0.4603 0.9773
H7_2 H 0.1308 0.4311 0.9234
H8_2 H 0.1724 0.4841 0.9622
H9_2 H 0.5516 0.7784 0.8473
H10_2 H 0.8207 0.7229 0.6339
H11_2 H 0.5617 0.8647 0.7501
H12_2 H 0.7120 0.8737 0.7307
H13_2 H 0.7001 0.8626 0.8419
H14_2 H 0.7618 0.6300 0.7739
H15_2 H 0.7685 0.6381 0.6604
H16_2 H 0.6206 0.6302 0.6843
Cu3 Cu 0.9291 0.88661(3) 0.4815
H5 H 0.7677 0.4827 0.9676
N1_2 N 0.761(1) 0.9243(4) 0.3966(9)
C1_2 C 0.671(1) 0.9450(5) 0.354(1)
C2_2 C 0.544(1) 0.9740(5) 0.288(1)
C3_2 C 0.470(1) 0.9533(5) 0.198(1)
C4_2 C 0.352(2) 0.9789(5) 0.131(1)
C9_2 C 0.270(2) 0.9596(6) 0.029(1)
H1_2 H 0.4966 0.9247 0.1739
H3_2 H 0.3290 0.9238 0.0120
H4_2 H 0.2208 0.9567 0.0437
N2_2 N 0.596(1) 0.4279(4) 0.5566(8)
C3_3 C 0.970(1) 0.5467(5) 0.698(1)
C4_3 C 0.852(2) 0.5211(5) 0.631(1)
C5_3 C 0.814(1) 0.4763(6) 0.668(1)
C6_3 C 0.891(2) 0.4584(5) 0.770(1)
C8_3 C 0.700(2) 0.4498(5) 0.610(1)
C9_3 C 0.770(2) 0.5404(6) 0.529(1)
H1_3 H 0.9966 0.5753 0.6739
H2_3 H 0.8627 0.4320 0.8220
H3_3 H 0.8290 0.5762 0.5120
H4_3 H 0.7208 0.5433 0.5437
H5_2 H 0.7677 0.5173 0.4676
Cu2 Cu 0.4291 0.38661(3) 0.4815
N1_3 N 0.261(1) 0.4243(4) 0.3966(9)
N3_3 N 0.501(1) 0.3421(5) 0.387(1)
N4_2 N 0.870(1) 0.1570(4) 0.0836(8)
C1_3 C 0.171(1) 0.4450(5) 0.354(1)
C2_3 C 0.044(1) 0.4740(5) 0.288(1)
C7_3 C 0.010(1) 0.5168(5) 0.3272(8)
C10_3 C 0.091(1) 0.5369(5) 0.434(1)
C11_3 C 0.551(1) 0.3141(5) 0.340(1)
C12_3 C 0.625(1) 0.2800(5) 0.2885(9)
C13_3 C 0.606(2) 0.2297(7) 0.302(1)
C14_3 C 0.671(1) 0.1955(5) 0.2528(9)
C15_3 C 0.759(1) 0.2153(6) 0.191(1)
C16_3 C 0.767(2) 0.2649(5) 0.173(1)
C17_3 C 0.697(2) 0.2966(6) 0.224(1)
C18_3 C 0.822(2) 0.1809(6) 0.129(1)
C19_3 C 0.668(2) 0.1443(6) 0.269(1)
C20_3 C 0.718(2) 0.3543(6) 0.203(1)
H6_3 H 0.0326 0.5397 0.4773
H7_3 H 0.1308 0.5689 0.4234
H8_3 H 0.1724 0.5159 0.4622
H9_3 H 0.5516 0.2216 0.3473
H10_3 H 0.8207 0.2771 0.1339
H11_3 H 0.5617 0.1353 0.2501
H12_3 H 0.7120 0.1263 0.2307
H13_3 H 0.7001 0.1374 0.3419
H14_3 H 0.7618 0.3700 0.2739
H15_3 H 0.7685 0.3619 0.1604
H16_3 H 0.6206 0.3698 0.1843
N6_2 N 0.370(1) 0.3430(4) 0.5836(8)
N3_4 N 0.001(1) 0.1579(5) 0.887(1)
C11_4 C 0.051(1) 0.1859(5) 0.840(1)
C12_4 C 0.125(1) 0.2200(5) 0.7885(9)
C13_4 C 0.106(2) 0.2703(7) 0.802(1)
C14_4 C 0.171(1) 0.3045(5) 0.7528(9)
C15_4 C 0.259(1) 0.2847(6) 0.691(1)
C16_4 C 0.267(2) 0.2351(5) 0.673(1)
C17_4 C 0.197(2) 0.2034(6) 0.724(1)
C18_4 C 0.322(2) 0.3191(6) 0.629(1)
C19_4 C 0.168(2) 0.3557(6) 0.769(1)
C20_4 C 0.218(2) 0.1457(6) 0.703(1)
H9_4 H 0.0516 0.2784 0.8473
H10_4 H 0.3207 0.2229 0.6339
H11_4 H 0.0617 0.3647 0.7501
H12_4 H 0.2120 0.3737 0.7307
H13_4 H 0.2001 0.3626 0.8419
H14_4 H 0.2618 0.1300 0.7739
H15_4 H 0.2685 0.1381 0.6604
H16_4 H 0.1206 0.1302 0.6843
Cu3_2 Cu 0.9291 0.11339(3) 0.9815
N1_4 N 0.761(1) 0.0757(4) 0.8966(9)
C1_4 C 0.671(1) 0.0550(5) 0.854(1)
C2_4 C 0.544(1) 0.0260(5) 0.788(1)
C3_4 C 0.470(1) 0.0467(5) 0.698(1)
C4_4 C 0.352(2) 0.0211(5) 0.631(1)
C9_4 C 0.270(2) 0.0404(6) 0.529(1)
H1_4 H 0.4966 0.0753 0.6739
H3_4 H 0.3290 0.0762 0.5120
H4_4 H 0.2208 0.0433 0.5437
H5_3 H 0.2677 0.0173 0.4676
N5_2 N 0.096(1) 0.0721(4) 0.0566(8)
C5_4 C 0.314(1) 0.0237(6) 0.168(1)
C6_4 C 0.391(2) 0.0416(5) 0.270(1)
C7_4 C 0.510(1) 0.0168(5) 0.3272(8)
C8_4 C 0.200(2) 0.0502(5) 0.110(1)
C10_4 C 0.591(1) 0.0369(5) 0.434(1)
H2_4 H 0.3627 0.0680 0.3220
H6_4 H 0.5326 0.0397 0.4773
H7_4 H 0.6308 0.0689 0.4234
H8_4 H 0.6724 0.0159 0.4622
H5_4 H 0.2677 0.9827 0.9676
F2 F 0.039(1) 0.2773(4) 0.0486(8)
F3 F 0.045(1) 0.3410(4) 0.1524(10)
F4 F 0.182(1) 0.3405(5) 0.0384(10)
B1 B 0.065(2) 0.3269(8) 0.061(2)
F1 F 0.959(2) 0.3489(5) 0.996(2)
F2_2 F 0.039(1) 0.7227(4) 0.5486(8)
F3_2 F 0.045(1) 0.6590(4) 0.6524(10)
F4_2 F 0.182(1) 0.6595(5) 0.5384(10)
B1_2 B 0.065(2) 0.6731(8) 0.561(2)
F1_2 F 0.959(2) 0.6511(5) 0.496(2)
F2_3 F 0.539(1) 0.7773(4) 0.0486(8)
F3_3 F 0.545(1) 0.8410(4) 0.1524(10)
F4_3 F 0.682(1) 0.8405(5) 0.0384(10)
B1_3 B 0.565(2) 0.8269(8) 0.061(2)
F1_3 F 0.459(2) 0.8489(5) 0.996(2)
F1_4 F 0.459(2) 0.1511(5) 0.496(2)
F2_4 F 0.539(1) 0.2227(4) 0.5486(8)
F3_4 F 0.545(1) 0.1590(4) 0.6524(10)
F4_4 F 0.682(1) 0.1595(5) 0.5384(10)
B1_4 B 0.565(2) 0.1731(8) 0.561(2)
loop_
_geom_bond_atom_site_label_1
_geom_bond_atom_site_label_2
_geom_bond_site_symmetry_1
_geom_bond_site_symmetry_2
N5 C8 1_555 1_555
C3 C4 1_555 1_555
C4 C5 1_555 1_555
C5 C6 1_555 1_555
C8 C5 1_555 1_555
C9 C4 1_555 1_555
H1 C3 1_555 1_555
H2 C6 1_555 1_555
H3 C9 1_555 1_555
H4 C9 1_555 1_555
N2 C8_2 1_555 1_555
C5_2 C6_2 1_555 1_555
C6_2 C7 1_555 1_555
C8_2 C5_2 1_555 1_555
C10 C7 1_555 1_555
H2_2 C6_2 1_555 1_555
H6 C10 1_555 1_555
H7 C10 1_555 1_555
H8 C10 1_555 1_555
N3 C11 1_555 1_555
N6 C18 1_555 1_555
C11 C12 1_555 1_555
C12 C13 1_555 1_555
C13 C14 1_555 1_555
C14 C15 1_555 1_555
C15 C16 1_555 1_555
C16 C17 1_555 1_555
C17 C12 1_555 1_555
C18 C15 1_555 1_555
C19 C14 1_555 1_555
C20 C17 1_555 1_555
H9 C13 1_555 1_555
H10 C16 1_555 1_555
H11 C19 1_555 1_555
H12 C19 1_555 1_555
H13 C19 1_555 1_555
H14 C20 1_555 1_555
H15 C20 1_555 1_555
H16 C20 1_555 1_555
N1 C1 1_555 1_555
N3_2 C11_2 1_555 1_555
N4 C18_2 1_555 1_555
C1 C2 1_555 1_555
C7_2 C2 1_555 1_555
C10_2 C7_2 1_555 1_555
C11_2 C12_2 1_555 1_555
C12_2 C13_2 1_555 1_555
C13_2 C14_2 1_555 1_555
C14_2 C15_2 1_555 1_555
C15_2 C16_2 1_555 1_555
C16_2 C17_2 1_555 1_555
C17_2 C12_2 1_555 1_555
C18_2 C15_2 1_555 1_555
C19_2 C14_2 1_555 1_555
C20_2 C17_2 1_555 1_555
Cu1 N1 1_555 1_555
H6_2 C10_2 1_555 1_555
H7_2 C10_2 1_555 1_555
H8_2 C10_2 1_555 1_555
H9_2 C13_2 1_555 1_555
H10_2 C16_2 1_555 1_555
H11_2 C19_2 1_555 1_555
H12_2 C19_2 1_555 1_555
H13_2 C19_2 1_555 1_555
H14_2 C20_2 1_555 1_555
H15_2 C20_2 1_555 1_555
H16_2 C20_2 1_555 1_555
Cu3 N4 1_555 1_555
N3_2 Cu1 1_555 1_555
N1_2 C1_2 1_555 1_555
C1_2 C2_2 1_555 1_555
C2_2 C3_2 1_555 1_555
C3_2 C4_2 1_555 1_555
C9_2 C4_2 1_555 1_555
Cu3 N1_2 1_555 1_555
H1_2 C3_2 1_555 1_555
H3_2 C9_2 1_555 1_555
H4_2 C9_2 1_555 1_555
N2_2 C8_3 1_555 1_555
C3_3 C4_3 1_555 1_555
C4_3 C5_3 1_555 1_555
C5_3 C6_3 1_555 1_555
C8_3 C5_3 1_555 1_555
C9_3 C4_3 1_555 1_555
H1_3 C3_3 1_555 1_555
H2_3 C6_3 1_555 1_555
H3_3 C9_3 1_555 1_555
H4_3 C9_3 1_555 1_555
H5_2 C9_3 1_555 1_555
Cu2 N2_2 1_555 1_555
N1_3 C1_3 1_555 1_555
N3_3 C11_3 1_555 1_555
N4_2 C18_3 1_555 1_555
C1_3 C2_3 1_555 1_555
C7_3 C2_3 1_555 1_555
C10_3 C7_3 1_555 1_555
C11_3 C12_3 1_555 1_555
C12_3 C13_3 1_555 1_555
C13_3 C14_3 1_555 1_555
C14_3 C15_3 1_555 1_555
C15_3 C16_3 1_555 1_555
C16_3 C17_3 1_555 1_555
C17_3 C12_3 1_555 1_555
C18_3 C15_3 1_555 1_555
C19_3 C14_3 1_555 1_555
C20_3 C17_3 1_555 1_555
Cu2 N1_3 1_555 1_555
H6_3 C10_3 1_555 1_555
H7_3 C10_3 1_555 1_555
H8_3 C10_3 1_555 1_555
H9_3 C13_3 1_555 1_555
H10_3 C16_3 1_555 1_555
H11_3 C19_3 1_555 1_555
H12_3 C19_3 1_555 1_555
H13_3 C19_3 1_555 1_555
H14_3 C20_3 1_555 1_555
H15_3 C20_3 1_555 1_555
H16_3 C20_3 1_555 1_555
N6_2 Cu2 1_555 1_555
N3_3 Cu2 1_555 1_555
N3_4 C11_4 1_555 1_555
N6_2 C18_4 1_555 1_555
C11_4 C12_4 1_555 1_555
C12_4 C13_4 1_555 1_555
C13_4 C14_4 1_555 1_555
C14_4 C15_4 1_555 1_555
C15_4 C16_4 1_555 1_555
C16_4 C17_4 1_555 1_555
C17_4 C12_4 1_555 1_555
C18_4 C15_4 1_555 1_555
C19_4 C14_4 1_555 1_555
C20_4 C17_4 1_555 1_555
H9_4 C13_4 1_555 1_555
H10_4 C16_4 1_555 1_555
H11_4 C19_4 1_555 1_555
H12_4 C19_4 1_555 1_555
H13_4 C19_4 1_555 1_555
H14_4 C20_4 1_555 1_555
H15_4 C20_4 1_555 1_555
H16_4 C20_4 1_555 1_555
N1_4 C1_4 1_555 1_555
C1_4 C2_4 1_555 1_555
C2_4 C3_4 1_555 1_555
C3_4 C4_4 1_555 1_555
C9_4 C4_4 1_555 1_555
Cu3_2 N1_4 1_555 1_555
H1_4 C3_4 1_555 1_555
H3_4 C9_4 1_555 1_555
H4_4 C9_4 1_555 1_555
H5_3 C9_4 1_555 1_555
N5_2 C8_4 1_555 1_555
C5_4 C6_4 1_555 1_555
C6_4 C7_4 1_555 1_555
C8_4 C5_4 1_555 1_555
C10_4 C7_4 1_555 1_555
H2_4 C6_4 1_555 1_555
H6_4 C10_4 1_555 1_555
H7_4 C10_4 1_555 1_555
H8_4 C10_4 1_555 1_555
F2 B1 1_555 1_555
F3 B1 1_555 1_555
F4 B1 1_555 1_555
F2_2 B1_2 1_555 1_555
F3_2 B1_2 1_555 1_555
F4_2 B1_2 1_555 1_555
F2_3 B1_3 1_555 1_555
F3_3 B1_3 1_555 1_555
F4_3 B1_3 1_555 1_555
F1_4 B1_4 1_555 1_555
F2_4 B1_4 1_555 1_555
F3_4 B1_4 1_555 1_555
F4_4 B1_4 1_555 1_555

#END
