
###############################################################################
#
# This file contains modified crystal structure data generated from the
# MOF subset of the Cambridge Structural Database (CSD) v543 
# hosted by the Cambridge Crystallographic Data Centre (CCDC).
#
# This work is licensed under the Creative Commons
# Attribution-NonCommercial-ShareAlike 4.0 International License.
# To view a copy of this license, visit
# http://creativecommons.org/licenses/by-nc-sa/4.0/
# or send a letter to
# Creative Commons, PO Box 1866, Mountain View, CA 94042, USA.
#
# CIF created using the CSD Python API on 29 September 2022
# The structure has been converted into the P1 space group
# The structure has a 3D framework
# The original CSD entry TOBJUR is in the monoclinic crystal system
# The framework has been calculated to contain at least 10.0% void space
# The void calculation uses a probe of radius 1.32A, grid spacing 0.4
#
###############################################################################

data_TOBJUR
_chemical_formula_moiety         '(C68 H56 Eu4 N4 O28)n'
_symmetry_cell_setting           triclinic
_symmetry_space_group_name_H-M   'P 1'
_symmetry_Int_Tables_number      1
_space_group_name_Hall           'P 1'
loop_
_symmetry_equiv_pos_site_id
_symmetry_equiv_pos_as_xyz
1 x,y,z
_cell_length_a                   6.4633(15)
_cell_length_b                   17.072(4)
_cell_length_c                   23.816(6)
_cell_angle_alpha                90
_cell_angle_beta                 90.602(3)
_cell_angle_gamma                90
_cell_volume                     2627.75
loop_
_atom_site_label
_atom_site_type_symbol
_atom_site_fract_x
_atom_site_fract_y
_atom_site_fract_z
Eu1 Eu 0.26189(5) 0.06280(2) 0.022773(15)
O7 O 0.0333(10) 0.1673(4) 0.0007(3)
O9 O 0.6241(8) 0.0491(3) 0.0308(2)
O12 O 0.3733(8) 0.1371(4) 0.0931(2)
C15 C 0.026(2) 0.2204(7) 0.9664(5)
H7 H 0.1368 0.2244 0.9421
H8 H 0.0225 0.3276 0.8978
O10 O 0.3989(8) 0.1126(3) 0.9372(2)
O11 O 0.3156(8) 0.9546(3) 0.0854(2)
C1 C 0.2349(12) 0.9408(5) 0.9313(4)
C2 C 0.2717(12) 0.8944(5) 0.8825(3)
C3 C 0.4677(12) 0.8570(5) 0.8725(3)
C4 C 0.4863(12) 0.8128(6) 0.8231(4)
H1 H 0.6124 0.7888 0.8158
C5 C 0.3265(13) 0.8033(5) 0.7847(4)
C6 C 0.1366(14) 0.8394(6) 0.7944(4)
H2 H 0.0271 0.8330 0.7691
C7 C 0.1127(12) 0.8850(6) 0.8422(4)
C8 C 0.3562(12) 0.7513(6) 0.7348(4)
C9 C 0.1966(13) 0.7061(6) 0.7148(4)
H4 H 0.0684 0.7090 0.7321
C10 C 0.2216(12) 0.6557(5) 0.6692(4)
C11 C 0.4121(12) 0.6526(5) 0.6420(3)
C12 C 0.5724(13) 0.7011(6) 0.6620(4)
H5 H 0.6997 0.7007 0.6442
C13 C 0.5433(13) 0.7492(6) 0.7077(4)
H6 H 0.6515 0.7806 0.7204
C14 C 0.4464(12) 0.6009(5) 0.5935(3)
O1 O 0.0631(7) 0.9766(3) 0.9401(2)
O2 O 0.3759(8) 0.9509(3) 0.9692(2)
O3 O 0.6011(8) 0.6126(3) 0.5628(2)
O4 O 0.3156(8) 0.5454(3) 0.5854(2)
O5 O 0.6267(8) 0.8629(4) 0.9069(2)
O6 O 0.0565(9) 0.6116(5) 0.6539(3)
H14 H 0.0906 0.5807 0.6293
Eu2 Eu 0.73811(5) 0.56280(2) 0.477227(15)
Eu4 Eu 0.73811(5) 0.93720(2) 0.977227(15)
Eu5 Eu 0.26189(5) 0.43720(2) 0.522773(15)
H11 H 0.7055 0.2263 0.0208
H13 H 0.6714 0.3163 0.0115
O8 O 0.9369(7) 0.0234(3) 0.0599(2)
H3 H 0.9872 0.9103 0.8477
H3_2 H 0.0128 0.4103 0.6523
C16 C 0.108(2) 0.8307(7) 0.5835(6)
H9 H 0.1233 0.8816 0.5669
H10 H 0.2181 0.8221 0.6103
C17 C 0.3067(17) 0.7670(7) 0.5068(5)
H11_2 H 0.2945 0.7263 0.4792
H12 H 0.4217 0.7559 0.5314
H13_2 H 0.3286 0.8163 0.4885
N1 N 0.1170(17) 0.7707(6) 0.5395(5)
O8_2 O 0.0631(7) 0.5234(3) 0.4401(2)
C1_2 C 0.7651(12) 0.4408(5) 0.5687(4)
C2_2 C 0.7283(12) 0.3944(5) 0.6175(3)
C3_2 C 0.5323(12) 0.3570(5) 0.6275(3)
C4_2 C 0.5137(12) 0.3128(6) 0.6769(4)
H1_2 H 0.3876 0.2888 0.6842
C5_2 C 0.6735(13) 0.3033(5) 0.7153(4)
C6_2 C 0.8634(14) 0.3394(6) 0.7056(4)
H2_2 H 0.9729 0.3330 0.7309
C7_2 C 0.8873(12) 0.3850(6) 0.6578(4)
C8_2 C 0.6438(12) 0.2513(6) 0.7652(4)
C9_2 C 0.8034(13) 0.2061(6) 0.7852(4)
H4_2 H 0.9316 0.2090 0.7679
C10_2 C 0.7784(12) 0.1557(5) 0.8308(4)
C11_2 C 0.5879(12) 0.1526(5) 0.8580(3)
C12_2 C 0.4276(13) 0.2011(6) 0.8380(4)
H5_2 H 0.3003 0.2007 0.8558
C13_2 C 0.4567(13) 0.2492(6) 0.7923(4)
H6_2 H 0.3485 0.2806 0.7796
C14_2 C 0.5536(12) 0.1009(5) 0.9065(3)
C15_2 C 0.974(2) 0.7204(7) 0.5336(5)
H7_2 H 0.8632 0.7244 0.5579
H8_2 H 0.9775 0.8276 0.6022
O1_2 O 0.9369(7) 0.4766(3) 0.5599(2)
O2_2 O 0.6241(8) 0.4509(3) 0.5308(2)
O4_2 O 0.6844(8) 0.0454(3) 0.9146(2)
O5_2 O 0.3733(8) 0.3629(4) 0.5931(2)
O6_2 O 0.9435(9) 0.1116(5) 0.8461(3)
H14_2 H 0.9094 0.0807 0.8707
O7_2 O 0.9667(10) 0.6673(4) 0.4993(3)
O9_2 O 0.3759(8) 0.5491(3) 0.4692(2)
O11_2 O 0.6844(8) 0.4546(3) 0.4146(2)
O12_2 O 0.6267(8) 0.6371(4) 0.4069(2)
H3_3 H 0.0128 0.0897 0.1523
H11_3 H 0.2945 0.7737 0.9792
H13_3 H 0.3286 0.6837 0.9885
C1_3 C 0.7651(12) 0.0592(5) 0.0687(4)
C2_3 C 0.7283(12) 0.1056(5) 0.1175(3)
C3_3 C 0.5323(12) 0.1430(5) 0.1275(3)
C4_3 C 0.5137(12) 0.1872(6) 0.1769(4)
H1_3 H 0.3876 0.2112 0.1842
C5_3 C 0.6735(13) 0.1967(5) 0.2153(4)
C6_3 C 0.8634(14) 0.1606(6) 0.2056(4)
H2_3 H 0.9729 0.1670 0.2309
C7_3 C 0.8873(12) 0.1150(6) 0.1578(4)
C8_3 C 0.6438(12) 0.2487(6) 0.2652(4)
C9_3 C 0.8034(13) 0.2939(6) 0.2852(4)
H4_3 H 0.9316 0.2910 0.2679
C10_3 C 0.7784(12) 0.3443(5) 0.3308(4)
C11_3 C 0.5879(12) 0.3474(5) 0.3580(3)
C12_3 C 0.4276(13) 0.2989(6) 0.3380(4)
H5_3 H 0.3003 0.2993 0.3558
C13_3 C 0.4567(13) 0.2508(6) 0.2923(4)
H6_3 H 0.3485 0.2194 0.2796
C14_3 C 0.5536(12) 0.3991(5) 0.4065(3)
O3_2 O 0.3989(8) 0.3874(3) 0.4372(2)
O6_3 O 0.9435(9) 0.3884(5) 0.3461(3)
H14_3 H 0.9094 0.4193 0.3707
C15_3 C 0.974(2) 0.7796(7) 0.0336(5)
H7_3 H 0.8632 0.7756 0.0579
H8_3 H 0.9775 0.6724 0.1022
O10_2 O 0.6011(8) 0.8874(3) 0.0628(2)
O7_3 O 0.9667(10) 0.8327(4) 0.9993(3)
C1_4 C 0.2349(12) 0.5592(5) 0.4313(4)
C2_4 C 0.2717(12) 0.6056(5) 0.3825(3)
C3_4 C 0.4677(12) 0.6430(5) 0.3725(3)
C4_4 C 0.4863(12) 0.6872(6) 0.3231(4)
H1_4 H 0.6124 0.7112 0.3158
C5_4 C 0.3265(13) 0.6967(5) 0.2847(4)
C6_4 C 0.1366(14) 0.6606(6) 0.2944(4)
H2_4 H 0.0271 0.6670 0.2691
C7_4 C 0.1127(12) 0.6150(6) 0.3422(4)
C8_4 C 0.3562(12) 0.7487(6) 0.2348(4)
C9_4 C 0.1966(13) 0.7939(6) 0.2148(4)
H4_4 H 0.0684 0.7910 0.2321
C10_4 C 0.2216(12) 0.8443(5) 0.1692(4)
C11_4 C 0.4121(12) 0.8474(5) 0.1420(3)
C12_4 C 0.5724(13) 0.7989(6) 0.1620(4)
H5_4 H 0.6997 0.7993 0.1442
C13_4 C 0.5433(13) 0.7508(6) 0.2077(4)
H6_4 H 0.6515 0.7194 0.2204
C14_4 C 0.4464(12) 0.8991(5) 0.0935(3)
C15_4 C 0.026(2) 0.2796(7) 0.4664(5)
H7_4 H 0.1368 0.2756 0.4421
H8_4 H 0.0225 0.1724 0.3978
O6_4 O 0.0565(9) 0.8884(5) 0.1539(3)
H14_4 H 0.0906 0.9193 0.1293
O7_4 O 0.0333(10) 0.3327(4) 0.5007(3)
H3_4 H 0.9872 0.5897 0.3477
C16_2 C 0.892(2) 0.1693(7) 0.4165(6)
H9_2 H 0.8767 0.1184 0.4331
H10_2 H 0.7819 0.1779 0.3897
C17_2 C 0.6933(17) 0.2330(7) 0.4932(5)
H11_4 H 0.7055 0.2737 0.5208
H12_2 H 0.5783 0.2441 0.4686
H13_4 H 0.6714 0.1837 0.5115
N1_2 N 0.8830(17) 0.2293(6) 0.4605(5)
C16_3 C 0.892(2) 0.3307(7) 0.9165(6)
H9_3 H 0.8767 0.3816 0.9331
H10_3 H 0.7819 0.3221 0.8897
C17_3 C 0.6933(17) 0.2670(7) 0.9932(5)
H12_3 H 0.5783 0.2559 0.9686
N1_3 N 0.8830(17) 0.2707(6) 0.9605(5)
C16_4 C 0.108(2) 0.6693(7) 0.0835(6)
H9_4 H 0.1233 0.6184 0.0669
H10_4 H 0.2181 0.6779 0.1103
C17_4 C 0.3067(17) 0.7330(7) 0.0068(5)
H12_4 H 0.4217 0.7441 0.0314
N1_4 N 0.1170(17) 0.7293(6) 0.0395(5)
loop_
_geom_bond_atom_site_label_1
_geom_bond_atom_site_label_2
_geom_bond_site_symmetry_1
_geom_bond_site_symmetry_2
O7 Eu1 1_555 1_555
O9 Eu1 1_555 1_555
O12 Eu1 1_555 1_555
C15 H7 1_555 1_555
C1 C2 1_555 1_555
C2 C3 1_555 1_555
C3 C4 1_555 1_555
C4 H1 1_555 1_555
C5 C4 1_555 1_555
C6 C5 1_555 1_555
H2 C6 1_555 1_555
C7 C2 1_555 1_555
C8 C5 1_555 1_555
C9 C8 1_555 1_555
H4 C9 1_555 1_555
C10 C9 1_555 1_555
C11 C10 1_555 1_555
C12 C11 1_555 1_555
H5 C12 1_555 1_555
C13 C8 1_555 1_555
H6 C13 1_555 1_555
C14 C11 1_555 1_555
O1 C1 1_555 1_555
O3 C14 1_555 1_555
O4 C14 1_555 1_555
O5 C3 1_555 1_555
O6 C10 1_555 1_555
H14 O6 1_555 1_555
Eu2 O3 1_555 1_555
Eu4 O2 1_555 1_555
Eu5 O4 1_555 1_555
C1 O2 1_555 1_555
C6 C7 1_555 1_555
C12 C13 1_555 1_555
O5 Eu4 1_555 1_555
H9 C16 1_555 1_555
H10 C16 1_555 1_555
C17 H11_2 1_555 1_555
H12 C17 1_555 1_555
H13_2 C17 1_555 1_555
C16 N1 1_555 1_555
C17 N1 1_555 1_555
Eu5 O8_2 1_555 1_555
Eu2 O1_2 1_555 1_555
C1_2 C2_2 1_555 1_555
C2_2 C3_2 1_555 1_555
C3_2 C4_2 1_555 1_555
C4_2 H1_2 1_555 1_555
C5_2 C4_2 1_555 1_555
C6_2 C5_2 1_555 1_555
H2_2 C6_2 1_555 1_555
C7_2 C2_2 1_555 1_555
C8_2 C5_2 1_555 1_555
C9_2 C8_2 1_555 1_555
H4_2 C9_2 1_555 1_555
C10_2 C9_2 1_555 1_555
C11_2 C10_2 1_555 1_555
C12_2 C11_2 1_555 1_555
H5_2 C12_2 1_555 1_555
C13_2 C8_2 1_555 1_555
H6_2 C13_2 1_555 1_555
C14_2 C11_2 1_555 1_555
C15_2 H7_2 1_555 1_555
O1_2 C1_2 1_555 1_555
O2_2 Eu2 1_555 1_555
O10 C14_2 1_555 1_555
O4_2 C14_2 1_555 1_555
O5_2 C3_2 1_555 1_555
O6_2 C10_2 1_555 1_555
H14_2 O6_2 1_555 1_555
O7_2 Eu2 1_555 1_555
Eu5 O2_2 1_555 1_555
O9_2 Eu2 1_555 1_555
O11_2 Eu2 1_555 1_555
O12_2 Eu2 1_555 1_555
C1_2 O2_2 1_555 1_555
C6_2 C7_2 1_555 1_555
C12_2 C13_2 1_555 1_555
C15_2 O7_2 1_555 1_555
O5_2 Eu5 1_555 1_555
Eu5 O9_2 1_555 1_555
C1_3 C2_3 1_555 1_555
C2_3 C3_3 1_555 1_555
C3_3 C4_3 1_555 1_555
C4_3 H1_3 1_555 1_555
C5_3 C4_3 1_555 1_555
C6_3 C5_3 1_555 1_555
H2_3 C6_3 1_555 1_555
C7_3 C2_3 1_555 1_555
C8_3 C5_3 1_555 1_555
C9_3 C8_3 1_555 1_555
H4_3 C9_3 1_555 1_555
C10_3 C9_3 1_555 1_555
C11_3 C10_3 1_555 1_555
C12_3 C11_3 1_555 1_555
H5_3 C12_3 1_555 1_555
C13_3 C8_3 1_555 1_555
H6_3 C13_3 1_555 1_555
C14_3 C11_3 1_555 1_555
O8 C1_3 1_555 1_555
O3_2 C14_3 1_555 1_555
O11_2 C14_3 1_555 1_555
O12 C3_3 1_555 1_555
O6_3 C10_3 1_555 1_555
H14_3 O6_3 1_555 1_555
Eu5 O3_2 1_555 1_555
C1_3 O9 1_555 1_555
C6_3 C7_3 1_555 1_555
C12_3 C13_3 1_555 1_555
C15_3 H7_3 1_555 1_555
O7_3 Eu4 1_555 1_555
C1_4 C2_4 1_555 1_555
C2_4 C3_4 1_555 1_555
C3_4 C4_4 1_555 1_555
C4_4 H1_4 1_555 1_555
C5_4 C4_4 1_555 1_555
C6_4 C5_4 1_555 1_555
H2_4 C6_4 1_555 1_555
C7_4 C2_4 1_555 1_555
C8_4 C5_4 1_555 1_555
C9_4 C8_4 1_555 1_555
H4_4 C9_4 1_555 1_555
C10_4 C9_4 1_555 1_555
C11_4 C10_4 1_555 1_555
C12_4 C11_4 1_555 1_555
H5_4 C12_4 1_555 1_555
C13_4 C8_4 1_555 1_555
H6_4 C13_4 1_555 1_555
C14_4 C11_4 1_555 1_555
C15_4 H7_4 1_555 1_555
O8_2 C1_4 1_555 1_555
O10_2 C14_4 1_555 1_555
O11 C14_4 1_555 1_555
O12_2 C3_4 1_555 1_555
O6_4 C10_4 1_555 1_555
H14_4 O6_4 1_555 1_555
O7_4 Eu5 1_555 1_555
C1_4 O9_2 1_555 1_555
C6_4 C7_4 1_555 1_555
C12_4 C13_4 1_555 1_555
C15_4 O7_4 1_555 1_555
H9_2 C16_2 1_555 1_555
H10_2 C16_2 1_555 1_555
C17_2 H11_4 1_555 1_555
H12_2 C17_2 1_555 1_555
H13_4 C17_2 1_555 1_555
C16_2 N1_2 1_555 1_555
C17_2 N1_2 1_555 1_555
H9_3 C16_3 1_555 1_555
H10_3 C16_3 1_555 1_555
H12_3 C17_3 1_555 1_555
C16_3 N1_3 1_555 1_555
C17_3 N1_3 1_555 1_555
H9_4 C16_4 1_555 1_555
H10_4 C16_4 1_555 1_555
H12_4 C17_4 1_555 1_555
C16_4 N1_4 1_555 1_555
C17_4 N1_4 1_555 1_555

#END
