
###############################################################################
#
# This file contains modified crystal structure data generated from the
# MOF subset of the Cambridge Structural Database (CSD) v543 
# hosted by the Cambridge Crystallographic Data Centre (CCDC).
#
# This work is licensed under the Creative Commons
# Attribution-NonCommercial-ShareAlike 4.0 International License.
# To view a copy of this license, visit
# http://creativecommons.org/licenses/by-nc-sa/4.0/
# or send a letter to
# Creative Commons, PO Box 1866, Mountain View, CA 94042, USA.
#
# CIF created using the CSD Python API on 29 September 2022
# The structure has been converted into the P1 space group
# The structure has a 3D framework
# The original CSD entry TOBKAY is in the monoclinic crystal system
# The framework has been calculated to contain at least 10.0% void space
# The void calculation uses a probe of radius 1.32A, grid spacing 0.4
#
###############################################################################

data_TOBKAY
_chemical_formula_moiety         '(C68 H56 Gd4 N4 O28)n'
_symmetry_cell_setting           triclinic
_symmetry_space_group_name_H-M   'P 1'
_symmetry_Int_Tables_number      1
_space_group_name_Hall           'P 1'
loop_
_symmetry_equiv_pos_site_id
_symmetry_equiv_pos_as_xyz
1 x,y,z
_cell_length_a                   6.4399(7)
_cell_length_b                   17.023(2)
_cell_length_c                   23.833(3)
_cell_angle_alpha                90
_cell_angle_beta                 90.792(2)
_cell_angle_gamma                90
_cell_volume                     2612.48
loop_
_atom_site_label
_atom_site_type_symbol
_atom_site_fract_x
_atom_site_fract_y
_atom_site_fract_z
Gd1 Gd 0.26297(6) 0.06312(2) 0.022158(16)
O7 O 0.0337(11) 0.1664(4) 0.0007(3)
O9 O 0.6245(9) 0.0509(3) 0.0303(2)
O12 O 0.3713(9) 0.1389(4) 0.0923(3)
C15 C 0.025(2) 0.2190(9) 0.9661(7)
H7 H 0.1353 0.2223 0.9413
H8 H 0.0197 0.3293 0.8979
O10 O 0.3971(9) 0.1122(4) 0.9373(2)
O11 O 0.3193(9) 0.9576(4) 0.0864(3)
C1 C 0.2329(17) 0.9388(6) 0.9323(5)
C2 C 0.2705(15) 0.8925(6) 0.8833(4)
C3 C 0.4661(15) 0.8543(6) 0.8737(4)
C4 C 0.4844(14) 0.8106(6) 0.8245(4)
H1 H 0.6123 0.7879 0.8167
C5 C 0.3228(16) 0.7991(6) 0.7866(4)
C6 C 0.1329(16) 0.8370(6) 0.7970(4)
H2 H 0.0220 0.8307 0.7720
C7 C 0.1104(16) 0.8824(6) 0.8431(4)
C8 C 0.3557(15) 0.7485(7) 0.7363(4)
C9 C 0.1948(17) 0.7017(6) 0.7167(4)
H4 H 0.0666 0.7030 0.7342
C10 C 0.2248(16) 0.6525(6) 0.6709(4)
C11 C 0.4111(14) 0.6505(6) 0.6432(4)
C12 C 0.5715(15) 0.6983(6) 0.6628(4)
H5 H 0.6994 0.6973 0.6451
C13 C 0.5415(17) 0.7483(6) 0.7089(4)
H6 H 0.6482 0.7813 0.7210
C14 C 0.4468(14) 0.5996(6) 0.5933(4)
O1 O 0.0609(9) 0.9749(4) 0.9403(2)
O2 O 0.3755(9) 0.9491(3) 0.9697(2)
O3 O 0.6029(9) 0.6122(4) 0.5627(2)
O4 O 0.3193(9) 0.5424(4) 0.5864(3)
O5 O 0.6287(9) 0.8611(4) 0.9077(3)
O6 O 0.0577(11) 0.6058(5) 0.6557(3)
H14 H 0.0930 0.5750 0.6312
Gd2 Gd 0.73703(6) 0.56312(2) 0.477842(16)
Gd4 Gd 0.73703(6) 0.93688(2) 0.977842(16)
Gd5 Gd 0.26297(6) 0.43688(2) 0.522158(16)
H11 H 0.7098 0.2262 0.0215
H13 H 0.6711 0.3163 0.0124
O8 O 0.9391(9) 0.0251(4) 0.0597(2)
H3 H 0.9845 0.9079 0.8485
H3_2 H 0.0155 0.4079 0.6515
C16 C 0.111(2) 0.8329(7) 0.5835(5)
H9 H 0.1236 0.8838 0.5664
H10 H 0.2221 0.8256 0.6103
C17 C 0.307(2) 0.7669(8) 0.5061(6)
H11_2 H 0.2902 0.7262 0.4785
H12 H 0.4249 0.7551 0.5298
H13_2 H 0.3289 0.8163 0.4876
N1 N 0.123(2) 0.7715(7) 0.5397(5)
O8_2 O 0.0609(9) 0.5251(4) 0.4403(2)
C1_2 C 0.7671(17) 0.4388(6) 0.5677(5)
C2_2 C 0.7295(15) 0.3925(6) 0.6167(4)
C3_2 C 0.5339(15) 0.3543(6) 0.6263(4)
C4_2 C 0.5156(14) 0.3106(6) 0.6755(4)
H1_2 H 0.3877 0.2879 0.6833
C5_2 C 0.6772(16) 0.2991(6) 0.7134(4)
C6_2 C 0.8671(16) 0.3370(6) 0.7030(4)
H2_2 H 0.9780 0.3307 0.7280
C7_2 C 0.8896(16) 0.3824(6) 0.6569(4)
C8_2 C 0.6443(15) 0.2485(7) 0.7637(4)
C9_2 C 0.8052(17) 0.2017(6) 0.7833(4)
H4_2 H 0.9334 0.2030 0.7658
C10_2 C 0.7752(16) 0.1525(6) 0.8291(4)
C11_2 C 0.5889(14) 0.1505(6) 0.8568(4)
C12_2 C 0.4285(15) 0.1983(6) 0.8372(4)
H5_2 H 0.3006 0.1973 0.8549
C13_2 C 0.4585(17) 0.2483(6) 0.7911(4)
H6_2 H 0.3518 0.2813 0.7790
C14_2 C 0.5532(14) 0.0996(6) 0.9067(4)
C15_2 C 0.975(2) 0.7190(9) 0.5339(7)
H7_2 H 0.8647 0.7223 0.5587
H8_2 H 0.9803 0.8293 0.6021
O1_2 O 0.9391(9) 0.4749(4) 0.5597(2)
O2_2 O 0.6245(9) 0.4491(3) 0.5303(2)
O4_2 O 0.6807(9) 0.0424(4) 0.9136(3)
O5_2 O 0.3713(9) 0.3611(4) 0.5923(3)
O6_2 O 0.9423(11) 0.1058(5) 0.8443(3)
H14_2 H 0.9070 0.0750 0.8688
O7_2 O 0.9663(11) 0.6664(4) 0.4993(3)
O9_2 O 0.3755(9) 0.5509(3) 0.4697(2)
O11_2 O 0.6807(9) 0.4576(4) 0.4136(3)
O12_2 O 0.6287(9) 0.6389(4) 0.4077(3)
H3_3 H 0.0155 0.0921 0.1515
H11_3 H 0.2902 0.7738 0.9785
H13_3 H 0.3289 0.6837 0.9876
C1_3 C 0.7671(17) 0.0612(6) 0.0677(5)
C2_3 C 0.7295(15) 0.1075(6) 0.1167(4)
C3_3 C 0.5339(15) 0.1457(6) 0.1263(4)
C4_3 C 0.5156(14) 0.1894(6) 0.1755(4)
H1_3 H 0.3877 0.2121 0.1833
C5_3 C 0.6772(16) 0.2009(6) 0.2134(4)
C6_3 C 0.8671(16) 0.1630(6) 0.2030(4)
H2_3 H 0.9780 0.1693 0.2280
C7_3 C 0.8896(16) 0.1176(6) 0.1569(4)
C8_3 C 0.6443(15) 0.2515(7) 0.2637(4)
C9_3 C 0.8052(17) 0.2983(6) 0.2833(4)
H4_3 H 0.9334 0.2970 0.2658
C10_3 C 0.7752(16) 0.3475(6) 0.3291(4)
C11_3 C 0.5889(14) 0.3495(6) 0.3568(4)
C12_3 C 0.4285(15) 0.3017(6) 0.3372(4)
H5_3 H 0.3006 0.3027 0.3549
C13_3 C 0.4585(17) 0.2517(6) 0.2911(4)
H6_3 H 0.3518 0.2187 0.2790
C14_3 C 0.5532(14) 0.4004(6) 0.4067(4)
O3_2 O 0.3971(9) 0.3878(4) 0.4373(2)
O6_3 O 0.9423(11) 0.3942(5) 0.3443(3)
H14_3 H 0.9070 0.4250 0.3688
C15_3 C 0.975(2) 0.7810(9) 0.0339(7)
H7_3 H 0.8647 0.7777 0.0587
H8_3 H 0.9803 0.6707 0.1021
O10_2 O 0.6029(9) 0.8878(4) 0.0627(2)
O7_3 O 0.9663(11) 0.8336(4) 0.9993(3)
C1_4 C 0.2329(17) 0.5612(6) 0.4323(5)
C2_4 C 0.2705(15) 0.6075(6) 0.3833(4)
C3_4 C 0.4661(15) 0.6457(6) 0.3737(4)
C4_4 C 0.4844(14) 0.6894(6) 0.3245(4)
H1_4 H 0.6123 0.7121 0.3167
C5_4 C 0.3228(16) 0.7009(6) 0.2866(4)
C6_4 C 0.1329(16) 0.6630(6) 0.2970(4)
H2_4 H 0.0220 0.6693 0.2720
C7_4 C 0.1104(16) 0.6176(6) 0.3431(4)
C8_4 C 0.3557(15) 0.7515(7) 0.2363(4)
C9_4 C 0.1948(17) 0.7983(6) 0.2167(4)
H4_4 H 0.0666 0.7970 0.2342
C10_4 C 0.2248(16) 0.8475(6) 0.1709(4)
C11_4 C 0.4111(14) 0.8495(6) 0.1432(4)
C12_4 C 0.5715(15) 0.8017(6) 0.1628(4)
H5_4 H 0.6994 0.8027 0.1451
C13_4 C 0.5415(17) 0.7517(6) 0.2089(4)
H6_4 H 0.6482 0.7187 0.2210
C14_4 C 0.4468(14) 0.9004(6) 0.0933(4)
C15_4 C 0.025(2) 0.2810(9) 0.4661(7)
H7_4 H 0.1353 0.2777 0.4413
H8_4 H 0.0197 0.1707 0.3979
O6_4 O 0.0577(11) 0.8942(5) 0.1557(3)
H14_4 H 0.0930 0.9250 0.1312
O7_4 O 0.0337(11) 0.3336(4) 0.5007(3)
H3_4 H 0.9845 0.5921 0.3485
C16_2 C 0.889(2) 0.1671(7) 0.4165(5)
H9_2 H 0.8764 0.1162 0.4336
H10_2 H 0.7779 0.1744 0.3897
C17_2 C 0.693(2) 0.2331(8) 0.4939(6)
H11_4 H 0.7098 0.2738 0.5215
H12_2 H 0.5751 0.2449 0.4702
H13_4 H 0.6711 0.1837 0.5124
N1_2 N 0.877(2) 0.2285(7) 0.4603(5)
C16_3 C 0.889(2) 0.3329(7) 0.9165(5)
H9_3 H 0.8764 0.3838 0.9336
H10_3 H 0.7779 0.3256 0.8897
C17_3 C 0.693(2) 0.2669(8) 0.9939(6)
H12_3 H 0.5751 0.2551 0.9702
N1_3 N 0.877(2) 0.2715(7) 0.9603(5)
C16_4 C 0.111(2) 0.6671(7) 0.0835(5)
H9_4 H 0.1236 0.6162 0.0664
H10_4 H 0.2221 0.6744 0.1103
C17_4 C 0.307(2) 0.7331(8) 0.0061(6)
H12_4 H 0.4249 0.7449 0.0298
N1_4 N 0.123(2) 0.7285(7) 0.0397(5)
loop_
_geom_bond_atom_site_label_1
_geom_bond_atom_site_label_2
_geom_bond_site_symmetry_1
_geom_bond_site_symmetry_2
O7 Gd1 1_555 1_555
O9 Gd1 1_555 1_555
O12 Gd1 1_555 1_555
C15 H7 1_555 1_555
C1 C2 1_555 1_555
C2 C3 1_555 1_555
C3 C4 1_555 1_555
C4 H1 1_555 1_555
C5 C4 1_555 1_555
C6 C5 1_555 1_555
H2 C6 1_555 1_555
C7 C2 1_555 1_555
C8 C5 1_555 1_555
C9 C8 1_555 1_555
H4 C9 1_555 1_555
C10 C9 1_555 1_555
C11 C10 1_555 1_555
C12 C11 1_555 1_555
H5 C12 1_555 1_555
C13 C8 1_555 1_555
H6 C13 1_555 1_555
C14 C11 1_555 1_555
O1 C1 1_555 1_555
O3 C14 1_555 1_555
O4 C14 1_555 1_555
O5 C3 1_555 1_555
O6 C10 1_555 1_555
H14 O6 1_555 1_555
Gd2 O3 1_555 1_555
Gd4 O2 1_555 1_555
Gd5 O4 1_555 1_555
C1 O2 1_555 1_555
C6 C7 1_555 1_555
C12 C13 1_555 1_555
O5 Gd4 1_555 1_555
H9 C16 1_555 1_555
H10 C16 1_555 1_555
C17 H11_2 1_555 1_555
H12 C17 1_555 1_555
H13_2 C17 1_555 1_555
C16 N1 1_555 1_555
C17 N1 1_555 1_555
Gd5 O8_2 1_555 1_555
Gd2 O1_2 1_555 1_555
C1_2 C2_2 1_555 1_555
C2_2 C3_2 1_555 1_555
C3_2 C4_2 1_555 1_555
C4_2 H1_2 1_555 1_555
C5_2 C4_2 1_555 1_555
C6_2 C5_2 1_555 1_555
H2_2 C6_2 1_555 1_555
C7_2 C2_2 1_555 1_555
C8_2 C5_2 1_555 1_555
C9_2 C8_2 1_555 1_555
H4_2 C9_2 1_555 1_555
C10_2 C9_2 1_555 1_555
C11_2 C10_2 1_555 1_555
C12_2 C11_2 1_555 1_555
H5_2 C12_2 1_555 1_555
C13_2 C8_2 1_555 1_555
H6_2 C13_2 1_555 1_555
C14_2 C11_2 1_555 1_555
C15_2 H7_2 1_555 1_555
O1_2 C1_2 1_555 1_555
O2_2 Gd2 1_555 1_555
O10 C14_2 1_555 1_555
O4_2 C14_2 1_555 1_555
O5_2 C3_2 1_555 1_555
O6_2 C10_2 1_555 1_555
H14_2 O6_2 1_555 1_555
O7_2 Gd2 1_555 1_555
Gd5 O2_2 1_555 1_555
O9_2 Gd2 1_555 1_555
O11_2 Gd2 1_555 1_555
O12_2 Gd2 1_555 1_555
C1_2 O2_2 1_555 1_555
C6_2 C7_2 1_555 1_555
C12_2 C13_2 1_555 1_555
C15_2 O7_2 1_555 1_555
O5_2 Gd5 1_555 1_555
Gd5 O9_2 1_555 1_555
C1_3 C2_3 1_555 1_555
C2_3 C3_3 1_555 1_555
C3_3 C4_3 1_555 1_555
C4_3 H1_3 1_555 1_555
C5_3 C4_3 1_555 1_555
C6_3 C5_3 1_555 1_555
H2_3 C6_3 1_555 1_555
C7_3 C2_3 1_555 1_555
C8_3 C5_3 1_555 1_555
C9_3 C8_3 1_555 1_555
H4_3 C9_3 1_555 1_555
C10_3 C9_3 1_555 1_555
C11_3 C10_3 1_555 1_555
C12_3 C11_3 1_555 1_555
H5_3 C12_3 1_555 1_555
C13_3 C8_3 1_555 1_555
H6_3 C13_3 1_555 1_555
C14_3 C11_3 1_555 1_555
O8 C1_3 1_555 1_555
O3_2 C14_3 1_555 1_555
O11_2 C14_3 1_555 1_555
O12 C3_3 1_555 1_555
O6_3 C10_3 1_555 1_555
H14_3 O6_3 1_555 1_555
Gd5 O3_2 1_555 1_555
C1_3 O9 1_555 1_555
C6_3 C7_3 1_555 1_555
C12_3 C13_3 1_555 1_555
C15_3 H7_3 1_555 1_555
O7_3 Gd4 1_555 1_555
C1_4 C2_4 1_555 1_555
C2_4 C3_4 1_555 1_555
C3_4 C4_4 1_555 1_555
C4_4 H1_4 1_555 1_555
C5_4 C4_4 1_555 1_555
C6_4 C5_4 1_555 1_555
H2_4 C6_4 1_555 1_555
C7_4 C2_4 1_555 1_555
C8_4 C5_4 1_555 1_555
C9_4 C8_4 1_555 1_555
H4_4 C9_4 1_555 1_555
C10_4 C9_4 1_555 1_555
C11_4 C10_4 1_555 1_555
C12_4 C11_4 1_555 1_555
H5_4 C12_4 1_555 1_555
C13_4 C8_4 1_555 1_555
H6_4 C13_4 1_555 1_555
C14_4 C11_4 1_555 1_555
C15_4 H7_4 1_555 1_555
O8_2 C1_4 1_555 1_555
O10_2 C14_4 1_555 1_555
O11 C14_4 1_555 1_555
O12_2 C3_4 1_555 1_555
O6_4 C10_4 1_555 1_555
H14_4 O6_4 1_555 1_555
O7_4 Gd5 1_555 1_555
C1_4 O9_2 1_555 1_555
C6_4 C7_4 1_555 1_555
C12_4 C13_4 1_555 1_555
C15_4 O7_4 1_555 1_555
H9_2 C16_2 1_555 1_555
H10_2 C16_2 1_555 1_555
C17_2 H11_4 1_555 1_555
H12_2 C17_2 1_555 1_555
H13_4 C17_2 1_555 1_555
C16_2 N1_2 1_555 1_555
C17_2 N1_2 1_555 1_555
H9_3 C16_3 1_555 1_555
H10_3 C16_3 1_555 1_555
H12_3 C17_3 1_555 1_555
C16_3 N1_3 1_555 1_555
C17_3 N1_3 1_555 1_555
H9_4 C16_4 1_555 1_555
H10_4 C16_4 1_555 1_555
H12_4 C17_4 1_555 1_555
C16_4 N1_4 1_555 1_555
C17_4 N1_4 1_555 1_555

#END
