
###############################################################################
#
# This file contains modified crystal structure data generated from the
# MOF subset of the Cambridge Structural Database (CSD) v543 
# hosted by the Cambridge Crystallographic Data Centre (CCDC).
#
# This work is licensed under the Creative Commons
# Attribution-NonCommercial-ShareAlike 4.0 International License.
# To view a copy of this license, visit
# http://creativecommons.org/licenses/by-nc-sa/4.0/
# or send a letter to
# Creative Commons, PO Box 1866, Mountain View, CA 94042, USA.
#
# CIF created using the CSD Python API on 29 September 2022
# The structure has been converted into the P1 space group
# The structure has a 3D framework
# The original CSD entry TOBPEG is in the monoclinic crystal system
# The framework has been calculated to contain at least 10.0% void space
# The void calculation uses a probe of radius 1.32A, grid spacing 0.4
# The framework is charged, counterions have been retained in the structure
#
###############################################################################

data_TOBPEG
_chemical_formula_moiety         '(C256 H512 N32 O188 P64 Zn48)n'
_symmetry_cell_setting           triclinic
_symmetry_space_group_name_H-M   'P 1'
_symmetry_Int_Tables_number      1
_space_group_name_Hall           'P 1'
loop_
_symmetry_equiv_pos_site_id
_symmetry_equiv_pos_as_xyz
1 x,y,z
_cell_length_a                   28.274(3)
_cell_length_b                   17.8155(19)
_cell_length_c                   26.539(3)
_cell_angle_alpha                90
_cell_angle_beta                 106.603(2)
_cell_angle_gamma                90
_cell_volume                     12810.8
loop_
_atom_site_label
_atom_site_type_symbol
_atom_site_fract_x
_atom_site_fract_y
_atom_site_fract_z
Zn2 Zn 0.19188(3) 0.31972(5) 0.00326(3)
Zn3 Zn 0.25950(4) 0.32075(5) 0.22849(4)
Zn4 Zn 0.26877(4) 0.06800(5) 0.24904(3)
Zn5 Zn 0.13032(4) 0.43133(5) 0.14854(3)
Zn6 Zn 0.33659(4) 0.19530(5) 0.15584(4)
P1 P 0.10167(8) 0.31969(11) 0.05598(8)
P2 P 0.22502(8) 0.16993(12) 0.15998(8)
P3 P 0.05639(8) 0.54600(12) 0.07894(8)
P4 P 0.15266(8) 0.70855(12) 0.22531(8)
O1 O 0.0581(2) 0.3453(3) 0.0112(2)
O2 O 0.1504(2) 0.3389(3) 0.0476(2)
O3 O 0.0993(2) 0.3445(3) 0.1095(2)
O4 O 0.2220(3) 0.2451(4) 0.1839(3)
O5 O 0.2715(2) 0.1531(4) 0.1452(2)
O6 O 0.2139(2) 0.1060(4) 0.1933(2)
O7 O 0.0734(3) 0.5164(4) 0.0344(3)
O8 O 0.0883(2) 0.5196(3) 0.1321(2)
O9 O 0.0023(2) 0.5334(4) 0.0728(3)
O10 O 0.1801(3) 0.6395(4) 0.2190(2)
O11 O 0.1291(3) 0.7048(5) 0.2694(2)
O12 O 0.1809(3) 0.7792(4) 0.2253(3)
N1 N 0.1248(3) 0.1743(4) 0.1000(2)
H1 H 0.1247 0.1989 0.1300
N2 N 0.1119(3) 0.6692(4) 0.1217(3)
H2 H 0.1259 0.6250 0.1355
C1 C 0.0927(3) 0.2185(4) 0.0541(3)
H5 H 0.0584 0.2086 0.0519
H6 H 0.0985 0.1996 0.0221
C2 C 0.1777(3) 0.1724(5) 0.0972(3)
H7 H 0.1832 0.2163 0.0780
H8 H 0.1817 0.1285 0.0771
C3 C 0.1053(4) 0.0946(5) 0.1033(4)
H9 H 0.1312 0.0665 0.1287
C4 C 0.0940(4) 0.0536(5) 0.0511(4)
H10 H 0.0675 0.0791 0.0254
H11 H 0.1230 0.0542 0.0384
C7 C 0.0465(6) 0.0135(9) 0.1324(7)
H17 H 0.0177 0.0122 0.1454
C8 C 0.0600(5) 0.0971(7) 0.1241(5)
H18 H 0.0327 0.1218 0.0989
H19 H 0.0675 0.1244 0.1570
C9 C 0.0650(4) 0.6471(5) 0.0802(4)
H20 H 0.0667 0.6641 0.0460
H21 H 0.0370 0.6714 0.0876
C10 C 0.1009(3) 0.7087(5) 0.1661(3)
H22 H 0.0728 0.6848 0.1736
H23 H 0.0918 0.7602 0.1559
C11 C 0.1505(4) 0.7071(6) 0.1012(4)
H24 H 0.1792 0.7176 0.1313
C12 C 0.1330(5) 0.7805(6) 0.0741(4)
H25 H 0.1241 0.8149 0.0982
H26 H 0.1042 0.7724 0.0443
C13 C 0.1759(7) 0.8140(7) 0.0551(6)
H27 H 0.1652 0.8608 0.0367
H28 H 0.2038 0.8248 0.0853
C14 C 0.1913(7) 0.7602(10) 0.0194(7)
H29 H 0.2171 0.7827 0.0068
C15 C 0.2103(6) 0.6868(9) 0.0486(7)
H31 H 0.2380 0.6971 0.0792
H32 H 0.2213 0.6528 0.0257
C16 C 0.1664(6) 0.6507(7) 0.0658(5)
H33 H 0.1390 0.6396 0.0351
H34 H 0.1771 0.6042 0.0847
Zn9 Zn 0.24050(4) 0.82075(5) 0.27151(4)
Zn12 Zn 0.23123(4) 0.56800(5) 0.25096(3)
Zn17 Zn 0.16341(4) 0.69530(5) 0.34416(4)
O26 O 0.3199(3) 0.1395(4) 0.2810(2)
O27 O 0.3709(3) 0.2048(5) 0.2306(2)
O28 O 0.3191(3) 0.2792(4) 0.2747(3)
O29 O 0.2206(2) 0.3510(4) 0.2750(2)
O31 O 0.1396(2) 0.4013(4) 0.2217(2)
O32 O 0.3780(2) 0.1262(3) 0.1305(2)
O33 O 0.3334(2) 0.2927(3) 0.1244(2)
O34 O 0.2555(2) 0.3161(4) 0.0530(2)
O35 O 0.2759(3) 0.4067(4) 0.1932(3)
O36 O 0.2400(2) 0.0441(4) 0.3049(2)
O37 O 0.1924(3) 0.4632(4) 0.1421(3)
Zn1 Zn 0.05843(3) 0.44305(5) 0.97940(3)
P5 P 0.18135(8) 0.59029(11) 0.77038(8)
P6 P 0.14266(8) 0.42858(12) 0.91403(8)
P7 P 0.18899(8) 0.18338(11) 0.93205(8)
P8 P 0.25279(8) 0.02767(12) 0.83649(8)
O13 O 0.2206(2) 0.6490(4) 0.7750(2)
O14 O 0.2016(3) 0.5126(3) 0.7805(2)
O15 O 0.1396(2) 0.5987(4) 0.7217(2)
O16 O 0.1042(2) 0.4562(3) 0.9389(2)
O17 O 0.1894(2) 0.4001(3) 0.9530(2)
O18 O 0.1220(2) 0.3738(3) 0.8695(2)
O19 O 0.1680(2) 0.2231(3) 0.9709(2)
O20 O 0.1666(2) 0.2073(3) 0.8756(2)
O21 O 0.2445(2) 0.1839(4) 0.9470(2)
O22 O 0.2241(3) 0.0933(4) 0.8068(3)
O24 O 0.3076(3) 0.0368(4) 0.8579(3)
N3 N 0.1283(2) 0.5543(4) 0.8433(2)
H3 H 0.1159 0.5223 0.8159
N4 N 0.1772(3) 0.0468(4) 0.8825(3)
H4 H 0.1729 0.0819 0.8566
H30 H 0.1634 0.7495 0.9891
C17 C 0.1567(3) 0.6152(4) 0.8239(3)
H35 H 0.1349 0.6580 0.8129
H36 H 0.1838 0.6313 0.8534
C18 C 0.1654(3) 0.5104(5) 0.8856(3)
H37 H 0.1913 0.4933 0.8709
H38 H 0.1804 0.5448 0.9140
C19 C 0.0841(3) 0.5844(5) 0.8607(3)
H39 H 0.0696 0.5412 0.8738
C20 C 0.0446(3) 0.6152(6) 0.8139(3)
H40 H 0.0353 0.5777 0.7864
H41 H 0.0569 0.6590 0.7999
C21 C 0.0002(4) 0.6365(7) 0.8323(4)
C22 C 0.0133(4) 0.6929(6) 0.8759(4)
H44 H 0.0234 0.7394 0.8630
C23 C 0.0553(4) 0.6635(6) 0.9219(4)
H46 H 0.0433 0.6210 0.9377
H47 H 0.0648 0.7024 0.9484
C24 C 0.1000(3) 0.6396(6) 0.9057(3)
H48 H 0.1152 0.6831 0.8948
H49 H 0.1239 0.6163 0.9352
C25 C 0.1675(4) 0.0872(4) 0.9293(4)
H50 H 0.1846 0.0614 0.9616
H51 H 0.1325 0.0865 0.9260
C26 C 0.2302(4) 0.0214(5) 0.8944(3)
H53 H 0.2507 0.0523 0.9223
C28 C 0.1001(9) 0.0089(14) 0.8228(10)
H55 H 0.1094 0.0443 0.7995
H56 H 0.0780 0.0341 0.8393
Zn8 Zn 0.30812(3) 0.18028(5) 0.99674(3)
Zn10 Zn 0.25950(4) 0.67925(5) 0.72849(4)
Zn11 Zn 0.24050(4) 0.17925(5) 0.77151(4)
Zn13 Zn 0.23123(4) 0.43200(5) 0.75096(3)
Zn15 Zn 0.13032(4) 0.56867(5) 0.64854(3)
Zn16 Zn 0.36968(4) 0.06867(5) 0.85146(3)
Zn18 Zn 0.16341(4) 0.30470(5) 0.84416(4)
C5 C 0.0793(6) 0.9742(7) 0.0573(6)
H12 H 0.1072 0.9476 0.0803
H13 H 0.0707 0.9496 0.0233
C6 C 0.0356(7) 0.9699(9) 0.0802(8)
H14 H 0.0288 0.9178 0.0862
H15 H 0.0065 0.9908 0.0553
H16 H 0.0737 0.9899 0.1583
O30 O 0.2984(3) 0.9874(3) 0.2195(2)
O23 O 0.2400(2) 0.9559(4) 0.8049(2)
H52 H 0.2328 0.9699 0.9067
C27 C 0.1407(5) 0.9847(6) 0.8598(4)
H54 H 0.1580 0.9567 0.8386
C29 C 0.0719(8) 0.9345(11) 0.7885(8)
H57 H 0.0398 0.9490 0.7656
H58 H 0.0915 0.9147 0.7669
C30 C 0.0659(10) 0.8763(14) 0.8272(10)
H59 H 0.0347 0.8861 0.8343
H60 H 0.0628 0.8281 0.8095
C31 C 0.1004(8) 0.8683(12) 0.8742(8)
H61 H 0.1195 0.8241 0.8712
H62 H 0.0826 0.8561 0.8994
C32 C 0.1371(5) 0.9278(6) 0.8994(5)
H63 H 0.1269 0.9519 0.9274
H64 H 0.1692 0.9050 0.9147
Zn14 Zn 0.26877(4) 0.93200(5) 0.74904(3)
Zn7 Zn 0.94157(3) 0.55695(5) 0.02060(3)
H42 H 0.9871 0.5918 0.8445
H43 H 0.9746 0.6570 0.8030
H45 H 0.9846 0.7034 0.8878
O25 O 0.9977(2) 0.4666(4) 0.9272(3)
P3_2 P 0.55639(8) 0.04600(12) 0.07894(8)
P4_2 P 0.65266(8) 0.20855(12) 0.22531(8)
O7_2 O 0.5734(3) 0.0164(4) 0.0344(3)
O8_2 O 0.5883(2) 0.0196(3) 0.1321(2)
O9_2 O 0.5023(2) 0.0334(4) 0.0728(3)
O10_2 O 0.6801(3) 0.1395(4) 0.2190(2)
O11_2 O 0.6291(3) 0.2048(5) 0.2694(2)
O12_2 O 0.6809(3) 0.2792(4) 0.2253(3)
N2_2 N 0.6119(3) 0.1692(4) 0.1217(3)
H2_2 H 0.6259 0.1250 0.1355
C9_2 C 0.5650(4) 0.1471(5) 0.0802(4)
H20_2 H 0.5667 0.1641 0.0460
H21_2 H 0.5370 0.1714 0.0876
C10_2 C 0.6009(3) 0.2087(5) 0.1661(3)
H22_2 H 0.5728 0.1848 0.1736
H23_2 H 0.5918 0.2602 0.1559
C11_2 C 0.6505(4) 0.2071(6) 0.1012(4)
H24_2 H 0.6792 0.2176 0.1313
C12_2 C 0.6330(5) 0.2805(6) 0.0741(4)
H25_2 H 0.6241 0.3149 0.0982
H26_2 H 0.6042 0.2724 0.0443
C13_2 C 0.6759(7) 0.3140(7) 0.0551(6)
H27_2 H 0.6652 0.3608 0.0367
H28_2 H 0.7038 0.3248 0.0853
C14_2 C 0.6913(7) 0.2602(10) 0.0194(7)
H29_2 H 0.7171 0.2827 0.0068
C15_2 C 0.7103(6) 0.1868(9) 0.0486(7)
H31_2 H 0.7380 0.1971 0.0792
H32_2 H 0.7213 0.1528 0.0257
C16_2 C 0.6664(6) 0.1507(7) 0.0658(5)
H33_2 H 0.6390 0.1396 0.0351
H34_2 H 0.6771 0.1042 0.0847
Zn7_2 Zn 0.44157(3) 0.05695(5) 0.02060(3)
Zn9_2 Zn 0.74050(4) 0.32075(5) 0.27151(4)
Zn12_2 Zn 0.73123(4) 0.06800(5) 0.25096(3)
Zn17_2 Zn 0.66341(4) 0.19530(5) 0.34416(4)
P5_2 P 0.68135(8) 0.09029(11) 0.77038(8)
O13_2 O 0.7206(2) 0.1490(4) 0.7750(2)
O14_2 O 0.7016(3) 0.0126(3) 0.7805(2)
O15_2 O 0.6396(2) 0.0987(4) 0.7217(2)
N3_2 N 0.6283(2) 0.0543(4) 0.8433(2)
H3_2 H 0.6159 0.0223 0.8159
H30_2 H 0.6634 0.2495 0.9891
C17_2 C 0.6567(3) 0.1152(4) 0.8239(3)
H35_2 H 0.6349 0.1580 0.8129
H36_2 H 0.6838 0.1313 0.8534
C18_2 C 0.6654(3) 0.0104(5) 0.8856(3)
H38_2 H 0.6804 0.0448 0.9140
C19_2 C 0.5841(3) 0.0844(5) 0.8607(3)
H39_2 H 0.5696 0.0412 0.8738
C20_2 C 0.5446(3) 0.1152(6) 0.8139(3)
H40_2 H 0.5353 0.0777 0.7864
H41_2 H 0.5569 0.1590 0.7999
C21_2 C 0.5002(4) 0.1365(7) 0.8323(4)
H42_2 H 0.4871 0.0918 0.8445
H43_2 H 0.4746 0.1570 0.8030
C22_2 C 0.5133(4) 0.1929(6) 0.8759(4)
H44_2 H 0.5234 0.2394 0.8630
H45_2 H 0.4846 0.2034 0.8878
C23_2 C 0.5553(4) 0.1635(6) 0.9219(4)
H46_2 H 0.5433 0.1210 0.9377
H47_2 H 0.5648 0.2024 0.9484
C24_2 C 0.6000(3) 0.1396(6) 0.9057(3)
H48_2 H 0.6152 0.1831 0.8948
H49_2 H 0.6239 0.1163 0.9352
Zn10_2 Zn 0.75950(4) 0.17925(5) 0.72849(4)
Zn15_2 Zn 0.63032(4) 0.06867(5) 0.64854(3)
Zn2_2 Zn 0.69188(3) 0.81972(5) 0.00326(3)
Zn3_2 Zn 0.75950(4) 0.82075(5) 0.22849(4)
Zn4_2 Zn 0.76877(4) 0.56800(5) 0.24904(3)
Zn5_2 Zn 0.63032(4) 0.93133(5) 0.14854(3)
Zn6_2 Zn 0.83659(4) 0.69530(5) 0.15584(4)
P1_2 P 0.60167(8) 0.81969(11) 0.05598(8)
P2_2 P 0.72502(8) 0.66993(12) 0.15998(8)
O1_2 O 0.5581(2) 0.8453(3) 0.0112(2)
O2_2 O 0.6504(2) 0.8389(3) 0.0476(2)
O3_2 O 0.5993(2) 0.8445(3) 0.1095(2)
O4_2 O 0.7220(3) 0.7451(4) 0.1839(3)
O5_2 O 0.7715(2) 0.6531(4) 0.1452(2)
O6_2 O 0.7139(2) 0.6060(4) 0.1933(2)
N1_2 N 0.6248(3) 0.6743(4) 0.1000(2)
H1_2 H 0.6247 0.6989 0.1300
C1_2 C 0.5927(3) 0.7185(4) 0.0541(3)
H5_2 H 0.5584 0.7086 0.0519
H6_2 H 0.5985 0.6996 0.0221
C2_2 C 0.6777(3) 0.6724(5) 0.0972(3)
H7_2 H 0.6832 0.7163 0.0780
H8_2 H 0.6817 0.6285 0.0771
C3_2 C 0.6053(4) 0.5946(5) 0.1033(4)
H9_2 H 0.6312 0.5665 0.1287
C4_2 C 0.5940(4) 0.5536(5) 0.0511(4)
H10_2 H 0.5675 0.5791 0.0254
H11_2 H 0.6230 0.5542 0.0384
C5_2 C 0.5793(6) 0.4742(7) 0.0573(6)
H12_2 H 0.6072 0.4476 0.0803
H13_2 H 0.5707 0.4496 0.0233
C6_2 C 0.5356(7) 0.4699(9) 0.0802(8)
H14_2 H 0.5288 0.4178 0.0862
H15_2 H 0.5065 0.4908 0.0553
C7_2 C 0.5465(6) 0.5135(9) 0.1324(7)
H16_2 H 0.5737 0.4899 0.1583
H17_2 H 0.5177 0.5122 0.1454
C8_2 C 0.5600(5) 0.5971(7) 0.1241(5)
H18_2 H 0.5327 0.6218 0.0989
H19_2 H 0.5675 0.6244 0.1570
O26_2 O 0.8199(3) 0.6395(4) 0.2810(2)
O27_2 O 0.8709(3) 0.7048(5) 0.2306(2)
O28_2 O 0.8191(3) 0.7792(4) 0.2747(3)
O29_2 O 0.7206(2) 0.8510(4) 0.2750(2)
O30_2 O 0.7984(3) 0.4874(3) 0.2195(2)
O31_2 O 0.6396(2) 0.9013(4) 0.2217(2)
O32_2 O 0.8780(2) 0.6262(3) 0.1305(2)
O33_2 O 0.8334(2) 0.7927(3) 0.1244(2)
O34_2 O 0.7555(2) 0.8161(4) 0.0530(2)
O35_2 O 0.7759(3) 0.9067(4) 0.1932(3)
O36_2 O 0.7400(2) 0.5441(4) 0.3049(2)
O37_2 O 0.6924(3) 0.9632(4) 0.1421(3)
Zn1_2 Zn 0.55843(3) 0.94305(5) 0.97940(3)
P6_2 P 0.64266(8) 0.92858(12) 0.91403(8)
P7_2 P 0.68899(8) 0.68338(11) 0.93205(8)
P8_2 P 0.75279(8) 0.52767(12) 0.83649(8)
O16_2 O 0.6042(2) 0.9562(3) 0.9389(2)
O17_2 O 0.6894(2) 0.9001(3) 0.9530(2)
O18_2 O 0.6220(2) 0.8738(3) 0.8695(2)
O19_2 O 0.6680(2) 0.7231(3) 0.9709(2)
O20_2 O 0.6666(2) 0.7073(3) 0.8756(2)
O21_2 O 0.7445(2) 0.6839(4) 0.9470(2)
O22_2 O 0.7241(3) 0.5933(4) 0.8068(3)
O23_2 O 0.7400(2) 0.4559(4) 0.8049(2)
O24_2 O 0.8076(3) 0.5368(4) 0.8579(3)
N4_2 N 0.6772(3) 0.5468(4) 0.8825(3)
H4_2 H 0.6729 0.5819 0.8566
H37_2 H 0.6913 0.9933 0.8709
C25_2 C 0.6675(4) 0.5872(4) 0.9293(4)
H50_2 H 0.6846 0.5614 0.9616
H51_2 H 0.6325 0.5865 0.9260
C26_2 C 0.7302(4) 0.5214(5) 0.8944(3)
H52_2 H 0.7328 0.4699 0.9067
H53_2 H 0.7507 0.5523 0.9223
C27_2 C 0.6407(5) 0.4847(6) 0.8598(4)
H54_2 H 0.6580 0.4567 0.8386
C28_2 C 0.6001(9) 0.5089(14) 0.8228(10)
H55_2 H 0.6094 0.5443 0.7995
H56_2 H 0.5780 0.5341 0.8393
C29_2 C 0.5719(8) 0.4345(11) 0.7885(8)
H57_2 H 0.5398 0.4490 0.7656
H58_2 H 0.5915 0.4147 0.7669
C30_2 C 0.5659(10) 0.3763(14) 0.8272(10)
H59_2 H 0.5347 0.3861 0.8343
H60_2 H 0.5628 0.3281 0.8095
C31_2 C 0.6004(8) 0.3683(12) 0.8742(8)
H61_2 H 0.6195 0.3241 0.8712
H62_2 H 0.5826 0.3561 0.8994
C32_2 C 0.6371(5) 0.4278(6) 0.8994(5)
H63_2 H 0.6269 0.4519 0.9274
H64_2 H 0.6692 0.4050 0.9147
Zn8_2 Zn 0.80812(3) 0.68028(5) 0.99674(3)
Zn11_2 Zn 0.74050(4) 0.67925(5) 0.77151(4)
Zn13_2 Zn 0.73123(4) 0.93200(5) 0.75096(3)
Zn14_2 Zn 0.76877(4) 0.43200(5) 0.74904(3)
Zn16_2 Zn 0.86968(4) 0.56867(5) 0.85146(3)
Zn18_2 Zn 0.66341(4) 0.80470(5) 0.84416(4)
O25_2 O 0.4977(2) 0.9666(4) 0.9272(3)
H42_3 H 0.0129 0.5918 0.6555
H43_3 H 0.0254 0.6570 0.6970
H45_3 H 0.0154 0.7034 0.6122
Zn7_3 Zn 0.05843(3) 0.55695(5) 0.47940(3)
O25_3 O 0.0023(2) 0.4666(4) 0.5728(3)
Zn1_3 Zn 0.94157(3) 0.44305(5) 0.52060(3)
Zn2_3 Zn 0.80812(3) 0.31972(5) 0.49674(3)
Zn5_3 Zn 0.86968(4) 0.43133(5) 0.35146(3)
P1_3 P 0.89833(8) 0.31969(11) 0.44402(8)
P2_3 P 0.77498(8) 0.16993(12) 0.34002(8)
P3_3 P 0.94361(8) 0.54600(12) 0.42106(8)
P4_3 P 0.84734(8) 0.70855(12) 0.27469(8)
P5_3 P 0.81865(8) 0.59029(11) 0.72962(8)
P6_3 P 0.85734(8) 0.42858(12) 0.58597(8)
P7_3 P 0.81101(8) 0.18338(11) 0.56795(8)
P8_3 P 0.74721(8) 0.02767(12) 0.66351(8)
O1_3 O 0.9419(2) 0.3453(3) 0.4888(2)
O2_3 O 0.8496(2) 0.3389(3) 0.4524(2)
O3_3 O 0.9007(2) 0.3445(3) 0.3905(2)
O4_3 O 0.7780(3) 0.2451(4) 0.3161(3)
O5_3 O 0.7285(2) 0.1531(4) 0.3548(2)
O6_3 O 0.7861(2) 0.1060(4) 0.3067(2)
O7_3 O 0.9266(3) 0.5164(4) 0.4656(3)
O8_3 O 0.9117(2) 0.5196(3) 0.3679(2)
O9_3 O 0.9977(2) 0.5334(4) 0.4272(3)
O13_3 O 0.7794(2) 0.6490(4) 0.7250(2)
O14_3 O 0.7984(3) 0.5126(3) 0.7195(2)
O15_3 O 0.8604(2) 0.5987(4) 0.7783(2)
O16_3 O 0.8958(2) 0.4562(3) 0.5611(2)
O17_3 O 0.8106(2) 0.4001(3) 0.5470(2)
O18_3 O 0.8780(2) 0.3738(3) 0.6305(2)
O19_3 O 0.8320(2) 0.2231(3) 0.5291(2)
O20_3 O 0.8334(2) 0.2073(3) 0.6244(2)
O21_3 O 0.7555(2) 0.1839(4) 0.5530(2)
O22_3 O 0.7759(3) 0.0933(4) 0.6932(3)
O24_3 O 0.6924(3) 0.0368(4) 0.6421(3)
N1_3 N 0.8752(3) 0.1743(4) 0.4000(2)
H1_3 H 0.8753 0.1989 0.3700
N2_3 N 0.8881(3) 0.6692(4) 0.3783(3)
H2_3 H 0.8741 0.6250 0.3645
N3_3 N 0.8717(2) 0.5543(4) 0.6567(2)
H3_3 H 0.8841 0.5223 0.6841
N4_3 N 0.8228(3) 0.0468(4) 0.6175(3)
H4_3 H 0.8271 0.0819 0.6434
C1_3 C 0.9073(3) 0.2185(4) 0.4459(3)
H5_3 H 0.9416 0.2086 0.4481
H6_3 H 0.9015 0.1996 0.4779
C2_3 C 0.8223(3) 0.1724(5) 0.4028(3)
H7_3 H 0.8168 0.2163 0.4220
H8_3 H 0.8183 0.1285 0.4229
C3_3 C 0.8947(4) 0.0946(5) 0.3967(4)
H9_3 H 0.8688 0.0665 0.3713
C4_3 C 0.9060(4) 0.0536(5) 0.4489(4)
H10_3 H 0.9325 0.0791 0.4746
H11_3 H 0.8770 0.0542 0.4616
C7_3 C 0.9535(6) 0.0135(9) 0.3676(7)
H17_3 H 0.9823 0.0122 0.3546
C8_3 C 0.9400(5) 0.0971(7) 0.3759(5)
H18_3 H 0.9673 0.1218 0.4011
H19_3 H 0.9325 0.1244 0.3430
C9_3 C 0.9350(4) 0.6471(5) 0.4198(4)
H20_3 H 0.9333 0.6641 0.4540
H21_3 H 0.9630 0.6714 0.4124
C10_3 C 0.8991(3) 0.7087(5) 0.3339(3)
H22_3 H 0.9272 0.6848 0.3264
H23_3 H 0.9082 0.7602 0.3441
C11_3 C 0.8495(4) 0.7071(6) 0.3988(4)
H24_3 H 0.8208 0.7176 0.3687
C12_3 C 0.8670(5) 0.7805(6) 0.4259(4)
H25_3 H 0.8759 0.8149 0.4018
H26_3 H 0.8958 0.7724 0.4557
C13_3 C 0.8241(7) 0.8140(7) 0.4449(6)
H27_3 H 0.8348 0.8608 0.4633
H28_3 H 0.7962 0.8248 0.4147
C14_3 C 0.8087(7) 0.7602(10) 0.4806(7)
H29_3 H 0.7829 0.7827 0.4932
H30_3 H 0.8366 0.7495 0.5109
C15_3 C 0.7897(6) 0.6868(9) 0.4514(7)
H31_3 H 0.7620 0.6971 0.4208
H32_3 H 0.7787 0.6528 0.4743
C16_3 C 0.8336(6) 0.6507(7) 0.4342(5)
H33_3 H 0.8610 0.6396 0.4649
H34_3 H 0.8229 0.6042 0.4153
C17_3 C 0.8433(3) 0.6152(4) 0.6761(3)
H35_3 H 0.8651 0.6580 0.6871
H36_3 H 0.8162 0.6313 0.6466
C18_3 C 0.8346(3) 0.5104(5) 0.6144(3)
H37_3 H 0.8087 0.4933 0.6291
H38_3 H 0.8196 0.5448 0.5860
C19_3 C 0.9159(3) 0.5844(5) 0.6393(3)
H39_3 H 0.9304 0.5412 0.6262
C20_3 C 0.9554(3) 0.6152(6) 0.6861(3)
H40_3 H 0.9647 0.5777 0.7136
H41_3 H 0.9431 0.6590 0.7001
C21_3 C 0.9998(4) 0.6365(7) 0.6677(4)
C22_3 C 0.9867(4) 0.6929(6) 0.6241(4)
H44_3 H 0.9766 0.7394 0.6370
C23_3 C 0.9447(4) 0.6635(6) 0.5781(4)
H46_3 H 0.9567 0.6210 0.5623
H47_3 H 0.9352 0.7024 0.5516
C24_3 C 0.9000(3) 0.6396(6) 0.5943(3)
H48_3 H 0.8848 0.6831 0.6052
H49_3 H 0.8761 0.6163 0.5648
C25_3 C 0.8325(4) 0.0872(4) 0.5707(4)
H50_3 H 0.8154 0.0614 0.5384
H51_3 H 0.8675 0.0865 0.5740
C26_3 C 0.7698(4) 0.0214(5) 0.6056(3)
H53_3 H 0.7493 0.0523 0.5777
C28_3 C 0.8999(9) 0.0089(14) 0.6772(10)
H55_3 H 0.8906 0.0443 0.7005
H56_3 H 0.9220 0.0341 0.6607
Zn8_3 Zn 0.69188(3) 0.18028(5) 0.50326(3)
Zn18_3 Zn 0.83659(4) 0.30470(5) 0.65584(4)
O29_3 O 0.7794(2) 0.3510(4) 0.2250(2)
O31_3 O 0.8604(2) 0.4013(4) 0.2783(2)
O32_3 O 0.6220(2) 0.1262(3) 0.3695(2)
O33_3 O 0.6666(2) 0.2927(3) 0.3756(2)
O34_3 O 0.7445(2) 0.3161(4) 0.4470(2)
O35_3 O 0.7241(3) 0.4067(4) 0.3068(3)
O36_3 O 0.7600(2) 0.0441(4) 0.1951(2)
O37_3 O 0.8076(3) 0.4632(4) 0.3579(3)
O23_3 O 0.7600(2) 0.9559(4) 0.6951(2)
C5_3 C 0.9207(6) 0.9742(7) 0.4427(6)
H12_3 H 0.8928 0.9476 0.4197
H13_3 H 0.9293 0.9496 0.4767
C6_3 C 0.9644(7) 0.9699(9) 0.4198(8)
H14_3 H 0.9712 0.9178 0.4138
H15_3 H 0.9935 0.9908 0.4447
H16_3 H 0.9263 0.9899 0.3417
H52_3 H 0.7672 0.9699 0.5933
C27_3 C 0.8593(5) 0.9847(6) 0.6402(4)
H54_3 H 0.8420 0.9567 0.6614
C29_3 C 0.9281(8) 0.9345(11) 0.7115(8)
H57_3 H 0.9602 0.9490 0.7344
H58_3 H 0.9085 0.9147 0.7331
C30_3 C 0.9341(10) 0.8763(14) 0.6728(10)
H59_3 H 0.9653 0.8861 0.6657
H60_3 H 0.9372 0.8281 0.6905
C31_3 C 0.8996(8) 0.8683(12) 0.6258(8)
H61_3 H 0.8805 0.8241 0.6288
H62_3 H 0.9174 0.8561 0.6006
C32_3 C 0.8629(5) 0.9278(6) 0.6006(5)
H63_3 H 0.8731 0.9519 0.5726
H64_3 H 0.8308 0.9050 0.5853
O30_3 O 0.7016(3) 0.9874(3) 0.2805(2)
P3_4 P 0.44361(8) 0.04600(12) 0.42106(8)
P4_4 P 0.34734(8) 0.20855(12) 0.27469(8)
P5_4 P 0.31865(8) 0.09029(11) 0.72962(8)
O7_4 O 0.4266(3) 0.0164(4) 0.4656(3)
O8_4 O 0.4117(2) 0.0196(3) 0.3679(2)
O9_4 O 0.4977(2) 0.0334(4) 0.4272(3)
O13_4 O 0.2794(2) 0.1490(4) 0.7250(2)
O14_4 O 0.2984(3) 0.0126(3) 0.7195(2)
O15_4 O 0.3604(2) 0.0987(4) 0.7783(2)
N2_4 N 0.3881(3) 0.1692(4) 0.3783(3)
H2_4 H 0.3741 0.1250 0.3645
N3_4 N 0.3717(2) 0.0543(4) 0.6567(2)
H3_4 H 0.3841 0.0223 0.6841
C9_4 C 0.4350(4) 0.1471(5) 0.4198(4)
H20_4 H 0.4333 0.1641 0.4540
H21_4 H 0.4630 0.1714 0.4124
C10_4 C 0.3991(3) 0.2087(5) 0.3339(3)
H22_4 H 0.4272 0.1848 0.3264
H23_4 H 0.4082 0.2602 0.3441
C11_4 C 0.3495(4) 0.2071(6) 0.3988(4)
H24_4 H 0.3208 0.2176 0.3687
C12_4 C 0.3670(5) 0.2805(6) 0.4259(4)
H25_4 H 0.3759 0.3149 0.4018
H26_4 H 0.3958 0.2724 0.4557
C13_4 C 0.3241(7) 0.3140(7) 0.4449(6)
H27_4 H 0.3348 0.3608 0.4633
H28_4 H 0.2962 0.3248 0.4147
C14_4 C 0.3087(7) 0.2602(10) 0.4806(7)
H29_4 H 0.2829 0.2827 0.4932
H30_4 H 0.3366 0.2495 0.5109
C15_4 C 0.2897(6) 0.1868(9) 0.4514(7)
H31_4 H 0.2620 0.1971 0.4208
H32_4 H 0.2787 0.1528 0.4743
C16_4 C 0.3336(6) 0.1507(7) 0.4342(5)
H33_4 H 0.3610 0.1396 0.4649
H34_4 H 0.3229 0.1042 0.4153
C17_4 C 0.3433(3) 0.1152(4) 0.6761(3)
H35_4 H 0.3651 0.1580 0.6871
H36_4 H 0.3162 0.1313 0.6466
C18_4 C 0.3346(3) 0.0104(5) 0.6144(3)
H38_4 H 0.3196 0.0448 0.5860
C19_4 C 0.4159(3) 0.0844(5) 0.6393(3)
H39_4 H 0.4304 0.0412 0.6262
C20_4 C 0.4554(3) 0.1152(6) 0.6861(3)
H40_4 H 0.4647 0.0777 0.7136
H41_4 H 0.4431 0.1590 0.7001
C21_4 C 0.4998(4) 0.1365(7) 0.6677(4)
H42_4 H 0.5129 0.0918 0.6555
H43_4 H 0.5254 0.1570 0.6970
C22_4 C 0.4867(4) 0.1929(6) 0.6241(4)
H44_4 H 0.4766 0.2394 0.6370
H45_4 H 0.5154 0.2034 0.6122
C23_4 C 0.4447(4) 0.1635(6) 0.5781(4)
H46_4 H 0.4567 0.1210 0.5623
H47_4 H 0.4352 0.2024 0.5516
C24_4 C 0.4000(3) 0.1396(6) 0.5943(3)
H48_4 H 0.3848 0.1831 0.6052
H49_4 H 0.3761 0.1163 0.5648
Zn7_4 Zn 0.55843(3) 0.05695(5) 0.47940(3)
Zn1_4 Zn 0.44157(3) 0.94305(5) 0.52060(3)
Zn2_4 Zn 0.30812(3) 0.81972(5) 0.49674(3)
Zn5_4 Zn 0.36968(4) 0.93133(5) 0.35146(3)
P1_4 P 0.39833(8) 0.81969(11) 0.44402(8)
P2_4 P 0.27498(8) 0.66993(12) 0.34002(8)
P6_4 P 0.35734(8) 0.92858(12) 0.58597(8)
P7_4 P 0.31101(8) 0.68338(11) 0.56795(8)
P8_4 P 0.24721(8) 0.52767(12) 0.66351(8)
O1_4 O 0.4419(2) 0.8453(3) 0.4888(2)
O2_4 O 0.3496(2) 0.8389(3) 0.4524(2)
O3_4 O 0.4007(2) 0.8445(3) 0.3905(2)
O4_4 O 0.2780(3) 0.7451(4) 0.3161(3)
O5_4 O 0.2285(2) 0.6531(4) 0.3548(2)
O6_4 O 0.2861(2) 0.6060(4) 0.3067(2)
O16_4 O 0.3958(2) 0.9562(3) 0.5611(2)
O17_4 O 0.3106(2) 0.9001(3) 0.5470(2)
O18_4 O 0.3780(2) 0.8738(3) 0.6305(2)
O19_4 O 0.3320(2) 0.7231(3) 0.5291(2)
O20_4 O 0.3334(2) 0.7073(3) 0.6244(2)
O21_4 O 0.2555(2) 0.6839(4) 0.5530(2)
O22_4 O 0.2759(3) 0.5933(4) 0.6932(3)
O23_4 O 0.2600(2) 0.4559(4) 0.6951(2)
O24_4 O 0.1924(3) 0.5368(4) 0.6421(3)
N1_4 N 0.3752(3) 0.6743(4) 0.4000(2)
H1_4 H 0.3753 0.6989 0.3700
N4_4 N 0.3228(3) 0.5468(4) 0.6175(3)
H4_4 H 0.3271 0.5819 0.6434
C1_4 C 0.4073(3) 0.7185(4) 0.4459(3)
H5_4 H 0.4416 0.7086 0.4481
H6_4 H 0.4015 0.6996 0.4779
C2_4 C 0.3223(3) 0.6724(5) 0.4028(3)
H7_4 H 0.3168 0.7163 0.4220
H8_4 H 0.3183 0.6285 0.4229
C3_4 C 0.3947(4) 0.5946(5) 0.3967(4)
H9_4 H 0.3688 0.5665 0.3713
C4_4 C 0.4060(4) 0.5536(5) 0.4489(4)
H10_4 H 0.4325 0.5791 0.4746
H11_4 H 0.3770 0.5542 0.4616
C5_4 C 0.4207(6) 0.4742(7) 0.4427(6)
H12_4 H 0.3928 0.4476 0.4197
H13_4 H 0.4293 0.4496 0.4767
C6_4 C 0.4644(7) 0.4699(9) 0.4198(8)
H14_4 H 0.4712 0.4178 0.4138
H15_4 H 0.4935 0.4908 0.4447
C7_4 C 0.4535(6) 0.5135(9) 0.3676(7)
H16_4 H 0.4263 0.4899 0.3417
H17_4 H 0.4823 0.5122 0.3546
C8_4 C 0.4400(5) 0.5971(7) 0.3759(5)
H18_4 H 0.4673 0.6218 0.4011
H19_4 H 0.4325 0.6244 0.3430
H37_4 H 0.3087 0.9933 0.6291
C25_4 C 0.3325(4) 0.5872(4) 0.5707(4)
H50_4 H 0.3154 0.5614 0.5384
H51_4 H 0.3675 0.5865 0.5740
C26_4 C 0.2698(4) 0.5214(5) 0.6056(3)
H52_4 H 0.2672 0.4699 0.5933
H53_4 H 0.2493 0.5523 0.5777
C27_4 C 0.3593(5) 0.4847(6) 0.6402(4)
H54_4 H 0.3420 0.4567 0.6614
C28_4 C 0.3999(9) 0.5089(14) 0.6772(10)
H55_4 H 0.3906 0.5443 0.7005
H56_4 H 0.4220 0.5341 0.6607
C29_4 C 0.4281(8) 0.4345(11) 0.7115(8)
H57_4 H 0.4602 0.4490 0.7344
H58_4 H 0.4085 0.4147 0.7331
C30_4 C 0.4341(10) 0.3763(14) 0.6728(10)
H59_4 H 0.4653 0.3861 0.6657
H60_4 H 0.4372 0.3281 0.6905
C31_4 C 0.3996(8) 0.3683(12) 0.6258(8)
H61_4 H 0.3805 0.3241 0.6288
H62_4 H 0.4174 0.3561 0.6006
C32_4 C 0.3629(5) 0.4278(6) 0.6006(5)
H63_4 H 0.3731 0.4519 0.5726
H64_4 H 0.3308 0.4050 0.5853
Zn8_4 Zn 0.19188(3) 0.68028(5) 0.50326(3)
Zn18_4 Zn 0.33659(4) 0.80470(5) 0.65584(4)
O25_4 O 0.5023(2) 0.9666(4) 0.5728(3)
O29_4 O 0.2794(2) 0.8510(4) 0.2250(2)
O30_4 O 0.2016(3) 0.4874(3) 0.2805(2)
O31_4 O 0.3604(2) 0.9013(4) 0.2783(2)
O32_4 O 0.1220(2) 0.6262(3) 0.3695(2)
O33_4 O 0.1666(2) 0.7927(3) 0.3756(2)
O34_4 O 0.2445(2) 0.8161(4) 0.4470(2)
O35_4 O 0.2241(3) 0.9067(4) 0.3068(3)
O36_4 O 0.2600(2) 0.5441(4) 0.1951(2)
O37_4 O 0.3076(3) 0.9632(4) 0.3579(3)
H42_5 H 0.0129 0.4082 0.1555
H43_5 H 0.0254 0.3430 0.1970
H45_5 H 0.0154 0.2966 0.1122
H52_5 H 0.7672 0.0301 0.0933
C27_5 C 0.8593(5) 0.0153(6) 0.1402(4)
H54_5 H 0.8420 0.0433 0.1614
C29_5 C 0.9281(8) 0.0655(11) 0.2115(8)
H57_5 H 0.9602 0.0510 0.2344
H58_5 H 0.9085 0.0853 0.2331
C30_5 C 0.9341(10) 0.1237(14) 0.1728(10)
H59_5 H 0.9653 0.1139 0.1657
H60_5 H 0.9372 0.1719 0.1905
C31_5 C 0.8996(8) 0.1317(12) 0.1258(8)
H61_5 H 0.8805 0.1759 0.1288
H62_5 H 0.9174 0.1439 0.1006
C32_5 C 0.8629(5) 0.0722(6) 0.1006(5)
H63_5 H 0.8731 0.0481 0.0726
H64_5 H 0.8308 0.0950 0.0853
C5_5 C 0.9207(6) 0.0258(7) 0.9427(6)
H12_5 H 0.8928 0.0524 0.9197
H13_5 H 0.9293 0.0504 0.9767
C6_5 C 0.9644(7) 0.0301(9) 0.9198(8)
H14_5 H 0.9712 0.0822 0.9138
H15_5 H 0.9935 0.0092 0.9447
H16_5 H 0.9263 0.0101 0.8417
P5_5 P 0.81865(8) 0.40971(11) 0.22962(8)
P6_5 P 0.85734(8) 0.57142(12) 0.08597(8)
P7_5 P 0.81101(8) 0.81662(11) 0.06795(8)
P8_5 P 0.74721(8) 0.97233(12) 0.16351(8)
O16_5 O 0.8958(2) 0.5438(3) 0.0611(2)
O17_5 O 0.8106(2) 0.5999(3) 0.0470(2)
O19_5 O 0.8320(2) 0.7769(3) 0.0291(2)
N3_5 N 0.8717(2) 0.4457(4) 0.1567(2)
H3_5 H 0.8841 0.4777 0.1841
N4_5 N 0.8228(3) 0.9532(4) 0.1175(3)
H4_5 H 0.8271 0.9181 0.1434
H30_5 H 0.8366 0.2505 0.0109
C17_5 C 0.8433(3) 0.3848(4) 0.1761(3)
H35_5 H 0.8651 0.3420 0.1871
H36_5 H 0.8162 0.3687 0.1466
C18_5 C 0.8346(3) 0.4896(5) 0.1144(3)
H37_5 H 0.8087 0.5067 0.1291
H38_5 H 0.8196 0.4552 0.0860
C19_5 C 0.9159(3) 0.4156(5) 0.1393(3)
H39_5 H 0.9304 0.4588 0.1262
C20_5 C 0.9554(3) 0.3848(6) 0.1861(3)
H40_5 H 0.9647 0.4223 0.2136
H41_5 H 0.9431 0.3410 0.2001
C21_5 C 0.9998(4) 0.3635(7) 0.1677(4)
C22_5 C 0.9867(4) 0.3071(6) 0.1241(4)
H44_5 H 0.9766 0.2606 0.1370
C23_5 C 0.9447(4) 0.3365(6) 0.0781(4)
H46_5 H 0.9567 0.3790 0.0623
H47_5 H 0.9352 0.2976 0.0516
C24_5 C 0.9000(3) 0.3604(6) 0.0943(3)
H48_5 H 0.8848 0.3169 0.1052
H49_5 H 0.8761 0.3837 0.0648
C25_5 C 0.8325(4) 0.9128(4) 0.0707(4)
H50_5 H 0.8154 0.9386 0.0384
H51_5 H 0.8675 0.9135 0.0740
C26_5 C 0.7698(4) 0.9786(5) 0.1056(3)
H53_5 H 0.7493 0.9477 0.0777
C28_5 C 0.8999(9) 0.9911(14) 0.1772(10)
H55_5 H 0.8906 0.9557 0.2005
H56_5 H 0.9220 0.9659 0.1607
P1_5 P 0.89833(8) 0.68031(11) 0.94402(8)
P2_5 P 0.77498(8) 0.83007(12) 0.84002(8)
P3_5 P 0.94361(8) 0.45400(12) 0.92106(8)
P4_5 P 0.84734(8) 0.29145(12) 0.77469(8)
O1_5 O 0.9419(2) 0.6547(3) 0.9888(2)
O2_5 O 0.8496(2) 0.6611(3) 0.9524(2)
O3_5 O 0.9007(2) 0.6555(3) 0.8905(2)
O4_5 O 0.7780(3) 0.7549(4) 0.8161(3)
O5_5 O 0.7285(2) 0.8469(4) 0.8548(2)
O6_5 O 0.7861(2) 0.8940(4) 0.8067(2)
O7_5 O 0.9266(3) 0.4836(4) 0.9656(3)
O8_5 O 0.9117(2) 0.4804(3) 0.8679(2)
O10_3 O 0.8199(3) 0.3605(4) 0.7810(2)
O11_3 O 0.8709(3) 0.2952(5) 0.7306(2)
O12_3 O 0.8191(3) 0.2208(4) 0.7747(3)
N1_5 N 0.8752(3) 0.8257(4) 0.9000(2)
H1_5 H 0.8753 0.8011 0.8700
N2_5 N 0.8881(3) 0.3308(4) 0.8783(3)
H2_5 H 0.8741 0.3750 0.8645
C1_5 C 0.9073(3) 0.7815(4) 0.9459(3)
H5_5 H 0.9416 0.7914 0.9481
H6_5 H 0.9015 0.8004 0.9779
C2_5 C 0.8223(3) 0.8276(5) 0.9028(3)
H7_5 H 0.8168 0.7837 0.9220
H8_5 H 0.8183 0.8715 0.9229
C3_5 C 0.8947(4) 0.9054(5) 0.8967(4)
H9_5 H 0.8688 0.9335 0.8713
C4_5 C 0.9060(4) 0.9464(5) 0.9489(4)
H10_5 H 0.9325 0.9209 0.9746
H11_5 H 0.8770 0.9458 0.9616
C7_5 C 0.9535(6) 0.9865(9) 0.8676(7)
H17_5 H 0.9823 0.9878 0.8546
C8_5 C 0.9400(5) 0.9029(7) 0.8759(5)
H18_5 H 0.9673 0.8782 0.9011
H19_5 H 0.9325 0.8756 0.8430
C9_5 C 0.9350(4) 0.3529(5) 0.9198(4)
H20_5 H 0.9333 0.3359 0.9540
H21_5 H 0.9630 0.3286 0.9124
C10_5 C 0.8991(3) 0.2913(5) 0.8339(3)
H22_5 H 0.9272 0.3152 0.8264
H23_5 H 0.9082 0.2398 0.8441
C11_5 C 0.8495(4) 0.2929(6) 0.8988(4)
H24_5 H 0.8208 0.2824 0.8687
C12_5 C 0.8670(5) 0.2195(6) 0.9259(4)
H25_5 H 0.8759 0.1851 0.9018
H26_5 H 0.8958 0.2276 0.9557
C13_5 C 0.8241(7) 0.1860(7) 0.9449(6)
H27_5 H 0.8348 0.1392 0.9633
H28_5 H 0.7962 0.1752 0.9147
C14_5 C 0.8087(7) 0.2398(10) 0.9806(7)
H29_5 H 0.7829 0.2173 0.9932
C15_5 C 0.7897(6) 0.3132(9) 0.9514(7)
H31_5 H 0.7620 0.3029 0.9208
H32_5 H 0.7787 0.3472 0.9743
C16_5 C 0.8336(6) 0.3493(7) 0.9342(5)
H33_5 H 0.8610 0.3604 0.9649
H34_5 H 0.8229 0.3958 0.9153
O26_3 O 0.6801(3) 0.8605(4) 0.7190(2)
O27_3 O 0.6291(3) 0.7952(5) 0.7694(2)
O28_3 O 0.6809(3) 0.7208(4) 0.7253(3)
P6_6 P 0.35734(8) 0.07142(12) 0.08597(8)
P7_6 P 0.31101(8) 0.31662(11) 0.06795(8)
P8_6 P 0.24721(8) 0.47233(12) 0.16351(8)
O16_6 O 0.3958(2) 0.0438(3) 0.0611(2)
O17_6 O 0.3106(2) 0.0999(3) 0.0470(2)
O19_6 O 0.3320(2) 0.2769(3) 0.0291(2)
N4_6 N 0.3228(3) 0.4532(4) 0.1175(3)
H4_6 H 0.3271 0.4181 0.1434
H37_6 H 0.3087 0.0067 0.1291
C25_6 C 0.3325(4) 0.4128(4) 0.0707(4)
H50_6 H 0.3154 0.4386 0.0384
H51_6 H 0.3675 0.4135 0.0740
C26_6 C 0.2698(4) 0.4786(5) 0.1056(3)
H52_6 H 0.2672 0.5301 0.0933
H53_6 H 0.2493 0.4477 0.0777
C27_6 C 0.3593(5) 0.5153(6) 0.1402(4)
H54_6 H 0.3420 0.5433 0.1614
C28_6 C 0.3999(9) 0.4911(14) 0.1772(10)
H55_6 H 0.3906 0.4557 0.2005
H56_6 H 0.4220 0.4659 0.1607
C29_6 C 0.4281(8) 0.5655(11) 0.2115(8)
H57_6 H 0.4602 0.5510 0.2344
H58_6 H 0.4085 0.5853 0.2331
C30_6 C 0.4341(10) 0.6237(14) 0.1728(10)
H59_6 H 0.4653 0.6139 0.1657
H60_6 H 0.4372 0.6719 0.1905
C31_6 C 0.3996(8) 0.6317(12) 0.1258(8)
H61_6 H 0.3805 0.6759 0.1288
H62_6 H 0.4174 0.6439 0.1006
C32_6 C 0.3629(5) 0.5722(6) 0.1006(5)
H63_6 H 0.3731 0.5481 0.0726
H64_6 H 0.3308 0.5950 0.0853
P1_6 P 0.39833(8) 0.18031(11) 0.94402(8)
P2_6 P 0.27498(8) 0.33007(12) 0.84002(8)
O1_6 O 0.4419(2) 0.1547(3) 0.9888(2)
O2_6 O 0.3496(2) 0.1611(3) 0.9524(2)
O3_6 O 0.4007(2) 0.1555(3) 0.8905(2)
O4_6 O 0.2780(3) 0.2549(4) 0.8161(3)
O5_6 O 0.2285(2) 0.3469(4) 0.8548(2)
O6_6 O 0.2861(2) 0.3940(4) 0.8067(2)
N1_6 N 0.3752(3) 0.3257(4) 0.9000(2)
H1_6 H 0.3753 0.3011 0.8700
C1_6 C 0.4073(3) 0.2815(4) 0.9459(3)
H5_6 H 0.4416 0.2914 0.9481
H6_6 H 0.4015 0.3004 0.9779
C2_6 C 0.3223(3) 0.3276(5) 0.9028(3)
H7_6 H 0.3168 0.2837 0.9220
H8_6 H 0.3183 0.3715 0.9229
C3_6 C 0.3947(4) 0.4054(5) 0.8967(4)
H9_6 H 0.3688 0.4335 0.8713
C4_6 C 0.4060(4) 0.4464(5) 0.9489(4)
H10_6 H 0.4325 0.4209 0.9746
H11_6 H 0.3770 0.4458 0.9616
C5_6 C 0.4207(6) 0.5258(7) 0.9427(6)
H12_6 H 0.3928 0.5524 0.9197
H13_6 H 0.4293 0.5504 0.9767
C6_6 C 0.4644(7) 0.5301(9) 0.9198(8)
H14_6 H 0.4712 0.5822 0.9138
H15_6 H 0.4935 0.5092 0.9447
C7_6 C 0.4535(6) 0.4865(9) 0.8676(7)
H16_6 H 0.4263 0.5101 0.8417
H17_6 H 0.4823 0.4878 0.8546
C8_6 C 0.4400(5) 0.4029(7) 0.8759(5)
H18_6 H 0.4673 0.3782 0.9011
H19_6 H 0.4325 0.3756 0.8430
O26_4 O 0.1801(3) 0.3605(4) 0.7190(2)
O27_4 O 0.1291(3) 0.2952(5) 0.7694(2)
O28_4 O 0.1809(3) 0.2208(4) 0.7253(3)
P5_6 P 0.31865(8) 0.90971(11) 0.22962(8)
N3_6 N 0.3717(2) 0.9457(4) 0.1567(2)
H3_6 H 0.3841 0.9777 0.1841
H30_6 H 0.3366 0.7505 0.0109
C17_6 C 0.3433(3) 0.8848(4) 0.1761(3)
H35_6 H 0.3651 0.8420 0.1871
H36_6 H 0.3162 0.8687 0.1466
C18_6 C 0.3346(3) 0.9896(5) 0.1144(3)
H38_6 H 0.3196 0.9552 0.0860
C19_6 C 0.4159(3) 0.9156(5) 0.1393(3)
H39_6 H 0.4304 0.9588 0.1262
C20_6 C 0.4554(3) 0.8848(6) 0.1861(3)
H40_6 H 0.4647 0.9223 0.2136
H41_6 H 0.4431 0.8410 0.2001
C21_6 C 0.4998(4) 0.8635(7) 0.1677(4)
H42_6 H 0.5129 0.9082 0.1555
H43_6 H 0.5254 0.8430 0.1970
C22_6 C 0.4867(4) 0.8071(6) 0.1241(4)
H44_6 H 0.4766 0.7606 0.1370
H45_6 H 0.5154 0.7966 0.1122
C23_6 C 0.4447(4) 0.8365(6) 0.0781(4)
H46_6 H 0.4567 0.8790 0.0623
H47_6 H 0.4352 0.7976 0.0516
C24_6 C 0.4000(3) 0.8604(6) 0.0943(3)
H48_6 H 0.3848 0.8169 0.1052
H49_6 H 0.3761 0.8837 0.0648
P3_6 P 0.44361(8) 0.95400(12) 0.92106(8)
P4_6 P 0.34734(8) 0.79145(12) 0.77469(8)
O7_6 O 0.4266(3) 0.9836(4) 0.9656(3)
O8_6 O 0.4117(2) 0.9804(3) 0.8679(2)
O10_4 O 0.3199(3) 0.8605(4) 0.7810(2)
O11_4 O 0.3709(3) 0.7952(5) 0.7306(2)
O12_4 O 0.3191(3) 0.7208(4) 0.7747(3)
N2_6 N 0.3881(3) 0.8308(4) 0.8783(3)
H2_6 H 0.3741 0.8750 0.8645
C9_6 C 0.4350(4) 0.8529(5) 0.9198(4)
H20_6 H 0.4333 0.8359 0.9540
H21_6 H 0.4630 0.8286 0.9124
C10_6 C 0.3991(3) 0.7913(5) 0.8339(3)
H22_6 H 0.4272 0.8152 0.8264
H23_6 H 0.4082 0.7398 0.8441
C11_6 C 0.3495(4) 0.7929(6) 0.8988(4)
H24_6 H 0.3208 0.7824 0.8687
C12_6 C 0.3670(5) 0.7195(6) 0.9259(4)
H25_6 H 0.3759 0.6851 0.9018
H26_6 H 0.3958 0.7276 0.9557
C13_6 C 0.3241(7) 0.6860(7) 0.9449(6)
H27_6 H 0.3348 0.6392 0.9633
H28_6 H 0.2962 0.6752 0.9147
C14_6 C 0.3087(7) 0.7398(10) 0.9806(7)
H29_6 H 0.2829 0.7173 0.9932
C15_6 C 0.2897(6) 0.8132(9) 0.9514(7)
H31_6 H 0.2620 0.8029 0.9208
H32_6 H 0.2787 0.8472 0.9743
C16_6 C 0.3336(6) 0.8493(7) 0.9342(5)
H33_6 H 0.3610 0.8604 0.9649
H34_6 H 0.3229 0.8958 0.9153
C5_7 C 0.0793(6) 0.0258(7) 0.5573(6)
H12_7 H 0.1072 0.0524 0.5803
H13_7 H 0.0707 0.0504 0.5233
C6_7 C 0.0356(7) 0.0301(9) 0.5802(8)
H14_7 H 0.0288 0.0822 0.5862
H15_7 H 0.0065 0.0092 0.5553
H16_7 H 0.0737 0.0101 0.6583
H52_7 H 0.2328 0.0301 0.4067
C27_7 C 0.1407(5) 0.0153(6) 0.3598(4)
H54_7 H 0.1580 0.0433 0.3386
C29_7 C 0.0719(8) 0.0655(11) 0.2885(8)
H57_7 H 0.0398 0.0510 0.2656
H58_7 H 0.0915 0.0853 0.2669
C30_7 C 0.0659(10) 0.1237(14) 0.3272(10)
H59_7 H 0.0347 0.1139 0.3343
H60_7 H 0.0628 0.1719 0.3095
C31_7 C 0.1004(8) 0.1317(12) 0.3742(8)
H61_7 H 0.1195 0.1759 0.3712
H62_7 H 0.0826 0.1439 0.3994
C32_7 C 0.1371(5) 0.0722(6) 0.3994(5)
H63_7 H 0.1269 0.0481 0.4274
H64_7 H 0.1692 0.0950 0.4147
P1_7 P 0.10167(8) 0.68031(11) 0.55598(8)
P2_7 P 0.22502(8) 0.83007(12) 0.65998(8)
P3_7 P 0.05639(8) 0.45400(12) 0.57894(8)
P4_7 P 0.15266(8) 0.29145(12) 0.72531(8)
P5_7 P 0.18135(8) 0.40971(11) 0.27038(8)
P6_7 P 0.14266(8) 0.57142(12) 0.41403(8)
P7_7 P 0.18899(8) 0.81662(11) 0.43205(8)
P8_7 P 0.25279(8) 0.97233(12) 0.33649(8)
O1_7 O 0.0581(2) 0.6547(3) 0.5112(2)
O2_7 O 0.1504(2) 0.6611(3) 0.5476(2)
O3_7 O 0.0993(2) 0.6555(3) 0.6095(2)
O4_7 O 0.2220(3) 0.7549(4) 0.6839(3)
O5_7 O 0.2715(2) 0.8469(4) 0.6452(2)
O6_7 O 0.2139(2) 0.8940(4) 0.6933(2)
O7_7 O 0.0734(3) 0.4836(4) 0.5344(3)
O8_7 O 0.0883(2) 0.4804(3) 0.6321(2)
O16_7 O 0.1042(2) 0.5438(3) 0.4389(2)
O17_7 O 0.1894(2) 0.5999(3) 0.4530(2)
O19_7 O 0.1680(2) 0.7769(3) 0.4709(2)
N1_7 N 0.1248(3) 0.8257(4) 0.6000(2)
H1_7 H 0.1247 0.8011 0.6300
N2_7 N 0.1119(3) 0.3308(4) 0.6217(3)
H2_7 H 0.1259 0.3750 0.6355
N3_7 N 0.1283(2) 0.4457(4) 0.3433(2)
H3_7 H 0.1159 0.4777 0.3159
N4_7 N 0.1772(3) 0.9532(4) 0.3825(3)
H4_7 H 0.1729 0.9181 0.3566
C1_7 C 0.0927(3) 0.7815(4) 0.5541(3)
H5_7 H 0.0584 0.7914 0.5519
H6_7 H 0.0985 0.8004 0.5221
C2_7 C 0.1777(3) 0.8276(5) 0.5972(3)
H7_7 H 0.1832 0.7837 0.5780
H8_7 H 0.1817 0.8715 0.5771
C3_7 C 0.1053(4) 0.9054(5) 0.6033(4)
H9_7 H 0.1312 0.9335 0.6287
C4_7 C 0.0940(4) 0.9464(5) 0.5511(4)
H10_7 H 0.0675 0.9209 0.5254
H11_7 H 0.1230 0.9458 0.5384
C7_7 C 0.0465(6) 0.9865(9) 0.6324(7)
H17_7 H 0.0177 0.9878 0.6454
C8_7 C 0.0600(5) 0.9029(7) 0.6241(5)
H18_7 H 0.0327 0.8782 0.5989
H19_7 H 0.0675 0.8756 0.6570
C9_7 C 0.0650(4) 0.3529(5) 0.5802(4)
H20_7 H 0.0667 0.3359 0.5460
H21_7 H 0.0370 0.3286 0.5876
C10_7 C 0.1009(3) 0.2913(5) 0.6661(3)
H22_7 H 0.0728 0.3152 0.6736
H23_7 H 0.0918 0.2398 0.6559
C11_7 C 0.1505(4) 0.2929(6) 0.6012(4)
H24_7 H 0.1792 0.2824 0.6313
C12_7 C 0.1330(5) 0.2195(6) 0.5741(4)
H25_7 H 0.1241 0.1851 0.5982
H26_7 H 0.1042 0.2276 0.5443
C13_7 C 0.1759(7) 0.1860(7) 0.5551(6)
H27_7 H 0.1652 0.1392 0.5367
H28_7 H 0.2038 0.1752 0.5853
C14_7 C 0.1913(7) 0.2398(10) 0.5194(7)
H29_7 H 0.2171 0.2173 0.5068
H30_7 H 0.1634 0.2505 0.4891
C15_7 C 0.2103(6) 0.3132(9) 0.5486(7)
H31_7 H 0.2380 0.3029 0.5792
H32_7 H 0.2213 0.3472 0.5257
C16_7 C 0.1664(6) 0.3493(7) 0.5658(5)
H33_7 H 0.1390 0.3604 0.5351
H34_7 H 0.1771 0.3958 0.5847
C17_7 C 0.1567(3) 0.3848(4) 0.3239(3)
H35_7 H 0.1349 0.3420 0.3129
H36_7 H 0.1838 0.3687 0.3534
C18_7 C 0.1654(3) 0.4896(5) 0.3856(3)
H37_7 H 0.1913 0.5067 0.3709
H38_7 H 0.1804 0.4552 0.4140
C19_7 C 0.0841(3) 0.4156(5) 0.3607(3)
H39_7 H 0.0696 0.4588 0.3738
C20_7 C 0.0446(3) 0.3848(6) 0.3139(3)
H40_7 H 0.0353 0.4223 0.2864
H41_7 H 0.0569 0.3410 0.2999
C21_7 C 0.0002(4) 0.3635(7) 0.3323(4)
C22_7 C 0.0133(4) 0.3071(6) 0.3759(4)
H44_7 H 0.0234 0.2606 0.3630
C23_7 C 0.0553(4) 0.3365(6) 0.4219(4)
H46_7 H 0.0433 0.3790 0.4377
H47_7 H 0.0648 0.2976 0.4484
C24_7 C 0.1000(3) 0.3604(6) 0.4057(3)
H48_7 H 0.1152 0.3169 0.3948
H49_7 H 0.1239 0.3837 0.4352
C25_7 C 0.1675(4) 0.9128(4) 0.4293(4)
H50_7 H 0.1846 0.9386 0.4616
H51_7 H 0.1325 0.9135 0.4260
C26_7 C 0.2302(4) 0.9786(5) 0.3944(3)
H53_7 H 0.2507 0.9477 0.4223
C28_7 C 0.1001(9) 0.9911(14) 0.3228(10)
H55_7 H 0.1094 0.9557 0.2995
H56_7 H 0.0780 0.9659 0.3393
H42_7 H 0.9871 0.4082 0.3445
H43_7 H 0.9746 0.3430 0.3030
H45_7 H 0.9846 0.2966 0.3878
P1_8 P 0.60167(8) 0.18031(11) 0.55598(8)
P2_8 P 0.72502(8) 0.33007(12) 0.65998(8)
P6_8 P 0.64266(8) 0.07142(12) 0.41403(8)
P7_8 P 0.68899(8) 0.31662(11) 0.43205(8)
P8_8 P 0.75279(8) 0.47233(12) 0.33649(8)
O1_8 O 0.5581(2) 0.1547(3) 0.5112(2)
O2_8 O 0.6504(2) 0.1611(3) 0.5476(2)
O3_8 O 0.5993(2) 0.1555(3) 0.6095(2)
O4_8 O 0.7220(3) 0.2549(4) 0.6839(3)
O5_8 O 0.7715(2) 0.3469(4) 0.6452(2)
O6_8 O 0.7139(2) 0.3940(4) 0.6933(2)
O16_8 O 0.6042(2) 0.0438(3) 0.4389(2)
O17_8 O 0.6894(2) 0.0999(3) 0.4530(2)
O19_8 O 0.6680(2) 0.2769(3) 0.4709(2)
N1_8 N 0.6248(3) 0.3257(4) 0.6000(2)
H1_8 H 0.6247 0.3011 0.6300
N4_8 N 0.6772(3) 0.4532(4) 0.3825(3)
H4_8 H 0.6729 0.4181 0.3566
C1_8 C 0.5927(3) 0.2815(4) 0.5541(3)
H5_8 H 0.5584 0.2914 0.5519
H6_8 H 0.5985 0.3004 0.5221
C2_8 C 0.6777(3) 0.3276(5) 0.5972(3)
H7_8 H 0.6832 0.2837 0.5780
H8_8 H 0.6817 0.3715 0.5771
C3_8 C 0.6053(4) 0.4054(5) 0.6033(4)
H9_8 H 0.6312 0.4335 0.6287
C4_8 C 0.5940(4) 0.4464(5) 0.5511(4)
H10_8 H 0.5675 0.4209 0.5254
H11_8 H 0.6230 0.4458 0.5384
C5_8 C 0.5793(6) 0.5258(7) 0.5573(6)
H12_8 H 0.6072 0.5524 0.5803
H13_8 H 0.5707 0.5504 0.5233
C6_8 C 0.5356(7) 0.5301(9) 0.5802(8)
H14_8 H 0.5288 0.5822 0.5862
H15_8 H 0.5065 0.5092 0.5553
C7_8 C 0.5465(6) 0.4865(9) 0.6324(7)
H16_8 H 0.5737 0.5101 0.6583
H17_8 H 0.5177 0.4878 0.6454
C8_8 C 0.5600(5) 0.4029(7) 0.6241(5)
H18_8 H 0.5327 0.3782 0.5989
H19_8 H 0.5675 0.3756 0.6570
H37_8 H 0.6913 0.0067 0.3709
C25_8 C 0.6675(4) 0.4128(4) 0.4293(4)
H50_8 H 0.6846 0.4386 0.4616
H51_8 H 0.6325 0.4135 0.4260
C26_8 C 0.7302(4) 0.4786(5) 0.3944(3)
H52_8 H 0.7328 0.5301 0.4067
H53_8 H 0.7507 0.4477 0.4223
C27_8 C 0.6407(5) 0.5153(6) 0.3598(4)
H54_8 H 0.6580 0.5433 0.3386
C28_8 C 0.6001(9) 0.4911(14) 0.3228(10)
H55_8 H 0.6094 0.4557 0.2995
H56_8 H 0.5780 0.4659 0.3393
C29_8 C 0.5719(8) 0.5655(11) 0.2885(8)
H57_8 H 0.5398 0.5510 0.2656
H58_8 H 0.5915 0.5853 0.2669
C30_8 C 0.5659(10) 0.6237(14) 0.3272(10)
H59_8 H 0.5347 0.6139 0.3343
H60_8 H 0.5628 0.6719 0.3095
C31_8 C 0.6004(8) 0.6317(12) 0.3742(8)
H61_8 H 0.6195 0.6759 0.3712
H62_8 H 0.5826 0.6439 0.3994
C32_8 C 0.6371(5) 0.5722(6) 0.3994(5)
H63_8 H 0.6269 0.5481 0.4274
H64_8 H 0.6692 0.5950 0.4147
P3_8 P 0.55639(8) 0.95400(12) 0.57894(8)
P4_8 P 0.65266(8) 0.79145(12) 0.72531(8)
P5_8 P 0.68135(8) 0.90971(11) 0.27038(8)
O7_8 O 0.5734(3) 0.9836(4) 0.5344(3)
O8_8 O 0.5883(2) 0.9804(3) 0.6321(2)
N2_8 N 0.6119(3) 0.8308(4) 0.6217(3)
H2_8 H 0.6259 0.8750 0.6355
N3_8 N 0.6283(2) 0.9457(4) 0.3433(2)
H3_8 H 0.6159 0.9777 0.3159
C9_8 C 0.5650(4) 0.8529(5) 0.5802(4)
H20_8 H 0.5667 0.8359 0.5460
H21_8 H 0.5370 0.8286 0.5876
C10_8 C 0.6009(3) 0.7913(5) 0.6661(3)
H22_8 H 0.5728 0.8152 0.6736
H23_8 H 0.5918 0.7398 0.6559
C11_8 C 0.6505(4) 0.7929(6) 0.6012(4)
H24_8 H 0.6792 0.7824 0.6313
C12_8 C 0.6330(5) 0.7195(6) 0.5741(4)
H25_8 H 0.6241 0.6851 0.5982
H26_8 H 0.6042 0.7276 0.5443
C13_8 C 0.6759(7) 0.6860(7) 0.5551(6)
H27_8 H 0.6652 0.6392 0.5367
H28_8 H 0.7038 0.6752 0.5853
C14_8 C 0.6913(7) 0.7398(10) 0.5194(7)
H29_8 H 0.7171 0.7173 0.5068
H30_8 H 0.6634 0.7505 0.4891
C15_8 C 0.7103(6) 0.8132(9) 0.5486(7)
H31_8 H 0.7380 0.8029 0.5792
H32_8 H 0.7213 0.8472 0.5257
C16_8 C 0.6664(6) 0.8493(7) 0.5658(5)
H33_8 H 0.6390 0.8604 0.5351
H34_8 H 0.6771 0.8958 0.5847
C17_8 C 0.6567(3) 0.8848(4) 0.3239(3)
H35_8 H 0.6349 0.8420 0.3129
H36_8 H 0.6838 0.8687 0.3534
C18_8 C 0.6654(3) 0.9896(5) 0.3856(3)
H38_8 H 0.6804 0.9552 0.4140
C19_8 C 0.5841(3) 0.9156(5) 0.3607(3)
H39_8 H 0.5696 0.9588 0.3738
C20_8 C 0.5446(3) 0.8848(6) 0.3139(3)
H40_8 H 0.5353 0.9223 0.2864
H41_8 H 0.5569 0.8410 0.2999
C21_8 C 0.5002(4) 0.8635(7) 0.3323(4)
H42_8 H 0.4871 0.9082 0.3445
H43_8 H 0.4746 0.8430 0.3030
C22_8 C 0.5133(4) 0.8071(6) 0.3759(4)
H44_8 H 0.5234 0.7606 0.3630
H45_8 H 0.4846 0.7966 0.3878
C23_8 C 0.5553(4) 0.8365(6) 0.4219(4)
H46_8 H 0.5433 0.8790 0.4377
H47_8 H 0.5648 0.7976 0.4484
C24_8 C 0.6000(3) 0.8604(6) 0.4057(3)
H48_8 H 0.6152 0.8169 0.3948
H49_8 H 0.6239 0.8837 0.4352
loop_
_geom_bond_atom_site_label_1
_geom_bond_atom_site_label_2
_geom_bond_site_symmetry_1
_geom_bond_site_symmetry_2
Zn2 O2 1_555 1_555
Zn3 O4 1_555 1_555
Zn4 O6 1_555 1_555
Zn5 O3 1_555 1_555
Zn6 O5 1_555 1_555
P1 O1 1_555 1_555
P2 O4 1_555 1_555
P3 O7 1_555 1_555
P4 O10 1_555 1_555
O2 P1 1_555 1_555
O3 P1 1_555 1_555
O5 P2 1_555 1_555
O6 P2 1_555 1_555
O8 Zn5 1_555 1_555
O9 P3 1_555 1_555
O10 Zn12 1_555 1_555
O11 P4 1_555 1_555
O12 P4 1_555 1_555
N1 H1 1_555 1_555
N2 H2 1_555 1_555
C1 P1 1_555 1_555
H5 C1 1_555 1_555
H6 C1 1_555 1_555
C2 P2 1_555 1_555
H7 C2 1_555 1_555
H8 C2 1_555 1_555
C3 N1 1_555 1_555
H9 C3 1_555 1_555
C4 C3 1_555 1_555
H10 C4 1_555 1_555
H11 C4 1_555 1_555
H17 C7 1_555 1_555
C8 C3 1_555 1_555
H18 C8 1_555 1_555
H19 C8 1_555 1_555
C9 P3 1_555 1_555
H20 C9 1_555 1_555
H21 C9 1_555 1_555
C10 P4 1_555 1_555
H22 C10 1_555 1_555
H23 C10 1_555 1_555
C11 N2 1_555 1_555
H24 C11 1_555 1_555
C12 C11 1_555 1_555
H25 C12 1_555 1_555
H26 C12 1_555 1_555
C13 C12 1_555 1_555
H27 C13 1_555 1_555
H28 C13 1_555 1_555
C14 C13 1_555 1_555
H29 C14 1_555 1_555
C15 C14 1_555 1_555
H31 C15 1_555 1_555
H32 C15 1_555 1_555
C16 C11 1_555 1_555
H33 C16 1_555 1_555
H34 C16 1_555 1_555
Zn9 O12 1_555 1_555
Zn17 O11 1_555 1_555
O26 Zn4 1_555 1_555
O27 Zn6 1_555 1_555
O28 Zn3 1_555 1_555
O29 Zn3 1_555 1_555
O31 Zn5 1_555 1_555
O32 Zn6 1_555 1_555
O33 Zn6 1_555 1_555
O34 Zn2 1_555 1_555
O35 Zn3 1_555 1_555
O36 Zn4 1_555 1_555
O37 Zn5 1_555 1_555
P3 O8 1_555 1_555
N1 C1 1_555 1_555
N1 C2 1_555 1_555
N2 C9 1_555 1_555
N2 C10 1_555 1_555
C7 C8 1_555 1_555
C15 C16 1_555 1_555
P5 O13 1_555 1_555
P6 O16 1_555 1_555
P7 O19 1_555 1_555
P8 O22 1_555 1_555
O13 Zn10 1_555 1_555
O14 P5 1_555 1_555
O15 P5 1_555 1_555
O16 Zn1 1_555 1_555
O18 P6 1_555 1_555
O20 P7 1_555 1_555
O21 P7 1_555 1_555
O22 Zn11 1_555 1_555
O24 P8 1_555 1_555
N3 H3 1_555 1_555
N4 H4 1_555 1_555
C17 P5 1_555 1_555
H35 C17 1_555 1_555
H36 C17 1_555 1_555
C18 P6 1_555 1_555
H37 C18 1_555 1_555
H38 C18 1_555 1_555
C19 N3 1_555 1_555
H39 C19 1_555 1_555
C20 C19 1_555 1_555
H40 C20 1_555 1_555
H41 C20 1_555 1_555
C21 C20 1_555 1_555
C22 C21 1_555 1_555
H44 C22 1_555 1_555
C23 C22 1_555 1_555
H46 C23 1_555 1_555
H47 C23 1_555 1_555
C24 C19 1_555 1_555
H48 C24 1_555 1_555
H49 C24 1_555 1_555
C25 P7 1_555 1_555
H50 C25 1_555 1_555
H51 C25 1_555 1_555
C26 P8 1_555 1_555
H53 C26 1_555 1_555
H55 C28 1_555 1_555
H56 C28 1_555 1_555
Zn8 O21 1_555 1_555
Zn13 O14 1_555 1_555
Zn15 O15 1_555 1_555
Zn16 O24 1_555 1_555
Zn18 O18 1_555 1_555
P6 O17 1_555 1_555
O20 Zn18 1_555 1_555
N3 C17 1_555 1_555
N3 C18 1_555 1_555
N4 C25 1_555 1_555
N4 C26 1_555 1_555
C23 C24 1_555 1_555
H12 C5 1_555 1_555
H13 C5 1_555 1_555
C6 C5 1_555 1_555
H14 C6 1_555 1_555
H15 C6 1_555 1_555
H54 C27 1_555 1_555
H57 C29 1_555 1_555
H58 C29 1_555 1_555
C30 C29 1_555 1_555
H59 C30 1_555 1_555
H60 C30 1_555 1_555
C31 C30 1_555 1_555
H61 C31 1_555 1_555
H62 C31 1_555 1_555
C32 C27 1_555 1_555
H63 C32 1_555 1_555
H64 C32 1_555 1_555
Zn14 O23 1_555 1_555
C31 C32 1_555 1_555
P3_2 O7_2 1_555 1_555
P4_2 O10_2 1_555 1_555
O9_2 P3_2 1_555 1_555
O10_2 Zn12_2 1_555 1_555
O11_2 P4_2 1_555 1_555
O12_2 P4_2 1_555 1_555
N2_2 H2_2 1_555 1_555
C9_2 P3_2 1_555 1_555
H20_2 C9_2 1_555 1_555
H21_2 C9_2 1_555 1_555
C10_2 P4_2 1_555 1_555
H22_2 C10_2 1_555 1_555
H23_2 C10_2 1_555 1_555
C11_2 N2_2 1_555 1_555
H24_2 C11_2 1_555 1_555
C12_2 C11_2 1_555 1_555
H25_2 C12_2 1_555 1_555
H26_2 C12_2 1_555 1_555
C13_2 C12_2 1_555 1_555
H27_2 C13_2 1_555 1_555
H28_2 C13_2 1_555 1_555
C14_2 C13_2 1_555 1_555
H29_2 C14_2 1_555 1_555
C15_2 C14_2 1_555 1_555
H31_2 C15_2 1_555 1_555
H32_2 C15_2 1_555 1_555
C16_2 C11_2 1_555 1_555
H33_2 C16_2 1_555 1_555
H34_2 C16_2 1_555 1_555
Zn7_2 O9_2 1_555 1_555
Zn9_2 O12_2 1_555 1_555
Zn17_2 O11_2 1_555 1_555
P3_2 O8_2 1_555 1_555
N2_2 C9_2 1_555 1_555
N2_2 C10_2 1_555 1_555
C15_2 C16_2 1_555 1_555
P5_2 O13_2 1_555 1_555
O13_2 Zn10_2 1_555 1_555
O14_2 P5_2 1_555 1_555
O15_2 P5_2 1_555 1_555
N3_2 H3_2 1_555 1_555
C17_2 P5_2 1_555 1_555
H35_2 C17_2 1_555 1_555
H36_2 C17_2 1_555 1_555
H38_2 C18_2 1_555 1_555
C19_2 N3_2 1_555 1_555
H39_2 C19_2 1_555 1_555
C20_2 C19_2 1_555 1_555
H40_2 C20_2 1_555 1_555
H41_2 C20_2 1_555 1_555
C21_2 C20_2 1_555 1_555
H42_2 C21_2 1_555 1_555
H43_2 C21_2 1_555 1_555
C22_2 C21_2 1_555 1_555
H44_2 C22_2 1_555 1_555
H45_2 C22_2 1_555 1_555
C23_2 C22_2 1_555 1_555
H46_2 C23_2 1_555 1_555
H47_2 C23_2 1_555 1_555
C24_2 C19_2 1_555 1_555
H48_2 C24_2 1_555 1_555
H49_2 C24_2 1_555 1_555
Zn15_2 O15_2 1_555 1_555
N3_2 C17_2 1_555 1_555
N3_2 C18_2 1_555 1_555
C23_2 C24_2 1_555 1_555
Zn2_2 O2_2 1_555 1_555
Zn3_2 O4_2 1_555 1_555
Zn4_2 O6_2 1_555 1_555
Zn5_2 O3_2 1_555 1_555
Zn6_2 O5_2 1_555 1_555
P1_2 O1_2 1_555 1_555
P2_2 O4_2 1_555 1_555
O2_2 P1_2 1_555 1_555
O3_2 P1_2 1_555 1_555
O5_2 P2_2 1_555 1_555
O6_2 P2_2 1_555 1_555
N1_2 H1_2 1_555 1_555
C1_2 P1_2 1_555 1_555
H5_2 C1_2 1_555 1_555
H6_2 C1_2 1_555 1_555
C2_2 P2_2 1_555 1_555
H7_2 C2_2 1_555 1_555
H8_2 C2_2 1_555 1_555
C3_2 N1_2 1_555 1_555
H9_2 C3_2 1_555 1_555
C4_2 C3_2 1_555 1_555
H10_2 C4_2 1_555 1_555
H11_2 C4_2 1_555 1_555
C5_2 C4_2 1_555 1_555
H12_2 C5_2 1_555 1_555
H13_2 C5_2 1_555 1_555
C6_2 C5_2 1_555 1_555
H14_2 C6_2 1_555 1_555
H15_2 C6_2 1_555 1_555
C7_2 C6_2 1_555 1_555
H16_2 C7_2 1_555 1_555
H17_2 C7_2 1_555 1_555
C8_2 C3_2 1_555 1_555
H18_2 C8_2 1_555 1_555
H19_2 C8_2 1_555 1_555
O26_2 Zn4_2 1_555 1_555
O27_2 Zn6_2 1_555 1_555
O28_2 Zn3_2 1_555 1_555
O29_2 Zn3_2 1_555 1_555
O30_2 Zn4_2 1_555 1_555
O31_2 Zn5_2 1_555 1_555
O32_2 Zn6_2 1_555 1_555
O33_2 Zn6_2 1_555 1_555
O34_2 Zn2_2 1_555 1_555
O35_2 Zn3_2 1_555 1_555
O36_2 Zn4_2 1_555 1_555
O37_2 Zn5_2 1_555 1_555
N1_2 C1_2 1_555 1_555
N1_2 C2_2 1_555 1_555
C7_2 C8_2 1_555 1_555
P6_2 O16_2 1_555 1_555
P7_2 O19_2 1_555 1_555
P8_2 O22_2 1_555 1_555
O16_2 Zn1_2 1_555 1_555
O18_2 P6_2 1_555 1_555
O20_2 P7_2 1_555 1_555
O21_2 P7_2 1_555 1_555
O22_2 Zn11_2 1_555 1_555
O23_2 P8_2 1_555 1_555
O24_2 P8_2 1_555 1_555
N4_2 H4_2 1_555 1_555
C25_2 P7_2 1_555 1_555
H50_2 C25_2 1_555 1_555
H51_2 C25_2 1_555 1_555
C26_2 P8_2 1_555 1_555
H52_2 C26_2 1_555 1_555
H53_2 C26_2 1_555 1_555
C27_2 N4_2 1_555 1_555
H54_2 C27_2 1_555 1_555
C28_2 C27_2 1_555 1_555
H55_2 C28_2 1_555 1_555
H56_2 C28_2 1_555 1_555
C29_2 C28_2 1_555 1_555
H57_2 C29_2 1_555 1_555
H58_2 C29_2 1_555 1_555
C30_2 C29_2 1_555 1_555
H59_2 C30_2 1_555 1_555
H60_2 C30_2 1_555 1_555
C31_2 C30_2 1_555 1_555
H61_2 C31_2 1_555 1_555
H62_2 C31_2 1_555 1_555
C32_2 C27_2 1_555 1_555
H63_2 C32_2 1_555 1_555
H64_2 C32_2 1_555 1_555
Zn8_2 O21_2 1_555 1_555
Zn14_2 O23_2 1_555 1_555
Zn16_2 O24_2 1_555 1_555
Zn18_2 O18_2 1_555 1_555
O25_2 Zn1_2 1_555 1_555
P6_2 O17_2 1_555 1_555
O20_2 Zn18_2 1_555 1_555
N4_2 C25_2 1_555 1_555
N4_2 C26_2 1_555 1_555
C31_2 C32_2 1_555 1_555
Zn1_3 O1_3 1_555 1_555
Zn2_3 O2_3 1_555 1_555
Zn9_2 O4_3 1_555 1_555
Zn12_2 O6_3 1_555 1_555
Zn5_3 O3_3 1_555 1_555
Zn17_2 O5_3 1_555 1_555
P1_3 O1_3 1_555 1_555
P2_3 O4_3 1_555 1_555
P3_3 O7_3 1_555 1_555
P4_3 O26_2 1_555 1_555
P5_3 O13_3 1_555 1_555
P6_3 O16_3 1_555 1_555
P7_3 O19_3 1_555 1_555
P8_3 O22_3 1_555 1_555
O2_3 P1_3 1_555 1_555
O3_3 P1_3 1_555 1_555
O5_3 P2_3 1_555 1_555
O6_3 P2_3 1_555 1_555
O7_3 Zn1_3 1_555 1_555
O8_3 Zn5_3 1_555 1_555
O9_3 P3_3 1_555 1_555
O27_2 P4_3 1_555 1_555
O28_2 P4_3 1_555 1_555
O13_3 Zn11_2 1_555 1_555
O14_3 P5_3 1_555 1_555
O15_3 P5_3 1_555 1_555
O16_3 Zn1_3 1_555 1_555
O17_3 Zn2_3 1_555 1_555
O18_3 P6_3 1_555 1_555
O19_3 Zn2_3 1_555 1_555
O20_3 P7_3 1_555 1_555
O21_3 P7_3 1_555 1_555
O22_3 Zn10_2 1_555 1_555
O24_3 P8_3 1_555 1_555
N1_3 H1_3 1_555 1_555
N2_3 H2_3 1_555 1_555
N3_3 H3_3 1_555 1_555
N4_3 H4_3 1_555 1_555
C1_3 P1_3 1_555 1_555
H5_3 C1_3 1_555 1_555
H6_3 C1_3 1_555 1_555
C2_3 P2_3 1_555 1_555
H7_3 C2_3 1_555 1_555
H8_3 C2_3 1_555 1_555
C3_3 N1_3 1_555 1_555
H9_3 C3_3 1_555 1_555
C4_3 C3_3 1_555 1_555
H10_3 C4_3 1_555 1_555
H11_3 C4_3 1_555 1_555
H17_3 C7_3 1_555 1_555
C8_3 C3_3 1_555 1_555
H18_3 C8_3 1_555 1_555
H19_3 C8_3 1_555 1_555
C9_3 P3_3 1_555 1_555
H20_3 C9_3 1_555 1_555
H21_3 C9_3 1_555 1_555
C10_3 P4_3 1_555 1_555
H22_3 C10_3 1_555 1_555
H23_3 C10_3 1_555 1_555
C11_3 N2_3 1_555 1_555
H24_3 C11_3 1_555 1_555
C12_3 C11_3 1_555 1_555
H25_3 C12_3 1_555 1_555
H26_3 C12_3 1_555 1_555
C13_3 C12_3 1_555 1_555
H27_3 C13_3 1_555 1_555
H28_3 C13_3 1_555 1_555
C14_3 C13_3 1_555 1_555
H29_3 C14_3 1_555 1_555
H30_3 C14_3 1_555 1_555
C15_3 C14_3 1_555 1_555
H31_3 C15_3 1_555 1_555
H32_3 C15_3 1_555 1_555
C16_3 C11_3 1_555 1_555
H33_3 C16_3 1_555 1_555
H34_3 C16_3 1_555 1_555
C17_3 P5_3 1_555 1_555
H35_3 C17_3 1_555 1_555
H36_3 C17_3 1_555 1_555
C18_3 P6_3 1_555 1_555
H37_3 C18_3 1_555 1_555
H38_3 C18_3 1_555 1_555
C19_3 N3_3 1_555 1_555
H39_3 C19_3 1_555 1_555
C20_3 C19_3 1_555 1_555
H40_3 C20_3 1_555 1_555
H41_3 C20_3 1_555 1_555
C21_3 C20_3 1_555 1_555
C22_3 C21_3 1_555 1_555
H44_3 C22_3 1_555 1_555
C23_3 C22_3 1_555 1_555
H46_3 C23_3 1_555 1_555
H47_3 C23_3 1_555 1_555
C24_3 C19_3 1_555 1_555
H48_3 C24_3 1_555 1_555
H49_3 C24_3 1_555 1_555
C25_3 P7_3 1_555 1_555
H50_3 C25_3 1_555 1_555
H51_3 C25_3 1_555 1_555
C26_3 P8_3 1_555 1_555
H53_3 C26_3 1_555 1_555
H55_3 C28_3 1_555 1_555
H56_3 C28_3 1_555 1_555
Zn8_3 O21_3 1_555 1_555
Zn14_2 O14_3 1_555 1_555
Zn16_2 O15_3 1_555 1_555
Zn15_2 O24_3 1_555 1_555
Zn18_3 O18_3 1_555 1_555
O29_3 Zn9_2 1_555 1_555
O31_3 Zn5_3 1_555 1_555
O32_3 Zn17_2 1_555 1_555
O33_3 Zn17_2 1_555 1_555
O34_3 Zn2_3 1_555 1_555
O35_3 Zn9_2 1_555 1_555
O36_3 Zn12_2 1_555 1_555
O37_3 Zn5_3 1_555 1_555
P3_3 O8_3 1_555 1_555
P6_3 O17_3 1_555 1_555
O20_3 Zn18_3 1_555 1_555
N1_3 C1_3 1_555 1_555
N1_3 C2_3 1_555 1_555
N2_3 C9_3 1_555 1_555
N2_3 C10_3 1_555 1_555
N3_3 C17_3 1_555 1_555
N3_3 C18_3 1_555 1_555
N4_3 C25_3 1_555 1_555
N4_3 C26_3 1_555 1_555
C7_3 C8_3 1_555 1_555
C15_3 C16_3 1_555 1_555
C23_3 C24_3 1_555 1_555
H12_3 C5_3 1_555 1_555
H13_3 C5_3 1_555 1_555
C6_3 C5_3 1_555 1_555
H14_3 C6_3 1_555 1_555
H15_3 C6_3 1_555 1_555
H54_3 C27_3 1_555 1_555
H57_3 C29_3 1_555 1_555
H58_3 C29_3 1_555 1_555
C30_3 C29_3 1_555 1_555
H59_3 C30_3 1_555 1_555
H60_3 C30_3 1_555 1_555
C31_3 C30_3 1_555 1_555
H61_3 C31_3 1_555 1_555
H62_3 C31_3 1_555 1_555
C32_3 C27_3 1_555 1_555
H63_3 C32_3 1_555 1_555
H64_3 C32_3 1_555 1_555
Zn13_2 O23_3 1_555 1_555
C31_3 C32_3 1_555 1_555
P3_4 O7_4 1_555 1_555
P4_4 O26 1_555 1_555
P5_4 O13_4 1_555 1_555
O9_4 P3_4 1_555 1_555
O27 P4_4 1_555 1_555
O28 P4_4 1_555 1_555
O13_4 Zn11 1_555 1_555
O14_4 P5_4 1_555 1_555
O15_4 P5_4 1_555 1_555
N2_4 H2_4 1_555 1_555
N3_4 H3_4 1_555 1_555
C9_4 P3_4 1_555 1_555
H20_4 C9_4 1_555 1_555
H21_4 C9_4 1_555 1_555
C10_4 P4_4 1_555 1_555
H22_4 C10_4 1_555 1_555
H23_4 C10_4 1_555 1_555
C11_4 N2_4 1_555 1_555
H24_4 C11_4 1_555 1_555
C12_4 C11_4 1_555 1_555
H25_4 C12_4 1_555 1_555
H26_4 C12_4 1_555 1_555
C13_4 C12_4 1_555 1_555
H27_4 C13_4 1_555 1_555
H28_4 C13_4 1_555 1_555
C14_4 C13_4 1_555 1_555
H29_4 C14_4 1_555 1_555
H30_4 C14_4 1_555 1_555
C15_4 C14_4 1_555 1_555
H31_4 C15_4 1_555 1_555
H32_4 C15_4 1_555 1_555
C16_4 C11_4 1_555 1_555
H33_4 C16_4 1_555 1_555
H34_4 C16_4 1_555 1_555
C17_4 P5_4 1_555 1_555
H35_4 C17_4 1_555 1_555
H36_4 C17_4 1_555 1_555
H38_4 C18_4 1_555 1_555
C19_4 N3_4 1_555 1_555
H39_4 C19_4 1_555 1_555
C20_4 C19_4 1_555 1_555
H40_4 C20_4 1_555 1_555
H41_4 C20_4 1_555 1_555
C21_4 C20_4 1_555 1_555
H42_4 C21_4 1_555 1_555
H43_4 C21_4 1_555 1_555
C22_4 C21_4 1_555 1_555
H44_4 C22_4 1_555 1_555
H45_4 C22_4 1_555 1_555
C23_4 C22_4 1_555 1_555
H46_4 C23_4 1_555 1_555
H47_4 C23_4 1_555 1_555
C24_4 C19_4 1_555 1_555
H48_4 C24_4 1_555 1_555
H49_4 C24_4 1_555 1_555
Zn7_4 O9_4 1_555 1_555
Zn16 O15_4 1_555 1_555
P3_4 O8_4 1_555 1_555
N2_4 C9_4 1_555 1_555
N2_4 C10_4 1_555 1_555
N3_4 C17_4 1_555 1_555
N3_4 C18_4 1_555 1_555
C15_4 C16_4 1_555 1_555
C23_4 C24_4 1_555 1_555
Zn1_4 O1_4 1_555 1_555
Zn2_4 O2_4 1_555 1_555
Zn9 O4_4 1_555 1_555
Zn12 O6_4 1_555 1_555
Zn5_4 O3_4 1_555 1_555
Zn17 O5_4 1_555 1_555
P1_4 O1_4 1_555 1_555
P2_4 O4_4 1_555 1_555
P6_4 O16_4 1_555 1_555
P7_4 O19_4 1_555 1_555
P8_4 O22_4 1_555 1_555
O2_4 P1_4 1_555 1_555
O3_4 P1_4 1_555 1_555
O5_4 P2_4 1_555 1_555
O6_4 P2_4 1_555 1_555
O16_4 Zn1_4 1_555 1_555
O17_4 Zn2_4 1_555 1_555
O18_4 P6_4 1_555 1_555
O19_4 Zn2_4 1_555 1_555
O20_4 P7_4 1_555 1_555
O21_4 P7_4 1_555 1_555
O22_4 Zn10 1_555 1_555
O23_4 P8_4 1_555 1_555
O24_4 P8_4 1_555 1_555
N1_4 H1_4 1_555 1_555
N4_4 H4_4 1_555 1_555
C1_4 P1_4 1_555 1_555
H5_4 C1_4 1_555 1_555
H6_4 C1_4 1_555 1_555
C2_4 P2_4 1_555 1_555
H7_4 C2_4 1_555 1_555
H8_4 C2_4 1_555 1_555
C3_4 N1_4 1_555 1_555
H9_4 C3_4 1_555 1_555
C4_4 C3_4 1_555 1_555
H10_4 C4_4 1_555 1_555
H11_4 C4_4 1_555 1_555
C5_4 C4_4 1_555 1_555
H12_4 C5_4 1_555 1_555
H13_4 C5_4 1_555 1_555
C6_4 C5_4 1_555 1_555
H14_4 C6_4 1_555 1_555
H15_4 C6_4 1_555 1_555
C7_4 C6_4 1_555 1_555
H16_4 C7_4 1_555 1_555
H17_4 C7_4 1_555 1_555
C8_4 C3_4 1_555 1_555
H18_4 C8_4 1_555 1_555
H19_4 C8_4 1_555 1_555
C25_4 P7_4 1_555 1_555
H50_4 C25_4 1_555 1_555
H51_4 C25_4 1_555 1_555
C26_4 P8_4 1_555 1_555
H52_4 C26_4 1_555 1_555
H53_4 C26_4 1_555 1_555
C27_4 N4_4 1_555 1_555
H54_4 C27_4 1_555 1_555
C28_4 C27_4 1_555 1_555
H55_4 C28_4 1_555 1_555
H56_4 C28_4 1_555 1_555
C29_4 C28_4 1_555 1_555
H57_4 C29_4 1_555 1_555
H58_4 C29_4 1_555 1_555
C30_4 C29_4 1_555 1_555
H59_4 C30_4 1_555 1_555
H60_4 C30_4 1_555 1_555
C31_4 C30_4 1_555 1_555
H61_4 C31_4 1_555 1_555
H62_4 C31_4 1_555 1_555
C32_4 C27_4 1_555 1_555
H63_4 C32_4 1_555 1_555
H64_4 C32_4 1_555 1_555
Zn8_4 O21_4 1_555 1_555
Zn13 O23_4 1_555 1_555
Zn15 O24_4 1_555 1_555
Zn18_4 O18_4 1_555 1_555
O25_4 Zn1_4 1_555 1_555
O29_4 Zn9 1_555 1_555
O30_4 Zn12 1_555 1_555
O31_4 Zn5_4 1_555 1_555
O32_4 Zn17 1_555 1_555
O33_4 Zn17 1_555 1_555
O34_4 Zn2_4 1_555 1_555
O35_4 Zn9 1_555 1_555
O36_4 Zn12 1_555 1_555
O37_4 Zn5_4 1_555 1_555
P6_4 O17_4 1_555 1_555
O20_4 Zn18_4 1_555 1_555
N1_4 C1_4 1_555 1_555
N1_4 C2_4 1_555 1_555
N4_4 C25_4 1_555 1_555
N4_4 C26_4 1_555 1_555
C7_4 C8_4 1_555 1_555
C31_4 C32_4 1_555 1_555
H54_5 C27_5 1_555 1_555
H57_5 C29_5 1_555 1_555
H58_5 C29_5 1_555 1_555
C30_5 C29_5 1_555 1_555
H59_5 C30_5 1_555 1_555
H60_5 C30_5 1_555 1_555
C31_5 C30_5 1_555 1_555
H61_5 C31_5 1_555 1_555
H62_5 C31_5 1_555 1_555
C32_5 C27_5 1_555 1_555
H63_5 C32_5 1_555 1_555
H64_5 C32_5 1_555 1_555
C31_5 C32_5 1_555 1_555
H12_5 C5_5 1_555 1_555
H13_5 C5_5 1_555 1_555
C6_5 C5_5 1_555 1_555
H14_5 C6_5 1_555 1_555
H15_5 C6_5 1_555 1_555
P5_5 O29_3 1_555 1_555
P6_5 O16_5 1_555 1_555
P7_5 O19_5 1_555 1_555
P8_5 O35_2 1_555 1_555
O30_2 P5_5 1_555 1_555
O31_3 P5_5 1_555 1_555
O16_5 Zn7 1_555 1_555
O32_2 P6_5 1_555 1_555
O33_2 P7_5 1_555 1_555
O34_2 P7_5 1_555 1_555
O37_2 P8_5 1_555 1_555
N3_5 H3_5 1_555 1_555
N4_5 H4_5 1_555 1_555
C17_5 P5_5 1_555 1_555
H35_5 C17_5 1_555 1_555
H36_5 C17_5 1_555 1_555
C18_5 P6_5 1_555 1_555
H37_5 C18_5 1_555 1_555
H38_5 C18_5 1_555 1_555
C19_5 N3_5 1_555 1_555
H39_5 C19_5 1_555 1_555
C20_5 C19_5 1_555 1_555
H40_5 C20_5 1_555 1_555
H41_5 C20_5 1_555 1_555
C21_5 C20_5 1_555 1_555
C22_5 C21_5 1_555 1_555
H44_5 C22_5 1_555 1_555
C23_5 C22_5 1_555 1_555
H46_5 C23_5 1_555 1_555
H47_5 C23_5 1_555 1_555
C24_5 C19_5 1_555 1_555
H48_5 C24_5 1_555 1_555
H49_5 C24_5 1_555 1_555
C25_5 P7_5 1_555 1_555
H50_5 C25_5 1_555 1_555
H51_5 C25_5 1_555 1_555
C26_5 P8_5 1_555 1_555
H53_5 C26_5 1_555 1_555
H55_5 C28_5 1_555 1_555
H56_5 C28_5 1_555 1_555
P6_5 O17_5 1_555 1_555
N3_5 C17_5 1_555 1_555
N3_5 C18_5 1_555 1_555
N4_5 C25_5 1_555 1_555
N4_5 C26_5 1_555 1_555
C23_5 C24_5 1_555 1_555
Zn8_2 O2_5 1_555 1_555
Zn11_2 O4_5 1_555 1_555
Zn13_2 O6_5 1_555 1_555
Zn16_2 O3_5 1_555 1_555
Zn18_2 O5_5 1_555 1_555
P1_5 O1_5 1_555 1_555
P2_5 O4_5 1_555 1_555
P3_5 O7_5 1_555 1_555
P4_5 O10_3 1_555 1_555
O2_5 P1_5 1_555 1_555
O3_5 P1_5 1_555 1_555
O5_5 P2_5 1_555 1_555
O6_5 P2_5 1_555 1_555
O8_5 Zn16_2 1_555 1_555
O25 P3_5 1_555 1_555
O10_3 Zn14_2 1_555 1_555
O11_3 P4_5 1_555 1_555
O12_3 P4_5 1_555 1_555
N1_5 H1_5 1_555 1_555
N2_5 H2_5 1_555 1_555
C1_5 P1_5 1_555 1_555
H5_5 C1_5 1_555 1_555
H6_5 C1_5 1_555 1_555
C2_5 P2_5 1_555 1_555
H7_5 C2_5 1_555 1_555
H8_5 C2_5 1_555 1_555
C3_5 N1_5 1_555 1_555
H9_5 C3_5 1_555 1_555
C4_5 C3_5 1_555 1_555
H10_5 C4_5 1_555 1_555
H11_5 C4_5 1_555 1_555
H17_5 C7_5 1_555 1_555
C8_5 C3_5 1_555 1_555
H18_5 C8_5 1_555 1_555
H19_5 C8_5 1_555 1_555
C9_5 P3_5 1_555 1_555
H20_5 C9_5 1_555 1_555
H21_5 C9_5 1_555 1_555
C10_5 P4_5 1_555 1_555
H22_5 C10_5 1_555 1_555
H23_5 C10_5 1_555 1_555
C11_5 N2_5 1_555 1_555
H24_5 C11_5 1_555 1_555
C12_5 C11_5 1_555 1_555
H25_5 C12_5 1_555 1_555
H26_5 C12_5 1_555 1_555
C13_5 C12_5 1_555 1_555
H27_5 C13_5 1_555 1_555
H28_5 C13_5 1_555 1_555
C14_5 C13_5 1_555 1_555
H29_5 C14_5 1_555 1_555
C15_5 C14_5 1_555 1_555
H31_5 C15_5 1_555 1_555
H32_5 C15_5 1_555 1_555
C16_5 C11_5 1_555 1_555
H33_5 C16_5 1_555 1_555
H34_5 C16_5 1_555 1_555
Zn10_2 O12_3 1_555 1_555
Zn18_3 O11_3 1_555 1_555
O26_3 Zn13_2 1_555 1_555
O27_3 Zn18_2 1_555 1_555
O28_3 Zn11_2 1_555 1_555
P3_5 O8_5 1_555 1_555
N1_5 C1_5 1_555 1_555
N1_5 C2_5 1_555 1_555
N2_5 C9_5 1_555 1_555
N2_5 C10_5 1_555 1_555
C7_5 C8_5 1_555 1_555
C15_5 C16_5 1_555 1_555
P6_6 O16_6 1_555 1_555
P7_6 O19_6 1_555 1_555
P8_6 O35 1_555 1_555
O16_6 Zn7_2 1_555 1_555
O32 P6_6 1_555 1_555
O33 P7_6 1_555 1_555
O34 P7_6 1_555 1_555
O36_4 P8_6 1_555 1_555
O37 P8_6 1_555 1_555
N4_6 H4_6 1_555 1_555
C25_6 P7_6 1_555 1_555
H50_6 C25_6 1_555 1_555
H51_6 C25_6 1_555 1_555
C26_6 P8_6 1_555 1_555
H52_6 C26_6 1_555 1_555
H53_6 C26_6 1_555 1_555
C27_6 N4_6 1_555 1_555
H54_6 C27_6 1_555 1_555
C28_6 C27_6 1_555 1_555
H55_6 C28_6 1_555 1_555
H56_6 C28_6 1_555 1_555
C29_6 C28_6 1_555 1_555
H57_6 C29_6 1_555 1_555
H58_6 C29_6 1_555 1_555
C30_6 C29_6 1_555 1_555
H59_6 C30_6 1_555 1_555
H60_6 C30_6 1_555 1_555
C31_6 C30_6 1_555 1_555
H61_6 C31_6 1_555 1_555
H62_6 C31_6 1_555 1_555
C32_6 C27_6 1_555 1_555
H63_6 C32_6 1_555 1_555
H64_6 C32_6 1_555 1_555
P6_6 O17_6 1_555 1_555
N4_6 C25_6 1_555 1_555
N4_6 C26_6 1_555 1_555
C31_6 C32_6 1_555 1_555
Zn8 O2_6 1_555 1_555
Zn11 O4_6 1_555 1_555
Zn13 O6_6 1_555 1_555
Zn16 O3_6 1_555 1_555
Zn18 O5_6 1_555 1_555
P1_6 O1_6 1_555 1_555
P2_6 O4_6 1_555 1_555
O2_6 P1_6 1_555 1_555
O3_6 P1_6 1_555 1_555
O5_6 P2_6 1_555 1_555
O6_6 P2_6 1_555 1_555
N1_6 H1_6 1_555 1_555
C1_6 P1_6 1_555 1_555
H5_6 C1_6 1_555 1_555
H6_6 C1_6 1_555 1_555
C2_6 P2_6 1_555 1_555
H7_6 C2_6 1_555 1_555
H8_6 C2_6 1_555 1_555
C3_6 N1_6 1_555 1_555
H9_6 C3_6 1_555 1_555
C4_6 C3_6 1_555 1_555
H10_6 C4_6 1_555 1_555
H11_6 C4_6 1_555 1_555
C5_6 C4_6 1_555 1_555
H12_6 C5_6 1_555 1_555
H13_6 C5_6 1_555 1_555
C6_6 C5_6 1_555 1_555
H14_6 C6_6 1_555 1_555
H15_6 C6_6 1_555 1_555
C7_6 C6_6 1_555 1_555
H16_6 C7_6 1_555 1_555
H17_6 C7_6 1_555 1_555
C8_6 C3_6 1_555 1_555
H18_6 C8_6 1_555 1_555
H19_6 C8_6 1_555 1_555
O26_4 Zn13 1_555 1_555
O27_4 Zn18 1_555 1_555
O28_4 Zn11 1_555 1_555
N1_6 C1_6 1_555 1_555
N1_6 C2_6 1_555 1_555
C7_6 C8_6 1_555 1_555
P5_6 O29_4 1_555 1_555
O30 P5_6 1_555 1_555
O31_4 P5_6 1_555 1_555
N3_6 H3_6 1_555 1_555
C17_6 P5_6 1_555 1_555
H35_6 C17_6 1_555 1_555
H36_6 C17_6 1_555 1_555
H38_6 C18_6 1_555 1_555
C19_6 N3_6 1_555 1_555
H39_6 C19_6 1_555 1_555
C20_6 C19_6 1_555 1_555
H40_6 C20_6 1_555 1_555
H41_6 C20_6 1_555 1_555
C21_6 C20_6 1_555 1_555
H42_6 C21_6 1_555 1_555
H43_6 C21_6 1_555 1_555
C22_6 C21_6 1_555 1_555
H44_6 C22_6 1_555 1_555
H45_6 C22_6 1_555 1_555
C23_6 C22_6 1_555 1_555
H46_6 C23_6 1_555 1_555
H47_6 C23_6 1_555 1_555
C24_6 C19_6 1_555 1_555
H48_6 C24_6 1_555 1_555
H49_6 C24_6 1_555 1_555
N3_6 C17_6 1_555 1_555
N3_6 C18_6 1_555 1_555
C23_6 C24_6 1_555 1_555
P3_6 O7_6 1_555 1_555
P4_6 O10_4 1_555 1_555
O25_2 P3_6 1_555 1_555
O10_4 Zn14 1_555 1_555
O11_4 P4_6 1_555 1_555
O12_4 P4_6 1_555 1_555
N2_6 H2_6 1_555 1_555
C9_6 P3_6 1_555 1_555
H20_6 C9_6 1_555 1_555
H21_6 C9_6 1_555 1_555
C10_6 P4_6 1_555 1_555
H22_6 C10_6 1_555 1_555
H23_6 C10_6 1_555 1_555
C11_6 N2_6 1_555 1_555
H24_6 C11_6 1_555 1_555
C12_6 C11_6 1_555 1_555
H25_6 C12_6 1_555 1_555
H26_6 C12_6 1_555 1_555
C13_6 C12_6 1_555 1_555
H27_6 C13_6 1_555 1_555
H28_6 C13_6 1_555 1_555
C14_6 C13_6 1_555 1_555
H29_6 C14_6 1_555 1_555
C15_6 C14_6 1_555 1_555
H31_6 C15_6 1_555 1_555
H32_6 C15_6 1_555 1_555
C16_6 C11_6 1_555 1_555
H33_6 C16_6 1_555 1_555
H34_6 C16_6 1_555 1_555
Zn10 O12_4 1_555 1_555
Zn18_4 O11_4 1_555 1_555
P3_6 O8_6 1_555 1_555
N2_6 C9_6 1_555 1_555
N2_6 C10_6 1_555 1_555
C15_6 C16_6 1_555 1_555
H12_7 C5_7 1_555 1_555
H13_7 C5_7 1_555 1_555
C6_7 C5_7 1_555 1_555
H14_7 C6_7 1_555 1_555
H15_7 C6_7 1_555 1_555
H54_7 C27_7 1_555 1_555
H57_7 C29_7 1_555 1_555
H58_7 C29_7 1_555 1_555
C30_7 C29_7 1_555 1_555
H59_7 C30_7 1_555 1_555
H60_7 C30_7 1_555 1_555
C31_7 C30_7 1_555 1_555
H61_7 C31_7 1_555 1_555
H62_7 C31_7 1_555 1_555
C32_7 C27_7 1_555 1_555
H63_7 C32_7 1_555 1_555
H64_7 C32_7 1_555 1_555
C31_7 C32_7 1_555 1_555
Zn7_3 O1_7 1_555 1_555
Zn8_4 O2_7 1_555 1_555
Zn10 O4_7 1_555 1_555
Zn14 O6_7 1_555 1_555
Zn15 O3_7 1_555 1_555
Zn18_4 O5_7 1_555 1_555
P1_7 O1_7 1_555 1_555
P2_7 O4_7 1_555 1_555
P3_7 O7_7 1_555 1_555
P4_7 O26_4 1_555 1_555
P5_7 O29 1_555 1_555
P6_7 O16_7 1_555 1_555
P7_7 O19_7 1_555 1_555
P8_7 O35_4 1_555 1_555
O2_7 P1_7 1_555 1_555
O3_7 P1_7 1_555 1_555
O5_7 P2_7 1_555 1_555
O6_7 P2_7 1_555 1_555
O7_7 Zn7_3 1_555 1_555
O8_7 Zn15 1_555 1_555
O25_3 P3_7 1_555 1_555
O27_4 P4_7 1_555 1_555
O28_4 P4_7 1_555 1_555
O30_4 P5_7 1_555 1_555
O31 P5_7 1_555 1_555
O16_7 Zn7_3 1_555 1_555
O17_7 Zn8_4 1_555 1_555
O32_4 P6_7 1_555 1_555
O19_7 Zn8_4 1_555 1_555
O33_4 P7_7 1_555 1_555
O34_4 P7_7 1_555 1_555
O37_4 P8_7 1_555 1_555
N1_7 H1_7 1_555 1_555
N2_7 H2_7 1_555 1_555
N3_7 H3_7 1_555 1_555
N4_7 H4_7 1_555 1_555
C1_7 P1_7 1_555 1_555
H5_7 C1_7 1_555 1_555
H6_7 C1_7 1_555 1_555
C2_7 P2_7 1_555 1_555
H7_7 C2_7 1_555 1_555
H8_7 C2_7 1_555 1_555
C3_7 N1_7 1_555 1_555
H9_7 C3_7 1_555 1_555
C4_7 C3_7 1_555 1_555
H10_7 C4_7 1_555 1_555
H11_7 C4_7 1_555 1_555
H17_7 C7_7 1_555 1_555
C8_7 C3_7 1_555 1_555
H18_7 C8_7 1_555 1_555
H19_7 C8_7 1_555 1_555
C9_7 P3_7 1_555 1_555
H20_7 C9_7 1_555 1_555
H21_7 C9_7 1_555 1_555
C10_7 P4_7 1_555 1_555
H22_7 C10_7 1_555 1_555
H23_7 C10_7 1_555 1_555
C11_7 N2_7 1_555 1_555
H24_7 C11_7 1_555 1_555
C12_7 C11_7 1_555 1_555
H25_7 C12_7 1_555 1_555
H26_7 C12_7 1_555 1_555
C13_7 C12_7 1_555 1_555
H27_7 C13_7 1_555 1_555
H28_7 C13_7 1_555 1_555
C14_7 C13_7 1_555 1_555
H29_7 C14_7 1_555 1_555
H30_7 C14_7 1_555 1_555
C15_7 C14_7 1_555 1_555
H31_7 C15_7 1_555 1_555
H32_7 C15_7 1_555 1_555
C16_7 C11_7 1_555 1_555
H33_7 C16_7 1_555 1_555
H34_7 C16_7 1_555 1_555
C17_7 P5_7 1_555 1_555
H35_7 C17_7 1_555 1_555
H36_7 C17_7 1_555 1_555
C18_7 P6_7 1_555 1_555
H37_7 C18_7 1_555 1_555
H38_7 C18_7 1_555 1_555
C19_7 N3_7 1_555 1_555
H39_7 C19_7 1_555 1_555
C20_7 C19_7 1_555 1_555
H40_7 C20_7 1_555 1_555
H41_7 C20_7 1_555 1_555
C21_7 C20_7 1_555 1_555
C22_7 C21_7 1_555 1_555
H44_7 C22_7 1_555 1_555
C23_7 C22_7 1_555 1_555
H46_7 C23_7 1_555 1_555
H47_7 C23_7 1_555 1_555
C24_7 C19_7 1_555 1_555
H48_7 C24_7 1_555 1_555
H49_7 C24_7 1_555 1_555
C25_7 P7_7 1_555 1_555
H50_7 C25_7 1_555 1_555
H51_7 C25_7 1_555 1_555
C26_7 P8_7 1_555 1_555
H53_7 C26_7 1_555 1_555
H55_7 C28_7 1_555 1_555
H56_7 C28_7 1_555 1_555
P3_7 O8_7 1_555 1_555
P6_7 O17_7 1_555 1_555
N1_7 C1_7 1_555 1_555
N1_7 C2_7 1_555 1_555
N2_7 C9_7 1_555 1_555
N2_7 C10_7 1_555 1_555
N3_7 C17_7 1_555 1_555
N3_7 C18_7 1_555 1_555
N4_7 C25_7 1_555 1_555
N4_7 C26_7 1_555 1_555
C7_7 C8_7 1_555 1_555
C15_7 C16_7 1_555 1_555
C23_7 C24_7 1_555 1_555
Zn7_4 O1_8 1_555 1_555
Zn8_3 O2_8 1_555 1_555
Zn10_2 O4_8 1_555 1_555
Zn14_2 O6_8 1_555 1_555
Zn15_2 O3_8 1_555 1_555
Zn18_3 O5_8 1_555 1_555
P1_8 O1_8 1_555 1_555
P2_8 O4_8 1_555 1_555
P6_8 O16_8 1_555 1_555
P7_8 O19_8 1_555 1_555
P8_8 O35_3 1_555 1_555
O2_8 P1_8 1_555 1_555
O3_8 P1_8 1_555 1_555
O5_8 P2_8 1_555 1_555
O6_8 P2_8 1_555 1_555
O16_8 Zn7_4 1_555 1_555
O17_8 Zn8_3 1_555 1_555
O32_3 P6_8 1_555 1_555
O19_8 Zn8_3 1_555 1_555
O33_3 P7_8 1_555 1_555
O34_3 P7_8 1_555 1_555
O36_2 P8_8 1_555 1_555
O37_3 P8_8 1_555 1_555
N1_8 H1_8 1_555 1_555
N4_8 H4_8 1_555 1_555
C1_8 P1_8 1_555 1_555
H5_8 C1_8 1_555 1_555
H6_8 C1_8 1_555 1_555
C2_8 P2_8 1_555 1_555
H7_8 C2_8 1_555 1_555
H8_8 C2_8 1_555 1_555
C3_8 N1_8 1_555 1_555
H9_8 C3_8 1_555 1_555
C4_8 C3_8 1_555 1_555
H10_8 C4_8 1_555 1_555
H11_8 C4_8 1_555 1_555
C5_8 C4_8 1_555 1_555
H12_8 C5_8 1_555 1_555
H13_8 C5_8 1_555 1_555
C6_8 C5_8 1_555 1_555
H14_8 C6_8 1_555 1_555
H15_8 C6_8 1_555 1_555
C7_8 C6_8 1_555 1_555
H16_8 C7_8 1_555 1_555
H17_8 C7_8 1_555 1_555
C8_8 C3_8 1_555 1_555
H18_8 C8_8 1_555 1_555
H19_8 C8_8 1_555 1_555
C25_8 P7_8 1_555 1_555
H50_8 C25_8 1_555 1_555
H51_8 C25_8 1_555 1_555
C26_8 P8_8 1_555 1_555
H52_8 C26_8 1_555 1_555
H53_8 C26_8 1_555 1_555
C27_8 N4_8 1_555 1_555
H54_8 C27_8 1_555 1_555
C28_8 C27_8 1_555 1_555
H55_8 C28_8 1_555 1_555
H56_8 C28_8 1_555 1_555
C29_8 C28_8 1_555 1_555
H57_8 C29_8 1_555 1_555
H58_8 C29_8 1_555 1_555
C30_8 C29_8 1_555 1_555
H59_8 C30_8 1_555 1_555
H60_8 C30_8 1_555 1_555
C31_8 C30_8 1_555 1_555
H61_8 C31_8 1_555 1_555
H62_8 C31_8 1_555 1_555
C32_8 C27_8 1_555 1_555
H63_8 C32_8 1_555 1_555
H64_8 C32_8 1_555 1_555
P6_8 O17_8 1_555 1_555
N1_8 C1_8 1_555 1_555
N1_8 C2_8 1_555 1_555
N4_8 C25_8 1_555 1_555
N4_8 C26_8 1_555 1_555
C7_8 C8_8 1_555 1_555
C31_8 C32_8 1_555 1_555
P3_8 O7_8 1_555 1_555
P4_8 O26_3 1_555 1_555
P5_8 O29_2 1_555 1_555
O25_4 P3_8 1_555 1_555
O27_3 P4_8 1_555 1_555
O28_3 P4_8 1_555 1_555
O30_3 P5_8 1_555 1_555
O31_2 P5_8 1_555 1_555
N2_8 H2_8 1_555 1_555
N3_8 H3_8 1_555 1_555
C9_8 P3_8 1_555 1_555
H20_8 C9_8 1_555 1_555
H21_8 C9_8 1_555 1_555
C10_8 P4_8 1_555 1_555
H22_8 C10_8 1_555 1_555
H23_8 C10_8 1_555 1_555
C11_8 N2_8 1_555 1_555
H24_8 C11_8 1_555 1_555
C12_8 C11_8 1_555 1_555
H25_8 C12_8 1_555 1_555
H26_8 C12_8 1_555 1_555
C13_8 C12_8 1_555 1_555
H27_8 C13_8 1_555 1_555
H28_8 C13_8 1_555 1_555
C14_8 C13_8 1_555 1_555
H29_8 C14_8 1_555 1_555
H30_8 C14_8 1_555 1_555
C15_8 C14_8 1_555 1_555
H31_8 C15_8 1_555 1_555
H32_8 C15_8 1_555 1_555
C16_8 C11_8 1_555 1_555
H33_8 C16_8 1_555 1_555
H34_8 C16_8 1_555 1_555
C17_8 P5_8 1_555 1_555
H35_8 C17_8 1_555 1_555
H36_8 C17_8 1_555 1_555
H38_8 C18_8 1_555 1_555
C19_8 N3_8 1_555 1_555
H39_8 C19_8 1_555 1_555
C20_8 C19_8 1_555 1_555
H40_8 C20_8 1_555 1_555
H41_8 C20_8 1_555 1_555
C21_8 C20_8 1_555 1_555
H42_8 C21_8 1_555 1_555
H43_8 C21_8 1_555 1_555
C22_8 C21_8 1_555 1_555
H44_8 C22_8 1_555 1_555
H45_8 C22_8 1_555 1_555
C23_8 C22_8 1_555 1_555
H46_8 C23_8 1_555 1_555
H47_8 C23_8 1_555 1_555
C24_8 C19_8 1_555 1_555
H48_8 C24_8 1_555 1_555
H49_8 C24_8 1_555 1_555
P3_8 O8_8 1_555 1_555
N2_8 C9_8 1_555 1_555
N2_8 C10_8 1_555 1_555
N3_8 C17_8 1_555 1_555
N3_8 C18_8 1_555 1_555
C15_8 C16_8 1_555 1_555
C23_8 C24_8 1_555 1_555

#END
