
###############################################################################
#
# This file contains modified crystal structure data generated from the
# MOF subset of the Cambridge Structural Database (CSD) v543 
# hosted by the Cambridge Crystallographic Data Centre (CCDC).
#
# This work is licensed under the Creative Commons
# Attribution-NonCommercial-ShareAlike 4.0 International License.
# To view a copy of this license, visit
# http://creativecommons.org/licenses/by-nc-sa/4.0/
# or send a letter to
# Creative Commons, PO Box 1866, Mountain View, CA 94042, USA.
#
# CIF created using the CSD Python API on 29 September 2022
# The structure has been converted into the P1 space group
# The structure has a 3D framework
# The original CSD entry TOCJEC is in the cubic crystal system
# The framework has been calculated to contain at least 10.0% void space
# The void calculation uses a probe of radius 1.32A, grid spacing 0.4
#
###############################################################################

data_TOCJEC
_chemical_formula_moiety         '(C2496 H1536 N768 O648 Zn192)n'
_symmetry_cell_setting           triclinic
_symmetry_space_group_name_H-M   'P 1'
_symmetry_Int_Tables_number      1
_space_group_name_Hall           'P 1'
loop_
_symmetry_equiv_pos_site_id
_symmetry_equiv_pos_as_xyz
1 x,y,z
_cell_length_a                   75.2379(13)
_cell_length_b                   75.2379(13)
_cell_length_c                   75.2379(13)
_cell_angle_alpha                90
_cell_angle_beta                 90
_cell_angle_gamma                90
_cell_volume                     425902
loop_
_atom_site_label
_atom_site_type_symbol
_atom_site_fract_x
_atom_site_fract_y
_atom_site_fract_z
O1 O 0.4616(4) 0.6734(4) 0.4023(3)
C1 C 0.4490(5) 0.6815(4) 0.3954(4)
O2 O 0.4541(4) 0.6915(3) 0.3833(4)
C2 C 0.4317(5) 0.6777(7) 0.4009(7)
C3 C 0.4297(7) 0.6659(6) 0.4140(6)
H1 H 0.4395 0.6602 0.4190
C4 C 0.4120(10) 0.6624(5) 0.4201(5)
H2 H 0.4098 0.6553 0.4300
C5 C 0.3986(6) 0.6699(8) 0.4109(8)
C6 C 0.4006(7) 0.6823(6) 0.3985(6)
H3 H 0.3909 0.6883 0.3938
C7 C 0.4185(9) 0.6862(4) 0.3928(4)
H4 H 0.4208 0.6944 0.3837
N1 N 0.3818(5) 0.6644(6) 0.4176(6)
O3 O 0.5537(4) 0.5366(5) 0.2706(4)
C8 C 0.5608(5) 0.5507(5) 0.2758(5)
O4 O 0.5774(4) 0.5509(3) 0.2738(3)
C9 C 0.5536(11) 0.5650(7) 0.2851(5)
C10 C 0.5357(11) 0.5631(6) 0.2877(6)
H5 H 0.5299 0.5529 0.2836
C11 C 0.5261(5) 0.5760(11) 0.2964(7)
H6 H 0.5139 0.5747 0.2981
C12 C 0.5346(11) 0.5910(8) 0.3026(4)
C13 C 0.5525(11) 0.5929(6) 0.3001(6)
H7 H 0.5583 0.6030 0.3043
C14 C 0.5620(4) 0.5801(11) 0.2912(7)
H8 H 0.5741 0.5816 0.2894
N2 N 0.5210(8) 0.6113(6) 0.3176(6)
O5 O 0.4925(4) 0.6754(4) 0.3653(4)
C15 C 0.4871(5) 0.6652(5) 0.3532(5)
O6 O 0.4706(5) 0.6671(4) 0.3522(4)
C16 C 0.4946(11) 0.6508(5) 0.3443(6)
C17 C 0.5122(11) 0.6488(7) 0.3463(5)
H9 H 0.5184 0.6563 0.3539
C18 C 0.5208(4) 0.6360(10) 0.3374(9)
H10 H 0.5330 0.6346 0.3389
C19 C 0.5119(12) 0.6252(6) 0.3264(7)
C20 C 0.4942(11) 0.6270(7) 0.3247(5)
H11 H 0.4879 0.6192 0.3174
C21 C 0.4857(4) 0.6398(10) 0.3334(9)
H12 H 0.4735 0.6412 0.3320
N3 N 0.5275(9) 0.6057(7) 0.3119(6)
C22 C 0.52165(19) 0.72012(15) 0.39708(17)
N4 N 0.5385(2) 0.7269(2) 0.3966(2)
C23 C 0.5383(3) 0.7383(2) 0.4098(3)
H13 H 0.5482 0.7451 0.4127
N5 N 0.5233(4) 0.7396(2) 0.4188(2)
C24 C 0.5126(3) 0.72787(18) 0.41067(17)
N6 N 0.4959(3) 0.7241(3) 0.4153(2)
C25 C 0.4890(2) 0.7118(3) 0.4052(3)
H14 H 0.4774 0.7085 0.4080
N7 N 0.4962(2) 0.7035(2) 0.3918(3)
C26 C 0.5129(2) 0.70742(16) 0.38721(19)
N8 N 0.5198(3) 0.6989(2) 0.3736(2)
H15 H 0.5136 0.6911 0.3680
H16 H 0.5306 0.7011 0.3704
Zn1 Zn 0.47706(8) 0.69225(8) 0.37470(9)
Zn2 Zn 0.48137(9) 0.74071(9) 0.43422(10)
O7 O 0.5000 0.7500 0.4488(5)
O8 O 0.2884(4) 0.6523(3) 0.4234(4)
C27 C 0.3010(5) 0.6454(4) 0.4315(4)
O9 O 0.2959(4) 0.6333(4) 0.4415(3)
C28 C 0.3183(5) 0.6509(7) 0.4277(7)
C29 C 0.3203(7) 0.6640(6) 0.4159(6)
H17 H 0.3105 0.6690 0.4102
C30 C 0.3380(10) 0.6701(5) 0.4124(5)
H18 H 0.3402 0.6800 0.4053
C31 C 0.3514(6) 0.6609(8) 0.4199(8)
C32 C 0.3494(7) 0.6485(6) 0.4323(6)
H19 H 0.3591 0.6438 0.4383
C33 C 0.3315(9) 0.6428(4) 0.4362(4)
H20 H 0.3292 0.6337 0.4444
N9 N 0.3682(5) 0.6676(6) 0.4144(6)
O10 O 0.4463(4) 0.9634(5) 0.2706(4)
C34 C 0.4392(5) 0.9493(5) 0.2758(5)
O11 O 0.4226(4) 0.9491(3) 0.2738(3)
C35 C 0.4464(11) 0.9350(7) 0.2851(5)
C36 C 0.4643(11) 0.9369(6) 0.2877(6)
H21 H 0.4701 0.9471 0.2836
C37 C 0.4739(5) 0.9240(11) 0.2964(7)
H22 H 0.4861 0.9253 0.2981
C38 C 0.4654(11) 0.9090(8) 0.3026(4)
C39 C 0.4475(11) 0.9071(6) 0.3001(6)
H23 H 0.4417 0.8970 0.3043
C40 C 0.4380(4) 0.9199(11) 0.2912(7)
H24 H 0.4259 0.9184 0.2894
N10 N 0.4790(8) 0.8887(6) 0.3176(6)
O12 O 0.5075(4) 0.8246(4) 0.3653(4)
C41 C 0.5129(5) 0.8348(5) 0.3532(5)
O13 O 0.5294(5) 0.8329(4) 0.3522(4)
C42 C 0.5054(11) 0.8492(5) 0.3443(6)
C43 C 0.4878(11) 0.8512(7) 0.3463(5)
H25 H 0.4816 0.8437 0.3539
C44 C 0.4792(4) 0.8640(10) 0.3374(9)
H26 H 0.4670 0.8654 0.3389
C45 C 0.4881(12) 0.8748(6) 0.3264(7)
C46 C 0.5058(11) 0.8730(7) 0.3247(5)
H27 H 0.5121 0.8808 0.3174
C47 C 0.5143(4) 0.8602(10) 0.3334(9)
H28 H 0.5265 0.8588 0.3320
N11 N 0.4725(9) 0.8943(7) 0.3119(6)
C48 C 0.47835(19) 0.77988(15) 0.39708(17)
N12 N 0.4615(2) 0.7731(2) 0.3966(2)
C49 C 0.4617(3) 0.7617(2) 0.4098(3)
H29 H 0.4518 0.7549 0.4127
N13 N 0.4767(4) 0.7604(2) 0.4188(2)
C50 C 0.4874(3) 0.77213(18) 0.41067(17)
N14 N 0.5041(3) 0.7759(3) 0.4153(2)
C51 C 0.5110(2) 0.7882(3) 0.4052(3)
H30 H 0.5226 0.7915 0.4080
N15 N 0.5038(2) 0.7965(2) 0.3918(3)
C52 C 0.4871(2) 0.79258(16) 0.38721(19)
N16 N 0.4802(3) 0.8011(2) 0.3736(2)
H31 H 0.4864 0.8089 0.3680
H32 H 0.4694 0.7989 0.3704
Zn3 Zn 0.52294(8) 0.80775(8) 0.37470(9)
Zn4 Zn 0.51863(9) 0.75929(9) 0.43422(10)
O14 O 0.5459(4) 0.8085(3) 0.3833(4)
O15 O 0.4634(5) 0.7294(4) 0.4463(4)
O16 O 0.5366(5) 0.7706(4) 0.4463(4)
N17 N 0.4769(2) 0.7115(2) 0.3534(2)
N18 N 0.5231(2) 0.7885(2) 0.3534(2)
Zn5 Zn 0.27294(8) 0.62470(9) 0.44225(8)
Zn6 Zn 0.44225(8) 0.77294(8) 0.37530(9)
Zn7 Zn 0.55775(8) 0.72706(8) 0.37530(9)
Zn8 Zn 0.56578(10) 0.51863(9) 0.25929(9)
Zn9 Zn 0.43422(10) 0.98137(9) 0.25929(9)
O1_2 O 0.0384(4) 0.3266(4) 0.9023(3)
C1_2 C 0.0510(5) 0.3185(4) 0.8954(4)
O2_2 O 0.0459(4) 0.3085(3) 0.8833(4)
C2_2 C 0.0683(5) 0.3223(7) 0.9009(7)
C3_2 C 0.0703(7) 0.3341(6) 0.9140(6)
H1_2 H 0.0605 0.3398 0.9190
C4_2 C 0.0880(10) 0.3376(5) 0.9201(5)
H2_2 H 0.0902 0.3447 0.9300
C5_2 C 0.1014(6) 0.3301(8) 0.9109(8)
C6_2 C 0.0994(7) 0.3177(6) 0.8985(6)
H3_2 H 0.1091 0.3117 0.8938
C7_2 C 0.0815(9) 0.3138(4) 0.8928(4)
H4_2 H 0.0792 0.3056 0.8837
N1_2 N 0.1182(5) 0.3356(6) 0.9176(6)
O5_2 O 0.0075(4) 0.3246(4) 0.8653(4)
C15_2 C 0.0129(5) 0.3348(5) 0.8532(5)
O6_2 O 0.0294(5) 0.3329(4) 0.8522(4)
C16_2 C 0.0054(11) 0.3492(5) 0.8443(6)
C20_2 C 0.0058(11) 0.3730(7) 0.8247(5)
H11_2 H 0.0121 0.3808 0.8174
C21_2 C 0.0143(4) 0.3602(10) 0.8334(9)
H12_2 H 0.0265 0.3588 0.8320
N6_2 N 0.0041(3) 0.2759(3) 0.9153(2)
C25_2 C 0.0110(2) 0.2882(3) 0.9052(3)
H14_2 H 0.0226 0.2915 0.9080
N7_2 N 0.0038(2) 0.2965(2) 0.8918(3)
Zn1_2 Zn 0.02294(8) 0.30775(8) 0.87470(9)
Zn2_2 Zn 0.01863(9) 0.25929(9) 0.93422(10)
O7_2 O -0.0000 0.2500 0.9488(5)
O8_2 O 0.2116(4) 0.3477(3) 0.9234(4)
C27_2 C 0.1990(5) 0.3546(4) 0.9315(4)
O9_2 O 0.2041(4) 0.3667(4) 0.9415(3)
C28_2 C 0.1817(5) 0.3491(7) 0.9277(7)
C29_2 C 0.1797(7) 0.3360(6) 0.9159(6)
H17_2 H 0.1895 0.3310 0.9102
C30_2 C 0.1620(10) 0.3299(5) 0.9124(5)
H18_2 H 0.1598 0.3200 0.9053
C31_2 C 0.1486(6) 0.3391(8) 0.9199(8)
C32_2 C 0.1506(7) 0.3515(6) 0.9323(6)
H19_2 H 0.1409 0.3562 0.9383
C33_2 C 0.1685(9) 0.3572(4) 0.9362(4)
H20_2 H 0.1708 0.3663 0.9444
N9_2 N 0.1318(5) 0.3324(6) 0.9144(6)
O10_2 O 0.0537(4) 0.0366(5) 0.7706(4)
C34_2 C 0.0608(5) 0.0507(5) 0.7758(5)
O11_2 O 0.0774(4) 0.0509(3) 0.7738(3)
C35_2 C 0.0536(11) 0.0650(7) 0.7851(5)
C36_2 C 0.0357(11) 0.0631(6) 0.7877(6)
H21_2 H 0.0299 0.0529 0.7836
C37_2 C 0.0261(5) 0.0760(11) 0.7964(7)
H22_2 H 0.0139 0.0747 0.7981
C38_2 C 0.0346(11) 0.0910(8) 0.8026(4)
C39_2 C 0.0525(11) 0.0929(6) 0.8001(6)
H23_2 H 0.0583 0.1030 0.8043
C40_2 C 0.0620(4) 0.0801(11) 0.7912(7)
H24_2 H 0.0741 0.0816 0.7894
N10_2 N 0.0210(8) 0.1113(6) 0.8176(6)
C43_2 C 0.0122(11) 0.1488(7) 0.8463(5)
H25_2 H 0.0184 0.1563 0.8539
C44_2 C 0.0208(4) 0.1360(10) 0.8374(9)
H26_2 H 0.0330 0.1346 0.8389
C45_2 C 0.0119(12) 0.1252(6) 0.8264(7)
N11_2 N 0.0275(9) 0.1057(7) 0.8119(6)
C48_2 C 0.02165(19) 0.22012(15) 0.89708(17)
N12_2 N 0.0385(2) 0.2269(2) 0.8966(2)
C49_2 C 0.0383(3) 0.2383(2) 0.9098(3)
H29_2 H 0.0482 0.2451 0.9127
N13_2 N 0.0233(4) 0.2396(2) 0.9188(2)
C50_2 C 0.0126(3) 0.22787(18) 0.91067(17)
C52_2 C 0.0129(2) 0.20742(16) 0.88721(19)
N16_2 N 0.0198(3) 0.1989(2) 0.8736(2)
H31_2 H 0.0136 0.1911 0.8680
H32_2 H 0.0306 0.2011 0.8704
O15_2 O 0.0366(5) 0.2706(4) 0.9463(4)
N17_2 N 0.0231(2) 0.2885(2) 0.8534(2)
Zn5_2 Zn 0.22706(8) 0.37530(9) 0.94225(8)
Zn6_2 Zn 0.05775(8) 0.22706(8) 0.87530(9)
Zn9_2 Zn 0.06578(10) 0.01863(9) 0.75929(9)
O3_2 O 0.9463(4) 0.4634(5) 0.7706(4)
C8_2 C 0.9392(5) 0.4493(5) 0.7758(5)
O4_2 O 0.9226(4) 0.4491(3) 0.7738(3)
C9_2 C 0.9464(11) 0.4350(7) 0.7851(5)
C10_2 C 0.9643(11) 0.4369(6) 0.7877(6)
H5_2 H 0.9701 0.4471 0.7836
C11_2 C 0.9739(5) 0.4240(11) 0.7964(7)
H6_2 H 0.9861 0.4253 0.7981
C12_2 C 0.9654(11) 0.4090(8) 0.8026(4)
C13_2 C 0.9475(11) 0.4071(6) 0.8001(6)
H7_2 H 0.9417 0.3970 0.8043
C14_2 C 0.9380(4) 0.4199(11) 0.7912(7)
H8_2 H 0.9259 0.4184 0.7894
N2_2 N 0.9790(8) 0.3887(6) 0.8176(6)
C17_2 C 0.9878(11) 0.3512(7) 0.8463(5)
H9_2 H 0.9816 0.3437 0.8539
C18_2 C 0.9792(4) 0.3640(10) 0.8374(9)
H10_2 H 0.9670 0.3654 0.8389
C19_2 C 0.9881(12) 0.3748(6) 0.8264(7)
N3_2 N 0.9725(9) 0.3943(7) 0.8119(6)
C22_2 C 0.97835(19) 0.27988(15) 0.89708(17)
N4_2 N 0.9615(2) 0.2731(2) 0.8966(2)
C23_2 C 0.9617(3) 0.2617(2) 0.9098(3)
H13_2 H 0.9518 0.2549 0.9127
N5_2 N 0.9767(4) 0.2604(2) 0.9188(2)
C24_2 C 0.9874(3) 0.27213(18) 0.91067(17)
C26_2 C 0.9871(2) 0.29258(16) 0.88721(19)
N8_2 N 0.9802(3) 0.3011(2) 0.8736(2)
H15_2 H 0.9864 0.3089 0.8680
H16_2 H 0.9694 0.2989 0.8704
O7_3 O 1.0000 0.2500 0.9488(5)
O12_2 O 0.9925(4) 0.1754(4) 0.8653(4)
C41_2 C 0.9871(5) 0.1652(5) 0.8532(5)
O13_2 O 0.9706(5) 0.1671(4) 0.8522(4)
C42_2 C 0.9946(11) 0.1508(5) 0.8443(6)
C46_2 C 0.9942(11) 0.1270(7) 0.8247(5)
H27_2 H 0.9879 0.1192 0.8174
C47_2 C 0.9857(4) 0.1398(10) 0.8334(9)
H28_2 H 0.9735 0.1412 0.8320
N14_2 N 0.9959(3) 0.2241(3) 0.9153(2)
C51_2 C 0.9890(2) 0.2118(3) 0.9052(3)
H30_2 H 0.9774 0.2085 0.9080
N15_2 N 0.9962(2) 0.2035(2) 0.8918(3)
Zn3_2 Zn 0.97706(8) 0.19225(8) 0.87470(9)
Zn4_2 Zn 0.98137(9) 0.24071(9) 0.93422(10)
O14_2 O 0.9541(4) 0.1915(3) 0.8833(4)
O16_2 O 0.9634(5) 0.2294(4) 0.9463(4)
N18_2 N 0.9769(2) 0.2115(2) 0.8534(2)
Zn7_2 Zn 0.94225(8) 0.27294(8) 0.87530(9)
Zn8_2 Zn 0.93422(10) 0.48137(9) 0.75929(9)
O1_3 O 0.5384(4) 0.1734(4) 0.0977(3)
C1_3 C 0.5510(5) 0.1815(4) 0.1046(4)
O2_3 O 0.5459(4) 0.1915(3) 0.1167(4)
C2_3 C 0.5683(5) 0.1777(7) 0.0991(7)
C3_3 C 0.5703(7) 0.1659(6) 0.0860(6)
H1_3 H 0.5605 0.1602 0.0810
C4_3 C 0.5880(10) 0.1624(5) 0.0799(5)
H2_3 H 0.5902 0.1553 0.0700
C5_3 C 0.6014(6) 0.1699(8) 0.0891(8)
C6_3 C 0.5994(7) 0.1823(6) 0.1015(6)
H3_3 H 0.6091 0.1883 0.1062
C7_3 C 0.5815(9) 0.1862(4) 0.1072(4)
H4_3 H 0.5792 0.1944 0.1163
N1_3 N 0.6182(5) 0.1644(6) 0.0824(6)
O3_3 O 0.4463(4) 0.0366(5) 0.2294(4)
C8_3 C 0.4392(5) 0.0507(5) 0.2242(5)
O4_3 O 0.4226(4) 0.0509(3) 0.2262(3)
C9_3 C 0.4464(11) 0.0650(7) 0.2149(5)
C10_3 C 0.4643(11) 0.0631(6) 0.2123(6)
H5_3 H 0.4701 0.0529 0.2164
C11_3 C 0.4739(5) 0.0760(11) 0.2036(7)
H6_3 H 0.4861 0.0747 0.2019
C12_3 C 0.4654(11) 0.0910(8) 0.1974(4)
C13_3 C 0.4475(11) 0.0929(6) 0.1999(6)
H7_3 H 0.4417 0.1030 0.1957
C14_3 C 0.4380(4) 0.0801(11) 0.2088(7)
H8_3 H 0.4259 0.0816 0.2106
N2_3 N 0.4790(8) 0.1113(6) 0.1824(6)
O5_3 O 0.5075(4) 0.1754(4) 0.1347(4)
C15_3 C 0.5129(5) 0.1652(5) 0.1468(5)
O6_3 O 0.5294(5) 0.1671(4) 0.1478(4)
C16_3 C 0.5054(11) 0.1508(5) 0.1557(6)
C17_3 C 0.4878(11) 0.1488(7) 0.1537(5)
H9_3 H 0.4816 0.1563 0.1461
C18_3 C 0.4792(4) 0.1360(10) 0.1626(9)
H10_3 H 0.4670 0.1346 0.1611
C19_3 C 0.4881(12) 0.1252(6) 0.1736(7)
C20_3 C 0.5058(11) 0.1270(7) 0.1753(5)
H11_3 H 0.5121 0.1192 0.1826
C21_3 C 0.5143(4) 0.1398(10) 0.1666(9)
H12_3 H 0.5265 0.1412 0.1680
N3_3 N 0.4725(9) 0.1057(7) 0.1881(6)
C22_3 C 0.47835(19) 0.22012(15) 0.10292(17)
N4_3 N 0.4615(2) 0.2269(2) 0.1034(2)
C23_3 C 0.4617(3) 0.2383(2) 0.0902(3)
H13_3 H 0.4518 0.2451 0.0873
N5_3 N 0.4767(4) 0.2396(2) 0.0812(2)
C24_3 C 0.4874(3) 0.22787(18) 0.08933(17)
N6_3 N 0.5041(3) 0.2241(3) 0.0847(2)
C25_3 C 0.5110(2) 0.2118(3) 0.0948(3)
H14_3 H 0.5226 0.2085 0.0920
N7_3 N 0.5038(2) 0.2035(2) 0.1082(3)
C26_3 C 0.4871(2) 0.20742(16) 0.11279(19)
N8_3 N 0.4802(3) 0.1989(2) 0.1264(2)
H15_3 H 0.4864 0.1911 0.1320
H16_3 H 0.4694 0.2011 0.1296
Zn1_3 Zn 0.52294(8) 0.19225(8) 0.12530(9)
Zn2_3 Zn 0.51863(9) 0.24071(9) 0.06578(10)
O7_4 O 0.5000 0.2500 0.0512(5)
O8_3 O 0.7116(4) 0.1523(3) 0.0766(4)
C27_3 C 0.6990(5) 0.1454(4) 0.0685(4)
O9_3 O 0.7041(4) 0.1333(4) 0.0585(3)
C28_3 C 0.6817(5) 0.1509(7) 0.0723(7)
C29_3 C 0.6797(7) 0.1640(6) 0.0841(6)
H17_3 H 0.6895 0.1690 0.0898
C30_3 C 0.6620(10) 0.1701(5) 0.0876(5)
H18_3 H 0.6598 0.1800 0.0947
C31_3 C 0.6486(6) 0.1609(8) 0.0801(8)
C32_3 C 0.6506(7) 0.1485(6) 0.0677(6)
H19_3 H 0.6409 0.1438 0.0617
C33_3 C 0.6685(9) 0.1428(4) 0.0638(4)
H20_3 H 0.6708 0.1337 0.0556
N9_3 N 0.6318(5) 0.1676(6) 0.0856(6)
O10_3 O 0.5537(4) 0.4634(5) 0.2294(4)
C34_3 C 0.5608(5) 0.4493(5) 0.2242(5)
O11_3 O 0.5774(4) 0.4491(3) 0.2262(3)
C35_3 C 0.5536(11) 0.4350(7) 0.2149(5)
C36_3 C 0.5357(11) 0.4369(6) 0.2123(6)
H21_3 H 0.5299 0.4471 0.2164
C37_3 C 0.5261(5) 0.4240(11) 0.2036(7)
H22_3 H 0.5139 0.4253 0.2019
C38_3 C 0.5346(11) 0.4090(8) 0.1974(4)
C39_3 C 0.5525(11) 0.4071(6) 0.1999(6)
H23_3 H 0.5583 0.3970 0.1957
C40_3 C 0.5620(4) 0.4199(11) 0.2088(7)
H24_3 H 0.5741 0.4184 0.2106
N10_3 N 0.5210(8) 0.3887(6) 0.1824(6)
O12_3 O 0.4925(4) 0.3246(4) 0.1347(4)
C41_3 C 0.4871(5) 0.3348(5) 0.1468(5)
O13_3 O 0.4706(5) 0.3329(4) 0.1478(4)
C42_3 C 0.4946(11) 0.3492(5) 0.1557(6)
C43_3 C 0.5122(11) 0.3512(7) 0.1537(5)
H25_3 H 0.5184 0.3437 0.1461
C44_3 C 0.5208(4) 0.3640(10) 0.1626(9)
H26_3 H 0.5330 0.3654 0.1611
C45_3 C 0.5119(12) 0.3748(6) 0.1736(7)
C46_3 C 0.4942(11) 0.3730(7) 0.1753(5)
H27_3 H 0.4879 0.3808 0.1826
C47_3 C 0.4857(4) 0.3602(10) 0.1666(9)
H28_3 H 0.4735 0.3588 0.1680
N11_3 N 0.5275(9) 0.3943(7) 0.1881(6)
C48_3 C 0.52165(19) 0.27988(15) 0.10292(17)
N12_3 N 0.5385(2) 0.2731(2) 0.1034(2)
C49_3 C 0.5383(3) 0.2617(2) 0.0902(3)
H29_3 H 0.5482 0.2549 0.0873
N13_3 N 0.5233(4) 0.2604(2) 0.0812(2)
C50_3 C 0.5126(3) 0.27213(18) 0.08933(17)
N14_3 N 0.4959(3) 0.2759(3) 0.0847(2)
C51_3 C 0.4890(2) 0.2882(3) 0.0948(3)
H30_3 H 0.4774 0.2915 0.0920
N15_3 N 0.4962(2) 0.2965(2) 0.1082(3)
C52_3 C 0.5129(2) 0.29258(16) 0.11279(19)
N16_3 N 0.5198(3) 0.3011(2) 0.1264(2)
H31_3 H 0.5136 0.3089 0.1320
H32_3 H 0.5306 0.2989 0.1296
Zn3_3 Zn 0.47706(8) 0.30775(8) 0.12530(9)
Zn4_3 Zn 0.48137(9) 0.25929(9) 0.06578(10)
O14_3 O 0.4541(4) 0.3085(3) 0.1167(4)
O15_3 O 0.5366(5) 0.2294(4) 0.0537(4)
O16_3 O 0.4634(5) 0.2706(4) 0.0537(4)
N17_3 N 0.5231(2) 0.2115(2) 0.1466(2)
N18_3 N 0.4769(2) 0.2885(2) 0.1466(2)
Zn5_3 Zn 0.72706(8) 0.12470(9) 0.05775(8)
Zn6_3 Zn 0.55775(8) 0.27294(8) 0.12470(9)
Zn7_3 Zn 0.44225(8) 0.22706(8) 0.12470(9)
Zn8_3 Zn 0.43422(10) 0.01863(9) 0.24071(9)
Zn9_3 Zn 0.56578(10) 0.48137(9) 0.24071(9)
O3_4 O 0.0537(4) 0.9634(5) 0.7294(4)
C8_4 C 0.0608(5) 0.9493(5) 0.7242(5)
O4_4 O 0.0774(4) 0.9491(3) 0.7262(3)
C9_4 C 0.0536(11) 0.9350(7) 0.7149(5)
C10_4 C 0.0357(11) 0.9369(6) 0.7123(6)
H5_4 H 0.0299 0.9471 0.7164
C11_4 C 0.0261(5) 0.9240(11) 0.7036(7)
H6_4 H 0.0139 0.9253 0.7019
C12_4 C 0.0346(11) 0.9090(8) 0.6974(4)
C13_4 C 0.0525(11) 0.9071(6) 0.6999(6)
H7_4 H 0.0583 0.8970 0.6957
C14_4 C 0.0620(4) 0.9199(11) 0.7088(7)
H8_4 H 0.0741 0.9184 0.7106
N2_4 N 0.0210(8) 0.8887(6) 0.6824(6)
C17_4 C 0.0122(11) 0.8512(7) 0.6537(5)
H9_4 H 0.0184 0.8437 0.6461
C18_4 C 0.0208(4) 0.8640(10) 0.6626(9)
H10_4 H 0.0330 0.8654 0.6611
C19_4 C 0.0119(12) 0.8748(6) 0.6736(7)
N3_4 N 0.0275(9) 0.8943(7) 0.6881(6)
C22_4 C 0.02165(19) 0.77988(15) 0.60292(17)
N4_4 N 0.0385(2) 0.7731(2) 0.6034(2)
C23_4 C 0.0383(3) 0.7617(2) 0.5902(3)
H13_4 H 0.0482 0.7549 0.5873
N5_4 N 0.0233(4) 0.7604(2) 0.5812(2)
C24_4 C 0.0126(3) 0.77213(18) 0.58933(17)
C26_4 C 0.0129(2) 0.79258(16) 0.61279(19)
N8_4 N 0.0198(3) 0.8011(2) 0.6264(2)
H15_4 H 0.0136 0.8089 0.6320
H16_4 H 0.0306 0.7989 0.6296
O7_5 O 0.0000 0.7500 0.5512(5)
O12_4 O 0.0075(4) 0.6754(4) 0.6347(4)
C41_4 C 0.0129(5) 0.6652(5) 0.6468(5)
O13_4 O 0.0294(5) 0.6671(4) 0.6478(4)
C42_4 C 0.0054(11) 0.6508(5) 0.6557(6)
C46_4 C 0.0058(11) 0.6270(7) 0.6753(5)
H27_4 H 0.0121 0.6192 0.6826
C47_4 C 0.0143(4) 0.6398(10) 0.6666(9)
H28_4 H 0.0265 0.6412 0.6680
N14_4 N 0.0041(3) 0.7241(3) 0.5847(2)
C51_4 C 0.0110(2) 0.7118(3) 0.5948(3)
H30_4 H 0.0226 0.7085 0.5920
N15_4 N 0.0038(2) 0.7035(2) 0.6082(3)
Zn3_4 Zn 0.02294(8) 0.69225(8) 0.62530(9)
Zn4_4 Zn 0.01863(9) 0.74071(9) 0.56578(10)
O14_4 O 0.0459(4) 0.6915(3) 0.6167(4)
O16_4 O 0.0366(5) 0.7294(4) 0.5537(4)
N18_4 N 0.0231(2) 0.7115(2) 0.6466(2)
Zn7_4 Zn 0.05775(8) 0.77294(8) 0.62470(9)
Zn8_4 Zn 0.06578(10) 0.98137(9) 0.74071(9)
O1_4 O 0.9616(4) 0.8266(4) 0.5977(3)
C1_4 C 0.9490(5) 0.8185(4) 0.6046(4)
O2_4 O 0.9541(4) 0.8085(3) 0.6167(4)
C2_4 C 0.9317(5) 0.8223(7) 0.5991(7)
C3_4 C 0.9297(7) 0.8341(6) 0.5860(6)
H1_4 H 0.9395 0.8398 0.5810
C4_4 C 0.9120(10) 0.8376(5) 0.5799(5)
H2_4 H 0.9098 0.8447 0.5700
C5_4 C 0.8986(6) 0.8301(8) 0.5891(8)
C6_4 C 0.9006(7) 0.8177(6) 0.6015(6)
H3_4 H 0.8909 0.8117 0.6062
C7_4 C 0.9185(9) 0.8138(4) 0.6072(4)
H4_4 H 0.9208 0.8056 0.6163
N1_4 N 0.8818(5) 0.8356(6) 0.5824(6)
O5_4 O 0.9925(4) 0.8246(4) 0.6347(4)
C15_4 C 0.9871(5) 0.8348(5) 0.6468(5)
O6_4 O 0.9706(5) 0.8329(4) 0.6478(4)
C16_4 C 0.9946(11) 0.8492(5) 0.6557(6)
C20_4 C 0.9942(11) 0.8730(7) 0.6753(5)
H11_4 H 0.9879 0.8808 0.6826
C21_4 C 0.9857(4) 0.8602(10) 0.6666(9)
H12_4 H 0.9735 0.8588 0.6680
N6_4 N 0.9959(3) 0.7759(3) 0.5847(2)
C25_4 C 0.9890(2) 0.7882(3) 0.5948(3)
H14_4 H 0.9774 0.7915 0.5920
N7_4 N 0.9962(2) 0.7965(2) 0.6082(3)
Zn1_4 Zn 0.97706(8) 0.80775(8) 0.62530(9)
Zn2_4 Zn 0.98137(9) 0.75929(9) 0.56578(10)
O7_6 O 1.0000 0.7500 0.5512(5)
O8_4 O 0.7884(4) 0.8477(3) 0.5766(4)
C27_4 C 0.8010(5) 0.8546(4) 0.5685(4)
O9_4 O 0.7959(4) 0.8667(4) 0.5585(3)
C28_4 C 0.8183(5) 0.8491(7) 0.5723(7)
C29_4 C 0.8203(7) 0.8360(6) 0.5841(6)
H17_4 H 0.8105 0.8310 0.5898
C30_4 C 0.8380(10) 0.8299(5) 0.5876(5)
H18_4 H 0.8402 0.8200 0.5947
C31_4 C 0.8514(6) 0.8391(8) 0.5801(8)
C32_4 C 0.8494(7) 0.8515(6) 0.5677(6)
H19_4 H 0.8591 0.8562 0.5617
C33_4 C 0.8315(9) 0.8572(4) 0.5638(4)
H20_4 H 0.8292 0.8663 0.5556
N9_4 N 0.8682(5) 0.8324(6) 0.5856(6)
O10_4 O 0.9463(4) 0.5366(5) 0.7294(4)
C34_4 C 0.9392(5) 0.5507(5) 0.7242(5)
O11_4 O 0.9226(4) 0.5509(3) 0.7262(3)
C35_4 C 0.9464(11) 0.5650(7) 0.7149(5)
C36_4 C 0.9643(11) 0.5631(6) 0.7123(6)
H21_4 H 0.9701 0.5529 0.7164
C37_4 C 0.9739(5) 0.5760(11) 0.7036(7)
H22_4 H 0.9861 0.5747 0.7019
C38_4 C 0.9654(11) 0.5910(8) 0.6974(4)
C39_4 C 0.9475(11) 0.5929(6) 0.6999(6)
H23_4 H 0.9417 0.6030 0.6957
C40_4 C 0.9380(4) 0.5801(11) 0.7088(7)
H24_4 H 0.9259 0.5816 0.7106
N10_4 N 0.9790(8) 0.6113(6) 0.6824(6)
C43_4 C 0.9878(11) 0.6488(7) 0.6537(5)
H25_4 H 0.9816 0.6563 0.6461
C44_4 C 0.9792(4) 0.6360(10) 0.6626(9)
H26_4 H 0.9670 0.6346 0.6611
C45_4 C 0.9881(12) 0.6252(6) 0.6736(7)
N11_4 N 0.9725(9) 0.6057(7) 0.6881(6)
C48_4 C 0.97835(19) 0.72012(15) 0.60292(17)
N12_4 N 0.9615(2) 0.7269(2) 0.6034(2)
C49_4 C 0.9617(3) 0.7383(2) 0.5902(3)
H29_4 H 0.9518 0.7451 0.5873
N13_4 N 0.9767(4) 0.7396(2) 0.5812(2)
C50_4 C 0.9874(3) 0.72787(18) 0.58933(17)
C52_4 C 0.9871(2) 0.70742(16) 0.61279(19)
N16_4 N 0.9802(3) 0.6989(2) 0.6264(2)
H31_4 H 0.9864 0.6911 0.6320
H32_4 H 0.9694 0.7011 0.6296
O15_4 O 0.9634(5) 0.7706(4) 0.5537(4)
N17_4 N 0.9769(2) 0.7885(2) 0.6466(2)
Zn5_4 Zn 0.77294(8) 0.87530(9) 0.55775(8)
Zn6_4 Zn 0.94225(8) 0.72706(8) 0.62470(9)
Zn9_4 Zn 0.93422(10) 0.51863(9) 0.74071(9)
O1_5 O 0.4023(3) 0.4616(4) 0.6734(4)
C1_5 C 0.3954(4) 0.4490(5) 0.6815(4)
O2_5 O 0.3833(4) 0.4541(4) 0.6915(3)
C2_5 C 0.4009(7) 0.4317(5) 0.6777(7)
C3_5 C 0.4140(6) 0.4297(7) 0.6659(6)
H1_5 H 0.4190 0.4395 0.6602
C4_5 C 0.4201(5) 0.4120(10) 0.6624(5)
H2_5 H 0.4300 0.4098 0.6553
C5_5 C 0.4109(8) 0.3986(6) 0.6699(8)
C6_5 C 0.3985(6) 0.4006(7) 0.6823(6)
H3_5 H 0.3938 0.3909 0.6883
C7_5 C 0.3928(4) 0.4185(9) 0.6862(4)
H4_5 H 0.3837 0.4208 0.6944
N1_5 N 0.4176(6) 0.3818(5) 0.6644(6)
O3_5 O 0.2706(4) 0.5537(4) 0.5366(5)
C8_5 C 0.2758(5) 0.5608(5) 0.5507(5)
O4_5 O 0.2738(3) 0.5774(4) 0.5509(3)
C9_5 C 0.2851(5) 0.5536(11) 0.5650(7)
C10_5 C 0.2877(6) 0.5357(11) 0.5631(6)
H5_5 H 0.2836 0.5299 0.5529
C11_5 C 0.2964(7) 0.5261(5) 0.5760(11)
H6_5 H 0.2981 0.5139 0.5747
C12_5 C 0.3026(4) 0.5346(11) 0.5910(8)
C13_5 C 0.3001(6) 0.5525(11) 0.5929(6)
H7_5 H 0.3043 0.5583 0.6030
C14_5 C 0.2912(7) 0.5620(4) 0.5801(11)
H8_5 H 0.2894 0.5741 0.5816
N2_5 N 0.3176(6) 0.5210(8) 0.6113(6)
O5_5 O 0.3653(4) 0.4925(4) 0.6754(4)
C15_5 C 0.3532(5) 0.4871(5) 0.6652(5)
O6_5 O 0.3522(4) 0.4706(5) 0.6671(4)
C16_5 C 0.3443(6) 0.4946(11) 0.6508(5)
C17_5 C 0.3463(5) 0.5122(11) 0.6488(7)
H9_5 H 0.3539 0.5184 0.6563
C18_5 C 0.3374(9) 0.5208(4) 0.6360(10)
H10_5 H 0.3389 0.5330 0.6346
C19_5 C 0.3264(7) 0.5119(12) 0.6252(6)
C20_5 C 0.3247(5) 0.4942(11) 0.6270(7)
H11_5 H 0.3174 0.4879 0.6192
C21_5 C 0.3334(9) 0.4857(4) 0.6398(10)
H12_5 H 0.3320 0.4735 0.6412
N3_5 N 0.3119(6) 0.5275(9) 0.6057(7)
C22_5 C 0.39708(17) 0.52165(19) 0.72012(15)
N4_5 N 0.3966(2) 0.5385(2) 0.7269(2)
C23_5 C 0.4098(3) 0.5383(3) 0.7383(2)
H13_5 H 0.4127 0.5482 0.7451
N5_5 N 0.4188(2) 0.5233(4) 0.7396(2)
C24_5 C 0.41067(17) 0.5126(3) 0.72787(18)
N6_5 N 0.4153(2) 0.4959(3) 0.7241(3)
C25_5 C 0.4052(3) 0.4890(2) 0.7118(3)
H14_5 H 0.4080 0.4774 0.7085
N7_5 N 0.3918(3) 0.4962(2) 0.7035(2)
C26_5 C 0.38721(19) 0.5129(2) 0.70742(16)
N8_5 N 0.3736(2) 0.5198(3) 0.6989(2)
H15_5 H 0.3680 0.5136 0.6911
H16_5 H 0.3704 0.5306 0.7011
Zn1_5 Zn 0.37470(9) 0.47706(8) 0.69225(8)
Zn2_5 Zn 0.43422(10) 0.48137(9) 0.74071(9)
O7_7 O 0.4488(5) 0.5000 0.7500
O8_5 O 0.4234(4) 0.2884(4) 0.6523(3)
C27_5 C 0.4315(4) 0.3010(5) 0.6454(4)
O9_5 O 0.4415(3) 0.2959(4) 0.6333(4)
C28_5 C 0.4277(7) 0.3183(5) 0.6509(7)
C29_5 C 0.4159(6) 0.3203(7) 0.6640(6)
H17_5 H 0.4102 0.3105 0.6690
C30_5 C 0.4124(5) 0.3380(10) 0.6701(5)
H18_5 H 0.4053 0.3402 0.6800
C31_5 C 0.4199(8) 0.3514(6) 0.6609(8)
C32_5 C 0.4323(6) 0.3494(7) 0.6485(6)
H19_5 H 0.4383 0.3591 0.6438
C33_5 C 0.4362(4) 0.3315(9) 0.6428(4)
H20_5 H 0.4444 0.3292 0.6337
N9_5 N 0.4144(6) 0.3682(5) 0.6676(6)
O10_5 O 0.2706(4) 0.4463(4) 0.9634(5)
C34_5 C 0.2758(5) 0.4392(5) 0.9493(5)
O11_5 O 0.2738(3) 0.4226(4) 0.9491(3)
C35_5 C 0.2851(5) 0.4464(11) 0.9350(7)
C36_5 C 0.2877(6) 0.4643(11) 0.9369(6)
H21_5 H 0.2836 0.4701 0.9471
C37_5 C 0.2964(7) 0.4739(5) 0.9240(11)
H22_5 H 0.2981 0.4861 0.9253
C38_5 C 0.3026(4) 0.4654(11) 0.9090(8)
C39_5 C 0.3001(6) 0.4475(11) 0.9071(6)
H23_5 H 0.3043 0.4417 0.8970
C40_5 C 0.2912(7) 0.4380(4) 0.9199(11)
H24_5 H 0.2894 0.4259 0.9184
N10_5 N 0.3176(6) 0.4790(8) 0.8887(6)
O12_5 O 0.3653(4) 0.5075(4) 0.8246(4)
C41_5 C 0.3532(5) 0.5129(5) 0.8348(5)
O13_5 O 0.3522(4) 0.5294(5) 0.8329(4)
C42_5 C 0.3443(6) 0.5054(11) 0.8492(5)
C43_5 C 0.3463(5) 0.4878(11) 0.8512(7)
H25_5 H 0.3539 0.4816 0.8437
C44_5 C 0.3374(9) 0.4792(4) 0.8640(10)
H26_5 H 0.3389 0.4670 0.8654
C45_5 C 0.3264(7) 0.4881(12) 0.8748(6)
C46_5 C 0.3247(5) 0.5058(11) 0.8730(7)
H27_5 H 0.3174 0.5121 0.8808
C47_5 C 0.3334(9) 0.5143(4) 0.8602(10)
H28_5 H 0.3320 0.5265 0.8588
N11_5 N 0.3119(6) 0.4725(9) 0.8943(7)
C48_5 C 0.39708(17) 0.47835(19) 0.77988(15)
N12_5 N 0.3966(2) 0.4615(2) 0.7731(2)
C49_5 C 0.4098(3) 0.4617(3) 0.7617(2)
H29_5 H 0.4127 0.4518 0.7549
N13_5 N 0.4188(2) 0.4767(4) 0.7604(2)
C50_5 C 0.41067(17) 0.4874(3) 0.77213(18)
N14_5 N 0.4153(2) 0.5041(3) 0.7759(3)
C51_5 C 0.4052(3) 0.5110(2) 0.7882(3)
H30_5 H 0.4080 0.5226 0.7915
N15_5 N 0.3918(3) 0.5038(2) 0.7965(2)
C52_5 C 0.38721(19) 0.4871(2) 0.79258(16)
N16_5 N 0.3736(2) 0.4802(3) 0.8011(2)
H31_5 H 0.3680 0.4864 0.8089
H32_5 H 0.3704 0.4694 0.7989
Zn3_5 Zn 0.37470(9) 0.52294(8) 0.80775(8)
Zn4_5 Zn 0.43422(10) 0.51863(9) 0.75929(9)
O14_5 O 0.3833(4) 0.5459(4) 0.8085(3)
O15_5 O 0.4463(4) 0.4634(5) 0.7294(4)
O16_5 O 0.4463(4) 0.5366(5) 0.7706(4)
N17_5 N 0.3534(2) 0.4769(2) 0.7115(2)
N18_5 N 0.3534(2) 0.5231(2) 0.7885(2)
Zn5_5 Zn 0.44225(8) 0.27294(8) 0.62470(9)
Zn6_5 Zn 0.37530(9) 0.44225(8) 0.77294(8)
Zn7_5 Zn 0.37530(9) 0.55775(8) 0.72706(8)
Zn8_5 Zn 0.25929(9) 0.56578(10) 0.51863(9)
Zn9_5 Zn 0.25929(9) 0.43422(10) 0.98137(9)
O1_6 O 0.9023(3) 0.0384(4) 0.3266(4)
C1_6 C 0.8954(4) 0.0510(5) 0.3185(4)
O2_6 O 0.8833(4) 0.0459(4) 0.3085(3)
C2_6 C 0.9009(7) 0.0683(5) 0.3223(7)
C3_6 C 0.9140(6) 0.0703(7) 0.3341(6)
H1_6 H 0.9190 0.0605 0.3398
C4_6 C 0.9201(5) 0.0880(10) 0.3376(5)
H2_6 H 0.9300 0.0902 0.3447
C5_6 C 0.9109(8) 0.1014(6) 0.3301(8)
C6_6 C 0.8985(6) 0.0994(7) 0.3177(6)
H3_6 H 0.8938 0.1091 0.3117
C7_6 C 0.8928(4) 0.0815(9) 0.3138(4)
H4_6 H 0.8837 0.0792 0.3056
N1_6 N 0.9176(6) 0.1182(5) 0.3356(6)
O5_6 O 0.8653(4) 0.0075(4) 0.3246(4)
C15_6 C 0.8532(5) 0.0129(5) 0.3348(5)
O6_6 O 0.8522(4) 0.0294(5) 0.3329(4)
C16_6 C 0.8443(6) 0.0054(11) 0.3492(5)
C20_6 C 0.8247(5) 0.0058(11) 0.3730(7)
H11_6 H 0.8174 0.0121 0.3808
C21_6 C 0.8334(9) 0.0143(4) 0.3602(10)
H12_6 H 0.8320 0.0265 0.3588
N6_6 N 0.9153(2) 0.0041(3) 0.2759(3)
C25_6 C 0.9052(3) 0.0110(2) 0.2882(3)
H14_6 H 0.9080 0.0226 0.2915
N7_6 N 0.8918(3) 0.0038(2) 0.2965(2)
Zn1_6 Zn 0.87470(9) 0.02294(8) 0.30775(8)
Zn2_6 Zn 0.93422(10) 0.01863(9) 0.25929(9)
O7_8 O 0.9488(5) -0.0000 0.2500
O8_6 O 0.9234(4) 0.2116(4) 0.3477(3)
C27_6 C 0.9315(4) 0.1990(5) 0.3546(4)
O9_6 O 0.9415(3) 0.2041(4) 0.3667(4)
C28_6 C 0.9277(7) 0.1817(5) 0.3491(7)
C29_6 C 0.9159(6) 0.1797(7) 0.3360(6)
H17_6 H 0.9102 0.1895 0.3310
C30_6 C 0.9124(5) 0.1620(10) 0.3299(5)
H18_6 H 0.9053 0.1598 0.3200
C31_6 C 0.9199(8) 0.1486(6) 0.3391(8)
C32_6 C 0.9323(6) 0.1506(7) 0.3515(6)
H19_6 H 0.9383 0.1409 0.3562
C33_6 C 0.9362(4) 0.1685(9) 0.3572(4)
H20_6 H 0.9444 0.1708 0.3663
N9_6 N 0.9144(6) 0.1318(5) 0.3324(6)
O10_6 O 0.7706(4) 0.0537(4) 0.0366(5)
C34_6 C 0.7758(5) 0.0608(5) 0.0507(5)
O11_6 O 0.7738(3) 0.0774(4) 0.0509(3)
C35_6 C 0.7851(5) 0.0536(11) 0.0650(7)
C36_6 C 0.7877(6) 0.0357(11) 0.0631(6)
H21_6 H 0.7836 0.0299 0.0529
C37_6 C 0.7964(7) 0.0261(5) 0.0760(11)
H22_6 H 0.7981 0.0139 0.0747
C38_6 C 0.8026(4) 0.0346(11) 0.0910(8)
C39_6 C 0.8001(6) 0.0525(11) 0.0929(6)
H23_6 H 0.8043 0.0583 0.1030
C40_6 C 0.7912(7) 0.0620(4) 0.0801(11)
H24_6 H 0.7894 0.0741 0.0816
N10_6 N 0.8176(6) 0.0210(8) 0.1113(6)
C43_6 C 0.8463(5) 0.0122(11) 0.1488(7)
H25_6 H 0.8539 0.0184 0.1563
C44_6 C 0.8374(9) 0.0208(4) 0.1360(10)
H26_6 H 0.8389 0.0330 0.1346
C45_6 C 0.8264(7) 0.0119(12) 0.1252(6)
N11_6 N 0.8119(6) 0.0275(9) 0.1057(7)
C48_6 C 0.89708(17) 0.02165(19) 0.22012(15)
N12_6 N 0.8966(2) 0.0385(2) 0.2269(2)
C49_6 C 0.9098(3) 0.0383(3) 0.2383(2)
H29_6 H 0.9127 0.0482 0.2451
N13_6 N 0.9188(2) 0.0233(4) 0.2396(2)
C50_6 C 0.91067(17) 0.0126(3) 0.22787(18)
C52_6 C 0.88721(19) 0.0129(2) 0.20742(16)
N16_6 N 0.8736(2) 0.0198(3) 0.1989(2)
H31_6 H 0.8680 0.0136 0.1911
H32_6 H 0.8704 0.0306 0.2011
O15_6 O 0.9463(4) 0.0366(5) 0.2706(4)
N17_6 N 0.8534(2) 0.0231(2) 0.2885(2)
Zn5_6 Zn 0.94225(8) 0.22706(8) 0.37530(9)
Zn6_6 Zn 0.87530(9) 0.05775(8) 0.22706(8)
Zn9_6 Zn 0.75929(9) 0.06578(10) 0.01863(9)
O3_6 O 0.7706(4) 0.9463(4) 0.4634(5)
C8_6 C 0.7758(5) 0.9392(5) 0.4493(5)
O4_6 O 0.7738(3) 0.9226(4) 0.4491(3)
C9_6 C 0.7851(5) 0.9464(11) 0.4350(7)
C10_6 C 0.7877(6) 0.9643(11) 0.4369(6)
H5_6 H 0.7836 0.9701 0.4471
C11_6 C 0.7964(7) 0.9739(5) 0.4240(11)
H6_6 H 0.7981 0.9861 0.4253
C12_6 C 0.8026(4) 0.9654(11) 0.4090(8)
C13_6 C 0.8001(6) 0.9475(11) 0.4071(6)
H7_6 H 0.8043 0.9417 0.3970
C14_6 C 0.7912(7) 0.9380(4) 0.4199(11)
H8_6 H 0.7894 0.9259 0.4184
N2_6 N 0.8176(6) 0.9790(8) 0.3887(6)
C17_6 C 0.8463(5) 0.9878(11) 0.3512(7)
H9_6 H 0.8539 0.9816 0.3437
C18_6 C 0.8374(9) 0.9792(4) 0.3640(10)
H10_6 H 0.8389 0.9670 0.3654
C19_6 C 0.8264(7) 0.9881(12) 0.3748(6)
N3_6 N 0.8119(6) 0.9725(9) 0.3943(7)
C22_6 C 0.89708(17) 0.97835(19) 0.27988(15)
N4_6 N 0.8966(2) 0.9615(2) 0.2731(2)
C23_6 C 0.9098(3) 0.9617(3) 0.2617(2)
H13_6 H 0.9127 0.9518 0.2549
N5_6 N 0.9188(2) 0.9767(4) 0.2604(2)
C24_6 C 0.91067(17) 0.9874(3) 0.27213(18)
C26_6 C 0.88721(19) 0.9871(2) 0.29258(16)
N8_6 N 0.8736(2) 0.9802(3) 0.3011(2)
H15_6 H 0.8680 0.9864 0.3089
H16_6 H 0.8704 0.9694 0.2989
O7_9 O 0.9488(5) 1.0000 0.2500
O12_6 O 0.8653(4) 0.9925(4) 0.1754(4)
C41_6 C 0.8532(5) 0.9871(5) 0.1652(5)
O13_6 O 0.8522(4) 0.9706(5) 0.1671(4)
C42_6 C 0.8443(6) 0.9946(11) 0.1508(5)
C46_6 C 0.8247(5) 0.9942(11) 0.1270(7)
H27_6 H 0.8174 0.9879 0.1192
C47_6 C 0.8334(9) 0.9857(4) 0.1398(10)
H28_6 H 0.8320 0.9735 0.1412
N14_6 N 0.9153(2) 0.9959(3) 0.2241(3)
C51_6 C 0.9052(3) 0.9890(2) 0.2118(3)
H30_6 H 0.9080 0.9774 0.2085
N15_6 N 0.8918(3) 0.9962(2) 0.2035(2)
Zn3_6 Zn 0.87470(9) 0.97706(8) 0.19225(8)
Zn4_6 Zn 0.93422(10) 0.98137(9) 0.24071(9)
O14_6 O 0.8833(4) 0.9541(4) 0.1915(3)
O16_6 O 0.9463(4) 0.9634(5) 0.2294(4)
N18_6 N 0.8534(2) 0.9769(2) 0.2115(2)
Zn7_6 Zn 0.87530(9) 0.94225(8) 0.27294(8)
Zn8_6 Zn 0.75929(9) 0.93422(10) 0.48137(9)
O1_7 O 0.0977(3) 0.5384(4) 0.1734(4)
C1_7 C 0.1046(4) 0.5510(5) 0.1815(4)
O2_7 O 0.1167(4) 0.5459(4) 0.1915(3)
C2_7 C 0.0991(7) 0.5683(5) 0.1777(7)
C3_7 C 0.0860(6) 0.5703(7) 0.1659(6)
H1_7 H 0.0810 0.5605 0.1602
C4_7 C 0.0799(5) 0.5880(10) 0.1624(5)
H2_7 H 0.0700 0.5902 0.1553
C5_7 C 0.0891(8) 0.6014(6) 0.1699(8)
C6_7 C 0.1015(6) 0.5994(7) 0.1823(6)
H3_7 H 0.1062 0.6091 0.1883
C7_7 C 0.1072(4) 0.5815(9) 0.1862(4)
H4_7 H 0.1163 0.5792 0.1944
N1_7 N 0.0824(6) 0.6182(5) 0.1644(6)
O3_7 O 0.2294(4) 0.4463(4) 0.0366(5)
C8_7 C 0.2242(5) 0.4392(5) 0.0507(5)
O4_7 O 0.2262(3) 0.4226(4) 0.0509(3)
C9_7 C 0.2149(5) 0.4464(11) 0.0650(7)
C10_7 C 0.2123(6) 0.4643(11) 0.0631(6)
H5_7 H 0.2164 0.4701 0.0529
C11_7 C 0.2036(7) 0.4739(5) 0.0760(11)
H6_7 H 0.2019 0.4861 0.0747
C12_7 C 0.1974(4) 0.4654(11) 0.0910(8)
C13_7 C 0.1999(6) 0.4475(11) 0.0929(6)
H7_7 H 0.1957 0.4417 0.1030
C14_7 C 0.2088(7) 0.4380(4) 0.0801(11)
H8_7 H 0.2106 0.4259 0.0816
N2_7 N 0.1824(6) 0.4790(8) 0.1113(6)
O5_7 O 0.1347(4) 0.5075(4) 0.1754(4)
C15_7 C 0.1468(5) 0.5129(5) 0.1652(5)
O6_7 O 0.1478(4) 0.5294(5) 0.1671(4)
C16_7 C 0.1557(6) 0.5054(11) 0.1508(5)
C17_7 C 0.1537(5) 0.4878(11) 0.1488(7)
H9_7 H 0.1461 0.4816 0.1563
C18_7 C 0.1626(9) 0.4792(4) 0.1360(10)
H10_7 H 0.1611 0.4670 0.1346
C19_7 C 0.1736(7) 0.4881(12) 0.1252(6)
C20_7 C 0.1753(5) 0.5058(11) 0.1270(7)
H11_7 H 0.1826 0.5121 0.1192
C21_7 C 0.1666(9) 0.5143(4) 0.1398(10)
H12_7 H 0.1680 0.5265 0.1412
N3_7 N 0.1881(6) 0.4725(9) 0.1057(7)
C22_7 C 0.10292(17) 0.47835(19) 0.22012(15)
N4_7 N 0.1034(2) 0.4615(2) 0.2269(2)
C23_7 C 0.0902(3) 0.4617(3) 0.2383(2)
H13_7 H 0.0873 0.4518 0.2451
N5_7 N 0.0812(2) 0.4767(4) 0.2396(2)
C24_7 C 0.08933(17) 0.4874(3) 0.22787(18)
N6_7 N 0.0847(2) 0.5041(3) 0.2241(3)
C25_7 C 0.0948(3) 0.5110(2) 0.2118(3)
H14_7 H 0.0920 0.5226 0.2085
N7_7 N 0.1082(3) 0.5038(2) 0.2035(2)
C26_7 C 0.11279(19) 0.4871(2) 0.20742(16)
N8_7 N 0.1264(2) 0.4802(3) 0.1989(2)
H15_7 H 0.1320 0.4864 0.1911
H16_7 H 0.1296 0.4694 0.2011
Zn1_7 Zn 0.12530(9) 0.52294(8) 0.19225(8)
Zn2_7 Zn 0.06578(10) 0.51863(9) 0.24071(9)
O7_10 O 0.0512(5) 0.5000 0.2500
O8_7 O 0.0766(4) 0.7116(4) 0.1523(3)
C27_7 C 0.0685(4) 0.6990(5) 0.1454(4)
O9_7 O 0.0585(3) 0.7041(4) 0.1333(4)
C28_7 C 0.0723(7) 0.6817(5) 0.1509(7)
C29_7 C 0.0841(6) 0.6797(7) 0.1640(6)
H17_7 H 0.0898 0.6895 0.1690
C30_7 C 0.0876(5) 0.6620(10) 0.1701(5)
H18_7 H 0.0947 0.6598 0.1800
C31_7 C 0.0801(8) 0.6486(6) 0.1609(8)
C32_7 C 0.0677(6) 0.6506(7) 0.1485(6)
H19_7 H 0.0617 0.6409 0.1438
C33_7 C 0.0638(4) 0.6685(9) 0.1428(4)
H20_7 H 0.0556 0.6708 0.1337
N9_7 N 0.0856(6) 0.6318(5) 0.1676(6)
O10_7 O 0.2294(4) 0.5537(4) 0.4634(5)
C34_7 C 0.2242(5) 0.5608(5) 0.4493(5)
O11_7 O 0.2262(3) 0.5774(4) 0.4491(3)
C35_7 C 0.2149(5) 0.5536(11) 0.4350(7)
C36_7 C 0.2123(6) 0.5357(11) 0.4369(6)
H21_7 H 0.2164 0.5299 0.4471
C37_7 C 0.2036(7) 0.5261(5) 0.4240(11)
H22_7 H 0.2019 0.5139 0.4253
C38_7 C 0.1974(4) 0.5346(11) 0.4090(8)
C39_7 C 0.1999(6) 0.5525(11) 0.4071(6)
H23_7 H 0.1957 0.5583 0.3970
C40_7 C 0.2088(7) 0.5620(4) 0.4199(11)
H24_7 H 0.2106 0.5741 0.4184
N10_7 N 0.1824(6) 0.5210(8) 0.3887(6)
O12_7 O 0.1347(4) 0.4925(4) 0.3246(4)
C41_7 C 0.1468(5) 0.4871(5) 0.3348(5)
O13_7 O 0.1478(4) 0.4706(5) 0.3329(4)
C42_7 C 0.1557(6) 0.4946(11) 0.3492(5)
C43_7 C 0.1537(5) 0.5122(11) 0.3512(7)
H25_7 H 0.1461 0.5184 0.3437
C44_7 C 0.1626(9) 0.5208(4) 0.3640(10)
H26_7 H 0.1611 0.5330 0.3654
C45_7 C 0.1736(7) 0.5119(12) 0.3748(6)
C46_7 C 0.1753(5) 0.4942(11) 0.3730(7)
H27_7 H 0.1826 0.4879 0.3808
C47_7 C 0.1666(9) 0.4857(4) 0.3602(10)
H28_7 H 0.1680 0.4735 0.3588
N11_7 N 0.1881(6) 0.5275(9) 0.3943(7)
C48_7 C 0.10292(17) 0.52165(19) 0.27988(15)
N12_7 N 0.1034(2) 0.5385(2) 0.2731(2)
C49_7 C 0.0902(3) 0.5383(3) 0.2617(2)
H29_7 H 0.0873 0.5482 0.2549
N13_7 N 0.0812(2) 0.5233(4) 0.2604(2)
C50_7 C 0.08933(17) 0.5126(3) 0.27213(18)
N14_7 N 0.0847(2) 0.4959(3) 0.2759(3)
C51_7 C 0.0948(3) 0.4890(2) 0.2882(3)
H30_7 H 0.0920 0.4774 0.2915
N15_7 N 0.1082(3) 0.4962(2) 0.2965(2)
C52_7 C 0.11279(19) 0.5129(2) 0.29258(16)
N16_7 N 0.1264(2) 0.5198(3) 0.3011(2)
H31_7 H 0.1320 0.5136 0.3089
H32_7 H 0.1296 0.5306 0.2989
Zn3_7 Zn 0.12530(9) 0.47706(8) 0.30775(8)
Zn4_7 Zn 0.06578(10) 0.48137(9) 0.25929(9)
O14_7 O 0.1167(4) 0.4541(4) 0.3085(3)
O15_7 O 0.0537(4) 0.5366(5) 0.2294(4)
O16_7 O 0.0537(4) 0.4634(5) 0.2706(4)
N17_7 N 0.1466(2) 0.5231(2) 0.2115(2)
N18_7 N 0.1466(2) 0.4769(2) 0.2885(2)
Zn5_7 Zn 0.05775(8) 0.72706(8) 0.12470(9)
Zn6_7 Zn 0.12470(9) 0.55775(8) 0.27294(8)
Zn7_7 Zn 0.12470(9) 0.44225(8) 0.22706(8)
Zn8_7 Zn 0.24071(9) 0.43422(10) 0.01863(9)
Zn9_7 Zn 0.24071(9) 0.56578(10) 0.48137(9)
O3_8 O 0.7294(4) 0.0537(4) 0.9634(5)
C8_8 C 0.7242(5) 0.0608(5) 0.9493(5)
O4_8 O 0.7262(3) 0.0774(4) 0.9491(3)
C9_8 C 0.7149(5) 0.0536(11) 0.9350(7)
C10_8 C 0.7123(6) 0.0357(11) 0.9369(6)
H5_8 H 0.7164 0.0299 0.9471
C11_8 C 0.7036(7) 0.0261(5) 0.9240(11)
H6_8 H 0.7019 0.0139 0.9253
C12_8 C 0.6974(4) 0.0346(11) 0.9090(8)
C13_8 C 0.6999(6) 0.0525(11) 0.9071(6)
H7_8 H 0.6957 0.0583 0.8970
C14_8 C 0.7088(7) 0.0620(4) 0.9199(11)
H8_8 H 0.7106 0.0741 0.9184
N2_8 N 0.6824(6) 0.0210(8) 0.8887(6)
C17_8 C 0.6537(5) 0.0122(11) 0.8512(7)
H9_8 H 0.6461 0.0184 0.8437
C18_8 C 0.6626(9) 0.0208(4) 0.8640(10)
H10_8 H 0.6611 0.0330 0.8654
C19_8 C 0.6736(7) 0.0119(12) 0.8748(6)
N3_8 N 0.6881(6) 0.0275(9) 0.8943(7)
C22_8 C 0.60292(17) 0.02165(19) 0.77988(15)
N4_8 N 0.6034(2) 0.0385(2) 0.7731(2)
C23_8 C 0.5902(3) 0.0383(3) 0.7617(2)
H13_8 H 0.5873 0.0482 0.7549
N5_8 N 0.5812(2) 0.0233(4) 0.7604(2)
C24_8 C 0.58933(17) 0.0126(3) 0.77213(18)
C26_8 C 0.61279(19) 0.0129(2) 0.79258(16)
N8_8 N 0.6264(2) 0.0198(3) 0.8011(2)
H15_8 H 0.6320 0.0136 0.8089
H16_8 H 0.6296 0.0306 0.7989
O7_11 O 0.5512(5) 0.0000 0.7500
O12_8 O 0.6347(4) 0.0075(4) 0.6754(4)
C41_8 C 0.6468(5) 0.0129(5) 0.6652(5)
O13_8 O 0.6478(4) 0.0294(5) 0.6671(4)
C42_8 C 0.6557(6) 0.0054(11) 0.6508(5)
C46_8 C 0.6753(5) 0.0058(11) 0.6270(7)
H27_8 H 0.6826 0.0121 0.6192
C47_8 C 0.6666(9) 0.0143(4) 0.6398(10)
H28_8 H 0.6680 0.0265 0.6412
N14_8 N 0.5847(2) 0.0041(3) 0.7241(3)
C51_8 C 0.5948(3) 0.0110(2) 0.7118(3)
H30_8 H 0.5920 0.0226 0.7085
N15_8 N 0.6082(3) 0.0038(2) 0.7035(2)
Zn3_8 Zn 0.62530(9) 0.02294(8) 0.69225(8)
Zn4_8 Zn 0.56578(10) 0.01863(9) 0.74071(9)
O14_8 O 0.6167(4) 0.0459(4) 0.6915(3)
O16_8 O 0.5537(4) 0.0366(5) 0.7294(4)
N18_8 N 0.6466(2) 0.0231(2) 0.7115(2)
Zn7_8 Zn 0.62470(9) 0.05775(8) 0.77294(8)
Zn8_8 Zn 0.74071(9) 0.06578(10) 0.98137(9)
O1_8 O 0.5977(3) 0.9616(4) 0.8266(4)
C1_8 C 0.6046(4) 0.9490(5) 0.8185(4)
O2_8 O 0.6167(4) 0.9541(4) 0.8085(3)
C2_8 C 0.5991(7) 0.9317(5) 0.8223(7)
C3_8 C 0.5860(6) 0.9297(7) 0.8341(6)
H1_8 H 0.5810 0.9395 0.8398
C4_8 C 0.5799(5) 0.9120(10) 0.8376(5)
H2_8 H 0.5700 0.9098 0.8447
C5_8 C 0.5891(8) 0.8986(6) 0.8301(8)
C6_8 C 0.6015(6) 0.9006(7) 0.8177(6)
H3_8 H 0.6062 0.8909 0.8117
C7_8 C 0.6072(4) 0.9185(9) 0.8138(4)
H4_8 H 0.6163 0.9208 0.8056
N1_8 N 0.5824(6) 0.8818(5) 0.8356(6)
O5_8 O 0.6347(4) 0.9925(4) 0.8246(4)
C15_8 C 0.6468(5) 0.9871(5) 0.8348(5)
O6_8 O 0.6478(4) 0.9706(5) 0.8329(4)
C16_8 C 0.6557(6) 0.9946(11) 0.8492(5)
C20_8 C 0.6753(5) 0.9942(11) 0.8730(7)
H11_8 H 0.6826 0.9879 0.8808
C21_8 C 0.6666(9) 0.9857(4) 0.8602(10)
H12_8 H 0.6680 0.9735 0.8588
N6_8 N 0.5847(2) 0.9959(3) 0.7759(3)
C25_8 C 0.5948(3) 0.9890(2) 0.7882(3)
H14_8 H 0.5920 0.9774 0.7915
N7_8 N 0.6082(3) 0.9962(2) 0.7965(2)
Zn1_8 Zn 0.62530(9) 0.97706(8) 0.80775(8)
Zn2_8 Zn 0.56578(10) 0.98137(9) 0.75929(9)
O7_12 O 0.5512(5) 1.0000 0.7500
O8_8 O 0.5766(4) 0.7884(4) 0.8477(3)
C27_8 C 0.5685(4) 0.8010(5) 0.8546(4)
O9_8 O 0.5585(3) 0.7959(4) 0.8667(4)
C28_8 C 0.5723(7) 0.8183(5) 0.8491(7)
C29_8 C 0.5841(6) 0.8203(7) 0.8360(6)
H17_8 H 0.5898 0.8105 0.8310
C30_8 C 0.5876(5) 0.8380(10) 0.8299(5)
H18_8 H 0.5947 0.8402 0.8200
C31_8 C 0.5801(8) 0.8514(6) 0.8391(8)
C32_8 C 0.5677(6) 0.8494(7) 0.8515(6)
H19_8 H 0.5617 0.8591 0.8562
C33_8 C 0.5638(4) 0.8315(9) 0.8572(4)
H20_8 H 0.5556 0.8292 0.8663
N9_8 N 0.5856(6) 0.8682(5) 0.8324(6)
O10_8 O 0.7294(4) 0.9463(4) 0.5366(5)
C34_8 C 0.7242(5) 0.9392(5) 0.5507(5)
O11_8 O 0.7262(3) 0.9226(4) 0.5509(3)
C35_8 C 0.7149(5) 0.9464(11) 0.5650(7)
C36_8 C 0.7123(6) 0.9643(11) 0.5631(6)
H21_8 H 0.7164 0.9701 0.5529
C37_8 C 0.7036(7) 0.9739(5) 0.5760(11)
H22_8 H 0.7019 0.9861 0.5747
C38_8 C 0.6974(4) 0.9654(11) 0.5910(8)
C39_8 C 0.6999(6) 0.9475(11) 0.5929(6)
H23_8 H 0.6957 0.9417 0.6030
C40_8 C 0.7088(7) 0.9380(4) 0.5801(11)
H24_8 H 0.7106 0.9259 0.5816
N10_8 N 0.6824(6) 0.9790(8) 0.6113(6)
C43_8 C 0.6537(5) 0.9878(11) 0.6488(7)
H25_8 H 0.6461 0.9816 0.6563
C44_8 C 0.6626(9) 0.9792(4) 0.6360(10)
H26_8 H 0.6611 0.9670 0.6346
C45_8 C 0.6736(7) 0.9881(12) 0.6252(6)
N11_8 N 0.6881(6) 0.9725(9) 0.6057(7)
C48_8 C 0.60292(17) 0.97835(19) 0.72012(15)
N12_8 N 0.6034(2) 0.9615(2) 0.7269(2)
C49_8 C 0.5902(3) 0.9617(3) 0.7383(2)
H29_8 H 0.5873 0.9518 0.7451
N13_8 N 0.5812(2) 0.9767(4) 0.7396(2)
C50_8 C 0.58933(17) 0.9874(3) 0.72787(18)
C52_8 C 0.61279(19) 0.9871(2) 0.70742(16)
N16_8 N 0.6264(2) 0.9802(3) 0.6989(2)
H31_8 H 0.6320 0.9864 0.6911
H32_8 H 0.6296 0.9694 0.7011
O15_8 O 0.5537(4) 0.9634(5) 0.7706(4)
N17_8 N 0.6466(2) 0.9769(2) 0.7885(2)
Zn5_8 Zn 0.55775(8) 0.77294(8) 0.87530(9)
Zn6_8 Zn 0.62470(9) 0.94225(8) 0.72706(8)
Zn9_8 Zn 0.74071(9) 0.93422(10) 0.51863(9)
O1_9 O 0.6734(4) 0.4023(3) 0.4616(4)
C1_9 C 0.6815(4) 0.3954(4) 0.4490(5)
O2_9 O 0.6915(3) 0.3833(4) 0.4541(4)
C2_9 C 0.6777(7) 0.4009(7) 0.4317(5)
C3_9 C 0.6659(6) 0.4140(6) 0.4297(7)
H1_9 H 0.6602 0.4190 0.4395
C4_9 C 0.6624(5) 0.4201(5) 0.4120(10)
H2_9 H 0.6553 0.4300 0.4098
C5_9 C 0.6699(8) 0.4109(8) 0.3986(6)
C6_9 C 0.6823(6) 0.3985(6) 0.4006(7)
H3_9 H 0.6883 0.3938 0.3909
C7_9 C 0.6862(4) 0.3928(4) 0.4185(9)
H4_9 H 0.6944 0.3837 0.4208
N1_9 N 0.6644(6) 0.4176(6) 0.3818(5)
O3_9 O 0.5366(5) 0.2706(4) 0.5537(4)
C8_9 C 0.5507(5) 0.2758(5) 0.5608(5)
O4_9 O 0.5509(3) 0.2738(3) 0.5774(4)
C9_9 C 0.5650(7) 0.2851(5) 0.5536(11)
C10_9 C 0.5631(6) 0.2877(6) 0.5357(11)
H5_9 H 0.5529 0.2836 0.5299
C11_9 C 0.5760(11) 0.2964(7) 0.5261(5)
H6_9 H 0.5747 0.2981 0.5139
C12_9 C 0.5910(8) 0.3026(4) 0.5346(11)
C13_9 C 0.5929(6) 0.3001(6) 0.5525(11)
H7_9 H 0.6030 0.3043 0.5583
C14_9 C 0.5801(11) 0.2912(7) 0.5620(4)
H8_9 H 0.5816 0.2894 0.5741
N2_9 N 0.6113(6) 0.3176(6) 0.5210(8)
O5_9 O 0.6754(4) 0.3653(4) 0.4925(4)
C15_9 C 0.6652(5) 0.3532(5) 0.4871(5)
O6_9 O 0.6671(4) 0.3522(4) 0.4706(5)
C16_9 C 0.6508(5) 0.3443(6) 0.4946(11)
C17_9 C 0.6488(7) 0.3463(5) 0.5122(11)
H9_9 H 0.6563 0.3539 0.5184
C18_9 C 0.6360(10) 0.3374(9) 0.5208(4)
H10_9 H 0.6346 0.3389 0.5330
C19_9 C 0.6252(6) 0.3264(7) 0.5119(12)
C20_9 C 0.6270(7) 0.3247(5) 0.4942(11)
H11_9 H 0.6192 0.3174 0.4879
C21_9 C 0.6398(10) 0.3334(9) 0.4857(4)
H12_9 H 0.6412 0.3320 0.4735
N3_9 N 0.6057(7) 0.3119(6) 0.5275(9)
C22_9 C 0.72012(15) 0.39708(17) 0.52165(19)
N4_9 N 0.7269(2) 0.3966(2) 0.5385(2)
C23_9 C 0.7383(2) 0.4098(3) 0.5383(3)
H13_9 H 0.7451 0.4127 0.5482
N5_9 N 0.7396(2) 0.4188(2) 0.5233(4)
C24_9 C 0.72787(18) 0.41067(17) 0.5126(3)
N6_9 N 0.7241(3) 0.4153(2) 0.4959(3)
C25_9 C 0.7118(3) 0.4052(3) 0.4890(2)
H14_9 H 0.7085 0.4080 0.4774
N7_9 N 0.7035(2) 0.3918(3) 0.4962(2)
C26_9 C 0.70742(16) 0.38721(19) 0.5129(2)
N8_9 N 0.6989(2) 0.3736(2) 0.5198(3)
H15_9 H 0.6911 0.3680 0.5136
H16_9 H 0.7011 0.3704 0.5306
Zn1_9 Zn 0.69225(8) 0.37470(9) 0.47706(8)
Zn2_9 Zn 0.74071(9) 0.43422(10) 0.48137(9)
O7_13 O 0.7500 0.4488(5) 0.5000
O8_9 O 0.6523(3) 0.4234(4) 0.2884(4)
C27_9 C 0.6454(4) 0.4315(4) 0.3010(5)
O9_9 O 0.6333(4) 0.4415(3) 0.2959(4)
C28_9 C 0.6509(7) 0.4277(7) 0.3183(5)
C29_9 C 0.6640(6) 0.4159(6) 0.3203(7)
H17_9 H 0.6690 0.4102 0.3105
C30_9 C 0.6701(5) 0.4124(5) 0.3380(10)
H18_9 H 0.6800 0.4053 0.3402
C31_9 C 0.6609(8) 0.4199(8) 0.3514(6)
C32_9 C 0.6485(6) 0.4323(6) 0.3494(7)
H19_9 H 0.6438 0.4383 0.3591
C33_9 C 0.6428(4) 0.4362(4) 0.3315(9)
H20_9 H 0.6337 0.4444 0.3292
N9_9 N 0.6676(6) 0.4144(6) 0.3682(5)
O10_9 O 0.9634(5) 0.2706(4) 0.4463(4)
C34_9 C 0.9493(5) 0.2758(5) 0.4392(5)
O11_9 O 0.9491(3) 0.2738(3) 0.4226(4)
C35_9 C 0.9350(7) 0.2851(5) 0.4464(11)
C36_9 C 0.9369(6) 0.2877(6) 0.4643(11)
H21_9 H 0.9471 0.2836 0.4701
C37_9 C 0.9240(11) 0.2964(7) 0.4739(5)
H22_9 H 0.9253 0.2981 0.4861
C38_9 C 0.9090(8) 0.3026(4) 0.4654(11)
C39_9 C 0.9071(6) 0.3001(6) 0.4475(11)
H23_9 H 0.8970 0.3043 0.4417
C40_9 C 0.9199(11) 0.2912(7) 0.4380(4)
H24_9 H 0.9184 0.2894 0.4259
N10_9 N 0.8887(6) 0.3176(6) 0.4790(8)
O12_9 O 0.8246(4) 0.3653(4) 0.5075(4)
C41_9 C 0.8348(5) 0.3532(5) 0.5129(5)
O13_9 O 0.8329(4) 0.3522(4) 0.5294(5)
C42_9 C 0.8492(5) 0.3443(6) 0.5054(11)
C43_9 C 0.8512(7) 0.3463(5) 0.4878(11)
H25_9 H 0.8437 0.3539 0.4816
C44_9 C 0.8640(10) 0.3374(9) 0.4792(4)
H26_9 H 0.8654 0.3389 0.4670
C45_9 C 0.8748(6) 0.3264(7) 0.4881(12)
C46_9 C 0.8730(7) 0.3247(5) 0.5058(11)
H27_9 H 0.8808 0.3174 0.5121
C47_9 C 0.8602(10) 0.3334(9) 0.5143(4)
H28_9 H 0.8588 0.3320 0.5265
N11_9 N 0.8943(7) 0.3119(6) 0.4725(9)
C48_9 C 0.77988(15) 0.39708(17) 0.47835(19)
N12_9 N 0.7731(2) 0.3966(2) 0.4615(2)
C49_9 C 0.7617(2) 0.4098(3) 0.4617(3)
H29_9 H 0.7549 0.4127 0.4518
N13_9 N 0.7604(2) 0.4188(2) 0.4767(4)
C50_9 C 0.77213(18) 0.41067(17) 0.4874(3)
N14_9 N 0.7759(3) 0.4153(2) 0.5041(3)
C51_9 C 0.7882(3) 0.4052(3) 0.5110(2)
H30_9 H 0.7915 0.4080 0.5226
N15_9 N 0.7965(2) 0.3918(3) 0.5038(2)
C52_9 C 0.79258(16) 0.38721(19) 0.4871(2)
N16_9 N 0.8011(2) 0.3736(2) 0.4802(3)
H31_9 H 0.8089 0.3680 0.4864
H32_9 H 0.7989 0.3704 0.4694
Zn3_9 Zn 0.80775(8) 0.37470(9) 0.52294(8)
Zn4_9 Zn 0.75929(9) 0.43422(10) 0.51863(9)
O14_9 O 0.8085(3) 0.3833(4) 0.5459(4)
O15_9 O 0.7294(4) 0.4463(4) 0.4634(5)
O16_9 O 0.7706(4) 0.4463(4) 0.5366(5)
N17_9 N 0.7115(2) 0.3534(2) 0.4769(2)
N18_9 N 0.7885(2) 0.3534(2) 0.5231(2)
Zn5_9 Zn 0.62470(9) 0.44225(8) 0.27294(8)
Zn6_9 Zn 0.77294(8) 0.37530(9) 0.44225(8)
Zn7_9 Zn 0.72706(8) 0.37530(9) 0.55775(8)
Zn8_9 Zn 0.51863(9) 0.25929(9) 0.56578(10)
Zn9_9 Zn 0.98137(9) 0.25929(9) 0.43422(10)
O1_10 O 0.3266(4) 0.9023(3) 0.0384(4)
C1_10 C 0.3185(4) 0.8954(4) 0.0510(5)
O2_10 O 0.3085(3) 0.8833(4) 0.0459(4)
C2_10 C 0.3223(7) 0.9009(7) 0.0683(5)
C3_10 C 0.3341(6) 0.9140(6) 0.0703(7)
H1_10 H 0.3398 0.9190 0.0605
C4_10 C 0.3376(5) 0.9201(5) 0.0880(10)
H2_10 H 0.3447 0.9300 0.0902
C5_10 C 0.3301(8) 0.9109(8) 0.1014(6)
C6_10 C 0.3177(6) 0.8985(6) 0.0994(7)
H3_10 H 0.3117 0.8938 0.1091
C7_10 C 0.3138(4) 0.8928(4) 0.0815(9)
H4_10 H 0.3056 0.8837 0.0792
N1_10 N 0.3356(6) 0.9176(6) 0.1182(5)
O5_10 O 0.3246(4) 0.8653(4) 0.0075(4)
C15_10 C 0.3348(5) 0.8532(5) 0.0129(5)
O6_10 O 0.3329(4) 0.8522(4) 0.0294(5)
C16_10 C 0.3492(5) 0.8443(6) 0.0054(11)
C20_10 C 0.3730(7) 0.8247(5) 0.0058(11)
H11_10 H 0.3808 0.8174 0.0121
C21_10 C 0.3602(10) 0.8334(9) 0.0143(4)
H12_10 H 0.3588 0.8320 0.0265
N6_10 N 0.2759(3) 0.9153(2) 0.0041(3)
C25_10 C 0.2882(3) 0.9052(3) 0.0110(2)
H14_10 H 0.2915 0.9080 0.0226
N7_10 N 0.2965(2) 0.8918(3) 0.0038(2)
Zn1_10 Zn 0.30775(8) 0.87470(9) 0.02294(8)
Zn2_10 Zn 0.25929(9) 0.93422(10) 0.01863(9)
O7_14 O 0.2500 0.9488(5) -0.0000
O8_10 O 0.3477(3) 0.9234(4) 0.2116(4)
C27_10 C 0.3546(4) 0.9315(4) 0.1990(5)
O9_10 O 0.3667(4) 0.9415(3) 0.2041(4)
C28_10 C 0.3491(7) 0.9277(7) 0.1817(5)
C29_10 C 0.3360(6) 0.9159(6) 0.1797(7)
H17_10 H 0.3310 0.9102 0.1895
C30_10 C 0.3299(5) 0.9124(5) 0.1620(10)
H18_10 H 0.3200 0.9053 0.1598
C31_10 C 0.3391(8) 0.9199(8) 0.1486(6)
C32_10 C 0.3515(6) 0.9323(6) 0.1506(7)
H19_10 H 0.3562 0.9383 0.1409
C33_10 C 0.3572(4) 0.9362(4) 0.1685(9)
H20_10 H 0.3663 0.9444 0.1708
N9_10 N 0.3324(6) 0.9144(6) 0.1318(5)
O10_10 O 0.0366(5) 0.7706(4) 0.0537(4)
C34_10 C 0.0507(5) 0.7758(5) 0.0608(5)
O11_10 O 0.0509(3) 0.7738(3) 0.0774(4)
C35_10 C 0.0650(7) 0.7851(5) 0.0536(11)
C36_10 C 0.0631(6) 0.7877(6) 0.0357(11)
H21_10 H 0.0529 0.7836 0.0299
C37_10 C 0.0760(11) 0.7964(7) 0.0261(5)
H22_10 H 0.0747 0.7981 0.0139
C38_10 C 0.0910(8) 0.8026(4) 0.0346(11)
C39_10 C 0.0929(6) 0.8001(6) 0.0525(11)
H23_10 H 0.1030 0.8043 0.0583
C40_10 C 0.0801(11) 0.7912(7) 0.0620(4)
H24_10 H 0.0816 0.7894 0.0741
N10_10 N 0.1113(6) 0.8176(6) 0.0210(8)
C43_10 C 0.1488(7) 0.8463(5) 0.0122(11)
H25_10 H 0.1563 0.8539 0.0184
C44_10 C 0.1360(10) 0.8374(9) 0.0208(4)
H26_10 H 0.1346 0.8389 0.0330
C45_10 C 0.1252(6) 0.8264(7) 0.0119(12)
N11_10 N 0.1057(7) 0.8119(6) 0.0275(9)
C48_10 C 0.22012(15) 0.89708(17) 0.02165(19)
N12_10 N 0.2269(2) 0.8966(2) 0.0385(2)
C49_10 C 0.2383(2) 0.9098(3) 0.0383(3)
H29_10 H 0.2451 0.9127 0.0482
N13_10 N 0.2396(2) 0.9188(2) 0.0233(4)
C50_10 C 0.22787(18) 0.91067(17) 0.0126(3)
C52_10 C 0.20742(16) 0.88721(19) 0.0129(2)
N16_10 N 0.1989(2) 0.8736(2) 0.0198(3)
H31_10 H 0.1911 0.8680 0.0136
H32_10 H 0.2011 0.8704 0.0306
O15_10 O 0.2706(4) 0.9463(4) 0.0366(5)
N17_10 N 0.2885(2) 0.8534(2) 0.0231(2)
Zn5_10 Zn 0.37530(9) 0.94225(8) 0.22706(8)
Zn6_10 Zn 0.22706(8) 0.87530(9) 0.05775(8)
Zn9_10 Zn 0.01863(9) 0.75929(9) 0.06578(10)
O3_10 O 0.4634(5) 0.7706(4) 0.9463(4)
C8_10 C 0.4493(5) 0.7758(5) 0.9392(5)
O4_10 O 0.4491(3) 0.7738(3) 0.9226(4)
C9_10 C 0.4350(7) 0.7851(5) 0.9464(11)
C10_10 C 0.4369(6) 0.7877(6) 0.9643(11)
H5_10 H 0.4471 0.7836 0.9701
C11_10 C 0.4240(11) 0.7964(7) 0.9739(5)
H6_10 H 0.4253 0.7981 0.9861
C12_10 C 0.4090(8) 0.8026(4) 0.9654(11)
C13_10 C 0.4071(6) 0.8001(6) 0.9475(11)
H7_10 H 0.3970 0.8043 0.9417
C14_10 C 0.4199(11) 0.7912(7) 0.9380(4)
H8_10 H 0.4184 0.7894 0.9259
N2_10 N 0.3887(6) 0.8176(6) 0.9790(8)
C17_10 C 0.3512(7) 0.8463(5) 0.9878(11)
H9_10 H 0.3437 0.8539 0.9816
C18_10 C 0.3640(10) 0.8374(9) 0.9792(4)
H10_10 H 0.3654 0.8389 0.9670
C19_10 C 0.3748(6) 0.8264(7) 0.9881(12)
N3_10 N 0.3943(7) 0.8119(6) 0.9725(9)
C22_10 C 0.27988(15) 0.89708(17) 0.97835(19)
N4_10 N 0.2731(2) 0.8966(2) 0.9615(2)
C23_10 C 0.2617(2) 0.9098(3) 0.9617(3)
H13_10 H 0.2549 0.9127 0.9518
N5_10 N 0.2604(2) 0.9188(2) 0.9767(4)
C24_10 C 0.27213(18) 0.91067(17) 0.9874(3)
C26_10 C 0.29258(16) 0.88721(19) 0.9871(2)
N8_10 N 0.3011(2) 0.8736(2) 0.9802(3)
H15_10 H 0.3089 0.8680 0.9864
H16_10 H 0.2989 0.8704 0.9694
O7_15 O 0.2500 0.9488(5) 1.0000
O12_10 O 0.1754(4) 0.8653(4) 0.9925(4)
C41_10 C 0.1652(5) 0.8532(5) 0.9871(5)
O13_10 O 0.1671(4) 0.8522(4) 0.9706(5)
C42_10 C 0.1508(5) 0.8443(6) 0.9946(11)
C46_10 C 0.1270(7) 0.8247(5) 0.9942(11)
H27_10 H 0.1192 0.8174 0.9879
C47_10 C 0.1398(10) 0.8334(9) 0.9857(4)
H28_10 H 0.1412 0.8320 0.9735
N14_10 N 0.2241(3) 0.9153(2) 0.9959(3)
C51_10 C 0.2118(3) 0.9052(3) 0.9890(2)
H30_10 H 0.2085 0.9080 0.9774
N15_10 N 0.2035(2) 0.8918(3) 0.9962(2)
Zn3_10 Zn 0.19225(8) 0.87470(9) 0.97706(8)
Zn4_10 Zn 0.24071(9) 0.93422(10) 0.98137(9)
O14_10 O 0.1915(3) 0.8833(4) 0.9541(4)
O16_10 O 0.2294(4) 0.9463(4) 0.9634(5)
N18_10 N 0.2115(2) 0.8534(2) 0.9769(2)
Zn7_10 Zn 0.27294(8) 0.87530(9) 0.94225(8)
Zn8_10 Zn 0.48137(9) 0.75929(9) 0.93422(10)
O1_11 O 0.1734(4) 0.0977(3) 0.5384(4)
C1_11 C 0.1815(4) 0.1046(4) 0.5510(5)
O2_11 O 0.1915(3) 0.1167(4) 0.5459(4)
C2_11 C 0.1777(7) 0.0991(7) 0.5683(5)
C3_11 C 0.1659(6) 0.0860(6) 0.5703(7)
H1_11 H 0.1602 0.0810 0.5605
C4_11 C 0.1624(5) 0.0799(5) 0.5880(10)
H2_11 H 0.1553 0.0700 0.5902
C5_11 C 0.1699(8) 0.0891(8) 0.6014(6)
C6_11 C 0.1823(6) 0.1015(6) 0.5994(7)
H3_11 H 0.1883 0.1062 0.6091
C7_11 C 0.1862(4) 0.1072(4) 0.5815(9)
H4_11 H 0.1944 0.1163 0.5792
N1_11 N 0.1644(6) 0.0824(6) 0.6182(5)
O3_11 O 0.0366(5) 0.2294(4) 0.4463(4)
C8_11 C 0.0507(5) 0.2242(5) 0.4392(5)
O4_11 O 0.0509(3) 0.2262(3) 0.4226(4)
C9_11 C 0.0650(7) 0.2149(5) 0.4464(11)
C10_11 C 0.0631(6) 0.2123(6) 0.4643(11)
H5_11 H 0.0529 0.2164 0.4701
C11_11 C 0.0760(11) 0.2036(7) 0.4739(5)
H6_11 H 0.0747 0.2019 0.4861
C12_11 C 0.0910(8) 0.1974(4) 0.4654(11)
C13_11 C 0.0929(6) 0.1999(6) 0.4475(11)
H7_11 H 0.1030 0.1957 0.4417
C14_11 C 0.0801(11) 0.2088(7) 0.4380(4)
H8_11 H 0.0816 0.2106 0.4259
N2_11 N 0.1113(6) 0.1824(6) 0.4790(8)
O5_11 O 0.1754(4) 0.1347(4) 0.5075(4)
C15_11 C 0.1652(5) 0.1468(5) 0.5129(5)
O6_11 O 0.1671(4) 0.1478(4) 0.5294(5)
C16_11 C 0.1508(5) 0.1557(6) 0.5054(11)
C17_11 C 0.1488(7) 0.1537(5) 0.4878(11)
H9_11 H 0.1563 0.1461 0.4816
C18_11 C 0.1360(10) 0.1626(9) 0.4792(4)
H10_11 H 0.1346 0.1611 0.4670
C19_11 C 0.1252(6) 0.1736(7) 0.4881(12)
C20_11 C 0.1270(7) 0.1753(5) 0.5058(11)
H11_11 H 0.1192 0.1826 0.5121
C21_11 C 0.1398(10) 0.1666(9) 0.5143(4)
H12_11 H 0.1412 0.1680 0.5265
N3_11 N 0.1057(7) 0.1881(6) 0.4725(9)
C22_11 C 0.22012(15) 0.10292(17) 0.47835(19)
N4_11 N 0.2269(2) 0.1034(2) 0.4615(2)
C23_11 C 0.2383(2) 0.0902(3) 0.4617(3)
H13_11 H 0.2451 0.0873 0.4518
N5_11 N 0.2396(2) 0.0812(2) 0.4767(4)
C24_11 C 0.22787(18) 0.08933(17) 0.4874(3)
N6_11 N 0.2241(3) 0.0847(2) 0.5041(3)
C25_11 C 0.2118(3) 0.0948(3) 0.5110(2)
H14_11 H 0.2085 0.0920 0.5226
N7_11 N 0.2035(2) 0.1082(3) 0.5038(2)
C26_11 C 0.20742(16) 0.11279(19) 0.4871(2)
N8_11 N 0.1989(2) 0.1264(2) 0.4802(3)
H15_11 H 0.1911 0.1320 0.4864
H16_11 H 0.2011 0.1296 0.4694
Zn1_11 Zn 0.19225(8) 0.12530(9) 0.52294(8)
Zn2_11 Zn 0.24071(9) 0.06578(10) 0.51863(9)
O7_16 O 0.2500 0.0512(5) 0.5000
O8_11 O 0.1523(3) 0.0766(4) 0.7116(4)
C27_11 C 0.1454(4) 0.0685(4) 0.6990(5)
O9_11 O 0.1333(4) 0.0585(3) 0.7041(4)
C28_11 C 0.1509(7) 0.0723(7) 0.6817(5)
C29_11 C 0.1640(6) 0.0841(6) 0.6797(7)
H17_11 H 0.1690 0.0898 0.6895
C30_11 C 0.1701(5) 0.0876(5) 0.6620(10)
H18_11 H 0.1800 0.0947 0.6598
C31_11 C 0.1609(8) 0.0801(8) 0.6486(6)
C32_11 C 0.1485(6) 0.0677(6) 0.6506(7)
H19_11 H 0.1438 0.0617 0.6409
C33_11 C 0.1428(4) 0.0638(4) 0.6685(9)
H20_11 H 0.1337 0.0556 0.6708
N9_11 N 0.1676(6) 0.0856(6) 0.6318(5)
O10_11 O 0.4634(5) 0.2294(4) 0.5537(4)
C34_11 C 0.4493(5) 0.2242(5) 0.5608(5)
O11_11 O 0.4491(3) 0.2262(3) 0.5774(4)
C35_11 C 0.4350(7) 0.2149(5) 0.5536(11)
C36_11 C 0.4369(6) 0.2123(6) 0.5357(11)
H21_11 H 0.4471 0.2164 0.5299
C37_11 C 0.4240(11) 0.2036(7) 0.5261(5)
H22_11 H 0.4253 0.2019 0.5139
C38_11 C 0.4090(8) 0.1974(4) 0.5346(11)
C39_11 C 0.4071(6) 0.1999(6) 0.5525(11)
H23_11 H 0.3970 0.1957 0.5583
C40_11 C 0.4199(11) 0.2088(7) 0.5620(4)
H24_11 H 0.4184 0.2106 0.5741
N10_11 N 0.3887(6) 0.1824(6) 0.5210(8)
O12_11 O 0.3246(4) 0.1347(4) 0.4925(4)
C41_11 C 0.3348(5) 0.1468(5) 0.4871(5)
O13_11 O 0.3329(4) 0.1478(4) 0.4706(5)
C42_11 C 0.3492(5) 0.1557(6) 0.4946(11)
C43_11 C 0.3512(7) 0.1537(5) 0.5122(11)
H25_11 H 0.3437 0.1461 0.5184
C44_11 C 0.3640(10) 0.1626(9) 0.5208(4)
H26_11 H 0.3654 0.1611 0.5330
C45_11 C 0.3748(6) 0.1736(7) 0.5119(12)
C46_11 C 0.3730(7) 0.1753(5) 0.4942(11)
H27_11 H 0.3808 0.1826 0.4879
C47_11 C 0.3602(10) 0.1666(9) 0.4857(4)
H28_11 H 0.3588 0.1680 0.4735
N11_11 N 0.3943(7) 0.1881(6) 0.5275(9)
C48_11 C 0.27988(15) 0.10292(17) 0.52165(19)
N12_11 N 0.2731(2) 0.1034(2) 0.5385(2)
C49_11 C 0.2617(2) 0.0902(3) 0.5383(3)
H29_11 H 0.2549 0.0873 0.5482
N13_11 N 0.2604(2) 0.0812(2) 0.5233(4)
C50_11 C 0.27213(18) 0.08933(17) 0.5126(3)
N14_11 N 0.2759(3) 0.0847(2) 0.4959(3)
C51_11 C 0.2882(3) 0.0948(3) 0.4890(2)
H30_11 H 0.2915 0.0920 0.4774
N15_11 N 0.2965(2) 0.1082(3) 0.4962(2)
C52_11 C 0.29258(16) 0.11279(19) 0.5129(2)
N16_11 N 0.3011(2) 0.1264(2) 0.5198(3)
H31_11 H 0.3089 0.1320 0.5136
H32_11 H 0.2989 0.1296 0.5306
Zn3_11 Zn 0.30775(8) 0.12530(9) 0.47706(8)
Zn4_11 Zn 0.25929(9) 0.06578(10) 0.48137(9)
O14_11 O 0.3085(3) 0.1167(4) 0.4541(4)
O15_11 O 0.2294(4) 0.0537(4) 0.5366(5)
O16_11 O 0.2706(4) 0.0537(4) 0.4634(5)
N17_11 N 0.2115(2) 0.1466(2) 0.5231(2)
N18_11 N 0.2885(2) 0.1466(2) 0.4769(2)
Zn5_11 Zn 0.12470(9) 0.05775(8) 0.72706(8)
Zn6_11 Zn 0.27294(8) 0.12470(9) 0.55775(8)
Zn7_11 Zn 0.22706(8) 0.12470(9) 0.44225(8)
Zn8_11 Zn 0.01863(9) 0.24071(9) 0.43422(10)
Zn9_11 Zn 0.48137(9) 0.24071(9) 0.56578(10)
O3_12 O 0.9634(5) 0.7294(4) 0.0537(4)
C8_12 C 0.9493(5) 0.7242(5) 0.0608(5)
O4_12 O 0.9491(3) 0.7262(3) 0.0774(4)
C9_12 C 0.9350(7) 0.7149(5) 0.0536(11)
C10_12 C 0.9369(6) 0.7123(6) 0.0357(11)
H5_12 H 0.9471 0.7164 0.0299
C11_12 C 0.9240(11) 0.7036(7) 0.0261(5)
H6_12 H 0.9253 0.7019 0.0139
C12_12 C 0.9090(8) 0.6974(4) 0.0346(11)
C13_12 C 0.9071(6) 0.6999(6) 0.0525(11)
H7_12 H 0.8970 0.6957 0.0583
C14_12 C 0.9199(11) 0.7088(7) 0.0620(4)
H8_12 H 0.9184 0.7106 0.0741
N2_12 N 0.8887(6) 0.6824(6) 0.0210(8)
C17_12 C 0.8512(7) 0.6537(5) 0.0122(11)
H9_12 H 0.8437 0.6461 0.0184
C18_12 C 0.8640(10) 0.6626(9) 0.0208(4)
H10_12 H 0.8654 0.6611 0.0330
C19_12 C 0.8748(6) 0.6736(7) 0.0119(12)
N3_12 N 0.8943(7) 0.6881(6) 0.0275(9)
C22_12 C 0.77988(15) 0.60292(17) 0.02165(19)
N4_12 N 0.7731(2) 0.6034(2) 0.0385(2)
C23_12 C 0.7617(2) 0.5902(3) 0.0383(3)
H13_12 H 0.7549 0.5873 0.0482
N5_12 N 0.7604(2) 0.5812(2) 0.0233(4)
C24_12 C 0.77213(18) 0.58933(17) 0.0126(3)
C26_12 C 0.79258(16) 0.61279(19) 0.0129(2)
N8_12 N 0.8011(2) 0.6264(2) 0.0198(3)
H15_12 H 0.8089 0.6320 0.0136
H16_12 H 0.7989 0.6296 0.0306
O7_17 O 0.7500 0.5512(5) 0.0000
O12_12 O 0.6754(4) 0.6347(4) 0.0075(4)
C41_12 C 0.6652(5) 0.6468(5) 0.0129(5)
O13_12 O 0.6671(4) 0.6478(4) 0.0294(5)
C42_12 C 0.6508(5) 0.6557(6) 0.0054(11)
C46_12 C 0.6270(7) 0.6753(5) 0.0058(11)
H27_12 H 0.6192 0.6826 0.0121
C47_12 C 0.6398(10) 0.6666(9) 0.0143(4)
H28_12 H 0.6412 0.6680 0.0265
N14_12 N 0.7241(3) 0.5847(2) 0.0041(3)
C51_12 C 0.7118(3) 0.5948(3) 0.0110(2)
H30_12 H 0.7085 0.5920 0.0226
N15_12 N 0.7035(2) 0.6082(3) 0.0038(2)
Zn3_12 Zn 0.69225(8) 0.62530(9) 0.02294(8)
Zn4_12 Zn 0.74071(9) 0.56578(10) 0.01863(9)
O14_12 O 0.6915(3) 0.6167(4) 0.0459(4)
O16_12 O 0.7294(4) 0.5537(4) 0.0366(5)
N18_12 N 0.7115(2) 0.6466(2) 0.0231(2)
Zn7_12 Zn 0.77294(8) 0.62470(9) 0.05775(8)
Zn8_12 Zn 0.98137(9) 0.74071(9) 0.06578(10)
O1_12 O 0.8266(4) 0.5977(3) 0.9616(4)
C1_12 C 0.8185(4) 0.6046(4) 0.9490(5)
O2_12 O 0.8085(3) 0.6167(4) 0.9541(4)
C2_12 C 0.8223(7) 0.5991(7) 0.9317(5)
C3_12 C 0.8341(6) 0.5860(6) 0.9297(7)
H1_12 H 0.8398 0.5810 0.9395
C4_12 C 0.8376(5) 0.5799(5) 0.9120(10)
H2_12 H 0.8447 0.5700 0.9098
C5_12 C 0.8301(8) 0.5891(8) 0.8986(6)
C6_12 C 0.8177(6) 0.6015(6) 0.9006(7)
H3_12 H 0.8117 0.6062 0.8909
C7_12 C 0.8138(4) 0.6072(4) 0.9185(9)
H4_12 H 0.8056 0.6163 0.9208
N1_12 N 0.8356(6) 0.5824(6) 0.8818(5)
O5_12 O 0.8246(4) 0.6347(4) 0.9925(4)
C15_12 C 0.8348(5) 0.6468(5) 0.9871(5)
O6_12 O 0.8329(4) 0.6478(4) 0.9706(5)
C16_12 C 0.8492(5) 0.6557(6) 0.9946(11)
C20_12 C 0.8730(7) 0.6753(5) 0.9942(11)
H11_12 H 0.8808 0.6826 0.9879
C21_12 C 0.8602(10) 0.6666(9) 0.9857(4)
H12_12 H 0.8588 0.6680 0.9735
N6_12 N 0.7759(3) 0.5847(2) 0.9959(3)
C25_12 C 0.7882(3) 0.5948(3) 0.9890(2)
H14_12 H 0.7915 0.5920 0.9774
N7_12 N 0.7965(2) 0.6082(3) 0.9962(2)
Zn1_12 Zn 0.80775(8) 0.62530(9) 0.97706(8)
Zn2_12 Zn 0.75929(9) 0.56578(10) 0.98137(9)
O7_18 O 0.7500 0.5512(5) 1.0000
O8_12 O 0.8477(3) 0.5766(4) 0.7884(4)
C27_12 C 0.8546(4) 0.5685(4) 0.8010(5)
O9_12 O 0.8667(4) 0.5585(3) 0.7959(4)
C28_12 C 0.8491(7) 0.5723(7) 0.8183(5)
C29_12 C 0.8360(6) 0.5841(6) 0.8203(7)
H17_12 H 0.8310 0.5898 0.8105
C30_12 C 0.8299(5) 0.5876(5) 0.8380(10)
H18_12 H 0.8200 0.5947 0.8402
C31_12 C 0.8391(8) 0.5801(8) 0.8514(6)
C32_12 C 0.8515(6) 0.5677(6) 0.8494(7)
H19_12 H 0.8562 0.5617 0.8591
C33_12 C 0.8572(4) 0.5638(4) 0.8315(9)
H20_12 H 0.8663 0.5556 0.8292
N9_12 N 0.8324(6) 0.5856(6) 0.8682(5)
O10_12 O 0.5366(5) 0.7294(4) 0.9463(4)
C34_12 C 0.5507(5) 0.7242(5) 0.9392(5)
O11_12 O 0.5509(3) 0.7262(3) 0.9226(4)
C35_12 C 0.5650(7) 0.7149(5) 0.9464(11)
C36_12 C 0.5631(6) 0.7123(6) 0.9643(11)
H21_12 H 0.5529 0.7164 0.9701
C37_12 C 0.5760(11) 0.7036(7) 0.9739(5)
H22_12 H 0.5747 0.7019 0.9861
C38_12 C 0.5910(8) 0.6974(4) 0.9654(11)
C39_12 C 0.5929(6) 0.6999(6) 0.9475(11)
H23_12 H 0.6030 0.6957 0.9417
C40_12 C 0.5801(11) 0.7088(7) 0.9380(4)
H24_12 H 0.5816 0.7106 0.9259
N10_12 N 0.6113(6) 0.6824(6) 0.9790(8)
C43_12 C 0.6488(7) 0.6537(5) 0.9878(11)
H25_12 H 0.6563 0.6461 0.9816
C44_12 C 0.6360(10) 0.6626(9) 0.9792(4)
H26_12 H 0.6346 0.6611 0.9670
C45_12 C 0.6252(6) 0.6736(7) 0.9881(12)
N11_12 N 0.6057(7) 0.6881(6) 0.9725(9)
C48_12 C 0.72012(15) 0.60292(17) 0.97835(19)
N12_12 N 0.7269(2) 0.6034(2) 0.9615(2)
C49_12 C 0.7383(2) 0.5902(3) 0.9617(3)
H29_12 H 0.7451 0.5873 0.9518
N13_12 N 0.7396(2) 0.5812(2) 0.9767(4)
C50_12 C 0.72787(18) 0.58933(17) 0.9874(3)
C52_12 C 0.70742(16) 0.61279(19) 0.9871(2)
N16_12 N 0.6989(2) 0.6264(2) 0.9802(3)
H31_12 H 0.6911 0.6320 0.9864
H32_12 H 0.7011 0.6296 0.9694
O15_12 O 0.7706(4) 0.5537(4) 0.9634(5)
N17_12 N 0.7885(2) 0.6466(2) 0.9769(2)
Zn5_12 Zn 0.87530(9) 0.55775(8) 0.77294(8)
Zn6_12 Zn 0.72706(8) 0.62470(9) 0.94225(8)
Zn9_12 Zn 0.51863(9) 0.74071(9) 0.93422(10)
O1_13 O 0.4234(4) 0.7116(4) 0.8477(3)
C1_13 C 0.4315(4) 0.6990(5) 0.8546(4)
O2_13 O 0.4415(3) 0.7041(4) 0.8667(4)
C2_13 C 0.4277(7) 0.6817(5) 0.8491(7)
C3_13 C 0.4159(6) 0.6797(7) 0.8360(6)
H1_13 H 0.4102 0.6895 0.8310
C4_13 C 0.4124(5) 0.6620(10) 0.8299(5)
H2_13 H 0.4053 0.6598 0.8200
C5_13 C 0.4199(8) 0.6486(6) 0.8391(8)
C6_13 C 0.4323(6) 0.6506(7) 0.8515(6)
H3_13 H 0.4383 0.6409 0.8562
C7_13 C 0.4362(4) 0.6685(9) 0.8572(4)
H4_13 H 0.4444 0.6708 0.8663
N1_13 N 0.4144(6) 0.6318(5) 0.8324(6)
O3_13 O 0.2866(5) 0.8037(4) 0.9794(4)
C8_13 C 0.3007(5) 0.8108(5) 0.9742(5)
O4_13 O 0.3009(3) 0.8274(4) 0.9762(3)
C9_13 C 0.3150(7) 0.8036(11) 0.9649(5)
C10_13 C 0.3131(6) 0.7857(11) 0.9623(6)
H5_13 H 0.3029 0.7799 0.9664
C11_13 C 0.3260(11) 0.7761(5) 0.9536(7)
H6_13 H 0.3247 0.7639 0.9519
C12_13 C 0.3410(8) 0.7846(11) 0.9474(4)
C13_13 C 0.3429(6) 0.8025(11) 0.9499(6)
H7_13 H 0.3530 0.8083 0.9457
C14_13 C 0.3301(11) 0.8120(4) 0.9588(7)
H8_13 H 0.3316 0.8241 0.9606
N2_13 N 0.3613(6) 0.7710(8) 0.9324(6)
O5_13 O 0.4254(4) 0.7425(4) 0.8847(4)
C15_13 C 0.4152(5) 0.7371(5) 0.8968(5)
O6_13 O 0.4171(4) 0.7206(5) 0.8978(4)
C16_13 C 0.4008(5) 0.7446(11) 0.9057(6)
C17_13 C 0.3988(7) 0.7622(11) 0.9037(5)
H9_13 H 0.4063 0.7684 0.8961
C18_13 C 0.3860(10) 0.7708(4) 0.9126(9)
H10_13 H 0.3846 0.7830 0.9111
C19_13 C 0.3752(6) 0.7619(12) 0.9236(7)
C20_13 C 0.3770(7) 0.7442(11) 0.9253(5)
H11_13 H 0.3692 0.7379 0.9326
C21_13 C 0.3898(10) 0.7357(4) 0.9166(9)
H12_13 H 0.3912 0.7235 0.9180
N3_13 N 0.3557(7) 0.7775(9) 0.9381(6)
C22_13 C 0.47012(15) 0.77165(19) 0.85292(17)
N4_13 N 0.4769(2) 0.7885(2) 0.8534(2)
C23_13 C 0.4883(2) 0.7883(3) 0.8402(3)
H13_13 H 0.4951 0.7982 0.8373
N5_13 N 0.4896(2) 0.7733(4) 0.8312(2)
C24_13 C 0.47787(18) 0.7626(3) 0.83933(17)
N6_13 N 0.4741(3) 0.7459(3) 0.8347(2)
C25_13 C 0.4618(3) 0.7390(2) 0.8448(3)
H14_13 H 0.4585 0.7274 0.8420
N7_13 N 0.4535(2) 0.7462(2) 0.8582(3)
C26_13 C 0.45742(16) 0.7629(2) 0.86279(19)
N8_13 N 0.4489(2) 0.7698(3) 0.8764(2)
H15_13 H 0.4411 0.7636 0.8820
H16_13 H 0.4511 0.7806 0.8796
Zn1_13 Zn 0.44225(8) 0.72706(8) 0.87530(9)
Zn2_13 Zn 0.49071(9) 0.73137(9) 0.81578(10)
O7_19 O 0.5000 0.7500 0.8012(5)
O8_13 O 0.4023(3) 0.5384(4) 0.8266(4)
C27_13 C 0.3954(4) 0.5510(5) 0.8185(4)
C28_13 C 0.4009(7) 0.5683(5) 0.8223(7)
C29_13 C 0.4140(6) 0.5703(7) 0.8341(6)
H17_13 H 0.4190 0.5605 0.8398
C30_13 C 0.4201(5) 0.5880(10) 0.8376(5)
H18_13 H 0.4300 0.5902 0.8447
C31_13 C 0.4109(8) 0.6014(6) 0.8301(8)
C32_13 C 0.3985(6) 0.5994(7) 0.8177(6)
H19_13 H 0.3938 0.6091 0.8117
C33_13 C 0.3928(4) 0.5815(9) 0.8138(4)
H20_13 H 0.3837 0.5792 0.8056
N9_13 N 0.4176(6) 0.6182(5) 0.8356(6)
O10_13 O 0.7134(5) 0.6963(4) 0.9794(4)
C34_13 C 0.6993(5) 0.6892(5) 0.9742(5)
O11_13 O 0.6991(3) 0.6726(4) 0.9762(3)
C35_13 C 0.6850(7) 0.6964(11) 0.9649(5)
C36_13 C 0.6869(6) 0.7143(11) 0.9623(6)
H21_13 H 0.6971 0.7201 0.9664
C37_13 C 0.6740(11) 0.7239(5) 0.9536(7)
H22_13 H 0.6753 0.7361 0.9519
C38_13 C 0.6590(8) 0.7154(11) 0.9474(4)
C39_13 C 0.6571(6) 0.6975(11) 0.9499(6)
H23_13 H 0.6470 0.6917 0.9457
C40_13 C 0.6699(11) 0.6880(4) 0.9588(7)
H24_13 H 0.6684 0.6759 0.9606
N10_13 N 0.6387(6) 0.7290(8) 0.9324(6)
O12_13 O 0.5746(4) 0.7575(4) 0.8847(4)
C41_13 C 0.5848(5) 0.7629(5) 0.8968(5)
O13_13 O 0.5829(4) 0.7794(5) 0.8978(4)
C42_13 C 0.5992(5) 0.7554(11) 0.9057(6)
C43_13 C 0.6012(7) 0.7378(11) 0.9037(5)
H25_13 H 0.5937 0.7316 0.8961
C44_13 C 0.6140(10) 0.7292(4) 0.9126(9)
H26_13 H 0.6154 0.7170 0.9111
C45_13 C 0.6248(6) 0.7381(12) 0.9236(7)
C46_13 C 0.6230(7) 0.7558(11) 0.9253(5)
H27_13 H 0.6308 0.7621 0.9326
C47_13 C 0.6102(10) 0.7643(4) 0.9166(9)
H28_13 H 0.6088 0.7765 0.9180
N11_13 N 0.6443(7) 0.7225(9) 0.9381(6)
C48_13 C 0.52988(15) 0.72835(19) 0.85292(17)
N12_13 N 0.5231(2) 0.7115(2) 0.8534(2)
C49_13 C 0.5117(2) 0.7117(3) 0.8402(3)
H29_13 H 0.5049 0.7018 0.8373
N13_13 N 0.5104(2) 0.7267(4) 0.8312(2)
C50_13 C 0.52213(18) 0.7374(3) 0.83933(17)
N14_13 N 0.5259(3) 0.7541(3) 0.8347(2)
C51_13 C 0.5382(3) 0.7610(2) 0.8448(3)
H30_13 H 0.5415 0.7726 0.8420
N15_13 N 0.5465(2) 0.7538(2) 0.8582(3)
C52_13 C 0.54258(16) 0.7371(2) 0.86279(19)
N16_13 N 0.5511(2) 0.7302(3) 0.8764(2)
H31_13 H 0.5589 0.7364 0.8820
H32_13 H 0.5489 0.7194 0.8796
Zn4_13 Zn 0.50929(9) 0.76863(9) 0.81578(10)
O15_13 O 0.4794(4) 0.7134(5) 0.8037(4)
O16_13 O 0.5206(4) 0.7866(5) 0.8037(4)
N17_13 N 0.4615(2) 0.7269(2) 0.8966(2)
N18_13 N 0.5385(2) 0.7731(2) 0.8966(2)
Zn6_13 Zn 0.52294(8) 0.69225(8) 0.87470(9)
Zn7_13 Zn 0.47706(8) 0.80775(8) 0.87470(9)
Zn8_13 Zn 0.26863(9) 0.81578(10) 0.99071(9)
Zn9_13 Zn 0.73137(9) 0.68422(10) 0.99071(9)
O1_14 O 0.0766(4) 0.2884(4) 0.3477(3)
C1_14 C 0.0685(4) 0.3010(5) 0.3546(4)
O2_14 O 0.0585(3) 0.2959(4) 0.3667(4)
C2_14 C 0.0723(7) 0.3183(5) 0.3491(7)
C3_14 C 0.0841(6) 0.3203(7) 0.3360(6)
H1_14 H 0.0898 0.3105 0.3310
C4_14 C 0.0876(5) 0.3380(10) 0.3299(5)
H2_14 H 0.0947 0.3402 0.3200
C5_14 C 0.0801(8) 0.3514(6) 0.3391(8)
C6_14 C 0.0677(6) 0.3494(7) 0.3515(6)
H3_14 H 0.0617 0.3591 0.3562
C7_14 C 0.0638(4) 0.3315(9) 0.3572(4)
H4_14 H 0.0556 0.3292 0.3663
N1_14 N 0.0856(6) 0.3682(5) 0.3324(6)
O3_14 O 0.2134(5) 0.1963(4) 0.4794(4)
C8_14 C 0.1993(5) 0.1892(5) 0.4742(5)
O4_14 O 0.1991(3) 0.1726(4) 0.4762(3)
C9_14 C 0.1850(7) 0.1964(11) 0.4649(5)
C10_14 C 0.1869(6) 0.2143(11) 0.4623(6)
H5_14 H 0.1971 0.2201 0.4664
C11_14 C 0.1740(11) 0.2239(5) 0.4536(7)
H6_14 H 0.1753 0.2361 0.4519
C12_14 C 0.1590(8) 0.2154(11) 0.4474(4)
C13_14 C 0.1571(6) 0.1975(11) 0.4499(6)
H7_14 H 0.1470 0.1917 0.4457
C14_14 C 0.1699(11) 0.1880(4) 0.4588(7)
H8_14 H 0.1684 0.1759 0.4606
N2_14 N 0.1387(6) 0.2290(8) 0.4324(6)
O5_14 O 0.0746(4) 0.2575(4) 0.3847(4)
C15_14 C 0.0848(5) 0.2629(5) 0.3968(5)
O6_14 O 0.0829(4) 0.2794(5) 0.3978(4)
C16_14 C 0.0992(5) 0.2554(11) 0.4057(6)
C17_14 C 0.1012(7) 0.2378(11) 0.4037(5)
H9_14 H 0.0937 0.2316 0.3961
C18_14 C 0.1140(10) 0.2292(4) 0.4126(9)
H10_14 H 0.1154 0.2170 0.4111
C19_14 C 0.1248(6) 0.2381(12) 0.4236(7)
C20_14 C 0.1230(7) 0.2558(11) 0.4253(5)
H11_14 H 0.1308 0.2621 0.4326
C21_14 C 0.1102(10) 0.2643(4) 0.4166(9)
H12_14 H 0.1088 0.2765 0.4180
N3_14 N 0.1443(7) 0.2225(9) 0.4381(6)
C22_14 C 0.02988(15) 0.22835(19) 0.35292(17)
N4_14 N 0.0231(2) 0.2115(2) 0.3534(2)
C23_14 C 0.0117(2) 0.2117(3) 0.3402(3)
H13_14 H 0.0049 0.2018 0.3373
N5_14 N 0.0104(2) 0.2267(4) 0.3312(2)
C24_14 C 0.02213(18) 0.2374(3) 0.33933(17)
N6_14 N 0.0259(3) 0.2541(3) 0.3347(2)
C25_14 C 0.0382(3) 0.2610(2) 0.3448(3)
H14_14 H 0.0415 0.2726 0.3420
N7_14 N 0.0465(2) 0.2538(2) 0.3582(3)
C26_14 C 0.04258(16) 0.2371(2) 0.36279(19)
N8_14 N 0.0511(2) 0.2302(3) 0.3764(2)
H15_14 H 0.0589 0.2364 0.3820
H16_14 H 0.0489 0.2194 0.3796
Zn1_14 Zn 0.05775(8) 0.27294(8) 0.37530(9)
Zn2_14 Zn 0.00929(9) 0.26863(9) 0.31578(10)
O7_20 O 0.0000 0.2500 0.3012(5)
O8_14 O 0.0977(3) 0.4616(4) 0.3266(4)
C27_14 C 0.1046(4) 0.4490(5) 0.3185(4)
C28_14 C 0.0991(7) 0.4317(5) 0.3223(7)
C29_14 C 0.0860(6) 0.4297(7) 0.3341(6)
H17_14 H 0.0810 0.4395 0.3398
C30_14 C 0.0799(5) 0.4120(10) 0.3376(5)
H18_14 H 0.0700 0.4098 0.3447
C31_14 C 0.0891(8) 0.3986(6) 0.3301(8)
C32_14 C 0.1015(6) 0.4006(7) 0.3177(6)
H19_14 H 0.1062 0.3909 0.3117
C33_14 C 0.1072(4) 0.4185(9) 0.3138(4)
H20_14 H 0.1163 0.4208 0.3056
N9_14 N 0.0824(6) 0.3818(5) 0.3356(6)
O15_14 O 0.0206(4) 0.2866(5) 0.3037(4)
N17_14 N 0.0385(2) 0.2731(2) 0.3966(2)
Zn7_14 Zn 0.02294(8) 0.19225(8) 0.37470(9)
Zn8_14 Zn 0.23137(9) 0.18422(10) 0.49071(9)
O7_21 O 1.0000 0.2500 0.3012(5)
O10_14 O 0.7866(5) 0.3037(4) 0.4794(4)
C34_14 C 0.8007(5) 0.3108(5) 0.4742(5)
O11_14 O 0.8009(3) 0.3274(4) 0.4762(3)
C35_14 C 0.8150(7) 0.3036(11) 0.4649(5)
C36_14 C 0.8131(6) 0.2857(11) 0.4623(6)
H21_14 H 0.8029 0.2799 0.4664
C37_14 C 0.8260(11) 0.2761(5) 0.4536(7)
H22_14 H 0.8247 0.2639 0.4519
C38_14 C 0.8410(8) 0.2846(11) 0.4474(4)
C39_14 C 0.8429(6) 0.3025(11) 0.4499(6)
H23_14 H 0.8530 0.3083 0.4457
C40_14 C 0.8301(11) 0.3120(4) 0.4588(7)
H24_14 H 0.8316 0.3241 0.4606
N10_14 N 0.8613(6) 0.2710(8) 0.4324(6)
O12_14 O 0.9254(4) 0.2425(4) 0.3847(4)
C41_14 C 0.9152(5) 0.2371(5) 0.3968(5)
O13_14 O 0.9171(4) 0.2206(5) 0.3978(4)
C42_14 C 0.9008(5) 0.2446(11) 0.4057(6)
C43_14 C 0.8988(7) 0.2622(11) 0.4037(5)
H25_14 H 0.9063 0.2684 0.3961
C44_14 C 0.8860(10) 0.2708(4) 0.4126(9)
H26_14 H 0.8846 0.2830 0.4111
C45_14 C 0.8752(6) 0.2619(12) 0.4236(7)
C46_14 C 0.8770(7) 0.2442(11) 0.4253(5)
H27_14 H 0.8692 0.2379 0.4326
C47_14 C 0.8898(10) 0.2357(4) 0.4166(9)
H28_14 H 0.8912 0.2235 0.4180
N11_14 N 0.8557(7) 0.2775(9) 0.4381(6)
C48_14 C 0.97012(15) 0.27165(19) 0.35292(17)
N12_14 N 0.9769(2) 0.2885(2) 0.3534(2)
C49_14 C 0.9883(2) 0.2883(3) 0.3402(3)
H29_14 H 0.9951 0.2982 0.3373
N13_14 N 0.9896(2) 0.2733(4) 0.3312(2)
C50_14 C 0.97787(18) 0.2626(3) 0.33933(17)
N14_14 N 0.9741(3) 0.2459(3) 0.3347(2)
C51_14 C 0.9618(3) 0.2390(2) 0.3448(3)
H30_14 H 0.9585 0.2274 0.3420
N15_14 N 0.9535(2) 0.2462(2) 0.3582(3)
C52_14 C 0.95742(16) 0.2629(2) 0.36279(19)
N16_14 N 0.9489(2) 0.2698(3) 0.3764(2)
H31_14 H 0.9411 0.2636 0.3820
H32_14 H 0.9511 0.2806 0.3796
Zn4_14 Zn 0.99071(9) 0.23137(9) 0.31578(10)
O16_14 O 0.9794(4) 0.2134(5) 0.3037(4)
N18_14 N 0.9615(2) 0.2269(2) 0.3966(2)
Zn6_14 Zn 0.97706(8) 0.30775(8) 0.37470(9)
Zn9_14 Zn 0.76863(9) 0.31578(10) 0.49071(9)
O7_22 O 0.0000 0.7500 0.1988(5)
O10_15 O 0.2134(5) 0.8037(4) 0.0206(4)
C34_15 C 0.1993(5) 0.8108(5) 0.0258(5)
O11_15 O 0.1991(3) 0.8274(4) 0.0238(3)
C35_15 C 0.1850(7) 0.8036(11) 0.0351(5)
C36_15 C 0.1869(6) 0.7857(11) 0.0377(6)
H21_15 H 0.1971 0.7799 0.0336
C37_15 C 0.1740(11) 0.7761(5) 0.0464(7)
H22_15 H 0.1753 0.7639 0.0481
C38_15 C 0.1590(8) 0.7846(11) 0.0526(4)
C39_15 C 0.1571(6) 0.8025(11) 0.0501(6)
H23_15 H 0.1470 0.8083 0.0543
C40_15 C 0.1699(11) 0.8120(4) 0.0412(7)
H24_15 H 0.1684 0.8241 0.0394
N10_15 N 0.1387(6) 0.7710(8) 0.0676(6)
O12_15 O 0.0746(4) 0.7425(4) 0.1153(4)
C41_15 C 0.0848(5) 0.7371(5) 0.1032(5)
O13_15 O 0.0829(4) 0.7206(5) 0.1022(4)
C42_15 C 0.0992(5) 0.7446(11) 0.0943(6)
C43_15 C 0.1012(7) 0.7622(11) 0.0963(5)
H25_15 H 0.0937 0.7684 0.1039
C44_15 C 0.1140(10) 0.7708(4) 0.0874(9)
H26_15 H 0.1154 0.7830 0.0889
C45_15 C 0.1248(6) 0.7619(12) 0.0764(7)
C46_15 C 0.1230(7) 0.7442(11) 0.0747(5)
H27_15 H 0.1308 0.7379 0.0674
C47_15 C 0.1102(10) 0.7357(4) 0.0834(9)
H28_15 H 0.1088 0.7235 0.0820
N11_15 N 0.1443(7) 0.7775(9) 0.0619(6)
C48_15 C 0.02988(15) 0.77165(19) 0.14708(17)
N12_15 N 0.0231(2) 0.7885(2) 0.1466(2)
C49_15 C 0.0117(2) 0.7883(3) 0.1598(3)
H29_15 H 0.0049 0.7982 0.1627
N13_15 N 0.0104(2) 0.7733(4) 0.1688(2)
C50_15 C 0.02213(18) 0.7626(3) 0.16067(17)
N14_15 N 0.0259(3) 0.7459(3) 0.1653(2)
C51_15 C 0.0382(3) 0.7390(2) 0.1552(3)
H30_15 H 0.0415 0.7274 0.1580
N15_15 N 0.0465(2) 0.7462(2) 0.1418(3)
C52_15 C 0.04258(16) 0.7629(2) 0.13721(19)
N16_15 N 0.0511(2) 0.7698(3) 0.1236(2)
H31_15 H 0.0589 0.7636 0.1180
H32_15 H 0.0489 0.7806 0.1204
Zn4_15 Zn 0.00929(9) 0.73137(9) 0.18422(10)
O16_15 O 0.0206(4) 0.7134(5) 0.1963(4)
N18_15 N 0.0385(2) 0.7269(2) 0.1034(2)
Zn6_15 Zn 0.02294(8) 0.80775(8) 0.12530(9)
Zn9_15 Zn 0.23137(9) 0.81578(10) 0.00929(9)
O1_15 O 0.9234(4) 0.7884(4) 0.1523(3)
C1_15 C 0.9315(4) 0.8010(5) 0.1454(4)
O2_15 O 0.9415(3) 0.7959(4) 0.1333(4)
C2_15 C 0.9277(7) 0.8183(5) 0.1509(7)
C3_15 C 0.9159(6) 0.8203(7) 0.1640(6)
H1_15 H 0.9102 0.8105 0.1690
C4_15 C 0.9124(5) 0.8380(10) 0.1701(5)
H2_15 H 0.9053 0.8402 0.1800
C5_15 C 0.9199(8) 0.8514(6) 0.1609(8)
C6_15 C 0.9323(6) 0.8494(7) 0.1485(6)
H3_15 H 0.9383 0.8591 0.1438
C7_15 C 0.9362(4) 0.8315(9) 0.1428(4)
H4_15 H 0.9444 0.8292 0.1337
N1_15 N 0.9144(6) 0.8682(5) 0.1676(6)
O3_15 O 0.7866(5) 0.6963(4) 0.0206(4)
C8_15 C 0.8007(5) 0.6892(5) 0.0258(5)
O4_15 O 0.8009(3) 0.6726(4) 0.0238(3)
C9_15 C 0.8150(7) 0.6964(11) 0.0351(5)
C10_15 C 0.8131(6) 0.7143(11) 0.0377(6)
H5_15 H 0.8029 0.7201 0.0336
C11_15 C 0.8260(11) 0.7239(5) 0.0464(7)
H6_15 H 0.8247 0.7361 0.0481
C12_15 C 0.8410(8) 0.7154(11) 0.0526(4)
C13_15 C 0.8429(6) 0.6975(11) 0.0501(6)
H7_15 H 0.8530 0.6917 0.0543
C14_15 C 0.8301(11) 0.6880(4) 0.0412(7)
H8_15 H 0.8316 0.6759 0.0394
N2_15 N 0.8613(6) 0.7290(8) 0.0676(6)
O5_15 O 0.9254(4) 0.7575(4) 0.1153(4)
C15_15 C 0.9152(5) 0.7629(5) 0.1032(5)
O6_15 O 0.9171(4) 0.7794(5) 0.1022(4)
C16_15 C 0.9008(5) 0.7554(11) 0.0943(6)
C17_15 C 0.8988(7) 0.7378(11) 0.0963(5)
H9_15 H 0.9063 0.7316 0.1039
C18_15 C 0.8860(10) 0.7292(4) 0.0874(9)
H10_15 H 0.8846 0.7170 0.0889
C19_15 C 0.8752(6) 0.7381(12) 0.0764(7)
C20_15 C 0.8770(7) 0.7558(11) 0.0747(5)
H11_15 H 0.8692 0.7621 0.0674
C21_15 C 0.8898(10) 0.7643(4) 0.0834(9)
H12_15 H 0.8912 0.7765 0.0820
N3_15 N 0.8557(7) 0.7225(9) 0.0619(6)
C22_15 C 0.97012(15) 0.72835(19) 0.14708(17)
N4_15 N 0.9769(2) 0.7115(2) 0.1466(2)
C23_15 C 0.9883(2) 0.7117(3) 0.1598(3)
H13_15 H 0.9951 0.7018 0.1627
N5_15 N 0.9896(2) 0.7267(4) 0.1688(2)
C24_15 C 0.97787(18) 0.7374(3) 0.16067(17)
N6_15 N 0.9741(3) 0.7541(3) 0.1653(2)
C25_15 C 0.9618(3) 0.7610(2) 0.1552(3)
H14_15 H 0.9585 0.7726 0.1580
N7_15 N 0.9535(2) 0.7538(2) 0.1418(3)
C26_15 C 0.95742(16) 0.7371(2) 0.13721(19)
N8_15 N 0.9489(2) 0.7302(3) 0.1236(2)
H15_15 H 0.9411 0.7364 0.1180
H16_15 H 0.9511 0.7194 0.1204
Zn1_15 Zn 0.94225(8) 0.77294(8) 0.12470(9)
Zn2_15 Zn 0.99071(9) 0.76863(9) 0.18422(10)
O7_23 O 1.0000 0.7500 0.1988(5)
O8_15 O 0.9023(3) 0.9616(4) 0.1734(4)
C27_15 C 0.8954(4) 0.9490(5) 0.1815(4)
C28_15 C 0.9009(7) 0.9317(5) 0.1777(7)
C29_15 C 0.9140(6) 0.9297(7) 0.1659(6)
H17_15 H 0.9190 0.9395 0.1602
C30_15 C 0.9201(5) 0.9120(10) 0.1624(5)
H18_15 H 0.9300 0.9098 0.1553
C31_15 C 0.9109(8) 0.8986(6) 0.1699(8)
C32_15 C 0.8985(6) 0.9006(7) 0.1823(6)
H19_15 H 0.8938 0.8909 0.1883
C33_15 C 0.8928(4) 0.9185(9) 0.1862(4)
H20_15 H 0.8837 0.9208 0.1944
N9_15 N 0.9176(6) 0.8818(5) 0.1644(6)
O15_15 O 0.9794(4) 0.7866(5) 0.1963(4)
N17_15 N 0.9615(2) 0.7731(2) 0.1034(2)
Zn7_15 Zn 0.97706(8) 0.69225(8) 0.12530(9)
Zn8_15 Zn 0.76863(9) 0.68422(10) 0.00929(9)
O1_16 O 0.5766(4) 0.2116(4) 0.6523(3)
C1_16 C 0.5685(4) 0.1990(5) 0.6454(4)
O2_16 O 0.5585(3) 0.2041(4) 0.6333(4)
C2_16 C 0.5723(7) 0.1817(5) 0.6509(7)
C3_16 C 0.5841(6) 0.1797(7) 0.6640(6)
H1_16 H 0.5898 0.1895 0.6690
C4_16 C 0.5876(5) 0.1620(10) 0.6701(5)
H2_16 H 0.5947 0.1598 0.6800
C5_16 C 0.5801(8) 0.1486(6) 0.6609(8)
C6_16 C 0.5677(6) 0.1506(7) 0.6485(6)
H3_16 H 0.5617 0.1409 0.6438
C7_16 C 0.5638(4) 0.1685(9) 0.6428(4)
H4_16 H 0.5556 0.1708 0.6337
N1_16 N 0.5856(6) 0.1318(5) 0.6676(6)
O3_16 O 0.7134(5) 0.3037(4) 0.5206(4)
C8_16 C 0.6993(5) 0.3108(5) 0.5258(5)
O4_16 O 0.6991(3) 0.3274(4) 0.5238(3)
C9_16 C 0.6850(7) 0.3036(11) 0.5351(5)
C10_16 C 0.6869(6) 0.2857(11) 0.5377(6)
H5_16 H 0.6971 0.2799 0.5336
C11_16 C 0.6740(11) 0.2761(5) 0.5464(7)
H6_16 H 0.6753 0.2639 0.5481
C12_16 C 0.6590(8) 0.2846(11) 0.5526(4)
C13_16 C 0.6571(6) 0.3025(11) 0.5501(6)
H7_16 H 0.6470 0.3083 0.5543
C14_16 C 0.6699(11) 0.3120(4) 0.5412(7)
H8_16 H 0.6684 0.3241 0.5394
N2_16 N 0.6387(6) 0.2710(8) 0.5676(6)
O5_16 O 0.5746(4) 0.2425(4) 0.6153(4)
C15_16 C 0.5848(5) 0.2371(5) 0.6032(5)
O6_16 O 0.5829(4) 0.2206(5) 0.6022(4)
C16_16 C 0.5992(5) 0.2446(11) 0.5943(6)
C17_16 C 0.6012(7) 0.2622(11) 0.5963(5)
H9_16 H 0.5937 0.2684 0.6039
C18_16 C 0.6140(10) 0.2708(4) 0.5874(9)
H10_16 H 0.6154 0.2830 0.5889
C19_16 C 0.6248(6) 0.2619(12) 0.5764(7)
C20_16 C 0.6230(7) 0.2442(11) 0.5747(5)
H11_16 H 0.6308 0.2379 0.5674
C21_16 C 0.6102(10) 0.2357(4) 0.5834(9)
H12_16 H 0.6088 0.2235 0.5820
N3_16 N 0.6443(7) 0.2775(9) 0.5619(6)
C22_16 C 0.52988(15) 0.27165(19) 0.64708(17)
N4_16 N 0.5231(2) 0.2885(2) 0.6466(2)
C23_16 C 0.5117(2) 0.2883(3) 0.6598(3)
H13_16 H 0.5049 0.2982 0.6627
N5_16 N 0.5104(2) 0.2733(4) 0.6688(2)
C24_16 C 0.52213(18) 0.2626(3) 0.66067(17)
N6_16 N 0.5259(3) 0.2459(3) 0.6653(2)
C25_16 C 0.5382(3) 0.2390(2) 0.6552(3)
H14_16 H 0.5415 0.2274 0.6580
N7_16 N 0.5465(2) 0.2462(2) 0.6418(3)
C26_16 C 0.54258(16) 0.2629(2) 0.63721(19)
N8_16 N 0.5511(2) 0.2698(3) 0.6236(2)
H15_16 H 0.5589 0.2636 0.6180
H16_16 H 0.5489 0.2806 0.6204
Zn1_16 Zn 0.55775(8) 0.22706(8) 0.62470(9)
Zn2_16 Zn 0.50929(9) 0.23137(9) 0.68422(10)
O7_24 O 0.5000 0.2500 0.6988(5)
O8_16 O 0.5977(3) 0.0384(4) 0.6734(4)
C27_16 C 0.6046(4) 0.0510(5) 0.6815(4)
C28_16 C 0.5991(7) 0.0683(5) 0.6777(7)
C29_16 C 0.5860(6) 0.0703(7) 0.6659(6)
H17_16 H 0.5810 0.0605 0.6602
C30_16 C 0.5799(5) 0.0880(10) 0.6624(5)
H18_16 H 0.5700 0.0902 0.6553
C31_16 C 0.5891(8) 0.1014(6) 0.6699(8)
C32_16 C 0.6015(6) 0.0994(7) 0.6823(6)
H19_16 H 0.6062 0.1091 0.6883
C33_16 C 0.6072(4) 0.0815(9) 0.6862(4)
H20_16 H 0.6163 0.0792 0.6944
N9_16 N 0.5824(6) 0.1182(5) 0.6644(6)
O10_16 O 0.2866(5) 0.1963(4) 0.5206(4)
C34_16 C 0.3007(5) 0.1892(5) 0.5258(5)
O11_16 O 0.3009(3) 0.1726(4) 0.5238(3)
C35_16 C 0.3150(7) 0.1964(11) 0.5351(5)
C36_16 C 0.3131(6) 0.2143(11) 0.5377(6)
H21_16 H 0.3029 0.2201 0.5336
C37_16 C 0.3260(11) 0.2239(5) 0.5464(7)
H22_16 H 0.3247 0.2361 0.5481
C38_16 C 0.3410(8) 0.2154(11) 0.5526(4)
C39_16 C 0.3429(6) 0.1975(11) 0.5501(6)
H23_16 H 0.3530 0.1917 0.5543
C40_16 C 0.3301(11) 0.1880(4) 0.5412(7)
H24_16 H 0.3316 0.1759 0.5394
N10_16 N 0.3613(6) 0.2290(8) 0.5676(6)
O12_16 O 0.4254(4) 0.2575(4) 0.6153(4)
C41_16 C 0.4152(5) 0.2629(5) 0.6032(5)
O13_16 O 0.4171(4) 0.2794(5) 0.6022(4)
C42_16 C 0.4008(5) 0.2554(11) 0.5943(6)
C43_16 C 0.3988(7) 0.2378(11) 0.5963(5)
H25_16 H 0.4063 0.2316 0.6039
C44_16 C 0.3860(10) 0.2292(4) 0.5874(9)
H26_16 H 0.3846 0.2170 0.5889
C45_16 C 0.3752(6) 0.2381(12) 0.5764(7)
C46_16 C 0.3770(7) 0.2558(11) 0.5747(5)
H27_16 H 0.3692 0.2621 0.5674
C47_16 C 0.3898(10) 0.2643(4) 0.5834(9)
H28_16 H 0.3912 0.2765 0.5820
N11_16 N 0.3557(7) 0.2225(9) 0.5619(6)
C48_16 C 0.47012(15) 0.22835(19) 0.64708(17)
N12_16 N 0.4769(2) 0.2115(2) 0.6466(2)
C49_16 C 0.4883(2) 0.2117(3) 0.6598(3)
H29_16 H 0.4951 0.2018 0.6627
N13_16 N 0.4896(2) 0.2267(4) 0.6688(2)
C50_16 C 0.47787(18) 0.2374(3) 0.66067(17)
N14_16 N 0.4741(3) 0.2541(3) 0.6653(2)
C51_16 C 0.4618(3) 0.2610(2) 0.6552(3)
H30_16 H 0.4585 0.2726 0.6580
N15_16 N 0.4535(2) 0.2538(2) 0.6418(3)
C52_16 C 0.45742(16) 0.2371(2) 0.63721(19)
N16_16 N 0.4489(2) 0.2302(3) 0.6236(2)
H31_16 H 0.4411 0.2364 0.6180
H32_16 H 0.4511 0.2194 0.6204
Zn4_16 Zn 0.49071(9) 0.26863(9) 0.68422(10)
O15_16 O 0.5206(4) 0.2134(5) 0.6963(4)
O16_16 O 0.4794(4) 0.2866(5) 0.6963(4)
N17_16 N 0.5385(2) 0.2269(2) 0.6034(2)
N18_16 N 0.4615(2) 0.2731(2) 0.6034(2)
Zn6_16 Zn 0.47706(8) 0.19225(8) 0.62530(9)
Zn7_16 Zn 0.52294(8) 0.30775(8) 0.62530(9)
Zn8_16 Zn 0.73137(9) 0.31578(10) 0.50929(9)
Zn9_16 Zn 0.26863(9) 0.18422(10) 0.50929(9)
O1_17 O 0.2116(4) 0.6523(3) 0.5766(4)
C1_17 C 0.1990(5) 0.6454(4) 0.5685(4)
O2_17 O 0.2041(4) 0.6333(4) 0.5585(3)
C2_17 C 0.1817(5) 0.6509(7) 0.5723(7)
C3_17 C 0.1797(7) 0.6640(6) 0.5841(6)
H1_17 H 0.1895 0.6690 0.5898
C4_17 C 0.1620(10) 0.6701(5) 0.5876(5)
H2_17 H 0.1598 0.6800 0.5947
C5_17 C 0.1486(6) 0.6609(8) 0.5801(8)
C6_17 C 0.1506(7) 0.6485(6) 0.5677(6)
H3_17 H 0.1409 0.6438 0.5617
C7_17 C 0.1685(9) 0.6428(4) 0.5638(4)
H4_17 H 0.1708 0.6337 0.5556
N1_17 N 0.1318(5) 0.6676(6) 0.5856(6)
O3_17 O 0.3037(4) 0.5206(4) 0.7134(5)
C8_17 C 0.3108(5) 0.5258(5) 0.6993(5)
O4_17 O 0.3274(4) 0.5238(3) 0.6991(3)
C9_17 C 0.3036(11) 0.5351(5) 0.6850(7)
C10_17 C 0.2857(11) 0.5377(6) 0.6869(6)
H5_17 H 0.2799 0.5336 0.6971
C11_17 C 0.2761(5) 0.5464(7) 0.6740(11)
H6_17 H 0.2639 0.5481 0.6753
C12_17 C 0.2846(11) 0.5526(4) 0.6590(8)
C13_17 C 0.3025(11) 0.5501(6) 0.6571(6)
H7_17 H 0.3083 0.5543 0.6470
C14_17 C 0.3120(4) 0.5412(7) 0.6699(11)
H8_17 H 0.3241 0.5394 0.6684
N2_17 N 0.2710(8) 0.5676(6) 0.6387(6)
O5_17 O 0.2425(4) 0.6153(4) 0.5746(4)
C15_17 C 0.2371(5) 0.6032(5) 0.5848(5)
O6_17 O 0.2206(5) 0.6022(4) 0.5829(4)
C16_17 C 0.2446(11) 0.5943(6) 0.5992(5)
C17_17 C 0.2622(11) 0.5963(5) 0.6012(7)
H9_17 H 0.2684 0.6039 0.5937
C18_17 C 0.2708(4) 0.5874(9) 0.6140(10)
H10_17 H 0.2830 0.5889 0.6154
C19_17 C 0.2619(12) 0.5764(7) 0.6248(6)
C20_17 C 0.2442(11) 0.5747(5) 0.6230(7)
H11_17 H 0.2379 0.5674 0.6308
C21_17 C 0.2357(4) 0.5834(9) 0.6102(10)
H12_17 H 0.2235 0.5820 0.6088
N3_17 N 0.2775(9) 0.5619(6) 0.6443(7)
C22_17 C 0.27165(19) 0.64708(17) 0.52988(15)
N4_17 N 0.2885(2) 0.6466(2) 0.5231(2)
C23_17 C 0.2883(3) 0.6598(3) 0.5117(2)
H13_17 H 0.2982 0.6627 0.5049
N5_17 N 0.2733(4) 0.6688(2) 0.5104(2)
C24_17 C 0.2626(3) 0.66067(17) 0.52213(18)
N6_17 N 0.2459(3) 0.6653(2) 0.5259(3)
C25_17 C 0.2390(2) 0.6552(3) 0.5382(3)
H14_17 H 0.2274 0.6580 0.5415
N7_17 N 0.2462(2) 0.6418(3) 0.5465(2)
C26_17 C 0.2629(2) 0.63721(19) 0.54258(16)
N8_17 N 0.2698(3) 0.6236(2) 0.5511(2)
H15_17 H 0.2636 0.6180 0.5589
H16_17 H 0.2806 0.6204 0.5489
Zn1_17 Zn 0.22706(8) 0.62470(9) 0.55775(8)
Zn2_17 Zn 0.23137(9) 0.68422(10) 0.50929(9)
O7_25 O 0.2500 0.6988(5) 0.5000
O8_17 O 0.0384(4) 0.6734(4) 0.5977(3)
C27_17 C 0.0510(5) 0.6815(4) 0.6046(4)
C28_17 C 0.0683(5) 0.6777(7) 0.5991(7)
C29_17 C 0.0703(7) 0.6659(6) 0.5860(6)
H17_17 H 0.0605 0.6602 0.5810
C30_17 C 0.0880(10) 0.6624(5) 0.5799(5)
H18_17 H 0.0902 0.6553 0.5700
C31_17 C 0.1014(6) 0.6699(8) 0.5891(8)
C32_17 C 0.0994(7) 0.6823(6) 0.6015(6)
H19_17 H 0.1091 0.6883 0.6062
C33_17 C 0.0815(9) 0.6862(4) 0.6072(4)
H20_17 H 0.0792 0.6944 0.6163
N9_17 N 0.1182(5) 0.6644(6) 0.5824(6)
O10_17 O 0.1963(4) 0.5206(4) 0.2866(5)
C34_17 C 0.1892(5) 0.5258(5) 0.3007(5)
O11_17 O 0.1726(4) 0.5238(3) 0.3009(3)
C35_17 C 0.1964(11) 0.5351(5) 0.3150(7)
C36_17 C 0.2143(11) 0.5377(6) 0.3131(6)
H21_17 H 0.2201 0.5336 0.3029
C37_17 C 0.2239(5) 0.5464(7) 0.3260(11)
H22_17 H 0.2361 0.5481 0.3247
C38_17 C 0.2154(11) 0.5526(4) 0.3410(8)
C39_17 C 0.1975(11) 0.5501(6) 0.3429(6)
H23_17 H 0.1917 0.5543 0.3530
C40_17 C 0.1880(4) 0.5412(7) 0.3301(11)
H24_17 H 0.1759 0.5394 0.3316
N10_17 N 0.2290(8) 0.5676(6) 0.3613(6)
O12_17 O 0.2575(4) 0.6153(4) 0.4254(4)
C41_17 C 0.2629(5) 0.6032(5) 0.4152(5)
O13_17 O 0.2794(5) 0.6022(4) 0.4171(4)
C42_17 C 0.2554(11) 0.5943(6) 0.4008(5)
C43_17 C 0.2378(11) 0.5963(5) 0.3988(7)
H25_17 H 0.2316 0.6039 0.4063
C44_17 C 0.2292(4) 0.5874(9) 0.3860(10)
H26_17 H 0.2170 0.5889 0.3846
C45_17 C 0.2381(12) 0.5764(7) 0.3752(6)
C46_17 C 0.2558(11) 0.5747(5) 0.3770(7)
H27_17 H 0.2621 0.5674 0.3692
C47_17 C 0.2643(4) 0.5834(9) 0.3898(10)
H28_17 H 0.2765 0.5820 0.3912
N11_17 N 0.2225(9) 0.5619(6) 0.3557(7)
C48_17 C 0.22835(19) 0.64708(17) 0.47012(15)
N12_17 N 0.2115(2) 0.6466(2) 0.4769(2)
C49_17 C 0.2117(3) 0.6598(3) 0.4883(2)
H29_17 H 0.2018 0.6627 0.4951
N13_17 N 0.2267(4) 0.6688(2) 0.4896(2)
C50_17 C 0.2374(3) 0.66067(17) 0.47787(18)
N14_17 N 0.2541(3) 0.6653(2) 0.4741(3)
C51_17 C 0.2610(2) 0.6552(3) 0.4618(3)
H30_17 H 0.2726 0.6580 0.4585
N15_17 N 0.2538(2) 0.6418(3) 0.4535(2)
C52_17 C 0.2371(2) 0.63721(19) 0.45742(16)
N16_17 N 0.2302(3) 0.6236(2) 0.4489(2)
H31_17 H 0.2364 0.6180 0.4411
H32_17 H 0.2194 0.6204 0.4511
Zn4_17 Zn 0.26863(9) 0.68422(10) 0.49071(9)
O15_17 O 0.2134(5) 0.6963(4) 0.5206(4)
O16_17 O 0.2866(5) 0.6963(4) 0.4794(4)
N17_17 N 0.2269(2) 0.6034(2) 0.5385(2)
N18_17 N 0.2731(2) 0.6034(2) 0.4615(2)
Zn6_17 Zn 0.19225(8) 0.62530(9) 0.47706(8)
Zn7_17 Zn 0.30775(8) 0.62530(9) 0.52294(8)
Zn8_17 Zn 0.31578(10) 0.50929(9) 0.73137(9)
Zn9_17 Zn 0.18422(10) 0.50929(9) 0.26863(9)
O7_26 O 0.7500 0.1988(5) 0.0000
O10_18 O 0.8037(4) 0.0206(4) 0.2134(5)
C34_18 C 0.8108(5) 0.0258(5) 0.1993(5)
O11_18 O 0.8274(4) 0.0238(3) 0.1991(3)
C35_18 C 0.8036(11) 0.0351(5) 0.1850(7)
C36_18 C 0.7857(11) 0.0377(6) 0.1869(6)
H21_18 H 0.7799 0.0336 0.1971
C37_18 C 0.7761(5) 0.0464(7) 0.1740(11)
H22_18 H 0.7639 0.0481 0.1753
C38_18 C 0.7846(11) 0.0526(4) 0.1590(8)
C39_18 C 0.8025(11) 0.0501(6) 0.1571(6)
H23_18 H 0.8083 0.0543 0.1470
C40_18 C 0.8120(4) 0.0412(7) 0.1699(11)
H24_18 H 0.8241 0.0394 0.1684
N10_18 N 0.7710(8) 0.0676(6) 0.1387(6)
O12_18 O 0.7425(4) 0.1153(4) 0.0746(4)
C41_18 C 0.7371(5) 0.1032(5) 0.0848(5)
O13_18 O 0.7206(5) 0.1022(4) 0.0829(4)
C42_18 C 0.7446(11) 0.0943(6) 0.0992(5)
C43_18 C 0.7622(11) 0.0963(5) 0.1012(7)
H25_18 H 0.7684 0.1039 0.0937
C44_18 C 0.7708(4) 0.0874(9) 0.1140(10)
H26_18 H 0.7830 0.0889 0.1154
C45_18 C 0.7619(12) 0.0764(7) 0.1248(6)
C46_18 C 0.7442(11) 0.0747(5) 0.1230(7)
H27_18 H 0.7379 0.0674 0.1308
C47_18 C 0.7357(4) 0.0834(9) 0.1102(10)
H28_18 H 0.7235 0.0820 0.1088
N11_18 N 0.7775(9) 0.0619(6) 0.1443(7)
C48_18 C 0.77165(19) 0.14708(17) 0.02988(15)
N12_18 N 0.7885(2) 0.1466(2) 0.0231(2)
C49_18 C 0.7883(3) 0.1598(3) 0.0117(2)
H29_18 H 0.7982 0.1627 0.0049
N13_18 N 0.7733(4) 0.1688(2) 0.0104(2)
C50_18 C 0.7626(3) 0.16067(17) 0.02213(18)
N14_18 N 0.7459(3) 0.1653(2) 0.0259(3)
C51_18 C 0.7390(2) 0.1552(3) 0.0382(3)
H30_18 H 0.7274 0.1580 0.0415
N15_18 N 0.7462(2) 0.1418(3) 0.0465(2)
C52_18 C 0.7629(2) 0.13721(19) 0.04258(16)
N16_18 N 0.7698(3) 0.1236(2) 0.0511(2)
H31_18 H 0.7636 0.1180 0.0589
H32_18 H 0.7806 0.1204 0.0489
Zn4_18 Zn 0.73137(9) 0.18422(10) 0.00929(9)
O16_18 O 0.7134(5) 0.1963(4) 0.0206(4)
N18_18 N 0.7269(2) 0.1034(2) 0.0385(2)
Zn6_18 Zn 0.80775(8) 0.12530(9) 0.02294(8)
Zn9_18 Zn 0.81578(10) 0.00929(9) 0.23137(9)
O1_18 O 0.7884(4) 0.1523(3) 0.9234(4)
C1_18 C 0.8010(5) 0.1454(4) 0.9315(4)
O2_18 O 0.7959(4) 0.1333(4) 0.9415(3)
C2_18 C 0.8183(5) 0.1509(7) 0.9277(7)
C3_18 C 0.8203(7) 0.1640(6) 0.9159(6)
H1_18 H 0.8105 0.1690 0.9102
C4_18 C 0.8380(10) 0.1701(5) 0.9124(5)
H2_18 H 0.8402 0.1800 0.9053
C5_18 C 0.8514(6) 0.1609(8) 0.9199(8)
C6_18 C 0.8494(7) 0.1485(6) 0.9323(6)
H3_18 H 0.8591 0.1438 0.9383
C7_18 C 0.8315(9) 0.1428(4) 0.9362(4)
H4_18 H 0.8292 0.1337 0.9444
N1_18 N 0.8682(5) 0.1676(6) 0.9144(6)
O3_18 O 0.6963(4) 0.0206(4) 0.7866(5)
C8_18 C 0.6892(5) 0.0258(5) 0.8007(5)
O4_18 O 0.6726(4) 0.0238(3) 0.8009(3)
C9_18 C 0.6964(11) 0.0351(5) 0.8150(7)
C10_18 C 0.7143(11) 0.0377(6) 0.8131(6)
H5_18 H 0.7201 0.0336 0.8029
C11_18 C 0.7239(5) 0.0464(7) 0.8260(11)
H6_18 H 0.7361 0.0481 0.8247
C12_18 C 0.7154(11) 0.0526(4) 0.8410(8)
C13_18 C 0.6975(11) 0.0501(6) 0.8429(6)
H7_18 H 0.6917 0.0543 0.8530
C14_18 C 0.6880(4) 0.0412(7) 0.8301(11)
H8_18 H 0.6759 0.0394 0.8316
N2_18 N 0.7290(8) 0.0676(6) 0.8613(6)
O5_18 O 0.7575(4) 0.1153(4) 0.9254(4)
C15_18 C 0.7629(5) 0.1032(5) 0.9152(5)
O6_18 O 0.7794(5) 0.1022(4) 0.9171(4)
C16_18 C 0.7554(11) 0.0943(6) 0.9008(5)
C17_18 C 0.7378(11) 0.0963(5) 0.8988(7)
H9_18 H 0.7316 0.1039 0.9063
C18_18 C 0.7292(4) 0.0874(9) 0.8860(10)
H10_18 H 0.7170 0.0889 0.8846
C19_18 C 0.7381(12) 0.0764(7) 0.8752(6)
C20_18 C 0.7558(11) 0.0747(5) 0.8770(7)
H11_18 H 0.7621 0.0674 0.8692
C21_18 C 0.7643(4) 0.0834(9) 0.8898(10)
H12_18 H 0.7765 0.0820 0.8912
N3_18 N 0.7225(9) 0.0619(6) 0.8557(7)
C22_18 C 0.72835(19) 0.14708(17) 0.97012(15)
N4_18 N 0.7115(2) 0.1466(2) 0.9769(2)
C23_18 C 0.7117(3) 0.1598(3) 0.9883(2)
H13_18 H 0.7018 0.1627 0.9951
N5_18 N 0.7267(4) 0.1688(2) 0.9896(2)
C24_18 C 0.7374(3) 0.16067(17) 0.97787(18)
N6_18 N 0.7541(3) 0.1653(2) 0.9741(3)
C25_18 C 0.7610(2) 0.1552(3) 0.9618(3)
H14_18 H 0.7726 0.1580 0.9585
N7_18 N 0.7538(2) 0.1418(3) 0.9535(2)
C26_18 C 0.7371(2) 0.13721(19) 0.95742(16)
N8_18 N 0.7302(3) 0.1236(2) 0.9489(2)
H15_18 H 0.7364 0.1180 0.9411
H16_18 H 0.7194 0.1204 0.9511
Zn1_18 Zn 0.77294(8) 0.12470(9) 0.94225(8)
Zn2_18 Zn 0.76863(9) 0.18422(10) 0.99071(9)
O7_27 O 0.7500 0.1988(5) 1.0000
O8_18 O 0.9616(4) 0.1734(4) 0.9023(3)
C27_18 C 0.9490(5) 0.1815(4) 0.8954(4)
C28_18 C 0.9317(5) 0.1777(7) 0.9009(7)
C29_18 C 0.9297(7) 0.1659(6) 0.9140(6)
H17_18 H 0.9395 0.1602 0.9190
C30_18 C 0.9120(10) 0.1624(5) 0.9201(5)
H18_18 H 0.9098 0.1553 0.9300
C31_18 C 0.8986(6) 0.1699(8) 0.9109(8)
C32_18 C 0.9006(7) 0.1823(6) 0.8985(6)
H19_18 H 0.8909 0.1883 0.8938
C33_18 C 0.9185(9) 0.1862(4) 0.8928(4)
H20_18 H 0.9208 0.1944 0.8837
N9_18 N 0.8818(5) 0.1644(6) 0.9176(6)
O15_18 O 0.7866(5) 0.1963(4) 0.9794(4)
N17_18 N 0.7731(2) 0.1034(2) 0.9615(2)
Zn7_18 Zn 0.69225(8) 0.12530(9) 0.97706(8)
Zn8_18 Zn 0.68422(10) 0.00929(9) 0.76863(9)
O1_19 O 0.2884(4) 0.3477(3) 0.0766(4)
C1_19 C 0.3010(5) 0.3546(4) 0.0685(4)
O2_19 O 0.2959(4) 0.3667(4) 0.0585(3)
C2_19 C 0.3183(5) 0.3491(7) 0.0723(7)
C3_19 C 0.3203(7) 0.3360(6) 0.0841(6)
H1_19 H 0.3105 0.3310 0.0898
C4_19 C 0.3380(10) 0.3299(5) 0.0876(5)
H2_19 H 0.3402 0.3200 0.0947
C5_19 C 0.3514(6) 0.3391(8) 0.0801(8)
C6_19 C 0.3494(7) 0.3515(6) 0.0677(6)
H3_19 H 0.3591 0.3562 0.0617
C7_19 C 0.3315(9) 0.3572(4) 0.0638(4)
H4_19 H 0.3292 0.3663 0.0556
N1_19 N 0.3682(5) 0.3324(6) 0.0856(6)
O3_19 O 0.1963(4) 0.4794(4) 0.2134(5)
C8_19 C 0.1892(5) 0.4742(5) 0.1993(5)
O4_19 O 0.1726(4) 0.4762(3) 0.1991(3)
C9_19 C 0.1964(11) 0.4649(5) 0.1850(7)
C10_19 C 0.2143(11) 0.4623(6) 0.1869(6)
H5_19 H 0.2201 0.4664 0.1971
C11_19 C 0.2239(5) 0.4536(7) 0.1740(11)
H6_19 H 0.2361 0.4519 0.1753
C12_19 C 0.2154(11) 0.4474(4) 0.1590(8)
C13_19 C 0.1975(11) 0.4499(6) 0.1571(6)
H7_19 H 0.1917 0.4457 0.1470
C14_19 C 0.1880(4) 0.4588(7) 0.1699(11)
H8_19 H 0.1759 0.4606 0.1684
N2_19 N 0.2290(8) 0.4324(6) 0.1387(6)
O5_19 O 0.2575(4) 0.3847(4) 0.0746(4)
C15_19 C 0.2629(5) 0.3968(5) 0.0848(5)
O6_19 O 0.2794(5) 0.3978(4) 0.0829(4)
C16_19 C 0.2554(11) 0.4057(6) 0.0992(5)
C17_19 C 0.2378(11) 0.4037(5) 0.1012(7)
H9_19 H 0.2316 0.3961 0.0937
C18_19 C 0.2292(4) 0.4126(9) 0.1140(10)
H10_19 H 0.2170 0.4111 0.1154
C19_19 C 0.2381(12) 0.4236(7) 0.1248(6)
C20_19 C 0.2558(11) 0.4253(5) 0.1230(7)
H11_19 H 0.2621 0.4326 0.1308
C21_19 C 0.2643(4) 0.4166(9) 0.1102(10)
H12_19 H 0.2765 0.4180 0.1088
N3_19 N 0.2225(9) 0.4381(6) 0.1443(7)
C22_19 C 0.22835(19) 0.35292(17) 0.02988(15)
N4_19 N 0.2115(2) 0.3534(2) 0.0231(2)
C23_19 C 0.2117(3) 0.3402(3) 0.0117(2)
H13_19 H 0.2018 0.3373 0.0049
N5_19 N 0.2267(4) 0.3312(2) 0.0104(2)
C24_19 C 0.2374(3) 0.33933(17) 0.02213(18)
N6_19 N 0.2541(3) 0.3347(2) 0.0259(3)
C25_19 C 0.2610(2) 0.3448(3) 0.0382(3)
H14_19 H 0.2726 0.3420 0.0415
N7_19 N 0.2538(2) 0.3582(3) 0.0465(2)
C26_19 C 0.2371(2) 0.36279(19) 0.04258(16)
N8_19 N 0.2302(3) 0.3764(2) 0.0511(2)
H15_19 H 0.2364 0.3820 0.0589
H16_19 H 0.2194 0.3796 0.0489
Zn1_19 Zn 0.27294(8) 0.37530(9) 0.05775(8)
Zn2_19 Zn 0.26863(9) 0.31578(10) 0.00929(9)
O7_28 O 0.2500 0.3012(5) 0.0000
O8_19 O 0.4616(4) 0.3266(4) 0.0977(3)
C27_19 C 0.4490(5) 0.3185(4) 0.1046(4)
C28_19 C 0.4317(5) 0.3223(7) 0.0991(7)
C29_19 C 0.4297(7) 0.3341(6) 0.0860(6)
H17_19 H 0.4395 0.3398 0.0810
C30_19 C 0.4120(10) 0.3376(5) 0.0799(5)
H18_19 H 0.4098 0.3447 0.0700
C31_19 C 0.3986(6) 0.3301(8) 0.0891(8)
C32_19 C 0.4006(7) 0.3177(6) 0.1015(6)
H19_19 H 0.3909 0.3117 0.1062
C33_19 C 0.4185(9) 0.3138(4) 0.1072(4)
H20_19 H 0.4208 0.3056 0.1163
N9_19 N 0.3818(5) 0.3356(6) 0.0824(6)
O15_19 O 0.2866(5) 0.3037(4) 0.0206(4)
N17_19 N 0.2731(2) 0.3966(2) 0.0385(2)
Zn7_19 Zn 0.19225(8) 0.37470(9) 0.02294(8)
Zn8_19 Zn 0.18422(10) 0.49071(9) 0.23137(9)
O7_29 O 0.2500 0.3012(5) 1.0000
O10_19 O 0.3037(4) 0.4794(4) 0.7866(5)
C34_19 C 0.3108(5) 0.4742(5) 0.8007(5)
O11_19 O 0.3274(4) 0.4762(3) 0.8009(3)
C35_19 C 0.3036(11) 0.4649(5) 0.8150(7)
C36_19 C 0.2857(11) 0.4623(6) 0.8131(6)
H21_19 H 0.2799 0.4664 0.8029
C37_19 C 0.2761(5) 0.4536(7) 0.8260(11)
H22_19 H 0.2639 0.4519 0.8247
C38_19 C 0.2846(11) 0.4474(4) 0.8410(8)
C39_19 C 0.3025(11) 0.4499(6) 0.8429(6)
H23_19 H 0.3083 0.4457 0.8530
C40_19 C 0.3120(4) 0.4588(7) 0.8301(11)
H24_19 H 0.3241 0.4606 0.8316
N10_19 N 0.2710(8) 0.4324(6) 0.8613(6)
O12_19 O 0.2425(4) 0.3847(4) 0.9254(4)
C41_19 C 0.2371(5) 0.3968(5) 0.9152(5)
O13_19 O 0.2206(5) 0.3978(4) 0.9171(4)
C42_19 C 0.2446(11) 0.4057(6) 0.9008(5)
C43_19 C 0.2622(11) 0.4037(5) 0.8988(7)
H25_19 H 0.2684 0.3961 0.9063
C44_19 C 0.2708(4) 0.4126(9) 0.8860(10)
H26_19 H 0.2830 0.4111 0.8846
C45_19 C 0.2619(12) 0.4236(7) 0.8752(6)
C46_19 C 0.2442(11) 0.4253(5) 0.8770(7)
H27_19 H 0.2379 0.4326 0.8692
C47_19 C 0.2357(4) 0.4166(9) 0.8898(10)
H28_19 H 0.2235 0.4180 0.8912
N11_19 N 0.2775(9) 0.4381(6) 0.8557(7)
C48_19 C 0.27165(19) 0.35292(17) 0.97012(15)
N12_19 N 0.2885(2) 0.3534(2) 0.9769(2)
C49_19 C 0.2883(3) 0.3402(3) 0.9883(2)
H29_19 H 0.2982 0.3373 0.9951
N13_19 N 0.2733(4) 0.3312(2) 0.9896(2)
C50_19 C 0.2626(3) 0.33933(17) 0.97787(18)
N14_19 N 0.2459(3) 0.3347(2) 0.9741(3)
C51_19 C 0.2390(2) 0.3448(3) 0.9618(3)
H30_19 H 0.2274 0.3420 0.9585
N15_19 N 0.2462(2) 0.3582(3) 0.9535(2)
C52_19 C 0.2629(2) 0.36279(19) 0.95742(16)
N16_19 N 0.2698(3) 0.3764(2) 0.9489(2)
H31_19 H 0.2636 0.3820 0.9411
H32_19 H 0.2806 0.3796 0.9511
Zn4_19 Zn 0.23137(9) 0.31578(10) 0.99071(9)
O16_19 O 0.2134(5) 0.3037(4) 0.9794(4)
N18_19 N 0.2269(2) 0.3966(2) 0.9615(2)
Zn6_19 Zn 0.30775(8) 0.37470(9) 0.97706(8)
Zn9_19 Zn 0.31578(10) 0.49071(9) 0.76863(9)
O1_20 O 0.7116(4) 0.8477(3) 0.4234(4)
C1_20 C 0.6990(5) 0.8546(4) 0.4315(4)
O2_20 O 0.7041(4) 0.8667(4) 0.4415(3)
C2_20 C 0.6817(5) 0.8491(7) 0.4277(7)
C3_20 C 0.6797(7) 0.8360(6) 0.4159(6)
H1_20 H 0.6895 0.8310 0.4102
C4_20 C 0.6620(10) 0.8299(5) 0.4124(5)
H2_20 H 0.6598 0.8200 0.4053
C5_20 C 0.6486(6) 0.8391(8) 0.4199(8)
C6_20 C 0.6506(7) 0.8515(6) 0.4323(6)
H3_20 H 0.6409 0.8562 0.4383
C7_20 C 0.6685(9) 0.8572(4) 0.4362(4)
H4_20 H 0.6708 0.8663 0.4444
N1_20 N 0.6318(5) 0.8324(6) 0.4144(6)
O3_20 O 0.8037(4) 0.9794(4) 0.2866(5)
C8_20 C 0.8108(5) 0.9742(5) 0.3007(5)
O4_20 O 0.8274(4) 0.9762(3) 0.3009(3)
C9_20 C 0.8036(11) 0.9649(5) 0.3150(7)
C10_20 C 0.7857(11) 0.9623(6) 0.3131(6)
H5_20 H 0.7799 0.9664 0.3029
C11_20 C 0.7761(5) 0.9536(7) 0.3260(11)
H6_20 H 0.7639 0.9519 0.3247
C12_20 C 0.7846(11) 0.9474(4) 0.3410(8)
C13_20 C 0.8025(11) 0.9499(6) 0.3429(6)
H7_20 H 0.8083 0.9457 0.3530
C14_20 C 0.8120(4) 0.9588(7) 0.3301(11)
H8_20 H 0.8241 0.9606 0.3316
N2_20 N 0.7710(8) 0.9324(6) 0.3613(6)
O5_20 O 0.7425(4) 0.8847(4) 0.4254(4)
C15_20 C 0.7371(5) 0.8968(5) 0.4152(5)
O6_20 O 0.7206(5) 0.8978(4) 0.4171(4)
C16_20 C 0.7446(11) 0.9057(6) 0.4008(5)
C17_20 C 0.7622(11) 0.9037(5) 0.3988(7)
H9_20 H 0.7684 0.8961 0.4063
C18_20 C 0.7708(4) 0.9126(9) 0.3860(10)
H10_20 H 0.7830 0.9111 0.3846
C19_20 C 0.7619(12) 0.9236(7) 0.3752(6)
C20_20 C 0.7442(11) 0.9253(5) 0.3770(7)
H11_20 H 0.7379 0.9326 0.3692
C21_20 C 0.7357(4) 0.9166(9) 0.3898(10)
H12_20 H 0.7235 0.9180 0.3912
N3_20 N 0.7775(9) 0.9381(6) 0.3557(7)
C22_20 C 0.77165(19) 0.85292(17) 0.47012(15)
N4_20 N 0.7885(2) 0.8534(2) 0.4769(2)
C23_20 C 0.7883(3) 0.8402(3) 0.4883(2)
H13_20 H 0.7982 0.8373 0.4951
N5_20 N 0.7733(4) 0.8312(2) 0.4896(2)
C24_20 C 0.7626(3) 0.83933(17) 0.47787(18)
N6_20 N 0.7459(3) 0.8347(2) 0.4741(3)
C25_20 C 0.7390(2) 0.8448(3) 0.4618(3)
H14_20 H 0.7274 0.8420 0.4585
N7_20 N 0.7462(2) 0.8582(3) 0.4535(2)
C26_20 C 0.7629(2) 0.86279(19) 0.45742(16)
N8_20 N 0.7698(3) 0.8764(2) 0.4489(2)
H15_20 H 0.7636 0.8820 0.4411
H16_20 H 0.7806 0.8796 0.4511
Zn1_20 Zn 0.72706(8) 0.87530(9) 0.44225(8)
Zn2_20 Zn 0.73137(9) 0.81578(10) 0.49071(9)
O7_30 O 0.7500 0.8012(5) 0.5000
O8_20 O 0.5384(4) 0.8266(4) 0.4023(3)
C27_20 C 0.5510(5) 0.8185(4) 0.3954(4)
C28_20 C 0.5683(5) 0.8223(7) 0.4009(7)
C29_20 C 0.5703(7) 0.8341(6) 0.4140(6)
H17_20 H 0.5605 0.8398 0.4190
C30_20 C 0.5880(10) 0.8376(5) 0.4201(5)
H18_20 H 0.5902 0.8447 0.4300
C31_20 C 0.6014(6) 0.8301(8) 0.4109(8)
C32_20 C 0.5994(7) 0.8177(6) 0.3985(6)
H19_20 H 0.6091 0.8117 0.3938
C33_20 C 0.5815(9) 0.8138(4) 0.3928(4)
H20_20 H 0.5792 0.8056 0.3837
N9_20 N 0.6182(5) 0.8356(6) 0.4176(6)
O10_20 O 0.6963(4) 0.9794(4) 0.7134(5)
C34_20 C 0.6892(5) 0.9742(5) 0.6993(5)
O11_20 O 0.6726(4) 0.9762(3) 0.6991(3)
C35_20 C 0.6964(11) 0.9649(5) 0.6850(7)
C36_20 C 0.7143(11) 0.9623(6) 0.6869(6)
H21_20 H 0.7201 0.9664 0.6971
C37_20 C 0.7239(5) 0.9536(7) 0.6740(11)
H22_20 H 0.7361 0.9519 0.6753
C38_20 C 0.7154(11) 0.9474(4) 0.6590(8)
C39_20 C 0.6975(11) 0.9499(6) 0.6571(6)
H23_20 H 0.6917 0.9457 0.6470
C40_20 C 0.6880(4) 0.9588(7) 0.6699(11)
H24_20 H 0.6759 0.9606 0.6684
N10_20 N 0.7290(8) 0.9324(6) 0.6387(6)
O12_20 O 0.7575(4) 0.8847(4) 0.5746(4)
C41_20 C 0.7629(5) 0.8968(5) 0.5848(5)
O13_20 O 0.7794(5) 0.8978(4) 0.5829(4)
C42_20 C 0.7554(11) 0.9057(6) 0.5992(5)
C43_20 C 0.7378(11) 0.9037(5) 0.6012(7)
H25_20 H 0.7316 0.8961 0.5937
C44_20 C 0.7292(4) 0.9126(9) 0.6140(10)
H26_20 H 0.7170 0.9111 0.6154
C45_20 C 0.7381(12) 0.9236(7) 0.6248(6)
C46_20 C 0.7558(11) 0.9253(5) 0.6230(7)
H27_20 H 0.7621 0.9326 0.6308
C47_20 C 0.7643(4) 0.9166(9) 0.6102(10)
H28_20 H 0.7765 0.9180 0.6088
N11_20 N 0.7225(9) 0.9381(6) 0.6443(7)
C48_20 C 0.72835(19) 0.85292(17) 0.52988(15)
N12_20 N 0.7115(2) 0.8534(2) 0.5231(2)
C49_20 C 0.7117(3) 0.8402(3) 0.5117(2)
H29_20 H 0.7018 0.8373 0.5049
N13_20 N 0.7267(4) 0.8312(2) 0.5104(2)
C50_20 C 0.7374(3) 0.83933(17) 0.52213(18)
N14_20 N 0.7541(3) 0.8347(2) 0.5259(3)
C51_20 C 0.7610(2) 0.8448(3) 0.5382(3)
H30_20 H 0.7726 0.8420 0.5415
N15_20 N 0.7538(2) 0.8582(3) 0.5465(2)
C52_20 C 0.7371(2) 0.86279(19) 0.54258(16)
N16_20 N 0.7302(3) 0.8764(2) 0.5511(2)
H31_20 H 0.7364 0.8820 0.5589
H32_20 H 0.7194 0.8796 0.5489
Zn4_20 Zn 0.76863(9) 0.81578(10) 0.50929(9)
O15_20 O 0.7134(5) 0.8037(4) 0.4794(4)
O16_20 O 0.7866(5) 0.8037(4) 0.5206(4)
N17_20 N 0.7269(2) 0.8966(2) 0.4615(2)
N18_20 N 0.7731(2) 0.8966(2) 0.5385(2)
Zn6_20 Zn 0.69225(8) 0.87470(9) 0.52294(8)
Zn7_20 Zn 0.80775(8) 0.87470(9) 0.47706(8)
Zn8_20 Zn 0.81578(10) 0.99071(9) 0.26863(9)
Zn9_20 Zn 0.68422(10) 0.99071(9) 0.73137(9)
O7_31 O 0.1988(5) 0.0000 0.7500
O10_21 O 0.0206(4) 0.2134(5) 0.8037(4)
C34_21 C 0.0258(5) 0.1993(5) 0.8108(5)
O11_21 O 0.0238(3) 0.1991(3) 0.8274(4)
C35_21 C 0.0351(5) 0.1850(7) 0.8036(11)
C36_21 C 0.0377(6) 0.1869(6) 0.7857(11)
H21_21 H 0.0336 0.1971 0.7799
C37_21 C 0.0464(7) 0.1740(11) 0.7761(5)
H22_21 H 0.0481 0.1753 0.7639
C38_21 C 0.0526(4) 0.1590(8) 0.7846(11)
C39_21 C 0.0501(6) 0.1571(6) 0.8025(11)
H23_21 H 0.0543 0.1470 0.8083
C40_21 C 0.0412(7) 0.1699(11) 0.8120(4)
H24_21 H 0.0394 0.1684 0.8241
N10_21 N 0.0676(6) 0.1387(6) 0.7710(8)
O12_21 O 0.1153(4) 0.0746(4) 0.7425(4)
C41_21 C 0.1032(5) 0.0848(5) 0.7371(5)
O13_21 O 0.1022(4) 0.0829(4) 0.7206(5)
C42_21 C 0.0943(6) 0.0992(5) 0.7446(11)
C43_21 C 0.0963(5) 0.1012(7) 0.7622(11)
H25_21 H 0.1039 0.0937 0.7684
C44_21 C 0.0874(9) 0.1140(10) 0.7708(4)
H26_21 H 0.0889 0.1154 0.7830
C45_21 C 0.0764(7) 0.1248(6) 0.7619(12)
C46_21 C 0.0747(5) 0.1230(7) 0.7442(11)
H27_21 H 0.0674 0.1308 0.7379
C47_21 C 0.0834(9) 0.1102(10) 0.7357(4)
H28_21 H 0.0820 0.1088 0.7235
N11_21 N 0.0619(6) 0.1443(7) 0.7775(9)
C48_21 C 0.14708(17) 0.02988(15) 0.77165(19)
N12_21 N 0.1466(2) 0.0231(2) 0.7885(2)
C49_21 C 0.1598(3) 0.0117(2) 0.7883(3)
H29_21 H 0.1627 0.0049 0.7982
N13_21 N 0.1688(2) 0.0104(2) 0.7733(4)
C50_21 C 0.16067(17) 0.02213(18) 0.7626(3)
N14_21 N 0.1653(2) 0.0259(3) 0.7459(3)
C51_21 C 0.1552(3) 0.0382(3) 0.7390(2)
H30_21 H 0.1580 0.0415 0.7274
N15_21 N 0.1418(3) 0.0465(2) 0.7462(2)
C52_21 C 0.13721(19) 0.04258(16) 0.7629(2)
N16_21 N 0.1236(2) 0.0511(2) 0.7698(3)
H31_21 H 0.1180 0.0589 0.7636
H32_21 H 0.1204 0.0489 0.7806
Zn4_21 Zn 0.18422(10) 0.00929(9) 0.73137(9)
O16_21 O 0.1963(4) 0.0206(4) 0.7134(5)
N18_21 N 0.1034(2) 0.0385(2) 0.7269(2)
Zn6_21 Zn 0.12530(9) 0.02294(8) 0.80775(8)
Zn9_21 Zn 0.00929(9) 0.23137(9) 0.81578(10)
O1_21 O 0.1523(3) 0.9234(4) 0.7884(4)
C1_21 C 0.1454(4) 0.9315(4) 0.8010(5)
O2_21 O 0.1333(4) 0.9415(3) 0.7959(4)
C2_21 C 0.1509(7) 0.9277(7) 0.8183(5)
C3_21 C 0.1640(6) 0.9159(6) 0.8203(7)
H1_21 H 0.1690 0.9102 0.8105
C4_21 C 0.1701(5) 0.9124(5) 0.8380(10)
H2_21 H 0.1800 0.9053 0.8402
C5_21 C 0.1609(8) 0.9199(8) 0.8514(6)
C6_21 C 0.1485(6) 0.9323(6) 0.8494(7)
H3_21 H 0.1438 0.9383 0.8591
C7_21 C 0.1428(4) 0.9362(4) 0.8315(9)
H4_21 H 0.1337 0.9444 0.8292
N1_21 N 0.1676(6) 0.9144(6) 0.8682(5)
O3_21 O 0.0206(4) 0.7866(5) 0.6963(4)
C8_21 C 0.0258(5) 0.8007(5) 0.6892(5)
O4_21 O 0.0238(3) 0.8009(3) 0.6726(4)
C9_21 C 0.0351(5) 0.8150(7) 0.6964(11)
C10_21 C 0.0377(6) 0.8131(6) 0.7143(11)
H5_21 H 0.0336 0.8029 0.7201
C11_21 C 0.0464(7) 0.8260(11) 0.7239(5)
H6_21 H 0.0481 0.8247 0.7361
C12_21 C 0.0526(4) 0.8410(8) 0.7154(11)
C13_21 C 0.0501(6) 0.8429(6) 0.6975(11)
H7_21 H 0.0543 0.8530 0.6917
C14_21 C 0.0412(7) 0.8301(11) 0.6880(4)
H8_21 H 0.0394 0.8316 0.6759
N2_21 N 0.0676(6) 0.8613(6) 0.7290(8)
O5_21 O 0.1153(4) 0.9254(4) 0.7575(4)
C15_21 C 0.1032(5) 0.9152(5) 0.7629(5)
O6_21 O 0.1022(4) 0.9171(4) 0.7794(5)
C16_21 C 0.0943(6) 0.9008(5) 0.7554(11)
C17_21 C 0.0963(5) 0.8988(7) 0.7378(11)
H9_21 H 0.1039 0.9063 0.7316
C18_21 C 0.0874(9) 0.8860(10) 0.7292(4)
H10_21 H 0.0889 0.8846 0.7170
C19_21 C 0.0764(7) 0.8752(6) 0.7381(12)
C20_21 C 0.0747(5) 0.8770(7) 0.7558(11)
H11_21 H 0.0674 0.8692 0.7621
C21_21 C 0.0834(9) 0.8898(10) 0.7643(4)
H12_21 H 0.0820 0.8912 0.7765
N3_21 N 0.0619(6) 0.8557(7) 0.7225(9)
C22_21 C 0.14708(17) 0.97012(15) 0.72835(19)
N4_21 N 0.1466(2) 0.9769(2) 0.7115(2)
C23_21 C 0.1598(3) 0.9883(2) 0.7117(3)
H13_21 H 0.1627 0.9951 0.7018
N5_21 N 0.1688(2) 0.9896(2) 0.7267(4)
C24_21 C 0.16067(17) 0.97787(18) 0.7374(3)
N6_21 N 0.1653(2) 0.9741(3) 0.7541(3)
C25_21 C 0.1552(3) 0.9618(3) 0.7610(2)
H14_21 H 0.1580 0.9585 0.7726
N7_21 N 0.1418(3) 0.9535(2) 0.7538(2)
C26_21 C 0.13721(19) 0.95742(16) 0.7371(2)
N8_21 N 0.1236(2) 0.9489(2) 0.7302(3)
H15_21 H 0.1180 0.9411 0.7364
H16_21 H 0.1204 0.9511 0.7194
Zn1_21 Zn 0.12470(9) 0.94225(8) 0.77294(8)
Zn2_21 Zn 0.18422(10) 0.99071(9) 0.76863(9)
O7_32 O 0.1988(5) 1.0000 0.7500
O8_21 O 0.1734(4) 0.9023(3) 0.9616(4)
C27_21 C 0.1815(4) 0.8954(4) 0.9490(5)
C28_21 C 0.1777(7) 0.9009(7) 0.9317(5)
C29_21 C 0.1659(6) 0.9140(6) 0.9297(7)
H17_21 H 0.1602 0.9190 0.9395
C30_21 C 0.1624(5) 0.9201(5) 0.9120(10)
H18_21 H 0.1553 0.9300 0.9098
C31_21 C 0.1699(8) 0.9109(8) 0.8986(6)
C32_21 C 0.1823(6) 0.8985(6) 0.9006(7)
H19_21 H 0.1883 0.8938 0.8909
C33_21 C 0.1862(4) 0.8928(4) 0.9185(9)
H20_21 H 0.1944 0.8837 0.9208
N9_21 N 0.1644(6) 0.9176(6) 0.8818(5)
O15_21 O 0.1963(4) 0.9794(4) 0.7866(5)
N17_21 N 0.1034(2) 0.9615(2) 0.7731(2)
Zn7_21 Zn 0.12530(9) 0.97706(8) 0.69225(8)
Zn8_21 Zn 0.00929(9) 0.76863(9) 0.68422(10)
O1_22 O 0.6523(3) 0.5766(4) 0.2116(4)
C1_22 C 0.6454(4) 0.5685(4) 0.1990(5)
O2_22 O 0.6333(4) 0.5585(3) 0.2041(4)
C2_22 C 0.6509(7) 0.5723(7) 0.1817(5)
C3_22 C 0.6640(6) 0.5841(6) 0.1797(7)
H1_22 H 0.6690 0.5898 0.1895
C4_22 C 0.6701(5) 0.5876(5) 0.1620(10)
H2_22 H 0.6800 0.5947 0.1598
C5_22 C 0.6609(8) 0.5801(8) 0.1486(6)
C6_22 C 0.6485(6) 0.5677(6) 0.1506(7)
H3_22 H 0.6438 0.5617 0.1409
C7_22 C 0.6428(4) 0.5638(4) 0.1685(9)
H4_22 H 0.6337 0.5556 0.1708
N1_22 N 0.6676(6) 0.5856(6) 0.1318(5)
O3_22 O 0.5206(4) 0.7134(5) 0.3037(4)
C8_22 C 0.5258(5) 0.6993(5) 0.3108(5)
O4_22 O 0.5238(3) 0.6991(3) 0.3274(4)
C9_22 C 0.5351(5) 0.6850(7) 0.3036(11)
C10_22 C 0.5377(6) 0.6869(6) 0.2857(11)
H5_22 H 0.5336 0.6971 0.2799
C11_22 C 0.5464(7) 0.6740(11) 0.2761(5)
H6_22 H 0.5481 0.6753 0.2639
C12_22 C 0.5526(4) 0.6590(8) 0.2846(11)
C13_22 C 0.5501(6) 0.6571(6) 0.3025(11)
H7_22 H 0.5543 0.6470 0.3083
C14_22 C 0.5412(7) 0.6699(11) 0.3120(4)
H8_22 H 0.5394 0.6684 0.3241
N2_22 N 0.5676(6) 0.6387(6) 0.2710(8)
O5_22 O 0.6153(4) 0.5746(4) 0.2425(4)
C15_22 C 0.6032(5) 0.5848(5) 0.2371(5)
O6_22 O 0.6022(4) 0.5829(4) 0.2206(5)
C16_22 C 0.5943(6) 0.5992(5) 0.2446(11)
C17_22 C 0.5963(5) 0.6012(7) 0.2622(11)
H9_22 H 0.6039 0.5937 0.2684
C18_22 C 0.5874(9) 0.6140(10) 0.2708(4)
H10_22 H 0.5889 0.6154 0.2830
C19_22 C 0.5764(7) 0.6248(6) 0.2619(12)
C20_22 C 0.5747(5) 0.6230(7) 0.2442(11)
H11_22 H 0.5674 0.6308 0.2379
C21_22 C 0.5834(9) 0.6102(10) 0.2357(4)
H12_22 H 0.5820 0.6088 0.2235
N3_22 N 0.5619(6) 0.6443(7) 0.2775(9)
C22_22 C 0.64708(17) 0.52988(15) 0.27165(19)
N4_22 N 0.6466(2) 0.5231(2) 0.2885(2)
C23_22 C 0.6598(3) 0.5117(2) 0.2883(3)
H13_22 H 0.6627 0.5049 0.2982
N5_22 N 0.6688(2) 0.5104(2) 0.2733(4)
C24_22 C 0.66067(17) 0.52213(18) 0.2626(3)
N6_22 N 0.6653(2) 0.5259(3) 0.2459(3)
C25_22 C 0.6552(3) 0.5382(3) 0.2390(2)
H14_22 H 0.6580 0.5415 0.2274
N7_22 N 0.6418(3) 0.5465(2) 0.2462(2)
C26_22 C 0.63721(19) 0.54258(16) 0.2629(2)
N8_22 N 0.6236(2) 0.5511(2) 0.2698(3)
H15_22 H 0.6180 0.5589 0.2636
H16_22 H 0.6204 0.5489 0.2806
Zn1_22 Zn 0.62470(9) 0.55775(8) 0.22706(8)
Zn2_22 Zn 0.68422(10) 0.50929(9) 0.23137(9)
O7_33 O 0.6988(5) 0.5000 0.2500
O8_22 O 0.6734(4) 0.5977(3) 0.0384(4)
C27_22 C 0.6815(4) 0.6046(4) 0.0510(5)
C28_22 C 0.6777(7) 0.5991(7) 0.0683(5)
C29_22 C 0.6659(6) 0.5860(6) 0.0703(7)
H17_22 H 0.6602 0.5810 0.0605
C30_22 C 0.6624(5) 0.5799(5) 0.0880(10)
H18_22 H 0.6553 0.5700 0.0902
C31_22 C 0.6699(8) 0.5891(8) 0.1014(6)
C32_22 C 0.6823(6) 0.6015(6) 0.0994(7)
H19_22 H 0.6883 0.6062 0.1091
C33_22 C 0.6862(4) 0.6072(4) 0.0815(9)
H20_22 H 0.6944 0.6163 0.0792
N9_22 N 0.6644(6) 0.5824(6) 0.1182(5)
O10_22 O 0.5206(4) 0.2866(5) 0.1963(4)
C34_22 C 0.5258(5) 0.3007(5) 0.1892(5)
O11_22 O 0.5238(3) 0.3009(3) 0.1726(4)
C35_22 C 0.5351(5) 0.3150(7) 0.1964(11)
C36_22 C 0.5377(6) 0.3131(6) 0.2143(11)
H21_22 H 0.5336 0.3029 0.2201
C37_22 C 0.5464(7) 0.3260(11) 0.2239(5)
H22_22 H 0.5481 0.3247 0.2361
C38_22 C 0.5526(4) 0.3410(8) 0.2154(11)
C39_22 C 0.5501(6) 0.3429(6) 0.1975(11)
H23_22 H 0.5543 0.3530 0.1917
C40_22 C 0.5412(7) 0.3301(11) 0.1880(4)
H24_22 H 0.5394 0.3316 0.1759
N10_22 N 0.5676(6) 0.3613(6) 0.2290(8)
O12_22 O 0.6153(4) 0.4254(4) 0.2575(4)
C41_22 C 0.6032(5) 0.4152(5) 0.2629(5)
O13_22 O 0.6022(4) 0.4171(4) 0.2794(5)
C42_22 C 0.5943(6) 0.4008(5) 0.2554(11)
C43_22 C 0.5963(5) 0.3988(7) 0.2378(11)
H25_22 H 0.6039 0.4063 0.2316
C44_22 C 0.5874(9) 0.3860(10) 0.2292(4)
H26_22 H 0.5889 0.3846 0.2170
C45_22 C 0.5764(7) 0.3752(6) 0.2381(12)
C46_22 C 0.5747(5) 0.3770(7) 0.2558(11)
H27_22 H 0.5674 0.3692 0.2621
C47_22 C 0.5834(9) 0.3898(10) 0.2643(4)
H28_22 H 0.5820 0.3912 0.2765
N11_22 N 0.5619(6) 0.3557(7) 0.2225(9)
C48_22 C 0.64708(17) 0.47012(15) 0.22835(19)
N12_22 N 0.6466(2) 0.4769(2) 0.2115(2)
C49_22 C 0.6598(3) 0.4883(2) 0.2117(3)
H29_22 H 0.6627 0.4951 0.2018
N13_22 N 0.6688(2) 0.4896(2) 0.2267(4)
C50_22 C 0.66067(17) 0.47787(18) 0.2374(3)
N14_22 N 0.6653(2) 0.4741(3) 0.2541(3)
C51_22 C 0.6552(3) 0.4618(3) 0.2610(2)
H30_22 H 0.6580 0.4585 0.2726
N15_22 N 0.6418(3) 0.4535(2) 0.2538(2)
C52_22 C 0.63721(19) 0.45742(16) 0.2371(2)
N16_22 N 0.6236(2) 0.4489(2) 0.2302(3)
H31_22 H 0.6180 0.4411 0.2364
H32_22 H 0.6204 0.4511 0.2194
Zn4_22 Zn 0.68422(10) 0.49071(9) 0.26863(9)
O15_22 O 0.6963(4) 0.5206(4) 0.2134(5)
O16_22 O 0.6963(4) 0.4794(4) 0.2866(5)
N17_22 N 0.6034(2) 0.5385(2) 0.2269(2)
N18_22 N 0.6034(2) 0.4615(2) 0.2731(2)
Zn6_22 Zn 0.62530(9) 0.47706(8) 0.19225(8)
Zn7_22 Zn 0.62530(9) 0.52294(8) 0.30775(8)
Zn8_22 Zn 0.50929(9) 0.73137(9) 0.31578(10)
Zn9_22 Zn 0.50929(9) 0.26863(9) 0.18422(10)
O1_23 O 0.8477(3) 0.4234(4) 0.7116(4)
C1_23 C 0.8546(4) 0.4315(4) 0.6990(5)
O2_23 O 0.8667(4) 0.4415(3) 0.7041(4)
C2_23 C 0.8491(7) 0.4277(7) 0.6817(5)
C3_23 C 0.8360(6) 0.4159(6) 0.6797(7)
H1_23 H 0.8310 0.4102 0.6895
C4_23 C 0.8299(5) 0.4124(5) 0.6620(10)
H2_23 H 0.8200 0.4053 0.6598
C5_23 C 0.8391(8) 0.4199(8) 0.6486(6)
C6_23 C 0.8515(6) 0.4323(6) 0.6506(7)
H3_23 H 0.8562 0.4383 0.6409
C7_23 C 0.8572(4) 0.4362(4) 0.6685(9)
H4_23 H 0.8663 0.4444 0.6708
N1_23 N 0.8324(6) 0.4144(6) 0.6318(5)
O3_23 O 0.9794(4) 0.2866(5) 0.8037(4)
C8_23 C 0.9742(5) 0.3007(5) 0.8108(5)
O4_23 O 0.9762(3) 0.3009(3) 0.8274(4)
C9_23 C 0.9649(5) 0.3150(7) 0.8036(11)
C10_23 C 0.9623(6) 0.3131(6) 0.7857(11)
H5_23 H 0.9664 0.3029 0.7799
C11_23 C 0.9536(7) 0.3260(11) 0.7761(5)
H6_23 H 0.9519 0.3247 0.7639
C12_23 C 0.9474(4) 0.3410(8) 0.7846(11)
C13_23 C 0.9499(6) 0.3429(6) 0.8025(11)
H7_23 H 0.9457 0.3530 0.8083
C14_23 C 0.9588(7) 0.3301(11) 0.8120(4)
H8_23 H 0.9606 0.3316 0.8241
N2_23 N 0.9324(6) 0.3613(6) 0.7710(8)
O5_23 O 0.8847(4) 0.4254(4) 0.7425(4)
C15_23 C 0.8968(5) 0.4152(5) 0.7371(5)
O6_23 O 0.8978(4) 0.4171(4) 0.7206(5)
C16_23 C 0.9057(6) 0.4008(5) 0.7446(11)
C17_23 C 0.9037(5) 0.3988(7) 0.7622(11)
H9_23 H 0.8961 0.4063 0.7684
C18_23 C 0.9126(9) 0.3860(10) 0.7708(4)
H10_23 H 0.9111 0.3846 0.7830
C19_23 C 0.9236(7) 0.3752(6) 0.7619(12)
C20_23 C 0.9253(5) 0.3770(7) 0.7442(11)
H11_23 H 0.9326 0.3692 0.7379
C21_23 C 0.9166(9) 0.3898(10) 0.7357(4)
H12_23 H 0.9180 0.3912 0.7235
N3_23 N 0.9381(6) 0.3557(7) 0.7775(9)
C22_23 C 0.85292(17) 0.47012(15) 0.77165(19)
N4_23 N 0.8534(2) 0.4769(2) 0.7885(2)
C23_23 C 0.8402(3) 0.4883(2) 0.7883(3)
H13_23 H 0.8373 0.4951 0.7982
N5_23 N 0.8312(2) 0.4896(2) 0.7733(4)
C24_23 C 0.83933(17) 0.47787(18) 0.7626(3)
N6_23 N 0.8347(2) 0.4741(3) 0.7459(3)
C25_23 C 0.8448(3) 0.4618(3) 0.7390(2)
H14_23 H 0.8420 0.4585 0.7274
N7_23 N 0.8582(3) 0.4535(2) 0.7462(2)
C26_23 C 0.86279(19) 0.45742(16) 0.7629(2)
N8_23 N 0.8764(2) 0.4489(2) 0.7698(3)
H15_23 H 0.8820 0.4411 0.7636
H16_23 H 0.8796 0.4511 0.7806
Zn1_23 Zn 0.87530(9) 0.44225(8) 0.72706(8)
Zn2_23 Zn 0.81578(10) 0.49071(9) 0.73137(9)
O7_34 O 0.8012(5) 0.5000 0.7500
O8_23 O 0.8266(4) 0.4023(3) 0.5384(4)
C27_23 C 0.8185(4) 0.3954(4) 0.5510(5)
C28_23 C 0.8223(7) 0.4009(7) 0.5683(5)
C29_23 C 0.8341(6) 0.4140(6) 0.5703(7)
H17_23 H 0.8398 0.4190 0.5605
C30_23 C 0.8376(5) 0.4201(5) 0.5880(10)
H18_23 H 0.8447 0.4300 0.5902
C31_23 C 0.8301(8) 0.4109(8) 0.6014(6)
C32_23 C 0.8177(6) 0.3985(6) 0.5994(7)
H19_23 H 0.8117 0.3938 0.6091
C33_23 C 0.8138(4) 0.3928(4) 0.5815(9)
H20_23 H 0.8056 0.3837 0.5792
N9_23 N 0.8356(6) 0.4176(6) 0.6182(5)
O10_23 O 0.9794(4) 0.7134(5) 0.6963(4)
C34_23 C 0.9742(5) 0.6993(5) 0.6892(5)
O11_23 O 0.9762(3) 0.6991(3) 0.6726(4)
C35_23 C 0.9649(5) 0.6850(7) 0.6964(11)
C36_23 C 0.9623(6) 0.6869(6) 0.7143(11)
H21_23 H 0.9664 0.6971 0.7201
C37_23 C 0.9536(7) 0.6740(11) 0.7239(5)
H22_23 H 0.9519 0.6753 0.7361
C38_23 C 0.9474(4) 0.6590(8) 0.7154(11)
C39_23 C 0.9499(6) 0.6571(6) 0.6975(11)
H23_23 H 0.9457 0.6470 0.6917
C40_23 C 0.9588(7) 0.6699(11) 0.6880(4)
H24_23 H 0.9606 0.6684 0.6759
N10_23 N 0.9324(6) 0.6387(6) 0.7290(8)
O12_23 O 0.8847(4) 0.5746(4) 0.7575(4)
C41_23 C 0.8968(5) 0.5848(5) 0.7629(5)
O13_23 O 0.8978(4) 0.5829(4) 0.7794(5)
C42_23 C 0.9057(6) 0.5992(5) 0.7554(11)
C43_23 C 0.9037(5) 0.6012(7) 0.7378(11)
H25_23 H 0.8961 0.5937 0.7316
C44_23 C 0.9126(9) 0.6140(10) 0.7292(4)
H26_23 H 0.9111 0.6154 0.7170
C45_23 C 0.9236(7) 0.6248(6) 0.7381(12)
C46_23 C 0.9253(5) 0.6230(7) 0.7558(11)
H27_23 H 0.9326 0.6308 0.7621
C47_23 C 0.9166(9) 0.6102(10) 0.7643(4)
H28_23 H 0.9180 0.6088 0.7765
N11_23 N 0.9381(6) 0.6443(7) 0.7225(9)
C48_23 C 0.85292(17) 0.52988(15) 0.72835(19)
N12_23 N 0.8534(2) 0.5231(2) 0.7115(2)
C49_23 C 0.8402(3) 0.5117(2) 0.7117(3)
H29_23 H 0.8373 0.5049 0.7018
N13_23 N 0.8312(2) 0.5104(2) 0.7267(4)
C50_23 C 0.83933(17) 0.52213(18) 0.7374(3)
N14_23 N 0.8347(2) 0.5259(3) 0.7541(3)
C51_23 C 0.8448(3) 0.5382(3) 0.7610(2)
H30_23 H 0.8420 0.5415 0.7726
N15_23 N 0.8582(3) 0.5465(2) 0.7538(2)
C52_23 C 0.86279(19) 0.54258(16) 0.7371(2)
N16_23 N 0.8764(2) 0.5511(2) 0.7302(3)
H31_23 H 0.8820 0.5589 0.7364
H32_23 H 0.8796 0.5489 0.7194
Zn4_23 Zn 0.81578(10) 0.50929(9) 0.76863(9)
O15_23 O 0.8037(4) 0.4794(4) 0.7134(5)
O16_23 O 0.8037(4) 0.5206(4) 0.7866(5)
N17_23 N 0.8966(2) 0.4615(2) 0.7269(2)
N18_23 N 0.8966(2) 0.5385(2) 0.7731(2)
Zn6_23 Zn 0.87470(9) 0.52294(8) 0.69225(8)
Zn7_23 Zn 0.87470(9) 0.47706(8) 0.80775(8)
Zn8_23 Zn 0.99071(9) 0.26863(9) 0.81578(10)
Zn9_23 Zn 0.99071(9) 0.73137(9) 0.68422(10)
O1_24 O 0.3477(3) 0.0766(4) 0.2884(4)
C1_24 C 0.3546(4) 0.0685(4) 0.3010(5)
O2_24 O 0.3667(4) 0.0585(3) 0.2959(4)
C2_24 C 0.3491(7) 0.0723(7) 0.3183(5)
C3_24 C 0.3360(6) 0.0841(6) 0.3203(7)
H1_24 H 0.3310 0.0898 0.3105
C4_24 C 0.3299(5) 0.0876(5) 0.3380(10)
H2_24 H 0.3200 0.0947 0.3402
C5_24 C 0.3391(8) 0.0801(8) 0.3514(6)
C6_24 C 0.3515(6) 0.0677(6) 0.3494(7)
H3_24 H 0.3562 0.0617 0.3591
C7_24 C 0.3572(4) 0.0638(4) 0.3315(9)
H4_24 H 0.3663 0.0556 0.3292
N1_24 N 0.3324(6) 0.0856(6) 0.3682(5)
O3_24 O 0.4794(4) 0.2134(5) 0.1963(4)
C8_24 C 0.4742(5) 0.1993(5) 0.1892(5)
O4_24 O 0.4762(3) 0.1991(3) 0.1726(4)
C9_24 C 0.4649(5) 0.1850(7) 0.1964(11)
C10_24 C 0.4623(6) 0.1869(6) 0.2143(11)
H5_24 H 0.4664 0.1971 0.2201
C11_24 C 0.4536(7) 0.1740(11) 0.2239(5)
H6_24 H 0.4519 0.1753 0.2361
C12_24 C 0.4474(4) 0.1590(8) 0.2154(11)
C13_24 C 0.4499(6) 0.1571(6) 0.1975(11)
H7_24 H 0.4457 0.1470 0.1917
C14_24 C 0.4588(7) 0.1699(11) 0.1880(4)
H8_24 H 0.4606 0.1684 0.1759
N2_24 N 0.4324(6) 0.1387(6) 0.2290(8)
O5_24 O 0.3847(4) 0.0746(4) 0.2575(4)
C15_24 C 0.3968(5) 0.0848(5) 0.2629(5)
O6_24 O 0.3978(4) 0.0829(4) 0.2794(5)
C16_24 C 0.4057(6) 0.0992(5) 0.2554(11)
C17_24 C 0.4037(5) 0.1012(7) 0.2378(11)
H9_24 H 0.3961 0.0937 0.2316
C18_24 C 0.4126(9) 0.1140(10) 0.2292(4)
H10_24 H 0.4111 0.1154 0.2170
C19_24 C 0.4236(7) 0.1248(6) 0.2381(12)
C20_24 C 0.4253(5) 0.1230(7) 0.2558(11)
H11_24 H 0.4326 0.1308 0.2621
C21_24 C 0.4166(9) 0.1102(10) 0.2643(4)
H12_24 H 0.4180 0.1088 0.2765
N3_24 N 0.4381(6) 0.1443(7) 0.2225(9)
C22_24 C 0.35292(17) 0.02988(15) 0.22835(19)
N4_24 N 0.3534(2) 0.0231(2) 0.2115(2)
C23_24 C 0.3402(3) 0.0117(2) 0.2117(3)
H13_24 H 0.3373 0.0049 0.2018
N5_24 N 0.3312(2) 0.0104(2) 0.2267(4)
C24_24 C 0.33933(17) 0.02213(18) 0.2374(3)
N6_24 N 0.3347(2) 0.0259(3) 0.2541(3)
C25_24 C 0.3448(3) 0.0382(3) 0.2610(2)
H14_24 H 0.3420 0.0415 0.2726
N7_24 N 0.3582(3) 0.0465(2) 0.2538(2)
C26_24 C 0.36279(19) 0.04258(16) 0.2371(2)
N8_24 N 0.3764(2) 0.0511(2) 0.2302(3)
H15_24 H 0.3820 0.0589 0.2364
H16_24 H 0.3796 0.0489 0.2194
Zn1_24 Zn 0.37530(9) 0.05775(8) 0.27294(8)
Zn2_24 Zn 0.31578(10) 0.00929(9) 0.26863(9)
O7_35 O 0.3012(5) 0.0000 0.2500
O8_24 O 0.3266(4) 0.0977(3) 0.4616(4)
C27_24 C 0.3185(4) 0.1046(4) 0.4490(5)
C28_24 C 0.3223(7) 0.0991(7) 0.4317(5)
C29_24 C 0.3341(6) 0.0860(6) 0.4297(7)
H17_24 H 0.3398 0.0810 0.4395
C30_24 C 0.3376(5) 0.0799(5) 0.4120(10)
H18_24 H 0.3447 0.0700 0.4098
C31_24 C 0.3301(8) 0.0891(8) 0.3986(6)
C32_24 C 0.3177(6) 0.1015(6) 0.4006(7)
H19_24 H 0.3117 0.1062 0.3909
C33_24 C 0.3138(4) 0.1072(4) 0.4185(9)
H20_24 H 0.3056 0.1163 0.4208
N9_24 N 0.3356(6) 0.0824(6) 0.3818(5)
O15_24 O 0.3037(4) 0.0206(4) 0.2866(5)
N17_24 N 0.3966(2) 0.0385(2) 0.2731(2)
Zn7_24 Zn 0.37470(9) 0.02294(8) 0.19225(8)
Zn8_24 Zn 0.49071(9) 0.23137(9) 0.18422(10)
O7_36 O 0.3012(5) 1.0000 0.2500
O10_24 O 0.4794(4) 0.7866(5) 0.3037(4)
C34_24 C 0.4742(5) 0.8007(5) 0.3108(5)
O11_24 O 0.4762(3) 0.8009(3) 0.3274(4)
C35_24 C 0.4649(5) 0.8150(7) 0.3036(11)
C36_24 C 0.4623(6) 0.8131(6) 0.2857(11)
H21_24 H 0.4664 0.8029 0.2799
C37_24 C 0.4536(7) 0.8260(11) 0.2761(5)
H22_24 H 0.4519 0.8247 0.2639
C38_24 C 0.4474(4) 0.8410(8) 0.2846(11)
C39_24 C 0.4499(6) 0.8429(6) 0.3025(11)
H23_24 H 0.4457 0.8530 0.3083
C40_24 C 0.4588(7) 0.8301(11) 0.3120(4)
H24_24 H 0.4606 0.8316 0.3241
N10_24 N 0.4324(6) 0.8613(6) 0.2710(8)
O12_24 O 0.3847(4) 0.9254(4) 0.2425(4)
C41_24 C 0.3968(5) 0.9152(5) 0.2371(5)
O13_24 O 0.3978(4) 0.9171(4) 0.2206(5)
C42_24 C 0.4057(6) 0.9008(5) 0.2446(11)
C43_24 C 0.4037(5) 0.8988(7) 0.2622(11)
H25_24 H 0.3961 0.9063 0.2684
C44_24 C 0.4126(9) 0.8860(10) 0.2708(4)
H26_24 H 0.4111 0.8846 0.2830
C45_24 C 0.4236(7) 0.8752(6) 0.2619(12)
C46_24 C 0.4253(5) 0.8770(7) 0.2442(11)
H27_24 H 0.4326 0.8692 0.2379
C47_24 C 0.4166(9) 0.8898(10) 0.2357(4)
H28_24 H 0.4180 0.8912 0.2235
N11_24 N 0.4381(6) 0.8557(7) 0.2775(9)
C48_24 C 0.35292(17) 0.97012(15) 0.27165(19)
N12_24 N 0.3534(2) 0.9769(2) 0.2885(2)
C49_24 C 0.3402(3) 0.9883(2) 0.2883(3)
H29_24 H 0.3373 0.9951 0.2982
N13_24 N 0.3312(2) 0.9896(2) 0.2733(4)
C50_24 C 0.33933(17) 0.97787(18) 0.2626(3)
N14_24 N 0.3347(2) 0.9741(3) 0.2459(3)
C51_24 C 0.3448(3) 0.9618(3) 0.2390(2)
H30_24 H 0.3420 0.9585 0.2274
N15_24 N 0.3582(3) 0.9535(2) 0.2462(2)
C52_24 C 0.36279(19) 0.95742(16) 0.2629(2)
N16_24 N 0.3764(2) 0.9489(2) 0.2698(3)
H31_24 H 0.3820 0.9411 0.2636
H32_24 H 0.3796 0.9511 0.2806
Zn4_24 Zn 0.31578(10) 0.99071(9) 0.23137(9)
O16_24 O 0.3037(4) 0.9794(4) 0.2134(5)
N18_24 N 0.3966(2) 0.9615(2) 0.2269(2)
Zn6_24 Zn 0.37470(9) 0.97706(8) 0.30775(8)
Zn9_24 Zn 0.49071(9) 0.76863(9) 0.31578(10)
O1_25 O 0.5384(4) 0.3266(4) 0.5977(3)
C1_25 C 0.5510(5) 0.3185(4) 0.6046(4)
O2_25 O 0.5459(4) 0.3085(3) 0.6167(4)
C2_25 C 0.5683(5) 0.3223(7) 0.5991(7)
C3_25 C 0.5703(7) 0.3341(6) 0.5860(6)
H1_25 H 0.5605 0.3398 0.5810
C4_25 C 0.5880(10) 0.3376(5) 0.5799(5)
H2_25 H 0.5902 0.3447 0.5700
C5_25 C 0.6014(6) 0.3301(8) 0.5891(8)
C6_25 C 0.5994(7) 0.3177(6) 0.6015(6)
H3_25 H 0.6091 0.3117 0.6062
C7_25 C 0.5815(9) 0.3138(4) 0.6072(4)
H4_25 H 0.5792 0.3056 0.6163
N1_25 N 0.6182(5) 0.3356(6) 0.5824(6)
C8_25 C 0.4392(5) 0.4493(5) 0.7242(5)
O4_25 O 0.4226(4) 0.4491(3) 0.7262(3)
C9_25 C 0.4464(11) 0.4350(7) 0.7149(5)
C10_25 C 0.4643(11) 0.4369(6) 0.7123(6)
H5_25 H 0.4701 0.4471 0.7164
C11_25 C 0.4739(5) 0.4240(11) 0.7036(7)
H6_25 H 0.4861 0.4253 0.7019
C12_25 C 0.4654(11) 0.4090(8) 0.6974(4)
C13_25 C 0.4475(11) 0.4071(6) 0.6999(6)
H7_25 H 0.4417 0.3970 0.6957
C14_25 C 0.4380(4) 0.4199(11) 0.7088(7)
H8_25 H 0.4259 0.4184 0.7106
N2_25 N 0.4790(8) 0.3887(6) 0.6824(6)
O5_25 O 0.5075(4) 0.3246(4) 0.6347(4)
C15_25 C 0.5129(5) 0.3348(5) 0.6468(5)
O6_25 O 0.5294(5) 0.3329(4) 0.6478(4)
C16_25 C 0.5054(11) 0.3492(5) 0.6557(6)
C17_25 C 0.4878(11) 0.3512(7) 0.6537(5)
H9_25 H 0.4816 0.3437 0.6461
C18_25 C 0.4792(4) 0.3640(10) 0.6626(9)
H10_25 H 0.4670 0.3654 0.6611
C19_25 C 0.4881(12) 0.3748(6) 0.6736(7)
C20_25 C 0.5058(11) 0.3730(7) 0.6753(5)
H11_25 H 0.5121 0.3808 0.6826
C21_25 C 0.5143(4) 0.3602(10) 0.6666(9)
H12_25 H 0.5265 0.3588 0.6680
N3_25 N 0.4725(9) 0.3943(7) 0.6881(6)
C22_25 C 0.47835(19) 0.27988(15) 0.60292(17)
C23_25 C 0.4617(3) 0.2617(2) 0.5902(3)
H13_25 H 0.4518 0.2549 0.5873
N5_25 N 0.4767(4) 0.2604(2) 0.5812(2)
C24_25 C 0.4874(3) 0.27213(18) 0.58933(17)
N6_25 N 0.5041(3) 0.2759(3) 0.5847(2)
C25_25 C 0.5110(2) 0.2882(3) 0.5948(3)
H14_25 H 0.5226 0.2915 0.5920
N7_25 N 0.5038(2) 0.2965(2) 0.6082(3)
C26_25 C 0.4871(2) 0.29258(16) 0.61279(19)
N8_25 N 0.4802(3) 0.3011(2) 0.6264(2)
H15_25 H 0.4864 0.3089 0.6320
H16_25 H 0.4694 0.2989 0.6296
O7_37 O 0.5000 0.2500 0.5512(5)
O8_25 O 0.7116(4) 0.3477(3) 0.5766(4)
C27_25 C 0.6990(5) 0.3546(4) 0.5685(4)
O9_13 O 0.7041(4) 0.3667(4) 0.5585(3)
C28_25 C 0.6817(5) 0.3491(7) 0.5723(7)
C29_25 C 0.6797(7) 0.3360(6) 0.5841(6)
H17_25 H 0.6895 0.3310 0.5898
C30_25 C 0.6620(10) 0.3299(5) 0.5876(5)
H18_25 H 0.6598 0.3200 0.5947
C31_25 C 0.6486(6) 0.3391(8) 0.5801(8)
C32_25 C 0.6506(7) 0.3515(6) 0.5677(6)
H19_25 H 0.6409 0.3562 0.5617
C33_25 C 0.6685(9) 0.3572(4) 0.5638(4)
H20_25 H 0.6708 0.3663 0.5556
N9_25 N 0.6318(5) 0.3324(6) 0.5856(6)
C34_25 C 0.5608(5) 0.0507(5) 0.7242(5)
O11_25 O 0.5774(4) 0.0509(3) 0.7262(3)
C35_25 C 0.5536(11) 0.0650(7) 0.7149(5)
C36_25 C 0.5357(11) 0.0631(6) 0.7123(6)
H21_25 H 0.5299 0.0529 0.7164
C37_25 C 0.5261(5) 0.0760(11) 0.7036(7)
H22_25 H 0.5139 0.0747 0.7019
C38_25 C 0.5346(11) 0.0910(8) 0.6974(4)
C39_25 C 0.5525(11) 0.0929(6) 0.6999(6)
H23_25 H 0.5583 0.1030 0.6957
C40_25 C 0.5620(4) 0.0801(11) 0.7088(7)
H24_25 H 0.5741 0.0816 0.7106
N10_25 N 0.5210(8) 0.1113(6) 0.6824(6)
O12_25 O 0.4925(4) 0.1754(4) 0.6347(4)
C41_25 C 0.4871(5) 0.1652(5) 0.6468(5)
O13_25 O 0.4706(5) 0.1671(4) 0.6478(4)
C42_25 C 0.4946(11) 0.1508(5) 0.6557(6)
C43_25 C 0.5122(11) 0.1488(7) 0.6537(5)
H25_25 H 0.5184 0.1563 0.6461
C44_25 C 0.5208(4) 0.1360(10) 0.6626(9)
H26_25 H 0.5330 0.1346 0.6611
C45_25 C 0.5119(12) 0.1252(6) 0.6736(7)
C46_25 C 0.4942(11) 0.1270(7) 0.6753(5)
H27_25 H 0.4879 0.1192 0.6826
C47_25 C 0.4857(4) 0.1398(10) 0.6666(9)
H28_25 H 0.4735 0.1412 0.6680
N11_25 N 0.5275(9) 0.1057(7) 0.6881(6)
C48_25 C 0.52165(19) 0.22012(15) 0.60292(17)
C49_25 C 0.5383(3) 0.2383(2) 0.5902(3)
H29_25 H 0.5482 0.2451 0.5873
N13_25 N 0.5233(4) 0.2396(2) 0.5812(2)
C50_25 C 0.5126(3) 0.22787(18) 0.58933(17)
N14_25 N 0.4959(3) 0.2241(3) 0.5847(2)
C51_25 C 0.4890(2) 0.2118(3) 0.5948(3)
H30_25 H 0.4774 0.2085 0.5920
N15_25 N 0.4962(2) 0.2035(2) 0.6082(3)
C52_25 C 0.5129(2) 0.20742(16) 0.61279(19)
N16_25 N 0.5198(3) 0.1989(2) 0.6264(2)
H31_25 H 0.5136 0.1911 0.6320
H32_25 H 0.5306 0.2011 0.6296
O14_13 O 0.4541(4) 0.1915(3) 0.6167(4)
C8_26 C 0.0608(5) 0.5507(5) 0.2242(5)
O4_26 O 0.0774(4) 0.5509(3) 0.2262(3)
C9_26 C 0.0536(11) 0.5650(7) 0.2149(5)
C10_26 C 0.0357(11) 0.5631(6) 0.2123(6)
H5_26 H 0.0299 0.5529 0.2164
C11_26 C 0.0261(5) 0.5760(11) 0.2036(7)
H6_26 H 0.0139 0.5747 0.2019
C12_26 C 0.0346(11) 0.5910(8) 0.1974(4)
C13_26 C 0.0525(11) 0.5929(6) 0.1999(6)
H7_26 H 0.0583 0.6030 0.1957
C14_26 C 0.0620(4) 0.5801(11) 0.2088(7)
H8_26 H 0.0741 0.5816 0.2106
N2_26 N 0.0210(8) 0.6113(6) 0.1824(6)
C17_26 C 0.0122(11) 0.6488(7) 0.1537(5)
H9_26 H 0.0184 0.6563 0.1461
C18_26 C 0.0208(4) 0.6360(10) 0.1626(9)
H10_26 H 0.0330 0.6346 0.1611
C19_26 C 0.0119(12) 0.6252(6) 0.1736(7)
N3_26 N 0.0275(9) 0.6057(7) 0.1881(6)
C22_26 C 0.02165(19) 0.72012(15) 0.10292(17)
C23_26 C 0.0383(3) 0.7383(2) 0.0902(3)
H13_26 H 0.0482 0.7451 0.0873
N5_26 N 0.0233(4) 0.7396(2) 0.0812(2)
C24_26 C 0.0126(3) 0.72787(18) 0.08933(17)
C26_26 C 0.0129(2) 0.70742(16) 0.11279(19)
N8_26 N 0.0198(3) 0.6989(2) 0.1264(2)
H15_26 H 0.0136 0.6911 0.1320
H16_26 H 0.0306 0.7011 0.1296
O7_38 O 0.0000 0.7500 0.0512(5)
O12_26 O 0.0075(4) 0.8246(4) 0.1347(4)
C41_26 C 0.0129(5) 0.8348(5) 0.1468(5)
O13_26 O 0.0294(5) 0.8329(4) 0.1478(4)
C42_26 C 0.0054(11) 0.8492(5) 0.1557(6)
C46_26 C 0.0058(11) 0.8730(7) 0.1753(5)
H27_26 H 0.0121 0.8808 0.1826
C47_26 C 0.0143(4) 0.8602(10) 0.1666(9)
H28_26 H 0.0265 0.8588 0.1680
N14_26 N 0.0041(3) 0.7759(3) 0.0847(2)
C51_26 C 0.0110(2) 0.7882(3) 0.0948(3)
H30_26 H 0.0226 0.7915 0.0920
N15_26 N 0.0038(2) 0.7965(2) 0.1082(3)
O14_14 O 0.0459(4) 0.8085(3) 0.1167(4)
O1_26 O 0.9616(4) 0.6734(4) 0.0977(3)
C1_26 C 0.9490(5) 0.6815(4) 0.1046(4)
O2_26 O 0.9541(4) 0.6915(3) 0.1167(4)
C2_26 C 0.9317(5) 0.6777(7) 0.0991(7)
C3_26 C 0.9297(7) 0.6659(6) 0.0860(6)
H1_26 H 0.9395 0.6602 0.0810
C4_26 C 0.9120(10) 0.6624(5) 0.0799(5)
H2_26 H 0.9098 0.6553 0.0700
C5_26 C 0.8986(6) 0.6699(8) 0.0891(8)
C6_26 C 0.9006(7) 0.6823(6) 0.1015(6)
H3_26 H 0.8909 0.6883 0.1062
C7_26 C 0.9185(9) 0.6862(4) 0.1072(4)
H4_26 H 0.9208 0.6944 0.1163
N1_26 N 0.8818(5) 0.6644(6) 0.0824(6)
O5_26 O 0.9925(4) 0.6754(4) 0.1347(4)
C15_26 C 0.9871(5) 0.6652(5) 0.1468(5)
O6_26 O 0.9706(5) 0.6671(4) 0.1478(4)
C16_26 C 0.9946(11) 0.6508(5) 0.1557(6)
C20_26 C 0.9942(11) 0.6270(7) 0.1753(5)
H11_26 H 0.9879 0.6192 0.1826
C21_26 C 0.9857(4) 0.6398(10) 0.1666(9)
H12_26 H 0.9735 0.6412 0.1680
N6_26 N 0.9959(3) 0.7241(3) 0.0847(2)
C25_26 C 0.9890(2) 0.7118(3) 0.0948(3)
H14_26 H 0.9774 0.7085 0.0920
N7_26 N 0.9962(2) 0.7035(2) 0.1082(3)
O7_39 O 1.0000 0.7500 0.0512(5)
O8_26 O 0.7884(4) 0.6523(3) 0.0766(4)
C27_26 C 0.8010(5) 0.6454(4) 0.0685(4)
O9_14 O 0.7959(4) 0.6333(4) 0.0585(3)
C28_26 C 0.8183(5) 0.6509(7) 0.0723(7)
C29_26 C 0.8203(7) 0.6640(6) 0.0841(6)
H17_26 H 0.8105 0.6690 0.0898
C30_26 C 0.8380(10) 0.6701(5) 0.0876(5)
H18_26 H 0.8402 0.6800 0.0947
C31_26 C 0.8514(6) 0.6609(8) 0.0801(8)
C32_26 C 0.8494(7) 0.6485(6) 0.0677(6)
H19_26 H 0.8591 0.6438 0.0617
C33_26 C 0.8315(9) 0.6428(4) 0.0638(4)
H20_26 H 0.8292 0.6337 0.0556
N9_26 N 0.8682(5) 0.6676(6) 0.0856(6)
C34_26 C 0.9392(5) 0.9493(5) 0.2242(5)
O11_26 O 0.9226(4) 0.9491(3) 0.2262(3)
C35_26 C 0.9464(11) 0.9350(7) 0.2149(5)
C36_26 C 0.9643(11) 0.9369(6) 0.2123(6)
H21_26 H 0.9701 0.9471 0.2164
C37_26 C 0.9739(5) 0.9240(11) 0.2036(7)
H22_26 H 0.9861 0.9253 0.2019
C38_26 C 0.9654(11) 0.9090(8) 0.1974(4)
C39_26 C 0.9475(11) 0.9071(6) 0.1999(6)
H23_26 H 0.9417 0.8970 0.1957
C40_26 C 0.9380(4) 0.9199(11) 0.2088(7)
H24_26 H 0.9259 0.9184 0.2106
N10_26 N 0.9790(8) 0.8887(6) 0.1824(6)
C43_26 C 0.9878(11) 0.8512(7) 0.1537(5)
H25_26 H 0.9816 0.8437 0.1461
C44_26 C 0.9792(4) 0.8640(10) 0.1626(9)
H26_26 H 0.9670 0.8654 0.1611
C45_26 C 0.9881(12) 0.8748(6) 0.1736(7)
N11_26 N 0.9725(9) 0.8943(7) 0.1881(6)
C48_26 C 0.97835(19) 0.77988(15) 0.10292(17)
C49_26 C 0.9617(3) 0.7617(2) 0.0902(3)
H29_26 H 0.9518 0.7549 0.0873
N13_26 N 0.9767(4) 0.7604(2) 0.0812(2)
C50_26 C 0.9874(3) 0.77213(18) 0.08933(17)
C52_26 C 0.9871(2) 0.79258(16) 0.11279(19)
N16_26 N 0.9802(3) 0.8011(2) 0.1264(2)
H31_26 H 0.9864 0.8089 0.1320
H32_26 H 0.9694 0.7989 0.1296
O1_27 O 0.4616(4) 0.8266(4) 0.9023(3)
C1_27 C 0.4490(5) 0.8185(4) 0.8954(4)
O2_27 O 0.4541(4) 0.8085(3) 0.8833(4)
C2_27 C 0.4317(5) 0.8223(7) 0.9009(7)
C3_27 C 0.4297(7) 0.8341(6) 0.9140(6)
H1_27 H 0.4395 0.8398 0.9190
C4_27 C 0.4120(10) 0.8376(5) 0.9201(5)
H2_27 H 0.4098 0.8447 0.9300
C5_27 C 0.3986(6) 0.8301(8) 0.9109(8)
C6_27 C 0.4006(7) 0.8177(6) 0.8985(6)
H3_27 H 0.3909 0.8117 0.8938
C7_27 C 0.4185(9) 0.8138(4) 0.8928(4)
H4_27 H 0.4208 0.8056 0.8837
N1_27 N 0.3818(5) 0.8356(6) 0.9176(6)
C8_27 C 0.5608(5) 0.9493(5) 0.7758(5)
O4_27 O 0.5774(4) 0.9491(3) 0.7738(3)
C9_27 C 0.5536(11) 0.9350(7) 0.7851(5)
C10_27 C 0.5357(11) 0.9369(6) 0.7877(6)
H5_27 H 0.5299 0.9471 0.7836
C11_27 C 0.5261(5) 0.9240(11) 0.7964(7)
H6_27 H 0.5139 0.9253 0.7981
C12_27 C 0.5346(11) 0.9090(8) 0.8026(4)
C13_27 C 0.5525(11) 0.9071(6) 0.8001(6)
H7_27 H 0.5583 0.8970 0.8043
C14_27 C 0.5620(4) 0.9199(11) 0.7912(7)
H8_27 H 0.5741 0.9184 0.7894
N2_27 N 0.5210(8) 0.8887(6) 0.8176(6)
O5_27 O 0.4925(4) 0.8246(4) 0.8653(4)
C15_27 C 0.4871(5) 0.8348(5) 0.8532(5)
O6_27 O 0.4706(5) 0.8329(4) 0.8522(4)
C16_27 C 0.4946(11) 0.8492(5) 0.8443(6)
C17_27 C 0.5122(11) 0.8512(7) 0.8463(5)
H9_27 H 0.5184 0.8437 0.8539
C18_27 C 0.5208(4) 0.8640(10) 0.8374(9)
H10_27 H 0.5330 0.8654 0.8389
C19_27 C 0.5119(12) 0.8748(6) 0.8264(7)
C20_27 C 0.4942(11) 0.8730(7) 0.8247(5)
H11_27 H 0.4879 0.8808 0.8174
C21_27 C 0.4857(4) 0.8602(10) 0.8334(9)
H12_27 H 0.4735 0.8588 0.8320
N3_27 N 0.5275(9) 0.8943(7) 0.8119(6)
C22_27 C 0.52165(19) 0.77988(15) 0.89708(17)
C23_27 C 0.5383(3) 0.7617(2) 0.9098(3)
H13_27 H 0.5482 0.7549 0.9127
N5_27 N 0.5233(4) 0.7604(2) 0.9188(2)
C24_27 C 0.5126(3) 0.77213(18) 0.91067(17)
N6_27 N 0.4959(3) 0.7759(3) 0.9153(2)
C25_27 C 0.4890(2) 0.7882(3) 0.9052(3)
H14_27 H 0.4774 0.7915 0.9080
N7_27 N 0.4962(2) 0.7965(2) 0.8918(3)
C26_27 C 0.5129(2) 0.79258(16) 0.88721(19)
N8_27 N 0.5198(3) 0.8011(2) 0.8736(2)
H15_27 H 0.5136 0.8089 0.8680
H16_27 H 0.5306 0.7989 0.8704
O7_40 O 0.5000 0.7500 0.9488(5)
O8_27 O 0.2884(4) 0.8477(3) 0.9234(4)
C27_27 C 0.3010(5) 0.8546(4) 0.9315(4)
O9_15 O 0.2959(4) 0.8667(4) 0.9415(3)
C28_27 C 0.3183(5) 0.8491(7) 0.9277(7)
C29_27 C 0.3203(7) 0.8360(6) 0.9159(6)
H17_27 H 0.3105 0.8310 0.9102
C30_27 C 0.3380(10) 0.8299(5) 0.9124(5)
H18_27 H 0.3402 0.8200 0.9053
C31_27 C 0.3514(6) 0.8391(8) 0.9199(8)
C32_27 C 0.3494(7) 0.8515(6) 0.9323(6)
H19_27 H 0.3591 0.8562 0.9383
C33_27 C 0.3315(9) 0.8572(4) 0.9362(4)
H20_27 H 0.3292 0.8663 0.9444
N9_27 N 0.3682(5) 0.8324(6) 0.9144(6)
C34_27 C 0.4392(5) 0.5507(5) 0.7758(5)
O11_27 O 0.4226(4) 0.5509(3) 0.7738(3)
C35_27 C 0.4464(11) 0.5650(7) 0.7851(5)
C36_27 C 0.4643(11) 0.5631(6) 0.7877(6)
H21_27 H 0.4701 0.5529 0.7836
C37_27 C 0.4739(5) 0.5760(11) 0.7964(7)
H22_27 H 0.4861 0.5747 0.7981
C38_27 C 0.4654(11) 0.5910(8) 0.8026(4)
C39_27 C 0.4475(11) 0.5929(6) 0.8001(6)
H23_27 H 0.4417 0.6030 0.8043
C40_27 C 0.4380(4) 0.5801(11) 0.7912(7)
H24_27 H 0.4259 0.5816 0.7894
N10_27 N 0.4790(8) 0.6113(6) 0.8176(6)
O12_27 O 0.5075(4) 0.6754(4) 0.8653(4)
C41_27 C 0.5129(5) 0.6652(5) 0.8532(5)
O13_27 O 0.5294(5) 0.6671(4) 0.8522(4)
C42_27 C 0.5054(11) 0.6508(5) 0.8443(6)
C43_27 C 0.4878(11) 0.6488(7) 0.8463(5)
H25_27 H 0.4816 0.6563 0.8539
C44_27 C 0.4792(4) 0.6360(10) 0.8374(9)
H26_27 H 0.4670 0.6346 0.8389
C45_27 C 0.4881(12) 0.6252(6) 0.8264(7)
C46_27 C 0.5058(11) 0.6270(7) 0.8247(5)
H27_27 H 0.5121 0.6192 0.8174
C47_27 C 0.5143(4) 0.6398(10) 0.8334(9)
H28_27 H 0.5265 0.6412 0.8320
N11_27 N 0.4725(9) 0.6057(7) 0.8119(6)
C48_27 C 0.47835(19) 0.72012(15) 0.89708(17)
C49_27 C 0.4617(3) 0.7383(2) 0.9098(3)
H29_27 H 0.4518 0.7451 0.9127
N13_27 N 0.4767(4) 0.7396(2) 0.9188(2)
C50_27 C 0.4874(3) 0.72787(18) 0.91067(17)
N14_27 N 0.5041(3) 0.7241(3) 0.9153(2)
C51_27 C 0.5110(2) 0.7118(3) 0.9052(3)
H30_27 H 0.5226 0.7085 0.9080
N15_27 N 0.5038(2) 0.7035(2) 0.8918(3)
C52_27 C 0.4871(2) 0.70742(16) 0.88721(19)
N16_27 N 0.4802(3) 0.6989(2) 0.8736(2)
H31_27 H 0.4864 0.6911 0.8680
H32_27 H 0.4694 0.7011 0.8704
O14_15 O 0.5459(4) 0.6915(3) 0.8833(4)
O1_28 O 0.0384(4) 0.1734(4) 0.4023(3)
C1_28 C 0.0510(5) 0.1815(4) 0.3954(4)
O2_28 O 0.0459(4) 0.1915(3) 0.3833(4)
C2_28 C 0.0683(5) 0.1777(7) 0.4009(7)
C3_28 C 0.0703(7) 0.1659(6) 0.4140(6)
H1_28 H 0.0605 0.1602 0.4190
C4_28 C 0.0880(10) 0.1624(5) 0.4201(5)
H2_28 H 0.0902 0.1553 0.4300
C5_28 C 0.1014(6) 0.1699(8) 0.4109(8)
C6_28 C 0.0994(7) 0.1823(6) 0.3985(6)
H3_28 H 0.1091 0.1883 0.3938
C7_28 C 0.0815(9) 0.1862(4) 0.3928(4)
H4_28 H 0.0792 0.1944 0.3837
N1_28 N 0.1182(5) 0.1644(6) 0.4176(6)
O5_28 O 0.0075(4) 0.1754(4) 0.3653(4)
C15_28 C 0.0129(5) 0.1652(5) 0.3532(5)
O6_28 O 0.0294(5) 0.1671(4) 0.3522(4)
C16_28 C 0.0054(11) 0.1508(5) 0.3443(6)
C20_28 C 0.0058(11) 0.1270(7) 0.3247(5)
H11_28 H 0.0121 0.1192 0.3174
C21_28 C 0.0143(4) 0.1398(10) 0.3334(9)
H12_28 H 0.0265 0.1412 0.3320
N6_28 N 0.0041(3) 0.2241(3) 0.4153(2)
C25_28 C 0.0110(2) 0.2118(3) 0.4052(3)
H14_28 H 0.0226 0.2085 0.4080
N7_28 N 0.0038(2) 0.2035(2) 0.3918(3)
O7_41 O -0.0000 0.2500 0.4488(5)
O8_28 O 0.2116(4) 0.1523(3) 0.4234(4)
C27_28 C 0.1990(5) 0.1454(4) 0.4315(4)
O9_16 O 0.2041(4) 0.1333(4) 0.4415(3)
C28_28 C 0.1817(5) 0.1509(7) 0.4277(7)
C29_28 C 0.1797(7) 0.1640(6) 0.4159(6)
H17_28 H 0.1895 0.1690 0.4102
C30_28 C 0.1620(10) 0.1701(5) 0.4124(5)
H18_28 H 0.1598 0.1800 0.4053
C31_28 C 0.1486(6) 0.1609(8) 0.4199(8)
C32_28 C 0.1506(7) 0.1485(6) 0.4323(6)
H19_28 H 0.1409 0.1438 0.4383
C33_28 C 0.1685(9) 0.1428(4) 0.4362(4)
H20_28 H 0.1708 0.1337 0.4444
N9_28 N 0.1318(5) 0.1676(6) 0.4144(6)
C34_28 C 0.0608(5) 0.4493(5) 0.2758(5)
O11_28 O 0.0774(4) 0.4491(3) 0.2738(3)
C35_28 C 0.0536(11) 0.4350(7) 0.2851(5)
C36_28 C 0.0357(11) 0.4369(6) 0.2877(6)
H21_28 H 0.0299 0.4471 0.2836
C37_28 C 0.0261(5) 0.4240(11) 0.2964(7)
H22_28 H 0.0139 0.4253 0.2981
C38_28 C 0.0346(11) 0.4090(8) 0.3026(4)
C39_28 C 0.0525(11) 0.4071(6) 0.3001(6)
H23_28 H 0.0583 0.3970 0.3043
C40_28 C 0.0620(4) 0.4199(11) 0.2912(7)
H24_28 H 0.0741 0.4184 0.2894
N10_28 N 0.0210(8) 0.3887(6) 0.3176(6)
C43_28 C 0.0122(11) 0.3512(7) 0.3463(5)
H25_28 H 0.0184 0.3437 0.3539
C44_28 C 0.0208(4) 0.3640(10) 0.3374(9)
H26_28 H 0.0330 0.3654 0.3389
C45_28 C 0.0119(12) 0.3748(6) 0.3264(7)
N11_28 N 0.0275(9) 0.3943(7) 0.3119(6)
C48_28 C 0.02165(19) 0.27988(15) 0.39708(17)
C49_28 C 0.0383(3) 0.2617(2) 0.4098(3)
H29_28 H 0.0482 0.2549 0.4127
N13_28 N 0.0233(4) 0.2604(2) 0.4188(2)
C50_28 C 0.0126(3) 0.27213(18) 0.41067(17)
C52_28 C 0.0129(2) 0.29258(16) 0.38721(19)
N16_28 N 0.0198(3) 0.3011(2) 0.3736(2)
H31_28 H 0.0136 0.3089 0.3680
H32_28 H 0.0306 0.2989 0.3704
C8_28 C 0.9392(5) 0.0507(5) 0.2758(5)
O4_28 O 0.9226(4) 0.0509(3) 0.2738(3)
C9_28 C 0.9464(11) 0.0650(7) 0.2851(5)
C10_28 C 0.9643(11) 0.0631(6) 0.2877(6)
H5_28 H 0.9701 0.0529 0.2836
C11_28 C 0.9739(5) 0.0760(11) 0.2964(7)
H6_28 H 0.9861 0.0747 0.2981
C12_28 C 0.9654(11) 0.0910(8) 0.3026(4)
C13_28 C 0.9475(11) 0.0929(6) 0.3001(6)
H7_28 H 0.9417 0.1030 0.3043
C14_28 C 0.9380(4) 0.0801(11) 0.2912(7)
H8_28 H 0.9259 0.0816 0.2894
N2_28 N 0.9790(8) 0.1113(6) 0.3176(6)
C17_28 C 0.9878(11) 0.1488(7) 0.3463(5)
H9_28 H 0.9816 0.1563 0.3539
C18_28 C 0.9792(4) 0.1360(10) 0.3374(9)
H10_28 H 0.9670 0.1346 0.3389
C19_28 C 0.9881(12) 0.1252(6) 0.3264(7)
N3_28 N 0.9725(9) 0.1057(7) 0.3119(6)
C22_28 C 0.97835(19) 0.22012(15) 0.39708(17)
C23_28 C 0.9617(3) 0.2383(2) 0.4098(3)
H13_28 H 0.9518 0.2451 0.4127
N5_28 N 0.9767(4) 0.2396(2) 0.4188(2)
C24_28 C 0.9874(3) 0.22787(18) 0.41067(17)
C26_28 C 0.9871(2) 0.20742(16) 0.38721(19)
N8_28 N 0.9802(3) 0.1989(2) 0.3736(2)
H15_28 H 0.9864 0.1911 0.3680
H16_28 H 0.9694 0.2011 0.3704
O7_42 O 1.0000 0.2500 0.4488(5)
O12_28 O 0.9925(4) 0.3246(4) 0.3653(4)
C41_28 C 0.9871(5) 0.3348(5) 0.3532(5)
O13_28 O 0.9706(5) 0.3329(4) 0.3522(4)
C42_28 C 0.9946(11) 0.3492(5) 0.3443(6)
C46_28 C 0.9942(11) 0.3730(7) 0.3247(5)
H27_28 H 0.9879 0.3808 0.3174
C47_28 C 0.9857(4) 0.3602(10) 0.3334(9)
H28_28 H 0.9735 0.3588 0.3320
N14_28 N 0.9959(3) 0.2759(3) 0.4153(2)
C51_28 C 0.9890(2) 0.2882(3) 0.4052(3)
H30_28 H 0.9774 0.2915 0.4080
N15_28 N 0.9962(2) 0.2965(2) 0.3918(3)
O14_16 O 0.9541(4) 0.3085(3) 0.3833(4)
O1_29 O 0.5977(3) 0.5384(4) 0.3266(4)
C1_29 C 0.6046(4) 0.5510(5) 0.3185(4)
O2_29 O 0.6167(4) 0.5459(4) 0.3085(3)
C2_29 C 0.5991(7) 0.5683(5) 0.3223(7)
C3_29 C 0.5860(6) 0.5703(7) 0.3341(6)
H1_29 H 0.5810 0.5605 0.3398
C4_29 C 0.5799(5) 0.5880(10) 0.3376(5)
H2_29 H 0.5700 0.5902 0.3447
C5_29 C 0.5891(8) 0.6014(6) 0.3301(8)
C6_29 C 0.6015(6) 0.5994(7) 0.3177(6)
H3_29 H 0.6062 0.6091 0.3117
C7_29 C 0.6072(4) 0.5815(9) 0.3138(4)
H4_29 H 0.6163 0.5792 0.3056
N1_29 N 0.5824(6) 0.6182(5) 0.3356(6)
C8_29 C 0.7242(5) 0.4392(5) 0.4493(5)
O4_29 O 0.7262(3) 0.4226(4) 0.4491(3)
C9_29 C 0.7149(5) 0.4464(11) 0.4350(7)
C10_29 C 0.7123(6) 0.4643(11) 0.4369(6)
H5_29 H 0.7164 0.4701 0.4471
C11_29 C 0.7036(7) 0.4739(5) 0.4240(11)
H6_29 H 0.7019 0.4861 0.4253
C12_29 C 0.6974(4) 0.4654(11) 0.4090(8)
C13_29 C 0.6999(6) 0.4475(11) 0.4071(6)
H7_29 H 0.6957 0.4417 0.3970
C14_29 C 0.7088(7) 0.4380(4) 0.4199(11)
H8_29 H 0.7106 0.4259 0.4184
N2_29 N 0.6824(6) 0.4790(8) 0.3887(6)
O5_29 O 0.6347(4) 0.5075(4) 0.3246(4)
C15_29 C 0.6468(5) 0.5129(5) 0.3348(5)
O6_29 O 0.6478(4) 0.5294(5) 0.3329(4)
C16_29 C 0.6557(6) 0.5054(11) 0.3492(5)
C17_29 C 0.6537(5) 0.4878(11) 0.3512(7)
H9_29 H 0.6461 0.4816 0.3437
C18_29 C 0.6626(9) 0.4792(4) 0.3640(10)
H10_29 H 0.6611 0.4670 0.3654
C19_29 C 0.6736(7) 0.4881(12) 0.3748(6)
C20_29 C 0.6753(5) 0.5058(11) 0.3730(7)
H11_29 H 0.6826 0.5121 0.3808
C21_29 C 0.6666(9) 0.5143(4) 0.3602(10)
H12_29 H 0.6680 0.5265 0.3588
N3_29 N 0.6881(6) 0.4725(9) 0.3943(7)
C22_29 C 0.60292(17) 0.47835(19) 0.27988(15)
C23_29 C 0.5902(3) 0.4617(3) 0.2617(2)
H13_29 H 0.5873 0.4518 0.2549
N5_29 N 0.5812(2) 0.4767(4) 0.2604(2)
C24_29 C 0.58933(17) 0.4874(3) 0.27213(18)
N6_29 N 0.5847(2) 0.5041(3) 0.2759(3)
C25_29 C 0.5948(3) 0.5110(2) 0.2882(3)
H14_29 H 0.5920 0.5226 0.2915
N7_29 N 0.6082(3) 0.5038(2) 0.2965(2)
C26_29 C 0.61279(19) 0.4871(2) 0.29258(16)
N8_29 N 0.6264(2) 0.4802(3) 0.3011(2)
H15_29 H 0.6320 0.4864 0.3089
H16_29 H 0.6296 0.4694 0.2989
O7_43 O 0.5512(5) 0.5000 0.2500
O8_29 O 0.5766(4) 0.7116(4) 0.3477(3)
C27_29 C 0.5685(4) 0.6990(5) 0.3546(4)
O9_17 O 0.5585(3) 0.7041(4) 0.3667(4)
C28_29 C 0.5723(7) 0.6817(5) 0.3491(7)
C29_29 C 0.5841(6) 0.6797(7) 0.3360(6)
H17_29 H 0.5898 0.6895 0.3310
C30_29 C 0.5876(5) 0.6620(10) 0.3299(5)
H18_29 H 0.5947 0.6598 0.3200
C31_29 C 0.5801(8) 0.6486(6) 0.3391(8)
C32_29 C 0.5677(6) 0.6506(7) 0.3515(6)
H19_29 H 0.5617 0.6409 0.3562
C33_29 C 0.5638(4) 0.6685(9) 0.3572(4)
H20_29 H 0.5556 0.6708 0.3663
N9_29 N 0.5856(6) 0.6318(5) 0.3324(6)
C34_29 C 0.7242(5) 0.5608(5) 0.0507(5)
O11_29 O 0.7262(3) 0.5774(4) 0.0509(3)
C35_29 C 0.7149(5) 0.5536(11) 0.0650(7)
C36_29 C 0.7123(6) 0.5357(11) 0.0631(6)
H21_29 H 0.7164 0.5299 0.0529
C37_29 C 0.7036(7) 0.5261(5) 0.0760(11)
H22_29 H 0.7019 0.5139 0.0747
C38_29 C 0.6974(4) 0.5346(11) 0.0910(8)
C39_29 C 0.6999(6) 0.5525(11) 0.0929(6)
H23_29 H 0.6957 0.5583 0.1030
C40_29 C 0.7088(7) 0.5620(4) 0.0801(11)
H24_29 H 0.7106 0.5741 0.0816
N10_29 N 0.6824(6) 0.5210(8) 0.1113(6)
O12_29 O 0.6347(4) 0.4925(4) 0.1754(4)
C41_29 C 0.6468(5) 0.4871(5) 0.1652(5)
O13_29 O 0.6478(4) 0.4706(5) 0.1671(4)
C42_29 C 0.6557(6) 0.4946(11) 0.1508(5)
C43_29 C 0.6537(5) 0.5122(11) 0.1488(7)
H25_29 H 0.6461 0.5184 0.1563
C44_29 C 0.6626(9) 0.5208(4) 0.1360(10)
H26_29 H 0.6611 0.5330 0.1346
C45_29 C 0.6736(7) 0.5119(12) 0.1252(6)
C46_29 C 0.6753(5) 0.4942(11) 0.1270(7)
H27_29 H 0.6826 0.4879 0.1192
C47_29 C 0.6666(9) 0.4857(4) 0.1398(10)
H28_29 H 0.6680 0.4735 0.1412
N11_29 N 0.6881(6) 0.5275(9) 0.1057(7)
C48_29 C 0.60292(17) 0.52165(19) 0.22012(15)
C49_29 C 0.5902(3) 0.5383(3) 0.2383(2)
H29_29 H 0.5873 0.5482 0.2451
N13_29 N 0.5812(2) 0.5233(4) 0.2396(2)
C50_29 C 0.58933(17) 0.5126(3) 0.22787(18)
N14_29 N 0.5847(2) 0.4959(3) 0.2241(3)
C51_29 C 0.5948(3) 0.4890(2) 0.2118(3)
H30_29 H 0.5920 0.4774 0.2085
N15_29 N 0.6082(3) 0.4962(2) 0.2035(2)
C52_29 C 0.61279(19) 0.5129(2) 0.20742(16)
N16_29 N 0.6264(2) 0.5198(3) 0.1989(2)
H31_29 H 0.6320 0.5136 0.1911
H32_29 H 0.6296 0.5306 0.2011
O14_17 O 0.6167(4) 0.4541(4) 0.1915(3)
C8_30 C 0.2242(5) 0.0608(5) 0.5507(5)
O4_30 O 0.2262(3) 0.0774(4) 0.5509(3)
C9_30 C 0.2149(5) 0.0536(11) 0.5650(7)
C10_30 C 0.2123(6) 0.0357(11) 0.5631(6)
H5_30 H 0.2164 0.0299 0.5529
C11_30 C 0.2036(7) 0.0261(5) 0.5760(11)
H6_30 H 0.2019 0.0139 0.5747
C12_30 C 0.1974(4) 0.0346(11) 0.5910(8)
C13_30 C 0.1999(6) 0.0525(11) 0.5929(6)
H7_30 H 0.1957 0.0583 0.6030
C14_30 C 0.2088(7) 0.0620(4) 0.5801(11)
H8_30 H 0.2106 0.0741 0.5816
N2_30 N 0.1824(6) 0.0210(8) 0.6113(6)
C17_30 C 0.1537(5) 0.0122(11) 0.6488(7)
H9_30 H 0.1461 0.0184 0.6563
C18_30 C 0.1626(9) 0.0208(4) 0.6360(10)
H10_30 H 0.1611 0.0330 0.6346
C19_30 C 0.1736(7) 0.0119(12) 0.6252(6)
N3_30 N 0.1881(6) 0.0275(9) 0.6057(7)
C22_30 C 0.10292(17) 0.02165(19) 0.72012(15)
C23_30 C 0.0902(3) 0.0383(3) 0.7383(2)
H13_30 H 0.0873 0.0482 0.7451
N5_30 N 0.0812(2) 0.0233(4) 0.7396(2)
C24_30 C 0.08933(17) 0.0126(3) 0.72787(18)
C26_30 C 0.11279(19) 0.0129(2) 0.70742(16)
N8_30 N 0.1264(2) 0.0198(3) 0.6989(2)
H15_30 H 0.1320 0.0136 0.6911
H16_30 H 0.1296 0.0306 0.7011
O7_44 O 0.0512(5) 0.0000 0.7500
O12_30 O 0.1347(4) 0.0075(4) 0.8246(4)
C41_30 C 0.1468(5) 0.0129(5) 0.8348(5)
O13_30 O 0.1478(4) 0.0294(5) 0.8329(4)
C42_30 C 0.1557(6) 0.0054(11) 0.8492(5)
C46_30 C 0.1753(5) 0.0058(11) 0.8730(7)
H27_30 H 0.1826 0.0121 0.8808
C47_30 C 0.1666(9) 0.0143(4) 0.8602(10)
H28_30 H 0.1680 0.0265 0.8588
N14_30 N 0.0847(2) 0.0041(3) 0.7759(3)
C51_30 C 0.0948(3) 0.0110(2) 0.7882(3)
H30_30 H 0.0920 0.0226 0.7915
N15_30 N 0.1082(3) 0.0038(2) 0.7965(2)
O14_18 O 0.1167(4) 0.0459(4) 0.8085(3)
O1_30 O 0.0977(3) 0.9616(4) 0.6734(4)
C1_30 C 0.1046(4) 0.9490(5) 0.6815(4)
O2_30 O 0.1167(4) 0.9541(4) 0.6915(3)
C2_30 C 0.0991(7) 0.9317(5) 0.6777(7)
C3_30 C 0.0860(6) 0.9297(7) 0.6659(6)
H1_30 H 0.0810 0.9395 0.6602
C4_30 C 0.0799(5) 0.9120(10) 0.6624(5)
H2_30 H 0.0700 0.9098 0.6553
C5_30 C 0.0891(8) 0.8986(6) 0.6699(8)
C6_30 C 0.1015(6) 0.9006(7) 0.6823(6)
H3_30 H 0.1062 0.8909 0.6883
C7_30 C 0.1072(4) 0.9185(9) 0.6862(4)
H4_30 H 0.1163 0.9208 0.6944
N1_30 N 0.0824(6) 0.8818(5) 0.6644(6)
O5_30 O 0.1347(4) 0.9925(4) 0.6754(4)
C15_30 C 0.1468(5) 0.9871(5) 0.6652(5)
O6_30 O 0.1478(4) 0.9706(5) 0.6671(4)
C16_30 C 0.1557(6) 0.9946(11) 0.6508(5)
C20_30 C 0.1753(5) 0.9942(11) 0.6270(7)
H11_30 H 0.1826 0.9879 0.6192
C21_30 C 0.1666(9) 0.9857(4) 0.6398(10)
H12_30 H 0.1680 0.9735 0.6412
N6_30 N 0.0847(2) 0.9959(3) 0.7241(3)
C25_30 C 0.0948(3) 0.9890(2) 0.7118(3)
H14_30 H 0.0920 0.9774 0.7085
N7_30 N 0.1082(3) 0.9962(2) 0.7035(2)
O7_45 O 0.0512(5) 1.0000 0.7500
O8_30 O 0.0766(4) 0.7884(4) 0.6523(3)
C27_30 C 0.0685(4) 0.8010(5) 0.6454(4)
O9_18 O 0.0585(3) 0.7959(4) 0.6333(4)
C28_30 C 0.0723(7) 0.8183(5) 0.6509(7)
C29_30 C 0.0841(6) 0.8203(7) 0.6640(6)
H17_30 H 0.0898 0.8105 0.6690
C30_30 C 0.0876(5) 0.8380(10) 0.6701(5)
H18_30 H 0.0947 0.8402 0.6800
C31_30 C 0.0801(8) 0.8514(6) 0.6609(8)
C32_30 C 0.0677(6) 0.8494(7) 0.6485(6)
H19_30 H 0.0617 0.8591 0.6438
C33_30 C 0.0638(4) 0.8315(9) 0.6428(4)
H20_30 H 0.0556 0.8292 0.6337
N9_30 N 0.0856(6) 0.8682(5) 0.6676(6)
C34_30 C 0.2242(5) 0.9392(5) 0.9493(5)
O11_30 O 0.2262(3) 0.9226(4) 0.9491(3)
C35_30 C 0.2149(5) 0.9464(11) 0.9350(7)
C36_30 C 0.2123(6) 0.9643(11) 0.9369(6)
H21_30 H 0.2164 0.9701 0.9471
C37_30 C 0.2036(7) 0.9739(5) 0.9240(11)
H22_30 H 0.2019 0.9861 0.9253
C38_30 C 0.1974(4) 0.9654(11) 0.9090(8)
C39_30 C 0.1999(6) 0.9475(11) 0.9071(6)
H23_30 H 0.1957 0.9417 0.8970
C40_30 C 0.2088(7) 0.9380(4) 0.9199(11)
H24_30 H 0.2106 0.9259 0.9184
N10_30 N 0.1824(6) 0.9790(8) 0.8887(6)
C43_30 C 0.1537(5) 0.9878(11) 0.8512(7)
H25_30 H 0.1461 0.9816 0.8437
C44_30 C 0.1626(9) 0.9792(4) 0.8640(10)
H26_30 H 0.1611 0.9670 0.8654
C45_30 C 0.1736(7) 0.9881(12) 0.8748(6)
N11_30 N 0.1881(6) 0.9725(9) 0.8943(7)
C48_30 C 0.10292(17) 0.97835(19) 0.77988(15)
C49_30 C 0.0902(3) 0.9617(3) 0.7617(2)
H29_30 H 0.0873 0.9518 0.7549
N13_30 N 0.0812(2) 0.9767(4) 0.7604(2)
C50_30 C 0.08933(17) 0.9874(3) 0.77213(18)
C52_30 C 0.11279(19) 0.9871(2) 0.79258(16)
N16_30 N 0.1264(2) 0.9802(3) 0.8011(2)
H31_30 H 0.1320 0.9864 0.8089
H32_30 H 0.1296 0.9694 0.7989
O1_31 O 0.9023(3) 0.4616(4) 0.8266(4)
C1_31 C 0.8954(4) 0.4490(5) 0.8185(4)
O2_31 O 0.8833(4) 0.4541(4) 0.8085(3)
C2_31 C 0.9009(7) 0.4317(5) 0.8223(7)
C3_31 C 0.9140(6) 0.4297(7) 0.8341(6)
H1_31 H 0.9190 0.4395 0.8398
C4_31 C 0.9201(5) 0.4120(10) 0.8376(5)
H2_31 H 0.9300 0.4098 0.8447
C5_31 C 0.9109(8) 0.3986(6) 0.8301(8)
C6_31 C 0.8985(6) 0.4006(7) 0.8177(6)
H3_31 H 0.8938 0.3909 0.8117
C7_31 C 0.8928(4) 0.4185(9) 0.8138(4)
H4_31 H 0.8837 0.4208 0.8056
N1_31 N 0.9176(6) 0.3818(5) 0.8356(6)
C8_31 C 0.7758(5) 0.5608(5) 0.9493(5)
O4_31 O 0.7738(3) 0.5774(4) 0.9491(3)
C9_31 C 0.7851(5) 0.5536(11) 0.9350(7)
C10_31 C 0.7877(6) 0.5357(11) 0.9369(6)
H5_31 H 0.7836 0.5299 0.9471
C11_31 C 0.7964(7) 0.5261(5) 0.9240(11)
H6_31 H 0.7981 0.5139 0.9253
C12_31 C 0.8026(4) 0.5346(11) 0.9090(8)
C13_31 C 0.8001(6) 0.5525(11) 0.9071(6)
H7_31 H 0.8043 0.5583 0.8970
C14_31 C 0.7912(7) 0.5620(4) 0.9199(11)
H8_31 H 0.7894 0.5741 0.9184
N2_31 N 0.8176(6) 0.5210(8) 0.8887(6)
O5_31 O 0.8653(4) 0.4925(4) 0.8246(4)
C15_31 C 0.8532(5) 0.4871(5) 0.8348(5)
O6_31 O 0.8522(4) 0.4706(5) 0.8329(4)
C16_31 C 0.8443(6) 0.4946(11) 0.8492(5)
C17_31 C 0.8463(5) 0.5122(11) 0.8512(7)
H9_31 H 0.8539 0.5184 0.8437
C18_31 C 0.8374(9) 0.5208(4) 0.8640(10)
H10_31 H 0.8389 0.5330 0.8654
C19_31 C 0.8264(7) 0.5119(12) 0.8748(6)
C20_31 C 0.8247(5) 0.4942(11) 0.8730(7)
H11_31 H 0.8174 0.4879 0.8808
C21_31 C 0.8334(9) 0.4857(4) 0.8602(10)
H12_31 H 0.8320 0.4735 0.8588
N3_31 N 0.8119(6) 0.5275(9) 0.8943(7)
C22_31 C 0.89708(17) 0.52165(19) 0.77988(15)
C23_31 C 0.9098(3) 0.5383(3) 0.7617(2)
H13_31 H 0.9127 0.5482 0.7549
N5_31 N 0.9188(2) 0.5233(4) 0.7604(2)
C24_31 C 0.91067(17) 0.5126(3) 0.77213(18)
N6_31 N 0.9153(2) 0.4959(3) 0.7759(3)
C25_31 C 0.9052(3) 0.4890(2) 0.7882(3)
H14_31 H 0.9080 0.4774 0.7915
N7_31 N 0.8918(3) 0.4962(2) 0.7965(2)
C26_31 C 0.88721(19) 0.5129(2) 0.79258(16)
N8_31 N 0.8736(2) 0.5198(3) 0.8011(2)
H15_31 H 0.8680 0.5136 0.8089
H16_31 H 0.8704 0.5306 0.7989
O7_46 O 0.9488(5) 0.5000 0.7500
O8_31 O 0.9234(4) 0.2884(4) 0.8477(3)
C27_31 C 0.9315(4) 0.3010(5) 0.8546(4)
O9_19 O 0.9415(3) 0.2959(4) 0.8667(4)
C28_31 C 0.9277(7) 0.3183(5) 0.8491(7)
C29_31 C 0.9159(6) 0.3203(7) 0.8360(6)
H17_31 H 0.9102 0.3105 0.8310
C30_31 C 0.9124(5) 0.3380(10) 0.8299(5)
H18_31 H 0.9053 0.3402 0.8200
C31_31 C 0.9199(8) 0.3514(6) 0.8391(8)
C32_31 C 0.9323(6) 0.3494(7) 0.8515(6)
H19_31 H 0.9383 0.3591 0.8562
C33_31 C 0.9362(4) 0.3315(9) 0.8572(4)
H20_31 H 0.9444 0.3292 0.8663
N9_31 N 0.9144(6) 0.3682(5) 0.8324(6)
C34_31 C 0.7758(5) 0.4392(5) 0.5507(5)
O11_31 O 0.7738(3) 0.4226(4) 0.5509(3)
C35_31 C 0.7851(5) 0.4464(11) 0.5650(7)
C36_31 C 0.7877(6) 0.4643(11) 0.5631(6)
H21_31 H 0.7836 0.4701 0.5529
C37_31 C 0.7964(7) 0.4739(5) 0.5760(11)
H22_31 H 0.7981 0.4861 0.5747
C38_31 C 0.8026(4) 0.4654(11) 0.5910(8)
C39_31 C 0.8001(6) 0.4475(11) 0.5929(6)
H23_31 H 0.8043 0.4417 0.6030
C40_31 C 0.7912(7) 0.4380(4) 0.5801(11)
H24_31 H 0.7894 0.4259 0.5816
N10_31 N 0.8176(6) 0.4790(8) 0.6113(6)
O12_31 O 0.8653(4) 0.5075(4) 0.6754(4)
C41_31 C 0.8532(5) 0.5129(5) 0.6652(5)
O13_31 O 0.8522(4) 0.5294(5) 0.6671(4)
C42_31 C 0.8443(6) 0.5054(11) 0.6508(5)
C43_31 C 0.8463(5) 0.4878(11) 0.6488(7)
H25_31 H 0.8539 0.4816 0.6563
C44_31 C 0.8374(9) 0.4792(4) 0.6360(10)
H26_31 H 0.8389 0.4670 0.6346
C45_31 C 0.8264(7) 0.4881(12) 0.6252(6)
C46_31 C 0.8247(5) 0.5058(11) 0.6270(7)
H27_31 H 0.8174 0.5121 0.6192
C47_31 C 0.8334(9) 0.5143(4) 0.6398(10)
H28_31 H 0.8320 0.5265 0.6412
N11_31 N 0.8119(6) 0.4725(9) 0.6057(7)
C48_31 C 0.89708(17) 0.47835(19) 0.72012(15)
C49_31 C 0.9098(3) 0.4617(3) 0.7383(2)
H29_31 H 0.9127 0.4518 0.7451
N13_31 N 0.9188(2) 0.4767(4) 0.7396(2)
C50_31 C 0.91067(17) 0.4874(3) 0.72787(18)
N14_31 N 0.9153(2) 0.5041(3) 0.7241(3)
C51_31 C 0.9052(3) 0.5110(2) 0.7118(3)
H30_31 H 0.9080 0.5226 0.7085
N15_31 N 0.8918(3) 0.5038(2) 0.7035(2)
C52_31 C 0.88721(19) 0.4871(2) 0.70742(16)
N16_31 N 0.8736(2) 0.4802(3) 0.6989(2)
H31_31 H 0.8680 0.4864 0.6911
H32_31 H 0.8704 0.4694 0.7011
O14_19 O 0.8833(4) 0.5459(4) 0.6915(3)
O1_32 O 0.4023(3) 0.0384(4) 0.1734(4)
C1_32 C 0.3954(4) 0.0510(5) 0.1815(4)
O2_32 O 0.3833(4) 0.0459(4) 0.1915(3)
C2_32 C 0.4009(7) 0.0683(5) 0.1777(7)
C3_32 C 0.4140(6) 0.0703(7) 0.1659(6)
H1_32 H 0.4190 0.0605 0.1602
C4_32 C 0.4201(5) 0.0880(10) 0.1624(5)
H2_32 H 0.4300 0.0902 0.1553
C5_32 C 0.4109(8) 0.1014(6) 0.1699(8)
C6_32 C 0.3985(6) 0.0994(7) 0.1823(6)
H3_32 H 0.3938 0.1091 0.1883
C7_32 C 0.3928(4) 0.0815(9) 0.1862(4)
H4_32 H 0.3837 0.0792 0.1944
N1_32 N 0.4176(6) 0.1182(5) 0.1644(6)
O5_32 O 0.3653(4) 0.0075(4) 0.1754(4)
C15_32 C 0.3532(5) 0.0129(5) 0.1652(5)
O6_32 O 0.3522(4) 0.0294(5) 0.1671(4)
C16_32 C 0.3443(6) 0.0054(11) 0.1508(5)
C20_32 C 0.3247(5) 0.0058(11) 0.1270(7)
H11_32 H 0.3174 0.0121 0.1192
C21_32 C 0.3334(9) 0.0143(4) 0.1398(10)
H12_32 H 0.3320 0.0265 0.1412
N6_32 N 0.4153(2) 0.0041(3) 0.2241(3)
C25_32 C 0.4052(3) 0.0110(2) 0.2118(3)
H14_32 H 0.4080 0.0226 0.2085
N7_32 N 0.3918(3) 0.0038(2) 0.2035(2)
O7_47 O 0.4488(5) -0.0000 0.2500
O8_32 O 0.4234(4) 0.2116(4) 0.1523(3)
C27_32 C 0.4315(4) 0.1990(5) 0.1454(4)
O9_20 O 0.4415(3) 0.2041(4) 0.1333(4)
C28_32 C 0.4277(7) 0.1817(5) 0.1509(7)
C29_32 C 0.4159(6) 0.1797(7) 0.1640(6)
H17_32 H 0.4102 0.1895 0.1690
C30_32 C 0.4124(5) 0.1620(10) 0.1701(5)
H18_32 H 0.4053 0.1598 0.1800
C31_32 C 0.4199(8) 0.1486(6) 0.1609(8)
C32_32 C 0.4323(6) 0.1506(7) 0.1485(6)
H19_32 H 0.4383 0.1409 0.1438
C33_32 C 0.4362(4) 0.1685(9) 0.1428(4)
H20_32 H 0.4444 0.1708 0.1337
N9_32 N 0.4144(6) 0.1318(5) 0.1676(6)
C34_32 C 0.2758(5) 0.0608(5) 0.4493(5)
O11_32 O 0.2738(3) 0.0774(4) 0.4491(3)
C35_32 C 0.2851(5) 0.0536(11) 0.4350(7)
C36_32 C 0.2877(6) 0.0357(11) 0.4369(6)
H21_32 H 0.2836 0.0299 0.4471
C37_32 C 0.2964(7) 0.0261(5) 0.4240(11)
H22_32 H 0.2981 0.0139 0.4253
C38_32 C 0.3026(4) 0.0346(11) 0.4090(8)
C39_32 C 0.3001(6) 0.0525(11) 0.4071(6)
H23_32 H 0.3043 0.0583 0.3970
C40_32 C 0.2912(7) 0.0620(4) 0.4199(11)
H24_32 H 0.2894 0.0741 0.4184
N10_32 N 0.3176(6) 0.0210(8) 0.3887(6)
C43_32 C 0.3463(5) 0.0122(11) 0.3512(7)
H25_32 H 0.3539 0.0184 0.3437
C44_32 C 0.3374(9) 0.0208(4) 0.3640(10)
H26_32 H 0.3389 0.0330 0.3654
C45_32 C 0.3264(7) 0.0119(12) 0.3748(6)
N11_32 N 0.3119(6) 0.0275(9) 0.3943(7)
C48_32 C 0.39708(17) 0.02165(19) 0.27988(15)
C49_32 C 0.4098(3) 0.0383(3) 0.2617(2)
H29_32 H 0.4127 0.0482 0.2549
N13_32 N 0.4188(2) 0.0233(4) 0.2604(2)
C50_32 C 0.41067(17) 0.0126(3) 0.27213(18)
C52_32 C 0.38721(19) 0.0129(2) 0.29258(16)
N16_32 N 0.3736(2) 0.0198(3) 0.3011(2)
H31_32 H 0.3680 0.0136 0.3089
H32_32 H 0.3704 0.0306 0.2989
C8_32 C 0.2758(5) 0.9392(5) 0.0507(5)
O4_32 O 0.2738(3) 0.9226(4) 0.0509(3)
C9_32 C 0.2851(5) 0.9464(11) 0.0650(7)
C10_32 C 0.2877(6) 0.9643(11) 0.0631(6)
H5_32 H 0.2836 0.9701 0.0529
C11_32 C 0.2964(7) 0.9739(5) 0.0760(11)
H6_32 H 0.2981 0.9861 0.0747
C12_32 C 0.3026(4) 0.9654(11) 0.0910(8)
C13_32 C 0.3001(6) 0.9475(11) 0.0929(6)
H7_32 H 0.3043 0.9417 0.1030
C14_32 C 0.2912(7) 0.9380(4) 0.0801(11)
H8_32 H 0.2894 0.9259 0.0816
N2_32 N 0.3176(6) 0.9790(8) 0.1113(6)
C17_32 C 0.3463(5) 0.9878(11) 0.1488(7)
H9_32 H 0.3539 0.9816 0.1563
C18_32 C 0.3374(9) 0.9792(4) 0.1360(10)
H10_32 H 0.3389 0.9670 0.1346
C19_32 C 0.3264(7) 0.9881(12) 0.1252(6)
N3_32 N 0.3119(6) 0.9725(9) 0.1057(7)
C22_32 C 0.39708(17) 0.97835(19) 0.22012(15)
C23_32 C 0.4098(3) 0.9617(3) 0.2383(2)
H13_32 H 0.4127 0.9518 0.2451
N5_32 N 0.4188(2) 0.9767(4) 0.2396(2)
C24_32 C 0.41067(17) 0.9874(3) 0.22787(18)
C26_32 C 0.38721(19) 0.9871(2) 0.20742(16)
N8_32 N 0.3736(2) 0.9802(3) 0.1989(2)
H15_32 H 0.3680 0.9864 0.1911
H16_32 H 0.3704 0.9694 0.2011
O7_48 O 0.4488(5) 1.0000 0.2500
O12_32 O 0.3653(4) 0.9925(4) 0.3246(4)
C41_32 C 0.3532(5) 0.9871(5) 0.3348(5)
O13_32 O 0.3522(4) 0.9706(5) 0.3329(4)
C42_32 C 0.3443(6) 0.9946(11) 0.3492(5)
C46_32 C 0.3247(5) 0.9942(11) 0.3730(7)
H27_32 H 0.3174 0.9879 0.3808
C47_32 C 0.3334(9) 0.9857(4) 0.3602(10)
H28_32 H 0.3320 0.9735 0.3588
N14_32 N 0.4153(2) 0.9959(3) 0.2759(3)
C51_32 C 0.4052(3) 0.9890(2) 0.2882(3)
H30_32 H 0.4080 0.9774 0.2915
N15_32 N 0.3918(3) 0.9962(2) 0.2965(2)
O14_20 O 0.3833(4) 0.9541(4) 0.3085(3)
O1_33 O 0.3266(4) 0.5977(3) 0.5384(4)
C1_33 C 0.3185(4) 0.6046(4) 0.5510(5)
O2_33 O 0.3085(3) 0.6167(4) 0.5459(4)
C2_33 C 0.3223(7) 0.5991(7) 0.5683(5)
C3_33 C 0.3341(6) 0.5860(6) 0.5703(7)
H1_33 H 0.3398 0.5810 0.5605
C4_33 C 0.3376(5) 0.5799(5) 0.5880(10)
H2_33 H 0.3447 0.5700 0.5902
C5_33 C 0.3301(8) 0.5891(8) 0.6014(6)
C6_33 C 0.3177(6) 0.6015(6) 0.5994(7)
H3_33 H 0.3117 0.6062 0.6091
C7_33 C 0.3138(4) 0.6072(4) 0.5815(9)
H4_33 H 0.3056 0.6163 0.5792
N1_33 N 0.3356(6) 0.5824(6) 0.6182(5)
C8_33 C 0.4493(5) 0.7242(5) 0.4392(5)
O4_33 O 0.4491(3) 0.7262(3) 0.4226(4)
C9_33 C 0.4350(7) 0.7149(5) 0.4464(11)
C10_33 C 0.4369(6) 0.7123(6) 0.4643(11)
H5_33 H 0.4471 0.7164 0.4701
C11_33 C 0.4240(11) 0.7036(7) 0.4739(5)
H6_33 H 0.4253 0.7019 0.4861
C12_33 C 0.4090(8) 0.6974(4) 0.4654(11)
C13_33 C 0.4071(6) 0.6999(6) 0.4475(11)
H7_33 H 0.3970 0.6957 0.4417
C14_33 C 0.4199(11) 0.7088(7) 0.4380(4)
H8_33 H 0.4184 0.7106 0.4259
N2_33 N 0.3887(6) 0.6824(6) 0.4790(8)
O5_33 O 0.3246(4) 0.6347(4) 0.5075(4)
C15_33 C 0.3348(5) 0.6468(5) 0.5129(5)
O6_33 O 0.3329(4) 0.6478(4) 0.5294(5)
C16_33 C 0.3492(5) 0.6557(6) 0.5054(11)
C17_33 C 0.3512(7) 0.6537(5) 0.4878(11)
H9_33 H 0.3437 0.6461 0.4816
C18_33 C 0.3640(10) 0.6626(9) 0.4792(4)
H10_33 H 0.3654 0.6611 0.4670
C19_33 C 0.3748(6) 0.6736(7) 0.4881(12)
C20_33 C 0.3730(7) 0.6753(5) 0.5058(11)
H11_33 H 0.3808 0.6826 0.5121
C21_33 C 0.3602(10) 0.6666(9) 0.5143(4)
H12_33 H 0.3588 0.6680 0.5265
N3_33 N 0.3943(7) 0.6881(6) 0.4725(9)
C22_33 C 0.27988(15) 0.60292(17) 0.47835(19)
C23_33 C 0.2617(2) 0.5902(3) 0.4617(3)
H13_33 H 0.2549 0.5873 0.4518
N5_33 N 0.2604(2) 0.5812(2) 0.4767(4)
C24_33 C 0.27213(18) 0.58933(17) 0.4874(3)
N6_33 N 0.2759(3) 0.5847(2) 0.5041(3)
C25_33 C 0.2882(3) 0.5948(3) 0.5110(2)
H14_33 H 0.2915 0.5920 0.5226
N7_33 N 0.2965(2) 0.6082(3) 0.5038(2)
C26_33 C 0.29258(16) 0.61279(19) 0.4871(2)
N8_33 N 0.3011(2) 0.6264(2) 0.4802(3)
H15_33 H 0.3089 0.6320 0.4864
H16_33 H 0.2989 0.6296 0.4694
O7_49 O 0.2500 0.5512(5) 0.5000
O8_33 O 0.3477(3) 0.5766(4) 0.7116(4)
C27_33 C 0.3546(4) 0.5685(4) 0.6990(5)
O9_21 O 0.3667(4) 0.5585(3) 0.7041(4)
C28_33 C 0.3491(7) 0.5723(7) 0.6817(5)
C29_33 C 0.3360(6) 0.5841(6) 0.6797(7)
H17_33 H 0.3310 0.5898 0.6895
C30_33 C 0.3299(5) 0.5876(5) 0.6620(10)
H18_33 H 0.3200 0.5947 0.6598
C31_33 C 0.3391(8) 0.5801(8) 0.6486(6)
C32_33 C 0.3515(6) 0.5677(6) 0.6506(7)
H19_33 H 0.3562 0.5617 0.6409
C33_33 C 0.3572(4) 0.5638(4) 0.6685(9)
H20_33 H 0.3663 0.5556 0.6708
N9_33 N 0.3324(6) 0.5856(6) 0.6318(5)
C34_33 C 0.0507(5) 0.7242(5) 0.5608(5)
O11_33 O 0.0509(3) 0.7262(3) 0.5774(4)
C35_33 C 0.0650(7) 0.7149(5) 0.5536(11)
C36_33 C 0.0631(6) 0.7123(6) 0.5357(11)
H21_33 H 0.0529 0.7164 0.5299
C37_33 C 0.0760(11) 0.7036(7) 0.5261(5)
H22_33 H 0.0747 0.7019 0.5139
C38_33 C 0.0910(8) 0.6974(4) 0.5346(11)
C39_33 C 0.0929(6) 0.6999(6) 0.5525(11)
H23_33 H 0.1030 0.6957 0.5583
C40_33 C 0.0801(11) 0.7088(7) 0.5620(4)
H24_33 H 0.0816 0.7106 0.5741
N10_33 N 0.1113(6) 0.6824(6) 0.5210(8)
O12_33 O 0.1754(4) 0.6347(4) 0.4925(4)
C41_33 C 0.1652(5) 0.6468(5) 0.4871(5)
O13_33 O 0.1671(4) 0.6478(4) 0.4706(5)
C42_33 C 0.1508(5) 0.6557(6) 0.4946(11)
C43_33 C 0.1488(7) 0.6537(5) 0.5122(11)
H25_33 H 0.1563 0.6461 0.5184
C44_33 C 0.1360(10) 0.6626(9) 0.5208(4)
H26_33 H 0.1346 0.6611 0.5330
C45_33 C 0.1252(6) 0.6736(7) 0.5119(12)
C46_33 C 0.1270(7) 0.6753(5) 0.4942(11)
H27_33 H 0.1192 0.6826 0.4879
C47_33 C 0.1398(10) 0.6666(9) 0.4857(4)
H28_33 H 0.1412 0.6680 0.4735
N11_33 N 0.1057(7) 0.6881(6) 0.5275(9)
C48_33 C 0.22012(15) 0.60292(17) 0.52165(19)
C49_33 C 0.2383(2) 0.5902(3) 0.5383(3)
H29_33 H 0.2451 0.5873 0.5482
N13_33 N 0.2396(2) 0.5812(2) 0.5233(4)
C50_33 C 0.22787(18) 0.58933(17) 0.5126(3)
N14_33 N 0.2241(3) 0.5847(2) 0.4959(3)
C51_33 C 0.2118(3) 0.5948(3) 0.4890(2)
H30_33 H 0.2085 0.5920 0.4774
N15_33 N 0.2035(2) 0.6082(3) 0.4962(2)
C52_33 C 0.20742(16) 0.61279(19) 0.5129(2)
N16_33 N 0.1989(2) 0.6264(2) 0.5198(3)
H31_33 H 0.1911 0.6320 0.5136
H32_33 H 0.2011 0.6296 0.5306
O14_21 O 0.1915(3) 0.6167(4) 0.4541(4)
C8_34 C 0.5507(5) 0.2242(5) 0.0608(5)
O4_34 O 0.5509(3) 0.2262(3) 0.0774(4)
C9_34 C 0.5650(7) 0.2149(5) 0.0536(11)
C10_34 C 0.5631(6) 0.2123(6) 0.0357(11)
H5_34 H 0.5529 0.2164 0.0299
C11_34 C 0.5760(11) 0.2036(7) 0.0261(5)
H6_34 H 0.5747 0.2019 0.0139
C12_34 C 0.5910(8) 0.1974(4) 0.0346(11)
C13_34 C 0.5929(6) 0.1999(6) 0.0525(11)
H7_34 H 0.6030 0.1957 0.0583
C14_34 C 0.5801(11) 0.2088(7) 0.0620(4)
H8_34 H 0.5816 0.2106 0.0741
N2_34 N 0.6113(6) 0.1824(6) 0.0210(8)
C17_34 C 0.6488(7) 0.1537(5) 0.0122(11)
H9_34 H 0.6563 0.1461 0.0184
C18_34 C 0.6360(10) 0.1626(9) 0.0208(4)
H10_34 H 0.6346 0.1611 0.0330
C19_34 C 0.6252(6) 0.1736(7) 0.0119(12)
N3_34 N 0.6057(7) 0.1881(6) 0.0275(9)
C22_34 C 0.72012(15) 0.10292(17) 0.02165(19)
C23_34 C 0.7383(2) 0.0902(3) 0.0383(3)
H13_34 H 0.7451 0.0873 0.0482
N5_34 N 0.7396(2) 0.0812(2) 0.0233(4)
C24_34 C 0.72787(18) 0.08933(17) 0.0126(3)
C26_34 C 0.70742(16) 0.11279(19) 0.0129(2)
N8_34 N 0.6989(2) 0.1264(2) 0.0198(3)
H15_34 H 0.6911 0.1320 0.0136
H16_34 H 0.7011 0.1296 0.0306
O7_50 O 0.7500 0.0512(5) 0.0000
O12_34 O 0.8246(4) 0.1347(4) 0.0075(4)
C41_34 C 0.8348(5) 0.1468(5) 0.0129(5)
O13_34 O 0.8329(4) 0.1478(4) 0.0294(5)
C42_34 C 0.8492(5) 0.1557(6) 0.0054(11)
C46_34 C 0.8730(7) 0.1753(5) 0.0058(11)
H27_34 H 0.8808 0.1826 0.0121
C47_34 C 0.8602(10) 0.1666(9) 0.0143(4)
H28_34 H 0.8588 0.1680 0.0265
N14_34 N 0.7759(3) 0.0847(2) 0.0041(3)
C51_34 C 0.7882(3) 0.0948(3) 0.0110(2)
H30_34 H 0.7915 0.0920 0.0226
N15_34 N 0.7965(2) 0.1082(3) 0.0038(2)
O14_22 O 0.8085(3) 0.1167(4) 0.0459(4)
O1_34 O 0.6734(4) 0.0977(3) 0.9616(4)
C1_34 C 0.6815(4) 0.1046(4) 0.9490(5)
O2_34 O 0.6915(3) 0.1167(4) 0.9541(4)
C2_34 C 0.6777(7) 0.0991(7) 0.9317(5)
C3_34 C 0.6659(6) 0.0860(6) 0.9297(7)
H1_34 H 0.6602 0.0810 0.9395
C4_34 C 0.6624(5) 0.0799(5) 0.9120(10)
H2_34 H 0.6553 0.0700 0.9098
C5_34 C 0.6699(8) 0.0891(8) 0.8986(6)
C6_34 C 0.6823(6) 0.1015(6) 0.9006(7)
H3_34 H 0.6883 0.1062 0.8909
C7_34 C 0.6862(4) 0.1072(4) 0.9185(9)
H4_34 H 0.6944 0.1163 0.9208
N1_34 N 0.6644(6) 0.0824(6) 0.8818(5)
O5_34 O 0.6754(4) 0.1347(4) 0.9925(4)
C15_34 C 0.6652(5) 0.1468(5) 0.9871(5)
O6_34 O 0.6671(4) 0.1478(4) 0.9706(5)
C16_34 C 0.6508(5) 0.1557(6) 0.9946(11)
C20_34 C 0.6270(7) 0.1753(5) 0.9942(11)
H11_34 H 0.6192 0.1826 0.9879
C21_34 C 0.6398(10) 0.1666(9) 0.9857(4)
H12_34 H 0.6412 0.1680 0.9735
N6_34 N 0.7241(3) 0.0847(2) 0.9959(3)
C25_34 C 0.7118(3) 0.0948(3) 0.9890(2)
H14_34 H 0.7085 0.0920 0.9774
N7_34 N 0.7035(2) 0.1082(3) 0.9962(2)
O7_51 O 0.7500 0.0512(5) 1.0000
O8_34 O 0.6523(3) 0.0766(4) 0.7884(4)
C27_34 C 0.6454(4) 0.0685(4) 0.8010(5)
O9_22 O 0.6333(4) 0.0585(3) 0.7959(4)
C28_34 C 0.6509(7) 0.0723(7) 0.8183(5)
C29_34 C 0.6640(6) 0.0841(6) 0.8203(7)
H17_34 H 0.6690 0.0898 0.8105
C30_34 C 0.6701(5) 0.0876(5) 0.8380(10)
H18_34 H 0.6800 0.0947 0.8402
C31_34 C 0.6609(8) 0.0801(8) 0.8514(6)
C32_34 C 0.6485(6) 0.0677(6) 0.8494(7)
H19_34 H 0.6438 0.0617 0.8591
C33_34 C 0.6428(4) 0.0638(4) 0.8315(9)
H20_34 H 0.6337 0.0556 0.8292
N9_34 N 0.6676(6) 0.0856(6) 0.8682(5)
C34_34 C 0.9493(5) 0.2242(5) 0.9392(5)
O11_34 O 0.9491(3) 0.2262(3) 0.9226(4)
C35_34 C 0.9350(7) 0.2149(5) 0.9464(11)
C36_34 C 0.9369(6) 0.2123(6) 0.9643(11)
H21_34 H 0.9471 0.2164 0.9701
C37_34 C 0.9240(11) 0.2036(7) 0.9739(5)
H22_34 H 0.9253 0.2019 0.9861
C38_34 C 0.9090(8) 0.1974(4) 0.9654(11)
C39_34 C 0.9071(6) 0.1999(6) 0.9475(11)
H23_34 H 0.8970 0.1957 0.9417
C40_34 C 0.9199(11) 0.2088(7) 0.9380(4)
H24_34 H 0.9184 0.2106 0.9259
N10_34 N 0.8887(6) 0.1824(6) 0.9790(8)
C43_34 C 0.8512(7) 0.1537(5) 0.9878(11)
H25_34 H 0.8437 0.1461 0.9816
C44_34 C 0.8640(10) 0.1626(9) 0.9792(4)
H26_34 H 0.8654 0.1611 0.9670
C45_34 C 0.8748(6) 0.1736(7) 0.9881(12)
N11_34 N 0.8943(7) 0.1881(6) 0.9725(9)
C48_34 C 0.77988(15) 0.10292(17) 0.97835(19)
C49_34 C 0.7617(2) 0.0902(3) 0.9617(3)
H29_34 H 0.7549 0.0873 0.9518
N13_34 N 0.7604(2) 0.0812(2) 0.9767(4)
C50_34 C 0.77213(18) 0.08933(17) 0.9874(3)
C52_34 C 0.79258(16) 0.11279(19) 0.9871(2)
N16_34 N 0.8011(2) 0.1264(2) 0.9802(3)
H31_34 H 0.8089 0.1320 0.9864
H32_34 H 0.7989 0.1296 0.9694
O1_35 O 0.8266(4) 0.9023(3) 0.4616(4)
C1_35 C 0.8185(4) 0.8954(4) 0.4490(5)
O2_35 O 0.8085(3) 0.8833(4) 0.4541(4)
C2_35 C 0.8223(7) 0.9009(7) 0.4317(5)
C3_35 C 0.8341(6) 0.9140(6) 0.4297(7)
H1_35 H 0.8398 0.9190 0.4395
C4_35 C 0.8376(5) 0.9201(5) 0.4120(10)
H2_35 H 0.8447 0.9300 0.4098
C5_35 C 0.8301(8) 0.9109(8) 0.3986(6)
C6_35 C 0.8177(6) 0.8985(6) 0.4006(7)
H3_35 H 0.8117 0.8938 0.3909
C7_35 C 0.8138(4) 0.8928(4) 0.4185(9)
H4_35 H 0.8056 0.8837 0.4208
N1_35 N 0.8356(6) 0.9176(6) 0.3818(5)
C8_35 C 0.9493(5) 0.7758(5) 0.5608(5)
O4_35 O 0.9491(3) 0.7738(3) 0.5774(4)
C9_35 C 0.9350(7) 0.7851(5) 0.5536(11)
C10_35 C 0.9369(6) 0.7877(6) 0.5357(11)
H5_35 H 0.9471 0.7836 0.5299
C11_35 C 0.9240(11) 0.7964(7) 0.5261(5)
H6_35 H 0.9253 0.7981 0.5139
C12_35 C 0.9090(8) 0.8026(4) 0.5346(11)
C13_35 C 0.9071(6) 0.8001(6) 0.5525(11)
H7_35 H 0.8970 0.8043 0.5583
C14_35 C 0.9199(11) 0.7912(7) 0.5620(4)
H8_35 H 0.9184 0.7894 0.5741
N2_35 N 0.8887(6) 0.8176(6) 0.5210(8)
O5_35 O 0.8246(4) 0.8653(4) 0.4925(4)
C15_35 C 0.8348(5) 0.8532(5) 0.4871(5)
O6_35 O 0.8329(4) 0.8522(4) 0.4706(5)
C16_35 C 0.8492(5) 0.8443(6) 0.4946(11)
C17_35 C 0.8512(7) 0.8463(5) 0.5122(11)
H9_35 H 0.8437 0.8539 0.5184
C18_35 C 0.8640(10) 0.8374(9) 0.5208(4)
H10_35 H 0.8654 0.8389 0.5330
C19_35 C 0.8748(6) 0.8264(7) 0.5119(12)
C20_35 C 0.8730(7) 0.8247(5) 0.4942(11)
H11_35 H 0.8808 0.8174 0.4879
C21_35 C 0.8602(10) 0.8334(9) 0.4857(4)
H12_35 H 0.8588 0.8320 0.4735
N3_35 N 0.8943(7) 0.8119(6) 0.5275(9)
C22_35 C 0.77988(15) 0.89708(17) 0.52165(19)
C23_35 C 0.7617(2) 0.9098(3) 0.5383(3)
H13_35 H 0.7549 0.9127 0.5482
N5_35 N 0.7604(2) 0.9188(2) 0.5233(4)
C24_35 C 0.77213(18) 0.91067(17) 0.5126(3)
N6_35 N 0.7759(3) 0.9153(2) 0.4959(3)
C25_35 C 0.7882(3) 0.9052(3) 0.4890(2)
H14_35 H 0.7915 0.9080 0.4774
N7_35 N 0.7965(2) 0.8918(3) 0.4962(2)
C26_35 C 0.79258(16) 0.88721(19) 0.5129(2)
N8_35 N 0.8011(2) 0.8736(2) 0.5198(3)
H15_35 H 0.8089 0.8680 0.5136
H16_35 H 0.7989 0.8704 0.5306
O7_52 O 0.7500 0.9488(5) 0.5000
O8_35 O 0.8477(3) 0.9234(4) 0.2884(4)
C27_35 C 0.8546(4) 0.9315(4) 0.3010(5)
O9_23 O 0.8667(4) 0.9415(3) 0.2959(4)
C28_35 C 0.8491(7) 0.9277(7) 0.3183(5)
C29_35 C 0.8360(6) 0.9159(6) 0.3203(7)
H17_35 H 0.8310 0.9102 0.3105
C30_35 C 0.8299(5) 0.9124(5) 0.3380(10)
H18_35 H 0.8200 0.9053 0.3402
C31_35 C 0.8391(8) 0.9199(8) 0.3514(6)
C32_35 C 0.8515(6) 0.9323(6) 0.3494(7)
H19_35 H 0.8562 0.9383 0.3591
C33_35 C 0.8572(4) 0.9362(4) 0.3315(9)
H20_35 H 0.8663 0.9444 0.3292
N9_35 N 0.8324(6) 0.9144(6) 0.3682(5)
C34_35 C 0.5507(5) 0.7758(5) 0.4392(5)
O11_35 O 0.5509(3) 0.7738(3) 0.4226(4)
C35_35 C 0.5650(7) 0.7851(5) 0.4464(11)
C36_35 C 0.5631(6) 0.7877(6) 0.4643(11)
H21_35 H 0.5529 0.7836 0.4701
C37_35 C 0.5760(11) 0.7964(7) 0.4739(5)
H22_35 H 0.5747 0.7981 0.4861
C38_35 C 0.5910(8) 0.8026(4) 0.4654(11)
C39_35 C 0.5929(6) 0.8001(6) 0.4475(11)
H23_35 H 0.6030 0.8043 0.4417
C40_35 C 0.5801(11) 0.7912(7) 0.4380(4)
H24_35 H 0.5816 0.7894 0.4259
N10_35 N 0.6113(6) 0.8176(6) 0.4790(8)
O12_35 O 0.6754(4) 0.8653(4) 0.5075(4)
C41_35 C 0.6652(5) 0.8532(5) 0.5129(5)
O13_35 O 0.6671(4) 0.8522(4) 0.5294(5)
C42_35 C 0.6508(5) 0.8443(6) 0.5054(11)
C43_35 C 0.6488(7) 0.8463(5) 0.4878(11)
H25_35 H 0.6563 0.8539 0.4816
C44_35 C 0.6360(10) 0.8374(9) 0.4792(4)
H26_35 H 0.6346 0.8389 0.4670
C45_35 C 0.6252(6) 0.8264(7) 0.4881(12)
C46_35 C 0.6270(7) 0.8247(5) 0.5058(11)
H27_35 H 0.6192 0.8174 0.5121
C47_35 C 0.6398(10) 0.8334(9) 0.5143(4)
H28_35 H 0.6412 0.8320 0.5265
N11_35 N 0.6057(7) 0.8119(6) 0.4725(9)
C48_35 C 0.72012(15) 0.89708(17) 0.47835(19)
C49_35 C 0.7383(2) 0.9098(3) 0.4617(3)
H29_35 H 0.7451 0.9127 0.4518
N13_35 N 0.7396(2) 0.9188(2) 0.4767(4)
C50_35 C 0.72787(18) 0.91067(17) 0.4874(3)
N14_35 N 0.7241(3) 0.9153(2) 0.5041(3)
C51_35 C 0.7118(3) 0.9052(3) 0.5110(2)
H30_35 H 0.7085 0.9080 0.5226
N15_35 N 0.7035(2) 0.8918(3) 0.5038(2)
C52_35 C 0.70742(16) 0.88721(19) 0.4871(2)
N16_35 N 0.6989(2) 0.8736(2) 0.4802(3)
H31_35 H 0.6911 0.8680 0.4864
H32_35 H 0.7011 0.8704 0.4694
O14_23 O 0.6915(3) 0.8833(4) 0.5459(4)
O1_36 O 0.1734(4) 0.4023(3) 0.0384(4)
C1_36 C 0.1815(4) 0.3954(4) 0.0510(5)
O2_36 O 0.1915(3) 0.3833(4) 0.0459(4)
C2_36 C 0.1777(7) 0.4009(7) 0.0683(5)
C3_36 C 0.1659(6) 0.4140(6) 0.0703(7)
H1_36 H 0.1602 0.4190 0.0605
C4_36 C 0.1624(5) 0.4201(5) 0.0880(10)
H2_36 H 0.1553 0.4300 0.0902
C5_36 C 0.1699(8) 0.4109(8) 0.1014(6)
C6_36 C 0.1823(6) 0.3985(6) 0.0994(7)
H3_36 H 0.1883 0.3938 0.1091
C7_36 C 0.1862(4) 0.3928(4) 0.0815(9)
H4_36 H 0.1944 0.3837 0.0792
N1_36 N 0.1644(6) 0.4176(6) 0.1182(5)
O5_36 O 0.1754(4) 0.3653(4) 0.0075(4)
C15_36 C 0.1652(5) 0.3532(5) 0.0129(5)
O6_36 O 0.1671(4) 0.3522(4) 0.0294(5)
C16_36 C 0.1508(5) 0.3443(6) 0.0054(11)
C20_36 C 0.1270(7) 0.3247(5) 0.0058(11)
H11_36 H 0.1192 0.3174 0.0121
C21_36 C 0.1398(10) 0.3334(9) 0.0143(4)
H12_36 H 0.1412 0.3320 0.0265
N6_36 N 0.2241(3) 0.4153(2) 0.0041(3)
C25_36 C 0.2118(3) 0.4052(3) 0.0110(2)
H14_36 H 0.2085 0.4080 0.0226
N7_36 N 0.2035(2) 0.3918(3) 0.0038(2)
O7_53 O 0.2500 0.4488(5) -0.0000
O8_36 O 0.1523(3) 0.4234(4) 0.2116(4)
C27_36 C 0.1454(4) 0.4315(4) 0.1990(5)
O9_24 O 0.1333(4) 0.4415(3) 0.2041(4)
C28_36 C 0.1509(7) 0.4277(7) 0.1817(5)
C29_36 C 0.1640(6) 0.4159(6) 0.1797(7)
H17_36 H 0.1690 0.4102 0.1895
C30_36 C 0.1701(5) 0.4124(5) 0.1620(10)
H18_36 H 0.1800 0.4053 0.1598
C31_36 C 0.1609(8) 0.4199(8) 0.1486(6)
C32_36 C 0.1485(6) 0.4323(6) 0.1506(7)
H19_36 H 0.1438 0.4383 0.1409
C33_36 C 0.1428(4) 0.4362(4) 0.1685(9)
H20_36 H 0.1337 0.4444 0.1708
N9_36 N 0.1676(6) 0.4144(6) 0.1318(5)
C34_36 C 0.4493(5) 0.2758(5) 0.0608(5)
O11_36 O 0.4491(3) 0.2738(3) 0.0774(4)
C35_36 C 0.4350(7) 0.2851(5) 0.0536(11)
C36_36 C 0.4369(6) 0.2877(6) 0.0357(11)
H21_36 H 0.4471 0.2836 0.0299
C37_36 C 0.4240(11) 0.2964(7) 0.0261(5)
H22_36 H 0.4253 0.2981 0.0139
C38_36 C 0.4090(8) 0.3026(4) 0.0346(11)
C39_36 C 0.4071(6) 0.3001(6) 0.0525(11)
H23_36 H 0.3970 0.3043 0.0583
C40_36 C 0.4199(11) 0.2912(7) 0.0620(4)
H24_36 H 0.4184 0.2894 0.0741
N10_36 N 0.3887(6) 0.3176(6) 0.0210(8)
C43_36 C 0.3512(7) 0.3463(5) 0.0122(11)
H25_36 H 0.3437 0.3539 0.0184
C44_36 C 0.3640(10) 0.3374(9) 0.0208(4)
H26_36 H 0.3654 0.3389 0.0330
C45_36 C 0.3748(6) 0.3264(7) 0.0119(12)
N11_36 N 0.3943(7) 0.3119(6) 0.0275(9)
C48_36 C 0.27988(15) 0.39708(17) 0.02165(19)
C49_36 C 0.2617(2) 0.4098(3) 0.0383(3)
H29_36 H 0.2549 0.4127 0.0482
N13_36 N 0.2604(2) 0.4188(2) 0.0233(4)
C50_36 C 0.27213(18) 0.41067(17) 0.0126(3)
C52_36 C 0.29258(16) 0.38721(19) 0.0129(2)
N16_36 N 0.3011(2) 0.3736(2) 0.0198(3)
H31_36 H 0.3089 0.3680 0.0136
H32_36 H 0.2989 0.3704 0.0306
C8_36 C 0.0507(5) 0.2758(5) 0.9392(5)
O4_36 O 0.0509(3) 0.2738(3) 0.9226(4)
C9_36 C 0.0650(7) 0.2851(5) 0.9464(11)
C10_36 C 0.0631(6) 0.2877(6) 0.9643(11)
H5_36 H 0.0529 0.2836 0.9701
C11_36 C 0.0760(11) 0.2964(7) 0.9739(5)
H6_36 H 0.0747 0.2981 0.9861
C12_36 C 0.0910(8) 0.3026(4) 0.9654(11)
C13_36 C 0.0929(6) 0.3001(6) 0.9475(11)
H7_36 H 0.1030 0.3043 0.9417
C14_36 C 0.0801(11) 0.2912(7) 0.9380(4)
H8_36 H 0.0816 0.2894 0.9259
N2_36 N 0.1113(6) 0.3176(6) 0.9790(8)
C17_36 C 0.1488(7) 0.3463(5) 0.9878(11)
H9_36 H 0.1563 0.3539 0.9816
C18_36 C 0.1360(10) 0.3374(9) 0.9792(4)
H10_36 H 0.1346 0.3389 0.9670
C19_36 C 0.1252(6) 0.3264(7) 0.9881(12)
N3_36 N 0.1057(7) 0.3119(6) 0.9725(9)
C22_36 C 0.22012(15) 0.39708(17) 0.97835(19)
C23_36 C 0.2383(2) 0.4098(3) 0.9617(3)
H13_36 H 0.2451 0.4127 0.9518
N5_36 N 0.2396(2) 0.4188(2) 0.9767(4)
C24_36 C 0.22787(18) 0.41067(17) 0.9874(3)
C26_36 C 0.20742(16) 0.38721(19) 0.9871(2)
N8_36 N 0.1989(2) 0.3736(2) 0.9802(3)
H15_36 H 0.1911 0.3680 0.9864
H16_36 H 0.2011 0.3704 0.9694
O7_54 O 0.2500 0.4488(5) 1.0000
O12_36 O 0.3246(4) 0.3653(4) 0.9925(4)
C41_36 C 0.3348(5) 0.3532(5) 0.9871(5)
O13_36 O 0.3329(4) 0.3522(4) 0.9706(5)
C42_36 C 0.3492(5) 0.3443(6) 0.9946(11)
C46_36 C 0.3730(7) 0.3247(5) 0.9942(11)
H27_36 H 0.3808 0.3174 0.9879
C47_36 C 0.3602(10) 0.3334(9) 0.9857(4)
H28_36 H 0.3588 0.3320 0.9735
N14_36 N 0.2759(3) 0.4153(2) 0.9959(3)
C51_36 C 0.2882(3) 0.4052(3) 0.9890(2)
H30_36 H 0.2915 0.4080 0.9774
N15_36 N 0.2965(2) 0.3918(3) 0.9962(2)
O14_24 O 0.3085(3) 0.3833(4) 0.9541(4)
O1_37 O 0.5766(4) 0.2884(4) 0.1523(3)
C1_37 C 0.5685(4) 0.3010(5) 0.1454(4)
O2_37 O 0.5585(3) 0.2959(4) 0.1333(4)
C2_37 C 0.5723(7) 0.3183(5) 0.1509(7)
C3_37 C 0.5841(6) 0.3203(7) 0.1640(6)
H1_37 H 0.5898 0.3105 0.1690
C4_37 C 0.5876(5) 0.3380(10) 0.1701(5)
H2_37 H 0.5947 0.3402 0.1800
C5_37 C 0.5801(8) 0.3514(6) 0.1609(8)
C6_37 C 0.5677(6) 0.3494(7) 0.1485(6)
H3_37 H 0.5617 0.3591 0.1438
C7_37 C 0.5638(4) 0.3315(9) 0.1428(4)
H4_37 H 0.5556 0.3292 0.1337
N1_37 N 0.5856(6) 0.3682(5) 0.1676(6)
C8_37 C 0.6993(5) 0.1892(5) 0.0258(5)
O4_37 O 0.6991(3) 0.1726(4) 0.0238(3)
C9_37 C 0.6850(7) 0.1964(11) 0.0351(5)
C10_37 C 0.6869(6) 0.2143(11) 0.0377(6)
H5_37 H 0.6971 0.2201 0.0336
C11_37 C 0.6740(11) 0.2239(5) 0.0464(7)
H6_37 H 0.6753 0.2361 0.0481
C12_37 C 0.6590(8) 0.2154(11) 0.0526(4)
C13_37 C 0.6571(6) 0.1975(11) 0.0501(6)
H7_37 H 0.6470 0.1917 0.0543
C14_37 C 0.6699(11) 0.1880(4) 0.0412(7)
H8_37 H 0.6684 0.1759 0.0394
N2_37 N 0.6387(6) 0.2290(8) 0.0676(6)
O5_37 O 0.5746(4) 0.2575(4) 0.1153(4)
C15_37 C 0.5848(5) 0.2629(5) 0.1032(5)
O6_37 O 0.5829(4) 0.2794(5) 0.1022(4)
C16_37 C 0.5992(5) 0.2554(11) 0.0943(6)
C17_37 C 0.6012(7) 0.2378(11) 0.0963(5)
H9_37 H 0.5937 0.2316 0.1039
C18_37 C 0.6140(10) 0.2292(4) 0.0874(9)
H10_37 H 0.6154 0.2170 0.0889
C19_37 C 0.6248(6) 0.2381(12) 0.0764(7)
C20_37 C 0.6230(7) 0.2558(11) 0.0747(5)
H11_37 H 0.6308 0.2621 0.0674
C21_37 C 0.6102(10) 0.2643(4) 0.0834(9)
H12_37 H 0.6088 0.2765 0.0820
N3_37 N 0.6443(7) 0.2225(9) 0.0619(6)
C22_37 C 0.52988(15) 0.22835(19) 0.14708(17)
C23_37 C 0.5117(2) 0.2117(3) 0.1598(3)
H13_37 H 0.5049 0.2018 0.1627
N5_37 N 0.5104(2) 0.2267(4) 0.1688(2)
C24_37 C 0.52213(18) 0.2374(3) 0.16067(17)
N6_37 N 0.5259(3) 0.2541(3) 0.1653(2)
C25_37 C 0.5382(3) 0.2610(2) 0.1552(3)
H14_37 H 0.5415 0.2726 0.1580
N7_37 N 0.5465(2) 0.2538(2) 0.1418(3)
C26_37 C 0.54258(16) 0.2371(2) 0.13721(19)
N8_37 N 0.5511(2) 0.2302(3) 0.1236(2)
H15_37 H 0.5589 0.2364 0.1180
H16_37 H 0.5489 0.2194 0.1204
O7_55 O 0.5000 0.2500 0.1988(5)
O8_37 O 0.5977(3) 0.4616(4) 0.1734(4)
C27_37 C 0.6046(4) 0.4490(5) 0.1815(4)
C28_37 C 0.5991(7) 0.4317(5) 0.1777(7)
C29_37 C 0.5860(6) 0.4297(7) 0.1659(6)
H17_37 H 0.5810 0.4395 0.1602
C30_37 C 0.5799(5) 0.4120(10) 0.1624(5)
H18_37 H 0.5700 0.4098 0.1553
C31_37 C 0.5891(8) 0.3986(6) 0.1699(8)
C32_37 C 0.6015(6) 0.4006(7) 0.1823(6)
H19_37 H 0.6062 0.3909 0.1883
C33_37 C 0.6072(4) 0.4185(9) 0.1862(4)
H20_37 H 0.6163 0.4208 0.1944
N9_37 N 0.5824(6) 0.3818(5) 0.1644(6)
C34_37 C 0.3007(5) 0.3108(5) 0.0258(5)
O11_37 O 0.3009(3) 0.3274(4) 0.0238(3)
C35_37 C 0.3150(7) 0.3036(11) 0.0351(5)
C36_37 C 0.3131(6) 0.2857(11) 0.0377(6)
H21_37 H 0.3029 0.2799 0.0336
C37_37 C 0.3260(11) 0.2761(5) 0.0464(7)
H22_37 H 0.3247 0.2639 0.0481
C38_37 C 0.3410(8) 0.2846(11) 0.0526(4)
C39_37 C 0.3429(6) 0.3025(11) 0.0501(6)
H23_37 H 0.3530 0.3083 0.0543
C40_37 C 0.3301(11) 0.3120(4) 0.0412(7)
H24_37 H 0.3316 0.3241 0.0394
N10_37 N 0.3613(6) 0.2710(8) 0.0676(6)
O12_37 O 0.4254(4) 0.2425(4) 0.1153(4)
C41_37 C 0.4152(5) 0.2371(5) 0.1032(5)
O13_37 O 0.4171(4) 0.2206(5) 0.1022(4)
C42_37 C 0.4008(5) 0.2446(11) 0.0943(6)
C43_37 C 0.3988(7) 0.2622(11) 0.0963(5)
H25_37 H 0.4063 0.2684 0.1039
C44_37 C 0.3860(10) 0.2708(4) 0.0874(9)
H26_37 H 0.3846 0.2830 0.0889
C45_37 C 0.3752(6) 0.2619(12) 0.0764(7)
C46_37 C 0.3770(7) 0.2442(11) 0.0747(5)
H27_37 H 0.3692 0.2379 0.0674
C47_37 C 0.3898(10) 0.2357(4) 0.0834(9)
H28_37 H 0.3912 0.2235 0.0820
N11_37 N 0.3557(7) 0.2775(9) 0.0619(6)
C48_37 C 0.47012(15) 0.27165(19) 0.14708(17)
C49_37 C 0.4883(2) 0.2883(3) 0.1598(3)
H29_37 H 0.4951 0.2982 0.1627
N13_37 N 0.4896(2) 0.2733(4) 0.1688(2)
C50_37 C 0.47787(18) 0.2626(3) 0.16067(17)
N14_37 N 0.4741(3) 0.2459(3) 0.1653(2)
C51_37 C 0.4618(3) 0.2390(2) 0.1552(3)
H30_37 H 0.4585 0.2274 0.1580
N15_37 N 0.4535(2) 0.2462(2) 0.1418(3)
C52_37 C 0.45742(16) 0.2629(2) 0.13721(19)
N16_37 N 0.4489(2) 0.2698(3) 0.1236(2)
H31_37 H 0.4411 0.2636 0.1180
H32_37 H 0.4511 0.2806 0.1204
O7_56 O 0.0000 0.7500 0.6988(5)
C34_38 C 0.1993(5) 0.6892(5) 0.5258(5)
O11_38 O 0.1991(3) 0.6726(4) 0.5238(3)
C35_38 C 0.1850(7) 0.6964(11) 0.5351(5)
C36_38 C 0.1869(6) 0.7143(11) 0.5377(6)
H21_38 H 0.1971 0.7201 0.5336
C37_38 C 0.1740(11) 0.7239(5) 0.5464(7)
H22_38 H 0.1753 0.7361 0.5481
C38_38 C 0.1590(8) 0.7154(11) 0.5526(4)
C39_38 C 0.1571(6) 0.6975(11) 0.5501(6)
H23_38 H 0.1470 0.6917 0.5543
C40_38 C 0.1699(11) 0.6880(4) 0.5412(7)
H24_38 H 0.1684 0.6759 0.5394
N10_38 N 0.1387(6) 0.7290(8) 0.5676(6)
O12_38 O 0.0746(4) 0.7575(4) 0.6153(4)
C41_38 C 0.0848(5) 0.7629(5) 0.6032(5)
O13_38 O 0.0829(4) 0.7794(5) 0.6022(4)
C42_38 C 0.0992(5) 0.7554(11) 0.5943(6)
C43_38 C 0.1012(7) 0.7378(11) 0.5963(5)
H25_38 H 0.0937 0.7316 0.6039
C44_38 C 0.1140(10) 0.7292(4) 0.5874(9)
H26_38 H 0.1154 0.7170 0.5889
C45_38 C 0.1248(6) 0.7381(12) 0.5764(7)
C46_38 C 0.1230(7) 0.7558(11) 0.5747(5)
H27_38 H 0.1308 0.7621 0.5674
C47_38 C 0.1102(10) 0.7643(4) 0.5834(9)
H28_38 H 0.1088 0.7765 0.5820
N11_38 N 0.1443(7) 0.7225(9) 0.5619(6)
C48_38 C 0.02988(15) 0.72835(19) 0.64708(17)
C49_38 C 0.0117(2) 0.7117(3) 0.6598(3)
H29_38 H 0.0049 0.7018 0.6627
N13_38 N 0.0104(2) 0.7267(4) 0.6688(2)
C50_38 C 0.02213(18) 0.7374(3) 0.66067(17)
N14_38 N 0.0259(3) 0.7541(3) 0.6653(2)
C51_38 C 0.0382(3) 0.7610(2) 0.6552(3)
H30_38 H 0.0415 0.7726 0.6580
N15_38 N 0.0465(2) 0.7538(2) 0.6418(3)
C52_38 C 0.04258(16) 0.7371(2) 0.63721(19)
N16_38 N 0.0511(2) 0.7302(3) 0.6236(2)
H31_38 H 0.0589 0.7364 0.6180
H32_38 H 0.0489 0.7194 0.6204
O1_38 O 0.9234(4) 0.7116(4) 0.6523(3)
C1_38 C 0.9315(4) 0.6990(5) 0.6454(4)
O2_38 O 0.9415(3) 0.7041(4) 0.6333(4)
C2_38 C 0.9277(7) 0.6817(5) 0.6509(7)
C3_38 C 0.9159(6) 0.6797(7) 0.6640(6)
H1_38 H 0.9102 0.6895 0.6690
C4_38 C 0.9124(5) 0.6620(10) 0.6701(5)
H2_38 H 0.9053 0.6598 0.6800
C5_38 C 0.9199(8) 0.6486(6) 0.6609(8)
C6_38 C 0.9323(6) 0.6506(7) 0.6485(6)
H3_38 H 0.9383 0.6409 0.6438
C7_38 C 0.9362(4) 0.6685(9) 0.6428(4)
H4_38 H 0.9444 0.6708 0.6337
N1_38 N 0.9144(6) 0.6318(5) 0.6676(6)
C8_38 C 0.8007(5) 0.8108(5) 0.5258(5)
O4_38 O 0.8009(3) 0.8274(4) 0.5238(3)
C9_38 C 0.8150(7) 0.8036(11) 0.5351(5)
C10_38 C 0.8131(6) 0.7857(11) 0.5377(6)
H5_38 H 0.8029 0.7799 0.5336
C11_38 C 0.8260(11) 0.7761(5) 0.5464(7)
H6_38 H 0.8247 0.7639 0.5481
C12_38 C 0.8410(8) 0.7846(11) 0.5526(4)
C13_38 C 0.8429(6) 0.8025(11) 0.5501(6)
H7_38 H 0.8530 0.8083 0.5543
C14_38 C 0.8301(11) 0.8120(4) 0.5412(7)
H8_38 H 0.8316 0.8241 0.5394
N2_38 N 0.8613(6) 0.7710(8) 0.5676(6)
O5_38 O 0.9254(4) 0.7425(4) 0.6153(4)
C15_38 C 0.9152(5) 0.7371(5) 0.6032(5)
O6_38 O 0.9171(4) 0.7206(5) 0.6022(4)
C16_38 C 0.9008(5) 0.7446(11) 0.5943(6)
C17_38 C 0.8988(7) 0.7622(11) 0.5963(5)
H9_38 H 0.9063 0.7684 0.6039
C18_38 C 0.8860(10) 0.7708(4) 0.5874(9)
H10_38 H 0.8846 0.7830 0.5889
C19_38 C 0.8752(6) 0.7619(12) 0.5764(7)
C20_38 C 0.8770(7) 0.7442(11) 0.5747(5)
H11_38 H 0.8692 0.7379 0.5674
C21_38 C 0.8898(10) 0.7357(4) 0.5834(9)
H12_38 H 0.8912 0.7235 0.5820
N3_38 N 0.8557(7) 0.7775(9) 0.5619(6)
C22_38 C 0.97012(15) 0.77165(19) 0.64708(17)
C23_38 C 0.9883(2) 0.7883(3) 0.6598(3)
H13_38 H 0.9951 0.7982 0.6627
N5_38 N 0.9896(2) 0.7733(4) 0.6688(2)
C24_38 C 0.97787(18) 0.7626(3) 0.66067(17)
N6_38 N 0.9741(3) 0.7459(3) 0.6653(2)
C25_38 C 0.9618(3) 0.7390(2) 0.6552(3)
H14_38 H 0.9585 0.7274 0.6580
N7_38 N 0.9535(2) 0.7462(2) 0.6418(3)
C26_38 C 0.95742(16) 0.7629(2) 0.63721(19)
N8_38 N 0.9489(2) 0.7698(3) 0.6236(2)
H15_38 H 0.9411 0.7636 0.6180
H16_38 H 0.9511 0.7806 0.6204
O7_57 O 1.0000 0.7500 0.6988(5)
O8_38 O 0.9023(3) 0.5384(4) 0.6734(4)
C27_38 C 0.8954(4) 0.5510(5) 0.6815(4)
C28_38 C 0.9009(7) 0.5683(5) 0.6777(7)
C29_38 C 0.9140(6) 0.5703(7) 0.6659(6)
H17_38 H 0.9190 0.5605 0.6602
C30_38 C 0.9201(5) 0.5880(10) 0.6624(5)
H18_38 H 0.9300 0.5902 0.6553
C31_38 C 0.9109(8) 0.6014(6) 0.6699(8)
C32_38 C 0.8985(6) 0.5994(7) 0.6823(6)
H19_38 H 0.8938 0.6091 0.6883
C33_38 C 0.8928(4) 0.5815(9) 0.6862(4)
H20_38 H 0.8837 0.5792 0.6944
N9_38 N 0.9176(6) 0.6182(5) 0.6644(6)
O1_39 O 0.0766(4) 0.2116(4) 0.8477(3)
C1_39 C 0.0685(4) 0.1990(5) 0.8546(4)
O2_39 O 0.0585(3) 0.2041(4) 0.8667(4)
C2_39 C 0.0723(7) 0.1817(5) 0.8491(7)
C3_39 C 0.0841(6) 0.1797(7) 0.8360(6)
H1_39 H 0.0898 0.1895 0.8310
C4_39 C 0.0876(5) 0.1620(10) 0.8299(5)
H2_39 H 0.0947 0.1598 0.8200
C5_39 C 0.0801(8) 0.1486(6) 0.8391(8)
C6_39 C 0.0677(6) 0.1506(7) 0.8515(6)
H3_39 H 0.0617 0.1409 0.8562
C7_39 C 0.0638(4) 0.1685(9) 0.8572(4)
H4_39 H 0.0556 0.1708 0.8663
N1_39 N 0.0856(6) 0.1318(5) 0.8324(6)
C8_39 C 0.1993(5) 0.3108(5) 0.9742(5)
O4_39 O 0.1991(3) 0.3274(4) 0.9762(3)
C9_39 C 0.1850(7) 0.3036(11) 0.9649(5)
C10_39 C 0.1869(6) 0.2857(11) 0.9623(6)
H5_39 H 0.1971 0.2799 0.9664
C11_39 C 0.1740(11) 0.2761(5) 0.9536(7)
H6_39 H 0.1753 0.2639 0.9519
C12_39 C 0.1590(8) 0.2846(11) 0.9474(4)
C13_39 C 0.1571(6) 0.3025(11) 0.9499(6)
H7_39 H 0.1470 0.3083 0.9457
C14_39 C 0.1699(11) 0.3120(4) 0.9588(7)
H8_39 H 0.1684 0.3241 0.9606
N2_39 N 0.1387(6) 0.2710(8) 0.9324(6)
O5_39 O 0.0746(4) 0.2425(4) 0.8847(4)
C15_39 C 0.0848(5) 0.2371(5) 0.8968(5)
O6_39 O 0.0829(4) 0.2206(5) 0.8978(4)
C16_39 C 0.0992(5) 0.2446(11) 0.9057(6)
C17_39 C 0.1012(7) 0.2622(11) 0.9037(5)
H9_39 H 0.0937 0.2684 0.8961
C18_39 C 0.1140(10) 0.2708(4) 0.9126(9)
H10_39 H 0.1154 0.2830 0.9111
C19_39 C 0.1248(6) 0.2619(12) 0.9236(7)
C20_39 C 0.1230(7) 0.2442(11) 0.9253(5)
H11_39 H 0.1308 0.2379 0.9326
C21_39 C 0.1102(10) 0.2357(4) 0.9166(9)
H12_39 H 0.1088 0.2235 0.9180
N3_39 N 0.1443(7) 0.2775(9) 0.9381(6)
C22_39 C 0.02988(15) 0.27165(19) 0.85292(17)
C23_39 C 0.0117(2) 0.2883(3) 0.8402(3)
H13_39 H 0.0049 0.2982 0.8373
N5_39 N 0.0104(2) 0.2733(4) 0.8312(2)
C24_39 C 0.02213(18) 0.2626(3) 0.83933(17)
N6_39 N 0.0259(3) 0.2459(3) 0.8347(2)
C25_39 C 0.0382(3) 0.2390(2) 0.8448(3)
H14_39 H 0.0415 0.2274 0.8420
N7_39 N 0.0465(2) 0.2462(2) 0.8582(3)
C26_39 C 0.04258(16) 0.2629(2) 0.86279(19)
N8_39 N 0.0511(2) 0.2698(3) 0.8764(2)
H15_39 H 0.0589 0.2636 0.8820
H16_39 H 0.0489 0.2806 0.8796
O7_58 O 0.0000 0.2500 0.8012(5)
O8_39 O 0.0977(3) 0.0384(4) 0.8266(4)
C27_39 C 0.1046(4) 0.0510(5) 0.8185(4)
C28_39 C 0.0991(7) 0.0683(5) 0.8223(7)
C29_39 C 0.0860(6) 0.0703(7) 0.8341(6)
H17_39 H 0.0810 0.0605 0.8398
C30_39 C 0.0799(5) 0.0880(10) 0.8376(5)
H18_39 H 0.0700 0.0902 0.8447
C31_39 C 0.0891(8) 0.1014(6) 0.8301(8)
C32_39 C 0.1015(6) 0.0994(7) 0.8177(6)
H19_39 H 0.1062 0.1091 0.8117
C33_39 C 0.1072(4) 0.0815(9) 0.8138(4)
H20_39 H 0.1163 0.0792 0.8056
N9_39 N 0.0824(6) 0.1182(5) 0.8356(6)
O7_59 O 1.0000 0.2500 0.8012(5)
C34_39 C 0.8007(5) 0.1892(5) 0.9742(5)
O11_39 O 0.8009(3) 0.1726(4) 0.9762(3)
C35_39 C 0.8150(7) 0.1964(11) 0.9649(5)
C36_39 C 0.8131(6) 0.2143(11) 0.9623(6)
H21_39 H 0.8029 0.2201 0.9664
C37_39 C 0.8260(11) 0.2239(5) 0.9536(7)
H22_39 H 0.8247 0.2361 0.9519
C38_39 C 0.8410(8) 0.2154(11) 0.9474(4)
C39_39 C 0.8429(6) 0.1975(11) 0.9499(6)
H23_39 H 0.8530 0.1917 0.9457
C40_39 C 0.8301(11) 0.1880(4) 0.9588(7)
H24_39 H 0.8316 0.1759 0.9606
N10_39 N 0.8613(6) 0.2290(8) 0.9324(6)
O12_39 O 0.9254(4) 0.2575(4) 0.8847(4)
C41_39 C 0.9152(5) 0.2629(5) 0.8968(5)
O13_39 O 0.9171(4) 0.2794(5) 0.8978(4)
C42_39 C 0.9008(5) 0.2554(11) 0.9057(6)
C43_39 C 0.8988(7) 0.2378(11) 0.9037(5)
H25_39 H 0.9063 0.2316 0.8961
C44_39 C 0.8860(10) 0.2292(4) 0.9126(9)
H26_39 H 0.8846 0.2170 0.9111
C45_39 C 0.8752(6) 0.2381(12) 0.9236(7)
C46_39 C 0.8770(7) 0.2558(11) 0.9253(5)
H27_39 H 0.8692 0.2621 0.9326
C47_39 C 0.8898(10) 0.2643(4) 0.9166(9)
H28_39 H 0.8912 0.2765 0.9180
N11_39 N 0.8557(7) 0.2225(9) 0.9381(6)
C48_39 C 0.97012(15) 0.22835(19) 0.85292(17)
C49_39 C 0.9883(2) 0.2117(3) 0.8402(3)
H29_39 H 0.9951 0.2018 0.8373
N13_39 N 0.9896(2) 0.2267(4) 0.8312(2)
C50_39 C 0.97787(18) 0.2374(3) 0.83933(17)
N14_39 N 0.9741(3) 0.2541(3) 0.8347(2)
C51_39 C 0.9618(3) 0.2610(2) 0.8448(3)
H30_39 H 0.9585 0.2726 0.8420
N15_39 N 0.9535(2) 0.2538(2) 0.8582(3)
C52_39 C 0.95742(16) 0.2371(2) 0.86279(19)
N16_39 N 0.9489(2) 0.2302(3) 0.8764(2)
H31_39 H 0.9411 0.2364 0.8820
H32_39 H 0.9511 0.2194 0.8796
O1_40 O 0.4234(4) 0.7884(4) 0.3477(3)
C1_40 C 0.4315(4) 0.8010(5) 0.3546(4)
O2_40 O 0.4415(3) 0.7959(4) 0.3667(4)
C2_40 C 0.4277(7) 0.8183(5) 0.3491(7)
C3_40 C 0.4159(6) 0.8203(7) 0.3360(6)
H1_40 H 0.4102 0.8105 0.3310
C4_40 C 0.4124(5) 0.8380(10) 0.3299(5)
H2_40 H 0.4053 0.8402 0.3200
C5_40 C 0.4199(8) 0.8514(6) 0.3391(8)
C6_40 C 0.4323(6) 0.8494(7) 0.3515(6)
H3_40 H 0.4383 0.8591 0.3562
C7_40 C 0.4362(4) 0.8315(9) 0.3572(4)
H4_40 H 0.4444 0.8292 0.3663
N1_40 N 0.4144(6) 0.8682(5) 0.3324(6)
C8_40 C 0.3007(5) 0.6892(5) 0.4742(5)
O4_40 O 0.3009(3) 0.6726(4) 0.4762(3)
C9_40 C 0.3150(7) 0.6964(11) 0.4649(5)
C10_40 C 0.3131(6) 0.7143(11) 0.4623(6)
H5_40 H 0.3029 0.7201 0.4664
C11_40 C 0.3260(11) 0.7239(5) 0.4536(7)
H6_40 H 0.3247 0.7361 0.4519
C12_40 C 0.3410(8) 0.7154(11) 0.4474(4)
C13_40 C 0.3429(6) 0.6975(11) 0.4499(6)
H7_40 H 0.3530 0.6917 0.4457
C14_40 C 0.3301(11) 0.6880(4) 0.4588(7)
H8_40 H 0.3316 0.6759 0.4606
N2_40 N 0.3613(6) 0.7290(8) 0.4324(6)
O5_40 O 0.4254(4) 0.7575(4) 0.3847(4)
C15_40 C 0.4152(5) 0.7629(5) 0.3968(5)
O6_40 O 0.4171(4) 0.7794(5) 0.3978(4)
C16_40 C 0.4008(5) 0.7554(11) 0.4057(6)
C17_40 C 0.3988(7) 0.7378(11) 0.4037(5)
H9_40 H 0.4063 0.7316 0.3961
C18_40 C 0.3860(10) 0.7292(4) 0.4126(9)
H10_40 H 0.3846 0.7170 0.4111
C19_40 C 0.3752(6) 0.7381(12) 0.4236(7)
C20_40 C 0.3770(7) 0.7558(11) 0.4253(5)
H11_40 H 0.3692 0.7621 0.4326
C21_40 C 0.3898(10) 0.7643(4) 0.4166(9)
H12_40 H 0.3912 0.7765 0.4180
N3_40 N 0.3557(7) 0.7225(9) 0.4381(6)
C22_40 C 0.47012(15) 0.72835(19) 0.35292(17)
C23_40 C 0.4883(2) 0.7117(3) 0.3402(3)
H13_40 H 0.4951 0.7018 0.3373
N5_40 N 0.4896(2) 0.7267(4) 0.3312(2)
C24_40 C 0.47787(18) 0.7374(3) 0.33933(17)
N6_40 N 0.4741(3) 0.7541(3) 0.3347(2)
C25_40 C 0.4618(3) 0.7610(2) 0.3448(3)
H14_40 H 0.4585 0.7726 0.3420
N7_40 N 0.4535(2) 0.7538(2) 0.3582(3)
C26_40 C 0.45742(16) 0.7371(2) 0.36279(19)
N8_40 N 0.4489(2) 0.7302(3) 0.3764(2)
H15_40 H 0.4411 0.7364 0.3820
H16_40 H 0.4511 0.7194 0.3796
O7_60 O 0.5000 0.7500 0.3012(5)
O8_40 O 0.4023(3) 0.9616(4) 0.3266(4)
C27_40 C 0.3954(4) 0.9490(5) 0.3185(4)
C28_40 C 0.4009(7) 0.9317(5) 0.3223(7)
C29_40 C 0.4140(6) 0.9297(7) 0.3341(6)
H17_40 H 0.4190 0.9395 0.3398
C30_40 C 0.4201(5) 0.9120(10) 0.3376(5)
H18_40 H 0.4300 0.9098 0.3447
C31_40 C 0.4109(8) 0.8986(6) 0.3301(8)
C32_40 C 0.3985(6) 0.9006(7) 0.3177(6)
H19_40 H 0.3938 0.8909 0.3117
C33_40 C 0.3928(4) 0.9185(9) 0.3138(4)
H20_40 H 0.3837 0.9208 0.3056
N9_40 N 0.4176(6) 0.8818(5) 0.3356(6)
C34_40 C 0.6993(5) 0.8108(5) 0.4742(5)
O11_40 O 0.6991(3) 0.8274(4) 0.4762(3)
C35_40 C 0.6850(7) 0.8036(11) 0.4649(5)
C36_40 C 0.6869(6) 0.7857(11) 0.4623(6)
H21_40 H 0.6971 0.7799 0.4664
C37_40 C 0.6740(11) 0.7761(5) 0.4536(7)
H22_40 H 0.6753 0.7639 0.4519
C38_40 C 0.6590(8) 0.7846(11) 0.4474(4)
C39_40 C 0.6571(6) 0.8025(11) 0.4499(6)
H23_40 H 0.6470 0.8083 0.4457
C40_40 C 0.6699(11) 0.8120(4) 0.4588(7)
H24_40 H 0.6684 0.8241 0.4606
N10_40 N 0.6387(6) 0.7710(8) 0.4324(6)
O12_40 O 0.5746(4) 0.7425(4) 0.3847(4)
C41_40 C 0.5848(5) 0.7371(5) 0.3968(5)
O13_40 O 0.5829(4) 0.7206(5) 0.3978(4)
C42_40 C 0.5992(5) 0.7446(11) 0.4057(6)
C43_40 C 0.6012(7) 0.7622(11) 0.4037(5)
H25_40 H 0.5937 0.7684 0.3961
C44_40 C 0.6140(10) 0.7708(4) 0.4126(9)
H26_40 H 0.6154 0.7830 0.4111
C45_40 C 0.6248(6) 0.7619(12) 0.4236(7)
C46_40 C 0.6230(7) 0.7442(11) 0.4253(5)
H27_40 H 0.6308 0.7379 0.4326
C47_40 C 0.6102(10) 0.7357(4) 0.4166(9)
H28_40 H 0.6088 0.7235 0.4180
N11_40 N 0.6443(7) 0.7775(9) 0.4381(6)
C48_40 C 0.52988(15) 0.77165(19) 0.35292(17)
C49_40 C 0.5117(2) 0.7883(3) 0.3402(3)
H29_40 H 0.5049 0.7982 0.3373
N13_40 N 0.5104(2) 0.7733(4) 0.3312(2)
C50_40 C 0.52213(18) 0.7626(3) 0.33933(17)
N14_40 N 0.5259(3) 0.7459(3) 0.3347(2)
C51_40 C 0.5382(3) 0.7390(2) 0.3448(3)
H30_40 H 0.5415 0.7274 0.3420
N15_40 N 0.5465(2) 0.7462(2) 0.3582(3)
C52_40 C 0.54258(16) 0.7629(2) 0.36279(19)
N16_40 N 0.5511(2) 0.7698(3) 0.3764(2)
H31_40 H 0.5589 0.7636 0.3820
H32_40 H 0.5489 0.7806 0.3796
O1_41 O 0.7884(4) 0.3477(3) 0.4234(4)
C1_41 C 0.8010(5) 0.3546(4) 0.4315(4)
O2_41 O 0.7959(4) 0.3667(4) 0.4415(3)
C2_41 C 0.8183(5) 0.3491(7) 0.4277(7)
C3_41 C 0.8203(7) 0.3360(6) 0.4159(6)
H1_41 H 0.8105 0.3310 0.4102
C4_41 C 0.8380(10) 0.3299(5) 0.4124(5)
H2_41 H 0.8402 0.3200 0.4053
C5_41 C 0.8514(6) 0.3391(8) 0.4199(8)
C6_41 C 0.8494(7) 0.3515(6) 0.4323(6)
H3_41 H 0.8591 0.3562 0.4383
C7_41 C 0.8315(9) 0.3572(4) 0.4362(4)
H4_41 H 0.8292 0.3663 0.4444
N1_41 N 0.8682(5) 0.3324(6) 0.4144(6)
C8_41 C 0.6892(5) 0.4742(5) 0.3007(5)
O4_41 O 0.6726(4) 0.4762(3) 0.3009(3)
C9_41 C 0.6964(11) 0.4649(5) 0.3150(7)
C10_41 C 0.7143(11) 0.4623(6) 0.3131(6)
H5_41 H 0.7201 0.4664 0.3029
C11_41 C 0.7239(5) 0.4536(7) 0.3260(11)
H6_41 H 0.7361 0.4519 0.3247
C12_41 C 0.7154(11) 0.4474(4) 0.3410(8)
C13_41 C 0.6975(11) 0.4499(6) 0.3429(6)
H7_41 H 0.6917 0.4457 0.3530
C14_41 C 0.6880(4) 0.4588(7) 0.3301(11)
H8_41 H 0.6759 0.4606 0.3316
N2_41 N 0.7290(8) 0.4324(6) 0.3613(6)
O5_41 O 0.7575(4) 0.3847(4) 0.4254(4)
C15_41 C 0.7629(5) 0.3968(5) 0.4152(5)
O6_41 O 0.7794(5) 0.3978(4) 0.4171(4)
C16_41 C 0.7554(11) 0.4057(6) 0.4008(5)
C17_41 C 0.7378(11) 0.4037(5) 0.3988(7)
H9_41 H 0.7316 0.3961 0.4063
C18_41 C 0.7292(4) 0.4126(9) 0.3860(10)
H10_41 H 0.7170 0.4111 0.3846
C19_41 C 0.7381(12) 0.4236(7) 0.3752(6)
C20_41 C 0.7558(11) 0.4253(5) 0.3770(7)
H11_41 H 0.7621 0.4326 0.3692
C21_41 C 0.7643(4) 0.4166(9) 0.3898(10)
H12_41 H 0.7765 0.4180 0.3912
N3_41 N 0.7225(9) 0.4381(6) 0.3557(7)
C22_41 C 0.72835(19) 0.35292(17) 0.47012(15)
C23_41 C 0.7117(3) 0.3402(3) 0.4883(2)
H13_41 H 0.7018 0.3373 0.4951
N5_41 N 0.7267(4) 0.3312(2) 0.4896(2)
C24_41 C 0.7374(3) 0.33933(17) 0.47787(18)
N6_41 N 0.7541(3) 0.3347(2) 0.4741(3)
C25_41 C 0.7610(2) 0.3448(3) 0.4618(3)
H14_41 H 0.7726 0.3420 0.4585
N7_41 N 0.7538(2) 0.3582(3) 0.4535(2)
C26_41 C 0.7371(2) 0.36279(19) 0.45742(16)
N8_41 N 0.7302(3) 0.3764(2) 0.4489(2)
H15_41 H 0.7364 0.3820 0.4411
H16_41 H 0.7194 0.3796 0.4511
O7_61 O 0.7500 0.3012(5) 0.5000
O8_41 O 0.9616(4) 0.3266(4) 0.4023(3)
C27_41 C 0.9490(5) 0.3185(4) 0.3954(4)
C28_41 C 0.9317(5) 0.3223(7) 0.4009(7)
C29_41 C 0.9297(7) 0.3341(6) 0.4140(6)
H17_41 H 0.9395 0.3398 0.4190
C30_41 C 0.9120(10) 0.3376(5) 0.4201(5)
H18_41 H 0.9098 0.3447 0.4300
C31_41 C 0.8986(6) 0.3301(8) 0.4109(8)
C32_41 C 0.9006(7) 0.3177(6) 0.3985(6)
H19_41 H 0.8909 0.3117 0.3938
C33_41 C 0.9185(9) 0.3138(4) 0.3928(4)
H20_41 H 0.9208 0.3056 0.3837
N9_41 N 0.8818(5) 0.3356(6) 0.4176(6)
C34_41 C 0.8108(5) 0.4742(5) 0.6993(5)
O11_41 O 0.8274(4) 0.4762(3) 0.6991(3)
C35_41 C 0.8036(11) 0.4649(5) 0.6850(7)
C36_41 C 0.7857(11) 0.4623(6) 0.6869(6)
H21_41 H 0.7799 0.4664 0.6971
C37_41 C 0.7761(5) 0.4536(7) 0.6740(11)
H22_41 H 0.7639 0.4519 0.6753
C38_41 C 0.7846(11) 0.4474(4) 0.6590(8)
C39_41 C 0.8025(11) 0.4499(6) 0.6571(6)
H23_41 H 0.8083 0.4457 0.6470
C40_41 C 0.8120(4) 0.4588(7) 0.6699(11)
H24_41 H 0.8241 0.4606 0.6684
N10_41 N 0.7710(8) 0.4324(6) 0.6387(6)
O12_41 O 0.7425(4) 0.3847(4) 0.5746(4)
C41_41 C 0.7371(5) 0.3968(5) 0.5848(5)
O13_41 O 0.7206(5) 0.3978(4) 0.5829(4)
C42_41 C 0.7446(11) 0.4057(6) 0.5992(5)
C43_41 C 0.7622(11) 0.4037(5) 0.6012(7)
H25_41 H 0.7684 0.3961 0.5937
C44_41 C 0.7708(4) 0.4126(9) 0.6140(10)
H26_41 H 0.7830 0.4111 0.6154
C45_41 C 0.7619(12) 0.4236(7) 0.6248(6)
C46_41 C 0.7442(11) 0.4253(5) 0.6230(7)
H27_41 H 0.7379 0.4326 0.6308
C47_41 C 0.7357(4) 0.4166(9) 0.6102(10)
H28_41 H 0.7235 0.4180 0.6088
N11_41 N 0.7775(9) 0.4381(6) 0.6443(7)
C48_41 C 0.77165(19) 0.35292(17) 0.52988(15)
C49_41 C 0.7883(3) 0.3402(3) 0.5117(2)
H29_41 H 0.7982 0.3373 0.5049
N13_41 N 0.7733(4) 0.3312(2) 0.5104(2)
C50_41 C 0.7626(3) 0.33933(17) 0.52213(18)
N14_41 N 0.7459(3) 0.3347(2) 0.5259(3)
C51_41 C 0.7390(2) 0.3448(3) 0.5382(3)
H30_41 H 0.7274 0.3420 0.5415
N15_41 N 0.7462(2) 0.3582(3) 0.5465(2)
C52_41 C 0.7629(2) 0.36279(19) 0.54258(16)
N16_41 N 0.7698(3) 0.3764(2) 0.5511(2)
H31_41 H 0.7636 0.3820 0.5589
H32_41 H 0.7806 0.3796 0.5489
O1_42 O 0.2116(4) 0.8477(3) 0.0766(4)
C1_42 C 0.1990(5) 0.8546(4) 0.0685(4)
O2_42 O 0.2041(4) 0.8667(4) 0.0585(3)
C2_42 C 0.1817(5) 0.8491(7) 0.0723(7)
C3_42 C 0.1797(7) 0.8360(6) 0.0841(6)
H1_42 H 0.1895 0.8310 0.0898
C4_42 C 0.1620(10) 0.8299(5) 0.0876(5)
H2_42 H 0.1598 0.8200 0.0947
C5_42 C 0.1486(6) 0.8391(8) 0.0801(8)
C6_42 C 0.1506(7) 0.8515(6) 0.0677(6)
H3_42 H 0.1409 0.8562 0.0617
C7_42 C 0.1685(9) 0.8572(4) 0.0638(4)
H4_42 H 0.1708 0.8663 0.0556
N1_42 N 0.1318(5) 0.8324(6) 0.0856(6)
C8_42 C 0.3108(5) 0.9742(5) 0.1993(5)
O4_42 O 0.3274(4) 0.9762(3) 0.1991(3)
C9_42 C 0.3036(11) 0.9649(5) 0.1850(7)
C10_42 C 0.2857(11) 0.9623(6) 0.1869(6)
H5_42 H 0.2799 0.9664 0.1971
C11_42 C 0.2761(5) 0.9536(7) 0.1740(11)
H6_42 H 0.2639 0.9519 0.1753
C12_42 C 0.2846(11) 0.9474(4) 0.1590(8)
C13_42 C 0.3025(11) 0.9499(6) 0.1571(6)
H7_42 H 0.3083 0.9457 0.1470
C14_42 C 0.3120(4) 0.9588(7) 0.1699(11)
H8_42 H 0.3241 0.9606 0.1684
N2_42 N 0.2710(8) 0.9324(6) 0.1387(6)
O5_42 O 0.2425(4) 0.8847(4) 0.0746(4)
C15_42 C 0.2371(5) 0.8968(5) 0.0848(5)
O6_42 O 0.2206(5) 0.8978(4) 0.0829(4)
C16_42 C 0.2446(11) 0.9057(6) 0.0992(5)
C17_42 C 0.2622(11) 0.9037(5) 0.1012(7)
H9_42 H 0.2684 0.8961 0.0937
C18_42 C 0.2708(4) 0.9126(9) 0.1140(10)
H10_42 H 0.2830 0.9111 0.1154
C19_42 C 0.2619(12) 0.9236(7) 0.1248(6)
C20_42 C 0.2442(11) 0.9253(5) 0.1230(7)
H11_42 H 0.2379 0.9326 0.1308
C21_42 C 0.2357(4) 0.9166(9) 0.1102(10)
H12_42 H 0.2235 0.9180 0.1088
N3_42 N 0.2775(9) 0.9381(6) 0.1443(7)
C22_42 C 0.27165(19) 0.85292(17) 0.02988(15)
C23_42 C 0.2883(3) 0.8402(3) 0.0117(2)
H13_42 H 0.2982 0.8373 0.0049
N5_42 N 0.2733(4) 0.8312(2) 0.0104(2)
C24_42 C 0.2626(3) 0.83933(17) 0.02213(18)
N6_42 N 0.2459(3) 0.8347(2) 0.0259(3)
C25_42 C 0.2390(2) 0.8448(3) 0.0382(3)
H14_42 H 0.2274 0.8420 0.0415
N7_42 N 0.2462(2) 0.8582(3) 0.0465(2)
C26_42 C 0.2629(2) 0.86279(19) 0.04258(16)
N8_42 N 0.2698(3) 0.8764(2) 0.0511(2)
H15_42 H 0.2636 0.8820 0.0589
H16_42 H 0.2806 0.8796 0.0489
O7_62 O 0.2500 0.8012(5) 0.0000
O8_42 O 0.0384(4) 0.8266(4) 0.0977(3)
C27_42 C 0.0510(5) 0.8185(4) 0.1046(4)
C28_42 C 0.0683(5) 0.8223(7) 0.0991(7)
C29_42 C 0.0703(7) 0.8341(6) 0.0860(6)
H17_42 H 0.0605 0.8398 0.0810
C30_42 C 0.0880(10) 0.8376(5) 0.0799(5)
H18_42 H 0.0902 0.8447 0.0700
C31_42 C 0.1014(6) 0.8301(8) 0.0891(8)
C32_42 C 0.0994(7) 0.8177(6) 0.1015(6)
H19_42 H 0.1091 0.8117 0.1062
C33_42 C 0.0815(9) 0.8138(4) 0.1072(4)
H20_42 H 0.0792 0.8056 0.1163
N9_42 N 0.1182(5) 0.8356(6) 0.0824(6)
O7_63 O 0.2500 0.8012(5) 1.0000
C34_42 C 0.1892(5) 0.9742(5) 0.8007(5)
O11_42 O 0.1726(4) 0.9762(3) 0.8009(3)
C35_42 C 0.1964(11) 0.9649(5) 0.8150(7)
C36_42 C 0.2143(11) 0.9623(6) 0.8131(6)
H21_42 H 0.2201 0.9664 0.8029
C37_42 C 0.2239(5) 0.9536(7) 0.8260(11)
H22_42 H 0.2361 0.9519 0.8247
C38_42 C 0.2154(11) 0.9474(4) 0.8410(8)
C39_42 C 0.1975(11) 0.9499(6) 0.8429(6)
H23_42 H 0.1917 0.9457 0.8530
C40_42 C 0.1880(4) 0.9588(7) 0.8301(11)
H24_42 H 0.1759 0.9606 0.8316
N10_42 N 0.2290(8) 0.9324(6) 0.8613(6)
O12_42 O 0.2575(4) 0.8847(4) 0.9254(4)
C41_42 C 0.2629(5) 0.8968(5) 0.9152(5)
O13_42 O 0.2794(5) 0.8978(4) 0.9171(4)
C42_42 C 0.2554(11) 0.9057(6) 0.9008(5)
C43_42 C 0.2378(11) 0.9037(5) 0.8988(7)
H25_42 H 0.2316 0.8961 0.9063
C44_42 C 0.2292(4) 0.9126(9) 0.8860(10)
H26_42 H 0.2170 0.9111 0.8846
C45_42 C 0.2381(12) 0.9236(7) 0.8752(6)
C46_42 C 0.2558(11) 0.9253(5) 0.8770(7)
H27_42 H 0.2621 0.9326 0.8692
C47_42 C 0.2643(4) 0.9166(9) 0.8898(10)
H28_42 H 0.2765 0.9180 0.8912
N11_42 N 0.2225(9) 0.9381(6) 0.8557(7)
C48_42 C 0.22835(19) 0.85292(17) 0.97012(15)
C49_42 C 0.2117(3) 0.8402(3) 0.9883(2)
H29_42 H 0.2018 0.8373 0.9951
N13_42 N 0.2267(4) 0.8312(2) 0.9896(2)
C50_42 C 0.2374(3) 0.83933(17) 0.97787(18)
N14_42 N 0.2541(3) 0.8347(2) 0.9741(3)
C51_42 C 0.2610(2) 0.8448(3) 0.9618(3)
H30_42 H 0.2726 0.8420 0.9585
N15_42 N 0.2538(2) 0.8582(3) 0.9535(2)
C52_42 C 0.2371(2) 0.86279(19) 0.95742(16)
N16_42 N 0.2302(3) 0.8764(2) 0.9489(2)
H31_42 H 0.2364 0.8820 0.9411
H32_42 H 0.2194 0.8796 0.9511
O7_64 O 0.7500 0.6988(5) 0.0000
C34_43 C 0.6892(5) 0.5258(5) 0.1993(5)
O11_43 O 0.6726(4) 0.5238(3) 0.1991(3)
C35_43 C 0.6964(11) 0.5351(5) 0.1850(7)
C36_43 C 0.7143(11) 0.5377(6) 0.1869(6)
H21_43 H 0.7201 0.5336 0.1971
C37_43 C 0.7239(5) 0.5464(7) 0.1740(11)
H22_43 H 0.7361 0.5481 0.1753
C38_43 C 0.7154(11) 0.5526(4) 0.1590(8)
C39_43 C 0.6975(11) 0.5501(6) 0.1571(6)
H23_43 H 0.6917 0.5543 0.1470
C40_43 C 0.6880(4) 0.5412(7) 0.1699(11)
H24_43 H 0.6759 0.5394 0.1684
N10_43 N 0.7290(8) 0.5676(6) 0.1387(6)
O12_43 O 0.7575(4) 0.6153(4) 0.0746(4)
C41_43 C 0.7629(5) 0.6032(5) 0.0848(5)
O13_43 O 0.7794(5) 0.6022(4) 0.0829(4)
C42_43 C 0.7554(11) 0.5943(6) 0.0992(5)
C43_43 C 0.7378(11) 0.5963(5) 0.1012(7)
H25_43 H 0.7316 0.6039 0.0937
C44_43 C 0.7292(4) 0.5874(9) 0.1140(10)
H26_43 H 0.7170 0.5889 0.1154
C45_43 C 0.7381(12) 0.5764(7) 0.1248(6)
C46_43 C 0.7558(11) 0.5747(5) 0.1230(7)
H27_43 H 0.7621 0.5674 0.1308
C47_43 C 0.7643(4) 0.5834(9) 0.1102(10)
H28_43 H 0.7765 0.5820 0.1088
N11_43 N 0.7225(9) 0.5619(6) 0.1443(7)
C48_43 C 0.72835(19) 0.64708(17) 0.02988(15)
C49_43 C 0.7117(3) 0.6598(3) 0.0117(2)
H29_43 H 0.7018 0.6627 0.0049
N13_43 N 0.7267(4) 0.6688(2) 0.0104(2)
C50_43 C 0.7374(3) 0.66067(17) 0.02213(18)
N14_43 N 0.7541(3) 0.6653(2) 0.0259(3)
C51_43 C 0.7610(2) 0.6552(3) 0.0382(3)
H30_43 H 0.7726 0.6580 0.0415
N15_43 N 0.7538(2) 0.6418(3) 0.0465(2)
C52_43 C 0.7371(2) 0.63721(19) 0.04258(16)
N16_43 N 0.7302(3) 0.6236(2) 0.0511(2)
H31_43 H 0.7364 0.6180 0.0589
H32_43 H 0.7194 0.6204 0.0489
O1_43 O 0.7116(4) 0.6523(3) 0.9234(4)
C1_43 C 0.6990(5) 0.6454(4) 0.9315(4)
O2_43 O 0.7041(4) 0.6333(4) 0.9415(3)
C2_43 C 0.6817(5) 0.6509(7) 0.9277(7)
C3_43 C 0.6797(7) 0.6640(6) 0.9159(6)
H1_43 H 0.6895 0.6690 0.9102
C4_43 C 0.6620(10) 0.6701(5) 0.9124(5)
H2_43 H 0.6598 0.6800 0.9053
C5_43 C 0.6486(6) 0.6609(8) 0.9199(8)
C6_43 C 0.6506(7) 0.6485(6) 0.9323(6)
H3_43 H 0.6409 0.6438 0.9383
C7_43 C 0.6685(9) 0.6428(4) 0.9362(4)
H4_43 H 0.6708 0.6337 0.9444
N1_43 N 0.6318(5) 0.6676(6) 0.9144(6)
C8_43 C 0.8108(5) 0.5258(5) 0.8007(5)
O4_43 O 0.8274(4) 0.5238(3) 0.8009(3)
C9_43 C 0.8036(11) 0.5351(5) 0.8150(7)
C10_43 C 0.7857(11) 0.5377(6) 0.8131(6)
H5_43 H 0.7799 0.5336 0.8029
C11_43 C 0.7761(5) 0.5464(7) 0.8260(11)
H6_43 H 0.7639 0.5481 0.8247
C12_43 C 0.7846(11) 0.5526(4) 0.8410(8)
C13_43 C 0.8025(11) 0.5501(6) 0.8429(6)
H7_43 H 0.8083 0.5543 0.8530
C14_43 C 0.8120(4) 0.5412(7) 0.8301(11)
H8_43 H 0.8241 0.5394 0.8316
N2_43 N 0.7710(8) 0.5676(6) 0.8613(6)
O5_43 O 0.7425(4) 0.6153(4) 0.9254(4)
C15_43 C 0.7371(5) 0.6032(5) 0.9152(5)
O6_43 O 0.7206(5) 0.6022(4) 0.9171(4)
C16_43 C 0.7446(11) 0.5943(6) 0.9008(5)
C17_43 C 0.7622(11) 0.5963(5) 0.8988(7)
H9_43 H 0.7684 0.6039 0.9063
C18_43 C 0.7708(4) 0.5874(9) 0.8860(10)
H10_43 H 0.7830 0.5889 0.8846
C19_43 C 0.7619(12) 0.5764(7) 0.8752(6)
C20_43 C 0.7442(11) 0.5747(5) 0.8770(7)
H11_43 H 0.7379 0.5674 0.8692
C21_43 C 0.7357(4) 0.5834(9) 0.8898(10)
H12_43 H 0.7235 0.5820 0.8912
N3_43 N 0.7775(9) 0.5619(6) 0.8557(7)
C22_43 C 0.77165(19) 0.64708(17) 0.97012(15)
C23_43 C 0.7883(3) 0.6598(3) 0.9883(2)
H13_43 H 0.7982 0.6627 0.9951
N5_43 N 0.7733(4) 0.6688(2) 0.9896(2)
C24_43 C 0.7626(3) 0.66067(17) 0.97787(18)
N6_43 N 0.7459(3) 0.6653(2) 0.9741(3)
C25_43 C 0.7390(2) 0.6552(3) 0.9618(3)
H14_43 H 0.7274 0.6580 0.9585
N7_43 N 0.7462(2) 0.6418(3) 0.9535(2)
C26_43 C 0.7629(2) 0.63721(19) 0.95742(16)
N8_43 N 0.7698(3) 0.6236(2) 0.9489(2)
H15_43 H 0.7636 0.6180 0.9411
H16_43 H 0.7806 0.6204 0.9511
O7_65 O 0.7500 0.6988(5) 1.0000
O8_43 O 0.5384(4) 0.6734(4) 0.9023(3)
C27_43 C 0.5510(5) 0.6815(4) 0.8954(4)
C28_43 C 0.5683(5) 0.6777(7) 0.9009(7)
C29_43 C 0.5703(7) 0.6659(6) 0.9140(6)
H17_43 H 0.5605 0.6602 0.9190
C30_43 C 0.5880(10) 0.6624(5) 0.9201(5)
H18_43 H 0.5902 0.6553 0.9300
C31_43 C 0.6014(6) 0.6699(8) 0.9109(8)
C32_43 C 0.5994(7) 0.6823(6) 0.8985(6)
H19_43 H 0.6091 0.6883 0.8938
C33_43 C 0.5815(9) 0.6862(4) 0.8928(4)
H20_43 H 0.5792 0.6944 0.8837
N9_43 N 0.6182(5) 0.6644(6) 0.9176(6)
O1_44 O 0.2884(4) 0.1523(3) 0.5766(4)
C1_44 C 0.3010(5) 0.1454(4) 0.5685(4)
O2_44 O 0.2959(4) 0.1333(4) 0.5585(3)
C2_44 C 0.3183(5) 0.1509(7) 0.5723(7)
C3_44 C 0.3203(7) 0.1640(6) 0.5841(6)
H1_44 H 0.3105 0.1690 0.5898
C4_44 C 0.3380(10) 0.1701(5) 0.5876(5)
H2_44 H 0.3402 0.1800 0.5947
C5_44 C 0.3514(6) 0.1609(8) 0.5801(8)
C6_44 C 0.3494(7) 0.1485(6) 0.5677(6)
H3_44 H 0.3591 0.1438 0.5617
C7_44 C 0.3315(9) 0.1428(4) 0.5638(4)
H4_44 H 0.3292 0.1337 0.5556
N1_44 N 0.3682(5) 0.1676(6) 0.5856(6)
C8_44 C 0.1892(5) 0.0258(5) 0.6993(5)
O4_44 O 0.1726(4) 0.0238(3) 0.6991(3)
C9_44 C 0.1964(11) 0.0351(5) 0.6850(7)
C10_44 C 0.2143(11) 0.0377(6) 0.6869(6)
H5_44 H 0.2201 0.0336 0.6971
C11_44 C 0.2239(5) 0.0464(7) 0.6740(11)
H6_44 H 0.2361 0.0481 0.6753
C12_44 C 0.2154(11) 0.0526(4) 0.6590(8)
C13_44 C 0.1975(11) 0.0501(6) 0.6571(6)
H7_44 H 0.1917 0.0543 0.6470
C14_44 C 0.1880(4) 0.0412(7) 0.6699(11)
H8_44 H 0.1759 0.0394 0.6684
N2_44 N 0.2290(8) 0.0676(6) 0.6387(6)
O5_44 O 0.2575(4) 0.1153(4) 0.5746(4)
C15_44 C 0.2629(5) 0.1032(5) 0.5848(5)
O6_44 O 0.2794(5) 0.1022(4) 0.5829(4)
C16_44 C 0.2554(11) 0.0943(6) 0.5992(5)
C17_44 C 0.2378(11) 0.0963(5) 0.6012(7)
H9_44 H 0.2316 0.1039 0.5937
C18_44 C 0.2292(4) 0.0874(9) 0.6140(10)
H10_44 H 0.2170 0.0889 0.6154
C19_44 C 0.2381(12) 0.0764(7) 0.6248(6)
C20_44 C 0.2558(11) 0.0747(5) 0.6230(7)
H11_44 H 0.2621 0.0674 0.6308
C21_44 C 0.2643(4) 0.0834(9) 0.6102(10)
H12_44 H 0.2765 0.0820 0.6088
N3_44 N 0.2225(9) 0.0619(6) 0.6443(7)
C22_44 C 0.22835(19) 0.14708(17) 0.52988(15)
C23_44 C 0.2117(3) 0.1598(3) 0.5117(2)
H13_44 H 0.2018 0.1627 0.5049
N5_44 N 0.2267(4) 0.1688(2) 0.5104(2)
C24_44 C 0.2374(3) 0.16067(17) 0.52213(18)
N6_44 N 0.2541(3) 0.1653(2) 0.5259(3)
C25_44 C 0.2610(2) 0.1552(3) 0.5382(3)
H14_44 H 0.2726 0.1580 0.5415
N7_44 N 0.2538(2) 0.1418(3) 0.5465(2)
C26_44 C 0.2371(2) 0.13721(19) 0.54258(16)
N8_44 N 0.2302(3) 0.1236(2) 0.5511(2)
H15_44 H 0.2364 0.1180 0.5589
H16_44 H 0.2194 0.1204 0.5489
O7_66 O 0.2500 0.1988(5) 0.5000
O8_44 O 0.4616(4) 0.1734(4) 0.5977(3)
C27_44 C 0.4490(5) 0.1815(4) 0.6046(4)
C28_44 C 0.4317(5) 0.1777(7) 0.5991(7)
C29_44 C 0.4297(7) 0.1659(6) 0.5860(6)
H17_44 H 0.4395 0.1602 0.5810
C30_44 C 0.4120(10) 0.1624(5) 0.5799(5)
H18_44 H 0.4098 0.1553 0.5700
C31_44 C 0.3986(6) 0.1699(8) 0.5891(8)
C32_44 C 0.4006(7) 0.1823(6) 0.6015(6)
H19_44 H 0.3909 0.1883 0.6062
C33_44 C 0.4185(9) 0.1862(4) 0.6072(4)
H20_44 H 0.4208 0.1944 0.6163
N9_44 N 0.3818(5) 0.1644(6) 0.5824(6)
C34_44 C 0.3108(5) 0.0258(5) 0.3007(5)
O11_44 O 0.3274(4) 0.0238(3) 0.3009(3)
C35_44 C 0.3036(11) 0.0351(5) 0.3150(7)
C36_44 C 0.2857(11) 0.0377(6) 0.3131(6)
H21_44 H 0.2799 0.0336 0.3029
C37_44 C 0.2761(5) 0.0464(7) 0.3260(11)
H22_44 H 0.2639 0.0481 0.3247
C38_44 C 0.2846(11) 0.0526(4) 0.3410(8)
C39_44 C 0.3025(11) 0.0501(6) 0.3429(6)
H23_44 H 0.3083 0.0543 0.3530
C40_44 C 0.3120(4) 0.0412(7) 0.3301(11)
H24_44 H 0.3241 0.0394 0.3316
N10_44 N 0.2710(8) 0.0676(6) 0.3613(6)
O12_44 O 0.2425(4) 0.1153(4) 0.4254(4)
C41_44 C 0.2371(5) 0.1032(5) 0.4152(5)
O13_44 O 0.2206(5) 0.1022(4) 0.4171(4)
C42_44 C 0.2446(11) 0.0943(6) 0.4008(5)
C43_44 C 0.2622(11) 0.0963(5) 0.3988(7)
H25_44 H 0.2684 0.1039 0.4063
C44_44 C 0.2708(4) 0.0874(9) 0.3860(10)
H26_44 H 0.2830 0.0889 0.3846
C45_44 C 0.2619(12) 0.0764(7) 0.3752(6)
C46_44 C 0.2442(11) 0.0747(5) 0.3770(7)
H27_44 H 0.2379 0.0674 0.3692
C47_44 C 0.2357(4) 0.0834(9) 0.3898(10)
H28_44 H 0.2235 0.0820 0.3912
N11_44 N 0.2775(9) 0.0619(6) 0.3557(7)
C48_44 C 0.27165(19) 0.14708(17) 0.47012(15)
C49_44 C 0.2883(3) 0.1598(3) 0.4883(2)
H29_44 H 0.2982 0.1627 0.4951
N13_44 N 0.2733(4) 0.1688(2) 0.4896(2)
C50_44 C 0.2626(3) 0.16067(17) 0.47787(18)
N14_44 N 0.2459(3) 0.1653(2) 0.4741(3)
C51_44 C 0.2390(2) 0.1552(3) 0.4618(3)
H30_44 H 0.2274 0.1580 0.4585
N15_44 N 0.2462(2) 0.1418(3) 0.4535(2)
C52_44 C 0.2629(2) 0.13721(19) 0.45742(16)
N16_44 N 0.2698(3) 0.1236(2) 0.4489(2)
H31_44 H 0.2636 0.1180 0.4411
H32_44 H 0.2806 0.1204 0.4511
O1_45 O 0.8477(3) 0.0766(4) 0.2116(4)
C1_45 C 0.8546(4) 0.0685(4) 0.1990(5)
O2_45 O 0.8667(4) 0.0585(3) 0.2041(4)
C2_45 C 0.8491(7) 0.0723(7) 0.1817(5)
C3_45 C 0.8360(6) 0.0841(6) 0.1797(7)
H1_45 H 0.8310 0.0898 0.1895
C4_45 C 0.8299(5) 0.0876(5) 0.1620(10)
H2_45 H 0.8200 0.0947 0.1598
C5_45 C 0.8391(8) 0.0801(8) 0.1486(6)
C6_45 C 0.8515(6) 0.0677(6) 0.1506(7)
H3_45 H 0.8562 0.0617 0.1409
C7_45 C 0.8572(4) 0.0638(4) 0.1685(9)
H4_45 H 0.8663 0.0556 0.1708
N1_45 N 0.8324(6) 0.0856(6) 0.1318(5)
C8_45 C 0.9742(5) 0.1993(5) 0.3108(5)
O4_45 O 0.9762(3) 0.1991(3) 0.3274(4)
C9_45 C 0.9649(5) 0.1850(7) 0.3036(11)
C10_45 C 0.9623(6) 0.1869(6) 0.2857(11)
H5_45 H 0.9664 0.1971 0.2799
C11_45 C 0.9536(7) 0.1740(11) 0.2761(5)
H6_45 H 0.9519 0.1753 0.2639
C12_45 C 0.9474(4) 0.1590(8) 0.2846(11)
C13_45 C 0.9499(6) 0.1571(6) 0.3025(11)
H7_45 H 0.9457 0.1470 0.3083
C14_45 C 0.9588(7) 0.1699(11) 0.3120(4)
H8_45 H 0.9606 0.1684 0.3241
N2_45 N 0.9324(6) 0.1387(6) 0.2710(8)
O5_45 O 0.8847(4) 0.0746(4) 0.2425(4)
C15_45 C 0.8968(5) 0.0848(5) 0.2371(5)
O6_45 O 0.8978(4) 0.0829(4) 0.2206(5)
C16_45 C 0.9057(6) 0.0992(5) 0.2446(11)
C17_45 C 0.9037(5) 0.1012(7) 0.2622(11)
H9_45 H 0.8961 0.0937 0.2684
C18_45 C 0.9126(9) 0.1140(10) 0.2708(4)
H10_45 H 0.9111 0.1154 0.2830
C19_45 C 0.9236(7) 0.1248(6) 0.2619(12)
C20_45 C 0.9253(5) 0.1230(7) 0.2442(11)
H11_45 H 0.9326 0.1308 0.2379
C21_45 C 0.9166(9) 0.1102(10) 0.2357(4)
H12_45 H 0.9180 0.1088 0.2235
N3_45 N 0.9381(6) 0.1443(7) 0.2775(9)
C22_45 C 0.85292(17) 0.02988(15) 0.27165(19)
C23_45 C 0.8402(3) 0.0117(2) 0.2883(3)
H13_45 H 0.8373 0.0049 0.2982
N5_45 N 0.8312(2) 0.0104(2) 0.2733(4)
C24_45 C 0.83933(17) 0.02213(18) 0.2626(3)
N6_45 N 0.8347(2) 0.0259(3) 0.2459(3)
C25_45 C 0.8448(3) 0.0382(3) 0.2390(2)
H14_45 H 0.8420 0.0415 0.2274
N7_45 N 0.8582(3) 0.0465(2) 0.2462(2)
C26_45 C 0.86279(19) 0.04258(16) 0.2629(2)
N8_45 N 0.8764(2) 0.0511(2) 0.2698(3)
H15_45 H 0.8820 0.0589 0.2636
H16_45 H 0.8796 0.0489 0.2806
O7_67 O 0.8012(5) 0.0000 0.2500
O8_45 O 0.8266(4) 0.0977(3) 0.0384(4)
C27_45 C 0.8185(4) 0.1046(4) 0.0510(5)
C28_45 C 0.8223(7) 0.0991(7) 0.0683(5)
C29_45 C 0.8341(6) 0.0860(6) 0.0703(7)
H17_45 H 0.8398 0.0810 0.0605
C30_45 C 0.8376(5) 0.0799(5) 0.0880(10)
H18_45 H 0.8447 0.0700 0.0902
C31_45 C 0.8301(8) 0.0891(8) 0.1014(6)
C32_45 C 0.8177(6) 0.1015(6) 0.0994(7)
H19_45 H 0.8117 0.1062 0.1091
C33_45 C 0.8138(4) 0.1072(4) 0.0815(9)
H20_45 H 0.8056 0.1163 0.0792
N9_45 N 0.8356(6) 0.0824(6) 0.1182(5)
O7_68 O 0.8012(5) 1.0000 0.2500
C34_45 C 0.9742(5) 0.8007(5) 0.1892(5)
O11_45 O 0.9762(3) 0.8009(3) 0.1726(4)
C35_45 C 0.9649(5) 0.8150(7) 0.1964(11)
C36_45 C 0.9623(6) 0.8131(6) 0.2143(11)
H21_45 H 0.9664 0.8029 0.2201
C37_45 C 0.9536(7) 0.8260(11) 0.2239(5)
H22_45 H 0.9519 0.8247 0.2361
C38_45 C 0.9474(4) 0.8410(8) 0.2154(11)
C39_45 C 0.9499(6) 0.8429(6) 0.1975(11)
H23_45 H 0.9457 0.8530 0.1917
C40_45 C 0.9588(7) 0.8301(11) 0.1880(4)
H24_45 H 0.9606 0.8316 0.1759
N10_45 N 0.9324(6) 0.8613(6) 0.2290(8)
O12_45 O 0.8847(4) 0.9254(4) 0.2575(4)
C41_45 C 0.8968(5) 0.9152(5) 0.2629(5)
O13_45 O 0.8978(4) 0.9171(4) 0.2794(5)
C42_45 C 0.9057(6) 0.9008(5) 0.2554(11)
C43_45 C 0.9037(5) 0.8988(7) 0.2378(11)
H25_45 H 0.8961 0.9063 0.2316
C44_45 C 0.9126(9) 0.8860(10) 0.2292(4)
H26_45 H 0.9111 0.8846 0.2170
C45_45 C 0.9236(7) 0.8752(6) 0.2381(12)
C46_45 C 0.9253(5) 0.8770(7) 0.2558(11)
H27_45 H 0.9326 0.8692 0.2621
C47_45 C 0.9166(9) 0.8898(10) 0.2643(4)
H28_45 H 0.9180 0.8912 0.2765
N11_45 N 0.9381(6) 0.8557(7) 0.2225(9)
C48_45 C 0.85292(17) 0.97012(15) 0.22835(19)
C49_45 C 0.8402(3) 0.9883(2) 0.2117(3)
H29_45 H 0.8373 0.9951 0.2018
N13_45 N 0.8312(2) 0.9896(2) 0.2267(4)
C50_45 C 0.83933(17) 0.97787(18) 0.2374(3)
N14_45 N 0.8347(2) 0.9741(3) 0.2541(3)
C51_45 C 0.8448(3) 0.9618(3) 0.2610(2)
H30_45 H 0.8420 0.9585 0.2726
N15_45 N 0.8582(3) 0.9535(2) 0.2538(2)
C52_45 C 0.86279(19) 0.95742(16) 0.2371(2)
N16_45 N 0.8764(2) 0.9489(2) 0.2302(3)
H31_45 H 0.8820 0.9411 0.2364
H32_45 H 0.8796 0.9511 0.2194
O1_46 O 0.3477(3) 0.4234(4) 0.7884(4)
C1_46 C 0.3546(4) 0.4315(4) 0.8010(5)
O2_46 O 0.3667(4) 0.4415(3) 0.7959(4)
C2_46 C 0.3491(7) 0.4277(7) 0.8183(5)
C3_46 C 0.3360(6) 0.4159(6) 0.8203(7)
H1_46 H 0.3310 0.4102 0.8105
C4_46 C 0.3299(5) 0.4124(5) 0.8380(10)
H2_46 H 0.3200 0.4053 0.8402
C5_46 C 0.3391(8) 0.4199(8) 0.8514(6)
C6_46 C 0.3515(6) 0.4323(6) 0.8494(7)
H3_46 H 0.3562 0.4383 0.8591
C7_46 C 0.3572(4) 0.4362(4) 0.8315(9)
H4_46 H 0.3663 0.4444 0.8292
N1_46 N 0.3324(6) 0.4144(6) 0.8682(5)
C8_46 C 0.4742(5) 0.3007(5) 0.6892(5)
O4_46 O 0.4762(3) 0.3009(3) 0.6726(4)
C9_46 C 0.4649(5) 0.3150(7) 0.6964(11)
C10_46 C 0.4623(6) 0.3131(6) 0.7143(11)
H5_46 H 0.4664 0.3029 0.7201
C11_46 C 0.4536(7) 0.3260(11) 0.7239(5)
H6_46 H 0.4519 0.3247 0.7361
C12_46 C 0.4474(4) 0.3410(8) 0.7154(11)
C13_46 C 0.4499(6) 0.3429(6) 0.6975(11)
H7_46 H 0.4457 0.3530 0.6917
C14_46 C 0.4588(7) 0.3301(11) 0.6880(4)
H8_46 H 0.4606 0.3316 0.6759
N2_46 N 0.4324(6) 0.3613(6) 0.7290(8)
O5_46 O 0.3847(4) 0.4254(4) 0.7575(4)
C15_46 C 0.3968(5) 0.4152(5) 0.7629(5)
O6_46 O 0.3978(4) 0.4171(4) 0.7794(5)
C16_46 C 0.4057(6) 0.4008(5) 0.7554(11)
C17_46 C 0.4037(5) 0.3988(7) 0.7378(11)
H9_46 H 0.3961 0.4063 0.7316
C18_46 C 0.4126(9) 0.3860(10) 0.7292(4)
H10_46 H 0.4111 0.3846 0.7170
C19_46 C 0.4236(7) 0.3752(6) 0.7381(12)
C20_46 C 0.4253(5) 0.3770(7) 0.7558(11)
H11_46 H 0.4326 0.3692 0.7621
C21_46 C 0.4166(9) 0.3898(10) 0.7643(4)
H12_46 H 0.4180 0.3912 0.7765
N3_46 N 0.4381(6) 0.3557(7) 0.7225(9)
C22_46 C 0.35292(17) 0.47012(15) 0.72835(19)
C23_46 C 0.3402(3) 0.4883(2) 0.7117(3)
H13_46 H 0.3373 0.4951 0.7018
N5_46 N 0.3312(2) 0.4896(2) 0.7267(4)
C24_46 C 0.33933(17) 0.47787(18) 0.7374(3)
N6_46 N 0.3347(2) 0.4741(3) 0.7541(3)
C25_46 C 0.3448(3) 0.4618(3) 0.7610(2)
H14_46 H 0.3420 0.4585 0.7726
N7_46 N 0.3582(3) 0.4535(2) 0.7538(2)
C26_46 C 0.36279(19) 0.45742(16) 0.7371(2)
N8_46 N 0.3764(2) 0.4489(2) 0.7302(3)
H15_46 H 0.3820 0.4411 0.7364
H16_46 H 0.3796 0.4511 0.7194
O7_69 O 0.3012(5) 0.5000 0.7500
O8_46 O 0.3266(4) 0.4023(3) 0.9616(4)
C27_46 C 0.3185(4) 0.3954(4) 0.9490(5)
C28_46 C 0.3223(7) 0.4009(7) 0.9317(5)
C29_46 C 0.3341(6) 0.4140(6) 0.9297(7)
H17_46 H 0.3398 0.4190 0.9395
C30_46 C 0.3376(5) 0.4201(5) 0.9120(10)
H18_46 H 0.3447 0.4300 0.9098
C31_46 C 0.3301(8) 0.4109(8) 0.8986(6)
C32_46 C 0.3177(6) 0.3985(6) 0.9006(7)
H19_46 H 0.3117 0.3938 0.8909
C33_46 C 0.3138(4) 0.3928(4) 0.9185(9)
H20_46 H 0.3056 0.3837 0.9208
N9_46 N 0.3356(6) 0.4176(6) 0.8818(5)
C34_46 C 0.4742(5) 0.6993(5) 0.8108(5)
O11_46 O 0.4762(3) 0.6991(3) 0.8274(4)
C35_46 C 0.4649(5) 0.6850(7) 0.8036(11)
C36_46 C 0.4623(6) 0.6869(6) 0.7857(11)
H21_46 H 0.4664 0.6971 0.7799
C37_46 C 0.4536(7) 0.6740(11) 0.7761(5)
H22_46 H 0.4519 0.6753 0.7639
C38_46 C 0.4474(4) 0.6590(8) 0.7846(11)
C39_46 C 0.4499(6) 0.6571(6) 0.8025(11)
H23_46 H 0.4457 0.6470 0.8083
C40_46 C 0.4588(7) 0.6699(11) 0.8120(4)
H24_46 H 0.4606 0.6684 0.8241
N10_46 N 0.4324(6) 0.6387(6) 0.7710(8)
O12_46 O 0.3847(4) 0.5746(4) 0.7425(4)
C41_46 C 0.3968(5) 0.5848(5) 0.7371(5)
O13_46 O 0.3978(4) 0.5829(4) 0.7206(5)
C42_46 C 0.4057(6) 0.5992(5) 0.7446(11)
C43_46 C 0.4037(5) 0.6012(7) 0.7622(11)
H25_46 H 0.3961 0.5937 0.7684
C44_46 C 0.4126(9) 0.6140(10) 0.7708(4)
H26_46 H 0.4111 0.6154 0.7830
C45_46 C 0.4236(7) 0.6248(6) 0.7619(12)
C46_46 C 0.4253(5) 0.6230(7) 0.7442(11)
H27_46 H 0.4326 0.6308 0.7379
C47_46 C 0.4166(9) 0.6102(10) 0.7357(4)
H28_46 H 0.4180 0.6088 0.7235
N11_46 N 0.4381(6) 0.6443(7) 0.7775(9)
C48_46 C 0.35292(17) 0.52988(15) 0.77165(19)
C49_46 C 0.3402(3) 0.5117(2) 0.7883(3)
H29_46 H 0.3373 0.5049 0.7982
N13_46 N 0.3312(2) 0.5104(2) 0.7733(4)
C50_46 C 0.33933(17) 0.52213(18) 0.7626(3)
N14_46 N 0.3347(2) 0.5259(3) 0.7459(3)
C51_46 C 0.3448(3) 0.5382(3) 0.7390(2)
H30_46 H 0.3420 0.5415 0.7274
N15_46 N 0.3582(3) 0.5465(2) 0.7462(2)
C52_46 C 0.36279(19) 0.54258(16) 0.7629(2)
N16_46 N 0.3764(2) 0.5511(2) 0.7698(3)
H31_46 H 0.3820 0.5589 0.7636
H32_46 H 0.3796 0.5489 0.7806
O1_47 O 0.1523(3) 0.5766(4) 0.2884(4)
C1_47 C 0.1454(4) 0.5685(4) 0.3010(5)
O2_47 O 0.1333(4) 0.5585(3) 0.2959(4)
C2_47 C 0.1509(7) 0.5723(7) 0.3183(5)
C3_47 C 0.1640(6) 0.5841(6) 0.3203(7)
H1_47 H 0.1690 0.5898 0.3105
C4_47 C 0.1701(5) 0.5876(5) 0.3380(10)
H2_47 H 0.1800 0.5947 0.3402
C5_47 C 0.1609(8) 0.5801(8) 0.3514(6)
C6_47 C 0.1485(6) 0.5677(6) 0.3494(7)
H3_47 H 0.1438 0.5617 0.3591
C7_47 C 0.1428(4) 0.5638(4) 0.3315(9)
H4_47 H 0.1337 0.5556 0.3292
N1_47 N 0.1676(6) 0.5856(6) 0.3682(5)
C8_47 C 0.0258(5) 0.6993(5) 0.1892(5)
O4_47 O 0.0238(3) 0.6991(3) 0.1726(4)
C9_47 C 0.0351(5) 0.6850(7) 0.1964(11)
C10_47 C 0.0377(6) 0.6869(6) 0.2143(11)
H5_47 H 0.0336 0.6971 0.2201
C11_47 C 0.0464(7) 0.6740(11) 0.2239(5)
H6_47 H 0.0481 0.6753 0.2361
C12_47 C 0.0526(4) 0.6590(8) 0.2154(11)
C13_47 C 0.0501(6) 0.6571(6) 0.1975(11)
H7_47 H 0.0543 0.6470 0.1917
C14_47 C 0.0412(7) 0.6699(11) 0.1880(4)
H8_47 H 0.0394 0.6684 0.1759
N2_47 N 0.0676(6) 0.6387(6) 0.2290(8)
O5_47 O 0.1153(4) 0.5746(4) 0.2575(4)
C15_47 C 0.1032(5) 0.5848(5) 0.2629(5)
O6_47 O 0.1022(4) 0.5829(4) 0.2794(5)
C16_47 C 0.0943(6) 0.5992(5) 0.2554(11)
C17_47 C 0.0963(5) 0.6012(7) 0.2378(11)
H9_47 H 0.1039 0.5937 0.2316
C18_47 C 0.0874(9) 0.6140(10) 0.2292(4)
H10_47 H 0.0889 0.6154 0.2170
C19_47 C 0.0764(7) 0.6248(6) 0.2381(12)
C20_47 C 0.0747(5) 0.6230(7) 0.2558(11)
H11_47 H 0.0674 0.6308 0.2621
C21_47 C 0.0834(9) 0.6102(10) 0.2643(4)
H12_47 H 0.0820 0.6088 0.2765
N3_47 N 0.0619(6) 0.6443(7) 0.2225(9)
C22_47 C 0.14708(17) 0.52988(15) 0.22835(19)
C23_47 C 0.1598(3) 0.5117(2) 0.2117(3)
H13_47 H 0.1627 0.5049 0.2018
N5_47 N 0.1688(2) 0.5104(2) 0.2267(4)
C24_47 C 0.16067(17) 0.52213(18) 0.2374(3)
N6_47 N 0.1653(2) 0.5259(3) 0.2541(3)
C25_47 C 0.1552(3) 0.5382(3) 0.2610(2)
H14_47 H 0.1580 0.5415 0.2726
N7_47 N 0.1418(3) 0.5465(2) 0.2538(2)
C26_47 C 0.13721(19) 0.54258(16) 0.2371(2)
N8_47 N 0.1236(2) 0.5511(2) 0.2302(3)
H15_47 H 0.1180 0.5589 0.2364
H16_47 H 0.1204 0.5489 0.2194
O7_70 O 0.1988(5) 0.5000 0.2500
O8_47 O 0.1734(4) 0.5977(3) 0.4616(4)
C27_47 C 0.1815(4) 0.6046(4) 0.4490(5)
C28_47 C 0.1777(7) 0.5991(7) 0.4317(5)
C29_47 C 0.1659(6) 0.5860(6) 0.4297(7)
H17_47 H 0.1602 0.5810 0.4395
C30_47 C 0.1624(5) 0.5799(5) 0.4120(10)
H18_47 H 0.1553 0.5700 0.4098
C31_47 C 0.1699(8) 0.5891(8) 0.3986(6)
C32_47 C 0.1823(6) 0.6015(6) 0.4006(7)
H19_47 H 0.1883 0.6062 0.3909
C33_47 C 0.1862(4) 0.6072(4) 0.4185(9)
H20_47 H 0.1944 0.6163 0.4208
N9_47 N 0.1644(6) 0.5824(6) 0.3818(5)
C34_47 C 0.0258(5) 0.3007(5) 0.3108(5)
O11_47 O 0.0238(3) 0.3009(3) 0.3274(4)
C35_47 C 0.0351(5) 0.3150(7) 0.3036(11)
C36_47 C 0.0377(6) 0.3131(6) 0.2857(11)
H21_47 H 0.0336 0.3029 0.2799
C37_47 C 0.0464(7) 0.3260(11) 0.2761(5)
H22_47 H 0.0481 0.3247 0.2639
C38_47 C 0.0526(4) 0.3410(8) 0.2846(11)
C39_47 C 0.0501(6) 0.3429(6) 0.3025(11)
H23_47 H 0.0543 0.3530 0.3083
C40_47 C 0.0412(7) 0.3301(11) 0.3120(4)
H24_47 H 0.0394 0.3316 0.3241
N10_47 N 0.0676(6) 0.3613(6) 0.2710(8)
O12_47 O 0.1153(4) 0.4254(4) 0.2425(4)
C41_47 C 0.1032(5) 0.4152(5) 0.2371(5)
O13_47 O 0.1022(4) 0.4171(4) 0.2206(5)
C42_47 C 0.0943(6) 0.4008(5) 0.2446(11)
C43_47 C 0.0963(5) 0.3988(7) 0.2622(11)
H25_47 H 0.1039 0.4063 0.2684
C44_47 C 0.0874(9) 0.3860(10) 0.2708(4)
H26_47 H 0.0889 0.3846 0.2830
C45_47 C 0.0764(7) 0.3752(6) 0.2619(12)
C46_47 C 0.0747(5) 0.3770(7) 0.2442(11)
H27_47 H 0.0674 0.3692 0.2379
C47_47 C 0.0834(9) 0.3898(10) 0.2357(4)
H28_47 H 0.0820 0.3912 0.2235
N11_47 N 0.0619(6) 0.3557(7) 0.2775(9)
C48_47 C 0.14708(17) 0.47012(15) 0.27165(19)
C49_47 C 0.1598(3) 0.4883(2) 0.2883(3)
H29_47 H 0.1627 0.4951 0.2982
N13_47 N 0.1688(2) 0.4896(2) 0.2733(4)
C50_47 C 0.16067(17) 0.47787(18) 0.2626(3)
N14_47 N 0.1653(2) 0.4741(3) 0.2459(3)
C51_47 C 0.1552(3) 0.4618(3) 0.2390(2)
H30_47 H 0.1580 0.4585 0.2274
N15_47 N 0.1418(3) 0.4535(2) 0.2462(2)
C52_47 C 0.13721(19) 0.45742(16) 0.2629(2)
N16_47 N 0.1236(2) 0.4489(2) 0.2698(3)
H31_47 H 0.1180 0.4411 0.2636
H32_47 H 0.1204 0.4511 0.2806
O7_71 O 0.6988(5) 0.0000 0.7500
C34_48 C 0.5258(5) 0.1993(5) 0.6892(5)
O11_48 O 0.5238(3) 0.1991(3) 0.6726(4)
C35_48 C 0.5351(5) 0.1850(7) 0.6964(11)
C36_48 C 0.5377(6) 0.1869(6) 0.7143(11)
H21_48 H 0.5336 0.1971 0.7201
C37_48 C 0.5464(7) 0.1740(11) 0.7239(5)
H22_48 H 0.5481 0.1753 0.7361
C38_48 C 0.5526(4) 0.1590(8) 0.7154(11)
C39_48 C 0.5501(6) 0.1571(6) 0.6975(11)
H23_48 H 0.5543 0.1470 0.6917
C40_48 C 0.5412(7) 0.1699(11) 0.6880(4)
H24_48 H 0.5394 0.1684 0.6759
N10_48 N 0.5676(6) 0.1387(6) 0.7290(8)
O12_48 O 0.6153(4) 0.0746(4) 0.7575(4)
C41_48 C 0.6032(5) 0.0848(5) 0.7629(5)
O13_48 O 0.6022(4) 0.0829(4) 0.7794(5)
C42_48 C 0.5943(6) 0.0992(5) 0.7554(11)
C43_48 C 0.5963(5) 0.1012(7) 0.7378(11)
H25_48 H 0.6039 0.0937 0.7316
C44_48 C 0.5874(9) 0.1140(10) 0.7292(4)
H26_48 H 0.5889 0.1154 0.7170
C45_48 C 0.5764(7) 0.1248(6) 0.7381(12)
C46_48 C 0.5747(5) 0.1230(7) 0.7558(11)
H27_48 H 0.5674 0.1308 0.7621
C47_48 C 0.5834(9) 0.1102(10) 0.7643(4)
H28_48 H 0.5820 0.1088 0.7765
N11_48 N 0.5619(6) 0.1443(7) 0.7225(9)
C48_48 C 0.64708(17) 0.02988(15) 0.72835(19)
C49_48 C 0.6598(3) 0.0117(2) 0.7117(3)
H29_48 H 0.6627 0.0049 0.7018
N13_48 N 0.6688(2) 0.0104(2) 0.7267(4)
C50_48 C 0.66067(17) 0.02213(18) 0.7374(3)
N14_48 N 0.6653(2) 0.0259(3) 0.7541(3)
C51_48 C 0.6552(3) 0.0382(3) 0.7610(2)
H30_48 H 0.6580 0.0415 0.7726
N15_48 N 0.6418(3) 0.0465(2) 0.7538(2)
C52_48 C 0.63721(19) 0.04258(16) 0.7371(2)
N16_48 N 0.6236(2) 0.0511(2) 0.7302(3)
H31_48 H 0.6180 0.0589 0.7364
H32_48 H 0.6204 0.0489 0.7194
O1_48 O 0.6523(3) 0.9234(4) 0.7116(4)
C1_48 C 0.6454(4) 0.9315(4) 0.6990(5)
O2_48 O 0.6333(4) 0.9415(3) 0.7041(4)
C2_48 C 0.6509(7) 0.9277(7) 0.6817(5)
C3_48 C 0.6640(6) 0.9159(6) 0.6797(7)
H1_48 H 0.6690 0.9102 0.6895
C4_48 C 0.6701(5) 0.9124(5) 0.6620(10)
H2_48 H 0.6800 0.9053 0.6598
C5_48 C 0.6609(8) 0.9199(8) 0.6486(6)
C6_48 C 0.6485(6) 0.9323(6) 0.6506(7)
H3_48 H 0.6438 0.9383 0.6409
C7_48 C 0.6428(4) 0.9362(4) 0.6685(9)
H4_48 H 0.6337 0.9444 0.6708
N1_48 N 0.6676(6) 0.9144(6) 0.6318(5)
C8_48 C 0.5258(5) 0.8007(5) 0.8108(5)
O4_48 O 0.5238(3) 0.8009(3) 0.8274(4)
C9_48 C 0.5351(5) 0.8150(7) 0.8036(11)
C10_48 C 0.5377(6) 0.8131(6) 0.7857(11)
H5_48 H 0.5336 0.8029 0.7799
C11_48 C 0.5464(7) 0.8260(11) 0.7761(5)
H6_48 H 0.5481 0.8247 0.7639
C12_48 C 0.5526(4) 0.8410(8) 0.7846(11)
C13_48 C 0.5501(6) 0.8429(6) 0.8025(11)
H7_48 H 0.5543 0.8530 0.8083
C14_48 C 0.5412(7) 0.8301(11) 0.8120(4)
H8_48 H 0.5394 0.8316 0.8241
N2_48 N 0.5676(6) 0.8613(6) 0.7710(8)
O5_48 O 0.6153(4) 0.9254(4) 0.7425(4)
C15_48 C 0.6032(5) 0.9152(5) 0.7371(5)
O6_48 O 0.6022(4) 0.9171(4) 0.7206(5)
C16_48 C 0.5943(6) 0.9008(5) 0.7446(11)
C17_48 C 0.5963(5) 0.8988(7) 0.7622(11)
H9_48 H 0.6039 0.9063 0.7684
C18_48 C 0.5874(9) 0.8860(10) 0.7708(4)
H10_48 H 0.5889 0.8846 0.7830
C19_48 C 0.5764(7) 0.8752(6) 0.7619(12)
C20_48 C 0.5747(5) 0.8770(7) 0.7442(11)
H11_48 H 0.5674 0.8692 0.7379
C21_48 C 0.5834(9) 0.8898(10) 0.7357(4)
H12_48 H 0.5820 0.8912 0.7235
N3_48 N 0.5619(6) 0.8557(7) 0.7775(9)
C22_48 C 0.64708(17) 0.97012(15) 0.77165(19)
C23_48 C 0.6598(3) 0.9883(2) 0.7883(3)
H13_48 H 0.6627 0.9951 0.7982
N5_48 N 0.6688(2) 0.9896(2) 0.7733(4)
C24_48 C 0.66067(17) 0.97787(18) 0.7626(3)
N6_48 N 0.6653(2) 0.9741(3) 0.7459(3)
C25_48 C 0.6552(3) 0.9618(3) 0.7390(2)
H14_48 H 0.6580 0.9585 0.7274
N7_48 N 0.6418(3) 0.9535(2) 0.7462(2)
C26_48 C 0.63721(19) 0.95742(16) 0.7629(2)
N8_48 N 0.6236(2) 0.9489(2) 0.7698(3)
H15_48 H 0.6180 0.9411 0.7636
H16_48 H 0.6204 0.9511 0.7806
O7_72 O 0.6988(5) 1.0000 0.7500
O8_48 O 0.6734(4) 0.9023(3) 0.5384(4)
C27_48 C 0.6815(4) 0.8954(4) 0.5510(5)
C28_48 C 0.6777(7) 0.9009(7) 0.5683(5)
C29_48 C 0.6659(6) 0.9140(6) 0.5703(7)
H17_48 H 0.6602 0.9190 0.5605
C30_48 C 0.6624(5) 0.9201(5) 0.5880(10)
H18_48 H 0.6553 0.9300 0.5902
C31_48 C 0.6699(8) 0.9109(8) 0.6014(6)
C32_48 C 0.6823(6) 0.8985(6) 0.5994(7)
H19_48 H 0.6883 0.8938 0.6091
C33_48 C 0.6862(4) 0.8928(4) 0.5815(9)
H20_48 H 0.6944 0.8837 0.5792
N9_48 N 0.6644(6) 0.9176(6) 0.6182(5)
loop_
_geom_bond_atom_site_label_1
_geom_bond_atom_site_label_2
_geom_bond_site_symmetry_1
_geom_bond_site_symmetry_2
O1 C1 1_555 1_555
C1 O2 1_555 1_555
O2 Zn1 1_555 1_555
C2 C1 1_555 1_555
C3 C2 1_555 1_555
H1 C3 1_555 1_555
C4 C3 1_555 1_555
H2 C4 1_555 1_555
C5 C4 1_555 1_555
C6 C5 1_555 1_555
H3 C6 1_555 1_555
C7 C2 1_555 1_555
H4 C7 1_555 1_555
N1 C5 1_555 1_555
O3 C8 1_555 1_555
C8 O4 1_555 1_555
C9 C8 1_555 1_555
C10 C9 1_555 1_555
H5 C10 1_555 1_555
C11 C10 1_555 1_555
H6 C11 1_555 1_555
C12 C11 1_555 1_555
C13 C12 1_555 1_555
H7 C13 1_555 1_555
C14 C9 1_555 1_555
H8 C14 1_555 1_555
N2 C19 1_555 1_555
O5 C15 1_555 1_555
C15 O6 1_555 1_555
C16 C15 1_555 1_555
C17 C16 1_555 1_555
H9 C17 1_555 1_555
C18 C17 1_555 1_555
H10 C18 1_555 1_555
C19 C18 1_555 1_555
C20 C19 1_555 1_555
H11 C20 1_555 1_555
C21 C16 1_555 1_555
H12 C21 1_555 1_555
N3 C12 1_555 1_555
C22 N4 1_555 1_555
N4 C23 1_555 1_555
C23 H13 1_555 1_555
N5 C23 1_555 1_555
C24 C22 1_555 1_555
N6 C24 1_555 1_555
C25 N6 1_555 1_555
H14 C25 1_555 1_555
N7 C25 1_555 1_555
C26 C22 1_555 1_555
N8 C26 1_555 1_555
H15 N8 1_555 1_555
H16 N8 1_555 1_555
Zn1 O5 1_555 1_555
Zn2 N6 1_555 1_555
O7 Zn2 1_555 1_555
O8 C27 1_555 1_555
C27 O9 1_555 1_555
O9 Zn5 1_555 1_555
C28 C27 1_555 1_555
C29 C28 1_555 1_555
H17 C29 1_555 1_555
C30 C29 1_555 1_555
H18 C30 1_555 1_555
C31 C30 1_555 1_555
C32 C31 1_555 1_555
H19 C32 1_555 1_555
C33 C28 1_555 1_555
H20 C33 1_555 1_555
N9 N1 1_555 1_555
O10 C34 1_555 1_555
C34 O11 1_555 1_555
C35 C34 1_555 1_555
C36 C35 1_555 1_555
H21 C36 1_555 1_555
C37 C36 1_555 1_555
H22 C37 1_555 1_555
C38 C37 1_555 1_555
C39 C38 1_555 1_555
H23 C39 1_555 1_555
C40 C35 1_555 1_555
H24 C40 1_555 1_555
N10 C45 1_555 1_555
O12 C41 1_555 1_555
C41 O13 1_555 1_555
C42 C41 1_555 1_555
C43 C42 1_555 1_555
H25 C43 1_555 1_555
C44 C43 1_555 1_555
H26 C44 1_555 1_555
C45 C44 1_555 1_555
C46 C45 1_555 1_555
H27 C46 1_555 1_555
C47 C42 1_555 1_555
H28 C47 1_555 1_555
N11 C38 1_555 1_555
C48 N12 1_555 1_555
N12 C49 1_555 1_555
C49 H29 1_555 1_555
N13 Zn2 1_555 1_555
C50 C48 1_555 1_555
N14 C50 1_555 1_555
C51 N14 1_555 1_555
H30 C51 1_555 1_555
N15 C51 1_555 1_555
C52 C48 1_555 1_555
N16 C52 1_555 1_555
H31 N16 1_555 1_555
H32 N16 1_555 1_555
Zn3 O12 1_555 1_555
Zn4 N5 1_555 1_555
O14 Zn3 1_555 1_555
O15 Zn2 1_555 1_555
O16 Zn4 1_555 1_555
N17 Zn1 1_555 1_555
N18 Zn3 1_555 1_555
Zn6 N12 1_555 1_555
Zn7 N4 1_555 1_555
Zn8 O3 1_555 1_555
Zn9 O10 1_555 1_555
C6 C7 1_555 1_555
C13 C14 1_555 1_555
N2 N3 1_555 1_555
C20 C21 1_555 1_555
N5 C24 1_555 1_555
N7 C26 1_555 1_555
N7 Zn1 1_555 1_555
O7 Zn4 1_555 1_555
C31 N9 1_555 1_555
C32 C33 1_555 1_555
C39 C40 1_555 1_555
N10 N11 1_555 1_555
C46 C47 1_555 1_555
C49 N13 1_555 1_555
N13 C50 1_555 1_555
N14 Zn4 1_555 1_555
N15 C52 1_555 1_555
N15 Zn3 1_555 1_555
O1_2 C1_2 1_555 1_555
C1_2 O2_2 1_555 1_555
O2_2 Zn1_2 1_555 1_555
C2_2 C1_2 1_555 1_555
C3_2 C2_2 1_555 1_555
H1_2 C3_2 1_555 1_555
C4_2 C3_2 1_555 1_555
H2_2 C4_2 1_555 1_555
C5_2 C4_2 1_555 1_555
C6_2 C5_2 1_555 1_555
H3_2 C6_2 1_555 1_555
C7_2 C2_2 1_555 1_555
H4_2 C7_2 1_555 1_555
N1_2 C5_2 1_555 1_555
O5_2 C15_2 1_555 1_555
C15_2 O6_2 1_555 1_555
C16_2 C15_2 1_555 1_555
H11_2 C20_2 1_555 1_555
C21_2 C16_2 1_555 1_555
H12_2 C21_2 1_555 1_555
C25_2 N6_2 1_555 1_555
H14_2 C25_2 1_555 1_555
N7_2 C25_2 1_555 1_555
Zn1_2 O5_2 1_555 1_555
Zn2_2 N6_2 1_555 1_555
O7_2 Zn2_2 1_555 1_555
O8_2 C27_2 1_555 1_555
C27_2 O9_2 1_555 1_555
O9_2 Zn5_2 1_555 1_555
C28_2 C27_2 1_555 1_555
C29_2 C28_2 1_555 1_555
H17_2 C29_2 1_555 1_555
C30_2 C29_2 1_555 1_555
H18_2 C30_2 1_555 1_555
C31_2 C30_2 1_555 1_555
C32_2 C31_2 1_555 1_555
H19_2 C32_2 1_555 1_555
C33_2 C28_2 1_555 1_555
H20_2 C33_2 1_555 1_555
N9_2 N1_2 1_555 1_555
O10_2 C34_2 1_555 1_555
C34_2 O11_2 1_555 1_555
C35_2 C34_2 1_555 1_555
C36_2 C35_2 1_555 1_555
H21_2 C36_2 1_555 1_555
C37_2 C36_2 1_555 1_555
H22_2 C37_2 1_555 1_555
C38_2 C37_2 1_555 1_555
C39_2 C38_2 1_555 1_555
H23_2 C39_2 1_555 1_555
C40_2 C35_2 1_555 1_555
H24_2 C40_2 1_555 1_555
N10_2 C45_2 1_555 1_555
H25_2 C43_2 1_555 1_555
C44_2 C43_2 1_555 1_555
H26_2 C44_2 1_555 1_555
C45_2 C44_2 1_555 1_555
N11_2 C38_2 1_555 1_555
C48_2 N12_2 1_555 1_555
N12_2 C49_2 1_555 1_555
C49_2 H29_2 1_555 1_555
N13_2 Zn2_2 1_555 1_555
C50_2 C48_2 1_555 1_555
C52_2 C48_2 1_555 1_555
N16_2 C52_2 1_555 1_555
H31_2 N16_2 1_555 1_555
H32_2 N16_2 1_555 1_555
O15_2 Zn2_2 1_555 1_555
N17_2 Zn1_2 1_555 1_555
Zn6_2 N12_2 1_555 1_555
Zn9_2 O10_2 1_555 1_555
C6_2 C7_2 1_555 1_555
C20_2 C21_2 1_555 1_555
N7_2 Zn1_2 1_555 1_555
C31_2 N9_2 1_555 1_555
C32_2 C33_2 1_555 1_555
C39_2 C40_2 1_555 1_555
N10_2 N11_2 1_555 1_555
C49_2 N13_2 1_555 1_555
N13_2 C50_2 1_555 1_555
O3_2 C8_2 1_555 1_555
C8_2 O4_2 1_555 1_555
C9_2 C8_2 1_555 1_555
C10_2 C9_2 1_555 1_555
H5_2 C10_2 1_555 1_555
C11_2 C10_2 1_555 1_555
H6_2 C11_2 1_555 1_555
C12_2 C11_2 1_555 1_555
C13_2 C12_2 1_555 1_555
H7_2 C13_2 1_555 1_555
C14_2 C9_2 1_555 1_555
H8_2 C14_2 1_555 1_555
N2_2 C19_2 1_555 1_555
H9_2 C17_2 1_555 1_555
C18_2 C17_2 1_555 1_555
H10_2 C18_2 1_555 1_555
C19_2 C18_2 1_555 1_555
N3_2 C12_2 1_555 1_555
C22_2 N4_2 1_555 1_555
N4_2 C23_2 1_555 1_555
C23_2 H13_2 1_555 1_555
N5_2 C23_2 1_555 1_555
C24_2 C22_2 1_555 1_555
C26_2 C22_2 1_555 1_555
N8_2 C26_2 1_555 1_555
H15_2 N8_2 1_555 1_555
H16_2 N8_2 1_555 1_555
O12_2 C41_2 1_555 1_555
C41_2 O13_2 1_555 1_555
C42_2 C41_2 1_555 1_555
H27_2 C46_2 1_555 1_555
C47_2 C42_2 1_555 1_555
H28_2 C47_2 1_555 1_555
C51_2 N14_2 1_555 1_555
H30_2 C51_2 1_555 1_555
N15_2 C51_2 1_555 1_555
Zn3_2 O12_2 1_555 1_555
Zn4_2 N5_2 1_555 1_555
O14_2 Zn3_2 1_555 1_555
O16_2 Zn4_2 1_555 1_555
N18_2 Zn3_2 1_555 1_555
Zn7_2 N4_2 1_555 1_555
Zn8_2 O3_2 1_555 1_555
C13_2 C14_2 1_555 1_555
N2_2 N3_2 1_555 1_555
N5_2 C24_2 1_555 1_555
O7_3 Zn4_2 1_555 1_555
C46_2 C47_2 1_555 1_555
N14_2 Zn4_2 1_555 1_555
N15_2 Zn3_2 1_555 1_555
O1_3 C1_3 1_555 1_555
C1_3 O2_3 1_555 1_555
O2_3 Zn1_3 1_555 1_555
C2_3 C1_3 1_555 1_555
C3_3 C2_3 1_555 1_555
H1_3 C3_3 1_555 1_555
C4_3 C3_3 1_555 1_555
H2_3 C4_3 1_555 1_555
C5_3 C4_3 1_555 1_555
C6_3 C5_3 1_555 1_555
H3_3 C6_3 1_555 1_555
C7_3 C2_3 1_555 1_555
H4_3 C7_3 1_555 1_555
N1_3 C5_3 1_555 1_555
O3_3 C8_3 1_555 1_555
C8_3 O4_3 1_555 1_555
C9_3 C8_3 1_555 1_555
C10_3 C9_3 1_555 1_555
H5_3 C10_3 1_555 1_555
C11_3 C10_3 1_555 1_555
H6_3 C11_3 1_555 1_555
C12_3 C11_3 1_555 1_555
C13_3 C12_3 1_555 1_555
H7_3 C13_3 1_555 1_555
C14_3 C9_3 1_555 1_555
H8_3 C14_3 1_555 1_555
N2_3 C19_3 1_555 1_555
O5_3 C15_3 1_555 1_555
C15_3 O6_3 1_555 1_555
C16_3 C15_3 1_555 1_555
C17_3 C16_3 1_555 1_555
H9_3 C17_3 1_555 1_555
C18_3 C17_3 1_555 1_555
H10_3 C18_3 1_555 1_555
C19_3 C18_3 1_555 1_555
C20_3 C19_3 1_555 1_555
H11_3 C20_3 1_555 1_555
C21_3 C16_3 1_555 1_555
H12_3 C21_3 1_555 1_555
N3_3 C12_3 1_555 1_555
C22_3 N4_3 1_555 1_555
N4_3 C23_3 1_555 1_555
C23_3 H13_3 1_555 1_555
N5_3 C23_3 1_555 1_555
C24_3 C22_3 1_555 1_555
N6_3 C24_3 1_555 1_555
C25_3 N6_3 1_555 1_555
H14_3 C25_3 1_555 1_555
N7_3 C25_3 1_555 1_555
C26_3 C22_3 1_555 1_555
N8_3 C26_3 1_555 1_555
H15_3 N8_3 1_555 1_555
H16_3 N8_3 1_555 1_555
Zn1_3 O5_3 1_555 1_555
Zn2_3 N6_3 1_555 1_555
O7_4 Zn2_3 1_555 1_555
O8_3 C27_3 1_555 1_555
C27_3 O9_3 1_555 1_555
O9_3 Zn5_3 1_555 1_555
C28_3 C27_3 1_555 1_555
C29_3 C28_3 1_555 1_555
H17_3 C29_3 1_555 1_555
C30_3 C29_3 1_555 1_555
H18_3 C30_3 1_555 1_555
C31_3 C30_3 1_555 1_555
C32_3 C31_3 1_555 1_555
H19_3 C32_3 1_555 1_555
C33_3 C28_3 1_555 1_555
H20_3 C33_3 1_555 1_555
N9_3 N1_3 1_555 1_555
O10_3 C34_3 1_555 1_555
C34_3 O11_3 1_555 1_555
C35_3 C34_3 1_555 1_555
C36_3 C35_3 1_555 1_555
H21_3 C36_3 1_555 1_555
C37_3 C36_3 1_555 1_555
H22_3 C37_3 1_555 1_555
C38_3 C37_3 1_555 1_555
C39_3 C38_3 1_555 1_555
H23_3 C39_3 1_555 1_555
C40_3 C35_3 1_555 1_555
H24_3 C40_3 1_555 1_555
N10_3 C45_3 1_555 1_555
O12_3 C41_3 1_555 1_555
C41_3 O13_3 1_555 1_555
C42_3 C41_3 1_555 1_555
C43_3 C42_3 1_555 1_555
H25_3 C43_3 1_555 1_555
C44_3 C43_3 1_555 1_555
H26_3 C44_3 1_555 1_555
C45_3 C44_3 1_555 1_555
C46_3 C45_3 1_555 1_555
H27_3 C46_3 1_555 1_555
C47_3 C42_3 1_555 1_555
H28_3 C47_3 1_555 1_555
N11_3 C38_3 1_555 1_555
C48_3 N12_3 1_555 1_555
N12_3 C49_3 1_555 1_555
C49_3 H29_3 1_555 1_555
N13_3 Zn2_3 1_555 1_555
C50_3 C48_3 1_555 1_555
N14_3 C50_3 1_555 1_555
C51_3 N14_3 1_555 1_555
H30_3 C51_3 1_555 1_555
N15_3 C51_3 1_555 1_555
C52_3 C48_3 1_555 1_555
N16_3 C52_3 1_555 1_555
H31_3 N16_3 1_555 1_555
H32_3 N16_3 1_555 1_555
Zn3_3 O12_3 1_555 1_555
Zn4_3 N5_3 1_555 1_555
O14_3 Zn3_3 1_555 1_555
O15_3 Zn2_3 1_555 1_555
O16_3 Zn4_3 1_555 1_555
N17_3 Zn1_3 1_555 1_555
N18_3 Zn3_3 1_555 1_555
Zn6_3 N12_3 1_555 1_555
Zn7_3 N4_3 1_555 1_555
Zn8_3 O3_3 1_555 1_555
Zn9_3 O10_3 1_555 1_555
C6_3 C7_3 1_555 1_555
C13_3 C14_3 1_555 1_555
N2_3 N3_3 1_555 1_555
C20_3 C21_3 1_555 1_555
N5_3 C24_3 1_555 1_555
N7_3 C26_3 1_555 1_555
N7_3 Zn1_3 1_555 1_555
O7_4 Zn4_3 1_555 1_555
C31_3 N9_3 1_555 1_555
C32_3 C33_3 1_555 1_555
C39_3 C40_3 1_555 1_555
N10_3 N11_3 1_555 1_555
C46_3 C47_3 1_555 1_555
C49_3 N13_3 1_555 1_555
N13_3 C50_3 1_555 1_555
N14_3 Zn4_3 1_555 1_555
N15_3 C52_3 1_555 1_555
N15_3 Zn3_3 1_555 1_555
O3_4 C8_4 1_555 1_555
C8_4 O4_4 1_555 1_555
C9_4 C8_4 1_555 1_555
C10_4 C9_4 1_555 1_555
H5_4 C10_4 1_555 1_555
C11_4 C10_4 1_555 1_555
H6_4 C11_4 1_555 1_555
C12_4 C11_4 1_555 1_555
C13_4 C12_4 1_555 1_555
H7_4 C13_4 1_555 1_555
C14_4 C9_4 1_555 1_555
H8_4 C14_4 1_555 1_555
N2_4 C19_4 1_555 1_555
H9_4 C17_4 1_555 1_555
C18_4 C17_4 1_555 1_555
H10_4 C18_4 1_555 1_555
C19_4 C18_4 1_555 1_555
N3_4 C12_4 1_555 1_555
C22_4 N4_4 1_555 1_555
N4_4 C23_4 1_555 1_555
C23_4 H13_4 1_555 1_555
N5_4 C23_4 1_555 1_555
C24_4 C22_4 1_555 1_555
C26_4 C22_4 1_555 1_555
N8_4 C26_4 1_555 1_555
H15_4 N8_4 1_555 1_555
H16_4 N8_4 1_555 1_555
O12_4 C41_4 1_555 1_555
C41_4 O13_4 1_555 1_555
C42_4 C41_4 1_555 1_555
H27_4 C46_4 1_555 1_555
C47_4 C42_4 1_555 1_555
H28_4 C47_4 1_555 1_555
C51_4 N14_4 1_555 1_555
H30_4 C51_4 1_555 1_555
N15_4 C51_4 1_555 1_555
Zn3_4 O12_4 1_555 1_555
Zn4_4 N5_4 1_555 1_555
O14_4 Zn3_4 1_555 1_555
O16_4 Zn4_4 1_555 1_555
N18_4 Zn3_4 1_555 1_555
Zn7_4 N4_4 1_555 1_555
Zn8_4 O3_4 1_555 1_555
C13_4 C14_4 1_555 1_555
N2_4 N3_4 1_555 1_555
N5_4 C24_4 1_555 1_555
O7_5 Zn4_4 1_555 1_555
C46_4 C47_4 1_555 1_555
N14_4 Zn4_4 1_555 1_555
N15_4 Zn3_4 1_555 1_555
O1_4 C1_4 1_555 1_555
C1_4 O2_4 1_555 1_555
O2_4 Zn1_4 1_555 1_555
C2_4 C1_4 1_555 1_555
C3_4 C2_4 1_555 1_555
H1_4 C3_4 1_555 1_555
C4_4 C3_4 1_555 1_555
H2_4 C4_4 1_555 1_555
C5_4 C4_4 1_555 1_555
C6_4 C5_4 1_555 1_555
H3_4 C6_4 1_555 1_555
C7_4 C2_4 1_555 1_555
H4_4 C7_4 1_555 1_555
N1_4 C5_4 1_555 1_555
O5_4 C15_4 1_555 1_555
C15_4 O6_4 1_555 1_555
C16_4 C15_4 1_555 1_555
H11_4 C20_4 1_555 1_555
C21_4 C16_4 1_555 1_555
H12_4 C21_4 1_555 1_555
C25_4 N6_4 1_555 1_555
H14_4 C25_4 1_555 1_555
N7_4 C25_4 1_555 1_555
Zn1_4 O5_4 1_555 1_555
Zn2_4 N6_4 1_555 1_555
O7_6 Zn2_4 1_555 1_555
O8_4 C27_4 1_555 1_555
C27_4 O9_4 1_555 1_555
O9_4 Zn5_4 1_555 1_555
C28_4 C27_4 1_555 1_555
C29_4 C28_4 1_555 1_555
H17_4 C29_4 1_555 1_555
C30_4 C29_4 1_555 1_555
H18_4 C30_4 1_555 1_555
C31_4 C30_4 1_555 1_555
C32_4 C31_4 1_555 1_555
H19_4 C32_4 1_555 1_555
C33_4 C28_4 1_555 1_555
H20_4 C33_4 1_555 1_555
N9_4 N1_4 1_555 1_555
O10_4 C34_4 1_555 1_555
C34_4 O11_4 1_555 1_555
C35_4 C34_4 1_555 1_555
C36_4 C35_4 1_555 1_555
H21_4 C36_4 1_555 1_555
C37_4 C36_4 1_555 1_555
H22_4 C37_4 1_555 1_555
C38_4 C37_4 1_555 1_555
C39_4 C38_4 1_555 1_555
H23_4 C39_4 1_555 1_555
C40_4 C35_4 1_555 1_555
H24_4 C40_4 1_555 1_555
N10_4 C45_4 1_555 1_555
H25_4 C43_4 1_555 1_555
C44_4 C43_4 1_555 1_555
H26_4 C44_4 1_555 1_555
C45_4 C44_4 1_555 1_555
N11_4 C38_4 1_555 1_555
C48_4 N12_4 1_555 1_555
N12_4 C49_4 1_555 1_555
C49_4 H29_4 1_555 1_555
N13_4 Zn2_4 1_555 1_555
C50_4 C48_4 1_555 1_555
C52_4 C48_4 1_555 1_555
N16_4 C52_4 1_555 1_555
H31_4 N16_4 1_555 1_555
H32_4 N16_4 1_555 1_555
O15_4 Zn2_4 1_555 1_555
N17_4 Zn1_4 1_555 1_555
Zn6_4 N12_4 1_555 1_555
Zn9_4 O10_4 1_555 1_555
C6_4 C7_4 1_555 1_555
C20_4 C21_4 1_555 1_555
N7_4 Zn1_4 1_555 1_555
C31_4 N9_4 1_555 1_555
C32_4 C33_4 1_555 1_555
C39_4 C40_4 1_555 1_555
N10_4 N11_4 1_555 1_555
C49_4 N13_4 1_555 1_555
N13_4 C50_4 1_555 1_555
O1_5 C1_5 1_555 1_555
C1_5 O2_5 1_555 1_555
O2_5 Zn1_5 1_555 1_555
C2_5 C1_5 1_555 1_555
C3_5 C2_5 1_555 1_555
H1_5 C3_5 1_555 1_555
C4_5 C3_5 1_555 1_555
H2_5 C4_5 1_555 1_555
C5_5 C4_5 1_555 1_555
C6_5 C5_5 1_555 1_555
H3_5 C6_5 1_555 1_555
C7_5 C2_5 1_555 1_555
H4_5 C7_5 1_555 1_555
N1_5 C5_5 1_555 1_555
O3_5 C8_5 1_555 1_555
C8_5 O4_5 1_555 1_555
C9_5 C8_5 1_555 1_555
C10_5 C9_5 1_555 1_555
H5_5 C10_5 1_555 1_555
C11_5 C10_5 1_555 1_555
H6_5 C11_5 1_555 1_555
C12_5 C11_5 1_555 1_555
C13_5 C12_5 1_555 1_555
H7_5 C13_5 1_555 1_555
C14_5 C9_5 1_555 1_555
H8_5 C14_5 1_555 1_555
N2_5 C19_5 1_555 1_555
O5_5 C15_5 1_555 1_555
C15_5 O6_5 1_555 1_555
C16_5 C15_5 1_555 1_555
C17_5 C16_5 1_555 1_555
H9_5 C17_5 1_555 1_555
C18_5 C17_5 1_555 1_555
H10_5 C18_5 1_555 1_555
C19_5 C18_5 1_555 1_555
C20_5 C19_5 1_555 1_555
H11_5 C20_5 1_555 1_555
C21_5 C16_5 1_555 1_555
H12_5 C21_5 1_555 1_555
N3_5 C12_5 1_555 1_555
C22_5 N4_5 1_555 1_555
N4_5 C23_5 1_555 1_555
C23_5 H13_5 1_555 1_555
N5_5 C23_5 1_555 1_555
C24_5 C22_5 1_555 1_555
N6_5 C24_5 1_555 1_555
C25_5 N6_5 1_555 1_555
H14_5 C25_5 1_555 1_555
N7_5 C25_5 1_555 1_555
C26_5 C22_5 1_555 1_555
N8_5 C26_5 1_555 1_555
H15_5 N8_5 1_555 1_555
H16_5 N8_5 1_555 1_555
Zn1_5 O5_5 1_555 1_555
Zn2_5 N6_5 1_555 1_555
O7_7 Zn2_5 1_555 1_555
O8_5 C27_5 1_555 1_555
C27_5 O9_5 1_555 1_555
O9_5 Zn5_5 1_555 1_555
C28_5 C27_5 1_555 1_555
C29_5 C28_5 1_555 1_555
H17_5 C29_5 1_555 1_555
C30_5 C29_5 1_555 1_555
H18_5 C30_5 1_555 1_555
C31_5 C30_5 1_555 1_555
C32_5 C31_5 1_555 1_555
H19_5 C32_5 1_555 1_555
C33_5 C28_5 1_555 1_555
H20_5 C33_5 1_555 1_555
N9_5 N1_5 1_555 1_555
O10_5 C34_5 1_555 1_555
C34_5 O11_5 1_555 1_555
C35_5 C34_5 1_555 1_555
C36_5 C35_5 1_555 1_555
H21_5 C36_5 1_555 1_555
C37_5 C36_5 1_555 1_555
H22_5 C37_5 1_555 1_555
C38_5 C37_5 1_555 1_555
C39_5 C38_5 1_555 1_555
H23_5 C39_5 1_555 1_555
C40_5 C35_5 1_555 1_555
H24_5 C40_5 1_555 1_555
N10_5 C45_5 1_555 1_555
O12_5 C41_5 1_555 1_555
C41_5 O13_5 1_555 1_555
C42_5 C41_5 1_555 1_555
C43_5 C42_5 1_555 1_555
H25_5 C43_5 1_555 1_555
C44_5 C43_5 1_555 1_555
H26_5 C44_5 1_555 1_555
C45_5 C44_5 1_555 1_555
C46_5 C45_5 1_555 1_555
H27_5 C46_5 1_555 1_555
C47_5 C42_5 1_555 1_555
H28_5 C47_5 1_555 1_555
N11_5 C38_5 1_555 1_555
C48_5 N12_5 1_555 1_555
N12_5 C49_5 1_555 1_555
C49_5 H29_5 1_555 1_555
N13_5 Zn2_5 1_555 1_555
C50_5 C48_5 1_555 1_555
N14_5 C50_5 1_555 1_555
C51_5 N14_5 1_555 1_555
H30_5 C51_5 1_555 1_555
N15_5 C51_5 1_555 1_555
C52_5 C48_5 1_555 1_555
N16_5 C52_5 1_555 1_555
H31_5 N16_5 1_555 1_555
H32_5 N16_5 1_555 1_555
Zn3_5 O12_5 1_555 1_555
Zn4_5 N5_5 1_555 1_555
O14_5 Zn3_5 1_555 1_555
O15_5 Zn2_5 1_555 1_555
O16_5 Zn4_5 1_555 1_555
N17_5 Zn1_5 1_555 1_555
N18_5 Zn3_5 1_555 1_555
Zn6_5 N12_5 1_555 1_555
Zn7_5 N4_5 1_555 1_555
Zn8_5 O3_5 1_555 1_555
Zn9_5 O10_5 1_555 1_555
C6_5 C7_5 1_555 1_555
C13_5 C14_5 1_555 1_555
N2_5 N3_5 1_555 1_555
C20_5 C21_5 1_555 1_555
N5_5 C24_5 1_555 1_555
N7_5 C26_5 1_555 1_555
N7_5 Zn1_5 1_555 1_555
O7_7 Zn4_5 1_555 1_555
C31_5 N9_5 1_555 1_555
C32_5 C33_5 1_555 1_555
C39_5 C40_5 1_555 1_555
N10_5 N11_5 1_555 1_555
C46_5 C47_5 1_555 1_555
C49_5 N13_5 1_555 1_555
N13_5 C50_5 1_555 1_555
N14_5 Zn4_5 1_555 1_555
N15_5 C52_5 1_555 1_555
N15_5 Zn3_5 1_555 1_555
O1_6 C1_6 1_555 1_555
C1_6 O2_6 1_555 1_555
O2_6 Zn1_6 1_555 1_555
C2_6 C1_6 1_555 1_555
C3_6 C2_6 1_555 1_555
H1_6 C3_6 1_555 1_555
C4_6 C3_6 1_555 1_555
H2_6 C4_6 1_555 1_555
C5_6 C4_6 1_555 1_555
C6_6 C5_6 1_555 1_555
H3_6 C6_6 1_555 1_555
C7_6 C2_6 1_555 1_555
H4_6 C7_6 1_555 1_555
N1_6 C5_6 1_555 1_555
O5_6 C15_6 1_555 1_555
C15_6 O6_6 1_555 1_555
C16_6 C15_6 1_555 1_555
H11_6 C20_6 1_555 1_555
C21_6 C16_6 1_555 1_555
H12_6 C21_6 1_555 1_555
C25_6 N6_6 1_555 1_555
H14_6 C25_6 1_555 1_555
N7_6 C25_6 1_555 1_555
Zn1_6 O5_6 1_555 1_555
Zn2_6 N6_6 1_555 1_555
O7_8 Zn2_6 1_555 1_555
O8_6 C27_6 1_555 1_555
C27_6 O9_6 1_555 1_555
O9_6 Zn5_6 1_555 1_555
C28_6 C27_6 1_555 1_555
C29_6 C28_6 1_555 1_555
H17_6 C29_6 1_555 1_555
C30_6 C29_6 1_555 1_555
H18_6 C30_6 1_555 1_555
C31_6 C30_6 1_555 1_555
C32_6 C31_6 1_555 1_555
H19_6 C32_6 1_555 1_555
C33_6 C28_6 1_555 1_555
H20_6 C33_6 1_555 1_555
N9_6 N1_6 1_555 1_555
O10_6 C34_6 1_555 1_555
C34_6 O11_6 1_555 1_555
C35_6 C34_6 1_555 1_555
C36_6 C35_6 1_555 1_555
H21_6 C36_6 1_555 1_555
C37_6 C36_6 1_555 1_555
H22_6 C37_6 1_555 1_555
C38_6 C37_6 1_555 1_555
C39_6 C38_6 1_555 1_555
H23_6 C39_6 1_555 1_555
C40_6 C35_6 1_555 1_555
H24_6 C40_6 1_555 1_555
N10_6 C45_6 1_555 1_555
H25_6 C43_6 1_555 1_555
C44_6 C43_6 1_555 1_555
H26_6 C44_6 1_555 1_555
C45_6 C44_6 1_555 1_555
N11_6 C38_6 1_555 1_555
C48_6 N12_6 1_555 1_555
N12_6 C49_6 1_555 1_555
C49_6 H29_6 1_555 1_555
N13_6 Zn2_6 1_555 1_555
C50_6 C48_6 1_555 1_555
C52_6 C48_6 1_555 1_555
N16_6 C52_6 1_555 1_555
H31_6 N16_6 1_555 1_555
H32_6 N16_6 1_555 1_555
O15_6 Zn2_6 1_555 1_555
N17_6 Zn1_6 1_555 1_555
Zn6_6 N12_6 1_555 1_555
Zn9_6 O10_6 1_555 1_555
C6_6 C7_6 1_555 1_555
C20_6 C21_6 1_555 1_555
N7_6 Zn1_6 1_555 1_555
C31_6 N9_6 1_555 1_555
C32_6 C33_6 1_555 1_555
C39_6 C40_6 1_555 1_555
N10_6 N11_6 1_555 1_555
C49_6 N13_6 1_555 1_555
N13_6 C50_6 1_555 1_555
O3_6 C8_6 1_555 1_555
C8_6 O4_6 1_555 1_555
C9_6 C8_6 1_555 1_555
C10_6 C9_6 1_555 1_555
H5_6 C10_6 1_555 1_555
C11_6 C10_6 1_555 1_555
H6_6 C11_6 1_555 1_555
C12_6 C11_6 1_555 1_555
C13_6 C12_6 1_555 1_555
H7_6 C13_6 1_555 1_555
C14_6 C9_6 1_555 1_555
H8_6 C14_6 1_555 1_555
N2_6 C19_6 1_555 1_555
H9_6 C17_6 1_555 1_555
C18_6 C17_6 1_555 1_555
H10_6 C18_6 1_555 1_555
C19_6 C18_6 1_555 1_555
N3_6 C12_6 1_555 1_555
C22_6 N4_6 1_555 1_555
N4_6 C23_6 1_555 1_555
C23_6 H13_6 1_555 1_555
N5_6 C23_6 1_555 1_555
C24_6 C22_6 1_555 1_555
C26_6 C22_6 1_555 1_555
N8_6 C26_6 1_555 1_555
H15_6 N8_6 1_555 1_555
H16_6 N8_6 1_555 1_555
O12_6 C41_6 1_555 1_555
C41_6 O13_6 1_555 1_555
C42_6 C41_6 1_555 1_555
H27_6 C46_6 1_555 1_555
C47_6 C42_6 1_555 1_555
H28_6 C47_6 1_555 1_555
C51_6 N14_6 1_555 1_555
H30_6 C51_6 1_555 1_555
N15_6 C51_6 1_555 1_555
Zn3_6 O12_6 1_555 1_555
Zn4_6 N5_6 1_555 1_555
O14_6 Zn3_6 1_555 1_555
O16_6 Zn4_6 1_555 1_555
N18_6 Zn3_6 1_555 1_555
Zn7_6 N4_6 1_555 1_555
Zn8_6 O3_6 1_555 1_555
C13_6 C14_6 1_555 1_555
N2_6 N3_6 1_555 1_555
N5_6 C24_6 1_555 1_555
O7_9 Zn4_6 1_555 1_555
C46_6 C47_6 1_555 1_555
N14_6 Zn4_6 1_555 1_555
N15_6 Zn3_6 1_555 1_555
O1_7 C1_7 1_555 1_555
C1_7 O2_7 1_555 1_555
O2_7 Zn1_7 1_555 1_555
C2_7 C1_7 1_555 1_555
C3_7 C2_7 1_555 1_555
H1_7 C3_7 1_555 1_555
C4_7 C3_7 1_555 1_555
H2_7 C4_7 1_555 1_555
C5_7 C4_7 1_555 1_555
C6_7 C5_7 1_555 1_555
H3_7 C6_7 1_555 1_555
C7_7 C2_7 1_555 1_555
H4_7 C7_7 1_555 1_555
N1_7 C5_7 1_555 1_555
O3_7 C8_7 1_555 1_555
C8_7 O4_7 1_555 1_555
C9_7 C8_7 1_555 1_555
C10_7 C9_7 1_555 1_555
H5_7 C10_7 1_555 1_555
C11_7 C10_7 1_555 1_555
H6_7 C11_7 1_555 1_555
C12_7 C11_7 1_555 1_555
C13_7 C12_7 1_555 1_555
H7_7 C13_7 1_555 1_555
C14_7 C9_7 1_555 1_555
H8_7 C14_7 1_555 1_555
N2_7 C19_7 1_555 1_555
O5_7 C15_7 1_555 1_555
C15_7 O6_7 1_555 1_555
C16_7 C15_7 1_555 1_555
C17_7 C16_7 1_555 1_555
H9_7 C17_7 1_555 1_555
C18_7 C17_7 1_555 1_555
H10_7 C18_7 1_555 1_555
C19_7 C18_7 1_555 1_555
C20_7 C19_7 1_555 1_555
H11_7 C20_7 1_555 1_555
C21_7 C16_7 1_555 1_555
H12_7 C21_7 1_555 1_555
N3_7 C12_7 1_555 1_555
C22_7 N4_7 1_555 1_555
N4_7 C23_7 1_555 1_555
C23_7 H13_7 1_555 1_555
N5_7 C23_7 1_555 1_555
C24_7 C22_7 1_555 1_555
N6_7 C24_7 1_555 1_555
C25_7 N6_7 1_555 1_555
H14_7 C25_7 1_555 1_555
N7_7 C25_7 1_555 1_555
C26_7 C22_7 1_555 1_555
N8_7 C26_7 1_555 1_555
H15_7 N8_7 1_555 1_555
H16_7 N8_7 1_555 1_555
Zn1_7 O5_7 1_555 1_555
Zn2_7 N6_7 1_555 1_555
O7_10 Zn2_7 1_555 1_555
O8_7 C27_7 1_555 1_555
C27_7 O9_7 1_555 1_555
O9_7 Zn5_7 1_555 1_555
C28_7 C27_7 1_555 1_555
C29_7 C28_7 1_555 1_555
H17_7 C29_7 1_555 1_555
C30_7 C29_7 1_555 1_555
H18_7 C30_7 1_555 1_555
C31_7 C30_7 1_555 1_555
C32_7 C31_7 1_555 1_555
H19_7 C32_7 1_555 1_555
C33_7 C28_7 1_555 1_555
H20_7 C33_7 1_555 1_555
N9_7 N1_7 1_555 1_555
O10_7 C34_7 1_555 1_555
C34_7 O11_7 1_555 1_555
C35_7 C34_7 1_555 1_555
C36_7 C35_7 1_555 1_555
H21_7 C36_7 1_555 1_555
C37_7 C36_7 1_555 1_555
H22_7 C37_7 1_555 1_555
C38_7 C37_7 1_555 1_555
C39_7 C38_7 1_555 1_555
H23_7 C39_7 1_555 1_555
C40_7 C35_7 1_555 1_555
H24_7 C40_7 1_555 1_555
N10_7 C45_7 1_555 1_555
O12_7 C41_7 1_555 1_555
C41_7 O13_7 1_555 1_555
C42_7 C41_7 1_555 1_555
C43_7 C42_7 1_555 1_555
H25_7 C43_7 1_555 1_555
C44_7 C43_7 1_555 1_555
H26_7 C44_7 1_555 1_555
C45_7 C44_7 1_555 1_555
C46_7 C45_7 1_555 1_555
H27_7 C46_7 1_555 1_555
C47_7 C42_7 1_555 1_555
H28_7 C47_7 1_555 1_555
N11_7 C38_7 1_555 1_555
C48_7 N12_7 1_555 1_555
N12_7 C49_7 1_555 1_555
C49_7 H29_7 1_555 1_555
N13_7 Zn2_7 1_555 1_555
C50_7 C48_7 1_555 1_555
N14_7 C50_7 1_555 1_555
C51_7 N14_7 1_555 1_555
H30_7 C51_7 1_555 1_555
N15_7 C51_7 1_555 1_555
C52_7 C48_7 1_555 1_555
N16_7 C52_7 1_555 1_555
H31_7 N16_7 1_555 1_555
H32_7 N16_7 1_555 1_555
Zn3_7 O12_7 1_555 1_555
Zn4_7 N5_7 1_555 1_555
O14_7 Zn3_7 1_555 1_555
O15_7 Zn2_7 1_555 1_555
O16_7 Zn4_7 1_555 1_555
N17_7 Zn1_7 1_555 1_555
N18_7 Zn3_7 1_555 1_555
Zn6_7 N12_7 1_555 1_555
Zn7_7 N4_7 1_555 1_555
Zn8_7 O3_7 1_555 1_555
Zn9_7 O10_7 1_555 1_555
C6_7 C7_7 1_555 1_555
C13_7 C14_7 1_555 1_555
N2_7 N3_7 1_555 1_555
C20_7 C21_7 1_555 1_555
N5_7 C24_7 1_555 1_555
N7_7 C26_7 1_555 1_555
N7_7 Zn1_7 1_555 1_555
O7_10 Zn4_7 1_555 1_555
C31_7 N9_7 1_555 1_555
C32_7 C33_7 1_555 1_555
C39_7 C40_7 1_555 1_555
N10_7 N11_7 1_555 1_555
C46_7 C47_7 1_555 1_555
C49_7 N13_7 1_555 1_555
N13_7 C50_7 1_555 1_555
N14_7 Zn4_7 1_555 1_555
N15_7 C52_7 1_555 1_555
N15_7 Zn3_7 1_555 1_555
O3_8 C8_8 1_555 1_555
C8_8 O4_8 1_555 1_555
C9_8 C8_8 1_555 1_555
C10_8 C9_8 1_555 1_555
H5_8 C10_8 1_555 1_555
C11_8 C10_8 1_555 1_555
H6_8 C11_8 1_555 1_555
C12_8 C11_8 1_555 1_555
C13_8 C12_8 1_555 1_555
H7_8 C13_8 1_555 1_555
C14_8 C9_8 1_555 1_555
H8_8 C14_8 1_555 1_555
N2_8 C19_8 1_555 1_555
H9_8 C17_8 1_555 1_555
C18_8 C17_8 1_555 1_555
H10_8 C18_8 1_555 1_555
C19_8 C18_8 1_555 1_555
N3_8 C12_8 1_555 1_555
C22_8 N4_8 1_555 1_555
N4_8 C23_8 1_555 1_555
C23_8 H13_8 1_555 1_555
N5_8 C23_8 1_555 1_555
C24_8 C22_8 1_555 1_555
C26_8 C22_8 1_555 1_555
N8_8 C26_8 1_555 1_555
H15_8 N8_8 1_555 1_555
H16_8 N8_8 1_555 1_555
O12_8 C41_8 1_555 1_555
C41_8 O13_8 1_555 1_555
C42_8 C41_8 1_555 1_555
H27_8 C46_8 1_555 1_555
C47_8 C42_8 1_555 1_555
H28_8 C47_8 1_555 1_555
C51_8 N14_8 1_555 1_555
H30_8 C51_8 1_555 1_555
N15_8 C51_8 1_555 1_555
Zn3_8 O12_8 1_555 1_555
Zn4_8 N5_8 1_555 1_555
O14_8 Zn3_8 1_555 1_555
O16_8 Zn4_8 1_555 1_555
N18_8 Zn3_8 1_555 1_555
Zn7_8 N4_8 1_555 1_555
Zn8_8 O3_8 1_555 1_555
C13_8 C14_8 1_555 1_555
N2_8 N3_8 1_555 1_555
N5_8 C24_8 1_555 1_555
O7_11 Zn4_8 1_555 1_555
C46_8 C47_8 1_555 1_555
N14_8 Zn4_8 1_555 1_555
N15_8 Zn3_8 1_555 1_555
O1_8 C1_8 1_555 1_555
C1_8 O2_8 1_555 1_555
O2_8 Zn1_8 1_555 1_555
C2_8 C1_8 1_555 1_555
C3_8 C2_8 1_555 1_555
H1_8 C3_8 1_555 1_555
C4_8 C3_8 1_555 1_555
H2_8 C4_8 1_555 1_555
C5_8 C4_8 1_555 1_555
C6_8 C5_8 1_555 1_555
H3_8 C6_8 1_555 1_555
C7_8 C2_8 1_555 1_555
H4_8 C7_8 1_555 1_555
N1_8 C5_8 1_555 1_555
O5_8 C15_8 1_555 1_555
C15_8 O6_8 1_555 1_555
C16_8 C15_8 1_555 1_555
H11_8 C20_8 1_555 1_555
C21_8 C16_8 1_555 1_555
H12_8 C21_8 1_555 1_555
C25_8 N6_8 1_555 1_555
H14_8 C25_8 1_555 1_555
N7_8 C25_8 1_555 1_555
Zn1_8 O5_8 1_555 1_555
Zn2_8 N6_8 1_555 1_555
O7_12 Zn2_8 1_555 1_555
O8_8 C27_8 1_555 1_555
C27_8 O9_8 1_555 1_555
O9_8 Zn5_8 1_555 1_555
C28_8 C27_8 1_555 1_555
C29_8 C28_8 1_555 1_555
H17_8 C29_8 1_555 1_555
C30_8 C29_8 1_555 1_555
H18_8 C30_8 1_555 1_555
C31_8 C30_8 1_555 1_555
C32_8 C31_8 1_555 1_555
H19_8 C32_8 1_555 1_555
C33_8 C28_8 1_555 1_555
H20_8 C33_8 1_555 1_555
N9_8 N1_8 1_555 1_555
O10_8 C34_8 1_555 1_555
C34_8 O11_8 1_555 1_555
C35_8 C34_8 1_555 1_555
C36_8 C35_8 1_555 1_555
H21_8 C36_8 1_555 1_555
C37_8 C36_8 1_555 1_555
H22_8 C37_8 1_555 1_555
C38_8 C37_8 1_555 1_555
C39_8 C38_8 1_555 1_555
H23_8 C39_8 1_555 1_555
C40_8 C35_8 1_555 1_555
H24_8 C40_8 1_555 1_555
N10_8 C45_8 1_555 1_555
H25_8 C43_8 1_555 1_555
C44_8 C43_8 1_555 1_555
H26_8 C44_8 1_555 1_555
C45_8 C44_8 1_555 1_555
N11_8 C38_8 1_555 1_555
C48_8 N12_8 1_555 1_555
N12_8 C49_8 1_555 1_555
C49_8 H29_8 1_555 1_555
N13_8 Zn2_8 1_555 1_555
C50_8 C48_8 1_555 1_555
C52_8 C48_8 1_555 1_555
N16_8 C52_8 1_555 1_555
H31_8 N16_8 1_555 1_555
H32_8 N16_8 1_555 1_555
O15_8 Zn2_8 1_555 1_555
N17_8 Zn1_8 1_555 1_555
Zn6_8 N12_8 1_555 1_555
Zn9_8 O10_8 1_555 1_555
C6_8 C7_8 1_555 1_555
C20_8 C21_8 1_555 1_555
N7_8 Zn1_8 1_555 1_555
C31_8 N9_8 1_555 1_555
C32_8 C33_8 1_555 1_555
C39_8 C40_8 1_555 1_555
N10_8 N11_8 1_555 1_555
C49_8 N13_8 1_555 1_555
N13_8 C50_8 1_555 1_555
O1_9 C1_9 1_555 1_555
C1_9 O2_9 1_555 1_555
O2_9 Zn1_9 1_555 1_555
C2_9 C1_9 1_555 1_555
C3_9 C2_9 1_555 1_555
H1_9 C3_9 1_555 1_555
C4_9 C3_9 1_555 1_555
H2_9 C4_9 1_555 1_555
C5_9 C4_9 1_555 1_555
C6_9 C5_9 1_555 1_555
H3_9 C6_9 1_555 1_555
C7_9 C2_9 1_555 1_555
H4_9 C7_9 1_555 1_555
N1_9 C5_9 1_555 1_555
O3_9 C8_9 1_555 1_555
C8_9 O4_9 1_555 1_555
C9_9 C8_9 1_555 1_555
C10_9 C9_9 1_555 1_555
H5_9 C10_9 1_555 1_555
C11_9 C10_9 1_555 1_555
H6_9 C11_9 1_555 1_555
C12_9 C11_9 1_555 1_555
C13_9 C12_9 1_555 1_555
H7_9 C13_9 1_555 1_555
C14_9 C9_9 1_555 1_555
H8_9 C14_9 1_555 1_555
N2_9 C19_9 1_555 1_555
O5_9 C15_9 1_555 1_555
C15_9 O6_9 1_555 1_555
C16_9 C15_9 1_555 1_555
C17_9 C16_9 1_555 1_555
H9_9 C17_9 1_555 1_555
C18_9 C17_9 1_555 1_555
H10_9 C18_9 1_555 1_555
C19_9 C18_9 1_555 1_555
C20_9 C19_9 1_555 1_555
H11_9 C20_9 1_555 1_555
C21_9 C16_9 1_555 1_555
H12_9 C21_9 1_555 1_555
N3_9 C12_9 1_555 1_555
C22_9 N4_9 1_555 1_555
N4_9 C23_9 1_555 1_555
C23_9 H13_9 1_555 1_555
N5_9 C23_9 1_555 1_555
C24_9 C22_9 1_555 1_555
N6_9 C24_9 1_555 1_555
C25_9 N6_9 1_555 1_555
H14_9 C25_9 1_555 1_555
N7_9 C25_9 1_555 1_555
C26_9 C22_9 1_555 1_555
N8_9 C26_9 1_555 1_555
H15_9 N8_9 1_555 1_555
H16_9 N8_9 1_555 1_555
Zn1_9 O5_9 1_555 1_555
Zn2_9 N6_9 1_555 1_555
O7_13 Zn2_9 1_555 1_555
O8_9 C27_9 1_555 1_555
C27_9 O9_9 1_555 1_555
O9_9 Zn5_9 1_555 1_555
C28_9 C27_9 1_555 1_555
C29_9 C28_9 1_555 1_555
H17_9 C29_9 1_555 1_555
C30_9 C29_9 1_555 1_555
H18_9 C30_9 1_555 1_555
C31_9 C30_9 1_555 1_555
C32_9 C31_9 1_555 1_555
H19_9 C32_9 1_555 1_555
C33_9 C28_9 1_555 1_555
H20_9 C33_9 1_555 1_555
N9_9 N1_9 1_555 1_555
O10_9 C34_9 1_555 1_555
C34_9 O11_9 1_555 1_555
C35_9 C34_9 1_555 1_555
C36_9 C35_9 1_555 1_555
H21_9 C36_9 1_555 1_555
C37_9 C36_9 1_555 1_555
H22_9 C37_9 1_555 1_555
C38_9 C37_9 1_555 1_555
C39_9 C38_9 1_555 1_555
H23_9 C39_9 1_555 1_555
C40_9 C35_9 1_555 1_555
H24_9 C40_9 1_555 1_555
N10_9 C45_9 1_555 1_555
O12_9 C41_9 1_555 1_555
C41_9 O13_9 1_555 1_555
C42_9 C41_9 1_555 1_555
C43_9 C42_9 1_555 1_555
H25_9 C43_9 1_555 1_555
C44_9 C43_9 1_555 1_555
H26_9 C44_9 1_555 1_555
C45_9 C44_9 1_555 1_555
C46_9 C45_9 1_555 1_555
H27_9 C46_9 1_555 1_555
C47_9 C42_9 1_555 1_555
H28_9 C47_9 1_555 1_555
N11_9 C38_9 1_555 1_555
C48_9 N12_9 1_555 1_555
N12_9 C49_9 1_555 1_555
C49_9 H29_9 1_555 1_555
N13_9 Zn2_9 1_555 1_555
C50_9 C48_9 1_555 1_555
N14_9 C50_9 1_555 1_555
C51_9 N14_9 1_555 1_555
H30_9 C51_9 1_555 1_555
N15_9 C51_9 1_555 1_555
C52_9 C48_9 1_555 1_555
N16_9 C52_9 1_555 1_555
H31_9 N16_9 1_555 1_555
H32_9 N16_9 1_555 1_555
Zn3_9 O12_9 1_555 1_555
Zn4_9 N5_9 1_555 1_555
O14_9 Zn3_9 1_555 1_555
O15_9 Zn2_9 1_555 1_555
O16_9 Zn4_9 1_555 1_555
N17_9 Zn1_9 1_555 1_555
N18_9 Zn3_9 1_555 1_555
Zn6_9 N12_9 1_555 1_555
Zn7_9 N4_9 1_555 1_555
Zn8_9 O3_9 1_555 1_555
Zn9_9 O10_9 1_555 1_555
C6_9 C7_9 1_555 1_555
C13_9 C14_9 1_555 1_555
N2_9 N3_9 1_555 1_555
C20_9 C21_9 1_555 1_555
N5_9 C24_9 1_555 1_555
N7_9 C26_9 1_555 1_555
N7_9 Zn1_9 1_555 1_555
O7_13 Zn4_9 1_555 1_555
C31_9 N9_9 1_555 1_555
C32_9 C33_9 1_555 1_555
C39_9 C40_9 1_555 1_555
N10_9 N11_9 1_555 1_555
C46_9 C47_9 1_555 1_555
C49_9 N13_9 1_555 1_555
N13_9 C50_9 1_555 1_555
N14_9 Zn4_9 1_555 1_555
N15_9 C52_9 1_555 1_555
N15_9 Zn3_9 1_555 1_555
O1_10 C1_10 1_555 1_555
C1_10 O2_10 1_555 1_555
O2_10 Zn1_10 1_555 1_555
C2_10 C1_10 1_555 1_555
C3_10 C2_10 1_555 1_555
H1_10 C3_10 1_555 1_555
C4_10 C3_10 1_555 1_555
H2_10 C4_10 1_555 1_555
C5_10 C4_10 1_555 1_555
C6_10 C5_10 1_555 1_555
H3_10 C6_10 1_555 1_555
C7_10 C2_10 1_555 1_555
H4_10 C7_10 1_555 1_555
N1_10 C5_10 1_555 1_555
O5_10 C15_10 1_555 1_555
C15_10 O6_10 1_555 1_555
C16_10 C15_10 1_555 1_555
H11_10 C20_10 1_555 1_555
C21_10 C16_10 1_555 1_555
H12_10 C21_10 1_555 1_555
C25_10 N6_10 1_555 1_555
H14_10 C25_10 1_555 1_555
N7_10 C25_10 1_555 1_555
Zn1_10 O5_10 1_555 1_555
Zn2_10 N6_10 1_555 1_555
O7_14 Zn2_10 1_555 1_555
O8_10 C27_10 1_555 1_555
C27_10 O9_10 1_555 1_555
O9_10 Zn5_10 1_555 1_555
C28_10 C27_10 1_555 1_555
C29_10 C28_10 1_555 1_555
H17_10 C29_10 1_555 1_555
C30_10 C29_10 1_555 1_555
H18_10 C30_10 1_555 1_555
C31_10 C30_10 1_555 1_555
C32_10 C31_10 1_555 1_555
H19_10 C32_10 1_555 1_555
C33_10 C28_10 1_555 1_555
H20_10 C33_10 1_555 1_555
N9_10 N1_10 1_555 1_555
O10_10 C34_10 1_555 1_555
C34_10 O11_10 1_555 1_555
C35_10 C34_10 1_555 1_555
C36_10 C35_10 1_555 1_555
H21_10 C36_10 1_555 1_555
C37_10 C36_10 1_555 1_555
H22_10 C37_10 1_555 1_555
C38_10 C37_10 1_555 1_555
C39_10 C38_10 1_555 1_555
H23_10 C39_10 1_555 1_555
C40_10 C35_10 1_555 1_555
H24_10 C40_10 1_555 1_555
N10_10 C45_10 1_555 1_555
H25_10 C43_10 1_555 1_555
C44_10 C43_10 1_555 1_555
H26_10 C44_10 1_555 1_555
C45_10 C44_10 1_555 1_555
N11_10 C38_10 1_555 1_555
C48_10 N12_10 1_555 1_555
N12_10 C49_10 1_555 1_555
C49_10 H29_10 1_555 1_555
N13_10 Zn2_10 1_555 1_555
C50_10 C48_10 1_555 1_555
C52_10 C48_10 1_555 1_555
N16_10 C52_10 1_555 1_555
H31_10 N16_10 1_555 1_555
H32_10 N16_10 1_555 1_555
O15_10 Zn2_10 1_555 1_555
N17_10 Zn1_10 1_555 1_555
Zn6_10 N12_10 1_555 1_555
Zn9_10 O10_10 1_555 1_555
C6_10 C7_10 1_555 1_555
C20_10 C21_10 1_555 1_555
N7_10 Zn1_10 1_555 1_555
C31_10 N9_10 1_555 1_555
C32_10 C33_10 1_555 1_555
C39_10 C40_10 1_555 1_555
N10_10 N11_10 1_555 1_555
C49_10 N13_10 1_555 1_555
N13_10 C50_10 1_555 1_555
O3_10 C8_10 1_555 1_555
C8_10 O4_10 1_555 1_555
C9_10 C8_10 1_555 1_555
C10_10 C9_10 1_555 1_555
H5_10 C10_10 1_555 1_555
C11_10 C10_10 1_555 1_555
H6_10 C11_10 1_555 1_555
C12_10 C11_10 1_555 1_555
C13_10 C12_10 1_555 1_555
H7_10 C13_10 1_555 1_555
C14_10 C9_10 1_555 1_555
H8_10 C14_10 1_555 1_555
N2_10 C19_10 1_555 1_555
H9_10 C17_10 1_555 1_555
C18_10 C17_10 1_555 1_555
H10_10 C18_10 1_555 1_555
C19_10 C18_10 1_555 1_555
N3_10 C12_10 1_555 1_555
C22_10 N4_10 1_555 1_555
N4_10 C23_10 1_555 1_555
C23_10 H13_10 1_555 1_555
N5_10 C23_10 1_555 1_555
C24_10 C22_10 1_555 1_555
C26_10 C22_10 1_555 1_555
N8_10 C26_10 1_555 1_555
H15_10 N8_10 1_555 1_555
H16_10 N8_10 1_555 1_555
O12_10 C41_10 1_555 1_555
C41_10 O13_10 1_555 1_555
C42_10 C41_10 1_555 1_555
H27_10 C46_10 1_555 1_555
C47_10 C42_10 1_555 1_555
H28_10 C47_10 1_555 1_555
C51_10 N14_10 1_555 1_555
H30_10 C51_10 1_555 1_555
N15_10 C51_10 1_555 1_555
Zn3_10 O12_10 1_555 1_555
Zn4_10 N5_10 1_555 1_555
O14_10 Zn3_10 1_555 1_555
O16_10 Zn4_10 1_555 1_555
N18_10 Zn3_10 1_555 1_555
Zn7_10 N4_10 1_555 1_555
Zn8_10 O3_10 1_555 1_555
C13_10 C14_10 1_555 1_555
N2_10 N3_10 1_555 1_555
N5_10 C24_10 1_555 1_555
O7_15 Zn4_10 1_555 1_555
C46_10 C47_10 1_555 1_555
N14_10 Zn4_10 1_555 1_555
N15_10 Zn3_10 1_555 1_555
O1_11 C1_11 1_555 1_555
C1_11 O2_11 1_555 1_555
O2_11 Zn1_11 1_555 1_555
C2_11 C1_11 1_555 1_555
C3_11 C2_11 1_555 1_555
H1_11 C3_11 1_555 1_555
C4_11 C3_11 1_555 1_555
H2_11 C4_11 1_555 1_555
C5_11 C4_11 1_555 1_555
C6_11 C5_11 1_555 1_555
H3_11 C6_11 1_555 1_555
C7_11 C2_11 1_555 1_555
H4_11 C7_11 1_555 1_555
N1_11 C5_11 1_555 1_555
O3_11 C8_11 1_555 1_555
C8_11 O4_11 1_555 1_555
C9_11 C8_11 1_555 1_555
C10_11 C9_11 1_555 1_555
H5_11 C10_11 1_555 1_555
C11_11 C10_11 1_555 1_555
H6_11 C11_11 1_555 1_555
C12_11 C11_11 1_555 1_555
C13_11 C12_11 1_555 1_555
H7_11 C13_11 1_555 1_555
C14_11 C9_11 1_555 1_555
H8_11 C14_11 1_555 1_555
N2_11 C19_11 1_555 1_555
O5_11 C15_11 1_555 1_555
C15_11 O6_11 1_555 1_555
C16_11 C15_11 1_555 1_555
C17_11 C16_11 1_555 1_555
H9_11 C17_11 1_555 1_555
C18_11 C17_11 1_555 1_555
H10_11 C18_11 1_555 1_555
C19_11 C18_11 1_555 1_555
C20_11 C19_11 1_555 1_555
H11_11 C20_11 1_555 1_555
C21_11 C16_11 1_555 1_555
H12_11 C21_11 1_555 1_555
N3_11 C12_11 1_555 1_555
C22_11 N4_11 1_555 1_555
N4_11 C23_11 1_555 1_555
C23_11 H13_11 1_555 1_555
N5_11 C23_11 1_555 1_555
C24_11 C22_11 1_555 1_555
N6_11 C24_11 1_555 1_555
C25_11 N6_11 1_555 1_555
H14_11 C25_11 1_555 1_555
N7_11 C25_11 1_555 1_555
C26_11 C22_11 1_555 1_555
N8_11 C26_11 1_555 1_555
H15_11 N8_11 1_555 1_555
H16_11 N8_11 1_555 1_555
Zn1_11 O5_11 1_555 1_555
Zn2_11 N6_11 1_555 1_555
O7_16 Zn2_11 1_555 1_555
O8_11 C27_11 1_555 1_555
C27_11 O9_11 1_555 1_555
O9_11 Zn5_11 1_555 1_555
C28_11 C27_11 1_555 1_555
C29_11 C28_11 1_555 1_555
H17_11 C29_11 1_555 1_555
C30_11 C29_11 1_555 1_555
H18_11 C30_11 1_555 1_555
C31_11 C30_11 1_555 1_555
C32_11 C31_11 1_555 1_555
H19_11 C32_11 1_555 1_555
C33_11 C28_11 1_555 1_555
H20_11 C33_11 1_555 1_555
N9_11 N1_11 1_555 1_555
O10_11 C34_11 1_555 1_555
C34_11 O11_11 1_555 1_555
C35_11 C34_11 1_555 1_555
C36_11 C35_11 1_555 1_555
H21_11 C36_11 1_555 1_555
C37_11 C36_11 1_555 1_555
H22_11 C37_11 1_555 1_555
C38_11 C37_11 1_555 1_555
C39_11 C38_11 1_555 1_555
H23_11 C39_11 1_555 1_555
C40_11 C35_11 1_555 1_555
H24_11 C40_11 1_555 1_555
N10_11 C45_11 1_555 1_555
O12_11 C41_11 1_555 1_555
C41_11 O13_11 1_555 1_555
C42_11 C41_11 1_555 1_555
C43_11 C42_11 1_555 1_555
H25_11 C43_11 1_555 1_555
C44_11 C43_11 1_555 1_555
H26_11 C44_11 1_555 1_555
C45_11 C44_11 1_555 1_555
C46_11 C45_11 1_555 1_555
H27_11 C46_11 1_555 1_555
C47_11 C42_11 1_555 1_555
H28_11 C47_11 1_555 1_555
N11_11 C38_11 1_555 1_555
C48_11 N12_11 1_555 1_555
N12_11 C49_11 1_555 1_555
C49_11 H29_11 1_555 1_555
N13_11 Zn2_11 1_555 1_555
C50_11 C48_11 1_555 1_555
N14_11 C50_11 1_555 1_555
C51_11 N14_11 1_555 1_555
H30_11 C51_11 1_555 1_555
N15_11 C51_11 1_555 1_555
C52_11 C48_11 1_555 1_555
N16_11 C52_11 1_555 1_555
H31_11 N16_11 1_555 1_555
H32_11 N16_11 1_555 1_555
Zn3_11 O12_11 1_555 1_555
Zn4_11 N5_11 1_555 1_555
O14_11 Zn3_11 1_555 1_555
O15_11 Zn2_11 1_555 1_555
O16_11 Zn4_11 1_555 1_555
N17_11 Zn1_11 1_555 1_555
N18_11 Zn3_11 1_555 1_555
Zn6_11 N12_11 1_555 1_555
Zn7_11 N4_11 1_555 1_555
Zn8_11 O3_11 1_555 1_555
Zn9_11 O10_11 1_555 1_555
C6_11 C7_11 1_555 1_555
C13_11 C14_11 1_555 1_555
N2_11 N3_11 1_555 1_555
C20_11 C21_11 1_555 1_555
N5_11 C24_11 1_555 1_555
N7_11 C26_11 1_555 1_555
N7_11 Zn1_11 1_555 1_555
O7_16 Zn4_11 1_555 1_555
C31_11 N9_11 1_555 1_555
C32_11 C33_11 1_555 1_555
C39_11 C40_11 1_555 1_555
N10_11 N11_11 1_555 1_555
C46_11 C47_11 1_555 1_555
C49_11 N13_11 1_555 1_555
N13_11 C50_11 1_555 1_555
N14_11 Zn4_11 1_555 1_555
N15_11 C52_11 1_555 1_555
N15_11 Zn3_11 1_555 1_555
O3_12 C8_12 1_555 1_555
C8_12 O4_12 1_555 1_555
C9_12 C8_12 1_555 1_555
C10_12 C9_12 1_555 1_555
H5_12 C10_12 1_555 1_555
C11_12 C10_12 1_555 1_555
H6_12 C11_12 1_555 1_555
C12_12 C11_12 1_555 1_555
C13_12 C12_12 1_555 1_555
H7_12 C13_12 1_555 1_555
C14_12 C9_12 1_555 1_555
H8_12 C14_12 1_555 1_555
N2_12 C19_12 1_555 1_555
H9_12 C17_12 1_555 1_555
C18_12 C17_12 1_555 1_555
H10_12 C18_12 1_555 1_555
C19_12 C18_12 1_555 1_555
N3_12 C12_12 1_555 1_555
C22_12 N4_12 1_555 1_555
N4_12 C23_12 1_555 1_555
C23_12 H13_12 1_555 1_555
N5_12 C23_12 1_555 1_555
C24_12 C22_12 1_555 1_555
C26_12 C22_12 1_555 1_555
N8_12 C26_12 1_555 1_555
H15_12 N8_12 1_555 1_555
H16_12 N8_12 1_555 1_555
O12_12 C41_12 1_555 1_555
C41_12 O13_12 1_555 1_555
C42_12 C41_12 1_555 1_555
H27_12 C46_12 1_555 1_555
C47_12 C42_12 1_555 1_555
H28_12 C47_12 1_555 1_555
C51_12 N14_12 1_555 1_555
H30_12 C51_12 1_555 1_555
N15_12 C51_12 1_555 1_555
Zn3_12 O12_12 1_555 1_555
Zn4_12 N5_12 1_555 1_555
O14_12 Zn3_12 1_555 1_555
O16_12 Zn4_12 1_555 1_555
N18_12 Zn3_12 1_555 1_555
Zn7_12 N4_12 1_555 1_555
Zn8_12 O3_12 1_555 1_555
C13_12 C14_12 1_555 1_555
N2_12 N3_12 1_555 1_555
N5_12 C24_12 1_555 1_555
O7_17 Zn4_12 1_555 1_555
C46_12 C47_12 1_555 1_555
N14_12 Zn4_12 1_555 1_555
N15_12 Zn3_12 1_555 1_555
O1_12 C1_12 1_555 1_555
C1_12 O2_12 1_555 1_555
O2_12 Zn1_12 1_555 1_555
C2_12 C1_12 1_555 1_555
C3_12 C2_12 1_555 1_555
H1_12 C3_12 1_555 1_555
C4_12 C3_12 1_555 1_555
H2_12 C4_12 1_555 1_555
C5_12 C4_12 1_555 1_555
C6_12 C5_12 1_555 1_555
H3_12 C6_12 1_555 1_555
C7_12 C2_12 1_555 1_555
H4_12 C7_12 1_555 1_555
N1_12 C5_12 1_555 1_555
O5_12 C15_12 1_555 1_555
C15_12 O6_12 1_555 1_555
C16_12 C15_12 1_555 1_555
H11_12 C20_12 1_555 1_555
C21_12 C16_12 1_555 1_555
H12_12 C21_12 1_555 1_555
C25_12 N6_12 1_555 1_555
H14_12 C25_12 1_555 1_555
N7_12 C25_12 1_555 1_555
Zn1_12 O5_12 1_555 1_555
Zn2_12 N6_12 1_555 1_555
O7_18 Zn2_12 1_555 1_555
O8_12 C27_12 1_555 1_555
C27_12 O9_12 1_555 1_555
O9_12 Zn5_12 1_555 1_555
C28_12 C27_12 1_555 1_555
C29_12 C28_12 1_555 1_555
H17_12 C29_12 1_555 1_555
C30_12 C29_12 1_555 1_555
H18_12 C30_12 1_555 1_555
C31_12 C30_12 1_555 1_555
C32_12 C31_12 1_555 1_555
H19_12 C32_12 1_555 1_555
C33_12 C28_12 1_555 1_555
H20_12 C33_12 1_555 1_555
N9_12 N1_12 1_555 1_555
O10_12 C34_12 1_555 1_555
C34_12 O11_12 1_555 1_555
C35_12 C34_12 1_555 1_555
C36_12 C35_12 1_555 1_555
H21_12 C36_12 1_555 1_555
C37_12 C36_12 1_555 1_555
H22_12 C37_12 1_555 1_555
C38_12 C37_12 1_555 1_555
C39_12 C38_12 1_555 1_555
H23_12 C39_12 1_555 1_555
C40_12 C35_12 1_555 1_555
H24_12 C40_12 1_555 1_555
N10_12 C45_12 1_555 1_555
H25_12 C43_12 1_555 1_555
C44_12 C43_12 1_555 1_555
H26_12 C44_12 1_555 1_555
C45_12 C44_12 1_555 1_555
N11_12 C38_12 1_555 1_555
C48_12 N12_12 1_555 1_555
N12_12 C49_12 1_555 1_555
C49_12 H29_12 1_555 1_555
N13_12 Zn2_12 1_555 1_555
C50_12 C48_12 1_555 1_555
C52_12 C48_12 1_555 1_555
N16_12 C52_12 1_555 1_555
H31_12 N16_12 1_555 1_555
H32_12 N16_12 1_555 1_555
O15_12 Zn2_12 1_555 1_555
N17_12 Zn1_12 1_555 1_555
Zn6_12 N12_12 1_555 1_555
Zn9_12 O10_12 1_555 1_555
C6_12 C7_12 1_555 1_555
C20_12 C21_12 1_555 1_555
N7_12 Zn1_12 1_555 1_555
C31_12 N9_12 1_555 1_555
C32_12 C33_12 1_555 1_555
C39_12 C40_12 1_555 1_555
N10_12 N11_12 1_555 1_555
C49_12 N13_12 1_555 1_555
N13_12 C50_12 1_555 1_555
O1_13 C1_13 1_555 1_555
C1_13 O2_13 1_555 1_555
O2_13 Zn1_13 1_555 1_555
C2_13 C1_13 1_555 1_555
C3_13 C2_13 1_555 1_555
H1_13 C3_13 1_555 1_555
C4_13 C3_13 1_555 1_555
H2_13 C4_13 1_555 1_555
C5_13 C4_13 1_555 1_555
C6_13 C5_13 1_555 1_555
H3_13 C6_13 1_555 1_555
C7_13 C2_13 1_555 1_555
H4_13 C7_13 1_555 1_555
N1_13 C5_13 1_555 1_555
O3_13 C8_13 1_555 1_555
C8_13 O4_13 1_555 1_555
C9_13 C8_13 1_555 1_555
C10_13 C9_13 1_555 1_555
H5_13 C10_13 1_555 1_555
C11_13 C10_13 1_555 1_555
H6_13 C11_13 1_555 1_555
C12_13 C11_13 1_555 1_555
C13_13 C12_13 1_555 1_555
H7_13 C13_13 1_555 1_555
C14_13 C9_13 1_555 1_555
H8_13 C14_13 1_555 1_555
N2_13 C19_13 1_555 1_555
O5_13 C15_13 1_555 1_555
C15_13 O6_13 1_555 1_555
C16_13 C15_13 1_555 1_555
C17_13 C16_13 1_555 1_555
H9_13 C17_13 1_555 1_555
C18_13 C17_13 1_555 1_555
H10_13 C18_13 1_555 1_555
C19_13 C18_13 1_555 1_555
C20_13 C19_13 1_555 1_555
H11_13 C20_13 1_555 1_555
C21_13 C16_13 1_555 1_555
H12_13 C21_13 1_555 1_555
N3_13 C12_13 1_555 1_555
C22_13 N4_13 1_555 1_555
N4_13 C23_13 1_555 1_555
C23_13 H13_13 1_555 1_555
N5_13 C23_13 1_555 1_555
C24_13 C22_13 1_555 1_555
N6_13 C24_13 1_555 1_555
C25_13 N6_13 1_555 1_555
H14_13 C25_13 1_555 1_555
N7_13 C25_13 1_555 1_555
C26_13 C22_13 1_555 1_555
N8_13 C26_13 1_555 1_555
H15_13 N8_13 1_555 1_555
H16_13 N8_13 1_555 1_555
Zn1_13 O5_13 1_555 1_555
Zn2_13 N6_13 1_555 1_555
O7_19 Zn2_13 1_555 1_555
O8_13 C27_13 1_555 1_555
C27_13 O14_5 1_555 1_555
C28_13 C27_13 1_555 1_555
C29_13 C28_13 1_555 1_555
H17_13 C29_13 1_555 1_555
C30_13 C29_13 1_555 1_555
H18_13 C30_13 1_555 1_555
C31_13 C30_13 1_555 1_555
C32_13 C31_13 1_555 1_555
H19_13 C32_13 1_555 1_555
C33_13 C28_13 1_555 1_555
H20_13 C33_13 1_555 1_555
N9_13 N1_13 1_555 1_555
O10_13 C34_13 1_555 1_555
C34_13 O11_13 1_555 1_555
C35_13 C34_13 1_555 1_555
C36_13 C35_13 1_555 1_555
H21_13 C36_13 1_555 1_555
C37_13 C36_13 1_555 1_555
H22_13 C37_13 1_555 1_555
C38_13 C37_13 1_555 1_555
C39_13 C38_13 1_555 1_555
H23_13 C39_13 1_555 1_555
C40_13 C35_13 1_555 1_555
H24_13 C40_13 1_555 1_555
N10_13 C45_13 1_555 1_555
O12_13 C41_13 1_555 1_555
C41_13 O13_13 1_555 1_555
C42_13 C41_13 1_555 1_555
C43_13 C42_13 1_555 1_555
H25_13 C43_13 1_555 1_555
C44_13 C43_13 1_555 1_555
H26_13 C44_13 1_555 1_555
C45_13 C44_13 1_555 1_555
C46_13 C45_13 1_555 1_555
H27_13 C46_13 1_555 1_555
C47_13 C42_13 1_555 1_555
H28_13 C47_13 1_555 1_555
N11_13 C38_13 1_555 1_555
C48_13 N12_13 1_555 1_555
N12_13 C49_13 1_555 1_555
C49_13 H29_13 1_555 1_555
N13_13 Zn2_13 1_555 1_555
C50_13 C48_13 1_555 1_555
N14_13 C50_13 1_555 1_555
C51_13 N14_13 1_555 1_555
H30_13 C51_13 1_555 1_555
N15_13 C51_13 1_555 1_555
C52_13 C48_13 1_555 1_555
N16_13 C52_13 1_555 1_555
H31_13 N16_13 1_555 1_555
H32_13 N16_13 1_555 1_555
Zn5_8 O12_13 1_555 1_555
Zn4_13 N5_13 1_555 1_555
O15_13 Zn2_13 1_555 1_555
O16_13 Zn4_13 1_555 1_555
N17_13 Zn1_13 1_555 1_555
N18_13 Zn5_8 1_555 1_555
Zn6_13 N12_13 1_555 1_555
Zn7_13 N4_13 1_555 1_555
Zn8_13 O3_13 1_555 1_555
Zn9_13 O10_13 1_555 1_555
C6_13 C7_13 1_555 1_555
C13_13 C14_13 1_555 1_555
N2_13 N3_13 1_555 1_555
C20_13 C21_13 1_555 1_555
N5_13 C24_13 1_555 1_555
N7_13 C26_13 1_555 1_555
N7_13 Zn1_13 1_555 1_555
O7_19 Zn4_13 1_555 1_555
C31_13 N9_13 1_555 1_555
C32_13 C33_13 1_555 1_555
C39_13 C40_13 1_555 1_555
N10_13 N11_13 1_555 1_555
C46_13 C47_13 1_555 1_555
C49_13 N13_13 1_555 1_555
N13_13 C50_13 1_555 1_555
N14_13 Zn4_13 1_555 1_555
N15_13 C52_13 1_555 1_555
N15_13 Zn5_8 1_555 1_555
O1_14 C1_14 1_555 1_555
C1_14 O2_14 1_555 1_555
O2_14 Zn1_14 1_555 1_555
C2_14 C1_14 1_555 1_555
C3_14 C2_14 1_555 1_555
H1_14 C3_14 1_555 1_555
C4_14 C3_14 1_555 1_555
H2_14 C4_14 1_555 1_555
C5_14 C4_14 1_555 1_555
C6_14 C5_14 1_555 1_555
H3_14 C6_14 1_555 1_555
C7_14 C2_14 1_555 1_555
H4_14 C7_14 1_555 1_555
N1_14 C5_14 1_555 1_555
O3_14 C8_14 1_555 1_555
C8_14 O4_14 1_555 1_555
C9_14 C8_14 1_555 1_555
C10_14 C9_14 1_555 1_555
H5_14 C10_14 1_555 1_555
C11_14 C10_14 1_555 1_555
H6_14 C11_14 1_555 1_555
C12_14 C11_14 1_555 1_555
C13_14 C12_14 1_555 1_555
H7_14 C13_14 1_555 1_555
C14_14 C9_14 1_555 1_555
H8_14 C14_14 1_555 1_555
N2_14 C19_14 1_555 1_555
O5_14 C15_14 1_555 1_555
C15_14 O6_14 1_555 1_555
C16_14 C15_14 1_555 1_555
C17_14 C16_14 1_555 1_555
H9_14 C17_14 1_555 1_555
C18_14 C17_14 1_555 1_555
H10_14 C18_14 1_555 1_555
C19_14 C18_14 1_555 1_555
C20_14 C19_14 1_555 1_555
H11_14 C20_14 1_555 1_555
C21_14 C16_14 1_555 1_555
H12_14 C21_14 1_555 1_555
N3_14 C12_14 1_555 1_555
C22_14 N4_14 1_555 1_555
N4_14 C23_14 1_555 1_555
C23_14 H13_14 1_555 1_555
N5_14 C23_14 1_555 1_555
C24_14 C22_14 1_555 1_555
N6_14 C24_14 1_555 1_555
C25_14 N6_14 1_555 1_555
H14_14 C25_14 1_555 1_555
N7_14 C25_14 1_555 1_555
C26_14 C22_14 1_555 1_555
N8_14 C26_14 1_555 1_555
H15_14 N8_14 1_555 1_555
H16_14 N8_14 1_555 1_555
Zn1_14 O5_14 1_555 1_555
Zn2_14 N6_14 1_555 1_555
O7_20 Zn2_14 1_555 1_555
O8_14 C27_14 1_555 1_555
C27_14 O14_7 1_555 1_555
C28_14 C27_14 1_555 1_555
C29_14 C28_14 1_555 1_555
H17_14 C29_14 1_555 1_555
C30_14 C29_14 1_555 1_555
H18_14 C30_14 1_555 1_555
C31_14 C30_14 1_555 1_555
C32_14 C31_14 1_555 1_555
H19_14 C32_14 1_555 1_555
C33_14 C28_14 1_555 1_555
H20_14 C33_14 1_555 1_555
N9_14 N1_14 1_555 1_555
O15_14 Zn2_14 1_555 1_555
N17_14 Zn1_14 1_555 1_555
Zn7_14 N4_14 1_555 1_555
Zn8_14 O3_14 1_555 1_555
C6_14 C7_14 1_555 1_555
C13_14 C14_14 1_555 1_555
N2_14 N3_14 1_555 1_555
C20_14 C21_14 1_555 1_555
N5_14 C24_14 1_555 1_555
N7_14 C26_14 1_555 1_555
N7_14 Zn1_14 1_555 1_555
C31_14 N9_14 1_555 1_555
C32_14 C33_14 1_555 1_555
O10_14 C34_14 1_555 1_555
C34_14 O11_14 1_555 1_555
C35_14 C34_14 1_555 1_555
C36_14 C35_14 1_555 1_555
H21_14 C36_14 1_555 1_555
C37_14 C36_14 1_555 1_555
H22_14 C37_14 1_555 1_555
C38_14 C37_14 1_555 1_555
C39_14 C38_14 1_555 1_555
H23_14 C39_14 1_555 1_555
C40_14 C35_14 1_555 1_555
H24_14 C40_14 1_555 1_555
N10_14 C45_14 1_555 1_555
O12_14 C41_14 1_555 1_555
C41_14 O13_14 1_555 1_555
C42_14 C41_14 1_555 1_555
C43_14 C42_14 1_555 1_555
H25_14 C43_14 1_555 1_555
C44_14 C43_14 1_555 1_555
H26_14 C44_14 1_555 1_555
C45_14 C44_14 1_555 1_555
C46_14 C45_14 1_555 1_555
H27_14 C46_14 1_555 1_555
C47_14 C42_14 1_555 1_555
H28_14 C47_14 1_555 1_555
N11_14 C38_14 1_555 1_555
C48_14 N12_14 1_555 1_555
N12_14 C49_14 1_555 1_555
C49_14 H29_14 1_555 1_555
C50_14 C48_14 1_555 1_555
N14_14 C50_14 1_555 1_555
C51_14 N14_14 1_555 1_555
H30_14 C51_14 1_555 1_555
N15_14 C51_14 1_555 1_555
C52_14 C48_14 1_555 1_555
N16_14 C52_14 1_555 1_555
H31_14 N16_14 1_555 1_555
H32_14 N16_14 1_555 1_555
Zn5_6 O12_14 1_555 1_555
O16_14 Zn4_14 1_555 1_555
N18_14 Zn5_6 1_555 1_555
Zn6_14 N12_14 1_555 1_555
Zn9_14 O10_14 1_555 1_555
O7_21 Zn4_14 1_555 1_555
C39_14 C40_14 1_555 1_555
N10_14 N11_14 1_555 1_555
C46_14 C47_14 1_555 1_555
C49_14 N13_14 1_555 1_555
N13_14 C50_14 1_555 1_555
N14_14 Zn4_14 1_555 1_555
N15_14 C52_14 1_555 1_555
N15_14 Zn5_6 1_555 1_555
O10_15 C34_15 1_555 1_555
C34_15 O11_15 1_555 1_555
C35_15 C34_15 1_555 1_555
C36_15 C35_15 1_555 1_555
H21_15 C36_15 1_555 1_555
C37_15 C36_15 1_555 1_555
H22_15 C37_15 1_555 1_555
C38_15 C37_15 1_555 1_555
C39_15 C38_15 1_555 1_555
H23_15 C39_15 1_555 1_555
C40_15 C35_15 1_555 1_555
H24_15 C40_15 1_555 1_555
N10_15 C45_15 1_555 1_555
O12_15 C41_15 1_555 1_555
C41_15 O13_15 1_555 1_555
C42_15 C41_15 1_555 1_555
C43_15 C42_15 1_555 1_555
H25_15 C43_15 1_555 1_555
C44_15 C43_15 1_555 1_555
H26_15 C44_15 1_555 1_555
C45_15 C44_15 1_555 1_555
C46_15 C45_15 1_555 1_555
H27_15 C46_15 1_555 1_555
C47_15 C42_15 1_555 1_555
H28_15 C47_15 1_555 1_555
N11_15 C38_15 1_555 1_555
C48_15 N12_15 1_555 1_555
N12_15 C49_15 1_555 1_555
C49_15 H29_15 1_555 1_555
C50_15 C48_15 1_555 1_555
N14_15 C50_15 1_555 1_555
C51_15 N14_15 1_555 1_555
H30_15 C51_15 1_555 1_555
N15_15 C51_15 1_555 1_555
C52_15 C48_15 1_555 1_555
N16_15 C52_15 1_555 1_555
H31_15 N16_15 1_555 1_555
H32_15 N16_15 1_555 1_555
Zn5_7 O12_15 1_555 1_555
O16_15 Zn4_15 1_555 1_555
N18_15 Zn5_7 1_555 1_555
Zn6_15 N12_15 1_555 1_555
Zn9_15 O10_15 1_555 1_555
O7_22 Zn4_15 1_555 1_555
C39_15 C40_15 1_555 1_555
N10_15 N11_15 1_555 1_555
C46_15 C47_15 1_555 1_555
C49_15 N13_15 1_555 1_555
N13_15 C50_15 1_555 1_555
N14_15 Zn4_15 1_555 1_555
N15_15 C52_15 1_555 1_555
N15_15 Zn5_7 1_555 1_555
O1_15 C1_15 1_555 1_555
C1_15 O2_15 1_555 1_555
O2_15 Zn1_15 1_555 1_555
C2_15 C1_15 1_555 1_555
C3_15 C2_15 1_555 1_555
H1_15 C3_15 1_555 1_555
C4_15 C3_15 1_555 1_555
H2_15 C4_15 1_555 1_555
C5_15 C4_15 1_555 1_555
C6_15 C5_15 1_555 1_555
H3_15 C6_15 1_555 1_555
C7_15 C2_15 1_555 1_555
H4_15 C7_15 1_555 1_555
N1_15 C5_15 1_555 1_555
O3_15 C8_15 1_555 1_555
C8_15 O4_15 1_555 1_555
C9_15 C8_15 1_555 1_555
C10_15 C9_15 1_555 1_555
H5_15 C10_15 1_555 1_555
C11_15 C10_15 1_555 1_555
H6_15 C11_15 1_555 1_555
C12_15 C11_15 1_555 1_555
C13_15 C12_15 1_555 1_555
H7_15 C13_15 1_555 1_555
C14_15 C9_15 1_555 1_555
H8_15 C14_15 1_555 1_555
N2_15 C19_15 1_555 1_555
O5_15 C15_15 1_555 1_555
C15_15 O6_15 1_555 1_555
C16_15 C15_15 1_555 1_555
C17_15 C16_15 1_555 1_555
H9_15 C17_15 1_555 1_555
C18_15 C17_15 1_555 1_555
H10_15 C18_15 1_555 1_555
C19_15 C18_15 1_555 1_555
C20_15 C19_15 1_555 1_555
H11_15 C20_15 1_555 1_555
C21_15 C16_15 1_555 1_555
H12_15 C21_15 1_555 1_555
N3_15 C12_15 1_555 1_555
C22_15 N4_15 1_555 1_555
N4_15 C23_15 1_555 1_555
C23_15 H13_15 1_555 1_555
N5_15 C23_15 1_555 1_555
C24_15 C22_15 1_555 1_555
N6_15 C24_15 1_555 1_555
C25_15 N6_15 1_555 1_555
H14_15 C25_15 1_555 1_555
N7_15 C25_15 1_555 1_555
C26_15 C22_15 1_555 1_555
N8_15 C26_15 1_555 1_555
H15_15 N8_15 1_555 1_555
H16_15 N8_15 1_555 1_555
Zn1_15 O5_15 1_555 1_555
Zn2_15 N6_15 1_555 1_555
O7_23 Zn2_15 1_555 1_555
O8_15 C27_15 1_555 1_555
C27_15 O14_6 1_555 1_555
C28_15 C27_15 1_555 1_555
C29_15 C28_15 1_555 1_555
H17_15 C29_15 1_555 1_555
C30_15 C29_15 1_555 1_555
H18_15 C30_15 1_555 1_555
C31_15 C30_15 1_555 1_555
C32_15 C31_15 1_555 1_555
H19_15 C32_15 1_555 1_555
C33_15 C28_15 1_555 1_555
H20_15 C33_15 1_555 1_555
N9_15 N1_15 1_555 1_555
O15_15 Zn2_15 1_555 1_555
N17_15 Zn1_15 1_555 1_555
Zn7_15 N4_15 1_555 1_555
Zn8_15 O3_15 1_555 1_555
C6_15 C7_15 1_555 1_555
C13_15 C14_15 1_555 1_555
N2_15 N3_15 1_555 1_555
C20_15 C21_15 1_555 1_555
N5_15 C24_15 1_555 1_555
N7_15 C26_15 1_555 1_555
N7_15 Zn1_15 1_555 1_555
C31_15 N9_15 1_555 1_555
C32_15 C33_15 1_555 1_555
O1_16 C1_16 1_555 1_555
C1_16 O2_16 1_555 1_555
O2_16 Zn1_16 1_555 1_555
C2_16 C1_16 1_555 1_555
C3_16 C2_16 1_555 1_555
H1_16 C3_16 1_555 1_555
C4_16 C3_16 1_555 1_555
H2_16 C4_16 1_555 1_555
C5_16 C4_16 1_555 1_555
C6_16 C5_16 1_555 1_555
H3_16 C6_16 1_555 1_555
C7_16 C2_16 1_555 1_555
H4_16 C7_16 1_555 1_555
N1_16 C5_16 1_555 1_555
O3_16 C8_16 1_555 1_555
C8_16 O4_16 1_555 1_555
C9_16 C8_16 1_555 1_555
C10_16 C9_16 1_555 1_555
H5_16 C10_16 1_555 1_555
C11_16 C10_16 1_555 1_555
H6_16 C11_16 1_555 1_555
C12_16 C11_16 1_555 1_555
C13_16 C12_16 1_555 1_555
H7_16 C13_16 1_555 1_555
C14_16 C9_16 1_555 1_555
H8_16 C14_16 1_555 1_555
N2_16 C19_16 1_555 1_555
O5_16 C15_16 1_555 1_555
C15_16 O6_16 1_555 1_555
C16_16 C15_16 1_555 1_555
C17_16 C16_16 1_555 1_555
H9_16 C17_16 1_555 1_555
C18_16 C17_16 1_555 1_555
H10_16 C18_16 1_555 1_555
C19_16 C18_16 1_555 1_555
C20_16 C19_16 1_555 1_555
H11_16 C20_16 1_555 1_555
C21_16 C16_16 1_555 1_555
H12_16 C21_16 1_555 1_555
N3_16 C12_16 1_555 1_555
C22_16 N4_16 1_555 1_555
N4_16 C23_16 1_555 1_555
C23_16 H13_16 1_555 1_555
N5_16 C23_16 1_555 1_555
C24_16 C22_16 1_555 1_555
N6_16 C24_16 1_555 1_555
C25_16 N6_16 1_555 1_555
H14_16 C25_16 1_555 1_555
N7_16 C25_16 1_555 1_555
C26_16 C22_16 1_555 1_555
N8_16 C26_16 1_555 1_555
H15_16 N8_16 1_555 1_555
H16_16 N8_16 1_555 1_555
Zn1_16 O5_16 1_555 1_555
Zn2_16 N6_16 1_555 1_555
O7_24 Zn2_16 1_555 1_555
O8_16 C27_16 1_555 1_555
C27_16 O14_8 1_555 1_555
C28_16 C27_16 1_555 1_555
C29_16 C28_16 1_555 1_555
H17_16 C29_16 1_555 1_555
C30_16 C29_16 1_555 1_555
H18_16 C30_16 1_555 1_555
C31_16 C30_16 1_555 1_555
C32_16 C31_16 1_555 1_555
H19_16 C32_16 1_555 1_555
C33_16 C28_16 1_555 1_555
H20_16 C33_16 1_555 1_555
N9_16 N1_16 1_555 1_555
O10_16 C34_16 1_555 1_555
C34_16 O11_16 1_555 1_555
C35_16 C34_16 1_555 1_555
C36_16 C35_16 1_555 1_555
H21_16 C36_16 1_555 1_555
C37_16 C36_16 1_555 1_555
H22_16 C37_16 1_555 1_555
C38_16 C37_16 1_555 1_555
C39_16 C38_16 1_555 1_555
H23_16 C39_16 1_555 1_555
C40_16 C35_16 1_555 1_555
H24_16 C40_16 1_555 1_555
N10_16 C45_16 1_555 1_555
O12_16 C41_16 1_555 1_555
C41_16 O13_16 1_555 1_555
C42_16 C41_16 1_555 1_555
C43_16 C42_16 1_555 1_555
H25_16 C43_16 1_555 1_555
C44_16 C43_16 1_555 1_555
H26_16 C44_16 1_555 1_555
C45_16 C44_16 1_555 1_555
C46_16 C45_16 1_555 1_555
H27_16 C46_16 1_555 1_555
C47_16 C42_16 1_555 1_555
H28_16 C47_16 1_555 1_555
N11_16 C38_16 1_555 1_555
C48_16 N12_16 1_555 1_555
N12_16 C49_16 1_555 1_555
C49_16 H29_16 1_555 1_555
N13_16 Zn2_16 1_555 1_555
C50_16 C48_16 1_555 1_555
N14_16 C50_16 1_555 1_555
C51_16 N14_16 1_555 1_555
H30_16 C51_16 1_555 1_555
N15_16 C51_16 1_555 1_555
C52_16 C48_16 1_555 1_555
N16_16 C52_16 1_555 1_555
H31_16 N16_16 1_555 1_555
H32_16 N16_16 1_555 1_555
Zn5_5 O12_16 1_555 1_555
Zn4_16 N5_16 1_555 1_555
O15_16 Zn2_16 1_555 1_555
O16_16 Zn4_16 1_555 1_555
N17_16 Zn1_16 1_555 1_555
N18_16 Zn5_5 1_555 1_555
Zn6_16 N12_16 1_555 1_555
Zn7_16 N4_16 1_555 1_555
Zn8_16 O3_16 1_555 1_555
Zn9_16 O10_16 1_555 1_555
C6_16 C7_16 1_555 1_555
C13_16 C14_16 1_555 1_555
N2_16 N3_16 1_555 1_555
C20_16 C21_16 1_555 1_555
N5_16 C24_16 1_555 1_555
N7_16 C26_16 1_555 1_555
N7_16 Zn1_16 1_555 1_555
O7_24 Zn4_16 1_555 1_555
C31_16 N9_16 1_555 1_555
C32_16 C33_16 1_555 1_555
C39_16 C40_16 1_555 1_555
N10_16 N11_16 1_555 1_555
C46_16 C47_16 1_555 1_555
C49_16 N13_16 1_555 1_555
N13_16 C50_16 1_555 1_555
N14_16 Zn4_16 1_555 1_555
N15_16 C52_16 1_555 1_555
N15_16 Zn5_5 1_555 1_555
O1_17 C1_17 1_555 1_555
C1_17 O2_17 1_555 1_555
O2_17 Zn1_17 1_555 1_555
C2_17 C1_17 1_555 1_555
C3_17 C2_17 1_555 1_555
H1_17 C3_17 1_555 1_555
C4_17 C3_17 1_555 1_555
H2_17 C4_17 1_555 1_555
C5_17 C4_17 1_555 1_555
C6_17 C5_17 1_555 1_555
H3_17 C6_17 1_555 1_555
C7_17 C2_17 1_555 1_555
H4_17 C7_17 1_555 1_555
N1_17 C5_17 1_555 1_555
O3_17 C8_17 1_555 1_555
C8_17 O4_17 1_555 1_555
C9_17 C8_17 1_555 1_555
C10_17 C9_17 1_555 1_555
H5_17 C10_17 1_555 1_555
C11_17 C10_17 1_555 1_555
H6_17 C11_17 1_555 1_555
C12_17 C11_17 1_555 1_555
C13_17 C12_17 1_555 1_555
H7_17 C13_17 1_555 1_555
C14_17 C9_17 1_555 1_555
H8_17 C14_17 1_555 1_555
N2_17 C19_17 1_555 1_555
O5_17 C15_17 1_555 1_555
C15_17 O6_17 1_555 1_555
C16_17 C15_17 1_555 1_555
C17_17 C16_17 1_555 1_555
H9_17 C17_17 1_555 1_555
C18_17 C17_17 1_555 1_555
H10_17 C18_17 1_555 1_555
C19_17 C18_17 1_555 1_555
C20_17 C19_17 1_555 1_555
H11_17 C20_17 1_555 1_555
C21_17 C16_17 1_555 1_555
H12_17 C21_17 1_555 1_555
N3_17 C12_17 1_555 1_555
C22_17 N4_17 1_555 1_555
N4_17 C23_17 1_555 1_555
C23_17 H13_17 1_555 1_555
N5_17 C23_17 1_555 1_555
C24_17 C22_17 1_555 1_555
N6_17 C24_17 1_555 1_555
C25_17 N6_17 1_555 1_555
H14_17 C25_17 1_555 1_555
N7_17 C25_17 1_555 1_555
C26_17 C22_17 1_555 1_555
N8_17 C26_17 1_555 1_555
H15_17 N8_17 1_555 1_555
H16_17 N8_17 1_555 1_555
Zn1_17 O5_17 1_555 1_555
Zn2_17 N6_17 1_555 1_555
O7_25 Zn2_17 1_555 1_555
O8_17 C27_17 1_555 1_555
C27_17 O14_4 1_555 1_555
C28_17 C27_17 1_555 1_555
C29_17 C28_17 1_555 1_555
H17_17 C29_17 1_555 1_555
C30_17 C29_17 1_555 1_555
H18_17 C30_17 1_555 1_555
C31_17 C30_17 1_555 1_555
C32_17 C31_17 1_555 1_555
H19_17 C32_17 1_555 1_555
C33_17 C28_17 1_555 1_555
H20_17 C33_17 1_555 1_555
N9_17 N1_17 1_555 1_555
O10_17 C34_17 1_555 1_555
C34_17 O11_17 1_555 1_555
C35_17 C34_17 1_555 1_555
C36_17 C35_17 1_555 1_555
H21_17 C36_17 1_555 1_555
C37_17 C36_17 1_555 1_555
H22_17 C37_17 1_555 1_555
C38_17 C37_17 1_555 1_555
C39_17 C38_17 1_555 1_555
H23_17 C39_17 1_555 1_555
C40_17 C35_17 1_555 1_555
H24_17 C40_17 1_555 1_555
N10_17 C45_17 1_555 1_555
O12_17 C41_17 1_555 1_555
C41_17 O13_17 1_555 1_555
C42_17 C41_17 1_555 1_555
C43_17 C42_17 1_555 1_555
H25_17 C43_17 1_555 1_555
C44_17 C43_17 1_555 1_555
H26_17 C44_17 1_555 1_555
C45_17 C44_17 1_555 1_555
C46_17 C45_17 1_555 1_555
H27_17 C46_17 1_555 1_555
C47_17 C42_17 1_555 1_555
H28_17 C47_17 1_555 1_555
N11_17 C38_17 1_555 1_555
C48_17 N12_17 1_555 1_555
N12_17 C49_17 1_555 1_555
C49_17 H29_17 1_555 1_555
N13_17 Zn2_17 1_555 1_555
C50_17 C48_17 1_555 1_555
N14_17 C50_17 1_555 1_555
C51_17 N14_17 1_555 1_555
H30_17 C51_17 1_555 1_555
N15_17 C51_17 1_555 1_555
C52_17 C48_17 1_555 1_555
N16_17 C52_17 1_555 1_555
H31_17 N16_17 1_555 1_555
H32_17 N16_17 1_555 1_555
Zn5 O12_17 1_555 1_555
Zn4_17 N5_17 1_555 1_555
O15_17 Zn2_17 1_555 1_555
O16_17 Zn4_17 1_555 1_555
N17_17 Zn1_17 1_555 1_555
N18_17 Zn5 1_555 1_555
Zn6_17 N12_17 1_555 1_555
Zn7_17 N4_17 1_555 1_555
Zn8_17 O3_17 1_555 1_555
Zn9_17 O10_17 1_555 1_555
C6_17 C7_17 1_555 1_555
C13_17 C14_17 1_555 1_555
N2_17 N3_17 1_555 1_555
C20_17 C21_17 1_555 1_555
N5_17 C24_17 1_555 1_555
N7_17 C26_17 1_555 1_555
N7_17 Zn1_17 1_555 1_555
O7_25 Zn4_17 1_555 1_555
C31_17 N9_17 1_555 1_555
C32_17 C33_17 1_555 1_555
C39_17 C40_17 1_555 1_555
N10_17 N11_17 1_555 1_555
C46_17 C47_17 1_555 1_555
C49_17 N13_17 1_555 1_555
N13_17 C50_17 1_555 1_555
N14_17 Zn4_17 1_555 1_555
N15_17 C52_17 1_555 1_555
N15_17 Zn5 1_555 1_555
O10_18 C34_18 1_555 1_555
C34_18 O11_18 1_555 1_555
C35_18 C34_18 1_555 1_555
C36_18 C35_18 1_555 1_555
H21_18 C36_18 1_555 1_555
C37_18 C36_18 1_555 1_555
H22_18 C37_18 1_555 1_555
C38_18 C37_18 1_555 1_555
C39_18 C38_18 1_555 1_555
H23_18 C39_18 1_555 1_555
C40_18 C35_18 1_555 1_555
H24_18 C40_18 1_555 1_555
N10_18 C45_18 1_555 1_555
O12_18 C41_18 1_555 1_555
C41_18 O13_18 1_555 1_555
C42_18 C41_18 1_555 1_555
C43_18 C42_18 1_555 1_555
H25_18 C43_18 1_555 1_555
C44_18 C43_18 1_555 1_555
H26_18 C44_18 1_555 1_555
C45_18 C44_18 1_555 1_555
C46_18 C45_18 1_555 1_555
H27_18 C46_18 1_555 1_555
C47_18 C42_18 1_555 1_555
H28_18 C47_18 1_555 1_555
N11_18 C38_18 1_555 1_555
C48_18 N12_18 1_555 1_555
N12_18 C49_18 1_555 1_555
C49_18 H29_18 1_555 1_555
C50_18 C48_18 1_555 1_555
N14_18 C50_18 1_555 1_555
C51_18 N14_18 1_555 1_555
H30_18 C51_18 1_555 1_555
N15_18 C51_18 1_555 1_555
C52_18 C48_18 1_555 1_555
N16_18 C52_18 1_555 1_555
H31_18 N16_18 1_555 1_555
H32_18 N16_18 1_555 1_555
Zn5_3 O12_18 1_555 1_555
O16_18 Zn4_18 1_555 1_555
N18_18 Zn5_3 1_555 1_555
Zn6_18 N12_18 1_555 1_555
Zn9_18 O10_18 1_555 1_555
O7_26 Zn4_18 1_555 1_555
C39_18 C40_18 1_555 1_555
N10_18 N11_18 1_555 1_555
C46_18 C47_18 1_555 1_555
C49_18 N13_18 1_555 1_555
N13_18 C50_18 1_555 1_555
N14_18 Zn4_18 1_555 1_555
N15_18 C52_18 1_555 1_555
N15_18 Zn5_3 1_555 1_555
O1_18 C1_18 1_555 1_555
C1_18 O2_18 1_555 1_555
O2_18 Zn1_18 1_555 1_555
C2_18 C1_18 1_555 1_555
C3_18 C2_18 1_555 1_555
H1_18 C3_18 1_555 1_555
C4_18 C3_18 1_555 1_555
H2_18 C4_18 1_555 1_555
C5_18 C4_18 1_555 1_555
C6_18 C5_18 1_555 1_555
H3_18 C6_18 1_555 1_555
C7_18 C2_18 1_555 1_555
H4_18 C7_18 1_555 1_555
N1_18 C5_18 1_555 1_555
O3_18 C8_18 1_555 1_555
C8_18 O4_18 1_555 1_555
C9_18 C8_18 1_555 1_555
C10_18 C9_18 1_555 1_555
H5_18 C10_18 1_555 1_555
C11_18 C10_18 1_555 1_555
H6_18 C11_18 1_555 1_555
C12_18 C11_18 1_555 1_555
C13_18 C12_18 1_555 1_555
H7_18 C13_18 1_555 1_555
C14_18 C9_18 1_555 1_555
H8_18 C14_18 1_555 1_555
N2_18 C19_18 1_555 1_555
O5_18 C15_18 1_555 1_555
C15_18 O6_18 1_555 1_555
C16_18 C15_18 1_555 1_555
C17_18 C16_18 1_555 1_555
H9_18 C17_18 1_555 1_555
C18_18 C17_18 1_555 1_555
H10_18 C18_18 1_555 1_555
C19_18 C18_18 1_555 1_555
C20_18 C19_18 1_555 1_555
H11_18 C20_18 1_555 1_555
C21_18 C16_18 1_555 1_555
H12_18 C21_18 1_555 1_555
N3_18 C12_18 1_555 1_555
C22_18 N4_18 1_555 1_555
N4_18 C23_18 1_555 1_555
C23_18 H13_18 1_555 1_555
N5_18 C23_18 1_555 1_555
C24_18 C22_18 1_555 1_555
N6_18 C24_18 1_555 1_555
C25_18 N6_18 1_555 1_555
H14_18 C25_18 1_555 1_555
N7_18 C25_18 1_555 1_555
C26_18 C22_18 1_555 1_555
N8_18 C26_18 1_555 1_555
H15_18 N8_18 1_555 1_555
H16_18 N8_18 1_555 1_555
Zn1_18 O5_18 1_555 1_555
Zn2_18 N6_18 1_555 1_555
O7_27 Zn2_18 1_555 1_555
O8_18 C27_18 1_555 1_555
C27_18 O14_2 1_555 1_555
C28_18 C27_18 1_555 1_555
C29_18 C28_18 1_555 1_555
H17_18 C29_18 1_555 1_555
C30_18 C29_18 1_555 1_555
H18_18 C30_18 1_555 1_555
C31_18 C30_18 1_555 1_555
C32_18 C31_18 1_555 1_555
H19_18 C32_18 1_555 1_555
C33_18 C28_18 1_555 1_555
H20_18 C33_18 1_555 1_555
N9_18 N1_18 1_555 1_555
O15_18 Zn2_18 1_555 1_555
N17_18 Zn1_18 1_555 1_555
Zn7_18 N4_18 1_555 1_555
Zn8_18 O3_18 1_555 1_555
C6_18 C7_18 1_555 1_555
C13_18 C14_18 1_555 1_555
N2_18 N3_18 1_555 1_555
C20_18 C21_18 1_555 1_555
N5_18 C24_18 1_555 1_555
N7_18 C26_18 1_555 1_555
N7_18 Zn1_18 1_555 1_555
C31_18 N9_18 1_555 1_555
C32_18 C33_18 1_555 1_555
O1_19 C1_19 1_555 1_555
C1_19 O2_19 1_555 1_555
O2_19 Zn1_19 1_555 1_555
C2_19 C1_19 1_555 1_555
C3_19 C2_19 1_555 1_555
H1_19 C3_19 1_555 1_555
C4_19 C3_19 1_555 1_555
H2_19 C4_19 1_555 1_555
C5_19 C4_19 1_555 1_555
C6_19 C5_19 1_555 1_555
H3_19 C6_19 1_555 1_555
C7_19 C2_19 1_555 1_555
H4_19 C7_19 1_555 1_555
N1_19 C5_19 1_555 1_555
O3_19 C8_19 1_555 1_555
C8_19 O4_19 1_555 1_555
C9_19 C8_19 1_555 1_555
C10_19 C9_19 1_555 1_555
H5_19 C10_19 1_555 1_555
C11_19 C10_19 1_555 1_555
H6_19 C11_19 1_555 1_555
C12_19 C11_19 1_555 1_555
C13_19 C12_19 1_555 1_555
H7_19 C13_19 1_555 1_555
C14_19 C9_19 1_555 1_555
H8_19 C14_19 1_555 1_555
N2_19 C19_19 1_555 1_555
O5_19 C15_19 1_555 1_555
C15_19 O6_19 1_555 1_555
C16_19 C15_19 1_555 1_555
C17_19 C16_19 1_555 1_555
H9_19 C17_19 1_555 1_555
C18_19 C17_19 1_555 1_555
H10_19 C18_19 1_555 1_555
C19_19 C18_19 1_555 1_555
C20_19 C19_19 1_555 1_555
H11_19 C20_19 1_555 1_555
C21_19 C16_19 1_555 1_555
H12_19 C21_19 1_555 1_555
N3_19 C12_19 1_555 1_555
C22_19 N4_19 1_555 1_555
N4_19 C23_19 1_555 1_555
C23_19 H13_19 1_555 1_555
N5_19 C23_19 1_555 1_555
C24_19 C22_19 1_555 1_555
N6_19 C24_19 1_555 1_555
C25_19 N6_19 1_555 1_555
H14_19 C25_19 1_555 1_555
N7_19 C25_19 1_555 1_555
C26_19 C22_19 1_555 1_555
N8_19 C26_19 1_555 1_555
H15_19 N8_19 1_555 1_555
H16_19 N8_19 1_555 1_555
Zn1_19 O5_19 1_555 1_555
Zn2_19 N6_19 1_555 1_555
O7_28 Zn2_19 1_555 1_555
O8_19 C27_19 1_555 1_555
C27_19 O14_3 1_555 1_555
C28_19 C27_19 1_555 1_555
C29_19 C28_19 1_555 1_555
H17_19 C29_19 1_555 1_555
C30_19 C29_19 1_555 1_555
H18_19 C30_19 1_555 1_555
C31_19 C30_19 1_555 1_555
C32_19 C31_19 1_555 1_555
H19_19 C32_19 1_555 1_555
C33_19 C28_19 1_555 1_555
H20_19 C33_19 1_555 1_555
N9_19 N1_19 1_555 1_555
O15_19 Zn2_19 1_555 1_555
N17_19 Zn1_19 1_555 1_555
Zn7_19 N4_19 1_555 1_555
Zn8_19 O3_19 1_555 1_555
C6_19 C7_19 1_555 1_555
C13_19 C14_19 1_555 1_555
N2_19 N3_19 1_555 1_555
C20_19 C21_19 1_555 1_555
N5_19 C24_19 1_555 1_555
N7_19 C26_19 1_555 1_555
N7_19 Zn1_19 1_555 1_555
C31_19 N9_19 1_555 1_555
C32_19 C33_19 1_555 1_555
O10_19 C34_19 1_555 1_555
C34_19 O11_19 1_555 1_555
C35_19 C34_19 1_555 1_555
C36_19 C35_19 1_555 1_555
H21_19 C36_19 1_555 1_555
C37_19 C36_19 1_555 1_555
H22_19 C37_19 1_555 1_555
C38_19 C37_19 1_555 1_555
C39_19 C38_19 1_555 1_555
H23_19 C39_19 1_555 1_555
C40_19 C35_19 1_555 1_555
H24_19 C40_19 1_555 1_555
N10_19 C45_19 1_555 1_555
O12_19 C41_19 1_555 1_555
C41_19 O13_19 1_555 1_555
C42_19 C41_19 1_555 1_555
C43_19 C42_19 1_555 1_555
H25_19 C43_19 1_555 1_555
C44_19 C43_19 1_555 1_555
H26_19 C44_19 1_555 1_555
C45_19 C44_19 1_555 1_555
C46_19 C45_19 1_555 1_555
H27_19 C46_19 1_555 1_555
C47_19 C42_19 1_555 1_555
H28_19 C47_19 1_555 1_555
N11_19 C38_19 1_555 1_555
C48_19 N12_19 1_555 1_555
N12_19 C49_19 1_555 1_555
C49_19 H29_19 1_555 1_555
C50_19 C48_19 1_555 1_555
N14_19 C50_19 1_555 1_555
C51_19 N14_19 1_555 1_555
H30_19 C51_19 1_555 1_555
N15_19 C51_19 1_555 1_555
C52_19 C48_19 1_555 1_555
N16_19 C52_19 1_555 1_555
H31_19 N16_19 1_555 1_555
H32_19 N16_19 1_555 1_555
Zn5_2 O12_19 1_555 1_555
O16_19 Zn4_19 1_555 1_555
N18_19 Zn5_2 1_555 1_555
Zn6_19 N12_19 1_555 1_555
Zn9_19 O10_19 1_555 1_555
O7_29 Zn4_19 1_555 1_555
C39_19 C40_19 1_555 1_555
N10_19 N11_19 1_555 1_555
C46_19 C47_19 1_555 1_555
C49_19 N13_19 1_555 1_555
N13_19 C50_19 1_555 1_555
N14_19 Zn4_19 1_555 1_555
N15_19 C52_19 1_555 1_555
N15_19 Zn5_2 1_555 1_555
O1_20 C1_20 1_555 1_555
C1_20 O2_20 1_555 1_555
O2_20 Zn1_20 1_555 1_555
C2_20 C1_20 1_555 1_555
C3_20 C2_20 1_555 1_555
H1_20 C3_20 1_555 1_555
C4_20 C3_20 1_555 1_555
H2_20 C4_20 1_555 1_555
C5_20 C4_20 1_555 1_555
C6_20 C5_20 1_555 1_555
H3_20 C6_20 1_555 1_555
C7_20 C2_20 1_555 1_555
H4_20 C7_20 1_555 1_555
N1_20 C5_20 1_555 1_555
O3_20 C8_20 1_555 1_555
C8_20 O4_20 1_555 1_555
C9_20 C8_20 1_555 1_555
C10_20 C9_20 1_555 1_555
H5_20 C10_20 1_555 1_555
C11_20 C10_20 1_555 1_555
H6_20 C11_20 1_555 1_555
C12_20 C11_20 1_555 1_555
C13_20 C12_20 1_555 1_555
H7_20 C13_20 1_555 1_555
C14_20 C9_20 1_555 1_555
H8_20 C14_20 1_555 1_555
N2_20 C19_20 1_555 1_555
O5_20 C15_20 1_555 1_555
C15_20 O6_20 1_555 1_555
C16_20 C15_20 1_555 1_555
C17_20 C16_20 1_555 1_555
H9_20 C17_20 1_555 1_555
C18_20 C17_20 1_555 1_555
H10_20 C18_20 1_555 1_555
C19_20 C18_20 1_555 1_555
C20_20 C19_20 1_555 1_555
H11_20 C20_20 1_555 1_555
C21_20 C16_20 1_555 1_555
H12_20 C21_20 1_555 1_555
N3_20 C12_20 1_555 1_555
C22_20 N4_20 1_555 1_555
N4_20 C23_20 1_555 1_555
C23_20 H13_20 1_555 1_555
N5_20 C23_20 1_555 1_555
C24_20 C22_20 1_555 1_555
N6_20 C24_20 1_555 1_555
C25_20 N6_20 1_555 1_555
H14_20 C25_20 1_555 1_555
N7_20 C25_20 1_555 1_555
C26_20 C22_20 1_555 1_555
N8_20 C26_20 1_555 1_555
H15_20 N8_20 1_555 1_555
H16_20 N8_20 1_555 1_555
Zn1_20 O5_20 1_555 1_555
Zn2_20 N6_20 1_555 1_555
O7_30 Zn2_20 1_555 1_555
O8_20 C27_20 1_555 1_555
C27_20 O14 1_555 1_555
C28_20 C27_20 1_555 1_555
C29_20 C28_20 1_555 1_555
H17_20 C29_20 1_555 1_555
C30_20 C29_20 1_555 1_555
H18_20 C30_20 1_555 1_555
C31_20 C30_20 1_555 1_555
C32_20 C31_20 1_555 1_555
H19_20 C32_20 1_555 1_555
C33_20 C28_20 1_555 1_555
H20_20 C33_20 1_555 1_555
N9_20 N1_20 1_555 1_555
O10_20 C34_20 1_555 1_555
C34_20 O11_20 1_555 1_555
C35_20 C34_20 1_555 1_555
C36_20 C35_20 1_555 1_555
H21_20 C36_20 1_555 1_555
C37_20 C36_20 1_555 1_555
H22_20 C37_20 1_555 1_555
C38_20 C37_20 1_555 1_555
C39_20 C38_20 1_555 1_555
H23_20 C39_20 1_555 1_555
C40_20 C35_20 1_555 1_555
H24_20 C40_20 1_555 1_555
N10_20 C45_20 1_555 1_555
O12_20 C41_20 1_555 1_555
C41_20 O13_20 1_555 1_555
C42_20 C41_20 1_555 1_555
C43_20 C42_20 1_555 1_555
H25_20 C43_20 1_555 1_555
C44_20 C43_20 1_555 1_555
H26_20 C44_20 1_555 1_555
C45_20 C44_20 1_555 1_555
C46_20 C45_20 1_555 1_555
H27_20 C46_20 1_555 1_555
C47_20 C42_20 1_555 1_555
H28_20 C47_20 1_555 1_555
N11_20 C38_20 1_555 1_555
C48_20 N12_20 1_555 1_555
N12_20 C49_20 1_555 1_555
C49_20 H29_20 1_555 1_555
N13_20 Zn2_20 1_555 1_555
C50_20 C48_20 1_555 1_555
N14_20 C50_20 1_555 1_555
C51_20 N14_20 1_555 1_555
H30_20 C51_20 1_555 1_555
N15_20 C51_20 1_555 1_555
C52_20 C48_20 1_555 1_555
N16_20 C52_20 1_555 1_555
H31_20 N16_20 1_555 1_555
H32_20 N16_20 1_555 1_555
Zn5_4 O12_20 1_555 1_555
Zn4_20 N5_20 1_555 1_555
O15_20 Zn2_20 1_555 1_555
O16_20 Zn4_20 1_555 1_555
N17_20 Zn1_20 1_555 1_555
N18_20 Zn5_4 1_555 1_555
Zn6_20 N12_20 1_555 1_555
Zn7_20 N4_20 1_555 1_555
Zn8_20 O3_20 1_555 1_555
Zn9_20 O10_20 1_555 1_555
C6_20 C7_20 1_555 1_555
C13_20 C14_20 1_555 1_555
N2_20 N3_20 1_555 1_555
C20_20 C21_20 1_555 1_555
N5_20 C24_20 1_555 1_555
N7_20 C26_20 1_555 1_555
N7_20 Zn1_20 1_555 1_555
O7_30 Zn4_20 1_555 1_555
C31_20 N9_20 1_555 1_555
C32_20 C33_20 1_555 1_555
C39_20 C40_20 1_555 1_555
N10_20 N11_20 1_555 1_555
C46_20 C47_20 1_555 1_555
C49_20 N13_20 1_555 1_555
N13_20 C50_20 1_555 1_555
N14_20 Zn4_20 1_555 1_555
N15_20 C52_20 1_555 1_555
N15_20 Zn5_4 1_555 1_555
O10_21 C34_21 1_555 1_555
C34_21 O11_21 1_555 1_555
C35_21 C34_21 1_555 1_555
C36_21 C35_21 1_555 1_555
H21_21 C36_21 1_555 1_555
C37_21 C36_21 1_555 1_555
H22_21 C37_21 1_555 1_555
C38_21 C37_21 1_555 1_555
C39_21 C38_21 1_555 1_555
H23_21 C39_21 1_555 1_555
C40_21 C35_21 1_555 1_555
H24_21 C40_21 1_555 1_555
N10_21 C45_21 1_555 1_555
O12_21 C41_21 1_555 1_555
C41_21 O13_21 1_555 1_555
C42_21 C41_21 1_555 1_555
C43_21 C42_21 1_555 1_555
H25_21 C43_21 1_555 1_555
C44_21 C43_21 1_555 1_555
H26_21 C44_21 1_555 1_555
C45_21 C44_21 1_555 1_555
C46_21 C45_21 1_555 1_555
H27_21 C46_21 1_555 1_555
C47_21 C42_21 1_555 1_555
H28_21 C47_21 1_555 1_555
N11_21 C38_21 1_555 1_555
C48_21 N12_21 1_555 1_555
N12_21 C49_21 1_555 1_555
C49_21 H29_21 1_555 1_555
C50_21 C48_21 1_555 1_555
N14_21 C50_21 1_555 1_555
C51_21 N14_21 1_555 1_555
H30_21 C51_21 1_555 1_555
N15_21 C51_21 1_555 1_555
C52_21 C48_21 1_555 1_555
N16_21 C52_21 1_555 1_555
H31_21 N16_21 1_555 1_555
H32_21 N16_21 1_555 1_555
Zn5_11 O12_21 1_555 1_555
O16_21 Zn4_21 1_555 1_555
N18_21 Zn5_11 1_555 1_555
Zn6_21 N12_21 1_555 1_555
Zn9_21 O10_21 1_555 1_555
O7_31 Zn4_21 1_555 1_555
C39_21 C40_21 1_555 1_555
N10_21 N11_21 1_555 1_555
C46_21 C47_21 1_555 1_555
C49_21 N13_21 1_555 1_555
N13_21 C50_21 1_555 1_555
N14_21 Zn4_21 1_555 1_555
N15_21 C52_21 1_555 1_555
N15_21 Zn5_11 1_555 1_555
O1_21 C1_21 1_555 1_555
C1_21 O2_21 1_555 1_555
O2_21 Zn1_21 1_555 1_555
C2_21 C1_21 1_555 1_555
C3_21 C2_21 1_555 1_555
H1_21 C3_21 1_555 1_555
C4_21 C3_21 1_555 1_555
H2_21 C4_21 1_555 1_555
C5_21 C4_21 1_555 1_555
C6_21 C5_21 1_555 1_555
H3_21 C6_21 1_555 1_555
C7_21 C2_21 1_555 1_555
H4_21 C7_21 1_555 1_555
N1_21 C5_21 1_555 1_555
O3_21 C8_21 1_555 1_555
C8_21 O4_21 1_555 1_555
C9_21 C8_21 1_555 1_555
C10_21 C9_21 1_555 1_555
H5_21 C10_21 1_555 1_555
C11_21 C10_21 1_555 1_555
H6_21 C11_21 1_555 1_555
C12_21 C11_21 1_555 1_555
C13_21 C12_21 1_555 1_555
H7_21 C13_21 1_555 1_555
C14_21 C9_21 1_555 1_555
H8_21 C14_21 1_555 1_555
N2_21 C19_21 1_555 1_555
O5_21 C15_21 1_555 1_555
C15_21 O6_21 1_555 1_555
C16_21 C15_21 1_555 1_555
C17_21 C16_21 1_555 1_555
H9_21 C17_21 1_555 1_555
C18_21 C17_21 1_555 1_555
H10_21 C18_21 1_555 1_555
C19_21 C18_21 1_555 1_555
C20_21 C19_21 1_555 1_555
H11_21 C20_21 1_555 1_555
C21_21 C16_21 1_555 1_555
H12_21 C21_21 1_555 1_555
N3_21 C12_21 1_555 1_555
C22_21 N4_21 1_555 1_555
N4_21 C23_21 1_555 1_555
C23_21 H13_21 1_555 1_555
N5_21 C23_21 1_555 1_555
C24_21 C22_21 1_555 1_555
N6_21 C24_21 1_555 1_555
C25_21 N6_21 1_555 1_555
H14_21 C25_21 1_555 1_555
N7_21 C25_21 1_555 1_555
C26_21 C22_21 1_555 1_555
N8_21 C26_21 1_555 1_555
H15_21 N8_21 1_555 1_555
H16_21 N8_21 1_555 1_555
Zn1_21 O5_21 1_555 1_555
Zn2_21 N6_21 1_555 1_555
O7_32 Zn2_21 1_555 1_555
O8_21 C27_21 1_555 1_555
C27_21 O14_10 1_555 1_555
C28_21 C27_21 1_555 1_555
C29_21 C28_21 1_555 1_555
H17_21 C29_21 1_555 1_555
C30_21 C29_21 1_555 1_555
H18_21 C30_21 1_555 1_555
C31_21 C30_21 1_555 1_555
C32_21 C31_21 1_555 1_555
H19_21 C32_21 1_555 1_555
C33_21 C28_21 1_555 1_555
H20_21 C33_21 1_555 1_555
N9_21 N1_21 1_555 1_555
O15_21 Zn2_21 1_555 1_555
N17_21 Zn1_21 1_555 1_555
Zn7_21 N4_21 1_555 1_555
Zn8_21 O3_21 1_555 1_555
C6_21 C7_21 1_555 1_555
C13_21 C14_21 1_555 1_555
N2_21 N3_21 1_555 1_555
C20_21 C21_21 1_555 1_555
N5_21 C24_21 1_555 1_555
N7_21 C26_21 1_555 1_555
N7_21 Zn1_21 1_555 1_555
C31_21 N9_21 1_555 1_555
C32_21 C33_21 1_555 1_555
O1_22 C1_22 1_555 1_555
C1_22 O2_22 1_555 1_555
O2_22 Zn1_22 1_555 1_555
C2_22 C1_22 1_555 1_555
C3_22 C2_22 1_555 1_555
H1_22 C3_22 1_555 1_555
C4_22 C3_22 1_555 1_555
H2_22 C4_22 1_555 1_555
C5_22 C4_22 1_555 1_555
C6_22 C5_22 1_555 1_555
H3_22 C6_22 1_555 1_555
C7_22 C2_22 1_555 1_555
H4_22 C7_22 1_555 1_555
N1_22 C5_22 1_555 1_555
O3_22 C8_22 1_555 1_555
C8_22 O4_22 1_555 1_555
C9_22 C8_22 1_555 1_555
C10_22 C9_22 1_555 1_555
H5_22 C10_22 1_555 1_555
C11_22 C10_22 1_555 1_555
H6_22 C11_22 1_555 1_555
C12_22 C11_22 1_555 1_555
C13_22 C12_22 1_555 1_555
H7_22 C13_22 1_555 1_555
C14_22 C9_22 1_555 1_555
H8_22 C14_22 1_555 1_555
N2_22 C19_22 1_555 1_555
O5_22 C15_22 1_555 1_555
C15_22 O6_22 1_555 1_555
C16_22 C15_22 1_555 1_555
C17_22 C16_22 1_555 1_555
H9_22 C17_22 1_555 1_555
C18_22 C17_22 1_555 1_555
H10_22 C18_22 1_555 1_555
C19_22 C18_22 1_555 1_555
C20_22 C19_22 1_555 1_555
H11_22 C20_22 1_555 1_555
C21_22 C16_22 1_555 1_555
H12_22 C21_22 1_555 1_555
N3_22 C12_22 1_555 1_555
C22_22 N4_22 1_555 1_555
N4_22 C23_22 1_555 1_555
C23_22 H13_22 1_555 1_555
N5_22 C23_22 1_555 1_555
C24_22 C22_22 1_555 1_555
N6_22 C24_22 1_555 1_555
C25_22 N6_22 1_555 1_555
H14_22 C25_22 1_555 1_555
N7_22 C25_22 1_555 1_555
C26_22 C22_22 1_555 1_555
N8_22 C26_22 1_555 1_555
H15_22 N8_22 1_555 1_555
H16_22 N8_22 1_555 1_555
Zn1_22 O5_22 1_555 1_555
Zn2_22 N6_22 1_555 1_555
O7_33 Zn2_22 1_555 1_555
O8_22 C27_22 1_555 1_555
C27_22 O14_12 1_555 1_555
C28_22 C27_22 1_555 1_555
C29_22 C28_22 1_555 1_555
H17_22 C29_22 1_555 1_555
C30_22 C29_22 1_555 1_555
H18_22 C30_22 1_555 1_555
C31_22 C30_22 1_555 1_555
C32_22 C31_22 1_555 1_555
H19_22 C32_22 1_555 1_555
C33_22 C28_22 1_555 1_555
H20_22 C33_22 1_555 1_555
N9_22 N1_22 1_555 1_555
O10_22 C34_22 1_555 1_555
C34_22 O11_22 1_555 1_555
C35_22 C34_22 1_555 1_555
C36_22 C35_22 1_555 1_555
H21_22 C36_22 1_555 1_555
C37_22 C36_22 1_555 1_555
H22_22 C37_22 1_555 1_555
C38_22 C37_22 1_555 1_555
C39_22 C38_22 1_555 1_555
H23_22 C39_22 1_555 1_555
C40_22 C35_22 1_555 1_555
H24_22 C40_22 1_555 1_555
N10_22 C45_22 1_555 1_555
O12_22 C41_22 1_555 1_555
C41_22 O13_22 1_555 1_555
C42_22 C41_22 1_555 1_555
C43_22 C42_22 1_555 1_555
H25_22 C43_22 1_555 1_555
C44_22 C43_22 1_555 1_555
H26_22 C44_22 1_555 1_555
C45_22 C44_22 1_555 1_555
C46_22 C45_22 1_555 1_555
H27_22 C46_22 1_555 1_555
C47_22 C42_22 1_555 1_555
H28_22 C47_22 1_555 1_555
N11_22 C38_22 1_555 1_555
C48_22 N12_22 1_555 1_555
N12_22 C49_22 1_555 1_555
C49_22 H29_22 1_555 1_555
N13_22 Zn2_22 1_555 1_555
C50_22 C48_22 1_555 1_555
N14_22 C50_22 1_555 1_555
C51_22 N14_22 1_555 1_555
H30_22 C51_22 1_555 1_555
N15_22 C51_22 1_555 1_555
C52_22 C48_22 1_555 1_555
N16_22 C52_22 1_555 1_555
H31_22 N16_22 1_555 1_555
H32_22 N16_22 1_555 1_555
Zn5_9 O12_22 1_555 1_555
Zn4_22 N5_22 1_555 1_555
O15_22 Zn2_22 1_555 1_555
O16_22 Zn4_22 1_555 1_555
N17_22 Zn1_22 1_555 1_555
N18_22 Zn5_9 1_555 1_555
Zn6_22 N12_22 1_555 1_555
Zn7_22 N4_22 1_555 1_555
Zn8_22 O3_22 1_555 1_555
Zn9_22 O10_22 1_555 1_555
C6_22 C7_22 1_555 1_555
C13_22 C14_22 1_555 1_555
N2_22 N3_22 1_555 1_555
C20_22 C21_22 1_555 1_555
N5_22 C24_22 1_555 1_555
N7_22 C26_22 1_555 1_555
N7_22 Zn1_22 1_555 1_555
O7_33 Zn4_22 1_555 1_555
C31_22 N9_22 1_555 1_555
C32_22 C33_22 1_555 1_555
C39_22 C40_22 1_555 1_555
N10_22 N11_22 1_555 1_555
C46_22 C47_22 1_555 1_555
C49_22 N13_22 1_555 1_555
N13_22 C50_22 1_555 1_555
N14_22 Zn4_22 1_555 1_555
N15_22 C52_22 1_555 1_555
N15_22 Zn5_9 1_555 1_555
O1_23 C1_23 1_555 1_555
C1_23 O2_23 1_555 1_555
O2_23 Zn1_23 1_555 1_555
C2_23 C1_23 1_555 1_555
C3_23 C2_23 1_555 1_555
H1_23 C3_23 1_555 1_555
C4_23 C3_23 1_555 1_555
H2_23 C4_23 1_555 1_555
C5_23 C4_23 1_555 1_555
C6_23 C5_23 1_555 1_555
H3_23 C6_23 1_555 1_555
C7_23 C2_23 1_555 1_555
H4_23 C7_23 1_555 1_555
N1_23 C5_23 1_555 1_555
O3_23 C8_23 1_555 1_555
C8_23 O4_23 1_555 1_555
C9_23 C8_23 1_555 1_555
C10_23 C9_23 1_555 1_555
H5_23 C10_23 1_555 1_555
C11_23 C10_23 1_555 1_555
H6_23 C11_23 1_555 1_555
C12_23 C11_23 1_555 1_555
C13_23 C12_23 1_555 1_555
H7_23 C13_23 1_555 1_555
C14_23 C9_23 1_555 1_555
H8_23 C14_23 1_555 1_555
N2_23 C19_23 1_555 1_555
O5_23 C15_23 1_555 1_555
C15_23 O6_23 1_555 1_555
C16_23 C15_23 1_555 1_555
C17_23 C16_23 1_555 1_555
H9_23 C17_23 1_555 1_555
C18_23 C17_23 1_555 1_555
H10_23 C18_23 1_555 1_555
C19_23 C18_23 1_555 1_555
C20_23 C19_23 1_555 1_555
H11_23 C20_23 1_555 1_555
C21_23 C16_23 1_555 1_555
H12_23 C21_23 1_555 1_555
N3_23 C12_23 1_555 1_555
C22_23 N4_23 1_555 1_555
N4_23 C23_23 1_555 1_555
C23_23 H13_23 1_555 1_555
N5_23 C23_23 1_555 1_555
C24_23 C22_23 1_555 1_555
N6_23 C24_23 1_555 1_555
C25_23 N6_23 1_555 1_555
H14_23 C25_23 1_555 1_555
N7_23 C25_23 1_555 1_555
C26_23 C22_23 1_555 1_555
N8_23 C26_23 1_555 1_555
H15_23 N8_23 1_555 1_555
H16_23 N8_23 1_555 1_555
Zn1_23 O5_23 1_555 1_555
Zn2_23 N6_23 1_555 1_555
O7_34 Zn2_23 1_555 1_555
O8_23 C27_23 1_555 1_555
C27_23 O14_9 1_555 1_555
C28_23 C27_23 1_555 1_555
C29_23 C28_23 1_555 1_555
H17_23 C29_23 1_555 1_555
C30_23 C29_23 1_555 1_555
H18_23 C30_23 1_555 1_555
C31_23 C30_23 1_555 1_555
C32_23 C31_23 1_555 1_555
H19_23 C32_23 1_555 1_555
C33_23 C28_23 1_555 1_555
H20_23 C33_23 1_555 1_555
N9_23 N1_23 1_555 1_555
O10_23 C34_23 1_555 1_555
C34_23 O11_23 1_555 1_555
C35_23 C34_23 1_555 1_555
C36_23 C35_23 1_555 1_555
H21_23 C36_23 1_555 1_555
C37_23 C36_23 1_555 1_555
H22_23 C37_23 1_555 1_555
C38_23 C37_23 1_555 1_555
C39_23 C38_23 1_555 1_555
H23_23 C39_23 1_555 1_555
C40_23 C35_23 1_555 1_555
H24_23 C40_23 1_555 1_555
N10_23 C45_23 1_555 1_555
O12_23 C41_23 1_555 1_555
C41_23 O13_23 1_555 1_555
C42_23 C41_23 1_555 1_555
C43_23 C42_23 1_555 1_555
H25_23 C43_23 1_555 1_555
C44_23 C43_23 1_555 1_555
H26_23 C44_23 1_555 1_555
C45_23 C44_23 1_555 1_555
C46_23 C45_23 1_555 1_555
H27_23 C46_23 1_555 1_555
C47_23 C42_23 1_555 1_555
H28_23 C47_23 1_555 1_555
N11_23 C38_23 1_555 1_555
C48_23 N12_23 1_555 1_555
N12_23 C49_23 1_555 1_555
C49_23 H29_23 1_555 1_555
N13_23 Zn2_23 1_555 1_555
C50_23 C48_23 1_555 1_555
N14_23 C50_23 1_555 1_555
C51_23 N14_23 1_555 1_555
H30_23 C51_23 1_555 1_555
N15_23 C51_23 1_555 1_555
C52_23 C48_23 1_555 1_555
N16_23 C52_23 1_555 1_555
H31_23 N16_23 1_555 1_555
H32_23 N16_23 1_555 1_555
Zn5_12 O12_23 1_555 1_555
Zn4_23 N5_23 1_555 1_555
O15_23 Zn2_23 1_555 1_555
O16_23 Zn4_23 1_555 1_555
N17_23 Zn1_23 1_555 1_555
N18_23 Zn5_12 1_555 1_555
Zn6_23 N12_23 1_555 1_555
Zn7_23 N4_23 1_555 1_555
Zn8_23 O3_23 1_555 1_555
Zn9_23 O10_23 1_555 1_555
C6_23 C7_23 1_555 1_555
C13_23 C14_23 1_555 1_555
N2_23 N3_23 1_555 1_555
C20_23 C21_23 1_555 1_555
N5_23 C24_23 1_555 1_555
N7_23 C26_23 1_555 1_555
N7_23 Zn1_23 1_555 1_555
O7_34 Zn4_23 1_555 1_555
C31_23 N9_23 1_555 1_555
C32_23 C33_23 1_555 1_555
C39_23 C40_23 1_555 1_555
N10_23 N11_23 1_555 1_555
C46_23 C47_23 1_555 1_555
C49_23 N13_23 1_555 1_555
N13_23 C50_23 1_555 1_555
N14_23 Zn4_23 1_555 1_555
N15_23 C52_23 1_555 1_555
N15_23 Zn5_12 1_555 1_555
O1_24 C1_24 1_555 1_555
C1_24 O2_24 1_555 1_555
O2_24 Zn1_24 1_555 1_555
C2_24 C1_24 1_555 1_555
C3_24 C2_24 1_555 1_555
H1_24 C3_24 1_555 1_555
C4_24 C3_24 1_555 1_555
H2_24 C4_24 1_555 1_555
C5_24 C4_24 1_555 1_555
C6_24 C5_24 1_555 1_555
H3_24 C6_24 1_555 1_555
C7_24 C2_24 1_555 1_555
H4_24 C7_24 1_555 1_555
N1_24 C5_24 1_555 1_555
O3_24 C8_24 1_555 1_555
C8_24 O4_24 1_555 1_555
C9_24 C8_24 1_555 1_555
C10_24 C9_24 1_555 1_555
H5_24 C10_24 1_555 1_555
C11_24 C10_24 1_555 1_555
H6_24 C11_24 1_555 1_555
C12_24 C11_24 1_555 1_555
C13_24 C12_24 1_555 1_555
H7_24 C13_24 1_555 1_555
C14_24 C9_24 1_555 1_555
H8_24 C14_24 1_555 1_555
N2_24 C19_24 1_555 1_555
O5_24 C15_24 1_555 1_555
C15_24 O6_24 1_555 1_555
C16_24 C15_24 1_555 1_555
C17_24 C16_24 1_555 1_555
H9_24 C17_24 1_555 1_555
C18_24 C17_24 1_555 1_555
H10_24 C18_24 1_555 1_555
C19_24 C18_24 1_555 1_555
C20_24 C19_24 1_555 1_555
H11_24 C20_24 1_555 1_555
C21_24 C16_24 1_555 1_555
H12_24 C21_24 1_555 1_555
N3_24 C12_24 1_555 1_555
C22_24 N4_24 1_555 1_555
N4_24 C23_24 1_555 1_555
C23_24 H13_24 1_555 1_555
N5_24 C23_24 1_555 1_555
C24_24 C22_24 1_555 1_555
N6_24 C24_24 1_555 1_555
C25_24 N6_24 1_555 1_555
H14_24 C25_24 1_555 1_555
N7_24 C25_24 1_555 1_555
C26_24 C22_24 1_555 1_555
N8_24 C26_24 1_555 1_555
H15_24 N8_24 1_555 1_555
H16_24 N8_24 1_555 1_555
Zn1_24 O5_24 1_555 1_555
Zn2_24 N6_24 1_555 1_555
O7_35 Zn2_24 1_555 1_555
O8_24 C27_24 1_555 1_555
C27_24 O14_11 1_555 1_555
C28_24 C27_24 1_555 1_555
C29_24 C28_24 1_555 1_555
H17_24 C29_24 1_555 1_555
C30_24 C29_24 1_555 1_555
H18_24 C30_24 1_555 1_555
C31_24 C30_24 1_555 1_555
C32_24 C31_24 1_555 1_555
H19_24 C32_24 1_555 1_555
C33_24 C28_24 1_555 1_555
H20_24 C33_24 1_555 1_555
N9_24 N1_24 1_555 1_555
O15_24 Zn2_24 1_555 1_555
N17_24 Zn1_24 1_555 1_555
Zn7_24 N4_24 1_555 1_555
Zn8_24 O3_24 1_555 1_555
C6_24 C7_24 1_555 1_555
C13_24 C14_24 1_555 1_555
N2_24 N3_24 1_555 1_555
C20_24 C21_24 1_555 1_555
N5_24 C24_24 1_555 1_555
N7_24 C26_24 1_555 1_555
N7_24 Zn1_24 1_555 1_555
C31_24 N9_24 1_555 1_555
C32_24 C33_24 1_555 1_555
O10_24 C34_24 1_555 1_555
C34_24 O11_24 1_555 1_555
C35_24 C34_24 1_555 1_555
C36_24 C35_24 1_555 1_555
H21_24 C36_24 1_555 1_555
C37_24 C36_24 1_555 1_555
H22_24 C37_24 1_555 1_555
C38_24 C37_24 1_555 1_555
C39_24 C38_24 1_555 1_555
H23_24 C39_24 1_555 1_555
C40_24 C35_24 1_555 1_555
H24_24 C40_24 1_555 1_555
N10_24 C45_24 1_555 1_555
O12_24 C41_24 1_555 1_555
C41_24 O13_24 1_555 1_555
C42_24 C41_24 1_555 1_555
C43_24 C42_24 1_555 1_555
H25_24 C43_24 1_555 1_555
C44_24 C43_24 1_555 1_555
H26_24 C44_24 1_555 1_555
C45_24 C44_24 1_555 1_555
C46_24 C45_24 1_555 1_555
H27_24 C46_24 1_555 1_555
C47_24 C42_24 1_555 1_555
H28_24 C47_24 1_555 1_555
N11_24 C38_24 1_555 1_555
C48_24 N12_24 1_555 1_555
N12_24 C49_24 1_555 1_555
C49_24 H29_24 1_555 1_555
C50_24 C48_24 1_555 1_555
N14_24 C50_24 1_555 1_555
C51_24 N14_24 1_555 1_555
H30_24 C51_24 1_555 1_555
N15_24 C51_24 1_555 1_555
C52_24 C48_24 1_555 1_555
N16_24 C52_24 1_555 1_555
H31_24 N16_24 1_555 1_555
H32_24 N16_24 1_555 1_555
Zn5_10 O12_24 1_555 1_555
O16_24 Zn4_24 1_555 1_555
N18_24 Zn5_10 1_555 1_555
Zn6_24 N12_24 1_555 1_555
Zn9_24 O10_24 1_555 1_555
O7_36 Zn4_24 1_555 1_555
C39_24 C40_24 1_555 1_555
N10_24 N11_24 1_555 1_555
C46_24 C47_24 1_555 1_555
C49_24 N13_24 1_555 1_555
N13_24 C50_24 1_555 1_555
N14_24 Zn4_24 1_555 1_555
N15_24 C52_24 1_555 1_555
N15_24 Zn5_10 1_555 1_555
O1_25 C1_25 1_555 1_555
C1_25 O2_25 1_555 1_555
O2_25 Zn7_16 1_555 1_555
C2_25 C1_25 1_555 1_555
C3_25 C2_25 1_555 1_555
H1_25 C3_25 1_555 1_555
C4_25 C3_25 1_555 1_555
H2_25 C4_25 1_555 1_555
C5_25 C4_25 1_555 1_555
C6_25 C5_25 1_555 1_555
H3_25 C6_25 1_555 1_555
C7_25 C2_25 1_555 1_555
H4_25 C7_25 1_555 1_555
N1_25 C5_25 1_555 1_555
O15_5 C8_25 1_555 1_555
C8_25 O4_25 1_555 1_555
C9_25 C8_25 1_555 1_555
C10_25 C9_25 1_555 1_555
H5_25 C10_25 1_555 1_555
C11_25 C10_25 1_555 1_555
H6_25 C11_25 1_555 1_555
C12_25 C11_25 1_555 1_555
C13_25 C12_25 1_555 1_555
H7_25 C13_25 1_555 1_555
C14_25 C9_25 1_555 1_555
H8_25 C14_25 1_555 1_555
N2_25 C19_25 1_555 1_555
O5_25 C15_25 1_555 1_555
C15_25 O6_25 1_555 1_555
C16_25 C15_25 1_555 1_555
C17_25 C16_25 1_555 1_555
H9_25 C17_25 1_555 1_555
C18_25 C17_25 1_555 1_555
H10_25 C18_25 1_555 1_555
C19_25 C18_25 1_555 1_555
C20_25 C19_25 1_555 1_555
H11_25 C20_25 1_555 1_555
C21_25 C16_25 1_555 1_555
H12_25 C21_25 1_555 1_555
N3_25 C12_25 1_555 1_555
C22_25 N18_16 1_555 1_555
N18_16 C23_25 1_555 1_555
C23_25 H13_25 1_555 1_555
N5_25 C23_25 1_555 1_555
C24_25 C22_25 1_555 1_555
N6_25 C24_25 1_555 1_555
C25_25 N6_25 1_555 1_555
H14_25 C25_25 1_555 1_555
N7_25 C25_25 1_555 1_555
C26_25 C22_25 1_555 1_555
N8_25 C26_25 1_555 1_555
H15_25 N8_25 1_555 1_555
H16_25 N8_25 1_555 1_555
Zn7_16 O5_25 1_555 1_555
Zn8_9 N6_25 1_555 1_555
O7_37 Zn8_9 1_555 1_555
O8_25 C27_25 1_555 1_555
C27_25 O9_13 1_555 1_555
O9_13 Zn7_9 1_555 1_555
C28_25 C27_25 1_555 1_555
C29_25 C28_25 1_555 1_555
H17_25 C29_25 1_555 1_555
C30_25 C29_25 1_555 1_555
H18_25 C30_25 1_555 1_555
C31_25 C30_25 1_555 1_555
C32_25 C31_25 1_555 1_555
H19_25 C32_25 1_555 1_555
C33_25 C28_25 1_555 1_555
H20_25 C33_25 1_555 1_555
N9_25 N1_25 1_555 1_555
O16_8 C34_25 1_555 1_555
C34_25 O11_25 1_555 1_555
C35_25 C34_25 1_555 1_555
C36_25 C35_25 1_555 1_555
H21_25 C36_25 1_555 1_555
C37_25 C36_25 1_555 1_555
H22_25 C37_25 1_555 1_555
C38_25 C37_25 1_555 1_555
C39_25 C38_25 1_555 1_555
H23_25 C39_25 1_555 1_555
C40_25 C35_25 1_555 1_555
H24_25 C40_25 1_555 1_555
N10_25 C45_25 1_555 1_555
O12_25 C41_25 1_555 1_555
C41_25 O13_25 1_555 1_555
C42_25 C41_25 1_555 1_555
C43_25 C42_25 1_555 1_555
H25_25 C43_25 1_555 1_555
C44_25 C43_25 1_555 1_555
H26_25 C44_25 1_555 1_555
C45_25 C44_25 1_555 1_555
C46_25 C45_25 1_555 1_555
H27_25 C46_25 1_555 1_555
C47_25 C42_25 1_555 1_555
H28_25 C47_25 1_555 1_555
N11_25 C38_25 1_555 1_555
C48_25 N17_16 1_555 1_555
N17_16 C49_25 1_555 1_555
C49_25 H29_25 1_555 1_555
N13_25 Zn8_9 1_555 1_555
C50_25 C48_25 1_555 1_555
N14_25 C50_25 1_555 1_555
C51_25 N14_25 1_555 1_555
H30_25 C51_25 1_555 1_555
N15_25 C51_25 1_555 1_555
C52_25 C48_25 1_555 1_555
N16_25 C52_25 1_555 1_555
H31_25 N16_25 1_555 1_555
H32_25 N16_25 1_555 1_555
Zn6_16 O12_25 1_555 1_555
Zn9_11 N5_25 1_555 1_555
O14_13 Zn6_16 1_555 1_555
C6_25 C7_25 1_555 1_555
C13_25 C14_25 1_555 1_555
N2_25 N3_25 1_555 1_555
C20_25 C21_25 1_555 1_555
N5_25 C24_25 1_555 1_555
N7_25 C26_25 1_555 1_555
N7_25 Zn7_16 1_555 1_555
O7_37 Zn9_11 1_555 1_555
C31_25 N9_25 1_555 1_555
C32_25 C33_25 1_555 1_555
C39_25 C40_25 1_555 1_555
N10_25 N11_25 1_555 1_555
C46_25 C47_25 1_555 1_555
C49_25 N13_25 1_555 1_555
N13_25 C50_25 1_555 1_555
N14_25 Zn9_11 1_555 1_555
N15_25 C52_25 1_555 1_555
N15_25 Zn6_16 1_555 1_555
O15_7 C8_26 1_555 1_555
C8_26 O4_26 1_555 1_555
C9_26 C8_26 1_555 1_555
C10_26 C9_26 1_555 1_555
H5_26 C10_26 1_555 1_555
C11_26 C10_26 1_555 1_555
H6_26 C11_26 1_555 1_555
C12_26 C11_26 1_555 1_555
C13_26 C12_26 1_555 1_555
H7_26 C13_26 1_555 1_555
C14_26 C9_26 1_555 1_555
H8_26 C14_26 1_555 1_555
N2_26 C19_26 1_555 1_555
H9_26 C17_26 1_555 1_555
C18_26 C17_26 1_555 1_555
H10_26 C18_26 1_555 1_555
C19_26 C18_26 1_555 1_555
N3_26 C12_26 1_555 1_555
C22_26 N18_15 1_555 1_555
N18_15 C23_26 1_555 1_555
C23_26 H13_26 1_555 1_555
N5_26 C23_26 1_555 1_555
C24_26 C22_26 1_555 1_555
C26_26 C22_26 1_555 1_555
N8_26 C26_26 1_555 1_555
H15_26 N8_26 1_555 1_555
H16_26 N8_26 1_555 1_555
O12_26 C41_26 1_555 1_555
C41_26 O13_26 1_555 1_555
C42_26 C41_26 1_555 1_555
H27_26 C46_26 1_555 1_555
C47_26 C42_26 1_555 1_555
H28_26 C47_26 1_555 1_555
C51_26 N14_26 1_555 1_555
H30_26 C51_26 1_555 1_555
N15_26 C51_26 1_555 1_555
Zn6_15 O12_26 1_555 1_555
Zn9_10 N5_26 1_555 1_555
O14_14 Zn6_15 1_555 1_555
C13_26 C14_26 1_555 1_555
N2_26 N3_26 1_555 1_555
N5_26 C24_26 1_555 1_555
O7_38 Zn9_10 1_555 1_555
C46_26 C47_26 1_555 1_555
N14_26 Zn9_10 1_555 1_555
N15_26 Zn6_15 1_555 1_555
O1_26 C1_26 1_555 1_555
C1_26 O2_26 1_555 1_555
O2_26 Zn7_15 1_555 1_555
C2_26 C1_26 1_555 1_555
C3_26 C2_26 1_555 1_555
H1_26 C3_26 1_555 1_555
C4_26 C3_26 1_555 1_555
H2_26 C4_26 1_555 1_555
C5_26 C4_26 1_555 1_555
C6_26 C5_26 1_555 1_555
H3_26 C6_26 1_555 1_555
C7_26 C2_26 1_555 1_555
H4_26 C7_26 1_555 1_555
N1_26 C5_26 1_555 1_555
O5_26 C15_26 1_555 1_555
C15_26 O6_26 1_555 1_555
C16_26 C15_26 1_555 1_555
H11_26 C20_26 1_555 1_555
C21_26 C16_26 1_555 1_555
H12_26 C21_26 1_555 1_555
C25_26 N6_26 1_555 1_555
H14_26 C25_26 1_555 1_555
N7_26 C25_26 1_555 1_555
Zn7_15 O5_26 1_555 1_555
Zn8_12 N6_26 1_555 1_555
O7_39 Zn8_12 1_555 1_555
O8_26 C27_26 1_555 1_555
C27_26 O9_14 1_555 1_555
O9_14 Zn7_12 1_555 1_555
C28_26 C27_26 1_555 1_555
C29_26 C28_26 1_555 1_555
H17_26 C29_26 1_555 1_555
C30_26 C29_26 1_555 1_555
H18_26 C30_26 1_555 1_555
C31_26 C30_26 1_555 1_555
C32_26 C31_26 1_555 1_555
H19_26 C32_26 1_555 1_555
C33_26 C28_26 1_555 1_555
H20_26 C33_26 1_555 1_555
N9_26 N1_26 1_555 1_555
O16_6 C34_26 1_555 1_555
C34_26 O11_26 1_555 1_555
C35_26 C34_26 1_555 1_555
C36_26 C35_26 1_555 1_555
H21_26 C36_26 1_555 1_555
C37_26 C36_26 1_555 1_555
H22_26 C37_26 1_555 1_555
C38_26 C37_26 1_555 1_555
C39_26 C38_26 1_555 1_555
H23_26 C39_26 1_555 1_555
C40_26 C35_26 1_555 1_555
H24_26 C40_26 1_555 1_555
N10_26 C45_26 1_555 1_555
H25_26 C43_26 1_555 1_555
C44_26 C43_26 1_555 1_555
H26_26 C44_26 1_555 1_555
C45_26 C44_26 1_555 1_555
N11_26 C38_26 1_555 1_555
C48_26 N17_15 1_555 1_555
N17_15 C49_26 1_555 1_555
C49_26 H29_26 1_555 1_555
N13_26 Zn8_12 1_555 1_555
C50_26 C48_26 1_555 1_555
C52_26 C48_26 1_555 1_555
N16_26 C52_26 1_555 1_555
H31_26 N16_26 1_555 1_555
H32_26 N16_26 1_555 1_555
C6_26 C7_26 1_555 1_555
C20_26 C21_26 1_555 1_555
N7_26 Zn7_15 1_555 1_555
C31_26 N9_26 1_555 1_555
C32_26 C33_26 1_555 1_555
C39_26 C40_26 1_555 1_555
N10_26 N11_26 1_555 1_555
C49_26 N13_26 1_555 1_555
N13_26 C50_26 1_555 1_555
O1_27 C1_27 1_555 1_555
C1_27 O2_27 1_555 1_555
O2_27 Zn7_13 1_555 1_555
C2_27 C1_27 1_555 1_555
C3_27 C2_27 1_555 1_555
H1_27 C3_27 1_555 1_555
C4_27 C3_27 1_555 1_555
H2_27 C4_27 1_555 1_555
C5_27 C4_27 1_555 1_555
C6_27 C5_27 1_555 1_555
H3_27 C6_27 1_555 1_555
C7_27 C2_27 1_555 1_555
H4_27 C7_27 1_555 1_555
N1_27 C5_27 1_555 1_555
O15_8 C8_27 1_555 1_555
C8_27 O4_27 1_555 1_555
C9_27 C8_27 1_555 1_555
C10_27 C9_27 1_555 1_555
H5_27 C10_27 1_555 1_555
C11_27 C10_27 1_555 1_555
H6_27 C11_27 1_555 1_555
C12_27 C11_27 1_555 1_555
C13_27 C12_27 1_555 1_555
H7_27 C13_27 1_555 1_555
C14_27 C9_27 1_555 1_555
H8_27 C14_27 1_555 1_555
N2_27 C19_27 1_555 1_555
O5_27 C15_27 1_555 1_555
C15_27 O6_27 1_555 1_555
C16_27 C15_27 1_555 1_555
C17_27 C16_27 1_555 1_555
H9_27 C17_27 1_555 1_555
C18_27 C17_27 1_555 1_555
H10_27 C18_27 1_555 1_555
C19_27 C18_27 1_555 1_555
C20_27 C19_27 1_555 1_555
H11_27 C20_27 1_555 1_555
C21_27 C16_27 1_555 1_555
H12_27 C21_27 1_555 1_555
N3_27 C12_27 1_555 1_555
C22_27 N18_13 1_555 1_555
N18_13 C23_27 1_555 1_555
C23_27 H13_27 1_555 1_555
N5_27 C23_27 1_555 1_555
C24_27 C22_27 1_555 1_555
N6_27 C24_27 1_555 1_555
C25_27 N6_27 1_555 1_555
H14_27 C25_27 1_555 1_555
N7_27 C25_27 1_555 1_555
C26_27 C22_27 1_555 1_555
N8_27 C26_27 1_555 1_555
H15_27 N8_27 1_555 1_555
H16_27 N8_27 1_555 1_555
Zn7_13 O5_27 1_555 1_555
Zn8_10 N6_27 1_555 1_555
O7_40 Zn8_10 1_555 1_555
O8_27 C27_27 1_555 1_555
C27_27 O9_15 1_555 1_555
O9_15 Zn7_10 1_555 1_555
C28_27 C27_27 1_555 1_555
C29_27 C28_27 1_555 1_555
H17_27 C29_27 1_555 1_555
C30_27 C29_27 1_555 1_555
H18_27 C30_27 1_555 1_555
C31_27 C30_27 1_555 1_555
C32_27 C31_27 1_555 1_555
H19_27 C32_27 1_555 1_555
C33_27 C28_27 1_555 1_555
H20_27 C33_27 1_555 1_555
N9_27 N1_27 1_555 1_555
O16_5 C34_27 1_555 1_555
C34_27 O11_27 1_555 1_555
C35_27 C34_27 1_555 1_555
C36_27 C35_27 1_555 1_555
H21_27 C36_27 1_555 1_555
C37_27 C36_27 1_555 1_555
H22_27 C37_27 1_555 1_555
C38_27 C37_27 1_555 1_555
C39_27 C38_27 1_555 1_555
H23_27 C39_27 1_555 1_555
C40_27 C35_27 1_555 1_555
H24_27 C40_27 1_555 1_555
N10_27 C45_27 1_555 1_555
O12_27 C41_27 1_555 1_555
C41_27 O13_27 1_555 1_555
C42_27 C41_27 1_555 1_555
C43_27 C42_27 1_555 1_555
H25_27 C43_27 1_555 1_555
C44_27 C43_27 1_555 1_555
H26_27 C44_27 1_555 1_555
C45_27 C44_27 1_555 1_555
C46_27 C45_27 1_555 1_555
H27_27 C46_27 1_555 1_555
C47_27 C42_27 1_555 1_555
H28_27 C47_27 1_555 1_555
N11_27 C38_27 1_555 1_555
C48_27 N17_13 1_555 1_555
N17_13 C49_27 1_555 1_555
C49_27 H29_27 1_555 1_555
N13_27 Zn8_10 1_555 1_555
C50_27 C48_27 1_555 1_555
N14_27 C50_27 1_555 1_555
C51_27 N14_27 1_555 1_555
H30_27 C51_27 1_555 1_555
N15_27 C51_27 1_555 1_555
C52_27 C48_27 1_555 1_555
N16_27 C52_27 1_555 1_555
H31_27 N16_27 1_555 1_555
H32_27 N16_27 1_555 1_555
Zn6_13 O12_27 1_555 1_555
Zn9_12 N5_27 1_555 1_555
O14_15 Zn6_13 1_555 1_555
C6_27 C7_27 1_555 1_555
C13_27 C14_27 1_555 1_555
N2_27 N3_27 1_555 1_555
C20_27 C21_27 1_555 1_555
N5_27 C24_27 1_555 1_555
N7_27 C26_27 1_555 1_555
N7_27 Zn7_13 1_555 1_555
O7_40 Zn9_12 1_555 1_555
C31_27 N9_27 1_555 1_555
C32_27 C33_27 1_555 1_555
C39_27 C40_27 1_555 1_555
N10_27 N11_27 1_555 1_555
C46_27 C47_27 1_555 1_555
C49_27 N13_27 1_555 1_555
N13_27 C50_27 1_555 1_555
N14_27 Zn9_12 1_555 1_555
N15_27 C52_27 1_555 1_555
N15_27 Zn6_13 1_555 1_555
O1_28 C1_28 1_555 1_555
C1_28 O2_28 1_555 1_555
O2_28 Zn7_14 1_555 1_555
C2_28 C1_28 1_555 1_555
C3_28 C2_28 1_555 1_555
H1_28 C3_28 1_555 1_555
C4_28 C3_28 1_555 1_555
H2_28 C4_28 1_555 1_555
C5_28 C4_28 1_555 1_555
C6_28 C5_28 1_555 1_555
H3_28 C6_28 1_555 1_555
C7_28 C2_28 1_555 1_555
H4_28 C7_28 1_555 1_555
N1_28 C5_28 1_555 1_555
O5_28 C15_28 1_555 1_555
C15_28 O6_28 1_555 1_555
C16_28 C15_28 1_555 1_555
H11_28 C20_28 1_555 1_555
C21_28 C16_28 1_555 1_555
H12_28 C21_28 1_555 1_555
C25_28 N6_28 1_555 1_555
H14_28 C25_28 1_555 1_555
N7_28 C25_28 1_555 1_555
Zn7_14 O5_28 1_555 1_555
Zn8_11 N6_28 1_555 1_555
O7_41 Zn8_11 1_555 1_555
O8_28 C27_28 1_555 1_555
C27_28 O9_16 1_555 1_555
O9_16 Zn7_11 1_555 1_555
C28_28 C27_28 1_555 1_555
C29_28 C28_28 1_555 1_555
H17_28 C29_28 1_555 1_555
C30_28 C29_28 1_555 1_555
H18_28 C30_28 1_555 1_555
C31_28 C30_28 1_555 1_555
C32_28 C31_28 1_555 1_555
H19_28 C32_28 1_555 1_555
C33_28 C28_28 1_555 1_555
H20_28 C33_28 1_555 1_555
N9_28 N1_28 1_555 1_555
O16_7 C34_28 1_555 1_555
C34_28 O11_28 1_555 1_555
C35_28 C34_28 1_555 1_555
C36_28 C35_28 1_555 1_555
H21_28 C36_28 1_555 1_555
C37_28 C36_28 1_555 1_555
H22_28 C37_28 1_555 1_555
C38_28 C37_28 1_555 1_555
C39_28 C38_28 1_555 1_555
H23_28 C39_28 1_555 1_555
C40_28 C35_28 1_555 1_555
H24_28 C40_28 1_555 1_555
N10_28 C45_28 1_555 1_555
H25_28 C43_28 1_555 1_555
C44_28 C43_28 1_555 1_555
H26_28 C44_28 1_555 1_555
C45_28 C44_28 1_555 1_555
N11_28 C38_28 1_555 1_555
C48_28 N17_14 1_555 1_555
N17_14 C49_28 1_555 1_555
C49_28 H29_28 1_555 1_555
N13_28 Zn8_11 1_555 1_555
C50_28 C48_28 1_555 1_555
C52_28 C48_28 1_555 1_555
N16_28 C52_28 1_555 1_555
H31_28 N16_28 1_555 1_555
H32_28 N16_28 1_555 1_555
C6_28 C7_28 1_555 1_555
C20_28 C21_28 1_555 1_555
N7_28 Zn7_14 1_555 1_555
C31_28 N9_28 1_555 1_555
C32_28 C33_28 1_555 1_555
C39_28 C40_28 1_555 1_555
N10_28 N11_28 1_555 1_555
C49_28 N13_28 1_555 1_555
N13_28 C50_28 1_555 1_555
O15_6 C8_28 1_555 1_555
C8_28 O4_28 1_555 1_555
C9_28 C8_28 1_555 1_555
C10_28 C9_28 1_555 1_555
H5_28 C10_28 1_555 1_555
C11_28 C10_28 1_555 1_555
H6_28 C11_28 1_555 1_555
C12_28 C11_28 1_555 1_555
C13_28 C12_28 1_555 1_555
H7_28 C13_28 1_555 1_555
C14_28 C9_28 1_555 1_555
H8_28 C14_28 1_555 1_555
N2_28 C19_28 1_555 1_555
H9_28 C17_28 1_555 1_555
C18_28 C17_28 1_555 1_555
H10_28 C18_28 1_555 1_555
C19_28 C18_28 1_555 1_555
N3_28 C12_28 1_555 1_555
C22_28 N18_14 1_555 1_555
N18_14 C23_28 1_555 1_555
C23_28 H13_28 1_555 1_555
N5_28 C23_28 1_555 1_555
C24_28 C22_28 1_555 1_555
C26_28 C22_28 1_555 1_555
N8_28 C26_28 1_555 1_555
H15_28 N8_28 1_555 1_555
H16_28 N8_28 1_555 1_555
O12_28 C41_28 1_555 1_555
C41_28 O13_28 1_555 1_555
C42_28 C41_28 1_555 1_555
H27_28 C46_28 1_555 1_555
C47_28 C42_28 1_555 1_555
H28_28 C47_28 1_555 1_555
C51_28 N14_28 1_555 1_555
H30_28 C51_28 1_555 1_555
N15_28 C51_28 1_555 1_555
Zn6_14 O12_28 1_555 1_555
Zn9_9 N5_28 1_555 1_555
O14_16 Zn6_14 1_555 1_555
C13_28 C14_28 1_555 1_555
N2_28 N3_28 1_555 1_555
N5_28 C24_28 1_555 1_555
O7_42 Zn9_9 1_555 1_555
C46_28 C47_28 1_555 1_555
N14_28 Zn9_9 1_555 1_555
N15_28 Zn6_14 1_555 1_555
O1_29 C1_29 1_555 1_555
C1_29 O2_29 1_555 1_555
O2_29 Zn7_22 1_555 1_555
C2_29 C1_29 1_555 1_555
C3_29 C2_29 1_555 1_555
H1_29 C3_29 1_555 1_555
C4_29 C3_29 1_555 1_555
H2_29 C4_29 1_555 1_555
C5_29 C4_29 1_555 1_555
C6_29 C5_29 1_555 1_555
H3_29 C6_29 1_555 1_555
C7_29 C2_29 1_555 1_555
H4_29 C7_29 1_555 1_555
N1_29 C5_29 1_555 1_555
O15_9 C8_29 1_555 1_555
C8_29 O4_29 1_555 1_555
C9_29 C8_29 1_555 1_555
C10_29 C9_29 1_555 1_555
H5_29 C10_29 1_555 1_555
C11_29 C10_29 1_555 1_555
H6_29 C11_29 1_555 1_555
C12_29 C11_29 1_555 1_555
C13_29 C12_29 1_555 1_555
H7_29 C13_29 1_555 1_555
C14_29 C9_29 1_555 1_555
H8_29 C14_29 1_555 1_555
N2_29 C19_29 1_555 1_555
O5_29 C15_29 1_555 1_555
C15_29 O6_29 1_555 1_555
C16_29 C15_29 1_555 1_555
C17_29 C16_29 1_555 1_555
H9_29 C17_29 1_555 1_555
C18_29 C17_29 1_555 1_555
H10_29 C18_29 1_555 1_555
C19_29 C18_29 1_555 1_555
C20_29 C19_29 1_555 1_555
H11_29 C20_29 1_555 1_555
C21_29 C16_29 1_555 1_555
H12_29 C21_29 1_555 1_555
N3_29 C12_29 1_555 1_555
C22_29 N18_22 1_555 1_555
N18_22 C23_29 1_555 1_555
C23_29 H13_29 1_555 1_555
N5_29 C23_29 1_555 1_555
C24_29 C22_29 1_555 1_555
N6_29 C24_29 1_555 1_555
C25_29 N6_29 1_555 1_555
H14_29 C25_29 1_555 1_555
N7_29 C25_29 1_555 1_555
C26_29 C22_29 1_555 1_555
N8_29 C26_29 1_555 1_555
H15_29 N8_29 1_555 1_555
H16_29 N8_29 1_555 1_555
Zn7_22 O5_29 1_555 1_555
Zn8 N6_29 1_555 1_555
O7_43 Zn8 1_555 1_555
O8_29 C27_29 1_555 1_555
C27_29 O9_17 1_555 1_555
O9_17 Zn7 1_555 1_555
C28_29 C27_29 1_555 1_555
C29_29 C28_29 1_555 1_555
H17_29 C29_29 1_555 1_555
C30_29 C29_29 1_555 1_555
H18_29 C30_29 1_555 1_555
C31_29 C30_29 1_555 1_555
C32_29 C31_29 1_555 1_555
H19_29 C32_29 1_555 1_555
C33_29 C28_29 1_555 1_555
H20_29 C33_29 1_555 1_555
N9_29 N1_29 1_555 1_555
O16_12 C34_29 1_555 1_555
C34_29 O11_29 1_555 1_555
C35_29 C34_29 1_555 1_555
C36_29 C35_29 1_555 1_555
H21_29 C36_29 1_555 1_555
C37_29 C36_29 1_555 1_555
H22_29 C37_29 1_555 1_555
C38_29 C37_29 1_555 1_555
C39_29 C38_29 1_555 1_555
H23_29 C39_29 1_555 1_555
C40_29 C35_29 1_555 1_555
H24_29 C40_29 1_555 1_555
N10_29 C45_29 1_555 1_555
O12_29 C41_29 1_555 1_555
C41_29 O13_29 1_555 1_555
C42_29 C41_29 1_555 1_555
C43_29 C42_29 1_555 1_555
H25_29 C43_29 1_555 1_555
C44_29 C43_29 1_555 1_555
H26_29 C44_29 1_555 1_555
C45_29 C44_29 1_555 1_555
C46_29 C45_29 1_555 1_555
H27_29 C46_29 1_555 1_555
C47_29 C42_29 1_555 1_555
H28_29 C47_29 1_555 1_555
N11_29 C38_29 1_555 1_555
C48_29 N17_22 1_555 1_555
N17_22 C49_29 1_555 1_555
C49_29 H29_29 1_555 1_555
N13_29 Zn8 1_555 1_555
C50_29 C48_29 1_555 1_555
N14_29 C50_29 1_555 1_555
C51_29 N14_29 1_555 1_555
H30_29 C51_29 1_555 1_555
N15_29 C51_29 1_555 1_555
C52_29 C48_29 1_555 1_555
N16_29 C52_29 1_555 1_555
H31_29 N16_29 1_555 1_555
H32_29 N16_29 1_555 1_555
Zn6_22 O12_29 1_555 1_555
Zn9_3 N5_29 1_555 1_555
O14_17 Zn6_22 1_555 1_555
C6_29 C7_29 1_555 1_555
C13_29 C14_29 1_555 1_555
N2_29 N3_29 1_555 1_555
C20_29 C21_29 1_555 1_555
N5_29 C24_29 1_555 1_555
N7_29 C26_29 1_555 1_555
N7_29 Zn7_22 1_555 1_555
O7_43 Zn9_3 1_555 1_555
C31_29 N9_29 1_555 1_555
C32_29 C33_29 1_555 1_555
C39_29 C40_29 1_555 1_555
N10_29 N11_29 1_555 1_555
C46_29 C47_29 1_555 1_555
C49_29 N13_29 1_555 1_555
N13_29 C50_29 1_555 1_555
N14_29 Zn9_3 1_555 1_555
N15_29 C52_29 1_555 1_555
N15_29 Zn6_22 1_555 1_555
O15_11 C8_30 1_555 1_555
C8_30 O4_30 1_555 1_555
C9_30 C8_30 1_555 1_555
C10_30 C9_30 1_555 1_555
H5_30 C10_30 1_555 1_555
C11_30 C10_30 1_555 1_555
H6_30 C11_30 1_555 1_555
C12_30 C11_30 1_555 1_555
C13_30 C12_30 1_555 1_555
H7_30 C13_30 1_555 1_555
C14_30 C9_30 1_555 1_555
H8_30 C14_30 1_555 1_555
N2_30 C19_30 1_555 1_555
H9_30 C17_30 1_555 1_555
C18_30 C17_30 1_555 1_555
H10_30 C18_30 1_555 1_555
C19_30 C18_30 1_555 1_555
N3_30 C12_30 1_555 1_555
C22_30 N18_21 1_555 1_555
N18_21 C23_30 1_555 1_555
C23_30 H13_30 1_555 1_555
N5_30 C23_30 1_555 1_555
C24_30 C22_30 1_555 1_555
C26_30 C22_30 1_555 1_555
N8_30 C26_30 1_555 1_555
H15_30 N8_30 1_555 1_555
H16_30 N8_30 1_555 1_555
O12_30 C41_30 1_555 1_555
C41_30 O13_30 1_555 1_555
C42_30 C41_30 1_555 1_555
H27_30 C46_30 1_555 1_555
C47_30 C42_30 1_555 1_555
H28_30 C47_30 1_555 1_555
C51_30 N14_30 1_555 1_555
H30_30 C51_30 1_555 1_555
N15_30 C51_30 1_555 1_555
Zn6_21 O12_30 1_555 1_555
Zn9_2 N5_30 1_555 1_555
O14_18 Zn6_21 1_555 1_555
C13_30 C14_30 1_555 1_555
N2_30 N3_30 1_555 1_555
N5_30 C24_30 1_555 1_555
O7_44 Zn9_2 1_555 1_555
C46_30 C47_30 1_555 1_555
N14_30 Zn9_2 1_555 1_555
N15_30 Zn6_21 1_555 1_555
O1_30 C1_30 1_555 1_555
C1_30 O2_30 1_555 1_555
O2_30 Zn7_21 1_555 1_555
C2_30 C1_30 1_555 1_555
C3_30 C2_30 1_555 1_555
H1_30 C3_30 1_555 1_555
C4_30 C3_30 1_555 1_555
H2_30 C4_30 1_555 1_555
C5_30 C4_30 1_555 1_555
C6_30 C5_30 1_555 1_555
H3_30 C6_30 1_555 1_555
C7_30 C2_30 1_555 1_555
H4_30 C7_30 1_555 1_555
N1_30 C5_30 1_555 1_555
O5_30 C15_30 1_555 1_555
C15_30 O6_30 1_555 1_555
C16_30 C15_30 1_555 1_555
H11_30 C20_30 1_555 1_555
C21_30 C16_30 1_555 1_555
H12_30 C21_30 1_555 1_555
C25_30 N6_30 1_555 1_555
H14_30 C25_30 1_555 1_555
N7_30 C25_30 1_555 1_555
Zn7_21 O5_30 1_555 1_555
Zn8_4 N6_30 1_555 1_555
O7_45 Zn8_4 1_555 1_555
O8_30 C27_30 1_555 1_555
C27_30 O9_18 1_555 1_555
O9_18 Zn7_4 1_555 1_555
C28_30 C27_30 1_555 1_555
C29_30 C28_30 1_555 1_555
H17_30 C29_30 1_555 1_555
C30_30 C29_30 1_555 1_555
H18_30 C30_30 1_555 1_555
C31_30 C30_30 1_555 1_555
C32_30 C31_30 1_555 1_555
H19_30 C32_30 1_555 1_555
C33_30 C28_30 1_555 1_555
H20_30 C33_30 1_555 1_555
N9_30 N1_30 1_555 1_555
O16_10 C34_30 1_555 1_555
C34_30 O11_30 1_555 1_555
C35_30 C34_30 1_555 1_555
C36_30 C35_30 1_555 1_555
H21_30 C36_30 1_555 1_555
C37_30 C36_30 1_555 1_555
H22_30 C37_30 1_555 1_555
C38_30 C37_30 1_555 1_555
C39_30 C38_30 1_555 1_555
H23_30 C39_30 1_555 1_555
C40_30 C35_30 1_555 1_555
H24_30 C40_30 1_555 1_555
N10_30 C45_30 1_555 1_555
H25_30 C43_30 1_555 1_555
C44_30 C43_30 1_555 1_555
H26_30 C44_30 1_555 1_555
C45_30 C44_30 1_555 1_555
N11_30 C38_30 1_555 1_555
C48_30 N17_21 1_555 1_555
N17_21 C49_30 1_555 1_555
C49_30 H29_30 1_555 1_555
N13_30 Zn8_4 1_555 1_555
C50_30 C48_30 1_555 1_555
C52_30 C48_30 1_555 1_555
N16_30 C52_30 1_555 1_555
H31_30 N16_30 1_555 1_555
H32_30 N16_30 1_555 1_555
C6_30 C7_30 1_555 1_555
C20_30 C21_30 1_555 1_555
N7_30 Zn7_21 1_555 1_555
C31_30 N9_30 1_555 1_555
C32_30 C33_30 1_555 1_555
C39_30 C40_30 1_555 1_555
N10_30 N11_30 1_555 1_555
C49_30 N13_30 1_555 1_555
N13_30 C50_30 1_555 1_555
O1_31 C1_31 1_555 1_555
C1_31 O2_31 1_555 1_555
O2_31 Zn7_23 1_555 1_555
C2_31 C1_31 1_555 1_555
C3_31 C2_31 1_555 1_555
H1_31 C3_31 1_555 1_555
C4_31 C3_31 1_555 1_555
H2_31 C4_31 1_555 1_555
C5_31 C4_31 1_555 1_555
C6_31 C5_31 1_555 1_555
H3_31 C6_31 1_555 1_555
C7_31 C2_31 1_555 1_555
H4_31 C7_31 1_555 1_555
N1_31 C5_31 1_555 1_555
O15_12 C8_31 1_555 1_555
C8_31 O4_31 1_555 1_555
C9_31 C8_31 1_555 1_555
C10_31 C9_31 1_555 1_555
H5_31 C10_31 1_555 1_555
C11_31 C10_31 1_555 1_555
H6_31 C11_31 1_555 1_555
C12_31 C11_31 1_555 1_555
C13_31 C12_31 1_555 1_555
H7_31 C13_31 1_555 1_555
C14_31 C9_31 1_555 1_555
H8_31 C14_31 1_555 1_555
N2_31 C19_31 1_555 1_555
O5_31 C15_31 1_555 1_555
C15_31 O6_31 1_555 1_555
C16_31 C15_31 1_555 1_555
C17_31 C16_31 1_555 1_555
H9_31 C17_31 1_555 1_555
C18_31 C17_31 1_555 1_555
H10_31 C18_31 1_555 1_555
C19_31 C18_31 1_555 1_555
C20_31 C19_31 1_555 1_555
H11_31 C20_31 1_555 1_555
C21_31 C16_31 1_555 1_555
H12_31 C21_31 1_555 1_555
N3_31 C12_31 1_555 1_555
C22_31 N18_23 1_555 1_555
N18_23 C23_31 1_555 1_555
C23_31 H13_31 1_555 1_555
N5_31 C23_31 1_555 1_555
C24_31 C22_31 1_555 1_555
N6_31 C24_31 1_555 1_555
C25_31 N6_31 1_555 1_555
H14_31 C25_31 1_555 1_555
N7_31 C25_31 1_555 1_555
C26_31 C22_31 1_555 1_555
N8_31 C26_31 1_555 1_555
H15_31 N8_31 1_555 1_555
H16_31 N8_31 1_555 1_555
Zn7_23 O5_31 1_555 1_555
Zn8_2 N6_31 1_555 1_555
O7_46 Zn8_2 1_555 1_555
O8_31 C27_31 1_555 1_555
C27_31 O9_19 1_555 1_555
O9_19 Zn7_2 1_555 1_555
C28_31 C27_31 1_555 1_555
C29_31 C28_31 1_555 1_555
H17_31 C29_31 1_555 1_555
C30_31 C29_31 1_555 1_555
H18_31 C30_31 1_555 1_555
C31_31 C30_31 1_555 1_555
C32_31 C31_31 1_555 1_555
H19_31 C32_31 1_555 1_555
C33_31 C28_31 1_555 1_555
H20_31 C33_31 1_555 1_555
N9_31 N1_31 1_555 1_555
O16_9 C34_31 1_555 1_555
C34_31 O11_31 1_555 1_555
C35_31 C34_31 1_555 1_555
C36_31 C35_31 1_555 1_555
H21_31 C36_31 1_555 1_555
C37_31 C36_31 1_555 1_555
H22_31 C37_31 1_555 1_555
C38_31 C37_31 1_555 1_555
C39_31 C38_31 1_555 1_555
H23_31 C39_31 1_555 1_555
C40_31 C35_31 1_555 1_555
H24_31 C40_31 1_555 1_555
N10_31 C45_31 1_555 1_555
O12_31 C41_31 1_555 1_555
C41_31 O13_31 1_555 1_555
C42_31 C41_31 1_555 1_555
C43_31 C42_31 1_555 1_555
H25_31 C43_31 1_555 1_555
C44_31 C43_31 1_555 1_555
H26_31 C44_31 1_555 1_555
C45_31 C44_31 1_555 1_555
C46_31 C45_31 1_555 1_555
H27_31 C46_31 1_555 1_555
C47_31 C42_31 1_555 1_555
H28_31 C47_31 1_555 1_555
N11_31 C38_31 1_555 1_555
C48_31 N17_23 1_555 1_555
N17_23 C49_31 1_555 1_555
C49_31 H29_31 1_555 1_555
N13_31 Zn8_2 1_555 1_555
C50_31 C48_31 1_555 1_555
N14_31 C50_31 1_555 1_555
C51_31 N14_31 1_555 1_555
H30_31 C51_31 1_555 1_555
N15_31 C51_31 1_555 1_555
C52_31 C48_31 1_555 1_555
N16_31 C52_31 1_555 1_555
H31_31 N16_31 1_555 1_555
H32_31 N16_31 1_555 1_555
Zn6_23 O12_31 1_555 1_555
Zn9_4 N5_31 1_555 1_555
O14_19 Zn6_23 1_555 1_555
C6_31 C7_31 1_555 1_555
C13_31 C14_31 1_555 1_555
N2_31 N3_31 1_555 1_555
C20_31 C21_31 1_555 1_555
N5_31 C24_31 1_555 1_555
N7_31 C26_31 1_555 1_555
N7_31 Zn7_23 1_555 1_555
O7_46 Zn9_4 1_555 1_555
C31_31 N9_31 1_555 1_555
C32_31 C33_31 1_555 1_555
C39_31 C40_31 1_555 1_555
N10_31 N11_31 1_555 1_555
C46_31 C47_31 1_555 1_555
C49_31 N13_31 1_555 1_555
N13_31 C50_31 1_555 1_555
N14_31 Zn9_4 1_555 1_555
N15_31 C52_31 1_555 1_555
N15_31 Zn6_23 1_555 1_555
O1_32 C1_32 1_555 1_555
C1_32 O2_32 1_555 1_555
O2_32 Zn7_24 1_555 1_555
C2_32 C1_32 1_555 1_555
C3_32 C2_32 1_555 1_555
H1_32 C3_32 1_555 1_555
C4_32 C3_32 1_555 1_555
H2_32 C4_32 1_555 1_555
C5_32 C4_32 1_555 1_555
C6_32 C5_32 1_555 1_555
H3_32 C6_32 1_555 1_555
C7_32 C2_32 1_555 1_555
H4_32 C7_32 1_555 1_555
N1_32 C5_32 1_555 1_555
O5_32 C15_32 1_555 1_555
C15_32 O6_32 1_555 1_555
C16_32 C15_32 1_555 1_555
H11_32 C20_32 1_555 1_555
C21_32 C16_32 1_555 1_555
H12_32 C21_32 1_555 1_555
C25_32 N6_32 1_555 1_555
H14_32 C25_32 1_555 1_555
N7_32 C25_32 1_555 1_555
Zn7_24 O5_32 1_555 1_555
Zn8_3 N6_32 1_555 1_555
O7_47 Zn8_3 1_555 1_555
O8_32 C27_32 1_555 1_555
C27_32 O9_20 1_555 1_555
O9_20 Zn7_3 1_555 1_555
C28_32 C27_32 1_555 1_555
C29_32 C28_32 1_555 1_555
H17_32 C29_32 1_555 1_555
C30_32 C29_32 1_555 1_555
H18_32 C30_32 1_555 1_555
C31_32 C30_32 1_555 1_555
C32_32 C31_32 1_555 1_555
H19_32 C32_32 1_555 1_555
C33_32 C28_32 1_555 1_555
H20_32 C33_32 1_555 1_555
N9_32 N1_32 1_555 1_555
O16_11 C34_32 1_555 1_555
C34_32 O11_32 1_555 1_555
C35_32 C34_32 1_555 1_555
C36_32 C35_32 1_555 1_555
H21_32 C36_32 1_555 1_555
C37_32 C36_32 1_555 1_555
H22_32 C37_32 1_555 1_555
C38_32 C37_32 1_555 1_555
C39_32 C38_32 1_555 1_555
H23_32 C39_32 1_555 1_555
C40_32 C35_32 1_555 1_555
H24_32 C40_32 1_555 1_555
N10_32 C45_32 1_555 1_555
H25_32 C43_32 1_555 1_555
C44_32 C43_32 1_555 1_555
H26_32 C44_32 1_555 1_555
C45_32 C44_32 1_555 1_555
N11_32 C38_32 1_555 1_555
C48_32 N17_24 1_555 1_555
N17_24 C49_32 1_555 1_555
C49_32 H29_32 1_555 1_555
N13_32 Zn8_3 1_555 1_555
C50_32 C48_32 1_555 1_555
C52_32 C48_32 1_555 1_555
N16_32 C52_32 1_555 1_555
H31_32 N16_32 1_555 1_555
H32_32 N16_32 1_555 1_555
C6_32 C7_32 1_555 1_555
C20_32 C21_32 1_555 1_555
N7_32 Zn7_24 1_555 1_555
C31_32 N9_32 1_555 1_555
C32_32 C33_32 1_555 1_555
C39_32 C40_32 1_555 1_555
N10_32 N11_32 1_555 1_555
C49_32 N13_32 1_555 1_555
N13_32 C50_32 1_555 1_555
O15_10 C8_32 1_555 1_555
C8_32 O4_32 1_555 1_555
C9_32 C8_32 1_555 1_555
C10_32 C9_32 1_555 1_555
H5_32 C10_32 1_555 1_555
C11_32 C10_32 1_555 1_555
H6_32 C11_32 1_555 1_555
C12_32 C11_32 1_555 1_555
C13_32 C12_32 1_555 1_555
H7_32 C13_32 1_555 1_555
C14_32 C9_32 1_555 1_555
H8_32 C14_32 1_555 1_555
N2_32 C19_32 1_555 1_555
H9_32 C17_32 1_555 1_555
C18_32 C17_32 1_555 1_555
H10_32 C18_32 1_555 1_555
C19_32 C18_32 1_555 1_555
N3_32 C12_32 1_555 1_555
C22_32 N18_24 1_555 1_555
N18_24 C23_32 1_555 1_555
C23_32 H13_32 1_555 1_555
N5_32 C23_32 1_555 1_555
C24_32 C22_32 1_555 1_555
C26_32 C22_32 1_555 1_555
N8_32 C26_32 1_555 1_555
H15_32 N8_32 1_555 1_555
H16_32 N8_32 1_555 1_555
O12_32 C41_32 1_555 1_555
C41_32 O13_32 1_555 1_555
C42_32 C41_32 1_555 1_555
H27_32 C46_32 1_555 1_555
C47_32 C42_32 1_555 1_555
H28_32 C47_32 1_555 1_555
C51_32 N14_32 1_555 1_555
H30_32 C51_32 1_555 1_555
N15_32 C51_32 1_555 1_555
Zn6_24 O12_32 1_555 1_555
Zn9 N5_32 1_555 1_555
O14_20 Zn6_24 1_555 1_555
C13_32 C14_32 1_555 1_555
N2_32 N3_32 1_555 1_555
N5_32 C24_32 1_555 1_555
O7_48 Zn9 1_555 1_555
C46_32 C47_32 1_555 1_555
N14_32 Zn9 1_555 1_555
N15_32 Zn6_24 1_555 1_555
O1_33 C1_33 1_555 1_555
C1_33 O2_33 1_555 1_555
O2_33 Zn7_17 1_555 1_555
C2_33 C1_33 1_555 1_555
C3_33 C2_33 1_555 1_555
H1_33 C3_33 1_555 1_555
C4_33 C3_33 1_555 1_555
H2_33 C4_33 1_555 1_555
C5_33 C4_33 1_555 1_555
C6_33 C5_33 1_555 1_555
H3_33 C6_33 1_555 1_555
C7_33 C2_33 1_555 1_555
H4_33 C7_33 1_555 1_555
N1_33 C5_33 1_555 1_555
O15 C8_33 1_555 1_555
C8_33 O4_33 1_555 1_555
C9_33 C8_33 1_555 1_555
C10_33 C9_33 1_555 1_555
H5_33 C10_33 1_555 1_555
C11_33 C10_33 1_555 1_555
H6_33 C11_33 1_555 1_555
C12_33 C11_33 1_555 1_555
C13_33 C12_33 1_555 1_555
H7_33 C13_33 1_555 1_555
C14_33 C9_33 1_555 1_555
H8_33 C14_33 1_555 1_555
N2_33 C19_33 1_555 1_555
O5_33 C15_33 1_555 1_555
C15_33 O6_33 1_555 1_555
C16_33 C15_33 1_555 1_555
C17_33 C16_33 1_555 1_555
H9_33 C17_33 1_555 1_555
C18_33 C17_33 1_555 1_555
H10_33 C18_33 1_555 1_555
C19_33 C18_33 1_555 1_555
C20_33 C19_33 1_555 1_555
H11_33 C20_33 1_555 1_555
C21_33 C16_33 1_555 1_555
H12_33 C21_33 1_555 1_555
N3_33 C12_33 1_555 1_555
C22_33 N18_17 1_555 1_555
N18_17 C23_33 1_555 1_555
C23_33 H13_33 1_555 1_555
N5_33 C23_33 1_555 1_555
C24_33 C22_33 1_555 1_555
N6_33 C24_33 1_555 1_555
C25_33 N6_33 1_555 1_555
H14_33 C25_33 1_555 1_555
N7_33 C25_33 1_555 1_555
C26_33 C22_33 1_555 1_555
N8_33 C26_33 1_555 1_555
H15_33 N8_33 1_555 1_555
H16_33 N8_33 1_555 1_555
Zn7_17 O5_33 1_555 1_555
Zn8_5 N6_33 1_555 1_555
O7_49 Zn8_5 1_555 1_555
O8_33 C27_33 1_555 1_555
C27_33 O9_21 1_555 1_555
O9_21 Zn7_5 1_555 1_555
C28_33 C27_33 1_555 1_555
C29_33 C28_33 1_555 1_555
H17_33 C29_33 1_555 1_555
C30_33 C29_33 1_555 1_555
H18_33 C30_33 1_555 1_555
C31_33 C30_33 1_555 1_555
C32_33 C31_33 1_555 1_555
H19_33 C32_33 1_555 1_555
C33_33 C28_33 1_555 1_555
H20_33 C33_33 1_555 1_555
N9_33 N1_33 1_555 1_555
O16_4 C34_33 1_555 1_555
C34_33 O11_33 1_555 1_555
C35_33 C34_33 1_555 1_555
C36_33 C35_33 1_555 1_555
H21_33 C36_33 1_555 1_555
C37_33 C36_33 1_555 1_555
H22_33 C37_33 1_555 1_555
C38_33 C37_33 1_555 1_555
C39_33 C38_33 1_555 1_555
H23_33 C39_33 1_555 1_555
C40_33 C35_33 1_555 1_555
H24_33 C40_33 1_555 1_555
N10_33 C45_33 1_555 1_555
O12_33 C41_33 1_555 1_555
C41_33 O13_33 1_555 1_555
C42_33 C41_33 1_555 1_555
C43_33 C42_33 1_555 1_555
H25_33 C43_33 1_555 1_555
C44_33 C43_33 1_555 1_555
H26_33 C44_33 1_555 1_555
C45_33 C44_33 1_555 1_555
C46_33 C45_33 1_555 1_555
H27_33 C46_33 1_555 1_555
C47_33 C42_33 1_555 1_555
H28_33 C47_33 1_555 1_555
N11_33 C38_33 1_555 1_555
C48_33 N17_17 1_555 1_555
N17_17 C49_33 1_555 1_555
C49_33 H29_33 1_555 1_555
N13_33 Zn8_5 1_555 1_555
C50_33 C48_33 1_555 1_555
N14_33 C50_33 1_555 1_555
C51_33 N14_33 1_555 1_555
H30_33 C51_33 1_555 1_555
N15_33 C51_33 1_555 1_555
C52_33 C48_33 1_555 1_555
N16_33 C52_33 1_555 1_555
H31_33 N16_33 1_555 1_555
H32_33 N16_33 1_555 1_555
Zn6_17 O12_33 1_555 1_555
Zn9_7 N5_33 1_555 1_555
O14_21 Zn6_17 1_555 1_555
C6_33 C7_33 1_555 1_555
C13_33 C14_33 1_555 1_555
N2_33 N3_33 1_555 1_555
C20_33 C21_33 1_555 1_555
N5_33 C24_33 1_555 1_555
N7_33 C26_33 1_555 1_555
N7_33 Zn7_17 1_555 1_555
O7_49 Zn9_7 1_555 1_555
C31_33 N9_33 1_555 1_555
C32_33 C33_33 1_555 1_555
C39_33 C40_33 1_555 1_555
N10_33 N11_33 1_555 1_555
C46_33 C47_33 1_555 1_555
C49_33 N13_33 1_555 1_555
N13_33 C50_33 1_555 1_555
N14_33 Zn9_7 1_555 1_555
N15_33 C52_33 1_555 1_555
N15_33 Zn6_17 1_555 1_555
O15_3 C8_34 1_555 1_555
C8_34 O4_34 1_555 1_555
C9_34 C8_34 1_555 1_555
C10_34 C9_34 1_555 1_555
H5_34 C10_34 1_555 1_555
C11_34 C10_34 1_555 1_555
H6_34 C11_34 1_555 1_555
C12_34 C11_34 1_555 1_555
C13_34 C12_34 1_555 1_555
H7_34 C13_34 1_555 1_555
C14_34 C9_34 1_555 1_555
H8_34 C14_34 1_555 1_555
N2_34 C19_34 1_555 1_555
H9_34 C17_34 1_555 1_555
C18_34 C17_34 1_555 1_555
H10_34 C18_34 1_555 1_555
C19_34 C18_34 1_555 1_555
N3_34 C12_34 1_555 1_555
C22_34 N18_18 1_555 1_555
N18_18 C23_34 1_555 1_555
C23_34 H13_34 1_555 1_555
N5_34 C23_34 1_555 1_555
C24_34 C22_34 1_555 1_555
C26_34 C22_34 1_555 1_555
N8_34 C26_34 1_555 1_555
H15_34 N8_34 1_555 1_555
H16_34 N8_34 1_555 1_555
O12_34 C41_34 1_555 1_555
C41_34 O13_34 1_555 1_555
C42_34 C41_34 1_555 1_555
H27_34 C46_34 1_555 1_555
C47_34 C42_34 1_555 1_555
H28_34 C47_34 1_555 1_555
C51_34 N14_34 1_555 1_555
H30_34 C51_34 1_555 1_555
N15_34 C51_34 1_555 1_555
Zn6_18 O12_34 1_555 1_555
Zn9_6 N5_34 1_555 1_555
O14_22 Zn6_18 1_555 1_555
C13_34 C14_34 1_555 1_555
N2_34 N3_34 1_555 1_555
N5_34 C24_34 1_555 1_555
O7_50 Zn9_6 1_555 1_555
C46_34 C47_34 1_555 1_555
N14_34 Zn9_6 1_555 1_555
N15_34 Zn6_18 1_555 1_555
O1_34 C1_34 1_555 1_555
C1_34 O2_34 1_555 1_555
O2_34 Zn7_18 1_555 1_555
C2_34 C1_34 1_555 1_555
C3_34 C2_34 1_555 1_555
H1_34 C3_34 1_555 1_555
C4_34 C3_34 1_555 1_555
H2_34 C4_34 1_555 1_555
C5_34 C4_34 1_555 1_555
C6_34 C5_34 1_555 1_555
H3_34 C6_34 1_555 1_555
C7_34 C2_34 1_555 1_555
H4_34 C7_34 1_555 1_555
N1_34 C5_34 1_555 1_555
O5_34 C15_34 1_555 1_555
C15_34 O6_34 1_555 1_555
C16_34 C15_34 1_555 1_555
H11_34 C20_34 1_555 1_555
C21_34 C16_34 1_555 1_555
H12_34 C21_34 1_555 1_555
C25_34 N6_34 1_555 1_555
H14_34 C25_34 1_555 1_555
N7_34 C25_34 1_555 1_555
Zn7_18 O5_34 1_555 1_555
Zn8_8 N6_34 1_555 1_555
O7_51 Zn8_8 1_555 1_555
O8_34 C27_34 1_555 1_555
C27_34 O9_22 1_555 1_555
O9_22 Zn7_8 1_555 1_555
C28_34 C27_34 1_555 1_555
C29_34 C28_34 1_555 1_555
H17_34 C29_34 1_555 1_555
C30_34 C29_34 1_555 1_555
H18_34 C30_34 1_555 1_555
C31_34 C30_34 1_555 1_555
C32_34 C31_34 1_555 1_555
H19_34 C32_34 1_555 1_555
C33_34 C28_34 1_555 1_555
H20_34 C33_34 1_555 1_555
N9_34 N1_34 1_555 1_555
O16_2 C34_34 1_555 1_555
C34_34 O11_34 1_555 1_555
C35_34 C34_34 1_555 1_555
C36_34 C35_34 1_555 1_555
H21_34 C36_34 1_555 1_555
C37_34 C36_34 1_555 1_555
H22_34 C37_34 1_555 1_555
C38_34 C37_34 1_555 1_555
C39_34 C38_34 1_555 1_555
H23_34 C39_34 1_555 1_555
C40_34 C35_34 1_555 1_555
H24_34 C40_34 1_555 1_555
N10_34 C45_34 1_555 1_555
H25_34 C43_34 1_555 1_555
C44_34 C43_34 1_555 1_555
H26_34 C44_34 1_555 1_555
C45_34 C44_34 1_555 1_555
N11_34 C38_34 1_555 1_555
C48_34 N17_18 1_555 1_555
N17_18 C49_34 1_555 1_555
C49_34 H29_34 1_555 1_555
N13_34 Zn8_8 1_555 1_555
C50_34 C48_34 1_555 1_555
C52_34 C48_34 1_555 1_555
N16_34 C52_34 1_555 1_555
H31_34 N16_34 1_555 1_555
H32_34 N16_34 1_555 1_555
C6_34 C7_34 1_555 1_555
C20_34 C21_34 1_555 1_555
N7_34 Zn7_18 1_555 1_555
C31_34 N9_34 1_555 1_555
C32_34 C33_34 1_555 1_555
C39_34 C40_34 1_555 1_555
N10_34 N11_34 1_555 1_555
C49_34 N13_34 1_555 1_555
N13_34 C50_34 1_555 1_555
O1_35 C1_35 1_555 1_555
C1_35 O2_35 1_555 1_555
O2_35 Zn7_20 1_555 1_555
C2_35 C1_35 1_555 1_555
C3_35 C2_35 1_555 1_555
H1_35 C3_35 1_555 1_555
C4_35 C3_35 1_555 1_555
H2_35 C4_35 1_555 1_555
C5_35 C4_35 1_555 1_555
C6_35 C5_35 1_555 1_555
H3_35 C6_35 1_555 1_555
C7_35 C2_35 1_555 1_555
H4_35 C7_35 1_555 1_555
N1_35 C5_35 1_555 1_555
O15_4 C8_35 1_555 1_555
C8_35 O4_35 1_555 1_555
C9_35 C8_35 1_555 1_555
C10_35 C9_35 1_555 1_555
H5_35 C10_35 1_555 1_555
C11_35 C10_35 1_555 1_555
H6_35 C11_35 1_555 1_555
C12_35 C11_35 1_555 1_555
C13_35 C12_35 1_555 1_555
H7_35 C13_35 1_555 1_555
C14_35 C9_35 1_555 1_555
H8_35 C14_35 1_555 1_555
N2_35 C19_35 1_555 1_555
O5_35 C15_35 1_555 1_555
C15_35 O6_35 1_555 1_555
C16_35 C15_35 1_555 1_555
C17_35 C16_35 1_555 1_555
H9_35 C17_35 1_555 1_555
C18_35 C17_35 1_555 1_555
H10_35 C18_35 1_555 1_555
C19_35 C18_35 1_555 1_555
C20_35 C19_35 1_555 1_555
H11_35 C20_35 1_555 1_555
C21_35 C16_35 1_555 1_555
H12_35 C21_35 1_555 1_555
N3_35 C12_35 1_555 1_555
C22_35 N18_20 1_555 1_555
N18_20 C23_35 1_555 1_555
C23_35 H13_35 1_555 1_555
N5_35 C23_35 1_555 1_555
C24_35 C22_35 1_555 1_555
N6_35 C24_35 1_555 1_555
C25_35 N6_35 1_555 1_555
H14_35 C25_35 1_555 1_555
N7_35 C25_35 1_555 1_555
C26_35 C22_35 1_555 1_555
N8_35 C26_35 1_555 1_555
H15_35 N8_35 1_555 1_555
H16_35 N8_35 1_555 1_555
Zn7_20 O5_35 1_555 1_555
Zn8_6 N6_35 1_555 1_555
O7_52 Zn8_6 1_555 1_555
O8_35 C27_35 1_555 1_555
C27_35 O9_23 1_555 1_555
O9_23 Zn7_6 1_555 1_555
C28_35 C27_35 1_555 1_555
C29_35 C28_35 1_555 1_555
H17_35 C29_35 1_555 1_555
C30_35 C29_35 1_555 1_555
H18_35 C30_35 1_555 1_555
C31_35 C30_35 1_555 1_555
C32_35 C31_35 1_555 1_555
H19_35 C32_35 1_555 1_555
C33_35 C28_35 1_555 1_555
H20_35 C33_35 1_555 1_555
N9_35 N1_35 1_555 1_555
O16 C34_35 1_555 1_555
C34_35 O11_35 1_555 1_555
C35_35 C34_35 1_555 1_555
C36_35 C35_35 1_555 1_555
H21_35 C36_35 1_555 1_555
C37_35 C36_35 1_555 1_555
H22_35 C37_35 1_555 1_555
C38_35 C37_35 1_555 1_555
C39_35 C38_35 1_555 1_555
H23_35 C39_35 1_555 1_555
C40_35 C35_35 1_555 1_555
H24_35 C40_35 1_555 1_555
N10_35 C45_35 1_555 1_555
O12_35 C41_35 1_555 1_555
C41_35 O13_35 1_555 1_555
C42_35 C41_35 1_555 1_555
C43_35 C42_35 1_555 1_555
H25_35 C43_35 1_555 1_555
C44_35 C43_35 1_555 1_555
H26_35 C44_35 1_555 1_555
C45_35 C44_35 1_555 1_555
C46_35 C45_35 1_555 1_555
H27_35 C46_35 1_555 1_555
C47_35 C42_35 1_555 1_555
H28_35 C47_35 1_555 1_555
N11_35 C38_35 1_555 1_555
C48_35 N17_20 1_555 1_555
N17_20 C49_35 1_555 1_555
C49_35 H29_35 1_555 1_555
N13_35 Zn8_6 1_555 1_555
C50_35 C48_35 1_555 1_555
N14_35 C50_35 1_555 1_555
C51_35 N14_35 1_555 1_555
H30_35 C51_35 1_555 1_555
N15_35 C51_35 1_555 1_555
C52_35 C48_35 1_555 1_555
N16_35 C52_35 1_555 1_555
H31_35 N16_35 1_555 1_555
H32_35 N16_35 1_555 1_555
Zn6_20 O12_35 1_555 1_555
Zn9_8 N5_35 1_555 1_555
O14_23 Zn6_20 1_555 1_555
C6_35 C7_35 1_555 1_555
C13_35 C14_35 1_555 1_555
N2_35 N3_35 1_555 1_555
C20_35 C21_35 1_555 1_555
N5_35 C24_35 1_555 1_555
N7_35 C26_35 1_555 1_555
N7_35 Zn7_20 1_555 1_555
O7_52 Zn9_8 1_555 1_555
C31_35 N9_35 1_555 1_555
C32_35 C33_35 1_555 1_555
C39_35 C40_35 1_555 1_555
N10_35 N11_35 1_555 1_555
C46_35 C47_35 1_555 1_555
C49_35 N13_35 1_555 1_555
N13_35 C50_35 1_555 1_555
N14_35 Zn9_8 1_555 1_555
N15_35 C52_35 1_555 1_555
N15_35 Zn6_20 1_555 1_555
O1_36 C1_36 1_555 1_555
C1_36 O2_36 1_555 1_555
O2_36 Zn7_19 1_555 1_555
C2_36 C1_36 1_555 1_555
C3_36 C2_36 1_555 1_555
H1_36 C3_36 1_555 1_555
C4_36 C3_36 1_555 1_555
H2_36 C4_36 1_555 1_555
C5_36 C4_36 1_555 1_555
C6_36 C5_36 1_555 1_555
H3_36 C6_36 1_555 1_555
C7_36 C2_36 1_555 1_555
H4_36 C7_36 1_555 1_555
N1_36 C5_36 1_555 1_555
O5_36 C15_36 1_555 1_555
C15_36 O6_36 1_555 1_555
C16_36 C15_36 1_555 1_555
H11_36 C20_36 1_555 1_555
C21_36 C16_36 1_555 1_555
H12_36 C21_36 1_555 1_555
C25_36 N6_36 1_555 1_555
H14_36 C25_36 1_555 1_555
N7_36 C25_36 1_555 1_555
Zn7_19 O5_36 1_555 1_555
Zn8_7 N6_36 1_555 1_555
O7_53 Zn8_7 1_555 1_555
O8_36 C27_36 1_555 1_555
C27_36 O9_24 1_555 1_555
O9_24 Zn7_7 1_555 1_555
C28_36 C27_36 1_555 1_555
C29_36 C28_36 1_555 1_555
H17_36 C29_36 1_555 1_555
C30_36 C29_36 1_555 1_555
H18_36 C30_36 1_555 1_555
C31_36 C30_36 1_555 1_555
C32_36 C31_36 1_555 1_555
H19_36 C32_36 1_555 1_555
C33_36 C28_36 1_555 1_555
H20_36 C33_36 1_555 1_555
N9_36 N1_36 1_555 1_555
O16_3 C34_36 1_555 1_555
C34_36 O11_36 1_555 1_555
C35_36 C34_36 1_555 1_555
C36_36 C35_36 1_555 1_555
H21_36 C36_36 1_555 1_555
C37_36 C36_36 1_555 1_555
H22_36 C37_36 1_555 1_555
C38_36 C37_36 1_555 1_555
C39_36 C38_36 1_555 1_555
H23_36 C39_36 1_555 1_555
C40_36 C35_36 1_555 1_555
H24_36 C40_36 1_555 1_555
N10_36 C45_36 1_555 1_555
H25_36 C43_36 1_555 1_555
C44_36 C43_36 1_555 1_555
H26_36 C44_36 1_555 1_555
C45_36 C44_36 1_555 1_555
N11_36 C38_36 1_555 1_555
C48_36 N17_19 1_555 1_555
N17_19 C49_36 1_555 1_555
C49_36 H29_36 1_555 1_555
N13_36 Zn8_7 1_555 1_555
C50_36 C48_36 1_555 1_555
C52_36 C48_36 1_555 1_555
N16_36 C52_36 1_555 1_555
H31_36 N16_36 1_555 1_555
H32_36 N16_36 1_555 1_555
C6_36 C7_36 1_555 1_555
C20_36 C21_36 1_555 1_555
N7_36 Zn7_19 1_555 1_555
C31_36 N9_36 1_555 1_555
C32_36 C33_36 1_555 1_555
C39_36 C40_36 1_555 1_555
N10_36 N11_36 1_555 1_555
C49_36 N13_36 1_555 1_555
N13_36 C50_36 1_555 1_555
O15_2 C8_36 1_555 1_555
C8_36 O4_36 1_555 1_555
C9_36 C8_36 1_555 1_555
C10_36 C9_36 1_555 1_555
H5_36 C10_36 1_555 1_555
C11_36 C10_36 1_555 1_555
H6_36 C11_36 1_555 1_555
C12_36 C11_36 1_555 1_555
C13_36 C12_36 1_555 1_555
H7_36 C13_36 1_555 1_555
C14_36 C9_36 1_555 1_555
H8_36 C14_36 1_555 1_555
N2_36 C19_36 1_555 1_555
H9_36 C17_36 1_555 1_555
C18_36 C17_36 1_555 1_555
H10_36 C18_36 1_555 1_555
C19_36 C18_36 1_555 1_555
N3_36 C12_36 1_555 1_555
C22_36 N18_19 1_555 1_555
N18_19 C23_36 1_555 1_555
C23_36 H13_36 1_555 1_555
N5_36 C23_36 1_555 1_555
C24_36 C22_36 1_555 1_555
C26_36 C22_36 1_555 1_555
N8_36 C26_36 1_555 1_555
H15_36 N8_36 1_555 1_555
H16_36 N8_36 1_555 1_555
O12_36 C41_36 1_555 1_555
C41_36 O13_36 1_555 1_555
C42_36 C41_36 1_555 1_555
H27_36 C46_36 1_555 1_555
C47_36 C42_36 1_555 1_555
H28_36 C47_36 1_555 1_555
C51_36 N14_36 1_555 1_555
H30_36 C51_36 1_555 1_555
N15_36 C51_36 1_555 1_555
Zn6_19 O12_36 1_555 1_555
Zn9_5 N5_36 1_555 1_555
O14_24 Zn6_19 1_555 1_555
C13_36 C14_36 1_555 1_555
N2_36 N3_36 1_555 1_555
N5_36 C24_36 1_555 1_555
O7_54 Zn9_5 1_555 1_555
C46_36 C47_36 1_555 1_555
N14_36 Zn9_5 1_555 1_555
N15_36 Zn6_19 1_555 1_555
O1_37 C1_37 1_555 1_555
C1_37 O2_37 1_555 1_555
O2_37 Zn6_3 1_555 1_555
C2_37 C1_37 1_555 1_555
C3_37 C2_37 1_555 1_555
H1_37 C3_37 1_555 1_555
C4_37 C3_37 1_555 1_555
H2_37 C4_37 1_555 1_555
C5_37 C4_37 1_555 1_555
C6_37 C5_37 1_555 1_555
H3_37 C6_37 1_555 1_555
C7_37 C2_37 1_555 1_555
H4_37 C7_37 1_555 1_555
N1_37 C5_37 1_555 1_555
O16_18 C8_37 1_555 1_555
C8_37 O4_37 1_555 1_555
C9_37 C8_37 1_555 1_555
C10_37 C9_37 1_555 1_555
H5_37 C10_37 1_555 1_555
C11_37 C10_37 1_555 1_555
H6_37 C11_37 1_555 1_555
C12_37 C11_37 1_555 1_555
C13_37 C12_37 1_555 1_555
H7_37 C13_37 1_555 1_555
C14_37 C9_37 1_555 1_555
H8_37 C14_37 1_555 1_555
N2_37 C19_37 1_555 1_555
O5_37 C15_37 1_555 1_555
C15_37 O6_37 1_555 1_555
C16_37 C15_37 1_555 1_555
C17_37 C16_37 1_555 1_555
H9_37 C17_37 1_555 1_555
C18_37 C17_37 1_555 1_555
H10_37 C18_37 1_555 1_555
C19_37 C18_37 1_555 1_555
C20_37 C19_37 1_555 1_555
H11_37 C20_37 1_555 1_555
C21_37 C16_37 1_555 1_555
H12_37 C21_37 1_555 1_555
N3_37 C12_37 1_555 1_555
C22_37 N17_3 1_555 1_555
N17_3 C23_37 1_555 1_555
C23_37 H13_37 1_555 1_555
N5_37 C23_37 1_555 1_555
C24_37 C22_37 1_555 1_555
N6_37 C24_37 1_555 1_555
C25_37 N6_37 1_555 1_555
H14_37 C25_37 1_555 1_555
N7_37 C25_37 1_555 1_555
C26_37 C22_37 1_555 1_555
N8_37 C26_37 1_555 1_555
H15_37 N8_37 1_555 1_555
H16_37 N8_37 1_555 1_555
Zn6_3 O5_37 1_555 1_555
Zn9_22 N6_37 1_555 1_555
O7_55 Zn9_22 1_555 1_555
O8_37 C27_37 1_555 1_555
C27_37 O14_17 1_555 1_555
C28_37 C27_37 1_555 1_555
C29_37 C28_37 1_555 1_555
H17_37 C29_37 1_555 1_555
C30_37 C29_37 1_555 1_555
H18_37 C30_37 1_555 1_555
C31_37 C30_37 1_555 1_555
C32_37 C31_37 1_555 1_555
H19_37 C32_37 1_555 1_555
C33_37 C28_37 1_555 1_555
H20_37 C33_37 1_555 1_555
N9_37 N1_37 1_555 1_555
O15_19 C34_37 1_555 1_555
C34_37 O11_37 1_555 1_555
C35_37 C34_37 1_555 1_555
C36_37 C35_37 1_555 1_555
H21_37 C36_37 1_555 1_555
C37_37 C36_37 1_555 1_555
H22_37 C37_37 1_555 1_555
C38_37 C37_37 1_555 1_555
C39_37 C38_37 1_555 1_555
H23_37 C39_37 1_555 1_555
C40_37 C35_37 1_555 1_555
H24_37 C40_37 1_555 1_555
N10_37 C45_37 1_555 1_555
O12_37 C41_37 1_555 1_555
C41_37 O13_37 1_555 1_555
C42_37 C41_37 1_555 1_555
C43_37 C42_37 1_555 1_555
H25_37 C43_37 1_555 1_555
C44_37 C43_37 1_555 1_555
H26_37 C44_37 1_555 1_555
C45_37 C44_37 1_555 1_555
C46_37 C45_37 1_555 1_555
H27_37 C46_37 1_555 1_555
C47_37 C42_37 1_555 1_555
H28_37 C47_37 1_555 1_555
N11_37 C38_37 1_555 1_555
C48_37 N18_3 1_555 1_555
N18_3 C49_37 1_555 1_555
C49_37 H29_37 1_555 1_555
N13_37 Zn9_22 1_555 1_555
C50_37 C48_37 1_555 1_555
N14_37 C50_37 1_555 1_555
C51_37 N14_37 1_555 1_555
H30_37 C51_37 1_555 1_555
N15_37 C51_37 1_555 1_555
C52_37 C48_37 1_555 1_555
N16_37 C52_37 1_555 1_555
H31_37 N16_37 1_555 1_555
H32_37 N16_37 1_555 1_555
Zn7_3 O12_37 1_555 1_555
Zn8_24 N5_37 1_555 1_555
C6_37 C7_37 1_555 1_555
C13_37 C14_37 1_555 1_555
N2_37 N3_37 1_555 1_555
C20_37 C21_37 1_555 1_555
N5_37 C24_37 1_555 1_555
N7_37 C26_37 1_555 1_555
N7_37 Zn6_3 1_555 1_555
O7_55 Zn8_24 1_555 1_555
C31_37 N9_37 1_555 1_555
C32_37 C33_37 1_555 1_555
C39_37 C40_37 1_555 1_555
N10_37 N11_37 1_555 1_555
C46_37 C47_37 1_555 1_555
C49_37 N13_37 1_555 1_555
N13_37 C50_37 1_555 1_555
N14_37 Zn8_24 1_555 1_555
N15_37 C52_37 1_555 1_555
N15_37 Zn7_3 1_555 1_555
O15_17 C34_38 1_555 1_555
C34_38 O11_38 1_555 1_555
C35_38 C34_38 1_555 1_555
C36_38 C35_38 1_555 1_555
H21_38 C36_38 1_555 1_555
C37_38 C36_38 1_555 1_555
H22_38 C37_38 1_555 1_555
C38_38 C37_38 1_555 1_555
C39_38 C38_38 1_555 1_555
H23_38 C39_38 1_555 1_555
C40_38 C35_38 1_555 1_555
H24_38 C40_38 1_555 1_555
N10_38 C45_38 1_555 1_555
O12_38 C41_38 1_555 1_555
C41_38 O13_38 1_555 1_555
C42_38 C41_38 1_555 1_555
C43_38 C42_38 1_555 1_555
H25_38 C43_38 1_555 1_555
C44_38 C43_38 1_555 1_555
H26_38 C44_38 1_555 1_555
C45_38 C44_38 1_555 1_555
C46_38 C45_38 1_555 1_555
H27_38 C46_38 1_555 1_555
C47_38 C42_38 1_555 1_555
H28_38 C47_38 1_555 1_555
N11_38 C38_38 1_555 1_555
C48_38 N18_4 1_555 1_555
N18_4 C49_38 1_555 1_555
C49_38 H29_38 1_555 1_555
C50_38 C48_38 1_555 1_555
N14_38 C50_38 1_555 1_555
C51_38 N14_38 1_555 1_555
H30_38 C51_38 1_555 1_555
N15_38 C51_38 1_555 1_555
C52_38 C48_38 1_555 1_555
N16_38 C52_38 1_555 1_555
H31_38 N16_38 1_555 1_555
H32_38 N16_38 1_555 1_555
Zn7_4 O12_38 1_555 1_555
O7_56 Zn8_21 1_555 1_555
C39_38 C40_38 1_555 1_555
N10_38 N11_38 1_555 1_555
C46_38 C47_38 1_555 1_555
C49_38 N13_38 1_555 1_555
N13_38 C50_38 1_555 1_555
N14_38 Zn8_21 1_555 1_555
N15_38 C52_38 1_555 1_555
N15_38 Zn7_4 1_555 1_555
O1_38 C1_38 1_555 1_555
C1_38 O2_38 1_555 1_555
O2_38 Zn6_4 1_555 1_555
C2_38 C1_38 1_555 1_555
C3_38 C2_38 1_555 1_555
H1_38 C3_38 1_555 1_555
C4_38 C3_38 1_555 1_555
H2_38 C4_38 1_555 1_555
C5_38 C4_38 1_555 1_555
C6_38 C5_38 1_555 1_555
H3_38 C6_38 1_555 1_555
C7_38 C2_38 1_555 1_555
H4_38 C7_38 1_555 1_555
N1_38 C5_38 1_555 1_555
O16_20 C8_38 1_555 1_555
C8_38 O4_38 1_555 1_555
C9_38 C8_38 1_555 1_555
C10_38 C9_38 1_555 1_555
H5_38 C10_38 1_555 1_555
C11_38 C10_38 1_555 1_555
H6_38 C11_38 1_555 1_555
C12_38 C11_38 1_555 1_555
C13_38 C12_38 1_555 1_555
H7_38 C13_38 1_555 1_555
C14_38 C9_38 1_555 1_555
H8_38 C14_38 1_555 1_555
N2_38 C19_38 1_555 1_555
O5_38 C15_38 1_555 1_555
C15_38 O6_38 1_555 1_555
C16_38 C15_38 1_555 1_555
C17_38 C16_38 1_555 1_555
H9_38 C17_38 1_555 1_555
C18_38 C17_38 1_555 1_555
H10_38 C18_38 1_555 1_555
C19_38 C18_38 1_555 1_555
C20_38 C19_38 1_555 1_555
H11_38 C20_38 1_555 1_555
C21_38 C16_38 1_555 1_555
H12_38 C21_38 1_555 1_555
N3_38 C12_38 1_555 1_555
C22_38 N17_4 1_555 1_555
N17_4 C23_38 1_555 1_555
C23_38 H13_38 1_555 1_555
N5_38 C23_38 1_555 1_555
C24_38 C22_38 1_555 1_555
N6_38 C24_38 1_555 1_555
C25_38 N6_38 1_555 1_555
H14_38 C25_38 1_555 1_555
N7_38 C25_38 1_555 1_555
C26_38 C22_38 1_555 1_555
N8_38 C26_38 1_555 1_555
H15_38 N8_38 1_555 1_555
H16_38 N8_38 1_555 1_555
Zn6_4 O5_38 1_555 1_555
Zn9_23 N6_38 1_555 1_555
O7_57 Zn9_23 1_555 1_555
O8_38 C27_38 1_555 1_555
C27_38 O14_19 1_555 1_555
C28_38 C27_38 1_555 1_555
C29_38 C28_38 1_555 1_555
H17_38 C29_38 1_555 1_555
C30_38 C29_38 1_555 1_555
H18_38 C30_38 1_555 1_555
C31_38 C30_38 1_555 1_555
C32_38 C31_38 1_555 1_555
H19_38 C32_38 1_555 1_555
C33_38 C28_38 1_555 1_555
H20_38 C33_38 1_555 1_555
N9_38 N1_38 1_555 1_555
C6_38 C7_38 1_555 1_555
C13_38 C14_38 1_555 1_555
N2_38 N3_38 1_555 1_555
C20_38 C21_38 1_555 1_555
N5_38 C24_38 1_555 1_555
N7_38 C26_38 1_555 1_555
N7_38 Zn6_4 1_555 1_555
C31_38 N9_38 1_555 1_555
C32_38 C33_38 1_555 1_555
O1_39 C1_39 1_555 1_555
C1_39 O2_39 1_555 1_555
O2_39 Zn6_2 1_555 1_555
C2_39 C1_39 1_555 1_555
C3_39 C2_39 1_555 1_555
H1_39 C3_39 1_555 1_555
C4_39 C3_39 1_555 1_555
H2_39 C4_39 1_555 1_555
C5_39 C4_39 1_555 1_555
C6_39 C5_39 1_555 1_555
H3_39 C6_39 1_555 1_555
C7_39 C2_39 1_555 1_555
H4_39 C7_39 1_555 1_555
N1_39 C5_39 1_555 1_555
O16_19 C8_39 1_555 1_555
C8_39 O4_39 1_555 1_555
C9_39 C8_39 1_555 1_555
C10_39 C9_39 1_555 1_555
H5_39 C10_39 1_555 1_555
C11_39 C10_39 1_555 1_555
H6_39 C11_39 1_555 1_555
C12_39 C11_39 1_555 1_555
C13_39 C12_39 1_555 1_555
H7_39 C13_39 1_555 1_555
C14_39 C9_39 1_555 1_555
H8_39 C14_39 1_555 1_555
N2_39 C19_39 1_555 1_555
O5_39 C15_39 1_555 1_555
C15_39 O6_39 1_555 1_555
C16_39 C15_39 1_555 1_555
C17_39 C16_39 1_555 1_555
H9_39 C17_39 1_555 1_555
C18_39 C17_39 1_555 1_555
H10_39 C18_39 1_555 1_555
C19_39 C18_39 1_555 1_555
C20_39 C19_39 1_555 1_555
H11_39 C20_39 1_555 1_555
C21_39 C16_39 1_555 1_555
H12_39 C21_39 1_555 1_555
N3_39 C12_39 1_555 1_555
C22_39 N17_2 1_555 1_555
N17_2 C23_39 1_555 1_555
C23_39 H13_39 1_555 1_555
N5_39 C23_39 1_555 1_555
C24_39 C22_39 1_555 1_555
N6_39 C24_39 1_555 1_555
C25_39 N6_39 1_555 1_555
H14_39 C25_39 1_555 1_555
N7_39 C25_39 1_555 1_555
C26_39 C22_39 1_555 1_555
N8_39 C26_39 1_555 1_555
H15_39 N8_39 1_555 1_555
H16_39 N8_39 1_555 1_555
Zn6_2 O5_39 1_555 1_555
Zn9_21 N6_39 1_555 1_555
O7_58 Zn9_21 1_555 1_555
O8_39 C27_39 1_555 1_555
C27_39 O14_18 1_555 1_555
C28_39 C27_39 1_555 1_555
C29_39 C28_39 1_555 1_555
H17_39 C29_39 1_555 1_555
C30_39 C29_39 1_555 1_555
H18_39 C30_39 1_555 1_555
C31_39 C30_39 1_555 1_555
C32_39 C31_39 1_555 1_555
H19_39 C32_39 1_555 1_555
C33_39 C28_39 1_555 1_555
H20_39 C33_39 1_555 1_555
N9_39 N1_39 1_555 1_555
C6_39 C7_39 1_555 1_555
C13_39 C14_39 1_555 1_555
N2_39 N3_39 1_555 1_555
C20_39 C21_39 1_555 1_555
N5_39 C24_39 1_555 1_555
N7_39 C26_39 1_555 1_555
N7_39 Zn6_2 1_555 1_555
C31_39 N9_39 1_555 1_555
C32_39 C33_39 1_555 1_555
O15_18 C34_39 1_555 1_555
C34_39 O11_39 1_555 1_555
C35_39 C34_39 1_555 1_555
C36_39 C35_39 1_555 1_555
H21_39 C36_39 1_555 1_555
C37_39 C36_39 1_555 1_555
H22_39 C37_39 1_555 1_555
C38_39 C37_39 1_555 1_555
C39_39 C38_39 1_555 1_555
H23_39 C39_39 1_555 1_555
C40_39 C35_39 1_555 1_555
H24_39 C40_39 1_555 1_555
N10_39 C45_39 1_555 1_555
O12_39 C41_39 1_555 1_555
C41_39 O13_39 1_555 1_555
C42_39 C41_39 1_555 1_555
C43_39 C42_39 1_555 1_555
H25_39 C43_39 1_555 1_555
C44_39 C43_39 1_555 1_555
H26_39 C44_39 1_555 1_555
C45_39 C44_39 1_555 1_555
C46_39 C45_39 1_555 1_555
H27_39 C46_39 1_555 1_555
C47_39 C42_39 1_555 1_555
H28_39 C47_39 1_555 1_555
N11_39 C38_39 1_555 1_555
C48_39 N18_2 1_555 1_555
N18_2 C49_39 1_555 1_555
C49_39 H29_39 1_555 1_555
C50_39 C48_39 1_555 1_555
N14_39 C50_39 1_555 1_555
C51_39 N14_39 1_555 1_555
H30_39 C51_39 1_555 1_555
N15_39 C51_39 1_555 1_555
C52_39 C48_39 1_555 1_555
N16_39 C52_39 1_555 1_555
H31_39 N16_39 1_555 1_555
H32_39 N16_39 1_555 1_555
Zn7_2 O12_39 1_555 1_555
O7_59 Zn8_23 1_555 1_555
C39_39 C40_39 1_555 1_555
N10_39 N11_39 1_555 1_555
C46_39 C47_39 1_555 1_555
C49_39 N13_39 1_555 1_555
N13_39 C50_39 1_555 1_555
N14_39 Zn8_23 1_555 1_555
N15_39 C52_39 1_555 1_555
N15_39 Zn7_2 1_555 1_555
O1_40 C1_40 1_555 1_555
C1_40 O2_40 1_555 1_555
O2_40 Zn6 1_555 1_555
C2_40 C1_40 1_555 1_555
C3_40 C2_40 1_555 1_555
H1_40 C3_40 1_555 1_555
C4_40 C3_40 1_555 1_555
H2_40 C4_40 1_555 1_555
C5_40 C4_40 1_555 1_555
C6_40 C5_40 1_555 1_555
H3_40 C6_40 1_555 1_555
C7_40 C2_40 1_555 1_555
H4_40 C7_40 1_555 1_555
N1_40 C5_40 1_555 1_555
O16_17 C8_40 1_555 1_555
C8_40 O4_40 1_555 1_555
C9_40 C8_40 1_555 1_555
C10_40 C9_40 1_555 1_555
H5_40 C10_40 1_555 1_555
C11_40 C10_40 1_555 1_555
H6_40 C11_40 1_555 1_555
C12_40 C11_40 1_555 1_555
C13_40 C12_40 1_555 1_555
H7_40 C13_40 1_555 1_555
C14_40 C9_40 1_555 1_555
H8_40 C14_40 1_555 1_555
N2_40 C19_40 1_555 1_555
O5_40 C15_40 1_555 1_555
C15_40 O6_40 1_555 1_555
C16_40 C15_40 1_555 1_555
C17_40 C16_40 1_555 1_555
H9_40 C17_40 1_555 1_555
C18_40 C17_40 1_555 1_555
H10_40 C18_40 1_555 1_555
C19_40 C18_40 1_555 1_555
C20_40 C19_40 1_555 1_555
H11_40 C20_40 1_555 1_555
C21_40 C16_40 1_555 1_555
H12_40 C21_40 1_555 1_555
N3_40 C12_40 1_555 1_555
C22_40 N17 1_555 1_555
N17 C23_40 1_555 1_555
C23_40 H13_40 1_555 1_555
N5_40 C23_40 1_555 1_555
C24_40 C22_40 1_555 1_555
N6_40 C24_40 1_555 1_555
C25_40 N6_40 1_555 1_555
H14_40 C25_40 1_555 1_555
N7_40 C25_40 1_555 1_555
C26_40 C22_40 1_555 1_555
N8_40 C26_40 1_555 1_555
H15_40 N8_40 1_555 1_555
H16_40 N8_40 1_555 1_555
Zn6 O5_40 1_555 1_555
Zn9_24 N6_40 1_555 1_555
O7_60 Zn9_24 1_555 1_555
O8_40 C27_40 1_555 1_555
C27_40 O14_20 1_555 1_555
C28_40 C27_40 1_555 1_555
C29_40 C28_40 1_555 1_555
H17_40 C29_40 1_555 1_555
C30_40 C29_40 1_555 1_555
H18_40 C30_40 1_555 1_555
C31_40 C30_40 1_555 1_555
C32_40 C31_40 1_555 1_555
H19_40 C32_40 1_555 1_555
C33_40 C28_40 1_555 1_555
H20_40 C33_40 1_555 1_555
N9_40 N1_40 1_555 1_555
O15_20 C34_40 1_555 1_555
C34_40 O11_40 1_555 1_555
C35_40 C34_40 1_555 1_555
C36_40 C35_40 1_555 1_555
H21_40 C36_40 1_555 1_555
C37_40 C36_40 1_555 1_555
H22_40 C37_40 1_555 1_555
C38_40 C37_40 1_555 1_555
C39_40 C38_40 1_555 1_555
H23_40 C39_40 1_555 1_555
C40_40 C35_40 1_555 1_555
H24_40 C40_40 1_555 1_555
N10_40 C45_40 1_555 1_555
O12_40 C41_40 1_555 1_555
C41_40 O13_40 1_555 1_555
C42_40 C41_40 1_555 1_555
C43_40 C42_40 1_555 1_555
H25_40 C43_40 1_555 1_555
C44_40 C43_40 1_555 1_555
H26_40 C44_40 1_555 1_555
C45_40 C44_40 1_555 1_555
C46_40 C45_40 1_555 1_555
H27_40 C46_40 1_555 1_555
C47_40 C42_40 1_555 1_555
H28_40 C47_40 1_555 1_555
N11_40 C38_40 1_555 1_555
C48_40 N18 1_555 1_555
N18 C49_40 1_555 1_555
C49_40 H29_40 1_555 1_555
N13_40 Zn9_24 1_555 1_555
C50_40 C48_40 1_555 1_555
N14_40 C50_40 1_555 1_555
C51_40 N14_40 1_555 1_555
H30_40 C51_40 1_555 1_555
N15_40 C51_40 1_555 1_555
C52_40 C48_40 1_555 1_555
N16_40 C52_40 1_555 1_555
H31_40 N16_40 1_555 1_555
H32_40 N16_40 1_555 1_555
Zn7 O12_40 1_555 1_555
Zn8_22 N5_40 1_555 1_555
C6_40 C7_40 1_555 1_555
C13_40 C14_40 1_555 1_555
N2_40 N3_40 1_555 1_555
C20_40 C21_40 1_555 1_555
N5_40 C24_40 1_555 1_555
N7_40 C26_40 1_555 1_555
N7_40 Zn6 1_555 1_555
O7_60 Zn8_22 1_555 1_555
C31_40 N9_40 1_555 1_555
C32_40 C33_40 1_555 1_555
C39_40 C40_40 1_555 1_555
N10_40 N11_40 1_555 1_555
C46_40 C47_40 1_555 1_555
C49_40 N13_40 1_555 1_555
N13_40 C50_40 1_555 1_555
N14_40 Zn8_22 1_555 1_555
N15_40 C52_40 1_555 1_555
N15_40 Zn7 1_555 1_555
O1_41 C1_41 1_555 1_555
C1_41 O2_41 1_555 1_555
O2_41 Zn6_9 1_555 1_555
C2_41 C1_41 1_555 1_555
C3_41 C2_41 1_555 1_555
H1_41 C3_41 1_555 1_555
C4_41 C3_41 1_555 1_555
H2_41 C4_41 1_555 1_555
C5_41 C4_41 1_555 1_555
C6_41 C5_41 1_555 1_555
H3_41 C6_41 1_555 1_555
C7_41 C2_41 1_555 1_555
H4_41 C7_41 1_555 1_555
N1_41 C5_41 1_555 1_555
O16_22 C8_41 1_555 1_555
C8_41 O4_41 1_555 1_555
C9_41 C8_41 1_555 1_555
C10_41 C9_41 1_555 1_555
H5_41 C10_41 1_555 1_555
C11_41 C10_41 1_555 1_555
H6_41 C11_41 1_555 1_555
C12_41 C11_41 1_555 1_555
C13_41 C12_41 1_555 1_555
H7_41 C13_41 1_555 1_555
C14_41 C9_41 1_555 1_555
H8_41 C14_41 1_555 1_555
N2_41 C19_41 1_555 1_555
O5_41 C15_41 1_555 1_555
C15_41 O6_41 1_555 1_555
C16_41 C15_41 1_555 1_555
C17_41 C16_41 1_555 1_555
H9_41 C17_41 1_555 1_555
C18_41 C17_41 1_555 1_555
H10_41 C18_41 1_555 1_555
C19_41 C18_41 1_555 1_555
C20_41 C19_41 1_555 1_555
H11_41 C20_41 1_555 1_555
C21_41 C16_41 1_555 1_555
H12_41 C21_41 1_555 1_555
N3_41 C12_41 1_555 1_555
C22_41 N17_9 1_555 1_555
N17_9 C23_41 1_555 1_555
C23_41 H13_41 1_555 1_555
N5_41 C23_41 1_555 1_555
C24_41 C22_41 1_555 1_555
N6_41 C24_41 1_555 1_555
C25_41 N6_41 1_555 1_555
H14_41 C25_41 1_555 1_555
N7_41 C25_41 1_555 1_555
C26_41 C22_41 1_555 1_555
N8_41 C26_41 1_555 1_555
H15_41 N8_41 1_555 1_555
H16_41 N8_41 1_555 1_555
Zn6_9 O5_41 1_555 1_555
Zn9_14 N6_41 1_555 1_555
O7_61 Zn9_14 1_555 1_555
O8_41 C27_41 1_555 1_555
C27_41 O14_16 1_555 1_555
C28_41 C27_41 1_555 1_555
C29_41 C28_41 1_555 1_555
H17_41 C29_41 1_555 1_555
C30_41 C29_41 1_555 1_555
H18_41 C30_41 1_555 1_555
C31_41 C30_41 1_555 1_555
C32_41 C31_41 1_555 1_555
H19_41 C32_41 1_555 1_555
C33_41 C28_41 1_555 1_555
H20_41 C33_41 1_555 1_555
N9_41 N1_41 1_555 1_555
O15_23 C34_41 1_555 1_555
C34_41 O11_41 1_555 1_555
C35_41 C34_41 1_555 1_555
C36_41 C35_41 1_555 1_555
H21_41 C36_41 1_555 1_555
C37_41 C36_41 1_555 1_555
H22_41 C37_41 1_555 1_555
C38_41 C37_41 1_555 1_555
C39_41 C38_41 1_555 1_555
H23_41 C39_41 1_555 1_555
C40_41 C35_41 1_555 1_555
H24_41 C40_41 1_555 1_555
N10_41 C45_41 1_555 1_555
O12_41 C41_41 1_555 1_555
C41_41 O13_41 1_555 1_555
C42_41 C41_41 1_555 1_555
C43_41 C42_41 1_555 1_555
H25_41 C43_41 1_555 1_555
C44_41 C43_41 1_555 1_555
H26_41 C44_41 1_555 1_555
C45_41 C44_41 1_555 1_555
C46_41 C45_41 1_555 1_555
H27_41 C46_41 1_555 1_555
C47_41 C42_41 1_555 1_555
H28_41 C47_41 1_555 1_555
N11_41 C38_41 1_555 1_555
C48_41 N18_9 1_555 1_555
N18_9 C49_41 1_555 1_555
C49_41 H29_41 1_555 1_555
N13_41 Zn9_14 1_555 1_555
C50_41 C48_41 1_555 1_555
N14_41 C50_41 1_555 1_555
C51_41 N14_41 1_555 1_555
H30_41 C51_41 1_555 1_555
N15_41 C51_41 1_555 1_555
C52_41 C48_41 1_555 1_555
N16_41 C52_41 1_555 1_555
H31_41 N16_41 1_555 1_555
H32_41 N16_41 1_555 1_555
Zn7_9 O12_41 1_555 1_555
Zn8_16 N5_41 1_555 1_555
C6_41 C7_41 1_555 1_555
C13_41 C14_41 1_555 1_555
N2_41 N3_41 1_555 1_555
C20_41 C21_41 1_555 1_555
N5_41 C24_41 1_555 1_555
N7_41 C26_41 1_555 1_555
N7_41 Zn6_9 1_555 1_555
O7_61 Zn8_16 1_555 1_555
C31_41 N9_41 1_555 1_555
C32_41 C33_41 1_555 1_555
C39_41 C40_41 1_555 1_555
N10_41 N11_41 1_555 1_555
C46_41 C47_41 1_555 1_555
C49_41 N13_41 1_555 1_555
N13_41 C50_41 1_555 1_555
N14_41 Zn8_16 1_555 1_555
N15_41 C52_41 1_555 1_555
N15_41 Zn7_9 1_555 1_555
O1_42 C1_42 1_555 1_555
C1_42 O2_42 1_555 1_555
O2_42 Zn6_10 1_555 1_555
C2_42 C1_42 1_555 1_555
C3_42 C2_42 1_555 1_555
H1_42 C3_42 1_555 1_555
C4_42 C3_42 1_555 1_555
H2_42 C4_42 1_555 1_555
C5_42 C4_42 1_555 1_555
C6_42 C5_42 1_555 1_555
H3_42 C6_42 1_555 1_555
C7_42 C2_42 1_555 1_555
H4_42 C7_42 1_555 1_555
N1_42 C5_42 1_555 1_555
O16_24 C8_42 1_555 1_555
C8_42 O4_42 1_555 1_555
C9_42 C8_42 1_555 1_555
C10_42 C9_42 1_555 1_555
H5_42 C10_42 1_555 1_555
C11_42 C10_42 1_555 1_555
H6_42 C11_42 1_555 1_555
C12_42 C11_42 1_555 1_555
C13_42 C12_42 1_555 1_555
H7_42 C13_42 1_555 1_555
C14_42 C9_42 1_555 1_555
H8_42 C14_42 1_555 1_555
N2_42 C19_42 1_555 1_555
O5_42 C15_42 1_555 1_555
C15_42 O6_42 1_555 1_555
C16_42 C15_42 1_555 1_555
C17_42 C16_42 1_555 1_555
H9_42 C17_42 1_555 1_555
C18_42 C17_42 1_555 1_555
H10_42 C18_42 1_555 1_555
C19_42 C18_42 1_555 1_555
C20_42 C19_42 1_555 1_555
H11_42 C20_42 1_555 1_555
C21_42 C16_42 1_555 1_555
H12_42 C21_42 1_555 1_555
N3_42 C12_42 1_555 1_555
C22_42 N17_10 1_555 1_555
N17_10 C23_42 1_555 1_555
C23_42 H13_42 1_555 1_555
N5_42 C23_42 1_555 1_555
C24_42 C22_42 1_555 1_555
N6_42 C24_42 1_555 1_555
C25_42 N6_42 1_555 1_555
H14_42 C25_42 1_555 1_555
N7_42 C25_42 1_555 1_555
C26_42 C22_42 1_555 1_555
N8_42 C26_42 1_555 1_555
H15_42 N8_42 1_555 1_555
H16_42 N8_42 1_555 1_555
Zn6_10 O5_42 1_555 1_555
Zn9_15 N6_42 1_555 1_555
O7_62 Zn9_15 1_555 1_555
O8_42 C27_42 1_555 1_555
C27_42 O14_14 1_555 1_555
C28_42 C27_42 1_555 1_555
C29_42 C28_42 1_555 1_555
H17_42 C29_42 1_555 1_555
C30_42 C29_42 1_555 1_555
H18_42 C30_42 1_555 1_555
C31_42 C30_42 1_555 1_555
C32_42 C31_42 1_555 1_555
H19_42 C32_42 1_555 1_555
C33_42 C28_42 1_555 1_555
H20_42 C33_42 1_555 1_555
N9_42 N1_42 1_555 1_555
C6_42 C7_42 1_555 1_555
C13_42 C14_42 1_555 1_555
N2_42 N3_42 1_555 1_555
C20_42 C21_42 1_555 1_555
N5_42 C24_42 1_555 1_555
N7_42 C26_42 1_555 1_555
N7_42 Zn6_10 1_555 1_555
C31_42 N9_42 1_555 1_555
C32_42 C33_42 1_555 1_555
O15_21 C34_42 1_555 1_555
C34_42 O11_42 1_555 1_555
C35_42 C34_42 1_555 1_555
C36_42 C35_42 1_555 1_555
H21_42 C36_42 1_555 1_555
C37_42 C36_42 1_555 1_555
H22_42 C37_42 1_555 1_555
C38_42 C37_42 1_555 1_555
C39_42 C38_42 1_555 1_555
H23_42 C39_42 1_555 1_555
C40_42 C35_42 1_555 1_555
H24_42 C40_42 1_555 1_555
N10_42 C45_42 1_555 1_555
O12_42 C41_42 1_555 1_555
C41_42 O13_42 1_555 1_555
C42_42 C41_42 1_555 1_555
C43_42 C42_42 1_555 1_555
H25_42 C43_42 1_555 1_555
C44_42 C43_42 1_555 1_555
H26_42 C44_42 1_555 1_555
C45_42 C44_42 1_555 1_555
C46_42 C45_42 1_555 1_555
H27_42 C46_42 1_555 1_555
C47_42 C42_42 1_555 1_555
H28_42 C47_42 1_555 1_555
N11_42 C38_42 1_555 1_555
C48_42 N18_10 1_555 1_555
N18_10 C49_42 1_555 1_555
C49_42 H29_42 1_555 1_555
C50_42 C48_42 1_555 1_555
N14_42 C50_42 1_555 1_555
C51_42 N14_42 1_555 1_555
H30_42 C51_42 1_555 1_555
N15_42 C51_42 1_555 1_555
C52_42 C48_42 1_555 1_555
N16_42 C52_42 1_555 1_555
H31_42 N16_42 1_555 1_555
H32_42 N16_42 1_555 1_555
Zn7_10 O12_42 1_555 1_555
O7_63 Zn8_13 1_555 1_555
C39_42 C40_42 1_555 1_555
N10_42 N11_42 1_555 1_555
C46_42 C47_42 1_555 1_555
C49_42 N13_42 1_555 1_555
N13_42 C50_42 1_555 1_555
N14_42 Zn8_13 1_555 1_555
N15_42 C52_42 1_555 1_555
N15_42 Zn7_10 1_555 1_555
O15_22 C34_43 1_555 1_555
C34_43 O11_43 1_555 1_555
C35_43 C34_43 1_555 1_555
C36_43 C35_43 1_555 1_555
H21_43 C36_43 1_555 1_555
C37_43 C36_43 1_555 1_555
H22_43 C37_43 1_555 1_555
C38_43 C37_43 1_555 1_555
C39_43 C38_43 1_555 1_555
H23_43 C39_43 1_555 1_555
C40_43 C35_43 1_555 1_555
H24_43 C40_43 1_555 1_555
N10_43 C45_43 1_555 1_555
O12_43 C41_43 1_555 1_555
C41_43 O13_43 1_555 1_555
C42_43 C41_43 1_555 1_555
C43_43 C42_43 1_555 1_555
H25_43 C43_43 1_555 1_555
C44_43 C43_43 1_555 1_555
H26_43 C44_43 1_555 1_555
C45_43 C44_43 1_555 1_555
C46_43 C45_43 1_555 1_555
H27_43 C46_43 1_555 1_555
C47_43 C42_43 1_555 1_555
H28_43 C47_43 1_555 1_555
N11_43 C38_43 1_555 1_555
C48_43 N18_12 1_555 1_555
N18_12 C49_43 1_555 1_555
C49_43 H29_43 1_555 1_555
C50_43 C48_43 1_555 1_555
N14_43 C50_43 1_555 1_555
C51_43 N14_43 1_555 1_555
H30_43 C51_43 1_555 1_555
N15_43 C51_43 1_555 1_555
C52_43 C48_43 1_555 1_555
N16_43 C52_43 1_555 1_555
H31_43 N16_43 1_555 1_555
H32_43 N16_43 1_555 1_555
Zn7_12 O12_43 1_555 1_555
O7_64 Zn8_15 1_555 1_555
C39_43 C40_43 1_555 1_555
N10_43 N11_43 1_555 1_555
C46_43 C47_43 1_555 1_555
C49_43 N13_43 1_555 1_555
N13_43 C50_43 1_555 1_555
N14_43 Zn8_15 1_555 1_555
N15_43 C52_43 1_555 1_555
N15_43 Zn7_12 1_555 1_555
O1_43 C1_43 1_555 1_555
C1_43 O2_43 1_555 1_555
O2_43 Zn6_12 1_555 1_555
C2_43 C1_43 1_555 1_555
C3_43 C2_43 1_555 1_555
H1_43 C3_43 1_555 1_555
C4_43 C3_43 1_555 1_555
H2_43 C4_43 1_555 1_555
C5_43 C4_43 1_555 1_555
C6_43 C5_43 1_555 1_555
H3_43 C6_43 1_555 1_555
C7_43 C2_43 1_555 1_555
H4_43 C7_43 1_555 1_555
N1_43 C5_43 1_555 1_555
O16_23 C8_43 1_555 1_555
C8_43 O4_43 1_555 1_555
C9_43 C8_43 1_555 1_555
C10_43 C9_43 1_555 1_555
H5_43 C10_43 1_555 1_555
C11_43 C10_43 1_555 1_555
H6_43 C11_43 1_555 1_555
C12_43 C11_43 1_555 1_555
C13_43 C12_43 1_555 1_555
H7_43 C13_43 1_555 1_555
C14_43 C9_43 1_555 1_555
H8_43 C14_43 1_555 1_555
N2_43 C19_43 1_555 1_555
O5_43 C15_43 1_555 1_555
C15_43 O6_43 1_555 1_555
C16_43 C15_43 1_555 1_555
C17_43 C16_43 1_555 1_555
H9_43 C17_43 1_555 1_555
C18_43 C17_43 1_555 1_555
H10_43 C18_43 1_555 1_555
C19_43 C18_43 1_555 1_555
C20_43 C19_43 1_555 1_555
H11_43 C20_43 1_555 1_555
C21_43 C16_43 1_555 1_555
H12_43 C21_43 1_555 1_555
N3_43 C12_43 1_555 1_555
C22_43 N17_12 1_555 1_555
N17_12 C23_43 1_555 1_555
C23_43 H13_43 1_555 1_555
N5_43 C23_43 1_555 1_555
C24_43 C22_43 1_555 1_555
N6_43 C24_43 1_555 1_555
C25_43 N6_43 1_555 1_555
H14_43 C25_43 1_555 1_555
N7_43 C25_43 1_555 1_555
C26_43 C22_43 1_555 1_555
N8_43 C26_43 1_555 1_555
H15_43 N8_43 1_555 1_555
H16_43 N8_43 1_555 1_555
Zn6_12 O5_43 1_555 1_555
Zn9_13 N6_43 1_555 1_555
O7_65 Zn9_13 1_555 1_555
O8_43 C27_43 1_555 1_555
C27_43 O14_15 1_555 1_555
C28_43 C27_43 1_555 1_555
C29_43 C28_43 1_555 1_555
H17_43 C29_43 1_555 1_555
C30_43 C29_43 1_555 1_555
H18_43 C30_43 1_555 1_555
C31_43 C30_43 1_555 1_555
C32_43 C31_43 1_555 1_555
H19_43 C32_43 1_555 1_555
C33_43 C28_43 1_555 1_555
H20_43 C33_43 1_555 1_555
N9_43 N1_43 1_555 1_555
C6_43 C7_43 1_555 1_555
C13_43 C14_43 1_555 1_555
N2_43 N3_43 1_555 1_555
C20_43 C21_43 1_555 1_555
N5_43 C24_43 1_555 1_555
N7_43 C26_43 1_555 1_555
N7_43 Zn6_12 1_555 1_555
C31_43 N9_43 1_555 1_555
C32_43 C33_43 1_555 1_555
O1_44 C1_44 1_555 1_555
C1_44 O2_44 1_555 1_555
O2_44 Zn6_11 1_555 1_555
C2_44 C1_44 1_555 1_555
C3_44 C2_44 1_555 1_555
H1_44 C3_44 1_555 1_555
C4_44 C3_44 1_555 1_555
H2_44 C4_44 1_555 1_555
C5_44 C4_44 1_555 1_555
C6_44 C5_44 1_555 1_555
H3_44 C6_44 1_555 1_555
C7_44 C2_44 1_555 1_555
H4_44 C7_44 1_555 1_555
N1_44 C5_44 1_555 1_555
O16_21 C8_44 1_555 1_555
C8_44 O4_44 1_555 1_555
C9_44 C8_44 1_555 1_555
C10_44 C9_44 1_555 1_555
H5_44 C10_44 1_555 1_555
C11_44 C10_44 1_555 1_555
H6_44 C11_44 1_555 1_555
C12_44 C11_44 1_555 1_555
C13_44 C12_44 1_555 1_555
H7_44 C13_44 1_555 1_555
C14_44 C9_44 1_555 1_555
H8_44 C14_44 1_555 1_555
N2_44 C19_44 1_555 1_555
O5_44 C15_44 1_555 1_555
C15_44 O6_44 1_555 1_555
C16_44 C15_44 1_555 1_555
C17_44 C16_44 1_555 1_555
H9_44 C17_44 1_555 1_555
C18_44 C17_44 1_555 1_555
H10_44 C18_44 1_555 1_555
C19_44 C18_44 1_555 1_555
C20_44 C19_44 1_555 1_555
H11_44 C20_44 1_555 1_555
C21_44 C16_44 1_555 1_555
H12_44 C21_44 1_555 1_555
N3_44 C12_44 1_555 1_555
C22_44 N17_11 1_555 1_555
N17_11 C23_44 1_555 1_555
C23_44 H13_44 1_555 1_555
N5_44 C23_44 1_555 1_555
C24_44 C22_44 1_555 1_555
N6_44 C24_44 1_555 1_555
C25_44 N6_44 1_555 1_555
H14_44 C25_44 1_555 1_555
N7_44 C25_44 1_555 1_555
C26_44 C22_44 1_555 1_555
N8_44 C26_44 1_555 1_555
H15_44 N8_44 1_555 1_555
H16_44 N8_44 1_555 1_555
Zn6_11 O5_44 1_555 1_555
Zn9_16 N6_44 1_555 1_555
O7_66 Zn9_16 1_555 1_555
O8_44 C27_44 1_555 1_555
C27_44 O14_13 1_555 1_555
C28_44 C27_44 1_555 1_555
C29_44 C28_44 1_555 1_555
H17_44 C29_44 1_555 1_555
C30_44 C29_44 1_555 1_555
H18_44 C30_44 1_555 1_555
C31_44 C30_44 1_555 1_555
C32_44 C31_44 1_555 1_555
H19_44 C32_44 1_555 1_555
C33_44 C28_44 1_555 1_555
H20_44 C33_44 1_555 1_555
N9_44 N1_44 1_555 1_555
O15_24 C34_44 1_555 1_555
C34_44 O11_44 1_555 1_555
C35_44 C34_44 1_555 1_555
C36_44 C35_44 1_555 1_555
H21_44 C36_44 1_555 1_555
C37_44 C36_44 1_555 1_555
H22_44 C37_44 1_555 1_555
C38_44 C37_44 1_555 1_555
C39_44 C38_44 1_555 1_555
H23_44 C39_44 1_555 1_555
C40_44 C35_44 1_555 1_555
H24_44 C40_44 1_555 1_555
N10_44 C45_44 1_555 1_555
O12_44 C41_44 1_555 1_555
C41_44 O13_44 1_555 1_555
C42_44 C41_44 1_555 1_555
C43_44 C42_44 1_555 1_555
H25_44 C43_44 1_555 1_555
C44_44 C43_44 1_555 1_555
H26_44 C44_44 1_555 1_555
C45_44 C44_44 1_555 1_555
C46_44 C45_44 1_555 1_555
H27_44 C46_44 1_555 1_555
C47_44 C42_44 1_555 1_555
H28_44 C47_44 1_555 1_555
N11_44 C38_44 1_555 1_555
C48_44 N18_11 1_555 1_555
N18_11 C49_44 1_555 1_555
C49_44 H29_44 1_555 1_555
N13_44 Zn9_16 1_555 1_555
C50_44 C48_44 1_555 1_555
N14_44 C50_44 1_555 1_555
C51_44 N14_44 1_555 1_555
H30_44 C51_44 1_555 1_555
N15_44 C51_44 1_555 1_555
C52_44 C48_44 1_555 1_555
N16_44 C52_44 1_555 1_555
H31_44 N16_44 1_555 1_555
H32_44 N16_44 1_555 1_555
Zn7_11 O12_44 1_555 1_555
Zn8_14 N5_44 1_555 1_555
C6_44 C7_44 1_555 1_555
C13_44 C14_44 1_555 1_555
N2_44 N3_44 1_555 1_555
C20_44 C21_44 1_555 1_555
N5_44 C24_44 1_555 1_555
N7_44 C26_44 1_555 1_555
N7_44 Zn6_11 1_555 1_555
O7_66 Zn8_14 1_555 1_555
C31_44 N9_44 1_555 1_555
C32_44 C33_44 1_555 1_555
C39_44 C40_44 1_555 1_555
N10_44 N11_44 1_555 1_555
C46_44 C47_44 1_555 1_555
C49_44 N13_44 1_555 1_555
N13_44 C50_44 1_555 1_555
N14_44 Zn8_14 1_555 1_555
N15_44 C52_44 1_555 1_555
N15_44 Zn7_11 1_555 1_555
O1_45 C1_45 1_555 1_555
C1_45 O2_45 1_555 1_555
O2_45 Zn6_6 1_555 1_555
C2_45 C1_45 1_555 1_555
C3_45 C2_45 1_555 1_555
H1_45 C3_45 1_555 1_555
C4_45 C3_45 1_555 1_555
H2_45 C4_45 1_555 1_555
C5_45 C4_45 1_555 1_555
C6_45 C5_45 1_555 1_555
H3_45 C6_45 1_555 1_555
C7_45 C2_45 1_555 1_555
H4_45 C7_45 1_555 1_555
N1_45 C5_45 1_555 1_555
O16_14 C8_45 1_555 1_555
C8_45 O4_45 1_555 1_555
C9_45 C8_45 1_555 1_555
C10_45 C9_45 1_555 1_555
H5_45 C10_45 1_555 1_555
C11_45 C10_45 1_555 1_555
H6_45 C11_45 1_555 1_555
C12_45 C11_45 1_555 1_555
C13_45 C12_45 1_555 1_555
H7_45 C13_45 1_555 1_555
C14_45 C9_45 1_555 1_555
H8_45 C14_45 1_555 1_555
N2_45 C19_45 1_555 1_555
O5_45 C15_45 1_555 1_555
C15_45 O6_45 1_555 1_555
C16_45 C15_45 1_555 1_555
C17_45 C16_45 1_555 1_555
H9_45 C17_45 1_555 1_555
C18_45 C17_45 1_555 1_555
H10_45 C18_45 1_555 1_555
C19_45 C18_45 1_555 1_555
C20_45 C19_45 1_555 1_555
H11_45 C20_45 1_555 1_555
C21_45 C16_45 1_555 1_555
H12_45 C21_45 1_555 1_555
N3_45 C12_45 1_555 1_555
C22_45 N17_6 1_555 1_555
N17_6 C23_45 1_555 1_555
C23_45 H13_45 1_555 1_555
N5_45 C23_45 1_555 1_555
C24_45 C22_45 1_555 1_555
N6_45 C24_45 1_555 1_555
C25_45 N6_45 1_555 1_555
H14_45 C25_45 1_555 1_555
N7_45 C25_45 1_555 1_555
C26_45 C22_45 1_555 1_555
N8_45 C26_45 1_555 1_555
H15_45 N8_45 1_555 1_555
H16_45 N8_45 1_555 1_555
Zn6_6 O5_45 1_555 1_555
Zn9_18 N6_45 1_555 1_555
O7_67 Zn9_18 1_555 1_555
O8_45 C27_45 1_555 1_555
C27_45 O14_22 1_555 1_555
C28_45 C27_45 1_555 1_555
C29_45 C28_45 1_555 1_555
H17_45 C29_45 1_555 1_555
C30_45 C29_45 1_555 1_555
H18_45 C30_45 1_555 1_555
C31_45 C30_45 1_555 1_555
C32_45 C31_45 1_555 1_555
H19_45 C32_45 1_555 1_555
C33_45 C28_45 1_555 1_555
H20_45 C33_45 1_555 1_555
N9_45 N1_45 1_555 1_555
C6_45 C7_45 1_555 1_555
C13_45 C14_45 1_555 1_555
N2_45 N3_45 1_555 1_555
C20_45 C21_45 1_555 1_555
N5_45 C24_45 1_555 1_555
N7_45 C26_45 1_555 1_555
N7_45 Zn6_6 1_555 1_555
C31_45 N9_45 1_555 1_555
C32_45 C33_45 1_555 1_555
O15_15 C34_45 1_555 1_555
C34_45 O11_45 1_555 1_555
C35_45 C34_45 1_555 1_555
C36_45 C35_45 1_555 1_555
H21_45 C36_45 1_555 1_555
C37_45 C36_45 1_555 1_555
H22_45 C37_45 1_555 1_555
C38_45 C37_45 1_555 1_555
C39_45 C38_45 1_555 1_555
H23_45 C39_45 1_555 1_555
C40_45 C35_45 1_555 1_555
H24_45 C40_45 1_555 1_555
N10_45 C45_45 1_555 1_555
O12_45 C41_45 1_555 1_555
C41_45 O13_45 1_555 1_555
C42_45 C41_45 1_555 1_555
C43_45 C42_45 1_555 1_555
H25_45 C43_45 1_555 1_555
C44_45 C43_45 1_555 1_555
H26_45 C44_45 1_555 1_555
C45_45 C44_45 1_555 1_555
C46_45 C45_45 1_555 1_555
H27_45 C46_45 1_555 1_555
C47_45 C42_45 1_555 1_555
H28_45 C47_45 1_555 1_555
N11_45 C38_45 1_555 1_555
C48_45 N18_6 1_555 1_555
N18_6 C49_45 1_555 1_555
C49_45 H29_45 1_555 1_555
C50_45 C48_45 1_555 1_555
N14_45 C50_45 1_555 1_555
C51_45 N14_45 1_555 1_555
H30_45 C51_45 1_555 1_555
N15_45 C51_45 1_555 1_555
C52_45 C48_45 1_555 1_555
N16_45 C52_45 1_555 1_555
H31_45 N16_45 1_555 1_555
H32_45 N16_45 1_555 1_555
Zn7_6 O12_45 1_555 1_555
O7_68 Zn8_20 1_555 1_555
C39_45 C40_45 1_555 1_555
N10_45 N11_45 1_555 1_555
C46_45 C47_45 1_555 1_555
C49_45 N13_45 1_555 1_555
N13_45 C50_45 1_555 1_555
N14_45 Zn8_20 1_555 1_555
N15_45 C52_45 1_555 1_555
N15_45 Zn7_6 1_555 1_555
O1_46 C1_46 1_555 1_555
C1_46 O2_46 1_555 1_555
O2_46 Zn6_5 1_555 1_555
C2_46 C1_46 1_555 1_555
C3_46 C2_46 1_555 1_555
H1_46 C3_46 1_555 1_555
C4_46 C3_46 1_555 1_555
H2_46 C4_46 1_555 1_555
C5_46 C4_46 1_555 1_555
C6_46 C5_46 1_555 1_555
H3_46 C6_46 1_555 1_555
C7_46 C2_46 1_555 1_555
H4_46 C7_46 1_555 1_555
N1_46 C5_46 1_555 1_555
O16_16 C8_46 1_555 1_555
C8_46 O4_46 1_555 1_555
C9_46 C8_46 1_555 1_555
C10_46 C9_46 1_555 1_555
H5_46 C10_46 1_555 1_555
C11_46 C10_46 1_555 1_555
H6_46 C11_46 1_555 1_555
C12_46 C11_46 1_555 1_555
C13_46 C12_46 1_555 1_555
H7_46 C13_46 1_555 1_555
C14_46 C9_46 1_555 1_555
H8_46 C14_46 1_555 1_555
N2_46 C19_46 1_555 1_555
O5_46 C15_46 1_555 1_555
C15_46 O6_46 1_555 1_555
C16_46 C15_46 1_555 1_555
C17_46 C16_46 1_555 1_555
H9_46 C17_46 1_555 1_555
C18_46 C17_46 1_555 1_555
H10_46 C18_46 1_555 1_555
C19_46 C18_46 1_555 1_555
C20_46 C19_46 1_555 1_555
H11_46 C20_46 1_555 1_555
C21_46 C16_46 1_555 1_555
H12_46 C21_46 1_555 1_555
N3_46 C12_46 1_555 1_555
C22_46 N17_5 1_555 1_555
N17_5 C23_46 1_555 1_555
C23_46 H13_46 1_555 1_555
N5_46 C23_46 1_555 1_555
C24_46 C22_46 1_555 1_555
N6_46 C24_46 1_555 1_555
C25_46 N6_46 1_555 1_555
H14_46 C25_46 1_555 1_555
N7_46 C25_46 1_555 1_555
C26_46 C22_46 1_555 1_555
N8_46 C26_46 1_555 1_555
H15_46 N8_46 1_555 1_555
H16_46 N8_46 1_555 1_555
Zn6_5 O5_46 1_555 1_555
Zn9_19 N6_46 1_555 1_555
O7_69 Zn9_19 1_555 1_555
O8_46 C27_46 1_555 1_555
C27_46 O14_24 1_555 1_555
C28_46 C27_46 1_555 1_555
C29_46 C28_46 1_555 1_555
H17_46 C29_46 1_555 1_555
C30_46 C29_46 1_555 1_555
H18_46 C30_46 1_555 1_555
C31_46 C30_46 1_555 1_555
C32_46 C31_46 1_555 1_555
H19_46 C32_46 1_555 1_555
C33_46 C28_46 1_555 1_555
H20_46 C33_46 1_555 1_555
N9_46 N1_46 1_555 1_555
O15_13 C34_46 1_555 1_555
C34_46 O11_46 1_555 1_555
C35_46 C34_46 1_555 1_555
C36_46 C35_46 1_555 1_555
H21_46 C36_46 1_555 1_555
C37_46 C36_46 1_555 1_555
H22_46 C37_46 1_555 1_555
C38_46 C37_46 1_555 1_555
C39_46 C38_46 1_555 1_555
H23_46 C39_46 1_555 1_555
C40_46 C35_46 1_555 1_555
H24_46 C40_46 1_555 1_555
N10_46 C45_46 1_555 1_555
O12_46 C41_46 1_555 1_555
C41_46 O13_46 1_555 1_555
C42_46 C41_46 1_555 1_555
C43_46 C42_46 1_555 1_555
H25_46 C43_46 1_555 1_555
C44_46 C43_46 1_555 1_555
H26_46 C44_46 1_555 1_555
C45_46 C44_46 1_555 1_555
C46_46 C45_46 1_555 1_555
H27_46 C46_46 1_555 1_555
C47_46 C42_46 1_555 1_555
H28_46 C47_46 1_555 1_555
N11_46 C38_46 1_555 1_555
C48_46 N18_5 1_555 1_555
N18_5 C49_46 1_555 1_555
C49_46 H29_46 1_555 1_555
N13_46 Zn9_19 1_555 1_555
C50_46 C48_46 1_555 1_555
N14_46 C50_46 1_555 1_555
C51_46 N14_46 1_555 1_555
H30_46 C51_46 1_555 1_555
N15_46 C51_46 1_555 1_555
C52_46 C48_46 1_555 1_555
N16_46 C52_46 1_555 1_555
H31_46 N16_46 1_555 1_555
H32_46 N16_46 1_555 1_555
Zn7_5 O12_46 1_555 1_555
Zn8_17 N5_46 1_555 1_555
C6_46 C7_46 1_555 1_555
C13_46 C14_46 1_555 1_555
N2_46 N3_46 1_555 1_555
C20_46 C21_46 1_555 1_555
N5_46 C24_46 1_555 1_555
N7_46 C26_46 1_555 1_555
N7_46 Zn6_5 1_555 1_555
O7_69 Zn8_17 1_555 1_555
C31_46 N9_46 1_555 1_555
C32_46 C33_46 1_555 1_555
C39_46 C40_46 1_555 1_555
N10_46 N11_46 1_555 1_555
C46_46 C47_46 1_555 1_555
C49_46 N13_46 1_555 1_555
N13_46 C50_46 1_555 1_555
N14_46 Zn8_17 1_555 1_555
N15_46 C52_46 1_555 1_555
N15_46 Zn7_5 1_555 1_555
O1_47 C1_47 1_555 1_555
C1_47 O2_47 1_555 1_555
O2_47 Zn6_7 1_555 1_555
C2_47 C1_47 1_555 1_555
C3_47 C2_47 1_555 1_555
H1_47 C3_47 1_555 1_555
C4_47 C3_47 1_555 1_555
H2_47 C4_47 1_555 1_555
C5_47 C4_47 1_555 1_555
C6_47 C5_47 1_555 1_555
H3_47 C6_47 1_555 1_555
C7_47 C2_47 1_555 1_555
H4_47 C7_47 1_555 1_555
N1_47 C5_47 1_555 1_555
O16_15 C8_47 1_555 1_555
C8_47 O4_47 1_555 1_555
C9_47 C8_47 1_555 1_555
C10_47 C9_47 1_555 1_555
H5_47 C10_47 1_555 1_555
C11_47 C10_47 1_555 1_555
H6_47 C11_47 1_555 1_555
C12_47 C11_47 1_555 1_555
C13_47 C12_47 1_555 1_555
H7_47 C13_47 1_555 1_555
C14_47 C9_47 1_555 1_555
H8_47 C14_47 1_555 1_555
N2_47 C19_47 1_555 1_555
O5_47 C15_47 1_555 1_555
C15_47 O6_47 1_555 1_555
C16_47 C15_47 1_555 1_555
C17_47 C16_47 1_555 1_555
H9_47 C17_47 1_555 1_555
C18_47 C17_47 1_555 1_555
H10_47 C18_47 1_555 1_555
C19_47 C18_47 1_555 1_555
C20_47 C19_47 1_555 1_555
H11_47 C20_47 1_555 1_555
C21_47 C16_47 1_555 1_555
H12_47 C21_47 1_555 1_555
N3_47 C12_47 1_555 1_555
C22_47 N17_7 1_555 1_555
N17_7 C23_47 1_555 1_555
C23_47 H13_47 1_555 1_555
N5_47 C23_47 1_555 1_555
C24_47 C22_47 1_555 1_555
N6_47 C24_47 1_555 1_555
C25_47 N6_47 1_555 1_555
H14_47 C25_47 1_555 1_555
N7_47 C25_47 1_555 1_555
C26_47 C22_47 1_555 1_555
N8_47 C26_47 1_555 1_555
H15_47 N8_47 1_555 1_555
H16_47 N8_47 1_555 1_555
Zn6_7 O5_47 1_555 1_555
Zn9_17 N6_47 1_555 1_555
O7_70 Zn9_17 1_555 1_555
O8_47 C27_47 1_555 1_555
C27_47 O14_21 1_555 1_555
C28_47 C27_47 1_555 1_555
C29_47 C28_47 1_555 1_555
H17_47 C29_47 1_555 1_555
C30_47 C29_47 1_555 1_555
H18_47 C30_47 1_555 1_555
C31_47 C30_47 1_555 1_555
C32_47 C31_47 1_555 1_555
H19_47 C32_47 1_555 1_555
C33_47 C28_47 1_555 1_555
H20_47 C33_47 1_555 1_555
N9_47 N1_47 1_555 1_555
O15_14 C34_47 1_555 1_555
C34_47 O11_47 1_555 1_555
C35_47 C34_47 1_555 1_555
C36_47 C35_47 1_555 1_555
H21_47 C36_47 1_555 1_555
C37_47 C36_47 1_555 1_555
H22_47 C37_47 1_555 1_555
C38_47 C37_47 1_555 1_555
C39_47 C38_47 1_555 1_555
H23_47 C39_47 1_555 1_555
C40_47 C35_47 1_555 1_555
H24_47 C40_47 1_555 1_555
N10_47 C45_47 1_555 1_555
O12_47 C41_47 1_555 1_555
C41_47 O13_47 1_555 1_555
C42_47 C41_47 1_555 1_555
C43_47 C42_47 1_555 1_555
H25_47 C43_47 1_555 1_555
C44_47 C43_47 1_555 1_555
H26_47 C44_47 1_555 1_555
C45_47 C44_47 1_555 1_555
C46_47 C45_47 1_555 1_555
H27_47 C46_47 1_555 1_555
C47_47 C42_47 1_555 1_555
H28_47 C47_47 1_555 1_555
N11_47 C38_47 1_555 1_555
C48_47 N18_7 1_555 1_555
N18_7 C49_47 1_555 1_555
C49_47 H29_47 1_555 1_555
N13_47 Zn9_17 1_555 1_555
C50_47 C48_47 1_555 1_555
N14_47 C50_47 1_555 1_555
C51_47 N14_47 1_555 1_555
H30_47 C51_47 1_555 1_555
N15_47 C51_47 1_555 1_555
C52_47 C48_47 1_555 1_555
N16_47 C52_47 1_555 1_555
H31_47 N16_47 1_555 1_555
H32_47 N16_47 1_555 1_555
Zn7_7 O12_47 1_555 1_555
Zn8_19 N5_47 1_555 1_555
C6_47 C7_47 1_555 1_555
C13_47 C14_47 1_555 1_555
N2_47 N3_47 1_555 1_555
C20_47 C21_47 1_555 1_555
N5_47 C24_47 1_555 1_555
N7_47 C26_47 1_555 1_555
N7_47 Zn6_7 1_555 1_555
O7_70 Zn8_19 1_555 1_555
C31_47 N9_47 1_555 1_555
C32_47 C33_47 1_555 1_555
C39_47 C40_47 1_555 1_555
N10_47 N11_47 1_555 1_555
C46_47 C47_47 1_555 1_555
C49_47 N13_47 1_555 1_555
N13_47 C50_47 1_555 1_555
N14_47 Zn8_19 1_555 1_555
N15_47 C52_47 1_555 1_555
N15_47 Zn7_7 1_555 1_555
O15_16 C34_48 1_555 1_555
C34_48 O11_48 1_555 1_555
C35_48 C34_48 1_555 1_555
C36_48 C35_48 1_555 1_555
H21_48 C36_48 1_555 1_555
C37_48 C36_48 1_555 1_555
H22_48 C37_48 1_555 1_555
C38_48 C37_48 1_555 1_555
C39_48 C38_48 1_555 1_555
H23_48 C39_48 1_555 1_555
C40_48 C35_48 1_555 1_555
H24_48 C40_48 1_555 1_555
N10_48 C45_48 1_555 1_555
O12_48 C41_48 1_555 1_555
C41_48 O13_48 1_555 1_555
C42_48 C41_48 1_555 1_555
C43_48 C42_48 1_555 1_555
H25_48 C43_48 1_555 1_555
C44_48 C43_48 1_555 1_555
H26_48 C44_48 1_555 1_555
C45_48 C44_48 1_555 1_555
C46_48 C45_48 1_555 1_555
H27_48 C46_48 1_555 1_555
C47_48 C42_48 1_555 1_555
H28_48 C47_48 1_555 1_555
N11_48 C38_48 1_555 1_555
C48_48 N18_8 1_555 1_555
N18_8 C49_48 1_555 1_555
C49_48 H29_48 1_555 1_555
C50_48 C48_48 1_555 1_555
N14_48 C50_48 1_555 1_555
C51_48 N14_48 1_555 1_555
H30_48 C51_48 1_555 1_555
N15_48 C51_48 1_555 1_555
C52_48 C48_48 1_555 1_555
N16_48 C52_48 1_555 1_555
H31_48 N16_48 1_555 1_555
H32_48 N16_48 1_555 1_555
Zn7_8 O12_48 1_555 1_555
O7_71 Zn8_18 1_555 1_555
C39_48 C40_48 1_555 1_555
N10_48 N11_48 1_555 1_555
C46_48 C47_48 1_555 1_555
C49_48 N13_48 1_555 1_555
N13_48 C50_48 1_555 1_555
N14_48 Zn8_18 1_555 1_555
N15_48 C52_48 1_555 1_555
N15_48 Zn7_8 1_555 1_555
O1_48 C1_48 1_555 1_555
C1_48 O2_48 1_555 1_555
O2_48 Zn6_8 1_555 1_555
C2_48 C1_48 1_555 1_555
C3_48 C2_48 1_555 1_555
H1_48 C3_48 1_555 1_555
C4_48 C3_48 1_555 1_555
H2_48 C4_48 1_555 1_555
C5_48 C4_48 1_555 1_555
C6_48 C5_48 1_555 1_555
H3_48 C6_48 1_555 1_555
C7_48 C2_48 1_555 1_555
H4_48 C7_48 1_555 1_555
N1_48 C5_48 1_555 1_555
O16_13 C8_48 1_555 1_555
C8_48 O4_48 1_555 1_555
C9_48 C8_48 1_555 1_555
C10_48 C9_48 1_555 1_555
H5_48 C10_48 1_555 1_555
C11_48 C10_48 1_555 1_555
H6_48 C11_48 1_555 1_555
C12_48 C11_48 1_555 1_555
C13_48 C12_48 1_555 1_555
H7_48 C13_48 1_555 1_555
C14_48 C9_48 1_555 1_555
H8_48 C14_48 1_555 1_555
N2_48 C19_48 1_555 1_555
O5_48 C15_48 1_555 1_555
C15_48 O6_48 1_555 1_555
C16_48 C15_48 1_555 1_555
C17_48 C16_48 1_555 1_555
H9_48 C17_48 1_555 1_555
C18_48 C17_48 1_555 1_555
H10_48 C18_48 1_555 1_555
C19_48 C18_48 1_555 1_555
C20_48 C19_48 1_555 1_555
H11_48 C20_48 1_555 1_555
C21_48 C16_48 1_555 1_555
H12_48 C21_48 1_555 1_555
N3_48 C12_48 1_555 1_555
C22_48 N17_8 1_555 1_555
N17_8 C23_48 1_555 1_555
C23_48 H13_48 1_555 1_555
N5_48 C23_48 1_555 1_555
C24_48 C22_48 1_555 1_555
N6_48 C24_48 1_555 1_555
C25_48 N6_48 1_555 1_555
H14_48 C25_48 1_555 1_555
N7_48 C25_48 1_555 1_555
C26_48 C22_48 1_555 1_555
N8_48 C26_48 1_555 1_555
H15_48 N8_48 1_555 1_555
H16_48 N8_48 1_555 1_555
Zn6_8 O5_48 1_555 1_555
Zn9_20 N6_48 1_555 1_555
O7_72 Zn9_20 1_555 1_555
O8_48 C27_48 1_555 1_555
C27_48 O14_23 1_555 1_555
C28_48 C27_48 1_555 1_555
C29_48 C28_48 1_555 1_555
H17_48 C29_48 1_555 1_555
C30_48 C29_48 1_555 1_555
H18_48 C30_48 1_555 1_555
C31_48 C30_48 1_555 1_555
C32_48 C31_48 1_555 1_555
H19_48 C32_48 1_555 1_555
C33_48 C28_48 1_555 1_555
H20_48 C33_48 1_555 1_555
N9_48 N1_48 1_555 1_555
C6_48 C7_48 1_555 1_555
C13_48 C14_48 1_555 1_555
N2_48 N3_48 1_555 1_555
C20_48 C21_48 1_555 1_555
N5_48 C24_48 1_555 1_555
N7_48 C26_48 1_555 1_555
N7_48 Zn6_8 1_555 1_555
C31_48 N9_48 1_555 1_555
C32_48 C33_48 1_555 1_555

#END
