
###############################################################################
#
# This file contains modified crystal structure data generated from the
# MOF subset of the Cambridge Structural Database (CSD) v543 
# hosted by the Cambridge Crystallographic Data Centre (CCDC).
#
# This work is licensed under the Creative Commons
# Attribution-NonCommercial-ShareAlike 4.0 International License.
# To view a copy of this license, visit
# http://creativecommons.org/licenses/by-nc-sa/4.0/
# or send a letter to
# Creative Commons, PO Box 1866, Mountain View, CA 94042, USA.
#
# CIF created using the CSD Python API on 29 September 2022
# The structure has been converted into the P1 space group
# The structure has a 3D framework
# The original CSD entry TOCJAY is in the cubic crystal system
# The framework has been calculated to contain at least 10.0% void space
# The void calculation uses a probe of radius 1.32A, grid spacing 0.4
#
###############################################################################

data_TOCJAY
_chemical_formula_moiety         '(C2208 H1248 N480 O600 Zn192)n'
_symmetry_cell_setting           triclinic
_symmetry_space_group_name_H-M   'P 1'
_symmetry_Int_Tables_number      1
_space_group_name_Hall           'P 1'
loop_
_symmetry_equiv_pos_site_id
_symmetry_equiv_pos_as_xyz
1 x,y,z
_cell_length_a                   62.039(5)
_cell_length_b                   62.039(5)
_cell_length_c                   62.039(5)
_cell_angle_alpha                90
_cell_angle_beta                 90
_cell_angle_gamma                90
_cell_volume                     238778
loop_
_atom_site_label
_atom_site_type_symbol
_atom_site_fract_x
_atom_site_fract_y
_atom_site_fract_z
O1 O 0.43109(8) 0.19168(7) 0.13465(9)
C1 C 0.41599(14) 0.18801(16) 0.14738(15)
O2 O 0.40536(10) 0.20277(9) 0.15510(12)
C2 C 0.41049(13) 0.16474(13) 0.15292(14)
C3 C 0.42117(13) 0.14831(15) 0.14334(13)
H1 H 0.4324 0.1508 0.1337
C4 C 0.41439(11) 0.12675(17) 0.14863(12)
C5 C 0.38776(16) 0.13991(15) 0.17367(16)
H2 H 0.3765 0.1377 0.1832
C6 C 0.39447(15) 0.16008(14) 0.16807(15)
H3 H 0.3879 0.1717 0.1749
O3 O 0.40870(8) 0.23963(8) 0.11093(10)
C7 C 0.39650(16) 0.22938(17) 0.09915(16)
O4 O 0.39840(11) 0.20945(11) 0.09755(14)
C8 C 0.37882(13) 0.24106(18) 0.08579(12)
C9 C 0.37761(15) 0.26174(17) 0.08345(17)
H4 H 0.3880 0.2709 0.0892
C10 C 0.35910(19) 0.26997(18) 0.0714(2)
C11 C 0.3582(2) 0.28985(19) 0.0656(2)
H5 H 0.3693 0.2994 0.0689
C12 C 0.3405(2) 0.29643(17) 0.0544(2)
H6 H 0.3388 0.3111 0.0520
C13 C 0.32528(18) 0.2830(2) 0.0467(2)
C14 C 0.3286(2) 0.2627(2) 0.0474(2)
H7 H 0.3199 0.2529 0.0400
C15 C 0.3460(2) 0.2562(2) 0.0598(3)
C16 C 0.3460(2) 0.2356(2) 0.0645(3)
H8 H 0.3347 0.2267 0.0602
C17 C 0.36325(18) 0.22740(17) 0.0759(2)
H9 H 0.3647 0.2125 0.0772
O5 O 0.29363(13) 0.28475(14) 0.02567(16)
C18 C 0.3079(2) 0.2951(2) 0.0330(2)
O6 O 0.30958(11) 0.31490(13) 0.03036(14)
C19 C 0.46244(15) 0.27500(17) 0.14999(16)
N1 N 0.47030(10) 0.29621(10) 0.14845(11)
C20 C 0.48469(12) 0.29585(14) 0.16480(15)
H10 H 0.4931 0.3079 0.1676
N2 N 0.48692(11) 0.27820(11) 0.17705(11)
C21 C 0.47298(14) 0.26423(19) 0.16831(16)
N3 N 0.46924(10) 0.24358(11) 0.17490(10)
C22 C 0.45475(12) 0.23386(13) 0.16133(14)
H11 H 0.4520 0.2194 0.1642
N4 N 0.44419(10) 0.24199(11) 0.14492(12)
C23 C 0.44783(16) 0.26465(18) 0.13950(17)
N5 N 0.43646(9) 0.27364(9) 0.12329(10)
H12 H 0.4388 0.2868 0.1196
H13 H 0.4268 0.2662 0.1166
Zn1 Zn 0.429822(13) 0.220914(13) 0.124153(16)
Zn2 Zn 0.488472(16) 0.227435(15) 0.197075(16)
O7 O 0.5000 0.2500 0.21502(10)
O8 O 0.38465(9) 0.05832(7) 0.18109(8)
C24 C 0.39738(15) 0.06199(16) 0.16599(14)
O9 O 0.40510(12) 0.04723(9) 0.15536(10)
C25 C 0.40292(14) 0.08526(13) 0.16049(13)
C26 C 0.39334(13) 0.10169(15) 0.17117(13)
H14 H 0.3837 0.0992 0.1824
C27 C 0.39863(12) 0.12325(17) 0.16439(11)
C28 C 0.42367(16) 0.11009(15) 0.13776(16)
H15 H 0.4332 0.1123 0.1265
C29 C 0.41807(15) 0.08992(14) 0.14447(15)
H16 H 0.4249 0.0783 0.1379
O10 O 0.36093(10) 0.01037(8) 0.15870(8)
C30 C 0.34915(16) 0.02062(17) 0.14650(16)
O11 O 0.34755(14) 0.04055(11) 0.14840(11)
C31 C 0.33579(12) 0.00894(18) 0.12882(13)
C39 C 0.3145(3) 0.0144(2) 0.0960(2)
H21 H 0.3102 0.0233 0.0847
C40 C 0.3259(2) 0.02260(17) 0.11325(18)
H22 H 0.3272 0.0375 0.1147
N8 N 0.42490(10) 0.00642(11) 0.21924(10)
C45 C 0.41133(14) 0.01614(13) 0.20475(12)
H24 H 0.4142 0.0306 0.2020
N9 N 0.39492(12) 0.00801(11) 0.19419(10)
Zn3 Zn 0.374153(16) 0.029086(13) 0.179822(13)
Zn4 Zn 0.447075(16) 0.022565(15) 0.238472(16)
O14 O 0.46525(14) 0.04363(13) 0.22433(16)
O15 O 0.47433(16) 0.20637(13) 0.21525(14)
N11 N 0.45379(10) 0.22030(10) 0.10155(11)
N12 N 0.35155(11) 0.02970(10) 0.20379(10)
N13 N 0.51308(11) 0.22180(11) 0.17705(11)
N14 N 0.42705(11) 0.02820(11) 0.26308(11)
Zn6 Zn 0.470914(13) 0.320178(13) 0.125847(16)
Zn7 Zn 0.511528(16) 0.272565(15) 0.197075(16)
Zn10 Zn 0.272565(15) 0.302925(16) 0.011528(16)
O16 O 0.46502(10) 0.0000 0.2500
C32 C 0.33345(17) 0.98826(17) 0.12761(15)
H17 H 0.3392 0.9791 0.1380
C33 C 0.3214(2) 0.98003(18) 0.10910(19)
C34 C 0.3156(2) 0.96015(19) 0.1082(2)
H18 H 0.3189 0.9506 0.1193
C35 C 0.3044(2) 0.95357(17) 0.0905(2)
H19 H 0.3020 0.9389 0.0888
C36 C 0.2967(2) 0.9670(2) 0.07528(18)
C37 C 0.2974(2) 0.9873(2) 0.0786(2)
H20 H 0.2900 0.9971 0.0699
C38 C 0.3098(3) 0.9938(2) 0.0960(2)
O12 O 0.27567(16) 0.96525(14) 0.04363(13)
C41 C 0.2830(2) 0.9549(2) 0.0579(2)
O13 O 0.28036(14) 0.93510(13) 0.05958(11)
C42 C 0.39999(16) 0.97500(17) 0.21244(15)
N6 N 0.39845(11) 0.95379(10) 0.22030(10)
C43 C 0.41480(15) 0.95415(14) 0.23469(12)
H23 H 0.4176 0.9421 0.2431
N7 N 0.42705(11) 0.97180(11) 0.23692(11)
C44 C 0.41831(16) 0.98577(19) 0.22298(14)
C46 C 0.38950(17) 0.98535(18) 0.19783(16)
N10 N 0.37329(10) 0.97636(9) 0.18646(9)
H25 H 0.3696 0.9632 0.1888
H26 H 0.3666 0.9838 0.1768
Zn5 Zn 0.375847(16) 0.929822(13) 0.220914(13)
Zn8 Zn 0.447075(16) 0.977435(15) 0.261528(16)
Zn9 Zn 0.261528(16) 0.947075(16) 0.022565(15)
O16_2 O 0.46502(10) 1.0000 0.2500
C32_2 C 0.16655(17) 0.01174(17) 0.62761(15)
H17_2 H 0.1608 0.0209 0.6380
C33_2 C 0.1786(2) 0.01997(18) 0.60910(19)
C34_2 C 0.1844(2) 0.03985(19) 0.6082(2)
H18_2 H 0.1811 0.0494 0.6193
C35_2 C 0.1956(2) 0.04643(17) 0.5905(2)
H19_2 H 0.1980 0.0611 0.5888
C36_2 C 0.2033(2) 0.0330(2) 0.57528(18)
C37_2 C 0.2026(2) 0.0127(2) 0.5786(2)
H20_2 H 0.2100 0.0029 0.5699
C38_2 C 0.1902(3) 0.0062(2) 0.5960(2)
O12_2 O 0.22433(16) 0.03475(14) 0.54363(13)
C41_2 C 0.2170(2) 0.0451(2) 0.5579(2)
O13_2 O 0.21964(14) 0.06490(13) 0.55958(11)
C42_2 C 0.10001(16) 0.02500(17) 0.71244(15)
N6_2 N 0.10155(11) 0.04621(10) 0.72030(10)
C43_2 C 0.08520(15) 0.04585(14) 0.73469(12)
H23_2 H 0.0824 0.0579 0.7431
N7_2 N 0.07295(11) 0.02820(11) 0.73692(11)
C44_2 C 0.08169(16) 0.01423(19) 0.72298(14)
C46_2 C 0.11050(17) 0.01465(18) 0.69783(16)
N10_2 N 0.12671(10) 0.02364(9) 0.68646(9)
H25_2 H 0.1304 0.0368 0.6888
H26_2 H 0.1334 0.0162 0.6768
Zn5_2 Zn 0.124153(16) 0.070178(13) 0.720914(13)
Zn8_2 Zn 0.052925(16) 0.022565(15) 0.761528(16)
Zn9_2 Zn 0.238472(16) 0.052925(16) 0.522565(15)
O16_3 O 0.03498(10) 0.0000 0.7500
O1_2 O 0.06891(8) 0.80832(7) 0.63465(9)
C1_2 C 0.08401(14) 0.81199(16) 0.64738(15)
O2_2 O 0.09464(10) 0.79723(9) 0.65510(12)
C2_2 C 0.08951(13) 0.83526(13) 0.65292(14)
C3_2 C 0.07883(13) 0.85169(15) 0.64334(13)
H1_2 H 0.0676 0.8492 0.6337
C4_2 C 0.08561(11) 0.87325(17) 0.64863(12)
C5_2 C 0.11224(16) 0.86009(15) 0.67367(16)
H2_2 H 0.1235 0.8623 0.6832
C6_2 C 0.10553(15) 0.83992(14) 0.66807(15)
H3_2 H 0.1121 0.8283 0.6749
O3_2 O 0.09130(8) 0.76037(8) 0.61093(10)
C7_2 C 0.10350(16) 0.77062(17) 0.59915(16)
O4_2 O 0.10160(11) 0.79055(11) 0.59755(14)
C8_2 C 0.12118(13) 0.75894(18) 0.58579(12)
C9_2 C 0.12239(15) 0.73826(17) 0.58345(17)
H4_2 H 0.1120 0.7291 0.5892
C10_2 C 0.14090(19) 0.73003(18) 0.5714(2)
C11_2 C 0.1418(2) 0.71015(19) 0.5656(2)
H5_2 H 0.1307 0.7006 0.5689
C12_2 C 0.1595(2) 0.70357(17) 0.5544(2)
H6_2 H 0.1612 0.6889 0.5520
C13_2 C 0.17472(18) 0.7170(2) 0.5467(2)
C14_2 C 0.1714(2) 0.7373(2) 0.5474(2)
H7_2 H 0.1801 0.7471 0.5400
C15_2 C 0.1540(2) 0.7438(2) 0.5598(3)
C16_2 C 0.1540(2) 0.7644(2) 0.5645(3)
H8_2 H 0.1653 0.7733 0.5602
C17_2 C 0.13675(18) 0.77260(17) 0.5759(2)
H9_2 H 0.1353 0.7875 0.5772
O5_2 O 0.20637(13) 0.71525(14) 0.52567(16)
C18_2 C 0.1921(2) 0.7049(2) 0.5330(2)
O6_2 O 0.19042(11) 0.68510(13) 0.53036(14)
C19_2 C 0.03756(15) 0.72500(17) 0.64999(16)
N1_2 N 0.02970(10) 0.70379(10) 0.64845(11)
C20_2 C 0.01531(12) 0.70415(14) 0.66480(15)
H10_2 H 0.0069 0.6921 0.6676
N2_2 N 0.01308(11) 0.72180(11) 0.67705(11)
C21_2 C 0.02702(14) 0.73577(19) 0.66831(16)
N3_2 N 0.03076(10) 0.75642(11) 0.67490(10)
C22_2 C 0.04525(12) 0.76614(13) 0.66133(14)
H11_2 H 0.0480 0.7806 0.6642
N4_2 N 0.05581(10) 0.75801(11) 0.64492(12)
C23_2 C 0.05217(16) 0.73535(18) 0.63950(17)
N5_2 N 0.06354(9) 0.72636(9) 0.62329(10)
H12_2 H 0.0612 0.7132 0.6196
H13_2 H 0.0732 0.7338 0.6166
Zn1_2 Zn 0.070178(13) 0.779086(13) 0.624153(16)
Zn2_2 Zn 0.011528(16) 0.772565(15) 0.697075(16)
O7_2 O 0.0000 0.7500 0.71502(10)
O8_2 O 0.11535(9) 0.94168(7) 0.68109(8)
C24_2 C 0.10262(15) 0.93801(16) 0.66599(14)
O9_2 O 0.09490(12) 0.95277(9) 0.65536(10)
C25_2 C 0.09708(14) 0.91474(13) 0.66049(13)
C26_2 C 0.10666(13) 0.89831(15) 0.67117(13)
H14_2 H 0.1163 0.9008 0.6824
C27_2 C 0.10137(12) 0.87675(17) 0.66439(11)
C28_2 C 0.07633(16) 0.88991(15) 0.63776(16)
H15_2 H 0.0668 0.8877 0.6265
C29_2 C 0.08193(15) 0.91008(14) 0.64447(15)
H16_2 H 0.0751 0.9217 0.6379
O10_2 O 0.13907(10) 0.98963(8) 0.65870(8)
C30_2 C 0.15085(16) 0.97938(17) 0.64650(16)
O11_2 O 0.15245(14) 0.95945(11) 0.64840(11)
C31_2 C 0.16421(12) 0.99106(18) 0.62882(13)
C39_2 C 0.1855(3) 0.9856(2) 0.5960(2)
H21_2 H 0.1898 0.9767 0.5847
C40_2 C 0.1741(2) 0.97740(17) 0.61325(18)
H22_2 H 0.1728 0.9625 0.6147
N8_2 N 0.07510(10) 0.99358(11) 0.71924(10)
C45_2 C 0.08867(14) 0.98386(13) 0.70475(12)
H24_2 H 0.0858 0.9694 0.7020
N9_2 N 0.10508(12) 0.99199(11) 0.69419(10)
Zn3_2 Zn 0.125847(16) 0.970914(13) 0.679822(13)
Zn4_2 Zn 0.052925(16) 0.977435(15) 0.738472(16)
O14_2 O 0.03475(14) 0.95637(13) 0.72433(16)
O15_2 O 0.02567(16) 0.79363(13) 0.71525(14)
N11_2 N 0.04621(10) 0.77970(10) 0.60155(11)
N12_2 N 0.14845(11) 0.97030(10) 0.70379(10)
N14_2 N 0.07295(11) 0.97180(11) 0.76308(11)
Zn6_2 Zn 0.029086(13) 0.679822(13) 0.625847(16)
Zn10_2 Zn 0.227435(15) 0.697075(16) 0.511528(16)
O16_4 O 0.03498(10) 1.0000 0.7500
O7_3 O 1.0000 0.7500 0.71502(10)
N13_2 N 0.98692(11) 0.77820(11) 0.67705(11)
Zn7_2 Zn 0.988472(16) 0.727435(15) 0.697075(16)
O1_3 O 0.56891(8) 0.69168(7) 0.36535(9)
C1_3 C 0.58401(14) 0.68801(16) 0.35262(15)
O2_3 O 0.59464(10) 0.70277(9) 0.34490(12)
C2_3 C 0.58951(13) 0.66474(13) 0.34708(14)
C3_3 C 0.57883(13) 0.64831(15) 0.35666(13)
H1_3 H 0.5676 0.6508 0.3663
C4_3 C 0.58561(11) 0.62675(17) 0.35137(12)
C5_3 C 0.61224(16) 0.63991(15) 0.32633(16)
H2_3 H 0.6235 0.6377 0.3168
C6_3 C 0.60553(15) 0.66008(14) 0.33193(15)
H3_3 H 0.6121 0.6717 0.3251
O3_3 O 0.59130(8) 0.73963(8) 0.38907(10)
C7_3 C 0.60350(16) 0.72938(17) 0.40085(16)
O4_3 O 0.60160(11) 0.70945(11) 0.40245(14)
C8_3 C 0.62118(13) 0.74106(18) 0.41421(12)
C9_3 C 0.62239(15) 0.76174(17) 0.41655(17)
H4_3 H 0.6120 0.7709 0.4108
C10_3 C 0.64090(19) 0.76997(18) 0.4286(2)
C11_3 C 0.6418(2) 0.78985(19) 0.4344(2)
H5_3 H 0.6307 0.7994 0.4311
C12_3 C 0.6595(2) 0.79643(17) 0.4456(2)
H6_3 H 0.6612 0.8111 0.4480
C13_3 C 0.67472(18) 0.7830(2) 0.4533(2)
C14_3 C 0.6714(2) 0.7627(2) 0.4526(2)
H7_3 H 0.6801 0.7529 0.4600
C15_3 C 0.6540(2) 0.7562(2) 0.4402(3)
C16_3 C 0.6540(2) 0.7356(2) 0.4355(3)
H8_3 H 0.6653 0.7267 0.4398
C17_3 C 0.63675(18) 0.72740(17) 0.4241(2)
H9_3 H 0.6353 0.7125 0.4228
O5_3 O 0.70637(13) 0.78475(14) 0.47433(16)
C18_3 C 0.6921(2) 0.7951(2) 0.4670(2)
O6_3 O 0.69042(11) 0.81490(13) 0.46964(14)
C19_3 C 0.53756(15) 0.77500(17) 0.35001(16)
N1_3 N 0.52970(10) 0.79621(10) 0.35155(11)
C20_3 C 0.51531(12) 0.79585(14) 0.33520(15)
H10_3 H 0.5069 0.8079 0.3324
N2_3 N 0.51308(11) 0.77820(11) 0.32295(11)
C21_3 C 0.52702(14) 0.76423(19) 0.33169(16)
N3_3 N 0.53076(10) 0.74358(11) 0.32510(10)
C22_3 C 0.54525(12) 0.73386(13) 0.33867(14)
H11_3 H 0.5480 0.7194 0.3358
N4_3 N 0.55581(10) 0.74199(11) 0.35508(12)
C23_3 C 0.55217(16) 0.76465(18) 0.36050(17)
N5_3 N 0.56354(9) 0.77364(9) 0.37671(10)
H12_3 H 0.5612 0.7868 0.3804
H13_3 H 0.5732 0.7662 0.3834
Zn1_3 Zn 0.570178(13) 0.720914(13) 0.375847(16)
Zn2_3 Zn 0.511528(16) 0.727435(15) 0.302925(16)
O7_4 O 0.5000 0.7500 0.28498(10)
O8_3 O 0.61535(9) 0.55832(7) 0.31891(8)
C24_3 C 0.60262(15) 0.56199(16) 0.33401(14)
O9_3 O 0.59490(12) 0.54723(9) 0.34464(10)
C25_3 C 0.59708(14) 0.58526(13) 0.33951(13)
C26_3 C 0.60666(13) 0.60169(15) 0.32883(13)
H14_3 H 0.6163 0.5992 0.3176
C27_3 C 0.60137(12) 0.62325(17) 0.33561(11)
C28_3 C 0.57633(16) 0.61009(15) 0.36224(16)
H15_3 H 0.5668 0.6123 0.3735
C29_3 C 0.58193(15) 0.58992(14) 0.35553(15)
H16_3 H 0.5751 0.5783 0.3621
O10_3 O 0.63907(10) 0.51037(8) 0.34130(8)
C30_3 C 0.65085(16) 0.52062(17) 0.35350(16)
O11_3 O 0.65245(14) 0.54055(11) 0.35160(11)
C31_3 C 0.66421(12) 0.50894(18) 0.37118(13)
C32_3 C 0.66655(17) 0.48826(17) 0.37239(15)
H17_3 H 0.6608 0.4791 0.3620
C33_3 C 0.6786(2) 0.48003(18) 0.39090(19)
C34_3 C 0.6844(2) 0.46015(19) 0.3918(2)
H18_3 H 0.6811 0.4506 0.3807
C35_3 C 0.6956(2) 0.45357(17) 0.4095(2)
H19_3 H 0.6980 0.4389 0.4112
C36_3 C 0.7033(2) 0.4670(2) 0.42472(18)
C37_3 C 0.7026(2) 0.4873(2) 0.4214(2)
H20_3 H 0.7100 0.4971 0.4301
C38_3 C 0.6902(3) 0.4938(2) 0.4040(2)
C39_3 C 0.6855(3) 0.5144(2) 0.4040(2)
H21_3 H 0.6898 0.5233 0.4153
C40_3 C 0.6741(2) 0.52260(17) 0.38675(18)
H22_3 H 0.6728 0.5375 0.3853
O12_3 O 0.72433(16) 0.46525(14) 0.45637(13)
C41_3 C 0.7170(2) 0.4549(2) 0.4421(2)
O13_3 O 0.71964(14) 0.43510(13) 0.44042(11)
C42_3 C 0.60001(16) 0.47500(17) 0.28756(15)
N6_3 N 0.60155(11) 0.45379(10) 0.27970(10)
C43_3 C 0.58520(15) 0.45415(14) 0.26531(12)
H23_3 H 0.5824 0.4421 0.2569
N7_3 N 0.57295(11) 0.47180(11) 0.26308(11)
C44_3 C 0.58169(16) 0.48577(19) 0.27702(14)
N8_3 N 0.57510(10) 0.50642(11) 0.28076(10)
C45_3 C 0.58867(14) 0.51614(13) 0.29525(12)
H24_3 H 0.5858 0.5306 0.2980
N9_3 N 0.60508(12) 0.50801(11) 0.30581(10)
C46_3 C 0.61050(17) 0.48535(18) 0.30217(16)
N10_3 N 0.62671(10) 0.47636(9) 0.31354(9)
H25_3 H 0.6304 0.4632 0.3112
H26_3 H 0.6334 0.4838 0.3232
Zn3_3 Zn 0.625847(16) 0.529086(13) 0.320178(13)
Zn4_3 Zn 0.552925(16) 0.522565(15) 0.261528(16)
O14_3 O 0.53475(14) 0.54363(13) 0.27567(16)
O15_3 O 0.52567(16) 0.70637(13) 0.28475(14)
N11_3 N 0.54621(10) 0.72030(10) 0.39845(11)
N12_3 N 0.64845(11) 0.52970(10) 0.29621(10)
N13_3 N 0.48692(11) 0.72180(11) 0.32295(11)
N14_3 N 0.57295(11) 0.52820(11) 0.23692(11)
Zn5_3 Zn 0.624153(16) 0.429822(13) 0.279086(13)
Zn6_3 Zn 0.529086(13) 0.820178(13) 0.374153(16)
Zn7_3 Zn 0.488472(16) 0.772565(15) 0.302925(16)
Zn8_3 Zn 0.552925(16) 0.477435(15) 0.238472(16)
Zn9_3 Zn 0.738472(16) 0.447075(16) 0.477435(15)
Zn10_3 Zn 0.727435(15) 0.802925(16) 0.488472(16)
O16_5 O 0.53498(10) 0.5000 0.2500
O7_5 O 0.0000 0.2500 0.78498(10)
N13_4 N 0.01308(11) 0.27820(11) 0.82295(11)
Zn7_4 Zn 0.011528(16) 0.227435(15) 0.802925(16)
O1_4 O 0.93109(8) 0.30832(7) 0.86535(9)
C1_4 C 0.91599(14) 0.31199(16) 0.85262(15)
O2_4 O 0.90536(10) 0.29723(9) 0.84490(12)
C2_4 C 0.91049(13) 0.33526(13) 0.84708(14)
C3_4 C 0.92117(13) 0.35169(15) 0.85666(13)
H1_4 H 0.9324 0.3492 0.8663
C4_4 C 0.91439(11) 0.37325(17) 0.85137(12)
C5_4 C 0.88776(16) 0.36009(15) 0.82633(16)
H2_4 H 0.8765 0.3623 0.8168
C6_4 C 0.89447(15) 0.33992(14) 0.83193(15)
H3_4 H 0.8879 0.3283 0.8251
O3_4 O 0.90870(8) 0.26037(8) 0.88907(10)
C7_4 C 0.89650(16) 0.27062(17) 0.90085(16)
O4_4 O 0.89840(11) 0.29055(11) 0.90245(14)
C8_4 C 0.87882(13) 0.25894(18) 0.91421(12)
C9_4 C 0.87761(15) 0.23826(17) 0.91655(17)
H4_4 H 0.8880 0.2291 0.9108
C10_4 C 0.85910(19) 0.23003(18) 0.9286(2)
C11_4 C 0.8582(2) 0.21015(19) 0.9344(2)
H5_4 H 0.8693 0.2006 0.9311
C12_4 C 0.8405(2) 0.20357(17) 0.9456(2)
H6_4 H 0.8388 0.1889 0.9480
C13_4 C 0.82528(18) 0.2170(2) 0.9533(2)
C14_4 C 0.8286(2) 0.2373(2) 0.9526(2)
H7_4 H 0.8199 0.2471 0.9600
C15_4 C 0.8460(2) 0.2438(2) 0.9402(3)
C16_4 C 0.8460(2) 0.2644(2) 0.9355(3)
H8_4 H 0.8347 0.2733 0.9398
C17_4 C 0.86325(18) 0.27260(17) 0.9241(2)
H9_4 H 0.8647 0.2875 0.9228
O5_4 O 0.79363(13) 0.21525(14) 0.97433(16)
C18_4 C 0.8079(2) 0.2049(2) 0.9670(2)
O6_4 O 0.80958(11) 0.18510(13) 0.96964(14)
C19_4 C 0.96244(15) 0.22500(17) 0.85001(16)
N1_4 N 0.97030(10) 0.20379(10) 0.85155(11)
C20_4 C 0.98469(12) 0.20415(14) 0.83520(15)
H10_4 H 0.9931 0.1921 0.8324
N2_4 N 0.98692(11) 0.22180(11) 0.82295(11)
C21_4 C 0.97298(14) 0.23577(19) 0.83169(16)
N3_4 N 0.96924(10) 0.25642(11) 0.82510(10)
C22_4 C 0.95475(12) 0.26614(13) 0.83867(14)
H11_4 H 0.9520 0.2806 0.8358
N4_4 N 0.94419(10) 0.25801(11) 0.85508(12)
C23_4 C 0.94783(16) 0.23535(18) 0.86050(17)
N5_4 N 0.93646(9) 0.22636(9) 0.87671(10)
H12_4 H 0.9388 0.2132 0.8804
H13_4 H 0.9268 0.2338 0.8834
Zn1_4 Zn 0.929822(13) 0.279086(13) 0.875847(16)
Zn2_4 Zn 0.988472(16) 0.272565(15) 0.802925(16)
O7_6 O 1.0000 0.2500 0.78498(10)
O8_4 O 0.88465(9) 0.44168(7) 0.81891(8)
C24_4 C 0.89738(15) 0.43801(16) 0.83401(14)
O9_4 O 0.90510(12) 0.45277(9) 0.84464(10)
C25_4 C 0.90292(14) 0.41474(13) 0.83951(13)
C26_4 C 0.89334(13) 0.39831(15) 0.82883(13)
H14_4 H 0.8837 0.4008 0.8176
C27_4 C 0.89863(12) 0.37675(17) 0.83561(11)
C28_4 C 0.92367(16) 0.38991(15) 0.86224(16)
H15_4 H 0.9332 0.3877 0.8735
C29_4 C 0.91807(15) 0.41008(14) 0.85553(15)
H16_4 H 0.9249 0.4217 0.8621
O10_4 O 0.86093(10) 0.48963(8) 0.84130(8)
C30_4 C 0.84915(16) 0.47938(17) 0.85350(16)
O11_4 O 0.84755(14) 0.45945(11) 0.85160(11)
C31_4 C 0.83579(12) 0.49106(18) 0.87118(13)
C32_4 C 0.83345(17) 0.51174(17) 0.87239(15)
H17_4 H 0.8392 0.5209 0.8620
C33_4 C 0.8214(2) 0.51997(18) 0.89090(19)
C34_4 C 0.8156(2) 0.53985(19) 0.8918(2)
H18_4 H 0.8189 0.5494 0.8807
C35_4 C 0.8044(2) 0.54643(17) 0.9095(2)
H19_4 H 0.8020 0.5611 0.9112
C36_4 C 0.7967(2) 0.5330(2) 0.92472(18)
C37_4 C 0.7974(2) 0.5127(2) 0.9214(2)
H20_4 H 0.7900 0.5029 0.9301
C38_4 C 0.8098(3) 0.5062(2) 0.9040(2)
C39_4 C 0.8145(3) 0.4856(2) 0.9040(2)
H21_4 H 0.8102 0.4767 0.9153
C40_4 C 0.8259(2) 0.47740(17) 0.88675(18)
H22_4 H 0.8272 0.4625 0.8853
O12_4 O 0.77567(16) 0.53475(14) 0.95637(13)
C41_4 C 0.7830(2) 0.5451(2) 0.9421(2)
O13_4 O 0.78036(14) 0.56490(13) 0.94042(11)
C42_4 C 0.89999(16) 0.52500(17) 0.78756(15)
N6_4 N 0.89845(11) 0.54621(10) 0.77970(10)
C43_4 C 0.91480(15) 0.54585(14) 0.76531(12)
H23_4 H 0.9176 0.5579 0.7569
N7_4 N 0.92705(11) 0.52820(11) 0.76308(11)
C44_4 C 0.91831(16) 0.51423(19) 0.77702(14)
N8_4 N 0.92490(10) 0.49358(11) 0.78076(10)
C45_4 C 0.91133(14) 0.48386(13) 0.79525(12)
H24_4 H 0.9142 0.4694 0.7980
N9_4 N 0.89492(12) 0.49199(11) 0.80581(10)
C46_4 C 0.88950(17) 0.51465(18) 0.80217(16)
N10_4 N 0.87329(10) 0.52364(9) 0.81354(9)
H25_4 H 0.8696 0.5368 0.8112
H26_4 H 0.8666 0.5162 0.8232
Zn3_4 Zn 0.874153(16) 0.470914(13) 0.820178(13)
Zn4_4 Zn 0.947075(16) 0.477435(15) 0.761528(16)
O14_4 O 0.96525(14) 0.45637(13) 0.77567(16)
O15_4 O 0.97433(16) 0.29363(13) 0.78475(14)
N11_4 N 0.95379(10) 0.27970(10) 0.89845(11)
N12_4 N 0.85155(11) 0.47030(10) 0.79621(10)
N14_4 N 0.92705(11) 0.47180(11) 0.73692(11)
Zn5_4 Zn 0.875847(16) 0.570178(13) 0.779086(13)
Zn6_4 Zn 0.970914(13) 0.179822(13) 0.874153(16)
Zn8_4 Zn 0.947075(16) 0.522565(15) 0.738472(16)
Zn9_4 Zn 0.761528(16) 0.552925(16) 0.977435(15)
Zn10_4 Zn 0.772565(15) 0.197075(16) 0.988472(16)
O16_6 O 0.96502(10) 0.5000 0.7500
O1_5 O 0.13465(9) 0.43109(8) 0.19168(7)
C1_5 C 0.14738(15) 0.41599(14) 0.18801(16)
O2_5 O 0.15510(12) 0.40536(10) 0.20277(9)
C2_5 C 0.15292(14) 0.41049(13) 0.16474(13)
C3_5 C 0.14334(13) 0.42117(13) 0.14831(15)
H1_5 H 0.1337 0.4324 0.1508
C4_5 C 0.14863(12) 0.41439(11) 0.12675(17)
C5_5 C 0.17367(16) 0.38776(16) 0.13991(15)
H2_5 H 0.1832 0.3765 0.1377
C6_5 C 0.16807(15) 0.39447(15) 0.16008(14)
H3_5 H 0.1749 0.3879 0.1717
O3_5 O 0.11093(10) 0.40870(8) 0.23963(8)
C7_5 C 0.09915(16) 0.39650(16) 0.22938(17)
O4_5 O 0.09755(14) 0.39840(11) 0.20945(11)
C8_5 C 0.08579(12) 0.37882(13) 0.24106(18)
C9_5 C 0.08345(17) 0.37761(15) 0.26174(17)
H4_5 H 0.0892 0.3880 0.2709
C10_5 C 0.0714(2) 0.35910(19) 0.26997(18)
C11_5 C 0.0656(2) 0.3582(2) 0.28985(19)
H5_5 H 0.0689 0.3693 0.2994
C12_5 C 0.0544(2) 0.3405(2) 0.29643(17)
H6_5 H 0.0520 0.3388 0.3111
C13_5 C 0.0467(2) 0.32528(18) 0.2830(2)
C14_5 C 0.0474(2) 0.3286(2) 0.2627(2)
H7_5 H 0.0400 0.3199 0.2529
C15_5 C 0.0598(3) 0.3460(2) 0.2562(2)
C16_5 C 0.0645(3) 0.3460(2) 0.2356(2)
H8_5 H 0.0602 0.3347 0.2267
C17_5 C 0.0759(2) 0.36325(18) 0.22740(17)
H9_5 H 0.0772 0.3647 0.2125
O5_5 O 0.02567(16) 0.29363(13) 0.28475(14)
C18_5 C 0.0330(2) 0.3079(2) 0.2951(2)
O6_5 O 0.03036(14) 0.30958(11) 0.31490(13)
C19_5 C 0.14999(16) 0.46244(15) 0.27500(17)
N1_5 N 0.14845(11) 0.47030(10) 0.29621(10)
C20_5 C 0.16480(15) 0.48469(12) 0.29585(14)
H10_5 H 0.1676 0.4931 0.3079
N2_5 N 0.17705(11) 0.48692(11) 0.27820(11)
C21_5 C 0.16831(16) 0.47298(14) 0.26423(19)
N3_5 N 0.17490(10) 0.46924(10) 0.24358(11)
C22_5 C 0.16133(14) 0.45475(12) 0.23386(13)
H11_5 H 0.1642 0.4520 0.2194
N4_5 N 0.14492(12) 0.44419(10) 0.24199(11)
C23_5 C 0.13950(17) 0.44783(16) 0.26465(18)
N5_5 N 0.12329(10) 0.43646(9) 0.27364(9)
H12_5 H 0.1196 0.4388 0.2868
H13_5 H 0.1166 0.4268 0.2662
Zn1_5 Zn 0.124153(16) 0.429822(13) 0.220914(13)
Zn2_5 Zn 0.197075(16) 0.488472(16) 0.227435(15)
O7_7 O 0.21502(10) 0.5000 0.2500
O8_5 O 0.18109(8) 0.38465(9) 0.05832(7)
C24_5 C 0.16599(14) 0.39738(15) 0.06199(16)
O9_5 O 0.15536(10) 0.40510(12) 0.04723(9)
C25_5 C 0.16049(13) 0.40292(14) 0.08526(13)
C26_5 C 0.17117(13) 0.39334(13) 0.10169(15)
H14_5 H 0.1824 0.3837 0.0992
C27_5 C 0.16439(11) 0.39863(12) 0.12325(17)
C28_5 C 0.13776(16) 0.42367(16) 0.11009(15)
H15_5 H 0.1265 0.4332 0.1123
C29_5 C 0.14447(15) 0.41807(15) 0.08992(14)
H16_5 H 0.1379 0.4249 0.0783
O10_5 O 0.15870(8) 0.36093(10) 0.01037(8)
C30_5 C 0.14650(16) 0.34915(16) 0.02062(17)
O11_5 O 0.14840(11) 0.34755(14) 0.04055(11)
C31_5 C 0.12882(13) 0.33579(12) 0.00894(18)
C39_5 C 0.0960(2) 0.3145(3) 0.0144(2)
H21_5 H 0.0847 0.3102 0.0233
C40_5 C 0.11325(18) 0.3259(2) 0.02260(17)
H22_5 H 0.1147 0.3272 0.0375
N8_5 N 0.21924(10) 0.42490(10) 0.00642(11)
C45_5 C 0.20475(12) 0.41133(14) 0.01614(13)
H24_5 H 0.2020 0.4142 0.0306
N9_5 N 0.19419(10) 0.39492(12) 0.00801(11)
Zn3_5 Zn 0.179822(13) 0.374153(16) 0.029086(13)
Zn4_5 Zn 0.238472(16) 0.447075(16) 0.022565(15)
O14_5 O 0.22433(16) 0.46525(14) 0.04363(13)
O15_5 O 0.21525(14) 0.47433(16) 0.20637(13)
N11_5 N 0.10155(11) 0.45379(10) 0.22030(10)
N12_5 N 0.20379(10) 0.35155(11) 0.02970(10)
N13_5 N 0.17705(11) 0.51308(11) 0.22180(11)
N14_5 N 0.26308(11) 0.42705(11) 0.02820(11)
Zn6_5 Zn 0.125847(16) 0.470914(13) 0.320178(13)
Zn7_5 Zn 0.197075(16) 0.511528(16) 0.272565(15)
Zn10_5 Zn 0.011528(16) 0.272565(15) 0.302925(16)
O16_7 O 0.2500 0.46502(10) 0.0000
C32_5 C 0.12761(15) 0.33345(17) 0.98826(17)
H17_5 H 0.1380 0.3392 0.9791
C33_5 C 0.10910(19) 0.3214(2) 0.98003(18)
C34_5 C 0.1082(2) 0.3156(2) 0.96015(19)
H18_5 H 0.1193 0.3189 0.9506
C35_5 C 0.0905(2) 0.3044(2) 0.95357(17)
H19_5 H 0.0888 0.3020 0.9389
C36_5 C 0.07528(18) 0.2967(2) 0.9670(2)
C37_5 C 0.0786(2) 0.2974(2) 0.9873(2)
H20_5 H 0.0699 0.2900 0.9971
C38_5 C 0.0960(2) 0.3098(3) 0.9938(2)
O12_5 O 0.04363(13) 0.27567(16) 0.96525(14)
C41_5 C 0.0579(2) 0.2830(2) 0.9549(2)
O13_5 O 0.05958(11) 0.28036(14) 0.93510(13)
C42_5 C 0.21244(15) 0.39999(16) 0.97500(17)
N6_5 N 0.22030(10) 0.39845(11) 0.95379(10)
C43_5 C 0.23469(12) 0.41480(15) 0.95415(14)
H23_5 H 0.2431 0.4176 0.9421
N7_5 N 0.23692(11) 0.42705(11) 0.97180(11)
C44_5 C 0.22298(14) 0.41831(16) 0.98577(19)
C46_5 C 0.19783(16) 0.38950(17) 0.98535(18)
N10_5 N 0.18646(9) 0.37329(10) 0.97636(9)
H25_5 H 0.1888 0.3696 0.9632
H26_5 H 0.1768 0.3666 0.9838
Zn5_5 Zn 0.220914(13) 0.375847(16) 0.929822(13)
Zn8_5 Zn 0.261528(16) 0.447075(16) 0.977435(15)
Zn9_5 Zn 0.022565(15) 0.261528(16) 0.947075(16)
O16_8 O 0.2500 0.46502(10) 1.0000
C32_6 C 0.62761(15) 0.16655(17) 0.01174(17)
H17_6 H 0.6380 0.1608 0.0209
C33_6 C 0.60910(19) 0.1786(2) 0.01997(18)
C34_6 C 0.6082(2) 0.1844(2) 0.03985(19)
H18_6 H 0.6193 0.1811 0.0494
C35_6 C 0.5905(2) 0.1956(2) 0.04643(17)
H19_6 H 0.5888 0.1980 0.0611
C36_6 C 0.57528(18) 0.2033(2) 0.0330(2)
C37_6 C 0.5786(2) 0.2026(2) 0.0127(2)
H20_6 H 0.5699 0.2100 0.0029
C38_6 C 0.5960(2) 0.1902(3) 0.0062(2)
O12_6 O 0.54363(13) 0.22433(16) 0.03475(14)
C41_6 C 0.5579(2) 0.2170(2) 0.0451(2)
O13_6 O 0.55958(11) 0.21964(14) 0.06490(13)
C42_6 C 0.71244(15) 0.10001(16) 0.02500(17)
N6_6 N 0.72030(10) 0.10155(11) 0.04621(10)
C43_6 C 0.73469(12) 0.08520(15) 0.04585(14)
H23_6 H 0.7431 0.0824 0.0579
N7_6 N 0.73692(11) 0.07295(11) 0.02820(11)
C44_6 C 0.72298(14) 0.08169(16) 0.01423(19)
C46_6 C 0.69783(16) 0.11050(17) 0.01465(18)
N10_6 N 0.68646(9) 0.12671(10) 0.02364(9)
H25_6 H 0.6888 0.1304 0.0368
H26_6 H 0.6768 0.1334 0.0162
Zn5_6 Zn 0.720914(13) 0.124153(16) 0.070178(13)
Zn8_6 Zn 0.761528(16) 0.052925(16) 0.022565(15)
Zn9_6 Zn 0.522565(15) 0.238472(16) 0.052925(16)
O16_9 O 0.7500 0.03498(10) 0.0000
O1_6 O 0.63465(9) 0.06891(8) 0.80832(7)
C1_6 C 0.64738(15) 0.08401(14) 0.81199(16)
O2_6 O 0.65510(12) 0.09464(10) 0.79723(9)
C2_6 C 0.65292(14) 0.08951(13) 0.83526(13)
C3_6 C 0.64334(13) 0.07883(13) 0.85169(15)
H1_6 H 0.6337 0.0676 0.8492
C4_6 C 0.64863(12) 0.08561(11) 0.87325(17)
C5_6 C 0.67367(16) 0.11224(16) 0.86009(15)
H2_6 H 0.6832 0.1235 0.8623
C6_6 C 0.66807(15) 0.10553(15) 0.83992(14)
H3_6 H 0.6749 0.1121 0.8283
O3_6 O 0.61093(10) 0.09130(8) 0.76037(8)
C7_6 C 0.59915(16) 0.10350(16) 0.77062(17)
O4_6 O 0.59755(14) 0.10160(11) 0.79055(11)
C8_6 C 0.58579(12) 0.12118(13) 0.75894(18)
C9_6 C 0.58345(17) 0.12239(15) 0.73826(17)
H4_6 H 0.5892 0.1120 0.7291
C10_6 C 0.5714(2) 0.14090(19) 0.73003(18)
C11_6 C 0.5656(2) 0.1418(2) 0.71015(19)
H5_6 H 0.5689 0.1307 0.7006
C12_6 C 0.5544(2) 0.1595(2) 0.70357(17)
H6_6 H 0.5520 0.1612 0.6889
C13_6 C 0.5467(2) 0.17472(18) 0.7170(2)
C14_6 C 0.5474(2) 0.1714(2) 0.7373(2)
H7_6 H 0.5400 0.1801 0.7471
C15_6 C 0.5598(3) 0.1540(2) 0.7438(2)
C16_6 C 0.5645(3) 0.1540(2) 0.7644(2)
H8_6 H 0.5602 0.1653 0.7733
C17_6 C 0.5759(2) 0.13675(18) 0.77260(17)
H9_6 H 0.5772 0.1353 0.7875
O5_6 O 0.52567(16) 0.20637(13) 0.71525(14)
C18_6 C 0.5330(2) 0.1921(2) 0.7049(2)
O6_6 O 0.53036(14) 0.19042(11) 0.68510(13)
C19_6 C 0.64999(16) 0.03756(15) 0.72500(17)
N1_6 N 0.64845(11) 0.02970(10) 0.70379(10)
C20_6 C 0.66480(15) 0.01531(12) 0.70415(14)
H10_6 H 0.6676 0.0069 0.6921
N2_6 N 0.67705(11) 0.01308(11) 0.72180(11)
C21_6 C 0.66831(16) 0.02702(14) 0.73577(19)
N3_6 N 0.67490(10) 0.03076(10) 0.75642(11)
C22_6 C 0.66133(14) 0.04525(12) 0.76614(13)
H11_6 H 0.6642 0.0480 0.7806
N4_6 N 0.64492(12) 0.05581(10) 0.75801(11)
C23_6 C 0.63950(17) 0.05217(16) 0.73535(18)
N5_6 N 0.62329(10) 0.06354(9) 0.72636(9)
H12_6 H 0.6196 0.0612 0.7132
H13_6 H 0.6166 0.0732 0.7338
Zn1_6 Zn 0.624153(16) 0.070178(13) 0.779086(13)
Zn2_6 Zn 0.697075(16) 0.011528(16) 0.772565(15)
O7_8 O 0.71502(10) 0.0000 0.7500
O8_6 O 0.68109(8) 0.11535(9) 0.94168(7)
C24_6 C 0.66599(14) 0.10262(15) 0.93801(16)
O9_6 O 0.65536(10) 0.09490(12) 0.95277(9)
C25_6 C 0.66049(13) 0.09708(14) 0.91474(13)
C26_6 C 0.67117(13) 0.10666(13) 0.89831(15)
H14_6 H 0.6824 0.1163 0.9008
C27_6 C 0.66439(11) 0.10137(12) 0.87675(17)
C28_6 C 0.63776(16) 0.07633(16) 0.88991(15)
H15_6 H 0.6265 0.0668 0.8877
C29_6 C 0.64447(15) 0.08193(15) 0.91008(14)
H16_6 H 0.6379 0.0751 0.9217
O10_6 O 0.65870(8) 0.13907(10) 0.98963(8)
C30_6 C 0.64650(16) 0.15085(16) 0.97938(17)
O11_6 O 0.64840(11) 0.15245(14) 0.95945(11)
C31_6 C 0.62882(13) 0.16421(12) 0.99106(18)
C39_6 C 0.5960(2) 0.1855(3) 0.9856(2)
H21_6 H 0.5847 0.1898 0.9767
C40_6 C 0.61325(18) 0.1741(2) 0.97740(17)
H22_6 H 0.6147 0.1728 0.9625
N8_6 N 0.71924(10) 0.07510(10) 0.99358(11)
C45_6 C 0.70475(12) 0.08867(14) 0.98386(13)
H24_6 H 0.7020 0.0858 0.9694
N9_6 N 0.69419(10) 0.10508(12) 0.99199(11)
Zn3_6 Zn 0.679822(13) 0.125847(16) 0.970914(13)
Zn4_6 Zn 0.738472(16) 0.052925(16) 0.977435(15)
O14_6 O 0.72433(16) 0.03475(14) 0.95637(13)
O15_6 O 0.71525(14) 0.02567(16) 0.79363(13)
N11_6 N 0.60155(11) 0.04621(10) 0.77970(10)
N12_6 N 0.70379(10) 0.14845(11) 0.97030(10)
N14_6 N 0.76308(11) 0.07295(11) 0.97180(11)
Zn6_6 Zn 0.625847(16) 0.029086(13) 0.679822(13)
Zn10_6 Zn 0.511528(16) 0.227435(15) 0.697075(16)
O16_10 O 0.7500 0.03498(10) 1.0000
O7_9 O 0.71502(10) 1.0000 0.7500
N13_6 N 0.67705(11) 0.98692(11) 0.77820(11)
Zn7_6 Zn 0.697075(16) 0.988472(16) 0.727435(15)
O1_7 O 0.36535(9) 0.56891(8) 0.69168(7)
C1_7 C 0.35262(15) 0.58401(14) 0.68801(16)
O2_7 O 0.34490(12) 0.59464(10) 0.70277(9)
C2_7 C 0.34708(14) 0.58951(13) 0.66474(13)
C3_7 C 0.35666(13) 0.57883(13) 0.64831(15)
H1_7 H 0.3663 0.5676 0.6508
C4_7 C 0.35137(12) 0.58561(11) 0.62675(17)
C5_7 C 0.32633(16) 0.61224(16) 0.63991(15)
H2_7 H 0.3168 0.6235 0.6377
C6_7 C 0.33193(15) 0.60553(15) 0.66008(14)
H3_7 H 0.3251 0.6121 0.6717
O3_7 O 0.38907(10) 0.59130(8) 0.73963(8)
C7_7 C 0.40085(16) 0.60350(16) 0.72938(17)
O4_7 O 0.40245(14) 0.60160(11) 0.70945(11)
C8_7 C 0.41421(12) 0.62118(13) 0.74106(18)
C9_7 C 0.41655(17) 0.62239(15) 0.76174(17)
H4_7 H 0.4108 0.6120 0.7709
C10_7 C 0.4286(2) 0.64090(19) 0.76997(18)
C11_7 C 0.4344(2) 0.6418(2) 0.78985(19)
H5_7 H 0.4311 0.6307 0.7994
C12_7 C 0.4456(2) 0.6595(2) 0.79643(17)
H6_7 H 0.4480 0.6612 0.8111
C13_7 C 0.4533(2) 0.67472(18) 0.7830(2)
C14_7 C 0.4526(2) 0.6714(2) 0.7627(2)
H7_7 H 0.4600 0.6801 0.7529
C15_7 C 0.4402(3) 0.6540(2) 0.7562(2)
C16_7 C 0.4355(3) 0.6540(2) 0.7356(2)
H8_7 H 0.4398 0.6653 0.7267
C17_7 C 0.4241(2) 0.63675(18) 0.72740(17)
H9_7 H 0.4228 0.6353 0.7125
O5_7 O 0.47433(16) 0.70637(13) 0.78475(14)
C18_7 C 0.4670(2) 0.6921(2) 0.7951(2)
O6_7 O 0.46964(14) 0.69042(11) 0.81490(13)
C19_7 C 0.35001(16) 0.53756(15) 0.77500(17)
N1_7 N 0.35155(11) 0.52970(10) 0.79621(10)
C20_7 C 0.33520(15) 0.51531(12) 0.79585(14)
H10_7 H 0.3324 0.5069 0.8079
N2_7 N 0.32295(11) 0.51308(11) 0.77820(11)
C21_7 C 0.33169(16) 0.52702(14) 0.76423(19)
N3_7 N 0.32510(10) 0.53076(10) 0.74358(11)
C22_7 C 0.33867(14) 0.54525(12) 0.73386(13)
H11_7 H 0.3358 0.5480 0.7194
N4_7 N 0.35508(12) 0.55581(10) 0.74199(11)
C23_7 C 0.36050(17) 0.55217(16) 0.76465(18)
N5_7 N 0.37671(10) 0.56354(9) 0.77364(9)
H12_7 H 0.3804 0.5612 0.7868
H13_7 H 0.3834 0.5732 0.7662
Zn1_7 Zn 0.375847(16) 0.570178(13) 0.720914(13)
Zn2_7 Zn 0.302925(16) 0.511528(16) 0.727435(15)
O7_10 O 0.28498(10) 0.5000 0.7500
O8_7 O 0.31891(8) 0.61535(9) 0.55832(7)
C24_7 C 0.33401(14) 0.60262(15) 0.56199(16)
O9_7 O 0.34464(10) 0.59490(12) 0.54723(9)
C25_7 C 0.33951(13) 0.59708(14) 0.58526(13)
C26_7 C 0.32883(13) 0.60666(13) 0.60169(15)
H14_7 H 0.3176 0.6163 0.5992
C27_7 C 0.33561(11) 0.60137(12) 0.62325(17)
C28_7 C 0.36224(16) 0.57633(16) 0.61009(15)
H15_7 H 0.3735 0.5668 0.6123
C29_7 C 0.35553(15) 0.58193(15) 0.58992(14)
H16_7 H 0.3621 0.5751 0.5783
O10_7 O 0.34130(8) 0.63907(10) 0.51037(8)
C30_7 C 0.35350(16) 0.65085(16) 0.52062(17)
O11_7 O 0.35160(11) 0.65245(14) 0.54055(11)
C31_7 C 0.37118(13) 0.66421(12) 0.50894(18)
C32_7 C 0.37239(15) 0.66655(17) 0.48826(17)
H17_7 H 0.3620 0.6608 0.4791
C33_7 C 0.39090(19) 0.6786(2) 0.48003(18)
C34_7 C 0.3918(2) 0.6844(2) 0.46015(19)
H18_7 H 0.3807 0.6811 0.4506
C35_7 C 0.4095(2) 0.6956(2) 0.45357(17)
H19_7 H 0.4112 0.6980 0.4389
C36_7 C 0.42472(18) 0.7033(2) 0.4670(2)
C37_7 C 0.4214(2) 0.7026(2) 0.4873(2)
H20_7 H 0.4301 0.7100 0.4971
C38_7 C 0.4040(2) 0.6902(3) 0.4938(2)
C39_7 C 0.4040(2) 0.6855(3) 0.5144(2)
H21_7 H 0.4153 0.6898 0.5233
C40_7 C 0.38675(18) 0.6741(2) 0.52260(17)
H22_7 H 0.3853 0.6728 0.5375
O12_7 O 0.45637(13) 0.72433(16) 0.46525(14)
C41_7 C 0.4421(2) 0.7170(2) 0.4549(2)
O13_7 O 0.44042(11) 0.71964(14) 0.43510(13)
C42_7 C 0.28756(15) 0.60001(16) 0.47500(17)
N6_7 N 0.27970(10) 0.60155(11) 0.45379(10)
C43_7 C 0.26531(12) 0.58520(15) 0.45415(14)
H23_7 H 0.2569 0.5824 0.4421
N7_7 N 0.26308(11) 0.57295(11) 0.47180(11)
C44_7 C 0.27702(14) 0.58169(16) 0.48577(19)
N8_7 N 0.28076(10) 0.57510(10) 0.50642(11)
C45_7 C 0.29525(12) 0.58867(14) 0.51614(13)
H24_7 H 0.2980 0.5858 0.5306
N9_7 N 0.30581(10) 0.60508(12) 0.50801(11)
C46_7 C 0.30217(16) 0.61050(17) 0.48535(18)
N10_7 N 0.31354(9) 0.62671(10) 0.47636(9)
H25_7 H 0.3112 0.6304 0.4632
H26_7 H 0.3232 0.6334 0.4838
Zn3_7 Zn 0.320178(13) 0.625847(16) 0.529086(13)
Zn4_7 Zn 0.261528(16) 0.552925(16) 0.522565(15)
O14_7 O 0.27567(16) 0.53475(14) 0.54363(13)
O15_7 O 0.28475(14) 0.52567(16) 0.70637(13)
N11_7 N 0.39845(11) 0.54621(10) 0.72030(10)
N12_7 N 0.29621(10) 0.64845(11) 0.52970(10)
N13_7 N 0.32295(11) 0.48692(11) 0.72180(11)
N14_7 N 0.23692(11) 0.57295(11) 0.52820(11)
Zn5_7 Zn 0.279086(13) 0.624153(16) 0.429822(13)
Zn6_7 Zn 0.374153(16) 0.529086(13) 0.820178(13)
Zn7_7 Zn 0.302925(16) 0.488472(16) 0.772565(15)
Zn8_7 Zn 0.238472(16) 0.552925(16) 0.477435(15)
Zn9_7 Zn 0.477435(15) 0.738472(16) 0.447075(16)
Zn10_7 Zn 0.488472(16) 0.727435(15) 0.802925(16)
O16_11 O 0.2500 0.53498(10) 0.5000
O7_11 O 0.78498(10) 0.0000 0.2500
N13_8 N 0.82295(11) 0.01308(11) 0.27820(11)
Zn7_8 Zn 0.802925(16) 0.011528(16) 0.227435(15)
O1_8 O 0.86535(9) 0.93109(8) 0.30832(7)
C1_8 C 0.85262(15) 0.91599(14) 0.31199(16)
O2_8 O 0.84490(12) 0.90536(10) 0.29723(9)
C2_8 C 0.84708(14) 0.91049(13) 0.33526(13)
C3_8 C 0.85666(13) 0.92117(13) 0.35169(15)
H1_8 H 0.8663 0.9324 0.3492
C4_8 C 0.85137(12) 0.91439(11) 0.37325(17)
C5_8 C 0.82633(16) 0.88776(16) 0.36009(15)
H2_8 H 0.8168 0.8765 0.3623
C6_8 C 0.83193(15) 0.89447(15) 0.33992(14)
H3_8 H 0.8251 0.8879 0.3283
O3_8 O 0.88907(10) 0.90870(8) 0.26037(8)
C7_8 C 0.90085(16) 0.89650(16) 0.27062(17)
O4_8 O 0.90245(14) 0.89840(11) 0.29055(11)
C8_8 C 0.91421(12) 0.87882(13) 0.25894(18)
C9_8 C 0.91655(17) 0.87761(15) 0.23826(17)
H4_8 H 0.9108 0.8880 0.2291
C10_8 C 0.9286(2) 0.85910(19) 0.23003(18)
C11_8 C 0.9344(2) 0.8582(2) 0.21015(19)
H5_8 H 0.9311 0.8693 0.2006
C12_8 C 0.9456(2) 0.8405(2) 0.20357(17)
H6_8 H 0.9480 0.8388 0.1889
C13_8 C 0.9533(2) 0.82528(18) 0.2170(2)
C14_8 C 0.9526(2) 0.8286(2) 0.2373(2)
H7_8 H 0.9600 0.8199 0.2471
C15_8 C 0.9402(3) 0.8460(2) 0.2438(2)
C16_8 C 0.9355(3) 0.8460(2) 0.2644(2)
H8_8 H 0.9398 0.8347 0.2733
C17_8 C 0.9241(2) 0.86325(18) 0.27260(17)
H9_8 H 0.9228 0.8647 0.2875
O5_8 O 0.97433(16) 0.79363(13) 0.21525(14)
C18_8 C 0.9670(2) 0.8079(2) 0.2049(2)
O6_8 O 0.96964(14) 0.80958(11) 0.18510(13)
C19_8 C 0.85001(16) 0.96244(15) 0.22500(17)
N1_8 N 0.85155(11) 0.97030(10) 0.20379(10)
C20_8 C 0.83520(15) 0.98469(12) 0.20415(14)
H10_8 H 0.8324 0.9931 0.1921
N2_8 N 0.82295(11) 0.98692(11) 0.22180(11)
C21_8 C 0.83169(16) 0.97298(14) 0.23577(19)
N3_8 N 0.82510(10) 0.96924(10) 0.25642(11)
C22_8 C 0.83867(14) 0.95475(12) 0.26614(13)
H11_8 H 0.8358 0.9520 0.2806
N4_8 N 0.85508(12) 0.94419(10) 0.25801(11)
C23_8 C 0.86050(17) 0.94783(16) 0.23535(18)
N5_8 N 0.87671(10) 0.93646(9) 0.22636(9)
H12_8 H 0.8804 0.9388 0.2132
H13_8 H 0.8834 0.9268 0.2338
Zn1_8 Zn 0.875847(16) 0.929822(13) 0.279086(13)
Zn2_8 Zn 0.802925(16) 0.988472(16) 0.272565(15)
O7_12 O 0.78498(10) 1.0000 0.2500
O8_8 O 0.81891(8) 0.88465(9) 0.44168(7)
C24_8 C 0.83401(14) 0.89738(15) 0.43801(16)
O9_8 O 0.84464(10) 0.90510(12) 0.45277(9)
C25_8 C 0.83951(13) 0.90292(14) 0.41474(13)
C26_8 C 0.82883(13) 0.89334(13) 0.39831(15)
H14_8 H 0.8176 0.8837 0.4008
C27_8 C 0.83561(11) 0.89863(12) 0.37675(17)
C28_8 C 0.86224(16) 0.92367(16) 0.38991(15)
H15_8 H 0.8735 0.9332 0.3877
C29_8 C 0.85553(15) 0.91807(15) 0.41008(14)
H16_8 H 0.8621 0.9249 0.4217
O10_8 O 0.84130(8) 0.86093(10) 0.48963(8)
C30_8 C 0.85350(16) 0.84915(16) 0.47938(17)
O11_8 O 0.85160(11) 0.84755(14) 0.45945(11)
C31_8 C 0.87118(13) 0.83579(12) 0.49106(18)
C32_8 C 0.87239(15) 0.83345(17) 0.51174(17)
H17_8 H 0.8620 0.8392 0.5209
C33_8 C 0.89090(19) 0.8214(2) 0.51997(18)
C34_8 C 0.8918(2) 0.8156(2) 0.53985(19)
H18_8 H 0.8807 0.8189 0.5494
C35_8 C 0.9095(2) 0.8044(2) 0.54643(17)
H19_8 H 0.9112 0.8020 0.5611
C36_8 C 0.92472(18) 0.7967(2) 0.5330(2)
C37_8 C 0.9214(2) 0.7974(2) 0.5127(2)
H20_8 H 0.9301 0.7900 0.5029
C38_8 C 0.9040(2) 0.8098(3) 0.5062(2)
C39_8 C 0.9040(2) 0.8145(3) 0.4856(2)
H21_8 H 0.9153 0.8102 0.4767
C40_8 C 0.88675(18) 0.8259(2) 0.47740(17)
H22_8 H 0.8853 0.8272 0.4625
O12_8 O 0.95637(13) 0.77567(16) 0.53475(14)
C41_8 C 0.9421(2) 0.7830(2) 0.5451(2)
O13_8 O 0.94042(11) 0.78036(14) 0.56490(13)
C42_8 C 0.78756(15) 0.89999(16) 0.52500(17)
N6_8 N 0.77970(10) 0.89845(11) 0.54621(10)
C43_8 C 0.76531(12) 0.91480(15) 0.54585(14)
H23_8 H 0.7569 0.9176 0.5579
N7_8 N 0.76308(11) 0.92705(11) 0.52820(11)
C44_8 C 0.77702(14) 0.91831(16) 0.51423(19)
N8_8 N 0.78076(10) 0.92490(10) 0.49358(11)
C45_8 C 0.79525(12) 0.91133(14) 0.48386(13)
H24_8 H 0.7980 0.9142 0.4694
N9_8 N 0.80581(10) 0.89492(12) 0.49199(11)
C46_8 C 0.80217(16) 0.88950(17) 0.51465(18)
N10_8 N 0.81354(9) 0.87329(10) 0.52364(9)
H25_8 H 0.8112 0.8696 0.5368
H26_8 H 0.8232 0.8666 0.5162
Zn3_8 Zn 0.820178(13) 0.874153(16) 0.470914(13)
Zn4_8 Zn 0.761528(16) 0.947075(16) 0.477435(15)
O14_8 O 0.77567(16) 0.96525(14) 0.45637(13)
O15_8 O 0.78475(14) 0.97433(16) 0.29363(13)
N11_8 N 0.89845(11) 0.95379(10) 0.27970(10)
N12_8 N 0.79621(10) 0.85155(11) 0.47030(10)
N14_8 N 0.73692(11) 0.92705(11) 0.47180(11)
Zn5_8 Zn 0.779086(13) 0.875847(16) 0.570178(13)
Zn6_8 Zn 0.874153(16) 0.970914(13) 0.179822(13)
Zn8_8 Zn 0.738472(16) 0.947075(16) 0.522565(15)
Zn9_8 Zn 0.977435(15) 0.761528(16) 0.552925(16)
Zn10_8 Zn 0.988472(16) 0.772565(15) 0.197075(16)
O16_12 O 0.7500 0.96502(10) 0.5000
O1_9 O 0.19168(7) 0.13465(9) 0.43109(8)
C1_9 C 0.18801(16) 0.14738(15) 0.41599(14)
O2_9 O 0.20277(9) 0.15510(12) 0.40536(10)
C2_9 C 0.16474(13) 0.15292(14) 0.41049(13)
C3_9 C 0.14831(15) 0.14334(13) 0.42117(13)
H1_9 H 0.1508 0.1337 0.4324
C4_9 C 0.12675(17) 0.14863(12) 0.41439(11)
C5_9 C 0.13991(15) 0.17367(16) 0.38776(16)
H2_9 H 0.1377 0.1832 0.3765
C6_9 C 0.16008(14) 0.16807(15) 0.39447(15)
H3_9 H 0.1717 0.1749 0.3879
O3_9 O 0.23963(8) 0.11093(10) 0.40870(8)
C7_9 C 0.22938(17) 0.09915(16) 0.39650(16)
O4_9 O 0.20945(11) 0.09755(14) 0.39840(11)
C8_9 C 0.24106(18) 0.08579(12) 0.37882(13)
C9_9 C 0.26174(17) 0.08345(17) 0.37761(15)
H4_9 H 0.2709 0.0892 0.3880
C10_9 C 0.26997(18) 0.0714(2) 0.35910(19)
C11_9 C 0.28985(19) 0.0656(2) 0.3582(2)
H5_9 H 0.2994 0.0689 0.3693
C12_9 C 0.29643(17) 0.0544(2) 0.3405(2)
H6_9 H 0.3111 0.0520 0.3388
C13_9 C 0.2830(2) 0.0467(2) 0.32528(18)
C14_9 C 0.2627(2) 0.0474(2) 0.3286(2)
H7_9 H 0.2529 0.0400 0.3199
C15_9 C 0.2562(2) 0.0598(3) 0.3460(2)
C16_9 C 0.2356(2) 0.0645(3) 0.3460(2)
H8_9 H 0.2267 0.0602 0.3347
C17_9 C 0.22740(17) 0.0759(2) 0.36325(18)
H9_9 H 0.2125 0.0772 0.3647
O5_9 O 0.28475(14) 0.02567(16) 0.29363(13)
C18_9 C 0.2951(2) 0.0330(2) 0.3079(2)
O6_9 O 0.31490(13) 0.03036(14) 0.30958(11)
C19_9 C 0.27500(17) 0.14999(16) 0.46244(15)
N1_9 N 0.29621(10) 0.14845(11) 0.47030(10)
C20_9 C 0.29585(14) 0.16480(15) 0.48469(12)
H10_9 H 0.3079 0.1676 0.4931
N2_9 N 0.27820(11) 0.17705(11) 0.48692(11)
C21_9 C 0.26423(19) 0.16831(16) 0.47298(14)
N3_9 N 0.24358(11) 0.17490(10) 0.46924(10)
C22_9 C 0.23386(13) 0.16133(14) 0.45475(12)
H11_9 H 0.2194 0.1642 0.4520
N4_9 N 0.24199(11) 0.14492(12) 0.44419(10)
C23_9 C 0.26465(18) 0.13950(17) 0.44783(16)
N5_9 N 0.27364(9) 0.12329(10) 0.43646(9)
H12_9 H 0.2868 0.1196 0.4388
H13_9 H 0.2662 0.1166 0.4268
Zn1_9 Zn 0.220914(13) 0.124153(16) 0.429822(13)
Zn2_9 Zn 0.227435(15) 0.197075(16) 0.488472(16)
O7_13 O 0.2500 0.21502(10) 0.5000
O8_9 O 0.05832(7) 0.18109(8) 0.38465(9)
C24_9 C 0.06199(16) 0.16599(14) 0.39738(15)
O9_9 O 0.04723(9) 0.15536(10) 0.40510(12)
C25_9 C 0.08526(13) 0.16049(13) 0.40292(14)
C26_9 C 0.10169(15) 0.17117(13) 0.39334(13)
H14_9 H 0.0992 0.1824 0.3837
C27_9 C 0.12325(17) 0.16439(11) 0.39863(12)
C28_9 C 0.11009(15) 0.13776(16) 0.42367(16)
H15_9 H 0.1123 0.1265 0.4332
C29_9 C 0.08992(14) 0.14447(15) 0.41807(15)
H16_9 H 0.0783 0.1379 0.4249
O10_9 O 0.01037(8) 0.15870(8) 0.36093(10)
C30_9 C 0.02062(17) 0.14650(16) 0.34915(16)
O11_9 O 0.04055(11) 0.14840(11) 0.34755(14)
C31_9 C 0.00894(18) 0.12882(13) 0.33579(12)
C39_9 C 0.0144(2) 0.0960(2) 0.3145(3)
H21_9 H 0.0233 0.0847 0.3102
C40_9 C 0.02260(17) 0.11325(18) 0.3259(2)
H22_9 H 0.0375 0.1147 0.3272
N8_9 N 0.00642(11) 0.21924(10) 0.42490(10)
C45_9 C 0.01614(13) 0.20475(12) 0.41133(14)
H24_9 H 0.0306 0.2020 0.4142
N9_9 N 0.00801(11) 0.19419(10) 0.39492(12)
Zn3_9 Zn 0.029086(13) 0.179822(13) 0.374153(16)
Zn4_9 Zn 0.022565(15) 0.238472(16) 0.447075(16)
O14_9 O 0.04363(13) 0.22433(16) 0.46525(14)
O15_9 O 0.20637(13) 0.21525(14) 0.47433(16)
N11_9 N 0.22030(10) 0.10155(11) 0.45379(10)
N12_9 N 0.02970(10) 0.20379(10) 0.35155(11)
N13_9 N 0.22180(11) 0.17705(11) 0.51308(11)
N14_9 N 0.02820(11) 0.26308(11) 0.42705(11)
Zn6_9 Zn 0.320178(13) 0.125847(16) 0.470914(13)
Zn7_9 Zn 0.272565(15) 0.197075(16) 0.511528(16)
Zn10_9 Zn 0.302925(16) 0.011528(16) 0.272565(15)
O16_13 O 0.0000 0.2500 0.46502(10)
C32_9 C 0.98826(17) 0.12761(15) 0.33345(17)
H17_9 H 0.9791 0.1380 0.3392
C33_9 C 0.98003(18) 0.10910(19) 0.3214(2)
C34_9 C 0.96015(19) 0.1082(2) 0.3156(2)
H18_9 H 0.9506 0.1193 0.3189
C35_9 C 0.95357(17) 0.0905(2) 0.3044(2)
H19_9 H 0.9389 0.0888 0.3020
C36_9 C 0.9670(2) 0.07528(18) 0.2967(2)
C37_9 C 0.9873(2) 0.0786(2) 0.2974(2)
H20_9 H 0.9971 0.0699 0.2900
C38_9 C 0.9938(2) 0.0960(2) 0.3098(3)
O12_9 O 0.96525(14) 0.04363(13) 0.27567(16)
C41_9 C 0.9549(2) 0.0579(2) 0.2830(2)
O13_9 O 0.93510(13) 0.05958(11) 0.28036(14)
C42_9 C 0.97500(17) 0.21244(15) 0.39999(16)
N6_9 N 0.95379(10) 0.22030(10) 0.39845(11)
C43_9 C 0.95415(14) 0.23469(12) 0.41480(15)
H23_9 H 0.9421 0.2431 0.4176
N7_9 N 0.97180(11) 0.23692(11) 0.42705(11)
C44_9 C 0.98577(19) 0.22298(14) 0.41831(16)
C46_9 C 0.98535(18) 0.19783(16) 0.38950(17)
N10_9 N 0.97636(9) 0.18646(9) 0.37329(10)
H25_9 H 0.9632 0.1888 0.3696
H26_9 H 0.9838 0.1768 0.3666
Zn5_9 Zn 0.929822(13) 0.220914(13) 0.375847(16)
Zn8_9 Zn 0.977435(15) 0.261528(16) 0.447075(16)
Zn9_9 Zn 0.947075(16) 0.022565(15) 0.261528(16)
O16_14 O 1.0000 0.2500 0.46502(10)
C32_10 C 0.01174(17) 0.62761(15) 0.16655(17)
H17_10 H 0.0209 0.6380 0.1608
C33_10 C 0.01997(18) 0.60910(19) 0.1786(2)
C34_10 C 0.03985(19) 0.6082(2) 0.1844(2)
H18_10 H 0.0494 0.6193 0.1811
C35_10 C 0.04643(17) 0.5905(2) 0.1956(2)
H19_10 H 0.0611 0.5888 0.1980
C36_10 C 0.0330(2) 0.57528(18) 0.2033(2)
C37_10 C 0.0127(2) 0.5786(2) 0.2026(2)
H20_10 H 0.0029 0.5699 0.2100
C38_10 C 0.0062(2) 0.5960(2) 0.1902(3)
O12_10 O 0.03475(14) 0.54363(13) 0.22433(16)
C41_10 C 0.0451(2) 0.5579(2) 0.2170(2)
O13_10 O 0.06490(13) 0.55958(11) 0.21964(14)
C42_10 C 0.02500(17) 0.71244(15) 0.10001(16)
N6_10 N 0.04621(10) 0.72030(10) 0.10155(11)
C43_10 C 0.04585(14) 0.73469(12) 0.08520(15)
H23_10 H 0.0579 0.7431 0.0824
N7_10 N 0.02820(11) 0.73692(11) 0.07295(11)
C44_10 C 0.01423(19) 0.72298(14) 0.08169(16)
C46_10 C 0.01465(18) 0.69783(16) 0.11050(17)
N10_10 N 0.02364(9) 0.68646(9) 0.12671(10)
H25_10 H 0.0368 0.6888 0.1304
H26_10 H 0.0162 0.6768 0.1334
Zn5_10 Zn 0.070178(13) 0.720914(13) 0.124153(16)
Zn8_10 Zn 0.022565(15) 0.761528(16) 0.052925(16)
Zn9_10 Zn 0.052925(16) 0.522565(15) 0.238472(16)
O16_15 O 0.0000 0.7500 0.03498(10)
O1_10 O 0.80832(7) 0.63465(9) 0.06891(8)
C1_10 C 0.81199(16) 0.64738(15) 0.08401(14)
O2_10 O 0.79723(9) 0.65510(12) 0.09464(10)
C2_10 C 0.83526(13) 0.65292(14) 0.08951(13)
C3_10 C 0.85169(15) 0.64334(13) 0.07883(13)
H1_10 H 0.8492 0.6337 0.0676
C4_10 C 0.87325(17) 0.64863(12) 0.08561(11)
C5_10 C 0.86009(15) 0.67367(16) 0.11224(16)
H2_10 H 0.8623 0.6832 0.1235
C6_10 C 0.83992(14) 0.66807(15) 0.10553(15)
H3_10 H 0.8283 0.6749 0.1121
O3_10 O 0.76037(8) 0.61093(10) 0.09130(8)
C7_10 C 0.77062(17) 0.59915(16) 0.10350(16)
O4_10 O 0.79055(11) 0.59755(14) 0.10160(11)
C8_10 C 0.75894(18) 0.58579(12) 0.12118(13)
C9_10 C 0.73826(17) 0.58345(17) 0.12239(15)
H4_10 H 0.7291 0.5892 0.1120
C10_10 C 0.73003(18) 0.5714(2) 0.14090(19)
C11_10 C 0.71015(19) 0.5656(2) 0.1418(2)
H5_10 H 0.7006 0.5689 0.1307
C12_10 C 0.70357(17) 0.5544(2) 0.1595(2)
H6_10 H 0.6889 0.5520 0.1612
C13_10 C 0.7170(2) 0.5467(2) 0.17472(18)
C14_10 C 0.7373(2) 0.5474(2) 0.1714(2)
H7_10 H 0.7471 0.5400 0.1801
C15_10 C 0.7438(2) 0.5598(3) 0.1540(2)
C16_10 C 0.7644(2) 0.5645(3) 0.1540(2)
H8_10 H 0.7733 0.5602 0.1653
C17_10 C 0.77260(17) 0.5759(2) 0.13675(18)
H9_10 H 0.7875 0.5772 0.1353
O5_10 O 0.71525(14) 0.52567(16) 0.20637(13)
C18_10 C 0.7049(2) 0.5330(2) 0.1921(2)
O6_10 O 0.68510(13) 0.53036(14) 0.19042(11)
C19_10 C 0.72500(17) 0.64999(16) 0.03756(15)
N1_10 N 0.70379(10) 0.64845(11) 0.02970(10)
C20_10 C 0.70415(14) 0.66480(15) 0.01531(12)
H10_10 H 0.6921 0.6676 0.0069
N2_10 N 0.72180(11) 0.67705(11) 0.01308(11)
C21_10 C 0.73577(19) 0.66831(16) 0.02702(14)
N3_10 N 0.75642(11) 0.67490(10) 0.03076(10)
C22_10 C 0.76614(13) 0.66133(14) 0.04525(12)
H11_10 H 0.7806 0.6642 0.0480
N4_10 N 0.75801(11) 0.64492(12) 0.05581(10)
C23_10 C 0.73535(18) 0.63950(17) 0.05217(16)
N5_10 N 0.72636(9) 0.62329(10) 0.06354(9)
H12_10 H 0.7132 0.6196 0.0612
H13_10 H 0.7338 0.6166 0.0732
Zn1_10 Zn 0.779086(13) 0.624153(16) 0.070178(13)
Zn2_10 Zn 0.772565(15) 0.697075(16) 0.011528(16)
O7_14 O 0.7500 0.71502(10) 0.0000
O8_10 O 0.94168(7) 0.68109(8) 0.11535(9)
C24_10 C 0.93801(16) 0.66599(14) 0.10262(15)
O9_10 O 0.95277(9) 0.65536(10) 0.09490(12)
C25_10 C 0.91474(13) 0.66049(13) 0.09708(14)
C26_10 C 0.89831(15) 0.67117(13) 0.10666(13)
H14_10 H 0.9008 0.6824 0.1163
C27_10 C 0.87675(17) 0.66439(11) 0.10137(12)
C28_10 C 0.88991(15) 0.63776(16) 0.07633(16)
H15_10 H 0.8877 0.6265 0.0668
C29_10 C 0.91008(14) 0.64447(15) 0.08193(15)
H16_10 H 0.9217 0.6379 0.0751
O10_10 O 0.98963(8) 0.65870(8) 0.13907(10)
C30_10 C 0.97938(17) 0.64650(16) 0.15085(16)
O11_10 O 0.95945(11) 0.64840(11) 0.15245(14)
C31_10 C 0.99106(18) 0.62882(13) 0.16421(12)
C39_10 C 0.9856(2) 0.5960(2) 0.1855(3)
H21_10 H 0.9767 0.5847 0.1898
C40_10 C 0.97740(17) 0.61325(18) 0.1741(2)
H22_10 H 0.9625 0.6147 0.1728
N8_10 N 0.99358(11) 0.71924(10) 0.07510(10)
C45_10 C 0.98386(13) 0.70475(12) 0.08867(14)
H24_10 H 0.9694 0.7020 0.0858
N9_10 N 0.99199(11) 0.69419(10) 0.10508(12)
Zn3_10 Zn 0.970914(13) 0.679822(13) 0.125847(16)
Zn4_10 Zn 0.977435(15) 0.738472(16) 0.052925(16)
O14_10 O 0.95637(13) 0.72433(16) 0.03475(14)
O15_10 O 0.79363(13) 0.71525(14) 0.02567(16)
N11_10 N 0.77970(10) 0.60155(11) 0.04621(10)
N12_10 N 0.97030(10) 0.70379(10) 0.14845(11)
N14_10 N 0.97180(11) 0.76308(11) 0.07295(11)
Zn6_10 Zn 0.679822(13) 0.625847(16) 0.029086(13)
Zn10_10 Zn 0.697075(16) 0.511528(16) 0.227435(15)
O16_16 O 1.0000 0.7500 0.03498(10)
O7_15 O 0.7500 0.71502(10) 1.0000
N13_10 N 0.77820(11) 0.67705(11) 0.98692(11)
Zn7_10 Zn 0.727435(15) 0.697075(16) 0.988472(16)
O1_11 O 0.69168(7) 0.36535(9) 0.56891(8)
C1_11 C 0.68801(16) 0.35262(15) 0.58401(14)
O2_11 O 0.70277(9) 0.34490(12) 0.59464(10)
C2_11 C 0.66474(13) 0.34708(14) 0.58951(13)
C3_11 C 0.64831(15) 0.35666(13) 0.57883(13)
H1_11 H 0.6508 0.3663 0.5676
C4_11 C 0.62675(17) 0.35137(12) 0.58561(11)
C5_11 C 0.63991(15) 0.32633(16) 0.61224(16)
H2_11 H 0.6377 0.3168 0.6235
C6_11 C 0.66008(14) 0.33193(15) 0.60553(15)
H3_11 H 0.6717 0.3251 0.6121
O3_11 O 0.73963(8) 0.38907(10) 0.59130(8)
C7_11 C 0.72938(17) 0.40085(16) 0.60350(16)
O4_11 O 0.70945(11) 0.40245(14) 0.60160(11)
C8_11 C 0.74106(18) 0.41421(12) 0.62118(13)
C9_11 C 0.76174(17) 0.41655(17) 0.62239(15)
H4_11 H 0.7709 0.4108 0.6120
C10_11 C 0.76997(18) 0.4286(2) 0.64090(19)
C11_11 C 0.78985(19) 0.4344(2) 0.6418(2)
H5_11 H 0.7994 0.4311 0.6307
C12_11 C 0.79643(17) 0.4456(2) 0.6595(2)
H6_11 H 0.8111 0.4480 0.6612
C13_11 C 0.7830(2) 0.4533(2) 0.67472(18)
C14_11 C 0.7627(2) 0.4526(2) 0.6714(2)
H7_11 H 0.7529 0.4600 0.6801
C15_11 C 0.7562(2) 0.4402(3) 0.6540(2)
C16_11 C 0.7356(2) 0.4355(3) 0.6540(2)
H8_11 H 0.7267 0.4398 0.6653
C17_11 C 0.72740(17) 0.4241(2) 0.63675(18)
H9_11 H 0.7125 0.4228 0.6353
O5_11 O 0.78475(14) 0.47433(16) 0.70637(13)
C18_11 C 0.7951(2) 0.4670(2) 0.6921(2)
O6_11 O 0.81490(13) 0.46964(14) 0.69042(11)
C19_11 C 0.77500(17) 0.35001(16) 0.53756(15)
N1_11 N 0.79621(10) 0.35155(11) 0.52970(10)
C20_11 C 0.79585(14) 0.33520(15) 0.51531(12)
H10_11 H 0.8079 0.3324 0.5069
N2_11 N 0.77820(11) 0.32295(11) 0.51308(11)
C21_11 C 0.76423(19) 0.33169(16) 0.52702(14)
N3_11 N 0.74358(11) 0.32510(10) 0.53076(10)
C22_11 C 0.73386(13) 0.33867(14) 0.54525(12)
H11_11 H 0.7194 0.3358 0.5480
N4_11 N 0.74199(11) 0.35508(12) 0.55581(10)
C23_11 C 0.76465(18) 0.36050(17) 0.55217(16)
N5_11 N 0.77364(9) 0.37671(10) 0.56354(9)
H12_11 H 0.7868 0.3804 0.5612
H13_11 H 0.7662 0.3834 0.5732
Zn1_11 Zn 0.720914(13) 0.375847(16) 0.570178(13)
Zn2_11 Zn 0.727435(15) 0.302925(16) 0.511528(16)
O7_16 O 0.7500 0.28498(10) 0.5000
O8_11 O 0.55832(7) 0.31891(8) 0.61535(9)
C24_11 C 0.56199(16) 0.33401(14) 0.60262(15)
O9_11 O 0.54723(9) 0.34464(10) 0.59490(12)
C25_11 C 0.58526(13) 0.33951(13) 0.59708(14)
C26_11 C 0.60169(15) 0.32883(13) 0.60666(13)
H14_11 H 0.5992 0.3176 0.6163
C27_11 C 0.62325(17) 0.33561(11) 0.60137(12)
C28_11 C 0.61009(15) 0.36224(16) 0.57633(16)
H15_11 H 0.6123 0.3735 0.5668
C29_11 C 0.58992(14) 0.35553(15) 0.58193(15)
H16_11 H 0.5783 0.3621 0.5751
O10_11 O 0.51037(8) 0.34130(8) 0.63907(10)
C30_11 C 0.52062(17) 0.35350(16) 0.65085(16)
O11_11 O 0.54055(11) 0.35160(11) 0.65245(14)
C31_11 C 0.50894(18) 0.37118(13) 0.66421(12)
C32_11 C 0.48826(17) 0.37239(15) 0.66655(17)
H17_11 H 0.4791 0.3620 0.6608
C33_11 C 0.48003(18) 0.39090(19) 0.6786(2)
C34_11 C 0.46015(19) 0.3918(2) 0.6844(2)
H18_11 H 0.4506 0.3807 0.6811
C35_11 C 0.45357(17) 0.4095(2) 0.6956(2)
H19_11 H 0.4389 0.4112 0.6980
C36_11 C 0.4670(2) 0.42472(18) 0.7033(2)
C37_11 C 0.4873(2) 0.4214(2) 0.7026(2)
H20_11 H 0.4971 0.4301 0.7100
C38_11 C 0.4938(2) 0.4040(2) 0.6902(3)
C39_11 C 0.5144(2) 0.4040(2) 0.6855(3)
H21_11 H 0.5233 0.4153 0.6898
C40_11 C 0.52260(17) 0.38675(18) 0.6741(2)
H22_11 H 0.5375 0.3853 0.6728
O12_11 O 0.46525(14) 0.45637(13) 0.72433(16)
C41_11 C 0.4549(2) 0.4421(2) 0.7170(2)
O13_11 O 0.43510(13) 0.44042(11) 0.71964(14)
C42_11 C 0.47500(17) 0.28756(15) 0.60001(16)
N6_11 N 0.45379(10) 0.27970(10) 0.60155(11)
C43_11 C 0.45415(14) 0.26531(12) 0.58520(15)
H23_11 H 0.4421 0.2569 0.5824
N7_11 N 0.47180(11) 0.26308(11) 0.57295(11)
C44_11 C 0.48577(19) 0.27702(14) 0.58169(16)
N8_11 N 0.50642(11) 0.28076(10) 0.57510(10)
C45_11 C 0.51614(13) 0.29525(12) 0.58867(14)
H24_11 H 0.5306 0.2980 0.5858
N9_11 N 0.50801(11) 0.30581(10) 0.60508(12)
C46_11 C 0.48535(18) 0.30217(16) 0.61050(17)
N10_11 N 0.47636(9) 0.31354(9) 0.62671(10)
H25_11 H 0.4632 0.3112 0.6304
H26_11 H 0.4838 0.3232 0.6334
Zn3_11 Zn 0.529086(13) 0.320178(13) 0.625847(16)
Zn4_11 Zn 0.522565(15) 0.261528(16) 0.552925(16)
O14_11 O 0.54363(13) 0.27567(16) 0.53475(14)
O15_11 O 0.70637(13) 0.28475(14) 0.52567(16)
N11_11 N 0.72030(10) 0.39845(11) 0.54621(10)
N12_11 N 0.52970(10) 0.29621(10) 0.64845(11)
N13_11 N 0.72180(11) 0.32295(11) 0.48692(11)
N14_11 N 0.52820(11) 0.23692(11) 0.57295(11)
Zn5_11 Zn 0.429822(13) 0.279086(13) 0.624153(16)
Zn6_11 Zn 0.820178(13) 0.374153(16) 0.529086(13)
Zn7_11 Zn 0.772565(15) 0.302925(16) 0.488472(16)
Zn8_11 Zn 0.477435(15) 0.238472(16) 0.552925(16)
Zn9_11 Zn 0.447075(16) 0.477435(15) 0.738472(16)
Zn10_11 Zn 0.802925(16) 0.488472(16) 0.727435(15)
O16_17 O 0.5000 0.2500 0.53498(10)
O7_17 O 0.2500 0.78498(10) 0.0000
N13_12 N 0.27820(11) 0.82295(11) 0.01308(11)
Zn7_12 Zn 0.227435(15) 0.802925(16) 0.011528(16)
O1_12 O 0.30832(7) 0.86535(9) 0.93109(8)
C1_12 C 0.31199(16) 0.85262(15) 0.91599(14)
O2_12 O 0.29723(9) 0.84490(12) 0.90536(10)
C2_12 C 0.33526(13) 0.84708(14) 0.91049(13)
C3_12 C 0.35169(15) 0.85666(13) 0.92117(13)
H1_12 H 0.3492 0.8663 0.9324
C4_12 C 0.37325(17) 0.85137(12) 0.91439(11)
C5_12 C 0.36009(15) 0.82633(16) 0.88776(16)
H2_12 H 0.3623 0.8168 0.8765
C6_12 C 0.33992(14) 0.83193(15) 0.89447(15)
H3_12 H 0.3283 0.8251 0.8879
O3_12 O 0.26037(8) 0.88907(10) 0.90870(8)
C7_12 C 0.27062(17) 0.90085(16) 0.89650(16)
O4_12 O 0.29055(11) 0.90245(14) 0.89840(11)
C8_12 C 0.25894(18) 0.91421(12) 0.87882(13)
C9_12 C 0.23826(17) 0.91655(17) 0.87761(15)
H4_12 H 0.2291 0.9108 0.8880
C10_12 C 0.23003(18) 0.9286(2) 0.85910(19)
C11_12 C 0.21015(19) 0.9344(2) 0.8582(2)
H5_12 H 0.2006 0.9311 0.8693
C12_12 C 0.20357(17) 0.9456(2) 0.8405(2)
H6_12 H 0.1889 0.9480 0.8388
C13_12 C 0.2170(2) 0.9533(2) 0.82528(18)
C14_12 C 0.2373(2) 0.9526(2) 0.8286(2)
H7_12 H 0.2471 0.9600 0.8199
C15_12 C 0.2438(2) 0.9402(3) 0.8460(2)
C16_12 C 0.2644(2) 0.9355(3) 0.8460(2)
H8_12 H 0.2733 0.9398 0.8347
C17_12 C 0.27260(17) 0.9241(2) 0.86325(18)
H9_12 H 0.2875 0.9228 0.8647
O5_12 O 0.21525(14) 0.97433(16) 0.79363(13)
C18_12 C 0.2049(2) 0.9670(2) 0.8079(2)
O6_12 O 0.18510(13) 0.96964(14) 0.80958(11)
C19_12 C 0.22500(17) 0.85001(16) 0.96244(15)
N1_12 N 0.20379(10) 0.85155(11) 0.97030(10)
C20_12 C 0.20415(14) 0.83520(15) 0.98469(12)
H10_12 H 0.1921 0.8324 0.9931
N2_12 N 0.22180(11) 0.82295(11) 0.98692(11)
C21_12 C 0.23577(19) 0.83169(16) 0.97298(14)
N3_12 N 0.25642(11) 0.82510(10) 0.96924(10)
C22_12 C 0.26614(13) 0.83867(14) 0.95475(12)
H11_12 H 0.2806 0.8358 0.9520
N4_12 N 0.25801(11) 0.85508(12) 0.94419(10)
C23_12 C 0.23535(18) 0.86050(17) 0.94783(16)
N5_12 N 0.22636(9) 0.87671(10) 0.93646(9)
H12_12 H 0.2132 0.8804 0.9388
H13_12 H 0.2338 0.8834 0.9268
Zn1_12 Zn 0.279086(13) 0.875847(16) 0.929822(13)
Zn2_12 Zn 0.272565(15) 0.802925(16) 0.988472(16)
O7_18 O 0.2500 0.78498(10) 1.0000
O8_12 O 0.44168(7) 0.81891(8) 0.88465(9)
C24_12 C 0.43801(16) 0.83401(14) 0.89738(15)
O9_12 O 0.45277(9) 0.84464(10) 0.90510(12)
C25_12 C 0.41474(13) 0.83951(13) 0.90292(14)
C26_12 C 0.39831(15) 0.82883(13) 0.89334(13)
H14_12 H 0.4008 0.8176 0.8837
C27_12 C 0.37675(17) 0.83561(11) 0.89863(12)
C28_12 C 0.38991(15) 0.86224(16) 0.92367(16)
H15_12 H 0.3877 0.8735 0.9332
C29_12 C 0.41008(14) 0.85553(15) 0.91807(15)
H16_12 H 0.4217 0.8621 0.9249
O10_12 O 0.48963(8) 0.84130(8) 0.86093(10)
C30_12 C 0.47938(17) 0.85350(16) 0.84915(16)
O11_12 O 0.45945(11) 0.85160(11) 0.84755(14)
C31_12 C 0.49106(18) 0.87118(13) 0.83579(12)
C32_12 C 0.51174(17) 0.87239(15) 0.83345(17)
H17_12 H 0.5209 0.8620 0.8392
C33_12 C 0.51997(18) 0.89090(19) 0.8214(2)
C34_12 C 0.53985(19) 0.8918(2) 0.8156(2)
H18_12 H 0.5494 0.8807 0.8189
C35_12 C 0.54643(17) 0.9095(2) 0.8044(2)
H19_12 H 0.5611 0.9112 0.8020
C36_12 C 0.5330(2) 0.92472(18) 0.7967(2)
C37_12 C 0.5127(2) 0.9214(2) 0.7974(2)
H20_12 H 0.5029 0.9301 0.7900
C38_12 C 0.5062(2) 0.9040(2) 0.8098(3)
C39_12 C 0.4856(2) 0.9040(2) 0.8145(3)
H21_12 H 0.4767 0.9153 0.8102
C40_12 C 0.47740(17) 0.88675(18) 0.8259(2)
H22_12 H 0.4625 0.8853 0.8272
O12_12 O 0.53475(14) 0.95637(13) 0.77567(16)
C41_12 C 0.5451(2) 0.9421(2) 0.7830(2)
O13_12 O 0.56490(13) 0.94042(11) 0.78036(14)
C42_12 C 0.52500(17) 0.78756(15) 0.89999(16)
N6_12 N 0.54621(10) 0.77970(10) 0.89845(11)
C43_12 C 0.54585(14) 0.76531(12) 0.91480(15)
H23_12 H 0.5579 0.7569 0.9176
N7_12 N 0.52820(11) 0.76308(11) 0.92705(11)
C44_12 C 0.51423(19) 0.77702(14) 0.91831(16)
N8_12 N 0.49358(11) 0.78076(10) 0.92490(10)
C45_12 C 0.48386(13) 0.79525(12) 0.91133(14)
H24_12 H 0.4694 0.7980 0.9142
N9_12 N 0.49199(11) 0.80581(10) 0.89492(12)
C46_12 C 0.51465(18) 0.80217(16) 0.88950(17)
N10_12 N 0.52364(9) 0.81354(9) 0.87329(10)
H25_12 H 0.5368 0.8112 0.8696
H26_12 H 0.5162 0.8232 0.8666
Zn3_12 Zn 0.470914(13) 0.820178(13) 0.874153(16)
Zn4_12 Zn 0.477435(15) 0.761528(16) 0.947075(16)
O14_12 O 0.45637(13) 0.77567(16) 0.96525(14)
O15_12 O 0.29363(13) 0.78475(14) 0.97433(16)
N11_12 N 0.27970(10) 0.89845(11) 0.95379(10)
N12_12 N 0.47030(10) 0.79621(10) 0.85155(11)
N14_12 N 0.47180(11) 0.73692(11) 0.92705(11)
Zn5_12 Zn 0.570178(13) 0.779086(13) 0.875847(16)
Zn6_12 Zn 0.179822(13) 0.874153(16) 0.970914(13)
Zn8_12 Zn 0.522565(15) 0.738472(16) 0.947075(16)
Zn9_12 Zn 0.552925(16) 0.977435(15) 0.761528(16)
Zn10_12 Zn 0.197075(16) 0.988472(16) 0.772565(15)
O16_18 O 0.5000 0.7500 0.96502(10)
O1_13 O 0.93109(8) 0.69168(7) 0.63465(9)
C1_13 C 0.91599(14) 0.68801(16) 0.64738(15)
O2_13 O 0.90536(10) 0.70277(9) 0.65510(12)
C2_13 C 0.91049(13) 0.66474(13) 0.65292(14)
C3_13 C 0.92117(13) 0.64831(15) 0.64334(13)
H1_13 H 0.9324 0.6508 0.6337
C4_13 C 0.91439(11) 0.62675(17) 0.64863(12)
C5_13 C 0.88776(16) 0.63991(15) 0.67367(16)
H2_13 H 0.8765 0.6377 0.6832
C6_13 C 0.89447(15) 0.66008(14) 0.66807(15)
H3_13 H 0.8879 0.6717 0.6749
O3_13 O 0.90870(8) 0.73963(8) 0.61093(10)
C7_13 C 0.89650(16) 0.72938(17) 0.59915(16)
O4_13 O 0.89840(11) 0.70945(11) 0.59755(14)
C8_13 C 0.87882(13) 0.74106(18) 0.58579(12)
C9_13 C 0.87761(15) 0.76174(17) 0.58345(17)
H4_13 H 0.8880 0.7709 0.5892
C10_13 C 0.85910(19) 0.76997(18) 0.5714(2)
C11_13 C 0.8582(2) 0.78985(19) 0.5656(2)
H5_13 H 0.8693 0.7994 0.5689
C12_13 C 0.8405(2) 0.79643(17) 0.5544(2)
H6_13 H 0.8388 0.8111 0.5520
C13_13 C 0.82528(18) 0.7830(2) 0.5467(2)
C14_13 C 0.8286(2) 0.7627(2) 0.5474(2)
H7_13 H 0.8199 0.7529 0.5400
C15_13 C 0.8460(2) 0.7562(2) 0.5598(3)
C16_13 C 0.8460(2) 0.7356(2) 0.5645(3)
H8_13 H 0.8347 0.7267 0.5602
C17_13 C 0.86325(18) 0.72740(17) 0.5759(2)
H9_13 H 0.8647 0.7125 0.5772
O5_13 O 0.79363(13) 0.78475(14) 0.52567(16)
C18_13 C 0.8079(2) 0.7951(2) 0.5330(2)
O6_13 O 0.80958(11) 0.81490(13) 0.53036(14)
C19_13 C 0.96244(15) 0.77500(17) 0.64999(16)
N1_13 N 0.97030(10) 0.79621(10) 0.64845(11)
C20_13 C 0.98469(12) 0.79585(14) 0.66480(15)
H10_13 H 0.9931 0.8079 0.6676
C21_13 C 0.97298(14) 0.76423(19) 0.66831(16)
N3_13 N 0.96924(10) 0.74358(11) 0.67490(10)
C22_13 C 0.95475(12) 0.73386(13) 0.66133(14)
H11_13 H 0.9520 0.7194 0.6642
N4_13 N 0.94419(10) 0.74199(11) 0.64492(12)
C23_13 C 0.94783(16) 0.76465(18) 0.63950(17)
N5_13 N 0.93646(9) 0.77364(9) 0.62329(10)
H12_13 H 0.9388 0.7868 0.6196
H13_13 H 0.9268 0.7662 0.6166
Zn1_13 Zn 0.929822(13) 0.720914(13) 0.624153(16)
O8_13 O 0.88465(9) 0.55832(7) 0.68109(8)
C24_13 C 0.89738(15) 0.56199(16) 0.66599(14)
O9_13 O 0.90510(12) 0.54723(9) 0.65536(10)
C25_13 C 0.90292(14) 0.58526(13) 0.66049(13)
C26_13 C 0.89334(13) 0.60169(15) 0.67117(13)
H14_13 H 0.8837 0.5992 0.6824
C27_13 C 0.89863(12) 0.62325(17) 0.66439(11)
C28_13 C 0.92367(16) 0.61009(15) 0.63776(16)
H15_13 H 0.9332 0.6123 0.6265
C29_13 C 0.91807(15) 0.58992(14) 0.64447(15)
H16_13 H 0.9249 0.5783 0.6379
O10_13 O 0.86093(10) 0.51037(8) 0.65870(8)
C30_13 C 0.84915(16) 0.52062(17) 0.64650(16)
O11_13 O 0.84755(14) 0.54055(11) 0.64840(11)
C31_13 C 0.83579(12) 0.50894(18) 0.62882(13)
C32_13 C 0.83345(17) 0.48826(17) 0.62761(15)
H17_13 H 0.8392 0.4791 0.6380
C33_13 C 0.8214(2) 0.48003(18) 0.60910(19)
C34_13 C 0.8156(2) 0.46015(19) 0.6082(2)
H18_13 H 0.8189 0.4506 0.6193
C35_13 C 0.8044(2) 0.45357(17) 0.5905(2)
H19_13 H 0.8020 0.4389 0.5888
C36_13 C 0.7967(2) 0.4670(2) 0.57528(18)
C37_13 C 0.7974(2) 0.4873(2) 0.5786(2)
H20_13 H 0.7900 0.4971 0.5699
C38_13 C 0.8098(3) 0.4938(2) 0.5960(2)
C39_13 C 0.8145(3) 0.5144(2) 0.5960(2)
H21_13 H 0.8102 0.5233 0.5847
C40_13 C 0.8259(2) 0.52260(17) 0.61325(18)
H22_13 H 0.8272 0.5375 0.6147
O12_13 O 0.77567(16) 0.46525(14) 0.54363(13)
C41_13 C 0.7830(2) 0.4549(2) 0.5579(2)
O13_13 O 0.78036(14) 0.43510(13) 0.55958(11)
C42_13 C 0.89999(16) 0.47500(17) 0.71244(15)
N6_13 N 0.89845(11) 0.45379(10) 0.72030(10)
C43_13 C 0.91480(15) 0.45415(14) 0.73469(12)
H23_13 H 0.9176 0.4421 0.7431
C44_13 C 0.91831(16) 0.48577(19) 0.72298(14)
N8_13 N 0.92490(10) 0.50642(11) 0.71924(10)
C45_13 C 0.91133(14) 0.51614(13) 0.70475(12)
H24_13 H 0.9142 0.5306 0.7020
N9_13 N 0.89492(12) 0.50801(11) 0.69419(10)
C46_13 C 0.88950(17) 0.48535(18) 0.69783(16)
N10_13 N 0.87329(10) 0.47636(9) 0.68646(9)
H25_13 H 0.8696 0.4632 0.6888
H26_13 H 0.8666 0.4838 0.6768
Zn3_13 Zn 0.874153(16) 0.529086(13) 0.679822(13)
O14_13 O 0.96525(14) 0.54363(13) 0.72433(16)
O15_13 O 0.97433(16) 0.70637(13) 0.71525(14)
N11_13 N 0.95379(10) 0.72030(10) 0.60155(11)
N12_13 N 0.85155(11) 0.52970(10) 0.70379(10)
Zn5_13 Zn 0.875847(16) 0.429822(13) 0.720914(13)
Zn6_13 Zn 0.970914(13) 0.820178(13) 0.625847(16)
Zn9_13 Zn 0.761528(16) 0.447075(16) 0.522565(15)
Zn10_13 Zn 0.772565(15) 0.802925(16) 0.511528(16)
O1_14 O 0.56891(8) 0.30832(7) 0.13465(9)
C1_14 C 0.58401(14) 0.31199(16) 0.14738(15)
O2_14 O 0.59464(10) 0.29723(9) 0.15510(12)
C2_14 C 0.58951(13) 0.33526(13) 0.15292(14)
C3_14 C 0.57883(13) 0.35169(15) 0.14334(13)
H1_14 H 0.5676 0.3492 0.1337
C4_14 C 0.58561(11) 0.37325(17) 0.14863(12)
C5_14 C 0.61224(16) 0.36009(15) 0.17367(16)
H2_14 H 0.6235 0.3623 0.1832
C6_14 C 0.60553(15) 0.33992(14) 0.16807(15)
H3_14 H 0.6121 0.3283 0.1749
O3_14 O 0.59130(8) 0.26037(8) 0.11093(10)
C7_14 C 0.60350(16) 0.27062(17) 0.09915(16)
O4_14 O 0.60160(11) 0.29055(11) 0.09755(14)
C8_14 C 0.62118(13) 0.25894(18) 0.08579(12)
C9_14 C 0.62239(15) 0.23826(17) 0.08345(17)
H4_14 H 0.6120 0.2291 0.0892
C10_14 C 0.64090(19) 0.23003(18) 0.0714(2)
C11_14 C 0.6418(2) 0.21015(19) 0.0656(2)
H5_14 H 0.6307 0.2006 0.0689
C12_14 C 0.6595(2) 0.20357(17) 0.0544(2)
H6_14 H 0.6612 0.1889 0.0520
C13_14 C 0.67472(18) 0.2170(2) 0.0467(2)
C14_14 C 0.6714(2) 0.2373(2) 0.0474(2)
H7_14 H 0.6801 0.2471 0.0400
C15_14 C 0.6540(2) 0.2438(2) 0.0598(3)
C16_14 C 0.6540(2) 0.2644(2) 0.0645(3)
H8_14 H 0.6653 0.2733 0.0602
C17_14 C 0.63675(18) 0.27260(17) 0.0759(2)
H9_14 H 0.6353 0.2875 0.0772
O5_14 O 0.70637(13) 0.21525(14) 0.02567(16)
C18_14 C 0.6921(2) 0.2049(2) 0.0330(2)
O6_14 O 0.69042(11) 0.18510(13) 0.03036(14)
C19_14 C 0.53756(15) 0.22500(17) 0.14999(16)
N1_14 N 0.52970(10) 0.20379(10) 0.14845(11)
C20_14 C 0.51531(12) 0.20415(14) 0.16480(15)
H10_14 H 0.5069 0.1921 0.1676
C21_14 C 0.52702(14) 0.23577(19) 0.16831(16)
N3_14 N 0.53076(10) 0.25642(11) 0.17490(10)
C22_14 C 0.54525(12) 0.26614(13) 0.16133(14)
H11_14 H 0.5480 0.2806 0.1642
N4_14 N 0.55581(10) 0.25801(11) 0.14492(12)
C23_14 C 0.55217(16) 0.23535(18) 0.13950(17)
N5_14 N 0.56354(9) 0.22636(9) 0.12329(10)
H12_14 H 0.5612 0.2132 0.1196
H13_14 H 0.5732 0.2338 0.1166
Zn1_14 Zn 0.570178(13) 0.279086(13) 0.124153(16)
O8_14 O 0.61535(9) 0.44168(7) 0.18109(8)
C24_14 C 0.60262(15) 0.43801(16) 0.16599(14)
O9_14 O 0.59490(12) 0.45277(9) 0.15536(10)
C25_14 C 0.59708(14) 0.41474(13) 0.16049(13)
C26_14 C 0.60666(13) 0.39831(15) 0.17117(13)
H14_14 H 0.6163 0.4008 0.1824
C27_14 C 0.60137(12) 0.37675(17) 0.16439(11)
C28_14 C 0.57633(16) 0.38991(15) 0.13776(16)
H15_14 H 0.5668 0.3877 0.1265
C29_14 C 0.58193(15) 0.41008(14) 0.14447(15)
H16_14 H 0.5751 0.4217 0.1379
O10_14 O 0.63907(10) 0.48963(8) 0.15870(8)
C30_14 C 0.65085(16) 0.47938(17) 0.14650(16)
O11_14 O 0.65245(14) 0.45945(11) 0.14840(11)
C31_14 C 0.66421(12) 0.49106(18) 0.12882(13)
C32_14 C 0.66655(17) 0.51174(17) 0.12761(15)
H17_14 H 0.6608 0.5209 0.1380
C33_14 C 0.6786(2) 0.51997(18) 0.10910(19)
C34_14 C 0.6844(2) 0.53985(19) 0.1082(2)
H18_14 H 0.6811 0.5494 0.1193
C35_14 C 0.6956(2) 0.54643(17) 0.0905(2)
H19_14 H 0.6980 0.5611 0.0888
C36_14 C 0.7033(2) 0.5330(2) 0.07528(18)
C37_14 C 0.7026(2) 0.5127(2) 0.0786(2)
H20_14 H 0.7100 0.5029 0.0699
C38_14 C 0.6902(3) 0.5062(2) 0.0960(2)
C39_14 C 0.6855(3) 0.4856(2) 0.0960(2)
H21_14 H 0.6898 0.4767 0.0847
C40_14 C 0.6741(2) 0.47740(17) 0.11325(18)
H22_14 H 0.6728 0.4625 0.1147
O12_14 O 0.72433(16) 0.53475(14) 0.04363(13)
C41_14 C 0.7170(2) 0.5451(2) 0.0579(2)
O13_14 O 0.71964(14) 0.56490(13) 0.05958(11)
C42_14 C 0.60001(16) 0.52500(17) 0.21244(15)
N6_14 N 0.60155(11) 0.54621(10) 0.22030(10)
C43_14 C 0.58520(15) 0.54585(14) 0.23469(12)
H23_14 H 0.5824 0.5579 0.2431
C44_14 C 0.58169(16) 0.51423(19) 0.22298(14)
N8_14 N 0.57510(10) 0.49358(11) 0.21924(10)
C45_14 C 0.58867(14) 0.48386(13) 0.20475(12)
H24_14 H 0.5858 0.4694 0.2020
N9_14 N 0.60508(12) 0.49199(11) 0.19419(10)
C46_14 C 0.61050(17) 0.51465(18) 0.19783(16)
N10_14 N 0.62671(10) 0.52364(9) 0.18646(9)
H25_14 H 0.6304 0.5368 0.1888
H26_14 H 0.6334 0.5162 0.1768
Zn3_14 Zn 0.625847(16) 0.470914(13) 0.179822(13)
O14_14 O 0.53475(14) 0.45637(13) 0.22433(16)
O15_14 O 0.52567(16) 0.29363(13) 0.21525(14)
N11_14 N 0.54621(10) 0.27970(10) 0.10155(11)
N12_14 N 0.64845(11) 0.47030(10) 0.20379(10)
Zn5_14 Zn 0.624153(16) 0.570178(13) 0.220914(13)
Zn6_14 Zn 0.529086(13) 0.179822(13) 0.125847(16)
Zn9_14 Zn 0.738472(16) 0.552925(16) 0.022565(15)
Zn10_14 Zn 0.727435(15) 0.197075(16) 0.011528(16)
O1_15 O 0.06891(8) 0.19168(7) 0.86535(9)
C1_15 C 0.08401(14) 0.18801(16) 0.85262(15)
O2_15 O 0.09464(10) 0.20277(9) 0.84490(12)
C2_15 C 0.08951(13) 0.16474(13) 0.84708(14)
C3_15 C 0.07883(13) 0.14831(15) 0.85666(13)
H1_15 H 0.0676 0.1508 0.8663
C4_15 C 0.08561(11) 0.12675(17) 0.85137(12)
C5_15 C 0.11224(16) 0.13991(15) 0.82633(16)
H2_15 H 0.1235 0.1377 0.8168
C6_15 C 0.10553(15) 0.16008(14) 0.83193(15)
H3_15 H 0.1121 0.1717 0.8251
O3_15 O 0.09130(8) 0.23963(8) 0.88907(10)
C7_15 C 0.10350(16) 0.22938(17) 0.90085(16)
O4_15 O 0.10160(11) 0.20945(11) 0.90245(14)
C8_15 C 0.12118(13) 0.24106(18) 0.91421(12)
C9_15 C 0.12239(15) 0.26174(17) 0.91655(17)
H4_15 H 0.1120 0.2709 0.9108
C10_15 C 0.14090(19) 0.26997(18) 0.9286(2)
C11_15 C 0.1418(2) 0.28985(19) 0.9344(2)
H5_15 H 0.1307 0.2994 0.9311
C12_15 C 0.1595(2) 0.29643(17) 0.9456(2)
H6_15 H 0.1612 0.3111 0.9480
C13_15 C 0.17472(18) 0.2830(2) 0.9533(2)
C14_15 C 0.1714(2) 0.2627(2) 0.9526(2)
H7_15 H 0.1801 0.2529 0.9600
C15_15 C 0.1540(2) 0.2562(2) 0.9402(3)
C16_15 C 0.1540(2) 0.2356(2) 0.9355(3)
H8_15 H 0.1653 0.2267 0.9398
C17_15 C 0.13675(18) 0.22740(17) 0.9241(2)
H9_15 H 0.1353 0.2125 0.9228
O5_15 O 0.20637(13) 0.28475(14) 0.97433(16)
C18_15 C 0.1921(2) 0.2951(2) 0.9670(2)
O6_15 O 0.19042(11) 0.31490(13) 0.96964(14)
C19_15 C 0.03756(15) 0.27500(17) 0.85001(16)
N1_15 N 0.02970(10) 0.29621(10) 0.85155(11)
C20_15 C 0.01531(12) 0.29585(14) 0.83520(15)
H10_15 H 0.0069 0.3079 0.8324
C21_15 C 0.02702(14) 0.26423(19) 0.83169(16)
N3_15 N 0.03076(10) 0.24358(11) 0.82510(10)
C22_15 C 0.04525(12) 0.23386(13) 0.83867(14)
H11_15 H 0.0480 0.2194 0.8358
N4_15 N 0.05581(10) 0.24199(11) 0.85508(12)
C23_15 C 0.05217(16) 0.26465(18) 0.86050(17)
N5_15 N 0.06354(9) 0.27364(9) 0.87671(10)
H12_15 H 0.0612 0.2868 0.8804
H13_15 H 0.0732 0.2662 0.8834
Zn1_15 Zn 0.070178(13) 0.220914(13) 0.875847(16)
O8_15 O 0.11535(9) 0.05832(7) 0.81891(8)
C24_15 C 0.10262(15) 0.06199(16) 0.83401(14)
O9_15 O 0.09490(12) 0.04723(9) 0.84464(10)
C25_15 C 0.09708(14) 0.08526(13) 0.83951(13)
C26_15 C 0.10666(13) 0.10169(15) 0.82883(13)
H14_15 H 0.1163 0.0992 0.8176
C27_15 C 0.10137(12) 0.12325(17) 0.83561(11)
C28_15 C 0.07633(16) 0.11009(15) 0.86224(16)
H15_15 H 0.0668 0.1123 0.8735
C29_15 C 0.08193(15) 0.08992(14) 0.85553(15)
H16_15 H 0.0751 0.0783 0.8621
O10_15 O 0.13907(10) 0.01037(8) 0.84130(8)
C30_15 C 0.15085(16) 0.02062(17) 0.85350(16)
O11_15 O 0.15245(14) 0.04055(11) 0.85160(11)
C31_15 C 0.16421(12) 0.00894(18) 0.87118(13)
C39_15 C 0.1855(3) 0.0144(2) 0.9040(2)
H21_15 H 0.1898 0.0233 0.9153
C40_15 C 0.1741(2) 0.02260(17) 0.88675(18)
H22_15 H 0.1728 0.0375 0.8853
N8_15 N 0.07510(10) 0.00642(11) 0.78076(10)
C45_15 C 0.08867(14) 0.01614(13) 0.79525(12)
H24_15 H 0.0858 0.0306 0.7980
N9_15 N 0.10508(12) 0.00801(11) 0.80581(10)
Zn3_15 Zn 0.125847(16) 0.029086(13) 0.820178(13)
O14_15 O 0.03475(14) 0.04363(13) 0.77567(16)
O15_15 O 0.02567(16) 0.20637(13) 0.78475(14)
N11_15 N 0.04621(10) 0.22030(10) 0.89845(11)
N12_15 N 0.14845(11) 0.02970(10) 0.79621(10)
Zn6_15 Zn 0.029086(13) 0.320178(13) 0.874153(16)
Zn10_15 Zn 0.227435(15) 0.302925(16) 0.988472(16)
C32_15 C 0.16655(17) 0.98826(17) 0.87239(15)
H17_15 H 0.1608 0.9791 0.8620
C33_15 C 0.1786(2) 0.98003(18) 0.89090(19)
C34_15 C 0.1844(2) 0.96015(19) 0.8918(2)
H18_15 H 0.1811 0.9506 0.8807
C35_15 C 0.1956(2) 0.95357(17) 0.9095(2)
H19_15 H 0.1980 0.9389 0.9112
C36_15 C 0.2033(2) 0.9670(2) 0.92472(18)
C37_15 C 0.2026(2) 0.9873(2) 0.9214(2)
H20_15 H 0.2100 0.9971 0.9301
C38_15 C 0.1902(3) 0.9938(2) 0.9040(2)
O12_15 O 0.22433(16) 0.96525(14) 0.95637(13)
C41_15 C 0.2170(2) 0.9549(2) 0.9421(2)
O13_15 O 0.21964(14) 0.93510(13) 0.94042(11)
C42_15 C 0.10001(16) 0.97500(17) 0.78756(15)
N6_15 N 0.10155(11) 0.95379(10) 0.77970(10)
C43_15 C 0.08520(15) 0.95415(14) 0.76531(12)
H23_15 H 0.0824 0.9421 0.7569
C44_15 C 0.08169(16) 0.98577(19) 0.77702(14)
C46_15 C 0.11050(17) 0.98535(18) 0.80217(16)
N10_15 N 0.12671(10) 0.97636(9) 0.81354(9)
H25_15 H 0.1304 0.9632 0.8112
H26_15 H 0.1334 0.9838 0.8232
Zn5_15 Zn 0.124153(16) 0.929822(13) 0.779086(13)
Zn9_15 Zn 0.238472(16) 0.947075(16) 0.977435(15)
C32_16 C 0.33345(17) 0.01174(17) 0.37239(15)
H17_16 H 0.3392 0.0209 0.3620
C33_16 C 0.3214(2) 0.01997(18) 0.39090(19)
C34_16 C 0.3156(2) 0.03985(19) 0.3918(2)
H18_16 H 0.3189 0.0494 0.3807
C35_16 C 0.3044(2) 0.04643(17) 0.4095(2)
H19_16 H 0.3020 0.0611 0.4112
C36_16 C 0.2967(2) 0.0330(2) 0.42472(18)
C37_16 C 0.2974(2) 0.0127(2) 0.4214(2)
H20_16 H 0.2900 0.0029 0.4301
C38_16 C 0.3098(3) 0.0062(2) 0.4040(2)
O12_16 O 0.27567(16) 0.03475(14) 0.45637(13)
C41_16 C 0.2830(2) 0.0451(2) 0.4421(2)
O13_16 O 0.28036(14) 0.06490(13) 0.44042(11)
C42_16 C 0.39999(16) 0.02500(17) 0.28756(15)
N6_16 N 0.39845(11) 0.04621(10) 0.27970(10)
C43_16 C 0.41480(15) 0.04585(14) 0.26531(12)
H23_16 H 0.4176 0.0579 0.2569
C44_16 C 0.41831(16) 0.01423(19) 0.27702(14)
C46_16 C 0.38950(17) 0.01465(18) 0.30217(16)
N10_16 N 0.37329(10) 0.02364(9) 0.31354(9)
H25_16 H 0.3696 0.0368 0.3112
H26_16 H 0.3666 0.0162 0.3232
Zn5_16 Zn 0.375847(16) 0.070178(13) 0.279086(13)
Zn9_16 Zn 0.261528(16) 0.052925(16) 0.477435(15)
O1_16 O 0.43109(8) 0.80832(7) 0.36535(9)
C1_16 C 0.41599(14) 0.81199(16) 0.35262(15)
O2_16 O 0.40536(10) 0.79723(9) 0.34490(12)
C2_16 C 0.41049(13) 0.83526(13) 0.34708(14)
C3_16 C 0.42117(13) 0.85169(15) 0.35666(13)
H1_16 H 0.4324 0.8492 0.3663
C4_16 C 0.41439(11) 0.87325(17) 0.35137(12)
C5_16 C 0.38776(16) 0.86009(15) 0.32633(16)
H2_16 H 0.3765 0.8623 0.3168
C6_16 C 0.39447(15) 0.83992(14) 0.33193(15)
H3_16 H 0.3879 0.8283 0.3251
O3_16 O 0.40870(8) 0.76037(8) 0.38907(10)
C7_16 C 0.39650(16) 0.77062(17) 0.40085(16)
O4_16 O 0.39840(11) 0.79055(11) 0.40245(14)
C8_16 C 0.37882(13) 0.75894(18) 0.41421(12)
C9_16 C 0.37761(15) 0.73826(17) 0.41655(17)
H4_16 H 0.3880 0.7291 0.4108
C10_16 C 0.35910(19) 0.73003(18) 0.4286(2)
C11_16 C 0.3582(2) 0.71015(19) 0.4344(2)
H5_16 H 0.3693 0.7006 0.4311
C12_16 C 0.3405(2) 0.70357(17) 0.4456(2)
H6_16 H 0.3388 0.6889 0.4480
C13_16 C 0.32528(18) 0.7170(2) 0.4533(2)
C14_16 C 0.3286(2) 0.7373(2) 0.4526(2)
H7_16 H 0.3199 0.7471 0.4600
C15_16 C 0.3460(2) 0.7438(2) 0.4402(3)
C16_16 C 0.3460(2) 0.7644(2) 0.4355(3)
H8_16 H 0.3347 0.7733 0.4398
C17_16 C 0.36325(18) 0.77260(17) 0.4241(2)
H9_16 H 0.3647 0.7875 0.4228
O5_16 O 0.29363(13) 0.71525(14) 0.47433(16)
C18_16 C 0.3079(2) 0.7049(2) 0.4670(2)
O6_16 O 0.30958(11) 0.68510(13) 0.46964(14)
C19_16 C 0.46244(15) 0.72500(17) 0.35001(16)
N1_16 N 0.47030(10) 0.70379(10) 0.35155(11)
C20_16 C 0.48469(12) 0.70415(14) 0.33520(15)
H10_16 H 0.4931 0.6921 0.3324
C21_16 C 0.47298(14) 0.73577(19) 0.33169(16)
N3_16 N 0.46924(10) 0.75642(11) 0.32510(10)
C22_16 C 0.45475(12) 0.76614(13) 0.33867(14)
H11_16 H 0.4520 0.7806 0.3358
N4_16 N 0.44419(10) 0.75801(11) 0.35508(12)
C23_16 C 0.44783(16) 0.73535(18) 0.36050(17)
N5_16 N 0.43646(9) 0.72636(9) 0.37671(10)
H12_16 H 0.4388 0.7132 0.3804
H13_16 H 0.4268 0.7338 0.3834
Zn1_16 Zn 0.429822(13) 0.779086(13) 0.375847(16)
O8_16 O 0.38465(9) 0.94168(7) 0.31891(8)
C24_16 C 0.39738(15) 0.93801(16) 0.33401(14)
O9_16 O 0.40510(12) 0.95277(9) 0.34464(10)
C25_16 C 0.40292(14) 0.91474(13) 0.33951(13)
C26_16 C 0.39334(13) 0.89831(15) 0.32883(13)
H14_16 H 0.3837 0.9008 0.3176
C27_16 C 0.39863(12) 0.87675(17) 0.33561(11)
C28_16 C 0.42367(16) 0.88991(15) 0.36224(16)
H15_16 H 0.4332 0.8877 0.3735
C29_16 C 0.41807(15) 0.91008(14) 0.35553(15)
H16_16 H 0.4249 0.9217 0.3621
O10_16 O 0.36093(10) 0.98963(8) 0.34130(8)
C30_16 C 0.34915(16) 0.97938(17) 0.35350(16)
O11_16 O 0.34755(14) 0.95945(11) 0.35160(11)
C31_16 C 0.33579(12) 0.99106(18) 0.37118(13)
C39_16 C 0.3145(3) 0.9856(2) 0.4040(2)
H21_16 H 0.3102 0.9767 0.4153
C40_16 C 0.3259(2) 0.97740(17) 0.38675(18)
H22_16 H 0.3272 0.9625 0.3853
N8_16 N 0.42490(10) 0.99358(11) 0.28076(10)
C45_16 C 0.41133(14) 0.98386(13) 0.29525(12)
H24_16 H 0.4142 0.9694 0.2980
N9_16 N 0.39492(12) 0.99199(11) 0.30581(10)
Zn3_16 Zn 0.374153(16) 0.970914(13) 0.320178(13)
O14_16 O 0.46525(14) 0.95637(13) 0.27567(16)
O15_16 O 0.47433(16) 0.79363(13) 0.28475(14)
N11_16 N 0.45379(10) 0.77970(10) 0.39845(11)
N12_16 N 0.35155(11) 0.97030(10) 0.29621(10)
Zn6_16 Zn 0.470914(13) 0.679822(13) 0.374153(16)
Zn10_16 Zn 0.272565(15) 0.697075(16) 0.488472(16)
O1_17 O 0.63465(9) 0.93109(8) 0.69168(7)
C1_17 C 0.64738(15) 0.91599(14) 0.68801(16)
O2_17 O 0.65510(12) 0.90536(10) 0.70277(9)
C2_17 C 0.65292(14) 0.91049(13) 0.66474(13)
C3_17 C 0.64334(13) 0.92117(13) 0.64831(15)
H1_17 H 0.6337 0.9324 0.6508
C4_17 C 0.64863(12) 0.91439(11) 0.62675(17)
C5_17 C 0.67367(16) 0.88776(16) 0.63991(15)
H2_17 H 0.6832 0.8765 0.6377
C6_17 C 0.66807(15) 0.89447(15) 0.66008(14)
H3_17 H 0.6749 0.8879 0.6717
O3_17 O 0.61093(10) 0.90870(8) 0.73963(8)
C7_17 C 0.59915(16) 0.89650(16) 0.72938(17)
O4_17 O 0.59755(14) 0.89840(11) 0.70945(11)
C8_17 C 0.58579(12) 0.87882(13) 0.74106(18)
C9_17 C 0.58345(17) 0.87761(15) 0.76174(17)
H4_17 H 0.5892 0.8880 0.7709
C10_17 C 0.5714(2) 0.85910(19) 0.76997(18)
C11_17 C 0.5656(2) 0.8582(2) 0.78985(19)
H5_17 H 0.5689 0.8693 0.7994
C12_17 C 0.5544(2) 0.8405(2) 0.79643(17)
H6_17 H 0.5520 0.8388 0.8111
C13_17 C 0.5467(2) 0.82528(18) 0.7830(2)
C14_17 C 0.5474(2) 0.8286(2) 0.7627(2)
H7_17 H 0.5400 0.8199 0.7529
C15_17 C 0.5598(3) 0.8460(2) 0.7562(2)
C16_17 C 0.5645(3) 0.8460(2) 0.7356(2)
H8_17 H 0.5602 0.8347 0.7267
C17_17 C 0.5759(2) 0.86325(18) 0.72740(17)
H9_17 H 0.5772 0.8647 0.7125
O5_17 O 0.52567(16) 0.79363(13) 0.78475(14)
C18_17 C 0.5330(2) 0.8079(2) 0.7951(2)
O6_17 O 0.53036(14) 0.80958(11) 0.81490(13)
C19_17 C 0.64999(16) 0.96244(15) 0.77500(17)
N1_17 N 0.64845(11) 0.97030(10) 0.79621(10)
C20_17 C 0.66480(15) 0.98469(12) 0.79585(14)
H10_17 H 0.6676 0.9931 0.8079
C21_17 C 0.66831(16) 0.97298(14) 0.76423(19)
N3_17 N 0.67490(10) 0.96924(10) 0.74358(11)
C22_17 C 0.66133(14) 0.95475(12) 0.73386(13)
H11_17 H 0.6642 0.9520 0.7194
N4_17 N 0.64492(12) 0.94419(10) 0.74199(11)
C23_17 C 0.63950(17) 0.94783(16) 0.76465(18)
N5_17 N 0.62329(10) 0.93646(9) 0.77364(9)
H12_17 H 0.6196 0.9388 0.7868
H13_17 H 0.6166 0.9268 0.7662
Zn1_17 Zn 0.624153(16) 0.929822(13) 0.720914(13)
O8_17 O 0.68109(8) 0.88465(9) 0.55832(7)
C24_17 C 0.66599(14) 0.89738(15) 0.56199(16)
O9_17 O 0.65536(10) 0.90510(12) 0.54723(9)
C25_17 C 0.66049(13) 0.90292(14) 0.58526(13)
C26_17 C 0.67117(13) 0.89334(13) 0.60169(15)
H14_17 H 0.6824 0.8837 0.5992
C27_17 C 0.66439(11) 0.89863(12) 0.62325(17)
C28_17 C 0.63776(16) 0.92367(16) 0.61009(15)
H15_17 H 0.6265 0.9332 0.6123
C29_17 C 0.64447(15) 0.91807(15) 0.58992(14)
H16_17 H 0.6379 0.9249 0.5783
O10_17 O 0.65870(8) 0.86093(10) 0.51037(8)
C30_17 C 0.64650(16) 0.84915(16) 0.52062(17)
O11_17 O 0.64840(11) 0.84755(14) 0.54055(11)
C31_17 C 0.62882(13) 0.83579(12) 0.50894(18)
C32_17 C 0.62761(15) 0.83345(17) 0.48826(17)
H17_17 H 0.6380 0.8392 0.4791
C33_17 C 0.60910(19) 0.8214(2) 0.48003(18)
C34_17 C 0.6082(2) 0.8156(2) 0.46015(19)
H18_17 H 0.6193 0.8189 0.4506
C35_17 C 0.5905(2) 0.8044(2) 0.45357(17)
H19_17 H 0.5888 0.8020 0.4389
C36_17 C 0.57528(18) 0.7967(2) 0.4670(2)
C37_17 C 0.5786(2) 0.7974(2) 0.4873(2)
H20_17 H 0.5699 0.7900 0.4971
C38_17 C 0.5960(2) 0.8098(3) 0.4938(2)
C39_17 C 0.5960(2) 0.8145(3) 0.5144(2)
H21_17 H 0.5847 0.8102 0.5233
C40_17 C 0.61325(18) 0.8259(2) 0.52260(17)
H22_17 H 0.6147 0.8272 0.5375
O12_17 O 0.54363(13) 0.77567(16) 0.46525(14)
C41_17 C 0.5579(2) 0.7830(2) 0.4549(2)
O13_17 O 0.55958(11) 0.78036(14) 0.43510(13)
C42_17 C 0.71244(15) 0.89999(16) 0.47500(17)
N6_17 N 0.72030(10) 0.89845(11) 0.45379(10)
C43_17 C 0.73469(12) 0.91480(15) 0.45415(14)
H23_17 H 0.7431 0.9176 0.4421
C44_17 C 0.72298(14) 0.91831(16) 0.48577(19)
N8_17 N 0.71924(10) 0.92490(10) 0.50642(11)
C45_17 C 0.70475(12) 0.91133(14) 0.51614(13)
H24_17 H 0.7020 0.9142 0.5306
N9_17 N 0.69419(10) 0.89492(12) 0.50801(11)
C46_17 C 0.69783(16) 0.88950(17) 0.48535(18)
N10_17 N 0.68646(9) 0.87329(10) 0.47636(9)
H25_17 H 0.6888 0.8696 0.4632
H26_17 H 0.6768 0.8666 0.4838
Zn3_17 Zn 0.679822(13) 0.874153(16) 0.529086(13)
O14_17 O 0.72433(16) 0.96525(14) 0.54363(13)
O15_17 O 0.71525(14) 0.97433(16) 0.70637(13)
N11_17 N 0.60155(11) 0.95379(10) 0.72030(10)
N12_17 N 0.70379(10) 0.85155(11) 0.52970(10)
Zn5_17 Zn 0.720914(13) 0.875847(16) 0.429822(13)
Zn6_17 Zn 0.625847(16) 0.970914(13) 0.820178(13)
Zn9_17 Zn 0.522565(15) 0.761528(16) 0.447075(16)
Zn10_17 Zn 0.511528(16) 0.772565(15) 0.802925(16)
O1_18 O 0.13465(9) 0.56891(8) 0.30832(7)
C1_18 C 0.14738(15) 0.58401(14) 0.31199(16)
O2_18 O 0.15510(12) 0.59464(10) 0.29723(9)
C2_18 C 0.15292(14) 0.58951(13) 0.33526(13)
C3_18 C 0.14334(13) 0.57883(13) 0.35169(15)
H1_18 H 0.1337 0.5676 0.3492
C4_18 C 0.14863(12) 0.58561(11) 0.37325(17)
C5_18 C 0.17367(16) 0.61224(16) 0.36009(15)
H2_18 H 0.1832 0.6235 0.3623
C6_18 C 0.16807(15) 0.60553(15) 0.33992(14)
H3_18 H 0.1749 0.6121 0.3283
O3_18 O 0.11093(10) 0.59130(8) 0.26037(8)
C7_18 C 0.09915(16) 0.60350(16) 0.27062(17)
O4_18 O 0.09755(14) 0.60160(11) 0.29055(11)
C8_18 C 0.08579(12) 0.62118(13) 0.25894(18)
C9_18 C 0.08345(17) 0.62239(15) 0.23826(17)
H4_18 H 0.0892 0.6120 0.2291
C10_18 C 0.0714(2) 0.64090(19) 0.23003(18)
C11_18 C 0.0656(2) 0.6418(2) 0.21015(19)
H5_18 H 0.0689 0.6307 0.2006
C12_18 C 0.0544(2) 0.6595(2) 0.20357(17)
H6_18 H 0.0520 0.6612 0.1889
C13_18 C 0.0467(2) 0.67472(18) 0.2170(2)
C14_18 C 0.0474(2) 0.6714(2) 0.2373(2)
H7_18 H 0.0400 0.6801 0.2471
C15_18 C 0.0598(3) 0.6540(2) 0.2438(2)
C16_18 C 0.0645(3) 0.6540(2) 0.2644(2)
H8_18 H 0.0602 0.6653 0.2733
C17_18 C 0.0759(2) 0.63675(18) 0.27260(17)
H9_18 H 0.0772 0.6353 0.2875
O5_18 O 0.02567(16) 0.70637(13) 0.21525(14)
C18_18 C 0.0330(2) 0.6921(2) 0.2049(2)
O6_18 O 0.03036(14) 0.69042(11) 0.18510(13)
C19_18 C 0.14999(16) 0.53756(15) 0.22500(17)
N1_18 N 0.14845(11) 0.52970(10) 0.20379(10)
C20_18 C 0.16480(15) 0.51531(12) 0.20415(14)
H10_18 H 0.1676 0.5069 0.1921
C21_18 C 0.16831(16) 0.52702(14) 0.23577(19)
N3_18 N 0.17490(10) 0.53076(10) 0.25642(11)
C22_18 C 0.16133(14) 0.54525(12) 0.26614(13)
H11_18 H 0.1642 0.5480 0.2806
N4_18 N 0.14492(12) 0.55581(10) 0.25801(11)
C23_18 C 0.13950(17) 0.55217(16) 0.23535(18)
N5_18 N 0.12329(10) 0.56354(9) 0.22636(9)
H12_18 H 0.1196 0.5612 0.2132
H13_18 H 0.1166 0.5732 0.2338
Zn1_18 Zn 0.124153(16) 0.570178(13) 0.279086(13)
O8_18 O 0.18109(8) 0.61535(9) 0.44168(7)
C24_18 C 0.16599(14) 0.60262(15) 0.43801(16)
O9_18 O 0.15536(10) 0.59490(12) 0.45277(9)
C25_18 C 0.16049(13) 0.59708(14) 0.41474(13)
C26_18 C 0.17117(13) 0.60666(13) 0.39831(15)
H14_18 H 0.1824 0.6163 0.4008
C27_18 C 0.16439(11) 0.60137(12) 0.37675(17)
C28_18 C 0.13776(16) 0.57633(16) 0.38991(15)
H15_18 H 0.1265 0.5668 0.3877
C29_18 C 0.14447(15) 0.58193(15) 0.41008(14)
H16_18 H 0.1379 0.5751 0.4217
O10_18 O 0.15870(8) 0.63907(10) 0.48963(8)
C30_18 C 0.14650(16) 0.65085(16) 0.47938(17)
O11_18 O 0.14840(11) 0.65245(14) 0.45945(11)
C31_18 C 0.12882(13) 0.66421(12) 0.49106(18)
C32_18 C 0.12761(15) 0.66655(17) 0.51174(17)
H17_18 H 0.1380 0.6608 0.5209
C33_18 C 0.10910(19) 0.6786(2) 0.51997(18)
C34_18 C 0.1082(2) 0.6844(2) 0.53985(19)
H18_18 H 0.1193 0.6811 0.5494
C35_18 C 0.0905(2) 0.6956(2) 0.54643(17)
H19_18 H 0.0888 0.6980 0.5611
C36_18 C 0.07528(18) 0.7033(2) 0.5330(2)
C37_18 C 0.0786(2) 0.7026(2) 0.5127(2)
H20_18 H 0.0699 0.7100 0.5029
C38_18 C 0.0960(2) 0.6902(3) 0.5062(2)
C39_18 C 0.0960(2) 0.6855(3) 0.4856(2)
H21_18 H 0.0847 0.6898 0.4767
C40_18 C 0.11325(18) 0.6741(2) 0.47740(17)
H22_18 H 0.1147 0.6728 0.4625
O12_18 O 0.04363(13) 0.72433(16) 0.53475(14)
C41_18 C 0.0579(2) 0.7170(2) 0.5451(2)
O13_18 O 0.05958(11) 0.71964(14) 0.56490(13)
C42_18 C 0.21244(15) 0.60001(16) 0.52500(17)
N6_18 N 0.22030(10) 0.60155(11) 0.54621(10)
C43_18 C 0.23469(12) 0.58520(15) 0.54585(14)
H23_18 H 0.2431 0.5824 0.5579
C44_18 C 0.22298(14) 0.58169(16) 0.51423(19)
N8_18 N 0.21924(10) 0.57510(10) 0.49358(11)
C45_18 C 0.20475(12) 0.58867(14) 0.48386(13)
H24_18 H 0.2020 0.5858 0.4694
N9_18 N 0.19419(10) 0.60508(12) 0.49199(11)
C46_18 C 0.19783(16) 0.61050(17) 0.51465(18)
N10_18 N 0.18646(9) 0.62671(10) 0.52364(9)
H25_18 H 0.1888 0.6304 0.5368
H26_18 H 0.1768 0.6334 0.5162
Zn3_18 Zn 0.179822(13) 0.625847(16) 0.470914(13)
O14_18 O 0.22433(16) 0.53475(14) 0.45637(13)
O15_18 O 0.21525(14) 0.52567(16) 0.29363(13)
N11_18 N 0.10155(11) 0.54621(10) 0.27970(10)
N12_18 N 0.20379(10) 0.64845(11) 0.47030(10)
Zn5_18 Zn 0.220914(13) 0.624153(16) 0.570178(13)
Zn6_18 Zn 0.125847(16) 0.529086(13) 0.179822(13)
Zn9_18 Zn 0.022565(15) 0.738472(16) 0.552925(16)
Zn10_18 Zn 0.011528(16) 0.727435(15) 0.197075(16)
O1_19 O 0.86535(9) 0.06891(8) 0.19168(7)
C1_19 C 0.85262(15) 0.08401(14) 0.18801(16)
O2_19 O 0.84490(12) 0.09464(10) 0.20277(9)
C2_19 C 0.84708(14) 0.08951(13) 0.16474(13)
C3_19 C 0.85666(13) 0.07883(13) 0.14831(15)
H1_19 H 0.8663 0.0676 0.1508
C4_19 C 0.85137(12) 0.08561(11) 0.12675(17)
C5_19 C 0.82633(16) 0.11224(16) 0.13991(15)
H2_19 H 0.8168 0.1235 0.1377
C6_19 C 0.83193(15) 0.10553(15) 0.16008(14)
H3_19 H 0.8251 0.1121 0.1717
O3_19 O 0.88907(10) 0.09130(8) 0.23963(8)
C7_19 C 0.90085(16) 0.10350(16) 0.22938(17)
O4_19 O 0.90245(14) 0.10160(11) 0.20945(11)
C8_19 C 0.91421(12) 0.12118(13) 0.24106(18)
C9_19 C 0.91655(17) 0.12239(15) 0.26174(17)
H4_19 H 0.9108 0.1120 0.2709
C10_19 C 0.9286(2) 0.14090(19) 0.26997(18)
C11_19 C 0.9344(2) 0.1418(2) 0.28985(19)
H5_19 H 0.9311 0.1307 0.2994
C12_19 C 0.9456(2) 0.1595(2) 0.29643(17)
H6_19 H 0.9480 0.1612 0.3111
C13_19 C 0.9533(2) 0.17472(18) 0.2830(2)
C14_19 C 0.9526(2) 0.1714(2) 0.2627(2)
H7_19 H 0.9600 0.1801 0.2529
C15_19 C 0.9402(3) 0.1540(2) 0.2562(2)
C16_19 C 0.9355(3) 0.1540(2) 0.2356(2)
H8_19 H 0.9398 0.1653 0.2267
C17_19 C 0.9241(2) 0.13675(18) 0.22740(17)
H9_19 H 0.9228 0.1353 0.2125
O5_19 O 0.97433(16) 0.20637(13) 0.28475(14)
C18_19 C 0.9670(2) 0.1921(2) 0.2951(2)
O6_19 O 0.96964(14) 0.19042(11) 0.31490(13)
C19_19 C 0.85001(16) 0.03756(15) 0.27500(17)
N1_19 N 0.85155(11) 0.02970(10) 0.29621(10)
C20_19 C 0.83520(15) 0.01531(12) 0.29585(14)
H10_19 H 0.8324 0.0069 0.3079
C21_19 C 0.83169(16) 0.02702(14) 0.26423(19)
N3_19 N 0.82510(10) 0.03076(10) 0.24358(11)
C22_19 C 0.83867(14) 0.04525(12) 0.23386(13)
H11_19 H 0.8358 0.0480 0.2194
N4_19 N 0.85508(12) 0.05581(10) 0.24199(11)
C23_19 C 0.86050(17) 0.05217(16) 0.26465(18)
N5_19 N 0.87671(10) 0.06354(9) 0.27364(9)
H12_19 H 0.8804 0.0612 0.2868
H13_19 H 0.8834 0.0732 0.2662
Zn1_19 Zn 0.875847(16) 0.070178(13) 0.220914(13)
O8_19 O 0.81891(8) 0.11535(9) 0.05832(7)
C24_19 C 0.83401(14) 0.10262(15) 0.06199(16)
O9_19 O 0.84464(10) 0.09490(12) 0.04723(9)
C25_19 C 0.83951(13) 0.09708(14) 0.08526(13)
C26_19 C 0.82883(13) 0.10666(13) 0.10169(15)
H14_19 H 0.8176 0.1163 0.0992
C27_19 C 0.83561(11) 0.10137(12) 0.12325(17)
C28_19 C 0.86224(16) 0.07633(16) 0.11009(15)
H15_19 H 0.8735 0.0668 0.1123
C29_19 C 0.85553(15) 0.08193(15) 0.08992(14)
H16_19 H 0.8621 0.0751 0.0783
O10_19 O 0.84130(8) 0.13907(10) 0.01037(8)
C30_19 C 0.85350(16) 0.15085(16) 0.02062(17)
O11_19 O 0.85160(11) 0.15245(14) 0.04055(11)
C31_19 C 0.87118(13) 0.16421(12) 0.00894(18)
C39_19 C 0.9040(2) 0.1855(3) 0.0144(2)
H21_19 H 0.9153 0.1898 0.0233
C40_19 C 0.88675(18) 0.1741(2) 0.02260(17)
H22_19 H 0.8853 0.1728 0.0375
N8_19 N 0.78076(10) 0.07510(10) 0.00642(11)
C45_19 C 0.79525(12) 0.08867(14) 0.01614(13)
H24_19 H 0.7980 0.0858 0.0306
N9_19 N 0.80581(10) 0.10508(12) 0.00801(11)
Zn3_19 Zn 0.820178(13) 0.125847(16) 0.029086(13)
O14_19 O 0.77567(16) 0.03475(14) 0.04363(13)
O15_19 O 0.78475(14) 0.02567(16) 0.20637(13)
N11_19 N 0.89845(11) 0.04621(10) 0.22030(10)
N12_19 N 0.79621(10) 0.14845(11) 0.02970(10)
Zn6_19 Zn 0.874153(16) 0.029086(13) 0.320178(13)
Zn10_19 Zn 0.988472(16) 0.227435(15) 0.302925(16)
C32_19 C 0.87239(15) 0.16655(17) 0.98826(17)
H17_19 H 0.8620 0.1608 0.9791
C33_19 C 0.89090(19) 0.1786(2) 0.98003(18)
C34_19 C 0.8918(2) 0.1844(2) 0.96015(19)
H18_19 H 0.8807 0.1811 0.9506
C35_19 C 0.9095(2) 0.1956(2) 0.95357(17)
H19_19 H 0.9112 0.1980 0.9389
C36_19 C 0.92472(18) 0.2033(2) 0.9670(2)
C37_19 C 0.9214(2) 0.2026(2) 0.9873(2)
H20_19 H 0.9301 0.2100 0.9971
C38_19 C 0.9040(2) 0.1902(3) 0.9938(2)
O12_19 O 0.95637(13) 0.22433(16) 0.96525(14)
C41_19 C 0.9421(2) 0.2170(2) 0.9549(2)
O13_19 O 0.94042(11) 0.21964(14) 0.93510(13)
C42_19 C 0.78756(15) 0.10001(16) 0.97500(17)
N6_19 N 0.77970(10) 0.10155(11) 0.95379(10)
C43_19 C 0.76531(12) 0.08520(15) 0.95415(14)
H23_19 H 0.7569 0.0824 0.9421
C44_19 C 0.77702(14) 0.08169(16) 0.98577(19)
C46_19 C 0.80217(16) 0.11050(17) 0.98535(18)
N10_19 N 0.81354(9) 0.12671(10) 0.97636(9)
H25_19 H 0.8112 0.1304 0.9632
H26_19 H 0.8232 0.1334 0.9838
Zn5_19 Zn 0.779086(13) 0.124153(16) 0.929822(13)
Zn9_19 Zn 0.977435(15) 0.238472(16) 0.947075(16)
C32_20 C 0.37239(15) 0.33345(17) 0.01174(17)
H17_20 H 0.3620 0.3392 0.0209
C33_20 C 0.39090(19) 0.3214(2) 0.01997(18)
C34_20 C 0.3918(2) 0.3156(2) 0.03985(19)
H18_20 H 0.3807 0.3189 0.0494
C35_20 C 0.4095(2) 0.3044(2) 0.04643(17)
H19_20 H 0.4112 0.3020 0.0611
C36_20 C 0.42472(18) 0.2967(2) 0.0330(2)
C37_20 C 0.4214(2) 0.2974(2) 0.0127(2)
H20_20 H 0.4301 0.2900 0.0029
C38_20 C 0.4040(2) 0.3098(3) 0.0062(2)
O12_20 O 0.45637(13) 0.27567(16) 0.03475(14)
C41_20 C 0.4421(2) 0.2830(2) 0.0451(2)
O13_20 O 0.44042(11) 0.28036(14) 0.06490(13)
C42_20 C 0.28756(15) 0.39999(16) 0.02500(17)
N6_20 N 0.27970(10) 0.39845(11) 0.04621(10)
C43_20 C 0.26531(12) 0.41480(15) 0.04585(14)
H23_20 H 0.2569 0.4176 0.0579
C44_20 C 0.27702(14) 0.41831(16) 0.01423(19)
C46_20 C 0.30217(16) 0.38950(17) 0.01465(18)
N10_20 N 0.31354(9) 0.37329(10) 0.02364(9)
H25_20 H 0.3112 0.3696 0.0368
H26_20 H 0.3232 0.3666 0.0162
Zn5_20 Zn 0.279086(13) 0.375847(16) 0.070178(13)
Zn9_20 Zn 0.477435(15) 0.261528(16) 0.052925(16)
O1_20 O 0.36535(9) 0.43109(8) 0.80832(7)
C1_20 C 0.35262(15) 0.41599(14) 0.81199(16)
O2_20 O 0.34490(12) 0.40536(10) 0.79723(9)
C2_20 C 0.34708(14) 0.41049(13) 0.83526(13)
C3_20 C 0.35666(13) 0.42117(13) 0.85169(15)
H1_20 H 0.3663 0.4324 0.8492
C4_20 C 0.35137(12) 0.41439(11) 0.87325(17)
C5_20 C 0.32633(16) 0.38776(16) 0.86009(15)
H2_20 H 0.3168 0.3765 0.8623
C6_20 C 0.33193(15) 0.39447(15) 0.83992(14)
H3_20 H 0.3251 0.3879 0.8283
O3_20 O 0.38907(10) 0.40870(8) 0.76037(8)
C7_20 C 0.40085(16) 0.39650(16) 0.77062(17)
O4_20 O 0.40245(14) 0.39840(11) 0.79055(11)
C8_20 C 0.41421(12) 0.37882(13) 0.75894(18)
C9_20 C 0.41655(17) 0.37761(15) 0.73826(17)
H4_20 H 0.4108 0.3880 0.7291
C10_20 C 0.4286(2) 0.35910(19) 0.73003(18)
C11_20 C 0.4344(2) 0.3582(2) 0.71015(19)
H5_20 H 0.4311 0.3693 0.7006
C12_20 C 0.4456(2) 0.3405(2) 0.70357(17)
H6_20 H 0.4480 0.3388 0.6889
C13_20 C 0.4533(2) 0.32528(18) 0.7170(2)
C14_20 C 0.4526(2) 0.3286(2) 0.7373(2)
H7_20 H 0.4600 0.3199 0.7471
C15_20 C 0.4402(3) 0.3460(2) 0.7438(2)
C16_20 C 0.4355(3) 0.3460(2) 0.7644(2)
H8_20 H 0.4398 0.3347 0.7733
C17_20 C 0.4241(2) 0.36325(18) 0.77260(17)
H9_20 H 0.4228 0.3647 0.7875
O5_20 O 0.47433(16) 0.29363(13) 0.71525(14)
C18_20 C 0.4670(2) 0.3079(2) 0.7049(2)
O6_20 O 0.46964(14) 0.30958(11) 0.68510(13)
C19_20 C 0.35001(16) 0.46244(15) 0.72500(17)
N1_20 N 0.35155(11) 0.47030(10) 0.70379(10)
C20_20 C 0.33520(15) 0.48469(12) 0.70415(14)
H10_20 H 0.3324 0.4931 0.6921
C21_20 C 0.33169(16) 0.47298(14) 0.73577(19)
N3_20 N 0.32510(10) 0.46924(10) 0.75642(11)
C22_20 C 0.33867(14) 0.45475(12) 0.76614(13)
H11_20 H 0.3358 0.4520 0.7806
N4_20 N 0.35508(12) 0.44419(10) 0.75801(11)
C23_20 C 0.36050(17) 0.44783(16) 0.73535(18)
N5_20 N 0.37671(10) 0.43646(9) 0.72636(9)
H12_20 H 0.3804 0.4388 0.7132
H13_20 H 0.3834 0.4268 0.7338
Zn1_20 Zn 0.375847(16) 0.429822(13) 0.779086(13)
O8_20 O 0.31891(8) 0.38465(9) 0.94168(7)
C24_20 C 0.33401(14) 0.39738(15) 0.93801(16)
O9_20 O 0.34464(10) 0.40510(12) 0.95277(9)
C25_20 C 0.33951(13) 0.40292(14) 0.91474(13)
C26_20 C 0.32883(13) 0.39334(13) 0.89831(15)
H14_20 H 0.3176 0.3837 0.9008
C27_20 C 0.33561(11) 0.39863(12) 0.87675(17)
C28_20 C 0.36224(16) 0.42367(16) 0.88991(15)
H15_20 H 0.3735 0.4332 0.8877
C29_20 C 0.35553(15) 0.41807(15) 0.91008(14)
H16_20 H 0.3621 0.4249 0.9217
O10_20 O 0.34130(8) 0.36093(10) 0.98963(8)
C30_20 C 0.35350(16) 0.34915(16) 0.97938(17)
O11_20 O 0.35160(11) 0.34755(14) 0.95945(11)
C31_20 C 0.37118(13) 0.33579(12) 0.99106(18)
C39_20 C 0.4040(2) 0.3145(3) 0.9856(2)
H21_20 H 0.4153 0.3102 0.9767
C40_20 C 0.38675(18) 0.3259(2) 0.97740(17)
H22_20 H 0.3853 0.3272 0.9625
N8_20 N 0.28076(10) 0.42490(10) 0.99358(11)
C45_20 C 0.29525(12) 0.41133(14) 0.98386(13)
H24_20 H 0.2980 0.4142 0.9694
N9_20 N 0.30581(10) 0.39492(12) 0.99199(11)
Zn3_20 Zn 0.320178(13) 0.374153(16) 0.970914(13)
O14_20 O 0.27567(16) 0.46525(14) 0.95637(13)
O15_20 O 0.28475(14) 0.47433(16) 0.79363(13)
N11_20 N 0.39845(11) 0.45379(10) 0.77970(10)
N12_20 N 0.29621(10) 0.35155(11) 0.97030(10)
Zn6_20 Zn 0.374153(16) 0.470914(13) 0.679822(13)
Zn10_20 Zn 0.488472(16) 0.272565(15) 0.697075(16)
O1_21 O 0.69168(7) 0.63465(9) 0.93109(8)
C1_21 C 0.68801(16) 0.64738(15) 0.91599(14)
O2_21 O 0.70277(9) 0.65510(12) 0.90536(10)
C2_21 C 0.66474(13) 0.65292(14) 0.91049(13)
C3_21 C 0.64831(15) 0.64334(13) 0.92117(13)
H1_21 H 0.6508 0.6337 0.9324
C4_21 C 0.62675(17) 0.64863(12) 0.91439(11)
C5_21 C 0.63991(15) 0.67367(16) 0.88776(16)
H2_21 H 0.6377 0.6832 0.8765
C6_21 C 0.66008(14) 0.66807(15) 0.89447(15)
H3_21 H 0.6717 0.6749 0.8879
O3_21 O 0.73963(8) 0.61093(10) 0.90870(8)
C7_21 C 0.72938(17) 0.59915(16) 0.89650(16)
O4_21 O 0.70945(11) 0.59755(14) 0.89840(11)
C8_21 C 0.74106(18) 0.58579(12) 0.87882(13)
C9_21 C 0.76174(17) 0.58345(17) 0.87761(15)
H4_21 H 0.7709 0.5892 0.8880
C10_21 C 0.76997(18) 0.5714(2) 0.85910(19)
C11_21 C 0.78985(19) 0.5656(2) 0.8582(2)
H5_21 H 0.7994 0.5689 0.8693
C12_21 C 0.79643(17) 0.5544(2) 0.8405(2)
H6_21 H 0.8111 0.5520 0.8388
C13_21 C 0.7830(2) 0.5467(2) 0.82528(18)
C14_21 C 0.7627(2) 0.5474(2) 0.8286(2)
H7_21 H 0.7529 0.5400 0.8199
C15_21 C 0.7562(2) 0.5598(3) 0.8460(2)
C16_21 C 0.7356(2) 0.5645(3) 0.8460(2)
H8_21 H 0.7267 0.5602 0.8347
C17_21 C 0.72740(17) 0.5759(2) 0.86325(18)
H9_21 H 0.7125 0.5772 0.8647
O5_21 O 0.78475(14) 0.52567(16) 0.79363(13)
C18_21 C 0.7951(2) 0.5330(2) 0.8079(2)
O6_21 O 0.81490(13) 0.53036(14) 0.80958(11)
C19_21 C 0.77500(17) 0.64999(16) 0.96244(15)
N1_21 N 0.79621(10) 0.64845(11) 0.97030(10)
C20_21 C 0.79585(14) 0.66480(15) 0.98469(12)
H10_21 H 0.8079 0.6676 0.9931
C21_21 C 0.76423(19) 0.66831(16) 0.97298(14)
N3_21 N 0.74358(11) 0.67490(10) 0.96924(10)
C22_21 C 0.73386(13) 0.66133(14) 0.95475(12)
H11_21 H 0.7194 0.6642 0.9520
N4_21 N 0.74199(11) 0.64492(12) 0.94419(10)
C23_21 C 0.76465(18) 0.63950(17) 0.94783(16)
N5_21 N 0.77364(9) 0.62329(10) 0.93646(9)
H12_21 H 0.7868 0.6196 0.9388
H13_21 H 0.7662 0.6166 0.9268
Zn1_21 Zn 0.720914(13) 0.624153(16) 0.929822(13)
O8_21 O 0.55832(7) 0.68109(8) 0.88465(9)
C24_21 C 0.56199(16) 0.66599(14) 0.89738(15)
O9_21 O 0.54723(9) 0.65536(10) 0.90510(12)
C25_21 C 0.58526(13) 0.66049(13) 0.90292(14)
C26_21 C 0.60169(15) 0.67117(13) 0.89334(13)
H14_21 H 0.5992 0.6824 0.8837
C27_21 C 0.62325(17) 0.66439(11) 0.89863(12)
C28_21 C 0.61009(15) 0.63776(16) 0.92367(16)
H15_21 H 0.6123 0.6265 0.9332
C29_21 C 0.58992(14) 0.64447(15) 0.91807(15)
H16_21 H 0.5783 0.6379 0.9249
O10_21 O 0.51037(8) 0.65870(8) 0.86093(10)
C30_21 C 0.52062(17) 0.64650(16) 0.84915(16)
O11_21 O 0.54055(11) 0.64840(11) 0.84755(14)
C31_21 C 0.50894(18) 0.62882(13) 0.83579(12)
C32_21 C 0.48826(17) 0.62761(15) 0.83345(17)
H17_21 H 0.4791 0.6380 0.8392
C33_21 C 0.48003(18) 0.60910(19) 0.8214(2)
C34_21 C 0.46015(19) 0.6082(2) 0.8156(2)
H18_21 H 0.4506 0.6193 0.8189
C35_21 C 0.45357(17) 0.5905(2) 0.8044(2)
H19_21 H 0.4389 0.5888 0.8020
C36_21 C 0.4670(2) 0.57528(18) 0.7967(2)
C37_21 C 0.4873(2) 0.5786(2) 0.7974(2)
H20_21 H 0.4971 0.5699 0.7900
C38_21 C 0.4938(2) 0.5960(2) 0.8098(3)
C39_21 C 0.5144(2) 0.5960(2) 0.8145(3)
H21_21 H 0.5233 0.5847 0.8102
C40_21 C 0.52260(17) 0.61325(18) 0.8259(2)
H22_21 H 0.5375 0.6147 0.8272
O12_21 O 0.46525(14) 0.54363(13) 0.77567(16)
C41_21 C 0.4549(2) 0.5579(2) 0.7830(2)
O13_21 O 0.43510(13) 0.55958(11) 0.78036(14)
C42_21 C 0.47500(17) 0.71244(15) 0.89999(16)
N6_21 N 0.45379(10) 0.72030(10) 0.89845(11)
C43_21 C 0.45415(14) 0.73469(12) 0.91480(15)
H23_21 H 0.4421 0.7431 0.9176
C44_21 C 0.48577(19) 0.72298(14) 0.91831(16)
N8_21 N 0.50642(11) 0.71924(10) 0.92490(10)
C45_21 C 0.51614(13) 0.70475(12) 0.91133(14)
H24_21 H 0.5306 0.7020 0.9142
N9_21 N 0.50801(11) 0.69419(10) 0.89492(12)
C46_21 C 0.48535(18) 0.69783(16) 0.88950(17)
N10_21 N 0.47636(9) 0.68646(9) 0.87329(10)
H25_21 H 0.4632 0.6888 0.8696
H26_21 H 0.4838 0.6768 0.8666
Zn3_21 Zn 0.529086(13) 0.679822(13) 0.874153(16)
O14_21 O 0.54363(13) 0.72433(16) 0.96525(14)
O15_21 O 0.70637(13) 0.71525(14) 0.97433(16)
N11_21 N 0.72030(10) 0.60155(11) 0.95379(10)
N12_21 N 0.52970(10) 0.70379(10) 0.85155(11)
Zn5_21 Zn 0.429822(13) 0.720914(13) 0.875847(16)
Zn6_21 Zn 0.820178(13) 0.625847(16) 0.970914(13)
Zn9_21 Zn 0.447075(16) 0.522565(15) 0.761528(16)
Zn10_21 Zn 0.802925(16) 0.511528(16) 0.772565(15)
O1_22 O 0.30832(7) 0.13465(9) 0.56891(8)
C1_22 C 0.31199(16) 0.14738(15) 0.58401(14)
O2_22 O 0.29723(9) 0.15510(12) 0.59464(10)
C2_22 C 0.33526(13) 0.15292(14) 0.58951(13)
C3_22 C 0.35169(15) 0.14334(13) 0.57883(13)
H1_22 H 0.3492 0.1337 0.5676
C4_22 C 0.37325(17) 0.14863(12) 0.58561(11)
C5_22 C 0.36009(15) 0.17367(16) 0.61224(16)
H2_22 H 0.3623 0.1832 0.6235
C6_22 C 0.33992(14) 0.16807(15) 0.60553(15)
H3_22 H 0.3283 0.1749 0.6121
O3_22 O 0.26037(8) 0.11093(10) 0.59130(8)
C7_22 C 0.27062(17) 0.09915(16) 0.60350(16)
O4_22 O 0.29055(11) 0.09755(14) 0.60160(11)
C8_22 C 0.25894(18) 0.08579(12) 0.62118(13)
C9_22 C 0.23826(17) 0.08345(17) 0.62239(15)
H4_22 H 0.2291 0.0892 0.6120
C10_22 C 0.23003(18) 0.0714(2) 0.64090(19)
C11_22 C 0.21015(19) 0.0656(2) 0.6418(2)
H5_22 H 0.2006 0.0689 0.6307
C12_22 C 0.20357(17) 0.0544(2) 0.6595(2)
H6_22 H 0.1889 0.0520 0.6612
C13_22 C 0.2170(2) 0.0467(2) 0.67472(18)
C14_22 C 0.2373(2) 0.0474(2) 0.6714(2)
H7_22 H 0.2471 0.0400 0.6801
C15_22 C 0.2438(2) 0.0598(3) 0.6540(2)
C16_22 C 0.2644(2) 0.0645(3) 0.6540(2)
H8_22 H 0.2733 0.0602 0.6653
C17_22 C 0.27260(17) 0.0759(2) 0.63675(18)
H9_22 H 0.2875 0.0772 0.6353
O5_22 O 0.21525(14) 0.02567(16) 0.70637(13)
C18_22 C 0.2049(2) 0.0330(2) 0.6921(2)
O6_22 O 0.18510(13) 0.03036(14) 0.69042(11)
C19_22 C 0.22500(17) 0.14999(16) 0.53756(15)
N1_22 N 0.20379(10) 0.14845(11) 0.52970(10)
C20_22 C 0.20415(14) 0.16480(15) 0.51531(12)
H10_22 H 0.1921 0.1676 0.5069
C21_22 C 0.23577(19) 0.16831(16) 0.52702(14)
N3_22 N 0.25642(11) 0.17490(10) 0.53076(10)
C22_22 C 0.26614(13) 0.16133(14) 0.54525(12)
H11_22 H 0.2806 0.1642 0.5480
N4_22 N 0.25801(11) 0.14492(12) 0.55581(10)
C23_22 C 0.23535(18) 0.13950(17) 0.55217(16)
N5_22 N 0.22636(9) 0.12329(10) 0.56354(9)
H12_22 H 0.2132 0.1196 0.5612
H13_22 H 0.2338 0.1166 0.5732
Zn1_22 Zn 0.279086(13) 0.124153(16) 0.570178(13)
O8_22 O 0.44168(7) 0.18109(8) 0.61535(9)
C24_22 C 0.43801(16) 0.16599(14) 0.60262(15)
O9_22 O 0.45277(9) 0.15536(10) 0.59490(12)
C25_22 C 0.41474(13) 0.16049(13) 0.59708(14)
C26_22 C 0.39831(15) 0.17117(13) 0.60666(13)
H14_22 H 0.4008 0.1824 0.6163
C27_22 C 0.37675(17) 0.16439(11) 0.60137(12)
C28_22 C 0.38991(15) 0.13776(16) 0.57633(16)
H15_22 H 0.3877 0.1265 0.5668
C29_22 C 0.41008(14) 0.14447(15) 0.58193(15)
H16_22 H 0.4217 0.1379 0.5751
O10_22 O 0.48963(8) 0.15870(8) 0.63907(10)
C30_22 C 0.47938(17) 0.14650(16) 0.65085(16)
O11_22 O 0.45945(11) 0.14840(11) 0.65245(14)
C31_22 C 0.49106(18) 0.12882(13) 0.66421(12)
C32_22 C 0.51174(17) 0.12761(15) 0.66655(17)
H17_22 H 0.5209 0.1380 0.6608
C33_22 C 0.51997(18) 0.10910(19) 0.6786(2)
C34_22 C 0.53985(19) 0.1082(2) 0.6844(2)
H18_22 H 0.5494 0.1193 0.6811
C35_22 C 0.54643(17) 0.0905(2) 0.6956(2)
H19_22 H 0.5611 0.0888 0.6980
C36_22 C 0.5330(2) 0.07528(18) 0.7033(2)
C37_22 C 0.5127(2) 0.0786(2) 0.7026(2)
H20_22 H 0.5029 0.0699 0.7100
C38_22 C 0.5062(2) 0.0960(2) 0.6902(3)
C39_22 C 0.4856(2) 0.0960(2) 0.6855(3)
H21_22 H 0.4767 0.0847 0.6898
C40_22 C 0.47740(17) 0.11325(18) 0.6741(2)
H22_22 H 0.4625 0.1147 0.6728
O12_22 O 0.53475(14) 0.04363(13) 0.72433(16)
C41_22 C 0.5451(2) 0.0579(2) 0.7170(2)
O13_22 O 0.56490(13) 0.05958(11) 0.71964(14)
C42_22 C 0.52500(17) 0.21244(15) 0.60001(16)
N6_22 N 0.54621(10) 0.22030(10) 0.60155(11)
C43_22 C 0.54585(14) 0.23469(12) 0.58520(15)
H23_22 H 0.5579 0.2431 0.5824
C44_22 C 0.51423(19) 0.22298(14) 0.58169(16)
N8_22 N 0.49358(11) 0.21924(10) 0.57510(10)
C45_22 C 0.48386(13) 0.20475(12) 0.58867(14)
H24_22 H 0.4694 0.2020 0.5858
N9_22 N 0.49199(11) 0.19419(10) 0.60508(12)
C46_22 C 0.51465(18) 0.19783(16) 0.61050(17)
N10_22 N 0.52364(9) 0.18646(9) 0.62671(10)
H25_22 H 0.5368 0.1888 0.6304
H26_22 H 0.5162 0.1768 0.6334
Zn3_22 Zn 0.470914(13) 0.179822(13) 0.625847(16)
O14_22 O 0.45637(13) 0.22433(16) 0.53475(14)
O15_22 O 0.29363(13) 0.21525(14) 0.52567(16)
N11_22 N 0.27970(10) 0.10155(11) 0.54621(10)
N12_22 N 0.47030(10) 0.20379(10) 0.64845(11)
Zn5_22 Zn 0.570178(13) 0.220914(13) 0.624153(16)
Zn6_22 Zn 0.179822(13) 0.125847(16) 0.529086(13)
Zn9_22 Zn 0.552925(16) 0.022565(15) 0.738472(16)
Zn10_22 Zn 0.197075(16) 0.011528(16) 0.727435(15)
O1_23 O 0.19168(7) 0.86535(9) 0.06891(8)
C1_23 C 0.18801(16) 0.85262(15) 0.08401(14)
O2_23 O 0.20277(9) 0.84490(12) 0.09464(10)
C2_23 C 0.16474(13) 0.84708(14) 0.08951(13)
C3_23 C 0.14831(15) 0.85666(13) 0.07883(13)
H1_23 H 0.1508 0.8663 0.0676
C4_23 C 0.12675(17) 0.85137(12) 0.08561(11)
C5_23 C 0.13991(15) 0.82633(16) 0.11224(16)
H2_23 H 0.1377 0.8168 0.1235
C6_23 C 0.16008(14) 0.83193(15) 0.10553(15)
H3_23 H 0.1717 0.8251 0.1121
O3_23 O 0.23963(8) 0.88907(10) 0.09130(8)
C7_23 C 0.22938(17) 0.90085(16) 0.10350(16)
O4_23 O 0.20945(11) 0.90245(14) 0.10160(11)
C8_23 C 0.24106(18) 0.91421(12) 0.12118(13)
C9_23 C 0.26174(17) 0.91655(17) 0.12239(15)
H4_23 H 0.2709 0.9108 0.1120
C10_23 C 0.26997(18) 0.9286(2) 0.14090(19)
C11_23 C 0.28985(19) 0.9344(2) 0.1418(2)
H5_23 H 0.2994 0.9311 0.1307
C12_23 C 0.29643(17) 0.9456(2) 0.1595(2)
H6_23 H 0.3111 0.9480 0.1612
C13_23 C 0.2830(2) 0.9533(2) 0.17472(18)
C14_23 C 0.2627(2) 0.9526(2) 0.1714(2)
H7_23 H 0.2529 0.9600 0.1801
C15_23 C 0.2562(2) 0.9402(3) 0.1540(2)
C16_23 C 0.2356(2) 0.9355(3) 0.1540(2)
H8_23 H 0.2267 0.9398 0.1653
C17_23 C 0.22740(17) 0.9241(2) 0.13675(18)
H9_23 H 0.2125 0.9228 0.1353
O5_23 O 0.28475(14) 0.97433(16) 0.20637(13)
C18_23 C 0.2951(2) 0.9670(2) 0.1921(2)
O6_23 O 0.31490(13) 0.96964(14) 0.19042(11)
C19_23 C 0.27500(17) 0.85001(16) 0.03756(15)
N1_23 N 0.29621(10) 0.85155(11) 0.02970(10)
C20_23 C 0.29585(14) 0.83520(15) 0.01531(12)
H10_23 H 0.3079 0.8324 0.0069
C21_23 C 0.26423(19) 0.83169(16) 0.02702(14)
N3_23 N 0.24358(11) 0.82510(10) 0.03076(10)
C22_23 C 0.23386(13) 0.83867(14) 0.04525(12)
H11_23 H 0.2194 0.8358 0.0480
N4_23 N 0.24199(11) 0.85508(12) 0.05581(10)
C23_23 C 0.26465(18) 0.86050(17) 0.05217(16)
N5_23 N 0.27364(9) 0.87671(10) 0.06354(9)
H12_23 H 0.2868 0.8804 0.0612
H13_23 H 0.2662 0.8834 0.0732
Zn1_23 Zn 0.220914(13) 0.875847(16) 0.070178(13)
O8_23 O 0.05832(7) 0.81891(8) 0.11535(9)
C24_23 C 0.06199(16) 0.83401(14) 0.10262(15)
O9_23 O 0.04723(9) 0.84464(10) 0.09490(12)
C25_23 C 0.08526(13) 0.83951(13) 0.09708(14)
C26_23 C 0.10169(15) 0.82883(13) 0.10666(13)
H14_23 H 0.0992 0.8176 0.1163
C27_23 C 0.12325(17) 0.83561(11) 0.10137(12)
C28_23 C 0.11009(15) 0.86224(16) 0.07633(16)
H15_23 H 0.1123 0.8735 0.0668
C29_23 C 0.08992(14) 0.85553(15) 0.08193(15)
H16_23 H 0.0783 0.8621 0.0751
O10_23 O 0.01037(8) 0.84130(8) 0.13907(10)
C30_23 C 0.02062(17) 0.85350(16) 0.15085(16)
O11_23 O 0.04055(11) 0.85160(11) 0.15245(14)
C31_23 C 0.00894(18) 0.87118(13) 0.16421(12)
C39_23 C 0.0144(2) 0.9040(2) 0.1855(3)
H21_23 H 0.0233 0.9153 0.1898
C40_23 C 0.02260(17) 0.88675(18) 0.1741(2)
H22_23 H 0.0375 0.8853 0.1728
N8_23 N 0.00642(11) 0.78076(10) 0.07510(10)
C45_23 C 0.01614(13) 0.79525(12) 0.08867(14)
H24_23 H 0.0306 0.7980 0.0858
N9_23 N 0.00801(11) 0.80581(10) 0.10508(12)
Zn3_23 Zn 0.029086(13) 0.820178(13) 0.125847(16)
O14_23 O 0.04363(13) 0.77567(16) 0.03475(14)
O15_23 O 0.20637(13) 0.78475(14) 0.02567(16)
N11_23 N 0.22030(10) 0.89845(11) 0.04621(10)
N12_23 N 0.02970(10) 0.79621(10) 0.14845(11)
Zn6_23 Zn 0.320178(13) 0.874153(16) 0.029086(13)
Zn10_23 Zn 0.302925(16) 0.988472(16) 0.227435(15)
C32_23 C 0.98826(17) 0.87239(15) 0.16655(17)
H17_23 H 0.9791 0.8620 0.1608
C33_23 C 0.98003(18) 0.89090(19) 0.1786(2)
C34_23 C 0.96015(19) 0.8918(2) 0.1844(2)
H18_23 H 0.9506 0.8807 0.1811
C35_23 C 0.95357(17) 0.9095(2) 0.1956(2)
H19_23 H 0.9389 0.9112 0.1980
C36_23 C 0.9670(2) 0.92472(18) 0.2033(2)
C37_23 C 0.9873(2) 0.9214(2) 0.2026(2)
H20_23 H 0.9971 0.9301 0.2100
C38_23 C 0.9938(2) 0.9040(2) 0.1902(3)
O12_23 O 0.96525(14) 0.95637(13) 0.22433(16)
C41_23 C 0.9549(2) 0.9421(2) 0.2170(2)
O13_23 O 0.93510(13) 0.94042(11) 0.21964(14)
C42_23 C 0.97500(17) 0.78756(15) 0.10001(16)
N6_23 N 0.95379(10) 0.77970(10) 0.10155(11)
C43_23 C 0.95415(14) 0.76531(12) 0.08520(15)
H23_23 H 0.9421 0.7569 0.0824
C44_23 C 0.98577(19) 0.77702(14) 0.08169(16)
C46_23 C 0.98535(18) 0.80217(16) 0.11050(17)
N10_23 N 0.97636(9) 0.81354(9) 0.12671(10)
H25_23 H 0.9632 0.8112 0.1304
H26_23 H 0.9838 0.8232 0.1334
Zn5_23 Zn 0.929822(13) 0.779086(13) 0.124153(16)
Zn9_23 Zn 0.947075(16) 0.977435(15) 0.238472(16)
C32_24 C 0.01174(17) 0.37239(15) 0.33345(17)
H17_24 H 0.0209 0.3620 0.3392
C33_24 C 0.01997(18) 0.39090(19) 0.3214(2)
C34_24 C 0.03985(19) 0.3918(2) 0.3156(2)
H18_24 H 0.0494 0.3807 0.3189
C35_24 C 0.04643(17) 0.4095(2) 0.3044(2)
H19_24 H 0.0611 0.4112 0.3020
C36_24 C 0.0330(2) 0.42472(18) 0.2967(2)
C37_24 C 0.0127(2) 0.4214(2) 0.2974(2)
H20_24 H 0.0029 0.4301 0.2900
C38_24 C 0.0062(2) 0.4040(2) 0.3098(3)
O12_24 O 0.03475(14) 0.45637(13) 0.27567(16)
C41_24 C 0.0451(2) 0.4421(2) 0.2830(2)
O13_24 O 0.06490(13) 0.44042(11) 0.28036(14)
C42_24 C 0.02500(17) 0.28756(15) 0.39999(16)
N6_24 N 0.04621(10) 0.27970(10) 0.39845(11)
C43_24 C 0.04585(14) 0.26531(12) 0.41480(15)
H23_24 H 0.0579 0.2569 0.4176
C44_24 C 0.01423(19) 0.27702(14) 0.41831(16)
C46_24 C 0.01465(18) 0.30217(16) 0.38950(17)
N10_24 N 0.02364(9) 0.31354(9) 0.37329(10)
H25_24 H 0.0368 0.3112 0.3696
H26_24 H 0.0162 0.3232 0.3666
Zn5_24 Zn 0.070178(13) 0.279086(13) 0.375847(16)
Zn9_24 Zn 0.052925(16) 0.477435(15) 0.261528(16)
O1_24 O 0.80832(7) 0.36535(9) 0.43109(8)
C1_24 C 0.81199(16) 0.35262(15) 0.41599(14)
O2_24 O 0.79723(9) 0.34490(12) 0.40536(10)
C2_24 C 0.83526(13) 0.34708(14) 0.41049(13)
C3_24 C 0.85169(15) 0.35666(13) 0.42117(13)
H1_24 H 0.8492 0.3663 0.4324
C4_24 C 0.87325(17) 0.35137(12) 0.41439(11)
C5_24 C 0.86009(15) 0.32633(16) 0.38776(16)
H2_24 H 0.8623 0.3168 0.3765
C6_24 C 0.83992(14) 0.33193(15) 0.39447(15)
H3_24 H 0.8283 0.3251 0.3879
O3_24 O 0.76037(8) 0.38907(10) 0.40870(8)
C7_24 C 0.77062(17) 0.40085(16) 0.39650(16)
O4_24 O 0.79055(11) 0.40245(14) 0.39840(11)
C8_24 C 0.75894(18) 0.41421(12) 0.37882(13)
C9_24 C 0.73826(17) 0.41655(17) 0.37761(15)
H4_24 H 0.7291 0.4108 0.3880
C10_24 C 0.73003(18) 0.4286(2) 0.35910(19)
C11_24 C 0.71015(19) 0.4344(2) 0.3582(2)
H5_24 H 0.7006 0.4311 0.3693
C12_24 C 0.70357(17) 0.4456(2) 0.3405(2)
H6_24 H 0.6889 0.4480 0.3388
C13_24 C 0.7170(2) 0.4533(2) 0.32528(18)
C14_24 C 0.7373(2) 0.4526(2) 0.3286(2)
H7_24 H 0.7471 0.4600 0.3199
C15_24 C 0.7438(2) 0.4402(3) 0.3460(2)
C16_24 C 0.7644(2) 0.4355(3) 0.3460(2)
H8_24 H 0.7733 0.4398 0.3347
C17_24 C 0.77260(17) 0.4241(2) 0.36325(18)
H9_24 H 0.7875 0.4228 0.3647
O5_24 O 0.71525(14) 0.47433(16) 0.29363(13)
C18_24 C 0.7049(2) 0.4670(2) 0.3079(2)
O6_24 O 0.68510(13) 0.46964(14) 0.30958(11)
C19_24 C 0.72500(17) 0.35001(16) 0.46244(15)
N1_24 N 0.70379(10) 0.35155(11) 0.47030(10)
C20_24 C 0.70415(14) 0.33520(15) 0.48469(12)
H10_24 H 0.6921 0.3324 0.4931
C21_24 C 0.73577(19) 0.33169(16) 0.47298(14)
N3_24 N 0.75642(11) 0.32510(10) 0.46924(10)
C22_24 C 0.76614(13) 0.33867(14) 0.45475(12)
H11_24 H 0.7806 0.3358 0.4520
N4_24 N 0.75801(11) 0.35508(12) 0.44419(10)
C23_24 C 0.73535(18) 0.36050(17) 0.44783(16)
N5_24 N 0.72636(9) 0.37671(10) 0.43646(9)
H12_24 H 0.7132 0.3804 0.4388
H13_24 H 0.7338 0.3834 0.4268
Zn1_24 Zn 0.779086(13) 0.375847(16) 0.429822(13)
O8_24 O 0.94168(7) 0.31891(8) 0.38465(9)
C24_24 C 0.93801(16) 0.33401(14) 0.39738(15)
O9_24 O 0.95277(9) 0.34464(10) 0.40510(12)
C25_24 C 0.91474(13) 0.33951(13) 0.40292(14)
C26_24 C 0.89831(15) 0.32883(13) 0.39334(13)
H14_24 H 0.9008 0.3176 0.3837
C27_24 C 0.87675(17) 0.33561(11) 0.39863(12)
C28_24 C 0.88991(15) 0.36224(16) 0.42367(16)
H15_24 H 0.8877 0.3735 0.4332
C29_24 C 0.91008(14) 0.35553(15) 0.41807(15)
H16_24 H 0.9217 0.3621 0.4249
O10_24 O 0.98963(8) 0.34130(8) 0.36093(10)
C30_24 C 0.97938(17) 0.35350(16) 0.34915(16)
O11_24 O 0.95945(11) 0.35160(11) 0.34755(14)
C31_24 C 0.99106(18) 0.37118(13) 0.33579(12)
C39_24 C 0.9856(2) 0.4040(2) 0.3145(3)
H21_24 H 0.9767 0.4153 0.3102
C40_24 C 0.97740(17) 0.38675(18) 0.3259(2)
H22_24 H 0.9625 0.3853 0.3272
N8_24 N 0.99358(11) 0.28076(10) 0.42490(10)
C45_24 C 0.98386(13) 0.29525(12) 0.41133(14)
H24_24 H 0.9694 0.2980 0.4142
N9_24 N 0.99199(11) 0.30581(10) 0.39492(12)
Zn3_24 Zn 0.970914(13) 0.320178(13) 0.374153(16)
O14_24 O 0.95637(13) 0.27567(16) 0.46525(14)
O15_24 O 0.79363(13) 0.28475(14) 0.47433(16)
N11_24 N 0.77970(10) 0.39845(11) 0.45379(10)
N12_24 N 0.97030(10) 0.29621(10) 0.35155(11)
Zn6_24 Zn 0.679822(13) 0.374153(16) 0.470914(13)
Zn10_24 Zn 0.697075(16) 0.488472(16) 0.272565(15)
C32_25 C 0.66655(17) 0.01174(17) 0.87239(15)
H17_25 H 0.6608 0.0209 0.8620
C33_25 C 0.6786(2) 0.01997(18) 0.89090(19)
C34_25 C 0.6844(2) 0.03985(19) 0.8918(2)
H18_25 H 0.6811 0.0494 0.8807
C35_25 C 0.6956(2) 0.04643(17) 0.9095(2)
H19_25 H 0.6980 0.0611 0.9112
C36_25 C 0.7033(2) 0.0330(2) 0.92472(18)
C37_25 C 0.7026(2) 0.0127(2) 0.9214(2)
H20_25 H 0.7100 0.0029 0.9301
C38_25 C 0.6902(3) 0.0062(2) 0.9040(2)
C41_25 C 0.7170(2) 0.0451(2) 0.9421(2)
O13_25 O 0.71964(14) 0.06490(13) 0.94042(11)
C42_25 C 0.60001(16) 0.02500(17) 0.78756(15)
C43_25 C 0.58520(15) 0.04585(14) 0.76531(12)
H23_25 H 0.5824 0.0579 0.7569
N7_13 N 0.57295(11) 0.02820(11) 0.76308(11)
C44_25 C 0.58169(16) 0.01423(19) 0.77702(14)
C46_25 C 0.61050(17) 0.01465(18) 0.80217(16)
N10_25 N 0.62671(10) 0.02364(9) 0.81354(9)
H25_25 H 0.6304 0.0368 0.8112
H26_25 H 0.6334 0.0162 0.8232
O16_19 O 0.53498(10) 0.0000 0.7500
O1_25 O 0.56891(8) 0.80832(7) 0.86535(9)
C1_25 C 0.58401(14) 0.81199(16) 0.85262(15)
O2_25 O 0.59464(10) 0.79723(9) 0.84490(12)
C2_25 C 0.58951(13) 0.83526(13) 0.84708(14)
C3_25 C 0.57883(13) 0.85169(15) 0.85666(13)
H1_25 H 0.5676 0.8492 0.8663
C4_25 C 0.58561(11) 0.87325(17) 0.85137(12)
C5_25 C 0.61224(16) 0.86009(15) 0.82633(16)
H2_25 H 0.6235 0.8623 0.8168
C6_25 C 0.60553(15) 0.83992(14) 0.83193(15)
H3_25 H 0.6121 0.8283 0.8251
O3_25 O 0.59130(8) 0.76037(8) 0.88907(10)
C7_25 C 0.60350(16) 0.77062(17) 0.90085(16)
O4_25 O 0.60160(11) 0.79055(11) 0.90245(14)
C8_25 C 0.62118(13) 0.75894(18) 0.91421(12)
C9_25 C 0.62239(15) 0.73826(17) 0.91655(17)
H4_25 H 0.6120 0.7291 0.9108
C10_25 C 0.64090(19) 0.73003(18) 0.9286(2)
C11_25 C 0.6418(2) 0.71015(19) 0.9344(2)
H5_25 H 0.6307 0.7006 0.9311
C12_25 C 0.6595(2) 0.70357(17) 0.9456(2)
H6_25 H 0.6612 0.6889 0.9480
C13_25 C 0.67472(18) 0.7170(2) 0.9533(2)
C14_25 C 0.6714(2) 0.7373(2) 0.9526(2)
H7_25 H 0.6801 0.7471 0.9600
C15_25 C 0.6540(2) 0.7438(2) 0.9402(3)
C16_25 C 0.6540(2) 0.7644(2) 0.9355(3)
H8_25 H 0.6653 0.7733 0.9398
C17_25 C 0.63675(18) 0.77260(17) 0.9241(2)
H9_25 H 0.6353 0.7875 0.9228
C18_25 C 0.6921(2) 0.7049(2) 0.9670(2)
O6_25 O 0.69042(11) 0.68510(13) 0.96964(14)
C19_25 C 0.53756(15) 0.72500(17) 0.85001(16)
C20_25 C 0.51531(12) 0.70415(14) 0.83520(15)
H10_25 H 0.5069 0.6921 0.8324
N2_13 N 0.51308(11) 0.72180(11) 0.82295(11)
C21_25 C 0.52702(14) 0.73577(19) 0.83169(16)
N3_25 N 0.53076(10) 0.75642(11) 0.82510(10)
C22_25 C 0.54525(12) 0.76614(13) 0.83867(14)
H11_25 H 0.5480 0.7806 0.8358
N4_25 N 0.55581(10) 0.75801(11) 0.85508(12)
C23_25 C 0.55217(16) 0.73535(18) 0.86050(17)
N5_25 N 0.56354(9) 0.72636(9) 0.87671(10)
H12_25 H 0.5612 0.7132 0.8804
H13_25 H 0.5732 0.7338 0.8834
O7_19 O 0.5000 0.7500 0.78498(10)
O8_25 O 0.61535(9) 0.94168(7) 0.81891(8)
C24_25 C 0.60262(15) 0.93801(16) 0.83401(14)
O9_25 O 0.59490(12) 0.95277(9) 0.84464(10)
C25_25 C 0.59708(14) 0.91474(13) 0.83951(13)
C26_25 C 0.60666(13) 0.89831(15) 0.82883(13)
H14_25 H 0.6163 0.9008 0.8176
C27_25 C 0.60137(12) 0.87675(17) 0.83561(11)
C28_25 C 0.57633(16) 0.88991(15) 0.86224(16)
H15_25 H 0.5668 0.8877 0.8735
C29_25 C 0.58193(15) 0.91008(14) 0.85553(15)
H16_25 H 0.5751 0.9217 0.8621
O10_25 O 0.63907(10) 0.98963(8) 0.84130(8)
C30_25 C 0.65085(16) 0.97938(17) 0.85350(16)
O11_25 O 0.65245(14) 0.95945(11) 0.85160(11)
C31_25 C 0.66421(12) 0.99106(18) 0.87118(13)
C39_25 C 0.6855(3) 0.9856(2) 0.9040(2)
H21_25 H 0.6898 0.9767 0.9153
C40_25 C 0.6741(2) 0.97740(17) 0.88675(18)
H22_25 H 0.6728 0.9625 0.8853
N8_25 N 0.57510(10) 0.99358(11) 0.78076(10)
C45_25 C 0.58867(14) 0.98386(13) 0.79525(12)
H24_25 H 0.5858 0.9694 0.7980
N9_25 N 0.60508(12) 0.99199(11) 0.80581(10)
N13_13 N 0.48692(11) 0.77820(11) 0.82295(11)
N14_13 N 0.57295(11) 0.97180(11) 0.73692(11)
O16_20 O 0.53498(10) 1.0000 0.7500
O7_20 O 0.0000 0.2500 0.28498(10)
N13_14 N 0.01308(11) 0.22180(11) 0.32295(11)
O1_26 O 0.93109(8) 0.19168(7) 0.36535(9)
C1_26 C 0.91599(14) 0.18801(16) 0.35262(15)
O2_26 O 0.90536(10) 0.20277(9) 0.34490(12)
C2_26 C 0.91049(13) 0.16474(13) 0.34708(14)
C3_26 C 0.92117(13) 0.14831(15) 0.35666(13)
H1_26 H 0.9324 0.1508 0.3663
C4_26 C 0.91439(11) 0.12675(17) 0.35137(12)
C5_26 C 0.88776(16) 0.13991(15) 0.32633(16)
H2_26 H 0.8765 0.1377 0.3168
C6_26 C 0.89447(15) 0.16008(14) 0.33193(15)
H3_26 H 0.8879 0.1717 0.3251
O3_26 O 0.90870(8) 0.23963(8) 0.38907(10)
C7_26 C 0.89650(16) 0.22938(17) 0.40085(16)
O4_26 O 0.89840(11) 0.20945(11) 0.40245(14)
C8_26 C 0.87882(13) 0.24106(18) 0.41421(12)
C9_26 C 0.87761(15) 0.26174(17) 0.41655(17)
H4_26 H 0.8880 0.2709 0.4108
C10_26 C 0.85910(19) 0.26997(18) 0.4286(2)
C11_26 C 0.8582(2) 0.28985(19) 0.4344(2)
H5_26 H 0.8693 0.2994 0.4311
C12_26 C 0.8405(2) 0.29643(17) 0.4456(2)
H6_26 H 0.8388 0.3111 0.4480
C13_26 C 0.82528(18) 0.2830(2) 0.4533(2)
C14_26 C 0.8286(2) 0.2627(2) 0.4526(2)
H7_26 H 0.8199 0.2529 0.4600
C15_26 C 0.8460(2) 0.2562(2) 0.4402(3)
C16_26 C 0.8460(2) 0.2356(2) 0.4355(3)
H8_26 H 0.8347 0.2267 0.4398
C17_26 C 0.86325(18) 0.22740(17) 0.4241(2)
H9_26 H 0.8647 0.2125 0.4228
C18_26 C 0.8079(2) 0.2951(2) 0.4670(2)
O6_26 O 0.80958(11) 0.31490(13) 0.46964(14)
C19_26 C 0.96244(15) 0.27500(17) 0.35001(16)
C20_26 C 0.98469(12) 0.29585(14) 0.33520(15)
H10_26 H 0.9931 0.3079 0.3324
N2_14 N 0.98692(11) 0.27820(11) 0.32295(11)
C21_26 C 0.97298(14) 0.26423(19) 0.33169(16)
N3_26 N 0.96924(10) 0.24358(11) 0.32510(10)
C22_26 C 0.95475(12) 0.23386(13) 0.33867(14)
H11_26 H 0.9520 0.2194 0.3358
N4_26 N 0.94419(10) 0.24199(11) 0.35508(12)
C23_26 C 0.94783(16) 0.26465(18) 0.36050(17)
N5_26 N 0.93646(9) 0.27364(9) 0.37671(10)
H12_26 H 0.9388 0.2868 0.3804
H13_26 H 0.9268 0.2662 0.3834
O7_21 O 1.0000 0.2500 0.28498(10)
O8_26 O 0.88465(9) 0.05832(7) 0.31891(8)
C24_26 C 0.89738(15) 0.06199(16) 0.33401(14)
O9_26 O 0.90510(12) 0.04723(9) 0.34464(10)
C25_26 C 0.90292(14) 0.08526(13) 0.33951(13)
C26_26 C 0.89334(13) 0.10169(15) 0.32883(13)
H14_26 H 0.8837 0.0992 0.3176
C27_26 C 0.89863(12) 0.12325(17) 0.33561(11)
C28_26 C 0.92367(16) 0.11009(15) 0.36224(16)
H15_26 H 0.9332 0.1123 0.3735
C29_26 C 0.91807(15) 0.08992(14) 0.35553(15)
H16_26 H 0.9249 0.0783 0.3621
O10_26 O 0.86093(10) 0.01037(8) 0.34130(8)
C30_26 C 0.84915(16) 0.02062(17) 0.35350(16)
O11_26 O 0.84755(14) 0.04055(11) 0.35160(11)
C31_26 C 0.83579(12) 0.00894(18) 0.37118(13)
C39_26 C 0.8145(3) 0.0144(2) 0.4040(2)
H21_26 H 0.8102 0.0233 0.4153
C40_26 C 0.8259(2) 0.02260(17) 0.38675(18)
H22_26 H 0.8272 0.0375 0.3853
N8_26 N 0.92490(10) 0.00642(11) 0.28076(10)
C45_26 C 0.91133(14) 0.01614(13) 0.29525(12)
H24_26 H 0.9142 0.0306 0.2980
N9_26 N 0.89492(12) 0.00801(11) 0.30581(10)
N14_14 N 0.92705(11) 0.02820(11) 0.23692(11)
O16_21 O 0.96502(10) 0.0000 0.2500
C32_26 C 0.83345(17) 0.98826(17) 0.37239(15)
H17_26 H 0.8392 0.9791 0.3620
C33_26 C 0.8214(2) 0.98003(18) 0.39090(19)
C34_26 C 0.8156(2) 0.96015(19) 0.3918(2)
H18_26 H 0.8189 0.9506 0.3807
C35_26 C 0.8044(2) 0.95357(17) 0.4095(2)
H19_26 H 0.8020 0.9389 0.4112
C36_26 C 0.7967(2) 0.9670(2) 0.42472(18)
C37_26 C 0.7974(2) 0.9873(2) 0.4214(2)
H20_26 H 0.7900 0.9971 0.4301
C38_26 C 0.8098(3) 0.9938(2) 0.4040(2)
C41_26 C 0.7830(2) 0.9549(2) 0.4421(2)
O13_26 O 0.78036(14) 0.93510(13) 0.44042(11)
C42_26 C 0.89999(16) 0.97500(17) 0.28756(15)
C43_26 C 0.91480(15) 0.95415(14) 0.26531(12)
H23_26 H 0.9176 0.9421 0.2569
N7_14 N 0.92705(11) 0.97180(11) 0.26308(11)
C44_26 C 0.91831(16) 0.98577(19) 0.27702(14)
C46_26 C 0.88950(17) 0.98535(18) 0.30217(16)
N10_26 N 0.87329(10) 0.97636(9) 0.31354(9)
H25_26 H 0.8696 0.9632 0.3112
H26_26 H 0.8666 0.9838 0.3232
O16_22 O 0.96502(10) 1.0000 0.2500
O1_27 O 0.43109(8) 0.30832(7) 0.63465(9)
C1_27 C 0.41599(14) 0.31199(16) 0.64738(15)
O2_27 O 0.40536(10) 0.29723(9) 0.65510(12)
C2_27 C 0.41049(13) 0.33526(13) 0.65292(14)
C3_27 C 0.42117(13) 0.35169(15) 0.64334(13)
H1_27 H 0.4324 0.3492 0.6337
C4_27 C 0.41439(11) 0.37325(17) 0.64863(12)
C5_27 C 0.38776(16) 0.36009(15) 0.67367(16)
H2_27 H 0.3765 0.3623 0.6832
C6_27 C 0.39447(15) 0.33992(14) 0.66807(15)
H3_27 H 0.3879 0.3283 0.6749
O3_27 O 0.40870(8) 0.26037(8) 0.61093(10)
C7_27 C 0.39650(16) 0.27062(17) 0.59915(16)
O4_27 O 0.39840(11) 0.29055(11) 0.59755(14)
C8_27 C 0.37882(13) 0.25894(18) 0.58579(12)
C9_27 C 0.37761(15) 0.23826(17) 0.58345(17)
H4_27 H 0.3880 0.2291 0.5892
C10_27 C 0.35910(19) 0.23003(18) 0.5714(2)
C11_27 C 0.3582(2) 0.21015(19) 0.5656(2)
H5_27 H 0.3693 0.2006 0.5689
C12_27 C 0.3405(2) 0.20357(17) 0.5544(2)
H6_27 H 0.3388 0.1889 0.5520
C13_27 C 0.32528(18) 0.2170(2) 0.5467(2)
C14_27 C 0.3286(2) 0.2373(2) 0.5474(2)
H7_27 H 0.3199 0.2471 0.5400
C15_27 C 0.3460(2) 0.2438(2) 0.5598(3)
C16_27 C 0.3460(2) 0.2644(2) 0.5645(3)
H8_27 H 0.3347 0.2733 0.5602
C17_27 C 0.36325(18) 0.27260(17) 0.5759(2)
H9_27 H 0.3647 0.2875 0.5772
C18_27 C 0.3079(2) 0.2049(2) 0.5330(2)
O6_27 O 0.30958(11) 0.18510(13) 0.53036(14)
C19_27 C 0.46244(15) 0.22500(17) 0.64999(16)
C20_27 C 0.48469(12) 0.20415(14) 0.66480(15)
H10_27 H 0.4931 0.1921 0.6676
N2_15 N 0.48692(11) 0.22180(11) 0.67705(11)
C21_27 C 0.47298(14) 0.23577(19) 0.66831(16)
N3_27 N 0.46924(10) 0.25642(11) 0.67490(10)
C22_27 C 0.45475(12) 0.26614(13) 0.66133(14)
H11_27 H 0.4520 0.2806 0.6642
N4_27 N 0.44419(10) 0.25801(11) 0.64492(12)
C23_27 C 0.44783(16) 0.23535(18) 0.63950(17)
N5_27 N 0.43646(9) 0.22636(9) 0.62329(10)
H12_27 H 0.4388 0.2132 0.6196
H13_27 H 0.4268 0.2338 0.6166
O7_22 O 0.5000 0.2500 0.71502(10)
O8_27 O 0.38465(9) 0.44168(7) 0.68109(8)
C24_27 C 0.39738(15) 0.43801(16) 0.66599(14)
O9_27 O 0.40510(12) 0.45277(9) 0.65536(10)
C25_27 C 0.40292(14) 0.41474(13) 0.66049(13)
C26_27 C 0.39334(13) 0.39831(15) 0.67117(13)
H14_27 H 0.3837 0.4008 0.6824
C27_27 C 0.39863(12) 0.37675(17) 0.66439(11)
C28_27 C 0.42367(16) 0.38991(15) 0.63776(16)
H15_27 H 0.4332 0.3877 0.6265
C29_27 C 0.41807(15) 0.41008(14) 0.64447(15)
H16_27 H 0.4249 0.4217 0.6379
O10_27 O 0.36093(10) 0.48963(8) 0.65870(8)
C30_27 C 0.34915(16) 0.47938(17) 0.64650(16)
O11_27 O 0.34755(14) 0.45945(11) 0.64840(11)
C31_27 C 0.33579(12) 0.49106(18) 0.62882(13)
C32_27 C 0.33345(17) 0.51174(17) 0.62761(15)
H17_27 H 0.3392 0.5209 0.6380
C33_27 C 0.3214(2) 0.51997(18) 0.60910(19)
C34_27 C 0.3156(2) 0.53985(19) 0.6082(2)
H18_27 H 0.3189 0.5494 0.6193
C35_27 C 0.3044(2) 0.54643(17) 0.5905(2)
H19_27 H 0.3020 0.5611 0.5888
C36_27 C 0.2967(2) 0.5330(2) 0.57528(18)
C37_27 C 0.2974(2) 0.5127(2) 0.5786(2)
H20_27 H 0.2900 0.5029 0.5699
C38_27 C 0.3098(3) 0.5062(2) 0.5960(2)
C39_27 C 0.3145(3) 0.4856(2) 0.5960(2)
H21_27 H 0.3102 0.4767 0.5847
C40_27 C 0.3259(2) 0.47740(17) 0.61325(18)
H22_27 H 0.3272 0.4625 0.6147
C41_27 C 0.2830(2) 0.5451(2) 0.5579(2)
O13_27 O 0.28036(14) 0.56490(13) 0.55958(11)
C42_27 C 0.39999(16) 0.52500(17) 0.71244(15)
C43_27 C 0.41480(15) 0.54585(14) 0.73469(12)
H23_27 H 0.4176 0.5579 0.7431
N7_15 N 0.42705(11) 0.52820(11) 0.73692(11)
C44_27 C 0.41831(16) 0.51423(19) 0.72298(14)
N8_27 N 0.42490(10) 0.49358(11) 0.71924(10)
C45_27 C 0.41133(14) 0.48386(13) 0.70475(12)
H24_27 H 0.4142 0.4694 0.7020
N9_27 N 0.39492(12) 0.49199(11) 0.69419(10)
C46_27 C 0.38950(17) 0.51465(18) 0.69783(16)
N10_27 N 0.37329(10) 0.52364(9) 0.68646(9)
H25_27 H 0.3696 0.5368 0.6888
H26_27 H 0.3666 0.5162 0.6768
N13_15 N 0.51308(11) 0.27820(11) 0.67705(11)
N14_15 N 0.42705(11) 0.47180(11) 0.76308(11)
O16_23 O 0.46502(10) 0.5000 0.7500
O1_28 O 0.06891(8) 0.69168(7) 0.13465(9)
C1_28 C 0.08401(14) 0.68801(16) 0.14738(15)
O2_28 O 0.09464(10) 0.70277(9) 0.15510(12)
C2_28 C 0.08951(13) 0.66474(13) 0.15292(14)
C3_28 C 0.07883(13) 0.64831(15) 0.14334(13)
H1_28 H 0.0676 0.6508 0.1337
C4_28 C 0.08561(11) 0.62675(17) 0.14863(12)
C5_28 C 0.11224(16) 0.63991(15) 0.17367(16)
H2_28 H 0.1235 0.6377 0.1832
C6_28 C 0.10553(15) 0.66008(14) 0.16807(15)
H3_28 H 0.1121 0.6717 0.1749
O3_28 O 0.09130(8) 0.73963(8) 0.11093(10)
C7_28 C 0.10350(16) 0.72938(17) 0.09915(16)
O4_28 O 0.10160(11) 0.70945(11) 0.09755(14)
C8_28 C 0.12118(13) 0.74106(18) 0.08579(12)
C9_28 C 0.12239(15) 0.76174(17) 0.08345(17)
H4_28 H 0.1120 0.7709 0.0892
C10_28 C 0.14090(19) 0.76997(18) 0.0714(2)
C11_28 C 0.1418(2) 0.78985(19) 0.0656(2)
H5_28 H 0.1307 0.7994 0.0689
C12_28 C 0.1595(2) 0.79643(17) 0.0544(2)
H6_28 H 0.1612 0.8111 0.0520
C13_28 C 0.17472(18) 0.7830(2) 0.0467(2)
C14_28 C 0.1714(2) 0.7627(2) 0.0474(2)
H7_28 H 0.1801 0.7529 0.0400
C15_28 C 0.1540(2) 0.7562(2) 0.0598(3)
C16_28 C 0.1540(2) 0.7356(2) 0.0645(3)
H8_28 H 0.1653 0.7267 0.0602
C17_28 C 0.13675(18) 0.72740(17) 0.0759(2)
H9_28 H 0.1353 0.7125 0.0772
C18_28 C 0.1921(2) 0.7951(2) 0.0330(2)
O6_28 O 0.19042(11) 0.81490(13) 0.03036(14)
C19_28 C 0.03756(15) 0.77500(17) 0.14999(16)
C20_28 C 0.01531(12) 0.79585(14) 0.16480(15)
H10_28 H 0.0069 0.8079 0.1676
N2_16 N 0.01308(11) 0.77820(11) 0.17705(11)
C21_28 C 0.02702(14) 0.76423(19) 0.16831(16)
N3_28 N 0.03076(10) 0.74358(11) 0.17490(10)
C22_28 C 0.04525(12) 0.73386(13) 0.16133(14)
H11_28 H 0.0480 0.7194 0.1642
N4_28 N 0.05581(10) 0.74199(11) 0.14492(12)
C23_28 C 0.05217(16) 0.76465(18) 0.13950(17)
N5_28 N 0.06354(9) 0.77364(9) 0.12329(10)
H12_28 H 0.0612 0.7868 0.1196
H13_28 H 0.0732 0.7662 0.1166
O7_23 O 0.0000 0.7500 0.21502(10)
O8_28 O 0.11535(9) 0.55832(7) 0.18109(8)
C24_28 C 0.10262(15) 0.56199(16) 0.16599(14)
O9_28 O 0.09490(12) 0.54723(9) 0.15536(10)
C25_28 C 0.09708(14) 0.58526(13) 0.16049(13)
C26_28 C 0.10666(13) 0.60169(15) 0.17117(13)
H14_28 H 0.1163 0.5992 0.1824
C27_28 C 0.10137(12) 0.62325(17) 0.16439(11)
C28_28 C 0.07633(16) 0.61009(15) 0.13776(16)
H15_28 H 0.0668 0.6123 0.1265
C29_28 C 0.08193(15) 0.58992(14) 0.14447(15)
H16_28 H 0.0751 0.5783 0.1379
O10_28 O 0.13907(10) 0.51037(8) 0.15870(8)
C30_28 C 0.15085(16) 0.52062(17) 0.14650(16)
O11_28 O 0.15245(14) 0.54055(11) 0.14840(11)
C31_28 C 0.16421(12) 0.50894(18) 0.12882(13)
C32_28 C 0.16655(17) 0.48826(17) 0.12761(15)
H17_28 H 0.1608 0.4791 0.1380
C33_28 C 0.1786(2) 0.48003(18) 0.10910(19)
C34_28 C 0.1844(2) 0.46015(19) 0.1082(2)
H18_28 H 0.1811 0.4506 0.1193
C35_28 C 0.1956(2) 0.45357(17) 0.0905(2)
H19_28 H 0.1980 0.4389 0.0888
C36_28 C 0.2033(2) 0.4670(2) 0.07528(18)
C37_28 C 0.2026(2) 0.4873(2) 0.0786(2)
H20_28 H 0.2100 0.4971 0.0699
C38_28 C 0.1902(3) 0.4938(2) 0.0960(2)
C39_28 C 0.1855(3) 0.5144(2) 0.0960(2)
H21_28 H 0.1898 0.5233 0.0847
C40_28 C 0.1741(2) 0.52260(17) 0.11325(18)
H22_28 H 0.1728 0.5375 0.1147
C41_28 C 0.2170(2) 0.4549(2) 0.0579(2)
O13_28 O 0.21964(14) 0.43510(13) 0.05958(11)
C42_28 C 0.10001(16) 0.47500(17) 0.21244(15)
C43_28 C 0.08520(15) 0.45415(14) 0.23469(12)
H23_28 H 0.0824 0.4421 0.2431
N7_16 N 0.07295(11) 0.47180(11) 0.23692(11)
C44_28 C 0.08169(16) 0.48577(19) 0.22298(14)
N8_28 N 0.07510(10) 0.50642(11) 0.21924(10)
C45_28 C 0.08867(14) 0.51614(13) 0.20475(12)
H24_28 H 0.0858 0.5306 0.2020
N9_28 N 0.10508(12) 0.50801(11) 0.19419(10)
C46_28 C 0.11050(17) 0.48535(18) 0.19783(16)
N10_28 N 0.12671(10) 0.47636(9) 0.18646(9)
H25_28 H 0.1304 0.4632 0.1888
H26_28 H 0.1334 0.4838 0.1768
N14_16 N 0.07295(11) 0.52820(11) 0.26308(11)
O16_24 O 0.03498(10) 0.5000 0.2500
O7_24 O 1.0000 0.7500 0.21502(10)
N13_16 N 0.98692(11) 0.72180(11) 0.17705(11)
C32_29 C 0.87239(15) 0.66655(17) 0.01174(17)
H17_29 H 0.8620 0.6608 0.0209
C33_29 C 0.89090(19) 0.6786(2) 0.01997(18)
C34_29 C 0.8918(2) 0.6844(2) 0.03985(19)
H18_29 H 0.8807 0.6811 0.0494
C35_29 C 0.9095(2) 0.6956(2) 0.04643(17)
H19_29 H 0.9112 0.6980 0.0611
C36_29 C 0.92472(18) 0.7033(2) 0.0330(2)
C37_29 C 0.9214(2) 0.7026(2) 0.0127(2)
H20_29 H 0.9301 0.7100 0.0029
C38_29 C 0.9040(2) 0.6902(3) 0.0062(2)
C41_29 C 0.9421(2) 0.7170(2) 0.0451(2)
O13_29 O 0.94042(11) 0.71964(14) 0.06490(13)
C42_29 C 0.78756(15) 0.60001(16) 0.02500(17)
C43_29 C 0.76531(12) 0.58520(15) 0.04585(14)
H23_29 H 0.7569 0.5824 0.0579
N7_17 N 0.76308(11) 0.57295(11) 0.02820(11)
C44_29 C 0.77702(14) 0.58169(16) 0.01423(19)
C46_29 C 0.80217(16) 0.61050(17) 0.01465(18)
N10_29 N 0.81354(9) 0.62671(10) 0.02364(9)
H25_29 H 0.8112 0.6304 0.0368
H26_29 H 0.8232 0.6334 0.0162
O16_25 O 0.7500 0.53498(10) 0.0000
O1_29 O 0.86535(9) 0.56891(8) 0.80832(7)
C1_29 C 0.85262(15) 0.58401(14) 0.81199(16)
O2_29 O 0.84490(12) 0.59464(10) 0.79723(9)
C2_29 C 0.84708(14) 0.58951(13) 0.83526(13)
C3_29 C 0.85666(13) 0.57883(13) 0.85169(15)
H1_29 H 0.8663 0.5676 0.8492
C4_29 C 0.85137(12) 0.58561(11) 0.87325(17)
C5_29 C 0.82633(16) 0.61224(16) 0.86009(15)
H2_29 H 0.8168 0.6235 0.8623
C6_29 C 0.83193(15) 0.60553(15) 0.83992(14)
H3_29 H 0.8251 0.6121 0.8283
O3_29 O 0.88907(10) 0.59130(8) 0.76037(8)
C7_29 C 0.90085(16) 0.60350(16) 0.77062(17)
O4_29 O 0.90245(14) 0.60160(11) 0.79055(11)
C8_29 C 0.91421(12) 0.62118(13) 0.75894(18)
C9_29 C 0.91655(17) 0.62239(15) 0.73826(17)
H4_29 H 0.9108 0.6120 0.7291
C10_29 C 0.9286(2) 0.64090(19) 0.73003(18)
C11_29 C 0.9344(2) 0.6418(2) 0.71015(19)
H5_29 H 0.9311 0.6307 0.7006
C12_29 C 0.9456(2) 0.6595(2) 0.70357(17)
H6_29 H 0.9480 0.6612 0.6889
C13_29 C 0.9533(2) 0.67472(18) 0.7170(2)
C14_29 C 0.9526(2) 0.6714(2) 0.7373(2)
H7_29 H 0.9600 0.6801 0.7471
C15_29 C 0.9402(3) 0.6540(2) 0.7438(2)
C16_29 C 0.9355(3) 0.6540(2) 0.7644(2)
H8_29 H 0.9398 0.6653 0.7733
C17_29 C 0.9241(2) 0.63675(18) 0.77260(17)
H9_29 H 0.9228 0.6353 0.7875
C18_29 C 0.9670(2) 0.6921(2) 0.7049(2)
O6_29 O 0.96964(14) 0.69042(11) 0.68510(13)
C19_29 C 0.85001(16) 0.53756(15) 0.72500(17)
C20_29 C 0.83520(15) 0.51531(12) 0.70415(14)
H10_29 H 0.8324 0.5069 0.6921
N2_17 N 0.82295(11) 0.51308(11) 0.72180(11)
C21_29 C 0.83169(16) 0.52702(14) 0.73577(19)
N3_29 N 0.82510(10) 0.53076(10) 0.75642(11)
C22_29 C 0.83867(14) 0.54525(12) 0.76614(13)
H11_29 H 0.8358 0.5480 0.7806
N4_29 N 0.85508(12) 0.55581(10) 0.75801(11)
C23_29 C 0.86050(17) 0.55217(16) 0.73535(18)
N5_29 N 0.87671(10) 0.56354(9) 0.72636(9)
H12_29 H 0.8804 0.5612 0.7132
H13_29 H 0.8834 0.5732 0.7338
O7_25 O 0.78498(10) 0.5000 0.7500
O8_29 O 0.81891(8) 0.61535(9) 0.94168(7)
C24_29 C 0.83401(14) 0.60262(15) 0.93801(16)
O9_29 O 0.84464(10) 0.59490(12) 0.95277(9)
C25_29 C 0.83951(13) 0.59708(14) 0.91474(13)
C26_29 C 0.82883(13) 0.60666(13) 0.89831(15)
H14_29 H 0.8176 0.6163 0.9008
C27_29 C 0.83561(11) 0.60137(12) 0.87675(17)
C28_29 C 0.86224(16) 0.57633(16) 0.88991(15)
H15_29 H 0.8735 0.5668 0.8877
C29_29 C 0.85553(15) 0.58193(15) 0.91008(14)
H16_29 H 0.8621 0.5751 0.9217
O10_29 O 0.84130(8) 0.63907(10) 0.98963(8)
C30_29 C 0.85350(16) 0.65085(16) 0.97938(17)
O11_29 O 0.85160(11) 0.65245(14) 0.95945(11)
C31_29 C 0.87118(13) 0.66421(12) 0.99106(18)
C39_29 C 0.9040(2) 0.6855(3) 0.9856(2)
H21_29 H 0.9153 0.6898 0.9767
C40_29 C 0.88675(18) 0.6741(2) 0.97740(17)
H22_29 H 0.8853 0.6728 0.9625
N8_29 N 0.78076(10) 0.57510(10) 0.99358(11)
C45_29 C 0.79525(12) 0.58867(14) 0.98386(13)
H24_29 H 0.7980 0.5858 0.9694
N9_29 N 0.80581(10) 0.60508(12) 0.99199(11)
N13_17 N 0.82295(11) 0.48692(11) 0.77820(11)
N14_17 N 0.73692(11) 0.57295(11) 0.97180(11)
O16_26 O 0.7500 0.53498(10) 1.0000
O7_26 O 0.28498(10) 0.0000 0.2500
N13_18 N 0.32295(11) 0.01308(11) 0.22180(11)
O1_30 O 0.36535(9) 0.93109(8) 0.19168(7)
C1_30 C 0.35262(15) 0.91599(14) 0.18801(16)
O2_30 O 0.34490(12) 0.90536(10) 0.20277(9)
C2_30 C 0.34708(14) 0.91049(13) 0.16474(13)
C3_30 C 0.35666(13) 0.92117(13) 0.14831(15)
H1_30 H 0.3663 0.9324 0.1508
C4_30 C 0.35137(12) 0.91439(11) 0.12675(17)
C5_30 C 0.32633(16) 0.88776(16) 0.13991(15)
H2_30 H 0.3168 0.8765 0.1377
C6_30 C 0.33193(15) 0.89447(15) 0.16008(14)
H3_30 H 0.3251 0.8879 0.1717
O3_30 O 0.38907(10) 0.90870(8) 0.23963(8)
C7_30 C 0.40085(16) 0.89650(16) 0.22938(17)
O4_30 O 0.40245(14) 0.89840(11) 0.20945(11)
C8_30 C 0.41421(12) 0.87882(13) 0.24106(18)
C9_30 C 0.41655(17) 0.87761(15) 0.26174(17)
H4_30 H 0.4108 0.8880 0.2709
C10_30 C 0.4286(2) 0.85910(19) 0.26997(18)
C11_30 C 0.4344(2) 0.8582(2) 0.28985(19)
H5_30 H 0.4311 0.8693 0.2994
C12_30 C 0.4456(2) 0.8405(2) 0.29643(17)
H6_30 H 0.4480 0.8388 0.3111
C13_30 C 0.4533(2) 0.82528(18) 0.2830(2)
C14_30 C 0.4526(2) 0.8286(2) 0.2627(2)
H7_30 H 0.4600 0.8199 0.2529
C15_30 C 0.4402(3) 0.8460(2) 0.2562(2)
C16_30 C 0.4355(3) 0.8460(2) 0.2356(2)
H8_30 H 0.4398 0.8347 0.2267
C17_30 C 0.4241(2) 0.86325(18) 0.22740(17)
H9_30 H 0.4228 0.8647 0.2125
C18_30 C 0.4670(2) 0.8079(2) 0.2951(2)
O6_30 O 0.46964(14) 0.80958(11) 0.31490(13)
C19_30 C 0.35001(16) 0.96244(15) 0.27500(17)
C20_30 C 0.33520(15) 0.98469(12) 0.29585(14)
H10_30 H 0.3324 0.9931 0.3079
N2_18 N 0.32295(11) 0.98692(11) 0.27820(11)
C21_30 C 0.33169(16) 0.97298(14) 0.26423(19)
N3_30 N 0.32510(10) 0.96924(10) 0.24358(11)
C22_30 C 0.33867(14) 0.95475(12) 0.23386(13)
H11_30 H 0.3358 0.9520 0.2194
N4_30 N 0.35508(12) 0.94419(10) 0.24199(11)
C23_30 C 0.36050(17) 0.94783(16) 0.26465(18)
N5_30 N 0.37671(10) 0.93646(9) 0.27364(9)
H12_30 H 0.3804 0.9388 0.2868
H13_30 H 0.3834 0.9268 0.2662
O7_27 O 0.28498(10) 1.0000 0.2500
O8_30 O 0.31891(8) 0.88465(9) 0.05832(7)
C24_30 C 0.33401(14) 0.89738(15) 0.06199(16)
O9_30 O 0.34464(10) 0.90510(12) 0.04723(9)
C25_30 C 0.33951(13) 0.90292(14) 0.08526(13)
C26_30 C 0.32883(13) 0.89334(13) 0.10169(15)
H14_30 H 0.3176 0.8837 0.0992
C27_30 C 0.33561(11) 0.89863(12) 0.12325(17)
C28_30 C 0.36224(16) 0.92367(16) 0.11009(15)
H15_30 H 0.3735 0.9332 0.1123
C29_30 C 0.35553(15) 0.91807(15) 0.08992(14)
H16_30 H 0.3621 0.9249 0.0783
O10_30 O 0.34130(8) 0.86093(10) 0.01037(8)
C30_30 C 0.35350(16) 0.84915(16) 0.02062(17)
O11_30 O 0.35160(11) 0.84755(14) 0.04055(11)
C31_30 C 0.37118(13) 0.83579(12) 0.00894(18)
C39_30 C 0.4040(2) 0.8145(3) 0.0144(2)
H21_30 H 0.4153 0.8102 0.0233
C40_30 C 0.38675(18) 0.8259(2) 0.02260(17)
H22_30 H 0.3853 0.8272 0.0375
N8_30 N 0.28076(10) 0.92490(10) 0.00642(11)
C45_30 C 0.29525(12) 0.91133(14) 0.01614(13)
H24_30 H 0.2980 0.9142 0.0306
N9_30 N 0.30581(10) 0.89492(12) 0.00801(11)
N14_18 N 0.23692(11) 0.92705(11) 0.02820(11)
O16_27 O 0.2500 0.96502(10) 0.0000
C32_30 C 0.37239(15) 0.83345(17) 0.98826(17)
H17_30 H 0.3620 0.8392 0.9791
C33_30 C 0.39090(19) 0.8214(2) 0.98003(18)
C34_30 C 0.3918(2) 0.8156(2) 0.96015(19)
H18_30 H 0.3807 0.8189 0.9506
C35_30 C 0.4095(2) 0.8044(2) 0.95357(17)
H19_30 H 0.4112 0.8020 0.9389
C36_30 C 0.42472(18) 0.7967(2) 0.9670(2)
C37_30 C 0.4214(2) 0.7974(2) 0.9873(2)
H20_30 H 0.4301 0.7900 0.9971
C38_30 C 0.4040(2) 0.8098(3) 0.9938(2)
C41_30 C 0.4421(2) 0.7830(2) 0.9549(2)
O13_30 O 0.44042(11) 0.78036(14) 0.93510(13)
C42_30 C 0.28756(15) 0.89999(16) 0.97500(17)
C43_30 C 0.26531(12) 0.91480(15) 0.95415(14)
H23_30 H 0.2569 0.9176 0.9421
N7_18 N 0.26308(11) 0.92705(11) 0.97180(11)
C44_30 C 0.27702(14) 0.91831(16) 0.98577(19)
C46_30 C 0.30217(16) 0.88950(17) 0.98535(18)
N10_30 N 0.31354(9) 0.87329(10) 0.97636(9)
H25_30 H 0.3112 0.8696 0.9632
H26_30 H 0.3232 0.8666 0.9838
O16_28 O 0.2500 0.96502(10) 1.0000
O1_31 O 0.63465(9) 0.43109(8) 0.30832(7)
C1_31 C 0.64738(15) 0.41599(14) 0.31199(16)
O2_31 O 0.65510(12) 0.40536(10) 0.29723(9)
C2_31 C 0.65292(14) 0.41049(13) 0.33526(13)
C3_31 C 0.64334(13) 0.42117(13) 0.35169(15)
H1_31 H 0.6337 0.4324 0.3492
C4_31 C 0.64863(12) 0.41439(11) 0.37325(17)
C5_31 C 0.67367(16) 0.38776(16) 0.36009(15)
H2_31 H 0.6832 0.3765 0.3623
C6_31 C 0.66807(15) 0.39447(15) 0.33992(14)
H3_31 H 0.6749 0.3879 0.3283
O3_31 O 0.61093(10) 0.40870(8) 0.26037(8)
C7_31 C 0.59915(16) 0.39650(16) 0.27062(17)
O4_31 O 0.59755(14) 0.39840(11) 0.29055(11)
C8_31 C 0.58579(12) 0.37882(13) 0.25894(18)
C9_31 C 0.58345(17) 0.37761(15) 0.23826(17)
H4_31 H 0.5892 0.3880 0.2291
C10_31 C 0.5714(2) 0.35910(19) 0.23003(18)
C11_31 C 0.5656(2) 0.3582(2) 0.21015(19)
H5_31 H 0.5689 0.3693 0.2006
C12_31 C 0.5544(2) 0.3405(2) 0.20357(17)
H6_31 H 0.5520 0.3388 0.1889
C13_31 C 0.5467(2) 0.32528(18) 0.2170(2)
C14_31 C 0.5474(2) 0.3286(2) 0.2373(2)
H7_31 H 0.5400 0.3199 0.2471
C15_31 C 0.5598(3) 0.3460(2) 0.2438(2)
C16_31 C 0.5645(3) 0.3460(2) 0.2644(2)
H8_31 H 0.5602 0.3347 0.2733
C17_31 C 0.5759(2) 0.36325(18) 0.27260(17)
H9_31 H 0.5772 0.3647 0.2875
C18_31 C 0.5330(2) 0.3079(2) 0.2049(2)
O6_31 O 0.53036(14) 0.30958(11) 0.18510(13)
C19_31 C 0.64999(16) 0.46244(15) 0.22500(17)
C20_31 C 0.66480(15) 0.48469(12) 0.20415(14)
H10_31 H 0.6676 0.4931 0.1921
N2_19 N 0.67705(11) 0.48692(11) 0.22180(11)
C21_31 C 0.66831(16) 0.47298(14) 0.23577(19)
N3_31 N 0.67490(10) 0.46924(10) 0.25642(11)
C22_31 C 0.66133(14) 0.45475(12) 0.26614(13)
H11_31 H 0.6642 0.4520 0.2806
N4_31 N 0.64492(12) 0.44419(10) 0.25801(11)
C23_31 C 0.63950(17) 0.44783(16) 0.23535(18)
N5_31 N 0.62329(10) 0.43646(9) 0.22636(9)
H12_31 H 0.6196 0.4388 0.2132
H13_31 H 0.6166 0.4268 0.2338
O7_28 O 0.71502(10) 0.5000 0.2500
O8_31 O 0.68109(8) 0.38465(9) 0.44168(7)
C24_31 C 0.66599(14) 0.39738(15) 0.43801(16)
O9_31 O 0.65536(10) 0.40510(12) 0.45277(9)
C25_31 C 0.66049(13) 0.40292(14) 0.41474(13)
C26_31 C 0.67117(13) 0.39334(13) 0.39831(15)
H14_31 H 0.6824 0.3837 0.4008
C27_31 C 0.66439(11) 0.39863(12) 0.37675(17)
C28_31 C 0.63776(16) 0.42367(16) 0.38991(15)
H15_31 H 0.6265 0.4332 0.3877
C29_31 C 0.64447(15) 0.41807(15) 0.41008(14)
H16_31 H 0.6379 0.4249 0.4217
O10_31 O 0.65870(8) 0.36093(10) 0.48963(8)
C30_31 C 0.64650(16) 0.34915(16) 0.47938(17)
O11_31 O 0.64840(11) 0.34755(14) 0.45945(11)
C31_31 C 0.62882(13) 0.33579(12) 0.49106(18)
C32_31 C 0.62761(15) 0.33345(17) 0.51174(17)
H17_31 H 0.6380 0.3392 0.5209
C33_31 C 0.60910(19) 0.3214(2) 0.51997(18)
C34_31 C 0.6082(2) 0.3156(2) 0.53985(19)
H18_31 H 0.6193 0.3189 0.5494
C35_31 C 0.5905(2) 0.3044(2) 0.54643(17)
H19_31 H 0.5888 0.3020 0.5611
C36_31 C 0.57528(18) 0.2967(2) 0.5330(2)
C37_31 C 0.5786(2) 0.2974(2) 0.5127(2)
H20_31 H 0.5699 0.2900 0.5029
C38_31 C 0.5960(2) 0.3098(3) 0.5062(2)
C39_31 C 0.5960(2) 0.3145(3) 0.4856(2)
H21_31 H 0.5847 0.3102 0.4767
C40_31 C 0.61325(18) 0.3259(2) 0.47740(17)
H22_31 H 0.6147 0.3272 0.4625
C41_31 C 0.5579(2) 0.2830(2) 0.5451(2)
O13_31 O 0.55958(11) 0.28036(14) 0.56490(13)
C42_31 C 0.71244(15) 0.39999(16) 0.52500(17)
C43_31 C 0.73469(12) 0.41480(15) 0.54585(14)
H23_31 H 0.7431 0.4176 0.5579
N7_19 N 0.73692(11) 0.42705(11) 0.52820(11)
C44_31 C 0.72298(14) 0.41831(16) 0.51423(19)
N8_31 N 0.71924(10) 0.42490(10) 0.49358(11)
C45_31 C 0.70475(12) 0.41133(14) 0.48386(13)
H24_31 H 0.7020 0.4142 0.4694
N9_31 N 0.69419(10) 0.39492(12) 0.49199(11)
C46_31 C 0.69783(16) 0.38950(17) 0.51465(18)
N10_31 N 0.68646(9) 0.37329(10) 0.52364(9)
H25_31 H 0.6888 0.3696 0.5368
H26_31 H 0.6768 0.3666 0.5162
N13_19 N 0.67705(11) 0.51308(11) 0.27820(11)
N14_19 N 0.76308(11) 0.42705(11) 0.47180(11)
O16_29 O 0.7500 0.46502(10) 0.5000
O1_32 O 0.13465(9) 0.06891(8) 0.69168(7)
C1_32 C 0.14738(15) 0.08401(14) 0.68801(16)
O2_32 O 0.15510(12) 0.09464(10) 0.70277(9)
C2_32 C 0.15292(14) 0.08951(13) 0.66474(13)
C3_32 C 0.14334(13) 0.07883(13) 0.64831(15)
H1_32 H 0.1337 0.0676 0.6508
C4_32 C 0.14863(12) 0.08561(11) 0.62675(17)
C5_32 C 0.17367(16) 0.11224(16) 0.63991(15)
H2_32 H 0.1832 0.1235 0.6377
C6_32 C 0.16807(15) 0.10553(15) 0.66008(14)
H3_32 H 0.1749 0.1121 0.6717
O3_32 O 0.11093(10) 0.09130(8) 0.73963(8)
C7_32 C 0.09915(16) 0.10350(16) 0.72938(17)
O4_32 O 0.09755(14) 0.10160(11) 0.70945(11)
C8_32 C 0.08579(12) 0.12118(13) 0.74106(18)
C9_32 C 0.08345(17) 0.12239(15) 0.76174(17)
H4_32 H 0.0892 0.1120 0.7709
C10_32 C 0.0714(2) 0.14090(19) 0.76997(18)
C11_32 C 0.0656(2) 0.1418(2) 0.78985(19)
H5_32 H 0.0689 0.1307 0.7994
C12_32 C 0.0544(2) 0.1595(2) 0.79643(17)
H6_32 H 0.0520 0.1612 0.8111
C13_32 C 0.0467(2) 0.17472(18) 0.7830(2)
C14_32 C 0.0474(2) 0.1714(2) 0.7627(2)
H7_32 H 0.0400 0.1801 0.7529
C15_32 C 0.0598(3) 0.1540(2) 0.7562(2)
C16_32 C 0.0645(3) 0.1540(2) 0.7356(2)
H8_32 H 0.0602 0.1653 0.7267
C17_32 C 0.0759(2) 0.13675(18) 0.72740(17)
H9_32 H 0.0772 0.1353 0.7125
C18_32 C 0.0330(2) 0.1921(2) 0.7951(2)
O6_32 O 0.03036(14) 0.19042(11) 0.81490(13)
C19_32 C 0.14999(16) 0.03756(15) 0.77500(17)
C20_32 C 0.16480(15) 0.01531(12) 0.79585(14)
H10_32 H 0.1676 0.0069 0.8079
N2_20 N 0.17705(11) 0.01308(11) 0.77820(11)
C21_32 C 0.16831(16) 0.02702(14) 0.76423(19)
N3_32 N 0.17490(10) 0.03076(10) 0.74358(11)
C22_32 C 0.16133(14) 0.04525(12) 0.73386(13)
H11_32 H 0.1642 0.0480 0.7194
N4_32 N 0.14492(12) 0.05581(10) 0.74199(11)
C23_32 C 0.13950(17) 0.05217(16) 0.76465(18)
N5_32 N 0.12329(10) 0.06354(9) 0.77364(9)
H12_32 H 0.1196 0.0612 0.7868
H13_32 H 0.1166 0.0732 0.7662
O7_29 O 0.21502(10) 0.0000 0.7500
O8_32 O 0.18109(8) 0.11535(9) 0.55832(7)
C24_32 C 0.16599(14) 0.10262(15) 0.56199(16)
O9_32 O 0.15536(10) 0.09490(12) 0.54723(9)
C25_32 C 0.16049(13) 0.09708(14) 0.58526(13)
C26_32 C 0.17117(13) 0.10666(13) 0.60169(15)
H14_32 H 0.1824 0.1163 0.5992
C27_32 C 0.16439(11) 0.10137(12) 0.62325(17)
C28_32 C 0.13776(16) 0.07633(16) 0.61009(15)
H15_32 H 0.1265 0.0668 0.6123
C29_32 C 0.14447(15) 0.08193(15) 0.58992(14)
H16_32 H 0.1379 0.0751 0.5783
O10_32 O 0.15870(8) 0.13907(10) 0.51037(8)
C30_32 C 0.14650(16) 0.15085(16) 0.52062(17)
O11_32 O 0.14840(11) 0.15245(14) 0.54055(11)
C31_32 C 0.12882(13) 0.16421(12) 0.50894(18)
C32_32 C 0.12761(15) 0.16655(17) 0.48826(17)
H17_32 H 0.1380 0.1608 0.4791
C33_32 C 0.10910(19) 0.1786(2) 0.48003(18)
C34_32 C 0.1082(2) 0.1844(2) 0.46015(19)
H18_32 H 0.1193 0.1811 0.4506
C35_32 C 0.0905(2) 0.1956(2) 0.45357(17)
H19_32 H 0.0888 0.1980 0.4389
C36_32 C 0.07528(18) 0.2033(2) 0.4670(2)
C37_32 C 0.0786(2) 0.2026(2) 0.4873(2)
H20_32 H 0.0699 0.2100 0.4971
C38_32 C 0.0960(2) 0.1902(3) 0.4938(2)
C39_32 C 0.0960(2) 0.1855(3) 0.5144(2)
H21_32 H 0.0847 0.1898 0.5233
C40_32 C 0.11325(18) 0.1741(2) 0.52260(17)
H22_32 H 0.1147 0.1728 0.5375
C41_32 C 0.0579(2) 0.2170(2) 0.4549(2)
O13_32 O 0.05958(11) 0.21964(14) 0.43510(13)
C42_32 C 0.21244(15) 0.10001(16) 0.47500(17)
C43_32 C 0.23469(12) 0.08520(15) 0.45415(14)
H23_32 H 0.2431 0.0824 0.4421
N7_20 N 0.23692(11) 0.07295(11) 0.47180(11)
C44_32 C 0.22298(14) 0.08169(16) 0.48577(19)
N8_32 N 0.21924(10) 0.07510(10) 0.50642(11)
C45_32 C 0.20475(12) 0.08867(14) 0.51614(13)
H24_32 H 0.2020 0.0858 0.5306
N9_32 N 0.19419(10) 0.10508(12) 0.50801(11)
C46_32 C 0.19783(16) 0.11050(17) 0.48535(18)
N10_32 N 0.18646(9) 0.12671(10) 0.47636(9)
H25_32 H 0.1888 0.1304 0.4632
H26_32 H 0.1768 0.1334 0.4838
N14_20 N 0.26308(11) 0.07295(11) 0.52820(11)
O16_30 O 0.2500 0.03498(10) 0.5000
O7_30 O 0.21502(10) 1.0000 0.7500
N13_20 N 0.17705(11) 0.98692(11) 0.72180(11)
C32_33 C 0.01174(17) 0.87239(15) 0.66655(17)
H17_33 H 0.0209 0.8620 0.6608
C33_33 C 0.01997(18) 0.89090(19) 0.6786(2)
C34_33 C 0.03985(19) 0.8918(2) 0.6844(2)
H18_33 H 0.0494 0.8807 0.6811
C35_33 C 0.04643(17) 0.9095(2) 0.6956(2)
H19_33 H 0.0611 0.9112 0.6980
C36_33 C 0.0330(2) 0.92472(18) 0.7033(2)
C37_33 C 0.0127(2) 0.9214(2) 0.7026(2)
H20_33 H 0.0029 0.9301 0.7100
C38_33 C 0.0062(2) 0.9040(2) 0.6902(3)
C41_33 C 0.0451(2) 0.9421(2) 0.7170(2)
O13_33 O 0.06490(13) 0.94042(11) 0.71964(14)
C42_33 C 0.02500(17) 0.78756(15) 0.60001(16)
C43_33 C 0.04585(14) 0.76531(12) 0.58520(15)
H23_33 H 0.0579 0.7569 0.5824
N7_21 N 0.02820(11) 0.76308(11) 0.57295(11)
C44_33 C 0.01423(19) 0.77702(14) 0.58169(16)
C46_33 C 0.01465(18) 0.80217(16) 0.61050(17)
N10_33 N 0.02364(9) 0.81354(9) 0.62671(10)
H25_33 H 0.0368 0.8112 0.6304
H26_33 H 0.0162 0.8232 0.6334
O16_31 O 0.0000 0.7500 0.53498(10)
O1_33 O 0.80832(7) 0.86535(9) 0.56891(8)
C1_33 C 0.81199(16) 0.85262(15) 0.58401(14)
O2_33 O 0.79723(9) 0.84490(12) 0.59464(10)
C2_33 C 0.83526(13) 0.84708(14) 0.58951(13)
C3_33 C 0.85169(15) 0.85666(13) 0.57883(13)
H1_33 H 0.8492 0.8663 0.5676
C4_33 C 0.87325(17) 0.85137(12) 0.58561(11)
C5_33 C 0.86009(15) 0.82633(16) 0.61224(16)
H2_33 H 0.8623 0.8168 0.6235
C6_33 C 0.83992(14) 0.83193(15) 0.60553(15)
H3_33 H 0.8283 0.8251 0.6121
O3_33 O 0.76037(8) 0.88907(10) 0.59130(8)
C7_33 C 0.77062(17) 0.90085(16) 0.60350(16)
O4_33 O 0.79055(11) 0.90245(14) 0.60160(11)
C8_33 C 0.75894(18) 0.91421(12) 0.62118(13)
C9_33 C 0.73826(17) 0.91655(17) 0.62239(15)
H4_33 H 0.7291 0.9108 0.6120
C10_33 C 0.73003(18) 0.9286(2) 0.64090(19)
C11_33 C 0.71015(19) 0.9344(2) 0.6418(2)
H5_33 H 0.7006 0.9311 0.6307
C12_33 C 0.70357(17) 0.9456(2) 0.6595(2)
H6_33 H 0.6889 0.9480 0.6612
C13_33 C 0.7170(2) 0.9533(2) 0.67472(18)
C14_33 C 0.7373(2) 0.9526(2) 0.6714(2)
H7_33 H 0.7471 0.9600 0.6801
C15_33 C 0.7438(2) 0.9402(3) 0.6540(2)
C16_33 C 0.7644(2) 0.9355(3) 0.6540(2)
H8_33 H 0.7733 0.9398 0.6653
C17_33 C 0.77260(17) 0.9241(2) 0.63675(18)
H9_33 H 0.7875 0.9228 0.6353
C18_33 C 0.7049(2) 0.9670(2) 0.6921(2)
O6_33 O 0.68510(13) 0.96964(14) 0.69042(11)
C19_33 C 0.72500(17) 0.85001(16) 0.53756(15)
C20_33 C 0.70415(14) 0.83520(15) 0.51531(12)
H10_33 H 0.6921 0.8324 0.5069
N2_21 N 0.72180(11) 0.82295(11) 0.51308(11)
C21_33 C 0.73577(19) 0.83169(16) 0.52702(14)
N3_33 N 0.75642(11) 0.82510(10) 0.53076(10)
C22_33 C 0.76614(13) 0.83867(14) 0.54525(12)
H11_33 H 0.7806 0.8358 0.5480
N4_33 N 0.75801(11) 0.85508(12) 0.55581(10)
C23_33 C 0.73535(18) 0.86050(17) 0.55217(16)
N5_33 N 0.72636(9) 0.87671(10) 0.56354(9)
H12_33 H 0.7132 0.8804 0.5612
H13_33 H 0.7338 0.8834 0.5732
O7_31 O 0.7500 0.78498(10) 0.5000
O8_33 O 0.94168(7) 0.81891(8) 0.61535(9)
C24_33 C 0.93801(16) 0.83401(14) 0.60262(15)
O9_33 O 0.95277(9) 0.84464(10) 0.59490(12)
C25_33 C 0.91474(13) 0.83951(13) 0.59708(14)
C26_33 C 0.89831(15) 0.82883(13) 0.60666(13)
H14_33 H 0.9008 0.8176 0.6163
C27_33 C 0.87675(17) 0.83561(11) 0.60137(12)
C28_33 C 0.88991(15) 0.86224(16) 0.57633(16)
H15_33 H 0.8877 0.8735 0.5668
C29_33 C 0.91008(14) 0.85553(15) 0.58193(15)
H16_33 H 0.9217 0.8621 0.5751
O10_33 O 0.98963(8) 0.84130(8) 0.63907(10)
C30_33 C 0.97938(17) 0.85350(16) 0.65085(16)
O11_33 O 0.95945(11) 0.85160(11) 0.65245(14)
C31_33 C 0.99106(18) 0.87118(13) 0.66421(12)
C39_33 C 0.9856(2) 0.9040(2) 0.6855(3)
H21_33 H 0.9767 0.9153 0.6898
C40_33 C 0.97740(17) 0.88675(18) 0.6741(2)
H22_33 H 0.9625 0.8853 0.6728
N8_33 N 0.99358(11) 0.78076(10) 0.57510(10)
C45_33 C 0.98386(13) 0.79525(12) 0.58867(14)
H24_33 H 0.9694 0.7980 0.5858
N9_33 N 0.99199(11) 0.80581(10) 0.60508(12)
N13_21 N 0.77820(11) 0.82295(11) 0.48692(11)
N14_21 N 0.97180(11) 0.73692(11) 0.57295(11)
O16_32 O 1.0000 0.7500 0.53498(10)
O7_32 O 0.2500 0.28498(10) 0.0000
N13_22 N 0.22180(11) 0.32295(11) 0.01308(11)
O1_34 O 0.19168(7) 0.36535(9) 0.93109(8)
C1_34 C 0.18801(16) 0.35262(15) 0.91599(14)
O2_34 O 0.20277(9) 0.34490(12) 0.90536(10)
C2_34 C 0.16474(13) 0.34708(14) 0.91049(13)
C3_34 C 0.14831(15) 0.35666(13) 0.92117(13)
H1_34 H 0.1508 0.3663 0.9324
C4_34 C 0.12675(17) 0.35137(12) 0.91439(11)
C5_34 C 0.13991(15) 0.32633(16) 0.88776(16)
H2_34 H 0.1377 0.3168 0.8765
C6_34 C 0.16008(14) 0.33193(15) 0.89447(15)
H3_34 H 0.1717 0.3251 0.8879
O3_34 O 0.23963(8) 0.38907(10) 0.90870(8)
C7_34 C 0.22938(17) 0.40085(16) 0.89650(16)
O4_34 O 0.20945(11) 0.40245(14) 0.89840(11)
C8_34 C 0.24106(18) 0.41421(12) 0.87882(13)
C9_34 C 0.26174(17) 0.41655(17) 0.87761(15)
H4_34 H 0.2709 0.4108 0.8880
C10_34 C 0.26997(18) 0.4286(2) 0.85910(19)
C11_34 C 0.28985(19) 0.4344(2) 0.8582(2)
H5_34 H 0.2994 0.4311 0.8693
C12_34 C 0.29643(17) 0.4456(2) 0.8405(2)
H6_34 H 0.3111 0.4480 0.8388
C13_34 C 0.2830(2) 0.4533(2) 0.82528(18)
C14_34 C 0.2627(2) 0.4526(2) 0.8286(2)
H7_34 H 0.2529 0.4600 0.8199
C15_34 C 0.2562(2) 0.4402(3) 0.8460(2)
C16_34 C 0.2356(2) 0.4355(3) 0.8460(2)
H8_34 H 0.2267 0.4398 0.8347
C17_34 C 0.22740(17) 0.4241(2) 0.86325(18)
H9_34 H 0.2125 0.4228 0.8647
C18_34 C 0.2951(2) 0.4670(2) 0.8079(2)
O6_34 O 0.31490(13) 0.46964(14) 0.80958(11)
C19_34 C 0.27500(17) 0.35001(16) 0.96244(15)
C20_34 C 0.29585(14) 0.33520(15) 0.98469(12)
H10_34 H 0.3079 0.3324 0.9931
N2_22 N 0.27820(11) 0.32295(11) 0.98692(11)
C21_34 C 0.26423(19) 0.33169(16) 0.97298(14)
N3_34 N 0.24358(11) 0.32510(10) 0.96924(10)
C22_34 C 0.23386(13) 0.33867(14) 0.95475(12)
H11_34 H 0.2194 0.3358 0.9520
N4_34 N 0.24199(11) 0.35508(12) 0.94419(10)
C23_34 C 0.26465(18) 0.36050(17) 0.94783(16)
N5_34 N 0.27364(9) 0.37671(10) 0.93646(9)
H12_34 H 0.2868 0.3804 0.9388
H13_34 H 0.2662 0.3834 0.9268
O7_33 O 0.2500 0.28498(10) 1.0000
O8_34 O 0.05832(7) 0.31891(8) 0.88465(9)
C24_34 C 0.06199(16) 0.33401(14) 0.89738(15)
O9_34 O 0.04723(9) 0.34464(10) 0.90510(12)
C25_34 C 0.08526(13) 0.33951(13) 0.90292(14)
C26_34 C 0.10169(15) 0.32883(13) 0.89334(13)
H14_34 H 0.0992 0.3176 0.8837
C27_34 C 0.12325(17) 0.33561(11) 0.89863(12)
C28_34 C 0.11009(15) 0.36224(16) 0.92367(16)
H15_34 H 0.1123 0.3735 0.9332
C29_34 C 0.08992(14) 0.35553(15) 0.91807(15)
H16_34 H 0.0783 0.3621 0.9249
O10_34 O 0.01037(8) 0.34130(8) 0.86093(10)
C30_34 C 0.02062(17) 0.35350(16) 0.84915(16)
O11_34 O 0.04055(11) 0.35160(11) 0.84755(14)
C31_34 C 0.00894(18) 0.37118(13) 0.83579(12)
C39_34 C 0.0144(2) 0.4040(2) 0.8145(3)
H21_34 H 0.0233 0.4153 0.8102
C40_34 C 0.02260(17) 0.38675(18) 0.8259(2)
H22_34 H 0.0375 0.3853 0.8272
N8_34 N 0.00642(11) 0.28076(10) 0.92490(10)
C45_34 C 0.01614(13) 0.29525(12) 0.91133(14)
H24_34 H 0.0306 0.2980 0.9142
N9_34 N 0.00801(11) 0.30581(10) 0.89492(12)
N14_22 N 0.02820(11) 0.23692(11) 0.92705(11)
O16_33 O 0.0000 0.2500 0.96502(10)
C32_34 C 0.98826(17) 0.37239(15) 0.83345(17)
H17_34 H 0.9791 0.3620 0.8392
C33_34 C 0.98003(18) 0.39090(19) 0.8214(2)
C34_34 C 0.96015(19) 0.3918(2) 0.8156(2)
H18_34 H 0.9506 0.3807 0.8189
C35_34 C 0.95357(17) 0.4095(2) 0.8044(2)
H19_34 H 0.9389 0.4112 0.8020
C36_34 C 0.9670(2) 0.42472(18) 0.7967(2)
C37_34 C 0.9873(2) 0.4214(2) 0.7974(2)
H20_34 H 0.9971 0.4301 0.7900
C38_34 C 0.9938(2) 0.4040(2) 0.8098(3)
C41_34 C 0.9549(2) 0.4421(2) 0.7830(2)
O13_34 O 0.93510(13) 0.44042(11) 0.78036(14)
C42_34 C 0.97500(17) 0.28756(15) 0.89999(16)
C43_34 C 0.95415(14) 0.26531(12) 0.91480(15)
H23_34 H 0.9421 0.2569 0.9176
N7_22 N 0.97180(11) 0.26308(11) 0.92705(11)
C44_34 C 0.98577(19) 0.27702(14) 0.91831(16)
C46_34 C 0.98535(18) 0.30217(16) 0.88950(17)
N10_34 N 0.97636(9) 0.31354(9) 0.87329(10)
H25_34 H 0.9632 0.3112 0.8696
H26_34 H 0.9838 0.3232 0.8666
O16_34 O 1.0000 0.2500 0.96502(10)
O1_35 O 0.30832(7) 0.63465(9) 0.43109(8)
C1_35 C 0.31199(16) 0.64738(15) 0.41599(14)
O2_35 O 0.29723(9) 0.65510(12) 0.40536(10)
C2_35 C 0.33526(13) 0.65292(14) 0.41049(13)
C3_35 C 0.35169(15) 0.64334(13) 0.42117(13)
H1_35 H 0.3492 0.6337 0.4324
C4_35 C 0.37325(17) 0.64863(12) 0.41439(11)
C5_35 C 0.36009(15) 0.67367(16) 0.38776(16)
H2_35 H 0.3623 0.6832 0.3765
C6_35 C 0.33992(14) 0.66807(15) 0.39447(15)
H3_35 H 0.3283 0.6749 0.3879
O3_35 O 0.26037(8) 0.61093(10) 0.40870(8)
C7_35 C 0.27062(17) 0.59915(16) 0.39650(16)
O4_35 O 0.29055(11) 0.59755(14) 0.39840(11)
C8_35 C 0.25894(18) 0.58579(12) 0.37882(13)
C9_35 C 0.23826(17) 0.58345(17) 0.37761(15)
H4_35 H 0.2291 0.5892 0.3880
C10_35 C 0.23003(18) 0.5714(2) 0.35910(19)
C11_35 C 0.21015(19) 0.5656(2) 0.3582(2)
H5_35 H 0.2006 0.5689 0.3693
C12_35 C 0.20357(17) 0.5544(2) 0.3405(2)
H6_35 H 0.1889 0.5520 0.3388
C13_35 C 0.2170(2) 0.5467(2) 0.32528(18)
C14_35 C 0.2373(2) 0.5474(2) 0.3286(2)
H7_35 H 0.2471 0.5400 0.3199
C15_35 C 0.2438(2) 0.5598(3) 0.3460(2)
C16_35 C 0.2644(2) 0.5645(3) 0.3460(2)
H8_35 H 0.2733 0.5602 0.3347
C17_35 C 0.27260(17) 0.5759(2) 0.36325(18)
H9_35 H 0.2875 0.5772 0.3647
C18_35 C 0.2049(2) 0.5330(2) 0.3079(2)
O6_35 O 0.18510(13) 0.53036(14) 0.30958(11)
C19_35 C 0.22500(17) 0.64999(16) 0.46244(15)
C20_35 C 0.20415(14) 0.66480(15) 0.48469(12)
H10_35 H 0.1921 0.6676 0.4931
N2_23 N 0.22180(11) 0.67705(11) 0.48692(11)
C21_35 C 0.23577(19) 0.66831(16) 0.47298(14)
N3_35 N 0.25642(11) 0.67490(10) 0.46924(10)
C22_35 C 0.26614(13) 0.66133(14) 0.45475(12)
H11_35 H 0.2806 0.6642 0.4520
N4_35 N 0.25801(11) 0.64492(12) 0.44419(10)
C23_35 C 0.23535(18) 0.63950(17) 0.44783(16)
N5_35 N 0.22636(9) 0.62329(10) 0.43646(9)
H12_35 H 0.2132 0.6196 0.4388
H13_35 H 0.2338 0.6166 0.4268
O7_34 O 0.2500 0.71502(10) 0.5000
O8_35 O 0.44168(7) 0.68109(8) 0.38465(9)
C24_35 C 0.43801(16) 0.66599(14) 0.39738(15)
O9_35 O 0.45277(9) 0.65536(10) 0.40510(12)
C25_35 C 0.41474(13) 0.66049(13) 0.40292(14)
C26_35 C 0.39831(15) 0.67117(13) 0.39334(13)
H14_35 H 0.4008 0.6824 0.3837
C27_35 C 0.37675(17) 0.66439(11) 0.39863(12)
C28_35 C 0.38991(15) 0.63776(16) 0.42367(16)
H15_35 H 0.3877 0.6265 0.4332
C29_35 C 0.41008(14) 0.64447(15) 0.41807(15)
H16_35 H 0.4217 0.6379 0.4249
O10_35 O 0.48963(8) 0.65870(8) 0.36093(10)
C30_35 C 0.47938(17) 0.64650(16) 0.34915(16)
O11_35 O 0.45945(11) 0.64840(11) 0.34755(14)
C31_35 C 0.49106(18) 0.62882(13) 0.33579(12)
C32_35 C 0.51174(17) 0.62761(15) 0.33345(17)
H17_35 H 0.5209 0.6380 0.3392
C33_35 C 0.51997(18) 0.60910(19) 0.3214(2)
C34_35 C 0.53985(19) 0.6082(2) 0.3156(2)
H18_35 H 0.5494 0.6193 0.3189
C35_35 C 0.54643(17) 0.5905(2) 0.3044(2)
H19_35 H 0.5611 0.5888 0.3020
C36_35 C 0.5330(2) 0.57528(18) 0.2967(2)
C37_35 C 0.5127(2) 0.5786(2) 0.2974(2)
H20_35 H 0.5029 0.5699 0.2900
C38_35 C 0.5062(2) 0.5960(2) 0.3098(3)
C39_35 C 0.4856(2) 0.5960(2) 0.3145(3)
H21_35 H 0.4767 0.5847 0.3102
C40_35 C 0.47740(17) 0.61325(18) 0.3259(2)
H22_35 H 0.4625 0.6147 0.3272
C41_35 C 0.5451(2) 0.5579(2) 0.2830(2)
O13_35 O 0.56490(13) 0.55958(11) 0.28036(14)
C42_35 C 0.52500(17) 0.71244(15) 0.39999(16)
C43_35 C 0.54585(14) 0.73469(12) 0.41480(15)
H23_35 H 0.5579 0.7431 0.4176
N7_23 N 0.52820(11) 0.73692(11) 0.42705(11)
C44_35 C 0.51423(19) 0.72298(14) 0.41831(16)
N8_35 N 0.49358(11) 0.71924(10) 0.42490(10)
C45_35 C 0.48386(13) 0.70475(12) 0.41133(14)
H24_35 H 0.4694 0.7020 0.4142
N9_35 N 0.49199(11) 0.69419(10) 0.39492(12)
C46_35 C 0.51465(18) 0.69783(16) 0.38950(17)
N10_35 N 0.52364(9) 0.68646(9) 0.37329(10)
H25_35 H 0.5368 0.6888 0.3696
H26_35 H 0.5162 0.6768 0.3666
N13_23 N 0.27820(11) 0.67705(11) 0.51308(11)
N14_23 N 0.47180(11) 0.76308(11) 0.42705(11)
O16_35 O 0.5000 0.7500 0.46502(10)
O1_36 O 0.69168(7) 0.13465(9) 0.06891(8)
C1_36 C 0.68801(16) 0.14738(15) 0.08401(14)
O2_36 O 0.70277(9) 0.15510(12) 0.09464(10)
C2_36 C 0.66474(13) 0.15292(14) 0.08951(13)
C3_36 C 0.64831(15) 0.14334(13) 0.07883(13)
H1_36 H 0.6508 0.1337 0.0676
C4_36 C 0.62675(17) 0.14863(12) 0.08561(11)
C5_36 C 0.63991(15) 0.17367(16) 0.11224(16)
H2_36 H 0.6377 0.1832 0.1235
C6_36 C 0.66008(14) 0.16807(15) 0.10553(15)
H3_36 H 0.6717 0.1749 0.1121
O3_36 O 0.73963(8) 0.11093(10) 0.09130(8)
C7_36 C 0.72938(17) 0.09915(16) 0.10350(16)
O4_36 O 0.70945(11) 0.09755(14) 0.10160(11)
C8_36 C 0.74106(18) 0.08579(12) 0.12118(13)
C9_36 C 0.76174(17) 0.08345(17) 0.12239(15)
H4_36 H 0.7709 0.0892 0.1120
C10_36 C 0.76997(18) 0.0714(2) 0.14090(19)
C11_36 C 0.78985(19) 0.0656(2) 0.1418(2)
H5_36 H 0.7994 0.0689 0.1307
C12_36 C 0.79643(17) 0.0544(2) 0.1595(2)
H6_36 H 0.8111 0.0520 0.1612
C13_36 C 0.7830(2) 0.0467(2) 0.17472(18)
C14_36 C 0.7627(2) 0.0474(2) 0.1714(2)
H7_36 H 0.7529 0.0400 0.1801
C15_36 C 0.7562(2) 0.0598(3) 0.1540(2)
C16_36 C 0.7356(2) 0.0645(3) 0.1540(2)
H8_36 H 0.7267 0.0602 0.1653
C17_36 C 0.72740(17) 0.0759(2) 0.13675(18)
H9_36 H 0.7125 0.0772 0.1353
C18_36 C 0.7951(2) 0.0330(2) 0.1921(2)
O6_36 O 0.81490(13) 0.03036(14) 0.19042(11)
C19_36 C 0.77500(17) 0.14999(16) 0.03756(15)
C20_36 C 0.79585(14) 0.16480(15) 0.01531(12)
H10_36 H 0.8079 0.1676 0.0069
N2_24 N 0.77820(11) 0.17705(11) 0.01308(11)
C21_36 C 0.76423(19) 0.16831(16) 0.02702(14)
N3_36 N 0.74358(11) 0.17490(10) 0.03076(10)
C22_36 C 0.73386(13) 0.16133(14) 0.04525(12)
H11_36 H 0.7194 0.1642 0.0480
N4_36 N 0.74199(11) 0.14492(12) 0.05581(10)
C23_36 C 0.76465(18) 0.13950(17) 0.05217(16)
N5_36 N 0.77364(9) 0.12329(10) 0.06354(9)
H12_36 H 0.7868 0.1196 0.0612
H13_36 H 0.7662 0.1166 0.0732
O7_35 O 0.7500 0.21502(10) 0.0000
O8_36 O 0.55832(7) 0.18109(8) 0.11535(9)
C24_36 C 0.56199(16) 0.16599(14) 0.10262(15)
O9_36 O 0.54723(9) 0.15536(10) 0.09490(12)
C25_36 C 0.58526(13) 0.16049(13) 0.09708(14)
C26_36 C 0.60169(15) 0.17117(13) 0.10666(13)
H14_36 H 0.5992 0.1824 0.1163
C27_36 C 0.62325(17) 0.16439(11) 0.10137(12)
C28_36 C 0.61009(15) 0.13776(16) 0.07633(16)
H15_36 H 0.6123 0.1265 0.0668
C29_36 C 0.58992(14) 0.14447(15) 0.08193(15)
H16_36 H 0.5783 0.1379 0.0751
O10_36 O 0.51037(8) 0.15870(8) 0.13907(10)
C30_36 C 0.52062(17) 0.14650(16) 0.15085(16)
O11_36 O 0.54055(11) 0.14840(11) 0.15245(14)
C31_36 C 0.50894(18) 0.12882(13) 0.16421(12)
C32_36 C 0.48826(17) 0.12761(15) 0.16655(17)
H17_36 H 0.4791 0.1380 0.1608
C33_36 C 0.48003(18) 0.10910(19) 0.1786(2)
C34_36 C 0.46015(19) 0.1082(2) 0.1844(2)
H18_36 H 0.4506 0.1193 0.1811
C35_36 C 0.45357(17) 0.0905(2) 0.1956(2)
H19_36 H 0.4389 0.0888 0.1980
C36_36 C 0.4670(2) 0.07528(18) 0.2033(2)
C37_36 C 0.4873(2) 0.0786(2) 0.2026(2)
H20_36 H 0.4971 0.0699 0.2100
C38_36 C 0.4938(2) 0.0960(2) 0.1902(3)
C39_36 C 0.5144(2) 0.0960(2) 0.1855(3)
H21_36 H 0.5233 0.0847 0.1898
C40_36 C 0.52260(17) 0.11325(18) 0.1741(2)
H22_36 H 0.5375 0.1147 0.1728
C41_36 C 0.4549(2) 0.0579(2) 0.2170(2)
O13_36 O 0.43510(13) 0.05958(11) 0.21964(14)
C42_36 C 0.47500(17) 0.21244(15) 0.10001(16)
C43_36 C 0.45415(14) 0.23469(12) 0.08520(15)
H23_36 H 0.4421 0.2431 0.0824
N7_24 N 0.47180(11) 0.23692(11) 0.07295(11)
C44_36 C 0.48577(19) 0.22298(14) 0.08169(16)
N8_36 N 0.50642(11) 0.21924(10) 0.07510(10)
C45_36 C 0.51614(13) 0.20475(12) 0.08867(14)
H24_36 H 0.5306 0.2020 0.0858
N9_36 N 0.50801(11) 0.19419(10) 0.10508(12)
C46_36 C 0.48535(18) 0.19783(16) 0.11050(17)
N10_36 N 0.47636(9) 0.18646(9) 0.12671(10)
H25_36 H 0.4632 0.1888 0.1304
H26_36 H 0.4838 0.1768 0.1334
N14_24 N 0.52820(11) 0.26308(11) 0.07295(11)
O16_36 O 0.5000 0.2500 0.03498(10)
O7_36 O 0.7500 0.21502(10) 1.0000
N13_24 N 0.72180(11) 0.17705(11) 0.98692(11)
O1_37 O 0.06891(8) 0.30832(7) 0.36535(9)
C1_37 C 0.08401(14) 0.31199(16) 0.35262(15)
O2_37 O 0.09464(10) 0.29723(9) 0.34490(12)
C2_37 C 0.08951(13) 0.33526(13) 0.34708(14)
C3_37 C 0.07883(13) 0.35169(15) 0.35666(13)
H1_37 H 0.0676 0.3492 0.3663
C4_37 C 0.08561(11) 0.37325(17) 0.35137(12)
C5_37 C 0.11224(16) 0.36009(15) 0.32633(16)
H2_37 H 0.1235 0.3623 0.3168
C6_37 C 0.10553(15) 0.33992(14) 0.33193(15)
H3_37 H 0.1121 0.3283 0.3251
O3_37 O 0.09130(8) 0.26037(8) 0.38907(10)
C7_37 C 0.10350(16) 0.27062(17) 0.40085(16)
O4_37 O 0.10160(11) 0.29055(11) 0.40245(14)
C8_37 C 0.12118(13) 0.25894(18) 0.41421(12)
C9_37 C 0.12239(15) 0.23826(17) 0.41655(17)
H4_37 H 0.1120 0.2291 0.4108
C10_37 C 0.14090(19) 0.23003(18) 0.4286(2)
C11_37 C 0.1418(2) 0.21015(19) 0.4344(2)
H5_37 H 0.1307 0.2006 0.4311
C12_37 C 0.1595(2) 0.20357(17) 0.4456(2)
H6_37 H 0.1612 0.1889 0.4480
C13_37 C 0.17472(18) 0.2170(2) 0.4533(2)
C14_37 C 0.1714(2) 0.2373(2) 0.4526(2)
H7_37 H 0.1801 0.2471 0.4600
C15_37 C 0.1540(2) 0.2438(2) 0.4402(3)
C16_37 C 0.1540(2) 0.2644(2) 0.4355(3)
H8_37 H 0.1653 0.2733 0.4398
C17_37 C 0.13675(18) 0.27260(17) 0.4241(2)
H9_37 H 0.1353 0.2875 0.4228
C18_37 C 0.1921(2) 0.2049(2) 0.4670(2)
O6_37 O 0.19042(11) 0.18510(13) 0.46964(14)
C19_37 C 0.03756(15) 0.22500(17) 0.35001(16)
C20_37 C 0.01531(12) 0.20415(14) 0.33520(15)
H10_37 H 0.0069 0.1921 0.3324
C21_37 C 0.02702(14) 0.23577(19) 0.33169(16)
N3_37 N 0.03076(10) 0.25642(11) 0.32510(10)
C22_37 C 0.04525(12) 0.26614(13) 0.33867(14)
H11_37 H 0.0480 0.2806 0.3358
N4_37 N 0.05581(10) 0.25801(11) 0.35508(12)
C23_37 C 0.05217(16) 0.23535(18) 0.36050(17)
N5_37 N 0.06354(9) 0.22636(9) 0.37671(10)
H12_37 H 0.0612 0.2132 0.3804
H13_37 H 0.0732 0.2338 0.3834
O8_37 O 0.11535(9) 0.44168(7) 0.31891(8)
C24_37 C 0.10262(15) 0.43801(16) 0.33401(14)
O9_37 O 0.09490(12) 0.45277(9) 0.34464(10)
C25_37 C 0.09708(14) 0.41474(13) 0.33951(13)
C26_37 C 0.10666(13) 0.39831(15) 0.32883(13)
H14_37 H 0.1163 0.4008 0.3176
C27_37 C 0.10137(12) 0.37675(17) 0.33561(11)
C28_37 C 0.07633(16) 0.38991(15) 0.36224(16)
H15_37 H 0.0668 0.3877 0.3735
C29_37 C 0.08193(15) 0.41008(14) 0.35553(15)
H16_37 H 0.0751 0.4217 0.3621
O10_37 O 0.13907(10) 0.48963(8) 0.34130(8)
C30_37 C 0.15085(16) 0.47938(17) 0.35350(16)
O11_37 O 0.15245(14) 0.45945(11) 0.35160(11)
C31_37 C 0.16421(12) 0.49106(18) 0.37118(13)
C32_37 C 0.16655(17) 0.51174(17) 0.37239(15)
H17_37 H 0.1608 0.5209 0.3620
C33_37 C 0.1786(2) 0.51997(18) 0.39090(19)
C34_37 C 0.1844(2) 0.53985(19) 0.3918(2)
H18_37 H 0.1811 0.5494 0.3807
C35_37 C 0.1956(2) 0.54643(17) 0.4095(2)
H19_37 H 0.1980 0.5611 0.4112
C36_37 C 0.2033(2) 0.5330(2) 0.42472(18)
C37_37 C 0.2026(2) 0.5127(2) 0.4214(2)
H20_37 H 0.2100 0.5029 0.4301
C38_37 C 0.1902(3) 0.5062(2) 0.4040(2)
C39_37 C 0.1855(3) 0.4856(2) 0.4040(2)
H21_37 H 0.1898 0.4767 0.4153
C40_37 C 0.1741(2) 0.47740(17) 0.38675(18)
H22_37 H 0.1728 0.4625 0.3853
C41_37 C 0.2170(2) 0.5451(2) 0.4421(2)
O13_37 O 0.21964(14) 0.56490(13) 0.44042(11)
C42_37 C 0.10001(16) 0.52500(17) 0.28756(15)
C43_37 C 0.08520(15) 0.54585(14) 0.26531(12)
H23_37 H 0.0824 0.5579 0.2569
C44_37 C 0.08169(16) 0.51423(19) 0.27702(14)
N8_37 N 0.07510(10) 0.49358(11) 0.28076(10)
C45_37 C 0.08867(14) 0.48386(13) 0.29525(12)
H24_37 H 0.0858 0.4694 0.2980
N9_37 N 0.10508(12) 0.49199(11) 0.30581(10)
C46_37 C 0.11050(17) 0.51465(18) 0.30217(16)
N10_37 N 0.12671(10) 0.52364(9) 0.31354(9)
H25_37 H 0.1304 0.5368 0.3112
H26_37 H 0.1334 0.5162 0.3232
O1_38 O 0.43109(8) 0.69168(7) 0.86535(9)
C1_38 C 0.41599(14) 0.68801(16) 0.85262(15)
O2_38 O 0.40536(10) 0.70277(9) 0.84490(12)
C2_38 C 0.41049(13) 0.66474(13) 0.84708(14)
C3_38 C 0.42117(13) 0.64831(15) 0.85666(13)
H1_38 H 0.4324 0.6508 0.8663
C4_38 C 0.41439(11) 0.62675(17) 0.85137(12)
C5_38 C 0.38776(16) 0.63991(15) 0.82633(16)
H2_38 H 0.3765 0.6377 0.8168
C6_38 C 0.39447(15) 0.66008(14) 0.83193(15)
H3_38 H 0.3879 0.6717 0.8251
O3_38 O 0.40870(8) 0.73963(8) 0.88907(10)
C7_38 C 0.39650(16) 0.72938(17) 0.90085(16)
O4_38 O 0.39840(11) 0.70945(11) 0.90245(14)
C8_38 C 0.37882(13) 0.74106(18) 0.91421(12)
C9_38 C 0.37761(15) 0.76174(17) 0.91655(17)
H4_38 H 0.3880 0.7709 0.9108
C10_38 C 0.35910(19) 0.76997(18) 0.9286(2)
C11_38 C 0.3582(2) 0.78985(19) 0.9344(2)
H5_38 H 0.3693 0.7994 0.9311
C12_38 C 0.3405(2) 0.79643(17) 0.9456(2)
H6_38 H 0.3388 0.8111 0.9480
C13_38 C 0.32528(18) 0.7830(2) 0.9533(2)
C14_38 C 0.3286(2) 0.7627(2) 0.9526(2)
H7_38 H 0.3199 0.7529 0.9600
C15_38 C 0.3460(2) 0.7562(2) 0.9402(3)
C16_38 C 0.3460(2) 0.7356(2) 0.9355(3)
H8_38 H 0.3347 0.7267 0.9398
C17_38 C 0.36325(18) 0.72740(17) 0.9241(2)
H9_38 H 0.3647 0.7125 0.9228
C18_38 C 0.3079(2) 0.7951(2) 0.9670(2)
O6_38 O 0.30958(11) 0.81490(13) 0.96964(14)
C19_38 C 0.46244(15) 0.77500(17) 0.85001(16)
C20_38 C 0.48469(12) 0.79585(14) 0.83520(15)
H10_38 H 0.4931 0.8079 0.8324
C21_38 C 0.47298(14) 0.76423(19) 0.83169(16)
N3_38 N 0.46924(10) 0.74358(11) 0.82510(10)
C22_38 C 0.45475(12) 0.73386(13) 0.83867(14)
H11_38 H 0.4520 0.7194 0.8358
N4_38 N 0.44419(10) 0.74199(11) 0.85508(12)
C23_38 C 0.44783(16) 0.76465(18) 0.86050(17)
N5_38 N 0.43646(9) 0.77364(9) 0.87671(10)
H12_38 H 0.4388 0.7868 0.8804
H13_38 H 0.4268 0.7662 0.8834
O8_38 O 0.38465(9) 0.55832(7) 0.81891(8)
C24_38 C 0.39738(15) 0.56199(16) 0.83401(14)
O9_38 O 0.40510(12) 0.54723(9) 0.84464(10)
C25_38 C 0.40292(14) 0.58526(13) 0.83951(13)
C26_38 C 0.39334(13) 0.60169(15) 0.82883(13)
H14_38 H 0.3837 0.5992 0.8176
C27_38 C 0.39863(12) 0.62325(17) 0.83561(11)
C28_38 C 0.42367(16) 0.61009(15) 0.86224(16)
H15_38 H 0.4332 0.6123 0.8735
C29_38 C 0.41807(15) 0.58992(14) 0.85553(15)
H16_38 H 0.4249 0.5783 0.8621
O10_38 O 0.36093(10) 0.51037(8) 0.84130(8)
C30_38 C 0.34915(16) 0.52062(17) 0.85350(16)
O11_38 O 0.34755(14) 0.54055(11) 0.85160(11)
C31_38 C 0.33579(12) 0.50894(18) 0.87118(13)
C32_38 C 0.33345(17) 0.48826(17) 0.87239(15)
H17_38 H 0.3392 0.4791 0.8620
C33_38 C 0.3214(2) 0.48003(18) 0.89090(19)
C34_38 C 0.3156(2) 0.46015(19) 0.8918(2)
H18_38 H 0.3189 0.4506 0.8807
C35_38 C 0.3044(2) 0.45357(17) 0.9095(2)
H19_38 H 0.3020 0.4389 0.9112
C36_38 C 0.2967(2) 0.4670(2) 0.92472(18)
C37_38 C 0.2974(2) 0.4873(2) 0.9214(2)
H20_38 H 0.2900 0.4971 0.9301
C38_38 C 0.3098(3) 0.4938(2) 0.9040(2)
C39_38 C 0.3145(3) 0.5144(2) 0.9040(2)
H21_38 H 0.3102 0.5233 0.9153
C40_38 C 0.3259(2) 0.52260(17) 0.88675(18)
H22_38 H 0.3272 0.5375 0.8853
C41_38 C 0.2830(2) 0.4549(2) 0.9421(2)
O13_38 O 0.28036(14) 0.43510(13) 0.94042(11)
C42_38 C 0.39999(16) 0.47500(17) 0.78756(15)
C43_38 C 0.41480(15) 0.45415(14) 0.76531(12)
H23_38 H 0.4176 0.4421 0.7569
C44_38 C 0.41831(16) 0.48577(19) 0.77702(14)
N8_38 N 0.42490(10) 0.50642(11) 0.78076(10)
C45_38 C 0.41133(14) 0.51614(13) 0.79525(12)
H24_38 H 0.4142 0.5306 0.7980
N9_38 N 0.39492(12) 0.50801(11) 0.80581(10)
C46_38 C 0.38950(17) 0.48535(18) 0.80217(16)
N10_38 N 0.37329(10) 0.47636(9) 0.81354(9)
H25_38 H 0.3696 0.4632 0.8112
H26_38 H 0.3666 0.4838 0.8232
C32_39 C 0.83345(17) 0.01174(17) 0.12761(15)
H17_39 H 0.8392 0.0209 0.1380
C33_39 C 0.8214(2) 0.01997(18) 0.10910(19)
C34_39 C 0.8156(2) 0.03985(19) 0.1082(2)
H18_39 H 0.8189 0.0494 0.1193
C35_39 C 0.8044(2) 0.04643(17) 0.0905(2)
H19_39 H 0.8020 0.0611 0.0888
C36_39 C 0.7967(2) 0.0330(2) 0.07528(18)
C37_39 C 0.7974(2) 0.0127(2) 0.0786(2)
H20_39 H 0.7900 0.0029 0.0699
C38_39 C 0.8098(3) 0.0062(2) 0.0960(2)
C41_39 C 0.7830(2) 0.0451(2) 0.0579(2)
O13_39 O 0.78036(14) 0.06490(13) 0.05958(11)
C42_39 C 0.89999(16) 0.02500(17) 0.21244(15)
C43_39 C 0.91480(15) 0.04585(14) 0.23469(12)
H23_39 H 0.9176 0.0579 0.2431
C44_39 C 0.91831(16) 0.01423(19) 0.22298(14)
C46_39 C 0.88950(17) 0.01465(18) 0.19783(16)
N10_39 N 0.87329(10) 0.02364(9) 0.18646(9)
H25_39 H 0.8696 0.0368 0.1888
H26_39 H 0.8666 0.0162 0.1768
O1_39 O 0.93109(8) 0.80832(7) 0.13465(9)
C1_39 C 0.91599(14) 0.81199(16) 0.14738(15)
O2_39 O 0.90536(10) 0.79723(9) 0.15510(12)
C2_39 C 0.91049(13) 0.83526(13) 0.15292(14)
C3_39 C 0.92117(13) 0.85169(15) 0.14334(13)
H1_39 H 0.9324 0.8492 0.1337
C4_39 C 0.91439(11) 0.87325(17) 0.14863(12)
C5_39 C 0.88776(16) 0.86009(15) 0.17367(16)
H2_39 H 0.8765 0.8623 0.1832
C6_39 C 0.89447(15) 0.83992(14) 0.16807(15)
H3_39 H 0.8879 0.8283 0.1749
O3_39 O 0.90870(8) 0.76037(8) 0.11093(10)
C7_39 C 0.89650(16) 0.77062(17) 0.09915(16)
O4_39 O 0.89840(11) 0.79055(11) 0.09755(14)
C8_39 C 0.87882(13) 0.75894(18) 0.08579(12)
C9_39 C 0.87761(15) 0.73826(17) 0.08345(17)
H4_39 H 0.8880 0.7291 0.0892
C10_39 C 0.85910(19) 0.73003(18) 0.0714(2)
C11_39 C 0.8582(2) 0.71015(19) 0.0656(2)
H5_39 H 0.8693 0.7006 0.0689
C12_39 C 0.8405(2) 0.70357(17) 0.0544(2)
H6_39 H 0.8388 0.6889 0.0520
C13_39 C 0.82528(18) 0.7170(2) 0.0467(2)
C14_39 C 0.8286(2) 0.7373(2) 0.0474(2)
H7_39 H 0.8199 0.7471 0.0400
C15_39 C 0.8460(2) 0.7438(2) 0.0598(3)
C16_39 C 0.8460(2) 0.7644(2) 0.0645(3)
H8_39 H 0.8347 0.7733 0.0602
C17_39 C 0.86325(18) 0.77260(17) 0.0759(2)
H9_39 H 0.8647 0.7875 0.0772
C18_39 C 0.8079(2) 0.7049(2) 0.0330(2)
O6_39 O 0.80958(11) 0.68510(13) 0.03036(14)
C19_39 C 0.96244(15) 0.72500(17) 0.14999(16)
C20_39 C 0.98469(12) 0.70415(14) 0.16480(15)
H10_39 H 0.9931 0.6921 0.1676
C21_39 C 0.97298(14) 0.73577(19) 0.16831(16)
N3_39 N 0.96924(10) 0.75642(11) 0.17490(10)
C22_39 C 0.95475(12) 0.76614(13) 0.16133(14)
H11_39 H 0.9520 0.7806 0.1642
N4_39 N 0.94419(10) 0.75801(11) 0.14492(12)
C23_39 C 0.94783(16) 0.73535(18) 0.13950(17)
N5_39 N 0.93646(9) 0.72636(9) 0.12329(10)
H12_39 H 0.9388 0.7132 0.1196
H13_39 H 0.9268 0.7338 0.1166
O8_39 O 0.88465(9) 0.94168(7) 0.18109(8)
C24_39 C 0.89738(15) 0.93801(16) 0.16599(14)
O9_39 O 0.90510(12) 0.95277(9) 0.15536(10)
C25_39 C 0.90292(14) 0.91474(13) 0.16049(13)
C26_39 C 0.89334(13) 0.89831(15) 0.17117(13)
H14_39 H 0.8837 0.9008 0.1824
C27_39 C 0.89863(12) 0.87675(17) 0.16439(11)
C28_39 C 0.92367(16) 0.88991(15) 0.13776(16)
H15_39 H 0.9332 0.8877 0.1265
C29_39 C 0.91807(15) 0.91008(14) 0.14447(15)
H16_39 H 0.9249 0.9217 0.1379
O10_39 O 0.86093(10) 0.98963(8) 0.15870(8)
C30_39 C 0.84915(16) 0.97938(17) 0.14650(16)
O11_39 O 0.84755(14) 0.95945(11) 0.14840(11)
C31_39 C 0.83579(12) 0.99106(18) 0.12882(13)
C39_39 C 0.8145(3) 0.9856(2) 0.0960(2)
H21_39 H 0.8102 0.9767 0.0847
C40_39 C 0.8259(2) 0.97740(17) 0.11325(18)
H22_39 H 0.8272 0.9625 0.1147
N8_39 N 0.92490(10) 0.99358(11) 0.21924(10)
C45_39 C 0.91133(14) 0.98386(13) 0.20475(12)
H24_39 H 0.9142 0.9694 0.2020
N9_39 N 0.89492(12) 0.99199(11) 0.19419(10)
O1_40 O 0.56891(8) 0.19168(7) 0.63465(9)
C1_40 C 0.58401(14) 0.18801(16) 0.64738(15)
O2_40 O 0.59464(10) 0.20277(9) 0.65510(12)
C2_40 C 0.58951(13) 0.16474(13) 0.65292(14)
C3_40 C 0.57883(13) 0.14831(15) 0.64334(13)
H1_40 H 0.5676 0.1508 0.6337
C4_40 C 0.58561(11) 0.12675(17) 0.64863(12)
C5_40 C 0.61224(16) 0.13991(15) 0.67367(16)
H2_40 H 0.6235 0.1377 0.6832
C6_40 C 0.60553(15) 0.16008(14) 0.66807(15)
H3_40 H 0.6121 0.1717 0.6749
O3_40 O 0.59130(8) 0.23963(8) 0.61093(10)
C7_40 C 0.60350(16) 0.22938(17) 0.59915(16)
O4_40 O 0.60160(11) 0.20945(11) 0.59755(14)
C8_40 C 0.62118(13) 0.24106(18) 0.58579(12)
C9_40 C 0.62239(15) 0.26174(17) 0.58345(17)
H4_40 H 0.6120 0.2709 0.5892
C10_40 C 0.64090(19) 0.26997(18) 0.5714(2)
C11_40 C 0.6418(2) 0.28985(19) 0.5656(2)
H5_40 H 0.6307 0.2994 0.5689
C12_40 C 0.6595(2) 0.29643(17) 0.5544(2)
H6_40 H 0.6612 0.3111 0.5520
C13_40 C 0.67472(18) 0.2830(2) 0.5467(2)
C14_40 C 0.6714(2) 0.2627(2) 0.5474(2)
H7_40 H 0.6801 0.2529 0.5400
C15_40 C 0.6540(2) 0.2562(2) 0.5598(3)
C16_40 C 0.6540(2) 0.2356(2) 0.5645(3)
H8_40 H 0.6653 0.2267 0.5602
C17_40 C 0.63675(18) 0.22740(17) 0.5759(2)
H9_40 H 0.6353 0.2125 0.5772
C18_40 C 0.6921(2) 0.2951(2) 0.5330(2)
O6_40 O 0.69042(11) 0.31490(13) 0.53036(14)
C19_40 C 0.53756(15) 0.27500(17) 0.64999(16)
C20_40 C 0.51531(12) 0.29585(14) 0.66480(15)
H10_40 H 0.5069 0.3079 0.6676
C21_40 C 0.52702(14) 0.26423(19) 0.66831(16)
N3_40 N 0.53076(10) 0.24358(11) 0.67490(10)
C22_40 C 0.54525(12) 0.23386(13) 0.66133(14)
H11_40 H 0.5480 0.2194 0.6642
N4_40 N 0.55581(10) 0.24199(11) 0.64492(12)
C23_40 C 0.55217(16) 0.26465(18) 0.63950(17)
N5_40 N 0.56354(9) 0.27364(9) 0.62329(10)
H12_40 H 0.5612 0.2868 0.6196
H13_40 H 0.5732 0.2662 0.6166
O8_40 O 0.61535(9) 0.05832(7) 0.68109(8)
C24_40 C 0.60262(15) 0.06199(16) 0.66599(14)
O9_40 O 0.59490(12) 0.04723(9) 0.65536(10)
C25_40 C 0.59708(14) 0.08526(13) 0.66049(13)
C26_40 C 0.60666(13) 0.10169(15) 0.67117(13)
H14_40 H 0.6163 0.0992 0.6824
C27_40 C 0.60137(12) 0.12325(17) 0.66439(11)
C28_40 C 0.57633(16) 0.11009(15) 0.63776(16)
H15_40 H 0.5668 0.1123 0.6265
C29_40 C 0.58193(15) 0.08992(14) 0.64447(15)
H16_40 H 0.5751 0.0783 0.6379
O10_40 O 0.63907(10) 0.01037(8) 0.65870(8)
C30_40 C 0.65085(16) 0.02062(17) 0.64650(16)
O11_40 O 0.65245(14) 0.04055(11) 0.64840(11)
C31_40 C 0.66421(12) 0.00894(18) 0.62882(13)
C39_40 C 0.6855(3) 0.0144(2) 0.5960(2)
H21_40 H 0.6898 0.0233 0.5847
C40_40 C 0.6741(2) 0.02260(17) 0.61325(18)
H22_40 H 0.6728 0.0375 0.6147
N8_40 N 0.57510(10) 0.00642(11) 0.71924(10)
C45_40 C 0.58867(14) 0.01614(13) 0.70475(12)
H24_40 H 0.5858 0.0306 0.7020
N9_40 N 0.60508(12) 0.00801(11) 0.69419(10)
C32_40 C 0.66655(17) 0.98826(17) 0.62761(15)
H17_40 H 0.6608 0.9791 0.6380
C33_40 C 0.6786(2) 0.98003(18) 0.60910(19)
C34_40 C 0.6844(2) 0.96015(19) 0.6082(2)
H18_40 H 0.6811 0.9506 0.6193
C35_40 C 0.6956(2) 0.95357(17) 0.5905(2)
H19_40 H 0.6980 0.9389 0.5888
C36_40 C 0.7033(2) 0.9670(2) 0.57528(18)
C37_40 C 0.7026(2) 0.9873(2) 0.5786(2)
H20_40 H 0.7100 0.9971 0.5699
C38_40 C 0.6902(3) 0.9938(2) 0.5960(2)
C41_40 C 0.7170(2) 0.9549(2) 0.5579(2)
O13_40 O 0.71964(14) 0.93510(13) 0.55958(11)
C42_40 C 0.60001(16) 0.97500(17) 0.71244(15)
C43_40 C 0.58520(15) 0.95415(14) 0.73469(12)
H23_40 H 0.5824 0.9421 0.7431
C44_40 C 0.58169(16) 0.98577(19) 0.72298(14)
C46_40 C 0.61050(17) 0.98535(18) 0.69783(16)
N10_40 N 0.62671(10) 0.97636(9) 0.68646(9)
H25_40 H 0.6304 0.9632 0.6888
H26_40 H 0.6334 0.9838 0.6768
O1_41 O 0.36535(9) 0.06891(8) 0.30832(7)
C1_41 C 0.35262(15) 0.08401(14) 0.31199(16)
O2_41 O 0.34490(12) 0.09464(10) 0.29723(9)
C2_41 C 0.34708(14) 0.08951(13) 0.33526(13)
C3_41 C 0.35666(13) 0.07883(13) 0.35169(15)
H1_41 H 0.3663 0.0676 0.3492
C4_41 C 0.35137(12) 0.08561(11) 0.37325(17)
C5_41 C 0.32633(16) 0.11224(16) 0.36009(15)
H2_41 H 0.3168 0.1235 0.3623
C6_41 C 0.33193(15) 0.10553(15) 0.33992(14)
H3_41 H 0.3251 0.1121 0.3283
O3_41 O 0.38907(10) 0.09130(8) 0.26037(8)
C7_41 C 0.40085(16) 0.10350(16) 0.27062(17)
O4_41 O 0.40245(14) 0.10160(11) 0.29055(11)
C8_41 C 0.41421(12) 0.12118(13) 0.25894(18)
C9_41 C 0.41655(17) 0.12239(15) 0.23826(17)
H4_41 H 0.4108 0.1120 0.2291
C10_41 C 0.4286(2) 0.14090(19) 0.23003(18)
C11_41 C 0.4344(2) 0.1418(2) 0.21015(19)
H5_41 H 0.4311 0.1307 0.2006
C12_41 C 0.4456(2) 0.1595(2) 0.20357(17)
H6_41 H 0.4480 0.1612 0.1889
C13_41 C 0.4533(2) 0.17472(18) 0.2170(2)
C14_41 C 0.4526(2) 0.1714(2) 0.2373(2)
H7_41 H 0.4600 0.1801 0.2471
C15_41 C 0.4402(3) 0.1540(2) 0.2438(2)
C16_41 C 0.4355(3) 0.1540(2) 0.2644(2)
H8_41 H 0.4398 0.1653 0.2733
C17_41 C 0.4241(2) 0.13675(18) 0.27260(17)
H9_41 H 0.4228 0.1353 0.2875
C18_41 C 0.4670(2) 0.1921(2) 0.2049(2)
O6_41 O 0.46964(14) 0.19042(11) 0.18510(13)
C19_41 C 0.35001(16) 0.03756(15) 0.22500(17)
C20_41 C 0.33520(15) 0.01531(12) 0.20415(14)
H10_41 H 0.3324 0.0069 0.1921
C21_41 C 0.33169(16) 0.02702(14) 0.23577(19)
N3_41 N 0.32510(10) 0.03076(10) 0.25642(11)
C22_41 C 0.33867(14) 0.04525(12) 0.26614(13)
H11_41 H 0.3358 0.0480 0.2806
N4_41 N 0.35508(12) 0.05581(10) 0.25801(11)
C23_41 C 0.36050(17) 0.05217(16) 0.23535(18)
N5_41 N 0.37671(10) 0.06354(9) 0.22636(9)
H12_41 H 0.3804 0.0612 0.2132
H13_41 H 0.3834 0.0732 0.2338
O8_41 O 0.31891(8) 0.11535(9) 0.44168(7)
C24_41 C 0.33401(14) 0.10262(15) 0.43801(16)
O9_41 O 0.34464(10) 0.09490(12) 0.45277(9)
C25_41 C 0.33951(13) 0.09708(14) 0.41474(13)
C26_41 C 0.32883(13) 0.10666(13) 0.39831(15)
H14_41 H 0.3176 0.1163 0.4008
C27_41 C 0.33561(11) 0.10137(12) 0.37675(17)
C28_41 C 0.36224(16) 0.07633(16) 0.38991(15)
H15_41 H 0.3735 0.0668 0.3877
C29_41 C 0.35553(15) 0.08193(15) 0.41008(14)
H16_41 H 0.3621 0.0751 0.4217
O10_41 O 0.34130(8) 0.13907(10) 0.48963(8)
C30_41 C 0.35350(16) 0.15085(16) 0.47938(17)
O11_41 O 0.35160(11) 0.15245(14) 0.45945(11)
C31_41 C 0.37118(13) 0.16421(12) 0.49106(18)
C32_41 C 0.37239(15) 0.16655(17) 0.51174(17)
H17_41 H 0.3620 0.1608 0.5209
C33_41 C 0.39090(19) 0.1786(2) 0.51997(18)
C34_41 C 0.3918(2) 0.1844(2) 0.53985(19)
H18_41 H 0.3807 0.1811 0.5494
C35_41 C 0.4095(2) 0.1956(2) 0.54643(17)
H19_41 H 0.4112 0.1980 0.5611
C36_41 C 0.42472(18) 0.2033(2) 0.5330(2)
C37_41 C 0.4214(2) 0.2026(2) 0.5127(2)
H20_41 H 0.4301 0.2100 0.5029
C38_41 C 0.4040(2) 0.1902(3) 0.5062(2)
C39_41 C 0.4040(2) 0.1855(3) 0.4856(2)
H21_41 H 0.4153 0.1898 0.4767
C40_41 C 0.38675(18) 0.1741(2) 0.47740(17)
H22_41 H 0.3853 0.1728 0.4625
C41_41 C 0.4421(2) 0.2170(2) 0.5451(2)
O13_41 O 0.44042(11) 0.21964(14) 0.56490(13)
C42_41 C 0.28756(15) 0.10001(16) 0.52500(17)
C43_41 C 0.26531(12) 0.08520(15) 0.54585(14)
H23_41 H 0.2569 0.0824 0.5579
C44_41 C 0.27702(14) 0.08169(16) 0.51423(19)
N8_41 N 0.28076(10) 0.07510(10) 0.49358(11)
C45_41 C 0.29525(12) 0.08867(14) 0.48386(13)
H24_41 H 0.2980 0.0858 0.4694
N9_41 N 0.30581(10) 0.10508(12) 0.49199(11)
C46_41 C 0.30217(16) 0.11050(17) 0.51465(18)
N10_41 N 0.31354(9) 0.12671(10) 0.52364(9)
H25_41 H 0.3112 0.1304 0.5368
H26_41 H 0.3232 0.1334 0.5162
O1_42 O 0.86535(9) 0.43109(8) 0.69168(7)
C1_42 C 0.85262(15) 0.41599(14) 0.68801(16)
O2_42 O 0.84490(12) 0.40536(10) 0.70277(9)
C2_42 C 0.84708(14) 0.41049(13) 0.66474(13)
C3_42 C 0.85666(13) 0.42117(13) 0.64831(15)
H1_42 H 0.8663 0.4324 0.6508
C4_42 C 0.85137(12) 0.41439(11) 0.62675(17)
C5_42 C 0.82633(16) 0.38776(16) 0.63991(15)
H2_42 H 0.8168 0.3765 0.6377
C6_42 C 0.83193(15) 0.39447(15) 0.66008(14)
H3_42 H 0.8251 0.3879 0.6717
O3_42 O 0.88907(10) 0.40870(8) 0.73963(8)
C7_42 C 0.90085(16) 0.39650(16) 0.72938(17)
O4_42 O 0.90245(14) 0.39840(11) 0.70945(11)
C8_42 C 0.91421(12) 0.37882(13) 0.74106(18)
C9_42 C 0.91655(17) 0.37761(15) 0.76174(17)
H4_42 H 0.9108 0.3880 0.7709
C10_42 C 0.9286(2) 0.35910(19) 0.76997(18)
C11_42 C 0.9344(2) 0.3582(2) 0.78985(19)
H5_42 H 0.9311 0.3693 0.7994
C12_42 C 0.9456(2) 0.3405(2) 0.79643(17)
H6_42 H 0.9480 0.3388 0.8111
C13_42 C 0.9533(2) 0.32528(18) 0.7830(2)
C14_42 C 0.9526(2) 0.3286(2) 0.7627(2)
H7_42 H 0.9600 0.3199 0.7529
C15_42 C 0.9402(3) 0.3460(2) 0.7562(2)
C16_42 C 0.9355(3) 0.3460(2) 0.7356(2)
H8_42 H 0.9398 0.3347 0.7267
C17_42 C 0.9241(2) 0.36325(18) 0.72740(17)
H9_42 H 0.9228 0.3647 0.7125
C18_42 C 0.9670(2) 0.3079(2) 0.7951(2)
O6_42 O 0.96964(14) 0.30958(11) 0.81490(13)
C19_42 C 0.85001(16) 0.46244(15) 0.77500(17)
C20_42 C 0.83520(15) 0.48469(12) 0.79585(14)
H10_42 H 0.8324 0.4931 0.8079
C21_42 C 0.83169(16) 0.47298(14) 0.76423(19)
N3_42 N 0.82510(10) 0.46924(10) 0.74358(11)
C22_42 C 0.83867(14) 0.45475(12) 0.73386(13)
H11_42 H 0.8358 0.4520 0.7194
N4_42 N 0.85508(12) 0.44419(10) 0.74199(11)
C23_42 C 0.86050(17) 0.44783(16) 0.76465(18)
N5_42 N 0.87671(10) 0.43646(9) 0.77364(9)
H12_42 H 0.8804 0.4388 0.7868
H13_42 H 0.8834 0.4268 0.7662
O8_42 O 0.81891(8) 0.38465(9) 0.55832(7)
C24_42 C 0.83401(14) 0.39738(15) 0.56199(16)
O9_42 O 0.84464(10) 0.40510(12) 0.54723(9)
C25_42 C 0.83951(13) 0.40292(14) 0.58526(13)
C26_42 C 0.82883(13) 0.39334(13) 0.60169(15)
H14_42 H 0.8176 0.3837 0.5992
C27_42 C 0.83561(11) 0.39863(12) 0.62325(17)
C28_42 C 0.86224(16) 0.42367(16) 0.61009(15)
H15_42 H 0.8735 0.4332 0.6123
C29_42 C 0.85553(15) 0.41807(15) 0.58992(14)
H16_42 H 0.8621 0.4249 0.5783
O10_42 O 0.84130(8) 0.36093(10) 0.51037(8)
C30_42 C 0.85350(16) 0.34915(16) 0.52062(17)
O11_42 O 0.85160(11) 0.34755(14) 0.54055(11)
C31_42 C 0.87118(13) 0.33579(12) 0.50894(18)
C32_42 C 0.87239(15) 0.33345(17) 0.48826(17)
H17_42 H 0.8620 0.3392 0.4791
C33_42 C 0.89090(19) 0.3214(2) 0.48003(18)
C34_42 C 0.8918(2) 0.3156(2) 0.46015(19)
H18_42 H 0.8807 0.3189 0.4506
C35_42 C 0.9095(2) 0.3044(2) 0.45357(17)
H19_42 H 0.9112 0.3020 0.4389
C36_42 C 0.92472(18) 0.2967(2) 0.4670(2)
C37_42 C 0.9214(2) 0.2974(2) 0.4873(2)
H20_42 H 0.9301 0.2900 0.4971
C38_42 C 0.9040(2) 0.3098(3) 0.4938(2)
C39_42 C 0.9040(2) 0.3145(3) 0.5144(2)
H21_42 H 0.9153 0.3102 0.5233
C40_42 C 0.88675(18) 0.3259(2) 0.52260(17)
H22_42 H 0.8853 0.3272 0.5375
C41_42 C 0.9421(2) 0.2830(2) 0.4549(2)
O13_42 O 0.94042(11) 0.28036(14) 0.43510(13)
C42_42 C 0.78756(15) 0.39999(16) 0.47500(17)
C43_42 C 0.76531(12) 0.41480(15) 0.45415(14)
H23_42 H 0.7569 0.4176 0.4421
C44_42 C 0.77702(14) 0.41831(16) 0.48577(19)
N8_42 N 0.78076(10) 0.42490(10) 0.50642(11)
C45_42 C 0.79525(12) 0.41133(14) 0.51614(13)
H24_42 H 0.7980 0.4142 0.5306
N9_42 N 0.80581(10) 0.39492(12) 0.50801(11)
C46_42 C 0.80217(16) 0.38950(17) 0.48535(18)
N10_42 N 0.81354(9) 0.37329(10) 0.47636(9)
H25_42 H 0.8112 0.3696 0.4632
H26_42 H 0.8232 0.3666 0.4838
C32_43 C 0.12761(15) 0.83345(17) 0.01174(17)
H17_43 H 0.1380 0.8392 0.0209
C33_43 C 0.10910(19) 0.8214(2) 0.01997(18)
C34_43 C 0.1082(2) 0.8156(2) 0.03985(19)
H18_43 H 0.1193 0.8189 0.0494
C35_43 C 0.0905(2) 0.8044(2) 0.04643(17)
H19_43 H 0.0888 0.8020 0.0611
C36_43 C 0.07528(18) 0.7967(2) 0.0330(2)
C37_43 C 0.0786(2) 0.7974(2) 0.0127(2)
H20_43 H 0.0699 0.7900 0.0029
C38_43 C 0.0960(2) 0.8098(3) 0.0062(2)
C41_43 C 0.0579(2) 0.7830(2) 0.0451(2)
O13_43 O 0.05958(11) 0.78036(14) 0.06490(13)
C42_43 C 0.21244(15) 0.89999(16) 0.02500(17)
C43_43 C 0.23469(12) 0.91480(15) 0.04585(14)
H23_43 H 0.2431 0.9176 0.0579
C44_43 C 0.22298(14) 0.91831(16) 0.01423(19)
C46_43 C 0.19783(16) 0.88950(17) 0.01465(18)
N10_43 N 0.18646(9) 0.87329(10) 0.02364(9)
H25_43 H 0.1888 0.8696 0.0368
H26_43 H 0.1768 0.8666 0.0162
O1_43 O 0.13465(9) 0.93109(8) 0.80832(7)
C1_43 C 0.14738(15) 0.91599(14) 0.81199(16)
O2_43 O 0.15510(12) 0.90536(10) 0.79723(9)
C2_43 C 0.15292(14) 0.91049(13) 0.83526(13)
C3_43 C 0.14334(13) 0.92117(13) 0.85169(15)
H1_43 H 0.1337 0.9324 0.8492
C4_43 C 0.14863(12) 0.91439(11) 0.87325(17)
C5_43 C 0.17367(16) 0.88776(16) 0.86009(15)
H2_43 H 0.1832 0.8765 0.8623
C6_43 C 0.16807(15) 0.89447(15) 0.83992(14)
H3_43 H 0.1749 0.8879 0.8283
O3_43 O 0.11093(10) 0.90870(8) 0.76037(8)
C7_43 C 0.09915(16) 0.89650(16) 0.77062(17)
O4_43 O 0.09755(14) 0.89840(11) 0.79055(11)
C8_43 C 0.08579(12) 0.87882(13) 0.75894(18)
C9_43 C 0.08345(17) 0.87761(15) 0.73826(17)
H4_43 H 0.0892 0.8880 0.7291
C10_43 C 0.0714(2) 0.85910(19) 0.73003(18)
C11_43 C 0.0656(2) 0.8582(2) 0.71015(19)
H5_43 H 0.0689 0.8693 0.7006
C12_43 C 0.0544(2) 0.8405(2) 0.70357(17)
H6_43 H 0.0520 0.8388 0.6889
C13_43 C 0.0467(2) 0.82528(18) 0.7170(2)
C14_43 C 0.0474(2) 0.8286(2) 0.7373(2)
H7_43 H 0.0400 0.8199 0.7471
C15_43 C 0.0598(3) 0.8460(2) 0.7438(2)
C16_43 C 0.0645(3) 0.8460(2) 0.7644(2)
H8_43 H 0.0602 0.8347 0.7733
C17_43 C 0.0759(2) 0.86325(18) 0.77260(17)
H9_43 H 0.0772 0.8647 0.7875
C18_43 C 0.0330(2) 0.8079(2) 0.7049(2)
O6_43 O 0.03036(14) 0.80958(11) 0.68510(13)
C19_43 C 0.14999(16) 0.96244(15) 0.72500(17)
C20_43 C 0.16480(15) 0.98469(12) 0.70415(14)
H10_43 H 0.1676 0.9931 0.6921
C21_43 C 0.16831(16) 0.97298(14) 0.73577(19)
N3_43 N 0.17490(10) 0.96924(10) 0.75642(11)
C22_43 C 0.16133(14) 0.95475(12) 0.76614(13)
H11_43 H 0.1642 0.9520 0.7806
N4_43 N 0.14492(12) 0.94419(10) 0.75801(11)
C23_43 C 0.13950(17) 0.94783(16) 0.73535(18)
N5_43 N 0.12329(10) 0.93646(9) 0.72636(9)
H12_43 H 0.1196 0.9388 0.7132
H13_43 H 0.1166 0.9268 0.7338
O8_43 O 0.18109(8) 0.88465(9) 0.94168(7)
C24_43 C 0.16599(14) 0.89738(15) 0.93801(16)
O9_43 O 0.15536(10) 0.90510(12) 0.95277(9)
C25_43 C 0.16049(13) 0.90292(14) 0.91474(13)
C26_43 C 0.17117(13) 0.89334(13) 0.89831(15)
H14_43 H 0.1824 0.8837 0.9008
C27_43 C 0.16439(11) 0.89863(12) 0.87675(17)
C28_43 C 0.13776(16) 0.92367(16) 0.88991(15)
H15_43 H 0.1265 0.9332 0.8877
C29_43 C 0.14447(15) 0.91807(15) 0.91008(14)
H16_43 H 0.1379 0.9249 0.9217
O10_43 O 0.15870(8) 0.86093(10) 0.98963(8)
C30_43 C 0.14650(16) 0.84915(16) 0.97938(17)
O11_43 O 0.14840(11) 0.84755(14) 0.95945(11)
C31_43 C 0.12882(13) 0.83579(12) 0.99106(18)
C39_43 C 0.0960(2) 0.8145(3) 0.9856(2)
H21_43 H 0.0847 0.8102 0.9767
C40_43 C 0.11325(18) 0.8259(2) 0.97740(17)
H22_43 H 0.1147 0.8272 0.9625
N8_43 N 0.21924(10) 0.92490(10) 0.99358(11)
C45_43 C 0.20475(12) 0.91133(14) 0.98386(13)
H24_43 H 0.2020 0.9142 0.9694
N9_43 N 0.19419(10) 0.89492(12) 0.99199(11)
O1_44 O 0.63465(9) 0.56891(8) 0.19168(7)
C1_44 C 0.64738(15) 0.58401(14) 0.18801(16)
O2_44 O 0.65510(12) 0.59464(10) 0.20277(9)
C2_44 C 0.65292(14) 0.58951(13) 0.16474(13)
C3_44 C 0.64334(13) 0.57883(13) 0.14831(15)
H1_44 H 0.6337 0.5676 0.1508
C4_44 C 0.64863(12) 0.58561(11) 0.12675(17)
C5_44 C 0.67367(16) 0.61224(16) 0.13991(15)
H2_44 H 0.6832 0.6235 0.1377
C6_44 C 0.66807(15) 0.60553(15) 0.16008(14)
H3_44 H 0.6749 0.6121 0.1717
O3_44 O 0.61093(10) 0.59130(8) 0.23963(8)
C7_44 C 0.59915(16) 0.60350(16) 0.22938(17)
O4_44 O 0.59755(14) 0.60160(11) 0.20945(11)
C8_44 C 0.58579(12) 0.62118(13) 0.24106(18)
C9_44 C 0.58345(17) 0.62239(15) 0.26174(17)
H4_44 H 0.5892 0.6120 0.2709
C10_44 C 0.5714(2) 0.64090(19) 0.26997(18)
C11_44 C 0.5656(2) 0.6418(2) 0.28985(19)
H5_44 H 0.5689 0.6307 0.2994
C12_44 C 0.5544(2) 0.6595(2) 0.29643(17)
H6_44 H 0.5520 0.6612 0.3111
C13_44 C 0.5467(2) 0.67472(18) 0.2830(2)
C14_44 C 0.5474(2) 0.6714(2) 0.2627(2)
H7_44 H 0.5400 0.6801 0.2529
C15_44 C 0.5598(3) 0.6540(2) 0.2562(2)
C16_44 C 0.5645(3) 0.6540(2) 0.2356(2)
H8_44 H 0.5602 0.6653 0.2267
C17_44 C 0.5759(2) 0.63675(18) 0.22740(17)
H9_44 H 0.5772 0.6353 0.2125
C18_44 C 0.5330(2) 0.6921(2) 0.2951(2)
O6_44 O 0.53036(14) 0.69042(11) 0.31490(13)
C19_44 C 0.64999(16) 0.53756(15) 0.27500(17)
C20_44 C 0.66480(15) 0.51531(12) 0.29585(14)
H10_44 H 0.6676 0.5069 0.3079
C21_44 C 0.66831(16) 0.52702(14) 0.26423(19)
N3_44 N 0.67490(10) 0.53076(10) 0.24358(11)
C22_44 C 0.66133(14) 0.54525(12) 0.23386(13)
H11_44 H 0.6642 0.5480 0.2194
N4_44 N 0.64492(12) 0.55581(10) 0.24199(11)
C23_44 C 0.63950(17) 0.55217(16) 0.26465(18)
N5_44 N 0.62329(10) 0.56354(9) 0.27364(9)
H12_44 H 0.6196 0.5612 0.2868
H13_44 H 0.6166 0.5732 0.2662
O8_44 O 0.68109(8) 0.61535(9) 0.05832(7)
C24_44 C 0.66599(14) 0.60262(15) 0.06199(16)
O9_44 O 0.65536(10) 0.59490(12) 0.04723(9)
C25_44 C 0.66049(13) 0.59708(14) 0.08526(13)
C26_44 C 0.67117(13) 0.60666(13) 0.10169(15)
H14_44 H 0.6824 0.6163 0.0992
C27_44 C 0.66439(11) 0.60137(12) 0.12325(17)
C28_44 C 0.63776(16) 0.57633(16) 0.11009(15)
H15_44 H 0.6265 0.5668 0.1123
C29_44 C 0.64447(15) 0.58193(15) 0.08992(14)
H16_44 H 0.6379 0.5751 0.0783
O10_44 O 0.65870(8) 0.63907(10) 0.01037(8)
C30_44 C 0.64650(16) 0.65085(16) 0.02062(17)
O11_44 O 0.64840(11) 0.65245(14) 0.04055(11)
C31_44 C 0.62882(13) 0.66421(12) 0.00894(18)
C39_44 C 0.5960(2) 0.6855(3) 0.0144(2)
H21_44 H 0.5847 0.6898 0.0233
C40_44 C 0.61325(18) 0.6741(2) 0.02260(17)
H22_44 H 0.6147 0.6728 0.0375
N8_44 N 0.71924(10) 0.57510(10) 0.00642(11)
C45_44 C 0.70475(12) 0.58867(14) 0.01614(13)
H24_44 H 0.7020 0.5858 0.0306
N9_44 N 0.69419(10) 0.60508(12) 0.00801(11)
C32_44 C 0.62761(15) 0.66655(17) 0.98826(17)
H17_44 H 0.6380 0.6608 0.9791
C33_44 C 0.60910(19) 0.6786(2) 0.98003(18)
C34_44 C 0.6082(2) 0.6844(2) 0.96015(19)
H18_44 H 0.6193 0.6811 0.9506
C35_44 C 0.5905(2) 0.6956(2) 0.95357(17)
H19_44 H 0.5888 0.6980 0.9389
C36_44 C 0.57528(18) 0.7033(2) 0.9670(2)
C37_44 C 0.5786(2) 0.7026(2) 0.9873(2)
H20_44 H 0.5699 0.7100 0.9971
C38_44 C 0.5960(2) 0.6902(3) 0.9938(2)
C41_44 C 0.5579(2) 0.7170(2) 0.9549(2)
O13_44 O 0.55958(11) 0.71964(14) 0.93510(13)
C42_44 C 0.71244(15) 0.60001(16) 0.97500(17)
C43_44 C 0.73469(12) 0.58520(15) 0.95415(14)
H23_44 H 0.7431 0.5824 0.9421
C44_44 C 0.72298(14) 0.58169(16) 0.98577(19)
C46_44 C 0.69783(16) 0.61050(17) 0.98535(18)
N10_44 N 0.68646(9) 0.62671(10) 0.97636(9)
H25_44 H 0.6888 0.6304 0.9632
H26_44 H 0.6768 0.6334 0.9838
O1_45 O 0.30832(7) 0.36535(9) 0.06891(8)
C1_45 C 0.31199(16) 0.35262(15) 0.08401(14)
O2_45 O 0.29723(9) 0.34490(12) 0.09464(10)
C2_45 C 0.33526(13) 0.34708(14) 0.08951(13)
C3_45 C 0.35169(15) 0.35666(13) 0.07883(13)
H1_45 H 0.3492 0.3663 0.0676
C4_45 C 0.37325(17) 0.35137(12) 0.08561(11)
C5_45 C 0.36009(15) 0.32633(16) 0.11224(16)
H2_45 H 0.3623 0.3168 0.1235
C6_45 C 0.33992(14) 0.33193(15) 0.10553(15)
H3_45 H 0.3283 0.3251 0.1121
O3_45 O 0.26037(8) 0.38907(10) 0.09130(8)
C7_45 C 0.27062(17) 0.40085(16) 0.10350(16)
O4_45 O 0.29055(11) 0.40245(14) 0.10160(11)
C8_45 C 0.25894(18) 0.41421(12) 0.12118(13)
C9_45 C 0.23826(17) 0.41655(17) 0.12239(15)
H4_45 H 0.2291 0.4108 0.1120
C10_45 C 0.23003(18) 0.4286(2) 0.14090(19)
C11_45 C 0.21015(19) 0.4344(2) 0.1418(2)
H5_45 H 0.2006 0.4311 0.1307
C12_45 C 0.20357(17) 0.4456(2) 0.1595(2)
H6_45 H 0.1889 0.4480 0.1612
C13_45 C 0.2170(2) 0.4533(2) 0.17472(18)
C14_45 C 0.2373(2) 0.4526(2) 0.1714(2)
H7_45 H 0.2471 0.4600 0.1801
C15_45 C 0.2438(2) 0.4402(3) 0.1540(2)
C16_45 C 0.2644(2) 0.4355(3) 0.1540(2)
H8_45 H 0.2733 0.4398 0.1653
C17_45 C 0.27260(17) 0.4241(2) 0.13675(18)
H9_45 H 0.2875 0.4228 0.1353
C18_45 C 0.2049(2) 0.4670(2) 0.1921(2)
O6_45 O 0.18510(13) 0.46964(14) 0.19042(11)
C19_45 C 0.22500(17) 0.35001(16) 0.03756(15)
C20_45 C 0.20415(14) 0.33520(15) 0.01531(12)
H10_45 H 0.1921 0.3324 0.0069
C21_45 C 0.23577(19) 0.33169(16) 0.02702(14)
N3_45 N 0.25642(11) 0.32510(10) 0.03076(10)
C22_45 C 0.26614(13) 0.33867(14) 0.04525(12)
H11_45 H 0.2806 0.3358 0.0480
N4_45 N 0.25801(11) 0.35508(12) 0.05581(10)
C23_45 C 0.23535(18) 0.36050(17) 0.05217(16)
N5_45 N 0.22636(9) 0.37671(10) 0.06354(9)
H12_45 H 0.2132 0.3804 0.0612
H13_45 H 0.2338 0.3834 0.0732
O8_45 O 0.44168(7) 0.31891(8) 0.11535(9)
C24_45 C 0.43801(16) 0.33401(14) 0.10262(15)
O9_45 O 0.45277(9) 0.34464(10) 0.09490(12)
C25_45 C 0.41474(13) 0.33951(13) 0.09708(14)
C26_45 C 0.39831(15) 0.32883(13) 0.10666(13)
H14_45 H 0.4008 0.3176 0.1163
C27_45 C 0.37675(17) 0.33561(11) 0.10137(12)
C28_45 C 0.38991(15) 0.36224(16) 0.07633(16)
H15_45 H 0.3877 0.3735 0.0668
C29_45 C 0.41008(14) 0.35553(15) 0.08193(15)
H16_45 H 0.4217 0.3621 0.0751
O10_45 O 0.48963(8) 0.34130(8) 0.13907(10)
C30_45 C 0.47938(17) 0.35350(16) 0.15085(16)
O11_45 O 0.45945(11) 0.35160(11) 0.15245(14)
C31_45 C 0.49106(18) 0.37118(13) 0.16421(12)
C32_45 C 0.51174(17) 0.37239(15) 0.16655(17)
H17_45 H 0.5209 0.3620 0.1608
C33_45 C 0.51997(18) 0.39090(19) 0.1786(2)
C34_45 C 0.53985(19) 0.3918(2) 0.1844(2)
H18_45 H 0.5494 0.3807 0.1811
C35_45 C 0.54643(17) 0.4095(2) 0.1956(2)
H19_45 H 0.5611 0.4112 0.1980
C36_45 C 0.5330(2) 0.42472(18) 0.2033(2)
C37_45 C 0.5127(2) 0.4214(2) 0.2026(2)
H20_45 H 0.5029 0.4301 0.2100
C38_45 C 0.5062(2) 0.4040(2) 0.1902(3)
C39_45 C 0.4856(2) 0.4040(2) 0.1855(3)
H21_45 H 0.4767 0.4153 0.1898
C40_45 C 0.47740(17) 0.38675(18) 0.1741(2)
H22_45 H 0.4625 0.3853 0.1728
C41_45 C 0.5451(2) 0.4421(2) 0.2170(2)
O13_45 O 0.56490(13) 0.44042(11) 0.21964(14)
C42_45 C 0.52500(17) 0.28756(15) 0.10001(16)
C43_45 C 0.54585(14) 0.26531(12) 0.08520(15)
H23_45 H 0.5579 0.2569 0.0824
C44_45 C 0.51423(19) 0.27702(14) 0.08169(16)
N8_45 N 0.49358(11) 0.28076(10) 0.07510(10)
C45_45 C 0.48386(13) 0.29525(12) 0.08867(14)
H24_45 H 0.4694 0.2980 0.0858
N9_45 N 0.49199(11) 0.30581(10) 0.10508(12)
C46_45 C 0.51465(18) 0.30217(16) 0.11050(17)
N10_45 N 0.52364(9) 0.31354(9) 0.12671(10)
H25_45 H 0.5368 0.3112 0.1304
H26_45 H 0.5162 0.3232 0.1334
O1_46 O 0.69168(7) 0.86535(9) 0.43109(8)
C1_46 C 0.68801(16) 0.85262(15) 0.41599(14)
O2_46 O 0.70277(9) 0.84490(12) 0.40536(10)
C2_46 C 0.66474(13) 0.84708(14) 0.41049(13)
C3_46 C 0.64831(15) 0.85666(13) 0.42117(13)
H1_46 H 0.6508 0.8663 0.4324
C4_46 C 0.62675(17) 0.85137(12) 0.41439(11)
C5_46 C 0.63991(15) 0.82633(16) 0.38776(16)
H2_46 H 0.6377 0.8168 0.3765
C6_46 C 0.66008(14) 0.83193(15) 0.39447(15)
H3_46 H 0.6717 0.8251 0.3879
O3_46 O 0.73963(8) 0.88907(10) 0.40870(8)
C7_46 C 0.72938(17) 0.90085(16) 0.39650(16)
O4_46 O 0.70945(11) 0.90245(14) 0.39840(11)
C8_46 C 0.74106(18) 0.91421(12) 0.37882(13)
C9_46 C 0.76174(17) 0.91655(17) 0.37761(15)
H4_46 H 0.7709 0.9108 0.3880
C10_46 C 0.76997(18) 0.9286(2) 0.35910(19)
C11_46 C 0.78985(19) 0.9344(2) 0.3582(2)
H5_46 H 0.7994 0.9311 0.3693
C12_46 C 0.79643(17) 0.9456(2) 0.3405(2)
H6_46 H 0.8111 0.9480 0.3388
C13_46 C 0.7830(2) 0.9533(2) 0.32528(18)
C14_46 C 0.7627(2) 0.9526(2) 0.3286(2)
H7_46 H 0.7529 0.9600 0.3199
C15_46 C 0.7562(2) 0.9402(3) 0.3460(2)
C16_46 C 0.7356(2) 0.9355(3) 0.3460(2)
H8_46 H 0.7267 0.9398 0.3347
C17_46 C 0.72740(17) 0.9241(2) 0.36325(18)
H9_46 H 0.7125 0.9228 0.3647
C18_46 C 0.7951(2) 0.9670(2) 0.3079(2)
O6_46 O 0.81490(13) 0.96964(14) 0.30958(11)
C19_46 C 0.77500(17) 0.85001(16) 0.46244(15)
C20_46 C 0.79585(14) 0.83520(15) 0.48469(12)
H10_46 H 0.8079 0.8324 0.4931
C21_46 C 0.76423(19) 0.83169(16) 0.47298(14)
N3_46 N 0.74358(11) 0.82510(10) 0.46924(10)
C22_46 C 0.73386(13) 0.83867(14) 0.45475(12)
H11_46 H 0.7194 0.8358 0.4520
N4_46 N 0.74199(11) 0.85508(12) 0.44419(10)
C23_46 C 0.76465(18) 0.86050(17) 0.44783(16)
N5_46 N 0.77364(9) 0.87671(10) 0.43646(9)
H12_46 H 0.7868 0.8804 0.4388
H13_46 H 0.7662 0.8834 0.4268
O8_46 O 0.55832(7) 0.81891(8) 0.38465(9)
C24_46 C 0.56199(16) 0.83401(14) 0.39738(15)
O9_46 O 0.54723(9) 0.84464(10) 0.40510(12)
C25_46 C 0.58526(13) 0.83951(13) 0.40292(14)
C26_46 C 0.60169(15) 0.82883(13) 0.39334(13)
H14_46 H 0.5992 0.8176 0.3837
C27_46 C 0.62325(17) 0.83561(11) 0.39863(12)
C28_46 C 0.61009(15) 0.86224(16) 0.42367(16)
H15_46 H 0.6123 0.8735 0.4332
C29_46 C 0.58992(14) 0.85553(15) 0.41807(15)
H16_46 H 0.5783 0.8621 0.4249
O10_46 O 0.51037(8) 0.84130(8) 0.36093(10)
C30_46 C 0.52062(17) 0.85350(16) 0.34915(16)
O11_46 O 0.54055(11) 0.85160(11) 0.34755(14)
C31_46 C 0.50894(18) 0.87118(13) 0.33579(12)
C32_46 C 0.48826(17) 0.87239(15) 0.33345(17)
H17_46 H 0.4791 0.8620 0.3392
C33_46 C 0.48003(18) 0.89090(19) 0.3214(2)
C34_46 C 0.46015(19) 0.8918(2) 0.3156(2)
H18_46 H 0.4506 0.8807 0.3189
C35_46 C 0.45357(17) 0.9095(2) 0.3044(2)
H19_46 H 0.4389 0.9112 0.3020
C36_46 C 0.4670(2) 0.92472(18) 0.2967(2)
C37_46 C 0.4873(2) 0.9214(2) 0.2974(2)
H20_46 H 0.4971 0.9301 0.2900
C38_46 C 0.4938(2) 0.9040(2) 0.3098(3)
C39_46 C 0.5144(2) 0.9040(2) 0.3145(3)
H21_46 H 0.5233 0.9153 0.3102
C40_46 C 0.52260(17) 0.88675(18) 0.3259(2)
H22_46 H 0.5375 0.8853 0.3272
C41_46 C 0.4549(2) 0.9421(2) 0.2830(2)
O13_46 O 0.43510(13) 0.94042(11) 0.28036(14)
C42_46 C 0.47500(17) 0.78756(15) 0.39999(16)
C43_46 C 0.45415(14) 0.76531(12) 0.41480(15)
H23_46 H 0.4421 0.7569 0.4176
C44_46 C 0.48577(19) 0.77702(14) 0.41831(16)
N8_46 N 0.50642(11) 0.78076(10) 0.42490(10)
C45_46 C 0.51614(13) 0.79525(12) 0.41133(14)
H24_46 H 0.5306 0.7980 0.4142
N9_46 N 0.50801(11) 0.80581(10) 0.39492(12)
C46_46 C 0.48535(18) 0.80217(16) 0.38950(17)
N10_46 N 0.47636(9) 0.81354(9) 0.37329(10)
H25_46 H 0.4632 0.8112 0.3696
H26_46 H 0.4838 0.8232 0.3666
C32_47 C 0.01174(17) 0.12761(15) 0.83345(17)
H17_47 H 0.0209 0.1380 0.8392
C33_47 C 0.01997(18) 0.10910(19) 0.8214(2)
C34_47 C 0.03985(19) 0.1082(2) 0.8156(2)
H18_47 H 0.0494 0.1193 0.8189
C35_47 C 0.04643(17) 0.0905(2) 0.8044(2)
H19_47 H 0.0611 0.0888 0.8020
C36_47 C 0.0330(2) 0.07528(18) 0.7967(2)
C37_47 C 0.0127(2) 0.0786(2) 0.7974(2)
H20_47 H 0.0029 0.0699 0.7900
C38_47 C 0.0062(2) 0.0960(2) 0.8098(3)
C41_47 C 0.0451(2) 0.0579(2) 0.7830(2)
O13_47 O 0.06490(13) 0.05958(11) 0.78036(14)
C42_47 C 0.02500(17) 0.21244(15) 0.89999(16)
C43_47 C 0.04585(14) 0.23469(12) 0.91480(15)
H23_47 H 0.0579 0.2431 0.9176
C44_47 C 0.01423(19) 0.22298(14) 0.91831(16)
C46_47 C 0.01465(18) 0.19783(16) 0.88950(17)
N10_47 N 0.02364(9) 0.18646(9) 0.87329(10)
H25_47 H 0.0368 0.1888 0.8696
H26_47 H 0.0162 0.1768 0.8666
O1_47 O 0.80832(7) 0.13465(9) 0.93109(8)
C1_47 C 0.81199(16) 0.14738(15) 0.91599(14)
O2_47 O 0.79723(9) 0.15510(12) 0.90536(10)
C2_47 C 0.83526(13) 0.15292(14) 0.91049(13)
C3_47 C 0.85169(15) 0.14334(13) 0.92117(13)
H1_47 H 0.8492 0.1337 0.9324
C4_47 C 0.87325(17) 0.14863(12) 0.91439(11)
C5_47 C 0.86009(15) 0.17367(16) 0.88776(16)
H2_47 H 0.8623 0.1832 0.8765
C6_47 C 0.83992(14) 0.16807(15) 0.89447(15)
H3_47 H 0.8283 0.1749 0.8879
O3_47 O 0.76037(8) 0.11093(10) 0.90870(8)
C7_47 C 0.77062(17) 0.09915(16) 0.89650(16)
O4_47 O 0.79055(11) 0.09755(14) 0.89840(11)
C8_47 C 0.75894(18) 0.08579(12) 0.87882(13)
C9_47 C 0.73826(17) 0.08345(17) 0.87761(15)
H4_47 H 0.7291 0.0892 0.8880
C10_47 C 0.73003(18) 0.0714(2) 0.85910(19)
C11_47 C 0.71015(19) 0.0656(2) 0.8582(2)
H5_47 H 0.7006 0.0689 0.8693
C12_47 C 0.70357(17) 0.0544(2) 0.8405(2)
H6_47 H 0.6889 0.0520 0.8388
C13_47 C 0.7170(2) 0.0467(2) 0.82528(18)
C14_47 C 0.7373(2) 0.0474(2) 0.8286(2)
H7_47 H 0.7471 0.0400 0.8199
C15_47 C 0.7438(2) 0.0598(3) 0.8460(2)
C16_47 C 0.7644(2) 0.0645(3) 0.8460(2)
H8_47 H 0.7733 0.0602 0.8347
C17_47 C 0.77260(17) 0.0759(2) 0.86325(18)
H9_47 H 0.7875 0.0772 0.8647
C18_47 C 0.7049(2) 0.0330(2) 0.8079(2)
O6_47 O 0.68510(13) 0.03036(14) 0.80958(11)
C19_47 C 0.72500(17) 0.14999(16) 0.96244(15)
C20_47 C 0.70415(14) 0.16480(15) 0.98469(12)
H10_47 H 0.6921 0.1676 0.9931
C21_47 C 0.73577(19) 0.16831(16) 0.97298(14)
N3_47 N 0.75642(11) 0.17490(10) 0.96924(10)
C22_47 C 0.76614(13) 0.16133(14) 0.95475(12)
H11_47 H 0.7806 0.1642 0.9520
N4_47 N 0.75801(11) 0.14492(12) 0.94419(10)
C23_47 C 0.73535(18) 0.13950(17) 0.94783(16)
N5_47 N 0.72636(9) 0.12329(10) 0.93646(9)
H12_47 H 0.7132 0.1196 0.9388
H13_47 H 0.7338 0.1166 0.9268
O8_47 O 0.94168(7) 0.18109(8) 0.88465(9)
C24_47 C 0.93801(16) 0.16599(14) 0.89738(15)
O9_47 O 0.95277(9) 0.15536(10) 0.90510(12)
C25_47 C 0.91474(13) 0.16049(13) 0.90292(14)
C26_47 C 0.89831(15) 0.17117(13) 0.89334(13)
H14_47 H 0.9008 0.1824 0.8837
C27_47 C 0.87675(17) 0.16439(11) 0.89863(12)
C28_47 C 0.88991(15) 0.13776(16) 0.92367(16)
H15_47 H 0.8877 0.1265 0.9332
C29_47 C 0.91008(14) 0.14447(15) 0.91807(15)
H16_47 H 0.9217 0.1379 0.9249
O10_47 O 0.98963(8) 0.15870(8) 0.86093(10)
C30_47 C 0.97938(17) 0.14650(16) 0.84915(16)
O11_47 O 0.95945(11) 0.14840(11) 0.84755(14)
C31_47 C 0.99106(18) 0.12882(13) 0.83579(12)
C39_47 C 0.9856(2) 0.0960(2) 0.8145(3)
H21_47 H 0.9767 0.0847 0.8102
C40_47 C 0.97740(17) 0.11325(18) 0.8259(2)
H22_47 H 0.9625 0.1147 0.8272
N8_47 N 0.99358(11) 0.21924(10) 0.92490(10)
C45_47 C 0.98386(13) 0.20475(12) 0.91133(14)
H24_47 H 0.9694 0.2020 0.9142
N9_47 N 0.99199(11) 0.19419(10) 0.89492(12)
O1_48 O 0.19168(7) 0.63465(9) 0.56891(8)
C1_48 C 0.18801(16) 0.64738(15) 0.58401(14)
O2_48 O 0.20277(9) 0.65510(12) 0.59464(10)
C2_48 C 0.16474(13) 0.65292(14) 0.58951(13)
C3_48 C 0.14831(15) 0.64334(13) 0.57883(13)
H1_48 H 0.1508 0.6337 0.5676
C4_48 C 0.12675(17) 0.64863(12) 0.58561(11)
C5_48 C 0.13991(15) 0.67367(16) 0.61224(16)
H2_48 H 0.1377 0.6832 0.6235
C6_48 C 0.16008(14) 0.66807(15) 0.60553(15)
H3_48 H 0.1717 0.6749 0.6121
O3_48 O 0.23963(8) 0.61093(10) 0.59130(8)
C7_48 C 0.22938(17) 0.59915(16) 0.60350(16)
O4_48 O 0.20945(11) 0.59755(14) 0.60160(11)
C8_48 C 0.24106(18) 0.58579(12) 0.62118(13)
C9_48 C 0.26174(17) 0.58345(17) 0.62239(15)
H4_48 H 0.2709 0.5892 0.6120
C10_48 C 0.26997(18) 0.5714(2) 0.64090(19)
C11_48 C 0.28985(19) 0.5656(2) 0.6418(2)
H5_48 H 0.2994 0.5689 0.6307
C12_48 C 0.29643(17) 0.5544(2) 0.6595(2)
H6_48 H 0.3111 0.5520 0.6612
C13_48 C 0.2830(2) 0.5467(2) 0.67472(18)
C14_48 C 0.2627(2) 0.5474(2) 0.6714(2)
H7_48 H 0.2529 0.5400 0.6801
C15_48 C 0.2562(2) 0.5598(3) 0.6540(2)
C16_48 C 0.2356(2) 0.5645(3) 0.6540(2)
H8_48 H 0.2267 0.5602 0.6653
C17_48 C 0.22740(17) 0.5759(2) 0.63675(18)
H9_48 H 0.2125 0.5772 0.6353
C18_48 C 0.2951(2) 0.5330(2) 0.6921(2)
O6_48 O 0.31490(13) 0.53036(14) 0.69042(11)
C19_48 C 0.27500(17) 0.64999(16) 0.53756(15)
C20_48 C 0.29585(14) 0.66480(15) 0.51531(12)
H10_48 H 0.3079 0.6676 0.5069
C21_48 C 0.26423(19) 0.66831(16) 0.52702(14)
N3_48 N 0.24358(11) 0.67490(10) 0.53076(10)
C22_48 C 0.23386(13) 0.66133(14) 0.54525(12)
H11_48 H 0.2194 0.6642 0.5480
N4_48 N 0.24199(11) 0.64492(12) 0.55581(10)
C23_48 C 0.26465(18) 0.63950(17) 0.55217(16)
N5_48 N 0.27364(9) 0.62329(10) 0.56354(9)
H12_48 H 0.2868 0.6196 0.5612
H13_48 H 0.2662 0.6166 0.5732
O8_48 O 0.05832(7) 0.68109(8) 0.61535(9)
C24_48 C 0.06199(16) 0.66599(14) 0.60262(15)
O9_48 O 0.04723(9) 0.65536(10) 0.59490(12)
C25_48 C 0.08526(13) 0.66049(13) 0.59708(14)
C26_48 C 0.10169(15) 0.67117(13) 0.60666(13)
H14_48 H 0.0992 0.6824 0.6163
C27_48 C 0.12325(17) 0.66439(11) 0.60137(12)
C28_48 C 0.11009(15) 0.63776(16) 0.57633(16)
H15_48 H 0.1123 0.6265 0.5668
C29_48 C 0.08992(14) 0.64447(15) 0.58193(15)
H16_48 H 0.0783 0.6379 0.5751
O10_48 O 0.01037(8) 0.65870(8) 0.63907(10)
C30_48 C 0.02062(17) 0.64650(16) 0.65085(16)
O11_48 O 0.04055(11) 0.64840(11) 0.65245(14)
C31_48 C 0.00894(18) 0.62882(13) 0.66421(12)
C39_48 C 0.0144(2) 0.5960(2) 0.6855(3)
H21_48 H 0.0233 0.5847 0.6898
C40_48 C 0.02260(17) 0.61325(18) 0.6741(2)
H22_48 H 0.0375 0.6147 0.6728
N8_48 N 0.00642(11) 0.71924(10) 0.57510(10)
C45_48 C 0.01614(13) 0.70475(12) 0.58867(14)
H24_48 H 0.0306 0.7020 0.5858
N9_48 N 0.00801(11) 0.69419(10) 0.60508(12)
C32_48 C 0.98826(17) 0.62761(15) 0.66655(17)
H17_48 H 0.9791 0.6380 0.6608
C33_48 C 0.98003(18) 0.60910(19) 0.6786(2)
C34_48 C 0.96015(19) 0.6082(2) 0.6844(2)
H18_48 H 0.9506 0.6193 0.6811
C35_48 C 0.95357(17) 0.5905(2) 0.6956(2)
H19_48 H 0.9389 0.5888 0.6980
C36_48 C 0.9670(2) 0.57528(18) 0.7033(2)
C37_48 C 0.9873(2) 0.5786(2) 0.7026(2)
H20_48 H 0.9971 0.5699 0.7100
C38_48 C 0.9938(2) 0.5960(2) 0.6902(3)
C41_48 C 0.9549(2) 0.5579(2) 0.7170(2)
O13_48 O 0.93510(13) 0.55958(11) 0.71964(14)
C42_48 C 0.97500(17) 0.71244(15) 0.60001(16)
C43_48 C 0.95415(14) 0.73469(12) 0.58520(15)
H23_48 H 0.9421 0.7431 0.5824
C44_48 C 0.98577(19) 0.72298(14) 0.58169(16)
C46_48 C 0.98535(18) 0.69783(16) 0.61050(17)
N10_48 N 0.97636(9) 0.68646(9) 0.62671(10)
H25_48 H 0.9632 0.6888 0.6304
H26_48 H 0.9838 0.6768 0.6334
loop_
_geom_bond_atom_site_label_1
_geom_bond_atom_site_label_2
_geom_bond_site_symmetry_1
_geom_bond_site_symmetry_2
O1 C1 1_555 1_555
C1 O2 1_555 1_555
C2 C1 1_555 1_555
C3 C2 1_555 1_555
H1 C3 1_555 1_555
C4 C3 1_555 1_555
C5 H2 1_555 1_555
C6 C2 1_555 1_555
H3 C6 1_555 1_555
O3 C7 1_555 1_555
C7 O4 1_555 1_555
C8 C7 1_555 1_555
C9 C8 1_555 1_555
H4 C9 1_555 1_555
C10 C9 1_555 1_555
C11 C10 1_555 1_555
H5 C11 1_555 1_555
C12 C11 1_555 1_555
H6 C12 1_555 1_555
C13 C12 1_555 1_555
C14 C13 1_555 1_555
H7 C14 1_555 1_555
C15 C10 1_555 1_555
C16 C15 1_555 1_555
H8 C16 1_555 1_555
C17 C8 1_555 1_555
H9 C17 1_555 1_555
O5 C18 1_555 1_555
C18 C13 1_555 1_555
O6 C18 1_555 1_555
C19 N1 1_555 1_555
N1 C20 1_555 1_555
C20 H10 1_555 1_555
N2 C20 1_555 1_555
C21 C19 1_555 1_555
N3 C21 1_555 1_555
C22 N3 1_555 1_555
H11 C22 1_555 1_555
N4 C22 1_555 1_555
C23 C19 1_555 1_555
N5 C23 1_555 1_555
H12 N5 1_555 1_555
H13 N5 1_555 1_555
Zn1 O1 1_555 1_555
Zn2 N3 1_555 1_555
O7 Zn2 1_555 1_555
O8 C24 1_555 1_555
C24 O9 1_555 1_555
C25 C24 1_555 1_555
C26 C25 1_555 1_555
H14 C26 1_555 1_555
C27 C4 1_555 1_555
C28 C4 1_555 1_555
H15 C28 1_555 1_555
C29 C25 1_555 1_555
H16 C29 1_555 1_555
O10 C30 1_555 1_555
C30 O11 1_555 1_555
C31 C30 1_555 1_555
H21 C39 1_555 1_555
C40 C31 1_555 1_555
H22 C40 1_555 1_555
C45 N8 1_555 1_555
H24 C45 1_555 1_555
N9 C45 1_555 1_555
Zn3 O8 1_555 1_555
Zn4 N8 1_555 1_555
O14 Zn4 1_555 1_555
O15 Zn2 1_555 1_555
N11 Zn1 1_555 1_555
N12 Zn3 1_555 1_555
N13 Zn2 1_555 1_555
N14 Zn4 1_555 1_555
Zn6 N1 1_555 1_555
Zn7 N2 1_555 1_555
Zn10 O5 1_555 1_555
O16 Zn4 1_555 1_555
C5 C6 1_555 1_555
C5 C27 1_555 1_555
O3 Zn1 1_555 1_555
C14 C15 1_555 1_555
C16 C17 1_555 1_555
N2 C21 1_555 1_555
N4 C23 1_555 1_555
N4 Zn1 1_555 1_555
O7 Zn7 1_555 1_555
C26 C27 1_555 1_555
C28 C29 1_555 1_555
O10 Zn3 1_555 1_555
C39 C40 1_555 1_555
N9 Zn3 1_555 1_555
H17 C32 1_555 1_555
C33 C32 1_555 1_555
C34 C33 1_555 1_555
H18 C34 1_555 1_555
C35 C34 1_555 1_555
H19 C35 1_555 1_555
C36 C35 1_555 1_555
C37 C36 1_555 1_555
H20 C37 1_555 1_555
C38 C33 1_555 1_555
O12 C41 1_555 1_555
C41 C36 1_555 1_555
O13 C41 1_555 1_555
C42 N6 1_555 1_555
N6 C43 1_555 1_555
C43 H23 1_555 1_555
N7 C43 1_555 1_555
C44 C42 1_555 1_555
C46 C42 1_555 1_555
N10 C46 1_555 1_555
H25 N10 1_555 1_555
H26 N10 1_555 1_555
Zn5 N6 1_555 1_555
Zn8 N7 1_555 1_555
Zn9 O12 1_555 1_555
C37 C38 1_555 1_555
N7 C44 1_555 1_555
Zn8 O16_2 1_555 1_555
H17_2 C32_2 1_555 1_555
C33_2 C32_2 1_555 1_555
C34_2 C33_2 1_555 1_555
H18_2 C34_2 1_555 1_555
C35_2 C34_2 1_555 1_555
H19_2 C35_2 1_555 1_555
C36_2 C35_2 1_555 1_555
C37_2 C36_2 1_555 1_555
H20_2 C37_2 1_555 1_555
C38_2 C33_2 1_555 1_555
O12_2 C41_2 1_555 1_555
C41_2 C36_2 1_555 1_555
O13_2 C41_2 1_555 1_555
C42_2 N6_2 1_555 1_555
N6_2 C43_2 1_555 1_555
C43_2 H23_2 1_555 1_555
N7_2 C43_2 1_555 1_555
C44_2 C42_2 1_555 1_555
C46_2 C42_2 1_555 1_555
N10_2 C46_2 1_555 1_555
H25_2 N10_2 1_555 1_555
H26_2 N10_2 1_555 1_555
Zn5_2 N6_2 1_555 1_555
Zn8_2 N7_2 1_555 1_555
Zn9_2 O12_2 1_555 1_555
C37_2 C38_2 1_555 1_555
N7_2 C44_2 1_555 1_555
Zn8_2 O16_3 1_555 1_555
O1_2 C1_2 1_555 1_555
C1_2 O2_2 1_555 1_555
C2_2 C1_2 1_555 1_555
C3_2 C2_2 1_555 1_555
H1_2 C3_2 1_555 1_555
C4_2 C3_2 1_555 1_555
C5_2 H2_2 1_555 1_555
C6_2 C2_2 1_555 1_555
H3_2 C6_2 1_555 1_555
O3_2 C7_2 1_555 1_555
C7_2 O4_2 1_555 1_555
C8_2 C7_2 1_555 1_555
C9_2 C8_2 1_555 1_555
H4_2 C9_2 1_555 1_555
C10_2 C9_2 1_555 1_555
C11_2 C10_2 1_555 1_555
H5_2 C11_2 1_555 1_555
C12_2 C11_2 1_555 1_555
H6_2 C12_2 1_555 1_555
C13_2 C12_2 1_555 1_555
C14_2 C13_2 1_555 1_555
H7_2 C14_2 1_555 1_555
C15_2 C10_2 1_555 1_555
C16_2 C15_2 1_555 1_555
H8_2 C16_2 1_555 1_555
C17_2 C8_2 1_555 1_555
H9_2 C17_2 1_555 1_555
O5_2 C18_2 1_555 1_555
C18_2 C13_2 1_555 1_555
O6_2 C18_2 1_555 1_555
C19_2 N1_2 1_555 1_555
N1_2 C20_2 1_555 1_555
C20_2 H10_2 1_555 1_555
N2_2 C20_2 1_555 1_555
C21_2 C19_2 1_555 1_555
N3_2 C21_2 1_555 1_555
C22_2 N3_2 1_555 1_555
H11_2 C22_2 1_555 1_555
N4_2 C22_2 1_555 1_555
C23_2 C19_2 1_555 1_555
N5_2 C23_2 1_555 1_555
H12_2 N5_2 1_555 1_555
H13_2 N5_2 1_555 1_555
Zn1_2 O1_2 1_555 1_555
Zn2_2 N3_2 1_555 1_555
O7_2 Zn2_2 1_555 1_555
O8_2 C24_2 1_555 1_555
C24_2 O9_2 1_555 1_555
C25_2 C24_2 1_555 1_555
C26_2 C25_2 1_555 1_555
H14_2 C26_2 1_555 1_555
C27_2 C4_2 1_555 1_555
C28_2 C4_2 1_555 1_555
H15_2 C28_2 1_555 1_555
C29_2 C25_2 1_555 1_555
H16_2 C29_2 1_555 1_555
O10_2 C30_2 1_555 1_555
C30_2 O11_2 1_555 1_555
C31_2 C30_2 1_555 1_555
H21_2 C39_2 1_555 1_555
C40_2 C31_2 1_555 1_555
H22_2 C40_2 1_555 1_555
C45_2 N8_2 1_555 1_555
H24_2 C45_2 1_555 1_555
N9_2 C45_2 1_555 1_555
Zn3_2 O8_2 1_555 1_555
Zn4_2 N8_2 1_555 1_555
O14_2 Zn4_2 1_555 1_555
O15_2 Zn2_2 1_555 1_555
N11_2 Zn1_2 1_555 1_555
N12_2 Zn3_2 1_555 1_555
N14_2 Zn4_2 1_555 1_555
Zn6_2 N1_2 1_555 1_555
Zn10_2 O5_2 1_555 1_555
O16_4 Zn4_2 1_555 1_555
C5_2 C6_2 1_555 1_555
C5_2 C27_2 1_555 1_555
O3_2 Zn1_2 1_555 1_555
C14_2 C15_2 1_555 1_555
C16_2 C17_2 1_555 1_555
N2_2 C21_2 1_555 1_555
N4_2 C23_2 1_555 1_555
N4_2 Zn1_2 1_555 1_555
C26_2 C27_2 1_555 1_555
C28_2 C29_2 1_555 1_555
O10_2 Zn3_2 1_555 1_555
C39_2 C40_2 1_555 1_555
N9_2 Zn3_2 1_555 1_555
O7_3 Zn7_2 1_555 1_555
O1_3 C1_3 1_555 1_555
C1_3 O2_3 1_555 1_555
C2_3 C1_3 1_555 1_555
C3_3 C2_3 1_555 1_555
H1_3 C3_3 1_555 1_555
C4_3 C3_3 1_555 1_555
C5_3 H2_3 1_555 1_555
C6_3 C2_3 1_555 1_555
H3_3 C6_3 1_555 1_555
O3_3 C7_3 1_555 1_555
C7_3 O4_3 1_555 1_555
C8_3 C7_3 1_555 1_555
C9_3 C8_3 1_555 1_555
H4_3 C9_3 1_555 1_555
C10_3 C9_3 1_555 1_555
C11_3 C10_3 1_555 1_555
H5_3 C11_3 1_555 1_555
C12_3 C11_3 1_555 1_555
H6_3 C12_3 1_555 1_555
C13_3 C12_3 1_555 1_555
C14_3 C13_3 1_555 1_555
H7_3 C14_3 1_555 1_555
C15_3 C10_3 1_555 1_555
C16_3 C15_3 1_555 1_555
H8_3 C16_3 1_555 1_555
C17_3 C8_3 1_555 1_555
H9_3 C17_3 1_555 1_555
O5_3 C18_3 1_555 1_555
C18_3 C13_3 1_555 1_555
O6_3 C18_3 1_555 1_555
C19_3 N1_3 1_555 1_555
N1_3 C20_3 1_555 1_555
C20_3 H10_3 1_555 1_555
N2_3 C20_3 1_555 1_555
C21_3 C19_3 1_555 1_555
N3_3 C21_3 1_555 1_555
C22_3 N3_3 1_555 1_555
H11_3 C22_3 1_555 1_555
N4_3 C22_3 1_555 1_555
C23_3 C19_3 1_555 1_555
N5_3 C23_3 1_555 1_555
H12_3 N5_3 1_555 1_555
H13_3 N5_3 1_555 1_555
Zn1_3 O1_3 1_555 1_555
Zn2_3 N3_3 1_555 1_555
O7_4 Zn2_3 1_555 1_555
O8_3 C24_3 1_555 1_555
C24_3 O9_3 1_555 1_555
C25_3 C24_3 1_555 1_555
C26_3 C25_3 1_555 1_555
H14_3 C26_3 1_555 1_555
C27_3 C4_3 1_555 1_555
C28_3 C4_3 1_555 1_555
H15_3 C28_3 1_555 1_555
C29_3 C25_3 1_555 1_555
H16_3 C29_3 1_555 1_555
O10_3 C30_3 1_555 1_555
C30_3 O11_3 1_555 1_555
C31_3 C30_3 1_555 1_555
C32_3 C31_3 1_555 1_555
H17_3 C32_3 1_555 1_555
C33_3 C32_3 1_555 1_555
C34_3 C33_3 1_555 1_555
H18_3 C34_3 1_555 1_555
C35_3 C34_3 1_555 1_555
H19_3 C35_3 1_555 1_555
C36_3 C35_3 1_555 1_555
C37_3 C36_3 1_555 1_555
H20_3 C37_3 1_555 1_555
C38_3 C33_3 1_555 1_555
C39_3 C38_3 1_555 1_555
H21_3 C39_3 1_555 1_555
C40_3 C31_3 1_555 1_555
H22_3 C40_3 1_555 1_555
O12_3 C41_3 1_555 1_555
C41_3 C36_3 1_555 1_555
O13_3 C41_3 1_555 1_555
C42_3 N6_3 1_555 1_555
N6_3 C43_3 1_555 1_555
C43_3 H23_3 1_555 1_555
N7_3 C43_3 1_555 1_555
C44_3 C42_3 1_555 1_555
N8_3 C44_3 1_555 1_555
C45_3 N8_3 1_555 1_555
H24_3 C45_3 1_555 1_555
N9_3 C45_3 1_555 1_555
C46_3 C42_3 1_555 1_555
N10_3 C46_3 1_555 1_555
H25_3 N10_3 1_555 1_555
H26_3 N10_3 1_555 1_555
Zn3_3 O8_3 1_555 1_555
Zn4_3 N8_3 1_555 1_555
O14_3 Zn4_3 1_555 1_555
O15_3 Zn2_3 1_555 1_555
N11_3 Zn1_3 1_555 1_555
N12_3 Zn3_3 1_555 1_555
N13_3 Zn2_3 1_555 1_555
N14_3 Zn4_3 1_555 1_555
Zn5_3 N6_3 1_555 1_555
Zn6_3 N1_3 1_555 1_555
Zn7_3 N2_3 1_555 1_555
Zn8_3 N7_3 1_555 1_555
Zn9_3 O12_3 1_555 1_555
Zn10_3 O5_3 1_555 1_555
O16_5 Zn4_3 1_555 1_555
C5_3 C6_3 1_555 1_555
C5_3 C27_3 1_555 1_555
O3_3 Zn1_3 1_555 1_555
C14_3 C15_3 1_555 1_555
C16_3 C17_3 1_555 1_555
N2_3 C21_3 1_555 1_555
N4_3 C23_3 1_555 1_555
N4_3 Zn1_3 1_555 1_555
O7_4 Zn7_3 1_555 1_555
C26_3 C27_3 1_555 1_555
C28_3 C29_3 1_555 1_555
O10_3 Zn3_3 1_555 1_555
C37_3 C38_3 1_555 1_555
C39_3 C40_3 1_555 1_555
N7_3 C44_3 1_555 1_555
N9_3 C46_3 1_555 1_555
N9_3 Zn3_3 1_555 1_555
Zn8_3 O16_5 1_555 1_555
O7_5 Zn7_4 1_555 1_555
O1_4 C1_4 1_555 1_555
C1_4 O2_4 1_555 1_555
C2_4 C1_4 1_555 1_555
C3_4 C2_4 1_555 1_555
H1_4 C3_4 1_555 1_555
C4_4 C3_4 1_555 1_555
C5_4 H2_4 1_555 1_555
C6_4 C2_4 1_555 1_555
H3_4 C6_4 1_555 1_555
O3_4 C7_4 1_555 1_555
C7_4 O4_4 1_555 1_555
C8_4 C7_4 1_555 1_555
C9_4 C8_4 1_555 1_555
H4_4 C9_4 1_555 1_555
C10_4 C9_4 1_555 1_555
C11_4 C10_4 1_555 1_555
H5_4 C11_4 1_555 1_555
C12_4 C11_4 1_555 1_555
H6_4 C12_4 1_555 1_555
C13_4 C12_4 1_555 1_555
C14_4 C13_4 1_555 1_555
H7_4 C14_4 1_555 1_555
C15_4 C10_4 1_555 1_555
C16_4 C15_4 1_555 1_555
H8_4 C16_4 1_555 1_555
C17_4 C8_4 1_555 1_555
H9_4 C17_4 1_555 1_555
O5_4 C18_4 1_555 1_555
C18_4 C13_4 1_555 1_555
O6_4 C18_4 1_555 1_555
C19_4 N1_4 1_555 1_555
N1_4 C20_4 1_555 1_555
C20_4 H10_4 1_555 1_555
N2_4 C20_4 1_555 1_555
C21_4 C19_4 1_555 1_555
N3_4 C21_4 1_555 1_555
C22_4 N3_4 1_555 1_555
H11_4 C22_4 1_555 1_555
N4_4 C22_4 1_555 1_555
C23_4 C19_4 1_555 1_555
N5_4 C23_4 1_555 1_555
H12_4 N5_4 1_555 1_555
H13_4 N5_4 1_555 1_555
Zn1_4 O1_4 1_555 1_555
Zn2_4 N3_4 1_555 1_555
O7_6 Zn2_4 1_555 1_555
O8_4 C24_4 1_555 1_555
C24_4 O9_4 1_555 1_555
C25_4 C24_4 1_555 1_555
C26_4 C25_4 1_555 1_555
H14_4 C26_4 1_555 1_555
C27_4 C4_4 1_555 1_555
C28_4 C4_4 1_555 1_555
H15_4 C28_4 1_555 1_555
C29_4 C25_4 1_555 1_555
H16_4 C29_4 1_555 1_555
O10_4 C30_4 1_555 1_555
C30_4 O11_4 1_555 1_555
C31_4 C30_4 1_555 1_555
C32_4 C31_4 1_555 1_555
H17_4 C32_4 1_555 1_555
C33_4 C32_4 1_555 1_555
C34_4 C33_4 1_555 1_555
H18_4 C34_4 1_555 1_555
C35_4 C34_4 1_555 1_555
H19_4 C35_4 1_555 1_555
C36_4 C35_4 1_555 1_555
C37_4 C36_4 1_555 1_555
H20_4 C37_4 1_555 1_555
C38_4 C33_4 1_555 1_555
C39_4 C38_4 1_555 1_555
H21_4 C39_4 1_555 1_555
C40_4 C31_4 1_555 1_555
H22_4 C40_4 1_555 1_555
O12_4 C41_4 1_555 1_555
C41_4 C36_4 1_555 1_555
O13_4 C41_4 1_555 1_555
C42_4 N6_4 1_555 1_555
N6_4 C43_4 1_555 1_555
C43_4 H23_4 1_555 1_555
N7_4 C43_4 1_555 1_555
C44_4 C42_4 1_555 1_555
N8_4 C44_4 1_555 1_555
C45_4 N8_4 1_555 1_555
H24_4 C45_4 1_555 1_555
N9_4 C45_4 1_555 1_555
C46_4 C42_4 1_555 1_555
N10_4 C46_4 1_555 1_555
H25_4 N10_4 1_555 1_555
H26_4 N10_4 1_555 1_555
Zn3_4 O8_4 1_555 1_555
Zn4_4 N8_4 1_555 1_555
O14_4 Zn4_4 1_555 1_555
O15_4 Zn2_4 1_555 1_555
N11_4 Zn1_4 1_555 1_555
N12_4 Zn3_4 1_555 1_555
N14_4 Zn4_4 1_555 1_555
Zn5_4 N6_4 1_555 1_555
Zn6_4 N1_4 1_555 1_555
Zn8_4 N7_4 1_555 1_555
Zn9_4 O12_4 1_555 1_555
Zn10_4 O5_4 1_555 1_555
O16_6 Zn4_4 1_555 1_555
C5_4 C6_4 1_555 1_555
C5_4 C27_4 1_555 1_555
O3_4 Zn1_4 1_555 1_555
C14_4 C15_4 1_555 1_555
C16_4 C17_4 1_555 1_555
N2_4 C21_4 1_555 1_555
N4_4 C23_4 1_555 1_555
N4_4 Zn1_4 1_555 1_555
C26_4 C27_4 1_555 1_555
C28_4 C29_4 1_555 1_555
O10_4 Zn3_4 1_555 1_555
C37_4 C38_4 1_555 1_555
C39_4 C40_4 1_555 1_555
N7_4 C44_4 1_555 1_555
N9_4 C46_4 1_555 1_555
N9_4 Zn3_4 1_555 1_555
Zn8_4 O16_6 1_555 1_555
O1_5 C1_5 1_555 1_555
C1_5 O2_5 1_555 1_555
C2_5 C1_5 1_555 1_555
C3_5 C2_5 1_555 1_555
H1_5 C3_5 1_555 1_555
C4_5 C3_5 1_555 1_555
C5_5 H2_5 1_555 1_555
C6_5 C2_5 1_555 1_555
H3_5 C6_5 1_555 1_555
O3_5 C7_5 1_555 1_555
C7_5 O4_5 1_555 1_555
C8_5 C7_5 1_555 1_555
C9_5 C8_5 1_555 1_555
H4_5 C9_5 1_555 1_555
C10_5 C9_5 1_555 1_555
C11_5 C10_5 1_555 1_555
H5_5 C11_5 1_555 1_555
C12_5 C11_5 1_555 1_555
H6_5 C12_5 1_555 1_555
C13_5 C12_5 1_555 1_555
C14_5 C13_5 1_555 1_555
H7_5 C14_5 1_555 1_555
C15_5 C10_5 1_555 1_555
C16_5 C15_5 1_555 1_555
H8_5 C16_5 1_555 1_555
C17_5 C8_5 1_555 1_555
H9_5 C17_5 1_555 1_555
O5_5 C18_5 1_555 1_555
C18_5 C13_5 1_555 1_555
O6_5 C18_5 1_555 1_555
C19_5 N1_5 1_555 1_555
N1_5 C20_5 1_555 1_555
C20_5 H10_5 1_555 1_555
N2_5 C20_5 1_555 1_555
C21_5 C19_5 1_555 1_555
N3_5 C21_5 1_555 1_555
C22_5 N3_5 1_555 1_555
H11_5 C22_5 1_555 1_555
N4_5 C22_5 1_555 1_555
C23_5 C19_5 1_555 1_555
N5_5 C23_5 1_555 1_555
H12_5 N5_5 1_555 1_555
H13_5 N5_5 1_555 1_555
Zn1_5 O1_5 1_555 1_555
Zn2_5 N3_5 1_555 1_555
O7_7 Zn2_5 1_555 1_555
O8_5 C24_5 1_555 1_555
C24_5 O9_5 1_555 1_555
C25_5 C24_5 1_555 1_555
C26_5 C25_5 1_555 1_555
H14_5 C26_5 1_555 1_555
C27_5 C4_5 1_555 1_555
C28_5 C4_5 1_555 1_555
H15_5 C28_5 1_555 1_555
C29_5 C25_5 1_555 1_555
H16_5 C29_5 1_555 1_555
O10_5 C30_5 1_555 1_555
C30_5 O11_5 1_555 1_555
C31_5 C30_5 1_555 1_555
H21_5 C39_5 1_555 1_555
C40_5 C31_5 1_555 1_555
H22_5 C40_5 1_555 1_555
C45_5 N8_5 1_555 1_555
H24_5 C45_5 1_555 1_555
N9_5 C45_5 1_555 1_555
Zn3_5 O8_5 1_555 1_555
Zn4_5 N8_5 1_555 1_555
O14_5 Zn4_5 1_555 1_555
O15_5 Zn2_5 1_555 1_555
N11_5 Zn1_5 1_555 1_555
N12_5 Zn3_5 1_555 1_555
N13_5 Zn2_5 1_555 1_555
N14_5 Zn4_5 1_555 1_555
Zn6_5 N1_5 1_555 1_555
Zn7_5 N2_5 1_555 1_555
Zn10_5 O5_5 1_555 1_555
O16_7 Zn4_5 1_555 1_555
C5_5 C6_5 1_555 1_555
C5_5 C27_5 1_555 1_555
O3_5 Zn1_5 1_555 1_555
C14_5 C15_5 1_555 1_555
C16_5 C17_5 1_555 1_555
N2_5 C21_5 1_555 1_555
N4_5 C23_5 1_555 1_555
N4_5 Zn1_5 1_555 1_555
O7_7 Zn7_5 1_555 1_555
C26_5 C27_5 1_555 1_555
C28_5 C29_5 1_555 1_555
O10_5 Zn3_5 1_555 1_555
C39_5 C40_5 1_555 1_555
N9_5 Zn3_5 1_555 1_555
H17_5 C32_5 1_555 1_555
C33_5 C32_5 1_555 1_555
C34_5 C33_5 1_555 1_555
H18_5 C34_5 1_555 1_555
C35_5 C34_5 1_555 1_555
H19_5 C35_5 1_555 1_555
C36_5 C35_5 1_555 1_555
C37_5 C36_5 1_555 1_555
H20_5 C37_5 1_555 1_555
C38_5 C33_5 1_555 1_555
O12_5 C41_5 1_555 1_555
C41_5 C36_5 1_555 1_555
O13_5 C41_5 1_555 1_555
C42_5 N6_5 1_555 1_555
N6_5 C43_5 1_555 1_555
C43_5 H23_5 1_555 1_555
N7_5 C43_5 1_555 1_555
C44_5 C42_5 1_555 1_555
C46_5 C42_5 1_555 1_555
N10_5 C46_5 1_555 1_555
H25_5 N10_5 1_555 1_555
H26_5 N10_5 1_555 1_555
Zn5_5 N6_5 1_555 1_555
Zn8_5 N7_5 1_555 1_555
Zn9_5 O12_5 1_555 1_555
C37_5 C38_5 1_555 1_555
N7_5 C44_5 1_555 1_555
Zn8_5 O16_8 1_555 1_555
H17_6 C32_6 1_555 1_555
C33_6 C32_6 1_555 1_555
C34_6 C33_6 1_555 1_555
H18_6 C34_6 1_555 1_555
C35_6 C34_6 1_555 1_555
H19_6 C35_6 1_555 1_555
C36_6 C35_6 1_555 1_555
C37_6 C36_6 1_555 1_555
H20_6 C37_6 1_555 1_555
C38_6 C33_6 1_555 1_555
O12_6 C41_6 1_555 1_555
C41_6 C36_6 1_555 1_555
O13_6 C41_6 1_555 1_555
C42_6 N6_6 1_555 1_555
N6_6 C43_6 1_555 1_555
C43_6 H23_6 1_555 1_555
N7_6 C43_6 1_555 1_555
C44_6 C42_6 1_555 1_555
C46_6 C42_6 1_555 1_555
N10_6 C46_6 1_555 1_555
H25_6 N10_6 1_555 1_555
H26_6 N10_6 1_555 1_555
Zn5_6 N6_6 1_555 1_555
Zn8_6 N7_6 1_555 1_555
Zn9_6 O12_6 1_555 1_555
C37_6 C38_6 1_555 1_555
N7_6 C44_6 1_555 1_555
Zn8_6 O16_9 1_555 1_555
O1_6 C1_6 1_555 1_555
C1_6 O2_6 1_555 1_555
C2_6 C1_6 1_555 1_555
C3_6 C2_6 1_555 1_555
H1_6 C3_6 1_555 1_555
C4_6 C3_6 1_555 1_555
C5_6 H2_6 1_555 1_555
C6_6 C2_6 1_555 1_555
H3_6 C6_6 1_555 1_555
O3_6 C7_6 1_555 1_555
C7_6 O4_6 1_555 1_555
C8_6 C7_6 1_555 1_555
C9_6 C8_6 1_555 1_555
H4_6 C9_6 1_555 1_555
C10_6 C9_6 1_555 1_555
C11_6 C10_6 1_555 1_555
H5_6 C11_6 1_555 1_555
C12_6 C11_6 1_555 1_555
H6_6 C12_6 1_555 1_555
C13_6 C12_6 1_555 1_555
C14_6 C13_6 1_555 1_555
H7_6 C14_6 1_555 1_555
C15_6 C10_6 1_555 1_555
C16_6 C15_6 1_555 1_555
H8_6 C16_6 1_555 1_555
C17_6 C8_6 1_555 1_555
H9_6 C17_6 1_555 1_555
O5_6 C18_6 1_555 1_555
C18_6 C13_6 1_555 1_555
O6_6 C18_6 1_555 1_555
C19_6 N1_6 1_555 1_555
N1_6 C20_6 1_555 1_555
C20_6 H10_6 1_555 1_555
N2_6 C20_6 1_555 1_555
C21_6 C19_6 1_555 1_555
N3_6 C21_6 1_555 1_555
C22_6 N3_6 1_555 1_555
H11_6 C22_6 1_555 1_555
N4_6 C22_6 1_555 1_555
C23_6 C19_6 1_555 1_555
N5_6 C23_6 1_555 1_555
H12_6 N5_6 1_555 1_555
H13_6 N5_6 1_555 1_555
Zn1_6 O1_6 1_555 1_555
Zn2_6 N3_6 1_555 1_555
O7_8 Zn2_6 1_555 1_555
O8_6 C24_6 1_555 1_555
C24_6 O9_6 1_555 1_555
C25_6 C24_6 1_555 1_555
C26_6 C25_6 1_555 1_555
H14_6 C26_6 1_555 1_555
C27_6 C4_6 1_555 1_555
C28_6 C4_6 1_555 1_555
H15_6 C28_6 1_555 1_555
C29_6 C25_6 1_555 1_555
H16_6 C29_6 1_555 1_555
O10_6 C30_6 1_555 1_555
C30_6 O11_6 1_555 1_555
C31_6 C30_6 1_555 1_555
H21_6 C39_6 1_555 1_555
C40_6 C31_6 1_555 1_555
H22_6 C40_6 1_555 1_555
C45_6 N8_6 1_555 1_555
H24_6 C45_6 1_555 1_555
N9_6 C45_6 1_555 1_555
Zn3_6 O8_6 1_555 1_555
Zn4_6 N8_6 1_555 1_555
O14_6 Zn4_6 1_555 1_555
O15_6 Zn2_6 1_555 1_555
N11_6 Zn1_6 1_555 1_555
N12_6 Zn3_6 1_555 1_555
N14_6 Zn4_6 1_555 1_555
Zn6_6 N1_6 1_555 1_555
Zn10_6 O5_6 1_555 1_555
O16_10 Zn4_6 1_555 1_555
C5_6 C6_6 1_555 1_555
C5_6 C27_6 1_555 1_555
O3_6 Zn1_6 1_555 1_555
C14_6 C15_6 1_555 1_555
C16_6 C17_6 1_555 1_555
N2_6 C21_6 1_555 1_555
N4_6 C23_6 1_555 1_555
N4_6 Zn1_6 1_555 1_555
C26_6 C27_6 1_555 1_555
C28_6 C29_6 1_555 1_555
O10_6 Zn3_6 1_555 1_555
C39_6 C40_6 1_555 1_555
N9_6 Zn3_6 1_555 1_555
O7_9 Zn7_6 1_555 1_555
O1_7 C1_7 1_555 1_555
C1_7 O2_7 1_555 1_555
C2_7 C1_7 1_555 1_555
C3_7 C2_7 1_555 1_555
H1_7 C3_7 1_555 1_555
C4_7 C3_7 1_555 1_555
C5_7 H2_7 1_555 1_555
C6_7 C2_7 1_555 1_555
H3_7 C6_7 1_555 1_555
O3_7 C7_7 1_555 1_555
C7_7 O4_7 1_555 1_555
C8_7 C7_7 1_555 1_555
C9_7 C8_7 1_555 1_555
H4_7 C9_7 1_555 1_555
C10_7 C9_7 1_555 1_555
C11_7 C10_7 1_555 1_555
H5_7 C11_7 1_555 1_555
C12_7 C11_7 1_555 1_555
H6_7 C12_7 1_555 1_555
C13_7 C12_7 1_555 1_555
C14_7 C13_7 1_555 1_555
H7_7 C14_7 1_555 1_555
C15_7 C10_7 1_555 1_555
C16_7 C15_7 1_555 1_555
H8_7 C16_7 1_555 1_555
C17_7 C8_7 1_555 1_555
H9_7 C17_7 1_555 1_555
O5_7 C18_7 1_555 1_555
C18_7 C13_7 1_555 1_555
O6_7 C18_7 1_555 1_555
C19_7 N1_7 1_555 1_555
N1_7 C20_7 1_555 1_555
C20_7 H10_7 1_555 1_555
N2_7 C20_7 1_555 1_555
C21_7 C19_7 1_555 1_555
N3_7 C21_7 1_555 1_555
C22_7 N3_7 1_555 1_555
H11_7 C22_7 1_555 1_555
N4_7 C22_7 1_555 1_555
C23_7 C19_7 1_555 1_555
N5_7 C23_7 1_555 1_555
H12_7 N5_7 1_555 1_555
H13_7 N5_7 1_555 1_555
Zn1_7 O1_7 1_555 1_555
Zn2_7 N3_7 1_555 1_555
O7_10 Zn2_7 1_555 1_555
O8_7 C24_7 1_555 1_555
C24_7 O9_7 1_555 1_555
C25_7 C24_7 1_555 1_555
C26_7 C25_7 1_555 1_555
H14_7 C26_7 1_555 1_555
C27_7 C4_7 1_555 1_555
C28_7 C4_7 1_555 1_555
H15_7 C28_7 1_555 1_555
C29_7 C25_7 1_555 1_555
H16_7 C29_7 1_555 1_555
O10_7 C30_7 1_555 1_555
C30_7 O11_7 1_555 1_555
C31_7 C30_7 1_555 1_555
C32_7 C31_7 1_555 1_555
H17_7 C32_7 1_555 1_555
C33_7 C32_7 1_555 1_555
C34_7 C33_7 1_555 1_555
H18_7 C34_7 1_555 1_555
C35_7 C34_7 1_555 1_555
H19_7 C35_7 1_555 1_555
C36_7 C35_7 1_555 1_555
C37_7 C36_7 1_555 1_555
H20_7 C37_7 1_555 1_555
C38_7 C33_7 1_555 1_555
C39_7 C38_7 1_555 1_555
H21_7 C39_7 1_555 1_555
C40_7 C31_7 1_555 1_555
H22_7 C40_7 1_555 1_555
O12_7 C41_7 1_555 1_555
C41_7 C36_7 1_555 1_555
O13_7 C41_7 1_555 1_555
C42_7 N6_7 1_555 1_555
N6_7 C43_7 1_555 1_555
C43_7 H23_7 1_555 1_555
N7_7 C43_7 1_555 1_555
C44_7 C42_7 1_555 1_555
N8_7 C44_7 1_555 1_555
C45_7 N8_7 1_555 1_555
H24_7 C45_7 1_555 1_555
N9_7 C45_7 1_555 1_555
C46_7 C42_7 1_555 1_555
N10_7 C46_7 1_555 1_555
H25_7 N10_7 1_555 1_555
H26_7 N10_7 1_555 1_555
Zn3_7 O8_7 1_555 1_555
Zn4_7 N8_7 1_555 1_555
O14_7 Zn4_7 1_555 1_555
O15_7 Zn2_7 1_555 1_555
N11_7 Zn1_7 1_555 1_555
N12_7 Zn3_7 1_555 1_555
N13_7 Zn2_7 1_555 1_555
N14_7 Zn4_7 1_555 1_555
Zn5_7 N6_7 1_555 1_555
Zn6_7 N1_7 1_555 1_555
Zn7_7 N2_7 1_555 1_555
Zn8_7 N7_7 1_555 1_555
Zn9_7 O12_7 1_555 1_555
Zn10_7 O5_7 1_555 1_555
O16_11 Zn4_7 1_555 1_555
C5_7 C6_7 1_555 1_555
C5_7 C27_7 1_555 1_555
O3_7 Zn1_7 1_555 1_555
C14_7 C15_7 1_555 1_555
C16_7 C17_7 1_555 1_555
N2_7 C21_7 1_555 1_555
N4_7 C23_7 1_555 1_555
N4_7 Zn1_7 1_555 1_555
O7_10 Zn7_7 1_555 1_555
C26_7 C27_7 1_555 1_555
C28_7 C29_7 1_555 1_555
O10_7 Zn3_7 1_555 1_555
C37_7 C38_7 1_555 1_555
C39_7 C40_7 1_555 1_555
N7_7 C44_7 1_555 1_555
N9_7 C46_7 1_555 1_555
N9_7 Zn3_7 1_555 1_555
Zn8_7 O16_11 1_555 1_555
O7_11 Zn7_8 1_555 1_555
O1_8 C1_8 1_555 1_555
C1_8 O2_8 1_555 1_555
C2_8 C1_8 1_555 1_555
C3_8 C2_8 1_555 1_555
H1_8 C3_8 1_555 1_555
C4_8 C3_8 1_555 1_555
C5_8 H2_8 1_555 1_555
C6_8 C2_8 1_555 1_555
H3_8 C6_8 1_555 1_555
O3_8 C7_8 1_555 1_555
C7_8 O4_8 1_555 1_555
C8_8 C7_8 1_555 1_555
C9_8 C8_8 1_555 1_555
H4_8 C9_8 1_555 1_555
C10_8 C9_8 1_555 1_555
C11_8 C10_8 1_555 1_555
H5_8 C11_8 1_555 1_555
C12_8 C11_8 1_555 1_555
H6_8 C12_8 1_555 1_555
C13_8 C12_8 1_555 1_555
C14_8 C13_8 1_555 1_555
H7_8 C14_8 1_555 1_555
C15_8 C10_8 1_555 1_555
C16_8 C15_8 1_555 1_555
H8_8 C16_8 1_555 1_555
C17_8 C8_8 1_555 1_555
H9_8 C17_8 1_555 1_555
O5_8 C18_8 1_555 1_555
C18_8 C13_8 1_555 1_555
O6_8 C18_8 1_555 1_555
C19_8 N1_8 1_555 1_555
N1_8 C20_8 1_555 1_555
C20_8 H10_8 1_555 1_555
N2_8 C20_8 1_555 1_555
C21_8 C19_8 1_555 1_555
N3_8 C21_8 1_555 1_555
C22_8 N3_8 1_555 1_555
H11_8 C22_8 1_555 1_555
N4_8 C22_8 1_555 1_555
C23_8 C19_8 1_555 1_555
N5_8 C23_8 1_555 1_555
H12_8 N5_8 1_555 1_555
H13_8 N5_8 1_555 1_555
Zn1_8 O1_8 1_555 1_555
Zn2_8 N3_8 1_555 1_555
O7_12 Zn2_8 1_555 1_555
O8_8 C24_8 1_555 1_555
C24_8 O9_8 1_555 1_555
C25_8 C24_8 1_555 1_555
C26_8 C25_8 1_555 1_555
H14_8 C26_8 1_555 1_555
C27_8 C4_8 1_555 1_555
C28_8 C4_8 1_555 1_555
H15_8 C28_8 1_555 1_555
C29_8 C25_8 1_555 1_555
H16_8 C29_8 1_555 1_555
O10_8 C30_8 1_555 1_555
C30_8 O11_8 1_555 1_555
C31_8 C30_8 1_555 1_555
C32_8 C31_8 1_555 1_555
H17_8 C32_8 1_555 1_555
C33_8 C32_8 1_555 1_555
C34_8 C33_8 1_555 1_555
H18_8 C34_8 1_555 1_555
C35_8 C34_8 1_555 1_555
H19_8 C35_8 1_555 1_555
C36_8 C35_8 1_555 1_555
C37_8 C36_8 1_555 1_555
H20_8 C37_8 1_555 1_555
C38_8 C33_8 1_555 1_555
C39_8 C38_8 1_555 1_555
H21_8 C39_8 1_555 1_555
C40_8 C31_8 1_555 1_555
H22_8 C40_8 1_555 1_555
O12_8 C41_8 1_555 1_555
C41_8 C36_8 1_555 1_555
O13_8 C41_8 1_555 1_555
C42_8 N6_8 1_555 1_555
N6_8 C43_8 1_555 1_555
C43_8 H23_8 1_555 1_555
N7_8 C43_8 1_555 1_555
C44_8 C42_8 1_555 1_555
N8_8 C44_8 1_555 1_555
C45_8 N8_8 1_555 1_555
H24_8 C45_8 1_555 1_555
N9_8 C45_8 1_555 1_555
C46_8 C42_8 1_555 1_555
N10_8 C46_8 1_555 1_555
H25_8 N10_8 1_555 1_555
H26_8 N10_8 1_555 1_555
Zn3_8 O8_8 1_555 1_555
Zn4_8 N8_8 1_555 1_555
O14_8 Zn4_8 1_555 1_555
O15_8 Zn2_8 1_555 1_555
N11_8 Zn1_8 1_555 1_555
N12_8 Zn3_8 1_555 1_555
N14_8 Zn4_8 1_555 1_555
Zn5_8 N6_8 1_555 1_555
Zn6_8 N1_8 1_555 1_555
Zn8_8 N7_8 1_555 1_555
Zn9_8 O12_8 1_555 1_555
Zn10_8 O5_8 1_555 1_555
O16_12 Zn4_8 1_555 1_555
C5_8 C6_8 1_555 1_555
C5_8 C27_8 1_555 1_555
O3_8 Zn1_8 1_555 1_555
C14_8 C15_8 1_555 1_555
C16_8 C17_8 1_555 1_555
N2_8 C21_8 1_555 1_555
N4_8 C23_8 1_555 1_555
N4_8 Zn1_8 1_555 1_555
C26_8 C27_8 1_555 1_555
C28_8 C29_8 1_555 1_555
O10_8 Zn3_8 1_555 1_555
C37_8 C38_8 1_555 1_555
C39_8 C40_8 1_555 1_555
N7_8 C44_8 1_555 1_555
N9_8 C46_8 1_555 1_555
N9_8 Zn3_8 1_555 1_555
Zn8_8 O16_12 1_555 1_555
O1_9 C1_9 1_555 1_555
C1_9 O2_9 1_555 1_555
C2_9 C1_9 1_555 1_555
C3_9 C2_9 1_555 1_555
H1_9 C3_9 1_555 1_555
C4_9 C3_9 1_555 1_555
C5_9 H2_9 1_555 1_555
C6_9 C2_9 1_555 1_555
H3_9 C6_9 1_555 1_555
O3_9 C7_9 1_555 1_555
C7_9 O4_9 1_555 1_555
C8_9 C7_9 1_555 1_555
C9_9 C8_9 1_555 1_555
H4_9 C9_9 1_555 1_555
C10_9 C9_9 1_555 1_555
C11_9 C10_9 1_555 1_555
H5_9 C11_9 1_555 1_555
C12_9 C11_9 1_555 1_555
H6_9 C12_9 1_555 1_555
C13_9 C12_9 1_555 1_555
C14_9 C13_9 1_555 1_555
H7_9 C14_9 1_555 1_555
C15_9 C10_9 1_555 1_555
C16_9 C15_9 1_555 1_555
H8_9 C16_9 1_555 1_555
C17_9 C8_9 1_555 1_555
H9_9 C17_9 1_555 1_555
O5_9 C18_9 1_555 1_555
C18_9 C13_9 1_555 1_555
O6_9 C18_9 1_555 1_555
C19_9 N1_9 1_555 1_555
N1_9 C20_9 1_555 1_555
C20_9 H10_9 1_555 1_555
N2_9 C20_9 1_555 1_555
C21_9 C19_9 1_555 1_555
N3_9 C21_9 1_555 1_555
C22_9 N3_9 1_555 1_555
H11_9 C22_9 1_555 1_555
N4_9 C22_9 1_555 1_555
C23_9 C19_9 1_555 1_555
N5_9 C23_9 1_555 1_555
H12_9 N5_9 1_555 1_555
H13_9 N5_9 1_555 1_555
Zn1_9 O1_9 1_555 1_555
Zn2_9 N3_9 1_555 1_555
O7_13 Zn2_9 1_555 1_555
O8_9 C24_9 1_555 1_555
C24_9 O9_9 1_555 1_555
C25_9 C24_9 1_555 1_555
C26_9 C25_9 1_555 1_555
H14_9 C26_9 1_555 1_555
C27_9 C4_9 1_555 1_555
C28_9 C4_9 1_555 1_555
H15_9 C28_9 1_555 1_555
C29_9 C25_9 1_555 1_555
H16_9 C29_9 1_555 1_555
O10_9 C30_9 1_555 1_555
C30_9 O11_9 1_555 1_555
C31_9 C30_9 1_555 1_555
H21_9 C39_9 1_555 1_555
C40_9 C31_9 1_555 1_555
H22_9 C40_9 1_555 1_555
C45_9 N8_9 1_555 1_555
H24_9 C45_9 1_555 1_555
N9_9 C45_9 1_555 1_555
Zn3_9 O8_9 1_555 1_555
Zn4_9 N8_9 1_555 1_555
O14_9 Zn4_9 1_555 1_555
O15_9 Zn2_9 1_555 1_555
N11_9 Zn1_9 1_555 1_555
N12_9 Zn3_9 1_555 1_555
N13_9 Zn2_9 1_555 1_555
N14_9 Zn4_9 1_555 1_555
Zn6_9 N1_9 1_555 1_555
Zn7_9 N2_9 1_555 1_555
Zn10_9 O5_9 1_555 1_555
O16_13 Zn4_9 1_555 1_555
C5_9 C6_9 1_555 1_555
C5_9 C27_9 1_555 1_555
O3_9 Zn1_9 1_555 1_555
C14_9 C15_9 1_555 1_555
C16_9 C17_9 1_555 1_555
N2_9 C21_9 1_555 1_555
N4_9 C23_9 1_555 1_555
N4_9 Zn1_9 1_555 1_555
O7_13 Zn7_9 1_555 1_555
C26_9 C27_9 1_555 1_555
C28_9 C29_9 1_555 1_555
O10_9 Zn3_9 1_555 1_555
C39_9 C40_9 1_555 1_555
N9_9 Zn3_9 1_555 1_555
H17_9 C32_9 1_555 1_555
C33_9 C32_9 1_555 1_555
C34_9 C33_9 1_555 1_555
H18_9 C34_9 1_555 1_555
C35_9 C34_9 1_555 1_555
H19_9 C35_9 1_555 1_555
C36_9 C35_9 1_555 1_555
C37_9 C36_9 1_555 1_555
H20_9 C37_9 1_555 1_555
C38_9 C33_9 1_555 1_555
O12_9 C41_9 1_555 1_555
C41_9 C36_9 1_555 1_555
O13_9 C41_9 1_555 1_555
C42_9 N6_9 1_555 1_555
N6_9 C43_9 1_555 1_555
C43_9 H23_9 1_555 1_555
N7_9 C43_9 1_555 1_555
C44_9 C42_9 1_555 1_555
C46_9 C42_9 1_555 1_555
N10_9 C46_9 1_555 1_555
H25_9 N10_9 1_555 1_555
H26_9 N10_9 1_555 1_555
Zn5_9 N6_9 1_555 1_555
Zn8_9 N7_9 1_555 1_555
Zn9_9 O12_9 1_555 1_555
C37_9 C38_9 1_555 1_555
N7_9 C44_9 1_555 1_555
Zn8_9 O16_14 1_555 1_555
H17_10 C32_10 1_555 1_555
C33_10 C32_10 1_555 1_555
C34_10 C33_10 1_555 1_555
H18_10 C34_10 1_555 1_555
C35_10 C34_10 1_555 1_555
H19_10 C35_10 1_555 1_555
C36_10 C35_10 1_555 1_555
C37_10 C36_10 1_555 1_555
H20_10 C37_10 1_555 1_555
C38_10 C33_10 1_555 1_555
O12_10 C41_10 1_555 1_555
C41_10 C36_10 1_555 1_555
O13_10 C41_10 1_555 1_555
C42_10 N6_10 1_555 1_555
N6_10 C43_10 1_555 1_555
C43_10 H23_10 1_555 1_555
N7_10 C43_10 1_555 1_555
C44_10 C42_10 1_555 1_555
C46_10 C42_10 1_555 1_555
N10_10 C46_10 1_555 1_555
H25_10 N10_10 1_555 1_555
H26_10 N10_10 1_555 1_555
Zn5_10 N6_10 1_555 1_555
Zn8_10 N7_10 1_555 1_555
Zn9_10 O12_10 1_555 1_555
C37_10 C38_10 1_555 1_555
N7_10 C44_10 1_555 1_555
Zn8_10 O16_15 1_555 1_555
O1_10 C1_10 1_555 1_555
C1_10 O2_10 1_555 1_555
C2_10 C1_10 1_555 1_555
C3_10 C2_10 1_555 1_555
H1_10 C3_10 1_555 1_555
C4_10 C3_10 1_555 1_555
C5_10 H2_10 1_555 1_555
C6_10 C2_10 1_555 1_555
H3_10 C6_10 1_555 1_555
O3_10 C7_10 1_555 1_555
C7_10 O4_10 1_555 1_555
C8_10 C7_10 1_555 1_555
C9_10 C8_10 1_555 1_555
H4_10 C9_10 1_555 1_555
C10_10 C9_10 1_555 1_555
C11_10 C10_10 1_555 1_555
H5_10 C11_10 1_555 1_555
C12_10 C11_10 1_555 1_555
H6_10 C12_10 1_555 1_555
C13_10 C12_10 1_555 1_555
C14_10 C13_10 1_555 1_555
H7_10 C14_10 1_555 1_555
C15_10 C10_10 1_555 1_555
C16_10 C15_10 1_555 1_555
H8_10 C16_10 1_555 1_555
C17_10 C8_10 1_555 1_555
H9_10 C17_10 1_555 1_555
O5_10 C18_10 1_555 1_555
C18_10 C13_10 1_555 1_555
O6_10 C18_10 1_555 1_555
C19_10 N1_10 1_555 1_555
N1_10 C20_10 1_555 1_555
C20_10 H10_10 1_555 1_555
N2_10 C20_10 1_555 1_555
C21_10 C19_10 1_555 1_555
N3_10 C21_10 1_555 1_555
C22_10 N3_10 1_555 1_555
H11_10 C22_10 1_555 1_555
N4_10 C22_10 1_555 1_555
C23_10 C19_10 1_555 1_555
N5_10 C23_10 1_555 1_555
H12_10 N5_10 1_555 1_555
H13_10 N5_10 1_555 1_555
Zn1_10 O1_10 1_555 1_555
Zn2_10 N3_10 1_555 1_555
O7_14 Zn2_10 1_555 1_555
O8_10 C24_10 1_555 1_555
C24_10 O9_10 1_555 1_555
C25_10 C24_10 1_555 1_555
C26_10 C25_10 1_555 1_555
H14_10 C26_10 1_555 1_555
C27_10 C4_10 1_555 1_555
C28_10 C4_10 1_555 1_555
H15_10 C28_10 1_555 1_555
C29_10 C25_10 1_555 1_555
H16_10 C29_10 1_555 1_555
O10_10 C30_10 1_555 1_555
C30_10 O11_10 1_555 1_555
C31_10 C30_10 1_555 1_555
H21_10 C39_10 1_555 1_555
C40_10 C31_10 1_555 1_555
H22_10 C40_10 1_555 1_555
C45_10 N8_10 1_555 1_555
H24_10 C45_10 1_555 1_555
N9_10 C45_10 1_555 1_555
Zn3_10 O8_10 1_555 1_555
Zn4_10 N8_10 1_555 1_555
O14_10 Zn4_10 1_555 1_555
O15_10 Zn2_10 1_555 1_555
N11_10 Zn1_10 1_555 1_555
N12_10 Zn3_10 1_555 1_555
N14_10 Zn4_10 1_555 1_555
Zn6_10 N1_10 1_555 1_555
Zn10_10 O5_10 1_555 1_555
O16_16 Zn4_10 1_555 1_555
C5_10 C6_10 1_555 1_555
C5_10 C27_10 1_555 1_555
O3_10 Zn1_10 1_555 1_555
C14_10 C15_10 1_555 1_555
C16_10 C17_10 1_555 1_555
N2_10 C21_10 1_555 1_555
N4_10 C23_10 1_555 1_555
N4_10 Zn1_10 1_555 1_555
C26_10 C27_10 1_555 1_555
C28_10 C29_10 1_555 1_555
O10_10 Zn3_10 1_555 1_555
C39_10 C40_10 1_555 1_555
N9_10 Zn3_10 1_555 1_555
O7_15 Zn7_10 1_555 1_555
O1_11 C1_11 1_555 1_555
C1_11 O2_11 1_555 1_555
C2_11 C1_11 1_555 1_555
C3_11 C2_11 1_555 1_555
H1_11 C3_11 1_555 1_555
C4_11 C3_11 1_555 1_555
C5_11 H2_11 1_555 1_555
C6_11 C2_11 1_555 1_555
H3_11 C6_11 1_555 1_555
O3_11 C7_11 1_555 1_555
C7_11 O4_11 1_555 1_555
C8_11 C7_11 1_555 1_555
C9_11 C8_11 1_555 1_555
H4_11 C9_11 1_555 1_555
C10_11 C9_11 1_555 1_555
C11_11 C10_11 1_555 1_555
H5_11 C11_11 1_555 1_555
C12_11 C11_11 1_555 1_555
H6_11 C12_11 1_555 1_555
C13_11 C12_11 1_555 1_555
C14_11 C13_11 1_555 1_555
H7_11 C14_11 1_555 1_555
C15_11 C10_11 1_555 1_555
C16_11 C15_11 1_555 1_555
H8_11 C16_11 1_555 1_555
C17_11 C8_11 1_555 1_555
H9_11 C17_11 1_555 1_555
O5_11 C18_11 1_555 1_555
C18_11 C13_11 1_555 1_555
O6_11 C18_11 1_555 1_555
C19_11 N1_11 1_555 1_555
N1_11 C20_11 1_555 1_555
C20_11 H10_11 1_555 1_555
N2_11 C20_11 1_555 1_555
C21_11 C19_11 1_555 1_555
N3_11 C21_11 1_555 1_555
C22_11 N3_11 1_555 1_555
H11_11 C22_11 1_555 1_555
N4_11 C22_11 1_555 1_555
C23_11 C19_11 1_555 1_555
N5_11 C23_11 1_555 1_555
H12_11 N5_11 1_555 1_555
H13_11 N5_11 1_555 1_555
Zn1_11 O1_11 1_555 1_555
Zn2_11 N3_11 1_555 1_555
O7_16 Zn2_11 1_555 1_555
O8_11 C24_11 1_555 1_555
C24_11 O9_11 1_555 1_555
C25_11 C24_11 1_555 1_555
C26_11 C25_11 1_555 1_555
H14_11 C26_11 1_555 1_555
C27_11 C4_11 1_555 1_555
C28_11 C4_11 1_555 1_555
H15_11 C28_11 1_555 1_555
C29_11 C25_11 1_555 1_555
H16_11 C29_11 1_555 1_555
O10_11 C30_11 1_555 1_555
C30_11 O11_11 1_555 1_555
C31_11 C30_11 1_555 1_555
C32_11 C31_11 1_555 1_555
H17_11 C32_11 1_555 1_555
C33_11 C32_11 1_555 1_555
C34_11 C33_11 1_555 1_555
H18_11 C34_11 1_555 1_555
C35_11 C34_11 1_555 1_555
H19_11 C35_11 1_555 1_555
C36_11 C35_11 1_555 1_555
C37_11 C36_11 1_555 1_555
H20_11 C37_11 1_555 1_555
C38_11 C33_11 1_555 1_555
C39_11 C38_11 1_555 1_555
H21_11 C39_11 1_555 1_555
C40_11 C31_11 1_555 1_555
H22_11 C40_11 1_555 1_555
O12_11 C41_11 1_555 1_555
C41_11 C36_11 1_555 1_555
O13_11 C41_11 1_555 1_555
C42_11 N6_11 1_555 1_555
N6_11 C43_11 1_555 1_555
C43_11 H23_11 1_555 1_555
N7_11 C43_11 1_555 1_555
C44_11 C42_11 1_555 1_555
N8_11 C44_11 1_555 1_555
C45_11 N8_11 1_555 1_555
H24_11 C45_11 1_555 1_555
N9_11 C45_11 1_555 1_555
C46_11 C42_11 1_555 1_555
N10_11 C46_11 1_555 1_555
H25_11 N10_11 1_555 1_555
H26_11 N10_11 1_555 1_555
Zn3_11 O8_11 1_555 1_555
Zn4_11 N8_11 1_555 1_555
O14_11 Zn4_11 1_555 1_555
O15_11 Zn2_11 1_555 1_555
N11_11 Zn1_11 1_555 1_555
N12_11 Zn3_11 1_555 1_555
N13_11 Zn2_11 1_555 1_555
N14_11 Zn4_11 1_555 1_555
Zn5_11 N6_11 1_555 1_555
Zn6_11 N1_11 1_555 1_555
Zn7_11 N2_11 1_555 1_555
Zn8_11 N7_11 1_555 1_555
Zn9_11 O12_11 1_555 1_555
Zn10_11 O5_11 1_555 1_555
O16_17 Zn4_11 1_555 1_555
C5_11 C6_11 1_555 1_555
C5_11 C27_11 1_555 1_555
O3_11 Zn1_11 1_555 1_555
C14_11 C15_11 1_555 1_555
C16_11 C17_11 1_555 1_555
N2_11 C21_11 1_555 1_555
N4_11 C23_11 1_555 1_555
N4_11 Zn1_11 1_555 1_555
O7_16 Zn7_11 1_555 1_555
C26_11 C27_11 1_555 1_555
C28_11 C29_11 1_555 1_555
O10_11 Zn3_11 1_555 1_555
C37_11 C38_11 1_555 1_555
C39_11 C40_11 1_555 1_555
N7_11 C44_11 1_555 1_555
N9_11 C46_11 1_555 1_555
N9_11 Zn3_11 1_555 1_555
Zn8_11 O16_17 1_555 1_555
O7_17 Zn7_12 1_555 1_555
O1_12 C1_12 1_555 1_555
C1_12 O2_12 1_555 1_555
C2_12 C1_12 1_555 1_555
C3_12 C2_12 1_555 1_555
H1_12 C3_12 1_555 1_555
C4_12 C3_12 1_555 1_555
C5_12 H2_12 1_555 1_555
C6_12 C2_12 1_555 1_555
H3_12 C6_12 1_555 1_555
O3_12 C7_12 1_555 1_555
C7_12 O4_12 1_555 1_555
C8_12 C7_12 1_555 1_555
C9_12 C8_12 1_555 1_555
H4_12 C9_12 1_555 1_555
C10_12 C9_12 1_555 1_555
C11_12 C10_12 1_555 1_555
H5_12 C11_12 1_555 1_555
C12_12 C11_12 1_555 1_555
H6_12 C12_12 1_555 1_555
C13_12 C12_12 1_555 1_555
C14_12 C13_12 1_555 1_555
H7_12 C14_12 1_555 1_555
C15_12 C10_12 1_555 1_555
C16_12 C15_12 1_555 1_555
H8_12 C16_12 1_555 1_555
C17_12 C8_12 1_555 1_555
H9_12 C17_12 1_555 1_555
O5_12 C18_12 1_555 1_555
C18_12 C13_12 1_555 1_555
O6_12 C18_12 1_555 1_555
C19_12 N1_12 1_555 1_555
N1_12 C20_12 1_555 1_555
C20_12 H10_12 1_555 1_555
N2_12 C20_12 1_555 1_555
C21_12 C19_12 1_555 1_555
N3_12 C21_12 1_555 1_555
C22_12 N3_12 1_555 1_555
H11_12 C22_12 1_555 1_555
N4_12 C22_12 1_555 1_555
C23_12 C19_12 1_555 1_555
N5_12 C23_12 1_555 1_555
H12_12 N5_12 1_555 1_555
H13_12 N5_12 1_555 1_555
Zn1_12 O1_12 1_555 1_555
Zn2_12 N3_12 1_555 1_555
O7_18 Zn2_12 1_555 1_555
O8_12 C24_12 1_555 1_555
C24_12 O9_12 1_555 1_555
C25_12 C24_12 1_555 1_555
C26_12 C25_12 1_555 1_555
H14_12 C26_12 1_555 1_555
C27_12 C4_12 1_555 1_555
C28_12 C4_12 1_555 1_555
H15_12 C28_12 1_555 1_555
C29_12 C25_12 1_555 1_555
H16_12 C29_12 1_555 1_555
O10_12 C30_12 1_555 1_555
C30_12 O11_12 1_555 1_555
C31_12 C30_12 1_555 1_555
C32_12 C31_12 1_555 1_555
H17_12 C32_12 1_555 1_555
C33_12 C32_12 1_555 1_555
C34_12 C33_12 1_555 1_555
H18_12 C34_12 1_555 1_555
C35_12 C34_12 1_555 1_555
H19_12 C35_12 1_555 1_555
C36_12 C35_12 1_555 1_555
C37_12 C36_12 1_555 1_555
H20_12 C37_12 1_555 1_555
C38_12 C33_12 1_555 1_555
C39_12 C38_12 1_555 1_555
H21_12 C39_12 1_555 1_555
C40_12 C31_12 1_555 1_555
H22_12 C40_12 1_555 1_555
O12_12 C41_12 1_555 1_555
C41_12 C36_12 1_555 1_555
O13_12 C41_12 1_555 1_555
C42_12 N6_12 1_555 1_555
N6_12 C43_12 1_555 1_555
C43_12 H23_12 1_555 1_555
N7_12 C43_12 1_555 1_555
C44_12 C42_12 1_555 1_555
N8_12 C44_12 1_555 1_555
C45_12 N8_12 1_555 1_555
H24_12 C45_12 1_555 1_555
N9_12 C45_12 1_555 1_555
C46_12 C42_12 1_555 1_555
N10_12 C46_12 1_555 1_555
H25_12 N10_12 1_555 1_555
H26_12 N10_12 1_555 1_555
Zn3_12 O8_12 1_555 1_555
Zn4_12 N8_12 1_555 1_555
O14_12 Zn4_12 1_555 1_555
O15_12 Zn2_12 1_555 1_555
N11_12 Zn1_12 1_555 1_555
N12_12 Zn3_12 1_555 1_555
N14_12 Zn4_12 1_555 1_555
Zn5_12 N6_12 1_555 1_555
Zn6_12 N1_12 1_555 1_555
Zn8_12 N7_12 1_555 1_555
Zn9_12 O12_12 1_555 1_555
Zn10_12 O5_12 1_555 1_555
O16_18 Zn4_12 1_555 1_555
C5_12 C6_12 1_555 1_555
C5_12 C27_12 1_555 1_555
O3_12 Zn1_12 1_555 1_555
C14_12 C15_12 1_555 1_555
C16_12 C17_12 1_555 1_555
N2_12 C21_12 1_555 1_555
N4_12 C23_12 1_555 1_555
N4_12 Zn1_12 1_555 1_555
C26_12 C27_12 1_555 1_555
C28_12 C29_12 1_555 1_555
O10_12 Zn3_12 1_555 1_555
C37_12 C38_12 1_555 1_555
C39_12 C40_12 1_555 1_555
N7_12 C44_12 1_555 1_555
N9_12 C46_12 1_555 1_555
N9_12 Zn3_12 1_555 1_555
Zn8_12 O16_18 1_555 1_555
O1_13 C1_13 1_555 1_555
C1_13 O2_13 1_555 1_555
C2_13 C1_13 1_555 1_555
C3_13 C2_13 1_555 1_555
H1_13 C3_13 1_555 1_555
C4_13 C3_13 1_555 1_555
C5_13 H2_13 1_555 1_555
C6_13 C2_13 1_555 1_555
H3_13 C6_13 1_555 1_555
O3_13 C7_13 1_555 1_555
C7_13 O4_13 1_555 1_555
C8_13 C7_13 1_555 1_555
C9_13 C8_13 1_555 1_555
H4_13 C9_13 1_555 1_555
C10_13 C9_13 1_555 1_555
C11_13 C10_13 1_555 1_555
H5_13 C11_13 1_555 1_555
C12_13 C11_13 1_555 1_555
H6_13 C12_13 1_555 1_555
C13_13 C12_13 1_555 1_555
C14_13 C13_13 1_555 1_555
H7_13 C14_13 1_555 1_555
C15_13 C10_13 1_555 1_555
C16_13 C15_13 1_555 1_555
H8_13 C16_13 1_555 1_555
C17_13 C8_13 1_555 1_555
H9_13 C17_13 1_555 1_555
O5_13 C18_13 1_555 1_555
C18_13 C13_13 1_555 1_555
O6_13 C18_13 1_555 1_555
C19_13 N1_13 1_555 1_555
N1_13 C20_13 1_555 1_555
C20_13 H10_13 1_555 1_555
N13_2 C20_13 1_555 1_555
C21_13 C19_13 1_555 1_555
N3_13 C21_13 1_555 1_555
C22_13 N3_13 1_555 1_555
H11_13 C22_13 1_555 1_555
N4_13 C22_13 1_555 1_555
C23_13 C19_13 1_555 1_555
N5_13 C23_13 1_555 1_555
H12_13 N5_13 1_555 1_555
H13_13 N5_13 1_555 1_555
Zn1_13 O1_13 1_555 1_555
Zn7_2 N3_13 1_555 1_555
O8_13 C24_13 1_555 1_555
C24_13 O9_13 1_555 1_555
C25_13 C24_13 1_555 1_555
C26_13 C25_13 1_555 1_555
H14_13 C26_13 1_555 1_555
C27_13 C4_13 1_555 1_555
C28_13 C4_13 1_555 1_555
H15_13 C28_13 1_555 1_555
C29_13 C25_13 1_555 1_555
H16_13 C29_13 1_555 1_555
O10_13 C30_13 1_555 1_555
C30_13 O11_13 1_555 1_555
C31_13 C30_13 1_555 1_555
C32_13 C31_13 1_555 1_555
H17_13 C32_13 1_555 1_555
C33_13 C32_13 1_555 1_555
C34_13 C33_13 1_555 1_555
H18_13 C34_13 1_555 1_555
C35_13 C34_13 1_555 1_555
H19_13 C35_13 1_555 1_555
C36_13 C35_13 1_555 1_555
C37_13 C36_13 1_555 1_555
H20_13 C37_13 1_555 1_555
C38_13 C33_13 1_555 1_555
C39_13 C38_13 1_555 1_555
H21_13 C39_13 1_555 1_555
C40_13 C31_13 1_555 1_555
H22_13 C40_13 1_555 1_555
O12_13 C41_13 1_555 1_555
C41_13 C36_13 1_555 1_555
O13_13 C41_13 1_555 1_555
C42_13 N6_13 1_555 1_555
N6_13 C43_13 1_555 1_555
C43_13 H23_13 1_555 1_555
N14_4 C43_13 1_555 1_555
C44_13 C42_13 1_555 1_555
N8_13 C44_13 1_555 1_555
C45_13 N8_13 1_555 1_555
H24_13 C45_13 1_555 1_555
N9_13 C45_13 1_555 1_555
C46_13 C42_13 1_555 1_555
N10_13 C46_13 1_555 1_555
H25_13 N10_13 1_555 1_555
H26_13 N10_13 1_555 1_555
Zn3_13 O8_13 1_555 1_555
Zn8_4 N8_13 1_555 1_555
O14_13 Zn8_4 1_555 1_555
O15_13 Zn7_2 1_555 1_555
N11_13 Zn1_13 1_555 1_555
N12_13 Zn3_13 1_555 1_555
Zn5_13 N6_13 1_555 1_555
Zn6_13 N1_13 1_555 1_555
Zn9_13 O12_13 1_555 1_555
Zn10_13 O5_13 1_555 1_555
C5_13 C6_13 1_555 1_555
C5_13 C27_13 1_555 1_555
O3_13 Zn1_13 1_555 1_555
C14_13 C15_13 1_555 1_555
C16_13 C17_13 1_555 1_555
N13_2 C21_13 1_555 1_555
N4_13 C23_13 1_555 1_555
N4_13 Zn1_13 1_555 1_555
C26_13 C27_13 1_555 1_555
C28_13 C29_13 1_555 1_555
O10_13 Zn3_13 1_555 1_555
C37_13 C38_13 1_555 1_555
C39_13 C40_13 1_555 1_555
N14_4 C44_13 1_555 1_555
N9_13 C46_13 1_555 1_555
N9_13 Zn3_13 1_555 1_555
O1_14 C1_14 1_555 1_555
C1_14 O2_14 1_555 1_555
C2_14 C1_14 1_555 1_555
C3_14 C2_14 1_555 1_555
H1_14 C3_14 1_555 1_555
C4_14 C3_14 1_555 1_555
C5_14 H2_14 1_555 1_555
C6_14 C2_14 1_555 1_555
H3_14 C6_14 1_555 1_555
O3_14 C7_14 1_555 1_555
C7_14 O4_14 1_555 1_555
C8_14 C7_14 1_555 1_555
C9_14 C8_14 1_555 1_555
H4_14 C9_14 1_555 1_555
C10_14 C9_14 1_555 1_555
C11_14 C10_14 1_555 1_555
H5_14 C11_14 1_555 1_555
C12_14 C11_14 1_555 1_555
H6_14 C12_14 1_555 1_555
C13_14 C12_14 1_555 1_555
C14_14 C13_14 1_555 1_555
H7_14 C14_14 1_555 1_555
C15_14 C10_14 1_555 1_555
C16_14 C15_14 1_555 1_555
H8_14 C16_14 1_555 1_555
C17_14 C8_14 1_555 1_555
H9_14 C17_14 1_555 1_555
O5_14 C18_14 1_555 1_555
C18_14 C13_14 1_555 1_555
O6_14 C18_14 1_555 1_555
C19_14 N1_14 1_555 1_555
N1_14 C20_14 1_555 1_555
C20_14 H10_14 1_555 1_555
N13 C20_14 1_555 1_555
C21_14 C19_14 1_555 1_555
N3_14 C21_14 1_555 1_555
C22_14 N3_14 1_555 1_555
H11_14 C22_14 1_555 1_555
N4_14 C22_14 1_555 1_555
C23_14 C19_14 1_555 1_555
N5_14 C23_14 1_555 1_555
H12_14 N5_14 1_555 1_555
H13_14 N5_14 1_555 1_555
Zn1_14 O1_14 1_555 1_555
Zn7 N3_14 1_555 1_555
O8_14 C24_14 1_555 1_555
C24_14 O9_14 1_555 1_555
C25_14 C24_14 1_555 1_555
C26_14 C25_14 1_555 1_555
H14_14 C26_14 1_555 1_555
C27_14 C4_14 1_555 1_555
C28_14 C4_14 1_555 1_555
H15_14 C28_14 1_555 1_555
C29_14 C25_14 1_555 1_555
H16_14 C29_14 1_555 1_555
O10_14 C30_14 1_555 1_555
C30_14 O11_14 1_555 1_555
C31_14 C30_14 1_555 1_555
C32_14 C31_14 1_555 1_555
H17_14 C32_14 1_555 1_555
C33_14 C32_14 1_555 1_555
C34_14 C33_14 1_555 1_555
H18_14 C34_14 1_555 1_555
C35_14 C34_14 1_555 1_555
H19_14 C35_14 1_555 1_555
C36_14 C35_14 1_555 1_555
C37_14 C36_14 1_555 1_555
H20_14 C37_14 1_555 1_555
C38_14 C33_14 1_555 1_555
C39_14 C38_14 1_555 1_555
H21_14 C39_14 1_555 1_555
C40_14 C31_14 1_555 1_555
H22_14 C40_14 1_555 1_555
O12_14 C41_14 1_555 1_555
C41_14 C36_14 1_555 1_555
O13_14 C41_14 1_555 1_555
C42_14 N6_14 1_555 1_555
N6_14 C43_14 1_555 1_555
C43_14 H23_14 1_555 1_555
N14_3 C43_14 1_555 1_555
C44_14 C42_14 1_555 1_555
N8_14 C44_14 1_555 1_555
C45_14 N8_14 1_555 1_555
H24_14 C45_14 1_555 1_555
N9_14 C45_14 1_555 1_555
C46_14 C42_14 1_555 1_555
N10_14 C46_14 1_555 1_555
H25_14 N10_14 1_555 1_555
H26_14 N10_14 1_555 1_555
Zn3_14 O8_14 1_555 1_555
Zn8_3 N8_14 1_555 1_555
O14_14 Zn8_3 1_555 1_555
O15_14 Zn7 1_555 1_555
N11_14 Zn1_14 1_555 1_555
N12_14 Zn3_14 1_555 1_555
Zn5_14 N6_14 1_555 1_555
Zn6_14 N1_14 1_555 1_555
Zn9_14 O12_14 1_555 1_555
Zn10_14 O5_14 1_555 1_555
C5_14 C6_14 1_555 1_555
C5_14 C27_14 1_555 1_555
O3_14 Zn1_14 1_555 1_555
C14_14 C15_14 1_555 1_555
C16_14 C17_14 1_555 1_555
N13 C21_14 1_555 1_555
N4_14 C23_14 1_555 1_555
N4_14 Zn1_14 1_555 1_555
C26_14 C27_14 1_555 1_555
C28_14 C29_14 1_555 1_555
O10_14 Zn3_14 1_555 1_555
C37_14 C38_14 1_555 1_555
C39_14 C40_14 1_555 1_555
N14_3 C44_14 1_555 1_555
N9_14 C46_14 1_555 1_555
N9_14 Zn3_14 1_555 1_555
O1_15 C1_15 1_555 1_555
C1_15 O2_15 1_555 1_555
C2_15 C1_15 1_555 1_555
C3_15 C2_15 1_555 1_555
H1_15 C3_15 1_555 1_555
C4_15 C3_15 1_555 1_555
C5_15 H2_15 1_555 1_555
C6_15 C2_15 1_555 1_555
H3_15 C6_15 1_555 1_555
O3_15 C7_15 1_555 1_555
C7_15 O4_15 1_555 1_555
C8_15 C7_15 1_555 1_555
C9_15 C8_15 1_555 1_555
H4_15 C9_15 1_555 1_555
C10_15 C9_15 1_555 1_555
C11_15 C10_15 1_555 1_555
H5_15 C11_15 1_555 1_555
C12_15 C11_15 1_555 1_555
H6_15 C12_15 1_555 1_555
C13_15 C12_15 1_555 1_555
C14_15 C13_15 1_555 1_555
H7_15 C14_15 1_555 1_555
C15_15 C10_15 1_555 1_555
C16_15 C15_15 1_555 1_555
H8_15 C16_15 1_555 1_555
C17_15 C8_15 1_555 1_555
H9_15 C17_15 1_555 1_555
O5_15 C18_15 1_555 1_555
C18_15 C13_15 1_555 1_555
O6_15 C18_15 1_555 1_555
C19_15 N1_15 1_555 1_555
N1_15 C20_15 1_555 1_555
C20_15 H10_15 1_555 1_555
N13_4 C20_15 1_555 1_555
C21_15 C19_15 1_555 1_555
N3_15 C21_15 1_555 1_555
C22_15 N3_15 1_555 1_555
H11_15 C22_15 1_555 1_555
N4_15 C22_15 1_555 1_555
C23_15 C19_15 1_555 1_555
N5_15 C23_15 1_555 1_555
H12_15 N5_15 1_555 1_555
H13_15 N5_15 1_555 1_555
Zn1_15 O1_15 1_555 1_555
Zn7_4 N3_15 1_555 1_555
O8_15 C24_15 1_555 1_555
C24_15 O9_15 1_555 1_555
C25_15 C24_15 1_555 1_555
C26_15 C25_15 1_555 1_555
H14_15 C26_15 1_555 1_555
C27_15 C4_15 1_555 1_555
C28_15 C4_15 1_555 1_555
H15_15 C28_15 1_555 1_555
C29_15 C25_15 1_555 1_555
H16_15 C29_15 1_555 1_555
O10_15 C30_15 1_555 1_555
C30_15 O11_15 1_555 1_555
C31_15 C30_15 1_555 1_555
H21_15 C39_15 1_555 1_555
C40_15 C31_15 1_555 1_555
H22_15 C40_15 1_555 1_555
C45_15 N8_15 1_555 1_555
H24_15 C45_15 1_555 1_555
N9_15 C45_15 1_555 1_555
Zn3_15 O8_15 1_555 1_555
Zn8_2 N8_15 1_555 1_555
O14_15 Zn8_2 1_555 1_555
O15_15 Zn7_4 1_555 1_555
N11_15 Zn1_15 1_555 1_555
N12_15 Zn3_15 1_555 1_555
Zn6_15 N1_15 1_555 1_555
Zn10_15 O5_15 1_555 1_555
C5_15 C6_15 1_555 1_555
C5_15 C27_15 1_555 1_555
O3_15 Zn1_15 1_555 1_555
C14_15 C15_15 1_555 1_555
C16_15 C17_15 1_555 1_555
N13_4 C21_15 1_555 1_555
N4_15 C23_15 1_555 1_555
N4_15 Zn1_15 1_555 1_555
C26_15 C27_15 1_555 1_555
C28_15 C29_15 1_555 1_555
O10_15 Zn3_15 1_555 1_555
C39_15 C40_15 1_555 1_555
N9_15 Zn3_15 1_555 1_555
H17_15 C32_15 1_555 1_555
C33_15 C32_15 1_555 1_555
C34_15 C33_15 1_555 1_555
H18_15 C34_15 1_555 1_555
C35_15 C34_15 1_555 1_555
H19_15 C35_15 1_555 1_555
C36_15 C35_15 1_555 1_555
C37_15 C36_15 1_555 1_555
H20_15 C37_15 1_555 1_555
C38_15 C33_15 1_555 1_555
O12_15 C41_15 1_555 1_555
C41_15 C36_15 1_555 1_555
O13_15 C41_15 1_555 1_555
C42_15 N6_15 1_555 1_555
N6_15 C43_15 1_555 1_555
C43_15 H23_15 1_555 1_555
N14_2 C43_15 1_555 1_555
C44_15 C42_15 1_555 1_555
C46_15 C42_15 1_555 1_555
N10_15 C46_15 1_555 1_555
H25_15 N10_15 1_555 1_555
H26_15 N10_15 1_555 1_555
Zn5_15 N6_15 1_555 1_555
Zn9_15 O12_15 1_555 1_555
C37_15 C38_15 1_555 1_555
N14_2 C44_15 1_555 1_555
H17_16 C32_16 1_555 1_555
C33_16 C32_16 1_555 1_555
C34_16 C33_16 1_555 1_555
H18_16 C34_16 1_555 1_555
C35_16 C34_16 1_555 1_555
H19_16 C35_16 1_555 1_555
C36_16 C35_16 1_555 1_555
C37_16 C36_16 1_555 1_555
H20_16 C37_16 1_555 1_555
C38_16 C33_16 1_555 1_555
O12_16 C41_16 1_555 1_555
C41_16 C36_16 1_555 1_555
O13_16 C41_16 1_555 1_555
C42_16 N6_16 1_555 1_555
N6_16 C43_16 1_555 1_555
C43_16 H23_16 1_555 1_555
N14 C43_16 1_555 1_555
C44_16 C42_16 1_555 1_555
C46_16 C42_16 1_555 1_555
N10_16 C46_16 1_555 1_555
H25_16 N10_16 1_555 1_555
H26_16 N10_16 1_555 1_555
Zn5_16 N6_16 1_555 1_555
Zn9_16 O12_16 1_555 1_555
C37_16 C38_16 1_555 1_555
N14 C44_16 1_555 1_555
O1_16 C1_16 1_555 1_555
C1_16 O2_16 1_555 1_555
C2_16 C1_16 1_555 1_555
C3_16 C2_16 1_555 1_555
H1_16 C3_16 1_555 1_555
C4_16 C3_16 1_555 1_555
C5_16 H2_16 1_555 1_555
C6_16 C2_16 1_555 1_555
H3_16 C6_16 1_555 1_555
O3_16 C7_16 1_555 1_555
C7_16 O4_16 1_555 1_555
C8_16 C7_16 1_555 1_555
C9_16 C8_16 1_555 1_555
H4_16 C9_16 1_555 1_555
C10_16 C9_16 1_555 1_555
C11_16 C10_16 1_555 1_555
H5_16 C11_16 1_555 1_555
C12_16 C11_16 1_555 1_555
H6_16 C12_16 1_555 1_555
C13_16 C12_16 1_555 1_555
C14_16 C13_16 1_555 1_555
H7_16 C14_16 1_555 1_555
C15_16 C10_16 1_555 1_555
C16_16 C15_16 1_555 1_555
H8_16 C16_16 1_555 1_555
C17_16 C8_16 1_555 1_555
H9_16 C17_16 1_555 1_555
O5_16 C18_16 1_555 1_555
C18_16 C13_16 1_555 1_555
O6_16 C18_16 1_555 1_555
C19_16 N1_16 1_555 1_555
N1_16 C20_16 1_555 1_555
C20_16 H10_16 1_555 1_555
N13_3 C20_16 1_555 1_555
C21_16 C19_16 1_555 1_555
N3_16 C21_16 1_555 1_555
C22_16 N3_16 1_555 1_555
H11_16 C22_16 1_555 1_555
N4_16 C22_16 1_555 1_555
C23_16 C19_16 1_555 1_555
N5_16 C23_16 1_555 1_555
H12_16 N5_16 1_555 1_555
H13_16 N5_16 1_555 1_555
Zn1_16 O1_16 1_555 1_555
Zn7_3 N3_16 1_555 1_555
O8_16 C24_16 1_555 1_555
C24_16 O9_16 1_555 1_555
C25_16 C24_16 1_555 1_555
C26_16 C25_16 1_555 1_555
H14_16 C26_16 1_555 1_555
C27_16 C4_16 1_555 1_555
C28_16 C4_16 1_555 1_555
H15_16 C28_16 1_555 1_555
C29_16 C25_16 1_555 1_555
H16_16 C29_16 1_555 1_555
O10_16 C30_16 1_555 1_555
C30_16 O11_16 1_555 1_555
C31_16 C30_16 1_555 1_555
H21_16 C39_16 1_555 1_555
C40_16 C31_16 1_555 1_555
H22_16 C40_16 1_555 1_555
C45_16 N8_16 1_555 1_555
H24_16 C45_16 1_555 1_555
N9_16 C45_16 1_555 1_555
Zn3_16 O8_16 1_555 1_555
Zn8 N8_16 1_555 1_555
O14_16 Zn8 1_555 1_555
O15_16 Zn7_3 1_555 1_555
N11_16 Zn1_16 1_555 1_555
N12_16 Zn3_16 1_555 1_555
Zn6_16 N1_16 1_555 1_555
Zn10_16 O5_16 1_555 1_555
C5_16 C6_16 1_555 1_555
C5_16 C27_16 1_555 1_555
O3_16 Zn1_16 1_555 1_555
C14_16 C15_16 1_555 1_555
C16_16 C17_16 1_555 1_555
N13_3 C21_16 1_555 1_555
N4_16 C23_16 1_555 1_555
N4_16 Zn1_16 1_555 1_555
C26_16 C27_16 1_555 1_555
C28_16 C29_16 1_555 1_555
O10_16 Zn3_16 1_555 1_555
C39_16 C40_16 1_555 1_555
N9_16 Zn3_16 1_555 1_555
O1_17 C1_17 1_555 1_555
C1_17 O2_17 1_555 1_555
C2_17 C1_17 1_555 1_555
C3_17 C2_17 1_555 1_555
H1_17 C3_17 1_555 1_555
C4_17 C3_17 1_555 1_555
C5_17 H2_17 1_555 1_555
C6_17 C2_17 1_555 1_555
H3_17 C6_17 1_555 1_555
O3_17 C7_17 1_555 1_555
C7_17 O4_17 1_555 1_555
C8_17 C7_17 1_555 1_555
C9_17 C8_17 1_555 1_555
H4_17 C9_17 1_555 1_555
C10_17 C9_17 1_555 1_555
C11_17 C10_17 1_555 1_555
H5_17 C11_17 1_555 1_555
C12_17 C11_17 1_555 1_555
H6_17 C12_17 1_555 1_555
C13_17 C12_17 1_555 1_555
C14_17 C13_17 1_555 1_555
H7_17 C14_17 1_555 1_555
C15_17 C10_17 1_555 1_555
C16_17 C15_17 1_555 1_555
H8_17 C16_17 1_555 1_555
C17_17 C8_17 1_555 1_555
H9_17 C17_17 1_555 1_555
O5_17 C18_17 1_555 1_555
C18_17 C13_17 1_555 1_555
O6_17 C18_17 1_555 1_555
C19_17 N1_17 1_555 1_555
N1_17 C20_17 1_555 1_555
C20_17 H10_17 1_555 1_555
N13_6 C20_17 1_555 1_555
C21_17 C19_17 1_555 1_555
N3_17 C21_17 1_555 1_555
C22_17 N3_17 1_555 1_555
H11_17 C22_17 1_555 1_555
N4_17 C22_17 1_555 1_555
C23_17 C19_17 1_555 1_555
N5_17 C23_17 1_555 1_555
H12_17 N5_17 1_555 1_555
H13_17 N5_17 1_555 1_555
Zn1_17 O1_17 1_555 1_555
Zn7_6 N3_17 1_555 1_555
O8_17 C24_17 1_555 1_555
C24_17 O9_17 1_555 1_555
C25_17 C24_17 1_555 1_555
C26_17 C25_17 1_555 1_555
H14_17 C26_17 1_555 1_555
C27_17 C4_17 1_555 1_555
C28_17 C4_17 1_555 1_555
H15_17 C28_17 1_555 1_555
C29_17 C25_17 1_555 1_555
H16_17 C29_17 1_555 1_555
O10_17 C30_17 1_555 1_555
C30_17 O11_17 1_555 1_555
C31_17 C30_17 1_555 1_555
C32_17 C31_17 1_555 1_555
H17_17 C32_17 1_555 1_555
C33_17 C32_17 1_555 1_555
C34_17 C33_17 1_555 1_555
H18_17 C34_17 1_555 1_555
C35_17 C34_17 1_555 1_555
H19_17 C35_17 1_555 1_555
C36_17 C35_17 1_555 1_555
C37_17 C36_17 1_555 1_555
H20_17 C37_17 1_555 1_555
C38_17 C33_17 1_555 1_555
C39_17 C38_17 1_555 1_555
H21_17 C39_17 1_555 1_555
C40_17 C31_17 1_555 1_555
H22_17 C40_17 1_555 1_555
O12_17 C41_17 1_555 1_555
C41_17 C36_17 1_555 1_555
O13_17 C41_17 1_555 1_555
C42_17 N6_17 1_555 1_555
N6_17 C43_17 1_555 1_555
C43_17 H23_17 1_555 1_555
N14_8 C43_17 1_555 1_555
C44_17 C42_17 1_555 1_555
N8_17 C44_17 1_555 1_555
C45_17 N8_17 1_555 1_555
H24_17 C45_17 1_555 1_555
N9_17 C45_17 1_555 1_555
C46_17 C42_17 1_555 1_555
N10_17 C46_17 1_555 1_555
H25_17 N10_17 1_555 1_555
H26_17 N10_17 1_555 1_555
Zn3_17 O8_17 1_555 1_555
Zn8_8 N8_17 1_555 1_555
O14_17 Zn8_8 1_555 1_555
O15_17 Zn7_6 1_555 1_555
N11_17 Zn1_17 1_555 1_555
N12_17 Zn3_17 1_555 1_555
Zn5_17 N6_17 1_555 1_555
Zn6_17 N1_17 1_555 1_555
Zn9_17 O12_17 1_555 1_555
Zn10_17 O5_17 1_555 1_555
C5_17 C6_17 1_555 1_555
C5_17 C27_17 1_555 1_555
O3_17 Zn1_17 1_555 1_555
C14_17 C15_17 1_555 1_555
C16_17 C17_17 1_555 1_555
N13_6 C21_17 1_555 1_555
N4_17 C23_17 1_555 1_555
N4_17 Zn1_17 1_555 1_555
C26_17 C27_17 1_555 1_555
C28_17 C29_17 1_555 1_555
O10_17 Zn3_17 1_555 1_555
C37_17 C38_17 1_555 1_555
C39_17 C40_17 1_555 1_555
N14_8 C44_17 1_555 1_555
N9_17 C46_17 1_555 1_555
N9_17 Zn3_17 1_555 1_555
O1_18 C1_18 1_555 1_555
C1_18 O2_18 1_555 1_555
C2_18 C1_18 1_555 1_555
C3_18 C2_18 1_555 1_555
H1_18 C3_18 1_555 1_555
C4_18 C3_18 1_555 1_555
C5_18 H2_18 1_555 1_555
C6_18 C2_18 1_555 1_555
H3_18 C6_18 1_555 1_555
O3_18 C7_18 1_555 1_555
C7_18 O4_18 1_555 1_555
C8_18 C7_18 1_555 1_555
C9_18 C8_18 1_555 1_555
H4_18 C9_18 1_555 1_555
C10_18 C9_18 1_555 1_555
C11_18 C10_18 1_555 1_555
H5_18 C11_18 1_555 1_555
C12_18 C11_18 1_555 1_555
H6_18 C12_18 1_555 1_555
C13_18 C12_18 1_555 1_555
C14_18 C13_18 1_555 1_555
H7_18 C14_18 1_555 1_555
C15_18 C10_18 1_555 1_555
C16_18 C15_18 1_555 1_555
H8_18 C16_18 1_555 1_555
C17_18 C8_18 1_555 1_555
H9_18 C17_18 1_555 1_555
O5_18 C18_18 1_555 1_555
C18_18 C13_18 1_555 1_555
O6_18 C18_18 1_555 1_555
C19_18 N1_18 1_555 1_555
N1_18 C20_18 1_555 1_555
C20_18 H10_18 1_555 1_555
N13_5 C20_18 1_555 1_555
C21_18 C19_18 1_555 1_555
N3_18 C21_18 1_555 1_555
C22_18 N3_18 1_555 1_555
H11_18 C22_18 1_555 1_555
N4_18 C22_18 1_555 1_555
C23_18 C19_18 1_555 1_555
N5_18 C23_18 1_555 1_555
H12_18 N5_18 1_555 1_555
H13_18 N5_18 1_555 1_555
Zn1_18 O1_18 1_555 1_555
Zn7_5 N3_18 1_555 1_555
O8_18 C24_18 1_555 1_555
C24_18 O9_18 1_555 1_555
C25_18 C24_18 1_555 1_555
C26_18 C25_18 1_555 1_555
H14_18 C26_18 1_555 1_555
C27_18 C4_18 1_555 1_555
C28_18 C4_18 1_555 1_555
H15_18 C28_18 1_555 1_555
C29_18 C25_18 1_555 1_555
H16_18 C29_18 1_555 1_555
O10_18 C30_18 1_555 1_555
C30_18 O11_18 1_555 1_555
C31_18 C30_18 1_555 1_555
C32_18 C31_18 1_555 1_555
H17_18 C32_18 1_555 1_555
C33_18 C32_18 1_555 1_555
C34_18 C33_18 1_555 1_555
H18_18 C34_18 1_555 1_555
C35_18 C34_18 1_555 1_555
H19_18 C35_18 1_555 1_555
C36_18 C35_18 1_555 1_555
C37_18 C36_18 1_555 1_555
H20_18 C37_18 1_555 1_555
C38_18 C33_18 1_555 1_555
C39_18 C38_18 1_555 1_555
H21_18 C39_18 1_555 1_555
C40_18 C31_18 1_555 1_555
H22_18 C40_18 1_555 1_555
O12_18 C41_18 1_555 1_555
C41_18 C36_18 1_555 1_555
O13_18 C41_18 1_555 1_555
C42_18 N6_18 1_555 1_555
N6_18 C43_18 1_555 1_555
C43_18 H23_18 1_555 1_555
N14_7 C43_18 1_555 1_555
C44_18 C42_18 1_555 1_555
N8_18 C44_18 1_555 1_555
C45_18 N8_18 1_555 1_555
H24_18 C45_18 1_555 1_555
N9_18 C45_18 1_555 1_555
C46_18 C42_18 1_555 1_555
N10_18 C46_18 1_555 1_555
H25_18 N10_18 1_555 1_555
H26_18 N10_18 1_555 1_555
Zn3_18 O8_18 1_555 1_555
Zn8_7 N8_18 1_555 1_555
O14_18 Zn8_7 1_555 1_555
O15_18 Zn7_5 1_555 1_555
N11_18 Zn1_18 1_555 1_555
N12_18 Zn3_18 1_555 1_555
Zn5_18 N6_18 1_555 1_555
Zn6_18 N1_18 1_555 1_555
Zn9_18 O12_18 1_555 1_555
Zn10_18 O5_18 1_555 1_555
C5_18 C6_18 1_555 1_555
C5_18 C27_18 1_555 1_555
O3_18 Zn1_18 1_555 1_555
C14_18 C15_18 1_555 1_555
C16_18 C17_18 1_555 1_555
N13_5 C21_18 1_555 1_555
N4_18 C23_18 1_555 1_555
N4_18 Zn1_18 1_555 1_555
C26_18 C27_18 1_555 1_555
C28_18 C29_18 1_555 1_555
O10_18 Zn3_18 1_555 1_555
C37_18 C38_18 1_555 1_555
C39_18 C40_18 1_555 1_555
N14_7 C44_18 1_555 1_555
N9_18 C46_18 1_555 1_555
N9_18 Zn3_18 1_555 1_555
O1_19 C1_19 1_555 1_555
C1_19 O2_19 1_555 1_555
C2_19 C1_19 1_555 1_555
C3_19 C2_19 1_555 1_555
H1_19 C3_19 1_555 1_555
C4_19 C3_19 1_555 1_555
C5_19 H2_19 1_555 1_555
C6_19 C2_19 1_555 1_555
H3_19 C6_19 1_555 1_555
O3_19 C7_19 1_555 1_555
C7_19 O4_19 1_555 1_555
C8_19 C7_19 1_555 1_555
C9_19 C8_19 1_555 1_555
H4_19 C9_19 1_555 1_555
C10_19 C9_19 1_555 1_555
C11_19 C10_19 1_555 1_555
H5_19 C11_19 1_555 1_555
C12_19 C11_19 1_555 1_555
H6_19 C12_19 1_555 1_555
C13_19 C12_19 1_555 1_555
C14_19 C13_19 1_555 1_555
H7_19 C14_19 1_555 1_555
C15_19 C10_19 1_555 1_555
C16_19 C15_19 1_555 1_555
H8_19 C16_19 1_555 1_555
C17_19 C8_19 1_555 1_555
H9_19 C17_19 1_555 1_555
O5_19 C18_19 1_555 1_555
C18_19 C13_19 1_555 1_555
O6_19 C18_19 1_555 1_555
C19_19 N1_19 1_555 1_555
N1_19 C20_19 1_555 1_555
C20_19 H10_19 1_555 1_555
N13_8 C20_19 1_555 1_555
C21_19 C19_19 1_555 1_555
N3_19 C21_19 1_555 1_555
C22_19 N3_19 1_555 1_555
H11_19 C22_19 1_555 1_555
N4_19 C22_19 1_555 1_555
C23_19 C19_19 1_555 1_555
N5_19 C23_19 1_555 1_555
H12_19 N5_19 1_555 1_555
H13_19 N5_19 1_555 1_555
Zn1_19 O1_19 1_555 1_555
Zn7_8 N3_19 1_555 1_555
O8_19 C24_19 1_555 1_555
C24_19 O9_19 1_555 1_555
C25_19 C24_19 1_555 1_555
C26_19 C25_19 1_555 1_555
H14_19 C26_19 1_555 1_555
C27_19 C4_19 1_555 1_555
C28_19 C4_19 1_555 1_555
H15_19 C28_19 1_555 1_555
C29_19 C25_19 1_555 1_555
H16_19 C29_19 1_555 1_555
O10_19 C30_19 1_555 1_555
C30_19 O11_19 1_555 1_555
C31_19 C30_19 1_555 1_555
H21_19 C39_19 1_555 1_555
C40_19 C31_19 1_555 1_555
H22_19 C40_19 1_555 1_555
C45_19 N8_19 1_555 1_555
H24_19 C45_19 1_555 1_555
N9_19 C45_19 1_555 1_555
Zn3_19 O8_19 1_555 1_555
Zn8_6 N8_19 1_555 1_555
O14_19 Zn8_6 1_555 1_555
O15_19 Zn7_8 1_555 1_555
N11_19 Zn1_19 1_555 1_555
N12_19 Zn3_19 1_555 1_555
Zn6_19 N1_19 1_555 1_555
Zn10_19 O5_19 1_555 1_555
C5_19 C6_19 1_555 1_555
C5_19 C27_19 1_555 1_555
O3_19 Zn1_19 1_555 1_555
C14_19 C15_19 1_555 1_555
C16_19 C17_19 1_555 1_555
N13_8 C21_19 1_555 1_555
N4_19 C23_19 1_555 1_555
N4_19 Zn1_19 1_555 1_555
C26_19 C27_19 1_555 1_555
C28_19 C29_19 1_555 1_555
O10_19 Zn3_19 1_555 1_555
C39_19 C40_19 1_555 1_555
N9_19 Zn3_19 1_555 1_555
H17_19 C32_19 1_555 1_555
C33_19 C32_19 1_555 1_555
C34_19 C33_19 1_555 1_555
H18_19 C34_19 1_555 1_555
C35_19 C34_19 1_555 1_555
H19_19 C35_19 1_555 1_555
C36_19 C35_19 1_555 1_555
C37_19 C36_19 1_555 1_555
H20_19 C37_19 1_555 1_555
C38_19 C33_19 1_555 1_555
O12_19 C41_19 1_555 1_555
C41_19 C36_19 1_555 1_555
O13_19 C41_19 1_555 1_555
C42_19 N6_19 1_555 1_555
N6_19 C43_19 1_555 1_555
C43_19 H23_19 1_555 1_555
N14_6 C43_19 1_555 1_555
C44_19 C42_19 1_555 1_555
C46_19 C42_19 1_555 1_555
N10_19 C46_19 1_555 1_555
H25_19 N10_19 1_555 1_555
H26_19 N10_19 1_555 1_555
Zn5_19 N6_19 1_555 1_555
Zn9_19 O12_19 1_555 1_555
C37_19 C38_19 1_555 1_555
N14_6 C44_19 1_555 1_555
H17_20 C32_20 1_555 1_555
C33_20 C32_20 1_555 1_555
C34_20 C33_20 1_555 1_555
H18_20 C34_20 1_555 1_555
C35_20 C34_20 1_555 1_555
H19_20 C35_20 1_555 1_555
C36_20 C35_20 1_555 1_555
C37_20 C36_20 1_555 1_555
H20_20 C37_20 1_555 1_555
C38_20 C33_20 1_555 1_555
O12_20 C41_20 1_555 1_555
C41_20 C36_20 1_555 1_555
O13_20 C41_20 1_555 1_555
C42_20 N6_20 1_555 1_555
N6_20 C43_20 1_555 1_555
C43_20 H23_20 1_555 1_555
N14_5 C43_20 1_555 1_555
C44_20 C42_20 1_555 1_555
C46_20 C42_20 1_555 1_555
N10_20 C46_20 1_555 1_555
H25_20 N10_20 1_555 1_555
H26_20 N10_20 1_555 1_555
Zn5_20 N6_20 1_555 1_555
Zn9_20 O12_20 1_555 1_555
C37_20 C38_20 1_555 1_555
N14_5 C44_20 1_555 1_555
O1_20 C1_20 1_555 1_555
C1_20 O2_20 1_555 1_555
C2_20 C1_20 1_555 1_555
C3_20 C2_20 1_555 1_555
H1_20 C3_20 1_555 1_555
C4_20 C3_20 1_555 1_555
C5_20 H2_20 1_555 1_555
C6_20 C2_20 1_555 1_555
H3_20 C6_20 1_555 1_555
O3_20 C7_20 1_555 1_555
C7_20 O4_20 1_555 1_555
C8_20 C7_20 1_555 1_555
C9_20 C8_20 1_555 1_555
H4_20 C9_20 1_555 1_555
C10_20 C9_20 1_555 1_555
C11_20 C10_20 1_555 1_555
H5_20 C11_20 1_555 1_555
C12_20 C11_20 1_555 1_555
H6_20 C12_20 1_555 1_555
C13_20 C12_20 1_555 1_555
C14_20 C13_20 1_555 1_555
H7_20 C14_20 1_555 1_555
C15_20 C10_20 1_555 1_555
C16_20 C15_20 1_555 1_555
H8_20 C16_20 1_555 1_555
C17_20 C8_20 1_555 1_555
H9_20 C17_20 1_555 1_555
O5_20 C18_20 1_555 1_555
C18_20 C13_20 1_555 1_555
O6_20 C18_20 1_555 1_555
C19_20 N1_20 1_555 1_555
N1_20 C20_20 1_555 1_555
C20_20 H10_20 1_555 1_555
N13_7 C20_20 1_555 1_555
C21_20 C19_20 1_555 1_555
N3_20 C21_20 1_555 1_555
C22_20 N3_20 1_555 1_555
H11_20 C22_20 1_555 1_555
N4_20 C22_20 1_555 1_555
C23_20 C19_20 1_555 1_555
N5_20 C23_20 1_555 1_555
H12_20 N5_20 1_555 1_555
H13_20 N5_20 1_555 1_555
Zn1_20 O1_20 1_555 1_555
Zn7_7 N3_20 1_555 1_555
O8_20 C24_20 1_555 1_555
C24_20 O9_20 1_555 1_555
C25_20 C24_20 1_555 1_555
C26_20 C25_20 1_555 1_555
H14_20 C26_20 1_555 1_555
C27_20 C4_20 1_555 1_555
C28_20 C4_20 1_555 1_555
H15_20 C28_20 1_555 1_555
C29_20 C25_20 1_555 1_555
H16_20 C29_20 1_555 1_555
O10_20 C30_20 1_555 1_555
C30_20 O11_20 1_555 1_555
C31_20 C30_20 1_555 1_555
H21_20 C39_20 1_555 1_555
C40_20 C31_20 1_555 1_555
H22_20 C40_20 1_555 1_555
C45_20 N8_20 1_555 1_555
H24_20 C45_20 1_555 1_555
N9_20 C45_20 1_555 1_555
Zn3_20 O8_20 1_555 1_555
Zn8_5 N8_20 1_555 1_555
O14_20 Zn8_5 1_555 1_555
O15_20 Zn7_7 1_555 1_555
N11_20 Zn1_20 1_555 1_555
N12_20 Zn3_20 1_555 1_555
Zn6_20 N1_20 1_555 1_555
Zn10_20 O5_20 1_555 1_555
C5_20 C6_20 1_555 1_555
C5_20 C27_20 1_555 1_555
O3_20 Zn1_20 1_555 1_555
C14_20 C15_20 1_555 1_555
C16_20 C17_20 1_555 1_555
N13_7 C21_20 1_555 1_555
N4_20 C23_20 1_555 1_555
N4_20 Zn1_20 1_555 1_555
C26_20 C27_20 1_555 1_555
C28_20 C29_20 1_555 1_555
O10_20 Zn3_20 1_555 1_555
C39_20 C40_20 1_555 1_555
N9_20 Zn3_20 1_555 1_555
O1_21 C1_21 1_555 1_555
C1_21 O2_21 1_555 1_555
C2_21 C1_21 1_555 1_555
C3_21 C2_21 1_555 1_555
H1_21 C3_21 1_555 1_555
C4_21 C3_21 1_555 1_555
C5_21 H2_21 1_555 1_555
C6_21 C2_21 1_555 1_555
H3_21 C6_21 1_555 1_555
O3_21 C7_21 1_555 1_555
C7_21 O4_21 1_555 1_555
C8_21 C7_21 1_555 1_555
C9_21 C8_21 1_555 1_555
H4_21 C9_21 1_555 1_555
C10_21 C9_21 1_555 1_555
C11_21 C10_21 1_555 1_555
H5_21 C11_21 1_555 1_555
C12_21 C11_21 1_555 1_555
H6_21 C12_21 1_555 1_555
C13_21 C12_21 1_555 1_555
C14_21 C13_21 1_555 1_555
H7_21 C14_21 1_555 1_555
C15_21 C10_21 1_555 1_555
C16_21 C15_21 1_555 1_555
H8_21 C16_21 1_555 1_555
C17_21 C8_21 1_555 1_555
H9_21 C17_21 1_555 1_555
O5_21 C18_21 1_555 1_555
C18_21 C13_21 1_555 1_555
O6_21 C18_21 1_555 1_555
C19_21 N1_21 1_555 1_555
N1_21 C20_21 1_555 1_555
C20_21 H10_21 1_555 1_555
N13_10 C20_21 1_555 1_555
C21_21 C19_21 1_555 1_555
N3_21 C21_21 1_555 1_555
C22_21 N3_21 1_555 1_555
H11_21 C22_21 1_555 1_555
N4_21 C22_21 1_555 1_555
C23_21 C19_21 1_555 1_555
N5_21 C23_21 1_555 1_555
H12_21 N5_21 1_555 1_555
H13_21 N5_21 1_555 1_555
Zn1_21 O1_21 1_555 1_555
Zn7_10 N3_21 1_555 1_555
O8_21 C24_21 1_555 1_555
C24_21 O9_21 1_555 1_555
C25_21 C24_21 1_555 1_555
C26_21 C25_21 1_555 1_555
H14_21 C26_21 1_555 1_555
C27_21 C4_21 1_555 1_555
C28_21 C4_21 1_555 1_555
H15_21 C28_21 1_555 1_555
C29_21 C25_21 1_555 1_555
H16_21 C29_21 1_555 1_555
O10_21 C30_21 1_555 1_555
C30_21 O11_21 1_555 1_555
C31_21 C30_21 1_555 1_555
C32_21 C31_21 1_555 1_555
H17_21 C32_21 1_555 1_555
C33_21 C32_21 1_555 1_555
C34_21 C33_21 1_555 1_555
H18_21 C34_21 1_555 1_555
C35_21 C34_21 1_555 1_555
H19_21 C35_21 1_555 1_555
C36_21 C35_21 1_555 1_555
C37_21 C36_21 1_555 1_555
H20_21 C37_21 1_555 1_555
C38_21 C33_21 1_555 1_555
C39_21 C38_21 1_555 1_555
H21_21 C39_21 1_555 1_555
C40_21 C31_21 1_555 1_555
H22_21 C40_21 1_555 1_555
O12_21 C41_21 1_555 1_555
C41_21 C36_21 1_555 1_555
O13_21 C41_21 1_555 1_555
C42_21 N6_21 1_555 1_555
N6_21 C43_21 1_555 1_555
C43_21 H23_21 1_555 1_555
N14_12 C43_21 1_555 1_555
C44_21 C42_21 1_555 1_555
N8_21 C44_21 1_555 1_555
C45_21 N8_21 1_555 1_555
H24_21 C45_21 1_555 1_555
N9_21 C45_21 1_555 1_555
C46_21 C42_21 1_555 1_555
N10_21 C46_21 1_555 1_555
H25_21 N10_21 1_555 1_555
H26_21 N10_21 1_555 1_555
Zn3_21 O8_21 1_555 1_555
Zn8_12 N8_21 1_555 1_555
O14_21 Zn8_12 1_555 1_555
O15_21 Zn7_10 1_555 1_555
N11_21 Zn1_21 1_555 1_555
N12_21 Zn3_21 1_555 1_555
Zn5_21 N6_21 1_555 1_555
Zn6_21 N1_21 1_555 1_555
Zn9_21 O12_21 1_555 1_555
Zn10_21 O5_21 1_555 1_555
C5_21 C6_21 1_555 1_555
C5_21 C27_21 1_555 1_555
O3_21 Zn1_21 1_555 1_555
C14_21 C15_21 1_555 1_555
C16_21 C17_21 1_555 1_555
N13_10 C21_21 1_555 1_555
N4_21 C23_21 1_555 1_555
N4_21 Zn1_21 1_555 1_555
C26_21 C27_21 1_555 1_555
C28_21 C29_21 1_555 1_555
O10_21 Zn3_21 1_555 1_555
C37_21 C38_21 1_555 1_555
C39_21 C40_21 1_555 1_555
N14_12 C44_21 1_555 1_555
N9_21 C46_21 1_555 1_555
N9_21 Zn3_21 1_555 1_555
O1_22 C1_22 1_555 1_555
C1_22 O2_22 1_555 1_555
C2_22 C1_22 1_555 1_555
C3_22 C2_22 1_555 1_555
H1_22 C3_22 1_555 1_555
C4_22 C3_22 1_555 1_555
C5_22 H2_22 1_555 1_555
C6_22 C2_22 1_555 1_555
H3_22 C6_22 1_555 1_555
O3_22 C7_22 1_555 1_555
C7_22 O4_22 1_555 1_555
C8_22 C7_22 1_555 1_555
C9_22 C8_22 1_555 1_555
H4_22 C9_22 1_555 1_555
C10_22 C9_22 1_555 1_555
C11_22 C10_22 1_555 1_555
H5_22 C11_22 1_555 1_555
C12_22 C11_22 1_555 1_555
H6_22 C12_22 1_555 1_555
C13_22 C12_22 1_555 1_555
C14_22 C13_22 1_555 1_555
H7_22 C14_22 1_555 1_555
C15_22 C10_22 1_555 1_555
C16_22 C15_22 1_555 1_555
H8_22 C16_22 1_555 1_555
C17_22 C8_22 1_555 1_555
H9_22 C17_22 1_555 1_555
O5_22 C18_22 1_555 1_555
C18_22 C13_22 1_555 1_555
O6_22 C18_22 1_555 1_555
C19_22 N1_22 1_555 1_555
N1_22 C20_22 1_555 1_555
C20_22 H10_22 1_555 1_555
N13_9 C20_22 1_555 1_555
C21_22 C19_22 1_555 1_555
N3_22 C21_22 1_555 1_555
C22_22 N3_22 1_555 1_555
H11_22 C22_22 1_555 1_555
N4_22 C22_22 1_555 1_555
C23_22 C19_22 1_555 1_555
N5_22 C23_22 1_555 1_555
H12_22 N5_22 1_555 1_555
H13_22 N5_22 1_555 1_555
Zn1_22 O1_22 1_555 1_555
Zn7_9 N3_22 1_555 1_555
O8_22 C24_22 1_555 1_555
C24_22 O9_22 1_555 1_555
C25_22 C24_22 1_555 1_555
C26_22 C25_22 1_555 1_555
H14_22 C26_22 1_555 1_555
C27_22 C4_22 1_555 1_555
C28_22 C4_22 1_555 1_555
H15_22 C28_22 1_555 1_555
C29_22 C25_22 1_555 1_555
H16_22 C29_22 1_555 1_555
O10_22 C30_22 1_555 1_555
C30_22 O11_22 1_555 1_555
C31_22 C30_22 1_555 1_555
C32_22 C31_22 1_555 1_555
H17_22 C32_22 1_555 1_555
C33_22 C32_22 1_555 1_555
C34_22 C33_22 1_555 1_555
H18_22 C34_22 1_555 1_555
C35_22 C34_22 1_555 1_555
H19_22 C35_22 1_555 1_555
C36_22 C35_22 1_555 1_555
C37_22 C36_22 1_555 1_555
H20_22 C37_22 1_555 1_555
C38_22 C33_22 1_555 1_555
C39_22 C38_22 1_555 1_555
H21_22 C39_22 1_555 1_555
C40_22 C31_22 1_555 1_555
H22_22 C40_22 1_555 1_555
O12_22 C41_22 1_555 1_555
C41_22 C36_22 1_555 1_555
O13_22 C41_22 1_555 1_555
C42_22 N6_22 1_555 1_555
N6_22 C43_22 1_555 1_555
C43_22 H23_22 1_555 1_555
N14_11 C43_22 1_555 1_555
C44_22 C42_22 1_555 1_555
N8_22 C44_22 1_555 1_555
C45_22 N8_22 1_555 1_555
H24_22 C45_22 1_555 1_555
N9_22 C45_22 1_555 1_555
C46_22 C42_22 1_555 1_555
N10_22 C46_22 1_555 1_555
H25_22 N10_22 1_555 1_555
H26_22 N10_22 1_555 1_555
Zn3_22 O8_22 1_555 1_555
Zn8_11 N8_22 1_555 1_555
O14_22 Zn8_11 1_555 1_555
O15_22 Zn7_9 1_555 1_555
N11_22 Zn1_22 1_555 1_555
N12_22 Zn3_22 1_555 1_555
Zn5_22 N6_22 1_555 1_555
Zn6_22 N1_22 1_555 1_555
Zn9_22 O12_22 1_555 1_555
Zn10_22 O5_22 1_555 1_555
C5_22 C6_22 1_555 1_555
C5_22 C27_22 1_555 1_555
O3_22 Zn1_22 1_555 1_555
C14_22 C15_22 1_555 1_555
C16_22 C17_22 1_555 1_555
N13_9 C21_22 1_555 1_555
N4_22 C23_22 1_555 1_555
N4_22 Zn1_22 1_555 1_555
C26_22 C27_22 1_555 1_555
C28_22 C29_22 1_555 1_555
O10_22 Zn3_22 1_555 1_555
C37_22 C38_22 1_555 1_555
C39_22 C40_22 1_555 1_555
N14_11 C44_22 1_555 1_555
N9_22 C46_22 1_555 1_555
N9_22 Zn3_22 1_555 1_555
O1_23 C1_23 1_555 1_555
C1_23 O2_23 1_555 1_555
C2_23 C1_23 1_555 1_555
C3_23 C2_23 1_555 1_555
H1_23 C3_23 1_555 1_555
C4_23 C3_23 1_555 1_555
C5_23 H2_23 1_555 1_555
C6_23 C2_23 1_555 1_555
H3_23 C6_23 1_555 1_555
O3_23 C7_23 1_555 1_555
C7_23 O4_23 1_555 1_555
C8_23 C7_23 1_555 1_555
C9_23 C8_23 1_555 1_555
H4_23 C9_23 1_555 1_555
C10_23 C9_23 1_555 1_555
C11_23 C10_23 1_555 1_555
H5_23 C11_23 1_555 1_555
C12_23 C11_23 1_555 1_555
H6_23 C12_23 1_555 1_555
C13_23 C12_23 1_555 1_555
C14_23 C13_23 1_555 1_555
H7_23 C14_23 1_555 1_555
C15_23 C10_23 1_555 1_555
C16_23 C15_23 1_555 1_555
H8_23 C16_23 1_555 1_555
C17_23 C8_23 1_555 1_555
H9_23 C17_23 1_555 1_555
O5_23 C18_23 1_555 1_555
C18_23 C13_23 1_555 1_555
O6_23 C18_23 1_555 1_555
C19_23 N1_23 1_555 1_555
N1_23 C20_23 1_555 1_555
C20_23 H10_23 1_555 1_555
N13_12 C20_23 1_555 1_555
C21_23 C19_23 1_555 1_555
N3_23 C21_23 1_555 1_555
C22_23 N3_23 1_555 1_555
H11_23 C22_23 1_555 1_555
N4_23 C22_23 1_555 1_555
C23_23 C19_23 1_555 1_555
N5_23 C23_23 1_555 1_555
H12_23 N5_23 1_555 1_555
H13_23 N5_23 1_555 1_555
Zn1_23 O1_23 1_555 1_555
Zn7_12 N3_23 1_555 1_555
O8_23 C24_23 1_555 1_555
C24_23 O9_23 1_555 1_555
C25_23 C24_23 1_555 1_555
C26_23 C25_23 1_555 1_555
H14_23 C26_23 1_555 1_555
C27_23 C4_23 1_555 1_555
C28_23 C4_23 1_555 1_555
H15_23 C28_23 1_555 1_555
C29_23 C25_23 1_555 1_555
H16_23 C29_23 1_555 1_555
O10_23 C30_23 1_555 1_555
C30_23 O11_23 1_555 1_555
C31_23 C30_23 1_555 1_555
H21_23 C39_23 1_555 1_555
C40_23 C31_23 1_555 1_555
H22_23 C40_23 1_555 1_555
C45_23 N8_23 1_555 1_555
H24_23 C45_23 1_555 1_555
N9_23 C45_23 1_555 1_555
Zn3_23 O8_23 1_555 1_555
Zn8_10 N8_23 1_555 1_555
O14_23 Zn8_10 1_555 1_555
O15_23 Zn7_12 1_555 1_555
N11_23 Zn1_23 1_555 1_555
N12_23 Zn3_23 1_555 1_555
Zn6_23 N1_23 1_555 1_555
Zn10_23 O5_23 1_555 1_555
C5_23 C6_23 1_555 1_555
C5_23 C27_23 1_555 1_555
O3_23 Zn1_23 1_555 1_555
C14_23 C15_23 1_555 1_555
C16_23 C17_23 1_555 1_555
N13_12 C21_23 1_555 1_555
N4_23 C23_23 1_555 1_555
N4_23 Zn1_23 1_555 1_555
C26_23 C27_23 1_555 1_555
C28_23 C29_23 1_555 1_555
O10_23 Zn3_23 1_555 1_555
C39_23 C40_23 1_555 1_555
N9_23 Zn3_23 1_555 1_555
H17_23 C32_23 1_555 1_555
C33_23 C32_23 1_555 1_555
C34_23 C33_23 1_555 1_555
H18_23 C34_23 1_555 1_555
C35_23 C34_23 1_555 1_555
H19_23 C35_23 1_555 1_555
C36_23 C35_23 1_555 1_555
C37_23 C36_23 1_555 1_555
H20_23 C37_23 1_555 1_555
C38_23 C33_23 1_555 1_555
O12_23 C41_23 1_555 1_555
C41_23 C36_23 1_555 1_555
O13_23 C41_23 1_555 1_555
C42_23 N6_23 1_555 1_555
N6_23 C43_23 1_555 1_555
C43_23 H23_23 1_555 1_555
N14_10 C43_23 1_555 1_555
C44_23 C42_23 1_555 1_555
C46_23 C42_23 1_555 1_555
N10_23 C46_23 1_555 1_555
H25_23 N10_23 1_555 1_555
H26_23 N10_23 1_555 1_555
Zn5_23 N6_23 1_555 1_555
Zn9_23 O12_23 1_555 1_555
C37_23 C38_23 1_555 1_555
N14_10 C44_23 1_555 1_555
H17_24 C32_24 1_555 1_555
C33_24 C32_24 1_555 1_555
C34_24 C33_24 1_555 1_555
H18_24 C34_24 1_555 1_555
C35_24 C34_24 1_555 1_555
H19_24 C35_24 1_555 1_555
C36_24 C35_24 1_555 1_555
C37_24 C36_24 1_555 1_555
H20_24 C37_24 1_555 1_555
C38_24 C33_24 1_555 1_555
O12_24 C41_24 1_555 1_555
C41_24 C36_24 1_555 1_555
O13_24 C41_24 1_555 1_555
C42_24 N6_24 1_555 1_555
N6_24 C43_24 1_555 1_555
C43_24 H23_24 1_555 1_555
N14_9 C43_24 1_555 1_555
C44_24 C42_24 1_555 1_555
C46_24 C42_24 1_555 1_555
N10_24 C46_24 1_555 1_555
H25_24 N10_24 1_555 1_555
H26_24 N10_24 1_555 1_555
Zn5_24 N6_24 1_555 1_555
Zn9_24 O12_24 1_555 1_555
C37_24 C38_24 1_555 1_555
N14_9 C44_24 1_555 1_555
O1_24 C1_24 1_555 1_555
C1_24 O2_24 1_555 1_555
C2_24 C1_24 1_555 1_555
C3_24 C2_24 1_555 1_555
H1_24 C3_24 1_555 1_555
C4_24 C3_24 1_555 1_555
C5_24 H2_24 1_555 1_555
C6_24 C2_24 1_555 1_555
H3_24 C6_24 1_555 1_555
O3_24 C7_24 1_555 1_555
C7_24 O4_24 1_555 1_555
C8_24 C7_24 1_555 1_555
C9_24 C8_24 1_555 1_555
H4_24 C9_24 1_555 1_555
C10_24 C9_24 1_555 1_555
C11_24 C10_24 1_555 1_555
H5_24 C11_24 1_555 1_555
C12_24 C11_24 1_555 1_555
H6_24 C12_24 1_555 1_555
C13_24 C12_24 1_555 1_555
C14_24 C13_24 1_555 1_555
H7_24 C14_24 1_555 1_555
C15_24 C10_24 1_555 1_555
C16_24 C15_24 1_555 1_555
H8_24 C16_24 1_555 1_555
C17_24 C8_24 1_555 1_555
H9_24 C17_24 1_555 1_555
O5_24 C18_24 1_555 1_555
C18_24 C13_24 1_555 1_555
O6_24 C18_24 1_555 1_555
C19_24 N1_24 1_555 1_555
N1_24 C20_24 1_555 1_555
C20_24 H10_24 1_555 1_555
N13_11 C20_24 1_555 1_555
C21_24 C19_24 1_555 1_555
N3_24 C21_24 1_555 1_555
C22_24 N3_24 1_555 1_555
H11_24 C22_24 1_555 1_555
N4_24 C22_24 1_555 1_555
C23_24 C19_24 1_555 1_555
N5_24 C23_24 1_555 1_555
H12_24 N5_24 1_555 1_555
H13_24 N5_24 1_555 1_555
Zn1_24 O1_24 1_555 1_555
Zn7_11 N3_24 1_555 1_555
O8_24 C24_24 1_555 1_555
C24_24 O9_24 1_555 1_555
C25_24 C24_24 1_555 1_555
C26_24 C25_24 1_555 1_555
H14_24 C26_24 1_555 1_555
C27_24 C4_24 1_555 1_555
C28_24 C4_24 1_555 1_555
H15_24 C28_24 1_555 1_555
C29_24 C25_24 1_555 1_555
H16_24 C29_24 1_555 1_555
O10_24 C30_24 1_555 1_555
C30_24 O11_24 1_555 1_555
C31_24 C30_24 1_555 1_555
H21_24 C39_24 1_555 1_555
C40_24 C31_24 1_555 1_555
H22_24 C40_24 1_555 1_555
C45_24 N8_24 1_555 1_555
H24_24 C45_24 1_555 1_555
N9_24 C45_24 1_555 1_555
Zn3_24 O8_24 1_555 1_555
Zn8_9 N8_24 1_555 1_555
O14_24 Zn8_9 1_555 1_555
O15_24 Zn7_11 1_555 1_555
N11_24 Zn1_24 1_555 1_555
N12_24 Zn3_24 1_555 1_555
Zn6_24 N1_24 1_555 1_555
Zn10_24 O5_24 1_555 1_555
C5_24 C6_24 1_555 1_555
C5_24 C27_24 1_555 1_555
O3_24 Zn1_24 1_555 1_555
C14_24 C15_24 1_555 1_555
C16_24 C17_24 1_555 1_555
N13_11 C21_24 1_555 1_555
N4_24 C23_24 1_555 1_555
N4_24 Zn1_24 1_555 1_555
C26_24 C27_24 1_555 1_555
C28_24 C29_24 1_555 1_555
O10_24 Zn3_24 1_555 1_555
C39_24 C40_24 1_555 1_555
N9_24 Zn3_24 1_555 1_555
H17_25 C32_25 1_555 1_555
C33_25 C32_25 1_555 1_555
C34_25 C33_25 1_555 1_555
H18_25 C34_25 1_555 1_555
C35_25 C34_25 1_555 1_555
H19_25 C35_25 1_555 1_555
C36_25 C35_25 1_555 1_555
C37_25 C36_25 1_555 1_555
H20_25 C37_25 1_555 1_555
C38_25 C33_25 1_555 1_555
O14_6 C41_25 1_555 1_555
C41_25 C36_25 1_555 1_555
O13_25 C41_25 1_555 1_555
C42_25 N11_6 1_555 1_555
N11_6 C43_25 1_555 1_555
C43_25 H23_25 1_555 1_555
N7_13 C43_25 1_555 1_555
C44_25 C42_25 1_555 1_555
C46_25 C42_25 1_555 1_555
N10_25 C46_25 1_555 1_555
H25_25 N10_25 1_555 1_555
H26_25 N10_25 1_555 1_555
Zn9_22 N7_13 1_555 1_555
C37_25 C38_25 1_555 1_555
N7_13 C44_25 1_555 1_555
Zn9_22 O16_19 1_555 1_555
O1_25 C1_25 1_555 1_555
C1_25 O2_25 1_555 1_555
C2_25 C1_25 1_555 1_555
C3_25 C2_25 1_555 1_555
H1_25 C3_25 1_555 1_555
C4_25 C3_25 1_555 1_555
C5_25 H2_25 1_555 1_555
C6_25 C2_25 1_555 1_555
H3_25 C6_25 1_555 1_555
O3_25 C7_25 1_555 1_555
C7_25 O4_25 1_555 1_555
C8_25 C7_25 1_555 1_555
C9_25 C8_25 1_555 1_555
H4_25 C9_25 1_555 1_555
C10_25 C9_25 1_555 1_555
C11_25 C10_25 1_555 1_555
H5_25 C11_25 1_555 1_555
C12_25 C11_25 1_555 1_555
H6_25 C12_25 1_555 1_555
C13_25 C12_25 1_555 1_555
C14_25 C13_25 1_555 1_555
H7_25 C14_25 1_555 1_555
C15_25 C10_25 1_555 1_555
C16_25 C15_25 1_555 1_555
H8_25 C16_25 1_555 1_555
C17_25 C8_25 1_555 1_555
H9_25 C17_25 1_555 1_555
O15_21 C18_25 1_555 1_555
C18_25 C13_25 1_555 1_555
O6_25 C18_25 1_555 1_555
C19_25 N12_21 1_555 1_555
N12_21 C20_25 1_555 1_555
C20_25 H10_25 1_555 1_555
N2_13 C20_25 1_555 1_555
C21_25 C19_25 1_555 1_555
N3_25 C21_25 1_555 1_555
C22_25 N3_25 1_555 1_555
H11_25 C22_25 1_555 1_555
N4_25 C22_25 1_555 1_555
C23_25 C19_25 1_555 1_555
N5_25 C23_25 1_555 1_555
H12_25 N5_25 1_555 1_555
H13_25 N5_25 1_555 1_555
Zn5_12 O1_25 1_555 1_555
Zn10_17 N3_25 1_555 1_555
O7_19 Zn10_17 1_555 1_555
O8_25 C24_25 1_555 1_555
C24_25 O9_25 1_555 1_555
C25_25 C24_25 1_555 1_555
C26_25 C25_25 1_555 1_555
H14_25 C26_25 1_555 1_555
C27_25 C4_25 1_555 1_555
C28_25 C4_25 1_555 1_555
H15_25 C28_25 1_555 1_555
C29_25 C25_25 1_555 1_555
H16_25 C29_25 1_555 1_555
O10_25 C30_25 1_555 1_555
C30_25 O11_25 1_555 1_555
C31_25 C30_25 1_555 1_555
H21_25 C39_25 1_555 1_555
C40_25 C31_25 1_555 1_555
H22_25 C40_25 1_555 1_555
C45_25 N8_25 1_555 1_555
H24_25 C45_25 1_555 1_555
N9_25 C45_25 1_555 1_555
Zn6_17 O8_25 1_555 1_555
Zn9_12 N8_25 1_555 1_555
N13_13 Zn10_17 1_555 1_555
N14_13 Zn9_12 1_555 1_555
Zn10_7 N2_13 1_555 1_555
O16_20 Zn9_12 1_555 1_555
C5_25 C6_25 1_555 1_555
C5_25 C27_25 1_555 1_555
O3_25 Zn5_12 1_555 1_555
C14_25 C15_25 1_555 1_555
C16_25 C17_25 1_555 1_555
N2_13 C21_25 1_555 1_555
N4_25 C23_25 1_555 1_555
N4_25 Zn5_12 1_555 1_555
O7_19 Zn10_7 1_555 1_555
C26_25 C27_25 1_555 1_555
C28_25 C29_25 1_555 1_555
O10_25 Zn6_17 1_555 1_555
C39_25 C40_25 1_555 1_555
N9_25 Zn6_17 1_555 1_555
O7_20 Zn10_5 1_555 1_555
O1_26 C1_26 1_555 1_555
C1_26 O2_26 1_555 1_555
C2_26 C1_26 1_555 1_555
C3_26 C2_26 1_555 1_555
H1_26 C3_26 1_555 1_555
C4_26 C3_26 1_555 1_555
C5_26 H2_26 1_555 1_555
C6_26 C2_26 1_555 1_555
H3_26 C6_26 1_555 1_555
O3_26 C7_26 1_555 1_555
C7_26 O4_26 1_555 1_555
C8_26 C7_26 1_555 1_555
C9_26 C8_26 1_555 1_555
H4_26 C9_26 1_555 1_555
C10_26 C9_26 1_555 1_555
C11_26 C10_26 1_555 1_555
H5_26 C11_26 1_555 1_555
C12_26 C11_26 1_555 1_555
H6_26 C12_26 1_555 1_555
C13_26 C12_26 1_555 1_555
C14_26 C13_26 1_555 1_555
H7_26 C14_26 1_555 1_555
C15_26 C10_26 1_555 1_555
C16_26 C15_26 1_555 1_555
H8_26 C16_26 1_555 1_555
C17_26 C8_26 1_555 1_555
H9_26 C17_26 1_555 1_555
O15_24 C18_26 1_555 1_555
C18_26 C13_26 1_555 1_555
O6_26 C18_26 1_555 1_555
C19_26 N12_24 1_555 1_555
N12_24 C20_26 1_555 1_555
C20_26 H10_26 1_555 1_555
N2_14 C20_26 1_555 1_555
C21_26 C19_26 1_555 1_555
N3_26 C21_26 1_555 1_555
C22_26 N3_26 1_555 1_555
H11_26 C22_26 1_555 1_555
N4_26 C22_26 1_555 1_555
C23_26 C19_26 1_555 1_555
N5_26 C23_26 1_555 1_555
H12_26 N5_26 1_555 1_555
H13_26 N5_26 1_555 1_555
Zn5_9 O1_26 1_555 1_555
Zn10_19 N3_26 1_555 1_555
O7_21 Zn10_19 1_555 1_555
O8_26 C24_26 1_555 1_555
C24_26 O9_26 1_555 1_555
C25_26 C24_26 1_555 1_555
C26_26 C25_26 1_555 1_555
H14_26 C26_26 1_555 1_555
C27_26 C4_26 1_555 1_555
C28_26 C4_26 1_555 1_555
H15_26 C28_26 1_555 1_555
C29_26 C25_26 1_555 1_555
H16_26 C29_26 1_555 1_555
O10_26 C30_26 1_555 1_555
C30_26 O11_26 1_555 1_555
C31_26 C30_26 1_555 1_555
H21_26 C39_26 1_555 1_555
C40_26 C31_26 1_555 1_555
H22_26 C40_26 1_555 1_555
C45_26 N8_26 1_555 1_555
H24_26 C45_26 1_555 1_555
N9_26 C45_26 1_555 1_555
Zn6_19 O8_26 1_555 1_555
Zn9_9 N8_26 1_555 1_555
N14_14 Zn9_9 1_555 1_555
O16_21 Zn9_9 1_555 1_555
C5_26 C6_26 1_555 1_555
C5_26 C27_26 1_555 1_555
O3_26 Zn5_9 1_555 1_555
C14_26 C15_26 1_555 1_555
C16_26 C17_26 1_555 1_555
N2_14 C21_26 1_555 1_555
N4_26 C23_26 1_555 1_555
N4_26 Zn5_9 1_555 1_555
C26_26 C27_26 1_555 1_555
C28_26 C29_26 1_555 1_555
O10_26 Zn6_19 1_555 1_555
C39_26 C40_26 1_555 1_555
N9_26 Zn6_19 1_555 1_555
H17_26 C32_26 1_555 1_555
C33_26 C32_26 1_555 1_555
C34_26 C33_26 1_555 1_555
H18_26 C34_26 1_555 1_555
C35_26 C34_26 1_555 1_555
H19_26 C35_26 1_555 1_555
C36_26 C35_26 1_555 1_555
C37_26 C36_26 1_555 1_555
H20_26 C37_26 1_555 1_555
C38_26 C33_26 1_555 1_555
O14_8 C41_26 1_555 1_555
C41_26 C36_26 1_555 1_555
O13_26 C41_26 1_555 1_555
C42_26 N11_8 1_555 1_555
N11_8 C43_26 1_555 1_555
C43_26 H23_26 1_555 1_555
N7_14 C43_26 1_555 1_555
C44_26 C42_26 1_555 1_555
C46_26 C42_26 1_555 1_555
N10_26 C46_26 1_555 1_555
H25_26 N10_26 1_555 1_555
H26_26 N10_26 1_555 1_555
Zn9_23 N7_14 1_555 1_555
C37_26 C38_26 1_555 1_555
N7_14 C44_26 1_555 1_555
Zn9_23 O16_22 1_555 1_555
O1_27 C1_27 1_555 1_555
C1_27 O2_27 1_555 1_555
C2_27 C1_27 1_555 1_555
C3_27 C2_27 1_555 1_555
H1_27 C3_27 1_555 1_555
C4_27 C3_27 1_555 1_555
C5_27 H2_27 1_555 1_555
C6_27 C2_27 1_555 1_555
H3_27 C6_27 1_555 1_555
O3_27 C7_27 1_555 1_555
C7_27 O4_27 1_555 1_555
C8_27 C7_27 1_555 1_555
C9_27 C8_27 1_555 1_555
H4_27 C9_27 1_555 1_555
C10_27 C9_27 1_555 1_555
C11_27 C10_27 1_555 1_555
H5_27 C11_27 1_555 1_555
C12_27 C11_27 1_555 1_555
H6_27 C12_27 1_555 1_555
C13_27 C12_27 1_555 1_555
C14_27 C13_27 1_555 1_555
H7_27 C14_27 1_555 1_555
C15_27 C10_27 1_555 1_555
C16_27 C15_27 1_555 1_555
H8_27 C16_27 1_555 1_555
C17_27 C8_27 1_555 1_555
H9_27 C17_27 1_555 1_555
O15_22 C18_27 1_555 1_555
C18_27 C13_27 1_555 1_555
O6_27 C18_27 1_555 1_555
C19_27 N12_22 1_555 1_555
N12_22 C20_27 1_555 1_555
C20_27 H10_27 1_555 1_555
N2_15 C20_27 1_555 1_555
C21_27 C19_27 1_555 1_555
N3_27 C21_27 1_555 1_555
C22_27 N3_27 1_555 1_555
H11_27 C22_27 1_555 1_555
N4_27 C22_27 1_555 1_555
C23_27 C19_27 1_555 1_555
N5_27 C23_27 1_555 1_555
H12_27 N5_27 1_555 1_555
H13_27 N5_27 1_555 1_555
Zn5_11 O1_27 1_555 1_555
Zn10_20 N3_27 1_555 1_555
O7_22 Zn10_20 1_555 1_555
O8_27 C24_27 1_555 1_555
C24_27 O9_27 1_555 1_555
C25_27 C24_27 1_555 1_555
C26_27 C25_27 1_555 1_555
H14_27 C26_27 1_555 1_555
C27_27 C4_27 1_555 1_555
C28_27 C4_27 1_555 1_555
H15_27 C28_27 1_555 1_555
C29_27 C25_27 1_555 1_555
H16_27 C29_27 1_555 1_555
O10_27 C30_27 1_555 1_555
C30_27 O11_27 1_555 1_555
C31_27 C30_27 1_555 1_555
C32_27 C31_27 1_555 1_555
H17_27 C32_27 1_555 1_555
C33_27 C32_27 1_555 1_555
C34_27 C33_27 1_555 1_555
H18_27 C34_27 1_555 1_555
C35_27 C34_27 1_555 1_555
H19_27 C35_27 1_555 1_555
C36_27 C35_27 1_555 1_555
C37_27 C36_27 1_555 1_555
H20_27 C37_27 1_555 1_555
C38_27 C33_27 1_555 1_555
C39_27 C38_27 1_555 1_555
H21_27 C39_27 1_555 1_555
C40_27 C31_27 1_555 1_555
H22_27 C40_27 1_555 1_555
O14_7 C41_27 1_555 1_555
C41_27 C36_27 1_555 1_555
O13_27 C41_27 1_555 1_555
C42_27 N11_7 1_555 1_555
N11_7 C43_27 1_555 1_555
C43_27 H23_27 1_555 1_555
N7_15 C43_27 1_555 1_555
C44_27 C42_27 1_555 1_555
N8_27 C44_27 1_555 1_555
C45_27 N8_27 1_555 1_555
H24_27 C45_27 1_555 1_555
N9_27 C45_27 1_555 1_555
C46_27 C42_27 1_555 1_555
N10_27 C46_27 1_555 1_555
H25_27 N10_27 1_555 1_555
H26_27 N10_27 1_555 1_555
Zn6_20 O8_27 1_555 1_555
Zn9_11 N8_27 1_555 1_555
N13_15 Zn10_20 1_555 1_555
N14_15 Zn9_11 1_555 1_555
Zn10_6 N2_15 1_555 1_555
Zn9_21 N7_15 1_555 1_555
O16_23 Zn9_11 1_555 1_555
C5_27 C6_27 1_555 1_555
C5_27 C27_27 1_555 1_555
O3_27 Zn5_11 1_555 1_555
C14_27 C15_27 1_555 1_555
C16_27 C17_27 1_555 1_555
N2_15 C21_27 1_555 1_555
N4_27 C23_27 1_555 1_555
N4_27 Zn5_11 1_555 1_555
O7_22 Zn10_6 1_555 1_555
C26_27 C27_27 1_555 1_555
C28_27 C29_27 1_555 1_555
O10_27 Zn6_20 1_555 1_555
C37_27 C38_27 1_555 1_555
C39_27 C40_27 1_555 1_555
N7_15 C44_27 1_555 1_555
N9_27 C46_27 1_555 1_555
N9_27 Zn6_20 1_555 1_555
Zn9_21 O16_23 1_555 1_555
O1_28 C1_28 1_555 1_555
C1_28 O2_28 1_555 1_555
C2_28 C1_28 1_555 1_555
C3_28 C2_28 1_555 1_555
H1_28 C3_28 1_555 1_555
C4_28 C3_28 1_555 1_555
C5_28 H2_28 1_555 1_555
C6_28 C2_28 1_555 1_555
H3_28 C6_28 1_555 1_555
O3_28 C7_28 1_555 1_555
C7_28 O4_28 1_555 1_555
C8_28 C7_28 1_555 1_555
C9_28 C8_28 1_555 1_555
H4_28 C9_28 1_555 1_555
C10_28 C9_28 1_555 1_555
C11_28 C10_28 1_555 1_555
H5_28 C11_28 1_555 1_555
C12_28 C11_28 1_555 1_555
H6_28 C12_28 1_555 1_555
C13_28 C12_28 1_555 1_555
C14_28 C13_28 1_555 1_555
H7_28 C14_28 1_555 1_555
C15_28 C10_28 1_555 1_555
C16_28 C15_28 1_555 1_555
H8_28 C16_28 1_555 1_555
C17_28 C8_28 1_555 1_555
H9_28 C17_28 1_555 1_555
O15_23 C18_28 1_555 1_555
C18_28 C13_28 1_555 1_555
O6_28 C18_28 1_555 1_555
C19_28 N12_23 1_555 1_555
N12_23 C20_28 1_555 1_555
C20_28 H10_28 1_555 1_555
N2_16 C20_28 1_555 1_555
C21_28 C19_28 1_555 1_555
N3_28 C21_28 1_555 1_555
C22_28 N3_28 1_555 1_555
H11_28 C22_28 1_555 1_555
N4_28 C22_28 1_555 1_555
C23_28 C19_28 1_555 1_555
N5_28 C23_28 1_555 1_555
H12_28 N5_28 1_555 1_555
H13_28 N5_28 1_555 1_555
Zn5_10 O1_28 1_555 1_555
Zn10_18 N3_28 1_555 1_555
O7_23 Zn10_18 1_555 1_555
O8_28 C24_28 1_555 1_555
C24_28 O9_28 1_555 1_555
C25_28 C24_28 1_555 1_555
C26_28 C25_28 1_555 1_555
H14_28 C26_28 1_555 1_555
C27_28 C4_28 1_555 1_555
C28_28 C4_28 1_555 1_555
H15_28 C28_28 1_555 1_555
C29_28 C25_28 1_555 1_555
H16_28 C29_28 1_555 1_555
O10_28 C30_28 1_555 1_555
C30_28 O11_28 1_555 1_555
C31_28 C30_28 1_555 1_555
C32_28 C31_28 1_555 1_555
H17_28 C32_28 1_555 1_555
C33_28 C32_28 1_555 1_555
C34_28 C33_28 1_555 1_555
H18_28 C34_28 1_555 1_555
C35_28 C34_28 1_555 1_555
H19_28 C35_28 1_555 1_555
C36_28 C35_28 1_555 1_555
C37_28 C36_28 1_555 1_555
H20_28 C37_28 1_555 1_555
C38_28 C33_28 1_555 1_555
C39_28 C38_28 1_555 1_555
H21_28 C39_28 1_555 1_555
C40_28 C31_28 1_555 1_555
H22_28 C40_28 1_555 1_555
O14_5 C41_28 1_555 1_555
C41_28 C36_28 1_555 1_555
O13_28 C41_28 1_555 1_555
C42_28 N11_5 1_555 1_555
N11_5 C43_28 1_555 1_555
C43_28 H23_28 1_555 1_555
N7_16 C43_28 1_555 1_555
C44_28 C42_28 1_555 1_555
N8_28 C44_28 1_555 1_555
C45_28 N8_28 1_555 1_555
H24_28 C45_28 1_555 1_555
N9_28 C45_28 1_555 1_555
C46_28 C42_28 1_555 1_555
N10_28 C46_28 1_555 1_555
H25_28 N10_28 1_555 1_555
H26_28 N10_28 1_555 1_555
Zn6_18 O8_28 1_555 1_555
Zn9_10 N8_28 1_555 1_555
N14_16 Zn9_10 1_555 1_555
Zn9_24 N7_16 1_555 1_555
O16_24 Zn9_10 1_555 1_555
C5_28 C6_28 1_555 1_555
C5_28 C27_28 1_555 1_555
O3_28 Zn5_10 1_555 1_555
C14_28 C15_28 1_555 1_555
C16_28 C17_28 1_555 1_555
N2_16 C21_28 1_555 1_555
N4_28 C23_28 1_555 1_555
N4_28 Zn5_10 1_555 1_555
C26_28 C27_28 1_555 1_555
C28_28 C29_28 1_555 1_555
O10_28 Zn6_18 1_555 1_555
C37_28 C38_28 1_555 1_555
C39_28 C40_28 1_555 1_555
N7_16 C44_28 1_555 1_555
N9_28 C46_28 1_555 1_555
N9_28 Zn6_18 1_555 1_555
Zn9_24 O16_24 1_555 1_555
O7_24 Zn10_8 1_555 1_555
H17_29 C32_29 1_555 1_555
C33_29 C32_29 1_555 1_555
C34_29 C33_29 1_555 1_555
H18_29 C34_29 1_555 1_555
C35_29 C34_29 1_555 1_555
H19_29 C35_29 1_555 1_555
C36_29 C35_29 1_555 1_555
C37_29 C36_29 1_555 1_555
H20_29 C37_29 1_555 1_555
C38_29 C33_29 1_555 1_555
O14_10 C41_29 1_555 1_555
C41_29 C36_29 1_555 1_555
O13_29 C41_29 1_555 1_555
C42_29 N11_10 1_555 1_555
N11_10 C43_29 1_555 1_555
C43_29 H23_29 1_555 1_555
N7_17 C43_29 1_555 1_555
C44_29 C42_29 1_555 1_555
C46_29 C42_29 1_555 1_555
N10_29 C46_29 1_555 1_555
H25_29 N10_29 1_555 1_555
H26_29 N10_29 1_555 1_555
Zn9_14 N7_17 1_555 1_555
C37_29 C38_29 1_555 1_555
N7_17 C44_29 1_555 1_555
Zn9_14 O16_25 1_555 1_555
O1_29 C1_29 1_555 1_555
C1_29 O2_29 1_555 1_555
C2_29 C1_29 1_555 1_555
C3_29 C2_29 1_555 1_555
H1_29 C3_29 1_555 1_555
C4_29 C3_29 1_555 1_555
C5_29 H2_29 1_555 1_555
C6_29 C2_29 1_555 1_555
H3_29 C6_29 1_555 1_555
O3_29 C7_29 1_555 1_555
C7_29 O4_29 1_555 1_555
C8_29 C7_29 1_555 1_555
C9_29 C8_29 1_555 1_555
H4_29 C9_29 1_555 1_555
C10_29 C9_29 1_555 1_555
C11_29 C10_29 1_555 1_555
H5_29 C11_29 1_555 1_555
C12_29 C11_29 1_555 1_555
H6_29 C12_29 1_555 1_555
C13_29 C12_29 1_555 1_555
C14_29 C13_29 1_555 1_555
H7_29 C14_29 1_555 1_555
C15_29 C10_29 1_555 1_555
C16_29 C15_29 1_555 1_555
H8_29 C16_29 1_555 1_555
C17_29 C8_29 1_555 1_555
H9_29 C17_29 1_555 1_555
O15_13 C18_29 1_555 1_555
C18_29 C13_29 1_555 1_555
O6_29 C18_29 1_555 1_555
C19_29 N12_13 1_555 1_555
N12_13 C20_29 1_555 1_555
C20_29 H10_29 1_555 1_555
N2_17 C20_29 1_555 1_555
C21_29 C19_29 1_555 1_555
N3_29 C21_29 1_555 1_555
C22_29 N3_29 1_555 1_555
H11_29 C22_29 1_555 1_555
N4_29 C22_29 1_555 1_555
C23_29 C19_29 1_555 1_555
N5_29 C23_29 1_555 1_555
H12_29 N5_29 1_555 1_555
H13_29 N5_29 1_555 1_555
Zn5_4 O1_29 1_555 1_555
Zn10_21 N3_29 1_555 1_555
O7_25 Zn10_21 1_555 1_555
O8_29 C24_29 1_555 1_555
C24_29 O9_29 1_555 1_555
C25_29 C24_29 1_555 1_555
C26_29 C25_29 1_555 1_555
H14_29 C26_29 1_555 1_555
C27_29 C4_29 1_555 1_555
C28_29 C4_29 1_555 1_555
H15_29 C28_29 1_555 1_555
C29_29 C25_29 1_555 1_555
H16_29 C29_29 1_555 1_555
O10_29 C30_29 1_555 1_555
C30_29 O11_29 1_555 1_555
C31_29 C30_29 1_555 1_555
H21_29 C39_29 1_555 1_555
C40_29 C31_29 1_555 1_555
H22_29 C40_29 1_555 1_555
C45_29 N8_29 1_555 1_555
H24_29 C45_29 1_555 1_555
N9_29 C45_29 1_555 1_555
Zn6_21 O8_29 1_555 1_555
Zn9_4 N8_29 1_555 1_555
N13_17 Zn10_21 1_555 1_555
N14_17 Zn9_4 1_555 1_555
Zn10_11 N2_17 1_555 1_555
O16_26 Zn9_4 1_555 1_555
C5_29 C6_29 1_555 1_555
C5_29 C27_29 1_555 1_555
O3_29 Zn5_4 1_555 1_555
C14_29 C15_29 1_555 1_555
C16_29 C17_29 1_555 1_555
N2_17 C21_29 1_555 1_555
N4_29 C23_29 1_555 1_555
N4_29 Zn5_4 1_555 1_555
O7_25 Zn10_11 1_555 1_555
C26_29 C27_29 1_555 1_555
C28_29 C29_29 1_555 1_555
O10_29 Zn6_21 1_555 1_555
C39_29 C40_29 1_555 1_555
N9_29 Zn6_21 1_555 1_555
O7_26 Zn10_9 1_555 1_555
O1_30 C1_30 1_555 1_555
C1_30 O2_30 1_555 1_555
C2_30 C1_30 1_555 1_555
C3_30 C2_30 1_555 1_555
H1_30 C3_30 1_555 1_555
C4_30 C3_30 1_555 1_555
C5_30 H2_30 1_555 1_555
C6_30 C2_30 1_555 1_555
H3_30 C6_30 1_555 1_555
O3_30 C7_30 1_555 1_555
C7_30 O4_30 1_555 1_555
C8_30 C7_30 1_555 1_555
C9_30 C8_30 1_555 1_555
H4_30 C9_30 1_555 1_555
C10_30 C9_30 1_555 1_555
C11_30 C10_30 1_555 1_555
H5_30 C11_30 1_555 1_555
C12_30 C11_30 1_555 1_555
H6_30 C12_30 1_555 1_555
C13_30 C12_30 1_555 1_555
C14_30 C13_30 1_555 1_555
H7_30 C14_30 1_555 1_555
C15_30 C10_30 1_555 1_555
C16_30 C15_30 1_555 1_555
H8_30 C16_30 1_555 1_555
C17_30 C8_30 1_555 1_555
H9_30 C17_30 1_555 1_555
O15_16 C18_30 1_555 1_555
C18_30 C13_30 1_555 1_555
O6_30 C18_30 1_555 1_555
C19_30 N12_16 1_555 1_555
N12_16 C20_30 1_555 1_555
C20_30 H10_30 1_555 1_555
N2_18 C20_30 1_555 1_555
C21_30 C19_30 1_555 1_555
N3_30 C21_30 1_555 1_555
C22_30 N3_30 1_555 1_555
H11_30 C22_30 1_555 1_555
N4_30 C22_30 1_555 1_555
C23_30 C19_30 1_555 1_555
N5_30 C23_30 1_555 1_555
H12_30 N5_30 1_555 1_555
H13_30 N5_30 1_555 1_555
Zn5 O1_30 1_555 1_555
Zn10_23 N3_30 1_555 1_555
O7_27 Zn10_23 1_555 1_555
O8_30 C24_30 1_555 1_555
C24_30 O9_30 1_555 1_555
C25_30 C24_30 1_555 1_555
C26_30 C25_30 1_555 1_555
H14_30 C26_30 1_555 1_555
C27_30 C4_30 1_555 1_555
C28_30 C4_30 1_555 1_555
H15_30 C28_30 1_555 1_555
C29_30 C25_30 1_555 1_555
H16_30 C29_30 1_555 1_555
O10_30 C30_30 1_555 1_555
C30_30 O11_30 1_555 1_555
C31_30 C30_30 1_555 1_555
H21_30 C39_30 1_555 1_555
C40_30 C31_30 1_555 1_555
H22_30 C40_30 1_555 1_555
C45_30 N8_30 1_555 1_555
H24_30 C45_30 1_555 1_555
N9_30 C45_30 1_555 1_555
Zn6_23 O8_30 1_555 1_555
Zn9 N8_30 1_555 1_555
N14_18 Zn9 1_555 1_555
O16_27 Zn9 1_555 1_555
C5_30 C6_30 1_555 1_555
C5_30 C27_30 1_555 1_555
O3_30 Zn5 1_555 1_555
C14_30 C15_30 1_555 1_555
C16_30 C17_30 1_555 1_555
N2_18 C21_30 1_555 1_555
N4_30 C23_30 1_555 1_555
N4_30 Zn5 1_555 1_555
C26_30 C27_30 1_555 1_555
C28_30 C29_30 1_555 1_555
O10_30 Zn6_23 1_555 1_555
C39_30 C40_30 1_555 1_555
N9_30 Zn6_23 1_555 1_555
H17_30 C32_30 1_555 1_555
C33_30 C32_30 1_555 1_555
C34_30 C33_30 1_555 1_555
H18_30 C34_30 1_555 1_555
C35_30 C34_30 1_555 1_555
H19_30 C35_30 1_555 1_555
C36_30 C35_30 1_555 1_555
C37_30 C36_30 1_555 1_555
H20_30 C37_30 1_555 1_555
C38_30 C33_30 1_555 1_555
O14_12 C41_30 1_555 1_555
C41_30 C36_30 1_555 1_555
O13_30 C41_30 1_555 1_555
C42_30 N11_12 1_555 1_555
N11_12 C43_30 1_555 1_555
C43_30 H23_30 1_555 1_555
N7_18 C43_30 1_555 1_555
C44_30 C42_30 1_555 1_555
C46_30 C42_30 1_555 1_555
N10_30 C46_30 1_555 1_555
H25_30 N10_30 1_555 1_555
H26_30 N10_30 1_555 1_555
Zn9_15 N7_18 1_555 1_555
C37_30 C38_30 1_555 1_555
N7_18 C44_30 1_555 1_555
Zn9_15 O16_28 1_555 1_555
O1_31 C1_31 1_555 1_555
C1_31 O2_31 1_555 1_555
C2_31 C1_31 1_555 1_555
C3_31 C2_31 1_555 1_555
H1_31 C3_31 1_555 1_555
C4_31 C3_31 1_555 1_555
C5_31 H2_31 1_555 1_555
C6_31 C2_31 1_555 1_555
H3_31 C6_31 1_555 1_555
O3_31 C7_31 1_555 1_555
C7_31 O4_31 1_555 1_555
C8_31 C7_31 1_555 1_555
C9_31 C8_31 1_555 1_555
H4_31 C9_31 1_555 1_555
C10_31 C9_31 1_555 1_555
C11_31 C10_31 1_555 1_555
H5_31 C11_31 1_555 1_555
C12_31 C11_31 1_555 1_555
H6_31 C12_31 1_555 1_555
C13_31 C12_31 1_555 1_555
C14_31 C13_31 1_555 1_555
H7_31 C14_31 1_555 1_555
C15_31 C10_31 1_555 1_555
C16_31 C15_31 1_555 1_555
H8_31 C16_31 1_555 1_555
C17_31 C8_31 1_555 1_555
H9_31 C17_31 1_555 1_555
O15_14 C18_31 1_555 1_555
C18_31 C13_31 1_555 1_555
O6_31 C18_31 1_555 1_555
C19_31 N12_14 1_555 1_555
N12_14 C20_31 1_555 1_555
C20_31 H10_31 1_555 1_555
N2_19 C20_31 1_555 1_555
C21_31 C19_31 1_555 1_555
N3_31 C21_31 1_555 1_555
C22_31 N3_31 1_555 1_555
H11_31 C22_31 1_555 1_555
N4_31 C22_31 1_555 1_555
C23_31 C19_31 1_555 1_555
N5_31 C23_31 1_555 1_555
H12_31 N5_31 1_555 1_555
H13_31 N5_31 1_555 1_555
Zn5_3 O1_31 1_555 1_555
Zn10_24 N3_31 1_555 1_555
O7_28 Zn10_24 1_555 1_555
O8_31 C24_31 1_555 1_555
C24_31 O9_31 1_555 1_555
C25_31 C24_31 1_555 1_555
C26_31 C25_31 1_555 1_555
H14_31 C26_31 1_555 1_555
C27_31 C4_31 1_555 1_555
C28_31 C4_31 1_555 1_555
H15_31 C28_31 1_555 1_555
C29_31 C25_31 1_555 1_555
H16_31 C29_31 1_555 1_555
O10_31 C30_31 1_555 1_555
C30_31 O11_31 1_555 1_555
C31_31 C30_31 1_555 1_555
C32_31 C31_31 1_555 1_555
H17_31 C32_31 1_555 1_555
C33_31 C32_31 1_555 1_555
C34_31 C33_31 1_555 1_555
H18_31 C34_31 1_555 1_555
C35_31 C34_31 1_555 1_555
H19_31 C35_31 1_555 1_555
C36_31 C35_31 1_555 1_555
C37_31 C36_31 1_555 1_555
H20_31 C37_31 1_555 1_555
C38_31 C33_31 1_555 1_555
C39_31 C38_31 1_555 1_555
H21_31 C39_31 1_555 1_555
C40_31 C31_31 1_555 1_555
H22_31 C40_31 1_555 1_555
O14_11 C41_31 1_555 1_555
C41_31 C36_31 1_555 1_555
O13_31 C41_31 1_555 1_555
C42_31 N11_11 1_555 1_555
N11_11 C43_31 1_555 1_555
C43_31 H23_31 1_555 1_555
N7_19 C43_31 1_555 1_555
C44_31 C42_31 1_555 1_555
N8_31 C44_31 1_555 1_555
C45_31 N8_31 1_555 1_555
H24_31 C45_31 1_555 1_555
N9_31 C45_31 1_555 1_555
C46_31 C42_31 1_555 1_555
N10_31 C46_31 1_555 1_555
H25_31 N10_31 1_555 1_555
H26_31 N10_31 1_555 1_555
Zn6_24 O8_31 1_555 1_555
Zn9_3 N8_31 1_555 1_555
N13_19 Zn10_24 1_555 1_555
N14_19 Zn9_3 1_555 1_555
Zn10_10 N2_19 1_555 1_555
Zn9_13 N7_19 1_555 1_555
O16_29 Zn9_3 1_555 1_555
C5_31 C6_31 1_555 1_555
C5_31 C27_31 1_555 1_555
O3_31 Zn5_3 1_555 1_555
C14_31 C15_31 1_555 1_555
C16_31 C17_31 1_555 1_555
N2_19 C21_31 1_555 1_555
N4_31 C23_31 1_555 1_555
N4_31 Zn5_3 1_555 1_555
O7_28 Zn10_10 1_555 1_555
C26_31 C27_31 1_555 1_555
C28_31 C29_31 1_555 1_555
O10_31 Zn6_24 1_555 1_555
C37_31 C38_31 1_555 1_555
C39_31 C40_31 1_555 1_555
N7_19 C44_31 1_555 1_555
N9_31 C46_31 1_555 1_555
N9_31 Zn6_24 1_555 1_555
Zn9_13 O16_29 1_555 1_555
O1_32 C1_32 1_555 1_555
C1_32 O2_32 1_555 1_555
C2_32 C1_32 1_555 1_555
C3_32 C2_32 1_555 1_555
H1_32 C3_32 1_555 1_555
C4_32 C3_32 1_555 1_555
C5_32 H2_32 1_555 1_555
C6_32 C2_32 1_555 1_555
H3_32 C6_32 1_555 1_555
O3_32 C7_32 1_555 1_555
C7_32 O4_32 1_555 1_555
C8_32 C7_32 1_555 1_555
C9_32 C8_32 1_555 1_555
H4_32 C9_32 1_555 1_555
C10_32 C9_32 1_555 1_555
C11_32 C10_32 1_555 1_555
H5_32 C11_32 1_555 1_555
C12_32 C11_32 1_555 1_555
H6_32 C12_32 1_555 1_555
C13_32 C12_32 1_555 1_555
C14_32 C13_32 1_555 1_555
H7_32 C14_32 1_555 1_555
C15_32 C10_32 1_555 1_555
C16_32 C15_32 1_555 1_555
H8_32 C16_32 1_555 1_555
C17_32 C8_32 1_555 1_555
H9_32 C17_32 1_555 1_555
O15_15 C18_32 1_555 1_555
C18_32 C13_32 1_555 1_555
O6_32 C18_32 1_555 1_555
C19_32 N12_15 1_555 1_555
N12_15 C20_32 1_555 1_555
C20_32 H10_32 1_555 1_555
N2_20 C20_32 1_555 1_555
C21_32 C19_32 1_555 1_555
N3_32 C21_32 1_555 1_555
C22_32 N3_32 1_555 1_555
H11_32 C22_32 1_555 1_555
N4_32 C22_32 1_555 1_555
C23_32 C19_32 1_555 1_555
N5_32 C23_32 1_555 1_555
H12_32 N5_32 1_555 1_555
H13_32 N5_32 1_555 1_555
Zn5_2 O1_32 1_555 1_555
Zn10_22 N3_32 1_555 1_555
O7_29 Zn10_22 1_555 1_555
O8_32 C24_32 1_555 1_555
C24_32 O9_32 1_555 1_555
C25_32 C24_32 1_555 1_555
C26_32 C25_32 1_555 1_555
H14_32 C26_32 1_555 1_555
C27_32 C4_32 1_555 1_555
C28_32 C4_32 1_555 1_555
H15_32 C28_32 1_555 1_555
C29_32 C25_32 1_555 1_555
H16_32 C29_32 1_555 1_555
O10_32 C30_32 1_555 1_555
C30_32 O11_32 1_555 1_555
C31_32 C30_32 1_555 1_555
C32_32 C31_32 1_555 1_555
H17_32 C32_32 1_555 1_555
C33_32 C32_32 1_555 1_555
C34_32 C33_32 1_555 1_555
H18_32 C34_32 1_555 1_555
C35_32 C34_32 1_555 1_555
H19_32 C35_32 1_555 1_555
C36_32 C35_32 1_555 1_555
C37_32 C36_32 1_555 1_555
H20_32 C37_32 1_555 1_555
C38_32 C33_32 1_555 1_555
C39_32 C38_32 1_555 1_555
H21_32 C39_32 1_555 1_555
C40_32 C31_32 1_555 1_555
H22_32 C40_32 1_555 1_555
O14_9 C41_32 1_555 1_555
C41_32 C36_32 1_555 1_555
O13_32 C41_32 1_555 1_555
C42_32 N11_9 1_555 1_555
N11_9 C43_32 1_555 1_555
C43_32 H23_32 1_555 1_555
N7_20 C43_32 1_555 1_555
C44_32 C42_32 1_555 1_555
N8_32 C44_32 1_555 1_555
C45_32 N8_32 1_555 1_555
H24_32 C45_32 1_555 1_555
N9_32 C45_32 1_555 1_555
C46_32 C42_32 1_555 1_555
N10_32 C46_32 1_555 1_555
H25_32 N10_32 1_555 1_555
H26_32 N10_32 1_555 1_555
Zn6_22 O8_32 1_555 1_555
Zn9_2 N8_32 1_555 1_555
N14_20 Zn9_2 1_555 1_555
Zn9_16 N7_20 1_555 1_555
O16_30 Zn9_2 1_555 1_555
C5_32 C6_32 1_555 1_555
C5_32 C27_32 1_555 1_555
O3_32 Zn5_2 1_555 1_555
C14_32 C15_32 1_555 1_555
C16_32 C17_32 1_555 1_555
N2_20 C21_32 1_555 1_555
N4_32 C23_32 1_555 1_555
N4_32 Zn5_2 1_555 1_555
C26_32 C27_32 1_555 1_555
C28_32 C29_32 1_555 1_555
O10_32 Zn6_22 1_555 1_555
C37_32 C38_32 1_555 1_555
C39_32 C40_32 1_555 1_555
N7_20 C44_32 1_555 1_555
N9_32 C46_32 1_555 1_555
N9_32 Zn6_22 1_555 1_555
Zn9_16 O16_30 1_555 1_555
O7_30 Zn10_12 1_555 1_555
H17_33 C32_33 1_555 1_555
C33_33 C32_33 1_555 1_555
C34_33 C33_33 1_555 1_555
H18_33 C34_33 1_555 1_555
C35_33 C34_33 1_555 1_555
H19_33 C35_33 1_555 1_555
C36_33 C35_33 1_555 1_555
C37_33 C36_33 1_555 1_555
H20_33 C37_33 1_555 1_555
C38_33 C33_33 1_555 1_555
O14_2 C41_33 1_555 1_555
C41_33 C36_33 1_555 1_555
O13_33 C41_33 1_555 1_555
C42_33 N11_2 1_555 1_555
N11_2 C43_33 1_555 1_555
C43_33 H23_33 1_555 1_555
N7_21 C43_33 1_555 1_555
C44_33 C42_33 1_555 1_555
C46_33 C42_33 1_555 1_555
N10_33 C46_33 1_555 1_555
H25_33 N10_33 1_555 1_555
H26_33 N10_33 1_555 1_555
Zn9_18 N7_21 1_555 1_555
C37_33 C38_33 1_555 1_555
N7_21 C44_33 1_555 1_555
Zn9_18 O16_31 1_555 1_555
O1_33 C1_33 1_555 1_555
C1_33 O2_33 1_555 1_555
C2_33 C1_33 1_555 1_555
C3_33 C2_33 1_555 1_555
H1_33 C3_33 1_555 1_555
C4_33 C3_33 1_555 1_555
C5_33 H2_33 1_555 1_555
C6_33 C2_33 1_555 1_555
H3_33 C6_33 1_555 1_555
O3_33 C7_33 1_555 1_555
C7_33 O4_33 1_555 1_555
C8_33 C7_33 1_555 1_555
C9_33 C8_33 1_555 1_555
H4_33 C9_33 1_555 1_555
C10_33 C9_33 1_555 1_555
C11_33 C10_33 1_555 1_555
H5_33 C11_33 1_555 1_555
C12_33 C11_33 1_555 1_555
H6_33 C12_33 1_555 1_555
C13_33 C12_33 1_555 1_555
C14_33 C13_33 1_555 1_555
H7_33 C14_33 1_555 1_555
C15_33 C10_33 1_555 1_555
C16_33 C15_33 1_555 1_555
H8_33 C16_33 1_555 1_555
C17_33 C8_33 1_555 1_555
H9_33 C17_33 1_555 1_555
O15_17 C18_33 1_555 1_555
C18_33 C13_33 1_555 1_555
O6_33 C18_33 1_555 1_555
C19_33 N12_17 1_555 1_555
N12_17 C20_33 1_555 1_555
C20_33 H10_33 1_555 1_555
N2_21 C20_33 1_555 1_555
C21_33 C19_33 1_555 1_555
N3_33 C21_33 1_555 1_555
C22_33 N3_33 1_555 1_555
H11_33 C22_33 1_555 1_555
N4_33 C22_33 1_555 1_555
C23_33 C19_33 1_555 1_555
N5_33 C23_33 1_555 1_555
H12_33 N5_33 1_555 1_555
H13_33 N5_33 1_555 1_555
Zn5_8 O1_33 1_555 1_555
Zn10_13 N3_33 1_555 1_555
O7_31 Zn10_13 1_555 1_555
O8_33 C24_33 1_555 1_555
C24_33 O9_33 1_555 1_555
C25_33 C24_33 1_555 1_555
C26_33 C25_33 1_555 1_555
H14_33 C26_33 1_555 1_555
C27_33 C4_33 1_555 1_555
C28_33 C4_33 1_555 1_555
H15_33 C28_33 1_555 1_555
C29_33 C25_33 1_555 1_555
H16_33 C29_33 1_555 1_555
O10_33 C30_33 1_555 1_555
C30_33 O11_33 1_555 1_555
C31_33 C30_33 1_555 1_555
H21_33 C39_33 1_555 1_555
C40_33 C31_33 1_555 1_555
H22_33 C40_33 1_555 1_555
C45_33 N8_33 1_555 1_555
H24_33 C45_33 1_555 1_555
N9_33 C45_33 1_555 1_555
Zn6_13 O8_33 1_555 1_555
Zn9_8 N8_33 1_555 1_555
N13_21 Zn10_13 1_555 1_555
N14_21 Zn9_8 1_555 1_555
Zn10_3 N2_21 1_555 1_555
O16_32 Zn9_8 1_555 1_555
C5_33 C6_33 1_555 1_555
C5_33 C27_33 1_555 1_555
O3_33 Zn5_8 1_555 1_555
C14_33 C15_33 1_555 1_555
C16_33 C17_33 1_555 1_555
N2_21 C21_33 1_555 1_555
N4_33 C23_33 1_555 1_555
N4_33 Zn5_8 1_555 1_555
O7_31 Zn10_3 1_555 1_555
C26_33 C27_33 1_555 1_555
C28_33 C29_33 1_555 1_555
O10_33 Zn6_13 1_555 1_555
C39_33 C40_33 1_555 1_555
N9_33 Zn6_13 1_555 1_555
O7_32 Zn10 1_555 1_555
O1_34 C1_34 1_555 1_555
C1_34 O2_34 1_555 1_555
C2_34 C1_34 1_555 1_555
C3_34 C2_34 1_555 1_555
H1_34 C3_34 1_555 1_555
C4_34 C3_34 1_555 1_555
C5_34 H2_34 1_555 1_555
C6_34 C2_34 1_555 1_555
H3_34 C6_34 1_555 1_555
O3_34 C7_34 1_555 1_555
C7_34 O4_34 1_555 1_555
C8_34 C7_34 1_555 1_555
C9_34 C8_34 1_555 1_555
H4_34 C9_34 1_555 1_555
C10_34 C9_34 1_555 1_555
C11_34 C10_34 1_555 1_555
H5_34 C11_34 1_555 1_555
C12_34 C11_34 1_555 1_555
H6_34 C12_34 1_555 1_555
C13_34 C12_34 1_555 1_555
C14_34 C13_34 1_555 1_555
H7_34 C14_34 1_555 1_555
C15_34 C10_34 1_555 1_555
C16_34 C15_34 1_555 1_555
H8_34 C16_34 1_555 1_555
C17_34 C8_34 1_555 1_555
H9_34 C17_34 1_555 1_555
O15_20 C18_34 1_555 1_555
C18_34 C13_34 1_555 1_555
O6_34 C18_34 1_555 1_555
C19_34 N12_20 1_555 1_555
N12_20 C20_34 1_555 1_555
C20_34 H10_34 1_555 1_555
N2_22 C20_34 1_555 1_555
C21_34 C19_34 1_555 1_555
N3_34 C21_34 1_555 1_555
C22_34 N3_34 1_555 1_555
H11_34 C22_34 1_555 1_555
N4_34 C22_34 1_555 1_555
C23_34 C19_34 1_555 1_555
N5_34 C23_34 1_555 1_555
H12_34 N5_34 1_555 1_555
H13_34 N5_34 1_555 1_555
Zn5_5 O1_34 1_555 1_555
Zn10_15 N3_34 1_555 1_555
O7_33 Zn10_15 1_555 1_555
O8_34 C24_34 1_555 1_555
C24_34 O9_34 1_555 1_555
C25_34 C24_34 1_555 1_555
C26_34 C25_34 1_555 1_555
H14_34 C26_34 1_555 1_555
C27_34 C4_34 1_555 1_555
C28_34 C4_34 1_555 1_555
H15_34 C28_34 1_555 1_555
C29_34 C25_34 1_555 1_555
H16_34 C29_34 1_555 1_555
O10_34 C30_34 1_555 1_555
C30_34 O11_34 1_555 1_555
C31_34 C30_34 1_555 1_555
H21_34 C39_34 1_555 1_555
C40_34 C31_34 1_555 1_555
H22_34 C40_34 1_555 1_555
C45_34 N8_34 1_555 1_555
H24_34 C45_34 1_555 1_555
N9_34 C45_34 1_555 1_555
Zn6_15 O8_34 1_555 1_555
Zn9_5 N8_34 1_555 1_555
N14_22 Zn9_5 1_555 1_555
O16_33 Zn9_5 1_555 1_555
C5_34 C6_34 1_555 1_555
C5_34 C27_34 1_555 1_555
O3_34 Zn5_5 1_555 1_555
C14_34 C15_34 1_555 1_555
C16_34 C17_34 1_555 1_555
N2_22 C21_34 1_555 1_555
N4_34 C23_34 1_555 1_555
N4_34 Zn5_5 1_555 1_555
C26_34 C27_34 1_555 1_555
C28_34 C29_34 1_555 1_555
O10_34 Zn6_15 1_555 1_555
C39_34 C40_34 1_555 1_555
N9_34 Zn6_15 1_555 1_555
H17_34 C32_34 1_555 1_555
C33_34 C32_34 1_555 1_555
C34_34 C33_34 1_555 1_555
H18_34 C34_34 1_555 1_555
C35_34 C34_34 1_555 1_555
H19_34 C35_34 1_555 1_555
C36_34 C35_34 1_555 1_555
C37_34 C36_34 1_555 1_555
H20_34 C37_34 1_555 1_555
C38_34 C33_34 1_555 1_555
O14_4 C41_34 1_555 1_555
C41_34 C36_34 1_555 1_555
O13_34 C41_34 1_555 1_555
C42_34 N11_4 1_555 1_555
N11_4 C43_34 1_555 1_555
C43_34 H23_34 1_555 1_555
N7_22 C43_34 1_555 1_555
C44_34 C42_34 1_555 1_555
C46_34 C42_34 1_555 1_555
N10_34 C46_34 1_555 1_555
H25_34 N10_34 1_555 1_555
H26_34 N10_34 1_555 1_555
Zn9_19 N7_22 1_555 1_555
C37_34 C38_34 1_555 1_555
N7_22 C44_34 1_555 1_555
Zn9_19 O16_34 1_555 1_555
O1_35 C1_35 1_555 1_555
C1_35 O2_35 1_555 1_555
C2_35 C1_35 1_555 1_555
C3_35 C2_35 1_555 1_555
H1_35 C3_35 1_555 1_555
C4_35 C3_35 1_555 1_555
C5_35 H2_35 1_555 1_555
C6_35 C2_35 1_555 1_555
H3_35 C6_35 1_555 1_555
O3_35 C7_35 1_555 1_555
C7_35 O4_35 1_555 1_555
C8_35 C7_35 1_555 1_555
C9_35 C8_35 1_555 1_555
H4_35 C9_35 1_555 1_555
C10_35 C9_35 1_555 1_555
C11_35 C10_35 1_555 1_555
H5_35 C11_35 1_555 1_555
C12_35 C11_35 1_555 1_555
H6_35 C12_35 1_555 1_555
C13_35 C12_35 1_555 1_555
C14_35 C13_35 1_555 1_555
H7_35 C14_35 1_555 1_555
C15_35 C10_35 1_555 1_555
C16_35 C15_35 1_555 1_555
H8_35 C16_35 1_555 1_555
C17_35 C8_35 1_555 1_555
H9_35 C17_35 1_555 1_555
O15_18 C18_35 1_555 1_555
C18_35 C13_35 1_555 1_555
O6_35 C18_35 1_555 1_555
C19_35 N12_18 1_555 1_555
N12_18 C20_35 1_555 1_555
C20_35 H10_35 1_555 1_555
N2_23 C20_35 1_555 1_555
C21_35 C19_35 1_555 1_555
N3_35 C21_35 1_555 1_555
C22_35 N3_35 1_555 1_555
H11_35 C22_35 1_555 1_555
N4_35 C22_35 1_555 1_555
C23_35 C19_35 1_555 1_555
N5_35 C23_35 1_555 1_555
H12_35 N5_35 1_555 1_555
H13_35 N5_35 1_555 1_555
Zn5_7 O1_35 1_555 1_555
Zn10_16 N3_35 1_555 1_555
O7_34 Zn10_16 1_555 1_555
O8_35 C24_35 1_555 1_555
C24_35 O9_35 1_555 1_555
C25_35 C24_35 1_555 1_555
C26_35 C25_35 1_555 1_555
H14_35 C26_35 1_555 1_555
C27_35 C4_35 1_555 1_555
C28_35 C4_35 1_555 1_555
H15_35 C28_35 1_555 1_555
C29_35 C25_35 1_555 1_555
H16_35 C29_35 1_555 1_555
O10_35 C30_35 1_555 1_555
C30_35 O11_35 1_555 1_555
C31_35 C30_35 1_555 1_555
C32_35 C31_35 1_555 1_555
H17_35 C32_35 1_555 1_555
C33_35 C32_35 1_555 1_555
C34_35 C33_35 1_555 1_555
H18_35 C34_35 1_555 1_555
C35_35 C34_35 1_555 1_555
H19_35 C35_35 1_555 1_555
C36_35 C35_35 1_555 1_555
C37_35 C36_35 1_555 1_555
H20_35 C37_35 1_555 1_555
C38_35 C33_35 1_555 1_555
C39_35 C38_35 1_555 1_555
H21_35 C39_35 1_555 1_555
C40_35 C31_35 1_555 1_555
H22_35 C40_35 1_555 1_555
O14_3 C41_35 1_555 1_555
C41_35 C36_35 1_555 1_555
O13_35 C41_35 1_555 1_555
C42_35 N11_3 1_555 1_555
N11_3 C43_35 1_555 1_555
C43_35 H23_35 1_555 1_555
N7_23 C43_35 1_555 1_555
C44_35 C42_35 1_555 1_555
N8_35 C44_35 1_555 1_555
C45_35 N8_35 1_555 1_555
H24_35 C45_35 1_555 1_555
N9_35 C45_35 1_555 1_555
C46_35 C42_35 1_555 1_555
N10_35 C46_35 1_555 1_555
H25_35 N10_35 1_555 1_555
H26_35 N10_35 1_555 1_555
Zn6_16 O8_35 1_555 1_555
Zn9_7 N8_35 1_555 1_555
N13_23 Zn10_16 1_555 1_555
N14_23 Zn9_7 1_555 1_555
Zn10_2 N2_23 1_555 1_555
Zn9_17 N7_23 1_555 1_555
O16_35 Zn9_7 1_555 1_555
C5_35 C6_35 1_555 1_555
C5_35 C27_35 1_555 1_555
O3_35 Zn5_7 1_555 1_555
C14_35 C15_35 1_555 1_555
C16_35 C17_35 1_555 1_555
N2_23 C21_35 1_555 1_555
N4_35 C23_35 1_555 1_555
N4_35 Zn5_7 1_555 1_555
O7_34 Zn10_2 1_555 1_555
C26_35 C27_35 1_555 1_555
C28_35 C29_35 1_555 1_555
O10_35 Zn6_16 1_555 1_555
C37_35 C38_35 1_555 1_555
C39_35 C40_35 1_555 1_555
N7_23 C44_35 1_555 1_555
N9_35 C46_35 1_555 1_555
N9_35 Zn6_16 1_555 1_555
Zn9_17 O16_35 1_555 1_555
O1_36 C1_36 1_555 1_555
C1_36 O2_36 1_555 1_555
C2_36 C1_36 1_555 1_555
C3_36 C2_36 1_555 1_555
H1_36 C3_36 1_555 1_555
C4_36 C3_36 1_555 1_555
C5_36 H2_36 1_555 1_555
C6_36 C2_36 1_555 1_555
H3_36 C6_36 1_555 1_555
O3_36 C7_36 1_555 1_555
C7_36 O4_36 1_555 1_555
C8_36 C7_36 1_555 1_555
C9_36 C8_36 1_555 1_555
H4_36 C9_36 1_555 1_555
C10_36 C9_36 1_555 1_555
C11_36 C10_36 1_555 1_555
H5_36 C11_36 1_555 1_555
C12_36 C11_36 1_555 1_555
H6_36 C12_36 1_555 1_555
C13_36 C12_36 1_555 1_555
C14_36 C13_36 1_555 1_555
H7_36 C14_36 1_555 1_555
C15_36 C10_36 1_555 1_555
C16_36 C15_36 1_555 1_555
H8_36 C16_36 1_555 1_555
C17_36 C8_36 1_555 1_555
H9_36 C17_36 1_555 1_555
O15_19 C18_36 1_555 1_555
C18_36 C13_36 1_555 1_555
O6_36 C18_36 1_555 1_555
C19_36 N12_19 1_555 1_555
N12_19 C20_36 1_555 1_555
C20_36 H10_36 1_555 1_555
N2_24 C20_36 1_555 1_555
C21_36 C19_36 1_555 1_555
N3_36 C21_36 1_555 1_555
C22_36 N3_36 1_555 1_555
H11_36 C22_36 1_555 1_555
N4_36 C22_36 1_555 1_555
C23_36 C19_36 1_555 1_555
N5_36 C23_36 1_555 1_555
H12_36 N5_36 1_555 1_555
H13_36 N5_36 1_555 1_555
Zn5_6 O1_36 1_555 1_555
Zn10_14 N3_36 1_555 1_555
O7_35 Zn10_14 1_555 1_555
O8_36 C24_36 1_555 1_555
C24_36 O9_36 1_555 1_555
C25_36 C24_36 1_555 1_555
C26_36 C25_36 1_555 1_555
H14_36 C26_36 1_555 1_555
C27_36 C4_36 1_555 1_555
C28_36 C4_36 1_555 1_555
H15_36 C28_36 1_555 1_555
C29_36 C25_36 1_555 1_555
H16_36 C29_36 1_555 1_555
O10_36 C30_36 1_555 1_555
C30_36 O11_36 1_555 1_555
C31_36 C30_36 1_555 1_555
C32_36 C31_36 1_555 1_555
H17_36 C32_36 1_555 1_555
C33_36 C32_36 1_555 1_555
C34_36 C33_36 1_555 1_555
H18_36 C34_36 1_555 1_555
C35_36 C34_36 1_555 1_555
H19_36 C35_36 1_555 1_555
C36_36 C35_36 1_555 1_555
C37_36 C36_36 1_555 1_555
H20_36 C37_36 1_555 1_555
C38_36 C33_36 1_555 1_555
C39_36 C38_36 1_555 1_555
H21_36 C39_36 1_555 1_555
C40_36 C31_36 1_555 1_555
H22_36 C40_36 1_555 1_555
O14 C41_36 1_555 1_555
C41_36 C36_36 1_555 1_555
O13_36 C41_36 1_555 1_555
C42_36 N11 1_555 1_555
N11 C43_36 1_555 1_555
C43_36 H23_36 1_555 1_555
N7_24 C43_36 1_555 1_555
C44_36 C42_36 1_555 1_555
N8_36 C44_36 1_555 1_555
C45_36 N8_36 1_555 1_555
H24_36 C45_36 1_555 1_555
N9_36 C45_36 1_555 1_555
C46_36 C42_36 1_555 1_555
N10_36 C46_36 1_555 1_555
H25_36 N10_36 1_555 1_555
H26_36 N10_36 1_555 1_555
Zn6_14 O8_36 1_555 1_555
Zn9_6 N8_36 1_555 1_555
N14_24 Zn9_6 1_555 1_555
Zn9_20 N7_24 1_555 1_555
O16_36 Zn9_6 1_555 1_555
C5_36 C6_36 1_555 1_555
C5_36 C27_36 1_555 1_555
O3_36 Zn5_6 1_555 1_555
C14_36 C15_36 1_555 1_555
C16_36 C17_36 1_555 1_555
N2_24 C21_36 1_555 1_555
N4_36 C23_36 1_555 1_555
N4_36 Zn5_6 1_555 1_555
C26_36 C27_36 1_555 1_555
C28_36 C29_36 1_555 1_555
O10_36 Zn6_14 1_555 1_555
C37_36 C38_36 1_555 1_555
C39_36 C40_36 1_555 1_555
N7_24 C44_36 1_555 1_555
N9_36 C46_36 1_555 1_555
N9_36 Zn6_14 1_555 1_555
Zn9_20 O16_36 1_555 1_555
O7_36 Zn10_4 1_555 1_555
O1_37 C1_37 1_555 1_555
C1_37 O2_37 1_555 1_555
C2_37 C1_37 1_555 1_555
C3_37 C2_37 1_555 1_555
H1_37 C3_37 1_555 1_555
C4_37 C3_37 1_555 1_555
C5_37 H2_37 1_555 1_555
C6_37 C2_37 1_555 1_555
H3_37 C6_37 1_555 1_555
O3_37 C7_37 1_555 1_555
C7_37 O4_37 1_555 1_555
C8_37 C7_37 1_555 1_555
C9_37 C8_37 1_555 1_555
H4_37 C9_37 1_555 1_555
C10_37 C9_37 1_555 1_555
C11_37 C10_37 1_555 1_555
H5_37 C11_37 1_555 1_555
C12_37 C11_37 1_555 1_555
H6_37 C12_37 1_555 1_555
C13_37 C12_37 1_555 1_555
C14_37 C13_37 1_555 1_555
H7_37 C14_37 1_555 1_555
C15_37 C10_37 1_555 1_555
C16_37 C15_37 1_555 1_555
H8_37 C16_37 1_555 1_555
C17_37 C8_37 1_555 1_555
H9_37 C17_37 1_555 1_555
O15_9 C18_37 1_555 1_555
C18_37 C13_37 1_555 1_555
O6_37 C18_37 1_555 1_555
C19_37 N12_9 1_555 1_555
N12_9 C20_37 1_555 1_555
C20_37 H10_37 1_555 1_555
N13_14 C20_37 1_555 1_555
C21_37 C19_37 1_555 1_555
N3_37 C21_37 1_555 1_555
C22_37 N3_37 1_555 1_555
H11_37 C22_37 1_555 1_555
N4_37 C22_37 1_555 1_555
C23_37 C19_37 1_555 1_555
N5_37 C23_37 1_555 1_555
H12_37 N5_37 1_555 1_555
H13_37 N5_37 1_555 1_555
Zn5_24 O1_37 1_555 1_555
Zn10_5 N3_37 1_555 1_555
O8_37 C24_37 1_555 1_555
C24_37 O9_37 1_555 1_555
C25_37 C24_37 1_555 1_555
C26_37 C25_37 1_555 1_555
H14_37 C26_37 1_555 1_555
C27_37 C4_37 1_555 1_555
C28_37 C4_37 1_555 1_555
H15_37 C28_37 1_555 1_555
C29_37 C25_37 1_555 1_555
H16_37 C29_37 1_555 1_555
O10_37 C30_37 1_555 1_555
C30_37 O11_37 1_555 1_555
C31_37 C30_37 1_555 1_555
C32_37 C31_37 1_555 1_555
H17_37 C32_37 1_555 1_555
C33_37 C32_37 1_555 1_555
C34_37 C33_37 1_555 1_555
H18_37 C34_37 1_555 1_555
C35_37 C34_37 1_555 1_555
H19_37 C35_37 1_555 1_555
C36_37 C35_37 1_555 1_555
C37_37 C36_37 1_555 1_555
H20_37 C37_37 1_555 1_555
C38_37 C33_37 1_555 1_555
C39_37 C38_37 1_555 1_555
H21_37 C39_37 1_555 1_555
C40_37 C31_37 1_555 1_555
H22_37 C40_37 1_555 1_555
O14_18 C41_37 1_555 1_555
C41_37 C36_37 1_555 1_555
O13_37 C41_37 1_555 1_555
C42_37 N11_18 1_555 1_555
N11_18 C43_37 1_555 1_555
C43_37 H23_37 1_555 1_555
N14_16 C43_37 1_555 1_555
C44_37 C42_37 1_555 1_555
N8_37 C44_37 1_555 1_555
C45_37 N8_37 1_555 1_555
H24_37 C45_37 1_555 1_555
N9_37 C45_37 1_555 1_555
C46_37 C42_37 1_555 1_555
N10_37 C46_37 1_555 1_555
H25_37 N10_37 1_555 1_555
H26_37 N10_37 1_555 1_555
Zn6_5 O8_37 1_555 1_555
Zn9_24 N8_37 1_555 1_555
C5_37 C6_37 1_555 1_555
C5_37 C27_37 1_555 1_555
O3_37 Zn5_24 1_555 1_555
C14_37 C15_37 1_555 1_555
C16_37 C17_37 1_555 1_555
N13_14 C21_37 1_555 1_555
N4_37 C23_37 1_555 1_555
N4_37 Zn5_24 1_555 1_555
C26_37 C27_37 1_555 1_555
C28_37 C29_37 1_555 1_555
O10_37 Zn6_5 1_555 1_555
C37_37 C38_37 1_555 1_555
C39_37 C40_37 1_555 1_555
N14_16 C44_37 1_555 1_555
N9_37 C46_37 1_555 1_555
N9_37 Zn6_5 1_555 1_555
O1_38 C1_38 1_555 1_555
C1_38 O2_38 1_555 1_555
C2_38 C1_38 1_555 1_555
C3_38 C2_38 1_555 1_555
H1_38 C3_38 1_555 1_555
C4_38 C3_38 1_555 1_555
C5_38 H2_38 1_555 1_555
C6_38 C2_38 1_555 1_555
H3_38 C6_38 1_555 1_555
O3_38 C7_38 1_555 1_555
C7_38 O4_38 1_555 1_555
C8_38 C7_38 1_555 1_555
C9_38 C8_38 1_555 1_555
H4_38 C9_38 1_555 1_555
C10_38 C9_38 1_555 1_555
C11_38 C10_38 1_555 1_555
H5_38 C11_38 1_555 1_555
C12_38 C11_38 1_555 1_555
H6_38 C12_38 1_555 1_555
C13_38 C12_38 1_555 1_555
C14_38 C13_38 1_555 1_555
H7_38 C14_38 1_555 1_555
C15_38 C10_38 1_555 1_555
C16_38 C15_38 1_555 1_555
H8_38 C16_38 1_555 1_555
C17_38 C8_38 1_555 1_555
H9_38 C17_38 1_555 1_555
O15_12 C18_38 1_555 1_555
C18_38 C13_38 1_555 1_555
O6_38 C18_38 1_555 1_555
C19_38 N12_12 1_555 1_555
N12_12 C20_38 1_555 1_555
C20_38 H10_38 1_555 1_555
N13_13 C20_38 1_555 1_555
C21_38 C19_38 1_555 1_555
N3_38 C21_38 1_555 1_555
C22_38 N3_38 1_555 1_555
H11_38 C22_38 1_555 1_555
N4_38 C22_38 1_555 1_555
C23_38 C19_38 1_555 1_555
N5_38 C23_38 1_555 1_555
H12_38 N5_38 1_555 1_555
H13_38 N5_38 1_555 1_555
Zn5_21 O1_38 1_555 1_555
Zn10_7 N3_38 1_555 1_555
O8_38 C24_38 1_555 1_555
C24_38 O9_38 1_555 1_555
C25_38 C24_38 1_555 1_555
C26_38 C25_38 1_555 1_555
H14_38 C26_38 1_555 1_555
C27_38 C4_38 1_555 1_555
C28_38 C4_38 1_555 1_555
H15_38 C28_38 1_555 1_555
C29_38 C25_38 1_555 1_555
H16_38 C29_38 1_555 1_555
O10_38 C30_38 1_555 1_555
C30_38 O11_38 1_555 1_555
C31_38 C30_38 1_555 1_555
C32_38 C31_38 1_555 1_555
H17_38 C32_38 1_555 1_555
C33_38 C32_38 1_555 1_555
C34_38 C33_38 1_555 1_555
H18_38 C34_38 1_555 1_555
C35_38 C34_38 1_555 1_555
H19_38 C35_38 1_555 1_555
C36_38 C35_38 1_555 1_555
C37_38 C36_38 1_555 1_555
H20_38 C37_38 1_555 1_555
C38_38 C33_38 1_555 1_555
C39_38 C38_38 1_555 1_555
H21_38 C39_38 1_555 1_555
C40_38 C31_38 1_555 1_555
H22_38 C40_38 1_555 1_555
O14_20 C41_38 1_555 1_555
C41_38 C36_38 1_555 1_555
O13_38 C41_38 1_555 1_555
C42_38 N11_20 1_555 1_555
N11_20 C43_38 1_555 1_555
C43_38 H23_38 1_555 1_555
N14_15 C43_38 1_555 1_555
C44_38 C42_38 1_555 1_555
N8_38 C44_38 1_555 1_555
C45_38 N8_38 1_555 1_555
H24_38 C45_38 1_555 1_555
N9_38 C45_38 1_555 1_555
C46_38 C42_38 1_555 1_555
N10_38 C46_38 1_555 1_555
H25_38 N10_38 1_555 1_555
H26_38 N10_38 1_555 1_555
Zn6_7 O8_38 1_555 1_555
Zn9_21 N8_38 1_555 1_555
C5_38 C6_38 1_555 1_555
C5_38 C27_38 1_555 1_555
O3_38 Zn5_21 1_555 1_555
C14_38 C15_38 1_555 1_555
C16_38 C17_38 1_555 1_555
N13_13 C21_38 1_555 1_555
N4_38 C23_38 1_555 1_555
N4_38 Zn5_21 1_555 1_555
C26_38 C27_38 1_555 1_555
C28_38 C29_38 1_555 1_555
O10_38 Zn6_7 1_555 1_555
C37_38 C38_38 1_555 1_555
C39_38 C40_38 1_555 1_555
N14_15 C44_38 1_555 1_555
N9_38 C46_38 1_555 1_555
N9_38 Zn6_7 1_555 1_555
H17_39 C32_39 1_555 1_555
C33_39 C32_39 1_555 1_555
C34_39 C33_39 1_555 1_555
H18_39 C34_39 1_555 1_555
C35_39 C34_39 1_555 1_555
H19_39 C35_39 1_555 1_555
C36_39 C35_39 1_555 1_555
C37_39 C36_39 1_555 1_555
H20_39 C37_39 1_555 1_555
C38_39 C33_39 1_555 1_555
O14_19 C41_39 1_555 1_555
C41_39 C36_39 1_555 1_555
O13_39 C41_39 1_555 1_555
C42_39 N11_19 1_555 1_555
N11_19 C43_39 1_555 1_555
C43_39 H23_39 1_555 1_555
N14_14 C43_39 1_555 1_555
C44_39 C42_39 1_555 1_555
C46_39 C42_39 1_555 1_555
N10_39 C46_39 1_555 1_555
H25_39 N10_39 1_555 1_555
H26_39 N10_39 1_555 1_555
C37_39 C38_39 1_555 1_555
N14_14 C44_39 1_555 1_555
O1_39 C1_39 1_555 1_555
C1_39 O2_39 1_555 1_555
C2_39 C1_39 1_555 1_555
C3_39 C2_39 1_555 1_555
H1_39 C3_39 1_555 1_555
C4_39 C3_39 1_555 1_555
C5_39 H2_39 1_555 1_555
C6_39 C2_39 1_555 1_555
H3_39 C6_39 1_555 1_555
O3_39 C7_39 1_555 1_555
C7_39 O4_39 1_555 1_555
C8_39 C7_39 1_555 1_555
C9_39 C8_39 1_555 1_555
H4_39 C9_39 1_555 1_555
C10_39 C9_39 1_555 1_555
C11_39 C10_39 1_555 1_555
H5_39 C11_39 1_555 1_555
C12_39 C11_39 1_555 1_555
H6_39 C12_39 1_555 1_555
C13_39 C12_39 1_555 1_555
C14_39 C13_39 1_555 1_555
H7_39 C14_39 1_555 1_555
C15_39 C10_39 1_555 1_555
C16_39 C15_39 1_555 1_555
H8_39 C16_39 1_555 1_555
C17_39 C8_39 1_555 1_555
H9_39 C17_39 1_555 1_555
O15_10 C18_39 1_555 1_555
C18_39 C13_39 1_555 1_555
O6_39 C18_39 1_555 1_555
C19_39 N12_10 1_555 1_555
N12_10 C20_39 1_555 1_555
C20_39 H10_39 1_555 1_555
N13_16 C20_39 1_555 1_555
C21_39 C19_39 1_555 1_555
N3_39 C21_39 1_555 1_555
C22_39 N3_39 1_555 1_555
H11_39 C22_39 1_555 1_555
N4_39 C22_39 1_555 1_555
C23_39 C19_39 1_555 1_555
N5_39 C23_39 1_555 1_555
H12_39 N5_39 1_555 1_555
H13_39 N5_39 1_555 1_555
Zn5_23 O1_39 1_555 1_555
Zn10_8 N3_39 1_555 1_555
O8_39 C24_39 1_555 1_555
C24_39 O9_39 1_555 1_555
C25_39 C24_39 1_555 1_555
C26_39 C25_39 1_555 1_555
H14_39 C26_39 1_555 1_555
C27_39 C4_39 1_555 1_555
C28_39 C4_39 1_555 1_555
H15_39 C28_39 1_555 1_555
C29_39 C25_39 1_555 1_555
H16_39 C29_39 1_555 1_555
O10_39 C30_39 1_555 1_555
C30_39 O11_39 1_555 1_555
C31_39 C30_39 1_555 1_555
H21_39 C39_39 1_555 1_555
C40_39 C31_39 1_555 1_555
H22_39 C40_39 1_555 1_555
C45_39 N8_39 1_555 1_555
H24_39 C45_39 1_555 1_555
N9_39 C45_39 1_555 1_555
Zn6_8 O8_39 1_555 1_555
Zn9_23 N8_39 1_555 1_555
C5_39 C6_39 1_555 1_555
C5_39 C27_39 1_555 1_555
O3_39 Zn5_23 1_555 1_555
C14_39 C15_39 1_555 1_555
C16_39 C17_39 1_555 1_555
N13_16 C21_39 1_555 1_555
N4_39 C23_39 1_555 1_555
N4_39 Zn5_23 1_555 1_555
C26_39 C27_39 1_555 1_555
C28_39 C29_39 1_555 1_555
O10_39 Zn6_8 1_555 1_555
C39_39 C40_39 1_555 1_555
N9_39 Zn6_8 1_555 1_555
O1_40 C1_40 1_555 1_555
C1_40 O2_40 1_555 1_555
C2_40 C1_40 1_555 1_555
C3_40 C2_40 1_555 1_555
H1_40 C3_40 1_555 1_555
C4_40 C3_40 1_555 1_555
C5_40 H2_40 1_555 1_555
C6_40 C2_40 1_555 1_555
H3_40 C6_40 1_555 1_555
O3_40 C7_40 1_555 1_555
C7_40 O4_40 1_555 1_555
C8_40 C7_40 1_555 1_555
C9_40 C8_40 1_555 1_555
H4_40 C9_40 1_555 1_555
C10_40 C9_40 1_555 1_555
C11_40 C10_40 1_555 1_555
H5_40 C11_40 1_555 1_555
C12_40 C11_40 1_555 1_555
H6_40 C12_40 1_555 1_555
C13_40 C12_40 1_555 1_555
C14_40 C13_40 1_555 1_555
H7_40 C14_40 1_555 1_555
C15_40 C10_40 1_555 1_555
C16_40 C15_40 1_555 1_555
H8_40 C16_40 1_555 1_555
C17_40 C8_40 1_555 1_555
H9_40 C17_40 1_555 1_555
O15_11 C18_40 1_555 1_555
C18_40 C13_40 1_555 1_555
O6_40 C18_40 1_555 1_555
C19_40 N12_11 1_555 1_555
N12_11 C20_40 1_555 1_555
C20_40 H10_40 1_555 1_555
N13_15 C20_40 1_555 1_555
C21_40 C19_40 1_555 1_555
N3_40 C21_40 1_555 1_555
C22_40 N3_40 1_555 1_555
H11_40 C22_40 1_555 1_555
N4_40 C22_40 1_555 1_555
C23_40 C19_40 1_555 1_555
N5_40 C23_40 1_555 1_555
H12_40 N5_40 1_555 1_555
H13_40 N5_40 1_555 1_555
Zn5_22 O1_40 1_555 1_555
Zn10_6 N3_40 1_555 1_555
O8_40 C24_40 1_555 1_555
C24_40 O9_40 1_555 1_555
C25_40 C24_40 1_555 1_555
C26_40 C25_40 1_555 1_555
H14_40 C26_40 1_555 1_555
C27_40 C4_40 1_555 1_555
C28_40 C4_40 1_555 1_555
H15_40 C28_40 1_555 1_555
C29_40 C25_40 1_555 1_555
H16_40 C29_40 1_555 1_555
O10_40 C30_40 1_555 1_555
C30_40 O11_40 1_555 1_555
C31_40 C30_40 1_555 1_555
H21_40 C39_40 1_555 1_555
C40_40 C31_40 1_555 1_555
H22_40 C40_40 1_555 1_555
C45_40 N8_40 1_555 1_555
H24_40 C45_40 1_555 1_555
N9_40 C45_40 1_555 1_555
Zn6_6 O8_40 1_555 1_555
Zn9_22 N8_40 1_555 1_555
C5_40 C6_40 1_555 1_555
C5_40 C27_40 1_555 1_555
O3_40 Zn5_22 1_555 1_555
C14_40 C15_40 1_555 1_555
C16_40 C17_40 1_555 1_555
N13_15 C21_40 1_555 1_555
N4_40 C23_40 1_555 1_555
N4_40 Zn5_22 1_555 1_555
C26_40 C27_40 1_555 1_555
C28_40 C29_40 1_555 1_555
O10_40 Zn6_6 1_555 1_555
C39_40 C40_40 1_555 1_555
N9_40 Zn6_6 1_555 1_555
H17_40 C32_40 1_555 1_555
C33_40 C32_40 1_555 1_555
C34_40 C33_40 1_555 1_555
H18_40 C34_40 1_555 1_555
C35_40 C34_40 1_555 1_555
H19_40 C35_40 1_555 1_555
C36_40 C35_40 1_555 1_555
C37_40 C36_40 1_555 1_555
H20_40 C37_40 1_555 1_555
C38_40 C33_40 1_555 1_555
O14_17 C41_40 1_555 1_555
C41_40 C36_40 1_555 1_555
O13_40 C41_40 1_555 1_555
C42_40 N11_17 1_555 1_555
N11_17 C43_40 1_555 1_555
C43_40 H23_40 1_555 1_555
N14_13 C43_40 1_555 1_555
C44_40 C42_40 1_555 1_555
C46_40 C42_40 1_555 1_555
N10_40 C46_40 1_555 1_555
H25_40 N10_40 1_555 1_555
H26_40 N10_40 1_555 1_555
C37_40 C38_40 1_555 1_555
N14_13 C44_40 1_555 1_555
O1_41 C1_41 1_555 1_555
C1_41 O2_41 1_555 1_555
C2_41 C1_41 1_555 1_555
C3_41 C2_41 1_555 1_555
H1_41 C3_41 1_555 1_555
C4_41 C3_41 1_555 1_555
C5_41 H2_41 1_555 1_555
C6_41 C2_41 1_555 1_555
H3_41 C6_41 1_555 1_555
O3_41 C7_41 1_555 1_555
C7_41 O4_41 1_555 1_555
C8_41 C7_41 1_555 1_555
C9_41 C8_41 1_555 1_555
H4_41 C9_41 1_555 1_555
C10_41 C9_41 1_555 1_555
C11_41 C10_41 1_555 1_555
H5_41 C11_41 1_555 1_555
C12_41 C11_41 1_555 1_555
H6_41 C12_41 1_555 1_555
C13_41 C12_41 1_555 1_555
C14_41 C13_41 1_555 1_555
H7_41 C14_41 1_555 1_555
C15_41 C10_41 1_555 1_555
C16_41 C15_41 1_555 1_555
H8_41 C16_41 1_555 1_555
C17_41 C8_41 1_555 1_555
H9_41 C17_41 1_555 1_555
O15 C18_41 1_555 1_555
C18_41 C13_41 1_555 1_555
O6_41 C18_41 1_555 1_555
C19_41 N12 1_555 1_555
N12 C20_41 1_555 1_555
C20_41 H10_41 1_555 1_555
N13_18 C20_41 1_555 1_555
C21_41 C19_41 1_555 1_555
N3_41 C21_41 1_555 1_555
C22_41 N3_41 1_555 1_555
H11_41 C22_41 1_555 1_555
N4_41 C22_41 1_555 1_555
C23_41 C19_41 1_555 1_555
N5_41 C23_41 1_555 1_555
H12_41 N5_41 1_555 1_555
H13_41 N5_41 1_555 1_555
Zn5_16 O1_41 1_555 1_555
Zn10_9 N3_41 1_555 1_555
O8_41 C24_41 1_555 1_555
C24_41 O9_41 1_555 1_555
C25_41 C24_41 1_555 1_555
C26_41 C25_41 1_555 1_555
H14_41 C26_41 1_555 1_555
C27_41 C4_41 1_555 1_555
C28_41 C4_41 1_555 1_555
H15_41 C28_41 1_555 1_555
C29_41 C25_41 1_555 1_555
H16_41 C29_41 1_555 1_555
O10_41 C30_41 1_555 1_555
C30_41 O11_41 1_555 1_555
C31_41 C30_41 1_555 1_555
C32_41 C31_41 1_555 1_555
H17_41 C32_41 1_555 1_555
C33_41 C32_41 1_555 1_555
C34_41 C33_41 1_555 1_555
H18_41 C34_41 1_555 1_555
C35_41 C34_41 1_555 1_555
H19_41 C35_41 1_555 1_555
C36_41 C35_41 1_555 1_555
C37_41 C36_41 1_555 1_555
H20_41 C37_41 1_555 1_555
C38_41 C33_41 1_555 1_555
C39_41 C38_41 1_555 1_555
H21_41 C39_41 1_555 1_555
C40_41 C31_41 1_555 1_555
H22_41 C40_41 1_555 1_555
O14_22 C41_41 1_555 1_555
C41_41 C36_41 1_555 1_555
O13_41 C41_41 1_555 1_555
C42_41 N11_22 1_555 1_555
N11_22 C43_41 1_555 1_555
C43_41 H23_41 1_555 1_555
N14_20 C43_41 1_555 1_555
C44_41 C42_41 1_555 1_555
N8_41 C44_41 1_555 1_555
C45_41 N8_41 1_555 1_555
H24_41 C45_41 1_555 1_555
N9_41 C45_41 1_555 1_555
C46_41 C42_41 1_555 1_555
N10_41 C46_41 1_555 1_555
H25_41 N10_41 1_555 1_555
H26_41 N10_41 1_555 1_555
Zn6_9 O8_41 1_555 1_555
Zn9_16 N8_41 1_555 1_555
C5_41 C6_41 1_555 1_555
C5_41 C27_41 1_555 1_555
O3_41 Zn5_16 1_555 1_555
C14_41 C15_41 1_555 1_555
C16_41 C17_41 1_555 1_555
N13_18 C21_41 1_555 1_555
N4_41 C23_41 1_555 1_555
N4_41 Zn5_16 1_555 1_555
C26_41 C27_41 1_555 1_555
C28_41 C29_41 1_555 1_555
O10_41 Zn6_9 1_555 1_555
C37_41 C38_41 1_555 1_555
C39_41 C40_41 1_555 1_555
N14_20 C44_41 1_555 1_555
N9_41 C46_41 1_555 1_555
N9_41 Zn6_9 1_555 1_555
O1_42 C1_42 1_555 1_555
C1_42 O2_42 1_555 1_555
C2_42 C1_42 1_555 1_555
C3_42 C2_42 1_555 1_555
H1_42 C3_42 1_555 1_555
C4_42 C3_42 1_555 1_555
C5_42 H2_42 1_555 1_555
C6_42 C2_42 1_555 1_555
H3_42 C6_42 1_555 1_555
O3_42 C7_42 1_555 1_555
C7_42 O4_42 1_555 1_555
C8_42 C7_42 1_555 1_555
C9_42 C8_42 1_555 1_555
H4_42 C9_42 1_555 1_555
C10_42 C9_42 1_555 1_555
C11_42 C10_42 1_555 1_555
H5_42 C11_42 1_555 1_555
C12_42 C11_42 1_555 1_555
H6_42 C12_42 1_555 1_555
C13_42 C12_42 1_555 1_555
C14_42 C13_42 1_555 1_555
H7_42 C14_42 1_555 1_555
C15_42 C10_42 1_555 1_555
C16_42 C15_42 1_555 1_555
H8_42 C16_42 1_555 1_555
C17_42 C8_42 1_555 1_555
H9_42 C17_42 1_555 1_555
O15_4 C18_42 1_555 1_555
C18_42 C13_42 1_555 1_555
O6_42 C18_42 1_555 1_555
C19_42 N12_4 1_555 1_555
N12_4 C20_42 1_555 1_555
C20_42 H10_42 1_555 1_555
N13_17 C20_42 1_555 1_555
C21_42 C19_42 1_555 1_555
N3_42 C21_42 1_555 1_555
C22_42 N3_42 1_555 1_555
H11_42 C22_42 1_555 1_555
N4_42 C22_42 1_555 1_555
C23_42 C19_42 1_555 1_555
N5_42 C23_42 1_555 1_555
H12_42 N5_42 1_555 1_555
H13_42 N5_42 1_555 1_555
Zn5_13 O1_42 1_555 1_555
Zn10_11 N3_42 1_555 1_555
O8_42 C24_42 1_555 1_555
C24_42 O9_42 1_555 1_555
C25_42 C24_42 1_555 1_555
C26_42 C25_42 1_555 1_555
H14_42 C26_42 1_555 1_555
C27_42 C4_42 1_555 1_555
C28_42 C4_42 1_555 1_555
H15_42 C28_42 1_555 1_555
C29_42 C25_42 1_555 1_555
H16_42 C29_42 1_555 1_555
O10_42 C30_42 1_555 1_555
C30_42 O11_42 1_555 1_555
C31_42 C30_42 1_555 1_555
C32_42 C31_42 1_555 1_555
H17_42 C32_42 1_555 1_555
C33_42 C32_42 1_555 1_555
C34_42 C33_42 1_555 1_555
H18_42 C34_42 1_555 1_555
C35_42 C34_42 1_555 1_555
H19_42 C35_42 1_555 1_555
C36_42 C35_42 1_555 1_555
C37_42 C36_42 1_555 1_555
H20_42 C37_42 1_555 1_555
C38_42 C33_42 1_555 1_555
C39_42 C38_42 1_555 1_555
H21_42 C39_42 1_555 1_555
C40_42 C31_42 1_555 1_555
H22_42 C40_42 1_555 1_555
O14_24 C41_42 1_555 1_555
C41_42 C36_42 1_555 1_555
O13_42 C41_42 1_555 1_555
C42_42 N11_24 1_555 1_555
N11_24 C43_42 1_555 1_555
C43_42 H23_42 1_555 1_555
N14_19 C43_42 1_555 1_555
C44_42 C42_42 1_555 1_555
N8_42 C44_42 1_555 1_555
C45_42 N8_42 1_555 1_555
H24_42 C45_42 1_555 1_555
N9_42 C45_42 1_555 1_555
C46_42 C42_42 1_555 1_555
N10_42 C46_42 1_555 1_555
H25_42 N10_42 1_555 1_555
H26_42 N10_42 1_555 1_555
Zn6_11 O8_42 1_555 1_555
Zn9_13 N8_42 1_555 1_555
C5_42 C6_42 1_555 1_555
C5_42 C27_42 1_555 1_555
O3_42 Zn5_13 1_555 1_555
C14_42 C15_42 1_555 1_555
C16_42 C17_42 1_555 1_555
N13_17 C21_42 1_555 1_555
N4_42 C23_42 1_555 1_555
N4_42 Zn5_13 1_555 1_555
C26_42 C27_42 1_555 1_555
C28_42 C29_42 1_555 1_555
O10_42 Zn6_11 1_555 1_555
C37_42 C38_42 1_555 1_555
C39_42 C40_42 1_555 1_555
N14_19 C44_42 1_555 1_555
N9_42 C46_42 1_555 1_555
N9_42 Zn6_11 1_555 1_555
H17_43 C32_43 1_555 1_555
C33_43 C32_43 1_555 1_555
C34_43 C33_43 1_555 1_555
H18_43 C34_43 1_555 1_555
C35_43 C34_43 1_555 1_555
H19_43 C35_43 1_555 1_555
C36_43 C35_43 1_555 1_555
C37_43 C36_43 1_555 1_555
H20_43 C37_43 1_555 1_555
C38_43 C33_43 1_555 1_555
O14_23 C41_43 1_555 1_555
C41_43 C36_43 1_555 1_555
O13_43 C41_43 1_555 1_555
C42_43 N11_23 1_555 1_555
N11_23 C43_43 1_555 1_555
C43_43 H23_43 1_555 1_555
N14_18 C43_43 1_555 1_555
C44_43 C42_43 1_555 1_555
C46_43 C42_43 1_555 1_555
N10_43 C46_43 1_555 1_555
H25_43 N10_43 1_555 1_555
H26_43 N10_43 1_555 1_555
C37_43 C38_43 1_555 1_555
N14_18 C44_43 1_555 1_555
O1_43 C1_43 1_555 1_555
C1_43 O2_43 1_555 1_555
C2_43 C1_43 1_555 1_555
C3_43 C2_43 1_555 1_555
H1_43 C3_43 1_555 1_555
C4_43 C3_43 1_555 1_555
C5_43 H2_43 1_555 1_555
C6_43 C2_43 1_555 1_555
H3_43 C6_43 1_555 1_555
O3_43 C7_43 1_555 1_555
C7_43 O4_43 1_555 1_555
C8_43 C7_43 1_555 1_555
C9_43 C8_43 1_555 1_555
H4_43 C9_43 1_555 1_555
C10_43 C9_43 1_555 1_555
C11_43 C10_43 1_555 1_555
H5_43 C11_43 1_555 1_555
C12_43 C11_43 1_555 1_555
H6_43 C12_43 1_555 1_555
C13_43 C12_43 1_555 1_555
C14_43 C13_43 1_555 1_555
H7_43 C14_43 1_555 1_555
C15_43 C10_43 1_555 1_555
C16_43 C15_43 1_555 1_555
H8_43 C16_43 1_555 1_555
C17_43 C8_43 1_555 1_555
H9_43 C17_43 1_555 1_555
O15_2 C18_43 1_555 1_555
C18_43 C13_43 1_555 1_555
O6_43 C18_43 1_555 1_555
C19_43 N12_2 1_555 1_555
N12_2 C20_43 1_555 1_555
C20_43 H10_43 1_555 1_555
N13_20 C20_43 1_555 1_555
C21_43 C19_43 1_555 1_555
N3_43 C21_43 1_555 1_555
C22_43 N3_43 1_555 1_555
H11_43 C22_43 1_555 1_555
N4_43 C22_43 1_555 1_555
C23_43 C19_43 1_555 1_555
N5_43 C23_43 1_555 1_555
H12_43 N5_43 1_555 1_555
H13_43 N5_43 1_555 1_555
Zn5_15 O1_43 1_555 1_555
Zn10_12 N3_43 1_555 1_555
O8_43 C24_43 1_555 1_555
C24_43 O9_43 1_555 1_555
C25_43 C24_43 1_555 1_555
C26_43 C25_43 1_555 1_555
H14_43 C26_43 1_555 1_555
C27_43 C4_43 1_555 1_555
C28_43 C4_43 1_555 1_555
H15_43 C28_43 1_555 1_555
C29_43 C25_43 1_555 1_555
H16_43 C29_43 1_555 1_555
O10_43 C30_43 1_555 1_555
C30_43 O11_43 1_555 1_555
C31_43 C30_43 1_555 1_555
H21_43 C39_43 1_555 1_555
C40_43 C31_43 1_555 1_555
H22_43 C40_43 1_555 1_555
C45_43 N8_43 1_555 1_555
H24_43 C45_43 1_555 1_555
N9_43 C45_43 1_555 1_555
Zn6_12 O8_43 1_555 1_555
Zn9_15 N8_43 1_555 1_555
C5_43 C6_43 1_555 1_555
C5_43 C27_43 1_555 1_555
O3_43 Zn5_15 1_555 1_555
C14_43 C15_43 1_555 1_555
C16_43 C17_43 1_555 1_555
N13_20 C21_43 1_555 1_555
N4_43 C23_43 1_555 1_555
N4_43 Zn5_15 1_555 1_555
C26_43 C27_43 1_555 1_555
C28_43 C29_43 1_555 1_555
O10_43 Zn6_12 1_555 1_555
C39_43 C40_43 1_555 1_555
N9_43 Zn6_12 1_555 1_555
O1_44 C1_44 1_555 1_555
C1_44 O2_44 1_555 1_555
C2_44 C1_44 1_555 1_555
C3_44 C2_44 1_555 1_555
H1_44 C3_44 1_555 1_555
C4_44 C3_44 1_555 1_555
C5_44 H2_44 1_555 1_555
C6_44 C2_44 1_555 1_555
H3_44 C6_44 1_555 1_555
O3_44 C7_44 1_555 1_555
C7_44 O4_44 1_555 1_555
C8_44 C7_44 1_555 1_555
C9_44 C8_44 1_555 1_555
H4_44 C9_44 1_555 1_555
C10_44 C9_44 1_555 1_555
C11_44 C10_44 1_555 1_555
H5_44 C11_44 1_555 1_555
C12_44 C11_44 1_555 1_555
H6_44 C12_44 1_555 1_555
C13_44 C12_44 1_555 1_555
C14_44 C13_44 1_555 1_555
H7_44 C14_44 1_555 1_555
C15_44 C10_44 1_555 1_555
C16_44 C15_44 1_555 1_555
H8_44 C16_44 1_555 1_555
C17_44 C8_44 1_555 1_555
H9_44 C17_44 1_555 1_555
O15_3 C18_44 1_555 1_555
C18_44 C13_44 1_555 1_555
O6_44 C18_44 1_555 1_555
C19_44 N12_3 1_555 1_555
N12_3 C20_44 1_555 1_555
C20_44 H10_44 1_555 1_555
N13_19 C20_44 1_555 1_555
C21_44 C19_44 1_555 1_555
N3_44 C21_44 1_555 1_555
C22_44 N3_44 1_555 1_555
H11_44 C22_44 1_555 1_555
N4_44 C22_44 1_555 1_555
C23_44 C19_44 1_555 1_555
N5_44 C23_44 1_555 1_555
H12_44 N5_44 1_555 1_555
H13_44 N5_44 1_555 1_555
Zn5_14 O1_44 1_555 1_555
Zn10_10 N3_44 1_555 1_555
O8_44 C24_44 1_555 1_555
C24_44 O9_44 1_555 1_555
C25_44 C24_44 1_555 1_555
C26_44 C25_44 1_555 1_555
H14_44 C26_44 1_555 1_555
C27_44 C4_44 1_555 1_555
C28_44 C4_44 1_555 1_555
H15_44 C28_44 1_555 1_555
C29_44 C25_44 1_555 1_555
H16_44 C29_44 1_555 1_555
O10_44 C30_44 1_555 1_555
C30_44 O11_44 1_555 1_555
C31_44 C30_44 1_555 1_555
H21_44 C39_44 1_555 1_555
C40_44 C31_44 1_555 1_555
H22_44 C40_44 1_555 1_555
C45_44 N8_44 1_555 1_555
H24_44 C45_44 1_555 1_555
N9_44 C45_44 1_555 1_555
Zn6_10 O8_44 1_555 1_555
Zn9_14 N8_44 1_555 1_555
C5_44 C6_44 1_555 1_555
C5_44 C27_44 1_555 1_555
O3_44 Zn5_14 1_555 1_555
C14_44 C15_44 1_555 1_555
C16_44 C17_44 1_555 1_555
N13_19 C21_44 1_555 1_555
N4_44 C23_44 1_555 1_555
N4_44 Zn5_14 1_555 1_555
C26_44 C27_44 1_555 1_555
C28_44 C29_44 1_555 1_555
O10_44 Zn6_10 1_555 1_555
C39_44 C40_44 1_555 1_555
N9_44 Zn6_10 1_555 1_555
H17_44 C32_44 1_555 1_555
C33_44 C32_44 1_555 1_555
C34_44 C33_44 1_555 1_555
H18_44 C34_44 1_555 1_555
C35_44 C34_44 1_555 1_555
H19_44 C35_44 1_555 1_555
C36_44 C35_44 1_555 1_555
C37_44 C36_44 1_555 1_555
H20_44 C37_44 1_555 1_555
C38_44 C33_44 1_555 1_555
O14_21 C41_44 1_555 1_555
C41_44 C36_44 1_555 1_555
O13_44 C41_44 1_555 1_555
C42_44 N11_21 1_555 1_555
N11_21 C43_44 1_555 1_555
C43_44 H23_44 1_555 1_555
N14_17 C43_44 1_555 1_555
C44_44 C42_44 1_555 1_555
C46_44 C42_44 1_555 1_555
N10_44 C46_44 1_555 1_555
H25_44 N10_44 1_555 1_555
H26_44 N10_44 1_555 1_555
C37_44 C38_44 1_555 1_555
N14_17 C44_44 1_555 1_555
O1_45 C1_45 1_555 1_555
C1_45 O2_45 1_555 1_555
C2_45 C1_45 1_555 1_555
C3_45 C2_45 1_555 1_555
H1_45 C3_45 1_555 1_555
C4_45 C3_45 1_555 1_555
C5_45 H2_45 1_555 1_555
C6_45 C2_45 1_555 1_555
H3_45 C6_45 1_555 1_555
O3_45 C7_45 1_555 1_555
C7_45 O4_45 1_555 1_555
C8_45 C7_45 1_555 1_555
C9_45 C8_45 1_555 1_555
H4_45 C9_45 1_555 1_555
C10_45 C9_45 1_555 1_555
C11_45 C10_45 1_555 1_555
H5_45 C11_45 1_555 1_555
C12_45 C11_45 1_555 1_555
H6_45 C12_45 1_555 1_555
C13_45 C12_45 1_555 1_555
C14_45 C13_45 1_555 1_555
H7_45 C14_45 1_555 1_555
C15_45 C10_45 1_555 1_555
C16_45 C15_45 1_555 1_555
H8_45 C16_45 1_555 1_555
C17_45 C8_45 1_555 1_555
H9_45 C17_45 1_555 1_555
O15_5 C18_45 1_555 1_555
C18_45 C13_45 1_555 1_555
O6_45 C18_45 1_555 1_555
C19_45 N12_5 1_555 1_555
N12_5 C20_45 1_555 1_555
C20_45 H10_45 1_555 1_555
N13_22 C20_45 1_555 1_555
C21_45 C19_45 1_555 1_555
N3_45 C21_45 1_555 1_555
C22_45 N3_45 1_555 1_555
H11_45 C22_45 1_555 1_555
N4_45 C22_45 1_555 1_555
C23_45 C19_45 1_555 1_555
N5_45 C23_45 1_555 1_555
H12_45 N5_45 1_555 1_555
H13_45 N5_45 1_555 1_555
Zn5_20 O1_45 1_555 1_555
Zn10 N3_45 1_555 1_555
O8_45 C24_45 1_555 1_555
C24_45 O9_45 1_555 1_555
C25_45 C24_45 1_555 1_555
C26_45 C25_45 1_555 1_555
H14_45 C26_45 1_555 1_555
C27_45 C4_45 1_555 1_555
C28_45 C4_45 1_555 1_555
H15_45 C28_45 1_555 1_555
C29_45 C25_45 1_555 1_555
H16_45 C29_45 1_555 1_555
O10_45 C30_45 1_555 1_555
C30_45 O11_45 1_555 1_555
C31_45 C30_45 1_555 1_555
C32_45 C31_45 1_555 1_555
H17_45 C32_45 1_555 1_555
C33_45 C32_45 1_555 1_555
C34_45 C33_45 1_555 1_555
H18_45 C34_45 1_555 1_555
C35_45 C34_45 1_555 1_555
H19_45 C35_45 1_555 1_555
C36_45 C35_45 1_555 1_555
C37_45 C36_45 1_555 1_555
H20_45 C37_45 1_555 1_555
C38_45 C33_45 1_555 1_555
C39_45 C38_45 1_555 1_555
H21_45 C39_45 1_555 1_555
C40_45 C31_45 1_555 1_555
H22_45 C40_45 1_555 1_555
O14_14 C41_45 1_555 1_555
C41_45 C36_45 1_555 1_555
O13_45 C41_45 1_555 1_555
C42_45 N11_14 1_555 1_555
N11_14 C43_45 1_555 1_555
C43_45 H23_45 1_555 1_555
N14_24 C43_45 1_555 1_555
C44_45 C42_45 1_555 1_555
N8_45 C44_45 1_555 1_555
C45_45 N8_45 1_555 1_555
H24_45 C45_45 1_555 1_555
N9_45 C45_45 1_555 1_555
C46_45 C42_45 1_555 1_555
N10_45 C46_45 1_555 1_555
H25_45 N10_45 1_555 1_555
H26_45 N10_45 1_555 1_555
Zn6 O8_45 1_555 1_555
Zn9_20 N8_45 1_555 1_555
C5_45 C6_45 1_555 1_555
C5_45 C27_45 1_555 1_555
O3_45 Zn5_20 1_555 1_555
C14_45 C15_45 1_555 1_555
C16_45 C17_45 1_555 1_555
N13_22 C21_45 1_555 1_555
N4_45 C23_45 1_555 1_555
N4_45 Zn5_20 1_555 1_555
C26_45 C27_45 1_555 1_555
C28_45 C29_45 1_555 1_555
O10_45 Zn6 1_555 1_555
C37_45 C38_45 1_555 1_555
C39_45 C40_45 1_555 1_555
N14_24 C44_45 1_555 1_555
N9_45 C46_45 1_555 1_555
N9_45 Zn6 1_555 1_555
O1_46 C1_46 1_555 1_555
C1_46 O2_46 1_555 1_555
C2_46 C1_46 1_555 1_555
C3_46 C2_46 1_555 1_555
H1_46 C3_46 1_555 1_555
C4_46 C3_46 1_555 1_555
C5_46 H2_46 1_555 1_555
C6_46 C2_46 1_555 1_555
H3_46 C6_46 1_555 1_555
O3_46 C7_46 1_555 1_555
C7_46 O4_46 1_555 1_555
C8_46 C7_46 1_555 1_555
C9_46 C8_46 1_555 1_555
H4_46 C9_46 1_555 1_555
C10_46 C9_46 1_555 1_555
C11_46 C10_46 1_555 1_555
H5_46 C11_46 1_555 1_555
C12_46 C11_46 1_555 1_555
H6_46 C12_46 1_555 1_555
C13_46 C12_46 1_555 1_555
C14_46 C13_46 1_555 1_555
H7_46 C14_46 1_555 1_555
C15_46 C10_46 1_555 1_555
C16_46 C15_46 1_555 1_555
H8_46 C16_46 1_555 1_555
C17_46 C8_46 1_555 1_555
H9_46 C17_46 1_555 1_555
O15_8 C18_46 1_555 1_555
C18_46 C13_46 1_555 1_555
O6_46 C18_46 1_555 1_555
C19_46 N12_8 1_555 1_555
N12_8 C20_46 1_555 1_555
C20_46 H10_46 1_555 1_555
N13_21 C20_46 1_555 1_555
C21_46 C19_46 1_555 1_555
N3_46 C21_46 1_555 1_555
C22_46 N3_46 1_555 1_555
H11_46 C22_46 1_555 1_555
N4_46 C22_46 1_555 1_555
C23_46 C19_46 1_555 1_555
N5_46 C23_46 1_555 1_555
H12_46 N5_46 1_555 1_555
H13_46 N5_46 1_555 1_555
Zn5_17 O1_46 1_555 1_555
Zn10_3 N3_46 1_555 1_555
O8_46 C24_46 1_555 1_555
C24_46 O9_46 1_555 1_555
C25_46 C24_46 1_555 1_555
C26_46 C25_46 1_555 1_555
H14_46 C26_46 1_555 1_555
C27_46 C4_46 1_555 1_555
C28_46 C4_46 1_555 1_555
H15_46 C28_46 1_555 1_555
C29_46 C25_46 1_555 1_555
H16_46 C29_46 1_555 1_555
O10_46 C30_46 1_555 1_555
C30_46 O11_46 1_555 1_555
C31_46 C30_46 1_555 1_555
C32_46 C31_46 1_555 1_555
H17_46 C32_46 1_555 1_555
C33_46 C32_46 1_555 1_555
C34_46 C33_46 1_555 1_555
H18_46 C34_46 1_555 1_555
C35_46 C34_46 1_555 1_555
H19_46 C35_46 1_555 1_555
C36_46 C35_46 1_555 1_555
C37_46 C36_46 1_555 1_555
H20_46 C37_46 1_555 1_555
C38_46 C33_46 1_555 1_555
C39_46 C38_46 1_555 1_555
H21_46 C39_46 1_555 1_555
C40_46 C31_46 1_555 1_555
H22_46 C40_46 1_555 1_555
O14_16 C41_46 1_555 1_555
C41_46 C36_46 1_555 1_555
O13_46 C41_46 1_555 1_555
C42_46 N11_16 1_555 1_555
N11_16 C43_46 1_555 1_555
C43_46 H23_46 1_555 1_555
N14_23 C43_46 1_555 1_555
C44_46 C42_46 1_555 1_555
N8_46 C44_46 1_555 1_555
C45_46 N8_46 1_555 1_555
H24_46 C45_46 1_555 1_555
N9_46 C45_46 1_555 1_555
C46_46 C42_46 1_555 1_555
N10_46 C46_46 1_555 1_555
H25_46 N10_46 1_555 1_555
H26_46 N10_46 1_555 1_555
Zn6_3 O8_46 1_555 1_555
Zn9_17 N8_46 1_555 1_555
C5_46 C6_46 1_555 1_555
C5_46 C27_46 1_555 1_555
O3_46 Zn5_17 1_555 1_555
C14_46 C15_46 1_555 1_555
C16_46 C17_46 1_555 1_555
N13_21 C21_46 1_555 1_555
N4_46 C23_46 1_555 1_555
N4_46 Zn5_17 1_555 1_555
C26_46 C27_46 1_555 1_555
C28_46 C29_46 1_555 1_555
O10_46 Zn6_3 1_555 1_555
C37_46 C38_46 1_555 1_555
C39_46 C40_46 1_555 1_555
N14_23 C44_46 1_555 1_555
N9_46 C46_46 1_555 1_555
N9_46 Zn6_3 1_555 1_555
H17_47 C32_47 1_555 1_555
C33_47 C32_47 1_555 1_555
C34_47 C33_47 1_555 1_555
H18_47 C34_47 1_555 1_555
C35_47 C34_47 1_555 1_555
H19_47 C35_47 1_555 1_555
C36_47 C35_47 1_555 1_555
C37_47 C36_47 1_555 1_555
H20_47 C37_47 1_555 1_555
C38_47 C33_47 1_555 1_555
O14_15 C41_47 1_555 1_555
C41_47 C36_47 1_555 1_555
O13_47 C41_47 1_555 1_555
C42_47 N11_15 1_555 1_555
N11_15 C43_47 1_555 1_555
C43_47 H23_47 1_555 1_555
N14_22 C43_47 1_555 1_555
C44_47 C42_47 1_555 1_555
C46_47 C42_47 1_555 1_555
N10_47 C46_47 1_555 1_555
H25_47 N10_47 1_555 1_555
H26_47 N10_47 1_555 1_555
C37_47 C38_47 1_555 1_555
N14_22 C44_47 1_555 1_555
O1_47 C1_47 1_555 1_555
C1_47 O2_47 1_555 1_555
C2_47 C1_47 1_555 1_555
C3_47 C2_47 1_555 1_555
H1_47 C3_47 1_555 1_555
C4_47 C3_47 1_555 1_555
C5_47 H2_47 1_555 1_555
C6_47 C2_47 1_555 1_555
H3_47 C6_47 1_555 1_555
O3_47 C7_47 1_555 1_555
C7_47 O4_47 1_555 1_555
C8_47 C7_47 1_555 1_555
C9_47 C8_47 1_555 1_555
H4_47 C9_47 1_555 1_555
C10_47 C9_47 1_555 1_555
C11_47 C10_47 1_555 1_555
H5_47 C11_47 1_555 1_555
C12_47 C11_47 1_555 1_555
H6_47 C12_47 1_555 1_555
C13_47 C12_47 1_555 1_555
C14_47 C13_47 1_555 1_555
H7_47 C14_47 1_555 1_555
C15_47 C10_47 1_555 1_555
C16_47 C15_47 1_555 1_555
H8_47 C16_47 1_555 1_555
C17_47 C8_47 1_555 1_555
H9_47 C17_47 1_555 1_555
O15_6 C18_47 1_555 1_555
C18_47 C13_47 1_555 1_555
O6_47 C18_47 1_555 1_555
C19_47 N12_6 1_555 1_555
N12_6 C20_47 1_555 1_555
C20_47 H10_47 1_555 1_555
N13_24 C20_47 1_555 1_555
C21_47 C19_47 1_555 1_555
N3_47 C21_47 1_555 1_555
C22_47 N3_47 1_555 1_555
H11_47 C22_47 1_555 1_555
N4_47 C22_47 1_555 1_555
C23_47 C19_47 1_555 1_555
N5_47 C23_47 1_555 1_555
H12_47 N5_47 1_555 1_555
H13_47 N5_47 1_555 1_555
Zn5_19 O1_47 1_555 1_555
Zn10_4 N3_47 1_555 1_555
O8_47 C24_47 1_555 1_555
C24_47 O9_47 1_555 1_555
C25_47 C24_47 1_555 1_555
C26_47 C25_47 1_555 1_555
H14_47 C26_47 1_555 1_555
C27_47 C4_47 1_555 1_555
C28_47 C4_47 1_555 1_555
H15_47 C28_47 1_555 1_555
C29_47 C25_47 1_555 1_555
H16_47 C29_47 1_555 1_555
O10_47 C30_47 1_555 1_555
C30_47 O11_47 1_555 1_555
C31_47 C30_47 1_555 1_555
H21_47 C39_47 1_555 1_555
C40_47 C31_47 1_555 1_555
H22_47 C40_47 1_555 1_555
C45_47 N8_47 1_555 1_555
H24_47 C45_47 1_555 1_555
N9_47 C45_47 1_555 1_555
Zn6_4 O8_47 1_555 1_555
Zn9_19 N8_47 1_555 1_555
C5_47 C6_47 1_555 1_555
C5_47 C27_47 1_555 1_555
O3_47 Zn5_19 1_555 1_555
C14_47 C15_47 1_555 1_555
C16_47 C17_47 1_555 1_555
N13_24 C21_47 1_555 1_555
N4_47 C23_47 1_555 1_555
N4_47 Zn5_19 1_555 1_555
C26_47 C27_47 1_555 1_555
C28_47 C29_47 1_555 1_555
O10_47 Zn6_4 1_555 1_555
C39_47 C40_47 1_555 1_555
N9_47 Zn6_4 1_555 1_555
O1_48 C1_48 1_555 1_555
C1_48 O2_48 1_555 1_555
C2_48 C1_48 1_555 1_555
C3_48 C2_48 1_555 1_555
H1_48 C3_48 1_555 1_555
C4_48 C3_48 1_555 1_555
C5_48 H2_48 1_555 1_555
C6_48 C2_48 1_555 1_555
H3_48 C6_48 1_555 1_555
O3_48 C7_48 1_555 1_555
C7_48 O4_48 1_555 1_555
C8_48 C7_48 1_555 1_555
C9_48 C8_48 1_555 1_555
H4_48 C9_48 1_555 1_555
C10_48 C9_48 1_555 1_555
C11_48 C10_48 1_555 1_555
H5_48 C11_48 1_555 1_555
C12_48 C11_48 1_555 1_555
H6_48 C12_48 1_555 1_555
C13_48 C12_48 1_555 1_555
C14_48 C13_48 1_555 1_555
H7_48 C14_48 1_555 1_555
C15_48 C10_48 1_555 1_555
C16_48 C15_48 1_555 1_555
H8_48 C16_48 1_555 1_555
C17_48 C8_48 1_555 1_555
H9_48 C17_48 1_555 1_555
O15_7 C18_48 1_555 1_555
C18_48 C13_48 1_555 1_555
O6_48 C18_48 1_555 1_555
C19_48 N12_7 1_555 1_555
N12_7 C20_48 1_555 1_555
C20_48 H10_48 1_555 1_555
N13_23 C20_48 1_555 1_555
C21_48 C19_48 1_555 1_555
N3_48 C21_48 1_555 1_555
C22_48 N3_48 1_555 1_555
H11_48 C22_48 1_555 1_555
N4_48 C22_48 1_555 1_555
C23_48 C19_48 1_555 1_555
N5_48 C23_48 1_555 1_555
H12_48 N5_48 1_555 1_555
H13_48 N5_48 1_555 1_555
Zn5_18 O1_48 1_555 1_555
Zn10_2 N3_48 1_555 1_555
O8_48 C24_48 1_555 1_555
C24_48 O9_48 1_555 1_555
C25_48 C24_48 1_555 1_555
C26_48 C25_48 1_555 1_555
H14_48 C26_48 1_555 1_555
C27_48 C4_48 1_555 1_555
C28_48 C4_48 1_555 1_555
H15_48 C28_48 1_555 1_555
C29_48 C25_48 1_555 1_555
H16_48 C29_48 1_555 1_555
O10_48 C30_48 1_555 1_555
C30_48 O11_48 1_555 1_555
C31_48 C30_48 1_555 1_555
H21_48 C39_48 1_555 1_555
C40_48 C31_48 1_555 1_555
H22_48 C40_48 1_555 1_555
C45_48 N8_48 1_555 1_555
H24_48 C45_48 1_555 1_555
N9_48 C45_48 1_555 1_555
Zn6_2 O8_48 1_555 1_555
Zn9_18 N8_48 1_555 1_555
C5_48 C6_48 1_555 1_555
C5_48 C27_48 1_555 1_555
O3_48 Zn5_18 1_555 1_555
C14_48 C15_48 1_555 1_555
C16_48 C17_48 1_555 1_555
N13_23 C21_48 1_555 1_555
N4_48 C23_48 1_555 1_555
N4_48 Zn5_18 1_555 1_555
C26_48 C27_48 1_555 1_555
C28_48 C29_48 1_555 1_555
O10_48 Zn6_2 1_555 1_555
C39_48 C40_48 1_555 1_555
N9_48 Zn6_2 1_555 1_555
H17_48 C32_48 1_555 1_555
C33_48 C32_48 1_555 1_555
C34_48 C33_48 1_555 1_555
H18_48 C34_48 1_555 1_555
C35_48 C34_48 1_555 1_555
H19_48 C35_48 1_555 1_555
C36_48 C35_48 1_555 1_555
C37_48 C36_48 1_555 1_555
H20_48 C37_48 1_555 1_555
C38_48 C33_48 1_555 1_555
O14_13 C41_48 1_555 1_555
C41_48 C36_48 1_555 1_555
O13_48 C41_48 1_555 1_555
C42_48 N11_13 1_555 1_555
N11_13 C43_48 1_555 1_555
C43_48 H23_48 1_555 1_555
N14_21 C43_48 1_555 1_555
C44_48 C42_48 1_555 1_555
C46_48 C42_48 1_555 1_555
N10_48 C46_48 1_555 1_555
H25_48 N10_48 1_555 1_555
H26_48 N10_48 1_555 1_555
C37_48 C38_48 1_555 1_555
N14_21 C44_48 1_555 1_555

#END
