
###############################################################################
#
# This file contains modified crystal structure data generated from the
# MOF subset of the Cambridge Structural Database (CSD) v543 
# hosted by the Cambridge Crystallographic Data Centre (CCDC).
#
# This work is licensed under the Creative Commons
# Attribution-NonCommercial-ShareAlike 4.0 International License.
# To view a copy of this license, visit
# http://creativecommons.org/licenses/by-nc-sa/4.0/
# or send a letter to
# Creative Commons, PO Box 1866, Mountain View, CA 94042, USA.
#
# CIF created using the CSD Python API on 29 September 2022
# The structure has been converted into the P1 space group
# The structure has a 3D framework
# The original CSD entry TOCXUH is in the orthorhombic crystal system
# The framework has been calculated to contain at least 10.0% void space
# The void calculation uses a probe of radius 1.32A, grid spacing 0.4
# The framework is charged, counterions have been retained in the structure
#
###############################################################################

data_TOCXUH
_chemical_formula_moiety         '(C128 H48 O72 Zn18 8-)n'
_symmetry_cell_setting           triclinic
_symmetry_space_group_name_H-M   'P 1'
_symmetry_Int_Tables_number      1
_space_group_name_Hall           'P 1'
loop_
_symmetry_equiv_pos_site_id
_symmetry_equiv_pos_as_xyz
1 x,y,z
_cell_length_a                   16.274(5)
_cell_length_b                   10.787(3)
_cell_length_c                   24.384(8)
_cell_angle_alpha                90
_cell_angle_beta                 90
_cell_angle_gamma                90
_cell_volume                     4280.55
loop_
_atom_site_label
_atom_site_type_symbol
_atom_site_fract_x
_atom_site_fract_y
_atom_site_fract_z
Zn13 Zn 0.5000 -0.0000 0.5000
Zn1 Zn 0.04695(2) 0.63061(4) 0.378880(14)
Zn2 Zn -0.0000 0.5000 0.5000
C1 C 0.26886(19) 0.5114(3) 0.57342(14)
C2 C 0.21716(19) 0.5260(3) 0.52934(13)
H1 H 0.1740 0.4709 0.5238
C3 C 0.22957(18) 0.6225(3) 0.49351(13)
C4 C 0.1689(2) 0.6433(4) 0.44870(14)
C5 C 0.2961(2) 0.6996(3) 0.50065(13)
H2 H 0.3054 0.7638 0.4759
C6 C 0.34876(19) 0.6826(3) 0.54397(13)
C7 C 0.42048(19) 0.7673(3) 0.55219(14)
C8 C 0.3345(2) 0.5891(3) 0.58111(14)
H3 H 0.3690 0.5787 0.6112
C9 C 0.3065(2) 0.3586(3) 0.63913(14)
C10 C 0.3162(2) 0.3829(3) 0.69345(14)
H4 H 0.2861 0.4457 0.7101
C11 C 0.3713(2) 0.3135(3) 0.72358(14)
C12 C 0.3843(2) 0.3459(4) 0.78228(15)
C13 C 0.4139(2) 0.2191(3) 0.69838(14)
H5 H 0.4493 0.1701 0.7190
C14 C 0.4052(2) 0.1958(3) 0.64319(13)
C15 C 0.4516(2) 0.0949(3) 0.61532(14)
C16 C 0.3509(2) 0.2676(3) 0.61335(13)
H6 H 0.3446 0.2544 0.5759
O1 O 0.24571(14) 0.4212(2) 0.61042(9)
O2 O 0.10606(13) 0.5713(2) 0.44557(9)
O3 O 0.17760(18) 0.7278(3) 0.41617(12)
O4 O 0.43386(13) 0.8451(2) 0.51587(10)
O5 O 0.46113(15) 0.7547(2) 0.59509(10)
O6 O 0.45302(14) 0.0958(2) 0.56459(9)
O7 O 0.48620(16) 0.0178(2) 0.64525(10)
O8 O 0.43690(15) 0.2836(3) 0.80865(9)
O9 O 0.3468(2) 0.4307(3) 0.80329(12)
Zn4 Zn 0.45305(2) 0.36939(4) 0.878880(14)
Zn6 Zn 0.54695(2) 0.86939(4) 0.621120(14)
Zn13_2 Zn 0.5000 1.0000 0.5000
O20 O 0.06614(13) 0.3451(2) 0.51587(10)
O22 O 0.03887(15) 0.2547(2) 0.59509(10)
O24 O 0.04698(14) 0.5958(2) 0.56459(9)
O26 O 0.01380(16) 0.5178(2) 0.64525(10)
O27 O 0.06310(15) 0.7164(3) 0.30865(9)
Zn9 Zn 0.45305(2) 0.13061(4) 0.378880(14)
Zn2_2 Zn 1.0000 0.5000 0.5000
Zn3 Zn 0.95305(2) 0.36939(4) 0.621120(14)
C17 C 0.73114(19) 0.4886(3) 0.42658(14)
C18 C 0.78284(19) 0.4740(3) 0.47066(13)
H7 H 0.8260 0.5291 0.4762
C19 C 0.77043(18) 0.3775(3) 0.50649(13)
C20 C 0.8311(2) 0.3567(4) 0.55130(14)
C21 C 0.7039(2) 0.3004(3) 0.49935(13)
H8 H 0.6946 0.2362 0.5241
C22 C 0.65124(19) 0.3174(3) 0.45603(13)
C23 C 0.57952(19) 0.2327(3) 0.44781(14)
C24 C 0.6655(2) 0.4109(3) 0.41889(14)
H9 H 0.6310 0.4213 0.3888
C25 C 0.6935(2) 0.6414(3) 0.36087(14)
C26 C 0.6838(2) 0.6171(3) 0.30655(14)
H10 H 0.7139 0.5543 0.2899
C27 C 0.6287(2) 0.6865(3) 0.27642(14)
C28 C 0.6157(2) 0.6541(4) 0.21772(15)
C29 C 0.5861(2) 0.7809(3) 0.30162(14)
H11 H 0.5507 0.8299 0.2810
C30 C 0.5948(2) 0.8042(3) 0.35681(13)
C31 C 0.5484(2) 0.9051(3) 0.38468(14)
C32 C 0.6491(2) 0.7324(3) 0.38665(13)
H12 H 0.6554 0.7456 0.4241
O10 O 0.75429(14) 0.5788(2) 0.38958(9)
O11 O 0.89394(13) 0.4287(2) 0.55443(9)
O12 O 0.82240(18) 0.2722(3) 0.58383(12)
O13 O 0.56614(13) 0.1549(2) 0.48413(10)
O14 O 0.53887(15) 0.2453(2) 0.40491(10)
O15 O 0.54698(14) 0.9042(2) 0.43541(9)
O16 O 0.51380(16) 0.9822(2) 0.35475(10)
O17 O 0.56310(15) 0.7164(3) 0.19135(9)
O18 O 0.6532(2) 0.5693(3) 0.19671(12)
Zn7 Zn 0.54695(2) 0.63061(4) 0.121120(14)
O19 O 0.93386(13) 0.6549(2) 0.48413(10)
O21 O 0.96113(15) 0.7453(2) 0.40491(10)
O23 O 0.95302(14) 0.4042(2) 0.43541(9)
O25 O 0.98620(16) 0.4822(2) 0.35475(10)
O28 O 0.93690(15) 0.2836(3) 0.69135(9)
Zn10 Zn -0.0000 0.0000 0.0000
Zn10_2 Zn 0.0000 0.0000 1.0000
Zn10_3 Zn -0.0000 1.0000 0.0000
Zn8 Zn 0.04695(2) 0.86939(4) 0.878880(14)
Zn10_4 Zn -0.0000 1.0000 1.0000
Zn10_5 Zn 1.0000 0.0000 0.0000
Zn10_6 Zn 1.0000 0.0000 1.0000
Zn2_3 Zn 0.5000 0.5000 0.0000
C1_2 C 0.23114(19) 0.4886(3) 0.07342(14)
C2_2 C 0.28284(19) 0.4740(3) 0.02934(13)
H1_2 H 0.3260 0.5291 0.0238
C5_2 C 0.2039(2) 0.3004(3) 0.00065(13)
C6_2 C 0.15124(19) 0.3174(3) 0.04397(13)
C7_2 C 0.07952(19) 0.2327(3) 0.05219(14)
C8_2 C 0.1655(2) 0.4109(3) 0.08111(14)
H3_2 H 0.1310 0.4213 0.1112
C9_2 C 0.1935(2) 0.6414(3) 0.13913(14)
C10_2 C 0.1838(2) 0.6171(3) 0.19345(14)
H4_2 H 0.2139 0.5543 0.2101
C11_2 C 0.1287(2) 0.6865(3) 0.22358(14)
C12_2 C 0.1157(2) 0.6541(4) 0.28228(15)
C13_2 C 0.0861(2) 0.7809(3) 0.19838(14)
H5_2 H 0.0507 0.8299 0.2190
C14_2 C 0.0948(2) 0.8042(3) 0.14319(13)
C15_2 C 0.0484(2) 0.9051(3) 0.11532(14)
C16_2 C 0.1491(2) 0.7324(3) 0.11335(13)
H6_2 H 0.1554 0.7456 0.0759
O1_2 O 0.25429(14) 0.5788(2) 0.11042(9)
O4_2 O 0.06614(13) 0.1549(2) 0.01587(10)
O5_2 O 0.03887(15) 0.2453(2) 0.09509(10)
O6_2 O 0.04698(14) 0.9042(2) 0.06459(9)
O7_2 O 0.01380(16) 0.9822(2) 0.14525(10)
O9_2 O 0.1532(2) 0.5693(3) 0.30329(12)
C19_2 C 0.72957(18) 0.6225(3) 0.00649(13)
C20_2 C 0.6689(2) 0.6433(4) 0.05130(14)
H8_2 H 0.8054 0.7638 0.0241
O11_2 O 0.60606(13) 0.5713(2) 0.05443(9)
O12_2 O 0.67760(18) 0.7278(3) 0.08383(12)
Zn10_7 Zn 1.0000 1.0000 0.0000
O20_2 O 0.43386(13) 0.6549(2) 0.01587(10)
O22_2 O 0.46113(15) 0.7453(2) 0.09509(10)
O24_2 O 0.45302(14) 0.4042(2) 0.06459(9)
O26_2 O 0.48620(16) 0.4822(2) 0.14525(10)
Zn2_4 Zn 0.5000 0.5000 1.0000
C3_2 C 0.27043(18) 0.3775(3) 0.99351(13)
C4_2 C 0.3311(2) 0.3567(4) 0.94870(14)
H2_2 H 0.1946 0.2362 0.9759
O2_2 O 0.39394(13) 0.4287(2) 0.94557(9)
O3_2 O 0.32240(18) 0.2722(3) 0.91617(12)
C17_2 C 0.76886(19) 0.5114(3) 0.92658(14)
C18_2 C 0.71716(19) 0.5260(3) 0.97066(13)
H7_2 H 0.6740 0.4709 0.9762
C21_2 C 0.7961(2) 0.6996(3) 0.99935(13)
C22_2 C 0.84876(19) 0.6826(3) 0.95603(13)
C23_2 C 0.92048(19) 0.7673(3) 0.94781(14)
C24_2 C 0.8345(2) 0.5891(3) 0.91889(14)
H9_2 H 0.8690 0.5787 0.8888
C25_2 C 0.8065(2) 0.3586(3) 0.86087(14)
C26_2 C 0.8162(2) 0.3829(3) 0.80655(14)
H10_2 H 0.7861 0.4457 0.7899
C27_2 C 0.8713(2) 0.3135(3) 0.77642(14)
C28_2 C 0.8843(2) 0.3459(4) 0.71772(15)
C29_2 C 0.9139(2) 0.2191(3) 0.80162(14)
H11_2 H 0.9493 0.1701 0.7810
C30_2 C 0.9052(2) 0.1958(3) 0.85681(13)
C31_2 C 0.9516(2) 0.0949(3) 0.88468(14)
C32_2 C 0.8509(2) 0.2676(3) 0.88665(13)
H12_2 H 0.8446 0.2544 0.9241
O10_2 O 0.74571(14) 0.4212(2) 0.88958(9)
O13_2 O 0.93386(13) 0.8451(2) 0.98413(10)
O14_2 O 0.96113(15) 0.7547(2) 0.90491(10)
O15_2 O 0.95302(14) 0.0958(2) 0.93541(9)
O16_2 O 0.98620(16) 0.0178(2) 0.85475(10)
O18_2 O 0.8468(2) 0.4307(3) 0.69671(12)
Zn10_8 Zn 1.0000 1.0000 1.0000
O19_2 O 0.56614(13) 0.3451(2) 0.98413(10)
O21_2 O 0.53887(15) 0.2547(2) 0.90491(10)
O23_2 O 0.54698(14) 0.5958(2) 0.93541(9)
O25_2 O 0.51380(16) 0.5178(2) 0.85475(10)
Zn5 Zn 0.95305(2) 0.13061(4) 0.121120(14)
H7_3 H 0.1740 0.0291 0.0238
C25_3 C 0.3065(2) 0.1414(3) 0.13913(14)
C26_3 C 0.3162(2) 0.1171(3) 0.19345(14)
H10_3 H 0.2861 0.0543 0.2101
C27_3 C 0.3713(2) 0.1865(3) 0.22358(14)
C28_3 C 0.3843(2) 0.1541(4) 0.28228(15)
C29_3 C 0.4139(2) 0.2809(3) 0.19838(14)
H11_3 H 0.4493 0.3299 0.2190
C30_3 C 0.4052(2) 0.3042(3) 0.14319(13)
C31_3 C 0.4516(2) 0.4051(3) 0.11532(14)
C32_3 C 0.3509(2) 0.2324(3) 0.11335(13)
H12_3 H 0.3446 0.2456 0.0759
O10_3 O 0.24571(14) 0.0788(2) 0.11042(9)
O17_2 O 0.43690(15) 0.2164(3) 0.30865(9)
O18_3 O 0.3468(2) 0.0693(3) 0.30329(12)
C17_3 C 0.26886(19) 0.9886(3) 0.07342(14)
C18_3 C 0.21716(19) 0.9740(3) 0.02934(13)
C21_3 C 0.2961(2) 0.8004(3) 0.00065(13)
C22_3 C 0.34876(19) 0.8174(3) 0.04397(13)
C23_3 C 0.42048(19) 0.7327(3) 0.05219(14)
C24_3 C 0.3345(2) 0.9109(3) 0.08111(14)
H9_3 H 0.3690 0.9213 0.1112
C19_3 C 0.22957(18) 0.8775(3) 0.99351(13)
C20_3 C 0.1689(2) 0.8567(4) 0.94870(14)
H8_3 H 0.3054 0.7362 0.9759
O11_3 O 0.10606(13) 0.9287(2) 0.94557(9)
O12_3 O 0.17760(18) 0.7722(3) 0.91617(12)
O28_2 O 0.06310(15) 0.7836(3) 0.80865(9)
C3_3 C 0.77043(18) 0.1225(3) 0.00649(13)
C4_3 C 0.8311(2) 0.1433(4) 0.05130(14)
H2_3 H 0.6946 0.2638 0.0241
O2_3 O 0.89394(13) 0.0713(2) 0.05443(9)
O3_3 O 0.82240(18) 0.2278(3) 0.08383(12)
O27_2 O 0.93690(15) 0.2164(3) 0.19135(9)
C1_3 C 0.73114(19) 0.0114(3) 0.92658(14)
C2_3 C 0.78284(19) 0.0260(3) 0.97066(13)
C5_3 C 0.7039(2) 0.1996(3) 0.99935(13)
C6_3 C 0.65124(19) 0.1826(3) 0.95603(13)
C7_3 C 0.57952(19) 0.2673(3) 0.94781(14)
C8_3 C 0.6655(2) 0.0891(3) 0.91889(14)
H3_3 H 0.6310 0.0787 0.8888
H1_3 H 0.8260 0.9709 0.9762
C9_3 C 0.6935(2) 0.8586(3) 0.86087(14)
C10_3 C 0.6838(2) 0.8829(3) 0.80655(14)
H4_3 H 0.7139 0.9457 0.7899
C11_3 C 0.6287(2) 0.8135(3) 0.77642(14)
C12_3 C 0.6157(2) 0.8459(4) 0.71772(15)
C13_3 C 0.5861(2) 0.7191(3) 0.80162(14)
H5_3 H 0.5507 0.6701 0.7810
C14_3 C 0.5948(2) 0.6958(3) 0.85681(13)
C15_3 C 0.5484(2) 0.5949(3) 0.88468(14)
C16_3 C 0.6491(2) 0.7676(3) 0.88665(13)
H6_3 H 0.6554 0.7544 0.9241
O1_3 O 0.75429(14) 0.9212(2) 0.88958(9)
O8_2 O 0.56310(15) 0.7836(3) 0.69135(9)
O9_3 O 0.6532(2) 0.9307(3) 0.69671(12)
H1_4 H 0.6740 0.0291 0.4762
C9_4 C 0.8065(2) 0.1414(3) 0.36087(14)
C10_4 C 0.8162(2) 0.1171(3) 0.30655(14)
H4_4 H 0.7861 0.0543 0.2899
C11_4 C 0.8713(2) 0.1865(3) 0.27642(14)
C12_4 C 0.8843(2) 0.1541(4) 0.21772(15)
C13_4 C 0.9139(2) 0.2809(3) 0.30162(14)
H5_4 H 0.9493 0.3299 0.2810
C14_4 C 0.9052(2) 0.3042(3) 0.35681(13)
C15_4 C 0.9516(2) 0.4051(3) 0.38468(14)
C16_4 C 0.8509(2) 0.2324(3) 0.38665(13)
H6_4 H 0.8446 0.2456 0.4241
O1_4 O 0.74571(14) 0.0788(2) 0.38958(9)
O9_4 O 0.8468(2) 0.0693(3) 0.19671(12)
C17_4 C 0.23114(19) 0.0114(3) 0.57342(14)
C18_4 C 0.28284(19) 0.0260(3) 0.52934(13)
C19_4 C 0.27043(18) 0.1225(3) 0.49351(13)
C20_4 C 0.3311(2) 0.1433(4) 0.44870(14)
C21_4 C 0.2039(2) 0.1996(3) 0.50065(13)
H8_4 H 0.1946 0.2638 0.4759
C22_4 C 0.15124(19) 0.1826(3) 0.54397(13)
C23_4 C 0.07952(19) 0.2673(3) 0.55219(14)
C24_4 C 0.1655(2) 0.0891(3) 0.58111(14)
H9_4 H 0.1310 0.0787 0.6112
O11_4 O 0.39394(13) 0.0713(2) 0.44557(9)
O12_4 O 0.32240(18) 0.2278(3) 0.41617(12)
C1_4 C 0.76886(19) 0.9886(3) 0.42658(14)
C2_4 C 0.71716(19) 0.9740(3) 0.47066(13)
C3_4 C 0.72957(18) 0.8775(3) 0.50649(13)
C4_4 C 0.6689(2) 0.8567(4) 0.55130(14)
C5_4 C 0.7961(2) 0.8004(3) 0.49935(13)
H2_4 H 0.8054 0.7362 0.5241
C6_4 C 0.84876(19) 0.8174(3) 0.45603(13)
C7_4 C 0.92048(19) 0.7327(3) 0.44781(14)
C8_4 C 0.8345(2) 0.9109(3) 0.41889(14)
H3_4 H 0.8690 0.9213 0.3888
O2_4 O 0.60606(13) 0.9287(2) 0.55443(9)
O3_4 O 0.67760(18) 0.7722(3) 0.58383(12)
H7_4 H 0.3260 0.9709 0.5238
C25_4 C 0.1935(2) 0.8586(3) 0.63913(14)
C26_4 C 0.1838(2) 0.8829(3) 0.69345(14)
H10_4 H 0.2139 0.9457 0.7101
C27_4 C 0.1287(2) 0.8135(3) 0.72358(14)
C28_4 C 0.1157(2) 0.8459(4) 0.78228(15)
C29_4 C 0.0861(2) 0.7191(3) 0.69838(14)
H11_4 H 0.0507 0.6701 0.7190
C30_4 C 0.0948(2) 0.6958(3) 0.64319(13)
C31_4 C 0.0484(2) 0.5949(3) 0.61532(14)
C32_4 C 0.1491(2) 0.7676(3) 0.61335(13)
H12_4 H 0.1554 0.7544 0.5759
O10_4 O 0.25429(14) 0.9212(2) 0.61042(9)
O18_4 O 0.1532(2) 0.9307(3) 0.80329(12)
loop_
_geom_bond_atom_site_label_1
_geom_bond_atom_site_label_2
_geom_bond_site_symmetry_1
_geom_bond_site_symmetry_2
Zn1 O2 1_555 1_555
Zn2 O2 1_555 1_555
C1 C2 1_555 1_555
C2 H1 1_555 1_555
C3 C2 1_555 1_555
C4 C3 1_555 1_555
C5 C3 1_555 1_555
H2 C5 1_555 1_555
C6 C5 1_555 1_555
C7 C6 1_555 1_555
C8 C1 1_555 1_555
H3 C8 1_555 1_555
C9 C10 1_555 1_555
C10 H4 1_555 1_555
C11 C10 1_555 1_555
C12 C11 1_555 1_555
C13 C11 1_555 1_555
H5 C13 1_555 1_555
C14 C13 1_555 1_555
C15 C14 1_555 1_555
C16 C9 1_555 1_555
H6 C16 1_555 1_555
O1 C1 1_555 1_555
O2 C4 1_555 1_555
O3 Zn1 1_555 1_555
O4 C7 1_555 1_555
O5 C7 1_555 1_555
O6 C15 1_555 1_555
O7 C15 1_555 1_555
O8 C12 1_555 1_555
O9 C12 1_555 1_555
Zn4 O8 1_555 1_555
Zn6 O5 1_555 1_555
Zn13 O6 1_555 1_555
Zn13_2 O4 1_555 1_555
O20 Zn2 1_555 1_555
O24 Zn2 1_555 1_555
O27 Zn1 1_555 1_555
C4 O3 1_555 1_555
C6 C8 1_555 1_555
C9 O1 1_555 1_555
C14 C16 1_555 1_555
Zn3 O11 1_555 1_555
C17 C18 1_555 1_555
C18 H7 1_555 1_555
C19 C18 1_555 1_555
C20 C19 1_555 1_555
C21 C19 1_555 1_555
H8 C21 1_555 1_555
C22 C21 1_555 1_555
C23 C22 1_555 1_555
C24 C17 1_555 1_555
H9 C24 1_555 1_555
C25 C26 1_555 1_555
C26 H10 1_555 1_555
C27 C26 1_555 1_555
C28 C27 1_555 1_555
C29 C27 1_555 1_555
H11 C29 1_555 1_555
C30 C29 1_555 1_555
C31 C30 1_555 1_555
C32 C25 1_555 1_555
H12 C32 1_555 1_555
O10 C17 1_555 1_555
O11 Zn2_2 1_555 1_555
O12 Zn3 1_555 1_555
O13 C23 1_555 1_555
O14 C23 1_555 1_555
O15 C31 1_555 1_555
O16 C31 1_555 1_555
O17 C28 1_555 1_555
O18 C28 1_555 1_555
Zn7 O17 1_555 1_555
Zn9 O14 1_555 1_555
Zn13 O13 1_555 1_555
Zn13_2 O15 1_555 1_555
O19 Zn2_2 1_555 1_555
O23 Zn2_2 1_555 1_555
O28 Zn3 1_555 1_555
C20 O11 1_555 1_555
C20 O12 1_555 1_555
C22 C24 1_555 1_555
C25 O10 1_555 1_555
C30 C32 1_555 1_555
C1_2 C2_2 1_555 1_555
C2_2 H1_2 1_555 1_555
C6_2 C5_2 1_555 1_555
C7_2 C6_2 1_555 1_555
C8_2 C1_2 1_555 1_555
H3_2 C8_2 1_555 1_555
C9_2 C10_2 1_555 1_555
C10_2 H4_2 1_555 1_555
C11_2 C10_2 1_555 1_555
C12_2 C11_2 1_555 1_555
C13_2 C11_2 1_555 1_555
H5_2 C13_2 1_555 1_555
C14_2 C13_2 1_555 1_555
C15_2 C14_2 1_555 1_555
C16_2 C9_2 1_555 1_555
H6_2 C16_2 1_555 1_555
O1_2 C1_2 1_555 1_555
O4_2 C7_2 1_555 1_555
O5_2 C7_2 1_555 1_555
O6_2 C15_2 1_555 1_555
O7_2 C15_2 1_555 1_555
O27 C12_2 1_555 1_555
O9_2 C12_2 1_555 1_555
Zn7 O11_2 1_555 1_555
C20_2 C19_2 1_555 1_555
O11_2 Zn2_3 1_555 1_555
O12_2 Zn7 1_555 1_555
Zn10_3 O6_2 1_555 1_555
Zn10 O4_2 1_555 1_555
O20_2 Zn2_3 1_555 1_555
O22_2 Zn7 1_555 1_555
O24_2 Zn2_3 1_555 1_555
O26_2 Zn7 1_555 1_555
C6_2 C8_2 1_555 1_555
C9_2 O1_2 1_555 1_555
C14_2 C16_2 1_555 1_555
C20_2 O11_2 1_555 1_555
C20_2 O12_2 1_555 1_555
Zn4 O2_2 1_555 1_555
Zn2_4 O2_2 1_555 1_555
C4_2 C3_2 1_555 1_555
O2_2 C4_2 1_555 1_555
O3_2 Zn4 1_555 1_555
C17_2 C18_2 1_555 1_555
C18_2 H7_2 1_555 1_555
C22_2 C21_2 1_555 1_555
C23_2 C22_2 1_555 1_555
C24_2 C17_2 1_555 1_555
H9_2 C24_2 1_555 1_555
C25_2 C26_2 1_555 1_555
C26_2 H10_2 1_555 1_555
C27_2 C26_2 1_555 1_555
C28_2 C27_2 1_555 1_555
C29_2 C27_2 1_555 1_555
H11_2 C29_2 1_555 1_555
C30_2 C29_2 1_555 1_555
C31_2 C30_2 1_555 1_555
C32_2 C25_2 1_555 1_555
H12_2 C32_2 1_555 1_555
O10_2 C17_2 1_555 1_555
O13_2 C23_2 1_555 1_555
O14_2 C23_2 1_555 1_555
O15_2 C31_2 1_555 1_555
O16_2 C31_2 1_555 1_555
O28 C28_2 1_555 1_555
O18_2 C28_2 1_555 1_555
Zn10_8 O13_2 1_555 1_555
Zn10_6 O15_2 1_555 1_555
O19_2 Zn2_4 1_555 1_555
O21_2 Zn4 1_555 1_555
O23_2 Zn2_4 1_555 1_555
O25_2 Zn4 1_555 1_555
C4_2 O3_2 1_555 1_555
C22_2 C24_2 1_555 1_555
C25_2 O10_2 1_555 1_555
C30_2 C32_2 1_555 1_555
C25_3 C26_3 1_555 1_555
C26_3 H10_3 1_555 1_555
C27_3 C26_3 1_555 1_555
C28_3 C27_3 1_555 1_555
C29_3 C27_3 1_555 1_555
H11_3 C29_3 1_555 1_555
C30_3 C29_3 1_555 1_555
C31_3 C30_3 1_555 1_555
C32_3 C25_3 1_555 1_555
H12_3 C32_3 1_555 1_555
O24_2 C31_3 1_555 1_555
O26_2 C31_3 1_555 1_555
O17_2 C28_3 1_555 1_555
O18_3 C28_3 1_555 1_555
Zn9 O17_2 1_555 1_555
C25_3 O10_3 1_555 1_555
C30_3 C32_3 1_555 1_555
C17_3 C18_3 1_555 1_555
C22_3 C21_3 1_555 1_555
C23_3 C22_3 1_555 1_555
C24_3 C17_3 1_555 1_555
H9_3 C24_3 1_555 1_555
O20_2 C23_3 1_555 1_555
O22_2 C23_3 1_555 1_555
C22_3 C24_3 1_555 1_555
Zn8 O11_3 1_555 1_555
C20_3 C19_3 1_555 1_555
O11_3 Zn10_4 1_555 1_555
O12_3 Zn8 1_555 1_555
O28_2 Zn8 1_555 1_555
C20_3 O11_3 1_555 1_555
C20_3 O12_3 1_555 1_555
Zn5 O2_3 1_555 1_555
Zn10_5 O2_3 1_555 1_555
C4_3 C3_3 1_555 1_555
O2_3 C4_3 1_555 1_555
O3_3 Zn5 1_555 1_555
O27_2 Zn5 1_555 1_555
C4_3 O3_3 1_555 1_555
C1_3 C2_3 1_555 1_555
C6_3 C5_3 1_555 1_555
C7_3 C6_3 1_555 1_555
C8_3 C1_3 1_555 1_555
H3_3 C8_3 1_555 1_555
O19_2 C7_3 1_555 1_555
O21_2 C7_3 1_555 1_555
C6_3 C8_3 1_555 1_555
C9_3 C10_3 1_555 1_555
C10_3 H4_3 1_555 1_555
C11_3 C10_3 1_555 1_555
C12_3 C11_3 1_555 1_555
C13_3 C11_3 1_555 1_555
H5_3 C13_3 1_555 1_555
C14_3 C13_3 1_555 1_555
C15_3 C14_3 1_555 1_555
C16_3 C9_3 1_555 1_555
H6_3 C16_3 1_555 1_555
O23_2 C15_3 1_555 1_555
O25_2 C15_3 1_555 1_555
O8_2 C12_3 1_555 1_555
O9_3 C12_3 1_555 1_555
Zn6 O8_2 1_555 1_555
C9_3 O1_3 1_555 1_555
C14_3 C16_3 1_555 1_555
C9_4 C10_4 1_555 1_555
C10_4 H4_4 1_555 1_555
C11_4 C10_4 1_555 1_555
C12_4 C11_4 1_555 1_555
C13_4 C11_4 1_555 1_555
H5_4 C13_4 1_555 1_555
C14_4 C13_4 1_555 1_555
C15_4 C14_4 1_555 1_555
C16_4 C9_4 1_555 1_555
H6_4 C16_4 1_555 1_555
O23 C15_4 1_555 1_555
O25 C15_4 1_555 1_555
O27_2 C12_4 1_555 1_555
O9_4 C12_4 1_555 1_555
Zn9 O11_4 1_555 1_555
C17_4 C18_4 1_555 1_555
C19_4 C18_4 1_555 1_555
C20_4 C19_4 1_555 1_555
C21_4 C19_4 1_555 1_555
H8_4 C21_4 1_555 1_555
C22_4 C21_4 1_555 1_555
C23_4 C22_4 1_555 1_555
C24_4 C17_4 1_555 1_555
H9_4 C24_4 1_555 1_555
O11_4 Zn13 1_555 1_555
O12_4 Zn9 1_555 1_555
O20 C23_4 1_555 1_555
O22 C23_4 1_555 1_555
C9_4 O1_4 1_555 1_555
C14_4 C16_4 1_555 1_555
C20_4 O11_4 1_555 1_555
C20_4 O12_4 1_555 1_555
C22_4 C24_4 1_555 1_555
Zn6 O2_4 1_555 1_555
Zn13_2 O2_4 1_555 1_555
C1_4 C2_4 1_555 1_555
C3_4 C2_4 1_555 1_555
C4_4 C3_4 1_555 1_555
C5_4 C3_4 1_555 1_555
H2_4 C5_4 1_555 1_555
C6_4 C5_4 1_555 1_555
C7_4 C6_4 1_555 1_555
C8_4 C1_4 1_555 1_555
H3_4 C8_4 1_555 1_555
O2_4 C4_4 1_555 1_555
O3_4 Zn6 1_555 1_555
O19 C7_4 1_555 1_555
O21 C7_4 1_555 1_555
C25_4 C26_4 1_555 1_555
C26_4 H10_4 1_555 1_555
C27_4 C26_4 1_555 1_555
C28_4 C27_4 1_555 1_555
C29_4 C27_4 1_555 1_555
H11_4 C29_4 1_555 1_555
C30_4 C29_4 1_555 1_555
C31_4 C30_4 1_555 1_555
C32_4 C25_4 1_555 1_555
H12_4 C32_4 1_555 1_555
O24 C31_4 1_555 1_555
O26 C31_4 1_555 1_555
O28_2 C28_4 1_555 1_555
O18_4 C28_4 1_555 1_555
C4_4 O3_4 1_555 1_555
C6_4 C8_4 1_555 1_555
C25_4 O10_4 1_555 1_555
C30_4 C32_4 1_555 1_555

#END
