
###############################################################################
#
# This file contains modified crystal structure data generated from the
# MOF subset of the Cambridge Structural Database (CSD) v543 
# hosted by the Cambridge Crystallographic Data Centre (CCDC).
#
# This work is licensed under the Creative Commons
# Attribution-NonCommercial-ShareAlike 4.0 International License.
# To view a copy of this license, visit
# http://creativecommons.org/licenses/by-nc-sa/4.0/
# or send a letter to
# Creative Commons, PO Box 1866, Mountain View, CA 94042, USA.
#
# CIF created using the CSD Python API on 29 September 2022
# The structure has been converted into the P1 space group
# The structure has a 3D framework
# The original CSD entry TODFOK is in the hexagonal crystal system
# The framework has been calculated to contain at least 10.0% void space
# The void calculation uses a probe of radius 1.32A, grid spacing 0.4
# H atom positions have been added when not included in the experimental data
#
###############################################################################

data_TODFOK
_chemical_formula_moiety         '(C236 H204 Cl36 Co12 N24 O86 P12 Zr17)n'
_symmetry_cell_setting           triclinic
_symmetry_space_group_name_H-M   'P 1'
_symmetry_Int_Tables_number      1
_space_group_name_Hall           'P 1'
loop_
_symmetry_equiv_pos_site_id
_symmetry_equiv_pos_as_xyz
1 x,y,z
_cell_length_a                   32.4261(12)
_cell_length_b                   32.4261(12)
_cell_length_c                   15.4100(6)
_cell_angle_alpha                90
_cell_angle_beta                 90
_cell_angle_gamma                120
_cell_volume                     14032.1
loop_
_atom_site_label
_atom_site_type_symbol
_atom_site_fract_x
_atom_site_fract_y
_atom_site_fract_z
_atom_site_U_iso_or_equiv
_atom_site_thermal_displace_type
Co1 Co 0.1861(2) 0.3722(4) 0.000000 0.0013 Uiso
Cl1 Cl 0.2249(2) 0.4499(4) 0.000000 0.0013 Uiso
Cl2 Cl 0.1186(2) 0.3722(4) 0.000000 0.0013 Uiso
P1 P 0.1789(2) 0.3577(4) 0.146570 0.0013 Uiso
N1 N 0.1486(2) 0.2972(4) 0.147144 0.0013 Uiso
C1 C 0.1350(2) 0.2701(4) 0.074220 0.0013 Uiso
C2 C 0.1103(2) 0.2205(4) 0.076941 0.0013 Uiso
C3 C 0.0978(2) 0.1956(4) -0.000050 0.0013 Uiso
N2 N 0.1476(2) 0.2953(4) 0.000007 0.0013 Uiso
C4 C 0.1455(2) 0.3845(4) 0.196163 0.0013 Uiso
C5 C 0.1365(11) 0.4172(11) 0.1533(8) 0.0013 Uiso
C6 C 0.1111(10) 0.4358(10) 0.1953(8) 0.0013 Uiso
C7 C 0.0946(4) 0.4216(4) 0.28014(12) 0.0013 Uiso
C8 C 0.1036(13) 0.3888(13) 0.3230(9) 0.0013 Uiso
C9 C 0.1290(13) 0.3702(11) 0.2810(9) 0.0013 Uiso
C10 C 0.0676(4) 0.4412(5) 0.32457(18) 0.0013 Uiso
O1 O 0.0692(15) 0.4782(11) 0.302(2) 0.0013 Uiso
O2 O 0.042(2) 0.4147(15) 0.391(3) 0.0013 Uiso
Zr1 Zr 0.423457 0.423457 0.500000 0.0115 Uiso
Zr2 Zr 0.468751 0.531249 0.613890 0.0115 Uiso
O3 O 0.464180 0.464180 0.606611 0.0115 Uiso
O4 O 0.506568 0.565072 0.500000 0.0115 Uiso
O5 O 0.430924 0.569076 0.569397 0.0115 Uiso
C11 C 0.419930 0.580070 0.500000 0.0115 Uiso
C12 C 0.393155 0.606845 0.500000 0.0115 Uiso
O6 O 0.519041 0.480959 0.751758 0.0115 Uiso
C13 C 0.500000 0.500000 0.791824 0.0115 Uiso
C14 C 0.500000 0.500000 0.889411 0.0115 Uiso
C24 C 0.2390(4) 0.3845(4) 0.196163 0.0013 Uiso
C25 C 0.2807(16) 0.4172(11) 0.1533(8) 0.0013 Uiso
C26 C 0.3247(14) 0.4358(10) 0.1953(8) 0.0013 Uiso
C27 C 0.3270(6) 0.4216(4) 0.28014(12) 0.0013 Uiso
C28 C 0.2852(18) 0.3888(13) 0.3230(9) 0.0013 Uiso
C29 C 0.2412(17) 0.3702(11) 0.2810(9) 0.0013 Uiso
C30 C 0.3736(6) 0.4412(5) 0.32457(18) 0.0013 Uiso
O9 O 0.4090(19) 0.4782(11) 0.302(2) 0.0013 Uiso
O10 O 0.3727(25) 0.4147(15) 0.391(3) 0.0013 Uiso
O13 O 0.430924 0.569076 0.430603 0.0115 Uiso
O14 O 0.480959 0.519041 0.751758 0.0115 Uiso
Zr3 Zr 0.531249 0.468751 0.386110 0.0115 Uiso
O15 O 0.535820 0.535820 0.393389 0.0115 Uiso
O16 O 0.493432 0.434928 0.500000 0.0115 Uiso
Cl3 Cl 0.2536(4) 0.3722(4) 0.000000 0.0013 Uiso
O17 O 0.4782(11) 0.4090(19) 0.302(2) 0.0013 Uiso
O18 O 0.5218(11) 0.5910(19) 0.698(2) 0.0013 Uiso
O19 O 0.4090(19) 0.4782(11) 0.698(2) 0.0013 Uiso
O20 O 0.5910(19) 0.5218(11) 0.302(2) 0.0013 Uiso
O21 O 0.4147(15) 0.3727(25) 0.609(3) 0.0013 Uiso
O22 O 0.4147(15) 0.3727(25) 0.391(3) 0.0013 Uiso
O23 O 0.3727(25) 0.4147(15) 0.609(3) 0.0013 Uiso
Zr5 Zr 0.576543 0.576543 0.500000 0.0115 Uiso
Zr7 Zr 0.000000 0.423457 0.500000 0.0115 Uiso
Zr10 Zr 0.531249 0.468751 0.613890 0.0115 Uiso
Zr11 Zr 0.468751 0.531249 0.386110 0.0115 Uiso
Zr12 Zr 0.062498 0.531249 0.386110 0.0115 Uiso
O24 O 0.535820 0.535820 0.606611 0.0115 Uiso
O25 O 0.464180 0.464180 0.393389 0.0115 Uiso
O26 O 0.565072 0.506568 0.500000 0.0115 Uiso
O27 O 0.434928 0.493432 0.500000 0.0115 Uiso
O28 O 0.569076 0.430924 0.430603 0.0115 Uiso
O29 O 0.519041 0.480959 0.248242 0.0115 Uiso
H2 H 0.14018 0.280344 0.205409 . .
H3 H 0.101051 0.20177 0.13882 . .
H4 H 0.149252 0.428184 0.0872696 . .
H5 H 0.0908254 0.377781 0.389008 . .
H6 H 0.104158 0.461333 0.161996 . .
H7 H 0.135933 0.344639 0.314221 . .
H8 H 0.536562 0.518281 0.912967 . .
H9 H 0.481719 0.518281 0.912967 . .
H10 H 0.481719 0.463438 0.912967 . .
H11 H 0.414113 0.64073 0.533313 . .
H12 H 0.386692 0.613308 0.433373 . .
H13 H 0.35927 0.585887 0.533313 . .
H19 H 0.278932 0.428184 0.0872696 . .
H21 H 0.286956 0.377781 0.389008 . .
H24 H 0.208706 0.344639 0.314221 . .
H27 H 0.357175 0.461333 0.161996 . .
Co1_2 Co 0.1861(2) 0.3722(4) 1.000000 0.0013 Uiso
Cl1_2 Cl 0.2249(2) 0.4499(4) 1.000000 0.0013 Uiso
Cl2_2 Cl 0.1186(2) 0.3722(4) 1.000000 0.0013 Uiso
C3_2 C 0.0978(2) 0.1956(4) 0.999950 0.0013 Uiso
N2_2 N 0.1476(2) 0.2953(4) 1.000007 0.0013 Uiso
P2 P 0.1789(2) 0.3577(4) 0.853430 0.0013 Uiso
N3 N 0.1486(2) 0.2972(4) 0.852856 0.0013 Uiso
C15 C 0.1350(2) 0.2701(4) 0.925780 0.0013 Uiso
C16 C 0.1103(2) 0.2205(4) 0.923059 0.0013 Uiso
C17 C 0.1455(2) 0.3845(4) 0.803837 0.0013 Uiso
C18 C 0.1365(11) 0.4172(11) 0.8467(8) 0.0013 Uiso
C19 C 0.1111(10) 0.4358(10) 0.8047(8) 0.0013 Uiso
C20 C 0.0946(4) 0.4216(4) 0.71986(12) 0.0013 Uiso
C21 C 0.1036(13) 0.3888(13) 0.6770(9) 0.0013 Uiso
C22 C 0.1290(13) 0.3702(11) 0.7190(9) 0.0013 Uiso
C23 C 0.0676(4) 0.4412(5) 0.67543(18) 0.0013 Uiso
O7 O 0.0692(15) 0.4782(11) 0.698(2) 0.0013 Uiso
O8 O 0.042(2) 0.4147(15) 0.609(3) 0.0013 Uiso
C31 C 0.2390(4) 0.3845(4) 0.803837 0.0013 Uiso
C32 C 0.2807(16) 0.4172(11) 0.8467(8) 0.0013 Uiso
C33 C 0.3247(14) 0.4358(10) 0.8047(8) 0.0013 Uiso
C34 C 0.3270(6) 0.4216(4) 0.71986(12) 0.0013 Uiso
C35 C 0.2852(18) 0.3888(13) 0.6770(9) 0.0013 Uiso
C36 C 0.2412(17) 0.3702(11) 0.7190(9) 0.0013 Uiso
C37 C 0.3736(6) 0.4412(5) 0.67543(18) 0.0013 Uiso
Cl3_2 Cl 0.2536(4) 0.3722(4) 1.000000 0.0013 Uiso
Zr9 Zr 0.062498 0.531249 0.613890 0.0115 Uiso
H1 H 0.0783324 0.156821 0.99993 . .
H14 H 0.14018 0.280344 0.794591 . .
H15 H 0.101055 0.20178 0.861171 . .
H16 H 0.149252 0.428184 0.91273 . .
H17 H 0.104158 0.461333 0.838004 . .
H18 H 0.0908254 0.377781 0.610992 . .
H20 H 0.278932 0.428184 0.91273 . .
H22 H 0.357175 0.461333 0.838004 . .
H23 H 0.286956 0.377781 0.610992 . .
H25 H 0.208706 0.344639 0.685779 . .
H26 H 0.135933 0.344639 0.685779 . .
Zr7_2 Zr 1.000000 0.423457 0.500000 0.0115 Uiso
Zr1_2 Zr 0.576543 0.000000 0.500000 0.0115 Uiso
O3_2 O 0.535820 0.000000 0.606611 0.0115 Uiso
O6_2 O 0.519041 0.038082 0.751758 0.0115 Uiso
C13_2 C 0.500000 0.000000 0.791824 0.0115 Uiso
C14_2 C 0.500000 0.000000 0.889411 0.0115 Uiso
Zr3_2 Zr 0.531249 0.062498 0.386110 0.0115 Uiso
O15_2 O 0.464180 0.000000 0.393389 0.0115 Uiso
O16_2 O 0.565072 0.058504 0.500000 0.0115 Uiso
O17_2 O 0.5910(19) 0.0692(22) 0.302(2) 0.0013 Uiso
O20_2 O 0.4782(11) 0.0692(22) 0.302(2) 0.0013 Uiso
O21_2 O 0.6273(25) 0.0420(29) 0.609(3) 0.0013 Uiso
O22_2 O 0.6273(25) 0.0420(29) 0.391(3) 0.0013 Uiso
Zr5_2 Zr 0.423457 -0.000000 0.500000 0.0115 Uiso
Zr10_2 Zr 0.531249 0.062498 0.613890 0.0115 Uiso
O24_2 O 0.464180 0.000000 0.606611 0.0115 Uiso
O25_2 O 0.535820 0.000000 0.393389 0.0115 Uiso
O26_2 O 0.493432 0.058504 0.500000 0.0115 Uiso
O28_2 O 0.569076 0.138152 0.430603 0.0115 Uiso
O29_2 O 0.519041 0.038082 0.248242 0.0115 Uiso
H8_2 H 0.481719 0.0182808 0.912967 . .
H10_2 H 0.536562 0.0182808 0.912967 . .
Co1_3 Co 0.6278(4) 0.8139(4) 0.000000 0.0013 Uiso
Cl1_3 Cl 0.5501(4) 0.7750(4) 0.000000 0.0013 Uiso
Cl2_3 Cl 0.6278(4) 0.7464(4) 0.000000 0.0013 Uiso
P1_2 P 0.6423(4) 0.8212(4) 0.146570 0.0013 Uiso
N1_2 N 0.7028(4) 0.8514(4) 0.147144 0.0013 Uiso
C1_2 C 0.7299(4) 0.8649(4) 0.074220 0.0013 Uiso
C2_2 C 0.7795(4) 0.8898(4) 0.076941 0.0013 Uiso
C3_3 C 0.8044(4) 0.9022(4) -0.000050 0.0013 Uiso
N2_3 N 0.7047(4) 0.8523(4) 0.000007 0.0013 Uiso
C4_2 C 0.6155(4) 0.7610(4) 0.196163 0.0013 Uiso
C5_2 C 0.5828(11) 0.7193(16) 0.1533(8) 0.0013 Uiso
C6_2 C 0.5642(10) 0.6753(14) 0.1953(8) 0.0013 Uiso
C7_2 C 0.5784(4) 0.6730(6) 0.28014(12) 0.0013 Uiso
C8_2 C 0.6112(13) 0.7148(18) 0.3230(9) 0.0013 Uiso
C9_2 C 0.6298(11) 0.7588(17) 0.2810(9) 0.0013 Uiso
C10_2 C 0.5588(5) 0.6264(6) 0.32457(18) 0.0013 Uiso
O1_2 O 0.5218(11) 0.5910(19) 0.302(2) 0.0013 Uiso
O2_2 O 0.5853(15) 0.6273(25) 0.391(3) 0.0013 Uiso
Zr1_3 Zr 0.576543 1.000000 0.500000 0.0115 Uiso
Zr2_2 Zr 0.468751 0.937502 0.613890 0.0115 Uiso
O3_3 O 0.535820 1.000000 0.606611 0.0115 Uiso
O4_2 O 0.434928 0.941496 0.500000 0.0115 Uiso
O5_2 O 0.430924 0.861848 0.569397 0.0115 Uiso
C11_2 C 0.419930 0.839860 0.500000 0.0115 Uiso
C12_2 C 0.393155 0.786310 0.500000 0.0115 Uiso
C13_3 C 0.500000 1.000000 0.791824 0.0115 Uiso
C14_3 C 0.500000 1.000000 0.889411 0.0115 Uiso
C24_2 C 0.6155(4) 0.8545(6) 0.196163 0.0013 Uiso
C25_2 C 0.5828(11) 0.8635(19) 0.1533(8) 0.0013 Uiso
C26_2 C 0.5642(10) 0.8889(17) 0.1953(8) 0.0013 Uiso
C27_2 C 0.5784(4) 0.9054(7) 0.28014(12) 0.0013 Uiso
C28_2 C 0.6112(13) 0.8964(22) 0.3230(9) 0.0013 Uiso
C29_2 C 0.6298(11) 0.8710(20) 0.2810(9) 0.0013 Uiso
C30_2 C 0.5588(5) 0.9324(8) 0.32457(18) 0.0013 Uiso
O9_2 O 0.5218(11) 0.9308(22) 0.302(2) 0.0013 Uiso
O10_2 O 0.5853(15) 0.9580(29) 0.391(3) 0.0013 Uiso
O13_2 O 0.430924 0.861848 0.430603 0.0115 Uiso
O14_2 O 0.480959 0.961918 0.751758 0.0115 Uiso
O15_3 O 0.464180 1.000000 0.393389 0.0115 Uiso
Cl3_3 Cl 0.6278(4) 0.8814(6) 0.000000 0.0013 Uiso
O18_2 O 0.4090(19) 0.9308(22) 0.698(2) 0.0013 Uiso
O19_2 O 0.5218(11) 0.9308(22) 0.698(2) 0.0013 Uiso
O23_2 O 0.5853(15) 0.9580(29) 0.609(3) 0.0013 Uiso
Zr5_3 Zr 0.423457 1.000000 0.500000 0.0115 Uiso
Zr11_2 Zr 0.468751 0.937502 0.386110 0.0115 Uiso
O24_3 O 0.464180 1.000000 0.606611 0.0115 Uiso
O25_3 O 0.535820 1.000000 0.393389 0.0115 Uiso
O27_2 O 0.506568 0.941496 0.500000 0.0115 Uiso
H2_2 H 0.719656 0.859836 0.205409 . .
H3_2 H 0.79823 0.899281 0.13882 . .
H4_2 H 0.571816 0.721068 0.0872696 . .
H5_2 H 0.622219 0.713044 0.389008 . .
H6_2 H 0.538667 0.642825 0.161996 . .
H7_2 H 0.655361 0.791294 0.314221 . .
H9_2 H 0.481719 0.963438 0.912967 . .
H11_2 H 0.35927 0.773383 0.533313 . .
H12_2 H 0.386692 0.773383 0.433373 . .
H13_2 H 0.414113 0.773383 0.533313 . .
H19_2 H 0.571816 0.850748 0.0872696 . .
H21_2 H 0.622219 0.909175 0.389008 . .
H24_2 H 0.655361 0.864067 0.314221 . .
H27_2 H 0.538667 0.895842 0.161996 . .
Co1_4 Co 0.6278(4) 0.8139(4) 1.000000 0.0013 Uiso
Cl1_4 Cl 0.5501(4) 0.7750(4) 1.000000 0.0013 Uiso
Cl2_4 Cl 0.6278(4) 0.7464(4) 1.000000 0.0013 Uiso
C3_4 C 0.8044(4) 0.9022(4) 0.999950 0.0013 Uiso
N2_4 N 0.7047(4) 0.8523(4) 1.000007 0.0013 Uiso
P2_2 P 0.6423(4) 0.8212(4) 0.853430 0.0013 Uiso
N3_2 N 0.7028(4) 0.8514(4) 0.852856 0.0013 Uiso
C15_2 C 0.7299(4) 0.8649(4) 0.925780 0.0013 Uiso
C16_2 C 0.7795(4) 0.8898(4) 0.923059 0.0013 Uiso
C17_2 C 0.6155(4) 0.7610(4) 0.803837 0.0013 Uiso
C18_2 C 0.5828(11) 0.7193(16) 0.8467(8) 0.0013 Uiso
C19_2 C 0.5642(10) 0.6753(14) 0.8047(8) 0.0013 Uiso
C20_2 C 0.5784(4) 0.6730(6) 0.71986(12) 0.0013 Uiso
C21_2 C 0.6112(13) 0.7148(18) 0.6770(9) 0.0013 Uiso
C22_2 C 0.6298(11) 0.7588(17) 0.7190(9) 0.0013 Uiso
C23_2 C 0.5588(5) 0.6264(6) 0.67543(18) 0.0013 Uiso
O8_2 O 0.5853(15) 0.6273(25) 0.609(3) 0.0013 Uiso
C31_2 C 0.6155(4) 0.8545(6) 0.803837 0.0013 Uiso
C32_2 C 0.5828(11) 0.8635(19) 0.8467(8) 0.0013 Uiso
C33_2 C 0.5642(10) 0.8889(17) 0.8047(8) 0.0013 Uiso
C34_2 C 0.5784(4) 0.9054(7) 0.71986(12) 0.0013 Uiso
C35_2 C 0.6112(13) 0.8964(22) 0.6770(9) 0.0013 Uiso
C36_2 C 0.6298(11) 0.8710(20) 0.7190(9) 0.0013 Uiso
C37_2 C 0.5588(5) 0.9324(8) 0.67543(18) 0.0013 Uiso
Cl3_4 Cl 0.6278(4) 0.8814(6) 1.000000 0.0013 Uiso
H1_2 H 0.843179 0.921512 0.99993 . .
H14_2 H 0.719656 0.859836 0.794591 . .
H15_2 H 0.79822 0.899276 0.861171 . .
H16_2 H 0.571816 0.721068 0.91273 . .
H17_2 H 0.538667 0.642825 0.838004 . .
H18_2 H 0.622219 0.713044 0.610992 . .
H20_2 H 0.571816 0.850748 0.91273 . .
H22_2 H 0.538667 0.895842 0.838004 . .
H23_2 H 0.622219 0.909175 0.610992 . .
H25_2 H 0.655361 0.864067 0.685779 . .
H26_2 H 0.655361 0.791294 0.685779 . .
Co1_5 Co 0.1861(4) 0.8139(2) 0.000000 0.0013 Uiso
Cl1_5 Cl 0.2250(4) 0.7751(2) 0.000000 0.0013 Uiso
Cl2_5 Cl 0.2536(4) 0.8814(2) 0.000000 0.0013 Uiso
P1_3 P 0.1788(4) 0.8211(2) 0.146570 0.0013 Uiso
N1_3 N 0.1486(4) 0.8514(2) 0.147144 0.0013 Uiso
C1_3 C 0.1351(4) 0.8650(2) 0.074220 0.0013 Uiso
C2_3 C 0.1102(4) 0.8897(2) 0.076941 0.0013 Uiso
C3_5 C 0.0978(4) 0.9022(2) -0.000050 0.0013 Uiso
N2_5 N 0.1477(4) 0.8524(2) 0.000007 0.0013 Uiso
C4_3 C 0.2390(4) 0.8545(2) 0.196163 0.0013 Uiso
C5_3 C 0.2807(16) 0.8635(11) 0.1533(8) 0.0013 Uiso
C6_3 C 0.3247(14) 0.8889(10) 0.1953(8) 0.0013 Uiso
C7_3 C 0.3270(6) 0.9054(4) 0.28014(12) 0.0013 Uiso
C8_3 C 0.2852(18) 0.8964(13) 0.3230(9) 0.0013 Uiso
C9_3 C 0.2412(17) 0.8710(13) 0.2810(9) 0.0013 Uiso
C10_3 C 0.3736(6) 0.9324(4) 0.32457(18) 0.0013 Uiso
O1_3 O 0.4090(19) 0.9308(15) 0.302(2) 0.0013 Uiso
O2_3 O 0.3727(25) 0.958(2) 0.391(3) 0.0013 Uiso
Zr1_4 Zr -0.000000 0.576543 0.500000 0.0115 Uiso
O3_4 O -0.000000 0.535820 0.606611 0.0115 Uiso
O4_3 O 0.058504 0.493432 0.500000 0.0115 Uiso
O5_3 O 0.138152 0.569076 0.569397 0.0115 Uiso
C11_3 C 0.160140 0.580070 0.500000 0.0115 Uiso
C12_3 C 0.213690 0.606845 0.500000 0.0115 Uiso
C13_4 C 0.000000 0.500000 0.791824 0.0115 Uiso
C14_4 C 0.000000 0.500000 0.889411 0.0115 Uiso
C24_3 C 0.1455(6) 0.7610(4) 0.196163 0.0013 Uiso
C25_3 C 0.1365(19) 0.7193(16) 0.1533(8) 0.0013 Uiso
C26_3 C 0.1111(17) 0.6753(14) 0.1953(8) 0.0013 Uiso
C27_3 C 0.0946(7) 0.6730(6) 0.28014(12) 0.0013 Uiso
C28_3 C 0.1036(22) 0.7148(18) 0.3230(9) 0.0013 Uiso
C29_3 C 0.1290(20) 0.7588(17) 0.2810(9) 0.0013 Uiso
C30_3 C 0.0676(8) 0.6264(6) 0.32457(18) 0.0013 Uiso
O9_3 O 0.0692(22) 0.5910(19) 0.302(2) 0.0013 Uiso
O10_3 O 0.0420(29) 0.6273(25) 0.391(3) 0.0013 Uiso
O13_3 O 0.138152 0.569076 0.430603 0.0115 Uiso
O14_3 O 0.038082 0.519041 0.751758 0.0115 Uiso
O15_4 O 0.000000 0.464180 0.393389 0.0115 Uiso
Cl3_5 Cl 0.1186(6) 0.7464(4) 0.000000 0.0013 Uiso
O19_3 O 0.0692(22) 0.5910(19) 0.698(2) 0.0013 Uiso
O23_3 O 0.0420(29) 0.6273(25) 0.609(3) 0.0013 Uiso
O24_4 O 0.000000 0.464180 0.606611 0.0115 Uiso
O25_4 O -0.000000 0.535820 0.393389 0.0115 Uiso
O27_3 O 0.058504 0.565072 0.500000 0.0115 Uiso
H2_3 H 0.140164 0.85982 0.205409 . .
H3_3 H 0.100719 0.898949 0.13882 . .
H4_3 H 0.278932 0.850748 0.0872696 . .
H5_3 H 0.286956 0.909175 0.389008 . .
H6_3 H 0.357175 0.895842 0.161996 . .
H7_3 H 0.208706 0.864067 0.314221 . .
H9_3 H 0.0365617 0.518281 0.912967 . .
H11_3 H 0.226617 0.585887 0.533313 . .
H12_3 H 0.226617 0.613308 0.433373 . .
H13_3 H 0.226617 0.64073 0.533313 . .
H19_3 H 0.149252 0.721068 0.0872696 . .
H21_3 H 0.0908254 0.713044 0.389008 . .
H24_3 H 0.135933 0.791294 0.314221 . .
H27_3 H 0.104158 0.642825 0.161996 . .
Co1_6 Co 0.1861(4) 0.8139(2) 1.000000 0.0013 Uiso
Cl1_6 Cl 0.2250(4) 0.7751(2) 1.000000 0.0013 Uiso
Cl2_6 Cl 0.2536(4) 0.8814(2) 1.000000 0.0013 Uiso
C3_6 C 0.0978(4) 0.9022(2) 0.999950 0.0013 Uiso
N2_6 N 0.1477(4) 0.8524(2) 1.000007 0.0013 Uiso
P2_3 P 0.1788(4) 0.8211(2) 0.853430 0.0013 Uiso
N3_3 N 0.1486(4) 0.8514(2) 0.852856 0.0013 Uiso
C15_3 C 0.1351(4) 0.8650(2) 0.925780 0.0013 Uiso
C16_3 C 0.1102(4) 0.8897(2) 0.923059 0.0013 Uiso
C17_3 C 0.2390(4) 0.8545(2) 0.803837 0.0013 Uiso
C18_3 C 0.2807(16) 0.8635(11) 0.8467(8) 0.0013 Uiso
C19_3 C 0.3247(14) 0.8889(10) 0.8047(8) 0.0013 Uiso
C20_3 C 0.3270(6) 0.9054(4) 0.71986(12) 0.0013 Uiso
C21_3 C 0.2852(18) 0.8964(13) 0.6770(9) 0.0013 Uiso
C22_3 C 0.2412(17) 0.8710(13) 0.7190(9) 0.0013 Uiso
C23_3 C 0.3736(6) 0.9324(4) 0.67543(18) 0.0013 Uiso
O8_3 O 0.3727(25) 0.958(2) 0.609(3) 0.0013 Uiso
C31_3 C 0.1455(6) 0.7610(4) 0.803837 0.0013 Uiso
C32_3 C 0.1365(19) 0.7193(16) 0.8467(8) 0.0013 Uiso
C33_3 C 0.1111(17) 0.6753(14) 0.8047(8) 0.0013 Uiso
C34_3 C 0.0946(7) 0.6730(6) 0.71986(12) 0.0013 Uiso
C35_3 C 0.1036(22) 0.7148(18) 0.6770(9) 0.0013 Uiso
C36_3 C 0.1290(20) 0.7588(17) 0.7190(9) 0.0013 Uiso
C37_3 C 0.0676(8) 0.6264(6) 0.67543(18) 0.0013 Uiso
Cl3_6 Cl 0.1186(6) 0.7464(4) 1.000000 0.0013 Uiso
H1_3 H 0.0784882 0.921668 0.99993 . .
H14_3 H 0.140164 0.85982 0.794591 . .
H15_3 H 0.100724 0.898945 0.861171 . .
H16_3 H 0.278932 0.850748 0.91273 . .
H17_3 H 0.357175 0.895842 0.838004 . .
H18_3 H 0.286956 0.909175 0.610992 . .
H20_3 H 0.149252 0.721068 0.91273 . .
H22_3 H 0.104158 0.642825 0.838004 . .
H23_3 H 0.0908254 0.713044 0.610992 . .
H25_3 H 0.135933 0.791294 0.685779 . .
H26_3 H 0.208706 0.864067 0.685779 . .
Zr1_5 Zr 1.000000 0.576543 0.500000 0.0115 Uiso
O3_5 O 1.000000 0.535820 0.606611 0.0115 Uiso
O6_3 O 0.961918 0.480959 0.751758 0.0115 Uiso
C13_5 C 1.000000 0.500000 0.791824 0.0115 Uiso
C14_5 C 1.000000 0.500000 0.889411 0.0115 Uiso
Zr3_3 Zr 0.937502 0.468751 0.386110 0.0115 Uiso
O15_5 O 1.000000 0.464180 0.393389 0.0115 Uiso
O16_3 O 0.941496 0.506568 0.500000 0.0115 Uiso
O17_3 O 0.9308(22) 0.5218(11) 0.302(2) 0.0013 Uiso
O20_3 O 0.9308(22) 0.4090(19) 0.302(2) 0.0013 Uiso
O21_3 O 0.9580(29) 0.5853(15) 0.609(3) 0.0013 Uiso
O22_3 O 0.9580(29) 0.5853(15) 0.391(3) 0.0013 Uiso
Zr10_3 Zr 0.937502 0.468751 0.613890 0.0115 Uiso
O24_5 O 1.000000 0.464180 0.606611 0.0115 Uiso
O25_5 O 1.000000 0.535820 0.393389 0.0115 Uiso
O26_3 O 0.941496 0.434928 0.500000 0.0115 Uiso
O28_3 O 0.861848 0.430924 0.430603 0.0115 Uiso
O29_3 O 0.961918 0.480959 0.248242 0.0115 Uiso
H8_3 H 0.981719 0.463438 0.912967 . .
H10_3 H 0.981719 0.518281 0.912967 . .
Co1_7 Co 0.8139(2) 0.6278(4) 0.000000 0.0013 Uiso
Cl1_7 Cl 0.7751(2) 0.5501(4) 0.000000 0.0013 Uiso
Cl2_7 Cl 0.8814(2) 0.6278(4) 0.000000 0.0013 Uiso
P1_4 P 0.8211(2) 0.6423(4) 0.146570 0.0013 Uiso
N1_4 N 0.8514(2) 0.7028(4) 0.147144 0.0013 Uiso
C1_4 C 0.8650(2) 0.7299(4) 0.074220 0.0013 Uiso
C2_4 C 0.8897(2) 0.7795(4) 0.076941 0.0013 Uiso
C3_7 C 0.9022(2) 0.8044(4) -0.000050 0.0013 Uiso
N2_7 N 0.8524(2) 0.7047(4) 0.000007 0.0013 Uiso
C4_4 C 0.8545(2) 0.6155(4) 0.196163 0.0013 Uiso
C5_4 C 0.8635(11) 0.5828(11) 0.1533(8) 0.0013 Uiso
C6_4 C 0.8889(10) 0.5642(10) 0.1953(8) 0.0013 Uiso
C7_4 C 0.9054(4) 0.5784(4) 0.28014(12) 0.0013 Uiso
C8_4 C 0.8964(13) 0.6112(13) 0.3230(9) 0.0013 Uiso
C9_4 C 0.8710(13) 0.6298(11) 0.2810(9) 0.0013 Uiso
C10_4 C 0.9324(4) 0.5588(5) 0.32457(18) 0.0013 Uiso
O5_4 O 0.569076 0.430924 0.569397 0.0115 Uiso
C11_4 C 0.580070 0.419930 0.500000 0.0115 Uiso
C12_4 C 0.606845 0.393155 0.500000 0.0115 Uiso
C24_4 C 0.7610(4) 0.6155(4) 0.196163 0.0013 Uiso
C25_4 C 0.7193(16) 0.5828(11) 0.1533(8) 0.0013 Uiso
C26_4 C 0.6753(14) 0.5642(10) 0.1953(8) 0.0013 Uiso
C27_4 C 0.6730(6) 0.5784(4) 0.28014(12) 0.0013 Uiso
C28_4 C 0.7148(18) 0.6112(13) 0.3230(9) 0.0013 Uiso
C29_4 C 0.7588(17) 0.6298(11) 0.2810(9) 0.0013 Uiso
C30_4 C 0.6264(6) 0.5588(5) 0.32457(18) 0.0013 Uiso
O10_4 O 0.6273(25) 0.5853(15) 0.391(3) 0.0013 Uiso
Cl3_7 Cl 0.7464(4) 0.6278(4) 0.000000 0.0013 Uiso
O18_3 O 0.4782(11) 0.4090(19) 0.698(2) 0.0013 Uiso
O19_4 O 0.5910(19) 0.5218(11) 0.698(2) 0.0013 Uiso
O23_4 O 0.6273(25) 0.5853(15) 0.609(3) 0.0013 Uiso
O29_4 O 0.480959 0.519041 0.248242 0.0115 Uiso
H2_4 H 0.85982 0.719656 0.205409 . .
H3_4 H 0.898949 0.79823 0.13882 . .
H4_4 H 0.850748 0.571816 0.0872696 . .
H5_4 H 0.909175 0.622219 0.389008 . .
H6_4 H 0.895842 0.538667 0.161996 . .
H7_4 H 0.864067 0.655361 0.314221 . .
H8_4 H 0.463438 0.481719 0.912967 . .
H9_4 H 0.518281 0.481719 0.912967 . .
H10_4 H 0.518281 0.536562 0.912967 . .
H11_4 H 0.585887 0.35927 0.533313 . .
H12_4 H 0.613308 0.386692 0.433373 . .
H13_4 H 0.64073 0.414113 0.533313 . .
H19_4 H 0.721068 0.571816 0.0872696 . .
H21_4 H 0.713044 0.622219 0.389008 . .
H24_4 H 0.791294 0.655361 0.314221 . .
H27_4 H 0.642825 0.538667 0.161996 . .
Co1_8 Co 0.8139(2) 0.6278(4) 1.000000 0.0013 Uiso
Cl1_8 Cl 0.7751(2) 0.5501(4) 1.000000 0.0013 Uiso
Cl2_8 Cl 0.8814(2) 0.6278(4) 1.000000 0.0013 Uiso
C3_8 C 0.9022(2) 0.8044(4) 0.999950 0.0013 Uiso
N2_8 N 0.8524(2) 0.7047(4) 1.000007 0.0013 Uiso
P2_4 P 0.8211(2) 0.6423(4) 0.853430 0.0013 Uiso
N3_4 N 0.8514(2) 0.7028(4) 0.852856 0.0013 Uiso
C15_4 C 0.8650(2) 0.7299(4) 0.925780 0.0013 Uiso
C16_4 C 0.8897(2) 0.7795(4) 0.923059 0.0013 Uiso
C17_4 C 0.8545(2) 0.6155(4) 0.803837 0.0013 Uiso
C18_4 C 0.8635(11) 0.5828(11) 0.8467(8) 0.0013 Uiso
C19_4 C 0.8889(10) 0.5642(10) 0.8047(8) 0.0013 Uiso
C20_4 C 0.9054(4) 0.5784(4) 0.71986(12) 0.0013 Uiso
C21_4 C 0.8964(13) 0.6112(13) 0.6770(9) 0.0013 Uiso
C22_4 C 0.8710(13) 0.6298(11) 0.7190(9) 0.0013 Uiso
C23_4 C 0.9324(4) 0.5588(5) 0.67543(18) 0.0013 Uiso
O7_2 O 0.9308(15) 0.5218(11) 0.698(2) 0.0013 Uiso
C31_4 C 0.7610(4) 0.6155(4) 0.803837 0.0013 Uiso
C32_4 C 0.7193(16) 0.5828(11) 0.8467(8) 0.0013 Uiso
C33_4 C 0.6753(14) 0.5642(10) 0.8047(8) 0.0013 Uiso
C34_4 C 0.6730(6) 0.5784(4) 0.71986(12) 0.0013 Uiso
C35_4 C 0.7148(18) 0.6112(13) 0.6770(9) 0.0013 Uiso
C36_4 C 0.7588(17) 0.6298(11) 0.7190(9) 0.0013 Uiso
C37_4 C 0.6264(6) 0.5588(5) 0.67543(18) 0.0013 Uiso
Cl3_8 Cl 0.7464(4) 0.6278(4) 1.000000 0.0013 Uiso
H1_4 H 0.921668 0.843179 0.99993 . .
H14_4 H 0.85982 0.719656 0.794591 . .
H15_4 H 0.898945 0.79822 0.861171 . .
H16_4 H 0.850748 0.571816 0.91273 . .
H17_4 H 0.895842 0.538667 0.838004 . .
H18_4 H 0.909175 0.622219 0.610992 . .
H20_4 H 0.721068 0.571816 0.91273 . .
H22_4 H 0.642825 0.538667 0.838004 . .
H23_4 H 0.713044 0.622219 0.610992 . .
H25_4 H 0.791294 0.655361 0.685779 . .
H26_4 H 0.864067 0.655361 0.685779 . .
Co1_9 Co 0.3722(4) 0.1861(4) 0.000000 0.0013 Uiso
Cl1_9 Cl 0.4499(4) 0.2250(4) 0.000000 0.0013 Uiso
Cl2_9 Cl 0.3722(4) 0.2536(4) 0.000000 0.0013 Uiso
P1_5 P 0.3577(4) 0.1788(4) 0.146570 0.0013 Uiso
N1_5 N 0.2972(4) 0.1486(4) 0.147144 0.0013 Uiso
C1_5 C 0.2701(4) 0.1351(4) 0.074220 0.0013 Uiso
C2_5 C 0.2205(4) 0.1102(4) 0.076941 0.0013 Uiso
C3_9 C 0.1956(4) 0.0978(4) -0.000050 0.0013 Uiso
N2_9 N 0.2953(4) 0.1477(4) 0.000007 0.0013 Uiso
C4_5 C 0.3845(4) 0.2390(4) 0.196163 0.0013 Uiso
C5_5 C 0.4172(11) 0.2807(16) 0.1533(8) 0.0013 Uiso
C6_5 C 0.4358(10) 0.3247(14) 0.1953(8) 0.0013 Uiso
C7_5 C 0.4216(4) 0.3270(6) 0.28014(12) 0.0013 Uiso
C8_5 C 0.3888(13) 0.2852(18) 0.3230(9) 0.0013 Uiso
C9_5 C 0.3702(11) 0.2412(17) 0.2810(9) 0.0013 Uiso
C10_5 C 0.4412(5) 0.3736(6) 0.32457(18) 0.0013 Uiso
O5_5 O 0.569076 0.138152 0.569397 0.0115 Uiso
C11_5 C 0.580070 0.160140 0.500000 0.0115 Uiso
C12_5 C 0.606845 0.213690 0.500000 0.0115 Uiso
C24_5 C 0.3845(4) 0.1455(6) 0.196163 0.0013 Uiso
C25_5 C 0.4172(11) 0.1365(19) 0.1533(8) 0.0013 Uiso
C26_5 C 0.4358(10) 0.1111(17) 0.1953(8) 0.0013 Uiso
C27_5 C 0.4216(4) 0.0946(7) 0.28014(12) 0.0013 Uiso
C28_5 C 0.3888(13) 0.1036(22) 0.3230(9) 0.0013 Uiso
C29_5 C 0.3702(11) 0.1290(20) 0.2810(9) 0.0013 Uiso
C30_5 C 0.4412(5) 0.0676(8) 0.32457(18) 0.0013 Uiso
O10_5 O 0.4147(15) 0.0420(29) 0.391(3) 0.0013 Uiso
Cl3_9 Cl 0.3722(4) 0.1186(6) 0.000000 0.0013 Uiso
O18_4 O 0.5910(19) 0.0692(22) 0.698(2) 0.0013 Uiso
O19_5 O 0.4782(11) 0.0692(22) 0.698(2) 0.0013 Uiso
O23_5 O 0.4147(15) 0.0420(29) 0.609(3) 0.0013 Uiso
H2_5 H 0.280344 0.140164 0.205409 . .
H3_5 H 0.20177 0.100719 0.13882 . .
H4_5 H 0.428184 0.278932 0.0872696 . .
H5_5 H 0.377781 0.286956 0.389008 . .
H6_5 H 0.461333 0.357175 0.161996 . .
H7_5 H 0.344639 0.208706 0.314221 . .
H9_5 H 0.518281 0.0365617 0.912967 . .
H11_5 H 0.64073 0.226617 0.533313 . .
H12_5 H 0.613308 0.226617 0.433373 . .
H13_5 H 0.585887 0.226617 0.533313 . .
H19_5 H 0.428184 0.149252 0.0872696 . .
H21_5 H 0.377781 0.0908254 0.389008 . .
H24_5 H 0.344639 0.135933 0.314221 . .
H27_5 H 0.461333 0.104158 0.161996 . .
Co1_10 Co 0.3722(4) 0.1861(4) 1.000000 0.0013 Uiso
Cl1_10 Cl 0.4499(4) 0.2250(4) 1.000000 0.0013 Uiso
Cl2_10 Cl 0.3722(4) 0.2536(4) 1.000000 0.0013 Uiso
C3_10 C 0.1956(4) 0.0978(4) 0.999950 0.0013 Uiso
N2_10 N 0.2953(4) 0.1477(4) 1.000007 0.0013 Uiso
P2_5 P 0.3577(4) 0.1788(4) 0.853430 0.0013 Uiso
N3_5 N 0.2972(4) 0.1486(4) 0.852856 0.0013 Uiso
C15_5 C 0.2701(4) 0.1351(4) 0.925780 0.0013 Uiso
C16_5 C 0.2205(4) 0.1102(4) 0.923059 0.0013 Uiso
C17_5 C 0.3845(4) 0.2390(4) 0.803837 0.0013 Uiso
C18_5 C 0.4172(11) 0.2807(16) 0.8467(8) 0.0013 Uiso
C19_5 C 0.4358(10) 0.3247(14) 0.8047(8) 0.0013 Uiso
C20_5 C 0.4216(4) 0.3270(6) 0.71986(12) 0.0013 Uiso
C21_5 C 0.3888(13) 0.2852(18) 0.6770(9) 0.0013 Uiso
C22_5 C 0.3702(11) 0.2412(17) 0.7190(9) 0.0013 Uiso
C23_5 C 0.4412(5) 0.3736(6) 0.67543(18) 0.0013 Uiso
C31_5 C 0.3845(4) 0.1455(6) 0.803837 0.0013 Uiso
C32_5 C 0.4172(11) 0.1365(19) 0.8467(8) 0.0013 Uiso
C33_5 C 0.4358(10) 0.1111(17) 0.8047(8) 0.0013 Uiso
C34_5 C 0.4216(4) 0.0946(7) 0.71986(12) 0.0013 Uiso
C35_5 C 0.3888(13) 0.1036(22) 0.6770(9) 0.0013 Uiso
C36_5 C 0.3702(11) 0.1290(20) 0.7190(9) 0.0013 Uiso
C37_5 C 0.4412(5) 0.0676(8) 0.67543(18) 0.0013 Uiso
Cl3_10 Cl 0.3722(4) 0.1186(6) 1.000000 0.0013 Uiso
H1_5 H 0.156821 0.0784882 0.99993 . .
H14_5 H 0.280344 0.140164 0.794591 . .
H15_5 H 0.20178 0.100724 0.861171 . .
H16_5 H 0.428184 0.278932 0.91273 . .
H17_5 H 0.461333 0.357175 0.838004 . .
H18_5 H 0.377781 0.286956 0.610992 . .
H20_5 H 0.428184 0.149252 0.91273 . .
H22_5 H 0.461333 0.104158 0.838004 . .
H23_5 H 0.377781 0.0908254 0.610992 . .
H25_5 H 0.344639 0.135933 0.685779 . .
H26_5 H 0.344639 0.208706 0.685779 . .
O29_5 O 0.480959 0.961918 0.248242 0.0115 Uiso
H8_5 H 0.518281 0.981719 0.912967 . .
H10_5 H 0.463438 0.981719 0.912967 . .
O29_6 O 0.038082 0.519041 0.248242 0.0115 Uiso
H8_6 H 0.0182808 0.536562 0.912967 . .
H10_6 H 0.0182808 0.481719 0.912967 . .
Co1_11 Co 0.8139(4) 0.1861(2) 0.000000 0.0013 Uiso
Cl1_11 Cl 0.7750(4) 0.2249(2) 0.000000 0.0013 Uiso
Cl2_11 Cl 0.7464(4) 0.1186(2) 0.000000 0.0013 Uiso
P1_6 P 0.8212(4) 0.1789(2) 0.146570 0.0013 Uiso
N1_6 N 0.8514(4) 0.1486(2) 0.147144 0.0013 Uiso
C1_6 C 0.8649(4) 0.1350(2) 0.074220 0.0013 Uiso
C2_6 C 0.8898(4) 0.1103(2) 0.076941 0.0013 Uiso
C3_11 C 0.9022(4) 0.0978(2) -0.000050 0.0013 Uiso
N2_11 N 0.8523(4) 0.1476(2) 0.000007 0.0013 Uiso
C4_6 C 0.7610(4) 0.1455(2) 0.196163 0.0013 Uiso
C5_6 C 0.7193(16) 0.1365(11) 0.1533(8) 0.0013 Uiso
C6_6 C 0.6753(14) 0.1111(10) 0.1953(8) 0.0013 Uiso
C7_6 C 0.6730(6) 0.0946(4) 0.28014(12) 0.0013 Uiso
C8_6 C 0.7148(18) 0.1036(13) 0.3230(9) 0.0013 Uiso
C9_6 C 0.7588(17) 0.1290(13) 0.2810(9) 0.0013 Uiso
C10_6 C 0.6264(6) 0.0676(4) 0.32457(18) 0.0013 Uiso
O5_6 O 0.861848 0.430924 0.569397 0.0115 Uiso
C11_6 C 0.839860 0.419930 0.500000 0.0115 Uiso
C12_6 C 0.786310 0.393155 0.500000 0.0115 Uiso
C24_6 C 0.8545(6) 0.2390(4) 0.196163 0.0013 Uiso
C25_6 C 0.8635(19) 0.2807(16) 0.1533(8) 0.0013 Uiso
C26_6 C 0.8889(17) 0.3247(14) 0.1953(8) 0.0013 Uiso
C27_6 C 0.9054(7) 0.3270(6) 0.28014(12) 0.0013 Uiso
C28_6 C 0.8964(22) 0.2852(18) 0.3230(9) 0.0013 Uiso
C29_6 C 0.8710(20) 0.2412(17) 0.2810(9) 0.0013 Uiso
C30_6 C 0.9324(8) 0.3736(6) 0.32457(18) 0.0013 Uiso
O10_6 O 0.9580(29) 0.3727(25) 0.391(3) 0.0013 Uiso
Cl3_11 Cl 0.8814(6) 0.2536(4) 0.000000 0.0013 Uiso
O19_6 O 0.9308(22) 0.4090(19) 0.698(2) 0.0013 Uiso
O23_6 O 0.9580(29) 0.3727(25) 0.609(3) 0.0013 Uiso
H2_6 H 0.859836 0.14018 0.205409 . .
H3_6 H 0.899281 0.101051 0.13882 . .
H4_6 H 0.721068 0.149252 0.0872696 . .
H5_6 H 0.713044 0.0908254 0.389008 . .
H6_6 H 0.642825 0.104158 0.161996 . .
H7_6 H 0.791294 0.135933 0.314221 . .
H9_6 H 0.963438 0.481719 0.912967 . .
H11_6 H 0.773383 0.414113 0.533313 . .
H12_6 H 0.773383 0.386692 0.433373 . .
H13_6 H 0.773383 0.35927 0.533313 . .
H19_6 H 0.850748 0.278932 0.0872696 . .
H21_6 H 0.909175 0.286956 0.389008 . .
H24_6 H 0.864067 0.208706 0.314221 . .
H27_6 H 0.895842 0.357175 0.161996 . .
Co1_12 Co 0.8139(4) 0.1861(2) 1.000000 0.0013 Uiso
Cl1_12 Cl 0.7750(4) 0.2249(2) 1.000000 0.0013 Uiso
Cl2_12 Cl 0.7464(4) 0.1186(2) 1.000000 0.0013 Uiso
C3_12 C 0.9022(4) 0.0978(2) 0.999950 0.0013 Uiso
N2_12 N 0.8523(4) 0.1476(2) 1.000007 0.0013 Uiso
P2_6 P 0.8212(4) 0.1789(2) 0.853430 0.0013 Uiso
N3_6 N 0.8514(4) 0.1486(2) 0.852856 0.0013 Uiso
C15_6 C 0.8649(4) 0.1350(2) 0.925780 0.0013 Uiso
C16_6 C 0.8898(4) 0.1103(2) 0.923059 0.0013 Uiso
C17_6 C 0.7610(4) 0.1455(2) 0.803837 0.0013 Uiso
C18_6 C 0.7193(16) 0.1365(11) 0.8467(8) 0.0013 Uiso
C19_6 C 0.6753(14) 0.1111(10) 0.8047(8) 0.0013 Uiso
C20_6 C 0.6730(6) 0.0946(4) 0.71986(12) 0.0013 Uiso
C21_6 C 0.7148(18) 0.1036(13) 0.6770(9) 0.0013 Uiso
C22_6 C 0.7588(17) 0.1290(13) 0.7190(9) 0.0013 Uiso
C23_6 C 0.6264(6) 0.0676(4) 0.67543(18) 0.0013 Uiso
C31_6 C 0.8545(6) 0.2390(4) 0.803837 0.0013 Uiso
C32_6 C 0.8635(19) 0.2807(16) 0.8467(8) 0.0013 Uiso
C33_6 C 0.8889(17) 0.3247(14) 0.8047(8) 0.0013 Uiso
C34_6 C 0.9054(7) 0.3270(6) 0.71986(12) 0.0013 Uiso
C35_6 C 0.8964(22) 0.2852(18) 0.6770(9) 0.0013 Uiso
C36_6 C 0.8710(20) 0.2412(17) 0.7190(9) 0.0013 Uiso
C37_6 C 0.9324(8) 0.3736(6) 0.67543(18) 0.0013 Uiso
Cl3_12 Cl 0.8814(6) 0.2536(4) 1.000000 0.0013 Uiso
H1_6 H 0.921512 0.0783324 0.99993 . .
H14_6 H 0.859836 0.14018 0.794591 . .
H15_6 H 0.899276 0.101055 0.861171 . .
H16_6 H 0.721068 0.149252 0.91273 . .
H17_6 H 0.642825 0.104158 0.838004 . .
H18_6 H 0.713044 0.0908254 0.610992 . .
H20_6 H 0.850748 0.278932 0.91273 . .
H22_6 H 0.895842 0.357175 0.838004 . .
H23_6 H 0.909175 0.286956 0.610992 . .
H25_6 H 0.864067 0.208706 0.685779 . .
H26_6 H 0.791294 0.135933 0.685779 . .
H1_7 H 0.156821 0.0783324 7.00945e-05 . .
C13_6 C 0.500000 0.500000 0.208176 0.0115 Uiso
C14_6 C 0.500000 0.500000 0.110589 0.0115 Uiso
H8_7 H 0.518281 0.536562 0.0870329 . .
H9_7 H 0.518281 0.481719 0.0870329 . .
H10_7 H 0.463438 0.481719 0.0870329 . .
H11_7 H 0.64073 0.414113 0.466687 . .
H12_7 H 0.613308 0.386692 0.566627 . .
H13_7 H 0.585887 0.35927 0.466687 . .
C13_7 C 0.000000 0.500000 0.208176 0.0115 Uiso
C14_7 C 0.000000 0.500000 0.110589 0.0115 Uiso
H8_8 H 0.0182808 0.481719 0.0870329 . .
H10_8 H 0.0182808 0.536562 0.0870329 . .
H1_8 H 0.921512 0.843179 7.00945e-05 . .
C13_8 C 1.000000 0.500000 0.208176 0.0115 Uiso
C14_8 C 1.000000 0.500000 0.110589 0.0115 Uiso
H9_8 H 0.963438 0.481719 0.0870329 . .
H11_8 H 0.773383 0.35927 0.466687 . .
H12_8 H 0.773383 0.386692 0.566627 . .
H13_8 H 0.773383 0.414113 0.466687 . .
H1_9 H 0.921668 0.0784882 7.00945e-05 . .
C13_9 C 0.500000 -0.000000 0.208176 0.0115 Uiso
C14_9 C 0.500000 -0.000000 0.110589 0.0115 Uiso
H9_9 H 0.518281 0.0365617 0.0870329 . .
H11_9 H 0.585887 0.226617 0.466687 . .
H12_9 H 0.613308 0.226617 0.566627 . .
H13_9 H 0.64073 0.226617 0.466687 . .
C13_10 C 0.500000 1.000000 0.208176 0.0115 Uiso
C14_10 C 0.500000 1.000000 0.110589 0.0115 Uiso
H8_9 H 0.463438 0.981719 0.0870329 . .
H10_9 H 0.518281 0.981719 0.0870329 . .
H1_10 H 0.843179 0.921668 7.00945e-05 . .
H8_10 H 0.481719 0.463438 0.0870329 . .
H9_10 H 0.481719 0.518281 0.0870329 . .
H10_10 H 0.536562 0.518281 0.0870329 . .
H11_10 H 0.35927 0.585887 0.466687 . .
H12_10 H 0.386692 0.613308 0.566627 . .
H13_10 H 0.414113 0.64073 0.466687 . .
H1_11 H 0.0784882 0.156821 7.00945e-05 . .
H9_11 H 0.0365617 0.518281 0.0870329 . .
H11_11 H 0.226617 0.64073 0.466687 . .
H12_11 H 0.226617 0.613308 0.566627 . .
H13_11 H 0.226617 0.585887 0.466687 . .
H8_11 H 0.981719 0.518281 0.0870329 . .
H10_11 H 0.981719 0.463438 0.0870329 . .
H8_12 H 0.536562 0.0182808 0.0870329 . .
H10_12 H 0.481719 0.0182808 0.0870329 . .
H1_12 H 0.0783324 0.921512 7.00945e-05 . .
H9_12 H 0.481719 0.963438 0.0870329 . .
H11_12 H 0.414113 0.773383 0.466687 . .
H12_12 H 0.386692 0.773383 0.566627 . .
H13_12 H 0.35927 0.773383 0.466687 . .
loop_
_geom_bond_atom_site_label_1
_geom_bond_atom_site_label_2
_geom_bond_site_symmetry_1
_geom_bond_site_symmetry_2
Co1 Cl1 1_555 1_555
Cl2 Co1 1_555 1_555
P1 Co1 1_555 1_555
N1 P1 1_555 1_555
C1 N1 1_555 1_555
C2 C1 1_555 1_555
C3 C2 1_555 1_555
N2 Co1 1_555 1_555
C4 P1 1_555 1_555
C5 C4 1_555 1_555
C6 C5 1_555 1_555
C7 C6 1_555 1_555
C8 C7 1_555 1_555
C9 C4 1_555 1_555
C10 C7 1_555 1_555
O1 C10 1_555 1_555
O2 C10 1_555 1_555
Zr1 O3 1_555 1_555
Zr2 O3 1_555 1_555
O3 Zr10 1_555 1_555
O4 Zr2 1_555 1_555
O5 Zr2 1_555 1_555
C11 O5 1_555 1_555
C12 C11 1_555 1_555
O6 C13 1_555 1_555
C13 C14 1_555 1_555
C24 P1 1_555 1_555
C25 C24 1_555 1_555
C26 C25 1_555 1_555
C27 C26 1_555 1_555
C28 C27 1_555 1_555
C29 C24 1_555 1_555
C30 C27 1_555 1_555
O9 C30 1_555 1_555
O10 Zr1 1_555 1_555
O13 C11 1_555 1_555
O14 Zr2 1_555 1_555
Zr3 O15 1_555 1_555
O15 Zr5 1_555 1_555
O16 Zr1 1_555 1_555
Cl3 Co1 1_555 1_555
O17 Zr3 1_555 1_555
O18 Zr2 1_555 1_555
O19 Zr2 1_555 1_555
O20 Zr3 1_555 1_555
O21 Zr1 1_555 1_555
O22 Zr1 1_555 1_555
O23 Zr1 1_555 1_555
Zr5 O4 1_555 1_555
Zr7 O2 1_555 1_555
Zr10 O6 1_555 1_555
Zr11 O4 1_555 1_555
Zr12 O1 1_555 1_555
O24 Zr2 1_555 1_555
O25 Zr1 1_555 1_555
O26 Zr3 1_555 1_555
O27 Zr1 1_555 1_555
O28 Zr3 1_555 1_555
O29 Zr3 1_555 1_555
C1 N2 1_555 1_555
C8 C9 1_555 1_555
Zr2 O27 1_555 1_555
C13 O14 1_555 1_555
C28 C29 1_555 1_555
C30 O10 1_555 1_555
O9 Zr11 1_555 1_555
O13 Zr11 1_555 1_555
Zr3 O16 1_555 1_555
Zr3 O25 1_555 1_555
O15 Zr11 1_555 1_555
O16 Zr10 1_555 1_555
Zr5 O24 1_555 1_555
Zr5 O26 1_555 1_555
Zr10 O24 1_555 1_555
Zr10 O26 1_555 1_555
Zr11 O25 1_555 1_555
Zr11 O27 1_555 1_555
N1 H2 1_555 1_555
C2 H3 1_555 1_555
C5 H4 1_555 1_555
C8 H5 1_555 1_555
C6 H6 1_555 1_555
C9 H7 1_555 1_555
C14 H8 1_555 1_555
C14 H9 1_555 1_555
C14 H10 1_555 1_555
C12 H11 1_555 1_555
C12 H12 1_555 1_555
C12 H13 1_555 1_555
C25 H19 1_555 1_555
C28 H21 1_555 1_555
C29 H24 1_555 1_555
C26 H27 1_555 1_555
Co1_2 Cl1_2 1_555 1_555
Cl2_2 Co1_2 1_555 1_555
N2_2 Co1_2 1_555 1_555
P2 Co1_2 1_555 1_555
N3 P2 1_555 1_555
C15 N2_2 1_555 1_555
C16 C3_2 1_555 1_555
C17 P2 1_555 1_555
C18 C17 1_555 1_555
C19 C18 1_555 1_555
C20 C19 1_555 1_555
C21 C20 1_555 1_555
C22 C17 1_555 1_555
C23 C20 1_555 1_555
O7 C23 1_555 1_555
O8 C23 1_555 1_555
C31 P2 1_555 1_555
C32 C31 1_555 1_555
C33 C32 1_555 1_555
C34 C33 1_555 1_555
C35 C34 1_555 1_555
C36 C31 1_555 1_555
C37 C34 1_555 1_555
O19 C37 1_555 1_555
O23 C37 1_555 1_555
Cl3_2 Co1_2 1_555 1_555
Zr7 O8 1_555 1_555
Zr9 O7 1_555 1_555
N3 C15 1_555 1_555
C15 C16 1_555 1_555
C21 C22 1_555 1_555
C35 C36 1_555 1_555
C3_2 H1 1_555 1_555
N3 H14 1_555 1_555
C16 H15 1_555 1_555
C18 H16 1_555 1_555
C19 H17 1_555 1_555
C21 H18 1_555 1_555
C32 H20 1_555 1_555
C33 H22 1_555 1_555
C35 H23 1_555 1_555
C36 H25 1_555 1_555
C22 H26 1_555 1_555
Zr1_2 O3_2 1_555 1_555
O3_2 Zr10_2 1_555 1_555
O6_2 C13_2 1_555 1_555
C13_2 C14_2 1_555 1_555
Zr3_2 O15_2 1_555 1_555
O15_2 Zr5_2 1_555 1_555
O16_2 Zr1_2 1_555 1_555
O17_2 Zr3_2 1_555 1_555
O20_2 Zr3_2 1_555 1_555
O21_2 Zr1_2 1_555 1_555
O22_2 Zr1_2 1_555 1_555
Zr10_2 O6_2 1_555 1_555
O25_2 Zr1_2 1_555 1_555
O26_2 Zr3_2 1_555 1_555
O28_2 Zr3_2 1_555 1_555
O29_2 Zr3_2 1_555 1_555
Zr3_2 O16_2 1_555 1_555
Zr3_2 O25_2 1_555 1_555
O16_2 Zr10_2 1_555 1_555
Zr5_2 O24_2 1_555 1_555
Zr5_2 O26_2 1_555 1_555
Zr10_2 O24_2 1_555 1_555
Zr10_2 O26_2 1_555 1_555
C14_2 H8_2 1_555 1_555
C14_2 H10_2 1_555 1_555
Co1_3 Cl1_3 1_555 1_555
Cl2_3 Co1_3 1_555 1_555
P1_2 Co1_3 1_555 1_555
N1_2 P1_2 1_555 1_555
C1_2 N1_2 1_555 1_555
C2_2 C1_2 1_555 1_555
C3_3 C2_2 1_555 1_555
N2_3 Co1_3 1_555 1_555
C4_2 P1_2 1_555 1_555
C5_2 C4_2 1_555 1_555
C6_2 C5_2 1_555 1_555
C7_2 C6_2 1_555 1_555
C8_2 C7_2 1_555 1_555
C9_2 C4_2 1_555 1_555
C10_2 C7_2 1_555 1_555
O1_2 C10_2 1_555 1_555
O2_2 C10_2 1_555 1_555
Zr1_3 O3_3 1_555 1_555
Zr2_2 O3_3 1_555 1_555
O4_2 Zr2_2 1_555 1_555
O5_2 Zr2_2 1_555 1_555
C11_2 O5_2 1_555 1_555
C12_2 C11_2 1_555 1_555
C13_3 C14_3 1_555 1_555
C24_2 P1_2 1_555 1_555
C25_2 C24_2 1_555 1_555
C26_2 C25_2 1_555 1_555
C27_2 C26_2 1_555 1_555
C28_2 C27_2 1_555 1_555
C29_2 C24_2 1_555 1_555
C30_2 C27_2 1_555 1_555
O9_2 C30_2 1_555 1_555
O10_2 Zr1_3 1_555 1_555
O13_2 C11_2 1_555 1_555
O14_2 Zr2_2 1_555 1_555
O15_3 Zr5_3 1_555 1_555
Cl3_3 Co1_3 1_555 1_555
O18_2 Zr2_2 1_555 1_555
O19_2 Zr2_2 1_555 1_555
O23_2 Zr1_3 1_555 1_555
Zr5_3 O4_2 1_555 1_555
Zr5 O2_2 1_555 1_555
Zr11_2 O4_2 1_555 1_555
Zr11 O1_2 1_555 1_555
O24_3 Zr2_2 1_555 1_555
O25_3 Zr1_3 1_555 1_555
O27_2 Zr1_3 1_555 1_555
C1_2 N2_3 1_555 1_555
C8_2 C9_2 1_555 1_555
Zr2_2 O27_2 1_555 1_555
C13_3 O14_2 1_555 1_555
C28_2 C29_2 1_555 1_555
C30_2 O10_2 1_555 1_555
O9_2 Zr11_2 1_555 1_555
O13_2 Zr11_2 1_555 1_555
O15_3 Zr11_2 1_555 1_555
Zr5_3 O24_3 1_555 1_555
Zr11_2 O25_3 1_555 1_555
Zr11_2 O27_2 1_555 1_555
N1_2 H2_2 1_555 1_555
C2_2 H3_2 1_555 1_555
C5_2 H4_2 1_555 1_555
C8_2 H5_2 1_555 1_555
C6_2 H6_2 1_555 1_555
C9_2 H7_2 1_555 1_555
C14_3 H9_2 1_555 1_555
C12_2 H11_2 1_555 1_555
C12_2 H12_2 1_555 1_555
C12_2 H13_2 1_555 1_555
C25_2 H19_2 1_555 1_555
C28_2 H21_2 1_555 1_555
C29_2 H24_2 1_555 1_555
C26_2 H27_2 1_555 1_555
Co1_4 Cl1_4 1_555 1_555
Cl2_4 Co1_4 1_555 1_555
N2_4 Co1_4 1_555 1_555
P2_2 Co1_4 1_555 1_555
N3_2 P2_2 1_555 1_555
C15_2 N2_4 1_555 1_555
C16_2 C3_4 1_555 1_555
C17_2 P2_2 1_555 1_555
C18_2 C17_2 1_555 1_555
C19_2 C18_2 1_555 1_555
C20_2 C19_2 1_555 1_555
C21_2 C20_2 1_555 1_555
C22_2 C17_2 1_555 1_555
C23_2 C20_2 1_555 1_555
O18 C23_2 1_555 1_555
O8_2 C23_2 1_555 1_555
C31_2 P2_2 1_555 1_555
C32_2 C31_2 1_555 1_555
C33_2 C32_2 1_555 1_555
C34_2 C33_2 1_555 1_555
C35_2 C34_2 1_555 1_555
C36_2 C31_2 1_555 1_555
C37_2 C34_2 1_555 1_555
O19_2 C37_2 1_555 1_555
O23_2 C37_2 1_555 1_555
Cl3_4 Co1_4 1_555 1_555
Zr5 O8_2 1_555 1_555
N3_2 C15_2 1_555 1_555
C15_2 C16_2 1_555 1_555
C21_2 C22_2 1_555 1_555
C35_2 C36_2 1_555 1_555
C3_4 H1_2 1_555 1_555
N3_2 H14_2 1_555 1_555
C16_2 H15_2 1_555 1_555
C18_2 H16_2 1_555 1_555
C19_2 H17_2 1_555 1_555
C21_2 H18_2 1_555 1_555
C32_2 H20_2 1_555 1_555
C33_2 H22_2 1_555 1_555
C35_2 H23_2 1_555 1_555
C36_2 H25_2 1_555 1_555
C22_2 H26_2 1_555 1_555
Co1_5 Cl1_5 1_555 1_555
Cl2_5 Co1_5 1_555 1_555
P1_3 Co1_5 1_555 1_555
N1_3 P1_3 1_555 1_555
C1_3 N1_3 1_555 1_555
C2_3 C1_3 1_555 1_555
C3_5 C2_3 1_555 1_555
N2_5 Co1_5 1_555 1_555
C4_3 P1_3 1_555 1_555
C5_3 C4_3 1_555 1_555
C6_3 C5_3 1_555 1_555
C7_3 C6_3 1_555 1_555
C8_3 C7_3 1_555 1_555
C9_3 C4_3 1_555 1_555
C10_3 C7_3 1_555 1_555
O1_3 C10_3 1_555 1_555
O2_3 C10_3 1_555 1_555
Zr1_4 O3_4 1_555 1_555
Zr9 O3_4 1_555 1_555
O4_3 Zr9 1_555 1_555
O5_3 Zr9 1_555 1_555
C11_3 O5_3 1_555 1_555
C12_3 C11_3 1_555 1_555
C13_4 C14_4 1_555 1_555
C24_3 P1_3 1_555 1_555
C25_3 C24_3 1_555 1_555
C26_3 C25_3 1_555 1_555
C27_3 C26_3 1_555 1_555
C28_3 C27_3 1_555 1_555
C29_3 C24_3 1_555 1_555
C30_3 C27_3 1_555 1_555
O9_3 C30_3 1_555 1_555
O10_3 Zr1_4 1_555 1_555
O13_3 C11_3 1_555 1_555
O14_3 Zr9 1_555 1_555
O15_4 Zr7 1_555 1_555
Cl3_5 Co1_5 1_555 1_555
O19_3 Zr9 1_555 1_555
O23_3 Zr1_4 1_555 1_555
Zr7 O4_3 1_555 1_555
Zr5_3 O2_3 1_555 1_555
Zr12 O4_3 1_555 1_555
Zr11_2 O1_3 1_555 1_555
O24_4 Zr9 1_555 1_555
O25_4 Zr1_4 1_555 1_555
O27_3 Zr1_4 1_555 1_555
C1_3 N2_5 1_555 1_555
C8_3 C9_3 1_555 1_555
Zr9 O27_3 1_555 1_555
C13_4 O14_3 1_555 1_555
C28_3 C29_3 1_555 1_555
C30_3 O10_3 1_555 1_555
O9_3 Zr12 1_555 1_555
O13_3 Zr12 1_555 1_555
O15_4 Zr12 1_555 1_555
Zr7 O24_4 1_555 1_555
Zr12 O25_4 1_555 1_555
Zr12 O27_3 1_555 1_555
N1_3 H2_3 1_555 1_555
C2_3 H3_3 1_555 1_555
C5_3 H4_3 1_555 1_555
C8_3 H5_3 1_555 1_555
C6_3 H6_3 1_555 1_555
C9_3 H7_3 1_555 1_555
C14_4 H9_3 1_555 1_555
C12_3 H11_3 1_555 1_555
C12_3 H12_3 1_555 1_555
C12_3 H13_3 1_555 1_555
C25_3 H19_3 1_555 1_555
C28_3 H21_3 1_555 1_555
C29_3 H24_3 1_555 1_555
C26_3 H27_3 1_555 1_555
Co1_6 Cl1_6 1_555 1_555
Cl2_6 Co1_6 1_555 1_555
N2_6 Co1_6 1_555 1_555
P2_3 Co1_6 1_555 1_555
N3_3 P2_3 1_555 1_555
C15_3 N2_6 1_555 1_555
C16_3 C3_6 1_555 1_555
C17_3 P2_3 1_555 1_555
C18_3 C17_3 1_555 1_555
C19_3 C18_3 1_555 1_555
C20_3 C19_3 1_555 1_555
C21_3 C20_3 1_555 1_555
C22_3 C17_3 1_555 1_555
C23_3 C20_3 1_555 1_555
O18_2 C23_3 1_555 1_555
O8_3 C23_3 1_555 1_555
C31_3 P2_3 1_555 1_555
C32_3 C31_3 1_555 1_555
C33_3 C32_3 1_555 1_555
C34_3 C33_3 1_555 1_555
C35_3 C34_3 1_555 1_555
C36_3 C31_3 1_555 1_555
C37_3 C34_3 1_555 1_555
O19_3 C37_3 1_555 1_555
O23_3 C37_3 1_555 1_555
Cl3_6 Co1_6 1_555 1_555
Zr5_3 O8_3 1_555 1_555
N3_3 C15_3 1_555 1_555
C15_3 C16_3 1_555 1_555
C21_3 C22_3 1_555 1_555
C35_3 C36_3 1_555 1_555
C3_6 H1_3 1_555 1_555
N3_3 H14_3 1_555 1_555
C16_3 H15_3 1_555 1_555
C18_3 H16_3 1_555 1_555
C19_3 H17_3 1_555 1_555
C21_3 H18_3 1_555 1_555
C32_3 H20_3 1_555 1_555
C33_3 H22_3 1_555 1_555
C35_3 H23_3 1_555 1_555
C36_3 H25_3 1_555 1_555
C22_3 H26_3 1_555 1_555
Zr1_5 O3_5 1_555 1_555
O3_5 Zr10_3 1_555 1_555
O6_3 C13_5 1_555 1_555
C13_5 C14_5 1_555 1_555
Zr3_3 O15_5 1_555 1_555
O15_5 Zr7_2 1_555 1_555
O16_3 Zr1_5 1_555 1_555
O17_3 Zr3_3 1_555 1_555
O20_3 Zr3_3 1_555 1_555
O21_3 Zr1_5 1_555 1_555
O22_3 Zr1_5 1_555 1_555
Zr10_3 O6_3 1_555 1_555
O25_5 Zr1_5 1_555 1_555
O26_3 Zr3_3 1_555 1_555
O28_3 Zr3_3 1_555 1_555
O29_3 Zr3_3 1_555 1_555
Zr3_3 O16_3 1_555 1_555
Zr3_3 O25_5 1_555 1_555
O16_3 Zr10_3 1_555 1_555
Zr7_2 O24_5 1_555 1_555
Zr7_2 O26_3 1_555 1_555
Zr10_3 O24_5 1_555 1_555
Zr10_3 O26_3 1_555 1_555
C14_5 H8_3 1_555 1_555
C14_5 H10_3 1_555 1_555
Co1_7 Cl1_7 1_555 1_555
Cl2_7 Co1_7 1_555 1_555
P1_4 Co1_7 1_555 1_555
N1_4 P1_4 1_555 1_555
C1_4 N1_4 1_555 1_555
C2_4 C1_4 1_555 1_555
C3_7 C2_4 1_555 1_555
N2_7 Co1_7 1_555 1_555
C4_4 P1_4 1_555 1_555
C5_4 C4_4 1_555 1_555
C6_4 C5_4 1_555 1_555
C7_4 C6_4 1_555 1_555
C8_4 C7_4 1_555 1_555
C9_4 C4_4 1_555 1_555
C10_4 C7_4 1_555 1_555
O17_3 C10_4 1_555 1_555
O22_3 C10_4 1_555 1_555
O5_4 Zr10 1_555 1_555
C11_4 O5_4 1_555 1_555
C12_4 C11_4 1_555 1_555
C24_4 P1_4 1_555 1_555
C25_4 C24_4 1_555 1_555
C26_4 C25_4 1_555 1_555
C27_4 C26_4 1_555 1_555
C28_4 C27_4 1_555 1_555
C29_4 C24_4 1_555 1_555
C30_4 C27_4 1_555 1_555
O20 C30_4 1_555 1_555
O10_4 Zr5 1_555 1_555
O28 C11_4 1_555 1_555
Cl3_7 Co1_7 1_555 1_555
O18_3 Zr10 1_555 1_555
O19_4 Zr10 1_555 1_555
O23_4 Zr5 1_555 1_555
O29_4 Zr11 1_555 1_555
C1_4 N2_7 1_555 1_555
C8_4 C9_4 1_555 1_555
C28_4 C29_4 1_555 1_555
C30_4 O10_4 1_555 1_555
N1_4 H2_4 1_555 1_555
C2_4 H3_4 1_555 1_555
C5_4 H4_4 1_555 1_555
C8_4 H5_4 1_555 1_555
C6_4 H6_4 1_555 1_555
C9_4 H7_4 1_555 1_555
C14 H8_4 1_555 1_555
C14 H9_4 1_555 1_555
C14 H10_4 1_555 1_555
C12_4 H11_4 1_555 1_555
C12_4 H12_4 1_555 1_555
C12_4 H13_4 1_555 1_555
C25_4 H19_4 1_555 1_555
C28_4 H21_4 1_555 1_555
C29_4 H24_4 1_555 1_555
C26_4 H27_4 1_555 1_555
Co1_8 Cl1_8 1_555 1_555
Cl2_8 Co1_8 1_555 1_555
N2_8 Co1_8 1_555 1_555
P2_4 Co1_8 1_555 1_555
N3_4 P2_4 1_555 1_555
C15_4 N2_8 1_555 1_555
C16_4 C3_8 1_555 1_555
C17_4 P2_4 1_555 1_555
C18_4 C17_4 1_555 1_555
C19_4 C18_4 1_555 1_555
C20_4 C19_4 1_555 1_555
C21_4 C20_4 1_555 1_555
C22_4 C17_4 1_555 1_555
C23_4 C20_4 1_555 1_555
O7_2 C23_4 1_555 1_555
O21_3 C23_4 1_555 1_555
C31_4 P2_4 1_555 1_555
C32_4 C31_4 1_555 1_555
C33_4 C32_4 1_555 1_555
C34_4 C33_4 1_555 1_555
C35_4 C34_4 1_555 1_555
C36_4 C31_4 1_555 1_555
C37_4 C34_4 1_555 1_555
O19_4 C37_4 1_555 1_555
O23_4 C37_4 1_555 1_555
Cl3_8 Co1_8 1_555 1_555
Zr10_3 O7_2 1_555 1_555
N3_4 C15_4 1_555 1_555
C15_4 C16_4 1_555 1_555
C21_4 C22_4 1_555 1_555
C35_4 C36_4 1_555 1_555
C3_8 H1_4 1_555 1_555
N3_4 H14_4 1_555 1_555
C16_4 H15_4 1_555 1_555
C18_4 H16_4 1_555 1_555
C19_4 H17_4 1_555 1_555
C21_4 H18_4 1_555 1_555
C32_4 H20_4 1_555 1_555
C33_4 H22_4 1_555 1_555
C35_4 H23_4 1_555 1_555
C36_4 H25_4 1_555 1_555
C22_4 H26_4 1_555 1_555
Co1_9 Cl1_9 1_555 1_555
Cl2_9 Co1_9 1_555 1_555
P1_5 Co1_9 1_555 1_555
N1_5 P1_5 1_555 1_555
C1_5 N1_5 1_555 1_555
C2_5 C1_5 1_555 1_555
C3_9 C2_5 1_555 1_555
N2_9 Co1_9 1_555 1_555
C4_5 P1_5 1_555 1_555
C5_5 C4_5 1_555 1_555
C6_5 C5_5 1_555 1_555
C7_5 C6_5 1_555 1_555
C8_5 C7_5 1_555 1_555
C9_5 C4_5 1_555 1_555
C10_5 C7_5 1_555 1_555
O17 C10_5 1_555 1_555
O22 C10_5 1_555 1_555
O5_5 Zr10_2 1_555 1_555
C11_5 O5_5 1_555 1_555
C12_5 C11_5 1_555 1_555
C24_5 P1_5 1_555 1_555
C25_5 C24_5 1_555 1_555
C26_5 C25_5 1_555 1_555
C27_5 C26_5 1_555 1_555
C28_5 C27_5 1_555 1_555
C29_5 C24_5 1_555 1_555
C30_5 C27_5 1_555 1_555
O20_2 C30_5 1_555 1_555
O10_5 Zr5_2 1_555 1_555
O28_2 C11_5 1_555 1_555
Cl3_9 Co1_9 1_555 1_555
O18_4 Zr10_2 1_555 1_555
O19_5 Zr10_2 1_555 1_555
O23_5 Zr5_2 1_555 1_555
C1_5 N2_9 1_555 1_555
C8_5 C9_5 1_555 1_555
C28_5 C29_5 1_555 1_555
C30_5 O10_5 1_555 1_555
N1_5 H2_5 1_555 1_555
C2_5 H3_5 1_555 1_555
C5_5 H4_5 1_555 1_555
C8_5 H5_5 1_555 1_555
C6_5 H6_5 1_555 1_555
C9_5 H7_5 1_555 1_555
C14_2 H9_5 1_555 1_555
C12_5 H11_5 1_555 1_555
C12_5 H12_5 1_555 1_555
C12_5 H13_5 1_555 1_555
C25_5 H19_5 1_555 1_555
C28_5 H21_5 1_555 1_555
C29_5 H24_5 1_555 1_555
C26_5 H27_5 1_555 1_555
Co1_10 Cl1_10 1_555 1_555
Cl2_10 Co1_10 1_555 1_555
N2_10 Co1_10 1_555 1_555
P2_5 Co1_10 1_555 1_555
N3_5 P2_5 1_555 1_555
C15_5 N2_10 1_555 1_555
C16_5 C3_10 1_555 1_555
C17_5 P2_5 1_555 1_555
C18_5 C17_5 1_555 1_555
C19_5 C18_5 1_555 1_555
C20_5 C19_5 1_555 1_555
C21_5 C20_5 1_555 1_555
C22_5 C17_5 1_555 1_555
C23_5 C20_5 1_555 1_555
O18_3 C23_5 1_555 1_555
O21 C23_5 1_555 1_555
C31_5 P2_5 1_555 1_555
C32_5 C31_5 1_555 1_555
C33_5 C32_5 1_555 1_555
C34_5 C33_5 1_555 1_555
C35_5 C34_5 1_555 1_555
C36_5 C31_5 1_555 1_555
C37_5 C34_5 1_555 1_555
O19_5 C37_5 1_555 1_555
O23_5 C37_5 1_555 1_555
Cl3_10 Co1_10 1_555 1_555
N3_5 C15_5 1_555 1_555
C15_5 C16_5 1_555 1_555
C21_5 C22_5 1_555 1_555
C35_5 C36_5 1_555 1_555
C3_10 H1_5 1_555 1_555
N3_5 H14_5 1_555 1_555
C16_5 H15_5 1_555 1_555
C18_5 H16_5 1_555 1_555
C19_5 H17_5 1_555 1_555
C21_5 H18_5 1_555 1_555
C32_5 H20_5 1_555 1_555
C33_5 H22_5 1_555 1_555
C35_5 H23_5 1_555 1_555
C36_5 H25_5 1_555 1_555
C22_5 H26_5 1_555 1_555
O29_5 Zr11_2 1_555 1_555
C14_3 H8_5 1_555 1_555
C14_3 H10_5 1_555 1_555
O29_6 Zr12 1_555 1_555
C14_4 H8_6 1_555 1_555
C14_4 H10_6 1_555 1_555
Co1_11 Cl1_11 1_555 1_555
Cl2_11 Co1_11 1_555 1_555
P1_6 Co1_11 1_555 1_555
N1_6 P1_6 1_555 1_555
C1_6 N1_6 1_555 1_555
C2_6 C1_6 1_555 1_555
C3_11 C2_6 1_555 1_555
N2_11 Co1_11 1_555 1_555
C4_6 P1_6 1_555 1_555
C5_6 C4_6 1_555 1_555
C6_6 C5_6 1_555 1_555
C7_6 C6_6 1_555 1_555
C8_6 C7_6 1_555 1_555
C9_6 C4_6 1_555 1_555
C10_6 C7_6 1_555 1_555
O17_2 C10_6 1_555 1_555
O22_2 C10_6 1_555 1_555
O5_6 Zr10_3 1_555 1_555
C11_6 O5_6 1_555 1_555
C12_6 C11_6 1_555 1_555
C24_6 P1_6 1_555 1_555
C25_6 C24_6 1_555 1_555
C26_6 C25_6 1_555 1_555
C27_6 C26_6 1_555 1_555
C28_6 C27_6 1_555 1_555
C29_6 C24_6 1_555 1_555
C30_6 C27_6 1_555 1_555
O20_3 C30_6 1_555 1_555
O10_6 Zr7_2 1_555 1_555
O28_3 C11_6 1_555 1_555
Cl3_11 Co1_11 1_555 1_555
O19_6 Zr10_3 1_555 1_555
O23_6 Zr7_2 1_555 1_555
C1_6 N2_11 1_555 1_555
C8_6 C9_6 1_555 1_555
C28_6 C29_6 1_555 1_555
C30_6 O10_6 1_555 1_555
N1_6 H2_6 1_555 1_555
C2_6 H3_6 1_555 1_555
C5_6 H4_6 1_555 1_555
C8_6 H5_6 1_555 1_555
C6_6 H6_6 1_555 1_555
C9_6 H7_6 1_555 1_555
C14_5 H9_6 1_555 1_555
C12_6 H11_6 1_555 1_555
C12_6 H12_6 1_555 1_555
C12_6 H13_6 1_555 1_555
C25_6 H19_6 1_555 1_555
C28_6 H21_6 1_555 1_555
C29_6 H24_6 1_555 1_555
C26_6 H27_6 1_555 1_555
Co1_12 Cl1_12 1_555 1_555
Cl2_12 Co1_12 1_555 1_555
N2_12 Co1_12 1_555 1_555
P2_6 Co1_12 1_555 1_555
N3_6 P2_6 1_555 1_555
C15_6 N2_12 1_555 1_555
C16_6 C3_12 1_555 1_555
C17_6 P2_6 1_555 1_555
C18_6 C17_6 1_555 1_555
C19_6 C18_6 1_555 1_555
C20_6 C19_6 1_555 1_555
C21_6 C20_6 1_555 1_555
C22_6 C17_6 1_555 1_555
C23_6 C20_6 1_555 1_555
O18_4 C23_6 1_555 1_555
O21_2 C23_6 1_555 1_555
C31_6 P2_6 1_555 1_555
C32_6 C31_6 1_555 1_555
C33_6 C32_6 1_555 1_555
C34_6 C33_6 1_555 1_555
C35_6 C34_6 1_555 1_555
C36_6 C31_6 1_555 1_555
C37_6 C34_6 1_555 1_555
O19_6 C37_6 1_555 1_555
O23_6 C37_6 1_555 1_555
Cl3_12 Co1_12 1_555 1_555
N3_6 C15_6 1_555 1_555
C15_6 C16_6 1_555 1_555
C21_6 C22_6 1_555 1_555
C35_6 C36_6 1_555 1_555
C3_12 H1_6 1_555 1_555
N3_6 H14_6 1_555 1_555
C16_6 H15_6 1_555 1_555
C18_6 H16_6 1_555 1_555
C19_6 H17_6 1_555 1_555
C21_6 H18_6 1_555 1_555
C32_6 H20_6 1_555 1_555
C33_6 H22_6 1_555 1_555
C35_6 H23_6 1_555 1_555
C36_6 H25_6 1_555 1_555
C22_6 H26_6 1_555 1_555
C3_9 H1_7 1_555 1_555
O29_4 C13_6 1_555 1_555
C13_6 C14_6 1_555 1_555
C13_6 O29 1_555 1_555
C14_6 H8_7 1_555 1_555
C14_6 H9_7 1_555 1_555
C14_6 H10_7 1_555 1_555
C12_4 H11_7 1_555 1_555
C12_4 H12_7 1_555 1_555
C12_4 H13_7 1_555 1_555
O29_6 C13_7 1_555 1_555
C13_7 C14_7 1_555 1_555
C14_7 H8_8 1_555 1_555
C14_7 H10_8 1_555 1_555
C3_7 H1_8 1_555 1_555
C13_8 C14_8 1_555 1_555
C13_8 O29_3 1_555 1_555
C14_8 H9_8 1_555 1_555
C12_6 H11_8 1_555 1_555
C12_6 H12_8 1_555 1_555
C12_6 H13_8 1_555 1_555
C3_11 H1_9 1_555 1_555
C13_9 C14_9 1_555 1_555
C13_9 O29_2 1_555 1_555
C14_9 H9_9 1_555 1_555
C12_5 H11_9 1_555 1_555
C12_5 H12_9 1_555 1_555
C12_5 H13_9 1_555 1_555
O29_5 C13_10 1_555 1_555
C13_10 C14_10 1_555 1_555
C14_10 H8_9 1_555 1_555
C14_10 H10_9 1_555 1_555
C3_3 H1_10 1_555 1_555
C14_6 H8_10 1_555 1_555
C14_6 H9_10 1_555 1_555
C14_6 H10_10 1_555 1_555
C12 H11_10 1_555 1_555
C12 H12_10 1_555 1_555
C12 H13_10 1_555 1_555
C3 H1_11 1_555 1_555
C14_7 H9_11 1_555 1_555
C12_3 H11_11 1_555 1_555
C12_3 H12_11 1_555 1_555
C12_3 H13_11 1_555 1_555
C14_8 H8_11 1_555 1_555
C14_8 H10_11 1_555 1_555
C14_9 H8_12 1_555 1_555
C14_9 H10_12 1_555 1_555
C3_5 H1_12 1_555 1_555
C14_10 H9_12 1_555 1_555
C12_2 H11_12 1_555 1_555
C12_2 H12_12 1_555 1_555
C12_2 H13_12 1_555 1_555

#END
