
###############################################################################
#
# This file contains modified crystal structure data generated from the
# MOF subset of the Cambridge Structural Database (CSD) v543 
# hosted by the Cambridge Crystallographic Data Centre (CCDC).
#
# This work is licensed under the Creative Commons
# Attribution-NonCommercial-ShareAlike 4.0 International License.
# To view a copy of this license, visit
# http://creativecommons.org/licenses/by-nc-sa/4.0/
# or send a letter to
# Creative Commons, PO Box 1866, Mountain View, CA 94042, USA.
#
# CIF created using the CSD Python API on 29 September 2022
# The structure has been converted into the P1 space group
# The structure has a 3D framework
# The original CSD entry TODLEG is in the orthorhombic crystal system
# The original CSD entry TODLEG is in a Sohncke space group
# The framework has been calculated to contain at least 10.0% void space
# The void calculation uses a probe of radius 1.32A, grid spacing 0.4
# H atom positions have been added when not included in the experimental data
# Generated hydrogen atom positions removed from atoms on special positions
#
###############################################################################

data_TODLEG
_chemical_formula_moiety         '(C76 H138 Cu16 O80)n'
_symmetry_cell_setting           triclinic
_symmetry_space_group_name_H-M   'P 1'
_symmetry_Int_Tables_number      1
_space_group_name_Hall           'P 1'
loop_
_symmetry_equiv_pos_site_id
_symmetry_equiv_pos_as_xyz
1 x,y,z
_cell_length_a                   6.97316(18)
_cell_length_b                   28.3906(6)
_cell_length_c                   17.3886(4)
_cell_angle_alpha                90
_cell_angle_beta                 90
_cell_angle_gamma                90
_cell_volume                     3442.46
loop_
_atom_site_label
_atom_site_type_symbol
_atom_site_fract_x
_atom_site_fract_y
_atom_site_fract_z
Cu9 Cu 0.24012(10) 0.81851(2) 0.19044(3)
Cu12 Cu 0.24012(10) 0.18149(2) 0.80956(3)
Cu1 Cu 0.74012(10) 0.31851(2) 0.69044(3)
Cu2 Cu 0.66498(11) 0.37467(2) 0.86076(3)
O1 O 0.7462(12) 0.30496(15) 0.5797(2)
O2 O 0.5697(14) 0.42898(19) 0.9249(3)
O3 O 0.8309(8) 0.25553(14) 0.7070(2)
O4 O 0.9147(7) 0.20485(14) 0.7967(3)
O5 O 0.7754(6) 0.32598(12) 0.7996(2)
O6 O 0.7313(8) 0.34638(14) 0.9581(2)
C1 C 0.8675(8) 0.24546(19) 0.7762(3)
C2 C 0.8516(8) 0.28519(17) 0.8356(3)
H1 H 0.9837 0.2928 0.8542
C3 C 0.7339(9) 0.26854(18) 0.9043(3)
H2 H 0.5989 0.2645 0.8881
H3 H 0.7824 0.2374 0.9212
C4 C 0.7408(9) 0.30215(19) 0.9713(3)
O8 O 0.6587(7) 0.38113(12) 0.6653(2)
O9 O 0.6246(7) 0.41887(13) 0.7777(2)
C5 C 0.6180(7) 0.41649(17) 0.7056(3)
C6 C 0.5549(8) 0.45984(16) 0.6633(3)
C7 C 0.5000 0.5000 0.7033(4)
H4 H 0.5000 0.5000 0.7579
C8 C 0.5531(7) 0.45974(17) 0.5831(3)
H5 H 0.5883 0.4320 0.5560
C9 C 0.5000 0.5000 0.5425(4)
O10 O 0.3488(7) 0.34644(17) 0.8442(3)
O11 O 0.3413(7) 0.61887(12) 0.6653(2)
O12 O 0.3754(7) 0.58113(13) 0.7777(2)
C10 C 0.3820(7) 0.58351(17) 0.7056(3)
C11 C 0.4451(8) 0.54016(16) 0.6633(3)
C12 C 0.4469(7) 0.54026(17) 0.5831(3)
H6 H 0.4117 0.5680 0.5560
O13 O 0.3413(7) 0.38113(12) 0.3347(2)
O14 O 0.3754(7) 0.41887(13) 0.2223(2)
C13 C 0.3820(7) 0.41649(17) 0.2944(3)
C14 C 0.4451(8) 0.45984(16) 0.3367(3)
C15 C 0.5000 0.5000 0.2967(4)
H7 H 0.5000 0.5000 0.2421
C16 C 0.4469(7) 0.45974(17) 0.4169(3)
H8 H 0.4117 0.4320 0.4440
C17 C 0.5000 0.5000 0.4575(4)
O15 O 0.6587(7) 0.61887(12) 0.3347(2)
O16 O 0.6246(7) 0.58113(13) 0.2223(2)
C18 C 0.6180(7) 0.58351(17) 0.2944(3)
C19 C 0.5549(8) 0.54016(16) 0.3367(3)
C20 C 0.5531(7) 0.54026(17) 0.4169(3)
H9 H 0.5883 0.5680 0.4440
Cu3 Cu 0.25988(10) 0.68149(2) 0.69044(3)
Cu4 Cu 0.33502(11) 0.62533(2) 0.86076(3)
O17 O 0.2538(12) 0.69504(15) 0.5797(2)
O18 O 0.4303(14) 0.57102(19) 0.9249(3)
O19 O 0.1691(8) 0.74447(14) 0.7070(2)
O20 O 0.0853(7) 0.79515(14) 0.7967(3)
O21 O 0.2246(6) 0.67402(12) 0.7996(2)
O22 O 0.2687(8) 0.65362(14) 0.9581(2)
C21 C 0.1325(8) 0.75454(19) 0.7762(3)
C22 C 0.1484(8) 0.71481(17) 0.8356(3)
H10 H 0.0163 0.7072 0.8542
C23 C 0.2661(9) 0.73146(18) 0.9043(3)
H11 H 0.4011 0.7355 0.8881
H12 H 0.2176 0.7626 0.9212
C24 C 0.2592(9) 0.69785(19) 0.9713(3)
O24 O 0.6512(7) 0.65356(17) 0.8442(3)
Cu5 Cu 0.25988(10) 0.31851(2) 0.30956(3)
Cu6 Cu 0.33502(11) 0.37467(2) 0.13924(3)
O25 O 0.2538(12) 0.30496(15) 0.4203(2)
O26 O 0.4303(14) 0.42898(19) 0.0751(3)
O27 O 0.1691(8) 0.25553(14) 0.2930(2)
O28 O 0.0853(7) 0.20485(14) 0.2033(3)
O29 O 0.2246(6) 0.32598(12) 0.2004(2)
O30 O 0.2687(8) 0.34638(14) 0.0419(2)
C25 C 0.1325(8) 0.24546(19) 0.2238(3)
C26 C 0.1484(8) 0.28519(17) 0.1644(3)
H13 H 0.0163 0.2928 0.1458
C27 C 0.2661(9) 0.26854(18) 0.0957(3)
H14 H 0.4011 0.2645 0.1119
H15 H 0.2176 0.2374 0.0788
C28 C 0.2592(9) 0.30215(19) 0.0287(3)
O32 O 0.6512(7) 0.34644(17) 0.1558(3)
Cu7 Cu 0.74012(10) 0.68149(2) 0.30956(3)
Cu8 Cu 0.66498(11) 0.62533(2) 0.13924(3)
O33 O 0.7462(12) 0.69504(15) 0.4203(2)
O34 O 0.5697(14) 0.57102(19) 0.0751(3)
O35 O 0.8309(8) 0.74447(14) 0.2930(2)
O36 O 0.9147(7) 0.79515(14) 0.2033(3)
O37 O 0.7754(6) 0.67402(12) 0.2004(2)
O38 O 0.7313(8) 0.65362(14) 0.0419(2)
C29 C 0.8675(8) 0.75454(19) 0.2238(3)
C30 C 0.8516(8) 0.71481(17) 0.1644(3)
H16 H 0.9837 0.7072 0.1458
C31 C 0.7339(9) 0.73146(18) 0.0957(3)
H17 H 0.5989 0.7355 0.1119
H18 H 0.7824 0.7626 0.0788
C32 C 0.7408(9) 0.69785(19) 0.0287(3)
O40 O 0.3488(7) 0.65356(17) 0.1558(3)
O41 O 0.4147(7) 0.70485(14) 0.2967(3)
O42 O 0.5853(7) 0.29515(14) 0.2967(3)
O43 O 0.5853(7) 0.70485(14) 0.7033(3)
O44 O 0.4147(7) 0.29515(14) 0.7033(3)
Cu10 Cu 0.75988(10) 0.18149(2) 0.19044(3)
Cu11 Cu 0.75988(10) 0.81851(2) 0.80956(3)
C7_2 C -0.0000 0.0000 0.2033(4)
H4_2 H 0.0000 -0.0000 0.2579
C9_2 C -0.0000 -0.0000 0.0425(4)
O24_2 O 0.1512(7) 0.15356(17) 0.3442(3)
H27 H 0.0619939 0.06239 0.408361
C15_2 C 0.0000 0.0000 0.7967(4)
H7_2 H 0.0000 0.0000 0.7421
C17_2 C 0.0000 0.0000 0.9575(4)
O15_2 O 0.1587(7) 0.11887(12) 0.8347(2)
O16_2 O 0.1246(7) 0.08113(13) 0.7223(2)
C18_2 C 0.1180(7) 0.08351(17) 0.7944(3)
C19_2 C 0.0549(8) 0.04016(16) 0.8367(3)
C20_2 C 0.0531(7) 0.04026(17) 0.9169(3)
H9_2 H 0.0883 0.0680 0.9440
Cu8_2 Cu 0.16498(11) 0.12533(2) 0.63924(3)
O33_2 O 0.2462(12) 0.19504(15) 0.9203(2)
O34_2 O 0.0697(14) 0.07102(19) 0.5751(3)
O35_2 O 0.3309(8) 0.24447(14) 0.7930(2)
O37_2 O 0.2754(6) 0.17402(12) 0.7004(2)
O38_2 O 0.2313(8) 0.15362(14) 0.5419(2)
O39 O 0.2489(8) 0.21290(14) 0.4611(2)
C29_2 C 0.3675(8) 0.25454(19) 0.7238(3)
C30_2 C 0.3516(8) 0.21481(17) 0.6644(3)
H16_2 H 0.4837 0.2072 0.6458
C31_2 C 0.2339(9) 0.23146(18) 0.5957(3)
H17_2 H 0.0989 0.2355 0.6119
H18_2 H 0.2824 0.2626 0.5788
C32_2 C 0.2408(9) 0.19785(19) 0.5287(3)
H34 H 0.0679185 0.0803487 0.520067
Cu2_2 Cu 0.16498(11) 0.87467(2) 0.36076(3)
O1_2 O 0.2462(12) 0.80496(15) 0.0797(2)
O2_2 O 0.0697(14) 0.92898(19) 0.4249(3)
O3_2 O 0.3309(8) 0.75553(14) 0.2070(2)
O5_2 O 0.2754(6) 0.82598(12) 0.2996(2)
O6_2 O 0.2313(8) 0.84638(14) 0.4581(2)
O7 O 0.2489(8) 0.78710(14) 0.5389(2)
C1_2 C 0.3675(8) 0.74546(19) 0.2762(3)
C2_2 C 0.3516(8) 0.78519(17) 0.3356(3)
H1_2 H 0.4837 0.7928 0.3542
C3_2 C 0.2339(9) 0.76854(18) 0.4043(3)
H2_2 H 0.0989 0.7645 0.3881
H3_2 H 0.2824 0.7374 0.4212
C4_2 C 0.2408(9) 0.80215(19) 0.4713(3)
O8_2 O 0.1587(7) 0.88113(12) 0.1653(2)
O9_2 O 0.1246(7) 0.91887(13) 0.2777(2)
C5_2 C 0.1180(7) 0.91649(17) 0.2056(3)
C6_2 C 0.0549(8) 0.95984(16) 0.1633(3)
C7_3 C 0.0000 1.0000 0.2033(4)
H4_3 H 0.0000 1.0000 0.2579
C8_2 C 0.0531(7) 0.95974(17) 0.0831(3)
H5_2 H 0.0883 0.9320 0.0560
C9_3 C 0.0000 1.0000 0.0425(4)
H19 H 0.0789076 0.958577 0.394695
C15_3 C 0.0000 1.0000 0.7967(4)
H7_3 H 0.0000 1.0000 0.7421
C17_3 C 0.0000 1.0000 0.9575(4)
O32_2 O 0.1512(7) 0.84644(17) 0.6558(3)
H37 H 0.0619939 0.93761 0.591639
C7_4 C 1.0000 0.0000 0.2033(4)
H4_4 H 1.0000 -0.0000 0.2579
C9_4 C 1.0000 -0.0000 0.0425(4)
O11_2 O 0.8413(7) 0.11887(12) 0.1653(2)
O12_2 O 0.8754(7) 0.08113(13) 0.2777(2)
C10_2 C 0.8820(7) 0.08351(17) 0.2056(3)
C11_2 C 0.9451(8) 0.04016(16) 0.1633(3)
C12_2 C 0.9469(7) 0.04026(17) 0.0831(3)
H6_2 H 0.9117 0.0680 0.0560
Cu4_2 Cu 0.83502(11) 0.12533(2) 0.36076(3)
O17_2 O 0.7538(12) 0.19504(15) 0.0797(2)
O18_2 O 0.9303(14) 0.07102(19) 0.4249(3)
O19_2 O 0.6691(8) 0.24447(14) 0.2070(2)
O21_2 O 0.7246(6) 0.17402(12) 0.2996(2)
O22_2 O 0.7687(8) 0.15362(14) 0.4581(2)
O23 O 0.7511(8) 0.21290(14) 0.5389(2)
C21_2 C 0.6325(8) 0.25454(19) 0.2762(3)
C22_2 C 0.6484(8) 0.21481(17) 0.3356(3)
H10_2 H 0.5163 0.2072 0.3542
C23_2 C 0.7661(9) 0.23146(18) 0.4043(3)
H11_2 H 0.9011 0.2355 0.3881
H12_2 H 0.7176 0.2626 0.4212
C24_2 C 0.7592(9) 0.19785(19) 0.4713(3)
H28 H 0.932082 0.0803487 0.479933
C15_4 C 1.0000 0.0000 0.7967(4)
H7_4 H 1.0000 0.0000 0.7421
C17_4 C 1.0000 0.0000 0.9575(4)
O40_2 O 0.8488(7) 0.15356(17) 0.6558(3)
H33 H 0.938006 0.06239 0.591639
C7_5 C 1.0000 1.0000 0.2033(4)
H4_5 H 1.0000 1.0000 0.2579
C9_5 C 1.0000 1.0000 0.0425(4)
O10_2 O 0.8488(7) 0.84644(17) 0.3442(3)
H20 H 0.933984 0.923362 0.439561
O13_2 O 0.8413(7) 0.88113(12) 0.8347(2)
O14_2 O 0.8754(7) 0.91887(13) 0.7223(2)
C13_2 C 0.8820(7) 0.91649(17) 0.7944(3)
C14_2 C 0.9451(8) 0.95984(16) 0.8367(3)
C15_5 C 1.0000 1.0000 0.7967(4)
H7_5 H 1.0000 1.0000 0.7421
C16_2 C 0.9469(7) 0.95974(17) 0.9169(3)
H8_2 H 0.9117 0.9320 0.9440
C17_5 C 1.0000 1.0000 0.9575(4)
Cu6_2 Cu 0.83502(11) 0.87467(2) 0.63924(3)
O25_2 O 0.7538(12) 0.80496(15) 0.9203(2)
O26_2 O 0.9303(14) 0.92898(19) 0.5751(3)
O27_2 O 0.6691(8) 0.75553(14) 0.7930(2)
O29_2 O 0.7246(6) 0.82598(12) 0.7004(2)
O30_2 O 0.7687(8) 0.84638(14) 0.5419(2)
O31 O 0.7511(8) 0.78710(14) 0.4611(2)
C25_2 C 0.6325(8) 0.74546(19) 0.7238(3)
C26_2 C 0.6484(8) 0.78519(17) 0.6644(3)
H13_2 H 0.5163 0.7928 0.6458
C27_2 C 0.7661(9) 0.76854(18) 0.5957(3)
H14_2 H 0.9011 0.7645 0.6119
H15_2 H 0.7176 0.7374 0.5788
C28_2 C 0.7592(9) 0.80215(19) 0.5287(3)
H38 H 0.932082 0.919651 0.520067
H20_2 H 0.0660162 0.076638 0.439561
H28_2 H 0.0679185 0.919651 0.479933
H19_2 H 0.921092 0.041423 0.394695
H27_2 H 0.938006 0.93761 0.408361
H20_3 H 0.0660162 0.923362 0.560439
H19_3 H 0.921092 0.958577 0.605305
H19_4 H 0.0789076 0.041423 0.605305
H20_4 H 0.933984 0.076638 0.560439
O7_2 O 0.7489(8) 0.28710(14) 0.0389(2)
O23_2 O 0.2511(8) 0.71290(14) 0.0389(2)
O31_2 O 0.2511(8) 0.28710(14) 0.9611(2)
O39_2 O 0.7489(8) 0.71290(14) 0.9611(2)
loop_
_geom_bond_atom_site_label_1
_geom_bond_atom_site_label_2
_geom_bond_site_symmetry_1
_geom_bond_site_symmetry_2
Cu1 O1 1_555 1_555
Cu2 O2 1_555 1_555
O3 Cu1 1_555 1_555
O4 C1 1_555 1_555
O5 Cu1 1_555 1_555
O6 Cu2 1_555 1_555
C1 O3 1_555 1_555
C2 O5 1_555 1_555
H1 C2 1_555 1_555
C3 C2 1_555 1_555
H2 C3 1_555 1_555
H3 C3 1_555 1_555
C4 O6 1_555 1_555
O8 Cu1 1_555 1_555
O9 Cu2 1_555 1_555
C5 O8 1_555 1_555
C6 C5 1_555 1_555
C7 C6 1_555 1_555
H4 C7 1_555 1_555
C8 C6 1_555 1_555
H5 C8 1_555 1_555
C9 C8 1_555 1_555
O10 Cu2 1_555 1_555
O11 C10 1_555 1_555
O12 C10 1_555 1_555
C10 C11 1_555 1_555
C11 C7 1_555 1_555
C12 C9 1_555 1_555
H6 C12 1_555 1_555
O13 C13 1_555 1_555
O14 C13 1_555 1_555
C13 C14 1_555 1_555
C14 C15 1_555 1_555
C15 H7 1_555 1_555
C16 C14 1_555 1_555
H8 C16 1_555 1_555
C17 C9 1_555 1_555
O15 C18 1_555 1_555
O16 C18 1_555 1_555
C18 C19 1_555 1_555
C19 C15 1_555 1_555
C20 C17 1_555 1_555
H9 C20 1_555 1_555
Cu3 O11 1_555 1_555
Cu4 O12 1_555 1_555
O17 Cu3 1_555 1_555
O18 Cu4 1_555 1_555
O19 Cu3 1_555 1_555
O20 C21 1_555 1_555
O21 Cu3 1_555 1_555
O22 Cu4 1_555 1_555
C21 O19 1_555 1_555
C22 O21 1_555 1_555
H10 C22 1_555 1_555
C23 C22 1_555 1_555
H11 C23 1_555 1_555
H12 C23 1_555 1_555
C24 O22 1_555 1_555
O24 Cu4 1_555 1_555
Cu5 O13 1_555 1_555
Cu6 O14 1_555 1_555
O25 Cu5 1_555 1_555
O26 Cu6 1_555 1_555
O27 Cu5 1_555 1_555
O28 C25 1_555 1_555
O29 Cu5 1_555 1_555
O30 Cu6 1_555 1_555
C25 O27 1_555 1_555
C26 O29 1_555 1_555
H13 C26 1_555 1_555
C27 C26 1_555 1_555
H14 C27 1_555 1_555
H15 C27 1_555 1_555
C28 O30 1_555 1_555
O32 Cu6 1_555 1_555
Cu7 O15 1_555 1_555
Cu8 O16 1_555 1_555
O33 Cu7 1_555 1_555
O34 Cu8 1_555 1_555
O35 Cu7 1_555 1_555
O36 C29 1_555 1_555
O37 Cu7 1_555 1_555
O38 Cu8 1_555 1_555
C29 O35 1_555 1_555
C30 O37 1_555 1_555
H16 C30 1_555 1_555
C31 C30 1_555 1_555
H17 C31 1_555 1_555
H18 C31 1_555 1_555
C32 O38 1_555 1_555
O40 Cu8 1_555 1_555
O41 Cu7 1_555 1_555
O42 Cu5 1_555 1_555
O43 Cu3 1_555 1_555
O44 Cu1 1_555 1_555
Cu2 O5 1_555 1_555
C1 C2 1_555 1_555
C3 C4 1_555 1_555
O9 C5 1_555 1_555
C11 C12 1_555 1_555
C16 C17 1_555 1_555
C19 C20 1_555 1_555
Cu4 O21 1_555 1_555
C21 C22 1_555 1_555
C23 C24 1_555 1_555
Cu6 O29 1_555 1_555
C25 C26 1_555 1_555
C27 C28 1_555 1_555
Cu8 O37 1_555 1_555
C29 C30 1_555 1_555
C31 C32 1_555 1_555
H4_2 C7_2 1_555 1_555
C15_2 H7_2 1_555 1_555
O15_2 C18_2 1_555 1_555
O16_2 C18_2 1_555 1_555
C18_2 C19_2 1_555 1_555
C19_2 C15_2 1_555 1_555
C20_2 C17_2 1_555 1_555
H9_2 C20_2 1_555 1_555
Cu12 O15_2 1_555 1_555
Cu8_2 O16_2 1_555 1_555
O33_2 Cu12 1_555 1_555
O34_2 Cu8_2 1_555 1_555
O35_2 Cu12 1_555 1_555
O44 C29_2 1_555 1_555
O37_2 Cu12 1_555 1_555
O38_2 Cu8_2 1_555 1_555
O39 C32_2 1_555 1_555
C29_2 O35_2 1_555 1_555
C30_2 O37_2 1_555 1_555
H16_2 C30_2 1_555 1_555
C31_2 C30_2 1_555 1_555
H17_2 C31_2 1_555 1_555
H18_2 C31_2 1_555 1_555
C32_2 O38_2 1_555 1_555
C19_2 C20_2 1_555 1_555
Cu8_2 O37_2 1_555 1_555
C29_2 C30_2 1_555 1_555
C31_2 C32_2 1_555 1_555
O34_2 H34 1_555 1_555
Cu9 O1_2 1_555 1_555
Cu2_2 O2_2 1_555 1_555
O3_2 Cu9 1_555 1_555
O41 C1_2 1_555 1_555
O5_2 Cu9 1_555 1_555
O6_2 Cu2_2 1_555 1_555
O7 C4_2 1_555 1_555
C1_2 O3_2 1_555 1_555
C2_2 O5_2 1_555 1_555
H1_2 C2_2 1_555 1_555
C3_2 C2_2 1_555 1_555
H2_2 C3_2 1_555 1_555
H3_2 C3_2 1_555 1_555
C4_2 O6_2 1_555 1_555
O8_2 Cu9 1_555 1_555
O9_2 Cu2_2 1_555 1_555
C5_2 O8_2 1_555 1_555
C6_2 C5_2 1_555 1_555
C7_3 C6_2 1_555 1_555
H4_3 C7_3 1_555 1_555
C8_2 C6_2 1_555 1_555
H5_2 C8_2 1_555 1_555
C9_3 C8_2 1_555 1_555
Cu2_2 O5_2 1_555 1_555
C1_2 C2_2 1_555 1_555
C3_2 C4_2 1_555 1_555
O9_2 C5_2 1_555 1_555
O2_2 H19 1_555 1_555
C15_3 H7_3 1_555 1_555
H4_4 C7_4 1_555 1_555
O11_2 C10_2 1_555 1_555
O12_2 C10_2 1_555 1_555
C10_2 C11_2 1_555 1_555
C11_2 C7_4 1_555 1_555
C12_2 C9_4 1_555 1_555
H6_2 C12_2 1_555 1_555
Cu10 O11_2 1_555 1_555
Cu4_2 O12_2 1_555 1_555
O17_2 Cu10 1_555 1_555
O18_2 Cu4_2 1_555 1_555
O19_2 Cu10 1_555 1_555
O42 C21_2 1_555 1_555
O21_2 Cu10 1_555 1_555
O22_2 Cu4_2 1_555 1_555
O23 C24_2 1_555 1_555
C21_2 O19_2 1_555 1_555
C22_2 O21_2 1_555 1_555
H10_2 C22_2 1_555 1_555
C23_2 C22_2 1_555 1_555
H11_2 C23_2 1_555 1_555
H12_2 C23_2 1_555 1_555
C24_2 O22_2 1_555 1_555
C11_2 C12_2 1_555 1_555
Cu4_2 O21_2 1_555 1_555
C21_2 C22_2 1_555 1_555
C23_2 C24_2 1_555 1_555
O18_2 H28 1_555 1_555
C15_4 H7_4 1_555 1_555
H4_5 C7_5 1_555 1_555
O13_2 C13_2 1_555 1_555
O14_2 C13_2 1_555 1_555
C13_2 C14_2 1_555 1_555
C14_2 C15_5 1_555 1_555
C15_5 H7_5 1_555 1_555
C16_2 C14_2 1_555 1_555
H8_2 C16_2 1_555 1_555
Cu11 O13_2 1_555 1_555
Cu6_2 O14_2 1_555 1_555
O25_2 Cu11 1_555 1_555
O26_2 Cu6_2 1_555 1_555
O27_2 Cu11 1_555 1_555
O43 C25_2 1_555 1_555
O29_2 Cu11 1_555 1_555
O30_2 Cu6_2 1_555 1_555
O31 C28_2 1_555 1_555
C25_2 O27_2 1_555 1_555
C26_2 O29_2 1_555 1_555
H13_2 C26_2 1_555 1_555
C27_2 C26_2 1_555 1_555
H14_2 C27_2 1_555 1_555
H15_2 C27_2 1_555 1_555
C28_2 O30_2 1_555 1_555
C16_2 C17_5 1_555 1_555
Cu6_2 O29_2 1_555 1_555
C25_2 C26_2 1_555 1_555
C27_2 C28_2 1_555 1_555
O26_2 H38 1_555 1_555
O2_2 H28_2 1_555 1_555
O18_2 H19_2 1_555 1_555
O26_2 H19_3 1_555 1_555
O34_2 H19_4 1_555 1_555

#END
