
###############################################################################
#
# This file contains modified crystal structure data generated from the
# MOF subset of the Cambridge Structural Database (CSD) v543 
# hosted by the Cambridge Crystallographic Data Centre (CCDC).
#
# This work is licensed under the Creative Commons
# Attribution-NonCommercial-ShareAlike 4.0 International License.
# To view a copy of this license, visit
# http://creativecommons.org/licenses/by-nc-sa/4.0/
# or send a letter to
# Creative Commons, PO Box 1866, Mountain View, CA 94042, USA.
#
# CIF created using the CSD Python API on 29 September 2022
# The structure has been converted into the P1 space group
# The structure has a 3D framework
# The original CSD entry TODYUJ is in the rhombohedral crystal system
# The framework has been calculated to contain at least 10.0% void space
# The void calculation uses a probe of radius 1.32A, grid spacing 0.4
#
###############################################################################

data_TODYUJ
_chemical_formula_moiety         '(C72 H54 Mg18 O66)n'
_symmetry_cell_setting           triclinic
_symmetry_space_group_name_H-M   'P 1'
_symmetry_Int_Tables_number      1
_space_group_name_Hall           'P 1'
loop_
_symmetry_equiv_pos_site_id
_symmetry_equiv_pos_as_xyz
1 x,y,z
_cell_length_a                   25.9434(9)
_cell_length_b                   25.9434(9)
_cell_length_c                   6.8189(2)
_cell_angle_alpha                90
_cell_angle_beta                 90
_cell_angle_gamma                120
_cell_volume                     3974.65
loop_
_atom_site_label
_atom_site_type_symbol
_atom_site_fract_x
_atom_site_fract_y
_atom_site_fract_z
C2 C 0.34438(16) 0.22196(16) 0.0829(5)
C3 C 0.33900(16) 0.12495(17) 0.0494(5)
O5 O 0.32395(11) 0.29638(10) 0.3546(3)
O6 O 0.30980(11) 0.05992(11) 0.3375(3)
O7 O 0.30085(12) 0.23056(11) 0.5921(3)
C5 C 0.31734(15) 0.24746(16) 0.4193(5)
C6 C 0.32229(16) 0.11137(16) 0.2504(5)
C7 C 0.32767(16) 0.20838(17) 0.2839(5)
C8 C 0.31720(16) 0.15396(17) 0.3590(5)
H4 H 0.305867 0.145467 0.492788
Mg3 Mg 0.36784(5) 0.05165(5) 0.51949(15)
Mg5 Mg 0.31619(7) 0.36784(5) 0.48051(15)
Mg7 Mg 0.29883(5) 0.28168(5) 0.81384(15)
Mg8 Mg 0.38498(5) 0.35048(7) 0.14718(15)
O1 O 0.34272(11) 0.03695(10) 0.9787(3)
O2 O 0.35687(11) 0.27341(11) 0.9958(3)
O3 O 0.36582(12) 0.10277(11) 0.7412(3)
C1 C 0.34933(15) 0.08587(16) 0.9140(5)
C4 C 0.34947(16) 0.17937(17) 0.9743(5)
H1 H 0.360800 0.187866 0.840545
O4 O 0.44189(13) 0.12139(13) 0.3863(4)
H2 H 0.4743(10) 0.1581(10) 0.4496(13)
H3 H 0.4532(10) 0.1258(9) 0.244(2)
O13 O 0.41679(16) 0.02354(11) 0.6709(3)
Mg4 Mg 0.28168(5) 0.98286(7) 0.18616(15)
O11 O 0.27341(11) 0.91654(16) 0.0042(3)
O14 O 0.40362(16) 0.96751(12) 0.0745(3)
Mg2 Mg 0.35048(7) 0.96549(5) 0.85282(15)
O8 O 0.34617(18) 0.89144(13) 0.7196(4)
H5 H 0.3505(14) 0.8590(10) 0.7829(13)
H6 H 0.3393(13) 0.8801(10) 0.577(2)
O9 O 0.36090(15) 0.99061(11) 0.3120(3)
O10 O 0.29638(10) 0.97244(15) 0.6454(3)
Mg4_2 Mg 0.01714(7) 0.29883(9) 0.18616(15)
O11_2 O 0.08346(16) 0.35687(19) 0.0042(3)
O14_2 O 0.03249(12) 0.43610(20) 0.0745(3)
Mg2_2 Mg 0.03451(5) 0.38498(9) 0.85282(15)
O8_2 O 0.10856(13) 0.45472(22) 0.7196(4)
H5_2 H 0.1410(10) 0.4914(17) 0.7829(13)
H6_2 H 0.1199(10) 0.4591(16) 0.577(2)
O9_2 O 0.00939(11) 0.37028(19) 0.3120(3)
O10_2 O 0.02756(15) 0.32395(18) 0.6454(3)
C2_2 C 0.77804(16) 0.12242(23) 0.0829(5)
C3_2 C 0.87505(17) 0.21405(23) 0.0494(5)
O5_2 O 0.70362(10) 0.02756(15) 0.3546(3)
O6_2 O 0.94008(11) 0.24987(16) 0.3375(3)
O7_2 O 0.76944(11) 0.07028(16) 0.5921(3)
C5_2 C 0.75254(16) 0.06987(22) 0.4193(5)
C6_2 C 0.88863(16) 0.21091(23) 0.2504(5)
C7_2 C 0.79162(17) 0.11928(23) 0.2839(5)
C8_2 C 0.84604(17) 0.16323(23) 0.3590(5)
H4_2 H 0.854533 0.160399 0.492788
Mg3_2 Mg 0.94835(5) 0.31619(7) 0.51949(15)
Mg7_2 Mg 0.71832(5) 0.01714(7) 0.81384(15)
Mg8_2 Mg 0.64952(7) 0.03451(9) 0.14718(15)
O1_2 O 0.96305(10) 0.30577(15) 0.9787(3)
O2_2 O 0.72659(11) 0.08346(16) 0.9958(3)
O3_2 O 0.89723(11) 0.26305(16) 0.7412(3)
C1_2 C 0.91413(16) 0.26346(22) 0.9140(5)
C4_2 C 0.82063(17) 0.17010(23) 0.9743(5)
H1_2 H 0.812134 0.172934 0.840545
O4_2 O 0.87861(13) 0.32050(18) 0.3863(4)
H2_2 H 0.8419(10) 0.3162(14) 0.4496(13)
H3_2 H 0.8742(9) 0.3274(13) 0.244(2)
O13_2 O 0.97646(11) 0.39326(19) 0.6709(3)
Mg5_2 Mg 0.63216(5) 0.94835(9) 0.48051(15)
Mg5_3 Mg 0.05165(9) 0.68381(7) 0.48051(15)
C2_3 C 0.87758(23) 0.65562(16) 0.0829(5)
C3_3 C 0.78595(23) 0.66100(16) 0.0494(5)
O5_3 O 0.97244(15) 0.67605(11) 0.3546(3)
O6_3 O 0.75013(16) 0.69020(11) 0.3375(3)
O7_3 O 0.92972(16) 0.69915(12) 0.5921(3)
C5_3 C 0.93013(22) 0.68266(15) 0.4193(5)
C6_3 C 0.78909(23) 0.67771(16) 0.2504(5)
C7_3 C 0.88072(23) 0.67233(16) 0.2839(5)
C8_3 C 0.83677(23) 0.68280(16) 0.3590(5)
H4_3 H 0.839601 0.694133 0.492788
Mg3_3 Mg 0.68381(7) 0.63216(5) 0.51949(15)
Mg4_3 Mg 0.70117(9) 0.71832(5) 0.18616(15)
Mg7_3 Mg 0.98286(7) 0.70117(5) 0.81384(15)
Mg8_3 Mg 0.96549(9) 0.61502(5) 0.14718(15)
O11_3 O 0.64313(19) 0.72659(11) 0.0042(3)
O14_3 O 0.56390(20) 0.59638(16) 0.0745(3)
O1_3 O 0.69423(15) 0.65728(11) 0.9787(3)
O2_3 O 0.91654(16) 0.64313(11) 0.9958(3)
O3_3 O 0.73695(16) 0.63418(12) 0.7412(3)
C1_3 C 0.73654(22) 0.65067(15) 0.9140(5)
C4_3 C 0.82990(23) 0.65053(16) 0.9743(5)
H1_3 H 0.827066 0.639200 0.840545
O4_3 O 0.67950(18) 0.55811(13) 0.3863(4)
H2_3 H 0.6838(14) 0.5257(10) 0.4496(13)
H3_3 H 0.6726(13) 0.5468(10) 0.244(2)
Mg2_3 Mg 0.61502(9) 0.64952(7) 0.85282(15)
O8_3 O 0.54528(22) 0.65383(18) 0.7196(4)
H5_3 H 0.5086(17) 0.6495(14) 0.7829(13)
H6_3 H 0.5409(16) 0.6607(13) 0.577(2)
O9_3 O 0.62972(19) 0.63910(15) 0.3120(3)
O10_3 O 0.67605(18) 0.70362(10) 0.6454(3)
O13_3 O 0.60674(19) 0.58321(16) 0.6709(3)
O2_4 O 0.02354(11) 0.60674(11) 0.3291(3)
C1_4 C 0.01600(15) 0.41920(16) 0.2473(5)
C2_4 C 0.01105(16) 0.55529(16) 0.4162(5)
C3_4 C 0.00567(16) 0.45828(17) 0.3827(5)
C4_4 C 0.01614(16) 0.51270(17) 0.3076(5)
H1_4 H 0.027467 0.521199 0.173878
O8_4 O 0.01283(18) 0.22478(13) 0.0530(4)
H5_4 H 0.0171(14) 0.1924(10) 0.1163(13)
O14_4 O 0.07028(16) 0.30085(12) 0.4079(3)
H6_4 H 0.0059(13) 0.2135(10) 0.911(2)
O5_4 O 0.99061(11) 0.62972(10) 0.6880(3)
O7_4 O 0.96751(12) 0.56390(11) 0.9255(3)
C5_4 C 0.98400(15) 0.58080(16) 0.7527(5)
C6_4 C 0.98895(16) 0.44471(16) 0.5838(5)
C7_4 C 0.99433(16) 0.54172(17) 0.6173(5)
C8_4 C 0.98386(16) 0.48730(17) 0.6924(5)
H4_4 H 0.972533 0.478801 0.826122
O2_5 O 0.39326(11) 0.41679(16) 0.3291(3)
C1_5 C 0.58080(16) 0.59679(22) 0.2473(5)
C2_5 C 0.44471(16) 0.45575(23) 0.4162(5)
C3_5 C 0.54172(17) 0.54738(23) 0.3827(5)
C4_5 C 0.48730(17) 0.50343(23) 0.3076(5)
H1_5 H 0.478801 0.506267 0.173878
O5_5 O 0.37028(10) 0.36090(15) 0.6880(3)
O7_5 O 0.43610(11) 0.40362(16) 0.9255(3)
C5_5 C 0.41920(16) 0.40321(22) 0.7527(5)
C6_5 C 0.55529(16) 0.54425(23) 0.5838(5)
C7_5 C 0.45828(17) 0.45262(23) 0.6173(5)
C8_5 C 0.51270(17) 0.49657(23) 0.6924(5)
H4_5 H 0.521199 0.493733 0.826122
O8_5 O 0.77522(13) 0.78806(22) 0.0530(4)
H5_5 H 0.8076(10) 0.8248(17) 0.1163(13)
O14_5 O 0.69915(12) 0.76944(20) 0.4079(3)
H6_5 H 0.7865(10) 0.7925(16) 0.911(2)
O5_6 O 0.63910(15) 0.00939(11) 0.6880(3)
O7_6 O 0.59638(16) 0.03249(12) 0.9255(3)
C5_6 C 0.59679(22) 0.01600(15) 0.7527(5)
C6_6 C 0.45575(23) 0.01105(16) 0.5838(5)
C7_6 C 0.54738(23) 0.00567(16) 0.6173(5)
C8_6 C 0.50343(23) 0.01614(16) 0.6924(5)
H4_6 H 0.506267 0.027467 0.826122
O2_6 O 0.58321(16) 0.97646(11) 0.3291(3)
C1_6 C 0.40321(22) 0.98400(15) 0.2473(5)
C2_6 C 0.54425(23) 0.98895(16) 0.4162(5)
C3_6 C 0.45262(23) 0.99433(16) 0.3827(5)
C4_6 C 0.49657(23) 0.98386(16) 0.3076(5)
H1_6 H 0.493733 0.972533 0.173878
O8_6 O 0.21194(22) 0.98717(18) 0.0530(4)
H5_6 H 0.1752(17) 0.9829(14) 0.1163(13)
O14_6 O 0.23056(20) 0.92972(16) 0.4079(3)
H6_6 H 0.2075(16) 0.9941(13) 0.911(2)
O5_7 O 0.65728(11) 0.96305(10) 0.0213(3)
O7_7 O 0.63418(12) 0.89723(11) 0.2588(3)
C5_7 C 0.65067(15) 0.91413(16) 0.0860(5)
C8_7 C 0.65053(16) 0.82063(17) 0.0257(5)
H4_7 H 0.639200 0.812134 0.159455
O2_7 O 0.69020(11) 0.94008(11) 0.6625(3)
C1_7 C 0.68266(15) 0.75254(16) 0.5807(5)
C2_7 C 0.67771(16) 0.88863(16) 0.7496(5)
C3_7 C 0.67233(16) 0.79162(17) 0.7161(5)
C4_7 C 0.68280(16) 0.84604(17) 0.6410(5)
H1_7 H 0.694133 0.854533 0.507212
C6_7 C 0.65562(16) 0.77804(16) 0.9171(5)
C7_7 C 0.66100(16) 0.87505(17) 0.9506(5)
O5_8 O 0.03695(10) 0.69423(15) 0.0213(3)
O7_8 O 0.10277(11) 0.73695(16) 0.2588(3)
C5_8 C 0.08587(16) 0.73654(22) 0.0860(5)
C8_8 C 0.17937(17) 0.82990(23) 0.0257(5)
H4_8 H 0.187866 0.827066 0.159455
O2_8 O 0.05992(11) 0.75013(16) 0.6625(3)
C1_8 C 0.24746(16) 0.93013(22) 0.5807(5)
C2_8 C 0.11137(16) 0.78909(23) 0.7496(5)
C3_8 C 0.20838(17) 0.88072(23) 0.7161(5)
C4_8 C 0.15396(17) 0.83677(23) 0.6410(5)
H1_8 H 0.145467 0.839601 0.507212
C6_8 C 0.22196(16) 0.87758(23) 0.9171(5)
C7_8 C 0.12495(17) 0.78595(23) 0.9506(5)
O5_9 O 0.30577(15) 0.34272(11) 0.0213(3)
O7_9 O 0.26305(16) 0.36582(12) 0.2588(3)
C5_9 C 0.26346(22) 0.34933(15) 0.0860(5)
C8_9 C 0.17010(23) 0.34947(16) 0.0257(5)
H4_9 H 0.172934 0.360800 0.159455
O2_9 O 0.24987(16) 0.30980(11) 0.6625(3)
C1_9 C 0.06987(22) 0.31734(15) 0.5807(5)
C2_9 C 0.21091(23) 0.32229(16) 0.7496(5)
C3_9 C 0.11928(23) 0.32767(16) 0.7161(5)
C4_9 C 0.16323(23) 0.31720(16) 0.6410(5)
H1_9 H 0.160399 0.305867 0.507212
C6_9 C 0.12242(23) 0.34438(16) 0.9171(5)
C7_9 C 0.21405(23) 0.33900(16) 0.9506(5)
O8_7 O 0.65383(18) 0.10856(13) 0.2804(4)
H5_7 H 0.6495(14) 0.1410(10) 0.2171(13)
H6_7 H 0.6607(13) 0.1199(10) 0.423(2)
O4_4 O 0.55811(13) 0.87861(13) 0.6137(4)
H2_4 H 0.5257(10) 0.8419(10) 0.5504(13)
H3_4 H 0.5468(10) 0.8742(9) 0.756(2)
O4_5 O 0.12139(13) 0.67950(18) 0.6137(4)
H2_5 H 0.1581(10) 0.6838(14) 0.5504(13)
H3_5 H 0.1258(9) 0.6726(13) 0.756(2)
O8_8 O 0.89144(13) 0.54528(22) 0.2804(4)
H5_8 H 0.8590(10) 0.5086(17) 0.2171(13)
H6_8 H 0.8801(10) 0.5409(16) 0.423(2)
O4_6 O 0.32050(18) 0.44189(13) 0.6137(4)
H2_6 H 0.3162(14) 0.4743(10) 0.5504(13)
H3_6 H 0.3274(13) 0.4532(10) 0.756(2)
O8_9 O 0.45472(22) 0.34617(18) 0.2804(4)
H5_9 H 0.4914(17) 0.3505(14) 0.2171(13)
H6_9 H 0.4591(16) 0.3393(13) 0.423(2)
H6_10 H 0.9941(13) 0.7865(10) 0.089(2)
O8_10 O 0.98717(18) 0.77522(13) 0.9470(4)
H5_10 H 0.9829(14) 0.8076(10) 0.8837(13)
H6_11 H 0.2135(10) 0.2075(16) 0.089(2)
O8_11 O 0.22478(13) 0.21194(22) 0.9470(4)
H5_11 H 0.1924(10) 0.1752(17) 0.8837(13)
H6_12 H 0.7925(16) 0.0059(13) 0.089(2)
O8_12 O 0.78806(22) 0.01283(18) 0.9470(4)
H5_12 H 0.8248(17) 0.0171(14) 0.8837(13)
loop_
_geom_bond_atom_site_label_1
_geom_bond_atom_site_label_2
_geom_bond_site_symmetry_1
_geom_bond_site_symmetry_2
O5 C5 1_555 1_555
O6 C6 1_555 1_555
O7 C5 1_555 1_555
C5 C7 1_555 1_555
C6 C3 1_555 1_555
C7 C2 1_555 1_555
C8 C6 1_555 1_555
H4 C8 1_555 1_555
Mg3 O6 1_555 1_555
Mg5 O5 1_555 1_555
Mg7 O7 1_555 1_555
O5 Mg8 1_555 1_555
C7 C8 1_555 1_555
Mg3 O3 1_555 1_555
O1 C1 1_555 1_555
O3 C1 1_555 1_555
C4 H1 1_555 1_555
O4 Mg3 1_555 1_555
H2 O4 1_555 1_555
H3 O4 1_555 1_555
Mg7 O2 1_555 1_555
O13 Mg3 1_555 1_555
Mg4 O11 1_555 1_555
O8 Mg2 1_555 1_555
H5 O8 1_555 1_555
H6 O8 1_555 1_555
Mg2 O10 1_555 1_555
Mg4_2 O11_2 1_555 1_555
O8_2 Mg2_2 1_555 1_555
H5_2 O8_2 1_555 1_555
H6_2 O8_2 1_555 1_555
Mg2_2 O10_2 1_555 1_555
O5_2 C5_2 1_555 1_555
O6_2 C6_2 1_555 1_555
O7_2 C5_2 1_555 1_555
C5_2 C7_2 1_555 1_555
C6_2 C3_2 1_555 1_555
C7_2 C2_2 1_555 1_555
C8_2 C6_2 1_555 1_555
H4_2 C8_2 1_555 1_555
Mg3_2 O6_2 1_555 1_555
Mg7_2 O7_2 1_555 1_555
O5_2 Mg8_2 1_555 1_555
C7_2 C8_2 1_555 1_555
Mg3_2 O3_2 1_555 1_555
O1_2 C1_2 1_555 1_555
O3_2 C1_2 1_555 1_555
C4_2 H1_2 1_555 1_555
O4_2 Mg3_2 1_555 1_555
H2_2 O4_2 1_555 1_555
H3_2 O4_2 1_555 1_555
Mg7_2 O2_2 1_555 1_555
O13_2 Mg3_2 1_555 1_555
O5_3 C5_3 1_555 1_555
O6_3 C6_3 1_555 1_555
O7_3 C5_3 1_555 1_555
C5_3 C7_3 1_555 1_555
C6_3 C3_3 1_555 1_555
C7_3 C2_3 1_555 1_555
C8_3 C6_3 1_555 1_555
H4_3 C8_3 1_555 1_555
Mg3_3 O6_3 1_555 1_555
Mg7_3 O7_3 1_555 1_555
O5_3 Mg8_3 1_555 1_555
O6_3 Mg4_3 1_555 1_555
C7_3 C8_3 1_555 1_555
Mg4_3 O11_3 1_555 1_555
Mg3_3 O3_3 1_555 1_555
O1_3 C1_3 1_555 1_555
O3_3 C1_3 1_555 1_555
C4_3 H1_3 1_555 1_555
O4_3 Mg3_3 1_555 1_555
H2_3 O4_3 1_555 1_555
H3_3 O4_3 1_555 1_555
Mg2_3 O1_3 1_555 1_555
O8_3 Mg2_3 1_555 1_555
H5_3 O8_3 1_555 1_555
H6_3 O8_3 1_555 1_555
Mg7_3 O2_3 1_555 1_555
O9_3 Mg3_3 1_555 1_555
O10_3 Mg3_3 1_555 1_555
O13_3 Mg3_3 1_555 1_555
Mg2_3 O10_3 1_555 1_555
Mg2_3 O13_3 1_555 1_555
O9_2 C1_4 1_555 1_555
O2_4 C2_4 1_555 1_555
O14_2 C1_4 1_555 1_555
C1_4 C3_4 1_555 1_555
C2_4 C4_4 1_555 1_555
C3_4 C4_4 1_555 1_555
C4_4 H1_4 1_555 1_555
Mg4_2 O9_2 1_555 1_555
O8_4 Mg4_2 1_555 1_555
H5_4 O8_4 1_555 1_555
Mg5_3 O2_4 1_555 1_555
O14_4 Mg4_2 1_555 1_555
O5_4 C5_4 1_555 1_555
O13_2 C6_4 1_555 1_555
O7_4 C5_4 1_555 1_555
C5_4 C7_4 1_555 1_555
C8_4 C6_4 1_555 1_555
H4_4 C8_4 1_555 1_555
Mg7_3 O5_4 1_555 1_555
C7_4 C8_4 1_555 1_555
O9_3 C1_5 1_555 1_555
O2_5 C2_5 1_555 1_555
O14_3 C1_5 1_555 1_555
C1_5 C3_5 1_555 1_555
C2_5 C4_5 1_555 1_555
C3_5 C4_5 1_555 1_555
C4_5 H1_5 1_555 1_555
O5_5 C5_5 1_555 1_555
O13_3 C6_5 1_555 1_555
O7_5 C5_5 1_555 1_555
C5_5 C7_5 1_555 1_555
C6_5 C3_5 1_555 1_555
C7_5 C2_5 1_555 1_555
C8_5 C6_5 1_555 1_555
H4_5 C8_5 1_555 1_555
Mg4_3 O9_3 1_555 1_555
O8_5 Mg4_3 1_555 1_555
H5_5 O8_5 1_555 1_555
Mg7 O5_5 1_555 1_555
Mg8 O2_5 1_555 1_555
Mg5 O2_5 1_555 1_555
O14_5 Mg4_3 1_555 1_555
O5_5 Mg5 1_555 1_555
C7_5 C8_5 1_555 1_555
O5_6 C5_6 1_555 1_555
O13 C6_6 1_555 1_555
O7_6 C5_6 1_555 1_555
C5_6 C7_6 1_555 1_555
C8_6 C6_6 1_555 1_555
H4_6 C8_6 1_555 1_555
Mg7_2 O5_6 1_555 1_555
C7_6 C8_6 1_555 1_555
O9 C1_6 1_555 1_555
O2_6 C2_6 1_555 1_555
O14 C1_6 1_555 1_555
C1_6 C3_6 1_555 1_555
C2_6 C4_6 1_555 1_555
C3_6 C4_6 1_555 1_555
C4_6 H1_6 1_555 1_555
Mg4 O9 1_555 1_555
O8_6 Mg4 1_555 1_555
H5_6 O8_6 1_555 1_555
Mg5_2 O2_6 1_555 1_555
O14_6 Mg4 1_555 1_555
O5_7 C5_7 1_555 1_555
O7_7 C5_7 1_555 1_555
H4_7 C8_7 1_555 1_555
Mg5_2 O7_7 1_555 1_555
O10_3 C1_7 1_555 1_555
O2_7 C2_7 1_555 1_555
O14_5 C1_7 1_555 1_555
C1_7 C3_7 1_555 1_555
C2_7 C4_7 1_555 1_555
C3_7 C4_7 1_555 1_555
C4_7 H1_7 1_555 1_555
C6_7 C3_7 1_555 1_555
C7_7 C2_7 1_555 1_555
Mg5_2 O2_7 1_555 1_555
O5_8 C5_8 1_555 1_555
O7_8 C5_8 1_555 1_555
H4_8 C8_8 1_555 1_555
Mg5_3 O7_8 1_555 1_555
O10 C1_8 1_555 1_555
O2_8 C2_8 1_555 1_555
O14_6 C1_8 1_555 1_555
C1_8 C3_8 1_555 1_555
C2_8 C4_8 1_555 1_555
C3_8 C4_8 1_555 1_555
C4_8 H1_8 1_555 1_555
C6_8 C3_8 1_555 1_555
C7_8 C2_8 1_555 1_555
Mg5_3 O2_8 1_555 1_555
O5_9 C5_9 1_555 1_555
O7_9 C5_9 1_555 1_555
H4_9 C8_9 1_555 1_555
Mg8 O5_9 1_555 1_555
Mg5 O7_9 1_555 1_555
O10_2 C1_9 1_555 1_555
O2_9 C2_9 1_555 1_555
O14_4 C1_9 1_555 1_555
C1_9 C3_9 1_555 1_555
C2_9 C4_9 1_555 1_555
C3_9 C4_9 1_555 1_555
C4_9 H1_9 1_555 1_555
C6_9 C3_9 1_555 1_555
C7_9 C2_9 1_555 1_555
Mg5 O2_9 1_555 1_555
Mg7 O2_9 1_555 1_555
O8_7 Mg8_2 1_555 1_555
H5_7 O8_7 1_555 1_555
H6_7 O8_7 1_555 1_555
O4_4 Mg5_2 1_555 1_555
H2_4 O4_4 1_555 1_555
H3_4 O4_4 1_555 1_555
O4_5 Mg5_3 1_555 1_555
H2_5 O4_5 1_555 1_555
H3_5 O4_5 1_555 1_555
O8_8 Mg8_3 1_555 1_555
H5_8 O8_8 1_555 1_555
H6_8 O8_8 1_555 1_555
O4_6 Mg5 1_555 1_555
H2_6 O4_6 1_555 1_555
H3_6 O4_6 1_555 1_555
O8_9 Mg8 1_555 1_555
H5_9 O8_9 1_555 1_555
H6_9 O8_9 1_555 1_555
O8_10 Mg7_3 1_555 1_555
H5_10 O8_10 1_555 1_555
O8_11 Mg7 1_555 1_555
H5_11 O8_11 1_555 1_555
O8_12 Mg7_2 1_555 1_555
H5_12 O8_12 1_555 1_555

#END
