
###############################################################################
#
# This file contains modified crystal structure data generated from the
# MOF subset of the Cambridge Structural Database (CSD) v543 
# hosted by the Cambridge Crystallographic Data Centre (CCDC).
#
# This work is licensed under the Creative Commons
# Attribution-NonCommercial-ShareAlike 4.0 International License.
# To view a copy of this license, visit
# http://creativecommons.org/licenses/by-nc-sa/4.0/
# or send a letter to
# Creative Commons, PO Box 1866, Mountain View, CA 94042, USA.
#
# CIF created using the CSD Python API on 29 September 2022
# The structure has been converted into the P1 space group
# The structure has a 3D framework
# The original CSD entry TOFKOQ is in the monoclinic crystal system
# The framework has been calculated to contain at least 10.0% void space
# The void calculation uses a probe of radius 1.32A, grid spacing 0.4
#
###############################################################################

data_TOFKOQ
_chemical_formula_moiety         '(C256 H160 Cd8 N32 O32)n'
_symmetry_cell_setting           triclinic
_symmetry_space_group_name_H-M   'P 1'
_symmetry_Int_Tables_number      1
_space_group_name_Hall           'P 1'
loop_
_symmetry_equiv_pos_site_id
_symmetry_equiv_pos_as_xyz
1 x,y,z
_cell_length_a                   16.432(3)
_cell_length_b                   14.317(3)
_cell_length_c                   24.711(5)
_cell_angle_alpha                90
_cell_angle_beta                 99.87(3)
_cell_angle_gamma                90
_cell_volume                     5727.39
loop_
_atom_site_label
_atom_site_type_symbol
_atom_site_fract_x
_atom_site_fract_y
_atom_site_fract_z
Cd3 Cd 0.14695(3) 0.26700(4) 0.02553(3)
O3 O 0.3120(3) 0.0915(4) 0.9292(2)
O4 O 0.2214(3) 0.1628(3) 0.9693(2)
C24 C 0.1061(5) 0.0275(5) 0.9420(3)
H16 H 0.0887 0.0892 0.9427
C25 C 0.1876(5) 0.0080(5) 0.9390(3)
C32 C 0.2448(5) 0.0918(5) 0.9465(3)
Cd2 Cd 0.35305(3) 0.23300(4) 0.97447(3)
N2 N 0.2918(4) 0.6748(4) 0.4002(3)
N3 N 0.1204(7) 0.0606(7) 0.2495(5)
N4 N 0.1065(5) 0.5540(6) 0.2280(3)
C3 C 0.0088(5) 0.5515(6) 0.1401(3)
C6 C 0.0602(5) 0.5022(6) 0.1873(3)
C7 C 0.0607(5) 0.4048(6) 0.1904(4)
H5 H 0.0290 0.3696 0.1629
C8 C 0.1096(5) 0.3605(7) 0.2351(3)
C9 C 0.1557(5) 0.4158(6) 0.2745(3)
H6 H 0.1894 0.3873 0.3039
C10 C 0.1536(5) 0.5091(6) 0.2718(4)
C11 C 0.2018(5) 0.5668(6) 0.3163(3)
C12 C 0.2082(6) 0.6621(7) 0.3113(4)
H7 H 0.1828 0.6921 0.2795
C13 C 0.2526(6) 0.7128(6) 0.3540(4)
H8 H 0.2551 0.7773 0.3502
C14 C 0.2867(6) 0.5841(6) 0.4037(4)
H9 H 0.3143 0.5554 0.4353
C15 C 0.2434(6) 0.5284(6) 0.3637(4)
H10 H 0.2424 0.4641 0.3689
C16 C 0.1123(6) 0.2586(7) 0.2402(3)
C17 C 0.1591(8) 0.2144(10) 0.2846(4)
H11 H 0.1900 0.2495 0.3125
C18 C 0.1600(10) 0.1182(12) 0.2876(5)
H12 H 0.1907 0.0913 0.3188
C19 C 0.0747(7) 0.1031(8) 0.2079(5)
H13 H 0.0437 0.0659 0.1811
C20 C 0.0692(6) 0.1995(7) 0.2008(4)
H14 H 0.0366 0.2244 0.1697
Cd4 Cd 0.35305(3) 0.76700(4) 0.47447(3)
N1 N 0.9126(4) 0.6445(5) 0.0515(3)
C1 C 0.9386(6) 0.6852(6) 0.0989(5)
H1 H 0.9247 0.7477 0.1023
C2 C 0.9847(6) 0.6430(6) 0.1440(4)
H2 H 0.9994 0.6758 0.1767
C4 C 0.9815(6) 0.5074(6) 0.0898(4)
H3 H 0.9956 0.4454 0.0849
C5 C 0.9345(6) 0.5550(6) 0.0479(4)
H4 H 0.9168 0.5236 0.0150
O7 O 0.7786(3) 0.8372(3) 0.0307(2)
Cd1 Cd 0.85305(3) 0.73300(4) 0.97447(3)
O1 O 0.9650(3) 0.8189(4) 0.9881(3)
O2 O 0.9959(4) 0.7198(4) 0.9265(2)
H15 H 0.9948 0.9688 0.9453
O5 O 0.8120(3) 0.5915(4) 0.9292(2)
O6 O 0.7214(3) 0.6628(3) 0.9693(2)
N5 N 0.7918(4) 0.8252(4) 0.9002(3)
Cd1_2 Cd 0.14695(3) 0.73300(4) 0.52553(3)
O1_2 O 0.0350(3) 0.8189(4) 0.5119(3)
O2_2 O 0.0041(4) 0.7198(4) 0.5735(2)
N1_2 N 0.0874(4) 0.6445(5) 0.4485(3)
C1_2 C 0.0614(6) 0.6852(6) 0.4011(5)
H1_2 H 0.0753 0.7477 0.3977
C2_2 C 0.0153(6) 0.6430(6) 0.3560(4)
H2_2 H 0.0006 0.6758 0.3233
C4_2 C 0.0185(6) 0.5074(6) 0.4102(4)
H3_2 H 0.0044 0.4454 0.4151
C5_2 C 0.0655(6) 0.5550(6) 0.4521(4)
H4_2 H 0.0832 0.5236 0.4850
H15_2 H 0.0052 0.9688 0.5547
O5_2 O 0.1880(3) 0.5915(4) 0.5708(2)
O6_2 O 0.2786(3) 0.6628(3) 0.5307(2)
O7_2 O 0.2214(3) 0.8372(3) 0.4693(2)
N5_2 N 0.2082(4) 0.8252(4) 0.5998(3)
O3_2 O 0.6880(3) 0.0915(4) 0.5708(2)
O4_2 O 0.7786(3) 0.1628(3) 0.5307(2)
C24_2 C 0.8939(5) 0.0275(5) 0.5580(3)
H16_2 H 0.9113 0.0892 0.5573
C25_2 C 0.8124(5) 0.0080(5) 0.5610(3)
C32_2 C 0.7552(5) 0.0918(5) 0.5535(3)
Cd2_2 Cd 0.64695(3) 0.23300(4) 0.52553(3)
Cd3_2 Cd 0.85305(3) 0.26700(4) 0.47447(3)
N2_2 N 0.7082(4) 0.6748(4) 0.0998(3)
N3_2 N 0.8796(7) 0.0606(7) 0.2505(5)
N4_2 N 0.8935(5) 0.5540(6) 0.2720(3)
C3_2 C 0.9912(5) 0.5515(6) 0.3599(3)
C6_2 C 0.9398(5) 0.5022(6) 0.3127(3)
C7_2 C 0.9393(5) 0.4048(6) 0.3096(4)
H5_2 H 0.9710 0.3696 0.3371
C8_2 C 0.8904(5) 0.3605(7) 0.2649(3)
C9_2 C 0.8443(5) 0.4158(6) 0.2255(3)
H6_2 H 0.8106 0.3873 0.1961
C10_2 C 0.8464(5) 0.5091(6) 0.2282(4)
C11_2 C 0.7982(5) 0.5668(6) 0.1837(3)
C12_2 C 0.7918(6) 0.6621(7) 0.1887(4)
H7_2 H 0.8172 0.6921 0.2205
C13_2 C 0.7474(6) 0.7128(6) 0.1460(4)
H8_2 H 0.7449 0.7773 0.1498
C14_2 C 0.7133(6) 0.5841(6) 0.0963(4)
H9_2 H 0.6857 0.5554 0.0647
C15_2 C 0.7566(6) 0.5284(6) 0.1363(4)
H10_2 H 0.7576 0.4641 0.1311
C16_2 C 0.8877(6) 0.2586(7) 0.2598(3)
C17_2 C 0.8409(8) 0.2144(10) 0.2154(4)
H11_2 H 0.8100 0.2495 0.1875
C18_2 C 0.8400(10) 0.1182(12) 0.2124(5)
H12_2 H 0.8093 0.0913 0.1812
C19_2 C 0.9253(7) 0.1031(8) 0.2921(5)
H13_2 H 0.9563 0.0659 0.3189
C20_2 C 0.9308(6) 0.1995(7) 0.2992(4)
H14_2 H 0.9634 0.2244 0.3303
C21 C 0.9923(5) 0.7929(5) 0.5471(3)
C22 C 0.9271(5) 0.8632(5) 0.5565(3)
C23 C 0.9504(5) 0.9545(5) 0.5562(3)
C26 C 0.7864(5) 0.9147(5) 0.5651(3)
C27 C 0.8443(5) 0.8400(5) 0.5632(3)
C28 C 0.8174(5) 0.7458(5) 0.5653(3)
H17 H 0.8544 0.6973 0.5634
C29 C 0.7383(6) 0.7264(6) 0.5701(3)
H18 H 0.7214 0.6646 0.5716
C30 C 0.6816(5) 0.7987(6) 0.5727(4)
H19 H 0.6275 0.7841 0.5761
C31 C 0.7041(5) 0.8890(6) 0.5703(3)
H20 H 0.6652 0.9355 0.5721
Cd4_2 Cd 0.64695(3) 0.76700(4) 0.02553(3)
N1_3 N 0.4126(4) 0.1445(5) 0.0515(3)
N2_3 N 0.7918(4) 0.1748(4) 0.4002(3)
N4_3 N 0.6065(5) 0.0540(6) 0.2280(3)
C1_3 C 0.4386(6) 0.1852(6) 0.0989(5)
H1_3 H 0.4247 0.2477 0.1023
C2_3 C 0.4847(6) 0.1430(6) 0.1440(4)
H2_3 H 0.4994 0.1758 0.1767
C3_3 C 0.5088(5) 0.0515(6) 0.1401(3)
C4_3 C 0.4815(6) 0.0074(6) 0.0898(4)
C5_3 C 0.4345(6) 0.0550(6) 0.0479(4)
H4_3 H 0.4168 0.0236 0.0150
C6_3 C 0.5602(5) 0.0022(6) 0.1873(3)
C10_3 C 0.6536(5) 0.0091(6) 0.2718(4)
C11_3 C 0.7018(5) 0.0668(6) 0.3163(3)
C12_3 C 0.7082(6) 0.1621(7) 0.3113(4)
H7_3 H 0.6828 0.1921 0.2795
C13_3 C 0.7526(6) 0.2128(6) 0.3540(4)
H8_3 H 0.7551 0.2773 0.3502
C14_3 C 0.7867(6) 0.0841(6) 0.4037(4)
H9_3 H 0.8143 0.0554 0.4353
C15_3 C 0.7434(6) 0.0284(6) 0.3637(4)
O7_3 O 0.2786(3) 0.3372(3) 0.0307(2)
O1_3 O 0.4650(3) 0.3189(4) 0.9881(3)
O2_3 O 0.4959(4) 0.2198(4) 0.9265(2)
C21_2 C 0.5077(5) 0.2929(5) 0.9529(3)
C22_2 C 0.5729(5) 0.3632(5) 0.9435(3)
C23_2 C 0.5496(5) 0.4545(5) 0.9438(3)
H15_3 H 0.4948 0.4688 0.9453
C24_3 C 0.6061(5) 0.5275(5) 0.9420(3)
H16_3 H 0.5887 0.5892 0.9427
C25_3 C 0.6876(5) 0.5080(5) 0.9390(3)
C26_2 C 0.7136(5) 0.4147(5) 0.9349(3)
C27_2 C 0.6557(5) 0.3400(5) 0.9368(3)
C28_2 C 0.6826(5) 0.2458(5) 0.9347(3)
H17_2 H 0.6456 0.1973 0.9366
C29_2 C 0.7617(6) 0.2264(6) 0.9299(3)
H18_2 H 0.7786 0.1646 0.9284
C30_2 C 0.8184(5) 0.2987(6) 0.9273(4)
H19_2 H 0.8725 0.2841 0.9239
C31_2 C 0.7959(5) 0.3890(6) 0.9297(3)
H20_2 H 0.8348 0.4355 0.9279
C32_3 C 0.7448(5) 0.5918(5) 0.9465(3)
N5_3 N 0.2918(4) 0.3252(4) 0.9002(3)
O1_4 O 0.5350(3) 0.3189(4) 0.5119(3)
O2_4 O 0.5041(4) 0.2198(4) 0.5735(2)
N1_4 N 0.5874(4) 0.1445(5) 0.4485(3)
N2_4 N 0.2082(4) 0.1748(4) 0.0998(3)
N4_4 N 0.3935(5) 0.0540(6) 0.2720(3)
C1_4 C 0.5614(6) 0.1852(6) 0.4011(5)
H1_4 H 0.5753 0.2477 0.3977
C2_4 C 0.5153(6) 0.1430(6) 0.3560(4)
H2_4 H 0.5006 0.1758 0.3233
C3_4 C 0.4912(5) 0.0515(6) 0.3599(3)
C4_4 C 0.5185(6) 0.0074(6) 0.4102(4)
C5_4 C 0.5655(6) 0.0550(6) 0.4521(4)
H4_4 H 0.5832 0.0236 0.4850
C6_4 C 0.4398(5) 0.0022(6) 0.3127(3)
C10_4 C 0.3464(5) 0.0091(6) 0.2282(4)
C11_4 C 0.2982(5) 0.0668(6) 0.1837(3)
C12_4 C 0.2918(6) 0.1621(7) 0.1887(4)
H7_4 H 0.3172 0.1921 0.2205
C13_4 C 0.2474(6) 0.2128(6) 0.1460(4)
H8_4 H 0.2449 0.2773 0.1498
C14_4 C 0.2133(6) 0.0841(6) 0.0963(4)
H9_4 H 0.1857 0.0554 0.0647
C15_4 C 0.2566(6) 0.0284(6) 0.1363(4)
C21_3 C 0.4923(5) 0.2929(5) 0.5471(3)
C22_3 C 0.4271(5) 0.3632(5) 0.5565(3)
C23_3 C 0.4504(5) 0.4545(5) 0.5562(3)
H15_4 H 0.5052 0.4688 0.5547
C24_4 C 0.3939(5) 0.5275(5) 0.5580(3)
H16_4 H 0.4113 0.5892 0.5573
C25_4 C 0.3124(5) 0.5080(5) 0.5610(3)
C26_3 C 0.2864(5) 0.4147(5) 0.5651(3)
C27_3 C 0.3443(5) 0.3400(5) 0.5632(3)
C28_3 C 0.3174(5) 0.2458(5) 0.5653(3)
H17_3 H 0.3544 0.1973 0.5634
C29_3 C 0.2383(6) 0.2264(6) 0.5701(3)
H18_3 H 0.2214 0.1646 0.5716
C30_3 C 0.1816(5) 0.2987(6) 0.5727(4)
H19_3 H 0.1275 0.2841 0.5761
C31_3 C 0.2041(5) 0.3890(6) 0.5703(3)
H20_3 H 0.1652 0.4355 0.5721
C32_4 C 0.2552(5) 0.5918(5) 0.5535(3)
O7_4 O 0.7214(3) 0.3372(3) 0.4693(2)
N5_4 N 0.7082(4) 0.3252(4) 0.5998(3)
O1_5 O 0.0350(3) 0.1811(4) 0.0119(3)
O2_5 O 0.0041(4) 0.2802(4) 0.0735(2)
H15_5 H 0.0052 0.0312 0.0547
O5_3 O 0.1880(3) 0.4085(4) 0.0708(2)
N1_5 N 0.0874(4) 0.3555(5) 0.9485(3)
C1_5 C 0.0614(6) 0.3148(6) 0.9011(5)
H1_5 H 0.0753 0.2523 0.8977
C2_5 C 0.0153(6) 0.3570(6) 0.8560(4)
H2_5 H 0.0006 0.3242 0.8233
C4_5 C 0.0185(6) 0.4926(6) 0.9102(4)
H3_3 H 0.0044 0.5546 0.9151
C5_5 C 0.0655(6) 0.4450(6) 0.9521(4)
H4_5 H 0.0832 0.4764 0.9850
N3_3 N 0.8796(7) 0.9394(7) 0.7505(5)
N4_5 N 0.8935(5) 0.4460(6) 0.7720(3)
C3_5 C 0.9912(5) 0.4485(6) 0.8599(3)
C6_5 C 0.9398(5) 0.4978(6) 0.8127(3)
C7_3 C 0.9393(5) 0.5952(6) 0.8096(4)
H5_3 H 0.9710 0.6304 0.8371
C8_3 C 0.8904(5) 0.6395(7) 0.7649(3)
C9_3 C 0.8443(5) 0.5842(6) 0.7255(3)
H6_3 H 0.8106 0.6127 0.6961
C10_5 C 0.8464(5) 0.4909(6) 0.7282(4)
C11_5 C 0.7982(5) 0.4332(6) 0.6837(3)
C12_5 C 0.7918(6) 0.3379(7) 0.6887(4)
H7_5 H 0.8172 0.3079 0.7205
C13_5 C 0.7474(6) 0.2872(6) 0.6460(4)
H8_5 H 0.7449 0.2227 0.6498
C14_5 C 0.7133(6) 0.4159(6) 0.5963(4)
H9_5 H 0.6857 0.4446 0.5647
C15_5 C 0.7566(6) 0.4716(6) 0.6363(4)
H10_3 H 0.7576 0.5359 0.6311
C16_3 C 0.8877(6) 0.7414(7) 0.7598(3)
C17_3 C 0.8409(8) 0.7856(10) 0.7154(4)
H11_3 H 0.8100 0.7505 0.6875
C18_3 C 0.8400(10) 0.8818(12) 0.7124(5)
H12_3 H 0.8093 0.9087 0.6812
C19_3 C 0.9253(7) 0.8969(8) 0.7921(5)
H13_3 H 0.9563 0.9341 0.8189
C20_3 C 0.9308(6) 0.8005(7) 0.7992(4)
H14_3 H 0.9634 0.7756 0.8303
O3_3 O 0.6880(3) 0.9085(4) 0.0708(2)
C24_5 C 0.8939(5) 0.9725(5) 0.0580(3)
H16_5 H 0.9113 0.9108 0.0573
C25_5 C 0.8124(5) 0.9920(5) 0.0610(3)
C32_5 C 0.7552(5) 0.9082(5) 0.0535(3)
N3_4 N 0.1204(7) 0.9394(7) 0.7495(5)
N4_6 N 0.1065(5) 0.4460(6) 0.7280(3)
C3_6 C 0.0088(5) 0.4485(6) 0.6401(3)
C6_6 C 0.0602(5) 0.4978(6) 0.6873(3)
C7_4 C 0.0607(5) 0.5952(6) 0.6904(4)
H5_4 H 0.0290 0.6304 0.6629
C8_4 C 0.1096(5) 0.6395(7) 0.7351(3)
C9_4 C 0.1557(5) 0.5842(6) 0.7745(3)
H6_4 H 0.1894 0.6127 0.8039
C10_6 C 0.1536(5) 0.4909(6) 0.7718(4)
C11_6 C 0.2018(5) 0.4332(6) 0.8163(3)
C12_6 C 0.2082(6) 0.3379(7) 0.8113(4)
H7_6 H 0.1828 0.3079 0.7795
C13_6 C 0.2526(6) 0.2872(6) 0.8540(4)
H8_6 H 0.2551 0.2227 0.8502
C14_6 C 0.2867(6) 0.4159(6) 0.9037(4)
H9_6 H 0.3143 0.4446 0.9353
C15_6 C 0.2434(6) 0.4716(6) 0.8637(4)
H10_4 H 0.2424 0.5359 0.8689
C16_4 C 0.1123(6) 0.7414(7) 0.7402(3)
C17_4 C 0.1591(8) 0.7856(10) 0.7846(4)
H11_4 H 0.1900 0.7505 0.8125
C18_4 C 0.1600(10) 0.8818(12) 0.7876(5)
H12_4 H 0.1907 0.9087 0.8188
C19_4 C 0.0747(7) 0.8969(8) 0.7079(5)
H13_4 H 0.0437 0.9341 0.6811
C20_4 C 0.0692(6) 0.8005(7) 0.7008(4)
H14_4 H 0.0366 0.7756 0.6697
C21_4 C 0.0077(5) 0.2071(5) 0.4529(3)
C22_4 C 0.0729(5) 0.1368(5) 0.4435(3)
C23_4 C 0.0496(5) 0.0455(5) 0.4438(3)
C26_4 C 0.2136(5) 0.0853(5) 0.4349(3)
C27_4 C 0.1557(5) 0.1600(5) 0.4368(3)
C28_4 C 0.1826(5) 0.2542(5) 0.4347(3)
H17_4 H 0.1456 0.3027 0.4366
C29_4 C 0.2617(6) 0.2736(6) 0.4299(3)
H18_4 H 0.2786 0.3354 0.4284
C30_4 C 0.3184(5) 0.2013(6) 0.4273(4)
H19_4 H 0.3725 0.2159 0.4239
C31_4 C 0.2959(5) 0.1110(6) 0.4297(3)
H20_4 H 0.3348 0.0645 0.4279
O3_4 O 0.3120(3) 0.9085(4) 0.4292(2)
C24_6 C 0.1061(5) 0.9725(5) 0.4420(3)
H16_6 H 0.0887 0.9108 0.4427
C25_6 C 0.1876(5) 0.9920(5) 0.4390(3)
C32_6 C 0.2448(5) 0.9082(5) 0.4465(3)
O1_6 O 0.9650(3) 0.1811(4) 0.4881(3)
O2_6 O 0.9959(4) 0.2802(4) 0.4265(2)
N1_6 N 0.9126(4) 0.3555(5) 0.5515(3)
C1_6 C 0.9386(6) 0.3148(6) 0.5989(5)
H1_6 H 0.9247 0.2523 0.6023
C2_6 C 0.9847(6) 0.3570(6) 0.6440(4)
H2_6 H 0.9994 0.3242 0.6767
C4_6 C 0.9815(6) 0.4926(6) 0.5898(4)
H3_4 H 0.9956 0.5546 0.5849
C5_6 C 0.9345(6) 0.4450(6) 0.5479(4)
H4_6 H 0.9168 0.4764 0.5150
H15_6 H 0.9948 0.0312 0.4453
O5_4 O 0.8120(3) 0.4085(4) 0.4292(2)
O1_7 O 0.5350(3) 0.6811(4) 0.0119(3)
O2_7 O 0.5041(4) 0.7802(4) 0.0735(2)
C21_5 C 0.4923(5) 0.7071(5) 0.0471(3)
C22_5 C 0.4271(5) 0.6368(5) 0.0565(3)
C23_5 C 0.4504(5) 0.5455(5) 0.0562(3)
H15_7 H 0.5052 0.5312 0.0547
C24_7 C 0.3939(5) 0.4725(5) 0.0580(3)
H16_7 H 0.4113 0.4108 0.0573
C25_7 C 0.3124(5) 0.4920(5) 0.0610(3)
C26_5 C 0.2864(5) 0.5853(5) 0.0651(3)
C27_5 C 0.3443(5) 0.6600(5) 0.0632(3)
C28_5 C 0.3174(5) 0.7542(5) 0.0653(3)
H17_5 H 0.3544 0.8027 0.0634
C29_5 C 0.2383(6) 0.7736(6) 0.0701(3)
H18_5 H 0.2214 0.8354 0.0716
C30_5 C 0.1816(5) 0.7013(6) 0.0727(4)
H19_5 H 0.1275 0.7159 0.0761
C31_5 C 0.2041(5) 0.6110(6) 0.0703(3)
H20_5 H 0.1652 0.5645 0.0721
C32_7 C 0.2552(5) 0.4082(5) 0.0535(3)
N1_7 N 0.5874(4) 0.8555(5) 0.9485(3)
N4_7 N 0.3935(5) 0.9460(6) 0.7720(3)
C1_7 C 0.5614(6) 0.8148(6) 0.9011(5)
H1_7 H 0.5753 0.7523 0.8977
C2_7 C 0.5153(6) 0.8570(6) 0.8560(4)
H2_7 H 0.5006 0.8242 0.8233
C3_7 C 0.4912(5) 0.9485(6) 0.8599(3)
C4_7 C 0.5185(6) 0.9926(6) 0.9102(4)
C5_7 C 0.5655(6) 0.9450(6) 0.9521(4)
H4_7 H 0.5832 0.9764 0.9850
C6_7 C 0.4398(5) 0.9978(6) 0.8127(3)
C10_7 C 0.3464(5) 0.9909(6) 0.7282(4)
C11_7 C 0.2982(5) 0.9332(6) 0.6837(3)
C12_7 C 0.2918(6) 0.8379(7) 0.6887(4)
H7_7 H 0.3172 0.8079 0.7205
C13_7 C 0.2474(6) 0.7872(6) 0.6460(4)
H8_7 H 0.2449 0.7227 0.6498
C14_7 C 0.2133(6) 0.9159(6) 0.5963(4)
H9_7 H 0.1857 0.9446 0.5647
C15_7 C 0.2566(6) 0.9716(6) 0.6363(4)
O1_8 O 0.4650(3) 0.6811(4) 0.4881(3)
O2_8 O 0.4959(4) 0.7802(4) 0.4265(2)
N1_8 N 0.4126(4) 0.8555(5) 0.5515(3)
N4_8 N 0.6065(5) 0.9460(6) 0.7280(3)
C1_8 C 0.4386(6) 0.8148(6) 0.5989(5)
H1_8 H 0.4247 0.7523 0.6023
C2_8 C 0.4847(6) 0.8570(6) 0.6440(4)
H2_8 H 0.4994 0.8242 0.6767
C3_8 C 0.5088(5) 0.9485(6) 0.6401(3)
C4_8 C 0.4815(6) 0.9926(6) 0.5898(4)
C5_8 C 0.4345(6) 0.9450(6) 0.5479(4)
H4_8 H 0.4168 0.9764 0.5150
C6_8 C 0.5602(5) 0.9978(6) 0.6873(3)
C10_8 C 0.6536(5) 0.9909(6) 0.7718(4)
C11_8 C 0.7018(5) 0.9332(6) 0.8163(3)
C12_8 C 0.7082(6) 0.8379(7) 0.8113(4)
H7_8 H 0.6828 0.8079 0.7795
C13_8 C 0.7526(6) 0.7872(6) 0.8540(4)
H8_8 H 0.7551 0.7227 0.8502
C14_8 C 0.7867(6) 0.9159(6) 0.9037(4)
H9_8 H 0.8143 0.9446 0.9353
C15_8 C 0.7434(6) 0.9716(6) 0.8637(4)
C21_6 C 0.5077(5) 0.7071(5) 0.4529(3)
C22_6 C 0.5729(5) 0.6368(5) 0.4435(3)
C23_6 C 0.5496(5) 0.5455(5) 0.4438(3)
H15_8 H 0.4948 0.5312 0.4453
C24_8 C 0.6061(5) 0.4725(5) 0.4420(3)
H16_8 H 0.5887 0.4108 0.4427
C25_8 C 0.6876(5) 0.4920(5) 0.4390(3)
C26_6 C 0.7136(5) 0.5853(5) 0.4349(3)
C27_6 C 0.6557(5) 0.6600(5) 0.4368(3)
C28_6 C 0.6826(5) 0.7542(5) 0.4347(3)
H17_6 H 0.6456 0.8027 0.4366
C29_6 C 0.7617(6) 0.7736(6) 0.4299(3)
H18_6 H 0.7786 0.8354 0.4284
C30_6 C 0.8184(5) 0.7013(6) 0.4273(4)
H19_6 H 0.8725 0.7159 0.4239
C31_6 C 0.7959(5) 0.6110(6) 0.4297(3)
H20_6 H 0.8348 0.5645 0.4279
C32_8 C 0.7448(5) 0.4082(5) 0.4465(3)
C21_7 C 0.0077(5) 0.7929(5) 0.9529(3)
C22_7 C 0.0729(5) 0.8632(5) 0.9435(3)
C23_7 C 0.0496(5) 0.9545(5) 0.9438(3)
C26_7 C 0.2136(5) 0.9147(5) 0.9349(3)
C27_7 C 0.1557(5) 0.8400(5) 0.9368(3)
C28_7 C 0.1826(5) 0.7458(5) 0.9347(3)
H17_7 H 0.1456 0.6973 0.9366
C29_7 C 0.2617(6) 0.7264(6) 0.9299(3)
H18_7 H 0.2786 0.6646 0.9284
C30_7 C 0.3184(5) 0.7987(6) 0.9273(4)
H19_7 H 0.3725 0.7841 0.9239
C31_7 C 0.2959(5) 0.8890(6) 0.9297(3)
H20_7 H 0.3348 0.9355 0.9279
N3_5 N 0.6204(7) 0.5606(7) 0.2495(5)
H3_5 H 0.4956 0.9454 0.0849
C7_5 C 0.5607(5) 0.9048(6) 0.1904(4)
H5_5 H 0.5290 0.8696 0.1629
C8_5 C 0.6096(5) 0.8605(7) 0.2351(3)
C9_5 C 0.6557(5) 0.9158(6) 0.2745(3)
H6_5 H 0.6894 0.8873 0.3039
H10_5 H 0.7424 0.9641 0.3689
C16_5 C 0.6123(6) 0.7586(7) 0.2402(3)
C17_5 C 0.6591(8) 0.7144(10) 0.2846(4)
H11_5 H 0.6900 0.7495 0.3125
C18_5 C 0.6600(10) 0.6182(12) 0.2876(5)
H12_5 H 0.6907 0.5913 0.3188
C19_5 C 0.5747(7) 0.6031(8) 0.2079(5)
H13_5 H 0.5437 0.5659 0.1811
C20_5 C 0.5692(6) 0.6995(7) 0.2008(4)
H14_5 H 0.5366 0.7244 0.1697
N3_6 N 0.3796(7) 0.5606(7) 0.2505(5)
H3_6 H 0.5044 0.9454 0.4151
C7_6 C 0.4393(5) 0.9048(6) 0.3096(4)
H5_6 H 0.4710 0.8696 0.3371
C8_6 C 0.3904(5) 0.8605(7) 0.2649(3)
C9_6 C 0.3443(5) 0.9158(6) 0.2255(3)
H6_6 H 0.3106 0.8873 0.1961
H10_6 H 0.2576 0.9641 0.1311
C16_6 C 0.3877(6) 0.7586(7) 0.2598(3)
C17_6 C 0.3409(8) 0.7144(10) 0.2154(4)
H11_6 H 0.3100 0.7495 0.1875
C18_6 C 0.3400(10) 0.6182(12) 0.2124(5)
H12_6 H 0.3093 0.5913 0.1812
C19_6 C 0.4253(7) 0.6031(8) 0.2921(5)
H13_6 H 0.4563 0.5659 0.3189
C20_6 C 0.4308(6) 0.6995(7) 0.2992(4)
H14_6 H 0.4634 0.7244 0.3303
C21_8 C 0.9923(5) 0.2071(5) 0.0471(3)
C22_8 C 0.9271(5) 0.1368(5) 0.0565(3)
C23_8 C 0.9504(5) 0.0455(5) 0.0562(3)
C26_8 C 0.7864(5) 0.0853(5) 0.0651(3)
C27_8 C 0.8443(5) 0.1600(5) 0.0632(3)
C28_8 C 0.8174(5) 0.2542(5) 0.0653(3)
H17_8 H 0.8544 0.3027 0.0634
C29_8 C 0.7383(6) 0.2736(6) 0.0701(3)
H18_8 H 0.7214 0.3354 0.0716
C30_8 C 0.6816(5) 0.2013(6) 0.0727(4)
H19_8 H 0.6275 0.2159 0.0761
C31_8 C 0.7041(5) 0.1110(6) 0.0703(3)
H20_8 H 0.6652 0.0645 0.0721
N3_7 N 0.3796(7) 0.4394(7) 0.7505(5)
H3_7 H 0.5044 0.0546 0.9151
C7_7 C 0.4393(5) 0.0952(6) 0.8096(4)
H5_7 H 0.4710 0.1304 0.8371
C8_7 C 0.3904(5) 0.1395(7) 0.7649(3)
C9_7 C 0.3443(5) 0.0842(6) 0.7255(3)
H6_7 H 0.3106 0.1127 0.6961
H10_7 H 0.2576 0.0359 0.6311
C16_7 C 0.3877(6) 0.2414(7) 0.7598(3)
C17_7 C 0.3409(8) 0.2856(10) 0.7154(4)
H11_7 H 0.3100 0.2505 0.6875
C18_7 C 0.3400(10) 0.3818(12) 0.7124(5)
H12_7 H 0.3093 0.4087 0.6812
C19_7 C 0.4253(7) 0.3969(8) 0.7921(5)
H13_7 H 0.4563 0.4341 0.8189
C20_7 C 0.4308(6) 0.3005(7) 0.7992(4)
H14_7 H 0.4634 0.2756 0.8303
N3_8 N 0.6204(7) 0.4394(7) 0.7495(5)
H3_8 H 0.4956 0.0546 0.5849
C7_8 C 0.5607(5) 0.0952(6) 0.6904(4)
H5_8 H 0.5290 0.1304 0.6629
C8_8 C 0.6096(5) 0.1395(7) 0.7351(3)
C9_8 C 0.6557(5) 0.0842(6) 0.7745(3)
H6_8 H 0.6894 0.1127 0.8039
H10_8 H 0.7424 0.0359 0.8689
C16_8 C 0.6123(6) 0.2414(7) 0.7402(3)
C17_8 C 0.6591(8) 0.2856(10) 0.7846(4)
H11_8 H 0.6900 0.2505 0.8125
C18_8 C 0.6600(10) 0.3818(12) 0.7876(5)
H12_8 H 0.6907 0.4087 0.8188
C19_8 C 0.5747(7) 0.3969(8) 0.7079(5)
H13_8 H 0.5437 0.4341 0.6811
C20_8 C 0.5692(6) 0.3005(7) 0.7008(4)
H14_8 H 0.5366 0.2756 0.6697
loop_
_geom_bond_atom_site_label_1
_geom_bond_atom_site_label_2
_geom_bond_site_symmetry_1
_geom_bond_site_symmetry_2
O3 C32 1_555 1_555
O4 C32 1_555 1_555
H16 C24 1_555 1_555
C25 C24 1_555 1_555
C32 C25 1_555 1_555
Cd2 O3 1_555 1_555
O4 Cd2 1_555 1_555
N2 C13 1_555 1_555
N3 C18 1_555 1_555
N4 C6 1_555 1_555
C6 C3 1_555 1_555
C7 C6 1_555 1_555
H5 C7 1_555 1_555
C8 C7 1_555 1_555
C9 C8 1_555 1_555
H6 C9 1_555 1_555
C10 N4 1_555 1_555
C11 C10 1_555 1_555
C12 C11 1_555 1_555
H7 C12 1_555 1_555
C13 C12 1_555 1_555
H8 C13 1_555 1_555
C14 N2 1_555 1_555
H9 C14 1_555 1_555
C15 C11 1_555 1_555
H10 C15 1_555 1_555
C16 C8 1_555 1_555
C17 C16 1_555 1_555
H11 C17 1_555 1_555
C18 C17 1_555 1_555
H12 C18 1_555 1_555
C19 N3 1_555 1_555
H13 C19 1_555 1_555
C20 C16 1_555 1_555
H14 C20 1_555 1_555
Cd4 N2 1_555 1_555
C9 C10 1_555 1_555
C14 C15 1_555 1_555
C19 C20 1_555 1_555
C1 N1 1_555 1_555
H1 C1 1_555 1_555
C2 C1 1_555 1_555
H2 C2 1_555 1_555
H3 C4 1_555 1_555
C5 N1 1_555 1_555
H4 C5 1_555 1_555
C4 C5 1_555 1_555
Cd1 O1 1_555 1_555
O2 Cd1 1_555 1_555
O5 Cd1 1_555 1_555
O6 Cd1 1_555 1_555
N5 Cd1 1_555 1_555
Cd1_2 O1_2 1_555 1_555
O2_2 Cd1_2 1_555 1_555
N1_2 Cd1_2 1_555 1_555
C1_2 N1_2 1_555 1_555
H1_2 C1_2 1_555 1_555
C2_2 C1_2 1_555 1_555
H2_2 C2_2 1_555 1_555
H3_2 C4_2 1_555 1_555
C5_2 N1_2 1_555 1_555
H4_2 C5_2 1_555 1_555
O5_2 Cd1_2 1_555 1_555
O6_2 Cd1_2 1_555 1_555
O7_2 Cd1_2 1_555 1_555
N5_2 Cd1_2 1_555 1_555
C4_2 C5_2 1_555 1_555
O3_2 C32_2 1_555 1_555
O4_2 C32_2 1_555 1_555
H16_2 C24_2 1_555 1_555
C25_2 C24_2 1_555 1_555
C32_2 C25_2 1_555 1_555
Cd2_2 O3_2 1_555 1_555
Cd3_2 O4_2 1_555 1_555
O4_2 Cd2_2 1_555 1_555
N2_2 C13_2 1_555 1_555
N3_2 C18_2 1_555 1_555
N4_2 C6_2 1_555 1_555
C6_2 C3_2 1_555 1_555
C7_2 C6_2 1_555 1_555
H5_2 C7_2 1_555 1_555
C8_2 C7_2 1_555 1_555
C9_2 C8_2 1_555 1_555
H6_2 C9_2 1_555 1_555
C10_2 N4_2 1_555 1_555
C11_2 C10_2 1_555 1_555
C12_2 C11_2 1_555 1_555
H7_2 C12_2 1_555 1_555
C13_2 C12_2 1_555 1_555
H8_2 C13_2 1_555 1_555
C14_2 N2_2 1_555 1_555
H9_2 C14_2 1_555 1_555
C15_2 C11_2 1_555 1_555
H10_2 C15_2 1_555 1_555
C16_2 C8_2 1_555 1_555
C17_2 C16_2 1_555 1_555
H11_2 C17_2 1_555 1_555
C18_2 C17_2 1_555 1_555
H12_2 C18_2 1_555 1_555
C19_2 N3_2 1_555 1_555
H13_2 C19_2 1_555 1_555
C20_2 C16_2 1_555 1_555
H14_2 C20_2 1_555 1_555
C22 C21 1_555 1_555
C23 C22 1_555 1_555
C27 C22 1_555 1_555
C28 C27 1_555 1_555
H17 C28 1_555 1_555
C29 C28 1_555 1_555
H18 C29 1_555 1_555
C30 C29 1_555 1_555
H19 C30 1_555 1_555
C31 C26 1_555 1_555
H20 C31 1_555 1_555
Cd4_2 N2_2 1_555 1_555
C9_2 C10_2 1_555 1_555
C14_2 C15_2 1_555 1_555
C19_2 C20_2 1_555 1_555
C26 C27 1_555 1_555
C30 C31 1_555 1_555
N2_3 C13_3 1_555 1_555
N4_3 C6_3 1_555 1_555
C1_3 N1_3 1_555 1_555
H1_3 C1_3 1_555 1_555
C2_3 C1_3 1_555 1_555
H2_3 C2_3 1_555 1_555
C3_3 C2_3 1_555 1_555
C4_3 C3_3 1_555 1_555
C5_3 N1_3 1_555 1_555
H4_3 C5_3 1_555 1_555
C6_3 C3_3 1_555 1_555
C10_3 N4_3 1_555 1_555
C11_3 C10_3 1_555 1_555
C12_3 C11_3 1_555 1_555
H7_3 C12_3 1_555 1_555
C13_3 C12_3 1_555 1_555
H8_3 C13_3 1_555 1_555
C14_3 N2_3 1_555 1_555
H9_3 C14_3 1_555 1_555
C15_3 C11_3 1_555 1_555
Cd3_2 N2_3 1_555 1_555
C4_3 C5_3 1_555 1_555
C14_3 C15_3 1_555 1_555
Cd2 O1_3 1_555 1_555
O1_3 C21_2 1_555 1_555
O2_3 Cd2 1_555 1_555
O5 C32_3 1_555 1_555
O6 C32_3 1_555 1_555
C21_2 O2_3 1_555 1_555
C22_2 C21_2 1_555 1_555
C23_2 C22_2 1_555 1_555
H15_3 C23_2 1_555 1_555
C24_3 C23_2 1_555 1_555
H16_3 C24_3 1_555 1_555
C25_3 C24_3 1_555 1_555
C26_2 C25_3 1_555 1_555
C27_2 C22_2 1_555 1_555
C28_2 C27_2 1_555 1_555
H17_2 C28_2 1_555 1_555
C29_2 C28_2 1_555 1_555
H18_2 C29_2 1_555 1_555
C30_2 C29_2 1_555 1_555
H19_2 C30_2 1_555 1_555
C31_2 C26_2 1_555 1_555
H20_2 C31_2 1_555 1_555
C32_3 C25_3 1_555 1_555
N5_3 Cd2 1_555 1_555
C26_2 C27_2 1_555 1_555
C30_2 C31_2 1_555 1_555
Cd2_2 O1_4 1_555 1_555
O1_4 C21_3 1_555 1_555
O2_4 Cd2_2 1_555 1_555
O5_2 C32_4 1_555 1_555
O6_2 C32_4 1_555 1_555
N1_4 Cd2_2 1_555 1_555
N2_4 C13_4 1_555 1_555
N4_4 C6_4 1_555 1_555
C1_4 N1_4 1_555 1_555
H1_4 C1_4 1_555 1_555
C2_4 C1_4 1_555 1_555
H2_4 C2_4 1_555 1_555
C3_4 C2_4 1_555 1_555
C4_4 C3_4 1_555 1_555
C5_4 N1_4 1_555 1_555
H4_4 C5_4 1_555 1_555
C6_4 C3_4 1_555 1_555
C10_4 N4_4 1_555 1_555
C11_4 C10_4 1_555 1_555
C12_4 C11_4 1_555 1_555
H7_4 C12_4 1_555 1_555
C13_4 C12_4 1_555 1_555
H8_4 C13_4 1_555 1_555
C14_4 N2_4 1_555 1_555
H9_4 C14_4 1_555 1_555
C15_4 C11_4 1_555 1_555
C21_3 O2_4 1_555 1_555
C22_3 C21_3 1_555 1_555
C23_3 C22_3 1_555 1_555
H15_4 C23_3 1_555 1_555
C24_4 C23_3 1_555 1_555
H16_4 C24_4 1_555 1_555
C25_4 C24_4 1_555 1_555
C26_3 C25_4 1_555 1_555
C27_3 C22_3 1_555 1_555
C28_3 C27_3 1_555 1_555
H17_3 C28_3 1_555 1_555
C29_3 C28_3 1_555 1_555
H18_3 C29_3 1_555 1_555
C30_3 C29_3 1_555 1_555
H19_3 C30_3 1_555 1_555
C31_3 C26_3 1_555 1_555
H20_3 C31_3 1_555 1_555
C32_4 C25_4 1_555 1_555
Cd4 O6_2 1_555 1_555
Cd3 N2_4 1_555 1_555
O7_4 Cd2_2 1_555 1_555
N5_4 Cd2_2 1_555 1_555
C4_4 C5_4 1_555 1_555
C14_4 C15_4 1_555 1_555
C26_3 C27_3 1_555 1_555
C30_3 C31_3 1_555 1_555
Cd3 O1_5 1_555 1_555
O2_5 Cd3 1_555 1_555
O5_3 Cd3 1_555 1_555
O7_3 Cd3 1_555 1_555
C1_5 N1_5 1_555 1_555
H1_5 C1_5 1_555 1_555
C2_5 C1_5 1_555 1_555
H2_5 C2_5 1_555 1_555
H3_3 C4_5 1_555 1_555
C5_5 N1_5 1_555 1_555
H4_5 C5_5 1_555 1_555
C4_5 C5_5 1_555 1_555
N5_4 C13_5 1_555 1_555
N3_3 C18_3 1_555 1_555
N4_5 C6_5 1_555 1_555
C6_5 C3_5 1_555 1_555
C7_3 C6_5 1_555 1_555
H5_3 C7_3 1_555 1_555
C8_3 C7_3 1_555 1_555
C9_3 C8_3 1_555 1_555
H6_3 C9_3 1_555 1_555
C10_5 N4_5 1_555 1_555
C11_5 C10_5 1_555 1_555
C12_5 C11_5 1_555 1_555
H7_5 C12_5 1_555 1_555
C13_5 C12_5 1_555 1_555
H8_5 C13_5 1_555 1_555
C14_5 N5_4 1_555 1_555
H9_5 C14_5 1_555 1_555
C15_5 C11_5 1_555 1_555
H10_3 C15_5 1_555 1_555
C16_3 C8_3 1_555 1_555
C17_3 C16_3 1_555 1_555
H11_3 C17_3 1_555 1_555
C18_3 C17_3 1_555 1_555
H12_3 C18_3 1_555 1_555
C19_3 N3_3 1_555 1_555
H13_3 C19_3 1_555 1_555
C20_3 C16_3 1_555 1_555
H14_3 C20_3 1_555 1_555
C9_3 C10_5 1_555 1_555
C14_5 C15_5 1_555 1_555
C19_3 C20_3 1_555 1_555
O3_3 C32_5 1_555 1_555
O7 C32_5 1_555 1_555
H16_5 C24_5 1_555 1_555
C25_5 C24_5 1_555 1_555
C32_5 C25_5 1_555 1_555
Cd4_2 O3_3 1_555 1_555
O7 Cd4_2 1_555 1_555
N5_3 C13_6 1_555 1_555
N3_4 C18_4 1_555 1_555
N4_6 C6_6 1_555 1_555
C6_6 C3_6 1_555 1_555
C7_4 C6_6 1_555 1_555
H5_4 C7_4 1_555 1_555
C8_4 C7_4 1_555 1_555
C9_4 C8_4 1_555 1_555
H6_4 C9_4 1_555 1_555
C10_6 N4_6 1_555 1_555
C11_6 C10_6 1_555 1_555
C12_6 C11_6 1_555 1_555
H7_6 C12_6 1_555 1_555
C13_6 C12_6 1_555 1_555
H8_6 C13_6 1_555 1_555
C14_6 N5_3 1_555 1_555
H9_6 C14_6 1_555 1_555
C15_6 C11_6 1_555 1_555
H10_4 C15_6 1_555 1_555
C16_4 C8_4 1_555 1_555
C17_4 C16_4 1_555 1_555
H11_4 C17_4 1_555 1_555
C18_4 C17_4 1_555 1_555
H12_4 C18_4 1_555 1_555
C19_4 N3_4 1_555 1_555
H13_4 C19_4 1_555 1_555
C20_4 C16_4 1_555 1_555
H14_4 C20_4 1_555 1_555
C22_4 C21_4 1_555 1_555
C23_4 C22_4 1_555 1_555
C27_4 C22_4 1_555 1_555
C28_4 C27_4 1_555 1_555
H17_4 C28_4 1_555 1_555
C29_4 C28_4 1_555 1_555
H18_4 C29_4 1_555 1_555
C30_4 C29_4 1_555 1_555
H19_4 C30_4 1_555 1_555
C31_4 C26_4 1_555 1_555
H20_4 C31_4 1_555 1_555
C9_4 C10_6 1_555 1_555
C14_6 C15_6 1_555 1_555
C19_4 C20_4 1_555 1_555
C26_4 C27_4 1_555 1_555
C30_4 C31_4 1_555 1_555
O3_4 C32_6 1_555 1_555
O7_2 C32_6 1_555 1_555
H16_6 C24_6 1_555 1_555
C25_6 C24_6 1_555 1_555
C32_6 C25_6 1_555 1_555
Cd4 O3_4 1_555 1_555
O7_2 Cd4 1_555 1_555
Cd3_2 O1_6 1_555 1_555
O2_6 Cd3_2 1_555 1_555
N1_6 Cd3_2 1_555 1_555
C1_6 N1_6 1_555 1_555
H1_6 C1_6 1_555 1_555
C2_6 C1_6 1_555 1_555
H2_6 C2_6 1_555 1_555
H3_4 C4_6 1_555 1_555
C5_6 N1_6 1_555 1_555
H4_6 C5_6 1_555 1_555
O5_4 Cd3_2 1_555 1_555
O7_4 Cd3_2 1_555 1_555
C4_6 C5_6 1_555 1_555
Cd4_2 O1_7 1_555 1_555
O1_7 C21_5 1_555 1_555
O2_7 Cd4_2 1_555 1_555
O5_3 C32_7 1_555 1_555
O7_3 C32_7 1_555 1_555
C21_5 O2_7 1_555 1_555
C22_5 C21_5 1_555 1_555
C23_5 C22_5 1_555 1_555
H15_7 C23_5 1_555 1_555
C24_7 C23_5 1_555 1_555
H16_7 C24_7 1_555 1_555
C25_7 C24_7 1_555 1_555
C26_5 C25_7 1_555 1_555
C27_5 C22_5 1_555 1_555
C28_5 C27_5 1_555 1_555
H17_5 C28_5 1_555 1_555
C29_5 C28_5 1_555 1_555
H18_5 C29_5 1_555 1_555
C30_5 C29_5 1_555 1_555
H19_5 C30_5 1_555 1_555
C31_5 C26_5 1_555 1_555
H20_5 C31_5 1_555 1_555
C32_7 C25_7 1_555 1_555
C26_5 C27_5 1_555 1_555
C30_5 C31_5 1_555 1_555
N5_2 C13_7 1_555 1_555
N4_7 C6_7 1_555 1_555
C1_7 N1_7 1_555 1_555
H1_7 C1_7 1_555 1_555
C2_7 C1_7 1_555 1_555
H2_7 C2_7 1_555 1_555
C3_7 C2_7 1_555 1_555
C4_7 C3_7 1_555 1_555
C5_7 N1_7 1_555 1_555
H4_7 C5_7 1_555 1_555
C6_7 C3_7 1_555 1_555
C10_7 N4_7 1_555 1_555
C11_7 C10_7 1_555 1_555
C12_7 C11_7 1_555 1_555
H7_7 C12_7 1_555 1_555
C13_7 C12_7 1_555 1_555
H8_7 C13_7 1_555 1_555
C14_7 N5_2 1_555 1_555
H9_7 C14_7 1_555 1_555
C15_7 C11_7 1_555 1_555
C4_7 C5_7 1_555 1_555
C14_7 C15_7 1_555 1_555
Cd4 O1_8 1_555 1_555
O1_8 C21_6 1_555 1_555
O2_8 Cd4 1_555 1_555
O5_4 C32_8 1_555 1_555
O7_4 C32_8 1_555 1_555
N1_8 Cd4 1_555 1_555
N5 C13_8 1_555 1_555
N4_8 C6_8 1_555 1_555
C1_8 N1_8 1_555 1_555
H1_8 C1_8 1_555 1_555
C2_8 C1_8 1_555 1_555
H2_8 C2_8 1_555 1_555
C3_8 C2_8 1_555 1_555
C4_8 C3_8 1_555 1_555
C5_8 N1_8 1_555 1_555
H4_8 C5_8 1_555 1_555
C6_8 C3_8 1_555 1_555
C10_8 N4_8 1_555 1_555
C11_8 C10_8 1_555 1_555
C12_8 C11_8 1_555 1_555
H7_8 C12_8 1_555 1_555
C13_8 C12_8 1_555 1_555
H8_8 C13_8 1_555 1_555
C14_8 N5 1_555 1_555
H9_8 C14_8 1_555 1_555
C15_8 C11_8 1_555 1_555
C21_6 O2_8 1_555 1_555
C22_6 C21_6 1_555 1_555
C23_6 C22_6 1_555 1_555
H15_8 C23_6 1_555 1_555
C24_8 C23_6 1_555 1_555
H16_8 C24_8 1_555 1_555
C25_8 C24_8 1_555 1_555
C26_6 C25_8 1_555 1_555
C27_6 C22_6 1_555 1_555
C28_6 C27_6 1_555 1_555
H17_6 C28_6 1_555 1_555
C29_6 C28_6 1_555 1_555
H18_6 C29_6 1_555 1_555
C30_6 C29_6 1_555 1_555
H19_6 C30_6 1_555 1_555
C31_6 C26_6 1_555 1_555
H20_6 C31_6 1_555 1_555
C32_8 C25_8 1_555 1_555
C4_8 C5_8 1_555 1_555
C14_8 C15_8 1_555 1_555
C26_6 C27_6 1_555 1_555
C30_6 C31_6 1_555 1_555
C22_7 C21_7 1_555 1_555
C23_7 C22_7 1_555 1_555
C27_7 C22_7 1_555 1_555
C28_7 C27_7 1_555 1_555
H17_7 C28_7 1_555 1_555
C29_7 C28_7 1_555 1_555
H18_7 C29_7 1_555 1_555
C30_7 C29_7 1_555 1_555
H19_7 C30_7 1_555 1_555
C31_7 C26_7 1_555 1_555
H20_7 C31_7 1_555 1_555
C26_7 C27_7 1_555 1_555
C30_7 C31_7 1_555 1_555
N3_5 C18_5 1_555 1_555
H5_5 C7_5 1_555 1_555
C8_5 C7_5 1_555 1_555
C9_5 C8_5 1_555 1_555
H6_5 C9_5 1_555 1_555
C16_5 C8_5 1_555 1_555
C17_5 C16_5 1_555 1_555
H11_5 C17_5 1_555 1_555
C18_5 C17_5 1_555 1_555
H12_5 C18_5 1_555 1_555
C19_5 N3_5 1_555 1_555
H13_5 C19_5 1_555 1_555
C20_5 C16_5 1_555 1_555
H14_5 C20_5 1_555 1_555
C19_5 C20_5 1_555 1_555
N3_6 C18_6 1_555 1_555
H5_6 C7_6 1_555 1_555
C8_6 C7_6 1_555 1_555
C9_6 C8_6 1_555 1_555
H6_6 C9_6 1_555 1_555
C16_6 C8_6 1_555 1_555
C17_6 C16_6 1_555 1_555
H11_6 C17_6 1_555 1_555
C18_6 C17_6 1_555 1_555
H12_6 C18_6 1_555 1_555
C19_6 N3_6 1_555 1_555
H13_6 C19_6 1_555 1_555
C20_6 C16_6 1_555 1_555
H14_6 C20_6 1_555 1_555
C19_6 C20_6 1_555 1_555
C22_8 C21_8 1_555 1_555
C23_8 C22_8 1_555 1_555
C27_8 C22_8 1_555 1_555
C28_8 C27_8 1_555 1_555
H17_8 C28_8 1_555 1_555
C29_8 C28_8 1_555 1_555
H18_8 C29_8 1_555 1_555
C30_8 C29_8 1_555 1_555
H19_8 C30_8 1_555 1_555
C31_8 C26_8 1_555 1_555
H20_8 C31_8 1_555 1_555
C26_8 C27_8 1_555 1_555
C30_8 C31_8 1_555 1_555
N3_7 C18_7 1_555 1_555
H5_7 C7_7 1_555 1_555
C8_7 C7_7 1_555 1_555
C9_7 C8_7 1_555 1_555
H6_7 C9_7 1_555 1_555
C16_7 C8_7 1_555 1_555
C17_7 C16_7 1_555 1_555
H11_7 C17_7 1_555 1_555
C18_7 C17_7 1_555 1_555
H12_7 C18_7 1_555 1_555
C19_7 N3_7 1_555 1_555
H13_7 C19_7 1_555 1_555
C20_7 C16_7 1_555 1_555
H14_7 C20_7 1_555 1_555
C19_7 C20_7 1_555 1_555
N3_8 C18_8 1_555 1_555
H5_8 C7_8 1_555 1_555
C8_8 C7_8 1_555 1_555
C9_8 C8_8 1_555 1_555
H6_8 C9_8 1_555 1_555
C16_8 C8_8 1_555 1_555
C17_8 C16_8 1_555 1_555
H11_8 C17_8 1_555 1_555
C18_8 C17_8 1_555 1_555
H12_8 C18_8 1_555 1_555
C19_8 N3_8 1_555 1_555
H13_8 C19_8 1_555 1_555
C20_8 C16_8 1_555 1_555
H14_8 C20_8 1_555 1_555
C19_8 C20_8 1_555 1_555

#END
