
###############################################################################
#
# This file contains modified crystal structure data generated from the
# MOF subset of the Cambridge Structural Database (CSD) v543 
# hosted by the Cambridge Crystallographic Data Centre (CCDC).
#
# This work is licensed under the Creative Commons
# Attribution-NonCommercial-ShareAlike 4.0 International License.
# To view a copy of this license, visit
# http://creativecommons.org/licenses/by-nc-sa/4.0/
# or send a letter to
# Creative Commons, PO Box 1866, Mountain View, CA 94042, USA.
#
# CIF created using the CSD Python API on 29 September 2022
# The structure has been converted into the P1 space group
# The structure has a 3D framework
# The original CSD entry TOFLAD is in the monoclinic crystal system
# The framework has been calculated to contain at least 10.0% void space
# The void calculation uses a probe of radius 1.32A, grid spacing 0.4
#
###############################################################################

data_TOFLAD
_chemical_formula_moiety         '(C204 H136 Cd8 N32 O32)n'
_symmetry_cell_setting           triclinic
_symmetry_space_group_name_H-M   'P 1'
_symmetry_Int_Tables_number      1
_space_group_name_Hall           'P 1'
loop_
_symmetry_equiv_pos_site_id
_symmetry_equiv_pos_as_xyz
1 x,y,z
_cell_length_a                   18.666(4)
_cell_length_b                   13.998(3)
_cell_length_c                   27.179(8)
_cell_angle_alpha                90
_cell_angle_beta                 131.032(19)
_cell_angle_gamma                90
_cell_volume                     5356.97
loop_
_atom_site_label
_atom_site_type_symbol
_atom_site_fract_x
_atom_site_fract_y
_atom_site_fract_z
Cd7 Cd 0.11916(4) 0.72285(4) 0.36077(3)
H16 H 0.1871 0.9345 0.0027
C22 C 0.5782(5) 0.6867(6) 0.0776(4)
C23 C 0.6721(5) 0.6317(5) 0.1210(3)
C24 C 0.7543(5) 0.6758(5) 0.1737(3)
H18 H 0.7525 0.7400 0.1816
C25 C 0.8391(5) 0.6269(5) 0.2149(4)
C26 C 0.8421(5) 0.5333(5) 0.2007(3)
H19 H 0.8991 0.4998 0.2281
C27 C 0.7625(5) 0.4881(5) 0.1468(3)
C28 C 0.6766(5) 0.5382(5) 0.1066(3)
H20 H 0.6222 0.5086 0.0700
C29 C 0.9308(5) 0.6742(6) 0.2712(4)
C30 C 0.7694(6) 0.3878(5) 0.1307(4)
C32 C 0.1262(6) 0.6622(7) 0.0220(4)
H22 H 0.1324 0.6911 0.0555
C33 C 0.1207(5) 0.5645(6) 0.0163(4)
C36 C 0.1238(5) 0.5069(7) 0.0625(4)
C37 C 0.1301(5) 0.5455(6) 0.1098(3)
H25 H 0.1329 0.6116 0.1144
C38 C 0.1325(6) 0.4896(7) 0.1512(4)
C39 C 0.1309(5) 0.3931(6) 0.1479(4)
H26 H 0.1337 0.3565 0.1777
C40 C 0.1251(6) 0.3500(7) 0.1001(4)
C41 C 0.1370(6) 0.5390(6) 0.2018(4)
C42 C 0.1625(8) 0.6347(7) 0.2183(6)
H27 H 0.1791 0.6699 0.1981
C43 C 0.1633(9) 0.6778(8) 0.2645(6)
H28 H 0.1847 0.7406 0.2758
C44 C 0.1144(7) 0.5455(6) 0.2792(5)
H29 H 0.0974 0.5127 0.3000
C45 C 0.1150(7) 0.4950(6) 0.2358(4)
H30 H 0.1004 0.4302 0.2294
C46 C 0.1197(5) 0.2426(4) 0.0931(4)
C47 C 0.1386(6) 0.1856(5) 0.1423(3)
H31 H 0.1534 0.2136 0.1790
C48 C 0.1352(6) 0.0867(5) 0.1366(4)
H32 H 0.1479 0.0485 0.1695
N1 N 0.1130(6) 0.0448(4) 0.0816(5)
C49 C 0.0941(6) 0.1018(7) 0.0324(4)
C50 C 0.0975(6) 0.2008(7) 0.0381(3)
H34 H 0.0848 0.2389 0.0052
Cd1 Cd 0.39886(4) 0.76300(4) 0.00104(3)
N5 N 0.1362(5) 0.6370(5) 0.2935(3)
N8 N 0.1217(5) 0.4077(7) 0.0565(4)
O1 O 0.5093(4) 0.6450(4) 0.0270(3)
O2 O 0.5729(4) 0.7682(4) 0.0935(3)
O3 O 0.8506(4) 0.3518(4) 0.1687(3)
O4 O 0.6980(4) 0.3485(4) 0.0819(3)
O5 O 0.9402(4) 0.7617(4) 0.2721(3)
O6 O 0.9970(4) 0.6206(4) 0.3163(3)
O8 O 0.3752(5) 0.9093(4) 0.0394(3)
Cd5 Cd 0.88084(4) 0.22285(4) 0.13923(3)
N9 N 0.3768(5) 0.6779(5) 0.0642(3)
C1 C 0.4015(6) 0.9454(6) 0.9275(4)
H1 H 0.3990 0.9798 0.9556
C2 C 0.3975(7) 0.9943(6) 0.8831(4)
C3 C 0.4043(7) 0.9492(7) 0.8429(5)
C4 C 0.4169(9) 0.8543(8) 0.8509(6)
H3 H 0.4253 0.8198 0.8258
C5 C 0.4177(10) 0.8066(7) 0.8962(6)
H4 H 0.4248 0.7406 0.8998
C10 C 0.3727(6) 0.9314(7) 0.6491(4)
C11 C 0.3691(8) 0.9722(7) 0.6006(5)
C12 C 0.3703(7) 0.9153(6) 0.5595(4)
H8 H 0.3663 0.9447 0.5270
C13 C 0.3751(6) 0.8335(7) 0.6510(4)
H9 H 0.3738 0.8015 0.6804
C14 C 0.3796(6) 0.7817(6) 0.6096(4)
H10 H 0.3848 0.7156 0.6139
C20 C 0.2273(8) 0.9721(7) 0.9998(6)
C21 C 0.2875(7) 0.9073(6) 0.9963(4)
C31 C 0.1224(7) 0.7171(7) 0.9791(5)
H21 H 0.1257 0.7830 0.9844
C34 C 0.1095(6) 0.5280(6) 0.9637(4)
H23 H 0.1033 0.4625 0.9564
C35 C 0.1074(6) 0.5885(7) 0.9219(4)
H24 H 0.1010 0.5618 0.8878
H33 H 0.0793 0.0738 0.9956
C51 C 0.3805(6) 0.9947(8) 0.6966(4)
Cd2 Cd 0.11916(4) 0.77715(4) 0.86077(3)
N2 N 0.4087(5) 0.8516(6) 0.9336(3)
N3 N 0.3768(5) 0.8221(5) 0.5642(3)
N4 N 0.1143(4) 0.6822(5) 0.9290(3)
N7 N 0.3864(5) 0.9472(6) 0.7437(4)
O7 O 0.2488(4) 0.8484(4) 0.9505(3)
Cd3 Cd 0.60114(4) 0.23700(4) 0.99896(3)
Cd4 Cd 0.39886(4) 0.73700(4) 0.50104(3)
N10 N 0.1362(5) 0.8630(5) 0.7935(3)
O9 O 0.1494(4) 0.6482(4) 0.8313(3)
O10 O 0.3020(4) 0.6515(4) 0.9181(3)
O11 O 0.9402(4) 0.7383(4) 0.7721(3)
O12 O 0.9970(4) 0.8794(4) 0.8163(3)
O11_2 O 0.0598(4) 0.2383(4) 0.7279(3)
O12_2 O 0.0030(4) 0.3794(4) 0.6837(3)
C1_2 C 0.5985(6) 0.4454(6) 0.5725(4)
H1_2 H 0.6010 0.4798 0.5444
C2_2 C 0.6025(7) 0.4943(6) 0.6169(4)
H2 H 0.6102 0.5602 0.6197
C3_2 C 0.5957(7) 0.4492(7) 0.6571(5)
C4_2 C 0.5831(9) 0.3543(8) 0.6491(6)
H3_2 H 0.5747 0.3198 0.6742
C5_2 C 0.5823(10) 0.3066(7) 0.6038(6)
H4_2 H 0.5752 0.2406 0.6002
C6 C 0.6044(6) 0.5010(7) 0.7098(5)
C7 C 0.6019(6) 0.5973(7) 0.7120(4)
H5 H 0.5923 0.6332 0.6794
C8 C 0.6135(6) 0.6445(8) 0.7626(4)
C9 C 0.6212(6) 0.5891(7) 0.8071(4)
H6 H 0.6277 0.6181 0.8407
C10_2 C 0.6273(6) 0.4314(7) 0.8509(4)
C11_2 C 0.6309(8) 0.4722(7) 0.8994(5)
H7 H 0.6342 0.5383 0.9042
C12_2 C 0.6297(7) 0.4153(6) 0.9405(4)
H8_2 H 0.6337 0.4447 0.9730
C13_2 C 0.6249(6) 0.3335(7) 0.8490(4)
H9_2 H 0.6262 0.3015 0.8196
C14_2 C 0.6204(6) 0.2817(6) 0.8904(4)
H10_2 H 0.6152 0.2156 0.8861
C15 C 0.6152(7) 0.7497(8) 0.7683(5)
C16 C 0.6194(8) 0.8103(8) 0.7287(5)
H11 H 0.6201 0.7844 0.6975
C17 C 0.6222(9) 0.9079(9) 0.7363(7)
H12 H 0.6233 0.9462 0.7088
C18 C 0.6182(10) 0.8958(12) 0.8157(7)
H13 H 0.6162 0.9247 0.8457
C19 C 0.6149(8) 0.7971(11) 0.8129(5)
H14 H 0.6125 0.7625 0.8410
C20_2 C 0.7727(8) 0.4721(7) 0.5002(6)
H15 H 0.7327 0.5122 0.4624
H16_2 H 0.8129 0.4345 0.4973
H17 H 0.8113 0.5110 0.5387
C21_2 C 0.7125(7) 0.4073(6) 0.5037(4)
C22_2 C 0.4218(5) 0.1867(6) 0.4224(4)
C23_2 C 0.3279(5) 0.1317(5) 0.3790(3)
C24_2 C 0.2457(5) 0.1758(5) 0.3263(3)
H18_2 H 0.2475 0.2400 0.3184
C25_2 C 0.1609(5) 0.1269(5) 0.2851(4)
C26_2 C 0.1579(5) 0.0333(5) 0.2993(3)
C28_2 C 0.3234(5) 0.0382(5) 0.3934(3)
H20_2 H 0.3778 0.0086 0.4300
C29_2 C 0.0692(5) 0.1742(6) 0.2288(4)
C31_2 C 0.8776(7) 0.2171(7) 0.5209(5)
H21_2 H 0.8743 0.2830 0.5156
C32_2 C 0.8738(6) 0.1622(7) 0.4780(4)
H22_2 H 0.8676 0.1911 0.4445
C33_2 C 0.8793(5) 0.0645(6) 0.4837(4)
C34_2 C 0.8905(6) 0.0280(6) 0.5363(4)
C35_2 C 0.8926(6) 0.0885(7) 0.5781(4)
H24_2 H 0.8990 0.0618 0.6122
C36_2 C 0.8762(5) 0.0069(7) 0.4375(4)
C37_2 C 0.8699(5) 0.0455(6) 0.3902(3)
H25_2 H 0.8671 0.1116 0.3856
C41_2 C 0.8630(6) 0.0390(6) 0.2982(4)
C42_2 C 0.8375(8) 0.1347(7) 0.2817(6)
H27_2 H 0.8209 0.1699 0.3019
C43_2 C 0.8367(9) 0.1778(8) 0.2355(6)
H28_2 H 0.8153 0.2406 0.2242
C44_2 C 0.8856(7) 0.0455(6) 0.2208(5)
H29_2 H 0.9026 0.0127 0.2000
C51_2 C 0.6195(6) 0.4947(8) 0.8034(4)
Cd1_2 Cd 0.60114(4) 0.26300(4) 0.49896(3)
Cd2_2 Cd 0.88084(4) 0.27715(4) 0.63923(3)
N2_2 N 0.5913(5) 0.3516(6) 0.5664(3)
N3_2 N 0.6232(5) 0.3221(5) 0.9358(3)
N4_2 N 0.8857(4) 0.1822(5) 0.5710(3)
N5_2 N 0.8638(5) 0.1370(5) 0.2065(3)
N6 N 0.6236(9) 0.9506(9) 0.7807(7)
N7_2 N 0.6136(5) 0.4472(6) 0.7563(4)
O1_2 O 0.4907(4) 0.1450(4) 0.4730(3)
O2_2 O 0.4271(4) 0.2682(4) 0.4065(3)
O5_2 O 0.0598(4) 0.2617(4) 0.2279(3)
O6_2 O 0.0030(4) 0.1206(4) 0.1837(3)
O7_2 O 0.7512(4) 0.3484(4) 0.5495(3)
O8_2 O 0.6248(5) 0.4093(4) 0.4606(3)
N9_2 N 0.6232(5) 0.1779(5) 0.4358(3)
N10_2 N 0.8638(5) 0.3630(5) 0.7065(3)
O9_2 O 0.8506(4) 0.1482(4) 0.6687(3)
O10_2 O 0.6980(4) 0.1515(4) 0.5819(3)
H19_2 H 0.1009 0.9998 0.2719
C27_2 C 0.2375(5) 0.9881(5) 0.3532(3)
C30_2 C 0.2306(6) 0.8878(5) 0.3693(4)
H23_2 H 0.8967 0.9625 0.5436
C38_2 C 0.8675(6) 0.9896(7) 0.3488(4)
C39_2 C 0.8691(5) 0.8931(6) 0.3521(4)
H26_2 H 0.8663 0.8565 0.3223
C40_2 C 0.8749(6) 0.8500(7) 0.3999(4)
C45_2 C 0.8850(7) 0.9950(6) 0.2642(4)
H30_2 H 0.8996 0.9302 0.2706
C46_2 C 0.8803(5) 0.7426(4) 0.4069(4)
C47_2 C 0.8614(6) 0.6856(5) 0.3577(3)
H31_2 H 0.8466 0.7136 0.3210
C48_2 C 0.8648(6) 0.5867(5) 0.3634(4)
H32_2 H 0.8521 0.5485 0.3305
N1_2 N 0.8870(6) 0.5448(4) 0.4184(5)
C49_2 C 0.9059(6) 0.6018(7) 0.4676(4)
H33_2 H 0.9207 0.5738 0.5044
C50_2 C 0.9025(6) 0.7008(7) 0.4619(3)
H34_2 H 0.9152 0.7389 0.4948
N8_2 N 0.8783(5) 0.9077(7) 0.4435(4)
O3_2 O 0.1494(4) 0.8518(4) 0.3313(3)
O4_2 O 0.3020(4) 0.8485(4) 0.4181(3)
C1_3 C 0.5985(6) 0.0546(6) 0.0725(4)
H1_3 H 0.6010 0.0202 0.0444
C2_3 C 0.6025(7) 0.0057(6) 0.1169(4)
C3_3 C 0.5957(7) 0.0508(7) 0.1571(5)
C4_3 C 0.5831(9) 0.1457(8) 0.1491(6)
H3_3 H 0.5747 0.1802 0.1742
C5_3 C 0.5823(10) 0.1934(7) 0.1038(6)
H4_3 H 0.5752 0.2594 0.1002
C10_3 C 0.6273(6) 0.0686(7) 0.3509(4)
C11_3 C 0.6309(8) 0.0278(7) 0.3994(5)
C12_3 C 0.6297(7) 0.0847(6) 0.4405(4)
H8_3 H 0.6337 0.0553 0.4730
C13_3 C 0.6249(6) 0.1665(7) 0.3490(4)
H9_3 H 0.6262 0.1985 0.3196
C14_3 C 0.6204(6) 0.2183(6) 0.3904(4)
H10_3 H 0.6152 0.2844 0.3861
C20_3 C 0.7727(8) 0.0279(7) 0.0002(6)
C21_3 C 0.7125(7) 0.0927(6) 0.0037(4)
C31_3 C 0.8776(7) 0.2829(7) 0.0209(5)
H21_3 H 0.8743 0.2170 0.0156
C34_3 C 0.8905(6) 0.4720(6) 0.0363(4)
H23_3 H 0.8967 0.5375 0.0436
C35_3 C 0.8926(6) 0.4115(7) 0.0781(4)
H24_3 H 0.8990 0.4382 0.1122
H33_3 H 0.9207 0.9262 0.0044
C51_3 C 0.6195(6) 0.0053(8) 0.3034(4)
N2_3 N 0.5913(5) 0.1484(6) 0.0664(3)
N4_3 N 0.8857(4) 0.3178(5) 0.0710(3)
N7_3 N 0.6136(5) 0.0528(6) 0.2563(4)
O7_3 O 0.7512(4) 0.1516(4) 0.0495(3)
H16_3 H 0.8129 0.0655 0.9973
C22_3 C 0.4218(5) 0.3133(6) 0.9224(4)
C23_3 C 0.3279(5) 0.3683(5) 0.8790(3)
C24_3 C 0.2457(5) 0.3242(5) 0.8263(3)
H18_3 H 0.2475 0.2600 0.8184
C25_3 C 0.1609(5) 0.3731(5) 0.7851(4)
C26_3 C 0.1579(5) 0.4667(5) 0.7993(3)
H19_3 H 0.1009 0.5002 0.7719
C27_3 C 0.2375(5) 0.5119(5) 0.8532(3)
C28_3 C 0.3234(5) 0.4618(5) 0.8934(3)
H20_3 H 0.3778 0.4914 0.9300
C29_3 C 0.0692(5) 0.3258(6) 0.7288(4)
C30_3 C 0.2306(6) 0.6122(5) 0.8693(4)
C32_3 C 0.8738(6) 0.3378(7) 0.9780(4)
H22_3 H 0.8676 0.3089 0.9445
C33_3 C 0.8793(5) 0.4355(6) 0.9837(4)
C36_3 C 0.8762(5) 0.4931(7) 0.9375(4)
C37_3 C 0.8699(5) 0.4545(6) 0.8902(3)
H25_3 H 0.8671 0.3884 0.8856
C38_3 C 0.8675(6) 0.5104(7) 0.8488(4)
C39_3 C 0.8691(5) 0.6069(6) 0.8521(4)
H26_3 H 0.8663 0.6435 0.8223
C40_3 C 0.8749(6) 0.6500(7) 0.8999(4)
C41_3 C 0.8630(6) 0.4610(6) 0.7982(4)
C42_3 C 0.8375(8) 0.3653(7) 0.7817(6)
H27_3 H 0.8209 0.3301 0.8019
C43_3 C 0.8367(9) 0.3222(8) 0.7355(6)
H28_3 H 0.8153 0.2594 0.7242
C44_3 C 0.8856(7) 0.4545(6) 0.7208(5)
H29_3 H 0.9026 0.4873 0.7000
C45_3 C 0.8850(7) 0.5050(6) 0.7642(4)
H30_3 H 0.8996 0.5698 0.7706
C46_3 C 0.8803(5) 0.7574(4) 0.9069(4)
C47_3 C 0.8614(6) 0.8144(5) 0.8577(3)
H31_3 H 0.8466 0.7864 0.8210
C48_3 C 0.8648(6) 0.9133(5) 0.8634(4)
H32_3 H 0.8521 0.9515 0.8305
N1_3 N 0.8870(6) 0.9552(4) 0.9184(5)
C49_3 C 0.9059(6) 0.8982(7) 0.9676(4)
C50_3 C 0.9025(6) 0.7992(7) 0.9619(3)
H34_3 H 0.9152 0.7611 0.9948
N8_3 N 0.8783(5) 0.5923(7) 0.9435(4)
O1_3 O 0.4907(4) 0.3550(4) 0.9730(3)
O2_3 O 0.4271(4) 0.2318(4) 0.9065(3)
O8_3 O 0.6248(5) 0.0907(4) 0.9606(3)
H19_4 H 0.8991 0.0002 0.7281
C27_4 C 0.7625(5) 0.0119(5) 0.6468(3)
C30_4 C 0.7694(6) 0.1122(5) 0.6307(4)
H23_4 H 0.1033 0.0375 0.4564
C38_4 C 0.1325(6) 0.0104(7) 0.6512(4)
C39_4 C 0.1309(5) 0.1069(6) 0.6479(4)
H26_4 H 0.1337 0.1435 0.6777
C40_4 C 0.1251(6) 0.1500(7) 0.6001(4)
C45_4 C 0.1150(7) 0.0050(6) 0.7358(4)
H30_4 H 0.1004 0.0698 0.7294
C46_4 C 0.1197(5) 0.2574(4) 0.5931(4)
C47_4 C 0.1386(6) 0.3144(5) 0.6423(3)
H31_4 H 0.1534 0.2864 0.6790
C48_4 C 0.1352(6) 0.4133(5) 0.6366(4)
H32_4 H 0.1479 0.4515 0.6695
N1_4 N 0.1130(6) 0.4552(4) 0.5816(5)
C49_4 C 0.0941(6) 0.3982(7) 0.5324(4)
H33_4 H 0.0793 0.4262 0.4956
C50_4 C 0.0975(6) 0.2992(7) 0.5381(3)
H34_4 H 0.0848 0.2611 0.5052
N8_4 N 0.1217(5) 0.0923(7) 0.5565(4)
C1_4 C 0.4015(6) 0.5546(6) 0.4275(4)
H1_4 H 0.3990 0.5202 0.4556
C2_4 C 0.3975(7) 0.5057(6) 0.3831(4)
H2_2 H 0.3898 0.4398 0.3803
C3_4 C 0.4043(7) 0.5508(7) 0.3429(5)
C4_4 C 0.4169(9) 0.6457(8) 0.3509(6)
H3_4 H 0.4253 0.6802 0.3258
C5_4 C 0.4177(10) 0.6934(7) 0.3962(6)
H4_4 H 0.4248 0.7594 0.3998
C6_2 C 0.3956(6) 0.4990(7) 0.2902(5)
C7_2 C 0.3981(6) 0.4027(7) 0.2880(4)
H5_2 H 0.4077 0.3668 0.3206
C8_2 C 0.3865(6) 0.3555(8) 0.2374(4)
C9_2 C 0.3788(6) 0.4109(7) 0.1929(4)
H6_2 H 0.3723 0.3819 0.1593
C10_4 C 0.3727(6) 0.5686(7) 0.1491(4)
C11_4 C 0.3691(8) 0.5278(7) 0.1006(5)
H7_2 H 0.3658 0.4617 0.0958
C12_4 C 0.3703(7) 0.5847(6) 0.0595(4)
H8_4 H 0.3663 0.5553 0.0270
C13_4 C 0.3751(6) 0.6665(7) 0.1510(4)
H9_4 H 0.3738 0.6985 0.1804
C14_4 C 0.3796(6) 0.7183(6) 0.1096(4)
H10_4 H 0.3848 0.7844 0.1139
C15_2 C 0.3848(7) 0.2503(8) 0.2317(5)
C16_2 C 0.3806(8) 0.1897(8) 0.2713(5)
H11_2 H 0.3799 0.2156 0.3025
C17_2 C 0.3778(9) 0.0921(9) 0.2637(7)
H12_2 H 0.3767 0.0538 0.2912
C18_2 C 0.3818(10) 0.1042(12) 0.1843(7)
H13_2 H 0.3838 0.0753 0.1543
C19_2 C 0.3851(8) 0.2029(11) 0.1871(5)
H14_2 H 0.3875 0.2375 0.1590
C20_4 C 0.2273(8) 0.5279(7) 0.4998(6)
H15_2 H 0.2673 0.4878 0.5376
H16_4 H 0.1871 0.5655 0.5027
H17_2 H 0.1887 0.4890 0.4613
C21_4 C 0.2875(7) 0.5927(6) 0.4963(4)
C22_4 C 0.5782(5) 0.8133(6) 0.5776(4)
C23_4 C 0.6721(5) 0.8683(5) 0.6210(3)
C24_4 C 0.7543(5) 0.8242(5) 0.6737(3)
H18_4 H 0.7525 0.7600 0.6816
C25_4 C 0.8391(5) 0.8731(5) 0.7149(4)
C26_4 C 0.8421(5) 0.9667(5) 0.7007(3)
C28_4 C 0.6766(5) 0.9618(5) 0.6066(3)
H20_4 H 0.6222 0.9914 0.5700
C29_4 C 0.9308(5) 0.8258(6) 0.7712(4)
C31_4 C 0.1224(7) 0.7829(7) 0.4791(5)
H21_4 H 0.1257 0.7170 0.4844
C32_4 C 0.1262(6) 0.8378(7) 0.5220(4)
H22_4 H 0.1324 0.8089 0.5555
C33_4 C 0.1207(5) 0.9355(6) 0.5163(4)
C34_4 C 0.1095(6) 0.9720(6) 0.4637(4)
C35_4 C 0.1074(6) 0.9115(7) 0.4219(4)
H24_4 H 0.1010 0.9382 0.3878
C36_4 C 0.1238(5) 0.9931(7) 0.5625(4)
C37_4 C 0.1301(5) 0.9545(6) 0.6098(3)
H25_4 H 0.1329 0.8884 0.6144
C41_4 C 0.1370(6) 0.9610(6) 0.7018(4)
C42_4 C 0.1625(8) 0.8653(7) 0.7183(6)
H27_4 H 0.1791 0.8301 0.6981
C43_4 C 0.1633(9) 0.8222(8) 0.7645(6)
H28_4 H 0.1847 0.7594 0.7758
C44_4 C 0.1144(7) 0.9545(6) 0.7792(5)
H29_4 H 0.0974 0.9873 0.8000
C51_4 C 0.3805(6) 0.5053(8) 0.1966(4)
N2_4 N 0.4087(5) 0.6484(6) 0.4336(3)
N4_4 N 0.1143(4) 0.8178(5) 0.4290(3)
N6_2 N 0.3764(9) 0.0494(9) 0.2193(7)
N7_4 N 0.3864(5) 0.5528(6) 0.2437(4)
O1_4 O 0.5093(4) 0.8550(4) 0.5270(3)
O2_4 O 0.5729(4) 0.7318(4) 0.5935(3)
O7_4 O 0.2488(4) 0.6516(4) 0.4505(3)
O8_4 O 0.3752(5) 0.5907(4) 0.5394(3)
H15_3 H 0.2673 0.0122 0.0376
H2_3 H 0.3898 0.0602 0.8803
C6_3 C 0.3956(6) 0.0010(7) 0.7902(5)
C7_3 C 0.3981(6) 0.0973(7) 0.7880(4)
H5_3 H 0.4077 0.1332 0.8206
C8_3 C 0.3865(6) 0.1445(8) 0.7374(4)
C9_3 C 0.3788(6) 0.0891(7) 0.6929(4)
H6_3 H 0.3723 0.1181 0.6593
H7_3 H 0.3658 0.0383 0.5958
C15_3 C 0.3848(7) 0.2497(8) 0.7317(5)
C16_3 C 0.3806(8) 0.3103(8) 0.7713(5)
H11_3 H 0.3799 0.2844 0.8025
C17_3 C 0.3778(9) 0.4079(9) 0.7637(7)
H12_3 H 0.3767 0.4462 0.7912
C18_3 C 0.3818(10) 0.3958(12) 0.6843(7)
H13_3 H 0.3838 0.4247 0.6543
C19_3 C 0.3851(8) 0.2971(11) 0.6871(5)
H14_3 H 0.3875 0.2625 0.6590
H17_3 H 0.1887 0.0110 0.9613
N6_3 N 0.3764(9) 0.4506(9) 0.7193(7)
H2_4 H 0.6102 0.9398 0.1197
C6_4 C 0.6044(6) 0.9990(7) 0.2098(5)
C7_4 C 0.6019(6) 0.9027(7) 0.2120(4)
H5_4 H 0.5923 0.8668 0.1794
C8_4 C 0.6135(6) 0.8555(8) 0.2626(4)
C9_4 C 0.6212(6) 0.9109(7) 0.3071(4)
H6_4 H 0.6277 0.8819 0.3407
H7_4 H 0.6342 0.9617 0.4042
C15_4 C 0.6152(7) 0.7503(8) 0.2683(5)
C16_4 C 0.6194(8) 0.6897(8) 0.2287(5)
H11_4 H 0.6201 0.7156 0.1975
C17_4 C 0.6222(9) 0.5921(9) 0.2363(7)
H12_4 H 0.6233 0.5538 0.2088
C18_4 C 0.6182(10) 0.6042(12) 0.3157(7)
H13_4 H 0.6162 0.5753 0.3457
C19_4 C 0.6149(8) 0.7029(11) 0.3129(5)
H14_4 H 0.6125 0.7375 0.3410
H17_4 H 0.8113 0.9890 0.0387
N6_4 N 0.6236(9) 0.5494(9) 0.2807(7)
H15_4 H 0.7327 0.9878 0.9624
loop_
_geom_bond_atom_site_label_1
_geom_bond_atom_site_label_2
_geom_bond_site_symmetry_1
_geom_bond_site_symmetry_2
C22 C23 1_555 1_555
C23 C24 1_555 1_555
C24 H18 1_555 1_555
C25 C24 1_555 1_555
C26 C25 1_555 1_555
H19 C26 1_555 1_555
C27 C26 1_555 1_555
C28 C23 1_555 1_555
H20 C28 1_555 1_555
C29 C25 1_555 1_555
C30 C27 1_555 1_555
H22 C32 1_555 1_555
C33 C32 1_555 1_555
C36 C33 1_555 1_555
C37 C36 1_555 1_555
H25 C37 1_555 1_555
C38 C37 1_555 1_555
C39 C38 1_555 1_555
H26 C39 1_555 1_555
C40 C39 1_555 1_555
C41 C38 1_555 1_555
C42 C41 1_555 1_555
H27 C42 1_555 1_555
C43 C42 1_555 1_555
H28 C43 1_555 1_555
C44 H29 1_555 1_555
C45 C41 1_555 1_555
H30 C45 1_555 1_555
C46 C40 1_555 1_555
C47 C46 1_555 1_555
H31 C47 1_555 1_555
C48 C47 1_555 1_555
H32 C48 1_555 1_555
N1 C48 1_555 1_555
C49 N1 1_555 1_555
C50 C46 1_555 1_555
H34 C50 1_555 1_555
N5 C43 1_555 1_555
N8 C36 1_555 1_555
O1 C22 1_555 1_555
O2 C22 1_555 1_555
O3 C30 1_555 1_555
O4 C30 1_555 1_555
O5 C29 1_555 1_555
O6 C29 1_555 1_555
Cd5 O3 1_555 1_555
Cd7 N5 1_555 1_555
N9 Cd1 1_555 1_555
C27 C28 1_555 1_555
C40 N8 1_555 1_555
C44 C45 1_555 1_555
C44 N5 1_555 1_555
C49 C50 1_555 1_555
Cd1 O1 1_555 1_555
Cd1 O2 1_555 1_555
Cd1 O8 1_555 1_555
C1 H1 1_555 1_555
C2 C1 1_555 1_555
C3 C2 1_555 1_555
C4 C3 1_555 1_555
H3 C4 1_555 1_555
C5 C4 1_555 1_555
H4 C5 1_555 1_555
C10 C11 1_555 1_555
C12 C11 1_555 1_555
H8 C12 1_555 1_555
C13 C10 1_555 1_555
H9 C13 1_555 1_555
C14 C13 1_555 1_555
H10 C14 1_555 1_555
C21 C20 1_555 1_555
C31 H21 1_555 1_555
H23 C34 1_555 1_555
C35 C34 1_555 1_555
H24 C35 1_555 1_555
Cd2 N4 1_555 1_555
N2 C1 1_555 1_555
N3 C12 1_555 1_555
N4 C31 1_555 1_555
O7 C21 1_555 1_555
Cd4 N3 1_555 1_555
N10 Cd2 1_555 1_555
O9 Cd2 1_555 1_555
C5 N2 1_555 1_555
C10 C51 1_555 1_555
C14 N3 1_555 1_555
C35 N4 1_555 1_555
C51 N7 1_555 1_555
Cd2 O7 1_555 1_555
C1_2 H1_2 1_555 1_555
C2_2 C1_2 1_555 1_555
H2 C2_2 1_555 1_555
C3_2 C2_2 1_555 1_555
C4_2 C3_2 1_555 1_555
H3_2 C4_2 1_555 1_555
C5_2 C4_2 1_555 1_555
H4_2 C5_2 1_555 1_555
C6 C3_2 1_555 1_555
C7 C6 1_555 1_555
H5 C7 1_555 1_555
C8 C7 1_555 1_555
C9 C8 1_555 1_555
H6 C9 1_555 1_555
C10_2 C11_2 1_555 1_555
C11_2 H7 1_555 1_555
C12_2 C11_2 1_555 1_555
H8_2 C12_2 1_555 1_555
C13_2 C10_2 1_555 1_555
H9_2 C13_2 1_555 1_555
C14_2 C13_2 1_555 1_555
H10_2 C14_2 1_555 1_555
C15 C8 1_555 1_555
C16 C15 1_555 1_555
H11 C16 1_555 1_555
C17 C16 1_555 1_555
H12 C17 1_555 1_555
C18 H13 1_555 1_555
C19 C15 1_555 1_555
H14 C19 1_555 1_555
C20_2 H15 1_555 1_555
H16_2 C20_2 1_555 1_555
H17 C20_2 1_555 1_555
C21_2 C20_2 1_555 1_555
C22_2 C23_2 1_555 1_555
C23_2 C24_2 1_555 1_555
C24_2 H18_2 1_555 1_555
C25_2 C24_2 1_555 1_555
C26_2 C25_2 1_555 1_555
C28_2 C23_2 1_555 1_555
H20_2 C28_2 1_555 1_555
C29_2 C25_2 1_555 1_555
C31_2 H21_2 1_555 1_555
C32_2 C31_2 1_555 1_555
H22_2 C32_2 1_555 1_555
C33_2 C32_2 1_555 1_555
C34_2 C33_2 1_555 1_555
C35_2 C34_2 1_555 1_555
H24_2 C35_2 1_555 1_555
C36_2 C33_2 1_555 1_555
C37_2 C36_2 1_555 1_555
H25_2 C37_2 1_555 1_555
C42_2 C41_2 1_555 1_555
H27_2 C42_2 1_555 1_555
C43_2 C42_2 1_555 1_555
H28_2 C43_2 1_555 1_555
C44_2 H29_2 1_555 1_555
C51_2 C9 1_555 1_555
Cd1_2 N2_2 1_555 1_555
Cd2_2 N4_2 1_555 1_555
N2_2 C1_2 1_555 1_555
N3_2 C12_2 1_555 1_555
N4_2 C31_2 1_555 1_555
N5_2 C43_2 1_555 1_555
N6 C17 1_555 1_555
N7_2 C6 1_555 1_555
O1_2 C22_2 1_555 1_555
O2_2 C22_2 1_555 1_555
O5_2 C29_2 1_555 1_555
O6_2 C29_2 1_555 1_555
O7_2 C21_2 1_555 1_555
O8_2 C21_2 1_555 1_555
Cd3 N3_2 1_555 1_555
Cd5 N5_2 1_555 1_555
N9_2 Cd1_2 1_555 1_555
N10_2 Cd2_2 1_555 1_555
O9_2 Cd2_2 1_555 1_555
O10_2 Cd1_2 1_555 1_555
C5_2 N2_2 1_555 1_555
C10_2 C51_2 1_555 1_555
C14_2 N3_2 1_555 1_555
C18 C19 1_555 1_555
C18 N6 1_555 1_555
C35_2 N4_2 1_555 1_555
C44_2 N5_2 1_555 1_555
C51_2 N7_2 1_555 1_555
Cd1_2 O1_2 1_555 1_555
Cd1_2 O2_2 1_555 1_555
Cd1_2 O7_2 1_555 1_555
Cd1_2 O8_2 1_555 1_555
Cd2_2 O7_2 1_555 1_555
C30_2 C27_2 1_555 1_555
C39_2 C38_2 1_555 1_555
H26_2 C39_2 1_555 1_555
C40_2 C39_2 1_555 1_555
H30_2 C45_2 1_555 1_555
C46_2 C40_2 1_555 1_555
C47_2 C46_2 1_555 1_555
H31_2 C47_2 1_555 1_555
C48_2 C47_2 1_555 1_555
H32_2 C48_2 1_555 1_555
N1_2 C48_2 1_555 1_555
C49_2 N1_2 1_555 1_555
H33_2 C49_2 1_555 1_555
C50_2 C46_2 1_555 1_555
H34_2 C50_2 1_555 1_555
O3_2 C30_2 1_555 1_555
O4_2 C30_2 1_555 1_555
Cd4 O4_2 1_555 1_555
Cd7 O3_2 1_555 1_555
C40_2 N8_2 1_555 1_555
C49_2 C50_2 1_555 1_555
C1_3 H1_3 1_555 1_555
C2_3 C1_3 1_555 1_555
C3_3 C2_3 1_555 1_555
C4_3 C3_3 1_555 1_555
H3_3 C4_3 1_555 1_555
C5_3 C4_3 1_555 1_555
H4_3 C5_3 1_555 1_555
C10_3 C11_3 1_555 1_555
C12_3 C11_3 1_555 1_555
H8_3 C12_3 1_555 1_555
C13_3 C10_3 1_555 1_555
H9_3 C13_3 1_555 1_555
C14_3 C13_3 1_555 1_555
H10_3 C14_3 1_555 1_555
C21_3 C20_3 1_555 1_555
C31_3 H21_3 1_555 1_555
H23_3 C34_3 1_555 1_555
C35_3 C34_3 1_555 1_555
H24_3 C35_3 1_555 1_555
Cd5 N4_3 1_555 1_555
N2_3 C1_3 1_555 1_555
N9_2 C12_3 1_555 1_555
N4_3 C31_3 1_555 1_555
O7_3 C21_3 1_555 1_555
C5_3 N2_3 1_555 1_555
C10_3 C51_3 1_555 1_555
C14_3 N9_2 1_555 1_555
C35_3 N4_3 1_555 1_555
C51_3 N7_3 1_555 1_555
Cd5 O7_3 1_555 1_555
C22_3 C23_3 1_555 1_555
C23_3 C24_3 1_555 1_555
C24_3 H18_3 1_555 1_555
C25_3 C24_3 1_555 1_555
C26_3 C25_3 1_555 1_555
H19_3 C26_3 1_555 1_555
C27_3 C26_3 1_555 1_555
C28_3 C23_3 1_555 1_555
H20_3 C28_3 1_555 1_555
C29_3 C25_3 1_555 1_555
C30_3 C27_3 1_555 1_555
H22_3 C32_3 1_555 1_555
C33_3 C32_3 1_555 1_555
C36_3 C33_3 1_555 1_555
C37_3 C36_3 1_555 1_555
H25_3 C37_3 1_555 1_555
C38_3 C37_3 1_555 1_555
C39_3 C38_3 1_555 1_555
H26_3 C39_3 1_555 1_555
C40_3 C39_3 1_555 1_555
C41_3 C38_3 1_555 1_555
C42_3 C41_3 1_555 1_555
H27_3 C42_3 1_555 1_555
C43_3 C42_3 1_555 1_555
H28_3 C43_3 1_555 1_555
C44_3 H29_3 1_555 1_555
C45_3 C41_3 1_555 1_555
H30_3 C45_3 1_555 1_555
C46_3 C40_3 1_555 1_555
C47_3 C46_3 1_555 1_555
H31_3 C47_3 1_555 1_555
C48_3 C47_3 1_555 1_555
H32_3 C48_3 1_555 1_555
N1_3 C48_3 1_555 1_555
C49_3 N1_3 1_555 1_555
C50_3 C46_3 1_555 1_555
H34_3 C50_3 1_555 1_555
N10_2 C43_3 1_555 1_555
N8_3 C36_3 1_555 1_555
O1_3 C22_3 1_555 1_555
O2_3 C22_3 1_555 1_555
O9 C30_3 1_555 1_555
O10 C30_3 1_555 1_555
O11_2 C29_3 1_555 1_555
O12_2 C29_3 1_555 1_555
C27_3 C28_3 1_555 1_555
C40_3 N8_3 1_555 1_555
C44_3 C45_3 1_555 1_555
C44_3 N10_2 1_555 1_555
C49_3 C50_3 1_555 1_555
Cd3 O1_3 1_555 1_555
Cd3 O2_3 1_555 1_555
Cd3 O8_3 1_555 1_555
C30_4 C27_4 1_555 1_555
C39_4 C38_4 1_555 1_555
H26_4 C39_4 1_555 1_555
C40_4 C39_4 1_555 1_555
H30_4 C45_4 1_555 1_555
C46_4 C40_4 1_555 1_555
C47_4 C46_4 1_555 1_555
H31_4 C47_4 1_555 1_555
C48_4 C47_4 1_555 1_555
H32_4 C48_4 1_555 1_555
N1_4 C48_4 1_555 1_555
C49_4 N1_4 1_555 1_555
H33_4 C49_4 1_555 1_555
C50_4 C46_4 1_555 1_555
H34_4 C50_4 1_555 1_555
O9_2 C30_4 1_555 1_555
O10_2 C30_4 1_555 1_555
C40_4 N8_4 1_555 1_555
C49_4 C50_4 1_555 1_555
C1_4 H1_4 1_555 1_555
C2_4 C1_4 1_555 1_555
H2_2 C2_4 1_555 1_555
C3_4 C2_4 1_555 1_555
C4_4 C3_4 1_555 1_555
H3_4 C4_4 1_555 1_555
C5_4 C4_4 1_555 1_555
H4_4 C5_4 1_555 1_555
C6_2 C3_4 1_555 1_555
C7_2 C6_2 1_555 1_555
H5_2 C7_2 1_555 1_555
C8_2 C7_2 1_555 1_555
C9_2 C8_2 1_555 1_555
H6_2 C9_2 1_555 1_555
C10_4 C11_4 1_555 1_555
C11_4 H7_2 1_555 1_555
C12_4 C11_4 1_555 1_555
H8_4 C12_4 1_555 1_555
C13_4 C10_4 1_555 1_555
H9_4 C13_4 1_555 1_555
C14_4 C13_4 1_555 1_555
H10_4 C14_4 1_555 1_555
C15_2 C8_2 1_555 1_555
C16_2 C15_2 1_555 1_555
H11_2 C16_2 1_555 1_555
C17_2 C16_2 1_555 1_555
H12_2 C17_2 1_555 1_555
C18_2 H13_2 1_555 1_555
C19_2 C15_2 1_555 1_555
H14_2 C19_2 1_555 1_555
C20_4 H15_2 1_555 1_555
H16_4 C20_4 1_555 1_555
H17_2 C20_4 1_555 1_555
C21_4 C20_4 1_555 1_555
C22_4 C23_4 1_555 1_555
C23_4 C24_4 1_555 1_555
C24_4 H18_4 1_555 1_555
C25_4 C24_4 1_555 1_555
C26_4 C25_4 1_555 1_555
C28_4 C23_4 1_555 1_555
H20_4 C28_4 1_555 1_555
C29_4 C25_4 1_555 1_555
C31_4 H21_4 1_555 1_555
C32_4 C31_4 1_555 1_555
H22_4 C32_4 1_555 1_555
C33_4 C32_4 1_555 1_555
C34_4 C33_4 1_555 1_555
C35_4 C34_4 1_555 1_555
H24_4 C35_4 1_555 1_555
C36_4 C33_4 1_555 1_555
C37_4 C36_4 1_555 1_555
H25_4 C37_4 1_555 1_555
C42_4 C41_4 1_555 1_555
H27_4 C42_4 1_555 1_555
C43_4 C42_4 1_555 1_555
H28_4 C43_4 1_555 1_555
C44_4 H29_4 1_555 1_555
C51_4 C9_2 1_555 1_555
Cd4 N2_4 1_555 1_555
Cd7 N4_4 1_555 1_555
N2_4 C1_4 1_555 1_555
N9 C12_4 1_555 1_555
N4_4 C31_4 1_555 1_555
N10 C43_4 1_555 1_555
N6_2 C17_2 1_555 1_555
N7_4 C6_2 1_555 1_555
O1_4 C22_4 1_555 1_555
O2_4 C22_4 1_555 1_555
O11 C29_4 1_555 1_555
O12 C29_4 1_555 1_555
O7_4 C21_4 1_555 1_555
O8_4 C21_4 1_555 1_555
C5_4 N2_4 1_555 1_555
C10_4 C51_4 1_555 1_555
C14_4 N9 1_555 1_555
C18_2 C19_2 1_555 1_555
C18_2 N6_2 1_555 1_555
C35_4 N4_4 1_555 1_555
C44_4 N10 1_555 1_555
C51_4 N7_4 1_555 1_555
Cd4 O1_4 1_555 1_555
Cd4 O2_4 1_555 1_555
Cd4 O7_4 1_555 1_555
Cd4 O8_4 1_555 1_555
Cd7 O7_4 1_555 1_555
C7_3 C6_3 1_555 1_555
H5_3 C7_3 1_555 1_555
C8_3 C7_3 1_555 1_555
C9_3 C8_3 1_555 1_555
H6_3 C9_3 1_555 1_555
C15_3 C8_3 1_555 1_555
C16_3 C15_3 1_555 1_555
H11_3 C16_3 1_555 1_555
C17_3 C16_3 1_555 1_555
H12_3 C17_3 1_555 1_555
C18_3 H13_3 1_555 1_555
C19_3 C15_3 1_555 1_555
H14_3 C19_3 1_555 1_555
N6_3 C17_3 1_555 1_555
C18_3 C19_3 1_555 1_555
C18_3 N6_3 1_555 1_555
C7_4 C6_4 1_555 1_555
H5_4 C7_4 1_555 1_555
C8_4 C7_4 1_555 1_555
C9_4 C8_4 1_555 1_555
H6_4 C9_4 1_555 1_555
C15_4 C8_4 1_555 1_555
C16_4 C15_4 1_555 1_555
H11_4 C16_4 1_555 1_555
C17_4 C16_4 1_555 1_555
H12_4 C17_4 1_555 1_555
C18_4 H13_4 1_555 1_555
C19_4 C15_4 1_555 1_555
H14_4 C19_4 1_555 1_555
N6_4 C17_4 1_555 1_555
C18_4 C19_4 1_555 1_555
C18_4 N6_4 1_555 1_555

#END
