
###############################################################################
#
# This file contains modified crystal structure data generated from the
# MOF subset of the Cambridge Structural Database (CSD) v543 
# hosted by the Cambridge Crystallographic Data Centre (CCDC).
#
# This work is licensed under the Creative Commons
# Attribution-NonCommercial-ShareAlike 4.0 International License.
# To view a copy of this license, visit
# http://creativecommons.org/licenses/by-nc-sa/4.0/
# or send a letter to
# Creative Commons, PO Box 1866, Mountain View, CA 94042, USA.
#
# CIF created using the CSD Python API on 29 September 2022
# The structure has been converted into the P1 space group
# The structure has a 3D framework
# The original CSD entry TOFQEM is in the orthorhombic crystal system
# The framework has been calculated to contain at least 10.0% void space
# The void calculation uses a probe of radius 1.32A, grid spacing 0.4
#
###############################################################################

data_TOFQEM
_chemical_formula_moiety         '(C48 H40 Cd4 N8 O20)n'
_symmetry_cell_setting           triclinic
_symmetry_space_group_name_H-M   'P 1'
_symmetry_Int_Tables_number      1
_space_group_name_Hall           'P 1'
loop_
_symmetry_equiv_pos_site_id
_symmetry_equiv_pos_as_xyz
1 x,y,z
_cell_length_a                   25.3660(15)
_cell_length_b                   6.0392(3)
_cell_length_c                   12.3195(8)
_cell_angle_alpha                90
_cell_angle_beta                 90
_cell_angle_gamma                90
_cell_volume                     1887.23
loop_
_atom_site_label
_atom_site_type_symbol
_atom_site_fract_x
_atom_site_fract_y
_atom_site_fract_z
H5 H 0.3621 0.0678 0.6763
C8 C 0.3003(2) 0.0639(10) 0.5771(6)
H6 H 0.3077 0.1992 0.5443
C12 C 0.2173(2) 0.0411(9) 0.4691(4)
O2 O 0.38144(15) 0.0700(6) 0.8974(3)
H9 H 0.3998 0.1148 0.9559
H10 H 0.3672 0.1706 0.8521
O5 O 0.21284(19) 0.2457(7) 0.4638(5)
Cd3 Cd 0.128629(11) 0.19971(5) 0.36492(9)
C6 C 0.0447(2) 0.0483(10) 0.2442(5)
O1 O 0.04797(18) 0.2451(8) 0.2707(5)
C1 C 0.0397(3) 0.2775(11) 0.5502(8)
H1 H 0.0396 0.4170 0.5182
C2 C 0.0003(3) 0.2271(11) 0.6221(8)
C7 C 0.1669(2) 0.4830(12) 0.1562(6)
H5_2 H 0.1379 0.5678 0.1763
C8_2 C 0.1997(2) 0.5639(10) 0.0771(6)
H6_2 H 0.1923 0.6992 0.0443
C9 C 0.2428(2) 0.4463(9) 0.0466(5)
C10 C 0.2501(3) 0.2416(11) 0.0948(7)
H7 H 0.2782 0.1516 0.0748
C11 C 0.2147(3) 0.1734(10) 0.1735(6)
H8 H 0.2200 0.0356 0.2054
O2_2 O 0.11856(15) 0.5700(6) 0.3974(3)
H9_2 H 0.1002 0.6148 0.4559
H10_2 H 0.1328 0.6706 0.3521
N1 N 0.07855(19) 0.1360(7) 0.5234(4)
N2 N 0.1744(2) 0.2896(8) 0.2057(5)
C1_2 C 0.4603(3) 0.7775(11) 0.0502(8)
H1_2 H 0.4604 0.9170 0.0182
C2_2 C 0.4997(3) 0.7271(11) 0.1221(8)
H2 H 0.5259 0.8304 0.1371
C3 C 0.5006(2) 0.5238(9) 0.1722(5)
C4 C 0.4590(3) 0.3840(10) 0.1510(5)
H3 H 0.4568 0.2475 0.1856
C5 C 0.4203(2) 0.4489(10) 0.0773(5)
H4 H 0.3920 0.3539 0.0656
C6_2 C 0.5447(2) 0.4517(10) 0.2442(5)
O1_2 O 0.54797(18) 0.2549(8) 0.2707(5)
O3 O 0.57914(16) 0.5932(7) 0.2713(4)
N1_2 N 0.42145(19) 0.6360(7) 0.0234(4)
Cd2 Cd 0.628629(11) 0.30029(5) 0.36492(9)
Cd1 Cd 0.371371(11) 0.69971(5) 0.86492(9)
C7_2 C 0.3331(2) 0.9830(12) 0.6562(6)
C9_2 C 0.2572(2) 0.9463(9) 0.5466(5)
C10_2 C 0.2499(3) 0.7416(11) 0.5948(7)
H7_2 H 0.2218 0.6516 0.5748
C11_2 C 0.2853(3) 0.6734(10) 0.6735(6)
H8_2 H 0.2800 0.5356 0.7054
O4 O 0.18659(15) 0.9120(6) 0.4187(4)
N2_2 N 0.3256(2) 0.7896(8) 0.7057(5)
O6 O 0.45203(18) 0.7451(8) 0.7707(5)
O7 O 0.42086(16) 0.4068(7) 0.7713(4)
O8 O 0.31341(15) 0.4120(6) 0.9187(4)
O9 O 0.28716(19) 0.7457(7) 0.9638(5)
C1_3 C 0.5397(3) 0.2225(11) 0.5502(8)
H1_3 H 0.5396 0.0830 0.5182
C2_3 C 0.5003(3) 0.2729(11) 0.6221(8)
H2_2 H 0.4741 0.1696 0.6371
C3_2 C 0.4994(2) 0.4762(9) 0.6722(5)
C4_2 C 0.5410(3) 0.6160(10) 0.6510(5)
H3_2 H 0.5432 0.7525 0.6856
C5_2 C 0.5797(2) 0.5511(10) 0.5773(5)
H4_2 H 0.6080 0.6461 0.5656
C6_3 C 0.4553(2) 0.5483(10) 0.7442(5)
C7_3 C 0.6669(2) 0.0170(12) 0.1562(6)
C9_3 C 0.7428(2) 0.0537(9) 0.0466(5)
C10_3 C 0.7501(3) 0.2584(11) 0.0948(7)
H7_3 H 0.7782 0.3484 0.0748
C11_3 C 0.7147(3) 0.3266(10) 0.1735(6)
H8_3 H 0.7200 0.4644 0.2054
N1_3 N 0.57855(19) 0.3640(7) 0.5234(4)
N2_3 N 0.6744(2) 0.2104(8) 0.2057(5)
O8_2 O 0.68659(15) 0.5880(6) 0.4187(4)
O9_2 O 0.71284(19) 0.2543(7) 0.4638(5)
C12_2 C 0.7827(2) 0.9589(9) 0.9691(4)
O5_2 O 0.78716(19) 0.7543(7) 0.9638(5)
Cd3_2 Cd 0.871371(11) 0.80029(5) 0.86492(9)
H2_3 H 0.0259 0.6696 0.1371
C3_3 C 0.0006(2) 0.9762(9) 0.1722(5)
O3_2 O 0.07914(16) 0.9068(7) 0.2713(4)
C7_4 C 0.8331(2) 0.5170(12) 0.6562(6)
H5_3 H 0.8621 0.4322 0.6763
C8_3 C 0.8003(2) 0.4361(10) 0.5771(6)
H6_3 H 0.8077 0.3008 0.5443
C9_4 C 0.7572(2) 0.5537(9) 0.5466(5)
C10_4 C 0.7499(3) 0.7584(11) 0.5948(7)
H7_4 H 0.7218 0.8484 0.5748
C11_4 C 0.7853(3) 0.8266(10) 0.6735(6)
H8_4 H 0.7800 0.9644 0.7054
C12_3 C 0.7173(2) 0.4589(9) 0.4691(4)
O2_3 O 0.88144(15) 0.4300(6) 0.8974(3)
H9_3 H 0.8998 0.3852 0.9559
H10_3 H 0.8672 0.3294 0.8521
N2_4 N 0.8256(2) 0.7104(8) 0.7057(5)
O6_2 O 0.95203(18) 0.7549(8) 0.7707(5)
C12_4 C 0.2827(2) 0.5411(9) 0.9691(4)
C4_3 C 0.0410(3) 0.8840(10) 0.6510(5)
H3_3 H 0.0432 0.7475 0.6856
C5_3 C 0.0797(2) 0.9489(10) 0.5773(5)
H4_3 H 0.1080 0.8539 0.5656
C6_4 C 0.9553(2) 0.9517(10) 0.7442(5)
O4_2 O 0.81341(15) 0.0880(6) 0.9187(4)
O7_2 O 0.92086(16) 0.0932(7) 0.7713(4)
H2_4 H 0.9741 0.3304 0.6371
C3_4 C 0.9994(2) 0.0238(9) 0.6722(5)
H5_4 H 0.6379 0.9322 0.1763
C8_4 C 0.6997(2) 0.9361(10) 0.0771(6)
H6_4 H 0.6923 0.8008 0.0443
O2_4 O 0.61856(15) 0.9300(6) 0.3974(3)
H9_4 H 0.6002 0.8852 0.4559
H10_4 H 0.6328 0.8294 0.3521
C4_4 C 0.9590(3) 0.1160(10) 0.1510(5)
H3_4 H 0.9568 0.2525 0.1856
C5_4 C 0.9203(2) 0.0511(10) 0.0773(5)
H4_4 H 0.8920 0.1461 0.0656
C1_4 C 0.9603(3) 0.7225(11) 0.0502(8)
H1_4 H 0.9604 0.5830 0.0182
C2_4 C 0.9997(3) 0.7729(11) 0.1221(8)
N1_4 N 0.92145(19) 0.8640(7) 0.0234(4)
loop_
_geom_bond_atom_site_label_1
_geom_bond_atom_site_label_2
_geom_bond_site_symmetry_1
_geom_bond_site_symmetry_2
H6 C8 1_555 1_555
O2 H9 1_555 1_555
H10 O2 1_555 1_555
O5 C12 1_555 1_555
O5 Cd3 1_555 1_555
O1 C6 1_555 1_555
Cd3 O1 1_555 1_555
Cd3 O2_2 1_555 1_555
C1 H1 1_555 1_555
C2 C1 1_555 1_555
C7 H5_2 1_555 1_555
C8_2 C7 1_555 1_555
H6_2 C8_2 1_555 1_555
C9 C8_2 1_555 1_555
C10 C9 1_555 1_555
H7 C10 1_555 1_555
C11 C10 1_555 1_555
H8 C11 1_555 1_555
O2_2 H9_2 1_555 1_555
H10_2 O2_2 1_555 1_555
N1 Cd3 1_555 1_555
N2 Cd3 1_555 1_555
C1 N1 1_555 1_555
C7 N2 1_555 1_555
C11 N2 1_555 1_555
C1_2 H1_2 1_555 1_555
C2_2 C1_2 1_555 1_555
H2 C2_2 1_555 1_555
C3 C2_2 1_555 1_555
C4 C3 1_555 1_555
H3 C4 1_555 1_555
C5 C4 1_555 1_555
H4 C5 1_555 1_555
C6_2 C3 1_555 1_555
O1_2 C6_2 1_555 1_555
O3 C6_2 1_555 1_555
Cd2 O1_2 1_555 1_555
C1_2 N1_2 1_555 1_555
C5 N1_2 1_555 1_555
O3 Cd2 1_555 1_555
C10_2 C9_2 1_555 1_555
H7_2 C10_2 1_555 1_555
C11_2 C10_2 1_555 1_555
H8_2 C11_2 1_555 1_555
N2_2 Cd1 1_555 1_555
O6 Cd1 1_555 1_555
O7 Cd1 1_555 1_555
O8 Cd1 1_555 1_555
O9 Cd1 1_555 1_555
C7_2 N2_2 1_555 1_555
C11_2 N2_2 1_555 1_555
C1_3 H1_3 1_555 1_555
C2_3 C1_3 1_555 1_555
H2_2 C2_3 1_555 1_555
C3_2 C2_3 1_555 1_555
C4_2 C3_2 1_555 1_555
H3_2 C4_2 1_555 1_555
C5_2 C4_2 1_555 1_555
H4_2 C5_2 1_555 1_555
C6_3 C3_2 1_555 1_555
C10_3 C9_3 1_555 1_555
H7_3 C10_3 1_555 1_555
C11_3 C10_3 1_555 1_555
H8_3 C11_3 1_555 1_555
O6 C6_3 1_555 1_555
O7 C6_3 1_555 1_555
N1_3 Cd2 1_555 1_555
N2_3 Cd2 1_555 1_555
O8_2 Cd2 1_555 1_555
O9_2 Cd2 1_555 1_555
C1_3 N1_3 1_555 1_555
C5_2 N1_3 1_555 1_555
C7_3 N2_3 1_555 1_555
C11_3 N2_3 1_555 1_555
O5_2 C12_2 1_555 1_555
O5_2 Cd3_2 1_555 1_555
Cd3_2 O2_3 1_555 1_555
C7_4 H5_3 1_555 1_555
C8_3 C7_4 1_555 1_555
H6_3 C8_3 1_555 1_555
C9_4 C8_3 1_555 1_555
C10_4 C9_4 1_555 1_555
H7_4 C10_4 1_555 1_555
C11_4 C10_4 1_555 1_555
H8_4 C11_4 1_555 1_555
C12_3 C9_4 1_555 1_555
O2_3 H9_3 1_555 1_555
H10_3 O2_3 1_555 1_555
O8_2 C12_3 1_555 1_555
O9_2 C12_3 1_555 1_555
N2_4 Cd3_2 1_555 1_555
O6_2 Cd3_2 1_555 1_555
C7_4 N2_4 1_555 1_555
C11_4 N2_4 1_555 1_555
O8 C12_4 1_555 1_555
O9 C12_4 1_555 1_555
H3_3 C4_3 1_555 1_555
C5_3 C4_3 1_555 1_555
H4_3 C5_3 1_555 1_555
O6_2 C6_4 1_555 1_555
H6_4 C8_4 1_555 1_555
O2_4 H9_4 1_555 1_555
H10_4 O2_4 1_555 1_555
H3_4 C4_4 1_555 1_555
C5_4 C4_4 1_555 1_555
H4_4 C5_4 1_555 1_555
C1_4 H1_4 1_555 1_555
C2_4 C1_4 1_555 1_555
C1_4 N1_4 1_555 1_555

#END
