
###############################################################################
#
# This file contains modified crystal structure data generated from the
# MOF subset of the Cambridge Structural Database (CSD) v543 
# hosted by the Cambridge Crystallographic Data Centre (CCDC).
#
# This work is licensed under the Creative Commons
# Attribution-NonCommercial-ShareAlike 4.0 International License.
# To view a copy of this license, visit
# http://creativecommons.org/licenses/by-nc-sa/4.0/
# or send a letter to
# Creative Commons, PO Box 1866, Mountain View, CA 94042, USA.
#
# CIF created using the CSD Python API on 29 September 2022
# The structure has been converted into the P1 space group
# The structure has a 3D framework
# The original CSD entry TOFWAO is in the monoclinic crystal system
# The framework has been calculated to contain at least 10.0% void space
# The void calculation uses a probe of radius 1.32A, grid spacing 0.4
# The framework is charged, counterions have been retained in the structure
#
###############################################################################

data_TOFWAO
_chemical_formula_moiety         '(C168 H188 Cl4 N8 Na8 O48 Re4 S8)n'
_symmetry_cell_setting           triclinic
_symmetry_space_group_name_H-M   'P 1'
_symmetry_Int_Tables_number      1
_space_group_name_Hall           'P 1'
loop_
_symmetry_equiv_pos_site_id
_symmetry_equiv_pos_as_xyz
1 x,y,z
_cell_length_a                   10.2673(14)
_cell_length_b                   19.738(4)
_cell_length_c                   25.678(4)
_cell_angle_alpha                90
_cell_angle_beta                 95.643(5)
_cell_angle_gamma                90
_cell_volume                     5178.58
loop_
_atom_site_label
_atom_site_type_symbol
_atom_site_fract_x
_atom_site_fract_y
_atom_site_fract_z
C4 C 0.0035(15) 0.2909(8) 0.4957(5)
C5 C 0.0620(12) 0.2293(10) 0.5100(4)
H2 H 0.1064 0.2237 0.5439
C6 C 0.0555(11) 0.1758(7) 0.4746(6)
Re1 Re 0.13989(8) 0.11173(4) 0.33239(3)
Cl1 Cl 0.1839(4) 0.0079(3) 0.38523(19)
S2 S 0.0213(7) 0.3563(3) 0.5417(2)
O1 O 0.3684(16) 0.1864(9) 0.3914(7)
O4 O 0.3266(17) 0.0673(9) 0.2513(7)
O6 O 0.1557(17) 0.3500(8) 0.5677(6)
O7 O 0.0023(14) 0.4191(7) 0.5130(5)
C7 C 0.282(3) 0.1555(13) 0.3690(9)
O8 O 0.1101(18) 0.2436(10) 0.2684(7)
C35 C 0.114(2) 0.1943(15) 0.2928(10)
C36 C 0.262(2) 0.0835(11) 0.2809(10)
C37 C 0.045(2) 0.0777(11) 0.5378(9)
H32 H 0.0816 0.0329 0.547
H34 H 0.0582 0.1077 0.5683
C38 C 0.114(2) 0.1074(12) 0.4930(8)
H35 H 0.1016 0.0752 0.4628
C39 C 0.256(3) 0.1109(13) 0.5105(9)
H36 H 0.2708 0.1428 0.5397
H37 H 0.3039 0.1263 0.4814
H38 H 0.2877 0.0659 0.5219
Na3 Na 0.0084(12) 0.0945(6) 0.0112(4)
Na6 Na 0.1559(9) 0.4898(4) 0.4770(3)
C17 C 0.060(2) 0.9211(10) 0.2708(7)
H12 H 0.08 0.9465 0.3043
C18 C 0.188(2) 0.8967(12) 0.2538(10)
H13 H 0.1713 0.8665 0.2236
H14 H 0.2366 0.8721 0.2826
H15 H 0.2397 0.9357 0.2441
H17 H 0.0272 0.8297 0.3073
O12 O 0.2038(19) 0.8951(13) 0.0363(12)
C42 C 0.221(3) 0.8496(18) 0.0812(13)
H45 H 0.1383 0.8262 0.0852
H46 H 0.2474 0.8757 0.1129
H47 H 0.2887 0.8161 0.0756
Na5 Na 0.3441(9) 0.9898(4) 0.0230(3)
O15 O 0.076(2) 0.9990(11) 0.9476(7)
C1 C 0.9905(12) 0.1840(5) 0.4249(5)
C2 C 0.9320(11) 0.2456(7) 0.4106(4)
C3 C 0.9385(14) 0.2991(5) 0.4460(6)
H1 H 0.8985 0.3412 0.4362
O5 O 0.9217(16) 0.3446(8) 0.5749(8)
N1 N 0.9913(17) 0.1311(8) 0.3864(6)
N2 N 0.9664(15) 0.0568(7) 0.2994(6)
C8 C 0.9375(17) 0.0306(10) 0.2461(8)
C9 C 0.8663(19) 0.0739(11) 0.2107(8)
C10 C 0.811(3) 0.1417(12) 0.2240(9)
H3 H 0.8502 0.1538 0.26
C11 C 0.668(3) 0.1422(13) 0.2251(9)
H4 H 0.6259 0.1292 0.1906
H5 H 0.6393 0.1878 0.2338
H6 H 0.6433 0.11 0.2514
C12 C 0.856(3) 0.1977(11) 0.1856(9)
H7 H 0.8035 0.1939 0.1517
H8 H 0.9484 0.1914 0.1809
H9 H 0.8427 0.2427 0.2005
C13 C 0.839(2) 0.0504(12) 0.1602(9)
H10 H 0.7899 0.0781 0.1352
O9 O 0.924(2) 0.0010(11) 0.0524(7)
C20 C 0.880(2) 0.0487(10) 0.3316(9)
C21 C 0.756(2) 0.0139(11) 0.3287(10)
C25 C 0.574(3) 0.0112(12) 0.3864(10)
C26 C 0.698(2) 0.0348(11) 0.3749(10)
C27 C 0.777(3) 0.0807(12) 0.4061(10)
C28 C 0.728(2) 0.1044(10) 0.4511(10)
H22 H 0.7763 0.1358 0.4735
C29 C 0.603(3) 0.0796(13) 0.4625(8)
H23 H 0.5699 0.0952 0.4937
C30 C 0.529(2) 0.0366(12) 0.4327(11)
H24 H 0.4458 0.023 0.4426
C31 C 0.893(2) 0.0905(10) 0.3801(8)
C32 C 0.853(2) 0.2558(11) 0.3564(7)
H25 H 0.8793 0.2194 0.3325
C33 C 0.884(2) 0.3254(11) 0.3319(8)
H26 H 0.8436 0.3617 0.3509
H27 H 0.848 0.3262 0.2951
H28 H 0.9785 0.332 0.3344
C34 C 0.707(2) 0.2490(11) 0.3598(9)
H29 H 0.6791 0.2819 0.385
H30 H 0.6873 0.203 0.3713
H31 H 0.66 0.2575 0.3253
H33 H 0.9512 0.0734 0.527
O14 O 0.5023(14) 0.0809(7) 0.0130(5)
Na4 Na 0.8441(9) 0.5102(4) 0.5230(3)
Na2 Na 0.6559(9) 0.0102(4) 0.9770(3)
O10 O 0.5289(17) 0.0347(8) 0.8990(6)
C40 C 0.522(3) 0.0070(13) 0.8496(11)
H39 H 0.4555 0.031 0.8266
H41 H 0.6071 0.0112 0.8357
O16 O 0.7962(19) 0.1049(13) 0.9637(12)
Na1 Na 0.9916(12) 0.9055(6) 0.9888(4)
H40 H 0.4982 0.959 0.8513
O11 O 0.7941(18) 0.9268(10) 0.9341(7)
C41 C 0.819(3) 0.927(2) 0.8777(15)
H42 H 0.7535 0.9559 0.858
H43 H 0.8123 0.8809 0.8639
H44 H 0.9065 0.9451 0.8743
O13 O 0.4977(14) 0.9191(7) 0.9870(5)
H21 H 0.0749 0.448 0.1426
H24_2 H 0.0542 0.523 0.0574
H39_2 H 0.0445 0.531 0.6734
H40_2 H 0.0018 0.459 0.6487
C1_2 C 0.5095(12) 0.6840(5) 0.0751(5)
C2_2 C 0.5680(11) 0.7456(7) 0.0894(4)
C3_2 C 0.5615(14) 0.7991(5) 0.0540(6)
H1_2 H 0.6015 0.8412 0.0638
C4_2 C 0.4965(15) 0.7909(8) 0.0043(5)
C6_2 C 0.4445(11) 0.6758(7) 0.0254(6)
Re1_2 Re 0.36011(8) 0.61173(4) 0.16761(3)
Cl1_2 Cl 0.3161(4) 0.5079(3) 0.11477(19)
S1 S 0.6510(7) 0.4596(4) 0.4207(2)
O1_2 O 0.1316(16) 0.6864(9) 0.1086(7)
O2 O 0.6107(18) 0.3908(9) 0.4244(6)
O3 O 0.7900(17) 0.4696(10) 0.4348(6)
O4_2 O 0.1734(17) 0.5673(9) 0.2487(7)
N1_2 N 0.5087(17) 0.6311(8) 0.1136(6)
C7_2 C 0.218(3) 0.6555(13) 0.1310(9)
N2_2 N 0.5336(15) 0.5568(7) 0.2006(6)
C8_2 C 0.5625(17) 0.5306(10) 0.2539(8)
O8_2 O 0.3899(18) 0.7436(10) 0.2316(7)
C9_2 C 0.6337(19) 0.5739(11) 0.2893(8)
C10_2 C 0.689(3) 0.6417(12) 0.2760(9)
H3_2 H 0.6498 0.6538 0.24
C11_2 C 0.832(3) 0.6422(13) 0.2749(9)
H4_2 H 0.8741 0.6292 0.3094
H5_2 H 0.8607 0.6878 0.2662
H6_2 H 0.8567 0.61 0.2486
C12_2 C 0.644(3) 0.6977(11) 0.3144(9)
H7_2 H 0.6965 0.6939 0.3483
H8_2 H 0.5516 0.6914 0.3191
H9_2 H 0.6573 0.7427 0.2995
C13_2 C 0.661(2) 0.5504(12) 0.3398(9)
H10_2 H 0.7101 0.5781 0.3648
C14 C 0.618(2) 0.4869(13) 0.3551(7)
O9_2 O 0.576(2) 0.5010(11) 0.4476(7)
C15 C 0.5463(18) 0.4462(11) 0.3186(8)
H11 H 0.5181 0.4027 0.3287
C16 C 0.5156(17) 0.4685(9) 0.2673(8)
C17_2 C 0.440(2) 0.4211(10) 0.2292(7)
H12_2 H 0.42 0.4465 0.1957
C18_2 C 0.312(2) 0.3967(12) 0.2462(10)
H13_2 H 0.3287 0.3665 0.2764
H14_2 H 0.2634 0.3721 0.2174
H15_2 H 0.2603 0.4357 0.2559
C19 C 0.524(2) 0.3597(12) 0.2173(9)
H16 H 0.6021 0.3752 0.2018
H17_2 H 0.4728 0.3297 0.1927
H18 H 0.5498 0.3351 0.2498
C20_2 C 0.620(2) 0.5487(10) 0.1684(9)
C21_2 C 0.744(2) 0.5139(11) 0.1713(10)
C22 C 0.815(3) 0.4697(12) 0.2044(8)
H19 H 0.7809 0.4544 0.2353
C23 C 0.938(2) 0.4472(11) 0.1926(11)
H20 H 0.9862 0.4175 0.2166
C24 C 0.992(2) 0.4657(13) 0.1493(13)
C25_2 C 0.926(3) 0.5112(12) 0.1136(10)
C26_2 C 0.802(2) 0.5348(11) 0.1251(10)
C27_2 C 0.723(3) 0.5807(12) 0.0939(10)
C28_2 C 0.772(2) 0.6044(10) 0.0489(10)
H22_2 H 0.7237 0.6358 0.0265
C29_2 C 0.897(3) 0.5796(13) 0.0375(8)
H23_2 H 0.9301 0.5952 0.0063
C30_2 C 0.971(2) 0.5366(12) 0.0673(11)
C31_2 C 0.607(2) 0.5905(10) 0.1199(8)
C32_2 C 0.647(2) 0.7558(11) 0.1436(7)
H25_2 H 0.6207 0.7194 0.1675
C33_2 C 0.616(2) 0.8254(11) 0.1681(8)
H26_2 H 0.6564 0.8617 0.1491
H27_2 H 0.652 0.8262 0.2049
H28_2 H 0.5215 0.832 0.1656
C34_2 C 0.793(2) 0.7490(11) 0.1402(9)
H29_2 H 0.8209 0.7819 0.115
H30_2 H 0.8127 0.703 0.1287
H31_2 H 0.84 0.7575 0.1747
C35_2 C 0.386(2) 0.6943(15) 0.2072(10)
C36_2 C 0.238(2) 0.5835(11) 0.2191(10)
Na1_2 Na 0.5084(12) 0.4055(6) 0.5112(4)
C38_2 C 0.386(2) 0.6074(12) 0.0070(8)
H35_2 H 0.3984 0.5752 0.0372
H37_2 H 0.1961 0.6263 0.0186
O10_2 O 0.9711(17) 0.5347(8) 0.6010(6)
C40_2 C 0.978(3) 0.5070(13) 0.6504(11)
H41_2 H 0.8929 0.5112 0.6643
O11_2 O 0.7059(18) 0.4268(10) 0.5659(7)
C41_2 C 0.681(3) 0.427(2) 0.6223(15)
H42_2 H 0.7465 0.4559 0.642
H43_2 H 0.6877 0.3809 0.6361
H44_2 H 0.5935 0.4451 0.6257
O12_2 O 0.2962(19) 0.3951(13) 0.4637(12)
C42_2 C 0.279(3) 0.3496(18) 0.4188(13)
H45_2 H 0.3617 0.3262 0.4148
H46_2 H 0.2526 0.3757 0.3871
H47_2 H 0.2113 0.3161 0.4244
O14_2 O 0.9977(14) 0.5809(7) 0.4870(5)
O15_2 O 0.424(2) 0.4990(11) 0.5524(7)
Na3_2 Na 0.4916(12) 0.5945(6) 0.4888(4)
O16_2 O 0.7038(19) 0.6049(13) 0.5363(12)
C5_2 C 0.4380(12) 0.7293(10) 0.9900(4)
H2_2 H 0.3936 0.7237 0.9561
S2_2 S 0.4787(7) 0.8563(3) 0.9583(2)
O5_2 O 0.5783(16) 0.8446(8) 0.9251(8)
O6_2 O 0.3443(17) 0.8500(8) 0.9323(6)
C37_2 C 0.455(2) 0.5777(11) 0.9622(9)
H32_2 H 0.4184 0.5329 0.953
H33_2 H 0.5488 0.5734 0.973
H34_2 H 0.4418 0.6077 0.9317
C39_2 C 0.244(3) 0.6109(13) 0.9895(9)
H36_2 H 0.2292 0.6428 0.9603
H38_2 H 0.2123 0.5659 0.9781
H40_3 H 0.5018 0.041 0.1487
O11_3 O 0.2059(18) 0.0732(10) 0.0659(7)
C41_3 C 0.181(3) 0.073(2) 0.1223(15)
H42_3 H 0.2465 0.0441 0.142
H43_3 H 0.1877 0.1191 0.1361
H44_3 H 0.0935 0.0549 0.1257
O10_3 O 0.4711(17) 0.9653(8) 0.1010(6)
C40_3 C 0.478(3) 0.9930(13) 0.1504(11)
H39_3 H 0.5445 0.969 0.1734
H41_3 H 0.3929 0.9888 0.1643
C1_3 C 0.0095(12) 0.8160(5) 0.5751(5)
C2_3 C 0.0680(11) 0.7544(7) 0.5894(4)
C3_3 C 0.0615(14) 0.7009(5) 0.5540(6)
H1_3 H 0.1015 0.6588 0.5638
O5_3 O 0.0783(16) 0.6554(8) 0.4251(8)
N1_3 N 0.0087(17) 0.8689(8) 0.6136(6)
N2_3 N 0.0336(15) 0.9432(7) 0.7006(6)
C8_3 C 0.0625(17) 0.9694(10) 0.7539(8)
C9_3 C 0.1337(19) 0.9261(11) 0.7893(8)
C10_3 C 0.189(3) 0.8583(12) 0.7760(9)
H3_3 H 0.1498 0.8462 0.74
C11_3 C 0.332(3) 0.8578(13) 0.7749(9)
H4_3 H 0.3741 0.8708 0.8094
H5_3 H 0.3607 0.8122 0.7662
H6_3 H 0.3567 0.89 0.7486
C12_3 C 0.144(3) 0.8023(11) 0.8144(9)
H7_3 H 0.1965 0.8061 0.8483
H8_3 H 0.0516 0.8086 0.8191
H9_3 H 0.1573 0.7573 0.7995
C13_3 C 0.161(2) 0.9496(12) 0.8398(9)
H10_3 H 0.2101 0.9219 0.8648
C20_3 C 0.120(2) 0.9513(10) 0.6684(9)
C21_3 C 0.244(2) 0.9861(11) 0.6713(10)
C25_3 C 0.426(3) 0.9888(12) 0.6136(10)
C26_3 C 0.302(2) 0.9652(11) 0.6251(10)
C27_3 C 0.223(3) 0.9193(12) 0.5939(10)
C28_3 C 0.272(2) 0.8956(10) 0.5489(10)
H22_3 H 0.2237 0.8642 0.5265
C29_3 C 0.397(3) 0.9204(13) 0.5375(8)
H23_3 H 0.4301 0.9048 0.5063
C30_3 C 0.471(2) 0.9634(12) 0.5673(11)
H24_3 H 0.5542 0.977 0.5574
C31_3 C 0.107(2) 0.9095(10) 0.6199(8)
C32_3 C 0.147(2) 0.7442(11) 0.6436(7)
H25_3 H 0.1207 0.7806 0.6675
C33_3 C 0.116(2) 0.6746(11) 0.6681(8)
H26_3 H 0.1564 0.6383 0.6491
H27_3 H 0.152 0.6738 0.7049
H28_3 H 0.0215 0.668 0.6656
C34_3 C 0.293(2) 0.7510(11) 0.6402(9)
H29_3 H 0.3209 0.7181 0.615
H30_3 H 0.3127 0.797 0.6287
H31_3 H 0.34 0.7425 0.6747
H33_3 H 0.0488 0.9266 0.473
C17_3 C 0.940(2) 0.0789(10) 0.7292(7)
H12_3 H 0.92 0.0535 0.6957
C18_3 C 0.812(2) 0.1033(12) 0.7462(10)
H13_3 H 0.8287 0.1335 0.7764
H14_3 H 0.7634 0.1279 0.7174
H15_3 H 0.7603 0.0643 0.7559
H17_3 H 0.9728 0.1703 0.6927
C42_3 C 0.779(3) 0.1504(18) 0.9188(13)
H45_3 H 0.8617 0.1738 0.9148
H46_3 H 0.7526 0.1243 0.8871
H47_3 H 0.7113 0.1839 0.9244
C4_3 C 0.9965(15) 0.7091(8) 0.5043(5)
C5_3 C 0.9380(12) 0.7707(10) 0.4900(4)
H2_3 H 0.8936 0.7763 0.4561
C6_3 C 0.9445(11) 0.8242(7) 0.5254(6)
Re1_3 Re 0.86011(8) 0.88827(4) 0.66761(3)
Cl1_3 Cl 0.8161(4) 0.9921(3) 0.61477(19)
S2_3 S 0.9787(7) 0.6437(3) 0.4583(2)
O1_3 O 0.6316(16) 0.8136(9) 0.6086(7)
O4_3 O 0.6734(17) 0.9327(9) 0.7487(7)
O6_3 O 0.8443(17) 0.6500(8) 0.4323(6)
C7_3 C 0.718(3) 0.8445(13) 0.6310(9)
O8_3 O 0.8899(18) 0.7564(10) 0.7316(7)
C35_3 C 0.886(2) 0.8057(15) 0.7072(10)
C36_3 C 0.738(2) 0.9165(11) 0.7191(10)
C37_3 C 0.955(2) 0.9223(11) 0.4622(9)
H32_3 H 0.9184 0.9671 0.453
H34_3 H 0.9418 0.8923 0.4317
C38_3 C 0.886(2) 0.8926(12) 0.5070(8)
H35_3 H 0.8984 0.9248 0.5372
C39_3 C 0.744(3) 0.8891(13) 0.4895(9)
H36_3 H 0.7292 0.8572 0.4603
H37_3 H 0.6961 0.8737 0.5186
H38_3 H 0.7123 0.9341 0.4781
C5_4 C 0.5620(12) 0.2707(10) 0.0100(4)
H2_4 H 0.6064 0.2763 0.0439
S2_4 S 0.5213(7) 0.1437(3) 0.0417(2)
O5_4 O 0.4217(16) 0.1554(8) 0.0749(8)
O6_4 O 0.6557(17) 0.1500(8) 0.0677(6)
C37_4 C 0.545(2) 0.4223(11) 0.0378(9)
H32_4 H 0.5816 0.4671 0.047
H33_4 H 0.4512 0.4266 0.027
H34_4 H 0.5582 0.3923 0.0683
C39_4 C 0.756(3) 0.3891(13) 0.0105(9)
H36_4 H 0.7708 0.3572 0.0397
H38_4 H 0.7877 0.4341 0.0219
C1_4 C 0.4905(12) 0.3160(5) 0.9249(5)
C2_4 C 0.4320(11) 0.2544(7) 0.9106(4)
C3_4 C 0.4385(14) 0.2009(5) 0.9460(6)
H1_4 H 0.3985 0.1588 0.9362
C4_4 C 0.5035(15) 0.2091(8) 0.9957(5)
C6_4 C 0.5555(11) 0.3242(7) 0.9746(6)
Re1_4 Re 0.63989(8) 0.38827(4) 0.83239(3)
Cl1_4 Cl 0.6839(4) 0.4921(3) 0.88523(19)
S1_2 S 0.3490(7) 0.5404(4) 0.5793(2)
O1_4 O 0.8684(16) 0.3136(9) 0.8914(7)
O2_2 O 0.3893(18) 0.6092(9) 0.5756(6)
O3_2 O 0.2100(17) 0.5304(10) 0.5652(6)
O4_4 O 0.8266(17) 0.4327(9) 0.7513(7)
N1_4 N 0.4913(17) 0.3689(8) 0.8864(6)
C7_4 C 0.782(3) 0.3445(13) 0.8690(9)
N2_4 N 0.4664(15) 0.4432(7) 0.7994(6)
C8_4 C 0.4375(17) 0.4694(10) 0.7461(8)
O8_4 O 0.6101(18) 0.2564(10) 0.7684(7)
C9_4 C 0.3663(19) 0.4261(11) 0.7107(8)
C10_4 C 0.311(3) 0.3583(12) 0.7240(9)
H3_4 H 0.3502 0.3462 0.76
C11_4 C 0.168(3) 0.3578(13) 0.7251(9)
H4_4 H 0.1259 0.3708 0.6906
H5_4 H 0.1393 0.3122 0.7338
H6_4 H 0.1433 0.39 0.7514
C12_4 C 0.356(3) 0.3023(11) 0.6856(9)
H7_4 H 0.3035 0.3061 0.6517
H8_4 H 0.4484 0.3086 0.6809
H9_4 H 0.3427 0.2573 0.7005
C13_4 C 0.339(2) 0.4496(12) 0.6602(9)
H10_4 H 0.2899 0.4219 0.6352
C14_2 C 0.382(2) 0.5131(13) 0.6449(7)
C15_2 C 0.4537(18) 0.5538(11) 0.6814(8)
H11_2 H 0.4819 0.5973 0.6713
C16_2 C 0.4844(17) 0.5315(9) 0.7327(8)
C17_4 C 0.560(2) 0.5789(10) 0.7708(7)
H12_4 H 0.58 0.5535 0.8043
C18_4 C 0.688(2) 0.6033(12) 0.7538(10)
H13_4 H 0.6713 0.6335 0.7236
H14_4 H 0.7366 0.6279 0.7826
H15_4 H 0.7397 0.5643 0.7441
C19_2 C 0.476(2) 0.6403(12) 0.7827(9)
H16_2 H 0.3979 0.6248 0.7982
H17_4 H 0.5272 0.6703 0.8073
H18_2 H 0.4502 0.6649 0.7502
C20_4 C 0.380(2) 0.4513(10) 0.8316(9)
C21_4 C 0.256(2) 0.4861(11) 0.8287(10)
C22_2 C 0.185(3) 0.5303(12) 0.7956(8)
H19_2 H 0.2191 0.5456 0.7647
C23_2 C 0.062(2) 0.5528(11) 0.8074(11)
H20_2 H 0.0138 0.5825 0.7834
C24_2 C 0.008(2) 0.5343(13) 0.8507(13)
C25_4 C 0.074(3) 0.4888(12) 0.8864(10)
C26_4 C 0.198(2) 0.4652(11) 0.8749(10)
C27_4 C 0.277(3) 0.4193(12) 0.9061(10)
C28_4 C 0.228(2) 0.3956(10) 0.9511(10)
H22_4 H 0.2763 0.3642 0.9735
C29_4 C 0.103(3) 0.4204(13) 0.9625(8)
H23_4 H 0.0699 0.4048 0.9937
C30_4 C 0.029(2) 0.4634(12) 0.9327(11)
C31_4 C 0.393(2) 0.4095(10) 0.8801(8)
C32_4 C 0.353(2) 0.2442(11) 0.8564(7)
H25_4 H 0.3793 0.2806 0.8325
C33_4 C 0.384(2) 0.1746(11) 0.8319(8)
H26_4 H 0.3436 0.1383 0.8509
H27_4 H 0.348 0.1738 0.7951
H28_4 H 0.4785 0.168 0.8344
C34_4 C 0.207(2) 0.2510(11) 0.8598(9)
H29_4 H 0.1791 0.2181 0.885
H30_4 H 0.1873 0.297 0.8713
H31_4 H 0.16 0.2425 0.8253
C35_4 C 0.614(2) 0.3057(15) 0.7928(10)
C36_4 C 0.762(2) 0.4165(11) 0.7809(10)
C38_4 C 0.614(2) 0.3926(12) 0.9930(8)
H35_4 H 0.6016 0.4248 0.9628
H37_4 H 0.8039 0.3737 0.9814
O10_4 O 0.0289(17) 0.4653(8) 0.3990(6)
C40_4 C 0.022(3) 0.4930(13) 0.3496(11)
H41_4 H 0.1071 0.4888 0.3357
O11_4 O 0.2941(18) 0.5732(10) 0.4341(7)
C41_4 C 0.319(3) 0.573(2) 0.3777(15)
H42_4 H 0.2535 0.5441 0.358
H43_4 H 0.3123 0.6191 0.3639
H44_4 H 0.4065 0.5549 0.3743
C42_4 C 0.721(3) 0.6504(18) 0.5812(13)
H45_4 H 0.6383 0.6738 0.5852
H46_4 H 0.7474 0.6243 0.6129
H47_4 H 0.7887 0.6839 0.5756
H21_2 H 0.9251 0.552 0.8574
H24_4 H 0.9458 0.477 0.9426
H39_4 H 0.9555 0.469 0.3266
H40_4 H 0.9982 0.541 0.3513
S1_3 S 0.8490(7) 0.9596(4) 0.0793(2)
O2_3 O 0.8893(18) 0.8908(9) 0.0756(6)
O3_3 O 0.7100(17) 0.9696(10) 0.0652(6)
C14_3 C 0.882(2) 0.9869(13) 0.1449(7)
C15_3 C 0.9537(18) 0.9462(11) 0.1814(8)
H11_3 H 0.9819 0.9027 0.1713
C16_3 C 0.9844(17) 0.9685(9) 0.2327(8)
C19_3 C 0.976(2) 0.8597(12) 0.2827(9)
H16_3 H 0.8979 0.8752 0.2982
H18_3 H 0.9502 0.8351 0.2502
C22_3 C 0.685(3) 0.9697(12) 0.2956(8)
H19_3 H 0.7191 0.9544 0.2647
C23_3 C 0.562(2) 0.9472(11) 0.3074(11)
H20_3 H 0.5138 0.9175 0.2834
C24_3 C 0.508(2) 0.9657(13) 0.3507(13)
H21_3 H 0.4251 0.948 0.3574
S1_4 S 0.1510(7) 0.0404(4) 0.9207(2)
O2_4 O 0.1107(18) 0.1092(9) 0.9244(6)
O3_4 O 0.2900(17) 0.0304(10) 0.9348(6)
C14_4 C 0.118(2) 0.0131(13) 0.8551(7)
C15_4 C 0.0463(18) 0.0538(11) 0.8186(8)
H11_4 H 0.0181 0.0973 0.8287
C16_4 C 0.0156(17) 0.0315(9) 0.7673(8)
C19_4 C 0.024(2) 0.1403(12) 0.7173(9)
H16_4 H 0.1021 0.1248 0.7018
H18_4 H 0.0498 0.1649 0.7498
C22_4 C 0.315(3) 0.0303(12) 0.7044(8)
H19_4 H 0.2809 0.0456 0.7353
C23_4 C 0.438(2) 0.0528(11) 0.6926(11)
H20_4 H 0.4862 0.0825 0.7166
C24_4 C 0.492(2) 0.0343(13) 0.6493(13)
H21_4 H 0.5749 0.052 0.6426
loop_
_geom_bond_atom_site_label_1
_geom_bond_atom_site_label_2
_geom_bond_site_symmetry_1
_geom_bond_site_symmetry_2
C5 C4 1_555 1_555
H2 C5 1_555 1_555
Re1 Cl1 1_555 1_555
S2 C4 1_555 1_555
O1 C7 1_555 1_555
O4 C36 1_555 1_555
O6 S2 1_555 1_555
O7 S2 1_555 1_555
C7 Re1 1_555 1_555
O8 C35 1_555 1_555
C35 Re1 1_555 1_555
C36 Re1 1_555 1_555
C37 H32 1_555 1_555
H34 C37 1_555 1_555
C38 C6 1_555 1_555
H35 C38 1_555 1_555
C39 C38 1_555 1_555
H36 C39 1_555 1_555
H37 C39 1_555 1_555
H38 C39 1_555 1_555
Na6 O7 1_555 1_555
C5 C6 1_555 1_555
C37 C38 1_555 1_555
H12 C17 1_555 1_555
C18 C17 1_555 1_555
H13 C18 1_555 1_555
H14 C18 1_555 1_555
H15 C18 1_555 1_555
C42 O12 1_555 1_555
H45 C42 1_555 1_555
H46 C42 1_555 1_555
H47 C42 1_555 1_555
Na5 O12 1_555 1_555
C1 C2 1_555 1_555
C2 C3 1_555 1_555
C3 H1 1_555 1_555
N1 C1 1_555 1_555
C8 N2 1_555 1_555
C9 C8 1_555 1_555
C10 C9 1_555 1_555
H3 C10 1_555 1_555
C11 C10 1_555 1_555
H4 C11 1_555 1_555
H5 C11 1_555 1_555
H6 C11 1_555 1_555
C12 C10 1_555 1_555
H7 C12 1_555 1_555
H8 C12 1_555 1_555
H9 C12 1_555 1_555
C13 C9 1_555 1_555
H10 C13 1_555 1_555
C20 N2 1_555 1_555
C21 C20 1_555 1_555
C26 C21 1_555 1_555
C27 C26 1_555 1_555
C28 C27 1_555 1_555
H22 C28 1_555 1_555
C29 C28 1_555 1_555
H23 C29 1_555 1_555
C30 C25 1_555 1_555
H24 C30 1_555 1_555
C31 N1 1_555 1_555
C32 C2 1_555 1_555
H25 C32 1_555 1_555
C33 C32 1_555 1_555
H26 C33 1_555 1_555
H27 C33 1_555 1_555
H28 C33 1_555 1_555
C34 C32 1_555 1_555
H29 C34 1_555 1_555
H30 C34 1_555 1_555
H31 C34 1_555 1_555
C20 C31 1_555 1_555
C25 C26 1_555 1_555
C27 C31 1_555 1_555
C29 C30 1_555 1_555
O10 Na2 1_555 1_555
C40 O10 1_555 1_555
H39 C40 1_555 1_555
H41 C40 1_555 1_555
O16 Na2 1_555 1_555
O11 Na1 1_555 1_555
C41 O11 1_555 1_555
H42 C41 1_555 1_555
H43 C41 1_555 1_555
H44 C41 1_555 1_555
C1_2 C2_2 1_555 1_555
C2_2 C3_2 1_555 1_555
C3_2 H1_2 1_555 1_555
C4_2 C3_2 1_555 1_555
C6_2 C1_2 1_555 1_555
Re1_2 Cl1_2 1_555 1_555
S1 O2 1_555 1_555
O1_2 C7_2 1_555 1_555
O2 Na1_2 1_555 1_555
O3 S1 1_555 1_555
O4_2 C36_2 1_555 1_555
N1_2 C1_2 1_555 1_555
C7_2 Re1_2 1_555 1_555
N2_2 Re1_2 1_555 1_555
C8_2 N2_2 1_555 1_555
O8_2 C35_2 1_555 1_555
C9_2 C8_2 1_555 1_555
C10_2 C9_2 1_555 1_555
H3_2 C10_2 1_555 1_555
C11_2 C10_2 1_555 1_555
H4_2 C11_2 1_555 1_555
H5_2 C11_2 1_555 1_555
H6_2 C11_2 1_555 1_555
C12_2 C10_2 1_555 1_555
H7_2 C12_2 1_555 1_555
H8_2 C12_2 1_555 1_555
H9_2 C12_2 1_555 1_555
C13_2 C9_2 1_555 1_555
H10_2 C13_2 1_555 1_555
C14 S1 1_555 1_555
O9_2 S1 1_555 1_555
C15 C14 1_555 1_555
H11 C15 1_555 1_555
C16 C8_2 1_555 1_555
C17_2 C16 1_555 1_555
H12_2 C17_2 1_555 1_555
C18_2 C17_2 1_555 1_555
H13_2 C18_2 1_555 1_555
H14_2 C18_2 1_555 1_555
H15_2 C18_2 1_555 1_555
C19 C17_2 1_555 1_555
H16 C19 1_555 1_555
H17_2 C19 1_555 1_555
H18 C19 1_555 1_555
C20_2 N2_2 1_555 1_555
C21_2 C20_2 1_555 1_555
C22 C21_2 1_555 1_555
H19 C22 1_555 1_555
C23 C22 1_555 1_555
H20 C23 1_555 1_555
C24 C23 1_555 1_555
C25_2 C24 1_555 1_555
C26_2 C21_2 1_555 1_555
C27_2 C26_2 1_555 1_555
C28_2 C27_2 1_555 1_555
H22_2 C28_2 1_555 1_555
C29_2 C28_2 1_555 1_555
H23_2 C29_2 1_555 1_555
C30_2 C25_2 1_555 1_555
C31_2 N1_2 1_555 1_555
C32_2 C2_2 1_555 1_555
H25_2 C32_2 1_555 1_555
C33_2 C32_2 1_555 1_555
H26_2 C33_2 1_555 1_555
H27_2 C33_2 1_555 1_555
H28_2 C33_2 1_555 1_555
C34_2 C32_2 1_555 1_555
H29_2 C34_2 1_555 1_555
H30_2 C34_2 1_555 1_555
H31_2 C34_2 1_555 1_555
C35_2 Re1_2 1_555 1_555
C36_2 Re1_2 1_555 1_555
Na1_2 O9_2 1_555 1_555
C38_2 C6_2 1_555 1_555
H35_2 C38_2 1_555 1_555
Na4 O3 1_555 1_555
O10_2 Na4 1_555 1_555
C40_2 O10_2 1_555 1_555
H41_2 C40_2 1_555 1_555
O11_2 Na1_2 1_555 1_555
C41_2 O11_2 1_555 1_555
H42_2 C41_2 1_555 1_555
H43_2 C41_2 1_555 1_555
H44_2 C41_2 1_555 1_555
O12_2 Na1_2 1_555 1_555
C42_2 O12_2 1_555 1_555
H45_2 C42_2 1_555 1_555
H46_2 C42_2 1_555 1_555
H47_2 C42_2 1_555 1_555
O14_2 Na4 1_555 1_555
O15_2 Na1_2 1_555 1_555
Na3_2 O9_2 1_555 1_555
Na6 O12_2 1_555 1_555
O16_2 Na4 1_555 1_555
Re1_2 N1_2 1_555 1_555
C13_2 C14 1_555 1_555
C15 C16 1_555 1_555
C20_2 C31_2 1_555 1_555
C25_2 C26_2 1_555 1_555
C27_2 C31_2 1_555 1_555
C29_2 C30_2 1_555 1_555
Na4 O11_2 1_555 1_555
O15_2 Na3_2 1_555 1_555
Na3_2 O16_2 1_555 1_555
H2_2 C5_2 1_555 1_555
O5_2 S2_2 1_555 1_555
O6_2 S2_2 1_555 1_555
O13 S2_2 1_555 1_555
C37_2 H32_2 1_555 1_555
H33_2 C37_2 1_555 1_555
H34_2 C37_2 1_555 1_555
H36_2 C39_2 1_555 1_555
H38_2 C39_2 1_555 1_555
O11_3 Na3 1_555 1_555
C41_3 O11_3 1_555 1_555
H42_3 C41_3 1_555 1_555
H43_3 C41_3 1_555 1_555
H44_3 C41_3 1_555 1_555
O10_3 Na5 1_555 1_555
C40_3 O10_3 1_555 1_555
H39_3 C40_3 1_555 1_555
H41_3 C40_3 1_555 1_555
C1_3 C2_3 1_555 1_555
C2_3 C3_3 1_555 1_555
C3_3 H1_3 1_555 1_555
N1_3 C1_3 1_555 1_555
C8_3 N2_3 1_555 1_555
C9_3 C8_3 1_555 1_555
C10_3 C9_3 1_555 1_555
H3_3 C10_3 1_555 1_555
C11_3 C10_3 1_555 1_555
H4_3 C11_3 1_555 1_555
H5_3 C11_3 1_555 1_555
H6_3 C11_3 1_555 1_555
C12_3 C10_3 1_555 1_555
H7_3 C12_3 1_555 1_555
H8_3 C12_3 1_555 1_555
H9_3 C12_3 1_555 1_555
C13_3 C9_3 1_555 1_555
H10_3 C13_3 1_555 1_555
C20_3 N2_3 1_555 1_555
C21_3 C20_3 1_555 1_555
C26_3 C21_3 1_555 1_555
C27_3 C26_3 1_555 1_555
C28_3 C27_3 1_555 1_555
H22_3 C28_3 1_555 1_555
C29_3 C28_3 1_555 1_555
H23_3 C29_3 1_555 1_555
C30_3 C25_3 1_555 1_555
H24_3 C30_3 1_555 1_555
C31_3 N1_3 1_555 1_555
C32_3 C2_3 1_555 1_555
H25_3 C32_3 1_555 1_555
C33_3 C32_3 1_555 1_555
H26_3 C33_3 1_555 1_555
H27_3 C33_3 1_555 1_555
H28_3 C33_3 1_555 1_555
C34_3 C32_3 1_555 1_555
H29_3 C34_3 1_555 1_555
H30_3 C34_3 1_555 1_555
H31_3 C34_3 1_555 1_555
C20_3 C31_3 1_555 1_555
C25_3 C26_3 1_555 1_555
C27_3 C31_3 1_555 1_555
C29_3 C30_3 1_555 1_555
H12_3 C17_3 1_555 1_555
C18_3 C17_3 1_555 1_555
H13_3 C18_3 1_555 1_555
H14_3 C18_3 1_555 1_555
H15_3 C18_3 1_555 1_555
C42_3 O16 1_555 1_555
H45_3 C42_3 1_555 1_555
H46_3 C42_3 1_555 1_555
H47_3 C42_3 1_555 1_555
C5_3 C4_3 1_555 1_555
H2_3 C5_3 1_555 1_555
Re1_3 Cl1_3 1_555 1_555
S2_3 C4_3 1_555 1_555
O1_3 C7_3 1_555 1_555
O4_3 C36_3 1_555 1_555
O6_3 S2_3 1_555 1_555
O14_2 S2_3 1_555 1_555
C7_3 Re1_3 1_555 1_555
O8_3 C35_3 1_555 1_555
C35_3 Re1_3 1_555 1_555
C36_3 Re1_3 1_555 1_555
C37_3 H32_3 1_555 1_555
H34_3 C37_3 1_555 1_555
C38_3 C6_3 1_555 1_555
H35_3 C38_3 1_555 1_555
C39_3 C38_3 1_555 1_555
H36_3 C39_3 1_555 1_555
H37_3 C39_3 1_555 1_555
H38_3 C39_3 1_555 1_555
C5_3 C6_3 1_555 1_555
C37_3 C38_3 1_555 1_555
H2_4 C5_4 1_555 1_555
O5_4 S2_4 1_555 1_555
O6_4 S2_4 1_555 1_555
O14 S2_4 1_555 1_555
C37_4 H32_4 1_555 1_555
H33_4 C37_4 1_555 1_555
H34_4 C37_4 1_555 1_555
H36_4 C39_4 1_555 1_555
H38_4 C39_4 1_555 1_555
C1_4 C2_4 1_555 1_555
C2_4 C3_4 1_555 1_555
C3_4 H1_4 1_555 1_555
C4_4 C3_4 1_555 1_555
C6_4 C1_4 1_555 1_555
Re1_4 Cl1_4 1_555 1_555
S1_2 O2_2 1_555 1_555
O1_4 C7_4 1_555 1_555
O2_2 Na3_2 1_555 1_555
O3_2 S1_2 1_555 1_555
O4_4 C36_4 1_555 1_555
N1_4 C1_4 1_555 1_555
C7_4 Re1_4 1_555 1_555
N2_4 Re1_4 1_555 1_555
C8_4 N2_4 1_555 1_555
O8_4 C35_4 1_555 1_555
C9_4 C8_4 1_555 1_555
C10_4 C9_4 1_555 1_555
H3_4 C10_4 1_555 1_555
C11_4 C10_4 1_555 1_555
H4_4 C11_4 1_555 1_555
H5_4 C11_4 1_555 1_555
H6_4 C11_4 1_555 1_555
C12_4 C10_4 1_555 1_555
H7_4 C12_4 1_555 1_555
H8_4 C12_4 1_555 1_555
H9_4 C12_4 1_555 1_555
C13_4 C9_4 1_555 1_555
H10_4 C13_4 1_555 1_555
C14_2 S1_2 1_555 1_555
O15_2 S1_2 1_555 1_555
C15_2 C14_2 1_555 1_555
H11_2 C15_2 1_555 1_555
C16_2 C8_4 1_555 1_555
C17_4 C16_2 1_555 1_555
H12_4 C17_4 1_555 1_555
C18_4 C17_4 1_555 1_555
H13_4 C18_4 1_555 1_555
H14_4 C18_4 1_555 1_555
H15_4 C18_4 1_555 1_555
C19_2 C17_4 1_555 1_555
H16_2 C19_2 1_555 1_555
H17_4 C19_2 1_555 1_555
H18_2 C19_2 1_555 1_555
C20_4 N2_4 1_555 1_555
C21_4 C20_4 1_555 1_555
C22_2 C21_4 1_555 1_555
H19_2 C22_2 1_555 1_555
C23_2 C22_2 1_555 1_555
H20_2 C23_2 1_555 1_555
C24_2 C23_2 1_555 1_555
C25_4 C24_2 1_555 1_555
C26_4 C21_4 1_555 1_555
C27_4 C26_4 1_555 1_555
C28_4 C27_4 1_555 1_555
H22_4 C28_4 1_555 1_555
C29_4 C28_4 1_555 1_555
H23_4 C29_4 1_555 1_555
C30_4 C25_4 1_555 1_555
C31_4 N1_4 1_555 1_555
C32_4 C2_4 1_555 1_555
H25_4 C32_4 1_555 1_555
C33_4 C32_4 1_555 1_555
H26_4 C33_4 1_555 1_555
H27_4 C33_4 1_555 1_555
H28_4 C33_4 1_555 1_555
C34_4 C32_4 1_555 1_555
H29_4 C34_4 1_555 1_555
H30_4 C34_4 1_555 1_555
H31_4 C34_4 1_555 1_555
C35_4 Re1_4 1_555 1_555
C36_4 Re1_4 1_555 1_555
C38_4 C6_4 1_555 1_555
H35_4 C38_4 1_555 1_555
Na6 O3_2 1_555 1_555
O10_4 Na6 1_555 1_555
C40_4 O10_4 1_555 1_555
H41_4 C40_4 1_555 1_555
O11_4 Na3_2 1_555 1_555
C41_4 O11_4 1_555 1_555
H42_4 C41_4 1_555 1_555
H43_4 C41_4 1_555 1_555
H44_4 C41_4 1_555 1_555
C42_4 O16_2 1_555 1_555
H45_4 C42_4 1_555 1_555
H46_4 C42_4 1_555 1_555
H47_4 C42_4 1_555 1_555
Re1_4 N1_4 1_555 1_555
C13_4 C14_2 1_555 1_555
C15_2 C16_2 1_555 1_555
C20_4 C31_4 1_555 1_555
C25_4 C26_4 1_555 1_555
C27_4 C31_4 1_555 1_555
C29_4 C30_4 1_555 1_555
Na6 O11_4 1_555 1_555
S1_3 O2_3 1_555 1_555
O3_3 S1_3 1_555 1_555
C14_3 S1_3 1_555 1_555
C15_3 C14_3 1_555 1_555
H11_3 C15_3 1_555 1_555
H16_3 C19_3 1_555 1_555
H18_3 C19_3 1_555 1_555
H19_3 C22_3 1_555 1_555
C23_3 C22_3 1_555 1_555
H20_3 C23_3 1_555 1_555
C24_3 C23_3 1_555 1_555
H21_3 C24_3 1_555 1_555
C15_3 C16_3 1_555 1_555
S1_4 O2_4 1_555 1_555
O3_4 S1_4 1_555 1_555
C14_4 S1_4 1_555 1_555
C15_4 C14_4 1_555 1_555
H11_4 C15_4 1_555 1_555
H16_4 C19_4 1_555 1_555
H18_4 C19_4 1_555 1_555
H19_4 C22_4 1_555 1_555
C23_4 C22_4 1_555 1_555
H20_4 C23_4 1_555 1_555
C24_4 C23_4 1_555 1_555
H21_4 C24_4 1_555 1_555
C15_4 C16_4 1_555 1_555

#END
