
###############################################################################
#
# This file contains modified crystal structure data generated from the
# MOF subset of the Cambridge Structural Database (CSD) v543 
# hosted by the Cambridge Crystallographic Data Centre (CCDC).
#
# This work is licensed under the Creative Commons
# Attribution-NonCommercial-ShareAlike 4.0 International License.
# To view a copy of this license, visit
# http://creativecommons.org/licenses/by-nc-sa/4.0/
# or send a letter to
# Creative Commons, PO Box 1866, Mountain View, CA 94042, USA.
#
# CIF created using the CSD Python API on 29 September 2022
# The structure has been converted into the P1 space group
# The structure has a 3D framework
# The original CSD entry TOGFIH is in the tetragonal crystal system
# The framework has been calculated to contain at least 10.0% void space
# The void calculation uses a probe of radius 1.32A, grid spacing 0.4
# The framework is charged, counterions have been retained in the structure
# H atom positions have been added when not included in the experimental data
# Generated hydrogen atom positions removed from atoms on special positions
#
###############################################################################

data_TOGFIH
_chemical_formula_moiety         '(C336 H496 Cu32 N64 Ni16 O184 Pd8 4+)n'
_symmetry_cell_setting           triclinic
_symmetry_space_group_name_H-M   'P 1'
_symmetry_Int_Tables_number      1
_space_group_name_Hall           'P 1'
loop_
_symmetry_equiv_pos_site_id
_symmetry_equiv_pos_as_xyz
1 x,y,z
_cell_length_a                   35.7158(2)
_cell_length_b                   35.7158(2)
_cell_length_c                   15.14950(10)
_cell_angle_alpha                90
_cell_angle_beta                 90
_cell_angle_gamma                90
_cell_volume                     19325
loop_
_atom_site_label
_atom_site_type_symbol
_atom_site_fract_x
_atom_site_fract_y
_atom_site_fract_z
Pd1 Pd 0.76008(15) 0.69862(16) 0.5000
N1 N 0.7617(5) 0.6420(4) 0.5000
N2 N 0.8162(4) 0.6994(4) 0.5000
O1 O 0.7555(3) 0.7555(3) 0.5000
O2 O 0.6988(4) 0.6988(4) 0.5000
Pd2 Pd 0.69862(16) 0.76008(15) 0.5000
N3 N 0.6420(4) 0.7617(5) 0.5000
N4 N 0.6994(4) 0.8162(4) 0.5000
H24 H 0.632148 0.74858 0.554704
H25 H 0.633297 0.788753 0.5
H26 H 0.632148 0.74858 0.445296
H27 H 0.712927 0.825486 0.445296
H28 H 0.672741 0.826044 0.5
H29 H 0.712927 0.825486 0.554704
H30 H 0.825858 0.686136 0.445296
H31 H 0.8253 0.726323 0.5
H32 H 0.825858 0.686136 0.554704
H33 H 0.775362 0.632914 0.554704
H34 H 0.735188 0.631765 0.5
H35 H 0.775362 0.632914 0.445296
H24_2 H 0.74858 0.632148 0.445296
H25_2 H 0.788753 0.633297 0.5
H26_2 H 0.74858 0.632148 0.554704
H27_2 H 0.825486 0.712927 0.554704
H28_2 H 0.826044 0.672741 0.5
H29_2 H 0.825486 0.712927 0.445296
H30_2 H 0.686136 0.825858 0.554704
H31_2 H 0.726323 0.8253 0.5
H32_2 H 0.686136 0.825858 0.445296
H33_2 H 0.632914 0.775362 0.445296
H34_2 H 0.631765 0.735188 0.5
H35_2 H 0.632914 0.775362 0.554704
Pd1_2 Pd 0.23992(15) 0.30138(16) 0.5000
N1_2 N 0.2383(5) 0.3580(4) 0.5000
N2_2 N 0.1838(4) 0.3006(4) 0.5000
O1_2 O 0.2445(3) 0.2445(3) 0.5000
O2_2 O 0.3012(4) 0.3012(4) 0.5000
Pd2_2 Pd 0.30138(16) 0.23992(15) 0.5000
N3_2 N 0.3580(4) 0.2383(5) 0.5000
N4_2 N 0.3006(4) 0.1838(4) 0.5000
H24_3 H 0.367852 0.25142 0.554704
H25_3 H 0.366703 0.211247 0.5
H26_3 H 0.367852 0.25142 0.445296
H27_3 H 0.287073 0.174514 0.445296
H28_3 H 0.327259 0.173956 0.5
H29_3 H 0.287073 0.174514 0.554704
H30_3 H 0.174142 0.313864 0.445296
H31_3 H 0.1747 0.273677 0.5
H32_3 H 0.174142 0.313864 0.554704
H33_3 H 0.224638 0.367086 0.554704
H34_3 H 0.264812 0.368235 0.5
H35_3 H 0.224638 0.367086 0.445296
H24_4 H 0.25142 0.367852 0.445296
H25_4 H 0.211247 0.366703 0.5
H26_4 H 0.25142 0.367852 0.554704
H27_4 H 0.174514 0.287073 0.554704
H28_4 H 0.173956 0.327259 0.5
H29_4 H 0.174514 0.287073 0.445296
H30_4 H 0.313864 0.174142 0.554704
H31_4 H 0.273677 0.1747 0.5
H32_4 H 0.313864 0.174142 0.445296
H33_4 H 0.367086 0.224638 0.445296
H34_4 H 0.368235 0.264812 0.5
H35_4 H 0.367086 0.224638 0.554704
Pd1_3 Pd 0.30138(16) 0.76008(15) 0.5000
N1_3 N 0.3580(4) 0.7617(5) 0.5000
N2_3 N 0.3006(4) 0.8162(4) 0.5000
O1_3 O 0.2445(3) 0.7555(3) 0.5000
O2_3 O 0.3012(4) 0.6988(4) 0.5000
Pd2_3 Pd 0.23992(15) 0.69862(16) 0.5000
N3_3 N 0.2383(5) 0.6420(4) 0.5000
N4_3 N 0.1838(4) 0.6994(4) 0.5000
H24_5 H 0.25142 0.632148 0.554704
H25_5 H 0.211247 0.633297 0.5
H26_5 H 0.25142 0.632148 0.445296
H27_5 H 0.174514 0.712927 0.445296
H28_5 H 0.173956 0.672741 0.5
H29_5 H 0.174514 0.712927 0.554704
H30_5 H 0.313864 0.825858 0.445296
H31_5 H 0.273677 0.8253 0.5
H32_5 H 0.313864 0.825858 0.554704
H33_5 H 0.367086 0.775362 0.554704
H34_5 H 0.368235 0.735188 0.5
H35_5 H 0.367086 0.775362 0.445296
H24_6 H 0.367852 0.74858 0.445296
H25_6 H 0.366703 0.788753 0.5
H26_6 H 0.367852 0.74858 0.554704
H27_6 H 0.287073 0.825486 0.554704
H28_6 H 0.327259 0.826044 0.5
H29_6 H 0.287073 0.825486 0.445296
H30_6 H 0.174142 0.686136 0.554704
H31_6 H 0.1747 0.726323 0.5
H32_6 H 0.174142 0.686136 0.445296
H33_6 H 0.224638 0.632914 0.445296
H34_6 H 0.264812 0.631765 0.5
H35_6 H 0.224638 0.632914 0.554704
Pd1_4 Pd 0.69862(16) 0.23992(15) 0.5000
N1_4 N 0.6420(4) 0.2383(5) 0.5000
N2_4 N 0.6994(4) 0.1838(4) 0.5000
O1_4 O 0.7555(3) 0.2445(3) 0.5000
O2_4 O 0.6988(4) 0.3012(4) 0.5000
Pd2_4 Pd 0.76008(15) 0.30138(16) 0.5000
N3_4 N 0.7617(5) 0.3580(4) 0.5000
N4_4 N 0.8162(4) 0.3006(4) 0.5000
H24_7 H 0.74858 0.367852 0.554704
H25_7 H 0.788753 0.366703 0.5
H26_7 H 0.74858 0.367852 0.445296
H27_7 H 0.825486 0.287073 0.445296
H28_7 H 0.826044 0.327259 0.5
H29_7 H 0.825486 0.287073 0.554704
H30_7 H 0.686136 0.174142 0.445296
H31_7 H 0.726323 0.1747 0.5
H32_7 H 0.686136 0.174142 0.554704
H33_7 H 0.632914 0.224638 0.554704
H34_7 H 0.631765 0.264812 0.5
H35_7 H 0.632914 0.224638 0.445296
H24_8 H 0.632148 0.25142 0.445296
H25_8 H 0.633297 0.211247 0.5
H26_8 H 0.632148 0.25142 0.554704
H27_8 H 0.712927 0.174514 0.554704
H28_8 H 0.672741 0.173956 0.5
H29_8 H 0.712927 0.174514 0.445296
H30_8 H 0.825858 0.313864 0.554704
H31_8 H 0.8253 0.273677 0.5
H32_8 H 0.825858 0.313864 0.445296
H33_8 H 0.775362 0.367086 0.445296
H34_8 H 0.735188 0.368235 0.5
H35_8 H 0.775362 0.367086 0.554704
Cu1 Cu 0.0000 0.64817(3) 0.73402(4)
O12 O 0.0000 0.60206(16) 0.8443(3)
Cu4 Cu 0.0000 0.64817(3) 0.26598(4)
N11 N 0.04242(12) 0.63197(12) 0.66084(19)
O24 O 0.03941(12) 0.67296(10) 0.80575(17)
H36 H 0.00371854 0.577075 0.816916
H37 H 0.0206121 0.607087 0.886662
C20 C 0.7631(2) 0.6976(2) 0.0000
C22 C 0.7127(3) 0.6361(2) 0.0000
H9 H 0.6999 0.6127 0.0000
C24 C 0.7904(3) 0.7239(3) 0.0000
H13 H 0.7999 0.7331 0.0543
N10 N 0.76114(12) 0.69929(12) 0.15872(19)
O21 O 0.78495(11) 0.73200(12) 0.3040(2)
O22 O 0.83378(11) 0.69348(12) 0.31364(19)
O23 O 0.81213(11) 0.65909(11) 0.16309(18)
C35 C 0.80417(17) 0.70429(19) 0.2772(3)
C36 C 0.79145(17) 0.68606(17) 0.1946(3)
C37 C 0.74717(15) 0.68232(15) 0.0810(2)
C38 C 0.72255(16) 0.65409(16) 0.0811(3)
C39 C 0.7086(2) 0.6371(3) 0.1659(4)
H20 H 0.7169 0.6524 0.2159
H21 H 0.6812 0.6361 0.1650
H22 H 0.7187 0.6117 0.1721
Cu6 Cu 0.74111(3) 0.74111(3) 0.23052(5)
Ni3 Ni 0.85267(2) 0.64612(2) 0.25044(3)
H46 H 0.811573 0.70196 0
Cu1_2 Cu 1.0000 0.64817(3) 0.73402(4)
Cu2 Cu 0.82948(2) 0.5000 0.72890(4)
Cu3 Cu 0.74111(3) 0.74111(3) 0.76948(5)
Ni1 Ni 0.85267(2) 0.64612(2) 0.74956(3)
N5 N 0.95758(12) 0.63197(12) 0.66084(19)
N6 N 0.81449(10) 0.54519(13) 0.66169(19)
N7 N 0.76114(12) 0.69929(12) 0.84128(19)
O3 O 0.96059(12) 0.67296(10) 0.80575(17)
O4 O 0.89692(11) 0.67255(11) 0.81593(19)
O5 O 0.89269(10) 0.63672(12) 0.66163(18)
O6 O 0.85786(10) 0.53561(12) 0.80154(18)
O7 O 0.86603(10) 0.59783(11) 0.81361(18)
O8 O 0.81827(9) 0.60878(13) 0.67921(18)
O9 O 0.78495(11) 0.73200(12) 0.6960(2)
O10 O 0.83378(11) 0.69348(12) 0.68636(19)
O11 O 0.81213(11) 0.65909(11) 0.83691(18)
C1 C 0.92481(15) 0.64347(14) 0.6917(3)
C2 C 0.92784(18) 0.66458(15) 0.7796(3)
C3 C 0.95624(12) 0.61226(14) 0.5790(2)
C4 C 0.95240(17) 0.57368(15) 0.5810(3)
C5 C 0.9516(4) 0.5535(2) 0.5000
H1 H 0.9505 0.5269 0.5000
C6 C 0.95520(17) 0.63218(18) 0.5000
C7 C 0.9568(2) 0.6763(2) 0.5000
C8 C 0.9500(3) 0.55324(19) 0.6674(4)
H2 H 0.9751 0.5503 0.6922
H3 H 0.9389 0.5285 0.6578
H4 H 0.9343 0.5675 0.7084
C9 C 0.85256(14) 0.5684(2) 0.7787(3)
C10 C 0.82533(13) 0.57510(19) 0.6983(2)
C11 C 0.79358(11) 0.54707(15) 0.5791(2)
C12 C 0.81328(15) 0.5461(2) 0.5000
C13 C 0.75522(12) 0.54954(14) 0.5801(2)
C14 C 0.73654(18) 0.5501(3) 0.5000
H5 H 0.7100 0.5510 0.5000
C15 C 0.73361(15) 0.5517(2) 0.6680(3)
H6 H 0.7501 0.5615 0.7142
H7 H 0.7250 0.5266 0.6845
H8 H 0.7120 0.5683 0.6611
C16 C 0.85785(18) 0.5474(3) 0.5000
C17 C 0.80417(17) 0.70429(19) 0.7228(3)
C18 C 0.79145(17) 0.68606(17) 0.8054(3)
C19 C 0.74717(15) 0.68232(15) 0.9190(2)
C20_2 C 0.7631(2) 0.6976(2) 1.0000
C21 C 0.72255(16) 0.65409(16) 0.9189(3)
C22_2 C 0.7127(3) 0.6361(2) 1.0000
H9_2 H 0.6999 0.6127 1.0000
C23 C 0.7086(2) 0.6371(3) 0.8341(4)
H10 H 0.7169 0.6524 0.7841
H11 H 0.6812 0.6361 0.8350
H12 H 0.7187 0.6117 0.8279
C24_2 C 0.7904(3) 0.7239(3) 1.0000
O12_2 O 1.0000 0.60206(16) 0.8443(3)
O13 O 0.78432(16) 0.5000 0.8387(3)
O14 O 0.7081(2) 0.7081(2) 0.6576(5)
N8 N 0.95758(12) 0.63197(12) 0.33916(19)
O15 O 0.96059(12) 0.67296(10) 0.19425(17)
O16 O 0.89692(11) 0.67255(11) 0.18407(19)
O17 O 0.89269(10) 0.63672(12) 0.33837(18)
C25 C 0.92481(15) 0.64347(14) 0.3083(3)
C26 C 0.92784(18) 0.66458(15) 0.2204(3)
C27 C 0.95624(12) 0.61226(14) 0.4210(2)
C28 C 0.95240(17) 0.57368(15) 0.4190(3)
C29 C 0.9500(3) 0.55324(19) 0.3326(4)
H14 H 0.9751 0.5503 0.3078
H15 H 0.9389 0.5285 0.3422
H16 H 0.9343 0.5675 0.2916
N9 N 0.81449(10) 0.54519(13) 0.33831(19)
O18 O 0.85786(10) 0.53561(12) 0.19846(18)
O19 O 0.86603(10) 0.59783(11) 0.18639(18)
O20 O 0.81827(9) 0.60878(13) 0.32079(18)
C30 C 0.85256(14) 0.5684(2) 0.2213(3)
C31 C 0.82533(13) 0.57510(19) 0.3017(2)
C32 C 0.79358(11) 0.54707(15) 0.4209(2)
C33 C 0.75522(12) 0.54954(14) 0.4199(2)
C34 C 0.73361(15) 0.5517(2) 0.3320(3)
H17 H 0.7501 0.5615 0.2858
H18 H 0.7250 0.5266 0.3155
H19 H 0.7120 0.5683 0.3389
H23 H 0.7999 0.7331 0.9457
Cu4_2 Cu 1.0000 0.64817(3) 0.26598(4)
Cu5 Cu 0.82948(2) 0.5000 0.27110(4)
N12 N 0.81449(10) 0.45481(13) 0.66169(19)
N13 N 0.69929(12) 0.76114(12) 0.84128(19)
O25 O 0.85786(10) 0.46439(12) 0.80154(18)
O26 O 0.73200(12) 0.78495(11) 0.6960(2)
H40 H 0.982767 0.685529 0.530759
H41 H 0.95566 0.686512 0.432321
H42 H 0.933077 0.687331 0.53692
H43 H 0.868715 0.523498 0.536548
H44 H 0.868048 0.546375 0.432299
H45 H 0.867265 0.573215 0.531152
H46_2 H 0.811573 0.70196 1
C20_3 C 0.2369(2) 0.3024(2) 0.0000
C22_3 C 0.2873(3) 0.3639(2) 0.0000
H9_3 H 0.3001 0.3873 0.0000
C24_3 C 0.2096(3) 0.2761(3) 0.0000
H13_2 H 0.2001 0.2669 0.0543
N10_2 N 0.23886(12) 0.30071(12) 0.15872(19)
O21_2 O 0.21505(11) 0.26800(12) 0.3040(2)
O22_2 O 0.16622(11) 0.30652(12) 0.31364(19)
O23_2 O 0.18787(11) 0.34091(11) 0.16309(18)
C35_2 C 0.19583(17) 0.29571(19) 0.2772(3)
C36_2 C 0.20855(17) 0.31394(17) 0.1946(3)
C37_2 C 0.25283(15) 0.31768(15) 0.0810(2)
C38_2 C 0.27745(16) 0.34591(16) 0.0811(3)
C39_2 C 0.2914(2) 0.3629(3) 0.1659(4)
H20_2 H 0.2831 0.3476 0.2159
H21_2 H 0.3188 0.3639 0.1650
H22_2 H 0.2813 0.3883 0.1721
Cu6_2 Cu 0.25889(3) 0.25889(3) 0.23052(5)
Ni3_2 Ni 0.14733(2) 0.35388(2) 0.25044(3)
H46_3 H 0.188427 0.29804 0
Cu1_3 Cu 0.0000 0.35183(3) 0.73402(4)
Cu2_2 Cu 0.17052(2) 0.5000 0.72890(4)
Cu3_2 Cu 0.25889(3) 0.25889(3) 0.76948(5)
Ni1_2 Ni 0.14733(2) 0.35388(2) 0.74956(3)
N5_2 N 0.04242(12) 0.36803(12) 0.66084(19)
N6_2 N 0.18551(10) 0.45481(13) 0.66169(19)
N7_2 N 0.23886(12) 0.30071(12) 0.84128(19)
O3_2 O 0.03941(12) 0.32704(10) 0.80575(17)
O4_2 O 0.10308(11) 0.32745(11) 0.81593(19)
O5_2 O 0.10731(10) 0.36328(12) 0.66163(18)
O6_2 O 0.14214(10) 0.46439(12) 0.80154(18)
O7_2 O 0.13397(10) 0.40217(11) 0.81361(18)
O8_2 O 0.18173(9) 0.39122(13) 0.67921(18)
O9_2 O 0.21505(11) 0.26800(12) 0.6960(2)
O10_2 O 0.16622(11) 0.30652(12) 0.68636(19)
O11_2 O 0.18787(11) 0.34091(11) 0.83691(18)
C1_2 C 0.07519(15) 0.35653(14) 0.6917(3)
C2_2 C 0.07216(18) 0.33542(15) 0.7796(3)
C3_2 C 0.04376(12) 0.38774(14) 0.5790(2)
C4_2 C 0.04760(17) 0.42632(15) 0.5810(3)
C5_2 C 0.0484(4) 0.4465(2) 0.5000
H1_2 H 0.0495 0.4731 0.5000
C6_2 C 0.04480(17) 0.36782(18) 0.5000
C7_2 C 0.0432(2) 0.3237(2) 0.5000
C8_2 C 0.0500(3) 0.44676(19) 0.6674(4)
H2_2 H 0.0249 0.4497 0.6922
H3_2 H 0.0611 0.4715 0.6578
H4_2 H 0.0657 0.4325 0.7084
C9_2 C 0.14744(14) 0.4316(2) 0.7787(3)
C10_2 C 0.17467(13) 0.42490(19) 0.6983(2)
C11_2 C 0.20642(11) 0.45293(15) 0.5791(2)
C12_2 C 0.18672(15) 0.4539(2) 0.5000
C13_2 C 0.24478(12) 0.45046(14) 0.5801(2)
C14_2 C 0.26346(18) 0.4499(3) 0.5000
H5_2 H 0.2900 0.4490 0.5000
C15_2 C 0.26639(15) 0.4483(2) 0.6680(3)
H6_2 H 0.2499 0.4385 0.7142
H7_2 H 0.2750 0.4734 0.6845
H8_2 H 0.2880 0.4317 0.6611
C16_2 C 0.14215(18) 0.4526(3) 0.5000
C17_2 C 0.19583(17) 0.29571(19) 0.7228(3)
C18_2 C 0.20855(17) 0.31394(17) 0.8054(3)
C19_2 C 0.25283(15) 0.31768(15) 0.9190(2)
C20_4 C 0.2369(2) 0.3024(2) 1.0000
C21_2 C 0.27745(16) 0.34591(16) 0.9189(3)
C22_4 C 0.2873(3) 0.3639(2) 1.0000
H9_4 H 0.3001 0.3873 1.0000
C23_2 C 0.2914(2) 0.3629(3) 0.8341(4)
H10_2 H 0.2831 0.3476 0.7841
H11_2 H 0.3188 0.3639 0.8350
H12_2 H 0.2813 0.3883 0.8279
C24_4 C 0.2096(3) 0.2761(3) 1.0000
O12_3 O 0.0000 0.39794(16) 0.8443(3)
O13_2 O 0.21568(16) 0.5000 0.8387(3)
O14_2 O 0.2919(2) 0.2919(2) 0.6576(5)
N8_2 N 0.04242(12) 0.36803(12) 0.33916(19)
O15_2 O 0.03941(12) 0.32704(10) 0.19425(17)
O16_2 O 0.10308(11) 0.32745(11) 0.18407(19)
O17_2 O 0.10731(10) 0.36328(12) 0.33837(18)
C25_2 C 0.07519(15) 0.35653(14) 0.3083(3)
C26_2 C 0.07216(18) 0.33542(15) 0.2204(3)
C27_2 C 0.04376(12) 0.38774(14) 0.4210(2)
C28_2 C 0.04760(17) 0.42632(15) 0.4190(3)
C29_2 C 0.0500(3) 0.44676(19) 0.3326(4)
H14_2 H 0.0249 0.4497 0.3078
H15_2 H 0.0611 0.4715 0.3422
H16_2 H 0.0657 0.4325 0.2916
N9_2 N 0.18551(10) 0.45481(13) 0.33831(19)
O18_2 O 0.14214(10) 0.46439(12) 0.19846(18)
O19_2 O 0.13397(10) 0.40217(11) 0.18639(18)
O20_2 O 0.18173(9) 0.39122(13) 0.32079(18)
C30_2 C 0.14744(14) 0.4316(2) 0.2213(3)
C31_2 C 0.17467(13) 0.42490(19) 0.3017(2)
C32_2 C 0.20642(11) 0.45293(15) 0.4209(2)
C33_2 C 0.24478(12) 0.45046(14) 0.4199(2)
C34_2 C 0.26639(15) 0.4483(2) 0.3320(3)
H17_2 H 0.2499 0.4385 0.2858
H18_2 H 0.2750 0.4734 0.3155
H19_2 H 0.2880 0.4317 0.3389
H23_2 H 0.2001 0.2669 0.9457
Cu4_3 Cu 0.0000 0.35183(3) 0.26598(4)
Cu5_2 Cu 0.17052(2) 0.5000 0.27110(4)
N12_2 N 0.18551(10) 0.54519(13) 0.66169(19)
N13_2 N 0.30071(12) 0.23886(12) 0.84128(19)
O25_2 O 0.14214(10) 0.53561(12) 0.80154(18)
O26_2 O 0.26800(12) 0.21505(11) 0.6960(2)
H40_2 H 0.0172328 0.314471 0.530759
H41_2 H 0.0443395 0.313488 0.432321
H42_2 H 0.0669226 0.312669 0.53692
H43_2 H 0.131285 0.476502 0.536548
H44_2 H 0.131952 0.453625 0.432299
H45_2 H 0.132735 0.426785 0.531152
H46_4 H 0.188427 0.29804 1
Cu1_4 Cu 1.0000 0.35183(3) 0.73402(4)
O12_4 O 1.0000 0.39794(16) 0.8443(3)
Cu4_4 Cu 1.0000 0.35183(3) 0.26598(4)
N11_2 N 0.95758(12) 0.36803(12) 0.66084(19)
O24_2 O 0.96059(12) 0.32704(10) 0.80575(17)
H36_2 H 0.996281 0.422925 0.816916
H37_2 H 0.979388 0.392913 0.886662
Cu1_5 Cu 0.35183(3) 0.0000 0.73402(4)
O12_5 O 0.39794(16) 0.0000 0.8443(3)
Cu4_5 Cu 0.35183(3) 0.0000 0.26598(4)
N11_3 N 0.36803(12) 0.04242(12) 0.66084(19)
O24_3 O 0.32704(10) 0.03941(12) 0.80575(17)
H36_3 H 0.422925 0.00371854 0.816916
H37_3 H 0.392913 0.0206121 0.886662
C20_5 C 0.3024(2) 0.7631(2) 0.0000
C22_5 C 0.3639(2) 0.7127(3) 0.0000
H9_5 H 0.3873 0.6999 0.0000
C24_5 C 0.2761(3) 0.7904(3) 0.0000
H13_3 H 0.2669 0.7999 0.0543
N10_3 N 0.30071(12) 0.76114(12) 0.15872(19)
O21_3 O 0.26800(12) 0.78495(11) 0.3040(2)
O22_3 O 0.30652(12) 0.83378(11) 0.31364(19)
O23_3 O 0.34091(11) 0.81213(11) 0.16309(18)
C35_3 C 0.29571(19) 0.80417(17) 0.2772(3)
C36_3 C 0.31394(17) 0.79145(17) 0.1946(3)
C37_3 C 0.31768(15) 0.74717(15) 0.0810(2)
C38_3 C 0.34591(16) 0.72255(16) 0.0811(3)
C39_3 C 0.3629(3) 0.7086(2) 0.1659(4)
H20_3 H 0.3476 0.7169 0.2159
H21_3 H 0.3639 0.6812 0.1650
H22_3 H 0.3883 0.7187 0.1721
Cu6_3 Cu 0.25889(3) 0.74111(3) 0.23052(5)
Ni3_3 Ni 0.35388(2) 0.85267(2) 0.25044(3)
H46_5 H 0.29804 0.811573 0
Cu1_6 Cu 0.35183(3) 1.0000 0.73402(4)
Cu2_3 Cu 0.5000 0.82948(2) 0.72890(4)
Cu3_3 Cu 0.25889(3) 0.74111(3) 0.76948(5)
Ni1_3 Ni 0.35388(2) 0.85267(2) 0.74956(3)
N5_3 N 0.36803(12) 0.95758(12) 0.66084(19)
N6_3 N 0.45481(13) 0.81449(10) 0.66169(19)
N7_3 N 0.30071(12) 0.76114(12) 0.84128(19)
O3_3 O 0.32704(10) 0.96059(12) 0.80575(17)
O4_3 O 0.32745(11) 0.89692(11) 0.81593(19)
O5_3 O 0.36328(12) 0.89269(10) 0.66163(18)
O6_3 O 0.46439(12) 0.85786(10) 0.80154(18)
O7_3 O 0.40217(11) 0.86603(10) 0.81361(18)
O8_3 O 0.39122(13) 0.81827(9) 0.67921(18)
O9_3 O 0.26800(12) 0.78495(11) 0.6960(2)
O10_3 O 0.30652(12) 0.83378(11) 0.68636(19)
O11_3 O 0.34091(11) 0.81213(11) 0.83691(18)
C1_3 C 0.35653(14) 0.92481(15) 0.6917(3)
C2_3 C 0.33542(15) 0.92784(18) 0.7796(3)
C3_3 C 0.38774(14) 0.95624(12) 0.5790(2)
C4_3 C 0.42632(15) 0.95240(17) 0.5810(3)
C5_3 C 0.4465(2) 0.9516(4) 0.5000
H1_3 H 0.4731 0.9505 0.5000
C6_3 C 0.36782(18) 0.95520(17) 0.5000
C7_3 C 0.3237(2) 0.9568(2) 0.5000
C8_3 C 0.44676(19) 0.9500(3) 0.6674(4)
H2_3 H 0.4497 0.9751 0.6922
H3_3 H 0.4715 0.9389 0.6578
H4_3 H 0.4325 0.9343 0.7084
C9_3 C 0.4316(2) 0.85256(14) 0.7787(3)
C10_3 C 0.42490(19) 0.82533(13) 0.6983(2)
C11_3 C 0.45293(15) 0.79358(11) 0.5791(2)
C12_3 C 0.4539(2) 0.81328(15) 0.5000
C13_3 C 0.45046(14) 0.75522(12) 0.5801(2)
C14_3 C 0.4499(3) 0.73654(18) 0.5000
H5_3 H 0.4490 0.7100 0.5000
C15_3 C 0.4483(2) 0.73361(15) 0.6680(3)
H6_3 H 0.4385 0.7501 0.7142
H7_3 H 0.4734 0.7250 0.6845
H8_3 H 0.4317 0.7120 0.6611
C16_3 C 0.4526(3) 0.85785(18) 0.5000
C17_3 C 0.29571(19) 0.80417(17) 0.7228(3)
C18_3 C 0.31394(17) 0.79145(17) 0.8054(3)
C19_3 C 0.31768(15) 0.74717(15) 0.9190(2)
C20_6 C 0.3024(2) 0.7631(2) 1.0000
C21_3 C 0.34591(16) 0.72255(16) 0.9189(3)
C22_6 C 0.3639(2) 0.7127(3) 1.0000
H9_6 H 0.3873 0.6999 1.0000
C23_3 C 0.3629(3) 0.7086(2) 0.8341(4)
H10_3 H 0.3476 0.7169 0.7841
H11_3 H 0.3639 0.6812 0.8350
H12_3 H 0.3883 0.7187 0.8279
C24_6 C 0.2761(3) 0.7904(3) 1.0000
O12_6 O 0.39794(16) 1.0000 0.8443(3)
O13_3 O 0.5000 0.78432(16) 0.8387(3)
O14_3 O 0.2919(2) 0.7081(2) 0.6576(5)
N8_3 N 0.36803(12) 0.95758(12) 0.33916(19)
O15_3 O 0.32704(10) 0.96059(12) 0.19425(17)
O16_3 O 0.32745(11) 0.89692(11) 0.18407(19)
O17_3 O 0.36328(12) 0.89269(10) 0.33837(18)
C25_3 C 0.35653(14) 0.92481(15) 0.3083(3)
C26_3 C 0.33542(15) 0.92784(18) 0.2204(3)
C27_3 C 0.38774(14) 0.95624(12) 0.4210(2)
C28_3 C 0.42632(15) 0.95240(17) 0.4190(3)
C29_3 C 0.44676(19) 0.9500(3) 0.3326(4)
H14_3 H 0.4497 0.9751 0.3078
H15_3 H 0.4715 0.9389 0.3422
H16_3 H 0.4325 0.9343 0.2916
N9_3 N 0.45481(13) 0.81449(10) 0.33831(19)
O18_3 O 0.46439(12) 0.85786(10) 0.19846(18)
O19_3 O 0.40217(11) 0.86603(10) 0.18639(18)
O20_3 O 0.39122(13) 0.81827(9) 0.32079(18)
C30_3 C 0.4316(2) 0.85256(14) 0.2213(3)
C31_3 C 0.42490(19) 0.82533(13) 0.3017(2)
C32_3 C 0.45293(15) 0.79358(11) 0.4209(2)
C33_3 C 0.45046(14) 0.75522(12) 0.4199(2)
C34_3 C 0.4483(2) 0.73361(15) 0.3320(3)
H17_3 H 0.4385 0.7501 0.2858
H18_3 H 0.4734 0.7250 0.3155
H19_3 H 0.4317 0.7120 0.3389
H23_3 H 0.2669 0.7999 0.9457
Cu4_6 Cu 0.35183(3) 1.0000 0.26598(4)
Cu5_3 Cu 0.5000 0.82948(2) 0.27110(4)
N12_3 N 0.54519(13) 0.81449(10) 0.66169(19)
N13_3 N 0.23886(12) 0.69929(12) 0.84128(19)
O25_3 O 0.53561(12) 0.85786(10) 0.80154(18)
O26_3 O 0.21505(11) 0.73200(12) 0.6960(2)
H40_3 H 0.314471 0.982767 0.530759
H41_3 H 0.313488 0.95566 0.432321
H42_3 H 0.312669 0.933077 0.53692
H43_3 H 0.476502 0.868715 0.536548
H44_3 H 0.453625 0.868048 0.432299
H45_3 H 0.426785 0.867265 0.531152
H46_6 H 0.29804 0.811573 1
C20_7 C 0.6976(2) 0.2369(2) 0.0000
C22_7 C 0.6361(2) 0.2873(3) 0.0000
H9_7 H 0.6127 0.3001 0.0000
C24_7 C 0.7239(3) 0.2096(3) 0.0000
H13_4 H 0.7331 0.2001 0.0543
N10_4 N 0.69929(12) 0.23886(12) 0.15872(19)
O21_4 O 0.73200(12) 0.21505(11) 0.3040(2)
O22_4 O 0.69348(12) 0.16622(11) 0.31364(19)
O23_4 O 0.65909(11) 0.18787(11) 0.16309(18)
C35_4 C 0.70429(19) 0.19583(17) 0.2772(3)
C36_4 C 0.68606(17) 0.20855(17) 0.1946(3)
C37_4 C 0.68232(15) 0.25283(15) 0.0810(2)
C38_4 C 0.65409(16) 0.27745(16) 0.0811(3)
C39_4 C 0.6371(3) 0.2914(2) 0.1659(4)
H20_4 H 0.6524 0.2831 0.2159
H21_4 H 0.6361 0.3188 0.1650
H22_4 H 0.6117 0.2813 0.1721
Cu6_4 Cu 0.74111(3) 0.25889(3) 0.23052(5)
Ni3_4 Ni 0.64612(2) 0.14733(2) 0.25044(3)
H46_7 H 0.70196 0.188427 0
Cu1_7 Cu 0.64817(3) 0.0000 0.73402(4)
Cu2_4 Cu 0.5000 0.17052(2) 0.72890(4)
Cu3_4 Cu 0.74111(3) 0.25889(3) 0.76948(5)
Ni1_4 Ni 0.64612(2) 0.14733(2) 0.74956(3)
N5_4 N 0.63197(12) 0.04242(12) 0.66084(19)
N6_4 N 0.54519(13) 0.18551(10) 0.66169(19)
N7_4 N 0.69929(12) 0.23886(12) 0.84128(19)
O3_4 O 0.67296(10) 0.03941(12) 0.80575(17)
O4_4 O 0.67255(11) 0.10308(11) 0.81593(19)
O5_4 O 0.63672(12) 0.10731(10) 0.66163(18)
O6_4 O 0.53561(12) 0.14214(10) 0.80154(18)
O7_4 O 0.59783(11) 0.13397(10) 0.81361(18)
O8_4 O 0.60878(13) 0.18173(9) 0.67921(18)
O9_4 O 0.73200(12) 0.21505(11) 0.6960(2)
O10_4 O 0.69348(12) 0.16622(11) 0.68636(19)
O11_4 O 0.65909(11) 0.18787(11) 0.83691(18)
C1_4 C 0.64347(14) 0.07519(15) 0.6917(3)
C2_4 C 0.66458(15) 0.07216(18) 0.7796(3)
C3_4 C 0.61226(14) 0.04376(12) 0.5790(2)
C4_4 C 0.57368(15) 0.04760(17) 0.5810(3)
C5_4 C 0.5535(2) 0.0484(4) 0.5000
H1_4 H 0.5269 0.0495 0.5000
C6_4 C 0.63218(18) 0.04480(17) 0.5000
C7_4 C 0.6763(2) 0.0432(2) 0.5000
C8_4 C 0.55324(19) 0.0500(3) 0.6674(4)
H2_4 H 0.5503 0.0249 0.6922
H3_4 H 0.5285 0.0611 0.6578
H4_4 H 0.5675 0.0657 0.7084
C9_4 C 0.5684(2) 0.14744(14) 0.7787(3)
C10_4 C 0.57510(19) 0.17467(13) 0.6983(2)
C11_4 C 0.54707(15) 0.20642(11) 0.5791(2)
C12_4 C 0.5461(2) 0.18672(15) 0.5000
C13_4 C 0.54954(14) 0.24478(12) 0.5801(2)
C14_4 C 0.5501(3) 0.26346(18) 0.5000
H5_4 H 0.5510 0.2900 0.5000
C15_4 C 0.5517(2) 0.26639(15) 0.6680(3)
H6_4 H 0.5615 0.2499 0.7142
H7_4 H 0.5266 0.2750 0.6845
H8_4 H 0.5683 0.2880 0.6611
C16_4 C 0.5474(3) 0.14215(18) 0.5000
C17_4 C 0.70429(19) 0.19583(17) 0.7228(3)
C18_4 C 0.68606(17) 0.20855(17) 0.8054(3)
C19_4 C 0.68232(15) 0.25283(15) 0.9190(2)
C20_8 C 0.6976(2) 0.2369(2) 1.0000
C21_4 C 0.65409(16) 0.27745(16) 0.9189(3)
C22_8 C 0.6361(2) 0.2873(3) 1.0000
H9_8 H 0.6127 0.3001 1.0000
C23_4 C 0.6371(3) 0.2914(2) 0.8341(4)
H10_4 H 0.6524 0.2831 0.7841
H11_4 H 0.6361 0.3188 0.8350
H12_4 H 0.6117 0.2813 0.8279
C24_8 C 0.7239(3) 0.2096(3) 1.0000
O12_7 O 0.60206(16) 0.0000 0.8443(3)
O13_4 O 0.5000 0.21568(16) 0.8387(3)
O14_4 O 0.7081(2) 0.2919(2) 0.6576(5)
N8_4 N 0.63197(12) 0.04242(12) 0.33916(19)
O15_4 O 0.67296(10) 0.03941(12) 0.19425(17)
O16_4 O 0.67255(11) 0.10308(11) 0.18407(19)
O17_4 O 0.63672(12) 0.10731(10) 0.33837(18)
C25_4 C 0.64347(14) 0.07519(15) 0.3083(3)
C26_4 C 0.66458(15) 0.07216(18) 0.2204(3)
C27_4 C 0.61226(14) 0.04376(12) 0.4210(2)
C28_4 C 0.57368(15) 0.04760(17) 0.4190(3)
C29_4 C 0.55324(19) 0.0500(3) 0.3326(4)
H14_4 H 0.5503 0.0249 0.3078
H15_4 H 0.5285 0.0611 0.3422
H16_4 H 0.5675 0.0657 0.2916
N9_4 N 0.54519(13) 0.18551(10) 0.33831(19)
O18_4 O 0.53561(12) 0.14214(10) 0.19846(18)
O19_4 O 0.59783(11) 0.13397(10) 0.18639(18)
O20_4 O 0.60878(13) 0.18173(9) 0.32079(18)
C30_4 C 0.5684(2) 0.14744(14) 0.2213(3)
C31_4 C 0.57510(19) 0.17467(13) 0.3017(2)
C32_4 C 0.54707(15) 0.20642(11) 0.4209(2)
C33_4 C 0.54954(14) 0.24478(12) 0.4199(2)
C34_4 C 0.5517(2) 0.26639(15) 0.3320(3)
H17_4 H 0.5615 0.2499 0.2858
H18_4 H 0.5266 0.2750 0.3155
H19_4 H 0.5683 0.2880 0.3389
H23_4 H 0.7331 0.2001 0.9457
Cu4_7 Cu 0.64817(3) 0.0000 0.26598(4)
Cu5_4 Cu 0.5000 0.17052(2) 0.27110(4)
N12_4 N 0.45481(13) 0.18551(10) 0.66169(19)
N13_4 N 0.76114(12) 0.30071(12) 0.84128(19)
O25_4 O 0.46439(12) 0.14214(10) 0.80154(18)
O26_4 O 0.78495(11) 0.26800(12) 0.6960(2)
H40_4 H 0.685529 0.0172328 0.530759
H41_4 H 0.686512 0.0443395 0.432321
H42_4 H 0.687331 0.0669226 0.53692
H43_4 H 0.523498 0.131285 0.536548
H44_4 H 0.546375 0.131952 0.432299
H45_4 H 0.573215 0.132735 0.531152
H46_8 H 0.70196 0.188427 1
Cu1_8 Cu 0.64817(3) 1.0000 0.73402(4)
O12_8 O 0.60206(16) 1.0000 0.8443(3)
Cu4_8 Cu 0.64817(3) 1.0000 0.26598(4)
N11_4 N 0.63197(12) 0.95758(12) 0.66084(19)
O24_4 O 0.67296(10) 0.96059(12) 0.80575(17)
H36_4 H 0.577075 0.996281 0.816916
H37_4 H 0.607087 0.979388 0.886662
Ni1_5 Ni 0.14733(2) 0.64612(2) 0.25044(3)
N5_5 N 0.04242(12) 0.63197(12) 0.33916(19)
N6_5 N 0.18551(10) 0.54519(13) 0.33831(19)
N7_5 N 0.23886(12) 0.69929(12) 0.15872(19)
O3_5 O 0.03941(12) 0.67296(10) 0.19425(17)
O4_5 O 0.10308(11) 0.67255(11) 0.18407(19)
O5_5 O 0.10731(10) 0.63672(12) 0.33837(18)
O6_5 O 0.14214(10) 0.53561(12) 0.19846(18)
O7_5 O 0.13397(10) 0.59783(11) 0.18639(18)
O8_5 O 0.18173(9) 0.60878(13) 0.32079(18)
O9_5 O 0.21505(11) 0.73200(12) 0.3040(2)
O10_5 O 0.16622(11) 0.69348(12) 0.31364(19)
O11_5 O 0.18787(11) 0.65909(11) 0.16309(18)
C1_5 C 0.07519(15) 0.64347(14) 0.3083(3)
C2_5 C 0.07216(18) 0.66458(15) 0.2204(3)
C3_5 C 0.04376(12) 0.61226(14) 0.4210(2)
C4_5 C 0.04760(17) 0.57368(15) 0.4190(3)
C5_5 C 0.0484(4) 0.5535(2) 0.5000
H1_5 H 0.0495 0.5269 0.5000
C6_5 C 0.04480(17) 0.63218(18) 0.5000
C7_5 C 0.0432(2) 0.6763(2) 0.5000
C8_5 C 0.0500(3) 0.55324(19) 0.3326(4)
H2_5 H 0.0249 0.5503 0.3078
H3_5 H 0.0611 0.5285 0.3422
H4_5 H 0.0657 0.5675 0.2916
C9_5 C 0.14744(14) 0.5684(2) 0.2213(3)
C10_5 C 0.17467(13) 0.57510(19) 0.3017(2)
C11_5 C 0.20642(11) 0.54707(15) 0.4209(2)
C12_5 C 0.18672(15) 0.5461(2) 0.5000
C13_5 C 0.24478(12) 0.54954(14) 0.4199(2)
C14_5 C 0.26346(18) 0.5501(3) 0.5000
H5_5 H 0.2900 0.5510 0.5000
C15_5 C 0.26639(15) 0.5517(2) 0.3320(3)
H6_5 H 0.2499 0.5615 0.2858
H7_5 H 0.2750 0.5266 0.3155
H8_5 H 0.2880 0.5683 0.3389
C16_5 C 0.14215(18) 0.5474(3) 0.5000
C17_5 C 0.19583(17) 0.70429(19) 0.2772(3)
C18_5 C 0.20855(17) 0.68606(17) 0.1946(3)
C19_5 C 0.25283(15) 0.68232(15) 0.0810(2)
C20_9 C 0.2369(2) 0.6976(2) 0.0000
C21_5 C 0.27745(16) 0.65409(16) 0.0811(3)
C22_9 C 0.2873(3) 0.6361(2) 0.0000
H9_9 H 0.3001 0.6127 0.0000
C23_5 C 0.2914(2) 0.6371(3) 0.1659(4)
H10_5 H 0.2831 0.6524 0.2159
H11_5 H 0.3188 0.6361 0.1650
H12_5 H 0.2813 0.6117 0.1721
C24_9 C 0.2096(3) 0.7239(3) 0.0000
O12_9 O 0.0000 0.60206(16) 0.1557(3)
O13_5 O 0.21568(16) 0.5000 0.1613(3)
O14_5 O 0.2919(2) 0.7081(2) 0.3424(5)
O16_5 O 0.10308(11) 0.67255(11) 0.81593(19)
O17_5 O 0.10731(10) 0.63672(12) 0.66163(18)
C25_5 C 0.07519(15) 0.64347(14) 0.6917(3)
C26_5 C 0.07216(18) 0.66458(15) 0.7796(3)
C27_5 C 0.04376(12) 0.61226(14) 0.5790(2)
C28_5 C 0.04760(17) 0.57368(15) 0.5810(3)
C29_5 C 0.0500(3) 0.55324(19) 0.6674(4)
H14_5 H 0.0249 0.5503 0.6922
H15_5 H 0.0611 0.5285 0.6578
H16_5 H 0.0657 0.5675 0.7084
O19_5 O 0.13397(10) 0.59783(11) 0.81361(18)
O20_5 O 0.18173(9) 0.60878(13) 0.67921(18)
C30_5 C 0.14744(14) 0.5684(2) 0.7787(3)
C31_5 C 0.17467(13) 0.57510(19) 0.6983(2)
C32_5 C 0.20642(11) 0.54707(15) 0.5791(2)
C33_5 C 0.24478(12) 0.54954(14) 0.5801(2)
C34_5 C 0.26639(15) 0.5517(2) 0.6680(3)
H17_5 H 0.2499 0.5615 0.7142
H18_5 H 0.2750 0.5266 0.6845
H19_5 H 0.2880 0.5683 0.6611
H23_5 H 0.2001 0.7331 0.0543
Ni2 Ni 0.14733(2) 0.64612(2) 0.74956(3)
O27 O 0.16622(11) 0.69348(12) 0.68636(19)
O28 O 0.18787(11) 0.65909(11) 0.83691(18)
H40_5 H 0.0172328 0.685529 0.469241
H41_5 H 0.0443395 0.686512 0.567679
H42_5 H 0.0669226 0.687331 0.46308
H43_5 H 0.131285 0.523498 0.463452
H44_5 H 0.131952 0.546375 0.567701
H45_5 H 0.132735 0.573215 0.468848
H46_9 H 0.188427 0.70196 0
C20_10 C 0.2369(2) 0.6976(2) 1.0000
C22_10 C 0.2873(3) 0.6361(2) 1.0000
H9_10 H 0.3001 0.6127 1.0000
C24_10 C 0.2096(3) 0.7239(3) 1.0000
H13_5 H 0.2001 0.7331 0.9457
C35_5 C 0.19583(17) 0.70429(19) 0.7228(3)
C36_5 C 0.20855(17) 0.68606(17) 0.8054(3)
C37_5 C 0.25283(15) 0.68232(15) 0.9190(2)
C38_5 C 0.27745(16) 0.65409(16) 0.9189(3)
C39_5 C 0.2914(2) 0.6371(3) 0.8341(4)
H20_5 H 0.2831 0.6524 0.7841
H21_5 H 0.3188 0.6361 0.8350
H22_5 H 0.2813 0.6117 0.8279
H46_10 H 0.188427 0.70196 1
O12_10 O 1.0000 0.60206(16) 0.1557(3)
H36_5 H 0.996281 0.577075 0.183084
H37_5 H 0.979388 0.607087 0.113338
O12_11 O -0.0000 0.39794(16) 0.1557(3)
H36_6 H 0.00371854 0.422925 0.183084
H37_6 H 0.0206121 0.392913 0.113338
Ni1_6 Ni 0.85267(2) 0.35388(2) 0.25044(3)
N5_6 N 0.95758(12) 0.36803(12) 0.33916(19)
N6_6 N 0.81449(10) 0.45481(13) 0.33831(19)
N7_6 N 0.76114(12) 0.30071(12) 0.15872(19)
O3_6 O 0.96059(12) 0.32704(10) 0.19425(17)
O4_6 O 0.89692(11) 0.32745(11) 0.18407(19)
O5_6 O 0.89269(10) 0.36328(12) 0.33837(18)
O6_6 O 0.85786(10) 0.46439(12) 0.19846(18)
O7_6 O 0.86603(10) 0.40217(11) 0.18639(18)
O8_6 O 0.81827(9) 0.39122(13) 0.32079(18)
O9_6 O 0.78495(11) 0.26800(12) 0.3040(2)
O10_6 O 0.83378(11) 0.30652(12) 0.31364(19)
O11_6 O 0.81213(11) 0.34091(11) 0.16309(18)
C1_6 C 0.92481(15) 0.35653(14) 0.3083(3)
C2_6 C 0.92784(18) 0.33542(15) 0.2204(3)
C3_6 C 0.95624(12) 0.38774(14) 0.4210(2)
C4_6 C 0.95240(17) 0.42632(15) 0.4190(3)
C5_6 C 0.9516(4) 0.4465(2) 0.5000
H1_6 H 0.9505 0.4731 0.5000
C6_6 C 0.95520(17) 0.36782(18) 0.5000
C7_6 C 0.9568(2) 0.3237(2) 0.5000
C8_6 C 0.9500(3) 0.44676(19) 0.3326(4)
H2_6 H 0.9751 0.4497 0.3078
H3_6 H 0.9389 0.4715 0.3422
H4_6 H 0.9343 0.4325 0.2916
C9_6 C 0.85256(14) 0.4316(2) 0.2213(3)
C10_6 C 0.82533(13) 0.42490(19) 0.3017(2)
C11_6 C 0.79358(11) 0.45293(15) 0.4209(2)
C12_6 C 0.81328(15) 0.4539(2) 0.5000
C13_6 C 0.75522(12) 0.45046(14) 0.4199(2)
C14_6 C 0.73654(18) 0.4499(3) 0.5000
H5_6 H 0.7100 0.4490 0.5000
C15_6 C 0.73361(15) 0.4483(2) 0.3320(3)
H6_6 H 0.7501 0.4385 0.2858
H7_6 H 0.7250 0.4734 0.3155
H8_6 H 0.7120 0.4317 0.3389
C16_6 C 0.85785(18) 0.4526(3) 0.5000
C17_6 C 0.80417(17) 0.29571(19) 0.2772(3)
C18_6 C 0.79145(17) 0.31394(17) 0.1946(3)
C19_6 C 0.74717(15) 0.31768(15) 0.0810(2)
C20_11 C 0.7631(2) 0.3024(2) 0.0000
C21_6 C 0.72255(16) 0.34591(16) 0.0811(3)
C22_11 C 0.7127(3) 0.3639(2) 0.0000
H9_11 H 0.6999 0.3873 0.0000
C23_6 C 0.7086(2) 0.3629(3) 0.1659(4)
H10_6 H 0.7169 0.3476 0.2159
H11_6 H 0.6812 0.3639 0.1650
H12_6 H 0.7187 0.3883 0.1721
C24_11 C 0.7904(3) 0.2761(3) 0.0000
O12_12 O 1.0000 0.39794(16) 0.1557(3)
O13_6 O 0.78432(16) 0.5000 0.1613(3)
O14_6 O 0.7081(2) 0.2919(2) 0.3424(5)
O16_6 O 0.89692(11) 0.32745(11) 0.81593(19)
O17_6 O 0.89269(10) 0.36328(12) 0.66163(18)
C25_6 C 0.92481(15) 0.35653(14) 0.6917(3)
C26_6 C 0.92784(18) 0.33542(15) 0.7796(3)
C27_6 C 0.95624(12) 0.38774(14) 0.5790(2)
C28_6 C 0.95240(17) 0.42632(15) 0.5810(3)
C29_6 C 0.9500(3) 0.44676(19) 0.6674(4)
H14_6 H 0.9751 0.4497 0.6922
H15_6 H 0.9389 0.4715 0.6578
H16_6 H 0.9343 0.4325 0.7084
O19_6 O 0.86603(10) 0.40217(11) 0.81361(18)
O20_6 O 0.81827(9) 0.39122(13) 0.67921(18)
C30_6 C 0.85256(14) 0.4316(2) 0.7787(3)
C31_6 C 0.82533(13) 0.42490(19) 0.6983(2)
C32_6 C 0.79358(11) 0.45293(15) 0.5791(2)
C33_6 C 0.75522(12) 0.45046(14) 0.5801(2)
C34_6 C 0.73361(15) 0.4483(2) 0.6680(3)
H17_6 H 0.7501 0.4385 0.7142
H18_6 H 0.7250 0.4734 0.6845
H19_6 H 0.7120 0.4317 0.6611
H23_6 H 0.7999 0.2669 0.0543
Ni2_2 Ni 0.85267(2) 0.35388(2) 0.74956(3)
O27_2 O 0.83378(11) 0.30652(12) 0.68636(19)
O28_2 O 0.81213(11) 0.34091(11) 0.83691(18)
H40_6 H 0.982767 0.314471 0.469241
H41_6 H 0.95566 0.313488 0.567679
H42_6 H 0.933077 0.312669 0.46308
H43_6 H 0.868715 0.476502 0.463452
H44_6 H 0.868048 0.453625 0.567701
H45_6 H 0.867265 0.426785 0.468848
H46_11 H 0.811573 0.29804 0
C20_12 C 0.7631(2) 0.3024(2) 1.0000
C22_12 C 0.7127(3) 0.3639(2) 1.0000
H9_12 H 0.6999 0.3873 1.0000
C24_12 C 0.7904(3) 0.2761(3) 1.0000
H13_6 H 0.7999 0.2669 0.9457
C35_6 C 0.80417(17) 0.29571(19) 0.7228(3)
C36_6 C 0.79145(17) 0.31394(17) 0.8054(3)
C37_6 C 0.74717(15) 0.31768(15) 0.9190(2)
C38_6 C 0.72255(16) 0.34591(16) 0.9189(3)
C39_6 C 0.7086(2) 0.3629(3) 0.8341(4)
H20_6 H 0.7169 0.3476 0.7841
H21_6 H 0.6812 0.3639 0.8350
H22_6 H 0.7187 0.3883 0.8279
H46_12 H 0.811573 0.29804 1
O12_13 O 0.60206(16) 0.0000 0.1557(3)
H36_7 H 0.577075 0.00371854 0.183084
H37_7 H 0.607087 0.0206121 0.113338
Ni1_7 Ni 0.64612(2) 0.85267(2) 0.25044(3)
N5_7 N 0.63197(12) 0.95758(12) 0.33916(19)
N6_7 N 0.54519(13) 0.81449(10) 0.33831(19)
N7_7 N 0.69929(12) 0.76114(12) 0.15872(19)
O3_7 O 0.67296(10) 0.96059(12) 0.19425(17)
O4_7 O 0.67255(11) 0.89692(11) 0.18407(19)
O5_7 O 0.63672(12) 0.89269(10) 0.33837(18)
O6_7 O 0.53561(12) 0.85786(10) 0.19846(18)
O7_7 O 0.59783(11) 0.86603(10) 0.18639(18)
O8_7 O 0.60878(13) 0.81827(9) 0.32079(18)
O9_7 O 0.73200(12) 0.78495(11) 0.3040(2)
O10_7 O 0.69348(12) 0.83378(11) 0.31364(19)
O11_7 O 0.65909(11) 0.81213(11) 0.16309(18)
C1_7 C 0.64347(14) 0.92481(15) 0.3083(3)
C2_7 C 0.66458(15) 0.92784(18) 0.2204(3)
C3_7 C 0.61226(14) 0.95624(12) 0.4210(2)
C4_7 C 0.57368(15) 0.95240(17) 0.4190(3)
C5_7 C 0.5535(2) 0.9516(4) 0.5000
H1_7 H 0.5269 0.9505 0.5000
C6_7 C 0.63218(18) 0.95520(17) 0.5000
C7_7 C 0.6763(2) 0.9568(2) 0.5000
C8_7 C 0.55324(19) 0.9500(3) 0.3326(4)
H2_7 H 0.5503 0.9751 0.3078
H3_7 H 0.5285 0.9389 0.3422
H4_7 H 0.5675 0.9343 0.2916
C9_7 C 0.5684(2) 0.85256(14) 0.2213(3)
C10_7 C 0.57510(19) 0.82533(13) 0.3017(2)
C11_7 C 0.54707(15) 0.79358(11) 0.4209(2)
C12_7 C 0.5461(2) 0.81328(15) 0.5000
C13_7 C 0.54954(14) 0.75522(12) 0.4199(2)
C14_7 C 0.5501(3) 0.73654(18) 0.5000
H5_7 H 0.5510 0.7100 0.5000
C15_7 C 0.5517(2) 0.73361(15) 0.3320(3)
H6_7 H 0.5615 0.7501 0.2858
H7_7 H 0.5266 0.7250 0.3155
H8_7 H 0.5683 0.7120 0.3389
C16_7 C 0.5474(3) 0.85785(18) 0.5000
C17_7 C 0.70429(19) 0.80417(17) 0.2772(3)
C18_7 C 0.68606(17) 0.79145(17) 0.1946(3)
C19_7 C 0.68232(15) 0.74717(15) 0.0810(2)
C20_13 C 0.6976(2) 0.7631(2) 0.0000
C21_7 C 0.65409(16) 0.72255(16) 0.0811(3)
C22_13 C 0.6361(2) 0.7127(3) 0.0000
H9_13 H 0.6127 0.6999 0.0000
C23_7 C 0.6371(3) 0.7086(2) 0.1659(4)
H10_7 H 0.6524 0.7169 0.2159
H11_7 H 0.6361 0.6812 0.1650
H12_7 H 0.6117 0.7187 0.1721
C24_13 C 0.7239(3) 0.7904(3) 0.0000
O12_14 O 0.60206(16) 1.0000 0.1557(3)
O13_7 O 0.5000 0.78432(16) 0.1613(3)
O14_7 O 0.7081(2) 0.7081(2) 0.3424(5)
O16_7 O 0.67255(11) 0.89692(11) 0.81593(19)
O17_7 O 0.63672(12) 0.89269(10) 0.66163(18)
C25_7 C 0.64347(14) 0.92481(15) 0.6917(3)
C26_7 C 0.66458(15) 0.92784(18) 0.7796(3)
C27_7 C 0.61226(14) 0.95624(12) 0.5790(2)
C28_7 C 0.57368(15) 0.95240(17) 0.5810(3)
C29_7 C 0.55324(19) 0.9500(3) 0.6674(4)
H14_7 H 0.5503 0.9751 0.6922
H15_7 H 0.5285 0.9389 0.6578
H16_7 H 0.5675 0.9343 0.7084
O19_7 O 0.59783(11) 0.86603(10) 0.81361(18)
O20_7 O 0.60878(13) 0.81827(9) 0.67921(18)
C30_7 C 0.5684(2) 0.85256(14) 0.7787(3)
C31_7 C 0.57510(19) 0.82533(13) 0.6983(2)
C32_7 C 0.54707(15) 0.79358(11) 0.5791(2)
C33_7 C 0.54954(14) 0.75522(12) 0.5801(2)
C34_7 C 0.5517(2) 0.73361(15) 0.6680(3)
H17_7 H 0.5615 0.7501 0.7142
H18_7 H 0.5266 0.7250 0.6845
H19_7 H 0.5683 0.7120 0.6611
H23_7 H 0.7331 0.7999 0.0543
Ni2_3 Ni 0.64612(2) 0.85267(2) 0.74956(3)
O27_3 O 0.69348(12) 0.83378(11) 0.68636(19)
O28_3 O 0.65909(11) 0.81213(11) 0.83691(18)
H40_7 H 0.685529 0.982767 0.469241
H41_7 H 0.686512 0.95566 0.567679
H42_7 H 0.687331 0.933077 0.46308
H43_7 H 0.523498 0.868715 0.463452
H44_7 H 0.546375 0.868048 0.567701
H45_7 H 0.573215 0.867265 0.468848
H46_13 H 0.70196 0.811573 0
C20_14 C 0.6976(2) 0.7631(2) 1.0000
C22_14 C 0.6361(2) 0.7127(3) 1.0000
H9_14 H 0.6127 0.6999 1.0000
C24_14 C 0.7239(3) 0.7904(3) 1.0000
H13_7 H 0.7331 0.7999 0.9457
C35_7 C 0.70429(19) 0.80417(17) 0.7228(3)
C36_7 C 0.68606(17) 0.79145(17) 0.8054(3)
C37_7 C 0.68232(15) 0.74717(15) 0.9190(2)
C38_7 C 0.65409(16) 0.72255(16) 0.9189(3)
C39_7 C 0.6371(3) 0.7086(2) 0.8341(4)
H20_7 H 0.6524 0.7169 0.7841
H21_7 H 0.6361 0.6812 0.8350
H22_7 H 0.6117 0.7187 0.8279
H46_14 H 0.70196 0.811573 1
Ni1_8 Ni 0.35388(2) 0.14733(2) 0.25044(3)
N5_8 N 0.36803(12) 0.04242(12) 0.33916(19)
N6_8 N 0.45481(13) 0.18551(10) 0.33831(19)
N7_8 N 0.30071(12) 0.23886(12) 0.15872(19)
O3_8 O 0.32704(10) 0.03941(12) 0.19425(17)
O4_8 O 0.32745(11) 0.10308(11) 0.18407(19)
O5_8 O 0.36328(12) 0.10731(10) 0.33837(18)
O6_8 O 0.46439(12) 0.14214(10) 0.19846(18)
O7_8 O 0.40217(11) 0.13397(10) 0.18639(18)
O8_8 O 0.39122(13) 0.18173(9) 0.32079(18)
O9_8 O 0.26800(12) 0.21505(11) 0.3040(2)
O10_8 O 0.30652(12) 0.16622(11) 0.31364(19)
O11_8 O 0.34091(11) 0.18787(11) 0.16309(18)
C1_8 C 0.35653(14) 0.07519(15) 0.3083(3)
C2_8 C 0.33542(15) 0.07216(18) 0.2204(3)
C3_8 C 0.38774(14) 0.04376(12) 0.4210(2)
C4_8 C 0.42632(15) 0.04760(17) 0.4190(3)
C5_8 C 0.4465(2) 0.0484(4) 0.5000
H1_8 H 0.4731 0.0495 0.5000
C6_8 C 0.36782(18) 0.04480(17) 0.5000
C7_8 C 0.3237(2) 0.0432(2) 0.5000
C8_8 C 0.44676(19) 0.0500(3) 0.3326(4)
H2_8 H 0.4497 0.0249 0.3078
H3_8 H 0.4715 0.0611 0.3422
H4_8 H 0.4325 0.0657 0.2916
C9_8 C 0.4316(2) 0.14744(14) 0.2213(3)
C10_8 C 0.42490(19) 0.17467(13) 0.3017(2)
C11_8 C 0.45293(15) 0.20642(11) 0.4209(2)
C12_8 C 0.4539(2) 0.18672(15) 0.5000
C13_8 C 0.45046(14) 0.24478(12) 0.4199(2)
C14_8 C 0.4499(3) 0.26346(18) 0.5000
H5_8 H 0.4490 0.2900 0.5000
C15_8 C 0.4483(2) 0.26639(15) 0.3320(3)
H6_8 H 0.4385 0.2499 0.2858
H7_8 H 0.4734 0.2750 0.3155
H8_8 H 0.4317 0.2880 0.3389
C16_8 C 0.4526(3) 0.14215(18) 0.5000
C17_8 C 0.29571(19) 0.19583(17) 0.2772(3)
C18_8 C 0.31394(17) 0.20855(17) 0.1946(3)
C19_8 C 0.31768(15) 0.25283(15) 0.0810(2)
C20_15 C 0.3024(2) 0.2369(2) 0.0000
C21_8 C 0.34591(16) 0.27745(16) 0.0811(3)
C22_15 C 0.3639(2) 0.2873(3) 0.0000
H9_15 H 0.3873 0.3001 0.0000
C23_8 C 0.3629(3) 0.2914(2) 0.1659(4)
H10_8 H 0.3476 0.2831 0.2159
H11_8 H 0.3639 0.3188 0.1650
H12_8 H 0.3883 0.2813 0.1721
C24_15 C 0.2761(3) 0.2096(3) 0.0000
O12_15 O 0.39794(16) 0.0000 0.1557(3)
O13_8 O 0.5000 0.21568(16) 0.1613(3)
O14_8 O 0.2919(2) 0.2919(2) 0.3424(5)
O16_8 O 0.32745(11) 0.10308(11) 0.81593(19)
O17_8 O 0.36328(12) 0.10731(10) 0.66163(18)
C25_8 C 0.35653(14) 0.07519(15) 0.6917(3)
C26_8 C 0.33542(15) 0.07216(18) 0.7796(3)
C27_8 C 0.38774(14) 0.04376(12) 0.5790(2)
C28_8 C 0.42632(15) 0.04760(17) 0.5810(3)
C29_8 C 0.44676(19) 0.0500(3) 0.6674(4)
H14_8 H 0.4497 0.0249 0.6922
H15_8 H 0.4715 0.0611 0.6578
H16_8 H 0.4325 0.0657 0.7084
O19_8 O 0.40217(11) 0.13397(10) 0.81361(18)
O20_8 O 0.39122(13) 0.18173(9) 0.67921(18)
C30_8 C 0.4316(2) 0.14744(14) 0.7787(3)
C31_8 C 0.42490(19) 0.17467(13) 0.6983(2)
C32_8 C 0.45293(15) 0.20642(11) 0.5791(2)
C33_8 C 0.45046(14) 0.24478(12) 0.5801(2)
C34_8 C 0.4483(2) 0.26639(15) 0.6680(3)
H17_8 H 0.4385 0.2499 0.7142
H18_8 H 0.4734 0.2750 0.6845
H19_8 H 0.4317 0.2880 0.6611
H23_8 H 0.2669 0.2001 0.0543
Ni2_4 Ni 0.35388(2) 0.14733(2) 0.74956(3)
O27_4 O 0.30652(12) 0.16622(11) 0.68636(19)
O28_4 O 0.34091(11) 0.18787(11) 0.83691(18)
H40_8 H 0.314471 0.0172328 0.469241
H41_8 H 0.313488 0.0443395 0.567679
H42_8 H 0.312669 0.0669226 0.46308
H43_8 H 0.476502 0.131285 0.463452
H44_8 H 0.453625 0.131952 0.567701
H45_8 H 0.426785 0.132735 0.468848
H46_15 H 0.29804 0.188427 0
C20_16 C 0.3024(2) 0.2369(2) 1.0000
C22_16 C 0.3639(2) 0.2873(3) 1.0000
H9_16 H 0.3873 0.3001 1.0000
C24_16 C 0.2761(3) 0.2096(3) 1.0000
H13_8 H 0.2669 0.2001 0.9457
C35_8 C 0.29571(19) 0.19583(17) 0.7228(3)
C36_8 C 0.31394(17) 0.20855(17) 0.8054(3)
C37_8 C 0.31768(15) 0.25283(15) 0.9190(2)
C38_8 C 0.34591(16) 0.27745(16) 0.9189(3)
C39_8 C 0.3629(3) 0.2914(2) 0.8341(4)
H20_8 H 0.3476 0.2831 0.7841
H21_8 H 0.3639 0.3188 0.8350
H22_8 H 0.3883 0.2813 0.8279
H46_16 H 0.29804 0.188427 1
O12_16 O 0.39794(16) 1.0000 0.1557(3)
H36_8 H 0.422925 0.996281 0.183084
H37_8 H 0.392913 0.979388 0.113338
H40_9 H 0.0172328 0.314471 0.469241
H41_9 H 0.0443395 0.313488 0.567679
H42_9 H 0.0669226 0.312669 0.46308
H43_9 H 0.131285 0.476502 0.463452
H44_9 H 0.131952 0.453625 0.567701
H45_9 H 0.132735 0.426785 0.468848
H36_9 H 0.996281 0.422925 0.183084
H37_9 H 0.979388 0.392913 0.113338
H36_10 H 0.00371854 0.577075 0.183084
H37_10 H 0.0206121 0.607087 0.113338
H40_10 H 0.982767 0.685529 0.469241
H41_10 H 0.95566 0.686512 0.567679
H42_10 H 0.933077 0.687331 0.46308
H43_10 H 0.868715 0.523498 0.463452
H44_10 H 0.868048 0.546375 0.567701
H45_10 H 0.867265 0.573215 0.468848
H40_11 H 0.685529 0.0172328 0.469241
H41_11 H 0.686512 0.0443395 0.567679
H42_11 H 0.687331 0.0669226 0.46308
H43_11 H 0.523498 0.131285 0.463452
H44_11 H 0.546375 0.131952 0.567701
H45_11 H 0.573215 0.132735 0.468848
H36_11 H 0.577075 0.996281 0.183084
H37_11 H 0.607087 0.979388 0.113338
H36_12 H 0.422925 0.00371854 0.183084
H37_12 H 0.392913 0.0206121 0.113338
H40_12 H 0.314471 0.982767 0.469241
H41_12 H 0.313488 0.95566 0.567679
H42_12 H 0.312669 0.933077 0.46308
H43_12 H 0.476502 0.868715 0.463452
H44_12 H 0.453625 0.868048 0.567701
H45_12 H 0.426785 0.867265 0.468848
H36_13 H 0.00371854 0.422925 0.816916
H37_13 H 0.0206121 0.392913 0.886662
H40_13 H 0.982767 0.314471 0.530759
H41_13 H 0.95566 0.313488 0.432321
H42_13 H 0.933077 0.312669 0.53692
H43_13 H 0.868715 0.476502 0.536548
H44_13 H 0.868048 0.453625 0.432299
H45_13 H 0.867265 0.426785 0.531152
H40_14 H 0.0172328 0.685529 0.530759
H41_14 H 0.0443395 0.686512 0.432321
H42_14 H 0.0669226 0.687331 0.53692
H43_14 H 0.131285 0.523498 0.536548
H44_14 H 0.131952 0.546375 0.432299
H45_14 H 0.132735 0.573215 0.531152
H36_14 H 0.996281 0.577075 0.816916
H37_14 H 0.979388 0.607087 0.886662
H40_15 H 0.314471 0.0172328 0.530759
H41_15 H 0.313488 0.0443395 0.432321
H42_15 H 0.312669 0.0669226 0.53692
H43_15 H 0.476502 0.131285 0.536548
H44_15 H 0.453625 0.131952 0.432299
H45_15 H 0.426785 0.132735 0.531152
H36_15 H 0.422925 0.996281 0.816916
H37_15 H 0.392913 0.979388 0.886662
H36_16 H 0.577075 0.00371854 0.816916
H37_16 H 0.607087 0.0206121 0.886662
H40_16 H 0.685529 0.982767 0.530759
H41_16 H 0.686512 0.95566 0.432321
H42_16 H 0.687331 0.933077 0.53692
H43_16 H 0.523498 0.868715 0.536548
H44_16 H 0.546375 0.868048 0.432299
H45_16 H 0.573215 0.867265 0.531152
loop_
_geom_bond_atom_site_label_1
_geom_bond_atom_site_label_2
_geom_bond_site_symmetry_1
_geom_bond_site_symmetry_2
Pd1 N1 1_555 1_555
N2 Pd1 1_555 1_555
O1 Pd1 1_555 1_555
O2 Pd1 1_555 1_555
Pd2 O1 1_555 1_555
N3 Pd2 1_555 1_555
N4 Pd2 1_555 1_555
O2 Pd2 1_555 1_555
N3 H24 1_555 1_555
N3 H25 1_555 1_555
N3 H26 1_555 1_555
N4 H27 1_555 1_555
N4 H28 1_555 1_555
N4 H29 1_555 1_555
N2 H30 1_555 1_555
N2 H31 1_555 1_555
N2 H32 1_555 1_555
N1 H33 1_555 1_555
N1 H34 1_555 1_555
N1 H35 1_555 1_555
N1 H24_2 1_555 1_555
N1 H25_2 1_555 1_555
N1 H26_2 1_555 1_555
N2 H27_2 1_555 1_555
N2 H28_2 1_555 1_555
N2 H29_2 1_555 1_555
N4 H30_2 1_555 1_555
N4 H31_2 1_555 1_555
N4 H32_2 1_555 1_555
N3 H33_2 1_555 1_555
N3 H34_2 1_555 1_555
N3 H35_2 1_555 1_555
Pd1_2 N1_2 1_555 1_555
N2_2 Pd1_2 1_555 1_555
O1_2 Pd1_2 1_555 1_555
O2_2 Pd1_2 1_555 1_555
Pd2_2 O1_2 1_555 1_555
N3_2 Pd2_2 1_555 1_555
N4_2 Pd2_2 1_555 1_555
O2_2 Pd2_2 1_555 1_555
N3_2 H24_3 1_555 1_555
N3_2 H25_3 1_555 1_555
N3_2 H26_3 1_555 1_555
N4_2 H27_3 1_555 1_555
N4_2 H28_3 1_555 1_555
N4_2 H29_3 1_555 1_555
N2_2 H30_3 1_555 1_555
N2_2 H31_3 1_555 1_555
N2_2 H32_3 1_555 1_555
N1_2 H33_3 1_555 1_555
N1_2 H34_3 1_555 1_555
N1_2 H35_3 1_555 1_555
N1_2 H24_4 1_555 1_555
N1_2 H25_4 1_555 1_555
N1_2 H26_4 1_555 1_555
N2_2 H27_4 1_555 1_555
N2_2 H28_4 1_555 1_555
N2_2 H29_4 1_555 1_555
N4_2 H30_4 1_555 1_555
N4_2 H31_4 1_555 1_555
N4_2 H32_4 1_555 1_555
N3_2 H33_4 1_555 1_555
N3_2 H34_4 1_555 1_555
N3_2 H35_4 1_555 1_555
Pd1_3 N1_3 1_555 1_555
N2_3 Pd1_3 1_555 1_555
O1_3 Pd1_3 1_555 1_555
O2_3 Pd1_3 1_555 1_555
Pd2_3 O1_3 1_555 1_555
N3_3 Pd2_3 1_555 1_555
N4_3 Pd2_3 1_555 1_555
O2_3 Pd2_3 1_555 1_555
N3_3 H24_5 1_555 1_555
N3_3 H25_5 1_555 1_555
N3_3 H26_5 1_555 1_555
N4_3 H27_5 1_555 1_555
N4_3 H28_5 1_555 1_555
N4_3 H29_5 1_555 1_555
N2_3 H30_5 1_555 1_555
N2_3 H31_5 1_555 1_555
N2_3 H32_5 1_555 1_555
N1_3 H33_5 1_555 1_555
N1_3 H34_5 1_555 1_555
N1_3 H35_5 1_555 1_555
N1_3 H24_6 1_555 1_555
N1_3 H25_6 1_555 1_555
N1_3 H26_6 1_555 1_555
N2_3 H27_6 1_555 1_555
N2_3 H28_6 1_555 1_555
N2_3 H29_6 1_555 1_555
N4_3 H30_6 1_555 1_555
N4_3 H31_6 1_555 1_555
N4_3 H32_6 1_555 1_555
N3_3 H33_6 1_555 1_555
N3_3 H34_6 1_555 1_555
N3_3 H35_6 1_555 1_555
Pd1_4 N1_4 1_555 1_555
N2_4 Pd1_4 1_555 1_555
O1_4 Pd1_4 1_555 1_555
O2_4 Pd1_4 1_555 1_555
Pd2_4 O1_4 1_555 1_555
N3_4 Pd2_4 1_555 1_555
N4_4 Pd2_4 1_555 1_555
O2_4 Pd2_4 1_555 1_555
N3_4 H24_7 1_555 1_555
N3_4 H25_7 1_555 1_555
N3_4 H26_7 1_555 1_555
N4_4 H27_7 1_555 1_555
N4_4 H28_7 1_555 1_555
N4_4 H29_7 1_555 1_555
N2_4 H30_7 1_555 1_555
N2_4 H31_7 1_555 1_555
N2_4 H32_7 1_555 1_555
N1_4 H33_7 1_555 1_555
N1_4 H34_7 1_555 1_555
N1_4 H35_7 1_555 1_555
N1_4 H24_8 1_555 1_555
N1_4 H25_8 1_555 1_555
N1_4 H26_8 1_555 1_555
N2_4 H27_8 1_555 1_555
N2_4 H28_8 1_555 1_555
N2_4 H29_8 1_555 1_555
N4_4 H30_8 1_555 1_555
N4_4 H31_8 1_555 1_555
N4_4 H32_8 1_555 1_555
N3_4 H33_8 1_555 1_555
N3_4 H34_8 1_555 1_555
N3_4 H35_8 1_555 1_555
O12 Cu1 1_555 1_555
N11 Cu1 1_555 1_555
O24 Cu1 1_555 1_555
O12 H36 1_555 1_555
O12 H37 1_555 1_555
H9 C22 1_555 1_555
C24 C20 1_555 1_555
H13 C24 1_555 1_555
N10 C36 1_555 1_555
O21 C35 1_555 1_555
O22 C35 1_555 1_555
O23 C36 1_555 1_555
C35 C36 1_555 1_555
C37 C20 1_555 1_555
C38 C22 1_555 1_555
C39 C38 1_555 1_555
H20 C39 1_555 1_555
H21 C39 1_555 1_555
H22 C39 1_555 1_555
Cu6 N10 1_555 1_555
Ni3 O22 1_555 1_555
N10 C37 1_555 1_555
O21 Cu6 1_555 1_555
O23 Ni3 1_555 1_555
C37 C38 1_555 1_555
C24 H46 1_555 1_555
Cu1_2 N5 1_555 1_555
Cu2 N6 1_555 1_555
Cu3 N7 1_555 1_555
Ni1 O4 1_555 1_555
N5 C1 1_555 1_555
N6 C10 1_555 1_555
N7 C18 1_555 1_555
O3 Cu1_2 1_555 1_555
O4 C2 1_555 1_555
O5 Ni1 1_555 1_555
O6 Cu2 1_555 1_555
O7 Ni1 1_555 1_555
O8 Ni1 1_555 1_555
O9 Cu3 1_555 1_555
O10 Ni1 1_555 1_555
O11 Ni1 1_555 1_555
C1 O5 1_555 1_555
C2 O3 1_555 1_555
C3 N5 1_555 1_555
C4 C3 1_555 1_555
C5 C4 1_555 1_555
H1 C5 1_555 1_555
C6 C3 1_555 1_555
C7 C6 1_555 1_555
C8 C4 1_555 1_555
H2 C8 1_555 1_555
H3 C8 1_555 1_555
H4 C8 1_555 1_555
C9 O6 1_555 1_555
C10 O8 1_555 1_555
C11 N6 1_555 1_555
C12 C11 1_555 1_555
C13 C11 1_555 1_555
C14 C13 1_555 1_555
H5 C14 1_555 1_555
C15 C13 1_555 1_555
H6 C15 1_555 1_555
H7 C15 1_555 1_555
H8 C15 1_555 1_555
C16 C12 1_555 1_555
C17 O9 1_555 1_555
C18 O11 1_555 1_555
C19 N7 1_555 1_555
C20_2 C19 1_555 1_555
C21 C19 1_555 1_555
C22_2 C21 1_555 1_555
H9_2 C22_2 1_555 1_555
C23 C21 1_555 1_555
H10 C23 1_555 1_555
H11 C23 1_555 1_555
H12 C23 1_555 1_555
C24_2 C20_2 1_555 1_555
O12_2 Cu1_2 1_555 1_555
O13 Cu2 1_555 1_555
O14 Cu3 1_555 1_555
N8 C25 1_555 1_555
O15 C26 1_555 1_555
O16 C26 1_555 1_555
O17 C25 1_555 1_555
C25 C26 1_555 1_555
C27 C6 1_555 1_555
C28 C5 1_555 1_555
C29 C28 1_555 1_555
H14 C29 1_555 1_555
H15 C29 1_555 1_555
H16 C29 1_555 1_555
N9 C31 1_555 1_555
O18 C30 1_555 1_555
O19 C30 1_555 1_555
O20 C31 1_555 1_555
C30 C31 1_555 1_555
C32 C12 1_555 1_555
C33 C14 1_555 1_555
C34 C33 1_555 1_555
H17 C34 1_555 1_555
H18 C34 1_555 1_555
H19 C34 1_555 1_555
H23 C24_2 1_555 1_555
Ni3 O16 1_555 1_555
Cu4_2 N8 1_555 1_555
Cu5 N9 1_555 1_555
N12 Cu2 1_555 1_555
N13 Cu3 1_555 1_555
O25 Cu2 1_555 1_555
O26 Cu3 1_555 1_555
O7 C9 1_555 1_555
O10 C17 1_555 1_555
C1 C2 1_555 1_555
C9 C10 1_555 1_555
C17 C18 1_555 1_555
N8 C27 1_555 1_555
O15 Cu4_2 1_555 1_555
O17 Ni3 1_555 1_555
C27 C28 1_555 1_555
N9 C32 1_555 1_555
O18 Cu5 1_555 1_555
O19 Ni3 1_555 1_555
O20 Ni3 1_555 1_555
C32 C33 1_555 1_555
C7 H40 1_555 1_555
C7 H41 1_555 1_555
C7 H42 1_555 1_555
C16 H43 1_555 1_555
C16 H44 1_555 1_555
C16 H45 1_555 1_555
C24_2 H46_2 1_555 1_555
H9_3 C22_3 1_555 1_555
C24_3 C20_3 1_555 1_555
H13_2 C24_3 1_555 1_555
N10_2 C36_2 1_555 1_555
O21_2 C35_2 1_555 1_555
O22_2 C35_2 1_555 1_555
O23_2 C36_2 1_555 1_555
C35_2 C36_2 1_555 1_555
C37_2 C20_3 1_555 1_555
C38_2 C22_3 1_555 1_555
C39_2 C38_2 1_555 1_555
H20_2 C39_2 1_555 1_555
H21_2 C39_2 1_555 1_555
H22_2 C39_2 1_555 1_555
Cu6_2 N10_2 1_555 1_555
Ni3_2 O22_2 1_555 1_555
N10_2 C37_2 1_555 1_555
O21_2 Cu6_2 1_555 1_555
O23_2 Ni3_2 1_555 1_555
C37_2 C38_2 1_555 1_555
C24_3 H46_3 1_555 1_555
Cu1_3 N5_2 1_555 1_555
Cu2_2 N6_2 1_555 1_555
Cu3_2 N7_2 1_555 1_555
Ni1_2 O4_2 1_555 1_555
N5_2 C1_2 1_555 1_555
N6_2 C10_2 1_555 1_555
N7_2 C18_2 1_555 1_555
O3_2 Cu1_3 1_555 1_555
O4_2 C2_2 1_555 1_555
O5_2 Ni1_2 1_555 1_555
O6_2 Cu2_2 1_555 1_555
O7_2 Ni1_2 1_555 1_555
O8_2 Ni1_2 1_555 1_555
O9_2 Cu3_2 1_555 1_555
O10_2 Ni1_2 1_555 1_555
O11_2 Ni1_2 1_555 1_555
C1_2 O5_2 1_555 1_555
C2_2 O3_2 1_555 1_555
C3_2 N5_2 1_555 1_555
C4_2 C3_2 1_555 1_555
C5_2 C4_2 1_555 1_555
H1_2 C5_2 1_555 1_555
C6_2 C3_2 1_555 1_555
C7_2 C6_2 1_555 1_555
C8_2 C4_2 1_555 1_555
H2_2 C8_2 1_555 1_555
H3_2 C8_2 1_555 1_555
H4_2 C8_2 1_555 1_555
C9_2 O6_2 1_555 1_555
C10_2 O8_2 1_555 1_555
C11_2 N6_2 1_555 1_555
C12_2 C11_2 1_555 1_555
C13_2 C11_2 1_555 1_555
C14_2 C13_2 1_555 1_555
H5_2 C14_2 1_555 1_555
C15_2 C13_2 1_555 1_555
H6_2 C15_2 1_555 1_555
H7_2 C15_2 1_555 1_555
H8_2 C15_2 1_555 1_555
C16_2 C12_2 1_555 1_555
C17_2 O9_2 1_555 1_555
C18_2 O11_2 1_555 1_555
C19_2 N7_2 1_555 1_555
C20_4 C19_2 1_555 1_555
C21_2 C19_2 1_555 1_555
C22_4 C21_2 1_555 1_555
H9_4 C22_4 1_555 1_555
C23_2 C21_2 1_555 1_555
H10_2 C23_2 1_555 1_555
H11_2 C23_2 1_555 1_555
H12_2 C23_2 1_555 1_555
C24_4 C20_4 1_555 1_555
O12_3 Cu1_3 1_555 1_555
O13_2 Cu2_2 1_555 1_555
O14_2 Cu3_2 1_555 1_555
N8_2 C25_2 1_555 1_555
O15_2 C26_2 1_555 1_555
O16_2 C26_2 1_555 1_555
O17_2 C25_2 1_555 1_555
C25_2 C26_2 1_555 1_555
C27_2 C6_2 1_555 1_555
C28_2 C5_2 1_555 1_555
C29_2 C28_2 1_555 1_555
H14_2 C29_2 1_555 1_555
H15_2 C29_2 1_555 1_555
H16_2 C29_2 1_555 1_555
N9_2 C31_2 1_555 1_555
O18_2 C30_2 1_555 1_555
O19_2 C30_2 1_555 1_555
O20_2 C31_2 1_555 1_555
C30_2 C31_2 1_555 1_555
C32_2 C12_2 1_555 1_555
C33_2 C14_2 1_555 1_555
C34_2 C33_2 1_555 1_555
H17_2 C34_2 1_555 1_555
H18_2 C34_2 1_555 1_555
H19_2 C34_2 1_555 1_555
H23_2 C24_4 1_555 1_555
Ni3_2 O16_2 1_555 1_555
Cu4_3 N8_2 1_555 1_555
Cu5_2 N9_2 1_555 1_555
N12_2 Cu2_2 1_555 1_555
N13_2 Cu3_2 1_555 1_555
O25_2 Cu2_2 1_555 1_555
O26_2 Cu3_2 1_555 1_555
O7_2 C9_2 1_555 1_555
O10_2 C17_2 1_555 1_555
C1_2 C2_2 1_555 1_555
C9_2 C10_2 1_555 1_555
C17_2 C18_2 1_555 1_555
N8_2 C27_2 1_555 1_555
O15_2 Cu4_3 1_555 1_555
O17_2 Ni3_2 1_555 1_555
C27_2 C28_2 1_555 1_555
N9_2 C32_2 1_555 1_555
O18_2 Cu5_2 1_555 1_555
O19_2 Ni3_2 1_555 1_555
O20_2 Ni3_2 1_555 1_555
C32_2 C33_2 1_555 1_555
C7_2 H40_2 1_555 1_555
C7_2 H41_2 1_555 1_555
C7_2 H42_2 1_555 1_555
C16_2 H43_2 1_555 1_555
C16_2 H44_2 1_555 1_555
C16_2 H45_2 1_555 1_555
C24_4 H46_4 1_555 1_555
O12_4 Cu1_4 1_555 1_555
N11_2 Cu1_4 1_555 1_555
O24_2 Cu1_4 1_555 1_555
O12_4 H36_2 1_555 1_555
O12_4 H37_2 1_555 1_555
O12_5 Cu1_5 1_555 1_555
N11_3 Cu1_5 1_555 1_555
O24_3 Cu1_5 1_555 1_555
O12_5 H36_3 1_555 1_555
O12_5 H37_3 1_555 1_555
H9_5 C22_5 1_555 1_555
C24_5 C20_5 1_555 1_555
H13_3 C24_5 1_555 1_555
N10_3 C36_3 1_555 1_555
O21_3 C35_3 1_555 1_555
O22_3 C35_3 1_555 1_555
O23_3 C36_3 1_555 1_555
C35_3 C36_3 1_555 1_555
C37_3 C20_5 1_555 1_555
C38_3 C22_5 1_555 1_555
C39_3 C38_3 1_555 1_555
H20_3 C39_3 1_555 1_555
H21_3 C39_3 1_555 1_555
H22_3 C39_3 1_555 1_555
Cu6_3 N10_3 1_555 1_555
Ni3_3 O22_3 1_555 1_555
N10_3 C37_3 1_555 1_555
O21_3 Cu6_3 1_555 1_555
O23_3 Ni3_3 1_555 1_555
C37_3 C38_3 1_555 1_555
C24_5 H46_5 1_555 1_555
Cu1_6 N5_3 1_555 1_555
Cu2_3 N6_3 1_555 1_555
Cu3_3 N7_3 1_555 1_555
Ni1_3 O4_3 1_555 1_555
N5_3 C1_3 1_555 1_555
N6_3 C10_3 1_555 1_555
N7_3 C18_3 1_555 1_555
O3_3 Cu1_6 1_555 1_555
O4_3 C2_3 1_555 1_555
O5_3 Ni1_3 1_555 1_555
O6_3 Cu2_3 1_555 1_555
O7_3 Ni1_3 1_555 1_555
O8_3 Ni1_3 1_555 1_555
O9_3 Cu3_3 1_555 1_555
O10_3 Ni1_3 1_555 1_555
O11_3 Ni1_3 1_555 1_555
C1_3 O5_3 1_555 1_555
C2_3 O3_3 1_555 1_555
C3_3 N5_3 1_555 1_555
C4_3 C3_3 1_555 1_555
C5_3 C4_3 1_555 1_555
H1_3 C5_3 1_555 1_555
C6_3 C3_3 1_555 1_555
C7_3 C6_3 1_555 1_555
C8_3 C4_3 1_555 1_555
H2_3 C8_3 1_555 1_555
H3_3 C8_3 1_555 1_555
H4_3 C8_3 1_555 1_555
C9_3 O6_3 1_555 1_555
C10_3 O8_3 1_555 1_555
C11_3 N6_3 1_555 1_555
C12_3 C11_3 1_555 1_555
C13_3 C11_3 1_555 1_555
C14_3 C13_3 1_555 1_555
H5_3 C14_3 1_555 1_555
C15_3 C13_3 1_555 1_555
H6_3 C15_3 1_555 1_555
H7_3 C15_3 1_555 1_555
H8_3 C15_3 1_555 1_555
C16_3 C12_3 1_555 1_555
C17_3 O9_3 1_555 1_555
C18_3 O11_3 1_555 1_555
C19_3 N7_3 1_555 1_555
C20_6 C19_3 1_555 1_555
C21_3 C19_3 1_555 1_555
C22_6 C21_3 1_555 1_555
H9_6 C22_6 1_555 1_555
C23_3 C21_3 1_555 1_555
H10_3 C23_3 1_555 1_555
H11_3 C23_3 1_555 1_555
H12_3 C23_3 1_555 1_555
C24_6 C20_6 1_555 1_555
O12_6 Cu1_6 1_555 1_555
O13_3 Cu2_3 1_555 1_555
O14_3 Cu3_3 1_555 1_555
N8_3 C25_3 1_555 1_555
O15_3 C26_3 1_555 1_555
O16_3 C26_3 1_555 1_555
O17_3 C25_3 1_555 1_555
C25_3 C26_3 1_555 1_555
C27_3 C6_3 1_555 1_555
C28_3 C5_3 1_555 1_555
C29_3 C28_3 1_555 1_555
H14_3 C29_3 1_555 1_555
H15_3 C29_3 1_555 1_555
H16_3 C29_3 1_555 1_555
N9_3 C31_3 1_555 1_555
O18_3 C30_3 1_555 1_555
O19_3 C30_3 1_555 1_555
O20_3 C31_3 1_555 1_555
C30_3 C31_3 1_555 1_555
C32_3 C12_3 1_555 1_555
C33_3 C14_3 1_555 1_555
C34_3 C33_3 1_555 1_555
H17_3 C34_3 1_555 1_555
H18_3 C34_3 1_555 1_555
H19_3 C34_3 1_555 1_555
H23_3 C24_6 1_555 1_555
Ni3_3 O16_3 1_555 1_555
Cu4_6 N8_3 1_555 1_555
Cu5_3 N9_3 1_555 1_555
N12_3 Cu2_3 1_555 1_555
N13_3 Cu3_3 1_555 1_555
O25_3 Cu2_3 1_555 1_555
O26_3 Cu3_3 1_555 1_555
O7_3 C9_3 1_555 1_555
O10_3 C17_3 1_555 1_555
C1_3 C2_3 1_555 1_555
C9_3 C10_3 1_555 1_555
C17_3 C18_3 1_555 1_555
N8_3 C27_3 1_555 1_555
O15_3 Cu4_6 1_555 1_555
O17_3 Ni3_3 1_555 1_555
C27_3 C28_3 1_555 1_555
N9_3 C32_3 1_555 1_555
O18_3 Cu5_3 1_555 1_555
O19_3 Ni3_3 1_555 1_555
O20_3 Ni3_3 1_555 1_555
C32_3 C33_3 1_555 1_555
C7_3 H40_3 1_555 1_555
C7_3 H41_3 1_555 1_555
C7_3 H42_3 1_555 1_555
C16_3 H43_3 1_555 1_555
C16_3 H44_3 1_555 1_555
C16_3 H45_3 1_555 1_555
C24_6 H46_6 1_555 1_555
H9_7 C22_7 1_555 1_555
C24_7 C20_7 1_555 1_555
H13_4 C24_7 1_555 1_555
N10_4 C36_4 1_555 1_555
O21_4 C35_4 1_555 1_555
O22_4 C35_4 1_555 1_555
O23_4 C36_4 1_555 1_555
C35_4 C36_4 1_555 1_555
C37_4 C20_7 1_555 1_555
C38_4 C22_7 1_555 1_555
C39_4 C38_4 1_555 1_555
H20_4 C39_4 1_555 1_555
H21_4 C39_4 1_555 1_555
H22_4 C39_4 1_555 1_555
Cu6_4 N10_4 1_555 1_555
Ni3_4 O22_4 1_555 1_555
N10_4 C37_4 1_555 1_555
O21_4 Cu6_4 1_555 1_555
O23_4 Ni3_4 1_555 1_555
C37_4 C38_4 1_555 1_555
C24_7 H46_7 1_555 1_555
Cu1_7 N5_4 1_555 1_555
Cu2_4 N6_4 1_555 1_555
Cu3_4 N7_4 1_555 1_555
Ni1_4 O4_4 1_555 1_555
N5_4 C1_4 1_555 1_555
N6_4 C10_4 1_555 1_555
N7_4 C18_4 1_555 1_555
O3_4 Cu1_7 1_555 1_555
O4_4 C2_4 1_555 1_555
O5_4 Ni1_4 1_555 1_555
O6_4 Cu2_4 1_555 1_555
O7_4 Ni1_4 1_555 1_555
O8_4 Ni1_4 1_555 1_555
O9_4 Cu3_4 1_555 1_555
O10_4 Ni1_4 1_555 1_555
O11_4 Ni1_4 1_555 1_555
C1_4 O5_4 1_555 1_555
C2_4 O3_4 1_555 1_555
C3_4 N5_4 1_555 1_555
C4_4 C3_4 1_555 1_555
C5_4 C4_4 1_555 1_555
H1_4 C5_4 1_555 1_555
C6_4 C3_4 1_555 1_555
C7_4 C6_4 1_555 1_555
C8_4 C4_4 1_555 1_555
H2_4 C8_4 1_555 1_555
H3_4 C8_4 1_555 1_555
H4_4 C8_4 1_555 1_555
C9_4 O6_4 1_555 1_555
C10_4 O8_4 1_555 1_555
C11_4 N6_4 1_555 1_555
C12_4 C11_4 1_555 1_555
C13_4 C11_4 1_555 1_555
C14_4 C13_4 1_555 1_555
H5_4 C14_4 1_555 1_555
C15_4 C13_4 1_555 1_555
H6_4 C15_4 1_555 1_555
H7_4 C15_4 1_555 1_555
H8_4 C15_4 1_555 1_555
C16_4 C12_4 1_555 1_555
C17_4 O9_4 1_555 1_555
C18_4 O11_4 1_555 1_555
C19_4 N7_4 1_555 1_555
C20_8 C19_4 1_555 1_555
C21_4 C19_4 1_555 1_555
C22_8 C21_4 1_555 1_555
H9_8 C22_8 1_555 1_555
C23_4 C21_4 1_555 1_555
H10_4 C23_4 1_555 1_555
H11_4 C23_4 1_555 1_555
H12_4 C23_4 1_555 1_555
C24_8 C20_8 1_555 1_555
O12_7 Cu1_7 1_555 1_555
O13_4 Cu2_4 1_555 1_555
O14_4 Cu3_4 1_555 1_555
N8_4 C25_4 1_555 1_555
O15_4 C26_4 1_555 1_555
O16_4 C26_4 1_555 1_555
O17_4 C25_4 1_555 1_555
C25_4 C26_4 1_555 1_555
C27_4 C6_4 1_555 1_555
C28_4 C5_4 1_555 1_555
C29_4 C28_4 1_555 1_555
H14_4 C29_4 1_555 1_555
H15_4 C29_4 1_555 1_555
H16_4 C29_4 1_555 1_555
N9_4 C31_4 1_555 1_555
O18_4 C30_4 1_555 1_555
O19_4 C30_4 1_555 1_555
O20_4 C31_4 1_555 1_555
C30_4 C31_4 1_555 1_555
C32_4 C12_4 1_555 1_555
C33_4 C14_4 1_555 1_555
C34_4 C33_4 1_555 1_555
H17_4 C34_4 1_555 1_555
H18_4 C34_4 1_555 1_555
H19_4 C34_4 1_555 1_555
H23_4 C24_8 1_555 1_555
Ni3_4 O16_4 1_555 1_555
Cu4_7 N8_4 1_555 1_555
Cu5_4 N9_4 1_555 1_555
N12_4 Cu2_4 1_555 1_555
N13_4 Cu3_4 1_555 1_555
O25_4 Cu2_4 1_555 1_555
O26_4 Cu3_4 1_555 1_555
O7_4 C9_4 1_555 1_555
O10_4 C17_4 1_555 1_555
C1_4 C2_4 1_555 1_555
C9_4 C10_4 1_555 1_555
C17_4 C18_4 1_555 1_555
N8_4 C27_4 1_555 1_555
O15_4 Cu4_7 1_555 1_555
O17_4 Ni3_4 1_555 1_555
C27_4 C28_4 1_555 1_555
N9_4 C32_4 1_555 1_555
O18_4 Cu5_4 1_555 1_555
O19_4 Ni3_4 1_555 1_555
O20_4 Ni3_4 1_555 1_555
C32_4 C33_4 1_555 1_555
C7_4 H40_4 1_555 1_555
C7_4 H41_4 1_555 1_555
C7_4 H42_4 1_555 1_555
C16_4 H43_4 1_555 1_555
C16_4 H44_4 1_555 1_555
C16_4 H45_4 1_555 1_555
C24_8 H46_8 1_555 1_555
O12_8 Cu1_8 1_555 1_555
N11_4 Cu1_8 1_555 1_555
O24_4 Cu1_8 1_555 1_555
O12_8 H36_4 1_555 1_555
O12_8 H37_4 1_555 1_555
Cu4 N5_5 1_555 1_555
Cu5_2 N6_5 1_555 1_555
Cu6_3 N7_5 1_555 1_555
Ni1_5 O4_5 1_555 1_555
N5_5 C1_5 1_555 1_555
N6_5 C10_5 1_555 1_555
N7_5 C18_5 1_555 1_555
O3_5 Cu4 1_555 1_555
O4_5 C2_5 1_555 1_555
O5_5 Ni1_5 1_555 1_555
O6_5 Cu5_2 1_555 1_555
O7_5 Ni1_5 1_555 1_555
O8_5 Ni1_5 1_555 1_555
O9_5 Cu6_3 1_555 1_555
O10_5 Ni1_5 1_555 1_555
O11_5 Ni1_5 1_555 1_555
C1_5 O5_5 1_555 1_555
C2_5 O3_5 1_555 1_555
C3_5 N5_5 1_555 1_555
C4_5 C3_5 1_555 1_555
C5_5 C4_5 1_555 1_555
H1_5 C5_5 1_555 1_555
C6_5 C3_5 1_555 1_555
C7_5 C6_5 1_555 1_555
C8_5 C4_5 1_555 1_555
H2_5 C8_5 1_555 1_555
H3_5 C8_5 1_555 1_555
H4_5 C8_5 1_555 1_555
C9_5 O6_5 1_555 1_555
C10_5 O8_5 1_555 1_555
C11_5 N6_5 1_555 1_555
C12_5 C11_5 1_555 1_555
C13_5 C11_5 1_555 1_555
C14_5 C13_5 1_555 1_555
H5_5 C14_5 1_555 1_555
C15_5 C13_5 1_555 1_555
H6_5 C15_5 1_555 1_555
H7_5 C15_5 1_555 1_555
H8_5 C15_5 1_555 1_555
C16_5 C12_5 1_555 1_555
C17_5 O9_5 1_555 1_555
C18_5 O11_5 1_555 1_555
C19_5 N7_5 1_555 1_555
C20_9 C19_5 1_555 1_555
C21_5 C19_5 1_555 1_555
C22_9 C21_5 1_555 1_555
H9_9 C22_9 1_555 1_555
C23_5 C21_5 1_555 1_555
H10_5 C23_5 1_555 1_555
H11_5 C23_5 1_555 1_555
H12_5 C23_5 1_555 1_555
C24_9 C20_9 1_555 1_555
O12_9 Cu4 1_555 1_555
O13_5 Cu5_2 1_555 1_555
O14_5 Cu6_3 1_555 1_555
N11 C25_5 1_555 1_555
O24 C26_5 1_555 1_555
O16_5 C26_5 1_555 1_555
O17_5 C25_5 1_555 1_555
C25_5 C26_5 1_555 1_555
C27_5 C6_5 1_555 1_555
C28_5 C5_5 1_555 1_555
C29_5 C28_5 1_555 1_555
H14_5 C29_5 1_555 1_555
H15_5 C29_5 1_555 1_555
H16_5 C29_5 1_555 1_555
N12_2 C31_5 1_555 1_555
O25_2 C30_5 1_555 1_555
O19_5 C30_5 1_555 1_555
O20_5 C31_5 1_555 1_555
C30_5 C31_5 1_555 1_555
C32_5 C12_5 1_555 1_555
C33_5 C14_5 1_555 1_555
C34_5 C33_5 1_555 1_555
H17_5 C34_5 1_555 1_555
H18_5 C34_5 1_555 1_555
H19_5 C34_5 1_555 1_555
H23_5 C24_9 1_555 1_555
Ni2 O16_5 1_555 1_555
O27 Ni2 1_555 1_555
O28 Ni2 1_555 1_555
O7_5 C9_5 1_555 1_555
O10_5 C17_5 1_555 1_555
C1_5 C2_5 1_555 1_555
C9_5 C10_5 1_555 1_555
C17_5 C18_5 1_555 1_555
N11 C27_5 1_555 1_555
O17_5 Ni2 1_555 1_555
C27_5 C28_5 1_555 1_555
N12_2 C32_5 1_555 1_555
O19_5 Ni2 1_555 1_555
O20_5 Ni2 1_555 1_555
C32_5 C33_5 1_555 1_555
C7_5 H40_5 1_555 1_555
C7_5 H41_5 1_555 1_555
C7_5 H42_5 1_555 1_555
C16_5 H43_5 1_555 1_555
C16_5 H44_5 1_555 1_555
C16_5 H45_5 1_555 1_555
C24_9 H46_9 1_555 1_555
H9_10 C22_10 1_555 1_555
C24_10 C20_10 1_555 1_555
H13_5 C24_10 1_555 1_555
N13_3 C36_5 1_555 1_555
O26_3 C35_5 1_555 1_555
O27 C35_5 1_555 1_555
O28 C36_5 1_555 1_555
C35_5 C36_5 1_555 1_555
C37_5 C20_10 1_555 1_555
C38_5 C22_10 1_555 1_555
C39_5 C38_5 1_555 1_555
H20_5 C39_5 1_555 1_555
H21_5 C39_5 1_555 1_555
H22_5 C39_5 1_555 1_555
N13_3 C37_5 1_555 1_555
C37_5 C38_5 1_555 1_555
C24_10 H46_10 1_555 1_555
O12_10 Cu4_2 1_555 1_555
O12_10 H36_5 1_555 1_555
O12_10 H37_5 1_555 1_555
O12_11 Cu4_3 1_555 1_555
O12_11 H36_6 1_555 1_555
O12_11 H37_6 1_555 1_555
Cu4_4 N5_6 1_555 1_555
Cu5 N6_6 1_555 1_555
Cu6_4 N7_6 1_555 1_555
Ni1_6 O4_6 1_555 1_555
N5_6 C1_6 1_555 1_555
N6_6 C10_6 1_555 1_555
N7_6 C18_6 1_555 1_555
O3_6 Cu4_4 1_555 1_555
O4_6 C2_6 1_555 1_555
O5_6 Ni1_6 1_555 1_555
O6_6 Cu5 1_555 1_555
O7_6 Ni1_6 1_555 1_555
O8_6 Ni1_6 1_555 1_555
O9_6 Cu6_4 1_555 1_555
O10_6 Ni1_6 1_555 1_555
O11_6 Ni1_6 1_555 1_555
C1_6 O5_6 1_555 1_555
C2_6 O3_6 1_555 1_555
C3_6 N5_6 1_555 1_555
C4_6 C3_6 1_555 1_555
C5_6 C4_6 1_555 1_555
H1_6 C5_6 1_555 1_555
C6_6 C3_6 1_555 1_555
C7_6 C6_6 1_555 1_555
C8_6 C4_6 1_555 1_555
H2_6 C8_6 1_555 1_555
H3_6 C8_6 1_555 1_555
H4_6 C8_6 1_555 1_555
C9_6 O6_6 1_555 1_555
C10_6 O8_6 1_555 1_555
C11_6 N6_6 1_555 1_555
C12_6 C11_6 1_555 1_555
C13_6 C11_6 1_555 1_555
C14_6 C13_6 1_555 1_555
H5_6 C14_6 1_555 1_555
C15_6 C13_6 1_555 1_555
H6_6 C15_6 1_555 1_555
H7_6 C15_6 1_555 1_555
H8_6 C15_6 1_555 1_555
C16_6 C12_6 1_555 1_555
C17_6 O9_6 1_555 1_555
C18_6 O11_6 1_555 1_555
C19_6 N7_6 1_555 1_555
C20_11 C19_6 1_555 1_555
C21_6 C19_6 1_555 1_555
C22_11 C21_6 1_555 1_555
H9_11 C22_11 1_555 1_555
C23_6 C21_6 1_555 1_555
H10_6 C23_6 1_555 1_555
H11_6 C23_6 1_555 1_555
H12_6 C23_6 1_555 1_555
C24_11 C20_11 1_555 1_555
O12_12 Cu4_4 1_555 1_555
O13_6 Cu5 1_555 1_555
O14_6 Cu6_4 1_555 1_555
N11_2 C25_6 1_555 1_555
O24_2 C26_6 1_555 1_555
O16_6 C26_6 1_555 1_555
O17_6 C25_6 1_555 1_555
C25_6 C26_6 1_555 1_555
C27_6 C6_6 1_555 1_555
C28_6 C5_6 1_555 1_555
C29_6 C28_6 1_555 1_555
H14_6 C29_6 1_555 1_555
H15_6 C29_6 1_555 1_555
H16_6 C29_6 1_555 1_555
N12 C31_6 1_555 1_555
O25 C30_6 1_555 1_555
O19_6 C30_6 1_555 1_555
O20_6 C31_6 1_555 1_555
C30_6 C31_6 1_555 1_555
C32_6 C12_6 1_555 1_555
C33_6 C14_6 1_555 1_555
C34_6 C33_6 1_555 1_555
H17_6 C34_6 1_555 1_555
H18_6 C34_6 1_555 1_555
H19_6 C34_6 1_555 1_555
H23_6 C24_11 1_555 1_555
Ni2_2 O16_6 1_555 1_555
O27_2 Ni2_2 1_555 1_555
O28_2 Ni2_2 1_555 1_555
O7_6 C9_6 1_555 1_555
O10_6 C17_6 1_555 1_555
C1_6 C2_6 1_555 1_555
C9_6 C10_6 1_555 1_555
C17_6 C18_6 1_555 1_555
N11_2 C27_6 1_555 1_555
O17_6 Ni2_2 1_555 1_555
C27_6 C28_6 1_555 1_555
N12 C32_6 1_555 1_555
O19_6 Ni2_2 1_555 1_555
O20_6 Ni2_2 1_555 1_555
C32_6 C33_6 1_555 1_555
C7_6 H40_6 1_555 1_555
C7_6 H41_6 1_555 1_555
C7_6 H42_6 1_555 1_555
C16_6 H43_6 1_555 1_555
C16_6 H44_6 1_555 1_555
C16_6 H45_6 1_555 1_555
C24_11 H46_11 1_555 1_555
H9_12 C22_12 1_555 1_555
C24_12 C20_12 1_555 1_555
H13_6 C24_12 1_555 1_555
N13_4 C36_6 1_555 1_555
O26_4 C35_6 1_555 1_555
O27_2 C35_6 1_555 1_555
O28_2 C36_6 1_555 1_555
C35_6 C36_6 1_555 1_555
C37_6 C20_12 1_555 1_555
C38_6 C22_12 1_555 1_555
C39_6 C38_6 1_555 1_555
H20_6 C39_6 1_555 1_555
H21_6 C39_6 1_555 1_555
H22_6 C39_6 1_555 1_555
N13_4 C37_6 1_555 1_555
C37_6 C38_6 1_555 1_555
C24_12 H46_12 1_555 1_555
O12_13 Cu4_7 1_555 1_555
O12_13 H36_7 1_555 1_555
O12_13 H37_7 1_555 1_555
Cu4_8 N5_7 1_555 1_555
Cu5_3 N6_7 1_555 1_555
Cu6 N7_7 1_555 1_555
Ni1_7 O4_7 1_555 1_555
N5_7 C1_7 1_555 1_555
N6_7 C10_7 1_555 1_555
N7_7 C18_7 1_555 1_555
O3_7 Cu4_8 1_555 1_555
O4_7 C2_7 1_555 1_555
O5_7 Ni1_7 1_555 1_555
O6_7 Cu5_3 1_555 1_555
O7_7 Ni1_7 1_555 1_555
O8_7 Ni1_7 1_555 1_555
O9_7 Cu6 1_555 1_555
O10_7 Ni1_7 1_555 1_555
O11_7 Ni1_7 1_555 1_555
C1_7 O5_7 1_555 1_555
C2_7 O3_7 1_555 1_555
C3_7 N5_7 1_555 1_555
C4_7 C3_7 1_555 1_555
C5_7 C4_7 1_555 1_555
H1_7 C5_7 1_555 1_555
C6_7 C3_7 1_555 1_555
C7_7 C6_7 1_555 1_555
C8_7 C4_7 1_555 1_555
H2_7 C8_7 1_555 1_555
H3_7 C8_7 1_555 1_555
H4_7 C8_7 1_555 1_555
C9_7 O6_7 1_555 1_555
C10_7 O8_7 1_555 1_555
C11_7 N6_7 1_555 1_555
C12_7 C11_7 1_555 1_555
C13_7 C11_7 1_555 1_555
C14_7 C13_7 1_555 1_555
H5_7 C14_7 1_555 1_555
C15_7 C13_7 1_555 1_555
H6_7 C15_7 1_555 1_555
H7_7 C15_7 1_555 1_555
H8_7 C15_7 1_555 1_555
C16_7 C12_7 1_555 1_555
C17_7 O9_7 1_555 1_555
C18_7 O11_7 1_555 1_555
C19_7 N7_7 1_555 1_555
C20_13 C19_7 1_555 1_555
C21_7 C19_7 1_555 1_555
C22_13 C21_7 1_555 1_555
H9_13 C22_13 1_555 1_555
C23_7 C21_7 1_555 1_555
H10_7 C23_7 1_555 1_555
H11_7 C23_7 1_555 1_555
H12_7 C23_7 1_555 1_555
C24_13 C20_13 1_555 1_555
O12_14 Cu4_8 1_555 1_555
O13_7 Cu5_3 1_555 1_555
O14_7 Cu6 1_555 1_555
N11_4 C25_7 1_555 1_555
O24_4 C26_7 1_555 1_555
O16_7 C26_7 1_555 1_555
O17_7 C25_7 1_555 1_555
C25_7 C26_7 1_555 1_555
C27_7 C6_7 1_555 1_555
C28_7 C5_7 1_555 1_555
C29_7 C28_7 1_555 1_555
H14_7 C29_7 1_555 1_555
H15_7 C29_7 1_555 1_555
H16_7 C29_7 1_555 1_555
N12_3 C31_7 1_555 1_555
O25_3 C30_7 1_555 1_555
O19_7 C30_7 1_555 1_555
O20_7 C31_7 1_555 1_555
C30_7 C31_7 1_555 1_555
C32_7 C12_7 1_555 1_555
C33_7 C14_7 1_555 1_555
C34_7 C33_7 1_555 1_555
H17_7 C34_7 1_555 1_555
H18_7 C34_7 1_555 1_555
H19_7 C34_7 1_555 1_555
H23_7 C24_13 1_555 1_555
Ni2_3 O16_7 1_555 1_555
O27_3 Ni2_3 1_555 1_555
O28_3 Ni2_3 1_555 1_555
O7_7 C9_7 1_555 1_555
O10_7 C17_7 1_555 1_555
C1_7 C2_7 1_555 1_555
C9_7 C10_7 1_555 1_555
C17_7 C18_7 1_555 1_555
N11_4 C27_7 1_555 1_555
O17_7 Ni2_3 1_555 1_555
C27_7 C28_7 1_555 1_555
N12_3 C32_7 1_555 1_555
O19_7 Ni2_3 1_555 1_555
O20_7 Ni2_3 1_555 1_555
C32_7 C33_7 1_555 1_555
C7_7 H40_7 1_555 1_555
C7_7 H41_7 1_555 1_555
C7_7 H42_7 1_555 1_555
C16_7 H43_7 1_555 1_555
C16_7 H44_7 1_555 1_555
C16_7 H45_7 1_555 1_555
C24_13 H46_13 1_555 1_555
H9_14 C22_14 1_555 1_555
C24_14 C20_14 1_555 1_555
H13_7 C24_14 1_555 1_555
N13 C36_7 1_555 1_555
O26 C35_7 1_555 1_555
O27_3 C35_7 1_555 1_555
O28_3 C36_7 1_555 1_555
C35_7 C36_7 1_555 1_555
C37_7 C20_14 1_555 1_555
C38_7 C22_14 1_555 1_555
C39_7 C38_7 1_555 1_555
H20_7 C39_7 1_555 1_555
H21_7 C39_7 1_555 1_555
H22_7 C39_7 1_555 1_555
N13 C37_7 1_555 1_555
C37_7 C38_7 1_555 1_555
C24_14 H46_14 1_555 1_555
Cu4_5 N5_8 1_555 1_555
Cu5_4 N6_8 1_555 1_555
Cu6_2 N7_8 1_555 1_555
Ni1_8 O4_8 1_555 1_555
N5_8 C1_8 1_555 1_555
N6_8 C10_8 1_555 1_555
N7_8 C18_8 1_555 1_555
O3_8 Cu4_5 1_555 1_555
O4_8 C2_8 1_555 1_555
O5_8 Ni1_8 1_555 1_555
O6_8 Cu5_4 1_555 1_555
O7_8 Ni1_8 1_555 1_555
O8_8 Ni1_8 1_555 1_555
O9_8 Cu6_2 1_555 1_555
O10_8 Ni1_8 1_555 1_555
O11_8 Ni1_8 1_555 1_555
C1_8 O5_8 1_555 1_555
C2_8 O3_8 1_555 1_555
C3_8 N5_8 1_555 1_555
C4_8 C3_8 1_555 1_555
C5_8 C4_8 1_555 1_555
H1_8 C5_8 1_555 1_555
C6_8 C3_8 1_555 1_555
C7_8 C6_8 1_555 1_555
C8_8 C4_8 1_555 1_555
H2_8 C8_8 1_555 1_555
H3_8 C8_8 1_555 1_555
H4_8 C8_8 1_555 1_555
C9_8 O6_8 1_555 1_555
C10_8 O8_8 1_555 1_555
C11_8 N6_8 1_555 1_555
C12_8 C11_8 1_555 1_555
C13_8 C11_8 1_555 1_555
C14_8 C13_8 1_555 1_555
H5_8 C14_8 1_555 1_555
C15_8 C13_8 1_555 1_555
H6_8 C15_8 1_555 1_555
H7_8 C15_8 1_555 1_555
H8_8 C15_8 1_555 1_555
C16_8 C12_8 1_555 1_555
C17_8 O9_8 1_555 1_555
C18_8 O11_8 1_555 1_555
C19_8 N7_8 1_555 1_555
C20_15 C19_8 1_555 1_555
C21_8 C19_8 1_555 1_555
C22_15 C21_8 1_555 1_555
H9_15 C22_15 1_555 1_555
C23_8 C21_8 1_555 1_555
H10_8 C23_8 1_555 1_555
H11_8 C23_8 1_555 1_555
H12_8 C23_8 1_555 1_555
C24_15 C20_15 1_555 1_555
O12_15 Cu4_5 1_555 1_555
O13_8 Cu5_4 1_555 1_555
O14_8 Cu6_2 1_555 1_555
N11_3 C25_8 1_555 1_555
O24_3 C26_8 1_555 1_555
O16_8 C26_8 1_555 1_555
O17_8 C25_8 1_555 1_555
C25_8 C26_8 1_555 1_555
C27_8 C6_8 1_555 1_555
C28_8 C5_8 1_555 1_555
C29_8 C28_8 1_555 1_555
H14_8 C29_8 1_555 1_555
H15_8 C29_8 1_555 1_555
H16_8 C29_8 1_555 1_555
N12_4 C31_8 1_555 1_555
O25_4 C30_8 1_555 1_555
O19_8 C30_8 1_555 1_555
O20_8 C31_8 1_555 1_555
C30_8 C31_8 1_555 1_555
C32_8 C12_8 1_555 1_555
C33_8 C14_8 1_555 1_555
C34_8 C33_8 1_555 1_555
H17_8 C34_8 1_555 1_555
H18_8 C34_8 1_555 1_555
H19_8 C34_8 1_555 1_555
H23_8 C24_15 1_555 1_555
Ni2_4 O16_8 1_555 1_555
O27_4 Ni2_4 1_555 1_555
O28_4 Ni2_4 1_555 1_555
O7_8 C9_8 1_555 1_555
O10_8 C17_8 1_555 1_555
C1_8 C2_8 1_555 1_555
C9_8 C10_8 1_555 1_555
C17_8 C18_8 1_555 1_555
N11_3 C27_8 1_555 1_555
O17_8 Ni2_4 1_555 1_555
C27_8 C28_8 1_555 1_555
N12_4 C32_8 1_555 1_555
O19_8 Ni2_4 1_555 1_555
O20_8 Ni2_4 1_555 1_555
C32_8 C33_8 1_555 1_555
C7_8 H40_8 1_555 1_555
C7_8 H41_8 1_555 1_555
C7_8 H42_8 1_555 1_555
C16_8 H43_8 1_555 1_555
C16_8 H44_8 1_555 1_555
C16_8 H45_8 1_555 1_555
C24_15 H46_15 1_555 1_555
H9_16 C22_16 1_555 1_555
C24_16 C20_16 1_555 1_555
H13_8 C24_16 1_555 1_555
N13_2 C36_8 1_555 1_555
O26_2 C35_8 1_555 1_555
O27_4 C35_8 1_555 1_555
O28_4 C36_8 1_555 1_555
C35_8 C36_8 1_555 1_555
C37_8 C20_16 1_555 1_555
C38_8 C22_16 1_555 1_555
C39_8 C38_8 1_555 1_555
H20_8 C39_8 1_555 1_555
H21_8 C39_8 1_555 1_555
H22_8 C39_8 1_555 1_555
N13_2 C37_8 1_555 1_555
C37_8 C38_8 1_555 1_555
C24_16 H46_16 1_555 1_555
O12_16 Cu4_6 1_555 1_555
O12_16 H36_8 1_555 1_555
O12_16 H37_8 1_555 1_555
C7_2 H40_9 1_555 1_555
C7_2 H41_9 1_555 1_555
C7_2 H42_9 1_555 1_555
C16_2 H43_9 1_555 1_555
C16_2 H44_9 1_555 1_555
C16_2 H45_9 1_555 1_555
O12_12 H36_9 1_555 1_555
O12_12 H37_9 1_555 1_555
O12_9 H36_10 1_555 1_555
O12_9 H37_10 1_555 1_555
C7 H40_10 1_555 1_555
C7 H41_10 1_555 1_555
C7 H42_10 1_555 1_555
C16 H43_10 1_555 1_555
C16 H44_10 1_555 1_555
C16 H45_10 1_555 1_555
C7_4 H40_11 1_555 1_555
C7_4 H41_11 1_555 1_555
C7_4 H42_11 1_555 1_555
C16_4 H43_11 1_555 1_555
C16_4 H44_11 1_555 1_555
C16_4 H45_11 1_555 1_555
O12_14 H36_11 1_555 1_555
O12_14 H37_11 1_555 1_555
O12_15 H36_12 1_555 1_555
O12_15 H37_12 1_555 1_555
C7_3 H40_12 1_555 1_555
C7_3 H41_12 1_555 1_555
C7_3 H42_12 1_555 1_555
C16_3 H43_12 1_555 1_555
C16_3 H44_12 1_555 1_555
C16_3 H45_12 1_555 1_555
O12_3 H36_13 1_555 1_555
O12_3 H37_13 1_555 1_555
C7_6 H40_13 1_555 1_555
C7_6 H41_13 1_555 1_555
C7_6 H42_13 1_555 1_555
C16_6 H43_13 1_555 1_555
C16_6 H44_13 1_555 1_555
C16_6 H45_13 1_555 1_555
C7_5 H40_14 1_555 1_555
C7_5 H41_14 1_555 1_555
C7_5 H42_14 1_555 1_555
C16_5 H43_14 1_555 1_555
C16_5 H44_14 1_555 1_555
C16_5 H45_14 1_555 1_555
O12_2 H36_14 1_555 1_555
O12_2 H37_14 1_555 1_555
C7_8 H40_15 1_555 1_555
C7_8 H41_15 1_555 1_555
C7_8 H42_15 1_555 1_555
C16_8 H43_15 1_555 1_555
C16_8 H44_15 1_555 1_555
C16_8 H45_15 1_555 1_555
O12_6 H36_15 1_555 1_555
O12_6 H37_15 1_555 1_555
O12_7 H36_16 1_555 1_555
O12_7 H37_16 1_555 1_555
C7_7 H40_16 1_555 1_555
C7_7 H41_16 1_555 1_555
C7_7 H42_16 1_555 1_555
C16_7 H43_16 1_555 1_555
C16_7 H44_16 1_555 1_555
C16_7 H45_16 1_555 1_555

#END
