
###############################################################################
#
# This file contains modified crystal structure data generated from the
# MOF subset of the Cambridge Structural Database (CSD) v543 
# hosted by the Cambridge Crystallographic Data Centre (CCDC).
#
# This work is licensed under the Creative Commons
# Attribution-NonCommercial-ShareAlike 4.0 International License.
# To view a copy of this license, visit
# http://creativecommons.org/licenses/by-nc-sa/4.0/
# or send a letter to
# Creative Commons, PO Box 1866, Mountain View, CA 94042, USA.
#
# CIF created using the CSD Python API on 29 September 2022
# The structure has been converted into the P1 space group
# The structure has a 3D framework
# The original CSD entry TOGGOO is in the tetragonal crystal system
# The framework has been calculated to contain at least 10.0% void space
# The void calculation uses a probe of radius 1.32A, grid spacing 0.4
# The framework is charged, counterions have been retained in the structure
# H atom positions have been added when not included in the experimental data
# Generated hydrogen atom positions removed from atoms on special positions
#
###############################################################################

data_TOGGOO
_chemical_formula_moiety         '(C360 H568 Cu32 N48 Ni16 O176 20-)n'
_symmetry_cell_setting           triclinic
_symmetry_space_group_name_H-M   'P 1'
_symmetry_Int_Tables_number      1
_space_group_name_Hall           'P 1'
loop_
_symmetry_equiv_pos_site_id
_symmetry_equiv_pos_as_xyz
1 x,y,z
_cell_length_a                   35.258(10)
_cell_length_b                   35.258(10)
_cell_length_c                   15.119(4)
_cell_angle_alpha                90
_cell_angle_beta                 90
_cell_angle_gamma                90
_cell_volume                     18794.8
loop_
_atom_site_label
_atom_site_type_symbol
_atom_site_fract_x
_atom_site_fract_y
_atom_site_fract_z
Cu1 Cu 0.25892(5) 0.25892(5) 0.27152(13)
Cu2 Cu 0.16811(6) 0.500000 0.22463(12)
Cu3 Cu -0.000000 0.34941(7) 0.23220(13)
Ni1 Ni 0.14752(4) 0.35391(5) 0.25096(10)
N1 N 0.2381(3) 0.3008(2) 0.3409(6)
N2 N 0.1834(3) 0.4537(3) 0.1595(6)
N3 N 0.0431(3) 0.3645(3) 0.1589(6)
O1 O 0.1071(2) 0.3626(3) 0.1645(5)
O2 O 0.1026(2) 0.3280(2) 0.3167(5)
O3 O 0.0382(2) 0.3270(2) 0.3061(5)
O4 O 0.1816(2) 0.3915(3) 0.1805(5)
O5 O 0.13501(19) 0.4026(2) 0.3133(5)
O6 O 0.1419(2) 0.4642(3) 0.2996(5)
O7 O 0.1875(2) 0.3404(2) 0.3373(4)
O8 O 0.1663(2) 0.3065(3) 0.1900(5)
O9 O 0.2157(2) 0.2682(3) 0.1976(5)
C1 C 0.0739(4) 0.3556(4) 0.1928(8)
C2 C 0.0673(4) 0.3332(4) 0.2803(8)
C3 C 0.2073(4) 0.3141(4) 0.3078(8)
C4 C 0.1979(4) 0.2951(4) 0.2228(8)
C5 C 0.1732(4) 0.4250(4) 0.1992(7)
C6 C 0.1481(4) 0.4325(5) 0.2725(9)
C7 C 0.2500(3) 0.3143(4) 0.4218(7)
C8 C 0.2754(5) 0.3429(5) 0.4206(9)
C9 C 0.2913(7) 0.3627(8) 0.500000
C10 C 0.2354(4) 0.3037(4) 0.500000
C11 C 0.2052(6) 0.2765(7) 0.500000
C12 C 0.2891(4) 0.3640(5) 0.3334(9)
C13 C 0.2047(3) 0.4511(4) 0.0798(6)
C14 C 0.2418(3) 0.4504(4) 0.0802(7)
C15 C 0.2612(5) 0.4484(6) 0.000000
C16 C 0.1846(4) 0.4515(6) 0.000000
C17 C 0.1388(4) 0.4506(6) 0.000000
C18 C 0.2663(3) 0.4488(4) 0.1660(8)
C19 C 0.0448(3) 0.3855(4) 0.0801(7)
C20 C 0.0471(3) 0.4221(4) 0.0812(7)
C21 C 0.0485(5) 0.4416(4) 0.000000
C22 C 0.0447(5) 0.3622(4) 0.000000
C23 C 0.0456(6) 0.3187(5) 0.000000
C24 C 0.0500(5) 0.4429(4) 0.1639(11)
O10 O 0.2965(4) 0.2965(4) 0.1483(14)
O11 O 0.2181(6) 0.500000 0.3422(15)
O12 O -0.000000 0.3963(4) 0.3386(9)
N4 N 0.2381(3) 0.3008(2) 0.6591(6)
O13 O 0.1875(2) 0.3404(2) 0.6627(4)
O14 O 0.1663(2) 0.3065(3) 0.8100(5)
O15 O 0.2157(2) 0.2682(3) 0.8024(5)
C25 C 0.2073(4) 0.3141(4) 0.6922(8)
C26 C 0.1979(4) 0.2951(4) 0.7772(8)
C27 C 0.2500(3) 0.3143(4) 0.5782(7)
C28 C 0.2754(5) 0.3429(5) 0.5794(9)
C29 C 0.2891(4) 0.3640(5) 0.6666(9)
Ni2 Ni 0.14752(4) 0.35391(5) 0.74904(10)
Cu4 Cu 0.25892(5) 0.25892(5) 0.72848(13)
N7 N 0.3008(2) 0.2381(3) 0.3409(6)
N8 N 0.1834(3) 0.5463(3) 0.1595(6)
O22 O 0.1071(2) 0.3626(3) 0.8355(5)
O23 O 0.1026(2) 0.3280(2) 0.6833(5)
O25 O 0.1816(2) 0.3915(3) 0.8195(5)
O26 O 0.13501(19) 0.4026(2) 0.6867(5)
O27 O 0.1419(2) 0.5358(3) 0.2996(5)
O28 O 0.2682(3) 0.2157(2) 0.1976(5)
H1 H 0.0208498 0.30789 0.034946
H3 H 0.0712694 0.308933 0.0329534
H4 H 0.128018 0.475267 0.0353111
H6 H 0.129008 0.424853 0.0325798
H7 H 0.259411 0.423202 0.202966
H8 H 0.296242 0.448474 0.148335
H9 H 0.260355 0.473606 0.206612
H10 H 0.0507118 0.472407 2.22045e-16
H11 H 0.291924 0.445233 2.22045e-16
H12 H 0.264811 0.376979 0.300788
H13 H 0.309595 0.385875 0.35076
H14 H 0.302284 0.343607 0.28889
H15 H 0.0754228 0.433993 0.199139
H16 H 0.0516166 0.473171 0.150091
H17 H 0.0251339 0.437124 0.204446
H22 H 0.310639 0.386783 0.5
H25 H 0.21495 0.250291 0.469417
H26 H 0.196451 0.27083 0.567801
H27 H 0.181249 0.287709 0.462782
H31 H 0.279191 0.39325 0.665512
H32 H 0.277542 0.349608 0.724352
H33 H 0.319955 0.363602 0.669698
C15_2 C 0.2612(5) 0.4484(6) 1.000000
C16_2 C 0.1846(4) 0.4515(6) 1.000000
C17_2 C 0.1388(4) 0.4506(6) 1.000000
C21_2 C 0.0485(5) 0.4416(4) 1.000000
C22_2 C 0.0447(5) 0.3622(4) 1.000000
C23_2 C 0.0456(6) 0.3187(5) 1.000000
N5 N 0.1834(3) 0.4537(3) 0.8405(6)
O18 O 0.1419(2) 0.4642(3) 0.7004(5)
C30 C 0.1732(4) 0.4250(4) 0.8008(7)
C31 C 0.1481(4) 0.4325(5) 0.7275(9)
C32 C 0.2047(3) 0.4511(4) 0.9202(6)
C33 C 0.2418(3) 0.4504(4) 0.9198(7)
C34 C 0.2663(3) 0.4488(4) 0.8340(8)
N6 N 0.0431(3) 0.3645(3) 0.8411(6)
O21 O 0.0382(2) 0.3270(2) 0.6939(5)
C35 C 0.0739(4) 0.3556(4) 0.8072(8)
C36 C 0.0673(4) 0.3332(4) 0.7197(8)
C37 C 0.0448(3) 0.3855(4) 0.9199(7)
C38 C 0.0471(3) 0.4221(4) 0.9188(7)
C39 C 0.0500(5) 0.4429(4) 0.8361(11)
Cu5 Cu 0.16811(6) 0.500000 0.77537(12)
Cu6 Cu -0.000000 0.34941(7) 0.76780(13)
H2 H 0.0453198 0.308396 0.932101
H5 H 0.128493 0.451074 0.932109
H10_2 H 0.0507118 0.472407 1
H11_2 H 0.291924 0.445233 1
H28 H 0.281989 0.422206 0.832196
H29 H 0.247877 0.450608 0.776342
H30 H 0.286142 0.472469 0.833549
H34 H 0.0769807 0.457904 0.833864
H35 H 0.0483572 0.423146 0.780862
H36 H 0.0268354 0.463239 0.831598
Cu3_2 Cu 1.000000 0.34941(7) 0.23220(13)
O12_2 O 1.000000 0.3963(4) 0.3386(9)
N9 N 0.9569(3) 0.3645(3) 0.1589(6)
O24 O 0.9618(2) 0.3270(2) 0.3061(5)
H18 H 0.996542 0.421388 0.309865
H19 H 0.978929 0.39176 0.380874
Cu6_2 Cu 1.000000 0.34941(7) 0.76780(13)
Cu3_3 Cu 0.000000 0.65059(7) 0.23220(13)
O12_3 O 0.000000 0.6037(4) 0.3386(9)
N9_2 N 0.0431(3) 0.6355(3) 0.1589(6)
O24_2 O 0.0382(2) 0.6730(2) 0.3061(5)
H18_2 H 0.00345778 0.578612 0.309865
H19_2 H 0.021071 0.60824 0.380874
Cu6_3 Cu -0.000000 0.65059(7) 0.76780(13)
Cu1_2 Cu 0.74108(5) 0.74108(5) 0.27152(13)
Cu2_2 Cu 0.83189(6) 0.500000 0.22463(12)
Cu3_4 Cu 1.000000 0.65059(7) 0.23220(13)
Ni1_2 Ni 0.85248(4) 0.64609(5) 0.25096(10)
N1_2 N 0.7619(3) 0.6992(2) 0.3409(6)
N2_2 N 0.8166(3) 0.5463(3) 0.1595(6)
N3_2 N 0.9569(3) 0.6355(3) 0.1589(6)
O1_2 O 0.8929(2) 0.6374(3) 0.1645(5)
O2_2 O 0.8974(2) 0.6720(2) 0.3167(5)
O3_2 O 0.9618(2) 0.6730(2) 0.3061(5)
O4_2 O 0.8184(2) 0.6085(3) 0.1805(5)
O5_2 O 0.86499(19) 0.5974(2) 0.3133(5)
O6_2 O 0.8581(2) 0.5358(3) 0.2996(5)
O7_2 O 0.8125(2) 0.6596(2) 0.3373(4)
O8_2 O 0.8337(2) 0.6935(3) 0.1900(5)
O9_2 O 0.7843(2) 0.7318(3) 0.1976(5)
C1_2 C 0.9261(4) 0.6444(4) 0.1928(8)
C2_2 C 0.9327(4) 0.6668(4) 0.2803(8)
C3_2 C 0.7927(4) 0.6859(4) 0.3078(8)
C4_2 C 0.8021(4) 0.7049(4) 0.2228(8)
C5_2 C 0.8268(4) 0.5750(4) 0.1992(7)
C6_2 C 0.8519(4) 0.5675(5) 0.2725(9)
C7_2 C 0.7500(3) 0.6857(4) 0.4218(7)
C8_2 C 0.7246(5) 0.6571(5) 0.4206(9)
C9_2 C 0.7087(7) 0.6373(8) 0.500000
C10_2 C 0.7646(4) 0.6963(4) 0.500000
C11_2 C 0.7948(6) 0.7235(7) 0.500000
C12_2 C 0.7109(4) 0.6360(5) 0.3334(9)
C13_2 C 0.7953(3) 0.5489(4) 0.0798(6)
C14_2 C 0.7582(3) 0.5496(4) 0.0802(7)
C15_3 C 0.7388(5) 0.5516(6) 0.000000
C16_3 C 0.8154(4) 0.5485(6) 0.000000
C17_3 C 0.8612(4) 0.5494(6) 0.000000
C18_2 C 0.7337(3) 0.5512(4) 0.1660(8)
C19_2 C 0.9552(3) 0.6145(4) 0.0801(7)
C20_2 C 0.9529(3) 0.5779(4) 0.0812(7)
C21_3 C 0.9515(5) 0.5584(4) 0.000000
C22_3 C 0.9553(5) 0.6378(4) 0.000000
C23_3 C 0.9544(6) 0.6813(5) 0.000000
C24_2 C 0.9500(5) 0.5571(4) 0.1639(11)
O10_2 O 0.7035(4) 0.7035(4) 0.1483(14)
O11_2 O 0.7819(6) 0.500000 0.3422(15)
O12_4 O 1.000000 0.6037(4) 0.3386(9)
N4_2 N 0.7619(3) 0.6992(2) 0.6591(6)
O13_2 O 0.8125(2) 0.6596(2) 0.6627(4)
O14_2 O 0.8337(2) 0.6935(3) 0.8100(5)
O15_2 O 0.7843(2) 0.7318(3) 0.8024(5)
C25_2 C 0.7927(4) 0.6859(4) 0.6922(8)
C26_2 C 0.8021(4) 0.7049(4) 0.7772(8)
C27_2 C 0.7500(3) 0.6857(4) 0.5782(7)
C28_2 C 0.7246(5) 0.6571(5) 0.5794(9)
C29_2 C 0.7109(4) 0.6360(5) 0.6666(9)
Ni2_2 Ni 0.85248(4) 0.64609(5) 0.74904(10)
Cu4_2 Cu 0.74108(5) 0.74108(5) 0.72848(13)
N7_2 N 0.6992(2) 0.7619(3) 0.3409(6)
N8_2 N 0.8166(3) 0.4537(3) 0.1595(6)
O22_2 O 0.8929(2) 0.6374(3) 0.8355(5)
O23_2 O 0.8974(2) 0.6720(2) 0.6833(5)
O25_2 O 0.8184(2) 0.6085(3) 0.8195(5)
O26_2 O 0.86499(19) 0.5974(2) 0.6867(5)
O27_2 O 0.8581(2) 0.4642(3) 0.2996(5)
O28_2 O 0.7318(3) 0.7843(2) 0.1976(5)
H1_2 H 0.97915 0.69211 0.034946
H3_2 H 0.928731 0.691067 0.0329534
H4_2 H 0.871982 0.524733 0.0353111
H6_2 H 0.870992 0.575147 0.0325798
H7_2 H 0.740589 0.576798 0.202966
H8_2 H 0.703758 0.551526 0.148335
H9_2 H 0.739645 0.526394 0.206612
H10_3 H 0.949288 0.527593 2.22045e-16
H11_3 H 0.708076 0.554767 2.22045e-16
H12_2 H 0.735189 0.623021 0.300788
H13_2 H 0.690405 0.614125 0.35076
H14_2 H 0.697716 0.656393 0.28889
H15_2 H 0.924577 0.566007 0.199139
H16_2 H 0.948383 0.526829 0.150091
H17_2 H 0.974866 0.562876 0.204446
H22_2 H 0.689361 0.613217 0.5
H25_2 H 0.78505 0.749709 0.469417
H26_2 H 0.803549 0.72917 0.567801
H27_2 H 0.818751 0.712291 0.462782
H31_2 H 0.720809 0.60675 0.665512
H32_2 H 0.722458 0.650392 0.724352
H33_2 H 0.680045 0.636398 0.669698
C15_4 C 0.7388(5) 0.5516(6) 1.000000
C16_4 C 0.8154(4) 0.5485(6) 1.000000
C17_4 C 0.8612(4) 0.5494(6) 1.000000
C21_4 C 0.9515(5) 0.5584(4) 1.000000
C22_4 C 0.9553(5) 0.6378(4) 1.000000
C23_4 C 0.9544(6) 0.6813(5) 1.000000
N5_2 N 0.8166(3) 0.5463(3) 0.8405(6)
O18_2 O 0.8581(2) 0.5358(3) 0.7004(5)
C30_2 C 0.8268(4) 0.5750(4) 0.8008(7)
C31_2 C 0.8519(4) 0.5675(5) 0.7275(9)
C32_2 C 0.7953(3) 0.5489(4) 0.9202(6)
C33_2 C 0.7582(3) 0.5496(4) 0.9198(7)
C34_2 C 0.7337(3) 0.5512(4) 0.8340(8)
N6_2 N 0.9569(3) 0.6355(3) 0.8411(6)
O21_2 O 0.9618(2) 0.6730(2) 0.6939(5)
C35_2 C 0.9261(4) 0.6444(4) 0.8072(8)
C36_2 C 0.9327(4) 0.6668(4) 0.7197(8)
C37_2 C 0.9552(3) 0.6145(4) 0.9199(7)
C38_2 C 0.9529(3) 0.5779(4) 0.9188(7)
C39_2 C 0.9500(5) 0.5571(4) 0.8361(11)
Cu5_2 Cu 0.83189(6) 0.500000 0.77537(12)
Cu6_4 Cu 1.000000 0.65059(7) 0.76780(13)
H2_2 H 0.95468 0.691604 0.932101
H5_2 H 0.871507 0.548926 0.932109
H10_4 H 0.949288 0.527593 1
H11_4 H 0.708076 0.554767 1
H28_2 H 0.718011 0.577794 0.832196
H29_2 H 0.752123 0.549392 0.776342
H30_2 H 0.713858 0.527531 0.833549
H34_2 H 0.923019 0.542096 0.833864
H35_2 H 0.951643 0.576854 0.780862
H36_2 H 0.973165 0.536761 0.831598
Cu1_3 Cu 0.74108(5) 0.25892(5) 0.27152(13)
Cu2_3 Cu 0.500000 0.16811(6) 0.22463(12)
Cu3_5 Cu 0.65059(7) -0.000000 0.23220(13)
Ni1_3 Ni 0.64609(5) 0.14752(4) 0.25096(10)
N1_3 N 0.6992(2) 0.2381(3) 0.3409(6)
N2_3 N 0.5463(3) 0.1834(3) 0.1595(6)
N3_3 N 0.6355(3) 0.0431(3) 0.1589(6)
O1_3 O 0.6374(3) 0.1071(2) 0.1645(5)
O2_3 O 0.6720(2) 0.1026(2) 0.3167(5)
O3_3 O 0.6730(2) 0.0382(2) 0.3061(5)
O4_3 O 0.6085(3) 0.1816(2) 0.1805(5)
O5_3 O 0.5974(2) 0.13501(19) 0.3133(5)
O6_3 O 0.5358(3) 0.1419(2) 0.2996(5)
O7_3 O 0.6596(2) 0.1875(2) 0.3373(4)
O8_3 O 0.6935(3) 0.1663(2) 0.1900(5)
O9_3 O 0.7318(3) 0.2157(2) 0.1976(5)
C1_3 C 0.6444(4) 0.0739(4) 0.1928(8)
C2_3 C 0.6668(4) 0.0673(4) 0.2803(8)
C3_3 C 0.6859(4) 0.2073(4) 0.3078(8)
C4_3 C 0.7049(4) 0.1979(4) 0.2228(8)
C5_3 C 0.5750(4) 0.1732(4) 0.1992(7)
C6_3 C 0.5675(5) 0.1481(4) 0.2725(9)
C7_3 C 0.6857(4) 0.2500(3) 0.4218(7)
C8_3 C 0.6571(5) 0.2754(5) 0.4206(9)
C9_3 C 0.6373(8) 0.2913(7) 0.500000
C10_3 C 0.6963(4) 0.2354(4) 0.500000
C11_3 C 0.7235(7) 0.2052(6) 0.500000
C12_3 C 0.6360(5) 0.2891(4) 0.3334(9)
C13_3 C 0.5489(4) 0.2047(3) 0.0798(6)
C14_3 C 0.5496(4) 0.2418(3) 0.0802(7)
C15_5 C 0.5516(6) 0.2612(5) 0.000000
C16_5 C 0.5485(6) 0.1846(4) 0.000000
C17_5 C 0.5494(6) 0.1388(4) 0.000000
C18_3 C 0.5512(4) 0.2663(3) 0.1660(8)
C19_3 C 0.6145(4) 0.0448(3) 0.0801(7)
C20_3 C 0.5779(4) 0.0471(3) 0.0812(7)
C21_5 C 0.5584(4) 0.0485(5) 0.000000
C22_5 C 0.6378(4) 0.0447(5) 0.000000
C23_5 C 0.6813(5) 0.0456(6) 0.000000
C24_3 C 0.5571(4) 0.0500(5) 0.1639(11)
O10_3 O 0.7035(4) 0.2965(4) 0.1483(14)
O11_3 O 0.500000 0.2181(6) 0.3422(15)
O12_5 O 0.6037(4) -0.000000 0.3386(9)
N4_3 N 0.6992(2) 0.2381(3) 0.6591(6)
O13_3 O 0.6596(2) 0.1875(2) 0.6627(4)
O14_3 O 0.6935(3) 0.1663(2) 0.8100(5)
O15_3 O 0.7318(3) 0.2157(2) 0.8024(5)
C25_3 C 0.6859(4) 0.2073(4) 0.6922(8)
C26_3 C 0.7049(4) 0.1979(4) 0.7772(8)
C27_3 C 0.6857(4) 0.2500(3) 0.5782(7)
C28_3 C 0.6571(5) 0.2754(5) 0.5794(9)
C29_3 C 0.6360(5) 0.2891(4) 0.6666(9)
Ni2_3 Ni 0.64609(5) 0.14752(4) 0.74904(10)
Cu4_3 Cu 0.74108(5) 0.25892(5) 0.72848(13)
N7_3 N 0.7619(3) 0.3008(2) 0.3409(6)
N8_3 N 0.4537(3) 0.1834(3) 0.1595(6)
O22_3 O 0.6374(3) 0.1071(2) 0.8355(5)
O23_3 O 0.6720(2) 0.1026(2) 0.6833(5)
O25_3 O 0.6085(3) 0.1816(2) 0.8195(5)
O26_3 O 0.5974(2) 0.13501(19) 0.6867(5)
O27_3 O 0.4642(3) 0.1419(2) 0.2996(5)
O28_3 O 0.7843(2) 0.2682(3) 0.1976(5)
H1_3 H 0.69211 0.0208498 0.034946
H3_3 H 0.691067 0.0712694 0.0329534
H4_3 H 0.524733 0.128018 0.0353111
H6_3 H 0.575147 0.129008 0.0325798
H7_3 H 0.576798 0.259411 0.202966
H8_3 H 0.551526 0.296242 0.148335
H9_3 H 0.526394 0.260355 0.206612
H10_5 H 0.527593 0.0507118 2.22045e-16
H11_5 H 0.554767 0.291924 2.22045e-16
H12_3 H 0.623021 0.264811 0.300788
H13_3 H 0.614125 0.309595 0.35076
H14_3 H 0.656393 0.302284 0.28889
H15_3 H 0.566007 0.0754228 0.199139
H16_3 H 0.526829 0.0516166 0.150091
H17_3 H 0.562876 0.0251339 0.204446
H22_3 H 0.613217 0.310639 0.5
H25_3 H 0.749709 0.21495 0.469417
H26_3 H 0.72917 0.196451 0.567801
H27_3 H 0.712291 0.181249 0.462782
H31_3 H 0.60675 0.279191 0.665512
H32_3 H 0.650392 0.277542 0.724352
H33_3 H 0.636398 0.319955 0.669698
C15_6 C 0.5516(6) 0.2612(5) 1.000000
C16_6 C 0.5485(6) 0.1846(4) 1.000000
C17_6 C 0.5494(6) 0.1388(4) 1.000000
C21_6 C 0.5584(4) 0.0485(5) 1.000000
C22_6 C 0.6378(4) 0.0447(5) 1.000000
C23_6 C 0.6813(5) 0.0456(6) 1.000000
N5_3 N 0.5463(3) 0.1834(3) 0.8405(6)
O18_3 O 0.5358(3) 0.1419(2) 0.7004(5)
C30_3 C 0.5750(4) 0.1732(4) 0.8008(7)
C31_3 C 0.5675(5) 0.1481(4) 0.7275(9)
C32_3 C 0.5489(4) 0.2047(3) 0.9202(6)
C33_3 C 0.5496(4) 0.2418(3) 0.9198(7)
C34_3 C 0.5512(4) 0.2663(3) 0.8340(8)
N6_3 N 0.6355(3) 0.0431(3) 0.8411(6)
O21_3 O 0.6730(2) 0.0382(2) 0.6939(5)
C35_3 C 0.6444(4) 0.0739(4) 0.8072(8)
C36_3 C 0.6668(4) 0.0673(4) 0.7197(8)
C37_3 C 0.6145(4) 0.0448(3) 0.9199(7)
C38_3 C 0.5779(4) 0.0471(3) 0.9188(7)
C39_3 C 0.5571(4) 0.0500(5) 0.8361(11)
Cu5_3 Cu 0.500000 0.16811(6) 0.77537(12)
Cu6_5 Cu 0.65059(7) -0.000000 0.76780(13)
H2_3 H 0.691604 0.0453198 0.932101
H5_3 H 0.548926 0.128493 0.932109
H10_6 H 0.527593 0.0507118 1
H11_6 H 0.554767 0.291924 1
H28_3 H 0.577794 0.281989 0.832196
H29_3 H 0.549392 0.247877 0.776342
H30_3 H 0.527531 0.286142 0.833549
H34_3 H 0.542096 0.0769807 0.833864
H35_3 H 0.576854 0.0483572 0.780862
H36_3 H 0.536761 0.0268354 0.831598
Cu3_6 Cu 0.65059(7) 1.000000 0.23220(13)
O12_6 O 0.6037(4) 1.000000 0.3386(9)
N9_3 N 0.6355(3) 0.9569(3) 0.1589(6)
O24_3 O 0.6730(2) 0.9618(2) 0.3061(5)
H18_3 H 0.578612 0.996542 0.309865
H19_3 H 0.60824 0.978929 0.380874
Cu6_6 Cu 0.65059(7) 1.000000 0.76780(13)
Cu3_7 Cu 0.34941(7) -0.000000 0.23220(13)
O12_7 O 0.3963(4) 0.000000 0.3386(9)
N9_4 N 0.3645(3) 0.0431(3) 0.1589(6)
O24_4 O 0.3270(2) 0.0382(2) 0.3061(5)
H18_4 H 0.421388 0.00345778 0.309865
H19_4 H 0.39176 0.021071 0.380874
Cu6_7 Cu 0.34941(7) 0.000000 0.76780(13)
Cu1_4 Cu 0.25892(5) 0.74108(5) 0.27152(13)
Cu2_4 Cu 0.500000 0.83189(6) 0.22463(12)
Cu3_8 Cu 0.34941(7) 1.000000 0.23220(13)
Ni1_4 Ni 0.35391(5) 0.85248(4) 0.25096(10)
N1_4 N 0.3008(2) 0.7619(3) 0.3409(6)
N2_4 N 0.4537(3) 0.8166(3) 0.1595(6)
N3_4 N 0.3645(3) 0.9569(3) 0.1589(6)
O1_4 O 0.3626(3) 0.8929(2) 0.1645(5)
O2_4 O 0.3280(2) 0.8974(2) 0.3167(5)
O3_4 O 0.3270(2) 0.9618(2) 0.3061(5)
O4_4 O 0.3915(3) 0.8184(2) 0.1805(5)
O5_4 O 0.4026(2) 0.86499(19) 0.3133(5)
O6_4 O 0.4642(3) 0.8581(2) 0.2996(5)
O7_4 O 0.3404(2) 0.8125(2) 0.3373(4)
O8_4 O 0.3065(3) 0.8337(2) 0.1900(5)
O9_4 O 0.2682(3) 0.7843(2) 0.1976(5)
C1_4 C 0.3556(4) 0.9261(4) 0.1928(8)
C2_4 C 0.3332(4) 0.9327(4) 0.2803(8)
C3_4 C 0.3141(4) 0.7927(4) 0.3078(8)
C4_4 C 0.2951(4) 0.8021(4) 0.2228(8)
C5_4 C 0.4250(4) 0.8268(4) 0.1992(7)
C6_4 C 0.4325(5) 0.8519(4) 0.2725(9)
C7_4 C 0.3143(4) 0.7500(3) 0.4218(7)
C8_4 C 0.3429(5) 0.7246(5) 0.4206(9)
C9_4 C 0.3627(8) 0.7087(7) 0.500000
C10_4 C 0.3037(4) 0.7646(4) 0.500000
C11_4 C 0.2765(7) 0.7948(6) 0.500000
C12_4 C 0.3640(5) 0.7109(4) 0.3334(9)
C13_4 C 0.4511(4) 0.7953(3) 0.0798(6)
C14_4 C 0.4504(4) 0.7582(3) 0.0802(7)
C15_7 C 0.4484(6) 0.7388(5) 0.000000
C16_7 C 0.4515(6) 0.8154(4) 0.000000
C17_7 C 0.4506(6) 0.8612(4) 0.000000
C18_4 C 0.4488(4) 0.7337(3) 0.1660(8)
C19_4 C 0.3855(4) 0.9552(3) 0.0801(7)
C20_4 C 0.4221(4) 0.9529(3) 0.0812(7)
C21_7 C 0.4416(4) 0.9515(5) 0.000000
C22_7 C 0.3622(4) 0.9553(5) 0.000000
C23_7 C 0.3187(5) 0.9544(6) 0.000000
C24_4 C 0.4429(4) 0.9500(5) 0.1639(11)
O10_4 O 0.2965(4) 0.7035(4) 0.1483(14)
O11_4 O 0.500000 0.7819(6) 0.3422(15)
O12_8 O 0.3963(4) 1.000000 0.3386(9)
N4_4 N 0.3008(2) 0.7619(3) 0.6591(6)
O13_4 O 0.3404(2) 0.8125(2) 0.6627(4)
O14_4 O 0.3065(3) 0.8337(2) 0.8100(5)
O15_4 O 0.2682(3) 0.7843(2) 0.8024(5)
C25_4 C 0.3141(4) 0.7927(4) 0.6922(8)
C26_4 C 0.2951(4) 0.8021(4) 0.7772(8)
C27_4 C 0.3143(4) 0.7500(3) 0.5782(7)
C28_4 C 0.3429(5) 0.7246(5) 0.5794(9)
C29_4 C 0.3640(5) 0.7109(4) 0.6666(9)
Ni2_4 Ni 0.35391(5) 0.85248(4) 0.74904(10)
Cu4_4 Cu 0.25892(5) 0.74108(5) 0.72848(13)
N7_4 N 0.2381(3) 0.6992(2) 0.3409(6)
N8_4 N 0.5463(3) 0.8166(3) 0.1595(6)
O22_4 O 0.3626(3) 0.8929(2) 0.8355(5)
O23_4 O 0.3280(2) 0.8974(2) 0.6833(5)
O25_4 O 0.3915(3) 0.8184(2) 0.8195(5)
O26_4 O 0.4026(2) 0.86499(19) 0.6867(5)
O27_4 O 0.5358(3) 0.8581(2) 0.2996(5)
O28_4 O 0.2157(2) 0.7318(3) 0.1976(5)
H1_4 H 0.30789 0.97915 0.034946
H3_4 H 0.308933 0.928731 0.0329534
H4_4 H 0.475267 0.871982 0.0353111
H6_4 H 0.424853 0.870992 0.0325798
H7_4 H 0.423202 0.740589 0.202966
H8_4 H 0.448474 0.703758 0.148335
H9_4 H 0.473606 0.739645 0.206612
H10_7 H 0.472407 0.949288 2.22045e-16
H11_7 H 0.445233 0.708076 2.22045e-16
H12_4 H 0.376979 0.735189 0.300788
H13_4 H 0.385875 0.690405 0.35076
H14_4 H 0.343607 0.697716 0.28889
H15_4 H 0.433993 0.924577 0.199139
H16_4 H 0.473171 0.948383 0.150091
H17_4 H 0.437124 0.974866 0.204446
H22_4 H 0.386783 0.689361 0.5
H25_4 H 0.250291 0.78505 0.469417
H26_4 H 0.27083 0.803549 0.567801
H27_4 H 0.287709 0.818751 0.462782
H31_4 H 0.39325 0.720809 0.665512
H32_4 H 0.349608 0.722458 0.724352
H33_4 H 0.363602 0.680045 0.669698
C15_8 C 0.4484(6) 0.7388(5) 1.000000
C16_8 C 0.4515(6) 0.8154(4) 1.000000
C17_8 C 0.4506(6) 0.8612(4) 1.000000
C21_8 C 0.4416(4) 0.9515(5) 1.000000
C22_8 C 0.3622(4) 0.9553(5) 1.000000
C23_8 C 0.3187(5) 0.9544(6) 1.000000
N5_4 N 0.4537(3) 0.8166(3) 0.8405(6)
O18_4 O 0.4642(3) 0.8581(2) 0.7004(5)
C30_4 C 0.4250(4) 0.8268(4) 0.8008(7)
C31_4 C 0.4325(5) 0.8519(4) 0.7275(9)
C32_4 C 0.4511(4) 0.7953(3) 0.9202(6)
C33_4 C 0.4504(4) 0.7582(3) 0.9198(7)
C34_4 C 0.4488(4) 0.7337(3) 0.8340(8)
N6_4 N 0.3645(3) 0.9569(3) 0.8411(6)
O21_4 O 0.3270(2) 0.9618(2) 0.6939(5)
C35_4 C 0.3556(4) 0.9261(4) 0.8072(8)
C36_4 C 0.3332(4) 0.9327(4) 0.7197(8)
C37_4 C 0.3855(4) 0.9552(3) 0.9199(7)
C38_4 C 0.4221(4) 0.9529(3) 0.9188(7)
C39_4 C 0.4429(4) 0.9500(5) 0.8361(11)
Cu5_4 Cu 0.500000 0.83189(6) 0.77537(12)
Cu6_8 Cu 0.34941(7) 1.000000 0.76780(13)
H2_4 H 0.308396 0.95468 0.932101
H5_4 H 0.451074 0.871507 0.932109
H10_8 H 0.472407 0.949288 1
H11_8 H 0.445233 0.708076 1
H28_4 H 0.422206 0.718011 0.832196
H29_4 H 0.450608 0.752123 0.776342
H30_4 H 0.472469 0.713858 0.833549
H34_4 H 0.457904 0.923019 0.833864
H35_4 H 0.423146 0.951643 0.780862
H36_4 H 0.463239 0.973165 0.831598
O12_9 O 0.000000 0.3963(4) 0.6614(9)
H18_5 H 0.00345778 0.421388 0.690135
H19_5 H 0.021071 0.39176 0.619126
C15_9 C 0.7388(5) 0.4484(6) -0.000000
C16_9 C 0.8154(4) 0.4515(6) -0.000000
C17_9 C 0.8612(4) 0.4506(6) -0.000000
C21_9 C 0.9515(5) 0.4416(4) -0.000000
C22_9 C 0.9553(5) 0.3622(4) -0.000000
C23_9 C 0.9544(6) 0.3187(5) -0.000000
O16 O 0.8184(2) 0.3915(3) 0.1805(5)
O17 O 0.86499(19) 0.4026(2) 0.3133(5)
C30_5 C 0.8268(4) 0.4250(4) 0.1992(7)
C31_5 C 0.8519(4) 0.4325(5) 0.2725(9)
C32_5 C 0.7953(3) 0.4511(4) 0.0798(6)
C33_5 C 0.7582(3) 0.4504(4) 0.0802(7)
C34_5 C 0.7337(3) 0.4488(4) 0.1660(8)
O19 O 0.8929(2) 0.3626(3) 0.1645(5)
O20 O 0.8974(2) 0.3280(2) 0.3167(5)
C35_5 C 0.9261(4) 0.3556(4) 0.1928(8)
C36_5 C 0.9327(4) 0.3332(4) 0.2803(8)
C37_5 C 0.9552(3) 0.3855(4) 0.0801(7)
C38_5 C 0.9529(3) 0.4221(4) 0.0812(7)
C39_5 C 0.9500(5) 0.4429(4) 0.1639(11)
Ni3 Ni 0.85248(4) 0.35391(5) 0.25096(10)
H2_5 H 0.95468 0.308396 0.0678994
H5_5 H 0.871507 0.451074 0.0678909
H10_9 H 0.949288 0.472407 -2.22045e-16
H11_9 H 0.708076 0.445233 -2.22045e-16
H28_5 H 0.718011 0.422206 0.167804
H29_5 H 0.752123 0.450608 0.223658
H30_5 H 0.713858 0.472469 0.166451
H34_5 H 0.923019 0.457904 0.166136
H35_5 H 0.951643 0.423146 0.219138
H36_5 H 0.973165 0.463239 0.168402
Ni1_5 Ni 0.85248(4) 0.35391(5) 0.74904(10)
N1_5 N 0.7619(3) 0.3008(2) 0.6591(6)
N2_5 N 0.8166(3) 0.4537(3) 0.8405(6)
N3_5 N 0.9569(3) 0.3645(3) 0.8411(6)
O1_5 O 0.8929(2) 0.3626(3) 0.8355(5)
O2_5 O 0.8974(2) 0.3280(2) 0.6833(5)
O3_5 O 0.9618(2) 0.3270(2) 0.6939(5)
O4_5 O 0.8184(2) 0.3915(3) 0.8195(5)
O5_5 O 0.86499(19) 0.4026(2) 0.6867(5)
O6_5 O 0.8581(2) 0.4642(3) 0.7004(5)
O7_5 O 0.8125(2) 0.3404(2) 0.6627(4)
O8_5 O 0.8337(2) 0.3065(3) 0.8100(5)
O9_5 O 0.7843(2) 0.2682(3) 0.8024(5)
C1_5 C 0.9261(4) 0.3556(4) 0.8072(8)
C2_5 C 0.9327(4) 0.3332(4) 0.7197(8)
C3_5 C 0.7927(4) 0.3141(4) 0.6922(8)
C4_5 C 0.8021(4) 0.2951(4) 0.7772(8)
C5_5 C 0.8268(4) 0.4250(4) 0.8008(7)
C6_5 C 0.8519(4) 0.4325(5) 0.7275(9)
C7_5 C 0.7500(3) 0.3143(4) 0.5782(7)
C8_5 C 0.7246(5) 0.3429(5) 0.5794(9)
C9_5 C 0.7087(7) 0.3627(8) 0.500000
C10_5 C 0.7646(4) 0.3037(4) 0.500000
C11_5 C 0.7948(6) 0.2765(7) 0.500000
C12_5 C 0.7109(4) 0.3640(5) 0.6666(9)
C13_5 C 0.7953(3) 0.4511(4) 0.9202(6)
C14_5 C 0.7582(3) 0.4504(4) 0.9198(7)
C15_10 C 0.7388(5) 0.4484(6) 1.000000
C16_10 C 0.8154(4) 0.4515(6) 1.000000
C17_10 C 0.8612(4) 0.4506(6) 1.000000
C18_5 C 0.7337(3) 0.4488(4) 0.8340(8)
C19_5 C 0.9552(3) 0.3855(4) 0.9199(7)
C20_5 C 0.9529(3) 0.4221(4) 0.9188(7)
C21_10 C 0.9515(5) 0.4416(4) 1.000000
C22_10 C 0.9553(5) 0.3622(4) 1.000000
C23_10 C 0.9544(6) 0.3187(5) 1.000000
C24_5 C 0.9500(5) 0.4429(4) 0.8361(11)
O10_5 O 0.7035(4) 0.2965(4) 0.8517(14)
O11_5 O 0.7819(6) 0.500000 0.6578(15)
O12_10 O 1.000000 0.3963(4) 0.6614(9)
O13_5 O 0.8125(2) 0.3404(2) 0.3373(4)
O14_5 O 0.8337(2) 0.3065(3) 0.1900(5)
C25_5 C 0.7927(4) 0.3141(4) 0.3078(8)
C26_5 C 0.8021(4) 0.2951(4) 0.2228(8)
C27_5 C 0.7500(3) 0.3143(4) 0.4218(7)
C28_5 C 0.7246(5) 0.3429(5) 0.4206(9)
C29_5 C 0.7109(4) 0.3640(5) 0.3334(9)
H1_5 H 0.97915 0.30789 0.965054
H3_5 H 0.928731 0.308933 0.967047
H4_5 H 0.871982 0.475267 0.964689
H6_5 H 0.870992 0.424853 0.96742
H7_5 H 0.740589 0.423202 0.797034
H8_5 H 0.703758 0.448474 0.851665
H9_5 H 0.739645 0.473606 0.793388
H10_10 H 0.949288 0.472407 1
H11_10 H 0.708076 0.445233 1
H12_5 H 0.735189 0.376979 0.699212
H13_5 H 0.690405 0.385875 0.64924
H14_5 H 0.697716 0.343607 0.71111
H15_5 H 0.924577 0.433993 0.800861
H16_5 H 0.948383 0.473171 0.849909
H17_5 H 0.974866 0.437124 0.795554
H22_5 H 0.689361 0.386783 0.5
H25_5 H 0.78505 0.250291 0.530583
H26_5 H 0.803549 0.27083 0.432199
H27_5 H 0.818751 0.287709 0.537218
H31_5 H 0.720809 0.39325 0.334488
H32_5 H 0.722458 0.349608 0.275648
H33_5 H 0.680045 0.363602 0.330302
C15_11 C 0.2612(5) 0.5516(6) -0.000000
C16_11 C 0.1846(4) 0.5485(6) -0.000000
C17_11 C 0.1388(4) 0.5494(6) -0.000000
C21_11 C 0.0485(5) 0.5584(4) -0.000000
C22_11 C 0.0447(5) 0.6378(4) -0.000000
C23_11 C 0.0456(6) 0.6813(5) -0.000000
O16_2 O 0.1816(2) 0.6085(3) 0.1805(5)
O17_2 O 0.13501(19) 0.5974(2) 0.3133(5)
C30_6 C 0.1732(4) 0.5750(4) 0.1992(7)
C31_6 C 0.1481(4) 0.5675(5) 0.2725(9)
C32_6 C 0.2047(3) 0.5489(4) 0.0798(6)
C33_6 C 0.2418(3) 0.5496(4) 0.0802(7)
C34_6 C 0.2663(3) 0.5512(4) 0.1660(8)
O19_2 O 0.1071(2) 0.6374(3) 0.1645(5)
O20_2 O 0.1026(2) 0.6720(2) 0.3167(5)
C35_6 C 0.0739(4) 0.6444(4) 0.1928(8)
C36_6 C 0.0673(4) 0.6668(4) 0.2803(8)
C37_6 C 0.0448(3) 0.6145(4) 0.0801(7)
C38_6 C 0.0471(3) 0.5779(4) 0.0812(7)
C39_6 C 0.0500(5) 0.5571(4) 0.1639(11)
Ni3_2 Ni 0.14752(4) 0.64609(5) 0.25096(10)
H2_6 H 0.0453198 0.691604 0.0678994
H5_6 H 0.128493 0.548926 0.0678909
H10_11 H 0.0507118 0.527593 -2.22045e-16
H11_11 H 0.291924 0.554767 -2.22045e-16
H28_6 H 0.281989 0.577794 0.167804
H29_6 H 0.247877 0.549392 0.223658
H30_6 H 0.286142 0.527531 0.166451
H34_6 H 0.0769807 0.542096 0.166136
H35_6 H 0.0483572 0.576854 0.219138
H36_6 H 0.0268354 0.536761 0.168402
Ni1_6 Ni 0.14752(4) 0.64609(5) 0.74904(10)
N1_6 N 0.2381(3) 0.6992(2) 0.6591(6)
N2_6 N 0.1834(3) 0.5463(3) 0.8405(6)
N3_6 N 0.0431(3) 0.6355(3) 0.8411(6)
O1_6 O 0.1071(2) 0.6374(3) 0.8355(5)
O2_6 O 0.1026(2) 0.6720(2) 0.6833(5)
O3_6 O 0.0382(2) 0.6730(2) 0.6939(5)
O4_6 O 0.1816(2) 0.6085(3) 0.8195(5)
O5_6 O 0.13501(19) 0.5974(2) 0.6867(5)
O6_6 O 0.1419(2) 0.5358(3) 0.7004(5)
O7_6 O 0.1875(2) 0.6596(2) 0.6627(4)
O8_6 O 0.1663(2) 0.6935(3) 0.8100(5)
O9_6 O 0.2157(2) 0.7318(3) 0.8024(5)
C1_6 C 0.0739(4) 0.6444(4) 0.8072(8)
C2_6 C 0.0673(4) 0.6668(4) 0.7197(8)
C3_6 C 0.2073(4) 0.6859(4) 0.6922(8)
C4_6 C 0.1979(4) 0.7049(4) 0.7772(8)
C5_6 C 0.1732(4) 0.5750(4) 0.8008(7)
C6_6 C 0.1481(4) 0.5675(5) 0.7275(9)
C7_6 C 0.2500(3) 0.6857(4) 0.5782(7)
C8_6 C 0.2754(5) 0.6571(5) 0.5794(9)
C9_6 C 0.2913(7) 0.6373(8) 0.500000
C10_6 C 0.2354(4) 0.6963(4) 0.500000
C11_6 C 0.2052(6) 0.7235(7) 0.500000
C12_6 C 0.2891(4) 0.6360(5) 0.6666(9)
C13_6 C 0.2047(3) 0.5489(4) 0.9202(6)
C14_6 C 0.2418(3) 0.5496(4) 0.9198(7)
C15_12 C 0.2612(5) 0.5516(6) 1.000000
C16_12 C 0.1846(4) 0.5485(6) 1.000000
C17_12 C 0.1388(4) 0.5494(6) 1.000000
C18_6 C 0.2663(3) 0.5512(4) 0.8340(8)
C19_6 C 0.0448(3) 0.6145(4) 0.9199(7)
C20_6 C 0.0471(3) 0.5779(4) 0.9188(7)
C21_12 C 0.0485(5) 0.5584(4) 1.000000
C22_12 C 0.0447(5) 0.6378(4) 1.000000
C23_12 C 0.0456(6) 0.6813(5) 1.000000
C24_6 C 0.0500(5) 0.5571(4) 0.8361(11)
O10_6 O 0.2965(4) 0.7035(4) 0.8517(14)
O11_6 O 0.2181(6) 0.500000 0.6578(15)
O12_11 O -0.000000 0.6037(4) 0.6614(9)
O13_6 O 0.1875(2) 0.6596(2) 0.3373(4)
O14_6 O 0.1663(2) 0.6935(3) 0.1900(5)
C25_6 C 0.2073(4) 0.6859(4) 0.3078(8)
C26_6 C 0.1979(4) 0.7049(4) 0.2228(8)
C27_6 C 0.2500(3) 0.6857(4) 0.4218(7)
C28_6 C 0.2754(5) 0.6571(5) 0.4206(9)
C29_6 C 0.2891(4) 0.6360(5) 0.3334(9)
H1_6 H 0.0208498 0.69211 0.965054
H3_6 H 0.0712694 0.691067 0.967047
H4_6 H 0.128018 0.524733 0.964689
H6_6 H 0.129008 0.575147 0.96742
H7_6 H 0.259411 0.576798 0.797034
H8_6 H 0.296242 0.551526 0.851665
H9_6 H 0.260355 0.526394 0.793388
H10_12 H 0.0507118 0.527593 1
H11_12 H 0.291924 0.554767 1
H12_6 H 0.264811 0.623021 0.699212
H13_6 H 0.309595 0.614125 0.64924
H14_6 H 0.302284 0.656393 0.71111
H15_6 H 0.0754228 0.566007 0.800861
H16_6 H 0.0516166 0.526829 0.849909
H17_6 H 0.0251339 0.562876 0.795554
H22_6 H 0.310639 0.613217 0.5
H25_6 H 0.21495 0.749709 0.530583
H26_6 H 0.196451 0.72917 0.432199
H27_6 H 0.181249 0.712291 0.537218
H31_6 H 0.279191 0.60675 0.334488
H32_6 H 0.277542 0.650392 0.275648
H33_6 H 0.319955 0.636398 0.330302
O12_12 O 1.000000 0.6037(4) 0.6614(9)
H18_6 H 0.996542 0.578612 0.690135
H19_6 H 0.978929 0.60824 0.619126
C15_13 C 0.4484(6) 0.2612(5) -0.000000
C16_13 C 0.4515(6) 0.1846(4) -0.000000
C17_13 C 0.4506(6) 0.1388(4) -0.000000
C21_13 C 0.4416(4) 0.0485(5) -0.000000
C22_13 C 0.3622(4) 0.0447(5) -0.000000
C23_13 C 0.3187(5) 0.0456(6) -0.000000
O16_3 O 0.3915(3) 0.1816(2) 0.1805(5)
O17_3 O 0.4026(2) 0.13501(19) 0.3133(5)
C30_7 C 0.4250(4) 0.1732(4) 0.1992(7)
C31_7 C 0.4325(5) 0.1481(4) 0.2725(9)
C32_7 C 0.4511(4) 0.2047(3) 0.0798(6)
C33_7 C 0.4504(4) 0.2418(3) 0.0802(7)
C34_7 C 0.4488(4) 0.2663(3) 0.1660(8)
O19_3 O 0.3626(3) 0.1071(2) 0.1645(5)
O20_3 O 0.3280(2) 0.1026(2) 0.3167(5)
C35_7 C 0.3556(4) 0.0739(4) 0.1928(8)
C36_7 C 0.3332(4) 0.0673(4) 0.2803(8)
C37_7 C 0.3855(4) 0.0448(3) 0.0801(7)
C38_7 C 0.4221(4) 0.0471(3) 0.0812(7)
C39_7 C 0.4429(4) 0.0500(5) 0.1639(11)
Ni3_3 Ni 0.35391(5) 0.14752(4) 0.25096(10)
H2_7 H 0.308396 0.0453198 0.0678994
H5_7 H 0.451074 0.128493 0.0678909
H10_13 H 0.472407 0.0507118 -2.22045e-16
H11_13 H 0.445233 0.291924 -2.22045e-16
H28_7 H 0.422206 0.281989 0.167804
H29_7 H 0.450608 0.247877 0.223658
H30_7 H 0.472469 0.286142 0.166451
H34_7 H 0.457904 0.0769807 0.166136
H35_7 H 0.423146 0.0483572 0.219138
H36_7 H 0.463239 0.0268354 0.168402
Ni1_7 Ni 0.35391(5) 0.14752(4) 0.74904(10)
N1_7 N 0.3008(2) 0.2381(3) 0.6591(6)
N2_7 N 0.4537(3) 0.1834(3) 0.8405(6)
N3_7 N 0.3645(3) 0.0431(3) 0.8411(6)
O1_7 O 0.3626(3) 0.1071(2) 0.8355(5)
O2_7 O 0.3280(2) 0.1026(2) 0.6833(5)
O3_7 O 0.3270(2) 0.0382(2) 0.6939(5)
O4_7 O 0.3915(3) 0.1816(2) 0.8195(5)
O5_7 O 0.4026(2) 0.13501(19) 0.6867(5)
O6_7 O 0.4642(3) 0.1419(2) 0.7004(5)
O7_7 O 0.3404(2) 0.1875(2) 0.6627(4)
O8_7 O 0.3065(3) 0.1663(2) 0.8100(5)
O9_7 O 0.2682(3) 0.2157(2) 0.8024(5)
C1_7 C 0.3556(4) 0.0739(4) 0.8072(8)
C2_7 C 0.3332(4) 0.0673(4) 0.7197(8)
C3_7 C 0.3141(4) 0.2073(4) 0.6922(8)
C4_7 C 0.2951(4) 0.1979(4) 0.7772(8)
C5_7 C 0.4250(4) 0.1732(4) 0.8008(7)
C6_7 C 0.4325(5) 0.1481(4) 0.7275(9)
C7_7 C 0.3143(4) 0.2500(3) 0.5782(7)
C8_7 C 0.3429(5) 0.2754(5) 0.5794(9)
C9_7 C 0.3627(8) 0.2913(7) 0.500000
C10_7 C 0.3037(4) 0.2354(4) 0.500000
C11_7 C 0.2765(7) 0.2052(6) 0.500000
C12_7 C 0.3640(5) 0.2891(4) 0.6666(9)
C13_7 C 0.4511(4) 0.2047(3) 0.9202(6)
C14_7 C 0.4504(4) 0.2418(3) 0.9198(7)
C15_14 C 0.4484(6) 0.2612(5) 1.000000
C16_14 C 0.4515(6) 0.1846(4) 1.000000
C17_14 C 0.4506(6) 0.1388(4) 1.000000
C18_7 C 0.4488(4) 0.2663(3) 0.8340(8)
C19_7 C 0.3855(4) 0.0448(3) 0.9199(7)
C20_7 C 0.4221(4) 0.0471(3) 0.9188(7)
C21_14 C 0.4416(4) 0.0485(5) 1.000000
C22_14 C 0.3622(4) 0.0447(5) 1.000000
C23_14 C 0.3187(5) 0.0456(6) 1.000000
C24_7 C 0.4429(4) 0.0500(5) 0.8361(11)
O10_7 O 0.2965(4) 0.2965(4) 0.8517(14)
O11_7 O 0.500000 0.2181(6) 0.6578(15)
O12_13 O 0.3963(4) -0.000000 0.6614(9)
O13_7 O 0.3404(2) 0.1875(2) 0.3373(4)
O14_7 O 0.3065(3) 0.1663(2) 0.1900(5)
C25_7 C 0.3141(4) 0.2073(4) 0.3078(8)
C26_7 C 0.2951(4) 0.1979(4) 0.2228(8)
C27_7 C 0.3143(4) 0.2500(3) 0.4218(7)
C28_7 C 0.3429(5) 0.2754(5) 0.4206(9)
C29_7 C 0.3640(5) 0.2891(4) 0.3334(9)
H1_7 H 0.30789 0.0208498 0.965054
H3_7 H 0.308933 0.0712694 0.967047
H4_7 H 0.475267 0.128018 0.964689
H6_7 H 0.424853 0.129008 0.96742
H7_7 H 0.423202 0.259411 0.797034
H8_7 H 0.448474 0.296242 0.851665
H9_7 H 0.473606 0.260355 0.793388
H10_14 H 0.472407 0.0507118 1
H11_14 H 0.445233 0.291924 1
H12_7 H 0.376979 0.264811 0.699212
H13_7 H 0.385875 0.309595 0.64924
H14_7 H 0.343607 0.302284 0.71111
H15_7 H 0.433993 0.0754228 0.800861
H16_7 H 0.473171 0.0516166 0.849909
H17_7 H 0.437124 0.0251339 0.795554
H22_7 H 0.386783 0.310639 0.5
H25_7 H 0.250291 0.21495 0.530583
H26_7 H 0.27083 0.196451 0.432199
H27_7 H 0.287709 0.181249 0.537218
H31_7 H 0.39325 0.279191 0.334488
H32_7 H 0.349608 0.277542 0.275648
H33_7 H 0.363602 0.319955 0.330302
O12_14 O 0.3963(4) 1.000000 0.6614(9)
H18_7 H 0.421388 0.996542 0.690135
H19_7 H 0.39176 0.978929 0.619126
O12_15 O 0.6037(4) 0.000000 0.6614(9)
H18_8 H 0.578612 0.00345778 0.690135
H19_8 H 0.60824 0.021071 0.619126
C15_15 C 0.5516(6) 0.7388(5) -0.000000
C16_15 C 0.5485(6) 0.8154(4) -0.000000
C17_15 C 0.5494(6) 0.8612(4) -0.000000
C21_15 C 0.5584(4) 0.9515(5) -0.000000
C22_15 C 0.6378(4) 0.9553(5) -0.000000
C23_15 C 0.6813(5) 0.9544(6) -0.000000
O16_4 O 0.6085(3) 0.8184(2) 0.1805(5)
O17_4 O 0.5974(2) 0.86499(19) 0.3133(5)
C30_8 C 0.5750(4) 0.8268(4) 0.1992(7)
C31_8 C 0.5675(5) 0.8519(4) 0.2725(9)
C32_8 C 0.5489(4) 0.7953(3) 0.0798(6)
C33_8 C 0.5496(4) 0.7582(3) 0.0802(7)
C34_8 C 0.5512(4) 0.7337(3) 0.1660(8)
O19_4 O 0.6374(3) 0.8929(2) 0.1645(5)
O20_4 O 0.6720(2) 0.8974(2) 0.3167(5)
C35_8 C 0.6444(4) 0.9261(4) 0.1928(8)
C36_8 C 0.6668(4) 0.9327(4) 0.2803(8)
C37_8 C 0.6145(4) 0.9552(3) 0.0801(7)
C38_8 C 0.5779(4) 0.9529(3) 0.0812(7)
C39_8 C 0.5571(4) 0.9500(5) 0.1639(11)
Ni3_4 Ni 0.64609(5) 0.85248(4) 0.25096(10)
H2_8 H 0.691604 0.95468 0.0678994
H5_8 H 0.548926 0.871507 0.0678909
H10_15 H 0.527593 0.949288 -2.22045e-16
H11_15 H 0.554767 0.708076 -2.22045e-16
H28_8 H 0.577794 0.718011 0.167804
H29_8 H 0.549392 0.752123 0.223658
H30_8 H 0.527531 0.713858 0.166451
H34_8 H 0.542096 0.923019 0.166136
H35_8 H 0.576854 0.951643 0.219138
H36_8 H 0.536761 0.973165 0.168402
Ni1_8 Ni 0.64609(5) 0.85248(4) 0.74904(10)
N1_8 N 0.6992(2) 0.7619(3) 0.6591(6)
N2_8 N 0.5463(3) 0.8166(3) 0.8405(6)
N3_8 N 0.6355(3) 0.9569(3) 0.8411(6)
O1_8 O 0.6374(3) 0.8929(2) 0.8355(5)
O2_8 O 0.6720(2) 0.8974(2) 0.6833(5)
O3_8 O 0.6730(2) 0.9618(2) 0.6939(5)
O4_8 O 0.6085(3) 0.8184(2) 0.8195(5)
O5_8 O 0.5974(2) 0.86499(19) 0.6867(5)
O6_8 O 0.5358(3) 0.8581(2) 0.7004(5)
O7_8 O 0.6596(2) 0.8125(2) 0.6627(4)
O8_8 O 0.6935(3) 0.8337(2) 0.8100(5)
O9_8 O 0.7318(3) 0.7843(2) 0.8024(5)
C1_8 C 0.6444(4) 0.9261(4) 0.8072(8)
C2_8 C 0.6668(4) 0.9327(4) 0.7197(8)
C3_8 C 0.6859(4) 0.7927(4) 0.6922(8)
C4_8 C 0.7049(4) 0.8021(4) 0.7772(8)
C5_8 C 0.5750(4) 0.8268(4) 0.8008(7)
C6_8 C 0.5675(5) 0.8519(4) 0.7275(9)
C7_8 C 0.6857(4) 0.7500(3) 0.5782(7)
C8_8 C 0.6571(5) 0.7246(5) 0.5794(9)
C9_8 C 0.6373(8) 0.7087(7) 0.500000
C10_8 C 0.6963(4) 0.7646(4) 0.500000
C11_8 C 0.7235(7) 0.7948(6) 0.500000
C12_8 C 0.6360(5) 0.7109(4) 0.6666(9)
C13_8 C 0.5489(4) 0.7953(3) 0.9202(6)
C14_8 C 0.5496(4) 0.7582(3) 0.9198(7)
C15_16 C 0.5516(6) 0.7388(5) 1.000000
C16_16 C 0.5485(6) 0.8154(4) 1.000000
C17_16 C 0.5494(6) 0.8612(4) 1.000000
C18_8 C 0.5512(4) 0.7337(3) 0.8340(8)
C19_8 C 0.6145(4) 0.9552(3) 0.9199(7)
C20_8 C 0.5779(4) 0.9529(3) 0.9188(7)
C21_16 C 0.5584(4) 0.9515(5) 1.000000
C22_16 C 0.6378(4) 0.9553(5) 1.000000
C23_16 C 0.6813(5) 0.9544(6) 1.000000
C24_8 C 0.5571(4) 0.9500(5) 0.8361(11)
O10_8 O 0.7035(4) 0.7035(4) 0.8517(14)
O11_8 O 0.500000 0.7819(6) 0.6578(15)
O12_16 O 0.6037(4) 1.000000 0.6614(9)
O13_8 O 0.6596(2) 0.8125(2) 0.3373(4)
O14_8 O 0.6935(3) 0.8337(2) 0.1900(5)
C25_8 C 0.6859(4) 0.7927(4) 0.3078(8)
C26_8 C 0.7049(4) 0.8021(4) 0.2228(8)
C27_8 C 0.6857(4) 0.7500(3) 0.4218(7)
C28_8 C 0.6571(5) 0.7246(5) 0.4206(9)
C29_8 C 0.6360(5) 0.7109(4) 0.3334(9)
H1_8 H 0.69211 0.97915 0.965054
H3_8 H 0.691067 0.928731 0.967047
H4_8 H 0.524733 0.871982 0.964689
H6_8 H 0.575147 0.870992 0.96742
H7_8 H 0.576798 0.740589 0.797034
H8_8 H 0.551526 0.703758 0.851665
H9_8 H 0.526394 0.739645 0.793388
H10_16 H 0.527593 0.949288 1
H11_16 H 0.554767 0.708076 1
H12_8 H 0.623021 0.735189 0.699212
H13_8 H 0.614125 0.690405 0.64924
H14_8 H 0.656393 0.697716 0.71111
H15_8 H 0.566007 0.924577 0.800861
H16_8 H 0.526829 0.948383 0.849909
H17_8 H 0.562876 0.974866 0.795554
H22_8 H 0.613217 0.689361 0.5
H25_8 H 0.749709 0.78505 0.530583
H26_8 H 0.72917 0.803549 0.432199
H27_8 H 0.712291 0.818751 0.537218
H31_8 H 0.60675 0.720809 0.334488
H32_8 H 0.650392 0.722458 0.275648
H33_8 H 0.636398 0.680045 0.330302
H18_9 H 0.00345778 0.578612 0.690135
H19_9 H 0.021071 0.60824 0.619126
H2_9 H 0.95468 0.691604 0.0678994
H5_9 H 0.871507 0.548926 0.0678909
H28_9 H 0.718011 0.577794 0.167804
H29_9 H 0.752123 0.549392 0.223658
H30_9 H 0.713858 0.527531 0.166451
H34_9 H 0.923019 0.542096 0.166136
H35_9 H 0.951643 0.576854 0.219138
H36_9 H 0.973165 0.536761 0.168402
H1_9 H 0.97915 0.69211 0.965054
H3_9 H 0.928731 0.691067 0.967047
H4_9 H 0.871982 0.524733 0.964689
H6_9 H 0.870992 0.575147 0.96742
H7_9 H 0.740589 0.576798 0.797034
H8_9 H 0.703758 0.551526 0.851665
H9_9 H 0.739645 0.526394 0.793388
H12_9 H 0.735189 0.623021 0.699212
H13_9 H 0.690405 0.614125 0.64924
H14_9 H 0.697716 0.656393 0.71111
H15_9 H 0.924577 0.566007 0.800861
H16_9 H 0.948383 0.526829 0.849909
H17_9 H 0.974866 0.562876 0.795554
H25_9 H 0.78505 0.749709 0.530583
H26_9 H 0.803549 0.72917 0.432199
H27_9 H 0.818751 0.712291 0.537218
H31_9 H 0.720809 0.60675 0.334488
H32_9 H 0.722458 0.650392 0.275648
H33_9 H 0.680045 0.636398 0.330302
H2_10 H 0.0453198 0.308396 0.0678994
H5_10 H 0.128493 0.451074 0.0678909
H28_10 H 0.281989 0.422206 0.167804
H29_10 H 0.247877 0.450608 0.223658
H30_10 H 0.286142 0.472469 0.166451
H34_10 H 0.0769807 0.457904 0.166136
H35_10 H 0.0483572 0.423146 0.219138
H36_10 H 0.0268354 0.463239 0.168402
H1_10 H 0.0208498 0.30789 0.965054
H3_10 H 0.0712694 0.308933 0.967047
H4_10 H 0.128018 0.475267 0.964689
H6_10 H 0.129008 0.424853 0.96742
H7_10 H 0.259411 0.423202 0.797034
H8_10 H 0.296242 0.448474 0.851665
H9_10 H 0.260355 0.473606 0.793388
H12_10 H 0.264811 0.376979 0.699212
H13_10 H 0.309595 0.385875 0.64924
H14_10 H 0.302284 0.343607 0.71111
H15_10 H 0.0754228 0.433993 0.800861
H16_10 H 0.0516166 0.473171 0.849909
H17_10 H 0.0251339 0.437124 0.795554
H25_10 H 0.21495 0.250291 0.530583
H26_10 H 0.196451 0.27083 0.432199
H27_10 H 0.181249 0.287709 0.537218
H31_10 H 0.279191 0.39325 0.334488
H32_10 H 0.277542 0.349608 0.275648
H33_10 H 0.319955 0.363602 0.330302
H18_10 H 0.996542 0.421388 0.690135
H19_10 H 0.978929 0.39176 0.619126
H18_11 H 0.421388 0.00345778 0.690135
H19_11 H 0.39176 0.021071 0.619126
H2_11 H 0.308396 0.95468 0.0678994
H5_11 H 0.451074 0.871507 0.0678909
H28_11 H 0.422206 0.718011 0.167804
H29_11 H 0.450608 0.752123 0.223658
H30_11 H 0.472469 0.713858 0.166451
H34_11 H 0.457904 0.923019 0.166136
H35_11 H 0.423146 0.951643 0.219138
H36_11 H 0.463239 0.973165 0.168402
H1_11 H 0.30789 0.97915 0.965054
H3_11 H 0.308933 0.928731 0.967047
H4_11 H 0.475267 0.871982 0.964689
H6_11 H 0.424853 0.870992 0.96742
H7_11 H 0.423202 0.740589 0.797034
H8_11 H 0.448474 0.703758 0.851665
H9_11 H 0.473606 0.739645 0.793388
H12_11 H 0.376979 0.735189 0.699212
H13_11 H 0.385875 0.690405 0.64924
H14_11 H 0.343607 0.697716 0.71111
H15_11 H 0.433993 0.924577 0.800861
H16_11 H 0.473171 0.948383 0.849909
H17_11 H 0.437124 0.974866 0.795554
H25_11 H 0.250291 0.78505 0.530583
H26_11 H 0.27083 0.803549 0.432199
H27_11 H 0.287709 0.818751 0.537218
H31_11 H 0.39325 0.720809 0.334488
H32_11 H 0.349608 0.722458 0.275648
H33_11 H 0.363602 0.680045 0.330302
H2_12 H 0.691604 0.0453198 0.0678994
H5_12 H 0.548926 0.128493 0.0678909
H28_12 H 0.577794 0.281989 0.167804
H29_12 H 0.549392 0.247877 0.223658
H30_12 H 0.527531 0.286142 0.166451
H34_12 H 0.542096 0.0769807 0.166136
H35_12 H 0.576854 0.0483572 0.219138
H36_12 H 0.536761 0.0268354 0.168402
H1_12 H 0.69211 0.0208498 0.965054
H3_12 H 0.691067 0.0712694 0.967047
H4_12 H 0.524733 0.128018 0.964689
H6_12 H 0.575147 0.129008 0.96742
H7_12 H 0.576798 0.259411 0.797034
H8_12 H 0.551526 0.296242 0.851665
H9_12 H 0.526394 0.260355 0.793388
H12_12 H 0.623021 0.264811 0.699212
H13_12 H 0.614125 0.309595 0.64924
H14_12 H 0.656393 0.302284 0.71111
H15_12 H 0.566007 0.0754228 0.800861
H16_12 H 0.526829 0.0516166 0.849909
H17_12 H 0.562876 0.0251339 0.795554
H25_12 H 0.749709 0.21495 0.530583
H26_12 H 0.72917 0.196451 0.432199
H27_12 H 0.712291 0.181249 0.537218
H31_12 H 0.60675 0.279191 0.334488
H32_12 H 0.650392 0.277542 0.275648
H33_12 H 0.636398 0.319955 0.330302
H18_12 H 0.578612 0.996542 0.690135
H19_12 H 0.60824 0.978929 0.619126
H1_13 H 0.0208498 0.69211 0.034946
H3_13 H 0.0712694 0.691067 0.0329534
H4_13 H 0.128018 0.524733 0.0353111
H6_13 H 0.129008 0.575147 0.0325798
H7_13 H 0.259411 0.576798 0.202966
H8_13 H 0.296242 0.551526 0.148335
H9_13 H 0.260355 0.526394 0.206612
H12_13 H 0.264811 0.623021 0.300788
H13_13 H 0.309595 0.614125 0.35076
H14_13 H 0.302284 0.656393 0.28889
H15_13 H 0.0754228 0.566007 0.199139
H16_13 H 0.0516166 0.526829 0.150091
H17_13 H 0.0251339 0.562876 0.204446
H25_13 H 0.21495 0.749709 0.469417
H26_13 H 0.196451 0.72917 0.567801
H27_13 H 0.181249 0.712291 0.462782
H31_13 H 0.279191 0.60675 0.665512
H32_13 H 0.277542 0.650392 0.724352
H33_13 H 0.319955 0.636398 0.669698
H2_13 H 0.0453198 0.691604 0.932101
H5_13 H 0.128493 0.548926 0.932109
H28_13 H 0.281989 0.577794 0.832196
H29_13 H 0.247877 0.549392 0.776342
H30_13 H 0.286142 0.527531 0.833549
H34_13 H 0.0769807 0.542096 0.833864
H35_13 H 0.0483572 0.576854 0.780862
H36_13 H 0.0268354 0.536761 0.831598
H18_13 H 0.996542 0.578612 0.309865
H19_13 H 0.978929 0.60824 0.380874
H18_14 H 0.00345778 0.421388 0.309865
H19_14 H 0.021071 0.39176 0.380874
H1_14 H 0.97915 0.30789 0.034946
H3_14 H 0.928731 0.308933 0.0329534
H4_14 H 0.871982 0.475267 0.0353111
H6_14 H 0.870992 0.424853 0.0325798
H7_14 H 0.740589 0.423202 0.202966
H8_14 H 0.703758 0.448474 0.148335
H9_14 H 0.739645 0.473606 0.206612
H12_14 H 0.735189 0.376979 0.300788
H13_14 H 0.690405 0.385875 0.35076
H14_14 H 0.697716 0.343607 0.28889
H15_14 H 0.924577 0.433993 0.199139
H16_14 H 0.948383 0.473171 0.150091
H17_14 H 0.974866 0.437124 0.204446
H25_14 H 0.78505 0.250291 0.469417
H26_14 H 0.803549 0.27083 0.567801
H27_14 H 0.818751 0.287709 0.462782
H31_14 H 0.720809 0.39325 0.665512
H32_14 H 0.722458 0.349608 0.724352
H33_14 H 0.680045 0.363602 0.669698
H2_14 H 0.95468 0.308396 0.932101
H5_14 H 0.871507 0.451074 0.932109
H28_14 H 0.718011 0.422206 0.832196
H29_14 H 0.752123 0.450608 0.776342
H30_14 H 0.713858 0.472469 0.833549
H34_14 H 0.923019 0.457904 0.833864
H35_14 H 0.951643 0.423146 0.780862
H36_14 H 0.973165 0.463239 0.831598
H18_15 H 0.578612 0.00345778 0.309865
H19_15 H 0.60824 0.021071 0.380874
H1_15 H 0.69211 0.97915 0.034946
H3_15 H 0.691067 0.928731 0.0329534
H4_15 H 0.524733 0.871982 0.0353111
H6_15 H 0.575147 0.870992 0.0325798
H7_15 H 0.576798 0.740589 0.202966
H8_15 H 0.551526 0.703758 0.148335
H9_15 H 0.526394 0.739645 0.206612
H12_15 H 0.623021 0.735189 0.300788
H13_15 H 0.614125 0.690405 0.35076
H14_15 H 0.656393 0.697716 0.28889
H15_15 H 0.566007 0.924577 0.199139
H16_15 H 0.526829 0.948383 0.150091
H17_15 H 0.562876 0.974866 0.204446
H25_15 H 0.749709 0.78505 0.469417
H26_15 H 0.72917 0.803549 0.567801
H27_15 H 0.712291 0.818751 0.462782
H31_15 H 0.60675 0.720809 0.665512
H32_15 H 0.650392 0.722458 0.724352
H33_15 H 0.636398 0.680045 0.669698
H2_15 H 0.691604 0.95468 0.932101
H5_15 H 0.548926 0.871507 0.932109
H28_15 H 0.577794 0.718011 0.832196
H29_15 H 0.549392 0.752123 0.776342
H30_15 H 0.527531 0.713858 0.833549
H34_15 H 0.542096 0.923019 0.833864
H35_15 H 0.576854 0.951643 0.780862
H36_15 H 0.536761 0.973165 0.831598
H1_16 H 0.30789 0.0208498 0.034946
H3_16 H 0.308933 0.0712694 0.0329534
H4_16 H 0.475267 0.128018 0.0353111
H6_16 H 0.424853 0.129008 0.0325798
H7_16 H 0.423202 0.259411 0.202966
H8_16 H 0.448474 0.296242 0.148335
H9_16 H 0.473606 0.260355 0.206612
H12_16 H 0.376979 0.264811 0.300788
H13_16 H 0.385875 0.309595 0.35076
H14_16 H 0.343607 0.302284 0.28889
H15_16 H 0.433993 0.0754228 0.199139
H16_16 H 0.473171 0.0516166 0.150091
H17_16 H 0.437124 0.0251339 0.204446
H25_16 H 0.250291 0.21495 0.469417
H26_16 H 0.27083 0.196451 0.567801
H27_16 H 0.287709 0.181249 0.462782
H31_16 H 0.39325 0.279191 0.665512
H32_16 H 0.349608 0.277542 0.724352
H33_16 H 0.363602 0.319955 0.669698
H2_16 H 0.308396 0.0453198 0.932101
H5_16 H 0.451074 0.128493 0.932109
H28_16 H 0.422206 0.281989 0.832196
H29_16 H 0.450608 0.247877 0.776342
H30_16 H 0.472469 0.286142 0.833549
H34_16 H 0.457904 0.0769807 0.833864
H35_16 H 0.423146 0.0483572 0.780862
H36_16 H 0.463239 0.0268354 0.831598
H18_16 H 0.421388 0.996542 0.309865
H19_16 H 0.39176 0.978929 0.380874
loop_
_geom_bond_atom_site_label_1
_geom_bond_atom_site_label_2
_geom_bond_site_symmetry_1
_geom_bond_site_symmetry_2
Cu1 N1 1_555 1_555
Cu2 N2 1_555 1_555
Cu3 N3 1_555 1_555
Ni1 O1 1_555 1_555
N1 C3 1_555 1_555
N2 C5 1_555 1_555
N3 C1 1_555 1_555
O1 C1 1_555 1_555
O2 Ni1 1_555 1_555
O3 Cu3 1_555 1_555
O4 Ni1 1_555 1_555
O5 Ni1 1_555 1_555
O6 Cu2 1_555 1_555
O7 Ni1 1_555 1_555
O8 Ni1 1_555 1_555
O9 Cu1 1_555 1_555
C1 C2 1_555 1_555
C2 O2 1_555 1_555
C3 O7 1_555 1_555
C4 O8 1_555 1_555
C5 O4 1_555 1_555
C6 O5 1_555 1_555
C7 N1 1_555 1_555
C8 C7 1_555 1_555
C9 C8 1_555 1_555
C10 C7 1_555 1_555
C11 C10 1_555 1_555
C12 C8 1_555 1_555
C13 N2 1_555 1_555
C14 C13 1_555 1_555
C15 C14 1_555 1_555
C16 C13 1_555 1_555
C17 C16 1_555 1_555
C18 C14 1_555 1_555
C19 N3 1_555 1_555
C20 C19 1_555 1_555
C21 C20 1_555 1_555
C22 C19 1_555 1_555
C23 C22 1_555 1_555
C24 C20 1_555 1_555
O10 Cu1 1_555 1_555
O11 Cu2 1_555 1_555
O12 Cu3 1_555 1_555
N4 C25 1_555 1_555
O13 C25 1_555 1_555
O14 C26 1_555 1_555
O15 C26 1_555 1_555
C25 C26 1_555 1_555
C27 C10 1_555 1_555
C28 C9 1_555 1_555
C29 C28 1_555 1_555
Ni2 O13 1_555 1_555
Cu4 N4 1_555 1_555
N7 Cu1 1_555 1_555
N8 Cu2 1_555 1_555
O22 Ni2 1_555 1_555
O23 Ni2 1_555 1_555
O25 Ni2 1_555 1_555
O26 Ni2 1_555 1_555
O27 Cu2 1_555 1_555
O28 Cu1 1_555 1_555
O3 C2 1_555 1_555
O6 C6 1_555 1_555
O9 C4 1_555 1_555
C3 C4 1_555 1_555
C5 C6 1_555 1_555
N4 C27 1_555 1_555
O14 Ni2 1_555 1_555
O15 Cu4 1_555 1_555
C27 C28 1_555 1_555
C23 H1 1_555 1_555
C23 H3 1_555 1_555
C17 H4 1_555 1_555
C17 H6 1_555 1_555
C18 H7 1_555 1_555
C18 H8 1_555 1_555
C18 H9 1_555 1_555
C21 H10 1_555 1_555
C15 H11 1_555 1_555
C12 H12 1_555 1_555
C12 H13 1_555 1_555
C12 H14 1_555 1_555
C24 H15 1_555 1_555
C24 H16 1_555 1_555
C24 H17 1_555 1_555
C9 H22 1_555 1_555
C11 H25 1_555 1_555
C11 H26 1_555 1_555
C11 H27 1_555 1_555
C29 H31 1_555 1_555
C29 H32 1_555 1_555
C29 H33 1_555 1_555
C17_2 C16_2 1_555 1_555
C23_2 C22_2 1_555 1_555
N5 C30 1_555 1_555
O25 C30 1_555 1_555
O26 C31 1_555 1_555
O18 C31 1_555 1_555
C30 C31 1_555 1_555
C32 C16_2 1_555 1_555
C33 C15_2 1_555 1_555
C34 C33 1_555 1_555
N6 C35 1_555 1_555
O22 C35 1_555 1_555
O23 C36 1_555 1_555
O21 C36 1_555 1_555
C35 C36 1_555 1_555
C37 C22_2 1_555 1_555
C38 C21_2 1_555 1_555
C39 C38 1_555 1_555
Cu5 N5 1_555 1_555
Cu6 N6 1_555 1_555
N5 C32 1_555 1_555
O18 Cu5 1_555 1_555
C32 C33 1_555 1_555
N6 C37 1_555 1_555
O21 Cu6 1_555 1_555
C37 C38 1_555 1_555
C23_2 H2 1_555 1_555
C17_2 H5 1_555 1_555
C21_2 H10_2 1_555 1_555
C15_2 H11_2 1_555 1_555
C34 H28 1_555 1_555
C34 H29 1_555 1_555
C34 H30 1_555 1_555
C39 H34 1_555 1_555
C39 H35 1_555 1_555
C39 H36 1_555 1_555
O12_2 Cu3_2 1_555 1_555
N9 Cu3_2 1_555 1_555
O24 Cu3_2 1_555 1_555
O12_2 H18 1_555 1_555
O12_2 H19 1_555 1_555
O12_3 Cu3_3 1_555 1_555
N9_2 Cu3_3 1_555 1_555
O24_2 Cu3_3 1_555 1_555
O12_3 H18_2 1_555 1_555
O12_3 H19_2 1_555 1_555
Cu1_2 N1_2 1_555 1_555
Cu2_2 N2_2 1_555 1_555
Cu3_4 N3_2 1_555 1_555
Ni1_2 O1_2 1_555 1_555
N1_2 C3_2 1_555 1_555
N2_2 C5_2 1_555 1_555
N3_2 C1_2 1_555 1_555
O1_2 C1_2 1_555 1_555
O2_2 Ni1_2 1_555 1_555
O3_2 Cu3_4 1_555 1_555
O4_2 Ni1_2 1_555 1_555
O5_2 Ni1_2 1_555 1_555
O6_2 Cu2_2 1_555 1_555
O7_2 Ni1_2 1_555 1_555
O8_2 Ni1_2 1_555 1_555
O9_2 Cu1_2 1_555 1_555
C1_2 C2_2 1_555 1_555
C2_2 O2_2 1_555 1_555
C3_2 O7_2 1_555 1_555
C4_2 O8_2 1_555 1_555
C5_2 O4_2 1_555 1_555
C6_2 O5_2 1_555 1_555
C7_2 N1_2 1_555 1_555
C8_2 C7_2 1_555 1_555
C9_2 C8_2 1_555 1_555
C10_2 C7_2 1_555 1_555
C11_2 C10_2 1_555 1_555
C12_2 C8_2 1_555 1_555
C13_2 N2_2 1_555 1_555
C14_2 C13_2 1_555 1_555
C15_3 C14_2 1_555 1_555
C16_3 C13_2 1_555 1_555
C17_3 C16_3 1_555 1_555
C18_2 C14_2 1_555 1_555
C19_2 N3_2 1_555 1_555
C20_2 C19_2 1_555 1_555
C21_3 C20_2 1_555 1_555
C22_3 C19_2 1_555 1_555
C23_3 C22_3 1_555 1_555
C24_2 C20_2 1_555 1_555
O10_2 Cu1_2 1_555 1_555
O11_2 Cu2_2 1_555 1_555
O12_4 Cu3_4 1_555 1_555
N4_2 C25_2 1_555 1_555
O13_2 C25_2 1_555 1_555
O14_2 C26_2 1_555 1_555
O15_2 C26_2 1_555 1_555
C25_2 C26_2 1_555 1_555
C27_2 C10_2 1_555 1_555
C28_2 C9_2 1_555 1_555
C29_2 C28_2 1_555 1_555
Ni2_2 O13_2 1_555 1_555
Cu4_2 N4_2 1_555 1_555
N7_2 Cu1_2 1_555 1_555
N8_2 Cu2_2 1_555 1_555
O22_2 Ni2_2 1_555 1_555
O23_2 Ni2_2 1_555 1_555
O25_2 Ni2_2 1_555 1_555
O26_2 Ni2_2 1_555 1_555
O27_2 Cu2_2 1_555 1_555
O28_2 Cu1_2 1_555 1_555
O3_2 C2_2 1_555 1_555
O6_2 C6_2 1_555 1_555
O9_2 C4_2 1_555 1_555
C3_2 C4_2 1_555 1_555
C5_2 C6_2 1_555 1_555
N4_2 C27_2 1_555 1_555
O14_2 Ni2_2 1_555 1_555
O15_2 Cu4_2 1_555 1_555
C27_2 C28_2 1_555 1_555
C23_3 H1_2 1_555 1_555
C23_3 H3_2 1_555 1_555
C17_3 H4_2 1_555 1_555
C17_3 H6_2 1_555 1_555
C18_2 H7_2 1_555 1_555
C18_2 H8_2 1_555 1_555
C18_2 H9_2 1_555 1_555
C21_3 H10_3 1_555 1_555
C15_3 H11_3 1_555 1_555
C12_2 H12_2 1_555 1_555
C12_2 H13_2 1_555 1_555
C12_2 H14_2 1_555 1_555
C24_2 H15_2 1_555 1_555
C24_2 H16_2 1_555 1_555
C24_2 H17_2 1_555 1_555
C9_2 H22_2 1_555 1_555
C11_2 H25_2 1_555 1_555
C11_2 H26_2 1_555 1_555
C11_2 H27_2 1_555 1_555
C29_2 H31_2 1_555 1_555
C29_2 H32_2 1_555 1_555
C29_2 H33_2 1_555 1_555
C17_4 C16_4 1_555 1_555
C23_4 C22_4 1_555 1_555
N5_2 C30_2 1_555 1_555
O25_2 C30_2 1_555 1_555
O26_2 C31_2 1_555 1_555
O18_2 C31_2 1_555 1_555
C30_2 C31_2 1_555 1_555
C32_2 C16_4 1_555 1_555
C33_2 C15_4 1_555 1_555
C34_2 C33_2 1_555 1_555
N6_2 C35_2 1_555 1_555
O22_2 C35_2 1_555 1_555
O23_2 C36_2 1_555 1_555
O21_2 C36_2 1_555 1_555
C35_2 C36_2 1_555 1_555
C37_2 C22_4 1_555 1_555
C38_2 C21_4 1_555 1_555
C39_2 C38_2 1_555 1_555
Cu5_2 N5_2 1_555 1_555
Cu6_4 N6_2 1_555 1_555
N5_2 C32_2 1_555 1_555
O18_2 Cu5_2 1_555 1_555
C32_2 C33_2 1_555 1_555
N6_2 C37_2 1_555 1_555
O21_2 Cu6_4 1_555 1_555
C37_2 C38_2 1_555 1_555
C23_4 H2_2 1_555 1_555
C17_4 H5_2 1_555 1_555
C21_4 H10_4 1_555 1_555
C15_4 H11_4 1_555 1_555
C34_2 H28_2 1_555 1_555
C34_2 H29_2 1_555 1_555
C34_2 H30_2 1_555 1_555
C39_2 H34_2 1_555 1_555
C39_2 H35_2 1_555 1_555
C39_2 H36_2 1_555 1_555
Cu1_3 N1_3 1_555 1_555
Cu2_3 N2_3 1_555 1_555
Cu3_5 N3_3 1_555 1_555
Ni1_3 O1_3 1_555 1_555
N1_3 C3_3 1_555 1_555
N2_3 C5_3 1_555 1_555
N3_3 C1_3 1_555 1_555
O1_3 C1_3 1_555 1_555
O2_3 Ni1_3 1_555 1_555
O3_3 Cu3_5 1_555 1_555
O4_3 Ni1_3 1_555 1_555
O5_3 Ni1_3 1_555 1_555
O6_3 Cu2_3 1_555 1_555
O7_3 Ni1_3 1_555 1_555
O8_3 Ni1_3 1_555 1_555
O9_3 Cu1_3 1_555 1_555
C1_3 C2_3 1_555 1_555
C2_3 O2_3 1_555 1_555
C3_3 O7_3 1_555 1_555
C4_3 O8_3 1_555 1_555
C5_3 O4_3 1_555 1_555
C6_3 O5_3 1_555 1_555
C7_3 N1_3 1_555 1_555
C8_3 C7_3 1_555 1_555
C9_3 C8_3 1_555 1_555
C10_3 C7_3 1_555 1_555
C11_3 C10_3 1_555 1_555
C12_3 C8_3 1_555 1_555
C13_3 N2_3 1_555 1_555
C14_3 C13_3 1_555 1_555
C15_5 C14_3 1_555 1_555
C16_5 C13_3 1_555 1_555
C17_5 C16_5 1_555 1_555
C18_3 C14_3 1_555 1_555
C19_3 N3_3 1_555 1_555
C20_3 C19_3 1_555 1_555
C21_5 C20_3 1_555 1_555
C22_5 C19_3 1_555 1_555
C23_5 C22_5 1_555 1_555
C24_3 C20_3 1_555 1_555
O10_3 Cu1_3 1_555 1_555
O11_3 Cu2_3 1_555 1_555
O12_5 Cu3_5 1_555 1_555
N4_3 C25_3 1_555 1_555
O13_3 C25_3 1_555 1_555
O14_3 C26_3 1_555 1_555
O15_3 C26_3 1_555 1_555
C25_3 C26_3 1_555 1_555
C27_3 C10_3 1_555 1_555
C28_3 C9_3 1_555 1_555
C29_3 C28_3 1_555 1_555
Ni2_3 O13_3 1_555 1_555
Cu4_3 N4_3 1_555 1_555
N7_3 Cu1_3 1_555 1_555
N8_3 Cu2_3 1_555 1_555
O22_3 Ni2_3 1_555 1_555
O23_3 Ni2_3 1_555 1_555
O25_3 Ni2_3 1_555 1_555
O26_3 Ni2_3 1_555 1_555
O27_3 Cu2_3 1_555 1_555
O28_3 Cu1_3 1_555 1_555
O3_3 C2_3 1_555 1_555
O6_3 C6_3 1_555 1_555
O9_3 C4_3 1_555 1_555
C3_3 C4_3 1_555 1_555
C5_3 C6_3 1_555 1_555
N4_3 C27_3 1_555 1_555
O14_3 Ni2_3 1_555 1_555
O15_3 Cu4_3 1_555 1_555
C27_3 C28_3 1_555 1_555
C23_5 H1_3 1_555 1_555
C23_5 H3_3 1_555 1_555
C17_5 H4_3 1_555 1_555
C17_5 H6_3 1_555 1_555
C18_3 H7_3 1_555 1_555
C18_3 H8_3 1_555 1_555
C18_3 H9_3 1_555 1_555
C21_5 H10_5 1_555 1_555
C15_5 H11_5 1_555 1_555
C12_3 H12_3 1_555 1_555
C12_3 H13_3 1_555 1_555
C12_3 H14_3 1_555 1_555
C24_3 H15_3 1_555 1_555
C24_3 H16_3 1_555 1_555
C24_3 H17_3 1_555 1_555
C9_3 H22_3 1_555 1_555
C11_3 H25_3 1_555 1_555
C11_3 H26_3 1_555 1_555
C11_3 H27_3 1_555 1_555
C29_3 H31_3 1_555 1_555
C29_3 H32_3 1_555 1_555
C29_3 H33_3 1_555 1_555
C17_6 C16_6 1_555 1_555
C23_6 C22_6 1_555 1_555
N5_3 C30_3 1_555 1_555
O25_3 C30_3 1_555 1_555
O26_3 C31_3 1_555 1_555
O18_3 C31_3 1_555 1_555
C30_3 C31_3 1_555 1_555
C32_3 C16_6 1_555 1_555
C33_3 C15_6 1_555 1_555
C34_3 C33_3 1_555 1_555
N6_3 C35_3 1_555 1_555
O22_3 C35_3 1_555 1_555
O23_3 C36_3 1_555 1_555
O21_3 C36_3 1_555 1_555
C35_3 C36_3 1_555 1_555
C37_3 C22_6 1_555 1_555
C38_3 C21_6 1_555 1_555
C39_3 C38_3 1_555 1_555
Cu5_3 N5_3 1_555 1_555
Cu6_5 N6_3 1_555 1_555
N5_3 C32_3 1_555 1_555
O18_3 Cu5_3 1_555 1_555
C32_3 C33_3 1_555 1_555
N6_3 C37_3 1_555 1_555
O21_3 Cu6_5 1_555 1_555
C37_3 C38_3 1_555 1_555
C23_6 H2_3 1_555 1_555
C17_6 H5_3 1_555 1_555
C21_6 H10_6 1_555 1_555
C15_6 H11_6 1_555 1_555
C34_3 H28_3 1_555 1_555
C34_3 H29_3 1_555 1_555
C34_3 H30_3 1_555 1_555
C39_3 H34_3 1_555 1_555
C39_3 H35_3 1_555 1_555
C39_3 H36_3 1_555 1_555
O12_6 Cu3_6 1_555 1_555
N9_3 Cu3_6 1_555 1_555
O24_3 Cu3_6 1_555 1_555
O12_6 H18_3 1_555 1_555
O12_6 H19_3 1_555 1_555
O12_7 Cu3_7 1_555 1_555
N9_4 Cu3_7 1_555 1_555
O24_4 Cu3_7 1_555 1_555
O12_7 H18_4 1_555 1_555
O12_7 H19_4 1_555 1_555
Cu1_4 N1_4 1_555 1_555
Cu2_4 N2_4 1_555 1_555
Cu3_8 N3_4 1_555 1_555
Ni1_4 O1_4 1_555 1_555
N1_4 C3_4 1_555 1_555
N2_4 C5_4 1_555 1_555
N3_4 C1_4 1_555 1_555
O1_4 C1_4 1_555 1_555
O2_4 Ni1_4 1_555 1_555
O3_4 Cu3_8 1_555 1_555
O4_4 Ni1_4 1_555 1_555
O5_4 Ni1_4 1_555 1_555
O6_4 Cu2_4 1_555 1_555
O7_4 Ni1_4 1_555 1_555
O8_4 Ni1_4 1_555 1_555
O9_4 Cu1_4 1_555 1_555
C1_4 C2_4 1_555 1_555
C2_4 O2_4 1_555 1_555
C3_4 O7_4 1_555 1_555
C4_4 O8_4 1_555 1_555
C5_4 O4_4 1_555 1_555
C6_4 O5_4 1_555 1_555
C7_4 N1_4 1_555 1_555
C8_4 C7_4 1_555 1_555
C9_4 C8_4 1_555 1_555
C10_4 C7_4 1_555 1_555
C11_4 C10_4 1_555 1_555
C12_4 C8_4 1_555 1_555
C13_4 N2_4 1_555 1_555
C14_4 C13_4 1_555 1_555
C15_7 C14_4 1_555 1_555
C16_7 C13_4 1_555 1_555
C17_7 C16_7 1_555 1_555
C18_4 C14_4 1_555 1_555
C19_4 N3_4 1_555 1_555
C20_4 C19_4 1_555 1_555
C21_7 C20_4 1_555 1_555
C22_7 C19_4 1_555 1_555
C23_7 C22_7 1_555 1_555
C24_4 C20_4 1_555 1_555
O10_4 Cu1_4 1_555 1_555
O11_4 Cu2_4 1_555 1_555
O12_8 Cu3_8 1_555 1_555
N4_4 C25_4 1_555 1_555
O13_4 C25_4 1_555 1_555
O14_4 C26_4 1_555 1_555
O15_4 C26_4 1_555 1_555
C25_4 C26_4 1_555 1_555
C27_4 C10_4 1_555 1_555
C28_4 C9_4 1_555 1_555
C29_4 C28_4 1_555 1_555
Ni2_4 O13_4 1_555 1_555
Cu4_4 N4_4 1_555 1_555
N7_4 Cu1_4 1_555 1_555
N8_4 Cu2_4 1_555 1_555
O22_4 Ni2_4 1_555 1_555
O23_4 Ni2_4 1_555 1_555
O25_4 Ni2_4 1_555 1_555
O26_4 Ni2_4 1_555 1_555
O27_4 Cu2_4 1_555 1_555
O28_4 Cu1_4 1_555 1_555
O3_4 C2_4 1_555 1_555
O6_4 C6_4 1_555 1_555
O9_4 C4_4 1_555 1_555
C3_4 C4_4 1_555 1_555
C5_4 C6_4 1_555 1_555
N4_4 C27_4 1_555 1_555
O14_4 Ni2_4 1_555 1_555
O15_4 Cu4_4 1_555 1_555
C27_4 C28_4 1_555 1_555
C23_7 H1_4 1_555 1_555
C23_7 H3_4 1_555 1_555
C17_7 H4_4 1_555 1_555
C17_7 H6_4 1_555 1_555
C18_4 H7_4 1_555 1_555
C18_4 H8_4 1_555 1_555
C18_4 H9_4 1_555 1_555
C21_7 H10_7 1_555 1_555
C15_7 H11_7 1_555 1_555
C12_4 H12_4 1_555 1_555
C12_4 H13_4 1_555 1_555
C12_4 H14_4 1_555 1_555
C24_4 H15_4 1_555 1_555
C24_4 H16_4 1_555 1_555
C24_4 H17_4 1_555 1_555
C9_4 H22_4 1_555 1_555
C11_4 H25_4 1_555 1_555
C11_4 H26_4 1_555 1_555
C11_4 H27_4 1_555 1_555
C29_4 H31_4 1_555 1_555
C29_4 H32_4 1_555 1_555
C29_4 H33_4 1_555 1_555
C17_8 C16_8 1_555 1_555
C23_8 C22_8 1_555 1_555
N5_4 C30_4 1_555 1_555
O25_4 C30_4 1_555 1_555
O26_4 C31_4 1_555 1_555
O18_4 C31_4 1_555 1_555
C30_4 C31_4 1_555 1_555
C32_4 C16_8 1_555 1_555
C33_4 C15_8 1_555 1_555
C34_4 C33_4 1_555 1_555
N6_4 C35_4 1_555 1_555
O22_4 C35_4 1_555 1_555
O23_4 C36_4 1_555 1_555
O21_4 C36_4 1_555 1_555
C35_4 C36_4 1_555 1_555
C37_4 C22_8 1_555 1_555
C38_4 C21_8 1_555 1_555
C39_4 C38_4 1_555 1_555
Cu5_4 N5_4 1_555 1_555
Cu6_8 N6_4 1_555 1_555
N5_4 C32_4 1_555 1_555
O18_4 Cu5_4 1_555 1_555
C32_4 C33_4 1_555 1_555
N6_4 C37_4 1_555 1_555
O21_4 Cu6_8 1_555 1_555
C37_4 C38_4 1_555 1_555
C23_8 H2_4 1_555 1_555
C17_8 H5_4 1_555 1_555
C21_8 H10_8 1_555 1_555
C15_8 H11_8 1_555 1_555
C34_4 H28_4 1_555 1_555
C34_4 H29_4 1_555 1_555
C34_4 H30_4 1_555 1_555
C39_4 H34_4 1_555 1_555
C39_4 H35_4 1_555 1_555
C39_4 H36_4 1_555 1_555
O12_9 Cu6 1_555 1_555
O12_9 H18_5 1_555 1_555
O12_9 H19_5 1_555 1_555
C17_9 C16_9 1_555 1_555
C23_9 C22_9 1_555 1_555
N8_2 C30_5 1_555 1_555
O16 C30_5 1_555 1_555
O17 C31_5 1_555 1_555
O27_2 C31_5 1_555 1_555
C30_5 C31_5 1_555 1_555
C32_5 C16_9 1_555 1_555
C33_5 C15_9 1_555 1_555
C34_5 C33_5 1_555 1_555
N9 C35_5 1_555 1_555
O19 C35_5 1_555 1_555
O20 C36_5 1_555 1_555
O24 C36_5 1_555 1_555
C35_5 C36_5 1_555 1_555
C37_5 C22_9 1_555 1_555
C38_5 C21_9 1_555 1_555
C39_5 C38_5 1_555 1_555
Ni3 O16 1_555 1_555
N8_2 C32_5 1_555 1_555
O17 Ni3 1_555 1_555
C32_5 C33_5 1_555 1_555
N9 C37_5 1_555 1_555
O19 Ni3 1_555 1_555
O20 Ni3 1_555 1_555
C37_5 C38_5 1_555 1_555
C23_9 H2_5 1_555 1_555
C17_9 H5_5 1_555 1_555
C21_9 H10_9 1_555 1_555
C15_9 H11_9 1_555 1_555
C34_5 H28_5 1_555 1_555
C34_5 H29_5 1_555 1_555
C34_5 H30_5 1_555 1_555
C39_5 H34_5 1_555 1_555
C39_5 H35_5 1_555 1_555
C39_5 H36_5 1_555 1_555
Cu4_3 N1_5 1_555 1_555
Cu5_2 N2_5 1_555 1_555
Cu6_2 N3_5 1_555 1_555
Ni1_5 O1_5 1_555 1_555
N1_5 C3_5 1_555 1_555
N2_5 C5_5 1_555 1_555
N3_5 C1_5 1_555 1_555
O1_5 C1_5 1_555 1_555
O2_5 Ni1_5 1_555 1_555
O3_5 Cu6_2 1_555 1_555
O4_5 Ni1_5 1_555 1_555
O5_5 Ni1_5 1_555 1_555
O6_5 Cu5_2 1_555 1_555
O7_5 Ni1_5 1_555 1_555
O8_5 Ni1_5 1_555 1_555
O9_5 Cu4_3 1_555 1_555
C1_5 C2_5 1_555 1_555
C2_5 O2_5 1_555 1_555
C3_5 O7_5 1_555 1_555
C4_5 O8_5 1_555 1_555
C5_5 O4_5 1_555 1_555
C6_5 O5_5 1_555 1_555
C7_5 N1_5 1_555 1_555
C8_5 C7_5 1_555 1_555
C9_5 C8_5 1_555 1_555
C10_5 C7_5 1_555 1_555
C11_5 C10_5 1_555 1_555
C12_5 C8_5 1_555 1_555
C13_5 N2_5 1_555 1_555
C14_5 C13_5 1_555 1_555
C15_10 C14_5 1_555 1_555
C16_10 C13_5 1_555 1_555
C17_10 C16_10 1_555 1_555
C18_5 C14_5 1_555 1_555
C19_5 N3_5 1_555 1_555
C20_5 C19_5 1_555 1_555
C21_10 C20_5 1_555 1_555
C22_10 C19_5 1_555 1_555
C23_10 C22_10 1_555 1_555
C24_5 C20_5 1_555 1_555
O10_5 Cu4_3 1_555 1_555
O11_5 Cu5_2 1_555 1_555
O12_10 Cu6_2 1_555 1_555
N7_3 C25_5 1_555 1_555
O13_5 C25_5 1_555 1_555
O14_5 C26_5 1_555 1_555
O28_3 C26_5 1_555 1_555
C25_5 C26_5 1_555 1_555
C27_5 C10_5 1_555 1_555
C28_5 C9_5 1_555 1_555
C29_5 C28_5 1_555 1_555
Ni3 O13_5 1_555 1_555
O3_5 C2_5 1_555 1_555
O6_5 C6_5 1_555 1_555
O9_5 C4_5 1_555 1_555
C3_5 C4_5 1_555 1_555
C5_5 C6_5 1_555 1_555
N7_3 C27_5 1_555 1_555
O14_5 Ni3 1_555 1_555
C27_5 C28_5 1_555 1_555
C23_10 H1_5 1_555 1_555
C23_10 H3_5 1_555 1_555
C17_10 H4_5 1_555 1_555
C17_10 H6_5 1_555 1_555
C18_5 H7_5 1_555 1_555
C18_5 H8_5 1_555 1_555
C18_5 H9_5 1_555 1_555
C21_10 H10_10 1_555 1_555
C15_10 H11_10 1_555 1_555
C12_5 H12_5 1_555 1_555
C12_5 H13_5 1_555 1_555
C12_5 H14_5 1_555 1_555
C24_5 H15_5 1_555 1_555
C24_5 H16_5 1_555 1_555
C24_5 H17_5 1_555 1_555
C9_5 H22_5 1_555 1_555
C11_5 H25_5 1_555 1_555
C11_5 H26_5 1_555 1_555
C11_5 H27_5 1_555 1_555
C29_5 H31_5 1_555 1_555
C29_5 H32_5 1_555 1_555
C29_5 H33_5 1_555 1_555
C17_11 C16_11 1_555 1_555
C23_11 C22_11 1_555 1_555
N8 C30_6 1_555 1_555
O16_2 C30_6 1_555 1_555
O17_2 C31_6 1_555 1_555
O27 C31_6 1_555 1_555
C30_6 C31_6 1_555 1_555
C32_6 C16_11 1_555 1_555
C33_6 C15_11 1_555 1_555
C34_6 C33_6 1_555 1_555
N9_2 C35_6 1_555 1_555
O19_2 C35_6 1_555 1_555
O20_2 C36_6 1_555 1_555
O24_2 C36_6 1_555 1_555
C35_6 C36_6 1_555 1_555
C37_6 C22_11 1_555 1_555
C38_6 C21_11 1_555 1_555
C39_6 C38_6 1_555 1_555
Ni3_2 O16_2 1_555 1_555
N8 C32_6 1_555 1_555
O17_2 Ni3_2 1_555 1_555
C32_6 C33_6 1_555 1_555
N9_2 C37_6 1_555 1_555
O19_2 Ni3_2 1_555 1_555
O20_2 Ni3_2 1_555 1_555
C37_6 C38_6 1_555 1_555
C23_11 H2_6 1_555 1_555
C17_11 H5_6 1_555 1_555
C21_11 H10_11 1_555 1_555
C15_11 H11_11 1_555 1_555
C34_6 H28_6 1_555 1_555
C34_6 H29_6 1_555 1_555
C34_6 H30_6 1_555 1_555
C39_6 H34_6 1_555 1_555
C39_6 H35_6 1_555 1_555
C39_6 H36_6 1_555 1_555
Cu4_4 N1_6 1_555 1_555
Cu5 N2_6 1_555 1_555
Cu6_3 N3_6 1_555 1_555
Ni1_6 O1_6 1_555 1_555
N1_6 C3_6 1_555 1_555
N2_6 C5_6 1_555 1_555
N3_6 C1_6 1_555 1_555
O1_6 C1_6 1_555 1_555
O2_6 Ni1_6 1_555 1_555
O3_6 Cu6_3 1_555 1_555
O4_6 Ni1_6 1_555 1_555
O5_6 Ni1_6 1_555 1_555
O6_6 Cu5 1_555 1_555
O7_6 Ni1_6 1_555 1_555
O8_6 Ni1_6 1_555 1_555
O9_6 Cu4_4 1_555 1_555
C1_6 C2_6 1_555 1_555
C2_6 O2_6 1_555 1_555
C3_6 O7_6 1_555 1_555
C4_6 O8_6 1_555 1_555
C5_6 O4_6 1_555 1_555
C6_6 O5_6 1_555 1_555
C7_6 N1_6 1_555 1_555
C8_6 C7_6 1_555 1_555
C9_6 C8_6 1_555 1_555
C10_6 C7_6 1_555 1_555
C11_6 C10_6 1_555 1_555
C12_6 C8_6 1_555 1_555
C13_6 N2_6 1_555 1_555
C14_6 C13_6 1_555 1_555
C15_12 C14_6 1_555 1_555
C16_12 C13_6 1_555 1_555
C17_12 C16_12 1_555 1_555
C18_6 C14_6 1_555 1_555
C19_6 N3_6 1_555 1_555
C20_6 C19_6 1_555 1_555
C21_12 C20_6 1_555 1_555
C22_12 C19_6 1_555 1_555
C23_12 C22_12 1_555 1_555
C24_6 C20_6 1_555 1_555
O10_6 Cu4_4 1_555 1_555
O11_6 Cu5 1_555 1_555
O12_11 Cu6_3 1_555 1_555
N7_4 C25_6 1_555 1_555
O13_6 C25_6 1_555 1_555
O14_6 C26_6 1_555 1_555
O28_4 C26_6 1_555 1_555
C25_6 C26_6 1_555 1_555
C27_6 C10_6 1_555 1_555
C28_6 C9_6 1_555 1_555
C29_6 C28_6 1_555 1_555
Ni3_2 O13_6 1_555 1_555
O3_6 C2_6 1_555 1_555
O6_6 C6_6 1_555 1_555
O9_6 C4_6 1_555 1_555
C3_6 C4_6 1_555 1_555
C5_6 C6_6 1_555 1_555
N7_4 C27_6 1_555 1_555
O14_6 Ni3_2 1_555 1_555
C27_6 C28_6 1_555 1_555
C23_12 H1_6 1_555 1_555
C23_12 H3_6 1_555 1_555
C17_12 H4_6 1_555 1_555
C17_12 H6_6 1_555 1_555
C18_6 H7_6 1_555 1_555
C18_6 H8_6 1_555 1_555
C18_6 H9_6 1_555 1_555
C21_12 H10_12 1_555 1_555
C15_12 H11_12 1_555 1_555
C12_6 H12_6 1_555 1_555
C12_6 H13_6 1_555 1_555
C12_6 H14_6 1_555 1_555
C24_6 H15_6 1_555 1_555
C24_6 H16_6 1_555 1_555
C24_6 H17_6 1_555 1_555
C9_6 H22_6 1_555 1_555
C11_6 H25_6 1_555 1_555
C11_6 H26_6 1_555 1_555
C11_6 H27_6 1_555 1_555
C29_6 H31_6 1_555 1_555
C29_6 H32_6 1_555 1_555
C29_6 H33_6 1_555 1_555
O12_12 Cu6_4 1_555 1_555
O12_12 H18_6 1_555 1_555
O12_12 H19_6 1_555 1_555
C17_13 C16_13 1_555 1_555
C23_13 C22_13 1_555 1_555
N8_3 C30_7 1_555 1_555
O16_3 C30_7 1_555 1_555
O17_3 C31_7 1_555 1_555
O27_3 C31_7 1_555 1_555
C30_7 C31_7 1_555 1_555
C32_7 C16_13 1_555 1_555
C33_7 C15_13 1_555 1_555
C34_7 C33_7 1_555 1_555
N9_4 C35_7 1_555 1_555
O19_3 C35_7 1_555 1_555
O20_3 C36_7 1_555 1_555
O24_4 C36_7 1_555 1_555
C35_7 C36_7 1_555 1_555
C37_7 C22_13 1_555 1_555
C38_7 C21_13 1_555 1_555
C39_7 C38_7 1_555 1_555
Ni3_3 O16_3 1_555 1_555
N8_3 C32_7 1_555 1_555
O17_3 Ni3_3 1_555 1_555
C32_7 C33_7 1_555 1_555
N9_4 C37_7 1_555 1_555
O19_3 Ni3_3 1_555 1_555
O20_3 Ni3_3 1_555 1_555
C37_7 C38_7 1_555 1_555
C23_13 H2_7 1_555 1_555
C17_13 H5_7 1_555 1_555
C21_13 H10_13 1_555 1_555
C15_13 H11_13 1_555 1_555
C34_7 H28_7 1_555 1_555
C34_7 H29_7 1_555 1_555
C34_7 H30_7 1_555 1_555
C39_7 H34_7 1_555 1_555
C39_7 H35_7 1_555 1_555
C39_7 H36_7 1_555 1_555
Cu4 N1_7 1_555 1_555
Cu5_3 N2_7 1_555 1_555
Cu6_7 N3_7 1_555 1_555
Ni1_7 O1_7 1_555 1_555
N1_7 C3_7 1_555 1_555
N2_7 C5_7 1_555 1_555
N3_7 C1_7 1_555 1_555
O1_7 C1_7 1_555 1_555
O2_7 Ni1_7 1_555 1_555
O3_7 Cu6_7 1_555 1_555
O4_7 Ni1_7 1_555 1_555
O5_7 Ni1_7 1_555 1_555
O6_7 Cu5_3 1_555 1_555
O7_7 Ni1_7 1_555 1_555
O8_7 Ni1_7 1_555 1_555
O9_7 Cu4 1_555 1_555
C1_7 C2_7 1_555 1_555
C2_7 O2_7 1_555 1_555
C3_7 O7_7 1_555 1_555
C4_7 O8_7 1_555 1_555
C5_7 O4_7 1_555 1_555
C6_7 O5_7 1_555 1_555
C7_7 N1_7 1_555 1_555
C8_7 C7_7 1_555 1_555
C9_7 C8_7 1_555 1_555
C10_7 C7_7 1_555 1_555
C11_7 C10_7 1_555 1_555
C12_7 C8_7 1_555 1_555
C13_7 N2_7 1_555 1_555
C14_7 C13_7 1_555 1_555
C15_14 C14_7 1_555 1_555
C16_14 C13_7 1_555 1_555
C17_14 C16_14 1_555 1_555
C18_7 C14_7 1_555 1_555
C19_7 N3_7 1_555 1_555
C20_7 C19_7 1_555 1_555
C21_14 C20_7 1_555 1_555
C22_14 C19_7 1_555 1_555
C23_14 C22_14 1_555 1_555
C24_7 C20_7 1_555 1_555
O10_7 Cu4 1_555 1_555
O11_7 Cu5_3 1_555 1_555
O12_13 Cu6_7 1_555 1_555
N7 C25_7 1_555 1_555
O13_7 C25_7 1_555 1_555
O14_7 C26_7 1_555 1_555
O28 C26_7 1_555 1_555
C25_7 C26_7 1_555 1_555
C27_7 C10_7 1_555 1_555
C28_7 C9_7 1_555 1_555
C29_7 C28_7 1_555 1_555
Ni3_3 O13_7 1_555 1_555
O3_7 C2_7 1_555 1_555
O6_7 C6_7 1_555 1_555
O9_7 C4_7 1_555 1_555
C3_7 C4_7 1_555 1_555
C5_7 C6_7 1_555 1_555
N7 C27_7 1_555 1_555
O14_7 Ni3_3 1_555 1_555
C27_7 C28_7 1_555 1_555
C23_14 H1_7 1_555 1_555
C23_14 H3_7 1_555 1_555
C17_14 H4_7 1_555 1_555
C17_14 H6_7 1_555 1_555
C18_7 H7_7 1_555 1_555
C18_7 H8_7 1_555 1_555
C18_7 H9_7 1_555 1_555
C21_14 H10_14 1_555 1_555
C15_14 H11_14 1_555 1_555
C12_7 H12_7 1_555 1_555
C12_7 H13_7 1_555 1_555
C12_7 H14_7 1_555 1_555
C24_7 H15_7 1_555 1_555
C24_7 H16_7 1_555 1_555
C24_7 H17_7 1_555 1_555
C9_7 H22_7 1_555 1_555
C11_7 H25_7 1_555 1_555
C11_7 H26_7 1_555 1_555
C11_7 H27_7 1_555 1_555
C29_7 H31_7 1_555 1_555
C29_7 H32_7 1_555 1_555
C29_7 H33_7 1_555 1_555
O12_14 Cu6_8 1_555 1_555
O12_14 H18_7 1_555 1_555
O12_14 H19_7 1_555 1_555
O12_15 Cu6_5 1_555 1_555
O12_15 H18_8 1_555 1_555
O12_15 H19_8 1_555 1_555
C17_15 C16_15 1_555 1_555
C23_15 C22_15 1_555 1_555
N8_4 C30_8 1_555 1_555
O16_4 C30_8 1_555 1_555
O17_4 C31_8 1_555 1_555
O27_4 C31_8 1_555 1_555
C30_8 C31_8 1_555 1_555
C32_8 C16_15 1_555 1_555
C33_8 C15_15 1_555 1_555
C34_8 C33_8 1_555 1_555
N9_3 C35_8 1_555 1_555
O19_4 C35_8 1_555 1_555
O20_4 C36_8 1_555 1_555
O24_3 C36_8 1_555 1_555
C35_8 C36_8 1_555 1_555
C37_8 C22_15 1_555 1_555
C38_8 C21_15 1_555 1_555
C39_8 C38_8 1_555 1_555
Ni3_4 O16_4 1_555 1_555
N8_4 C32_8 1_555 1_555
O17_4 Ni3_4 1_555 1_555
C32_8 C33_8 1_555 1_555
N9_3 C37_8 1_555 1_555
O19_4 Ni3_4 1_555 1_555
O20_4 Ni3_4 1_555 1_555
C37_8 C38_8 1_555 1_555
C23_15 H2_8 1_555 1_555
C17_15 H5_8 1_555 1_555
C21_15 H10_15 1_555 1_555
C15_15 H11_15 1_555 1_555
C34_8 H28_8 1_555 1_555
C34_8 H29_8 1_555 1_555
C34_8 H30_8 1_555 1_555
C39_8 H34_8 1_555 1_555
C39_8 H35_8 1_555 1_555
C39_8 H36_8 1_555 1_555
Cu4_2 N1_8 1_555 1_555
Cu5_4 N2_8 1_555 1_555
Cu6_6 N3_8 1_555 1_555
Ni1_8 O1_8 1_555 1_555
N1_8 C3_8 1_555 1_555
N2_8 C5_8 1_555 1_555
N3_8 C1_8 1_555 1_555
O1_8 C1_8 1_555 1_555
O2_8 Ni1_8 1_555 1_555
O3_8 Cu6_6 1_555 1_555
O4_8 Ni1_8 1_555 1_555
O5_8 Ni1_8 1_555 1_555
O6_8 Cu5_4 1_555 1_555
O7_8 Ni1_8 1_555 1_555
O8_8 Ni1_8 1_555 1_555
O9_8 Cu4_2 1_555 1_555
C1_8 C2_8 1_555 1_555
C2_8 O2_8 1_555 1_555
C3_8 O7_8 1_555 1_555
C4_8 O8_8 1_555 1_555
C5_8 O4_8 1_555 1_555
C6_8 O5_8 1_555 1_555
C7_8 N1_8 1_555 1_555
C8_8 C7_8 1_555 1_555
C9_8 C8_8 1_555 1_555
C10_8 C7_8 1_555 1_555
C11_8 C10_8 1_555 1_555
C12_8 C8_8 1_555 1_555
C13_8 N2_8 1_555 1_555
C14_8 C13_8 1_555 1_555
C15_16 C14_8 1_555 1_555
C16_16 C13_8 1_555 1_555
C17_16 C16_16 1_555 1_555
C18_8 C14_8 1_555 1_555
C19_8 N3_8 1_555 1_555
C20_8 C19_8 1_555 1_555
C21_16 C20_8 1_555 1_555
C22_16 C19_8 1_555 1_555
C23_16 C22_16 1_555 1_555
C24_8 C20_8 1_555 1_555
O10_8 Cu4_2 1_555 1_555
O11_8 Cu5_4 1_555 1_555
O12_16 Cu6_6 1_555 1_555
N7_2 C25_8 1_555 1_555
O13_8 C25_8 1_555 1_555
O14_8 C26_8 1_555 1_555
O28_2 C26_8 1_555 1_555
C25_8 C26_8 1_555 1_555
C27_8 C10_8 1_555 1_555
C28_8 C9_8 1_555 1_555
C29_8 C28_8 1_555 1_555
Ni3_4 O13_8 1_555 1_555
O3_8 C2_8 1_555 1_555
O6_8 C6_8 1_555 1_555
O9_8 C4_8 1_555 1_555
C3_8 C4_8 1_555 1_555
C5_8 C6_8 1_555 1_555
N7_2 C27_8 1_555 1_555
O14_8 Ni3_4 1_555 1_555
C27_8 C28_8 1_555 1_555
C23_16 H1_8 1_555 1_555
C23_16 H3_8 1_555 1_555
C17_16 H4_8 1_555 1_555
C17_16 H6_8 1_555 1_555
C18_8 H7_8 1_555 1_555
C18_8 H8_8 1_555 1_555
C18_8 H9_8 1_555 1_555
C21_16 H10_16 1_555 1_555
C15_16 H11_16 1_555 1_555
C12_8 H12_8 1_555 1_555
C12_8 H13_8 1_555 1_555
C12_8 H14_8 1_555 1_555
C24_8 H15_8 1_555 1_555
C24_8 H16_8 1_555 1_555
C24_8 H17_8 1_555 1_555
C9_8 H22_8 1_555 1_555
C11_8 H25_8 1_555 1_555
C11_8 H26_8 1_555 1_555
C11_8 H27_8 1_555 1_555
C29_8 H31_8 1_555 1_555
C29_8 H32_8 1_555 1_555
C29_8 H33_8 1_555 1_555
O12_11 H18_9 1_555 1_555
O12_11 H19_9 1_555 1_555
C23_3 H2_9 1_555 1_555
C17_3 H5_9 1_555 1_555
C18_2 H28_9 1_555 1_555
C18_2 H29_9 1_555 1_555
C18_2 H30_9 1_555 1_555
C24_2 H34_9 1_555 1_555
C24_2 H35_9 1_555 1_555
C24_2 H36_9 1_555 1_555
C23_4 H1_9 1_555 1_555
C23_4 H3_9 1_555 1_555
C17_4 H4_9 1_555 1_555
C17_4 H6_9 1_555 1_555
C34_2 H7_9 1_555 1_555
C34_2 H8_9 1_555 1_555
C34_2 H9_9 1_555 1_555
C29_2 H12_9 1_555 1_555
C29_2 H13_9 1_555 1_555
C29_2 H14_9 1_555 1_555
C39_2 H15_9 1_555 1_555
C39_2 H16_9 1_555 1_555
C39_2 H17_9 1_555 1_555
C11_2 H25_9 1_555 1_555
C11_2 H26_9 1_555 1_555
C11_2 H27_9 1_555 1_555
C12_2 H31_9 1_555 1_555
C12_2 H32_9 1_555 1_555
C12_2 H33_9 1_555 1_555
C23 H2_10 1_555 1_555
C17 H5_10 1_555 1_555
C18 H28_10 1_555 1_555
C18 H29_10 1_555 1_555
C18 H30_10 1_555 1_555
C24 H34_10 1_555 1_555
C24 H35_10 1_555 1_555
C24 H36_10 1_555 1_555
C23_2 H1_10 1_555 1_555
C23_2 H3_10 1_555 1_555
C17_2 H4_10 1_555 1_555
C17_2 H6_10 1_555 1_555
C34 H7_10 1_555 1_555
C34 H8_10 1_555 1_555
C34 H9_10 1_555 1_555
C29 H12_10 1_555 1_555
C29 H13_10 1_555 1_555
C29 H14_10 1_555 1_555
C39 H15_10 1_555 1_555
C39 H16_10 1_555 1_555
C39 H17_10 1_555 1_555
C11 H25_10 1_555 1_555
C11 H26_10 1_555 1_555
C11 H27_10 1_555 1_555
C12 H31_10 1_555 1_555
C12 H32_10 1_555 1_555
C12 H33_10 1_555 1_555
O12_10 H18_10 1_555 1_555
O12_10 H19_10 1_555 1_555
O12_13 H18_11 1_555 1_555
O12_13 H19_11 1_555 1_555
C23_7 H2_11 1_555 1_555
C17_7 H5_11 1_555 1_555
C18_4 H28_11 1_555 1_555
C18_4 H29_11 1_555 1_555
C18_4 H30_11 1_555 1_555
C24_4 H34_11 1_555 1_555
C24_4 H35_11 1_555 1_555
C24_4 H36_11 1_555 1_555
C23_8 H1_11 1_555 1_555
C23_8 H3_11 1_555 1_555
C17_8 H4_11 1_555 1_555
C17_8 H6_11 1_555 1_555
C34_4 H7_11 1_555 1_555
C34_4 H8_11 1_555 1_555
C34_4 H9_11 1_555 1_555
C29_4 H12_11 1_555 1_555
C29_4 H13_11 1_555 1_555
C29_4 H14_11 1_555 1_555
C39_4 H15_11 1_555 1_555
C39_4 H16_11 1_555 1_555
C39_4 H17_11 1_555 1_555
C11_4 H25_11 1_555 1_555
C11_4 H26_11 1_555 1_555
C11_4 H27_11 1_555 1_555
C12_4 H31_11 1_555 1_555
C12_4 H32_11 1_555 1_555
C12_4 H33_11 1_555 1_555
C23_5 H2_12 1_555 1_555
C17_5 H5_12 1_555 1_555
C18_3 H28_12 1_555 1_555
C18_3 H29_12 1_555 1_555
C18_3 H30_12 1_555 1_555
C24_3 H34_12 1_555 1_555
C24_3 H35_12 1_555 1_555
C24_3 H36_12 1_555 1_555
C23_6 H1_12 1_555 1_555
C23_6 H3_12 1_555 1_555
C17_6 H4_12 1_555 1_555
C17_6 H6_12 1_555 1_555
C34_3 H7_12 1_555 1_555
C34_3 H8_12 1_555 1_555
C34_3 H9_12 1_555 1_555
C29_3 H12_12 1_555 1_555
C29_3 H13_12 1_555 1_555
C29_3 H14_12 1_555 1_555
C39_3 H15_12 1_555 1_555
C39_3 H16_12 1_555 1_555
C39_3 H17_12 1_555 1_555
C11_3 H25_12 1_555 1_555
C11_3 H26_12 1_555 1_555
C11_3 H27_12 1_555 1_555
C12_3 H31_12 1_555 1_555
C12_3 H32_12 1_555 1_555
C12_3 H33_12 1_555 1_555
O12_16 H18_12 1_555 1_555
O12_16 H19_12 1_555 1_555
C23_11 H1_13 1_555 1_555
C23_11 H3_13 1_555 1_555
C17_11 H4_13 1_555 1_555
C17_11 H6_13 1_555 1_555
C34_6 H7_13 1_555 1_555
C34_6 H8_13 1_555 1_555
C34_6 H9_13 1_555 1_555
C29_6 H12_13 1_555 1_555
C29_6 H13_13 1_555 1_555
C29_6 H14_13 1_555 1_555
C39_6 H15_13 1_555 1_555
C39_6 H16_13 1_555 1_555
C39_6 H17_13 1_555 1_555
C11_6 H25_13 1_555 1_555
C11_6 H26_13 1_555 1_555
C11_6 H27_13 1_555 1_555
C12_6 H31_13 1_555 1_555
C12_6 H32_13 1_555 1_555
C12_6 H33_13 1_555 1_555
C23_12 H2_13 1_555 1_555
C17_12 H5_13 1_555 1_555
C18_6 H28_13 1_555 1_555
C18_6 H29_13 1_555 1_555
C18_6 H30_13 1_555 1_555
C24_6 H34_13 1_555 1_555
C24_6 H35_13 1_555 1_555
C24_6 H36_13 1_555 1_555
O12_4 H18_13 1_555 1_555
O12_4 H19_13 1_555 1_555
O12 H18_14 1_555 1_555
O12 H19_14 1_555 1_555
C23_9 H1_14 1_555 1_555
C23_9 H3_14 1_555 1_555
C17_9 H4_14 1_555 1_555
C17_9 H6_14 1_555 1_555
C34_5 H7_14 1_555 1_555
C34_5 H8_14 1_555 1_555
C34_5 H9_14 1_555 1_555
C29_5 H12_14 1_555 1_555
C29_5 H13_14 1_555 1_555
C29_5 H14_14 1_555 1_555
C39_5 H15_14 1_555 1_555
C39_5 H16_14 1_555 1_555
C39_5 H17_14 1_555 1_555
C11_5 H25_14 1_555 1_555
C11_5 H26_14 1_555 1_555
C11_5 H27_14 1_555 1_555
C12_5 H31_14 1_555 1_555
C12_5 H32_14 1_555 1_555
C12_5 H33_14 1_555 1_555
C23_10 H2_14 1_555 1_555
C17_10 H5_14 1_555 1_555
C18_5 H28_14 1_555 1_555
C18_5 H29_14 1_555 1_555
C18_5 H30_14 1_555 1_555
C24_5 H34_14 1_555 1_555
C24_5 H35_14 1_555 1_555
C24_5 H36_14 1_555 1_555
O12_5 H18_15 1_555 1_555
O12_5 H19_15 1_555 1_555
C23_15 H1_15 1_555 1_555
C23_15 H3_15 1_555 1_555
C17_15 H4_15 1_555 1_555
C17_15 H6_15 1_555 1_555
C34_8 H7_15 1_555 1_555
C34_8 H8_15 1_555 1_555
C34_8 H9_15 1_555 1_555
C29_8 H12_15 1_555 1_555
C29_8 H13_15 1_555 1_555
C29_8 H14_15 1_555 1_555
C39_8 H15_15 1_555 1_555
C39_8 H16_15 1_555 1_555
C39_8 H17_15 1_555 1_555
C11_8 H25_15 1_555 1_555
C11_8 H26_15 1_555 1_555
C11_8 H27_15 1_555 1_555
C12_8 H31_15 1_555 1_555
C12_8 H32_15 1_555 1_555
C12_8 H33_15 1_555 1_555
C23_16 H2_15 1_555 1_555
C17_16 H5_15 1_555 1_555
C18_8 H28_15 1_555 1_555
C18_8 H29_15 1_555 1_555
C18_8 H30_15 1_555 1_555
C24_8 H34_15 1_555 1_555
C24_8 H35_15 1_555 1_555
C24_8 H36_15 1_555 1_555
C23_13 H1_16 1_555 1_555
C23_13 H3_16 1_555 1_555
C17_13 H4_16 1_555 1_555
C17_13 H6_16 1_555 1_555
C34_7 H7_16 1_555 1_555
C34_7 H8_16 1_555 1_555
C34_7 H9_16 1_555 1_555
C29_7 H12_16 1_555 1_555
C29_7 H13_16 1_555 1_555
C29_7 H14_16 1_555 1_555
C39_7 H15_16 1_555 1_555
C39_7 H16_16 1_555 1_555
C39_7 H17_16 1_555 1_555
C11_7 H25_16 1_555 1_555
C11_7 H26_16 1_555 1_555
C11_7 H27_16 1_555 1_555
C12_7 H31_16 1_555 1_555
C12_7 H32_16 1_555 1_555
C12_7 H33_16 1_555 1_555
C23_14 H2_16 1_555 1_555
C17_14 H5_16 1_555 1_555
C18_7 H28_16 1_555 1_555
C18_7 H29_16 1_555 1_555
C18_7 H30_16 1_555 1_555
C24_7 H34_16 1_555 1_555
C24_7 H35_16 1_555 1_555
C24_7 H36_16 1_555 1_555
O12_8 H18_16 1_555 1_555
O12_8 H19_16 1_555 1_555

#END
