
###############################################################################
#
# This file contains modified crystal structure data generated from the
# MOF subset of the Cambridge Structural Database (CSD) v543 
# hosted by the Cambridge Crystallographic Data Centre (CCDC).
#
# This work is licensed under the Creative Commons
# Attribution-NonCommercial-ShareAlike 4.0 International License.
# To view a copy of this license, visit
# http://creativecommons.org/licenses/by-nc-sa/4.0/
# or send a letter to
# Creative Commons, PO Box 1866, Mountain View, CA 94042, USA.
#
# CIF created using the CSD Python API on 29 September 2022
# The structure has been converted into the P1 space group
# The structure has a 3D framework
# The original CSD entry TOGMIO is in the orthorhombic crystal system
# The framework has been calculated to contain at least 10.0% void space
# The void calculation uses a probe of radius 1.32A, grid spacing 0.4
# H atom positions have been added when not included in the experimental data
# Generated hydrogen atom positions removed from atoms on special positions
#
###############################################################################

data_TOGMIO
_chemical_formula_moiety         '(C448 H496 O160 Zr42)n'
_symmetry_cell_setting           triclinic
_symmetry_space_group_name_H-M   'P 1'
_symmetry_Int_Tables_number      1
_space_group_name_Hall           'P 1'
loop_
_symmetry_equiv_pos_site_id
_symmetry_equiv_pos_as_xyz
1 x,y,z
_cell_length_a                   14.819(3)
_cell_length_b                   35.924(3)
_cell_length_c                   45.003(2)
_cell_angle_alpha                90
_cell_angle_beta                 90
_cell_angle_gamma                90
_cell_volume                     23957.7
loop_
_atom_site_label
_atom_site_type_symbol
_atom_site_fract_x
_atom_site_fract_y
_atom_site_fract_z
Zr1 Zr 0.0000 -0.0000 0.054004(9)
Zr2 Zr 0.11915(8) 0.049563(13) 0.0000
O1 O 0.0849(3) 0.03730(7) 0.07892(5)
O2 O 0.1600(3) 0.07143(9) 0.04550(6)
O3 O 0.1172(4) -0.0000 0.02671(10)
O4 O 0.0000 0.04822(12) 0.02580(8)
O5 O 0.2701(5) 0.04739(15) 0.0000
O6 O 0.1067(5) 0.11063(10) 0.0000
C1 C 0.1386(6) 0.06324(12) 0.07114(7)
C2 C 0.1625(6) 0.08899(12) 0.09718(8)
C3 C 0.1347(5) 0.08091(12) 0.12426(7)
H1 H 0.0983 0.0603 0.1276
C4 C 0.1618(6) 0.10475(12) 0.14892(7)
C5 C 0.2090(6) 0.13590(12) 0.14471(7)
C6 C 0.2382(6) 0.14323(16) 0.11563(8)
H2 H 0.2731 0.1642 0.1117
C7 C 0.2151(8) 0.11912(15) 0.09250(8)
H3 H 0.2364 0.1239 0.0734
C8 C 0.1294(5) 0.09516(15) 0.17726(9)
H4 H 0.0925 0.0745 0.1799
C9 C 0.1539(5) 0.11743(13) 0.20119(8)
H5 H 0.1344 0.1112 0.2202
C10 C 0.2070(5) 0.14874(10) 0.19724(6)
C11 C 0.2373(6) 0.15740(11) 0.16962(7)
H6 H 0.2765 0.1773 0.1670
C12 C 0.2253(5) 0.17111(10) 0.22371(5)
C13 C 0.2500 0.15147(15) 0.2500
H7 H 0.2500 0.1256 0.2500
C14 C 0.2266(5) 0.20940(11) 0.22423(6)
H8 H 0.2115 0.2223 0.2070
C15 C 0.2500 0.23005(14) 0.2500
O7 O 0.0849(3) 0.46270(7) 0.42108(5)
O8 O 0.1600(3) 0.42857(9) 0.45450(6)
C16 C 0.1386(6) 0.43676(12) 0.42886(7)
C17 C 0.1625(6) 0.41101(12) 0.40282(8)
C18 C 0.1347(5) 0.41909(12) 0.37574(7)
H9 H 0.0983 0.4397 0.3724
C19 C 0.1618(6) 0.39525(12) 0.35108(7)
C20 C 0.2090(6) 0.36410(12) 0.35529(7)
C21 C 0.2382(6) 0.35677(16) 0.38437(8)
H10 H 0.2731 0.3358 0.3883
C22 C 0.2151(8) 0.38088(15) 0.40750(8)
H11 H 0.2364 0.3761 0.4266
C23 C 0.1294(5) 0.40484(15) 0.32274(9)
H12 H 0.0925 0.4255 0.3201
C24 C 0.1539(5) 0.38257(13) 0.29881(8)
H13 H 0.1344 0.3888 0.2798
C25 C 0.2070(5) 0.35126(10) 0.30276(6)
C26 C 0.2373(6) 0.34260(11) 0.33038(7)
H14 H 0.2765 0.3227 0.3330
C27 C 0.2253(5) 0.32889(10) 0.27629(5)
C28 C 0.2500 0.34853(15) 0.2500
H15 H 0.2500 0.3744 0.2500
C29 C 0.2266(5) 0.29060(11) 0.27577(6)
H16 H 0.2115 0.2777 0.2930
C30 C 0.2500 0.26995(14) 0.2500
O9 O 0.4151(3) 0.03730(7) 0.42108(5)
O10 O 0.3400(3) 0.07143(9) 0.45450(6)
C31 C 0.3614(6) 0.06324(12) 0.42886(7)
C32 C 0.3375(6) 0.08899(12) 0.40282(8)
C33 C 0.3653(5) 0.08091(12) 0.37574(7)
H17 H 0.4017 0.0603 0.3724
C34 C 0.3382(6) 0.10475(12) 0.35108(7)
C35 C 0.2910(6) 0.13590(12) 0.35529(7)
C36 C 0.2618(6) 0.14323(16) 0.38437(8)
H18 H 0.2269 0.1642 0.3883
C37 C 0.2849(8) 0.11912(15) 0.40750(8)
H19 H 0.2636 0.1239 0.4266
C38 C 0.3706(5) 0.09516(15) 0.32274(9)
H20 H 0.4075 0.0745 0.3201
C39 C 0.3461(5) 0.11743(13) 0.29881(8)
H21 H 0.3656 0.1112 0.2798
C40 C 0.2930(5) 0.14874(10) 0.30276(6)
C41 C 0.2627(6) 0.15740(11) 0.33038(7)
H22 H 0.2235 0.1773 0.3330
C42 C 0.2747(5) 0.17111(10) 0.27629(5)
C43 C 0.2734(5) 0.20940(11) 0.27577(6)
H23 H 0.2885 0.2223 0.2930
O11 O 0.4151(3) 0.46270(7) 0.07892(5)
O12 O 0.3400(3) 0.42857(9) 0.04550(6)
C44 C 0.3614(6) 0.43676(12) 0.07114(7)
C45 C 0.3375(6) 0.41101(12) 0.09718(8)
C46 C 0.3653(5) 0.41909(12) 0.12426(7)
H24 H 0.4017 0.4397 0.1276
C47 C 0.3382(6) 0.39525(12) 0.14892(7)
C48 C 0.2910(6) 0.36410(12) 0.14471(7)
C49 C 0.2618(6) 0.35677(16) 0.11563(8)
H25 H 0.2269 0.3358 0.1117
C50 C 0.2849(8) 0.38088(15) 0.09250(8)
H26 H 0.2636 0.3761 0.0734
C51 C 0.3706(5) 0.40484(15) 0.17726(9)
H27 H 0.4075 0.4255 0.1799
C52 C 0.3461(5) 0.38257(13) 0.20119(8)
H28 H 0.3656 0.3888 0.2202
C53 C 0.2930(5) 0.35126(10) 0.19724(6)
C54 C 0.2627(6) 0.34260(11) 0.16962(7)
H29 H 0.2235 0.3227 0.1670
C55 C 0.2747(5) 0.32889(10) 0.22371(5)
C56 C 0.2734(5) 0.29060(11) 0.22423(6)
H30 H 0.2885 0.2777 0.2070
Zr4 Zr 0.0000 0.5000 0.445996(9)
Zr5 Zr 0.5000 0.0000 0.445996(9)
Zr6 Zr 0.5000 0.5000 0.054004(9)
Zr9 Zr 0.11915(8) 0.450437(13) 0.5000
Zr10 Zr 0.38085(8) 0.049563(13) 0.5000
Zr11 Zr 0.38085(8) 0.450437(13) 0.0000
Zr2_2 Zr 0.11915(8) 0.049563(13) 1.0000
O5_2 O 0.2701(5) 0.04739(15) 1.0000
O6_2 O 0.1067(5) 0.11063(10) 1.0000
Zr11_2 Zr 0.38085(8) 0.450437(13) 1.0000
O22 O 0.1600(3) 0.07143(9) 0.95450(6)
O23 O 0.1172(4) 0.0000 0.97329(10)
O26 O 0.0000 0.04822(12) 0.97420(8)
Zr1_2 Zr -0.0000 1.0000 0.054004(9)
O3_2 O 0.1172(4) 1.0000 0.02671(10)
O14 O 0.0000 0.95178(12) 0.02580(8)
Zr5_2 Zr 0.5000 1.0000 0.445996(9)
Zr7 Zr 0.11915(8) 0.950437(13) 0.0000
O19 O 0.0849(3) 0.96270(7) 0.07892(5)
Zr7_2 Zr 0.11915(8) 0.950437(13) 1.0000
O23_2 O 0.1172(4) 1.0000 0.97329(10)
O25 O 0.0000 0.95178(12) 0.97420(8)
Zr1_3 Zr 1.0000 -0.0000 0.054004(9)
O4_2 O 1.0000 0.04822(12) 0.02580(8)
O13 O 0.8828(4) -0.0000 0.02671(10)
Zr4_2 Zr 1.0000 0.5000 0.445996(9)
Zr8 Zr 0.88085(8) 0.049563(13) 0.0000
O18 O 0.9151(3) 0.03730(7) 0.07892(5)
Zr8_2 Zr 0.88085(8) 0.049563(13) 1.0000
O24 O 0.8828(4) 0.0000 0.97329(10)
O26_2 O 1.0000 0.04822(12) 0.97420(8)
Zr1_4 Zr 1.0000 1.0000 0.054004(9)
Zr3 Zr 0.88085(8) 0.950437(13) 0.0000
O13_2 O 0.8828(4) 1.0000 0.02671(10)
O14_2 O 1.0000 0.95178(12) 0.02580(8)
O15 O 0.7299(5) 0.95261(15) 0.0000
O16 O 0.8933(5) 0.88937(10) 0.0000
O17 O 0.9151(3) 0.96270(7) 0.07892(5)
O20 O 0.8400(3) 0.92857(9) 0.04550(6)
Zr3_2 Zr 0.88085(8) 0.950437(13) 1.0000
O15_2 O 0.7299(5) 0.95261(15) 1.0000
O16_2 O 0.8933(5) 0.88937(10) 1.0000
O21 O 0.8400(3) 0.92857(9) 0.95450(6)
O24_2 O 0.8828(4) 1.0000 0.97329(10)
O25_2 O 1.0000 0.95178(12) 0.97420(8)
C1_2 C 0.8614(6) 0.93676(12) 0.07114(7)
C2_2 C 0.8375(6) 0.91101(12) 0.09718(8)
C3_2 C 0.8653(5) 0.91909(12) 0.12426(7)
H1_2 H 0.9017 0.9397 0.1276
C4_2 C 0.8382(6) 0.89525(12) 0.14892(7)
C5_2 C 0.7910(6) 0.86410(12) 0.14471(7)
C6_2 C 0.7618(6) 0.85677(16) 0.11563(8)
H2_2 H 0.7269 0.8358 0.1117
C7_2 C 0.7849(8) 0.88088(15) 0.09250(8)
H3_2 H 0.7636 0.8761 0.0734
C8_2 C 0.8706(5) 0.90484(15) 0.17726(9)
H4_2 H 0.9075 0.9255 0.1799
C9_2 C 0.8461(5) 0.88257(13) 0.20119(8)
H5_2 H 0.8656 0.8888 0.2202
C10_2 C 0.7930(5) 0.85126(10) 0.19724(6)
C11_2 C 0.7627(6) 0.84260(11) 0.16962(7)
H6_2 H 0.7235 0.8227 0.1670
C12_2 C 0.7747(5) 0.82889(10) 0.22371(5)
C13_2 C 0.7500 0.84853(15) 0.2500
H7_2 H 0.7500 0.8744 0.2500
C14_2 C 0.7734(5) 0.79060(11) 0.22423(6)
H8_2 H 0.7885 0.7777 0.2070
C15_2 C 0.7500 0.76995(14) 0.2500
O7_2 O 0.9151(3) 0.53730(7) 0.42108(5)
O8_2 O 0.8400(3) 0.57143(9) 0.45450(6)
C16_2 C 0.8614(6) 0.56324(12) 0.42886(7)
C17_2 C 0.8375(6) 0.58899(12) 0.40282(8)
C18_2 C 0.8653(5) 0.58091(12) 0.37574(7)
H9_2 H 0.9017 0.5603 0.3724
C19_2 C 0.8382(6) 0.60475(12) 0.35108(7)
C20_2 C 0.7910(6) 0.63590(12) 0.35529(7)
C21_2 C 0.7618(6) 0.64323(16) 0.38437(8)
H10_2 H 0.7269 0.6642 0.3883
C22_2 C 0.7849(8) 0.61912(15) 0.40750(8)
H11_2 H 0.7636 0.6239 0.4266
C23_2 C 0.8706(5) 0.59516(15) 0.32274(9)
H12_2 H 0.9075 0.5745 0.3201
C24_2 C 0.8461(5) 0.61743(13) 0.29881(8)
H13_2 H 0.8656 0.6112 0.2798
C25_2 C 0.7930(5) 0.64874(10) 0.30276(6)
C26_2 C 0.7627(6) 0.65740(11) 0.33038(7)
H14_2 H 0.7235 0.6773 0.3330
C27_2 C 0.7747(5) 0.67111(10) 0.27629(5)
C28_2 C 0.7500 0.65147(15) 0.2500
H15_2 H 0.7500 0.6256 0.2500
C29_2 C 0.7734(5) 0.70940(11) 0.27577(6)
H16_2 H 0.7885 0.7223 0.2930
C30_2 C 0.7500 0.73005(14) 0.2500
O9_2 O 0.5849(3) 0.96270(7) 0.42108(5)
O10_2 O 0.6600(3) 0.92857(9) 0.45450(6)
C31_2 C 0.6386(6) 0.93676(12) 0.42886(7)
C32_2 C 0.6625(6) 0.91101(12) 0.40282(8)
C33_2 C 0.6347(5) 0.91909(12) 0.37574(7)
H17_2 H 0.5983 0.9397 0.3724
C34_2 C 0.6618(6) 0.89525(12) 0.35108(7)
C35_2 C 0.7090(6) 0.86410(12) 0.35529(7)
C36_2 C 0.7382(6) 0.85677(16) 0.38437(8)
H18_2 H 0.7731 0.8358 0.3883
C37_2 C 0.7151(8) 0.88088(15) 0.40750(8)
H19_2 H 0.7364 0.8761 0.4266
C38_2 C 0.6294(5) 0.90484(15) 0.32274(9)
H20_2 H 0.5925 0.9255 0.3201
C39_2 C 0.6539(5) 0.88257(13) 0.29881(8)
H21_2 H 0.6344 0.8888 0.2798
C40_2 C 0.7070(5) 0.85126(10) 0.30276(6)
C41_2 C 0.7373(6) 0.84260(11) 0.33038(7)
H22_2 H 0.7765 0.8227 0.3330
C42_2 C 0.7253(5) 0.82889(10) 0.27629(5)
C43_2 C 0.7266(5) 0.79060(11) 0.27577(6)
H23_2 H 0.7115 0.7777 0.2930
O11_2 O 0.5849(3) 0.53730(7) 0.07892(5)
O12_2 O 0.6600(3) 0.57143(9) 0.04550(6)
C44_2 C 0.6386(6) 0.56324(12) 0.07114(7)
C45_2 C 0.6625(6) 0.58899(12) 0.09718(8)
C46_2 C 0.6347(5) 0.58091(12) 0.12426(7)
H24_2 H 0.5983 0.5603 0.1276
C47_2 C 0.6618(6) 0.60475(12) 0.14892(7)
C48_2 C 0.7090(6) 0.63590(12) 0.14471(7)
C49_2 C 0.7382(6) 0.64323(16) 0.11563(8)
H25_2 H 0.7731 0.6642 0.1117
C50_2 C 0.7151(8) 0.61912(15) 0.09250(8)
H26_2 H 0.7364 0.6239 0.0734
C51_2 C 0.6294(5) 0.59516(15) 0.17726(9)
H27_2 H 0.5925 0.5745 0.1799
C52_2 C 0.6539(5) 0.61743(13) 0.20119(8)
H28_2 H 0.6344 0.6112 0.2202
C53_2 C 0.7070(5) 0.64874(10) 0.19724(6)
C54_2 C 0.7373(6) 0.65740(11) 0.16962(7)
H29_2 H 0.7765 0.6773 0.1670
C55_2 C 0.7253(5) 0.67111(10) 0.22371(5)
C56_2 C 0.7266(5) 0.70940(11) 0.22423(6)
H30_2 H 0.7115 0.7223 0.2070
Zr9_2 Zr 0.88085(8) 0.549563(13) 0.5000
Zr10_2 Zr 0.61915(8) 0.950437(13) 0.5000
Zr11_3 Zr 0.61915(8) 0.549563(13) 0.0000
Zr11_4 Zr 0.61915(8) 0.549563(13) 1.0000
Zr1_5 Zr 0.0000 0.0000 0.945996(9)
Zr5_3 Zr 0.5000 -0.0000 0.554004(9)
O19_2 O 0.0849(3) 0.03730(7) 0.92108(5)
O5_3 O 0.2701(5) 0.95261(15) 0.0000
O6_3 O 0.1067(5) 0.88937(10) 0.0000
Zr11_5 Zr 0.38085(8) 0.549563(13) 0.0000
O22_2 O 0.1600(3) 0.92857(9) 0.04550(6)
Zr1_6 Zr -0.0000 1.0000 0.945996(9)
O1_2 O 0.0849(3) 0.96270(7) 0.92108(5)
O2_2 O 0.1600(3) 0.92857(9) 0.95450(6)
O5_4 O 0.2701(5) 0.95261(15) 1.0000
O6_4 O 0.1067(5) 0.88937(10) 1.0000
C1_3 C 0.1386(6) 0.93676(12) 0.92886(7)
C2_3 C 0.1625(6) 0.91101(12) 0.90282(8)
C3_3 C 0.1347(5) 0.91909(12) 0.87574(7)
H1_3 H 0.0983 0.9397 0.8724
C4_3 C 0.1618(6) 0.89525(12) 0.85108(7)
C5_3 C 0.2090(6) 0.86410(12) 0.85529(7)
C6_3 C 0.2382(6) 0.85677(16) 0.88437(8)
H2_3 H 0.2731 0.8358 0.8883
C7_3 C 0.2151(8) 0.88088(15) 0.90750(8)
H3_3 H 0.2364 0.8761 0.9266
C8_3 C 0.1294(5) 0.90484(15) 0.82274(9)
H4_3 H 0.0925 0.9255 0.8201
C9_3 C 0.1539(5) 0.88257(13) 0.79881(8)
H5_3 H 0.1344 0.8888 0.7798
C10_3 C 0.2070(5) 0.85126(10) 0.80276(6)
C11_3 C 0.2373(6) 0.84260(11) 0.83038(7)
H6_3 H 0.2765 0.8227 0.8330
C12_3 C 0.2253(5) 0.82889(10) 0.77629(5)
C13_3 C 0.2500 0.84853(15) 0.7500
H7_3 H 0.2500 0.8744 0.7500
C14_3 C 0.2266(5) 0.79060(11) 0.77577(6)
H8_3 H 0.2115 0.7777 0.7930
C15_3 C 0.2500 0.76995(14) 0.7500
O7_3 O 0.0849(3) 0.53730(7) 0.57892(5)
O8_3 O 0.1600(3) 0.57143(9) 0.54550(6)
C16_3 C 0.1386(6) 0.56324(12) 0.57114(7)
C17_3 C 0.1625(6) 0.58899(12) 0.59718(8)
C18_3 C 0.1347(5) 0.58091(12) 0.62426(7)
H9_3 H 0.0983 0.5603 0.6276
C19_3 C 0.1618(6) 0.60475(12) 0.64892(7)
C20_3 C 0.2090(6) 0.63590(12) 0.64471(7)
C21_3 C 0.2382(6) 0.64323(16) 0.61563(8)
H10_3 H 0.2731 0.6642 0.6117
C22_3 C 0.2151(8) 0.61912(15) 0.59250(8)
H11_3 H 0.2364 0.6239 0.5734
C23_3 C 0.1294(5) 0.59516(15) 0.67726(9)
H12_3 H 0.0925 0.5745 0.6799
C24_3 C 0.1539(5) 0.61743(13) 0.70119(8)
H13_3 H 0.1344 0.6112 0.7202
C25_3 C 0.2070(5) 0.64874(10) 0.69724(6)
C26_3 C 0.2373(6) 0.65740(11) 0.66962(7)
H14_3 H 0.2765 0.6773 0.6670
C27_3 C 0.2253(5) 0.67111(10) 0.72371(5)
C28_3 C 0.2500 0.65147(15) 0.7500
H15_3 H 0.2500 0.6256 0.7500
C29_3 C 0.2266(5) 0.70940(11) 0.72423(6)
H16_3 H 0.2115 0.7223 0.7070
C30_3 C 0.2500 0.73005(14) 0.7500
O9_3 O 0.4151(3) 0.96270(7) 0.57892(5)
O10_3 O 0.3400(3) 0.92857(9) 0.54550(6)
C31_3 C 0.3614(6) 0.93676(12) 0.57114(7)
C32_3 C 0.3375(6) 0.91101(12) 0.59718(8)
C33_3 C 0.3653(5) 0.91909(12) 0.62426(7)
H17_3 H 0.4017 0.9397 0.6276
C34_3 C 0.3382(6) 0.89525(12) 0.64892(7)
C35_3 C 0.2910(6) 0.86410(12) 0.64471(7)
C36_3 C 0.2618(6) 0.85677(16) 0.61563(8)
H18_3 H 0.2269 0.8358 0.6117
C37_3 C 0.2849(8) 0.88088(15) 0.59250(8)
H19_3 H 0.2636 0.8761 0.5734
C38_3 C 0.3706(5) 0.90484(15) 0.67726(9)
H20_3 H 0.4075 0.9255 0.6799
C39_3 C 0.3461(5) 0.88257(13) 0.70119(8)
H21_3 H 0.3656 0.8888 0.7202
C40_3 C 0.2930(5) 0.85126(10) 0.69724(6)
C41_3 C 0.2627(6) 0.84260(11) 0.66962(7)
H22_3 H 0.2235 0.8227 0.6670
C42_3 C 0.2747(5) 0.82889(10) 0.72371(5)
C43_3 C 0.2734(5) 0.79060(11) 0.72423(6)
H23_3 H 0.2885 0.7777 0.7070
O11_3 O 0.4151(3) 0.53730(7) 0.92108(5)
O12_3 O 0.3400(3) 0.57143(9) 0.95450(6)
C44_3 C 0.3614(6) 0.56324(12) 0.92886(7)
C45_3 C 0.3375(6) 0.58899(12) 0.90282(8)
C46_3 C 0.3653(5) 0.58091(12) 0.87574(7)
H24_3 H 0.4017 0.5603 0.8724
C47_3 C 0.3382(6) 0.60475(12) 0.85108(7)
C48_3 C 0.2910(6) 0.63590(12) 0.85529(7)
C49_3 C 0.2618(6) 0.64323(16) 0.88437(8)
H25_3 H 0.2269 0.6642 0.8883
C50_3 C 0.2849(8) 0.61912(15) 0.90750(8)
H26_3 H 0.2636 0.6239 0.9266
C51_3 C 0.3706(5) 0.59516(15) 0.82274(9)
H27_3 H 0.4075 0.5745 0.8201
C52_3 C 0.3461(5) 0.61743(13) 0.79881(8)
H28_3 H 0.3656 0.6112 0.7798
C53_3 C 0.2930(5) 0.64874(10) 0.80276(6)
C54_3 C 0.2627(6) 0.65740(11) 0.83038(7)
H29_3 H 0.2235 0.6773 0.8330
C55_3 C 0.2747(5) 0.67111(10) 0.77629(5)
C56_3 C 0.2734(5) 0.70940(11) 0.77577(6)
H30_3 H 0.2885 0.7223 0.7930
Zr4_3 Zr 0.0000 0.5000 0.554004(9)
Zr5_4 Zr 0.5000 1.0000 0.554004(9)
Zr6_2 Zr 0.5000 0.5000 0.945996(9)
Zr9_3 Zr 0.11915(8) 0.549563(13) 0.5000
Zr10_3 Zr 0.38085(8) 0.950437(13) 0.5000
Zr11_6 Zr 0.38085(8) 0.549563(13) 1.0000
O15_3 O 0.7299(5) 0.04739(15) 0.0000
O16_3 O 0.8933(5) 0.11063(10) 0.0000
O21_2 O 0.8400(3) 0.07143(9) 0.04550(6)
Zr1_7 Zr 1.0000 0.0000 0.945996(9)
O15_4 O 0.7299(5) 0.04739(15) 1.0000
O16_4 O 0.8933(5) 0.11063(10) 1.0000
O17_2 O 0.9151(3) 0.03730(7) 0.92108(5)
O20_2 O 0.8400(3) 0.07143(9) 0.95450(6)
Zr1_8 Zr 1.0000 1.0000 0.945996(9)
Zr4_4 Zr 1.0000 0.5000 0.554004(9)
O18_2 O 0.9151(3) 0.96270(7) 0.92108(5)
Zr11_7 Zr 0.61915(8) 0.450437(13) 0.0000
C1_4 C 0.8614(6) 0.06324(12) 0.92886(7)
C2_4 C 0.8375(6) 0.08899(12) 0.90282(8)
C3_4 C 0.8653(5) 0.08091(12) 0.87574(7)
H1_4 H 0.9017 0.0603 0.8724
C4_4 C 0.8382(6) 0.10475(12) 0.85108(7)
C5_4 C 0.7910(6) 0.13590(12) 0.85529(7)
C6_4 C 0.7618(6) 0.14323(16) 0.88437(8)
H2_4 H 0.7269 0.1642 0.8883
C7_4 C 0.7849(8) 0.11912(15) 0.90750(8)
H3_4 H 0.7636 0.1239 0.9266
C8_4 C 0.8706(5) 0.09516(15) 0.82274(9)
H4_4 H 0.9075 0.0745 0.8201
C9_4 C 0.8461(5) 0.11743(13) 0.79881(8)
H5_4 H 0.8656 0.1112 0.7798
C10_4 C 0.7930(5) 0.14874(10) 0.80276(6)
C11_4 C 0.7627(6) 0.15740(11) 0.83038(7)
H6_4 H 0.7235 0.1773 0.8330
C12_4 C 0.7747(5) 0.17111(10) 0.77629(5)
C13_4 C 0.7500 0.15147(15) 0.7500
H7_4 H 0.7500 0.1256 0.7500
C14_4 C 0.7734(5) 0.20940(11) 0.77577(6)
H8_4 H 0.7885 0.2223 0.7930
C15_4 C 0.7500 0.23005(14) 0.7500
O7_4 O 0.9151(3) 0.46270(7) 0.57892(5)
O8_4 O 0.8400(3) 0.42857(9) 0.54550(6)
C16_4 C 0.8614(6) 0.43676(12) 0.57114(7)
C17_4 C 0.8375(6) 0.41101(12) 0.59718(8)
C18_4 C 0.8653(5) 0.41909(12) 0.62426(7)
H9_4 H 0.9017 0.4397 0.6276
C19_4 C 0.8382(6) 0.39525(12) 0.64892(7)
C20_4 C 0.7910(6) 0.36410(12) 0.64471(7)
C21_4 C 0.7618(6) 0.35677(16) 0.61563(8)
H10_4 H 0.7269 0.3358 0.6117
C22_4 C 0.7849(8) 0.38088(15) 0.59250(8)
H11_4 H 0.7636 0.3761 0.5734
C23_4 C 0.8706(5) 0.40484(15) 0.67726(9)
H12_4 H 0.9075 0.4255 0.6799
C24_4 C 0.8461(5) 0.38257(13) 0.70119(8)
H13_4 H 0.8656 0.3888 0.7202
C25_4 C 0.7930(5) 0.35126(10) 0.69724(6)
C26_4 C 0.7627(6) 0.34260(11) 0.66962(7)
H14_4 H 0.7235 0.3227 0.6670
C27_4 C 0.7747(5) 0.32889(10) 0.72371(5)
C28_4 C 0.7500 0.34853(15) 0.7500
H15_4 H 0.7500 0.3744 0.7500
C29_4 C 0.7734(5) 0.29060(11) 0.72423(6)
H16_4 H 0.7885 0.2777 0.7070
C30_4 C 0.7500 0.26995(14) 0.7500
O9_4 O 0.5849(3) 0.03730(7) 0.57892(5)
O10_4 O 0.6600(3) 0.07143(9) 0.54550(6)
C31_4 C 0.6386(6) 0.06324(12) 0.57114(7)
C32_4 C 0.6625(6) 0.08899(12) 0.59718(8)
C33_4 C 0.6347(5) 0.08091(12) 0.62426(7)
H17_4 H 0.5983 0.0603 0.6276
C34_4 C 0.6618(6) 0.10475(12) 0.64892(7)
C35_4 C 0.7090(6) 0.13590(12) 0.64471(7)
C36_4 C 0.7382(6) 0.14323(16) 0.61563(8)
H18_4 H 0.7731 0.1642 0.6117
C37_4 C 0.7151(8) 0.11912(15) 0.59250(8)
H19_4 H 0.7364 0.1239 0.5734
C38_4 C 0.6294(5) 0.09516(15) 0.67726(9)
H20_4 H 0.5925 0.0745 0.6799
C39_4 C 0.6539(5) 0.11743(13) 0.70119(8)
H21_4 H 0.6344 0.1112 0.7202
C40_4 C 0.7070(5) 0.14874(10) 0.69724(6)
C41_4 C 0.7373(6) 0.15740(11) 0.66962(7)
H22_4 H 0.7765 0.1773 0.6670
C42_4 C 0.7253(5) 0.17111(10) 0.72371(5)
C43_4 C 0.7266(5) 0.20940(11) 0.72423(6)
H23_4 H 0.7115 0.2223 0.7070
O11_4 O 0.5849(3) 0.46270(7) 0.92108(5)
O12_4 O 0.6600(3) 0.42857(9) 0.95450(6)
C44_4 C 0.6386(6) 0.43676(12) 0.92886(7)
C45_4 C 0.6625(6) 0.41101(12) 0.90282(8)
C46_4 C 0.6347(5) 0.41909(12) 0.87574(7)
H24_4 H 0.5983 0.4397 0.8724
C47_4 C 0.6618(6) 0.39525(12) 0.85108(7)
C48_4 C 0.7090(6) 0.36410(12) 0.85529(7)
C49_4 C 0.7382(6) 0.35677(16) 0.88437(8)
H25_4 H 0.7731 0.3358 0.8883
C50_4 C 0.7151(8) 0.38088(15) 0.90750(8)
H26_4 H 0.7364 0.3761 0.9266
C51_4 C 0.6294(5) 0.40484(15) 0.82274(9)
H27_4 H 0.5925 0.4255 0.8201
C52_4 C 0.6539(5) 0.38257(13) 0.79881(8)
H28_4 H 0.6344 0.3888 0.7798
C53_4 C 0.7070(5) 0.35126(10) 0.80276(6)
C54_4 C 0.7373(6) 0.34260(11) 0.83038(7)
H29_4 H 0.7765 0.3227 0.8330
C55_4 C 0.7253(5) 0.32889(10) 0.77629(5)
C56_4 C 0.7266(5) 0.29060(11) 0.77577(6)
H30_4 H 0.7115 0.2777 0.7930
Zr9_4 Zr 0.88085(8) 0.450437(13) 0.5000
Zr10_4 Zr 0.61915(8) 0.049563(13) 0.5000
Zr11_8 Zr 0.61915(8) 0.450437(13) 1.0000
O3_3 O 0.1172(4) 0.5000 0.52671(10)
O4_3 O 0.0000 0.54822(12) 0.52580(8)
O5_5 O 0.2701(5) 0.54739(15) 0.5000
O6_5 O 0.1067(5) 0.61063(10) 0.5000
O14_3 O 0.0000 0.45178(12) 0.52580(8)
O19_3 O 0.0849(3) 0.46270(7) 0.57892(5)
O22_3 O 0.1600(3) 0.57143(9) 0.45450(6)
O23_3 O 0.1172(4) 0.5000 0.47329(10)
O25_3 O 0.0000 0.45178(12) 0.47420(8)
O26_3 O 0.0000 0.54822(12) 0.47420(8)
O4_4 O 1.0000 0.54822(12) 0.52580(8)
O13_3 O 0.8828(4) 0.5000 0.52671(10)
O14_4 O 1.0000 0.45178(12) 0.52580(8)
O15_5 O 0.7299(5) 0.45261(15) 0.5000
O16_5 O 0.8933(5) 0.38937(10) 0.5000
O18_3 O 0.9151(3) 0.53730(7) 0.57892(5)
O21_3 O 0.8400(3) 0.42857(9) 0.45450(6)
O24_3 O 0.8828(4) 0.5000 0.47329(10)
O25_4 O 1.0000 0.45178(12) 0.47420(8)
O26_4 O 1.0000 0.54822(12) 0.47420(8)
O5_6 O 0.2701(5) 0.45261(15) 0.5000
O6_6 O 0.1067(5) 0.38937(10) 0.5000
O19_4 O 0.0849(3) 0.53730(7) 0.42108(5)
O22_4 O 0.1600(3) 0.42857(9) 0.54550(6)
O15_6 O 0.7299(5) 0.54739(15) 0.5000
O16_6 O 0.8933(5) 0.61063(10) 0.5000
O18_4 O 0.9151(3) 0.46270(7) 0.42108(5)
O21_4 O 0.8400(3) 0.57143(9) 0.54550(6)
O3_4 O 0.6172(4) 0.0000 0.52671(10)
O4_5 O 0.5000 0.04822(12) 0.52580(8)
O5_7 O 0.7701(5) 0.04739(15) 0.5000
O6_7 O 0.6067(5) 0.11063(10) 0.5000
O13_4 O 0.3828(4) 0.0000 0.52671(10)
O18_5 O 0.4151(3) 0.03730(7) 0.57892(5)
O22_5 O 0.6600(3) 0.07143(9) 0.45450(6)
O23_4 O 0.6172(4) 0.0000 0.47329(10)
O24_4 O 0.3828(4) 0.0000 0.47329(10)
O26_5 O 0.5000 0.04822(12) 0.47420(8)
O3_5 O 0.6172(4) 1.0000 0.52671(10)
O13_5 O 0.3828(4) 1.0000 0.52671(10)
O14_5 O 0.5000 0.95178(12) 0.52580(8)
O15_7 O 0.2299(5) 0.95261(15) 0.5000
O16_7 O 0.3933(5) 0.88937(10) 0.5000
O19_5 O 0.5849(3) 0.96270(7) 0.57892(5)
O21_5 O 0.3400(3) 0.92857(9) 0.45450(6)
O23_5 O 0.6172(4) 1.0000 0.47329(10)
O24_5 O 0.3828(4) 1.0000 0.47329(10)
O25_5 O 0.5000 0.95178(12) 0.47420(8)
O15_8 O 0.2299(5) 0.04739(15) 0.5000
O16_8 O 0.3933(5) 0.11063(10) 0.5000
O19_6 O 0.5849(3) 0.03730(7) 0.42108(5)
O21_6 O 0.3400(3) 0.07143(9) 0.54550(6)
O5_8 O 0.7701(5) 0.95261(15) 0.5000
O6_8 O 0.6067(5) 0.88937(10) 0.5000
O18_6 O 0.4151(3) 0.96270(7) 0.42108(5)
O22_6 O 0.6600(3) 0.92857(9) 0.54550(6)
O3_6 O 0.6172(4) 0.5000 0.02671(10)
O4_6 O 0.5000 0.54822(12) 0.02580(8)
O5_9 O 0.7701(5) 0.54739(15) 0.0000
O6_9 O 0.6067(5) 0.61063(10) 0.0000
O13_6 O 0.3828(4) 0.5000 0.02671(10)
O14_6 O 0.5000 0.45178(12) 0.02580(8)
O15_9 O 0.2299(5) 0.45261(15) 0.0000
O16_9 O 0.3933(5) 0.38937(10) 0.0000
O18_7 O 0.4151(3) 0.53730(7) 0.07892(5)
O19_7 O 0.5849(3) 0.46270(7) 0.07892(5)
O5_10 O 0.7701(5) 0.54739(15) 1.0000
O6_10 O 0.6067(5) 0.61063(10) 1.0000
O15_10 O 0.2299(5) 0.45261(15) 1.0000
O16_10 O 0.3933(5) 0.38937(10) 1.0000
O21_7 O 0.3400(3) 0.42857(9) 0.95450(6)
O22_7 O 0.6600(3) 0.57143(9) 0.95450(6)
O23_6 O 0.6172(4) 0.5000 0.97329(10)
O24_6 O 0.3828(4) 0.5000 0.97329(10)
O25_6 O 0.5000 0.45178(12) 0.97420(8)
O26_6 O 0.5000 0.54822(12) 0.97420(8)
O5_11 O 0.7701(5) 0.45261(15) 0.0000
O6_11 O 0.6067(5) 0.38937(10) 0.0000
O15_11 O 0.2299(5) 0.54739(15) 0.0000
O16_11 O 0.3933(5) 0.61063(10) 0.0000
O21_8 O 0.3400(3) 0.57143(9) 0.04550(6)
O22_8 O 0.6600(3) 0.42857(9) 0.04550(6)
O5_12 O 0.7701(5) 0.45261(15) 1.0000
O6_12 O 0.6067(5) 0.38937(10) 1.0000
O15_12 O 0.2299(5) 0.54739(15) 1.0000
O16_12 O 0.3933(5) 0.61063(10) 1.0000
O18_8 O 0.4151(3) 0.46270(7) 0.92108(5)
O19_8 O 0.5849(3) 0.53730(7) 0.92108(5)
C1_5 C 0.8614(6) 0.93676(12) 0.92886(7)
C2_5 C 0.8375(6) 0.91101(12) 0.90282(8)
C3_5 C 0.8653(5) 0.91909(12) 0.87574(7)
H1_5 H 0.9017 0.9397 0.8724
C4_5 C 0.8382(6) 0.89525(12) 0.85108(7)
C5_5 C 0.7910(6) 0.86410(12) 0.85529(7)
C6_5 C 0.7618(6) 0.85677(16) 0.88437(8)
H2_5 H 0.7269 0.8358 0.8883
C7_5 C 0.7849(8) 0.88088(15) 0.90750(8)
H3_5 H 0.7636 0.8761 0.9266
C8_5 C 0.8706(5) 0.90484(15) 0.82274(9)
H4_5 H 0.9075 0.9255 0.8201
C9_5 C 0.8461(5) 0.88257(13) 0.79881(8)
H5_5 H 0.8656 0.8888 0.7798
C10_5 C 0.7930(5) 0.85126(10) 0.80276(6)
C11_5 C 0.7627(6) 0.84260(11) 0.83038(7)
H6_5 H 0.7235 0.8227 0.8330
C12_5 C 0.7747(5) 0.82889(10) 0.77629(5)
C13_5 C 0.7500 0.84853(15) 0.7500
H7_5 H 0.7500 0.8744 0.7500
C14_5 C 0.7734(5) 0.79060(11) 0.77577(6)
H8_5 H 0.7885 0.7777 0.7930
C15_5 C 0.7500 0.76995(14) 0.7500
C16_5 C 0.8614(6) 0.56324(12) 0.57114(7)
C17_5 C 0.8375(6) 0.58899(12) 0.59718(8)
C18_5 C 0.8653(5) 0.58091(12) 0.62426(7)
H9_5 H 0.9017 0.5603 0.6276
C19_5 C 0.8382(6) 0.60475(12) 0.64892(7)
C20_5 C 0.7910(6) 0.63590(12) 0.64471(7)
C21_5 C 0.7618(6) 0.64323(16) 0.61563(8)
H10_5 H 0.7269 0.6642 0.6117
C22_5 C 0.7849(8) 0.61912(15) 0.59250(8)
H11_5 H 0.7636 0.6239 0.5734
C23_5 C 0.8706(5) 0.59516(15) 0.67726(9)
H12_5 H 0.9075 0.5745 0.6799
C24_5 C 0.8461(5) 0.61743(13) 0.70119(8)
H13_5 H 0.8656 0.6112 0.7202
C25_5 C 0.7930(5) 0.64874(10) 0.69724(6)
C26_5 C 0.7627(6) 0.65740(11) 0.66962(7)
H14_5 H 0.7235 0.6773 0.6670
C27_5 C 0.7747(5) 0.67111(10) 0.72371(5)
C28_5 C 0.7500 0.65147(15) 0.7500
H15_5 H 0.7500 0.6256 0.7500
C29_5 C 0.7734(5) 0.70940(11) 0.72423(6)
H16_5 H 0.7885 0.7223 0.7070
C30_5 C 0.7500 0.73005(14) 0.7500
C31_5 C 0.6386(6) 0.93676(12) 0.57114(7)
C32_5 C 0.6625(6) 0.91101(12) 0.59718(8)
C33_5 C 0.6347(5) 0.91909(12) 0.62426(7)
H17_5 H 0.5983 0.9397 0.6276
C34_5 C 0.6618(6) 0.89525(12) 0.64892(7)
C35_5 C 0.7090(6) 0.86410(12) 0.64471(7)
C36_5 C 0.7382(6) 0.85677(16) 0.61563(8)
H18_5 H 0.7731 0.8358 0.6117
C37_5 C 0.7151(8) 0.88088(15) 0.59250(8)
H19_5 H 0.7364 0.8761 0.5734
C38_5 C 0.6294(5) 0.90484(15) 0.67726(9)
H20_5 H 0.5925 0.9255 0.6799
C39_5 C 0.6539(5) 0.88257(13) 0.70119(8)
H21_5 H 0.6344 0.8888 0.7202
C40_5 C 0.7070(5) 0.85126(10) 0.69724(6)
C41_5 C 0.7373(6) 0.84260(11) 0.66962(7)
H22_5 H 0.7765 0.8227 0.6670
C42_5 C 0.7253(5) 0.82889(10) 0.72371(5)
C43_5 C 0.7266(5) 0.79060(11) 0.72423(6)
H23_5 H 0.7115 0.7777 0.7070
C44_5 C 0.6386(6) 0.56324(12) 0.92886(7)
C45_5 C 0.6625(6) 0.58899(12) 0.90282(8)
C46_5 C 0.6347(5) 0.58091(12) 0.87574(7)
H24_5 H 0.5983 0.5603 0.8724
C47_5 C 0.6618(6) 0.60475(12) 0.85108(7)
C48_5 C 0.7090(6) 0.63590(12) 0.85529(7)
C49_5 C 0.7382(6) 0.64323(16) 0.88437(8)
H25_5 H 0.7731 0.6642 0.8883
C50_5 C 0.7151(8) 0.61912(15) 0.90750(8)
H26_5 H 0.7364 0.6239 0.9266
C51_5 C 0.6294(5) 0.59516(15) 0.82274(9)
H27_5 H 0.5925 0.5745 0.8201
C52_5 C 0.6539(5) 0.61743(13) 0.79881(8)
H28_5 H 0.6344 0.6112 0.7798
C53_5 C 0.7070(5) 0.64874(10) 0.80276(6)
C54_5 C 0.7373(6) 0.65740(11) 0.83038(7)
H29_5 H 0.7765 0.6773 0.8330
C55_5 C 0.7253(5) 0.67111(10) 0.77629(5)
C56_5 C 0.7266(5) 0.70940(11) 0.77577(6)
H30_5 H 0.7115 0.7223 0.7930
C1_6 C 0.1386(6) 0.06324(12) 0.92886(7)
C2_6 C 0.1625(6) 0.08899(12) 0.90282(8)
C3_6 C 0.1347(5) 0.08091(12) 0.87574(7)
H1_6 H 0.0983 0.0603 0.8724
C4_6 C 0.1618(6) 0.10475(12) 0.85108(7)
C5_6 C 0.2090(6) 0.13590(12) 0.85529(7)
C6_6 C 0.2382(6) 0.14323(16) 0.88437(8)
H2_6 H 0.2731 0.1642 0.8883
C7_6 C 0.2151(8) 0.11912(15) 0.90750(8)
H3_6 H 0.2364 0.1239 0.9266
C8_6 C 0.1294(5) 0.09516(15) 0.82274(9)
H4_6 H 0.0925 0.0745 0.8201
C9_6 C 0.1539(5) 0.11743(13) 0.79881(8)
H5_6 H 0.1344 0.1112 0.7798
C10_6 C 0.2070(5) 0.14874(10) 0.80276(6)
C11_6 C 0.2373(6) 0.15740(11) 0.83038(7)
H6_6 H 0.2765 0.1773 0.8330
C12_6 C 0.2253(5) 0.17111(10) 0.77629(5)
C13_6 C 0.2500 0.15147(15) 0.7500
H7_6 H 0.2500 0.1256 0.7500
C14_6 C 0.2266(5) 0.20940(11) 0.77577(6)
H8_6 H 0.2115 0.2223 0.7930
C15_6 C 0.2500 0.23005(14) 0.7500
C16_6 C 0.1386(6) 0.43676(12) 0.57114(7)
C17_6 C 0.1625(6) 0.41101(12) 0.59718(8)
C18_6 C 0.1347(5) 0.41909(12) 0.62426(7)
H9_6 H 0.0983 0.4397 0.6276
C19_6 C 0.1618(6) 0.39525(12) 0.64892(7)
C20_6 C 0.2090(6) 0.36410(12) 0.64471(7)
C21_6 C 0.2382(6) 0.35677(16) 0.61563(8)
H10_6 H 0.2731 0.3358 0.6117
C22_6 C 0.2151(8) 0.38088(15) 0.59250(8)
H11_6 H 0.2364 0.3761 0.5734
C23_6 C 0.1294(5) 0.40484(15) 0.67726(9)
H12_6 H 0.0925 0.4255 0.6799
C24_6 C 0.1539(5) 0.38257(13) 0.70119(8)
H13_6 H 0.1344 0.3888 0.7202
C25_6 C 0.2070(5) 0.35126(10) 0.69724(6)
C26_6 C 0.2373(6) 0.34260(11) 0.66962(7)
H14_6 H 0.2765 0.3227 0.6670
C27_6 C 0.2253(5) 0.32889(10) 0.72371(5)
C28_6 C 0.2500 0.34853(15) 0.7500
H15_6 H 0.2500 0.3744 0.7500
C29_6 C 0.2266(5) 0.29060(11) 0.72423(6)
H16_6 H 0.2115 0.2777 0.7070
C30_6 C 0.2500 0.26995(14) 0.7500
C31_6 C 0.3614(6) 0.06324(12) 0.57114(7)
C32_6 C 0.3375(6) 0.08899(12) 0.59718(8)
C33_6 C 0.3653(5) 0.08091(12) 0.62426(7)
H17_6 H 0.4017 0.0603 0.6276
C34_6 C 0.3382(6) 0.10475(12) 0.64892(7)
C35_6 C 0.2910(6) 0.13590(12) 0.64471(7)
C36_6 C 0.2618(6) 0.14323(16) 0.61563(8)
H18_6 H 0.2269 0.1642 0.6117
C37_6 C 0.2849(8) 0.11912(15) 0.59250(8)
H19_6 H 0.2636 0.1239 0.5734
C38_6 C 0.3706(5) 0.09516(15) 0.67726(9)
H20_6 H 0.4075 0.0745 0.6799
C39_6 C 0.3461(5) 0.11743(13) 0.70119(8)
H21_6 H 0.3656 0.1112 0.7202
C40_6 C 0.2930(5) 0.14874(10) 0.69724(6)
C41_6 C 0.2627(6) 0.15740(11) 0.66962(7)
H22_6 H 0.2235 0.1773 0.6670
C42_6 C 0.2747(5) 0.17111(10) 0.72371(5)
C43_6 C 0.2734(5) 0.20940(11) 0.72423(6)
H23_6 H 0.2885 0.2223 0.7070
C44_6 C 0.3614(6) 0.43676(12) 0.92886(7)
C45_6 C 0.3375(6) 0.41101(12) 0.90282(8)
C46_6 C 0.3653(5) 0.41909(12) 0.87574(7)
H24_6 H 0.4017 0.4397 0.8724
C47_6 C 0.3382(6) 0.39525(12) 0.85108(7)
C48_6 C 0.2910(6) 0.36410(12) 0.85529(7)
C49_6 C 0.2618(6) 0.35677(16) 0.88437(8)
H25_6 H 0.2269 0.3358 0.8883
C50_6 C 0.2849(8) 0.38088(15) 0.90750(8)
H26_6 H 0.2636 0.3761 0.9266
C51_6 C 0.3706(5) 0.40484(15) 0.82274(9)
H27_6 H 0.4075 0.4255 0.8201
C52_6 C 0.3461(5) 0.38257(13) 0.79881(8)
H28_6 H 0.3656 0.3888 0.7798
C53_6 C 0.2930(5) 0.35126(10) 0.80276(6)
C54_6 C 0.2627(6) 0.34260(11) 0.83038(7)
H29_6 H 0.2235 0.3227 0.8330
C55_6 C 0.2747(5) 0.32889(10) 0.77629(5)
C56_6 C 0.2734(5) 0.29060(11) 0.77577(6)
H30_6 H 0.2885 0.2777 0.7930
C1_7 C 0.8614(6) 0.06324(12) 0.07114(7)
C2_7 C 0.8375(6) 0.08899(12) 0.09718(8)
C3_7 C 0.8653(5) 0.08091(12) 0.12426(7)
H1_7 H 0.9017 0.0603 0.1276
C4_7 C 0.8382(6) 0.10475(12) 0.14892(7)
C5_7 C 0.7910(6) 0.13590(12) 0.14471(7)
C6_7 C 0.7618(6) 0.14323(16) 0.11563(8)
H2_7 H 0.7269 0.1642 0.1117
C7_7 C 0.7849(8) 0.11912(15) 0.09250(8)
H3_7 H 0.7636 0.1239 0.0734
C8_7 C 0.8706(5) 0.09516(15) 0.17726(9)
H4_7 H 0.9075 0.0745 0.1799
C9_7 C 0.8461(5) 0.11743(13) 0.20119(8)
H5_7 H 0.8656 0.1112 0.2202
C10_7 C 0.7930(5) 0.14874(10) 0.19724(6)
C11_7 C 0.7627(6) 0.15740(11) 0.16962(7)
H6_7 H 0.7235 0.1773 0.1670
C12_7 C 0.7747(5) 0.17111(10) 0.22371(5)
C13_7 C 0.7500 0.15147(15) 0.2500
H7_7 H 0.7500 0.1256 0.2500
C14_7 C 0.7734(5) 0.20940(11) 0.22423(6)
H8_7 H 0.7885 0.2223 0.2070
C15_7 C 0.7500 0.23005(14) 0.2500
C16_7 C 0.8614(6) 0.43676(12) 0.42886(7)
C17_7 C 0.8375(6) 0.41101(12) 0.40282(8)
C18_7 C 0.8653(5) 0.41909(12) 0.37574(7)
H9_7 H 0.9017 0.4397 0.3724
C19_7 C 0.8382(6) 0.39525(12) 0.35108(7)
C20_7 C 0.7910(6) 0.36410(12) 0.35529(7)
C21_7 C 0.7618(6) 0.35677(16) 0.38437(8)
H10_7 H 0.7269 0.3358 0.3883
C22_7 C 0.7849(8) 0.38088(15) 0.40750(8)
H11_7 H 0.7636 0.3761 0.4266
C23_7 C 0.8706(5) 0.40484(15) 0.32274(9)
H12_7 H 0.9075 0.4255 0.3201
C24_7 C 0.8461(5) 0.38257(13) 0.29881(8)
H13_7 H 0.8656 0.3888 0.2798
C25_7 C 0.7930(5) 0.35126(10) 0.30276(6)
C26_7 C 0.7627(6) 0.34260(11) 0.33038(7)
H14_7 H 0.7235 0.3227 0.3330
C27_7 C 0.7747(5) 0.32889(10) 0.27629(5)
C28_7 C 0.7500 0.34853(15) 0.2500
H15_7 H 0.7500 0.3744 0.2500
C29_7 C 0.7734(5) 0.29060(11) 0.27577(6)
H16_7 H 0.7885 0.2777 0.2930
C30_7 C 0.7500 0.26995(14) 0.2500
C31_7 C 0.6386(6) 0.06324(12) 0.42886(7)
C32_7 C 0.6625(6) 0.08899(12) 0.40282(8)
C33_7 C 0.6347(5) 0.08091(12) 0.37574(7)
H17_7 H 0.5983 0.0603 0.3724
C34_7 C 0.6618(6) 0.10475(12) 0.35108(7)
C35_7 C 0.7090(6) 0.13590(12) 0.35529(7)
C36_7 C 0.7382(6) 0.14323(16) 0.38437(8)
H18_7 H 0.7731 0.1642 0.3883
C37_7 C 0.7151(8) 0.11912(15) 0.40750(8)
H19_7 H 0.7364 0.1239 0.4266
C38_7 C 0.6294(5) 0.09516(15) 0.32274(9)
H20_7 H 0.5925 0.0745 0.3201
C39_7 C 0.6539(5) 0.11743(13) 0.29881(8)
H21_7 H 0.6344 0.1112 0.2798
C40_7 C 0.7070(5) 0.14874(10) 0.30276(6)
C41_7 C 0.7373(6) 0.15740(11) 0.33038(7)
H22_7 H 0.7765 0.1773 0.3330
C42_7 C 0.7253(5) 0.17111(10) 0.27629(5)
C43_7 C 0.7266(5) 0.20940(11) 0.27577(6)
H23_7 H 0.7115 0.2223 0.2930
C44_7 C 0.6386(6) 0.43676(12) 0.07114(7)
C45_7 C 0.6625(6) 0.41101(12) 0.09718(8)
C46_7 C 0.6347(5) 0.41909(12) 0.12426(7)
H24_7 H 0.5983 0.4397 0.1276
C47_7 C 0.6618(6) 0.39525(12) 0.14892(7)
C48_7 C 0.7090(6) 0.36410(12) 0.14471(7)
C49_7 C 0.7382(6) 0.35677(16) 0.11563(8)
H25_7 H 0.7731 0.3358 0.1117
C50_7 C 0.7151(8) 0.38088(15) 0.09250(8)
H26_7 H 0.7364 0.3761 0.0734
C51_7 C 0.6294(5) 0.40484(15) 0.17726(9)
H27_7 H 0.5925 0.4255 0.1799
C52_7 C 0.6539(5) 0.38257(13) 0.20119(8)
H28_7 H 0.6344 0.3888 0.2202
C53_7 C 0.7070(5) 0.35126(10) 0.19724(6)
C54_7 C 0.7373(6) 0.34260(11) 0.16962(7)
H29_7 H 0.7765 0.3227 0.1670
C55_7 C 0.7253(5) 0.32889(10) 0.22371(5)
C56_7 C 0.7266(5) 0.29060(11) 0.22423(6)
H30_7 H 0.7115 0.2777 0.2070
C1_8 C 0.1386(6) 0.93676(12) 0.07114(7)
C2_8 C 0.1625(6) 0.91101(12) 0.09718(8)
C3_8 C 0.1347(5) 0.91909(12) 0.12426(7)
H1_8 H 0.0983 0.9397 0.1276
C4_8 C 0.1618(6) 0.89525(12) 0.14892(7)
C5_8 C 0.2090(6) 0.86410(12) 0.14471(7)
C6_8 C 0.2382(6) 0.85677(16) 0.11563(8)
H2_8 H 0.2731 0.8358 0.1117
C7_8 C 0.2151(8) 0.88088(15) 0.09250(8)
H3_8 H 0.2364 0.8761 0.0734
C8_8 C 0.1294(5) 0.90484(15) 0.17726(9)
H4_8 H 0.0925 0.9255 0.1799
C9_8 C 0.1539(5) 0.88257(13) 0.20119(8)
H5_8 H 0.1344 0.8888 0.2202
C10_8 C 0.2070(5) 0.85126(10) 0.19724(6)
C11_8 C 0.2373(6) 0.84260(11) 0.16962(7)
H6_8 H 0.2765 0.8227 0.1670
C12_8 C 0.2253(5) 0.82889(10) 0.22371(5)
C13_8 C 0.2500 0.84853(15) 0.2500
H7_8 H 0.2500 0.8744 0.2500
C14_8 C 0.2266(5) 0.79060(11) 0.22423(6)
H8_8 H 0.2115 0.7777 0.2070
C15_8 C 0.2500 0.76995(14) 0.2500
C16_8 C 0.1386(6) 0.56324(12) 0.42886(7)
C17_8 C 0.1625(6) 0.58899(12) 0.40282(8)
C18_8 C 0.1347(5) 0.58091(12) 0.37574(7)
H9_8 H 0.0983 0.5603 0.3724
C19_8 C 0.1618(6) 0.60475(12) 0.35108(7)
C20_8 C 0.2090(6) 0.63590(12) 0.35529(7)
C21_8 C 0.2382(6) 0.64323(16) 0.38437(8)
H10_8 H 0.2731 0.6642 0.3883
C22_8 C 0.2151(8) 0.61912(15) 0.40750(8)
H11_8 H 0.2364 0.6239 0.4266
C23_8 C 0.1294(5) 0.59516(15) 0.32274(9)
H12_8 H 0.0925 0.5745 0.3201
C24_8 C 0.1539(5) 0.61743(13) 0.29881(8)
H13_8 H 0.1344 0.6112 0.2798
C25_8 C 0.2070(5) 0.64874(10) 0.30276(6)
C26_8 C 0.2373(6) 0.65740(11) 0.33038(7)
H14_8 H 0.2765 0.6773 0.3330
C27_8 C 0.2253(5) 0.67111(10) 0.27629(5)
C28_8 C 0.2500 0.65147(15) 0.2500
H15_8 H 0.2500 0.6256 0.2500
C29_8 C 0.2266(5) 0.70940(11) 0.27577(6)
H16_8 H 0.2115 0.7223 0.2930
C30_8 C 0.2500 0.73005(14) 0.2500
C31_8 C 0.3614(6) 0.93676(12) 0.42886(7)
C32_8 C 0.3375(6) 0.91101(12) 0.40282(8)
C33_8 C 0.3653(5) 0.91909(12) 0.37574(7)
H17_8 H 0.4017 0.9397 0.3724
C34_8 C 0.3382(6) 0.89525(12) 0.35108(7)
C35_8 C 0.2910(6) 0.86410(12) 0.35529(7)
C36_8 C 0.2618(6) 0.85677(16) 0.38437(8)
H18_8 H 0.2269 0.8358 0.3883
C37_8 C 0.2849(8) 0.88088(15) 0.40750(8)
H19_8 H 0.2636 0.8761 0.4266
C38_8 C 0.3706(5) 0.90484(15) 0.32274(9)
H20_8 H 0.4075 0.9255 0.3201
C39_8 C 0.3461(5) 0.88257(13) 0.29881(8)
H21_8 H 0.3656 0.8888 0.2798
C40_8 C 0.2930(5) 0.85126(10) 0.30276(6)
C41_8 C 0.2627(6) 0.84260(11) 0.33038(7)
H22_8 H 0.2235 0.8227 0.3330
C42_8 C 0.2747(5) 0.82889(10) 0.27629(5)
C43_8 C 0.2734(5) 0.79060(11) 0.27577(6)
H23_8 H 0.2885 0.7777 0.2930
C44_8 C 0.3614(6) 0.56324(12) 0.07114(7)
C45_8 C 0.3375(6) 0.58899(12) 0.09718(8)
C46_8 C 0.3653(5) 0.58091(12) 0.12426(7)
H24_8 H 0.4017 0.5603 0.1276
C47_8 C 0.3382(6) 0.60475(12) 0.14892(7)
C48_8 C 0.2910(6) 0.63590(12) 0.14471(7)
C49_8 C 0.2618(6) 0.64323(16) 0.11563(8)
H25_8 H 0.2269 0.6642 0.1117
C50_8 C 0.2849(8) 0.61912(15) 0.09250(8)
H26_8 H 0.2636 0.6239 0.0734
C51_8 C 0.3706(5) 0.59516(15) 0.17726(9)
H27_8 H 0.4075 0.5745 0.1799
C52_8 C 0.3461(5) 0.61743(13) 0.20119(8)
H28_8 H 0.3656 0.6112 0.2202
C53_8 C 0.2930(5) 0.64874(10) 0.19724(6)
C54_8 C 0.2627(6) 0.65740(11) 0.16962(7)
H29_8 H 0.2235 0.6773 0.1670
C55_8 C 0.2747(5) 0.67111(10) 0.22371(5)
C56_8 C 0.2734(5) 0.70940(11) 0.22423(6)
H30_8 H 0.2885 0.7223 0.2070
loop_
_geom_bond_atom_site_label_1
_geom_bond_atom_site_label_2
_geom_bond_site_symmetry_1
_geom_bond_site_symmetry_2
Zr1 O1 1_555 1_555
Zr2 O2 1_555 1_555
O1 C1 1_555 1_555
O2 C1 1_555 1_555
O3 Zr1 1_555 1_555
O4 Zr1 1_555 1_555
O5 Zr2 1_555 1_555
O6 Zr2 1_555 1_555
C1 C2 1_555 1_555
C2 C3 1_555 1_555
C3 H1 1_555 1_555
C4 C3 1_555 1_555
C5 C4 1_555 1_555
C6 C5 1_555 1_555
H2 C6 1_555 1_555
C7 C2 1_555 1_555
H3 C7 1_555 1_555
C8 C4 1_555 1_555
H4 C8 1_555 1_555
C9 C8 1_555 1_555
H5 C9 1_555 1_555
C10 C9 1_555 1_555
C11 C5 1_555 1_555
H6 C11 1_555 1_555
C12 C10 1_555 1_555
C13 C12 1_555 1_555
H7 C13 1_555 1_555
C14 C12 1_555 1_555
H8 C14 1_555 1_555
C15 C14 1_555 1_555
O7 C16 1_555 1_555
O8 C16 1_555 1_555
C16 C17 1_555 1_555
C17 C18 1_555 1_555
C18 H9 1_555 1_555
C19 C18 1_555 1_555
C20 C19 1_555 1_555
C21 C20 1_555 1_555
H10 C21 1_555 1_555
C22 C17 1_555 1_555
H11 C22 1_555 1_555
C23 C19 1_555 1_555
H12 C23 1_555 1_555
C24 C23 1_555 1_555
H13 C24 1_555 1_555
C25 C24 1_555 1_555
C26 C20 1_555 1_555
H14 C26 1_555 1_555
C27 C25 1_555 1_555
C28 C27 1_555 1_555
H15 C28 1_555 1_555
C29 C27 1_555 1_555
H16 C29 1_555 1_555
C30 C15 1_555 1_555
O9 C31 1_555 1_555
O10 C31 1_555 1_555
C31 C32 1_555 1_555
C32 C33 1_555 1_555
C33 H17 1_555 1_555
C34 C33 1_555 1_555
C35 C34 1_555 1_555
C36 C35 1_555 1_555
H18 C36 1_555 1_555
C37 C32 1_555 1_555
H19 C37 1_555 1_555
C38 C34 1_555 1_555
H20 C38 1_555 1_555
C39 C38 1_555 1_555
H21 C39 1_555 1_555
C40 C39 1_555 1_555
C41 C35 1_555 1_555
H22 C41 1_555 1_555
C42 C13 1_555 1_555
C43 C15 1_555 1_555
H23 C43 1_555 1_555
O11 C44 1_555 1_555
O12 C44 1_555 1_555
C44 C45 1_555 1_555
C45 C46 1_555 1_555
C46 H24 1_555 1_555
C47 C46 1_555 1_555
C48 C47 1_555 1_555
C49 C48 1_555 1_555
H25 C49 1_555 1_555
C50 C45 1_555 1_555
H26 C50 1_555 1_555
C51 C47 1_555 1_555
H27 C51 1_555 1_555
C52 C51 1_555 1_555
H28 C52 1_555 1_555
C53 C52 1_555 1_555
C54 C48 1_555 1_555
H29 C54 1_555 1_555
C55 C28 1_555 1_555
C56 C30 1_555 1_555
H30 C56 1_555 1_555
Zr4 O7 1_555 1_555
Zr5 O9 1_555 1_555
Zr6 O11 1_555 1_555
Zr9 O8 1_555 1_555
Zr10 O10 1_555 1_555
Zr11 O12 1_555 1_555
Zr2 O3 1_555 1_555
Zr2 O4 1_555 1_555
C6 C7 1_555 1_555
C10 C11 1_555 1_555
C21 C22 1_555 1_555
C25 C26 1_555 1_555
C29 C30 1_555 1_555
C36 C37 1_555 1_555
C40 C41 1_555 1_555
C40 C42 1_555 1_555
C42 C43 1_555 1_555
C49 C50 1_555 1_555
C53 C54 1_555 1_555
C53 C55 1_555 1_555
C55 C56 1_555 1_555
O5_2 Zr2_2 1_555 1_555
O6_2 Zr2_2 1_555 1_555
O22 Zr2_2 1_555 1_555
O23 Zr2_2 1_555 1_555
O26 Zr2_2 1_555 1_555
O3_2 Zr1_2 1_555 1_555
O14 Zr1_2 1_555 1_555
Zr7 O3_2 1_555 1_555
O19 Zr1_2 1_555 1_555
O14 Zr7 1_555 1_555
Zr7_2 O23_2 1_555 1_555
Zr7_2 O25 1_555 1_555
O4_2 Zr1_3 1_555 1_555
O13 Zr1_3 1_555 1_555
Zr8 O4_2 1_555 1_555
O18 Zr1_3 1_555 1_555
O13 Zr8 1_555 1_555
Zr8_2 O24 1_555 1_555
Zr8_2 O26_2 1_555 1_555
Zr3 O13_2 1_555 1_555
O13_2 Zr1_4 1_555 1_555
O14_2 Zr1_4 1_555 1_555
O15 Zr3 1_555 1_555
O16 Zr3 1_555 1_555
O17 Zr1_4 1_555 1_555
O20 Zr3 1_555 1_555
Zr3 O14_2 1_555 1_555
O15_2 Zr3_2 1_555 1_555
O16_2 Zr3_2 1_555 1_555
O21 Zr3_2 1_555 1_555
O24_2 Zr3_2 1_555 1_555
O25_2 Zr3_2 1_555 1_555
O17 C1_2 1_555 1_555
O20 C1_2 1_555 1_555
C1_2 C2_2 1_555 1_555
C2_2 C3_2 1_555 1_555
C3_2 H1_2 1_555 1_555
C4_2 C3_2 1_555 1_555
C5_2 C4_2 1_555 1_555
C6_2 C5_2 1_555 1_555
H2_2 C6_2 1_555 1_555
C7_2 C2_2 1_555 1_555
H3_2 C7_2 1_555 1_555
C8_2 C4_2 1_555 1_555
H4_2 C8_2 1_555 1_555
C9_2 C8_2 1_555 1_555
H5_2 C9_2 1_555 1_555
C10_2 C9_2 1_555 1_555
C11_2 C5_2 1_555 1_555
H6_2 C11_2 1_555 1_555
C12_2 C10_2 1_555 1_555
C13_2 C12_2 1_555 1_555
H7_2 C13_2 1_555 1_555
C14_2 C12_2 1_555 1_555
H8_2 C14_2 1_555 1_555
C15_2 C14_2 1_555 1_555
O7_2 C16_2 1_555 1_555
O8_2 C16_2 1_555 1_555
C16_2 C17_2 1_555 1_555
C17_2 C18_2 1_555 1_555
C18_2 H9_2 1_555 1_555
C19_2 C18_2 1_555 1_555
C20_2 C19_2 1_555 1_555
C21_2 C20_2 1_555 1_555
H10_2 C21_2 1_555 1_555
C22_2 C17_2 1_555 1_555
H11_2 C22_2 1_555 1_555
C23_2 C19_2 1_555 1_555
H12_2 C23_2 1_555 1_555
C24_2 C23_2 1_555 1_555
H13_2 C24_2 1_555 1_555
C25_2 C24_2 1_555 1_555
C26_2 C20_2 1_555 1_555
H14_2 C26_2 1_555 1_555
C27_2 C25_2 1_555 1_555
C28_2 C27_2 1_555 1_555
H15_2 C28_2 1_555 1_555
C29_2 C27_2 1_555 1_555
H16_2 C29_2 1_555 1_555
C30_2 C15_2 1_555 1_555
O9_2 C31_2 1_555 1_555
O10_2 C31_2 1_555 1_555
C31_2 C32_2 1_555 1_555
C32_2 C33_2 1_555 1_555
C33_2 H17_2 1_555 1_555
C34_2 C33_2 1_555 1_555
C35_2 C34_2 1_555 1_555
C36_2 C35_2 1_555 1_555
H18_2 C36_2 1_555 1_555
C37_2 C32_2 1_555 1_555
H19_2 C37_2 1_555 1_555
C38_2 C34_2 1_555 1_555
H20_2 C38_2 1_555 1_555
C39_2 C38_2 1_555 1_555
H21_2 C39_2 1_555 1_555
C40_2 C39_2 1_555 1_555
C41_2 C35_2 1_555 1_555
H22_2 C41_2 1_555 1_555
C42_2 C13_2 1_555 1_555
C43_2 C15_2 1_555 1_555
H23_2 C43_2 1_555 1_555
O11_2 C44_2 1_555 1_555
O12_2 C44_2 1_555 1_555
C44_2 C45_2 1_555 1_555
C45_2 C46_2 1_555 1_555
C46_2 H24_2 1_555 1_555
C47_2 C46_2 1_555 1_555
C48_2 C47_2 1_555 1_555
C49_2 C48_2 1_555 1_555
H25_2 C49_2 1_555 1_555
C50_2 C45_2 1_555 1_555
H26_2 C50_2 1_555 1_555
C51_2 C47_2 1_555 1_555
H27_2 C51_2 1_555 1_555
C52_2 C51_2 1_555 1_555
H28_2 C52_2 1_555 1_555
C53_2 C52_2 1_555 1_555
C54_2 C48_2 1_555 1_555
H29_2 C54_2 1_555 1_555
C55_2 C28_2 1_555 1_555
C56_2 C30_2 1_555 1_555
H30_2 C56_2 1_555 1_555
Zr4_2 O7_2 1_555 1_555
Zr5_2 O9_2 1_555 1_555
Zr6 O11_2 1_555 1_555
Zr9_2 O8_2 1_555 1_555
Zr10_2 O10_2 1_555 1_555
Zr11_3 O12_2 1_555 1_555
C6_2 C7_2 1_555 1_555
C10_2 C11_2 1_555 1_555
C21_2 C22_2 1_555 1_555
C25_2 C26_2 1_555 1_555
C29_2 C30_2 1_555 1_555
C36_2 C37_2 1_555 1_555
C40_2 C41_2 1_555 1_555
C40_2 C42_2 1_555 1_555
C42_2 C43_2 1_555 1_555
C49_2 C50_2 1_555 1_555
C53_2 C54_2 1_555 1_555
C53_2 C55_2 1_555 1_555
C55_2 C56_2 1_555 1_555
O23 Zr1_5 1_555 1_555
O26 Zr1_5 1_555 1_555
O19_2 Zr1_5 1_555 1_555
O5_3 Zr7 1_555 1_555
O6_3 Zr7 1_555 1_555
O22_2 Zr7 1_555 1_555
Zr1_6 O1_2 1_555 1_555
Zr7_2 O2_2 1_555 1_555
O1_2 C1_3 1_555 1_555
O2_2 C1_3 1_555 1_555
O23_2 Zr1_6 1_555 1_555
O25 Zr1_6 1_555 1_555
O5_4 Zr7_2 1_555 1_555
O6_4 Zr7_2 1_555 1_555
C1_3 C2_3 1_555 1_555
C2_3 C3_3 1_555 1_555
C3_3 H1_3 1_555 1_555
C4_3 C3_3 1_555 1_555
C5_3 C4_3 1_555 1_555
C6_3 C5_3 1_555 1_555
H2_3 C6_3 1_555 1_555
C7_3 C2_3 1_555 1_555
H3_3 C7_3 1_555 1_555
C8_3 C4_3 1_555 1_555
H4_3 C8_3 1_555 1_555
C9_3 C8_3 1_555 1_555
H5_3 C9_3 1_555 1_555
C10_3 C9_3 1_555 1_555
C11_3 C5_3 1_555 1_555
H6_3 C11_3 1_555 1_555
C12_3 C10_3 1_555 1_555
C13_3 C12_3 1_555 1_555
H7_3 C13_3 1_555 1_555
C14_3 C12_3 1_555 1_555
H8_3 C14_3 1_555 1_555
C15_3 C14_3 1_555 1_555
O7_3 C16_3 1_555 1_555
O8_3 C16_3 1_555 1_555
C16_3 C17_3 1_555 1_555
C17_3 C18_3 1_555 1_555
C18_3 H9_3 1_555 1_555
C19_3 C18_3 1_555 1_555
C20_3 C19_3 1_555 1_555
C21_3 C20_3 1_555 1_555
H10_3 C21_3 1_555 1_555
C22_3 C17_3 1_555 1_555
H11_3 C22_3 1_555 1_555
C23_3 C19_3 1_555 1_555
H12_3 C23_3 1_555 1_555
C24_3 C23_3 1_555 1_555
H13_3 C24_3 1_555 1_555
C25_3 C24_3 1_555 1_555
C26_3 C20_3 1_555 1_555
H14_3 C26_3 1_555 1_555
C27_3 C25_3 1_555 1_555
C28_3 C27_3 1_555 1_555
H15_3 C28_3 1_555 1_555
C29_3 C27_3 1_555 1_555
H16_3 C29_3 1_555 1_555
C30_3 C15_3 1_555 1_555
O9_3 C31_3 1_555 1_555
O10_3 C31_3 1_555 1_555
C31_3 C32_3 1_555 1_555
C32_3 C33_3 1_555 1_555
C33_3 H17_3 1_555 1_555
C34_3 C33_3 1_555 1_555
C35_3 C34_3 1_555 1_555
C36_3 C35_3 1_555 1_555
H18_3 C36_3 1_555 1_555
C37_3 C32_3 1_555 1_555
H19_3 C37_3 1_555 1_555
C38_3 C34_3 1_555 1_555
H20_3 C38_3 1_555 1_555
C39_3 C38_3 1_555 1_555
H21_3 C39_3 1_555 1_555
C40_3 C39_3 1_555 1_555
C41_3 C35_3 1_555 1_555
H22_3 C41_3 1_555 1_555
C42_3 C13_3 1_555 1_555
C43_3 C15_3 1_555 1_555
H23_3 C43_3 1_555 1_555
O11_3 C44_3 1_555 1_555
O12_3 C44_3 1_555 1_555
C44_3 C45_3 1_555 1_555
C45_3 C46_3 1_555 1_555
C46_3 H24_3 1_555 1_555
C47_3 C46_3 1_555 1_555
C48_3 C47_3 1_555 1_555
C49_3 C48_3 1_555 1_555
H25_3 C49_3 1_555 1_555
C50_3 C45_3 1_555 1_555
H26_3 C50_3 1_555 1_555
C51_3 C47_3 1_555 1_555
H27_3 C51_3 1_555 1_555
C52_3 C51_3 1_555 1_555
H28_3 C52_3 1_555 1_555
C53_3 C52_3 1_555 1_555
C54_3 C48_3 1_555 1_555
H29_3 C54_3 1_555 1_555
C55_3 C28_3 1_555 1_555
C56_3 C30_3 1_555 1_555
H30_3 C56_3 1_555 1_555
Zr4_3 O7_3 1_555 1_555
Zr5_4 O9_3 1_555 1_555
Zr6_2 O11_3 1_555 1_555
Zr9_3 O8_3 1_555 1_555
Zr10_3 O10_3 1_555 1_555
Zr11_6 O12_3 1_555 1_555
C6_3 C7_3 1_555 1_555
C10_3 C11_3 1_555 1_555
C21_3 C22_3 1_555 1_555
C25_3 C26_3 1_555 1_555
C29_3 C30_3 1_555 1_555
C36_3 C37_3 1_555 1_555
C40_3 C41_3 1_555 1_555
C40_3 C42_3 1_555 1_555
C42_3 C43_3 1_555 1_555
C49_3 C50_3 1_555 1_555
C53_3 C54_3 1_555 1_555
C53_3 C55_3 1_555 1_555
C55_3 C56_3 1_555 1_555
O15_3 Zr8 1_555 1_555
O16_3 Zr8 1_555 1_555
O21_2 Zr8 1_555 1_555
O24 Zr1_7 1_555 1_555
O26_2 Zr1_7 1_555 1_555
O15_4 Zr8_2 1_555 1_555
O16_4 Zr8_2 1_555 1_555
O17_2 Zr1_7 1_555 1_555
O20_2 Zr8_2 1_555 1_555
O25_2 Zr1_8 1_555 1_555
O24_2 Zr1_8 1_555 1_555
O18_2 Zr1_8 1_555 1_555
O17_2 C1_4 1_555 1_555
O20_2 C1_4 1_555 1_555
C1_4 C2_4 1_555 1_555
C2_4 C3_4 1_555 1_555
C3_4 H1_4 1_555 1_555
C4_4 C3_4 1_555 1_555
C5_4 C4_4 1_555 1_555
C6_4 C5_4 1_555 1_555
H2_4 C6_4 1_555 1_555
C7_4 C2_4 1_555 1_555
H3_4 C7_4 1_555 1_555
C8_4 C4_4 1_555 1_555
H4_4 C8_4 1_555 1_555
C9_4 C8_4 1_555 1_555
H5_4 C9_4 1_555 1_555
C10_4 C9_4 1_555 1_555
C11_4 C5_4 1_555 1_555
H6_4 C11_4 1_555 1_555
C12_4 C10_4 1_555 1_555
C13_4 C12_4 1_555 1_555
H7_4 C13_4 1_555 1_555
C14_4 C12_4 1_555 1_555
H8_4 C14_4 1_555 1_555
C15_4 C14_4 1_555 1_555
O7_4 C16_4 1_555 1_555
O8_4 C16_4 1_555 1_555
C16_4 C17_4 1_555 1_555
C17_4 C18_4 1_555 1_555
C18_4 H9_4 1_555 1_555
C19_4 C18_4 1_555 1_555
C20_4 C19_4 1_555 1_555
C21_4 C20_4 1_555 1_555
H10_4 C21_4 1_555 1_555
C22_4 C17_4 1_555 1_555
H11_4 C22_4 1_555 1_555
C23_4 C19_4 1_555 1_555
H12_4 C23_4 1_555 1_555
C24_4 C23_4 1_555 1_555
H13_4 C24_4 1_555 1_555
C25_4 C24_4 1_555 1_555
C26_4 C20_4 1_555 1_555
H14_4 C26_4 1_555 1_555
C27_4 C25_4 1_555 1_555
C28_4 C27_4 1_555 1_555
H15_4 C28_4 1_555 1_555
C29_4 C27_4 1_555 1_555
H16_4 C29_4 1_555 1_555
C30_4 C15_4 1_555 1_555
O9_4 C31_4 1_555 1_555
O10_4 C31_4 1_555 1_555
C31_4 C32_4 1_555 1_555
C32_4 C33_4 1_555 1_555
C33_4 H17_4 1_555 1_555
C34_4 C33_4 1_555 1_555
C35_4 C34_4 1_555 1_555
C36_4 C35_4 1_555 1_555
H18_4 C36_4 1_555 1_555
C37_4 C32_4 1_555 1_555
H19_4 C37_4 1_555 1_555
C38_4 C34_4 1_555 1_555
H20_4 C38_4 1_555 1_555
C39_4 C38_4 1_555 1_555
H21_4 C39_4 1_555 1_555
C40_4 C39_4 1_555 1_555
C41_4 C35_4 1_555 1_555
H22_4 C41_4 1_555 1_555
C42_4 C13_4 1_555 1_555
C43_4 C15_4 1_555 1_555
H23_4 C43_4 1_555 1_555
O11_4 C44_4 1_555 1_555
O12_4 C44_4 1_555 1_555
C44_4 C45_4 1_555 1_555
C45_4 C46_4 1_555 1_555
C46_4 H24_4 1_555 1_555
C47_4 C46_4 1_555 1_555
C48_4 C47_4 1_555 1_555
C49_4 C48_4 1_555 1_555
H25_4 C49_4 1_555 1_555
C50_4 C45_4 1_555 1_555
H26_4 C50_4 1_555 1_555
C51_4 C47_4 1_555 1_555
H27_4 C51_4 1_555 1_555
C52_4 C51_4 1_555 1_555
H28_4 C52_4 1_555 1_555
C53_4 C52_4 1_555 1_555
C54_4 C48_4 1_555 1_555
H29_4 C54_4 1_555 1_555
C55_4 C28_4 1_555 1_555
C56_4 C30_4 1_555 1_555
H30_4 C56_4 1_555 1_555
Zr4_4 O7_4 1_555 1_555
Zr5_3 O9_4 1_555 1_555
Zr6_2 O11_4 1_555 1_555
Zr9_4 O8_4 1_555 1_555
Zr10_4 O10_4 1_555 1_555
Zr11_8 O12_4 1_555 1_555
C6_4 C7_4 1_555 1_555
C10_4 C11_4 1_555 1_555
C21_4 C22_4 1_555 1_555
C25_4 C26_4 1_555 1_555
C29_4 C30_4 1_555 1_555
C36_4 C37_4 1_555 1_555
C40_4 C41_4 1_555 1_555
C40_4 C42_4 1_555 1_555
C42_4 C43_4 1_555 1_555
C49_4 C50_4 1_555 1_555
C53_4 C54_4 1_555 1_555
C53_4 C55_4 1_555 1_555
C55_4 C56_4 1_555 1_555
O3_3 Zr4_3 1_555 1_555
O4_3 Zr4_3 1_555 1_555
O5_5 Zr9_3 1_555 1_555
O6_5 Zr9_3 1_555 1_555
O14_3 Zr4_3 1_555 1_555
Zr9 O3_3 1_555 1_555
O19_3 Zr4_3 1_555 1_555
O22_3 Zr9_3 1_555 1_555
O23_3 Zr9_3 1_555 1_555
O26_3 Zr9_3 1_555 1_555
Zr9_3 O3_3 1_555 1_555
Zr9_3 O4_3 1_555 1_555
O14_3 Zr9 1_555 1_555
Zr9 O23_3 1_555 1_555
Zr9 O25_3 1_555 1_555
O4_4 Zr4_4 1_555 1_555
Zr9_4 O13_3 1_555 1_555
O13_3 Zr4_4 1_555 1_555
O14_4 Zr4_4 1_555 1_555
O15_5 Zr9_4 1_555 1_555
O16_5 Zr9_4 1_555 1_555
Zr9_2 O4_4 1_555 1_555
O18_3 Zr4_4 1_555 1_555
O21_3 Zr9_4 1_555 1_555
O24_3 Zr9_4 1_555 1_555
O25_4 Zr9_4 1_555 1_555
Zr9_4 O14_4 1_555 1_555
O13_3 Zr9_2 1_555 1_555
Zr9_2 O24_3 1_555 1_555
Zr9_2 O26_4 1_555 1_555
O23_3 Zr4 1_555 1_555
O25_3 Zr4 1_555 1_555
O5_6 Zr9 1_555 1_555
O6_6 Zr9 1_555 1_555
O26_3 Zr4 1_555 1_555
O19_4 Zr4 1_555 1_555
O22_4 Zr9 1_555 1_555
O25_4 Zr4_2 1_555 1_555
O24_3 Zr4_2 1_555 1_555
O26_4 Zr4_2 1_555 1_555
O15_6 Zr9_2 1_555 1_555
O16_6 Zr9_2 1_555 1_555
O18_4 Zr4_2 1_555 1_555
O21_4 Zr9_2 1_555 1_555
O3_4 Zr5_3 1_555 1_555
O4_5 Zr5_3 1_555 1_555
O5_7 Zr10_4 1_555 1_555
O6_7 Zr10_4 1_555 1_555
O13_4 Zr5_3 1_555 1_555
Zr10 O4_5 1_555 1_555
O18_5 Zr5_3 1_555 1_555
O22_5 Zr10_4 1_555 1_555
O23_4 Zr10_4 1_555 1_555
O26_5 Zr10_4 1_555 1_555
Zr10_4 O3_4 1_555 1_555
Zr10_4 O4_5 1_555 1_555
O13_4 Zr10 1_555 1_555
Zr10 O24_4 1_555 1_555
Zr10 O26_5 1_555 1_555
O3_5 Zr5_4 1_555 1_555
Zr10_3 O13_5 1_555 1_555
O13_5 Zr5_4 1_555 1_555
O14_5 Zr5_4 1_555 1_555
O15_7 Zr10_3 1_555 1_555
O16_7 Zr10_3 1_555 1_555
Zr10_2 O3_5 1_555 1_555
O19_5 Zr5_4 1_555 1_555
O21_5 Zr10_3 1_555 1_555
O24_5 Zr10_3 1_555 1_555
O25_5 Zr10_3 1_555 1_555
Zr10_3 O14_5 1_555 1_555
O14_5 Zr10_2 1_555 1_555
Zr10_2 O23_5 1_555 1_555
Zr10_2 O25_5 1_555 1_555
O23_4 Zr5 1_555 1_555
O24_4 Zr5 1_555 1_555
O26_5 Zr5 1_555 1_555
O15_8 Zr10 1_555 1_555
O16_8 Zr10 1_555 1_555
O19_6 Zr5 1_555 1_555
O21_6 Zr10 1_555 1_555
O23_5 Zr5_2 1_555 1_555
O25_5 Zr5_2 1_555 1_555
O5_8 Zr10_2 1_555 1_555
O6_8 Zr10_2 1_555 1_555
O24_5 Zr5_2 1_555 1_555
O18_6 Zr5_2 1_555 1_555
O22_6 Zr10_2 1_555 1_555
O3_6 Zr6 1_555 1_555
O4_6 Zr6 1_555 1_555
O5_9 Zr11_3 1_555 1_555
O6_9 Zr11_3 1_555 1_555
Zr11 O13_6 1_555 1_555
O13_6 Zr6 1_555 1_555
O14_6 Zr6 1_555 1_555
O15_9 Zr11 1_555 1_555
O16_9 Zr11 1_555 1_555
Zr11_7 O3_6 1_555 1_555
Zr11_5 O4_6 1_555 1_555
O18_7 Zr6 1_555 1_555
O19_7 Zr6 1_555 1_555
Zr11_3 O3_6 1_555 1_555
Zr11_3 O4_6 1_555 1_555
Zr11 O14_6 1_555 1_555
O13_6 Zr11_5 1_555 1_555
O14_6 Zr11_7 1_555 1_555
O5_10 Zr11_4 1_555 1_555
O6_10 Zr11_4 1_555 1_555
O15_10 Zr11_2 1_555 1_555
O16_10 Zr11_2 1_555 1_555
O21_7 Zr11_2 1_555 1_555
O22_7 Zr11_4 1_555 1_555
O23_6 Zr11_4 1_555 1_555
O24_6 Zr11_2 1_555 1_555
O25_6 Zr11_2 1_555 1_555
O26_6 Zr11_4 1_555 1_555
Zr11_8 O23_6 1_555 1_555
Zr11_8 O25_6 1_555 1_555
Zr11_6 O24_6 1_555 1_555
Zr11_6 O26_6 1_555 1_555
O5_11 Zr11_7 1_555 1_555
O6_11 Zr11_7 1_555 1_555
O15_11 Zr11_5 1_555 1_555
O16_11 Zr11_5 1_555 1_555
O21_8 Zr11_5 1_555 1_555
O22_8 Zr11_7 1_555 1_555
O23_6 Zr6_2 1_555 1_555
O25_6 Zr6_2 1_555 1_555
O5_12 Zr11_8 1_555 1_555
O6_12 Zr11_8 1_555 1_555
O24_6 Zr6_2 1_555 1_555
O26_6 Zr6_2 1_555 1_555
O15_12 Zr11_6 1_555 1_555
O16_12 Zr11_6 1_555 1_555
O18_8 Zr6_2 1_555 1_555
O19_8 Zr6_2 1_555 1_555
O18_2 C1_5 1_555 1_555
O21 C1_5 1_555 1_555
C1_5 C2_5 1_555 1_555
C2_5 C3_5 1_555 1_555
C3_5 H1_5 1_555 1_555
C4_5 C3_5 1_555 1_555
C5_5 C4_5 1_555 1_555
C6_5 C5_5 1_555 1_555
H2_5 C6_5 1_555 1_555
C7_5 C2_5 1_555 1_555
H3_5 C7_5 1_555 1_555
C8_5 C4_5 1_555 1_555
H4_5 C8_5 1_555 1_555
C9_5 C8_5 1_555 1_555
H5_5 C9_5 1_555 1_555
C10_5 C9_5 1_555 1_555
C11_5 C5_5 1_555 1_555
H6_5 C11_5 1_555 1_555
C12_5 C10_5 1_555 1_555
C13_5 C12_5 1_555 1_555
H7_5 C13_5 1_555 1_555
C14_5 C12_5 1_555 1_555
H8_5 C14_5 1_555 1_555
C15_5 C14_5 1_555 1_555
O18_3 C16_5 1_555 1_555
O21_4 C16_5 1_555 1_555
C16_5 C17_5 1_555 1_555
C17_5 C18_5 1_555 1_555
C18_5 H9_5 1_555 1_555
C19_5 C18_5 1_555 1_555
C20_5 C19_5 1_555 1_555
C21_5 C20_5 1_555 1_555
H10_5 C21_5 1_555 1_555
C22_5 C17_5 1_555 1_555
H11_5 C22_5 1_555 1_555
C23_5 C19_5 1_555 1_555
H12_5 C23_5 1_555 1_555
C24_5 C23_5 1_555 1_555
H13_5 C24_5 1_555 1_555
C25_5 C24_5 1_555 1_555
C26_5 C20_5 1_555 1_555
H14_5 C26_5 1_555 1_555
C27_5 C25_5 1_555 1_555
C28_5 C27_5 1_555 1_555
H15_5 C28_5 1_555 1_555
C29_5 C27_5 1_555 1_555
H16_5 C29_5 1_555 1_555
C30_5 C15_5 1_555 1_555
O19_5 C31_5 1_555 1_555
O22_6 C31_5 1_555 1_555
C31_5 C32_5 1_555 1_555
C32_5 C33_5 1_555 1_555
C33_5 H17_5 1_555 1_555
C34_5 C33_5 1_555 1_555
C35_5 C34_5 1_555 1_555
C36_5 C35_5 1_555 1_555
H18_5 C36_5 1_555 1_555
C37_5 C32_5 1_555 1_555
H19_5 C37_5 1_555 1_555
C38_5 C34_5 1_555 1_555
H20_5 C38_5 1_555 1_555
C39_5 C38_5 1_555 1_555
H21_5 C39_5 1_555 1_555
C40_5 C39_5 1_555 1_555
C41_5 C35_5 1_555 1_555
H22_5 C41_5 1_555 1_555
C42_5 C13_5 1_555 1_555
C43_5 C15_5 1_555 1_555
H23_5 C43_5 1_555 1_555
O19_8 C44_5 1_555 1_555
O22_7 C44_5 1_555 1_555
C44_5 C45_5 1_555 1_555
C45_5 C46_5 1_555 1_555
C46_5 H24_5 1_555 1_555
C47_5 C46_5 1_555 1_555
C48_5 C47_5 1_555 1_555
C49_5 C48_5 1_555 1_555
H25_5 C49_5 1_555 1_555
C50_5 C45_5 1_555 1_555
H26_5 C50_5 1_555 1_555
C51_5 C47_5 1_555 1_555
H27_5 C51_5 1_555 1_555
C52_5 C51_5 1_555 1_555
H28_5 C52_5 1_555 1_555
C53_5 C52_5 1_555 1_555
C54_5 C48_5 1_555 1_555
H29_5 C54_5 1_555 1_555
C55_5 C28_5 1_555 1_555
C56_5 C30_5 1_555 1_555
H30_5 C56_5 1_555 1_555
C6_5 C7_5 1_555 1_555
C10_5 C11_5 1_555 1_555
C21_5 C22_5 1_555 1_555
C25_5 C26_5 1_555 1_555
C29_5 C30_5 1_555 1_555
C36_5 C37_5 1_555 1_555
C40_5 C41_5 1_555 1_555
C40_5 C42_5 1_555 1_555
C42_5 C43_5 1_555 1_555
C49_5 C50_5 1_555 1_555
C53_5 C54_5 1_555 1_555
C53_5 C55_5 1_555 1_555
C55_5 C56_5 1_555 1_555
O19_2 C1_6 1_555 1_555
O22 C1_6 1_555 1_555
C1_6 C2_6 1_555 1_555
C2_6 C3_6 1_555 1_555
C3_6 H1_6 1_555 1_555
C4_6 C3_6 1_555 1_555
C5_6 C4_6 1_555 1_555
C6_6 C5_6 1_555 1_555
H2_6 C6_6 1_555 1_555
C7_6 C2_6 1_555 1_555
H3_6 C7_6 1_555 1_555
C8_6 C4_6 1_555 1_555
H4_6 C8_6 1_555 1_555
C9_6 C8_6 1_555 1_555
H5_6 C9_6 1_555 1_555
C10_6 C9_6 1_555 1_555
C11_6 C5_6 1_555 1_555
H6_6 C11_6 1_555 1_555
C12_6 C10_6 1_555 1_555
C13_6 C12_6 1_555 1_555
H7_6 C13_6 1_555 1_555
C14_6 C12_6 1_555 1_555
H8_6 C14_6 1_555 1_555
C15_6 C14_6 1_555 1_555
O19_3 C16_6 1_555 1_555
O22_4 C16_6 1_555 1_555
C16_6 C17_6 1_555 1_555
C17_6 C18_6 1_555 1_555
C18_6 H9_6 1_555 1_555
C19_6 C18_6 1_555 1_555
C20_6 C19_6 1_555 1_555
C21_6 C20_6 1_555 1_555
H10_6 C21_6 1_555 1_555
C22_6 C17_6 1_555 1_555
H11_6 C22_6 1_555 1_555
C23_6 C19_6 1_555 1_555
H12_6 C23_6 1_555 1_555
C24_6 C23_6 1_555 1_555
H13_6 C24_6 1_555 1_555
C25_6 C24_6 1_555 1_555
C26_6 C20_6 1_555 1_555
H14_6 C26_6 1_555 1_555
C27_6 C25_6 1_555 1_555
C28_6 C27_6 1_555 1_555
H15_6 C28_6 1_555 1_555
C29_6 C27_6 1_555 1_555
H16_6 C29_6 1_555 1_555
C30_6 C15_6 1_555 1_555
O18_5 C31_6 1_555 1_555
O21_6 C31_6 1_555 1_555
C31_6 C32_6 1_555 1_555
C32_6 C33_6 1_555 1_555
C33_6 H17_6 1_555 1_555
C34_6 C33_6 1_555 1_555
C35_6 C34_6 1_555 1_555
C36_6 C35_6 1_555 1_555
H18_6 C36_6 1_555 1_555
C37_6 C32_6 1_555 1_555
H19_6 C37_6 1_555 1_555
C38_6 C34_6 1_555 1_555
H20_6 C38_6 1_555 1_555
C39_6 C38_6 1_555 1_555
H21_6 C39_6 1_555 1_555
C40_6 C39_6 1_555 1_555
C41_6 C35_6 1_555 1_555
H22_6 C41_6 1_555 1_555
C42_6 C13_6 1_555 1_555
C43_6 C15_6 1_555 1_555
H23_6 C43_6 1_555 1_555
O18_8 C44_6 1_555 1_555
O21_7 C44_6 1_555 1_555
C44_6 C45_6 1_555 1_555
C45_6 C46_6 1_555 1_555
C46_6 H24_6 1_555 1_555
C47_6 C46_6 1_555 1_555
C48_6 C47_6 1_555 1_555
C49_6 C48_6 1_555 1_555
H25_6 C49_6 1_555 1_555
C50_6 C45_6 1_555 1_555
H26_6 C50_6 1_555 1_555
C51_6 C47_6 1_555 1_555
H27_6 C51_6 1_555 1_555
C52_6 C51_6 1_555 1_555
H28_6 C52_6 1_555 1_555
C53_6 C52_6 1_555 1_555
C54_6 C48_6 1_555 1_555
H29_6 C54_6 1_555 1_555
C55_6 C28_6 1_555 1_555
C56_6 C30_6 1_555 1_555
H30_6 C56_6 1_555 1_555
C6_6 C7_6 1_555 1_555
C10_6 C11_6 1_555 1_555
C21_6 C22_6 1_555 1_555
C25_6 C26_6 1_555 1_555
C29_6 C30_6 1_555 1_555
C36_6 C37_6 1_555 1_555
C40_6 C41_6 1_555 1_555
C40_6 C42_6 1_555 1_555
C42_6 C43_6 1_555 1_555
C49_6 C50_6 1_555 1_555
C53_6 C54_6 1_555 1_555
C53_6 C55_6 1_555 1_555
C55_6 C56_6 1_555 1_555
O18 C1_7 1_555 1_555
O21_2 C1_7 1_555 1_555
C1_7 C2_7 1_555 1_555
C2_7 C3_7 1_555 1_555
C3_7 H1_7 1_555 1_555
C4_7 C3_7 1_555 1_555
C5_7 C4_7 1_555 1_555
C6_7 C5_7 1_555 1_555
H2_7 C6_7 1_555 1_555
C7_7 C2_7 1_555 1_555
H3_7 C7_7 1_555 1_555
C8_7 C4_7 1_555 1_555
H4_7 C8_7 1_555 1_555
C9_7 C8_7 1_555 1_555
H5_7 C9_7 1_555 1_555
C10_7 C9_7 1_555 1_555
C11_7 C5_7 1_555 1_555
H6_7 C11_7 1_555 1_555
C12_7 C10_7 1_555 1_555
C13_7 C12_7 1_555 1_555
H7_7 C13_7 1_555 1_555
C14_7 C12_7 1_555 1_555
H8_7 C14_7 1_555 1_555
C15_7 C14_7 1_555 1_555
O18_4 C16_7 1_555 1_555
O21_3 C16_7 1_555 1_555
C16_7 C17_7 1_555 1_555
C17_7 C18_7 1_555 1_555
C18_7 H9_7 1_555 1_555
C19_7 C18_7 1_555 1_555
C20_7 C19_7 1_555 1_555
C21_7 C20_7 1_555 1_555
H10_7 C21_7 1_555 1_555
C22_7 C17_7 1_555 1_555
H11_7 C22_7 1_555 1_555
C23_7 C19_7 1_555 1_555
H12_7 C23_7 1_555 1_555
C24_7 C23_7 1_555 1_555
H13_7 C24_7 1_555 1_555
C25_7 C24_7 1_555 1_555
C26_7 C20_7 1_555 1_555
H14_7 C26_7 1_555 1_555
C27_7 C25_7 1_555 1_555
C28_7 C27_7 1_555 1_555
H15_7 C28_7 1_555 1_555
C29_7 C27_7 1_555 1_555
H16_7 C29_7 1_555 1_555
C30_7 C15_7 1_555 1_555
O19_6 C31_7 1_555 1_555
O22_5 C31_7 1_555 1_555
C31_7 C32_7 1_555 1_555
C32_7 C33_7 1_555 1_555
C33_7 H17_7 1_555 1_555
C34_7 C33_7 1_555 1_555
C35_7 C34_7 1_555 1_555
C36_7 C35_7 1_555 1_555
H18_7 C36_7 1_555 1_555
C37_7 C32_7 1_555 1_555
H19_7 C37_7 1_555 1_555
C38_7 C34_7 1_555 1_555
H20_7 C38_7 1_555 1_555
C39_7 C38_7 1_555 1_555
H21_7 C39_7 1_555 1_555
C40_7 C39_7 1_555 1_555
C41_7 C35_7 1_555 1_555
H22_7 C41_7 1_555 1_555
C42_7 C13_7 1_555 1_555
C43_7 C15_7 1_555 1_555
H23_7 C43_7 1_555 1_555
O19_7 C44_7 1_555 1_555
O22_8 C44_7 1_555 1_555
C44_7 C45_7 1_555 1_555
C45_7 C46_7 1_555 1_555
C46_7 H24_7 1_555 1_555
C47_7 C46_7 1_555 1_555
C48_7 C47_7 1_555 1_555
C49_7 C48_7 1_555 1_555
H25_7 C49_7 1_555 1_555
C50_7 C45_7 1_555 1_555
H26_7 C50_7 1_555 1_555
C51_7 C47_7 1_555 1_555
H27_7 C51_7 1_555 1_555
C52_7 C51_7 1_555 1_555
H28_7 C52_7 1_555 1_555
C53_7 C52_7 1_555 1_555
C54_7 C48_7 1_555 1_555
H29_7 C54_7 1_555 1_555
C55_7 C28_7 1_555 1_555
C56_7 C30_7 1_555 1_555
H30_7 C56_7 1_555 1_555
C6_7 C7_7 1_555 1_555
C10_7 C11_7 1_555 1_555
C21_7 C22_7 1_555 1_555
C25_7 C26_7 1_555 1_555
C29_7 C30_7 1_555 1_555
C36_7 C37_7 1_555 1_555
C40_7 C41_7 1_555 1_555
C40_7 C42_7 1_555 1_555
C42_7 C43_7 1_555 1_555
C49_7 C50_7 1_555 1_555
C53_7 C54_7 1_555 1_555
C53_7 C55_7 1_555 1_555
C55_7 C56_7 1_555 1_555
O19 C1_8 1_555 1_555
O22_2 C1_8 1_555 1_555
C1_8 C2_8 1_555 1_555
C2_8 C3_8 1_555 1_555
C3_8 H1_8 1_555 1_555
C4_8 C3_8 1_555 1_555
C5_8 C4_8 1_555 1_555
C6_8 C5_8 1_555 1_555
H2_8 C6_8 1_555 1_555
C7_8 C2_8 1_555 1_555
H3_8 C7_8 1_555 1_555
C8_8 C4_8 1_555 1_555
H4_8 C8_8 1_555 1_555
C9_8 C8_8 1_555 1_555
H5_8 C9_8 1_555 1_555
C10_8 C9_8 1_555 1_555
C11_8 C5_8 1_555 1_555
H6_8 C11_8 1_555 1_555
C12_8 C10_8 1_555 1_555
C13_8 C12_8 1_555 1_555
H7_8 C13_8 1_555 1_555
C14_8 C12_8 1_555 1_555
H8_8 C14_8 1_555 1_555
C15_8 C14_8 1_555 1_555
O19_4 C16_8 1_555 1_555
O22_3 C16_8 1_555 1_555
C16_8 C17_8 1_555 1_555
C17_8 C18_8 1_555 1_555
C18_8 H9_8 1_555 1_555
C19_8 C18_8 1_555 1_555
C20_8 C19_8 1_555 1_555
C21_8 C20_8 1_555 1_555
H10_8 C21_8 1_555 1_555
C22_8 C17_8 1_555 1_555
H11_8 C22_8 1_555 1_555
C23_8 C19_8 1_555 1_555
H12_8 C23_8 1_555 1_555
C24_8 C23_8 1_555 1_555
H13_8 C24_8 1_555 1_555
C25_8 C24_8 1_555 1_555
C26_8 C20_8 1_555 1_555
H14_8 C26_8 1_555 1_555
C27_8 C25_8 1_555 1_555
C28_8 C27_8 1_555 1_555
H15_8 C28_8 1_555 1_555
C29_8 C27_8 1_555 1_555
H16_8 C29_8 1_555 1_555
C30_8 C15_8 1_555 1_555
O18_6 C31_8 1_555 1_555
O21_5 C31_8 1_555 1_555
C31_8 C32_8 1_555 1_555
C32_8 C33_8 1_555 1_555
C33_8 H17_8 1_555 1_555
C34_8 C33_8 1_555 1_555
C35_8 C34_8 1_555 1_555
C36_8 C35_8 1_555 1_555
H18_8 C36_8 1_555 1_555
C37_8 C32_8 1_555 1_555
H19_8 C37_8 1_555 1_555
C38_8 C34_8 1_555 1_555
H20_8 C38_8 1_555 1_555
C39_8 C38_8 1_555 1_555
H21_8 C39_8 1_555 1_555
C40_8 C39_8 1_555 1_555
C41_8 C35_8 1_555 1_555
H22_8 C41_8 1_555 1_555
C42_8 C13_8 1_555 1_555
C43_8 C15_8 1_555 1_555
H23_8 C43_8 1_555 1_555
O18_7 C44_8 1_555 1_555
O21_8 C44_8 1_555 1_555
C44_8 C45_8 1_555 1_555
C45_8 C46_8 1_555 1_555
C46_8 H24_8 1_555 1_555
C47_8 C46_8 1_555 1_555
C48_8 C47_8 1_555 1_555
C49_8 C48_8 1_555 1_555
H25_8 C49_8 1_555 1_555
C50_8 C45_8 1_555 1_555
H26_8 C50_8 1_555 1_555
C51_8 C47_8 1_555 1_555
H27_8 C51_8 1_555 1_555
C52_8 C51_8 1_555 1_555
H28_8 C52_8 1_555 1_555
C53_8 C52_8 1_555 1_555
C54_8 C48_8 1_555 1_555
H29_8 C54_8 1_555 1_555
C55_8 C28_8 1_555 1_555
C56_8 C30_8 1_555 1_555
H30_8 C56_8 1_555 1_555
C6_8 C7_8 1_555 1_555
C10_8 C11_8 1_555 1_555
C21_8 C22_8 1_555 1_555
C25_8 C26_8 1_555 1_555
C29_8 C30_8 1_555 1_555
C36_8 C37_8 1_555 1_555
C40_8 C41_8 1_555 1_555
C40_8 C42_8 1_555 1_555
C42_8 C43_8 1_555 1_555
C49_8 C50_8 1_555 1_555
C53_8 C54_8 1_555 1_555
C53_8 C55_8 1_555 1_555
C55_8 C56_8 1_555 1_555

#END
