
###############################################################################
#
# This file contains modified crystal structure data generated from the
# MOF subset of the Cambridge Structural Database (CSD) v543 
# hosted by the Cambridge Crystallographic Data Centre (CCDC).
#
# This work is licensed under the Creative Commons
# Attribution-NonCommercial-ShareAlike 4.0 International License.
# To view a copy of this license, visit
# http://creativecommons.org/licenses/by-nc-sa/4.0/
# or send a letter to
# Creative Commons, PO Box 1866, Mountain View, CA 94042, USA.
#
# CIF created using the CSD Python API on 29 September 2022
# The structure has been converted into the P1 space group
# The structure has a 3D framework
# The original CSD entry TOHNOV is in the rhombohedral crystal system
# The framework has been calculated to contain at least 10.0% void space
# The void calculation uses a probe of radius 1.32A, grid spacing 0.4
# H atom positions have been added when not included in the experimental data
# Generated hydrogen atom positions removed from atoms on special positions
#
###############################################################################

data_TOHNOV
_chemical_formula_moiety         '(C160 H198 Cu18 O90)n'
_symmetry_cell_setting           triclinic
_symmetry_space_group_name_H-M   'P 1'
_symmetry_Int_Tables_number      1
_space_group_name_Hall           'P 1'
loop_
_symmetry_equiv_pos_site_id
_symmetry_equiv_pos_as_xyz
1 x,y,z
_cell_length_a                   18.4653(7)
_cell_length_b                   18.4653(7)
_cell_length_c                   31.8998(14)
_cell_angle_alpha                90
_cell_angle_beta                 90
_cell_angle_gamma                120
_cell_volume                     9419.58
loop_
_atom_site_label
_atom_site_type_symbol
_atom_site_fract_x
_atom_site_fract_y
_atom_site_fract_z
Cu1 Cu 0.28491(11) 0.14245(5) 0.13247(4)
O1 O 0.3631(4) 0.1070(4) 0.11192(17)
O2 O 0.1999(8) 0.1000(4) 0.0750(3)
O3 O 0.4441(4) 0.1479(4) 0.16993(16)
C1 C 0.5549(4) 0.1098(8) 0.1324(4)
H1 H 0.5643 0.1287 0.1600
C2 C 0.4266(6) 0.1174(5) 0.1325(3)
C3 C 0.4647(6) 0.0632(6) 0.0720(3)
H2 H 0.4163 0.0534 0.0581
C4 C 0.4828(6) 0.0965(6) 0.1129(3)
C5 C 0.5228(5) 0.0457(10) 0.0531(5)
C6 C 0.5000 0.0000 0.0000
O8 O 0.7439(6) 0.1070(4) 0.11192(17)
O9 O 0.7038(6) 0.1479(4) 0.16993(16)
C15 C 0.6908(8) 0.1174(5) 0.1325(3)
C16 C 0.5985(8) 0.0632(6) 0.0720(3)
H6 H 0.6371 0.0534 0.0581
C17 C 0.6137(8) 0.0965(6) 0.1129(3)
Cu2 Cu 0.85755(5) 0.14246(12) 0.13247(4)
O10 O 0.9000(4) 0.0999(9) 0.0750(3)
Cu5 Cu 0.38176(11) 0.19087(12) 0.20086(4)
Cu6 Cu 0.80913(12) 0.19088(5) 0.20086(4)
O11 O 0.8930(4) 0.2561(6) 0.11192(17)
O12 O 0.3631(4) 0.2561(6) 0.11192(17)
O13 O 0.2226(4) 0.0371(6) 0.16340(16)
O14 O 0.9629(6) 0.1854(4) 0.16340(16)
O15 O 0.2226(4) 0.1854(4) 0.16340(16)
O16 O 0.8146(4) 0.0371(6) 0.16340(16)
C6_2 C 0.5000 1.0000 1.0000
O4 O 0.2561(6) 0.8930(4) 0.88808(17)
O5 O 0.2962(6) 0.8521(4) 0.83007(16)
C7 C 0.4451(9) 0.8902(8) 0.8676(4)
H3 H 0.4356 0.8713 0.8400
C8 C 0.3092(8) 0.8826(5) 0.8675(3)
C9 C 0.4015(8) 0.9368(6) 0.9280(3)
H4 H 0.3629 0.9466 0.9419
C10 C 0.3863(8) 0.9035(6) 0.8871(3)
C11 C 0.4771(11) 0.9543(10) 0.9469(5)
O6 O 0.6369(4) 0.8930(4) 0.88808(17)
O7 O 0.5559(4) 0.8521(4) 0.83007(16)
C12 C 0.5734(6) 0.8826(5) 0.8675(3)
C13 C 0.5353(6) 0.9368(6) 0.9280(3)
H5 H 0.5837 0.9466 0.9419
C14 C 0.5172(6) 0.9035(6) 0.8871(3)
Cu3 Cu 0.71509(11) 0.85754(12) 0.86753(4)
Cu4 Cu 0.14246(12) 0.85755(5) 0.86753(4)
Cu7 Cu 0.61824(11) 0.80912(5) 0.79914(4)
Cu8 Cu 0.19088(5) 0.80913(12) 0.79914(4)
C6_3 C -0.0000 0.5000 1.0000
O4_2 O 0.1070(4) 0.3631(7) 0.88808(17)
O5_2 O 0.1479(4) 0.4441(7) 0.83007(16)
C7_2 C 0.1098(8) 0.5549(12) 0.8676(4)
H3_2 H 0.1287 0.5643 0.8400
C8_2 C 0.1174(5) 0.4266(9) 0.8675(3)
C9_2 C 0.0632(6) 0.4647(10) 0.9280(3)
H4_2 H 0.0534 0.4163 0.9419
C10_2 C 0.0965(6) 0.4828(10) 0.8871(3)
C11_2 C 0.0457(10) 0.5228(15) 0.9469(5)
O6_2 O 0.1070(4) 0.7439(6) 0.88808(17)
O7_2 O 0.1479(4) 0.7038(6) 0.83007(16)
C12_2 C 0.1174(5) 0.6908(8) 0.8675(3)
C13_2 C 0.0632(6) 0.5985(8) 0.9280(3)
H5_2 H 0.0534 0.6371 0.9419
C14_2 C 0.0965(6) 0.6137(8) 0.8871(3)
Cu4_2 Cu 0.14245(5) 0.28491(13) 0.86753(4)
Cu8_2 Cu 0.19087(12) 0.38176(13) 0.79914(4)
O3_2 O 0.8521(4) 0.2962(6) 0.16993(16)
C1_2 C 0.8902(8) 0.4451(9) 0.1324(4)
H1_2 H 0.8713 0.4356 0.1600
C2_2 C 0.8826(5) 0.3092(8) 0.1325(3)
C3_2 C 0.9368(6) 0.4015(8) 0.0720(3)
H2_2 H 0.9466 0.3629 0.0581
C4_2 C 0.9035(6) 0.3863(8) 0.1129(3)
C5_2 C 0.9543(10) 0.4771(11) 0.0531(5)
C6_4 C 1.0000 0.5000 0.0000
O8_2 O 0.8930(4) 0.6369(7) 0.11192(17)
O9_2 O 0.8521(4) 0.5559(7) 0.16993(16)
C15_2 C 0.8826(5) 0.5734(9) 0.1325(3)
C16_2 C 0.9368(6) 0.5353(10) 0.0720(3)
H6_2 H 0.9466 0.5837 0.0581
C17_2 C 0.9035(6) 0.5172(10) 0.1129(3)
Cu2_2 Cu 0.85754(12) 0.71509(13) 0.13247(4)
O10_2 O 0.9001(9) 0.8001(10) 0.0750(3)
Cu6_2 Cu 0.80912(5) 0.61824(13) 0.20086(4)
O11_2 O 0.7439(6) 0.6369(7) 0.11192(17)
O14_2 O 0.8146(4) 0.7774(7) 0.16340(16)
O16_2 O 0.9629(6) 0.7774(7) 0.16340(16)
O3_3 O 0.7038(6) 0.5559(4) 0.16993(16)
C1_3 C 0.5549(9) 0.4451(4) 0.1324(4)
H1_3 H 0.5644 0.4357 0.1600
C2_3 C 0.6908(8) 0.5734(6) 0.1325(3)
C3_3 C 0.5985(8) 0.5353(6) 0.0720(3)
H2_3 H 0.6371 0.5837 0.0581
C4_3 C 0.6137(8) 0.5172(6) 0.1129(3)
C5_3 C 0.5229(11) 0.4772(5) 0.0531(5)
C6_5 C 0.5000 0.5000 0.0000
O9_3 O 0.4441(7) 0.2962(6) 0.16993(16)
C15_3 C 0.4266(9) 0.3092(8) 0.1325(3)
C16_3 C 0.4647(10) 0.4015(8) 0.0720(3)
H6_3 H 0.4163 0.3629 0.0581
C17_3 C 0.4828(10) 0.3863(8) 0.1129(3)
H9 H 0.440424 0.491477 0.011042
C6_6 C 0.5000 0.5000 1.0000
O4_3 O 0.6369(7) 0.7439(6) 0.88808(17)
O5_3 O 0.5559(7) 0.7038(6) 0.83007(16)
C7_3 C 0.4451(12) 0.5549(9) 0.8676(4)
H3_3 H 0.4357 0.5644 0.8400
C8_3 C 0.5734(9) 0.6908(8) 0.8675(3)
C9_3 C 0.5353(10) 0.5985(8) 0.9280(3)
H4_3 H 0.5837 0.6371 0.9419
C10_3 C 0.5172(10) 0.6137(8) 0.8871(3)
C11_3 C 0.4772(15) 0.5229(11) 0.9469(5)
O6_3 O 0.2561(6) 0.3631(4) 0.88808(17)
O7_3 O 0.2962(6) 0.4441(4) 0.83007(16)
C12_3 C 0.3092(8) 0.4266(6) 0.8675(3)
C13_3 C 0.4015(8) 0.4647(6) 0.9280(3)
H5_3 H 0.3629 0.4163 0.9419
C14_3 C 0.3863(8) 0.4828(6) 0.8871(3)
H10 H 0.491477 0.440424 0.988958
O2_2 O 0.1000(4) 0.1999(8) 0.9250(3)
O10_3 O 0.0999(9) 0.9000(4) 0.9250(3)
O13_2 O 0.0371(6) 0.2226(4) 0.83660(16)
O14_3 O 0.1854(4) 0.9629(6) 0.83660(16)
O15_2 O 0.1854(4) 0.2226(4) 0.83660(16)
O16_3 O 0.0371(6) 0.8146(4) 0.83660(16)
O2_3 O 0.8001(8) 0.9001(9) 0.9250(3)
O13_3 O 0.7774(4) 0.8146(7) 0.83660(16)
O15_3 O 0.7774(4) 0.9629(6) 0.83660(16)
O1_2 O 0.0298(4) 0.4403(4) 0.44525(17)
O3_4 O 0.1108(4) 0.4812(4) 0.50326(16)
C1_4 C 0.2216(4) 0.4431(8) 0.4657(4)
H1_4 H 0.2310 0.4620 0.4933
C2_4 C 0.0933(6) 0.4507(5) 0.4658(3)
C3_4 C 0.1314(6) 0.3965(6) 0.4053(3)
H2_4 H 0.0830 0.3867 0.3914
C4_4 C 0.1495(6) 0.4298(6) 0.4462(3)
C5_4 C 0.1895(5) 0.3790(10) 0.3864(5)
C6_7 C 0.1667 0.3333 0.3333
C7_4 C 0.1118(9) 0.2235(8) 0.2009(4)
H3_4 H 0.1023 0.2046 0.1733
C9_4 C 0.0682(8) 0.2701(6) 0.2613(3)
H4_4 H 0.0296 0.2799 0.2752
C10_4 C 0.0530(8) 0.2368(6) 0.2204(3)
C11_4 C 0.1438(11) 0.2876(10) 0.2802(5)
O6_4 O 0.3036(4) 0.2263(4) 0.22141(17)
C12_4 C 0.2401(6) 0.2159(5) 0.2008(3)
C13_4 C 0.2020(6) 0.2701(6) 0.2613(3)
H5_4 H 0.2504 0.2799 0.2752
C14_4 C 0.1839(6) 0.2368(6) 0.2204(3)
O8_3 O 0.4106(6) 0.4403(4) 0.44525(17)
O9_4 O 0.3705(6) 0.4812(4) 0.50326(16)
C15_4 C 0.3575(8) 0.4507(5) 0.4658(3)
C16_4 C 0.2652(8) 0.3965(6) 0.4053(3)
H6_4 H 0.3038 0.3867 0.3914
C17_4 C 0.2804(8) 0.4298(6) 0.4462(3)
Cu2_3 Cu 0.52422(5) 0.47579(12) 0.46580(4)
O10_4 O 0.5667(4) 0.4332(9) 0.4083(3)
Cu5_2 Cu 0.04842(11) 0.52421(12) 0.53420(4)
Cu6_3 Cu 0.47579(12) 0.52422(5) 0.53420(4)
O11_3 O 0.5597(4) 0.5894(6) 0.44525(17)
O12_2 O 0.0298(4) 0.5894(6) 0.44525(17)
O14_4 O 0.6295(6) 0.5188(4) 0.49674(16)
O16_4 O 0.4812(4) 0.3705(6) 0.49674(16)
H9_2 H 0.175189 0.28228 0.344375
H10_2 H 0.226243 0.384387 0.322291
Cu1_2 Cu 0.95158(11) 0.47578(5) 0.46580(4)
O2_4 O 0.8666(8) 0.4333(4) 0.4083(3)
O4_4 O 0.9228(6) 0.2263(4) 0.22141(17)
C8_4 C 0.9759(8) 0.2159(5) 0.2008(3)
O13_4 O 0.8892(4) 0.3705(6) 0.49674(16)
O15_4 O 0.8892(4) 0.5188(4) 0.49674(16)
O6_5 O 0.7737(4) 0.0772(6) 0.22141(17)
C12_5 C 0.7841(5) 0.0241(8) 0.2008(3)
Cu2_4 Cu 0.52421(12) 0.04842(13) 0.46580(4)
O10_5 O 0.5668(9) 0.1334(10) 0.4083(3)
O14_5 O 0.4812(4) 0.1108(7) 0.49674(16)
O16_5 O 0.6295(6) 0.1108(7) 0.49674(16)
O3_5 O 0.5188(4) 0.6295(6) 0.50326(16)
C1_5 C 0.5569(8) 0.7784(9) 0.4657(4)
H1_5 H 0.5380 0.7689 0.4933
C2_5 C 0.5493(5) 0.6425(8) 0.4658(3)
C3_5 C 0.6035(6) 0.7348(8) 0.4053(3)
H2_5 H 0.6133 0.6962 0.3914
C4_5 C 0.5702(6) 0.7196(8) 0.4462(3)
C5_5 C 0.6210(10) 0.8104(11) 0.3864(5)
C6_8 C 0.6667 0.8333 0.3333
O4_5 O 0.7737(4) 0.6964(7) 0.22141(17)
C7_5 C 0.7765(8) 0.8882(12) 0.2009(4)
H3_5 H 0.7954 0.8976 0.1733
C8_5 C 0.7841(5) 0.7599(9) 0.2008(3)
C9_5 C 0.7299(6) 0.7980(10) 0.2613(3)
H4_5 H 0.7201 0.7496 0.2752
C10_5 C 0.7632(6) 0.8161(10) 0.2204(3)
C11_5 C 0.7124(10) 0.8561(15) 0.2802(5)
C13_5 C 0.7299(6) 0.9318(8) 0.2613(3)
H5_5 H 0.7201 0.9704 0.2752
C14_5 C 0.7632(6) 0.9470(8) 0.2204(3)
O8_4 O 0.5597(4) 0.9702(7) 0.44525(17)
O9_5 O 0.5188(4) 0.8892(7) 0.50326(16)
C15_5 C 0.5493(5) 0.9067(9) 0.4658(3)
C16_5 C 0.6035(6) 0.8686(10) 0.4053(3)
H6_5 H 0.6133 0.9170 0.3914
C17_5 C 0.5702(6) 0.8505(10) 0.4462(3)
Cu6_4 Cu 0.47578(5) 0.95158(13) 0.53420(4)
O11_4 O 0.4106(6) 0.9702(7) 0.44525(17)
H9_3 H 0.71772 0.89291 0.344375
H10_3 H 0.615613 0.841856 0.322291
O4_6 O 0.3036(7) 0.0772(6) 0.22141(17)
C8_6 C 0.2401(9) 0.0241(8) 0.2008(3)
O3_6 O 0.3705(6) 0.8892(4) 0.50326(16)
C1_6 C 0.2216(9) 0.7784(4) 0.4657(4)
H1_6 H 0.2311 0.7690 0.4933
C2_6 C 0.3575(8) 0.9067(6) 0.4658(3)
C3_6 C 0.2652(8) 0.8686(6) 0.4053(3)
H2_6 H 0.3038 0.9170 0.3914
C4_6 C 0.2804(8) 0.8505(6) 0.4462(3)
C5_6 C 0.1896(11) 0.8105(5) 0.3864(5)
C6_9 C 0.1667 0.8333 0.3333
C7_6 C 0.1118(12) 0.8882(9) 0.2009(4)
H3_6 H 0.1024 0.8977 0.1733
C9_6 C 0.2020(10) 0.9318(8) 0.2613(3)
H4_6 H 0.2504 0.9704 0.2752
C10_6 C 0.1839(10) 0.9470(8) 0.2204(3)
C11_6 C 0.1439(15) 0.8562(11) 0.2802(5)
C13_6 C 0.0682(8) 0.7980(6) 0.2613(3)
H5_6 H 0.0296 0.7496 0.2752
C14_6 C 0.0530(8) 0.8161(6) 0.2204(3)
O9_6 O 0.1108(7) 0.6295(6) 0.50326(16)
C15_6 C 0.0933(9) 0.6425(8) 0.4658(3)
C16_6 C 0.1314(10) 0.7348(8) 0.4053(3)
H6_6 H 0.0830 0.6962 0.3914
C17_6 C 0.1495(10) 0.7196(8) 0.4462(3)
H9_4 H 0.10709 0.824811 0.344375
H10_4 H 0.158144 0.773757 0.322291
O6_6 O 0.9228(6) 0.6964(4) 0.22141(17)
C12_6 C 0.9759(8) 0.7599(6) 0.2008(3)
O10_6 O 0.7666(9) 0.2333(4) 0.2583(3)
O2_5 O 0.7667(4) 0.5332(8) 0.2583(3)
O2_6 O 0.4668(8) 0.2334(9) 0.2583(3)
O8_5 O 0.0772(6) 0.7737(4) 0.77859(17)
C15_7 C 0.0241(8) 0.7841(5) 0.7992(3)
O10_7 O 0.2333(4) 0.7666(9) 0.7417(3)
O11_5 O 0.2263(4) 0.9228(6) 0.77859(17)
O1_3 O 0.6964(4) 0.7737(4) 0.77859(17)
O2_7 O 0.5332(8) 0.7667(4) 0.7417(3)
C1_7 C 0.8882(4) 0.7765(8) 0.7991(4)
H1_7 H 0.8976 0.7954 0.8267
C2_7 C 0.7599(6) 0.7841(5) 0.7992(3)
C3_7 C 0.7980(6) 0.7299(6) 0.7387(3)
H2_7 H 0.7496 0.7201 0.7248
C4_7 C 0.8161(6) 0.7632(6) 0.7796(3)
C5_7 C 0.8561(5) 0.7124(10) 0.7198(5)
C6_10 C 0.8333 0.6667 0.6667
O4_7 O 0.5894(6) 0.5597(4) 0.55475(17)
C7_7 C 0.7784(9) 0.5569(8) 0.5343(4)
H3_7 H 0.7689 0.5380 0.5067
C8_7 C 0.6425(8) 0.5493(5) 0.5342(3)
C9_7 C 0.7348(8) 0.6035(6) 0.5947(3)
H4_7 H 0.6962 0.6133 0.6086
C10_7 C 0.7196(8) 0.5702(6) 0.5538(3)
C11_7 C 0.8104(11) 0.6210(10) 0.6136(5)
O6_7 O 0.9702(4) 0.5597(4) 0.55475(17)
C12_7 C 0.9067(6) 0.5493(5) 0.5342(3)
C13_7 C 0.8686(6) 0.6035(6) 0.5947(3)
H5_7 H 0.9170 0.6133 0.6086
C14_7 C 0.8505(6) 0.5702(6) 0.5538(3)
C16_7 C 0.9318(8) 0.7299(6) 0.7387(3)
H6_7 H 0.9704 0.7201 0.7248
C17_7 C 0.9470(8) 0.7632(6) 0.7796(3)
O12_3 O 0.6964(4) 0.9228(6) 0.77859(17)
H9_5 H 0.841856 0.615613 0.677709
H10_5 H 0.89291 0.71772 0.655625
C1_8 C 0.2235(8) 0.1118(9) 0.7991(4)
H1_8 H 0.2046 0.1023 0.8267
C3_8 C 0.2701(6) 0.0682(8) 0.7387(3)
H2_8 H 0.2799 0.0296 0.7248
C4_8 C 0.2368(6) 0.0530(8) 0.7796(3)
C5_8 C 0.2876(10) 0.1438(11) 0.7198(5)
C6_11 C 0.3333 0.1667 0.6667
O4_8 O 0.4403(4) 0.0298(7) 0.55475(17)
C7_8 C 0.4431(8) 0.2216(12) 0.5343(4)
H3_8 H 0.4620 0.2310 0.5067
C8_8 C 0.4507(5) 0.0933(9) 0.5342(3)
C9_8 C 0.3965(6) 0.1314(10) 0.5947(3)
H4_8 H 0.3867 0.0830 0.6086
C10_8 C 0.4298(6) 0.1495(10) 0.5538(3)
C11_8 C 0.3790(10) 0.1895(15) 0.6136(5)
O6_8 O 0.4403(4) 0.4106(6) 0.55475(17)
C12_8 C 0.4507(5) 0.3575(8) 0.5342(3)
C13_8 C 0.3965(6) 0.2652(8) 0.5947(3)
H5_8 H 0.3867 0.3038 0.6086
C14_8 C 0.4298(6) 0.2804(8) 0.5538(3)
O8_6 O 0.2263(4) 0.3036(7) 0.77859(17)
C15_8 C 0.2159(5) 0.2401(9) 0.7992(3)
C16_8 C 0.2701(6) 0.2020(10) 0.7387(3)
H6_8 H 0.2799 0.2504 0.7248
C17_8 C 0.2368(6) 0.1839(10) 0.7796(3)
O10_8 O 0.2334(9) 0.4668(10) 0.7417(3)
O11_6 O 0.0772(6) 0.3036(7) 0.77859(17)
H9_6 H 0.384387 0.226243 0.677709
H10_6 H 0.28228 0.175189 0.655625
C2_8 C 0.2159(5) 0.9759(8) 0.7992(3)
C2_9 C 0.0241(8) 0.2401(6) 0.7992(3)
C1_9 C 0.8882(9) 0.1118(4) 0.7991(4)
H1_9 H 0.8977 0.1024 0.8267
C3_9 C 0.9318(8) 0.2020(6) 0.7387(3)
H2_9 H 0.9704 0.2504 0.7248
C4_9 C 0.9470(8) 0.1839(6) 0.7796(3)
C5_9 C 0.8562(11) 0.1439(5) 0.7198(5)
C6_12 C 0.8333 0.1667 0.6667
O4_9 O 0.9702(7) 0.4106(6) 0.55475(17)
C7_9 C 0.7784(12) 0.2216(9) 0.5343(4)
H3_9 H 0.7690 0.2311 0.5067
C8_9 C 0.9067(9) 0.3575(8) 0.5342(3)
C9_9 C 0.8686(10) 0.2652(8) 0.5947(3)
H4_9 H 0.9170 0.3038 0.6086
C10_9 C 0.8505(10) 0.2804(8) 0.5538(3)
C11_9 C 0.8105(15) 0.1896(11) 0.6136(5)
O6_9 O 0.5894(6) 0.0298(4) 0.55475(17)
C12_9 C 0.6425(8) 0.0933(6) 0.5342(3)
C13_9 C 0.7348(8) 0.1314(6) 0.5947(3)
H5_9 H 0.6962 0.0830 0.6086
C14_9 C 0.7196(8) 0.1495(6) 0.5538(3)
C16_9 C 0.7980(10) 0.0682(8) 0.7387(3)
H6_9 H 0.7496 0.0296 0.7248
C17_9 C 0.8161(10) 0.0530(8) 0.7796(3)
H9_7 H 0.773757 0.158144 0.677709
H10_7 H 0.824811 0.10709 0.655625
C15_9 C 0.7599(9) 0.9759(8) 0.7992(3)
O10_9 O 0.4332(9) 0.5667(4) 0.5917(3)
O2_8 O 0.4333(4) 0.8666(8) 0.5917(3)
O2_9 O 0.1334(8) 0.5668(9) 0.5917(3)
H10_8 H 0.508523 0.559576 0.011042
H9_8 H 0.559576 0.508523 0.988958
H9_9 H 0.824811 0.71772 0.655625
H10_9 H 0.773757 0.615613 0.677709
H9_10 H 0.28228 0.10709 0.655625
H10_10 H 0.384387 0.158144 0.677709
H9_11 H 0.89291 0.175189 0.655625
H10_11 H 0.841856 0.226243 0.677709
H9_12 H 0.158144 0.384387 0.322291
H10_12 H 0.10709 0.28228 0.344375
H9_13 H 0.615613 0.773757 0.322291
H10_13 H 0.71772 0.824811 0.344375
H9_14 H 0.226243 0.841856 0.322291
H10_14 H 0.175189 0.89291 0.344375
C6_13 C 0.5000 0.0000 1.0000
H10_15 H 0.559576 0.0510537 0.988958
H9_15 H 0.491477 0.0510537 0.988958
C6_14 C 0.5000 1.0000 0.0000
H9_16 H 0.508523 0.948946 0.011042
H10_16 H 0.440424 0.948946 0.011042
C6_15 C 0.0000 0.5000 0.0000
H9_17 H 0.0510537 0.559576 0.011042
H10_17 H 0.0510537 0.491477 0.011042
C6_16 C 1.0000 0.5000 1.0000
H10_18 H 0.948946 0.508523 0.988958
H9_18 H 0.948946 0.440424 0.988958
loop_
_geom_bond_atom_site_label_1
_geom_bond_atom_site_label_2
_geom_bond_site_symmetry_1
_geom_bond_site_symmetry_2
Cu1 O1 1_555 1_555
O1 C2 1_555 1_555
O2 Cu1 1_555 1_555
O3 C2 1_555 1_555
C1 H1 1_555 1_555
C2 C4 1_555 1_555
C3 H2 1_555 1_555
C4 C1 1_555 1_555
C5 C3 1_555 1_555
C6 C5 1_555 1_555
O8 C15 1_555 1_555
O9 C15 1_555 1_555
C15 C17 1_555 1_555
C16 C5 1_555 1_555
H6 C16 1_555 1_555
C17 C1 1_555 1_555
Cu2 O8 1_555 1_555
O10 Cu2 1_555 1_555
Cu5 O3 1_555 1_555
Cu6 O9 1_555 1_555
O11 Cu2 1_555 1_555
O12 Cu1 1_555 1_555
O13 Cu1 1_555 1_555
O14 Cu2 1_555 1_555
O15 Cu1 1_555 1_555
O16 Cu2 1_555 1_555
C3 C4 1_555 1_555
C16 C17 1_555 1_555
O4 C8 1_555 1_555
O5 C8 1_555 1_555
C7 H3 1_555 1_555
C8 C10 1_555 1_555
C9 H4 1_555 1_555
C10 C7 1_555 1_555
C11 C6_2 1_555 1_555
O6 C12 1_555 1_555
O7 C12 1_555 1_555
C12 C14 1_555 1_555
C13 C11 1_555 1_555
H5 C13 1_555 1_555
C14 C7 1_555 1_555
Cu3 O6 1_555 1_555
Cu4 O4 1_555 1_555
Cu7 O7 1_555 1_555
Cu8 O5 1_555 1_555
C9 C10 1_555 1_555
C9 C11 1_555 1_555
C13 C14 1_555 1_555
O4_2 C8_2 1_555 1_555
O5_2 C8_2 1_555 1_555
C7_2 H3_2 1_555 1_555
C8_2 C10_2 1_555 1_555
C9_2 H4_2 1_555 1_555
C10_2 C7_2 1_555 1_555
C11_2 C6_3 1_555 1_555
O6_2 C12_2 1_555 1_555
O7_2 C12_2 1_555 1_555
C12_2 C14_2 1_555 1_555
C13_2 C11_2 1_555 1_555
H5_2 C13_2 1_555 1_555
C14_2 C7_2 1_555 1_555
Cu4 O6_2 1_555 1_555
Cu4_2 O4_2 1_555 1_555
Cu8 O7_2 1_555 1_555
Cu8_2 O5_2 1_555 1_555
C9_2 C10_2 1_555 1_555
C9_2 C11_2 1_555 1_555
C13_2 C14_2 1_555 1_555
O11 C2_2 1_555 1_555
O3_2 C2_2 1_555 1_555
C1_2 H1_2 1_555 1_555
C2_2 C4_2 1_555 1_555
C3_2 H2_2 1_555 1_555
C4_2 C1_2 1_555 1_555
C5_2 C3_2 1_555 1_555
C6_4 C5_2 1_555 1_555
O8_2 C15_2 1_555 1_555
O9_2 C15_2 1_555 1_555
C15_2 C17_2 1_555 1_555
C16_2 C5_2 1_555 1_555
H6_2 C16_2 1_555 1_555
C17_2 C1_2 1_555 1_555
Cu2_2 O8_2 1_555 1_555
O10_2 Cu2_2 1_555 1_555
Cu6 O3_2 1_555 1_555
Cu6_2 O9_2 1_555 1_555
O11_2 Cu2_2 1_555 1_555
O14_2 Cu2_2 1_555 1_555
O16_2 Cu2_2 1_555 1_555
C3_2 C4_2 1_555 1_555
C16_2 C17_2 1_555 1_555
O11_2 C2_3 1_555 1_555
O3_3 C2_3 1_555 1_555
C1_3 H1_3 1_555 1_555
C2_3 C4_3 1_555 1_555
C3_3 H2_3 1_555 1_555
C4_3 C1_3 1_555 1_555
C5_3 C3_3 1_555 1_555
C6_5 C5_3 1_555 1_555
O12 C15_3 1_555 1_555
O9_3 C15_3 1_555 1_555
C15_3 C17_3 1_555 1_555
C16_3 C5_3 1_555 1_555
H6_3 C16_3 1_555 1_555
C17_3 C1_3 1_555 1_555
Cu6_2 O3_3 1_555 1_555
Cu5 O9_3 1_555 1_555
C3_3 C4_3 1_555 1_555
C16_3 C17_3 1_555 1_555
C6_5 H9 1_555 1_555
O4_3 C8_3 1_555 1_555
O5_3 C8_3 1_555 1_555
C7_3 H3_3 1_555 1_555
C8_3 C10_3 1_555 1_555
C9_3 H4_3 1_555 1_555
C10_3 C7_3 1_555 1_555
C11_3 C6_6 1_555 1_555
O6_3 C12_3 1_555 1_555
O7_3 C12_3 1_555 1_555
C12_3 C14_3 1_555 1_555
C13_3 C11_3 1_555 1_555
H5_3 C13_3 1_555 1_555
C14_3 C7_3 1_555 1_555
Cu4_2 O6_3 1_555 1_555
Cu3 O4_3 1_555 1_555
Cu8_2 O7_3 1_555 1_555
Cu7 O5_3 1_555 1_555
C9_3 C10_3 1_555 1_555
C9_3 C11_3 1_555 1_555
C13_3 C14_3 1_555 1_555
C6_6 H10 1_555 1_555
O2_2 Cu4_2 1_555 1_555
O10_3 Cu4 1_555 1_555
O13_2 Cu4_2 1_555 1_555
O14_3 Cu4 1_555 1_555
O15_2 Cu4_2 1_555 1_555
O16_3 Cu4 1_555 1_555
O2_3 Cu3 1_555 1_555
O13_3 Cu3 1_555 1_555
O15_3 Cu3 1_555 1_555
O1_2 C2_4 1_555 1_555
O3_4 C2_4 1_555 1_555
C1_4 H1_4 1_555 1_555
C2_4 C4_4 1_555 1_555
C3_4 H2_4 1_555 1_555
C4_4 C1_4 1_555 1_555
C5_4 C3_4 1_555 1_555
C6_7 C5_4 1_555 1_555
C7_4 H3_4 1_555 1_555
C9_4 H4_4 1_555 1_555
C10_4 C7_4 1_555 1_555
C11_4 C6_7 1_555 1_555
O6_4 C12_4 1_555 1_555
O15 C12_4 1_555 1_555
C12_4 C14_4 1_555 1_555
C13_4 C11_4 1_555 1_555
H5_4 C13_4 1_555 1_555
C14_4 C7_4 1_555 1_555
O8_3 C15_4 1_555 1_555
O9_4 C15_4 1_555 1_555
C15_4 C17_4 1_555 1_555
C16_4 C5_4 1_555 1_555
H6_4 C16_4 1_555 1_555
C17_4 C1_4 1_555 1_555
Cu2_3 O8_3 1_555 1_555
O10_4 Cu2_3 1_555 1_555
Cu5 O6_4 1_555 1_555
Cu5_2 O3_4 1_555 1_555
Cu6_3 O9_4 1_555 1_555
O11_3 Cu2_3 1_555 1_555
O14_4 Cu2_3 1_555 1_555
O16_4 Cu2_3 1_555 1_555
C3_4 C4_4 1_555 1_555
C9_4 C10_4 1_555 1_555
C9_4 C11_4 1_555 1_555
C13_4 C14_4 1_555 1_555
C16_4 C17_4 1_555 1_555
C6_7 H9_2 1_555 1_555
C6_7 H10_2 1_555 1_555
O2_4 Cu1_2 1_555 1_555
O4_4 C8_4 1_555 1_555
O14 C8_4 1_555 1_555
Cu6 O4_4 1_555 1_555
O13_4 Cu1_2 1_555 1_555
O15_4 Cu1_2 1_555 1_555
O6_5 C12_5 1_555 1_555
O16 C12_5 1_555 1_555
O10_5 Cu2_4 1_555 1_555
Cu6 O6_5 1_555 1_555
O14_5 Cu2_4 1_555 1_555
O16_5 Cu2_4 1_555 1_555
O11_3 C2_5 1_555 1_555
O3_5 C2_5 1_555 1_555
C1_5 H1_5 1_555 1_555
C2_5 C4_5 1_555 1_555
C3_5 H2_5 1_555 1_555
C4_5 C1_5 1_555 1_555
C5_5 C3_5 1_555 1_555
C6_8 C5_5 1_555 1_555
O4_5 C8_5 1_555 1_555
O14_2 C8_5 1_555 1_555
C7_5 H3_5 1_555 1_555
C8_5 C10_5 1_555 1_555
C9_5 H4_5 1_555 1_555
C10_5 C7_5 1_555 1_555
C11_5 C6_8 1_555 1_555
C13_5 C11_5 1_555 1_555
H5_5 C13_5 1_555 1_555
C14_5 C7_5 1_555 1_555
O8_4 C15_5 1_555 1_555
O9_5 C15_5 1_555 1_555
C15_5 C17_5 1_555 1_555
C16_5 C5_5 1_555 1_555
H6_5 C16_5 1_555 1_555
C17_5 C1_5 1_555 1_555
Cu6_2 O4_5 1_555 1_555
Cu6_3 O3_5 1_555 1_555
Cu6_4 O9_5 1_555 1_555
C3_5 C4_5 1_555 1_555
C9_5 C10_5 1_555 1_555
C9_5 C11_5 1_555 1_555
C13_5 C14_5 1_555 1_555
C16_5 C17_5 1_555 1_555
C6_8 H9_3 1_555 1_555
C6_8 H10_3 1_555 1_555
O4_6 C8_6 1_555 1_555
O13 C8_6 1_555 1_555
Cu5 O4_6 1_555 1_555
O11_4 C2_6 1_555 1_555
O3_6 C2_6 1_555 1_555
C1_6 H1_6 1_555 1_555
C2_6 C4_6 1_555 1_555
C3_6 H2_6 1_555 1_555
C4_6 C1_6 1_555 1_555
C5_6 C3_6 1_555 1_555
C6_9 C5_6 1_555 1_555
C7_6 H3_6 1_555 1_555
C9_6 H4_6 1_555 1_555
C10_6 C7_6 1_555 1_555
C11_6 C6_9 1_555 1_555
C13_6 C11_6 1_555 1_555
H5_6 C13_6 1_555 1_555
C14_6 C7_6 1_555 1_555
O12_2 C15_6 1_555 1_555
O9_6 C15_6 1_555 1_555
C15_6 C17_6 1_555 1_555
C16_6 C5_6 1_555 1_555
H6_6 C16_6 1_555 1_555
C17_6 C1_6 1_555 1_555
Cu6_4 O3_6 1_555 1_555
Cu5_2 O9_6 1_555 1_555
C3_6 C4_6 1_555 1_555
C9_6 C10_6 1_555 1_555
C9_6 C11_6 1_555 1_555
C13_6 C14_6 1_555 1_555
C16_6 C17_6 1_555 1_555
C6_9 H9_4 1_555 1_555
C6_9 H10_4 1_555 1_555
O6_6 C12_6 1_555 1_555
O16_2 C12_6 1_555 1_555
Cu6_2 O6_6 1_555 1_555
O10_6 Cu6 1_555 1_555
O2_5 Cu6_2 1_555 1_555
O2_6 Cu5 1_555 1_555
O8_5 C15_7 1_555 1_555
O16_3 C15_7 1_555 1_555
Cu8 O8_5 1_555 1_555
O10_7 Cu8 1_555 1_555
O11_5 Cu8 1_555 1_555
Cu7 O1_3 1_555 1_555
O1_3 C2_7 1_555 1_555
O2_7 Cu7 1_555 1_555
O13_3 C2_7 1_555 1_555
C1_7 H1_7 1_555 1_555
C2_7 C4_7 1_555 1_555
C3_7 H2_7 1_555 1_555
C4_7 C1_7 1_555 1_555
C5_7 C3_7 1_555 1_555
C6_10 C5_7 1_555 1_555
O4_7 C8_7 1_555 1_555
O14_4 C8_7 1_555 1_555
C7_7 H3_7 1_555 1_555
C8_7 C10_7 1_555 1_555
C9_7 H4_7 1_555 1_555
C10_7 C7_7 1_555 1_555
C11_7 C6_10 1_555 1_555
O6_7 C12_7 1_555 1_555
O15_4 C12_7 1_555 1_555
C12_7 C14_7 1_555 1_555
C13_7 C11_7 1_555 1_555
H5_7 C13_7 1_555 1_555
C14_7 C7_7 1_555 1_555
C16_7 C5_7 1_555 1_555
H6_7 C16_7 1_555 1_555
C17_7 C1_7 1_555 1_555
Cu6_3 O4_7 1_555 1_555
O12_3 Cu7 1_555 1_555
C3_7 C4_7 1_555 1_555
C9_7 C10_7 1_555 1_555
C9_7 C11_7 1_555 1_555
C13_7 C14_7 1_555 1_555
C16_7 C17_7 1_555 1_555
C6_10 H9_5 1_555 1_555
C6_10 H10_5 1_555 1_555
C1_8 H1_8 1_555 1_555
C3_8 H2_8 1_555 1_555
C4_8 C1_8 1_555 1_555
C5_8 C3_8 1_555 1_555
C6_11 C5_8 1_555 1_555
O4_8 C8_8 1_555 1_555
O14_5 C8_8 1_555 1_555
C7_8 H3_8 1_555 1_555
C8_8 C10_8 1_555 1_555
C9_8 H4_8 1_555 1_555
C10_8 C7_8 1_555 1_555
C11_8 C6_11 1_555 1_555
O6_8 C12_8 1_555 1_555
O16_4 C12_8 1_555 1_555
C12_8 C14_8 1_555 1_555
C13_8 C11_8 1_555 1_555
H5_8 C13_8 1_555 1_555
C14_8 C7_8 1_555 1_555
O8_6 C15_8 1_555 1_555
O15_2 C15_8 1_555 1_555
C15_8 C17_8 1_555 1_555
C16_8 C5_8 1_555 1_555
H6_8 C16_8 1_555 1_555
C17_8 C1_8 1_555 1_555
Cu8_2 O8_6 1_555 1_555
O10_8 Cu8_2 1_555 1_555
Cu6_3 O6_8 1_555 1_555
O11_6 Cu8_2 1_555 1_555
C3_8 C4_8 1_555 1_555
C9_8 C10_8 1_555 1_555
C9_8 C11_8 1_555 1_555
C13_8 C14_8 1_555 1_555
C16_8 C17_8 1_555 1_555
C6_11 H9_6 1_555 1_555
C6_11 H10_6 1_555 1_555
O11_5 C2_8 1_555 1_555
O14_3 C2_8 1_555 1_555
O11_6 C2_9 1_555 1_555
O13_2 C2_9 1_555 1_555
C1_9 H1_9 1_555 1_555
C3_9 H2_9 1_555 1_555
C4_9 C1_9 1_555 1_555
C5_9 C3_9 1_555 1_555
C6_12 C5_9 1_555 1_555
O4_9 C8_9 1_555 1_555
O13_4 C8_9 1_555 1_555
C7_9 H3_9 1_555 1_555
C8_9 C10_9 1_555 1_555
C9_9 H4_9 1_555 1_555
C10_9 C7_9 1_555 1_555
C11_9 C6_12 1_555 1_555
O6_9 C12_9 1_555 1_555
O16_5 C12_9 1_555 1_555
C12_9 C14_9 1_555 1_555
C13_9 C11_9 1_555 1_555
H5_9 C13_9 1_555 1_555
C14_9 C7_9 1_555 1_555
C16_9 C5_9 1_555 1_555
H6_9 C16_9 1_555 1_555
C17_9 C1_9 1_555 1_555
C3_9 C4_9 1_555 1_555
C9_9 C10_9 1_555 1_555
C9_9 C11_9 1_555 1_555
C13_9 C14_9 1_555 1_555
C16_9 C17_9 1_555 1_555
C6_12 H9_7 1_555 1_555
C6_12 H10_7 1_555 1_555
O12_3 C15_9 1_555 1_555
O15_3 C15_9 1_555 1_555
O10_9 Cu6_3 1_555 1_555
O2_8 Cu6_4 1_555 1_555
O2_9 Cu5_2 1_555 1_555
C6_5 H10_8 1_555 1_555
C6_6 H9_8 1_555 1_555
C6_10 H9_9 1_555 1_555
C6_10 H10_9 1_555 1_555
C6_11 H9_10 1_555 1_555
C6_11 H10_10 1_555 1_555
C6_12 H9_11 1_555 1_555
C6_12 H10_11 1_555 1_555
C6_7 H9_12 1_555 1_555
C6_7 H10_12 1_555 1_555
C6_8 H9_13 1_555 1_555
C6_8 H10_13 1_555 1_555
C6_9 H9_14 1_555 1_555
C6_9 H10_14 1_555 1_555
C6_13 H10_15 1_555 1_555
C6_13 H9_15 1_555 1_555
C6_14 H9_16 1_555 1_555
C6_14 H10_16 1_555 1_555
C6_15 H9_17 1_555 1_555
C6_15 H10_17 1_555 1_555
C6_16 H10_18 1_555 1_555
C6_16 H9_18 1_555 1_555

#END
