
###############################################################################
#
# This file contains modified crystal structure data generated from the
# MOF subset of the Cambridge Structural Database (CSD) v543 
# hosted by the Cambridge Crystallographic Data Centre (CCDC).
#
# This work is licensed under the Creative Commons
# Attribution-NonCommercial-ShareAlike 4.0 International License.
# To view a copy of this license, visit
# http://creativecommons.org/licenses/by-nc-sa/4.0/
# or send a letter to
# Creative Commons, PO Box 1866, Mountain View, CA 94042, USA.
#
# CIF created using the CSD Python API on 29 September 2022
# The structure has been converted into the P1 space group
# The structure has a 3D framework
# The original CSD entry TOHQEO is in the monoclinic crystal system
# The framework has been calculated to contain at least 10.0% void space
# The void calculation uses a probe of radius 1.32A, grid spacing 0.4
#
###############################################################################

data_TOHQEO
_chemical_formula_moiety         '(C200 H128 Co6 N16 O30)n'
_symmetry_cell_setting           triclinic
_symmetry_space_group_name_H-M   'P 1'
_symmetry_Int_Tables_number      1
_space_group_name_Hall           'P 1'
loop_
_symmetry_equiv_pos_site_id
_symmetry_equiv_pos_as_xyz
1 x,y,z
_cell_length_a                   16.2387(9)
_cell_length_b                   18.6701(10)
_cell_length_c                   21.6565(11)
_cell_angle_alpha                90
_cell_angle_beta                 106.1380(10)
_cell_angle_gamma                90
_cell_volume                     6307.05
loop_
_atom_site_label
_atom_site_type_symbol
_atom_site_fract_x
_atom_site_fract_y
_atom_site_fract_z
C10 C 0.0507(2) 0.1720(3) 0.29840(18)
H6 H 0.0439 0.1818 0.2552
C11 C 0.1275(2) 0.1459(2) 0.33511(17)
C12 C 0.1354(2) 0.1352(3) 0.39898(18)
H7 H 0.1879 0.1204 0.4258
C13 C 0.0684(2) 0.1455(3) 0.42424(18)
H8 H 0.0754 0.1363 0.4676
C14 C 0.1980(2) 0.1277(2) 0.30697(17)
C15 C 0.1838(3) 0.1080(3) 0.24473(19)
H9 H 0.1284 0.1092 0.2174
C16 C 0.2502(2) 0.0861(3) 0.22134(19)
H10 H 0.2373 0.0722 0.1785
C17 C 0.3463(2) 0.1094(2) 0.31401(18)
H11 H 0.4031 0.1128 0.3385
C18 C 0.2826(2) 0.1316(2) 0.34128(18)
H12 H 0.2975 0.1492 0.3831
H13 H 0.0094 0.2964 0.4320
H14 H 0.0286 0.3804 0.5125
Co1 Co 0.02315(2) 0.53723(2) 0.658818(18)
N1 N 0.3303(2) 0.08377(17) 0.25541(14)
Co8 Co 0.42695(2) 0.04446(2) 0.220332(18)
N6 N 0.12314(15) 0.56698(14) 0.62309(12)
O9 O 0.02965(15) 0.41192(14) 0.78488(11)
O10 O 0.10095(16) 0.47528(15) 0.72946(11)
O12 O 0.03389(16) 0.61266(13) 0.72878(11)
C1 C 0.5978(2) 0.0667(2) 0.27381(16)
C2 C 0.6810(2) 0.0939(2) 0.31488(16)
C3 C 0.7569(2) 0.0618(2) 0.31252(19)
H1 H 0.7549 0.0210 0.2876
C4 C 0.8348(2) 0.0889(2) 0.34621(18)
H2 H 0.8848 0.0659 0.3441
C5 C 0.8404(2) 0.15031(19) 0.38344(15)
C6 C 0.7648(2) 0.18052(19) 0.38850(16)
H3 H 0.7667 0.2199 0.4151
C7 C 0.6866(2) 0.1527(2) 0.35436(16)
H4 H 0.6365 0.1742 0.3581
C8 C 0.9911(2) 0.1691(2) 0.38692(16)
C9 C 0.9831(2) 0.1841(3) 0.32403(19)
H5 H 0.9319 0.2027 0.2983
C19 C 0.93380(19) 0.22987(18) 0.46573(15)
C20 C 0.9835(2) 0.29012(19) 0.46495(15)
C21 C 0.9945(2) 0.34055(18) 0.51287(15)
C22 C 0.95517(19) 0.33267(18) 0.56188(14)
C23 C 0.9073(2) 0.27151(19) 0.56234(15)
H15 H 0.8817 0.2648 0.5954
C24 C 0.8966(2) 0.22082(19) 0.51528(15)
H16 H 0.8643 0.1801 0.5166
C25 C 0.9616(2) 0.39048(18) 0.61006(15)
C26 C 0.8470(2) 0.56244(18) 0.60946(15)
C27 C 0.76671(19) 0.59862(18) 0.57190(14)
C28 C 0.7670(2) 0.6661(2) 0.54640(16)
H17 H 0.8191 0.6889 0.5501
C29 C 0.6916(2) 0.7008(2) 0.51535(17)
H18 H 0.6932 0.7471 0.4999
C30 C 0.6132(2) 0.66626(19) 0.50725(16)
C31 C 0.6130(2) 0.5977(2) 0.53154(17)
H19 H 0.5612 0.5736 0.5257
C32 C 0.6881(2) 0.56480(19) 0.56417(16)
H20 H 0.6864 0.5193 0.5813
C33 C 0.4622(2) 0.6836(2) 0.50066(17)
C34 C 0.4695(2) 0.6890(2) 0.56537(18)
H21 H 0.5191 0.7077 0.5932
C35 C 0.4029(2) 0.6666(2) 0.58872(17)
H22 H 0.4092 0.6692 0.6327
C36 C 0.3271(2) 0.64041(19) 0.54865(16)
C37 C 0.3194(2) 0.6386(2) 0.48277(17)
H23 H 0.2683 0.6230 0.4545
C38 C 0.3862(2) 0.6596(2) 0.45889(18)
H24 H 0.3802 0.6577 0.4149
C39 C 0.2573(2) 0.61448(18) 0.57452(16)
C40 C 0.2484(2) 0.6373(2) 0.63306(16)
H25 H 0.2881 0.6692 0.6577
C41 C 0.1819(2) 0.61348(19) 0.65536(16)
H26 H 0.1776 0.6305 0.6947
C42 C 0.1977(2) 0.5648(2) 0.54266(16)
H27 H 0.2013 0.5460 0.5037
C43 C 0.1333(2) 0.54283(18) 0.56789(16)
H28 H 0.0944 0.5091 0.5451
C44 C 0.5244(2) 0.7485(2) 0.42507(17)
C45 C 0.5714(2) 0.7419(2) 0.38121(16)
H29 H 0.6105 0.7047 0.3854
C46 C 0.5610(2) 0.78981(19) 0.33126(16)
H30 H 0.5940 0.7845 0.3026
C47 C 0.5029(2) 0.84548(18) 0.32264(15)
C48 C 0.4555(2) 0.8511(2) 0.36662(18)
H31 H 0.4155 0.8878 0.3620
C49 C 0.4660(2) 0.8042(2) 0.41662(18)
H32 H 0.4333 0.8097 0.4454
C50 C 0.4931(2) 0.89797(19) 0.26964(16)
Co2 Co 0.92695(2) 0.45554(2) 0.720332(18)
N3 N 0.92114(16) 0.18015(17) 0.41445(13)
N4 N 0.53435(16) 0.70052(17) 0.47727(14)
O1 O 0.92621(14) 0.37984(12) 0.65436(10)
O2 O 0.99981(15) 0.44712(12) 0.60294(11)
O3 O 0.52965(15) 0.08808(14) 0.28488(11)
O4 O 0.60095(16) 0.02472(15) 0.22946(11)
O5 O 0.84016(13) 0.51123(13) 0.64525(10)
O6 O 0.91773(13) 0.58561(13) 0.60332(10)
O7 O 0.44484(15) 0.95086(13) 0.26959(12)
O8 O 0.53389(16) 0.88734(13) 0.22878(11)
Co5 Co 0.52315(2) 0.96277(2) 0.158818(18)
N5 N 0.8303(2) 0.41623(17) 0.75541(14)
O11 O 0.94484(15) 0.54914(13) 0.76959(12)
C21_2 C 0.4945(2) 0.15945(18) 0.01287(15)
H14_2 H 0.5286 0.1196 0.0125
C22_2 C 0.45517(19) 0.16733(18) 0.06188(14)
C23_2 C 0.4073(2) 0.22849(19) 0.06234(15)
H15_2 H 0.3817 0.2352 0.0954
C24_2 C 0.3966(2) 0.27918(19) 0.01528(15)
H16_2 H 0.3643 0.3199 0.0166
C25_2 C 0.4616(2) 0.10952(18) 0.11006(15)
O1_2 O 0.42621(14) 0.12016(12) 0.15436(10)
O2_2 O 0.49981(15) 0.05288(12) 0.10294(11)
C1_2 C 0.0978(2) 0.4333(2) 0.77381(16)
C2_2 C 0.1810(2) 0.4061(2) 0.81488(16)
C3_2 C 0.2569(2) 0.4382(2) 0.81252(19)
H1_2 H 0.2549 0.4790 0.7876
C4_2 C 0.3348(2) 0.4111(2) 0.84621(18)
H2_2 H 0.3848 0.4341 0.8441
C5_2 C 0.3404(2) 0.34969(19) 0.88344(15)
C6_2 C 0.2648(2) 0.31948(19) 0.88850(16)
H3_2 H 0.2667 0.2801 0.9151
C7_2 C 0.1866(2) 0.3473(2) 0.85436(16)
H4_2 H 0.1365 0.3258 0.8581
C8_2 C 0.4911(2) 0.3309(2) 0.88692(16)
C9_2 C 0.4831(2) 0.3159(3) 0.82403(19)
H5_2 H 0.4319 0.2973 0.7983
C10_2 C 0.5507(2) 0.3280(3) 0.79840(18)
H6_2 H 0.5439 0.3182 0.7552
C11_2 C 0.6275(2) 0.3541(2) 0.83511(17)
C12_2 C 0.6354(2) 0.3648(3) 0.89898(18)
H7_2 H 0.6879 0.3796 0.9258
C13_2 C 0.5684(2) 0.3545(3) 0.92424(18)
H8_2 H 0.5754 0.3637 0.9676
C14_2 C 0.6980(2) 0.3723(2) 0.80697(17)
C15_2 C 0.6838(3) 0.3920(3) 0.74473(19)
H9_2 H 0.6284 0.3908 0.7174
C16_2 C 0.7502(2) 0.4139(3) 0.72134(19)
H10_2 H 0.7373 0.4278 0.6785
C17_2 C 0.8463(2) 0.3906(2) 0.81401(18)
H11_2 H 0.9031 0.3872 0.8385
C18_2 C 0.7826(2) 0.3684(2) 0.84128(18)
H12_2 H 0.7975 0.3508 0.8831
C19_2 C 0.43380(19) 0.27013(18) 0.96573(15)
C20_2 C 0.4835(2) 0.20988(19) 0.96495(15)
H13_2 H 0.5094 0.2036 0.9320
N3_2 N 0.42114(16) 0.31985(17) 0.91445(13)
C26_2 C 0.3470(2) 0.93756(18) 0.10946(15)
C27_2 C 0.26671(19) 0.90138(18) 0.07190(14)
C28_2 C 0.2670(2) 0.8339(2) 0.04640(16)
H17_2 H 0.3191 0.8111 0.0501
C29_2 C 0.1916(2) 0.7992(2) 0.01535(17)
C30_2 C 0.1132(2) 0.83374(19) 0.00725(16)
C31_2 C 0.1130(2) 0.9023(2) 0.03154(17)
H19_2 H 0.0612 0.9264 0.0257
C32_2 C 0.1881(2) 0.93520(19) 0.06417(16)
H20_2 H 0.1864 0.9807 0.0813
H21_2 H 0.0191 0.7923 0.0932
O5_2 O 0.34016(13) 0.98877(13) 0.14525(10)
O6_2 O 0.41773(13) 0.91439(13) 0.10332(10)
N6_2 N 0.62314(15) 0.93302(14) 0.12309(12)
H18_2 H 0.1932 0.7529 0.9999
C44_2 C 0.0244(2) 0.7515(2) 0.92507(17)
C45_2 C 0.0714(2) 0.7581(2) 0.88121(16)
H29_2 H 0.1105 0.7953 0.8854
C46_2 C 0.0610(2) 0.71019(19) 0.83126(16)
H30_2 H 0.0940 0.7155 0.8026
C47_2 C 0.0029(2) 0.65452(18) 0.82264(15)
N4_2 N 0.03435(16) 0.79948(17) 0.97727(14)
C33_2 C 0.9622(2) 0.8164(2) 0.00066(17)
C34_2 C 0.9695(2) 0.8110(2) 0.06537(18)
C35_2 C 0.9029(2) 0.8334(2) 0.08872(17)
H22_2 H 0.9092 0.8308 0.1327
C36_2 C 0.8271(2) 0.85959(19) 0.04865(16)
C39_2 C 0.7573(2) 0.88552(18) 0.07452(16)
C40_2 C 0.7484(2) 0.8627(2) 0.13306(16)
H25_2 H 0.7881 0.8308 0.1577
C41_2 C 0.6819(2) 0.88652(19) 0.15536(16)
H26_2 H 0.6776 0.8695 0.1947
C42_2 C 0.6977(2) 0.9352(2) 0.04266(16)
H27_2 H 0.7013 0.9540 0.0037
C43_2 C 0.6333(2) 0.95717(18) 0.06789(16)
H28_2 H 0.5944 0.9909 0.0451
C37_2 C 0.8194(2) 0.8614(2) 0.98277(17)
H23_2 H 0.7683 0.8770 0.9545
C38_2 C 0.8862(2) 0.8404(2) 0.95889(18)
H24_2 H 0.8802 0.8423 0.9149
C48_2 C 0.9555(2) 0.6489(2) 0.86662(18)
H31_2 H 0.9155 0.6122 0.8620
C49_2 C 0.9660(2) 0.6958(2) 0.91662(18)
H32_2 H 0.9333 0.6903 0.9454
C50_2 C 0.9931(2) 0.60203(19) 0.76964(16)
C37_3 C 0.1806(2) 0.1386(2) 0.01723(17)
H23_3 H 0.2317 0.1230 0.0455
C38_3 C 0.1138(2) 0.1596(2) 0.04111(18)
H24_3 H 0.1198 0.1577 0.0851
C48_3 C 0.0445(2) 0.3511(2) 0.13338(18)
H31_3 H 0.0845 0.3878 0.1380
C49_3 C 0.0340(2) 0.3042(2) 0.08338(18)
H32_3 H 0.0667 0.3097 0.0546
C50_3 C 0.0069(2) 0.39797(19) 0.23036(16)
O7_2 O 0.05516(15) 0.45086(13) 0.23041(12)
Co7 Co 0.07305(2) 0.54446(2) 0.279668(18)
C33_3 C 0.0378(2) 0.1836(2) 0.99934(17)
C34_3 C 0.0305(2) 0.1890(2) 0.93463(18)
C35_3 C 0.0971(2) 0.1666(2) 0.91128(17)
H22_3 H 0.0908 0.1692 0.8673
C36_3 C 0.1729(2) 0.14041(19) 0.95135(16)
C39_3 C 0.2427(2) 0.11448(18) 0.92548(16)
C40_3 C 0.2516(2) 0.1373(2) 0.86694(16)
H25_3 H 0.2119 0.1692 0.8423
C41_3 C 0.3181(2) 0.11348(19) 0.84464(16)
H26_3 H 0.3224 0.1305 0.8053
C42_3 C 0.3023(2) 0.0648(2) 0.95734(16)
H27_3 H 0.2987 0.0460 0.9963
C43_3 C 0.3667(2) 0.04283(18) 0.93211(16)
H28_3 H 0.4056 0.0091 0.9549
N2 N 0.37686(15) 0.06698(14) 0.87691(12)
Co3 Co 0.47685(2) 0.03723(2) 0.841182(18)
H18_3 H 0.8068 0.2471 0.0001
C44_3 C 0.9756(2) 0.2485(2) 0.07493(17)
C45_3 C 0.9286(2) 0.2419(2) 0.11879(16)
H29_3 H 0.8895 0.2047 0.1146
C46_3 C 0.9390(2) 0.28981(19) 0.16874(16)
H30_3 H 0.9060 0.2845 0.1974
C47_3 C 0.9971(2) 0.34548(18) 0.17736(15)
N4_3 N 0.96565(16) 0.20052(17) 0.02273(14)
O8_2 O 0.96611(16) 0.38734(13) 0.27122(11)
Co5_2 Co 0.97685(2) 0.46277(2) 0.341182(18)
C26_3 C 0.6530(2) 0.06244(18) 0.89054(15)
C27_3 C 0.73329(19) 0.09862(18) 0.92810(14)
C28_3 C 0.7330(2) 0.1661(2) 0.95360(16)
H17_3 H 0.6809 0.1889 0.9499
C29_3 C 0.8084(2) 0.2008(2) 0.98465(17)
C30_3 C 0.8868(2) 0.16626(19) 0.99275(16)
C31_3 C 0.8870(2) 0.0977(2) 0.96846(17)
H19_3 H 0.9388 0.0736 0.9743
C32_3 C 0.8119(2) 0.06480(19) 0.93583(16)
H20_3 H 0.8136 0.0193 0.9187
H21_3 H 0.9809 0.2077 0.9068
O5_3 O 0.65984(13) 0.01123(13) 0.85475(10)
O6_3 O 0.58227(13) 0.08561(13) 0.89668(10)
O11_2 O 0.55516(15) 0.04914(13) 0.73041(12)
O12_2 O 0.46611(16) 0.11266(13) 0.77122(11)
C1_3 C 0.9022(2) 0.5667(2) 0.22619(16)
C2_3 C 0.8190(2) 0.5939(2) 0.18512(16)
C3_3 C 0.7431(2) 0.5618(2) 0.18748(19)
H1_3 H 0.7451 0.5210 0.2124
C4_3 C 0.6652(2) 0.5889(2) 0.15379(18)
H2_3 H 0.6152 0.5659 0.1559
C5_3 C 0.6596(2) 0.65031(19) 0.11656(15)
C6_3 C 0.7352(2) 0.68052(19) 0.11150(16)
H3_3 H 0.7333 0.7199 0.0849
C7_3 C 0.8134(2) 0.6527(2) 0.14564(16)
H4_3 H 0.8635 0.6742 0.1419
C8_3 C 0.5089(2) 0.6691(2) 0.11308(16)
C9_3 C 0.5169(2) 0.6841(3) 0.17597(19)
H5_3 H 0.5681 0.7027 0.2017
C10_3 C 0.4493(2) 0.6720(3) 0.20160(18)
H6_3 H 0.4561 0.6818 0.2448
C11_3 C 0.3725(2) 0.6459(2) 0.16489(17)
C12_3 C 0.3646(2) 0.6352(3) 0.10102(18)
H7_3 H 0.3121 0.6204 0.0742
C13_3 C 0.4316(2) 0.6455(3) 0.07576(18)
H8_3 H 0.4246 0.6363 0.0324
C14_3 C 0.3020(2) 0.6277(2) 0.19303(17)
C15_3 C 0.3162(3) 0.6080(3) 0.25527(19)
H9_3 H 0.3716 0.6092 0.2826
C16_3 C 0.2498(2) 0.5861(3) 0.27866(19)
H10_3 H 0.2627 0.5722 0.3215
C17_3 C 0.1537(2) 0.6094(2) 0.18599(18)
H11_3 H 0.0969 0.6128 0.1615
C18_3 C 0.2174(2) 0.6316(2) 0.15872(18)
H12_3 H 0.2025 0.6492 0.1169
C19_3 C 0.56620(19) 0.72987(18) 0.03427(15)
C20_3 C 0.5165(2) 0.79012(19) 0.03505(15)
H13_3 H 0.4906 0.7964 0.0680
N1_2 N 0.1697(2) 0.58377(17) 0.24459(14)
N3_3 N 0.57886(16) 0.68015(17) 0.08555(13)
O3_2 O 0.97035(15) 0.58808(14) 0.21512(11)
O4_2 O 0.89905(16) 0.52472(15) 0.27054(11)
C21_3 C 0.5055(2) 0.84055(18) 0.98713(15)
H14_3 H 0.4714 0.8804 0.9875
C22_3 C 0.54483(19) 0.83267(18) 0.93812(14)
C23_3 C 0.5927(2) 0.77151(19) 0.93766(15)
H15_3 H 0.6183 0.7648 0.9046
C24_3 C 0.6034(2) 0.72082(19) 0.98472(15)
H16_3 H 0.6357 0.6801 0.9834
C25_3 C 0.5384(2) 0.89048(18) 0.88994(15)
Co2_2 Co 0.57305(2) 0.95554(2) 0.779668(18)
O1_3 O 0.57379(14) 0.87984(12) 0.84564(10)
O2_3 O 0.50019(15) 0.94712(12) 0.89706(11)
N5_2 N 0.6697(2) 0.91623(17) 0.74459(14)
O9_2 O 0.47035(15) 0.91192(14) 0.71512(11)
O10_2 O 0.39905(16) 0.97528(15) 0.77054(11)
C1_4 C 0.4022(2) 0.9333(2) 0.72619(16)
C2_4 C 0.3190(2) 0.9061(2) 0.68512(16)
C3_4 C 0.2431(2) 0.9382(2) 0.68748(19)
H1_4 H 0.2451 0.9790 0.7124
C4_4 C 0.1652(2) 0.9111(2) 0.65379(18)
H2_4 H 0.1152 0.9341 0.6559
C5_4 C 0.1596(2) 0.84969(19) 0.61656(15)
C6_4 C 0.2352(2) 0.81948(19) 0.61150(16)
H3_4 H 0.2333 0.7801 0.5849
C7_4 C 0.3134(2) 0.8473(2) 0.64564(16)
H4_4 H 0.3635 0.8258 0.6419
C8_4 C 0.0089(2) 0.8309(2) 0.61308(16)
C9_4 C 0.0169(2) 0.8159(3) 0.67597(19)
H5_4 H 0.0681 0.7973 0.7017
C19_4 C 0.06620(19) 0.77013(18) 0.53427(15)
C20_4 C 0.0165(2) 0.70988(19) 0.53505(15)
C21_4 C 0.0055(2) 0.65945(18) 0.48713(15)
C22_4 C 0.04483(19) 0.66733(18) 0.43812(14)
C23_4 C 0.0927(2) 0.72849(19) 0.43766(15)
H15_4 H 0.1183 0.7352 0.4046
C24_4 C 0.1034(2) 0.77918(19) 0.48472(15)
H16_4 H 0.1357 0.8199 0.4834
C25_4 C 0.0384(2) 0.60952(18) 0.38994(15)
C26_4 C 0.1530(2) 0.43756(18) 0.39054(15)
C27_4 C 0.23329(19) 0.40138(18) 0.42810(14)
C28_4 C 0.2330(2) 0.3339(2) 0.45360(16)
H17_4 H 0.1809 0.3111 0.4499
C29_4 C 0.3084(2) 0.2992(2) 0.48465(17)
H18_4 H 0.3068 0.2529 0.5001
C30_4 C 0.3868(2) 0.33374(19) 0.49275(16)
C31_4 C 0.3870(2) 0.4023(2) 0.46846(17)
H19_4 H 0.4388 0.4264 0.4743
C32_4 C 0.3119(2) 0.43520(19) 0.43583(16)
H20_4 H 0.3136 0.4807 0.4187
C33_4 C 0.5378(2) 0.3164(2) 0.49934(17)
C34_4 C 0.5305(2) 0.3110(2) 0.43463(18)
H21_4 H 0.4809 0.2923 0.4068
C35_4 C 0.5971(2) 0.3334(2) 0.41128(17)
H22_4 H 0.5908 0.3308 0.3673
C36_4 C 0.6729(2) 0.35959(19) 0.45135(16)
C37_4 C 0.6806(2) 0.3614(2) 0.51723(17)
H23_4 H 0.7317 0.3770 0.5455
C38_4 C 0.6138(2) 0.3404(2) 0.54111(18)
H24_4 H 0.6198 0.3423 0.5851
C39_4 C 0.7427(2) 0.38552(18) 0.42548(16)
C40_4 C 0.7516(2) 0.3627(2) 0.36694(16)
H25_4 H 0.7119 0.3308 0.3423
C41_4 C 0.8181(2) 0.38652(19) 0.34464(16)
H26_4 H 0.8224 0.3695 0.3053
C42_4 C 0.8023(2) 0.4352(2) 0.45734(16)
H27_4 H 0.7987 0.4540 0.4963
C43_4 C 0.8667(2) 0.45717(18) 0.43211(16)
H28_4 H 0.9056 0.4909 0.4549
C44_4 C 0.4756(2) 0.2515(2) 0.57493(17)
C45_4 C 0.4286(2) 0.2581(2) 0.61879(16)
H29_4 H 0.3895 0.2953 0.6146
C46_4 C 0.4390(2) 0.21019(19) 0.66874(16)
H30_4 H 0.4060 0.2155 0.6974
C47_4 C 0.4971(2) 0.15452(18) 0.67736(15)
C48_4 C 0.5445(2) 0.1489(2) 0.63338(18)
H31_4 H 0.5845 0.1122 0.6380
C49_4 C 0.5340(2) 0.1958(2) 0.58338(18)
H32_4 H 0.5667 0.1903 0.5546
C50_4 C 0.5069(2) 0.10203(19) 0.73036(16)
N2_2 N 0.87686(15) 0.43302(14) 0.37691(12)
N3_4 N 0.07886(16) 0.81985(17) 0.58555(13)
N4_4 N 0.46565(16) 0.29948(17) 0.52273(14)
O1_4 O 0.07379(14) 0.62016(12) 0.34564(10)
O2_4 O 0.00019(15) 0.55288(12) 0.39706(11)
O5_4 O 0.15984(13) 0.48877(13) 0.35475(10)
O6_4 O 0.08227(13) 0.41439(13) 0.39668(10)
C10_4 C 0.9493(2) 0.8280(3) 0.70160(18)
H6_4 H 0.9561 0.8182 0.7448
C11_4 C 0.8725(2) 0.8541(2) 0.66489(17)
C12_4 C 0.8646(2) 0.8648(3) 0.60102(18)
H7_4 H 0.8121 0.8796 0.5742
C13_4 C 0.9316(2) 0.8545(3) 0.57576(18)
H8_4 H 0.9246 0.8637 0.5324
C14_4 C 0.8020(2) 0.8723(2) 0.69303(17)
C15_4 C 0.8162(3) 0.8920(3) 0.75527(19)
H9_4 H 0.8716 0.8908 0.7826
C16_4 C 0.7498(2) 0.9139(3) 0.77866(19)
H10_4 H 0.7627 0.9278 0.8215
C17_4 C 0.6537(2) 0.8906(2) 0.68599(18)
H11_4 H 0.5969 0.8872 0.6615
C18_4 C 0.7174(2) 0.8684(2) 0.65872(18)
H12_4 H 0.7025 0.8508 0.6169
H13_4 H 0.9906 0.7036 0.5680
H14_4 H 0.9714 0.6196 0.4875
loop_
_geom_bond_atom_site_label_1
_geom_bond_atom_site_label_2
_geom_bond_site_symmetry_1
_geom_bond_site_symmetry_2
H6 C10 1_555 1_555
C11 C10 1_555 1_555
C12 C11 1_555 1_555
H7 C12 1_555 1_555
H8 C13 1_555 1_555
C14 C11 1_555 1_555
C15 C14 1_555 1_555
H9 C15 1_555 1_555
C16 C15 1_555 1_555
H10 C16 1_555 1_555
C17 H11 1_555 1_555
C18 C14 1_555 1_555
H12 C18 1_555 1_555
N1 C16 1_555 1_555
Co8 N1 1_555 1_555
N6 Co1 1_555 1_555
O10 Co1 1_555 1_555
O12 Co1 1_555 1_555
C12 C13 1_555 1_555
C17 C18 1_555 1_555
C17 N1 1_555 1_555
C1 C2 1_555 1_555
C2 C3 1_555 1_555
C3 H1 1_555 1_555
C4 C3 1_555 1_555
H2 C4 1_555 1_555
C5 C4 1_555 1_555
C6 C5 1_555 1_555
H3 C6 1_555 1_555
C7 C2 1_555 1_555
H4 C7 1_555 1_555
C8 C9 1_555 1_555
C9 H5 1_555 1_555
C19 C20 1_555 1_555
C21 C20 1_555 1_555
C22 C21 1_555 1_555
C23 C22 1_555 1_555
H15 C23 1_555 1_555
C24 C19 1_555 1_555
H16 C24 1_555 1_555
C25 C22 1_555 1_555
C26 C27 1_555 1_555
C27 C28 1_555 1_555
C28 H17 1_555 1_555
C29 C28 1_555 1_555
H18 C29 1_555 1_555
C30 C29 1_555 1_555
C31 C30 1_555 1_555
H19 C31 1_555 1_555
C32 C27 1_555 1_555
H20 C32 1_555 1_555
C33 C34 1_555 1_555
C34 H21 1_555 1_555
C35 C34 1_555 1_555
H22 C35 1_555 1_555
C36 C35 1_555 1_555
C37 C36 1_555 1_555
H23 C37 1_555 1_555
C38 C33 1_555 1_555
H24 C38 1_555 1_555
C39 C36 1_555 1_555
C40 C39 1_555 1_555
H25 C40 1_555 1_555
C41 C40 1_555 1_555
H26 C41 1_555 1_555
C42 C39 1_555 1_555
H27 C42 1_555 1_555
C43 C42 1_555 1_555
H28 C43 1_555 1_555
C44 C45 1_555 1_555
C45 H29 1_555 1_555
C46 C45 1_555 1_555
H30 C46 1_555 1_555
C47 C46 1_555 1_555
C48 C47 1_555 1_555
H31 C48 1_555 1_555
C49 C44 1_555 1_555
H32 C49 1_555 1_555
C50 C47 1_555 1_555
Co2 O1 1_555 1_555
N6 C41 1_555 1_555
N3 C5 1_555 1_555
N4 C30 1_555 1_555
O1 C25 1_555 1_555
O2 C25 1_555 1_555
O3 C1 1_555 1_555
O4 C1 1_555 1_555
O5 C26 1_555 1_555
O6 C26 1_555 1_555
O7 C50 1_555 1_555
O8 C50 1_555 1_555
Co5 O8 1_555 1_555
Co8 O3 1_555 1_555
N5 Co2 1_555 1_555
O11 Co2 1_555 1_555
C6 C7 1_555 1_555
C8 N3 1_555 1_555
C19 N3 1_555 1_555
C23 C24 1_555 1_555
C31 C32 1_555 1_555
C33 N4 1_555 1_555
C37 C38 1_555 1_555
C43 N6 1_555 1_555
C44 N4 1_555 1_555
C48 C49 1_555 1_555
Co2 O5 1_555 1_555
H14_2 C21_2 1_555 1_555
C22_2 C21_2 1_555 1_555
C23_2 C22_2 1_555 1_555
H15_2 C23_2 1_555 1_555
H16_2 C24_2 1_555 1_555
C25_2 C22_2 1_555 1_555
Co8 O1_2 1_555 1_555
O1_2 C25_2 1_555 1_555
O2_2 C25_2 1_555 1_555
C23_2 C24_2 1_555 1_555
C1_2 C2_2 1_555 1_555
C2_2 C3_2 1_555 1_555
C3_2 H1_2 1_555 1_555
C4_2 C3_2 1_555 1_555
H2_2 C4_2 1_555 1_555
C5_2 C4_2 1_555 1_555
C6_2 C5_2 1_555 1_555
H3_2 C6_2 1_555 1_555
C7_2 C2_2 1_555 1_555
H4_2 C7_2 1_555 1_555
C8_2 C9_2 1_555 1_555
C9_2 H5_2 1_555 1_555
C10_2 C9_2 1_555 1_555
H6_2 C10_2 1_555 1_555
C11_2 C10_2 1_555 1_555
C12_2 C11_2 1_555 1_555
H7_2 C12_2 1_555 1_555
C13_2 C8_2 1_555 1_555
H8_2 C13_2 1_555 1_555
C14_2 C11_2 1_555 1_555
C15_2 C14_2 1_555 1_555
H9_2 C15_2 1_555 1_555
C16_2 C15_2 1_555 1_555
H10_2 C16_2 1_555 1_555
C17_2 H11_2 1_555 1_555
C18_2 C14_2 1_555 1_555
H12_2 C18_2 1_555 1_555
C19_2 C20_2 1_555 1_555
C20_2 H13_2 1_555 1_555
N5 C16_2 1_555 1_555
N3_2 C5_2 1_555 1_555
O9 C1_2 1_555 1_555
O10 C1_2 1_555 1_555
C6_2 C7_2 1_555 1_555
C8_2 N3_2 1_555 1_555
C12_2 C13_2 1_555 1_555
C17_2 C18_2 1_555 1_555
C17_2 N5 1_555 1_555
C19_2 N3_2 1_555 1_555
C26_2 C27_2 1_555 1_555
C27_2 C28_2 1_555 1_555
C28_2 H17_2 1_555 1_555
C29_2 C28_2 1_555 1_555
C30_2 C29_2 1_555 1_555
C31_2 C30_2 1_555 1_555
H19_2 C31_2 1_555 1_555
C32_2 C27_2 1_555 1_555
H20_2 C32_2 1_555 1_555
O5_2 C26_2 1_555 1_555
O6_2 C26_2 1_555 1_555
N6_2 Co5 1_555 1_555
C31_2 C32_2 1_555 1_555
Co5 O6_2 1_555 1_555
C44_2 C45_2 1_555 1_555
C45_2 H29_2 1_555 1_555
C46_2 C45_2 1_555 1_555
H30_2 C46_2 1_555 1_555
C47_2 C46_2 1_555 1_555
C44_2 N4_2 1_555 1_555
C33_2 C34_2 1_555 1_555
C35_2 C34_2 1_555 1_555
H22_2 C35_2 1_555 1_555
C36_2 C35_2 1_555 1_555
C39_2 C36_2 1_555 1_555
C40_2 C39_2 1_555 1_555
H25_2 C40_2 1_555 1_555
C41_2 C40_2 1_555 1_555
H26_2 C41_2 1_555 1_555
C42_2 C39_2 1_555 1_555
H27_2 C42_2 1_555 1_555
C43_2 C42_2 1_555 1_555
H28_2 C43_2 1_555 1_555
N6_2 C41_2 1_555 1_555
C43_2 N6_2 1_555 1_555
H23_2 C37_2 1_555 1_555
H24_2 C38_2 1_555 1_555
H31_2 C48_2 1_555 1_555
H32_2 C49_2 1_555 1_555
O11 C50_2 1_555 1_555
C37_2 C38_2 1_555 1_555
C48_2 C49_2 1_555 1_555
H23_3 C37_3 1_555 1_555
H24_3 C38_3 1_555 1_555
H31_3 C48_3 1_555 1_555
H32_3 C49_3 1_555 1_555
O7_2 C50_3 1_555 1_555
Co7 O7_2 1_555 1_555
C37_3 C38_3 1_555 1_555
C48_3 C49_3 1_555 1_555
C33_3 C34_3 1_555 1_555
C35_3 C34_3 1_555 1_555
H22_3 C35_3 1_555 1_555
C36_3 C35_3 1_555 1_555
C39_3 C36_3 1_555 1_555
C40_3 C39_3 1_555 1_555
H25_3 C40_3 1_555 1_555
C41_3 C40_3 1_555 1_555
H26_3 C41_3 1_555 1_555
C42_3 C39_3 1_555 1_555
H27_3 C42_3 1_555 1_555
C43_3 C42_3 1_555 1_555
H28_3 C43_3 1_555 1_555
N2 C41_3 1_555 1_555
Co3 N2 1_555 1_555
C43_3 N2 1_555 1_555
C44_3 C45_3 1_555 1_555
C45_3 H29_3 1_555 1_555
C46_3 C45_3 1_555 1_555
H30_3 C46_3 1_555 1_555
C47_3 C46_3 1_555 1_555
Co5_2 O8_2 1_555 1_555
C44_3 N4_3 1_555 1_555
C26_3 C27_3 1_555 1_555
C27_3 C28_3 1_555 1_555
C28_3 H17_3 1_555 1_555
C29_3 C28_3 1_555 1_555
C30_3 C29_3 1_555 1_555
C31_3 C30_3 1_555 1_555
H19_3 C31_3 1_555 1_555
C32_3 C27_3 1_555 1_555
H20_3 C32_3 1_555 1_555
O5_3 C26_3 1_555 1_555
O6_3 C26_3 1_555 1_555
O12_2 Co3 1_555 1_555
C31_3 C32_3 1_555 1_555
Co3 O6_3 1_555 1_555
C1_3 C2_3 1_555 1_555
C2_3 C3_3 1_555 1_555
C3_3 H1_3 1_555 1_555
C4_3 C3_3 1_555 1_555
H2_3 C4_3 1_555 1_555
C5_3 C4_3 1_555 1_555
C6_3 C5_3 1_555 1_555
H3_3 C6_3 1_555 1_555
C7_3 C2_3 1_555 1_555
H4_3 C7_3 1_555 1_555
C8_3 C9_3 1_555 1_555
C9_3 H5_3 1_555 1_555
C10_3 C9_3 1_555 1_555
H6_3 C10_3 1_555 1_555
C11_3 C10_3 1_555 1_555
C12_3 C11_3 1_555 1_555
H7_3 C12_3 1_555 1_555
C13_3 C8_3 1_555 1_555
H8_3 C13_3 1_555 1_555
C14_3 C11_3 1_555 1_555
C15_3 C14_3 1_555 1_555
H9_3 C15_3 1_555 1_555
C16_3 C15_3 1_555 1_555
H10_3 C16_3 1_555 1_555
C17_3 H11_3 1_555 1_555
C18_3 C14_3 1_555 1_555
H12_3 C18_3 1_555 1_555
C19_3 C20_3 1_555 1_555
C20_3 H13_3 1_555 1_555
N1_2 C16_3 1_555 1_555
N3_3 C5_3 1_555 1_555
O3_2 C1_3 1_555 1_555
O4_2 C1_3 1_555 1_555
Co5_2 O4_2 1_555 1_555
Co7 N1_2 1_555 1_555
C6_3 C7_3 1_555 1_555
C8_3 N3_3 1_555 1_555
C12_3 C13_3 1_555 1_555
C17_3 C18_3 1_555 1_555
C17_3 N1_2 1_555 1_555
C19_3 N3_3 1_555 1_555
H14_3 C21_3 1_555 1_555
C22_3 C21_3 1_555 1_555
C23_3 C22_3 1_555 1_555
H15_3 C23_3 1_555 1_555
H16_3 C24_3 1_555 1_555
C25_3 C22_3 1_555 1_555
Co2_2 O1_3 1_555 1_555
O1_3 C25_3 1_555 1_555
O2_3 C25_3 1_555 1_555
N5_2 Co2_2 1_555 1_555
O9_2 Co2_2 1_555 1_555
C23_3 C24_3 1_555 1_555
C1_4 C2_4 1_555 1_555
C2_4 C3_4 1_555 1_555
C3_4 H1_4 1_555 1_555
C4_4 C3_4 1_555 1_555
H2_4 C4_4 1_555 1_555
C5_4 C4_4 1_555 1_555
C6_4 C5_4 1_555 1_555
H3_4 C6_4 1_555 1_555
C7_4 C2_4 1_555 1_555
H4_4 C7_4 1_555 1_555
C8_4 C9_4 1_555 1_555
C9_4 H5_4 1_555 1_555
C19_4 C20_4 1_555 1_555
C21_4 C20_4 1_555 1_555
C22_4 C21_4 1_555 1_555
C23_4 C22_4 1_555 1_555
H15_4 C23_4 1_555 1_555
C24_4 C19_4 1_555 1_555
H16_4 C24_4 1_555 1_555
C25_4 C22_4 1_555 1_555
C26_4 C27_4 1_555 1_555
C27_4 C28_4 1_555 1_555
C28_4 H17_4 1_555 1_555
C29_4 C28_4 1_555 1_555
H18_4 C29_4 1_555 1_555
C30_4 C29_4 1_555 1_555
C31_4 C30_4 1_555 1_555
H19_4 C31_4 1_555 1_555
C32_4 C27_4 1_555 1_555
H20_4 C32_4 1_555 1_555
C33_4 C34_4 1_555 1_555
C34_4 H21_4 1_555 1_555
C35_4 C34_4 1_555 1_555
H22_4 C35_4 1_555 1_555
C36_4 C35_4 1_555 1_555
C37_4 C36_4 1_555 1_555
H23_4 C37_4 1_555 1_555
C38_4 C33_4 1_555 1_555
H24_4 C38_4 1_555 1_555
C39_4 C36_4 1_555 1_555
C40_4 C39_4 1_555 1_555
H25_4 C40_4 1_555 1_555
C41_4 C40_4 1_555 1_555
H26_4 C41_4 1_555 1_555
C42_4 C39_4 1_555 1_555
H27_4 C42_4 1_555 1_555
C43_4 C42_4 1_555 1_555
H28_4 C43_4 1_555 1_555
C44_4 C45_4 1_555 1_555
C45_4 H29_4 1_555 1_555
C46_4 C45_4 1_555 1_555
H30_4 C46_4 1_555 1_555
C47_4 C46_4 1_555 1_555
C48_4 C47_4 1_555 1_555
H31_4 C48_4 1_555 1_555
C49_4 C44_4 1_555 1_555
H32_4 C49_4 1_555 1_555
C50_4 C47_4 1_555 1_555
Co7 O1_4 1_555 1_555
N2_2 C41_4 1_555 1_555
N3_4 C5_4 1_555 1_555
N4_4 C30_4 1_555 1_555
O1_4 C25_4 1_555 1_555
O2_4 C25_4 1_555 1_555
O9_2 C1_4 1_555 1_555
O10_2 C1_4 1_555 1_555
O5_4 C26_4 1_555 1_555
O6_4 C26_4 1_555 1_555
O11_2 C50_4 1_555 1_555
O12_2 C50_4 1_555 1_555
Co5_2 N2_2 1_555 1_555
C6_4 C7_4 1_555 1_555
C8_4 N3_4 1_555 1_555
C19_4 N3_4 1_555 1_555
C23_4 C24_4 1_555 1_555
C31_4 C32_4 1_555 1_555
C33_4 N4_4 1_555 1_555
C37_4 C38_4 1_555 1_555
C43_4 N2_2 1_555 1_555
C44_4 N4_4 1_555 1_555
C48_4 C49_4 1_555 1_555
Co7 O5_4 1_555 1_555
H6_4 C10_4 1_555 1_555
C11_4 C10_4 1_555 1_555
C12_4 C11_4 1_555 1_555
H7_4 C12_4 1_555 1_555
H8_4 C13_4 1_555 1_555
C14_4 C11_4 1_555 1_555
C15_4 C14_4 1_555 1_555
H9_4 C15_4 1_555 1_555
C16_4 C15_4 1_555 1_555
H10_4 C16_4 1_555 1_555
C17_4 H11_4 1_555 1_555
C18_4 C14_4 1_555 1_555
H12_4 C18_4 1_555 1_555
N5_2 C16_4 1_555 1_555
C12_4 C13_4 1_555 1_555
C17_4 C18_4 1_555 1_555
C17_4 N5_2 1_555 1_555

#END
