
###############################################################################
#
# This file contains modified crystal structure data generated from the
# MOF subset of the Cambridge Structural Database (CSD) v543 
# hosted by the Cambridge Crystallographic Data Centre (CCDC).
#
# This work is licensed under the Creative Commons
# Attribution-NonCommercial-ShareAlike 4.0 International License.
# To view a copy of this license, visit
# http://creativecommons.org/licenses/by-nc-sa/4.0/
# or send a letter to
# Creative Commons, PO Box 1866, Mountain View, CA 94042, USA.
#
# CIF created using the CSD Python API on 29 September 2022
# The structure has been converted into the P1 space group
# The structure has a 3D framework
# The original CSD entry TOHVAP is in the orthorhombic crystal system
# The original CSD entry TOHVAP is in a Sohncke space group
# The framework has been calculated to contain at least 10.0% void space
# The void calculation uses a probe of radius 1.32A, grid spacing 0.4
#
###############################################################################

data_TOHVAP
_chemical_formula_moiety         '(C280 H272 N32 O40 Zn8)n'
_symmetry_cell_setting           triclinic
_symmetry_space_group_name_H-M   'P 1'
_symmetry_Int_Tables_number      1
_space_group_name_Hall           'P 1'
loop_
_symmetry_equiv_pos_site_id
_symmetry_equiv_pos_as_xyz
1 x,y,z
_cell_length_a                   20.9357(8)
_cell_length_b                   26.7045(11)
_cell_length_c                   12.3348(5)
_cell_angle_alpha                90
_cell_angle_beta                 90
_cell_angle_gamma                90
_cell_volume                     6896.11
loop_
_atom_site_label
_atom_site_type_symbol
_atom_site_fract_x
_atom_site_fract_y
_atom_site_fract_z
N2 N 0.4012(4) 0.5800(4) 0.0652(7)
N7 N 0.0711(3) 0.6904(3) 0.5270(6)
N8 N 0.1233(4) 0.6654(4) 0.3856(7)
H44 H 0.3122 0.5787 0.0044
C53 C 0.4563(6) 0.5643(5) 0.0174(10)
C54 C 0.5204(6) 0.5688(7) 0.0666(12)
H45 H 0.5518 0.5561 0.0171
H46 H 0.5217 0.5499 0.1327
H47 H 0.5292 0.6034 0.0820
C55 C 0.3970(6) 0.6014(6) 0.1802(11)
H48 H 0.4125 0.5769 0.2319
H49 H 0.4234 0.6311 0.1858
C56 C 0.3297(5) 0.6142(5) 0.2052(9)
C57 C 0.2905(7) 0.5765(4) 0.2371(9)
C58 C 0.2263(7) 0.5878(5) 0.2623(9)
C59 C 0.2066(5) 0.6361(5) 0.2512(8)
C60 C 0.2467(6) 0.6733(3) 0.2212(8)
C61 C 0.3099(5) 0.6625(4) 0.2003(8)
C62 C 0.3155(8) 0.5235(4) 0.2508(14)
H50 H 0.3312 0.5114 0.1825
H51 H 0.2815 0.5022 0.2754
H52 H 0.3494 0.5233 0.3031
C63 C 0.1785(8) 0.5493(6) 0.2982(16)
H53 H 0.1475 0.5647 0.3448
H54 H 0.2000 0.5230 0.3368
H55 H 0.1574 0.5355 0.2358
C64 C 0.2228(8) 0.7283(4) 0.2101(13)
H56 H 0.2359 0.7472 0.2724
H57 H 0.1771 0.7286 0.2051
H58 H 0.2407 0.7430 0.1459
C65 C 0.3545(8) 0.7051(5) 0.1656(12)
H59 H 0.3297 0.7319 0.1354
H60 H 0.3840 0.6929 0.1121
H61 H 0.3777 0.7171 0.2275
C66 C 0.1348(6) 0.6491(6) 0.2737(12)
H62 H 0.1216 0.6755 0.2246
H63 H 0.1088 0.6199 0.2587
C67 C 0.1674(5) 0.6763(5) 0.4644(9)
H64 H 0.2116 0.6732 0.4586
C68 C 0.1355(4) 0.6919(4) 0.5493(8)
H65 H 0.1536 0.7024 0.6143
C69 C 0.0664(5) 0.6733(4) 0.4281(8)
C70 C 0.0038(6) 0.6650(5) 0.3706(9)
H67 H 0.0072 0.6362 0.3243
Zn6 Zn 0.00403(5) 0.72133(4) 0.62013(7)
C71 C 0.0748(5) 0.7632(4) 0.7858(10)
C72 C 0.1129(4) 0.8024(3) 0.8419(9)
C73 C 0.1330(4) 0.7949(4) 0.9483(8)
H69 H 0.1224 0.7654 0.9844
C74 C 0.1677(4) 0.8304(4) 0.9987(8)
C75 C 0.1862(4) 0.8745(3) 0.9472(8)
C76 C 0.1663(4) 0.8821(3) 0.8432(9)
H71 H 0.1776 0.9115 0.8078
C77 C 0.1297(4) 0.8471(3) 0.7893(8)
H72 H 0.1163 0.8531 0.7186
O13 O 0.0713(4) 0.7209(3) 0.8227(8)
O14 O 0.0496(3) 0.7752(3) 0.6983(6)
O15 O 0.2154(4) 0.9573(3) 0.9860(7)
C19 C 0.0203(5) 0.8209(5) 0.4447(12)
H11 H 0.0520 0.8009 0.4805
H12 H 0.0201 0.8539 0.4755
H13 H 0.0301 0.8230 0.3688
Zn2 Zn -0.0000 0.5000 0.07853(11)
Zn3 Zn 0.5000 0.5000 0.83042(13)
N1 N 0.4433(4) 0.5413(4) 0.9268(7)
C36 C 0.0620(6) 0.4119(6) 0.1634(9)
C37 C 0.1121(5) 0.3933(4) 0.2347(9)
C38 C 0.1318(5) 0.4174(4) 0.3252(9)
H35 H 0.1135 0.4481 0.3421
C39 C 0.1787(4) 0.3977(4) 0.3950(9)
H36 H 0.1900 0.4148 0.4579
C40 C 0.2074(5) 0.3535(4) 0.3693(12)
C41 C 0.1859(6) 0.3285(5) 0.2730(13)
H37 H 0.2055 0.2986 0.2537
C42 C 0.1392(7) 0.3459(5) 0.2100(12)
H38 H 0.1246 0.3274 0.1511
C43 C 0.2539(6) 0.3319(4) 0.4331(13)
C44 C 0.2946(3) 0.3588(3) 0.5045(6)
C45 C 0.3078(4) 0.3335(3) 0.6003(8)
H39 H 0.2915 0.3015 0.6116
C46 C 0.3454(4) 0.3560(4) 0.6794(6)
H40 H 0.3543 0.3390 0.7436
C47 C 0.3698(3) 0.4038(4) 0.6627(6)
C48 C 0.3566(4) 0.4291(2) 0.5668(7)
H41 H 0.3729 0.4611 0.5556
C49 C 0.3190(4) 0.4066(3) 0.4877(6)
H42 H 0.3101 0.4236 0.4236
C50 C 0.4128(9) 0.4301(8) 0.7466(16)
C51 C 0.3802(5) 0.5466(3) 0.9103(8)
H43 H 0.3578 0.5356 0.8497
C52 C 0.3551(5) 0.5703(4) 0.9956(9)
O6 O 0.0350(6) 0.3869(4) 0.0986(8)
O7 O 0.0493(4) 0.4585(4) 0.1769(6)
O8 O 0.4373(5) 0.4702(4) 0.7218(10)
O9 O 0.4268(9) 0.3979(7) 0.8277(12)
O10 O 0.2649(5) 0.2854(4) 0.4198(10)
C103 C 0.1349(4) 0.5170(3) 0.0014(8)
H99 H 0.1521 0.4959 0.0537
N17 N 0.5567(4) 0.4587(4) 0.9268(7)
O23 O 0.5627(5) 0.5298(4) 0.7218(10)
Zn2_2 Zn 1.0000 0.5000 0.07853(11)
C33 C 0.8651(4) 0.4830(3) 0.0014(8)
H31 H 0.8479 0.5041 0.0537
C106 C 0.9380(6) 0.5881(6) 0.1634(9)
C107 C 0.8879(5) 0.6067(4) 0.2347(9)
C108 C 0.8682(5) 0.5826(4) 0.3252(9)
H103 H 0.8865 0.5519 0.3421
C109 C 0.8213(4) 0.6023(4) 0.3950(9)
H104 H 0.8100 0.5852 0.4579
C110 C 0.7926(5) 0.6465(4) 0.3693(12)
C111 C 0.8141(6) 0.6715(5) 0.2730(13)
H105 H 0.7945 0.7014 0.2537
C112 C 0.8608(7) 0.6541(5) 0.2100(12)
H106 H 0.8754 0.6726 0.1511
C113 C 0.7461(6) 0.6681(4) 0.4331(13)
C114 C 0.7054(3) 0.6412(3) 0.5045(6)
C115 C 0.6922(4) 0.6665(3) 0.6003(8)
H107 H 0.7085 0.6985 0.6116
C116 C 0.6546(4) 0.6440(4) 0.6794(6)
H108 H 0.6457 0.6610 0.7436
C117 C 0.6302(3) 0.5962(4) 0.6627(6)
C118 C 0.6434(4) 0.5709(2) 0.5668(7)
H109 H 0.6271 0.5389 0.5556
C119 C 0.6810(4) 0.5934(3) 0.4877(6)
H110 H 0.6899 0.5764 0.4236
C120 C 0.5872(9) 0.5699(8) 0.7466(16)
O16 O 0.9650(6) 0.6131(4) 0.0986(8)
O17 O 0.9507(4) 0.5415(4) 0.1769(6)
O19 O 0.5732(9) 0.6021(7) 0.8277(12)
O20 O 0.7351(5) 0.7146(4) 0.4198(10)
N13 N 0.0567(4) 0.0413(4) 0.0732(7)
C121 C 0.1198(5) 0.0466(3) 0.0897(8)
H111 H 0.1422 0.0356 0.1503
C122 C 0.1449(5) 0.0703(4) 0.0044(9)
Zn9 Zn 0.0000 -0.0000 0.16958(13)
Zn9_2 Zn 0.0000 1.0000 0.16958(13)
Zn9_3 Zn 1.0000 -0.0000 0.16958(13)
Zn9_4 Zn 1.0000 1.0000 0.16958(13)
N13_2 N 0.9433(4) 0.9587(4) 0.0732(7)
C121_2 C 0.8802(5) 0.9534(3) 0.0897(8)
H111_2 H 0.8578 0.9644 0.1503
C122_2 C 0.8551(5) 0.9297(4) 0.0044(9)
C51_2 C 0.6198(5) 0.4534(3) 0.9103(8)
H43_2 H 0.6422 0.4644 0.8497
C52_2 C 0.6449(5) 0.4297(4) 0.9956(9)
Zn2_3 Zn 0.5000 0.0000 0.92147(11)
H31_2 H 0.6521 0.0041 0.9463
C103_2 C 0.3651(4) 0.0170(3) 0.9986(8)
C106_2 C 0.5620(6) 0.0881(6) 0.8366(9)
C107_2 C 0.6121(5) 0.1067(4) 0.7653(9)
C108_2 C 0.6318(5) 0.0826(4) 0.6748(9)
H103_2 H 0.6135 0.0519 0.6579
C109_2 C 0.6787(4) 0.1023(4) 0.6050(9)
H104_2 H 0.6900 0.0852 0.5421
C110_2 C 0.7074(5) 0.1465(4) 0.6307(12)
C111_2 C 0.6859(6) 0.1715(5) 0.7270(13)
H105_2 H 0.7055 0.2014 0.7463
C112_2 C 0.6392(7) 0.1541(5) 0.7900(12)
H106_2 H 0.6246 0.1726 0.8489
C113_2 C 0.7539(6) 0.1681(4) 0.5669(13)
C114_2 C 0.7946(3) 0.1412(3) 0.4955(6)
C115_2 C 0.8078(4) 0.1665(3) 0.3997(8)
H107_2 H 0.7915 0.1985 0.3884
C116_2 C 0.8454(4) 0.1440(4) 0.3206(6)
H108_2 H 0.8543 0.1610 0.2564
C117_2 C 0.8698(3) 0.0962(4) 0.3373(6)
C118_2 C 0.8566(4) 0.0709(2) 0.4332(7)
H109_2 H 0.8729 0.0389 0.4444
C119_2 C 0.8190(4) 0.0934(3) 0.5123(6)
H110_2 H 0.8101 0.0764 0.5764
C120_2 C 0.9128(9) 0.0699(8) 0.2534(16)
O16_2 O 0.5350(6) 0.1131(4) 0.9014(8)
O17_2 O 0.5493(4) 0.0415(4) 0.8231(6)
O18 O 0.9373(5) 0.0298(4) 0.2782(10)
O19_2 O 0.9268(9) 0.1021(7) 0.1723(12)
O20_2 O 0.7649(5) 0.2146(4) 0.5802(10)
Zn2_4 Zn 0.5000 1.0000 0.92147(11)
C33_2 C 0.6349(4) 0.9830(3) 0.9986(8)
C36_2 C 0.4380(6) 0.9119(6) 0.8366(9)
C37_2 C 0.3879(5) 0.8933(4) 0.7653(9)
C38_2 C 0.3682(5) 0.9174(4) 0.6748(9)
H35_2 H 0.3865 0.9481 0.6579
C39_2 C 0.3213(4) 0.8977(4) 0.6050(9)
H36_2 H 0.3100 0.9148 0.5421
C40_2 C 0.2926(5) 0.8535(4) 0.6307(12)
C41_2 C 0.3141(6) 0.8285(5) 0.7270(13)
H37_2 H 0.2945 0.7986 0.7463
C42_2 C 0.3608(7) 0.8459(5) 0.7900(12)
H38_2 H 0.3754 0.8274 0.8489
C43_2 C 0.2461(6) 0.8319(4) 0.5669(13)
C44_2 C 0.2054(3) 0.8588(3) 0.4955(6)
C45_2 C 0.1922(4) 0.8335(3) 0.3997(8)
H39_2 H 0.2085 0.8015 0.3884
C46_2 C 0.1546(4) 0.8560(4) 0.3206(6)
H40_2 H 0.1457 0.8390 0.2564
C47_2 C 0.1302(3) 0.9038(4) 0.3373(6)
C48_2 C 0.1434(4) 0.9291(2) 0.4332(7)
H41_2 H 0.1271 0.9611 0.4444
C49_2 C 0.1810(4) 0.9066(3) 0.5123(6)
H42_2 H 0.1899 0.9236 0.5764
C50_2 C 0.0872(9) 0.9301(8) 0.2534(16)
O6_2 O 0.4650(6) 0.8869(4) 0.9014(8)
O7_2 O 0.4507(4) 0.9585(4) 0.8231(6)
O8_2 O 0.0627(5) 0.9702(4) 0.2782(10)
O9_2 O 0.0732(9) 0.8979(7) 0.1723(12)
O10_2 O 0.2351(5) 0.7854(4) 0.5802(10)
H99_2 H 0.3479 0.9959 0.9463
H32 H 0.0299 0.4349 0.8919
Zn4 Zn 0.50403(5) 0.77867(4) 0.37987(7)
N9 N 0.0703(3) 0.5268(3) 0.9870(6)
N10 N 0.1242(4) 0.5703(3) 0.8677(7)
N11 N 0.4440(3) 0.7389(3) 0.4752(7)
N12 N 0.4039(3) 0.6848(3) 0.5871(6)
H70 H 0.1798 0.8253 0.0704
C78 C 0.2234(4) 0.9131(4) 0.0078(8)
C79 C 0.2715(4) 0.8981(3) 0.0876(7)
C80 C 0.2814(4) 0.9249(3) 0.1824(8)
H73 H 0.2567 0.9531 0.1965
C81 C 0.3261(5) 0.9108(4) 0.2541(8)
H74 H 0.3313 0.9294 0.3173
C82 C 0.3650(4) 0.8695(3) 0.2372(7)
C83 C 0.3556(4) 0.8431(3) 0.1445(8)
H75 H 0.3815 0.8156 0.1298
C84 C 0.3082(4) 0.8562(3) 0.0710(8)
H76 H 0.3014 0.8365 0.0100
C85 C 0.4151(4) 0.8547(4) 0.3157(9)
C86 C 0.3787(4) 0.7471(3) 0.4845(9)
H77 H 0.3557 0.7718 0.4485
C87 C 0.3547(4) 0.7144(4) 0.5519(8)
H78 H 0.3121 0.7117 0.5724
C88 C 0.4566(4) 0.7023(4) 0.5409(9)
C89 C 0.5203(5) 0.6791(5) 0.5553(12)
H79 H 0.5520 0.6991 0.5195
H80 H 0.5201 0.6461 0.5245
H81 H 0.5301 0.6770 0.6312
C90 C 0.3998(5) 0.6426(4) 0.6650(10)
H82 H 0.4165 0.6125 0.6313
H83 H 0.4260 0.6500 0.7279
C91 C 0.3335(5) 0.6334(4) 0.7004(9)
C92 C 0.2974(6) 0.5990(4) 0.6429(8)
C93 C 0.2363(6) 0.5870(4) 0.6734(8)
C94 C 0.2090(5) 0.6130(4) 0.7571(9)
C95 C 0.2429(5) 0.6476(4) 0.8214(8)
C96 C 0.3074(4) 0.6583(3) 0.7896(8)
C97 C 0.3447(6) 0.6958(4) 0.8505(10)
H84 H 0.3165 0.7149 0.8960
H85 H 0.3659 0.7178 0.8006
H86 H 0.3759 0.6791 0.8946
C98 C 0.2144(6) 0.6722(5) 0.9153(10)
H87 H 0.2104 0.7074 0.9012
H88 H 0.2412 0.6672 0.9776
H89 H 0.1729 0.6582 0.9289
C99 C 0.2006(8) 0.5451(5) 0.6144(12)
H90 H 0.1571 0.5442 0.6389
H91 H 0.2208 0.5136 0.6297
H92 H 0.2016 0.5512 0.5378
C100 C 0.3278(8) 0.5731(6) 0.5394(11)
H93 H 0.3367 0.5981 0.4855
H94 H 0.2983 0.5490 0.5104
H95 H 0.3667 0.5566 0.5594
C101 C 0.1379(5) 0.6053(5) 0.7793(10)
H96 H 0.1189 0.6375 0.7966
H97 H 0.1177 0.5931 0.7137
C102 C 0.1683(4) 0.5429(4) 0.9280(9)
H98 H 0.2125 0.5427 0.9190
C104 C 0.0664(4) 0.5598(4) 0.9075(8)
C105 C 0.0065(5) 0.5814(4) 0.8605(8)
H101 H 0.0063 0.5765 0.7834
H102 H 0.0047 0.6166 0.8761
O11 O 0.4245(4) 0.8769(3) 0.3991(7)
O12 O 0.4452(3) 0.8136(3) 0.2896(6)
N18 N 0.5711(3) 0.8096(3) 0.4730(6)
O21 O 0.5496(3) 0.7248(3) 0.3017(6)
N14 N 0.9012(4) 0.9200(4) 0.9348(7)
N16 N 0.6233(4) 0.8346(4) 0.6144(7)
H112 H 0.8122 0.9213 0.9956
C123 C 0.9563(6) 0.9357(5) 0.9826(10)
C125 C 0.8970(6) 0.8986(6) 0.8198(11)
H116 H 0.9125 0.9231 0.7681
H117 H 0.9234 0.8689 0.8142
C126 C 0.8297(5) 0.8858(5) 0.7948(9)
C127 C 0.7905(7) 0.9235(4) 0.7629(9)
C128 C 0.7263(7) 0.9122(5) 0.7377(9)
C129 C 0.7066(5) 0.8639(5) 0.7488(8)
C130 C 0.7467(6) 0.8267(3) 0.7788(8)
C131 C 0.8099(5) 0.8375(4) 0.7997(8)
C132 C 0.8155(8) 0.9765(4) 0.7492(14)
H118 H 0.8312 0.9886 0.8175
H119 H 0.7815 0.9978 0.7246
H120 H 0.8494 0.9767 0.6969
C133 C 0.6785(8) 0.9507(6) 0.7018(16)
H121 H 0.6475 0.9353 0.6552
H122 H 0.7000 0.9770 0.6632
H123 H 0.6574 0.9645 0.7642
C134 C 0.7228(8) 0.7717(4) 0.7899(13)
H124 H 0.7359 0.7528 0.7276
H125 H 0.6771 0.7714 0.7949
H126 H 0.7407 0.7570 0.8541
C135 C 0.8545(8) 0.7949(5) 0.8344(12)
H127 H 0.8297 0.7681 0.8646
H128 H 0.8840 0.8071 0.8879
H129 H 0.8777 0.7829 0.7725
C136 C 0.6348(6) 0.8509(6) 0.7263(12)
H130 H 0.6216 0.8245 0.7754
H131 H 0.6088 0.8801 0.7413
C137 C 0.6674(5) 0.8237(5) 0.5356(9)
H132 H 0.7116 0.8268 0.5414
C138 C 0.6355(4) 0.8081(4) 0.4507(8)
H133 H 0.6536 0.7976 0.3857
C139 C 0.5664(5) 0.8267(4) 0.5719(8)
C140 C 0.5038(6) 0.8350(5) 0.6294(9)
H134 H 0.4707 0.8405 0.5769
H135 H 0.5072 0.8638 0.6757
H136 H 0.4936 0.8061 0.6723
C1 C 0.5748(5) 0.7368(4) 0.2142(10)
C2 C 0.6129(4) 0.6976(3) 0.1581(9)
C3 C 0.6330(4) 0.7051(4) 0.0517(8)
H1 H 0.6224 0.7346 0.0156
C4 C 0.6677(4) 0.6696(4) 0.0013(8)
C5 C 0.6862(4) 0.6255(3) 0.0528(8)
C6 C 0.6663(4) 0.6179(3) 0.1568(9)
H3 H 0.6776 0.5885 0.1922
C7 C 0.6297(4) 0.6529(3) 0.2107(8)
H4 H 0.6163 0.6469 0.2814
O3 O 0.5713(4) 0.7791(3) 0.1773(8)
O5 O 0.7154(4) 0.5427(3) 0.0140(7)
H66 H 0.9707 0.6595 0.4231
H68 H 0.9936 0.6939 0.3277
N3 N 0.5703(3) 0.9732(3) 0.0130(6)
N4 N 0.6242(4) 0.9297(3) 0.1323(7)
N5 N 0.9440(3) 0.7611(3) 0.5248(7)
N6 N 0.9039(3) 0.8152(3) 0.4129(6)
H2 H 0.6798 0.6747 0.9296
C8 C 0.7234(4) 0.5869(4) 0.9922(8)
C9 C 0.7715(4) 0.6019(3) 0.9124(7)
C10 C 0.7814(4) 0.5751(3) 0.8176(8)
H5 H 0.7567 0.5469 0.8035
C11 C 0.8261(5) 0.5892(4) 0.7459(8)
H6 H 0.8313 0.5706 0.6827
C12 C 0.8650(4) 0.6305(3) 0.7628(7)
C13 C 0.8556(4) 0.6569(3) 0.8555(8)
H7 H 0.8815 0.6844 0.8702
C14 C 0.8082(4) 0.6438(3) 0.9290(8)
H8 H 0.8014 0.6635 0.9900
C15 C 0.9151(4) 0.6453(4) 0.6843(9)
C16 C 0.8787(4) 0.7529(3) 0.5155(9)
H9 H 0.8557 0.7282 0.5515
C17 C 0.8547(4) 0.7856(4) 0.4481(8)
H10 H 0.8121 0.7883 0.4276
C18 C 0.9566(4) 0.7977(4) 0.4591(9)
C20 C 0.8998(5) 0.8574(4) 0.3350(10)
H14 H 0.9165 0.8875 0.3687
H15 H 0.9260 0.8500 0.2721
C21 C 0.8335(5) 0.8666(4) 0.2996(9)
C22 C 0.7974(6) 0.9010(4) 0.3571(8)
C23 C 0.7363(6) 0.9130(4) 0.3266(8)
C24 C 0.7090(5) 0.8870(4) 0.2429(9)
C25 C 0.7429(5) 0.8524(4) 0.1786(8)
C26 C 0.8074(4) 0.8417(3) 0.2104(8)
C27 C 0.8447(6) 0.8042(4) 0.1495(10)
H16 H 0.8165 0.7851 0.1040
H17 H 0.8659 0.7822 0.1994
H18 H 0.8759 0.8209 0.1054
C28 C 0.7144(6) 0.8278(5) 0.0847(10)
H19 H 0.7104 0.7926 0.0988
H20 H 0.7412 0.8328 0.0224
H21 H 0.6729 0.8418 0.0711
C29 C 0.7006(8) 0.9549(5) 0.3856(12)
H22 H 0.6571 0.9558 0.3611
H23 H 0.7208 0.9864 0.3703
H24 H 0.7016 0.9488 0.4622
C30 C 0.8278(8) 0.9269(6) 0.4606(11)
H25 H 0.8367 0.9019 0.5145
H26 H 0.7983 0.9510 0.4896
H27 H 0.8667 0.9434 0.4406
C31 C 0.6379(5) 0.8947(5) 0.2207(10)
H28 H 0.6189 0.8625 0.2034
H29 H 0.6177 0.9069 0.2863
C32 C 0.6683(4) 0.9571(4) 0.0720(9)
H30 H 0.7125 0.9573 0.0810
C34 C 0.5664(4) 0.9402(4) 0.0925(8)
C35 C 0.5065(5) 0.9186(4) 0.1395(8)
H32_2 H 0.4701 0.9349 0.1081
H33 H 0.5063 0.9235 0.2166
H34 H 0.5047 0.8834 0.1239
O1 O 0.9245(4) 0.6231(3) 0.6009(7)
O2 O 0.9452(3) 0.6864(3) 0.7104(6)
Zn1 Zn 0.49597(5) 0.22133(4) 0.37987(7)
N3_2 N 0.9297(3) 0.4732(3) 0.9870(6)
N4_2 N 0.8758(4) 0.4297(3) 0.8677(7)
N5_2 N 0.5560(3) 0.2611(3) 0.4752(7)
N6_2 N 0.5961(3) 0.3152(3) 0.5871(6)
H2_2 H 0.8202 0.1747 0.0704
C8_2 C 0.7766(4) 0.0869(4) 0.0078(8)
C9_2 C 0.7285(4) 0.1019(3) 0.0876(7)
C10_2 C 0.7186(4) 0.0751(3) 0.1824(8)
H5_2 H 0.7433 0.0469 0.1965
C11_2 C 0.6739(5) 0.0892(4) 0.2541(8)
H6_2 H 0.6687 0.0706 0.3173
C12_2 C 0.6350(4) 0.1305(3) 0.2372(7)
C13_2 C 0.6444(4) 0.1569(3) 0.1445(8)
H7_2 H 0.6185 0.1844 0.1298
C14_2 C 0.6918(4) 0.1438(3) 0.0710(8)
H8_2 H 0.6986 0.1635 0.0100
C15_2 C 0.5849(4) 0.1453(4) 0.3157(9)
C16_2 C 0.6213(4) 0.2529(3) 0.4845(9)
H9_2 H 0.6443 0.2282 0.4485
C17_2 C 0.6453(4) 0.2856(4) 0.5519(8)
H10_2 H 0.6879 0.2883 0.5724
C18_2 C 0.5434(4) 0.2977(4) 0.5409(9)
C19_2 C 0.4797(5) 0.3209(5) 0.5553(12)
H11_2 H 0.4480 0.3009 0.5195
H12_2 H 0.4799 0.3539 0.5245
H13_2 H 0.4699 0.3230 0.6312
C20_2 C 0.6002(5) 0.3574(4) 0.6650(10)
H14_2 H 0.5835 0.3875 0.6313
H15_2 H 0.5740 0.3500 0.7279
C21_2 C 0.6665(5) 0.3666(4) 0.7004(9)
C22_2 C 0.7026(6) 0.4010(4) 0.6429(8)
C23_2 C 0.7637(6) 0.4130(4) 0.6734(8)
C24_2 C 0.7910(5) 0.3870(4) 0.7571(9)
C25_2 C 0.7571(5) 0.3524(4) 0.8214(8)
C26_2 C 0.6926(4) 0.3417(3) 0.7896(8)
C27_2 C 0.6553(6) 0.3042(4) 0.8505(10)
H16_2 H 0.6835 0.2851 0.8960
H17_2 H 0.6341 0.2822 0.8006
H18_2 H 0.6241 0.3209 0.8946
C28_2 C 0.7856(6) 0.3278(5) 0.9153(10)
H19_2 H 0.7896 0.2926 0.9012
H20_2 H 0.7588 0.3328 0.9776
H21_2 H 0.8271 0.3418 0.9289
C29_2 C 0.7994(8) 0.4549(5) 0.6144(12)
H22_2 H 0.8429 0.4558 0.6389
H23_2 H 0.7792 0.4864 0.6297
H24_2 H 0.7984 0.4488 0.5378
C30_2 C 0.6722(8) 0.4269(6) 0.5394(11)
H25_2 H 0.6633 0.4019 0.4855
H26_2 H 0.7017 0.4510 0.5104
H27_2 H 0.6333 0.4434 0.5594
C31_2 C 0.8621(5) 0.3947(5) 0.7793(10)
H28_2 H 0.8811 0.3625 0.7966
H29_2 H 0.8823 0.4069 0.7137
C32_2 C 0.8317(4) 0.4571(4) 0.9280(9)
H30_2 H 0.7875 0.4573 0.9190
C34_2 C 0.9336(4) 0.4402(4) 0.9075(8)
C35_2 C 0.9935(5) 0.4186(4) 0.8605(8)
H33_2 H 0.9937 0.4235 0.7834
H34_2 H 0.9953 0.3834 0.8761
O1_2 O 0.5755(4) 0.1231(3) 0.3991(7)
O2_2 O 0.5548(3) 0.1864(3) 0.2896(6)
H100 H 0.9701 0.5651 0.8919
N14_2 N 0.0988(4) 0.0800(4) 0.9348(7)
N15 N 0.4289(3) 0.1904(3) 0.4730(6)
N16_2 N 0.3767(4) 0.1654(4) 0.6144(7)
H112_2 H 0.1878 0.0787 0.9956
C123_2 C 0.0437(6) 0.0643(5) 0.9826(10)
C125_2 C 0.1030(6) 0.1014(6) 0.8198(11)
H116_2 H 0.0875 0.0769 0.7681
H117_2 H 0.0766 0.1311 0.8142
C126_2 C 0.1703(5) 0.1142(5) 0.7948(9)
C127_2 C 0.2095(7) 0.0765(4) 0.7629(9)
C128_2 C 0.2737(7) 0.0878(5) 0.7377(9)
C129_2 C 0.2934(5) 0.1361(5) 0.7488(8)
C130_2 C 0.2533(6) 0.1733(3) 0.7788(8)
C131_2 C 0.1901(5) 0.1625(4) 0.7997(8)
C132_2 C 0.1845(8) 0.0235(4) 0.7492(14)
H118_2 H 0.1688 0.0114 0.8175
H119_2 H 0.2185 0.0022 0.7246
H120_2 H 0.1506 0.0233 0.6969
C133_2 C 0.3215(8) 0.0493(6) 0.7018(16)
H121_2 H 0.3525 0.0647 0.6552
H122_2 H 0.3000 0.0230 0.6632
H123_2 H 0.3426 0.0355 0.7642
C134_2 C 0.2772(8) 0.2283(4) 0.7899(13)
H124_2 H 0.2641 0.2472 0.7276
H125_2 H 0.3229 0.2286 0.7949
H126_2 H 0.2593 0.2430 0.8541
C135_2 C 0.1455(8) 0.2051(5) 0.8344(12)
H127_2 H 0.1703 0.2319 0.8646
H128_2 H 0.1160 0.1929 0.8879
H129_2 H 0.1223 0.2171 0.7725
C136_2 C 0.3652(6) 0.1491(6) 0.7263(12)
H130_2 H 0.3784 0.1755 0.7754
H131_2 H 0.3912 0.1199 0.7413
C137_2 C 0.3326(5) 0.1763(5) 0.5356(9)
H132_2 H 0.2884 0.1732 0.5414
C138_2 C 0.3645(4) 0.1919(4) 0.4507(8)
H133_2 H 0.3464 0.2024 0.3857
C139_2 C 0.4336(5) 0.1733(4) 0.5719(8)
C140_2 C 0.4962(6) 0.1650(5) 0.6294(9)
H134_2 H 0.5293 0.1595 0.5769
H135_2 H 0.4928 0.1362 0.6757
H136_2 H 0.5064 0.1939 0.6723
O22 O 0.4504(3) 0.2752(3) 0.3017(6)
C71_2 C 0.4252(5) 0.2632(4) 0.2142(10)
C72_2 C 0.3871(4) 0.3024(3) 0.1581(9)
C73_2 C 0.3670(4) 0.2949(4) 0.0517(8)
H69_2 H 0.3776 0.2654 0.0156
C74_2 C 0.3323(4) 0.3304(4) 0.0013(8)
C75_2 C 0.3138(4) 0.3745(3) 0.0528(8)
C76_2 C 0.3337(4) 0.3821(3) 0.1568(9)
H71_2 H 0.3224 0.4115 0.1922
C77_2 C 0.3703(4) 0.3471(3) 0.2107(8)
H72_2 H 0.3837 0.3531 0.2814
O13_2 O 0.4287(4) 0.2209(3) 0.1773(8)
O15_2 O 0.2846(4) 0.4573(3) 0.0140(7)
C1_2 C 0.9252(5) 0.2368(4) 0.7858(10)
C2_2 C 0.8871(4) 0.1976(3) 0.8419(9)
C3_2 C 0.8670(4) 0.2051(4) 0.9483(8)
H1_2 H 0.8776 0.2346 0.9844
C4_2 C 0.8323(4) 0.1696(4) 0.9987(8)
C5_2 C 0.8138(4) 0.1255(3) 0.9472(8)
C6_2 C 0.8337(4) 0.1179(3) 0.8432(9)
H3_2 H 0.8224 0.0885 0.8078
C7_2 C 0.8703(4) 0.1529(3) 0.7893(8)
H4_2 H 0.8837 0.1469 0.7186
O3_2 O 0.9287(4) 0.2791(3) 0.8227(8)
O4 O 0.9504(3) 0.2248(3) 0.6983(6)
O5_2 O 0.7846(4) 0.0427(3) 0.9860(7)
Zn7 Zn 0.99597(5) 0.27867(4) 0.62013(7)
N2_2 N 0.5988(4) 0.4200(4) 0.0652(7)
N7_2 N 0.9289(3) 0.3096(3) 0.5270(6)
N8_2 N 0.8767(4) 0.3346(4) 0.3856(7)
H44_2 H 0.6878 0.4213 0.0044
C53_2 C 0.5437(6) 0.4357(5) 0.0174(10)
C54_2 C 0.4796(6) 0.4312(7) 0.0666(12)
H45_2 H 0.4482 0.4439 0.0171
H46_2 H 0.4783 0.4501 0.1327
H47_2 H 0.4708 0.3966 0.0820
C55_2 C 0.6030(6) 0.3986(6) 0.1802(11)
H48_2 H 0.5875 0.4231 0.2319
H49_2 H 0.5766 0.3689 0.1858
C56_2 C 0.6703(5) 0.3858(5) 0.2052(9)
C57_2 C 0.7095(7) 0.4235(4) 0.2371(9)
C58_2 C 0.7737(7) 0.4122(5) 0.2623(9)
C59_2 C 0.7934(5) 0.3639(5) 0.2512(8)
C60_2 C 0.7533(6) 0.3267(3) 0.2212(8)
C61_2 C 0.6901(5) 0.3375(4) 0.2003(8)
C62_2 C 0.6845(8) 0.4765(4) 0.2508(14)
H50_2 H 0.6688 0.4886 0.1825
H51_2 H 0.7185 0.4978 0.2754
H52_2 H 0.6506 0.4767 0.3031
C63_2 C 0.8215(8) 0.4507(6) 0.2982(16)
H53_2 H 0.8525 0.4353 0.3448
H54_2 H 0.8000 0.4770 0.3368
H55_2 H 0.8426 0.4645 0.2358
C64_2 C 0.7772(8) 0.2717(4) 0.2101(13)
H56_2 H 0.7641 0.2528 0.2724
H57_2 H 0.8229 0.2714 0.2051
H58_2 H 0.7593 0.2570 0.1459
C65_2 C 0.6455(8) 0.2949(5) 0.1656(12)
H59_2 H 0.6703 0.2681 0.1354
H60_2 H 0.6160 0.3071 0.1121
H61_2 H 0.6223 0.2829 0.2275
C66_2 C 0.8652(6) 0.3509(6) 0.2737(12)
H62_2 H 0.8784 0.3245 0.2246
H63_2 H 0.8912 0.3801 0.2587
C67_2 C 0.8326(5) 0.3237(5) 0.4644(9)
H64_2 H 0.7884 0.3268 0.4586
C68_2 C 0.8645(4) 0.3081(4) 0.5493(8)
H65_2 H 0.8464 0.2976 0.6143
C69_2 C 0.9336(5) 0.3267(4) 0.4281(8)
C70_2 C 0.9962(6) 0.3350(5) 0.3706(9)
H67_2 H 0.9928 0.3638 0.3243
C89_2 C 0.9797(5) 0.1791(5) 0.4447(12)
H79_2 H 0.9480 0.1991 0.4805
H80_2 H 0.9799 0.1461 0.4755
H81_2 H 0.9699 0.1770 0.3688
C124 C 0.9796(6) 0.0688(7) 0.9334(12)
H113 H 0.9482 0.0561 0.9829
H114 H 0.9783 0.0499 0.8673
H115 H 0.9708 0.1034 0.9180
C124_2 C 0.0204(6) 0.9312(7) 0.9334(12)
H113_2 H 0.0518 0.9439 0.9829
H114_2 H 0.0217 0.9501 0.8673
H115_2 H 0.0292 0.8966 0.9180
H66_2 H 0.0293 0.3405 0.4231
H68_2 H 0.0064 0.3061 0.3277
N9_2 N 0.4297(3) 0.0268(3) 0.0130(6)
N10_2 N 0.3758(4) 0.0703(3) 0.1323(7)
N11_2 N 0.0560(3) 0.2389(3) 0.5248(7)
N12_2 N 0.0961(3) 0.1848(3) 0.4129(6)
H70_2 H 0.3202 0.3253 0.9296
C78_2 C 0.2766(4) 0.4131(4) 0.9922(8)
C79_2 C 0.2285(4) 0.3981(3) 0.9124(7)
C80_2 C 0.2186(4) 0.4249(3) 0.8176(8)
H73_2 H 0.2433 0.4531 0.8035
C81_2 C 0.1739(5) 0.4108(4) 0.7459(8)
H74_2 H 0.1687 0.4294 0.6827
C82_2 C 0.1350(4) 0.3695(3) 0.7628(7)
C83_2 C 0.1444(4) 0.3431(3) 0.8555(8)
H75_2 H 0.1185 0.3156 0.8702
C84_2 C 0.1918(4) 0.3562(3) 0.9290(8)
H76_2 H 0.1986 0.3365 0.9900
C85_2 C 0.0849(4) 0.3547(4) 0.6843(9)
C86_2 C 0.1213(4) 0.2471(3) 0.5155(9)
H77_2 H 0.1443 0.2718 0.5515
C87_2 C 0.1453(4) 0.2144(4) 0.4481(8)
H78_2 H 0.1879 0.2117 0.4276
C88_2 C 0.0434(4) 0.2023(4) 0.4591(9)
C90_2 C 0.1002(5) 0.1426(4) 0.3350(10)
H82_2 H 0.0835 0.1125 0.3687
H83_2 H 0.0740 0.1500 0.2721
C91_2 C 0.1665(5) 0.1334(4) 0.2996(9)
C92_2 C 0.2026(6) 0.0990(4) 0.3571(8)
C93_2 C 0.2637(6) 0.0870(4) 0.3266(8)
C94_2 C 0.2910(5) 0.1130(4) 0.2429(9)
C95_2 C 0.2571(5) 0.1476(4) 0.1786(8)
C96_2 C 0.1926(4) 0.1583(3) 0.2104(8)
C97_2 C 0.1553(6) 0.1958(4) 0.1495(10)
H84_2 H 0.1835 0.2149 0.1040
H85_2 H 0.1341 0.2178 0.1994
H86_2 H 0.1241 0.1791 0.1054
C98_2 C 0.2856(6) 0.1722(5) 0.0847(10)
H87_2 H 0.2896 0.2074 0.0988
H88_2 H 0.2588 0.1672 0.0224
H89_2 H 0.3271 0.1582 0.0711
C99_2 C 0.2994(8) 0.0451(5) 0.3856(12)
H90_2 H 0.3429 0.0442 0.3611
H91_2 H 0.2792 0.0136 0.3703
H92_2 H 0.2984 0.0512 0.4622
C100_2 C 0.1722(8) 0.0731(6) 0.4606(11)
H93_2 H 0.1633 0.0981 0.5145
H94_2 H 0.2017 0.0490 0.4896
H95_2 H 0.1333 0.0566 0.4406
C101_2 C 0.3621(5) 0.1053(5) 0.2207(10)
H96_2 H 0.3811 0.1375 0.2034
H97_2 H 0.3823 0.0931 0.2863
C102_2 C 0.3317(4) 0.0429(4) 0.0720(9)
H98_2 H 0.2875 0.0427 0.0810
C104_2 C 0.4336(4) 0.0598(4) 0.0925(8)
C105_2 C 0.4935(5) 0.0814(4) 0.1395(8)
H100_2 H 0.5299 0.0651 0.1081
H101_2 H 0.4937 0.0765 0.2166
H102_2 H 0.4953 0.1166 0.1239
O11_2 O 0.0755(4) 0.3769(3) 0.6009(7)
O12_2 O 0.0548(3) 0.3136(3) 0.7104(6)
loop_
_geom_bond_atom_site_label_1
_geom_bond_atom_site_label_2
_geom_bond_site_symmetry_1
_geom_bond_site_symmetry_2
N7 C68 1_555 1_555
N8 C66 1_555 1_555
C54 C53 1_555 1_555
H45 C54 1_555 1_555
H46 C54 1_555 1_555
H47 C54 1_555 1_555
C55 N2 1_555 1_555
H48 C55 1_555 1_555
H49 C55 1_555 1_555
C56 C55 1_555 1_555
C57 C56 1_555 1_555
C58 C57 1_555 1_555
C59 C58 1_555 1_555
C60 C59 1_555 1_555
C61 C56 1_555 1_555
C62 C57 1_555 1_555
H50 C62 1_555 1_555
H51 C62 1_555 1_555
H52 C62 1_555 1_555
C63 C58 1_555 1_555
H53 C63 1_555 1_555
H54 C63 1_555 1_555
H55 C63 1_555 1_555
C64 C60 1_555 1_555
H56 C64 1_555 1_555
H57 C64 1_555 1_555
H58 C64 1_555 1_555
C65 C61 1_555 1_555
H59 C65 1_555 1_555
H60 C65 1_555 1_555
H61 C65 1_555 1_555
C66 C59 1_555 1_555
H62 C66 1_555 1_555
H63 C66 1_555 1_555
C67 N8 1_555 1_555
H64 C67 1_555 1_555
C68 C67 1_555 1_555
H65 C68 1_555 1_555
C69 N7 1_555 1_555
C70 C69 1_555 1_555
H67 C70 1_555 1_555
Zn6 N7 1_555 1_555
N2 C53 1_555 1_555
N8 C69 1_555 1_555
C60 C61 1_555 1_555
C71 C72 1_555 1_555
C72 C73 1_555 1_555
C73 H69 1_555 1_555
C74 C73 1_555 1_555
C75 C74 1_555 1_555
C76 C75 1_555 1_555
H71 C76 1_555 1_555
C77 C72 1_555 1_555
H72 C77 1_555 1_555
O13 C71 1_555 1_555
O14 C71 1_555 1_555
Zn6 O14 1_555 1_555
C76 C77 1_555 1_555
H11 C19 1_555 1_555
H12 C19 1_555 1_555
H13 C19 1_555 1_555
Zn3 N1 1_555 1_555
N1 C51 1_555 1_555
C36 C37 1_555 1_555
C37 C38 1_555 1_555
C38 H35 1_555 1_555
C39 C38 1_555 1_555
H36 C39 1_555 1_555
C40 C39 1_555 1_555
C41 C40 1_555 1_555
H37 C41 1_555 1_555
C42 C37 1_555 1_555
H38 C42 1_555 1_555
C43 C40 1_555 1_555
C44 C43 1_555 1_555
C45 C44 1_555 1_555
H39 C45 1_555 1_555
C46 C45 1_555 1_555
H40 C46 1_555 1_555
C47 C46 1_555 1_555
C48 C47 1_555 1_555
H41 C48 1_555 1_555
C49 C44 1_555 1_555
H42 C49 1_555 1_555
C50 C47 1_555 1_555
C51 H43 1_555 1_555
C52 C51 1_555 1_555
O6 C36 1_555 1_555
O7 Zn2 1_555 1_555
O8 Zn3 1_555 1_555
O9 C50 1_555 1_555
O10 C43 1_555 1_555
H99 C103 1_555 1_555
N17 Zn3 1_555 1_555
O23 Zn3 1_555 1_555
C36 O7 1_555 1_555
C41 C42 1_555 1_555
C48 C49 1_555 1_555
C50 O8 1_555 1_555
H31 C33 1_555 1_555
C106 C107 1_555 1_555
C107 C108 1_555 1_555
C108 H103 1_555 1_555
C109 C108 1_555 1_555
H104 C109 1_555 1_555
C110 C109 1_555 1_555
C111 C110 1_555 1_555
H105 C111 1_555 1_555
C112 C107 1_555 1_555
H106 C112 1_555 1_555
C113 C110 1_555 1_555
C114 C113 1_555 1_555
C115 C114 1_555 1_555
H107 C115 1_555 1_555
C116 C115 1_555 1_555
H108 C116 1_555 1_555
C117 C116 1_555 1_555
C118 C117 1_555 1_555
H109 C118 1_555 1_555
C119 C114 1_555 1_555
H110 C119 1_555 1_555
C120 C117 1_555 1_555
O16 C106 1_555 1_555
O17 Zn2_2 1_555 1_555
O23 C120 1_555 1_555
O19 C120 1_555 1_555
O20 C113 1_555 1_555
N13 C121 1_555 1_555
C121 H111 1_555 1_555
C122 C121 1_555 1_555
Zn9 N13 1_555 1_555
C106 O17 1_555 1_555
C111 C112 1_555 1_555
C118 C119 1_555 1_555
N13_2 C121_2 1_555 1_555
C121_2 H111_2 1_555 1_555
C122_2 C121_2 1_555 1_555
Zn9_4 N13_2 1_555 1_555
N17 C51_2 1_555 1_555
C51_2 H43_2 1_555 1_555
C52_2 C51_2 1_555 1_555
C106_2 C107_2 1_555 1_555
C107_2 C108_2 1_555 1_555
C108_2 H103_2 1_555 1_555
C109_2 C108_2 1_555 1_555
H104_2 C109_2 1_555 1_555
C110_2 C109_2 1_555 1_555
C111_2 C110_2 1_555 1_555
H105_2 C111_2 1_555 1_555
C112_2 C107_2 1_555 1_555
H106_2 C112_2 1_555 1_555
C113_2 C110_2 1_555 1_555
C114_2 C113_2 1_555 1_555
C115_2 C114_2 1_555 1_555
H107_2 C115_2 1_555 1_555
C116_2 C115_2 1_555 1_555
H108_2 C116_2 1_555 1_555
C117_2 C116_2 1_555 1_555
C118_2 C117_2 1_555 1_555
H109_2 C118_2 1_555 1_555
C119_2 C114_2 1_555 1_555
H110_2 C119_2 1_555 1_555
C120_2 C117_2 1_555 1_555
O16_2 C106_2 1_555 1_555
O17_2 Zn2_3 1_555 1_555
O18 C120_2 1_555 1_555
O19_2 C120_2 1_555 1_555
O20_2 C113_2 1_555 1_555
Zn9_3 O18 1_555 1_555
C106_2 O17_2 1_555 1_555
C111_2 C112_2 1_555 1_555
C118_2 C119_2 1_555 1_555
C36_2 C37_2 1_555 1_555
C37_2 C38_2 1_555 1_555
C38_2 H35_2 1_555 1_555
C39_2 C38_2 1_555 1_555
H36_2 C39_2 1_555 1_555
C40_2 C39_2 1_555 1_555
C41_2 C40_2 1_555 1_555
H37_2 C41_2 1_555 1_555
C42_2 C37_2 1_555 1_555
H38_2 C42_2 1_555 1_555
C43_2 C40_2 1_555 1_555
C44_2 C43_2 1_555 1_555
C45_2 C44_2 1_555 1_555
H39_2 C45_2 1_555 1_555
C46_2 C45_2 1_555 1_555
H40_2 C46_2 1_555 1_555
C47_2 C46_2 1_555 1_555
C48_2 C47_2 1_555 1_555
H41_2 C48_2 1_555 1_555
C49_2 C44_2 1_555 1_555
H42_2 C49_2 1_555 1_555
C50_2 C47_2 1_555 1_555
O6_2 C36_2 1_555 1_555
O7_2 Zn2_4 1_555 1_555
O8_2 Zn9_2 1_555 1_555
O9_2 C50_2 1_555 1_555
O10_2 C43_2 1_555 1_555
C36_2 O7_2 1_555 1_555
C41_2 C42_2 1_555 1_555
C48_2 C49_2 1_555 1_555
C50_2 O8_2 1_555 1_555
Zn4 N11 1_555 1_555
N10 C101 1_555 1_555
N11 C86 1_555 1_555
N12 C87 1_555 1_555
C79 C78 1_555 1_555
C80 C79 1_555 1_555
H73 C80 1_555 1_555
C81 C80 1_555 1_555
H74 C81 1_555 1_555
C82 C81 1_555 1_555
C83 C82 1_555 1_555
H75 C83 1_555 1_555
C84 C79 1_555 1_555
H76 C84 1_555 1_555
C85 C82 1_555 1_555
C86 H77 1_555 1_555
C87 C86 1_555 1_555
H78 C87 1_555 1_555
C88 N11 1_555 1_555
C89 C88 1_555 1_555
H79 C89 1_555 1_555
H80 C89 1_555 1_555
H81 C89 1_555 1_555
C90 N12 1_555 1_555
H82 C90 1_555 1_555
H83 C90 1_555 1_555
C91 C90 1_555 1_555
C92 C91 1_555 1_555
C93 C92 1_555 1_555
C94 C93 1_555 1_555
C95 C94 1_555 1_555
C96 C91 1_555 1_555
C97 C96 1_555 1_555
H84 C97 1_555 1_555
H85 C97 1_555 1_555
H86 C97 1_555 1_555
C98 C95 1_555 1_555
H87 C98 1_555 1_555
H88 C98 1_555 1_555
H89 C98 1_555 1_555
C99 C93 1_555 1_555
H90 C99 1_555 1_555
H91 C99 1_555 1_555
H92 C99 1_555 1_555
C100 C92 1_555 1_555
H93 C100 1_555 1_555
H94 C100 1_555 1_555
H95 C100 1_555 1_555
C101 C94 1_555 1_555
H96 C101 1_555 1_555
H97 C101 1_555 1_555
C102 N10 1_555 1_555
H98 C102 1_555 1_555
C104 N9 1_555 1_555
C105 C104 1_555 1_555
H101 C105 1_555 1_555
H102 C105 1_555 1_555
O11 C85 1_555 1_555
O12 Zn4 1_555 1_555
N18 Zn4 1_555 1_555
O21 Zn4 1_555 1_555
N10 C104 1_555 1_555
N12 C88 1_555 1_555
C83 C84 1_555 1_555
C85 O12 1_555 1_555
C95 C96 1_555 1_555
N16 C136 1_555 1_555
C125 N14 1_555 1_555
H116 C125 1_555 1_555
H117 C125 1_555 1_555
C126 C125 1_555 1_555
C127 C126 1_555 1_555
C128 C127 1_555 1_555
C129 C128 1_555 1_555
C130 C129 1_555 1_555
C131 C126 1_555 1_555
C132 C127 1_555 1_555
H118 C132 1_555 1_555
H119 C132 1_555 1_555
H120 C132 1_555 1_555
C133 C128 1_555 1_555
H121 C133 1_555 1_555
H122 C133 1_555 1_555
H123 C133 1_555 1_555
C134 C130 1_555 1_555
H124 C134 1_555 1_555
H125 C134 1_555 1_555
H126 C134 1_555 1_555
C135 C131 1_555 1_555
H127 C135 1_555 1_555
H128 C135 1_555 1_555
H129 C135 1_555 1_555
C136 C129 1_555 1_555
H130 C136 1_555 1_555
H131 C136 1_555 1_555
C137 N16 1_555 1_555
H132 C137 1_555 1_555
C138 N18 1_555 1_555
H133 C138 1_555 1_555
C139 N18 1_555 1_555
C140 C139 1_555 1_555
H134 C140 1_555 1_555
H135 C140 1_555 1_555
H136 C140 1_555 1_555
N14 C123 1_555 1_555
N16 C139 1_555 1_555
C130 C131 1_555 1_555
C137 C138 1_555 1_555
C1 C2 1_555 1_555
C2 C3 1_555 1_555
C3 H1 1_555 1_555
C4 C3 1_555 1_555
C5 C4 1_555 1_555
C6 C5 1_555 1_555
H3 C6 1_555 1_555
C7 C2 1_555 1_555
H4 C7 1_555 1_555
O3 C1 1_555 1_555
O21 C1 1_555 1_555
C6 C7 1_555 1_555
N4 C31 1_555 1_555
N5 C16 1_555 1_555
N6 C17 1_555 1_555
C9 C8 1_555 1_555
C10 C9 1_555 1_555
H5 C10 1_555 1_555
C11 C10 1_555 1_555
H6 C11 1_555 1_555
C12 C11 1_555 1_555
C13 C12 1_555 1_555
H7 C13 1_555 1_555
C14 C9 1_555 1_555
H8 C14 1_555 1_555
C15 C12 1_555 1_555
C16 H9 1_555 1_555
C17 C16 1_555 1_555
H10 C17 1_555 1_555
C18 N5 1_555 1_555
C20 N6 1_555 1_555
H14 C20 1_555 1_555
H15 C20 1_555 1_555
C21 C20 1_555 1_555
C22 C21 1_555 1_555
C23 C22 1_555 1_555
C24 C23 1_555 1_555
C25 C24 1_555 1_555
C26 C21 1_555 1_555
C27 C26 1_555 1_555
H16 C27 1_555 1_555
H17 C27 1_555 1_555
H18 C27 1_555 1_555
C28 C25 1_555 1_555
H19 C28 1_555 1_555
H20 C28 1_555 1_555
H21 C28 1_555 1_555
C29 C23 1_555 1_555
H22 C29 1_555 1_555
H23 C29 1_555 1_555
H24 C29 1_555 1_555
C30 C22 1_555 1_555
H25 C30 1_555 1_555
H26 C30 1_555 1_555
H27 C30 1_555 1_555
C31 C24 1_555 1_555
H28 C31 1_555 1_555
H29 C31 1_555 1_555
C32 N4 1_555 1_555
H30 C32 1_555 1_555
C34 N3 1_555 1_555
C35 C34 1_555 1_555
H32_2 C35 1_555 1_555
H33 C35 1_555 1_555
H34 C35 1_555 1_555
O1 C15 1_555 1_555
N4 C34 1_555 1_555
N6 C18 1_555 1_555
C13 C14 1_555 1_555
C15 O2 1_555 1_555
C25 C26 1_555 1_555
Zn1 N5_2 1_555 1_555
N4_2 C31_2 1_555 1_555
N5_2 C16_2 1_555 1_555
N6_2 C17_2 1_555 1_555
C9_2 C8_2 1_555 1_555
C10_2 C9_2 1_555 1_555
H5_2 C10_2 1_555 1_555
C11_2 C10_2 1_555 1_555
H6_2 C11_2 1_555 1_555
C12_2 C11_2 1_555 1_555
C13_2 C12_2 1_555 1_555
H7_2 C13_2 1_555 1_555
C14_2 C9_2 1_555 1_555
H8_2 C14_2 1_555 1_555
C15_2 C12_2 1_555 1_555
C16_2 H9_2 1_555 1_555
C17_2 C16_2 1_555 1_555
H10_2 C17_2 1_555 1_555
C18_2 N5_2 1_555 1_555
C19_2 C18_2 1_555 1_555
H11_2 C19_2 1_555 1_555
H12_2 C19_2 1_555 1_555
H13_2 C19_2 1_555 1_555
C20_2 N6_2 1_555 1_555
H14_2 C20_2 1_555 1_555
H15_2 C20_2 1_555 1_555
C21_2 C20_2 1_555 1_555
C22_2 C21_2 1_555 1_555
C23_2 C22_2 1_555 1_555
C24_2 C23_2 1_555 1_555
C25_2 C24_2 1_555 1_555
C26_2 C21_2 1_555 1_555
C27_2 C26_2 1_555 1_555
H16_2 C27_2 1_555 1_555
H17_2 C27_2 1_555 1_555
H18_2 C27_2 1_555 1_555
C28_2 C25_2 1_555 1_555
H19_2 C28_2 1_555 1_555
H20_2 C28_2 1_555 1_555
H21_2 C28_2 1_555 1_555
C29_2 C23_2 1_555 1_555
H22_2 C29_2 1_555 1_555
H23_2 C29_2 1_555 1_555
H24_2 C29_2 1_555 1_555
C30_2 C22_2 1_555 1_555
H25_2 C30_2 1_555 1_555
H26_2 C30_2 1_555 1_555
H27_2 C30_2 1_555 1_555
C31_2 C24_2 1_555 1_555
H28_2 C31_2 1_555 1_555
H29_2 C31_2 1_555 1_555
C32_2 N4_2 1_555 1_555
H30_2 C32_2 1_555 1_555
C34_2 N3_2 1_555 1_555
C35_2 C34_2 1_555 1_555
H33_2 C35_2 1_555 1_555
H34_2 C35_2 1_555 1_555
O1_2 C15_2 1_555 1_555
O2_2 Zn1 1_555 1_555
N15 Zn1 1_555 1_555
N16_2 C136_2 1_555 1_555
C125_2 N14_2 1_555 1_555
H116_2 C125_2 1_555 1_555
H117_2 C125_2 1_555 1_555
C126_2 C125_2 1_555 1_555
C127_2 C126_2 1_555 1_555
C128_2 C127_2 1_555 1_555
C129_2 C128_2 1_555 1_555
C130_2 C129_2 1_555 1_555
C131_2 C126_2 1_555 1_555
C132_2 C127_2 1_555 1_555
H118_2 C132_2 1_555 1_555
H119_2 C132_2 1_555 1_555
H120_2 C132_2 1_555 1_555
C133_2 C128_2 1_555 1_555
H121_2 C133_2 1_555 1_555
H122_2 C133_2 1_555 1_555
H123_2 C133_2 1_555 1_555
C134_2 C130_2 1_555 1_555
H124_2 C134_2 1_555 1_555
H125_2 C134_2 1_555 1_555
H126_2 C134_2 1_555 1_555
C135_2 C131_2 1_555 1_555
H127_2 C135_2 1_555 1_555
H128_2 C135_2 1_555 1_555
H129_2 C135_2 1_555 1_555
C136_2 C129_2 1_555 1_555
H130_2 C136_2 1_555 1_555
H131_2 C136_2 1_555 1_555
C137_2 N16_2 1_555 1_555
H132_2 C137_2 1_555 1_555
C138_2 N15 1_555 1_555
H133_2 C138_2 1_555 1_555
C139_2 N15 1_555 1_555
C140_2 C139_2 1_555 1_555
H134_2 C140_2 1_555 1_555
H135_2 C140_2 1_555 1_555
H136_2 C140_2 1_555 1_555
O22 Zn1 1_555 1_555
N4_2 C34_2 1_555 1_555
N6_2 C18_2 1_555 1_555
C13_2 C14_2 1_555 1_555
C15_2 O2_2 1_555 1_555
C25_2 C26_2 1_555 1_555
N14_2 C123_2 1_555 1_555
N16_2 C139_2 1_555 1_555
C130_2 C131_2 1_555 1_555
C137_2 C138_2 1_555 1_555
C71_2 C72_2 1_555 1_555
C72_2 C73_2 1_555 1_555
C73_2 H69_2 1_555 1_555
C74_2 C73_2 1_555 1_555
C75_2 C74_2 1_555 1_555
C76_2 C75_2 1_555 1_555
H71_2 C76_2 1_555 1_555
C77_2 C72_2 1_555 1_555
H72_2 C77_2 1_555 1_555
O13_2 C71_2 1_555 1_555
O22 C71_2 1_555 1_555
C76_2 C77_2 1_555 1_555
C1_2 C2_2 1_555 1_555
C2_2 C3_2 1_555 1_555
C3_2 H1_2 1_555 1_555
C4_2 C3_2 1_555 1_555
C5_2 C4_2 1_555 1_555
C6_2 C5_2 1_555 1_555
H3_2 C6_2 1_555 1_555
C7_2 C2_2 1_555 1_555
H4_2 C7_2 1_555 1_555
O3_2 C1_2 1_555 1_555
O4 C1_2 1_555 1_555
Zn7 O4 1_555 1_555
C6_2 C7_2 1_555 1_555
N7_2 C68_2 1_555 1_555
N8_2 C66_2 1_555 1_555
C54_2 C53_2 1_555 1_555
H45_2 C54_2 1_555 1_555
H46_2 C54_2 1_555 1_555
H47_2 C54_2 1_555 1_555
C55_2 N2_2 1_555 1_555
H48_2 C55_2 1_555 1_555
H49_2 C55_2 1_555 1_555
C56_2 C55_2 1_555 1_555
C57_2 C56_2 1_555 1_555
C58_2 C57_2 1_555 1_555
C59_2 C58_2 1_555 1_555
C60_2 C59_2 1_555 1_555
C61_2 C56_2 1_555 1_555
C62_2 C57_2 1_555 1_555
H50_2 C62_2 1_555 1_555
H51_2 C62_2 1_555 1_555
H52_2 C62_2 1_555 1_555
C63_2 C58_2 1_555 1_555
H53_2 C63_2 1_555 1_555
H54_2 C63_2 1_555 1_555
H55_2 C63_2 1_555 1_555
C64_2 C60_2 1_555 1_555
H56_2 C64_2 1_555 1_555
H57_2 C64_2 1_555 1_555
H58_2 C64_2 1_555 1_555
C65_2 C61_2 1_555 1_555
H59_2 C65_2 1_555 1_555
H60_2 C65_2 1_555 1_555
H61_2 C65_2 1_555 1_555
C66_2 C59_2 1_555 1_555
H62_2 C66_2 1_555 1_555
H63_2 C66_2 1_555 1_555
C67_2 N8_2 1_555 1_555
H64_2 C67_2 1_555 1_555
C68_2 C67_2 1_555 1_555
H65_2 C68_2 1_555 1_555
C69_2 N7_2 1_555 1_555
C70_2 C69_2 1_555 1_555
H67_2 C70_2 1_555 1_555
Zn7 N7_2 1_555 1_555
N2_2 C53_2 1_555 1_555
N8_2 C69_2 1_555 1_555
C60_2 C61_2 1_555 1_555
H79_2 C89_2 1_555 1_555
H80_2 C89_2 1_555 1_555
H81_2 C89_2 1_555 1_555
H113 C124 1_555 1_555
H114 C124 1_555 1_555
H115 C124 1_555 1_555
H113_2 C124_2 1_555 1_555
H114_2 C124_2 1_555 1_555
H115_2 C124_2 1_555 1_555
N10_2 C101_2 1_555 1_555
N11_2 C86_2 1_555 1_555
N12_2 C87_2 1_555 1_555
C79_2 C78_2 1_555 1_555
C80_2 C79_2 1_555 1_555
H73_2 C80_2 1_555 1_555
C81_2 C80_2 1_555 1_555
H74_2 C81_2 1_555 1_555
C82_2 C81_2 1_555 1_555
C83_2 C82_2 1_555 1_555
H75_2 C83_2 1_555 1_555
C84_2 C79_2 1_555 1_555
H76_2 C84_2 1_555 1_555
C85_2 C82_2 1_555 1_555
C86_2 H77_2 1_555 1_555
C87_2 C86_2 1_555 1_555
H78_2 C87_2 1_555 1_555
C88_2 N11_2 1_555 1_555
C90_2 N12_2 1_555 1_555
H82_2 C90_2 1_555 1_555
H83_2 C90_2 1_555 1_555
C91_2 C90_2 1_555 1_555
C92_2 C91_2 1_555 1_555
C93_2 C92_2 1_555 1_555
C94_2 C93_2 1_555 1_555
C95_2 C94_2 1_555 1_555
C96_2 C91_2 1_555 1_555
C97_2 C96_2 1_555 1_555
H84_2 C97_2 1_555 1_555
H85_2 C97_2 1_555 1_555
H86_2 C97_2 1_555 1_555
C98_2 C95_2 1_555 1_555
H87_2 C98_2 1_555 1_555
H88_2 C98_2 1_555 1_555
H89_2 C98_2 1_555 1_555
C99_2 C93_2 1_555 1_555
H90_2 C99_2 1_555 1_555
H91_2 C99_2 1_555 1_555
H92_2 C99_2 1_555 1_555
C100_2 C92_2 1_555 1_555
H93_2 C100_2 1_555 1_555
H94_2 C100_2 1_555 1_555
H95_2 C100_2 1_555 1_555
C101_2 C94_2 1_555 1_555
H96_2 C101_2 1_555 1_555
H97_2 C101_2 1_555 1_555
C102_2 N10_2 1_555 1_555
H98_2 C102_2 1_555 1_555
C104_2 N9_2 1_555 1_555
C105_2 C104_2 1_555 1_555
H100_2 C105_2 1_555 1_555
H101_2 C105_2 1_555 1_555
H102_2 C105_2 1_555 1_555
O11_2 C85_2 1_555 1_555
N10_2 C104_2 1_555 1_555
N12_2 C88_2 1_555 1_555
C83_2 C84_2 1_555 1_555
C85_2 O12_2 1_555 1_555
C95_2 C96_2 1_555 1_555

#END
