
###############################################################################
#
# This file contains modified crystal structure data generated from the
# MOF subset of the Cambridge Structural Database (CSD) v543 
# hosted by the Cambridge Crystallographic Data Centre (CCDC).
#
# This work is licensed under the Creative Commons
# Attribution-NonCommercial-ShareAlike 4.0 International License.
# To view a copy of this license, visit
# http://creativecommons.org/licenses/by-nc-sa/4.0/
# or send a letter to
# Creative Commons, PO Box 1866, Mountain View, CA 94042, USA.
#
# CIF created using the CSD Python API on 29 September 2022
# The structure has been converted into the P1 space group
# The structure has a 3D framework
# The original CSD entry TOHYUM is in the monoclinic crystal system
# The framework has been calculated to contain at least 10.0% void space
# The void calculation uses a probe of radius 1.32A, grid spacing 0.4
#
###############################################################################

data_TOHYUM
_chemical_formula_moiety         '(C112 H92 N4 O58 Zn16)n'
_symmetry_cell_setting           triclinic
_symmetry_space_group_name_H-M   'P 1'
_symmetry_Int_Tables_number      1
_space_group_name_Hall           'P 1'
loop_
_symmetry_equiv_pos_site_id
_symmetry_equiv_pos_as_xyz
1 x,y,z
_cell_length_a                   20.0553(9)
_cell_length_b                   11.1462(4)
_cell_length_c                   19.5354(9)
_cell_angle_alpha                90
_cell_angle_beta                 108.352(5)
_cell_angle_gamma                90
_cell_volume                     4144.85
loop_
_atom_site_label
_atom_site_type_symbol
_atom_site_fract_x
_atom_site_fract_y
_atom_site_fract_z
C9 C 0.2580(4) 0.4326(5) 0.1103(4)
C11 C 0.2429(3) 0.3163(5) 0.0697(4)
C12 C 0.2502(3) 0.2085(5) 0.1067(4)
H5 H 0.2634 0.2087 0.1568
C13 C 0.2378(3) 0.1001(5) 0.0695(4)
C26 C 0.3146(5) 0.0762(5) 0.3703(6)
H13 H 0.2860 0.0872 0.3211
H14 H 0.3582 0.1184 0.3787
H15 H 0.2904 0.1070 0.4018
C27 C 0.3966(5) 0.0144(9) 0.5168(5)
H16 H 0.3818 0.0915 0.4956
H17 H 0.4468 0.0132 0.5374
O6 O 0.2566(3) 0.5268(4) 0.0772(3)
O7 O 0.2701(3) 0.4250(4) 0.1787(3)
Zn7 Zn 0.27567(6) 0.71259(5) 0.09805(8)
Zn9 Zn 0.27852(6) 0.56653(5) 0.23845(8)
Zn1 Zn 0.41162(6) 0.70846(6) 0.23228(8)
Zn4 Zn 0.27547(7) 0.85268(6) 0.23969(8)
C1 C 0.4108(3) 0.5574(6) 0.3568(3)
C2 C 0.4088(3) 0.3764(6) 0.5915(4)
C3 C 0.4484(3) 0.5253(6) 0.4338(3)
C4 C 0.4136(3) 0.4628(5) 0.4744(3)
H1 H 0.3682 0.4349 0.4523
C5 C 0.4463(3) 0.4416(6) 0.5475(3)
C6 C 0.5145(3) 0.4833(6) 0.5791(4)
H2 H 0.5367 0.4698 0.6280
C7 C 0.5500(4) 0.5439(7) 0.5399(4)
H3 H 0.5957 0.5707 0.5619
C8 C 0.5159(3) 0.5652(6) 0.4653(4)
H4 H 0.5392 0.6059 0.4380
C10 C 0.2515(3) 0.9846(6) 0.1112(4)
C17 C 0.1518(3) 0.6858(6) 0.2398(3)
C19 C 0.0752(4) 0.6778(6) 0.2327(4)
C20 C 0.0439(3) 0.5668(6) 0.2357(4)
H9 H 0.0700 0.4966 0.2402
C24 C 0.0348(4) 0.7802(6) 0.2222(5)
H12 H 0.0552 0.8535 0.2177
C25 C 0.3296(3) 0.9408(6) 0.3853(3)
H18 H 0.3756 0.9992 0.5538
C28 C 0.3910(7) 0.7928(6) 0.4787(6)
H19 H 0.3723 0.7447 0.4362
H20 H 0.3704 0.7682 0.5147
H21 H 0.4410 0.7827 0.4970
O1 O 0.4433(2) 0.6173(4) 0.3240(3)
O2 O 0.1736(2) 0.7328(4) 0.0503(3)
H22 H 0.1350 0.7653 0.0262
H23 H 0.1631 0.6594 0.0530
O3 O 0.3487(2) 0.5220(4) 0.3310(3)
O4 O 0.3578(2) 0.3133(4) 0.5608(2)
O5 O 0.4358(2) 0.3906(4) 0.6596(2)
O8 O 0.2761(3) 0.8988(3) 0.0853(3)
O9 O 0.2387(3) 0.9831(4) 0.1710(3)
O10 O 0.1856(2) 0.5885(4) 0.2486(3)
O11 O 0.1771(3) 0.7875(4) 0.2375(3)
O12 O 0.3094(2) 0.7110(3) 0.2035(2)
O15 O 0.3097(3) 0.8608(5) 0.3464(3)
N1 N 0.3743(3) 0.9206(6) 0.4606(3)
Zn5 Zn 0.41162(6) 0.29154(6) 0.73228(8)
Zn8 Zn 0.27567(6) 0.28741(5) 0.59805(8)
O16 O 0.3578(2) 0.6867(4) 0.0608(2)
O17 O 0.4358(2) 0.6094(4) 0.1596(2)
O20 O 0.3818(3) 0.9503(5) 0.2528(3)
O21 O 0.4697(2) 0.8509(4) 0.2329(3)
C18 C 0.9388(4) 0.4451(6) 0.2401(4)
C21 C 0.9730(3) 0.5619(6) 0.2318(4)
C22 C 0.9352(4) 0.6678(7) 0.2248(5)
H10 H 0.8887 0.6655 0.2245
C23 C 0.9657(4) 0.7769(7) 0.2181(6)
H11 H 0.9393 0.8471 0.2109
O13 O 0.8818(3) 0.4503(5) 0.2528(3)
O14 O 0.9697(2) 0.3509(4) 0.2329(3)
Zn6 Zn 0.91162(6) 0.20846(6) 0.23228(8)
Zn10 Zn 0.77547(7) 0.35268(6) 0.23969(8)
C2_2 C 0.4088(3) 0.6236(6) 0.0915(4)
C5_2 C 0.4463(3) 0.5584(6) 0.0475(3)
C6_2 C 0.5145(3) 0.5167(6) 0.0791(4)
H2_2 H 0.5367 0.5302 0.1280
C7_2 C 0.5500(4) 0.4561(7) 0.0399(4)
H3_2 H 0.5957 0.4293 0.0619
H18_2 H 0.3756 0.0008 0.0538
H20_2 H 0.3704 0.2318 0.0147
Zn3 Zn 0.27852(6) 0.43347(5) 0.73845(8)
Zn4_2 Zn 0.27547(7) 0.14732(6) 0.73969(8)
C1_2 C 0.4108(3) 0.4426(6) 0.8568(3)
C3_2 C 0.4484(3) 0.4747(6) 0.9338(3)
C4_2 C 0.4136(3) 0.5372(5) 0.9744(3)
H1_2 H 0.3682 0.5651 0.9523
C8_2 C 0.5159(3) 0.4348(6) 0.9653(4)
H4_2 H 0.5392 0.3941 0.9380
C10_2 C 0.2515(3) 0.0154(6) 0.6112(4)
C17_2 C 0.1518(3) 0.3142(6) 0.7398(3)
C19_2 C 0.0752(4) 0.3222(6) 0.7327(4)
C20_2 C 0.0439(3) 0.4332(6) 0.7357(4)
H9_2 H 0.0700 0.5034 0.7402
C24_2 C 0.0348(4) 0.2198(6) 0.7222(5)
H12_2 H 0.0552 0.1465 0.7177
C25_2 C 0.3296(3) 0.0592(6) 0.8853(3)
C28_2 C 0.3910(7) 0.2072(6) 0.9787(6)
H19_2 H 0.3723 0.2553 0.9362
H21_2 H 0.4410 0.2173 0.9970
O1_2 O 0.4433(2) 0.3827(4) 0.8240(3)
O2_2 O 0.1736(2) 0.2672(4) 0.5503(3)
H22_2 H 0.1350 0.2347 0.5262
H23_2 H 0.1631 0.3406 0.5530
O3_2 O 0.3487(2) 0.4780(4) 0.8310(3)
O8_2 O 0.2761(3) 0.1012(3) 0.5853(3)
O9_2 O 0.2387(3) 0.0169(4) 0.6710(3)
O10_2 O 0.1856(2) 0.4115(4) 0.7486(3)
O11_2 O 0.1771(3) 0.2125(4) 0.7375(3)
O12_2 O 0.3094(2) 0.2890(3) 0.7035(2)
O15_2 O 0.3097(3) 0.1392(5) 0.8464(3)
N1_2 N 0.3743(3) 0.0794(6) 0.9606(3)
O18 O 0.2566(3) 0.4732(4) 0.5772(3)
O19 O 0.2701(3) 0.5750(4) 0.6787(3)
O20_2 O 0.3818(3) 0.0497(5) 0.7528(3)
O21_2 O 0.4697(2) 0.1491(4) 0.7329(3)
C9_2 C 0.2580(4) 0.5674(5) 0.6103(4)
C11_2 C 0.2429(3) 0.6837(5) 0.5697(4)
C12_2 C 0.2502(3) 0.7915(5) 0.6067(4)
H5_2 H 0.2634 0.7913 0.6568
C13_2 C 0.2378(3) 0.8999(5) 0.5695(4)
C14 C 0.2172(4) 0.9007(6) 0.4951(4)
H6 H 0.2091 0.9730 0.4700
C15 C 0.2088(5) 0.7919(6) 0.4578(4)
H7 H 0.1938 0.7917 0.4077
C16 C 0.2226(4) 0.6839(6) 0.4954(4)
H8 H 0.2182 0.6119 0.4703
C26_2 C 0.3146(5) 0.9238(5) 0.8703(6)
H13_2 H 0.2860 0.9128 0.8211
H14_2 H 0.3582 0.8816 0.8787
H15_2 H 0.2904 0.8930 0.9018
H16_2 H 0.3818 0.9085 0.9956
C18_2 C 0.9388(4) 0.5549(6) 0.7401(4)
C21_2 C 0.9730(3) 0.4381(6) 0.7318(4)
C22_2 C 0.9352(4) 0.3322(7) 0.7248(5)
H10_2 H 0.8887 0.3345 0.7245
C23_2 C 0.9657(4) 0.2231(7) 0.7181(6)
H11_2 H 0.9393 0.1529 0.7109
O13_2 O 0.8818(3) 0.5497(5) 0.7528(3)
O14_2 O 0.9697(2) 0.6491(4) 0.7329(3)
Zn6_2 Zn 0.91162(6) 0.79154(6) 0.73228(8)
Zn10_2 Zn 0.77547(7) 0.64732(6) 0.73969(8)
O6_2 O 0.7566(3) 0.0268(4) 0.0772(3)
Zn7_2 Zn 0.77567(6) 0.21259(5) 0.09805(8)
Zn9_2 Zn 0.77852(6) 0.06653(5) 0.23845(8)
C1_3 C 0.9108(3) 0.0574(6) 0.3568(3)
C3_3 C 0.9484(3) 0.0253(6) 0.4338(3)
C9_3 C 0.7580(4) 0.9326(5) 0.1103(4)
C10_3 C 0.7515(3) 0.4846(6) 0.1112(4)
C11_3 C 0.7429(3) 0.8163(5) 0.0697(4)
C12_3 C 0.7502(3) 0.7085(5) 0.1067(4)
H5_3 H 0.7634 0.7087 0.1568
C13_3 C 0.7378(3) 0.6001(5) 0.0695(4)
C17_3 C 0.6518(3) 0.1858(6) 0.2398(3)
C19_3 C 0.5752(4) 0.1778(6) 0.2327(4)
C20_3 C 0.5439(3) 0.0668(6) 0.2357(4)
C21_3 C 0.4730(3) 0.0619(6) 0.2318(4)
C22_3 C 0.4352(4) 0.1678(7) 0.2248(5)
H10_3 H 0.3887 0.1655 0.2245
C23_3 C 0.4657(4) 0.2769(7) 0.2181(6)
H11_3 H 0.4393 0.3471 0.2109
C24_3 C 0.5348(4) 0.2802(6) 0.2222(5)
H12_3 H 0.5552 0.3535 0.2177
C25_3 C 0.8296(3) 0.4408(6) 0.3853(3)
C26_3 C 0.8146(5) 0.5762(5) 0.3703(6)
H13_3 H 0.7860 0.5872 0.3211
H14_3 H 0.8582 0.6184 0.3787
H15_3 H 0.7904 0.6070 0.4018
C27_2 C 0.8966(5) 0.5144(9) 0.5168(5)
H16_3 H 0.8818 0.5915 0.4956
H17_2 H 0.9468 0.5132 0.5374
H18_3 H 0.8756 0.4992 0.5538
C28_3 C 0.8910(7) 0.2928(6) 0.4787(6)
H19_3 H 0.8723 0.2447 0.4362
H20_3 H 0.8704 0.2682 0.5147
H21_3 H 0.9410 0.2827 0.4970
O1_3 O 0.9433(2) 0.1173(4) 0.3240(3)
O2_3 O 0.6736(2) 0.2328(4) 0.0503(3)
H22_3 H 0.6350 0.2653 0.0262
H23_3 H 0.6631 0.1594 0.0530
O3_3 O 0.8487(2) 0.0220(4) 0.3310(3)
O7_2 O 0.7701(3) 0.9250(4) 0.1787(3)
O8_3 O 0.7761(3) 0.3988(3) 0.0853(3)
O9_3 O 0.7387(3) 0.4831(4) 0.1710(3)
O10_3 O 0.6856(2) 0.0885(4) 0.2486(3)
O11_3 O 0.6771(3) 0.2875(4) 0.2375(3)
O12_3 O 0.8094(2) 0.2110(3) 0.2035(2)
O15_3 O 0.8097(3) 0.3608(5) 0.3464(3)
N1_3 N 0.8743(3) 0.4206(6) 0.4606(3)
O16_2 O 0.8578(2) 0.1867(4) 0.0608(2)
O17_2 O 0.9358(2) 0.1094(4) 0.1596(2)
C2_3 C 0.9088(3) 0.8764(6) 0.5915(4)
C4_3 C 0.9136(3) 0.9628(5) 0.4744(3)
H1_3 H 0.8682 0.9349 0.4523
C5_3 C 0.9463(3) 0.9416(6) 0.5475(3)
C18_3 C 0.4388(4) 0.9451(6) 0.2401(4)
H9_3 H 0.5700 0.9966 0.2402
O4_2 O 0.8578(2) 0.8133(4) 0.5608(2)
O5_2 O 0.9358(2) 0.8906(4) 0.6596(2)
Zn8_2 Zn 0.77567(6) 0.78741(5) 0.59805(8)
C2_4 C 0.9088(3) 0.1236(6) 0.0915(4)
C5_4 C 0.9463(3) 0.0584(6) 0.0475(3)
C4_4 C 0.9136(3) 0.0372(5) 0.9744(3)
H1_4 H 0.8682 0.0651 0.9523
C18_4 C 0.4388(4) 0.0549(6) 0.7401(4)
H9_4 H 0.5700 0.0034 0.7402
O19_2 O 0.7701(3) 0.0750(4) 0.6787(3)
Zn3_2 Zn 0.77852(6) 0.93347(5) 0.73845(8)
C1_4 C 0.9108(3) 0.9426(6) 0.8568(3)
C3_4 C 0.9484(3) 0.9747(6) 0.9338(3)
C9_4 C 0.7580(4) 0.0674(5) 0.6103(4)
C10_4 C 0.7515(3) 0.5154(6) 0.6112(4)
C11_4 C 0.7429(3) 0.1837(5) 0.5697(4)
C12_4 C 0.7502(3) 0.2915(5) 0.6067(4)
H5_4 H 0.7634 0.2913 0.6568
C13_4 C 0.7378(3) 0.3999(5) 0.5695(4)
C14_2 C 0.7172(4) 0.4007(6) 0.4951(4)
H6_2 H 0.7091 0.4730 0.4700
C15_2 C 0.7088(5) 0.2919(6) 0.4578(4)
H7_2 H 0.6938 0.2917 0.4077
C16_2 C 0.7226(4) 0.1839(6) 0.4954(4)
H8_2 H 0.7182 0.1119 0.4703
C17_4 C 0.6518(3) 0.8142(6) 0.7398(3)
C19_4 C 0.5752(4) 0.8222(6) 0.7327(4)
C20_4 C 0.5439(3) 0.9332(6) 0.7357(4)
C21_4 C 0.4730(3) 0.9381(6) 0.7318(4)
C22_4 C 0.4352(4) 0.8322(7) 0.7248(5)
H10_4 H 0.3887 0.8345 0.7245
C23_4 C 0.4657(4) 0.7231(7) 0.7181(6)
H11_4 H 0.4393 0.6529 0.7109
C24_4 C 0.5348(4) 0.7198(6) 0.7222(5)
H12_4 H 0.5552 0.6465 0.7177
C25_4 C 0.8296(3) 0.5592(6) 0.8853(3)
C26_4 C 0.8146(5) 0.4238(5) 0.8703(6)
H13_4 H 0.7860 0.4128 0.8211
H14_4 H 0.8582 0.3816 0.8787
H15_4 H 0.7904 0.3930 0.9018
H16_4 H 0.8818 0.4085 0.9956
C28_4 C 0.8910(7) 0.7072(6) 0.9787(6)
H19_4 H 0.8723 0.7553 0.9362
H21_4 H 0.9410 0.7173 0.9970
O1_4 O 0.9433(2) 0.8827(4) 0.8240(3)
O2_4 O 0.6736(2) 0.7672(4) 0.5503(3)
H22_4 H 0.6350 0.7347 0.5262
H23_4 H 0.6631 0.8406 0.5530
O3_4 O 0.8487(2) 0.9780(4) 0.8310(3)
O8_4 O 0.7761(3) 0.6012(3) 0.5853(3)
O9_4 O 0.7387(3) 0.5169(4) 0.6710(3)
O10_4 O 0.6856(2) 0.9115(4) 0.7486(3)
O11_4 O 0.6771(3) 0.7125(4) 0.7375(3)
O12_4 O 0.8094(2) 0.7890(3) 0.7035(2)
O15_4 O 0.8097(3) 0.6392(5) 0.8464(3)
N1_4 N 0.8743(3) 0.5794(6) 0.9606(3)
O18_2 O 0.7566(3) 0.9732(4) 0.5772(3)
C14_3 C 0.2172(4) 0.0993(6) 0.9951(4)
H6_3 H 0.2091 0.0270 0.9700
C15_3 C 0.2088(5) 0.2081(6) 0.9578(4)
H7_3 H 0.1938 0.2083 0.9077
C16_3 C 0.2226(4) 0.3161(6) 0.9954(4)
H8_3 H 0.2182 0.3881 0.9703
C27_3 C 0.3966(5) 0.9856(9) 0.0168(5)
H17_3 H 0.4468 0.9868 0.0374
C7_3 C 0.0500(4) 0.0439(7) 0.5399(4)
H3_3 H 0.0957 0.0707 0.5619
C8_3 C 0.0159(3) 0.0652(6) 0.4653(4)
H4_3 H 0.0392 0.1059 0.4380
C6_3 C 0.0145(3) 0.9833(6) 0.5791(4)
H2_3 H 0.0367 0.9698 0.6280
C14_4 C 0.7172(4) 0.5993(6) 0.9951(4)
H6_4 H 0.7091 0.5270 0.9700
C15_4 C 0.7088(5) 0.7081(6) 0.9578(4)
H7_4 H 0.6938 0.7083 0.9077
C16_4 C 0.7226(4) 0.8161(6) 0.9954(4)
H8_4 H 0.7182 0.8881 0.9703
C6_4 C 0.0145(3) 0.0167(6) 0.0791(4)
H2_4 H 0.0367 0.0302 0.1280
C7_4 C 0.0500(4) 0.9561(7) 0.0399(4)
H3_4 H 0.0957 0.9293 0.0619
C8_4 C 0.0159(3) 0.9348(6) 0.9653(4)
H4_4 H 0.0392 0.8941 0.9380
C27_4 C 0.8966(5) 0.4856(9) 0.0168(5)
H17_4 H 0.9468 0.4868 0.0374
H18_4 H 0.8756 0.5008 0.0538
H20_4 H 0.8704 0.7318 0.0147
loop_
_geom_bond_atom_site_label_1
_geom_bond_atom_site_label_2
_geom_bond_site_symmetry_1
_geom_bond_site_symmetry_2
C9 C11 1_555 1_555
C11 C12 1_555 1_555
C12 H5 1_555 1_555
C13 C12 1_555 1_555
C26 H13 1_555 1_555
H14 C26 1_555 1_555
H15 C26 1_555 1_555
C27 H16 1_555 1_555
H17 C27 1_555 1_555
O6 C9 1_555 1_555
O7 C9 1_555 1_555
Zn7 O6 1_555 1_555
Zn9 O7 1_555 1_555
Zn1 O1 1_555 1_555
Zn7 O2 1_555 1_555
Zn9 O3 1_555 1_555
Zn4 O9 1_555 1_555
C1 C3 1_555 1_555
C2 C5 1_555 1_555
C3 C4 1_555 1_555
C4 H1 1_555 1_555
C5 C4 1_555 1_555
C6 C5 1_555 1_555
H2 C6 1_555 1_555
C7 C6 1_555 1_555
H3 C7 1_555 1_555
C8 C3 1_555 1_555
H4 C8 1_555 1_555
C17 C19 1_555 1_555
C19 C20 1_555 1_555
C20 H9 1_555 1_555
C24 C19 1_555 1_555
H12 C24 1_555 1_555
C28 H19 1_555 1_555
H20 C28 1_555 1_555
H21 C28 1_555 1_555
O1 C1 1_555 1_555
O2 H22 1_555 1_555
H23 O2 1_555 1_555
O3 C1 1_555 1_555
O4 C2 1_555 1_555
O5 C2 1_555 1_555
O8 Zn7 1_555 1_555
O9 C10 1_555 1_555
O10 Zn9 1_555 1_555
O11 Zn4 1_555 1_555
O12 Zn1 1_555 1_555
O15 Zn4 1_555 1_555
N1 C25 1_555 1_555
Zn5 O5 1_555 1_555
Zn8 O4 1_555 1_555
O16 Zn7 1_555 1_555
O17 Zn1 1_555 1_555
O20 Zn4 1_555 1_555
O21 Zn1 1_555 1_555
Zn7 O12 1_555 1_555
Zn9 O12 1_555 1_555
Zn4 O12 1_555 1_555
C7 C8 1_555 1_555
C10 O8 1_555 1_555
C17 O10 1_555 1_555
C17 O11 1_555 1_555
C25 O15 1_555 1_555
C28 N1 1_555 1_555
C18 C21 1_555 1_555
C22 C21 1_555 1_555
H10 C22 1_555 1_555
C23 C22 1_555 1_555
H11 C23 1_555 1_555
O13 C18 1_555 1_555
O14 C18 1_555 1_555
Zn6 O14 1_555 1_555
Zn10 O13 1_555 1_555
C2_2 C5_2 1_555 1_555
C6_2 C5_2 1_555 1_555
H2_2 C6_2 1_555 1_555
C7_2 C6_2 1_555 1_555
H3_2 C7_2 1_555 1_555
O16 C2_2 1_555 1_555
O17 C2_2 1_555 1_555
Zn5 O1_2 1_555 1_555
Zn8 O2_2 1_555 1_555
Zn3 O3_2 1_555 1_555
Zn4_2 O9_2 1_555 1_555
C1_2 C3_2 1_555 1_555
C3_2 C4_2 1_555 1_555
C4_2 H1_2 1_555 1_555
C8_2 C3_2 1_555 1_555
H4_2 C8_2 1_555 1_555
C17_2 C19_2 1_555 1_555
C19_2 C20_2 1_555 1_555
C20_2 H9_2 1_555 1_555
C24_2 C19_2 1_555 1_555
H12_2 C24_2 1_555 1_555
C28_2 H19_2 1_555 1_555
H21_2 C28_2 1_555 1_555
O1_2 C1_2 1_555 1_555
O2_2 H22_2 1_555 1_555
H23_2 O2_2 1_555 1_555
O3_2 C1_2 1_555 1_555
O8_2 Zn8 1_555 1_555
O9_2 C10_2 1_555 1_555
O10_2 Zn3 1_555 1_555
O11_2 Zn4_2 1_555 1_555
O12_2 Zn5 1_555 1_555
O15_2 Zn4_2 1_555 1_555
N1_2 C25_2 1_555 1_555
O18 Zn8 1_555 1_555
O19 Zn3 1_555 1_555
O20_2 Zn4_2 1_555 1_555
O21_2 Zn5 1_555 1_555
Zn8 O12_2 1_555 1_555
Zn3 O12_2 1_555 1_555
Zn4_2 O12_2 1_555 1_555
C10_2 O8_2 1_555 1_555
C17_2 O10_2 1_555 1_555
C17_2 O11_2 1_555 1_555
C25_2 O15_2 1_555 1_555
C28_2 N1_2 1_555 1_555
C9_2 C11_2 1_555 1_555
C11_2 C12_2 1_555 1_555
C12_2 H5_2 1_555 1_555
C13_2 C12_2 1_555 1_555
C14 C13_2 1_555 1_555
H6 C14 1_555 1_555
C15 C14 1_555 1_555
H7 C15 1_555 1_555
C16 C11_2 1_555 1_555
H8 C16 1_555 1_555
C26_2 H13_2 1_555 1_555
H14_2 C26_2 1_555 1_555
H15_2 C26_2 1_555 1_555
O18 C9_2 1_555 1_555
O19 C9_2 1_555 1_555
C15 C16 1_555 1_555
C18_2 C21_2 1_555 1_555
C22_2 C21_2 1_555 1_555
H10_2 C22_2 1_555 1_555
C23_2 C22_2 1_555 1_555
H11_2 C23_2 1_555 1_555
O13_2 C18_2 1_555 1_555
O14_2 C18_2 1_555 1_555
Zn6_2 O14_2 1_555 1_555
Zn10_2 O13_2 1_555 1_555
Zn7_2 O6_2 1_555 1_555
Zn6 O1_3 1_555 1_555
Zn7_2 O2_3 1_555 1_555
Zn9_2 O3_3 1_555 1_555
Zn10 O9_3 1_555 1_555
C1_3 C3_3 1_555 1_555
C9_3 C11_3 1_555 1_555
C10_3 C13_3 1_555 1_555
C11_3 C12_3 1_555 1_555
C12_3 H5_3 1_555 1_555
C13_3 C12_3 1_555 1_555
C17_3 C19_3 1_555 1_555
C19_3 C20_3 1_555 1_555
C21_3 C20_3 1_555 1_555
C22_3 C21_3 1_555 1_555
H10_3 C22_3 1_555 1_555
C23_3 C22_3 1_555 1_555
H11_3 C23_3 1_555 1_555
C24_3 C19_3 1_555 1_555
H12_3 C24_3 1_555 1_555
C25_3 C26_3 1_555 1_555
C26_3 H13_3 1_555 1_555
H14_3 C26_3 1_555 1_555
H15_3 C26_3 1_555 1_555
C27_2 H16_3 1_555 1_555
H17_2 C27_2 1_555 1_555
H18_3 C27_2 1_555 1_555
C28_3 H19_3 1_555 1_555
H20_3 C28_3 1_555 1_555
H21_3 C28_3 1_555 1_555
O1_3 C1_3 1_555 1_555
O2_3 H22_3 1_555 1_555
H23_3 O2_3 1_555 1_555
O3_3 C1_3 1_555 1_555
O7_2 C9_3 1_555 1_555
O8_3 Zn7_2 1_555 1_555
O9_3 C10_3 1_555 1_555
O10_3 Zn9_2 1_555 1_555
O11_3 Zn10 1_555 1_555
O12_3 Zn6 1_555 1_555
O15_3 Zn10 1_555 1_555
N1_3 C25_3 1_555 1_555
O16_2 Zn7_2 1_555 1_555
O17_2 Zn6 1_555 1_555
Zn7_2 O12_3 1_555 1_555
Zn9_2 O12_3 1_555 1_555
Zn10 O12_3 1_555 1_555
C10_3 O8_3 1_555 1_555
C17_3 O10_3 1_555 1_555
C17_3 O11_3 1_555 1_555
C23_3 C24_3 1_555 1_555
C25_3 O15_3 1_555 1_555
C27_2 N1_3 1_555 1_555
C28_3 N1_3 1_555 1_555
C2_3 C5_3 1_555 1_555
C4_3 H1_3 1_555 1_555
C5_3 C4_3 1_555 1_555
O4_2 C2_3 1_555 1_555
O5_2 C2_3 1_555 1_555
O20 C18_3 1_555 1_555
O21 C18_3 1_555 1_555
Zn6_2 O5_2 1_555 1_555
Zn8_2 O4_2 1_555 1_555
C2_4 C5_4 1_555 1_555
O16_2 C2_4 1_555 1_555
O17_2 C2_4 1_555 1_555
C4_4 H1_4 1_555 1_555
O20_2 C18_4 1_555 1_555
O21_2 C18_4 1_555 1_555
Zn6_2 O1_4 1_555 1_555
Zn8_2 O2_4 1_555 1_555
Zn3_2 O3_4 1_555 1_555
Zn10_2 O9_4 1_555 1_555
C1_4 C3_4 1_555 1_555
C9_4 C11_4 1_555 1_555
C10_4 C13_4 1_555 1_555
C11_4 C12_4 1_555 1_555
C12_4 H5_4 1_555 1_555
C13_4 C12_4 1_555 1_555
C14_2 C13_4 1_555 1_555
H6_2 C14_2 1_555 1_555
C15_2 C14_2 1_555 1_555
H7_2 C15_2 1_555 1_555
C16_2 C11_4 1_555 1_555
H8_2 C16_2 1_555 1_555
C17_4 C19_4 1_555 1_555
C19_4 C20_4 1_555 1_555
C21_4 C20_4 1_555 1_555
C22_4 C21_4 1_555 1_555
H10_4 C22_4 1_555 1_555
C23_4 C22_4 1_555 1_555
H11_4 C23_4 1_555 1_555
C24_4 C19_4 1_555 1_555
H12_4 C24_4 1_555 1_555
C25_4 C26_4 1_555 1_555
C26_4 H13_4 1_555 1_555
H14_4 C26_4 1_555 1_555
H15_4 C26_4 1_555 1_555
C28_4 H19_4 1_555 1_555
H21_4 C28_4 1_555 1_555
O1_4 C1_4 1_555 1_555
O2_4 H22_4 1_555 1_555
H23_4 O2_4 1_555 1_555
O3_4 C1_4 1_555 1_555
O19_2 C9_4 1_555 1_555
O8_4 Zn8_2 1_555 1_555
O9_4 C10_4 1_555 1_555
O10_4 Zn3_2 1_555 1_555
O11_4 Zn10_2 1_555 1_555
O12_4 Zn6_2 1_555 1_555
O15_4 Zn10_2 1_555 1_555
N1_4 C25_4 1_555 1_555
O18_2 Zn8_2 1_555 1_555
Zn8_2 O12_4 1_555 1_555
Zn3_2 O12_4 1_555 1_555
Zn10_2 O12_4 1_555 1_555
C10_4 O8_4 1_555 1_555
C15_2 C16_2 1_555 1_555
C17_4 O10_4 1_555 1_555
C17_4 O11_4 1_555 1_555
C23_4 C24_4 1_555 1_555
C25_4 O15_4 1_555 1_555
C28_4 N1_4 1_555 1_555
H6_3 C14_3 1_555 1_555
C15_3 C14_3 1_555 1_555
H7_3 C15_3 1_555 1_555
H8_3 C16_3 1_555 1_555
C15_3 C16_3 1_555 1_555
H17_3 C27_3 1_555 1_555
H3_3 C7_3 1_555 1_555
H4_3 C8_3 1_555 1_555
C7_3 C8_3 1_555 1_555
H2_3 C6_3 1_555 1_555
H6_4 C14_4 1_555 1_555
C15_4 C14_4 1_555 1_555
H7_4 C15_4 1_555 1_555
H8_4 C16_4 1_555 1_555
C15_4 C16_4 1_555 1_555
H2_4 C6_4 1_555 1_555
H3_4 C7_4 1_555 1_555
H4_4 C8_4 1_555 1_555
H17_4 C27_4 1_555 1_555
H18_4 C27_4 1_555 1_555

#END
