
###############################################################################
#
# This file contains modified crystal structure data generated from the
# MOF subset of the Cambridge Structural Database (CSD) v543 
# hosted by the Cambridge Crystallographic Data Centre (CCDC).
#
# This work is licensed under the Creative Commons
# Attribution-NonCommercial-ShareAlike 4.0 International License.
# To view a copy of this license, visit
# http://creativecommons.org/licenses/by-nc-sa/4.0/
# or send a letter to
# Creative Commons, PO Box 1866, Mountain View, CA 94042, USA.
#
# CIF created using the CSD Python API on 29 September 2022
# The structure has been converted into the P1 space group
# The structure has a 3D framework
# The original CSD entry TOHYOF is in the monoclinic crystal system
# The framework has been calculated to contain at least 10.0% void space
# The void calculation uses a probe of radius 1.32A, grid spacing 0.4
# The framework is charged, counterions have been retained in the structure
# H atom positions have been added when not included in the experimental data
#
###############################################################################

data_TOHYOF
_chemical_formula_moiety         '(C56 H80 Cd4 N16 O36)n'
_symmetry_cell_setting           triclinic
_symmetry_space_group_name_H-M   'P 1'
_symmetry_Int_Tables_number      1
_space_group_name_Hall           'P 1'
loop_
_symmetry_equiv_pos_site_id
_symmetry_equiv_pos_as_xyz
1 x,y,z
_cell_length_a                   12.375(3)
_cell_length_b                   23.376(5)
_cell_length_c                   8.5893(17)
_cell_angle_alpha                90
_cell_angle_beta                 104.46(3)
_cell_angle_gamma                90
_cell_volume                     2405.99
loop_
_atom_site_label
_atom_site_type_symbol
_atom_site_fract_x
_atom_site_fract_y
_atom_site_fract_z
N1 N 0.1266(8) 0.1189(4) 0.0757(10)
C1 C 0.0322(12) 0.0864(6) 0.082(2)
H2 H 0.0556 0.0503 0.1326
H6 H 0.2311 0.0523 0.0217
H19 H 0.172804 0.125377 0.189782
H20 H 0.100514 0.157143 0.0238007
C2 C 0.205(2) 0.0885(12) 0.974(3)
H4 H 0.2681 0.1127 0.9743
H5 H 0.1630 0.0826 0.8649
H1 H 0.9891 0.1067 0.1426
H3 H 0.9876 0.0800 0.9747
H1_2 H 0.0109 0.6067 0.3574
H3_2 H 0.0124 0.5800 0.5253
N1_2 N 0.8734(8) 0.6189(4) 0.4243(10)
C1_2 C 0.9678(12) 0.5864(6) 0.418(2)
H2_2 H 0.9444 0.5503 0.3674
C2_2 C 0.795(2) 0.5885(12) 0.526(3)
H4_2 H 0.7319 0.6127 0.5257
H5_2 H 0.8370 0.5826 0.6351
H6_2 H 0.7689 0.5523 0.4783
H19_2 H 0.827196 0.625377 0.310218
H20_2 H 0.899486 0.657143 0.476199
H3_3 H 0.0124 0.9200 0.0253
H1_3 H 0.0109 0.8933 0.8574
C2_3 C 0.795(2) 0.9115(12) 0.026(3)
H4_3 H 0.7319 0.8873 0.0257
H5_3 H 0.8370 0.9174 0.1351
N1_3 N 0.8734(8) 0.8811(4) 0.9243(10)
C1_3 C 0.9678(12) 0.9136(6) 0.918(2)
H2_3 H 0.9444 0.9497 0.8674
H6_3 H 0.7689 0.9477 0.9783
H19_3 H 0.827196 0.874623 0.810218
H20_3 H 0.899486 0.842857 0.976199
N1_4 N 0.1266(8) 0.3811(4) 0.5757(10)
C1_4 C 0.0322(12) 0.4136(6) 0.582(2)
H2_4 H 0.0556 0.4497 0.6326
C2_4 C 0.205(2) 0.4115(12) 0.474(3)
H4_4 H 0.2681 0.3873 0.4743
H5_4 H 0.1630 0.4174 0.3649
H6_4 H 0.2311 0.4477 0.5217
H19_4 H 0.172804 0.374623 0.689782
H20_4 H 0.100514 0.342857 0.523801
H1_4 H 0.9891 0.3933 0.6426
H3_4 H 0.9876 0.4200 0.4747
Cd1 Cd 0.23929(4) 0.21877(2) 0.45246(6)
O4 O 0.2164(8) 0.1419(3) 0.6167(10)
O5 O 0.2556(6) 0.1185(3) 0.3939(9)
C12 C 0.2797(8) 0.0051(4) 0.4650(11)
H15 H 0.2426 0.0115 0.3528
H16 H 0.3578 0.0149 0.4805
C13 C 0.2287(9) 0.0432(4) 0.5679(12)
H17 H 0.2681 0.0381 0.6798
H18 H 0.1516 0.0322 0.5563
C14 C 0.2333(7) 0.1054(3) 0.5234(10)
O10 O 0.1043(7) 0.2845(3) 0.3912(12)
O11 O 0.0486(7) 0.2091(3) 0.2562(13)
O12 O 0.2931(5) 0.2265(2) 0.2146(8)
O13 O 0.2931(5) 0.2735(2) 0.7146(8)
O14 O 0.4056(6) 0.2624(4) 0.5626(9)
Cd4 Cd 0.76071(4) 0.71877(2) 0.04754(6)
O1 O 0.0941(6) 0.9385(3) 0.3462(11)
O2 O 0.2484(7) 0.7828(3) 0.6289(12)
O3 O 0.4432(5) 0.9481(3) 0.6732(10)
O8 O 0.7069(5) 0.7735(2) 0.7854(8)
O9 O 0.5944(6) 0.7624(4) 0.9374(9)
N2 N 0.1669(5) 0.8601(3) 0.4864(9)
N3 N 0.3454(5) 0.8651(2) 0.6548(8)
N4 N 0.2704(5) 0.9438(3) 0.5039(9)
C3 C 0.1707(7) 0.9164(3) 0.4384(11)
C4 C 0.2534(6) 0.8325(3) 0.5929(10)
C5 C 0.3569(6) 0.9214(3) 0.6114(11)
C6 C 0.0627(6) 0.8268(4) 0.4238(11)
H8 H 0.0491 0.8022 0.5078
C7 C 0.0739(9) 0.7911(5) 0.2827(17)
H9 H 0.1335 0.7634 0.3178
H10 H 0.0931 0.8155 0.2023
C9 C 0.4372(6) 0.8371(4) 0.7733(9)
H11 H 0.4074 0.8059 0.8241
H12 H 0.4709 0.8645 0.8562
C10 C 0.5242(6) 0.8146(4) 0.6970(9)
H13 H 0.5590 0.8465 0.6555
H14 H 0.4890 0.7904 0.6069
C11 C 0.6134(7) 0.7806(3) 0.8128(10)
Cd3 Cd 0.76071(4) 0.78123(2) 0.54754(6)
O6 O 0.8957(7) 0.7845(3) 0.1088(12)
O7 O 0.9514(7) 0.7091(3) 0.2438(13)
H7 H 0.9999 0.8527 0.3907
C8 C 0.9661(7) 0.7601(5) 0.2099(12)
H7_2 H 0.0001 0.3527 0.1093
C8_2 C 0.0339(7) 0.2601(5) 0.2901(12)
O1_2 O 0.9059(6) 0.4385(3) 0.1538(11)
O5_2 O 0.7444(6) 0.6185(3) 0.1061(9)
N2_2 N 0.8331(5) 0.3601(3) 0.0136(9)
C3_2 C 0.8293(7) 0.4164(3) 0.0616(11)
C6_2 C 0.9373(6) 0.3268(4) 0.0762(11)
C7_2 C 0.9261(9) 0.2911(5) 0.2173(17)
H9_2 H 0.8665 0.2634 0.1822
H10_2 H 0.9069 0.3155 0.2977
C12_2 C 0.7203(8) 0.5051(4) 0.0350(11)
H15_2 H 0.7574 0.5115 0.1472
H16_2 H 0.6422 0.5149 0.0195
O12_2 O 0.7069(5) 0.7265(2) 0.2854(8)
O2_2 O 0.7516(7) 0.2828(3) 0.8711(12)
O3_2 O 0.5568(5) 0.4481(3) 0.8268(10)
O4_2 O 0.7836(8) 0.6419(3) 0.8833(10)
N3_2 N 0.6546(5) 0.3651(2) 0.8452(8)
N4_2 N 0.7296(5) 0.4438(3) 0.9961(9)
C4_2 C 0.7466(6) 0.3325(3) 0.9071(10)
C5_2 C 0.6431(6) 0.4214(3) 0.8886(11)
H8_2 H 0.9509 0.3022 0.9922
C9_2 C 0.5628(6) 0.3371(4) 0.7267(9)
H11_2 H 0.5926 0.3059 0.6759
H12_2 H 0.5291 0.3645 0.6438
C10_2 C 0.4758(6) 0.3146(4) 0.8030(9)
H13_2 H 0.4410 0.3465 0.8445
H14_2 H 0.5110 0.2904 0.8931
C11_2 C 0.3866(7) 0.2806(3) 0.6872(10)
C13_2 C 0.7713(9) 0.5432(4) 0.9321(12)
H17_2 H 0.7319 0.5381 0.8202
H18_2 H 0.8484 0.5322 0.9437
C14_2 C 0.7667(7) 0.6054(3) 0.9766(10)
Cd3_2 Cd 0.23929(4) 0.28123(2) 0.95246(6)
O6_2 O 0.1043(7) 0.2155(3) 0.8912(12)
O7_2 O 0.0486(7) 0.2909(3) 0.7562(13)
H7_3 H 0.0001 0.1473 0.6093
C8_3 C 0.0339(7) 0.2399(5) 0.7901(12)
O1_3 O 0.9059(6) 0.0615(3) 0.6538(11)
O2_3 O 0.7516(7) 0.2172(3) 0.3711(12)
O3_3 O 0.5568(5) 0.0519(3) 0.3268(10)
O9_2 O 0.4056(6) 0.2376(4) 0.0626(9)
N2_3 N 0.8331(5) 0.1399(3) 0.5136(9)
N3_3 N 0.6546(5) 0.1349(2) 0.3452(8)
N4_3 N 0.7296(5) 0.0562(3) 0.4961(9)
C3_3 C 0.8293(7) 0.0836(3) 0.5616(11)
C4_3 C 0.7466(6) 0.1675(3) 0.4071(10)
C5_3 C 0.6431(6) 0.0786(3) 0.3886(11)
C6_3 C 0.9373(6) 0.1732(4) 0.5762(11)
H8_3 H 0.9509 0.1978 0.4922
C7_3 C 0.9261(9) 0.2089(5) 0.7173(17)
H9_3 H 0.8665 0.2366 0.6822
H10_3 H 0.9069 0.1845 0.7977
C9_3 C 0.5628(6) 0.1629(4) 0.2267(9)
H11_3 H 0.5926 0.1941 0.1759
H12_3 H 0.5291 0.1355 0.1438
C10_3 C 0.4758(6) 0.1854(4) 0.3030(9)
H13_3 H 0.4410 0.1535 0.3445
H14_3 H 0.5110 0.2096 0.3931
C11_3 C 0.3866(7) 0.2194(3) 0.1872(10)
O4_3 O 0.7836(8) 0.8581(3) 0.3833(10)
O5_3 O 0.7444(6) 0.8815(3) 0.6061(9)
C12_3 C 0.7203(8) 0.9949(4) 0.5350(11)
H15_3 H 0.7574 0.9885 0.6472
H16_3 H 0.6422 0.9851 0.5195
C13_3 C 0.7713(9) 0.9568(4) 0.4321(12)
H17_3 H 0.7319 0.9619 0.3202
H18_3 H 0.8484 0.9678 0.4437
C14_3 C 0.7667(7) 0.8946(3) 0.4766(10)
O10_2 O 0.8957(7) 0.7155(3) 0.6088(12)
O11_2 O 0.9514(7) 0.7909(3) 0.7438(13)
O14_2 O 0.5944(6) 0.7376(4) 0.4374(9)
O2_4 O 0.2484(7) 0.7172(3) 0.1289(12)
O3_4 O 0.4432(5) 0.5519(3) 0.1732(10)
O4_4 O 0.2164(8) 0.3581(3) 0.1167(10)
N3_4 N 0.3454(5) 0.6349(2) 0.1548(8)
N4_4 N 0.2704(5) 0.5562(3) 0.0039(9)
C4_4 C 0.2534(6) 0.6675(3) 0.0929(10)
C5_4 C 0.3569(6) 0.5786(3) 0.1114(11)
H8_4 H 0.0491 0.6978 0.0078
C9_4 C 0.4372(6) 0.6629(4) 0.2733(9)
H11_4 H 0.4074 0.6941 0.3241
H12_4 H 0.4709 0.6355 0.3562
C10_4 C 0.5242(6) 0.6854(4) 0.1970(9)
H13_4 H 0.5590 0.6535 0.1555
H14_4 H 0.4890 0.7096 0.1069
C11_4 C 0.6134(7) 0.7194(3) 0.3128(10)
C13_4 C 0.2287(9) 0.4568(4) 0.0679(12)
H17_4 H 0.2681 0.4619 0.1798
H18_4 H 0.1516 0.4678 0.0563
C14_4 C 0.2333(7) 0.3946(3) 0.0234(10)
O1_4 O 0.0941(6) 0.5615(3) 0.8462(11)
O5_4 O 0.2556(6) 0.3815(3) 0.8939(9)
N2_4 N 0.1669(5) 0.6399(3) 0.9864(9)
C3_4 C 0.1707(7) 0.5836(3) 0.9384(11)
C6_4 C 0.0627(6) 0.6732(4) 0.9238(11)
C7_4 C 0.0739(9) 0.7089(5) 0.7827(17)
H9_4 H 0.1335 0.7366 0.8178
H10_4 H 0.0931 0.6845 0.7023
C12_4 C 0.2797(8) 0.4949(4) 0.9650(11)
H15_4 H 0.2426 0.4885 0.8528
H16_4 H 0.3578 0.4851 0.9805
H7_4 H 0.9999 0.6473 0.8907
C8_4 C 0.9661(7) 0.7399(5) 0.7099(12)
loop_
_geom_bond_atom_site_label_1
_geom_bond_atom_site_label_2
_geom_bond_site_symmetry_1
_geom_bond_site_symmetry_2
N1 C1 1_555 1_555
H2 C1 1_555 1_555
N1 H19 1_555 1_555
N1 H20 1_555 1_555
H4 C2 1_555 1_555
H5 C2 1_555 1_555
N1_2 C1_2 1_555 1_555
H2_2 C1_2 1_555 1_555
C2_2 N1_2 1_555 1_555
H4_2 C2_2 1_555 1_555
H5_2 C2_2 1_555 1_555
H6_2 C2_2 1_555 1_555
N1_2 H19_2 1_555 1_555
N1_2 H20_2 1_555 1_555
H4_3 C2_3 1_555 1_555
H5_3 C2_3 1_555 1_555
N1_3 C1_3 1_555 1_555
H2_3 C1_3 1_555 1_555
N1_3 H19_3 1_555 1_555
N1_3 H20_3 1_555 1_555
N1_4 C1_4 1_555 1_555
H2_4 C1_4 1_555 1_555
C2_4 N1_4 1_555 1_555
H4_4 C2_4 1_555 1_555
H5_4 C2_4 1_555 1_555
H6_4 C2_4 1_555 1_555
N1_4 H19_4 1_555 1_555
N1_4 H20_4 1_555 1_555
Cd1 O4 1_555 1_555
O4 C14 1_555 1_555
O5 Cd1 1_555 1_555
H15 C12 1_555 1_555
H16 C12 1_555 1_555
C13 C12 1_555 1_555
H17 C13 1_555 1_555
H18 C13 1_555 1_555
C14 O5 1_555 1_555
O10 Cd1 1_555 1_555
O11 Cd1 1_555 1_555
O12 Cd1 1_555 1_555
O13 Cd1 1_555 1_555
O14 Cd1 1_555 1_555
C13 C14 1_555 1_555
O1 C3 1_555 1_555
O2 C4 1_555 1_555
O3 C5 1_555 1_555
O8 C11 1_555 1_555
O9 C11 1_555 1_555
N2 C3 1_555 1_555
N3 C4 1_555 1_555
N4 C3 1_555 1_555
C4 N2 1_555 1_555
C5 N3 1_555 1_555
C6 N2 1_555 1_555
H8 C6 1_555 1_555
C7 C6 1_555 1_555
H9 C7 1_555 1_555
H10 C7 1_555 1_555
C9 N3 1_555 1_555
H11 C9 1_555 1_555
H12 C9 1_555 1_555
C10 C9 1_555 1_555
H13 C10 1_555 1_555
H14 C10 1_555 1_555
C11 C10 1_555 1_555
Cd3 O8 1_555 1_555
N4 C5 1_555 1_555
O6 C8 1_555 1_555
O7 C8 1_555 1_555
Cd4 O6 1_555 1_555
O7 Cd4 1_555 1_555
O10 C8_2 1_555 1_555
O11 C8_2 1_555 1_555
O1_2 C3_2 1_555 1_555
O5_2 Cd4 1_555 1_555
N2_2 C3_2 1_555 1_555
C6_2 N2_2 1_555 1_555
C7_2 C6_2 1_555 1_555
H9_2 C7_2 1_555 1_555
H10_2 C7_2 1_555 1_555
H15_2 C12_2 1_555 1_555
H16_2 C12_2 1_555 1_555
O12_2 Cd4 1_555 1_555
O2_2 C4_2 1_555 1_555
O3_2 C5_2 1_555 1_555
O4_2 C14_2 1_555 1_555
O13 C11_2 1_555 1_555
O14 C11_2 1_555 1_555
N3_2 C4_2 1_555 1_555
C5_2 N3_2 1_555 1_555
C9_2 N3_2 1_555 1_555
H11_2 C9_2 1_555 1_555
H12_2 C9_2 1_555 1_555
C10_2 C9_2 1_555 1_555
H13_2 C10_2 1_555 1_555
H14_2 C10_2 1_555 1_555
C11_2 C10_2 1_555 1_555
H17_2 C13_2 1_555 1_555
H18_2 C13_2 1_555 1_555
Cd3_2 O13 1_555 1_555
N4_2 C5_2 1_555 1_555
C13_2 C14_2 1_555 1_555
O6_2 C8_3 1_555 1_555
O7_2 C8_3 1_555 1_555
Cd3_2 O6_2 1_555 1_555
O7_2 Cd3_2 1_555 1_555
O1_3 C3_3 1_555 1_555
O2_3 C4_3 1_555 1_555
O3_3 C5_3 1_555 1_555
O12 C11_3 1_555 1_555
O9_2 C11_3 1_555 1_555
N2_3 C3_3 1_555 1_555
N3_3 C4_3 1_555 1_555
N4_3 C3_3 1_555 1_555
C4_3 N2_3 1_555 1_555
C5_3 N3_3 1_555 1_555
C6_3 N2_3 1_555 1_555
H8_3 C6_3 1_555 1_555
C7_3 C6_3 1_555 1_555
H9_3 C7_3 1_555 1_555
H10_3 C7_3 1_555 1_555
C9_3 N3_3 1_555 1_555
H11_3 C9_3 1_555 1_555
H12_3 C9_3 1_555 1_555
C10_3 C9_3 1_555 1_555
H13_3 C10_3 1_555 1_555
H14_3 C10_3 1_555 1_555
C11_3 C10_3 1_555 1_555
N4_3 C5_3 1_555 1_555
Cd3 O4_3 1_555 1_555
O4_3 C14_3 1_555 1_555
O5_3 Cd3 1_555 1_555
H15_3 C12_3 1_555 1_555
H16_3 C12_3 1_555 1_555
C13_3 C12_3 1_555 1_555
H17_3 C13_3 1_555 1_555
H18_3 C13_3 1_555 1_555
C14_3 O5_3 1_555 1_555
O10_2 Cd3 1_555 1_555
O11_2 Cd3 1_555 1_555
O12_2 Cd3 1_555 1_555
O14_2 Cd3 1_555 1_555
C13_3 C14_3 1_555 1_555
O2_4 C4_4 1_555 1_555
O3_4 C5_4 1_555 1_555
O4_4 C14_4 1_555 1_555
O12_2 C11_4 1_555 1_555
O14_2 C11_4 1_555 1_555
N3_4 C4_4 1_555 1_555
C5_4 N3_4 1_555 1_555
C9_4 N3_4 1_555 1_555
H11_4 C9_4 1_555 1_555
H12_4 C9_4 1_555 1_555
C10_4 C9_4 1_555 1_555
H13_4 C10_4 1_555 1_555
H14_4 C10_4 1_555 1_555
C11_4 C10_4 1_555 1_555
H17_4 C13_4 1_555 1_555
H18_4 C13_4 1_555 1_555
N4_4 C5_4 1_555 1_555
C13_4 C14_4 1_555 1_555
O1_4 C3_4 1_555 1_555
O5_4 Cd3_2 1_555 1_555
N2_4 C3_4 1_555 1_555
C6_4 N2_4 1_555 1_555
C7_4 C6_4 1_555 1_555
H9_4 C7_4 1_555 1_555
H10_4 C7_4 1_555 1_555
H15_4 C12_4 1_555 1_555
H16_4 C12_4 1_555 1_555
O10_2 C8_4 1_555 1_555
O11_2 C8_4 1_555 1_555

#END
