
###############################################################################
#
# This file contains modified crystal structure data generated from the
# MOF subset of the Cambridge Structural Database (CSD) v543 
# hosted by the Cambridge Crystallographic Data Centre (CCDC).
#
# This work is licensed under the Creative Commons
# Attribution-NonCommercial-ShareAlike 4.0 International License.
# To view a copy of this license, visit
# http://creativecommons.org/licenses/by-nc-sa/4.0/
# or send a letter to
# Creative Commons, PO Box 1866, Mountain View, CA 94042, USA.
#
# CIF created using the CSD Python API on 29 September 2022
# The structure has been converted into the P1 space group
# The structure has a 3D framework
# The original CSD entry TOHYUL is in the orthorhombic crystal system
# The framework has been calculated to contain at least 10.0% void space
# The void calculation uses a probe of radius 1.32A, grid spacing 0.4
# H atom positions have been added when not included in the experimental data
#
###############################################################################

data_TOHYUL
_chemical_formula_moiety         '(C136 H184 Cd12 N32 O78)n'
_symmetry_cell_setting           triclinic
_symmetry_space_group_name_H-M   'P 1'
_symmetry_Int_Tables_number      1
_space_group_name_Hall           'P 1'
loop_
_symmetry_equiv_pos_site_id
_symmetry_equiv_pos_as_xyz
1 x,y,z
_cell_length_a                   17.640(2)
_cell_length_b                   13.380(3)
_cell_length_c                   21.460(4)
_cell_angle_alpha                90
_cell_angle_beta                 90
_cell_angle_gamma                90
_cell_volume                     5065.06
loop_
_atom_site_label
_atom_site_type_symbol
_atom_site_fract_x
_atom_site_fract_y
_atom_site_fract_z
O17 O 0.3198(4) 0.1950(6) 0.8155(4)
O18 O 0.2170(4) 0.1797(6) 0.8749(4)
H17 H 0.2330 0.0394 0.9547
C20 C 0.3118(6) 0.0525(9) 0.8851(5)
H19 H 0.3297 0.0104 0.8514
H20 H 0.3547 0.0678 0.9117
C21 C 0.2800(6) 0.1501(8) 0.8579(5)
Cd6 Cd 0.12778(4) 0.29706(6) 0.85687(4)
Cd10 Cd 0.44341(4) 0.17052(6) 0.76575(4)
Cd14 Cd 0.30072(4) 0.35288(6) 0.78012(4)
O10 O 0.3910(5) 0.6702(6) 0.0214(5)
O11 O 0.3181(6) 0.9938(7) 0.0358(4)
O15 O 0.4401(4) 0.8348(6) 0.2129(4)
O16 O 0.3282(4) 0.8292(6) 0.2602(4)
N6 N 0.3469(5) 0.8291(7) 0.0349(4)
N7 N 0.0030(8) 0.3173(10) 0.0285(6)
C13 C 0.3522(6) 0.7396(9) 0.0027(6)
C14 C 0.3159(6) 0.9174(9) 0.0081(6)
C22 C 0.3853(7) 0.8391(11) 0.0945(6)
H21 H 0.4114 0.9030 0.0957
H22 H 0.4232 0.7869 0.0981
C23 C 0.3318(7) 0.8326(13) 0.1494(7)
H23 H 0.2980 0.8897 0.1485
H24 H 0.3012 0.7728 0.1452
C24 C 0.3717(6) 0.8299(9) 0.2112(6)
H31 H 0.0118 0.4596 0.0484
C29 C 0.017(2) 0.400(2) 0.1327(14)
H32 H 0.0018 0.4599 0.1536
H33 H 0.0713 0.3947 0.1329
Cd5 Cd 0.37222(4) 0.79706(6) 0.35687(4)
Cd9 Cd 0.55659(4) 0.82948(6) 0.26575(4)
Cd13 Cd 0.19928(4) 0.85288(6) 0.28012(4)
O4 O 0.0549(4) 0.1734(6) 0.8149(4)
O12 O 0.2417(7) 0.8068(7) 0.8713(4)
O13 O 0.2978(4) 0.4473(6) 0.8647(4)
O14 O 0.1802(4) 0.4315(6) 0.9006(4)
O19 O 0.0734(5) 0.2566(7) 0.9480(4)
N4 N 0.3136(5) 0.7358(7) 0.9469(5)
N5 N 0.2831(5) 0.9070(7) 0.9511(4)
C4 C 0.0612(6) 0.0010(9) 0.8750(6)
H2 H 0.0854 0.0498 0.9018
C15 C 0.2773(6) 0.8139(9) 0.9202(6)
C16 C 0.3156(8) 0.6379(9) 0.9116(6)
H13 H 0.3630 0.6037 0.9200
H14 H 0.3127 0.6508 0.8672
C17 C 0.2493(7) 0.5719(9) 0.9314(6)
H15 H 0.2548 0.5563 0.9753
H16 H 0.2027 0.6096 0.9264
C18 C 0.2422(7) 0.4753(8) 0.8955(5)
C19 C 0.2530(6) 0.9959(8) 0.9225(5)
H18 H 0.2114 0.9775 0.8953
C25 C 0.0587(8) 0.3233(13) 0.9850(8)
O22 O 0.0181(4) 0.3943(6) 0.8462(4)
O26 O 0.0599(4) 0.3348(6) 0.7129(4)
O27 O 0.1718(4) 0.3292(6) 0.7602(4)
H46 H 0.0922509 0.391542 0.982951
O8 O 0.1105(5) 0.6559(7) 0.1747(4)
O9 O 0.1646(5) 0.8039(7) 0.1839(4)
C10 C 0.0732(7) 0.7942(11) 0.0645(6)
H9 H 0.0296 0.7600 0.0820
H10 H 0.0753 0.8604 0.0828
C11 C 0.1457(7) 0.7363(10) 0.0824(6)
H11 H 0.1461 0.6705 0.0634
H12 H 0.1907 0.7724 0.0693
C12 C 0.1418(6) 0.7288(9) 0.1528(6)
Cd8 Cd 0.05659(4) 0.67052(6) 0.26575(4)
O1 O 0.0258(7) 0.8254(7) 0.8164(4)
O2 O 0.0161(5) 0.6470(7) 0.9940(4)
O3 O 0.0886(6) 0.9711(7) 0.9998(5)
N1 N 0.0558(5) 0.9048(8) 0.9076(5)
N2 N 0.0167(6) 0.7350(7) 0.9046(5)
N3 N 0.0628(5) 0.8038(8) 0.9970(5)
C1 C 0.0339(7) 0.8211(9) 0.8714(7)
C2 C 0.0328(6) 0.7245(10) 0.9672(6)
C3 C 0.0698(7) 0.8992(10) 0.9702(6)
H1 H 0.0921 0.9934 0.8379
C8 C 0.0437(6) 0.5726(9) 0.8582(7)
H7 H 0.0669 0.5515 0.8970
H8 H 0.0830 0.5991 0.8313
C9 C 0.0041(6) 0.4821(8) 0.8262(6)
Cd2 Cd 0.94341(4) 0.32948(6) 0.76575(4)
Cd3 Cd 0.80072(4) 0.14712(6) 0.78012(4)
O5 O 0.9331(4) 0.1695(6) 0.7944(5)
C5 C 0.9831(6) 0.0377(8) 0.8569(7)
H4 H 0.9531 0.0507 0.8940
C6 C 0.9927(7) 0.1328(8) 0.8197(6)
C27 C 0.8971(11) 0.2277(17) 0.9830(10)
H27 H 0.8674 0.1676 0.9849
H28 H 0.9196 0.2336 0.9425
H29 H 0.8651 0.2844 0.9907
O21 O 0.9574(4) 0.4980(5) 0.7849(5)
O23 O 0.8895(5) 0.3441(7) 0.6747(4)
O24 O 0.8354(5) 0.1961(7) 0.6839(4)
O25 O 0.7978(4) 0.0527(6) 0.8647(4)
O28 O 0.6718(4) 0.1708(6) 0.7602(4)
O29 O 0.8198(4) 0.3050(6) 0.8155(4)
H45 H 0.833672 0.0250626 0.648017
O20 O 0.7960(6) 0.9946(7) 0.7341(5)
N8 N 0.8146(8) 0.8742(9) 0.6624(6)
H3 H 0.9572 0.9876 0.8322
C7 C 0.9856(7) 0.6506(9) 0.8706(7)
H5 H 0.9650 0.6739 0.8313
H6 H 0.9444 0.6216 0.8945
C30 C 0.8153(8) 0.9680(9) 0.6809(7)
C31 C 0.8409(10) 0.8447(11) 0.6008(8)
H35 H 0.8581 0.9039 0.5789
H36 H 0.8841 0.8006 0.6056
C32 C 0.7824(11) 0.7928(13) 0.5612(10)
H37 H 0.8037 0.7777 0.5212
H38 H 0.7669 0.7319 0.5812
H39 H 0.7392 0.8357 0.5560
C33 C 0.7975(12) 0.7963(11) 0.7085(9)
H40 H 0.7668 0.7446 0.6893
H41 H 0.7687 0.8250 0.7426
C34 C 0.8662(17) 0.753(2) 0.732(2)
H42 H 0.8541 0.7020 0.7620
H43 H 0.8945 0.7243 0.6984
H44 H 0.8961 0.8040 0.7520
O6 O 0.0426(4) 0.5020(5) 0.2849(5)
O20_2 O 0.2040(6) 0.0054(7) 0.2341(5)
N8_2 N 0.1854(8) 0.1258(9) 0.1624(6)
H3_2 H 0.0428 0.0124 0.3322
C7_2 C 0.0144(7) 0.3494(9) 0.3706(7)
H5_2 H 0.0350 0.3261 0.3313
H6_2 H 0.0556 0.3784 0.3945
C30_2 C 0.1847(8) 0.0320(9) 0.1809(7)
C31_2 C 0.1591(10) 0.1553(11) 0.1008(8)
H35_2 H 0.1419 0.0961 0.0789
H36_2 H 0.1159 0.1994 0.1056
C32_2 C 0.2176(11) 0.2072(13) 0.0612(10)
H37_2 H 0.1963 0.2223 0.0212
H38_2 H 0.2331 0.2681 0.0812
H39_2 H 0.2608 0.1643 0.0560
C33_2 C 0.2025(12) 0.2037(11) 0.2085(9)
H40_2 H 0.2332 0.2554 0.1893
H41_2 H 0.2313 0.1750 0.2426
C34_2 C 0.1338(17) 0.247(2) 0.232(2)
H42_2 H 0.1459 0.2980 0.2620
H43_2 H 0.1055 0.2757 0.1984
H44_2 H 0.1039 0.1960 0.2520
O5_2 O 0.0669(4) 0.8305(6) 0.2944(5)
C5_2 C 0.0169(6) 0.9623(8) 0.3569(7)
H4_2 H 0.0469 0.9493 0.3940
C6_2 C 0.0073(7) 0.8672(8) 0.3197(6)
C26 C 0.0427(9) 0.7764(15) 0.5306(8)
H25 H 0.0102 0.8335 0.5230
H26 H 0.0652 0.7840 0.5716
C27_2 C 0.1029(11) 0.7723(17) 0.4830(10)
H27_2 H 0.1326 0.8324 0.4849
H28_2 H 0.0804 0.7664 0.4425
H29_2 H 0.1349 0.7156 0.4907
C28 C 0.0104(17) 0.5984(18) 0.5684(9)
H30 H 0.0647 0.5875 0.5698
H34 H 0.0042 0.6570 0.6539
O25_2 O 0.2022(4) 0.9473(6) 0.3647(4)
O29_2 O 0.1802(4) 0.6950(6) 0.3155(4)
H45_2 H 0.166328 0.974937 0.148017
O1_2 O 0.9742(7) 0.1746(7) 0.3164(4)
O2_2 O 0.9839(5) 0.3530(7) 0.4940(4)
O3_2 O 0.9114(6) 0.0289(7) 0.4998(5)
O7 O 0.9819(4) 0.6057(6) 0.3462(4)
N1_2 N 0.9442(5) 0.0952(8) 0.4076(5)
N2_2 N 0.9833(6) 0.2650(7) 0.4046(5)
N3_2 N 0.9372(5) 0.1962(8) 0.4970(5)
C1_2 C 0.9661(7) 0.1789(9) 0.3714(7)
C2_2 C 0.9672(6) 0.2755(10) 0.4672(6)
C3_2 C 0.9302(7) 0.1008(10) 0.4702(6)
H1_2 H 0.9079 0.0066 0.3379
C8_2 C 0.9563(6) 0.4274(9) 0.3582(7)
H7_2 H 0.9331 0.4485 0.3970
H8_2 H 0.9170 0.4009 0.3313
C9_2 C 0.9959(6) 0.5179(8) 0.3262(6)
C10_2 C 0.9268(7) 0.2058(11) 0.5645(6)
H9_2 H 0.9704 0.2400 0.5820
H10_2 H 0.9247 0.1396 0.5828
C11_2 C 0.8543(7) 0.2637(10) 0.5824(6)
H11_2 H 0.8539 0.3295 0.5634
H12_2 H 0.8093 0.2276 0.5693
C12_2 C 0.8582(6) 0.2712(9) 0.6528(6)
Cd4 Cd 0.87222(4) 0.70294(6) 0.35687(4)
O4_2 O 0.9451(4) 0.8266(6) 0.3149(4)
O10_2 O 0.6090(5) 0.3298(6) 0.5214(5)
O11_2 O 0.6819(6) 0.0062(7) 0.5358(4)
O12_2 O 0.7583(7) 0.1932(7) 0.3713(4)
O13_2 O 0.7022(4) 0.5527(6) 0.3647(4)
O14_2 O 0.8198(4) 0.5685(6) 0.4006(4)
O15_2 O 0.5599(4) 0.1652(6) 0.7129(4)
O19_2 O 0.9266(5) 0.7434(7) 0.4480(4)
N4_2 N 0.6864(5) 0.2642(7) 0.4469(5)
N5_2 N 0.7169(5) 0.0930(7) 0.4511(4)
N6_2 N 0.6531(5) 0.1709(7) 0.5349(4)
N7_2 N 0.9970(8) 0.6827(10) 0.5285(6)
C4_2 C 0.9388(6) 0.9990(9) 0.3750(6)
H2_2 H 0.9146 0.9502 0.4018
C13_2 C 0.6478(6) 0.2604(9) 0.5027(6)
C14_2 C 0.6841(6) 0.0826(9) 0.5081(6)
C15_2 C 0.7227(6) 0.1861(9) 0.4202(6)
C16_2 C 0.6844(8) 0.3621(9) 0.4116(6)
H13_2 H 0.6370 0.3963 0.4200
H14_2 H 0.6873 0.3492 0.3672
C17_2 C 0.7507(7) 0.4281(9) 0.4314(6)
H15_2 H 0.7452 0.4437 0.4753
H16_2 H 0.7973 0.3904 0.4264
C18_2 C 0.7578(7) 0.5247(8) 0.3955(5)
C19_2 C 0.7470(6) 0.0041(8) 0.4225(5)
H18_2 H 0.7886 0.0225 0.3953
C22_2 C 0.6147(7) 0.1609(11) 0.5945(6)
H21_2 H 0.5886 0.0970 0.5957
H22_2 H 0.5768 0.2131 0.5981
C23_2 C 0.6682(7) 0.1674(13) 0.6494(7)
H23_2 H 0.7020 0.1103 0.6485
H24_2 H 0.6988 0.2272 0.6452
C24_2 C 0.6283(6) 0.1701(9) 0.7112(6)
C25_2 C 0.9413(8) 0.6767(13) 0.4850(8)
H31_2 H 0.9882 0.5404 0.5484
C29_2 C 0.983(2) 0.600(2) 0.6327(14)
H32_2 H 0.9982 0.5401 0.6536
H33_2 H 0.9287 0.6053 0.6329
Cd5_2 Cd 0.62778(4) 0.20294(6) 0.85687(4)
Cd12 Cd 0.69928(4) 0.64712(6) 0.28012(4)
O26_2 O 0.9401(4) 0.6652(6) 0.2129(4)
O27_2 O 0.8282(4) 0.6708(6) 0.2602(4)
O30 O 0.7830(4) 0.8203(6) 0.3749(4)
H46_2 H 0.907749 0.608458 0.482951
O17_2 O 0.6802(4) 0.8050(6) 0.3155(4)
H17_2 H 0.7670 0.9606 0.4547
C20_2 C 0.6882(6) 0.9475(9) 0.3851(5)
H19_2 H 0.6703 0.9896 0.3514
H20_2 H 0.6453 0.9322 0.4117
C21_2 C 0.7200(6) 0.8499(8) 0.3579(5)
O10_3 O 0.1090(5) 0.1702(6) 0.5214(5)
O11_3 O 0.1819(6) 0.4938(7) 0.5358(4)
O12_3 O 0.2583(7) 0.3068(7) 0.3713(4)
O18_2 O 0.2830(4) 0.6797(6) 0.3749(4)
N4_3 N 0.1864(5) 0.2358(7) 0.4469(5)
N5_3 N 0.2169(5) 0.4070(7) 0.4511(4)
N6_3 N 0.1531(5) 0.3291(7) 0.5349(4)
C13_3 C 0.1478(6) 0.2396(9) 0.5027(6)
C14_3 C 0.1841(6) 0.4174(9) 0.5081(6)
C15_3 C 0.2227(6) 0.3139(9) 0.4202(6)
C16_3 C 0.1844(8) 0.1379(9) 0.4116(6)
H13_3 H 0.1370 0.1037 0.4200
H14_3 H 0.1873 0.1508 0.3672
C17_3 C 0.2507(7) 0.0719(9) 0.4314(6)
H15_3 H 0.2452 0.0563 0.4753
H16_3 H 0.2973 0.1096 0.4264
C19_3 C 0.2470(6) 0.4959(8) 0.4225(5)
H17_3 H 0.2670 0.5394 0.4547
H18_3 H 0.2886 0.4775 0.3953
C20_3 C 0.1882(6) 0.5525(9) 0.3851(5)
H19_3 H 0.1703 0.5104 0.3514
H20_3 H 0.1453 0.5678 0.4117
C21_3 C 0.2200(6) 0.6501(8) 0.3579(5)
C22_3 C 0.1147(7) 0.3391(11) 0.5945(6)
H21_3 H 0.0886 0.4030 0.5957
H22_3 H 0.0768 0.2869 0.5981
C23_3 C 0.1682(7) 0.3326(13) 0.6494(7)
H23_3 H 0.2020 0.3897 0.6485
H24_3 H 0.1988 0.2728 0.6452
C24_3 C 0.1283(6) 0.3299(9) 0.7112(6)
O1_3 O 0.4742(7) 0.3254(7) 0.3164(4)
O2_3 O 0.4839(5) 0.1470(7) 0.4940(4)
O3_3 O 0.4114(6) 0.4711(7) 0.4998(5)
O4_3 O 0.4451(4) 0.6734(6) 0.3149(4)
O5_3 O 0.5669(4) 0.6695(6) 0.2944(5)
O8_2 O 0.3895(5) 0.1559(7) 0.6747(4)
O9_2 O 0.3354(5) 0.3039(7) 0.6839(4)
O14_3 O 0.3198(4) 0.9315(6) 0.4006(4)
O19_3 O 0.4266(5) 0.7566(7) 0.4480(4)
O20_3 O 0.7040(6) 0.4946(7) 0.2341(5)
N1_3 N 0.4442(5) 0.4048(8) 0.4076(5)
N2_3 N 0.4833(6) 0.2350(7) 0.4046(5)
N3_3 N 0.4372(5) 0.3038(8) 0.4970(5)
N7_3 N 0.4970(8) 0.8173(10) 0.5285(6)
N8_3 N 0.6854(8) 0.3742(9) 0.1624(6)
C1_3 C 0.4661(7) 0.3211(9) 0.3714(7)
C2_3 C 0.4672(6) 0.2245(10) 0.4672(6)
C3_3 C 0.4302(7) 0.3992(10) 0.4702(6)
C4_3 C 0.4388(6) 0.5010(9) 0.3750(6)
H1_3 H 0.4079 0.4934 0.3379
H2_3 H 0.4146 0.5498 0.4018
C5_3 C 0.5169(6) 0.5377(8) 0.3569(7)
H3_3 H 0.5428 0.4876 0.3322
H4_3 H 0.5469 0.5507 0.3940
C6_3 C 0.5073(7) 0.6328(8) 0.3197(6)
C7_3 C 0.5144(7) 0.1506(9) 0.3706(7)
H5_3 H 0.5350 0.1739 0.3313
H6_3 H 0.5556 0.1216 0.3945
C8_3 C 0.4563(6) 0.0726(9) 0.3582(7)
H7_3 H 0.4331 0.0515 0.3970
H8_3 H 0.4170 0.0991 0.3313
C10_3 C 0.4268(7) 0.2942(11) 0.5645(6)
H9_3 H 0.4704 0.2600 0.5820
H10_3 H 0.4247 0.3604 0.5828
C11_3 C 0.3543(7) 0.2363(10) 0.5824(6)
H11_3 H 0.3539 0.1705 0.5634
H12_3 H 0.3093 0.2724 0.5693
C12_3 C 0.3582(6) 0.2288(9) 0.6528(6)
C18_3 C 0.2578(7) 0.9753(8) 0.3955(5)
C25_3 C 0.4413(8) 0.8233(13) 0.4850(8)
C26_2 C 0.5427(9) 0.7236(15) 0.5306(8)
H25_2 H 0.5102 0.6665 0.5230
H26_2 H 0.5652 0.7160 0.5716
C27_3 C 0.6029(11) 0.7277(17) 0.4830(10)
H27_3 H 0.6326 0.6676 0.4849
H28_3 H 0.5804 0.7336 0.4425
H29_3 H 0.6349 0.7844 0.4907
C28_2 C 0.5104(17) 0.9016(18) 0.5684(9)
H30_2 H 0.5647 0.9125 0.5698
H31_3 H 0.4882 0.9596 0.5484
C29_3 C 0.483(2) 0.900(2) 0.6327(14)
H32_3 H 0.4982 0.9599 0.6536
H33_3 H 0.4287 0.8947 0.6329
H34_2 H 0.5042 0.8430 0.6539
C30_3 C 0.6847(8) 0.4680(9) 0.1809(7)
C31_3 C 0.6591(10) 0.3447(11) 0.1008(8)
H35_3 H 0.6419 0.4039 0.0789
H36_3 H 0.6159 0.3006 0.1056
C32_3 C 0.7176(11) 0.2928(13) 0.0612(10)
H37_3 H 0.6963 0.2777 0.0212
H38_3 H 0.7331 0.2319 0.0812
H39_3 H 0.7608 0.3357 0.0560
C33_3 C 0.7025(12) 0.2963(11) 0.2085(9)
H40_3 H 0.7332 0.2446 0.1893
H41_3 H 0.7313 0.3250 0.2426
C34_3 C 0.6338(17) 0.253(2) 0.232(2)
H42_3 H 0.6459 0.2020 0.2620
H43_3 H 0.6055 0.2243 0.1984
H44_3 H 0.6039 0.3040 0.2520
O21_2 O 0.5426(4) 0.9980(5) 0.2849(5)
O22_2 O 0.4819(4) 0.8943(6) 0.3462(4)
O23_2 O 0.6105(5) 0.8441(7) 0.1747(4)
O24_2 O 0.6646(5) 0.6961(7) 0.1839(4)
H45_3 H 0.666328 0.525063 0.148017
H46_3 H 0.407749 0.891542 0.482951
C9_3 C 0.4959(6) 0.9821(8) 0.3262(6)
O6_2 O 0.4574(4) 0.0020(5) 0.7849(5)
O7_2 O 0.5181(4) 0.1057(6) 0.8462(4)
C9_4 C 0.5041(6) 0.0179(8) 0.8262(6)
N7_4 N 0.5030(8) 0.1827(10) 0.0285(6)
C10_4 C 0.5732(7) 0.7058(11) 0.0645(6)
H9_4 H 0.5296 0.7400 0.0820
H10_4 H 0.5753 0.6396 0.0828
C11_4 C 0.6457(7) 0.7637(10) 0.0824(6)
H11_4 H 0.6461 0.8295 0.0634
H12_4 H 0.6907 0.7276 0.0693
C12_4 C 0.6418(6) 0.7712(9) 0.1528(6)
C26_3 C 0.4573(9) 0.2764(15) 0.0306(8)
H25_3 H 0.4898 0.3335 0.0230
H26_3 H 0.4348 0.2840 0.0716
C28_3 C 0.4896(17) 0.0984(18) 0.0684(9)
H30_3 H 0.4353 0.0875 0.0698
H31_4 H 0.5118 0.0404 0.0484
C29_4 C 0.517(2) 0.100(2) 0.1327(14)
H32_4 H 0.5018 0.0401 0.1536
H33_4 H 0.5713 0.1053 0.1329
H34_3 H 0.4958 0.1570 0.1539
O1_4 O 0.5258(7) 0.6746(7) 0.8164(4)
O2_4 O 0.5161(5) 0.8530(7) 0.9940(4)
O3_4 O 0.5886(6) 0.5289(7) 0.9998(5)
O4_4 O 0.5549(4) 0.3266(6) 0.8149(4)
O5_4 O 0.4331(4) 0.3305(6) 0.7944(5)
O14_4 O 0.6802(4) 0.0685(6) 0.9006(4)
O19_4 O 0.5734(5) 0.2434(7) 0.9480(4)
O20_4 O 0.2960(6) 0.5054(7) 0.7341(5)
N1_4 N 0.5558(5) 0.5952(8) 0.9076(5)
N2_4 N 0.5167(6) 0.7650(7) 0.9046(5)
N3_4 N 0.5628(5) 0.6962(8) 0.9970(5)
N8_4 N 0.3146(8) 0.6258(9) 0.6624(6)
C1_4 C 0.5339(7) 0.6789(9) 0.8714(7)
C2_4 C 0.5328(6) 0.7755(10) 0.9672(6)
C3_4 C 0.5698(7) 0.6008(10) 0.9702(6)
C4_4 C 0.5612(6) 0.4990(9) 0.8750(6)
H1_4 H 0.5921 0.5066 0.8379
H2_4 H 0.5854 0.4502 0.9018
C5_4 C 0.4831(6) 0.4623(8) 0.8569(7)
H3_4 H 0.4572 0.5124 0.8322
H4_4 H 0.4531 0.4493 0.8940
C6_4 C 0.4927(7) 0.3672(8) 0.8197(6)
C7_4 C 0.4856(7) 0.8494(9) 0.8706(7)
H5_4 H 0.4650 0.8261 0.8313
H6_4 H 0.4444 0.8784 0.8945
C8_4 C 0.5437(6) 0.9274(9) 0.8582(7)
H7_4 H 0.5669 0.9485 0.8970
H8_4 H 0.5830 0.9009 0.8313
C18_4 C 0.7422(7) 0.0247(8) 0.8955(5)
C25_4 C 0.5587(8) 0.1767(13) 0.9850(8)
C27_4 C 0.3971(11) 0.2723(17) 0.9830(10)
H27_4 H 0.3674 0.3324 0.9849
H28_4 H 0.4196 0.2664 0.9425
H29_4 H 0.3651 0.2156 0.9907
C30_4 C 0.3153(8) 0.5320(9) 0.6809(7)
C31_4 C 0.3409(10) 0.6553(11) 0.6008(8)
H35_4 H 0.3581 0.5961 0.5789
H36_4 H 0.3841 0.6994 0.6056
C32_4 C 0.2824(11) 0.7072(13) 0.5612(10)
H37_4 H 0.3037 0.7223 0.5212
H38_4 H 0.2669 0.7681 0.5812
H39_4 H 0.2392 0.6643 0.5560
C33_4 C 0.2975(12) 0.7037(11) 0.7085(9)
H40_4 H 0.2668 0.7554 0.6893
H41_4 H 0.2687 0.6750 0.7426
C34_4 C 0.3662(17) 0.747(2) 0.732(2)
H42_4 H 0.3541 0.7980 0.7620
H43_4 H 0.3945 0.7757 0.6984
H44_4 H 0.3961 0.6960 0.7520
O30_2 O 0.7170(4) 0.3203(6) 0.8749(4)
H45_4 H 0.333672 0.474937 0.648017
H46_4 H 0.592251 0.108458 0.982951
O10_4 O 0.8910(5) 0.8298(6) 0.0214(5)
O11_4 O 0.8181(6) 0.5062(7) 0.0358(4)
N6_4 N 0.8469(5) 0.6709(7) 0.0349(4)
C13_4 C 0.8522(6) 0.7604(9) 0.0027(6)
C14_4 C 0.8159(6) 0.5826(9) 0.0081(6)
C22_4 C 0.8853(7) 0.6609(11) 0.0945(6)
H21_4 H 0.9114 0.5970 0.0957
H22_4 H 0.9232 0.7131 0.0981
C23_4 C 0.8318(7) 0.6674(13) 0.1494(7)
H23_4 H 0.7980 0.6103 0.1485
H24_4 H 0.8012 0.7272 0.1452
C24_4 C 0.8717(6) 0.6701(9) 0.2112(6)
O12_4 O 0.7417(7) 0.6932(7) 0.8713(4)
N4_4 N 0.8136(5) 0.7642(7) 0.9469(5)
N5_4 N 0.7831(5) 0.5930(7) 0.9511(4)
C15_4 C 0.7773(6) 0.6861(9) 0.9202(6)
C16_4 C 0.8156(8) 0.8621(9) 0.9116(6)
H13_4 H 0.8630 0.8963 0.9200
H14_4 H 0.8127 0.8492 0.8672
C17_4 C 0.7493(7) 0.9281(9) 0.9314(6)
H15_4 H 0.7548 0.9437 0.9753
H16_4 H 0.7027 0.8904 0.9264
C19_4 C 0.7530(6) 0.5041(8) 0.9225(5)
H17_4 H 0.7330 0.4606 0.9547
H18_4 H 0.7114 0.5225 0.8953
C20_4 C 0.8118(6) 0.4475(9) 0.8851(5)
H19_4 H 0.8297 0.4896 0.8514
H20_4 H 0.8547 0.4322 0.9117
C21_4 C 0.7800(6) 0.3499(8) 0.8579(5)
C26_4 C 0.9573(9) 0.2236(15) 0.0306(8)
H25_4 H 0.9898 0.1665 0.0230
H26_4 H 0.9348 0.2160 0.0716
C28_4 C 0.9896(17) 0.4016(18) 0.0684(9)
H30_4 H 0.9353 0.4125 0.0698
H34_4 H 0.9958 0.3430 0.1539
loop_
_geom_bond_atom_site_label_1
_geom_bond_atom_site_label_2
_geom_bond_site_symmetry_1
_geom_bond_site_symmetry_2
O17 C21 1_555 1_555
O18 C21 1_555 1_555
H19 C20 1_555 1_555
H20 C20 1_555 1_555
C21 C20 1_555 1_555
Cd6 O18 1_555 1_555
Cd10 O17 1_555 1_555
Cd14 O17 1_555 1_555
O10 C13 1_555 1_555
O11 C14 1_555 1_555
O15 C24 1_555 1_555
O16 C24 1_555 1_555
N6 C13 1_555 1_555
C14 N6 1_555 1_555
C22 N6 1_555 1_555
H21 C22 1_555 1_555
H22 C22 1_555 1_555
C23 C22 1_555 1_555
H23 C23 1_555 1_555
H24 C23 1_555 1_555
C24 C23 1_555 1_555
H32 C29 1_555 1_555
H33 C29 1_555 1_555
Cd5 O16 1_555 1_555
Cd9 O15 1_555 1_555
Cd13 O16 1_555 1_555
Cd6 O4 1_555 1_555
O12 C15 1_555 1_555
O13 C18 1_555 1_555
O14 Cd6 1_555 1_555
O19 Cd6 1_555 1_555
H2 C4 1_555 1_555
C15 N4 1_555 1_555
C16 N4 1_555 1_555
H13 C16 1_555 1_555
H14 C16 1_555 1_555
C17 C16 1_555 1_555
H15 C17 1_555 1_555
H16 C17 1_555 1_555
C18 O14 1_555 1_555
C19 N5 1_555 1_555
H18 C19 1_555 1_555
C25 O19 1_555 1_555
Cd14 O13 1_555 1_555
O22 Cd6 1_555 1_555
O27 Cd6 1_555 1_555
N5 C15 1_555 1_555
C17 C18 1_555 1_555
Cd14 O27 1_555 1_555
C25 H46 1_555 1_555
O8 C12 1_555 1_555
O9 C12 1_555 1_555
H9 C10 1_555 1_555
H10 C10 1_555 1_555
C11 C10 1_555 1_555
H11 C11 1_555 1_555
H12 C11 1_555 1_555
C12 C11 1_555 1_555
Cd8 O8 1_555 1_555
Cd13 O9 1_555 1_555
O1 C1 1_555 1_555
O2 C2 1_555 1_555
O3 C3 1_555 1_555
O22 C9 1_555 1_555
N1 C1 1_555 1_555
N2 C1 1_555 1_555
N3 C2 1_555 1_555
C2 N2 1_555 1_555
C3 N1 1_555 1_555
H7 C8 1_555 1_555
H8 C8 1_555 1_555
C9 C8 1_555 1_555
N3 C3 1_555 1_555
Cd2 O5 1_555 1_555
Cd3 O5 1_555 1_555
O5 C6 1_555 1_555
H4 C5 1_555 1_555
C6 C5 1_555 1_555
H27 C27 1_555 1_555
H28 C27 1_555 1_555
H29 C27 1_555 1_555
O21 Cd2 1_555 1_555
O23 Cd2 1_555 1_555
O24 Cd3 1_555 1_555
O25 Cd3 1_555 1_555
O28 Cd3 1_555 1_555
O29 Cd2 1_555 1_555
Cd3 O29 1_555 1_555
N8 C30 1_555 1_555
H5 C7 1_555 1_555
H6 C7 1_555 1_555
C30 O20 1_555 1_555
C31 N8 1_555 1_555
H35 C31 1_555 1_555
H36 C31 1_555 1_555
C32 C31 1_555 1_555
H37 C32 1_555 1_555
H38 C32 1_555 1_555
H39 C32 1_555 1_555
C33 N8 1_555 1_555
H40 C33 1_555 1_555
H41 C33 1_555 1_555
C34 C33 1_555 1_555
H42 C34 1_555 1_555
H43 C34 1_555 1_555
H44 C34 1_555 1_555
N8_2 C30_2 1_555 1_555
H5_2 C7_2 1_555 1_555
H6_2 C7_2 1_555 1_555
C30_2 O20_2 1_555 1_555
C31_2 N8_2 1_555 1_555
H35_2 C31_2 1_555 1_555
H36_2 C31_2 1_555 1_555
C32_2 C31_2 1_555 1_555
H37_2 C32_2 1_555 1_555
H38_2 C32_2 1_555 1_555
H39_2 C32_2 1_555 1_555
C33_2 N8_2 1_555 1_555
H40_2 C33_2 1_555 1_555
H41_2 C33_2 1_555 1_555
C34_2 C33_2 1_555 1_555
H42_2 C34_2 1_555 1_555
H43_2 C34_2 1_555 1_555
H44_2 C34_2 1_555 1_555
Cd8 O6 1_555 1_555
Cd8 O5_2 1_555 1_555
Cd13 O5_2 1_555 1_555
O5_2 C6_2 1_555 1_555
H4_2 C5_2 1_555 1_555
C6_2 C5_2 1_555 1_555
H25 C26 1_555 1_555
H26 C26 1_555 1_555
C27_2 C26 1_555 1_555
H27_2 C27_2 1_555 1_555
H28_2 C27_2 1_555 1_555
H29_2 C27_2 1_555 1_555
H30 C28 1_555 1_555
O25_2 Cd13 1_555 1_555
O29_2 Cd8 1_555 1_555
Cd13 O29_2 1_555 1_555
O1_2 C1_2 1_555 1_555
O2_2 C2_2 1_555 1_555
O3_2 C3_2 1_555 1_555
O7 C9_2 1_555 1_555
O23 C12_2 1_555 1_555
O24 C12_2 1_555 1_555
N1_2 C1_2 1_555 1_555
N2_2 C1_2 1_555 1_555
N3_2 C2_2 1_555 1_555
C2_2 N2_2 1_555 1_555
C3_2 N1_2 1_555 1_555
H7_2 C8_2 1_555 1_555
H8_2 C8_2 1_555 1_555
C9_2 C8_2 1_555 1_555
C10_2 N3_2 1_555 1_555
H9_2 C10_2 1_555 1_555
H10_2 C10_2 1_555 1_555
C11_2 C10_2 1_555 1_555
H11_2 C11_2 1_555 1_555
H12_2 C11_2 1_555 1_555
C12_2 C11_2 1_555 1_555
Cd4 O7 1_555 1_555
N3_2 C3_2 1_555 1_555
Cd4 O4_2 1_555 1_555
O10_2 C13_2 1_555 1_555
O11_2 C14_2 1_555 1_555
O12_2 C15_2 1_555 1_555
O13_2 C18_2 1_555 1_555
O14_2 Cd4 1_555 1_555
O15_2 C24_2 1_555 1_555
O28 C24_2 1_555 1_555
O19_2 Cd4 1_555 1_555
N4_2 C13_2 1_555 1_555
N5_2 C14_2 1_555 1_555
N6_2 C13_2 1_555 1_555
N7_2 C25_2 1_555 1_555
H2_2 C4_2 1_555 1_555
C14_2 N6_2 1_555 1_555
C15_2 N4_2 1_555 1_555
C16_2 N4_2 1_555 1_555
H13_2 C16_2 1_555 1_555
H14_2 C16_2 1_555 1_555
C17_2 C16_2 1_555 1_555
H15_2 C17_2 1_555 1_555
H16_2 C17_2 1_555 1_555
C18_2 O14_2 1_555 1_555
C19_2 N5_2 1_555 1_555
H18_2 C19_2 1_555 1_555
C22_2 N6_2 1_555 1_555
H21_2 C22_2 1_555 1_555
H22_2 C22_2 1_555 1_555
C23_2 C22_2 1_555 1_555
H23_2 C23_2 1_555 1_555
H24_2 C23_2 1_555 1_555
C24_2 C23_2 1_555 1_555
C25_2 O19_2 1_555 1_555
H32_2 C29_2 1_555 1_555
H33_2 C29_2 1_555 1_555
Cd5_2 O28 1_555 1_555
Cd10 O15_2 1_555 1_555
Cd12 O13_2 1_555 1_555
O27_2 Cd4 1_555 1_555
O30 Cd4 1_555 1_555
N5_2 C15_2 1_555 1_555
C17_2 C18_2 1_555 1_555
Cd12 O27_2 1_555 1_555
C25_2 H46_2 1_555 1_555
O17_2 C21_2 1_555 1_555
O30 C21_2 1_555 1_555
H19_2 C20_2 1_555 1_555
H20_2 C20_2 1_555 1_555
C21_2 C20_2 1_555 1_555
Cd9 O17_2 1_555 1_555
Cd12 O17_2 1_555 1_555
O10_3 C13_3 1_555 1_555
O11_3 C14_3 1_555 1_555
O12_3 C15_3 1_555 1_555
O26 C24_3 1_555 1_555
O27 C24_3 1_555 1_555
O29_2 C21_3 1_555 1_555
O18_2 C21_3 1_555 1_555
N4_3 C13_3 1_555 1_555
N5_3 C14_3 1_555 1_555
N6_3 C13_3 1_555 1_555
C14_3 N6_3 1_555 1_555
C15_3 N4_3 1_555 1_555
C16_3 N4_3 1_555 1_555
H13_3 C16_3 1_555 1_555
H14_3 C16_3 1_555 1_555
C17_3 C16_3 1_555 1_555
H15_3 C17_3 1_555 1_555
H16_3 C17_3 1_555 1_555
C19_3 N5_3 1_555 1_555
H17_3 C19_3 1_555 1_555
H18_3 C19_3 1_555 1_555
C20_3 C19_3 1_555 1_555
H19_3 C20_3 1_555 1_555
H20_3 C20_3 1_555 1_555
C21_3 C20_3 1_555 1_555
C22_3 N6_3 1_555 1_555
H21_3 C22_3 1_555 1_555
H22_3 C22_3 1_555 1_555
C23_3 C22_3 1_555 1_555
H23_3 C23_3 1_555 1_555
H24_3 C23_3 1_555 1_555
C24_3 C23_3 1_555 1_555
Cd5 O18_2 1_555 1_555
N5_3 C15_3 1_555 1_555
Cd5 O4_3 1_555 1_555
Cd9 O5_3 1_555 1_555
Cd12 O5_3 1_555 1_555
O1_3 C1_3 1_555 1_555
O2_3 C2_3 1_555 1_555
O3_3 C3_3 1_555 1_555
O4_3 C6_3 1_555 1_555
O5_3 C6_3 1_555 1_555
O8_2 C12_3 1_555 1_555
O9_2 C12_3 1_555 1_555
O25_2 C18_3 1_555 1_555
O14_3 Cd5 1_555 1_555
O19_3 Cd5 1_555 1_555
O20_3 Cd12 1_555 1_555
N1_3 C1_3 1_555 1_555
N2_3 C1_3 1_555 1_555
N3_3 C2_3 1_555 1_555
N7_3 C25_3 1_555 1_555
N8_3 C30_3 1_555 1_555
C2_3 N2_3 1_555 1_555
C3_3 N1_3 1_555 1_555
C4_3 N1_3 1_555 1_555
H1_3 C4_3 1_555 1_555
H2_3 C4_3 1_555 1_555
C5_3 C4_3 1_555 1_555
H3_3 C5_3 1_555 1_555
H4_3 C5_3 1_555 1_555
C6_3 C5_3 1_555 1_555
C7_3 N2_3 1_555 1_555
H5_3 C7_3 1_555 1_555
H6_3 C7_3 1_555 1_555
C8_3 C7_3 1_555 1_555
H7_3 C8_3 1_555 1_555
H8_3 C8_3 1_555 1_555
C10_3 N3_3 1_555 1_555
H9_3 C10_3 1_555 1_555
H10_3 C10_3 1_555 1_555
C11_3 C10_3 1_555 1_555
H11_3 C11_3 1_555 1_555
H12_3 C11_3 1_555 1_555
C12_3 C11_3 1_555 1_555
C18_3 O14_3 1_555 1_555
C25_3 O19_3 1_555 1_555
C26_2 N7_3 1_555 1_555
H25_2 C26_2 1_555 1_555
H26_2 C26_2 1_555 1_555
C27_3 C26_2 1_555 1_555
H27_3 C27_3 1_555 1_555
H28_3 C27_3 1_555 1_555
H29_3 C27_3 1_555 1_555
C28_2 N7_3 1_555 1_555
H30_2 C28_2 1_555 1_555
H31_3 C28_2 1_555 1_555
C29_3 C28_2 1_555 1_555
H32_3 C29_3 1_555 1_555
H33_3 C29_3 1_555 1_555
H34_2 C29_3 1_555 1_555
C30_3 O20_3 1_555 1_555
C31_3 N8_3 1_555 1_555
H35_3 C31_3 1_555 1_555
H36_3 C31_3 1_555 1_555
C32_3 C31_3 1_555 1_555
H37_3 C32_3 1_555 1_555
H38_3 C32_3 1_555 1_555
H39_3 C32_3 1_555 1_555
C33_3 N8_3 1_555 1_555
H40_3 C33_3 1_555 1_555
H41_3 C33_3 1_555 1_555
C34_3 C33_3 1_555 1_555
H42_3 C34_3 1_555 1_555
H43_3 C34_3 1_555 1_555
H44_3 C34_3 1_555 1_555
Cd10 O8_2 1_555 1_555
Cd14 O9_2 1_555 1_555
O21_2 Cd9 1_555 1_555
O22_2 Cd5 1_555 1_555
O23_2 Cd9 1_555 1_555
O24_2 Cd12 1_555 1_555
Cd9 O22_2 1_555 1_555
N3_3 C3_3 1_555 1_555
C30_3 H45_3 1_555 1_555
C25_3 H46_3 1_555 1_555
O21_2 C9_3 1_555 1_555
O22_2 C9_3 1_555 1_555
O6_2 C9_4 1_555 1_555
O7_2 C9_4 1_555 1_555
Cd5_2 O7_2 1_555 1_555
Cd10 O6_2 1_555 1_555
O7_2 Cd10 1_555 1_555
O23_2 C12_4 1_555 1_555
O24_2 C12_4 1_555 1_555
H9_4 C10_4 1_555 1_555
H10_4 C10_4 1_555 1_555
C11_4 C10_4 1_555 1_555
H11_4 C11_4 1_555 1_555
H12_4 C11_4 1_555 1_555
C12_4 C11_4 1_555 1_555
C26_3 N7_4 1_555 1_555
H25_3 C26_3 1_555 1_555
H26_3 C26_3 1_555 1_555
C28_3 N7_4 1_555 1_555
H30_3 C28_3 1_555 1_555
H31_4 C28_3 1_555 1_555
C29_4 C28_3 1_555 1_555
H32_4 C29_4 1_555 1_555
H33_4 C29_4 1_555 1_555
H34_3 C29_4 1_555 1_555
Cd5_2 O4_4 1_555 1_555
Cd10 O5_4 1_555 1_555
Cd14 O5_4 1_555 1_555
O1_4 C1_4 1_555 1_555
O2_4 C2_4 1_555 1_555
O3_4 C3_4 1_555 1_555
O4_4 C6_4 1_555 1_555
O5_4 C6_4 1_555 1_555
O25 C18_4 1_555 1_555
O14_4 Cd5_2 1_555 1_555
O19_4 Cd5_2 1_555 1_555
O20_4 Cd14 1_555 1_555
N1_4 C1_4 1_555 1_555
N2_4 C1_4 1_555 1_555
N3_4 C2_4 1_555 1_555
N8_4 C30_4 1_555 1_555
C2_4 N2_4 1_555 1_555
C3_4 N1_4 1_555 1_555
C4_4 N1_4 1_555 1_555
H1_4 C4_4 1_555 1_555
H2_4 C4_4 1_555 1_555
C5_4 C4_4 1_555 1_555
H3_4 C5_4 1_555 1_555
H4_4 C5_4 1_555 1_555
C6_4 C5_4 1_555 1_555
C7_4 N2_4 1_555 1_555
H5_4 C7_4 1_555 1_555
H6_4 C7_4 1_555 1_555
C8_4 C7_4 1_555 1_555
H7_4 C8_4 1_555 1_555
H8_4 C8_4 1_555 1_555
C18_4 O14_4 1_555 1_555
C25_4 O19_4 1_555 1_555
H27_4 C27_4 1_555 1_555
H28_4 C27_4 1_555 1_555
H29_4 C27_4 1_555 1_555
C30_4 O20_4 1_555 1_555
C31_4 N8_4 1_555 1_555
H35_4 C31_4 1_555 1_555
H36_4 C31_4 1_555 1_555
C32_4 C31_4 1_555 1_555
H37_4 C32_4 1_555 1_555
H38_4 C32_4 1_555 1_555
H39_4 C32_4 1_555 1_555
C33_4 N8_4 1_555 1_555
H40_4 C33_4 1_555 1_555
H41_4 C33_4 1_555 1_555
C34_4 C33_4 1_555 1_555
H42_4 C34_4 1_555 1_555
H43_4 C34_4 1_555 1_555
H44_4 C34_4 1_555 1_555
O30_2 Cd5_2 1_555 1_555
N3_4 C3_4 1_555 1_555
C30_4 H45_4 1_555 1_555
C25_4 H46_4 1_555 1_555
O10_4 C13_4 1_555 1_555
O11_4 C14_4 1_555 1_555
O26_2 C24_4 1_555 1_555
O27_2 C24_4 1_555 1_555
N6_4 C13_4 1_555 1_555
C14_4 N6_4 1_555 1_555
C22_4 N6_4 1_555 1_555
H21_4 C22_4 1_555 1_555
H22_4 C22_4 1_555 1_555
C23_4 C22_4 1_555 1_555
H23_4 C23_4 1_555 1_555
H24_4 C23_4 1_555 1_555
C24_4 C23_4 1_555 1_555
O12_4 C15_4 1_555 1_555
O29 C21_4 1_555 1_555
O30_2 C21_4 1_555 1_555
C15_4 N4_4 1_555 1_555
C16_4 N4_4 1_555 1_555
H13_4 C16_4 1_555 1_555
H14_4 C16_4 1_555 1_555
C17_4 C16_4 1_555 1_555
H15_4 C17_4 1_555 1_555
H16_4 C17_4 1_555 1_555
C19_4 N5_4 1_555 1_555
H17_4 C19_4 1_555 1_555
H18_4 C19_4 1_555 1_555
C20_4 C19_4 1_555 1_555
H19_4 C20_4 1_555 1_555
H20_4 C20_4 1_555 1_555
C21_4 C20_4 1_555 1_555
N5_4 C15_4 1_555 1_555
H25_4 C26_4 1_555 1_555
H26_4 C26_4 1_555 1_555
H30_4 C28_4 1_555 1_555

#END
