
###############################################################################
#
# This file contains modified crystal structure data generated from the
# MOF subset of the Cambridge Structural Database (CSD) v543 
# hosted by the Cambridge Crystallographic Data Centre (CCDC).
#
# This work is licensed under the Creative Commons
# Attribution-NonCommercial-ShareAlike 4.0 International License.
# To view a copy of this license, visit
# http://creativecommons.org/licenses/by-nc-sa/4.0/
# or send a letter to
# Creative Commons, PO Box 1866, Mountain View, CA 94042, USA.
#
# CIF created using the CSD Python API on 29 September 2022
# The structure has been converted into the P1 space group
# The structure has a 3D framework
# The original CSD entry TOHZAS is in the triclinic crystal system
# The framework has been calculated to contain at least 10.0% void space
# The void calculation uses a probe of radius 1.32A, grid spacing 0.4
#
###############################################################################

data_TOHZAS
_chemical_formula_moiety         '(C30 H38 Cd9 N6 O20)n'
_symmetry_cell_setting           triclinic
_symmetry_space_group_name_H-M   'P 1'
_symmetry_Int_Tables_number      1
_space_group_name_Hall           'P 1'
loop_
_symmetry_equiv_pos_site_id
_symmetry_equiv_pos_as_xyz
1 x,y,z
_cell_length_a                   9.550(2)
_cell_length_b                   13.300(5)
_cell_length_c                   13.377(4)
_cell_angle_alpha                61.820(5)
_cell_angle_beta                 69.880(7)
_cell_angle_gamma                76.100(5)
_cell_volume                     1400.06
loop_
_atom_site_label
_atom_site_type_symbol
_atom_site_fract_x
_atom_site_fract_y
_atom_site_fract_z
Cd4 Cd -0.0000 -0.0000 0.0000
Cd4_2 Cd -0.0000 -0.0000 1.0000
Cd4_3 Cd 0.0000 1.0000 0.0000
O9 O 0.0757(8) 0.0527(8) 0.8003(6)
C13 C 0.2080(19) 0.1042(14) 0.7143(14)
H13 H 0.2814 0.0805 0.7594
C14 C 0.192(4) 0.226(2) 0.667(3)
H14 H 0.1427 0.2493 0.7299
H15 H 0.1323 0.2568 0.6121
H16 H 0.2885 0.2545 0.6278
C15 C 0.276(5) 0.073(3) 0.628(3)
H18 H 0.3714 0.1035 0.5874
H19 H 0.2156 0.1006 0.5743
Cd4_4 Cd -0.0000 1.0000 1.0000
O26 O 0.1376(7) 0.1313(5) 0.9847(7)
O29 O 0.1958(8) 0.8710(6) 0.0253(7)
H17 H 0.2910 0.9904 0.6602
Cd4_5 Cd 1.0000 -0.0000 0.0000
Cd4_6 Cd 1.0000 -0.0000 1.0000
Cd9 Cd 0.62690(7) 0.10733(5) 0.90487(6)
Cd4_7 Cd 1.0000 1.0000 0.0000
Cd10 Cd 0.37310(7) 0.89267(5) 0.09513(6)
O11 O 0.7908(12) 0.5178(7) 0.0072(7)
O12 O 0.6164(13) 0.2206(7) 0.3550(8)
O13 O 0.7589(13) 0.5209(8) 0.3513(8)
O15 O 0.5934(11) 0.2104(11) 0.7233(7)
O18 O 0.8151(11) 0.1293(11) 0.7268(8)
O21 O 0.6240(7) 0.9211(5) 0.0196(6)
O25 O 0.8624(7) 0.8687(5) 0.0153(7)
N4 N 0.7847(9) 0.5205(6) 0.1765(7)
N5 N 0.6999(10) 0.3691(7) 0.1788(7)
N6 N 0.6921(10) 0.3666(7) 0.3560(7)
C16 C 0.7614(11) 0.4727(8) 0.1116(8)
C17 C 0.6675(12) 0.3121(8) 0.2990(9)
C18 C 0.7459(12) 0.4737(8) 0.2978(9)
C19 C 0.6515(11) 0.3233(9) 0.1156(10)
H20 H 0.6213 0.3867 0.0489
H21 H 0.5650 0.2811 0.1679
C20 C 0.7725(11) 0.2460(10) 0.0729(10)
H22 H 0.8051 0.1838 0.1392
H23 H 0.8578 0.2888 0.0184
C21 C 0.7191(10) 0.1971(8) 0.0124(8)
C22 C 0.6453(13) 0.3147(10) 0.4860(9)
H24 H 0.5635 0.2685 0.5138
H25 H 0.6083 0.3752 0.5122
C23 C 0.7682(15) 0.2419(13) 0.5393(10)
H26 H 0.8046 0.1814 0.5132
H27 H 0.8502 0.2882 0.5107
C24 C 0.7241(13) 0.1897(11) 0.6694(9)
C25 C 0.8354(10) 0.6376(7) 0.1117(10)
H28 H 0.9003 0.6483 0.0341
H29 H 0.8917 0.6477 0.1539
C26 C 0.7019(10) 0.7234(7) 0.1005(9)
H30 H 0.6355 0.7084 0.1785
H31 H 0.6484 0.7131 0.0565
C27 C 0.7382(10) 0.8475(7) 0.0398(8)
H36 H 0.7090 0.0096 0.3398
Cd4_8 Cd 1.0000 1.0000 1.0000
O14 O 0.5916(9) 0.2254(9) 0.9981(9)
O24 O 0.3760(7) 0.0789(5) 0.9804(6)
O28 O 0.8042(8) 0.1290(6) 0.9747(7)
O27 O 0.9243(8) 0.9473(8) 0.1997(6)
C28 C 0.7920(19) 0.8958(14) 0.2857(14)
H32 H 0.7186 0.9195 0.2406
C29 C 0.808(4) 0.774(2) 0.333(3)
H33 H 0.8573 0.7507 0.2701
H34 H 0.8677 0.7432 0.3879
H35 H 0.7115 0.7455 0.3722
C30 C 0.724(5) 0.927(3) 0.372(3)
H37 H 0.6286 0.8965 0.4126
H38 H 0.7844 0.8994 0.4257
O4 O 0.4084(9) 0.7746(9) 0.0019(9)
O16 O 0.4066(11) 0.7896(11) 0.2767(7)
O19 O 0.1849(11) 0.8707(11) 0.2732(8)
O1 O 0.2092(12) 0.4822(7) 0.9928(7)
O2 O 0.3836(13) 0.7794(7) 0.6450(8)
O3 O 0.2411(13) 0.4791(8) 0.6487(8)
N1 N 0.2153(9) 0.4795(6) 0.8235(7)
N2 N 0.3001(10) 0.6309(7) 0.8212(7)
N3 N 0.3079(10) 0.6334(7) 0.6440(7)
C1 C 0.2386(11) 0.5273(8) 0.8884(8)
C2 C 0.3325(12) 0.6879(8) 0.7010(9)
C3 C 0.2541(12) 0.5263(8) 0.7022(9)
C4 C 0.3485(11) 0.6767(9) 0.8844(10)
H1 H 0.3787 0.6133 0.9511
H2 H 0.4350 0.7189 0.8321
C5 C 0.2275(11) 0.7540(10) 0.9271(10)
H3 H 0.1949 0.8162 0.8608
H4 H 0.1422 0.7112 0.9816
C6 C 0.2809(10) 0.8029(8) 0.9876(8)
C7 C 0.3547(13) 0.6853(10) 0.5140(9)
H5 H 0.4365 0.7315 0.4862
H6 H 0.3917 0.6248 0.4878
C8 C 0.2318(15) 0.7581(13) 0.4607(10)
H7 H 0.1954 0.8186 0.4868
H8 H 0.1498 0.7118 0.4893
C9 C 0.2759(13) 0.8103(11) 0.3306(9)
C10 C 0.1646(10) 0.3624(7) 0.8883(10)
H9 H 0.0997 0.3517 0.9659
H10 H 0.1083 0.3523 0.8461
C11 C 0.2981(10) 0.2766(7) 0.8995(9)
H11 H 0.3645 0.2916 0.8215
H12 H 0.3516 0.2869 0.9435
C12 C 0.2618(10) 0.1525(7) 0.9602(8)
loop_
_geom_bond_atom_site_label_1
_geom_bond_atom_site_label_2
_geom_bond_site_symmetry_1
_geom_bond_site_symmetry_2
O9 Cd4_2 1_555 1_555
C13 O9 1_555 1_555
H13 C13 1_555 1_555
C14 C13 1_555 1_555
H14 C14 1_555 1_555
H15 C14 1_555 1_555
H16 C14 1_555 1_555
C15 C13 1_555 1_555
H18 C15 1_555 1_555
H19 C15 1_555 1_555
O26 Cd4_2 1_555 1_555
O29 Cd4_3 1_555 1_555
Cd4_7 O25 1_555 1_555
Cd9 O15 1_555 1_555
Cd10 O21 1_555 1_555
O11 C16 1_555 1_555
O12 C17 1_555 1_555
O13 C18 1_555 1_555
O15 C24 1_555 1_555
O18 Cd9 1_555 1_555
O21 C27 1_555 1_555
O25 C27 1_555 1_555
N4 C16 1_555 1_555
N5 C16 1_555 1_555
N6 C17 1_555 1_555
C17 N5 1_555 1_555
C18 N4 1_555 1_555
C19 N5 1_555 1_555
H20 C19 1_555 1_555
H21 C19 1_555 1_555
C20 C19 1_555 1_555
H22 C20 1_555 1_555
H23 C20 1_555 1_555
C22 N6 1_555 1_555
H24 C22 1_555 1_555
H25 C22 1_555 1_555
C23 C22 1_555 1_555
H26 C23 1_555 1_555
H27 C23 1_555 1_555
C24 O18 1_555 1_555
C25 N4 1_555 1_555
H28 C25 1_555 1_555
H29 C25 1_555 1_555
C26 C25 1_555 1_555
H30 C26 1_555 1_555
H31 C26 1_555 1_555
C27 C26 1_555 1_555
N6 C18 1_555 1_555
C20 C21 1_555 1_555
C23 C24 1_555 1_555
O14 Cd9 1_555 1_555
O24 Cd9 1_555 1_555
O28 Cd4_6 1_555 1_555
Cd9 O28 1_555 1_555
O27 Cd4_7 1_555 1_555
C28 O27 1_555 1_555
H32 C28 1_555 1_555
C29 C28 1_555 1_555
H33 C29 1_555 1_555
H34 C29 1_555 1_555
H35 C29 1_555 1_555
C30 C28 1_555 1_555
H37 C30 1_555 1_555
H38 C30 1_555 1_555
Cd10 O4 1_555 1_555
O29 Cd10 1_555 1_555
O16 Cd10 1_555 1_555
O19 Cd10 1_555 1_555
O1 C1 1_555 1_555
O2 C2 1_555 1_555
O3 C3 1_555 1_555
O16 C9 1_555 1_555
O19 C9 1_555 1_555
O24 C12 1_555 1_555
O26 C12 1_555 1_555
N1 C1 1_555 1_555
N2 C1 1_555 1_555
N3 C2 1_555 1_555
C2 N2 1_555 1_555
C3 N1 1_555 1_555
C4 N2 1_555 1_555
H1 C4 1_555 1_555
H2 C4 1_555 1_555
C5 C4 1_555 1_555
H3 C5 1_555 1_555
H4 C5 1_555 1_555
C6 C5 1_555 1_555
C7 N3 1_555 1_555
H5 C7 1_555 1_555
H6 C7 1_555 1_555
C8 C7 1_555 1_555
H7 C8 1_555 1_555
H8 C8 1_555 1_555
C9 C8 1_555 1_555
C10 N1 1_555 1_555
H9 C10 1_555 1_555
H10 C10 1_555 1_555
C11 C10 1_555 1_555
H11 C11 1_555 1_555
H12 C11 1_555 1_555
C12 C11 1_555 1_555
N3 C3 1_555 1_555

#END
