
###############################################################################
#
# This file contains modified crystal structure data generated from the
# MOF subset of the Cambridge Structural Database (CSD) v543 
# hosted by the Cambridge Crystallographic Data Centre (CCDC).
#
# This work is licensed under the Creative Commons
# Attribution-NonCommercial-ShareAlike 4.0 International License.
# To view a copy of this license, visit
# http://creativecommons.org/licenses/by-nc-sa/4.0/
# or send a letter to
# Creative Commons, PO Box 1866, Mountain View, CA 94042, USA.
#
# CIF created using the CSD Python API on 29 September 2022
# The structure has been converted into the P1 space group
# The structure has a 3D framework
# The original CSD entry TOKDON is in the monoclinic crystal system
# The framework has been calculated to contain at least 10.0% void space
# The void calculation uses a probe of radius 1.32A, grid spacing 0.4
#
###############################################################################

data_TOKDON
_chemical_formula_moiety         '(C36 H24 Cd4 O26)n'
_symmetry_cell_setting           triclinic
_symmetry_space_group_name_H-M   'P 1'
_symmetry_Int_Tables_number      1
_space_group_name_Hall           'P 1'
loop_
_symmetry_equiv_pos_site_id
_symmetry_equiv_pos_as_xyz
1 x,y,z
_cell_length_a                   10.1561(11)
_cell_length_b                   12.2843(13)
_cell_length_c                   14.6867(16)
_cell_angle_alpha                90
_cell_angle_beta                 102.9990(10)
_cell_angle_gamma                90
_cell_volume                     1785.37
loop_
_atom_site_label
_atom_site_type_symbol
_atom_site_fract_x
_atom_site_fract_y
_atom_site_fract_z
Cd1 Cd 0.18952(3) 0.07570(2) 0.061100(19)
O10 O 0.0385(3) 0.1832(3) 0.1048(2)
O16 O 0.4043(3) 0.1024(3) 0.0319(2)
O19 O 0.3499(3) 0.2126(3) 0.1356(2)
C1 C 0.2202(5) 0.9313(3) 0.2237(3)
C2 C 0.2595(4) 0.8426(3) 0.2944(3)
C3 C 0.3917(4) 0.8044(3) 0.3211(3)
H1 H 0.4591 0.8368 0.2968
C4 C 0.4241(4) 0.7187(3) 0.3835(3)
C5 C 0.5666(4) 0.6760(3) 0.4075(3)
C6 C 0.3236(4) 0.6706(3) 0.4195(3)
H2 H 0.3449 0.6132 0.4616
C7 C 0.1910(4) 0.7073(3) 0.3932(3)
C8 C 0.0804(4) 0.6538(3) 0.4297(3)
C9 C 0.1601(4) 0.7932(3) 0.3313(3)
H3 H 0.0715 0.8183 0.3141
O1 O 0.3064(3) 0.9636(3) 0.1801(2)
O2 O 0.1025(3) 0.9688(3) 0.2072(2)
H4 H 0.0470 0.9276 0.1709
O4 O 0.1095(4) 0.5854(3) 0.4931(3)
O5 O 0.5957(3) 0.6024(3) 0.4681(2)
O6 O 0.6501(3) 0.7126(3) 0.3644(2)
Cd4 Cd 0.18952(3) 0.42430(2) 0.561100(19)
Cd5 Cd 0.81048(3) 0.57570(2) 0.438900(19)
O13 O 0.1095(4) 0.9146(3) 0.9931(3)
C10 C 0.7798(5) 0.4313(3) 0.2763(3)
C11 C 0.7405(4) 0.3426(3) 0.2056(3)
C12 C 0.6083(4) 0.3044(3) 0.1789(3)
H7 H 0.5409 0.3368 0.2032
C13 C 0.5759(4) 0.2187(3) 0.1165(3)
C14 C 0.4334(4) 0.1760(3) 0.0925(3)
C15 C 0.6764(4) 0.1706(3) 0.0805(3)
H8 H 0.6551 0.1132 0.0384
C16 C 0.8090(4) 0.2073(3) 0.1068(3)
C17 C 0.9196(4) 0.1538(3) 0.0703(3)
C18 C 0.8399(4) 0.2932(3) 0.1687(3)
H9 H 0.9285 0.3183 0.1859
O8 O 0.6936(3) 0.4636(3) 0.3199(2)
O9 O 0.8975(3) 0.4688(3) 0.2928(2)
H10 H 0.9530 0.4276 0.3291
O11 O 0.9615(3) 0.6832(3) 0.3952(2)
O12 O 0.8905(4) 0.0854(3) 0.0069(3)
O14 O 0.8905(4) 0.4146(3) 0.5069(3)
O21 O 0.8809(4) 0.6382(4) 0.5899(3)
H11 H 0.9525 0.6724 0.5869
H12 H 0.9086 0.5797 0.6190
Cd6 Cd 0.81048(3) 0.92430(2) 0.938900(19)
O3 O 0.0385(3) 0.3168(3) 0.6048(2)
C10_2 C 0.2202(5) 0.5687(3) 0.7237(3)
C11_2 C 0.2595(4) 0.6574(3) 0.7944(3)
C12_2 C 0.3917(4) 0.6956(3) 0.8211(3)
H7_2 H 0.4591 0.6632 0.7968
C13_2 C 0.4241(4) 0.7813(3) 0.8835(3)
C14_2 C 0.5666(4) 0.8240(3) 0.9075(3)
C15_2 C 0.3236(4) 0.8294(3) 0.9195(3)
H8_2 H 0.3449 0.8868 0.9616
C16_2 C 0.1910(4) 0.7927(3) 0.8932(3)
C17_2 C 0.0804(4) 0.8462(3) 0.9297(3)
C18_2 C 0.1601(4) 0.7068(3) 0.8313(3)
H9_2 H 0.0715 0.6817 0.8141
O8_2 O 0.3064(3) 0.5364(3) 0.6801(2)
O9_2 O 0.1025(3) 0.5312(3) 0.7072(2)
H10_2 H 0.0470 0.5724 0.6709
O15 O 0.5957(3) 0.8976(3) 0.9681(2)
O17 O 0.4043(3) 0.3976(3) 0.5319(2)
O18 O 0.6501(3) 0.7874(3) 0.8644(2)
O20 O 0.3499(3) 0.2874(3) 0.6356(2)
O21_2 O 0.1191(4) 0.3618(4) 0.4101(3)
H11_2 H 0.0475 0.3276 0.4131
H12_2 H 0.0914 0.4203 0.3810
C1_2 C 0.7798(5) 0.0687(3) 0.7763(3)
C2_2 C 0.7405(4) 0.1574(3) 0.7056(3)
C3_2 C 0.6083(4) 0.1956(3) 0.6789(3)
H1_2 H 0.5409 0.1632 0.7032
C4_2 C 0.5759(4) 0.2813(3) 0.6165(3)
C5_2 C 0.4334(4) 0.3240(3) 0.5925(3)
C6_2 C 0.6764(4) 0.3294(3) 0.5805(3)
H2_2 H 0.6551 0.3868 0.5384
C7_2 C 0.8090(4) 0.2927(3) 0.6068(3)
C8_2 C 0.9196(4) 0.3462(3) 0.5703(3)
C9_2 C 0.8399(4) 0.2068(3) 0.6687(3)
H3_2 H 0.9285 0.1817 0.6859
O1_2 O 0.6936(3) 0.0364(3) 0.8199(2)
O2_2 O 0.8975(3) 0.0312(3) 0.7928(2)
H4_2 H 0.9530 0.0724 0.8291
O10_2 O 0.9615(3) 0.8168(3) 0.8952(2)
O7 O 0.1191(4) 0.1382(4) 0.9101(3)
H5 H 0.0475 0.1724 0.9131
H6 H 0.0914 0.0797 0.8810
O7_2 O 0.8809(4) 0.8618(4) 0.0899(3)
H5_2 H 0.9525 0.8276 0.0869
H6_2 H 0.9086 0.9203 0.1190
loop_
_geom_bond_atom_site_label_1
_geom_bond_atom_site_label_2
_geom_bond_site_symmetry_1
_geom_bond_site_symmetry_2
O10 Cd1 1_555 1_555
O16 Cd1 1_555 1_555
O19 Cd1 1_555 1_555
C1 C2 1_555 1_555
C2 C3 1_555 1_555
C3 H1 1_555 1_555
C4 C3 1_555 1_555
C5 C4 1_555 1_555
C6 C4 1_555 1_555
H2 C6 1_555 1_555
C7 C6 1_555 1_555
C8 C7 1_555 1_555
C9 C2 1_555 1_555
H3 C9 1_555 1_555
O1 C1 1_555 1_555
O2 C1 1_555 1_555
H4 O2 1_555 1_555
O4 C8 1_555 1_555
O5 C5 1_555 1_555
O6 C5 1_555 1_555
Cd4 O4 1_555 1_555
Cd5 O5 1_555 1_555
C7 C9 1_555 1_555
O6 Cd5 1_555 1_555
C10 C11 1_555 1_555
C11 C12 1_555 1_555
C12 H7 1_555 1_555
C13 C12 1_555 1_555
C14 C13 1_555 1_555
C15 C13 1_555 1_555
H8 C15 1_555 1_555
C16 C15 1_555 1_555
C17 C16 1_555 1_555
C18 C11 1_555 1_555
H9 C18 1_555 1_555
Cd5 O8 1_555 1_555
O8 C10 1_555 1_555
O9 C10 1_555 1_555
H10 O9 1_555 1_555
O11 Cd5 1_555 1_555
O12 C17 1_555 1_555
O14 Cd5 1_555 1_555
O16 C14 1_555 1_555
O19 C14 1_555 1_555
O21 Cd5 1_555 1_555
H11 O21 1_555 1_555
H12 O21 1_555 1_555
C16 C18 1_555 1_555
Cd4 O3 1_555 1_555
C10_2 C11_2 1_555 1_555
C11_2 C12_2 1_555 1_555
C12_2 H7_2 1_555 1_555
C13_2 C12_2 1_555 1_555
C14_2 C13_2 1_555 1_555
C15_2 C13_2 1_555 1_555
H8_2 C15_2 1_555 1_555
C16_2 C15_2 1_555 1_555
C17_2 C16_2 1_555 1_555
C18_2 C11_2 1_555 1_555
H9_2 C18_2 1_555 1_555
Cd4 O8_2 1_555 1_555
Cd6 O15 1_555 1_555
O8_2 C10_2 1_555 1_555
O9_2 C10_2 1_555 1_555
H10_2 O9_2 1_555 1_555
O13 C17_2 1_555 1_555
O15 C14_2 1_555 1_555
O17 Cd4 1_555 1_555
O18 C14_2 1_555 1_555
O20 Cd4 1_555 1_555
O21_2 Cd4 1_555 1_555
H11_2 O21_2 1_555 1_555
H12_2 O21_2 1_555 1_555
C16_2 C18_2 1_555 1_555
Cd6 O18 1_555 1_555
C1_2 C2_2 1_555 1_555
C2_2 C3_2 1_555 1_555
C3_2 H1_2 1_555 1_555
C4_2 C3_2 1_555 1_555
C5_2 C4_2 1_555 1_555
C6_2 C4_2 1_555 1_555
H2_2 C6_2 1_555 1_555
C7_2 C6_2 1_555 1_555
C8_2 C7_2 1_555 1_555
C9_2 C2_2 1_555 1_555
H3_2 C9_2 1_555 1_555
O1_2 C1_2 1_555 1_555
O2_2 C1_2 1_555 1_555
H4_2 O2_2 1_555 1_555
O14 C8_2 1_555 1_555
O17 C5_2 1_555 1_555
O20 C5_2 1_555 1_555
C7_2 C9_2 1_555 1_555
O10_2 Cd6 1_555 1_555
H5 O7 1_555 1_555
H6 O7 1_555 1_555
H5_2 O7_2 1_555 1_555
H6_2 O7_2 1_555 1_555

#END
