
###############################################################################
#
# This file contains modified crystal structure data generated from the
# MOF subset of the Cambridge Structural Database (CSD) v543 
# hosted by the Cambridge Crystallographic Data Centre (CCDC).
#
# This work is licensed under the Creative Commons
# Attribution-NonCommercial-ShareAlike 4.0 International License.
# To view a copy of this license, visit
# http://creativecommons.org/licenses/by-nc-sa/4.0/
# or send a letter to
# Creative Commons, PO Box 1866, Mountain View, CA 94042, USA.
#
# CIF created using the CSD Python API on 29 September 2022
# The structure has been converted into the P1 space group
# The structure has a 3D framework
# The original CSD entry TOLGOR is in the monoclinic crystal system
# The framework has been calculated to contain at least 10.0% void space
# The void calculation uses a probe of radius 1.32A, grid spacing 0.4
# H atom positions have been added when not included in the experimental data
#
###############################################################################

data_TOLGOR
_chemical_formula_moiety         '(C160 H164 Cd8 N28 O44)n'
_symmetry_cell_setting           triclinic
_symmetry_space_group_name_H-M   'P 1'
_symmetry_Int_Tables_number      1
_space_group_name_Hall           'P 1'
loop_
_symmetry_equiv_pos_site_id
_symmetry_equiv_pos_as_xyz
1 x,y,z
_cell_length_a                   16.893(14)
_cell_length_b                   16.155(13)
_cell_length_c                   20.514(17)
_cell_angle_alpha                90
_cell_angle_beta                 110.628(8)
_cell_angle_gamma                90
_cell_volume                     5239.47
loop_
_atom_site_label
_atom_site_type_symbol
_atom_site_fract_x
_atom_site_fract_y
_atom_site_fract_z
O5 O 0.2995(10) 0.0491(10) 0.1228(10)
O7 O 0.6769(11) 0.2764(13) 0.3297(11)
O8 O 0.6527(9) 0.3119(9) 0.2168(11)
N2 N 0.2597(15) 0.2130(12) 0.6073(15)
N3 N 0.3389(14) 0.1860(12) 0.6461(13)
N4 N 0.1184(19) 0.1614(16) 0.6506(17)
N5 N 0.1802(15) 0.2154(14) 0.6819(16)
N6 N 0.1633(11) 0.0611(12) 0.9654(10)
C2 C 0.2232(15) 0.0347(17) 0.4421(13)
H4 H 0.1772 0.0359 0.4571
C3 C 0.2907(13) 0.0817(13) 0.4757(12)
C4 C 0.3552(15) 0.0723(17) 0.4507(12)
H5 H 0.4057 0.1000 0.4732
C5 C 0.3494(12) 0.0255(15) 0.3957(12)
H6 H 0.3943 0.0247 0.3794
C6 C 0.2949(13) 0.1326(13) 0.5338(14)
C7 C 0.2318(15) 0.1840(15) 0.5405(16)
C8 C 0.1473(18) 0.207(2) 0.4886(15)
H7 H 0.1041 0.1746 0.4966
H8 H 0.1469 0.1970 0.4424
H9 H 0.1368 0.2648 0.4935
C9 C 0.3572(15) 0.1387(14) 0.6014(13)
C10 C 0.4461(15) 0.0936(19) 0.6264(18)
H10 H 0.4769 0.1077 0.6741
H11 H 0.4776 0.1110 0.5979
H12 H 0.4377 0.0348 0.6224
C11 C 0.212(2) 0.2666(16) 0.637(2)
H13 H 0.1647 0.2915 0.6002
H14 H 0.2475 0.3105 0.6640
C12 C 0.2063(15) 0.2130(14) 0.752(2)
C13 C 0.2675(19) 0.2711(18) 0.8032(19)
H15 H 0.3201 0.2714 0.7952
H16 H 0.2769 0.2529 0.8499
H17 H 0.2442 0.3260 0.7969
C14 C 0.1580(15) 0.1507(15) 0.7707(17)
C15 C 0.1044(18) 0.1216(19) 0.7005(14)
C16 C 0.032(2) 0.057(2) 0.6893(18)
H19 H 0.0536 0.0095 0.7189
H20 H 0.0111 0.0390 0.6415
C17 C 0.1605(14) 0.1234(16) 0.8351(19)
C18 C 0.2348(17) 0.1203(18) 0.8956(17)
H21 H 0.2848 0.1420 0.8934
C19 C 0.2355(16) 0.0863(17) 0.958(2)
H22 H 0.2865 0.0809 0.9948
C20 C 0.0940(14) 0.0742(18) 0.9114(15)
H23 H 0.0434 0.0668 0.9191
C21 C 0.0866(17) 0.0980(16) 0.8439(14)
H24 H 0.0351 0.0968 0.8071
C30 C 0.3499(13) 0.0441(12) 0.1847(16)
C31 C 0.4294(13) 0.1003(13) 0.2045(16)
C32 C 0.4809(15) 0.1103(15) 0.2710(15)
H29 H 0.4690 0.0801 0.3050
C33 C 0.5502(16) 0.1621(17) 0.2925(16)
H30 H 0.5842 0.1679 0.3390
C34 C 0.5661(12) 0.2077(12) 0.2360(15)
C35 C 0.6399(14) 0.2699(13) 0.2614(13)
C36 C 0.5166(12) 0.1988(15) 0.1713(13)
H31 H 0.5270 0.2298 0.1370
C37 C 0.4490(13) 0.1448(14) 0.1524(13)
H32 H 0.4164 0.1374 0.1056
Cd4 Cd 0.74664(8) 0.41792(8) 0.24448(8)
O12 O 0.1548(10) 0.0236(11) 0.2159(9)
O13 O 0.0922(7) 0.0632(8) 0.1069(7)
Cd6 Cd 0.17751(8) 0.98509(9) 0.06599(9)
Cd1 Cd 0.25336(8) 0.91792(8) 0.25552(8)
O1 O 0.0867(10) 0.7912(10) 0.1677(9)
O2 O 0.1544(10) 0.8363(10) 0.2754(9)
O6 O 0.3476(9) 0.9978(10) 0.2307(9)
O9 O 0.0524(8) 0.9095(9) 0.0103(8)
O10 O 0.1991(7) 0.8756(8) 0.1419(7)
H1 H 0.1459 0.8473 0.1338
H2 H 0.2379 0.8366 0.1331
O11 O 0.2453(12) 0.8983(11) 0.0059(11)
N1 N 0.2789(9) 0.9782(10) 0.3624(9)
C1 C 0.2185(12) 0.9844(14) 0.3860(12)
H3 H 0.1694 0.9540 0.3647
C22 C 0.1013(11) 0.7924(11) 0.2313(11)
C23 C 0.0501(12) 0.7332(11) 0.2588(12)
C27 C 0.012(2) 0.674(2) 0.3513(19)
H27 H 0.0228 0.6700 0.3988
C28 C 0.0562(18) 0.7304(18) 0.3285(14)
H28 H 0.0913 0.7679 0.3600
C38 C 0.260(2) 0.832(2) 0.004(2)
H33 H 0.2513 0.8013 0.0391
H39 H 0.2865 0.6777 0.0003
O14 O 0.3473(9) 0.8119(9) 0.2832(11)
H40 H 0.0286065 0.890212 0.0455416
O3 O 0.8452(10) 0.5236(11) 0.2841(9)
O4 O 0.9078(7) 0.5632(8) 0.3931(7)
C24 C 0.9919(13) 0.6796(13) 0.2135(11)
H25 H 0.9862 0.6786 0.1667
C25 C 0.9426(13) 0.6281(14) 0.2368(13)
H26 H 0.9019 0.5952 0.2050
C26 C 0.9525(11) 0.6243(12) 0.3068(11)
C29 C 0.9001(11) 0.5637(11) 0.3304(14)
Cd5 Cd 0.82249(8) 0.48509(9) 0.43401(9)
C24_2 C 0.0081(13) 0.1796(13) 0.2865(11)
H25_2 H 0.0138 0.1786 0.3333
C25_2 C 0.0574(13) 0.1281(14) 0.2632(13)
H26_2 H 0.0981 0.0952 0.2950
C26_2 C 0.0475(11) 0.1243(12) 0.1932(11)
C29_2 C 0.0999(11) 0.0637(11) 0.1696(14)
O1_2 O 0.9133(10) 0.2912(10) 0.3323(9)
O2_2 O 0.8456(10) 0.3363(10) 0.2246(9)
O5_2 O 0.7005(10) 0.5491(10) 0.3772(10)
O6_2 O 0.6524(9) 0.4978(10) 0.2693(9)
O7_2 O 0.3231(11) 0.7764(13) 0.1703(11)
O9_2 O 0.9476(8) 0.4095(9) 0.4897(8)
O10_2 O 0.8009(7) 0.3756(8) 0.3581(7)
H1_2 H 0.8541 0.3473 0.3662
H2_2 H 0.7621 0.3366 0.3669
O11_2 O 0.7547(12) 0.3983(11) 0.4941(11)
N1_2 N 0.7211(9) 0.4782(10) 0.1376(9)
N7 N 0.7144(15) 0.2869(16) 0.5364(12)
C1_2 C 0.7815(12) 0.4844(14) 0.1140(12)
H3_2 H 0.8306 0.4540 0.1353
C2_2 C 0.7768(15) 0.5347(17) 0.0579(13)
H4_2 H 0.8228 0.5359 0.0429
C3_2 C 0.7093(13) 0.5817(13) 0.0243(12)
C4_2 C 0.6448(15) 0.5723(17) 0.0493(12)
H5_2 H 0.5943 0.6000 0.0268
C5_2 C 0.6506(12) 0.5255(15) 0.1043(12)
H6_2 H 0.6057 0.5247 0.1206
C8_2 C 0.8527(18) 0.707(2) 0.0114(15)
H7_2 H 0.8959 0.6746 0.0034
H8_2 H 0.8531 0.6970 0.0576
H9_2 H 0.8632 0.7648 0.0065
C22_2 C 0.8987(11) 0.2924(11) 0.2687(11)
C23_2 C 0.9499(12) 0.2332(11) 0.2412(12)
C27_2 C 0.988(2) 0.174(2) 0.1487(19)
H27_2 H 0.9772 0.1700 0.1012
C28_2 C 0.9438(18) 0.2304(18) 0.1715(14)
H28_2 H 0.9087 0.2679 0.1400
C30_2 C 0.6501(13) 0.5441(12) 0.3153(16)
C31_2 C 0.5706(13) 0.6003(13) 0.2955(16)
C32_2 C 0.5191(15) 0.6103(15) 0.2290(15)
H29_2 H 0.5310 0.5801 0.1950
C33_2 C 0.4498(16) 0.6621(17) 0.2075(16)
H30_2 H 0.4158 0.6679 0.1610
C34_2 C 0.4339(12) 0.7077(12) 0.2640(15)
C35_2 C 0.3601(14) 0.7699(13) 0.2386(13)
C36_2 C 0.4834(12) 0.6988(15) 0.3287(13)
H31_2 H 0.4730 0.7298 0.3630
C37_2 C 0.5510(13) 0.6448(14) 0.3476(13)
H32_2 H 0.5836 0.6374 0.3944
C38_2 C 0.740(2) 0.332(2) 0.496(2)
H33_2 H 0.7487 0.3013 0.4609
C39 C 0.701(3) 0.327(3) 0.5889(19)
H34 H 0.7065 0.3858 0.5832
H35 H 0.7424 0.3099 0.6324
H36 H 0.6455 0.3150 0.5886
C40 C 0.707(4) 0.203(3) 0.540(3)
H37 H 0.6530 0.1891 0.5420
H38 H 0.7509 0.1825 0.5812
H39_2 H 0.7135 0.1777 0.4997
N8 N 0.8367(11) 0.5611(12) 0.5346(10)
H40_2 H 0.971393 0.390212 0.454458
H41 H 0.989443 0.445503 0.524184
N2_2 N 0.7403(15) 0.7130(12) 0.8927(15)
N3_2 N 0.6611(14) 0.6860(12) 0.8539(13)
N4_2 N 0.8816(19) 0.6614(16) 0.8494(17)
N5_2 N 0.8198(15) 0.7154(14) 0.8181(16)
C6_2 C 0.7051(13) 0.6326(13) 0.9662(14)
C7_2 C 0.7682(15) 0.6840(15) 0.9595(16)
C9_2 C 0.6428(15) 0.6387(14) 0.8986(13)
C10_2 C 0.5539(15) 0.5936(19) 0.8736(18)
H10_2 H 0.5231 0.6077 0.8259
H11_2 H 0.5224 0.6110 0.9021
H12_2 H 0.5623 0.5348 0.8776
C11_2 C 0.788(2) 0.7666(16) 0.863(2)
H13_2 H 0.8353 0.7915 0.8998
H14_2 H 0.7525 0.8105 0.8360
C12_2 C 0.7937(15) 0.7130(14) 0.748(2)
C13_2 C 0.7325(19) 0.7711(18) 0.6968(19)
H15_2 H 0.6799 0.7714 0.7048
H16_2 H 0.7231 0.7529 0.6501
H17_2 H 0.7558 0.8260 0.7031
C14_2 C 0.8420(15) 0.6507(15) 0.7293(17)
C15_2 C 0.8956(18) 0.6216(19) 0.7995(14)
C16_2 C 0.968(2) 0.557(2) 0.8107(18)
H19_2 H 0.9464 0.5095 0.7811
H20_2 H 0.9889 0.5390 0.8585
C17_2 C 0.8395(14) 0.6234(16) 0.6649(19)
C18_2 C 0.7652(17) 0.6203(18) 0.6044(17)
H21_2 H 0.7152 0.6420 0.6066
C19_2 C 0.7645(16) 0.5863(17) 0.542(2)
H22_2 H 0.7135 0.5809 0.5052
C20_2 C 0.9060(14) 0.5742(18) 0.5886(15)
H23_2 H 0.9566 0.5668 0.5809
C21_2 C 0.9134(17) 0.5980(16) 0.6561(14)
H24_2 H 0.9649 0.5968 0.6929
N7_2 N 0.2856(15) 0.7869(16) 0.9636(12)
C39_2 C 0.299(3) 0.827(3) 0.9111(19)
H34_2 H 0.2935 0.8858 0.9168
H35_2 H 0.2576 0.8099 0.8676
H36_2 H 0.3545 0.8150 0.9114
C40_2 C 0.293(4) 0.703(3) 0.960(3)
H37_2 H 0.3470 0.6891 0.9580
H38_2 H 0.2491 0.6825 0.9188
H41_2 H 0.0105567 0.945503 0.975816
H18 H 0.9867 0.0812 0.7007
H18_2 H 0.0133 0.5812 0.7993
O3_2 O 0.1548(10) 0.4764(11) 0.7159(9)
O4_2 O 0.0922(7) 0.4368(8) 0.6069(7)
C24_3 C 0.0081(13) 0.3204(13) 0.7865(11)
H25_3 H 0.0138 0.3214 0.8333
C25_3 C 0.0574(13) 0.3719(14) 0.7632(13)
H26_3 H 0.0981 0.4048 0.7950
C26_3 C 0.0475(11) 0.3757(12) 0.6932(11)
C29_3 C 0.0999(11) 0.4363(11) 0.6696(14)
Cd3 Cd 0.25336(8) 0.58208(8) 0.75552(8)
Cd5_2 Cd 0.17751(8) 0.51491(9) 0.56599(9)
Cd1_2 Cd 0.74664(8) 0.08208(8) 0.74448(8)
Cd2 Cd 0.82249(8) 0.01491(9) 0.93401(9)
O1_3 O 0.9133(10) 0.2088(10) 0.8323(9)
O2_3 O 0.8456(10) 0.1637(10) 0.7246(9)
O6_3 O 0.6524(9) 0.0022(10) 0.7693(9)
O9_3 O 0.9476(8) 0.0905(9) 0.9897(8)
O10_3 O 0.8009(7) 0.1244(8) 0.8581(7)
H1_3 H 0.8541 0.1527 0.8662
H2_3 H 0.7621 0.1634 0.8669
O11_3 O 0.7547(12) 0.1017(11) 0.9941(11)
N1_3 N 0.7211(9) 0.0218(10) 0.6376(9)
C1_3 C 0.7815(12) 0.0156(14) 0.6140(12)
H3_3 H 0.8306 0.0460 0.6353
C22_3 C 0.8987(11) 0.2076(11) 0.7687(11)
C23_3 C 0.9499(12) 0.2668(11) 0.7412(12)
C27_3 C 0.988(2) 0.326(2) 0.6487(19)
H27_3 H 0.9772 0.3300 0.6012
C28_3 C 0.9438(18) 0.2696(18) 0.6715(14)
H28_3 H 0.9087 0.2321 0.6400
C38_3 C 0.740(2) 0.168(2) 0.996(2)
H33_3 H 0.7487 0.1987 0.9609
H39_3 H 0.7135 0.3223 0.9997
O14_2 O 0.6527(9) 0.1881(9) 0.7168(11)
H40_3 H 0.971393 0.109788 0.954458
N8_2 N 0.8367(11) 0.9389(12) 0.0346(10)
O5_3 O 0.7005(10) 0.9509(10) 0.8772(10)
O7_3 O 0.3231(11) 0.7236(13) 0.6703(11)
O8_2 O 0.3473(9) 0.6881(9) 0.7832(11)
N2_3 N 0.7403(15) 0.7870(12) 0.3927(15)
N3_3 N 0.6611(14) 0.8140(12) 0.3539(13)
N4_3 N 0.8816(19) 0.8386(16) 0.3494(17)
N5_3 N 0.8198(15) 0.7846(14) 0.3181(16)
C2_3 C 0.7768(15) 0.9653(17) 0.5579(13)
H4_3 H 0.8228 0.9641 0.5429
C3_3 C 0.7093(13) 0.9183(13) 0.5243(12)
C4_3 C 0.6448(15) 0.9277(17) 0.5493(12)
H5_3 H 0.5943 0.9000 0.5268
C5_3 C 0.6506(12) 0.9745(15) 0.6043(12)
H6_3 H 0.6057 0.9753 0.6206
C6_3 C 0.7051(13) 0.8674(13) 0.4662(14)
C7_3 C 0.7682(15) 0.8160(15) 0.4595(16)
C8_3 C 0.8527(18) 0.793(2) 0.5114(15)
H7_3 H 0.8959 0.8254 0.5034
H8_3 H 0.8531 0.8030 0.5576
H9_3 H 0.8632 0.7352 0.5065
C9_3 C 0.6428(15) 0.8613(14) 0.3986(13)
C10_3 C 0.5539(15) 0.9064(19) 0.3736(18)
H10_3 H 0.5231 0.8923 0.3259
H11_3 H 0.5224 0.8890 0.4021
H12_3 H 0.5623 0.9652 0.3776
C11_3 C 0.788(2) 0.7334(16) 0.363(2)
H13_3 H 0.8353 0.7085 0.3998
H14_3 H 0.7525 0.6895 0.3360
C12_3 C 0.7937(15) 0.7870(14) 0.248(2)
C13_3 C 0.7325(19) 0.7289(18) 0.1968(19)
H15_3 H 0.6799 0.7286 0.2048
H16_3 H 0.7231 0.7471 0.1501
H17_3 H 0.7558 0.6740 0.2031
C14_3 C 0.8420(15) 0.8493(15) 0.2293(17)
C15_3 C 0.8956(18) 0.8784(19) 0.2995(14)
C16_3 C 0.968(2) 0.943(2) 0.3107(18)
H19_3 H 0.9464 0.9905 0.2811
H20_3 H 0.9889 0.9610 0.3585
C17_3 C 0.8395(14) 0.8766(16) 0.1649(19)
C18_3 C 0.7652(17) 0.8797(18) 0.1044(17)
H21_3 H 0.7152 0.8580 0.1066
C19_3 C 0.7645(16) 0.9137(17) 0.042(2)
H22_3 H 0.7135 0.9191 0.0052
C20_3 C 0.9060(14) 0.9258(18) 0.0886(15)
H23_3 H 0.9566 0.9332 0.0809
C21_3 C 0.9134(17) 0.9020(16) 0.1561(14)
H24_3 H 0.9649 0.9032 0.1929
C30_3 C 0.6501(13) 0.9559(12) 0.8153(16)
C31_3 C 0.5706(13) 0.8997(13) 0.7955(16)
C32_3 C 0.5191(15) 0.8897(15) 0.7290(15)
H29_3 H 0.5310 0.9199 0.6950
C33_3 C 0.4498(16) 0.8379(17) 0.7075(16)
H30_3 H 0.4158 0.8321 0.6610
C34_3 C 0.4339(12) 0.7923(12) 0.7640(15)
C35_3 C 0.3601(14) 0.7301(13) 0.7386(13)
C36_3 C 0.4834(12) 0.8012(15) 0.8287(13)
H31_3 H 0.4730 0.7702 0.8630
C37_3 C 0.5510(13) 0.8552(14) 0.8476(13)
H32_3 H 0.5836 0.8626 0.8944
O12_2 O 0.8452(10) 0.9764(11) 0.7841(9)
O13_2 O 0.9078(7) 0.9368(8) 0.8931(7)
N2_4 N 0.2597(15) 0.2870(12) 0.1073(15)
N3_4 N 0.3389(14) 0.3140(12) 0.1461(13)
N4_4 N 0.1184(19) 0.3386(16) 0.1506(17)
N5_4 N 0.1802(15) 0.2846(14) 0.1819(16)
N6_2 N 0.1633(11) 0.4389(12) 0.4654(10)
C6_4 C 0.2949(13) 0.3674(13) 0.0338(14)
C7_4 C 0.2318(15) 0.3160(15) 0.0405(16)
C9_4 C 0.3572(15) 0.3613(14) 0.1014(13)
C10_4 C 0.4461(15) 0.4064(19) 0.1264(18)
H10_4 H 0.4769 0.3923 0.1741
H11_4 H 0.4776 0.3890 0.0979
H12_4 H 0.4377 0.4652 0.1224
C11_4 C 0.212(2) 0.2334(16) 0.137(2)
H13_4 H 0.1647 0.2085 0.1002
H14_4 H 0.2475 0.1895 0.1640
C12_4 C 0.2063(15) 0.2870(14) 0.252(2)
C13_4 C 0.2675(19) 0.2289(18) 0.3032(19)
H15_4 H 0.3201 0.2286 0.2952
H16_4 H 0.2769 0.2471 0.3499
H17_4 H 0.2442 0.1740 0.2969
C14_4 C 0.1580(15) 0.3493(15) 0.2707(17)
C15_4 C 0.1044(18) 0.3784(19) 0.2005(14)
C16_4 C 0.032(2) 0.443(2) 0.1893(18)
H19_4 H 0.0536 0.4905 0.2189
H20_4 H 0.0111 0.4610 0.1415
C17_4 C 0.1605(14) 0.3766(16) 0.3351(19)
C18_4 C 0.2348(17) 0.3797(18) 0.3956(17)
H21_4 H 0.2848 0.3580 0.3934
C19_4 C 0.2355(16) 0.4137(17) 0.458(2)
H22_4 H 0.2865 0.4191 0.4948
C20_4 C 0.0940(14) 0.4258(18) 0.4114(15)
H23_4 H 0.0434 0.4332 0.4191
C21_4 C 0.0866(17) 0.4020(16) 0.3439(14)
H24_4 H 0.0351 0.4032 0.3071
O1_4 O 0.0867(10) 0.7088(10) 0.6677(9)
O2_4 O 0.1544(10) 0.6637(10) 0.7754(9)
O5_4 O 0.2995(10) 0.4509(10) 0.6228(10)
O6_4 O 0.3476(9) 0.5022(10) 0.7307(9)
O7_4 O 0.6769(11) 0.2236(13) 0.8297(11)
O9_4 O 0.0524(8) 0.5905(9) 0.5103(8)
O10_4 O 0.1991(7) 0.6244(8) 0.6419(7)
H1_4 H 0.1459 0.6527 0.6338
H2_4 H 0.2379 0.6634 0.6331
O11_4 O 0.2453(12) 0.6017(11) 0.5059(11)
N1_4 N 0.2789(9) 0.5218(10) 0.8624(9)
N7_3 N 0.2856(15) 0.7131(16) 0.4636(12)
C1_4 C 0.2185(12) 0.5156(14) 0.8860(12)
H3_4 H 0.1694 0.5460 0.8647
C2_4 C 0.2232(15) 0.4653(17) 0.9421(13)
H4_4 H 0.1772 0.4641 0.9571
C3_4 C 0.2907(13) 0.4183(13) 0.9757(12)
C4_4 C 0.3552(15) 0.4277(17) 0.9507(12)
H5_4 H 0.4057 0.4000 0.9732
C5_4 C 0.3494(12) 0.4745(15) 0.8957(12)
H6_4 H 0.3943 0.4753 0.8794
C8_4 C 0.1473(18) 0.293(2) 0.9886(15)
H7_4 H 0.1041 0.3254 0.9966
H8_4 H 0.1469 0.3030 0.9424
H9_4 H 0.1368 0.2352 0.9935
C22_4 C 0.1013(11) 0.7076(11) 0.7313(11)
C23_4 C 0.0501(12) 0.7668(11) 0.7588(12)
C27_4 C 0.012(2) 0.826(2) 0.8513(19)
H27_4 H 0.0228 0.8300 0.8988
C28_4 C 0.0562(18) 0.7696(18) 0.8285(14)
H28_4 H 0.0913 0.7321 0.8600
C30_4 C 0.3499(13) 0.4559(12) 0.6847(16)
C31_4 C 0.4294(13) 0.3997(13) 0.7045(16)
C32_4 C 0.4809(15) 0.3897(15) 0.7710(15)
H29_4 H 0.4690 0.4199 0.8050
C33_4 C 0.5502(16) 0.3379(17) 0.7925(16)
H30_4 H 0.5842 0.3321 0.8390
C34_4 C 0.5661(12) 0.2923(12) 0.7360(15)
C35_4 C 0.6399(14) 0.2301(13) 0.7614(13)
C36_4 C 0.5166(12) 0.3012(15) 0.6713(13)
H31_4 H 0.5270 0.2702 0.6370
C37_4 C 0.4490(13) 0.3552(14) 0.6524(13)
H32_4 H 0.4164 0.3626 0.6056
C38_4 C 0.260(2) 0.668(2) 0.504(2)
H33_4 H 0.2513 0.6987 0.5391
C39_3 C 0.299(3) 0.673(3) 0.4111(19)
H34_3 H 0.2935 0.6142 0.4168
H35_3 H 0.2576 0.6901 0.3676
H36_3 H 0.3545 0.6850 0.4114
C40_3 C 0.293(4) 0.797(3) 0.460(3)
H37_3 H 0.3470 0.8109 0.4580
H38_3 H 0.2491 0.8175 0.4188
H39_4 H 0.2865 0.8223 0.5003
H40_4 H 0.0286065 0.609788 0.545542
H41_3 H 0.0105567 0.554497 0.475816
C24_4 C 0.9919(13) 0.8204(13) 0.7135(11)
H25_4 H 0.9862 0.8214 0.6667
C25_4 C 0.9426(13) 0.8719(14) 0.7368(13)
H26_4 H 0.9019 0.9048 0.7050
C26_4 C 0.9525(11) 0.8757(12) 0.8068(11)
C29_4 C 0.9001(11) 0.9363(11) 0.8304(14)
H18_3 H 0.0133 0.9188 0.2993
N7_4 N 0.7144(15) 0.2131(16) 0.0364(12)
C39_4 C 0.701(3) 0.173(3) 0.0889(19)
H34_4 H 0.7065 0.1142 0.0832
H35_4 H 0.7424 0.1901 0.1324
H36_4 H 0.6455 0.1850 0.0886
C40_4 C 0.707(4) 0.297(3) 0.040(3)
H37_4 H 0.6530 0.3109 0.0420
H38_4 H 0.7509 0.3175 0.0812
H41_4 H 0.989443 0.0544969 0.0241844
H18_4 H 0.9867 0.4188 0.2007
loop_
_geom_bond_atom_site_label_1
_geom_bond_atom_site_label_2
_geom_bond_site_symmetry_1
_geom_bond_site_symmetry_2
O5 C30 1_555 1_555
O7 C35 1_555 1_555
O8 C35 1_555 1_555
N2 N3 1_555 1_555
N3 C9 1_555 1_555
N4 N5 1_555 1_555
N5 C11 1_555 1_555
N6 C19 1_555 1_555
H4 C2 1_555 1_555
C3 C2 1_555 1_555
C4 C3 1_555 1_555
H5 C4 1_555 1_555
H6 C5 1_555 1_555
C6 C3 1_555 1_555
C7 N2 1_555 1_555
C8 C7 1_555 1_555
H7 C8 1_555 1_555
H8 C8 1_555 1_555
H9 C8 1_555 1_555
C9 C6 1_555 1_555
C10 C9 1_555 1_555
H10 C10 1_555 1_555
H11 C10 1_555 1_555
H12 C10 1_555 1_555
C11 N2 1_555 1_555
H13 C11 1_555 1_555
H14 C11 1_555 1_555
C12 N5 1_555 1_555
C13 C12 1_555 1_555
H15 C13 1_555 1_555
H16 C13 1_555 1_555
H17 C13 1_555 1_555
C14 C12 1_555 1_555
C15 N4 1_555 1_555
C16 C15 1_555 1_555
H19 C16 1_555 1_555
H20 C16 1_555 1_555
C17 C14 1_555 1_555
C18 C17 1_555 1_555
H21 C18 1_555 1_555
C19 C18 1_555 1_555
H22 C19 1_555 1_555
C20 N6 1_555 1_555
H23 C20 1_555 1_555
C21 C17 1_555 1_555
H24 C21 1_555 1_555
C31 C30 1_555 1_555
C32 C31 1_555 1_555
H29 C32 1_555 1_555
C33 C32 1_555 1_555
H30 C33 1_555 1_555
C34 C33 1_555 1_555
C35 C34 1_555 1_555
C36 C34 1_555 1_555
H31 C36 1_555 1_555
C37 C31 1_555 1_555
H32 C37 1_555 1_555
Cd4 O8 1_555 1_555
C4 C5 1_555 1_555
C6 C7 1_555 1_555
C14 C15 1_555 1_555
C20 C21 1_555 1_555
C36 C37 1_555 1_555
Cd1 O2 1_555 1_555
O1 C22 1_555 1_555
O2 C22 1_555 1_555
O6 Cd1 1_555 1_555
O9 Cd6 1_555 1_555
O10 Cd1 1_555 1_555
H1 O10 1_555 1_555
H2 O10 1_555 1_555
O11 Cd6 1_555 1_555
N1 Cd1 1_555 1_555
C1 N1 1_555 1_555
H3 C1 1_555 1_555
C22 C23 1_555 1_555
H27 C27 1_555 1_555
C28 C23 1_555 1_555
H28 C28 1_555 1_555
C38 O11 1_555 1_555
H33 C38 1_555 1_555
O14 Cd1 1_555 1_555
Cd6 O10 1_555 1_555
C27 C28 1_555 1_555
O9 H40 1_555 1_555
O3 C29 1_555 1_555
O4 C29 1_555 1_555
C24 H25 1_555 1_555
C25 C24 1_555 1_555
H26 C25 1_555 1_555
C26 C25 1_555 1_555
C29 C26 1_555 1_555
Cd4 O3 1_555 1_555
Cd5 O4 1_555 1_555
O12 C29_2 1_555 1_555
O13 C29_2 1_555 1_555
C24_2 H25_2 1_555 1_555
C25_2 C24_2 1_555 1_555
H26_2 C25_2 1_555 1_555
C26_2 C25_2 1_555 1_555
C29_2 C26_2 1_555 1_555
Cd4 O2_2 1_555 1_555
Cd5 O5_2 1_555 1_555
O1_2 C22_2 1_555 1_555
O2_2 C22_2 1_555 1_555
O5_2 C30_2 1_555 1_555
O6_2 Cd4 1_555 1_555
O7_2 C35_2 1_555 1_555
O14 C35_2 1_555 1_555
O9_2 Cd5 1_555 1_555
O10_2 Cd4 1_555 1_555
H1_2 O10_2 1_555 1_555
H2_2 O10_2 1_555 1_555
O11_2 Cd5 1_555 1_555
N1_2 Cd4 1_555 1_555
N7 C38_2 1_555 1_555
C1_2 N1_2 1_555 1_555
H3_2 C1_2 1_555 1_555
C2_2 C1_2 1_555 1_555
H4_2 C2_2 1_555 1_555
C3_2 C2_2 1_555 1_555
C4_2 C3_2 1_555 1_555
H5_2 C4_2 1_555 1_555
C5_2 N1_2 1_555 1_555
H6_2 C5_2 1_555 1_555
H7_2 C8_2 1_555 1_555
H8_2 C8_2 1_555 1_555
H9_2 C8_2 1_555 1_555
C22_2 C23_2 1_555 1_555
H27_2 C27_2 1_555 1_555
C28_2 C23_2 1_555 1_555
H28_2 C28_2 1_555 1_555
C30_2 O6_2 1_555 1_555
C31_2 C30_2 1_555 1_555
C32_2 C31_2 1_555 1_555
H29_2 C32_2 1_555 1_555
C33_2 C32_2 1_555 1_555
H30_2 C33_2 1_555 1_555
C34_2 C33_2 1_555 1_555
C35_2 C34_2 1_555 1_555
C36_2 C34_2 1_555 1_555
H31_2 C36_2 1_555 1_555
C37_2 C31_2 1_555 1_555
H32_2 C37_2 1_555 1_555
C38_2 O11_2 1_555 1_555
H33_2 C38_2 1_555 1_555
C39 N7 1_555 1_555
H34 C39 1_555 1_555
H35 C39 1_555 1_555
H36 C39 1_555 1_555
C40 N7 1_555 1_555
H37 C40 1_555 1_555
H38 C40 1_555 1_555
H39_2 C40 1_555 1_555
N8 Cd5 1_555 1_555
Cd5 O10_2 1_555 1_555
C4_2 C5_2 1_555 1_555
C27_2 C28_2 1_555 1_555
C36_2 C37_2 1_555 1_555
O9_2 H40_2 1_555 1_555
O9_2 H41 1_555 1_555
N2_2 N3_2 1_555 1_555
N3_2 C9_2 1_555 1_555
N4_2 N5_2 1_555 1_555
N5_2 C11_2 1_555 1_555
N8 C19_2 1_555 1_555
C7_2 N2_2 1_555 1_555
C9_2 C6_2 1_555 1_555
C10_2 C9_2 1_555 1_555
H10_2 C10_2 1_555 1_555
H11_2 C10_2 1_555 1_555
H12_2 C10_2 1_555 1_555
C11_2 N2_2 1_555 1_555
H13_2 C11_2 1_555 1_555
H14_2 C11_2 1_555 1_555
C12_2 N5_2 1_555 1_555
C13_2 C12_2 1_555 1_555
H15_2 C13_2 1_555 1_555
H16_2 C13_2 1_555 1_555
H17_2 C13_2 1_555 1_555
C14_2 C12_2 1_555 1_555
C15_2 N4_2 1_555 1_555
C16_2 C15_2 1_555 1_555
H19_2 C16_2 1_555 1_555
H20_2 C16_2 1_555 1_555
C17_2 C14_2 1_555 1_555
C18_2 C17_2 1_555 1_555
H21_2 C18_2 1_555 1_555
C19_2 C18_2 1_555 1_555
H22_2 C19_2 1_555 1_555
C20_2 N8 1_555 1_555
H23_2 C20_2 1_555 1_555
C21_2 C17_2 1_555 1_555
H24_2 C21_2 1_555 1_555
C6_2 C7_2 1_555 1_555
C14_2 C15_2 1_555 1_555
C20_2 C21_2 1_555 1_555
C39_2 N7_2 1_555 1_555
H34_2 C39_2 1_555 1_555
H35_2 C39_2 1_555 1_555
H36_2 C39_2 1_555 1_555
C40_2 N7_2 1_555 1_555
H37_2 C40_2 1_555 1_555
H38_2 C40_2 1_555 1_555
O3_2 C29_3 1_555 1_555
O4_2 C29_3 1_555 1_555
C24_3 H25_3 1_555 1_555
C25_3 C24_3 1_555 1_555
H26_3 C25_3 1_555 1_555
C26_3 C25_3 1_555 1_555
C29_3 C26_3 1_555 1_555
Cd3 O3_2 1_555 1_555
Cd5_2 O4_2 1_555 1_555
Cd1_2 O2_3 1_555 1_555
O1_3 C22_3 1_555 1_555
O2_3 C22_3 1_555 1_555
O6_3 Cd1_2 1_555 1_555
O9_3 Cd2 1_555 1_555
O10_3 Cd1_2 1_555 1_555
H1_3 O10_3 1_555 1_555
H2_3 O10_3 1_555 1_555
O11_3 Cd2 1_555 1_555
N1_3 Cd1_2 1_555 1_555
C1_3 N1_3 1_555 1_555
H3_3 C1_3 1_555 1_555
C22_3 C23_3 1_555 1_555
H27_3 C27_3 1_555 1_555
C28_3 C23_3 1_555 1_555
H28_3 C28_3 1_555 1_555
C38_3 O11_3 1_555 1_555
H33_3 C38_3 1_555 1_555
O14_2 Cd1_2 1_555 1_555
Cd2 O10_3 1_555 1_555
C27_3 C28_3 1_555 1_555
O9_3 H40_3 1_555 1_555
O5_3 C30_3 1_555 1_555
O7_3 C35_3 1_555 1_555
O8_2 C35_3 1_555 1_555
N2_3 N3_3 1_555 1_555
N3_3 C9_3 1_555 1_555
N4_3 N5_3 1_555 1_555
N5_3 C11_3 1_555 1_555
N8_2 C19_3 1_555 1_555
H4_3 C2_3 1_555 1_555
C3_3 C2_3 1_555 1_555
C4_3 C3_3 1_555 1_555
H5_3 C4_3 1_555 1_555
H6_3 C5_3 1_555 1_555
C6_3 C3_3 1_555 1_555
C7_3 N2_3 1_555 1_555
C8_3 C7_3 1_555 1_555
H7_3 C8_3 1_555 1_555
H8_3 C8_3 1_555 1_555
H9_3 C8_3 1_555 1_555
C9_3 C6_3 1_555 1_555
C10_3 C9_3 1_555 1_555
H10_3 C10_3 1_555 1_555
H11_3 C10_3 1_555 1_555
H12_3 C10_3 1_555 1_555
C11_3 N2_3 1_555 1_555
H13_3 C11_3 1_555 1_555
H14_3 C11_3 1_555 1_555
C12_3 N5_3 1_555 1_555
C13_3 C12_3 1_555 1_555
H15_3 C13_3 1_555 1_555
H16_3 C13_3 1_555 1_555
H17_3 C13_3 1_555 1_555
C14_3 C12_3 1_555 1_555
C15_3 N4_3 1_555 1_555
C16_3 C15_3 1_555 1_555
H19_3 C16_3 1_555 1_555
H20_3 C16_3 1_555 1_555
C17_3 C14_3 1_555 1_555
C18_3 C17_3 1_555 1_555
H21_3 C18_3 1_555 1_555
C19_3 C18_3 1_555 1_555
H22_3 C19_3 1_555 1_555
C20_3 N8_2 1_555 1_555
H23_3 C20_3 1_555 1_555
C21_3 C17_3 1_555 1_555
H24_3 C21_3 1_555 1_555
C31_3 C30_3 1_555 1_555
C32_3 C31_3 1_555 1_555
H29_3 C32_3 1_555 1_555
C33_3 C32_3 1_555 1_555
H30_3 C33_3 1_555 1_555
C34_3 C33_3 1_555 1_555
C35_3 C34_3 1_555 1_555
C36_3 C34_3 1_555 1_555
H31_3 C36_3 1_555 1_555
C37_3 C31_3 1_555 1_555
H32_3 C37_3 1_555 1_555
Cd3 O8_2 1_555 1_555
C4_3 C5_3 1_555 1_555
C6_3 C7_3 1_555 1_555
C14_3 C15_3 1_555 1_555
C20_3 C21_3 1_555 1_555
C36_3 C37_3 1_555 1_555
N2_4 N3_4 1_555 1_555
N3_4 C9_4 1_555 1_555
N4_4 N5_4 1_555 1_555
N5_4 C11_4 1_555 1_555
N6_2 C19_4 1_555 1_555
C7_4 N2_4 1_555 1_555
C9_4 C6_4 1_555 1_555
C10_4 C9_4 1_555 1_555
H10_4 C10_4 1_555 1_555
H11_4 C10_4 1_555 1_555
H12_4 C10_4 1_555 1_555
C11_4 N2_4 1_555 1_555
H13_4 C11_4 1_555 1_555
H14_4 C11_4 1_555 1_555
C12_4 N5_4 1_555 1_555
C13_4 C12_4 1_555 1_555
H15_4 C13_4 1_555 1_555
H16_4 C13_4 1_555 1_555
H17_4 C13_4 1_555 1_555
C14_4 C12_4 1_555 1_555
C15_4 N4_4 1_555 1_555
C16_4 C15_4 1_555 1_555
H19_4 C16_4 1_555 1_555
H20_4 C16_4 1_555 1_555
C17_4 C14_4 1_555 1_555
C18_4 C17_4 1_555 1_555
H21_4 C18_4 1_555 1_555
C19_4 C18_4 1_555 1_555
H22_4 C19_4 1_555 1_555
C20_4 N6_2 1_555 1_555
H23_4 C20_4 1_555 1_555
C21_4 C17_4 1_555 1_555
H24_4 C21_4 1_555 1_555
Cd5_2 N6_2 1_555 1_555
C6_4 C7_4 1_555 1_555
C14_4 C15_4 1_555 1_555
C20_4 C21_4 1_555 1_555
Cd3 O2_4 1_555 1_555
Cd5_2 O5_4 1_555 1_555
O1_4 C22_4 1_555 1_555
O2_4 C22_4 1_555 1_555
O5_4 C30_4 1_555 1_555
O6_4 Cd3 1_555 1_555
O7_4 C35_4 1_555 1_555
O14_2 C35_4 1_555 1_555
O9_4 Cd5_2 1_555 1_555
O10_4 Cd3 1_555 1_555
H1_4 O10_4 1_555 1_555
H2_4 O10_4 1_555 1_555
O11_4 Cd5_2 1_555 1_555
N1_4 Cd3 1_555 1_555
N7_3 C38_4 1_555 1_555
C1_4 N1_4 1_555 1_555
H3_4 C1_4 1_555 1_555
C2_4 C1_4 1_555 1_555
H4_4 C2_4 1_555 1_555
C3_4 C2_4 1_555 1_555
C4_4 C3_4 1_555 1_555
H5_4 C4_4 1_555 1_555
C5_4 N1_4 1_555 1_555
H6_4 C5_4 1_555 1_555
H7_4 C8_4 1_555 1_555
H8_4 C8_4 1_555 1_555
H9_4 C8_4 1_555 1_555
C22_4 C23_4 1_555 1_555
H27_4 C27_4 1_555 1_555
C28_4 C23_4 1_555 1_555
H28_4 C28_4 1_555 1_555
C30_4 O6_4 1_555 1_555
C31_4 C30_4 1_555 1_555
C32_4 C31_4 1_555 1_555
H29_4 C32_4 1_555 1_555
C33_4 C32_4 1_555 1_555
H30_4 C33_4 1_555 1_555
C34_4 C33_4 1_555 1_555
C35_4 C34_4 1_555 1_555
C36_4 C34_4 1_555 1_555
H31_4 C36_4 1_555 1_555
C37_4 C31_4 1_555 1_555
H32_4 C37_4 1_555 1_555
C38_4 O11_4 1_555 1_555
H33_4 C38_4 1_555 1_555
C39_3 N7_3 1_555 1_555
H34_3 C39_3 1_555 1_555
H35_3 C39_3 1_555 1_555
H36_3 C39_3 1_555 1_555
C40_3 N7_3 1_555 1_555
H37_3 C40_3 1_555 1_555
H38_3 C40_3 1_555 1_555
H39_4 C40_3 1_555 1_555
Cd5_2 O10_4 1_555 1_555
C4_4 C5_4 1_555 1_555
C27_4 C28_4 1_555 1_555
C36_4 C37_4 1_555 1_555
O9_4 H40_4 1_555 1_555
O9_4 H41_3 1_555 1_555
O12_2 C29_4 1_555 1_555
O13_2 C29_4 1_555 1_555
C24_4 H25_4 1_555 1_555
C25_4 C24_4 1_555 1_555
H26_4 C25_4 1_555 1_555
C26_4 C25_4 1_555 1_555
C29_4 C26_4 1_555 1_555
C39_4 N7_4 1_555 1_555
H34_4 C39_4 1_555 1_555
H35_4 C39_4 1_555 1_555
H36_4 C39_4 1_555 1_555
C40_4 N7_4 1_555 1_555
H37_4 C40_4 1_555 1_555
H38_4 C40_4 1_555 1_555

#END
