
###############################################################################
#
# This file contains modified crystal structure data generated from the
# MOF subset of the Cambridge Structural Database (CSD) v543 
# hosted by the Cambridge Crystallographic Data Centre (CCDC).
#
# This work is licensed under the Creative Commons
# Attribution-NonCommercial-ShareAlike 4.0 International License.
# To view a copy of this license, visit
# http://creativecommons.org/licenses/by-nc-sa/4.0/
# or send a letter to
# Creative Commons, PO Box 1866, Mountain View, CA 94042, USA.
#
# CIF created using the CSD Python API on 29 September 2022
# The structure has been converted into the P1 space group
# The structure has a 3D framework
# The original CSD entry TOLHEI is in the monoclinic crystal system
# The framework has been calculated to contain at least 10.0% void space
# The void calculation uses a probe of radius 1.32A, grid spacing 0.4
#
###############################################################################

data_TOLHEI
_chemical_formula_moiety         '(C148 H120 N24 O32 Zn8)n'
_symmetry_cell_setting           triclinic
_symmetry_space_group_name_H-M   'P 1'
_symmetry_Int_Tables_number      1
_space_group_name_Hall           'P 1'
loop_
_symmetry_equiv_pos_site_id
_symmetry_equiv_pos_as_xyz
1 x,y,z
_cell_length_a                   10.9672(12)
_cell_length_b                   10.8989(12)
_cell_length_c                   39.656(4)
_cell_angle_alpha                90
_cell_angle_beta                 93.2940(10)
_cell_angle_gamma                90
_cell_volume                     4732.27
loop_
_atom_site_label
_atom_site_type_symbol
_atom_site_fract_x
_atom_site_fract_y
_atom_site_fract_z
N6 N 0.0789(6) 0.2578(6) 0.76422(15)
C12 C 0.0060(9) 0.4348(11) 0.8861(2)
C15 C 0.1406(10) 0.4398(15) 0.8945(3)
H13 H 0.1568 0.4932 0.9135
H14 H 0.1812 0.4706 0.8754
H15 H 0.1702 0.3590 0.9000
C18 C 0.0806(8) 0.4028(9) 0.8097(2)
H19 H 0.1121 0.4752 0.8190
C19 C 0.1177(8) 0.3620(7) 0.77866(19)
H20 H 0.1727 0.4099 0.7674
C20 C 0.0016(10) 0.1917(10) 0.7809(2)
Zn7 Zn 0.10978(7) 0.22607(7) 0.715182(18)
O7 O 0.6063(6) 0.0955(5) 0.20132(13)
O8 O 0.5901(5) 0.0855(5) 0.14565(13)
C37 C 0.5992(6) 0.0376(6) 0.17415(18)
Zn4 Zn 0.58906(7) 0.26937(7) 0.140041(18)
Zn6 Zn 0.60978(7) 0.27393(7) 0.215182(18)
O1 O 0.4235(5) 0.2785(6) 0.20105(14)
O2 O 0.4047(5) 0.2699(5) 0.14492(14)
O5 O 0.5879(5) 0.4512(4) 0.15210(12)
O6 O 0.6116(5) 0.4576(4) 0.20847(13)
N1 N 0.5980(5) 0.2882(6) 0.08927(14)
C1 C 0.6243(12) 0.2088(11) 0.0345(2)
H1 H 0.6355 0.1401 0.0211
C2 C 0.6147(11) 0.1961(9) 0.0692(2)
H2 H 0.6205 0.1177 0.0784
C3 C 0.5914(8) 0.3995(8) 0.0753(2)
H3 H 0.5805 0.4666 0.0893
C4 C 0.5999(8) 0.4205(9) 0.0409(2)
H4 H 0.5938 0.4999 0.0324
C5 C 0.6171(8) 0.3253(8) 0.01994(18)
H6 H 0.7845 0.5256 0.0068
C22 C 0.2252(6) 0.2724(7) 0.17553(19)
C23 C 0.1509(7) 0.2675(8) 0.1467(2)
H23 H 0.1847 0.2649 0.1258
C24 C 0.0245(7) 0.2663(8) 0.1487(2)
C26 C 0.0487(7) 0.2731(10) 0.2082(2)
H25 H 0.0153 0.2745 0.2292
C27 C 0.1729(7) 0.2751(10) 0.2062(2)
H26 H 0.2228 0.2784 0.2260
C28 C 0.3618(7) 0.2727(7) 0.1735(2)
C30 C 0.5995(6) 0.6447(6) 0.17853(17)
C31 C 0.6036(7) 0.7132(7) 0.20788(18)
H27 H 0.6062 0.6738 0.2287
C32 C 0.6039(7) 0.8397(7) 0.20642(18)
H28 H 0.6070 0.8851 0.2263
C33 C 0.5997(6) 0.8992(6) 0.17572(17)
C34 C 0.5951(7) 0.8302(7) 0.14634(18)
H29 H 0.5914 0.8693 0.1255
C35 C 0.5959(7) 0.7039(6) 0.14784(18)
H30 H 0.5939 0.6584 0.1280
C36 C 0.5994(7) 0.5069(6) 0.17985(19)
O9 O 0.7727(5) 0.2684(5) 0.15384(14)
O10 O 0.7927(5) 0.2714(5) 0.20966(14)
N7 N 0.5789(6) 0.2422(6) 0.26422(15)
H24 H 0.9746 0.2638 0.1289
C25 C 0.9726(6) 0.2688(7) 0.17924(18)
C29 C 0.8348(6) 0.2696(7) 0.18105(19)
Zn1 Zn 0.08906(7) 0.23063(7) 0.640041(18)
O5_2 O 0.0879(5) 0.0488(4) 0.65210(12)
O6_2 O 0.1116(5) 0.0424(4) 0.70847(13)
N1_2 N 0.0980(5) 0.2118(6) 0.58927(14)
N2 N 0.1689(8) 0.0775(9) 0.43497(17)
N3 N 0.0961(9) 0.1748(10) 0.42660(19)
N4 N 0.3159(7) 0.0452(8) 0.39242(17)
N5 N 0.4265(8) 0.0258(9) 0.40799(19)
C1_2 C 0.1243(12) 0.2912(11) 0.5345(2)
H1_2 H 0.1355 0.3599 0.5211
C2_2 C 0.1147(11) 0.3039(9) 0.5692(2)
H2_2 H 0.1205 0.3823 0.5784
C3_2 C 0.0914(8) 0.1005(8) 0.5753(2)
H3_2 H 0.0805 0.0334 0.5893
C4_2 C 0.0999(8) 0.0795(9) 0.5409(2)
H4_2 H 0.0938 0.0001 0.5324
C5_2 C 0.1171(8) 0.1747(8) 0.51994(18)
C6 C 0.1280(8) 0.1568(9) 0.48356(19)
C7 C 0.1894(9) 0.0616(9) 0.4688(2)
C8 C 0.0697(11) 0.2233(11) 0.4563(2)
H10 H 0.0193 0.3921 0.4714
C11 C 0.2067(11) 0.0008(11) 0.4078(2)
C12_2 C 0.5060(9) 0.0652(11) 0.3861(2)
C13 C 0.4436(8) 0.1157(10) 0.35720(19)
C14 C 0.3206(8) 0.0998(9) 0.3615(2)
C15_2 C 0.6406(10) 0.0602(15) 0.3945(3)
H13_2 H 0.6568 0.0068 0.4135
H14_2 H 0.6812 0.0294 0.3754
H15_2 H 0.6702 0.1410 0.4000
C16 C 0.2106(9) 0.1264(12) 0.3393(3)
H16 H 0.1579 0.1809 0.3507
H17 H 0.2345 0.1642 0.3189
H18 H 0.1680 0.0512 0.3340
C17 C 0.4963(7) 0.1650(9) 0.32640(19)
C18_2 C 0.5806(8) 0.0972(9) 0.3097(2)
H19_2 H 0.6121 0.0248 0.3190
C19_2 C 0.6177(8) 0.1380(7) 0.27866(19)
H20_2 H 0.6727 0.0901 0.2674
C20_2 C 0.5016(10) 0.3083(10) 0.2809(2)
H21 H 0.4755 0.3829 0.2717
C21 C 0.4577(10) 0.2729(9) 0.3111(2)
H22 H 0.4012 0.3222 0.3213
O9_2 O 0.2727(5) 0.2316(5) 0.65384(14)
O10_2 O 0.2927(5) 0.2286(5) 0.70966(14)
O11 O 0.1063(6) 0.4045(5) 0.70132(13)
O12 O 0.0901(5) 0.4145(5) 0.64565(13)
C9 C 0.2655(14) 0.9594(12) 0.4833(3)
H5 H 0.3397 0.9541 0.4717
H6_2 H 0.2845 0.9744 0.5068
H7 H 0.2213 0.8836 0.4806
H11 H 0.2220 0.9186 0.4164
H12 H 0.1405 0.9959 0.3905
C30_2 C 0.0995(6) 0.8553(6) 0.67853(17)
C31_2 C 0.1036(7) 0.7868(7) 0.70788(18)
H27_2 H 0.1062 0.8262 0.7287
C32_2 C 0.1039(7) 0.6603(7) 0.70642(18)
H28_2 H 0.1070 0.6149 0.7263
C33_2 C 0.0997(6) 0.6008(6) 0.67572(17)
C34_2 C 0.0951(7) 0.6698(7) 0.64634(18)
H29_2 H 0.0914 0.6307 0.6255
C35_2 C 0.0959(7) 0.7961(6) 0.64784(18)
H30_2 H 0.0939 0.8416 0.6280
C36_2 C 0.0994(7) 0.9931(6) 0.67985(19)
C37_2 C 0.0992(6) 0.4624(6) 0.67415(18)
O1_2 O 0.9235(5) 0.2215(6) 0.70105(14)
O2_2 O 0.9047(5) 0.2301(5) 0.64492(14)
C10 C 0.9845(18) 0.3294(17) 0.4568(3)
H8 H 0.9711 0.3615 0.4343
H9 H 0.9081 0.3031 0.4650
C22_2 C 0.7252(6) 0.2276(7) 0.67553(19)
C23_2 C 0.6509(7) 0.2325(8) 0.6467(2)
H23_2 H 0.6847 0.2351 0.6258
C24_2 C 0.5245(7) 0.2337(8) 0.6487(2)
H24_2 H 0.4746 0.2362 0.6289
C25_2 C 0.4726(6) 0.2312(7) 0.67924(18)
C26_2 C 0.5487(7) 0.2269(10) 0.7082(2)
H25_2 H 0.5153 0.2255 0.7292
C27_2 C 0.6729(7) 0.2249(10) 0.7062(2)
H26_2 H 0.7228 0.2216 0.7260
C28_2 C 0.8618(7) 0.2273(7) 0.6735(2)
C29_2 C 0.3348(6) 0.2304(7) 0.68105(19)
N2_2 N 0.6689(8) 0.4225(9) 0.93497(17)
N3_2 N 0.5961(9) 0.3252(10) 0.92660(19)
N4_2 N 0.8159(7) 0.4548(8) 0.89242(17)
N5_2 N 0.9265(8) 0.4742(9) 0.90799(19)
C6_2 C 0.6280(8) 0.3432(9) 0.98356(19)
C7_2 C 0.6894(9) 0.4384(9) 0.9688(2)
C8_2 C 0.5697(11) 0.2767(11) 0.9563(2)
C9_2 C 0.7655(14) 0.5406(12) 0.9833(3)
H5_2 H 0.8397 0.5459 0.9717
H7_2 H 0.7213 0.6164 0.9806
C10_2 C 0.4845(18) 0.1706(17) 0.9568(3)
H8_2 H 0.4711 0.1385 0.9343
H9_2 H 0.4081 0.1969 0.9650
H10_2 H 0.5193 0.1079 0.9714
C11_2 C 0.7067(11) 0.4992(11) 0.9078(2)
H11_2 H 0.7220 0.5814 0.9164
H12_2 H 0.6405 0.5041 0.8905
C13_2 C 0.9436(8) 0.3843(10) 0.85720(19)
C14_2 C 0.8206(8) 0.4002(9) 0.8615(2)
C16_2 C 0.7106(9) 0.3736(12) 0.8393(3)
H16_2 H 0.6579 0.3191 0.8507
H17_2 H 0.7345 0.3358 0.8189
H18_2 H 0.6680 0.4488 0.8340
C17_2 C 0.9963(7) 0.3350(9) 0.82640(19)
H21_2 H 0.9755 0.1171 0.7717
C21_2 C 0.9577(10) 0.2271(9) 0.8111(2)
H22_2 H 0.9012 0.1778 0.8213
O1_3 O 0.0765(5) 0.7785(6) 0.29895(14)
O2_3 O 0.0953(5) 0.7699(5) 0.35508(14)
O3 O 0.7273(5) 0.7684(5) 0.34616(14)
O4 O 0.7073(5) 0.7714(5) 0.29034(14)
C10_3 C 0.0155(18) 0.6706(17) 0.5432(3)
H8_3 H 0.0289 0.6385 0.5657
H9_3 H 0.0919 0.6969 0.5350
C22_3 C 0.2748(6) 0.7724(7) 0.32447(19)
C23_3 C 0.3491(7) 0.7675(8) 0.3533(2)
H23_3 H 0.3153 0.7649 0.3742
C24_3 C 0.4755(7) 0.7663(8) 0.3513(2)
H24_3 H 0.5254 0.7638 0.3711
C25_3 C 0.5274(6) 0.7688(7) 0.32076(18)
C26_3 C 0.4513(7) 0.7731(10) 0.2918(2)
H25_3 H 0.4847 0.7745 0.2708
C27_3 C 0.3271(7) 0.7751(10) 0.2938(2)
H26_3 H 0.2772 0.7784 0.2740
C28_3 C 0.1382(7) 0.7727(7) 0.3265(2)
C29_3 C 0.6652(6) 0.7696(7) 0.31895(19)
Zn3 Zn 0.91094(7) 0.76937(7) 0.359959(18)
Zn5 Zn 0.89022(7) 0.77393(7) 0.284818(18)
O7_2 O 0.8937(6) 0.5955(5) 0.29868(13)
O8_2 O 0.9099(5) 0.5855(5) 0.35435(13)
C9_3 C 0.7345(14) 0.0406(12) 0.5167(3)
H5_3 H 0.6603 0.0459 0.5283
H6_3 H 0.7155 0.0256 0.4932
H7_3 H 0.7787 0.1164 0.5194
H11_3 H 0.7780 0.0814 0.5836
H12_3 H 0.8595 0.0041 0.6095
C30_3 C 0.9005(6) 0.1447(6) 0.32147(17)
C31_3 C 0.8964(7) 0.2132(7) 0.29212(18)
H27_3 H 0.8938 0.1738 0.2713
C32_3 C 0.8961(7) 0.3397(7) 0.29358(18)
H28_3 H 0.8930 0.3851 0.2737
C33_3 C 0.9003(6) 0.3992(6) 0.32428(17)
C34_3 C 0.9049(7) 0.3302(7) 0.35366(18)
H29_3 H 0.9086 0.3693 0.3745
C35_3 C 0.9041(7) 0.2039(6) 0.35216(18)
H30_3 H 0.9061 0.1584 0.3720
C36_3 C 0.9006(7) 0.0069(6) 0.32015(19)
C37_3 C 0.9008(6) 0.5376(6) 0.32585(18)
O5_3 O 0.9121(5) 0.9512(4) 0.34790(12)
O6_3 O 0.8884(5) 0.9576(4) 0.29153(13)
N1_3 N 0.9020(5) 0.7882(6) 0.41073(14)
N2_3 N 0.8311(8) 0.9225(9) 0.56503(17)
N3_3 N 0.9039(9) 0.8252(10) 0.57340(19)
N4_3 N 0.6841(7) 0.9548(8) 0.60758(17)
N5_3 N 0.5735(8) 0.9742(9) 0.59201(19)
N6_2 N 0.4211(6) 0.7578(6) 0.73578(15)
C1_3 C 0.8757(12) 0.7088(11) 0.4655(2)
H1_3 H 0.8645 0.6401 0.4789
C2_3 C 0.8853(11) 0.6961(9) 0.4308(2)
H2_3 H 0.8795 0.6177 0.4216
C3_3 C 0.9086(8) 0.8995(8) 0.4247(2)
H3_3 H 0.9195 0.9666 0.4107
C4_3 C 0.9001(8) 0.9205(9) 0.4591(2)
H4_3 H 0.9062 0.9999 0.4676
C5_3 C 0.8829(8) 0.8253(8) 0.48006(18)
C6_3 C 0.8720(8) 0.8432(9) 0.51644(19)
C7_3 C 0.8106(9) 0.9384(9) 0.5312(2)
C8_3 C 0.9303(11) 0.7767(11) 0.5437(2)
H10_3 H 0.9807 0.6079 0.5286
C11_3 C 0.7933(11) 0.9992(11) 0.5922(2)
C12_3 C 0.4940(9) 0.9348(11) 0.6139(2)
C13_3 C 0.5564(8) 0.8843(10) 0.64280(19)
C14_3 C 0.6794(8) 0.9002(9) 0.6385(2)
C15_3 C 0.3594(10) 0.9398(15) 0.6055(3)
H13_3 H 0.3432 0.9932 0.5865
H14_3 H 0.3188 0.9706 0.6246
H15_3 H 0.3298 0.8590 0.6000
C16_3 C 0.7894(9) 0.8736(12) 0.6607(3)
H16_3 H 0.8421 0.8191 0.6493
H17_3 H 0.7655 0.8358 0.6811
H18_3 H 0.8320 0.9488 0.6660
C17_3 C 0.5037(7) 0.8350(9) 0.67360(19)
C18_3 C 0.4194(8) 0.9028(9) 0.6903(2)
H19_3 H 0.3879 0.9752 0.6810
C19_3 C 0.3823(8) 0.8620(7) 0.72134(19)
H20_3 H 0.3273 0.9099 0.7326
C20_3 C 0.4984(10) 0.6917(10) 0.7191(2)
H21_3 H 0.5245 0.6171 0.7283
C21_3 C 0.5423(10) 0.7271(9) 0.6889(2)
H22_3 H 0.5988 0.6778 0.6787
Zn7_2 Zn 0.39022(7) 0.72607(7) 0.784818(18)
N7_2 N 0.9211(6) 0.7422(6) 0.23578(15)
O3_2 O 0.2273(5) 0.7316(5) 0.84616(14)
O4_2 O 0.2073(5) 0.7286(5) 0.79034(14)
H24_4 H 0.0254 0.7362 0.8711
C25_4 C 0.0274(6) 0.7312(7) 0.82076(18)
C29_4 C 0.1652(6) 0.7304(7) 0.81895(19)
Zn3_2 Zn 0.41094(7) 0.73063(7) 0.859959(18)
O1_4 O 0.5765(5) 0.7215(6) 0.79895(14)
O2_4 O 0.5953(5) 0.7301(5) 0.85508(14)
O5_4 O 0.4121(5) 0.5488(4) 0.84790(12)
O6_4 O 0.3884(5) 0.5424(4) 0.79153(13)
N1_4 N 0.4020(5) 0.7118(6) 0.91073(14)
C1_4 C 0.3757(12) 0.7912(11) 0.9655(2)
H1_4 H 0.3645 0.8599 0.9789
C2_4 C 0.3853(11) 0.8039(9) 0.9308(2)
H2_4 H 0.3795 0.8823 0.9216
C3_4 C 0.4086(8) 0.6005(8) 0.9247(2)
H3_4 H 0.4195 0.5334 0.9107
C4_4 C 0.4001(8) 0.5795(9) 0.9591(2)
H4_4 H 0.4062 0.5001 0.9676
C5_4 C 0.3829(8) 0.6747(8) 0.98006(18)
H6_4 H 0.2155 0.4744 0.9932
C22_4 C 0.7748(6) 0.7276(7) 0.82447(19)
C23_4 C 0.8491(7) 0.7325(8) 0.8533(2)
H23_4 H 0.8153 0.7351 0.8742
C24_4 C 0.9755(7) 0.7337(8) 0.8513(2)
C26_4 C 0.9513(7) 0.7269(10) 0.7918(2)
H25_4 H 0.9847 0.7255 0.7708
C27_4 C 0.8271(7) 0.7249(10) 0.7938(2)
H26_4 H 0.7772 0.7216 0.7740
C28_4 C 0.6382(7) 0.7273(7) 0.8265(2)
C30_4 C 0.4005(6) 0.3553(6) 0.82147(17)
C31_4 C 0.3964(7) 0.2868(7) 0.79212(18)
H27_4 H 0.3938 0.3262 0.7713
C32_4 C 0.3961(7) 0.1603(7) 0.79358(18)
H28_4 H 0.3930 0.1149 0.7737
C33_4 C 0.4003(6) 0.1008(6) 0.82428(17)
C34_4 C 0.4049(7) 0.1698(7) 0.85366(18)
H29_4 H 0.4086 0.1307 0.8745
C35_4 C 0.4041(7) 0.2961(6) 0.85216(18)
H30_4 H 0.4061 0.3416 0.8720
C36_4 C 0.4006(7) 0.4931(6) 0.82015(19)
O11_2 O 0.3937(6) 0.9045(5) 0.79868(13)
O12_2 O 0.4099(5) 0.9145(5) 0.85435(13)
C37_4 C 0.4008(6) 0.9624(6) 0.82585(18)
C12_4 C 0.9940(9) 0.5652(11) 0.1139(2)
C15_4 C 0.8594(10) 0.5602(15) 0.1055(3)
H13_4 H 0.8432 0.5068 0.0865
H14_4 H 0.8188 0.5294 0.1246
H15_4 H 0.8298 0.6410 0.1000
C18_4 C 0.9194(8) 0.5972(9) 0.1903(2)
H19_4 H 0.8879 0.5248 0.1810
C19_4 C 0.8823(8) 0.6380(7) 0.22134(19)
H20_4 H 0.8273 0.5901 0.2326
C20_4 C 0.9984(10) 0.8083(10) 0.2191(2)
N2_4 N 0.3311(8) 0.5775(9) 0.06503(17)
N3_4 N 0.4039(9) 0.6748(10) 0.07340(19)
N4_4 N 0.1841(7) 0.5452(8) 0.10758(17)
N5_4 N 0.0735(8) 0.5258(9) 0.09201(19)
C6_4 C 0.3720(8) 0.6568(9) 0.01644(19)
C7_4 C 0.3106(9) 0.5616(9) 0.0312(2)
C8_4 C 0.4303(11) 0.7233(11) 0.0437(2)
C9_4 C 0.2345(14) 0.4594(12) 0.0167(3)
H5_4 H 0.1603 0.4541 0.0283
H7_4 H 0.2787 0.3836 0.0194
C10_4 C 0.5155(18) 0.8294(17) 0.0432(3)
H8_4 H 0.5289 0.8615 0.0657
H9_4 H 0.5919 0.8031 0.0350
H10_4 H 0.4807 0.8921 0.0286
C11_4 C 0.2933(11) 0.5008(11) 0.0922(2)
H11_4 H 0.2780 0.4186 0.0836
H12_4 H 0.3595 0.4959 0.1095
C13_4 C 0.0564(8) 0.6157(10) 0.14280(19)
C14_4 C 0.1794(8) 0.5998(9) 0.1385(2)
C16_4 C 0.2894(9) 0.6264(12) 0.1607(3)
H16_4 H 0.3421 0.6809 0.1493
H17_4 H 0.2655 0.6642 0.1811
H18_4 H 0.3320 0.5512 0.1660
C17_4 C 0.0037(7) 0.6650(9) 0.17360(19)
H21_4 H 0.0245 0.8829 0.2283
C21_4 C 0.0423(10) 0.7729(9) 0.1889(2)
H22_4 H 0.0988 0.8222 0.1787
loop_
_geom_bond_atom_site_label_1
_geom_bond_atom_site_label_2
_geom_bond_site_symmetry_1
_geom_bond_site_symmetry_2
N6 C19 1_555 1_555
C15 C12 1_555 1_555
H13 C15 1_555 1_555
H14 C15 1_555 1_555
H15 C15 1_555 1_555
H19 C18 1_555 1_555
C19 C18 1_555 1_555
H20 C19 1_555 1_555
C20 N6 1_555 1_555
Zn7 N6 1_555 1_555
O7 C37 1_555 1_555
O8 C37 1_555 1_555
Zn4 O8 1_555 1_555
Zn6 O7 1_555 1_555
Zn4 O2 1_555 1_555
Zn6 O1 1_555 1_555
O1 C28 1_555 1_555
O2 C28 1_555 1_555
O5 Zn4 1_555 1_555
O6 Zn6 1_555 1_555
N1 Zn4 1_555 1_555
C1 H1 1_555 1_555
C2 N1 1_555 1_555
H2 C2 1_555 1_555
C3 N1 1_555 1_555
H3 C3 1_555 1_555
C4 C3 1_555 1_555
H4 C4 1_555 1_555
C5 C1 1_555 1_555
C22 C23 1_555 1_555
C23 H23 1_555 1_555
C24 C23 1_555 1_555
H25 C26 1_555 1_555
C27 C22 1_555 1_555
H26 C27 1_555 1_555
C28 C22 1_555 1_555
C30 C31 1_555 1_555
C31 H27 1_555 1_555
C32 C31 1_555 1_555
H28 C32 1_555 1_555
C33 C32 1_555 1_555
C34 C33 1_555 1_555
H29 C34 1_555 1_555
C35 C30 1_555 1_555
H30 C35 1_555 1_555
C36 O5 1_555 1_555
O9 Zn4 1_555 1_555
O10 Zn6 1_555 1_555
N7 Zn6 1_555 1_555
O6 C36 1_555 1_555
C1 C2 1_555 1_555
C4 C5 1_555 1_555
C26 C27 1_555 1_555
C30 C36 1_555 1_555
C34 C35 1_555 1_555
O9 C29 1_555 1_555
O10 C29 1_555 1_555
C29 C25 1_555 1_555
O5_2 Zn1 1_555 1_555
O6_2 Zn7 1_555 1_555
N1_2 Zn1 1_555 1_555
N2 N3 1_555 1_555
N3 C8 1_555 1_555
N4 N5 1_555 1_555
N5 C12_2 1_555 1_555
N7 C19_2 1_555 1_555
C1_2 H1_2 1_555 1_555
C2_2 N1_2 1_555 1_555
H2_2 C2_2 1_555 1_555
C3_2 N1_2 1_555 1_555
H3_2 C3_2 1_555 1_555
C4_2 C3_2 1_555 1_555
H4_2 C4_2 1_555 1_555
C5_2 C1_2 1_555 1_555
C6 C5_2 1_555 1_555
C7 N2 1_555 1_555
C8 C6 1_555 1_555
C11 N2 1_555 1_555
C12_2 C13 1_555 1_555
C13 C14 1_555 1_555
C14 N4 1_555 1_555
C15_2 C12_2 1_555 1_555
H13_2 C15_2 1_555 1_555
H14_2 C15_2 1_555 1_555
H15_2 C15_2 1_555 1_555
C16 C14 1_555 1_555
H16 C16 1_555 1_555
H17 C16 1_555 1_555
H18 C16 1_555 1_555
C17 C13 1_555 1_555
C18_2 C17 1_555 1_555
H19_2 C18_2 1_555 1_555
C19_2 C18_2 1_555 1_555
H20_2 C19_2 1_555 1_555
C20_2 N7 1_555 1_555
H21 C20_2 1_555 1_555
C21 C17 1_555 1_555
H22 C21 1_555 1_555
O9_2 Zn1 1_555 1_555
O10_2 Zn7 1_555 1_555
O11 Zn7 1_555 1_555
O12 Zn1 1_555 1_555
N4 C11 1_555 1_555
C1_2 C2_2 1_555 1_555
C4_2 C5_2 1_555 1_555
C6 C7 1_555 1_555
C20_2 C21 1_555 1_555
O11 C37_2 1_555 1_555
O12 C37_2 1_555 1_555
H5 C9 1_555 1_555
H6_2 C9 1_555 1_555
H7 C9 1_555 1_555
C30_2 C31_2 1_555 1_555
C31_2 H27_2 1_555 1_555
C32_2 C31_2 1_555 1_555
H28_2 C32_2 1_555 1_555
C33_2 C32_2 1_555 1_555
C34_2 C33_2 1_555 1_555
H29_2 C34_2 1_555 1_555
C35_2 C30_2 1_555 1_555
H30_2 C35_2 1_555 1_555
C37_2 C33_2 1_555 1_555
C30_2 C36_2 1_555 1_555
C34_2 C35_2 1_555 1_555
O1_2 C28_2 1_555 1_555
O2_2 C28_2 1_555 1_555
O9_2 C29_2 1_555 1_555
O10_2 C29_2 1_555 1_555
H8 C10 1_555 1_555
H9 C10 1_555 1_555
C22_2 C23_2 1_555 1_555
C23_2 H23_2 1_555 1_555
C24_2 C23_2 1_555 1_555
H24_2 C24_2 1_555 1_555
C25_2 C24_2 1_555 1_555
C26_2 C25_2 1_555 1_555
H25_2 C26_2 1_555 1_555
C27_2 C22_2 1_555 1_555
H26_2 C27_2 1_555 1_555
C28_2 C22_2 1_555 1_555
C29_2 C25_2 1_555 1_555
C26_2 C27_2 1_555 1_555
N2_2 N3_2 1_555 1_555
N3_2 C8_2 1_555 1_555
N4_2 N5_2 1_555 1_555
C7_2 N2_2 1_555 1_555
C8_2 C6_2 1_555 1_555
C9_2 C7_2 1_555 1_555
H5_2 C9_2 1_555 1_555
H7_2 C9_2 1_555 1_555
C10_2 C8_2 1_555 1_555
H8_2 C10_2 1_555 1_555
H9_2 C10_2 1_555 1_555
H10_2 C10_2 1_555 1_555
C11_2 N2_2 1_555 1_555
H11_2 C11_2 1_555 1_555
H12_2 C11_2 1_555 1_555
C13_2 C14_2 1_555 1_555
C14_2 N4_2 1_555 1_555
C16_2 C14_2 1_555 1_555
H16_2 C16_2 1_555 1_555
H17_2 C16_2 1_555 1_555
H18_2 C16_2 1_555 1_555
C17_2 C13_2 1_555 1_555
C21_2 C17_2 1_555 1_555
H22_2 C21_2 1_555 1_555
N4_2 C11_2 1_555 1_555
C6_2 C7_2 1_555 1_555
O1_3 C28_3 1_555 1_555
O2_3 C28_3 1_555 1_555
O3 C29_3 1_555 1_555
O4 C29_3 1_555 1_555
H8_3 C10_3 1_555 1_555
H9_3 C10_3 1_555 1_555
C22_3 C23_3 1_555 1_555
C23_3 H23_3 1_555 1_555
C24_3 C23_3 1_555 1_555
H24_3 C24_3 1_555 1_555
C25_3 C24_3 1_555 1_555
C26_3 C25_3 1_555 1_555
H25_3 C26_3 1_555 1_555
C27_3 C22_3 1_555 1_555
H26_3 C27_3 1_555 1_555
C28_3 C22_3 1_555 1_555
C29_3 C25_3 1_555 1_555
Zn3 O3 1_555 1_555
Zn5 O4 1_555 1_555
C26_3 C27_3 1_555 1_555
O7_2 C37_3 1_555 1_555
O8_2 C37_3 1_555 1_555
H5_3 C9_3 1_555 1_555
H6_3 C9_3 1_555 1_555
H7_3 C9_3 1_555 1_555
C30_3 C31_3 1_555 1_555
C31_3 H27_3 1_555 1_555
C32_3 C31_3 1_555 1_555
H28_3 C32_3 1_555 1_555
C33_3 C32_3 1_555 1_555
C34_3 C33_3 1_555 1_555
H29_3 C34_3 1_555 1_555
C35_3 C30_3 1_555 1_555
H30_3 C35_3 1_555 1_555
C37_3 C33_3 1_555 1_555
Zn3 O8_2 1_555 1_555
Zn5 O7_2 1_555 1_555
C30_3 C36_3 1_555 1_555
C34_3 C35_3 1_555 1_555
O5_3 Zn3 1_555 1_555
O6_3 Zn5 1_555 1_555
N1_3 Zn3 1_555 1_555
N2_3 N3_3 1_555 1_555
N3_3 C8_3 1_555 1_555
N4_3 N5_3 1_555 1_555
N5_3 C12_3 1_555 1_555
N6_2 C19_3 1_555 1_555
C1_3 H1_3 1_555 1_555
C2_3 N1_3 1_555 1_555
H2_3 C2_3 1_555 1_555
C3_3 N1_3 1_555 1_555
H3_3 C3_3 1_555 1_555
C4_3 C3_3 1_555 1_555
H4_3 C4_3 1_555 1_555
C5_3 C1_3 1_555 1_555
C6_3 C5_3 1_555 1_555
C7_3 N2_3 1_555 1_555
C8_3 C6_3 1_555 1_555
C11_3 N2_3 1_555 1_555
C12_3 C13_3 1_555 1_555
C13_3 C14_3 1_555 1_555
C14_3 N4_3 1_555 1_555
C15_3 C12_3 1_555 1_555
H13_3 C15_3 1_555 1_555
H14_3 C15_3 1_555 1_555
H15_3 C15_3 1_555 1_555
C16_3 C14_3 1_555 1_555
H16_3 C16_3 1_555 1_555
H17_3 C16_3 1_555 1_555
H18_3 C16_3 1_555 1_555
C17_3 C13_3 1_555 1_555
C18_3 C17_3 1_555 1_555
H19_3 C18_3 1_555 1_555
C19_3 C18_3 1_555 1_555
H20_3 C19_3 1_555 1_555
C20_3 N6_2 1_555 1_555
H21_3 C20_3 1_555 1_555
C21_3 C17_3 1_555 1_555
H22_3 C21_3 1_555 1_555
Zn7_2 N6_2 1_555 1_555
N7_2 Zn5 1_555 1_555
N4_3 C11_3 1_555 1_555
C1_3 C2_3 1_555 1_555
C4_3 C5_3 1_555 1_555
C6_3 C7_3 1_555 1_555
C20_3 C21_3 1_555 1_555
O3_2 C29_4 1_555 1_555
O4_2 C29_4 1_555 1_555
C29_4 C25_4 1_555 1_555
Zn3_2 O3_2 1_555 1_555
Zn7_2 O4_2 1_555 1_555
Zn3_2 O2_4 1_555 1_555
Zn7_2 O1_4 1_555 1_555
O1_4 C28_4 1_555 1_555
O2_4 C28_4 1_555 1_555
O5_4 Zn3_2 1_555 1_555
O6_4 Zn7_2 1_555 1_555
N1_4 Zn3_2 1_555 1_555
C1_4 H1_4 1_555 1_555
C2_4 N1_4 1_555 1_555
H2_4 C2_4 1_555 1_555
C3_4 N1_4 1_555 1_555
H3_4 C3_4 1_555 1_555
C4_4 C3_4 1_555 1_555
H4_4 C4_4 1_555 1_555
C5_4 C1_4 1_555 1_555
C22_4 C23_4 1_555 1_555
C23_4 H23_4 1_555 1_555
C24_4 C23_4 1_555 1_555
H25_4 C26_4 1_555 1_555
C27_4 C22_4 1_555 1_555
H26_4 C27_4 1_555 1_555
C28_4 C22_4 1_555 1_555
C30_4 C31_4 1_555 1_555
C31_4 H27_4 1_555 1_555
C32_4 C31_4 1_555 1_555
H28_4 C32_4 1_555 1_555
C33_4 C32_4 1_555 1_555
C34_4 C33_4 1_555 1_555
H29_4 C34_4 1_555 1_555
C35_4 C30_4 1_555 1_555
H30_4 C35_4 1_555 1_555
C36_4 O5_4 1_555 1_555
O11_2 Zn7_2 1_555 1_555
O12_2 Zn3_2 1_555 1_555
O6_4 C36_4 1_555 1_555
C1_4 C2_4 1_555 1_555
C4_4 C5_4 1_555 1_555
C26_4 C27_4 1_555 1_555
C30_4 C36_4 1_555 1_555
C34_4 C35_4 1_555 1_555
O11_2 C37_4 1_555 1_555
O12_2 C37_4 1_555 1_555
N7_2 C19_4 1_555 1_555
C15_4 C12_4 1_555 1_555
H13_4 C15_4 1_555 1_555
H14_4 C15_4 1_555 1_555
H15_4 C15_4 1_555 1_555
H19_4 C18_4 1_555 1_555
C19_4 C18_4 1_555 1_555
H20_4 C19_4 1_555 1_555
C20_4 N7_2 1_555 1_555
N2_4 N3_4 1_555 1_555
N3_4 C8_4 1_555 1_555
N4_4 N5_4 1_555 1_555
C7_4 N2_4 1_555 1_555
C8_4 C6_4 1_555 1_555
C9_4 C7_4 1_555 1_555
H5_4 C9_4 1_555 1_555
H7_4 C9_4 1_555 1_555
C10_4 C8_4 1_555 1_555
H8_4 C10_4 1_555 1_555
H9_4 C10_4 1_555 1_555
H10_4 C10_4 1_555 1_555
C11_4 N2_4 1_555 1_555
H11_4 C11_4 1_555 1_555
H12_4 C11_4 1_555 1_555
C13_4 C14_4 1_555 1_555
C14_4 N4_4 1_555 1_555
C16_4 C14_4 1_555 1_555
H16_4 C16_4 1_555 1_555
H17_4 C16_4 1_555 1_555
H18_4 C16_4 1_555 1_555
C17_4 C13_4 1_555 1_555
C21_4 C17_4 1_555 1_555
H22_4 C21_4 1_555 1_555
N4_4 C11_4 1_555 1_555
C6_4 C7_4 1_555 1_555

#END
