
###############################################################################
#
# This file contains modified crystal structure data generated from the
# MOF subset of the Cambridge Structural Database (CSD) v543 
# hosted by the Cambridge Crystallographic Data Centre (CCDC).
#
# This work is licensed under the Creative Commons
# Attribution-NonCommercial-ShareAlike 4.0 International License.
# To view a copy of this license, visit
# http://creativecommons.org/licenses/by-nc-sa/4.0/
# or send a letter to
# Creative Commons, PO Box 1866, Mountain View, CA 94042, USA.
#
# CIF created using the CSD Python API on 29 September 2022
# The structure has been converted into the P1 space group
# The structure has a 3D framework
# The original CSD entry TOMBAB is in the cubic crystal system
# The original CSD entry TOMBAB is in a Sohncke space group
# The framework has been calculated to contain at least 10.0% void space
# The void calculation uses a probe of radius 1.32A, grid spacing 0.4
# The framework is charged, counterions have been retained in the structure
# H atom positions have been added when not included in the experimental data
# Generated hydrogen atom positions removed from atoms on special positions
#
###############################################################################

data_TOMBAB
_chemical_formula_moiety         '(C384 H528 O164 Zn28 2+)n'
_symmetry_cell_setting           triclinic
_symmetry_space_group_name_H-M   'P 1'
_symmetry_Int_Tables_number      1
_space_group_name_Hall           'P 1'
loop_
_symmetry_equiv_pos_site_id
_symmetry_equiv_pos_as_xyz
1 x,y,z
_cell_length_a                   30.3978(2)
_cell_length_b                   30.3978(2)
_cell_length_c                   30.3978(2)
_cell_angle_alpha                90
_cell_angle_beta                 90
_cell_angle_gamma                90
_cell_volume                     28088.4
loop_
_atom_site_label
_atom_site_type_symbol
_atom_site_fract_x
_atom_site_fract_y
_atom_site_fract_z
C156 C 0.0168(4) 0.3280(5) 0.6923(5)
C161 C 0.0189(6) 0.2327(7) 0.6785(9)
C162 C 0.0195(4) 0.3339(5) 0.7376(5)
C163 C 0.0520(5) 0.3395(5) 0.6656(4)
H105 H 0.043038 0.250576 0.690185
H106 H 0.009383 0.211524 0.700856
H107 H 0.029047 0.216797 0.652306
C167 C 0.0575(5) 0.3513(6) 0.7561(4)
C169 C 0.0900(4) 0.3569(5) 0.6841(5)
O91 O 0.0524(4) 0.3332(4) 0.6224(4)
C173 C 0.0928(4) 0.3628(5) 0.7294(5)
C174 C 0.0640(9) 0.3593(9) 0.8050(6)
C175 C 0.1318(3) 0.3747(4) 0.6612(4)
H114 H 0.076676 0.322326 0.614895
H119 H 0.118771 0.374686 0.742010
H120 H 0.093287 0.371665 0.810058
H121 H 0.041577 0.379899 0.815529
H122 H 0.061211 0.331343 0.820869
C179 C 0.1278(3) 0.3994(4) 0.6230(4)
C180 C 0.1730(4) 0.3602(4) 0.6749(3)
C183 C 0.1650(4) 0.4096(4) 0.5983(3)
H127 H 0.099674 0.409261 0.613630
H128 H 0.175710 0.343302 0.701068
C184 C 0.2101(3) 0.3704(4) 0.6503(4)
C187 C 0.1608(7) 0.4433(7) 0.5625(7)
C188 C 0.2061(3) 0.3951(4) 0.6120(4)
C189 C 0.2559(8) 0.3565(7) 0.6664(7)
O93 O 0.1238(3) 0.4570(4) 0.5479(4)
O94 O 0.1971(4) 0.4494(4) 0.5413(4)
H131 H 0.231524 0.402031 0.595175
O95 O 0.2868(4) 0.3666(4) 0.6397(5)
O96 O 0.2555(4) 0.3387(4) 0.7020(4)
Zn25 Zn 0.11386(11) 0.500000 0.500000
Zn26 Zn 0.21042(11) 0.500000 0.500000
Zn27 Zn 0.34527(6) 0.34527(6) 0.65473(6)
Zn28 Zn 0.27603(6) 0.27603(6) 0.72397(6)
C16 C 0.7673(7) 0.3215(9) 0.0189(6)
H9 H 0.749424 0.309815 0.043038
H10 H 0.788476 0.299144 0.009383
H11 H 0.783203 0.347694 0.029047
C56 C 0.6720(5) 0.3077(5) 0.0168(4)
C58 C 0.3280(5) 0.6923(5) 0.0168(4)
C60 C 0.3077(5) 0.3280(5) 0.0168(4)
C63 C 0.6923(5) 0.6720(5) 0.0168(4)
C68 C 0.6661(5) 0.2624(5) 0.0195(4)
C69 C 0.6605(5) 0.3344(4) 0.0520(5)
C70 C 0.2327(7) 0.6785(9) 0.0189(6)
C71 C 0.3339(5) 0.7376(5) 0.0195(4)
C72 C 0.3395(5) 0.6656(4) 0.0520(5)
C73 C 0.2624(5) 0.3339(5) 0.0195(4)
C74 C 0.3344(4) 0.3395(5) 0.0520(5)
C75 C 0.3215(9) 0.2327(7) 0.0189(6)
C76 C 0.7376(5) 0.6661(5) 0.0195(4)
C77 C 0.6656(4) 0.6605(5) 0.0520(5)
C78 C 0.6785(9) 0.7673(7) 0.0189(6)
C81 C 0.6487(6) 0.2439(4) 0.0575(5)
C83 C 0.6431(5) 0.3159(5) 0.0900(4)
O47 O 0.6668(4) 0.3776(4) 0.0524(4)
H36 H 0.250576 0.690185 0.043038
H37 H 0.211524 0.700856 0.009383
H38 H 0.216797 0.652306 0.029047
C84 C 0.3513(6) 0.7561(4) 0.0575(5)
C86 C 0.3569(5) 0.6841(5) 0.0900(4)
O48 O 0.3332(4) 0.6224(4) 0.0524(4)
C87 C 0.2439(4) 0.3513(6) 0.0575(5)
C89 C 0.3159(5) 0.3569(5) 0.0900(4)
O49 O 0.3776(4) 0.3332(4) 0.0524(4)
H39 H 0.309815 0.250576 0.043038
H40 H 0.299144 0.211524 0.009383
H41 H 0.347694 0.216797 0.029047
C90 C 0.7561(4) 0.6487(6) 0.0575(5)
C92 C 0.6841(5) 0.6431(5) 0.0900(4)
O50 O 0.6224(4) 0.6668(4) 0.0524(4)
H42 H 0.690185 0.749424 0.043038
H43 H 0.700856 0.788476 0.009383
H44 H 0.652306 0.783203 0.029047
C97 C 0.6372(5) 0.2706(5) 0.0928(4)
C98 C 0.6407(9) 0.1950(6) 0.0640(9)
C99 C 0.6253(4) 0.3388(4) 0.1318(3)
H48 H 0.677674 0.385105 0.076676
C100 C 0.3628(5) 0.7294(5) 0.0928(4)
C101 C 0.3593(9) 0.8050(6) 0.0640(9)
C102 C 0.3747(4) 0.6612(4) 0.1318(3)
H52 H 0.322326 0.614895 0.076676
C103 C 0.2706(5) 0.3628(5) 0.0928(4)
C104 C 0.1950(6) 0.3593(9) 0.0640(9)
C105 C 0.3388(4) 0.3747(4) 0.1318(3)
H56 H 0.385105 0.322326 0.076676
C106 C 0.7294(5) 0.6372(5) 0.0928(4)
C107 C 0.8050(6) 0.6407(9) 0.0640(9)
C108 C 0.6612(4) 0.6253(4) 0.1318(3)
H60 H 0.614895 0.677674 0.076676
H65 H 0.625314 0.257990 0.118771
H66 H 0.628335 0.189942 0.093287
H67 H 0.620101 0.184471 0.041577
H68 H 0.668657 0.179131 0.061211
C113 C 0.6006(4) 0.3770(4) 0.1278(3)
C114 C 0.6398(4) 0.3251(3) 0.1730(4)
H69 H 0.374686 0.742010 0.118771
H70 H 0.371665 0.810058 0.093287
H71 H 0.379899 0.815529 0.041577
H72 H 0.331343 0.820869 0.061211
C115 C 0.3994(4) 0.6230(4) 0.1278(3)
C116 C 0.3602(4) 0.6749(3) 0.1730(4)
H73 H 0.257990 0.374686 0.118771
H74 H 0.189942 0.371665 0.093287
H75 H 0.184471 0.379899 0.041577
H76 H 0.179131 0.331343 0.061211
C117 C 0.3770(4) 0.3994(4) 0.1278(3)
C118 C 0.3251(3) 0.3602(4) 0.1730(4)
H77 H 0.742010 0.625314 0.118771
H78 H 0.810058 0.628335 0.093287
H79 H 0.815529 0.620101 0.041577
H80 H 0.820869 0.668657 0.061211
C119 C 0.6230(4) 0.6006(4) 0.1278(3)
C120 C 0.6749(3) 0.6398(4) 0.1730(4)
C127 C 0.5904(4) 0.4017(3) 0.1650(4)
H81 H 0.590739 0.386370 0.099674
H82 H 0.656698 0.298932 0.175710
C128 C 0.6296(4) 0.3497(4) 0.2101(3)
C129 C 0.4096(4) 0.5983(3) 0.1650(4)
H83 H 0.409261 0.613630 0.099674
H84 H 0.343302 0.701068 0.175710
C130 C 0.3704(4) 0.6503(4) 0.2101(3)
C131 C 0.4017(3) 0.4096(4) 0.1650(4)
H85 H 0.386370 0.409261 0.099674
H86 H 0.298932 0.343302 0.175710
C132 C 0.3497(4) 0.3704(4) 0.2101(3)
C133 C 0.5983(3) 0.5904(4) 0.1650(4)
H87 H 0.613630 0.590739 0.099674
H88 H 0.701068 0.656698 0.175710
C134 C 0.6503(4) 0.6296(4) 0.2101(3)
C139 C 0.5567(7) 0.4375(7) 0.1608(7)
C140 C 0.6049(4) 0.3880(4) 0.2061(3)
C141 C 0.6435(7) 0.3336(7) 0.2559(8)
C142 C 0.4433(7) 0.5625(7) 0.1608(7)
C143 C 0.3951(4) 0.6120(4) 0.2061(3)
C144 C 0.3565(7) 0.6664(7) 0.2559(8)
C145 C 0.4375(7) 0.4433(7) 0.1608(7)
C146 C 0.3880(4) 0.3951(4) 0.2061(3)
C147 C 0.3336(7) 0.3565(7) 0.2559(8)
C148 C 0.5625(7) 0.5567(7) 0.1608(7)
C149 C 0.6120(4) 0.6049(4) 0.2061(3)
C150 C 0.6664(7) 0.6435(7) 0.2559(8)
O57 O 0.5430(4) 0.4521(4) 0.1238(3)
O58 O 0.5506(4) 0.4587(4) 0.1971(4)
H93 H 0.597969 0.404825 0.231524
O59 O 0.6334(4) 0.3603(5) 0.2868(4)
O60 O 0.6613(4) 0.2980(4) 0.2555(4)
O61 O 0.4570(4) 0.5479(4) 0.1238(3)
O62 O 0.4494(4) 0.5413(4) 0.1971(4)
H94 H 0.402031 0.595175 0.231524
O63 O 0.3666(4) 0.6397(5) 0.2868(4)
O64 O 0.3387(4) 0.7020(4) 0.2555(4)
O65 O 0.4521(4) 0.4570(4) 0.1238(3)
O66 O 0.4587(4) 0.4494(4) 0.1971(4)
H95 H 0.404825 0.402031 0.231524
O67 O 0.3603(5) 0.3666(4) 0.2868(4)
O68 O 0.2980(4) 0.3387(4) 0.2555(4)
O69 O 0.5479(4) 0.5430(4) 0.1238(3)
O70 O 0.5413(4) 0.5506(4) 0.1971(4)
H96 H 0.595175 0.597969 0.231524
O71 O 0.6397(5) 0.6334(4) 0.2868(4)
O72 O 0.7020(4) 0.6613(4) 0.2555(4)
Zn15 Zn 0.500000 0.500000 0.11386(11)
Zn16 Zn 0.500000 0.500000 0.21042(11)
Zn17 Zn 0.65473(6) 0.34527(6) 0.34527(6)
Zn18 Zn 0.72397(6) 0.27603(6) 0.27603(6)
Zn19 Zn 0.34527(6) 0.65473(6) 0.34527(6)
Zn20 Zn 0.27603(6) 0.72397(6) 0.27603(6)
Zn21 Zn 0.34527(6) 0.34527(6) 0.34527(6)
Zn22 Zn 0.27603(6) 0.27603(6) 0.27603(6)
Zn23 Zn 0.65473(6) 0.65473(6) 0.34527(6)
Zn24 Zn 0.72397(6) 0.72397(6) 0.27603(6)
O81 O 0.500000 0.500000 0.0502(6)
O82 O 0.500000 0.500000 0.2789(6)
O83 O 0.6174(4) 0.3826(4) 0.3826(4)
O84 O 0.6397(5) 0.2868(4) 0.3666(4)
O85 O 0.7132(4) 0.3666(4) 0.3603(5)
O86 O 0.7012(7) 0.2125(4) 0.2485(5)
O87 O 0.7515(5) 0.2988(7) 0.2125(4)
O88 O 0.7875(4) 0.2485(5) 0.2988(7)
O89 O 0.7020(4) 0.2555(4) 0.3387(4)
O90 O 0.7445(4) 0.3387(4) 0.2980(4)
Zn1 Zn 0.500000 0.500000 0.88614(11)
O1 O 0.5479(4) 0.4570(4) 0.8762(3)
O2 O 0.500000 0.500000 0.9498(6)
C1 C 0.5625(7) 0.4433(7) 0.8392(7)
O3 O 0.5413(4) 0.4494(4) 0.8029(4)
C2 C 0.5983(3) 0.4096(4) 0.8350(4)
Zn2 Zn 0.500000 0.500000 0.78958(11)
C3 C 0.6120(4) 0.3951(4) 0.7939(3)
C4 C 0.6230(4) 0.3994(4) 0.8722(3)
O4 O 0.500000 0.500000 0.7211(6)
H1 H 0.595175 0.402031 0.768476
C5 C 0.6503(4) 0.3704(4) 0.7899(3)
H2 H 0.613630 0.409261 0.900326
C6 C 0.6612(4) 0.3747(4) 0.8682(3)
C7 C 0.6749(3) 0.3602(4) 0.8270(4)
C8 C 0.6664(7) 0.3565(7) 0.7441(8)
C9 C 0.6841(5) 0.3569(5) 0.9100(4)
H3 H 0.701068 0.343302 0.824290
O5 O 0.6397(5) 0.3666(4) 0.7132(4)
O6 O 0.7020(4) 0.3387(4) 0.7445(4)
C10 C 0.6656(4) 0.3395(5) 0.9480(5)
C11 C 0.7294(5) 0.3628(5) 0.9072(4)
Zn3 Zn 0.65473(6) 0.34527(6) 0.65473(6)
Zn4 Zn 0.72397(6) 0.27603(6) 0.72397(6)
C12 C 0.6923(5) 0.3280(5) 0.9832(4)
O7 O 0.6224(4) 0.3332(4) 0.9476(4)
C13 C 0.7561(4) 0.3513(6) 0.9425(5)
H4 H 0.742010 0.374686 0.881229
O8 O 0.6174(4) 0.3826(4) 0.6174(4)
O9 O 0.7875(4) 0.2988(7) 0.7515(5)
C14 C 0.7376(5) 0.3339(5) 0.9805(4)
H5 H 0.614895 0.322326 0.923324
C15 C 0.8050(6) 0.3593(9) 0.9360(9)
H6 H 0.810058 0.371665 0.906713
H7 H 0.815529 0.379899 0.958423
H8 H 0.820869 0.331343 0.938789
O10 O 0.4521(4) 0.5430(4) 0.8762(3)
O11 O 0.4570(4) 0.4521(4) 0.8762(3)
O12 O 0.5430(4) 0.5479(4) 0.8762(3)
C17 C 0.4375(7) 0.5567(7) 0.8392(7)
C18 C 0.4433(7) 0.4375(7) 0.8392(7)
C19 C 0.5567(7) 0.5625(7) 0.8392(7)
O13 O 0.4587(4) 0.5506(4) 0.8029(4)
C20 C 0.4017(3) 0.5904(4) 0.8350(4)
O14 O 0.4494(4) 0.4587(4) 0.8029(4)
C21 C 0.4096(4) 0.4017(3) 0.8350(4)
O15 O 0.5506(4) 0.5413(4) 0.8029(4)
C22 C 0.5904(4) 0.5983(3) 0.8350(4)
C23 C 0.3880(4) 0.6049(4) 0.7939(3)
C24 C 0.3770(4) 0.6006(4) 0.8722(3)
C25 C 0.3951(4) 0.3880(4) 0.7939(3)
C26 C 0.3994(4) 0.3770(4) 0.8722(3)
C27 C 0.6049(4) 0.6120(4) 0.7939(3)
C28 C 0.6006(4) 0.6230(4) 0.8722(3)
H12 H 0.404825 0.597969 0.768476
C29 C 0.3497(4) 0.6296(4) 0.7899(3)
H13 H 0.386370 0.590739 0.900326
C30 C 0.3388(4) 0.6253(4) 0.8682(3)
H14 H 0.402031 0.404825 0.768476
C31 C 0.3704(4) 0.3497(4) 0.7899(3)
H15 H 0.409261 0.386370 0.900326
C32 C 0.3747(4) 0.3388(4) 0.8682(3)
H16 H 0.597969 0.595175 0.768476
C33 C 0.6296(4) 0.6503(4) 0.7899(3)
H17 H 0.590739 0.613630 0.900326
C34 C 0.6253(4) 0.6612(4) 0.8682(3)
C35 C 0.3251(3) 0.6398(4) 0.8270(4)
C36 C 0.3336(7) 0.6435(7) 0.7441(8)
C37 C 0.3159(5) 0.6431(5) 0.9100(4)
C38 C 0.3602(4) 0.3251(3) 0.8270(4)
C39 C 0.3565(7) 0.3336(7) 0.7441(8)
C40 C 0.3569(5) 0.3159(5) 0.9100(4)
C41 C 0.6398(4) 0.6749(3) 0.8270(4)
C42 C 0.6435(7) 0.6664(7) 0.7441(8)
C43 C 0.6431(5) 0.6841(5) 0.9100(4)
H18 H 0.298932 0.656698 0.824290
O16 O 0.3603(5) 0.6334(4) 0.7132(4)
O17 O 0.2980(4) 0.6613(4) 0.7445(4)
C44 C 0.3344(4) 0.6605(5) 0.9480(5)
C45 C 0.2706(5) 0.6372(5) 0.9072(4)
H19 H 0.343302 0.298932 0.824290
O18 O 0.3666(4) 0.3603(5) 0.7132(4)
O19 O 0.3387(4) 0.2980(4) 0.7445(4)
C46 C 0.3395(5) 0.3344(4) 0.9480(5)
C47 C 0.3628(5) 0.2706(5) 0.9072(4)
H20 H 0.656698 0.701068 0.824290
O20 O 0.6334(4) 0.6397(5) 0.7132(4)
O21 O 0.6613(4) 0.7020(4) 0.7445(4)
C48 C 0.6605(5) 0.6656(4) 0.9480(5)
C49 C 0.6372(5) 0.7294(5) 0.9072(4)
Zn5 Zn 0.34527(6) 0.65473(6) 0.65473(6)
Zn6 Zn 0.27603(6) 0.72397(6) 0.72397(6)
C50 C 0.3077(5) 0.6720(5) 0.9832(4)
O22 O 0.3776(4) 0.6668(4) 0.9476(4)
C51 C 0.2439(4) 0.6487(6) 0.9425(5)
H21 H 0.257990 0.625314 0.881229
C52 C 0.3280(5) 0.3077(5) 0.9832(4)
O23 O 0.3332(4) 0.3776(4) 0.9476(4)
C53 C 0.3513(6) 0.2439(4) 0.9425(5)
H22 H 0.374686 0.257990 0.881229
Zn9 Zn 0.65473(6) 0.65473(6) 0.65473(6)
Zn10 Zn 0.72397(6) 0.72397(6) 0.72397(6)
C54 C 0.6720(5) 0.6923(5) 0.9832(4)
O24 O 0.6668(4) 0.6224(4) 0.9476(4)
C55 C 0.6487(6) 0.7561(4) 0.9425(5)
H23 H 0.625314 0.742010 0.881229
O25 O 0.7132(4) 0.3603(5) 0.6334(4)
O26 O 0.6334(4) 0.2868(4) 0.6397(5)
O27 O 0.7445(4) 0.2980(4) 0.6613(4)
O28 O 0.7515(5) 0.2125(4) 0.7012(7)
O29 O 0.6613(4) 0.2555(4) 0.7020(4)
O30 O 0.7012(7) 0.2485(5) 0.7875(4)
O31 O 0.3826(4) 0.6174(4) 0.6174(4)
O32 O 0.2868(4) 0.6397(5) 0.6334(4)
O33 O 0.3666(4) 0.7132(4) 0.6397(5)
O34 O 0.2125(4) 0.7012(7) 0.7515(5)
O35 O 0.2485(5) 0.7875(4) 0.7012(7)
O36 O 0.2988(7) 0.7515(5) 0.7875(4)
O37 O 0.2555(4) 0.7020(4) 0.6613(4)
O38 O 0.3387(4) 0.7445(4) 0.7020(4)
C57 C 0.2624(5) 0.6661(5) 0.9805(4)
H24 H 0.385105 0.677674 0.923324
C59 C 0.1950(6) 0.6407(9) 0.9360(9)
O39 O 0.3826(4) 0.3826(4) 0.6174(4)
O40 O 0.3603(5) 0.2868(4) 0.6334(4)
O42 O 0.2988(7) 0.2125(4) 0.7515(5)
O43 O 0.2125(4) 0.2485(5) 0.7012(7)
O44 O 0.2485(5) 0.2988(7) 0.7875(4)
O45 O 0.2980(4) 0.2555(4) 0.6613(4)
C61 C 0.3339(5) 0.2624(5) 0.9805(4)
H25 H 0.322326 0.385105 0.923324
C62 C 0.3593(9) 0.1950(6) 0.9360(9)
C64 C 0.6661(5) 0.7376(5) 0.9805(4)
H26 H 0.677674 0.614895 0.923324
C65 C 0.6407(9) 0.8050(6) 0.9360(9)
C66 C 0.7441(8) 0.3336(7) 0.6435(7)
C67 C 0.6435(7) 0.2559(8) 0.6664(7)
H27 H 0.189942 0.628335 0.906713
H28 H 0.184471 0.620101 0.958423
H29 H 0.179131 0.668657 0.938789
H30 H 0.371665 0.189942 0.906713
H31 H 0.379899 0.184471 0.958423
H32 H 0.331343 0.179131 0.938789
H33 H 0.628335 0.810058 0.906713
H34 H 0.620101 0.815529 0.958423
H35 H 0.668657 0.820869 0.938789
C79 C 0.7899(3) 0.3497(4) 0.6296(4)
C80 C 0.6296(4) 0.2101(3) 0.6503(4)
C82 C 0.6785(9) 0.2327(7) 0.9811(6)
C85 C 0.3215(9) 0.7673(7) 0.9811(6)
C88 C 0.2327(7) 0.3215(9) 0.9811(6)
C91 C 0.7673(7) 0.6785(9) 0.9811(6)
C93 C 0.7939(3) 0.3880(4) 0.6049(4)
C94 C 0.8270(4) 0.3251(3) 0.6398(4)
C95 C 0.6049(4) 0.2061(3) 0.6120(4)
C96 C 0.6398(4) 0.1730(4) 0.6749(3)
H45 H 0.690185 0.250576 0.956962
H46 H 0.700856 0.211524 0.990617
H47 H 0.652306 0.216797 0.970953
H49 H 0.309815 0.749424 0.956962
H50 H 0.299144 0.788476 0.990617
H51 H 0.347694 0.783203 0.970953
H53 H 0.250576 0.309815 0.956962
H54 H 0.211524 0.299144 0.990617
H55 H 0.216797 0.347694 0.970953
H57 H 0.749424 0.690185 0.956962
H58 H 0.788476 0.700856 0.990617
H59 H 0.783203 0.652306 0.970953
H61 H 0.768476 0.404825 0.597969
C109 C 0.8350(4) 0.4017(3) 0.5904(4)
C110 C 0.8682(3) 0.3388(4) 0.6253(4)
H62 H 0.824290 0.298932 0.656698
H63 H 0.597969 0.231524 0.595175
C111 C 0.5904(4) 0.1650(4) 0.5983(3)
C112 C 0.6253(4) 0.1318(3) 0.6612(4)
H64 H 0.656698 0.175710 0.701068
C121 C 0.8392(7) 0.4375(7) 0.5567(7)
C122 C 0.8722(3) 0.3770(4) 0.6006(4)
C123 C 0.9100(4) 0.3159(5) 0.6431(5)
C124 C 0.5567(7) 0.1608(7) 0.5625(7)
C125 C 0.6006(4) 0.1278(3) 0.6230(4)
C126 C 0.6431(5) 0.0900(4) 0.6841(5)
O51 O 0.8762(3) 0.4521(4) 0.5430(4)
O52 O 0.8029(4) 0.4587(4) 0.5506(4)
H89 H 0.900326 0.386370 0.590739
C135 C 0.9480(5) 0.3344(4) 0.6605(5)
C136 C 0.9072(4) 0.2706(5) 0.6372(5)
O53 O 0.5430(4) 0.1238(3) 0.5479(4)
O54 O 0.5506(4) 0.1971(4) 0.5413(4)
H90 H 0.590739 0.099674 0.613630
C137 C 0.6605(5) 0.0520(5) 0.6656(4)
C138 C 0.6372(5) 0.0928(4) 0.7294(5)
Zn11 Zn 0.88614(11) 0.500000 0.500000
Zn12 Zn 0.78958(11) 0.500000 0.500000
C151 C 0.9832(4) 0.3077(5) 0.6720(5)
O55 O 0.9476(4) 0.3776(4) 0.6668(4)
C152 C 0.9425(5) 0.2439(4) 0.6487(6)
H91 H 0.881229 0.257990 0.625314
Zn13 Zn 0.500000 0.11386(11) 0.500000
Zn14 Zn 0.500000 0.21042(11) 0.500000
C153 C 0.6720(5) 0.0168(4) 0.6923(5)
O56 O 0.6668(4) 0.0524(4) 0.6224(4)
C154 C 0.6487(6) 0.0575(5) 0.7561(4)
H92 H 0.625314 0.118771 0.742010
O73 O 0.9498(6) 0.500000 0.500000
O74 O 0.8762(3) 0.5479(4) 0.4570(4)
O75 O 0.8762(3) 0.4570(4) 0.4521(4)
O76 O 0.8762(3) 0.5430(4) 0.5479(4)
O77 O 0.7211(6) 0.500000 0.500000
O78 O 0.8029(4) 0.5413(4) 0.4494(4)
O79 O 0.8029(4) 0.4494(4) 0.4587(4)
O80 O 0.8029(4) 0.5506(4) 0.5413(4)
C155 C 0.9805(4) 0.2624(5) 0.6661(5)
H97 H 0.923324 0.385105 0.677674
C157 C 0.9360(9) 0.1950(6) 0.6407(9)
C158 C 0.6661(5) 0.0195(4) 0.7376(5)
H98 H 0.677674 0.076676 0.614895
C160 C 0.6407(9) 0.0640(9) 0.8050(6)
H99 H 0.906713 0.189942 0.628335
H100 H 0.958423 0.184471 0.620101
H101 H 0.938789 0.179131 0.668657
H102 H 0.628335 0.093287 0.810058
H103 H 0.620101 0.041577 0.815529
H104 H 0.668657 0.061211 0.820869
C168 C 0.9811(6) 0.3215(9) 0.7673(7)
C171 C 0.7673(7) 0.0189(6) 0.6785(9)
H111 H 0.956962 0.309815 0.749424
H112 H 0.990617 0.299144 0.788476
H113 H 0.970953 0.347694 0.783203
H115 H 0.749424 0.043038 0.690185
H116 H 0.788476 0.009383 0.700856
H117 H 0.783203 0.029047 0.652306
C159 C 0.6923(5) 0.9832(4) 0.6720(5)
C164 C 0.6785(9) 0.9811(6) 0.7673(7)
C165 C 0.7376(5) 0.9805(4) 0.6661(5)
C166 C 0.6656(4) 0.9480(5) 0.6605(5)
H108 H 0.690185 0.956962 0.749424
H109 H 0.700856 0.990617 0.788476
H110 H 0.652306 0.970953 0.783203
C170 C 0.7561(4) 0.9425(5) 0.6487(6)
C172 C 0.6841(5) 0.9100(4) 0.6431(5)
O92 O 0.6224(4) 0.9476(4) 0.6668(4)
C176 C 0.7294(5) 0.9072(4) 0.6372(5)
C177 C 0.8050(6) 0.9360(9) 0.6407(9)
C178 C 0.6612(4) 0.8682(3) 0.6253(4)
H118 H 0.614895 0.923324 0.677674
H123 H 0.742010 0.881229 0.625314
H124 H 0.810058 0.906713 0.628335
H125 H 0.815529 0.958423 0.620101
H126 H 0.820869 0.938789 0.668657
C181 C 0.6230(4) 0.8722(3) 0.6006(4)
C182 C 0.6749(3) 0.8270(4) 0.6398(4)
C185 C 0.5983(3) 0.8350(4) 0.5904(4)
H129 H 0.613630 0.900326 0.590739
H130 H 0.701068 0.824290 0.656698
C186 C 0.6503(4) 0.7899(3) 0.6296(4)
C190 C 0.5625(7) 0.8392(7) 0.5567(7)
C191 C 0.6120(4) 0.7939(3) 0.6049(4)
C192 C 0.6664(7) 0.7441(8) 0.6435(7)
O97 O 0.5479(4) 0.8762(3) 0.5430(4)
O98 O 0.5413(4) 0.8029(4) 0.5506(4)
H132 H 0.595175 0.768476 0.597969
O99 O 0.6397(5) 0.7132(4) 0.6334(4)
O100 O 0.7020(4) 0.7445(4) 0.6613(4)
Zn29 Zn 0.500000 0.88614(11) 0.500000
Zn30 Zn 0.500000 0.78958(11) 0.500000
C159_2 C 0.3077(5) 0.0168(4) 0.6720(5)
C164_2 C 0.3215(9) 0.0189(6) 0.7673(7)
C165_2 C 0.2624(5) 0.0195(4) 0.6661(5)
C166_2 C 0.3344(4) 0.0520(5) 0.6605(5)
H108_2 H 0.309815 0.043038 0.749424
H109_2 H 0.299144 0.009383 0.788476
H110_2 H 0.347694 0.029047 0.783203
C170_2 C 0.2439(4) 0.0575(5) 0.6487(6)
C172_2 C 0.3159(5) 0.0900(4) 0.6431(5)
O92_2 O 0.3776(4) 0.0524(4) 0.6668(4)
C176_2 C 0.2706(5) 0.0928(4) 0.6372(5)
C177_2 C 0.1950(6) 0.0640(9) 0.6407(9)
C178_2 C 0.3388(4) 0.1318(3) 0.6253(4)
H118_2 H 0.385105 0.076676 0.677674
H123_2 H 0.257990 0.118771 0.625314
H124_2 H 0.189942 0.093287 0.628335
H125_2 H 0.184471 0.041577 0.620101
H126_2 H 0.179131 0.061211 0.668657
C181_2 C 0.3770(4) 0.1278(3) 0.6006(4)
C182_2 C 0.3251(3) 0.1730(4) 0.6398(4)
C185_2 C 0.4017(3) 0.1650(4) 0.5904(4)
H129_2 H 0.386370 0.099674 0.590739
H130_2 H 0.298932 0.175710 0.656698
C186_2 C 0.3497(4) 0.2101(3) 0.6296(4)
C190_2 C 0.4375(7) 0.1608(7) 0.5567(7)
C191_2 C 0.3880(4) 0.2061(3) 0.6049(4)
C192_2 C 0.3336(7) 0.2559(8) 0.6435(7)
O97_2 O 0.4521(4) 0.1238(3) 0.5430(4)
O98_2 O 0.4587(4) 0.1971(4) 0.5506(4)
H132_2 H 0.404825 0.231524 0.597969
O83_2 O 0.3826(4) 0.6174(4) 0.3826(4)
O84_2 O 0.3603(5) 0.7132(4) 0.3666(4)
O85_2 O 0.2868(4) 0.6334(4) 0.3603(5)
O86_2 O 0.2988(7) 0.7875(4) 0.2485(5)
O87_2 O 0.2485(5) 0.7012(7) 0.2125(4)
O88_2 O 0.2125(4) 0.7515(5) 0.2988(7)
O89_2 O 0.2980(4) 0.7445(4) 0.3387(4)
O90_2 O 0.2555(4) 0.6613(4) 0.2980(4)
O39_2 O 0.6174(4) 0.6174(4) 0.6174(4)
O41 O 0.7132(4) 0.6334(4) 0.6397(5)
O42_2 O 0.7012(7) 0.7875(4) 0.7515(5)
O43_2 O 0.7875(4) 0.7515(5) 0.7012(7)
O44_2 O 0.7515(5) 0.7012(7) 0.7875(4)
O46 O 0.7445(4) 0.6613(4) 0.7020(4)
C66_2 C 0.2559(8) 0.6664(7) 0.6435(7)
C67_2 C 0.3565(7) 0.7441(8) 0.6664(7)
C79_2 C 0.2101(3) 0.6503(4) 0.6296(4)
C80_2 C 0.3704(4) 0.7899(3) 0.6503(4)
C93_2 C 0.2061(3) 0.6120(4) 0.6049(4)
C94_2 C 0.1730(4) 0.6749(3) 0.6398(4)
C95_2 C 0.3951(4) 0.7939(3) 0.6120(4)
C96_2 C 0.3602(4) 0.8270(4) 0.6749(3)
H61_2 H 0.231524 0.595175 0.597969
C109_2 C 0.1650(4) 0.5983(3) 0.5904(4)
C110_2 C 0.1318(3) 0.6612(4) 0.6253(4)
H62_2 H 0.175710 0.701068 0.656698
H63_2 H 0.402031 0.768476 0.595175
C111_2 C 0.4096(4) 0.8350(4) 0.5983(3)
C112_2 C 0.3747(4) 0.8682(3) 0.6612(4)
H64_2 H 0.343302 0.824290 0.701068
C121_2 C 0.1608(7) 0.5625(7) 0.5567(7)
C122_2 C 0.1278(3) 0.6230(4) 0.6006(4)
C123_2 C 0.0900(4) 0.6841(5) 0.6431(5)
C124_2 C 0.4433(7) 0.8392(7) 0.5625(7)
C125_2 C 0.3994(4) 0.8722(3) 0.6230(4)
C126_2 C 0.3569(5) 0.9100(4) 0.6841(5)
O51_2 O 0.1238(3) 0.5479(4) 0.5430(4)
O52_2 O 0.1971(4) 0.5413(4) 0.5506(4)
H89_2 H 0.099674 0.613630 0.590739
C135_2 C 0.0520(5) 0.6656(4) 0.6605(5)
C136_2 C 0.0928(4) 0.7294(5) 0.6372(5)
O53_2 O 0.4570(4) 0.8762(3) 0.5479(4)
O54_2 O 0.4494(4) 0.8029(4) 0.5413(4)
H90_2 H 0.409261 0.900326 0.613630
C137_2 C 0.3395(5) 0.9480(5) 0.6656(4)
C138_2 C 0.3628(5) 0.9072(4) 0.7294(5)
C151_2 C 0.0168(4) 0.6923(5) 0.6720(5)
O55_2 O 0.0524(4) 0.6224(4) 0.6668(4)
C152_2 C 0.0575(5) 0.7561(4) 0.6487(6)
H91_2 H 0.118771 0.742010 0.625314
C153_2 C 0.3280(5) 0.9832(4) 0.6923(5)
O56_2 O 0.3332(4) 0.9476(4) 0.6224(4)
C154_2 C 0.3513(6) 0.9425(5) 0.7561(4)
H92_2 H 0.374686 0.881229 0.742010
O73_2 O 0.0502(6) 0.500000 0.500000
O74_2 O 0.1238(3) 0.4521(4) 0.4570(4)
O75_2 O 0.1238(3) 0.5430(4) 0.4521(4)
O77_2 O 0.2789(6) 0.500000 0.500000
O78_2 O 0.1971(4) 0.4587(4) 0.4494(4)
O79_2 O 0.1971(4) 0.5506(4) 0.4587(4)
C155_2 C 0.0195(4) 0.7376(5) 0.6661(5)
H97_2 H 0.076676 0.614895 0.677674
C157_2 C 0.0640(9) 0.8050(6) 0.6407(9)
C158_2 C 0.3339(5) 0.9805(4) 0.7376(5)
H98_2 H 0.322326 0.923324 0.614895
C160_2 C 0.3593(9) 0.9360(9) 0.8050(6)
H99_2 H 0.093287 0.810058 0.628335
H100_2 H 0.041577 0.815529 0.620101
H101_2 H 0.061211 0.820869 0.668657
H102_2 H 0.371665 0.906713 0.810058
H103_2 H 0.379899 0.958423 0.815529
H104_2 H 0.331343 0.938789 0.820869
C168_2 C 0.0189(6) 0.6785(9) 0.7673(7)
C171_2 C 0.2327(7) 0.9811(6) 0.6785(9)
H111_2 H 0.043038 0.690185 0.749424
H112_2 H 0.009383 0.700856 0.788476
H113_2 H 0.029047 0.652306 0.783203
H115_2 H 0.250576 0.956962 0.690185
H116_2 H 0.211524 0.990617 0.700856
H117_2 H 0.216797 0.970953 0.652306
C156_2 C 0.9832(4) 0.6720(5) 0.6923(5)
C161_2 C 0.9811(6) 0.7673(7) 0.6785(9)
C162_2 C 0.9805(4) 0.6661(5) 0.7376(5)
C163_2 C 0.9480(5) 0.6605(5) 0.6656(4)
H105_2 H 0.956962 0.749424 0.690185
H106_2 H 0.990617 0.788476 0.700856
H107_2 H 0.970953 0.783203 0.652306
C167_2 C 0.9425(5) 0.6487(6) 0.7561(4)
C169_2 C 0.9100(4) 0.6431(5) 0.6841(5)
O91_2 O 0.9476(4) 0.6668(4) 0.6224(4)
C173_2 C 0.9072(4) 0.6372(5) 0.7294(5)
C174_2 C 0.9360(9) 0.6407(9) 0.8050(6)
C175_2 C 0.8682(3) 0.6253(4) 0.6612(4)
H114_2 H 0.923324 0.677674 0.614895
H119_2 H 0.881229 0.625314 0.742010
H120_2 H 0.906713 0.628335 0.810058
H121_2 H 0.958423 0.620101 0.815529
H122_2 H 0.938789 0.668657 0.820869
C179_2 C 0.8722(3) 0.6006(4) 0.6230(4)
C180_2 C 0.8270(4) 0.6398(4) 0.6749(3)
C183_2 C 0.8350(4) 0.5904(4) 0.5983(3)
H127_2 H 0.900326 0.590739 0.613630
H128_2 H 0.824290 0.656698 0.701068
C184_2 C 0.7899(3) 0.6296(4) 0.6503(4)
C187_2 C 0.8392(7) 0.5567(7) 0.5625(7)
C188_2 C 0.7939(3) 0.6049(4) 0.6120(4)
C189_2 C 0.7441(8) 0.6435(7) 0.6664(7)
H131_2 H 0.768476 0.597969 0.595175
O8_2 O 0.3826(4) 0.3826(4) 0.3826(4)
O9_2 O 0.2125(4) 0.2988(7) 0.2485(5)
O25_2 O 0.2868(4) 0.3603(5) 0.3666(4)
O26_2 O 0.3666(4) 0.2868(4) 0.3603(5)
O27_2 O 0.2555(4) 0.2980(4) 0.3387(4)
O28_2 O 0.2485(5) 0.2125(4) 0.2988(7)
O29_2 O 0.3387(4) 0.2555(4) 0.2980(4)
O30_2 O 0.2988(7) 0.2485(5) 0.2125(4)
O31_2 O 0.6174(4) 0.6174(4) 0.3826(4)
O32_2 O 0.7132(4) 0.6397(5) 0.3666(4)
O33_2 O 0.6334(4) 0.7132(4) 0.3603(5)
O34_2 O 0.7875(4) 0.7012(7) 0.2485(5)
O35_2 O 0.7515(5) 0.7875(4) 0.2988(7)
O36_2 O 0.7012(7) 0.7515(5) 0.2125(4)
O37_2 O 0.7445(4) 0.7020(4) 0.3387(4)
O38_2 O 0.6613(4) 0.7445(4) 0.2980(4)
C66_3 C 0.2559(8) 0.3336(7) 0.3565(7)
C67_3 C 0.3565(7) 0.2559(8) 0.3336(7)
C79_3 C 0.2101(3) 0.3497(4) 0.3704(4)
C80_3 C 0.3704(4) 0.2101(3) 0.3497(4)
C93_3 C 0.2061(3) 0.3880(4) 0.3951(4)
C94_3 C 0.1730(4) 0.3251(3) 0.3602(4)
C95_3 C 0.3951(4) 0.2061(3) 0.3880(4)
C96_3 C 0.3602(4) 0.1730(4) 0.3251(3)
H61_3 H 0.231524 0.404825 0.402031
C109_3 C 0.1650(4) 0.4017(3) 0.4096(4)
C110_3 C 0.1318(3) 0.3388(4) 0.3747(4)
H62_3 H 0.175710 0.298932 0.343302
H63_3 H 0.402031 0.231524 0.404825
C111_3 C 0.4096(4) 0.1650(4) 0.4017(3)
C112_3 C 0.3747(4) 0.1318(3) 0.3388(4)
H64_3 H 0.343302 0.175710 0.298932
C121_3 C 0.1608(7) 0.4375(7) 0.4433(7)
C122_3 C 0.1278(3) 0.3770(4) 0.3994(4)
C123_3 C 0.0900(4) 0.3159(5) 0.3569(5)
C124_3 C 0.4433(7) 0.1608(7) 0.4375(7)
C125_3 C 0.3994(4) 0.1278(3) 0.3770(4)
C126_3 C 0.3569(5) 0.0900(4) 0.3159(5)
H89_3 H 0.099674 0.386370 0.409261
C135_3 C 0.0520(5) 0.3344(4) 0.3395(5)
C136_3 C 0.0928(4) 0.2706(5) 0.3628(5)
O53_3 O 0.4570(4) 0.1238(3) 0.4521(4)
O54_3 O 0.4494(4) 0.1971(4) 0.4587(4)
H90_3 H 0.409261 0.099674 0.386370
C137_3 C 0.3395(5) 0.0520(5) 0.3344(4)
C138_3 C 0.3628(5) 0.0928(4) 0.2706(5)
C151_3 C 0.0168(4) 0.3077(5) 0.3280(5)
O55_3 O 0.0524(4) 0.3776(4) 0.3332(4)
C152_3 C 0.0575(5) 0.2439(4) 0.3513(6)
H91_3 H 0.118771 0.257990 0.374686
C153_3 C 0.3280(5) 0.0168(4) 0.3077(5)
O56_3 O 0.3332(4) 0.0524(4) 0.3776(4)
C154_3 C 0.3513(6) 0.0575(5) 0.2439(4)
H92_3 H 0.374686 0.118771 0.257990
C155_3 C 0.0195(4) 0.2624(5) 0.3339(5)
H97_3 H 0.076676 0.385105 0.322326
C157_3 C 0.0640(9) 0.1950(6) 0.3593(9)
C158_3 C 0.3339(5) 0.0195(4) 0.2624(5)
H98_3 H 0.322326 0.076676 0.385105
C160_3 C 0.3593(9) 0.0640(9) 0.1950(6)
H99_3 H 0.093287 0.189942 0.371665
H100_3 H 0.041577 0.184471 0.379899
H101_3 H 0.061211 0.179131 0.331343
H102_3 H 0.371665 0.093287 0.189942
H103_3 H 0.379899 0.041577 0.184471
H104_3 H 0.331343 0.061211 0.179131
C168_3 C 0.0189(6) 0.3215(9) 0.2327(7)
C171_3 C 0.2327(7) 0.0189(6) 0.3215(9)
H111_3 H 0.043038 0.309815 0.250576
H112_3 H 0.009383 0.299144 0.211524
H113_3 H 0.029047 0.347694 0.216797
H115_3 H 0.250576 0.043038 0.309815
H116_3 H 0.211524 0.009383 0.299144
H117_3 H 0.216797 0.029047 0.347694
C159_3 C 0.3077(5) 0.9832(4) 0.3280(5)
C164_3 C 0.3215(9) 0.9811(6) 0.2327(7)
C165_3 C 0.2624(5) 0.9805(4) 0.3339(5)
C166_3 C 0.3344(4) 0.9480(5) 0.3395(5)
H108_3 H 0.309815 0.956962 0.250576
H109_3 H 0.299144 0.990617 0.211524
H110_3 H 0.347694 0.970953 0.216797
C170_3 C 0.2439(4) 0.9425(5) 0.3513(6)
C172_3 C 0.3159(5) 0.9100(4) 0.3569(5)
O92_3 O 0.3776(4) 0.9476(4) 0.3332(4)
C176_3 C 0.2706(5) 0.9072(4) 0.3628(5)
C177_3 C 0.1950(6) 0.9360(9) 0.3593(9)
C178_3 C 0.3388(4) 0.8682(3) 0.3747(4)
H118_3 H 0.385105 0.923324 0.322326
H123_3 H 0.257990 0.881229 0.374686
H124_3 H 0.189942 0.906713 0.371665
H125_3 H 0.184471 0.958423 0.379899
H126_3 H 0.179131 0.938789 0.331343
C181_3 C 0.3770(4) 0.8722(3) 0.3994(4)
C182_3 C 0.3251(3) 0.8270(4) 0.3602(4)
C185_3 C 0.4017(3) 0.8350(4) 0.4096(4)
H129_3 H 0.386370 0.900326 0.409261
H130_3 H 0.298932 0.824290 0.343302
C186_3 C 0.3497(4) 0.7899(3) 0.3704(4)
C190_3 C 0.4375(7) 0.8392(7) 0.4433(7)
C191_3 C 0.3880(4) 0.7939(3) 0.3951(4)
C192_3 C 0.3336(7) 0.7441(8) 0.3565(7)
O97_3 O 0.4521(4) 0.8762(3) 0.4570(4)
O98_3 O 0.4587(4) 0.8029(4) 0.4494(4)
H132_3 H 0.404825 0.768476 0.402031
C156_3 C 0.9832(4) 0.3280(5) 0.3077(5)
C161_3 C 0.9811(6) 0.2327(7) 0.3215(9)
C162_3 C 0.9805(4) 0.3339(5) 0.2624(5)
C163_3 C 0.9480(5) 0.3395(5) 0.3344(4)
H105_3 H 0.956962 0.250576 0.309815
H106_3 H 0.990617 0.211524 0.299144
H107_3 H 0.970953 0.216797 0.347694
C167_3 C 0.9425(5) 0.3513(6) 0.2439(4)
C169_3 C 0.9100(4) 0.3569(5) 0.3159(5)
O91_3 O 0.9476(4) 0.3332(4) 0.3776(4)
C173_3 C 0.9072(4) 0.3628(5) 0.2706(5)
C174_3 C 0.9360(9) 0.3593(9) 0.1950(6)
C175_3 C 0.8682(3) 0.3747(4) 0.3388(4)
H114_3 H 0.923324 0.322326 0.385105
H119_3 H 0.881229 0.374686 0.257990
H120_3 H 0.906713 0.371665 0.189942
H121_3 H 0.958423 0.379899 0.184471
H122_3 H 0.938789 0.331343 0.179131
C179_3 C 0.8722(3) 0.3994(4) 0.3770(4)
C180_3 C 0.8270(4) 0.3602(4) 0.3251(3)
C183_3 C 0.8350(4) 0.4096(4) 0.4017(3)
H127_3 H 0.900326 0.409261 0.386370
H128_3 H 0.824290 0.343302 0.298932
C184_3 C 0.7899(3) 0.3704(4) 0.3497(4)
C187_3 C 0.8392(7) 0.4433(7) 0.4375(7)
C188_3 C 0.7939(3) 0.3951(4) 0.3880(4)
C189_3 C 0.7441(8) 0.3565(7) 0.3336(7)
H131_3 H 0.768476 0.402031 0.404825
C156_4 C 0.0168(4) 0.6720(5) 0.3077(5)
C161_4 C 0.0189(6) 0.7673(7) 0.3215(9)
C162_4 C 0.0195(4) 0.6661(5) 0.2624(5)
C163_4 C 0.0520(5) 0.6605(5) 0.3344(4)
H105_4 H 0.043038 0.749424 0.309815
H106_4 H 0.009383 0.788476 0.299144
H107_4 H 0.029047 0.783203 0.347694
C167_4 C 0.0575(5) 0.6487(6) 0.2439(4)
C169_4 C 0.0900(4) 0.6431(5) 0.3159(5)
O91_4 O 0.0524(4) 0.6668(4) 0.3776(4)
C173_4 C 0.0928(4) 0.6372(5) 0.2706(5)
C174_4 C 0.0640(9) 0.6407(9) 0.1950(6)
C175_4 C 0.1318(3) 0.6253(4) 0.3388(4)
H114_4 H 0.076676 0.677674 0.385105
H119_4 H 0.118771 0.625314 0.257990
H120_4 H 0.093287 0.628335 0.189942
H121_4 H 0.041577 0.620101 0.184471
H122_4 H 0.061211 0.668657 0.179131
C179_4 C 0.1278(3) 0.6006(4) 0.3770(4)
C180_4 C 0.1730(4) 0.6398(4) 0.3251(3)
C183_4 C 0.1650(4) 0.5904(4) 0.4017(3)
H127_4 H 0.099674 0.590739 0.386370
H128_4 H 0.175710 0.656698 0.298932
C184_4 C 0.2101(3) 0.6296(4) 0.3497(4)
C187_4 C 0.1608(7) 0.5567(7) 0.4375(7)
C188_4 C 0.2061(3) 0.6049(4) 0.3880(4)
C189_4 C 0.2559(8) 0.6435(7) 0.3336(7)
H131_4 H 0.231524 0.597969 0.404825
C159_4 C 0.6923(5) 0.0168(4) 0.3280(5)
C164_4 C 0.6785(9) 0.0189(6) 0.2327(7)
C165_4 C 0.7376(5) 0.0195(4) 0.3339(5)
C166_4 C 0.6656(4) 0.0520(5) 0.3395(5)
H108_4 H 0.690185 0.043038 0.250576
H109_4 H 0.700856 0.009383 0.211524
H110_4 H 0.652306 0.029047 0.216797
C170_4 C 0.7561(4) 0.0575(5) 0.3513(6)
C172_4 C 0.6841(5) 0.0900(4) 0.3569(5)
O92_4 O 0.6224(4) 0.0524(4) 0.3332(4)
C176_4 C 0.7294(5) 0.0928(4) 0.3628(5)
C177_4 C 0.8050(6) 0.0640(9) 0.3593(9)
C178_4 C 0.6612(4) 0.1318(3) 0.3747(4)
H118_4 H 0.614895 0.076676 0.322326
H123_4 H 0.742010 0.118771 0.374686
H124_4 H 0.810058 0.093287 0.371665
H125_4 H 0.815529 0.041577 0.379899
H126_4 H 0.820869 0.061211 0.331343
C181_4 C 0.6230(4) 0.1278(3) 0.3994(4)
C182_4 C 0.6749(3) 0.1730(4) 0.3602(4)
C185_4 C 0.5983(3) 0.1650(4) 0.4096(4)
H129_4 H 0.613630 0.099674 0.409261
H130_4 H 0.701068 0.175710 0.343302
C186_4 C 0.6503(4) 0.2101(3) 0.3704(4)
C190_4 C 0.5625(7) 0.1608(7) 0.4433(7)
C191_4 C 0.6120(4) 0.2061(3) 0.3951(4)
C192_4 C 0.6664(7) 0.2559(8) 0.3565(7)
O97_4 O 0.5479(4) 0.1238(3) 0.4570(4)
O98_4 O 0.5413(4) 0.1971(4) 0.4494(4)
H132_4 H 0.595175 0.231524 0.402031
C66_4 C 0.7441(8) 0.6664(7) 0.3565(7)
C67_4 C 0.6435(7) 0.7441(8) 0.3336(7)
C79_4 C 0.7899(3) 0.6503(4) 0.3704(4)
C80_4 C 0.6296(4) 0.7899(3) 0.3497(4)
C93_4 C 0.7939(3) 0.6120(4) 0.3951(4)
C94_4 C 0.8270(4) 0.6749(3) 0.3602(4)
C95_4 C 0.6049(4) 0.7939(3) 0.3880(4)
C96_4 C 0.6398(4) 0.8270(4) 0.3251(3)
H61_4 H 0.768476 0.595175 0.402031
C109_4 C 0.8350(4) 0.5983(3) 0.4096(4)
C110_4 C 0.8682(3) 0.6612(4) 0.3747(4)
H62_4 H 0.824290 0.701068 0.343302
H63_4 H 0.597969 0.768476 0.404825
C111_4 C 0.5904(4) 0.8350(4) 0.4017(3)
C112_4 C 0.6253(4) 0.8682(3) 0.3388(4)
H64_4 H 0.656698 0.824290 0.298932
C121_4 C 0.8392(7) 0.5625(7) 0.4433(7)
C122_4 C 0.8722(3) 0.6230(4) 0.3994(4)
C123_4 C 0.9100(4) 0.6841(5) 0.3569(5)
C124_4 C 0.5567(7) 0.8392(7) 0.4375(7)
C125_4 C 0.6006(4) 0.8722(3) 0.3770(4)
C126_4 C 0.6431(5) 0.9100(4) 0.3159(5)
H89_4 H 0.900326 0.613630 0.409261
C135_4 C 0.9480(5) 0.6656(4) 0.3395(5)
C136_4 C 0.9072(4) 0.7294(5) 0.3628(5)
O53_4 O 0.5430(4) 0.8762(3) 0.4521(4)
O54_4 O 0.5506(4) 0.8029(4) 0.4587(4)
H90_4 H 0.590739 0.900326 0.386370
C137_4 C 0.6605(5) 0.9480(5) 0.3344(4)
C138_4 C 0.6372(5) 0.9072(4) 0.2706(5)
C151_4 C 0.9832(4) 0.6923(5) 0.3280(5)
O55_4 O 0.9476(4) 0.6224(4) 0.3332(4)
C152_4 C 0.9425(5) 0.7561(4) 0.3513(6)
H91_4 H 0.881229 0.742010 0.374686
C153_4 C 0.6720(5) 0.9832(4) 0.3077(5)
O56_4 O 0.6668(4) 0.9476(4) 0.3776(4)
C154_4 C 0.6487(6) 0.9425(5) 0.2439(4)
H92_4 H 0.625314 0.881229 0.257990
C155_4 C 0.9805(4) 0.7376(5) 0.3339(5)
H97_4 H 0.923324 0.614895 0.322326
C157_4 C 0.9360(9) 0.8050(6) 0.3593(9)
C158_4 C 0.6661(5) 0.9805(4) 0.2624(5)
H98_4 H 0.677674 0.923324 0.385105
C160_4 C 0.6407(9) 0.9360(9) 0.1950(6)
H99_4 H 0.906713 0.810058 0.371665
H100_4 H 0.958423 0.815529 0.379899
H101_4 H 0.938789 0.820869 0.331343
H102_4 H 0.628335 0.906713 0.189942
H103_4 H 0.620101 0.958423 0.184471
H104_4 H 0.668657 0.938789 0.179131
C168_4 C 0.9811(6) 0.6785(9) 0.2327(7)
C171_4 C 0.7673(7) 0.9811(6) 0.3215(9)
H111_4 H 0.956962 0.690185 0.250576
H112_4 H 0.990617 0.700856 0.211524
H113_4 H 0.970953 0.652306 0.216797
H115_4 H 0.749424 0.956962 0.309815
H116_4 H 0.788476 0.990617 0.299144
H117_4 H 0.783203 0.970953 0.347694
O73_3 O 0.500000 0.9498(6) 0.500000
O77_3 O 0.500000 0.7211(6) 0.500000
O73_4 O 0.500000 0.0502(6) 0.500000
O77_4 O 0.500000 0.2789(6) 0.500000
loop_
_geom_bond_atom_site_label_1
_geom_bond_atom_site_label_2
_geom_bond_site_symmetry_1
_geom_bond_site_symmetry_2
C162 C156 1_555 1_555
C163 C156 1_555 1_555
H105 C161 1_555 1_555
H106 C161 1_555 1_555
H107 C161 1_555 1_555
C167 C162 1_555 1_555
C169 C163 1_555 1_555
O91 C163 1_555 1_555
C173 C167 1_555 1_555
C174 C167 1_555 1_555
C175 C169 1_555 1_555
H114 O91 1_555 1_555
H119 C173 1_555 1_555
H120 C174 1_555 1_555
H121 C174 1_555 1_555
H122 C174 1_555 1_555
C179 C175 1_555 1_555
C180 C175 1_555 1_555
C183 C179 1_555 1_555
H127 C179 1_555 1_555
H128 C180 1_555 1_555
C184 C180 1_555 1_555
C187 C183 1_555 1_555
C188 C183 1_555 1_555
C189 C184 1_555 1_555
O93 C187 1_555 1_555
O94 C187 1_555 1_555
H131 C188 1_555 1_555
O95 C189 1_555 1_555
O96 C189 1_555 1_555
Zn25 O93 1_555 1_555
Zn26 O94 1_555 1_555
Zn27 O95 1_555 1_555
Zn28 O96 1_555 1_555
C169 C173 1_555 1_555
C184 C188 1_555 1_555
H9 C16 1_555 1_555
H10 C16 1_555 1_555
H11 C16 1_555 1_555
C68 C56 1_555 1_555
C69 C56 1_555 1_555
C71 C58 1_555 1_555
C72 C58 1_555 1_555
C73 C60 1_555 1_555
C74 C60 1_555 1_555
C76 C63 1_555 1_555
C77 C63 1_555 1_555
C81 C68 1_555 1_555
C83 C69 1_555 1_555
O47 C69 1_555 1_555
H36 C70 1_555 1_555
H37 C70 1_555 1_555
H38 C70 1_555 1_555
C84 C71 1_555 1_555
C86 C72 1_555 1_555
O48 C72 1_555 1_555
C87 C73 1_555 1_555
C89 C74 1_555 1_555
O49 C74 1_555 1_555
H39 C75 1_555 1_555
H40 C75 1_555 1_555
H41 C75 1_555 1_555
C90 C76 1_555 1_555
C92 C77 1_555 1_555
O50 C77 1_555 1_555
H42 C78 1_555 1_555
H43 C78 1_555 1_555
H44 C78 1_555 1_555
C97 C81 1_555 1_555
C98 C81 1_555 1_555
C99 C83 1_555 1_555
H48 O47 1_555 1_555
C100 C84 1_555 1_555
C101 C84 1_555 1_555
C102 C86 1_555 1_555
H52 O48 1_555 1_555
C103 C87 1_555 1_555
C104 C87 1_555 1_555
C105 C89 1_555 1_555
H56 O49 1_555 1_555
C106 C90 1_555 1_555
C107 C90 1_555 1_555
C108 C92 1_555 1_555
H60 O50 1_555 1_555
H65 C97 1_555 1_555
H66 C98 1_555 1_555
H67 C98 1_555 1_555
H68 C98 1_555 1_555
C113 C99 1_555 1_555
C114 C99 1_555 1_555
H69 C100 1_555 1_555
H70 C101 1_555 1_555
H71 C101 1_555 1_555
H72 C101 1_555 1_555
C115 C102 1_555 1_555
C116 C102 1_555 1_555
H73 C103 1_555 1_555
H74 C104 1_555 1_555
H75 C104 1_555 1_555
H76 C104 1_555 1_555
C117 C105 1_555 1_555
C118 C105 1_555 1_555
H77 C106 1_555 1_555
H78 C107 1_555 1_555
H79 C107 1_555 1_555
H80 C107 1_555 1_555
C119 C108 1_555 1_555
C120 C108 1_555 1_555
C127 C113 1_555 1_555
H81 C113 1_555 1_555
H82 C114 1_555 1_555
C128 C114 1_555 1_555
C129 C115 1_555 1_555
H83 C115 1_555 1_555
H84 C116 1_555 1_555
C130 C116 1_555 1_555
C131 C117 1_555 1_555
H85 C117 1_555 1_555
H86 C118 1_555 1_555
C132 C118 1_555 1_555
C133 C119 1_555 1_555
H87 C119 1_555 1_555
H88 C120 1_555 1_555
C134 C120 1_555 1_555
C139 C127 1_555 1_555
C140 C127 1_555 1_555
C141 C128 1_555 1_555
C142 C129 1_555 1_555
C143 C129 1_555 1_555
C144 C130 1_555 1_555
C145 C131 1_555 1_555
C146 C131 1_555 1_555
C147 C132 1_555 1_555
C148 C133 1_555 1_555
C149 C133 1_555 1_555
C150 C134 1_555 1_555
O57 C139 1_555 1_555
O58 C139 1_555 1_555
H93 C140 1_555 1_555
O59 C141 1_555 1_555
O60 C141 1_555 1_555
O61 C142 1_555 1_555
O62 C142 1_555 1_555
H94 C143 1_555 1_555
O63 C144 1_555 1_555
O64 C144 1_555 1_555
O65 C145 1_555 1_555
O66 C145 1_555 1_555
H95 C146 1_555 1_555
O67 C147 1_555 1_555
O68 C147 1_555 1_555
O69 C148 1_555 1_555
O70 C148 1_555 1_555
H96 C149 1_555 1_555
O71 C150 1_555 1_555
O72 C150 1_555 1_555
Zn15 O57 1_555 1_555
Zn16 O58 1_555 1_555
Zn17 O59 1_555 1_555
Zn18 O60 1_555 1_555
Zn19 O63 1_555 1_555
Zn20 O64 1_555 1_555
Zn21 O67 1_555 1_555
Zn22 O68 1_555 1_555
Zn23 O71 1_555 1_555
Zn24 O72 1_555 1_555
O81 Zn15 1_555 1_555
O82 Zn16 1_555 1_555
O83 Zn17 1_555 1_555
O84 Zn17 1_555 1_555
O85 Zn17 1_555 1_555
O86 Zn18 1_555 1_555
O87 Zn18 1_555 1_555
O88 Zn18 1_555 1_555
O89 Zn18 1_555 1_555
O90 Zn18 1_555 1_555
C83 C97 1_555 1_555
C86 C100 1_555 1_555
C89 C103 1_555 1_555
C92 C106 1_555 1_555
C128 C140 1_555 1_555
C130 C143 1_555 1_555
C132 C146 1_555 1_555
C134 C149 1_555 1_555
O61 Zn15 1_555 1_555
O62 Zn16 1_555 1_555
O65 Zn15 1_555 1_555
O66 Zn16 1_555 1_555
O69 Zn15 1_555 1_555
O70 Zn16 1_555 1_555
Zn1 O1 1_555 1_555
O1 C1 1_555 1_555
O2 Zn1 1_555 1_555
C1 O3 1_555 1_555
O3 Zn2 1_555 1_555
C2 C1 1_555 1_555
Zn2 O4 1_555 1_555
C3 C2 1_555 1_555
C4 C2 1_555 1_555
H1 C3 1_555 1_555
C5 C3 1_555 1_555
H2 C4 1_555 1_555
C6 C4 1_555 1_555
C7 C5 1_555 1_555
C8 C5 1_555 1_555
C9 C6 1_555 1_555
H3 C7 1_555 1_555
O5 C8 1_555 1_555
O6 C8 1_555 1_555
C10 C9 1_555 1_555
C11 C9 1_555 1_555
Zn3 O5 1_555 1_555
Zn4 O6 1_555 1_555
C12 C10 1_555 1_555
O7 C10 1_555 1_555
C13 C11 1_555 1_555
H4 C11 1_555 1_555
O8 Zn3 1_555 1_555
O9 Zn4 1_555 1_555
C14 C12 1_555 1_555
H5 O7 1_555 1_555
C15 C13 1_555 1_555
H6 C15 1_555 1_555
H7 C15 1_555 1_555
H8 C15 1_555 1_555
O10 Zn1 1_555 1_555
O11 Zn1 1_555 1_555
O12 Zn1 1_555 1_555
C17 O10 1_555 1_555
C18 O11 1_555 1_555
C19 O12 1_555 1_555
O13 Zn2 1_555 1_555
C20 C17 1_555 1_555
O14 Zn2 1_555 1_555
C21 C18 1_555 1_555
O15 Zn2 1_555 1_555
C22 C19 1_555 1_555
C23 C20 1_555 1_555
C24 C20 1_555 1_555
C25 C21 1_555 1_555
C26 C21 1_555 1_555
C27 C22 1_555 1_555
C28 C22 1_555 1_555
H12 C23 1_555 1_555
C29 C23 1_555 1_555
H13 C24 1_555 1_555
C30 C24 1_555 1_555
H14 C25 1_555 1_555
C31 C25 1_555 1_555
H15 C26 1_555 1_555
C32 C26 1_555 1_555
H16 C27 1_555 1_555
C33 C27 1_555 1_555
H17 C28 1_555 1_555
C34 C28 1_555 1_555
C35 C29 1_555 1_555
C36 C29 1_555 1_555
C37 C30 1_555 1_555
C38 C31 1_555 1_555
C39 C31 1_555 1_555
C40 C32 1_555 1_555
C41 C33 1_555 1_555
C42 C33 1_555 1_555
C43 C34 1_555 1_555
H18 C35 1_555 1_555
O16 C36 1_555 1_555
O17 C36 1_555 1_555
C44 C37 1_555 1_555
C45 C37 1_555 1_555
H19 C38 1_555 1_555
O18 C39 1_555 1_555
O19 C39 1_555 1_555
C46 C40 1_555 1_555
C47 C40 1_555 1_555
H20 C41 1_555 1_555
O20 C42 1_555 1_555
O21 C42 1_555 1_555
C48 C43 1_555 1_555
C49 C43 1_555 1_555
Zn5 O16 1_555 1_555
Zn6 O17 1_555 1_555
C50 C44 1_555 1_555
O22 C44 1_555 1_555
C51 C45 1_555 1_555
H21 C45 1_555 1_555
Zn27 O18 1_555 1_555
Zn28 O19 1_555 1_555
C52 C46 1_555 1_555
O23 C46 1_555 1_555
C53 C47 1_555 1_555
H22 C47 1_555 1_555
Zn9 O20 1_555 1_555
Zn10 O21 1_555 1_555
C54 C48 1_555 1_555
O24 C48 1_555 1_555
C55 C49 1_555 1_555
H23 C49 1_555 1_555
O25 Zn3 1_555 1_555
O26 Zn3 1_555 1_555
O27 Zn4 1_555 1_555
O28 Zn4 1_555 1_555
O29 Zn4 1_555 1_555
O30 Zn4 1_555 1_555
O31 Zn5 1_555 1_555
O32 Zn5 1_555 1_555
O33 Zn5 1_555 1_555
O34 Zn6 1_555 1_555
O35 Zn6 1_555 1_555
O36 Zn6 1_555 1_555
O37 Zn6 1_555 1_555
O38 Zn6 1_555 1_555
C57 C50 1_555 1_555
H24 O22 1_555 1_555
C59 C51 1_555 1_555
O39 Zn27 1_555 1_555
O40 Zn27 1_555 1_555
O42 Zn28 1_555 1_555
O43 Zn28 1_555 1_555
O44 Zn28 1_555 1_555
O45 Zn28 1_555 1_555
C61 C52 1_555 1_555
H25 O23 1_555 1_555
C62 C53 1_555 1_555
C64 C54 1_555 1_555
H26 O24 1_555 1_555
C65 C55 1_555 1_555
C66 O25 1_555 1_555
C67 O26 1_555 1_555
H27 C59 1_555 1_555
H28 C59 1_555 1_555
H29 C59 1_555 1_555
H30 C62 1_555 1_555
H31 C62 1_555 1_555
H32 C62 1_555 1_555
H33 C65 1_555 1_555
H34 C65 1_555 1_555
H35 C65 1_555 1_555
C79 C66 1_555 1_555
C80 C67 1_555 1_555
C93 C79 1_555 1_555
C94 C79 1_555 1_555
C95 C80 1_555 1_555
C96 C80 1_555 1_555
H45 C82 1_555 1_555
H46 C82 1_555 1_555
H47 C82 1_555 1_555
H49 C85 1_555 1_555
H50 C85 1_555 1_555
H51 C85 1_555 1_555
H53 C88 1_555 1_555
H54 C88 1_555 1_555
H55 C88 1_555 1_555
H57 C91 1_555 1_555
H58 C91 1_555 1_555
H59 C91 1_555 1_555
H61 C93 1_555 1_555
C109 C93 1_555 1_555
C110 C94 1_555 1_555
H62 C94 1_555 1_555
H63 C95 1_555 1_555
C111 C95 1_555 1_555
C112 C96 1_555 1_555
H64 C96 1_555 1_555
C121 C109 1_555 1_555
C122 C109 1_555 1_555
C123 C110 1_555 1_555
C124 C111 1_555 1_555
C125 C111 1_555 1_555
C126 C112 1_555 1_555
O51 C121 1_555 1_555
O52 C121 1_555 1_555
H89 C122 1_555 1_555
C135 C123 1_555 1_555
C136 C123 1_555 1_555
O53 C124 1_555 1_555
O54 C124 1_555 1_555
H90 C125 1_555 1_555
C137 C126 1_555 1_555
C138 C126 1_555 1_555
Zn11 O51 1_555 1_555
Zn12 O52 1_555 1_555
C151 C135 1_555 1_555
O55 C135 1_555 1_555
C152 C136 1_555 1_555
H91 C136 1_555 1_555
Zn13 O53 1_555 1_555
Zn14 O54 1_555 1_555
C153 C137 1_555 1_555
O56 C137 1_555 1_555
C154 C138 1_555 1_555
H92 C138 1_555 1_555
O73 Zn11 1_555 1_555
O74 Zn11 1_555 1_555
O75 Zn11 1_555 1_555
O76 Zn11 1_555 1_555
O77 Zn12 1_555 1_555
O78 Zn12 1_555 1_555
O79 Zn12 1_555 1_555
O80 Zn12 1_555 1_555
C155 C151 1_555 1_555
H97 O55 1_555 1_555
C157 C152 1_555 1_555
C158 C153 1_555 1_555
H98 O56 1_555 1_555
C160 C154 1_555 1_555
H99 C157 1_555 1_555
H100 C157 1_555 1_555
H101 C157 1_555 1_555
H102 C160 1_555 1_555
H103 C160 1_555 1_555
H104 C160 1_555 1_555
H111 C168 1_555 1_555
H112 C168 1_555 1_555
H113 C168 1_555 1_555
H115 C171 1_555 1_555
H116 C171 1_555 1_555
H117 C171 1_555 1_555
C6 C7 1_555 1_555
C13 C14 1_555 1_555
C17 O13 1_555 1_555
C18 O14 1_555 1_555
C19 O15 1_555 1_555
C30 C35 1_555 1_555
C32 C38 1_555 1_555
C34 C41 1_555 1_555
C51 C57 1_555 1_555
C53 C61 1_555 1_555
C55 C64 1_555 1_555
O27 C66 1_555 1_555
O29 C67 1_555 1_555
C110 C122 1_555 1_555
C112 C125 1_555 1_555
C152 C155 1_555 1_555
C154 C158 1_555 1_555
C165 C159 1_555 1_555
C166 C159 1_555 1_555
H108 C164 1_555 1_555
H109 C164 1_555 1_555
H110 C164 1_555 1_555
C170 C165 1_555 1_555
C172 C166 1_555 1_555
O92 C166 1_555 1_555
C176 C170 1_555 1_555
C177 C170 1_555 1_555
C178 C172 1_555 1_555
H118 O92 1_555 1_555
H123 C176 1_555 1_555
H124 C177 1_555 1_555
H125 C177 1_555 1_555
H126 C177 1_555 1_555
C181 C178 1_555 1_555
C182 C178 1_555 1_555
C185 C181 1_555 1_555
H129 C181 1_555 1_555
H130 C182 1_555 1_555
C186 C182 1_555 1_555
C190 C185 1_555 1_555
C191 C185 1_555 1_555
C192 C186 1_555 1_555
O97 C190 1_555 1_555
O98 C190 1_555 1_555
H132 C191 1_555 1_555
O99 C192 1_555 1_555
O100 C192 1_555 1_555
Zn29 O97 1_555 1_555
Zn30 O98 1_555 1_555
Zn9 O99 1_555 1_555
Zn10 O100 1_555 1_555
C172 C176 1_555 1_555
C186 C191 1_555 1_555
C165_2 C159_2 1_555 1_555
C166_2 C159_2 1_555 1_555
H108_2 C164_2 1_555 1_555
H109_2 C164_2 1_555 1_555
H110_2 C164_2 1_555 1_555
C170_2 C165_2 1_555 1_555
C172_2 C166_2 1_555 1_555
O92_2 C166_2 1_555 1_555
C176_2 C170_2 1_555 1_555
C177_2 C170_2 1_555 1_555
C178_2 C172_2 1_555 1_555
H118_2 O92_2 1_555 1_555
H123_2 C176_2 1_555 1_555
H124_2 C177_2 1_555 1_555
H125_2 C177_2 1_555 1_555
H126_2 C177_2 1_555 1_555
C181_2 C178_2 1_555 1_555
C182_2 C178_2 1_555 1_555
C185_2 C181_2 1_555 1_555
H129_2 C181_2 1_555 1_555
H130_2 C182_2 1_555 1_555
C186_2 C182_2 1_555 1_555
C190_2 C185_2 1_555 1_555
C191_2 C185_2 1_555 1_555
C192_2 C186_2 1_555 1_555
O97_2 C190_2 1_555 1_555
O98_2 C190_2 1_555 1_555
H132_2 C191_2 1_555 1_555
O40 C192_2 1_555 1_555
O45 C192_2 1_555 1_555
Zn13 O97_2 1_555 1_555
Zn14 O98_2 1_555 1_555
C172_2 C176_2 1_555 1_555
C186_2 C191_2 1_555 1_555
O83_2 Zn19 1_555 1_555
O84_2 Zn19 1_555 1_555
O85_2 Zn19 1_555 1_555
O86_2 Zn20 1_555 1_555
O87_2 Zn20 1_555 1_555
O88_2 Zn20 1_555 1_555
O89_2 Zn20 1_555 1_555
O90_2 Zn20 1_555 1_555
O39_2 Zn9 1_555 1_555
O41 Zn9 1_555 1_555
O42_2 Zn10 1_555 1_555
O43_2 Zn10 1_555 1_555
O44_2 Zn10 1_555 1_555
O46 Zn10 1_555 1_555
C66_2 O32 1_555 1_555
C67_2 O33 1_555 1_555
C79_2 C66_2 1_555 1_555
C80_2 C67_2 1_555 1_555
C93_2 C79_2 1_555 1_555
C94_2 C79_2 1_555 1_555
C95_2 C80_2 1_555 1_555
C96_2 C80_2 1_555 1_555
H61_2 C93_2 1_555 1_555
C109_2 C93_2 1_555 1_555
C110_2 C94_2 1_555 1_555
H62_2 C94_2 1_555 1_555
H63_2 C95_2 1_555 1_555
C111_2 C95_2 1_555 1_555
C112_2 C96_2 1_555 1_555
H64_2 C96_2 1_555 1_555
C121_2 C109_2 1_555 1_555
C122_2 C109_2 1_555 1_555
C123_2 C110_2 1_555 1_555
C124_2 C111_2 1_555 1_555
C125_2 C111_2 1_555 1_555
C126_2 C112_2 1_555 1_555
O51_2 C121_2 1_555 1_555
O52_2 C121_2 1_555 1_555
H89_2 C122_2 1_555 1_555
C135_2 C123_2 1_555 1_555
C136_2 C123_2 1_555 1_555
O53_2 C124_2 1_555 1_555
O54_2 C124_2 1_555 1_555
H90_2 C125_2 1_555 1_555
C137_2 C126_2 1_555 1_555
C138_2 C126_2 1_555 1_555
Zn25 O51_2 1_555 1_555
Zn26 O52_2 1_555 1_555
C151_2 C135_2 1_555 1_555
O55_2 C135_2 1_555 1_555
C152_2 C136_2 1_555 1_555
H91_2 C136_2 1_555 1_555
Zn29 O53_2 1_555 1_555
Zn30 O54_2 1_555 1_555
C153_2 C137_2 1_555 1_555
O56_2 C137_2 1_555 1_555
C154_2 C138_2 1_555 1_555
H92_2 C138_2 1_555 1_555
O73_2 Zn25 1_555 1_555
O74_2 Zn25 1_555 1_555
O75_2 Zn25 1_555 1_555
O77_2 Zn26 1_555 1_555
O78_2 Zn26 1_555 1_555
O79_2 Zn26 1_555 1_555
C155_2 C151_2 1_555 1_555
H97_2 O55_2 1_555 1_555
C157_2 C152_2 1_555 1_555
C158_2 C153_2 1_555 1_555
H98_2 O56_2 1_555 1_555
C160_2 C154_2 1_555 1_555
H99_2 C157_2 1_555 1_555
H100_2 C157_2 1_555 1_555
H101_2 C157_2 1_555 1_555
H102_2 C160_2 1_555 1_555
H103_2 C160_2 1_555 1_555
H104_2 C160_2 1_555 1_555
H111_2 C168_2 1_555 1_555
H112_2 C168_2 1_555 1_555
H113_2 C168_2 1_555 1_555
H115_2 C171_2 1_555 1_555
H116_2 C171_2 1_555 1_555
H117_2 C171_2 1_555 1_555
O37 C66_2 1_555 1_555
O38 C67_2 1_555 1_555
C110_2 C122_2 1_555 1_555
C112_2 C125_2 1_555 1_555
C152_2 C155_2 1_555 1_555
C154_2 C158_2 1_555 1_555
C162_2 C156_2 1_555 1_555
C163_2 C156_2 1_555 1_555
H105_2 C161_2 1_555 1_555
H106_2 C161_2 1_555 1_555
H107_2 C161_2 1_555 1_555
C167_2 C162_2 1_555 1_555
C169_2 C163_2 1_555 1_555
O91_2 C163_2 1_555 1_555
C173_2 C167_2 1_555 1_555
C174_2 C167_2 1_555 1_555
C175_2 C169_2 1_555 1_555
H114_2 O91_2 1_555 1_555
H119_2 C173_2 1_555 1_555
H120_2 C174_2 1_555 1_555
H121_2 C174_2 1_555 1_555
H122_2 C174_2 1_555 1_555
C179_2 C175_2 1_555 1_555
C180_2 C175_2 1_555 1_555
C183_2 C179_2 1_555 1_555
H127_2 C179_2 1_555 1_555
H128_2 C180_2 1_555 1_555
C184_2 C180_2 1_555 1_555
C187_2 C183_2 1_555 1_555
C188_2 C183_2 1_555 1_555
C189_2 C184_2 1_555 1_555
O76 C187_2 1_555 1_555
O80 C187_2 1_555 1_555
H131_2 C188_2 1_555 1_555
O41 C189_2 1_555 1_555
O46 C189_2 1_555 1_555
C169_2 C173_2 1_555 1_555
C184_2 C188_2 1_555 1_555
O8_2 Zn21 1_555 1_555
O9_2 Zn22 1_555 1_555
O25_2 Zn21 1_555 1_555
O26_2 Zn21 1_555 1_555
O27_2 Zn22 1_555 1_555
O28_2 Zn22 1_555 1_555
O29_2 Zn22 1_555 1_555
O30_2 Zn22 1_555 1_555
O31_2 Zn23 1_555 1_555
O32_2 Zn23 1_555 1_555
O33_2 Zn23 1_555 1_555
O34_2 Zn24 1_555 1_555
O35_2 Zn24 1_555 1_555
O36_2 Zn24 1_555 1_555
O37_2 Zn24 1_555 1_555
O38_2 Zn24 1_555 1_555
C66_3 O25_2 1_555 1_555
C67_3 O26_2 1_555 1_555
C79_3 C66_3 1_555 1_555
C80_3 C67_3 1_555 1_555
C93_3 C79_3 1_555 1_555
C94_3 C79_3 1_555 1_555
C95_3 C80_3 1_555 1_555
C96_3 C80_3 1_555 1_555
H61_3 C93_3 1_555 1_555
C109_3 C93_3 1_555 1_555
C110_3 C94_3 1_555 1_555
H62_3 C94_3 1_555 1_555
H63_3 C95_3 1_555 1_555
C111_3 C95_3 1_555 1_555
C112_3 C96_3 1_555 1_555
H64_3 C96_3 1_555 1_555
C121_3 C109_3 1_555 1_555
C122_3 C109_3 1_555 1_555
C123_3 C110_3 1_555 1_555
C124_3 C111_3 1_555 1_555
C125_3 C111_3 1_555 1_555
C126_3 C112_3 1_555 1_555
O74_2 C121_3 1_555 1_555
O78_2 C121_3 1_555 1_555
H89_3 C122_3 1_555 1_555
C135_3 C123_3 1_555 1_555
C136_3 C123_3 1_555 1_555
O53_3 C124_3 1_555 1_555
O54_3 C124_3 1_555 1_555
H90_3 C125_3 1_555 1_555
C137_3 C126_3 1_555 1_555
C138_3 C126_3 1_555 1_555
C151_3 C135_3 1_555 1_555
O55_3 C135_3 1_555 1_555
C152_3 C136_3 1_555 1_555
H91_3 C136_3 1_555 1_555
Zn13 O53_3 1_555 1_555
Zn14 O54_3 1_555 1_555
C153_3 C137_3 1_555 1_555
O56_3 C137_3 1_555 1_555
C154_3 C138_3 1_555 1_555
H92_3 C138_3 1_555 1_555
C155_3 C151_3 1_555 1_555
H97_3 O55_3 1_555 1_555
C157_3 C152_3 1_555 1_555
C158_3 C153_3 1_555 1_555
H98_3 O56_3 1_555 1_555
C160_3 C154_3 1_555 1_555
H99_3 C157_3 1_555 1_555
H100_3 C157_3 1_555 1_555
H101_3 C157_3 1_555 1_555
H102_3 C160_3 1_555 1_555
H103_3 C160_3 1_555 1_555
H104_3 C160_3 1_555 1_555
H111_3 C168_3 1_555 1_555
H112_3 C168_3 1_555 1_555
H113_3 C168_3 1_555 1_555
H115_3 C171_3 1_555 1_555
H116_3 C171_3 1_555 1_555
H117_3 C171_3 1_555 1_555
O27_2 C66_3 1_555 1_555
O29_2 C67_3 1_555 1_555
C110_3 C122_3 1_555 1_555
C112_3 C125_3 1_555 1_555
C152_3 C155_3 1_555 1_555
C154_3 C158_3 1_555 1_555
C165_3 C159_3 1_555 1_555
C166_3 C159_3 1_555 1_555
H108_3 C164_3 1_555 1_555
H109_3 C164_3 1_555 1_555
H110_3 C164_3 1_555 1_555
C170_3 C165_3 1_555 1_555
C172_3 C166_3 1_555 1_555
O92_3 C166_3 1_555 1_555
C176_3 C170_3 1_555 1_555
C177_3 C170_3 1_555 1_555
C178_3 C172_3 1_555 1_555
H118_3 O92_3 1_555 1_555
H123_3 C176_3 1_555 1_555
H124_3 C177_3 1_555 1_555
H125_3 C177_3 1_555 1_555
H126_3 C177_3 1_555 1_555
C181_3 C178_3 1_555 1_555
C182_3 C178_3 1_555 1_555
C185_3 C181_3 1_555 1_555
H129_3 C181_3 1_555 1_555
H130_3 C182_3 1_555 1_555
C186_3 C182_3 1_555 1_555
C190_3 C185_3 1_555 1_555
C191_3 C185_3 1_555 1_555
C192_3 C186_3 1_555 1_555
O97_3 C190_3 1_555 1_555
O98_3 C190_3 1_555 1_555
H132_3 C191_3 1_555 1_555
O84_2 C192_3 1_555 1_555
O89_2 C192_3 1_555 1_555
Zn29 O97_3 1_555 1_555
Zn30 O98_3 1_555 1_555
C172_3 C176_3 1_555 1_555
C186_3 C191_3 1_555 1_555
C162_3 C156_3 1_555 1_555
C163_3 C156_3 1_555 1_555
H105_3 C161_3 1_555 1_555
H106_3 C161_3 1_555 1_555
H107_3 C161_3 1_555 1_555
C167_3 C162_3 1_555 1_555
C169_3 C163_3 1_555 1_555
O91_3 C163_3 1_555 1_555
C173_3 C167_3 1_555 1_555
C174_3 C167_3 1_555 1_555
C175_3 C169_3 1_555 1_555
H114_3 O91_3 1_555 1_555
H119_3 C173_3 1_555 1_555
H120_3 C174_3 1_555 1_555
H121_3 C174_3 1_555 1_555
H122_3 C174_3 1_555 1_555
C179_3 C175_3 1_555 1_555
C180_3 C175_3 1_555 1_555
C183_3 C179_3 1_555 1_555
H127_3 C179_3 1_555 1_555
H128_3 C180_3 1_555 1_555
C184_3 C180_3 1_555 1_555
C187_3 C183_3 1_555 1_555
C188_3 C183_3 1_555 1_555
C189_3 C184_3 1_555 1_555
O75 C187_3 1_555 1_555
O79 C187_3 1_555 1_555
H131_3 C188_3 1_555 1_555
O85 C189_3 1_555 1_555
O90 C189_3 1_555 1_555
C169_3 C173_3 1_555 1_555
C184_3 C188_3 1_555 1_555
C162_4 C156_4 1_555 1_555
C163_4 C156_4 1_555 1_555
H105_4 C161_4 1_555 1_555
H106_4 C161_4 1_555 1_555
H107_4 C161_4 1_555 1_555
C167_4 C162_4 1_555 1_555
C169_4 C163_4 1_555 1_555
O91_4 C163_4 1_555 1_555
C173_4 C167_4 1_555 1_555
C174_4 C167_4 1_555 1_555
C175_4 C169_4 1_555 1_555
H114_4 O91_4 1_555 1_555
H119_4 C173_4 1_555 1_555
H120_4 C174_4 1_555 1_555
H121_4 C174_4 1_555 1_555
H122_4 C174_4 1_555 1_555
C179_4 C175_4 1_555 1_555
C180_4 C175_4 1_555 1_555
C183_4 C179_4 1_555 1_555
H127_4 C179_4 1_555 1_555
H128_4 C180_4 1_555 1_555
C184_4 C180_4 1_555 1_555
C187_4 C183_4 1_555 1_555
C188_4 C183_4 1_555 1_555
C189_4 C184_4 1_555 1_555
O75_2 C187_4 1_555 1_555
O79_2 C187_4 1_555 1_555
H131_4 C188_4 1_555 1_555
O85_2 C189_4 1_555 1_555
O90_2 C189_4 1_555 1_555
C169_4 C173_4 1_555 1_555
C184_4 C188_4 1_555 1_555
C165_4 C159_4 1_555 1_555
C166_4 C159_4 1_555 1_555
H108_4 C164_4 1_555 1_555
H109_4 C164_4 1_555 1_555
H110_4 C164_4 1_555 1_555
C170_4 C165_4 1_555 1_555
C172_4 C166_4 1_555 1_555
O92_4 C166_4 1_555 1_555
C176_4 C170_4 1_555 1_555
C177_4 C170_4 1_555 1_555
C178_4 C172_4 1_555 1_555
H118_4 O92_4 1_555 1_555
H123_4 C176_4 1_555 1_555
H124_4 C177_4 1_555 1_555
H125_4 C177_4 1_555 1_555
H126_4 C177_4 1_555 1_555
C181_4 C178_4 1_555 1_555
C182_4 C178_4 1_555 1_555
C185_4 C181_4 1_555 1_555
H129_4 C181_4 1_555 1_555
H130_4 C182_4 1_555 1_555
C186_4 C182_4 1_555 1_555
C190_4 C185_4 1_555 1_555
C191_4 C185_4 1_555 1_555
C192_4 C186_4 1_555 1_555
O97_4 C190_4 1_555 1_555
O98_4 C190_4 1_555 1_555
H132_4 C191_4 1_555 1_555
O84 C192_4 1_555 1_555
O89 C192_4 1_555 1_555
Zn13 O97_4 1_555 1_555
Zn14 O98_4 1_555 1_555
C172_4 C176_4 1_555 1_555
C186_4 C191_4 1_555 1_555
C66_4 O32_2 1_555 1_555
C67_4 O33_2 1_555 1_555
C79_4 C66_4 1_555 1_555
C80_4 C67_4 1_555 1_555
C93_4 C79_4 1_555 1_555
C94_4 C79_4 1_555 1_555
C95_4 C80_4 1_555 1_555
C96_4 C80_4 1_555 1_555
H61_4 C93_4 1_555 1_555
C109_4 C93_4 1_555 1_555
C110_4 C94_4 1_555 1_555
H62_4 C94_4 1_555 1_555
H63_4 C95_4 1_555 1_555
C111_4 C95_4 1_555 1_555
C112_4 C96_4 1_555 1_555
H64_4 C96_4 1_555 1_555
C121_4 C109_4 1_555 1_555
C122_4 C109_4 1_555 1_555
C123_4 C110_4 1_555 1_555
C124_4 C111_4 1_555 1_555
C125_4 C111_4 1_555 1_555
C126_4 C112_4 1_555 1_555
O74 C121_4 1_555 1_555
O78 C121_4 1_555 1_555
H89_4 C122_4 1_555 1_555
C135_4 C123_4 1_555 1_555
C136_4 C123_4 1_555 1_555
O53_4 C124_4 1_555 1_555
O54_4 C124_4 1_555 1_555
H90_4 C125_4 1_555 1_555
C137_4 C126_4 1_555 1_555
C138_4 C126_4 1_555 1_555
C151_4 C135_4 1_555 1_555
O55_4 C135_4 1_555 1_555
C152_4 C136_4 1_555 1_555
H91_4 C136_4 1_555 1_555
Zn29 O53_4 1_555 1_555
Zn30 O54_4 1_555 1_555
C153_4 C137_4 1_555 1_555
O56_4 C137_4 1_555 1_555
C154_4 C138_4 1_555 1_555
H92_4 C138_4 1_555 1_555
C155_4 C151_4 1_555 1_555
H97_4 O55_4 1_555 1_555
C157_4 C152_4 1_555 1_555
C158_4 C153_4 1_555 1_555
H98_4 O56_4 1_555 1_555
C160_4 C154_4 1_555 1_555
H99_4 C157_4 1_555 1_555
H100_4 C157_4 1_555 1_555
H101_4 C157_4 1_555 1_555
H102_4 C160_4 1_555 1_555
H103_4 C160_4 1_555 1_555
H104_4 C160_4 1_555 1_555
H111_4 C168_4 1_555 1_555
H112_4 C168_4 1_555 1_555
H113_4 C168_4 1_555 1_555
H115_4 C171_4 1_555 1_555
H116_4 C171_4 1_555 1_555
H117_4 C171_4 1_555 1_555
O37_2 C66_4 1_555 1_555
O38_2 C67_4 1_555 1_555
C110_4 C122_4 1_555 1_555
C112_4 C125_4 1_555 1_555
C152_4 C155_4 1_555 1_555
C154_4 C158_4 1_555 1_555
O73_3 Zn29 1_555 1_555
O77_3 Zn30 1_555 1_555
O73_4 Zn13 1_555 1_555
O77_4 Zn14 1_555 1_555

#END
