
###############################################################################
#
# This file contains modified crystal structure data generated from the
# MOF subset of the Cambridge Structural Database (CSD) v543 
# hosted by the Cambridge Crystallographic Data Centre (CCDC).
#
# This work is licensed under the Creative Commons
# Attribution-NonCommercial-ShareAlike 4.0 International License.
# To view a copy of this license, visit
# http://creativecommons.org/licenses/by-nc-sa/4.0/
# or send a letter to
# Creative Commons, PO Box 1866, Mountain View, CA 94042, USA.
#
# CIF created using the CSD Python API on 29 September 2022
# The structure has been converted into the P1 space group
# The structure has a 3D framework
# The original CSD entry TONBII is in the monoclinic crystal system
# The framework has been calculated to contain at least 10.0% void space
# The void calculation uses a probe of radius 1.32A, grid spacing 0.4
#
###############################################################################

data_TONBII
_chemical_formula_moiety         '(C48 H24 O12)n'
_symmetry_cell_setting           triclinic
_symmetry_space_group_name_H-M   'P 1'
_symmetry_Int_Tables_number      1
_space_group_name_Hall           'P 1'
loop_
_symmetry_equiv_pos_site_id
_symmetry_equiv_pos_as_xyz
1 x,y,z
_cell_length_a                   21.1466(8)
_cell_length_b                   11.1836(4)
_cell_length_c                   4.7297(2)
_cell_angle_alpha                90
_cell_angle_beta                 92.8883(16)
_cell_angle_gamma                90
_cell_volume                     1117.13
loop_
_atom_site_label
_atom_site_type_symbol
_atom_site_fract_x
_atom_site_fract_y
_atom_site_fract_z
Fe4 Fe -0.0000 0.41778(5) 0.2500
Fe5 Fe -0.0000 0.58222(5) 0.7500
O1 O 0.55964(8) 0.06906(17) 0.1300(4)
C1 C 0.58418(12) 0.1495(2) 0.2934(5)
O2 O 0.56285(9) 0.18020(18) 0.5253(4)
C2 C 0.64464(12) 0.2057(2) 0.2061(5)
C3 C 0.66658(13) 0.3135(3) 0.3344(6)
C4 C 0.72307(13) 0.3613(3) 0.2630(6)
C5 C 0.76095(12) 0.3042(2) 0.0642(5)
C6 C 0.67977(12) 0.1490(3) 0.0085(5)
H1 H 0.6437 0.3523 0.4683
H2 H 0.7361 0.4338 0.3448
Fe3 Fe 0.5000 0.08222(5) 0.7500
Fe4_2 Fe 1.0000 0.41778(5) 0.2500
H6 H 0.8365 0.4196 0.0798
H3 H 0.6635 0.0804 0.9202
Fe5_2 Fe 1.0000 0.58222(5) 0.7500
O3 O 0.94036(8) 0.43094(17) 0.8700(4)
O4 O 0.44036(8) 0.06906(17) 0.3700(4)
C7 C 0.91582(12) 0.3505(2) 0.7066(5)
O7 O 0.93715(9) 0.31980(18) 0.4747(4)
O9 O 0.43715(9) 0.18020(18) 0.9747(4)
C8 C 0.85536(12) 0.2943(2) 0.7939(5)
C9 C 0.83342(13) 0.1865(3) 0.6656(6)
C10 C 0.77693(13) 0.1387(3) 0.7370(6)
C11 C 0.73905(12) 0.1958(2) 0.9358(5)
C12 C 0.82023(12) 0.3510(3) 0.9915(5)
H4 H 0.8563 0.1477 0.5317
H5 H 0.7639 0.0662 0.6552
Fe2 Fe 0.5000 0.91778(5) 0.2500
O5 O 0.44036(8) 0.93094(17) 0.8700(4)
O6 O 0.55964(8) 0.93094(17) 0.6300(4)
O1_2 O 0.05964(8) 0.56906(17) 0.1300(4)
C1_2 C 0.08418(12) 0.6495(2) 0.2934(5)
O2_2 O 0.06285(9) 0.68020(18) 0.5253(4)
C2_2 C 0.14464(12) 0.7057(2) 0.2061(5)
C3_2 C 0.16658(13) 0.8135(3) 0.3344(6)
C4_2 C 0.22307(13) 0.8613(3) 0.2630(6)
C5_2 C 0.26095(12) 0.8042(2) 0.0642(5)
C6_2 C 0.17977(12) 0.6490(3) 0.0085(5)
H1_2 H 0.1437 0.8523 0.4683
H2_2 H 0.2361 0.9338 0.3448
H6_2 H 0.3365 0.9196 0.0798
H3_2 H 0.1635 0.5804 0.9202
O6_2 O 0.05964(8) 0.43094(17) 0.6300(4)
C7_2 C 0.41582(12) 0.8505(2) 0.7066(5)
O7_2 O 0.43715(9) 0.81980(18) 0.4747(4)
C8_2 C 0.35536(12) 0.7943(2) 0.7939(5)
C9_2 C 0.33342(13) 0.6865(3) 0.6656(6)
C10_2 C 0.27693(13) 0.6387(3) 0.7370(6)
C11_2 C 0.23905(12) 0.6958(2) 0.9358(5)
C12_2 C 0.32023(12) 0.8510(3) 0.9915(5)
H4_2 H 0.3563 0.6477 0.5317
H5_2 H 0.2639 0.5662 0.6552
O4_2 O 0.94036(8) 0.56906(17) 0.3700(4)
O9_2 O 0.93715(9) 0.68020(18) 0.9747(4)
O7_3 O 0.06285(9) 0.31980(18) 0.0253(4)
C1_3 C 0.41582(12) 0.1495(2) 0.2066(5)
C2_3 C 0.35536(12) 0.2057(2) 0.2939(5)
C3_3 C 0.33342(13) 0.3135(3) 0.1656(6)
C4_3 C 0.27693(13) 0.3613(3) 0.2370(6)
C5_3 C 0.23905(12) 0.3042(2) 0.4358(5)
C6_3 C 0.32023(12) 0.1490(3) 0.4915(5)
H1_3 H 0.3563 0.3523 0.0317
H2_3 H 0.2639 0.4338 0.1552
H3_3 H 0.3365 0.0804 0.5798
C7_3 C 0.08418(12) 0.3505(2) 0.7934(5)
C8_3 C 0.14464(12) 0.2943(2) 0.7061(5)
C9_3 C 0.16658(13) 0.1865(3) 0.8344(6)
C10_3 C 0.22307(13) 0.1387(3) 0.7630(6)
C11_3 C 0.26095(12) 0.1958(2) 0.5642(5)
C12_3 C 0.17977(12) 0.3510(3) 0.5085(5)
H4_3 H 0.1437 0.1477 0.9683
H5_3 H 0.2361 0.0662 0.8448
H6_3 H 0.1635 0.4196 0.4202
O7_4 O 0.56285(9) 0.81980(18) 0.0253(4)
C1_4 C 0.91582(12) 0.6495(2) 0.2066(5)
C2_4 C 0.85536(12) 0.7057(2) 0.2939(5)
C3_4 C 0.83342(13) 0.8135(3) 0.1656(6)
C4_4 C 0.77693(13) 0.8613(3) 0.2370(6)
C5_4 C 0.73905(12) 0.8042(2) 0.4358(5)
C6_4 C 0.82023(12) 0.6490(3) 0.4915(5)
H1_4 H 0.8563 0.8523 0.0317
H2_4 H 0.7639 0.9338 0.1552
H3_4 H 0.8365 0.5804 0.5798
C7_4 C 0.58418(12) 0.8505(2) 0.7934(5)
C8_4 C 0.64464(12) 0.7943(2) 0.7061(5)
C9_4 C 0.66658(13) 0.6865(3) 0.8344(6)
C10_4 C 0.72307(13) 0.6387(3) 0.7630(6)
C11_4 C 0.76095(12) 0.6958(2) 0.5642(5)
C12_4 C 0.67977(12) 0.8510(3) 0.5085(5)
H4_4 H 0.6437 0.6477 0.9683
H5_4 H 0.7361 0.5662 0.8448
H6_4 H 0.6635 0.9196 0.4202
loop_
_geom_bond_atom_site_label_1
_geom_bond_atom_site_label_2
_geom_bond_site_symmetry_1
_geom_bond_site_symmetry_2
O1 C1 1_555 1_555
C1 O2 1_555 1_555
O2 Fe3 1_555 1_555
C2 C1 1_555 1_555
C3 C2 1_555 1_555
C4 C3 1_555 1_555
C5 C4 1_555 1_555
C6 C2 1_555 1_555
H1 C3 1_555 1_555
H2 C4 1_555 1_555
Fe5_2 O3 1_555 1_555
Fe4_2 O7 1_555 1_555
O3 C7 1_555 1_555
O4 Fe3 1_555 1_555
C7 O7 1_555 1_555
O9 Fe3 1_555 1_555
C8 C7 1_555 1_555
C9 C8 1_555 1_555
C10 C9 1_555 1_555
H4 C9 1_555 1_555
H5 C10 1_555 1_555
C8 C12 1_555 1_555
C10 C11 1_555 1_555
O1_2 C1_2 1_555 1_555
C1_2 O2_2 1_555 1_555
O2_2 Fe5 1_555 1_555
C2_2 C1_2 1_555 1_555
C3_2 C2_2 1_555 1_555
C4_2 C3_2 1_555 1_555
C5_2 C4_2 1_555 1_555
C6_2 C2_2 1_555 1_555
H1_2 C3_2 1_555 1_555
H2_2 C4_2 1_555 1_555
Fe4 O1_2 1_555 1_555
Fe2 O7_2 1_555 1_555
O5 C7_2 1_555 1_555
O6_2 Fe5 1_555 1_555
C7_2 O7_2 1_555 1_555
C8_2 C7_2 1_555 1_555
C9_2 C8_2 1_555 1_555
C10_2 C9_2 1_555 1_555
H4_2 C9_2 1_555 1_555
H5_2 C10_2 1_555 1_555
C8_2 C12_2 1_555 1_555
C10_2 C11_2 1_555 1_555
O4_2 Fe5_2 1_555 1_555
O9_2 Fe5_2 1_555 1_555
Fe4 O7_3 1_555 1_555
O4 C1_3 1_555 1_555
C2_3 C1_3 1_555 1_555
C3_3 C2_3 1_555 1_555
C4_3 C3_3 1_555 1_555
C5_3 C4_3 1_555 1_555
C6_3 C2_3 1_555 1_555
H1_3 C3_3 1_555 1_555
H2_3 C4_3 1_555 1_555
H3_3 C6_3 1_555 1_555
Fe4 O6_2 1_555 1_555
O6_2 C7_3 1_555 1_555
C8_3 C7_3 1_555 1_555
C9_3 C8_3 1_555 1_555
C10_3 C9_3 1_555 1_555
C11_3 C5_3 1_555 1_555
C12_3 C5_3 1_555 1_555
H4_3 C9_3 1_555 1_555
H5_3 C10_3 1_555 1_555
H6_3 C12_3 1_555 1_555
C6_3 C11_3 1_555 1_555
C8_3 C12_3 1_555 1_555
C10_3 C11_3 1_555 1_555
Fe2 O6 1_555 1_555
Fe2 O7_4 1_555 1_555
O4_2 C1_4 1_555 1_555
C2_4 C1_4 1_555 1_555
C3_4 C2_4 1_555 1_555
C4_4 C3_4 1_555 1_555
C5_4 C4_4 1_555 1_555
C6_4 C2_4 1_555 1_555
H1_4 C3_4 1_555 1_555
H2_4 C4_4 1_555 1_555
H3_4 C6_4 1_555 1_555
Fe4_2 O4_2 1_555 1_555
O6 C7_4 1_555 1_555
C8_4 C7_4 1_555 1_555
C9_4 C8_4 1_555 1_555
C10_4 C9_4 1_555 1_555
C11_4 C5_4 1_555 1_555
C12_4 C5_4 1_555 1_555
H4_4 C9_4 1_555 1_555
H5_4 C10_4 1_555 1_555
H6_4 C12_4 1_555 1_555
C6_4 C11_4 1_555 1_555
C8_4 C12_4 1_555 1_555
C10_4 C11_4 1_555 1_555

#END
