
###############################################################################
#
# This file contains modified crystal structure data generated from the
# MOF subset of the Cambridge Structural Database (CSD) v543 
# hosted by the Cambridge Crystallographic Data Centre (CCDC).
#
# This work is licensed under the Creative Commons
# Attribution-NonCommercial-ShareAlike 4.0 International License.
# To view a copy of this license, visit
# http://creativecommons.org/licenses/by-nc-sa/4.0/
# or send a letter to
# Creative Commons, PO Box 1866, Mountain View, CA 94042, USA.
#
# CIF created using the CSD Python API on 29 September 2022
# The structure has been converted into the P1 space group
# The structure has a 3D framework
# The original CSD entry TONBUU is in the monoclinic crystal system
# The framework has been calculated to contain at least 10.0% void space
# The void calculation uses a probe of radius 1.32A, grid spacing 0.4
# The framework is charged, counterions have been retained in the structure
#
###############################################################################

data_TONBUU
_chemical_formula_moiety         '(C136 H112 N8 Ni12 O74 6-)n'
_symmetry_cell_setting           triclinic
_symmetry_space_group_name_H-M   'P 1'
_symmetry_Int_Tables_number      1
_space_group_name_Hall           'P 1'
loop_
_symmetry_equiv_pos_site_id
_symmetry_equiv_pos_as_xyz
1 x,y,z
_cell_length_a                   17.8669(6)
_cell_length_b                   14.1157(6)
_cell_length_c                   19.8394(7)
_cell_angle_alpha                90
_cell_angle_beta                 91.256(3)
_cell_angle_gamma                90
_cell_volume                     5002.37
loop_
_atom_site_label
_atom_site_type_symbol
_atom_site_fract_x
_atom_site_fract_y
_atom_site_fract_z
Ni1 Ni 0.24806(5) 0.05190(6) 0.42907(4)
O1 O 0.2616(3) 0.0102(3) 0.3319(2)
C5 C 0.4248(4) 0.0078(6) 0.6067(4)
O7 O 0.2369(3) 0.0938(3) 0.5305(2)
C10 C 0.1841(4) 0.1142(5) 0.5705(4)
O8 O 0.1883(3) 0.1873(3) 0.6057(3)
C11 C 0.1216(4) 0.0440(5) 0.5760(3)
C12 C 0.0483(4) 0.0735(5) 0.5897(3)
C22 C 0.3000(4) 0.0196(5) 0.1267(4)
C23 C 0.2907(4) 0.0183(5) 0.1952(4)
C26 C 0.3156(4) 0.1111(5) 0.0897(4)
O15 O 0.3212(3) 0.1864(3) 0.1227(2)
O16 O 0.3203(3) 0.1049(3) 0.0252(2)
O17 O 0.3489(3) 0.1396(4) 0.6397(2)
C27 C 0.4085(5) 0.0909(6) 0.6521(4)
O18 O 0.4538(4) 0.1088(6) 0.6983(4)
H2 H 0.5384 0.0017 0.6236
H4 H 0.0379 0.1371 0.6006
H8 H 0.2960 0.0745 0.2207
Ni8 Ni 0.29743(5) 0.31597(6) 0.08408(4)
O20 O 0.3581(3) 0.0734(3) 0.4324(2)
Ni9 Ni 0.30263(5) 0.20592(7) 0.55638(5)
O24 O 0.1374(3) 0.0291(3) 0.4185(2)
O26 O 0.2306(3) 0.1855(3) 0.3920(2)
C1 C 0.2581(4) 0.9333(5) 0.3026(4)
O2 O 0.2430(3) 0.8516(3) 0.3269(2)
Ni2 Ni 0.20257(5) 0.81597(6) 0.41592(4)
O3 O 0.2633(3) 0.9146(3) 0.4666(2)
C2 C 0.3184(4) 0.8575(5) 0.4806(3)
O4 O 0.3154(3) 0.7745(3) 0.4569(2)
C3 C 0.3820(4) 0.8916(5) 0.5233(3)
C4 C 0.3676(4) 0.9667(5) 0.5685(4)
C6 C 0.4977(4) 0.9741(6) 0.5984(4)
C7 C 0.5119(4) 0.9010(5) 0.5534(4)
C8 C 0.4539(4) 0.8590(5) 0.5159(4)
C9 C 0.5935(4) 0.8772(5) 0.5380(4)
O5 O 0.6419(3) 0.9266(3) 0.5676(2)
O6 O 0.6040(3) 0.8118(4) 0.4955(2)
Ni3 Ni 0.69737(5) 0.79408(7) 0.44362(5)
C14 C 0.0072(4) 0.9107(5) 0.5739(3)
C15 C 0.0799(4) 0.8824(5) 0.5635(3)
C16 C 0.1376(4) 0.9492(5) 0.5640(4)
C17 C 0.0951(4) 0.7802(5) 0.5456(4)
O9 O 0.1596(3) 0.7652(3) 0.5159(2)
O10 O 0.0506(3) 0.7186(4) 0.5578(3)
O13 O 0.2512(3) 0.7799(3) 0.0161(2)
C19 C 0.2651(4) 0.7636(5) 0.0785(4)
O14 O 0.2694(3) 0.6855(3) 0.1080(2)
C20 C 0.2768(4) 0.8526(5) 0.1216(3)
C21 C 0.2928(4) 0.9377(5) 0.0887(4)
C24 C 0.2738(4) 0.9336(5) 0.2273(3)
C25 C 0.2672(4) 0.8510(5) 0.1891(4)
O19 O 0.6619(3) 0.6645(4) 0.4074(3)
C28 C 0.6371(5) 0.6086(6) 0.4497(5)
N1 N 0.6334(5) 0.5162(5) 0.4439(4)
C29 C 0.6040(6) 0.4554(8) 0.4953(5)
C30 C 0.6636(8) 0.4701(9) 0.3849(7)
H1 H 0.3181 0.9899 0.5725
H3 H 0.4634 0.8080 0.4851
H6 H 0.1873 0.9290 0.5563
H7 H 0.2970 0.9397 0.0412
H9 H 0.2548 0.7938 0.2108
H10 H 0.6361 0.3992 0.5012
H11 H 0.5529 0.4335 0.4820
H12 H 0.6011 0.4895 0.5387
H13 H 0.6397 0.4093 0.3763
H14 H 0.6560 0.5097 0.3451
H15 H 0.7172 0.4585 0.3904
H16 H 0.6200 0.6347 0.4907
Ni4 Ni 0.75194(5) 0.94810(6) 0.57093(4)
Ni6 Ni 0.25194(5) 0.55190(6) 0.07093(4)
O21 O 0.7631(3) 0.9062(3) 0.4695(2)
O22 O 0.8117(3) 0.8127(3) 0.3943(3)
O23 O 0.1032(3) 0.8771(3) 0.4007(2)
O25 O 0.7512(3) 0.7201(3) 0.5161(2)
O27 O 0.1788(3) 0.6864(3) 0.3773(2)
O28 O 0.6511(3) 0.8604(4) 0.3603(2)
Ni10 Ni 0.19737(5) 0.70592(7) 0.94362(5)
C13 C 0.9905(4) 0.0061(5) 0.5869(3)
C18 C 0.9089(4) 0.0352(5) 0.5893(3)
O11 O 0.8968(3) 0.1229(3) 0.5993(2)
Ni7 Ni 0.79743(5) 0.18403(6) 0.58408(4)
O12 O 0.8626(3) 0.9709(3) 0.5815(2)
H5 H 0.9681 0.8649 0.5728
O1_2 O 0.2384(3) 0.5102(3) 0.1681(2)
C1_2 C 0.2419(4) 0.4333(5) 0.1974(4)
O2_2 O 0.2570(3) 0.3516(3) 0.1731(2)
O3_2 O 0.2367(3) 0.4146(3) 0.0334(2)
C2_2 C 0.1816(4) 0.3575(5) 0.0194(3)
O4_2 O 0.1846(3) 0.2745(3) 0.0431(2)
O13_2 O 0.2488(3) 0.2799(3) 0.4839(2)
C19_2 C 0.2349(4) 0.2636(5) 0.4215(4)
C20_2 C 0.2232(4) 0.3526(5) 0.3784(3)
C21_2 C 0.2072(4) 0.4377(5) 0.4113(4)
C22_2 C 0.2000(4) 0.5196(5) 0.3733(4)
C23_2 C 0.2093(4) 0.5183(5) 0.3048(4)
C24_2 C 0.2262(4) 0.4336(5) 0.2727(3)
C25_2 C 0.2328(4) 0.3510(5) 0.3109(4)
C26_2 C 0.1844(4) 0.6111(5) 0.4103(4)
O16_2 O 0.1797(3) 0.6049(3) 0.4748(2)
H3_2 H 0.0366 0.3080 0.0149
H7_2 H 0.2030 0.4397 0.4588
H8_2 H 0.2040 0.5745 0.2793
H9_2 H 0.2452 0.2938 0.2892
O20_2 O 0.1419(3) 0.5734(3) 0.0676(2)
O23_2 O 0.3968(3) 0.3771(3) 0.0993(2)
O24_2 O 0.3626(3) 0.5291(3) 0.0815(2)
C3_2 C 0.1180(4) 0.3916(5) 0.9767(3)
C4_2 C 0.1324(4) 0.4667(5) 0.9315(4)
C5_2 C 0.0752(4) 0.5078(6) 0.8933(4)
C6_2 C 0.0023(4) 0.4741(6) 0.9016(4)
C8_2 C 0.0461(4) 0.3590(5) 0.9841(4)
O7_2 O 0.2631(3) 0.5938(3) 0.9695(2)
C10_2 C 0.3159(4) 0.6142(5) 0.9295(4)
O8_2 O 0.3117(3) 0.6873(3) 0.8943(3)
C11_2 C 0.3784(4) 0.5440(5) 0.9240(3)
C12_2 C 0.4517(4) 0.5735(5) 0.9103(3)
C13_2 C 0.5095(4) 0.5061(5) 0.9131(3)
C14_2 C 0.4928(4) 0.4107(5) 0.9261(3)
C15_2 C 0.4201(4) 0.3824(5) 0.9365(3)
C16_2 C 0.3624(4) 0.4492(5) 0.9360(4)
C17_2 C 0.4049(4) 0.2802(5) 0.9544(4)
O9_2 O 0.3404(3) 0.2652(3) 0.9841(2)
O10_2 O 0.4494(3) 0.2186(4) 0.9422(3)
C18_2 C 0.5911(4) 0.5352(5) 0.9107(3)
O11_2 O 0.6032(3) 0.6229(3) 0.9007(2)
O12_2 O 0.6374(3) 0.4709(3) 0.9185(2)
O17_2 O 0.1511(3) 0.6396(4) 0.8603(2)
C27_2 C 0.0915(5) 0.5909(6) 0.8479(4)
O18_2 O 0.0462(4) 0.6088(6) 0.8017(4)
H1_2 H 0.1819 0.4899 0.9275
H4_2 H 0.4621 0.6371 0.8994
H5_2 H 0.5319 0.3649 0.9272
H6_2 H 0.3127 0.4290 0.9437
Ni5 Ni 0.74806(5) 0.44810(6) 0.92907(4)
Ni7_2 Ni 0.70257(5) 0.68403(6) 0.91592(4)
O6_2 O 0.8960(3) 0.3118(4) 0.0045(2)
Ni3_2 Ni 0.80263(5) 0.29408(7) 0.05638(5)
O19_2 O 0.8381(3) 0.1645(4) 0.0926(3)
C28_2 C 0.8629(5) 0.1086(6) 0.0503(5)
N1_2 N 0.8666(5) 0.0162(5) 0.0561(4)
H14_2 H 0.8440 0.0097 0.1549
H16_2 H 0.8800 0.1347 0.0093
O21_2 O 0.7369(3) 0.4062(3) 0.0305(2)
O22_2 O 0.6883(3) 0.3127(3) 0.1057(3)
O28_2 O 0.8489(3) 0.3604(4) 0.1397(2)
C7_2 C 0.9881(4) 0.4010(5) 0.9466(4)
C9_2 C 0.9065(4) 0.3772(5) 0.9620(4)
O5_2 O 0.8581(3) 0.4266(3) 0.9324(2)
H2_2 H 0.9616 0.5017 0.8764
O25_2 O 0.7488(3) 0.2201(3) 0.9839(2)
H5_3 H 0.0319 0.1351 0.4272
C13_3 C 0.0095(4) 0.9939(5) 0.4131(3)
C18_3 C 0.0911(4) 0.9648(5) 0.4107(3)
C1_3 C 0.7419(4) 0.0667(5) 0.6974(4)
O2_3 O 0.7570(3) 0.1484(3) 0.6731(2)
O3_3 O 0.7367(3) 0.0854(3) 0.5334(2)
C2_3 C 0.6816(4) 0.1425(5) 0.5194(3)
O4_3 O 0.6846(3) 0.2255(3) 0.5431(2)
C3_3 C 0.6180(4) 0.1084(5) 0.4767(3)
C4_3 C 0.6324(4) 0.0333(5) 0.4315(4)
C6_3 C 0.5023(4) 0.0259(6) 0.4016(4)
C7_3 C 0.4881(4) 0.0990(5) 0.4466(4)
C8_3 C 0.5461(4) 0.1410(5) 0.4841(4)
C9_3 C 0.4065(4) 0.1228(5) 0.4620(4)
O6_3 O 0.3960(3) 0.1882(4) 0.5045(2)
C14_3 C 0.9928(4) 0.0893(5) 0.4261(3)
C15_3 C 0.9201(4) 0.1176(5) 0.4365(3)
C16_3 C 0.8624(4) 0.0508(5) 0.4360(4)
C17_3 C 0.9049(4) 0.2198(5) 0.4544(4)
O9_3 O 0.8404(3) 0.2348(3) 0.4841(2)
O10_3 O 0.9494(3) 0.2814(4) 0.4422(3)
C19_3 C 0.7349(4) 0.2364(5) 0.9215(4)
O14_2 O 0.7306(3) 0.3145(3) 0.8920(2)
C20_3 C 0.7232(4) 0.1474(5) 0.8784(3)
C21_3 C 0.7072(4) 0.0623(5) 0.9113(4)
C24_3 C 0.7262(4) 0.0664(5) 0.7727(3)
C25_3 C 0.7328(4) 0.1490(5) 0.8109(4)
O19_3 O 0.3381(3) 0.3355(4) 0.5926(3)
C28_3 C 0.3629(5) 0.3914(6) 0.5503(5)
N1_3 N 0.3666(5) 0.4838(5) 0.5561(4)
C29_2 C 0.3960(6) 0.5446(8) 0.5047(5)
C30_2 C 0.3364(8) 0.5299(9) 0.6151(7)
H1_3 H 0.6819 0.0101 0.4275
H3_3 H 0.5366 0.1920 0.5149
H6_3 H 0.8127 0.0710 0.4437
H7_3 H 0.7030 0.0603 0.9588
H9_3 H 0.7452 0.2062 0.7892
H10_2 H 0.3639 0.6008 0.4988
H11_2 H 0.4471 0.5665 0.5180
H12_2 H 0.3989 0.5105 0.4613
H13_2 H 0.3603 0.5907 0.6237
H14_3 H 0.3440 0.4903 0.6549
H15_2 H 0.2828 0.5415 0.6096
H16_3 H 0.3800 0.3653 0.5093
O27_2 O 0.8212(3) 0.3136(3) 0.6227(2)
O1_3 O 0.7384(3) 0.9898(3) 0.6681(2)
C5_3 C 0.5752(4) 0.9922(6) 0.3933(4)
C10_3 C 0.8159(4) 0.8858(5) 0.4295(4)
C11_3 C 0.8784(4) 0.9560(5) 0.4240(3)
C12_3 C 0.9517(4) 0.9265(5) 0.4103(3)
C22_3 C 0.7000(4) 0.9804(5) 0.8733(4)
C23_3 C 0.7093(4) 0.9817(5) 0.8048(4)
C26_3 C 0.6844(4) 0.8889(5) 0.9103(4)
O15_2 O 0.6788(3) 0.8136(3) 0.8773(2)
O16_3 O 0.6797(3) 0.8951(3) 0.9748(2)
C27_3 C 0.5915(5) 0.9091(6) 0.3479(4)
O18_3 O 0.5462(4) 0.8912(6) 0.3017(4)
H2_3 H 0.4616 0.9983 0.3764
H4_3 H 0.9621 0.8629 0.3994
H8_3 H 0.7040 0.9255 0.7793
O26_2 O 0.7694(3) 0.8145(3) 0.6080(2)
C7_4 C 0.0119(4) 0.5990(5) 0.0534(4)
C9_4 C 0.0935(4) 0.6228(5) 0.0380(4)
H2_4 H 0.0384 0.4983 0.1236
O6_4 O 0.1040(3) 0.6882(4) 0.9955(2)
O19_4 O 0.1619(3) 0.8355(4) 0.9074(3)
C28_4 C 0.1371(5) 0.8914(6) 0.9497(5)
N1_4 N 0.1334(5) 0.9838(5) 0.9439(4)
H14_4 H 0.1560 0.9903 0.8451
H16_4 H 0.1200 0.8653 0.9907
C3_4 C 0.8820(4) 0.6084(5) 0.0233(3)
C4_4 C 0.8676(4) 0.5333(5) 0.0685(4)
C5_4 C 0.9248(4) 0.4922(6) 0.1067(4)
C6_4 C 0.9977(4) 0.5259(6) 0.0984(4)
C8_4 C 0.9539(4) 0.6410(5) 0.0159(4)
C10_4 C 0.6841(4) 0.3858(5) 0.0705(4)
C11_4 C 0.6216(4) 0.4560(5) 0.0760(3)
C12_4 C 0.5483(4) 0.4265(5) 0.0897(3)
C13_4 C 0.4905(4) 0.4939(5) 0.0869(3)
C14_4 C 0.5072(4) 0.5893(5) 0.0739(3)
C15_4 C 0.5799(4) 0.6176(5) 0.0635(3)
C16_4 C 0.6376(4) 0.5508(5) 0.0640(4)
C17_4 C 0.5951(4) 0.7198(5) 0.0456(4)
O9_4 O 0.6596(3) 0.7348(3) 0.0159(2)
O10_4 O 0.5506(3) 0.7814(4) 0.0578(3)
C18_4 C 0.4089(4) 0.4648(5) 0.0893(3)
C27_4 C 0.9085(5) 0.4091(6) 0.1521(4)
O18_4 O 0.9538(4) 0.3912(6) 0.1983(4)
H1_4 H 0.8181 0.5101 0.0725
H4_4 H 0.5379 0.3629 0.1006
H5_4 H 0.4681 0.6351 0.0728
H6_4 H 0.6873 0.5710 0.0563
O1_4 O 0.7616(3) 0.4898(3) 0.8319(2)
C1_4 C 0.7581(4) 0.5667(5) 0.8026(4)
O2_4 O 0.7430(3) 0.6484(3) 0.8269(2)
O3_4 O 0.7633(3) 0.5854(3) 0.9666(2)
C2_4 C 0.8184(4) 0.6425(5) 0.9806(3)
O4_4 O 0.8154(3) 0.7255(3) 0.9569(2)
C19_4 C 0.7651(4) 0.7364(5) 0.5785(4)
C20_4 C 0.7768(4) 0.6474(5) 0.6216(3)
C21_4 C 0.7928(4) 0.5623(5) 0.5887(4)
C22_4 C 0.8000(4) 0.4804(5) 0.6267(4)
C23_4 C 0.7907(4) 0.4817(5) 0.6952(4)
C24_4 C 0.7738(4) 0.5664(5) 0.7273(3)
C25_4 C 0.7672(4) 0.6490(5) 0.6891(4)
C26_4 C 0.8156(4) 0.3889(5) 0.5897(4)
O16_4 O 0.8203(3) 0.3951(3) 0.5252(2)
H3_4 H 0.9634 0.6920 0.9851
H7_4 H 0.7970 0.5603 0.5412
H8_4 H 0.7960 0.4255 0.7207
H9_4 H 0.7548 0.7062 0.7108
C29_3 C 0.8960(6) 0.9554(8) 0.0047(5)
C30_3 C 0.8364(8) 0.9701(9) 0.1151(7)
H11_3 H 0.9471 0.9335 0.0180
H13_3 H 0.8603 0.9093 0.1237
H15_3 H 0.7828 0.9585 0.1096
H10_3 H 0.8639 0.8992 0.9988
H12_3 H 0.8989 0.9895 0.9613
H10_4 H 0.1361 0.1008 0.0012
H12_4 H 0.1011 0.0105 0.0387
C29_4 C 0.1040(6) 0.0446(8) 0.9953(5)
C30_4 C 0.1636(8) 0.0299(9) 0.8849(7)
H11_4 H 0.0529 0.0665 0.9820
H13_4 H 0.1397 0.0907 0.8763
H15_4 H 0.2172 0.0415 0.8904
N2 N 0.0626(4) 0.1714(6) 0.2247(4)
C31 C 0.1026(9) 0.2208(10) 0.1737(6)
C33 C 0.1092(8) 0.0932(10) 0.2527(6)
C34 C 0.0481(8) 0.2407(12) 0.2824(7)
H17 H 0.1535 0.2332 0.1894
H18 H 0.0776 0.2797 0.1636
H19 H 0.1038 0.1813 0.1338
H23 H 0.0789 0.0543 0.2815
H24 H 0.1507 0.1196 0.2803
H25 H 0.1288 0.0574 0.2167
H26 H 0.0214 0.2108 0.3179
H27 H 0.0949 0.2659 0.2995
H28 H 0.0179 0.2937 0.2647
C32 C 0.9894(7) 0.1331(10) 0.2001(9)
H20 H 0.9594 0.1102 0.2369
H21 H 0.9632 0.1813 0.1756
H22 H 0.9985 0.0793 0.1696
N2_2 N 0.4374(4) 0.6714(6) 0.2753(4)
C31_2 C 0.3974(9) 0.7208(10) 0.3263(6)
C32_2 C 0.5106(7) 0.6331(10) 0.2999(9)
C33_2 C 0.3908(8) 0.5932(10) 0.2473(6)
C34_2 C 0.4519(8) 0.7407(12) 0.2176(7)
H17_2 H 0.3465 0.7332 0.3106
H18_2 H 0.4224 0.7797 0.3364
H19_2 H 0.3962 0.6813 0.3662
H20_2 H 0.5406 0.6102 0.2631
H21_2 H 0.5368 0.6813 0.3244
H22_2 H 0.5015 0.5793 0.3304
H23_2 H 0.4211 0.5543 0.2185
H24_2 H 0.3493 0.6196 0.2197
H25_2 H 0.3712 0.5574 0.2833
H26_2 H 0.4786 0.7108 0.1821
H27_2 H 0.4051 0.7659 0.2005
H28_2 H 0.4821 0.7937 0.2353
C32_3 C 0.0106(7) 0.8669(10) 0.7999(9)
H20_3 H 0.0406 0.8898 0.7631
H21_3 H 0.0368 0.8187 0.8244
H22_3 H 0.0015 0.9207 0.8304
N2_3 N 0.9374(4) 0.8286(6) 0.7753(4)
C31_3 C 0.8974(9) 0.7792(10) 0.8263(6)
C33_3 C 0.8908(8) 0.9068(10) 0.7473(6)
C34_3 C 0.9519(8) 0.7593(12) 0.7176(7)
H17_3 H 0.8465 0.7668 0.8106
H18_3 H 0.9224 0.7203 0.8364
H19_3 H 0.8962 0.8187 0.8662
H23_3 H 0.9211 0.9457 0.7185
H24_3 H 0.8493 0.8804 0.7197
H25_3 H 0.8712 0.9426 0.7833
H26_3 H 0.9786 0.7892 0.6821
H27_3 H 0.9051 0.7341 0.7005
H28_3 H 0.9821 0.7063 0.7353
N2_4 N 0.5626(4) 0.3286(6) 0.7247(4)
C31_4 C 0.6026(9) 0.2792(10) 0.6737(6)
C32_4 C 0.4894(7) 0.3669(10) 0.7001(9)
C33_4 C 0.6092(8) 0.4068(10) 0.7527(6)
C34_4 C 0.5481(8) 0.2593(12) 0.7824(7)
H17_4 H 0.6535 0.2668 0.6894
H18_4 H 0.5776 0.2203 0.6636
H19_4 H 0.6038 0.3187 0.6338
H20_4 H 0.4594 0.3898 0.7369
H21_4 H 0.4632 0.3187 0.6756
H22_4 H 0.4985 0.4207 0.6696
H23_4 H 0.5789 0.4457 0.7815
H24_4 H 0.6507 0.3804 0.7803
H25_4 H 0.6288 0.4426 0.7167
H26_4 H 0.5214 0.2892 0.8179
H27_4 H 0.5949 0.2341 0.7995
H28_4 H 0.5179 0.2063 0.7647
loop_
_geom_bond_atom_site_label_1
_geom_bond_atom_site_label_2
_geom_bond_site_symmetry_1
_geom_bond_site_symmetry_2
Ni1 O1 1_555 1_555
O7 Ni1 1_555 1_555
C10 O7 1_555 1_555
O8 C10 1_555 1_555
C11 C10 1_555 1_555
C12 C11 1_555 1_555
C23 C22 1_555 1_555
C26 C22 1_555 1_555
O15 C26 1_555 1_555
O16 C26 1_555 1_555
O17 C27 1_555 1_555
C27 C5 1_555 1_555
O18 C27 1_555 1_555
H4 C12 1_555 1_555
H8 C23 1_555 1_555
Ni8 O15 1_555 1_555
O20 Ni1 1_555 1_555
Ni9 O7 1_555 1_555
O24 Ni1 1_555 1_555
O26 Ni1 1_555 1_555
O8 Ni9 1_555 1_555
O17 Ni9 1_555 1_555
C1 O2 1_555 1_555
O2 Ni2 1_555 1_555
Ni2 O3 1_555 1_555
C2 O3 1_555 1_555
O4 Ni2 1_555 1_555
C3 C2 1_555 1_555
C4 C3 1_555 1_555
C7 C6 1_555 1_555
C8 C3 1_555 1_555
C9 C7 1_555 1_555
O5 C9 1_555 1_555
O6 C9 1_555 1_555
Ni3 O6 1_555 1_555
C15 C14 1_555 1_555
C17 C15 1_555 1_555
O9 Ni2 1_555 1_555
O10 C17 1_555 1_555
O13 C19 1_555 1_555
C19 O14 1_555 1_555
O14 Ni6 1_555 1_555
C20 C19 1_555 1_555
C21 C20 1_555 1_555
C24 C1 1_555 1_555
C25 C20 1_555 1_555
O19 Ni3 1_555 1_555
C28 O19 1_555 1_555
N1 C28 1_555 1_555
C29 N1 1_555 1_555
C30 N1 1_555 1_555
H1 C4 1_555 1_555
H3 C8 1_555 1_555
H6 C16 1_555 1_555
H7 C21 1_555 1_555
H9 C25 1_555 1_555
H10 C29 1_555 1_555
H11 C29 1_555 1_555
H12 C29 1_555 1_555
H13 C30 1_555 1_555
H14 C30 1_555 1_555
H15 C30 1_555 1_555
H16 C28 1_555 1_555
Ni4 O5 1_555 1_555
O21 Ni3 1_555 1_555
O22 Ni3 1_555 1_555
O23 Ni2 1_555 1_555
O25 Ni3 1_555 1_555
O27 Ni2 1_555 1_555
O28 Ni3 1_555 1_555
C2 O4 1_555 1_555
C7 C8 1_555 1_555
C15 C16 1_555 1_555
C17 O9 1_555 1_555
C24 C25 1_555 1_555
Ni4 O21 1_555 1_555
C18 C13 1_555 1_555
O11 C18 1_555 1_555
Ni7 O11 1_555 1_555
Ni4 O12 1_555 1_555
Ni6 O1_2 1_555 1_555
O1_2 C1_2 1_555 1_555
C1_2 O2_2 1_555 1_555
O2_2 Ni8 1_555 1_555
Ni8 O3_2 1_555 1_555
O3_2 Ni6 1_555 1_555
C2_2 O3_2 1_555 1_555
O4_2 Ni8 1_555 1_555
O13_2 C19_2 1_555 1_555
C19_2 O26 1_555 1_555
C20_2 C19_2 1_555 1_555
C21_2 C20_2 1_555 1_555
C22_2 C21_2 1_555 1_555
C23_2 C22_2 1_555 1_555
C24_2 C1_2 1_555 1_555
C25_2 C20_2 1_555 1_555
C26_2 C22_2 1_555 1_555
O27 C26_2 1_555 1_555
O16_2 C26_2 1_555 1_555
H7_2 C21_2 1_555 1_555
H8_2 C23_2 1_555 1_555
H9_2 C25_2 1_555 1_555
O20_2 Ni6 1_555 1_555
Ni9 O13_2 1_555 1_555
O23_2 Ni8 1_555 1_555
O24_2 Ni6 1_555 1_555
C2_2 O4_2 1_555 1_555
C23_2 C24_2 1_555 1_555
C24_2 C25_2 1_555 1_555
C4_2 C3_2 1_555 1_555
C5_2 C4_2 1_555 1_555
C6_2 C5_2 1_555 1_555
C8_2 C3_2 1_555 1_555
C10_2 O7_2 1_555 1_555
O8_2 C10_2 1_555 1_555
C11_2 C10_2 1_555 1_555
C12_2 C11_2 1_555 1_555
C13_2 C12_2 1_555 1_555
C14_2 C13_2 1_555 1_555
C15_2 C14_2 1_555 1_555
C16_2 C11_2 1_555 1_555
C17_2 C15_2 1_555 1_555
O10_2 C17_2 1_555 1_555
C18_2 C13_2 1_555 1_555
O11_2 C18_2 1_555 1_555
O12_2 C18_2 1_555 1_555
O17_2 C27_2 1_555 1_555
C27_2 C5_2 1_555 1_555
O18_2 C27_2 1_555 1_555
H1_2 C4_2 1_555 1_555
H4_2 C12_2 1_555 1_555
H5_2 C14_2 1_555 1_555
H6_2 C16_2 1_555 1_555
Ni5 O12_2 1_555 1_555
Ni7_2 O11_2 1_555 1_555
Ni10 O7_2 1_555 1_555
O8_2 Ni10 1_555 1_555
C15_2 C16_2 1_555 1_555
C17_2 O9_2 1_555 1_555
O17_2 Ni10 1_555 1_555
Ni3_2 O6_2 1_555 1_555
O19_2 Ni3_2 1_555 1_555
C28_2 O19_2 1_555 1_555
N1_2 C28_2 1_555 1_555
H16_2 C28_2 1_555 1_555
O21_2 Ni3_2 1_555 1_555
O22_2 Ni3_2 1_555 1_555
O28_2 Ni3_2 1_555 1_555
C9_2 C7_2 1_555 1_555
O5_2 C9_2 1_555 1_555
Ni5 O5_2 1_555 1_555
C18_3 C13_3 1_555 1_555
O23 C18_3 1_555 1_555
C1_3 O2_3 1_555 1_555
O2_3 Ni7 1_555 1_555
Ni7 O3_3 1_555 1_555
C2_3 O3_3 1_555 1_555
O4_3 Ni7 1_555 1_555
C3_3 C2_3 1_555 1_555
C4_3 C3_3 1_555 1_555
C7_3 C6_3 1_555 1_555
C8_3 C3_3 1_555 1_555
C9_3 C7_3 1_555 1_555
O20 C9_3 1_555 1_555
O6_3 C9_3 1_555 1_555
Ni9 O6_3 1_555 1_555
C15_3 C14_3 1_555 1_555
C17_3 C15_3 1_555 1_555
O9_3 Ni7 1_555 1_555
O10_3 C17_3 1_555 1_555
O25_2 C19_3 1_555 1_555
C19_3 O14_2 1_555 1_555
O14_2 Ni5 1_555 1_555
C20_3 C19_3 1_555 1_555
C21_3 C20_3 1_555 1_555
C24_3 C1_3 1_555 1_555
C25_3 C20_3 1_555 1_555
O19_3 Ni9 1_555 1_555
C28_3 O19_3 1_555 1_555
N1_3 C28_3 1_555 1_555
C29_2 N1_3 1_555 1_555
C30_2 N1_3 1_555 1_555
H1_3 C4_3 1_555 1_555
H3_3 C8_3 1_555 1_555
H6_3 C16_3 1_555 1_555
H7_3 C21_3 1_555 1_555
H9_3 C25_3 1_555 1_555
H10_2 C29_2 1_555 1_555
H11_2 C29_2 1_555 1_555
H12_2 C29_2 1_555 1_555
H13_2 C30_2 1_555 1_555
H14_3 C30_2 1_555 1_555
H15_2 C30_2 1_555 1_555
H16_3 C28_3 1_555 1_555
O27_2 Ni7 1_555 1_555
C2_3 O4_3 1_555 1_555
C7_3 C8_3 1_555 1_555
C15_3 C16_3 1_555 1_555
C17_3 O9_3 1_555 1_555
C24_3 C25_3 1_555 1_555
Ni4 O1_3 1_555 1_555
C10_3 O21 1_555 1_555
O22 C10_3 1_555 1_555
C11_3 C10_3 1_555 1_555
C12_3 C11_3 1_555 1_555
C23_3 C22_3 1_555 1_555
C26_3 C22_3 1_555 1_555
O15_2 C26_3 1_555 1_555
O16_3 C26_3 1_555 1_555
O28 C27_3 1_555 1_555
C27_3 C5_3 1_555 1_555
O18_3 C27_3 1_555 1_555
H4_3 C12_3 1_555 1_555
H8_3 C23_3 1_555 1_555
Ni7_2 O15_2 1_555 1_555
O26_2 Ni4 1_555 1_555
C9_4 C7_4 1_555 1_555
O20_2 C9_4 1_555 1_555
Ni10 O6_4 1_555 1_555
O19_4 Ni10 1_555 1_555
C28_4 O19_4 1_555 1_555
N1_4 C28_4 1_555 1_555
H16_4 C28_4 1_555 1_555
C4_4 C3_4 1_555 1_555
C5_4 C4_4 1_555 1_555
C6_4 C5_4 1_555 1_555
C8_4 C3_4 1_555 1_555
C10_4 O21_2 1_555 1_555
O22_2 C10_4 1_555 1_555
C11_4 C10_4 1_555 1_555
C12_4 C11_4 1_555 1_555
C13_4 C12_4 1_555 1_555
C14_4 C13_4 1_555 1_555
C15_4 C14_4 1_555 1_555
C16_4 C11_4 1_555 1_555
C17_4 C15_4 1_555 1_555
O10_4 C17_4 1_555 1_555
C18_4 C13_4 1_555 1_555
O23_2 C18_4 1_555 1_555
O24_2 C18_4 1_555 1_555
O28_2 C27_4 1_555 1_555
C27_4 C5_4 1_555 1_555
O18_4 C27_4 1_555 1_555
H1_4 C4_4 1_555 1_555
H4_4 C12_4 1_555 1_555
H5_4 C14_4 1_555 1_555
H6_4 C16_4 1_555 1_555
C15_4 C16_4 1_555 1_555
C17_4 O9_4 1_555 1_555
Ni5 O1_4 1_555 1_555
O1_4 C1_4 1_555 1_555
C1_4 O2_4 1_555 1_555
O2_4 Ni7_2 1_555 1_555
Ni7_2 O3_4 1_555 1_555
O3_4 Ni5 1_555 1_555
C2_4 O3_4 1_555 1_555
O4_4 Ni7_2 1_555 1_555
O25 C19_4 1_555 1_555
C19_4 O26_2 1_555 1_555
C20_4 C19_4 1_555 1_555
C21_4 C20_4 1_555 1_555
C22_4 C21_4 1_555 1_555
C23_4 C22_4 1_555 1_555
C24_4 C1_4 1_555 1_555
C25_4 C20_4 1_555 1_555
C26_4 C22_4 1_555 1_555
O27_2 C26_4 1_555 1_555
O16_4 C26_4 1_555 1_555
H7_4 C21_4 1_555 1_555
H8_4 C23_4 1_555 1_555
H9_4 C25_4 1_555 1_555
C2_4 O4_4 1_555 1_555
C23_4 C24_4 1_555 1_555
C24_4 C25_4 1_555 1_555
H11_3 C29_3 1_555 1_555
H13_3 C30_3 1_555 1_555
H15_3 C30_3 1_555 1_555
H11_4 C29_4 1_555 1_555
H13_4 C30_4 1_555 1_555
H15_4 C30_4 1_555 1_555
N2 C31 1_555 1_555
C31 H17 1_555 1_555
C33 N2 1_555 1_555
C34 N2 1_555 1_555
H18 C31 1_555 1_555
H19 C31 1_555 1_555
H23 C33 1_555 1_555
H24 C33 1_555 1_555
H25 C33 1_555 1_555
H26 C34 1_555 1_555
H27 C34 1_555 1_555
H28 C34 1_555 1_555
H20 C32 1_555 1_555
H21 C32 1_555 1_555
H22 C32 1_555 1_555
N2_2 C31_2 1_555 1_555
C31_2 H17_2 1_555 1_555
C32_2 N2_2 1_555 1_555
C33_2 N2_2 1_555 1_555
C34_2 N2_2 1_555 1_555
H18_2 C31_2 1_555 1_555
H19_2 C31_2 1_555 1_555
H20_2 C32_2 1_555 1_555
H21_2 C32_2 1_555 1_555
H22_2 C32_2 1_555 1_555
H23_2 C33_2 1_555 1_555
H24_2 C33_2 1_555 1_555
H25_2 C33_2 1_555 1_555
H26_2 C34_2 1_555 1_555
H27_2 C34_2 1_555 1_555
H28_2 C34_2 1_555 1_555
H20_3 C32_3 1_555 1_555
H21_3 C32_3 1_555 1_555
H22_3 C32_3 1_555 1_555
N2_3 C31_3 1_555 1_555
C31_3 H17_3 1_555 1_555
C33_3 N2_3 1_555 1_555
C34_3 N2_3 1_555 1_555
H18_3 C31_3 1_555 1_555
H19_3 C31_3 1_555 1_555
H23_3 C33_3 1_555 1_555
H24_3 C33_3 1_555 1_555
H25_3 C33_3 1_555 1_555
H26_3 C34_3 1_555 1_555
H27_3 C34_3 1_555 1_555
H28_3 C34_3 1_555 1_555
N2_4 C31_4 1_555 1_555
C31_4 H17_4 1_555 1_555
C32_4 N2_4 1_555 1_555
C33_4 N2_4 1_555 1_555
C34_4 N2_4 1_555 1_555
H18_4 C31_4 1_555 1_555
H19_4 C31_4 1_555 1_555
H20_4 C32_4 1_555 1_555
H21_4 C32_4 1_555 1_555
H22_4 C32_4 1_555 1_555
H23_4 C33_4 1_555 1_555
H24_4 C33_4 1_555 1_555
H25_4 C33_4 1_555 1_555
H26_4 C34_4 1_555 1_555
H27_4 C34_4 1_555 1_555
H28_4 C34_4 1_555 1_555

#END
