
###############################################################################
#
# This file contains modified crystal structure data generated from the
# MOF subset of the Cambridge Structural Database (CSD) v543 
# hosted by the Cambridge Crystallographic Data Centre (CCDC).
#
# This work is licensed under the Creative Commons
# Attribution-NonCommercial-ShareAlike 4.0 International License.
# To view a copy of this license, visit
# http://creativecommons.org/licenses/by-nc-sa/4.0/
# or send a letter to
# Creative Commons, PO Box 1866, Mountain View, CA 94042, USA.
#
# CIF created using the CSD Python API on 29 September 2022
# The structure has been converted into the P1 space group
# The structure has a 3D framework
# The original CSD entry TONKEN is in the tetragonal crystal system
# The framework has been calculated to contain at least 10.0% void space
# The void calculation uses a probe of radius 1.32A, grid spacing 0.4
# The framework is charged, counterions have been retained in the structure
#
###############################################################################

data_TONKEN
_chemical_formula_moiety         '(C256 H96 In8 O128 24-)n'
_symmetry_cell_setting           triclinic
_symmetry_space_group_name_H-M   'P 1'
_symmetry_Int_Tables_number      1
_space_group_name_Hall           'P 1'
loop_
_symmetry_equiv_pos_site_id
_symmetry_equiv_pos_as_xyz
1 x,y,z
_cell_length_a                   19.659(3)
_cell_length_b                   19.659(3)
_cell_length_c                   36.149(7)
_cell_angle_alpha                90
_cell_angle_beta                 90
_cell_angle_gamma                90
_cell_volume                     13970.7
loop_
_atom_site_label
_atom_site_type_symbol
_atom_site_fract_x
_atom_site_fract_y
_atom_site_fract_z
In1 In 0.22141(2) 0.47141(2) 0.1250
O1 O 0.2306(3) 0.3506(3) 0.13284(12)
O2 O 0.2172(2) 0.3987(2) 0.07975(12)
O3 O 0.2761(3) 0.0410(2) 0.07807(14)
O4 O 0.2698(3) 0.0903(3) 0.13276(13)
C1 C 0.2490(4) 0.2210(3) 0.02035(19)
C2 C 0.2592(4) 0.1614(4) 0.04048(19)
H1 H 0.2668 0.1198 0.0277
C3 C 0.2585(4) 0.1616(4) 0.07858(19)
C4 C 0.2481(4) 0.2204(3) 0.09825(19)
H2 H 0.2481 0.2197 0.1245
C5 C 0.2374(4) 0.2809(3) 0.07936(19)
C6 C 0.2382(4) 0.2810(4) 0.0405(2)
H3 H 0.2312 0.3226 0.0276
C7 C 0.2296(4) 0.3468(4) 0.0986(2)
C8 C 0.2701(4) 0.0949(4) 0.09757(19)
O6 O 0.1006(3) 0.4806(3) 0.11716(12)
O8 O 0.1487(2) 0.4672(2) 0.17025(12)
O10 O 0.2910(2) 0.4739(3) 0.17193(14)
O11 O 0.2239(3) 0.5410(2) 0.07807(14)
O13 O 0.3403(3) 0.4802(3) 0.11724(13)
O14 O 0.2302(3) 0.5903(3) 0.13276(13)
In2 In 0.27859(2) 0.47141(2) 0.8750
O5 O 0.2694(3) 0.3506(3) 0.86716(12)
O7 O 0.2828(2) 0.3987(2) 0.92025(12)
O9 O 0.2239(3) 0.0410(2) 0.92193(14)
O12 O 0.2302(3) 0.0903(3) 0.86724(13)
C9 C 0.2510(4) 0.2210(3) 0.97965(19)
C10 C 0.2408(4) 0.1614(4) 0.95952(19)
H4 H 0.2332 0.1198 0.9723
C11 C 0.2415(4) 0.1616(4) 0.92142(19)
C12 C 0.2519(4) 0.2204(3) 0.90175(19)
H5 H 0.2519 0.2197 0.8755
C13 C 0.2626(4) 0.2809(3) 0.92064(19)
C14 C 0.2618(4) 0.2810(4) 0.9595(2)
H6 H 0.2688 0.3226 0.9724
C15 C 0.2704(4) 0.3468(4) 0.9014(2)
C16 C 0.2299(4) 0.0949(4) 0.90243(19)
In3 In 0.27859(2) 0.97141(2) 0.1250
In4 In 0.22141(2) 0.97141(2) 0.8750
O3_2 O 0.2090(2) 0.0261(3) 0.32807(14)
O4_2 O 0.1597(3) 0.0198(3) 0.38276(13)
C2_2 C 0.0886(4) 0.0092(4) 0.29048(19)
H1_2 H 0.1302 0.0168 0.2777
C3_2 C 0.0884(4) 0.0085(4) 0.32858(19)
C8_2 C 0.1551(4) 0.0201(4) 0.34757(19)
In3_2 In 0.27859(2) 0.02859(2) 0.3750
C9_2 C 0.0290(3) 0.0010(4) 0.22965(19)
C12_2 C 0.0296(3) 0.0019(4) 0.15175(19)
H5_2 H 0.0303 0.0019 0.1255
C1_2 C 0.0290(3) 0.9990(4) 0.27035(19)
C4_2 C 0.0296(3) 0.9981(4) 0.34825(19)
H2_2 H 0.0303 0.9981 0.3745
O9_2 O 0.2090(2) 0.9739(3) 0.17193(14)
O12_2 O 0.1597(3) 0.9802(3) 0.11724(13)
C10_2 C 0.0886(4) 0.9908(4) 0.20952(19)
H4_2 H 0.1302 0.9832 0.2223
C11_2 C 0.0884(4) 0.9915(4) 0.17142(19)
C16_2 C 0.1551(4) 0.9799(4) 0.15243(19)
In2_2 In 0.77859(2) 0.02859(2) 0.1250
O5_2 O 0.8994(3) 0.0194(3) 0.11716(12)
O7_2 O 0.8513(2) 0.0328(2) 0.17025(12)
O10_2 O 0.7761(3) 0.0410(2) 0.42193(14)
O13_2 O 0.7698(3) 0.0903(3) 0.36724(13)
C13_2 C 0.9691(3) 0.0126(4) 0.17064(19)
C14_2 C 0.9690(4) 0.0118(4) 0.2095(2)
H6_2 H 0.9274 0.0188 0.2224
C15_2 C 0.9032(4) 0.0204(4) 0.1514(2)
In1_2 In 0.77859(2) 0.97141(2) 0.3750
O1_2 O 0.8994(3) 0.9806(3) 0.38284(12)
O2_2 O 0.8513(2) 0.9672(2) 0.32975(12)
C5_2 C 0.9691(3) 0.9874(4) 0.32936(19)
C6_2 C 0.9690(4) 0.9882(4) 0.2905(2)
H3_2 H 0.9274 0.9812 0.2776
C7_2 C 0.9032(4) 0.9796(4) 0.3486(2)
O6_2 O 0.7694(3) 0.8506(3) 0.36716(12)
O8_2 O 0.7828(2) 0.8987(2) 0.42025(12)
O11_2 O 0.7090(2) 0.9739(3) 0.32807(14)
O14_2 O 0.6597(3) 0.9802(3) 0.38276(13)
In3_3 In 0.22141(2) 0.02859(2) 0.6250
In1_3 In 0.27859(2) 0.52859(2) 0.6250
O1_3 O 0.2694(3) 0.6494(3) 0.63284(12)
O2_3 O 0.2828(2) 0.6013(2) 0.57975(12)
O3_3 O 0.2239(3) 0.9590(2) 0.57807(14)
O4_3 O 0.2302(3) 0.9097(3) 0.63276(13)
C1_3 C 0.2510(4) 0.7790(3) 0.52035(19)
C2_3 C 0.2408(4) 0.8386(4) 0.54048(19)
H1_3 H 0.2332 0.8802 0.5277
C3_3 C 0.2415(4) 0.8384(4) 0.57858(19)
C4_3 C 0.2519(4) 0.7796(3) 0.59825(19)
H2_3 H 0.2519 0.7803 0.6245
C5_3 C 0.2626(4) 0.7191(3) 0.57936(19)
C6_3 C 0.2618(4) 0.7190(4) 0.5405(2)
H3_3 H 0.2688 0.6774 0.5276
C7_3 C 0.2704(4) 0.6532(4) 0.5986(2)
C8_3 C 0.2299(4) 0.9051(4) 0.59757(19)
In2_3 In 0.22141(2) 0.52859(2) 0.3750
O5_3 O 0.2306(3) 0.6494(3) 0.36716(12)
O6_3 O 0.3994(3) 0.5194(3) 0.61716(12)
O7_3 O 0.2172(2) 0.6013(2) 0.42025(12)
O8_3 O 0.3513(2) 0.5328(2) 0.67025(12)
O9_3 O 0.2761(3) 0.9590(2) 0.42193(14)
O10_3 O 0.2090(2) 0.5261(3) 0.67193(14)
O11_3 O 0.2761(3) 0.4590(2) 0.57807(14)
O12_3 O 0.2698(3) 0.9097(3) 0.36724(13)
O13_3 O 0.1597(3) 0.5198(3) 0.61724(13)
O14_3 O 0.2698(3) 0.4097(3) 0.63276(13)
C9_3 C 0.2490(4) 0.7790(3) 0.47965(19)
C10_3 C 0.2592(4) 0.8386(4) 0.45952(19)
H4_3 H 0.2668 0.8802 0.4723
C11_3 C 0.2585(4) 0.8384(4) 0.42142(19)
C12_3 C 0.2481(4) 0.7796(3) 0.40175(19)
H5_3 H 0.2481 0.7803 0.3755
C13_3 C 0.2374(4) 0.7191(3) 0.42064(19)
C14_3 C 0.2382(4) 0.7190(4) 0.4595(2)
H6_3 H 0.2312 0.6774 0.4724
C15_3 C 0.2296(4) 0.6532(4) 0.4014(2)
C16_3 C 0.2701(4) 0.9051(4) 0.40243(19)
In1_4 In 0.72141(2) 0.02859(2) 0.8750
O1_4 O 0.6006(3) 0.0194(3) 0.88284(12)
O2_4 O 0.6487(2) 0.0328(2) 0.82975(12)
C1_4 C 0.4710(3) 0.0010(4) 0.77035(19)
C4_4 C 0.4704(3) 0.0019(4) 0.84825(19)
H2_4 H 0.4697 0.0019 0.8745
C5_4 C 0.5309(3) 0.0126(4) 0.82936(19)
C6_4 C 0.5310(4) 0.0118(4) 0.7905(2)
H3_4 H 0.5726 0.0188 0.7776
C7_4 C 0.5968(4) 0.0204(4) 0.8486(2)
O6_4 O 0.7306(3) 0.1494(3) 0.86716(12)
O8_4 O 0.7172(2) 0.1013(2) 0.92025(12)
O9_4 O 0.2910(2) 0.0261(3) 0.67193(14)
O11_4 O 0.7910(2) 0.0261(3) 0.82807(14)
O12_4 O 0.3403(3) 0.0198(3) 0.61724(13)
O14_4 O 0.8403(3) 0.0198(3) 0.88276(13)
C10_4 C 0.4114(4) 0.0092(4) 0.70952(19)
H4_4 H 0.3698 0.0168 0.7223
C11_4 C 0.4116(4) 0.0085(4) 0.67142(19)
C16_4 C 0.3449(4) 0.0201(4) 0.65243(19)
O3_4 O 0.2910(2) 0.9739(3) 0.82807(14)
O4_4 O 0.3403(3) 0.9802(3) 0.88276(13)
C2_4 C 0.4114(4) 0.9908(4) 0.79048(19)
H1_4 H 0.3698 0.9832 0.7777
C3_4 C 0.4116(4) 0.9915(4) 0.82858(19)
C8_4 C 0.3449(4) 0.9799(4) 0.84757(19)
In2_4 In 0.72141(2) 0.97141(2) 0.6250
O5_4 O 0.6006(3) 0.9806(3) 0.61716(12)
O7_4 O 0.6487(2) 0.9672(2) 0.67025(12)
O10_4 O 0.7239(3) 0.9590(2) 0.92193(14)
O13_4 O 0.7302(3) 0.9097(3) 0.86724(13)
C9_4 C 0.4710(3) 0.9990(4) 0.72965(19)
C12_4 C 0.4704(3) 0.9981(4) 0.65175(19)
H5_4 H 0.4697 0.9981 0.6255
C13_4 C 0.5309(3) 0.9874(4) 0.67064(19)
C14_4 C 0.5310(4) 0.9882(4) 0.7095(2)
H6_4 H 0.5726 0.9812 0.7224
C15_4 C 0.5968(4) 0.9796(4) 0.6514(2)
O6_5 O 0.1006(3) 0.5194(3) 0.38284(12)
O8_5 O 0.1487(2) 0.5328(2) 0.32975(12)
O10_5 O 0.2910(2) 0.5261(3) 0.32807(14)
O11_5 O 0.2239(3) 0.4590(2) 0.42193(14)
O13_5 O 0.3403(3) 0.5198(3) 0.38276(13)
O14_5 O 0.2302(3) 0.4097(3) 0.36724(13)
O10_6 O 0.7239(3) 0.0410(2) 0.57807(14)
O13_6 O 0.7302(3) 0.0903(3) 0.63276(13)
O6_6 O 0.7306(3) 0.8506(3) 0.63284(12)
O8_6 O 0.7172(2) 0.8987(2) 0.57975(12)
O11_6 O 0.7910(2) 0.9739(3) 0.67193(14)
O14_6 O 0.8403(3) 0.9802(3) 0.61724(13)
O6_7 O 0.3994(3) 0.4806(3) 0.88284(12)
O8_7 O 0.3513(2) 0.4672(2) 0.82975(12)
O10_7 O 0.2090(2) 0.4739(3) 0.82807(14)
O11_7 O 0.2761(3) 0.5410(2) 0.92193(14)
O13_7 O 0.1597(3) 0.4802(3) 0.88276(13)
O14_7 O 0.2698(3) 0.5903(3) 0.86724(13)
O6_8 O 0.7694(3) 0.1494(3) 0.13284(12)
O8_8 O 0.7828(2) 0.1013(2) 0.07975(12)
O11_8 O 0.7090(2) 0.0261(3) 0.17193(14)
O14_8 O 0.6597(3) 0.0198(3) 0.11724(13)
O10_8 O 0.7761(3) 0.9590(2) 0.07807(14)
O13_8 O 0.7698(3) 0.9097(3) 0.13276(13)
O3_5 O 0.7761(3) 0.5410(2) 0.57807(14)
O4_5 O 0.7698(3) 0.5903(3) 0.63276(13)
C1_5 C 0.7490(4) 0.7210(3) 0.52035(19)
C2_5 C 0.7592(4) 0.6614(4) 0.54048(19)
H1_5 H 0.7668 0.6198 0.5277
C3_5 C 0.7585(4) 0.6616(4) 0.57858(19)
C4_5 C 0.7481(4) 0.7204(3) 0.59825(19)
H2_5 H 0.7481 0.7197 0.6245
C5_5 C 0.7374(4) 0.7809(3) 0.57936(19)
C6_5 C 0.7382(4) 0.7810(4) 0.5405(2)
H3_5 H 0.7312 0.8226 0.5276
C7_5 C 0.7296(4) 0.8468(4) 0.5986(2)
C8_5 C 0.7701(4) 0.5949(4) 0.59757(19)
In3_4 In 0.77859(2) 0.47141(2) 0.6250
In4_2 In 0.72141(2) 0.47141(2) 0.3750
O9_5 O 0.7239(3) 0.5410(2) 0.42193(14)
O12_5 O 0.7302(3) 0.5903(3) 0.36724(13)
C9_5 C 0.7510(4) 0.7210(3) 0.47965(19)
C10_5 C 0.7408(4) 0.6614(4) 0.45952(19)
H4_5 H 0.7332 0.6198 0.4723
C11_5 C 0.7415(4) 0.6616(4) 0.42142(19)
C12_5 C 0.7519(4) 0.7204(3) 0.40175(19)
H5_5 H 0.7519 0.7197 0.3755
C13_5 C 0.7626(4) 0.7809(3) 0.42064(19)
C14_5 C 0.7618(4) 0.7810(4) 0.4595(2)
H6_5 H 0.7688 0.8226 0.4724
C15_5 C 0.7704(4) 0.8468(4) 0.4014(2)
C16_5 C 0.7299(4) 0.5949(4) 0.40243(19)
O3_6 O 0.7090(2) 0.5261(3) 0.82807(14)
O4_6 O 0.6597(3) 0.5198(3) 0.88276(13)
C1_6 C 0.5290(3) 0.4990(4) 0.77035(19)
C2_6 C 0.5886(4) 0.5092(4) 0.79048(19)
H1_6 H 0.6302 0.5168 0.7777
C3_6 C 0.5884(4) 0.5085(4) 0.82858(19)
C4_6 C 0.5296(3) 0.4981(4) 0.84825(19)
H2_6 H 0.5303 0.4981 0.8745
C5_6 C 0.4691(3) 0.4874(4) 0.82936(19)
C6_6 C 0.4690(4) 0.4882(4) 0.7905(2)
H3_6 H 0.4274 0.4812 0.7776
C7_6 C 0.4032(4) 0.4796(4) 0.8486(2)
C8_6 C 0.6551(4) 0.5201(4) 0.84757(19)
In3_5 In 0.77859(2) 0.52859(2) 0.8750
O9_6 O 0.7090(2) 0.4739(3) 0.67193(14)
O12_6 O 0.6597(3) 0.4802(3) 0.61724(13)
C9_6 C 0.5290(3) 0.5010(4) 0.72965(19)
C10_6 C 0.5886(4) 0.4908(4) 0.70952(19)
H4_6 H 0.6302 0.4832 0.7223
C11_6 C 0.5884(4) 0.4915(4) 0.67142(19)
C12_6 C 0.5296(3) 0.5019(4) 0.65175(19)
H5_6 H 0.5303 0.5019 0.6255
C13_6 C 0.4691(3) 0.5126(4) 0.67064(19)
C14_6 C 0.4690(4) 0.5118(4) 0.7095(2)
H6_6 H 0.4274 0.5188 0.7224
C15_6 C 0.4032(4) 0.5204(4) 0.6514(2)
C16_6 C 0.6551(4) 0.4799(4) 0.65243(19)
O3_7 O 0.7239(3) 0.4590(2) 0.07807(14)
O4_7 O 0.7302(3) 0.4097(3) 0.13276(13)
C1_7 C 0.7510(4) 0.2790(3) 0.02035(19)
C2_7 C 0.7408(4) 0.3386(4) 0.04048(19)
H1_7 H 0.7332 0.3802 0.0277
C3_7 C 0.7415(4) 0.3384(4) 0.07858(19)
C4_7 C 0.7519(4) 0.2796(3) 0.09825(19)
H2_7 H 0.7519 0.2803 0.1245
C5_7 C 0.7626(4) 0.2191(3) 0.07936(19)
C6_7 C 0.7618(4) 0.2190(4) 0.0405(2)
H3_7 H 0.7688 0.1774 0.0276
C7_7 C 0.7704(4) 0.1532(4) 0.0986(2)
C8_7 C 0.7299(4) 0.4051(4) 0.09757(19)
In3_6 In 0.72141(2) 0.52859(2) 0.1250
O9_7 O 0.7761(3) 0.4590(2) 0.92193(14)
O12_7 O 0.7698(3) 0.4097(3) 0.86724(13)
C9_7 C 0.7490(4) 0.2790(3) 0.97965(19)
C10_7 C 0.7592(4) 0.3386(4) 0.95952(19)
H4_7 H 0.7668 0.3802 0.9723
C11_7 C 0.7585(4) 0.3384(4) 0.92142(19)
C12_7 C 0.7481(4) 0.2796(3) 0.90175(19)
H5_7 H 0.7481 0.2803 0.8755
C13_7 C 0.7374(4) 0.2191(3) 0.92064(19)
C14_7 C 0.7382(4) 0.2190(4) 0.9595(2)
H6_7 H 0.7312 0.1774 0.9724
C15_7 C 0.7296(4) 0.1532(4) 0.9014(2)
C16_7 C 0.7701(4) 0.4051(4) 0.90243(19)
C5_8 C 0.0309(3) 0.5126(4) 0.32936(19)
C6_8 C 0.0310(4) 0.5118(4) 0.2905(2)
H3_8 H 0.0726 0.5188 0.2776
C7_8 C 0.0968(4) 0.5204(4) 0.3486(2)
C13_8 C 0.0309(3) 0.4874(4) 0.17064(19)
C14_8 C 0.0310(4) 0.4882(4) 0.2095(2)
H6_8 H 0.0726 0.4812 0.2224
C15_8 C 0.0968(4) 0.4796(4) 0.1514(2)
O3_8 O 0.7910(2) 0.4739(3) 0.32807(14)
O4_8 O 0.8403(3) 0.4802(3) 0.38276(13)
C1_8 C 0.9710(3) 0.5010(4) 0.27035(19)
C2_8 C 0.9114(4) 0.4908(4) 0.29048(19)
H1_8 H 0.8698 0.4832 0.2777
C3_8 C 0.9116(4) 0.4915(4) 0.32858(19)
C4_8 C 0.9704(3) 0.5019(4) 0.34825(19)
H2_8 H 0.9697 0.5019 0.3745
C8_8 C 0.8449(4) 0.4799(4) 0.34757(19)
O9_8 O 0.7910(2) 0.5261(3) 0.17193(14)
O12_8 O 0.8403(3) 0.5198(3) 0.11724(13)
C9_8 C 0.9710(3) 0.4990(4) 0.22965(19)
C10_8 C 0.9114(4) 0.5092(4) 0.20952(19)
H4_8 H 0.8698 0.5168 0.2223
C11_8 C 0.9116(4) 0.5085(4) 0.17142(19)
C12_8 C 0.9704(3) 0.4981(4) 0.15175(19)
H5_8 H 0.9697 0.4981 0.1255
C16_8 C 0.8449(4) 0.5201(4) 0.15243(19)
O5_5 O 0.7306(3) 0.6494(3) 0.13284(12)
O7_5 O 0.7172(2) 0.6013(2) 0.07975(12)
C9_9 C 0.7490(4) 0.7790(3) 0.02035(19)
C10_9 C 0.7592(4) 0.8386(4) 0.04048(19)
H4_9 H 0.7668 0.8802 0.0277
C11_9 C 0.7585(4) 0.8384(4) 0.07858(19)
C12_9 C 0.7481(4) 0.7796(3) 0.09825(19)
H5_9 H 0.7481 0.7803 0.1245
C13_9 C 0.7374(4) 0.7191(3) 0.07936(19)
C14_9 C 0.7382(4) 0.7190(4) 0.0405(2)
H6_9 H 0.7312 0.6774 0.0276
C15_9 C 0.7296(4) 0.6532(4) 0.0986(2)
C16_9 C 0.7701(4) 0.9051(4) 0.09757(19)
O1_5 O 0.7694(3) 0.6494(3) 0.86716(12)
O2_5 O 0.7828(2) 0.6013(2) 0.92025(12)
C1_9 C 0.7510(4) 0.7790(3) 0.97965(19)
C2_9 C 0.7408(4) 0.8386(4) 0.95952(19)
H1_9 H 0.7332 0.8802 0.9723
C3_9 C 0.7415(4) 0.8384(4) 0.92142(19)
C4_9 C 0.7519(4) 0.7796(3) 0.90175(19)
H2_9 H 0.7519 0.7803 0.8755
C5_9 C 0.7626(4) 0.7191(3) 0.92064(19)
C6_9 C 0.7618(4) 0.7190(4) 0.9595(2)
H3_9 H 0.7688 0.6774 0.9724
C7_9 C 0.7704(4) 0.6532(4) 0.9014(2)
C8_9 C 0.7299(4) 0.9051(4) 0.90243(19)
O6_9 O 0.8994(3) 0.5194(3) 0.88284(12)
O8_9 O 0.8513(2) 0.5328(2) 0.82975(12)
O1_6 O 0.1006(3) 0.0194(3) 0.61716(12)
O2_6 O 0.1487(2) 0.0328(2) 0.67025(12)
C5_10 C 0.0309(3) 0.0126(4) 0.67064(19)
C6_10 C 0.0310(4) 0.0118(4) 0.7095(2)
H3_10 H 0.0726 0.0188 0.7224
C7_10 C 0.0968(4) 0.0204(4) 0.6514(2)
O6_10 O 0.2306(3) 0.1494(3) 0.63284(12)
O8_10 O 0.2172(2) 0.1013(2) 0.57975(12)
O5_6 O 0.1006(3) 0.9806(3) 0.88284(12)
O7_6 O 0.1487(2) 0.9672(2) 0.82975(12)
C13_10 C 0.0309(3) 0.9874(4) 0.82936(19)
C14_10 C 0.0310(4) 0.9882(4) 0.7905(2)
H6_10 H 0.0726 0.9812 0.7776
C15_10 C 0.0968(4) 0.9796(4) 0.8486(2)
C1_10 C 0.9710(3) 0.0010(4) 0.72965(19)
C4_10 C 0.9704(3) 0.0019(4) 0.65175(19)
H2_10 H 0.9697 0.0019 0.6255
C10_10 C 0.9114(4) 0.0092(4) 0.79048(19)
H4_10 H 0.8698 0.0168 0.7777
C11_10 C 0.9116(4) 0.0085(4) 0.82858(19)
C16_10 C 0.8449(4) 0.0201(4) 0.84757(19)
C2_10 C 0.9114(4) 0.9908(4) 0.70952(19)
H1_10 H 0.8698 0.9832 0.7223
C3_10 C 0.9116(4) 0.9915(4) 0.67142(19)
C8_10 C 0.8449(4) 0.9799(4) 0.65243(19)
C9_10 C 0.9710(3) 0.9990(4) 0.77035(19)
C12_10 C 0.9704(3) 0.9981(4) 0.84825(19)
H5_10 H 0.9697 0.9981 0.8745
O1_7 O 0.7306(3) 0.3506(3) 0.36716(12)
O2_7 O 0.7172(2) 0.3987(2) 0.42025(12)
C1_11 C 0.7490(4) 0.2210(3) 0.47965(19)
C2_11 C 0.7592(4) 0.1614(4) 0.45952(19)
H1_11 H 0.7668 0.1198 0.4723
C3_11 C 0.7585(4) 0.1616(4) 0.42142(19)
C4_11 C 0.7481(4) 0.2204(3) 0.40175(19)
H2_11 H 0.7481 0.2197 0.3755
C5_11 C 0.7374(4) 0.2809(3) 0.42064(19)
C6_11 C 0.7382(4) 0.2810(4) 0.4595(2)
H3_11 H 0.7312 0.3226 0.4724
C7_11 C 0.7296(4) 0.3468(4) 0.4014(2)
C8_11 C 0.7701(4) 0.0949(4) 0.40243(19)
O5_7 O 0.7694(3) 0.3506(3) 0.63284(12)
O6_11 O 0.6006(3) 0.4806(3) 0.38284(12)
O7_7 O 0.7828(2) 0.3987(2) 0.57975(12)
O8_11 O 0.6487(2) 0.4672(2) 0.32975(12)
C9_11 C 0.7510(4) 0.2210(3) 0.52035(19)
C10_11 C 0.7408(4) 0.1614(4) 0.54048(19)
H4_11 H 0.7332 0.1198 0.5277
C11_11 C 0.7415(4) 0.1616(4) 0.57858(19)
C12_11 C 0.7519(4) 0.2204(3) 0.59825(19)
H5_11 H 0.7519 0.2197 0.6245
C13_11 C 0.7626(4) 0.2809(3) 0.57936(19)
C14_11 C 0.7618(4) 0.2810(4) 0.5405(2)
H6_11 H 0.7688 0.3226 0.5276
C15_11 C 0.7704(4) 0.3468(4) 0.5986(2)
C16_11 C 0.7299(4) 0.0949(4) 0.59757(19)
C2_12 C 0.5886(4) 0.0092(4) 0.20952(19)
H1_12 H 0.6302 0.0168 0.2223
C3_12 C 0.5884(4) 0.0085(4) 0.17142(19)
C8_12 C 0.6551(4) 0.0201(4) 0.15243(19)
O5_8 O 0.3994(3) 0.0194(3) 0.38284(12)
O7_8 O 0.3513(2) 0.0328(2) 0.32975(12)
C9_12 C 0.5290(3) 0.0010(4) 0.27035(19)
C12_12 C 0.5296(3) 0.0019(4) 0.34825(19)
H5_12 H 0.5303 0.0019 0.3745
C13_12 C 0.4691(3) 0.0126(4) 0.32936(19)
C14_12 C 0.4690(4) 0.0118(4) 0.2905(2)
H6_12 H 0.4274 0.0188 0.2776
C15_12 C 0.4032(4) 0.0204(4) 0.3486(2)
O1_8 O 0.3994(3) 0.9806(3) 0.11716(12)
O2_8 O 0.3513(2) 0.9672(2) 0.17025(12)
C1_12 C 0.5290(3) 0.9990(4) 0.22965(19)
C4_12 C 0.5296(3) 0.9981(4) 0.15175(19)
H2_12 H 0.5303 0.9981 0.1255
C5_12 C 0.4691(3) 0.9874(4) 0.17064(19)
C6_12 C 0.4690(4) 0.9882(4) 0.2095(2)
H3_12 H 0.4274 0.9812 0.2224
C7_12 C 0.4032(4) 0.9796(4) 0.1514(2)
O6_12 O 0.2694(3) 0.8506(3) 0.13284(12)
O8_12 O 0.2828(2) 0.8987(2) 0.07975(12)
C10_12 C 0.5886(4) 0.9908(4) 0.29048(19)
H4_12 H 0.6302 0.9832 0.2777
C11_12 C 0.5884(4) 0.9915(4) 0.32858(19)
C16_12 C 0.6551(4) 0.9799(4) 0.34757(19)
O6_13 O 0.8994(3) 0.4806(3) 0.61716(12)
O8_13 O 0.8513(2) 0.4672(2) 0.67025(12)
O6_14 O 0.2694(3) 0.1494(3) 0.36716(12)
O8_14 O 0.2828(2) 0.1013(2) 0.42025(12)
O6_15 O 0.6006(3) 0.5194(3) 0.11716(12)
O8_15 O 0.6487(2) 0.5328(2) 0.17025(12)
O6_16 O 0.2306(3) 0.8506(3) 0.86716(12)
O8_16 O 0.2172(2) 0.8987(2) 0.92025(12)
C1_13 C 0.2510(4) 0.2790(3) 0.47965(19)
C2_13 C 0.2408(4) 0.3386(4) 0.45952(19)
H1_13 H 0.2332 0.3802 0.4723
C3_13 C 0.2415(4) 0.3384(4) 0.42142(19)
C4_13 C 0.2519(4) 0.2796(3) 0.40175(19)
H2_13 H 0.2519 0.2803 0.3755
C5_13 C 0.2626(4) 0.2191(3) 0.42064(19)
C6_13 C 0.2618(4) 0.2190(4) 0.4595(2)
H3_13 H 0.2688 0.1774 0.4724
C7_13 C 0.2704(4) 0.1532(4) 0.4014(2)
C8_13 C 0.2299(4) 0.4051(4) 0.40243(19)
C9_13 C 0.2490(4) 0.2790(3) 0.52035(19)
C10_13 C 0.2592(4) 0.3386(4) 0.54048(19)
H4_13 H 0.2668 0.3802 0.5277
C11_13 C 0.2585(4) 0.3384(4) 0.57858(19)
C12_13 C 0.2481(4) 0.2796(3) 0.59825(19)
H5_13 H 0.2481 0.2803 0.6245
C13_13 C 0.2374(4) 0.2191(3) 0.57936(19)
C14_13 C 0.2382(4) 0.2190(4) 0.5405(2)
H6_13 H 0.2312 0.1774 0.5276
C15_13 C 0.2296(4) 0.1532(4) 0.5986(2)
C16_13 C 0.2701(4) 0.4051(4) 0.59757(19)
C1_14 C 0.4710(3) 0.5010(4) 0.22965(19)
C2_14 C 0.4114(4) 0.4908(4) 0.20952(19)
H1_14 H 0.3698 0.4832 0.2223
C3_14 C 0.4116(4) 0.4915(4) 0.17142(19)
C4_14 C 0.4704(3) 0.5019(4) 0.15175(19)
H2_14 H 0.4697 0.5019 0.1255
C5_14 C 0.5309(3) 0.5126(4) 0.17064(19)
C6_14 C 0.5310(4) 0.5118(4) 0.2095(2)
H3_14 H 0.5726 0.5188 0.2224
C7_14 C 0.5968(4) 0.5204(4) 0.1514(2)
C8_14 C 0.3449(4) 0.4799(4) 0.15243(19)
C9_14 C 0.4710(3) 0.4990(4) 0.27035(19)
C10_14 C 0.4114(4) 0.5092(4) 0.29048(19)
H4_14 H 0.3698 0.5168 0.2777
C11_14 C 0.4116(4) 0.5085(4) 0.32858(19)
C12_14 C 0.4704(3) 0.4981(4) 0.34825(19)
H5_14 H 0.4697 0.4981 0.3745
C13_14 C 0.5309(3) 0.4874(4) 0.32936(19)
C14_14 C 0.5310(4) 0.4882(4) 0.2905(2)
H6_14 H 0.5726 0.4812 0.2776
C15_14 C 0.5968(4) 0.4796(4) 0.3486(2)
C16_14 C 0.3449(4) 0.5201(4) 0.34757(19)
C9_15 C 0.2510(4) 0.7210(3) 0.02035(19)
C10_15 C 0.2408(4) 0.6614(4) 0.04048(19)
H4_15 H 0.2332 0.6198 0.0277
C11_15 C 0.2415(4) 0.6616(4) 0.07858(19)
C12_15 C 0.2519(4) 0.7204(3) 0.09825(19)
H5_15 H 0.2519 0.7197 0.1245
C13_15 C 0.2626(4) 0.7809(3) 0.07936(19)
C14_15 C 0.2618(4) 0.7810(4) 0.0405(2)
H6_15 H 0.2688 0.8226 0.0276
C15_15 C 0.2704(4) 0.8468(4) 0.0986(2)
C16_15 C 0.2299(4) 0.5949(4) 0.09757(19)
C1_15 C 0.2490(4) 0.7210(3) 0.97965(19)
C2_15 C 0.2592(4) 0.6614(4) 0.95952(19)
H1_15 H 0.2668 0.6198 0.9723
C3_15 C 0.2585(4) 0.6616(4) 0.92142(19)
C4_15 C 0.2481(4) 0.7204(3) 0.90175(19)
H2_15 H 0.2481 0.7197 0.8755
C5_15 C 0.2374(4) 0.7809(3) 0.92064(19)
C6_15 C 0.2382(4) 0.7810(4) 0.9595(2)
H3_15 H 0.2312 0.8226 0.9724
C7_15 C 0.2296(4) 0.8468(4) 0.9014(2)
C8_15 C 0.2701(4) 0.5949(4) 0.90243(19)
C1_16 C 0.0290(3) 0.4990(4) 0.72965(19)
C2_16 C 0.0886(4) 0.5092(4) 0.70952(19)
H1_16 H 0.1302 0.5168 0.7223
C3_16 C 0.0884(4) 0.5085(4) 0.67142(19)
C4_16 C 0.0296(3) 0.4981(4) 0.65175(19)
H2_16 H 0.0303 0.4981 0.6255
C8_16 C 0.1551(4) 0.5201(4) 0.65243(19)
C9_16 C 0.0290(3) 0.5010(4) 0.77035(19)
C10_16 C 0.0886(4) 0.4908(4) 0.79048(19)
H4_16 H 0.1302 0.4832 0.7777
C11_16 C 0.0884(4) 0.4915(4) 0.82858(19)
C12_16 C 0.0296(3) 0.5019(4) 0.84825(19)
H5_16 H 0.0303 0.5019 0.8745
C16_16 C 0.1551(4) 0.4799(4) 0.84757(19)
C5_16 C 0.9691(3) 0.4874(4) 0.67064(19)
C6_16 C 0.9690(4) 0.4882(4) 0.7095(2)
H3_16 H 0.9274 0.4812 0.7224
C7_16 C 0.9032(4) 0.4796(4) 0.6514(2)
C13_16 C 0.9691(3) 0.5126(4) 0.82936(19)
C14_16 C 0.9690(4) 0.5118(4) 0.7905(2)
H6_16 H 0.9274 0.5188 0.7776
C15_16 C 0.9032(4) 0.5204(4) 0.8486(2)
loop_
_geom_bond_atom_site_label_1
_geom_bond_atom_site_label_2
_geom_bond_site_symmetry_1
_geom_bond_site_symmetry_2
In1 O1 1_555 1_555
O1 C7 1_555 1_555
O2 In1 1_555 1_555
O3 C8 1_555 1_555
O4 C8 1_555 1_555
C1 C2 1_555 1_555
C2 H1 1_555 1_555
C3 C2 1_555 1_555
C4 C3 1_555 1_555
H2 C4 1_555 1_555
C5 C4 1_555 1_555
C6 C1 1_555 1_555
H3 C6 1_555 1_555
C7 O2 1_555 1_555
C8 C3 1_555 1_555
O6 In1 1_555 1_555
O8 In1 1_555 1_555
O10 In1 1_555 1_555
O11 In1 1_555 1_555
O13 In1 1_555 1_555
O14 In1 1_555 1_555
C5 C6 1_555 1_555
C5 C7 1_555 1_555
In2 O5 1_555 1_555
O5 C15 1_555 1_555
O7 In2 1_555 1_555
O9 C16 1_555 1_555
C10 C9 1_555 1_555
H4 C10 1_555 1_555
C11 C10 1_555 1_555
C12 C11 1_555 1_555
H5 C12 1_555 1_555
C13 C12 1_555 1_555
C14 C9 1_555 1_555
H6 C14 1_555 1_555
C15 O7 1_555 1_555
C16 O12 1_555 1_555
C11 C16 1_555 1_555
C13 C14 1_555 1_555
C13 C15 1_555 1_555
O3_2 C8_2 1_555 1_555
O4_2 C8_2 1_555 1_555
C2_2 H1_2 1_555 1_555
C3_2 C2_2 1_555 1_555
C8_2 C3_2 1_555 1_555
In3_2 O3_2 1_555 1_555
H5_2 C12_2 1_555 1_555
O4_2 In3_2 1_555 1_555
H2_2 C4_2 1_555 1_555
In3 O9_2 1_555 1_555
O9_2 C16_2 1_555 1_555
O12_2 In3 1_555 1_555
H4_2 C10_2 1_555 1_555
C11_2 C10_2 1_555 1_555
C16_2 O12_2 1_555 1_555
C11_2 C16_2 1_555 1_555
In2_2 O5_2 1_555 1_555
O5_2 C15_2 1_555 1_555
O7_2 In2_2 1_555 1_555
H6_2 C14_2 1_555 1_555
C15_2 O7_2 1_555 1_555
C13_2 C14_2 1_555 1_555
C13_2 C15_2 1_555 1_555
In1_2 O1_2 1_555 1_555
O1_2 C7_2 1_555 1_555
O2_2 In1_2 1_555 1_555
H3_2 C6_2 1_555 1_555
C7_2 O2_2 1_555 1_555
O6_2 In1_2 1_555 1_555
O8_2 In1_2 1_555 1_555
O11_2 In1_2 1_555 1_555
O14_2 In1_2 1_555 1_555
C5_2 C6_2 1_555 1_555
C5_2 C7_2 1_555 1_555
In1_3 O1_3 1_555 1_555
O1_3 C7_3 1_555 1_555
O2_3 In1_3 1_555 1_555
O3_3 C8_3 1_555 1_555
O4_3 C8_3 1_555 1_555
C1_3 C2_3 1_555 1_555
C2_3 H1_3 1_555 1_555
C3_3 C2_3 1_555 1_555
C4_3 C3_3 1_555 1_555
H2_3 C4_3 1_555 1_555
C5_3 C4_3 1_555 1_555
C6_3 C1_3 1_555 1_555
H3_3 C6_3 1_555 1_555
C7_3 O2_3 1_555 1_555
C8_3 C3_3 1_555 1_555
In2_3 O5_3 1_555 1_555
O5_3 C15_3 1_555 1_555
O6_3 In1_3 1_555 1_555
O7_3 In2_3 1_555 1_555
O8_3 In1_3 1_555 1_555
O9_3 C16_3 1_555 1_555
O10_3 In1_3 1_555 1_555
O11_3 In1_3 1_555 1_555
O13_3 In1_3 1_555 1_555
O14_3 In1_3 1_555 1_555
C9_3 C1_3 1_555 1_555
C10_3 C9_3 1_555 1_555
H4_3 C10_3 1_555 1_555
C11_3 C10_3 1_555 1_555
C12_3 C11_3 1_555 1_555
H5_3 C12_3 1_555 1_555
C13_3 C12_3 1_555 1_555
C14_3 C9_3 1_555 1_555
H6_3 C14_3 1_555 1_555
C15_3 O7_3 1_555 1_555
C16_3 O12_3 1_555 1_555
C5_3 C6_3 1_555 1_555
C5_3 C7_3 1_555 1_555
C11_3 C16_3 1_555 1_555
C13_3 C14_3 1_555 1_555
C13_3 C15_3 1_555 1_555
In1_4 O1_4 1_555 1_555
O1_4 C7_4 1_555 1_555
O2_4 In1_4 1_555 1_555
H2_4 C4_4 1_555 1_555
C5_4 C4_4 1_555 1_555
C6_4 C1_4 1_555 1_555
H3_4 C6_4 1_555 1_555
C7_4 O2_4 1_555 1_555
In3_3 O9_4 1_555 1_555
O6_4 In1_4 1_555 1_555
O8_4 In1_4 1_555 1_555
O9_4 C16_4 1_555 1_555
O11_4 In1_4 1_555 1_555
O12_4 In3_3 1_555 1_555
O14_4 In1_4 1_555 1_555
H4_4 C10_4 1_555 1_555
C11_4 C10_4 1_555 1_555
C16_4 O12_4 1_555 1_555
C5_4 C6_4 1_555 1_555
C5_4 C7_4 1_555 1_555
C11_4 C16_4 1_555 1_555
O3_4 C8_4 1_555 1_555
O4_4 C8_4 1_555 1_555
C2_4 H1_4 1_555 1_555
C3_4 C2_4 1_555 1_555
C8_4 C3_4 1_555 1_555
In2_4 O5_4 1_555 1_555
In4 O3_4 1_555 1_555
O5_4 C15_4 1_555 1_555
O7_4 In2_4 1_555 1_555
H5_4 C12_4 1_555 1_555
C13_4 C12_4 1_555 1_555
C14_4 C9_4 1_555 1_555
H6_4 C14_4 1_555 1_555
C15_4 O7_4 1_555 1_555
O4_4 In4 1_555 1_555
C13_4 C14_4 1_555 1_555
C13_4 C15_4 1_555 1_555
O6_5 In2_3 1_555 1_555
O8_5 In2_3 1_555 1_555
O10_5 In2_3 1_555 1_555
O11_5 In2_3 1_555 1_555
O13_5 In2_3 1_555 1_555
O14_5 In2_3 1_555 1_555
O6_6 In2_4 1_555 1_555
O8_6 In2_4 1_555 1_555
O11_6 In2_4 1_555 1_555
O14_6 In2_4 1_555 1_555
O6_7 In2 1_555 1_555
O8_7 In2 1_555 1_555
O10_7 In2 1_555 1_555
O11_7 In2 1_555 1_555
O13_7 In2 1_555 1_555
O14_7 In2 1_555 1_555
O6_8 In2_2 1_555 1_555
O8_8 In2_2 1_555 1_555
O11_8 In2_2 1_555 1_555
O14_8 In2_2 1_555 1_555
O6_6 C7_5 1_555 1_555
O3_5 C8_5 1_555 1_555
O4_5 C8_5 1_555 1_555
C1_5 C2_5 1_555 1_555
C2_5 H1_5 1_555 1_555
C3_5 C2_5 1_555 1_555
C4_5 C3_5 1_555 1_555
H2_5 C4_5 1_555 1_555
C5_5 C4_5 1_555 1_555
C6_5 C1_5 1_555 1_555
H3_5 C6_5 1_555 1_555
C7_5 O8_6 1_555 1_555
C8_5 C3_5 1_555 1_555
In3_4 O3_5 1_555 1_555
In4_2 O9_5 1_555 1_555
O6_2 C15_5 1_555 1_555
O9_5 C16_5 1_555 1_555
O12_5 In4_2 1_555 1_555
C9_5 C1_5 1_555 1_555
C10_5 C9_5 1_555 1_555
H4_5 C10_5 1_555 1_555
C11_5 C10_5 1_555 1_555
C12_5 C11_5 1_555 1_555
H5_5 C12_5 1_555 1_555
C13_5 C12_5 1_555 1_555
C14_5 C9_5 1_555 1_555
H6_5 C14_5 1_555 1_555
C15_5 O8_2 1_555 1_555
C16_5 O12_5 1_555 1_555
O4_5 In3_4 1_555 1_555
C5_5 C6_5 1_555 1_555
C5_5 C7_5 1_555 1_555
C11_5 C16_5 1_555 1_555
C13_5 C14_5 1_555 1_555
C13_5 C15_5 1_555 1_555
O6_7 C7_6 1_555 1_555
O3_6 C8_6 1_555 1_555
O4_6 C8_6 1_555 1_555
C1_6 C2_6 1_555 1_555
C2_6 H1_6 1_555 1_555
C3_6 C2_6 1_555 1_555
C4_6 C3_6 1_555 1_555
H2_6 C4_6 1_555 1_555
C5_6 C4_6 1_555 1_555
C6_6 C1_6 1_555 1_555
H3_6 C6_6 1_555 1_555
C7_6 O8_7 1_555 1_555
C8_6 C3_6 1_555 1_555
In3_5 O3_6 1_555 1_555
In3_4 O9_6 1_555 1_555
O6_3 C15_6 1_555 1_555
O9_6 C16_6 1_555 1_555
O12_6 In3_4 1_555 1_555
C9_6 C1_6 1_555 1_555
C10_6 C9_6 1_555 1_555
H4_6 C10_6 1_555 1_555
C11_6 C10_6 1_555 1_555
C12_6 C11_6 1_555 1_555
H5_6 C12_6 1_555 1_555
C13_6 C12_6 1_555 1_555
C14_6 C9_6 1_555 1_555
H6_6 C14_6 1_555 1_555
C15_6 O8_3 1_555 1_555
C16_6 O12_6 1_555 1_555
O4_6 In3_5 1_555 1_555
C5_6 C6_6 1_555 1_555
C5_6 C7_6 1_555 1_555
C11_6 C16_6 1_555 1_555
C13_6 C14_6 1_555 1_555
C13_6 C15_6 1_555 1_555
O6_8 C7_7 1_555 1_555
O3_7 C8_7 1_555 1_555
O4_7 C8_7 1_555 1_555
C1_7 C2_7 1_555 1_555
C2_7 H1_7 1_555 1_555
C3_7 C2_7 1_555 1_555
C4_7 C3_7 1_555 1_555
H2_7 C4_7 1_555 1_555
C5_7 C4_7 1_555 1_555
C6_7 C1_7 1_555 1_555
H3_7 C6_7 1_555 1_555
C7_7 O8_8 1_555 1_555
C8_7 C3_7 1_555 1_555
In3_6 O3_7 1_555 1_555
O4_7 In3_6 1_555 1_555
C5_7 C6_7 1_555 1_555
C5_7 C7_7 1_555 1_555
In3_5 O9_7 1_555 1_555
O6_4 C15_7 1_555 1_555
O9_7 C16_7 1_555 1_555
O12_7 In3_5 1_555 1_555
C10_7 C9_7 1_555 1_555
H4_7 C10_7 1_555 1_555
C11_7 C10_7 1_555 1_555
C12_7 C11_7 1_555 1_555
H5_7 C12_7 1_555 1_555
C13_7 C12_7 1_555 1_555
C14_7 C9_7 1_555 1_555
H6_7 C14_7 1_555 1_555
C15_7 O8_4 1_555 1_555
C16_7 O12_7 1_555 1_555
C11_7 C16_7 1_555 1_555
C13_7 C14_7 1_555 1_555
C13_7 C15_7 1_555 1_555
O6_5 C7_8 1_555 1_555
H3_8 C6_8 1_555 1_555
C7_8 O8_5 1_555 1_555
O6 C15_8 1_555 1_555
H6_8 C14_8 1_555 1_555
C15_8 O8 1_555 1_555
C5_8 C6_8 1_555 1_555
C5_8 C7_8 1_555 1_555
C13_8 C14_8 1_555 1_555
C13_8 C15_8 1_555 1_555
O3_8 C8_8 1_555 1_555
O4_8 C8_8 1_555 1_555
C1_8 C2_8 1_555 1_555
C2_8 H1_8 1_555 1_555
C3_8 C2_8 1_555 1_555
C4_8 C3_8 1_555 1_555
H2_8 C4_8 1_555 1_555
C8_8 C3_8 1_555 1_555
In4_2 O3_8 1_555 1_555
In3_6 O9_8 1_555 1_555
O9_8 C16_8 1_555 1_555
O12_8 In3_6 1_555 1_555
C9_8 C1_8 1_555 1_555
C10_8 C9_8 1_555 1_555
H4_8 C10_8 1_555 1_555
C11_8 C10_8 1_555 1_555
C12_8 C11_8 1_555 1_555
H5_8 C12_8 1_555 1_555
C16_8 O12_8 1_555 1_555
O4_8 In4_2 1_555 1_555
C11_8 C16_8 1_555 1_555
In3_6 O5_5 1_555 1_555
O5_5 C15_9 1_555 1_555
O7_5 In3_6 1_555 1_555
O10_8 C16_9 1_555 1_555
C10_9 C9_9 1_555 1_555
H4_9 C10_9 1_555 1_555
C11_9 C10_9 1_555 1_555
C12_9 C11_9 1_555 1_555
H5_9 C12_9 1_555 1_555
C13_9 C12_9 1_555 1_555
C14_9 C9_9 1_555 1_555
H6_9 C14_9 1_555 1_555
C15_9 O7_5 1_555 1_555
C16_9 O13_8 1_555 1_555
C11_9 C16_9 1_555 1_555
C13_9 C14_9 1_555 1_555
C13_9 C15_9 1_555 1_555
In3_5 O1_5 1_555 1_555
O1_5 C7_9 1_555 1_555
O2_5 In3_5 1_555 1_555
O10_4 C8_9 1_555 1_555
O13_4 C8_9 1_555 1_555
C1_9 C2_9 1_555 1_555
C2_9 H1_9 1_555 1_555
C3_9 C2_9 1_555 1_555
C4_9 C3_9 1_555 1_555
H2_9 C4_9 1_555 1_555
C5_9 C4_9 1_555 1_555
C6_9 C1_9 1_555 1_555
H3_9 C6_9 1_555 1_555
C7_9 O2_5 1_555 1_555
C8_9 C3_9 1_555 1_555
O6_9 In3_5 1_555 1_555
O8_9 In3_5 1_555 1_555
C5_9 C6_9 1_555 1_555
C5_9 C7_9 1_555 1_555
In3_3 O1_6 1_555 1_555
O1_6 C7_10 1_555 1_555
O2_6 In3_3 1_555 1_555
H3_10 C6_10 1_555 1_555
C7_10 O2_6 1_555 1_555
O6_10 In3_3 1_555 1_555
O8_10 In3_3 1_555 1_555
C5_10 C6_10 1_555 1_555
C5_10 C7_10 1_555 1_555
In4 O5_6 1_555 1_555
O5_6 C15_10 1_555 1_555
O7_6 In4 1_555 1_555
H6_10 C14_10 1_555 1_555
C15_10 O7_6 1_555 1_555
C13_10 C14_10 1_555 1_555
C13_10 C15_10 1_555 1_555
H2_10 C4_10 1_555 1_555
O11_4 C16_10 1_555 1_555
H4_10 C10_10 1_555 1_555
C11_10 C10_10 1_555 1_555
C16_10 O14_4 1_555 1_555
C11_10 C16_10 1_555 1_555
O11_6 C8_10 1_555 1_555
O14_6 C8_10 1_555 1_555
C2_10 H1_10 1_555 1_555
C3_10 C2_10 1_555 1_555
C8_10 C3_10 1_555 1_555
H5_10 C12_10 1_555 1_555
In4_2 O1_7 1_555 1_555
O1_7 C7_11 1_555 1_555
O2_7 In4_2 1_555 1_555
O10_2 C8_11 1_555 1_555
O13_2 C8_11 1_555 1_555
C1_11 C2_11 1_555 1_555
C2_11 H1_11 1_555 1_555
C3_11 C2_11 1_555 1_555
C4_11 C3_11 1_555 1_555
H2_11 C4_11 1_555 1_555
C5_11 C4_11 1_555 1_555
C6_11 C1_11 1_555 1_555
H3_11 C6_11 1_555 1_555
C7_11 O2_7 1_555 1_555
C8_11 C3_11 1_555 1_555
In3_4 O5_7 1_555 1_555
O5_7 C15_11 1_555 1_555
O6_11 In4_2 1_555 1_555
O7_7 In3_4 1_555 1_555
O8_11 In4_2 1_555 1_555
O10_6 C16_11 1_555 1_555
C9_11 C1_11 1_555 1_555
C10_11 C9_11 1_555 1_555
H4_11 C10_11 1_555 1_555
C11_11 C10_11 1_555 1_555
C12_11 C11_11 1_555 1_555
H5_11 C12_11 1_555 1_555
C13_11 C12_11 1_555 1_555
C14_11 C9_11 1_555 1_555
H6_11 C14_11 1_555 1_555
C15_11 O7_7 1_555 1_555
C16_11 O13_6 1_555 1_555
C5_11 C6_11 1_555 1_555
C5_11 C7_11 1_555 1_555
C11_11 C16_11 1_555 1_555
C13_11 C14_11 1_555 1_555
C13_11 C15_11 1_555 1_555
O11_8 C8_12 1_555 1_555
O14_8 C8_12 1_555 1_555
C2_12 H1_12 1_555 1_555
C3_12 C2_12 1_555 1_555
C8_12 C3_12 1_555 1_555
In3_2 O5_8 1_555 1_555
O5_8 C15_12 1_555 1_555
O7_8 In3_2 1_555 1_555
H5_12 C12_12 1_555 1_555
C13_12 C12_12 1_555 1_555
C14_12 C9_12 1_555 1_555
H6_12 C14_12 1_555 1_555
C15_12 O7_8 1_555 1_555
C13_12 C14_12 1_555 1_555
C13_12 C15_12 1_555 1_555
In3 O1_8 1_555 1_555
O1_8 C7_12 1_555 1_555
O2_8 In3 1_555 1_555
H2_12 C4_12 1_555 1_555
C5_12 C4_12 1_555 1_555
C6_12 C1_12 1_555 1_555
H3_12 C6_12 1_555 1_555
C7_12 O2_8 1_555 1_555
O6_12 In3 1_555 1_555
O8_12 In3 1_555 1_555
O11_2 C16_12 1_555 1_555
H4_12 C10_12 1_555 1_555
C11_12 C10_12 1_555 1_555
C16_12 O14_2 1_555 1_555
C5_12 C6_12 1_555 1_555
C5_12 C7_12 1_555 1_555
C11_12 C16_12 1_555 1_555
O6_13 In3_4 1_555 1_555
O8_13 In3_4 1_555 1_555
O6_14 In3_2 1_555 1_555
O8_14 In3_2 1_555 1_555
O6_15 In3_6 1_555 1_555
O8_15 In3_6 1_555 1_555
O6_16 In4 1_555 1_555
O8_16 In4 1_555 1_555
O6_14 C7_13 1_555 1_555
O11_5 C8_13 1_555 1_555
O14_5 C8_13 1_555 1_555
C1_13 C2_13 1_555 1_555
C2_13 H1_13 1_555 1_555
C3_13 C2_13 1_555 1_555
C4_13 C3_13 1_555 1_555
H2_13 C4_13 1_555 1_555
C5_13 C4_13 1_555 1_555
C6_13 C1_13 1_555 1_555
H3_13 C6_13 1_555 1_555
C7_13 O8_14 1_555 1_555
C8_13 C3_13 1_555 1_555
O6_10 C15_13 1_555 1_555
O11_3 C16_13 1_555 1_555
C9_13 C1_13 1_555 1_555
C10_13 C9_13 1_555 1_555
H4_13 C10_13 1_555 1_555
C11_13 C10_13 1_555 1_555
C12_13 C11_13 1_555 1_555
H5_13 C12_13 1_555 1_555
C13_13 C12_13 1_555 1_555
C14_13 C9_13 1_555 1_555
H6_13 C14_13 1_555 1_555
C15_13 O8_10 1_555 1_555
C16_13 O14_3 1_555 1_555
C5_13 C6_13 1_555 1_555
C5_13 C7_13 1_555 1_555
C11_13 C16_13 1_555 1_555
C13_13 C14_13 1_555 1_555
C13_13 C15_13 1_555 1_555
O6_15 C7_14 1_555 1_555
O10 C8_14 1_555 1_555
O13 C8_14 1_555 1_555
C1_14 C2_14 1_555 1_555
C2_14 H1_14 1_555 1_555
C3_14 C2_14 1_555 1_555
C4_14 C3_14 1_555 1_555
H2_14 C4_14 1_555 1_555
C5_14 C4_14 1_555 1_555
C6_14 C1_14 1_555 1_555
H3_14 C6_14 1_555 1_555
C7_14 O8_15 1_555 1_555
C8_14 C3_14 1_555 1_555
O6_11 C15_14 1_555 1_555
O10_5 C16_14 1_555 1_555
C9_14 C1_14 1_555 1_555
C10_14 C9_14 1_555 1_555
H4_14 C10_14 1_555 1_555
C11_14 C10_14 1_555 1_555
C12_14 C11_14 1_555 1_555
H5_14 C12_14 1_555 1_555
C13_14 C12_14 1_555 1_555
C14_14 C9_14 1_555 1_555
H6_14 C14_14 1_555 1_555
C15_14 O8_11 1_555 1_555
C16_14 O13_5 1_555 1_555
C5_14 C6_14 1_555 1_555
C5_14 C7_14 1_555 1_555
C11_14 C16_14 1_555 1_555
C13_14 C14_14 1_555 1_555
C13_14 C15_14 1_555 1_555
O6_12 C15_15 1_555 1_555
O11 C16_15 1_555 1_555
C10_15 C9_15 1_555 1_555
H4_15 C10_15 1_555 1_555
C11_15 C10_15 1_555 1_555
C12_15 C11_15 1_555 1_555
H5_15 C12_15 1_555 1_555
C13_15 C12_15 1_555 1_555
C14_15 C9_15 1_555 1_555
H6_15 C14_15 1_555 1_555
C15_15 O8_12 1_555 1_555
C16_15 O14 1_555 1_555
C11_15 C16_15 1_555 1_555
C13_15 C14_15 1_555 1_555
C13_15 C15_15 1_555 1_555
O6_16 C7_15 1_555 1_555
O11_7 C8_15 1_555 1_555
O14_7 C8_15 1_555 1_555
C1_15 C2_15 1_555 1_555
C2_15 H1_15 1_555 1_555
C3_15 C2_15 1_555 1_555
C4_15 C3_15 1_555 1_555
H2_15 C4_15 1_555 1_555
C5_15 C4_15 1_555 1_555
C6_15 C1_15 1_555 1_555
H3_15 C6_15 1_555 1_555
C7_15 O8_16 1_555 1_555
C8_15 C3_15 1_555 1_555
C5_15 C6_15 1_555 1_555
C5_15 C7_15 1_555 1_555
O10_3 C8_16 1_555 1_555
O13_3 C8_16 1_555 1_555
C1_16 C2_16 1_555 1_555
C2_16 H1_16 1_555 1_555
C3_16 C2_16 1_555 1_555
C4_16 C3_16 1_555 1_555
H2_16 C4_16 1_555 1_555
C8_16 C3_16 1_555 1_555
O10_7 C16_16 1_555 1_555
C9_16 C1_16 1_555 1_555
C10_16 C9_16 1_555 1_555
H4_16 C10_16 1_555 1_555
C11_16 C10_16 1_555 1_555
C12_16 C11_16 1_555 1_555
H5_16 C12_16 1_555 1_555
C16_16 O13_7 1_555 1_555
C11_16 C16_16 1_555 1_555
O6_13 C7_16 1_555 1_555
H3_16 C6_16 1_555 1_555
C7_16 O8_13 1_555 1_555
O6_9 C15_16 1_555 1_555
H6_16 C14_16 1_555 1_555
C15_16 O8_9 1_555 1_555
C5_16 C6_16 1_555 1_555
C5_16 C7_16 1_555 1_555
C13_16 C14_16 1_555 1_555
C13_16 C15_16 1_555 1_555

#END
