
###############################################################################
#
# This file contains modified crystal structure data generated from the
# MOF subset of the Cambridge Structural Database (CSD) v543 
# hosted by the Cambridge Crystallographic Data Centre (CCDC).
#
# This work is licensed under the Creative Commons
# Attribution-NonCommercial-ShareAlike 4.0 International License.
# To view a copy of this license, visit
# http://creativecommons.org/licenses/by-nc-sa/4.0/
# or send a letter to
# Creative Commons, PO Box 1866, Mountain View, CA 94042, USA.
#
# CIF created using the CSD Python API on 29 September 2022
# The structure has been converted into the P1 space group
# The structure has a 3D framework
# The original CSD entry TONPOD is in the monoclinic crystal system
# The framework has been calculated to contain at least 10.0% void space
# The void calculation uses a probe of radius 1.32A, grid spacing 0.4
#
###############################################################################

data_TONPOD
_chemical_formula_moiety         '(C104 H56 Co4 F24 N8 O16 S4)n'
_symmetry_cell_setting           triclinic
_symmetry_space_group_name_H-M   'P 1'
_symmetry_Int_Tables_number      1
_space_group_name_Hall           'P 1'
loop_
_symmetry_equiv_pos_site_id
_symmetry_equiv_pos_as_xyz
1 x,y,z
_cell_length_a                   16.3754(8)
_cell_length_b                   7.4218(4)
_cell_length_c                   23.9485(10)
_cell_angle_alpha                90
_cell_angle_beta                 116.683(3)
_cell_angle_gamma                90
_cell_volume                     2600.62
loop_
_atom_site_label
_atom_site_type_symbol
_atom_site_fract_x
_atom_site_fract_y
_atom_site_fract_z
S1 S -0.0000 0.60350(10) 0.7500
N4 N 0.21800(10) 0.0069(2) 0.91023(7)
H17 H 0.3390 0.0018 0.9072
C30 C 0.16812(13) 0.1550(3) 0.87079(10)
C31 C 0.19791(15) 0.3290(3) 0.89021(10)
H18 H 0.2504 0.3482 0.9274
C32 C 0.15034(15) 0.4724(3) 0.85477(10)
H19 H 0.1704 0.5897 0.8670
C33 C 0.07135(14) 0.4391(3) 0.80009(9)
C34 C 0.04149(12) 0.2645(3) 0.77952(9)
C35 C 0.09148(12) 0.1200(3) 0.81587(9)
H20 H 0.0734 0.0020 0.8032
H15 H 0.2531 0.6888 0.0001
Co8 Co 0.558471(15) 0.34364(3) 0.015713(11)
O10 O 0.52326(10) 0.7255(2) 0.07357(6)
O11 O 0.39085(10) 0.4440(2) 0.01930(7)
F1 F 0.08856(10) 0.0086(2) 0.19144(8)
F2 F 0.17356(10) 0.2248(2) 0.19107(7)
F3 F 0.05636(10) 0.1506(2) 0.10664(8)
O4 O 0.48291(10) 0.2044(2) 0.04836(7)
H2 H 0.3321 0.0655 0.2420
C9 C 0.12616(15) 0.0851(4) 0.15821(11)
C11 C 0.24483(13) 0.0446(3) 0.11699(9)
C12 C 0.22266(16) 0.2114(3) 0.08792(13)
H5 H 0.1706 0.2713 0.0843
C13 C 0.27709(17) 0.2889(3) 0.06436(13)
H6 H 0.2620 0.4020 0.0458
C14 C 0.35365(13) 0.2019(3) 0.06771(9)
C15 C 0.37388(13) 0.0328(3) 0.09460(9)
C17 C 0.41392(14) 0.2899(3) 0.04348(9)
N3 N 0.67357(10) 0.1896(2) 0.03961(7)
C27 C 0.74506(13) 0.2208(3) 0.02621(10)
C28 C 0.81241(14) 0.1013(3) 0.05662(10)
H16 H 0.8683 0.0938 0.0554
C29 C 0.69774(13) 0.0509(3) 0.07695(9)
F10 F 0.94287(9) 0.7499(2) 0.39445(7)
F11 F 0.83019(11) 0.68045(19) 0.41308(7)
F12 F 0.91880(10) 0.8963(2) 0.46260(6)
O5 O 0.61304(9) 0.48227(18) 0.09907(6)
C36 C 0.58916(13) 0.6321(3) 0.11130(9)
C37 C 0.64486(13) 0.7078(3) 0.17534(9)
C38 C 0.62767(14) 0.8789(3) 0.19040(10)
H21 H 0.5797 0.9461 0.1610
C39 C 0.68097(14) 0.9507(3) 0.24869(9)
C40 C 0.75350(14) 0.8558(3) 0.29362(9)
C41 C 0.77075(15) 0.6829(3) 0.27840(10)
H23 H 0.8189 0.6156 0.3076
C42 C 0.71636(15) 0.6119(3) 0.22008(10)
H24 H 0.7283 0.4962 0.2107
C43 C 0.81397(13) 0.9500(3) 0.35602(9)
C45 C 0.87694(15) 0.8198(3) 0.40643(11)
H27 H 0.5762 0.9698 0.4040
C51 C 0.67961(14) 0.9567(3) 0.38053(10)
H28 H 0.6642 0.8439 0.3618
N3_2 N 0.32643(10) 0.8104(2) 0.96039(7)
C27_2 C 0.25494(13) 0.7792(3) 0.97379(10)
C28_2 C 0.18759(14) 0.8987(3) 0.94338(10)
H16_2 H 0.1317 0.9062 0.9446
C29_2 C 0.30226(13) 0.9491(3) 0.92305(9)
Co2 Co 0.441529(15) 0.65636(3) 0.984287(11)
F10_2 F 0.05713(9) 0.2501(2) 0.60555(7)
F11_2 F 0.16981(11) 0.31955(19) 0.58692(7)
F12_2 F 0.08120(10) 0.1037(2) 0.53740(6)
O5_2 O 0.38696(9) 0.51773(18) 0.90093(6)
O6 O 0.47674(10) 0.2745(2) 0.92643(6)
C36_2 C 0.41084(13) 0.3679(3) 0.88870(9)
C37_2 C 0.35514(13) 0.2922(3) 0.82466(9)
C38_2 C 0.37233(14) 0.1211(3) 0.80960(10)
H21_2 H 0.4203 0.0539 0.8390
C39_2 C 0.31903(14) 0.0493(3) 0.75131(9)
C40_2 C 0.24650(14) 0.1442(3) 0.70638(9)
C41_2 C 0.22925(15) 0.3171(3) 0.72160(10)
H23_2 H 0.1811 0.3844 0.6924
C42_2 C 0.28364(15) 0.3881(3) 0.77992(10)
H24_2 H 0.2717 0.5038 0.7893
C43_2 C 0.18603(13) 0.0500(3) 0.64398(9)
C45_2 C 0.12306(15) 0.1802(3) 0.59357(11)
H27_2 H 0.4238 0.0302 0.5960
C51_2 C 0.32039(14) 0.0433(3) 0.61947(10)
H28_2 H 0.3358 0.1561 0.6382
O13 O 0.51709(10) 0.7956(2) 0.95164(7)
F1_2 F 0.91144(10) 0.9914(2) 0.80856(8)
F2_2 F 0.82644(10) 0.7752(2) 0.80893(7)
F3_2 F 0.94364(10) 0.8494(2) 0.89336(8)
O3 O 0.60915(10) 0.5560(2) 0.98070(7)
H2_2 H 0.6679 0.9345 0.7580
C9_2 C 0.87384(15) 0.9149(4) 0.84179(11)
C11_2 C 0.75517(13) 0.9554(3) 0.88301(9)
C12_2 C 0.77734(16) 0.7886(3) 0.91208(13)
H5_2 H 0.8294 0.7287 0.9157
C13_2 C 0.72291(17) 0.7111(3) 0.93564(13)
H6_2 H 0.7380 0.5980 0.9542
C14_2 C 0.64635(13) 0.7981(3) 0.93229(9)
C15_2 C 0.62612(13) 0.9672(3) 0.90540(9)
C17_2 C 0.58608(14) 0.7101(3) 0.95652(9)
H15_2 H 0.7469 0.3112 0.9999
F7 F 0.08856(10) 0.9914(2) 0.69144(8)
F8 F 0.17356(10) 0.7752(2) 0.69107(7)
F9 F 0.05636(10) 0.8494(2) 0.60664(8)
O7 O 0.39085(10) 0.5560(2) 0.51930(7)
O8 O 0.48291(10) 0.7956(2) 0.54836(7)
H22 H 0.3321 0.9345 0.7420
C44 C 0.12616(15) 0.9149(4) 0.65821(11)
C46 C 0.24483(13) 0.9554(3) 0.61699(9)
C47 C 0.22266(16) 0.7886(3) 0.58792(13)
H25 H 0.1706 0.7287 0.5843
C48 C 0.27709(17) 0.7111(3) 0.56436(13)
H26 H 0.2620 0.5980 0.5458
C49 C 0.35365(13) 0.7981(3) 0.56771(9)
C50 C 0.37388(13) 0.9672(3) 0.59460(9)
C52 C 0.41392(14) 0.7101(3) 0.54348(9)
Co3 Co 0.558471(15) 0.65636(3) 0.515713(11)
Co6 Co 0.441529(15) 0.34364(3) 0.484287(11)
F4 F 0.94287(9) 0.2501(2) 0.89445(7)
F5 F 0.83019(11) 0.31955(19) 0.91308(7)
F6 F 0.91880(10) 0.1037(2) 0.96260(6)
O1 O 0.61304(9) 0.51773(18) 0.59907(6)
O2 O 0.52326(10) 0.2745(2) 0.57357(6)
N1 N 0.67357(10) 0.8104(2) 0.53961(7)
C1 C 0.58916(13) 0.3679(3) 0.61130(9)
C2 C 0.64486(13) 0.2922(3) 0.67534(9)
C3 C 0.62767(14) 0.1211(3) 0.69040(10)
H1 H 0.5797 0.0539 0.6610
C4 C 0.68097(14) 0.0493(3) 0.74869(9)
C5 C 0.75350(14) 0.1442(3) 0.79362(9)
C6 C 0.77075(15) 0.3171(3) 0.77840(10)
H3 H 0.8189 0.3844 0.8076
C7 C 0.71636(15) 0.3881(3) 0.72008(10)
H4 H 0.7283 0.5038 0.7107
C8 C 0.81397(13) 0.0500(3) 0.85602(9)
C10 C 0.87694(15) 0.1802(3) 0.90643(11)
H7 H 0.5762 0.0302 0.9040
C16 C 0.67961(14) 0.0433(3) 0.88053(10)
H8 H 0.6642 0.1561 0.8618
C18 C 0.74506(13) 0.7792(3) 0.52621(10)
H9 H 0.7469 0.6888 0.4999
C19 C 0.81241(14) 0.8987(3) 0.55662(10)
H10 H 0.8683 0.9062 0.5554
C20 C 0.69774(13) 0.9491(3) 0.57695(9)
O9 O 0.47674(10) 0.7255(2) 0.42643(6)
O12 O 0.60915(10) 0.4440(2) 0.48070(7)
F4_2 F 0.05713(9) 0.7499(2) 0.10555(7)
F5_2 F 0.16981(11) 0.68045(19) 0.08692(7)
F6_2 F 0.08120(10) 0.8963(2) 0.03740(6)
O1_2 O 0.38696(9) 0.48227(18) 0.40093(6)
N1_2 N 0.32643(10) 0.1896(2) 0.46039(7)
C1_2 C 0.41084(13) 0.6321(3) 0.38870(9)
C2_2 C 0.35514(13) 0.7078(3) 0.32466(9)
C3_2 C 0.37233(14) 0.8789(3) 0.30960(10)
H1_2 H 0.4203 0.9461 0.3390
C4_2 C 0.31903(14) 0.9507(3) 0.25131(9)
C5_2 C 0.24650(14) 0.8558(3) 0.20638(9)
C6_2 C 0.22925(15) 0.6829(3) 0.22160(10)
H3_2 H 0.1811 0.6156 0.1924
C7_2 C 0.28364(15) 0.6119(3) 0.27992(10)
H4_2 H 0.2717 0.4962 0.2893
C8_2 C 0.18603(13) 0.9500(3) 0.14398(9)
C10_2 C 0.12306(15) 0.8198(3) 0.09357(11)
H7_2 H 0.4238 0.9698 0.0960
C16_2 C 0.32039(14) 0.9567(3) 0.11947(10)
H8_2 H 0.3358 0.8439 0.1382
C18_2 C 0.25494(13) 0.2208(3) 0.47379(10)
H9_2 H 0.2531 0.3112 0.5001
C19_2 C 0.18759(14) 0.1013(3) 0.44338(10)
H10_2 H 0.1317 0.0938 0.4446
C20_2 C 0.30226(13) 0.0509(3) 0.42305(9)
O14 O 0.51709(10) 0.2044(2) 0.45164(7)
F7_2 F 0.91144(10) 0.0086(2) 0.30856(8)
F8_2 F 0.82644(10) 0.2248(2) 0.30893(7)
F9_2 F 0.94364(10) 0.1506(2) 0.39336(8)
H22_2 H 0.6679 0.0655 0.2580
C44_2 C 0.87384(15) 0.0851(4) 0.34179(11)
C46_2 C 0.75517(13) 0.0446(3) 0.38301(9)
C47_2 C 0.77734(16) 0.2114(3) 0.41208(13)
H25_2 H 0.8294 0.2713 0.4157
C48_2 C 0.72291(17) 0.2889(3) 0.43564(13)
H26_2 H 0.7380 0.4020 0.4542
C49_2 C 0.64635(13) 0.2019(3) 0.43229(9)
C50_2 C 0.62612(13) 0.0328(3) 0.40540(9)
C52_2 C 0.58608(14) 0.2899(3) 0.45652(9)
S1_2 S 1.0000 0.60350(10) 0.7500
N2 N 0.78200(10) 0.0069(2) 0.58977(7)
H11 H 0.6610 0.0018 0.5928
C21 C 0.83188(13) 0.1550(3) 0.62921(10)
C22 C 0.80209(15) 0.3290(3) 0.60979(10)
H12 H 0.7496 0.3482 0.5726
C23 C 0.84966(15) 0.4724(3) 0.64523(10)
H13 H 0.8296 0.5897 0.6330
C24 C 0.92865(14) 0.4391(3) 0.69991(9)
C25 C 0.95851(12) 0.2645(3) 0.72048(9)
C26 C 0.90852(12) 0.1200(3) 0.68413(9)
H14 H 0.9266 0.0020 0.6968
S1_3 S 0.0000 0.39650(10) 0.2500
N2_2 N 0.21800(10) 0.9931(2) 0.41023(7)
H11_2 H 0.3390 0.9982 0.4072
C21_2 C 0.16812(13) 0.8450(3) 0.37079(10)
C22_2 C 0.19791(15) 0.6710(3) 0.39021(10)
H12_2 H 0.2504 0.6518 0.4274
C23_2 C 0.15034(15) 0.5276(3) 0.35477(10)
H13_2 H 0.1704 0.4103 0.3670
C24_2 C 0.07135(14) 0.5609(3) 0.30009(9)
C25_2 C 0.04149(12) 0.7355(3) 0.27952(9)
C26_2 C 0.09148(12) 0.8800(3) 0.31587(9)
H14_2 H 0.0734 0.9980 0.3032
S1_4 S 1.0000 0.39650(10) 0.2500
N4_2 N 0.78200(10) 0.9931(2) 0.08977(7)
H17_2 H 0.6610 0.9982 0.0928
C30_2 C 0.83188(13) 0.8450(3) 0.12921(10)
C31_2 C 0.80209(15) 0.6710(3) 0.10979(10)
H18_2 H 0.7496 0.6518 0.0726
C32_2 C 0.84966(15) 0.5276(3) 0.14523(10)
H19_2 H 0.8296 0.4103 0.1330
C33_2 C 0.92865(14) 0.5609(3) 0.19991(9)
C34_2 C 0.95851(12) 0.7355(3) 0.22048(9)
C35_2 C 0.90852(12) 0.8800(3) 0.18413(9)
H20_2 H 0.9266 0.9980 0.1968
loop_
_geom_bond_atom_site_label_1
_geom_bond_atom_site_label_2
_geom_bond_site_symmetry_1
_geom_bond_site_symmetry_2
C30 N4 1_555 1_555
C31 C30 1_555 1_555
H18 C31 1_555 1_555
C32 C31 1_555 1_555
H19 C32 1_555 1_555
C33 S1 1_555 1_555
C35 C30 1_555 1_555
H20 C35 1_555 1_555
C32 C33 1_555 1_555
C33 C34 1_555 1_555
C34 C35 1_555 1_555
F1 C9 1_555 1_555
F2 C9 1_555 1_555
F3 C9 1_555 1_555
O11 C17 1_555 1_555
O4 C17 1_555 1_555
C12 C11 1_555 1_555
H5 C12 1_555 1_555
C13 C12 1_555 1_555
H6 C13 1_555 1_555
C14 C13 1_555 1_555
C15 C14 1_555 1_555
C17 C14 1_555 1_555
Co8 O4 1_555 1_555
N3 C27 1_555 1_555
C28 C27 1_555 1_555
H16 C28 1_555 1_555
C29 N3 1_555 1_555
Co8 N3 1_555 1_555
F10 C45 1_555 1_555
F11 C45 1_555 1_555
F12 C45 1_555 1_555
O5 Co8 1_555 1_555
O10 C36 1_555 1_555
C36 O5 1_555 1_555
C37 C36 1_555 1_555
C38 C37 1_555 1_555
H21 C38 1_555 1_555
C39 C38 1_555 1_555
C40 C39 1_555 1_555
C41 C40 1_555 1_555
H23 C41 1_555 1_555
C42 C37 1_555 1_555
H24 C42 1_555 1_555
C43 C40 1_555 1_555
C45 C43 1_555 1_555
H28 C51 1_555 1_555
C41 C42 1_555 1_555
N3_2 C27_2 1_555 1_555
C28_2 C27_2 1_555 1_555
H16_2 C28_2 1_555 1_555
C29_2 N3_2 1_555 1_555
Co2 N3_2 1_555 1_555
F10_2 C45_2 1_555 1_555
F11_2 C45_2 1_555 1_555
F12_2 C45_2 1_555 1_555
O5_2 Co2 1_555 1_555
O6 C36_2 1_555 1_555
C36_2 O5_2 1_555 1_555
C37_2 C36_2 1_555 1_555
C38_2 C37_2 1_555 1_555
H21_2 C38_2 1_555 1_555
C39_2 C38_2 1_555 1_555
C40_2 C39_2 1_555 1_555
C41_2 C40_2 1_555 1_555
H23_2 C41_2 1_555 1_555
C42_2 C37_2 1_555 1_555
H24_2 C42_2 1_555 1_555
C43_2 C40_2 1_555 1_555
C45_2 C43_2 1_555 1_555
H28_2 C51_2 1_555 1_555
O13 Co2 1_555 1_555
C41_2 C42_2 1_555 1_555
F1_2 C9_2 1_555 1_555
F2_2 C9_2 1_555 1_555
F3_2 C9_2 1_555 1_555
O3 C17_2 1_555 1_555
O13 C17_2 1_555 1_555
C12_2 C11_2 1_555 1_555
H5_2 C12_2 1_555 1_555
C13_2 C12_2 1_555 1_555
H6_2 C13_2 1_555 1_555
C14_2 C13_2 1_555 1_555
C15_2 C14_2 1_555 1_555
C17_2 C14_2 1_555 1_555
F7 C44 1_555 1_555
F8 C44 1_555 1_555
F9 C44 1_555 1_555
O7 C52 1_555 1_555
O8 C52 1_555 1_555
C47 C46 1_555 1_555
H25 C47 1_555 1_555
C48 C47 1_555 1_555
H26 C48 1_555 1_555
C49 C48 1_555 1_555
C50 C49 1_555 1_555
C52 C49 1_555 1_555
Co3 O8 1_555 1_555
Co6 O7 1_555 1_555
Co3 O1 1_555 1_555
F4 C10 1_555 1_555
F5 C10 1_555 1_555
F6 C10 1_555 1_555
O1 C1 1_555 1_555
O2 C1 1_555 1_555
N1 Co3 1_555 1_555
C1 C2 1_555 1_555
C2 C3 1_555 1_555
C3 H1 1_555 1_555
C4 C3 1_555 1_555
C5 C4 1_555 1_555
C6 C5 1_555 1_555
H3 C6 1_555 1_555
C7 C2 1_555 1_555
H4 C7 1_555 1_555
C8 C5 1_555 1_555
C10 C8 1_555 1_555
H8 C16 1_555 1_555
C18 N1 1_555 1_555
H9 C18 1_555 1_555
C19 C18 1_555 1_555
H10 C19 1_555 1_555
C20 N1 1_555 1_555
Co6 O2 1_555 1_555
O9 Co3 1_555 1_555
O12 Co3 1_555 1_555
C6 C7 1_555 1_555
Co6 O1_2 1_555 1_555
F4_2 C10_2 1_555 1_555
F5_2 C10_2 1_555 1_555
F6_2 C10_2 1_555 1_555
O1_2 C1_2 1_555 1_555
O9 C1_2 1_555 1_555
N1_2 Co6 1_555 1_555
C1_2 C2_2 1_555 1_555
C2_2 C3_2 1_555 1_555
C3_2 H1_2 1_555 1_555
C4_2 C3_2 1_555 1_555
C5_2 C4_2 1_555 1_555
C6_2 C5_2 1_555 1_555
H3_2 C6_2 1_555 1_555
C7_2 C2_2 1_555 1_555
H4_2 C7_2 1_555 1_555
C8_2 C5_2 1_555 1_555
C10_2 C8_2 1_555 1_555
H8_2 C16_2 1_555 1_555
C18_2 N1_2 1_555 1_555
H9_2 C18_2 1_555 1_555
C19_2 C18_2 1_555 1_555
H10_2 C19_2 1_555 1_555
C20_2 N1_2 1_555 1_555
O14 Co6 1_555 1_555
C6_2 C7_2 1_555 1_555
F7_2 C44_2 1_555 1_555
F8_2 C44_2 1_555 1_555
F9_2 C44_2 1_555 1_555
O12 C52_2 1_555 1_555
O14 C52_2 1_555 1_555
C47_2 C46_2 1_555 1_555
H25_2 C47_2 1_555 1_555
C48_2 C47_2 1_555 1_555
H26_2 C48_2 1_555 1_555
C49_2 C48_2 1_555 1_555
C50_2 C49_2 1_555 1_555
C52_2 C49_2 1_555 1_555
S1_2 C24 1_555 1_555
C21 N2 1_555 1_555
C22 C21 1_555 1_555
H12 C22 1_555 1_555
C23 C22 1_555 1_555
H13 C23 1_555 1_555
C24 C23 1_555 1_555
C25 C24 1_555 1_555
C26 C21 1_555 1_555
H14 C26 1_555 1_555
C25 C26 1_555 1_555
S1_3 C24_2 1_555 1_555
C21_2 N2_2 1_555 1_555
C22_2 C21_2 1_555 1_555
H12_2 C22_2 1_555 1_555
C23_2 C22_2 1_555 1_555
H13_2 C23_2 1_555 1_555
C24_2 C23_2 1_555 1_555
C25_2 C24_2 1_555 1_555
C26_2 C21_2 1_555 1_555
H14_2 C26_2 1_555 1_555
C25_2 C26_2 1_555 1_555
C30_2 N4_2 1_555 1_555
C31_2 C30_2 1_555 1_555
H18_2 C31_2 1_555 1_555
C32_2 C31_2 1_555 1_555
H19_2 C32_2 1_555 1_555
C33_2 S1_4 1_555 1_555
C35_2 C30_2 1_555 1_555
H20_2 C35_2 1_555 1_555
C32_2 C33_2 1_555 1_555
C33_2 C34_2 1_555 1_555
C34_2 C35_2 1_555 1_555

#END
