
###############################################################################
#
# This file contains modified crystal structure data generated from the
# MOF subset of the Cambridge Structural Database (CSD) v543 
# hosted by the Cambridge Crystallographic Data Centre (CCDC).
#
# This work is licensed under the Creative Commons
# Attribution-NonCommercial-ShareAlike 4.0 International License.
# To view a copy of this license, visit
# http://creativecommons.org/licenses/by-nc-sa/4.0/
# or send a letter to
# Creative Commons, PO Box 1866, Mountain View, CA 94042, USA.
#
# CIF created using the CSD Python API on 29 September 2022
# The structure has been converted into the P1 space group
# The structure has a 3D framework
# The original CSD entry TOPJEQ is in the tetragonal crystal system
# The original CSD entry TOPJEQ is in a Sohncke space group
# The framework has been calculated to contain at least 10.0% void space
# The void calculation uses a probe of radius 1.32A, grid spacing 0.4
#
###############################################################################

data_TOPJEQ
_chemical_formula_moiety         '(C200 H216 Co16 N40 O88)n'
_symmetry_cell_setting           triclinic
_symmetry_space_group_name_H-M   'P 1'
_symmetry_Int_Tables_number      1
_space_group_name_Hall           'P 1'
loop_
_symmetry_equiv_pos_site_id
_symmetry_equiv_pos_as_xyz
1 x,y,z
_cell_length_a                   13.7932(8)
_cell_length_b                   13.7932(8)
_cell_length_c                   45.321(3)
_cell_angle_alpha                90
_cell_angle_beta                 90
_cell_angle_gamma                90
_cell_volume                     8622.43
loop_
_atom_site_label
_atom_site_type_symbol
_atom_site_fract_x
_atom_site_fract_y
_atom_site_fract_z
C50 C 0.0039(9) 0.8839(8) 0.3164(2)
H52 H 0.027174 0.886894 0.336858
H53 H 0.056316 0.902858 0.303026
H20 H 0.200517 0.007685 0.416597
C49 C 0.9404(8) 0.0292(9) 0.2955(3)
H49 H 0.881423 0.040507 0.283931
H50 H 0.995463 0.019982 0.282129
H51 H 0.952636 0.085180 0.308268
Co10 Co 0.49241(6) 0.01474(6) 0.38125(2)
Co11 Co 0.51474(6) 0.00759(6) 0.13125(2)
O30 O 0.5693(3) 0.0477(3) 0.34219(8)
Co1 Co 0.12560(6) 0.57943(6) 0.42665(2)
O1 O 0.1661(4) 0.6345(4) 0.38533(9)
O2 O 0.0797(3) 0.5795(4) 0.34762(9)
O3 O 0.4027(3) 0.9122(3) 0.36475(9)
O4 O 0.4896(3) 0.8648(4) 0.32486(10)
O9 O 0.1001(3) 0.5429(3) 0.47075(8)
O10 O 0.1808(4) 0.7119(4) 0.44240(11)
O11 O 0.2658(3) 0.5279(3) 0.43141(9)
N1 N 0.2194(4) 0.7282(4) 0.25837(12)
N3 N 0.1373(5) 0.5730(5) 0.51847(11)
N4 N 0.2248(6) 0.8626(5) 0.42358(17)
N5 N 0.4282(5) 0.5549(5) 0.43692(14)
C1 C 0.1414(4) 0.6313(5) 0.35882(13)
C2 C 0.2024(4) 0.6953(4) 0.33877(11)
C3 C 0.2725(4) 0.7532(5) 0.34862(13)
H1 H 0.280787 0.759830 0.369328
C4 C 0.3328(5) 0.8033(5) 0.33036(14)
C5 C 0.4136(5) 0.8646(4) 0.34083(12)
C6 C 0.3164(5) 0.7980(5) 0.29975(14)
H2 H 0.356390 0.832850 0.286372
C7 C 0.2398(5) 0.7402(5) 0.28937(12)
C8 C 0.1826(5) 0.6923(5) 0.30781(13)
H3 H 0.128943 0.656413 0.300532
C17 C 0.1565(5) 0.5559(5) 0.49051(15)
H7 H 0.223247 0.553419 0.485342
C18 C 0.0351(7) 0.5787(8) 0.52828(17)
H9 H 0.027166 0.634053 0.541637
H10 H 0.017609 0.518847 0.538626
C19 C 0.2100(6) 0.5915(7) 0.54099(17)
H11 H 0.274574 0.578011 0.532963
H12 H 0.198017 0.549393 0.558025
H13 H 0.206399 0.659473 0.547164
C20 C 0.1653(6) 0.7853(6) 0.4268(2)
H14 H 0.105891 0.786844 0.416259
C21 C 0.3142(7) 0.8735(8) 0.4389(2)
H15 H 0.319873 0.822696 0.453944
H16 H 0.316011 0.937264 0.448493
H17 H 0.368118 0.868188 0.424968
C22 C 0.1991(8) 0.9486(7) 0.4046(3)
H18 H 0.133914 0.939617 0.396426
H19 H 0.245998 0.954281 0.388470
C23 C 0.3386(5) 0.5767(5) 0.42742(14)
H21 H 0.331056 0.635329 0.416645
C24 C 0.4404(8) 0.4708(9) 0.4545(3)
H22 H 0.381423 0.459493 0.466069
H23 H 0.495463 0.480018 0.467871
H24 H 0.452636 0.414820 0.441732
C25 C 0.5039(9) 0.6161(8) 0.4336(2)
H25 H 0.527174 0.613106 0.413142
H26 H 0.556316 0.597142 0.446974
H27 H 0.483176 0.682366 0.438107
O12 O 0.3655(4) 0.8339(4) 0.11467(9)
O13 O 0.4205(4) 0.9203(3) 0.15238(9)
O14 O 0.0878(3) 0.5973(3) 0.13525(9)
O15 O 0.1352(4) 0.5104(3) 0.17514(10)
N6 N 0.2718(4) 0.7806(4) 0.24163(12)
C26 C 0.3687(5) 0.8586(4) 0.14118(13)
C27 C 0.3047(4) 0.7976(4) 0.16123(11)
C28 C 0.2468(5) 0.7275(4) 0.15138(13)
H28 H 0.240170 0.719213 0.130672
C29 C 0.1967(5) 0.6672(5) 0.16964(14)
C30 C 0.1354(4) 0.5864(5) 0.15917(12)
C31 C 0.2020(5) 0.6836(5) 0.20025(14)
H29 H 0.167150 0.643610 0.213628
C32 C 0.2598(5) 0.7602(5) 0.21063(12)
C33 C 0.3077(5) 0.8174(5) 0.19219(13)
H30 H 0.343587 0.871057 0.199468
Co4 Co 0.62560(6) 0.92057(6) 0.32335(2)
O20 O 0.6001(3) 0.9571(3) 0.27925(8)
O21 O 0.6808(4) 0.7881(4) 0.30760(11)
O22 O 0.7658(3) 0.9721(3) 0.31859(9)
N8 N 0.6373(5) 0.9270(5) 0.23153(11)
N9 N 0.7248(6) 0.6374(5) 0.32642(17)
N10 N 0.9282(5) 0.9451(5) 0.31308(14)
C42 C 0.6565(5) 0.9441(5) 0.25949(15)
H34 H 0.723247 0.946581 0.264658
C43 C 0.5351(7) 0.9213(8) 0.22172(17)
H35 H 0.492872 0.912906 0.238919
H36 H 0.527166 0.865947 0.208363
H37 H 0.517609 0.981153 0.211374
C44 C 0.7100(6) 0.9085(7) 0.20901(17)
H38 H 0.774574 0.921989 0.217037
H39 H 0.698017 0.950607 0.191975
H40 H 0.706399 0.840527 0.202836
C45 C 0.6653(6) 0.7147(6) 0.3232(2)
H41 H 0.605891 0.713156 0.333741
C46 C 0.8142(7) 0.6265(8) 0.3111(2)
H42 H 0.819873 0.677304 0.296056
H43 H 0.816011 0.562736 0.301507
H44 H 0.868118 0.631812 0.325032
C47 C 0.6991(8) 0.5514(7) 0.3454(3)
H45 H 0.633914 0.560383 0.353574
H46 H 0.745998 0.545719 0.361530
H47 H 0.700517 0.492315 0.333403
C48 C 0.8386(5) 0.9233(5) 0.32258(14)
H48 H 0.831056 0.864671 0.333355
H54 H 0.983176 0.817634 0.311893
Co5 Co 0.07943(6) 0.37440(6) 0.17665(2)
Co7 Co 0.42057(6) 0.87440(6) 0.07335(2)
O23 O 0.6661(4) 0.8655(4) 0.36467(9)
O29 O 0.1028(3) 0.3644(3) 0.36845(9)
O32 O 0.0693(3) 0.4523(3) 0.40781(8)
Co2 Co 0.99241(6) 0.48526(6) 0.36875(2)
O5 O 0.9191(3) 0.4333(3) 0.33207(9)
O6 O 0.8795(3) 0.3718(3) 0.37503(8)
O7 O 0.6028(3) 0.1356(3) 0.38155(9)
N2 N 0.7206(4) 0.2293(4) 0.25780(12)
C9 C 0.8717(4) 0.3753(5) 0.34764(13)
C10 C 0.7985(4) 0.3069(5) 0.33236(14)
C11 C 0.7408(4) 0.2489(4) 0.35015(13)
H4 H 0.743241 0.254418 0.371036
C12 C 0.6783(4) 0.1815(4) 0.33647(13)
C13 C 0.6138(4) 0.1189(5) 0.35451(13)
C14 C 0.6733(4) 0.1787(4) 0.30521(12)
H5 H 0.630377 0.134335 0.295909
C15 C 0.7290(5) 0.2384(5) 0.28830(13)
C16 C 0.7943(5) 0.3069(5) 0.30280(14)
H6 H 0.832969 0.350274 0.291544
H8 H 0.992872 0.587094 0.511081
O16 O 0.5667(3) 0.0809(3) 0.16793(9)
O17 O 0.6282(3) 0.1205(3) 0.12497(8)
O18 O 0.8644(3) 0.3972(3) 0.11845(9)
O19 O 0.9523(3) 0.4307(3) 0.15781(8)
N7 N 0.7707(4) 0.2794(4) 0.24220(12)
C34 C 0.6247(5) 0.1283(4) 0.15236(13)
C35 C 0.6931(5) 0.2015(4) 0.16764(14)
C36 C 0.7511(4) 0.2592(4) 0.14985(13)
H31 H 0.745582 0.256759 0.128964
C37 C 0.8185(4) 0.3217(4) 0.16353(13)
C38 C 0.8811(5) 0.3862(4) 0.14549(13)
C39 C 0.8213(4) 0.3267(4) 0.19479(12)
H32 H 0.865665 0.369623 0.204091
C40 C 0.7616(5) 0.2710(5) 0.21170(13)
C41 C 0.6931(5) 0.2057(5) 0.19720(14)
H33 H 0.649726 0.167031 0.208456
Co8 Co 0.98526(6) 0.50759(6) 0.11875(2)
O25 O 0.4122(3) 0.0973(3) 0.11475(9)
O26 O 0.9027(3) 0.5878(3) 0.38525(9)
O27 O 0.9896(3) 0.6352(4) 0.42514(10)
O28 O 0.6356(3) 0.8972(3) 0.13155(9)
O31 O 0.5477(3) 0.9307(3) 0.09219(8)
Co6 Co 0.37440(6) 0.07943(6) 0.82335(2)
O24 O 0.5795(4) 0.0797(3) 0.65238(9)
O28_2 O 0.3644(3) 0.1028(3) 0.63155(9)
O31_2 O 0.4523(3) 0.0693(3) 0.59219(8)
H8_2 H 0.007128 0.412906 0.011081
Co2_2 Co 0.00759(6) 0.51474(6) 0.86875(2)
O5_2 O 0.0809(3) 0.5667(3) 0.83207(9)
O6_2 O 0.1205(3) 0.6282(3) 0.87503(8)
O7_2 O 0.3972(3) 0.8644(3) 0.88155(9)
O8 O 0.4307(3) 0.9523(3) 0.84219(8)
N2_2 N 0.2794(4) 0.7707(4) 0.75780(12)
C9_2 C 0.1283(4) 0.6247(5) 0.84764(13)
C10_2 C 0.2015(4) 0.6931(5) 0.83236(14)
C11_2 C 0.2592(4) 0.7511(4) 0.85015(13)
H4_2 H 0.256759 0.745582 0.871036
C12_2 C 0.3217(4) 0.8185(4) 0.83647(13)
C13_2 C 0.3862(4) 0.8811(5) 0.85451(13)
C14_2 C 0.3267(4) 0.8213(4) 0.80521(12)
H5_2 H 0.369623 0.865665 0.795909
C15_2 C 0.2710(5) 0.7616(5) 0.78830(13)
C16_2 C 0.2057(5) 0.6931(5) 0.80280(14)
H6_2 H 0.167031 0.649726 0.791544
O16_2 O 0.4333(3) 0.9191(3) 0.66793(9)
O17_2 O 0.3718(3) 0.8795(3) 0.62497(8)
O18_2 O 0.1356(3) 0.6028(3) 0.61845(9)
O19_2 O 0.0477(3) 0.5693(3) 0.65781(8)
N7_2 N 0.2293(4) 0.7206(4) 0.74220(12)
C34_2 C 0.3753(5) 0.8717(4) 0.65236(13)
C35_2 C 0.3069(5) 0.7985(4) 0.66764(14)
C36_2 C 0.2489(4) 0.7408(4) 0.64985(13)
H31_2 H 0.254418 0.743241 0.628964
C37_2 C 0.1815(4) 0.6783(4) 0.66353(13)
C38_2 C 0.1189(5) 0.6138(4) 0.64549(13)
C39_2 C 0.1787(4) 0.6733(4) 0.69479(12)
H32_2 H 0.134335 0.630377 0.704091
C40_2 C 0.2384(5) 0.7290(5) 0.71170(13)
C41_2 C 0.3069(5) 0.7943(5) 0.69720(14)
H33_2 H 0.350274 0.832969 0.708456
Co3 Co 0.48526(6) 0.99241(6) 0.63125(2)
Co8_2 Co 0.01474(6) 0.49241(6) 0.61875(2)
Co9 Co 0.50759(6) 0.98526(6) 0.88125(2)
O25_2 O 0.5878(3) 0.9027(3) 0.61475(9)
O26_2 O 0.0973(3) 0.4122(3) 0.88525(9)
O27_2 O 0.0104(3) 0.3648(4) 0.92514(10)
N3_2 N 0.8627(5) 0.4270(5) 0.01847(11)
C18_2 C 0.9649(7) 0.4213(8) 0.02828(17)
H9_2 H 0.972834 0.365947 0.041637
H10_2 H 0.982391 0.481153 0.038626
C19_2 C 0.7900(6) 0.4085(7) 0.04099(17)
H11_2 H 0.725426 0.421989 0.032963
H12_2 H 0.801983 0.450607 0.058025
H13_2 H 0.793601 0.340527 0.047164
Co1_2 Co 0.87440(6) 0.42057(6) 0.92665(2)
O1_2 O 0.8339(4) 0.3655(4) 0.88533(9)
O2_2 O 0.9203(3) 0.4205(4) 0.84762(9)
O3_2 O 0.5973(3) 0.0878(3) 0.86475(9)
O4_2 O 0.5104(3) 0.1352(4) 0.82486(10)
O9_2 O 0.8999(3) 0.4571(3) 0.97075(8)
O10_2 O 0.8192(4) 0.2881(4) 0.94240(11)
O11_2 O 0.7342(3) 0.4721(3) 0.93141(9)
N1_2 N 0.7806(4) 0.2718(4) 0.75837(12)
N4_2 N 0.7752(6) 0.1374(5) 0.92358(17)
N5_2 N 0.5718(5) 0.4451(5) 0.93692(14)
C1_2 C 0.8586(4) 0.3687(5) 0.85882(13)
C2_2 C 0.7976(4) 0.3047(4) 0.83877(11)
C3_2 C 0.7275(4) 0.2468(5) 0.84862(13)
H1_2 H 0.719213 0.240170 0.869328
C4_2 C 0.6672(5) 0.1967(5) 0.83036(14)
C5_2 C 0.5864(5) 0.1354(4) 0.84083(12)
C6_2 C 0.6836(5) 0.2020(5) 0.79975(14)
H2_2 H 0.643610 0.167150 0.786372
C7_2 C 0.7602(5) 0.2598(5) 0.78937(12)
C8_2 C 0.8174(5) 0.3077(5) 0.80781(13)
H3_2 H 0.871057 0.343587 0.800532
C17_2 C 0.8435(5) 0.4441(5) 0.99051(15)
H7_2 H 0.776753 0.446581 0.985342
C20_2 C 0.8347(6) 0.2147(6) 0.9268(2)
H14_2 H 0.894109 0.213156 0.916259
C21_2 C 0.6858(7) 0.1265(8) 0.9389(2)
H15_2 H 0.680127 0.177304 0.953944
H16_2 H 0.683989 0.062736 0.948493
H17_2 H 0.631882 0.131812 0.924968
C22_2 C 0.8009(8) 0.0514(7) 0.9046(3)
H18_2 H 0.866086 0.060383 0.896426
H19_2 H 0.754002 0.045719 0.888470
C23_2 C 0.6614(5) 0.4233(5) 0.92742(14)
H21_2 H 0.668944 0.364671 0.916645
C24_2 C 0.5596(8) 0.5292(9) 0.9545(3)
H22_2 H 0.618577 0.540507 0.966069
H23_2 H 0.504537 0.519982 0.967871
H24_2 H 0.547364 0.585180 0.941732
C25_2 C 0.4961(9) 0.3839(8) 0.9336(2)
H25_2 H 0.472826 0.386894 0.913142
H26_2 H 0.443684 0.402858 0.946974
H27_2 H 0.516824 0.317634 0.938107
O12_2 O 0.6345(4) 0.1661(4) 0.61467(9)
O14_2 O 0.9122(3) 0.4027(3) 0.63525(9)
O15_2 O 0.8648(4) 0.4896(3) 0.67514(10)
N6_2 N 0.7282(4) 0.2194(4) 0.74163(12)
C26_2 C 0.6313(5) 0.1414(4) 0.64118(13)
C27_2 C 0.6953(4) 0.2024(4) 0.66123(11)
C28_2 C 0.7532(5) 0.2725(4) 0.65138(13)
H28_2 H 0.759830 0.280787 0.630672
C29_2 C 0.8033(5) 0.3328(5) 0.66964(14)
C30_2 C 0.8646(4) 0.4136(5) 0.65917(12)
C31_2 C 0.7980(5) 0.3164(5) 0.70025(14)
H29_2 H 0.832850 0.356390 0.713628
C32_2 C 0.7402(5) 0.2398(5) 0.71063(12)
C33_2 C 0.6923(5) 0.1826(5) 0.69219(13)
H30_2 H 0.656413 0.128943 0.699468
O20_2 O 0.3999(3) 0.0429(3) 0.77925(8)
O21_2 O 0.3192(4) 0.2119(4) 0.80760(11)
O22_2 O 0.2342(3) 0.0279(3) 0.81859(9)
N8_2 N 0.3627(5) 0.0730(5) 0.73153(11)
N9_2 N 0.2752(6) 0.3626(5) 0.82642(17)
N10_2 N 0.0718(5) 0.0549(5) 0.81308(14)
C42_2 C 0.3435(5) 0.0559(5) 0.75949(15)
H34_2 H 0.276753 0.053419 0.764658
C43_2 C 0.4649(7) 0.0787(8) 0.72172(17)
H35_2 H 0.507128 0.087094 0.738919
H36_2 H 0.472834 0.134053 0.708363
H37_2 H 0.482391 0.018847 0.711374
C44_2 C 0.2900(6) 0.0915(7) 0.70901(17)
H38_2 H 0.225426 0.078011 0.717037
H39_2 H 0.301983 0.049393 0.691975
H40_2 H 0.293601 0.159473 0.702836
C45_2 C 0.3347(6) 0.2853(6) 0.8232(2)
H41_2 H 0.394109 0.286844 0.833741
C46_2 C 0.1858(7) 0.3735(8) 0.8111(2)
H42_2 H 0.180127 0.322696 0.796056
H43_2 H 0.183989 0.437264 0.801507
H44_2 H 0.131882 0.368188 0.825032
C47_2 C 0.3009(8) 0.4486(7) 0.8454(3)
H45_2 H 0.366086 0.439617 0.853574
H46_2 H 0.254002 0.454281 0.861530
H47_2 H 0.299483 0.507685 0.833403
C48_2 C 0.1614(5) 0.0767(5) 0.82258(14)
H48_2 H 0.168944 0.135329 0.833355
H54_2 H 0.016824 0.182366 0.811893
Co5_2 Co 0.92057(6) 0.62560(6) 0.67665(2)
Co7_2 Co 0.57943(6) 0.12560(6) 0.57335(2)
O23_2 O 0.3339(4) 0.1345(4) 0.86467(9)
O29_2 O 0.8972(3) 0.6356(3) 0.86845(9)
O32_2 O 0.9307(3) 0.5477(3) 0.90781(8)
H20_2 H 0.799483 0.992315 0.916597
C49_2 C 0.0596(8) 0.9708(9) 0.7955(3)
H49_2 H 0.118577 0.959493 0.783931
H50_2 H 0.004537 0.980018 0.782129
H51_2 H 0.047364 0.914820 0.808268
C50_2 C 0.9961(9) 0.1161(8) 0.8164(2)
H52_2 H 0.972826 0.113106 0.836858
H53_2 H 0.943684 0.097142 0.803026
H47_3 H 0.007685 0.200517 0.583403
O5_3 O 0.0667(3) 0.4191(3) 0.58207(9)
O6_3 O 0.1282(3) 0.3795(3) 0.62503(8)
N2_3 N 0.2707(4) 0.2206(4) 0.50780(12)
C9_3 C 0.1247(5) 0.3717(4) 0.59764(13)
C10_3 C 0.1931(5) 0.2985(4) 0.58236(14)
C11_3 C 0.2511(4) 0.2408(4) 0.60015(13)
H4_3 H 0.245582 0.243241 0.621036
C12_3 C 0.3185(4) 0.1783(4) 0.58647(13)
C13_3 C 0.3811(5) 0.1138(4) 0.60451(13)
C14_3 C 0.3213(4) 0.1733(4) 0.55521(12)
H5_3 H 0.365665 0.130377 0.545909
C15_3 C 0.2616(5) 0.2290(5) 0.53830(13)
C16_3 C 0.1931(5) 0.2943(5) 0.55280(14)
H6_3 H 0.149726 0.332969 0.541544
C24_3 C 0.0292(9) 0.9404(8) 0.7045(3)
H22_3 H 0.040507 0.881423 0.716069
H23_3 H 0.019982 0.995463 0.717871
H24_3 H 0.085180 0.952636 0.691732
O16_3 O 0.4191(3) 0.0667(3) 0.41793(9)
O17_3 O 0.3795(3) 0.1282(3) 0.37497(8)
N7_3 N 0.2206(4) 0.2707(4) 0.49220(12)
C34_3 C 0.3717(4) 0.1247(5) 0.40236(13)
C35_3 C 0.2985(4) 0.1931(5) 0.41764(14)
C36_3 C 0.2408(4) 0.2511(4) 0.39985(13)
H31_3 H 0.243241 0.245582 0.378964
C37_3 C 0.1783(4) 0.3185(4) 0.41353(13)
C38_3 C 0.1138(4) 0.3811(5) 0.39549(13)
C39_3 C 0.1733(4) 0.3213(4) 0.44479(12)
H32_3 H 0.130377 0.365665 0.454091
C40_3 C 0.2290(5) 0.2616(5) 0.46170(13)
C41_3 C 0.2943(5) 0.1931(5) 0.44720(14)
H33_3 H 0.332969 0.149726 0.458456
O24_2 O 0.5797(3) 0.9205(4) 0.40238(9)
C25_3 C 0.8839(8) 0.0039(9) 0.6836(2)
H25_3 H 0.886894 0.027174 0.663142
H26_3 H 0.902858 0.056316 0.696974
O20_3 O 0.5429(3) 0.1001(3) 0.52925(8)
O21_3 O 0.7119(4) 0.1808(4) 0.55760(11)
O22_3 O 0.5279(3) 0.2658(3) 0.56859(9)
N8_3 N 0.5730(5) 0.1373(5) 0.48153(11)
N9_3 N 0.8626(5) 0.2248(6) 0.57642(17)
N10_3 N 0.5549(5) 0.4282(5) 0.56308(14)
C42_3 C 0.5559(5) 0.1565(5) 0.50949(15)
H34_3 H 0.553419 0.223247 0.514658
C43_3 C 0.5787(8) 0.0351(7) 0.47172(17)
H36_3 H 0.634053 0.027166 0.458363
H37_3 H 0.518847 0.017609 0.461374
C44_3 C 0.5915(7) 0.2100(6) 0.45901(17)
H38_3 H 0.578011 0.274574 0.467037
H39_3 H 0.549393 0.198017 0.441975
H40_3 H 0.659473 0.206399 0.452836
C45_3 C 0.7853(6) 0.1653(6) 0.5732(2)
H41_3 H 0.786844 0.105891 0.583741
C46_3 C 0.8735(8) 0.3142(7) 0.5611(2)
H42_3 H 0.822696 0.319873 0.546056
H43_3 H 0.937264 0.316011 0.551507
H44_3 H 0.868188 0.368118 0.575032
C47_3 C 0.9486(7) 0.1991(8) 0.5954(3)
H45_3 H 0.939617 0.133914 0.603574
H46_3 H 0.954281 0.245998 0.611530
C48_3 C 0.5767(5) 0.3386(5) 0.57258(14)
H48_3 H 0.635329 0.331056 0.583355
C49_3 C 0.4708(9) 0.4404(8) 0.5455(3)
H49_3 H 0.459493 0.381423 0.533931
H50_3 H 0.480018 0.495463 0.532129
H51_3 H 0.414820 0.452636 0.558268
C50_3 C 0.6161(8) 0.5039(9) 0.5664(2)
H52_3 H 0.613106 0.527174 0.586858
H53_3 H 0.597142 0.556316 0.553026
H54_3 H 0.682366 0.483176 0.561893
O1_3 O 0.8655(4) 0.6661(4) 0.63533(9)
O2_3 O 0.9205(4) 0.5797(3) 0.59762(9)
O4_3 O 0.6352(4) 0.9896(3) 0.57486(10)
O9_3 O 0.9571(3) 0.6001(3) 0.72075(8)
O10_3 O 0.7881(4) 0.6808(4) 0.69240(11)
O11_3 O 0.9721(3) 0.7658(3) 0.68141(9)
N1_3 N 0.7718(4) 0.7194(4) 0.50837(12)
N3_3 N 0.9270(5) 0.6373(5) 0.76847(11)
N4_3 N 0.6374(5) 0.7248(6) 0.67358(17)
N5_3 N 0.9451(5) 0.9282(5) 0.68692(14)
C1_3 C 0.8687(5) 0.6414(4) 0.60882(13)
C2_3 C 0.8047(4) 0.7024(4) 0.58877(11)
C3_3 C 0.7468(5) 0.7725(4) 0.59862(13)
H1_3 H 0.740170 0.780787 0.619328
C4_3 C 0.6967(5) 0.8328(5) 0.58036(14)
C5_3 C 0.6354(4) 0.9136(5) 0.59083(12)
C6_3 C 0.7020(5) 0.8164(5) 0.54975(14)
H2_3 H 0.667150 0.856390 0.536372
C7_3 C 0.7598(5) 0.7398(5) 0.53937(12)
C8_3 C 0.8077(5) 0.6826(5) 0.55781(13)
H3_3 H 0.843587 0.628943 0.550532
C17_3 C 0.9441(5) 0.6565(5) 0.74051(15)
H7_3 H 0.946581 0.723247 0.735342
C18_3 C 0.9213(8) 0.5351(7) 0.77828(17)
H8_3 H 0.912906 0.492872 0.761081
H9_3 H 0.865947 0.527166 0.791637
H10_3 H 0.981153 0.517609 0.788626
C19_3 C 0.9085(7) 0.7100(6) 0.79099(17)
H11_3 H 0.921989 0.774574 0.782963
H12_3 H 0.950607 0.698017 0.808025
H13_3 H 0.840527 0.706399 0.797164
C20_3 C 0.7147(6) 0.6653(6) 0.6768(2)
H14_3 H 0.713156 0.605891 0.666259
C21_3 C 0.6265(8) 0.8142(7) 0.6889(2)
H15_3 H 0.677304 0.819873 0.703944
H16_3 H 0.562736 0.816011 0.698493
H17_3 H 0.631812 0.868118 0.674968
C22_3 C 0.5514(7) 0.6991(8) 0.6546(3)
H18_3 H 0.560383 0.633914 0.646426
H19_3 H 0.545719 0.745998 0.638470
H20_3 H 0.492315 0.700517 0.666597
C23_3 C 0.9233(5) 0.8386(5) 0.67742(14)
H21_3 H 0.864671 0.831056 0.666645
H27_3 H 0.817634 0.983176 0.688107
N6_3 N 0.7194(4) 0.7718(4) 0.49163(12)
C26_3 C 0.6414(4) 0.8687(5) 0.39118(13)
C27_3 C 0.7024(4) 0.8047(4) 0.41123(11)
C28_3 C 0.7725(4) 0.7468(5) 0.40138(13)
H28_3 H 0.780787 0.740170 0.380672
C29_3 C 0.8328(5) 0.6967(5) 0.41964(14)
C30_3 C 0.9136(5) 0.6354(4) 0.40917(12)
C31_3 C 0.8164(5) 0.7020(5) 0.45025(14)
H29_3 H 0.856390 0.667150 0.463628
C32_3 C 0.7398(5) 0.7598(5) 0.46063(12)
C33_3 C 0.6826(5) 0.8077(5) 0.44219(13)
H30_3 H 0.628943 0.843587 0.449468
H35_3 H 0.587094 0.992872 0.488919
O1_4 O 0.1345(4) 0.3339(4) 0.13533(9)
O2_4 O 0.0795(4) 0.4203(3) 0.09762(9)
O4_4 O 0.3648(4) 0.0104(3) 0.07486(10)
O9_4 O 0.0429(3) 0.3999(3) 0.22075(8)
O10_4 O 0.2119(4) 0.3192(4) 0.19240(11)
O11_4 O 0.0279(3) 0.2342(3) 0.18141(9)
N1_4 N 0.2282(4) 0.2806(4) 0.00837(12)
N3_4 N 0.0730(5) 0.3627(5) 0.26847(11)
N4_4 N 0.3626(5) 0.2752(6) 0.17358(17)
N5_4 N 0.0549(5) 0.0718(5) 0.18692(14)
C1_4 C 0.1313(5) 0.3586(4) 0.10882(13)
C2_4 C 0.1953(4) 0.2976(4) 0.08877(11)
C3_4 C 0.2532(5) 0.2275(4) 0.09862(13)
H1_4 H 0.259830 0.219213 0.119328
C4_4 C 0.3033(5) 0.1672(5) 0.08036(14)
C5_4 C 0.3646(4) 0.0864(5) 0.09083(12)
C6_4 C 0.2980(5) 0.1836(5) 0.04975(14)
H2_4 H 0.332850 0.143610 0.036372
C7_4 C 0.2402(5) 0.2602(5) 0.03937(12)
C8_4 C 0.1923(5) 0.3174(5) 0.05781(13)
H3_4 H 0.156413 0.371057 0.050532
C17_4 C 0.0559(5) 0.3435(5) 0.24051(15)
H7_4 H 0.053419 0.276753 0.235342
C18_4 C 0.0787(8) 0.4649(7) 0.27828(17)
H8_4 H 0.087094 0.507128 0.261081
H9_4 H 0.134053 0.472834 0.291637
H10_4 H 0.018847 0.482391 0.288626
C19_4 C 0.0915(7) 0.2900(6) 0.29099(17)
H11_4 H 0.078011 0.225426 0.282963
H12_4 H 0.049393 0.301983 0.308025
H13_4 H 0.159473 0.293601 0.297164
C20_4 C 0.2853(6) 0.3347(6) 0.1768(2)
H14_4 H 0.286844 0.394109 0.166259
C21_4 C 0.3735(8) 0.1858(7) 0.1889(2)
H15_4 H 0.322696 0.180127 0.203944
H16_4 H 0.437264 0.183989 0.198493
H17_4 H 0.368188 0.131882 0.174968
C22_4 C 0.4486(7) 0.3009(8) 0.1546(3)
H18_4 H 0.439617 0.366086 0.146426
H19_4 H 0.454281 0.254002 0.138470
H20_4 H 0.507685 0.299483 0.166597
C23_4 C 0.0767(5) 0.1614(5) 0.17742(14)
H21_4 H 0.135329 0.168944 0.166645
H27_4 H 0.182366 0.016824 0.188107
O13_2 O 0.4203(3) 0.0795(4) 0.90238(9)
N6_4 N 0.2806(4) 0.2282(4) 0.99163(12)
C26_4 C 0.3586(4) 0.1313(5) 0.89118(13)
C27_4 C 0.2976(4) 0.1953(4) 0.91123(11)
C28_4 C 0.2275(4) 0.2532(5) 0.90138(13)
H28_4 H 0.219213 0.259830 0.880672
C29_4 C 0.1672(5) 0.3033(5) 0.91964(14)
C30_4 C 0.0864(5) 0.3646(4) 0.90917(12)
C31_4 C 0.1836(5) 0.2980(5) 0.95025(14)
H29_4 H 0.143610 0.332850 0.963628
C32_4 C 0.2602(5) 0.2402(5) 0.96063(12)
C33_4 C 0.3174(5) 0.1923(5) 0.94219(13)
H30_4 H 0.371057 0.156413 0.949468
H35_4 H 0.412906 0.007128 0.988919
C25_4 C 0.1161(8) 0.9961(9) 0.1836(2)
H25_4 H 0.113106 0.972826 0.163142
H26_4 H 0.097142 0.943684 0.196974
O20_4 O 0.4571(3) 0.8999(3) 0.02925(8)
O21_4 O 0.2881(4) 0.8192(4) 0.05760(11)
O22_4 O 0.4721(3) 0.7342(3) 0.06859(9)
N9_4 N 0.1374(5) 0.7752(6) 0.07642(17)
N10_4 N 0.4451(5) 0.5718(5) 0.06308(14)
C42_4 C 0.4441(5) 0.8435(5) 0.00949(15)
H34_4 H 0.446581 0.776753 0.014658
C45_4 C 0.2147(6) 0.8347(6) 0.0732(2)
H41_4 H 0.213156 0.894109 0.083741
C46_4 C 0.1265(8) 0.6858(7) 0.0611(2)
H42_4 H 0.177304 0.680127 0.046056
H43_4 H 0.062736 0.683989 0.051507
H44_4 H 0.131812 0.631882 0.075032
C47_4 C 0.0514(7) 0.8009(8) 0.0954(3)
H45_4 H 0.060383 0.866086 0.103574
H46_4 H 0.045719 0.754002 0.111530
C48_4 C 0.4233(5) 0.6614(5) 0.07258(14)
H48_4 H 0.364671 0.668944 0.083355
C49_4 C 0.5292(9) 0.5596(8) 0.0455(3)
H49_4 H 0.540507 0.618577 0.033931
H50_4 H 0.519982 0.504537 0.032129
H51_4 H 0.585180 0.547364 0.058268
C50_4 C 0.3839(8) 0.4961(9) 0.0664(2)
H52_4 H 0.386894 0.472826 0.086858
H53_4 H 0.402858 0.443684 0.053026
H54_4 H 0.317634 0.516824 0.061893
N8_4 N 0.4270(5) 0.8627(5) 0.98153(11)
C43_4 C 0.4213(8) 0.9649(7) 0.97172(17)
H36_4 H 0.365947 0.972834 0.958363
H37_4 H 0.481153 0.982391 0.961374
C44_4 C 0.4085(7) 0.7900(6) 0.95901(17)
H38_4 H 0.421989 0.725426 0.967037
H39_4 H 0.450607 0.801983 0.941975
H40_4 H 0.340527 0.793601 0.952836
O5_4 O 0.9333(3) 0.5809(3) 0.08207(9)
O6_4 O 0.8718(3) 0.6205(3) 0.12503(8)
N2_4 N 0.7293(4) 0.7794(4) 0.00780(12)
C9_4 C 0.8753(5) 0.6283(4) 0.09764(13)
C10_4 C 0.8069(5) 0.7015(4) 0.08236(14)
C11_4 C 0.7489(4) 0.7592(4) 0.10015(13)
H4_4 H 0.754418 0.756759 0.121036
C12_4 C 0.6815(4) 0.8217(4) 0.08647(13)
C13_4 C 0.6189(5) 0.8862(4) 0.10451(13)
C14_4 C 0.6787(4) 0.8267(4) 0.05521(12)
H5_4 H 0.634335 0.869623 0.045909
C15_4 C 0.7384(5) 0.7710(5) 0.03830(13)
C16_4 C 0.8069(5) 0.7057(5) 0.05280(14)
H6_4 H 0.850274 0.667031 0.041544
C24_4 C 0.9708(9) 0.0596(8) 0.2045(3)
H22_4 H 0.959493 0.118577 0.216069
H23_4 H 0.980018 0.004537 0.217871
H24_4 H 0.914820 0.047364 0.191732
O16_4 O 0.5809(3) 0.9333(3) 0.91793(9)
O17_4 O 0.6205(3) 0.8718(3) 0.87497(8)
N7_4 N 0.7794(4) 0.7293(4) 0.99220(12)
C34_4 C 0.6283(4) 0.8753(5) 0.90236(13)
C35_4 C 0.7015(4) 0.8069(5) 0.91764(14)
C36_4 C 0.7592(4) 0.7489(4) 0.89985(13)
H31_4 H 0.756759 0.754418 0.878964
C37_4 C 0.8217(4) 0.6815(4) 0.91353(13)
C38_4 C 0.8862(4) 0.6189(5) 0.89549(13)
C39_4 C 0.8267(4) 0.6787(4) 0.94479(12)
H32_4 H 0.869623 0.634335 0.954091
C40_4 C 0.7710(5) 0.7384(5) 0.96170(13)
C41_4 C 0.7057(5) 0.8069(5) 0.94720(14)
H33_4 H 0.667031 0.850274 0.958456
H47_4 H 0.992315 0.799483 0.083403
loop_
_geom_bond_atom_site_label_1
_geom_bond_atom_site_label_2
_geom_bond_site_symmetry_1
_geom_bond_site_symmetry_2
H52 C50 1_555 1_555
H53 C50 1_555 1_555
H49 C49 1_555 1_555
H50 C49 1_555 1_555
H51 C49 1_555 1_555
Co10 O30 1_555 1_555
Co1 O1 1_555 1_555
O1 C1 1_555 1_555
O2 C1 1_555 1_555
O3 C5 1_555 1_555
O4 C5 1_555 1_555
O9 Co1 1_555 1_555
O10 Co1 1_555 1_555
O11 Co1 1_555 1_555
N1 C7 1_555 1_555
N3 C17 1_555 1_555
N4 C20 1_555 1_555
N5 C23 1_555 1_555
C1 C2 1_555 1_555
C2 C3 1_555 1_555
C3 H1 1_555 1_555
C4 C3 1_555 1_555
C5 C4 1_555 1_555
C6 C4 1_555 1_555
H2 C6 1_555 1_555
C7 C6 1_555 1_555
C8 C2 1_555 1_555
H3 C8 1_555 1_555
C17 O9 1_555 1_555
H7 C17 1_555 1_555
C18 N3 1_555 1_555
H9 C18 1_555 1_555
H10 C18 1_555 1_555
C19 N3 1_555 1_555
H11 C19 1_555 1_555
H12 C19 1_555 1_555
H13 C19 1_555 1_555
C20 O10 1_555 1_555
H14 C20 1_555 1_555
C21 N4 1_555 1_555
H15 C21 1_555 1_555
H16 C21 1_555 1_555
H17 C21 1_555 1_555
C22 N4 1_555 1_555
H18 C22 1_555 1_555
H19 C22 1_555 1_555
C23 O11 1_555 1_555
H21 C23 1_555 1_555
C24 N5 1_555 1_555
H22 C24 1_555 1_555
H23 C24 1_555 1_555
H24 C24 1_555 1_555
C25 N5 1_555 1_555
H25 C25 1_555 1_555
H26 C25 1_555 1_555
H27 C25 1_555 1_555
O12 C26 1_555 1_555
O13 C26 1_555 1_555
O14 C30 1_555 1_555
O15 C30 1_555 1_555
N6 N1 1_555 1_555
C26 C27 1_555 1_555
C27 C28 1_555 1_555
C28 H28 1_555 1_555
C29 C28 1_555 1_555
C30 C29 1_555 1_555
C31 C29 1_555 1_555
H29 C31 1_555 1_555
C32 N6 1_555 1_555
C33 C27 1_555 1_555
H30 C33 1_555 1_555
Co4 O4 1_555 1_555
O20 Co4 1_555 1_555
O21 Co4 1_555 1_555
O22 Co4 1_555 1_555
N8 C42 1_555 1_555
N9 C45 1_555 1_555
N10 C48 1_555 1_555
C42 O20 1_555 1_555
H34 C42 1_555 1_555
C43 N8 1_555 1_555
H35 C43 1_555 1_555
H36 C43 1_555 1_555
H37 C43 1_555 1_555
C44 N8 1_555 1_555
H38 C44 1_555 1_555
H39 C44 1_555 1_555
H40 C44 1_555 1_555
C45 O21 1_555 1_555
H41 C45 1_555 1_555
C46 N9 1_555 1_555
H42 C46 1_555 1_555
H43 C46 1_555 1_555
H44 C46 1_555 1_555
C47 N9 1_555 1_555
H45 C47 1_555 1_555
H46 C47 1_555 1_555
H47 C47 1_555 1_555
C48 O22 1_555 1_555
H48 C48 1_555 1_555
Co5 O15 1_555 1_555
Co7 O12 1_555 1_555
O23 Co4 1_555 1_555
O32 Co1 1_555 1_555
C7 C8 1_555 1_555
C31 C32 1_555 1_555
C32 C33 1_555 1_555
O5 Co2 1_555 1_555
O6 Co2 1_555 1_555
O7 C13 1_555 1_555
O30 C13 1_555 1_555
N2 C15 1_555 1_555
C9 O5 1_555 1_555
C10 C9 1_555 1_555
C11 C10 1_555 1_555
H4 C11 1_555 1_555
C12 C11 1_555 1_555
C13 C12 1_555 1_555
C14 C12 1_555 1_555
H5 C14 1_555 1_555
C15 C14 1_555 1_555
C16 C10 1_555 1_555
H6 C16 1_555 1_555
O16 C34 1_555 1_555
O17 C34 1_555 1_555
O18 C38 1_555 1_555
O19 C38 1_555 1_555
N7 N2 1_555 1_555
C34 C35 1_555 1_555
C35 C36 1_555 1_555
C36 H31 1_555 1_555
C37 C36 1_555 1_555
C38 C37 1_555 1_555
C39 C37 1_555 1_555
H32 C39 1_555 1_555
C40 N7 1_555 1_555
C41 C35 1_555 1_555
H33 C41 1_555 1_555
Co11 O16 1_555 1_555
Co10 O7 1_555 1_555
O25 Co11 1_555 1_555
O26 Co2 1_555 1_555
O6 C9 1_555 1_555
C15 C16 1_555 1_555
O17 Co11 1_555 1_555
O18 Co8 1_555 1_555
O19 Co8 1_555 1_555
C39 C40 1_555 1_555
C40 C41 1_555 1_555
O5_2 Co2_2 1_555 1_555
O6_2 Co2_2 1_555 1_555
O7_2 C13_2 1_555 1_555
O8 C13_2 1_555 1_555
N2_2 C15_2 1_555 1_555
C9_2 O5_2 1_555 1_555
C10_2 C9_2 1_555 1_555
C11_2 C10_2 1_555 1_555
H4_2 C11_2 1_555 1_555
C12_2 C11_2 1_555 1_555
C13_2 C12_2 1_555 1_555
C14_2 C12_2 1_555 1_555
H5_2 C14_2 1_555 1_555
C15_2 C14_2 1_555 1_555
C16_2 C10_2 1_555 1_555
H6_2 C16_2 1_555 1_555
O16_2 C34_2 1_555 1_555
O17_2 C34_2 1_555 1_555
O18_2 C38_2 1_555 1_555
O19_2 C38_2 1_555 1_555
N7_2 N2_2 1_555 1_555
C34_2 C35_2 1_555 1_555
C35_2 C36_2 1_555 1_555
C36_2 H31_2 1_555 1_555
C37_2 C36_2 1_555 1_555
C38_2 C37_2 1_555 1_555
C39_2 C37_2 1_555 1_555
H32_2 C39_2 1_555 1_555
C40_2 N7_2 1_555 1_555
C41_2 C35_2 1_555 1_555
H33_2 C41_2 1_555 1_555
Co3 O16_2 1_555 1_555
Co9 O7_2 1_555 1_555
O25_2 Co3 1_555 1_555
O26_2 Co2_2 1_555 1_555
O6_2 C9_2 1_555 1_555
O8 Co9 1_555 1_555
C15_2 C16_2 1_555 1_555
O17_2 Co3 1_555 1_555
O18_2 Co8_2 1_555 1_555
O19_2 Co8_2 1_555 1_555
C39_2 C40_2 1_555 1_555
C40_2 C41_2 1_555 1_555
C18_2 N3_2 1_555 1_555
H9_2 C18_2 1_555 1_555
H10_2 C18_2 1_555 1_555
C19_2 N3_2 1_555 1_555
H11_2 C19_2 1_555 1_555
H12_2 C19_2 1_555 1_555
H13_2 C19_2 1_555 1_555
Co1_2 O1_2 1_555 1_555
O1_2 C1_2 1_555 1_555
O2_2 C1_2 1_555 1_555
O3_2 C5_2 1_555 1_555
O4_2 C5_2 1_555 1_555
O9_2 Co1_2 1_555 1_555
O10_2 Co1_2 1_555 1_555
O11_2 Co1_2 1_555 1_555
N1_2 C7_2 1_555 1_555
N4_2 C20_2 1_555 1_555
N5_2 C23_2 1_555 1_555
C1_2 C2_2 1_555 1_555
C2_2 C3_2 1_555 1_555
C3_2 H1_2 1_555 1_555
C4_2 C3_2 1_555 1_555
C5_2 C4_2 1_555 1_555
C6_2 C4_2 1_555 1_555
H2_2 C6_2 1_555 1_555
C7_2 C6_2 1_555 1_555
C8_2 C2_2 1_555 1_555
H3_2 C8_2 1_555 1_555
C17_2 O9_2 1_555 1_555
H7_2 C17_2 1_555 1_555
C20_2 O10_2 1_555 1_555
H14_2 C20_2 1_555 1_555
C21_2 N4_2 1_555 1_555
H15_2 C21_2 1_555 1_555
H16_2 C21_2 1_555 1_555
H17_2 C21_2 1_555 1_555
C22_2 N4_2 1_555 1_555
H18_2 C22_2 1_555 1_555
H19_2 C22_2 1_555 1_555
C23_2 O11_2 1_555 1_555
H21_2 C23_2 1_555 1_555
C24_2 N5_2 1_555 1_555
H22_2 C24_2 1_555 1_555
H23_2 C24_2 1_555 1_555
H24_2 C24_2 1_555 1_555
C25_2 N5_2 1_555 1_555
H25_2 C25_2 1_555 1_555
H26_2 C25_2 1_555 1_555
H27_2 C25_2 1_555 1_555
O12_2 C26_2 1_555 1_555
O24 C26_2 1_555 1_555
O14_2 C30_2 1_555 1_555
O15_2 C30_2 1_555 1_555
N6_2 N1_2 1_555 1_555
C26_2 C27_2 1_555 1_555
C27_2 C28_2 1_555 1_555
C28_2 H28_2 1_555 1_555
C29_2 C28_2 1_555 1_555
C30_2 C29_2 1_555 1_555
C31_2 C29_2 1_555 1_555
H29_2 C31_2 1_555 1_555
C32_2 N6_2 1_555 1_555
C33_2 C27_2 1_555 1_555
H30_2 C33_2 1_555 1_555
Co6 O4_2 1_555 1_555
O20_2 Co6 1_555 1_555
O21_2 Co6 1_555 1_555
O22_2 Co6 1_555 1_555
N8_2 C42_2 1_555 1_555
N9_2 C45_2 1_555 1_555
N10_2 C48_2 1_555 1_555
C42_2 O20_2 1_555 1_555
H34_2 C42_2 1_555 1_555
C43_2 N8_2 1_555 1_555
H35_2 C43_2 1_555 1_555
H36_2 C43_2 1_555 1_555
H37_2 C43_2 1_555 1_555
C44_2 N8_2 1_555 1_555
H38_2 C44_2 1_555 1_555
H39_2 C44_2 1_555 1_555
H40_2 C44_2 1_555 1_555
C45_2 O21_2 1_555 1_555
H41_2 C45_2 1_555 1_555
C46_2 N9_2 1_555 1_555
H42_2 C46_2 1_555 1_555
H43_2 C46_2 1_555 1_555
H44_2 C46_2 1_555 1_555
C47_2 N9_2 1_555 1_555
H45_2 C47_2 1_555 1_555
H46_2 C47_2 1_555 1_555
H47_2 C47_2 1_555 1_555
C48_2 O22_2 1_555 1_555
H48_2 C48_2 1_555 1_555
Co5_2 O15_2 1_555 1_555
Co7_2 O12_2 1_555 1_555
O23_2 Co6 1_555 1_555
O32_2 Co1_2 1_555 1_555
C7_2 C8_2 1_555 1_555
C31_2 C32_2 1_555 1_555
C32_2 C33_2 1_555 1_555
H49_2 C49_2 1_555 1_555
H50_2 C49_2 1_555 1_555
H51_2 C49_2 1_555 1_555
H52_2 C50_2 1_555 1_555
H53_2 C50_2 1_555 1_555
O5_3 Co8_2 1_555 1_555
O6_3 Co8_2 1_555 1_555
O28_2 C13_3 1_555 1_555
O31_2 C13_3 1_555 1_555
N2_3 C15_3 1_555 1_555
C9_3 O5_3 1_555 1_555
C10_3 C9_3 1_555 1_555
C11_3 C10_3 1_555 1_555
H4_3 C11_3 1_555 1_555
C12_3 C11_3 1_555 1_555
C13_3 C12_3 1_555 1_555
C14_3 C12_3 1_555 1_555
H5_3 C14_3 1_555 1_555
C15_3 C14_3 1_555 1_555
C16_3 C10_3 1_555 1_555
H6_3 C16_3 1_555 1_555
H22_3 C24_3 1_555 1_555
H23_3 C24_3 1_555 1_555
H24_3 C24_3 1_555 1_555
O16_3 C34_3 1_555 1_555
O17_3 C34_3 1_555 1_555
O29 C38_3 1_555 1_555
O32 C38_3 1_555 1_555
N7_3 N2_3 1_555 1_555
C34_3 C35_3 1_555 1_555
C35_3 C36_3 1_555 1_555
C36_3 H31_3 1_555 1_555
C37_3 C36_3 1_555 1_555
C38_3 C37_3 1_555 1_555
C39_3 C37_3 1_555 1_555
H32_3 C39_3 1_555 1_555
C40_3 N7_3 1_555 1_555
C41_3 C35_3 1_555 1_555
H33_3 C41_3 1_555 1_555
Co10 O16_3 1_555 1_555
Co7_2 O31_2 1_555 1_555
O6_3 C9_3 1_555 1_555
C15_3 C16_3 1_555 1_555
O17_3 Co10 1_555 1_555
C39_3 C40_3 1_555 1_555
C40_3 C41_3 1_555 1_555
H25_3 C25_3 1_555 1_555
H26_3 C25_3 1_555 1_555
O20_3 Co7_2 1_555 1_555
O21_3 Co7_2 1_555 1_555
O22_3 Co7_2 1_555 1_555
N8_3 C42_3 1_555 1_555
N9_3 C45_3 1_555 1_555
N10_3 C48_3 1_555 1_555
C42_3 O20_3 1_555 1_555
H34_3 C42_3 1_555 1_555
C43_3 N8_3 1_555 1_555
H36_3 C43_3 1_555 1_555
H37_3 C43_3 1_555 1_555
C44_3 N8_3 1_555 1_555
H38_3 C44_3 1_555 1_555
H39_3 C44_3 1_555 1_555
H40_3 C44_3 1_555 1_555
C45_3 O21_3 1_555 1_555
H41_3 C45_3 1_555 1_555
C46_3 N9_3 1_555 1_555
H42_3 C46_3 1_555 1_555
H43_3 C46_3 1_555 1_555
H44_3 C46_3 1_555 1_555
C47_3 N9_3 1_555 1_555
H45_3 C47_3 1_555 1_555
H46_3 C47_3 1_555 1_555
C48_3 O22_3 1_555 1_555
H48_3 C48_3 1_555 1_555
C49_3 N10_3 1_555 1_555
H49_3 C49_3 1_555 1_555
H50_3 C49_3 1_555 1_555
H51_3 C49_3 1_555 1_555
C50_3 N10_3 1_555 1_555
H52_3 C50_3 1_555 1_555
H53_3 C50_3 1_555 1_555
H54_3 C50_3 1_555 1_555
Co5_2 O1_3 1_555 1_555
O1_3 C1_3 1_555 1_555
O2_3 C1_3 1_555 1_555
O25_2 C5_3 1_555 1_555
O4_3 C5_3 1_555 1_555
O9_3 Co5_2 1_555 1_555
O10_3 Co5_2 1_555 1_555
O11_3 Co5_2 1_555 1_555
N1_3 C7_3 1_555 1_555
N3_3 C17_3 1_555 1_555
N4_3 C20_3 1_555 1_555
N5_3 C23_3 1_555 1_555
C1_3 C2_3 1_555 1_555
C2_3 C3_3 1_555 1_555
C3_3 H1_3 1_555 1_555
C4_3 C3_3 1_555 1_555
C5_3 C4_3 1_555 1_555
C6_3 C4_3 1_555 1_555
H2_3 C6_3 1_555 1_555
C7_3 C6_3 1_555 1_555
C8_3 C2_3 1_555 1_555
H3_3 C8_3 1_555 1_555
C17_3 O9_3 1_555 1_555
H7_3 C17_3 1_555 1_555
C18_3 N3_3 1_555 1_555
H8_3 C18_3 1_555 1_555
H9_3 C18_3 1_555 1_555
H10_3 C18_3 1_555 1_555
C19_3 N3_3 1_555 1_555
H11_3 C19_3 1_555 1_555
H12_3 C19_3 1_555 1_555
H13_3 C19_3 1_555 1_555
C20_3 O10_3 1_555 1_555
H14_3 C20_3 1_555 1_555
C21_3 N4_3 1_555 1_555
H15_3 C21_3 1_555 1_555
H16_3 C21_3 1_555 1_555
H17_3 C21_3 1_555 1_555
C22_3 N4_3 1_555 1_555
H18_3 C22_3 1_555 1_555
H19_3 C22_3 1_555 1_555
H20_3 C22_3 1_555 1_555
C23_3 O11_3 1_555 1_555
H21_3 C23_3 1_555 1_555
O23 C26_3 1_555 1_555
O24_2 C26_3 1_555 1_555
O26 C30_3 1_555 1_555
O27 C30_3 1_555 1_555
N6_3 N1_3 1_555 1_555
C26_3 C27_3 1_555 1_555
C27_3 C28_3 1_555 1_555
C28_3 H28_3 1_555 1_555
C29_3 C28_3 1_555 1_555
C30_3 C29_3 1_555 1_555
C31_3 C29_3 1_555 1_555
H29_3 C31_3 1_555 1_555
C32_3 N6_3 1_555 1_555
C33_3 C27_3 1_555 1_555
H30_3 C33_3 1_555 1_555
C7_3 C8_3 1_555 1_555
C31_3 C32_3 1_555 1_555
C32_3 C33_3 1_555 1_555
Co5 O1_4 1_555 1_555
O1_4 C1_4 1_555 1_555
O2_4 C1_4 1_555 1_555
O25 C5_4 1_555 1_555
O4_4 C5_4 1_555 1_555
O9_4 Co5 1_555 1_555
O10_4 Co5 1_555 1_555
O11_4 Co5 1_555 1_555
N1_4 C7_4 1_555 1_555
N3_4 C17_4 1_555 1_555
N4_4 C20_4 1_555 1_555
N5_4 C23_4 1_555 1_555
C1_4 C2_4 1_555 1_555
C2_4 C3_4 1_555 1_555
C3_4 H1_4 1_555 1_555
C4_4 C3_4 1_555 1_555
C5_4 C4_4 1_555 1_555
C6_4 C4_4 1_555 1_555
H2_4 C6_4 1_555 1_555
C7_4 C6_4 1_555 1_555
C8_4 C2_4 1_555 1_555
H3_4 C8_4 1_555 1_555
C17_4 O9_4 1_555 1_555
H7_4 C17_4 1_555 1_555
C18_4 N3_4 1_555 1_555
H8_4 C18_4 1_555 1_555
H9_4 C18_4 1_555 1_555
H10_4 C18_4 1_555 1_555
C19_4 N3_4 1_555 1_555
H11_4 C19_4 1_555 1_555
H12_4 C19_4 1_555 1_555
H13_4 C19_4 1_555 1_555
C20_4 O10_4 1_555 1_555
H14_4 C20_4 1_555 1_555
C21_4 N4_4 1_555 1_555
H15_4 C21_4 1_555 1_555
H16_4 C21_4 1_555 1_555
H17_4 C21_4 1_555 1_555
C22_4 N4_4 1_555 1_555
H18_4 C22_4 1_555 1_555
H19_4 C22_4 1_555 1_555
H20_4 C22_4 1_555 1_555
C23_4 O11_4 1_555 1_555
H21_4 C23_4 1_555 1_555
C7_4 C8_4 1_555 1_555
O23_2 C26_4 1_555 1_555
O13_2 C26_4 1_555 1_555
O26_2 C30_4 1_555 1_555
O27_2 C30_4 1_555 1_555
C26_4 C27_4 1_555 1_555
C27_4 C28_4 1_555 1_555
C28_4 H28_4 1_555 1_555
C29_4 C28_4 1_555 1_555
C30_4 C29_4 1_555 1_555
C31_4 C29_4 1_555 1_555
H29_4 C31_4 1_555 1_555
C32_4 N6_4 1_555 1_555
C33_4 C27_4 1_555 1_555
H30_4 C33_4 1_555 1_555
C31_4 C32_4 1_555 1_555
C32_4 C33_4 1_555 1_555
H25_4 C25_4 1_555 1_555
H26_4 C25_4 1_555 1_555
O20_4 Co7 1_555 1_555
O21_4 Co7 1_555 1_555
O22_4 Co7 1_555 1_555
N9_4 C45_4 1_555 1_555
N10_4 C48_4 1_555 1_555
C42_4 O20_4 1_555 1_555
H34_4 C42_4 1_555 1_555
C45_4 O21_4 1_555 1_555
H41_4 C45_4 1_555 1_555
C46_4 N9_4 1_555 1_555
H42_4 C46_4 1_555 1_555
H43_4 C46_4 1_555 1_555
H44_4 C46_4 1_555 1_555
C47_4 N9_4 1_555 1_555
H45_4 C47_4 1_555 1_555
H46_4 C47_4 1_555 1_555
C48_4 O22_4 1_555 1_555
H48_4 C48_4 1_555 1_555
C49_4 N10_4 1_555 1_555
H49_4 C49_4 1_555 1_555
H50_4 C49_4 1_555 1_555
H51_4 C49_4 1_555 1_555
C50_4 N10_4 1_555 1_555
H52_4 C50_4 1_555 1_555
H53_4 C50_4 1_555 1_555
H54_4 C50_4 1_555 1_555
O31 Co7 1_555 1_555
C43_4 N8_4 1_555 1_555
H36_4 C43_4 1_555 1_555
H37_4 C43_4 1_555 1_555
C44_4 N8_4 1_555 1_555
H38_4 C44_4 1_555 1_555
H39_4 C44_4 1_555 1_555
H40_4 C44_4 1_555 1_555
O5_4 Co8 1_555 1_555
O6_4 Co8 1_555 1_555
O28 C13_4 1_555 1_555
O31 C13_4 1_555 1_555
N2_4 C15_4 1_555 1_555
C9_4 O5_4 1_555 1_555
C10_4 C9_4 1_555 1_555
C11_4 C10_4 1_555 1_555
H4_4 C11_4 1_555 1_555
C12_4 C11_4 1_555 1_555
C13_4 C12_4 1_555 1_555
C14_4 C12_4 1_555 1_555
H5_4 C14_4 1_555 1_555
C15_4 C14_4 1_555 1_555
C16_4 C10_4 1_555 1_555
H6_4 C16_4 1_555 1_555
H22_4 C24_4 1_555 1_555
H23_4 C24_4 1_555 1_555
H24_4 C24_4 1_555 1_555
O6_4 C9_4 1_555 1_555
C15_4 C16_4 1_555 1_555
O16_4 C34_4 1_555 1_555
O17_4 C34_4 1_555 1_555
O29_2 C38_4 1_555 1_555
O32_2 C38_4 1_555 1_555
C34_4 C35_4 1_555 1_555
C35_4 C36_4 1_555 1_555
C36_4 H31_4 1_555 1_555
C37_4 C36_4 1_555 1_555
C38_4 C37_4 1_555 1_555
C39_4 C37_4 1_555 1_555
H32_4 C39_4 1_555 1_555
C40_4 N7_4 1_555 1_555
C41_4 C35_4 1_555 1_555
H33_4 C41_4 1_555 1_555
Co9 O16_4 1_555 1_555
O17_4 Co9 1_555 1_555
C39_4 C40_4 1_555 1_555
C40_4 C41_4 1_555 1_555

#END
