
###############################################################################
#
# This file contains modified crystal structure data generated from the
# MOF subset of the Cambridge Structural Database (CSD) v543 
# hosted by the Cambridge Crystallographic Data Centre (CCDC).
#
# This work is licensed under the Creative Commons
# Attribution-NonCommercial-ShareAlike 4.0 International License.
# To view a copy of this license, visit
# http://creativecommons.org/licenses/by-nc-sa/4.0/
# or send a letter to
# Creative Commons, PO Box 1866, Mountain View, CA 94042, USA.
#
# CIF created using the CSD Python API on 29 September 2022
# The structure has been converted into the P1 space group
# The structure has a 3D framework
# The original CSD entry TORJAN is in the orthorhombic crystal system
# The framework has been calculated to contain at least 10.0% void space
# The void calculation uses a probe of radius 1.32A, grid spacing 0.4
#
###############################################################################

data_TORJAN
_chemical_formula_moiety         '(C96 H80 N4 O38 Tb4)n'
_symmetry_cell_setting           triclinic
_symmetry_space_group_name_H-M   'P 1'
_symmetry_Int_Tables_number      1
_space_group_name_Hall           'P 1'
loop_
_symmetry_equiv_pos_site_id
_symmetry_equiv_pos_as_xyz
1 x,y,z
_cell_length_a                   10.913(3)
_cell_length_b                   16.542(4)
_cell_length_c                   19.793(5)
_cell_angle_alpha                90
_cell_angle_beta                 90
_cell_angle_gamma                90
_cell_volume                     3573.09
loop_
_atom_site_label
_atom_site_type_symbol
_atom_site_fract_x
_atom_site_fract_y
_atom_site_fract_z
N1 N 0.4177(10) 0.2500 0.0287(6)
O3 O 0.3407(12) 0.2500 0.1501(6)
H1 H 0.3463 0.2500 0.1914
O4 O 0.1431(12) 0.2500 0.1732(6)
C4 C 0.0750(13) 0.2500 0.0371(7)
H3 H 0.0137 0.2500 0.0698
C5 C 0.1975(13) 0.2500 0.0576(7)
C6 C 0.2895(12) 0.2500 0.0090(7)
C8 C 0.2229(15) 0.2500 0.1325(8)
C9 C 0.4842(10) 0.1761(6) 0.0045(5)
H5 H 0.5710 0.1816 0.0141
C10 C 0.4350(9) 0.1006(6) 0.0392(5)
C11 C 0.4819(10) 0.0754(7) 0.1009(6)
H7 H 0.5416 0.1065 0.1220
C12 C 0.4424(10) 0.0053(7) 0.1316(6)
C15 C 0.3444(10) 0.0529(6) 0.0094(5)
O8 O 0.3643(7) 0.6455(5) 0.1869(4)
O9 O 0.2193(8) 0.6549(5) 0.1112(5)
C17 C 0.4842(10) 0.3239(6) 0.0045(5)
H13 H 0.5710 0.3184 0.0141
C18 C 0.4350(9) 0.3994(6) 0.0392(5)
C19 C 0.4819(10) 0.4246(7) 0.1009(6)
H15 H 0.5416 0.3935 0.1220
C20 C 0.4424(10) 0.4947(7) 0.1316(6)
H16 H 0.4758 0.5099 0.1729
C21 C 0.3531(9) 0.5432(6) 0.1015(5)
C22 C 0.3050(9) 0.5171(7) 0.0402(6)
H17 H 0.2445 0.5479 0.0194
C23 C 0.3444(10) 0.4471(6) 0.0094(5)
C24 C 0.3114(10) 0.6185(7) 0.1341(6)
Tb3 Tb 0.20671(6) 0.7500 0.20436(3)
Tb1 Tb 0.29329(6) 0.2500 0.70436(3)
O1 O 0.1886(9) 0.2500 0.8056(5)
C1 C 0.1027(12) 0.2500 0.8466(7)
C2 C 0.1337(13) 0.2500 0.9207(7)
C3 C 0.0425(13) 0.2500 0.9697(8)
C7 C 0.2569(13) 0.2500 0.9388(7)
H4 H 0.3175 0.2500 0.9058
H6 H 0.4743 0.1709 0.9560
H10 H 0.3103 0.0685 0.9684
O7 O 0.3902(7) 0.1440(5) 0.7658(5)
H11 H 0.4512 0.1654 0.7857
H12 H 0.3552 0.1143 0.7951
H14 H 0.4743 0.3291 0.9560
H18 H 0.3103 0.4315 0.9684
O10 O 0.3902(7) 0.3560(5) 0.7658(5)
H19 H 0.4512 0.3346 0.7857
H20 H 0.3552 0.3857 0.7951
O11 O 0.4931(10) 0.2500 0.6679(6)
O12 O 0.1357(7) 0.1455(5) 0.6869(4)
O13 O 0.1357(7) 0.3545(5) 0.6869(4)
O14 O 0.2807(8) 0.1549(5) 0.6112(5)
O15 O 0.2807(8) 0.3451(5) 0.6112(5)
O5 O 0.3643(7) 0.8545(5) 0.1869(4)
O6 O 0.2193(8) 0.8451(5) 0.1112(5)
H8 H 0.4758 0.9901 0.1729
C13 C 0.3531(9) 0.9568(6) 0.1015(5)
C14 C 0.3050(9) 0.9829(7) 0.0402(6)
H9 H 0.2445 0.9521 0.0194
C16 C 0.3114(10) 0.8815(7) 0.1341(6)
O2 O 0.9931(10) 0.2500 0.8321(6)
H2 H 0.9604 0.2500 0.9573
Tb4 Tb 0.79329(6) 0.2500 0.79564(3)
H8_2 H 0.0242 0.0099 0.6729
C13_2 C 0.1469(9) 0.0432(6) 0.6015(5)
C14_2 C 0.1950(9) 0.0171(7) 0.5402(6)
H9_2 H 0.2555 0.0479 0.5194
C16_2 C 0.1886(10) 0.1185(7) 0.6341(6)
N1_2 N 0.0823(10) 0.7500 0.5287(6)
O1_2 O 0.3114(9) 0.7500 0.3056(5)
O2_2 O 0.5069(10) 0.7500 0.3321(6)
O3_2 O 0.1593(12) 0.7500 0.6501(6)
H1_2 H 0.1537 0.7500 0.6914
O4_2 O 0.3569(12) 0.7500 0.6732(6)
C1_2 C 0.3973(12) 0.7500 0.3466(7)
C2_2 C 0.3663(13) 0.7500 0.4207(7)
C3_2 C 0.4575(13) 0.7500 0.4697(8)
H2_2 H 0.5396 0.7500 0.4573
C4_2 C 0.4250(13) 0.7500 0.5371(7)
H3_2 H 0.4863 0.7500 0.5698
C5_2 C 0.3025(13) 0.7500 0.5576(7)
C6_2 C 0.2105(12) 0.7500 0.5090(7)
C7_2 C 0.2431(13) 0.7500 0.4388(7)
H4_2 H 0.1825 0.7500 0.4058
C8_2 C 0.2771(15) 0.7500 0.6325(8)
C9_2 C 0.0158(10) 0.8239(6) 0.5045(5)
H6_2 H 0.0257 0.8291 0.4560
C10_2 C 0.0650(9) 0.8994(6) 0.5392(5)
C11_2 C 0.0181(10) 0.9246(7) 0.6009(6)
C12_2 C 0.0576(10) 0.9947(7) 0.6316(6)
C15_2 C 0.1556(10) 0.9471(6) 0.5094(5)
H10_2 H 0.1897 0.9315 0.4684
O7_2 O 0.1098(7) 0.8560(5) 0.2658(5)
H11_2 H 0.0488 0.8346 0.2857
H12_2 H 0.1448 0.8857 0.2951
C17_2 C 0.0158(10) 0.6761(6) 0.5045(5)
H14_2 H 0.0257 0.6709 0.4560
C18_2 C 0.0650(9) 0.6006(6) 0.5392(5)
C19_2 C 0.0181(10) 0.5754(7) 0.6009(6)
C20_2 C 0.0576(10) 0.5053(7) 0.6316(6)
H16_2 H 0.0242 0.4901 0.6729
C21_2 C 0.1469(9) 0.4568(6) 0.6015(5)
C22_2 C 0.1950(9) 0.4829(7) 0.5402(6)
H17_2 H 0.2555 0.4521 0.5194
C23_2 C 0.1556(10) 0.5529(6) 0.5094(5)
H18_2 H 0.1897 0.5685 0.4684
C24_2 C 0.1886(10) 0.3815(7) 0.6341(6)
O10_2 O 0.1098(7) 0.6440(5) 0.2658(5)
H19_2 H 0.0488 0.6654 0.2857
H20_2 H 0.1448 0.6143 0.2951
Tb4_2 Tb 0.70671(6) 0.7500 0.29564(3)
O11_2 O 0.0069(10) 0.7500 0.1679(6)
H2_3 H 0.0396 0.7500 0.0427
O8_2 O 0.6357(7) 0.1455(5) 0.8131(4)
O9_2 O 0.7807(8) 0.1549(5) 0.8888(5)
H16_3 H 0.5242 0.0099 0.8271
C21_3 C 0.6469(9) 0.0432(6) 0.8985(5)
C22_3 C 0.6950(9) 0.0171(7) 0.9598(6)
H17_3 H 0.7555 0.0479 0.9806
C24_3 C 0.6886(10) 0.1185(7) 0.8659(6)
O1_3 O 0.8114(9) 0.7500 0.1944(5)
C1_3 C 0.8973(12) 0.7500 0.1534(7)
C2_3 C 0.8663(13) 0.7500 0.0793(7)
C3_3 C 0.9575(13) 0.7500 0.0303(8)
C7_3 C 0.7431(13) 0.7500 0.0612(7)
H4_3 H 0.6825 0.7500 0.0942
H6_3 H 0.5257 0.6709 0.0440
H10_3 H 0.6897 0.5685 0.0316
O7_3 O 0.6098(7) 0.6440(5) 0.2342(5)
H11_3 H 0.5488 0.6654 0.2143
H12_3 H 0.6448 0.6143 0.2049
H14_3 H 0.5257 0.8291 0.0440
H18_3 H 0.6897 0.9315 0.0316
O10_3 O 0.6098(7) 0.8560(5) 0.2342(5)
H19_3 H 0.5488 0.8346 0.2143
H20_3 H 0.6448 0.8857 0.2049
O12_2 O 0.8643(7) 0.6455(5) 0.3131(4)
O13_2 O 0.8643(7) 0.8545(5) 0.3131(4)
O14_2 O 0.7193(8) 0.6549(5) 0.3888(5)
O15_2 O 0.7193(8) 0.8451(5) 0.3888(5)
N1_3 N 0.5823(10) 0.7500 0.9713(6)
O3_3 O 0.6593(12) 0.7500 0.8499(6)
H1_3 H 0.6537 0.7500 0.8086
O4_3 O 0.8569(12) 0.7500 0.8268(6)
O5_2 O 0.6357(7) 0.3545(5) 0.8131(4)
O6_2 O 0.7807(8) 0.3451(5) 0.8888(5)
C4_3 C 0.9250(13) 0.7500 0.9629(7)
H3_3 H 0.9863 0.7500 0.9302
C5_3 C 0.8025(13) 0.7500 0.9424(7)
C6_3 C 0.7105(12) 0.7500 0.9910(7)
C8_3 C 0.7771(15) 0.7500 0.8675(8)
C9_3 C 0.5158(10) 0.6761(6) 0.9955(5)
H5_2 H 0.4290 0.6816 0.9859
C10_3 C 0.5650(9) 0.6006(6) 0.9608(5)
C11_3 C 0.5181(10) 0.5754(7) 0.8991(6)
H7_2 H 0.4584 0.6065 0.8780
C12_3 C 0.5576(10) 0.5053(7) 0.8684(6)
H8_3 H 0.5242 0.4901 0.8271
C13_3 C 0.6469(9) 0.4568(6) 0.8985(5)
C14_3 C 0.6950(9) 0.4829(7) 0.9598(6)
H9_3 H 0.7555 0.4521 0.9806
C15_3 C 0.6556(10) 0.5529(6) 0.9906(5)
C16_3 C 0.6886(10) 0.3815(7) 0.8659(6)
C17_3 C 0.5158(10) 0.8239(6) 0.9955(5)
H13_2 H 0.4290 0.8184 0.9859
C18_3 C 0.5650(9) 0.8994(6) 0.9608(5)
C19_3 C 0.5181(10) 0.9246(7) 0.8991(6)
H15_2 H 0.4584 0.8935 0.8780
C20_3 C 0.5576(10) 0.9947(7) 0.8684(6)
C23_3 C 0.6556(10) 0.9471(6) 0.9906(5)
N1_4 N 0.9177(10) 0.2500 0.4713(6)
O1_4 O 0.6886(9) 0.2500 0.6944(5)
O3_4 O 0.8407(12) 0.2500 0.3499(6)
H1_4 H 0.8463 0.2500 0.3086
O4_4 O 0.6431(12) 0.2500 0.3268(6)
C1_4 C 0.6027(12) 0.2500 0.6534(7)
C2_4 C 0.6337(13) 0.2500 0.5793(7)
C3_4 C 0.5425(13) 0.2500 0.5303(8)
H2_4 H 0.4604 0.2500 0.5427
C4_4 C 0.5750(13) 0.2500 0.4629(7)
H3_4 H 0.5137 0.2500 0.4302
C5_4 C 0.6975(13) 0.2500 0.4424(7)
C6_4 C 0.7895(12) 0.2500 0.4910(7)
C7_4 C 0.7569(13) 0.2500 0.5612(7)
H4_4 H 0.8175 0.2500 0.5942
C8_4 C 0.7229(15) 0.2500 0.3675(8)
C9_4 C 0.9842(10) 0.3239(6) 0.4955(5)
H6_4 H 0.9743 0.3291 0.5440
C10_4 C 0.9350(9) 0.3994(6) 0.4608(5)
C11_4 C 0.9819(10) 0.4246(7) 0.3991(6)
C12_4 C 0.9424(10) 0.4947(7) 0.3684(6)
H8_4 H 0.9758 0.5099 0.3271
C13_4 C 0.8531(9) 0.5432(6) 0.3985(5)
C14_4 C 0.8050(9) 0.5171(7) 0.4598(6)
H9_4 H 0.7445 0.5479 0.4806
C15_4 C 0.8444(10) 0.4471(6) 0.4906(5)
H10_4 H 0.8103 0.4315 0.5316
C16_4 C 0.8114(10) 0.6185(7) 0.3659(6)
O7_4 O 0.8902(7) 0.3560(5) 0.7342(5)
H11_4 H 0.9512 0.3346 0.7143
H12_4 H 0.8552 0.3857 0.7049
C17_4 C 0.9842(10) 0.1761(6) 0.4955(5)
H14_4 H 0.9743 0.1709 0.5440
C18_4 C 0.9350(9) 0.1006(6) 0.4608(5)
C19_4 C 0.9819(10) 0.0754(7) 0.3991(6)
C20_4 C 0.9424(10) 0.0053(7) 0.3684(6)
C23_4 C 0.8444(10) 0.0529(6) 0.4906(5)
H18_4 H 0.8103 0.0685 0.5316
O10_4 O 0.8902(7) 0.1440(5) 0.7342(5)
H19_4 H 0.9512 0.1654 0.7143
H20_4 H 0.8552 0.1143 0.7049
H16_4 H 0.9758 0.9901 0.3271
C21_4 C 0.8531(9) 0.9568(6) 0.3985(5)
C22_4 C 0.8050(9) 0.9829(7) 0.4598(6)
H17_4 H 0.7445 0.9521 0.4806
C24_4 C 0.8114(10) 0.8815(7) 0.3659(6)
H5_3 H 0.9290 0.8184 0.5141
H7_3 H 0.9584 0.8935 0.6220
H13_3 H 0.9290 0.6816 0.5141
H15_3 H 0.9584 0.6065 0.6220
H5_4 H 0.0710 0.3184 0.4859
H7_4 H 0.0416 0.3935 0.3780
H13_4 H 0.0710 0.1816 0.4859
H15_4 H 0.0416 0.1065 0.3780
loop_
_geom_bond_atom_site_label_1
_geom_bond_atom_site_label_2
_geom_bond_site_symmetry_1
_geom_bond_site_symmetry_2
N1 C6 1_555 1_555
O3 H1 1_555 1_555
O4 C8 1_555 1_555
H3 C4 1_555 1_555
C5 C4 1_555 1_555
C6 C5 1_555 1_555
C8 O3 1_555 1_555
C9 N1 1_555 1_555
H5 C9 1_555 1_555
C10 C9 1_555 1_555
C11 C10 1_555 1_555
H7 C11 1_555 1_555
C12 C11 1_555 1_555
C15 C10 1_555 1_555
O8 C24 1_555 1_555
O9 C24 1_555 1_555
C17 N1 1_555 1_555
H13 C17 1_555 1_555
C18 C17 1_555 1_555
C19 C18 1_555 1_555
H15 C19 1_555 1_555
C20 C19 1_555 1_555
H16 C20 1_555 1_555
C21 C20 1_555 1_555
C22 C21 1_555 1_555
H17 C22 1_555 1_555
C23 C18 1_555 1_555
C24 C21 1_555 1_555
Tb3 O8 1_555 1_555
C5 C8 1_555 1_555
O9 Tb3 1_555 1_555
C22 C23 1_555 1_555
Tb1 O1 1_555 1_555
O1 C1 1_555 1_555
C1 C2 1_555 1_555
C2 C3 1_555 1_555
C7 C2 1_555 1_555
H4 C7 1_555 1_555
O7 Tb1 1_555 1_555
H11 O7 1_555 1_555
H12 O7 1_555 1_555
O10 Tb1 1_555 1_555
H19 O10 1_555 1_555
H20 O10 1_555 1_555
O11 Tb1 1_555 1_555
O12 Tb1 1_555 1_555
O13 Tb1 1_555 1_555
O14 Tb1 1_555 1_555
O15 Tb1 1_555 1_555
O5 C16 1_555 1_555
O6 C16 1_555 1_555
C14 C13 1_555 1_555
H9 C14 1_555 1_555
C16 C13 1_555 1_555
Tb3 O5 1_555 1_555
O6 Tb3 1_555 1_555
Tb4 O2 1_555 1_555
O12 C16_2 1_555 1_555
O14 C16_2 1_555 1_555
C14_2 C13_2 1_555 1_555
H9_2 C14_2 1_555 1_555
C16_2 C13_2 1_555 1_555
N1_2 C6_2 1_555 1_555
Tb3 O1_2 1_555 1_555
O1_2 C1_2 1_555 1_555
O2_2 C1_2 1_555 1_555
O3_2 H1_2 1_555 1_555
O4_2 C8_2 1_555 1_555
C1_2 C2_2 1_555 1_555
C2_2 C3_2 1_555 1_555
C3_2 H2_2 1_555 1_555
C4_2 C3_2 1_555 1_555
H3_2 C4_2 1_555 1_555
C5_2 C4_2 1_555 1_555
C6_2 C5_2 1_555 1_555
C7_2 C2_2 1_555 1_555
H4_2 C7_2 1_555 1_555
C8_2 O3_2 1_555 1_555
C9_2 N1_2 1_555 1_555
H6_2 C9_2 1_555 1_555
C10_2 C9_2 1_555 1_555
C11_2 C10_2 1_555 1_555
C12_2 C11_2 1_555 1_555
C15_2 C10_2 1_555 1_555
H10_2 C15_2 1_555 1_555
O7_2 Tb3 1_555 1_555
H11_2 O7_2 1_555 1_555
H12_2 O7_2 1_555 1_555
O13 C24_2 1_555 1_555
O15 C24_2 1_555 1_555
C17_2 N1_2 1_555 1_555
H14_2 C17_2 1_555 1_555
C18_2 C17_2 1_555 1_555
C19_2 C18_2 1_555 1_555
C20_2 C19_2 1_555 1_555
H16_2 C20_2 1_555 1_555
C21_2 C20_2 1_555 1_555
C22_2 C21_2 1_555 1_555
H17_2 C22_2 1_555 1_555
C23_2 C18_2 1_555 1_555
H18_2 C23_2 1_555 1_555
C24_2 C21_2 1_555 1_555
O10_2 Tb3 1_555 1_555
H19_2 O10_2 1_555 1_555
H20_2 O10_2 1_555 1_555
Tb4_2 O2_2 1_555 1_555
O11_2 Tb3 1_555 1_555
C5_2 C8_2 1_555 1_555
C6_2 C7_2 1_555 1_555
C22_2 C23_2 1_555 1_555
O8_2 C24_3 1_555 1_555
O9_2 C24_3 1_555 1_555
C22_3 C21_3 1_555 1_555
H17_3 C22_3 1_555 1_555
C24_3 C21_3 1_555 1_555
Tb4 O8_2 1_555 1_555
O9_2 Tb4 1_555 1_555
Tb4_2 O1_3 1_555 1_555
O1_3 C1_3 1_555 1_555
C1_3 C2_3 1_555 1_555
C2_3 C3_3 1_555 1_555
C7_3 C2_3 1_555 1_555
H4_3 C7_3 1_555 1_555
O7_3 Tb4_2 1_555 1_555
H11_3 O7_3 1_555 1_555
H12_3 O7_3 1_555 1_555
O10_3 Tb4_2 1_555 1_555
H19_3 O10_3 1_555 1_555
H20_3 O10_3 1_555 1_555
O12_2 Tb4_2 1_555 1_555
O13_2 Tb4_2 1_555 1_555
O14_2 Tb4_2 1_555 1_555
O15_2 Tb4_2 1_555 1_555
N1_3 C6_3 1_555 1_555
O3_3 H1_3 1_555 1_555
O4_3 C8_3 1_555 1_555
O5_2 C16_3 1_555 1_555
O6_2 C16_3 1_555 1_555
H3_3 C4_3 1_555 1_555
C5_3 C4_3 1_555 1_555
C6_3 C5_3 1_555 1_555
C8_3 O3_3 1_555 1_555
C9_3 N1_3 1_555 1_555
H5_2 C9_3 1_555 1_555
C10_3 C9_3 1_555 1_555
C11_3 C10_3 1_555 1_555
H7_2 C11_3 1_555 1_555
C12_3 C11_3 1_555 1_555
H8_3 C12_3 1_555 1_555
C13_3 C12_3 1_555 1_555
C14_3 C13_3 1_555 1_555
H9_3 C14_3 1_555 1_555
C15_3 C10_3 1_555 1_555
C16_3 C13_3 1_555 1_555
C17_3 N1_3 1_555 1_555
H13_2 C17_3 1_555 1_555
C18_3 C17_3 1_555 1_555
C19_3 C18_3 1_555 1_555
H15_2 C19_3 1_555 1_555
C20_3 C19_3 1_555 1_555
C23_3 C18_3 1_555 1_555
Tb4 O5_2 1_555 1_555
O6_2 Tb4 1_555 1_555
C5_3 C8_3 1_555 1_555
C14_3 C15_3 1_555 1_555
N1_4 C6_4 1_555 1_555
Tb4 O1_4 1_555 1_555
O1_4 C1_4 1_555 1_555
O11 C1_4 1_555 1_555
O3_4 H1_4 1_555 1_555
O4_4 C8_4 1_555 1_555
O12_2 C16_4 1_555 1_555
O14_2 C16_4 1_555 1_555
C1_4 C2_4 1_555 1_555
C2_4 C3_4 1_555 1_555
C3_4 H2_4 1_555 1_555
C4_4 C3_4 1_555 1_555
H3_4 C4_4 1_555 1_555
C5_4 C4_4 1_555 1_555
C6_4 C5_4 1_555 1_555
C7_4 C2_4 1_555 1_555
H4_4 C7_4 1_555 1_555
C8_4 O3_4 1_555 1_555
C9_4 N1_4 1_555 1_555
H6_4 C9_4 1_555 1_555
C10_4 C9_4 1_555 1_555
C11_4 C10_4 1_555 1_555
C12_4 C11_4 1_555 1_555
H8_4 C12_4 1_555 1_555
C13_4 C12_4 1_555 1_555
C14_4 C13_4 1_555 1_555
H9_4 C14_4 1_555 1_555
C15_4 C10_4 1_555 1_555
H10_4 C15_4 1_555 1_555
C16_4 C13_4 1_555 1_555
O7_4 Tb4 1_555 1_555
H11_4 O7_4 1_555 1_555
H12_4 O7_4 1_555 1_555
C17_4 N1_4 1_555 1_555
H14_4 C17_4 1_555 1_555
C18_4 C17_4 1_555 1_555
C19_4 C18_4 1_555 1_555
C20_4 C19_4 1_555 1_555
C23_4 C18_4 1_555 1_555
H18_4 C23_4 1_555 1_555
O10_4 Tb4 1_555 1_555
H19_4 O10_4 1_555 1_555
H20_4 O10_4 1_555 1_555
C5_4 C8_4 1_555 1_555
C6_4 C7_4 1_555 1_555
C14_4 C15_4 1_555 1_555
O13_2 C24_4 1_555 1_555
O15_2 C24_4 1_555 1_555
C22_4 C21_4 1_555 1_555
H17_4 C22_4 1_555 1_555
C24_4 C21_4 1_555 1_555

#END
