
###############################################################################
#
# This file contains modified crystal structure data generated from the
# MOF subset of the Cambridge Structural Database (CSD) v543 
# hosted by the Cambridge Crystallographic Data Centre (CCDC).
#
# This work is licensed under the Creative Commons
# Attribution-NonCommercial-ShareAlike 4.0 International License.
# To view a copy of this license, visit
# http://creativecommons.org/licenses/by-nc-sa/4.0/
# or send a letter to
# Creative Commons, PO Box 1866, Mountain View, CA 94042, USA.
#
# CIF created using the CSD Python API on 29 September 2022
# The structure has been converted into the P1 space group
# The structure has a 3D framework
# The original CSD entry TORJIV is in the orthorhombic crystal system
# The framework has been calculated to contain at least 10.0% void space
# The void calculation uses a probe of radius 1.32A, grid spacing 0.4
#
###############################################################################

data_TORJIV
_chemical_formula_moiety         '(C96 H80 N4 O38 Tb4)n'
_symmetry_cell_setting           triclinic
_symmetry_space_group_name_H-M   'P 1'
_symmetry_Int_Tables_number      1
_space_group_name_Hall           'P 1'
loop_
_symmetry_equiv_pos_site_id
_symmetry_equiv_pos_as_xyz
1 x,y,z
_cell_length_a                   10.902(9)
_cell_length_b                   16.715(12)
_cell_length_c                   19.201(15)
_cell_angle_alpha                90
_cell_angle_beta                 90
_cell_angle_gamma                90
_cell_volume                     3498.94
loop_
_atom_site_label
_atom_site_type_symbol
_atom_site_fract_x
_atom_site_fract_y
_atom_site_fract_z
H6 H 0.0733 0.1806 0.4818
H7 H 0.0385 0.1065 0.3701
H14 H 0.0733 0.3194 0.4818
H15 H 0.0385 0.3935 0.3701
N1 N 0.9225(8) 0.2500 0.4633(6)
Tb1 Tb 0.79233(5) 0.2500 0.79635(3)
O1 O 0.6892(10) 0.2500 0.6941(5)
O2 O 0.4900(7) 0.2500 0.6640(5)
O3 O 0.8495(11) 0.2500 0.3383(6)
H1 H 0.8544 0.2500 0.2957
O4 O 0.6479(17) 0.2500 0.3149(8)
C1 C 0.6065(13) 0.2500 0.6514(8)
C2 C 0.6350(10) 0.2500 0.5715(7)
C3 C 0.5444(12) 0.2500 0.5229(9)
H2 H 0.4621 0.2500 0.5358
C4 C 0.5787(14) 0.2500 0.4544(10)
H3 H 0.5183 0.2500 0.4203
C5 C 0.7020(11) 0.2500 0.4342(8)
C6 C 0.7916(9) 0.2500 0.4859(8)
C7 C 0.7579(11) 0.2500 0.5536(7)
H4 H 0.8175 0.2500 0.5883
C8 C 0.7303(16) 0.2500 0.3573(11)
C9 C 0.9860(8) 0.1767(5) 0.4911(5)
H5 H 0.9748 0.1740 0.5412
C10 C 0.9354(7) 0.1004(5) 0.4576(5)
C11 C 0.9804(9) 0.0758(6) 0.3933(6)
C12 C 0.9377(9) 0.0047(5) 0.3640(6)
C15 C 0.8508(9) 0.0549(5) 0.4928(6)
H10 H 0.8217 0.0715 0.5360
O7 O 0.8910(6) 0.1468(4) 0.7321(5)
H11 H 0.8580 0.1211 0.6988
H12 H 0.9754 0.1426 0.7454
O8 O 0.8651(6) 0.6480(4) 0.3135(4)
O9 O 0.7201(6) 0.6555(5) 0.3932(4)
C17 C 0.9860(8) 0.3233(5) 0.4911(5)
H13 H 0.9748 0.3260 0.5412
C18 C 0.9354(7) 0.3996(5) 0.4576(5)
C19 C 0.9804(9) 0.4242(6) 0.3933(6)
C20 C 0.9377(9) 0.4953(5) 0.3640(6)
H16 H 0.9665 0.5110 0.3205
C21 C 0.8536(7) 0.5428(5) 0.3983(5)
C22 C 0.8082(8) 0.5174(6) 0.4628(6)
H17 H 0.7499 0.5480 0.4860
C23 C 0.8508(9) 0.4451(5) 0.4928(6)
H18 H 0.8217 0.4285 0.5360
C24 C 0.8122(8) 0.6179(5) 0.3676(6)
O10 O 0.8910(6) 0.3532(4) 0.7321(5)
H19 H 0.8580 0.3789 0.6988
H20 H 0.9754 0.3574 0.7454
Tb3 Tb 0.70767(5) 0.7500 0.29635(3)
Tb4 Tb 0.29233(5) 0.2500 0.70365(3)
O11 O 0.9900(7) 0.2500 0.8360(5)
O12 O 0.6349(6) 0.1480(4) 0.8135(4)
O13 O 0.6349(6) 0.3520(4) 0.8135(4)
O14 O 0.7799(6) 0.1555(5) 0.8932(4)
O15 O 0.7799(6) 0.3445(5) 0.8932(4)
O5 O 0.8651(6) 0.8520(4) 0.3135(4)
O6 O 0.7201(6) 0.8445(5) 0.3932(4)
H8 H 0.9665 0.9890 0.3205
C13 C 0.8536(7) 0.9572(5) 0.3983(5)
C14 C 0.8082(8) 0.9826(6) 0.4628(6)
H9 H 0.7499 0.9520 0.4860
C16 C 0.8122(8) 0.8821(5) 0.3676(6)
O2_2 O 0.0100(7) 0.7500 0.1640(5)
H2_2 H 0.0379 0.7500 0.0358
Tb4_2 Tb 0.20767(5) 0.7500 0.20365(3)
H8_2 H 0.5335 0.0110 0.8205
C13_2 C 0.6464(7) 0.0428(5) 0.8983(5)
C14_2 C 0.6918(8) 0.0174(6) 0.9628(6)
H9_2 H 0.7501 0.0480 0.9860
C16_2 C 0.6878(8) 0.1179(5) 0.8676(6)
O1_2 O 0.8108(10) 0.7500 0.1941(5)
C1_2 C 0.8935(13) 0.7500 0.1514(8)
C2_2 C 0.8650(10) 0.7500 0.0715(7)
C3_2 C 0.9556(12) 0.7500 0.0229(9)
C7_2 C 0.7421(11) 0.7500 0.0536(7)
H4_2 H 0.6825 0.7500 0.0883
H5_2 H 0.5252 0.8260 0.0412
H10_2 H 0.6783 0.9285 0.0360
O7_2 O 0.6090(6) 0.8532(4) 0.2321(5)
H11_2 H 0.6420 0.8789 0.1988
H12_2 H 0.5246 0.8574 0.2454
H13_2 H 0.5252 0.6740 0.0412
H18_2 H 0.6783 0.5715 0.0360
O10_2 O 0.6090(6) 0.6468(4) 0.2321(5)
H19_2 H 0.6420 0.6211 0.1988
H20_2 H 0.5246 0.6426 0.2454
O11_2 O 0.5100(7) 0.7500 0.3360(5)
N1_2 N 0.5775(8) 0.7500 0.9633(6)
O3_2 O 0.6505(11) 0.7500 0.8383(6)
H1_2 H 0.6456 0.7500 0.7957
O4_2 O 0.8521(17) 0.7500 0.8149(8)
C4_2 C 0.9213(14) 0.7500 0.9544(10)
H3_2 H 0.9817 0.7500 0.9203
C5_2 C 0.7980(11) 0.7500 0.9342(8)
C6_2 C 0.7084(9) 0.7500 0.9859(8)
C8_2 C 0.7697(16) 0.7500 0.8573(11)
C9_2 C 0.5140(8) 0.8233(5) 0.9911(5)
H6_2 H 0.4267 0.8194 0.9818
C10_2 C 0.5646(7) 0.8996(5) 0.9576(5)
C11_2 C 0.5196(9) 0.9242(6) 0.8933(6)
H7_2 H 0.4615 0.8935 0.8701
C12_2 C 0.5623(9) 0.9953(5) 0.8640(6)
C15_2 C 0.6492(9) 0.9451(5) 0.9928(6)
C17_2 C 0.5140(8) 0.6767(5) 0.9911(5)
H14_2 H 0.4267 0.6806 0.9818
C18_2 C 0.5646(7) 0.6004(5) 0.9576(5)
C19_2 C 0.5196(9) 0.5758(6) 0.8933(6)
H15_2 H 0.4615 0.6065 0.8701
C20_2 C 0.5623(9) 0.5047(5) 0.8640(6)
H16_2 H 0.5335 0.4890 0.8205
C21_2 C 0.6464(7) 0.4572(5) 0.8983(5)
C22_2 C 0.6918(8) 0.4826(6) 0.9628(6)
H17_2 H 0.7501 0.4520 0.9860
C23_2 C 0.6492(9) 0.5549(5) 0.9928(6)
C24_2 C 0.6878(8) 0.3821(5) 0.8676(6)
O8_2 O 0.1349(6) 0.1480(4) 0.6865(4)
O9_2 O 0.2799(6) 0.1555(5) 0.6068(4)
H16_3 H 0.0335 0.0110 0.6795
C21_3 C 0.1464(7) 0.0428(5) 0.6017(5)
C22_3 C 0.1918(8) 0.0174(6) 0.5372(6)
H17_3 H 0.2501 0.0480 0.5140
C24_3 C 0.1878(8) 0.1179(5) 0.6324(6)
N1_3 N 0.0775(8) 0.7500 0.5367(6)
O1_3 O 0.3108(10) 0.7500 0.3059(5)
O3_3 O 0.1505(11) 0.7500 0.6617(6)
H1_3 H 0.1456 0.7500 0.7043
O4_3 O 0.3521(17) 0.7500 0.6851(8)
O5_2 O 0.1349(6) 0.3520(4) 0.6865(4)
O6_2 O 0.2799(6) 0.3445(5) 0.6068(4)
C1_3 C 0.3935(13) 0.7500 0.3486(8)
C2_3 C 0.3650(10) 0.7500 0.4285(7)
C3_3 C 0.4556(12) 0.7500 0.4771(9)
H2_3 H 0.5379 0.7500 0.4642
C4_3 C 0.4213(14) 0.7500 0.5456(10)
H3_3 H 0.4817 0.7500 0.5797
C5_3 C 0.2980(11) 0.7500 0.5658(8)
C6_3 C 0.2084(9) 0.7500 0.5141(8)
C7_3 C 0.2421(11) 0.7500 0.4464(7)
H4_3 H 0.1825 0.7500 0.4117
C8_3 C 0.2697(16) 0.7500 0.6427(11)
C9_3 C 0.0140(8) 0.6767(5) 0.5089(5)
H5_3 H 0.0252 0.6740 0.4588
C10_3 C 0.0646(7) 0.6004(5) 0.5424(5)
C11_3 C 0.0196(9) 0.5758(6) 0.6067(6)
C12_3 C 0.0623(9) 0.5047(5) 0.6360(6)
H8_3 H 0.0335 0.4890 0.6795
C13_3 C 0.1464(7) 0.4572(5) 0.6017(5)
C14_3 C 0.1918(8) 0.4826(6) 0.5372(6)
H9_3 H 0.2501 0.4520 0.5140
C15_3 C 0.1492(9) 0.5549(5) 0.5072(6)
H10_3 H 0.1783 0.5715 0.4640
C16_3 C 0.1878(8) 0.3821(5) 0.6324(6)
O7_3 O 0.1090(6) 0.6468(4) 0.2679(5)
H11_3 H 0.1420 0.6211 0.3012
H12_3 H 0.0246 0.6426 0.2546
C17_3 C 0.0140(8) 0.8233(5) 0.5089(5)
H13_3 H 0.0252 0.8260 0.4588
C18_3 C 0.0646(7) 0.8996(5) 0.5424(5)
C19_3 C 0.0196(9) 0.9242(6) 0.6067(6)
C20_3 C 0.0623(9) 0.9953(5) 0.6360(6)
C23_3 C 0.1492(9) 0.9451(5) 0.5072(6)
H18_3 H 0.1783 0.9285 0.4640
O10_3 O 0.1090(6) 0.8532(4) 0.2679(5)
H19_3 H 0.1420 0.8789 0.3012
H20_3 H 0.0246 0.8574 0.2546
O12_2 O 0.3651(6) 0.6480(4) 0.1865(4)
O13_2 O 0.3651(6) 0.8520(4) 0.1865(4)
O14_2 O 0.2201(6) 0.6555(5) 0.1068(4)
O15_2 O 0.2201(6) 0.8445(5) 0.1068(4)
N1_4 N 0.4225(8) 0.2500 0.0367(6)
O3_4 O 0.3495(11) 0.2500 0.1617(6)
H1_4 H 0.3544 0.2500 0.2043
O4_4 O 0.1479(17) 0.2500 0.1851(8)
C4_4 C 0.0787(14) 0.2500 0.0456(10)
H3_4 H 0.0183 0.2500 0.0797
C5_4 C 0.2020(11) 0.2500 0.0658(8)
C6_4 C 0.2916(9) 0.2500 0.0141(8)
C8_4 C 0.2303(16) 0.2500 0.1427(11)
C9_4 C 0.4860(8) 0.3233(5) 0.0089(5)
H6_3 H 0.5733 0.3194 0.0182
C10_4 C 0.4354(7) 0.3996(5) 0.0424(5)
C11_4 C 0.4804(9) 0.4242(6) 0.1067(6)
H7_3 H 0.5385 0.3935 0.1299
C12_4 C 0.4377(9) 0.4953(5) 0.1360(6)
H8_4 H 0.4665 0.5110 0.1795
C13_4 C 0.3536(7) 0.5428(5) 0.1017(5)
C14_4 C 0.3082(8) 0.5174(6) 0.0372(6)
H9_4 H 0.2499 0.5480 0.0140
C15_4 C 0.3508(9) 0.4451(5) 0.0072(6)
C16_4 C 0.3122(8) 0.6179(5) 0.1324(6)
C17_4 C 0.4860(8) 0.1767(5) 0.0089(5)
H14_3 H 0.5733 0.1806 0.0182
C18_4 C 0.4354(7) 0.1004(5) 0.0424(5)
C19_4 C 0.4804(9) 0.0758(6) 0.1067(6)
H15_3 H 0.5385 0.1065 0.1299
C20_4 C 0.4377(9) 0.0047(5) 0.1360(6)
C23_4 C 0.3508(9) 0.0549(5) 0.0072(6)
O1_4 O 0.1892(10) 0.2500 0.8059(5)
C1_4 C 0.1065(13) 0.2500 0.8486(8)
C2_4 C 0.1350(10) 0.2500 0.9285(7)
C3_4 C 0.0444(12) 0.2500 0.9771(9)
C7_4 C 0.2579(11) 0.2500 0.9464(7)
H4_4 H 0.3175 0.2500 0.9117
H5_4 H 0.4748 0.3260 0.9588
H10_4 H 0.3217 0.4285 0.9640
O7_4 O 0.3910(6) 0.3532(4) 0.7679(5)
H11_4 H 0.3580 0.3789 0.8012
H12_4 H 0.4754 0.3574 0.7546
H13_4 H 0.4748 0.1740 0.9588
H18_4 H 0.3217 0.0715 0.9640
O10_4 O 0.3910(6) 0.1468(4) 0.7679(5)
H19_4 H 0.3580 0.1211 0.8012
H20_4 H 0.4754 0.1426 0.7546
H16_4 H 0.4665 0.9890 0.1795
C21_4 C 0.3536(7) 0.9572(5) 0.1017(5)
C22_4 C 0.3082(8) 0.9826(6) 0.0372(6)
H17_4 H 0.2499 0.9520 0.0140
C24_4 C 0.3122(8) 0.8821(5) 0.1324(6)
H2_4 H 0.9621 0.2500 0.9642
H6_4 H 0.9267 0.6806 0.5182
H7_4 H 0.9615 0.6065 0.6299
H14_4 H 0.9267 0.8194 0.5182
H15_4 H 0.9615 0.8935 0.6299
loop_
_geom_bond_atom_site_label_1
_geom_bond_atom_site_label_2
_geom_bond_site_symmetry_1
_geom_bond_site_symmetry_2
N1 C6 1_555 1_555
Tb1 O1 1_555 1_555
O1 C1 1_555 1_555
O2 C1 1_555 1_555
O3 H1 1_555 1_555
O4 C8 1_555 1_555
C1 C2 1_555 1_555
C2 C3 1_555 1_555
C3 H2 1_555 1_555
C4 C3 1_555 1_555
H3 C4 1_555 1_555
C5 C4 1_555 1_555
C6 C5 1_555 1_555
C7 C2 1_555 1_555
H4 C7 1_555 1_555
C8 O3 1_555 1_555
C9 N1 1_555 1_555
H5 C9 1_555 1_555
C10 C9 1_555 1_555
C11 C10 1_555 1_555
C12 C11 1_555 1_555
C15 C10 1_555 1_555
H10 C15 1_555 1_555
O7 Tb1 1_555 1_555
H11 O7 1_555 1_555
H12 O7 1_555 1_555
O8 C24 1_555 1_555
O9 C24 1_555 1_555
C17 N1 1_555 1_555
H13 C17 1_555 1_555
C18 C17 1_555 1_555
C19 C18 1_555 1_555
C20 C19 1_555 1_555
H16 C20 1_555 1_555
C21 C20 1_555 1_555
C22 C21 1_555 1_555
H17 C22 1_555 1_555
C23 C18 1_555 1_555
H18 C23 1_555 1_555
C24 C21 1_555 1_555
O10 Tb1 1_555 1_555
H19 O10 1_555 1_555
H20 O10 1_555 1_555
Tb3 O8 1_555 1_555
Tb4 O2 1_555 1_555
O11 Tb1 1_555 1_555
O12 Tb1 1_555 1_555
O13 Tb1 1_555 1_555
O14 Tb1 1_555 1_555
O15 Tb1 1_555 1_555
C5 C8 1_555 1_555
C6 C7 1_555 1_555
O9 Tb3 1_555 1_555
C22 C23 1_555 1_555
O5 C16 1_555 1_555
O6 C16 1_555 1_555
C14 C13 1_555 1_555
H9 C14 1_555 1_555
C16 C13 1_555 1_555
Tb3 O5 1_555 1_555
O6 Tb3 1_555 1_555
Tb4_2 O2_2 1_555 1_555
O12 C16_2 1_555 1_555
O14 C16_2 1_555 1_555
C14_2 C13_2 1_555 1_555
H9_2 C14_2 1_555 1_555
C16_2 C13_2 1_555 1_555
Tb3 O1_2 1_555 1_555
O1_2 C1_2 1_555 1_555
C1_2 C2_2 1_555 1_555
C2_2 C3_2 1_555 1_555
C7_2 C2_2 1_555 1_555
H4_2 C7_2 1_555 1_555
O7_2 Tb3 1_555 1_555
H11_2 O7_2 1_555 1_555
H12_2 O7_2 1_555 1_555
O10_2 Tb3 1_555 1_555
H19_2 O10_2 1_555 1_555
H20_2 O10_2 1_555 1_555
O11_2 Tb3 1_555 1_555
N1_2 C6_2 1_555 1_555
O3_2 H1_2 1_555 1_555
O4_2 C8_2 1_555 1_555
H3_2 C4_2 1_555 1_555
C5_2 C4_2 1_555 1_555
C6_2 C5_2 1_555 1_555
C8_2 O3_2 1_555 1_555
C9_2 N1_2 1_555 1_555
H6_2 C9_2 1_555 1_555
C10_2 C9_2 1_555 1_555
C11_2 C10_2 1_555 1_555
H7_2 C11_2 1_555 1_555
C12_2 C11_2 1_555 1_555
C15_2 C10_2 1_555 1_555
O13 C24_2 1_555 1_555
O15 C24_2 1_555 1_555
C17_2 N1_2 1_555 1_555
H14_2 C17_2 1_555 1_555
C18_2 C17_2 1_555 1_555
C19_2 C18_2 1_555 1_555
H15_2 C19_2 1_555 1_555
C20_2 C19_2 1_555 1_555
H16_2 C20_2 1_555 1_555
C21_2 C20_2 1_555 1_555
C22_2 C21_2 1_555 1_555
H17_2 C22_2 1_555 1_555
C23_2 C18_2 1_555 1_555
C24_2 C21_2 1_555 1_555
C5_2 C8_2 1_555 1_555
C22_2 C23_2 1_555 1_555
O8_2 C24_3 1_555 1_555
O9_2 C24_3 1_555 1_555
C22_3 C21_3 1_555 1_555
H17_3 C22_3 1_555 1_555
C24_3 C21_3 1_555 1_555
Tb4 O8_2 1_555 1_555
O9_2 Tb4 1_555 1_555
N1_3 C6_3 1_555 1_555
Tb4_2 O1_3 1_555 1_555
O1_3 C1_3 1_555 1_555
O11_2 C1_3 1_555 1_555
O3_3 H1_3 1_555 1_555
O4_3 C8_3 1_555 1_555
O5_2 C16_3 1_555 1_555
O6_2 C16_3 1_555 1_555
C1_3 C2_3 1_555 1_555
C2_3 C3_3 1_555 1_555
C3_3 H2_3 1_555 1_555
C4_3 C3_3 1_555 1_555
H3_3 C4_3 1_555 1_555
C5_3 C4_3 1_555 1_555
C6_3 C5_3 1_555 1_555
C7_3 C2_3 1_555 1_555
H4_3 C7_3 1_555 1_555
C8_3 O3_3 1_555 1_555
C9_3 N1_3 1_555 1_555
H5_3 C9_3 1_555 1_555
C10_3 C9_3 1_555 1_555
C11_3 C10_3 1_555 1_555
C12_3 C11_3 1_555 1_555
H8_3 C12_3 1_555 1_555
C13_3 C12_3 1_555 1_555
C14_3 C13_3 1_555 1_555
H9_3 C14_3 1_555 1_555
C15_3 C10_3 1_555 1_555
H10_3 C15_3 1_555 1_555
C16_3 C13_3 1_555 1_555
O7_3 Tb4_2 1_555 1_555
H11_3 O7_3 1_555 1_555
H12_3 O7_3 1_555 1_555
C17_3 N1_3 1_555 1_555
H13_3 C17_3 1_555 1_555
C18_3 C17_3 1_555 1_555
C19_3 C18_3 1_555 1_555
C20_3 C19_3 1_555 1_555
C23_3 C18_3 1_555 1_555
H18_3 C23_3 1_555 1_555
O10_3 Tb4_2 1_555 1_555
H19_3 O10_3 1_555 1_555
H20_3 O10_3 1_555 1_555
Tb4 O5_2 1_555 1_555
O12_2 Tb4_2 1_555 1_555
O13_2 Tb4_2 1_555 1_555
O14_2 Tb4_2 1_555 1_555
O15_2 Tb4_2 1_555 1_555
O6_2 Tb4 1_555 1_555
C5_3 C8_3 1_555 1_555
C6_3 C7_3 1_555 1_555
C14_3 C15_3 1_555 1_555
N1_4 C6_4 1_555 1_555
O3_4 H1_4 1_555 1_555
O4_4 C8_4 1_555 1_555
O12_2 C16_4 1_555 1_555
O14_2 C16_4 1_555 1_555
H3_4 C4_4 1_555 1_555
C5_4 C4_4 1_555 1_555
C6_4 C5_4 1_555 1_555
C8_4 O3_4 1_555 1_555
C9_4 N1_4 1_555 1_555
H6_3 C9_4 1_555 1_555
C10_4 C9_4 1_555 1_555
C11_4 C10_4 1_555 1_555
H7_3 C11_4 1_555 1_555
C12_4 C11_4 1_555 1_555
H8_4 C12_4 1_555 1_555
C13_4 C12_4 1_555 1_555
C14_4 C13_4 1_555 1_555
H9_4 C14_4 1_555 1_555
C15_4 C10_4 1_555 1_555
C16_4 C13_4 1_555 1_555
C17_4 N1_4 1_555 1_555
H14_3 C17_4 1_555 1_555
C18_4 C17_4 1_555 1_555
C19_4 C18_4 1_555 1_555
H15_3 C19_4 1_555 1_555
C20_4 C19_4 1_555 1_555
C23_4 C18_4 1_555 1_555
C5_4 C8_4 1_555 1_555
C14_4 C15_4 1_555 1_555
Tb4 O1_4 1_555 1_555
O1_4 C1_4 1_555 1_555
C1_4 C2_4 1_555 1_555
C2_4 C3_4 1_555 1_555
C7_4 C2_4 1_555 1_555
H4_4 C7_4 1_555 1_555
O7_4 Tb4 1_555 1_555
H11_4 O7_4 1_555 1_555
H12_4 O7_4 1_555 1_555
O10_4 Tb4 1_555 1_555
H19_4 O10_4 1_555 1_555
H20_4 O10_4 1_555 1_555
O13_2 C24_4 1_555 1_555
O15_2 C24_4 1_555 1_555
C22_4 C21_4 1_555 1_555
H17_4 C22_4 1_555 1_555
C24_4 C21_4 1_555 1_555

#END
