
###############################################################################
#
# This file contains modified crystal structure data generated from the
# MOF subset of the Cambridge Structural Database (CSD) v543 
# hosted by the Cambridge Crystallographic Data Centre (CCDC).
#
# This work is licensed under the Creative Commons
# Attribution-NonCommercial-ShareAlike 4.0 International License.
# To view a copy of this license, visit
# http://creativecommons.org/licenses/by-nc-sa/4.0/
# or send a letter to
# Creative Commons, PO Box 1866, Mountain View, CA 94042, USA.
#
# CIF created using the CSD Python API on 29 September 2022
# The structure has been converted into the P1 space group
# The structure has a 3D framework
# The original CSD entry TORJER is in the orthorhombic crystal system
# The framework has been calculated to contain at least 10.0% void space
# The void calculation uses a probe of radius 1.32A, grid spacing 0.4
#
###############################################################################

data_TORJER
_chemical_formula_moiety         '(C96 H80 N4 O38 Tb4)n'
_symmetry_cell_setting           triclinic
_symmetry_space_group_name_H-M   'P 1'
_symmetry_Int_Tables_number      1
_space_group_name_Hall           'P 1'
loop_
_symmetry_equiv_pos_site_id
_symmetry_equiv_pos_as_xyz
1 x,y,z
_cell_length_a                   10.932(3)
_cell_length_b                   16.713(4)
_cell_length_c                   18.893(5)
_cell_angle_alpha                90
_cell_angle_beta                 90
_cell_angle_gamma                90
_cell_volume                     3451.87
loop_
_atom_site_label
_atom_site_type_symbol
_atom_site_fract_x
_atom_site_fract_y
_atom_site_fract_z
N1 N 0.4244(9) 0.2500 0.0350(5)
O3 O 0.3560(11) 0.2500 0.1638(5)
H1 H 0.3640 0.2500 0.2069
O4 O 0.1592(19) 0.2500 0.1926(7)
C4 C 0.0848(14) 0.2500 0.0511(8)
H3 H 0.0257 0.2500 0.0865
C5 C 0.2055(12) 0.2500 0.0703(8)
C6 C 0.2933(9) 0.2500 0.0184(7)
C8 C 0.241(2) 0.2500 0.1479(9)
C9 C 0.4883(8) 0.1754(5) 0.0092(5)
H6 H 0.5747 0.1791 0.0205
C10 C 0.4365(8) 0.1005(5) 0.0421(5)
C11 C 0.4744(9) 0.0752(6) 0.1093(5)
H7 H 0.5286 0.1066 0.1352
C12 C 0.4331(9) 0.0057(6) 0.1368(5)
C15 C 0.3508(9) 0.0543(5) 0.0066(5)
O8 O 0.3629(7) 0.6498(5) 0.1838(4)
O9 O 0.2147(7) 0.6533(5) 0.1081(5)
C17 C 0.4883(8) 0.3246(5) 0.0092(5)
H14 H 0.5747 0.3209 0.0205
C18 C 0.4365(8) 0.3995(5) 0.0421(5)
C19 C 0.4744(9) 0.4248(6) 0.1093(5)
H15 H 0.5286 0.3934 0.1352
C20 C 0.4331(9) 0.4943(6) 0.1368(5)
H16 H 0.4615 0.5104 0.1810
C21 C 0.3504(8) 0.5421(5) 0.1018(5)
C22 C 0.3081(8) 0.5164(6) 0.0366(6)
H17 H 0.2502 0.5468 0.0126
C23 C 0.3508(9) 0.4457(5) 0.0066(5)
C24 C 0.3078(7) 0.6185(6) 0.1317(5)
Tb3 Tb 0.20577(5) 0.7500 0.20461(3)
Tb1 Tb 0.29423(5) 0.2500 0.70461(3)
O1 O 0.1853(10) 0.2500 0.8070(5)
C1 C 0.1004(11) 0.2500 0.8530(7)
C2 C 0.1368(10) 0.2500 0.9280(7)
C3 C 0.0471(13) 0.2500 0.9811(8)
C7 C 0.2576(11) 0.2500 0.9447(6)
H4 H 0.3165 0.2500 0.9092
H5 H 0.4805 0.1721 0.9582
H10 H 0.3218 0.0706 0.9626
O7 O 0.3915(6) 0.1475(5) 0.7715(5)
H11 H 0.4759 0.1433 0.7583
H12 H 0.3868 0.1593 0.8189
H13 H 0.4805 0.3279 0.9582
H18 H 0.3218 0.4294 0.9626
O10 O 0.3915(6) 0.3525(5) 0.7715(5)
H19 H 0.4759 0.3567 0.7583
H20 H 0.3868 0.3407 0.8189
O11 O 0.4889(8) 0.2500 0.6638(5)
O12 O 0.1371(7) 0.1498(5) 0.6838(4)
O13 O 0.1371(7) 0.3502(5) 0.6838(4)
O14 O 0.2853(7) 0.1533(5) 0.6081(5)
O15 O 0.2853(7) 0.3467(5) 0.6081(5)
O5 O 0.3629(7) 0.8502(5) 0.1838(4)
O6 O 0.2147(7) 0.8467(5) 0.1081(5)
H8 H 0.4615 0.9896 0.1810
C13 C 0.3504(8) 0.9579(5) 0.1018(5)
C14 C 0.3081(8) 0.9836(6) 0.0366(6)
H9 H 0.2502 0.9532 0.0126
C16 C 0.3078(7) 0.8815(6) 0.1317(5)
O2 O 0.9889(8) 0.2500 0.8362(5)
H2 H 0.9644 0.2500 0.9696
Tb4 Tb 0.79423(5) 0.2500 0.79539(3)
H8_2 H 0.0385 0.0104 0.6810
C13_2 C 0.1496(8) 0.0421(5) 0.6018(5)
C14_2 C 0.1919(8) 0.0164(6) 0.5366(6)
H9_2 H 0.2498 0.0468 0.5126
C16_2 C 0.1922(7) 0.1185(6) 0.6317(5)
N1_2 N 0.0756(9) 0.7500 0.5350(5)
O1_2 O 0.3147(10) 0.7500 0.3070(5)
O2_2 O 0.5111(8) 0.7500 0.3362(5)
O3_2 O 0.1440(11) 0.7500 0.6638(5)
H1_2 H 0.1360 0.7500 0.7069
O4_2 O 0.3408(19) 0.7500 0.6926(7)
C1_2 C 0.3996(11) 0.7500 0.3530(7)
C2_2 C 0.3632(10) 0.7500 0.4280(7)
C3_2 C 0.4529(13) 0.7500 0.4811(8)
H2_2 H 0.5356 0.7500 0.4696
C4_2 C 0.4152(14) 0.7500 0.5511(8)
H3_2 H 0.4743 0.7500 0.5865
C5_2 C 0.2945(12) 0.7500 0.5703(8)
C6_2 C 0.2067(9) 0.7500 0.5184(7)
C7_2 C 0.2424(11) 0.7500 0.4447(6)
H4_2 H 0.1835 0.7500 0.4092
C8_2 C 0.259(2) 0.7500 0.6479(9)
C9_2 C 0.0117(8) 0.8246(5) 0.5092(5)
H5_2 H 0.0195 0.8279 0.4582
C10_2 C 0.0635(8) 0.8995(5) 0.5421(5)
C11_2 C 0.0256(9) 0.9248(6) 0.6093(5)
C12_2 C 0.0669(9) 0.9943(6) 0.6368(5)
C15_2 C 0.1492(9) 0.9457(5) 0.5066(5)
H10_2 H 0.1782 0.9294 0.4626
O7_2 O 0.1085(6) 0.8525(5) 0.2715(5)
H11_2 H 0.0241 0.8567 0.2583
H12_2 H 0.1132 0.8407 0.3189
C17_2 C 0.0117(8) 0.6754(5) 0.5092(5)
H13_2 H 0.0195 0.6721 0.4582
C18_2 C 0.0635(8) 0.6005(5) 0.5421(5)
C19_2 C 0.0256(9) 0.5752(6) 0.6093(5)
C20_2 C 0.0669(9) 0.5057(6) 0.6368(5)
H16_2 H 0.0385 0.4896 0.6810
C21_2 C 0.1496(8) 0.4579(5) 0.6018(5)
C22_2 C 0.1919(8) 0.4836(6) 0.5366(6)
H17_2 H 0.2498 0.4532 0.5126
C23_2 C 0.1492(9) 0.5543(5) 0.5066(5)
H18_2 H 0.1782 0.5706 0.4626
C24_2 C 0.1922(7) 0.3815(6) 0.6317(5)
O10_2 O 0.1085(6) 0.6475(5) 0.2715(5)
H19_2 H 0.0241 0.6433 0.2583
H20_2 H 0.1132 0.6593 0.3189
Tb4_2 Tb 0.70577(5) 0.7500 0.29539(3)
O11_2 O 0.0111(8) 0.7500 0.1638(5)
H2_3 H 0.0356 0.7500 0.0304
O8_2 O 0.6371(7) 0.1498(5) 0.8162(4)
O9_2 O 0.7853(7) 0.1533(5) 0.8919(5)
H16_3 H 0.5385 0.0104 0.8190
C21_3 C 0.6496(8) 0.0421(5) 0.8982(5)
C22_3 C 0.6919(8) 0.0164(6) 0.9634(6)
H17_3 H 0.7498 0.0468 0.9874
C24_3 C 0.6922(7) 0.1185(6) 0.8683(5)
O1_3 O 0.8147(10) 0.7500 0.1930(5)
C1_3 C 0.8996(11) 0.7500 0.1470(7)
C2_3 C 0.8632(10) 0.7500 0.0720(7)
C3_3 C 0.9529(13) 0.7500 0.0189(8)
C7_3 C 0.7424(11) 0.7500 0.0553(6)
H4_3 H 0.6835 0.7500 0.0908
H5_3 H 0.5195 0.6721 0.0418
H10_3 H 0.6782 0.5706 0.0374
O7_3 O 0.6085(6) 0.6475(5) 0.2285(5)
H11_3 H 0.5241 0.6433 0.2417
H12_3 H 0.6132 0.6593 0.1811
H13_3 H 0.5195 0.8279 0.0418
H18_3 H 0.6782 0.9294 0.0374
O10_3 O 0.6085(6) 0.8525(5) 0.2285(5)
H19_3 H 0.5241 0.8567 0.2417
H20_3 H 0.6132 0.8407 0.1811
O12_2 O 0.8629(7) 0.6498(5) 0.3162(4)
O13_2 O 0.8629(7) 0.8502(5) 0.3162(4)
O14_2 O 0.7147(7) 0.6533(5) 0.3919(5)
O15_2 O 0.7147(7) 0.8467(5) 0.3919(5)
N1_3 N 0.5756(9) 0.7500 0.9650(5)
O3_3 O 0.6440(11) 0.7500 0.8362(5)
H1_3 H 0.6360 0.7500 0.7931
O4_3 O 0.8408(19) 0.7500 0.8074(7)
O5_2 O 0.6371(7) 0.3502(5) 0.8162(4)
O6_2 O 0.7853(7) 0.3467(5) 0.8919(5)
C4_3 C 0.9152(14) 0.7500 0.9489(8)
H3_3 H 0.9743 0.7500 0.9135
C5_3 C 0.7945(12) 0.7500 0.9297(8)
C6_3 C 0.7067(9) 0.7500 0.9816(7)
C8_3 C 0.759(2) 0.7500 0.8521(9)
C9_3 C 0.5117(8) 0.6754(5) 0.9908(5)
H6_2 H 0.4253 0.6791 0.9795
C10_3 C 0.5635(8) 0.6005(5) 0.9579(5)
C11_3 C 0.5256(9) 0.5752(6) 0.8907(5)
H7_2 H 0.4714 0.6066 0.8648
C12_3 C 0.5669(9) 0.5057(6) 0.8632(5)
H8_3 H 0.5385 0.4896 0.8190
C13_3 C 0.6496(8) 0.4579(5) 0.8982(5)
C14_3 C 0.6919(8) 0.4836(6) 0.9634(6)
H9_3 H 0.7498 0.4532 0.9874
C15_3 C 0.6492(9) 0.5543(5) 0.9934(5)
C16_3 C 0.6922(7) 0.3815(6) 0.8683(5)
C17_3 C 0.5117(8) 0.8246(5) 0.9908(5)
H14_2 H 0.4253 0.8209 0.9795
C18_3 C 0.5635(8) 0.8995(5) 0.9579(5)
C19_3 C 0.5256(9) 0.9248(6) 0.8907(5)
H15_2 H 0.4714 0.8934 0.8648
C20_3 C 0.5669(9) 0.9943(6) 0.8632(5)
C23_3 C 0.6492(9) 0.9457(5) 0.9934(5)
N1_4 N 0.9244(9) 0.2500 0.4650(5)
O1_4 O 0.6853(10) 0.2500 0.6930(5)
O3_4 O 0.8560(11) 0.2500 0.3362(5)
H1_4 H 0.8640 0.2500 0.2931
O4_4 O 0.6592(19) 0.2500 0.3074(7)
C1_4 C 0.6004(11) 0.2500 0.6470(7)
C2_4 C 0.6368(10) 0.2500 0.5720(7)
C3_4 C 0.5471(13) 0.2500 0.5189(8)
H2_4 H 0.4644 0.2500 0.5304
C4_4 C 0.5848(14) 0.2500 0.4489(8)
H3_4 H 0.5257 0.2500 0.4135
C5_4 C 0.7055(12) 0.2500 0.4297(8)
C6_4 C 0.7933(9) 0.2500 0.4816(7)
C7_4 C 0.7576(11) 0.2500 0.5553(6)
H4_4 H 0.8165 0.2500 0.5908
C8_4 C 0.741(2) 0.2500 0.3521(9)
C9_4 C 0.9883(8) 0.3246(5) 0.4908(5)
H5_4 H 0.9805 0.3279 0.5418
C10_4 C 0.9365(8) 0.3995(5) 0.4579(5)
C11_4 C 0.9744(9) 0.4248(6) 0.3907(5)
C12_4 C 0.9331(9) 0.4943(6) 0.3632(5)
H8_4 H 0.9615 0.5104 0.3190
C13_4 C 0.8504(8) 0.5421(5) 0.3982(5)
C14_4 C 0.8081(8) 0.5164(6) 0.4634(6)
H9_4 H 0.7502 0.5468 0.4874
C15_4 C 0.8508(9) 0.4457(5) 0.4934(5)
H10_4 H 0.8218 0.4294 0.5374
C16_4 C 0.8078(7) 0.6185(6) 0.3683(5)
O7_4 O 0.8915(6) 0.3525(5) 0.7285(5)
H11_4 H 0.9759 0.3567 0.7417
H12_4 H 0.8868 0.3407 0.6811
C17_4 C 0.9883(8) 0.1754(5) 0.4908(5)
H13_4 H 0.9805 0.1721 0.5418
C18_4 C 0.9365(8) 0.1005(5) 0.4579(5)
C19_4 C 0.9744(9) 0.0752(6) 0.3907(5)
C20_4 C 0.9331(9) 0.0057(6) 0.3632(5)
C23_4 C 0.8508(9) 0.0543(5) 0.4934(5)
H18_4 H 0.8218 0.0706 0.5374
O10_4 O 0.8915(6) 0.1475(5) 0.7285(5)
H19_4 H 0.9759 0.1433 0.7417
H20_4 H 0.8868 0.1593 0.6811
H16_4 H 0.9615 0.9896 0.3190
C21_4 C 0.8504(8) 0.9579(5) 0.3982(5)
C22_4 C 0.8081(8) 0.9836(6) 0.4634(6)
H17_4 H 0.7502 0.9532 0.4874
C24_4 C 0.8078(7) 0.8815(6) 0.3683(5)
H6_3 H 0.9253 0.8209 0.5205
H7_3 H 0.9714 0.8934 0.6352
H14_3 H 0.9253 0.6791 0.5205
H15_3 H 0.9714 0.6066 0.6352
H6_4 H 0.0747 0.3209 0.4795
H7_4 H 0.0286 0.3934 0.3648
H14_4 H 0.0747 0.1791 0.4795
H15_4 H 0.0286 0.1066 0.3648
loop_
_geom_bond_atom_site_label_1
_geom_bond_atom_site_label_2
_geom_bond_site_symmetry_1
_geom_bond_site_symmetry_2
N1 C6 1_555 1_555
O3 H1 1_555 1_555
O4 C8 1_555 1_555
H3 C4 1_555 1_555
C5 C4 1_555 1_555
C6 C5 1_555 1_555
C8 O3 1_555 1_555
C9 N1 1_555 1_555
H6 C9 1_555 1_555
C10 C9 1_555 1_555
C11 C10 1_555 1_555
H7 C11 1_555 1_555
C12 C11 1_555 1_555
C15 C10 1_555 1_555
O8 C24 1_555 1_555
O9 C24 1_555 1_555
C17 N1 1_555 1_555
H14 C17 1_555 1_555
C18 C17 1_555 1_555
C19 C18 1_555 1_555
H15 C19 1_555 1_555
C20 C19 1_555 1_555
H16 C20 1_555 1_555
C21 C20 1_555 1_555
C22 C21 1_555 1_555
H17 C22 1_555 1_555
C23 C18 1_555 1_555
C24 C21 1_555 1_555
Tb3 O8 1_555 1_555
C5 C8 1_555 1_555
O9 Tb3 1_555 1_555
C22 C23 1_555 1_555
Tb1 O1 1_555 1_555
O1 C1 1_555 1_555
C1 C2 1_555 1_555
C2 C3 1_555 1_555
C7 C2 1_555 1_555
H4 C7 1_555 1_555
O7 Tb1 1_555 1_555
H11 O7 1_555 1_555
H12 O7 1_555 1_555
O10 Tb1 1_555 1_555
H19 O10 1_555 1_555
H20 O10 1_555 1_555
O11 Tb1 1_555 1_555
O12 Tb1 1_555 1_555
O13 Tb1 1_555 1_555
O14 Tb1 1_555 1_555
O15 Tb1 1_555 1_555
O5 C16 1_555 1_555
O6 C16 1_555 1_555
C14 C13 1_555 1_555
H9 C14 1_555 1_555
C16 C13 1_555 1_555
Tb3 O5 1_555 1_555
O6 Tb3 1_555 1_555
Tb4 O2 1_555 1_555
O12 C16_2 1_555 1_555
O14 C16_2 1_555 1_555
C14_2 C13_2 1_555 1_555
H9_2 C14_2 1_555 1_555
C16_2 C13_2 1_555 1_555
N1_2 C6_2 1_555 1_555
Tb3 O1_2 1_555 1_555
O1_2 C1_2 1_555 1_555
O2_2 C1_2 1_555 1_555
O3_2 H1_2 1_555 1_555
O4_2 C8_2 1_555 1_555
C1_2 C2_2 1_555 1_555
C2_2 C3_2 1_555 1_555
C3_2 H2_2 1_555 1_555
C4_2 C3_2 1_555 1_555
H3_2 C4_2 1_555 1_555
C5_2 C4_2 1_555 1_555
C6_2 C5_2 1_555 1_555
C7_2 C2_2 1_555 1_555
H4_2 C7_2 1_555 1_555
C8_2 O3_2 1_555 1_555
C9_2 N1_2 1_555 1_555
H5_2 C9_2 1_555 1_555
C10_2 C9_2 1_555 1_555
C11_2 C10_2 1_555 1_555
C12_2 C11_2 1_555 1_555
C15_2 C10_2 1_555 1_555
H10_2 C15_2 1_555 1_555
O7_2 Tb3 1_555 1_555
H11_2 O7_2 1_555 1_555
H12_2 O7_2 1_555 1_555
O13 C24_2 1_555 1_555
O15 C24_2 1_555 1_555
C17_2 N1_2 1_555 1_555
H13_2 C17_2 1_555 1_555
C18_2 C17_2 1_555 1_555
C19_2 C18_2 1_555 1_555
C20_2 C19_2 1_555 1_555
H16_2 C20_2 1_555 1_555
C21_2 C20_2 1_555 1_555
C22_2 C21_2 1_555 1_555
H17_2 C22_2 1_555 1_555
C23_2 C18_2 1_555 1_555
H18_2 C23_2 1_555 1_555
C24_2 C21_2 1_555 1_555
O10_2 Tb3 1_555 1_555
H19_2 O10_2 1_555 1_555
H20_2 O10_2 1_555 1_555
Tb4_2 O2_2 1_555 1_555
O11_2 Tb3 1_555 1_555
C5_2 C8_2 1_555 1_555
C6_2 C7_2 1_555 1_555
C22_2 C23_2 1_555 1_555
O8_2 C24_3 1_555 1_555
O9_2 C24_3 1_555 1_555
C22_3 C21_3 1_555 1_555
H17_3 C22_3 1_555 1_555
C24_3 C21_3 1_555 1_555
Tb4 O8_2 1_555 1_555
O9_2 Tb4 1_555 1_555
Tb4_2 O1_3 1_555 1_555
O1_3 C1_3 1_555 1_555
C1_3 C2_3 1_555 1_555
C2_3 C3_3 1_555 1_555
C7_3 C2_3 1_555 1_555
H4_3 C7_3 1_555 1_555
O7_3 Tb4_2 1_555 1_555
H11_3 O7_3 1_555 1_555
H12_3 O7_3 1_555 1_555
O10_3 Tb4_2 1_555 1_555
H19_3 O10_3 1_555 1_555
H20_3 O10_3 1_555 1_555
O12_2 Tb4_2 1_555 1_555
O13_2 Tb4_2 1_555 1_555
O14_2 Tb4_2 1_555 1_555
O15_2 Tb4_2 1_555 1_555
N1_3 C6_3 1_555 1_555
O3_3 H1_3 1_555 1_555
O4_3 C8_3 1_555 1_555
O5_2 C16_3 1_555 1_555
O6_2 C16_3 1_555 1_555
H3_3 C4_3 1_555 1_555
C5_3 C4_3 1_555 1_555
C6_3 C5_3 1_555 1_555
C8_3 O3_3 1_555 1_555
C9_3 N1_3 1_555 1_555
H6_2 C9_3 1_555 1_555
C10_3 C9_3 1_555 1_555
C11_3 C10_3 1_555 1_555
H7_2 C11_3 1_555 1_555
C12_3 C11_3 1_555 1_555
H8_3 C12_3 1_555 1_555
C13_3 C12_3 1_555 1_555
C14_3 C13_3 1_555 1_555
H9_3 C14_3 1_555 1_555
C15_3 C10_3 1_555 1_555
C16_3 C13_3 1_555 1_555
C17_3 N1_3 1_555 1_555
H14_2 C17_3 1_555 1_555
C18_3 C17_3 1_555 1_555
C19_3 C18_3 1_555 1_555
H15_2 C19_3 1_555 1_555
C20_3 C19_3 1_555 1_555
C23_3 C18_3 1_555 1_555
Tb4 O5_2 1_555 1_555
O6_2 Tb4 1_555 1_555
C5_3 C8_3 1_555 1_555
C14_3 C15_3 1_555 1_555
N1_4 C6_4 1_555 1_555
Tb4 O1_4 1_555 1_555
O1_4 C1_4 1_555 1_555
O11 C1_4 1_555 1_555
O3_4 H1_4 1_555 1_555
O4_4 C8_4 1_555 1_555
O12_2 C16_4 1_555 1_555
O14_2 C16_4 1_555 1_555
C1_4 C2_4 1_555 1_555
C2_4 C3_4 1_555 1_555
C3_4 H2_4 1_555 1_555
C4_4 C3_4 1_555 1_555
H3_4 C4_4 1_555 1_555
C5_4 C4_4 1_555 1_555
C6_4 C5_4 1_555 1_555
C7_4 C2_4 1_555 1_555
H4_4 C7_4 1_555 1_555
C8_4 O3_4 1_555 1_555
C9_4 N1_4 1_555 1_555
H5_4 C9_4 1_555 1_555
C10_4 C9_4 1_555 1_555
C11_4 C10_4 1_555 1_555
C12_4 C11_4 1_555 1_555
H8_4 C12_4 1_555 1_555
C13_4 C12_4 1_555 1_555
C14_4 C13_4 1_555 1_555
H9_4 C14_4 1_555 1_555
C15_4 C10_4 1_555 1_555
H10_4 C15_4 1_555 1_555
C16_4 C13_4 1_555 1_555
O7_4 Tb4 1_555 1_555
H11_4 O7_4 1_555 1_555
H12_4 O7_4 1_555 1_555
C17_4 N1_4 1_555 1_555
H13_4 C17_4 1_555 1_555
C18_4 C17_4 1_555 1_555
C19_4 C18_4 1_555 1_555
C20_4 C19_4 1_555 1_555
C23_4 C18_4 1_555 1_555
H18_4 C23_4 1_555 1_555
O10_4 Tb4 1_555 1_555
H19_4 O10_4 1_555 1_555
H20_4 O10_4 1_555 1_555
C5_4 C8_4 1_555 1_555
C6_4 C7_4 1_555 1_555
C14_4 C15_4 1_555 1_555
O13_2 C24_4 1_555 1_555
O15_2 C24_4 1_555 1_555
C22_4 C21_4 1_555 1_555
H17_4 C22_4 1_555 1_555
C24_4 C21_4 1_555 1_555

#END
