
###############################################################################
#
# This file contains modified crystal structure data generated from the
# MOF subset of the Cambridge Structural Database (CSD) v543 
# hosted by the Cambridge Crystallographic Data Centre (CCDC).
#
# This work is licensed under the Creative Commons
# Attribution-NonCommercial-ShareAlike 4.0 International License.
# To view a copy of this license, visit
# http://creativecommons.org/licenses/by-nc-sa/4.0/
# or send a letter to
# Creative Commons, PO Box 1866, Mountain View, CA 94042, USA.
#
# CIF created using the CSD Python API on 29 September 2022
# The structure has been converted into the P1 space group
# The structure has a 3D framework
# The original CSD entry TORJUH is in the orthorhombic crystal system
# The framework has been calculated to contain at least 10.0% void space
# The void calculation uses a probe of radius 1.32A, grid spacing 0.4
#
###############################################################################

data_TORJUH
_chemical_formula_moiety         '(C96 H80 Eu4 N4 O38)n'
_symmetry_cell_setting           triclinic
_symmetry_space_group_name_H-M   'P 1'
_symmetry_Int_Tables_number      1
_space_group_name_Hall           'P 1'
loop_
_symmetry_equiv_pos_site_id
_symmetry_equiv_pos_as_xyz
1 x,y,z
_cell_length_a                   10.9790(4)
_cell_length_b                   16.6505(7)
_cell_length_c                   19.3795(7)
_cell_angle_alpha                90
_cell_angle_beta                 90
_cell_angle_gamma                90
_cell_volume                     3542.69
loop_
_atom_site_label
_atom_site_type_symbol
_atom_site_fract_x
_atom_site_fract_y
_atom_site_fract_z
N1 N 0.4186(4) 0.2500 0.0288(2)
O3 O 0.3485(5) 0.2500 0.1538(2)
H1 H 0.3572 0.2500 0.1958
O4 O 0.1514(5) 0.2500 0.1814(2)
C4 C 0.0783(6) 0.2500 0.0436(3)
H5 H 0.0191 0.2500 0.0779
C5 C 0.2019(5) 0.2500 0.0621(3)
C6 C 0.2879(4) 0.2500 0.0102(3)
C8 C 0.2295(6) 0.2500 0.1385(3)
C9 C 0.4810(4) 0.1764(2) 0.0029(2)
H7 H 0.5678 0.1809 0.0115
C10 C 0.4333(3) 0.1009(2) 0.0372(2)
C11 C 0.4814(4) 0.0759(2) 0.0995(2)
H9 H 0.5403 0.1071 0.1212
C12 C 0.4433(4) 0.0057(2) 0.1300(2)
C15 C 0.3447(4) 0.0541(2) 0.0062(2)
O8 O 0.3690(3) 0.64521(19) 0.18412(17)
O9 O 0.2233(3) 0.6548(2) 0.10727(19)
C17 C 0.4810(4) 0.3236(2) 0.0029(2)
H13 H 0.5678 0.3191 0.0115
C18 C 0.4333(3) 0.3991(2) 0.0372(2)
C19 C 0.4814(4) 0.4241(2) 0.0995(2)
H15 H 0.5403 0.3929 0.1212
C20 C 0.4433(4) 0.4943(2) 0.1300(2)
H16 H 0.4784 0.5106 0.1714
C21 C 0.3545(4) 0.5406(2) 0.10028(19)
C22 C 0.3040(4) 0.5156(3) 0.0370(2)
H17 H 0.2434 0.5460 0.0160
C23 C 0.3447(4) 0.4459(2) 0.0062(2)
C24 C 0.3133(4) 0.6178(2) 0.1321(2)
Eu3 Eu 0.21201(2) 0.7500 0.203641(12)
Eu1 Eu 0.28799(2) 0.2500 0.703641(12)
O1 O 0.1796(4) 0.2500 0.80552(19)
O7 O 0.3861(3) 0.3545(2) 0.7699(2)
H2 H 0.4610 0.3549 0.7680
H3 H 0.3408 0.3815 0.7944
C1 C 0.0963(5) 0.2500 0.8488(3)
C2 C 0.1308(5) 0.2500 0.9235(3)
C3 C 0.0432(6) 0.2500 0.9749(3)
C7 C 0.2530(5) 0.2500 0.9412(3)
H6 H 0.3121 0.2500 0.9067
H8 H 0.4692 0.1723 0.9534
H12 H 0.3121 0.0698 0.9640
H14 H 0.4692 0.3277 0.9534
H18 H 0.3121 0.4302 0.9640
O10 O 0.3861(3) 0.1455(2) 0.7699(2)
H19 H 0.4610 0.1451 0.7680
H20 H 0.3408 0.1185 0.7944
O11 O 0.4857(4) 0.2500 0.6653(2)
O12 O 0.1310(3) 0.14521(19) 0.68412(17)
O13 O 0.1310(3) 0.35479(19) 0.68412(17)
O14 O 0.2767(3) 0.1548(2) 0.60727(19)
O15 O 0.2767(3) 0.3452(2) 0.60727(19)
O5 O 0.3690(3) 0.85479(19) 0.18412(17)
O6 O 0.2233(3) 0.8452(2) 0.10727(19)
H10 H 0.4784 0.9894 0.1714
C13 C 0.3545(4) 0.9594(2) 0.10028(19)
C14 C 0.3040(4) 0.9844(3) 0.0370(2)
H11 H 0.2434 0.9540 0.0160
C16 C 0.3133(4) 0.8822(2) 0.1321(2)
O2 O 0.9857(4) 0.2500 0.8347(2)
H4 H 0.9610 0.2500 0.9633
Eu4 Eu 0.78799(2) 0.2500 0.796359(12)
H10_2 H 0.0216 0.0106 0.6714
C13_2 C 0.1455(4) 0.0406(2) 0.60028(19)
C14_2 C 0.1960(4) 0.0156(3) 0.5370(2)
H11_2 H 0.2566 0.0460 0.5160
C16_2 C 0.1867(4) 0.1178(2) 0.6321(2)
N1_2 N 0.0814(4) 0.7500 0.5288(2)
O1_2 O 0.3204(4) 0.7500 0.30552(19)
O2_2 O 0.5143(4) 0.7500 0.3347(2)
O3_2 O 0.1515(5) 0.7500 0.6538(2)
H1_2 H 0.1428 0.7500 0.6958
O4_2 O 0.3486(5) 0.7500 0.6814(2)
O7_2 O 0.1139(3) 0.6455(2) 0.2699(2)
H2_2 H 0.0390 0.6451 0.2680
H3_2 H 0.1592 0.6185 0.2944
C1_2 C 0.4037(5) 0.7500 0.3488(3)
C2_2 C 0.3692(5) 0.7500 0.4235(3)
C3_2 C 0.4568(6) 0.7500 0.4749(3)
H4_2 H 0.5390 0.7500 0.4633
C4_2 C 0.4217(6) 0.7500 0.5436(3)
H5_2 H 0.4809 0.7500 0.5779
C5_2 C 0.2981(5) 0.7500 0.5621(3)
C6_2 C 0.2121(4) 0.7500 0.5102(3)
C7_2 C 0.2470(5) 0.7500 0.4412(3)
H6_2 H 0.1879 0.7500 0.4067
C8_2 C 0.2705(6) 0.7500 0.6385(3)
C9_2 C 0.0190(4) 0.8236(2) 0.5029(2)
H8_2 H 0.0308 0.8277 0.4534
C10_2 C 0.0667(3) 0.8991(2) 0.5372(2)
C11_2 C 0.0186(4) 0.9241(2) 0.5995(2)
C12_2 C 0.0567(4) 0.9943(2) 0.6300(2)
C15_2 C 0.1553(4) 0.9459(2) 0.5062(2)
H12_2 H 0.1879 0.9302 0.4640
C17_2 C 0.0190(4) 0.6764(2) 0.5029(2)
H14_2 H 0.0308 0.6723 0.4534
C18_2 C 0.0667(3) 0.6009(2) 0.5372(2)
C19_2 C 0.0186(4) 0.5759(2) 0.5995(2)
C20_2 C 0.0567(4) 0.5057(2) 0.6300(2)
H16_2 H 0.0216 0.4894 0.6714
C21_2 C 0.1455(4) 0.4594(2) 0.60028(19)
C22_2 C 0.1960(4) 0.4844(3) 0.5370(2)
H17_2 H 0.2566 0.4540 0.5160
C23_2 C 0.1553(4) 0.5541(2) 0.5062(2)
H18_2 H 0.1879 0.5698 0.4640
C24_2 C 0.1867(4) 0.3822(2) 0.6321(2)
O10_2 O 0.1139(3) 0.8545(2) 0.2699(2)
H19_2 H 0.0390 0.8549 0.2680
H20_2 H 0.1592 0.8815 0.2944
Eu4_2 Eu 0.71201(2) 0.7500 0.296359(12)
O11_2 O 0.0143(4) 0.7500 0.1653(2)
N1_3 N 0.9186(4) 0.2500 0.4712(2)
O1_3 O 0.6796(4) 0.2500 0.69448(19)
O3_3 O 0.8485(5) 0.2500 0.3462(2)
H1_3 H 0.8572 0.2500 0.3042
O4_3 O 0.6514(5) 0.2500 0.3186(2)
O5_2 O 0.8690(3) 0.64521(19) 0.31588(17)
O6_2 O 0.7233(3) 0.6548(2) 0.39273(19)
O7_3 O 0.8861(3) 0.1455(2) 0.7301(2)
H2_3 H 0.9610 0.1451 0.7320
H3_3 H 0.8408 0.1185 0.7056
C1_3 C 0.5963(5) 0.2500 0.6512(3)
C2_3 C 0.6308(5) 0.2500 0.5765(3)
C3_3 C 0.5432(6) 0.2500 0.5251(3)
H4_3 H 0.4610 0.2500 0.5367
C4_3 C 0.5783(6) 0.2500 0.4564(3)
H5_3 H 0.5191 0.2500 0.4221
C5_3 C 0.7019(5) 0.2500 0.4379(3)
C6_3 C 0.7879(4) 0.2500 0.4898(3)
C7_3 C 0.7530(5) 0.2500 0.5588(3)
H6_3 H 0.8121 0.2500 0.5933
C8_3 C 0.7295(6) 0.2500 0.3615(3)
C9_3 C 0.9810(4) 0.3236(2) 0.4971(2)
H8_3 H 0.9692 0.3277 0.5466
C10_3 C 0.9333(3) 0.3991(2) 0.4628(2)
C11_3 C 0.9814(4) 0.4241(2) 0.4005(2)
C12_3 C 0.9433(4) 0.4943(2) 0.3700(2)
H10_3 H 0.9784 0.5106 0.3286
C13_3 C 0.8545(4) 0.5406(2) 0.39972(19)
C14_3 C 0.8040(4) 0.5156(3) 0.4630(2)
H11_3 H 0.7434 0.5460 0.4840
C15_3 C 0.8447(4) 0.4459(2) 0.4938(2)
H12_3 H 0.8121 0.4302 0.5360
C16_3 C 0.8133(4) 0.6178(2) 0.3679(2)
C17_3 C 0.9810(4) 0.1764(2) 0.4971(2)
H14_3 H 0.9692 0.1723 0.5466
C18_3 C 0.9333(3) 0.1009(2) 0.4628(2)
C19_3 C 0.9814(4) 0.0759(2) 0.4005(2)
C20_3 C 0.9433(4) 0.0057(2) 0.3700(2)
C23_3 C 0.8447(4) 0.0541(2) 0.4938(2)
H18_3 H 0.8121 0.0698 0.5360
O10_3 O 0.8861(3) 0.3545(2) 0.7301(2)
H19_3 H 0.9610 0.3549 0.7320
H20_3 H 0.8408 0.3815 0.7056
O12_2 O 0.6310(3) 0.35479(19) 0.81588(17)
O13_2 O 0.6310(3) 0.14521(19) 0.81588(17)
O14_2 O 0.7767(3) 0.3452(2) 0.89273(19)
O15_2 O 0.7767(3) 0.1548(2) 0.89273(19)
O8_2 O 0.8690(3) 0.85479(19) 0.31588(17)
O9_2 O 0.7233(3) 0.8452(2) 0.39273(19)
H16_3 H 0.9784 0.9894 0.3286
C21_3 C 0.8545(4) 0.9594(2) 0.39972(19)
C22_3 C 0.8040(4) 0.9844(3) 0.4630(2)
H17_3 H 0.7434 0.9540 0.4840
C24_3 C 0.8133(4) 0.8822(2) 0.3679(2)
H4_4 H 0.0390 0.7500 0.0367
H16_4 H 0.5216 0.0106 0.8286
C21_4 C 0.6455(4) 0.0406(2) 0.89972(19)
C22_4 C 0.6960(4) 0.0156(3) 0.9630(2)
H17_4 H 0.7566 0.0460 0.9840
C24_4 C 0.6867(4) 0.1178(2) 0.8679(2)
O1_4 O 0.8204(4) 0.7500 0.19448(19)
O7_4 O 0.6139(3) 0.8545(2) 0.2301(2)
H2_4 H 0.5390 0.8549 0.2320
H3_4 H 0.6592 0.8815 0.2056
C1_4 C 0.9037(5) 0.7500 0.1512(3)
C2_4 C 0.8692(5) 0.7500 0.0765(3)
C3_4 C 0.9568(6) 0.7500 0.0251(3)
C7_4 C 0.7470(5) 0.7500 0.0588(3)
H6_4 H 0.6879 0.7500 0.0933
H8_4 H 0.5308 0.6723 0.0466
H12_4 H 0.6879 0.5698 0.0360
H14_4 H 0.5308 0.8277 0.0466
H18_4 H 0.6879 0.9302 0.0360
O10_4 O 0.6139(3) 0.6455(2) 0.2301(2)
H19_4 H 0.5390 0.6451 0.2320
H20_4 H 0.6592 0.6185 0.2056
N1_4 N 0.5814(4) 0.7500 0.9712(2)
O3_4 O 0.6515(5) 0.7500 0.8462(2)
H1_4 H 0.6428 0.7500 0.8042
O4_4 O 0.8486(5) 0.7500 0.8186(2)
C4_4 C 0.9217(6) 0.7500 0.9564(3)
H5_4 H 0.9809 0.7500 0.9221
C5_4 C 0.7981(5) 0.7500 0.9379(3)
C6_4 C 0.7121(4) 0.7500 0.9898(3)
C8_4 C 0.7705(6) 0.7500 0.8615(3)
C9_4 C 0.5190(4) 0.6764(2) 0.9971(2)
H7_2 H 0.4322 0.6809 0.9885
C10_4 C 0.5667(3) 0.6009(2) 0.9628(2)
C11_4 C 0.5186(4) 0.5759(2) 0.9005(2)
H9_2 H 0.4597 0.6071 0.8788
C12_4 C 0.5567(4) 0.5057(2) 0.8700(2)
H10_4 H 0.5216 0.4894 0.8286
C13_4 C 0.6455(4) 0.4594(2) 0.89972(19)
C14_4 C 0.6960(4) 0.4844(3) 0.9630(2)
H11_4 H 0.7566 0.4540 0.9840
C15_4 C 0.6553(4) 0.5541(2) 0.9938(2)
C16_4 C 0.6867(4) 0.3822(2) 0.8679(2)
C17_4 C 0.5190(4) 0.8236(2) 0.9971(2)
H13_2 H 0.4322 0.8191 0.9885
C18_4 C 0.5667(3) 0.8991(2) 0.9628(2)
C19_4 C 0.5186(4) 0.9241(2) 0.9005(2)
H15_2 H 0.4597 0.8929 0.8788
C20_4 C 0.5567(4) 0.9943(2) 0.8700(2)
C23_4 C 0.6553(4) 0.9459(2) 0.9938(2)
H7_3 H 0.9322 0.8191 0.5115
H9_3 H 0.9597 0.8929 0.6212
H13_3 H 0.9322 0.6809 0.5115
H15_3 H 0.9597 0.6071 0.6212
H7_4 H 0.0678 0.3191 0.4885
H9_4 H 0.0403 0.3929 0.3788
H13_4 H 0.0678 0.1809 0.4885
H15_4 H 0.0403 0.1071 0.3788
loop_
_geom_bond_atom_site_label_1
_geom_bond_atom_site_label_2
_geom_bond_site_symmetry_1
_geom_bond_site_symmetry_2
N1 C6 1_555 1_555
O3 H1 1_555 1_555
O4 C8 1_555 1_555
H5 C4 1_555 1_555
C5 C4 1_555 1_555
C6 C5 1_555 1_555
C8 O3 1_555 1_555
C9 N1 1_555 1_555
H7 C9 1_555 1_555
C10 C9 1_555 1_555
C11 C10 1_555 1_555
H9 C11 1_555 1_555
C12 C11 1_555 1_555
C15 C10 1_555 1_555
O8 C24 1_555 1_555
O9 C24 1_555 1_555
C17 N1 1_555 1_555
H13 C17 1_555 1_555
C18 C17 1_555 1_555
C19 C18 1_555 1_555
H15 C19 1_555 1_555
C20 C19 1_555 1_555
H16 C20 1_555 1_555
C21 C20 1_555 1_555
C22 C21 1_555 1_555
H17 C22 1_555 1_555
C23 C18 1_555 1_555
C24 C21 1_555 1_555
Eu3 O8 1_555 1_555
C5 C8 1_555 1_555
O9 Eu3 1_555 1_555
C22 C23 1_555 1_555
Eu1 O1 1_555 1_555
O1 C1 1_555 1_555
O7 Eu1 1_555 1_555
H2 O7 1_555 1_555
H3 O7 1_555 1_555
C1 C2 1_555 1_555
C2 C3 1_555 1_555
C7 C2 1_555 1_555
H6 C7 1_555 1_555
O10 Eu1 1_555 1_555
H19 O10 1_555 1_555
H20 O10 1_555 1_555
O11 Eu1 1_555 1_555
O12 Eu1 1_555 1_555
O13 Eu1 1_555 1_555
O14 Eu1 1_555 1_555
O15 Eu1 1_555 1_555
O5 C16 1_555 1_555
O6 C16 1_555 1_555
C14 C13 1_555 1_555
H11 C14 1_555 1_555
C16 C13 1_555 1_555
Eu3 O5 1_555 1_555
O6 Eu3 1_555 1_555
Eu4 O2 1_555 1_555
O12 C16_2 1_555 1_555
O14 C16_2 1_555 1_555
C14_2 C13_2 1_555 1_555
H11_2 C14_2 1_555 1_555
C16_2 C13_2 1_555 1_555
N1_2 C6_2 1_555 1_555
Eu3 O1_2 1_555 1_555
O1_2 C1_2 1_555 1_555
O2_2 C1_2 1_555 1_555
O3_2 H1_2 1_555 1_555
O4_2 C8_2 1_555 1_555
O7_2 Eu3 1_555 1_555
H2_2 O7_2 1_555 1_555
H3_2 O7_2 1_555 1_555
C1_2 C2_2 1_555 1_555
C2_2 C3_2 1_555 1_555
C3_2 H4_2 1_555 1_555
C4_2 C3_2 1_555 1_555
H5_2 C4_2 1_555 1_555
C5_2 C4_2 1_555 1_555
C6_2 C5_2 1_555 1_555
C7_2 C2_2 1_555 1_555
H6_2 C7_2 1_555 1_555
C8_2 O3_2 1_555 1_555
C9_2 N1_2 1_555 1_555
H8_2 C9_2 1_555 1_555
C10_2 C9_2 1_555 1_555
C11_2 C10_2 1_555 1_555
C12_2 C11_2 1_555 1_555
C15_2 C10_2 1_555 1_555
H12_2 C15_2 1_555 1_555
O13 C24_2 1_555 1_555
O15 C24_2 1_555 1_555
C17_2 N1_2 1_555 1_555
H14_2 C17_2 1_555 1_555
C18_2 C17_2 1_555 1_555
C19_2 C18_2 1_555 1_555
C20_2 C19_2 1_555 1_555
H16_2 C20_2 1_555 1_555
C21_2 C20_2 1_555 1_555
C22_2 C21_2 1_555 1_555
H17_2 C22_2 1_555 1_555
C23_2 C18_2 1_555 1_555
H18_2 C23_2 1_555 1_555
C24_2 C21_2 1_555 1_555
O10_2 Eu3 1_555 1_555
H19_2 O10_2 1_555 1_555
H20_2 O10_2 1_555 1_555
Eu4_2 O2_2 1_555 1_555
O11_2 Eu3 1_555 1_555
C5_2 C8_2 1_555 1_555
C6_2 C7_2 1_555 1_555
C22_2 C23_2 1_555 1_555
N1_3 C6_3 1_555 1_555
Eu4 O1_3 1_555 1_555
O1_3 C1_3 1_555 1_555
O11 C1_3 1_555 1_555
O3_3 H1_3 1_555 1_555
O4_3 C8_3 1_555 1_555
O5_2 C16_3 1_555 1_555
O6_2 C16_3 1_555 1_555
O7_3 Eu4 1_555 1_555
H2_3 O7_3 1_555 1_555
H3_3 O7_3 1_555 1_555
C1_3 C2_3 1_555 1_555
C2_3 C3_3 1_555 1_555
C3_3 H4_3 1_555 1_555
C4_3 C3_3 1_555 1_555
H5_3 C4_3 1_555 1_555
C5_3 C4_3 1_555 1_555
C6_3 C5_3 1_555 1_555
C7_3 C2_3 1_555 1_555
H6_3 C7_3 1_555 1_555
C8_3 O3_3 1_555 1_555
C9_3 N1_3 1_555 1_555
H8_3 C9_3 1_555 1_555
C10_3 C9_3 1_555 1_555
C11_3 C10_3 1_555 1_555
C12_3 C11_3 1_555 1_555
H10_3 C12_3 1_555 1_555
C13_3 C12_3 1_555 1_555
C14_3 C13_3 1_555 1_555
H11_3 C14_3 1_555 1_555
C15_3 C10_3 1_555 1_555
H12_3 C15_3 1_555 1_555
C16_3 C13_3 1_555 1_555
C17_3 N1_3 1_555 1_555
H14_3 C17_3 1_555 1_555
C18_3 C17_3 1_555 1_555
C19_3 C18_3 1_555 1_555
C20_3 C19_3 1_555 1_555
C23_3 C18_3 1_555 1_555
H18_3 C23_3 1_555 1_555
O10_3 Eu4 1_555 1_555
H19_3 O10_3 1_555 1_555
H20_3 O10_3 1_555 1_555
Eu4_2 O5_2 1_555 1_555
O12_2 Eu4 1_555 1_555
O13_2 Eu4 1_555 1_555
O14_2 Eu4 1_555 1_555
O15_2 Eu4 1_555 1_555
O6_2 Eu4_2 1_555 1_555
C5_3 C8_3 1_555 1_555
C6_3 C7_3 1_555 1_555
C14_3 C15_3 1_555 1_555
O8_2 C24_3 1_555 1_555
O9_2 C24_3 1_555 1_555
C22_3 C21_3 1_555 1_555
H17_3 C22_3 1_555 1_555
C24_3 C21_3 1_555 1_555
Eu4_2 O8_2 1_555 1_555
O9_2 Eu4_2 1_555 1_555
O13_2 C24_4 1_555 1_555
O15_2 C24_4 1_555 1_555
C22_4 C21_4 1_555 1_555
H17_4 C22_4 1_555 1_555
C24_4 C21_4 1_555 1_555
Eu4_2 O1_4 1_555 1_555
O1_4 C1_4 1_555 1_555
O7_4 Eu4_2 1_555 1_555
H2_4 O7_4 1_555 1_555
H3_4 O7_4 1_555 1_555
C1_4 C2_4 1_555 1_555
C2_4 C3_4 1_555 1_555
C7_4 C2_4 1_555 1_555
H6_4 C7_4 1_555 1_555
O10_4 Eu4_2 1_555 1_555
H19_4 O10_4 1_555 1_555
H20_4 O10_4 1_555 1_555
N1_4 C6_4 1_555 1_555
O3_4 H1_4 1_555 1_555
O4_4 C8_4 1_555 1_555
O12_2 C16_4 1_555 1_555
O14_2 C16_4 1_555 1_555
H5_4 C4_4 1_555 1_555
C5_4 C4_4 1_555 1_555
C6_4 C5_4 1_555 1_555
C8_4 O3_4 1_555 1_555
C9_4 N1_4 1_555 1_555
H7_2 C9_4 1_555 1_555
C10_4 C9_4 1_555 1_555
C11_4 C10_4 1_555 1_555
H9_2 C11_4 1_555 1_555
C12_4 C11_4 1_555 1_555
H10_4 C12_4 1_555 1_555
C13_4 C12_4 1_555 1_555
C14_4 C13_4 1_555 1_555
H11_4 C14_4 1_555 1_555
C15_4 C10_4 1_555 1_555
C16_4 C13_4 1_555 1_555
C17_4 N1_4 1_555 1_555
H13_2 C17_4 1_555 1_555
C18_4 C17_4 1_555 1_555
C19_4 C18_4 1_555 1_555
H15_2 C19_4 1_555 1_555
C20_4 C19_4 1_555 1_555
C23_4 C18_4 1_555 1_555
C5_4 C8_4 1_555 1_555
C14_4 C15_4 1_555 1_555

#END
