
###############################################################################
#
# This file contains modified crystal structure data generated from the
# MOF subset of the Cambridge Structural Database (CSD) v543 
# hosted by the Cambridge Crystallographic Data Centre (CCDC).
#
# This work is licensed under the Creative Commons
# Attribution-NonCommercial-ShareAlike 4.0 International License.
# To view a copy of this license, visit
# http://creativecommons.org/licenses/by-nc-sa/4.0/
# or send a letter to
# Creative Commons, PO Box 1866, Mountain View, CA 94042, USA.
#
# CIF created using the CSD Python API on 29 September 2022
# The structure has been converted into the P1 space group
# The structure has a 3D framework
# The original CSD entry TORKES is in the orthorhombic crystal system
# The framework has been calculated to contain at least 10.0% void space
# The void calculation uses a probe of radius 1.32A, grid spacing 0.4
#
###############################################################################

data_TORKES
_chemical_formula_moiety         '(C96 H80 N4 O38 Tb4)n'
_symmetry_cell_setting           triclinic
_symmetry_space_group_name_H-M   'P 1'
_symmetry_Int_Tables_number      1
_space_group_name_Hall           'P 1'
loop_
_symmetry_equiv_pos_site_id
_symmetry_equiv_pos_as_xyz
1 x,y,z
_cell_length_a                   10.929
_cell_length_b                   16.586
_cell_length_c                   19.396
_cell_angle_alpha                90
_cell_angle_beta                 90
_cell_angle_gamma                90
_cell_volume                     3515.88
loop_
_atom_site_label
_atom_site_type_symbol
_atom_site_fract_x
_atom_site_fract_y
_atom_site_fract_z
N1 N 0.4179(4) 0.2500 0.0282(2)
O3 O 0.3467(5) 0.2500 0.1526(3)
H1 H 0.3548 0.2500 0.1946
O4 O 0.1496(6) 0.2500 0.1801(3)
C4 C 0.0765(7) 0.2500 0.0423(4)
H5 H 0.0169 0.2500 0.0765
C5 C 0.1999(6) 0.2500 0.0607(3)
C6 C 0.2869(5) 0.2500 0.0095(3)
C8 C 0.2289(7) 0.2500 0.1370(4)
C9 C 0.4812(4) 0.1759(3) 0.0024(2)
H7 H 0.5684 0.1807 0.0110
C10 C 0.4335(4) 0.1002(3) 0.0373(2)
C11 C 0.4819(5) 0.0754(3) 0.0995(3)
H9 H 0.5408 0.1069 0.1212
C12 C 0.4441(5) 0.0048(3) 0.1298(3)
C15 C 0.3431(4) 0.0534(3) 0.0067(2)
O8 O 0.3685(3) 0.6464(2) 0.18462(19)
O9 O 0.2223(3) 0.6557(2) 0.1086(2)
C17 C 0.4812(4) 0.3241(3) 0.0024(2)
H13 H 0.5684 0.3193 0.0110
C18 C 0.4335(4) 0.3998(3) 0.0373(2)
C19 C 0.4819(5) 0.4246(3) 0.0995(3)
H15 H 0.5408 0.3931 0.1212
C20 C 0.4441(5) 0.4952(3) 0.1298(3)
H16 H 0.4801 0.5120 0.1708
C21 C 0.3539(4) 0.5412(2) 0.1003(2)
C22 C 0.3031(4) 0.5165(3) 0.0381(3)
H17 H 0.2420 0.5472 0.0175
C23 C 0.3431(4) 0.4466(3) 0.0067(2)
C24 C 0.3130(4) 0.6187(3) 0.1329(2)
Tb3 Tb 0.21180(2) 0.7500 0.204068(14)
Tb1 Tb 0.28820(2) 0.2500 0.704068(14)
O1 O 0.1804(5) 0.2500 0.8046(2)
O7 O 0.3849(3) 0.3537(3) 0.7690(2)
H2 H 0.4599 0.3541 0.7670
H3 H 0.3397 0.3808 0.7935
C1 C 0.0956(5) 0.2500 0.8475(3)
C2 C 0.1301(5) 0.2500 0.9226(3)
C3 C 0.0415(6) 0.2500 0.9735(4)
C7 C 0.2527(5) 0.2500 0.9401(3)
H6 H 0.3121 0.2500 0.9059
H8 H 0.4692 0.1715 0.9530
H12 H 0.3093 0.0693 0.9649
H14 H 0.4692 0.3285 0.9530
H18 H 0.3093 0.4307 0.9649
O10 O 0.3849(3) 0.1463(3) 0.7690(2)
H19 H 0.4599 0.1459 0.7670
H20 H 0.3397 0.1192 0.7935
O11 O 0.4857(4) 0.2500 0.6673(3)
O12 O 0.1315(3) 0.1464(2) 0.68462(19)
O13 O 0.1315(3) 0.3536(2) 0.68462(19)
O14 O 0.2777(3) 0.1557(2) 0.6086(2)
O15 O 0.2777(3) 0.3443(2) 0.6086(2)
O5 O 0.3685(3) 0.8536(2) 0.18462(19)
O6 O 0.2223(3) 0.8443(2) 0.1086(2)
H10 H 0.4801 0.9880 0.1708
C13 C 0.3539(4) 0.9588(2) 0.1003(2)
C14 C 0.3031(4) 0.9835(3) 0.0381(3)
H11 H 0.2420 0.9528 0.0175
C16 C 0.3130(4) 0.8813(3) 0.1329(2)
O2 O 0.9857(4) 0.2500 0.8327(3)
H4 H 0.9591 0.2500 0.9617
Tb4 Tb 0.78820(2) 0.2500 0.795932(14)
H10_2 H 0.0199 0.0120 0.6708
C13_2 C 0.1461(4) 0.0412(2) 0.6003(2)
C14_2 C 0.1969(4) 0.0165(3) 0.5381(3)
H11_2 H 0.2580 0.0472 0.5175
C16_2 C 0.1870(4) 0.1187(3) 0.6329(2)
N1_2 N 0.0821(4) 0.7500 0.5282(2)
O1_2 O 0.3196(5) 0.7500 0.3046(2)
O2_2 O 0.5143(4) 0.7500 0.3327(3)
O3_2 O 0.1533(5) 0.7500 0.6526(3)
H1_2 H 0.1452 0.7500 0.6946
O4_2 O 0.3504(6) 0.7500 0.6801(3)
O7_2 O 0.1151(3) 0.6463(3) 0.2690(2)
H2_2 H 0.0401 0.6459 0.2670
H3_2 H 0.1603 0.6192 0.2935
C1_2 C 0.4044(5) 0.7500 0.3475(3)
C2_2 C 0.3699(5) 0.7500 0.4226(3)
C3_2 C 0.4585(6) 0.7500 0.4735(4)
H4_2 H 0.5409 0.7500 0.4617
C4_2 C 0.4235(7) 0.7500 0.5423(4)
H5_2 H 0.4831 0.7500 0.5765
C5_2 C 0.3001(6) 0.7500 0.5607(3)
C6_2 C 0.2131(5) 0.7500 0.5095(3)
C7_2 C 0.2473(5) 0.7500 0.4401(3)
H6_2 H 0.1879 0.7500 0.4059
C8_2 C 0.2711(7) 0.7500 0.6370(4)
C9_2 C 0.0188(4) 0.8241(3) 0.5024(2)
H8_2 H 0.0308 0.8285 0.4530
C10_2 C 0.0665(4) 0.8998(3) 0.5373(2)
C11_2 C 0.0181(5) 0.9246(3) 0.5995(3)
C12_2 C 0.0559(5) 0.9952(3) 0.6298(3)
C15_2 C 0.1569(4) 0.9466(3) 0.5067(2)
H12_2 H 0.1907 0.9307 0.4649
C17_2 C 0.0188(4) 0.6759(3) 0.5024(2)
H14_2 H 0.0308 0.6715 0.4530
C18_2 C 0.0665(4) 0.6002(3) 0.5373(2)
C19_2 C 0.0181(5) 0.5754(3) 0.5995(3)
C20_2 C 0.0559(5) 0.5048(3) 0.6298(3)
H16_2 H 0.0199 0.4880 0.6708
C21_2 C 0.1461(4) 0.4588(2) 0.6003(2)
C22_2 C 0.1969(4) 0.4835(3) 0.5381(3)
H17_2 H 0.2580 0.4528 0.5175
C23_2 C 0.1569(4) 0.5534(3) 0.5067(2)
H18_2 H 0.1907 0.5693 0.4649
C24_2 C 0.1870(4) 0.3813(3) 0.6329(2)
O10_2 O 0.1151(3) 0.8537(3) 0.2690(2)
H19_2 H 0.0401 0.8541 0.2670
H20_2 H 0.1603 0.8808 0.2935
Tb4_2 Tb 0.71180(2) 0.7500 0.295932(14)
O11_2 O 0.0143(4) 0.7500 0.1673(3)
N1_3 N 0.9179(4) 0.2500 0.4718(2)
O1_3 O 0.6804(5) 0.2500 0.6954(2)
O3_3 O 0.8467(5) 0.2500 0.3474(3)
H1_3 H 0.8548 0.2500 0.3054
O4_3 O 0.6496(6) 0.2500 0.3199(3)
O5_2 O 0.8685(3) 0.6464(2) 0.31538(19)
O6_2 O 0.7223(3) 0.6557(2) 0.3914(2)
O7_3 O 0.8849(3) 0.1463(3) 0.7310(2)
H2_3 H 0.9599 0.1459 0.7330
H3_3 H 0.8397 0.1192 0.7065
C1_3 C 0.5956(5) 0.2500 0.6525(3)
C2_3 C 0.6301(5) 0.2500 0.5774(3)
C3_3 C 0.5415(6) 0.2500 0.5265(4)
H4_3 H 0.4591 0.2500 0.5383
C4_3 C 0.5765(7) 0.2500 0.4577(4)
H5_3 H 0.5169 0.2500 0.4235
C5_3 C 0.6999(6) 0.2500 0.4393(3)
C6_3 C 0.7869(5) 0.2500 0.4905(3)
C7_3 C 0.7527(5) 0.2500 0.5599(3)
H6_3 H 0.8121 0.2500 0.5941
C8_3 C 0.7289(7) 0.2500 0.3630(4)
C9_3 C 0.9812(4) 0.3241(3) 0.4976(2)
H8_3 H 0.9692 0.3285 0.5470
C10_3 C 0.9335(4) 0.3998(3) 0.4627(2)
C11_3 C 0.9819(5) 0.4246(3) 0.4005(3)
C12_3 C 0.9441(5) 0.4952(3) 0.3702(3)
H10_3 H 0.9801 0.5120 0.3292
C13_3 C 0.8539(4) 0.5412(2) 0.3997(2)
C14_3 C 0.8031(4) 0.5165(3) 0.4619(3)
H11_3 H 0.7420 0.5472 0.4825
C15_3 C 0.8431(4) 0.4466(3) 0.4933(2)
H12_3 H 0.8093 0.4307 0.5351
C16_3 C 0.8130(4) 0.6187(3) 0.3671(2)
C17_3 C 0.9812(4) 0.1759(3) 0.4976(2)
H14_3 H 0.9692 0.1715 0.5470
C18_3 C 0.9335(4) 0.1002(3) 0.4627(2)
C19_3 C 0.9819(5) 0.0754(3) 0.4005(3)
C20_3 C 0.9441(5) 0.0048(3) 0.3702(3)
C23_3 C 0.8431(4) 0.0534(3) 0.4933(2)
H18_3 H 0.8093 0.0693 0.5351
O10_3 O 0.8849(3) 0.3537(3) 0.7310(2)
H19_3 H 0.9599 0.3541 0.7330
H20_3 H 0.8397 0.3808 0.7065
O12_2 O 0.6315(3) 0.3536(2) 0.81538(19)
O13_2 O 0.6315(3) 0.1464(2) 0.81538(19)
O14_2 O 0.7777(3) 0.3443(2) 0.8914(2)
O15_2 O 0.7777(3) 0.1557(2) 0.8914(2)
O8_2 O 0.8685(3) 0.8536(2) 0.31538(19)
O9_2 O 0.7223(3) 0.8443(2) 0.3914(2)
H16_3 H 0.9801 0.9880 0.3292
C21_3 C 0.8539(4) 0.9588(2) 0.3997(2)
C22_3 C 0.8031(4) 0.9835(3) 0.4619(3)
H17_3 H 0.7420 0.9528 0.4825
C24_3 C 0.8130(4) 0.8813(3) 0.3671(2)
H4_4 H 0.0409 0.7500 0.0383
H16_4 H 0.5199 0.0120 0.8292
C21_4 C 0.6461(4) 0.0412(2) 0.8997(2)
C22_4 C 0.6969(4) 0.0165(3) 0.9619(3)
H17_4 H 0.7580 0.0472 0.9825
C24_4 C 0.6870(4) 0.1187(3) 0.8671(2)
O1_4 O 0.8196(5) 0.7500 0.1954(2)
O7_4 O 0.6151(3) 0.8537(3) 0.2310(2)
H2_4 H 0.5401 0.8541 0.2330
H3_4 H 0.6603 0.8808 0.2065
C1_4 C 0.9044(5) 0.7500 0.1525(3)
C2_4 C 0.8699(5) 0.7500 0.0774(3)
C3_4 C 0.9585(6) 0.7500 0.0265(4)
C7_4 C 0.7473(5) 0.7500 0.0599(3)
H6_4 H 0.6879 0.7500 0.0941
H8_4 H 0.5308 0.6715 0.0470
H12_4 H 0.6907 0.5693 0.0351
H14_4 H 0.5308 0.8285 0.0470
H18_4 H 0.6907 0.9307 0.0351
O10_4 O 0.6151(3) 0.6463(3) 0.2310(2)
H19_4 H 0.5401 0.6459 0.2330
H20_4 H 0.6603 0.6192 0.2065
N1_4 N 0.5821(4) 0.7500 0.9718(2)
O3_4 O 0.6533(5) 0.7500 0.8474(3)
H1_4 H 0.6452 0.7500 0.8054
O4_4 O 0.8504(6) 0.7500 0.8199(3)
C4_4 C 0.9235(7) 0.7500 0.9577(4)
H5_4 H 0.9831 0.7500 0.9235
C5_4 C 0.8001(6) 0.7500 0.9393(3)
C6_4 C 0.7131(5) 0.7500 0.9905(3)
C8_4 C 0.7711(7) 0.7500 0.8630(4)
C9_4 C 0.5188(4) 0.6759(3) 0.9976(2)
H7_2 H 0.4316 0.6807 0.9890
C10_4 C 0.5665(4) 0.6002(3) 0.9627(2)
C11_4 C 0.5181(5) 0.5754(3) 0.9005(3)
H9_2 H 0.4592 0.6069 0.8788
C12_4 C 0.5559(5) 0.5048(3) 0.8702(3)
H10_4 H 0.5199 0.4880 0.8292
C13_4 C 0.6461(4) 0.4588(2) 0.8997(2)
C14_4 C 0.6969(4) 0.4835(3) 0.9619(3)
H11_4 H 0.7580 0.4528 0.9825
C15_4 C 0.6569(4) 0.5534(3) 0.9933(2)
C16_4 C 0.6870(4) 0.3813(3) 0.8671(2)
C17_4 C 0.5188(4) 0.8241(3) 0.9976(2)
H13_2 H 0.4316 0.8193 0.9890
C18_4 C 0.5665(4) 0.8998(3) 0.9627(2)
C19_4 C 0.5181(5) 0.9246(3) 0.9005(3)
H15_2 H 0.4592 0.8931 0.8788
C20_4 C 0.5559(5) 0.9952(3) 0.8702(3)
C23_4 C 0.6569(4) 0.9466(3) 0.9933(2)
H7_3 H 0.9316 0.8193 0.5110
H9_3 H 0.9592 0.8931 0.6212
H13_3 H 0.9316 0.6807 0.5110
H15_3 H 0.9592 0.6069 0.6212
H7_4 H 0.0684 0.3193 0.4890
H9_4 H 0.0408 0.3931 0.3788
H13_4 H 0.0684 0.1807 0.4890
H15_4 H 0.0408 0.1069 0.3788
loop_
_geom_bond_atom_site_label_1
_geom_bond_atom_site_label_2
_geom_bond_site_symmetry_1
_geom_bond_site_symmetry_2
N1 C6 1_555 1_555
O3 H1 1_555 1_555
O4 C8 1_555 1_555
H5 C4 1_555 1_555
C5 C4 1_555 1_555
C6 C5 1_555 1_555
C8 O3 1_555 1_555
C9 N1 1_555 1_555
H7 C9 1_555 1_555
C10 C9 1_555 1_555
C11 C10 1_555 1_555
H9 C11 1_555 1_555
C12 C11 1_555 1_555
C15 C10 1_555 1_555
O8 C24 1_555 1_555
O9 C24 1_555 1_555
C17 N1 1_555 1_555
H13 C17 1_555 1_555
C18 C17 1_555 1_555
C19 C18 1_555 1_555
H15 C19 1_555 1_555
C20 C19 1_555 1_555
H16 C20 1_555 1_555
C21 C20 1_555 1_555
C22 C21 1_555 1_555
H17 C22 1_555 1_555
C23 C18 1_555 1_555
C24 C21 1_555 1_555
Tb3 O8 1_555 1_555
C5 C8 1_555 1_555
O9 Tb3 1_555 1_555
C22 C23 1_555 1_555
Tb1 O1 1_555 1_555
O1 C1 1_555 1_555
O7 Tb1 1_555 1_555
H2 O7 1_555 1_555
H3 O7 1_555 1_555
C1 C2 1_555 1_555
C2 C3 1_555 1_555
C7 C2 1_555 1_555
H6 C7 1_555 1_555
O10 Tb1 1_555 1_555
H19 O10 1_555 1_555
H20 O10 1_555 1_555
O11 Tb1 1_555 1_555
O12 Tb1 1_555 1_555
O13 Tb1 1_555 1_555
O14 Tb1 1_555 1_555
O15 Tb1 1_555 1_555
O5 C16 1_555 1_555
O6 C16 1_555 1_555
C14 C13 1_555 1_555
H11 C14 1_555 1_555
C16 C13 1_555 1_555
Tb3 O5 1_555 1_555
O6 Tb3 1_555 1_555
Tb4 O2 1_555 1_555
O12 C16_2 1_555 1_555
O14 C16_2 1_555 1_555
C14_2 C13_2 1_555 1_555
H11_2 C14_2 1_555 1_555
C16_2 C13_2 1_555 1_555
N1_2 C6_2 1_555 1_555
Tb3 O1_2 1_555 1_555
O1_2 C1_2 1_555 1_555
O2_2 C1_2 1_555 1_555
O3_2 H1_2 1_555 1_555
O4_2 C8_2 1_555 1_555
O7_2 Tb3 1_555 1_555
H2_2 O7_2 1_555 1_555
H3_2 O7_2 1_555 1_555
C1_2 C2_2 1_555 1_555
C2_2 C3_2 1_555 1_555
C3_2 H4_2 1_555 1_555
C4_2 C3_2 1_555 1_555
H5_2 C4_2 1_555 1_555
C5_2 C4_2 1_555 1_555
C6_2 C5_2 1_555 1_555
C7_2 C2_2 1_555 1_555
H6_2 C7_2 1_555 1_555
C8_2 O3_2 1_555 1_555
C9_2 N1_2 1_555 1_555
H8_2 C9_2 1_555 1_555
C10_2 C9_2 1_555 1_555
C11_2 C10_2 1_555 1_555
C12_2 C11_2 1_555 1_555
C15_2 C10_2 1_555 1_555
H12_2 C15_2 1_555 1_555
O13 C24_2 1_555 1_555
O15 C24_2 1_555 1_555
C17_2 N1_2 1_555 1_555
H14_2 C17_2 1_555 1_555
C18_2 C17_2 1_555 1_555
C19_2 C18_2 1_555 1_555
C20_2 C19_2 1_555 1_555
H16_2 C20_2 1_555 1_555
C21_2 C20_2 1_555 1_555
C22_2 C21_2 1_555 1_555
H17_2 C22_2 1_555 1_555
C23_2 C18_2 1_555 1_555
H18_2 C23_2 1_555 1_555
C24_2 C21_2 1_555 1_555
O10_2 Tb3 1_555 1_555
H19_2 O10_2 1_555 1_555
H20_2 O10_2 1_555 1_555
Tb4_2 O2_2 1_555 1_555
O11_2 Tb3 1_555 1_555
C5_2 C8_2 1_555 1_555
C6_2 C7_2 1_555 1_555
C22_2 C23_2 1_555 1_555
N1_3 C6_3 1_555 1_555
Tb4 O1_3 1_555 1_555
O1_3 C1_3 1_555 1_555
O11 C1_3 1_555 1_555
O3_3 H1_3 1_555 1_555
O4_3 C8_3 1_555 1_555
O5_2 C16_3 1_555 1_555
O6_2 C16_3 1_555 1_555
O7_3 Tb4 1_555 1_555
H2_3 O7_3 1_555 1_555
H3_3 O7_3 1_555 1_555
C1_3 C2_3 1_555 1_555
C2_3 C3_3 1_555 1_555
C3_3 H4_3 1_555 1_555
C4_3 C3_3 1_555 1_555
H5_3 C4_3 1_555 1_555
C5_3 C4_3 1_555 1_555
C6_3 C5_3 1_555 1_555
C7_3 C2_3 1_555 1_555
H6_3 C7_3 1_555 1_555
C8_3 O3_3 1_555 1_555
C9_3 N1_3 1_555 1_555
H8_3 C9_3 1_555 1_555
C10_3 C9_3 1_555 1_555
C11_3 C10_3 1_555 1_555
C12_3 C11_3 1_555 1_555
H10_3 C12_3 1_555 1_555
C13_3 C12_3 1_555 1_555
C14_3 C13_3 1_555 1_555
H11_3 C14_3 1_555 1_555
C15_3 C10_3 1_555 1_555
H12_3 C15_3 1_555 1_555
C16_3 C13_3 1_555 1_555
C17_3 N1_3 1_555 1_555
H14_3 C17_3 1_555 1_555
C18_3 C17_3 1_555 1_555
C19_3 C18_3 1_555 1_555
C20_3 C19_3 1_555 1_555
C23_3 C18_3 1_555 1_555
H18_3 C23_3 1_555 1_555
O10_3 Tb4 1_555 1_555
H19_3 O10_3 1_555 1_555
H20_3 O10_3 1_555 1_555
Tb4_2 O5_2 1_555 1_555
O12_2 Tb4 1_555 1_555
O13_2 Tb4 1_555 1_555
O14_2 Tb4 1_555 1_555
O15_2 Tb4 1_555 1_555
O6_2 Tb4_2 1_555 1_555
C5_3 C8_3 1_555 1_555
C6_3 C7_3 1_555 1_555
C14_3 C15_3 1_555 1_555
O8_2 C24_3 1_555 1_555
O9_2 C24_3 1_555 1_555
C22_3 C21_3 1_555 1_555
H17_3 C22_3 1_555 1_555
C24_3 C21_3 1_555 1_555
Tb4_2 O8_2 1_555 1_555
O9_2 Tb4_2 1_555 1_555
O13_2 C24_4 1_555 1_555
O15_2 C24_4 1_555 1_555
C22_4 C21_4 1_555 1_555
H17_4 C22_4 1_555 1_555
C24_4 C21_4 1_555 1_555
Tb4_2 O1_4 1_555 1_555
O1_4 C1_4 1_555 1_555
O7_4 Tb4_2 1_555 1_555
H2_4 O7_4 1_555 1_555
H3_4 O7_4 1_555 1_555
C1_4 C2_4 1_555 1_555
C2_4 C3_4 1_555 1_555
C7_4 C2_4 1_555 1_555
H6_4 C7_4 1_555 1_555
O10_4 Tb4_2 1_555 1_555
H19_4 O10_4 1_555 1_555
H20_4 O10_4 1_555 1_555
N1_4 C6_4 1_555 1_555
O3_4 H1_4 1_555 1_555
O4_4 C8_4 1_555 1_555
O12_2 C16_4 1_555 1_555
O14_2 C16_4 1_555 1_555
H5_4 C4_4 1_555 1_555
C5_4 C4_4 1_555 1_555
C6_4 C5_4 1_555 1_555
C8_4 O3_4 1_555 1_555
C9_4 N1_4 1_555 1_555
H7_2 C9_4 1_555 1_555
C10_4 C9_4 1_555 1_555
C11_4 C10_4 1_555 1_555
H9_2 C11_4 1_555 1_555
C12_4 C11_4 1_555 1_555
H10_4 C12_4 1_555 1_555
C13_4 C12_4 1_555 1_555
C14_4 C13_4 1_555 1_555
H11_4 C14_4 1_555 1_555
C15_4 C10_4 1_555 1_555
C16_4 C13_4 1_555 1_555
C17_4 N1_4 1_555 1_555
H13_2 C17_4 1_555 1_555
C18_4 C17_4 1_555 1_555
C19_4 C18_4 1_555 1_555
H15_2 C19_4 1_555 1_555
C20_4 C19_4 1_555 1_555
C23_4 C18_4 1_555 1_555
C5_4 C8_4 1_555 1_555
C14_4 C15_4 1_555 1_555

#END
