
###############################################################################
#
# This file contains modified crystal structure data generated from the
# MOF subset of the Cambridge Structural Database (CSD) v543 
# hosted by the Cambridge Crystallographic Data Centre (CCDC).
#
# This work is licensed under the Creative Commons
# Attribution-NonCommercial-ShareAlike 4.0 International License.
# To view a copy of this license, visit
# http://creativecommons.org/licenses/by-nc-sa/4.0/
# or send a letter to
# Creative Commons, PO Box 1866, Mountain View, CA 94042, USA.
#
# CIF created using the CSD Python API on 29 September 2022
# The structure has been converted into the P1 space group
# The structure has a 3D framework
# The original CSD entry TORKAO is in the orthorhombic crystal system
# The framework has been calculated to contain at least 10.0% void space
# The void calculation uses a probe of radius 1.32A, grid spacing 0.4
#
###############################################################################

data_TORKAO
_chemical_formula_moiety         '(C96 H80 Eu4 N4 O38)n'
_symmetry_cell_setting           triclinic
_symmetry_space_group_name_H-M   'P 1'
_symmetry_Int_Tables_number      1
_space_group_name_Hall           'P 1'
loop_
_symmetry_equiv_pos_site_id
_symmetry_equiv_pos_as_xyz
1 x,y,z
_cell_length_a                   11.048(3)
_cell_length_b                   16.702(4)
_cell_length_c                   18.739(5)
_cell_angle_alpha                90
_cell_angle_beta                 90
_cell_angle_gamma                90
_cell_volume                     3457.79
loop_
_atom_site_label
_atom_site_type_symbol
_atom_site_fract_x
_atom_site_fract_y
_atom_site_fract_z
N1 N 0.4242(7) 0.2500 0.0350(4)
O3 O 0.3610(9) 0.2500 0.1641(4)
H1 H 0.3729 0.2500 0.2072
O4 O 0.1690(16) 0.2500 0.1959(6)
C4 C 0.0879(11) 0.2500 0.0525(6)
H3 H 0.0294 0.2500 0.0881
C5 C 0.2114(9) 0.2500 0.0722(6)
C6 C 0.2952(7) 0.2500 0.0185(6)
C8 C 0.2468(17) 0.2500 0.1519(7)
C9 C 0.4883(6) 0.1754(4) 0.0075(4)
H6 H 0.5740 0.1790 0.0183
C10 C 0.4367(6) 0.1007(4) 0.0411(4)
C11 C 0.4718(7) 0.0758(5) 0.1090(4)
H7 H 0.5251 0.1069 0.1356
C12 C 0.4284(7) 0.0064(5) 0.1364(4)
C15 C 0.3518(7) 0.0548(4) 0.0037(4)
O8 O 0.3604(6) 0.6495(4) 0.1818(4)
O9 O 0.2118(5) 0.6521(4) 0.1066(4)
C17 C 0.4883(6) 0.3246(4) 0.0075(4)
H14 H 0.5740 0.3210 0.0183
C18 C 0.4367(6) 0.3993(4) 0.0411(4)
C19 C 0.4718(7) 0.4242(5) 0.1090(4)
H15 H 0.5251 0.3931 0.1356
C20 C 0.4284(7) 0.4936(5) 0.1364(4)
H16 H 0.4553 0.5101 0.1810
C21 C 0.3464(6) 0.5404(4) 0.1008(4)
C22 C 0.3063(6) 0.5158(5) 0.0358(5)
H17 H 0.2480 0.5458 0.0120
C23 C 0.3518(7) 0.4452(4) 0.0037(4)
C24 C 0.3042(6) 0.6176(5) 0.1310(4)
Eu3 Eu 0.20288(4) 0.7500 0.20476(2)
Eu1 Eu 0.29712(4) 0.2500 0.70476(2)
O1 O 0.1839(7) 0.2500 0.8073(4)
C1 C 0.1007(8) 0.2500 0.8527(5)
C2 C 0.1391(9) 0.2500 0.9291(5)
C3 C 0.0527(10) 0.2500 0.9851(7)
C7 C 0.2595(8) 0.2500 0.9454(5)
H4 H 0.3174 0.2500 0.9093
H5 H 0.4794 0.1724 0.9561
H10 H 0.3257 0.0703 0.9586
O7 O 0.3941(6) 0.1489(5) 0.7753(4)
H11 H 0.4784 0.1447 0.7621
H12 H 0.3893 0.1607 0.8227
H13 H 0.4794 0.3276 0.9561
H18 H 0.3257 0.4297 0.9586
O10 O 0.3941(6) 0.3511(5) 0.7753(4)
H19 H 0.4784 0.3553 0.7621
H20 H 0.3893 0.3393 0.8227
O11 O 0.4909(6) 0.2500 0.6616(4)
O12 O 0.1396(6) 0.1495(4) 0.6818(4)
O13 O 0.1396(6) 0.3505(4) 0.6818(4)
O14 O 0.2882(5) 0.1521(4) 0.6066(4)
O15 O 0.2882(5) 0.3479(4) 0.6066(4)
O5 O 0.3604(6) 0.8505(4) 0.1818(4)
O6 O 0.2118(5) 0.8479(4) 0.1066(4)
H8 H 0.4553 0.9899 0.1810
C13 C 0.3464(6) 0.9596(4) 0.1008(4)
C14 C 0.3063(6) 0.9842(5) 0.0358(5)
H9 H 0.2480 0.9542 0.0120
C16 C 0.3042(6) 0.8824(5) 0.1310(4)
O2 O 0.9909(6) 0.2500 0.8384(4)
H2 H 0.9706 0.2500 0.9743
Eu4 Eu 0.79712(4) 0.2500 0.79524(2)
H8_2 H 0.0447 0.0101 0.6810
C13_2 C 0.1536(6) 0.0404(4) 0.6008(4)
C14_2 C 0.1937(6) 0.0158(5) 0.5358(5)
H9_2 H 0.2520 0.0458 0.5120
C16_2 C 0.1958(6) 0.1176(5) 0.6310(4)
N1_2 N 0.0758(7) 0.7500 0.5350(4)
O1_2 O 0.3161(7) 0.7500 0.3073(4)
O2_2 O 0.5091(6) 0.7500 0.3384(4)
O3_2 O 0.1390(9) 0.7500 0.6641(4)
H1_2 H 0.1271 0.7500 0.7072
O4_2 O 0.3310(16) 0.7500 0.6959(6)
C1_2 C 0.3993(8) 0.7500 0.3527(5)
C2_2 C 0.3609(9) 0.7500 0.4291(5)
C3_2 C 0.4473(10) 0.7500 0.4851(7)
H2_2 H 0.5294 0.7500 0.4743
C4_2 C 0.4121(11) 0.7500 0.5525(6)
H3_2 H 0.4706 0.7500 0.5881
C5_2 C 0.2886(9) 0.7500 0.5722(6)
C6_2 C 0.2048(7) 0.7500 0.5185(6)
C7_2 C 0.2405(8) 0.7500 0.4454(5)
H4_2 H 0.1826 0.7500 0.4093
C8_2 C 0.2532(17) 0.7500 0.6519(7)
C9_2 C 0.0117(6) 0.8246(4) 0.5075(4)
H5_2 H 0.0206 0.8276 0.4561
C10_2 C 0.0633(6) 0.8993(4) 0.5411(4)
C11_2 C 0.0282(7) 0.9242(5) 0.6090(4)
C12_2 C 0.0716(7) 0.9936(5) 0.6364(4)
C15_2 C 0.1482(7) 0.9452(4) 0.5037(4)
H10_2 H 0.1743 0.9297 0.4586
O7_2 O 0.1059(6) 0.8511(5) 0.2753(4)
H11_2 H 0.0216 0.8553 0.2621
H12_2 H 0.1107 0.8393 0.3227
C17_2 C 0.0117(6) 0.6754(4) 0.5075(4)
H13_2 H 0.0206 0.6724 0.4561
C18_2 C 0.0633(6) 0.6007(4) 0.5411(4)
C19_2 C 0.0282(7) 0.5758(5) 0.6090(4)
C20_2 C 0.0716(7) 0.5064(5) 0.6364(4)
H16_2 H 0.0447 0.4899 0.6810
C21_2 C 0.1536(6) 0.4596(4) 0.6008(4)
C22_2 C 0.1937(6) 0.4842(5) 0.5358(5)
H17_2 H 0.2520 0.4542 0.5120
C23_2 C 0.1482(7) 0.5548(4) 0.5037(4)
H18_2 H 0.1743 0.5703 0.4586
C24_2 C 0.1958(6) 0.3824(5) 0.6310(4)
O10_2 O 0.1059(6) 0.6489(5) 0.2753(4)
H19_2 H 0.0216 0.6447 0.2621
H20_2 H 0.1107 0.6607 0.3227
Eu4_2 Eu 0.70288(4) 0.7500 0.29524(2)
O11_2 O 0.0091(6) 0.7500 0.1616(4)
H2_3 H 0.0294 0.7500 0.0257
O8_2 O 0.6396(6) 0.1495(4) 0.8182(4)
O9_2 O 0.7882(5) 0.1521(4) 0.8934(4)
H16_3 H 0.5447 0.0101 0.8190
C21_3 C 0.6536(6) 0.0404(4) 0.8992(4)
C22_3 C 0.6937(6) 0.0158(5) 0.9642(5)
H17_3 H 0.7520 0.0458 0.9880
C24_3 C 0.6958(6) 0.1176(5) 0.8690(4)
O1_3 O 0.8161(7) 0.7500 0.1927(4)
C1_3 C 0.8993(8) 0.7500 0.1473(5)
C2_3 C 0.8609(9) 0.7500 0.0709(5)
C3_3 C 0.9473(10) 0.7500 0.0149(7)
C7_3 C 0.7405(8) 0.7500 0.0546(5)
H4_3 H 0.6826 0.7500 0.0907
H5_3 H 0.5206 0.6724 0.0439
H10_3 H 0.6743 0.5703 0.0414
O7_3 O 0.6059(6) 0.6489(5) 0.2247(4)
H11_3 H 0.5216 0.6447 0.2379
H12_3 H 0.6107 0.6607 0.1773
H13_3 H 0.5206 0.8276 0.0439
H18_3 H 0.6743 0.9297 0.0414
O10_3 O 0.6059(6) 0.8511(5) 0.2247(4)
H19_3 H 0.5216 0.8553 0.2379
H20_3 H 0.6107 0.8393 0.1773
O12_2 O 0.8604(6) 0.6495(4) 0.3182(4)
O13_2 O 0.8604(6) 0.8505(4) 0.3182(4)
O14_2 O 0.7118(5) 0.6521(4) 0.3934(4)
O15_2 O 0.7118(5) 0.8479(4) 0.3934(4)
N1_3 N 0.5758(7) 0.7500 0.9650(4)
O3_3 O 0.6390(9) 0.7500 0.8359(4)
H1_3 H 0.6271 0.7500 0.7928
O4_3 O 0.8310(16) 0.7500 0.8041(6)
O5_2 O 0.6396(6) 0.3505(4) 0.8182(4)
O6_2 O 0.7882(5) 0.3479(4) 0.8934(4)
C4_3 C 0.9121(11) 0.7500 0.9475(6)
H3_3 H 0.9706 0.7500 0.9119
C5_3 C 0.7886(9) 0.7500 0.9278(6)
C6_3 C 0.7048(7) 0.7500 0.9815(6)
C8_3 C 0.7532(17) 0.7500 0.8481(7)
C9_3 C 0.5117(6) 0.6754(4) 0.9925(4)
H6_2 H 0.4260 0.6790 0.9817
C10_3 C 0.5633(6) 0.6007(4) 0.9589(4)
C11_3 C 0.5282(7) 0.5758(5) 0.8910(4)
H7_2 H 0.4749 0.6069 0.8644
C12_3 C 0.5716(7) 0.5064(5) 0.8636(4)
H8_3 H 0.5447 0.4899 0.8190
C13_3 C 0.6536(6) 0.4596(4) 0.8992(4)
C14_3 C 0.6937(6) 0.4842(5) 0.9642(5)
H9_3 H 0.7520 0.4542 0.9880
C15_3 C 0.6482(7) 0.5548(4) 0.9963(4)
C16_3 C 0.6958(6) 0.3824(5) 0.8690(4)
C17_3 C 0.5117(6) 0.8246(4) 0.9925(4)
H14_2 H 0.4260 0.8210 0.9817
C18_3 C 0.5633(6) 0.8993(4) 0.9589(4)
C19_3 C 0.5282(7) 0.9242(5) 0.8910(4)
H15_2 H 0.4749 0.8931 0.8644
C20_3 C 0.5716(7) 0.9936(5) 0.8636(4)
C23_3 C 0.6482(7) 0.9452(4) 0.9963(4)
N1_4 N 0.9242(7) 0.2500 0.4650(4)
O1_4 O 0.6839(7) 0.2500 0.6927(4)
O3_4 O 0.8610(9) 0.2500 0.3359(4)
H1_4 H 0.8729 0.2500 0.2928
O4_4 O 0.6690(16) 0.2500 0.3041(6)
C1_4 C 0.6007(8) 0.2500 0.6473(5)
C2_4 C 0.6391(9) 0.2500 0.5709(5)
C3_4 C 0.5527(10) 0.2500 0.5149(7)
H2_4 H 0.4706 0.2500 0.5257
C4_4 C 0.5879(11) 0.2500 0.4475(6)
H3_4 H 0.5294 0.2500 0.4119
C5_4 C 0.7114(9) 0.2500 0.4278(6)
C6_4 C 0.7952(7) 0.2500 0.4815(6)
C7_4 C 0.7595(8) 0.2500 0.5546(5)
H4_4 H 0.8174 0.2500 0.5907
C8_4 C 0.7468(17) 0.2500 0.3481(7)
C9_4 C 0.9883(6) 0.3246(4) 0.4925(4)
H5_4 H 0.9794 0.3276 0.5439
C10_4 C 0.9367(6) 0.3993(4) 0.4589(4)
C11_4 C 0.9718(7) 0.4242(5) 0.3910(4)
C12_4 C 0.9284(7) 0.4936(5) 0.3636(4)
H8_4 H 0.9553 0.5101 0.3190
C13_4 C 0.8464(6) 0.5404(4) 0.3992(4)
C14_4 C 0.8063(6) 0.5158(5) 0.4642(5)
H9_4 H 0.7480 0.5458 0.4880
C15_4 C 0.8518(7) 0.4452(4) 0.4963(4)
H10_4 H 0.8257 0.4297 0.5414
C16_4 C 0.8042(6) 0.6176(5) 0.3690(4)
O7_4 O 0.8941(6) 0.3511(5) 0.7247(4)
H11_4 H 0.9784 0.3553 0.7379
H12_4 H 0.8893 0.3393 0.6773
C17_4 C 0.9883(6) 0.1754(4) 0.4925(4)
H13_4 H 0.9794 0.1724 0.5439
C18_4 C 0.9367(6) 0.1007(4) 0.4589(4)
C19_4 C 0.9718(7) 0.0758(5) 0.3910(4)
C20_4 C 0.9284(7) 0.0064(5) 0.3636(4)
C23_4 C 0.8518(7) 0.0548(4) 0.4963(4)
H18_4 H 0.8257 0.0703 0.5414
O10_4 O 0.8941(6) 0.1489(5) 0.7247(4)
H19_4 H 0.9784 0.1447 0.7379
H20_4 H 0.8893 0.1607 0.6773
H16_4 H 0.9553 0.9899 0.3190
C21_4 C 0.8464(6) 0.9596(4) 0.3992(4)
C22_4 C 0.8063(6) 0.9842(5) 0.4642(5)
H17_4 H 0.7480 0.9542 0.4880
C24_4 C 0.8042(6) 0.8824(5) 0.3690(4)
H6_3 H 0.9260 0.8210 0.5183
H7_3 H 0.9749 0.8931 0.6356
H14_3 H 0.9260 0.6790 0.5183
H15_3 H 0.9749 0.6069 0.6356
H6_4 H 0.0740 0.3210 0.4817
H7_4 H 0.0251 0.3931 0.3644
H14_4 H 0.0740 0.1790 0.4817
H15_4 H 0.0251 0.1069 0.3644
loop_
_geom_bond_atom_site_label_1
_geom_bond_atom_site_label_2
_geom_bond_site_symmetry_1
_geom_bond_site_symmetry_2
N1 C6 1_555 1_555
O3 H1 1_555 1_555
O4 C8 1_555 1_555
H3 C4 1_555 1_555
C5 C4 1_555 1_555
C6 C5 1_555 1_555
C8 O3 1_555 1_555
C9 N1 1_555 1_555
H6 C9 1_555 1_555
C10 C9 1_555 1_555
C11 C10 1_555 1_555
H7 C11 1_555 1_555
C12 C11 1_555 1_555
C15 C10 1_555 1_555
O8 C24 1_555 1_555
O9 C24 1_555 1_555
C17 N1 1_555 1_555
H14 C17 1_555 1_555
C18 C17 1_555 1_555
C19 C18 1_555 1_555
H15 C19 1_555 1_555
C20 C19 1_555 1_555
H16 C20 1_555 1_555
C21 C20 1_555 1_555
C22 C21 1_555 1_555
H17 C22 1_555 1_555
C23 C18 1_555 1_555
C24 C21 1_555 1_555
Eu3 O8 1_555 1_555
C5 C8 1_555 1_555
O9 Eu3 1_555 1_555
C22 C23 1_555 1_555
Eu1 O1 1_555 1_555
O1 C1 1_555 1_555
C1 C2 1_555 1_555
C2 C3 1_555 1_555
C7 C2 1_555 1_555
H4 C7 1_555 1_555
O7 Eu1 1_555 1_555
H11 O7 1_555 1_555
H12 O7 1_555 1_555
O10 Eu1 1_555 1_555
H19 O10 1_555 1_555
H20 O10 1_555 1_555
O11 Eu1 1_555 1_555
O12 Eu1 1_555 1_555
O13 Eu1 1_555 1_555
O14 Eu1 1_555 1_555
O15 Eu1 1_555 1_555
O5 C16 1_555 1_555
O6 C16 1_555 1_555
C14 C13 1_555 1_555
H9 C14 1_555 1_555
C16 C13 1_555 1_555
Eu3 O5 1_555 1_555
O6 Eu3 1_555 1_555
Eu4 O2 1_555 1_555
O12 C16_2 1_555 1_555
O14 C16_2 1_555 1_555
C14_2 C13_2 1_555 1_555
H9_2 C14_2 1_555 1_555
C16_2 C13_2 1_555 1_555
N1_2 C6_2 1_555 1_555
Eu3 O1_2 1_555 1_555
O1_2 C1_2 1_555 1_555
O2_2 C1_2 1_555 1_555
O3_2 H1_2 1_555 1_555
O4_2 C8_2 1_555 1_555
C1_2 C2_2 1_555 1_555
C2_2 C3_2 1_555 1_555
C3_2 H2_2 1_555 1_555
C4_2 C3_2 1_555 1_555
H3_2 C4_2 1_555 1_555
C5_2 C4_2 1_555 1_555
C6_2 C5_2 1_555 1_555
C7_2 C2_2 1_555 1_555
H4_2 C7_2 1_555 1_555
C8_2 O3_2 1_555 1_555
C9_2 N1_2 1_555 1_555
H5_2 C9_2 1_555 1_555
C10_2 C9_2 1_555 1_555
C11_2 C10_2 1_555 1_555
C12_2 C11_2 1_555 1_555
C15_2 C10_2 1_555 1_555
H10_2 C15_2 1_555 1_555
O7_2 Eu3 1_555 1_555
H11_2 O7_2 1_555 1_555
H12_2 O7_2 1_555 1_555
O13 C24_2 1_555 1_555
O15 C24_2 1_555 1_555
C17_2 N1_2 1_555 1_555
H13_2 C17_2 1_555 1_555
C18_2 C17_2 1_555 1_555
C19_2 C18_2 1_555 1_555
C20_2 C19_2 1_555 1_555
H16_2 C20_2 1_555 1_555
C21_2 C20_2 1_555 1_555
C22_2 C21_2 1_555 1_555
H17_2 C22_2 1_555 1_555
C23_2 C18_2 1_555 1_555
H18_2 C23_2 1_555 1_555
C24_2 C21_2 1_555 1_555
O10_2 Eu3 1_555 1_555
H19_2 O10_2 1_555 1_555
H20_2 O10_2 1_555 1_555
Eu4_2 O2_2 1_555 1_555
O11_2 Eu3 1_555 1_555
C5_2 C8_2 1_555 1_555
C6_2 C7_2 1_555 1_555
C22_2 C23_2 1_555 1_555
O8_2 C24_3 1_555 1_555
O9_2 C24_3 1_555 1_555
C22_3 C21_3 1_555 1_555
H17_3 C22_3 1_555 1_555
C24_3 C21_3 1_555 1_555
Eu4 O8_2 1_555 1_555
O9_2 Eu4 1_555 1_555
Eu4_2 O1_3 1_555 1_555
O1_3 C1_3 1_555 1_555
C1_3 C2_3 1_555 1_555
C2_3 C3_3 1_555 1_555
C7_3 C2_3 1_555 1_555
H4_3 C7_3 1_555 1_555
O7_3 Eu4_2 1_555 1_555
H11_3 O7_3 1_555 1_555
H12_3 O7_3 1_555 1_555
O10_3 Eu4_2 1_555 1_555
H19_3 O10_3 1_555 1_555
H20_3 O10_3 1_555 1_555
O12_2 Eu4_2 1_555 1_555
O13_2 Eu4_2 1_555 1_555
O14_2 Eu4_2 1_555 1_555
O15_2 Eu4_2 1_555 1_555
N1_3 C6_3 1_555 1_555
O3_3 H1_3 1_555 1_555
O4_3 C8_3 1_555 1_555
O5_2 C16_3 1_555 1_555
O6_2 C16_3 1_555 1_555
H3_3 C4_3 1_555 1_555
C5_3 C4_3 1_555 1_555
C6_3 C5_3 1_555 1_555
C8_3 O3_3 1_555 1_555
C9_3 N1_3 1_555 1_555
H6_2 C9_3 1_555 1_555
C10_3 C9_3 1_555 1_555
C11_3 C10_3 1_555 1_555
H7_2 C11_3 1_555 1_555
C12_3 C11_3 1_555 1_555
H8_3 C12_3 1_555 1_555
C13_3 C12_3 1_555 1_555
C14_3 C13_3 1_555 1_555
H9_3 C14_3 1_555 1_555
C15_3 C10_3 1_555 1_555
C16_3 C13_3 1_555 1_555
C17_3 N1_3 1_555 1_555
H14_2 C17_3 1_555 1_555
C18_3 C17_3 1_555 1_555
C19_3 C18_3 1_555 1_555
H15_2 C19_3 1_555 1_555
C20_3 C19_3 1_555 1_555
C23_3 C18_3 1_555 1_555
Eu4 O5_2 1_555 1_555
O6_2 Eu4 1_555 1_555
C5_3 C8_3 1_555 1_555
C14_3 C15_3 1_555 1_555
N1_4 C6_4 1_555 1_555
Eu4 O1_4 1_555 1_555
O1_4 C1_4 1_555 1_555
O11 C1_4 1_555 1_555
O3_4 H1_4 1_555 1_555
O4_4 C8_4 1_555 1_555
O12_2 C16_4 1_555 1_555
O14_2 C16_4 1_555 1_555
C1_4 C2_4 1_555 1_555
C2_4 C3_4 1_555 1_555
C3_4 H2_4 1_555 1_555
C4_4 C3_4 1_555 1_555
H3_4 C4_4 1_555 1_555
C5_4 C4_4 1_555 1_555
C6_4 C5_4 1_555 1_555
C7_4 C2_4 1_555 1_555
H4_4 C7_4 1_555 1_555
C8_4 O3_4 1_555 1_555
C9_4 N1_4 1_555 1_555
H5_4 C9_4 1_555 1_555
C10_4 C9_4 1_555 1_555
C11_4 C10_4 1_555 1_555
C12_4 C11_4 1_555 1_555
H8_4 C12_4 1_555 1_555
C13_4 C12_4 1_555 1_555
C14_4 C13_4 1_555 1_555
H9_4 C14_4 1_555 1_555
C15_4 C10_4 1_555 1_555
H10_4 C15_4 1_555 1_555
C16_4 C13_4 1_555 1_555
O7_4 Eu4 1_555 1_555
H11_4 O7_4 1_555 1_555
H12_4 O7_4 1_555 1_555
C17_4 N1_4 1_555 1_555
H13_4 C17_4 1_555 1_555
C18_4 C17_4 1_555 1_555
C19_4 C18_4 1_555 1_555
C20_4 C19_4 1_555 1_555
C23_4 C18_4 1_555 1_555
H18_4 C23_4 1_555 1_555
O10_4 Eu4 1_555 1_555
H19_4 O10_4 1_555 1_555
H20_4 O10_4 1_555 1_555
C5_4 C8_4 1_555 1_555
C6_4 C7_4 1_555 1_555
C14_4 C15_4 1_555 1_555
O13_2 C24_4 1_555 1_555
O15_2 C24_4 1_555 1_555
C22_4 C21_4 1_555 1_555
H17_4 C22_4 1_555 1_555
C24_4 C21_4 1_555 1_555

#END
