
###############################################################################
#
# This file contains modified crystal structure data generated from the
# MOF subset of the Cambridge Structural Database (CSD) v543 
# hosted by the Cambridge Crystallographic Data Centre (CCDC).
#
# This work is licensed under the Creative Commons
# Attribution-NonCommercial-ShareAlike 4.0 International License.
# To view a copy of this license, visit
# http://creativecommons.org/licenses/by-nc-sa/4.0/
# or send a letter to
# Creative Commons, PO Box 1866, Mountain View, CA 94042, USA.
#
# CIF created using the CSD Python API on 29 September 2022
# The structure has been converted into the P1 space group
# The structure has a 3D framework
# The original CSD entry TORPUN is in the orthorhombic crystal system
# The framework has been calculated to contain at least 10.0% void space
# The void calculation uses a probe of radius 1.32A, grid spacing 0.4
#
###############################################################################

data_TORPUN
_chemical_formula_moiety         '(C528 H352 N16 O152 Tb23)n'
_symmetry_cell_setting           triclinic
_symmetry_space_group_name_H-M   'P 1'
_symmetry_Int_Tables_number      1
_space_group_name_Hall           'P 1'
loop_
_symmetry_equiv_pos_site_id
_symmetry_equiv_pos_as_xyz
1 x,y,z
_cell_length_a                   8.487(5)
_cell_length_b                   34.829(5)
_cell_length_c                   52.441(5)
_cell_angle_alpha                90
_cell_angle_beta                 90
_cell_angle_gamma                90
_cell_volume                     15501.2
loop_
_atom_site_label
_atom_site_type_symbol
_atom_site_fract_x
_atom_site_fract_y
_atom_site_fract_z
Tb1 Tb 0.2500 0.2500 0.381316(11)
O1 O 0.3065(11) 0.1649(3) 0.21505(17)
O2 O 0.1896(14) 0.2121(3) 0.3445(2)
O7 O 0.0644(17) 0.2411(3) 0.1153(3)
O8 O 0.3798(10) 0.0576(3) 0.08850(19)
O9 O 0.2329(11) 0.03338(19) 0.1193(3)
O10 O 0.1438(11) 0.2819(3) 0.41943(18)
C1 C 0.1132(14) 0.2101(4) 0.2036(2)
C2 C 0.0305(15) 0.2427(4) 0.2104(3)
H1 H 0.0232 0.2494 0.2275
C5 C 0.0518(16) 0.2240(4) 0.1590(3)
C6 C 0.1239(15) 0.2013(4) 0.1778(3)
H3 H 0.1805 0.1797 0.1729
C7 C 0.2042(16) 0.1868(4) 0.2212(3)
C8 C 0.1720(15) 0.1921(4) 0.2496(3)
C9 C 0.2972(15) 0.1934(4) 0.2662(3)
H4 H 0.3994 0.1903 0.2601
C10 C 0.2697(14) 0.1996(4) 0.2928(3)
H5 H 0.3533 0.2012 0.3042
C11 C 0.1148(14) 0.2032(3) 0.3012(3)
C13 C 0.0130(14) 0.1948(4) 0.2588(3)
C14 C 0.0857(16) 0.2118(4) 0.3293(3)
H10 H 0.0294 0.3868 0.1432
H11 H 0.0452 0.3298 0.1638
C23 C 0.0742(18) 0.2158(4) 0.1308(3)
C24 C 0.1173(16) 0.1753(4) 0.1232(3)
C25 C 0.2202(18) 0.1701(4) 0.1039(3)
H12 H 0.2592 0.1911 0.0950
C26 C 0.2680(19) 0.1331(5) 0.0974(3)
H13 H 0.3414 0.1298 0.0844
C27 C 0.2081(14) 0.1006(4) 0.1099(2)
C28 C 0.0973(15) 0.1076(4) 0.1286(3)
H14 H 0.0515 0.0871 0.1372
C29 C 0.0550(17) 0.1436(5) 0.1345(3)
C30 C 0.2738(13) 0.0611(4) 0.1054(3)
C31 C 0.010(2) 0.2850(8) 0.4281(4)
C33 C 0.096(2) 0.3102(7) 0.4674(4)
H20 H 0.0483 0.3187 0.4831
H21 H 0.1571 0.3307 0.4603
H22 H 0.1625 0.2885 0.4708
O20 O 0.3562(11) 0.2181(3) 0.41943(18)
N2 N 0.5230(19) 0.2005(6) 0.4502(3)
C64 C 0.490(2) 0.2150(8) 0.4281(4)
H38 H 0.5730 0.2236 0.4181
C65 C 0.679(3) 0.1950(8) 0.4603(4)
H39 H 0.6723 0.1852 0.4773
H40 H 0.7338 0.2192 0.4604
H41 H 0.7356 0.1771 0.4497
C66 C 0.404(2) 0.1898(7) 0.4674(4)
H42 H 0.4517 0.1813 0.4831
H43 H 0.3429 0.1693 0.4603
H44 H 0.3375 0.2115 0.4708
Tb4 Tb 0.0000 0.0000 0.131316(11)
Tb7 Tb 0.5000 0.0000 0.105653(12)
Tb9 Tb 0.0000 0.5000 0.105653(12)
O21 O 0.3104(14) 0.2879(3) 0.3445(2)
O22 O 0.0653(12) 0.2083(3) 0.3963(2)
O23 O 0.4347(12) 0.2917(3) 0.3963(2)
O28 O 0.0171(11) 0.28338(19) 0.3693(3)
O30 O 0.4829(11) 0.21662(19) 0.3693(3)
Tb4_2 Tb -0.0000 1.0000 0.131316(11)
Tb7_2 Tb 0.5000 1.0000 0.105653(12)
Tb2 Tb 0.7500 0.2500 0.355653(12)
O3 O 0.9423(14) 0.2204(3) 0.3336(2)
O4 O 0.8103(11) 0.2988(3) 0.22253(19)
O5 O 0.6847(12) 0.4583(3) 0.1463(2)
O6 O 0.9487(14) 0.4580(3) 0.1382(2)
N1 N 0.9770(19) 0.2995(6) 0.4502(3)
C3 C 0.9557(14) 0.2665(4) 0.1916(3)
C4 C 0.9657(15) 0.2568(4) 0.1664(3)
H2 H 0.9160 0.2719 0.1541
C12 C 0.9854(14) 0.1993(4) 0.2847(2)
H6 H 0.8830 0.1996 0.2911
H7 H 0.9290 0.1937 0.2475
C15 C 0.8695(14) 0.3003(4) 0.2007(3)
C16 C 0.8522(12) 0.3354(3) 0.1852(2)
C17 C 0.7319(13) 0.3607(4) 0.1909(3)
H8 H 0.6589 0.3545 0.2034
C18 C 0.7201(13) 0.3946(4) 0.1782(3)
H9 H 0.6366 0.4111 0.1817
C19 C 0.8316(13) 0.4047(4) 0.1602(2)
C20 C 0.9530(13) 0.3802(3) 0.1552(2)
C21 C 0.9620(15) 0.3463(4) 0.1675(3)
C22 C 0.8196(16) 0.4432(4) 0.1469(2)
H15 H 0.9789 0.1471 0.1471
H16 H 0.9270 0.2764 0.4181
C32 C 0.821(3) 0.3050(8) 0.4603(4)
H17 H 0.8277 0.3148 0.4773
H18 H 0.7662 0.2808 0.4604
H19 H 0.7644 0.3229 0.4497
O11 O 0.1935(11) 0.3351(3) 0.21505(17)
O13 O 0.5577(14) 0.2796(3) 0.3336(2)
O14 O 0.6897(11) 0.2012(3) 0.22253(19)
O15 O 0.8153(12) 0.0417(3) 0.1463(2)
O16 O 0.5513(14) 0.0420(3) 0.1382(2)
O17 O 0.4356(17) 0.2589(3) 0.1153(3)
O18 O 0.1202(10) 0.4424(3) 0.08850(19)
O19 O 0.2671(11) 0.46662(19) 0.1193(3)
C34 C 0.3868(14) 0.2899(4) 0.2036(2)
C35 C 0.4695(15) 0.2573(4) 0.2104(3)
H23 H 0.4768 0.2506 0.2275
C36 C 0.5443(14) 0.2335(4) 0.1916(3)
C37 C 0.5343(15) 0.2432(4) 0.1664(3)
H24 H 0.5840 0.2281 0.1541
C38 C 0.4482(16) 0.2760(4) 0.1590(3)
C39 C 0.3761(15) 0.2987(4) 0.1778(3)
H25 H 0.3195 0.3203 0.1729
C40 C 0.2958(16) 0.3132(4) 0.2212(3)
C41 C 0.3280(15) 0.3079(4) 0.2496(3)
C42 C 0.2028(15) 0.3066(4) 0.2662(3)
H26 H 0.1006 0.3097 0.2601
C43 C 0.2303(14) 0.3004(4) 0.2928(3)
H27 H 0.1467 0.2988 0.3042
C44 C 0.3852(14) 0.2968(3) 0.3012(3)
C45 C 0.5146(14) 0.3007(4) 0.2847(2)
H28 H 0.6170 0.3004 0.2911
C46 C 0.4870(14) 0.3052(4) 0.2588(3)
H29 H 0.5710 0.3063 0.2475
C47 C 0.4143(16) 0.2882(4) 0.3293(3)
C48 C 0.6305(14) 0.1997(4) 0.2007(3)
C49 C 0.6478(12) 0.1646(3) 0.1852(2)
C50 C 0.7681(13) 0.1393(4) 0.1909(3)
H30 H 0.8411 0.1455 0.2034
C51 C 0.7799(13) 0.1054(4) 0.1782(3)
H31 H 0.8634 0.0889 0.1817
C52 C 0.6684(13) 0.0953(4) 0.1602(2)
C53 C 0.5470(13) 0.1198(3) 0.1552(2)
H32 H 0.4706 0.1132 0.1432
C54 C 0.5380(15) 0.1537(4) 0.1675(3)
H33 H 0.4548 0.1702 0.1638
C55 C 0.6804(16) 0.0568(4) 0.1469(2)
C56 C 0.4258(18) 0.2842(4) 0.1308(3)
C57 C 0.3827(16) 0.3247(4) 0.1232(3)
C58 C 0.2798(18) 0.3299(4) 0.1039(3)
H34 H 0.2408 0.3089 0.0950
C59 C 0.2320(19) 0.3669(5) 0.0974(3)
H35 H 0.1586 0.3702 0.0844
C60 C 0.2919(14) 0.3994(4) 0.1099(2)
C61 C 0.4027(15) 0.3924(4) 0.1286(3)
H36 H 0.4485 0.4129 0.1372
C62 C 0.4450(17) 0.3564(5) 0.1345(3)
H37 H 0.5211 0.3529 0.1471
C63 C 0.2262(13) 0.4389(4) 0.1054(3)
Tb4_3 Tb 1.0000 0.0000 0.131316(11)
Tb5 Tb 0.5000 0.5000 0.131316(11)
Tb9_2 Tb 1.0000 0.5000 0.105653(12)
O24 O 0.8013(14) 0.2080(3) 0.3882(2)
O25 O 0.6987(14) 0.2920(3) 0.3882(2)
O26 O 0.8702(10) 0.3076(3) 0.33850(19)
O27 O 0.6298(10) 0.1924(3) 0.33850(19)
Tb4_4 Tb 1.0000 1.0000 0.131316(11)
Tb2_2 Tb 0.2500 0.7500 0.355653(12)
O3_2 O 0.0577(14) 0.7796(3) 0.3336(2)
O4_2 O 0.1897(11) 0.7012(3) 0.22253(19)
O5_2 O 0.3153(12) 0.5417(3) 0.1463(2)
O6_2 O 0.0513(14) 0.5420(3) 0.1382(2)
N1_2 N 0.0230(19) 0.7005(6) 0.4502(3)
C3_2 C 0.0443(14) 0.7335(4) 0.1916(3)
C4_2 C 0.0343(15) 0.7432(4) 0.1664(3)
H2_2 H 0.0840 0.7281 0.1541
C12_2 C 0.0146(14) 0.8007(4) 0.2847(2)
H6_2 H 0.1170 0.8004 0.2911
H7_2 H 0.0710 0.8063 0.2475
C15_2 C 0.1305(14) 0.6997(4) 0.2007(3)
C16_2 C 0.1478(12) 0.6646(3) 0.1852(2)
C17_2 C 0.2681(13) 0.6393(4) 0.1909(3)
H8_2 H 0.3411 0.6455 0.2034
C18_2 C 0.2799(13) 0.6054(4) 0.1782(3)
H9_2 H 0.3634 0.5889 0.1817
C19_2 C 0.1684(13) 0.5953(4) 0.1602(2)
C20_2 C 0.0470(13) 0.6198(3) 0.1552(2)
C21_2 C 0.0380(15) 0.6537(4) 0.1675(3)
C22_2 C 0.1804(16) 0.5568(4) 0.1469(2)
H15_2 H 0.0211 0.8529 0.1471
H16_2 H 0.0730 0.7236 0.4181
C32_2 C 0.179(3) 0.6950(8) 0.4603(4)
H17_2 H 0.1723 0.6852 0.4773
H18_2 H 0.2338 0.7192 0.4604
H19_2 H 0.2356 0.6771 0.4497
O11_2 O 0.8065(11) 0.6649(3) 0.21505(17)
O12 O 0.6896(14) 0.7121(3) 0.3445(2)
O13_2 O 0.4423(14) 0.7204(3) 0.3336(2)
O14_2 O 0.3103(11) 0.7988(3) 0.22253(19)
O15_2 O 0.1847(12) 0.9583(3) 0.1463(2)
O16_2 O 0.4487(14) 0.9580(3) 0.1382(2)
O17_2 O 0.5644(17) 0.7411(3) 0.1153(3)
O18_2 O 0.8798(10) 0.5576(3) 0.08850(19)
O19_2 O 0.7329(11) 0.53338(19) 0.1193(3)
C34_2 C 0.6132(14) 0.7101(4) 0.2036(2)
C35_2 C 0.5305(15) 0.7427(4) 0.2104(3)
H23_2 H 0.5232 0.7494 0.2275
C36_2 C 0.4557(14) 0.7665(4) 0.1916(3)
C37_2 C 0.4657(15) 0.7568(4) 0.1664(3)
H24_2 H 0.4160 0.7719 0.1541
C38_2 C 0.5518(16) 0.7240(4) 0.1590(3)
C39_2 C 0.6239(15) 0.7013(4) 0.1778(3)
H25_2 H 0.6805 0.6797 0.1729
C40_2 C 0.7042(16) 0.6868(4) 0.2212(3)
C41_2 C 0.6720(15) 0.6921(4) 0.2496(3)
C42_2 C 0.7972(15) 0.6934(4) 0.2662(3)
H26_2 H 0.8994 0.6903 0.2601
C43_2 C 0.7697(14) 0.6996(4) 0.2928(3)
H27_2 H 0.8533 0.7012 0.3042
C44_2 C 0.6148(14) 0.7032(3) 0.3012(3)
C45_2 C 0.4854(14) 0.6993(4) 0.2847(2)
H28_2 H 0.3830 0.6996 0.2911
C46_2 C 0.5130(14) 0.6948(4) 0.2588(3)
H29_2 H 0.4290 0.6937 0.2475
C47_2 C 0.5857(16) 0.7118(4) 0.3293(3)
C48_2 C 0.3695(14) 0.8003(4) 0.2007(3)
C49_2 C 0.3522(12) 0.8354(3) 0.1852(2)
C50_2 C 0.2319(13) 0.8607(4) 0.1909(3)
H30_2 H 0.1589 0.8545 0.2034
C51_2 C 0.2201(13) 0.8946(4) 0.1782(3)
H31_2 H 0.1366 0.9111 0.1817
C52_2 C 0.3316(13) 0.9047(4) 0.1602(2)
C53_2 C 0.4530(13) 0.8802(3) 0.1552(2)
H32_2 H 0.5294 0.8868 0.1432
C54_2 C 0.4620(15) 0.8463(4) 0.1675(3)
H33_2 H 0.5452 0.8298 0.1638
C55_2 C 0.3196(16) 0.9432(4) 0.1469(2)
C56_2 C 0.5742(18) 0.7158(4) 0.1308(3)
C57_2 C 0.6173(16) 0.6753(4) 0.1232(3)
C58_2 C 0.7202(18) 0.6701(4) 0.1039(3)
H34_2 H 0.7592 0.6911 0.0950
C59_2 C 0.7680(19) 0.6331(5) 0.0974(3)
H35_2 H 0.8414 0.6298 0.0844
C60_2 C 0.7081(14) 0.6006(4) 0.1099(2)
C61_2 C 0.5973(15) 0.6076(4) 0.1286(3)
H36_2 H 0.5515 0.5871 0.1372
C62_2 C 0.5550(17) 0.6436(5) 0.1345(3)
H37_2 H 0.4789 0.6471 0.1471
C63_2 C 0.7738(13) 0.5611(4) 0.1054(3)
Tb3 Tb 0.7500 0.7500 0.381316(11)
O24_2 O 0.1987(14) 0.7920(3) 0.3882(2)
O25_2 O 0.3013(14) 0.7080(3) 0.3882(2)
O26_2 O 0.1298(10) 0.6924(3) 0.33850(19)
O27_2 O 0.3702(10) 0.8076(3) 0.33850(19)
O29 O 0.5171(11) 0.78338(19) 0.3693(3)
O1_2 O 0.6935(11) 0.8351(3) 0.21505(17)
O2_2 O 0.8104(14) 0.7879(3) 0.3445(2)
O7_2 O 0.9356(17) 0.7589(3) 0.1153(3)
O8_2 O 0.6202(10) 0.9424(3) 0.08850(19)
O9_2 O 0.7671(11) 0.96662(19) 0.1193(3)
O10_2 O 0.8562(11) 0.7181(3) 0.41943(18)
C1_2 C 0.8868(14) 0.7899(4) 0.2036(2)
C2_2 C 0.9695(15) 0.7573(4) 0.2104(3)
H1_2 H 0.9768 0.7506 0.2275
C5_2 C 0.9482(16) 0.7760(4) 0.1590(3)
C6_2 C 0.8761(15) 0.7987(4) 0.1778(3)
H3_2 H 0.8195 0.8203 0.1729
C7_2 C 0.7958(16) 0.8132(4) 0.2212(3)
C8_2 C 0.8280(15) 0.8079(4) 0.2496(3)
C9_2 C 0.7028(15) 0.8066(4) 0.2662(3)
H4_2 H 0.6006 0.8097 0.2601
C10_2 C 0.7303(14) 0.8004(4) 0.2928(3)
H5_2 H 0.6467 0.7988 0.3042
C11_2 C 0.8852(14) 0.7968(3) 0.3012(3)
C13_2 C 0.9870(14) 0.8052(4) 0.2588(3)
C14_2 C 0.9143(16) 0.7882(4) 0.3293(3)
H10_2 H 0.9706 0.6132 0.1432
H11_2 H 0.9548 0.6702 0.1638
C23_2 C 0.9258(18) 0.7842(4) 0.1308(3)
C24_2 C 0.8827(16) 0.8247(4) 0.1232(3)
C25_2 C 0.7798(18) 0.8299(4) 0.1039(3)
H12_2 H 0.7408 0.8089 0.0950
C26_2 C 0.7320(19) 0.8669(5) 0.0974(3)
H13_2 H 0.6586 0.8702 0.0844
C27_2 C 0.7919(14) 0.8994(4) 0.1099(2)
C28_2 C 0.9027(15) 0.8924(4) 0.1286(3)
H14_2 H 0.9485 0.9129 0.1372
C29_2 C 0.9450(17) 0.8564(5) 0.1345(3)
C30_2 C 0.7262(13) 0.9389(4) 0.1054(3)
C31_2 C 0.990(2) 0.7150(8) 0.4281(4)
C33_2 C 0.904(2) 0.6898(7) 0.4674(4)
H20_2 H 0.9517 0.6813 0.4831
H21_2 H 0.8429 0.6693 0.4603
H22_2 H 0.8375 0.7115 0.4708
O20_2 O 0.6438(11) 0.7819(3) 0.41943(18)
N2_2 N 0.4770(19) 0.7995(6) 0.4502(3)
C64_2 C 0.510(2) 0.7850(8) 0.4281(4)
H38_2 H 0.4270 0.7764 0.4181
C65_2 C 0.321(3) 0.8050(8) 0.4603(4)
H39_2 H 0.3277 0.8148 0.4773
H40_2 H 0.2662 0.7808 0.4604
H41_2 H 0.2644 0.8229 0.4497
C66_2 C 0.596(2) 0.8102(7) 0.4674(4)
H42_2 H 0.5483 0.8187 0.4831
H43_2 H 0.6571 0.8307 0.4603
H44_2 H 0.6625 0.7885 0.4708
O22_2 O 0.9347(12) 0.7917(3) 0.3963(2)
O23_2 O 0.5653(12) 0.7083(3) 0.3963(2)
O28_2 O 0.9829(11) 0.71662(19) 0.3693(3)
O11_3 O 0.0565(11) 0.5851(3) 0.46505(17)
C42_3 C 0.0472(15) 0.5566(4) 0.5162(3)
H26_3 H 0.1494 0.5597 0.5101
C43_3 C 0.0197(14) 0.5504(4) 0.5428(3)
H27_3 H 0.1033 0.5488 0.5542
H34_3 H 0.0092 0.5589 0.3450
C59_3 C 0.0180(19) 0.6169(5) 0.3474(3)
H35_3 H 0.0914 0.6202 0.3344
C63_3 C 0.0238(13) 0.6889(4) 0.3554(3)
Tb3_2 Tb 0.0000 0.5000 0.631316(11)
Tb2_3 Tb 0.5000 0.5000 0.605653(12)
O2_3 O 0.0604(14) 0.4621(3) 0.5945(2)
O3_3 O 0.3077(14) 0.4704(3) 0.5836(2)
O4_3 O 0.4397(11) 0.5488(3) 0.47253(19)
O7_3 O 0.1856(17) 0.4911(3) 0.3653(3)
O10_3 O 0.1062(11) 0.5319(3) 0.66943(18)
N1_3 N 0.2730(19) 0.5495(6) 0.7002(3)
C1_3 C 0.1368(14) 0.4601(4) 0.4536(2)
C2_3 C 0.2195(15) 0.4927(4) 0.4604(3)
H1_3 H 0.2268 0.4994 0.4775
C3_3 C 0.2943(14) 0.5165(4) 0.4416(3)
C4_3 C 0.2843(15) 0.5068(4) 0.4164(3)
H2_3 H 0.3340 0.5219 0.4041
C5_3 C 0.1982(16) 0.4740(4) 0.4090(3)
C6_3 C 0.1261(15) 0.4513(4) 0.4278(3)
H3_3 H 0.0695 0.4297 0.4229
C7_3 C 0.0458(16) 0.4368(4) 0.4712(3)
C8_3 C 0.0780(15) 0.4421(4) 0.4996(3)
C11_3 C 0.1352(14) 0.4532(3) 0.5512(3)
C12_3 C 0.2646(14) 0.4493(4) 0.5347(2)
H6_3 H 0.3670 0.4496 0.5411
C13_3 C 0.2370(14) 0.4448(4) 0.5088(3)
H7_3 H 0.3210 0.4437 0.4975
C14_3 C 0.1643(16) 0.4618(4) 0.5793(3)
C15_3 C 0.3805(14) 0.5503(4) 0.4507(3)
C16_3 C 0.3978(12) 0.5854(3) 0.4352(2)
C17_3 C 0.5181(13) 0.6107(4) 0.4409(3)
H8_3 H 0.5911 0.6045 0.4534
C18_3 C 0.5299(13) 0.6446(4) 0.4282(3)
H9_3 H 0.6134 0.6611 0.4317
C19_3 C 0.4184(13) 0.6547(4) 0.4102(2)
C20_3 C 0.2970(13) 0.6302(3) 0.4052(2)
H10_3 H 0.2206 0.6368 0.3932
C21_3 C 0.2880(15) 0.5963(4) 0.4175(3)
H11_3 H 0.2048 0.5798 0.4138
C22_3 C 0.4304(16) 0.6932(4) 0.3969(2)
C23_3 C 0.1758(18) 0.4658(4) 0.3808(3)
C24_3 C 0.1327(16) 0.4253(4) 0.3732(3)
C25_3 C 0.0298(18) 0.4201(4) 0.3539(3)
C27_3 C 0.0419(14) 0.3506(4) 0.3599(2)
C28_3 C 0.1527(15) 0.3576(4) 0.3786(3)
H14_3 H 0.1985 0.3371 0.3872
C29_3 C 0.1950(17) 0.3936(5) 0.3845(3)
H15_3 H 0.2711 0.3971 0.3971
C31_3 C 0.240(2) 0.5350(8) 0.6781(4)
H16_3 H 0.3230 0.5264 0.6681
C32_3 C 0.429(3) 0.5550(8) 0.7103(4)
H17_3 H 0.4223 0.5648 0.7273
H18_3 H 0.4838 0.5308 0.7104
H19_3 H 0.4856 0.5729 0.6997
C33_3 C 0.154(2) 0.5602(7) 0.7174(4)
H20_3 H 0.2017 0.5687 0.7331
H21_3 H 0.0929 0.5807 0.7103
H22_3 H 0.0875 0.5385 0.7208
O12_2 O 0.9396(14) 0.5379(3) 0.5945(2)
O13_3 O 0.6923(14) 0.5296(3) 0.5836(2)
O14_3 O 0.5603(11) 0.4512(3) 0.47253(19)
O17_3 O 0.8144(17) 0.5089(3) 0.3653(3)
C34_3 C 0.8632(14) 0.5399(4) 0.4536(2)
C35_3 C 0.7805(15) 0.5073(4) 0.4604(3)
H23_3 H 0.7732 0.5006 0.4775
C36_3 C 0.7057(14) 0.4835(4) 0.4416(3)
C37_3 C 0.7157(15) 0.4932(4) 0.4164(3)
H24_3 H 0.6660 0.4781 0.4041
C38_3 C 0.8018(16) 0.5260(4) 0.4090(3)
C39_3 C 0.8739(15) 0.5487(4) 0.4278(3)
H25_3 H 0.9305 0.5703 0.4229
C40_3 C 0.9542(16) 0.5632(4) 0.4712(3)
C41_3 C 0.9220(15) 0.5579(4) 0.4996(3)
C44_3 C 0.8648(14) 0.5468(3) 0.5512(3)
C45_3 C 0.7354(14) 0.5507(4) 0.5347(2)
H28_3 H 0.6330 0.5504 0.5411
C46_3 C 0.7630(14) 0.5552(4) 0.5088(3)
H29_3 H 0.6790 0.5563 0.4975
C47_3 C 0.8357(16) 0.5382(4) 0.5793(3)
C48_3 C 0.6195(14) 0.4497(4) 0.4507(3)
C49_3 C 0.6022(12) 0.4146(3) 0.4352(2)
C50_3 C 0.4819(13) 0.3893(4) 0.4409(3)
H30_3 H 0.4089 0.3955 0.4534
C51_3 C 0.4701(13) 0.3554(4) 0.4282(3)
H31_3 H 0.3866 0.3389 0.4317
C52_3 C 0.5816(13) 0.3453(4) 0.4102(2)
C53_3 C 0.7030(13) 0.3698(3) 0.4052(2)
H32_3 H 0.7794 0.3632 0.3932
C54_3 C 0.7120(15) 0.4037(4) 0.4175(3)
H33_3 H 0.7952 0.4202 0.4138
C55_3 C 0.5696(16) 0.3068(4) 0.3969(2)
C56_3 C 0.8242(18) 0.5342(4) 0.3808(3)
C57_3 C 0.8673(16) 0.5747(4) 0.3732(3)
C58_3 C 0.9702(18) 0.5799(4) 0.3539(3)
C60_3 C 0.9581(14) 0.6494(4) 0.3599(2)
C61_3 C 0.8473(15) 0.6424(4) 0.3786(3)
H36_3 H 0.8015 0.6629 0.3872
C62_3 C 0.8050(17) 0.6064(5) 0.3845(3)
H37_3 H 0.7289 0.6029 0.3971
Tb3_3 Tb 1.0000 0.5000 0.631316(11)
O22_3 O 0.1847(12) 0.4583(3) 0.6463(2)
O24_3 O 0.4487(14) 0.4580(3) 0.6382(2)
O25_3 O 0.5513(14) 0.5420(3) 0.6382(2)
O26_3 O 0.3798(10) 0.5576(3) 0.58850(19)
O27_3 O 0.6202(10) 0.4424(3) 0.58850(19)
O28_3 O 0.2329(11) 0.53338(19) 0.6193(3)
O29_2 O 0.7671(11) 0.46662(19) 0.6193(3)
O1_3 O 0.9435(11) 0.4149(3) 0.46505(17)
C9_3 C 0.9528(15) 0.4434(4) 0.5162(3)
H4_3 H 0.8506 0.4403 0.5101
C10_3 C 0.9803(14) 0.4496(4) 0.5428(3)
H5_3 H 0.8967 0.4512 0.5542
H12_3 H 0.9908 0.4411 0.3450
C26_3 C 0.9820(19) 0.3831(5) 0.3474(3)
H13_3 H 0.9086 0.3798 0.3344
C30_3 C 0.9762(13) 0.3111(4) 0.3554(3)
O20_3 O 0.8938(11) 0.4681(3) 0.66943(18)
N2_3 N 0.7270(19) 0.4505(6) 0.7002(3)
C64_3 C 0.760(2) 0.4650(8) 0.6781(4)
H38_3 H 0.6770 0.4736 0.6681
C65_3 C 0.571(3) 0.4450(8) 0.7103(4)
H39_3 H 0.5777 0.4352 0.7273
H40_3 H 0.5162 0.4692 0.7104
H41_3 H 0.5144 0.4271 0.6997
C66_3 C 0.846(2) 0.4398(7) 0.7174(4)
H42_3 H 0.7983 0.4313 0.7331
H43_3 H 0.9071 0.4193 0.7103
H44_3 H 0.9125 0.4615 0.7208
O23_3 O 0.8153(12) 0.5417(3) 0.6463(2)
Tb1_2 Tb 0.5000 0.0000 0.631316(11)
Tb2_4 Tb 0.0000 0.0000 0.605653(12)
O1_4 O 0.5565(11) 0.0851(3) 0.46505(17)
O2_4 O 0.4396(14) 0.0379(3) 0.5945(2)
O3_4 O 0.1923(14) 0.0296(3) 0.5836(2)
O7_4 O 0.3144(17) 0.0089(3) 0.3653(3)
C1_4 C 0.3632(14) 0.0399(4) 0.4536(2)
C2_4 C 0.2805(15) 0.0073(4) 0.4604(3)
H1_4 H 0.2732 0.0006 0.4775
C5_4 C 0.3018(16) 0.0260(4) 0.4090(3)
C6_4 C 0.3739(15) 0.0487(4) 0.4278(3)
H3_4 H 0.4305 0.0703 0.4229
C7_4 C 0.4542(16) 0.0632(4) 0.4712(3)
C8_4 C 0.4220(15) 0.0579(4) 0.4996(3)
C9_4 C 0.5472(15) 0.0566(4) 0.5162(3)
H4_4 H 0.6494 0.0597 0.5101
C10_4 C 0.5197(14) 0.0504(4) 0.5428(3)
H5_4 H 0.6033 0.0488 0.5542
C11_4 C 0.3648(14) 0.0468(3) 0.5512(3)
C12_4 C 0.2354(14) 0.0507(4) 0.5347(2)
H6_4 H 0.1330 0.0504 0.5411
C13_4 C 0.2630(14) 0.0552(4) 0.5088(3)
H7_4 H 0.1790 0.0563 0.4975
C14_4 C 0.3357(16) 0.0382(4) 0.5793(3)
C23_4 C 0.3242(18) 0.0342(4) 0.3808(3)
C24_4 C 0.3673(16) 0.0747(4) 0.3732(3)
C25_4 C 0.4702(18) 0.0799(4) 0.3539(3)
H12_4 H 0.5092 0.0589 0.3450
C26_4 C 0.5180(19) 0.1169(5) 0.3474(3)
H13_4 H 0.5914 0.1202 0.3344
C27_4 C 0.4581(14) 0.1494(4) 0.3599(2)
C28_4 C 0.3473(15) 0.1424(4) 0.3786(3)
H14_4 H 0.3015 0.1629 0.3872
C29_4 C 0.3050(17) 0.1064(5) 0.3845(3)
H15_4 H 0.2289 0.1029 0.3971
C30_4 C 0.5238(13) 0.1889(4) 0.3554(3)
C50_4 C 0.0181(13) 0.1107(4) 0.4409(3)
H30_4 H 0.0911 0.1045 0.4534
C51_4 C 0.0299(13) 0.1446(4) 0.4282(3)
H31_4 H 0.1134 0.1611 0.4317
O20_4 O 0.6062(11) 0.0319(3) 0.66943(18)
N2_4 N 0.7730(19) 0.0495(6) 0.7002(3)
C64_4 C 0.740(2) 0.0350(8) 0.6781(4)
H38_4 H 0.8230 0.0264 0.6681
C65_4 C 0.929(3) 0.0550(8) 0.7103(4)
H39_4 H 0.9223 0.0648 0.7273
H40_4 H 0.9838 0.0308 0.7104
H41_4 H 0.9856 0.0729 0.6997
C66_4 C 0.654(2) 0.0602(7) 0.7174(4)
H42_4 H 0.7017 0.0687 0.7331
H43_4 H 0.5929 0.0807 0.7103
H44_4 H 0.5875 0.0385 0.7208
O22_4 O 0.3153(12) 0.0417(3) 0.6463(2)
O24_4 O 0.0513(14) 0.0420(3) 0.6382(2)
O30_2 O 0.7329(11) 0.03338(19) 0.6193(3)
Tb1_3 Tb 0.5000 1.0000 0.631316(11)
Tb2_5 Tb 0.0000 1.0000 0.605653(12)
O4_4 O 0.0603(11) 0.9512(3) 0.47253(19)
O10_4 O 0.3938(11) 0.9681(3) 0.66943(18)
N1_4 N 0.2270(19) 0.9505(6) 0.7002(3)
C3_4 C 0.2057(14) 0.9835(4) 0.4416(3)
C4_4 C 0.2157(15) 0.9932(4) 0.4164(3)
H2_4 H 0.1660 0.9781 0.4041
C15_4 C 0.1195(14) 0.9497(4) 0.4507(3)
C16_4 C 0.1022(12) 0.9146(3) 0.4352(2)
C19_4 C 0.0816(13) 0.8453(4) 0.4102(2)
C20_4 C 0.2030(13) 0.8698(3) 0.4052(2)
H10_4 H 0.2794 0.8632 0.3932
C21_4 C 0.2120(15) 0.9037(4) 0.4175(3)
H11_4 H 0.2952 0.9202 0.4138
C22_4 C 0.0696(16) 0.8068(4) 0.3969(2)
C31_4 C 0.260(2) 0.9650(8) 0.6781(4)
H16_4 H 0.1770 0.9736 0.6681
C32_4 C 0.071(3) 0.9450(8) 0.7103(4)
H17_4 H 0.0777 0.9352 0.7273
H18_4 H 0.0162 0.9692 0.7104
H19_4 H 0.0144 0.9271 0.6997
C33_4 C 0.346(2) 0.9398(7) 0.7174(4)
H20_4 H 0.2983 0.9313 0.7331
H21_4 H 0.4071 0.9193 0.7103
H22_4 H 0.4125 0.9615 0.7208
O21_2 O 0.5604(14) 0.9621(3) 0.5945(2)
O23_4 O 0.6847(12) 0.9583(3) 0.6463(2)
O26_4 O 0.1202(10) 0.9424(3) 0.58850(19)
O28_4 O 0.2671(11) 0.96662(19) 0.6193(3)
Tb2_6 Tb 1.0000 0.0000 0.605653(12)
O14_4 O 0.9397(11) 0.0488(3) 0.47253(19)
C36_4 C 0.7943(14) 0.0165(4) 0.4416(3)
C37_4 C 0.7843(15) 0.0068(4) 0.4164(3)
H24_4 H 0.8340 0.0219 0.4041
C48_4 C 0.8805(14) 0.0503(4) 0.4507(3)
C49_4 C 0.8978(12) 0.0854(3) 0.4352(2)
C52_4 C 0.9184(13) 0.1547(4) 0.4102(2)
C53_4 C 0.7970(13) 0.1302(3) 0.4052(2)
H32_4 H 0.7206 0.1368 0.3932
C54_4 C 0.7880(15) 0.0963(4) 0.4175(3)
H33_4 H 0.7048 0.0798 0.4138
C55_4 C 0.9304(16) 0.1932(4) 0.3969(2)
O27_4 O 0.8798(10) 0.0576(3) 0.58850(19)
Tb2_7 Tb 1.0000 1.0000 0.605653(12)
C17_4 C 0.9819(13) 0.8893(4) 0.4409(3)
H8_4 H 0.9089 0.8955 0.4534
C18_4 C 0.9701(13) 0.8554(4) 0.4282(3)
H9_4 H 0.8866 0.8389 0.4317
O11_4 O 0.4435(11) 0.9149(3) 0.46505(17)
O13_4 O 0.8077(14) 0.9704(3) 0.5836(2)
O17_4 O 0.6856(17) 0.9911(3) 0.3653(3)
C34_4 C 0.6368(14) 0.9601(4) 0.4536(2)
C35_4 C 0.7195(15) 0.9927(4) 0.4604(3)
H23_4 H 0.7268 0.9994 0.4775
C38_4 C 0.6982(16) 0.9740(4) 0.4090(3)
C39_4 C 0.6261(15) 0.9513(4) 0.4278(3)
H25_4 H 0.5695 0.9297 0.4229
C40_4 C 0.5458(16) 0.9368(4) 0.4712(3)
C41_4 C 0.5780(15) 0.9421(4) 0.4996(3)
C42_4 C 0.4528(15) 0.9434(4) 0.5162(3)
H26_4 H 0.3506 0.9403 0.5101
C43_4 C 0.4803(14) 0.9496(4) 0.5428(3)
H27_4 H 0.3967 0.9512 0.5542
C44_4 C 0.6352(14) 0.9532(3) 0.5512(3)
C45_4 C 0.7646(14) 0.9493(4) 0.5347(2)
H28_4 H 0.8670 0.9496 0.5411
C46_4 C 0.7370(14) 0.9448(4) 0.5088(3)
H29_4 H 0.8210 0.9437 0.4975
C47_4 C 0.6643(16) 0.9618(4) 0.5793(3)
C56_4 C 0.6758(18) 0.9658(4) 0.3808(3)
C57_4 C 0.6327(16) 0.9253(4) 0.3732(3)
C58_4 C 0.5298(18) 0.9201(4) 0.3539(3)
H34_4 H 0.4908 0.9411 0.3450
C59_4 C 0.4820(19) 0.8831(5) 0.3474(3)
H35_4 H 0.4086 0.8798 0.3344
C60_4 C 0.5419(14) 0.8506(4) 0.3599(2)
C61_4 C 0.6527(15) 0.8576(4) 0.3786(3)
H36_4 H 0.6985 0.8371 0.3872
C62_4 C 0.6950(17) 0.8936(5) 0.3845(3)
H37_4 H 0.7711 0.8971 0.3971
C63_4 C 0.4762(13) 0.8111(4) 0.3554(3)
O25_4 O 0.9487(14) 0.9580(3) 0.6382(2)
Tb1_4 Tb 0.2500 0.7500 0.881316(11)
O1_5 O 0.3065(11) 0.6649(3) 0.71505(17)
O2_5 O 0.1896(14) 0.7121(3) 0.8445(2)
O7_5 O 0.0644(17) 0.7411(3) 0.6153(3)
O10_5 O 0.1438(11) 0.7819(3) 0.91943(18)
C1_5 C 0.1132(14) 0.7101(4) 0.7036(2)
C2_5 C 0.0305(15) 0.7427(4) 0.7104(3)
H1_5 H 0.0232 0.7494 0.7275
C5_5 C 0.0518(16) 0.7240(4) 0.6590(3)
C6_5 C 0.1239(15) 0.7013(4) 0.6778(3)
H3_5 H 0.1805 0.6797 0.6729
C7_5 C 0.2042(16) 0.6868(4) 0.7212(3)
C8_5 C 0.1720(15) 0.6921(4) 0.7496(3)
C9_5 C 0.2972(15) 0.6934(4) 0.7662(3)
H4_5 H 0.3994 0.6903 0.7601
C10_5 C 0.2697(14) 0.6996(4) 0.7928(3)
H5_5 H 0.3533 0.7012 0.8042
C11_5 C 0.1148(14) 0.7032(3) 0.8012(3)
C13_5 C 0.0130(14) 0.6948(4) 0.7588(3)
C14_5 C 0.0857(16) 0.7118(4) 0.8293(3)
H10_5 H 0.0294 0.8868 0.6432
H11_5 H 0.0452 0.8298 0.6638
C23_5 C 0.0742(18) 0.7158(4) 0.6308(3)
C24_5 C 0.1173(16) 0.6753(4) 0.6232(3)
C25_5 C 0.2202(18) 0.6701(4) 0.6039(3)
H12_5 H 0.2592 0.6911 0.5950
C26_5 C 0.2680(19) 0.6331(5) 0.5974(3)
H13_5 H 0.3414 0.6298 0.5844
C27_5 C 0.2081(14) 0.6006(4) 0.6099(2)
C28_5 C 0.0973(15) 0.6076(4) 0.6286(3)
H14_5 H 0.0515 0.5871 0.6372
C29_5 C 0.0550(17) 0.6436(5) 0.6345(3)
C30_5 C 0.2738(13) 0.5611(4) 0.6054(3)
C31_5 C 0.010(2) 0.7850(8) 0.9281(4)
C33_5 C 0.096(2) 0.8102(7) 0.9674(4)
H20_5 H 0.0483 0.8187 0.9831
H21_5 H 0.1571 0.8307 0.9603
H22_5 H 0.1625 0.7885 0.9708
O20_5 O 0.3562(11) 0.7181(3) 0.91943(18)
N2_5 N 0.5230(19) 0.7005(6) 0.9502(3)
C64_5 C 0.490(2) 0.7150(8) 0.9281(4)
H38_5 H 0.5730 0.7236 0.9181
C65_5 C 0.679(3) 0.6950(8) 0.9603(4)
H39_5 H 0.6723 0.6852 0.9773
H40_5 H 0.7338 0.7192 0.9604
H41_5 H 0.7356 0.6771 0.9497
C66_5 C 0.404(2) 0.6898(7) 0.9674(4)
H42_5 H 0.4517 0.6813 0.9831
H43_5 H 0.3429 0.6693 0.9603
H44_5 H 0.3375 0.7115 0.9708
O21_3 O 0.3104(14) 0.7879(3) 0.8445(2)
O22_5 O 0.0653(12) 0.7083(3) 0.8963(2)
O23_5 O 0.4347(12) 0.7917(3) 0.8963(2)
O28_5 O 0.0171(11) 0.78338(19) 0.8693(3)
O30_3 O 0.4829(11) 0.71662(19) 0.8693(3)
Tb2_8 Tb 0.7500 0.7500 0.855653(12)
O3_5 O 0.9423(14) 0.7204(3) 0.8336(2)
O4_5 O 0.8103(11) 0.7988(3) 0.72253(19)
N1_5 N 0.9770(19) 0.7995(6) 0.9502(3)
C3_5 C 0.9557(14) 0.7665(4) 0.6916(3)
C4_5 C 0.9657(15) 0.7568(4) 0.6664(3)
H2_5 H 0.9160 0.7719 0.6541
C12_5 C 0.9854(14) 0.6993(4) 0.7847(2)
H6_5 H 0.8830 0.6996 0.7911
H7_5 H 0.9290 0.6937 0.7475
C15_5 C 0.8695(14) 0.8003(4) 0.7007(3)
C16_5 C 0.8522(12) 0.8354(3) 0.6852(2)
C17_5 C 0.7319(13) 0.8607(4) 0.6909(3)
H8_5 H 0.6589 0.8545 0.7034
C18_5 C 0.7201(13) 0.8946(4) 0.6782(3)
H9_5 H 0.6366 0.9111 0.6817
C19_5 C 0.8316(13) 0.9047(4) 0.6602(2)
C20_5 C 0.9530(13) 0.8802(3) 0.6552(2)
C21_5 C 0.9620(15) 0.8463(4) 0.6675(3)
C22_5 C 0.8196(16) 0.9432(4) 0.6469(2)
H15_5 H 0.9789 0.6471 0.6471
H16_5 H 0.9270 0.7764 0.9181
C32_5 C 0.821(3) 0.8050(8) 0.9603(4)
H17_5 H 0.8277 0.8148 0.9773
H18_5 H 0.7662 0.7808 0.9604
H19_5 H 0.7644 0.8229 0.9497
O11_5 O 0.1935(11) 0.8351(3) 0.71505(17)
O13_5 O 0.5577(14) 0.7796(3) 0.8336(2)
O14_5 O 0.6897(11) 0.7012(3) 0.72253(19)
O17_5 O 0.4356(17) 0.7589(3) 0.6153(3)
C34_5 C 0.3868(14) 0.7899(4) 0.7036(2)
C35_5 C 0.4695(15) 0.7573(4) 0.7104(3)
H23_5 H 0.4768 0.7506 0.7275
C36_5 C 0.5443(14) 0.7335(4) 0.6916(3)
C37_5 C 0.5343(15) 0.7432(4) 0.6664(3)
H24_5 H 0.5840 0.7281 0.6541
C38_5 C 0.4482(16) 0.7760(4) 0.6590(3)
C39_5 C 0.3761(15) 0.7987(4) 0.6778(3)
H25_5 H 0.3195 0.8203 0.6729
C40_5 C 0.2958(16) 0.8132(4) 0.7212(3)
C41_5 C 0.3280(15) 0.8079(4) 0.7496(3)
C42_5 C 0.2028(15) 0.8066(4) 0.7662(3)
H26_5 H 0.1006 0.8097 0.7601
C43_5 C 0.2303(14) 0.8004(4) 0.7928(3)
H27_5 H 0.1467 0.7988 0.8042
C44_5 C 0.3852(14) 0.7968(3) 0.8012(3)
C45_5 C 0.5146(14) 0.8007(4) 0.7847(2)
H28_5 H 0.6170 0.8004 0.7911
C46_5 C 0.4870(14) 0.8052(4) 0.7588(3)
H29_5 H 0.5710 0.8063 0.7475
C47_5 C 0.4143(16) 0.7882(4) 0.8293(3)
C48_5 C 0.6305(14) 0.6997(4) 0.7007(3)
C49_5 C 0.6478(12) 0.6646(3) 0.6852(2)
C50_5 C 0.7681(13) 0.6393(4) 0.6909(3)
H30_5 H 0.8411 0.6455 0.7034
C51_5 C 0.7799(13) 0.6054(4) 0.6782(3)
H31_5 H 0.8634 0.5889 0.6817
C52_5 C 0.6684(13) 0.5953(4) 0.6602(2)
C53_5 C 0.5470(13) 0.6198(3) 0.6552(2)
H32_5 H 0.4706 0.6132 0.6432
C54_5 C 0.5380(15) 0.6537(4) 0.6675(3)
H33_5 H 0.4548 0.6702 0.6638
C55_5 C 0.6804(16) 0.5568(4) 0.6469(2)
C56_5 C 0.4258(18) 0.7842(4) 0.6308(3)
C57_5 C 0.3827(16) 0.8247(4) 0.6232(3)
C58_5 C 0.2798(18) 0.8299(4) 0.6039(3)
H34_5 H 0.2408 0.8089 0.5950
C59_5 C 0.2320(19) 0.8669(5) 0.5974(3)
H35_5 H 0.1586 0.8702 0.5844
C60_5 C 0.2919(14) 0.8994(4) 0.6099(2)
C61_5 C 0.4027(15) 0.8924(4) 0.6286(3)
H36_5 H 0.4485 0.9129 0.6372
C62_5 C 0.4450(17) 0.8564(5) 0.6345(3)
H37_5 H 0.5211 0.8529 0.6471
C63_5 C 0.2262(13) 0.9389(4) 0.6054(3)
O24_5 O 0.8013(14) 0.7080(3) 0.8882(2)
O25_5 O 0.6987(14) 0.7920(3) 0.8882(2)
O26_5 O 0.8702(10) 0.8076(3) 0.83850(19)
O27_5 O 0.6298(10) 0.6924(3) 0.83850(19)
Tb2_9 Tb 0.2500 0.2500 0.855653(12)
O3_6 O 0.0577(14) 0.2796(3) 0.8336(2)
O4_6 O 0.1897(11) 0.2012(3) 0.72253(19)
N1_6 N 0.0230(19) 0.2005(6) 0.9502(3)
C3_6 C 0.0443(14) 0.2335(4) 0.6916(3)
C4_6 C 0.0343(15) 0.2432(4) 0.6664(3)
H2_6 H 0.0840 0.2281 0.6541
C12_6 C 0.0146(14) 0.3007(4) 0.7847(2)
H6_6 H 0.1170 0.3004 0.7911
H7_6 H 0.0710 0.3063 0.7475
C15_6 C 0.1305(14) 0.1997(4) 0.7007(3)
C16_6 C 0.1478(12) 0.1646(3) 0.6852(2)
C17_6 C 0.2681(13) 0.1393(4) 0.6909(3)
H8_6 H 0.3411 0.1455 0.7034
C18_6 C 0.2799(13) 0.1054(4) 0.6782(3)
H9_6 H 0.3634 0.0889 0.6817
C19_6 C 0.1684(13) 0.0953(4) 0.6602(2)
C20_6 C 0.0470(13) 0.1198(3) 0.6552(2)
C21_6 C 0.0380(15) 0.1537(4) 0.6675(3)
C22_6 C 0.1804(16) 0.0568(4) 0.6469(2)
H15_6 H 0.0211 0.3529 0.6471
H16_6 H 0.0730 0.2236 0.9181
C32_6 C 0.179(3) 0.1950(8) 0.9603(4)
H17_6 H 0.1723 0.1852 0.9773
H18_6 H 0.2338 0.2192 0.9604
H19_6 H 0.2356 0.1771 0.9497
O11_6 O 0.8065(11) 0.1649(3) 0.71505(17)
O12_3 O 0.6896(14) 0.2121(3) 0.8445(2)
O13_6 O 0.4423(14) 0.2204(3) 0.8336(2)
O14_6 O 0.3103(11) 0.2988(3) 0.72253(19)
O17_6 O 0.5644(17) 0.2411(3) 0.6153(3)
C34_6 C 0.6132(14) 0.2101(4) 0.7036(2)
C35_6 C 0.5305(15) 0.2427(4) 0.7104(3)
H23_6 H 0.5232 0.2494 0.7275
C36_6 C 0.4557(14) 0.2665(4) 0.6916(3)
C37_6 C 0.4657(15) 0.2568(4) 0.6664(3)
H24_6 H 0.4160 0.2719 0.6541
C38_6 C 0.5518(16) 0.2240(4) 0.6590(3)
C39_6 C 0.6239(15) 0.2013(4) 0.6778(3)
H25_6 H 0.6805 0.1797 0.6729
C40_6 C 0.7042(16) 0.1868(4) 0.7212(3)
C41_6 C 0.6720(15) 0.1921(4) 0.7496(3)
C42_6 C 0.7972(15) 0.1934(4) 0.7662(3)
H26_6 H 0.8994 0.1903 0.7601
C43_6 C 0.7697(14) 0.1996(4) 0.7928(3)
H27_6 H 0.8533 0.2012 0.8042
C44_6 C 0.6148(14) 0.2032(3) 0.8012(3)
C45_6 C 0.4854(14) 0.1993(4) 0.7847(2)
H28_6 H 0.3830 0.1996 0.7911
C46_6 C 0.5130(14) 0.1948(4) 0.7588(3)
H29_6 H 0.4290 0.1937 0.7475
C47_6 C 0.5857(16) 0.2118(4) 0.8293(3)
C48_6 C 0.3695(14) 0.3003(4) 0.7007(3)
C49_6 C 0.3522(12) 0.3354(3) 0.6852(2)
C50_6 C 0.2319(13) 0.3607(4) 0.6909(3)
H30_6 H 0.1589 0.3545 0.7034
C51_6 C 0.2201(13) 0.3946(4) 0.6782(3)
H31_6 H 0.1366 0.4111 0.6817
C52_6 C 0.3316(13) 0.4047(4) 0.6602(2)
C53_6 C 0.4530(13) 0.3802(3) 0.6552(2)
H32_6 H 0.5294 0.3868 0.6432
C54_6 C 0.4620(15) 0.3463(4) 0.6675(3)
H33_6 H 0.5452 0.3298 0.6638
C55_6 C 0.3196(16) 0.4432(4) 0.6469(2)
C56_6 C 0.5742(18) 0.2158(4) 0.6308(3)
C57_6 C 0.6173(16) 0.1753(4) 0.6232(3)
C58_6 C 0.7202(18) 0.1701(4) 0.6039(3)
H34_6 H 0.7592 0.1911 0.5950
C59_6 C 0.7680(19) 0.1331(5) 0.5974(3)
H35_6 H 0.8414 0.1298 0.5844
C60_6 C 0.7081(14) 0.1006(4) 0.6099(2)
C61_6 C 0.5973(15) 0.1076(4) 0.6286(3)
H36_6 H 0.5515 0.0871 0.6372
C62_6 C 0.5550(17) 0.1436(5) 0.6345(3)
H37_6 H 0.4789 0.1471 0.6471
C63_6 C 0.7738(13) 0.0611(4) 0.6054(3)
Tb3_4 Tb 0.7500 0.2500 0.881316(11)
O24_6 O 0.1987(14) 0.2920(3) 0.8882(2)
O25_6 O 0.3013(14) 0.2080(3) 0.8882(2)
O26_6 O 0.1298(10) 0.1924(3) 0.83850(19)
O27_6 O 0.3702(10) 0.3076(3) 0.83850(19)
O29_3 O 0.5171(11) 0.28338(19) 0.8693(3)
O1_6 O 0.6935(11) 0.3351(3) 0.71505(17)
O2_6 O 0.8104(14) 0.2879(3) 0.8445(2)
O7_6 O 0.9356(17) 0.2589(3) 0.6153(3)
O10_6 O 0.8562(11) 0.2181(3) 0.91943(18)
C1_6 C 0.8868(14) 0.2899(4) 0.7036(2)
C2_6 C 0.9695(15) 0.2573(4) 0.7104(3)
H1_6 H 0.9768 0.2506 0.7275
C5_6 C 0.9482(16) 0.2760(4) 0.6590(3)
C6_6 C 0.8761(15) 0.2987(4) 0.6778(3)
H3_6 H 0.8195 0.3203 0.6729
C7_6 C 0.7958(16) 0.3132(4) 0.7212(3)
C8_6 C 0.8280(15) 0.3079(4) 0.7496(3)
C9_6 C 0.7028(15) 0.3066(4) 0.7662(3)
H4_6 H 0.6006 0.3097 0.7601
C10_6 C 0.7303(14) 0.3004(4) 0.7928(3)
H5_6 H 0.6467 0.2988 0.8042
C11_6 C 0.8852(14) 0.2968(3) 0.8012(3)
C13_6 C 0.9870(14) 0.3052(4) 0.7588(3)
C14_6 C 0.9143(16) 0.2882(4) 0.8293(3)
H10_6 H 0.9706 0.1132 0.6432
H11_6 H 0.9548 0.1702 0.6638
C23_6 C 0.9258(18) 0.2842(4) 0.6308(3)
C24_6 C 0.8827(16) 0.3247(4) 0.6232(3)
C25_6 C 0.7798(18) 0.3299(4) 0.6039(3)
H12_6 H 0.7408 0.3089 0.5950
C26_6 C 0.7320(19) 0.3669(5) 0.5974(3)
H13_6 H 0.6586 0.3702 0.5844
C27_6 C 0.7919(14) 0.3994(4) 0.6099(2)
C28_6 C 0.9027(15) 0.3924(4) 0.6286(3)
H14_6 H 0.9485 0.4129 0.6372
C29_6 C 0.9450(17) 0.3564(5) 0.6345(3)
C30_6 C 0.7262(13) 0.4389(4) 0.6054(3)
C31_6 C 0.990(2) 0.2150(8) 0.9281(4)
C33_6 C 0.904(2) 0.1898(7) 0.9674(4)
H20_6 H 0.9517 0.1813 0.9831
H21_6 H 0.8429 0.1693 0.9603
H22_6 H 0.8375 0.2115 0.9708
O20_6 O 0.6438(11) 0.2819(3) 0.91943(18)
N2_6 N 0.4770(19) 0.2995(6) 0.9502(3)
C64_6 C 0.510(2) 0.2850(8) 0.9281(4)
H38_6 H 0.4270 0.2764 0.9181
C65_6 C 0.321(3) 0.3050(8) 0.9603(4)
H39_6 H 0.3277 0.3148 0.9773
H40_6 H 0.2662 0.2808 0.9604
H41_6 H 0.2644 0.3229 0.9497
C66_6 C 0.596(2) 0.3102(7) 0.9674(4)
H42_6 H 0.5483 0.3187 0.9831
H43_6 H 0.6571 0.3307 0.9603
H44_6 H 0.6625 0.2885 0.9708
O22_6 O 0.9347(12) 0.2917(3) 0.8963(2)
O23_6 O 0.5653(12) 0.2083(3) 0.8963(2)
O28_6 O 0.9829(11) 0.21662(19) 0.8693(3)
C42_7 C 0.0472(15) 0.0566(4) 0.0162(3)
H26_7 H 0.1494 0.0597 0.0101
C43_7 C 0.0197(14) 0.0504(4) 0.0428(3)
H27_7 H 0.1033 0.0488 0.0542
O11_7 O 0.0565(11) 0.0851(3) 0.96505(17)
H34_7 H 0.0092 0.0589 0.8450
C59_7 C 0.0180(19) 0.1169(5) 0.8474(3)
H35_7 H 0.0914 0.1202 0.8344
C63_7 C 0.0238(13) 0.1889(4) 0.8554(3)
O10_7 O 0.1062(11) 0.0319(3) 0.16943(18)
N1_7 N 0.2730(19) 0.0495(6) 0.2002(3)
C31_7 C 0.240(2) 0.0350(8) 0.1781(4)
H16_7 H 0.3230 0.0264 0.1681
C32_7 C 0.429(3) 0.0550(8) 0.2103(4)
H17_7 H 0.4223 0.0648 0.2273
H18_7 H 0.4838 0.0308 0.2104
H19_7 H 0.4856 0.0729 0.1997
C33_7 C 0.154(2) 0.0602(7) 0.2174(4)
H20_7 H 0.2017 0.0687 0.2331
H21_7 H 0.0929 0.0807 0.2103
H22_7 H 0.0875 0.0385 0.2208
O12_4 O 0.9396(14) 0.0379(3) 0.0945(2)
O13_7 O 0.6923(14) 0.0296(3) 0.0836(2)
C44_7 C 0.8648(14) 0.0468(3) 0.0512(3)
C45_7 C 0.7354(14) 0.0507(4) 0.0347(2)
H28_7 H 0.6330 0.0504 0.0411
C46_7 C 0.7630(14) 0.0552(4) 0.0088(3)
C47_7 C 0.8357(16) 0.0382(4) 0.0793(3)
O4_7 O 0.4397(11) 0.0488(3) 0.97253(19)
C3_7 C 0.2943(14) 0.0165(4) 0.9416(3)
C4_7 C 0.2843(15) 0.0068(4) 0.9164(3)
H2_7 H 0.3340 0.0219 0.9041
C15_7 C 0.3805(14) 0.0503(4) 0.9507(3)
C16_7 C 0.3978(12) 0.0854(3) 0.9352(2)
C17_7 C 0.5181(13) 0.1107(4) 0.9409(3)
H8_7 H 0.5911 0.1045 0.9534
C18_7 C 0.5299(13) 0.1446(4) 0.9282(3)
H9_7 H 0.6134 0.1611 0.9317
C19_7 C 0.4184(13) 0.1547(4) 0.9102(2)
C20_7 C 0.2970(13) 0.1302(3) 0.9052(2)
H10_7 H 0.2206 0.1368 0.8932
C21_7 C 0.2880(15) 0.0963(4) 0.9175(3)
H11_7 H 0.2048 0.0798 0.9138
C22_7 C 0.4304(16) 0.1932(4) 0.8969(2)
O17_7 O 0.8144(17) 0.0089(3) 0.8653(3)
C34_7 C 0.8632(14) 0.0399(4) 0.9536(2)
C35_7 C 0.7805(15) 0.0073(4) 0.9604(3)
H23_7 H 0.7732 0.0006 0.9775
C38_7 C 0.8018(16) 0.0260(4) 0.9090(3)
C39_7 C 0.8739(15) 0.0487(4) 0.9278(3)
H25_7 H 0.9305 0.0703 0.9229
C40_7 C 0.9542(16) 0.0632(4) 0.9712(3)
C41_7 C 0.9220(15) 0.0579(4) 0.9996(3)
H29_7 H 0.6790 0.0563 0.9975
C56_7 C 0.8242(18) 0.0342(4) 0.8808(3)
C57_7 C 0.8673(16) 0.0747(4) 0.8732(3)
C58_7 C 0.9702(18) 0.0799(4) 0.8539(3)
C60_7 C 0.9581(14) 0.1494(4) 0.8599(2)
C61_7 C 0.8473(15) 0.1424(4) 0.8786(3)
H36_7 H 0.8015 0.1629 0.8872
C62_7 C 0.8050(17) 0.1064(5) 0.8845(3)
H37_7 H 0.7289 0.1029 0.8971
O2_7 O 0.0604(14) 0.9621(3) 0.0945(2)
O3_7 O 0.3077(14) 0.9704(3) 0.0836(2)
C11_7 C 0.1352(14) 0.9532(3) 0.0512(3)
C12_7 C 0.2646(14) 0.9493(4) 0.0347(2)
H6_7 H 0.3670 0.9496 0.0411
C13_7 C 0.2370(14) 0.9448(4) 0.0088(3)
C14_7 C 0.1643(16) 0.9618(4) 0.0793(3)
O7_7 O 0.1856(17) 0.9911(3) 0.8653(3)
C1_7 C 0.1368(14) 0.9601(4) 0.9536(2)
C2_7 C 0.2195(15) 0.9927(4) 0.9604(3)
H1_7 H 0.2268 0.9994 0.9775
C5_7 C 0.1982(16) 0.9740(4) 0.9090(3)
C6_7 C 0.1261(15) 0.9513(4) 0.9278(3)
H3_7 H 0.0695 0.9297 0.9229
C7_7 C 0.0458(16) 0.9368(4) 0.9712(3)
C8_7 C 0.0780(15) 0.9421(4) 0.9996(3)
H7_7 H 0.3210 0.9437 0.9975
C23_7 C 0.1758(18) 0.9658(4) 0.8808(3)
C24_7 C 0.1327(16) 0.9253(4) 0.8732(3)
C25_7 C 0.0298(18) 0.9201(4) 0.8539(3)
C27_7 C 0.0419(14) 0.8506(4) 0.8599(2)
C28_7 C 0.1527(15) 0.8576(4) 0.8786(3)
H14_7 H 0.1985 0.8371 0.8872
C29_7 C 0.1950(17) 0.8936(5) 0.8845(3)
H15_7 H 0.2711 0.8971 0.8971
O14_7 O 0.5603(11) 0.9512(3) 0.97253(19)
C36_7 C 0.7057(14) 0.9835(4) 0.9416(3)
C37_7 C 0.7157(15) 0.9932(4) 0.9164(3)
H24_7 H 0.6660 0.9781 0.9041
C48_7 C 0.6195(14) 0.9497(4) 0.9507(3)
C49_7 C 0.6022(12) 0.9146(3) 0.9352(2)
C50_7 C 0.4819(13) 0.8893(4) 0.9409(3)
H30_7 H 0.4089 0.8955 0.9534
C51_7 C 0.4701(13) 0.8554(4) 0.9282(3)
H31_7 H 0.3866 0.8389 0.9317
C52_7 C 0.5816(13) 0.8453(4) 0.9102(2)
C53_7 C 0.7030(13) 0.8698(3) 0.9052(2)
H32_7 H 0.7794 0.8632 0.8932
C54_7 C 0.7120(15) 0.9037(4) 0.9175(3)
H33_7 H 0.7952 0.9202 0.9138
C55_7 C 0.5696(16) 0.8068(4) 0.8969(2)
C9_7 C 0.9528(15) 0.9434(4) 0.0162(3)
H4_7 H 0.8506 0.9403 0.0101
C10_7 C 0.9803(14) 0.9496(4) 0.0428(3)
H5_7 H 0.8967 0.9512 0.0542
O20_7 O 0.8938(11) 0.9681(3) 0.16943(18)
N2_7 N 0.7270(19) 0.9505(6) 0.2002(3)
C64_7 C 0.760(2) 0.9650(8) 0.1781(4)
H38_7 H 0.6770 0.9736 0.1681
C65_7 C 0.571(3) 0.9450(8) 0.2103(4)
H39_7 H 0.5777 0.9352 0.2273
H40_7 H 0.5162 0.9692 0.2104
H41_7 H 0.5144 0.9271 0.1997
C66_7 C 0.846(2) 0.9398(7) 0.2174(4)
H42_7 H 0.7983 0.9313 0.2331
H43_7 H 0.9071 0.9193 0.2103
H44_7 H 0.9125 0.9615 0.2208
O1_7 O 0.9435(11) 0.9149(3) 0.96505(17)
H12_7 H 0.9908 0.9411 0.8450
C26_7 C 0.9820(19) 0.8831(5) 0.8474(3)
H13_7 H 0.9086 0.8798 0.8344
C30_7 C 0.9762(13) 0.8111(4) 0.8554(3)
O2_8 O 0.4396(14) 0.5379(3) 0.0945(2)
O3_8 O 0.1923(14) 0.5296(3) 0.0836(2)
O10_8 O 0.3938(11) 0.4681(3) 0.16943(18)
N1_8 N 0.2270(19) 0.4505(6) 0.2002(3)
C9_8 C 0.5472(15) 0.5566(4) 0.0162(3)
H4_8 H 0.6494 0.5597 0.0101
C10_8 C 0.5197(14) 0.5504(4) 0.0428(3)
H5_8 H 0.6033 0.5488 0.0542
C11_8 C 0.3648(14) 0.5468(3) 0.0512(3)
C12_8 C 0.2354(14) 0.5507(4) 0.0347(2)
H6_8 H 0.1330 0.5504 0.0411
C13_8 C 0.2630(14) 0.5552(4) 0.0088(3)
C14_8 C 0.3357(16) 0.5382(4) 0.0793(3)
C31_8 C 0.260(2) 0.4650(8) 0.1781(4)
H16_8 H 0.1770 0.4736 0.1681
C32_8 C 0.071(3) 0.4450(8) 0.2103(4)
H17_8 H 0.0777 0.4352 0.2273
H18_8 H 0.0162 0.4692 0.2104
H19_8 H 0.0144 0.4271 0.1997
C33_8 C 0.346(2) 0.4398(7) 0.2174(4)
H20_8 H 0.2983 0.4313 0.2331
H21_8 H 0.4071 0.4193 0.2103
H22_8 H 0.4125 0.4615 0.2208
O20_8 O 0.6062(11) 0.5319(3) 0.16943(18)
N2_8 N 0.7730(19) 0.5495(6) 0.2002(3)
C64_8 C 0.740(2) 0.5350(8) 0.1781(4)
H38_8 H 0.8230 0.5264 0.1681
C65_8 C 0.929(3) 0.5550(8) 0.2103(4)
H39_8 H 0.9223 0.5648 0.2273
H40_8 H 0.9838 0.5308 0.2104
H41_8 H 0.9856 0.5729 0.1997
C66_8 C 0.654(2) 0.5602(7) 0.2174(4)
H42_8 H 0.7017 0.5687 0.2331
H43_8 H 0.5929 0.5807 0.2103
H44_8 H 0.5875 0.5385 0.2208
O21_4 O 0.5604(14) 0.4621(3) 0.0945(2)
O1_8 O 0.5565(11) 0.5851(3) 0.96505(17)
O4_8 O 0.0603(11) 0.4512(3) 0.97253(19)
O7_8 O 0.3144(17) 0.5089(3) 0.8653(3)
C1_8 C 0.3632(14) 0.5399(4) 0.9536(2)
C2_8 C 0.2805(15) 0.5073(4) 0.9604(3)
H1_8 H 0.2732 0.5006 0.9775
C3_8 C 0.2057(14) 0.4835(4) 0.9416(3)
C4_8 C 0.2157(15) 0.4932(4) 0.9164(3)
H2_8 H 0.1660 0.4781 0.9041
C5_8 C 0.3018(16) 0.5260(4) 0.9090(3)
C6_8 C 0.3739(15) 0.5487(4) 0.9278(3)
H3_8 H 0.4305 0.5703 0.9229
C7_8 C 0.4542(16) 0.5632(4) 0.9712(3)
C8_8 C 0.4220(15) 0.5579(4) 0.9996(3)
H7_8 H 0.1790 0.5563 0.9975
C15_8 C 0.1195(14) 0.4497(4) 0.9507(3)
C16_8 C 0.1022(12) 0.4146(3) 0.9352(2)
C19_8 C 0.0816(13) 0.3453(4) 0.9102(2)
C20_8 C 0.2030(13) 0.3698(3) 0.9052(2)
H10_8 H 0.2794 0.3632 0.8932
C21_8 C 0.2120(15) 0.4037(4) 0.9175(3)
H11_8 H 0.2952 0.4202 0.9138
C22_8 C 0.0696(16) 0.3068(4) 0.8969(2)
C23_8 C 0.3242(18) 0.5342(4) 0.8808(3)
C24_8 C 0.3673(16) 0.5747(4) 0.8732(3)
C25_8 C 0.4702(18) 0.5799(4) 0.8539(3)
H12_8 H 0.5092 0.5589 0.8450
C26_8 C 0.5180(19) 0.6169(5) 0.8474(3)
H13_8 H 0.5914 0.6202 0.8344
C27_8 C 0.4581(14) 0.6494(4) 0.8599(2)
C28_8 C 0.3473(15) 0.6424(4) 0.8786(3)
H14_8 H 0.3015 0.6629 0.8872
C29_8 C 0.3050(17) 0.6064(5) 0.8845(3)
H15_8 H 0.2289 0.6029 0.8971
C30_8 C 0.5238(13) 0.6889(4) 0.8554(3)
C50_8 C 0.0181(13) 0.6107(4) 0.9409(3)
H30_8 H 0.0911 0.6045 0.9534
C51_8 C 0.0299(13) 0.6446(4) 0.9282(3)
H31_8 H 0.1134 0.6611 0.9317
O13_8 O 0.8077(14) 0.4704(3) 0.0836(2)
C42_8 C 0.4528(15) 0.4434(4) 0.0162(3)
H26_8 H 0.3506 0.4403 0.0101
C43_8 C 0.4803(14) 0.4496(4) 0.0428(3)
H27_8 H 0.3967 0.4512 0.0542
C44_8 C 0.6352(14) 0.4532(3) 0.0512(3)
C45_8 C 0.7646(14) 0.4493(4) 0.0347(2)
H28_8 H 0.8670 0.4496 0.0411
C46_8 C 0.7370(14) 0.4448(4) 0.0088(3)
C47_8 C 0.6643(16) 0.4618(4) 0.0793(3)
C17_8 C 0.9819(13) 0.3893(4) 0.9409(3)
H8_8 H 0.9089 0.3955 0.9534
C18_8 C 0.9701(13) 0.3554(4) 0.9282(3)
H9_8 H 0.8866 0.3389 0.9317
O11_8 O 0.4435(11) 0.4149(3) 0.96505(17)
O14_8 O 0.9397(11) 0.5488(3) 0.97253(19)
O17_8 O 0.6856(17) 0.4911(3) 0.8653(3)
C34_8 C 0.6368(14) 0.4601(4) 0.9536(2)
C35_8 C 0.7195(15) 0.4927(4) 0.9604(3)
H23_8 H 0.7268 0.4994 0.9775
C36_8 C 0.7943(14) 0.5165(4) 0.9416(3)
C37_8 C 0.7843(15) 0.5068(4) 0.9164(3)
H24_8 H 0.8340 0.5219 0.9041
C38_8 C 0.6982(16) 0.4740(4) 0.9090(3)
C39_8 C 0.6261(15) 0.4513(4) 0.9278(3)
H25_8 H 0.5695 0.4297 0.9229
C40_8 C 0.5458(16) 0.4368(4) 0.9712(3)
C41_8 C 0.5780(15) 0.4421(4) 0.9996(3)
H29_8 H 0.8210 0.4437 0.9975
C48_8 C 0.8805(14) 0.5503(4) 0.9507(3)
C49_8 C 0.8978(12) 0.5854(3) 0.9352(2)
C52_8 C 0.9184(13) 0.6547(4) 0.9102(2)
C53_8 C 0.7970(13) 0.6302(3) 0.9052(2)
H32_8 H 0.7206 0.6368 0.8932
C54_8 C 0.7880(15) 0.5963(4) 0.9175(3)
H33_8 H 0.7048 0.5798 0.9138
C55_8 C 0.9304(16) 0.6932(4) 0.8969(2)
C56_8 C 0.6758(18) 0.4658(4) 0.8808(3)
C57_8 C 0.6327(16) 0.4253(4) 0.8732(3)
C58_8 C 0.5298(18) 0.4201(4) 0.8539(3)
H34_8 H 0.4908 0.4411 0.8450
C59_8 C 0.4820(19) 0.3831(5) 0.8474(3)
H35_8 H 0.4086 0.3798 0.8344
C60_8 C 0.5419(14) 0.3506(4) 0.8599(2)
C61_8 C 0.6527(15) 0.3576(4) 0.8786(3)
H36_8 H 0.6985 0.3371 0.8872
C62_8 C 0.6950(17) 0.3936(5) 0.8845(3)
H37_8 H 0.7711 0.3971 0.8971
C63_8 C 0.4762(13) 0.3111(4) 0.8554(3)
loop_
_geom_bond_atom_site_label_1
_geom_bond_atom_site_label_2
_geom_bond_site_symmetry_1
_geom_bond_site_symmetry_2
Tb1 O2 1_555 1_555
O1 C7 1_555 1_555
O2 C14 1_555 1_555
O7 C23 1_555 1_555
O8 C30 1_555 1_555
O9 C30 1_555 1_555
O10 Tb1 1_555 1_555
C1 C2 1_555 1_555
C2 H1 1_555 1_555
C6 C1 1_555 1_555
H3 C6 1_555 1_555
C7 C1 1_555 1_555
C8 C7 1_555 1_555
C9 C8 1_555 1_555
H4 C9 1_555 1_555
C10 C9 1_555 1_555
H5 C10 1_555 1_555
C11 C10 1_555 1_555
C13 C8 1_555 1_555
C14 C11 1_555 1_555
C23 C5 1_555 1_555
C24 C23 1_555 1_555
C25 C24 1_555 1_555
H12 C25 1_555 1_555
C26 C25 1_555 1_555
H13 C26 1_555 1_555
C27 C26 1_555 1_555
C28 C27 1_555 1_555
H14 C28 1_555 1_555
C29 C24 1_555 1_555
C30 C27 1_555 1_555
C31 O10 1_555 1_555
H20 C33 1_555 1_555
H21 C33 1_555 1_555
H22 C33 1_555 1_555
O20 Tb1 1_555 1_555
N2 C64 1_555 1_555
C64 O20 1_555 1_555
H38 C64 1_555 1_555
C65 N2 1_555 1_555
H39 C65 1_555 1_555
H40 C65 1_555 1_555
H41 C65 1_555 1_555
C66 N2 1_555 1_555
H42 C66 1_555 1_555
H43 C66 1_555 1_555
H44 C66 1_555 1_555
Tb4 O9 1_555 1_555
Tb7 O8 1_555 1_555
O21 Tb1 1_555 1_555
O22 Tb1 1_555 1_555
O23 Tb1 1_555 1_555
O28 Tb1 1_555 1_555
O30 Tb1 1_555 1_555
O9 Tb7 1_555 1_555
C5 C6 1_555 1_555
C28 C29 1_555 1_555
Tb2 O3 1_555 1_555
O4 C15 1_555 1_555
O5 C22 1_555 1_555
O6 C22 1_555 1_555
C4 C3 1_555 1_555
H2 C4 1_555 1_555
H6 C12 1_555 1_555
C15 C3 1_555 1_555
C16 C15 1_555 1_555
C17 C16 1_555 1_555
H8 C17 1_555 1_555
C18 C17 1_555 1_555
H9 C18 1_555 1_555
C19 C18 1_555 1_555
C20 C19 1_555 1_555
C21 C16 1_555 1_555
C22 C19 1_555 1_555
C32 N1 1_555 1_555
H17 C32 1_555 1_555
H18 C32 1_555 1_555
H19 C32 1_555 1_555
O11 C40 1_555 1_555
O21 C47 1_555 1_555
O13 Tb2 1_555 1_555
O14 C48 1_555 1_555
O15 C55 1_555 1_555
O16 C55 1_555 1_555
O17 C56 1_555 1_555
O18 C63 1_555 1_555
O19 C63 1_555 1_555
C34 C35 1_555 1_555
C35 H23 1_555 1_555
C36 C35 1_555 1_555
C37 C36 1_555 1_555
H24 C37 1_555 1_555
C38 C37 1_555 1_555
C39 C34 1_555 1_555
H25 C39 1_555 1_555
C40 C34 1_555 1_555
C41 C40 1_555 1_555
C42 C41 1_555 1_555
H26 C42 1_555 1_555
C43 C42 1_555 1_555
H27 C43 1_555 1_555
C44 C43 1_555 1_555
C45 C44 1_555 1_555
H28 C45 1_555 1_555
C46 C41 1_555 1_555
H29 C46 1_555 1_555
C47 O13 1_555 1_555
C48 C36 1_555 1_555
C49 C48 1_555 1_555
C50 C49 1_555 1_555
H30 C50 1_555 1_555
C51 C50 1_555 1_555
H31 C51 1_555 1_555
C52 C51 1_555 1_555
C53 C52 1_555 1_555
H32 C53 1_555 1_555
C54 C49 1_555 1_555
H33 C54 1_555 1_555
C55 C52 1_555 1_555
C56 C38 1_555 1_555
C57 C56 1_555 1_555
C58 C57 1_555 1_555
H34 C58 1_555 1_555
C59 C58 1_555 1_555
H35 C59 1_555 1_555
C60 C59 1_555 1_555
C61 C60 1_555 1_555
H36 C61 1_555 1_555
C62 C57 1_555 1_555
H37 C62 1_555 1_555
C63 C60 1_555 1_555
Tb5 O5 1_555 1_555
Tb7 O16 1_555 1_555
Tb9 O18 1_555 1_555
Tb9_2 O6 1_555 1_555
O24 Tb2 1_555 1_555
O25 Tb2 1_555 1_555
O26 Tb2 1_555 1_555
O27 Tb2 1_555 1_555
O30 Tb2 1_555 1_555
C20 C21 1_555 1_555
O15 Tb4_3 1_555 1_555
O19 Tb5 1_555 1_555
O19 Tb9 1_555 1_555
C38 C39 1_555 1_555
C44 C47 1_555 1_555
C45 C46 1_555 1_555
C53 C54 1_555 1_555
C61 C62 1_555 1_555
Tb2_2 O3_2 1_555 1_555
O4_2 C15_2 1_555 1_555
O5_2 C22_2 1_555 1_555
O6_2 C22_2 1_555 1_555
C4_2 C3_2 1_555 1_555
H2_2 C4_2 1_555 1_555
H6_2 C12_2 1_555 1_555
C15_2 C3_2 1_555 1_555
C16_2 C15_2 1_555 1_555
C17_2 C16_2 1_555 1_555
H8_2 C17_2 1_555 1_555
C18_2 C17_2 1_555 1_555
H9_2 C18_2 1_555 1_555
C19_2 C18_2 1_555 1_555
C20_2 C19_2 1_555 1_555
C21_2 C16_2 1_555 1_555
C22_2 C19_2 1_555 1_555
C32_2 N1_2 1_555 1_555
H17_2 C32_2 1_555 1_555
H18_2 C32_2 1_555 1_555
H19_2 C32_2 1_555 1_555
O11_2 C40_2 1_555 1_555
O12 C47_2 1_555 1_555
O13_2 Tb2_2 1_555 1_555
O14_2 C48_2 1_555 1_555
O15_2 C55_2 1_555 1_555
O16_2 C55_2 1_555 1_555
O17_2 C56_2 1_555 1_555
O18_2 C63_2 1_555 1_555
O19_2 C63_2 1_555 1_555
C34_2 C35_2 1_555 1_555
C35_2 H23_2 1_555 1_555
C36_2 C35_2 1_555 1_555
C37_2 C36_2 1_555 1_555
H24_2 C37_2 1_555 1_555
C38_2 C37_2 1_555 1_555
C39_2 C34_2 1_555 1_555
H25_2 C39_2 1_555 1_555
C40_2 C34_2 1_555 1_555
C41_2 C40_2 1_555 1_555
C42_2 C41_2 1_555 1_555
H26_2 C42_2 1_555 1_555
C43_2 C42_2 1_555 1_555
H27_2 C43_2 1_555 1_555
C44_2 C43_2 1_555 1_555
C45_2 C44_2 1_555 1_555
H28_2 C45_2 1_555 1_555
C46_2 C41_2 1_555 1_555
H29_2 C46_2 1_555 1_555
C47_2 O13_2 1_555 1_555
C48_2 C36_2 1_555 1_555
C49_2 C48_2 1_555 1_555
C50_2 C49_2 1_555 1_555
H30_2 C50_2 1_555 1_555
C51_2 C50_2 1_555 1_555
H31_2 C51_2 1_555 1_555
C52_2 C51_2 1_555 1_555
C53_2 C52_2 1_555 1_555
H32_2 C53_2 1_555 1_555
C54_2 C49_2 1_555 1_555
H33_2 C54_2 1_555 1_555
C55_2 C52_2 1_555 1_555
C56_2 C38_2 1_555 1_555
C57_2 C56_2 1_555 1_555
C58_2 C57_2 1_555 1_555
H34_2 C58_2 1_555 1_555
C59_2 C58_2 1_555 1_555
H35_2 C59_2 1_555 1_555
C60_2 C59_2 1_555 1_555
C61_2 C60_2 1_555 1_555
H36_2 C61_2 1_555 1_555
C62_2 C57_2 1_555 1_555
H37_2 C62_2 1_555 1_555
C63_2 C60_2 1_555 1_555
Tb3 O12 1_555 1_555
Tb5 O5_2 1_555 1_555
Tb7_2 O16_2 1_555 1_555
Tb9_2 O18_2 1_555 1_555
Tb9 O6_2 1_555 1_555
O24_2 Tb2_2 1_555 1_555
O25_2 Tb2_2 1_555 1_555
O26_2 Tb2_2 1_555 1_555
O27_2 Tb2_2 1_555 1_555
O29 Tb2_2 1_555 1_555
C20_2 C21_2 1_555 1_555
O15_2 Tb4_2 1_555 1_555
O19_2 Tb5 1_555 1_555
O19_2 Tb9_2 1_555 1_555
C38_2 C39_2 1_555 1_555
C44_2 C47_2 1_555 1_555
C45_2 C46_2 1_555 1_555
C53_2 C54_2 1_555 1_555
C61_2 C62_2 1_555 1_555
Tb3 O29 1_555 1_555
Tb3 O2_2 1_555 1_555
O1_2 C7_2 1_555 1_555
O2_2 C14_2 1_555 1_555
O7_2 C23_2 1_555 1_555
O8_2 C30_2 1_555 1_555
O9_2 C30_2 1_555 1_555
O10_2 Tb3 1_555 1_555
C1_2 C2_2 1_555 1_555
C2_2 H1_2 1_555 1_555
C6_2 C1_2 1_555 1_555
H3_2 C6_2 1_555 1_555
C7_2 C1_2 1_555 1_555
C8_2 C7_2 1_555 1_555
C9_2 C8_2 1_555 1_555
H4_2 C9_2 1_555 1_555
C10_2 C9_2 1_555 1_555
H5_2 C10_2 1_555 1_555
C11_2 C10_2 1_555 1_555
C13_2 C8_2 1_555 1_555
C14_2 C11_2 1_555 1_555
C23_2 C5_2 1_555 1_555
C24_2 C23_2 1_555 1_555
C25_2 C24_2 1_555 1_555
H12_2 C25_2 1_555 1_555
C26_2 C25_2 1_555 1_555
H13_2 C26_2 1_555 1_555
C27_2 C26_2 1_555 1_555
C28_2 C27_2 1_555 1_555
H14_2 C28_2 1_555 1_555
C29_2 C24_2 1_555 1_555
C30_2 C27_2 1_555 1_555
C31_2 O10_2 1_555 1_555
H20_2 C33_2 1_555 1_555
H21_2 C33_2 1_555 1_555
H22_2 C33_2 1_555 1_555
O20_2 Tb3 1_555 1_555
N2_2 C64_2 1_555 1_555
C64_2 O20_2 1_555 1_555
H38_2 C64_2 1_555 1_555
C65_2 N2_2 1_555 1_555
H39_2 C65_2 1_555 1_555
H40_2 C65_2 1_555 1_555
H41_2 C65_2 1_555 1_555
C66_2 N2_2 1_555 1_555
H42_2 C66_2 1_555 1_555
H43_2 C66_2 1_555 1_555
H44_2 C66_2 1_555 1_555
Tb4_4 O9_2 1_555 1_555
Tb7_2 O8_2 1_555 1_555
O22_2 Tb3 1_555 1_555
O23_2 Tb3 1_555 1_555
O28_2 Tb3 1_555 1_555
O9_2 Tb7_2 1_555 1_555
C5_2 C6_2 1_555 1_555
C28_2 C29_2 1_555 1_555
O26_2 C63_3 1_555 1_555
H26_3 C42_3 1_555 1_555
C43_3 C42_3 1_555 1_555
H27_3 C43_3 1_555 1_555
H35_3 C59_3 1_555 1_555
Tb3_2 O2_3 1_555 1_555
Tb2_3 O3_3 1_555 1_555
O2_3 C14_3 1_555 1_555
O3_3 C14_3 1_555 1_555
O4_3 C15_3 1_555 1_555
O23_2 C22_3 1_555 1_555
O25_2 C22_3 1_555 1_555
O7_3 C23_3 1_555 1_555
O10_3 Tb3_2 1_555 1_555
N1_3 C31_3 1_555 1_555
C1_3 C2_3 1_555 1_555
C2_3 H1_3 1_555 1_555
C3_3 C2_3 1_555 1_555
C4_3 C3_3 1_555 1_555
H2_3 C4_3 1_555 1_555
C5_3 C4_3 1_555 1_555
C6_3 C1_3 1_555 1_555
H3_3 C6_3 1_555 1_555
C7_3 C1_3 1_555 1_555
C8_3 C7_3 1_555 1_555
C12_3 C11_3 1_555 1_555
H6_3 C12_3 1_555 1_555
C13_3 C8_3 1_555 1_555
H7_3 C13_3 1_555 1_555
C14_3 C11_3 1_555 1_555
C15_3 C3_3 1_555 1_555
C16_3 C15_3 1_555 1_555
C17_3 C16_3 1_555 1_555
H8_3 C17_3 1_555 1_555
C18_3 C17_3 1_555 1_555
H9_3 C18_3 1_555 1_555
C19_3 C18_3 1_555 1_555
C20_3 C19_3 1_555 1_555
H10_3 C20_3 1_555 1_555
C21_3 C16_3 1_555 1_555
H11_3 C21_3 1_555 1_555
C22_3 C19_3 1_555 1_555
C23_3 C5_3 1_555 1_555
C24_3 C23_3 1_555 1_555
C25_3 C24_3 1_555 1_555
C28_3 C27_3 1_555 1_555
H14_3 C28_3 1_555 1_555
C29_3 C24_3 1_555 1_555
H15_3 C29_3 1_555 1_555
C31_3 O10_3 1_555 1_555
H16_3 C31_3 1_555 1_555
C32_3 N1_3 1_555 1_555
H17_3 C32_3 1_555 1_555
H18_3 C32_3 1_555 1_555
H19_3 C32_3 1_555 1_555
C33_3 N1_3 1_555 1_555
H20_3 C33_3 1_555 1_555
H21_3 C33_3 1_555 1_555
H22_3 C33_3 1_555 1_555
O12_2 C47_3 1_555 1_555
O13_3 Tb2_3 1_555 1_555
O14_3 C48_3 1_555 1_555
O23 C55_3 1_555 1_555
O25 C55_3 1_555 1_555
O17_3 C56_3 1_555 1_555
C34_3 C35_3 1_555 1_555
C35_3 H23_3 1_555 1_555
C36_3 C35_3 1_555 1_555
C37_3 C36_3 1_555 1_555
H24_3 C37_3 1_555 1_555
C38_3 C37_3 1_555 1_555
C39_3 C34_3 1_555 1_555
H25_3 C39_3 1_555 1_555
C40_3 C34_3 1_555 1_555
C41_3 C40_3 1_555 1_555
C45_3 C44_3 1_555 1_555
H28_3 C45_3 1_555 1_555
C46_3 C41_3 1_555 1_555
H29_3 C46_3 1_555 1_555
C47_3 O13_3 1_555 1_555
C48_3 C36_3 1_555 1_555
C49_3 C48_3 1_555 1_555
C50_3 C49_3 1_555 1_555
H30_3 C50_3 1_555 1_555
C51_3 C50_3 1_555 1_555
H31_3 C51_3 1_555 1_555
C52_3 C51_3 1_555 1_555
C53_3 C52_3 1_555 1_555
H32_3 C53_3 1_555 1_555
C54_3 C49_3 1_555 1_555
H33_3 C54_3 1_555 1_555
C55_3 C52_3 1_555 1_555
C56_3 C38_3 1_555 1_555
C57_3 C56_3 1_555 1_555
C58_3 C57_3 1_555 1_555
C61_3 C60_3 1_555 1_555
H36_3 C61_3 1_555 1_555
C62_3 C57_3 1_555 1_555
H37_3 C62_3 1_555 1_555
Tb3_3 O12_2 1_555 1_555
O22_3 Tb3_2 1_555 1_555
O24_3 Tb2_3 1_555 1_555
O25_3 Tb2_3 1_555 1_555
O26_3 Tb2_3 1_555 1_555
O27_3 Tb2_3 1_555 1_555
O28_3 Tb3_2 1_555 1_555
O29_2 Tb2_3 1_555 1_555
Tb2_3 O28_3 1_555 1_555
C5_3 C6_3 1_555 1_555
C12_3 C13_3 1_555 1_555
C20_3 C21_3 1_555 1_555
C28_3 C29_3 1_555 1_555
C38_3 C39_3 1_555 1_555
C44_3 C47_3 1_555 1_555
C45_3 C46_3 1_555 1_555
C53_3 C54_3 1_555 1_555
C61_3 C62_3 1_555 1_555
Tb3_3 O29_2 1_555 1_555
O26 C30_3 1_555 1_555
H4_3 C9_3 1_555 1_555
C10_3 C9_3 1_555 1_555
H5_3 C10_3 1_555 1_555
H13_3 C26_3 1_555 1_555
O20_3 Tb3_3 1_555 1_555
N2_3 C64_3 1_555 1_555
C64_3 O20_3 1_555 1_555
H38_3 C64_3 1_555 1_555
C65_3 N2_3 1_555 1_555
H39_3 C65_3 1_555 1_555
H40_3 C65_3 1_555 1_555
H41_3 C65_3 1_555 1_555
C66_3 N2_3 1_555 1_555
H42_3 C66_3 1_555 1_555
H43_3 C66_3 1_555 1_555
H44_3 C66_3 1_555 1_555
O23_3 Tb3_3 1_555 1_555
Tb1_2 O2_4 1_555 1_555
Tb2_4 O3_4 1_555 1_555
O1_4 C7_4 1_555 1_555
O2_4 C14_4 1_555 1_555
O3_4 C14_4 1_555 1_555
O7_4 C23_4 1_555 1_555
O27 C30_4 1_555 1_555
O30 C30_4 1_555 1_555
C1_4 C2_4 1_555 1_555
C2_4 H1_4 1_555 1_555
C6_4 C1_4 1_555 1_555
H3_4 C6_4 1_555 1_555
C7_4 C1_4 1_555 1_555
C8_4 C7_4 1_555 1_555
C9_4 C8_4 1_555 1_555
H4_4 C9_4 1_555 1_555
C10_4 C9_4 1_555 1_555
H5_4 C10_4 1_555 1_555
C11_4 C10_4 1_555 1_555
C12_4 C11_4 1_555 1_555
H6_4 C12_4 1_555 1_555
C13_4 C8_4 1_555 1_555
H7_4 C13_4 1_555 1_555
C14_4 C11_4 1_555 1_555
C23_4 C5_4 1_555 1_555
C24_4 C23_4 1_555 1_555
C25_4 C24_4 1_555 1_555
H12_4 C25_4 1_555 1_555
C26_4 C25_4 1_555 1_555
H13_4 C26_4 1_555 1_555
C27_4 C26_4 1_555 1_555
C28_4 C27_4 1_555 1_555
H14_4 C28_4 1_555 1_555
C29_4 C24_4 1_555 1_555
H15_4 C29_4 1_555 1_555
C30_4 C27_4 1_555 1_555
H30_4 C50_4 1_555 1_555
C51_4 C50_4 1_555 1_555
H31_4 C51_4 1_555 1_555
O20_4 Tb1_2 1_555 1_555
N2_4 C64_4 1_555 1_555
C64_4 O20_4 1_555 1_555
H38_4 C64_4 1_555 1_555
C65_4 N2_4 1_555 1_555
H39_4 C65_4 1_555 1_555
H40_4 C65_4 1_555 1_555
H41_4 C65_4 1_555 1_555
C66_4 N2_4 1_555 1_555
H42_4 C66_4 1_555 1_555
H43_4 C66_4 1_555 1_555
H44_4 C66_4 1_555 1_555
O22_4 Tb1_2 1_555 1_555
O24_4 Tb2_4 1_555 1_555
O30_2 Tb1_2 1_555 1_555
C5_4 C6_4 1_555 1_555
C12_4 C13_4 1_555 1_555
C28_4 C29_4 1_555 1_555
O4_4 C15_4 1_555 1_555
O24_2 C22_4 1_555 1_555
O10_4 Tb1_3 1_555 1_555
N1_4 C31_4 1_555 1_555
C4_4 C3_4 1_555 1_555
H2_4 C4_4 1_555 1_555
C15_4 C3_4 1_555 1_555
C16_4 C15_4 1_555 1_555
C20_4 C19_4 1_555 1_555
H10_4 C20_4 1_555 1_555
C21_4 C16_4 1_555 1_555
H11_4 C21_4 1_555 1_555
C22_4 C19_4 1_555 1_555
C31_4 O10_4 1_555 1_555
H16_4 C31_4 1_555 1_555
C32_4 N1_4 1_555 1_555
H17_4 C32_4 1_555 1_555
H18_4 C32_4 1_555 1_555
H19_4 C32_4 1_555 1_555
C33_4 N1_4 1_555 1_555
H20_4 C33_4 1_555 1_555
H21_4 C33_4 1_555 1_555
H22_4 C33_4 1_555 1_555
O21_2 Tb1_3 1_555 1_555
O23_4 Tb1_3 1_555 1_555
O26_4 Tb2_5 1_555 1_555
O28_4 Tb1_3 1_555 1_555
Tb2_5 O28_4 1_555 1_555
C20_4 C21_4 1_555 1_555
O14_4 C48_4 1_555 1_555
O24 C55_4 1_555 1_555
C37_4 C36_4 1_555 1_555
H24_4 C37_4 1_555 1_555
C48_4 C36_4 1_555 1_555
C49_4 C48_4 1_555 1_555
C53_4 C52_4 1_555 1_555
H32_4 C53_4 1_555 1_555
C54_4 C49_4 1_555 1_555
H33_4 C54_4 1_555 1_555
C55_4 C52_4 1_555 1_555
O27_4 Tb2_6 1_555 1_555
O30_2 Tb2_6 1_555 1_555
C53_4 C54_4 1_555 1_555
H8_4 C17_4 1_555 1_555
C18_4 C17_4 1_555 1_555
H9_4 C18_4 1_555 1_555
O11_4 C40_4 1_555 1_555
O21_2 C47_4 1_555 1_555
O13_4 Tb2_7 1_555 1_555
O17_4 C56_4 1_555 1_555
O27_2 C63_4 1_555 1_555
O29 C63_4 1_555 1_555
C34_4 C35_4 1_555 1_555
C35_4 H23_4 1_555 1_555
C39_4 C34_4 1_555 1_555
H25_4 C39_4 1_555 1_555
C40_4 C34_4 1_555 1_555
C41_4 C40_4 1_555 1_555
C42_4 C41_4 1_555 1_555
H26_4 C42_4 1_555 1_555
C43_4 C42_4 1_555 1_555
H27_4 C43_4 1_555 1_555
C44_4 C43_4 1_555 1_555
C45_4 C44_4 1_555 1_555
H28_4 C45_4 1_555 1_555
C46_4 C41_4 1_555 1_555
H29_4 C46_4 1_555 1_555
C47_4 O13_4 1_555 1_555
C56_4 C38_4 1_555 1_555
C57_4 C56_4 1_555 1_555
C58_4 C57_4 1_555 1_555
H34_4 C58_4 1_555 1_555
C59_4 C58_4 1_555 1_555
H35_4 C59_4 1_555 1_555
C60_4 C59_4 1_555 1_555
C61_4 C60_4 1_555 1_555
H36_4 C61_4 1_555 1_555
C62_4 C57_4 1_555 1_555
H37_4 C62_4 1_555 1_555
C63_4 C60_4 1_555 1_555
O25_4 Tb2_7 1_555 1_555
C38_4 C39_4 1_555 1_555
C44_4 C47_4 1_555 1_555
C45_4 C46_4 1_555 1_555
C61_4 C62_4 1_555 1_555
Tb1_4 O2_5 1_555 1_555
O1_5 C7_5 1_555 1_555
O2_5 C14_5 1_555 1_555
O7_5 C23_5 1_555 1_555
O26_3 C30_5 1_555 1_555
O28_3 C30_5 1_555 1_555
O10_5 Tb1_4 1_555 1_555
C1_5 C2_5 1_555 1_555
C2_5 H1_5 1_555 1_555
C6_5 C1_5 1_555 1_555
H3_5 C6_5 1_555 1_555
C7_5 C1_5 1_555 1_555
C8_5 C7_5 1_555 1_555
C9_5 C8_5 1_555 1_555
H4_5 C9_5 1_555 1_555
C10_5 C9_5 1_555 1_555
H5_5 C10_5 1_555 1_555
C11_5 C10_5 1_555 1_555
C13_5 C8_5 1_555 1_555
C14_5 C11_5 1_555 1_555
C23_5 C5_5 1_555 1_555
C24_5 C23_5 1_555 1_555
C25_5 C24_5 1_555 1_555
H12_5 C25_5 1_555 1_555
C26_5 C25_5 1_555 1_555
H13_5 C26_5 1_555 1_555
C27_5 C26_5 1_555 1_555
C28_5 C27_5 1_555 1_555
H14_5 C28_5 1_555 1_555
C29_5 C24_5 1_555 1_555
C30_5 C27_5 1_555 1_555
C31_5 O10_5 1_555 1_555
H20_5 C33_5 1_555 1_555
H21_5 C33_5 1_555 1_555
H22_5 C33_5 1_555 1_555
O20_5 Tb1_4 1_555 1_555
N2_5 C64_5 1_555 1_555
C64_5 O20_5 1_555 1_555
H38_5 C64_5 1_555 1_555
C65_5 N2_5 1_555 1_555
H39_5 C65_5 1_555 1_555
H40_5 C65_5 1_555 1_555
H41_5 C65_5 1_555 1_555
C66_5 N2_5 1_555 1_555
H42_5 C66_5 1_555 1_555
H43_5 C66_5 1_555 1_555
H44_5 C66_5 1_555 1_555
O21_3 Tb1_4 1_555 1_555
O22_5 Tb1_4 1_555 1_555
O23_5 Tb1_4 1_555 1_555
O28_5 Tb1_4 1_555 1_555
O30_3 Tb1_4 1_555 1_555
C5_5 C6_5 1_555 1_555
C28_5 C29_5 1_555 1_555
Tb2_8 O3_5 1_555 1_555
O4_5 C15_5 1_555 1_555
O23_4 C22_5 1_555 1_555
O25_4 C22_5 1_555 1_555
C4_5 C3_5 1_555 1_555
H2_5 C4_5 1_555 1_555
H6_5 C12_5 1_555 1_555
C15_5 C3_5 1_555 1_555
C16_5 C15_5 1_555 1_555
C17_5 C16_5 1_555 1_555
H8_5 C17_5 1_555 1_555
C18_5 C17_5 1_555 1_555
H9_5 C18_5 1_555 1_555
C19_5 C18_5 1_555 1_555
C20_5 C19_5 1_555 1_555
C21_5 C16_5 1_555 1_555
C22_5 C19_5 1_555 1_555
C32_5 N1_5 1_555 1_555
H17_5 C32_5 1_555 1_555
H18_5 C32_5 1_555 1_555
H19_5 C32_5 1_555 1_555
O11_5 C40_5 1_555 1_555
O21_3 C47_5 1_555 1_555
O13_5 Tb2_8 1_555 1_555
O14_5 C48_5 1_555 1_555
O23_3 C55_5 1_555 1_555
O25_3 C55_5 1_555 1_555
O17_5 C56_5 1_555 1_555
O26_4 C63_5 1_555 1_555
O28_4 C63_5 1_555 1_555
C34_5 C35_5 1_555 1_555
C35_5 H23_5 1_555 1_555
C36_5 C35_5 1_555 1_555
C37_5 C36_5 1_555 1_555
H24_5 C37_5 1_555 1_555
C38_5 C37_5 1_555 1_555
C39_5 C34_5 1_555 1_555
H25_5 C39_5 1_555 1_555
C40_5 C34_5 1_555 1_555
C41_5 C40_5 1_555 1_555
C42_5 C41_5 1_555 1_555
H26_5 C42_5 1_555 1_555
C43_5 C42_5 1_555 1_555
H27_5 C43_5 1_555 1_555
C44_5 C43_5 1_555 1_555
C45_5 C44_5 1_555 1_555
H28_5 C45_5 1_555 1_555
C46_5 C41_5 1_555 1_555
H29_5 C46_5 1_555 1_555
C47_5 O13_5 1_555 1_555
C48_5 C36_5 1_555 1_555
C49_5 C48_5 1_555 1_555
C50_5 C49_5 1_555 1_555
H30_5 C50_5 1_555 1_555
C51_5 C50_5 1_555 1_555
H31_5 C51_5 1_555 1_555
C52_5 C51_5 1_555 1_555
C53_5 C52_5 1_555 1_555
H32_5 C53_5 1_555 1_555
C54_5 C49_5 1_555 1_555
H33_5 C54_5 1_555 1_555
C55_5 C52_5 1_555 1_555
C56_5 C38_5 1_555 1_555
C57_5 C56_5 1_555 1_555
C58_5 C57_5 1_555 1_555
H34_5 C58_5 1_555 1_555
C59_5 C58_5 1_555 1_555
H35_5 C59_5 1_555 1_555
C60_5 C59_5 1_555 1_555
C61_5 C60_5 1_555 1_555
H36_5 C61_5 1_555 1_555
C62_5 C57_5 1_555 1_555
H37_5 C62_5 1_555 1_555
C63_5 C60_5 1_555 1_555
O24_5 Tb2_8 1_555 1_555
O25_5 Tb2_8 1_555 1_555
O26_5 Tb2_8 1_555 1_555
O27_5 Tb2_8 1_555 1_555
O30_3 Tb2_8 1_555 1_555
C20_5 C21_5 1_555 1_555
C38_5 C39_5 1_555 1_555
C44_5 C47_5 1_555 1_555
C45_5 C46_5 1_555 1_555
C53_5 C54_5 1_555 1_555
C61_5 C62_5 1_555 1_555
Tb2_9 O3_6 1_555 1_555
O4_6 C15_6 1_555 1_555
O22_4 C22_6 1_555 1_555
O24_4 C22_6 1_555 1_555
C4_6 C3_6 1_555 1_555
H2_6 C4_6 1_555 1_555
H6_6 C12_6 1_555 1_555
C15_6 C3_6 1_555 1_555
C16_6 C15_6 1_555 1_555
C17_6 C16_6 1_555 1_555
H8_6 C17_6 1_555 1_555
C18_6 C17_6 1_555 1_555
H9_6 C18_6 1_555 1_555
C19_6 C18_6 1_555 1_555
C20_6 C19_6 1_555 1_555
C21_6 C16_6 1_555 1_555
C22_6 C19_6 1_555 1_555
C32_6 N1_6 1_555 1_555
H17_6 C32_6 1_555 1_555
H18_6 C32_6 1_555 1_555
H19_6 C32_6 1_555 1_555
O11_6 C40_6 1_555 1_555
O12_3 C47_6 1_555 1_555
O13_6 Tb2_9 1_555 1_555
O14_6 C48_6 1_555 1_555
O22_3 C55_6 1_555 1_555
O24_3 C55_6 1_555 1_555
O17_6 C56_6 1_555 1_555
O27_4 C63_6 1_555 1_555
O30_2 C63_6 1_555 1_555
C34_6 C35_6 1_555 1_555
C35_6 H23_6 1_555 1_555
C36_6 C35_6 1_555 1_555
C37_6 C36_6 1_555 1_555
H24_6 C37_6 1_555 1_555
C38_6 C37_6 1_555 1_555
C39_6 C34_6 1_555 1_555
H25_6 C39_6 1_555 1_555
C40_6 C34_6 1_555 1_555
C41_6 C40_6 1_555 1_555
C42_6 C41_6 1_555 1_555
H26_6 C42_6 1_555 1_555
C43_6 C42_6 1_555 1_555
H27_6 C43_6 1_555 1_555
C44_6 C43_6 1_555 1_555
C45_6 C44_6 1_555 1_555
H28_6 C45_6 1_555 1_555
C46_6 C41_6 1_555 1_555
H29_6 C46_6 1_555 1_555
C47_6 O13_6 1_555 1_555
C48_6 C36_6 1_555 1_555
C49_6 C48_6 1_555 1_555
C50_6 C49_6 1_555 1_555
H30_6 C50_6 1_555 1_555
C51_6 C50_6 1_555 1_555
H31_6 C51_6 1_555 1_555
C52_6 C51_6 1_555 1_555
C53_6 C52_6 1_555 1_555
H32_6 C53_6 1_555 1_555
C54_6 C49_6 1_555 1_555
H33_6 C54_6 1_555 1_555
C55_6 C52_6 1_555 1_555
C56_6 C38_6 1_555 1_555
C57_6 C56_6 1_555 1_555
C58_6 C57_6 1_555 1_555
H34_6 C58_6 1_555 1_555
C59_6 C58_6 1_555 1_555
H35_6 C59_6 1_555 1_555
C60_6 C59_6 1_555 1_555
C61_6 C60_6 1_555 1_555
H36_6 C61_6 1_555 1_555
C62_6 C57_6 1_555 1_555
H37_6 C62_6 1_555 1_555
C63_6 C60_6 1_555 1_555
Tb3_4 O12_3 1_555 1_555
O24_6 Tb2_9 1_555 1_555
O25_6 Tb2_9 1_555 1_555
O26_6 Tb2_9 1_555 1_555
O27_6 Tb2_9 1_555 1_555
O29_3 Tb2_9 1_555 1_555
C20_6 C21_6 1_555 1_555
C38_6 C39_6 1_555 1_555
C44_6 C47_6 1_555 1_555
C45_6 C46_6 1_555 1_555
C53_6 C54_6 1_555 1_555
C61_6 C62_6 1_555 1_555
Tb3_4 O29_3 1_555 1_555
Tb3_4 O2_6 1_555 1_555
O1_6 C7_6 1_555 1_555
O2_6 C14_6 1_555 1_555
O7_6 C23_6 1_555 1_555
O27_3 C30_6 1_555 1_555
O29_2 C30_6 1_555 1_555
O10_6 Tb3_4 1_555 1_555
C1_6 C2_6 1_555 1_555
C2_6 H1_6 1_555 1_555
C6_6 C1_6 1_555 1_555
H3_6 C6_6 1_555 1_555
C7_6 C1_6 1_555 1_555
C8_6 C7_6 1_555 1_555
C9_6 C8_6 1_555 1_555
H4_6 C9_6 1_555 1_555
C10_6 C9_6 1_555 1_555
H5_6 C10_6 1_555 1_555
C11_6 C10_6 1_555 1_555
C13_6 C8_6 1_555 1_555
C14_6 C11_6 1_555 1_555
C23_6 C5_6 1_555 1_555
C24_6 C23_6 1_555 1_555
C25_6 C24_6 1_555 1_555
H12_6 C25_6 1_555 1_555
C26_6 C25_6 1_555 1_555
H13_6 C26_6 1_555 1_555
C27_6 C26_6 1_555 1_555
C28_6 C27_6 1_555 1_555
H14_6 C28_6 1_555 1_555
C29_6 C24_6 1_555 1_555
C30_6 C27_6 1_555 1_555
C31_6 O10_6 1_555 1_555
H20_6 C33_6 1_555 1_555
H21_6 C33_6 1_555 1_555
H22_6 C33_6 1_555 1_555
O20_6 Tb3_4 1_555 1_555
N2_6 C64_6 1_555 1_555
C64_6 O20_6 1_555 1_555
H38_6 C64_6 1_555 1_555
C65_6 N2_6 1_555 1_555
H39_6 C65_6 1_555 1_555
H40_6 C65_6 1_555 1_555
H41_6 C65_6 1_555 1_555
C66_6 N2_6 1_555 1_555
H42_6 C66_6 1_555 1_555
H43_6 C66_6 1_555 1_555
H44_6 C66_6 1_555 1_555
O22_6 Tb3_4 1_555 1_555
O23_6 Tb3_4 1_555 1_555
O28_6 Tb3_4 1_555 1_555
C5_6 C6_6 1_555 1_555
C28_6 C29_6 1_555 1_555
H26_7 C42_7 1_555 1_555
C43_7 C42_7 1_555 1_555
H27_7 C43_7 1_555 1_555
O26_6 C63_7 1_555 1_555
H35_7 C59_7 1_555 1_555
O10_7 Tb4 1_555 1_555
N1_7 C31_7 1_555 1_555
C31_7 O10_7 1_555 1_555
H16_7 C31_7 1_555 1_555
C32_7 N1_7 1_555 1_555
H17_7 C32_7 1_555 1_555
H18_7 C32_7 1_555 1_555
H19_7 C32_7 1_555 1_555
C33_7 N1_7 1_555 1_555
H20_7 C33_7 1_555 1_555
H21_7 C33_7 1_555 1_555
H22_7 C33_7 1_555 1_555
O12_4 C47_7 1_555 1_555
O13_7 Tb7 1_555 1_555
C45_7 C44_7 1_555 1_555
H28_7 C45_7 1_555 1_555
C47_7 O13_7 1_555 1_555
Tb4_3 O12_4 1_555 1_555
C44_7 C47_7 1_555 1_555
C45_7 C46_7 1_555 1_555
O4_7 C15_7 1_555 1_555
O23_6 C22_7 1_555 1_555
O25_6 C22_7 1_555 1_555
C4_7 C3_7 1_555 1_555
H2_7 C4_7 1_555 1_555
C15_7 C3_7 1_555 1_555
C16_7 C15_7 1_555 1_555
C17_7 C16_7 1_555 1_555
H8_7 C17_7 1_555 1_555
C18_7 C17_7 1_555 1_555
H9_7 C18_7 1_555 1_555
C19_7 C18_7 1_555 1_555
C20_7 C19_7 1_555 1_555
H10_7 C20_7 1_555 1_555
C21_7 C16_7 1_555 1_555
H11_7 C21_7 1_555 1_555
C22_7 C19_7 1_555 1_555
O17_7 C56_7 1_555 1_555
C34_7 C35_7 1_555 1_555
C35_7 H23_7 1_555 1_555
C39_7 C34_7 1_555 1_555
H25_7 C39_7 1_555 1_555
C40_7 C34_7 1_555 1_555
C41_7 C40_7 1_555 1_555
C56_7 C38_7 1_555 1_555
C57_7 C56_7 1_555 1_555
C58_7 C57_7 1_555 1_555
C61_7 C60_7 1_555 1_555
H36_7 C61_7 1_555 1_555
C62_7 C57_7 1_555 1_555
H37_7 C62_7 1_555 1_555
C20_7 C21_7 1_555 1_555
C38_7 C39_7 1_555 1_555
C61_7 C62_7 1_555 1_555
Tb4_2 O2_7 1_555 1_555
Tb7_2 O3_7 1_555 1_555
O2_7 C14_7 1_555 1_555
O3_7 C14_7 1_555 1_555
C12_7 C11_7 1_555 1_555
H6_7 C12_7 1_555 1_555
C14_7 C11_7 1_555 1_555
C12_7 C13_7 1_555 1_555
O7_7 C23_7 1_555 1_555
C1_7 C2_7 1_555 1_555
C2_7 H1_7 1_555 1_555
C6_7 C1_7 1_555 1_555
H3_7 C6_7 1_555 1_555
C7_7 C1_7 1_555 1_555
C8_7 C7_7 1_555 1_555
C23_7 C5_7 1_555 1_555
C24_7 C23_7 1_555 1_555
C25_7 C24_7 1_555 1_555
C28_7 C27_7 1_555 1_555
H14_7 C28_7 1_555 1_555
C29_7 C24_7 1_555 1_555
H15_7 C29_7 1_555 1_555
O14_7 C48_7 1_555 1_555
O23_5 C55_7 1_555 1_555
O25_5 C55_7 1_555 1_555
C37_7 C36_7 1_555 1_555
H24_7 C37_7 1_555 1_555
C48_7 C36_7 1_555 1_555
C49_7 C48_7 1_555 1_555
C50_7 C49_7 1_555 1_555
H30_7 C50_7 1_555 1_555
C51_7 C50_7 1_555 1_555
H31_7 C51_7 1_555 1_555
C52_7 C51_7 1_555 1_555
C53_7 C52_7 1_555 1_555
H32_7 C53_7 1_555 1_555
C54_7 C49_7 1_555 1_555
H33_7 C54_7 1_555 1_555
C55_7 C52_7 1_555 1_555
C5_7 C6_7 1_555 1_555
C28_7 C29_7 1_555 1_555
C53_7 C54_7 1_555 1_555
H4_7 C9_7 1_555 1_555
C10_7 C9_7 1_555 1_555
H5_7 C10_7 1_555 1_555
O20_7 Tb4_4 1_555 1_555
N2_7 C64_7 1_555 1_555
C64_7 O20_7 1_555 1_555
H38_7 C64_7 1_555 1_555
C65_7 N2_7 1_555 1_555
H39_7 C65_7 1_555 1_555
H40_7 C65_7 1_555 1_555
H41_7 C65_7 1_555 1_555
C66_7 N2_7 1_555 1_555
H42_7 C66_7 1_555 1_555
H43_7 C66_7 1_555 1_555
H44_7 C66_7 1_555 1_555
O26_5 C30_7 1_555 1_555
H13_7 C26_7 1_555 1_555
Tb5 O2_8 1_555 1_555
Tb9 O3_8 1_555 1_555
O2_8 C14_8 1_555 1_555
O3_8 C14_8 1_555 1_555
O10_8 Tb5 1_555 1_555
N1_8 C31_8 1_555 1_555
H4_8 C9_8 1_555 1_555
C10_8 C9_8 1_555 1_555
H5_8 C10_8 1_555 1_555
C11_8 C10_8 1_555 1_555
C12_8 C11_8 1_555 1_555
H6_8 C12_8 1_555 1_555
C14_8 C11_8 1_555 1_555
C31_8 O10_8 1_555 1_555
H16_8 C31_8 1_555 1_555
C32_8 N1_8 1_555 1_555
H17_8 C32_8 1_555 1_555
H18_8 C32_8 1_555 1_555
H19_8 C32_8 1_555 1_555
C33_8 N1_8 1_555 1_555
H20_8 C33_8 1_555 1_555
H21_8 C33_8 1_555 1_555
H22_8 C33_8 1_555 1_555
O20_8 Tb5 1_555 1_555
N2_8 C64_8 1_555 1_555
C64_8 O20_8 1_555 1_555
H38_8 C64_8 1_555 1_555
C65_8 N2_8 1_555 1_555
H39_8 C65_8 1_555 1_555
H40_8 C65_8 1_555 1_555
H41_8 C65_8 1_555 1_555
C66_8 N2_8 1_555 1_555
H42_8 C66_8 1_555 1_555
H43_8 C66_8 1_555 1_555
H44_8 C66_8 1_555 1_555
O21_4 Tb5 1_555 1_555
C12_8 C13_8 1_555 1_555
O1_8 C7_8 1_555 1_555
O4_8 C15_8 1_555 1_555
O24_6 C22_8 1_555 1_555
O7_8 C23_8 1_555 1_555
O27_5 C30_8 1_555 1_555
O30_3 C30_8 1_555 1_555
C1_8 C2_8 1_555 1_555
C2_8 H1_8 1_555 1_555
C3_8 C2_8 1_555 1_555
C4_8 C3_8 1_555 1_555
H2_8 C4_8 1_555 1_555
C5_8 C4_8 1_555 1_555
C6_8 C1_8 1_555 1_555
H3_8 C6_8 1_555 1_555
C7_8 C1_8 1_555 1_555
C8_8 C7_8 1_555 1_555
C15_8 C3_8 1_555 1_555
C16_8 C15_8 1_555 1_555
C20_8 C19_8 1_555 1_555
H10_8 C20_8 1_555 1_555
C21_8 C16_8 1_555 1_555
H11_8 C21_8 1_555 1_555
C22_8 C19_8 1_555 1_555
C23_8 C5_8 1_555 1_555
C24_8 C23_8 1_555 1_555
C25_8 C24_8 1_555 1_555
H12_8 C25_8 1_555 1_555
C26_8 C25_8 1_555 1_555
H13_8 C26_8 1_555 1_555
C27_8 C26_8 1_555 1_555
C28_8 C27_8 1_555 1_555
H14_8 C28_8 1_555 1_555
C29_8 C24_8 1_555 1_555
H15_8 C29_8 1_555 1_555
C30_8 C27_8 1_555 1_555
H30_8 C50_8 1_555 1_555
C51_8 C50_8 1_555 1_555
H31_8 C51_8 1_555 1_555
C5_8 C6_8 1_555 1_555
C20_8 C21_8 1_555 1_555
C28_8 C29_8 1_555 1_555
O21_4 C47_8 1_555 1_555
O13_8 Tb9_2 1_555 1_555
H26_8 C42_8 1_555 1_555
C43_8 C42_8 1_555 1_555
H27_8 C43_8 1_555 1_555
C44_8 C43_8 1_555 1_555
C45_8 C44_8 1_555 1_555
H28_8 C45_8 1_555 1_555
C47_8 O13_8 1_555 1_555
C44_8 C47_8 1_555 1_555
C45_8 C46_8 1_555 1_555
H8_8 C17_8 1_555 1_555
C18_8 C17_8 1_555 1_555
H9_8 C18_8 1_555 1_555
O11_8 C40_8 1_555 1_555
O14_8 C48_8 1_555 1_555
O24_5 C55_8 1_555 1_555
O17_8 C56_8 1_555 1_555
O27_6 C63_8 1_555 1_555
O29_3 C63_8 1_555 1_555
C34_8 C35_8 1_555 1_555
C35_8 H23_8 1_555 1_555
C36_8 C35_8 1_555 1_555
C37_8 C36_8 1_555 1_555
H24_8 C37_8 1_555 1_555
C38_8 C37_8 1_555 1_555
C39_8 C34_8 1_555 1_555
H25_8 C39_8 1_555 1_555
C40_8 C34_8 1_555 1_555
C41_8 C40_8 1_555 1_555
C48_8 C36_8 1_555 1_555
C49_8 C48_8 1_555 1_555
C53_8 C52_8 1_555 1_555
H32_8 C53_8 1_555 1_555
C54_8 C49_8 1_555 1_555
H33_8 C54_8 1_555 1_555
C55_8 C52_8 1_555 1_555
C56_8 C38_8 1_555 1_555
C57_8 C56_8 1_555 1_555
C58_8 C57_8 1_555 1_555
H34_8 C58_8 1_555 1_555
C59_8 C58_8 1_555 1_555
H35_8 C59_8 1_555 1_555
C60_8 C59_8 1_555 1_555
C61_8 C60_8 1_555 1_555
H36_8 C61_8 1_555 1_555
C62_8 C57_8 1_555 1_555
H37_8 C62_8 1_555 1_555
C63_8 C60_8 1_555 1_555
C38_8 C39_8 1_555 1_555
C53_8 C54_8 1_555 1_555
C61_8 C62_8 1_555 1_555

#END
