
###############################################################################
#
# This file contains modified crystal structure data generated from the
# MOF subset of the Cambridge Structural Database (CSD) v543 
# hosted by the Cambridge Crystallographic Data Centre (CCDC).
#
# This work is licensed under the Creative Commons
# Attribution-NonCommercial-ShareAlike 4.0 International License.
# To view a copy of this license, visit
# http://creativecommons.org/licenses/by-nc-sa/4.0/
# or send a letter to
# Creative Commons, PO Box 1866, Mountain View, CA 94042, USA.
#
# CIF created using the CSD Python API on 29 September 2022
# The structure has been converted into the P1 space group
# The structure has a 3D framework
# The original CSD entry TOTVOP is in the monoclinic crystal system
# The framework has been calculated to contain at least 10.0% void space
# The void calculation uses a probe of radius 1.32A, grid spacing 0.4
#
###############################################################################

data_TOTVOP
_chemical_formula_moiety         '(C72 H48 N40 O32 Zn14)n'
_symmetry_cell_setting           triclinic
_symmetry_space_group_name_H-M   'P 1'
_symmetry_Int_Tables_number      1
_space_group_name_Hall           'P 1'
loop_
_symmetry_equiv_pos_site_id
_symmetry_equiv_pos_as_xyz
1 x,y,z
_cell_length_a                   25.319(5)
_cell_length_b                   14.309(3)
_cell_length_c                   7.0137(14)
_cell_angle_alpha                90
_cell_angle_beta                 96.379(3)
_cell_angle_gamma                90
_cell_volume                     2525.26
loop_
_atom_site_label
_atom_site_type_symbol
_atom_site_fract_x
_atom_site_fract_y
_atom_site_fract_z
Zn5 Zn -0.0000 0.41576(4) 0.2500
Zn6 Zn 0.150262(15) 0.71408(3) 0.16257(6)
Zn1 Zn 0.0000 0.58424(4) 0.7500
N1 N 0.20531(11) 0.60864(19) 0.1351(4)
C1 C 0.22688(14) 0.4464(2) 0.1269(5)
H1 H 0.2152 0.3850 0.1115
C2 C 0.29544(14) 0.5577(2) 0.1799(5)
H2 H 0.3313 0.5733 0.1985
C3 C 0.25783(14) 0.6269(2) 0.1664(5)
H3 H 0.2689 0.6888 0.1793
C4 C 0.19077(14) 0.5189(2) 0.1105(5)
H4 H 0.1549 0.5050 0.0813
C5 C 0.28050(13) 0.4654(2) 0.1660(5)
C6 C 0.32068(14) 0.3877(3) 0.2012(5)
O1 O 0.36808(11) 0.40553(19) 0.2205(5)
O2 O 0.30106(10) 0.30555(17) 0.2117(4)
N2 N 0.04130(10) 0.59790(18) 0.5046(4)
N3 N 0.04886(10) 0.53470(18) 0.3668(4)
N4 N 0.08294(11) 0.56629(18) 0.2575(4)
C7 C 0.07259(12) 0.6702(2) 0.4731(5)
N5 N 0.09917(10) 0.65237(18) 0.3233(4)
O3 O 0.05781(9) 0.67617(17) 0.8802(3)
O4 O 0.13186(9) 0.75838(16) 0.8996(3)
C8 C 0.07895(14) 0.7552(2) 0.5966(5)
H5 H 0.0469 0.7927 0.5770
H6 H 0.1083 0.7925 0.5607
C9 C 0.08957(13) 0.7279(2) 0.8067(5)
Zn9 Zn 0.349738(15) 0.21408(3) 0.33743(6)
O10 O 0.19894(10) 0.80555(17) 0.2883(4)
N12 N 0.04886(10) 0.46530(18) 0.8668(4)
Zn3 Zn 0.849738(15) 0.71408(3) 0.33743(6)
N6 N 0.79469(11) 0.60864(19) 0.3649(4)
C10 C 0.77312(14) 0.4464(2) 0.3731(5)
H7 H 0.7848 0.3850 0.3885
C11 C 0.70456(14) 0.5577(2) 0.3201(5)
H8 H 0.6687 0.5733 0.3015
C12 C 0.74217(14) 0.6269(2) 0.3336(5)
H9 H 0.7311 0.6888 0.3207
C13 C 0.80923(14) 0.5189(2) 0.3895(5)
H10 H 0.8451 0.5050 0.4187
C14 C 0.71950(13) 0.4654(2) 0.3340(5)
C15 C 0.67932(14) 0.3877(3) 0.2988(5)
O5 O 0.63192(11) 0.40553(19) 0.2795(5)
O6 O 0.69894(10) 0.30555(17) 0.2883(4)
N8 N 0.95114(10) 0.53470(18) 0.1332(4)
N9 N 0.91706(11) 0.56629(18) 0.2425(4)
C16 C 0.92741(12) 0.6702(2) 0.0269(5)
N10 N 0.90083(10) 0.65237(18) 0.1767(4)
Zn5_2 Zn 1.0000 0.41576(4) 0.2500
Zn8 Zn 0.650262(15) 0.21408(3) 0.16257(6)
O9 O 0.80106(10) 0.80555(17) 0.2117(4)
O12 O 0.86814(9) 0.75838(16) 0.6004(3)
Zn1_2 Zn 1.0000 0.58424(4) 0.7500
N7 N 0.95870(10) 0.59790(18) 0.9954(4)
O7 O 0.94219(9) 0.67617(17) 0.6198(3)
C17 C 0.92105(14) 0.7552(2) 0.9034(5)
H11 H 0.9531 0.7927 0.9230
H12 H 0.8917 0.7925 0.9393
C18 C 0.91043(13) 0.7279(2) 0.6933(5)
N11 N 0.95114(10) 0.46530(18) 0.6332(4)
N6_2 N 0.29469(11) 0.10864(19) 0.3649(4)
C11_2 C 0.20456(14) 0.0577(2) 0.3201(5)
H8_2 H 0.1687 0.0733 0.3015
C12_2 C 0.24217(14) 0.1269(2) 0.3336(5)
H9_2 H 0.2311 0.1888 0.3207
C13_2 C 0.30923(14) 0.0189(2) 0.3895(5)
H10_2 H 0.3451 0.0050 0.4187
N8_2 N 0.45114(10) 0.03470(18) 0.1332(4)
N9_2 N 0.41706(11) 0.06629(18) 0.2425(4)
C16_2 C 0.42741(12) 0.1702(2) 0.0269(5)
N10_2 N 0.40083(10) 0.15237(18) 0.1767(4)
O12_2 O 0.36814(9) 0.25838(16) 0.6004(3)
Zn1_3 Zn 0.5000 0.08424(4) 0.7500
N1_2 N 0.70531(11) 0.10864(19) 0.1351(4)
C2_2 C 0.79544(14) 0.0577(2) 0.1799(5)
H2_2 H 0.8313 0.0733 0.1985
C3_2 C 0.75783(14) 0.1269(2) 0.1664(5)
H3_2 H 0.7689 0.1888 0.1793
C4_2 C 0.69077(14) 0.0189(2) 0.1105(5)
H4_2 H 0.6549 0.0050 0.0813
N2_2 N 0.54130(10) 0.09790(18) 0.5046(4)
N3_2 N 0.54886(10) 0.03470(18) 0.3668(4)
N4_2 N 0.58294(11) 0.06629(18) 0.2575(4)
C7_2 C 0.57259(12) 0.1702(2) 0.4731(5)
N5_2 N 0.59917(10) 0.15237(18) 0.3233(4)
O3_2 O 0.55781(9) 0.17617(17) 0.8802(3)
O4_2 O 0.63186(9) 0.25838(16) 0.8996(3)
C8_2 C 0.57895(14) 0.2552(2) 0.5966(5)
H5_2 H 0.5469 0.2927 0.5770
H6_2 H 0.6083 0.2925 0.5607
C9_2 C 0.58957(13) 0.2279(2) 0.8067(5)
N7_2 N 0.45870(10) 0.09790(18) 0.9954(4)
O7_2 O 0.44219(9) 0.17617(17) 0.6198(3)
C17_2 C 0.42105(14) 0.2552(2) 0.9034(5)
H11_2 H 0.4531 0.2927 0.9230
H12_2 H 0.3917 0.2925 0.9393
C18_2 C 0.41043(13) 0.2279(2) 0.6933(5)
C10_2 C 0.27312(14) 0.9464(2) 0.3731(5)
H7_2 H 0.2848 0.8850 0.3885
C14_2 C 0.21950(13) 0.9654(2) 0.3340(5)
C15_2 C 0.17932(14) 0.8877(3) 0.2988(5)
O5_2 O 0.13192(11) 0.90553(19) 0.2795(5)
Zn5_3 Zn 0.5000 0.91576(4) 0.2500
C1_2 C 0.72688(14) 0.9464(2) 0.1269(5)
H1_2 H 0.7152 0.8850 0.1115
C5_2 C 0.78050(13) 0.9654(2) 0.1660(5)
C6_2 C 0.82068(14) 0.8877(3) 0.2012(5)
O1_2 O 0.86808(11) 0.90553(19) 0.2205(5)
N11_2 N 0.45114(10) 0.96530(18) 0.6332(4)
N12_2 N 0.54886(10) 0.96530(18) 0.8668(4)
N7_3 N 0.04130(10) 0.40210(18) 0.0046(4)
O7_3 O 0.05781(9) 0.32383(17) 0.3802(3)
O8 O 0.13186(9) 0.24162(16) 0.3996(3)
C17_3 C 0.07895(14) 0.2448(2) 0.0966(5)
H11_3 H 0.0469 0.2073 0.0770
H12_3 H 0.1083 0.2075 0.0607
C18_3 C 0.08957(13) 0.2721(2) 0.3067(5)
Zn7 Zn 0.150262(15) 0.28592(3) 0.66257(6)
N6_3 N 0.20531(11) 0.39136(19) 0.6351(4)
C10_3 C 0.22688(14) 0.5536(2) 0.6269(5)
H7_3 H 0.2152 0.6150 0.6115
C11_3 C 0.29544(14) 0.4423(2) 0.6799(5)
H8_3 H 0.3313 0.4267 0.6985
C12_3 C 0.25783(14) 0.3731(2) 0.6664(5)
H9_3 H 0.2689 0.3112 0.6793
C13_3 C 0.19077(14) 0.4811(2) 0.6105(5)
H10_3 H 0.1549 0.4950 0.5813
C14_3 C 0.28050(13) 0.5346(2) 0.6660(5)
C15_3 C 0.32068(14) 0.6123(3) 0.7012(5)
O5_3 O 0.36808(11) 0.59447(19) 0.7205(5)
O6_2 O 0.30106(10) 0.69445(17) 0.7117(4)
N9_3 N 0.08294(11) 0.43371(18) 0.7575(4)
C16_3 C 0.07259(12) 0.3298(2) 0.9731(5)
N10_3 N 0.09917(10) 0.34763(18) 0.8233(4)
Zn8_2 Zn 0.349738(15) 0.78592(3) 0.83743(6)
O9_2 O 0.19894(10) 0.19445(17) 0.7883(4)
O11 O 0.86814(9) 0.24162(16) 0.1004(3)
Zn2 Zn 0.849738(15) 0.28592(3) 0.83743(6)
N1_3 N 0.79469(11) 0.39136(19) 0.8649(4)
C1_3 C 0.77312(14) 0.5536(2) 0.8731(5)
H1_3 H 0.7848 0.6150 0.8885
C2_3 C 0.70456(14) 0.4423(2) 0.8201(5)
H2_3 H 0.6687 0.4267 0.8015
C3_3 C 0.74217(14) 0.3731(2) 0.8336(5)
H3_3 H 0.7311 0.3112 0.8207
C4_3 C 0.80923(14) 0.4811(2) 0.8895(5)
H4_3 H 0.8451 0.4950 0.9187
C5_3 C 0.71950(13) 0.5346(2) 0.8340(5)
C6_3 C 0.67932(14) 0.6123(3) 0.7988(5)
O1_3 O 0.63192(11) 0.59447(19) 0.7795(5)
O2_2 O 0.69894(10) 0.69445(17) 0.7883(4)
N2_3 N 0.95870(10) 0.40210(18) 0.4954(4)
N4_3 N 0.91706(11) 0.43371(18) 0.7425(4)
C7_3 C 0.92741(12) 0.3298(2) 0.5269(5)
N5_3 N 0.90083(10) 0.34763(18) 0.6767(4)
O3_3 O 0.94219(9) 0.32383(17) 0.1198(3)
C8_3 C 0.92105(14) 0.2448(2) 0.4034(5)
H5_3 H 0.9531 0.2073 0.4230
H6_3 H 0.8917 0.2075 0.4393
C9_3 C 0.91043(13) 0.2721(2) 0.1933(5)
Zn9_2 Zn 0.650262(15) 0.78592(3) 0.66257(6)
O10_2 O 0.80106(10) 0.19445(17) 0.7117(4)
C1_4 C 0.27312(14) 0.0536(2) 0.8731(5)
H1_4 H 0.2848 0.1150 0.8885
C5_4 C 0.21950(13) 0.0346(2) 0.8340(5)
C6_4 C 0.17932(14) 0.1123(3) 0.7988(5)
O1_4 O 0.13192(11) 0.09447(19) 0.7795(5)
C10_4 C 0.72688(14) 0.0536(2) 0.6269(5)
H7_4 H 0.7152 0.1150 0.6115
C14_4 C 0.78050(13) 0.0346(2) 0.6660(5)
C15_4 C 0.82068(14) 0.1123(3) 0.7012(5)
O5_4 O 0.86808(11) 0.09447(19) 0.7205(5)
O11_2 O 0.36814(9) 0.74162(16) 0.1004(3)
N1_4 N 0.29469(11) 0.89136(19) 0.8649(4)
C2_4 C 0.20456(14) 0.9423(2) 0.8201(5)
H2_4 H 0.1687 0.9267 0.8015
C3_4 C 0.24217(14) 0.8731(2) 0.8336(5)
H3_4 H 0.2311 0.8112 0.8207
C4_4 C 0.30923(14) 0.9811(2) 0.8895(5)
H4_4 H 0.3451 0.9950 0.9187
N2_4 N 0.45870(10) 0.90210(18) 0.4954(4)
N4_4 N 0.41706(11) 0.93371(18) 0.7425(4)
C7_4 C 0.42741(12) 0.8298(2) 0.5269(5)
N5_4 N 0.40083(10) 0.84763(18) 0.6767(4)
O3_4 O 0.44219(9) 0.82383(17) 0.1198(3)
C8_4 C 0.42105(14) 0.7448(2) 0.4034(5)
H5_4 H 0.4531 0.7073 0.4230
H6_4 H 0.3917 0.7075 0.4393
C9_4 C 0.41043(13) 0.7721(2) 0.1933(5)
N7_4 N 0.54130(10) 0.90210(18) 0.0046(4)
O7_4 O 0.55781(9) 0.82383(17) 0.3802(3)
O8_2 O 0.63186(9) 0.74162(16) 0.3996(3)
C17_4 C 0.57895(14) 0.7448(2) 0.0966(5)
H11_4 H 0.5469 0.7073 0.0770
H12_4 H 0.6083 0.7075 0.0607
C18_4 C 0.58957(13) 0.7721(2) 0.3067(5)
N6_4 N 0.70531(11) 0.89136(19) 0.6351(4)
C11_4 C 0.79544(14) 0.9423(2) 0.6799(5)
H8_4 H 0.8313 0.9267 0.6985
C12_4 C 0.75783(14) 0.8731(2) 0.6664(5)
H9_4 H 0.7689 0.8112 0.6793
C13_4 C 0.69077(14) 0.9811(2) 0.6105(5)
H10_4 H 0.6549 0.9950 0.5813
N9_4 N 0.58294(11) 0.93371(18) 0.7575(4)
C16_4 C 0.57259(12) 0.8298(2) 0.9731(5)
N10_4 N 0.59917(10) 0.84763(18) 0.8233(4)
loop_
_geom_bond_atom_site_label_1
_geom_bond_atom_site_label_2
_geom_bond_site_symmetry_1
_geom_bond_site_symmetry_2
Zn1 N2 1_555 1_555
Zn6 N1 1_555 1_555
N1 C3 1_555 1_555
C1 H1 1_555 1_555
C2 H2 1_555 1_555
C3 C2 1_555 1_555
H3 C3 1_555 1_555
C4 N1 1_555 1_555
H4 C4 1_555 1_555
C5 C1 1_555 1_555
C6 C5 1_555 1_555
O1 C6 1_555 1_555
O2 C6 1_555 1_555
N2 N3 1_555 1_555
N3 N4 1_555 1_555
N4 N5 1_555 1_555
C7 N2 1_555 1_555
N5 Zn6 1_555 1_555
O3 Zn1 1_555 1_555
O4 C9 1_555 1_555
C8 C7 1_555 1_555
H5 C8 1_555 1_555
H6 C8 1_555 1_555
C9 O3 1_555 1_555
Zn5 N3 1_555 1_555
Zn9 O2 1_555 1_555
O10 Zn6 1_555 1_555
N12 Zn1 1_555 1_555
C1 C4 1_555 1_555
C2 C5 1_555 1_555
C7 N5 1_555 1_555
C8 C9 1_555 1_555
Zn3 N6 1_555 1_555
N6 C12 1_555 1_555
C10 H7 1_555 1_555
C11 H8 1_555 1_555
C12 C11 1_555 1_555
H9 C12 1_555 1_555
C13 N6 1_555 1_555
H10 C13 1_555 1_555
C14 C10 1_555 1_555
C15 C14 1_555 1_555
O5 C15 1_555 1_555
O6 C15 1_555 1_555
N9 N8 1_555 1_555
N10 Zn3 1_555 1_555
Zn5_2 N8 1_555 1_555
Zn8 O6 1_555 1_555
O9 Zn3 1_555 1_555
O12 Zn3 1_555 1_555
C10 C13 1_555 1_555
C11 C14 1_555 1_555
N9 N10 1_555 1_555
C16 N10 1_555 1_555
N7 Zn1_2 1_555 1_555
O7 Zn1_2 1_555 1_555
O12 C18 1_555 1_555
H11 C17 1_555 1_555
H12 C17 1_555 1_555
C18 O7 1_555 1_555
N11 Zn1_2 1_555 1_555
C17 C18 1_555 1_555
Zn9 N6_2 1_555 1_555
N6_2 C12_2 1_555 1_555
C11_2 H8_2 1_555 1_555
C12_2 C11_2 1_555 1_555
H9_2 C12_2 1_555 1_555
C13_2 N6_2 1_555 1_555
H10_2 C13_2 1_555 1_555
N9_2 N8_2 1_555 1_555
N10_2 Zn9 1_555 1_555
O12_2 Zn9 1_555 1_555
N9_2 N10_2 1_555 1_555
C16_2 N10_2 1_555 1_555
Zn1_3 N2_2 1_555 1_555
Zn8 N1_2 1_555 1_555
N1_2 C3_2 1_555 1_555
C2_2 H2_2 1_555 1_555
C3_2 C2_2 1_555 1_555
H3_2 C3_2 1_555 1_555
C4_2 N1_2 1_555 1_555
H4_2 C4_2 1_555 1_555
N2_2 N3_2 1_555 1_555
N3_2 N4_2 1_555 1_555
N4_2 N5_2 1_555 1_555
C7_2 N2_2 1_555 1_555
N5_2 Zn8 1_555 1_555
O3_2 Zn1_3 1_555 1_555
O4_2 C9_2 1_555 1_555
C8_2 C7_2 1_555 1_555
H5_2 C8_2 1_555 1_555
H6_2 C8_2 1_555 1_555
C9_2 O3_2 1_555 1_555
N7_2 Zn1_3 1_555 1_555
O7_2 Zn1_3 1_555 1_555
O12_2 C18_2 1_555 1_555
H11_2 C17_2 1_555 1_555
H12_2 C17_2 1_555 1_555
C18_2 O7_2 1_555 1_555
C7_2 N5_2 1_555 1_555
C8_2 C9_2 1_555 1_555
C17_2 C18_2 1_555 1_555
C10_2 H7_2 1_555 1_555
C14_2 C10_2 1_555 1_555
C15_2 C14_2 1_555 1_555
O5_2 C15_2 1_555 1_555
O10 C15_2 1_555 1_555
C1_2 H1_2 1_555 1_555
C5_2 C1_2 1_555 1_555
C6_2 C5_2 1_555 1_555
O1_2 C6_2 1_555 1_555
O9 C6_2 1_555 1_555
N7_3 Zn5 1_555 1_555
O7_3 Zn5 1_555 1_555
O8 C18_3 1_555 1_555
H11_3 C17_3 1_555 1_555
H12_3 C17_3 1_555 1_555
C18_3 O7_3 1_555 1_555
Zn7 O8 1_555 1_555
C17_3 C18_3 1_555 1_555
Zn7 N6_3 1_555 1_555
N6_3 C12_3 1_555 1_555
C10_3 H7_3 1_555 1_555
C11_3 H8_3 1_555 1_555
C12_3 C11_3 1_555 1_555
H9_3 C12_3 1_555 1_555
C13_3 N6_3 1_555 1_555
H10_3 C13_3 1_555 1_555
C14_3 C10_3 1_555 1_555
C15_3 C14_3 1_555 1_555
O5_3 C15_3 1_555 1_555
O6_2 C15_3 1_555 1_555
N9_3 N12 1_555 1_555
N10_3 Zn7 1_555 1_555
Zn8_2 O6_2 1_555 1_555
O9_2 Zn7 1_555 1_555
C10_3 C13_3 1_555 1_555
C11_3 C14_3 1_555 1_555
N9_3 N10_3 1_555 1_555
C16_3 N10_3 1_555 1_555
Zn5_2 N2_3 1_555 1_555
Zn2 N1_3 1_555 1_555
N1_3 C3_3 1_555 1_555
C1_3 H1_3 1_555 1_555
C2_3 H2_3 1_555 1_555
C3_3 C2_3 1_555 1_555
H3_3 C3_3 1_555 1_555
C4_3 N1_3 1_555 1_555
H4_3 C4_3 1_555 1_555
C5_3 C1_3 1_555 1_555
C6_3 C5_3 1_555 1_555
O1_3 C6_3 1_555 1_555
O2_2 C6_3 1_555 1_555
N2_3 N11 1_555 1_555
N11 N4_3 1_555 1_555
N4_3 N5_3 1_555 1_555
C7_3 N2_3 1_555 1_555
N5_3 Zn2 1_555 1_555
O3_3 Zn5_2 1_555 1_555
O11 C9_3 1_555 1_555
C8_3 C7_3 1_555 1_555
H5_3 C8_3 1_555 1_555
H6_3 C8_3 1_555 1_555
C9_3 O3_3 1_555 1_555
Zn9_2 O2_2 1_555 1_555
O10_2 Zn2 1_555 1_555
C1_3 C4_3 1_555 1_555
C2_3 C5_3 1_555 1_555
C7_3 N5_3 1_555 1_555
C8_3 C9_3 1_555 1_555
C1_4 H1_4 1_555 1_555
C5_4 C1_4 1_555 1_555
C6_4 C5_4 1_555 1_555
O1_4 C6_4 1_555 1_555
O9_2 C6_4 1_555 1_555
C10_4 H7_4 1_555 1_555
C14_4 C10_4 1_555 1_555
C15_4 C14_4 1_555 1_555
O5_4 C15_4 1_555 1_555
O10_2 C15_4 1_555 1_555
Zn5_3 N2_4 1_555 1_555
Zn8_2 N1_4 1_555 1_555
N1_4 C3_4 1_555 1_555
C2_4 H2_4 1_555 1_555
C3_4 C2_4 1_555 1_555
H3_4 C3_4 1_555 1_555
C4_4 N1_4 1_555 1_555
H4_4 C4_4 1_555 1_555
N2_4 N11_2 1_555 1_555
N11_2 N4_4 1_555 1_555
N4_4 N5_4 1_555 1_555
C7_4 N2_4 1_555 1_555
N5_4 Zn8_2 1_555 1_555
O3_4 Zn5_3 1_555 1_555
O11_2 C9_4 1_555 1_555
C8_4 C7_4 1_555 1_555
H5_4 C8_4 1_555 1_555
H6_4 C8_4 1_555 1_555
C9_4 O3_4 1_555 1_555
N7_4 Zn5_3 1_555 1_555
O7_4 Zn5_3 1_555 1_555
O8_2 C18_4 1_555 1_555
H11_4 C17_4 1_555 1_555
H12_4 C17_4 1_555 1_555
C18_4 O7_4 1_555 1_555
Zn9_2 O8_2 1_555 1_555
C7_4 N5_4 1_555 1_555
C8_4 C9_4 1_555 1_555
C17_4 C18_4 1_555 1_555
Zn9_2 N6_4 1_555 1_555
N6_4 C12_4 1_555 1_555
C11_4 H8_4 1_555 1_555
C12_4 C11_4 1_555 1_555
H9_4 C12_4 1_555 1_555
C13_4 N6_4 1_555 1_555
H10_4 C13_4 1_555 1_555
N9_4 N12_2 1_555 1_555
N10_4 Zn9_2 1_555 1_555
N9_4 N10_4 1_555 1_555
C16_4 N10_4 1_555 1_555

#END
