
###############################################################################
#
# This file contains modified crystal structure data generated from the
# MOF subset of the Cambridge Structural Database (CSD) v543 
# hosted by the Cambridge Crystallographic Data Centre (CCDC).
#
# This work is licensed under the Creative Commons
# Attribution-NonCommercial-ShareAlike 4.0 International License.
# To view a copy of this license, visit
# http://creativecommons.org/licenses/by-nc-sa/4.0/
# or send a letter to
# Creative Commons, PO Box 1866, Mountain View, CA 94042, USA.
#
# CIF created using the CSD Python API on 29 September 2022
# The structure has been converted into the P1 space group
# The structure has a 3D framework
# The original CSD entry TOVJIZ is in the monoclinic crystal system
# The framework has been calculated to contain at least 10.0% void space
# The void calculation uses a probe of radius 1.32A, grid spacing 0.4
# H atom positions have been added when not included in the experimental data
#
###############################################################################

data_TOVJIZ
_chemical_formula_moiety         '(C216 H144 Fe12 O72)n'
_symmetry_cell_setting           triclinic
_symmetry_space_group_name_H-M   'P 1'
_symmetry_Int_Tables_number      1
_space_group_name_Hall           'P 1'
loop_
_symmetry_equiv_pos_site_id
_symmetry_equiv_pos_as_xyz
1 x,y,z
_cell_length_a                   24.688(4)
_cell_length_b                   18.375(3)
_cell_length_c                   35.257(6)
_cell_angle_alpha                90
_cell_angle_beta                 90.345(2)
_cell_angle_gamma                90
_cell_volume                     15993.8
loop_
_atom_site_label
_atom_site_type_symbol
_atom_site_fract_x
_atom_site_fract_y
_atom_site_fract_z
O5 O 0.16149(10) 0.54916(11) 0.11210(6)
O6 O 0.23457(11) 0.50943(11) 0.14293(8)
O7 O 0.02642(15) 0.28932(14) 0.19393(11)
C3 C 0.1894(2) 0.50072(18) 0.12859(12)
C10 C 0.11369(14) 0.02214(14) 0.14237(10)
C11 C 0.17031(13) 0.01691(14) 0.14148(9)
H5 H 0.1917 0.0586 0.1470
C13 C 0.08876(12) 0.09168(14) 0.15555(9)
C14 C 0.04499(11) 0.09128(14) 0.18067(8)
H7 H 0.0299 0.0464 0.1888
C15 C 0.02345(12) 0.15717(15) 0.19381(8)
C16 C 0.04575(13) 0.22245(14) 0.18191(9)
C17 C 0.08919(13) 0.22329(14) 0.15677(9)
C18 C 0.11050(12) 0.15810(14) 0.14390(9)
H8 H 0.1403 0.1586 0.1269
H12 H 0.0201 0.2184 0.2611
C25 C 0.11450(14) 0.29310(15) 0.14454(9)
C26 C 0.08453(13) 0.35029(15) 0.12977(8)
H13 H 0.0470 0.3440 0.1245
C27 C 0.10939(14) 0.41721(15) 0.12257(9)
H14 H 0.0888 0.4563 0.1123
C28 C 0.16324(14) 0.42646(15) 0.13035(10)
C29 C 0.19424(13) 0.36928(15) 0.14513(10)
H15 H 0.2317 0.3759 0.1505
C30 C 0.16956(14) 0.30276(15) 0.15180(10)
H16 H 0.1904 0.2633 0.1614
Fe4 Fe 0.17181(2) 0.65951(2) 0.108720(14)
Fe8 Fe 0.25434(2) 0.59545(2) 0.174614(15)
Fe2 Fe 0.29304(2) 0.73408(2) 0.121374(14)
O1 O 0.16389(10) 0.76830(11) 0.10398(6)
O2 O 0.24175(11) 0.81835(10) 0.12217(7)
O8 O 0.20848(10) 0.64478(10) 0.05783(6)
O9 O 0.28094(10) 0.71668(12) 0.06651(7)
O15 O 0.10034(10) 0.65706(12) 0.07909(7)
O16 O 0.34901(10) 0.81058(12) 0.10559(7)
O17 O 0.26862(10) 0.52231(13) 0.21752(8)
O18 O 0.23818(8) 0.66408(9) 0.13471(6)
C1 C 0.19136(18) 0.82100(16) 0.11517(11)
C4 C 0.25330(17) 0.66972(19) 0.04818(10)
C7 C 0.16422(13) 0.89114(14) 0.12403(9)
C8 C 0.10814(13) 0.89500(14) 0.12495(8)
H3 H 0.0869 0.8533 0.1192
C9 C 0.08307(13) 0.96065(14) 0.13435(8)
H4 H 0.0447 0.9632 0.1353
C12 C 0.19580(13) 0.95126(14) 0.13255(9)
H6 H 0.2342 0.9480 0.1323
C31 C 0.27831(15) 0.64261(18) 0.01245(10)
C32 C 0.33348(14) 0.65401(16) 0.00656(9)
H17 H 0.3550 0.6769 0.0255
O19 O 0.17847(10) 0.59803(11) 0.19516(7)
O20 O 0.12819(8) 0.66880(11) 0.15795(6)
O23 O 0.27493(10) 0.67247(13) 0.21169(7)
O24 O 0.31252(10) 0.75857(13) 0.17458(7)
O25 O 0.33204(9) 0.57930(12) 0.16131(7)
O26 O 0.35529(9) 0.66316(12) 0.11850(7)
H31 H 0.105242 0.681151 0.0541344
H32 H 0.0890714 0.605738 0.0750985
H33 H 0.352152 0.848202 0.125702
H34 H 0.384714 0.78678 0.101949
H35 H 0.248365 0.476659 0.212333
H36 H 0.307992 0.511553 0.21902
O10 O 0.27493(10) 0.82753(13) 0.71169(7)
O11 O 0.31252(10) 0.74143(13) 0.67458(7)
O12 O 0.66796(9) 0.42070(12) 0.83869(7)
O13 O 0.64471(9) 0.33684(12) 0.88150(7)
O14 O 0.42032(19) 0.5079(4) 0.93813(14)
H2 H 0.4503 0.5268 0.9438
C5 C 0.29927(13) 0.7665(2) 0.70667(11)
C6 C 0.63581(14) 0.39198(19) 0.86258(11)
C33 C 0.35665(14) 0.63151(18) 0.97269(10)
H18 H 0.3942 0.6393 0.9686
C34 C 0.32603(15) 0.5982(2) 0.94501(10)
C35 C 0.27089(14) 0.58678(19) 0.95109(9)
H19 H 0.2493 0.5637 0.9322
C36 C 0.24777(14) 0.60920(19) 0.98476(10)
H20 H 0.2102 0.6014 0.9888
C37 C 0.35208(14) 0.58252(19) 0.90725(9)
C38 C 0.33159(13) 0.61357(18) 0.87460(9)
H21 H 0.2990 0.6410 0.8756
C39 C 0.35819(14) 0.60515(19) 0.83998(9)
C40 C 0.40612(14) 0.5648(2) 0.83955(9)
H22 H 0.4248 0.5592 0.8163
C41 C 0.42708(14) 0.5331(2) 0.87170(10)
C42 C 0.39900(15) 0.5422(2) 0.90571(10)
C43 C 0.33923(14) 0.6435(2) 0.80587(10)
C44 C 0.32011(12) 0.71492(19) 0.80857(10)
H23 H 0.3163 0.7365 0.8329
C45 C 0.30655(13) 0.75519(19) 0.77644(10)
H24 H 0.2934 0.8036 0.7788
C46 C 0.31242(15) 0.7238(2) 0.74073(10)
C47 C 0.33131(15) 0.6532(2) 0.73794(10)
H25 H 0.3356 0.6317 0.7136
C48 C 0.34391(15) 0.61372(19) 0.76983(10)
H26 H 0.3561 0.5650 0.7672
C49 C 0.48088(13) 0.49549(19) 0.87080(9)
C50 C 0.52116(13) 0.52701(18) 0.84904(8)
H27 H 0.5147 0.5718 0.8363
C51 C 0.57121(13) 0.49264(18) 0.84592(9)
H28 H 0.5988 0.5142 0.8310
C52 C 0.58129(13) 0.42723(19) 0.86440(10)
C53 C 0.54050(14) 0.39667(19) 0.88609(10)
H29 H 0.5468 0.3522 0.8991
C54 C 0.49052(14) 0.43066(19) 0.88891(10)
H30 H 0.4627 0.4088 0.9035
Fe6 Fe 0.70696(2) 0.26592(2) 0.878626(14)
Fe7 Fe 0.29304(2) 0.76592(2) 0.621374(14)
Fe10 Fe 0.74566(2) 0.40455(2) 0.825386(15)
Fe11 Fe 0.25434(2) 0.90455(2) 0.674614(15)
O3 O 0.82153(10) 0.09803(11) 0.30484(7)
O4 O 0.87181(8) 0.16880(11) 0.34205(6)
H1 H 0.9954 0.2841 0.2032
C2 C 0.86188(15) 0.13674(16) 0.31135(10)
C19 C 0.98019(12) 0.15439(14) 0.22346(9)
C20 C 0.93345(12) 0.11335(13) 0.21780(9)
H9 H 0.9278 0.0886 0.1945
C21 C 0.89502(12) 0.10874(14) 0.24654(9)
H10 H 0.8630 0.0810 0.2427
C22 C 0.90333(13) 0.14450(15) 0.28084(9)
C23 C 0.94937(13) 0.18543(15) 0.28625(9)
H11 H 0.9549 0.2104 0.3095
C24 C 0.98826(13) 0.19028(15) 0.25730(9)
Fe5 Fe 0.82819(2) 0.15951(2) 0.391280(14)
Fe9 Fe 0.74566(2) 0.09545(2) 0.325386(15)
H1_2 H 0.0046 0.7841 0.2968
C2_2 C 0.13812(15) 0.63674(16) 0.18865(10)
C19_2 C 0.01981(12) 0.65439(14) 0.27654(9)
C20_2 C 0.06655(12) 0.61335(13) 0.28220(9)
H9_2 H 0.0722 0.5886 0.3055
C21_2 C 0.10498(12) 0.60874(14) 0.25346(9)
H10_2 H 0.1370 0.5810 0.2573
C22_2 C 0.09667(13) 0.64450(15) 0.21916(9)
C23_2 C 0.05063(13) 0.68543(15) 0.21375(9)
H11_2 H 0.0451 0.7104 0.1905
C24_2 C 0.01174(13) 0.69028(15) 0.24270(9)
O5_2 O 0.83851(10) 0.04916(11) 0.38790(6)
O6_2 O 0.76543(11) 0.00943(11) 0.35707(8)
C3_2 C 0.8106(2) 0.00072(18) 0.37141(12)
Fe2_2 Fe 0.70696(2) 0.23408(2) 0.378626(14)
O1_2 O 0.83611(10) 0.26830(11) 0.39602(6)
O2_2 O 0.75825(11) 0.31835(10) 0.37783(7)
O7_2 O 0.97358(15) 0.78932(14) 0.30607(11)
O8_2 O 0.79152(10) 0.14478(10) 0.44217(6)
O9_2 O 0.71906(10) 0.21668(12) 0.43349(7)
O10_2 O 0.72507(10) 0.32753(13) 0.78831(7)
O11_2 O 0.68748(10) 0.24143(13) 0.82542(7)
O14_2 O 0.57968(19) 0.0079(4) 0.56187(14)
H2_2 H 0.5497 0.0268 0.5562
O15_2 O 0.89966(10) 0.15706(12) 0.42091(7)
O16_2 O 0.65099(10) 0.31058(12) 0.39441(7)
O17_2 O 0.73138(10) 0.02231(13) 0.28248(8)
O18_2 O 0.76182(8) 0.16408(9) 0.36529(6)
C1_2 C 0.80864(18) 0.32100(16) 0.38483(11)
C4_2 C 0.74670(17) 0.16972(19) 0.45182(10)
C5_2 C 0.70073(13) 0.2665(2) 0.79333(11)
C7_2 C 0.83578(13) 0.39114(14) 0.37597(9)
C8_2 C 0.89186(13) 0.39500(14) 0.37505(8)
H3_2 H 0.9131 0.3533 0.3808
C9_2 C 0.91693(13) 0.46065(14) 0.36565(8)
H4_2 H 0.9553 0.4632 0.3647
C10_2 C 0.88631(14) 0.52214(14) 0.35763(10)
C11_2 C 0.82969(13) 0.51691(14) 0.35852(9)
H5_2 H 0.8083 0.5586 0.3530
C12_2 C 0.80420(13) 0.45126(14) 0.36745(9)
H6_2 H 0.7658 0.4480 0.3677
C13_2 C 0.91124(12) 0.59168(14) 0.34445(9)
C14_2 C 0.95501(11) 0.59128(14) 0.31933(8)
H7_2 H 0.9701 0.5464 0.3112
C15_2 C 0.97655(12) 0.65717(15) 0.30619(8)
C16_2 C 0.95425(13) 0.72245(14) 0.31809(9)
C17_2 C 0.91081(13) 0.72329(14) 0.34323(9)
C18_2 C 0.88950(12) 0.65810(14) 0.35610(9)
H8_2 H 0.8597 0.6586 0.3731
H12_2 H 0.9799 0.7184 0.2389
C25_2 C 0.88550(14) 0.79310(15) 0.35546(9)
C26_2 C 0.91547(13) 0.85029(15) 0.37023(8)
H13_2 H 0.9530 0.8440 0.3755
C27_2 C 0.89061(14) 0.91721(15) 0.37743(9)
H14_2 H 0.9112 0.9563 0.3877
C28_2 C 0.83676(14) 0.92646(15) 0.36965(10)
C29_2 C 0.80576(13) 0.86928(15) 0.35487(10)
H15_2 H 0.7683 0.8759 0.3495
C30_2 C 0.83044(14) 0.80276(15) 0.34820(10)
H16_2 H 0.8096 0.7633 0.3386
C31_2 C 0.72169(15) 0.14261(18) 0.48755(10)
C32_2 C 0.66652(14) 0.15401(16) 0.49344(9)
H17_2 H 0.6450 0.1769 0.4745
C33_2 C 0.64335(14) 0.13151(18) 0.52731(10)
H18_2 H 0.6058 0.1393 0.5314
C34_2 C 0.67397(15) 0.0982(2) 0.55499(10)
C35_2 C 0.72911(14) 0.08678(19) 0.54891(9)
H19_2 H 0.7507 0.0637 0.5678
C36_2 C 0.75223(14) 0.10920(19) 0.51524(10)
H20_2 H 0.7898 0.1014 0.5112
C37_2 C 0.64792(14) 0.08252(19) 0.59275(9)
C38_2 C 0.66841(13) 0.11357(18) 0.62540(9)
H21_2 H 0.7010 0.1410 0.6244
C39_2 C 0.64181(14) 0.10515(19) 0.66002(9)
C40_2 C 0.59388(14) 0.0648(2) 0.66045(9)
H22_2 H 0.5752 0.0592 0.6837
C41_2 C 0.57292(14) 0.0331(2) 0.62830(10)
C42_2 C 0.60100(15) 0.0422(2) 0.59429(10)
C43_2 C 0.66077(14) 0.1435(2) 0.69413(10)
C44_2 C 0.67989(12) 0.21492(19) 0.69143(10)
H23_2 H 0.6837 0.2365 0.6671
C45_2 C 0.69345(13) 0.25519(19) 0.72356(10)
H24_2 H 0.7066 0.3036 0.7212
C46_2 C 0.68758(15) 0.2238(2) 0.75927(10)
C47_2 C 0.66869(15) 0.1532(2) 0.76206(10)
H25_2 H 0.6644 0.1317 0.7864
C48_2 C 0.65609(15) 0.11372(19) 0.73017(10)
H26_2 H 0.6439 0.0650 0.7328
C50_2 C 0.47884(13) 0.02701(18) 0.65096(8)
H27_2 H 0.4853 0.0718 0.6637
H28_2 H 0.4012 0.0142 0.6690
O23_2 O 0.72507(10) 0.17247(13) 0.28831(7)
O24_2 O 0.68748(10) 0.25857(13) 0.32542(7)
O25_2 O 0.66796(9) 0.07930(12) 0.33869(7)
O26_2 O 0.64471(9) 0.16316(12) 0.38150(7)
H31_2 H 0.894758 0.181151 0.445866
H32_2 H 0.910929 0.105738 0.424901
H33_2 H 0.647848 0.348202 0.374298
H34_2 H 0.615286 0.28678 0.398051
H36_2 H 0.692008 0.0115528 0.28098
O12_2 O 0.33204(9) 0.92070(12) 0.66131(7)
O13_2 O 0.35529(9) 0.83684(12) 0.61850(7)
C6_2 C 0.36419(14) 0.89198(19) 0.63742(11)
C49_2 C 0.51912(13) 0.99549(19) 0.62920(9)
C51_2 C 0.42879(13) 0.99264(18) 0.65408(9)
C52_2 C 0.41871(13) 0.92723(19) 0.63560(10)
C53_2 C 0.45950(14) 0.89667(19) 0.61391(10)
H29_2 H 0.4532 0.8522 0.6009
C54_2 C 0.50948(14) 0.93066(19) 0.61109(10)
H30_2 H 0.5373 0.9088 0.5965
H35_2 H 0.751635 0.976659 0.287667
O3_2 O 0.17847(10) 0.90197(11) 0.69516(7)
O4_2 O 0.12819(8) 0.83120(11) 0.65795(6)
H1_3 H 0.0046 0.7159 0.7968
C2_3 C 0.13812(15) 0.86326(16) 0.68865(10)
C19_3 C 0.01981(12) 0.84561(14) 0.77654(9)
C20_3 C 0.06655(12) 0.88665(13) 0.78220(9)
H9_3 H 0.0722 0.9114 0.8055
C21_3 C 0.10498(12) 0.89126(14) 0.75346(9)
H10_3 H 0.1370 0.9190 0.7573
C22_3 C 0.09667(13) 0.85550(15) 0.71916(9)
C23_3 C 0.05063(13) 0.81457(15) 0.71375(9)
H11_3 H 0.0451 0.7896 0.6905
C24_3 C 0.01174(13) 0.80972(15) 0.74270(9)
Fe5_2 Fe 0.17181(2) 0.84049(2) 0.608720(14)
O14_3 O 0.57968(19) 0.4921(4) 0.06187(14)
H2_3 H 0.5497 0.4732 0.0562
C5_3 C 0.70073(13) 0.2335(2) 0.29333(11)
C6_3 C 0.36419(14) 0.60802(19) 0.13742(11)
C33_3 C 0.64335(14) 0.36849(18) 0.02731(10)
H18_3 H 0.6058 0.3607 0.0314
C34_3 C 0.67397(15) 0.4018(2) 0.05499(10)
C35_3 C 0.72911(14) 0.41322(19) 0.04891(9)
H19_3 H 0.7507 0.4363 0.0678
C36_3 C 0.75223(14) 0.39080(19) 0.01524(10)
H20_3 H 0.7898 0.3986 0.0112
C37_3 C 0.64792(14) 0.41748(19) 0.09275(9)
C38_3 C 0.66841(13) 0.38643(18) 0.12540(9)
H21_3 H 0.7010 0.3590 0.1244
C39_3 C 0.64181(14) 0.39485(19) 0.16002(9)
C40_3 C 0.59388(14) 0.4352(2) 0.16045(9)
H22_3 H 0.5752 0.4408 0.1837
C41_3 C 0.57292(14) 0.4669(2) 0.12830(10)
C42_3 C 0.60100(15) 0.4578(2) 0.09429(10)
C43_3 C 0.66077(14) 0.3565(2) 0.19413(10)
C44_3 C 0.67989(12) 0.28508(19) 0.19143(10)
H23_3 H 0.6837 0.2635 0.1671
C45_3 C 0.69345(13) 0.24481(19) 0.22356(10)
H24_3 H 0.7066 0.1964 0.2212
C46_3 C 0.68758(15) 0.2762(2) 0.25927(10)
C47_3 C 0.66869(15) 0.3468(2) 0.26206(10)
H25_3 H 0.6644 0.3683 0.2864
C48_3 C 0.65609(15) 0.38628(19) 0.23017(10)
H26_3 H 0.6439 0.4350 0.2328
C49_3 C 0.51912(13) 0.50451(19) 0.12920(9)
C50_3 C 0.47884(13) 0.47299(18) 0.15096(8)
H27_3 H 0.4853 0.4282 0.1637
C51_3 C 0.42879(13) 0.50736(18) 0.15408(9)
H28_3 H 0.4012 0.4858 0.1690
C52_3 C 0.41871(13) 0.57277(19) 0.13560(10)
C53_3 C 0.45950(14) 0.60333(19) 0.11391(10)
H29_3 H 0.4532 0.6478 0.1009
C54_3 C 0.50948(14) 0.56934(19) 0.11109(10)
H30_3 H 0.5373 0.5912 0.0965
Fe1 Fe 0.82819(2) 0.34049(2) 0.891280(14)
O1_3 O 0.83611(10) 0.23170(11) 0.89602(6)
O2_3 O 0.75825(11) 0.18165(10) 0.87783(7)
O8_3 O 0.79152(10) 0.35522(10) 0.94217(6)
O9_3 O 0.71906(10) 0.28332(12) 0.93349(7)
O15_3 O 0.89966(10) 0.34294(12) 0.92091(7)
O16_3 O 0.65099(10) 0.18942(12) 0.89441(7)
O17_3 O 0.73138(10) 0.47769(13) 0.78248(8)
O18_3 O 0.76182(8) 0.33592(9) 0.86529(6)
C1_3 C 0.80864(18) 0.17900(16) 0.88483(11)
C4_3 C 0.74670(17) 0.33028(19) 0.95182(10)
C7_3 C 0.83578(13) 0.10886(14) 0.87597(9)
C8_3 C 0.89186(13) 0.10500(14) 0.87505(8)
H3_3 H 0.9131 0.1467 0.8808
C9_3 C 0.91693(13) 0.03935(14) 0.86565(8)
H4_3 H 0.9553 0.0368 0.8647
C12_3 C 0.80420(13) 0.04874(14) 0.86745(9)
H6_3 H 0.7658 0.0520 0.8677
C31_3 C 0.72169(15) 0.35739(18) 0.98755(10)
C32_3 C 0.66652(14) 0.34599(16) 0.99344(9)
H17_3 H 0.6450 0.3231 0.9745
O19_2 O 0.82153(10) 0.40197(11) 0.80484(7)
O20_2 O 0.87181(8) 0.33120(11) 0.84205(6)
O21 O 0.83851(10) 0.45084(11) 0.88790(6)
O22 O 0.76543(11) 0.49057(11) 0.85707(8)
H31_3 H 0.894758 0.318849 0.945866
H32_3 H 0.910929 0.394262 0.924901
H33_3 H 0.647848 0.151798 0.874298
H34_3 H 0.615286 0.21322 0.898051
H35_3 H 0.751635 0.523341 0.787667
H36_3 H 0.692008 0.488447 0.78098
O7_3 O 0.97358(15) 0.71068(14) 0.80607(11)
C3_3 C 0.8106(2) 0.49928(18) 0.87141(12)
C10_3 C 0.88631(14) 0.97786(14) 0.85763(10)
C11_3 C 0.82969(13) 0.98309(14) 0.85852(9)
H5_3 H 0.8083 0.9414 0.8530
C13_3 C 0.91124(12) 0.90832(14) 0.84445(9)
C14_3 C 0.95501(11) 0.90872(14) 0.81933(8)
H7_3 H 0.9701 0.9536 0.8112
C15_3 C 0.97655(12) 0.84283(15) 0.80619(8)
C16_3 C 0.95425(13) 0.77755(14) 0.81809(9)
C17_3 C 0.91081(13) 0.77671(14) 0.84323(9)
C18_3 C 0.88950(12) 0.84190(14) 0.85610(9)
H8_3 H 0.8597 0.8414 0.8731
H12_3 H 0.9799 0.7816 0.7389
C25_3 C 0.88550(14) 0.70690(15) 0.85546(9)
C26_3 C 0.91547(13) 0.64971(15) 0.87023(8)
H13_3 H 0.9530 0.6560 0.8755
C27_3 C 0.89061(14) 0.58279(15) 0.87743(9)
H14_3 H 0.9112 0.5437 0.8877
C28_3 C 0.83676(14) 0.57354(15) 0.86965(10)
C29_3 C 0.80576(13) 0.63072(15) 0.85487(10)
H15_3 H 0.7683 0.6241 0.8495
C30_3 C 0.83044(14) 0.69724(15) 0.84820(10)
H16_3 H 0.8096 0.7367 0.8386
C6_4 C 0.63581(14) 0.10802(19) 0.36258(11)
C49_4 C 0.48088(13) 0.00451(19) 0.37080(9)
C51_4 C 0.57121(13) 0.00736(18) 0.34592(9)
C52_4 C 0.58129(13) 0.07277(19) 0.36440(10)
C53_4 C 0.54050(14) 0.10333(19) 0.38609(10)
H29_4 H 0.5468 0.1478 0.3991
C54_4 C 0.49052(14) 0.06934(19) 0.38891(10)
H30_4 H 0.4627 0.0912 0.4035
H35_4 H 0.248365 0.0233412 0.712333
O1_4 O 0.16389(10) 0.73170(11) 0.60398(6)
O2_4 O 0.24175(11) 0.68165(10) 0.62217(7)
O7_4 O 0.02642(15) 0.21068(14) 0.69393(11)
O8_4 O 0.20848(10) 0.85522(10) 0.55783(6)
O9_4 O 0.28094(10) 0.78332(12) 0.56651(7)
O14_4 O 0.42032(19) 0.9921(4) 0.43813(14)
H2_4 H 0.4503 0.9732 0.4438
O15_4 O 0.10034(10) 0.84294(12) 0.57909(7)
O16_4 O 0.34901(10) 0.68942(12) 0.60559(7)
O17_4 O 0.26862(10) 0.97769(13) 0.71752(8)
O18_4 O 0.23818(8) 0.83592(9) 0.63471(6)
C1_4 C 0.19136(18) 0.67900(16) 0.61517(11)
C4_4 C 0.25330(17) 0.83028(19) 0.54818(10)
C5_4 C 0.29927(13) 0.7335(2) 0.20667(11)
C7_4 C 0.16422(13) 0.60886(14) 0.62403(9)
C8_4 C 0.10814(13) 0.60500(14) 0.62495(8)
H3_4 H 0.0869 0.6467 0.6192
C9_4 C 0.08307(13) 0.53935(14) 0.63435(8)
H4_4 H 0.0447 0.5368 0.6353
C10_4 C 0.11369(14) 0.47786(14) 0.64237(10)
C11_4 C 0.17031(13) 0.48309(14) 0.64148(9)
H5_4 H 0.1917 0.4414 0.6470
C12_4 C 0.19580(13) 0.54874(14) 0.63255(9)
H6_4 H 0.2342 0.5520 0.6323
C13_4 C 0.08876(12) 0.40832(14) 0.65555(9)
C14_4 C 0.04499(11) 0.40872(14) 0.68067(8)
H7_4 H 0.0299 0.4536 0.6888
C15_4 C 0.02345(12) 0.34283(15) 0.69381(8)
C16_4 C 0.04575(13) 0.27755(14) 0.68191(9)
C17_4 C 0.08919(13) 0.27671(14) 0.65677(9)
C18_4 C 0.11050(12) 0.34190(14) 0.64390(9)
H8_4 H 0.1403 0.3414 0.6269
H12_4 H 0.0201 0.2816 0.7611
C25_4 C 0.11450(14) 0.20690(15) 0.64454(9)
C26_4 C 0.08453(13) 0.14971(15) 0.62977(8)
H13_4 H 0.0470 0.1560 0.6245
C27_4 C 0.10939(14) 0.08279(15) 0.62257(9)
H14_4 H 0.0888 0.0437 0.6123
C28_4 C 0.16324(14) 0.07354(15) 0.63035(10)
C29_4 C 0.19424(13) 0.13072(15) 0.64513(10)
H15_4 H 0.2317 0.1241 0.6505
C30_4 C 0.16956(14) 0.19724(15) 0.65180(10)
H16_4 H 0.1904 0.2367 0.6614
C31_4 C 0.27831(15) 0.85739(18) 0.51245(10)
C32_4 C 0.33348(14) 0.84599(16) 0.50656(9)
H17_4 H 0.3550 0.8231 0.5255
C33_4 C 0.35665(14) 0.86849(18) 0.47269(10)
H18_4 H 0.3942 0.8607 0.4686
C34_4 C 0.32603(15) 0.9018(2) 0.44501(10)
C35_4 C 0.27089(14) 0.91322(19) 0.45109(9)
H19_4 H 0.2493 0.9363 0.4322
C36_4 C 0.24777(14) 0.89080(19) 0.48476(10)
H20_4 H 0.2102 0.8986 0.4888
C37_4 C 0.35208(14) 0.91748(19) 0.40725(9)
C38_4 C 0.33159(13) 0.88643(18) 0.37460(9)
H21_4 H 0.2990 0.8590 0.3756
C39_4 C 0.35819(14) 0.89485(19) 0.33998(9)
C40_4 C 0.40612(14) 0.9352(2) 0.33955(9)
H22_4 H 0.4248 0.9408 0.3163
C41_4 C 0.42708(14) 0.9669(2) 0.37170(10)
C42_4 C 0.39900(15) 0.9578(2) 0.40571(10)
C43_4 C 0.33923(14) 0.8565(2) 0.30587(10)
C44_4 C 0.32011(12) 0.78508(19) 0.30857(10)
H23_4 H 0.3163 0.7635 0.3329
C45_4 C 0.30655(13) 0.74481(19) 0.27644(10)
H24_4 H 0.2934 0.6964 0.2788
C46_4 C 0.31242(15) 0.7762(2) 0.24073(10)
C47_4 C 0.33131(15) 0.8468(2) 0.23794(10)
H25_4 H 0.3356 0.8683 0.2136
C48_4 C 0.34391(15) 0.88628(19) 0.26983(10)
H26_4 H 0.3561 0.9350 0.2672
C50_4 C 0.52116(13) 0.97299(18) 0.34904(8)
H27_4 H 0.5147 0.9282 0.3363
H28_4 H 0.5988 0.9858 0.3310
O21_2 O 0.16149(10) 0.95084(11) 0.61210(6)
O22_2 O 0.23457(11) 0.99057(11) 0.64293(8)
H31_4 H 0.105242 0.818849 0.554134
H32_4 H 0.0890714 0.894262 0.575099
H33_4 H 0.352152 0.651798 0.625702
H34_4 H 0.384714 0.71322 0.601949
H36_4 H 0.307992 0.988447 0.71902
C3_4 C 0.1894(2) 0.99928(18) 0.62859(12)
H1_4 H 0.9954 0.2159 0.7032
C2_4 C 0.86188(15) 0.36326(16) 0.81135(10)
C19_4 C 0.98019(12) 0.34561(14) 0.72346(9)
C20_4 C 0.93345(12) 0.38665(13) 0.71780(9)
H9_4 H 0.9278 0.4114 0.6945
C21_4 C 0.89502(12) 0.39126(14) 0.74654(9)
H10_4 H 0.8630 0.4190 0.7427
C22_4 C 0.90333(13) 0.35550(15) 0.78084(9)
C23_4 C 0.94937(13) 0.31457(15) 0.78625(9)
H11_4 H 0.9549 0.2896 0.8095
C24_4 C 0.98826(13) 0.30972(15) 0.75730(9)
loop_
_geom_bond_atom_site_label_1
_geom_bond_atom_site_label_2
_geom_bond_site_symmetry_1
_geom_bond_site_symmetry_2
O5 C3 1_555 1_555
O6 C3 1_555 1_555
C3 C28 1_555 1_555
C11 C10 1_555 1_555
H5 C11 1_555 1_555
C13 C10 1_555 1_555
C14 C13 1_555 1_555
H7 C14 1_555 1_555
C15 C14 1_555 1_555
C16 O7 1_555 1_555
C17 C16 1_555 1_555
C18 C13 1_555 1_555
H8 C18 1_555 1_555
C25 C17 1_555 1_555
C26 C25 1_555 1_555
H13 C26 1_555 1_555
C27 C26 1_555 1_555
H14 C27 1_555 1_555
C28 C27 1_555 1_555
C29 C28 1_555 1_555
H15 C29 1_555 1_555
C30 C25 1_555 1_555
H16 C30 1_555 1_555
Fe4 O5 1_555 1_555
Fe8 O6 1_555 1_555
C15 C16 1_555 1_555
C17 C18 1_555 1_555
C29 C30 1_555 1_555
Fe4 O1 1_555 1_555
Fe2 O2 1_555 1_555
Fe8 O17 1_555 1_555
O1 C1 1_555 1_555
O2 C1 1_555 1_555
O8 Fe4 1_555 1_555
O9 Fe2 1_555 1_555
O15 Fe4 1_555 1_555
O16 Fe2 1_555 1_555
O18 Fe4 1_555 1_555
C1 C7 1_555 1_555
C4 O8 1_555 1_555
C7 C8 1_555 1_555
C8 H3 1_555 1_555
C9 C8 1_555 1_555
H4 C9 1_555 1_555
C12 C7 1_555 1_555
H6 C12 1_555 1_555
C31 C4 1_555 1_555
C32 C31 1_555 1_555
H17 C32 1_555 1_555
O19 Fe8 1_555 1_555
O20 Fe4 1_555 1_555
O23 Fe8 1_555 1_555
O24 Fe2 1_555 1_555
O25 Fe8 1_555 1_555
O26 Fe2 1_555 1_555
Fe2 O18 1_555 1_555
Fe8 O18 1_555 1_555
O9 C4 1_555 1_555
O15 H31 1_555 1_555
O15 H32 1_555 1_555
O16 H33 1_555 1_555
O16 H34 1_555 1_555
O17 H35 1_555 1_555
O17 H36 1_555 1_555
O10 C5 1_555 1_555
O11 C5 1_555 1_555
O12 C6 1_555 1_555
O13 C6 1_555 1_555
O14 H2 1_555 1_555
C5 C46 1_555 1_555
C6 C52 1_555 1_555
H18 C33 1_555 1_555
C34 C33 1_555 1_555
C35 C34 1_555 1_555
H19 C35 1_555 1_555
H20 C36 1_555 1_555
C37 C34 1_555 1_555
C38 C37 1_555 1_555
H21 C38 1_555 1_555
C39 C38 1_555 1_555
C40 C39 1_555 1_555
H22 C40 1_555 1_555
C41 C40 1_555 1_555
C42 O14 1_555 1_555
C43 C39 1_555 1_555
C44 C43 1_555 1_555
H23 C44 1_555 1_555
C45 C44 1_555 1_555
H24 C45 1_555 1_555
C46 C45 1_555 1_555
C47 C46 1_555 1_555
H25 C47 1_555 1_555
C48 C43 1_555 1_555
H26 C48 1_555 1_555
C49 C41 1_555 1_555
C50 C49 1_555 1_555
H27 C50 1_555 1_555
C51 C50 1_555 1_555
H28 C51 1_555 1_555
C52 C51 1_555 1_555
C53 C52 1_555 1_555
H29 C53 1_555 1_555
C54 C49 1_555 1_555
H30 C54 1_555 1_555
Fe6 O13 1_555 1_555
Fe7 O11 1_555 1_555
Fe10 O12 1_555 1_555
Fe11 O10 1_555 1_555
C35 C36 1_555 1_555
C37 C42 1_555 1_555
C41 C42 1_555 1_555
C47 C48 1_555 1_555
C53 C54 1_555 1_555
O3 C2 1_555 1_555
O4 C2 1_555 1_555
C2 C22 1_555 1_555
C20 C19 1_555 1_555
H9 C20 1_555 1_555
C21 C20 1_555 1_555
H10 C21 1_555 1_555
C22 C21 1_555 1_555
C23 C22 1_555 1_555
H11 C23 1_555 1_555
C24 C19 1_555 1_555
Fe5 O4 1_555 1_555
Fe9 O3 1_555 1_555
C23 C24 1_555 1_555
O19 C2_2 1_555 1_555
O20 C2_2 1_555 1_555
C2_2 C22_2 1_555 1_555
C20_2 C19_2 1_555 1_555
H9_2 C20_2 1_555 1_555
C21_2 C20_2 1_555 1_555
H10_2 C21_2 1_555 1_555
C22_2 C21_2 1_555 1_555
C23_2 C22_2 1_555 1_555
H11_2 C23_2 1_555 1_555
C24_2 C19_2 1_555 1_555
C23_2 C24_2 1_555 1_555
O5_2 C3_2 1_555 1_555
O6_2 C3_2 1_555 1_555
Fe5 O5_2 1_555 1_555
Fe9 O6_2 1_555 1_555
Fe5 O1_2 1_555 1_555
Fe2_2 O2_2 1_555 1_555
Fe9 O17_2 1_555 1_555
O1_2 C1_2 1_555 1_555
O2_2 C1_2 1_555 1_555
O8_2 Fe5 1_555 1_555
O9_2 Fe2_2 1_555 1_555
O10_2 C5_2 1_555 1_555
O11_2 C5_2 1_555 1_555
O14_2 H2_2 1_555 1_555
O15_2 Fe5 1_555 1_555
O16_2 Fe2_2 1_555 1_555
O18_2 Fe5 1_555 1_555
C1_2 C7_2 1_555 1_555
C4_2 O8_2 1_555 1_555
C5_2 C46_2 1_555 1_555
C7_2 C8_2 1_555 1_555
C8_2 H3_2 1_555 1_555
C9_2 C8_2 1_555 1_555
H4_2 C9_2 1_555 1_555
C10_2 C9_2 1_555 1_555
C11_2 C10_2 1_555 1_555
H5_2 C11_2 1_555 1_555
C12_2 C7_2 1_555 1_555
H6_2 C12_2 1_555 1_555
C13_2 C10_2 1_555 1_555
C14_2 C13_2 1_555 1_555
H7_2 C14_2 1_555 1_555
C15_2 C14_2 1_555 1_555
C16_2 O7_2 1_555 1_555
C17_2 C16_2 1_555 1_555
C18_2 C13_2 1_555 1_555
H8_2 C18_2 1_555 1_555
C25_2 C17_2 1_555 1_555
C26_2 C25_2 1_555 1_555
H13_2 C26_2 1_555 1_555
C27_2 C26_2 1_555 1_555
H14_2 C27_2 1_555 1_555
C28_2 C27_2 1_555 1_555
C29_2 C28_2 1_555 1_555
H15_2 C29_2 1_555 1_555
C30_2 C25_2 1_555 1_555
H16_2 C30_2 1_555 1_555
C31_2 C4_2 1_555 1_555
C32_2 C31_2 1_555 1_555
H17_2 C32_2 1_555 1_555
C33_2 C32_2 1_555 1_555
H18_2 C33_2 1_555 1_555
C34_2 C33_2 1_555 1_555
C35_2 C34_2 1_555 1_555
H19_2 C35_2 1_555 1_555
C36_2 C31_2 1_555 1_555
H20_2 C36_2 1_555 1_555
C37_2 C34_2 1_555 1_555
C38_2 C37_2 1_555 1_555
H21_2 C38_2 1_555 1_555
C39_2 C38_2 1_555 1_555
C40_2 C39_2 1_555 1_555
H22_2 C40_2 1_555 1_555
C41_2 C40_2 1_555 1_555
C42_2 O14_2 1_555 1_555
C43_2 C39_2 1_555 1_555
C44_2 C43_2 1_555 1_555
H23_2 C44_2 1_555 1_555
C45_2 C44_2 1_555 1_555
H24_2 C45_2 1_555 1_555
C46_2 C45_2 1_555 1_555
C47_2 C46_2 1_555 1_555
H25_2 C47_2 1_555 1_555
C48_2 C43_2 1_555 1_555
H26_2 C48_2 1_555 1_555
H27_2 C50_2 1_555 1_555
Fe6 O11_2 1_555 1_555
Fe10 O10_2 1_555 1_555
O23_2 Fe9 1_555 1_555
O24_2 Fe2_2 1_555 1_555
O25_2 Fe9 1_555 1_555
O26_2 Fe2_2 1_555 1_555
Fe2_2 O18_2 1_555 1_555
Fe9 O18_2 1_555 1_555
O9_2 C4_2 1_555 1_555
C11_2 C12_2 1_555 1_555
C15_2 C16_2 1_555 1_555
C17_2 C18_2 1_555 1_555
C29_2 C30_2 1_555 1_555
C35_2 C36_2 1_555 1_555
C37_2 C42_2 1_555 1_555
C41_2 C42_2 1_555 1_555
C47_2 C48_2 1_555 1_555
O15_2 H31_2 1_555 1_555
O15_2 H32_2 1_555 1_555
O16_2 H33_2 1_555 1_555
O16_2 H34_2 1_555 1_555
O17_2 H36_2 1_555 1_555
O12_2 C6_2 1_555 1_555
O13_2 C6_2 1_555 1_555
C6_2 C52_2 1_555 1_555
C52_2 C51_2 1_555 1_555
C53_2 C52_2 1_555 1_555
H29_2 C53_2 1_555 1_555
C54_2 C49_2 1_555 1_555
H30_2 C54_2 1_555 1_555
Fe7 O13_2 1_555 1_555
Fe11 O12_2 1_555 1_555
C53_2 C54_2 1_555 1_555
O3_2 C2_3 1_555 1_555
O4_2 C2_3 1_555 1_555
C2_3 C22_3 1_555 1_555
C20_3 C19_3 1_555 1_555
H9_3 C20_3 1_555 1_555
C21_3 C20_3 1_555 1_555
H10_3 C21_3 1_555 1_555
C22_3 C21_3 1_555 1_555
C23_3 C22_3 1_555 1_555
H11_3 C23_3 1_555 1_555
C24_3 C19_3 1_555 1_555
Fe5_2 O4_2 1_555 1_555
Fe11 O3_2 1_555 1_555
C23_3 C24_3 1_555 1_555
O23_2 C5_3 1_555 1_555
O24_2 C5_3 1_555 1_555
O25 C6_3 1_555 1_555
O26 C6_3 1_555 1_555
O14_3 H2_3 1_555 1_555
C5_3 C46_3 1_555 1_555
C6_3 C52_3 1_555 1_555
H18_3 C33_3 1_555 1_555
C34_3 C33_3 1_555 1_555
C35_3 C34_3 1_555 1_555
H19_3 C35_3 1_555 1_555
H20_3 C36_3 1_555 1_555
C37_3 C34_3 1_555 1_555
C38_3 C37_3 1_555 1_555
H21_3 C38_3 1_555 1_555
C39_3 C38_3 1_555 1_555
C40_3 C39_3 1_555 1_555
H22_3 C40_3 1_555 1_555
C41_3 C40_3 1_555 1_555
C42_3 O14_3 1_555 1_555
C43_3 C39_3 1_555 1_555
C44_3 C43_3 1_555 1_555
H23_3 C44_3 1_555 1_555
C45_3 C44_3 1_555 1_555
H24_3 C45_3 1_555 1_555
C46_3 C45_3 1_555 1_555
C47_3 C46_3 1_555 1_555
H25_3 C47_3 1_555 1_555
C48_3 C43_3 1_555 1_555
H26_3 C48_3 1_555 1_555
C49_3 C41_3 1_555 1_555
C50_3 C49_3 1_555 1_555
H27_3 C50_3 1_555 1_555
C51_3 C50_3 1_555 1_555
H28_3 C51_3 1_555 1_555
C52_3 C51_3 1_555 1_555
C53_3 C52_3 1_555 1_555
H29_3 C53_3 1_555 1_555
C54_3 C49_3 1_555 1_555
H30_3 C54_3 1_555 1_555
C35_3 C36_3 1_555 1_555
C37_3 C42_3 1_555 1_555
C41_3 C42_3 1_555 1_555
C47_3 C48_3 1_555 1_555
C53_3 C54_3 1_555 1_555
Fe1 O1_3 1_555 1_555
Fe6 O2_3 1_555 1_555
Fe10 O17_3 1_555 1_555
O1_3 C1_3 1_555 1_555
O2_3 C1_3 1_555 1_555
O8_3 Fe1 1_555 1_555
O9_3 Fe6 1_555 1_555
O15_3 Fe1 1_555 1_555
O16_3 Fe6 1_555 1_555
O18_3 Fe1 1_555 1_555
C1_3 C7_3 1_555 1_555
C4_3 O8_3 1_555 1_555
C7_3 C8_3 1_555 1_555
C8_3 H3_3 1_555 1_555
C9_3 C8_3 1_555 1_555
H4_3 C9_3 1_555 1_555
C12_3 C7_3 1_555 1_555
H6_3 C12_3 1_555 1_555
C31_3 C4_3 1_555 1_555
C32_3 C31_3 1_555 1_555
H17_3 C32_3 1_555 1_555
O19_2 Fe10 1_555 1_555
O20_2 Fe1 1_555 1_555
O21 Fe1 1_555 1_555
O22 Fe10 1_555 1_555
Fe6 O18_3 1_555 1_555
Fe10 O18_3 1_555 1_555
O9_3 C4_3 1_555 1_555
O15_3 H31_3 1_555 1_555
O15_3 H32_3 1_555 1_555
O16_3 H33_3 1_555 1_555
O16_3 H34_3 1_555 1_555
O17_3 H35_3 1_555 1_555
O17_3 H36_3 1_555 1_555
O21 C3_3 1_555 1_555
O22 C3_3 1_555 1_555
C3_3 C28_3 1_555 1_555
C11_3 C10_3 1_555 1_555
H5_3 C11_3 1_555 1_555
C13_3 C10_3 1_555 1_555
C14_3 C13_3 1_555 1_555
H7_3 C14_3 1_555 1_555
C15_3 C14_3 1_555 1_555
C16_3 O7_3 1_555 1_555
C17_3 C16_3 1_555 1_555
C18_3 C13_3 1_555 1_555
H8_3 C18_3 1_555 1_555
C25_3 C17_3 1_555 1_555
C26_3 C25_3 1_555 1_555
H13_3 C26_3 1_555 1_555
C27_3 C26_3 1_555 1_555
H14_3 C27_3 1_555 1_555
C28_3 C27_3 1_555 1_555
C29_3 C28_3 1_555 1_555
H15_3 C29_3 1_555 1_555
C30_3 C25_3 1_555 1_555
H16_3 C30_3 1_555 1_555
C15_3 C16_3 1_555 1_555
C17_3 C18_3 1_555 1_555
C29_3 C30_3 1_555 1_555
O25_2 C6_4 1_555 1_555
O26_2 C6_4 1_555 1_555
C6_4 C52_4 1_555 1_555
C52_4 C51_4 1_555 1_555
C53_4 C52_4 1_555 1_555
H29_4 C53_4 1_555 1_555
C54_4 C49_4 1_555 1_555
H30_4 C54_4 1_555 1_555
C53_4 C54_4 1_555 1_555
Fe5_2 O1_4 1_555 1_555
Fe7 O2_4 1_555 1_555
Fe11 O17_4 1_555 1_555
O1_4 C1_4 1_555 1_555
O2_4 C1_4 1_555 1_555
O8_4 Fe5_2 1_555 1_555
O9_4 Fe7 1_555 1_555
O23 C5_4 1_555 1_555
O24 C5_4 1_555 1_555
O14_4 H2_4 1_555 1_555
O15_4 Fe5_2 1_555 1_555
O16_4 Fe7 1_555 1_555
O18_4 Fe5_2 1_555 1_555
C1_4 C7_4 1_555 1_555
C4_4 O8_4 1_555 1_555
C5_4 C46_4 1_555 1_555
C7_4 C8_4 1_555 1_555
C8_4 H3_4 1_555 1_555
C9_4 C8_4 1_555 1_555
H4_4 C9_4 1_555 1_555
C10_4 C9_4 1_555 1_555
C11_4 C10_4 1_555 1_555
H5_4 C11_4 1_555 1_555
C12_4 C7_4 1_555 1_555
H6_4 C12_4 1_555 1_555
C13_4 C10_4 1_555 1_555
C14_4 C13_4 1_555 1_555
H7_4 C14_4 1_555 1_555
C15_4 C14_4 1_555 1_555
C16_4 O7_4 1_555 1_555
C17_4 C16_4 1_555 1_555
C18_4 C13_4 1_555 1_555
H8_4 C18_4 1_555 1_555
C25_4 C17_4 1_555 1_555
C26_4 C25_4 1_555 1_555
H13_4 C26_4 1_555 1_555
C27_4 C26_4 1_555 1_555
H14_4 C27_4 1_555 1_555
C28_4 C27_4 1_555 1_555
C29_4 C28_4 1_555 1_555
H15_4 C29_4 1_555 1_555
C30_4 C25_4 1_555 1_555
H16_4 C30_4 1_555 1_555
C31_4 C4_4 1_555 1_555
C32_4 C31_4 1_555 1_555
H17_4 C32_4 1_555 1_555
C33_4 C32_4 1_555 1_555
H18_4 C33_4 1_555 1_555
C34_4 C33_4 1_555 1_555
C35_4 C34_4 1_555 1_555
H19_4 C35_4 1_555 1_555
C36_4 C31_4 1_555 1_555
H20_4 C36_4 1_555 1_555
C37_4 C34_4 1_555 1_555
C38_4 C37_4 1_555 1_555
H21_4 C38_4 1_555 1_555
C39_4 C38_4 1_555 1_555
C40_4 C39_4 1_555 1_555
H22_4 C40_4 1_555 1_555
C41_4 C40_4 1_555 1_555
C42_4 O14_4 1_555 1_555
C43_4 C39_4 1_555 1_555
C44_4 C43_4 1_555 1_555
H23_4 C44_4 1_555 1_555
C45_4 C44_4 1_555 1_555
H24_4 C45_4 1_555 1_555
C46_4 C45_4 1_555 1_555
C47_4 C46_4 1_555 1_555
H25_4 C47_4 1_555 1_555
C48_4 C43_4 1_555 1_555
H26_4 C48_4 1_555 1_555
H27_4 C50_4 1_555 1_555
O21_2 Fe5_2 1_555 1_555
O22_2 Fe11 1_555 1_555
Fe7 O18_4 1_555 1_555
Fe11 O18_4 1_555 1_555
O9_4 C4_4 1_555 1_555
C11_4 C12_4 1_555 1_555
C15_4 C16_4 1_555 1_555
C17_4 C18_4 1_555 1_555
C29_4 C30_4 1_555 1_555
C35_4 C36_4 1_555 1_555
C37_4 C42_4 1_555 1_555
C41_4 C42_4 1_555 1_555
C47_4 C48_4 1_555 1_555
O15_4 H31_4 1_555 1_555
O15_4 H32_4 1_555 1_555
O16_4 H33_4 1_555 1_555
O16_4 H34_4 1_555 1_555
O17_4 H36_4 1_555 1_555
O21_2 C3_4 1_555 1_555
O22_2 C3_4 1_555 1_555
O19_2 C2_4 1_555 1_555
O20_2 C2_4 1_555 1_555
C2_4 C22_4 1_555 1_555
C20_4 C19_4 1_555 1_555
H9_4 C20_4 1_555 1_555
C21_4 C20_4 1_555 1_555
H10_4 C21_4 1_555 1_555
C22_4 C21_4 1_555 1_555
C23_4 C22_4 1_555 1_555
H11_4 C23_4 1_555 1_555
C24_4 C19_4 1_555 1_555
C23_4 C24_4 1_555 1_555

#END
