
###############################################################################
#
# This file contains modified crystal structure data generated from the
# MOF subset of the Cambridge Structural Database (CSD) v543 
# hosted by the Cambridge Crystallographic Data Centre (CCDC).
#
# This work is licensed under the Creative Commons
# Attribution-NonCommercial-ShareAlike 4.0 International License.
# To view a copy of this license, visit
# http://creativecommons.org/licenses/by-nc-sa/4.0/
# or send a letter to
# Creative Commons, PO Box 1866, Mountain View, CA 94042, USA.
#
# CIF created using the CSD Python API on 29 September 2022
# The structure has been converted into the P1 space group
# The structure has a 3D framework
# The original CSD entry TOVJOF is in the monoclinic crystal system
# The framework has been calculated to contain at least 10.0% void space
# The void calculation uses a probe of radius 1.32A, grid spacing 0.4
# H atom positions have been added when not included in the experimental data
#
###############################################################################

data_TOVJOF
_chemical_formula_moiety         '(C264 H240 Fe12 O68)n'
_symmetry_cell_setting           triclinic
_symmetry_space_group_name_H-M   'P 1'
_symmetry_Int_Tables_number      1
_space_group_name_Hall           'P 1'
loop_
_symmetry_equiv_pos_site_id
_symmetry_equiv_pos_as_xyz
1 x,y,z
_cell_length_a                   25.085(3)
_cell_length_b                   18.549(3)
_cell_length_c                   35.494(5)
_cell_angle_alpha                90
_cell_angle_beta                 91.607(2)
_cell_angle_gamma                90
_cell_volume                     16508.9
loop_
_atom_site_label
_atom_site_type_symbol
_atom_site_fract_x
_atom_site_fract_y
_atom_site_fract_z
Fe1 Fe 0.29576(3) 0.27735(3) 0.373486(18)
Fe2 Fe 0.17759(3) 0.35149(3) 0.384853(18)
Fe3 Fe 0.25669(3) 0.41146(3) 0.319368(18)
O1 O 0.16812(12) 0.24389(14) 0.39106(8)
O2 O 0.24665(13) 0.19458(16) 0.37419(10)
O8 O 0.21534(12) 0.36421(14) 0.43610(8)
O9 O 0.28774(13) 0.29656(16) 0.42836(8)
O10 O 0.64131(11) 0.65399(17) 0.62512(9)
O11 O 0.66666(12) 0.56905(14) 0.66565(8)
O12 O 0.31344(13) 0.25126(16) 0.82132(9)
O13 O 0.27826(12) 0.16617(16) 0.78277(8)
O14 O 0.2742(2) 0.3587(3) 0.62284(12)
C1 C 0.1982(2) 0.1922(3) 0.38074(14)
C2 C 0.16875(14) 0.12002(13) 0.37502(8)
C3 C 0.11394(14) 0.11211(15) 0.37809(8)
H1 H 0.0929 0.1518 0.3857
C4 C 0.08996(10) 0.0461(2) 0.36999(8)
H2 H 0.0525 0.0407 0.3721
C7 C 0.19958(10) 0.0620(2) 0.36385(8)
H4 H 0.2370 0.0674 0.3617
C28 C 0.2612(2) 0.3392(3) 0.44689(15)
C29 C 0.28251(19) 0.36325(17) 0.48348(8)
C30 C 0.25120(11) 0.39575(17) 0.51036(13)
H15 H 0.2146 0.4051 0.5049
C31 C 0.27351(17) 0.41462(16) 0.54527(10)
H16 H 0.2521 0.4368 0.5636
C32 C 0.32712(18) 0.40100(18) 0.55330(9)
C33 C 0.35842(11) 0.36850(19) 0.52643(14)
H17 H 0.3951 0.3592 0.5319
C34 C 0.33612(18) 0.34963(16) 0.49152(11)
H18 H 0.3575 0.3274 0.4731
C35 C 0.40060(17) 0.45399(18) 0.59423(10)
H19 H 0.4154 0.4751 0.5725
C36 C 0.35269(16) 0.4165(2) 0.59116(9)
C37 C 0.33098(12) 0.38564(18) 0.62295(13)
C38 C 0.35718(17) 0.39225(18) 0.65781(10)
C39 C 0.40508(17) 0.4297(2) 0.66088(9)
H20 H 0.4230 0.4343 0.6847
C40 C 0.42680(12) 0.46060(17) 0.62909(13)
C41 C 0.30130(19) 0.2266(3) 0.78857(15)
C42 C 0.31252(12) 0.2700(2) 0.75498(11)
C43 C 0.30866(12) 0.23913(15) 0.71932(15)
H21 H 0.2970 0.1906 0.7165
C44 C 0.32178(13) 0.2792(3) 0.68783(10)
H22 H 0.3191 0.2582 0.6635
C45 C 0.33877(13) 0.3502(3) 0.69199(11)
C46 C 0.34264(12) 0.38104(15) 0.72765(15)
H23 H 0.3542 0.4295 0.7305
C47 C 0.32951(13) 0.3409(2) 0.75915(9)
H24 H 0.3322 0.3620 0.7835
C48 C 0.6324(2) 0.5974(3) 0.64277(15)
C49 C 0.57978(12) 0.5626(2) 0.63903(10)
C50 C 0.56921(15) 0.5003(2) 0.65921(8)
H25 H 0.5961 0.4797 0.6753
C51 C 0.51932(18) 0.46790(15) 0.65589(9)
H26 H 0.5121 0.4253 0.6697
C52 C 0.48000(12) 0.4979(2) 0.63240(11)
C53 C 0.49057(15) 0.5603(2) 0.61222(8)
H27 H 0.4637 0.5808 0.5962
C54 C 0.54046(18) 0.59263(15) 0.61553(9)
H28 H 0.5477 0.6353 0.6017
C61 C 0.2300(5) 0.3873(10) 0.6438(5)
H42 H 0.2363 0.4392 0.6486
H43 H 0.2293 0.3628 0.6686
C62 C 0.1775(5) 0.3789(7) 0.6248(5)
H44 H 0.1769 0.4071 0.6011
H45 H 0.1498 0.3988 0.6412
C63 C 0.1643(5) 0.3026(9) 0.6159(5)
H46 H 0.1957 0.2724 0.6225
H47 H 0.1577 0.2984 0.5883
C64 C 0.1163(6) 0.2724(9) 0.6357(4)
H48 H 0.1259 0.2234 0.6447
H49 H 0.1109 0.3023 0.6584
C65 C 0.0635(5) 0.2668(9) 0.6150(5)
H50 H 0.0679 0.2875 0.5895
H51 H 0.0380 0.2981 0.6281
C66 C 0.0382(5) 0.1945(10) 0.6102(6)
H52 H 0.0036 0.1997 0.5969
H53 H 0.0330 0.1728 0.6350
H54 H 0.0614 0.1633 0.5955
O15 O 0.24357(9) 0.34563(12) 0.35901(7)
O16 O 0.10531(11) 0.35527(14) 0.41356(7)
O17 O 0.27131(11) 0.48284(15) 0.27436(8)
O18 O 0.35314(10) 0.20047(13) 0.39068(7)
Fe4 Fe 0.70424(3) 0.72265(3) 0.626514(18)
Fe5 Fe 0.29576(3) 0.22265(3) 0.873486(18)
Fe10 Fe 0.74331(3) 0.58854(3) 0.680632(18)
Fe11 Fe 0.25669(3) 0.08854(3) 0.819368(18)
O19 O 0.18161(12) 0.40691(15) 0.29657(8)
O20 O 0.13303(11) 0.34250(15) 0.33602(9)
O21 O 0.16743(12) 0.45983(15) 0.38120(9)
O22 O 0.23787(13) 0.49957(16) 0.34835(10)
O23 O 0.35869(11) 0.34601(17) 0.37488(9)
O24 O 0.33334(12) 0.43095(14) 0.33435(8)
O25 O 0.31344(13) 0.24874(16) 0.32132(9)
O26 O 0.27826(12) 0.33383(16) 0.28277(8)
H55 H 0.110226 0.332287 0.438685
H56 H 0.0943113 0.406273 0.416787
H57 H 0.241785 0.479286 0.255223
H58 H 0.273536 0.532983 0.284076
H59 H 0.355223 0.162101 0.371267
H60 H 0.388453 0.224218 0.393886
O7 O 0.16095(14) 0.84950(17) 0.38714(16)
C5 C 0.12079(15) 0.98809(13) 0.35882(8)
C6 C 0.17560(15) 0.99600(15) 0.35575(8)
H3 H 0.1967 0.9563 0.3481
C8 C 0.09620(13) 0.91800(13) 0.34592(9)
C9 C 0.05156(13) 0.91978(13) 0.32184(8)
H5 H 0.0365 0.9647 0.3143
C10 C 0.02893(10) 0.85580(19) 0.30873(8)
C11 C 0.05095(13) 0.79005(14) 0.31969(9)
H6 H 0.0355 0.7463 0.3107
C12 C 0.09560(13) 0.78827(13) 0.34377(9)
C13 C 0.11823(10) 0.85224(18) 0.35688(8)
C14 C 0.1942(2) 0.5082(3) 0.36434(15)
C15 C 0.16805(16) 0.58284(14) 0.36371(9)
C16 C 0.19784(10) 0.6397(2) 0.34987(9)
H7 H 0.2341 0.6324 0.3438
C17 C 0.17458(16) 0.70716(16) 0.34491(8)
H8 H 0.1949 0.7460 0.3354
C18 C 0.12154(16) 0.71779(14) 0.35379(9)
C19 C 0.09176(11) 0.6609(2) 0.36763(9)
H9 H 0.0555 0.6682 0.3737
C20 C 0.11501(15) 0.59347(17) 0.37259(8)
H10 H 0.0947 0.5546 0.3820
H12 H 0.0167 0.7866 0.2433
C55 C 0.1269(7) 0.8478(18) 0.4285(4)
H29 H 0.1200 0.8960 0.4393
H30 H 0.0940 0.8182 0.4274
C56 C 0.1749(9) 0.8095(8) 0.4460(4)
H31 H 0.1682 0.7984 0.4727
H32 H 0.1807 0.7635 0.4326
C57 C 0.2237(7) 0.8555(13) 0.4437(4)
H33 H 0.2197 0.8900 0.4225
H34 H 0.2553 0.8249 0.4393
C58 C 0.2310(9) 0.8960(9) 0.4807(4)
H35 H 0.1970 0.9200 0.4868
H36 H 0.2583 0.9339 0.4778
C59 C 0.2482(10) 0.8458(12) 0.5139(4)
H37 H 0.2350 0.7964 0.5085
H38 H 0.2876 0.8438 0.5156
C60 C 0.2274(9) 0.8701(14) 0.5517(3)
H39 H 0.2377 0.8349 0.5712
H40 H 0.1884 0.8738 0.5500
H41 H 0.2427 0.9172 0.5583
O3 O 0.81839(12) 0.90691(15) 0.20343(8)
O4 O 0.86697(11) 0.84250(15) 0.16398(9)
C21 C 0.8599(2) 0.8714(3) 0.19479(16)
C22 C 0.90300(12) 0.86628(18) 0.22460(9)
C23 C 0.94647(16) 0.82122(15) 0.21943(8)
H11 H 0.9485 0.7931 0.1972
C24 C 0.98702(11) 0.81735(14) 0.24685(11)
C25 C 0.98412(12) 0.85854(18) 0.27945(9)
C26 C 0.94066(16) 0.90360(15) 0.28462(8)
H13 H 0.9387 0.9317 0.3069
C27 C 0.90010(11) 0.90747(15) 0.25720(11)
H14 H 0.8704 0.9383 0.2607
Fe7 Fe 0.82241(3) 0.85149(3) 0.115147(18)
Fe9 Fe 0.74331(3) 0.91146(3) 0.180632(18)
C21_2 C 0.1401(2) 0.3714(3) 0.30521(16)
C22_2 C 0.09700(12) 0.36628(18) 0.27540(9)
C23_2 C 0.05353(16) 0.32122(15) 0.28057(8)
H11_2 H 0.0515 0.2931 0.3028
C24_2 C 0.01298(11) 0.31735(14) 0.25315(11)
C25_2 C 0.01588(12) 0.35854(18) 0.22055(9)
C26_2 C 0.05934(16) 0.40360(15) 0.21538(8)
H13_2 H 0.0613 0.4317 0.1931
C27_2 C 0.09990(11) 0.40747(15) 0.24280(11)
H14_2 H 0.1296 0.4383 0.2393
O10_2 O 0.35869(11) 0.15399(17) 0.87488(9)
O11_2 O 0.33334(12) 0.06905(14) 0.83435(8)
C48_2 C 0.3676(2) 0.0974(3) 0.85723(15)
C49_2 C 0.42022(12) 0.0626(2) 0.86097(10)
C50_2 C 0.43079(15) 0.0003(2) 0.84079(8)
C53_2 C 0.50943(15) 0.0603(2) 0.88778(8)
H27_2 H 0.5363 0.0808 0.9038
C54_2 C 0.45954(18) 0.09263(15) 0.88447(9)
H28_2 H 0.4523 0.1353 0.8983
Fe1_2 Fe 0.70424(3) 0.77735(3) 0.126514(18)
O1_2 O 0.83188(12) 0.74389(14) 0.10894(8)
O2_2 O 0.75335(13) 0.69458(16) 0.12581(10)
O7_2 O 0.83905(14) 0.34950(17) 0.11286(16)
O8_2 O 0.78466(12) 0.86421(14) 0.06390(8)
O9_2 O 0.71226(13) 0.79656(16) 0.07164(8)
C1_2 C 0.8018(2) 0.6922(3) 0.11926(14)
C2_2 C 0.83125(14) 0.62002(13) 0.12498(8)
C3_2 C 0.88606(14) 0.61211(15) 0.12191(8)
H1_2 H 0.9071 0.6518 0.1143
C4_2 C 0.91004(10) 0.5461(2) 0.13001(8)
H2_2 H 0.9475 0.5407 0.1279
C5_2 C 0.87921(15) 0.48809(13) 0.14118(8)
C6_2 C 0.82440(15) 0.49600(15) 0.14425(8)
H3_2 H 0.8033 0.4563 0.1519
C7_2 C 0.80042(10) 0.5620(2) 0.13615(8)
H4_2 H 0.7630 0.5674 0.1383
C8_2 C 0.90380(13) 0.41800(13) 0.15408(9)
C9_2 C 0.94844(13) 0.41978(13) 0.17816(8)
H5_2 H 0.9635 0.4647 0.1857
C10_2 C 0.97107(10) 0.35580(19) 0.19127(8)
C11_2 C 0.94905(13) 0.29005(14) 0.18031(9)
H6_2 H 0.9645 0.2463 0.1893
C12_2 C 0.90440(13) 0.28827(13) 0.15623(9)
C13_2 C 0.88177(10) 0.35224(18) 0.14312(8)
C14_2 C 0.8058(2) 0.0082(3) 0.13566(15)
C15_2 C 0.83195(16) 0.08284(14) 0.13629(9)
C16_2 C 0.80216(10) 0.1397(2) 0.15013(9)
H7_2 H 0.7659 0.1324 0.1562
C17_2 C 0.82542(16) 0.20716(16) 0.15509(8)
H8_2 H 0.8051 0.2460 0.1646
C18_2 C 0.87846(16) 0.21779(14) 0.14621(9)
C19_2 C 0.90824(11) 0.1609(2) 0.13237(9)
H9_2 H 0.9445 0.1682 0.1263
C20_2 C 0.88499(15) 0.09347(17) 0.12741(8)
H10_2 H 0.9053 0.0546 0.1180
H12_2 H 0.9833 0.2866 0.2567
C28_2 C 0.7388(2) 0.8392(3) 0.05311(15)
C29_2 C 0.71749(19) 0.86325(17) 0.01652(8)
C34_2 C 0.66388(18) 0.84963(16) 0.00848(11)
H18_2 H 0.6425 0.8274 0.0269
C55_2 C 0.8731(7) 0.3478(18) 0.0715(4)
H29_2 H 0.8800 0.3960 0.0607
H30_2 H 0.9060 0.3182 0.0726
C56_2 C 0.8251(9) 0.3095(8) 0.0540(4)
H31_2 H 0.8318 0.2984 0.0273
H32_2 H 0.8193 0.2635 0.0674
C57_2 C 0.7763(7) 0.3555(13) 0.0563(4)
H33_2 H 0.7803 0.3900 0.0775
H34_2 H 0.7447 0.3249 0.0607
C58_2 C 0.7690(9) 0.3960(9) 0.0193(4)
H35_2 H 0.8030 0.4200 0.0132
H36_2 H 0.7417 0.4339 0.0222
O15_2 O 0.75643(9) 0.84563(12) 0.14099(7)
O16_2 O 0.89469(11) 0.85527(14) 0.08644(7)
O17_2 O 0.72869(11) 0.98284(15) 0.22564(8)
O18_2 O 0.64686(10) 0.70047(13) 0.10932(7)
O21_2 O 0.83257(12) 0.95983(15) 0.11880(9)
O22_2 O 0.76213(13) 0.99957(16) 0.15165(10)
O23_2 O 0.64131(11) 0.84601(17) 0.12512(9)
O24_2 O 0.66666(12) 0.93095(14) 0.16565(8)
O25_2 O 0.68656(13) 0.74874(16) 0.17868(9)
O26_2 O 0.72174(12) 0.83383(16) 0.21723(8)
H55_2 H 0.889774 0.832287 0.0613152
H56_2 H 0.905689 0.906273 0.0832128
H57_2 H 0.758215 0.979286 0.244777
H59_2 H 0.644777 0.662101 0.128733
H60_2 H 0.611547 0.724218 0.106114
O12_2 O 0.68656(13) 0.75126(16) 0.67868(9)
O13_2 O 0.72174(12) 0.66617(16) 0.71723(8)
O14_2 O 0.7258(2) 0.8587(3) 0.87716(12)
C30_2 C 0.74880(11) 0.89575(17) 0.98964(13)
H15_2 H 0.7854 0.9051 0.9951
C31_2 C 0.72649(17) 0.91462(16) 0.95473(10)
H16_2 H 0.7479 0.9368 0.9364
C32_2 C 0.67288(18) 0.90100(18) 0.94670(9)
C33_2 C 0.64158(11) 0.86850(19) 0.97357(14)
H17_2 H 0.6049 0.8592 0.9681
C35_2 C 0.59940(17) 0.95399(18) 0.90577(10)
H19_2 H 0.5846 0.9751 0.9275
C36_2 C 0.64731(16) 0.9165(2) 0.90884(9)
C37_2 C 0.66902(12) 0.88564(18) 0.87705(13)
C38_2 C 0.64282(17) 0.89225(18) 0.84219(10)
C39_2 C 0.59492(17) 0.9297(2) 0.83912(9)
H20_2 H 0.5770 0.9343 0.8153
C40_2 C 0.57320(12) 0.96060(17) 0.87091(13)
C41_2 C 0.69870(19) 0.7266(3) 0.71143(15)
C42_2 C 0.68748(12) 0.7700(2) 0.74502(11)
C43_2 C 0.69134(12) 0.73913(15) 0.78068(15)
H21_2 H 0.7030 0.6906 0.7835
C44_2 C 0.67822(13) 0.7792(3) 0.81217(10)
H22_2 H 0.6809 0.7582 0.8365
C45_2 C 0.66123(13) 0.8502(3) 0.80801(11)
C46_2 C 0.65736(12) 0.88104(15) 0.77235(15)
H23_2 H 0.6458 0.9295 0.7695
C47_2 C 0.67049(13) 0.8409(2) 0.74085(9)
H24_2 H 0.6678 0.8620 0.7165
H25_2 H 0.4039 0.9797 0.8247
C51_2 C 0.48068(18) 0.96790(15) 0.84411(9)
H26_2 H 0.4879 0.9253 0.8303
C52_2 C 0.52000(12) 0.9979(2) 0.86760(11)
C59_2 C 0.7518(10) 0.3458(12) 0.9861(4)
H37_2 H 0.7650 0.2964 0.9915
H38_2 H 0.7124 0.3438 0.9844
C60_2 C 0.7726(9) 0.3701(14) 0.9483(3)
H39_2 H 0.7623 0.3349 0.9288
H40_2 H 0.8116 0.3738 0.9500
H41_2 H 0.7573 0.4172 0.9417
C61_2 C 0.7700(5) 0.8873(10) 0.8562(5)
H42_2 H 0.7637 0.9392 0.8514
H43_2 H 0.7707 0.8628 0.8314
C62_2 C 0.8225(5) 0.8789(7) 0.8752(5)
H44_2 H 0.8231 0.9071 0.8989
H45_2 H 0.8502 0.8988 0.8588
C63_2 C 0.8357(5) 0.8026(9) 0.8841(5)
H46_2 H 0.8043 0.7724 0.8775
H47_2 H 0.8423 0.7984 0.9117
C64_2 C 0.8837(6) 0.7724(9) 0.8643(4)
H48_2 H 0.8741 0.7234 0.8553
H49_2 H 0.8891 0.8023 0.8416
C65_2 C 0.9365(5) 0.7668(9) 0.8850(5)
H50_2 H 0.9321 0.7875 0.9105
H51_2 H 0.9620 0.7981 0.8719
C66_2 C 0.9618(5) 0.6945(10) 0.8898(6)
H52_2 H 0.9964 0.6997 0.9031
H53_2 H 0.9670 0.6728 0.8650
H54_2 H 0.9386 0.6633 0.9045
O3_2 O 0.18161(12) 0.09309(15) 0.79657(8)
O4_2 O 0.13303(11) 0.15750(15) 0.83602(9)
C21_3 C 0.1401(2) 0.1286(3) 0.80521(16)
C22_3 C 0.09700(12) 0.13372(18) 0.77540(9)
C23_3 C 0.05353(16) 0.17878(15) 0.78057(8)
H11_3 H 0.0515 0.2069 0.8028
C24_3 C 0.01298(11) 0.18265(14) 0.75315(11)
C25_3 C 0.01588(12) 0.14146(18) 0.72055(9)
C26_3 C 0.05934(16) 0.09640(15) 0.71538(8)
H13_3 H 0.0613 0.0683 0.6931
C27_3 C 0.09990(11) 0.09253(15) 0.74280(11)
H14_3 H 0.1296 0.0617 0.7393
Fe7_2 Fe 0.17759(3) 0.14851(3) 0.884853(18)
O5 O 0.83257(12) 0.54017(15) 0.61880(9)
O6 O 0.76213(13) 0.50043(16) 0.65165(10)
O7_3 O 0.83905(14) 0.15050(17) 0.61286(16)
C5_3 C 0.87921(15) 0.01191(13) 0.64118(8)
C6_3 C 0.82440(15) 0.00400(15) 0.64425(8)
H3_3 H 0.8033 0.0437 0.6519
C8_3 C 0.90380(13) 0.08200(13) 0.65408(9)
C9_3 C 0.94844(13) 0.08022(13) 0.67816(8)
H5_3 H 0.9635 0.0353 0.6857
C10_3 C 0.97107(10) 0.14420(19) 0.69127(8)
C11_3 C 0.94905(13) 0.20995(14) 0.68031(9)
H6_3 H 0.9645 0.2537 0.6893
C12_3 C 0.90440(13) 0.21173(13) 0.65623(9)
C13_3 C 0.88177(10) 0.14776(18) 0.64312(8)
C14_3 C 0.8058(2) 0.4918(3) 0.63566(15)
C15_3 C 0.83195(16) 0.41716(14) 0.63629(9)
C16_3 C 0.80216(10) 0.3603(2) 0.65013(9)
H7_3 H 0.7659 0.3676 0.6562
C17_3 C 0.82542(16) 0.29284(16) 0.65509(8)
H8_3 H 0.8051 0.2540 0.6646
C18_3 C 0.87846(16) 0.28221(14) 0.64621(9)
C19_3 C 0.90824(11) 0.3391(2) 0.63237(9)
H9_3 H 0.9445 0.3318 0.6263
C20_3 C 0.88499(15) 0.40653(17) 0.62741(8)
H10_3 H 0.9053 0.4454 0.6180
H12_3 H 0.9833 0.2134 0.7567
C55_3 C 0.8731(7) 0.1522(18) 0.5715(4)
H29_3 H 0.8800 0.1040 0.5607
H30_3 H 0.9060 0.1818 0.5726
C56_3 C 0.8251(9) 0.1905(8) 0.5540(4)
H31_3 H 0.8318 0.2016 0.5273
H32_3 H 0.8193 0.2365 0.5674
C57_3 C 0.7763(7) 0.1445(13) 0.5563(4)
H33_3 H 0.7803 0.1100 0.5775
H34_3 H 0.7447 0.1751 0.5607
C58_3 C 0.7690(9) 0.1040(9) 0.5193(4)
H35_3 H 0.8030 0.0800 0.5132
H36_3 H 0.7417 0.0661 0.5222
C59_3 C 0.7518(10) 0.1542(12) 0.4861(4)
H37_3 H 0.7650 0.2036 0.4915
H38_3 H 0.7124 0.1562 0.4844
C60_3 C 0.7726(9) 0.1299(14) 0.4483(3)
H39_3 H 0.7623 0.1651 0.4288
H40_3 H 0.8116 0.1262 0.4500
H41_3 H 0.7573 0.0828 0.4417
Fe6 Fe 0.82241(3) 0.64851(3) 0.615147(18)
O1_3 O 0.83188(12) 0.75611(14) 0.60894(8)
O2_3 O 0.75335(13) 0.80542(16) 0.62581(10)
O8_3 O 0.78466(12) 0.63579(14) 0.56390(8)
O9_3 O 0.71226(13) 0.70344(16) 0.57164(8)
O14_3 O 0.7258(2) 0.6413(3) 0.37716(12)
C1_3 C 0.8018(2) 0.8078(3) 0.61926(14)
C2_3 C 0.83125(14) 0.87998(13) 0.62498(8)
C3_3 C 0.88606(14) 0.88789(15) 0.62191(8)
H1_3 H 0.9071 0.8482 0.6143
C4_3 C 0.91004(10) 0.9539(2) 0.63001(8)
H2_3 H 0.9475 0.9593 0.6279
C7_3 C 0.80042(10) 0.9380(2) 0.63615(8)
H4_3 H 0.7630 0.9326 0.6383
C28_3 C 0.7388(2) 0.6608(3) 0.55311(15)
C29_3 C 0.71749(19) 0.63675(17) 0.51652(8)
C30_3 C 0.74880(11) 0.60425(17) 0.48964(13)
H15_3 H 0.7854 0.5949 0.4951
C31_3 C 0.72649(17) 0.58538(16) 0.45473(10)
H16_3 H 0.7479 0.5632 0.4364
C32_3 C 0.67288(18) 0.59900(18) 0.44670(9)
C33_3 C 0.64158(11) 0.63150(19) 0.47357(14)
H17_3 H 0.6049 0.6408 0.4681
C34_3 C 0.66388(18) 0.65037(16) 0.50848(11)
H18_3 H 0.6425 0.6726 0.5269
C35_3 C 0.59940(17) 0.54601(18) 0.40577(10)
H19_3 H 0.5846 0.5249 0.4275
C36_3 C 0.64731(16) 0.5835(2) 0.40884(9)
C37_3 C 0.66902(12) 0.61436(18) 0.37705(13)
C38_3 C 0.64282(17) 0.60775(18) 0.34219(10)
C39_3 C 0.59492(17) 0.5703(2) 0.33912(9)
H20_3 H 0.5770 0.5657 0.3153
C40_3 C 0.57320(12) 0.53940(17) 0.37091(13)
C41_3 C 0.69870(19) 0.7734(3) 0.21143(15)
C42_3 C 0.68748(12) 0.7300(2) 0.24502(11)
C43_3 C 0.69134(12) 0.76087(15) 0.28068(15)
H21_3 H 0.7030 0.8094 0.2835
C44_3 C 0.67822(13) 0.7208(3) 0.31217(10)
H22_3 H 0.6809 0.7418 0.3365
C45_3 C 0.66123(13) 0.6498(3) 0.30801(11)
C46_3 C 0.65736(12) 0.61896(15) 0.27235(15)
H23_3 H 0.6458 0.5705 0.2695
C47_3 C 0.67049(13) 0.6591(2) 0.24085(9)
H24_3 H 0.6678 0.6380 0.2165
C48_3 C 0.3676(2) 0.4026(3) 0.35723(15)
C49_3 C 0.42022(12) 0.4374(2) 0.36097(10)
C50_3 C 0.43079(15) 0.4997(2) 0.34079(8)
H25_3 H 0.4039 0.5203 0.3247
C51_3 C 0.48068(18) 0.53210(15) 0.34411(9)
H26_3 H 0.4879 0.5747 0.3303
C52_3 C 0.52000(12) 0.5021(2) 0.36760(11)
C53_3 C 0.50943(15) 0.4397(2) 0.38778(8)
H27_3 H 0.5363 0.4192 0.4038
C54_3 C 0.45954(18) 0.40737(15) 0.38447(9)
H28_3 H 0.4523 0.3647 0.3983
C61_3 C 0.7700(5) 0.6127(10) 0.3562(5)
H42_3 H 0.7637 0.5608 0.3514
H43_3 H 0.7707 0.6372 0.3314
C62_3 C 0.8225(5) 0.6211(7) 0.3752(5)
H44_3 H 0.8231 0.5929 0.3989
H45_3 H 0.8502 0.6012 0.3588
C63_3 C 0.8357(5) 0.6974(9) 0.3841(5)
H46_3 H 0.8043 0.7276 0.3775
H47_3 H 0.8423 0.7016 0.4117
C64_3 C 0.8837(6) 0.7276(9) 0.3643(4)
H48_3 H 0.8741 0.7766 0.3553
H49_3 H 0.8891 0.6977 0.3416
C65_3 C 0.9365(5) 0.7332(9) 0.3850(5)
H50_3 H 0.9321 0.7125 0.4105
H51_3 H 0.9620 0.7019 0.3719
C66_3 C 0.9618(5) 0.8055(10) 0.3898(6)
H52_3 H 0.9964 0.8003 0.4031
H53_3 H 0.9670 0.8272 0.3650
H54_3 H 0.9386 0.8367 0.4045
O15_3 O 0.75643(9) 0.65437(12) 0.64099(7)
O16_3 O 0.89469(11) 0.64473(14) 0.58644(7)
O17_3 O 0.72869(11) 0.51716(15) 0.72564(8)
O18_3 O 0.64686(10) 0.79953(13) 0.60932(7)
O19_2 O 0.81839(12) 0.59309(15) 0.70343(8)
O20_2 O 0.86697(11) 0.65750(15) 0.66398(9)
H55_3 H 0.889774 0.667713 0.561315
H56_3 H 0.905689 0.593727 0.583213
H57_3 H 0.758215 0.520714 0.744777
H58_2 H 0.726464 0.467017 0.715924
H59_3 H 0.644777 0.837899 0.628733
H60_3 H 0.611547 0.775782 0.606114
O5_2 O 0.16743(12) 0.04017(15) 0.88120(9)
O6_2 O 0.23787(13) 0.00043(16) 0.84835(10)
O14_4 O 0.2742(2) 0.1413(3) 0.12284(12)
C30_4 C 0.25120(11) 0.10425(17) 0.01036(13)
H15_4 H 0.2146 0.0949 0.0049
C31_4 C 0.27351(17) 0.08538(16) 0.04527(10)
H16_4 H 0.2521 0.0632 0.0636
C32_4 C 0.32712(18) 0.09900(18) 0.05330(9)
C33_4 C 0.35842(11) 0.13150(19) 0.02643(14)
H17_4 H 0.3951 0.1408 0.0319
C35_4 C 0.40060(17) 0.04601(18) 0.09423(10)
H19_4 H 0.4154 0.0249 0.0725
C36_4 C 0.35269(16) 0.0835(2) 0.09116(9)
C37_4 C 0.33098(12) 0.11436(18) 0.12295(13)
C38_4 C 0.35718(17) 0.10775(18) 0.15781(10)
C39_4 C 0.40508(17) 0.0703(2) 0.16088(9)
H20_4 H 0.4230 0.0657 0.1847
C40_4 C 0.42680(12) 0.03940(17) 0.12909(13)
C41_4 C 0.30130(19) 0.2734(3) 0.28857(15)
C42_4 C 0.31252(12) 0.2300(2) 0.25498(11)
C43_4 C 0.30866(12) 0.26087(15) 0.21932(15)
H21_4 H 0.2970 0.3094 0.2165
C44_4 C 0.32178(13) 0.2208(3) 0.18783(10)
H22_4 H 0.3191 0.2418 0.1635
C45_4 C 0.33877(13) 0.1498(3) 0.19199(11)
C46_4 C 0.34264(12) 0.11896(15) 0.22765(15)
H23_4 H 0.3542 0.0705 0.2305
C47_4 C 0.32951(13) 0.1591(2) 0.25915(9)
H24_4 H 0.3322 0.1380 0.2835
H25_4 H 0.5961 0.0203 0.1753
C51_4 C 0.51932(18) 0.03210(15) 0.15589(9)
H26_4 H 0.5121 0.0747 0.1697
C52_4 C 0.48000(12) 0.0021(2) 0.13240(11)
C59_4 C 0.2482(10) 0.6542(12) 0.0139(4)
H37_4 H 0.2350 0.7036 0.0085
H38_4 H 0.2876 0.6562 0.0156
C60_4 C 0.2274(9) 0.6299(14) 0.0517(3)
H39_4 H 0.2377 0.6651 0.0712
H40_4 H 0.1884 0.6262 0.0500
H41_4 H 0.2427 0.5828 0.0583
C61_4 C 0.2300(5) 0.1127(10) 0.1438(5)
H42_4 H 0.2363 0.0608 0.1486
H43_4 H 0.2293 0.1372 0.1686
C62_4 C 0.1775(5) 0.1211(7) 0.1248(5)
H44_4 H 0.1769 0.0929 0.1011
H45_4 H 0.1498 0.1012 0.1412
C63_4 C 0.1643(5) 0.1974(9) 0.1159(5)
H46_4 H 0.1957 0.2276 0.1225
H47_4 H 0.1577 0.2016 0.0883
C64_4 C 0.1163(6) 0.2276(9) 0.1357(4)
H48_4 H 0.1259 0.2766 0.1447
H49_4 H 0.1109 0.1977 0.1584
C65_4 C 0.0635(5) 0.2332(9) 0.1150(5)
H50_4 H 0.0679 0.2125 0.0895
H51_4 H 0.0380 0.2019 0.1281
C66_4 C 0.0382(5) 0.3055(10) 0.1102(6)
H52_4 H 0.0036 0.3003 0.0969
H53_4 H 0.0330 0.3272 0.1350
H54_4 H 0.0614 0.3367 0.0955
O1_4 O 0.16812(12) 0.25611(14) 0.89106(8)
O2_4 O 0.24665(13) 0.30542(16) 0.87419(10)
O7_4 O 0.16095(14) 0.65050(17) 0.88714(16)
O8_4 O 0.21534(12) 0.13579(14) 0.93610(8)
O9_4 O 0.28774(13) 0.20344(16) 0.92836(8)
C1_4 C 0.1982(2) 0.3078(3) 0.88074(14)
C2_4 C 0.16875(14) 0.37998(13) 0.87502(8)
C3_4 C 0.11394(14) 0.38789(15) 0.87809(8)
H1_4 H 0.0929 0.3482 0.8857
C4_4 C 0.08996(10) 0.4539(2) 0.86999(8)
H2_4 H 0.0525 0.4593 0.8721
C5_4 C 0.12079(15) 0.51191(13) 0.85882(8)
C6_4 C 0.17560(15) 0.50400(15) 0.85575(8)
H3_4 H 0.1967 0.5437 0.8481
C7_4 C 0.19958(10) 0.4380(2) 0.86385(8)
H4_4 H 0.2370 0.4326 0.8617
C8_4 C 0.09620(13) 0.58200(13) 0.84592(9)
C9_4 C 0.05156(13) 0.58022(13) 0.82184(8)
H5_4 H 0.0365 0.5353 0.8143
C10_4 C 0.02893(10) 0.64420(19) 0.80873(8)
C11_4 C 0.05095(13) 0.70995(14) 0.81969(9)
H6_4 H 0.0355 0.7537 0.8107
C12_4 C 0.09560(13) 0.71173(13) 0.84377(9)
C13_4 C 0.11823(10) 0.64776(18) 0.85688(8)
C14_4 C 0.1942(2) 0.9918(3) 0.86434(15)
C15_4 C 0.16805(16) 0.91716(14) 0.86371(9)
C16_4 C 0.19784(10) 0.8603(2) 0.84987(9)
H7_4 H 0.2341 0.8676 0.8438
C17_4 C 0.17458(16) 0.79284(16) 0.84491(8)
H8_4 H 0.1949 0.7540 0.8354
C18_4 C 0.12154(16) 0.78221(14) 0.85379(9)
C19_4 C 0.09176(11) 0.8391(2) 0.86763(9)
H9_4 H 0.0555 0.8318 0.8737
C20_4 C 0.11501(15) 0.90653(17) 0.87259(8)
H10_4 H 0.0947 0.9454 0.8820
H12_4 H 0.0167 0.7134 0.7433
C28_4 C 0.2612(2) 0.1608(3) 0.94689(15)
C29_4 C 0.28251(19) 0.13675(17) 0.98348(8)
C34_4 C 0.33612(18) 0.15037(16) 0.99152(11)
H18_4 H 0.3575 0.1726 0.9731
C55_4 C 0.1269(7) 0.6522(18) 0.9285(4)
H29_4 H 0.1200 0.6040 0.9393
H30_4 H 0.0940 0.6818 0.9274
C56_4 C 0.1749(9) 0.6905(8) 0.9460(4)
H31_4 H 0.1682 0.7016 0.9727
H32_4 H 0.1807 0.7365 0.9326
C57_4 C 0.2237(7) 0.6445(13) 0.9437(4)
H33_4 H 0.2197 0.6100 0.9225
H34_4 H 0.2553 0.6751 0.9393
C58_4 C 0.2310(9) 0.6040(9) 0.9807(4)
H35_4 H 0.1970 0.5800 0.9868
H36_4 H 0.2583 0.5661 0.9778
O15_4 O 0.24357(9) 0.15437(12) 0.85901(7)
O16_4 O 0.10531(11) 0.14473(14) 0.91356(7)
O17_4 O 0.27131(11) 0.01716(15) 0.77436(8)
O18_4 O 0.35314(10) 0.29953(13) 0.89068(7)
H55_4 H 0.110226 0.167713 0.938685
H56_4 H 0.0943113 0.0937266 0.916787
H57_4 H 0.241785 0.0207137 0.755223
H59_4 H 0.355223 0.337899 0.871267
H60_4 H 0.388453 0.275782 0.893886
C48_4 C 0.6324(2) 0.9026(3) 0.14277(15)
C49_4 C 0.57978(12) 0.9374(2) 0.13903(10)
C50_4 C 0.56921(15) 0.9997(2) 0.15921(8)
C53_4 C 0.49057(15) 0.9397(2) 0.11222(8)
H27_4 H 0.4637 0.9192 0.0962
C54_4 C 0.54046(18) 0.90737(15) 0.11553(9)
H28_4 H 0.5477 0.8647 0.1017
C21_4 C 0.8599(2) 0.6286(3) 0.69479(16)
C22_4 C 0.90300(12) 0.63372(18) 0.72460(9)
C23_4 C 0.94647(16) 0.67878(15) 0.71943(8)
H11_4 H 0.9485 0.7069 0.6972
C24_4 C 0.98702(11) 0.68265(14) 0.74685(11)
C25_4 C 0.98412(12) 0.64146(18) 0.77945(9)
C26_4 C 0.94066(16) 0.59640(15) 0.78462(8)
H13_4 H 0.9387 0.5683 0.8069
C27_4 C 0.90010(11) 0.59253(15) 0.75720(11)
H14_4 H 0.8704 0.5617 0.7607
H58_3 H 0.726464 0.0329829 0.215924
H58_4 H 0.273536 0.967017 0.784076
loop_
_geom_bond_atom_site_label_1
_geom_bond_atom_site_label_2
_geom_bond_site_symmetry_1
_geom_bond_site_symmetry_2
Fe1 O2 1_555 1_555
Fe2 O1 1_555 1_555
Fe3 O15 1_555 1_555
O1 C1 1_555 1_555
O2 C1 1_555 1_555
O8 Fe2 1_555 1_555
O9 Fe1 1_555 1_555
O10 C48 1_555 1_555
O11 C48 1_555 1_555
O12 C41 1_555 1_555
O13 C41 1_555 1_555
O14 C37 1_555 1_555
C1 C2 1_555 1_555
C2 C3 1_555 1_555
C3 H1 1_555 1_555
C4 C3 1_555 1_555
H2 C4 1_555 1_555
C7 C2 1_555 1_555
H4 C7 1_555 1_555
C28 O8 1_555 1_555
C29 C28 1_555 1_555
C30 C29 1_555 1_555
H15 C30 1_555 1_555
C31 C30 1_555 1_555
H16 C31 1_555 1_555
C32 C31 1_555 1_555
C33 C32 1_555 1_555
H17 C33 1_555 1_555
C34 C29 1_555 1_555
H18 C34 1_555 1_555
C35 H19 1_555 1_555
C36 C32 1_555 1_555
C37 C36 1_555 1_555
C38 C37 1_555 1_555
C39 C38 1_555 1_555
H20 C39 1_555 1_555
C40 C35 1_555 1_555
C41 C42 1_555 1_555
C42 C43 1_555 1_555
C43 H21 1_555 1_555
C44 C43 1_555 1_555
H22 C44 1_555 1_555
C45 C38 1_555 1_555
C46 C45 1_555 1_555
H23 C46 1_555 1_555
C47 C42 1_555 1_555
H24 C47 1_555 1_555
C48 C49 1_555 1_555
C49 C50 1_555 1_555
C50 H25 1_555 1_555
C51 C50 1_555 1_555
H26 C51 1_555 1_555
C52 C40 1_555 1_555
C53 C52 1_555 1_555
H27 C53 1_555 1_555
C54 C49 1_555 1_555
H28 C54 1_555 1_555
C61 O14 1_555 1_555
H42 C61 1_555 1_555
H43 C61 1_555 1_555
C62 C61 1_555 1_555
H44 C62 1_555 1_555
H45 C62 1_555 1_555
C63 C62 1_555 1_555
H46 C63 1_555 1_555
H47 C63 1_555 1_555
C64 C63 1_555 1_555
H48 C64 1_555 1_555
H49 C64 1_555 1_555
C65 C64 1_555 1_555
H50 C65 1_555 1_555
H51 C65 1_555 1_555
C66 C65 1_555 1_555
H52 C66 1_555 1_555
H53 C66 1_555 1_555
H54 C66 1_555 1_555
O15 Fe1 1_555 1_555
O16 Fe2 1_555 1_555
O17 Fe3 1_555 1_555
O18 Fe1 1_555 1_555
Fe4 O10 1_555 1_555
Fe5 O12 1_555 1_555
Fe10 O11 1_555 1_555
Fe11 O13 1_555 1_555
O19 Fe3 1_555 1_555
O20 Fe2 1_555 1_555
O21 Fe2 1_555 1_555
O22 Fe3 1_555 1_555
O23 Fe1 1_555 1_555
O24 Fe3 1_555 1_555
O25 Fe1 1_555 1_555
O26 Fe3 1_555 1_555
Fe2 O15 1_555 1_555
O9 C28 1_555 1_555
C33 C34 1_555 1_555
C35 C36 1_555 1_555
C39 C40 1_555 1_555
C44 C45 1_555 1_555
C46 C47 1_555 1_555
C51 C52 1_555 1_555
C53 C54 1_555 1_555
O16 H55 1_555 1_555
O16 H56 1_555 1_555
O17 H57 1_555 1_555
O17 H58 1_555 1_555
O18 H59 1_555 1_555
O18 H60 1_555 1_555
O21 C14 1_555 1_555
O22 C14 1_555 1_555
O7 C13 1_555 1_555
C6 C5 1_555 1_555
H3 C6 1_555 1_555
C8 C5 1_555 1_555
C9 C8 1_555 1_555
H5 C9 1_555 1_555
C10 C9 1_555 1_555
C11 C10 1_555 1_555
H6 C11 1_555 1_555
C12 C11 1_555 1_555
C13 C8 1_555 1_555
C14 C15 1_555 1_555
C15 C16 1_555 1_555
C16 H7 1_555 1_555
C17 C16 1_555 1_555
H8 C17 1_555 1_555
C18 C12 1_555 1_555
C19 C18 1_555 1_555
H9 C19 1_555 1_555
C20 C15 1_555 1_555
H10 C20 1_555 1_555
C55 O7 1_555 1_555
H29 C55 1_555 1_555
H30 C55 1_555 1_555
C56 C55 1_555 1_555
H31 C56 1_555 1_555
H32 C56 1_555 1_555
C57 C56 1_555 1_555
H33 C57 1_555 1_555
H34 C57 1_555 1_555
C58 C57 1_555 1_555
H35 C58 1_555 1_555
H36 C58 1_555 1_555
C59 C58 1_555 1_555
H37 C59 1_555 1_555
H38 C59 1_555 1_555
C60 C59 1_555 1_555
H39 C60 1_555 1_555
H40 C60 1_555 1_555
H41 C60 1_555 1_555
C12 C13 1_555 1_555
C17 C18 1_555 1_555
C19 C20 1_555 1_555
O3 C21 1_555 1_555
O4 C21 1_555 1_555
C21 C22 1_555 1_555
C22 C23 1_555 1_555
C23 H11 1_555 1_555
C24 C23 1_555 1_555
C26 C25 1_555 1_555
H13 C26 1_555 1_555
C27 C22 1_555 1_555
H14 C27 1_555 1_555
Fe7 O4 1_555 1_555
Fe9 O3 1_555 1_555
C24 C25 1_555 1_555
C26 C27 1_555 1_555
O19 C21_2 1_555 1_555
O20 C21_2 1_555 1_555
C21_2 C22_2 1_555 1_555
C22_2 C23_2 1_555 1_555
C23_2 H11_2 1_555 1_555
C24_2 C23_2 1_555 1_555
C26_2 C25_2 1_555 1_555
H13_2 C26_2 1_555 1_555
C27_2 C22_2 1_555 1_555
H14_2 C27_2 1_555 1_555
C24_2 C25_2 1_555 1_555
C26_2 C27_2 1_555 1_555
O10_2 C48_2 1_555 1_555
O11_2 C48_2 1_555 1_555
C48_2 C49_2 1_555 1_555
C49_2 C50_2 1_555 1_555
H27_2 C53_2 1_555 1_555
C54_2 C49_2 1_555 1_555
H28_2 C54_2 1_555 1_555
Fe5 O10_2 1_555 1_555
Fe11 O11_2 1_555 1_555
C53_2 C54_2 1_555 1_555
Fe1_2 O2_2 1_555 1_555
Fe7 O1_2 1_555 1_555
Fe9 O15_2 1_555 1_555
O1_2 C1_2 1_555 1_555
O2_2 C1_2 1_555 1_555
O7_2 C13_2 1_555 1_555
O8_2 Fe7 1_555 1_555
O9_2 Fe1_2 1_555 1_555
C1_2 C2_2 1_555 1_555
C2_2 C3_2 1_555 1_555
C3_2 H1_2 1_555 1_555
C4_2 C3_2 1_555 1_555
H2_2 C4_2 1_555 1_555
C5_2 C4_2 1_555 1_555
C6_2 C5_2 1_555 1_555
H3_2 C6_2 1_555 1_555
C7_2 C2_2 1_555 1_555
H4_2 C7_2 1_555 1_555
C8_2 C5_2 1_555 1_555
C9_2 C8_2 1_555 1_555
H5_2 C9_2 1_555 1_555
C10_2 C9_2 1_555 1_555
C11_2 C10_2 1_555 1_555
H6_2 C11_2 1_555 1_555
C12_2 C11_2 1_555 1_555
C13_2 C8_2 1_555 1_555
C14_2 C15_2 1_555 1_555
C15_2 C16_2 1_555 1_555
C16_2 H7_2 1_555 1_555
C17_2 C16_2 1_555 1_555
H8_2 C17_2 1_555 1_555
C18_2 C12_2 1_555 1_555
C19_2 C18_2 1_555 1_555
H9_2 C19_2 1_555 1_555
C20_2 C15_2 1_555 1_555
H10_2 C20_2 1_555 1_555
C28_2 O8_2 1_555 1_555
C29_2 C28_2 1_555 1_555
C34_2 C29_2 1_555 1_555
H18_2 C34_2 1_555 1_555
C55_2 O7_2 1_555 1_555
H29_2 C55_2 1_555 1_555
H30_2 C55_2 1_555 1_555
C56_2 C55_2 1_555 1_555
H31_2 C56_2 1_555 1_555
H32_2 C56_2 1_555 1_555
C57_2 C56_2 1_555 1_555
H33_2 C57_2 1_555 1_555
H34_2 C57_2 1_555 1_555
C58_2 C57_2 1_555 1_555
H35_2 C58_2 1_555 1_555
H36_2 C58_2 1_555 1_555
O15_2 Fe1_2 1_555 1_555
O16_2 Fe7 1_555 1_555
O17_2 Fe9 1_555 1_555
O18_2 Fe1_2 1_555 1_555
O21_2 Fe7 1_555 1_555
O22_2 Fe9 1_555 1_555
O23_2 Fe1_2 1_555 1_555
O24_2 Fe9 1_555 1_555
O25_2 Fe1_2 1_555 1_555
O26_2 Fe9 1_555 1_555
Fe7 O15_2 1_555 1_555
O9_2 C28_2 1_555 1_555
C6_2 C7_2 1_555 1_555
C12_2 C13_2 1_555 1_555
C17_2 C18_2 1_555 1_555
C19_2 C20_2 1_555 1_555
O16_2 H55_2 1_555 1_555
O16_2 H56_2 1_555 1_555
O17_2 H57_2 1_555 1_555
O18_2 H59_2 1_555 1_555
O18_2 H60_2 1_555 1_555
O12_2 C41_2 1_555 1_555
O13_2 C41_2 1_555 1_555
O14_2 C37_2 1_555 1_555
H15_2 C30_2 1_555 1_555
C31_2 C30_2 1_555 1_555
H16_2 C31_2 1_555 1_555
C32_2 C31_2 1_555 1_555
C33_2 C32_2 1_555 1_555
H17_2 C33_2 1_555 1_555
C35_2 H19_2 1_555 1_555
C36_2 C32_2 1_555 1_555
C37_2 C36_2 1_555 1_555
C38_2 C37_2 1_555 1_555
C39_2 C38_2 1_555 1_555
H20_2 C39_2 1_555 1_555
C40_2 C35_2 1_555 1_555
C41_2 C42_2 1_555 1_555
C42_2 C43_2 1_555 1_555
C43_2 H21_2 1_555 1_555
C44_2 C43_2 1_555 1_555
H22_2 C44_2 1_555 1_555
C45_2 C38_2 1_555 1_555
C46_2 C45_2 1_555 1_555
H23_2 C46_2 1_555 1_555
C47_2 C42_2 1_555 1_555
H24_2 C47_2 1_555 1_555
H26_2 C51_2 1_555 1_555
C52_2 C40_2 1_555 1_555
H37_2 C59_2 1_555 1_555
H38_2 C59_2 1_555 1_555
C60_2 C59_2 1_555 1_555
H39_2 C60_2 1_555 1_555
H40_2 C60_2 1_555 1_555
H41_2 C60_2 1_555 1_555
C61_2 O14_2 1_555 1_555
H42_2 C61_2 1_555 1_555
H43_2 C61_2 1_555 1_555
C62_2 C61_2 1_555 1_555
H44_2 C62_2 1_555 1_555
H45_2 C62_2 1_555 1_555
C63_2 C62_2 1_555 1_555
H46_2 C63_2 1_555 1_555
H47_2 C63_2 1_555 1_555
C64_2 C63_2 1_555 1_555
H48_2 C64_2 1_555 1_555
H49_2 C64_2 1_555 1_555
C65_2 C64_2 1_555 1_555
H50_2 C65_2 1_555 1_555
H51_2 C65_2 1_555 1_555
C66_2 C65_2 1_555 1_555
H52_2 C66_2 1_555 1_555
H53_2 C66_2 1_555 1_555
H54_2 C66_2 1_555 1_555
Fe4 O12_2 1_555 1_555
Fe10 O13_2 1_555 1_555
C35_2 C36_2 1_555 1_555
C39_2 C40_2 1_555 1_555
C44_2 C45_2 1_555 1_555
C46_2 C47_2 1_555 1_555
C51_2 C52_2 1_555 1_555
O3_2 C21_3 1_555 1_555
O4_2 C21_3 1_555 1_555
C21_3 C22_3 1_555 1_555
C22_3 C23_3 1_555 1_555
C23_3 H11_3 1_555 1_555
C24_3 C23_3 1_555 1_555
C26_3 C25_3 1_555 1_555
H13_3 C26_3 1_555 1_555
C27_3 C22_3 1_555 1_555
H14_3 C27_3 1_555 1_555
Fe7_2 O4_2 1_555 1_555
Fe11 O3_2 1_555 1_555
C24_3 C25_3 1_555 1_555
C26_3 C27_3 1_555 1_555
O5 C14_3 1_555 1_555
O6 C14_3 1_555 1_555
O7_3 C13_3 1_555 1_555
C6_3 C5_3 1_555 1_555
H3_3 C6_3 1_555 1_555
C8_3 C5_3 1_555 1_555
C9_3 C8_3 1_555 1_555
H5_3 C9_3 1_555 1_555
C10_3 C9_3 1_555 1_555
C11_3 C10_3 1_555 1_555
H6_3 C11_3 1_555 1_555
C12_3 C11_3 1_555 1_555
C13_3 C8_3 1_555 1_555
C14_3 C15_3 1_555 1_555
C15_3 C16_3 1_555 1_555
C16_3 H7_3 1_555 1_555
C17_3 C16_3 1_555 1_555
H8_3 C17_3 1_555 1_555
C18_3 C12_3 1_555 1_555
C19_3 C18_3 1_555 1_555
H9_3 C19_3 1_555 1_555
C20_3 C15_3 1_555 1_555
H10_3 C20_3 1_555 1_555
C55_3 O7_3 1_555 1_555
H29_3 C55_3 1_555 1_555
H30_3 C55_3 1_555 1_555
C56_3 C55_3 1_555 1_555
H31_3 C56_3 1_555 1_555
H32_3 C56_3 1_555 1_555
C57_3 C56_3 1_555 1_555
H33_3 C57_3 1_555 1_555
H34_3 C57_3 1_555 1_555
C58_3 C57_3 1_555 1_555
H35_3 C58_3 1_555 1_555
H36_3 C58_3 1_555 1_555
C59_3 C58_3 1_555 1_555
H37_3 C59_3 1_555 1_555
H38_3 C59_3 1_555 1_555
C60_3 C59_3 1_555 1_555
H39_3 C60_3 1_555 1_555
H40_3 C60_3 1_555 1_555
H41_3 C60_3 1_555 1_555
Fe6 O5 1_555 1_555
Fe10 O6 1_555 1_555
C12_3 C13_3 1_555 1_555
C17_3 C18_3 1_555 1_555
C19_3 C20_3 1_555 1_555
Fe4 O2_3 1_555 1_555
Fe6 O1_3 1_555 1_555
Fe10 O15_3 1_555 1_555
O1_3 C1_3 1_555 1_555
O2_3 C1_3 1_555 1_555
O8_3 Fe6 1_555 1_555
O9_3 Fe4 1_555 1_555
O23 C48_3 1_555 1_555
O24 C48_3 1_555 1_555
O25_2 C41_3 1_555 1_555
O26_2 C41_3 1_555 1_555
O14_3 C37_3 1_555 1_555
C1_3 C2_3 1_555 1_555
C2_3 C3_3 1_555 1_555
C3_3 H1_3 1_555 1_555
C4_3 C3_3 1_555 1_555
H2_3 C4_3 1_555 1_555
C7_3 C2_3 1_555 1_555
H4_3 C7_3 1_555 1_555
C28_3 O8_3 1_555 1_555
C29_3 C28_3 1_555 1_555
C30_3 C29_3 1_555 1_555
H15_3 C30_3 1_555 1_555
C31_3 C30_3 1_555 1_555
H16_3 C31_3 1_555 1_555
C32_3 C31_3 1_555 1_555
C33_3 C32_3 1_555 1_555
H17_3 C33_3 1_555 1_555
C34_3 C29_3 1_555 1_555
H18_3 C34_3 1_555 1_555
C35_3 H19_3 1_555 1_555
C36_3 C32_3 1_555 1_555
C37_3 C36_3 1_555 1_555
C38_3 C37_3 1_555 1_555
C39_3 C38_3 1_555 1_555
H20_3 C39_3 1_555 1_555
C40_3 C35_3 1_555 1_555
C41_3 C42_3 1_555 1_555
C42_3 C43_3 1_555 1_555
C43_3 H21_3 1_555 1_555
C44_3 C43_3 1_555 1_555
H22_3 C44_3 1_555 1_555
C45_3 C38_3 1_555 1_555
C46_3 C45_3 1_555 1_555
H23_3 C46_3 1_555 1_555
C47_3 C42_3 1_555 1_555
H24_3 C47_3 1_555 1_555
C48_3 C49_3 1_555 1_555
C49_3 C50_3 1_555 1_555
C50_3 H25_3 1_555 1_555
C51_3 C50_3 1_555 1_555
H26_3 C51_3 1_555 1_555
C52_3 C40_3 1_555 1_555
C53_3 C52_3 1_555 1_555
H27_3 C53_3 1_555 1_555
C54_3 C49_3 1_555 1_555
H28_3 C54_3 1_555 1_555
C61_3 O14_3 1_555 1_555
H42_3 C61_3 1_555 1_555
H43_3 C61_3 1_555 1_555
C62_3 C61_3 1_555 1_555
H44_3 C62_3 1_555 1_555
H45_3 C62_3 1_555 1_555
C63_3 C62_3 1_555 1_555
H46_3 C63_3 1_555 1_555
H47_3 C63_3 1_555 1_555
C64_3 C63_3 1_555 1_555
H48_3 C64_3 1_555 1_555
H49_3 C64_3 1_555 1_555
C65_3 C64_3 1_555 1_555
H50_3 C65_3 1_555 1_555
H51_3 C65_3 1_555 1_555
C66_3 C65_3 1_555 1_555
H52_3 C66_3 1_555 1_555
H53_3 C66_3 1_555 1_555
H54_3 C66_3 1_555 1_555
O15_3 Fe4 1_555 1_555
O16_3 Fe6 1_555 1_555
O17_3 Fe10 1_555 1_555
O18_3 Fe4 1_555 1_555
O19_2 Fe10 1_555 1_555
O20_2 Fe6 1_555 1_555
Fe6 O15_3 1_555 1_555
O9_3 C28_3 1_555 1_555
C33_3 C34_3 1_555 1_555
C35_3 C36_3 1_555 1_555
C39_3 C40_3 1_555 1_555
C44_3 C45_3 1_555 1_555
C46_3 C47_3 1_555 1_555
C51_3 C52_3 1_555 1_555
C53_3 C54_3 1_555 1_555
O16_3 H55_3 1_555 1_555
O16_3 H56_3 1_555 1_555
O17_3 H57_3 1_555 1_555
O17_3 H58_2 1_555 1_555
O18_3 H59_3 1_555 1_555
O18_3 H60_3 1_555 1_555
Fe7_2 O5_2 1_555 1_555
Fe11 O6_2 1_555 1_555
O25 C41_4 1_555 1_555
O26 C41_4 1_555 1_555
O14_4 C37_4 1_555 1_555
H15_4 C30_4 1_555 1_555
C31_4 C30_4 1_555 1_555
H16_4 C31_4 1_555 1_555
C32_4 C31_4 1_555 1_555
C33_4 C32_4 1_555 1_555
H17_4 C33_4 1_555 1_555
C35_4 H19_4 1_555 1_555
C36_4 C32_4 1_555 1_555
C37_4 C36_4 1_555 1_555
C38_4 C37_4 1_555 1_555
C39_4 C38_4 1_555 1_555
H20_4 C39_4 1_555 1_555
C40_4 C35_4 1_555 1_555
C41_4 C42_4 1_555 1_555
C42_4 C43_4 1_555 1_555
C43_4 H21_4 1_555 1_555
C44_4 C43_4 1_555 1_555
H22_4 C44_4 1_555 1_555
C45_4 C38_4 1_555 1_555
C46_4 C45_4 1_555 1_555
H23_4 C46_4 1_555 1_555
C47_4 C42_4 1_555 1_555
H24_4 C47_4 1_555 1_555
H26_4 C51_4 1_555 1_555
C52_4 C40_4 1_555 1_555
H37_4 C59_4 1_555 1_555
H38_4 C59_4 1_555 1_555
C60_4 C59_4 1_555 1_555
H39_4 C60_4 1_555 1_555
H40_4 C60_4 1_555 1_555
H41_4 C60_4 1_555 1_555
C61_4 O14_4 1_555 1_555
H42_4 C61_4 1_555 1_555
H43_4 C61_4 1_555 1_555
C62_4 C61_4 1_555 1_555
H44_4 C62_4 1_555 1_555
H45_4 C62_4 1_555 1_555
C63_4 C62_4 1_555 1_555
H46_4 C63_4 1_555 1_555
H47_4 C63_4 1_555 1_555
C64_4 C63_4 1_555 1_555
H48_4 C64_4 1_555 1_555
H49_4 C64_4 1_555 1_555
C65_4 C64_4 1_555 1_555
H50_4 C65_4 1_555 1_555
H51_4 C65_4 1_555 1_555
C66_4 C65_4 1_555 1_555
H52_4 C66_4 1_555 1_555
H53_4 C66_4 1_555 1_555
H54_4 C66_4 1_555 1_555
C35_4 C36_4 1_555 1_555
C39_4 C40_4 1_555 1_555
C44_4 C45_4 1_555 1_555
C46_4 C47_4 1_555 1_555
C51_4 C52_4 1_555 1_555
Fe5 O2_4 1_555 1_555
Fe7_2 O1_4 1_555 1_555
Fe11 O15_4 1_555 1_555
O1_4 C1_4 1_555 1_555
O2_4 C1_4 1_555 1_555
O7_4 C13_4 1_555 1_555
O8_4 Fe7_2 1_555 1_555
O9_4 Fe5 1_555 1_555
C1_4 C2_4 1_555 1_555
C2_4 C3_4 1_555 1_555
C3_4 H1_4 1_555 1_555
C4_4 C3_4 1_555 1_555
H2_4 C4_4 1_555 1_555
C5_4 C4_4 1_555 1_555
C6_4 C5_4 1_555 1_555
H3_4 C6_4 1_555 1_555
C7_4 C2_4 1_555 1_555
H4_4 C7_4 1_555 1_555
C8_4 C5_4 1_555 1_555
C9_4 C8_4 1_555 1_555
H5_4 C9_4 1_555 1_555
C10_4 C9_4 1_555 1_555
C11_4 C10_4 1_555 1_555
H6_4 C11_4 1_555 1_555
C12_4 C11_4 1_555 1_555
C13_4 C8_4 1_555 1_555
C14_4 C15_4 1_555 1_555
C15_4 C16_4 1_555 1_555
C16_4 H7_4 1_555 1_555
C17_4 C16_4 1_555 1_555
H8_4 C17_4 1_555 1_555
C18_4 C12_4 1_555 1_555
C19_4 C18_4 1_555 1_555
H9_4 C19_4 1_555 1_555
C20_4 C15_4 1_555 1_555
H10_4 C20_4 1_555 1_555
C28_4 O8_4 1_555 1_555
C29_4 C28_4 1_555 1_555
C34_4 C29_4 1_555 1_555
H18_4 C34_4 1_555 1_555
C55_4 O7_4 1_555 1_555
H29_4 C55_4 1_555 1_555
H30_4 C55_4 1_555 1_555
C56_4 C55_4 1_555 1_555
H31_4 C56_4 1_555 1_555
H32_4 C56_4 1_555 1_555
C57_4 C56_4 1_555 1_555
H33_4 C57_4 1_555 1_555
H34_4 C57_4 1_555 1_555
C58_4 C57_4 1_555 1_555
H35_4 C58_4 1_555 1_555
H36_4 C58_4 1_555 1_555
O15_4 Fe5 1_555 1_555
O16_4 Fe7_2 1_555 1_555
O17_4 Fe11 1_555 1_555
O18_4 Fe5 1_555 1_555
Fe7_2 O15_4 1_555 1_555
O9_4 C28_4 1_555 1_555
C6_4 C7_4 1_555 1_555
C12_4 C13_4 1_555 1_555
C17_4 C18_4 1_555 1_555
C19_4 C20_4 1_555 1_555
O16_4 H55_4 1_555 1_555
O16_4 H56_4 1_555 1_555
O17_4 H57_4 1_555 1_555
O18_4 H59_4 1_555 1_555
O18_4 H60_4 1_555 1_555
O23_2 C48_4 1_555 1_555
O24_2 C48_4 1_555 1_555
C48_4 C49_4 1_555 1_555
C49_4 C50_4 1_555 1_555
H27_4 C53_4 1_555 1_555
C54_4 C49_4 1_555 1_555
H28_4 C54_4 1_555 1_555
C53_4 C54_4 1_555 1_555
O19_2 C21_4 1_555 1_555
O20_2 C21_4 1_555 1_555
C21_4 C22_4 1_555 1_555
C22_4 C23_4 1_555 1_555
C23_4 H11_4 1_555 1_555
C24_4 C23_4 1_555 1_555
C26_4 C25_4 1_555 1_555
H13_4 C26_4 1_555 1_555
C27_4 C22_4 1_555 1_555
H14_4 C27_4 1_555 1_555
C24_4 C25_4 1_555 1_555
C26_4 C27_4 1_555 1_555

#END
