
###############################################################################
#
# This file contains modified crystal structure data generated from the
# MOF subset of the Cambridge Structural Database (CSD) v543 
# hosted by the Cambridge Crystallographic Data Centre (CCDC).
#
# This work is licensed under the Creative Commons
# Attribution-NonCommercial-ShareAlike 4.0 International License.
# To view a copy of this license, visit
# http://creativecommons.org/licenses/by-nc-sa/4.0/
# or send a letter to
# Creative Commons, PO Box 1866, Mountain View, CA 94042, USA.
#
# CIF created using the CSD Python API on 29 September 2022
# The structure has been converted into the P1 space group
# The structure has a 3D framework
# The original CSD entry TOVKIA is in the rhombohedral crystal system
# The framework has been calculated to contain at least 10.0% void space
# The void calculation uses a probe of radius 1.32A, grid spacing 0.4
# H atom positions have been added when not included in the experimental data
# Generated hydrogen atom positions removed from atoms on special positions
#
###############################################################################

data_TOVKIA
_chemical_formula_moiety         '(C450 H432 Fe26 O144)n'
_symmetry_cell_setting           triclinic
_symmetry_space_group_name_H-M   'P 1'
_symmetry_Int_Tables_number      1
_space_group_name_Hall           'P 1'
loop_
_symmetry_equiv_pos_site_id
_symmetry_equiv_pos_as_xyz
1 x,y,z
_cell_length_a                   33.020(16)
_cell_length_b                   33.020(16)
_cell_length_c                   22.796(11)
_cell_angle_alpha                90
_cell_angle_beta                 90
_cell_angle_gamma                120
_cell_volume                     21525
loop_
_atom_site_label
_atom_site_type_symbol
_atom_site_fract_x
_atom_site_fract_y
_atom_site_fract_z
Fe20 Fe 0.45091(3) 0.45009(2) 0.02498(8)
Fe22 Fe 0.54991(2) 0.54909(3) 0.02498(8)
Fe18 Fe 0.54991(2) 0.00083(2) 0.02498(8)
Fe19 Fe 0.99917(2) 0.54909(3) 0.02498(8)
Fe21 Fe 0.45091(3) 0.00083(2) 0.02498(8)
Fe23 Fe 0.99917(2) 0.45009(2) 0.02498(8)
O15 O 0.27046(12) 0.16918(17) 0.6603(2)
C49 C 0.2501(3) 0.12504(33) 0.6548(4)
C50 C 0.19926(18) 0.09963(20) 0.6442(5)
C51 C 0.17541(14) 0.12394(18) 0.6364(3)
H27 H 0.1923 0.1572 0.6350
C52 C 0.12684(14) 0.09978(18) 0.6306(3)
H28 H 0.1106 0.1164 0.6255
C53 C 0.10223(18) 0.05111(20) 0.6323(5)
C54 C 0.04869(9) 0.02434(10) 0.63238(19)
C62 C 0.02433(10) 0.04864(9) 0.63239(19)
H32 H 0.0409 0.0818 0.6324
H36 H 0.0059 0.1164 0.6255
O19 O 0.27046(12) 0.10127(12) 0.6603(2)
C67 C 0.17541(14) 0.05146(12) 0.6364(3)
H37 H 0.1923 0.0350 0.6350
C68 C 0.12684(14) 0.02705(11) 0.6306(3)
O38 O 0.31775(13) 0.11803(21) 0.83866(18)
O39 O 0.29754(13) 0.07429(18) 0.7602(2)
C113 C 0.2928(2) 0.0806(3) 0.8120(3)
C114 C 0.25422(19) 0.04288(36) 0.8424(2)
C115 C 0.2433(2) 0.0504(3) 0.8986(2)
H63 H 0.2612 0.0800 0.9168
C116 C 0.20570(19) 0.01406(28) 0.9285(2)
H64 H 0.1982 0.0192 0.9670
Fe10 Fe 0.36443(3) 0.182211(33) 0.81100(8)
Fe13 Fe 0.33251(2) 0.21575(3) 0.69164(8)
Fe17 Fe 0.33251(2) 0.11675(2) 0.69164(8)
H14 H 0.0059 0.8894 0.6255
C55 C 0.02432(5) 0.97567(10) 0.63239(19)
H29 H 0.0410 0.9591 0.6324
H38 H 0.1106 0.9941 0.6255
C101 C 0.0296(4) 0.8208(2) 0.9025(2)
C102 C 0.0364(4) 0.8093(2) 0.8457(2)
H57 H 0.0661 0.8273 0.8274
C103 C 0.0010(3) 0.7724(2) 0.8159(2)
H58 H 0.0063 0.7649 0.7775
C104 C 0.0712(4) 0.8554(2) 0.9352(3)
C105 C 0.1071(3) 0.8928(6) 0.9046(3)
H59 H 0.1061 0.8939 0.8630
C106 C 0.0730(4) 0.8542(2) 0.9960(3)
C117 C 0.1792(2) 0.9704(4) 0.9025(2)
C118 C 0.1907(2) 0.9636(4) 0.8457(2)
H65 H 0.1727 0.9339 0.8274
C119 C 0.2276(2) 0.9990(3) 0.8159(2)
H66 H 0.2351 0.9937 0.7775
C120 C 0.1446(2) 0.9288(4) 0.9352(3)
C121 C 0.1458(2) 0.9270(4) 0.9960(3)
O12 O 0.80029(17) 0.11803(21) 0.83866(18)
O13 O 0.77676(13) 0.07429(18) 0.7602(2)
C38 C 0.7879(2) 0.0806(3) 0.8120(3)
C39 C 0.7887(3) 0.04288(36) 0.8424(2)
C40 C 0.8072(2) 0.0504(3) 0.8986(2)
H20 H 0.8189 0.0800 0.9168
C41 C 0.8084(2) 0.01406(28) 0.9285(2)
H21 H 0.8211 0.0192 0.9670
O16 O 0.83082(17) 0.10127(12) 0.6603(2)
C56 C 0.87496(33) 0.12502(14) 0.6548(4)
C57 C 0.90037(20) 0.09962(9) 0.6442(5)
C58 C 0.87606(18) 0.05146(12) 0.6364(3)
H30 H 0.8428 0.0350 0.6350
C59 C 0.90022(18) 0.02705(11) 0.6306(3)
C60 C 0.94889(20) 0.05111(9) 0.6323(5)
C61 C 0.97566(10) 0.02434(5) 0.63238(19)
O18 O 0.89873(12) 0.16918(17) 0.6603(2)
C65 C 0.94854(12) 0.12394(18) 0.6364(3)
H35 H 0.9650 0.1572 0.6350
C66 C 0.97295(11) 0.09978(18) 0.6306(3)
Fe12 Fe 0.817789(33) 0.182215(13) 0.81100(8)
Fe14 Fe 0.78425(3) 0.11675(2) 0.69164(8)
Fe16 Fe 0.88325(2) 0.21575(3) 0.69164(8)
Fe1 Fe 0.817785(13) 0.63557(3) 0.81100(8)
Fe2 Fe 0.88325(2) 0.66749(2) 0.69164(8)
O1 O 0.83548(18) 0.58642(13) 0.7967(2)
O2 O 0.87899(14) 0.60783(13) 0.7170(2)
O3 O 0.80029(17) 0.68225(13) 0.83866(18)
O4 O 0.77676(13) 0.70246(13) 0.7602(2)
O6 O 0.89873(12) 0.72954(12) 0.6603(2)
O7 O 0.82896(6) 0.65791(12) 0.7318(2)
O8 O 0.80637(9) 0.61273(18) 0.8970(2)
O9 O 0.94438(14) 0.68044(16) 0.64901(18)
C1 C 0.8562(3) 0.5788(2) 0.7593(4)
C2 C 0.8606(4) 0.5371(2) 0.7624(4)
C3 C 0.8847(3) 0.5279(2) 0.7193(3)
H1 H 0.9031 0.5515 0.6915
C4 C 0.8821(4) 0.4851(2) 0.7164(3)
H2 H 0.8987 0.4792 0.6868
C5 C 0.8550(4) 0.4503(2) 0.7572(4)
C6 C 0.8312(3) 0.4592(2) 0.8005(4)
H3 H 0.8132 0.4359 0.8287
C7 C 0.8336(3) 0.5025(2) 0.8028(3)
H4 H 0.8167 0.5083 0.8321
C8 C 0.7879(2) 0.7072(2) 0.8120(3)
C9 C 0.7887(3) 0.74578(19) 0.8424(2)
C10 C 0.8072(2) 0.7567(2) 0.8986(2)
H5 H 0.8189 0.7388 0.9168
C11 C 0.8084(2) 0.79430(19) 0.9285(2)
H6 H 0.8211 0.8018 0.9670
C12 C 0.7913(3) 0.8208(2) 0.9025(2)
C13 C 0.7730(3) 0.8093(2) 0.8457(2)
H7 H 0.7613 0.8273 0.8274
C14 C 0.7715(2) 0.7724(2) 0.8159(2)
H8 H 0.7587 0.7649 0.7775
C15 C 0.7843(4) 0.8554(2) 0.9352(3)
C16 C 0.7858(5) 0.8929(3) 0.9046(3)
H9 H 0.7879 0.8939 0.8630
C17 C 0.7813(4) 0.8542(2) 0.9960(3)
C24 C 0.87498(14) 0.7499(3) 0.6548(4)
C25 C 0.90038(9) 0.80074(18) 0.6442(5)
C26 C 0.94854(12) 0.82459(14) 0.6364(3)
H13 H 0.9650 0.8077 0.6350
C27 C 0.97295(11) 0.87316(14) 0.6306(3)
C28 C 0.94889(9) 0.89777(18) 0.6323(5)
C29 C 0.97566(5) 0.95131(9) 0.63238(19)
C30 C 0.95136(9) 0.97568(5) 0.63239(19)
H15 H 0.9182 0.9590 0.6324
O10 O 0.83548(18) 0.24905(22) 0.7967(2)
O11 O 0.87899(14) 0.27115(19) 0.7170(2)
C31 C 0.8562(3) 0.2773(4) 0.7593(4)
C32 C 0.8606(4) 0.3234(4) 0.7624(4)
C33 C 0.8847(3) 0.3567(4) 0.7193(3)
H16 H 0.9031 0.3515 0.6915
C34 C 0.8821(4) 0.3969(4) 0.7164(3)
H17 H 0.8987 0.4194 0.6868
C35 C 0.8550(4) 0.4046(4) 0.7572(4)
C36 C 0.8312(3) 0.3719(4) 0.8005(4)
H18 H 0.8132 0.3772 0.8287
C37 C 0.8336(3) 0.3310(4) 0.8028(3)
H19 H 0.8167 0.3083 0.8321
C42 C 0.7913(3) 0.9704(4) 0.9025(2)
C43 C 0.7730(3) 0.9636(4) 0.8457(2)
H22 H 0.7613 0.9339 0.8274
C44 C 0.7715(2) 0.9990(3) 0.8159(2)
H23 H 0.7587 0.9937 0.7775
C45 C 0.7843(4) 0.9288(4) 0.9352(3)
C46 C 0.7813(4) 0.9270(4) 0.9960(3)
H31 H 0.8836 0.9941 0.6255
O17 O 0.83082(17) 0.72954(12) 0.6603(2)
C63 C 0.87606(18) 0.82459(14) 0.6364(3)
H33 H 0.8428 0.8077 0.6350
C64 C 0.90022(18) 0.87316(14) 0.6306(3)
H34 H 0.8836 0.8894 0.6255
O20 O 0.41358(13) 0.24905(22) 0.7967(2)
O21 O 0.39217(13) 0.27115(19) 0.7170(2)
O22 O 0.34209(12) 0.17104(13) 0.7318(2)
O23 O 0.38727(18) 0.19363(20) 0.8970(2)
O24 O 0.31956(16) 0.26393(21) 0.64901(18)
C69 C 0.4212(2) 0.2773(4) 0.7593(4)
C70 C 0.4629(2) 0.3234(4) 0.7624(4)
C71 C 0.4721(2) 0.3567(4) 0.7193(3)
H39 H 0.4485 0.3515 0.6915
C72 C 0.5149(2) 0.3969(4) 0.7164(3)
H40 H 0.5208 0.4194 0.6868
C73 C 0.5497(2) 0.4046(4) 0.7572(4)
C74 C 0.5408(2) 0.3719(4) 0.8005(4)
H41 H 0.5641 0.3772 0.8287
C75 C 0.4975(2) 0.3310(4) 0.8028(3)
H42 H 0.4917 0.3083 0.8321
O25 O 0.75095(22) 0.58642(13) 0.7967(2)
O26 O 0.72885(19) 0.60783(13) 0.7170(2)
C76 C 0.7227(4) 0.5788(2) 0.7593(4)
C77 C 0.6766(4) 0.5371(2) 0.7624(4)
C78 C 0.6433(4) 0.5279(2) 0.7193(3)
H43 H 0.6485 0.5515 0.6915
C79 C 0.6031(4) 0.4851(2) 0.7164(3)
H44 H 0.5806 0.4792 0.6868
C80 C 0.5954(4) 0.4503(2) 0.7572(4)
C81 C 0.6281(4) 0.4592(2) 0.8005(4)
H45 H 0.6228 0.4359 0.8287
C82 C 0.6690(4) 0.5025(2) 0.8028(3)
H46 H 0.6917 0.5083 0.8321
O27 O 0.75095(22) 0.16452(18) 0.7967(2)
O28 O 0.72885(19) 0.12101(14) 0.7170(2)
O29 O 0.82896(13) 0.17104(6) 0.7318(2)
O30 O 0.80637(20) 0.19363(9) 0.8970(2)
O31 O 0.73607(21) 0.05562(14) 0.64901(18)
C83 C 0.7227(4) 0.1438(3) 0.7593(4)
C84 C 0.6766(4) 0.1394(4) 0.7624(4)
C85 C 0.6433(4) 0.1153(3) 0.7193(3)
H47 H 0.6485 0.0969 0.6915
C86 C 0.6031(4) 0.1179(4) 0.7164(3)
H48 H 0.5806 0.1013 0.6868
C87 C 0.5954(4) 0.1450(4) 0.7572(4)
C88 C 0.6281(4) 0.1688(3) 0.8005(4)
H49 H 0.6228 0.1868 0.8287
C89 C 0.6690(4) 0.1664(3) 0.8028(3)
H50 H 0.6917 0.1833 0.8321
O32 O 0.41358(13) 0.16452(18) 0.7967(2)
O33 O 0.39217(13) 0.12101(14) 0.7170(2)
C90 C 0.4212(2) 0.1438(3) 0.7593(4)
C91 C 0.4629(2) 0.1394(4) 0.7624(4)
C92 C 0.4721(2) 0.1153(3) 0.7193(3)
H51 H 0.4485 0.0969 0.6915
C93 C 0.5149(2) 0.1179(4) 0.7164(3)
H52 H 0.5208 0.1013 0.6868
C94 C 0.5497(2) 0.1450(4) 0.7572(4)
C95 C 0.5408(2) 0.1688(3) 0.8005(4)
H53 H 0.5641 0.1868 0.8287
C96 C 0.4975(2) 0.1664(3) 0.8028(3)
H54 H 0.4917 0.1833 0.8321
Fe7 Fe 0.78425(3) 0.66749(2) 0.69164(8)
O34 O 0.88197(21) 0.68225(13) 0.83866(18)
O35 O 0.92571(18) 0.70246(13) 0.7602(2)
O37 O 0.73607(21) 0.68044(16) 0.64901(18)
C97 C 0.9194(3) 0.7072(2) 0.8120(3)
C98 C 0.95712(36) 0.74578(19) 0.8424(2)
C99 C 0.9496(3) 0.7567(2) 0.8986(2)
H55 H 0.9200 0.7388 0.9168
C100 C 0.98594(28) 0.79430(19) 0.9285(2)
H56 H 0.9808 0.8018 0.9670
O41 O 0.94438(14) 0.26393(21) 0.64901(18)
O42 O 0.31775(13) 0.19971(17) 0.83866(18)
O43 O 0.29754(13) 0.22324(13) 0.7602(2)
O45 O 0.31956(16) 0.05562(14) 0.64901(18)
C124 C 0.2928(2) 0.2121(2) 0.8120(3)
C125 C 0.25422(19) 0.2113(3) 0.8424(2)
C126 C 0.2433(2) 0.1928(2) 0.8986(2)
H70 H 0.2612 0.1811 0.9168
C127 C 0.20570(19) 0.1916(2) 0.9285(2)
H71 H 0.1982 0.1789 0.9670
C128 C 0.1792(2) 0.2087(3) 0.9025(2)
C129 C 0.1907(2) 0.2270(3) 0.8457(2)
H72 H 0.1727 0.2387 0.8274
C130 C 0.2276(2) 0.2285(2) 0.8159(2)
H73 H 0.2351 0.2413 0.7775
C131 C 0.1446(2) 0.2157(4) 0.9352(3)
C132 C 0.1072(6) 0.2142(5) 0.9046(3)
H74 H 0.1061 0.2121 0.8630
C133 C 0.1458(2) 0.2187(4) 0.9960(3)
C144 C 0.0296(4) 0.2087(3) 0.9025(2)
C145 C 0.0364(4) 0.2270(3) 0.8457(2)
H80 H 0.0661 0.2387 0.8274
C146 C 0.0010(3) 0.2285(2) 0.8159(2)
H81 H 0.0063 0.2413 0.7775
C147 C 0.0712(4) 0.2157(4) 0.9352(3)
C148 C 0.0730(4) 0.2187(4) 0.9960(3)
O50 O 0.88197(21) 0.19971(17) 0.83866(18)
O53 O 0.92571(18) 0.22324(13) 0.7602(2)
O55 O 0.3646(2) 0.14846(19) 0.6187(2)
O56 O 0.85154(19) 0.21618(28) 0.6187(2)
O57 O 0.78382(28) 0.6354(2) 0.6187(2)
O58 O 0.78382(28) 0.14846(19) 0.6187(2)
O59 O 0.3646(2) 0.21618(28) 0.6187(2)
O60 O 0.85154(19) 0.6354(2) 0.6187(2)
C140 C 0.9194(3) 0.2121(2) 0.8120(3)
C141 C 0.95712(36) 0.2113(3) 0.8424(2)
C142 C 0.9496(3) 0.1928(2) 0.8986(2)
H78 H 0.9200 0.1811 0.9168
C143 C 0.98594(28) 0.1916(2) 0.9285(2)
H79 H 0.9808 0.1789 0.9670
Fe10_2 Fe 0.03109(3) 0.515545(33) 0.14434(8)
O3_2 O 0.46695(17) 0.01559(13) 0.17200(18)
O4_2 O 0.44342(13) 0.03580(13) 0.0936(2)
C8_2 C 0.4545(2) 0.0406(2) 0.1454(3)
C9_2 C 0.4553(3) 0.07912(19) 0.1758(2)
C10_2 C 0.4738(2) 0.0901(2) 0.2320(2)
H5_2 H 0.4855 0.0722 0.2502
C11_2 C 0.4750(2) 0.12764(19) 0.2619(2)
H6_2 H 0.4877 0.1352 0.3004
C12_2 C 0.4579(3) 0.1542(2) 0.2359(2)
C13_2 C 0.4396(3) 0.1427(2) 0.1791(2)
H7_2 H 0.4279 0.1607 0.1608
C14_2 C 0.4381(2) 0.1058(2) 0.1493(2)
H8_2 H 0.4253 0.0983 0.1109
C15_2 C 0.4509(4) 0.1888(2) 0.2686(3)
C16_2 C 0.4524(5) 0.2263(3) 0.2380(3)
H9_2 H 0.4545 0.2273 0.1964
C17_2 C 0.4479(4) 0.1876(2) 0.3294(3)
H10 H 0.4468 0.1622 0.3503
C18 C 0.4466(5) 0.2233(2) 0.3598(3)
C19 C 0.4260(3) 0.21303(17) 0.4210(3)
C20 C 0.4172(3) 0.17208(16) 0.4496(2)
H11 H 0.4231 0.1501 0.4302
C21 C 0.3998(3) 0.16354(17) 0.5061(2)
H12 H 0.3937 0.1356 0.5254
C22 C 0.3911(4) 0.19555(19) 0.5351(3)
C23 C 0.3707(5) 0.1854(3) 0.5961(5)
O12_2 O 0.46695(17) 0.45137(21) 0.17200(18)
O13_2 O 0.44342(13) 0.40763(18) 0.0936(2)
C38_2 C 0.4545(2) 0.4140(3) 0.1454(3)
C39_2 C 0.4553(3) 0.37622(36) 0.1758(2)
C40_2 C 0.4738(2) 0.3838(3) 0.2320(2)
H20_2 H 0.4855 0.4134 0.2502
C41_2 C 0.4750(2) 0.34740(28) 0.2619(2)
H21_2 H 0.4877 0.3526 0.3004
C42_2 C 0.4579(3) 0.3038(4) 0.2359(2)
C43_2 C 0.4396(3) 0.2970(4) 0.1791(2)
H22_2 H 0.4279 0.2673 0.1608
C44_2 C 0.4381(2) 0.3324(3) 0.1493(2)
H23_2 H 0.4253 0.3271 0.1109
C45_2 C 0.4509(4) 0.2622(4) 0.2686(3)
C46_2 C 0.4479(4) 0.2604(4) 0.3294(3)
H24 H 0.4468 0.2847 0.3503
C47 C 0.4172(3) 0.24516(34) 0.4496(2)
H25 H 0.4231 0.2731 0.4302
C48 C 0.3998(3) 0.23630(34) 0.5061(2)
H26 H 0.3937 0.2582 0.5254
O34_2 O 0.54863(21) 0.01559(13) 0.17200(18)
O35_2 O 0.59237(18) 0.03580(13) 0.0936(2)
C97_2 C 0.5860(3) 0.0406(2) 0.1454(3)
C98_2 C 0.62378(36) 0.07912(19) 0.1758(2)
C99_2 C 0.6162(3) 0.0901(2) 0.2320(2)
H55_2 H 0.5866 0.0722 0.2502
C100_2 C 0.65260(28) 0.12764(19) 0.2619(2)
H56_2 H 0.6474 0.1352 0.3004
C101_2 C 0.6962(4) 0.1542(2) 0.2359(2)
C102_2 C 0.7030(4) 0.1427(2) 0.1791(2)
H57_2 H 0.7327 0.1607 0.1608
C103_2 C 0.6676(3) 0.1058(2) 0.1493(2)
H58_2 H 0.6729 0.0983 0.1109
C104_2 C 0.7378(4) 0.1888(2) 0.2686(3)
C105_2 C 0.7737(3) 0.2262(6) 0.2380(3)
H59_2 H 0.7727 0.2273 0.1964
C106_2 C 0.7396(4) 0.1876(2) 0.3294(3)
H60 H 0.7153 0.1622 0.3503
C107 C 0.7767(2) 0.2234(5) 0.3598(3)
C108 C 0.78697(17) 0.21301(34) 0.4210(3)
C109 C 0.75484(34) 0.17208(16) 0.4496(2)
H61 H 0.7269 0.1501 0.4302
C110 C 0.76370(34) 0.16354(17) 0.5061(2)
H62 H 0.7418 0.1356 0.5254
C111 C 0.80445(19) 0.19559(44) 0.5351(3)
C112 C 0.8146(3) 0.1854(6) 0.5961(5)
O38_2 O 0.98441(13) 0.45137(21) 0.17200(18)
O39_2 O 0.96420(13) 0.40763(18) 0.0936(2)
C113_2 C 0.9594(2) 0.4140(3) 0.1454(3)
C114_2 C 0.92088(19) 0.37622(36) 0.1758(2)
C115_2 C 0.9099(2) 0.3838(3) 0.2320(2)
H63_2 H 0.9278 0.4134 0.2502
C116_2 C 0.87236(19) 0.34740(28) 0.2619(2)
H64_2 H 0.8648 0.3526 0.3004
C117_2 C 0.8458(2) 0.3038(4) 0.2359(2)
C118_2 C 0.8573(2) 0.2970(4) 0.1791(2)
H65_2 H 0.8393 0.2673 0.1608
C119_2 C 0.8942(2) 0.3324(3) 0.1493(2)
H66_2 H 0.9017 0.3271 0.1109
C120_2 C 0.8112(2) 0.2622(4) 0.2686(3)
C121_2 C 0.8124(2) 0.2604(4) 0.3294(3)
H67 H 0.8378 0.2847 0.3503
C122 C 0.82792(16) 0.24516(34) 0.4496(2)
H68 H 0.8499 0.2731 0.4302
C123 C 0.83646(17) 0.23630(34) 0.5061(2)
H69 H 0.8644 0.2582 0.5254
Fe12_2 Fe 0.484455(33) 0.515549(13) 0.14434(8)
Fe1_2 Fe 0.484451(13) 0.96891(3) 0.14434(8)
O1_2 O 0.50214(18) 0.91976(13) 0.1301(2)
O2_2 O 0.54565(14) 0.94117(13) 0.0504(2)
O7_2 O 0.49562(6) 0.99125(12) 0.0652(2)
O8_2 O 0.47303(9) 0.94607(18) 0.2304(2)
C1_2 C 0.5228(3) 0.9122(2) 0.0927(4)
C2_2 C 0.5272(4) 0.8705(2) 0.0958(4)
C3_2 C 0.5513(3) 0.8613(2) 0.0527(3)
H1_2 H 0.5697 0.8849 0.0249
C4_2 C 0.5487(4) 0.8185(2) 0.0498(3)
H2_2 H 0.5653 0.8126 0.0202
C5_2 C 0.5216(4) 0.7837(2) 0.0906(4)
C6_2 C 0.4978(3) 0.7926(2) 0.1339(4)
H3_2 H 0.4798 0.7693 0.1621
C7_2 C 0.5002(3) 0.8359(2) 0.1362(3)
H4_2 H 0.4833 0.8417 0.1655
O10_2 O 0.50214(18) 0.58239(22) 0.1301(2)
O11_2 O 0.54565(14) 0.60449(19) 0.0504(2)
C31_2 C 0.5228(3) 0.6107(4) 0.0927(4)
C32_2 C 0.5272(4) 0.6568(4) 0.0958(4)
C33_2 C 0.5513(3) 0.6901(4) 0.0527(3)
H16_2 H 0.5697 0.6849 0.0249
C34_2 C 0.5487(4) 0.7303(4) 0.0498(3)
H17_2 H 0.5653 0.7528 0.0202
C35_2 C 0.5216(4) 0.7380(4) 0.0906(4)
C36_2 C 0.4978(3) 0.7053(4) 0.1339(4)
H18_2 H 0.4798 0.7106 0.1621
C37_2 C 0.5002(3) 0.6644(4) 0.1362(3)
H19_2 H 0.4833 0.6417 0.1655
O20_2 O 0.08024(13) 0.58239(22) 0.1301(2)
O21_2 O 0.05883(13) 0.60449(19) 0.0504(2)
O22_2 O 0.00875(12) 0.50438(13) 0.0652(2)
O23_2 O 0.05393(18) 0.52697(20) 0.2304(2)
C69_2 C 0.0878(2) 0.6107(4) 0.0927(4)
C70_2 C 0.1295(2) 0.6568(4) 0.0958(4)
C71_2 C 0.1387(2) 0.6901(4) 0.0527(3)
H39_2 H 0.1151 0.6849 0.0249
C72_2 C 0.1815(2) 0.7303(4) 0.0498(3)
H40_2 H 0.1874 0.7528 0.0202
C73_2 C 0.2163(2) 0.7380(4) 0.0906(4)
C74_2 C 0.2074(2) 0.7053(4) 0.1339(4)
H41_2 H 0.2307 0.7106 0.1621
C75_2 C 0.1641(2) 0.6644(4) 0.1362(3)
H42_2 H 0.1583 0.6417 0.1655
O25_2 O 0.41761(22) 0.91976(13) 0.1301(2)
O26_2 O 0.39551(19) 0.94117(13) 0.0504(2)
C76_2 C 0.3893(4) 0.9122(2) 0.0927(4)
C77_2 C 0.3432(4) 0.8705(2) 0.0958(4)
C78_2 C 0.3099(4) 0.8613(2) 0.0527(3)
H43_2 H 0.3151 0.8849 0.0249
C79_2 C 0.2697(4) 0.8185(2) 0.0498(3)
H44_2 H 0.2472 0.8126 0.0202
C80_2 C 0.2620(4) 0.7837(2) 0.0906(4)
C81_2 C 0.2947(4) 0.7926(2) 0.1339(4)
H45_2 H 0.2894 0.7693 0.1621
C82_2 C 0.3356(4) 0.8359(2) 0.1362(3)
H46_2 H 0.3583 0.8417 0.1655
O27_2 O 0.41761(22) 0.49786(18) 0.1301(2)
O28_2 O 0.39551(19) 0.45435(14) 0.0504(2)
O29_2 O 0.49562(13) 0.50438(6) 0.0652(2)
O30_2 O 0.47303(20) 0.52697(9) 0.2304(2)
C83_2 C 0.3893(4) 0.4772(3) 0.0927(4)
C84_2 C 0.3432(4) 0.4728(4) 0.0958(4)
C85_2 C 0.3099(4) 0.4487(3) 0.0527(3)
H47_2 H 0.3151 0.4303 0.0249
C86_2 C 0.2697(4) 0.4513(4) 0.0498(3)
H48_2 H 0.2472 0.4347 0.0202
C87_2 C 0.2620(4) 0.4784(4) 0.0906(4)
C88_2 C 0.2947(4) 0.5022(3) 0.1339(4)
H49_2 H 0.2894 0.5202 0.1621
C89_2 C 0.3356(4) 0.4998(3) 0.1362(3)
H50_2 H 0.3583 0.5167 0.1655
O32_2 O 0.08024(13) 0.49786(18) 0.1301(2)
O33_2 O 0.05883(13) 0.45435(14) 0.0504(2)
C90_2 C 0.0878(2) 0.4772(3) 0.0927(4)
C91_2 C 0.1295(2) 0.4728(4) 0.0958(4)
C92_2 C 0.1387(2) 0.4487(3) 0.0527(3)
H51_2 H 0.1151 0.4303 0.0249
C93_2 C 0.1815(2) 0.4513(4) 0.0498(3)
H52_2 H 0.1874 0.4347 0.0202
C94_2 C 0.2163(2) 0.4784(4) 0.0906(4)
C95_2 C 0.2074(2) 0.5022(3) 0.1339(4)
H53_2 H 0.2307 0.5202 0.1621
C96_2 C 0.1641(2) 0.4998(3) 0.1362(3)
H54_2 H 0.1583 0.5167 0.1655
O50_2 O 0.54863(21) 0.53305(17) 0.17200(18)
O53_2 O 0.59237(18) 0.55658(13) 0.0936(2)
H99 H 0.633637 0.619315 0.0115296
O42_2 O 0.98441(13) 0.53305(17) 0.17200(18)
O43_2 O 0.96420(13) 0.55658(13) 0.0936(2)
C124_2 C 0.9594(2) 0.5455(2) 0.1454(3)
C125_2 C 0.92088(19) 0.5447(3) 0.1758(2)
C126_2 C 0.9099(2) 0.5262(2) 0.2320(2)
H70_2 H 0.9278 0.5145 0.2502
C127_2 C 0.87236(19) 0.5250(2) 0.2619(2)
H71_2 H 0.8648 0.5123 0.3004
C128_2 C 0.8458(2) 0.5421(3) 0.2359(2)
C129_2 C 0.8573(2) 0.5604(3) 0.1791(2)
H72_2 H 0.8393 0.5721 0.1608
C130_2 C 0.8942(2) 0.5619(2) 0.1493(2)
H73_2 H 0.9017 0.5747 0.1109
C131_2 C 0.8112(2) 0.5491(4) 0.2686(3)
C132_2 C 0.7738(6) 0.5476(5) 0.2380(3)
H74_2 H 0.7727 0.5455 0.1964
C133_2 C 0.8124(2) 0.5521(4) 0.3294(3)
H75 H 0.8378 0.5532 0.3503
C134 C 0.7766(5) 0.5534(5) 0.3598(3)
C135 C 0.78699(34) 0.5740(3) 0.4210(3)
C136 C 0.82792(16) 0.5828(3) 0.4496(2)
H76 H 0.8499 0.5769 0.4302
C137 C 0.83646(17) 0.6002(3) 0.5061(2)
H77 H 0.8644 0.6063 0.5254
C138 C 0.80441(44) 0.6089(4) 0.5351(3)
C139 C 0.8146(6) 0.6293(5) 0.5961(5)
C140_2 C 0.5860(3) 0.5455(2) 0.1454(3)
C141_2 C 0.62378(36) 0.5447(3) 0.1758(2)
C142_2 C 0.6162(3) 0.5262(2) 0.2320(2)
H78_2 H 0.5866 0.5145 0.2502
C143_2 C 0.65260(28) 0.5250(2) 0.2619(2)
H79_2 H 0.6474 0.5123 0.3004
C144_2 C 0.6962(4) 0.5421(3) 0.2359(2)
C145_2 C 0.7030(4) 0.5604(3) 0.1791(2)
H80_2 H 0.7327 0.5721 0.1608
C146_2 C 0.6676(3) 0.5619(2) 0.1493(2)
H81_2 H 0.6729 0.5747 0.1109
C147_2 C 0.7378(4) 0.5491(4) 0.2686(3)
C148_2 C 0.7396(4) 0.5521(4) 0.3294(3)
H82 H 0.7153 0.5532 0.3503
C149 C 0.75484(34) 0.5828(3) 0.4496(2)
H83 H 0.7269 0.5769 0.4302
C150 C 0.76370(34) 0.6002(3) 0.5061(2)
H84 H 0.7418 0.6063 0.5254
H99_2 H 0.380685 0.0143219 0.0115296
H99_3 H 0.985678 0.366363 0.0115296
H99_4 H 0.985678 0.619315 0.0115296
H99_5 H 0.633637 0.0143219 0.0115296
H99_6 H 0.380685 0.366363 0.0115296
Fe1_3 Fe 0.151118(13) 0.30224(3) 0.47767(8)
Fe2_2 Fe 0.21658(2) 0.33416(2) 0.35831(8)
O1_3 O 0.16881(18) 0.25309(13) 0.4634(2)
O2_3 O 0.21232(14) 0.27450(13) 0.3837(2)
O3_3 O 0.13362(17) 0.34892(13) 0.50533(18)
O4_3 O 0.11009(13) 0.36913(13) 0.4269(2)
O5 O 0.0313(2) 0.48179(19) 0.9520(2)
O6_2 O 0.23206(12) 0.39621(12) 0.3270(2)
O7_3 O 0.16229(6) 0.32458(12) 0.3985(2)
O8_3 O 0.13970(9) 0.27940(18) 0.5637(2)
O9_2 O 0.27771(14) 0.34711(16) 0.31568(18)
C1_3 C 0.1895(3) 0.2455(2) 0.4260(4)
C2_3 C 0.1939(4) 0.2038(2) 0.4291(4)
C3_3 C 0.2180(3) 0.1946(2) 0.3860(3)
H1_3 H 0.2364 0.2182 0.3582
C4_3 C 0.2154(4) 0.1518(2) 0.3831(3)
H2_3 H 0.2320 0.1459 0.3535
C5_3 C 0.1883(4) 0.1170(2) 0.4239(4)
C6_3 C 0.1645(3) 0.1259(2) 0.4672(4)
H3_3 H 0.1465 0.1026 0.4954
C7_3 C 0.1669(3) 0.1692(2) 0.4695(3)
H4_3 H 0.1500 0.1750 0.4988
C8_3 C 0.1212(2) 0.3739(2) 0.4787(3)
C9_3 C 0.1220(3) 0.41245(19) 0.5091(2)
C10_3 C 0.1405(2) 0.4234(2) 0.5653(2)
H5_3 H 0.1522 0.4055 0.5835
C11_3 C 0.1417(2) 0.46097(19) 0.5952(2)
H6_3 H 0.1544 0.4685 0.6337
C12_3 C 0.1246(3) 0.4875(2) 0.5692(2)
C13_3 C 0.1063(3) 0.4760(2) 0.5124(2)
H7_3 H 0.0946 0.4940 0.4941
C14_3 C 0.1048(2) 0.4391(2) 0.4826(2)
H8_3 H 0.0920 0.4316 0.4442
C15_3 C 0.1176(4) 0.5221(2) 0.6019(3)
C16_3 C 0.1191(5) 0.5596(3) 0.5713(3)
H9_3 H 0.1212 0.5606 0.5297
C17_3 C 0.1146(4) 0.5209(2) 0.6627(3)
H10_2 H 0.1135 0.4955 0.6836
C18_2 C 0.1133(5) 0.5566(2) 0.6931(3)
C19_2 C 0.0927(3) 0.54636(17) 0.7543(3)
C20_2 C 0.0839(3) 0.50541(16) 0.7829(2)
H11_2 H 0.0898 0.4834 0.7635
C21_2 C 0.0665(3) 0.49687(17) 0.8394(2)
H12_2 H 0.0604 0.4689 0.8587
C22_2 C 0.0578(4) 0.52888(19) 0.8684(3)
C23_2 C 0.0374(5) 0.5187(3) 0.9294(5)
C24_2 C 0.20831(14) 0.4166(3) 0.3215(4)
C25_2 C 0.23371(9) 0.46741(18) 0.3109(5)
C26_2 C 0.28187(12) 0.49126(14) 0.3031(3)
H13_2 H 0.2983 0.4744 0.3017
C27_2 C 0.30628(11) 0.53983(14) 0.2973(3)
H14_2 H 0.3392 0.5561 0.2922
C28_2 C 0.28222(9) 0.56444(18) 0.2990(5)
C29_2 C 0.30899(5) 0.61798(9) 0.29905(19)
C30_2 C 0.28469(9) 0.64235(5) 0.29906(19)
H15_2 H 0.2515 0.6257 0.2991
C33_3 C 0.2180(3) 0.0234(4) 0.3860(3)
H16_3 H 0.2364 0.0182 0.3582
C34_3 C 0.2154(4) 0.0636(4) 0.3831(3)
H17_3 H 0.2320 0.0861 0.3535
C35_3 C 0.1883(4) 0.0713(4) 0.4239(4)
C36_3 C 0.1645(3) 0.0386(4) 0.4672(4)
H18_3 H 0.1465 0.0439 0.4954
O12_3 O 0.13362(17) 0.78470(21) 0.50533(18)
O13_3 O 0.11009(13) 0.74096(18) 0.4269(2)
O14 O 0.0313(2) 0.54951(28) 0.9520(2)
C38_3 C 0.1212(2) 0.7473(3) 0.4787(3)
C39_3 C 0.1220(3) 0.70955(36) 0.5091(2)
C40_3 C 0.1405(2) 0.7171(3) 0.5653(2)
H20_3 H 0.1522 0.7467 0.5835
C41_3 C 0.1417(2) 0.68073(28) 0.5952(2)
H21_3 H 0.1544 0.6859 0.6337
C42_3 C 0.1246(3) 0.6371(4) 0.5692(2)
C43_3 C 0.1063(3) 0.6303(4) 0.5124(2)
H22_3 H 0.0946 0.6006 0.4941
C44_3 C 0.1048(2) 0.6657(3) 0.4826(2)
H23_3 H 0.0920 0.6604 0.4442
C45_3 C 0.1176(4) 0.5955(4) 0.6019(3)
C46_3 C 0.1146(4) 0.5937(4) 0.6627(3)
H24_2 H 0.1135 0.6180 0.6836
C47_2 C 0.0839(3) 0.57849(34) 0.7829(2)
H25_2 H 0.0898 0.6064 0.7635
C48_2 C 0.0665(3) 0.56963(34) 0.8394(2)
H26_2 H 0.0604 0.5915 0.8587
O15_2 O 0.60379(12) 0.83585(17) 0.3270(2)
C49_2 C 0.5834(3) 0.79171(33) 0.3215(4)
C50_2 C 0.53259(18) 0.76630(20) 0.3109(5)
C51_2 C 0.50874(14) 0.79061(18) 0.3031(3)
H27_2 H 0.5256 0.8239 0.3017
C52_2 C 0.46017(14) 0.76645(18) 0.2973(3)
H28_2 H 0.4439 0.7831 0.2922
C53_2 C 0.43556(18) 0.71778(20) 0.2990(5)
C54_2 C 0.38202(9) 0.69101(10) 0.29905(19)
C55_2 C 0.35765(5) 0.64234(10) 0.29906(19)
H29_2 H 0.3743 0.6258 0.2991
O16_2 O 0.16415(17) 0.76794(12) 0.3270(2)
C56_2 C 0.20829(33) 0.79169(14) 0.3215(4)
C57_2 C 0.23370(20) 0.76629(9) 0.3109(5)
C58_2 C 0.20939(18) 0.71813(12) 0.3031(3)
H30_2 H 0.1761 0.7017 0.3017
C59_2 C 0.23355(18) 0.69372(11) 0.2973(3)
H31_2 H 0.2169 0.6608 0.2922
C60_2 C 0.28222(20) 0.71778(9) 0.2990(5)
C61_2 C 0.30899(10) 0.69101(5) 0.29905(19)
C62_2 C 0.35766(10) 0.71531(9) 0.29906(19)
H32_2 H 0.3742 0.7485 0.2991
O17_2 O 0.16415(17) 0.39621(12) 0.3270(2)
C63_2 C 0.20939(18) 0.49126(14) 0.3031(3)
H33_2 H 0.1761 0.4744 0.3017
C64_2 C 0.23355(18) 0.53983(14) 0.2973(3)
H34_2 H 0.2169 0.5561 0.2922
O18_2 O 0.23206(12) 0.83585(17) 0.3270(2)
C65_2 C 0.28187(12) 0.79061(18) 0.3031(3)
H35_2 H 0.2983 0.8239 0.3017
C66_2 C 0.30628(11) 0.76645(18) 0.2973(3)
H36_2 H 0.3392 0.7831 0.2922
O19_2 O 0.60379(12) 0.76794(12) 0.3270(2)
C67_2 C 0.50874(14) 0.71813(12) 0.3031(3)
H37_2 H 0.5256 0.7017 0.3017
C68_2 C 0.46017(14) 0.69372(11) 0.2973(3)
H38_2 H 0.4439 0.6608 0.2922
O25_3 O 0.08428(22) 0.25309(13) 0.4634(2)
O26_3 O 0.06218(19) 0.27450(13) 0.3837(2)
C76_3 C 0.0560(4) 0.2455(2) 0.4260(4)
C77_3 C 0.0099(4) 0.2038(2) 0.4291(4)
C82_3 C 0.0023(4) 0.1692(2) 0.4695(3)
H46_3 H 0.0250 0.1750 0.4988
Fe7_2 Fe 0.11758(3) 0.33416(2) 0.35831(8)
O34_3 O 0.21530(21) 0.34892(13) 0.50533(18)
O35_3 O 0.25904(18) 0.36913(13) 0.4269(2)
O36 O 0.45049(28) 0.48179(19) 0.9520(2)
O37_2 O 0.06940(21) 0.34711(16) 0.31568(18)
C97_3 C 0.2527(3) 0.3739(2) 0.4787(3)
C98_3 C 0.29045(36) 0.41245(19) 0.5091(2)
C99_3 C 0.2829(3) 0.4234(2) 0.5653(2)
H55_3 H 0.2533 0.4055 0.5835
C100_3 C 0.31927(28) 0.46097(19) 0.5952(2)
H56_3 H 0.3141 0.4685 0.6337
C101_3 C 0.3629(4) 0.4875(2) 0.5692(2)
C102_3 C 0.3697(4) 0.4760(2) 0.5124(2)
H57_3 H 0.3994 0.4940 0.4941
C103_3 C 0.3343(3) 0.4391(2) 0.4826(2)
H58_3 H 0.3396 0.4316 0.4442
C104_3 C 0.4045(4) 0.5221(2) 0.6019(3)
C105_3 C 0.4404(3) 0.5595(6) 0.5713(3)
H59_3 H 0.4394 0.5606 0.5297
C106_3 C 0.4063(4) 0.5209(2) 0.6627(3)
H60_2 H 0.3820 0.4955 0.6836
C107_2 C 0.4434(2) 0.5567(5) 0.6931(3)
C108_2 C 0.45364(17) 0.54634(34) 0.7543(3)
C109_2 C 0.42151(34) 0.50541(16) 0.7829(2)
H61_2 H 0.3936 0.4834 0.7635
C110_2 C 0.43037(34) 0.49687(17) 0.8394(2)
H62_2 H 0.4085 0.4689 0.8587
C111_2 C 0.47112(19) 0.52892(44) 0.8684(3)
C112_2 C 0.4813(3) 0.5187(6) 0.9294(5)
O38_3 O 0.65108(13) 0.78470(21) 0.50533(18)
O39_3 O 0.63087(13) 0.74096(18) 0.4269(2)
O40 O 0.51821(19) 0.54951(28) 0.9520(2)
C113_3 C 0.6261(2) 0.7473(3) 0.4787(3)
C114_3 C 0.58755(19) 0.70955(36) 0.5091(2)
C115_3 C 0.5766(2) 0.7171(3) 0.5653(2)
H63_3 H 0.5945 0.7467 0.5835
C116_3 C 0.53903(19) 0.68073(28) 0.5952(2)
H64_3 H 0.5315 0.6859 0.6337
C117_3 C 0.5125(2) 0.6371(4) 0.5692(2)
C118_3 C 0.5240(2) 0.6303(4) 0.5124(2)
H65_3 H 0.5060 0.6006 0.4941
C119_3 C 0.5609(2) 0.6657(3) 0.4826(2)
H66_3 H 0.5684 0.6604 0.4442
C120_3 C 0.4779(2) 0.5955(4) 0.6019(3)
C121_3 C 0.4791(2) 0.5937(4) 0.6627(3)
H67_2 H 0.5045 0.6180 0.6836
C122_2 C 0.49459(16) 0.57849(34) 0.7829(2)
H68_2 H 0.5166 0.6064 0.7635
C123_2 C 0.50313(17) 0.56963(34) 0.8394(2)
H69_2 H 0.5311 0.5915 0.8587
Fe10_3 Fe 0.69776(3) 0.848878(33) 0.47767(8)
Fe12_3 Fe 0.151122(33) 0.848882(13) 0.47767(8)
Fe13_2 Fe 0.66584(2) 0.88242(3) 0.35831(8)
Fe14_2 Fe 0.11758(3) 0.78342(2) 0.35831(8)
Fe16_2 Fe 0.21658(2) 0.88242(3) 0.35831(8)
Fe17_2 Fe 0.66584(2) 0.78342(2) 0.35831(8)
O57_2 O 0.11716(28) 0.3020(2) 0.2853(2)
O60_2 O 0.18488(19) 0.3020(2) 0.2853(2)
O10_3 O 0.16881(18) 0.91572(22) 0.4634(2)
O11_3 O 0.21232(14) 0.93782(19) 0.3837(2)
C31_3 C 0.1895(3) 0.9440(4) 0.4260(4)
C32_3 C 0.1939(4) 0.9901(4) 0.4291(4)
C37_3 C 0.1669(3) 0.9977(4) 0.4695(3)
H19_3 H 0.1500 0.9750 0.4988
O27_3 O 0.08428(22) 0.83119(18) 0.4634(2)
O28_3 O 0.06218(19) 0.78768(14) 0.3837(2)
O29_3 O 0.16229(13) 0.83771(6) 0.3985(2)
O30_3 O 0.13970(20) 0.86030(9) 0.5637(2)
O31_2 O 0.06940(21) 0.72229(14) 0.31568(18)
C83_3 C 0.0560(4) 0.8105(3) 0.4260(4)
C84_3 C 0.0099(4) 0.8061(4) 0.4291(4)
C89_3 C 0.0023(4) 0.8331(3) 0.4695(3)
H50_3 H 0.0250 0.8500 0.4988
O41_2 O 0.27771(14) 0.93060(21) 0.31568(18)
O50_3 O 0.21530(21) 0.86638(17) 0.50533(18)
O53_3 O 0.25904(18) 0.88991(13) 0.4269(2)
O56_2 O 0.18488(19) 0.88284(28) 0.2853(2)
O58_2 O 0.11716(28) 0.81512(19) 0.2853(2)
O20_3 O 0.74691(13) 0.91572(22) 0.4634(2)
O21_3 O 0.72550(13) 0.93782(19) 0.3837(2)
O22_3 O 0.67542(12) 0.83771(13) 0.3985(2)
O23_3 O 0.72060(18) 0.86030(20) 0.5637(2)
O24_2 O 0.65289(16) 0.93060(21) 0.31568(18)
C69_3 C 0.7545(2) 0.9440(4) 0.4260(4)
C70_3 C 0.7962(2) 0.9901(4) 0.4291(4)
C75_3 C 0.8308(2) 0.9977(4) 0.4695(3)
H42_3 H 0.8250 0.9750 0.4988
C85_3 C 0.9766(4) 0.7820(3) 0.3860(3)
H47_3 H 0.9818 0.7636 0.3582
C86_3 C 0.9364(4) 0.7846(4) 0.3831(3)
H48_3 H 0.9139 0.7680 0.3535
C87_3 C 0.9287(4) 0.8117(4) 0.4239(4)
C88_3 C 0.9614(4) 0.8355(3) 0.4672(4)
H49_3 H 0.9561 0.8535 0.4954
O32_3 O 0.74691(13) 0.83119(18) 0.4634(2)
O33_3 O 0.72550(13) 0.78768(14) 0.3837(2)
C90_3 C 0.7545(2) 0.8105(3) 0.4260(4)
C91_3 C 0.7962(2) 0.8061(4) 0.4291(4)
C92_3 C 0.8054(2) 0.7820(3) 0.3860(3)
H51_3 H 0.7818 0.7636 0.3582
C93_3 C 0.8482(2) 0.7846(4) 0.3831(3)
H52_3 H 0.8541 0.7680 0.3535
C94_3 C 0.8830(2) 0.8117(4) 0.4239(4)
C95_3 C 0.8741(2) 0.8355(3) 0.4672(4)
H53_3 H 0.8974 0.8535 0.4954
C96_3 C 0.8308(2) 0.8331(3) 0.4695(3)
H54_3 H 0.8250 0.8500 0.4988
O42_3 O 0.65108(13) 0.86638(17) 0.50533(18)
O43_3 O 0.63087(13) 0.88991(13) 0.4269(2)
O44 O 0.51821(19) 0.9687(2) 0.9520(2)
O45_2 O 0.65289(16) 0.72229(14) 0.31568(18)
C124_3 C 0.6261(2) 0.8788(2) 0.4787(3)
C125_3 C 0.58755(19) 0.8780(3) 0.5091(2)
C126_3 C 0.5766(2) 0.8595(2) 0.5653(2)
H70_3 H 0.5945 0.8478 0.5835
C127_3 C 0.53903(19) 0.8583(2) 0.5952(2)
H71_3 H 0.5315 0.8456 0.6337
C128_3 C 0.5125(2) 0.8754(3) 0.5692(2)
C129_3 C 0.5240(2) 0.8937(3) 0.5124(2)
H72_3 H 0.5060 0.9054 0.4941
C130_3 C 0.5609(2) 0.8952(2) 0.4826(2)
H73_3 H 0.5684 0.9080 0.4442
C131_3 C 0.4779(2) 0.8824(4) 0.6019(3)
C132_3 C 0.4405(6) 0.8809(5) 0.5713(3)
H74_3 H 0.4394 0.8788 0.5297
C133_3 C 0.4791(2) 0.8854(4) 0.6627(3)
H75_2 H 0.5045 0.8865 0.6836
C134_2 C 0.4433(5) 0.8867(5) 0.6931(3)
C135_2 C 0.45366(34) 0.9073(3) 0.7543(3)
C136_2 C 0.49459(16) 0.9161(3) 0.7829(2)
H76_2 H 0.5166 0.9102 0.7635
C137_2 C 0.50313(17) 0.9335(3) 0.8394(2)
H77_2 H 0.5311 0.9396 0.8587
C138_2 C 0.47108(44) 0.9422(4) 0.8684(3)
C139_2 C 0.4813(6) 0.9626(5) 0.9294(5)
O48 O 0.45049(28) 0.9687(2) 0.9520(2)
C140_3 C 0.2527(3) 0.8788(2) 0.4787(3)
C141_3 C 0.29045(36) 0.8780(3) 0.5091(2)
C142_3 C 0.2829(3) 0.8595(2) 0.5653(2)
H78_3 H 0.2533 0.8478 0.5835
C143_3 C 0.31927(28) 0.8583(2) 0.5952(2)
H79_3 H 0.3141 0.8456 0.6337
C144_3 C 0.3629(4) 0.8754(3) 0.5692(2)
C145_3 C 0.3697(4) 0.8937(3) 0.5124(2)
H80_3 H 0.3994 0.9054 0.4941
C146_3 C 0.3343(3) 0.8952(2) 0.4826(2)
H81_3 H 0.3396 0.9080 0.4442
C147_3 C 0.4045(4) 0.8824(4) 0.6019(3)
C148_3 C 0.4063(4) 0.8854(4) 0.6627(3)
H82_2 H 0.3820 0.8865 0.6836
C149_2 C 0.42151(34) 0.9161(3) 0.7829(2)
H83_2 H 0.3936 0.9102 0.7635
C150_2 C 0.43037(34) 0.9335(3) 0.8394(2)
H84_2 H 0.4085 0.9396 0.8587
O55_2 O 0.6980(2) 0.81512(19) 0.2853(2)
O59_2 O 0.6980(2) 0.88284(28) 0.2853(2)
H60_3 H 0.0487 0.8288 0.0169
C107_3 C 0.1101(2) 0.8900(5) 0.0264(3)
C108_3 C 0.12031(17) 0.87967(34) 0.0876(3)
C109_3 C 0.08818(34) 0.83874(16) 0.1162(2)
H61_3 H 0.0603 0.8167 0.0968
C110_3 C 0.09704(34) 0.83020(17) 0.1727(2)
H62_3 H 0.0752 0.8022 0.1920
C111_3 C 0.13779(19) 0.86225(44) 0.2017(3)
C112_3 C 0.1480(3) 0.8520(6) 0.2627(5)
H67_3 H 0.1712 0.9513 0.0169
C122_3 C 0.16126(16) 0.91182(34) 0.1162(2)
H68_3 H 0.1833 0.9397 0.0968
C123_3 C 0.16980(17) 0.90296(34) 0.1727(2)
H69_3 H 0.1978 0.9248 0.1920
H10_3 H 0.7802 0.8288 0.0169
C18_3 C 0.7800(5) 0.8899(2) 0.0264(3)
C19_3 C 0.7594(3) 0.87969(17) 0.0876(3)
C20_3 C 0.7506(3) 0.83874(16) 0.1162(2)
H11_3 H 0.7565 0.8167 0.0968
C21_3 C 0.7332(3) 0.83020(17) 0.1727(2)
H12_3 H 0.7271 0.8022 0.1920
C22_3 C 0.7245(4) 0.86221(19) 0.2017(3)
C23_3 C 0.7041(5) 0.8520(3) 0.2627(5)
H24_3 H 0.7802 0.9513 0.0169
C47_3 C 0.7506(3) 0.91182(34) 0.1162(2)
H25_3 H 0.7565 0.9397 0.0968
C48_3 C 0.7332(3) 0.90296(34) 0.1727(2)
H26_3 H 0.7271 0.9248 0.1920
H75_3 H 0.1712 0.2198 0.0169
C134_3 C 0.1100(5) 0.2200(5) 0.0264(3)
C135_3 C 0.12033(34) 0.2406(3) 0.0876(3)
C136_3 C 0.16126(16) 0.2494(3) 0.1162(2)
H76_3 H 0.1833 0.2435 0.0968
C137_3 C 0.16980(17) 0.2668(3) 0.1727(2)
H77_3 H 0.1978 0.2729 0.1920
C138_3 C 0.13775(44) 0.2755(4) 0.2017(3)
C139_3 C 0.1480(6) 0.2959(5) 0.2627(5)
H82_3 H 0.0487 0.2198 0.0169
C149_3 C 0.08818(34) 0.2494(3) 0.1162(2)
H83_3 H 0.0603 0.2435 0.0968
C150_3 C 0.09704(34) 0.2668(3) 0.1727(2)
H84_3 H 0.0752 0.2729 0.1920
O6_3 O 0.56539(12) 0.06288(12) 0.9937(2)
O9_3 O 0.61104(14) 0.01378(16) 0.98235(18)
C24_3 C 0.54164(14) 0.0833(3) 0.9882(4)
C25_3 C 0.56704(9) 0.13408(18) 0.9776(5)
C26_3 C 0.61520(12) 0.15793(14) 0.9698(3)
H13_3 H 0.6316 0.1411 0.9684
C27_3 C 0.63961(11) 0.20650(14) 0.9640(3)
H14_3 H 0.6725 0.2228 0.9589
C28_3 C 0.61555(9) 0.23111(18) 0.9657(5)
C29_3 C 0.64232(5) 0.28465(9) 0.96572(19)
C30_3 C 0.61802(9) 0.30902(5) 0.96573(19)
H15_3 H 0.5848 0.2924 0.9658
O15_3 O 0.93712(12) 0.50252(17) 0.9937(2)
C49_3 C 0.9167(3) 0.45838(33) 0.9882(4)
C50_3 C 0.86592(18) 0.43297(20) 0.9776(5)
C51_3 C 0.84207(14) 0.45728(18) 0.9698(3)
H27_3 H 0.8589 0.4906 0.9684
C52_3 C 0.79350(14) 0.43312(18) 0.9640(3)
H28_3 H 0.7772 0.4498 0.9589
C53_3 C 0.76889(18) 0.38445(20) 0.9657(5)
C54_3 C 0.71535(9) 0.35768(10) 0.96572(19)
C55_3 C 0.69098(5) 0.30901(10) 0.96573(19)
H29_3 H 0.7076 0.2925 0.9658
O16_3 O 0.49748(17) 0.43461(12) 0.9937(2)
C56_3 C 0.54162(33) 0.45836(14) 0.9882(4)
C57_3 C 0.56703(20) 0.43296(9) 0.9776(5)
C58_3 C 0.54272(18) 0.38480(12) 0.9698(3)
H30_3 H 0.5094 0.3684 0.9684
C59_3 C 0.56688(18) 0.36039(11) 0.9640(3)
H31_3 H 0.5502 0.3275 0.9589
C60_3 C 0.61555(20) 0.38445(9) 0.9657(5)
C61_3 C 0.64232(10) 0.35768(5) 0.96572(19)
C62_3 C 0.69099(10) 0.38198(9) 0.96573(19)
H32_3 H 0.7075 0.4152 0.9658
O17_3 O 0.49748(17) 0.06288(12) 0.9937(2)
C63_3 C 0.54272(18) 0.15793(14) 0.9698(3)
H33_3 H 0.5094 0.1411 0.9684
C64_3 C 0.56688(18) 0.20650(14) 0.9640(3)
H34_3 H 0.5502 0.2228 0.9589
O18_3 O 0.56539(12) 0.50252(17) 0.9937(2)
C65_3 C 0.61520(12) 0.45728(18) 0.9698(3)
H35_3 H 0.6316 0.4906 0.9684
C66_3 C 0.63961(11) 0.43312(18) 0.9640(3)
H36_3 H 0.6725 0.4498 0.9589
O19_3 O 0.93712(12) 0.43461(12) 0.9937(2)
C67_3 C 0.84207(14) 0.38480(12) 0.9698(3)
H37_3 H 0.8589 0.3684 0.9684
C68_3 C 0.79350(14) 0.36039(11) 0.9640(3)
H38_3 H 0.7772 0.3275 0.9589
O37_3 O 0.40273(21) 0.01378(16) 0.98235(18)
O31_3 O 0.40273(21) 0.38896(14) 0.98235(18)
O41_3 O 0.61104(14) 0.59727(21) 0.98235(18)
H87 H 0.603676 0.988721 0.953128
H89 H 0.0112794 0.614955 0.953128
H102 H 0.0129854 0.39569 0.956313
O24_3 O 0.98622(16) 0.59727(21) 0.98235(18)
O45_3 O 0.98622(16) 0.38896(14) 0.98235(18)
H102_2 H 0.382705 0.987015 0.956313
H87_2 H 0.385045 0.988721 0.953128
H97 H 0.0112794 0.396324 0.953128
H102_3 H 0.0129854 0.617295 0.956313
H102_4 H 0.60431 0.987015 0.956313
C71_3 C 0.8054(2) 0.0234(4) 0.3860(3)
H39_3 H 0.7818 0.0182 0.3582
C72_3 C 0.8482(2) 0.0636(4) 0.3831(3)
H40_3 H 0.8541 0.0861 0.3535
C73_3 C 0.8830(2) 0.0713(4) 0.4239(4)
C74_3 C 0.8741(2) 0.0386(4) 0.4672(4)
H41_3 H 0.8974 0.0439 0.4954
C78_3 C 0.9766(4) 0.1946(2) 0.3860(3)
H43_3 H 0.9818 0.2182 0.3582
C79_3 C 0.9364(4) 0.1518(2) 0.3831(3)
H44_3 H 0.9139 0.1459 0.3535
C80_3 C 0.9287(4) 0.1170(2) 0.4239(4)
C81_3 C 0.9614(4) 0.1259(2) 0.4672(4)
H45_3 H 0.9561 0.1026 0.4954
loop_
_geom_bond_atom_site_label_1
_geom_bond_atom_site_label_2
_geom_bond_site_symmetry_1
_geom_bond_site_symmetry_2
O15 C49 1_555 1_555
C49 C50 1_555 1_555
C50 C51 1_555 1_555
C51 H27 1_555 1_555
C52 C51 1_555 1_555
H28 C52 1_555 1_555
C53 C52 1_555 1_555
C54 C53 1_555 1_555
C62 C54 1_555 1_555
H32 C62 1_555 1_555
O19 C49 1_555 1_555
C67 C50 1_555 1_555
H37 C67 1_555 1_555
C68 C53 1_555 1_555
O38 C113 1_555 1_555
O39 C113 1_555 1_555
C113 C114 1_555 1_555
C114 C115 1_555 1_555
C115 H63 1_555 1_555
C116 C115 1_555 1_555
H64 C116 1_555 1_555
Fe10 O38 1_555 1_555
Fe13 O15 1_555 1_555
Fe17 O19 1_555 1_555
C67 C68 1_555 1_555
O39 Fe17 1_555 1_555
H29 C55 1_555 1_555
C102 C101 1_555 1_555
H57 C102 1_555 1_555
H58 C103 1_555 1_555
C104 C101 1_555 1_555
C105 C104 1_555 1_555
H59 C105 1_555 1_555
C106 C104 1_555 1_555
C118 C117 1_555 1_555
H65 C118 1_555 1_555
H66 C119 1_555 1_555
C120 C105 1_555 1_555
C102 C103 1_555 1_555
C117 C120 1_555 1_555
C118 C119 1_555 1_555
C120 C121 1_555 1_555
O12 C38 1_555 1_555
O13 C38 1_555 1_555
C38 C39 1_555 1_555
C39 C40 1_555 1_555
C40 H20 1_555 1_555
C41 C40 1_555 1_555
H21 C41 1_555 1_555
O16 C56 1_555 1_555
C56 C57 1_555 1_555
C57 C58 1_555 1_555
C58 H30 1_555 1_555
C59 C58 1_555 1_555
C60 C59 1_555 1_555
O18 C56 1_555 1_555
C65 C57 1_555 1_555
H35 C65 1_555 1_555
C66 C60 1_555 1_555
Fe12 O12 1_555 1_555
Fe14 O13 1_555 1_555
Fe16 O18 1_555 1_555
O16 Fe14 1_555 1_555
C60 C61 1_555 1_555
C65 C66 1_555 1_555
Fe1 O1 1_555 1_555
Fe2 O2 1_555 1_555
O1 C1 1_555 1_555
O2 C1 1_555 1_555
O3 Fe1 1_555 1_555
O4 C8 1_555 1_555
O6 Fe2 1_555 1_555
O7 Fe1 1_555 1_555
O8 Fe1 1_555 1_555
O9 Fe2 1_555 1_555
C1 C2 1_555 1_555
C2 C3 1_555 1_555
C3 H1 1_555 1_555
C4 C3 1_555 1_555
H2 C4 1_555 1_555
C5 C4 1_555 1_555
C6 C5 1_555 1_555
H3 C6 1_555 1_555
C7 C2 1_555 1_555
H4 C7 1_555 1_555
C8 O3 1_555 1_555
C9 C8 1_555 1_555
C10 C9 1_555 1_555
H5 C10 1_555 1_555
C11 C10 1_555 1_555
H6 C11 1_555 1_555
C12 C11 1_555 1_555
C13 C12 1_555 1_555
H7 C13 1_555 1_555
C14 C9 1_555 1_555
H8 C14 1_555 1_555
C15 C12 1_555 1_555
C16 C15 1_555 1_555
H9 C16 1_555 1_555
C17 C15 1_555 1_555
C24 O6 1_555 1_555
C25 C24 1_555 1_555
C26 C25 1_555 1_555
H13 C26 1_555 1_555
C27 C26 1_555 1_555
C28 C27 1_555 1_555
C29 C28 1_555 1_555
C30 C29 1_555 1_555
H15 C30 1_555 1_555
O10 C31 1_555 1_555
O11 C31 1_555 1_555
C31 C32 1_555 1_555
C32 C33 1_555 1_555
C33 H16 1_555 1_555
C34 C33 1_555 1_555
H17 C34 1_555 1_555
C35 C5 1_555 1_555
C36 C35 1_555 1_555
H18 C36 1_555 1_555
C37 C32 1_555 1_555
H19 C37 1_555 1_555
C43 C42 1_555 1_555
H22 C43 1_555 1_555
H23 C44 1_555 1_555
C45 C16 1_555 1_555
O17 C24 1_555 1_555
C63 C25 1_555 1_555
H33 C63 1_555 1_555
C64 C28 1_555 1_555
H34 C64 1_555 1_555
Fe10 O20 1_555 1_555
Fe13 O21 1_555 1_555
O20 C69 1_555 1_555
O21 C69 1_555 1_555
O22 Fe10 1_555 1_555
O23 Fe10 1_555 1_555
O24 Fe13 1_555 1_555
C69 C70 1_555 1_555
C70 C71 1_555 1_555
C71 H39 1_555 1_555
C72 C71 1_555 1_555
H40 C72 1_555 1_555
C73 C72 1_555 1_555
C74 C73 1_555 1_555
H41 C74 1_555 1_555
C75 C70 1_555 1_555
H42 C75 1_555 1_555
O25 Fe1 1_555 1_555
O26 C76 1_555 1_555
C76 O25 1_555 1_555
C77 C76 1_555 1_555
C78 C77 1_555 1_555
H43 C78 1_555 1_555
C79 C78 1_555 1_555
H44 C79 1_555 1_555
C80 C73 1_555 1_555
C81 C80 1_555 1_555
H45 C81 1_555 1_555
C82 C77 1_555 1_555
H46 C82 1_555 1_555
Fe12 O10 1_555 1_555
Fe14 O28 1_555 1_555
O27 Fe12 1_555 1_555
O28 C83 1_555 1_555
O29 Fe12 1_555 1_555
O30 Fe12 1_555 1_555
O31 Fe14 1_555 1_555
C83 O27 1_555 1_555
C84 C83 1_555 1_555
C85 C84 1_555 1_555
H47 C85 1_555 1_555
C86 C85 1_555 1_555
H48 C86 1_555 1_555
C87 C86 1_555 1_555
C88 C87 1_555 1_555
H49 C88 1_555 1_555
C89 C84 1_555 1_555
H50 C89 1_555 1_555
O32 Fe10 1_555 1_555
O33 C90 1_555 1_555
C90 O32 1_555 1_555
C91 C90 1_555 1_555
C92 C91 1_555 1_555
H51 C92 1_555 1_555
C93 C92 1_555 1_555
H52 C93 1_555 1_555
C94 C87 1_555 1_555
C95 C94 1_555 1_555
H53 C95 1_555 1_555
C96 C91 1_555 1_555
H54 C96 1_555 1_555
Fe7 O4 1_555 1_555
O34 Fe1 1_555 1_555
O35 Fe2 1_555 1_555
O37 Fe7 1_555 1_555
C97 O34 1_555 1_555
C98 C97 1_555 1_555
C99 C98 1_555 1_555
H55 C99 1_555 1_555
C100 C99 1_555 1_555
H56 C100 1_555 1_555
Fe16 O11 1_555 1_555
O41 Fe16 1_555 1_555
Fe17 O22 1_555 1_555
O42 Fe10 1_555 1_555
O43 Fe13 1_555 1_555
O45 Fe17 1_555 1_555
C124 O42 1_555 1_555
C125 C124 1_555 1_555
C126 C125 1_555 1_555
H70 C126 1_555 1_555
C127 C126 1_555 1_555
H71 C127 1_555 1_555
C128 C127 1_555 1_555
C129 C128 1_555 1_555
H72 C129 1_555 1_555
C130 C125 1_555 1_555
H73 C130 1_555 1_555
C131 C128 1_555 1_555
C132 C131 1_555 1_555
H74 C132 1_555 1_555
C133 C131 1_555 1_555
C145 C144 1_555 1_555
H80 C145 1_555 1_555
H81 C146 1_555 1_555
C147 C132 1_555 1_555
O50 Fe12 1_555 1_555
O53 Fe16 1_555 1_555
O55 Fe17 1_555 1_555
O56 Fe16 1_555 1_555
O57 Fe7 1_555 1_555
O58 Fe14 1_555 1_555
O59 Fe13 1_555 1_555
O60 Fe2 1_555 1_555
Fe2 O7 1_555 1_555
O7 Fe7 1_555 1_555
C6 C7 1_555 1_555
C13 C14 1_555 1_555
C34 C35 1_555 1_555
C36 C37 1_555 1_555
C42 C45 1_555 1_555
C43 C44 1_555 1_555
C45 C46 1_555 1_555
O17 Fe7 1_555 1_555
C63 C64 1_555 1_555
Fe13 O22 1_555 1_555
C74 C75 1_555 1_555
O26 Fe7 1_555 1_555
C79 C80 1_555 1_555
C81 C82 1_555 1_555
Fe14 O29 1_555 1_555
O29 Fe16 1_555 1_555
C88 C89 1_555 1_555
O33 Fe17 1_555 1_555
C93 C94 1_555 1_555
C95 C96 1_555 1_555
O35 C97 1_555 1_555
O43 C124 1_555 1_555
C129 C130 1_555 1_555
C144 C147 1_555 1_555
C145 C146 1_555 1_555
C147 C148 1_555 1_555
O50 C140 1_555 1_555
O53 C140 1_555 1_555
C140 C141 1_555 1_555
C141 C142 1_555 1_555
C142 H78 1_555 1_555
C143 C142 1_555 1_555
H79 C143 1_555 1_555
O4_2 C8_2 1_555 1_555
O55 C23 1_555 1_555
C8_2 O3_2 1_555 1_555
C9_2 C8_2 1_555 1_555
C10_2 C9_2 1_555 1_555
H5_2 C10_2 1_555 1_555
C11_2 C10_2 1_555 1_555
H6_2 C11_2 1_555 1_555
C12_2 C11_2 1_555 1_555
C13_2 C12_2 1_555 1_555
H7_2 C13_2 1_555 1_555
C14_2 C9_2 1_555 1_555
H8_2 C14_2 1_555 1_555
C15_2 C12_2 1_555 1_555
C16_2 C15_2 1_555 1_555
H9_2 C16_2 1_555 1_555
C17_2 C15_2 1_555 1_555
H10 C17_2 1_555 1_555
C18 C17_2 1_555 1_555
C19 C18 1_555 1_555
C20 C19 1_555 1_555
H11 C20 1_555 1_555
C21 C20 1_555 1_555
H12 C21 1_555 1_555
C22 C21 1_555 1_555
C23 C22 1_555 1_555
O12_2 C38_2 1_555 1_555
O13_2 C38_2 1_555 1_555
O59 C23 1_555 1_555
C38_2 C39_2 1_555 1_555
C39_2 C40_2 1_555 1_555
C40_2 H20_2 1_555 1_555
C41_2 C40_2 1_555 1_555
H21_2 C41_2 1_555 1_555
C42_2 C41_2 1_555 1_555
C43_2 C42_2 1_555 1_555
H22_2 C43_2 1_555 1_555
C44_2 C39_2 1_555 1_555
H23_2 C44_2 1_555 1_555
C45_2 C16_2 1_555 1_555
C46_2 C18 1_555 1_555
H24 C46_2 1_555 1_555
C47 C19 1_555 1_555
H25 C47 1_555 1_555
C48 C22 1_555 1_555
H26 C48 1_555 1_555
Fe21 O4_2 1_555 1_555
O35_2 Fe18 1_555 1_555
O58 C112 1_555 1_555
C97_2 O34_2 1_555 1_555
C98_2 C97_2 1_555 1_555
C99_2 C98_2 1_555 1_555
H55_2 C99_2 1_555 1_555
C100_2 C99_2 1_555 1_555
H56_2 C100_2 1_555 1_555
C101_2 C100_2 1_555 1_555
C102_2 C101_2 1_555 1_555
H57_2 C102_2 1_555 1_555
C103_2 C98_2 1_555 1_555
H58_2 C103_2 1_555 1_555
C104_2 C101_2 1_555 1_555
C105_2 C104_2 1_555 1_555
H59_2 C105_2 1_555 1_555
C106_2 C104_2 1_555 1_555
H60 C106_2 1_555 1_555
C107 C106_2 1_555 1_555
C108 C107 1_555 1_555
C109 C108 1_555 1_555
H61 C109 1_555 1_555
C110 C109 1_555 1_555
H62 C110 1_555 1_555
C111 C110 1_555 1_555
C112 C111 1_555 1_555
O38_2 C113_2 1_555 1_555
O39_2 C113_2 1_555 1_555
O56 C112 1_555 1_555
C113_2 C114_2 1_555 1_555
C114_2 C115_2 1_555 1_555
C115_2 H63_2 1_555 1_555
C116_2 C115_2 1_555 1_555
H64_2 C116_2 1_555 1_555
C117_2 C116_2 1_555 1_555
C118_2 C117_2 1_555 1_555
H65_2 C118_2 1_555 1_555
C119_2 C114_2 1_555 1_555
H66_2 C119_2 1_555 1_555
C120_2 C105_2 1_555 1_555
C121_2 C107 1_555 1_555
H67 C121_2 1_555 1_555
C122 C108 1_555 1_555
H68 C122 1_555 1_555
C123 C111 1_555 1_555
H69 C123 1_555 1_555
Fe12_2 O12_2 1_555 1_555
Fe20 O13_2 1_555 1_555
C13_2 C14_2 1_555 1_555
C42_2 C45_2 1_555 1_555
C43_2 C44_2 1_555 1_555
C45_2 C46_2 1_555 1_555
C47 C48 1_555 1_555
O35_2 C97_2 1_555 1_555
C102_2 C103_2 1_555 1_555
O39_2 Fe23 1_555 1_555
C117_2 C120_2 1_555 1_555
C118_2 C119_2 1_555 1_555
C120_2 C121_2 1_555 1_555
C122 C123 1_555 1_555
Fe1_2 O1_2 1_555 1_555
O1_2 C1_2 1_555 1_555
O2_2 C1_2 1_555 1_555
O7_2 Fe1_2 1_555 1_555
O8_2 Fe1_2 1_555 1_555
C1_2 C2_2 1_555 1_555
C2_2 C3_2 1_555 1_555
C3_2 H1_2 1_555 1_555
C4_2 C3_2 1_555 1_555
H2_2 C4_2 1_555 1_555
C5_2 C4_2 1_555 1_555
C6_2 C5_2 1_555 1_555
H3_2 C6_2 1_555 1_555
C7_2 C2_2 1_555 1_555
H4_2 C7_2 1_555 1_555
O10_2 C31_2 1_555 1_555
O11_2 C31_2 1_555 1_555
C31_2 C32_2 1_555 1_555
C32_2 C33_2 1_555 1_555
C33_2 H16_2 1_555 1_555
C34_2 C33_2 1_555 1_555
H17_2 C34_2 1_555 1_555
C35_2 C5_2 1_555 1_555
C36_2 C35_2 1_555 1_555
H18_2 C36_2 1_555 1_555
C37_2 C32_2 1_555 1_555
H19_2 C37_2 1_555 1_555
Fe10_2 O20_2 1_555 1_555
O20_2 C69_2 1_555 1_555
O21_2 C69_2 1_555 1_555
O22_2 Fe10_2 1_555 1_555
O23_2 Fe10_2 1_555 1_555
C69_2 C70_2 1_555 1_555
C70_2 C71_2 1_555 1_555
C71_2 H39_2 1_555 1_555
C72_2 C71_2 1_555 1_555
H40_2 C72_2 1_555 1_555
C73_2 C72_2 1_555 1_555
C74_2 C73_2 1_555 1_555
H41_2 C74_2 1_555 1_555
C75_2 C70_2 1_555 1_555
H42_2 C75_2 1_555 1_555
O25_2 Fe1_2 1_555 1_555
O26_2 C76_2 1_555 1_555
C76_2 O25_2 1_555 1_555
C77_2 C76_2 1_555 1_555
C78_2 C77_2 1_555 1_555
H43_2 C78_2 1_555 1_555
C79_2 C78_2 1_555 1_555
H44_2 C79_2 1_555 1_555
C80_2 C73_2 1_555 1_555
C81_2 C80_2 1_555 1_555
H45_2 C81_2 1_555 1_555
C82_2 C77_2 1_555 1_555
H46_2 C82_2 1_555 1_555
Fe12_2 O10_2 1_555 1_555
Fe20 O28_2 1_555 1_555
O27_2 Fe12_2 1_555 1_555
O28_2 C83_2 1_555 1_555
O29_2 Fe12_2 1_555 1_555
O30_2 Fe12_2 1_555 1_555
C83_2 O27_2 1_555 1_555
C84_2 C83_2 1_555 1_555
C85_2 C84_2 1_555 1_555
H47_2 C85_2 1_555 1_555
C86_2 C85_2 1_555 1_555
H48_2 C86_2 1_555 1_555
C87_2 C86_2 1_555 1_555
C88_2 C87_2 1_555 1_555
H49_2 C88_2 1_555 1_555
C89_2 C84_2 1_555 1_555
H50_2 C89_2 1_555 1_555
O32_2 Fe10_2 1_555 1_555
O33_2 C90_2 1_555 1_555
C90_2 O32_2 1_555 1_555
C91_2 C90_2 1_555 1_555
C92_2 C91_2 1_555 1_555
H51_2 C92_2 1_555 1_555
C93_2 C92_2 1_555 1_555
H52_2 C93_2 1_555 1_555
C94_2 C87_2 1_555 1_555
C95_2 C94_2 1_555 1_555
H53_2 C95_2 1_555 1_555
C96_2 C91_2 1_555 1_555
H54_2 C96_2 1_555 1_555
Fe22 O11_2 1_555 1_555
O50_2 Fe12_2 1_555 1_555
O53_2 Fe22 1_555 1_555
C6_2 C7_2 1_555 1_555
C34_2 C35_2 1_555 1_555
C36_2 C37_2 1_555 1_555
C74_2 C75_2 1_555 1_555
C79_2 C80_2 1_555 1_555
C81_2 C82_2 1_555 1_555
Fe20 O29_2 1_555 1_555
O29_2 Fe22 1_555 1_555
C88_2 C89_2 1_555 1_555
C93_2 C94_2 1_555 1_555
C95_2 C96_2 1_555 1_555
O43_2 Fe19 1_555 1_555
O60 C139 1_555 1_555
C124_2 O42_2 1_555 1_555
C125_2 C124_2 1_555 1_555
C126_2 C125_2 1_555 1_555
H70_2 C126_2 1_555 1_555
C127_2 C126_2 1_555 1_555
H71_2 C127_2 1_555 1_555
C128_2 C127_2 1_555 1_555
C129_2 C128_2 1_555 1_555
H72_2 C129_2 1_555 1_555
C130_2 C125_2 1_555 1_555
H73_2 C130_2 1_555 1_555
C131_2 C128_2 1_555 1_555
C132_2 C131_2 1_555 1_555
H74_2 C132_2 1_555 1_555
C133_2 C131_2 1_555 1_555
H75 C133_2 1_555 1_555
C134 C133_2 1_555 1_555
C135 C134 1_555 1_555
C136 C135 1_555 1_555
H76 C136 1_555 1_555
C137 C136 1_555 1_555
H77 C137 1_555 1_555
C138 C137 1_555 1_555
C139 C138 1_555 1_555
O50_2 C140_2 1_555 1_555
O53_2 C140_2 1_555 1_555
O57 C139 1_555 1_555
C140_2 C141_2 1_555 1_555
C141_2 C142_2 1_555 1_555
C142_2 H78_2 1_555 1_555
C143_2 C142_2 1_555 1_555
H79_2 C143_2 1_555 1_555
C144_2 C143_2 1_555 1_555
C145_2 C144_2 1_555 1_555
H80_2 C145_2 1_555 1_555
C146_2 C141_2 1_555 1_555
H81_2 C146_2 1_555 1_555
C147_2 C132_2 1_555 1_555
C148_2 C134 1_555 1_555
H82 C148_2 1_555 1_555
C149 C135 1_555 1_555
H83 C149 1_555 1_555
C150 C138 1_555 1_555
H84 C150 1_555 1_555
O43_2 C124_2 1_555 1_555
C129_2 C130_2 1_555 1_555
C144_2 C147_2 1_555 1_555
C145_2 C146_2 1_555 1_555
C147_2 C148_2 1_555 1_555
C149 C150 1_555 1_555
Fe1_3 O1_3 1_555 1_555
Fe2_2 O2_3 1_555 1_555
O1_3 C1_3 1_555 1_555
O2_3 C1_3 1_555 1_555
O3_3 Fe1_3 1_555 1_555
O4_3 C8_3 1_555 1_555
O5 C23_2 1_555 1_555
O6_2 Fe2_2 1_555 1_555
O7_3 Fe1_3 1_555 1_555
O8_3 Fe1_3 1_555 1_555
O9_2 Fe2_2 1_555 1_555
C1_3 C2_3 1_555 1_555
C2_3 C3_3 1_555 1_555
C3_3 H1_3 1_555 1_555
C4_3 C3_3 1_555 1_555
H2_3 C4_3 1_555 1_555
C5_3 C4_3 1_555 1_555
C6_3 C5_3 1_555 1_555
H3_3 C6_3 1_555 1_555
C7_3 C2_3 1_555 1_555
H4_3 C7_3 1_555 1_555
C8_3 O3_3 1_555 1_555
C9_3 C8_3 1_555 1_555
C10_3 C9_3 1_555 1_555
H5_3 C10_3 1_555 1_555
C11_3 C10_3 1_555 1_555
H6_3 C11_3 1_555 1_555
C12_3 C11_3 1_555 1_555
C13_3 C12_3 1_555 1_555
H7_3 C13_3 1_555 1_555
C14_3 C9_3 1_555 1_555
H8_3 C14_3 1_555 1_555
C15_3 C12_3 1_555 1_555
C16_3 C15_3 1_555 1_555
H9_3 C16_3 1_555 1_555
C17_3 C15_3 1_555 1_555
H10_2 C17_3 1_555 1_555
C18_2 C17_3 1_555 1_555
C19_2 C18_2 1_555 1_555
C20_2 C19_2 1_555 1_555
H11_2 C20_2 1_555 1_555
C21_2 C20_2 1_555 1_555
H12_2 C21_2 1_555 1_555
C22_2 C21_2 1_555 1_555
C23_2 C22_2 1_555 1_555
C24_2 O6_2 1_555 1_555
C25_2 C24_2 1_555 1_555
C26_2 C25_2 1_555 1_555
H13_2 C26_2 1_555 1_555
C27_2 C26_2 1_555 1_555
H14_2 C27_2 1_555 1_555
C28_2 C27_2 1_555 1_555
C29_2 C28_2 1_555 1_555
C30_2 C29_2 1_555 1_555
H15_2 C30_2 1_555 1_555
C33_3 H16_3 1_555 1_555
C34_3 C33_3 1_555 1_555
H17_3 C34_3 1_555 1_555
C35_3 C5_3 1_555 1_555
C36_3 C35_3 1_555 1_555
H18_3 C36_3 1_555 1_555
O12_3 C38_3 1_555 1_555
O13_3 C38_3 1_555 1_555
O14 C23_2 1_555 1_555
C38_3 C39_3 1_555 1_555
C39_3 C40_3 1_555 1_555
C40_3 H20_3 1_555 1_555
C41_3 C40_3 1_555 1_555
H21_3 C41_3 1_555 1_555
C42_3 C41_3 1_555 1_555
C43_3 C42_3 1_555 1_555
H22_3 C43_3 1_555 1_555
C44_3 C39_3 1_555 1_555
H23_3 C44_3 1_555 1_555
C45_3 C16_3 1_555 1_555
C46_3 C18_2 1_555 1_555
H24_2 C46_3 1_555 1_555
C47_2 C19_2 1_555 1_555
H25_2 C47_2 1_555 1_555
C48_2 C22_2 1_555 1_555
H26_2 C48_2 1_555 1_555
O15_2 C49_2 1_555 1_555
C49_2 C50_2 1_555 1_555
C50_2 C51_2 1_555 1_555
C51_2 H27_2 1_555 1_555
C52_2 C51_2 1_555 1_555
H28_2 C52_2 1_555 1_555
C53_2 C52_2 1_555 1_555
C54_2 C53_2 1_555 1_555
C55_2 C29_2 1_555 1_555
H29_2 C55_2 1_555 1_555
O16_2 C56_2 1_555 1_555
C56_2 C57_2 1_555 1_555
C57_2 C58_2 1_555 1_555
C58_2 H30_2 1_555 1_555
C59_2 C58_2 1_555 1_555
H31_2 C59_2 1_555 1_555
C60_2 C59_2 1_555 1_555
C61_2 C30_2 1_555 1_555
C62_2 C54_2 1_555 1_555
H32_2 C62_2 1_555 1_555
O17_2 C24_2 1_555 1_555
C63_2 C25_2 1_555 1_555
H33_2 C63_2 1_555 1_555
C64_2 C28_2 1_555 1_555
H34_2 C64_2 1_555 1_555
O18_2 C56_2 1_555 1_555
C65_2 C57_2 1_555 1_555
H35_2 C65_2 1_555 1_555
C66_2 C60_2 1_555 1_555
H36_2 C66_2 1_555 1_555
O19_2 C49_2 1_555 1_555
C67_2 C50_2 1_555 1_555
H37_2 C67_2 1_555 1_555
C68_2 C53_2 1_555 1_555
H38_2 C68_2 1_555 1_555
O25_3 Fe1_3 1_555 1_555
O26_3 C76_3 1_555 1_555
C76_3 O25_3 1_555 1_555
C77_3 C76_3 1_555 1_555
C82_3 C77_3 1_555 1_555
H46_3 C82_3 1_555 1_555
Fe7_2 O4_3 1_555 1_555
O34_3 Fe1_3 1_555 1_555
O35_3 Fe2_2 1_555 1_555
O36 C112_2 1_555 1_555
O37_2 Fe7_2 1_555 1_555
C97_3 O34_3 1_555 1_555
C98_3 C97_3 1_555 1_555
C99_3 C98_3 1_555 1_555
H55_3 C99_3 1_555 1_555
C100_3 C99_3 1_555 1_555
H56_3 C100_3 1_555 1_555
C101_3 C100_3 1_555 1_555
C102_3 C101_3 1_555 1_555
H57_3 C102_3 1_555 1_555
C103_3 C98_3 1_555 1_555
H58_3 C103_3 1_555 1_555
C104_3 C101_3 1_555 1_555
C105_3 C104_3 1_555 1_555
H59_3 C105_3 1_555 1_555
C106_3 C104_3 1_555 1_555
H60_2 C106_3 1_555 1_555
C107_2 C106_3 1_555 1_555
C108_2 C107_2 1_555 1_555
C109_2 C108_2 1_555 1_555
H61_2 C109_2 1_555 1_555
C110_2 C109_2 1_555 1_555
H62_2 C110_2 1_555 1_555
C111_2 C110_2 1_555 1_555
C112_2 C111_2 1_555 1_555
O38_3 C113_3 1_555 1_555
O39_3 C113_3 1_555 1_555
O40 C112_2 1_555 1_555
C113_3 C114_3 1_555 1_555
C114_3 C115_3 1_555 1_555
C115_3 H63_3 1_555 1_555
C116_3 C115_3 1_555 1_555
H64_3 C116_3 1_555 1_555
C117_3 C116_3 1_555 1_555
C118_3 C117_3 1_555 1_555
H65_3 C118_3 1_555 1_555
C119_3 C114_3 1_555 1_555
H66_3 C119_3 1_555 1_555
C120_3 C105_3 1_555 1_555
C121_3 C107_2 1_555 1_555
H67_2 C121_3 1_555 1_555
C122_2 C108_2 1_555 1_555
H68_2 C122_2 1_555 1_555
C123_2 C111_2 1_555 1_555
H69_2 C123_2 1_555 1_555
Fe10_3 O38_3 1_555 1_555
Fe12_3 O12_3 1_555 1_555
Fe13_2 O15_2 1_555 1_555
Fe14_2 O13_3 1_555 1_555
Fe16_2 O18_2 1_555 1_555
Fe17_2 O19_2 1_555 1_555
O57_2 Fe7_2 1_555 1_555
O60_2 Fe2_2 1_555 1_555
Fe2_2 O7_3 1_555 1_555
O7_3 Fe7_2 1_555 1_555
C6_3 C7_3 1_555 1_555
C13_3 C14_3 1_555 1_555
C34_3 C35_3 1_555 1_555
C42_3 C45_3 1_555 1_555
C43_3 C44_3 1_555 1_555
C45_3 C46_3 1_555 1_555
C47_2 C48_2 1_555 1_555
C54_2 C55_2 1_555 1_555
O16_2 Fe14_2 1_555 1_555
C60_2 C61_2 1_555 1_555
C61_2 C62_2 1_555 1_555
O17_2 Fe7_2 1_555 1_555
C63_2 C64_2 1_555 1_555
C65_2 C66_2 1_555 1_555
C67_2 C68_2 1_555 1_555
O26_3 Fe7_2 1_555 1_555
O35_3 C97_3 1_555 1_555
C102_3 C103_3 1_555 1_555
O39_3 Fe17_2 1_555 1_555
C117_3 C120_3 1_555 1_555
C118_3 C119_3 1_555 1_555
C120_3 C121_3 1_555 1_555
C122_2 C123_2 1_555 1_555
O10_3 C31_3 1_555 1_555
O11_3 C31_3 1_555 1_555
C31_3 C32_3 1_555 1_555
C37_3 C32_3 1_555 1_555
H19_3 C37_3 1_555 1_555
Fe12_3 O10_3 1_555 1_555
Fe14_2 O28_3 1_555 1_555
O27_3 Fe12_3 1_555 1_555
O28_3 C83_3 1_555 1_555
O29_3 Fe12_3 1_555 1_555
O30_3 Fe12_3 1_555 1_555
O31_2 Fe14_2 1_555 1_555
C83_3 O27_3 1_555 1_555
C84_3 C83_3 1_555 1_555
C89_3 C84_3 1_555 1_555
H50_3 C89_3 1_555 1_555
Fe16_2 O11_3 1_555 1_555
O41_2 Fe16_2 1_555 1_555
O50_3 Fe12_3 1_555 1_555
O53_3 Fe16_2 1_555 1_555
O56_2 Fe16_2 1_555 1_555
O58_2 Fe14_2 1_555 1_555
Fe14_2 O29_3 1_555 1_555
O29_3 Fe16_2 1_555 1_555
Fe10_3 O20_3 1_555 1_555
Fe13_2 O21_3 1_555 1_555
O20_3 C69_3 1_555 1_555
O21_3 C69_3 1_555 1_555
O22_3 Fe10_3 1_555 1_555
O23_3 Fe10_3 1_555 1_555
O24_2 Fe13_2 1_555 1_555
C69_3 C70_3 1_555 1_555
C75_3 C70_3 1_555 1_555
H42_3 C75_3 1_555 1_555
H47_3 C85_3 1_555 1_555
C86_3 C85_3 1_555 1_555
H48_3 C86_3 1_555 1_555
C87_3 C86_3 1_555 1_555
C88_3 C87_3 1_555 1_555
H49_3 C88_3 1_555 1_555
O32_3 Fe10_3 1_555 1_555
O33_3 C90_3 1_555 1_555
C90_3 O32_3 1_555 1_555
C91_3 C90_3 1_555 1_555
C92_3 C91_3 1_555 1_555
H51_3 C92_3 1_555 1_555
C93_3 C92_3 1_555 1_555
H52_3 C93_3 1_555 1_555
C94_3 C87_3 1_555 1_555
C95_3 C94_3 1_555 1_555
H53_3 C95_3 1_555 1_555
C96_3 C91_3 1_555 1_555
H54_3 C96_3 1_555 1_555
Fe17_2 O22_3 1_555 1_555
O42_3 Fe10_3 1_555 1_555
O43_3 Fe13_2 1_555 1_555
O44 C139_2 1_555 1_555
O45_2 Fe17_2 1_555 1_555
C124_3 O42_3 1_555 1_555
C125_3 C124_3 1_555 1_555
C126_3 C125_3 1_555 1_555
H70_3 C126_3 1_555 1_555
C127_3 C126_3 1_555 1_555
H71_3 C127_3 1_555 1_555
C128_3 C127_3 1_555 1_555
C129_3 C128_3 1_555 1_555
H72_3 C129_3 1_555 1_555
C130_3 C125_3 1_555 1_555
H73_3 C130_3 1_555 1_555
C131_3 C128_3 1_555 1_555
C132_3 C131_3 1_555 1_555
H74_3 C132_3 1_555 1_555
C133_3 C131_3 1_555 1_555
H75_2 C133_3 1_555 1_555
C134_2 C133_3 1_555 1_555
C135_2 C134_2 1_555 1_555
C136_2 C135_2 1_555 1_555
H76_2 C136_2 1_555 1_555
C137_2 C136_2 1_555 1_555
H77_2 C137_2 1_555 1_555
C138_2 C137_2 1_555 1_555
C139_2 C138_2 1_555 1_555
O50_3 C140_3 1_555 1_555
O53_3 C140_3 1_555 1_555
O48 C139_2 1_555 1_555
C140_3 C141_3 1_555 1_555
C141_3 C142_3 1_555 1_555
C142_3 H78_3 1_555 1_555
C143_3 C142_3 1_555 1_555
H79_3 C143_3 1_555 1_555
C144_3 C143_3 1_555 1_555
C145_3 C144_3 1_555 1_555
H80_3 C145_3 1_555 1_555
C146_3 C141_3 1_555 1_555
H81_3 C146_3 1_555 1_555
C147_3 C132_3 1_555 1_555
C148_3 C134_2 1_555 1_555
H82_2 C148_3 1_555 1_555
C149_2 C135_2 1_555 1_555
H83_2 C149_2 1_555 1_555
C150_2 C138_2 1_555 1_555
H84_2 C150_2 1_555 1_555
O55_2 Fe17_2 1_555 1_555
O59_2 Fe13_2 1_555 1_555
Fe13_2 O22_3 1_555 1_555
O33_3 Fe17_2 1_555 1_555
C93_3 C94_3 1_555 1_555
C95_3 C96_3 1_555 1_555
O43_3 C124_3 1_555 1_555
C129_3 C130_3 1_555 1_555
C144_3 C147_3 1_555 1_555
C145_3 C146_3 1_555 1_555
C147_3 C148_3 1_555 1_555
C149_2 C150_2 1_555 1_555
O58_2 C112_3 1_555 1_555
C108_3 C107_3 1_555 1_555
C109_3 C108_3 1_555 1_555
H61_3 C109_3 1_555 1_555
C110_3 C109_3 1_555 1_555
H62_3 C110_3 1_555 1_555
C111_3 C110_3 1_555 1_555
C112_3 C111_3 1_555 1_555
O56_2 C112_3 1_555 1_555
C122_3 C108_3 1_555 1_555
H68_3 C122_3 1_555 1_555
C123_3 C111_3 1_555 1_555
H69_3 C123_3 1_555 1_555
C122_3 C123_3 1_555 1_555
O55_2 C23_3 1_555 1_555
C19_3 C18_3 1_555 1_555
C20_3 C19_3 1_555 1_555
H11_3 C20_3 1_555 1_555
C21_3 C20_3 1_555 1_555
H12_3 C21_3 1_555 1_555
C22_3 C21_3 1_555 1_555
C23_3 C22_3 1_555 1_555
O59_2 C23_3 1_555 1_555
C47_3 C19_3 1_555 1_555
H25_3 C47_3 1_555 1_555
C48_3 C22_3 1_555 1_555
H26_3 C48_3 1_555 1_555
O60_2 C139_3 1_555 1_555
C135_3 C134_3 1_555 1_555
C136_3 C135_3 1_555 1_555
H76_3 C136_3 1_555 1_555
C137_3 C136_3 1_555 1_555
H77_3 C137_3 1_555 1_555
C138_3 C137_3 1_555 1_555
C139_3 C138_3 1_555 1_555
O57_2 C139_3 1_555 1_555
C149_3 C135_3 1_555 1_555
H83_3 C149_3 1_555 1_555
C150_3 C138_3 1_555 1_555
H84_3 C150_3 1_555 1_555
C47_3 C48_3 1_555 1_555
C149_3 C150_3 1_555 1_555
C24_3 O6_3 1_555 1_555
C25_3 C24_3 1_555 1_555
C26_3 C25_3 1_555 1_555
H13_3 C26_3 1_555 1_555
C27_3 C26_3 1_555 1_555
H14_3 C27_3 1_555 1_555
C28_3 C27_3 1_555 1_555
C29_3 C28_3 1_555 1_555
C30_3 C29_3 1_555 1_555
H15_3 C30_3 1_555 1_555
O15_3 C49_3 1_555 1_555
C49_3 C50_3 1_555 1_555
C50_3 C51_3 1_555 1_555
C51_3 H27_3 1_555 1_555
C52_3 C51_3 1_555 1_555
H28_3 C52_3 1_555 1_555
C53_3 C52_3 1_555 1_555
C54_3 C53_3 1_555 1_555
C55_3 C29_3 1_555 1_555
H29_3 C55_3 1_555 1_555
O16_3 C56_3 1_555 1_555
C56_3 C57_3 1_555 1_555
C57_3 C58_3 1_555 1_555
C58_3 H30_3 1_555 1_555
C59_3 C58_3 1_555 1_555
H31_3 C59_3 1_555 1_555
C60_3 C59_3 1_555 1_555
C61_3 C30_3 1_555 1_555
C62_3 C54_3 1_555 1_555
H32_3 C62_3 1_555 1_555
O17_3 C24_3 1_555 1_555
C63_3 C25_3 1_555 1_555
H33_3 C63_3 1_555 1_555
C64_3 C28_3 1_555 1_555
H34_3 C64_3 1_555 1_555
O18_3 C56_3 1_555 1_555
C65_3 C57_3 1_555 1_555
H35_3 C65_3 1_555 1_555
C66_3 C60_3 1_555 1_555
H36_3 C66_3 1_555 1_555
O19_3 C49_3 1_555 1_555
C67_3 C50_3 1_555 1_555
H37_3 C67_3 1_555 1_555
C68_3 C53_3 1_555 1_555
H38_3 C68_3 1_555 1_555
C54_3 C55_3 1_555 1_555
C60_3 C61_3 1_555 1_555
C61_3 C62_3 1_555 1_555
C63_3 C64_3 1_555 1_555
C65_3 C66_3 1_555 1_555
C67_3 C68_3 1_555 1_555
C71_3 H39_3 1_555 1_555
C72_3 C71_3 1_555 1_555
H40_3 C72_3 1_555 1_555
C73_3 C72_3 1_555 1_555
C74_3 C73_3 1_555 1_555
H41_3 C74_3 1_555 1_555
H43_3 C78_3 1_555 1_555
C79_3 C78_3 1_555 1_555
H44_3 C79_3 1_555 1_555
C80_3 C73_3 1_555 1_555
C81_3 C80_3 1_555 1_555
H45_3 C81_3 1_555 1_555
C79_3 C80_3 1_555 1_555

#END
