
###############################################################################
#
# This file contains modified crystal structure data generated from the
# MOF subset of the Cambridge Structural Database (CSD) v543 
# hosted by the Cambridge Crystallographic Data Centre (CCDC).
#
# This work is licensed under the Creative Commons
# Attribution-NonCommercial-ShareAlike 4.0 International License.
# To view a copy of this license, visit
# http://creativecommons.org/licenses/by-nc-sa/4.0/
# or send a letter to
# Creative Commons, PO Box 1866, Mountain View, CA 94042, USA.
#
# CIF created using the CSD Python API on 29 September 2022
# The structure has been converted into the P1 space group
# The structure has a 3D framework
# The original CSD entry TOVKEW is in the orthorhombic crystal system
# The framework has been calculated to contain at least 10.0% void space
# The void calculation uses a probe of radius 1.32A, grid spacing 0.4
# H atom positions have been added when not included in the experimental data
# Generated hydrogen atom positions removed from atoms on special positions
#
###############################################################################

data_TOVKEW
_chemical_formula_moiety         '(C496 H416 Fe12 O80)n'
_symmetry_cell_setting           triclinic
_symmetry_space_group_name_H-M   'P 1'
_symmetry_Int_Tables_number      1
_space_group_name_Hall           'P 1'
loop_
_symmetry_equiv_pos_site_id
_symmetry_equiv_pos_as_xyz
1 x,y,z
_cell_length_a                   14.9208(14)
_cell_length_b                   41.280(4)
_cell_length_c                   38.398(3)
_cell_angle_alpha                90
_cell_angle_beta                 90
_cell_angle_gamma                90
_cell_volume                     23650.5
loop_
_atom_site_label
_atom_site_type_symbol
_atom_site_fract_x
_atom_site_fract_y
_atom_site_fract_z
C60 C 0.0878(8) 0.0156(3) 0.1234(3)
H43 H 0.1043 0.0232 0.1453
C61 C 0.0040(8) 0.0261(3) 0.1060(3)
H89 H 0.306019 0.0015614 0.147878
O7 O 0.2431(5) 0.9940(2) 0.1501(2)
O8 O 0.2565(5) 0.9529(2) 0.1120(2)
C57 C 0.0322(8) 0.9915(3) 0.0595(3)
H41 H 0.0118 0.9820 0.0390
C58 C 0.1112(8) 0.9788(3) 0.0760(3)
H42 H 0.1411 0.9609 0.0670
C59 C 0.1400(8) 0.9938(4) 0.1048(4)
C62 C 0.2190(8) 0.9759(4) 0.1199(4)
H96 H 0.237366 0.980051 0.171051
O1 O 0.0428(2) 0.16952(8) 0.21227(8)
O2 O 0.0173(3) 0.11660(9) 0.21290(10)
O9 O 0.0451(3) 0.22702(12) 0.2500
C1 C 0.0567(3) 0.14129(15) 0.20189(12)
C2 C 0.1242(4) 0.13636(14) 0.17422(14)
C3 C 0.1374(5) 0.10566(15) 0.16022(17)
H1 H 0.1030 0.0884 0.1681
C4 C 0.2005(5) 0.10059(16) 0.13494(18)
H2 H 0.2065 0.0800 0.1255
C5 C 0.2556(4) 0.12522(15) 0.12294(14)
C6 C 0.2401(4) 0.15561(14) 0.13632(16)
H3 H 0.2737 0.1730 0.1281
C7 C 0.1764(4) 0.16112(14) 0.16141(15)
H4 H 0.1685 0.1820 0.1699
C8 C 0.3257(4) 0.11859(14) 0.09629(14)
C9 C 0.3618(5) 0.08844(17) 0.09295(17)
H5 H 0.3445 0.0723 0.1084
C10 C 0.4234(5) 0.08123(16) 0.06733(17)
H6 H 0.4456 0.0602 0.0661
C11 C 0.4537(3) 0.10387(12) 0.04330(12)
C12 C 0.4138(5) 0.13238(16) 0.04655(17)
H7 H 0.4296 0.1485 0.0308
C13 C 0.3503(5) 0.14004(15) 0.07167(18)
H8 H 0.3241 0.1605 0.0715
C14 C 0.5178(3) 0.09423(11) 0.01500(11)
H9 H 0.4534 0.0508 0.0051
H13 H 0.5755 0.1393 0.0068
C20 C 0.6023(3) 0.07904(12) 0.03122(12)
H15 H 0.5849 0.0610 0.0459
H16 H 0.6318 0.0950 0.0458
C23 C 0.6684(3) 0.06708(12) 0.00338(13)
C50 C 0.7505(5) 0.0533(2) 0.0196(2)
C51 C 0.7825(5) 0.02373(18) 0.01289(19)
C52 C 0.8569(5) 0.01000(19) 0.03172(19)
C53 C 0.9054(5) 0.0284(2) 0.0551(2)
C54 C 0.8708(5) 0.05799(18) 0.06215(19)
H39 H 0.8970 0.0706 0.0795
C55 C 0.7973(5) 0.07001(19) 0.04416(19)
H40 H 0.7787 0.0910 0.0493
C56 C 0.9877(8) 0.0165(4) 0.0727(4)
H44 H 0.9629 0.0390 0.1178
O21 O 0.0428(2) 0.16952(8) 0.28773(8)
O22 O 0.0173(3) 0.11660(9) 0.28710(10)
H92 H 0.0463771 0.0618659 0.255838
O5 O 0.7540(3) 0.30876(9) 0.78778(10)
O6 O 0.8914(3) 0.28840(8) 0.78716(9)
C15 C 0.4728(3) 0.06910(10) 0.99121(11)
H10 H 0.4201 0.0787 0.9806
C16 C 0.5355(3) 0.05716(11) 0.96274(12)
C17 C 0.5644(3) 0.08695(11) 0.94082(12)
H11 H 0.6041 0.0799 0.9223
H12 H 0.5119 0.0966 0.9302
C18 C 0.6122(3) 0.11229(11) 0.96308(12)
C19 C 0.5466(3) 0.12315(11) 0.99229(12)
H14 H 0.4940 0.1330 0.9819
C21 C 0.6194(3) 0.04257(11) 0.97982(12)
H17 H 0.6021 0.0239 0.9936
H18 H 0.6600 0.0352 0.9618
C22 C 0.6943(4) 0.09662(12) 0.98011(13)
H19 H 0.7250 0.1126 0.9943
H20 H 0.7354 0.0895 0.9621
C24 C 0.4898(4) 0.03248(11) 0.93861(12)
C25 C 0.3994(4) 0.02549(16) 0.94049(16)
H21 H 0.3645 0.0358 0.9572
C26 C 0.3597(4) 0.00374(16) 0.91832(18)
C29 C 0.5372(4) 0.01539(15) 0.91509(17)
H24 H 0.5990 0.0180 0.9139
C37 C 0.6402(5) 0.14066(17) 0.9402(2)
C38 C 0.7005(5) 0.13610(16) 0.91391(19)
H29 H 0.7236 0.1154 0.9105
C39 C 0.7292(5) 0.16119(16) 0.89168(19)
H30 H 0.7700 0.1567 0.8740
C40 C 0.6983(5) 0.19156(17) 0.8957(2)
C41 C 0.6358(5) 0.19426(16) 0.91772(19)
H31 H 0.6059 0.2140 0.9192
C42 C 0.6085(5) 0.16882(16) 0.94043(19)
H32 H 0.5639 0.1734 0.9566
C43 C 0.7299(5) 0.21746(14) 0.87155(15)
C44 C 0.8138(4) 0.21820(16) 0.85804(19)
H33 H 0.8546 0.2023 0.8645
C45 C 0.8403(4) 0.24168(15) 0.83516(17)
H34 H 0.8989 0.2415 0.8270
C46 C 0.7840(4) 0.26499(12) 0.82414(14)
C47 C 0.6987(4) 0.26433(14) 0.83679(17)
H35 H 0.6579 0.2801 0.8297
C48 C 0.6718(5) 0.24068(16) 0.85986(18)
H36 H 0.6129 0.2405 0.8677
C49 C 0.8139(4) 0.28929(12) 0.79757(13)
H37 H 0.7557 0.0115 0.9954
Fe5 Fe 0.95996(6) 0.31263(2) 0.7500
Fe9 Fe 0.75273(7) 0.34308(2) 0.7500
O3 O 0.1558(3) 0.90880(8) 0.78680(10)
O4 O 0.2722(2) 0.87651(8) 0.78670(9)
H22 H 0.2990 0.9993 0.9210
C27 C 0.4064(4) 0.98810(12) 0.89216(13)
C28 C 0.4948(4) 0.99352(15) 0.89213(17)
H23 H 0.5301 0.9823 0.8762
C30 C 0.3622(4) 0.96539(13) 0.86865(13)
C31 C 0.2741(5) 0.96870(16) 0.85959(18)
H25 H 0.2411 0.9855 0.8694
C32 C 0.2321(4) 0.94806(16) 0.83646(17)
H26 H 0.1726 0.9518 0.8305
C33 C 0.2748(4) 0.92293(12) 0.82252(13)
C34 C 0.3612(5) 0.91877(14) 0.83120(17)
H27 H 0.3929 0.9015 0.8216
C35 C 0.4048(4) 0.93970(15) 0.85424(17)
H28 H 0.4645 0.9359 0.8598
C36 C 0.2305(4) 0.90058(13) 0.79692(13)
Fe4 Fe 0.04004(6) 0.81263(2) 0.7500
Fe7 Fe 0.07220(6) 0.89192(2) 0.7500
Fe8 Fe 0.24727(7) 0.84308(2) 0.7500
O17 O 0.7540(3) 0.30876(9) 0.71222(10)
O18 O 0.8914(3) 0.28840(8) 0.71284(9)
C63 C 0.0567(3) 0.14129(15) 0.29811(12)
C64 C 0.1242(4) 0.13636(14) 0.32578(14)
C65 C 0.1374(5) 0.10566(15) 0.33978(17)
H45 H 0.1030 0.0884 0.3319
C66 C 0.2005(5) 0.10059(16) 0.36506(18)
H46 H 0.2065 0.0800 0.3745
C67 C 0.2556(4) 0.12522(15) 0.37706(14)
C68 C 0.2401(4) 0.15561(14) 0.36368(16)
H47 H 0.2737 0.1730 0.3719
C69 C 0.1764(4) 0.16112(14) 0.33859(15)
H48 H 0.1685 0.1820 0.3301
C70 C 0.3257(4) 0.11859(14) 0.40371(14)
C71 C 0.3618(5) 0.08844(17) 0.40705(17)
H49 H 0.3445 0.0723 0.3916
C72 C 0.4234(5) 0.08123(16) 0.43267(17)
H50 H 0.4456 0.0602 0.4339
C73 C 0.4537(3) 0.10387(12) 0.45670(12)
C74 C 0.4138(5) 0.13238(16) 0.45345(17)
H51 H 0.4296 0.1485 0.4692
C75 C 0.3503(5) 0.14004(15) 0.42833(18)
H52 H 0.3241 0.1605 0.4285
C76 C 0.5178(3) 0.09423(11) 0.48500(11)
C77 C 0.4728(3) 0.06910(10) 0.50879(11)
H53 H 0.4534 0.0508 0.4949
H54 H 0.4201 0.0787 0.5194
C78 C 0.5355(3) 0.05716(11) 0.53726(12)
C79 C 0.5644(3) 0.08695(11) 0.55918(12)
H55 H 0.6041 0.0799 0.5777
H56 H 0.5119 0.0966 0.5698
C80 C 0.6122(3) 0.11229(11) 0.53692(12)
C81 C 0.5466(3) 0.12315(11) 0.50771(12)
H57 H 0.5755 0.1393 0.4932
H58 H 0.4940 0.1330 0.5181
C82 C 0.6023(3) 0.07904(12) 0.46878(12)
H59 H 0.5849 0.0610 0.4541
H60 H 0.6318 0.0950 0.4542
C83 C 0.6194(3) 0.04257(11) 0.52018(12)
H61 H 0.6021 0.0239 0.5064
H62 H 0.6600 0.0352 0.5382
C84 C 0.6943(4) 0.09662(12) 0.51989(13)
H63 H 0.7250 0.1126 0.5057
H64 H 0.7354 0.0895 0.5379
C85 C 0.6684(3) 0.06708(12) 0.49662(13)
C86 C 0.4898(4) 0.03248(11) 0.56139(12)
C87 C 0.3994(4) 0.02549(16) 0.55951(16)
H65 H 0.3645 0.0358 0.5428
C88 C 0.3597(4) 0.00374(16) 0.58168(18)
C91 C 0.5372(4) 0.01539(15) 0.58491(17)
H68 H 0.5990 0.0180 0.5861
C99 C 0.6402(5) 0.14066(17) 0.5598(2)
C100 C 0.7005(5) 0.13610(16) 0.58609(19)
H73 H 0.7236 0.1154 0.5895
C101 C 0.7292(5) 0.16119(16) 0.60832(19)
H74 H 0.7700 0.1567 0.6260
C102 C 0.6983(5) 0.19156(17) 0.6043(2)
C103 C 0.6358(5) 0.19426(16) 0.58228(19)
H75 H 0.6059 0.2140 0.5808
C104 C 0.6085(5) 0.16882(16) 0.55957(19)
H76 H 0.5639 0.1734 0.5434
C105 C 0.7299(5) 0.21746(14) 0.62845(15)
C106 C 0.8138(4) 0.21820(16) 0.64196(19)
H77 H 0.8546 0.2023 0.6355
C107 C 0.8403(4) 0.24168(15) 0.66484(17)
H78 H 0.8989 0.2415 0.6730
C108 C 0.7840(4) 0.26499(12) 0.67586(14)
C109 C 0.6987(4) 0.26433(14) 0.66321(17)
H79 H 0.6579 0.2801 0.6703
C110 C 0.6718(5) 0.24068(16) 0.64014(18)
H80 H 0.6129 0.2405 0.6323
C111 C 0.8139(4) 0.28929(12) 0.70243(13)
C112 C 0.7505(5) 0.0533(2) 0.4804(2)
C113 C 0.7825(5) 0.02373(18) 0.48711(19)
H81 H 0.7557 0.0115 0.5046
C114 C 0.8569(5) 0.01000(19) 0.46828(19)
C115 C 0.9054(5) 0.0284(2) 0.4449(2)
C116 C 0.8708(5) 0.05799(18) 0.43785(19)
H83 H 0.8970 0.0706 0.4205
C117 C 0.7973(5) 0.07001(19) 0.45584(19)
H84 H 0.7787 0.0910 0.4507
C118 C 0.9877(8) 0.0165(4) 0.4273(4)
H88 H 0.9629 0.0390 0.3822
O10 O 0.0184(3) 0.93911(12) 0.7500
O11 O 0.3859(3) 0.83648(12) 0.7500
O12 O 0.1205(3) 0.84915(9) 0.7500
O15 O 0.1558(3) 0.90880(8) 0.71320(10)
O16 O 0.2722(2) 0.87651(8) 0.71330(9)
H66 H 0.2990 0.9993 0.5790
C89 C 0.4064(4) 0.98810(12) 0.60784(13)
C90 C 0.4948(4) 0.99352(15) 0.60787(17)
H67 H 0.5301 0.9823 0.6238
C92 C 0.3622(4) 0.96539(13) 0.63135(13)
C93 C 0.2741(5) 0.96870(16) 0.64041(18)
H69 H 0.2411 0.9855 0.6306
C94 C 0.2321(4) 0.94806(16) 0.66354(17)
H70 H 0.1726 0.9518 0.6695
C95 C 0.2748(4) 0.92293(12) 0.67748(13)
C96 C 0.3612(5) 0.91877(14) 0.66880(17)
H71 H 0.3929 0.9015 0.6784
C97 C 0.4048(4) 0.93970(15) 0.64576(17)
H72 H 0.4645 0.9359 0.6402
C98 C 0.2305(4) 0.90058(13) 0.70308(13)
H82 H 0.8725 0.9884 0.4719
O25 O 0.2460(3) 0.80876(9) 0.71222(10)
O26 O 0.2460(3) 0.80876(9) 0.78778(10)
O27 O 0.1086(3) 0.78840(8) 0.71284(9)
O28 O 0.1086(3) 0.78840(8) 0.78716(9)
H93 H 0.0501404 0.95251 0.767582
O13 O 0.9572(2) 0.66952(8) 0.21227(8)
O14 O 0.9827(3) 0.61660(9) 0.21290(10)
C63_2 C 0.9433(3) 0.64129(15) 0.20189(12)
C64_2 C 0.8758(4) 0.63636(14) 0.17422(14)
C65_2 C 0.8626(5) 0.60566(15) 0.16022(17)
H45_2 H 0.8970 0.5884 0.1681
C66_2 C 0.7995(5) 0.60059(16) 0.13494(18)
H46_2 H 0.7935 0.5800 0.1255
C67_2 C 0.7444(4) 0.62522(15) 0.12294(14)
C68_2 C 0.7599(4) 0.65561(14) 0.13632(16)
H47_2 H 0.7263 0.6730 0.1281
C69_2 C 0.8236(4) 0.66112(14) 0.16141(15)
H48_2 H 0.8315 0.6820 0.1699
C70_2 C 0.6743(4) 0.61859(14) 0.09629(14)
C71_2 C 0.6382(5) 0.58844(17) 0.09295(17)
H49_2 H 0.6555 0.5723 0.1084
C72_2 C 0.5766(5) 0.58123(16) 0.06733(17)
H50_2 H 0.5544 0.5602 0.0661
C73_2 C 0.5463(3) 0.60387(12) 0.04330(12)
C74_2 C 0.5862(5) 0.63238(16) 0.04655(17)
H51_2 H 0.5704 0.6485 0.0308
C75_2 C 0.6497(5) 0.64004(15) 0.07167(18)
H52_2 H 0.6759 0.6605 0.0715
C76_2 C 0.4822(3) 0.59423(11) 0.01500(11)
H53_2 H 0.5466 0.5508 0.0051
H57_2 H 0.4245 0.6393 0.0068
C82_2 C 0.3977(3) 0.57904(12) 0.03122(12)
H59_2 H 0.4151 0.5610 0.0459
H60_2 H 0.3682 0.5950 0.0458
C85_2 C 0.3316(3) 0.56708(12) 0.00338(13)
C112_2 C 0.2495(5) 0.5533(2) 0.0196(2)
C113_2 C 0.2175(5) 0.52373(18) 0.01289(19)
C114_2 C 0.1431(5) 0.51000(19) 0.03172(19)
H82_2 H 0.1275 0.4884 0.0281
C115_2 C 0.0946(5) 0.5284(2) 0.0551(2)
C116_2 C 0.1292(5) 0.55799(18) 0.06215(19)
H83_2 H 0.1030 0.5706 0.0795
C117_2 C 0.2027(5) 0.57001(19) 0.04416(19)
H84_2 H 0.2213 0.5910 0.0493
C118_2 C 0.0123(8) 0.5165(4) 0.0727(4)
H88_2 H 0.0371 0.5390 0.1178
Fe2 Fe 0.92780(6) 0.39192(2) 0.7500
O10_2 O 0.9816(3) 0.43911(12) 0.7500
O11_2 O 0.6141(3) 0.33648(12) 0.7500
O12_2 O 0.8795(3) 0.34915(9) 0.7500
O15_2 O 0.8442(3) 0.40880(8) 0.78680(10)
O16_2 O 0.7278(2) 0.37651(8) 0.78670(9)
C77_2 C 0.5272(3) 0.56910(10) 0.99121(11)
H54_2 H 0.5799 0.5787 0.9806
C78_2 C 0.4645(3) 0.55716(11) 0.96274(12)
C79_2 C 0.4356(3) 0.58695(11) 0.94082(12)
H55_2 H 0.3959 0.5799 0.9223
H56_2 H 0.4881 0.5966 0.9302
C80_2 C 0.3878(3) 0.61229(11) 0.96308(12)
C81_2 C 0.4534(3) 0.62315(11) 0.99229(12)
H58_2 H 0.5060 0.6330 0.9819
C83_2 C 0.3806(3) 0.54257(11) 0.97982(12)
H61_2 H 0.3979 0.5239 0.9936
H62_2 H 0.3400 0.5352 0.9618
C84_2 C 0.3057(4) 0.59662(12) 0.98011(13)
H63_2 H 0.2750 0.6126 0.9943
H64_2 H 0.2646 0.5895 0.9621
C86_2 C 0.5102(4) 0.53248(11) 0.93861(12)
C87_2 C 0.6006(4) 0.52549(16) 0.94049(16)
H65_2 H 0.6355 0.5358 0.9572
C88_2 C 0.6403(4) 0.50374(16) 0.91832(18)
H66_2 H 0.7010 0.4993 0.9210
C89_2 C 0.5936(4) 0.48810(12) 0.89216(13)
C90_2 C 0.5052(4) 0.49352(15) 0.89213(17)
H67_2 H 0.4699 0.4823 0.8762
C91_2 C 0.4628(4) 0.51539(15) 0.91509(17)
H68_2 H 0.4010 0.5180 0.9139
C92_2 C 0.6378(4) 0.46539(13) 0.86865(13)
C93_2 C 0.7259(5) 0.46870(16) 0.85959(18)
H69_2 H 0.7589 0.4855 0.8694
C94_2 C 0.7679(4) 0.44806(16) 0.83646(17)
H70_2 H 0.8274 0.4518 0.8305
C95_2 C 0.7252(4) 0.42293(12) 0.82252(13)
C96_2 C 0.6388(5) 0.41877(14) 0.83120(17)
H71_2 H 0.6071 0.4015 0.8216
C97_2 C 0.5952(4) 0.43970(15) 0.85424(17)
H72_2 H 0.5355 0.4359 0.8598
C98_2 C 0.7695(4) 0.40058(13) 0.79692(13)
C99_2 C 0.3598(5) 0.64066(17) 0.9402(2)
C100_2 C 0.2995(5) 0.63610(16) 0.91391(19)
H73_2 H 0.2764 0.6154 0.9105
C101_2 C 0.2708(5) 0.66119(16) 0.89168(19)
H74_2 H 0.2300 0.6567 0.8740
C102_2 C 0.3017(5) 0.69156(17) 0.8957(2)
C103_2 C 0.3642(5) 0.69426(16) 0.91772(19)
H75_2 H 0.3941 0.7140 0.9192
C104_2 C 0.3915(5) 0.66882(16) 0.94043(19)
H76_2 H 0.4361 0.6734 0.9566
C105_2 C 0.2701(5) 0.71746(14) 0.87155(15)
C106_2 C 0.1862(4) 0.71820(16) 0.85804(19)
H77_2 H 0.1454 0.7023 0.8645
C107_2 C 0.1597(4) 0.74168(15) 0.83516(17)
H78_2 H 0.1011 0.7415 0.8270
C108_2 C 0.2160(4) 0.76499(12) 0.82414(14)
C109_2 C 0.3013(4) 0.76433(14) 0.83679(17)
H79_2 H 0.3421 0.7801 0.8297
C110_2 C 0.3282(5) 0.74068(16) 0.85986(18)
H80_2 H 0.3871 0.7405 0.8677
C111_2 C 0.1861(4) 0.78929(12) 0.79757(13)
H81_2 H 0.2443 0.5115 0.9954
O23 O 0.8442(3) 0.40880(8) 0.71320(10)
O24 O 0.7278(2) 0.37651(8) 0.71330(9)
H93_2 H 0.94986 0.45251 0.732418
O1_2 O 0.9572(2) 0.66952(8) 0.28773(8)
O2_2 O 0.9827(3) 0.61660(9) 0.28710(10)
O9_2 O 0.9549(3) 0.72702(12) 0.2500
C1_2 C 0.9433(3) 0.64129(15) 0.29811(12)
C2_2 C 0.8758(4) 0.63636(14) 0.32578(14)
C3_2 C 0.8626(5) 0.60566(15) 0.33978(17)
H1_2 H 0.8970 0.5884 0.3319
C4_2 C 0.7995(5) 0.60059(16) 0.36506(18)
H2_2 H 0.7935 0.5800 0.3745
C5_2 C 0.7444(4) 0.62522(15) 0.37706(14)
C6_2 C 0.7599(4) 0.65561(14) 0.36368(16)
H3_2 H 0.7263 0.6730 0.3719
C7_2 C 0.8236(4) 0.66112(14) 0.33859(15)
H4_2 H 0.8315 0.6820 0.3301
C8_2 C 0.6743(4) 0.61859(14) 0.40371(14)
C9_2 C 0.6382(5) 0.58844(17) 0.40705(17)
H5_2 H 0.6555 0.5723 0.3916
C10_2 C 0.5766(5) 0.58123(16) 0.43267(17)
H6_2 H 0.5544 0.5602 0.4339
C11_2 C 0.5463(3) 0.60387(12) 0.45670(12)
C12_2 C 0.5862(5) 0.63238(16) 0.45345(17)
H7_2 H 0.5704 0.6485 0.4692
C13_2 C 0.6497(5) 0.64004(15) 0.42833(18)
H8_2 H 0.6759 0.6605 0.4285
C14_2 C 0.4822(3) 0.59423(11) 0.48500(11)
C15_2 C 0.5272(3) 0.56910(10) 0.50879(11)
H9_2 H 0.5466 0.5508 0.4949
H10_2 H 0.5799 0.5787 0.5194
C16_2 C 0.4645(3) 0.55716(11) 0.53726(12)
C17_2 C 0.4356(3) 0.58695(11) 0.55918(12)
H11_2 H 0.3959 0.5799 0.5777
H12_2 H 0.4881 0.5966 0.5698
C18_2 C 0.3878(3) 0.61229(11) 0.53692(12)
C19_2 C 0.4534(3) 0.62315(11) 0.50771(12)
H13_2 H 0.4245 0.6393 0.4932
H14_2 H 0.5060 0.6330 0.5181
C20_2 C 0.3977(3) 0.57904(12) 0.46878(12)
H15_2 H 0.4151 0.5610 0.4541
H16_2 H 0.3682 0.5950 0.4542
C21_2 C 0.3806(3) 0.54257(11) 0.52018(12)
H17_2 H 0.3979 0.5239 0.5064
H18_2 H 0.3400 0.5352 0.5382
C22_2 C 0.3057(4) 0.59662(12) 0.51989(13)
H19_2 H 0.2750 0.6126 0.5057
H20_2 H 0.2646 0.5895 0.5379
C23_2 C 0.3316(3) 0.56708(12) 0.49662(13)
C24_2 C 0.5102(4) 0.53248(11) 0.56139(12)
C25_2 C 0.6006(4) 0.52549(16) 0.55951(16)
H21_2 H 0.6355 0.5358 0.5428
C26_2 C 0.6403(4) 0.50374(16) 0.58168(18)
H22_2 H 0.7010 0.4993 0.5790
C27_2 C 0.5936(4) 0.48810(12) 0.60784(13)
C28_2 C 0.5052(4) 0.49352(15) 0.60787(17)
H23_2 H 0.4699 0.4823 0.6238
C29_2 C 0.4628(4) 0.51539(15) 0.58491(17)
H24_2 H 0.4010 0.5180 0.5861
C30_2 C 0.6378(4) 0.46539(13) 0.63135(13)
C31_2 C 0.7259(5) 0.46870(16) 0.64041(18)
H25_2 H 0.7589 0.4855 0.6306
C32_2 C 0.7679(4) 0.44806(16) 0.66354(17)
H26_2 H 0.8274 0.4518 0.6695
C33_2 C 0.7252(4) 0.42293(12) 0.67748(13)
C34_2 C 0.6388(5) 0.41877(14) 0.66880(17)
H27_2 H 0.6071 0.4015 0.6784
C35_2 C 0.5952(4) 0.43970(15) 0.64576(17)
H28_2 H 0.5355 0.4359 0.6402
C36_2 C 0.7695(4) 0.40058(13) 0.70308(13)
C37_2 C 0.3598(5) 0.64066(17) 0.5598(2)
C38_2 C 0.2995(5) 0.63610(16) 0.58609(19)
H29_2 H 0.2764 0.6154 0.5895
C39_2 C 0.2708(5) 0.66119(16) 0.60832(19)
H30_2 H 0.2300 0.6567 0.6260
C40_2 C 0.3017(5) 0.69156(17) 0.6043(2)
C41_2 C 0.3642(5) 0.69426(16) 0.58228(19)
H31_2 H 0.3941 0.7140 0.5808
C42_2 C 0.3915(5) 0.66882(16) 0.55957(19)
H32_2 H 0.4361 0.6734 0.5434
C43_2 C 0.2701(5) 0.71746(14) 0.62845(15)
C44_2 C 0.1862(4) 0.71820(16) 0.64196(19)
H33_2 H 0.1454 0.7023 0.6355
C45_2 C 0.1597(4) 0.74168(15) 0.66484(17)
H34_2 H 0.1011 0.7415 0.6730
C46_2 C 0.2160(4) 0.76499(12) 0.67586(14)
C47_2 C 0.3013(4) 0.76433(14) 0.66321(17)
H35_2 H 0.3421 0.7801 0.6703
C48_2 C 0.3282(5) 0.74068(16) 0.64014(18)
H36_2 H 0.3871 0.7405 0.6323
C49_2 C 0.1861(4) 0.78929(12) 0.70243(13)
C50_2 C 0.2495(5) 0.5533(2) 0.4804(2)
C51_2 C 0.2175(5) 0.52373(18) 0.48711(19)
H37_2 H 0.2443 0.5115 0.5046
C52_2 C 0.1431(5) 0.51000(19) 0.46828(19)
H38 H 0.1275 0.4884 0.4719
C53_2 C 0.0946(5) 0.5284(2) 0.4449(2)
C54_2 C 0.1292(5) 0.55799(18) 0.43785(19)
H39_2 H 0.1030 0.5706 0.4205
C55_2 C 0.2027(5) 0.57001(19) 0.45584(19)
H40_2 H 0.2213 0.5910 0.4507
C56_2 C 0.0123(8) 0.5165(4) 0.4273(4)
H44_2 H 0.0371 0.5390 0.3822
H92_2 H 0.953623 0.561866 0.244162
H93_3 H 0.0501404 0.95251 0.732418
H92_3 H 0.0463771 0.0618659 0.244162
H92_4 H 0.953623 0.561866 0.255838
H93_4 H 0.94986 0.45251 0.767582
H38_2 H 0.8725 0.9884 0.0281
Fe1 Fe 0.95996(6) 0.18737(2) 0.2500
Fe2_2 Fe 0.92780(6) 0.10808(2) 0.2500
Fe3 Fe 0.75273(7) 0.15692(2) 0.2500
O10_3 O 0.9816(3) 0.06089(12) 0.2500
O11_3 O 0.6141(3) 0.16352(12) 0.2500
O12_3 O 0.8795(3) 0.15085(9) 0.2500
O15_3 O 0.8442(3) 0.09120(8) 0.21320(10)
O16_3 O 0.7278(2) 0.12349(8) 0.21330(9)
H66_3 H 0.7010 0.0007 0.0790
C89_3 C 0.5936(4) 0.01190(12) 0.10784(13)
C90_3 C 0.5052(4) 0.00648(15) 0.10787(17)
H67_3 H 0.4699 0.0177 0.1238
C92_3 C 0.6378(4) 0.03461(13) 0.13135(13)
C93_3 C 0.7259(5) 0.03130(16) 0.14041(18)
H69_3 H 0.7589 0.0145 0.1306
C94_3 C 0.7679(4) 0.05194(16) 0.16354(17)
H70_3 H 0.8274 0.0482 0.1695
C95_3 C 0.7252(4) 0.07707(12) 0.17748(13)
C96_3 C 0.6388(5) 0.08123(14) 0.16880(17)
H71_3 H 0.6071 0.0985 0.1784
C97_3 C 0.5952(4) 0.06030(15) 0.14576(17)
H72_3 H 0.5355 0.0641 0.1402
C98_3 C 0.7695(4) 0.09942(13) 0.20308(13)
O23_2 O 0.8442(3) 0.09120(8) 0.28680(10)
O24_2 O 0.7278(2) 0.12349(8) 0.28670(9)
O25_2 O 0.7540(3) 0.19124(9) 0.21222(10)
O26_2 O 0.7540(3) 0.19124(9) 0.28778(10)
O27_2 O 0.8914(3) 0.21160(8) 0.21284(9)
O28_2 O 0.8914(3) 0.21160(8) 0.28716(9)
H93_5 H 0.94986 0.0474898 0.267582
O17_2 O 0.2460(3) 0.69124(9) 0.21222(10)
O18_2 O 0.1086(3) 0.71160(8) 0.21284(9)
C77_3 C 0.5272(3) 0.93090(10) 0.00879(11)
H54_3 H 0.5799 0.9213 0.0194
C78_3 C 0.4645(3) 0.94284(11) 0.03726(12)
C79_3 C 0.4356(3) 0.91305(11) 0.05918(12)
H55_3 H 0.3959 0.9201 0.0777
H56_3 H 0.4881 0.9034 0.0698
C80_3 C 0.3878(3) 0.88771(11) 0.03692(12)
C81_3 C 0.4534(3) 0.87685(11) 0.00771(12)
H58_3 H 0.5060 0.8670 0.0181
C83_3 C 0.3806(3) 0.95743(11) 0.02018(12)
H61_3 H 0.3979 0.9761 0.0064
H62_3 H 0.3400 0.9648 0.0382
C84_3 C 0.3057(4) 0.90338(12) 0.01989(13)
H63_3 H 0.2750 0.8874 0.0057
H64_3 H 0.2646 0.9105 0.0379
C86_3 C 0.5102(4) 0.96752(11) 0.06139(12)
C87_3 C 0.6006(4) 0.97451(16) 0.05951(16)
H65_3 H 0.6355 0.9642 0.0428
C88_3 C 0.6403(4) 0.99626(16) 0.08168(18)
C91_3 C 0.4628(4) 0.98461(15) 0.08491(17)
H68_3 H 0.4010 0.9820 0.0861
C99_3 C 0.3598(5) 0.85934(17) 0.0598(2)
C100_3 C 0.2995(5) 0.86390(16) 0.08609(19)
H73_3 H 0.2764 0.8846 0.0895
C101_3 C 0.2708(5) 0.83881(16) 0.10832(19)
H74_3 H 0.2300 0.8433 0.1260
C102_3 C 0.3017(5) 0.80844(17) 0.1043(2)
C103_3 C 0.3642(5) 0.80574(16) 0.08228(19)
H75_3 H 0.3941 0.7860 0.0808
C104_3 C 0.3915(5) 0.83118(16) 0.05957(19)
H76_3 H 0.4361 0.8266 0.0434
C105_3 C 0.2701(5) 0.78254(14) 0.12845(15)
C106_3 C 0.1862(4) 0.78180(16) 0.14196(19)
H77_3 H 0.1454 0.7977 0.1355
C107_3 C 0.1597(4) 0.75832(15) 0.16484(17)
H78_3 H 0.1011 0.7585 0.1730
C108_3 C 0.2160(4) 0.73501(12) 0.17586(14)
C109_3 C 0.3013(4) 0.73567(14) 0.16321(17)
H79_3 H 0.3421 0.7199 0.1703
C110_3 C 0.3282(5) 0.75932(16) 0.14014(18)
H80_3 H 0.3871 0.7595 0.1323
C111_3 C 0.1861(4) 0.71071(12) 0.20243(13)
H81_3 H 0.2443 0.9885 0.0046
Fe6 Fe 0.04004(6) 0.68737(2) 0.2500
Fe10 Fe 0.24727(7) 0.65692(2) 0.2500
O13_2 O 0.9572(2) 0.83048(8) 0.78773(8)
O14_2 O 0.9827(3) 0.88340(9) 0.78710(10)
C63_3 C 0.9433(3) 0.85871(15) 0.79811(12)
C64_3 C 0.8758(4) 0.86364(14) 0.82578(14)
C65_3 C 0.8626(5) 0.89434(15) 0.83978(17)
H45_3 H 0.8970 0.9116 0.8319
C66_3 C 0.7995(5) 0.89941(16) 0.86506(18)
H46_3 H 0.7935 0.9200 0.8745
C67_3 C 0.7444(4) 0.87478(15) 0.87706(14)
C68_3 C 0.7599(4) 0.84439(14) 0.86368(16)
H47_3 H 0.7263 0.8270 0.8719
C69_3 C 0.8236(4) 0.83888(14) 0.83859(15)
H48_3 H 0.8315 0.8180 0.8301
C70_3 C 0.6743(4) 0.88141(14) 0.90371(14)
C71_3 C 0.6382(5) 0.91156(17) 0.90705(17)
H49_3 H 0.6555 0.9277 0.8916
C72_3 C 0.5766(5) 0.91877(16) 0.93267(17)
H50_3 H 0.5544 0.9398 0.9339
C73_3 C 0.5463(3) 0.89613(12) 0.95670(12)
C74_3 C 0.5862(5) 0.86762(16) 0.95345(17)
H51_3 H 0.5704 0.8515 0.9692
C75_3 C 0.6497(5) 0.85996(15) 0.92833(18)
H52_3 H 0.6759 0.8395 0.9285
C76_3 C 0.4822(3) 0.90577(11) 0.98500(11)
H53_3 H 0.5466 0.9492 0.9949
H57_3 H 0.4245 0.8607 0.9932
C82_3 C 0.3977(3) 0.92096(12) 0.96878(12)
H59_3 H 0.4151 0.9390 0.9541
H60_3 H 0.3682 0.9050 0.9542
C85_3 C 0.3316(3) 0.93292(12) 0.99662(13)
C112_3 C 0.2495(5) 0.9467(2) 0.9804(2)
C113_3 C 0.2175(5) 0.97627(18) 0.98711(19)
C114_3 C 0.1431(5) 0.99000(19) 0.96828(19)
C115_3 C 0.0946(5) 0.9716(2) 0.9449(2)
C116_3 C 0.1292(5) 0.94201(18) 0.93785(19)
H83_3 H 0.1030 0.9294 0.9205
C117_3 C 0.2027(5) 0.92999(19) 0.95584(19)
H84_3 H 0.2213 0.9090 0.9507
C118_3 C 0.0123(8) 0.9835(4) 0.9273(4)
H88_3 H 0.0371 0.9610 0.8822
H22_3 H 0.7010 0.0007 0.4210
C27_3 C 0.5936(4) 0.01190(12) 0.39216(13)
C28_3 C 0.5052(4) 0.00648(15) 0.39213(17)
H23_3 H 0.4699 0.0177 0.3762
C30_3 C 0.6378(4) 0.03461(13) 0.36865(13)
C31_3 C 0.7259(5) 0.03130(16) 0.35959(18)
H25_3 H 0.7589 0.0145 0.3694
C32_3 C 0.7679(4) 0.05194(16) 0.33646(17)
H26_3 H 0.8274 0.0482 0.3305
C33_3 C 0.7252(4) 0.07707(12) 0.32252(13)
C34_3 C 0.6388(5) 0.08123(14) 0.33120(17)
H27_3 H 0.6071 0.0985 0.3216
C35_3 C 0.5952(4) 0.06030(15) 0.35424(17)
H28_3 H 0.5355 0.0641 0.3598
C36_3 C 0.7695(4) 0.09942(13) 0.29692(13)
H38_3 H 0.1275 0.0116 0.5281
O1_3 O 0.9572(2) 0.83048(8) 0.71227(8)
O2_3 O 0.9827(3) 0.88340(9) 0.71290(10)
O5_2 O 0.2460(3) 0.69124(9) 0.28778(10)
O6_2 O 0.1086(3) 0.71160(8) 0.28716(9)
O9_3 O 0.9549(3) 0.77298(12) 0.7500
C1_3 C 0.9433(3) 0.85871(15) 0.70189(12)
C2_3 C 0.8758(4) 0.86364(14) 0.67422(14)
C3_3 C 0.8626(5) 0.89434(15) 0.66022(17)
H1_3 H 0.8970 0.9116 0.6681
C4_3 C 0.7995(5) 0.89941(16) 0.63494(18)
H2_3 H 0.7935 0.9200 0.6255
C5_3 C 0.7444(4) 0.87478(15) 0.62294(14)
C6_3 C 0.7599(4) 0.84439(14) 0.63632(16)
H3_3 H 0.7263 0.8270 0.6281
C7_3 C 0.8236(4) 0.83888(14) 0.66141(15)
H4_3 H 0.8315 0.8180 0.6699
C8_3 C 0.6743(4) 0.88141(14) 0.59629(14)
C9_3 C 0.6382(5) 0.91156(17) 0.59295(17)
H5_3 H 0.6555 0.9277 0.6084
C10_3 C 0.5766(5) 0.91877(16) 0.56733(17)
H6_3 H 0.5544 0.9398 0.5661
C11_3 C 0.5463(3) 0.89613(12) 0.54330(12)
C12_3 C 0.5862(5) 0.86762(16) 0.54655(17)
H7_3 H 0.5704 0.8515 0.5308
C13_3 C 0.6497(5) 0.85996(15) 0.57167(18)
H8_3 H 0.6759 0.8395 0.5715
C14_3 C 0.4822(3) 0.90577(11) 0.51500(11)
C15_3 C 0.5272(3) 0.93090(10) 0.49121(11)
H9_3 H 0.5466 0.9492 0.5051
H10_3 H 0.5799 0.9213 0.4806
C16_3 C 0.4645(3) 0.94284(11) 0.46274(12)
C17_3 C 0.4356(3) 0.91305(11) 0.44082(12)
H11_3 H 0.3959 0.9201 0.4223
H12_3 H 0.4881 0.9034 0.4302
C18_3 C 0.3878(3) 0.88771(11) 0.46308(12)
C19_3 C 0.4534(3) 0.87685(11) 0.49229(12)
H13_3 H 0.4245 0.8607 0.5068
H14_3 H 0.5060 0.8670 0.4819
C20_3 C 0.3977(3) 0.92096(12) 0.53122(12)
H15_3 H 0.4151 0.9390 0.5459
H16_3 H 0.3682 0.9050 0.5458
C21_3 C 0.3806(3) 0.95743(11) 0.47982(12)
H17_3 H 0.3979 0.9761 0.4936
H18_3 H 0.3400 0.9648 0.4618
C22_3 C 0.3057(4) 0.90338(12) 0.48011(13)
H19_3 H 0.2750 0.8874 0.4943
H20_3 H 0.2646 0.9105 0.4621
C23_3 C 0.3316(3) 0.93292(12) 0.50338(13)
C24_3 C 0.5102(4) 0.96752(11) 0.43861(12)
C25_3 C 0.6006(4) 0.97451(16) 0.44049(16)
H21_3 H 0.6355 0.9642 0.4572
C26_3 C 0.6403(4) 0.99626(16) 0.41832(18)
C29_3 C 0.4628(4) 0.98461(15) 0.41509(17)
H24_3 H 0.4010 0.9820 0.4139
C37_3 C 0.3598(5) 0.85934(17) 0.4402(2)
C38_3 C 0.2995(5) 0.86390(16) 0.41391(19)
H29_3 H 0.2764 0.8846 0.4105
C39_3 C 0.2708(5) 0.83881(16) 0.39168(19)
H30_3 H 0.2300 0.8433 0.3740
C40_3 C 0.3017(5) 0.80844(17) 0.3957(2)
C41_3 C 0.3642(5) 0.80574(16) 0.41772(19)
H31_3 H 0.3941 0.7860 0.4192
C42_3 C 0.3915(5) 0.83118(16) 0.44043(19)
H32_3 H 0.4361 0.8266 0.4566
C43_3 C 0.2701(5) 0.78254(14) 0.37155(15)
C44_3 C 0.1862(4) 0.78180(16) 0.35804(19)
H33_3 H 0.1454 0.7977 0.3645
C45_3 C 0.1597(4) 0.75832(15) 0.33516(17)
H34_3 H 0.1011 0.7585 0.3270
C46_3 C 0.2160(4) 0.73501(12) 0.32414(14)
C47_3 C 0.3013(4) 0.73567(14) 0.33679(17)
H35_3 H 0.3421 0.7199 0.3297
C48_3 C 0.3282(5) 0.75932(16) 0.35986(18)
H36_3 H 0.3871 0.7595 0.3677
C49_3 C 0.1861(4) 0.71071(12) 0.29757(13)
C50_3 C 0.2495(5) 0.9467(2) 0.5196(2)
C51_3 C 0.2175(5) 0.97627(18) 0.51289(19)
H37_3 H 0.2443 0.9885 0.4954
C52_3 C 0.1431(5) 0.99000(19) 0.53172(19)
C53_3 C 0.0946(5) 0.9716(2) 0.5551(2)
C54_3 C 0.1292(5) 0.94201(18) 0.56215(19)
H39_3 H 0.1030 0.9294 0.5795
C55_3 C 0.2027(5) 0.92999(19) 0.54416(19)
H40_3 H 0.2213 0.9090 0.5493
C56_3 C 0.0123(8) 0.9835(4) 0.5727(4)
H44_3 H 0.0371 0.9610 0.6178
H92_5 H 0.953623 0.938134 0.755838
O3_2 O 0.1558(3) 0.59120(8) 0.21320(10)
O4_2 O 0.2722(2) 0.62349(8) 0.21330(9)
C15_4 C 0.4728(3) 0.43090(10) 0.00879(11)
H10_4 H 0.4201 0.4213 0.0194
C16_4 C 0.5355(3) 0.44284(11) 0.03726(12)
C17_4 C 0.5644(3) 0.41305(11) 0.05918(12)
H11_4 H 0.6041 0.4201 0.0777
H12_4 H 0.5119 0.4034 0.0698
C18_4 C 0.6122(3) 0.38771(11) 0.03692(12)
C19_4 C 0.5466(3) 0.37685(11) 0.00771(12)
H14_4 H 0.4940 0.3670 0.0181
C21_4 C 0.6194(3) 0.45743(11) 0.02018(12)
H17_4 H 0.6021 0.4761 0.0064
H18_4 H 0.6600 0.4648 0.0382
C22_4 C 0.6943(4) 0.40338(12) 0.01989(13)
H19_4 H 0.7250 0.3874 0.0057
H20_4 H 0.7354 0.4105 0.0379
C24_4 C 0.4898(4) 0.46752(11) 0.06139(12)
C25_4 C 0.3994(4) 0.47451(16) 0.05951(16)
H21_4 H 0.3645 0.4642 0.0428
C26_4 C 0.3597(4) 0.49626(16) 0.08168(18)
H22_4 H 0.2990 0.5007 0.0790
C27_4 C 0.4064(4) 0.51190(12) 0.10784(13)
C28_4 C 0.4948(4) 0.50648(15) 0.10787(17)
H23_4 H 0.5301 0.5177 0.1238
C29_4 C 0.5372(4) 0.48461(15) 0.08491(17)
H24_4 H 0.5990 0.4820 0.0861
C30_4 C 0.3622(4) 0.53461(13) 0.13135(13)
C31_4 C 0.2741(5) 0.53130(16) 0.14041(18)
H25_4 H 0.2411 0.5145 0.1306
C32_4 C 0.2321(4) 0.55194(16) 0.16354(17)
H26_4 H 0.1726 0.5482 0.1695
C33_4 C 0.2748(4) 0.57707(12) 0.17748(13)
C34_4 C 0.3612(5) 0.58123(14) 0.16880(17)
H27_4 H 0.3929 0.5985 0.1784
C35_4 C 0.4048(4) 0.56030(15) 0.14576(17)
H28_4 H 0.4645 0.5641 0.1402
C36_4 C 0.2305(4) 0.59942(13) 0.20308(13)
C37_4 C 0.6402(5) 0.35934(17) 0.0598(2)
C38_4 C 0.7005(5) 0.36390(16) 0.08609(19)
H29_4 H 0.7236 0.3846 0.0895
C39_4 C 0.7292(5) 0.33881(16) 0.10832(19)
H30_4 H 0.7700 0.3433 0.1260
C40_4 C 0.6983(5) 0.30844(17) 0.1043(2)
C41_4 C 0.6358(5) 0.30574(16) 0.08228(19)
H31_4 H 0.6059 0.2860 0.0808
C42_4 C 0.6085(5) 0.33118(16) 0.05957(19)
H32_4 H 0.5639 0.3266 0.0434
C43_4 C 0.7299(5) 0.28254(14) 0.12845(15)
C44_4 C 0.8138(4) 0.28180(16) 0.14196(19)
H33_4 H 0.8546 0.2977 0.1355
C45_4 C 0.8403(4) 0.25832(15) 0.16484(17)
H34_4 H 0.8989 0.2585 0.1730
C46_4 C 0.7840(4) 0.23501(12) 0.17586(14)
C47_4 C 0.6987(4) 0.23567(14) 0.16321(17)
H35_4 H 0.6579 0.2199 0.1703
C48_4 C 0.6718(5) 0.25932(16) 0.14014(18)
H36_4 H 0.6129 0.2595 0.1323
C49_4 C 0.8139(4) 0.21071(12) 0.20243(13)
H37_4 H 0.7557 0.4885 0.0046
Fe7_2 Fe 0.07220(6) 0.60808(2) 0.2500
O1_4 O 0.0428(2) 0.33048(8) 0.78773(8)
O2_4 O 0.0173(3) 0.38340(9) 0.78710(10)
O9_4 O 0.0451(3) 0.27298(12) 0.7500
C1_4 C 0.0567(3) 0.35871(15) 0.79811(12)
C2_4 C 0.1242(4) 0.36364(14) 0.82578(14)
C3_4 C 0.1374(5) 0.39434(15) 0.83978(17)
H1_4 H 0.1030 0.4116 0.8319
C4_4 C 0.2005(5) 0.39941(16) 0.86506(18)
H2_4 H 0.2065 0.4200 0.8745
C5_4 C 0.2556(4) 0.37478(15) 0.87706(14)
C6_4 C 0.2401(4) 0.34439(14) 0.86368(16)
H3_4 H 0.2737 0.3270 0.8719
C7_4 C 0.1764(4) 0.33888(14) 0.83859(15)
H4_4 H 0.1685 0.3180 0.8301
C8_4 C 0.3257(4) 0.38141(14) 0.90371(14)
C9_4 C 0.3618(5) 0.41156(17) 0.90705(17)
H5_4 H 0.3445 0.4277 0.8916
C10_4 C 0.4234(5) 0.41877(16) 0.93267(17)
H6_4 H 0.4456 0.4398 0.9339
C11_4 C 0.4537(3) 0.39613(12) 0.95670(12)
C12_4 C 0.4138(5) 0.36762(16) 0.95345(17)
H7_4 H 0.4296 0.3515 0.9692
C13_4 C 0.3503(5) 0.35996(15) 0.92833(18)
H8_4 H 0.3241 0.3395 0.9285
C14_4 C 0.5178(3) 0.40577(11) 0.98500(11)
H9_4 H 0.4534 0.4492 0.9949
H13_4 H 0.5755 0.3607 0.9932
C20_4 C 0.6023(3) 0.42096(12) 0.96878(12)
H15_4 H 0.5849 0.4390 0.9541
H16_4 H 0.6318 0.4050 0.9542
C23_4 C 0.6684(3) 0.43292(12) 0.99662(13)
C50_4 C 0.7505(5) 0.4467(2) 0.9804(2)
C51_4 C 0.7825(5) 0.47627(18) 0.98711(19)
C52_4 C 0.8569(5) 0.49000(19) 0.96828(19)
H38_4 H 0.8725 0.5116 0.9719
C53_4 C 0.9054(5) 0.4716(2) 0.9449(2)
C54_4 C 0.8708(5) 0.44201(18) 0.93785(19)
H39_4 H 0.8970 0.4294 0.9205
C55_4 C 0.7973(5) 0.42999(19) 0.95584(19)
H40_4 H 0.7787 0.4090 0.9507
C56_4 C 0.9877(8) 0.4835(4) 0.9273(4)
H44_4 H 0.9629 0.4610 0.8822
O21_2 O 0.0428(2) 0.33048(8) 0.71227(8)
O22_2 O 0.0173(3) 0.38340(9) 0.71290(10)
H92_6 H 0.0463771 0.438134 0.744162
O10_4 O 0.0184(3) 0.56089(12) 0.2500
O11_4 O 0.3859(3) 0.66352(12) 0.2500
O12_4 O 0.1205(3) 0.65085(9) 0.2500
O15_4 O 0.1558(3) 0.59120(8) 0.28680(10)
O16_4 O 0.2722(2) 0.62349(8) 0.28670(9)
C63_4 C 0.0567(3) 0.35871(15) 0.70189(12)
C64_4 C 0.1242(4) 0.36364(14) 0.67422(14)
C65_4 C 0.1374(5) 0.39434(15) 0.66022(17)
H45_4 H 0.1030 0.4116 0.6681
C66_4 C 0.2005(5) 0.39941(16) 0.63494(18)
H46_4 H 0.2065 0.4200 0.6255
C67_4 C 0.2556(4) 0.37478(15) 0.62294(14)
C68_4 C 0.2401(4) 0.34439(14) 0.63632(16)
H47_4 H 0.2737 0.3270 0.6281
C69_4 C 0.1764(4) 0.33888(14) 0.66141(15)
H48_4 H 0.1685 0.3180 0.6699
C70_4 C 0.3257(4) 0.38141(14) 0.59629(14)
C71_4 C 0.3618(5) 0.41156(17) 0.59295(17)
H49_4 H 0.3445 0.4277 0.6084
C72_4 C 0.4234(5) 0.41877(16) 0.56733(17)
H50_4 H 0.4456 0.4398 0.5661
C73_4 C 0.4537(3) 0.39613(12) 0.54330(12)
C74_4 C 0.4138(5) 0.36762(16) 0.54655(17)
H51_4 H 0.4296 0.3515 0.5308
C75_4 C 0.3503(5) 0.35996(15) 0.57167(18)
H52_4 H 0.3241 0.3395 0.5715
C76_4 C 0.5178(3) 0.40577(11) 0.51500(11)
C77_4 C 0.4728(3) 0.43090(10) 0.49121(11)
H53_4 H 0.4534 0.4492 0.5051
H54_4 H 0.4201 0.4213 0.4806
C78_4 C 0.5355(3) 0.44284(11) 0.46274(12)
C79_4 C 0.5644(3) 0.41305(11) 0.44082(12)
H55_4 H 0.6041 0.4201 0.4223
H56_4 H 0.5119 0.4034 0.4302
C80_4 C 0.6122(3) 0.38771(11) 0.46308(12)
C81_4 C 0.5466(3) 0.37685(11) 0.49229(12)
H57_4 H 0.5755 0.3607 0.5068
H58_4 H 0.4940 0.3670 0.4819
C82_4 C 0.6023(3) 0.42096(12) 0.53122(12)
H59_4 H 0.5849 0.4390 0.5459
H60_4 H 0.6318 0.4050 0.5458
C83_4 C 0.6194(3) 0.45743(11) 0.47982(12)
H61_4 H 0.6021 0.4761 0.4936
H62_4 H 0.6600 0.4648 0.4618
C84_4 C 0.6943(4) 0.40338(12) 0.48011(13)
H63_4 H 0.7250 0.3874 0.4943
H64_4 H 0.7354 0.4105 0.4621
C85_4 C 0.6684(3) 0.43292(12) 0.50338(13)
C86_4 C 0.4898(4) 0.46752(11) 0.43861(12)
C87_4 C 0.3994(4) 0.47451(16) 0.44049(16)
H65_4 H 0.3645 0.4642 0.4572
C88_4 C 0.3597(4) 0.49626(16) 0.41832(18)
H66_4 H 0.2990 0.5007 0.4210
C89_4 C 0.4064(4) 0.51190(12) 0.39216(13)
C90_4 C 0.4948(4) 0.50648(15) 0.39213(17)
H67_4 H 0.5301 0.5177 0.3762
C91_4 C 0.5372(4) 0.48461(15) 0.41509(17)
H68_4 H 0.5990 0.4820 0.4139
C92_4 C 0.3622(4) 0.53461(13) 0.36865(13)
C93_4 C 0.2741(5) 0.53130(16) 0.35959(18)
H69_4 H 0.2411 0.5145 0.3694
C94_4 C 0.2321(4) 0.55194(16) 0.33646(17)
H70_4 H 0.1726 0.5482 0.3305
C95_4 C 0.2748(4) 0.57707(12) 0.32252(13)
C96_4 C 0.3612(5) 0.58123(14) 0.33120(17)
H71_4 H 0.3929 0.5985 0.3216
C97_4 C 0.4048(4) 0.56030(15) 0.35424(17)
H72_4 H 0.4645 0.5641 0.3598
C98_4 C 0.2305(4) 0.59942(13) 0.29692(13)
C99_4 C 0.6402(5) 0.35934(17) 0.4402(2)
C100_4 C 0.7005(5) 0.36390(16) 0.41391(19)
H73_4 H 0.7236 0.3846 0.4105
C101_4 C 0.7292(5) 0.33881(16) 0.39168(19)
H74_4 H 0.7700 0.3433 0.3740
C102_4 C 0.6983(5) 0.30844(17) 0.3957(2)
C103_4 C 0.6358(5) 0.30574(16) 0.41772(19)
H75_4 H 0.6059 0.2860 0.4192
C104_4 C 0.6085(5) 0.33118(16) 0.44043(19)
H76_4 H 0.5639 0.3266 0.4566
C105_4 C 0.7299(5) 0.28254(14) 0.37155(15)
C106_4 C 0.8138(4) 0.28180(16) 0.35804(19)
H77_4 H 0.8546 0.2977 0.3645
C107_4 C 0.8403(4) 0.25832(15) 0.33516(17)
H78_4 H 0.8989 0.2585 0.3270
C108_4 C 0.7840(4) 0.23501(12) 0.32414(14)
C109_4 C 0.6987(4) 0.23567(14) 0.33679(17)
H79_4 H 0.6579 0.2199 0.3297
C110_4 C 0.6718(5) 0.25932(16) 0.35986(18)
H80_4 H 0.6129 0.2595 0.3677
C111_4 C 0.8139(4) 0.21071(12) 0.29757(13)
C112_4 C 0.7505(5) 0.4467(2) 0.5196(2)
C113_4 C 0.7825(5) 0.47627(18) 0.51289(19)
H81_4 H 0.7557 0.4885 0.4954
C114_4 C 0.8569(5) 0.49000(19) 0.53172(19)
H82_3 H 0.8725 0.5116 0.5281
C115_4 C 0.9054(5) 0.4716(2) 0.5551(2)
C116_4 C 0.8708(5) 0.44201(18) 0.56215(19)
H83_4 H 0.8970 0.4294 0.5795
C117_4 C 0.7973(5) 0.42999(19) 0.54416(19)
H84_4 H 0.7787 0.4090 0.5493
C118_4 C 0.9877(8) 0.4835(4) 0.5727(4)
H88_4 H 0.9629 0.4610 0.6178
H93_6 H 0.0501404 0.54749 0.232418
H92_7 H 0.953623 0.938134 0.744162
H93_7 H 0.94986 0.0474898 0.232418
H93_8 H 0.0501404 0.54749 0.267582
H92_8 H 0.0463771 0.438134 0.755838
H82_4 H 0.1275 0.0116 0.9719
O19 O 0.7569(5) 0.0060(2) 0.8499(2)
O20 O 0.7435(5) 0.0471(2) 0.8880(2)
C119 C 0.9678(8) 0.0085(3) 0.9405(3)
H85 H 0.9882 0.0180 0.9610
C120 C 0.8888(8) 0.0212(3) 0.9240(3)
H86 H 0.8589 0.0391 0.9330
C121 C 0.8600(8) 0.0062(4) 0.8952(4)
C124 C 0.7810(8) 0.0241(4) 0.8801(4)
H96_2 H 0.762634 0.0199492 0.828949
C122 C 0.9122(8) 0.9844(3) 0.8766(3)
H87 H 0.8957 0.9768 0.8547
C123 C 0.9960(8) 0.9739(3) 0.8940(3)
H89_2 H 0.693981 0.998439 0.852122
C122_2 C 0.0878(8) 0.0156(3) 0.3766(3)
H87_2 H 0.1043 0.0232 0.3547
C123_2 C 0.0040(8) 0.0261(3) 0.3940(3)
H89_3 H 0.306019 0.0015614 0.352122
O19_2 O 0.2431(5) 0.9940(2) 0.3499(2)
O20_2 O 0.2565(5) 0.9529(2) 0.3880(2)
C119_2 C 0.0322(8) 0.9915(3) 0.4405(3)
H85_2 H 0.0118 0.9820 0.4610
C120_2 C 0.1112(8) 0.9788(3) 0.4240(3)
H86_2 H 0.1411 0.9609 0.4330
C121_2 C 0.1400(8) 0.9938(4) 0.3952(4)
C124_2 C 0.2190(8) 0.9759(4) 0.3801(4)
H96_3 H 0.237366 0.980051 0.328949
O7_2 O 0.7569(5) 0.0060(2) 0.6501(2)
O8_2 O 0.7435(5) 0.0471(2) 0.6120(2)
C57_2 C 0.9678(8) 0.0085(3) 0.5595(3)
H41_2 H 0.9882 0.0180 0.5390
C58_2 C 0.8888(8) 0.0212(3) 0.5760(3)
H42_2 H 0.8589 0.0391 0.5670
C59_2 C 0.8600(8) 0.0062(4) 0.6048(4)
C62_2 C 0.7810(8) 0.0241(4) 0.6199(4)
H96_4 H 0.762634 0.0199492 0.671051
C60_2 C 0.9122(8) 0.9844(3) 0.6234(3)
H43_2 H 0.8957 0.9768 0.6453
C61_2 C 0.9960(8) 0.9739(3) 0.6060(3)
H89_4 H 0.693981 0.998439 0.647878
O7_3 O 0.2431(5) 0.5060(2) 0.8499(2)
O8_3 O 0.2565(5) 0.5471(2) 0.8880(2)
C57_3 C 0.0322(8) 0.5085(3) 0.9405(3)
H41_3 H 0.0118 0.5180 0.9610
C58_3 C 0.1112(8) 0.5212(3) 0.9240(3)
H42_3 H 0.1411 0.5391 0.9330
C59_3 C 0.1400(8) 0.5062(4) 0.8952(4)
C60_3 C 0.0878(8) 0.4844(3) 0.8766(3)
H43_3 H 0.1043 0.4768 0.8547
C61_3 C 0.0040(8) 0.4739(3) 0.8940(3)
C62_3 C 0.2190(8) 0.5241(4) 0.8801(4)
H89_5 H 0.306019 0.498439 0.852122
H96_5 H 0.237366 0.519949 0.828949
O19_3 O 0.7569(5) 0.4940(2) 0.1501(2)
O20_3 O 0.7435(5) 0.4529(2) 0.1120(2)
C119_3 C 0.9678(8) 0.4915(3) 0.0595(3)
H85_3 H 0.9882 0.4820 0.0390
C120_3 C 0.8888(8) 0.4788(3) 0.0760(3)
H86_3 H 0.8589 0.4609 0.0670
C121_3 C 0.8600(8) 0.4938(4) 0.1048(4)
C122_3 C 0.9122(8) 0.5156(3) 0.1234(3)
H87_3 H 0.8957 0.5232 0.1453
C123_3 C 0.9960(8) 0.5261(3) 0.1060(3)
C124_3 C 0.7810(8) 0.4759(4) 0.1199(4)
H96_6 H 0.762634 0.480051 0.171051
H89_6 H 0.693981 0.501561 0.147878
O19_4 O 0.2431(5) 0.5060(2) 0.6501(2)
O20_4 O 0.2565(5) 0.5471(2) 0.6120(2)
C119_4 C 0.0322(8) 0.5085(3) 0.5595(3)
H85_4 H 0.0118 0.5180 0.5390
C120_4 C 0.1112(8) 0.5212(3) 0.5760(3)
H86_4 H 0.1411 0.5391 0.5670
C121_4 C 0.1400(8) 0.5062(4) 0.6048(4)
C122_4 C 0.0878(8) 0.4844(3) 0.6234(3)
H87_4 H 0.1043 0.4768 0.6453
C123_4 C 0.0040(8) 0.4739(3) 0.6060(3)
C124_4 C 0.2190(8) 0.5241(4) 0.6199(4)
H96_7 H 0.237366 0.519949 0.671051
H89_7 H 0.306019 0.498439 0.647878
O7_4 O 0.7569(5) 0.4940(2) 0.3499(2)
O8_4 O 0.7435(5) 0.4529(2) 0.3880(2)
C57_4 C 0.9678(8) 0.4915(3) 0.4405(3)
H41_4 H 0.9882 0.4820 0.4610
C58_4 C 0.8888(8) 0.4788(3) 0.4240(3)
H42_4 H 0.8589 0.4609 0.4330
C59_4 C 0.8600(8) 0.4938(4) 0.3952(4)
C60_4 C 0.9122(8) 0.5156(3) 0.3766(3)
H43_4 H 0.8957 0.5232 0.3547
C61_4 C 0.9960(8) 0.5261(3) 0.3940(3)
C62_4 C 0.7810(8) 0.4759(4) 0.3801(4)
H89_8 H 0.693981 0.501561 0.352122
H96_8 H 0.762634 0.480051 0.328949
loop_
_geom_bond_atom_site_label_1
_geom_bond_atom_site_label_2
_geom_bond_site_symmetry_1
_geom_bond_site_symmetry_2
H43 C60 1_555 1_555
C60 C61 1_555 1_555
O7 C62 1_555 1_555
O8 C62 1_555 1_555
H41 C57 1_555 1_555
C58 C57 1_555 1_555
H42 C58 1_555 1_555
C59 C58 1_555 1_555
C62 C59 1_555 1_555
O7 H96 1_555 1_555
O1 C1 1_555 1_555
O2 C1 1_555 1_555
C1 C2 1_555 1_555
C2 C3 1_555 1_555
C3 H1 1_555 1_555
C4 C3 1_555 1_555
H2 C4 1_555 1_555
C5 C4 1_555 1_555
C6 C5 1_555 1_555
H3 C6 1_555 1_555
C7 C2 1_555 1_555
H4 C7 1_555 1_555
C8 C5 1_555 1_555
C9 C8 1_555 1_555
H5 C9 1_555 1_555
C10 C9 1_555 1_555
H6 C10 1_555 1_555
C11 C10 1_555 1_555
C12 C11 1_555 1_555
H7 C12 1_555 1_555
C13 C8 1_555 1_555
H8 C13 1_555 1_555
C14 C11 1_555 1_555
C20 C14 1_555 1_555
H15 C20 1_555 1_555
H16 C20 1_555 1_555
C23 C20 1_555 1_555
C50 C23 1_555 1_555
C51 C50 1_555 1_555
C52 C51 1_555 1_555
C53 C52 1_555 1_555
C54 C53 1_555 1_555
H39 C54 1_555 1_555
C55 C50 1_555 1_555
H40 C55 1_555 1_555
C56 C53 1_555 1_555
C6 C7 1_555 1_555
C12 C13 1_555 1_555
C54 C55 1_555 1_555
O5 C49 1_555 1_555
O6 C49 1_555 1_555
H10 C15 1_555 1_555
C16 C15 1_555 1_555
C17 C16 1_555 1_555
H11 C17 1_555 1_555
H12 C17 1_555 1_555
C18 C17 1_555 1_555
H14 C19 1_555 1_555
C21 C16 1_555 1_555
H17 C21 1_555 1_555
H18 C21 1_555 1_555
C22 C18 1_555 1_555
H19 C22 1_555 1_555
H20 C22 1_555 1_555
C24 C16 1_555 1_555
C25 C24 1_555 1_555
H21 C25 1_555 1_555
C26 C25 1_555 1_555
C29 C24 1_555 1_555
H24 C29 1_555 1_555
C37 C18 1_555 1_555
C38 C37 1_555 1_555
H29 C38 1_555 1_555
C39 C38 1_555 1_555
H30 C39 1_555 1_555
C40 C39 1_555 1_555
C41 C40 1_555 1_555
H31 C41 1_555 1_555
C42 C37 1_555 1_555
H32 C42 1_555 1_555
C43 C40 1_555 1_555
C44 C43 1_555 1_555
H33 C44 1_555 1_555
C45 C44 1_555 1_555
H34 C45 1_555 1_555
C46 C45 1_555 1_555
C47 C46 1_555 1_555
H35 C47 1_555 1_555
C48 C43 1_555 1_555
H36 C48 1_555 1_555
C49 C46 1_555 1_555
Fe5 O6 1_555 1_555
Fe9 O5 1_555 1_555
C18 C19 1_555 1_555
C41 C42 1_555 1_555
C47 C48 1_555 1_555
O3 C36 1_555 1_555
O4 C36 1_555 1_555
C28 C27 1_555 1_555
H23 C28 1_555 1_555
C30 C27 1_555 1_555
C31 C30 1_555 1_555
H25 C31 1_555 1_555
C32 C31 1_555 1_555
H26 C32 1_555 1_555
C33 C32 1_555 1_555
C34 C33 1_555 1_555
H27 C34 1_555 1_555
C35 C30 1_555 1_555
H28 C35 1_555 1_555
C36 C33 1_555 1_555
Fe7 O3 1_555 1_555
Fe8 O4 1_555 1_555
C34 C35 1_555 1_555
O21 C63 1_555 1_555
O22 C63 1_555 1_555
O17 C111 1_555 1_555
O18 C111 1_555 1_555
C63 C64 1_555 1_555
C64 C65 1_555 1_555
C65 H45 1_555 1_555
C66 C65 1_555 1_555
H46 C66 1_555 1_555
C67 C66 1_555 1_555
C68 C67 1_555 1_555
H47 C68 1_555 1_555
C69 C64 1_555 1_555
H48 C69 1_555 1_555
C70 C67 1_555 1_555
C71 C70 1_555 1_555
H49 C71 1_555 1_555
C72 C71 1_555 1_555
H50 C72 1_555 1_555
C73 C72 1_555 1_555
C74 C73 1_555 1_555
H51 C74 1_555 1_555
C75 C70 1_555 1_555
H52 C75 1_555 1_555
C76 C73 1_555 1_555
C77 C76 1_555 1_555
H53 C77 1_555 1_555
H54 C77 1_555 1_555
C78 C77 1_555 1_555
C79 C78 1_555 1_555
H55 C79 1_555 1_555
H56 C79 1_555 1_555
C80 C79 1_555 1_555
C81 C76 1_555 1_555
H57 C81 1_555 1_555
H58 C81 1_555 1_555
C82 C76 1_555 1_555
H59 C82 1_555 1_555
H60 C82 1_555 1_555
C83 C78 1_555 1_555
H61 C83 1_555 1_555
H62 C83 1_555 1_555
C84 C80 1_555 1_555
H63 C84 1_555 1_555
H64 C84 1_555 1_555
C85 C82 1_555 1_555
C86 C78 1_555 1_555
C87 C86 1_555 1_555
H65 C87 1_555 1_555
C88 C87 1_555 1_555
C91 C86 1_555 1_555
H68 C91 1_555 1_555
C99 C80 1_555 1_555
C100 C99 1_555 1_555
H73 C100 1_555 1_555
C101 C100 1_555 1_555
H74 C101 1_555 1_555
C102 C101 1_555 1_555
C103 C102 1_555 1_555
H75 C103 1_555 1_555
C104 C99 1_555 1_555
H76 C104 1_555 1_555
C105 C102 1_555 1_555
C106 C105 1_555 1_555
H77 C106 1_555 1_555
C107 C106 1_555 1_555
H78 C107 1_555 1_555
C108 C107 1_555 1_555
C109 C108 1_555 1_555
H79 C109 1_555 1_555
C110 C105 1_555 1_555
H80 C110 1_555 1_555
C111 C108 1_555 1_555
C112 C85 1_555 1_555
C113 C112 1_555 1_555
H81 C113 1_555 1_555
C114 C113 1_555 1_555
C115 C114 1_555 1_555
C116 C115 1_555 1_555
H83 C116 1_555 1_555
C117 C112 1_555 1_555
H84 C117 1_555 1_555
C118 C115 1_555 1_555
Fe5 O18 1_555 1_555
Fe9 O17 1_555 1_555
C68 C69 1_555 1_555
C74 C75 1_555 1_555
C80 C81 1_555 1_555
C83 C85 1_555 1_555
C84 C85 1_555 1_555
C103 C104 1_555 1_555
C109 C110 1_555 1_555
C116 C117 1_555 1_555
Fe8 O11 1_555 1_555
O10 Fe7 1_555 1_555
O12 Fe4 1_555 1_555
O15 Fe7 1_555 1_555
O16 Fe8 1_555 1_555
C90 C89 1_555 1_555
H67 C90 1_555 1_555
C92 C89 1_555 1_555
C93 C92 1_555 1_555
H69 C93 1_555 1_555
C94 C93 1_555 1_555
H70 C94 1_555 1_555
C95 C94 1_555 1_555
C96 C95 1_555 1_555
H71 C96 1_555 1_555
C97 C92 1_555 1_555
H72 C97 1_555 1_555
C98 O15 1_555 1_555
O25 Fe8 1_555 1_555
O26 Fe8 1_555 1_555
O27 Fe4 1_555 1_555
O28 Fe4 1_555 1_555
Fe7 O12 1_555 1_555
Fe8 O12 1_555 1_555
O16 C98 1_555 1_555
C95 C98 1_555 1_555
C96 C97 1_555 1_555
O10 H93 1_555 1_555
O13 C63_2 1_555 1_555
O14 C63_2 1_555 1_555
C63_2 C64_2 1_555 1_555
C64_2 C65_2 1_555 1_555
C65_2 H45_2 1_555 1_555
C66_2 C65_2 1_555 1_555
H46_2 C66_2 1_555 1_555
C67_2 C66_2 1_555 1_555
C68_2 C67_2 1_555 1_555
H47_2 C68_2 1_555 1_555
C69_2 C64_2 1_555 1_555
H48_2 C69_2 1_555 1_555
C70_2 C67_2 1_555 1_555
C71_2 C70_2 1_555 1_555
H49_2 C71_2 1_555 1_555
C72_2 C71_2 1_555 1_555
H50_2 C72_2 1_555 1_555
C73_2 C72_2 1_555 1_555
C74_2 C73_2 1_555 1_555
H51_2 C74_2 1_555 1_555
C75_2 C70_2 1_555 1_555
H52_2 C75_2 1_555 1_555
C76_2 C73_2 1_555 1_555
C82_2 C76_2 1_555 1_555
H59_2 C82_2 1_555 1_555
H60_2 C82_2 1_555 1_555
C85_2 C82_2 1_555 1_555
C112_2 C85_2 1_555 1_555
C113_2 C112_2 1_555 1_555
C114_2 C113_2 1_555 1_555
H82_2 C114_2 1_555 1_555
C115_2 C114_2 1_555 1_555
C116_2 C115_2 1_555 1_555
H83_2 C116_2 1_555 1_555
C117_2 C112_2 1_555 1_555
H84_2 C117_2 1_555 1_555
C118_2 C115_2 1_555 1_555
C68_2 C69_2 1_555 1_555
C74_2 C75_2 1_555 1_555
C116_2 C117_2 1_555 1_555
Fe9 O11_2 1_555 1_555
O10_2 Fe2 1_555 1_555
O12_2 Fe5 1_555 1_555
O15_2 Fe2 1_555 1_555
O16_2 Fe9 1_555 1_555
O26 C111_2 1_555 1_555
O28 C111_2 1_555 1_555
H54_2 C77_2 1_555 1_555
C78_2 C77_2 1_555 1_555
C79_2 C78_2 1_555 1_555
H55_2 C79_2 1_555 1_555
H56_2 C79_2 1_555 1_555
C80_2 C79_2 1_555 1_555
H58_2 C81_2 1_555 1_555
C83_2 C78_2 1_555 1_555
H61_2 C83_2 1_555 1_555
H62_2 C83_2 1_555 1_555
C84_2 C80_2 1_555 1_555
H63_2 C84_2 1_555 1_555
H64_2 C84_2 1_555 1_555
C86_2 C78_2 1_555 1_555
C87_2 C86_2 1_555 1_555
H65_2 C87_2 1_555 1_555
C88_2 C87_2 1_555 1_555
H66_2 C88_2 1_555 1_555
C89_2 C88_2 1_555 1_555
C90_2 C89_2 1_555 1_555
H67_2 C90_2 1_555 1_555
C91_2 C86_2 1_555 1_555
H68_2 C91_2 1_555 1_555
C92_2 C89_2 1_555 1_555
C93_2 C92_2 1_555 1_555
H69_2 C93_2 1_555 1_555
C94_2 C93_2 1_555 1_555
H70_2 C94_2 1_555 1_555
C95_2 C94_2 1_555 1_555
C96_2 C95_2 1_555 1_555
H71_2 C96_2 1_555 1_555
C97_2 C92_2 1_555 1_555
H72_2 C97_2 1_555 1_555
C98_2 O15_2 1_555 1_555
C99_2 C80_2 1_555 1_555
C100_2 C99_2 1_555 1_555
H73_2 C100_2 1_555 1_555
C101_2 C100_2 1_555 1_555
H74_2 C101_2 1_555 1_555
C102_2 C101_2 1_555 1_555
C103_2 C102_2 1_555 1_555
H75_2 C103_2 1_555 1_555
C104_2 C99_2 1_555 1_555
H76_2 C104_2 1_555 1_555
C105_2 C102_2 1_555 1_555
C106_2 C105_2 1_555 1_555
H77_2 C106_2 1_555 1_555
C107_2 C106_2 1_555 1_555
H78_2 C107_2 1_555 1_555
C108_2 C107_2 1_555 1_555
C109_2 C108_2 1_555 1_555
H79_2 C109_2 1_555 1_555
C110_2 C105_2 1_555 1_555
H80_2 C110_2 1_555 1_555
C111_2 C108_2 1_555 1_555
O23 Fe2 1_555 1_555
O24 Fe9 1_555 1_555
Fe2 O12_2 1_555 1_555
Fe9 O12_2 1_555 1_555
O16_2 C98_2 1_555 1_555
C80_2 C81_2 1_555 1_555
C90_2 C91_2 1_555 1_555
C95_2 C98_2 1_555 1_555
C96_2 C97_2 1_555 1_555
C103_2 C104_2 1_555 1_555
C109_2 C110_2 1_555 1_555
O10_2 H93_2 1_555 1_555
O1_2 C1_2 1_555 1_555
O2_2 C1_2 1_555 1_555
O23 C36_2 1_555 1_555
O24 C36_2 1_555 1_555
O25 C49_2 1_555 1_555
O27 C49_2 1_555 1_555
C1_2 C2_2 1_555 1_555
C2_2 C3_2 1_555 1_555
C3_2 H1_2 1_555 1_555
C4_2 C3_2 1_555 1_555
H2_2 C4_2 1_555 1_555
C5_2 C4_2 1_555 1_555
C6_2 C5_2 1_555 1_555
H3_2 C6_2 1_555 1_555
C7_2 C2_2 1_555 1_555
H4_2 C7_2 1_555 1_555
C8_2 C5_2 1_555 1_555
C9_2 C8_2 1_555 1_555
H5_2 C9_2 1_555 1_555
C10_2 C9_2 1_555 1_555
H6_2 C10_2 1_555 1_555
C11_2 C10_2 1_555 1_555
C12_2 C11_2 1_555 1_555
H7_2 C12_2 1_555 1_555
C13_2 C8_2 1_555 1_555
H8_2 C13_2 1_555 1_555
C14_2 C11_2 1_555 1_555
C15_2 C14_2 1_555 1_555
H9_2 C15_2 1_555 1_555
H10_2 C15_2 1_555 1_555
C16_2 C15_2 1_555 1_555
C17_2 C16_2 1_555 1_555
H11_2 C17_2 1_555 1_555
H12_2 C17_2 1_555 1_555
C18_2 C17_2 1_555 1_555
C19_2 C14_2 1_555 1_555
H13_2 C19_2 1_555 1_555
H14_2 C19_2 1_555 1_555
C20_2 C14_2 1_555 1_555
H15_2 C20_2 1_555 1_555
H16_2 C20_2 1_555 1_555
C21_2 C16_2 1_555 1_555
H17_2 C21_2 1_555 1_555
H18_2 C21_2 1_555 1_555
C22_2 C18_2 1_555 1_555
H19_2 C22_2 1_555 1_555
H20_2 C22_2 1_555 1_555
C23_2 C20_2 1_555 1_555
C24_2 C16_2 1_555 1_555
C25_2 C24_2 1_555 1_555
H21_2 C25_2 1_555 1_555
C26_2 C25_2 1_555 1_555
H22_2 C26_2 1_555 1_555
C27_2 C26_2 1_555 1_555
C28_2 C27_2 1_555 1_555
H23_2 C28_2 1_555 1_555
C29_2 C24_2 1_555 1_555
H24_2 C29_2 1_555 1_555
C30_2 C27_2 1_555 1_555
C31_2 C30_2 1_555 1_555
H25_2 C31_2 1_555 1_555
C32_2 C31_2 1_555 1_555
H26_2 C32_2 1_555 1_555
C33_2 C32_2 1_555 1_555
C34_2 C33_2 1_555 1_555
H27_2 C34_2 1_555 1_555
C35_2 C30_2 1_555 1_555
H28_2 C35_2 1_555 1_555
C36_2 C33_2 1_555 1_555
C37_2 C18_2 1_555 1_555
C38_2 C37_2 1_555 1_555
H29_2 C38_2 1_555 1_555
C39_2 C38_2 1_555 1_555
H30_2 C39_2 1_555 1_555
C40_2 C39_2 1_555 1_555
C41_2 C40_2 1_555 1_555
H31_2 C41_2 1_555 1_555
C42_2 C37_2 1_555 1_555
H32_2 C42_2 1_555 1_555
C43_2 C40_2 1_555 1_555
C44_2 C43_2 1_555 1_555
H33_2 C44_2 1_555 1_555
C45_2 C44_2 1_555 1_555
H34_2 C45_2 1_555 1_555
C46_2 C45_2 1_555 1_555
C47_2 C46_2 1_555 1_555
H35_2 C47_2 1_555 1_555
C48_2 C43_2 1_555 1_555
H36_2 C48_2 1_555 1_555
C49_2 C46_2 1_555 1_555
C50_2 C23_2 1_555 1_555
C51_2 C50_2 1_555 1_555
H37_2 C51_2 1_555 1_555
C52_2 C51_2 1_555 1_555
H38 C52_2 1_555 1_555
C53_2 C52_2 1_555 1_555
C54_2 C53_2 1_555 1_555
H39_2 C54_2 1_555 1_555
C55_2 C50_2 1_555 1_555
H40_2 C55_2 1_555 1_555
C56_2 C53_2 1_555 1_555
C6_2 C7_2 1_555 1_555
C12_2 C13_2 1_555 1_555
C18_2 C19_2 1_555 1_555
C21_2 C23_2 1_555 1_555
C22_2 C23_2 1_555 1_555
C28_2 C29_2 1_555 1_555
C34_2 C35_2 1_555 1_555
C41_2 C42_2 1_555 1_555
C47_2 C48_2 1_555 1_555
C54_2 C55_2 1_555 1_555
O10 H93_3 1_555 1_555
O10_2 H93_4 1_555 1_555
Fe3 O11_3 1_555 1_555
O10_3 Fe2_2 1_555 1_555
O12_3 Fe1 1_555 1_555
O15_3 Fe2_2 1_555 1_555
O16_3 Fe3 1_555 1_555
C90_3 C89_3 1_555 1_555
H67_3 C90_3 1_555 1_555
C92_3 C89_3 1_555 1_555
C93_3 C92_3 1_555 1_555
H69_3 C93_3 1_555 1_555
C94_3 C93_3 1_555 1_555
H70_3 C94_3 1_555 1_555
C95_3 C94_3 1_555 1_555
C96_3 C95_3 1_555 1_555
H71_3 C96_3 1_555 1_555
C97_3 C92_3 1_555 1_555
H72_3 C97_3 1_555 1_555
C98_3 O15_3 1_555 1_555
O23_2 Fe2_2 1_555 1_555
O24_2 Fe3 1_555 1_555
O25_2 Fe3 1_555 1_555
O26_2 Fe3 1_555 1_555
O27_2 Fe1 1_555 1_555
O28_2 Fe1 1_555 1_555
Fe2_2 O12_3 1_555 1_555
Fe3 O12_3 1_555 1_555
O16_3 C98_3 1_555 1_555
C95_3 C98_3 1_555 1_555
C96_3 C97_3 1_555 1_555
O10_3 H93_5 1_555 1_555
O17_2 C111_3 1_555 1_555
O18_2 C111_3 1_555 1_555
H54_3 C77_3 1_555 1_555
C78_3 C77_3 1_555 1_555
C79_3 C78_3 1_555 1_555
H55_3 C79_3 1_555 1_555
H56_3 C79_3 1_555 1_555
C80_3 C79_3 1_555 1_555
H58_3 C81_3 1_555 1_555
C83_3 C78_3 1_555 1_555
H61_3 C83_3 1_555 1_555
H62_3 C83_3 1_555 1_555
C84_3 C80_3 1_555 1_555
H63_3 C84_3 1_555 1_555
H64_3 C84_3 1_555 1_555
C86_3 C78_3 1_555 1_555
C87_3 C86_3 1_555 1_555
H65_3 C87_3 1_555 1_555
C88_3 C87_3 1_555 1_555
C91_3 C86_3 1_555 1_555
H68_3 C91_3 1_555 1_555
C99_3 C80_3 1_555 1_555
C100_3 C99_3 1_555 1_555
H73_3 C100_3 1_555 1_555
C101_3 C100_3 1_555 1_555
H74_3 C101_3 1_555 1_555
C102_3 C101_3 1_555 1_555
C103_3 C102_3 1_555 1_555
H75_3 C103_3 1_555 1_555
C104_3 C99_3 1_555 1_555
H76_3 C104_3 1_555 1_555
C105_3 C102_3 1_555 1_555
C106_3 C105_3 1_555 1_555
H77_3 C106_3 1_555 1_555
C107_3 C106_3 1_555 1_555
H78_3 C107_3 1_555 1_555
C108_3 C107_3 1_555 1_555
C109_3 C108_3 1_555 1_555
H79_3 C109_3 1_555 1_555
C110_3 C105_3 1_555 1_555
H80_3 C110_3 1_555 1_555
C111_3 C108_3 1_555 1_555
Fe6 O18_2 1_555 1_555
Fe10 O17_2 1_555 1_555
C80_3 C81_3 1_555 1_555
C103_3 C104_3 1_555 1_555
C109_3 C110_3 1_555 1_555
O13_2 C63_3 1_555 1_555
O14_2 C63_3 1_555 1_555
C63_3 C64_3 1_555 1_555
C64_3 C65_3 1_555 1_555
C65_3 H45_3 1_555 1_555
C66_3 C65_3 1_555 1_555
H46_3 C66_3 1_555 1_555
C67_3 C66_3 1_555 1_555
C68_3 C67_3 1_555 1_555
H47_3 C68_3 1_555 1_555
C69_3 C64_3 1_555 1_555
H48_3 C69_3 1_555 1_555
C70_3 C67_3 1_555 1_555
C71_3 C70_3 1_555 1_555
H49_3 C71_3 1_555 1_555
C72_3 C71_3 1_555 1_555
H50_3 C72_3 1_555 1_555
C73_3 C72_3 1_555 1_555
C74_3 C73_3 1_555 1_555
H51_3 C74_3 1_555 1_555
C75_3 C70_3 1_555 1_555
H52_3 C75_3 1_555 1_555
C76_3 C73_3 1_555 1_555
C82_3 C76_3 1_555 1_555
H59_3 C82_3 1_555 1_555
H60_3 C82_3 1_555 1_555
C85_3 C82_3 1_555 1_555
C112_3 C85_3 1_555 1_555
C113_3 C112_3 1_555 1_555
C114_3 C113_3 1_555 1_555
C115_3 C114_3 1_555 1_555
C116_3 C115_3 1_555 1_555
H83_3 C116_3 1_555 1_555
C117_3 C112_3 1_555 1_555
H84_3 C117_3 1_555 1_555
C118_3 C115_3 1_555 1_555
C68_3 C69_3 1_555 1_555
C74_3 C75_3 1_555 1_555
C116_3 C117_3 1_555 1_555
O23_2 C36_3 1_555 1_555
O24_2 C36_3 1_555 1_555
C28_3 C27_3 1_555 1_555
H23_3 C28_3 1_555 1_555
C30_3 C27_3 1_555 1_555
C31_3 C30_3 1_555 1_555
H25_3 C31_3 1_555 1_555
C32_3 C31_3 1_555 1_555
H26_3 C32_3 1_555 1_555
C33_3 C32_3 1_555 1_555
C34_3 C33_3 1_555 1_555
H27_3 C34_3 1_555 1_555
C35_3 C30_3 1_555 1_555
H28_3 C35_3 1_555 1_555
C36_3 C33_3 1_555 1_555
C34_3 C35_3 1_555 1_555
O1_3 C1_3 1_555 1_555
O2_3 C1_3 1_555 1_555
O5_2 C49_3 1_555 1_555
O6_2 C49_3 1_555 1_555
C1_3 C2_3 1_555 1_555
C2_3 C3_3 1_555 1_555
C3_3 H1_3 1_555 1_555
C4_3 C3_3 1_555 1_555
H2_3 C4_3 1_555 1_555
C5_3 C4_3 1_555 1_555
C6_3 C5_3 1_555 1_555
H3_3 C6_3 1_555 1_555
C7_3 C2_3 1_555 1_555
H4_3 C7_3 1_555 1_555
C8_3 C5_3 1_555 1_555
C9_3 C8_3 1_555 1_555
H5_3 C9_3 1_555 1_555
C10_3 C9_3 1_555 1_555
H6_3 C10_3 1_555 1_555
C11_3 C10_3 1_555 1_555
C12_3 C11_3 1_555 1_555
H7_3 C12_3 1_555 1_555
C13_3 C8_3 1_555 1_555
H8_3 C13_3 1_555 1_555
C14_3 C11_3 1_555 1_555
C15_3 C14_3 1_555 1_555
H9_3 C15_3 1_555 1_555
H10_3 C15_3 1_555 1_555
C16_3 C15_3 1_555 1_555
C17_3 C16_3 1_555 1_555
H11_3 C17_3 1_555 1_555
H12_3 C17_3 1_555 1_555
C18_3 C17_3 1_555 1_555
C19_3 C14_3 1_555 1_555
H13_3 C19_3 1_555 1_555
H14_3 C19_3 1_555 1_555
C20_3 C14_3 1_555 1_555
H15_3 C20_3 1_555 1_555
H16_3 C20_3 1_555 1_555
C21_3 C16_3 1_555 1_555
H17_3 C21_3 1_555 1_555
H18_3 C21_3 1_555 1_555
C22_3 C18_3 1_555 1_555
H19_3 C22_3 1_555 1_555
H20_3 C22_3 1_555 1_555
C23_3 C20_3 1_555 1_555
C24_3 C16_3 1_555 1_555
C25_3 C24_3 1_555 1_555
H21_3 C25_3 1_555 1_555
C26_3 C25_3 1_555 1_555
C29_3 C24_3 1_555 1_555
H24_3 C29_3 1_555 1_555
C37_3 C18_3 1_555 1_555
C38_3 C37_3 1_555 1_555
H29_3 C38_3 1_555 1_555
C39_3 C38_3 1_555 1_555
H30_3 C39_3 1_555 1_555
C40_3 C39_3 1_555 1_555
C41_3 C40_3 1_555 1_555
H31_3 C41_3 1_555 1_555
C42_3 C37_3 1_555 1_555
H32_3 C42_3 1_555 1_555
C43_3 C40_3 1_555 1_555
C44_3 C43_3 1_555 1_555
H33_3 C44_3 1_555 1_555
C45_3 C44_3 1_555 1_555
H34_3 C45_3 1_555 1_555
C46_3 C45_3 1_555 1_555
C47_3 C46_3 1_555 1_555
H35_3 C47_3 1_555 1_555
C48_3 C43_3 1_555 1_555
H36_3 C48_3 1_555 1_555
C49_3 C46_3 1_555 1_555
C50_3 C23_3 1_555 1_555
C51_3 C50_3 1_555 1_555
H37_3 C51_3 1_555 1_555
C52_3 C51_3 1_555 1_555
C53_3 C52_3 1_555 1_555
C54_3 C53_3 1_555 1_555
H39_3 C54_3 1_555 1_555
C55_3 C50_3 1_555 1_555
H40_3 C55_3 1_555 1_555
C56_3 C53_3 1_555 1_555
Fe6 O6_2 1_555 1_555
Fe10 O5_2 1_555 1_555
C6_3 C7_3 1_555 1_555
C12_3 C13_3 1_555 1_555
C18_3 C19_3 1_555 1_555
C21_3 C23_3 1_555 1_555
C22_3 C23_3 1_555 1_555
C41_3 C42_3 1_555 1_555
C47_3 C48_3 1_555 1_555
C54_3 C55_3 1_555 1_555
O3_2 C36_4 1_555 1_555
O4_2 C36_4 1_555 1_555
O25_2 C49_4 1_555 1_555
O27_2 C49_4 1_555 1_555
H10_4 C15_4 1_555 1_555
C16_4 C15_4 1_555 1_555
C17_4 C16_4 1_555 1_555
H11_4 C17_4 1_555 1_555
H12_4 C17_4 1_555 1_555
C18_4 C17_4 1_555 1_555
H14_4 C19_4 1_555 1_555
C21_4 C16_4 1_555 1_555
H17_4 C21_4 1_555 1_555
H18_4 C21_4 1_555 1_555
C22_4 C18_4 1_555 1_555
H19_4 C22_4 1_555 1_555
H20_4 C22_4 1_555 1_555
C24_4 C16_4 1_555 1_555
C25_4 C24_4 1_555 1_555
H21_4 C25_4 1_555 1_555
C26_4 C25_4 1_555 1_555
H22_4 C26_4 1_555 1_555
C27_4 C26_4 1_555 1_555
C28_4 C27_4 1_555 1_555
H23_4 C28_4 1_555 1_555
C29_4 C24_4 1_555 1_555
H24_4 C29_4 1_555 1_555
C30_4 C27_4 1_555 1_555
C31_4 C30_4 1_555 1_555
H25_4 C31_4 1_555 1_555
C32_4 C31_4 1_555 1_555
H26_4 C32_4 1_555 1_555
C33_4 C32_4 1_555 1_555
C34_4 C33_4 1_555 1_555
H27_4 C34_4 1_555 1_555
C35_4 C30_4 1_555 1_555
H28_4 C35_4 1_555 1_555
C36_4 C33_4 1_555 1_555
C37_4 C18_4 1_555 1_555
C38_4 C37_4 1_555 1_555
H29_4 C38_4 1_555 1_555
C39_4 C38_4 1_555 1_555
H30_4 C39_4 1_555 1_555
C40_4 C39_4 1_555 1_555
C41_4 C40_4 1_555 1_555
H31_4 C41_4 1_555 1_555
C42_4 C37_4 1_555 1_555
H32_4 C42_4 1_555 1_555
C43_4 C40_4 1_555 1_555
C44_4 C43_4 1_555 1_555
H33_4 C44_4 1_555 1_555
C45_4 C44_4 1_555 1_555
H34_4 C45_4 1_555 1_555
C46_4 C45_4 1_555 1_555
C47_4 C46_4 1_555 1_555
H35_4 C47_4 1_555 1_555
C48_4 C43_4 1_555 1_555
H36_4 C48_4 1_555 1_555
C49_4 C46_4 1_555 1_555
Fe7_2 O3_2 1_555 1_555
Fe10 O4_2 1_555 1_555
C18_4 C19_4 1_555 1_555
C28_4 C29_4 1_555 1_555
C34_4 C35_4 1_555 1_555
C41_4 C42_4 1_555 1_555
C47_4 C48_4 1_555 1_555
O1_4 C1_4 1_555 1_555
O2_4 C1_4 1_555 1_555
C1_4 C2_4 1_555 1_555
C2_4 C3_4 1_555 1_555
C3_4 H1_4 1_555 1_555
C4_4 C3_4 1_555 1_555
H2_4 C4_4 1_555 1_555
C5_4 C4_4 1_555 1_555
C6_4 C5_4 1_555 1_555
H3_4 C6_4 1_555 1_555
C7_4 C2_4 1_555 1_555
H4_4 C7_4 1_555 1_555
C8_4 C5_4 1_555 1_555
C9_4 C8_4 1_555 1_555
H5_4 C9_4 1_555 1_555
C10_4 C9_4 1_555 1_555
H6_4 C10_4 1_555 1_555
C11_4 C10_4 1_555 1_555
C12_4 C11_4 1_555 1_555
H7_4 C12_4 1_555 1_555
C13_4 C8_4 1_555 1_555
H8_4 C13_4 1_555 1_555
C14_4 C11_4 1_555 1_555
C20_4 C14_4 1_555 1_555
H15_4 C20_4 1_555 1_555
H16_4 C20_4 1_555 1_555
C23_4 C20_4 1_555 1_555
C50_4 C23_4 1_555 1_555
C51_4 C50_4 1_555 1_555
C52_4 C51_4 1_555 1_555
H38_4 C52_4 1_555 1_555
C53_4 C52_4 1_555 1_555
C54_4 C53_4 1_555 1_555
H39_4 C54_4 1_555 1_555
C55_4 C50_4 1_555 1_555
H40_4 C55_4 1_555 1_555
C56_4 C53_4 1_555 1_555
C6_4 C7_4 1_555 1_555
C12_4 C13_4 1_555 1_555
C54_4 C55_4 1_555 1_555
Fe10 O11_4 1_555 1_555
O10_4 Fe7_2 1_555 1_555
O12_4 Fe6 1_555 1_555
O21_2 C63_4 1_555 1_555
O22_2 C63_4 1_555 1_555
O15_4 Fe7_2 1_555 1_555
O16_4 Fe10 1_555 1_555
O26_2 C111_4 1_555 1_555
O28_2 C111_4 1_555 1_555
C63_4 C64_4 1_555 1_555
C64_4 C65_4 1_555 1_555
C65_4 H45_4 1_555 1_555
C66_4 C65_4 1_555 1_555
H46_4 C66_4 1_555 1_555
C67_4 C66_4 1_555 1_555
C68_4 C67_4 1_555 1_555
H47_4 C68_4 1_555 1_555
C69_4 C64_4 1_555 1_555
H48_4 C69_4 1_555 1_555
C70_4 C67_4 1_555 1_555
C71_4 C70_4 1_555 1_555
H49_4 C71_4 1_555 1_555
C72_4 C71_4 1_555 1_555
H50_4 C72_4 1_555 1_555
C73_4 C72_4 1_555 1_555
C74_4 C73_4 1_555 1_555
H51_4 C74_4 1_555 1_555
C75_4 C70_4 1_555 1_555
H52_4 C75_4 1_555 1_555
C76_4 C73_4 1_555 1_555
C77_4 C76_4 1_555 1_555
H53_4 C77_4 1_555 1_555
H54_4 C77_4 1_555 1_555
C78_4 C77_4 1_555 1_555
C79_4 C78_4 1_555 1_555
H55_4 C79_4 1_555 1_555
H56_4 C79_4 1_555 1_555
C80_4 C79_4 1_555 1_555
C81_4 C76_4 1_555 1_555
H57_4 C81_4 1_555 1_555
H58_4 C81_4 1_555 1_555
C82_4 C76_4 1_555 1_555
H59_4 C82_4 1_555 1_555
H60_4 C82_4 1_555 1_555
C83_4 C78_4 1_555 1_555
H61_4 C83_4 1_555 1_555
H62_4 C83_4 1_555 1_555
C84_4 C80_4 1_555 1_555
H63_4 C84_4 1_555 1_555
H64_4 C84_4 1_555 1_555
C85_4 C82_4 1_555 1_555
C86_4 C78_4 1_555 1_555
C87_4 C86_4 1_555 1_555
H65_4 C87_4 1_555 1_555
C88_4 C87_4 1_555 1_555
H66_4 C88_4 1_555 1_555
C89_4 C88_4 1_555 1_555
C90_4 C89_4 1_555 1_555
H67_4 C90_4 1_555 1_555
C91_4 C86_4 1_555 1_555
H68_4 C91_4 1_555 1_555
C92_4 C89_4 1_555 1_555
C93_4 C92_4 1_555 1_555
H69_4 C93_4 1_555 1_555
C94_4 C93_4 1_555 1_555
H70_4 C94_4 1_555 1_555
C95_4 C94_4 1_555 1_555
C96_4 C95_4 1_555 1_555
H71_4 C96_4 1_555 1_555
C97_4 C92_4 1_555 1_555
H72_4 C97_4 1_555 1_555
C98_4 O15_4 1_555 1_555
C99_4 C80_4 1_555 1_555
C100_4 C99_4 1_555 1_555
H73_4 C100_4 1_555 1_555
C101_4 C100_4 1_555 1_555
H74_4 C101_4 1_555 1_555
C102_4 C101_4 1_555 1_555
C103_4 C102_4 1_555 1_555
H75_4 C103_4 1_555 1_555
C104_4 C99_4 1_555 1_555
H76_4 C104_4 1_555 1_555
C105_4 C102_4 1_555 1_555
C106_4 C105_4 1_555 1_555
H77_4 C106_4 1_555 1_555
C107_4 C106_4 1_555 1_555
H78_4 C107_4 1_555 1_555
C108_4 C107_4 1_555 1_555
C109_4 C108_4 1_555 1_555
H79_4 C109_4 1_555 1_555
C110_4 C105_4 1_555 1_555
H80_4 C110_4 1_555 1_555
C111_4 C108_4 1_555 1_555
C112_4 C85_4 1_555 1_555
C113_4 C112_4 1_555 1_555
H81_4 C113_4 1_555 1_555
C114_4 C113_4 1_555 1_555
H82_3 C114_4 1_555 1_555
C115_4 C114_4 1_555 1_555
C116_4 C115_4 1_555 1_555
H83_4 C116_4 1_555 1_555
C117_4 C112_4 1_555 1_555
H84_4 C117_4 1_555 1_555
C118_4 C115_4 1_555 1_555
Fe7_2 O12_4 1_555 1_555
Fe10 O12_4 1_555 1_555
O16_4 C98_4 1_555 1_555
C68_4 C69_4 1_555 1_555
C74_4 C75_4 1_555 1_555
C80_4 C81_4 1_555 1_555
C83_4 C85_4 1_555 1_555
C84_4 C85_4 1_555 1_555
C90_4 C91_4 1_555 1_555
C95_4 C98_4 1_555 1_555
C96_4 C97_4 1_555 1_555
C103_4 C104_4 1_555 1_555
C109_4 C110_4 1_555 1_555
C116_4 C117_4 1_555 1_555
O10_4 H93_6 1_555 1_555
O10_3 H93_7 1_555 1_555
O10_4 H93_8 1_555 1_555
O19 C124 1_555 1_555
O20 C124 1_555 1_555
H85 C119 1_555 1_555
C120 C119 1_555 1_555
H86 C120 1_555 1_555
C121 C120 1_555 1_555
C124 C121 1_555 1_555
O19 H96_2 1_555 1_555
H87 C122 1_555 1_555
C122 C123 1_555 1_555
H87_2 C122_2 1_555 1_555
C122_2 C123_2 1_555 1_555
O19_2 C124_2 1_555 1_555
O20_2 C124_2 1_555 1_555
H85_2 C119_2 1_555 1_555
C120_2 C119_2 1_555 1_555
H86_2 C120_2 1_555 1_555
C121_2 C120_2 1_555 1_555
C124_2 C121_2 1_555 1_555
O19_2 H96_3 1_555 1_555
O7_2 C62_2 1_555 1_555
O8_2 C62_2 1_555 1_555
H41_2 C57_2 1_555 1_555
C58_2 C57_2 1_555 1_555
H42_2 C58_2 1_555 1_555
C59_2 C58_2 1_555 1_555
C62_2 C59_2 1_555 1_555
O7_2 H96_4 1_555 1_555
H43_2 C60_2 1_555 1_555
C60_2 C61_2 1_555 1_555
O7_3 C62_3 1_555 1_555
O8_3 C62_3 1_555 1_555
H41_3 C57_3 1_555 1_555
C58_3 C57_3 1_555 1_555
H42_3 C58_3 1_555 1_555
C59_3 C58_3 1_555 1_555
C60_3 C59_3 1_555 1_555
H43_3 C60_3 1_555 1_555
C62_3 C59_3 1_555 1_555
C60_3 C61_3 1_555 1_555
O7_3 H89_5 1_555 1_555
O7_3 H96_5 1_555 1_555
O19_3 C124_3 1_555 1_555
O20_3 C124_3 1_555 1_555
H85_3 C119_3 1_555 1_555
C120_3 C119_3 1_555 1_555
H86_3 C120_3 1_555 1_555
C121_3 C120_3 1_555 1_555
C122_3 C121_3 1_555 1_555
H87_3 C122_3 1_555 1_555
C124_3 C121_3 1_555 1_555
C122_3 C123_3 1_555 1_555
O19_3 H96_6 1_555 1_555
O19_3 H89_6 1_555 1_555
O19_4 C124_4 1_555 1_555
O20_4 C124_4 1_555 1_555
H85_4 C119_4 1_555 1_555
C120_4 C119_4 1_555 1_555
H86_4 C120_4 1_555 1_555
C121_4 C120_4 1_555 1_555
C122_4 C121_4 1_555 1_555
H87_4 C122_4 1_555 1_555
C124_4 C121_4 1_555 1_555
C122_4 C123_4 1_555 1_555
O19_4 H96_7 1_555 1_555
O19_4 H89_7 1_555 1_555
O7_4 C62_4 1_555 1_555
O8_4 C62_4 1_555 1_555
H41_4 C57_4 1_555 1_555
C58_4 C57_4 1_555 1_555
H42_4 C58_4 1_555 1_555
C59_4 C58_4 1_555 1_555
C60_4 C59_4 1_555 1_555
H43_4 C60_4 1_555 1_555
C62_4 C59_4 1_555 1_555
C60_4 C61_4 1_555 1_555
O7_4 H89_8 1_555 1_555
O7_4 H96_8 1_555 1_555

#END
