
###############################################################################
#
# This file contains modified crystal structure data generated from the
# MOF subset of the Cambridge Structural Database (CSD) v543 
# hosted by the Cambridge Crystallographic Data Centre (CCDC).
#
# This work is licensed under the Creative Commons
# Attribution-NonCommercial-ShareAlike 4.0 International License.
# To view a copy of this license, visit
# http://creativecommons.org/licenses/by-nc-sa/4.0/
# or send a letter to
# Creative Commons, PO Box 1866, Mountain View, CA 94042, USA.
#
# CIF created using the CSD Python API on 29 September 2022
# The structure has been converted into the P1 space group
# The structure has a 3D framework
# The original CSD entry TOVKOG is in the rhombohedral crystal system
# The original CSD entry TOVKOG is in a Sohncke space group
# The framework has been calculated to contain at least 10.0% void space
# The void calculation uses a probe of radius 1.32A, grid spacing 0.4
# H atom positions have been added when not included in the experimental data
# Generated hydrogen atom positions removed from atoms on special positions
#
###############################################################################

data_TOVKOG
_chemical_formula_moiety         '(C450 H342 Fe27 N18 O144)n'
_symmetry_cell_setting           triclinic
_symmetry_space_group_name_H-M   'P 1'
_symmetry_Int_Tables_number      1
_space_group_name_Hall           'P 1'
loop_
_symmetry_equiv_pos_site_id
_symmetry_equiv_pos_as_xyz
1 x,y,z
_cell_length_a                   34.663(15)
_cell_length_b                   34.663(15)
_cell_length_c                   44.712(19)
_cell_angle_alpha                90
_cell_angle_beta                 90
_cell_angle_gamma                120
_cell_volume                     46525.1
loop_
_atom_site_label
_atom_site_type_symbol
_atom_site_fract_x
_atom_site_fract_y
_atom_site_fract_z
Fe1 Fe 0.22379(3) 0.35259(3) 0.02994(7)
Fe3 Fe 0.12898(3) 0.35265(3) 0.02976(7)
O1 O 0.17155(12) 0.34311(11) 0.00769(9)
O2 O 0.0737(2) 0.2975(2) 0.01527(15)
O3 O 0.27954(16) 0.36078(19) 0.05191(12)
O5 O 0.08242(15) 0.36101(17) 0.05109(11)
O15 O 0.17413(18) 0.40951(16) 0.05011(16)
O16 O 0.23553(16) 0.41058(16) 0.05036(16)
H1 H 0.0063 0.2503 0.0276
C42 C 0.2134(3) 0.42921(11) 0.0535(2)
C43 C 0.23922(15) 0.47925(11) 0.05630(10)
C44 C 0.21898(13) 0.50413(15) 0.04962(6)
H24 H 0.1898 0.4899 0.0414
C45 C 0.24138(15) 0.54975(14) 0.05493(10)
H25 H 0.2275 0.5667 0.0503
C46 C 0.28409(15) 0.57054(11) 0.06694(14)
C47 C 0.30435(13) 0.54565(15) 0.07363(15)
H26 H 0.3335 0.5598 0.0818
C48 C 0.28191(16) 0.50003(14) 0.06831(13)
H27 H 0.2958 0.4830 0.0729
C49 C 0.31065(18) 0.620366(19) 0.0645(2)
C50 C 0.287032(19) 0.64304(18) 0.0654(2)
H28 H 0.2554 0.6269 0.0666
O17 O 0.59049(16) 0.76462(24) 0.05011(16)
O18 O 0.58942(16) 0.82495(23) 0.05036(16)
C51 C 0.57079(11) 0.78419(32) 0.0535(2)
C52 C 0.52075(11) 0.75997(19) 0.05630(10)
C53 C 0.49587(15) 0.71485(20) 0.04962(6)
H29 H 0.5101 0.6999 0.0414
C54 C 0.45025(14) 0.69163(21) 0.05493(10)
H30 H 0.4333 0.6608 0.0503
C55 C 0.42946(11) 0.71355(19) 0.06694(14)
C56 C 0.45435(15) 0.75870(20) 0.07363(15)
H31 H 0.4402 0.7737 0.0818
C57 C 0.49997(14) 0.78188(21) 0.06831(13)
H32 H 0.5170 0.8128 0.0729
C58 C 0.379634(19) 0.69028(18) 0.0645(2)
C59 C 0.35696(18) 0.64399(18) 0.0654(2)
H33 H 0.3731 0.6285 0.0666
O19 O 0.23538(24) 0.82587(18) 0.05011(16)
O20 O 0.17505(23) 0.76447(16) 0.05036(16)
C60 C 0.21581(32) 0.7866(3) 0.0535(2)
C61 C 0.24003(19) 0.76078(15) 0.05630(10)
C62 C 0.28515(20) 0.78102(13) 0.04962(6)
H34 H 0.3001 0.8102 0.0414
C63 C 0.30837(21) 0.75862(15) 0.05493(10)
H35 H 0.3392 0.7725 0.0503
C64 C 0.28645(19) 0.71591(15) 0.06694(14)
C65 C 0.24130(20) 0.69565(13) 0.07363(15)
H36 H 0.2263 0.6665 0.0818
C66 C 0.21812(21) 0.71809(16) 0.06831(13)
H37 H 0.1872 0.7042 0.0729
C67 C 0.30972(18) 0.68935(18) 0.0645(2)
C68 C 0.35601(18) 0.712968(19) 0.0654(2)
H38 H 0.3715 0.7446 0.0666
O41 O 0.2212(3) 0.2955(2) 0.01522(15)
C112 C 0.22745(26) 0.0014(2) 0.01437(14)
C113 C 0.23461(26) 0.04429(18) 0.01411(14)
H63 H 0.2563 0.0662 0.0270
C122 C 0.21824(23) 0.17686(16) 0.01757(12)
H68 H 0.2319 0.1695 0.0333
C123 C 0.22220(26) 0.21860(16) 0.01636(14)
H69 H 0.2386 0.2402 0.0313
Fe10 Fe 0.64741(3) 0.87120(4) 0.02994(7)
Fe11 Fe 0.12880(4) 0.77621(3) 0.02994(7)
Fe19 Fe 0.64735(3) 0.77633(4) 0.02976(7)
Fe21 Fe 0.22367(4) 0.87102(3) 0.02976(7)
O50 O 0.1865(3) 0.3219(4) 0.07054(17)
O53 O 0.12821(17) 0.32118(24) 0.06882(12)
H99 H 0.0559947 0.33145 0.0553152
H100 H 0.0948644 0.377094 0.0701941
Fe2 Fe 0.16085(3) 0.32179(3) 0.96913(7)
O4 O 0.0975(2) 0.2727(2) 0.97881(15)
O8 O 0.14834(18) 0.29860(15) 0.92732(12)
O9 O 0.26231(17) 0.3840(2) 0.99667(14)
O10 O 0.2224(2) 0.36712(15) 0.95364(12)
O11 O 0.4688(3) 0.4802(3) 0.73721(17)
O12 O 0.52631(17) 0.53846(17) 0.73549(12)
O13 O 0.63355(15) 0.77627(19) 0.95299(11)
O14 O 0.6146(2) 0.73619(16) 0.99687(14)
C1 C 0.0711(3) 0.2683(3) 0.9960(3)
C2 C 0.03032(15) 0.22660(17) 0.99549(15)
C7 C 0.01920(18) 0.1913(2) 0.97644(16)
H4 H 0.0411 0.1915 0.9636
C15 C 0.2589(3) 0.3915(3) 0.97117(19)
C16 C 0.29314(14) 0.42481(15) 0.95190(12)
C17 C 0.33385(17) 0.45072(19) 0.96611(10)
H9 H 0.3369 0.4464 0.9868
C18 C 0.37003(13) 0.48288(16) 0.95004(12)
H10 H 0.3979 0.5005 0.9597
C19 C 0.36545(14) 0.48931(16) 0.91986(12)
C20 C 0.32477(17) 0.4634(2) 0.90565(10)
H11 H 0.3216 0.4677 0.8850
C21 C 0.28868(14) 0.43096(19) 0.92166(13)
H12 H 0.2609 0.4130 0.9119
C22 C 0.40595(15) 0.52428(14) 0.90578(11)
C23 C 0.43628(15) 0.56318(14) 0.92038(10)
H13 H 0.4315 0.5678 0.9407
C24 C 0.47361(13) 0.59540(12) 0.90528(9)
C25 C 0.48050(15) 0.58882(14) 0.87553(10)
H14 H 0.5058 0.6111 0.8651
C26 C 0.45041(14) 0.54970(13) 0.86102(10)
C27 C 0.41281(16) 0.51774(15) 0.87603(11)
H15 H 0.3918 0.4914 0.8659
C28 C 0.4580(2) 0.54239(19) 0.82896(14)
C29 C 0.4287(2) 0.5028(2) 0.81466(15)
H16 H 0.4007 0.4831 0.8235
C30 C 0.4402(2) 0.4921(2) 0.78738(15)
H17 H 0.4213 0.4638 0.7785
C31 C 0.4793(2) 0.5228(2) 0.77310(14)
C32 C 0.50988(19) 0.5611(2) 0.78821(15)
H18 H 0.5385 0.5800 0.7798
C33 C 0.4985(2) 0.5717(2) 0.81559(15)
H19 H 0.5184 0.5990 0.8252
C34 C 0.4998(3) 0.5155(4) 0.7470(2)
C35 C 0.50606(15) 0.63681(16) 0.92093(11)
C36 C 0.5166(2) 0.63031(15) 0.94980(13)
H20 H 0.5006 0.6017 0.9588
C37 C 0.5505(2) 0.66567(19) 0.96546(11)
H21 H 0.5545 0.6628 0.9862
C38 C 0.5786(2) 0.70528(17) 0.95059(13)
C39 C 0.5719(2) 0.70942(16) 0.92037(13)
H22 H 0.5918 0.7359 0.9099
C40 C 0.5362(2) 0.67486(19) 0.90545(11)
H23 H 0.5323 0.6772 0.8846
C41 C 0.6097(3) 0.7406(2) 0.97028(16)
O40 O 0.1746(3) 0.2728(2) 0.97788(15)
N5 N 0.22283(23) 0.10065(15) 0.99785(17)
N6 N 0.19040(21) 0.10463(14) 0.99702(16)
C114 C 0.21034(21) 0.05539(14) 0.99509(15)
C115 C 0.17935(26) 0.0237(2) 0.97607(15)
H64 H 0.1631 0.0315 0.9627
C117 C 0.2009(4) 0.2692(3) 0.9960(3)
C118 C 0.20212(23) 0.22869(15) 0.99339(15)
C119 C 0.17821(26) 0.1976(2) 0.97165(14)
H66 H 0.1644 0.2047 0.9559
C120 C 0.17425(23) 0.15583(17) 0.97292(13)
H67 H 0.1578 0.1341 0.9581
C121 C 0.19441(18) 0.14635(12) 0.99581(11)
Fe14 Fe 0.46213(4) 0.44288(3) 0.69661(7)
Fe16 Fe 0.67821(3) 0.83906(4) 0.96913(7)
Fe24 Fe 0.55700(4) 0.53769(3) 0.69643(7)
O57 O 0.14272(24) 0.36645(15) 0.95299(11)
O60 O 0.12159(26) 0.3854(2) 0.99687(14)
O27 O 0.0743(2) 0.7788(3) 0.01522(15)
H46 H 0.0016 0.7614 0.0313
O35 O 0.17156(16) 0.82845(12) 0.00769(9)
O36 O 0.2238(3) 0.9263(2) 0.01527(15)
O37 O 0.08124(25) 0.72046(16) 0.05191(12)
O39 O 0.27859(23) 0.91758(15) 0.05109(11)
H62 H 0.2440 0.9937 0.0276
O49 O 0.1355(3) 0.8135(3) 0.07054(17)
O52 O 0.19298(17) 0.87179(17) 0.06882(12)
H85 H 0.275455 0.944005 0.0553152
H86 H 0.28223 0.905136 0.0701941
O26 O 0.0982(2) 0.8254(3) 0.97788(15)
C76 C 0.0683(3) 0.7991(4) 0.9960(3)
C77 C 0.02657(17) 0.79788(23) 0.99339(15)
C78 C 0.01939(16) 0.82179(26) 0.97165(14)
H43 H 0.0403 0.8356 0.9559
Fe8 Fe 0.16094(4) 0.83915(3) 0.96913(7)
O38 O 0.1752(3) 0.9025(2) 0.97881(15)
O42 O 0.15026(23) 0.85166(18) 0.92732(12)
O43 O 0.12169(26) 0.73769(17) 0.99667(14)
O44 O 0.14472(25) 0.7776(2) 0.95364(12)
O45 O 0.0114(4) 0.5312(3) 0.73721(17)
O46 O 0.01215(24) 0.47369(17) 0.73549(12)
C110 C 0.1972(4) 0.9289(3) 0.9960(3)
C111 C 0.19628(23) 0.96968(15) 0.99549(15)
C116 C 0.17210(27) 0.98080(18) 0.97644(16)
H65 H 0.1504 0.9589 0.9636
C124 C 0.1326(4) 0.7411(3) 0.97117(19)
C125 C 0.13167(21) 0.70686(14) 0.95190(12)
C126 C 0.11687(25) 0.66615(17) 0.96611(10)
H70 H 0.1095 0.6631 0.9868
C127 C 0.11285(21) 0.62997(13) 0.95004(12)
H71 H 0.1026 0.6021 0.9597
C128 C 0.12386(21) 0.63455(14) 0.91986(12)
C129 C 0.13863(26) 0.67523(17) 0.90565(10)
H72 H 0.1461 0.6784 0.8850
C130 C 0.14228(24) 0.71132(14) 0.92166(13)
H73 H 0.1521 0.7391 0.9119
C131 C 0.11833(21) 0.59405(15) 0.90578(11)
C132 C 0.12690(21) 0.56372(15) 0.92038(10)
H74 H 0.1363 0.5685 0.9407
C133 C 0.12179(18) 0.52639(13) 0.90528(9)
C134 C 0.10832(21) 0.51950(15) 0.87553(10)
H75 H 0.1053 0.4942 0.8651
C135 C 0.09929(19) 0.54959(14) 0.86102(10)
C136 C 0.10493(22) 0.58719(16) 0.87603(11)
H76 H 0.0996 0.6082 0.8659
C137 C 0.08439(28) 0.5420(2) 0.82896(14)
C138 C 0.0741(3) 0.5713(2) 0.81466(15)
H77 H 0.0824 0.5993 0.8235
C139 C 0.0519(3) 0.5598(2) 0.78738(15)
H78 H 0.0425 0.5787 0.7785
C140 C 0.0435(3) 0.5207(2) 0.77310(14)
C141 C 0.05122(28) 0.49012(19) 0.78821(15)
H79 H 0.0415 0.4615 0.7798
C142 C 0.0732(3) 0.5015(2) 0.81559(15)
H80 H 0.0806 0.4816 0.8252
C143 C 0.0157(5) 0.5002(3) 0.7470(2)
C144 C 0.13075(22) 0.49394(15) 0.92093(11)
C145 C 0.11371(25) 0.4834(2) 0.94980(13)
H81 H 0.1011 0.4994 0.9588
C146 C 0.11517(28) 0.4495(2) 0.96546(11)
H82 H 0.1083 0.4455 0.9862
C147 C 0.12668(26) 0.4214(2) 0.95059(13)
C148 C 0.13752(26) 0.4281(2) 0.92037(13)
H83 H 0.1441 0.4082 0.9099
C149 C 0.13866(28) 0.4638(2) 0.90545(11)
H84 H 0.1449 0.4677 0.8846
C150 C 0.1309(4) 0.3903(3) 0.97028(16)
O56 O 0.22373(19) 0.85728(24) 0.95299(11)
O59 O 0.26381(16) 0.87841(26) 0.99687(14)
N1 N 0.89935(15) 0.12218(18) 0.99785(17)
N2 N 0.89537(14) 0.08577(16) 0.99702(16)
C5 C 0.94461(14) 0.15495(16) 0.99509(15)
C6 C 0.9763(2) 0.15565(17) 0.97607(15)
H3 H 0.9685 0.1316 0.9627
C11 C 0.84417(17) 0.01842(16) 0.97292(13)
H6 H 0.8659 0.0237 0.9581
C12 C 0.85365(12) 0.04806(13) 0.99581(11)
Fe12 Fe 0.55712(3) 0.01926(3) 0.69661(7)
Fe22 Fe 0.46231(3) 0.01932(3) 0.69643(7)
O7 O 0.7045(2) 0.9257(2) 0.01522(15)
H8 H 0.7598 0.9984 0.0313
O21 O 0.65689(11) 0.82844(16) 0.00769(9)
O22 O 0.7025(2) 0.7762(3) 0.01527(15)
O23 O 0.63922(19) 0.91876(25) 0.05191(12)
O25 O 0.63899(17) 0.72141(23) 0.05109(11)
C71 C 0.77395(17) 0.77255(26) 0.01437(14)
H39 H 0.7497 0.7560 0.0276
C72 C 0.80968(19) 0.76539(26) 0.01411(14)
H40 H 0.8099 0.7437 0.0270
C81 C 0.95862(17) 0.78176(23) 0.01757(12)
H45 H 0.9376 0.7681 0.0333
C82 C 0.9964(2) 0.77780(26) 0.01636(14)
O51 O 0.6781(4) 0.8645(3) 0.07054(17)
O54 O 0.67882(24) 0.80702(17) 0.06882(12)
H93 H 0.66855 0.724545 0.0553152
H94 H 0.622906 0.71777 0.0701941
O6 O 0.7272(2) 0.9018(2) 0.97788(15)
C8 C 0.7308(3) 0.9317(3) 0.9960(3)
C9 C 0.77131(15) 0.97343(17) 0.99339(15)
C10 C 0.8024(2) 0.98061(16) 0.97165(14)
H5 H 0.7953 0.9597 0.9559
O24 O 0.7273(2) 0.8248(3) 0.97881(15)
O28 O 0.70140(15) 0.84974(23) 0.92732(12)
O29 O 0.6160(2) 0.87831(26) 0.99667(14)
O30 O 0.63288(15) 0.85528(25) 0.95364(12)
O31 O 0.5198(3) 0.9886(4) 0.73721(17)
O32 O 0.46154(17) 0.98785(24) 0.73549(12)
N3 N 0.87782(18) 0.77717(23) 0.99785(17)
N4 N 0.91423(16) 0.80960(21) 0.99702(16)
C69 C 0.7317(3) 0.8028(4) 0.9960(3)
C70 C 0.77340(17) 0.80372(23) 0.99549(15)
C73 C 0.84505(16) 0.78966(21) 0.99509(15)
C74 C 0.84435(17) 0.82065(26) 0.97607(15)
H41 H 0.8684 0.8369 0.9627
C75 C 0.8087(2) 0.82790(27) 0.97644(16)
H42 H 0.8085 0.8496 0.9636
C79 C 0.98158(16) 0.82575(23) 0.97292(13)
H44 H 0.9763 0.8422 0.9581
C80 C 0.95194(13) 0.80559(18) 0.99581(11)
C83 C 0.6085(3) 0.8674(4) 0.97117(19)
C84 C 0.57519(15) 0.86833(21) 0.95190(12)
C85 C 0.54928(19) 0.88313(25) 0.96611(10)
H47 H 0.5536 0.8905 0.9868
C86 C 0.51712(16) 0.88715(21) 0.95004(12)
H48 H 0.4995 0.8974 0.9597
C87 C 0.51069(16) 0.87614(21) 0.91986(12)
C88 C 0.5366(2) 0.86137(26) 0.90565(10)
H49 H 0.5323 0.8539 0.8850
C89 C 0.56904(19) 0.85772(24) 0.92166(13)
H50 H 0.5870 0.8479 0.9119
C90 C 0.47572(14) 0.88167(21) 0.90578(11)
C91 C 0.43682(14) 0.87310(21) 0.92038(10)
H51 H 0.4322 0.8637 0.9407
C92 C 0.40460(12) 0.87821(18) 0.90528(9)
C93 C 0.41118(14) 0.89168(21) 0.87553(10)
H52 H 0.3889 0.8947 0.8651
C94 C 0.45030(13) 0.90071(19) 0.86102(10)
C95 C 0.48226(15) 0.89507(22) 0.87603(11)
H53 H 0.5086 0.9004 0.8659
C96 C 0.45761(19) 0.91561(28) 0.82896(14)
C97 C 0.4972(2) 0.9259(3) 0.81466(15)
H54 H 0.5169 0.9176 0.8235
C98 C 0.5079(2) 0.9481(3) 0.78738(15)
H55 H 0.5362 0.9575 0.7785
C99 C 0.4772(2) 0.9565(3) 0.77310(14)
C100 C 0.4389(2) 0.94878(28) 0.78821(15)
H56 H 0.4200 0.9585 0.7798
C101 C 0.4283(2) 0.9268(3) 0.81559(15)
H57 H 0.4010 0.9194 0.8252
C102 C 0.4845(4) 0.9843(5) 0.7470(2)
C103 C 0.36319(16) 0.86925(22) 0.92093(11)
C104 C 0.36969(15) 0.88629(25) 0.94980(13)
H58 H 0.3983 0.8989 0.9588
C105 C 0.33433(19) 0.88483(28) 0.96546(11)
H59 H 0.3372 0.8917 0.9862
C106 C 0.29472(17) 0.87332(26) 0.95059(13)
C107 C 0.29058(16) 0.86248(26) 0.92037(13)
H60 H 0.2641 0.8559 0.9099
C108 C 0.32514(19) 0.86134(28) 0.90545(11)
H61 H 0.3228 0.8551 0.8846
C109 C 0.2594(2) 0.8691(4) 0.97028(16)
Fe13 Fe 0.98074(3) 0.53787(4) 0.69661(7)
Fe23 Fe 0.98068(3) 0.44300(4) 0.69643(7)
O13_2 O 0.30022(15) 0.10960(19) 0.28632(11)
O14_2 O 0.2813(2) 0.06952(16) 0.33020(14)
C38_2 C 0.2453(2) 0.03861(17) 0.28392(13)
C39_2 C 0.2386(2) 0.04275(16) 0.25370(13)
H22_2 H 0.2585 0.0692 0.2432
C40_2 C 0.2029(2) 0.00819(19) 0.23878(11)
H23_2 H 0.1990 0.0105 0.2179
C41_2 C 0.2764(3) 0.0739(2) 0.30361(16)
O17_2 O 0.25716(16) 0.09795(24) 0.38344(16)
O18_2 O 0.25609(16) 0.15828(23) 0.38369(16)
C51_2 C 0.23746(11) 0.11752(32) 0.3868(2)
C52_2 C 0.18742(11) 0.09330(19) 0.38963(10)
C53_2 C 0.16254(15) 0.04818(20) 0.38295(6)
H29_2 H 0.1768 0.0332 0.3747
C54_2 C 0.11692(14) 0.02496(21) 0.38826(10)
C55_2 C 0.09613(11) 0.04688(19) 0.40027(14)
C56_2 C 0.12102(15) 0.09203(20) 0.40696(15)
H31_2 H 0.1069 0.1070 0.4151
C57_2 C 0.16664(14) 0.11521(21) 0.40164(13)
H32_2 H 0.1837 0.1461 0.4062
C58_2 C 0.046301(19) 0.02362(18) 0.3978(2)
H35_2 H 0.0059 0.1058 0.3836
C68_2 C 0.02267(18) 0.046301(19) 0.3987(2)
H38_2 H 0.0382 0.0779 0.3999
Fe10_2 Fe 0.31408(3) 0.20453(4) 0.36327(7)
Fe16_2 Fe 0.34488(3) 0.17239(4) 0.30246(7)
Fe19_2 Fe 0.31402(3) 0.10966(4) 0.36309(7)
C17_2 C 0.00052(17) 0.78405(19) 0.29944(10)
H9_2 H 0.0036 0.7797 0.3201
C18_2 C 0.03670(13) 0.81621(16) 0.28337(12)
H10_2 H 0.0646 0.8338 0.2930
C19_2 C 0.03212(14) 0.82264(16) 0.25319(12)
C22_2 C 0.07262(15) 0.85761(14) 0.23911(11)
C23_2 C 0.10295(15) 0.89651(14) 0.25371(10)
H13_2 H 0.0982 0.9011 0.2740
C24_2 C 0.14028(13) 0.92873(12) 0.23861(9)
C25_2 C 0.14717(15) 0.92215(14) 0.20886(10)
H14_2 H 0.1725 0.9444 0.1984
C26_2 C 0.11708(14) 0.88303(13) 0.19435(10)
C27_2 C 0.07948(16) 0.85107(15) 0.20936(11)
H15_2 H 0.0585 0.8247 0.1992
C28_2 C 0.1247(2) 0.87572(19) 0.16229(14)
C29_2 C 0.0954(2) 0.8361(2) 0.14799(15)
H16_2 H 0.0674 0.8164 0.1568
C30_2 C 0.1069(2) 0.8254(2) 0.12071(15)
H17_2 H 0.0880 0.7971 0.1118
C31_2 C 0.1460(2) 0.8561(2) 0.10643(14)
C32_2 C 0.17655(19) 0.8944(2) 0.12154(15)
H18_2 H 0.2052 0.9133 0.1131
C33_2 C 0.1652(2) 0.9050(2) 0.14892(15)
H19_2 H 0.1851 0.9323 0.1585
C34_2 C 0.1665(3) 0.8488(4) 0.0803(2)
C35_2 C 0.17273(15) 0.97014(16) 0.25426(11)
C36_2 C 0.1833(2) 0.96364(15) 0.28313(13)
H20_2 H 0.1673 0.9350 0.2921
C37_2 C 0.2172(2) 0.99900(19) 0.29879(11)
H21_2 H 0.2212 0.9961 0.3195
H26_2 H 0.0002 0.8931 0.4151
H30_2 H 0.1000 0.9941 0.3836
C59_2 C 0.02363(18) 0.97733(18) 0.3987(2)
H33_2 H 0.0398 0.9618 0.3999
O19_2 O 0.90205(24) 0.15920(18) 0.38344(16)
O20_2 O 0.84172(23) 0.09780(16) 0.38369(16)
C60_2 C 0.88248(32) 0.1199(3) 0.3868(2)
C61_2 C 0.90670(19) 0.09411(15) 0.38963(10)
C62_2 C 0.95182(20) 0.11435(13) 0.38295(6)
H34_2 H 0.9668 0.1435 0.3747
C63_2 C 0.97504(21) 0.09195(15) 0.38826(10)
C64_2 C 0.95312(19) 0.04924(15) 0.40027(14)
C65_2 C 0.90797(20) 0.02898(13) 0.40696(15)
C66_2 C 0.88479(21) 0.05142(16) 0.40164(13)
H37_2 H 0.8539 0.0375 0.4062
C67_2 C 0.97638(18) 0.02268(18) 0.3978(2)
Fe11_2 Fe 0.79547(4) 0.10954(3) 0.36327(7)
Fe21_2 Fe 0.89034(4) 0.20435(3) 0.36309(7)
Fe1_2 Fe 0.89046(3) 0.68592(3) 0.36327(7)
Fe2_2 Fe 0.82752(3) 0.65512(3) 0.30246(7)
Fe3_2 Fe 0.79565(3) 0.68598(3) 0.36309(7)
O1_2 O 0.83822(12) 0.67644(11) 0.34102(9)
O2_2 O 0.7404(2) 0.6308(2) 0.34860(15)
O3_2 O 0.94621(16) 0.69411(19) 0.38524(12)
O4_2 O 0.7642(2) 0.6060(2) 0.31214(15)
O5_2 O 0.74909(15) 0.69434(17) 0.38442(11)
O6_2 O 0.3939(2) 0.2351(2) 0.31121(15)
O7_2 O 0.3712(2) 0.2590(2) 0.34855(15)
O8_2 O 0.81501(18) 0.63193(15) 0.26065(12)
O9_2 O 0.92898(17) 0.7173(2) 0.33000(14)
O10_2 O 0.8891(2) 0.70045(15) 0.28697(12)
O15_2 O 0.84080(18) 0.74284(16) 0.38344(16)
O16_2 O 0.90220(16) 0.74391(16) 0.38369(16)
N1_2 N 0.56602(15) 0.45551(18) 0.33118(17)
N2_2 N 0.56204(14) 0.41910(16) 0.33035(16)
C1_2 C 0.7378(3) 0.6016(3) 0.3293(3)
C2_2 C 0.69699(15) 0.55993(17) 0.32882(15)
C3 C 0.6653(2) 0.55938(17) 0.34770(14)
H1_2 H 0.6730 0.5836 0.3609
C4 C 0.62238(18) 0.52365(19) 0.34744(14)
H2 H 0.6005 0.5234 0.3603
C5_2 C 0.61128(14) 0.48828(16) 0.32842(15)
C6_2 C 0.6430(2) 0.48898(17) 0.30940(15)
H3_2 H 0.6352 0.4649 0.2960
C7_2 C 0.68587(18) 0.5246(2) 0.30977(16)
H4_2 H 0.7078 0.5248 0.2969
C8_2 C 0.3975(3) 0.2650(3) 0.3293(3)
C9_2 C 0.43798(15) 0.30676(17) 0.32672(15)
C10_2 C 0.4691(2) 0.31394(16) 0.30498(14)
H5_2 H 0.4620 0.2930 0.2892
C11_2 C 0.51084(17) 0.35175(16) 0.30625(13)
H6_2 H 0.5326 0.3570 0.2914
C12_2 C 0.52032(12) 0.38139(13) 0.32914(11)
C13 C 0.48981(16) 0.37471(17) 0.35090(12)
H7 H 0.4972 0.3957 0.3666
C14 C 0.44807(16) 0.3369(2) 0.34969(14)
H8_2 H 0.4265 0.3317 0.3646
C15_2 C 0.9256(3) 0.7248(3) 0.30450(19)
C16_2 C 0.95981(14) 0.75814(15) 0.28523(12)
C20_2 C 0.99144(17) 0.7967(2) 0.23898(10)
H11_2 H 0.9883 0.8010 0.2183
C21_2 C 0.95535(14) 0.76429(19) 0.25499(13)
H12_2 H 0.9276 0.7463 0.2452
C42_2 C 0.8801(3) 0.76254(11) 0.3868(2)
C43_2 C 0.90589(15) 0.81258(11) 0.38963(10)
C44_2 C 0.88565(13) 0.83746(15) 0.38295(6)
H24_2 H 0.8565 0.8232 0.3747
C45_2 C 0.90805(15) 0.88308(14) 0.38826(10)
H25_2 H 0.8942 0.9000 0.3836
C46_2 C 0.95076(15) 0.90387(11) 0.40027(14)
C47_2 C 0.97102(13) 0.87898(15) 0.40696(15)
C48_2 C 0.94858(16) 0.83336(14) 0.40164(13)
H27_2 H 0.9625 0.8163 0.4062
C49_2 C 0.97732(18) 0.953699(19) 0.3978(2)
C50_2 C 0.953699(19) 0.97637(18) 0.3987(2)
H28_2 H 0.9221 0.9602 0.3999
H36_2 H 0.8930 0.9998 0.4151
O21_2 O 0.32356(11) 0.16177(16) 0.34102(9)
O22_2 O 0.3692(2) 0.1095(3) 0.34860(15)
O23_2 O 0.30589(19) 0.25209(25) 0.38524(12)
O24_2 O 0.3940(2) 0.1581(3) 0.31214(15)
O25_2 O 0.30566(17) 0.05474(23) 0.38442(11)
O26_2 O 0.7649(2) 0.1587(3) 0.31121(15)
O27_2 O 0.7410(2) 0.1121(3) 0.34855(15)
O28_2 O 0.36807(15) 0.18307(23) 0.26065(12)
O29_2 O 0.2827(2) 0.21164(26) 0.33000(14)
O30_2 O 0.29955(15) 0.18861(25) 0.28697(12)
N3_2 N 0.54449(18) 0.11050(23) 0.33118(17)
N4_2 N 0.58090(16) 0.14293(21) 0.33035(16)
C69_2 C 0.3984(3) 0.1361(4) 0.3293(3)
C70_2 C 0.44007(17) 0.13705(23) 0.32882(15)
C71_2 C 0.44062(17) 0.10588(26) 0.34770(14)
H39_2 H 0.4164 0.0893 0.3609
C72_2 C 0.47635(19) 0.09872(26) 0.34744(14)
H40_2 H 0.4766 0.0770 0.3603
C73_2 C 0.51172(16) 0.12299(21) 0.32842(15)
C74_2 C 0.51102(17) 0.15398(26) 0.30940(15)
H41_2 H 0.5351 0.1702 0.2960
C75_2 C 0.4754(2) 0.16123(27) 0.30977(16)
H42_2 H 0.4752 0.1829 0.2969
C76_2 C 0.7350(3) 0.1324(4) 0.3293(3)
C77_2 C 0.69324(17) 0.13121(23) 0.32672(15)
C78_2 C 0.68606(16) 0.15512(26) 0.30498(14)
H43_2 H 0.7070 0.1689 0.2892
C79_2 C 0.64825(16) 0.15908(23) 0.30625(13)
H44_2 H 0.6430 0.1755 0.2914
C80_2 C 0.61861(13) 0.13892(18) 0.32914(11)
C81_2 C 0.62529(17) 0.11509(23) 0.35090(12)
H45_2 H 0.6043 0.1014 0.3666
C82_2 C 0.6631(2) 0.11113(26) 0.34969(14)
H46_2 H 0.6683 0.0947 0.3646
C83_2 C 0.2752(3) 0.2007(4) 0.30450(19)
C84_2 C 0.24186(15) 0.20166(21) 0.28523(12)
C85_2 C 0.21595(19) 0.21646(25) 0.29944(10)
H47_2 H 0.2203 0.2238 0.3201
C86_2 C 0.18379(16) 0.22048(21) 0.28337(12)
H48_2 H 0.1662 0.2307 0.2930
C87_2 C 0.17736(16) 0.20947(21) 0.25319(12)
C88_2 C 0.2033(2) 0.19470(26) 0.23898(10)
H49_2 H 0.1990 0.1872 0.2183
C89_2 C 0.23571(19) 0.19105(24) 0.25499(13)
H50_2 H 0.2537 0.1812 0.2452
C90_2 C 0.14239(14) 0.21500(21) 0.23911(11)
C91_2 C 0.10349(14) 0.20643(21) 0.25371(10)
H51_2 H 0.0989 0.1970 0.2740
C92_2 C 0.07127(12) 0.21154(18) 0.23861(9)
C93_2 C 0.07785(14) 0.22501(21) 0.20886(10)
H52_2 H 0.0556 0.2280 0.1984
C94_2 C 0.11697(13) 0.23404(19) 0.19435(10)
C95_2 C 0.14893(15) 0.22840(22) 0.20936(11)
H53_2 H 0.1753 0.2337 0.1992
C96_2 C 0.12428(19) 0.24894(28) 0.16229(14)
C97_2 C 0.1639(2) 0.2592(3) 0.14799(15)
H54_2 H 0.1836 0.2509 0.1568
C98_2 C 0.1746(2) 0.2814(3) 0.12071(15)
H55_2 H 0.2029 0.2908 0.1118
C99_2 C 0.1439(2) 0.2898(3) 0.10643(14)
C100_2 C 0.1056(2) 0.28211(28) 0.12154(15)
H56_2 H 0.0867 0.2918 0.1131
C101_2 C 0.0950(2) 0.2601(3) 0.14892(15)
H57_2 H 0.0677 0.2527 0.1585
C102_2 C 0.1512(4) 0.3176(5) 0.0803(2)
C103_2 C 0.02986(16) 0.20258(22) 0.25426(11)
C104_2 C 0.03636(15) 0.21962(25) 0.28313(13)
H58_2 H 0.0650 0.2322 0.2921
C105_2 C 0.00100(19) 0.21816(28) 0.29879(11)
H59_2 H 0.0039 0.2250 0.3195
Fe8_2 Fe 0.82761(4) 0.17248(3) 0.30246(7)
O35_2 O 0.83823(16) 0.16178(12) 0.34102(9)
O36_2 O 0.8905(3) 0.2596(2) 0.34860(15)
O37_2 O 0.74791(25) 0.05379(16) 0.38524(12)
O38_2 O 0.8419(3) 0.2358(2) 0.31214(15)
O39_2 O 0.94526(23) 0.25091(15) 0.38442(11)
O40_2 O 0.8413(3) 0.6061(2) 0.31121(15)
O41_2 O 0.8879(3) 0.6288(2) 0.34855(15)
O42_2 O 0.81693(23) 0.18499(18) 0.26065(12)
O43_2 O 0.78836(26) 0.07102(17) 0.33000(14)
O44_2 O 0.81139(25) 0.1109(2) 0.28697(12)
N5_2 N 0.88950(23) 0.43398(15) 0.33118(17)
N6_2 N 0.85707(21) 0.43796(14) 0.33035(16)
C110_2 C 0.8639(4) 0.2622(3) 0.3293(3)
C111_2 C 0.86295(23) 0.30301(15) 0.32882(15)
C112_2 C 0.89412(26) 0.3347(2) 0.34770(14)
H62_2 H 0.9107 0.3270 0.3609
C113_2 C 0.90128(26) 0.37762(18) 0.34744(14)
H63_2 H 0.9230 0.3995 0.3603
C114_2 C 0.87701(21) 0.38872(14) 0.32842(15)
C115_2 C 0.84602(26) 0.3570(2) 0.30940(15)
H64_2 H 0.8298 0.3648 0.2960
C116_2 C 0.83877(27) 0.31413(18) 0.30977(16)
H65_2 H 0.8171 0.2922 0.2969
C117_2 C 0.8676(4) 0.6025(3) 0.3293(3)
C118_2 C 0.86879(23) 0.56202(15) 0.32672(15)
C119_2 C 0.84488(26) 0.5309(2) 0.30498(14)
H66_2 H 0.8311 0.5380 0.2892
C120_2 C 0.84092(23) 0.48916(17) 0.30625(13)
H67_2 H 0.8245 0.4674 0.2914
C121_2 C 0.86108(18) 0.47968(12) 0.32914(11)
C122_2 C 0.88491(23) 0.51019(16) 0.35090(12)
H68_2 H 0.8986 0.5028 0.3666
C123_2 C 0.88887(26) 0.55193(16) 0.34969(14)
H69_2 H 0.9053 0.5735 0.3646
C124_2 C 0.7993(4) 0.0744(3) 0.30450(19)
C125_2 C 0.79834(21) 0.04019(14) 0.28523(12)
C129_2 C 0.80530(26) 0.00856(17) 0.23898(10)
H72_2 H 0.8128 0.0117 0.2183
C130_2 C 0.80895(24) 0.04465(14) 0.25499(13)
H73_2 H 0.8188 0.0724 0.2452
O49_2 O 0.8021(3) 0.1469(3) 0.40388(17)
O50_2 O 0.8531(3) 0.6553(4) 0.40388(17)
O51_2 O 0.3447(4) 0.1979(3) 0.40388(17)
O52_2 O 0.85964(17) 0.20513(17) 0.40216(12)
O53_2 O 0.79487(17) 0.65452(24) 0.40216(12)
O54_2 O 0.34548(24) 0.14036(17) 0.40216(12)
O56_2 O 0.89040(19) 0.19061(24) 0.28632(11)
O57_2 O 0.80939(24) 0.69978(15) 0.28632(11)
O59_2 O 0.93048(16) 0.21174(26) 0.33020(14)
O60_2 O 0.78826(26) 0.7187(2) 0.33020(14)
H85_2 H 0.942122 0.277339 0.388648
H86_2 H 0.948897 0.238469 0.403527
H93_2 H 0.335217 0.0578782 0.388648
H94_2 H 0.289572 0.0511033 0.403527
H99_2 H 0.722661 0.664783 0.388648
H100_2 H 0.761531 0.710428 0.403527
C126_2 C 0.78354(25) 0.99948(17) 0.29944(10)
H70_2 H 0.7762 0.9964 0.3201
C127_2 C 0.77952(21) 0.96330(13) 0.28337(12)
H71_2 H 0.7693 0.9354 0.2930
C128_2 C 0.79053(21) 0.96788(14) 0.25319(12)
C131_2 C 0.78500(21) 0.92738(15) 0.23911(11)
C132_2 C 0.79357(21) 0.89705(15) 0.25371(10)
H74_2 H 0.8030 0.9018 0.2740
C133_2 C 0.78846(18) 0.85972(13) 0.23861(9)
C134_2 C 0.77499(21) 0.85283(15) 0.20886(10)
H75_2 H 0.7720 0.8275 0.1984
C135_2 C 0.76596(19) 0.88292(14) 0.19435(10)
C136_2 C 0.77160(22) 0.92052(16) 0.20936(11)
H76_2 H 0.7663 0.9415 0.1992
C137_2 C 0.75106(28) 0.8753(2) 0.16229(14)
C138_2 C 0.7408(3) 0.9046(2) 0.14799(15)
H77_2 H 0.7491 0.9326 0.1568
C139_2 C 0.7186(3) 0.8931(2) 0.12071(15)
H78_2 H 0.7092 0.9120 0.1118
C140_2 C 0.7102(3) 0.8540(2) 0.10643(14)
C141_2 C 0.71789(28) 0.82345(19) 0.12154(15)
H79_2 H 0.7082 0.7948 0.1131
C142_2 C 0.7399(3) 0.8348(2) 0.14892(15)
H80_2 H 0.7473 0.8149 0.1585
C143_2 C 0.6824(5) 0.8335(3) 0.0803(2)
C144_2 C 0.79742(22) 0.82727(15) 0.25426(11)
C145_2 C 0.78038(25) 0.8167(2) 0.28313(13)
H81_2 H 0.7678 0.8327 0.2921
C146_2 C 0.78184(28) 0.7828(2) 0.29879(11)
H82_2 H 0.7750 0.7788 0.3195
C147_2 C 0.79335(26) 0.7547(2) 0.28392(13)
C148_2 C 0.80419(26) 0.7614(2) 0.25370(13)
H83_2 H 0.8108 0.7415 0.2432
C149_2 C 0.80533(28) 0.7971(2) 0.23878(11)
H84_2 H 0.8116 0.8010 0.2179
C150_2 C 0.7976(4) 0.7236(3) 0.30361(16)
C106_2 C 0.96139(17) 0.20665(26) 0.28392(13)
C107_2 C 0.95725(16) 0.19581(26) 0.25370(13)
H60_2 H 0.9308 0.1892 0.2432
C108_2 C 0.99181(19) 0.19467(28) 0.23878(11)
H61_2 H 0.9895 0.1884 0.2179
C109_2 C 0.9261(2) 0.2024(4) 0.30361(16)
Fe16_3 Fe 0.01154(3) 0.50573(4) 0.63580(7)
O1_3 O 0.50488(12) 0.00978(11) 0.67436(9)
O3_3 O 0.61287(16) 0.02745(19) 0.71858(12)
O5_3 O 0.41575(15) 0.02768(17) 0.71776(11)
O9_3 O 0.59564(17) 0.0507(2) 0.66334(14)
O10_3 O 0.5557(2) 0.03379(15) 0.62031(12)
O13_3 O 0.96688(15) 0.44294(19) 0.61966(11)
O14_3 O 0.9479(2) 0.40286(16) 0.66354(14)
O15_3 O 0.50746(18) 0.07618(16) 0.71678(16)
O16_3 O 0.56886(16) 0.07725(16) 0.71703(16)
C15_3 C 0.5922(3) 0.0582(3) 0.63784(19)
C16_3 C 0.62647(14) 0.09148(15) 0.61857(12)
C17_3 C 0.66718(17) 0.11739(19) 0.63278(10)
H9_3 H 0.6702 0.1131 0.6535
C18_3 C 0.70336(13) 0.14955(16) 0.61671(12)
H10_3 H 0.7312 0.1672 0.6264
C19_3 C 0.69878(14) 0.15598(16) 0.58653(12)
C20_3 C 0.65810(17) 0.1301(2) 0.57232(10)
H11_3 H 0.6549 0.1344 0.5517
C21_3 C 0.62201(14) 0.09763(19) 0.58833(13)
H12_3 H 0.5942 0.0797 0.5786
C22_3 C 0.73928(15) 0.19095(14) 0.57245(11)
C23_3 C 0.76961(15) 0.22985(14) 0.58705(10)
H13_3 H 0.7648 0.2345 0.6074
C24_3 C 0.80694(13) 0.26207(12) 0.57195(9)
C25_3 C 0.81383(15) 0.25549(14) 0.54220(10)
H14_3 H 0.8391 0.2778 0.5318
C26_3 C 0.78374(14) 0.21637(13) 0.52769(10)
C27_3 C 0.74614(16) 0.18441(15) 0.54270(11)
H15_3 H 0.7251 0.1581 0.5326
C28_3 C 0.7913(2) 0.20906(19) 0.49563(14)
C29_3 C 0.7620(2) 0.1695(2) 0.48133(15)
H16_3 H 0.7340 0.1498 0.4902
C30_3 C 0.7735(2) 0.1588(2) 0.45405(15)
H17_3 H 0.7546 0.1305 0.4452
C31_3 C 0.8126(2) 0.1895(2) 0.43977(14)
C32_3 C 0.84321(19) 0.2278(2) 0.45488(15)
H18_3 H 0.8718 0.2467 0.4465
C33_3 C 0.8318(2) 0.2384(2) 0.48226(15)
H19_3 H 0.8517 0.2657 0.4919
C34_3 C 0.8331(3) 0.1822(4) 0.4137(2)
C35_3 C 0.83939(15) 0.30348(16) 0.58760(11)
C36_3 C 0.8499(2) 0.29698(15) 0.61647(13)
H20_3 H 0.8339 0.2684 0.6255
C37_3 C 0.8838(2) 0.33234(19) 0.63213(11)
H21_3 H 0.8878 0.3295 0.6529
C38_3 C 0.9119(2) 0.37195(17) 0.61726(13)
C39_3 C 0.9052(2) 0.37609(16) 0.58704(13)
H22_3 H 0.9251 0.4026 0.5766
C40_3 C 0.8695(2) 0.34153(19) 0.57212(11)
H23_3 H 0.8656 0.3439 0.5513
C41_3 C 0.9430(3) 0.4073(2) 0.63695(16)
C42_3 C 0.5467(3) 0.09588(11) 0.7202(2)
C43_3 C 0.57255(15) 0.14592(11) 0.72297(10)
C44_3 C 0.55231(13) 0.17080(15) 0.71629(6)
H24_3 H 0.5231 0.1566 0.7081
C45_3 C 0.57471(15) 0.21642(14) 0.72160(10)
H25_3 H 0.5608 0.2334 0.7170
C46_3 C 0.61742(15) 0.23721(11) 0.73361(14)
C47_3 C 0.63768(13) 0.21232(15) 0.74030(15)
H26_3 H 0.6668 0.2265 0.7485
C48_3 C 0.61524(16) 0.16670(14) 0.73498(13)
H27_3 H 0.6291 0.1497 0.7396
C49_3 C 0.64398(18) 0.287033(19) 0.7312(2)
C50_3 C 0.620365(19) 0.30971(18) 0.7321(2)
H28_3 H 0.5887 0.2936 0.7333
O17_3 O 0.92382(16) 0.43129(24) 0.71678(16)
O18_3 O 0.92275(16) 0.49162(23) 0.71703(16)
C51_3 C 0.90412(11) 0.45086(32) 0.7202(2)
C52_3 C 0.85408(11) 0.42664(19) 0.72297(10)
C53_3 C 0.82920(15) 0.38152(20) 0.71629(6)
H29_3 H 0.8434 0.3666 0.7081
C54_3 C 0.78358(14) 0.35830(21) 0.72160(10)
H30_3 H 0.7666 0.3275 0.7170
C55_3 C 0.76279(11) 0.38022(19) 0.73361(14)
C56_3 C 0.78768(15) 0.42537(20) 0.74030(15)
H31_3 H 0.7735 0.4404 0.7485
C57_3 C 0.83330(14) 0.44855(21) 0.73498(13)
H32_3 H 0.8503 0.4795 0.7396
C58_3 C 0.712967(19) 0.35695(18) 0.7312(2)
C59_3 C 0.69029(18) 0.31066(18) 0.7321(2)
H33_3 H 0.7064 0.2952 0.7333
O19_3 O 0.56871(24) 0.49254(18) 0.71678(16)
O20_3 O 0.50838(23) 0.43114(16) 0.71703(16)
C60_3 C 0.54914(32) 0.4533(3) 0.7202(2)
C61_3 C 0.57336(19) 0.42745(15) 0.72297(10)
C62_3 C 0.61848(20) 0.44769(13) 0.71629(6)
H34_3 H 0.6334 0.4769 0.7081
C63_3 C 0.64170(21) 0.42529(15) 0.72160(10)
H35_3 H 0.6725 0.4392 0.7170
C64_3 C 0.61978(19) 0.38258(15) 0.73361(14)
C65_3 C 0.57463(20) 0.36232(13) 0.74030(15)
H36_3 H 0.5596 0.3332 0.7485
C66_3 C 0.55145(21) 0.38476(16) 0.73498(13)
H37_3 H 0.5205 0.3709 0.7396
C67_3 C 0.64305(18) 0.35602(18) 0.7312(2)
C68_3 C 0.68934(18) 0.379635(19) 0.7321(2)
H38_3 H 0.7048 0.4113 0.7333
O57_3 O 0.47605(24) 0.03312(15) 0.61966(11)
O60_3 O 0.45492(26) 0.0521(2) 0.66354(14)
H100_3 H 0.428198 0.0437611 0.736861
Fe2_3 Fe 0.49418(3) 0.98846(3) 0.63580(7)
O2_3 O 0.4070(2) 0.9642(2) 0.68194(15)
O4_3 O 0.4308(2) 0.9394(2) 0.64548(15)
O6_3 O 0.0605(2) 0.5685(2) 0.64455(15)
O7_3 O 0.0378(2) 0.5924(2) 0.68189(15)
O8_3 O 0.48167(18) 0.96527(15) 0.59399(12)
N1_3 N 0.23268(15) 0.78885(18) 0.66452(17)
N2_3 N 0.22870(14) 0.75244(16) 0.66369(16)
C1_3 C 0.4044(3) 0.9350(3) 0.6627(3)
C2_3 C 0.36365(15) 0.89327(17) 0.66216(15)
C3_2 C 0.3319(2) 0.89272(17) 0.68104(14)
H1_3 H 0.3396 0.9170 0.6943
C4_2 C 0.28904(18) 0.85699(19) 0.68078(14)
H2_2 H 0.2671 0.8568 0.6937
C5_3 C 0.27794(14) 0.82162(16) 0.66176(15)
C6_3 C 0.3096(2) 0.82232(17) 0.64274(15)
H3_3 H 0.3018 0.7983 0.6294
C7_3 C 0.35253(18) 0.8580(2) 0.64311(16)
H4_3 H 0.3744 0.8582 0.6303
C8_3 C 0.0641(3) 0.5984(3) 0.6627(3)
C9_3 C 0.10464(15) 0.64010(17) 0.66006(15)
C10_3 C 0.1357(2) 0.64728(16) 0.63832(14)
H5_3 H 0.1286 0.6264 0.6226
C11_3 C 0.17750(17) 0.68509(16) 0.63959(13)
H6_3 H 0.1992 0.6904 0.6248
C12_3 C 0.18698(12) 0.71473(13) 0.66248(11)
C13_2 C 0.15647(16) 0.70805(17) 0.68424(12)
H7_2 H 0.1638 0.7291 0.7000
C14_2 C 0.11473(16) 0.6703(2) 0.68303(14)
H8_3 H 0.0931 0.6651 0.6980
O22_3 O 0.0358(2) 0.4429(3) 0.68194(15)
O24_3 O 0.0606(2) 0.4915(3) 0.64548(15)
O26_3 O 0.4315(2) 0.4921(3) 0.64455(15)
O27_3 O 0.4076(2) 0.4455(3) 0.68189(15)
O28_3 O 0.03473(15) 0.51641(23) 0.59399(12)
N3_3 N 0.21115(18) 0.44384(23) 0.66452(17)
N4_3 N 0.24756(16) 0.47627(21) 0.66369(16)
C69_3 C 0.0650(3) 0.4695(4) 0.6627(3)
C70_3 C 0.10673(17) 0.47039(23) 0.66216(15)
C71_3 C 0.10728(17) 0.43922(26) 0.68104(14)
H39_3 H 0.0830 0.4227 0.6943
C72_3 C 0.14301(19) 0.43206(26) 0.68078(14)
H40_3 H 0.1432 0.4104 0.6937
C73_3 C 0.17838(16) 0.45633(21) 0.66176(15)
C74_3 C 0.17768(17) 0.48732(26) 0.64274(15)
H41_3 H 0.2017 0.5036 0.6294
C75_3 C 0.1420(2) 0.49457(27) 0.64311(16)
H42_3 H 0.1418 0.5163 0.6303
C76_3 C 0.4016(3) 0.4658(4) 0.6627(3)
C77_3 C 0.35990(17) 0.46455(23) 0.66006(15)
C78_3 C 0.35272(16) 0.48846(26) 0.63832(14)
H43_3 H 0.3736 0.5023 0.6226
C79_3 C 0.31491(16) 0.49242(23) 0.63959(13)
H44_3 H 0.3096 0.5089 0.6248
C80_3 C 0.28527(13) 0.47226(18) 0.66248(11)
C81_3 C 0.29195(17) 0.44843(23) 0.68424(12)
H45_3 H 0.2709 0.4348 0.7000
C82_3 C 0.3297(2) 0.44447(26) 0.68303(14)
H46_3 H 0.3349 0.4281 0.6980
Fe8_3 Fe 0.49427(4) 0.50582(3) 0.63580(7)
O35_3 O 0.50489(16) 0.49512(12) 0.67436(9)
O36_3 O 0.5571(3) 0.5930(2) 0.68194(15)
O37_3 O 0.41457(25) 0.38713(16) 0.71858(12)
O38_3 O 0.5085(3) 0.5692(2) 0.64548(15)
O39_3 O 0.61192(23) 0.58425(15) 0.71776(11)
O40_3 O 0.5079(3) 0.9395(2) 0.64455(15)
O41_3 O 0.5545(3) 0.9622(2) 0.68189(15)
O42_3 O 0.48359(23) 0.51833(18) 0.59399(12)
O43_3 O 0.45502(26) 0.40436(17) 0.66334(14)
O44_3 O 0.47805(25) 0.4443(2) 0.62031(12)
N5_3 N 0.55616(23) 0.76732(15) 0.66452(17)
N6_3 N 0.52373(21) 0.77130(14) 0.66369(16)
C110_3 C 0.5305(4) 0.5956(3) 0.6627(3)
C111_3 C 0.52961(23) 0.63635(15) 0.66216(15)
C112_3 C 0.56078(26) 0.6681(2) 0.68104(14)
H62_3 H 0.5773 0.6604 0.6943
C113_3 C 0.56794(26) 0.71096(18) 0.68078(14)
H63_3 H 0.5896 0.7329 0.6937
C114_3 C 0.54367(21) 0.72206(14) 0.66176(15)
C115_3 C 0.51268(26) 0.6904(2) 0.64274(15)
H64_3 H 0.4964 0.6982 0.6294
C116_3 C 0.50543(27) 0.64747(18) 0.64311(16)
H65_3 H 0.4837 0.6256 0.6303
C117_3 C 0.5342(4) 0.9359(3) 0.6627(3)
C118_3 C 0.53545(23) 0.89536(15) 0.66006(15)
C119_3 C 0.51154(26) 0.8643(2) 0.63832(14)
H66_3 H 0.4977 0.8714 0.6226
C120_3 C 0.50758(23) 0.82250(17) 0.63959(13)
H67_3 H 0.4911 0.8008 0.6248
C121_3 C 0.52774(18) 0.81302(12) 0.66248(11)
C122_3 C 0.55157(23) 0.84353(16) 0.68424(12)
H68_3 H 0.5652 0.8362 0.7000
C123_3 C 0.55553(26) 0.88527(16) 0.68303(14)
H69_3 H 0.5719 0.9069 0.6980
C124_3 C 0.4659(4) 0.4078(3) 0.63784(19)
C125_3 C 0.46500(21) 0.37353(14) 0.61857(12)
C126_3 C 0.45020(25) 0.33282(17) 0.63278(10)
H70_3 H 0.4428 0.3298 0.6535
C127_3 C 0.44618(21) 0.29664(13) 0.61671(12)
H71_3 H 0.4359 0.2688 0.6264
C128_3 C 0.45719(21) 0.30122(14) 0.58653(12)
C129_3 C 0.47196(26) 0.34190(17) 0.57232(10)
H72_3 H 0.4794 0.3451 0.5517
C130_3 C 0.47561(24) 0.37799(14) 0.58833(13)
H73_3 H 0.4854 0.4058 0.5786
C131_3 C 0.45166(21) 0.26072(15) 0.57245(11)
C132_3 C 0.46023(21) 0.23039(15) 0.58705(10)
H74_3 H 0.4696 0.2352 0.6074
C133_3 C 0.45512(18) 0.19306(13) 0.57195(9)
C134_3 C 0.44165(21) 0.18617(15) 0.54220(10)
H75_3 H 0.4386 0.1609 0.5318
C135_3 C 0.43262(19) 0.21626(14) 0.52769(10)
C136_3 C 0.43826(22) 0.25386(16) 0.54270(11)
H76_3 H 0.4329 0.2749 0.5326
C137_3 C 0.41772(28) 0.2087(2) 0.49563(14)
C138_3 C 0.4074(3) 0.2380(2) 0.48133(15)
H77_3 H 0.4157 0.2660 0.4902
C139_3 C 0.3852(3) 0.2265(2) 0.45405(15)
H78_3 H 0.3758 0.2454 0.4452
C140_3 C 0.3768(3) 0.1874(2) 0.43977(14)
C141_3 C 0.38455(28) 0.15679(19) 0.45488(15)
H79_3 H 0.3748 0.1282 0.4465
C142_3 C 0.4065(3) 0.1682(2) 0.48226(15)
H80_3 H 0.4139 0.1483 0.4919
C143_3 C 0.3490(5) 0.1669(3) 0.4137(2)
C144_3 C 0.46408(22) 0.16061(15) 0.58760(11)
C145_3 C 0.44704(25) 0.1501(2) 0.61647(13)
H81_3 H 0.4344 0.1661 0.6255
C146_3 C 0.44850(28) 0.1162(2) 0.63213(11)
H82_3 H 0.4416 0.1122 0.6529
C147_3 C 0.46001(26) 0.0881(2) 0.61726(13)
C148_3 C 0.47085(26) 0.0948(2) 0.58704(13)
H83_3 H 0.4774 0.0749 0.5766
C149_3 C 0.47199(28) 0.1305(2) 0.57212(11)
H84_3 H 0.4782 0.1344 0.5513
C150_3 C 0.4642(4) 0.0570(3) 0.63695(16)
O56_3 O 0.55706(19) 0.52395(24) 0.61966(11)
O59_3 O 0.59714(16) 0.54508(26) 0.66354(14)
H85_3 H 0.608789 0.610672 0.721982
H86_3 H 0.615563 0.571802 0.736861
H93_3 H 0.00188346 0.391211 0.721982
H99_3 H 0.389328 0.998117 0.721982
O21_3 O 0.99022(11) 0.49511(16) 0.67436(9)
O23_3 O 0.97255(19) 0.58543(25) 0.71858(12)
O25_3 O 0.97232(17) 0.38808(23) 0.71776(11)
O29_3 O 0.9493(2) 0.54498(26) 0.66334(14)
O30_3 O 0.96621(15) 0.52195(25) 0.62031(12)
C83_3 C 0.9418(3) 0.5341(4) 0.63784(19)
C84_3 C 0.90852(15) 0.53500(21) 0.61857(12)
C85_3 C 0.88261(19) 0.54980(25) 0.63278(10)
H47_3 H 0.8869 0.5572 0.6535
C86_3 C 0.85045(16) 0.55382(21) 0.61671(12)
H48_3 H 0.8328 0.5641 0.6264
C87_3 C 0.84402(16) 0.54281(21) 0.58653(12)
C88_3 C 0.8699(2) 0.52804(26) 0.57232(10)
H49_3 H 0.8656 0.5206 0.5517
C89_3 C 0.90237(19) 0.52439(24) 0.58833(13)
H50_3 H 0.9203 0.5146 0.5786
C90_3 C 0.80905(14) 0.54834(21) 0.57245(11)
C91_3 C 0.77015(14) 0.53977(21) 0.58705(10)
H51_3 H 0.7655 0.5304 0.6074
C92_3 C 0.73793(12) 0.54488(18) 0.57195(9)
C93_3 C 0.74451(14) 0.55835(21) 0.54220(10)
H52_3 H 0.7222 0.5614 0.5318
C94_3 C 0.78363(13) 0.56738(19) 0.52769(10)
C95_3 C 0.81559(15) 0.56174(22) 0.54270(11)
H53_3 H 0.8419 0.5671 0.5326
C96_3 C 0.79094(19) 0.58228(28) 0.49563(14)
C97_3 C 0.8305(2) 0.5926(3) 0.48133(15)
H54_3 H 0.8502 0.5843 0.4902
C98_3 C 0.8412(2) 0.6148(3) 0.45405(15)
H55_3 H 0.8695 0.6242 0.4452
C99_3 C 0.8105(2) 0.6232(3) 0.43977(14)
C100_3 C 0.7722(2) 0.61545(28) 0.45488(15)
H56_3 H 0.7533 0.6252 0.4465
C101_3 C 0.7616(2) 0.5935(3) 0.48226(15)
H57_3 H 0.7343 0.5861 0.4919
C102_3 C 0.8178(4) 0.6510(5) 0.4137(2)
C103_3 C 0.69652(16) 0.53592(22) 0.58760(11)
C104_3 C 0.70302(15) 0.55296(25) 0.61647(13)
H58_3 H 0.7316 0.5656 0.6255
C105_3 C 0.66766(19) 0.55150(28) 0.63213(11)
H59_3 H 0.6705 0.5584 0.6529
C106_3 C 0.62805(17) 0.53999(26) 0.61726(13)
C107_3 C 0.62391(16) 0.52915(26) 0.58704(13)
H60_3 H 0.5974 0.5226 0.5766
C108_3 C 0.65847(19) 0.52801(28) 0.57212(11)
H61_3 H 0.6561 0.5218 0.5513
C109_3 C 0.5927(2) 0.5358(4) 0.63695(16)
H94_3 H 0.956239 0.384437 0.736861
C3_3 C 0.9986(2) 0.22605(17) 0.01437(14)
C4_3 C 0.95571(18) 0.19032(19) 0.01411(14)
H2_3 H 0.9338 0.1901 0.0270
C13_3 C 0.82314(16) 0.04138(17) 0.01757(12)
H7_3 H 0.8305 0.0624 0.0333
C14_3 C 0.78140(16) 0.0036(2) 0.01636(14)
loop_
_geom_bond_atom_site_label_1
_geom_bond_atom_site_label_2
_geom_bond_site_symmetry_1
_geom_bond_site_symmetry_2
Fe1 O1 1_555 1_555
Fe3 O1 1_555 1_555
O2 Fe3 1_555 1_555
O3 Fe1 1_555 1_555
O5 Fe3 1_555 1_555
O15 Fe3 1_555 1_555
O16 Fe1 1_555 1_555
C42 O15 1_555 1_555
C43 C42 1_555 1_555
C44 C43 1_555 1_555
H24 C44 1_555 1_555
C45 C44 1_555 1_555
H25 C45 1_555 1_555
C46 C45 1_555 1_555
C47 C46 1_555 1_555
H26 C47 1_555 1_555
C48 C43 1_555 1_555
H27 C48 1_555 1_555
C49 C46 1_555 1_555
C50 C49 1_555 1_555
H28 C50 1_555 1_555
O17 C51 1_555 1_555
O18 C51 1_555 1_555
C51 C52 1_555 1_555
C52 C53 1_555 1_555
C53 H29 1_555 1_555
C54 C53 1_555 1_555
H30 C54 1_555 1_555
C55 C54 1_555 1_555
C56 C55 1_555 1_555
H31 C56 1_555 1_555
C57 C52 1_555 1_555
H32 C57 1_555 1_555
C58 C55 1_555 1_555
C59 C49 1_555 1_555
H33 C59 1_555 1_555
O19 C60 1_555 1_555
O20 C60 1_555 1_555
C60 C61 1_555 1_555
C61 C62 1_555 1_555
C62 H34 1_555 1_555
C63 C62 1_555 1_555
H35 C63 1_555 1_555
C64 C63 1_555 1_555
C65 C64 1_555 1_555
H36 C65 1_555 1_555
C66 C61 1_555 1_555
H37 C66 1_555 1_555
C67 C50 1_555 1_555
C68 C58 1_555 1_555
H38 C68 1_555 1_555
O41 Fe1 1_555 1_555
C113 C112 1_555 1_555
H63 C113 1_555 1_555
H68 C122 1_555 1_555
H69 C123 1_555 1_555
Fe10 O18 1_555 1_555
Fe11 O20 1_555 1_555
Fe21 O19 1_555 1_555
O50 Fe1 1_555 1_555
O53 Fe3 1_555 1_555
O16 C42 1_555 1_555
C47 C48 1_555 1_555
O17 Fe19 1_555 1_555
C56 C57 1_555 1_555
C58 C59 1_555 1_555
C64 C67 1_555 1_555
C65 C66 1_555 1_555
C67 C68 1_555 1_555
C122 C123 1_555 1_555
O5 H99 1_555 1_555
O5 H100 1_555 1_555
O4 Fe2 1_555 1_555
O8 Fe2 1_555 1_555
O10 Fe2 1_555 1_555
O11 C34 1_555 1_555
O12 C34 1_555 1_555
O13 C41 1_555 1_555
O14 C41 1_555 1_555
C2 C1 1_555 1_555
C7 C2 1_555 1_555
H4 C7 1_555 1_555
C15 O9 1_555 1_555
C16 C15 1_555 1_555
C17 C16 1_555 1_555
H9 C17 1_555 1_555
C18 C17 1_555 1_555
H10 C18 1_555 1_555
C19 C18 1_555 1_555
C20 C19 1_555 1_555
H11 C20 1_555 1_555
C21 C16 1_555 1_555
H12 C21 1_555 1_555
C22 C19 1_555 1_555
C23 C22 1_555 1_555
H13 C23 1_555 1_555
C24 C23 1_555 1_555
C25 C24 1_555 1_555
H14 C25 1_555 1_555
C26 C25 1_555 1_555
C27 C22 1_555 1_555
H15 C27 1_555 1_555
C28 C26 1_555 1_555
C29 C28 1_555 1_555
H16 C29 1_555 1_555
C30 C29 1_555 1_555
H17 C30 1_555 1_555
C31 C30 1_555 1_555
C32 C31 1_555 1_555
H18 C32 1_555 1_555
C33 C28 1_555 1_555
H19 C33 1_555 1_555
C34 C31 1_555 1_555
C35 C24 1_555 1_555
C36 C35 1_555 1_555
H20 C36 1_555 1_555
C37 C36 1_555 1_555
H21 C37 1_555 1_555
C38 C37 1_555 1_555
C39 C38 1_555 1_555
H22 C39 1_555 1_555
C40 C35 1_555 1_555
H23 C40 1_555 1_555
C41 C38 1_555 1_555
O40 Fe2 1_555 1_555
N5 N6 1_555 1_555
N6 C121 1_555 1_555
C114 N5 1_555 1_555
C115 C114 1_555 1_555
H64 C115 1_555 1_555
C117 O40 1_555 1_555
C118 C117 1_555 1_555
C119 C118 1_555 1_555
H66 C119 1_555 1_555
C120 C119 1_555 1_555
H67 C120 1_555 1_555
C121 C120 1_555 1_555
Fe14 O11 1_555 1_555
Fe16 O13 1_555 1_555
Fe24 O12 1_555 1_555
O57 Fe2 1_555 1_555
O4 C1 1_555 1_555
O10 C15 1_555 1_555
C20 C21 1_555 1_555
C26 C27 1_555 1_555
C32 C33 1_555 1_555
C39 C40 1_555 1_555
Fe11 O27 1_555 1_555
Fe21 O35 1_555 1_555
O35 Fe11 1_555 1_555
O36 Fe21 1_555 1_555
O37 Fe11 1_555 1_555
O39 Fe21 1_555 1_555
O49 Fe11 1_555 1_555
O52 Fe21 1_555 1_555
O39 H85 1_555 1_555
O39 H86 1_555 1_555
O26 C76 1_555 1_555
C76 C77 1_555 1_555
C77 C78 1_555 1_555
C78 H43 1_555 1_555
Fe8 O26 1_555 1_555
O38 Fe8 1_555 1_555
O42 Fe8 1_555 1_555
O44 Fe8 1_555 1_555
O45 C143 1_555 1_555
O46 C143 1_555 1_555
O57 C150 1_555 1_555
O60 C150 1_555 1_555
C111 C110 1_555 1_555
C116 C111 1_555 1_555
H65 C116 1_555 1_555
C124 O43 1_555 1_555
C125 C124 1_555 1_555
C126 C125 1_555 1_555
H70 C126 1_555 1_555
C127 C126 1_555 1_555
H71 C127 1_555 1_555
C128 C127 1_555 1_555
C129 C128 1_555 1_555
H72 C129 1_555 1_555
C130 C125 1_555 1_555
H73 C130 1_555 1_555
C131 C128 1_555 1_555
C132 C131 1_555 1_555
H74 C132 1_555 1_555
C133 C132 1_555 1_555
C134 C133 1_555 1_555
H75 C134 1_555 1_555
C135 C134 1_555 1_555
C136 C131 1_555 1_555
H76 C136 1_555 1_555
C137 C135 1_555 1_555
C138 C137 1_555 1_555
H77 C138 1_555 1_555
C139 C138 1_555 1_555
H78 C139 1_555 1_555
C140 C139 1_555 1_555
C141 C140 1_555 1_555
H79 C141 1_555 1_555
C142 C137 1_555 1_555
H80 C142 1_555 1_555
C143 C140 1_555 1_555
C144 C133 1_555 1_555
C145 C144 1_555 1_555
H81 C145 1_555 1_555
C146 C145 1_555 1_555
H82 C146 1_555 1_555
C147 C146 1_555 1_555
C148 C147 1_555 1_555
H83 C148 1_555 1_555
C149 C144 1_555 1_555
H84 C149 1_555 1_555
C150 C147 1_555 1_555
O56 Fe8 1_555 1_555
O38 C110 1_555 1_555
O44 C124 1_555 1_555
C129 C130 1_555 1_555
C135 C136 1_555 1_555
C141 C142 1_555 1_555
C148 C149 1_555 1_555
N1 N2 1_555 1_555
N2 C12 1_555 1_555
C5 N1 1_555 1_555
C6 C5 1_555 1_555
H3 C6 1_555 1_555
H6 C11 1_555 1_555
C12 C11 1_555 1_555
Fe10 O7 1_555 1_555
Fe19 O21 1_555 1_555
O21 Fe10 1_555 1_555
O22 Fe19 1_555 1_555
O23 Fe10 1_555 1_555
O25 Fe19 1_555 1_555
H39 C71 1_555 1_555
C72 C71 1_555 1_555
H40 C72 1_555 1_555
H45 C81 1_555 1_555
O51 Fe10 1_555 1_555
O54 Fe19 1_555 1_555
C81 C82 1_555 1_555
O25 H93 1_555 1_555
O25 H94 1_555 1_555
O6 C8 1_555 1_555
C8 C9 1_555 1_555
C9 C10 1_555 1_555
C10 H5 1_555 1_555
Fe16 O6 1_555 1_555
O24 Fe16 1_555 1_555
O28 Fe16 1_555 1_555
O30 Fe16 1_555 1_555
O31 C102 1_555 1_555
O32 C102 1_555 1_555
O56 C109 1_555 1_555
O59 C109 1_555 1_555
N3 N4 1_555 1_555
N4 C80 1_555 1_555
C70 C69 1_555 1_555
C73 N3 1_555 1_555
C74 C73 1_555 1_555
H41 C74 1_555 1_555
C75 C70 1_555 1_555
H42 C75 1_555 1_555
H44 C79 1_555 1_555
C80 C79 1_555 1_555
C83 O29 1_555 1_555
C84 C83 1_555 1_555
C85 C84 1_555 1_555
H47 C85 1_555 1_555
C86 C85 1_555 1_555
H48 C86 1_555 1_555
C87 C86 1_555 1_555
C88 C87 1_555 1_555
H49 C88 1_555 1_555
C89 C84 1_555 1_555
H50 C89 1_555 1_555
C90 C87 1_555 1_555
C91 C90 1_555 1_555
H51 C91 1_555 1_555
C92 C91 1_555 1_555
C93 C92 1_555 1_555
H52 C93 1_555 1_555
C94 C93 1_555 1_555
C95 C90 1_555 1_555
H53 C95 1_555 1_555
C96 C94 1_555 1_555
C97 C96 1_555 1_555
H54 C97 1_555 1_555
C98 C97 1_555 1_555
H55 C98 1_555 1_555
C99 C98 1_555 1_555
C100 C99 1_555 1_555
H56 C100 1_555 1_555
C101 C96 1_555 1_555
H57 C101 1_555 1_555
C102 C99 1_555 1_555
C103 C92 1_555 1_555
C104 C103 1_555 1_555
H58 C104 1_555 1_555
C105 C104 1_555 1_555
H59 C105 1_555 1_555
C106 C105 1_555 1_555
C107 C106 1_555 1_555
H60 C107 1_555 1_555
C108 C103 1_555 1_555
H61 C108 1_555 1_555
C109 C106 1_555 1_555
O24 C69 1_555 1_555
O30 C83 1_555 1_555
C74 C75 1_555 1_555
C88 C89 1_555 1_555
C94 C95 1_555 1_555
C100 C101 1_555 1_555
C107 C108 1_555 1_555
O13_2 C41_2 1_555 1_555
O14_2 C41_2 1_555 1_555
C39_2 C38_2 1_555 1_555
H22_2 C39_2 1_555 1_555
H23_2 C40_2 1_555 1_555
C41_2 C38_2 1_555 1_555
O17_2 C51_2 1_555 1_555
O18_2 C51_2 1_555 1_555
C51_2 C52_2 1_555 1_555
C52_2 C53_2 1_555 1_555
C53_2 H29_2 1_555 1_555
C54_2 C53_2 1_555 1_555
C55_2 C54_2 1_555 1_555
C56_2 C55_2 1_555 1_555
H31_2 C56_2 1_555 1_555
C57_2 C52_2 1_555 1_555
H32_2 C57_2 1_555 1_555
C58_2 C55_2 1_555 1_555
C68_2 C58_2 1_555 1_555
H38_2 C68_2 1_555 1_555
Fe10_2 O18_2 1_555 1_555
Fe16_2 O13_2 1_555 1_555
Fe19_2 O14_2 1_555 1_555
C39_2 C40_2 1_555 1_555
O17_2 Fe19_2 1_555 1_555
C56_2 C57_2 1_555 1_555
O49 C34_2 1_555 1_555
O52 C34_2 1_555 1_555
H9_2 C17_2 1_555 1_555
C18_2 C17_2 1_555 1_555
H10_2 C18_2 1_555 1_555
C19_2 C18_2 1_555 1_555
C22_2 C19_2 1_555 1_555
C23_2 C22_2 1_555 1_555
H13_2 C23_2 1_555 1_555
C24_2 C23_2 1_555 1_555
C25_2 C24_2 1_555 1_555
H14_2 C25_2 1_555 1_555
C26_2 C25_2 1_555 1_555
C27_2 C22_2 1_555 1_555
H15_2 C27_2 1_555 1_555
C28_2 C26_2 1_555 1_555
C29_2 C28_2 1_555 1_555
H16_2 C29_2 1_555 1_555
C30_2 C29_2 1_555 1_555
H17_2 C30_2 1_555 1_555
C31_2 C30_2 1_555 1_555
C32_2 C31_2 1_555 1_555
H18_2 C32_2 1_555 1_555
C33_2 C28_2 1_555 1_555
H19_2 C33_2 1_555 1_555
C34_2 C31_2 1_555 1_555
C35_2 C24_2 1_555 1_555
C36_2 C35_2 1_555 1_555
H20_2 C36_2 1_555 1_555
C37_2 C36_2 1_555 1_555
H21_2 C37_2 1_555 1_555
H33_2 C59_2 1_555 1_555
C26_2 C27_2 1_555 1_555
C32_2 C33_2 1_555 1_555
O19_2 C60_2 1_555 1_555
O20_2 C60_2 1_555 1_555
C60_2 C61_2 1_555 1_555
C61_2 C62_2 1_555 1_555
C62_2 H34_2 1_555 1_555
C63_2 C62_2 1_555 1_555
C64_2 C63_2 1_555 1_555
C65_2 C64_2 1_555 1_555
C66_2 C61_2 1_555 1_555
H37_2 C66_2 1_555 1_555
Fe11_2 O20_2 1_555 1_555
Fe21_2 O19_2 1_555 1_555
C64_2 C67_2 1_555 1_555
C65_2 C66_2 1_555 1_555
Fe1_2 O1_2 1_555 1_555
Fe2_2 O1_2 1_555 1_555
Fe3_2 O1_2 1_555 1_555
O2_2 Fe3_2 1_555 1_555
O3_2 Fe1_2 1_555 1_555
O4_2 Fe2_2 1_555 1_555
O5_2 Fe3_2 1_555 1_555
O6_2 C8_2 1_555 1_555
O7_2 C8_2 1_555 1_555
O8_2 Fe2_2 1_555 1_555
O9_2 Fe1_2 1_555 1_555
O10_2 Fe2_2 1_555 1_555
O15_2 Fe3_2 1_555 1_555
O16_2 Fe1_2 1_555 1_555
N1_2 N2_2 1_555 1_555
N2_2 C12_2 1_555 1_555
C1_2 O2_2 1_555 1_555
C2_2 C1_2 1_555 1_555
C3 C2_2 1_555 1_555
H1_2 C3 1_555 1_555
C4 C3 1_555 1_555
H2 C4 1_555 1_555
C5_2 N1_2 1_555 1_555
C6_2 C5_2 1_555 1_555
H3_2 C6_2 1_555 1_555
C7_2 C2_2 1_555 1_555
H4_2 C7_2 1_555 1_555
C8_2 C9_2 1_555 1_555
C9_2 C10_2 1_555 1_555
C10_2 H5_2 1_555 1_555
C11_2 C10_2 1_555 1_555
H6_2 C11_2 1_555 1_555
C12_2 C11_2 1_555 1_555
C13 C12_2 1_555 1_555
H7 C13 1_555 1_555
C14 C9_2 1_555 1_555
H8_2 C14 1_555 1_555
C15_2 O9_2 1_555 1_555
C16_2 C15_2 1_555 1_555
H11_2 C20_2 1_555 1_555
C21_2 C16_2 1_555 1_555
H12_2 C21_2 1_555 1_555
C42_2 O15_2 1_555 1_555
C43_2 C42_2 1_555 1_555
C44_2 C43_2 1_555 1_555
H24_2 C44_2 1_555 1_555
C45_2 C44_2 1_555 1_555
H25_2 C45_2 1_555 1_555
C46_2 C45_2 1_555 1_555
C47_2 C46_2 1_555 1_555
C48_2 C43_2 1_555 1_555
H27_2 C48_2 1_555 1_555
C49_2 C46_2 1_555 1_555
C50_2 C49_2 1_555 1_555
H28_2 C50_2 1_555 1_555
Fe10_2 O7_2 1_555 1_555
Fe16_2 O6_2 1_555 1_555
Fe19_2 O21_2 1_555 1_555
O21_2 Fe10_2 1_555 1_555
O22_2 Fe19_2 1_555 1_555
O23_2 Fe10_2 1_555 1_555
O24_2 Fe16_2 1_555 1_555
O25_2 Fe19_2 1_555 1_555
O26_2 C76_2 1_555 1_555
O27_2 C76_2 1_555 1_555
O28_2 Fe16_2 1_555 1_555
O29_2 Fe10_2 1_555 1_555
O30_2 Fe16_2 1_555 1_555
O50 C102_2 1_555 1_555
O53 C102_2 1_555 1_555
N3_2 N4_2 1_555 1_555
N4_2 C80_2 1_555 1_555
C69_2 O22_2 1_555 1_555
C70_2 C69_2 1_555 1_555
C71_2 C70_2 1_555 1_555
H39_2 C71_2 1_555 1_555
C72_2 C71_2 1_555 1_555
H40_2 C72_2 1_555 1_555
C73_2 N3_2 1_555 1_555
C74_2 C73_2 1_555 1_555
H41_2 C74_2 1_555 1_555
C75_2 C70_2 1_555 1_555
H42_2 C75_2 1_555 1_555
C76_2 C77_2 1_555 1_555
C77_2 C78_2 1_555 1_555
C78_2 H43_2 1_555 1_555
C79_2 C78_2 1_555 1_555
H44_2 C79_2 1_555 1_555
C80_2 C79_2 1_555 1_555
C81_2 C80_2 1_555 1_555
H45_2 C81_2 1_555 1_555
C82_2 C77_2 1_555 1_555
H46_2 C82_2 1_555 1_555
C83_2 O29_2 1_555 1_555
C84_2 C83_2 1_555 1_555
C85_2 C84_2 1_555 1_555
H47_2 C85_2 1_555 1_555
C86_2 C85_2 1_555 1_555
H48_2 C86_2 1_555 1_555
C87_2 C86_2 1_555 1_555
C88_2 C87_2 1_555 1_555
H49_2 C88_2 1_555 1_555
C89_2 C84_2 1_555 1_555
H50_2 C89_2 1_555 1_555
C90_2 C87_2 1_555 1_555
C91_2 C90_2 1_555 1_555
H51_2 C91_2 1_555 1_555
C92_2 C91_2 1_555 1_555
C93_2 C92_2 1_555 1_555
H52_2 C93_2 1_555 1_555
C94_2 C93_2 1_555 1_555
C95_2 C90_2 1_555 1_555
H53_2 C95_2 1_555 1_555
C96_2 C94_2 1_555 1_555
C97_2 C96_2 1_555 1_555
H54_2 C97_2 1_555 1_555
C98_2 C97_2 1_555 1_555
H55_2 C98_2 1_555 1_555
C99_2 C98_2 1_555 1_555
C100_2 C99_2 1_555 1_555
H56_2 C100_2 1_555 1_555
C101_2 C96_2 1_555 1_555
H57_2 C101_2 1_555 1_555
C102_2 C99_2 1_555 1_555
C103_2 C92_2 1_555 1_555
C104_2 C103_2 1_555 1_555
H58_2 C104_2 1_555 1_555
C105_2 C104_2 1_555 1_555
H59_2 C105_2 1_555 1_555
Fe11_2 O27_2 1_555 1_555
Fe8_2 O26_2 1_555 1_555
Fe21_2 O35_2 1_555 1_555
O35_2 Fe11_2 1_555 1_555
O36_2 Fe21_2 1_555 1_555
O37_2 Fe11_2 1_555 1_555
O38_2 Fe8_2 1_555 1_555
O39_2 Fe21_2 1_555 1_555
O40_2 Fe2_2 1_555 1_555
O41_2 Fe1_2 1_555 1_555
O42_2 Fe8_2 1_555 1_555
O43_2 Fe11_2 1_555 1_555
O44_2 Fe8_2 1_555 1_555
N5_2 N6_2 1_555 1_555
N6_2 C121_2 1_555 1_555
C110_2 O36_2 1_555 1_555
C111_2 C110_2 1_555 1_555
C112_2 C111_2 1_555 1_555
H62_2 C112_2 1_555 1_555
C113_2 C112_2 1_555 1_555
H63_2 C113_2 1_555 1_555
C114_2 N5_2 1_555 1_555
C115_2 C114_2 1_555 1_555
H64_2 C115_2 1_555 1_555
C116_2 C111_2 1_555 1_555
H65_2 C116_2 1_555 1_555
C117_2 O40_2 1_555 1_555
C118_2 C117_2 1_555 1_555
C119_2 C118_2 1_555 1_555
H66_2 C119_2 1_555 1_555
C120_2 C119_2 1_555 1_555
H67_2 C120_2 1_555 1_555
C121_2 C120_2 1_555 1_555
C122_2 C121_2 1_555 1_555
H68_2 C122_2 1_555 1_555
C123_2 C118_2 1_555 1_555
H69_2 C123_2 1_555 1_555
C124_2 O43_2 1_555 1_555
C125_2 C124_2 1_555 1_555
H72_2 C129_2 1_555 1_555
C130_2 C125_2 1_555 1_555
H73_2 C130_2 1_555 1_555
O49_2 Fe11_2 1_555 1_555
O50_2 Fe1_2 1_555 1_555
O51_2 Fe10_2 1_555 1_555
O52_2 Fe21_2 1_555 1_555
O53_2 Fe3_2 1_555 1_555
O54_2 Fe19_2 1_555 1_555
O56_2 Fe8_2 1_555 1_555
O57_2 Fe2_2 1_555 1_555
O59_2 Fe21_2 1_555 1_555
O60_2 Fe3_2 1_555 1_555
O4_2 C1_2 1_555 1_555
O10_2 C15_2 1_555 1_555
O16_2 C42_2 1_555 1_555
C4 C5_2 1_555 1_555
C6_2 C7_2 1_555 1_555
C13 C14 1_555 1_555
C20_2 C21_2 1_555 1_555
C47_2 C48_2 1_555 1_555
Fe16_2 O21_2 1_555 1_555
O24_2 C69_2 1_555 1_555
O30_2 C83_2 1_555 1_555
C72_2 C73_2 1_555 1_555
C74_2 C75_2 1_555 1_555
C81_2 C82_2 1_555 1_555
C88_2 C89_2 1_555 1_555
C94_2 C95_2 1_555 1_555
C100_2 C101_2 1_555 1_555
Fe8_2 O35_2 1_555 1_555
O38_2 C110_2 1_555 1_555
O41_2 C117_2 1_555 1_555
O44_2 C124_2 1_555 1_555
C113_2 C114_2 1_555 1_555
C115_2 C116_2 1_555 1_555
C122_2 C123_2 1_555 1_555
C129_2 C130_2 1_555 1_555
O39_2 H85_2 1_555 1_555
O39_2 H86_2 1_555 1_555
O25_2 H93_2 1_555 1_555
O25_2 H94_2 1_555 1_555
O5_2 H99_2 1_555 1_555
O5_2 H100_2 1_555 1_555
O51 C143_2 1_555 1_555
O54 C143_2 1_555 1_555
O57_2 C150_2 1_555 1_555
O60_2 C150_2 1_555 1_555
H70_2 C126_2 1_555 1_555
C127_2 C126_2 1_555 1_555
H71_2 C127_2 1_555 1_555
C128_2 C127_2 1_555 1_555
C131_2 C128_2 1_555 1_555
C132_2 C131_2 1_555 1_555
H74_2 C132_2 1_555 1_555
C133_2 C132_2 1_555 1_555
C134_2 C133_2 1_555 1_555
H75_2 C134_2 1_555 1_555
C135_2 C134_2 1_555 1_555
C136_2 C131_2 1_555 1_555
H76_2 C136_2 1_555 1_555
C137_2 C135_2 1_555 1_555
C138_2 C137_2 1_555 1_555
H77_2 C138_2 1_555 1_555
C139_2 C138_2 1_555 1_555
H78_2 C139_2 1_555 1_555
C140_2 C139_2 1_555 1_555
C141_2 C140_2 1_555 1_555
H79_2 C141_2 1_555 1_555
C142_2 C137_2 1_555 1_555
H80_2 C142_2 1_555 1_555
C143_2 C140_2 1_555 1_555
C144_2 C133_2 1_555 1_555
C145_2 C144_2 1_555 1_555
H81_2 C145_2 1_555 1_555
C146_2 C145_2 1_555 1_555
H82_2 C146_2 1_555 1_555
C147_2 C146_2 1_555 1_555
C148_2 C147_2 1_555 1_555
H83_2 C148_2 1_555 1_555
C149_2 C144_2 1_555 1_555
H84_2 C149_2 1_555 1_555
C150_2 C147_2 1_555 1_555
C135_2 C136_2 1_555 1_555
C141_2 C142_2 1_555 1_555
C148_2 C149_2 1_555 1_555
O56_2 C109_2 1_555 1_555
O59_2 C109_2 1_555 1_555
C107_2 C106_2 1_555 1_555
H60_2 C107_2 1_555 1_555
H61_2 C108_2 1_555 1_555
C109_2 C106_2 1_555 1_555
C107_2 C108_2 1_555 1_555
Fe12 O1_3 1_555 1_555
Fe22 O1_3 1_555 1_555
O3_3 Fe12 1_555 1_555
O5_3 Fe22 1_555 1_555
O9_3 Fe12 1_555 1_555
O49_2 C34_3 1_555 1_555
O52_2 C34_3 1_555 1_555
O13_3 C41_3 1_555 1_555
O14_3 C41_3 1_555 1_555
O15_3 Fe22 1_555 1_555
O16_3 Fe12 1_555 1_555
C15_3 O9_3 1_555 1_555
C16_3 C15_3 1_555 1_555
C17_3 C16_3 1_555 1_555
H9_3 C17_3 1_555 1_555
C18_3 C17_3 1_555 1_555
H10_3 C18_3 1_555 1_555
C19_3 C18_3 1_555 1_555
C20_3 C19_3 1_555 1_555
H11_3 C20_3 1_555 1_555
C21_3 C16_3 1_555 1_555
H12_3 C21_3 1_555 1_555
C22_3 C19_3 1_555 1_555
C23_3 C22_3 1_555 1_555
H13_3 C23_3 1_555 1_555
C24_3 C23_3 1_555 1_555
C25_3 C24_3 1_555 1_555
H14_3 C25_3 1_555 1_555
C26_3 C25_3 1_555 1_555
C27_3 C22_3 1_555 1_555
H15_3 C27_3 1_555 1_555
C28_3 C26_3 1_555 1_555
C29_3 C28_3 1_555 1_555
H16_3 C29_3 1_555 1_555
C30_3 C29_3 1_555 1_555
H17_3 C30_3 1_555 1_555
C31_3 C30_3 1_555 1_555
C32_3 C31_3 1_555 1_555
H18_3 C32_3 1_555 1_555
C33_3 C28_3 1_555 1_555
H19_3 C33_3 1_555 1_555
C34_3 C31_3 1_555 1_555
C35_3 C24_3 1_555 1_555
C36_3 C35_3 1_555 1_555
H20_3 C36_3 1_555 1_555
C37_3 C36_3 1_555 1_555
H21_3 C37_3 1_555 1_555
C38_3 C37_3 1_555 1_555
C39_3 C38_3 1_555 1_555
H22_3 C39_3 1_555 1_555
C40_3 C35_3 1_555 1_555
H23_3 C40_3 1_555 1_555
C41_3 C38_3 1_555 1_555
C42_3 O15_3 1_555 1_555
C43_3 C42_3 1_555 1_555
C44_3 C43_3 1_555 1_555
H24_3 C44_3 1_555 1_555
C45_3 C44_3 1_555 1_555
H25_3 C45_3 1_555 1_555
C46_3 C45_3 1_555 1_555
C47_3 C46_3 1_555 1_555
H26_3 C47_3 1_555 1_555
C48_3 C43_3 1_555 1_555
H27_3 C48_3 1_555 1_555
C49_3 C46_3 1_555 1_555
C50_3 C49_3 1_555 1_555
H28_3 C50_3 1_555 1_555
O17_3 C51_3 1_555 1_555
O18_3 C51_3 1_555 1_555
C51_3 C52_3 1_555 1_555
C52_3 C53_3 1_555 1_555
C53_3 H29_3 1_555 1_555
C54_3 C53_3 1_555 1_555
H30_3 C54_3 1_555 1_555
C55_3 C54_3 1_555 1_555
C56_3 C55_3 1_555 1_555
H31_3 C56_3 1_555 1_555
C57_3 C52_3 1_555 1_555
H32_3 C57_3 1_555 1_555
C58_3 C55_3 1_555 1_555
C59_3 C49_3 1_555 1_555
H33_3 C59_3 1_555 1_555
O19_3 C60_3 1_555 1_555
O20_3 C60_3 1_555 1_555
C60_3 C61_3 1_555 1_555
C61_3 C62_3 1_555 1_555
C62_3 H34_3 1_555 1_555
C63_3 C62_3 1_555 1_555
H35_3 C63_3 1_555 1_555
C64_3 C63_3 1_555 1_555
C65_3 C64_3 1_555 1_555
H36_3 C65_3 1_555 1_555
C66_3 C61_3 1_555 1_555
H37_3 C66_3 1_555 1_555
C67_3 C50_3 1_555 1_555
C68_3 C58_3 1_555 1_555
H38_3 C68_3 1_555 1_555
Fe13 O18_3 1_555 1_555
Fe14 O20_3 1_555 1_555
Fe23 O14_3 1_555 1_555
Fe24 O19_3 1_555 1_555
O60_3 Fe22 1_555 1_555
O10_3 C15_3 1_555 1_555
O16_3 C42_3 1_555 1_555
C20_3 C21_3 1_555 1_555
C26_3 C27_3 1_555 1_555
C32_3 C33_3 1_555 1_555
C39_3 C40_3 1_555 1_555
C47_3 C48_3 1_555 1_555
O17_3 Fe23 1_555 1_555
C56_3 C57_3 1_555 1_555
C58_3 C59_3 1_555 1_555
C64_3 C67_3 1_555 1_555
C65_3 C66_3 1_555 1_555
C67_3 C68_3 1_555 1_555
O5_3 H100_3 1_555 1_555
O4_3 Fe2_3 1_555 1_555
O6_3 C8_3 1_555 1_555
O7_3 C8_3 1_555 1_555
O8_3 Fe2_3 1_555 1_555
N1_3 N2_3 1_555 1_555
N2_3 C12_3 1_555 1_555
C1_3 O2_3 1_555 1_555
C2_3 C1_3 1_555 1_555
C3_2 C2_3 1_555 1_555
H1_3 C3_2 1_555 1_555
C4_2 C3_2 1_555 1_555
H2_2 C4_2 1_555 1_555
C5_3 N1_3 1_555 1_555
C6_3 C5_3 1_555 1_555
H3_3 C6_3 1_555 1_555
C7_3 C2_3 1_555 1_555
H4_3 C7_3 1_555 1_555
C8_3 C9_3 1_555 1_555
C9_3 C10_3 1_555 1_555
C10_3 H5_3 1_555 1_555
C11_3 C10_3 1_555 1_555
H6_3 C11_3 1_555 1_555
C12_3 C11_3 1_555 1_555
C13_2 C12_3 1_555 1_555
H7_2 C13_2 1_555 1_555
C14_2 C9_3 1_555 1_555
H8_3 C14_2 1_555 1_555
Fe16_3 O6_3 1_555 1_555
O24_3 Fe16_3 1_555 1_555
O26_3 C76_3 1_555 1_555
O27_3 C76_3 1_555 1_555
O28_3 Fe16_3 1_555 1_555
N3_3 N4_3 1_555 1_555
N4_3 C80_3 1_555 1_555
C69_3 O22_3 1_555 1_555
C70_3 C69_3 1_555 1_555
C71_3 C70_3 1_555 1_555
H39_3 C71_3 1_555 1_555
C72_3 C71_3 1_555 1_555
H40_3 C72_3 1_555 1_555
C73_3 N3_3 1_555 1_555
C74_3 C73_3 1_555 1_555
H41_3 C74_3 1_555 1_555
C75_3 C70_3 1_555 1_555
H42_3 C75_3 1_555 1_555
C76_3 C77_3 1_555 1_555
C77_3 C78_3 1_555 1_555
C78_3 H43_3 1_555 1_555
C79_3 C78_3 1_555 1_555
H44_3 C79_3 1_555 1_555
C80_3 C79_3 1_555 1_555
C81_3 C80_3 1_555 1_555
H45_3 C81_3 1_555 1_555
C82_3 C77_3 1_555 1_555
H46_3 C82_3 1_555 1_555
Fe14 O27_3 1_555 1_555
Fe8_3 O26_3 1_555 1_555
Fe24 O35_3 1_555 1_555
O35_3 Fe14 1_555 1_555
O36_3 Fe24 1_555 1_555
O37_3 Fe14 1_555 1_555
O38_3 Fe8_3 1_555 1_555
O39_3 Fe24 1_555 1_555
O40_3 Fe2_3 1_555 1_555
O42_3 Fe8_3 1_555 1_555
O43_3 Fe14 1_555 1_555
O44_3 Fe8_3 1_555 1_555
O51_2 C143_3 1_555 1_555
O54_2 C143_3 1_555 1_555
O57_3 C150_3 1_555 1_555
O60_3 C150_3 1_555 1_555
N5_3 N6_3 1_555 1_555
N6_3 C121_3 1_555 1_555
C110_3 O36_3 1_555 1_555
C111_3 C110_3 1_555 1_555
C112_3 C111_3 1_555 1_555
H62_3 C112_3 1_555 1_555
C113_3 C112_3 1_555 1_555
H63_3 C113_3 1_555 1_555
C114_3 N5_3 1_555 1_555
C115_3 C114_3 1_555 1_555
H64_3 C115_3 1_555 1_555
C116_3 C111_3 1_555 1_555
H65_3 C116_3 1_555 1_555
C117_3 O40_3 1_555 1_555
C118_3 C117_3 1_555 1_555
C119_3 C118_3 1_555 1_555
H66_3 C119_3 1_555 1_555
C120_3 C119_3 1_555 1_555
H67_3 C120_3 1_555 1_555
C121_3 C120_3 1_555 1_555
C122_3 C121_3 1_555 1_555
H68_3 C122_3 1_555 1_555
C123_3 C118_3 1_555 1_555
H69_3 C123_3 1_555 1_555
C124_3 O43_3 1_555 1_555
C125_3 C124_3 1_555 1_555
C126_3 C125_3 1_555 1_555
H70_3 C126_3 1_555 1_555
C127_3 C126_3 1_555 1_555
H71_3 C127_3 1_555 1_555
C128_3 C127_3 1_555 1_555
C129_3 C128_3 1_555 1_555
H72_3 C129_3 1_555 1_555
C130_3 C125_3 1_555 1_555
H73_3 C130_3 1_555 1_555
C131_3 C128_3 1_555 1_555
C132_3 C131_3 1_555 1_555
H74_3 C132_3 1_555 1_555
C133_3 C132_3 1_555 1_555
C134_3 C133_3 1_555 1_555
H75_3 C134_3 1_555 1_555
C135_3 C134_3 1_555 1_555
C136_3 C131_3 1_555 1_555
H76_3 C136_3 1_555 1_555
C137_3 C135_3 1_555 1_555
C138_3 C137_3 1_555 1_555
H77_3 C138_3 1_555 1_555
C139_3 C138_3 1_555 1_555
H78_3 C139_3 1_555 1_555
C140_3 C139_3 1_555 1_555
C141_3 C140_3 1_555 1_555
H79_3 C141_3 1_555 1_555
C142_3 C137_3 1_555 1_555
H80_3 C142_3 1_555 1_555
C143_3 C140_3 1_555 1_555
C144_3 C133_3 1_555 1_555
C145_3 C144_3 1_555 1_555
H81_3 C145_3 1_555 1_555
C146_3 C145_3 1_555 1_555
H82_3 C146_3 1_555 1_555
C147_3 C146_3 1_555 1_555
C148_3 C147_3 1_555 1_555
H83_3 C148_3 1_555 1_555
C149_3 C144_3 1_555 1_555
H84_3 C149_3 1_555 1_555
C150_3 C147_3 1_555 1_555
O56_3 Fe8_3 1_555 1_555
O59_3 Fe24 1_555 1_555
O4_3 C1_3 1_555 1_555
C4_2 C5_3 1_555 1_555
C6_3 C7_3 1_555 1_555
C13_2 C14_2 1_555 1_555
O24_3 C69_3 1_555 1_555
C72_3 C73_3 1_555 1_555
C74_3 C75_3 1_555 1_555
C81_3 C82_3 1_555 1_555
Fe8_3 O35_3 1_555 1_555
O38_3 C110_3 1_555 1_555
O41_3 C117_3 1_555 1_555
O44_3 C124_3 1_555 1_555
C113_3 C114_3 1_555 1_555
C115_3 C116_3 1_555 1_555
C122_3 C123_3 1_555 1_555
C129_3 C130_3 1_555 1_555
C135_3 C136_3 1_555 1_555
C141_3 C142_3 1_555 1_555
C148_3 C149_3 1_555 1_555
O39_3 H85_3 1_555 1_555
O39_3 H86_3 1_555 1_555
Fe23 O21_3 1_555 1_555
O21_3 Fe13 1_555 1_555
O23_3 Fe13 1_555 1_555
O25_3 Fe23 1_555 1_555
O29_3 Fe13 1_555 1_555
O50_2 C102_3 1_555 1_555
O53_2 C102_3 1_555 1_555
O56_3 C109_3 1_555 1_555
O59_3 C109_3 1_555 1_555
C83_3 O29_3 1_555 1_555
C84_3 C83_3 1_555 1_555
C85_3 C84_3 1_555 1_555
H47_3 C85_3 1_555 1_555
C86_3 C85_3 1_555 1_555
H48_3 C86_3 1_555 1_555
C87_3 C86_3 1_555 1_555
C88_3 C87_3 1_555 1_555
H49_3 C88_3 1_555 1_555
C89_3 C84_3 1_555 1_555
H50_3 C89_3 1_555 1_555
C90_3 C87_3 1_555 1_555
C91_3 C90_3 1_555 1_555
H51_3 C91_3 1_555 1_555
C92_3 C91_3 1_555 1_555
C93_3 C92_3 1_555 1_555
H52_3 C93_3 1_555 1_555
C94_3 C93_3 1_555 1_555
C95_3 C90_3 1_555 1_555
H53_3 C95_3 1_555 1_555
C96_3 C94_3 1_555 1_555
C97_3 C96_3 1_555 1_555
H54_3 C97_3 1_555 1_555
C98_3 C97_3 1_555 1_555
H55_3 C98_3 1_555 1_555
C99_3 C98_3 1_555 1_555
C100_3 C99_3 1_555 1_555
H56_3 C100_3 1_555 1_555
C101_3 C96_3 1_555 1_555
H57_3 C101_3 1_555 1_555
C102_3 C99_3 1_555 1_555
C103_3 C92_3 1_555 1_555
C104_3 C103_3 1_555 1_555
H58_3 C104_3 1_555 1_555
C105_3 C104_3 1_555 1_555
H59_3 C105_3 1_555 1_555
C106_3 C105_3 1_555 1_555
C107_3 C106_3 1_555 1_555
H60_3 C107_3 1_555 1_555
C108_3 C103_3 1_555 1_555
H61_3 C108_3 1_555 1_555
C109_3 C106_3 1_555 1_555
O30_3 C83_3 1_555 1_555
C88_3 C89_3 1_555 1_555
C94_3 C95_3 1_555 1_555
C100_3 C101_3 1_555 1_555
C107_3 C108_3 1_555 1_555
O25_3 H94_3 1_555 1_555
C4_3 C3_3 1_555 1_555
H2_3 C4_3 1_555 1_555
H7_3 C13_3 1_555 1_555
C13_3 C14_3 1_555 1_555

#END
