
###############################################################################
#
# This file contains modified crystal structure data generated from the
# MOF subset of the Cambridge Structural Database (CSD) v543 
# hosted by the Cambridge Crystallographic Data Centre (CCDC).
#
# This work is licensed under the Creative Commons
# Attribution-NonCommercial-ShareAlike 4.0 International License.
# To view a copy of this license, visit
# http://creativecommons.org/licenses/by-nc-sa/4.0/
# or send a letter to
# Creative Commons, PO Box 1866, Mountain View, CA 94042, USA.
#
# CIF created using the CSD Python API on 29 September 2022
# The structure has been converted into the P1 space group
# The structure has a 3D framework
# The original CSD entry TOWLOI is in the cubic crystal system
# The framework has been calculated to contain at least 10.0% void space
# The void calculation uses a probe of radius 1.32A, grid spacing 0.4
# H atom positions have been added when not included in the experimental data
# Generated hydrogen atom positions removed from atoms on special positions
#
###############################################################################

data_TOWLOI
_chemical_formula_moiety         '(C192 H216 Fe24 O128)n'
_symmetry_cell_setting           triclinic
_symmetry_space_group_name_H-M   'P 1'
_symmetry_Int_Tables_number      1
_space_group_name_Hall           'P 1'
loop_
_symmetry_equiv_pos_site_id
_symmetry_equiv_pos_as_xyz
1 x,y,z
_cell_length_a                   19.153(3)
_cell_length_b                   19.153(3)
_cell_length_c                   19.153(3)
_cell_angle_alpha                90
_cell_angle_beta                 90
_cell_angle_gamma                90
_cell_volume                     7026.04
loop_
_atom_site_label
_atom_site_type_symbol
_atom_site_fract_x
_atom_site_fract_y
_atom_site_fract_z
O4 O 0.2244(6) 0.3971(8) 0.2779(8)
C1 C 0.0117(11) 0.3245(14) 0.1372(10)
C2 C 0.2492(11) 0.3830(14) 0.2178(10)
O6 O 0.3152(6) 0.3863(8) 0.2050(8)
C3 C 0.1321(5) 0.3556(3) 0.1723(5)
H2 H 0.1130 0.3796 0.2113
C4 C 0.2040(5) 0.3525(6) 0.1632(5)
C5 C 0.0880(4) 0.3235(6) 0.1244(6)
C6 C 0.1156(6) 0.2867(10) 0.0650(10)
H3 H 0.0859 0.2647 0.0319
C7 C 0.1878(6) 0.2852(7) 0.0583(5)
H4 H 0.2078 0.2614 0.0196
C8 C 0.2319(4) 0.3173(8) 0.1062(6)
H5 H 0.2811 0.3152 0.1000
Fe6 Fe 0.26520(14) 0.39868(12) 0.37255(16)
Fe8 Fe 0.39868(12) 0.37255(16) 0.26520(14)
Fe1 Fe 0.89868(12) 0.37255(16) 0.23480(14)
O1 O 0.8458(6) 0.3458(6) 0.1542(6)
O2 O 0.9552(6) 0.4009(9) 0.3208(7)
O3 O 0.9906(5) 0.3553(5) 0.1909(5)
O5 O 0.9742(7) 0.2915(9) 0.0922(6)
Fe2 Fe 0.76520(14) 0.39868(12) 0.12745(16)
O7 O 0.6792(7) 0.4552(6) 0.0991(9)
O8 O 0.8091(5) 0.4906(5) 0.1447(5)
O9 O 0.7221(8) 0.7244(6) 0.1029(8)
O10 O 0.9078(6) 0.4742(7) 0.2085(9)
C9 C 0.8628(10) 0.5117(11) 0.1755(14)
C10 C 0.7822(10) 0.7492(11) 0.1170(14)
O11 O 0.7950(8) 0.8152(6) 0.1137(8)
C11 C 0.8277(5) 0.6321(5) 0.1444(3)
H6 H 0.7887 0.6130 0.1204
C12 C 0.8368(5) 0.7040(5) 0.1475(6)
C13 C 0.8756(6) 0.5880(4) 0.1765(6)
C14 C 0.9350(10) 0.6156(6) 0.2133(10)
H7 H 0.9681 0.5859 0.2353
C15 C 0.9417(5) 0.6878(6) 0.2148(7)
H8 H 0.9804 0.7078 0.2386
C16 C 0.8938(6) 0.7319(4) 0.1827(8)
H9 H 0.9000 0.7811 0.1848
Fe3 Fe 0.87255(16) 0.26520(14) 0.10132(12)
O12 O 0.9009(9) 0.1792(7) 0.0448(6)
O13 O 0.8553(5) 0.3091(5) 0.0094(5)
O15 O 0.7915(9) 0.4078(6) 0.0258(7)
Fe4 Fe 0.62745(16) 0.76520(14) 0.10132(12)
Fe7 Fe 0.73480(14) 0.89868(12) 0.12745(16)
O17 O 0.8971(8) 0.2779(8) 0.2756(6)
O18 O 0.7779(8) 0.2244(6) 0.1029(8)
O19 O 0.7244(6) 0.3971(8) 0.2221(8)
O20 O 0.8863(8) 0.2050(8) 0.1848(6)
O21 O 0.7050(8) 0.3152(6) 0.1137(8)
O22 O 0.8152(6) 0.3863(8) 0.2950(8)
O14 O 0.8971(8) 0.2221(8) 0.7756(6)
C17 C 0.8245(14) 0.3628(10) 0.9883(11)
C18 C 0.8830(14) 0.2822(10) 0.7508(11)
O16 O 0.8863(8) 0.2950(8) 0.6848(6)
C19 C 0.8556(3) 0.3277(5) 0.8679(5)
H10 H 0.8796 0.2887 0.8870
C20 C 0.8525(6) 0.3368(5) 0.7960(5)
C21 C 0.8235(6) 0.3756(6) 0.9120(4)
C22 C 0.7867(10) 0.4350(10) 0.8844(6)
H11 H 0.7647 0.4681 0.9141
C23 C 0.7852(7) 0.4417(5) 0.8122(6)
H12 H 0.7614 0.4804 0.7922
C24 C 0.8173(8) 0.3938(6) 0.7681(4)
H13 H 0.8152 0.4000 0.7189
Fe5 Fe 0.87255(16) 0.23480(14) 0.60132(12)
Fe9 Fe 0.89868(12) 0.12745(16) 0.73480(14)
O4_2 O 0.2779(8) 0.2244(6) 0.3971(8)
C1_2 C 0.1372(10) 0.0117(11) 0.3245(14)
C2_2 C 0.2178(10) 0.2492(11) 0.3830(14)
O6_2 O 0.2050(8) 0.3152(6) 0.3863(8)
C3_2 C 0.1723(5) 0.1321(5) 0.3556(3)
H2_2 H 0.2113 0.1130 0.3796
C4_2 C 0.1632(5) 0.2040(5) 0.3525(6)
C5_2 C 0.1244(6) 0.0880(4) 0.3235(6)
C6_2 C 0.0650(10) 0.1156(6) 0.2867(10)
H3_2 H 0.0319 0.0859 0.2647
C7_2 C 0.0583(5) 0.1878(6) 0.2852(7)
H4_2 H 0.0196 0.2078 0.2614
C8_2 C 0.1062(6) 0.2319(4) 0.3173(8)
H5_2 H 0.1000 0.2811 0.3152
Fe6_2 Fe 0.37255(16) 0.26520(14) 0.39868(12)
Fe1_2 Fe 0.23480(14) 0.89868(12) 0.37255(16)
O1_2 O 0.1542(6) 0.8458(6) 0.3458(6)
O2_2 O 0.3208(7) 0.9552(6) 0.4009(9)
O3_2 O 0.1909(5) 0.9906(5) 0.3553(5)
O5_2 O 0.0922(6) 0.9742(7) 0.2915(9)
Fe2_2 Fe 0.12745(16) 0.76520(14) 0.39868(12)
O7_2 O 0.0991(9) 0.6792(7) 0.4552(6)
O8_2 O 0.1447(5) 0.8091(5) 0.4906(5)
O9_2 O 0.1029(8) 0.7221(8) 0.7244(6)
O10_2 O 0.2085(9) 0.9078(6) 0.4742(7)
C9_2 C 0.1755(14) 0.8628(10) 0.5117(11)
C10_2 C 0.1170(14) 0.7822(10) 0.7492(11)
O11_2 O 0.1137(8) 0.7950(8) 0.8152(6)
C11_2 C 0.1444(3) 0.8277(5) 0.6321(5)
H6_2 H 0.1204 0.7887 0.6130
C12_2 C 0.1475(6) 0.8368(5) 0.7040(5)
C13_2 C 0.1765(6) 0.8756(6) 0.5880(4)
C14_2 C 0.2133(10) 0.9350(10) 0.6156(6)
H7_2 H 0.2353 0.9681 0.5859
C15_2 C 0.2148(7) 0.9417(5) 0.6878(6)
H8_2 H 0.2386 0.9804 0.7078
C16_2 C 0.1827(8) 0.8938(6) 0.7319(4)
H9_2 H 0.1848 0.9000 0.7811
Fe3_2 Fe 0.10132(12) 0.87255(16) 0.26520(14)
O12_2 O 0.0448(6) 0.9009(9) 0.1792(7)
O13_2 O 0.0094(5) 0.8553(5) 0.3091(5)
O15_2 O 0.0258(7) 0.7915(9) 0.4078(6)
Fe4_2 Fe 0.10132(12) 0.62745(16) 0.76520(14)
Fe7_2 Fe 0.12745(16) 0.73480(14) 0.89868(12)
O17_2 O 0.2756(6) 0.8971(8) 0.2779(8)
O18_2 O 0.1029(8) 0.7779(8) 0.2244(6)
O19_2 O 0.2221(8) 0.7244(6) 0.3971(8)
O20_2 O 0.1848(6) 0.8863(8) 0.2050(8)
O21_2 O 0.1137(8) 0.7050(8) 0.3152(6)
O22_2 O 0.2950(8) 0.8152(6) 0.3863(8)
O14_2 O 0.7756(6) 0.8971(8) 0.2221(8)
C17_2 C 0.9883(11) 0.8245(14) 0.3628(10)
C18_2 C 0.7508(11) 0.8830(14) 0.2822(10)
O16_2 O 0.6848(6) 0.8863(8) 0.2950(8)
C19_2 C 0.8679(5) 0.8556(3) 0.3277(5)
H10_2 H 0.8870 0.8796 0.2887
C20_2 C 0.7960(5) 0.8525(6) 0.3368(5)
C21_2 C 0.9120(4) 0.8235(6) 0.3756(6)
C22_2 C 0.8844(6) 0.7867(10) 0.4350(10)
H11_2 H 0.9141 0.7647 0.4681
C23_2 C 0.8122(6) 0.7852(7) 0.4417(5)
H12_2 H 0.7922 0.7614 0.4804
C24_2 C 0.7681(4) 0.8173(8) 0.3938(6)
H13_2 H 0.7189 0.8152 0.4000
Fe5_2 Fe 0.60132(12) 0.87255(16) 0.23480(14)
O4_3 O 0.3971(8) 0.2779(8) 0.2244(6)
C1_3 C 0.3245(14) 0.1372(10) 0.0117(11)
C2_3 C 0.3830(14) 0.2178(10) 0.2492(11)
O6_3 O 0.3863(8) 0.2050(8) 0.3152(6)
C3_3 C 0.3556(3) 0.1723(5) 0.1321(5)
H2_3 H 0.3796 0.2113 0.1130
C4_3 C 0.3525(6) 0.1632(5) 0.2040(5)
C5_3 C 0.3235(6) 0.1244(6) 0.0880(4)
C6_3 C 0.2867(10) 0.0650(10) 0.1156(6)
H3_3 H 0.2647 0.0319 0.0859
C7_3 C 0.2852(7) 0.0583(5) 0.1878(6)
H4_3 H 0.2614 0.0196 0.2078
C8_3 C 0.3173(8) 0.1062(6) 0.2319(4)
H5_3 H 0.3152 0.1000 0.2811
Fe1_3 Fe 0.37255(16) 0.23480(14) 0.89868(12)
O1_3 O 0.3458(6) 0.1542(6) 0.8458(6)
O2_3 O 0.4009(9) 0.3208(7) 0.9552(6)
O3_3 O 0.3553(5) 0.1909(5) 0.9906(5)
O5_3 O 0.2915(9) 0.0922(6) 0.9742(7)
Fe2_3 Fe 0.39868(12) 0.12745(16) 0.76520(14)
O7_3 O 0.4552(6) 0.0991(9) 0.6792(7)
O8_3 O 0.4906(5) 0.1447(5) 0.8091(5)
O9_3 O 0.7244(6) 0.1029(8) 0.7221(8)
O10_3 O 0.4742(7) 0.2085(9) 0.9078(6)
C9_3 C 0.5117(11) 0.1755(14) 0.8628(10)
C10_3 C 0.7492(11) 0.1170(14) 0.7822(10)
O11_3 O 0.8152(6) 0.1137(8) 0.7950(8)
C11_3 C 0.6321(5) 0.1444(3) 0.8277(5)
H6_3 H 0.6130 0.1204 0.7887
C12_3 C 0.7040(5) 0.1475(6) 0.8368(5)
C13_3 C 0.5880(4) 0.1765(6) 0.8756(6)
C14_3 C 0.6156(6) 0.2133(10) 0.9350(10)
H7_3 H 0.5859 0.2353 0.9681
C15_3 C 0.6878(6) 0.2148(7) 0.9417(5)
H8_3 H 0.7078 0.2386 0.9804
C16_3 C 0.7319(4) 0.1827(8) 0.8938(6)
H9_3 H 0.7811 0.1848 0.9000
Fe3_3 Fe 0.26520(14) 0.10132(12) 0.87255(16)
O12_3 O 0.1792(7) 0.0448(6) 0.9009(9)
O13_3 O 0.3091(5) 0.0094(5) 0.8553(5)
O15_3 O 0.4078(6) 0.0258(7) 0.7915(9)
Fe4_3 Fe 0.76520(14) 0.10132(12) 0.62745(16)
O17_3 O 0.2779(8) 0.2756(6) 0.8971(8)
O18_3 O 0.2244(6) 0.1029(8) 0.7779(8)
O19_3 O 0.3971(8) 0.2221(8) 0.7244(6)
O20_3 O 0.2050(8) 0.1848(6) 0.8863(8)
O21_3 O 0.3152(6) 0.1137(8) 0.7050(8)
O22_3 O 0.3863(8) 0.2950(8) 0.8152(6)
O14_3 O 0.2221(8) 0.7756(6) 0.8971(8)
C17_3 C 0.3628(10) 0.9883(11) 0.8245(14)
C18_3 C 0.2822(10) 0.7508(11) 0.8830(14)
O16_3 O 0.2950(8) 0.6848(6) 0.8863(8)
C19_3 C 0.3277(5) 0.8679(5) 0.8556(3)
H10_3 H 0.2887 0.8870 0.8796
C20_3 C 0.3368(5) 0.7960(5) 0.8525(6)
C21_3 C 0.3756(6) 0.9120(4) 0.8235(6)
C22_3 C 0.4350(10) 0.8844(6) 0.7867(10)
H11_3 H 0.4681 0.9141 0.7647
C23_3 C 0.4417(5) 0.8122(6) 0.7852(7)
H12_3 H 0.4804 0.7922 0.7614
C24_3 C 0.3938(6) 0.7681(4) 0.8173(8)
H13_3 H 0.4000 0.7189 0.8152
Fe5_3 Fe 0.23480(14) 0.60132(12) 0.87255(16)
Fe1_4 Fe 0.73480(14) 0.60132(12) 0.62745(16)
O1_4 O 0.6542(6) 0.6542(6) 0.6542(6)
O2_4 O 0.8208(7) 0.5448(6) 0.5991(9)
O3_4 O 0.6909(5) 0.5094(5) 0.6447(5)
O4_4 O 0.7779(8) 0.2756(6) 0.6029(8)
O5_4 O 0.5922(6) 0.5258(7) 0.7085(9)
C1_4 C 0.6372(10) 0.4883(11) 0.6755(14)
C2_4 C 0.7178(10) 0.2508(11) 0.6170(14)
O6_4 O 0.7050(8) 0.1848(6) 0.6137(8)
C3_4 C 0.6723(5) 0.3679(5) 0.6444(3)
H2_4 H 0.7113 0.3870 0.6204
C4_4 C 0.6632(5) 0.2960(5) 0.6475(6)
C5_4 C 0.6244(6) 0.4120(4) 0.6765(6)
C6_4 C 0.5650(10) 0.3844(6) 0.7133(10)
H3_4 H 0.5319 0.4141 0.7353
C7_4 C 0.5583(5) 0.3122(6) 0.7148(7)
H4_4 H 0.5196 0.2922 0.7386
C8_4 C 0.6062(6) 0.2681(4) 0.6827(8)
H5_4 H 0.6000 0.2189 0.6848
Fe2_4 Fe 0.62745(16) 0.73480(14) 0.60132(12)
O7_4 O 0.5991(9) 0.8208(7) 0.5448(6)
O8_4 O 0.6447(5) 0.6909(5) 0.5094(5)
O9_4 O 0.6029(8) 0.7779(8) 0.2756(6)
O10_4 O 0.7085(9) 0.5922(6) 0.5258(7)
C9_4 C 0.6755(14) 0.6372(10) 0.4883(11)
C10_4 C 0.6170(14) 0.7178(10) 0.2508(11)
O11_4 O 0.6137(8) 0.7050(8) 0.1848(6)
C11_4 C 0.6444(3) 0.6723(5) 0.3679(5)
H6_4 H 0.6204 0.7113 0.3870
C12_4 C 0.6475(6) 0.6632(5) 0.2960(5)
C13_4 C 0.6765(6) 0.6244(6) 0.4120(4)
C14_4 C 0.7133(10) 0.5650(10) 0.3844(6)
H7_4 H 0.7353 0.5319 0.4141
C15_4 C 0.7148(7) 0.5583(5) 0.3122(6)
H8_4 H 0.7386 0.5196 0.2922
C16_4 C 0.6827(8) 0.6062(6) 0.2681(4)
H9_4 H 0.6848 0.6000 0.2189
Fe3_4 Fe 0.60132(12) 0.62745(16) 0.73480(14)
O12_4 O 0.5448(6) 0.5991(9) 0.8208(7)
O13_4 O 0.5094(5) 0.6447(5) 0.6909(5)
O14_4 O 0.2756(6) 0.6029(8) 0.7779(8)
O15_4 O 0.5258(7) 0.7085(9) 0.5922(6)
C17_4 C 0.4883(11) 0.6755(14) 0.6372(10)
C18_4 C 0.2508(11) 0.6170(14) 0.7178(10)
O16_4 O 0.1848(6) 0.6137(8) 0.7050(8)
C19_4 C 0.3679(5) 0.6444(3) 0.6723(5)
H10_4 H 0.3870 0.6204 0.7113
C20_4 C 0.2960(5) 0.6475(6) 0.6632(5)
C21_4 C 0.4120(4) 0.6765(6) 0.6244(6)
C22_4 C 0.3844(6) 0.7133(10) 0.5650(10)
H11_4 H 0.4141 0.7353 0.5319
C23_4 C 0.3122(6) 0.7148(7) 0.5583(5)
H12_4 H 0.2922 0.7386 0.5196
C24_4 C 0.2681(4) 0.6827(8) 0.6062(6)
H13_4 H 0.2189 0.6848 0.6000
O17_4 O 0.7756(6) 0.6029(8) 0.7221(8)
O18_4 O 0.6029(8) 0.7221(8) 0.7756(6)
O19_4 O 0.7221(8) 0.7756(6) 0.6029(8)
O20_4 O 0.6848(6) 0.6137(8) 0.7950(8)
O21_4 O 0.6137(8) 0.7950(8) 0.6848(6)
O22_4 O 0.7950(8) 0.6848(6) 0.6137(8)
C17_5 C 0.1755(14) 0.6372(10) 0.0117(11)
C18_5 C 0.1170(14) 0.7178(10) 0.2492(11)
C19_5 C 0.1444(3) 0.6723(5) 0.1321(5)
H10_5 H 0.1204 0.7113 0.1130
C20_5 C 0.1475(6) 0.6632(5) 0.2040(5)
C21_5 C 0.1765(6) 0.6244(6) 0.0880(4)
C22_5 C 0.2133(10) 0.5650(10) 0.1156(6)
H11_5 H 0.2353 0.5319 0.0859
C23_5 C 0.2148(7) 0.5583(5) 0.1878(6)
H12_5 H 0.2386 0.5196 0.2078
C24_5 C 0.1827(8) 0.6062(6) 0.2319(4)
H13_5 H 0.1848 0.6000 0.2811
O1_5 O 0.1542(6) 0.6542(6) 0.8458(6)
O2_5 O 0.0448(6) 0.5991(9) 0.6792(7)
O3_5 O 0.0094(5) 0.6447(5) 0.8091(5)
O5_5 O 0.0258(7) 0.7085(9) 0.9078(6)
O7_5 O 0.3208(7) 0.5448(6) 0.9009(9)
O8_5 O 0.1909(5) 0.5094(5) 0.8553(5)
O10_5 O 0.0922(6) 0.5258(7) 0.7915(9)
C9_5 C 0.1372(10) 0.4883(11) 0.8245(14)
C10_5 C 0.2178(10) 0.2508(11) 0.8830(14)
C11_5 C 0.1723(5) 0.3679(5) 0.8556(3)
H6_5 H 0.2113 0.3870 0.8796
C12_5 C 0.1632(5) 0.2960(5) 0.8525(6)
C13_5 C 0.1244(6) 0.4120(4) 0.8235(6)
C14_5 C 0.0650(10) 0.3844(6) 0.7867(10)
H7_5 H 0.0319 0.4141 0.7647
C15_5 C 0.0583(5) 0.3122(6) 0.7852(7)
H8_5 H 0.0196 0.2922 0.7614
C16_5 C 0.1062(6) 0.2681(4) 0.8173(8)
H9_5 H 0.1000 0.2189 0.8152
O12_5 O 0.0991(9) 0.8208(7) 0.9552(6)
O13_5 O 0.1447(5) 0.6909(5) 0.9906(5)
O15_5 O 0.2085(9) 0.5922(6) 0.9742(7)
C1_5 C 0.9883(11) 0.6755(14) 0.8628(10)
C2_5 C 0.7508(11) 0.6170(14) 0.7822(10)
C3_5 C 0.8679(5) 0.6444(3) 0.8277(5)
H2_5 H 0.8870 0.6204 0.7887
C4_5 C 0.7960(5) 0.6475(6) 0.8368(5)
C5_5 C 0.9120(4) 0.6765(6) 0.8756(6)
C6_5 C 0.8844(6) 0.7133(10) 0.9350(10)
H3_5 H 0.9141 0.7353 0.9681
C7_5 C 0.8122(6) 0.7148(7) 0.9417(5)
H4_5 H 0.7922 0.7386 0.9804
C8_5 C 0.7681(4) 0.6827(8) 0.8938(6)
H5_5 H 0.7189 0.6848 0.9000
C17_6 C 0.0117(11) 0.1755(14) 0.6372(10)
C18_6 C 0.2492(11) 0.1170(14) 0.7178(10)
C19_6 C 0.1321(5) 0.1444(3) 0.6723(5)
H10_6 H 0.1130 0.1204 0.7113
C20_6 C 0.2040(5) 0.1475(6) 0.6632(5)
C21_6 C 0.0880(4) 0.1765(6) 0.6244(6)
C22_6 C 0.1156(6) 0.2133(10) 0.5650(10)
H11_6 H 0.0859 0.2353 0.5319
C23_6 C 0.1878(6) 0.2148(7) 0.5583(5)
H12_6 H 0.2078 0.2386 0.5196
C24_6 C 0.2319(4) 0.1827(8) 0.6062(6)
H13_6 H 0.2811 0.1848 0.6000
O1_6 O 0.8458(6) 0.1542(6) 0.6542(6)
O2_6 O 0.6792(7) 0.0448(6) 0.5991(9)
O3_6 O 0.8091(5) 0.0094(5) 0.6447(5)
O5_6 O 0.9078(6) 0.0258(7) 0.7085(9)
O7_6 O 0.9009(9) 0.3208(7) 0.5448(6)
O8_6 O 0.8553(5) 0.1909(5) 0.5094(5)
O10_6 O 0.7915(9) 0.0922(6) 0.5258(7)
C9_6 C 0.8245(14) 0.1372(10) 0.4883(11)
C10_6 C 0.8830(14) 0.2178(10) 0.2508(11)
C11_6 C 0.8556(3) 0.1723(5) 0.3679(5)
H6_6 H 0.8796 0.2113 0.3870
C12_6 C 0.8525(6) 0.1632(5) 0.2960(5)
C13_6 C 0.8235(6) 0.1244(6) 0.4120(4)
C14_6 C 0.7867(10) 0.0650(10) 0.3844(6)
H7_6 H 0.7647 0.0319 0.4141
C15_6 C 0.7852(7) 0.0583(5) 0.3122(6)
H8_6 H 0.7614 0.0196 0.2922
C16_6 C 0.8173(8) 0.1062(6) 0.2681(4)
H9_6 H 0.8152 0.1000 0.2189
O12_6 O 0.9552(6) 0.0991(9) 0.8208(7)
O13_6 O 0.9906(5) 0.1447(5) 0.6909(5)
O15_6 O 0.9742(7) 0.2085(9) 0.5922(6)
C1_6 C 0.8628(10) 0.9883(11) 0.6755(14)
C2_6 C 0.7822(10) 0.7508(11) 0.6170(14)
C3_6 C 0.8277(5) 0.8679(5) 0.6444(3)
H2_6 H 0.7887 0.8870 0.6204
C4_6 C 0.8368(5) 0.7960(5) 0.6475(6)
C5_6 C 0.8756(6) 0.9120(4) 0.6765(6)
C6_6 C 0.9350(10) 0.8844(6) 0.7133(10)
H3_6 H 0.9681 0.9141 0.7353
C7_6 C 0.9417(5) 0.8122(6) 0.7148(7)
H4_6 H 0.9804 0.7922 0.7386
C8_6 C 0.8938(6) 0.7681(4) 0.6827(8)
H5_6 H 0.9000 0.7189 0.6848
C17_7 C 0.6372(10) 0.0117(11) 0.1755(14)
C18_7 C 0.7178(10) 0.2492(11) 0.1170(14)
C19_7 C 0.6723(5) 0.1321(5) 0.1444(3)
H10_7 H 0.7113 0.1130 0.1204
C20_7 C 0.6632(5) 0.2040(5) 0.1475(6)
C21_7 C 0.6244(6) 0.0880(4) 0.1765(6)
C22_7 C 0.5650(10) 0.1156(6) 0.2133(10)
H11_7 H 0.5319 0.0859 0.2353
C23_7 C 0.5583(5) 0.1878(6) 0.2148(7)
H12_7 H 0.5196 0.2078 0.2386
C24_7 C 0.6062(6) 0.2319(4) 0.1827(8)
H13_7 H 0.6000 0.2811 0.1848
O1_7 O 0.6542(6) 0.8458(6) 0.1542(6)
O2_7 O 0.5991(9) 0.6792(7) 0.0448(6)
O3_7 O 0.6447(5) 0.8091(5) 0.0094(5)
O5_7 O 0.7085(9) 0.9078(6) 0.0258(7)
O7_7 O 0.5448(6) 0.9009(9) 0.3208(7)
O8_7 O 0.5094(5) 0.8553(5) 0.1909(5)
O10_7 O 0.5258(7) 0.7915(9) 0.0922(6)
C9_7 C 0.4883(11) 0.8245(14) 0.1372(10)
C10_7 C 0.2508(11) 0.8830(14) 0.2178(10)
C11_7 C 0.3679(5) 0.8556(3) 0.1723(5)
H6_7 H 0.3870 0.8796 0.2113
C12_7 C 0.2960(5) 0.8525(6) 0.1632(5)
C13_7 C 0.4120(4) 0.8235(6) 0.1244(6)
C14_7 C 0.3844(6) 0.7867(10) 0.0650(10)
H7_7 H 0.4141 0.7647 0.0319
C15_7 C 0.3122(6) 0.7852(7) 0.0583(5)
H8_7 H 0.2922 0.7614 0.0196
C16_7 C 0.2681(4) 0.8173(8) 0.1062(6)
H9_7 H 0.2189 0.8152 0.1000
O12_7 O 0.8208(7) 0.9552(6) 0.0991(9)
O13_7 O 0.6909(5) 0.9906(5) 0.1447(5)
O15_7 O 0.5922(6) 0.9742(7) 0.2085(9)
C1_7 C 0.6755(14) 0.8628(10) 0.9883(11)
C2_7 C 0.6170(14) 0.7822(10) 0.7508(11)
C3_7 C 0.6444(3) 0.8277(5) 0.8679(5)
H2_7 H 0.6204 0.7887 0.8870
C4_7 C 0.6475(6) 0.8368(5) 0.7960(5)
C5_7 C 0.6765(6) 0.8756(6) 0.9120(4)
C6_7 C 0.7133(10) 0.9350(10) 0.8844(6)
H3_7 H 0.7353 0.9681 0.9141
C7_7 C 0.7148(7) 0.9417(5) 0.8122(6)
H4_7 H 0.7386 0.9804 0.7922
C8_7 C 0.6827(8) 0.8938(6) 0.7681(4)
H5_7 H 0.6848 0.9000 0.7189
O1_8 O 0.3458(6) 0.3458(6) 0.3458(6)
O2_8 O 0.1792(7) 0.4552(6) 0.4009(9)
O3_8 O 0.3091(5) 0.4906(5) 0.3553(5)
O5_8 O 0.4078(6) 0.4742(7) 0.2915(9)
C1_8 C 0.3628(10) 0.5117(11) 0.3245(14)
C2_8 C 0.2822(10) 0.7492(11) 0.3830(14)
C3_8 C 0.3277(5) 0.6321(5) 0.3556(3)
H2_8 H 0.2887 0.6130 0.3796
C4_8 C 0.3368(5) 0.7040(5) 0.3525(6)
C5_8 C 0.3756(6) 0.5880(4) 0.3235(6)
C6_8 C 0.4350(10) 0.6156(6) 0.2867(10)
H3_8 H 0.4681 0.5859 0.2647
C7_8 C 0.4417(5) 0.6878(6) 0.2852(7)
H4_8 H 0.4804 0.7078 0.2614
C8_8 C 0.3938(6) 0.7319(4) 0.3173(8)
H5_8 H 0.4000 0.7811 0.3152
O7_8 O 0.4009(9) 0.1792(7) 0.4552(6)
O8_8 O 0.3553(5) 0.3091(5) 0.4906(5)
O10_8 O 0.2915(9) 0.4078(6) 0.4742(7)
C9_8 C 0.3245(14) 0.3628(10) 0.5117(11)
C10_8 C 0.3830(14) 0.2822(10) 0.7492(11)
C11_8 C 0.3556(3) 0.3277(5) 0.6321(5)
H6_8 H 0.3796 0.2887 0.6130
C12_8 C 0.3525(6) 0.3368(5) 0.7040(5)
C13_8 C 0.3235(6) 0.3756(6) 0.5880(4)
C14_8 C 0.2867(10) 0.4350(10) 0.6156(6)
H7_8 H 0.2647 0.4681 0.5859
C15_8 C 0.2852(7) 0.4417(5) 0.6878(6)
H8_8 H 0.2614 0.4804 0.7078
C16_8 C 0.3173(8) 0.3938(6) 0.7319(4)
H9_8 H 0.3152 0.4000 0.7811
O12_8 O 0.4552(6) 0.4009(9) 0.1792(7)
O13_8 O 0.4906(5) 0.3553(5) 0.3091(5)
O15_8 O 0.4742(7) 0.2915(9) 0.4078(6)
C17_8 C 0.5117(11) 0.3245(14) 0.3628(10)
C18_8 C 0.7492(11) 0.3830(14) 0.2822(10)
C19_8 C 0.6321(5) 0.3556(3) 0.3277(5)
H10_8 H 0.6130 0.3796 0.2887
C20_8 C 0.7040(5) 0.3525(6) 0.3368(5)
C21_8 C 0.5880(4) 0.3235(6) 0.3756(6)
C22_8 C 0.6156(6) 0.2867(10) 0.4350(10)
H11_8 H 0.5859 0.2647 0.4681
C23_8 C 0.6878(6) 0.2852(7) 0.4417(5)
H12_8 H 0.7078 0.2614 0.4804
C24_8 C 0.7319(4) 0.3173(8) 0.3938(6)
H13_8 H 0.7811 0.3152 0.4000
loop_
_geom_bond_atom_site_label_1
_geom_bond_atom_site_label_2
_geom_bond_site_symmetry_1
_geom_bond_site_symmetry_2
O4 C2 1_555 1_555
C2 O6 1_555 1_555
O6 Fe8 1_555 1_555
C3 H2 1_555 1_555
C4 C2 1_555 1_555
C5 C1 1_555 1_555
C6 C5 1_555 1_555
H3 C6 1_555 1_555
C7 C6 1_555 1_555
H4 C7 1_555 1_555
C8 C4 1_555 1_555
H5 C8 1_555 1_555
Fe6 O4 1_555 1_555
C3 C4 1_555 1_555
C3 C5 1_555 1_555
C7 C8 1_555 1_555
Fe1 O1 1_555 1_555
O1 Fe2 1_555 1_555
O2 Fe1 1_555 1_555
O3 Fe1 1_555 1_555
Fe2 O7 1_555 1_555
O8 Fe2 1_555 1_555
O9 C10 1_555 1_555
O10 Fe1 1_555 1_555
C9 O8 1_555 1_555
C10 O11 1_555 1_555
O11 Fe7 1_555 1_555
C11 H6 1_555 1_555
C12 C10 1_555 1_555
C13 C9 1_555 1_555
C14 C13 1_555 1_555
H7 C14 1_555 1_555
C15 C14 1_555 1_555
H8 C15 1_555 1_555
C16 C12 1_555 1_555
H9 C16 1_555 1_555
Fe3 O1 1_555 1_555
O12 Fe3 1_555 1_555
O13 Fe3 1_555 1_555
O15 Fe2 1_555 1_555
Fe4 O9 1_555 1_555
O17 Fe1 1_555 1_555
O18 Fe3 1_555 1_555
O19 Fe2 1_555 1_555
O20 Fe3 1_555 1_555
O21 Fe2 1_555 1_555
O22 Fe1 1_555 1_555
O5 Fe3 1_555 1_555
O10 C9 1_555 1_555
C11 C12 1_555 1_555
C11 C13 1_555 1_555
C15 C16 1_555 1_555
O14 C18 1_555 1_555
C18 O16 1_555 1_555
O16 Fe5 1_555 1_555
C19 H10 1_555 1_555
C20 C18 1_555 1_555
C21 C17 1_555 1_555
C22 C21 1_555 1_555
H11 C22 1_555 1_555
C23 C22 1_555 1_555
H12 C23 1_555 1_555
C24 C20 1_555 1_555
H13 C24 1_555 1_555
Fe9 O14 1_555 1_555
C19 C20 1_555 1_555
C19 C21 1_555 1_555
C23 C24 1_555 1_555
O4_2 C2_2 1_555 1_555
C2_2 O6_2 1_555 1_555
O6_2 Fe6 1_555 1_555
C3_2 H2_2 1_555 1_555
C4_2 C2_2 1_555 1_555
C5_2 C1_2 1_555 1_555
C6_2 C5_2 1_555 1_555
H3_2 C6_2 1_555 1_555
C7_2 C6_2 1_555 1_555
H4_2 C7_2 1_555 1_555
C8_2 C4_2 1_555 1_555
H5_2 C8_2 1_555 1_555
Fe6_2 O4_2 1_555 1_555
C3_2 C4_2 1_555 1_555
C3_2 C5_2 1_555 1_555
C7_2 C8_2 1_555 1_555
Fe1_2 O1_2 1_555 1_555
O1_2 Fe2_2 1_555 1_555
O2_2 Fe1_2 1_555 1_555
O3_2 Fe1_2 1_555 1_555
Fe2_2 O7_2 1_555 1_555
O8_2 Fe2_2 1_555 1_555
O9_2 C10_2 1_555 1_555
O10_2 Fe1_2 1_555 1_555
C9_2 O8_2 1_555 1_555
C10_2 O11_2 1_555 1_555
O11_2 Fe7_2 1_555 1_555
C11_2 H6_2 1_555 1_555
C12_2 C10_2 1_555 1_555
C13_2 C9_2 1_555 1_555
C14_2 C13_2 1_555 1_555
H7_2 C14_2 1_555 1_555
C15_2 C14_2 1_555 1_555
H8_2 C15_2 1_555 1_555
C16_2 C12_2 1_555 1_555
H9_2 C16_2 1_555 1_555
Fe3_2 O1_2 1_555 1_555
O12_2 Fe3_2 1_555 1_555
O13_2 Fe3_2 1_555 1_555
O15_2 Fe2_2 1_555 1_555
Fe4_2 O9_2 1_555 1_555
O17_2 Fe1_2 1_555 1_555
O18_2 Fe3_2 1_555 1_555
O19_2 Fe2_2 1_555 1_555
O20_2 Fe3_2 1_555 1_555
O21_2 Fe2_2 1_555 1_555
O22_2 Fe1_2 1_555 1_555
O5_2 Fe3_2 1_555 1_555
O10_2 C9_2 1_555 1_555
C11_2 C12_2 1_555 1_555
C11_2 C13_2 1_555 1_555
C15_2 C16_2 1_555 1_555
O14_2 C18_2 1_555 1_555
C18_2 O16_2 1_555 1_555
O16_2 Fe5_2 1_555 1_555
C19_2 H10_2 1_555 1_555
C20_2 C18_2 1_555 1_555
C21_2 C17_2 1_555 1_555
C22_2 C21_2 1_555 1_555
H11_2 C22_2 1_555 1_555
C23_2 C22_2 1_555 1_555
H12_2 C23_2 1_555 1_555
C24_2 C20_2 1_555 1_555
H13_2 C24_2 1_555 1_555
Fe7 O14_2 1_555 1_555
C19_2 C20_2 1_555 1_555
C19_2 C21_2 1_555 1_555
C23_2 C24_2 1_555 1_555
O4_3 C2_3 1_555 1_555
C2_3 O6_3 1_555 1_555
O6_3 Fe6_2 1_555 1_555
C3_3 H2_3 1_555 1_555
C4_3 C2_3 1_555 1_555
C5_3 C1_3 1_555 1_555
C6_3 C5_3 1_555 1_555
H3_3 C6_3 1_555 1_555
C7_3 C6_3 1_555 1_555
H4_3 C7_3 1_555 1_555
C8_3 C4_3 1_555 1_555
H5_3 C8_3 1_555 1_555
Fe8 O4_3 1_555 1_555
C3_3 C4_3 1_555 1_555
C3_3 C5_3 1_555 1_555
C7_3 C8_3 1_555 1_555
Fe1_3 O1_3 1_555 1_555
O1_3 Fe2_3 1_555 1_555
O2_3 Fe1_3 1_555 1_555
O3_3 Fe1_3 1_555 1_555
Fe2_3 O7_3 1_555 1_555
O8_3 Fe2_3 1_555 1_555
O9_3 C10_3 1_555 1_555
O10_3 Fe1_3 1_555 1_555
C9_3 O8_3 1_555 1_555
C10_3 O11_3 1_555 1_555
O11_3 Fe9 1_555 1_555
C11_3 H6_3 1_555 1_555
C12_3 C10_3 1_555 1_555
C13_3 C9_3 1_555 1_555
C14_3 C13_3 1_555 1_555
H7_3 C14_3 1_555 1_555
C15_3 C14_3 1_555 1_555
H8_3 C15_3 1_555 1_555
C16_3 C12_3 1_555 1_555
H9_3 C16_3 1_555 1_555
Fe3_3 O1_3 1_555 1_555
O12_3 Fe3_3 1_555 1_555
O13_3 Fe3_3 1_555 1_555
O15_3 Fe2_3 1_555 1_555
Fe4_3 O9_3 1_555 1_555
O17_3 Fe1_3 1_555 1_555
O18_3 Fe3_3 1_555 1_555
O19_3 Fe2_3 1_555 1_555
O20_3 Fe3_3 1_555 1_555
O21_3 Fe2_3 1_555 1_555
O22_3 Fe1_3 1_555 1_555
O5_3 Fe3_3 1_555 1_555
O10_3 C9_3 1_555 1_555
C11_3 C12_3 1_555 1_555
C11_3 C13_3 1_555 1_555
C15_3 C16_3 1_555 1_555
O14_3 C18_3 1_555 1_555
C18_3 O16_3 1_555 1_555
O16_3 Fe5_3 1_555 1_555
C19_3 H10_3 1_555 1_555
C20_3 C18_3 1_555 1_555
C21_3 C17_3 1_555 1_555
C22_3 C21_3 1_555 1_555
H11_3 C22_3 1_555 1_555
C23_3 C22_3 1_555 1_555
H12_3 C23_3 1_555 1_555
C24_3 C20_3 1_555 1_555
H13_3 C24_3 1_555 1_555
Fe7_2 O14_3 1_555 1_555
C19_3 C20_3 1_555 1_555
C19_3 C21_3 1_555 1_555
C23_3 C24_3 1_555 1_555
Fe1_4 O1_4 1_555 1_555
O1_4 Fe2_4 1_555 1_555
O2_4 Fe1_4 1_555 1_555
O3_4 Fe1_4 1_555 1_555
O4_4 C2_4 1_555 1_555
O5_4 C1_4 1_555 1_555
C1_4 O3_4 1_555 1_555
C2_4 O6_4 1_555 1_555
O6_4 Fe4_3 1_555 1_555
C3_4 H2_4 1_555 1_555
C4_4 C2_4 1_555 1_555
C5_4 C1_4 1_555 1_555
C6_4 C5_4 1_555 1_555
H3_4 C6_4 1_555 1_555
C7_4 C6_4 1_555 1_555
H4_4 C7_4 1_555 1_555
C8_4 C4_4 1_555 1_555
H5_4 C8_4 1_555 1_555
Fe2_4 O7_4 1_555 1_555
O8_4 Fe2_4 1_555 1_555
O9_4 C10_4 1_555 1_555
O10_4 Fe1_4 1_555 1_555
C9_4 O8_4 1_555 1_555
C10_4 O11_4 1_555 1_555
O11_4 Fe4 1_555 1_555
C11_4 H6_4 1_555 1_555
C12_4 C10_4 1_555 1_555
C13_4 C9_4 1_555 1_555
C14_4 C13_4 1_555 1_555
H7_4 C14_4 1_555 1_555
C15_4 C14_4 1_555 1_555
H8_4 C15_4 1_555 1_555
C16_4 C12_4 1_555 1_555
H9_4 C16_4 1_555 1_555
Fe3_4 O1_4 1_555 1_555
O12_4 Fe3_4 1_555 1_555
O13_4 Fe3_4 1_555 1_555
O14_4 C18_4 1_555 1_555
O15_4 Fe2_4 1_555 1_555
C17_4 O13_4 1_555 1_555
C18_4 O16_4 1_555 1_555
O16_4 Fe4_2 1_555 1_555
C19_4 H10_4 1_555 1_555
C20_4 C18_4 1_555 1_555
C21_4 C17_4 1_555 1_555
C22_4 C21_4 1_555 1_555
H11_4 C22_4 1_555 1_555
C23_4 C22_4 1_555 1_555
H12_4 C23_4 1_555 1_555
C24_4 C20_4 1_555 1_555
H13_4 C24_4 1_555 1_555
Fe5_2 O9_4 1_555 1_555
Fe5 O4_4 1_555 1_555
Fe5_3 O14_4 1_555 1_555
O17_4 Fe1_4 1_555 1_555
O18_4 Fe3_4 1_555 1_555
O19_4 Fe2_4 1_555 1_555
O20_4 Fe3_4 1_555 1_555
O21_4 Fe2_4 1_555 1_555
O22_4 Fe1_4 1_555 1_555
O5_4 Fe3_4 1_555 1_555
C3_4 C4_4 1_555 1_555
C3_4 C5_4 1_555 1_555
C7_4 C8_4 1_555 1_555
O10_4 C9_4 1_555 1_555
C11_4 C12_4 1_555 1_555
C11_4 C13_4 1_555 1_555
C15_4 C16_4 1_555 1_555
O15_4 C17_4 1_555 1_555
C19_4 C20_4 1_555 1_555
C19_4 C21_4 1_555 1_555
C23_4 C24_4 1_555 1_555
O18_2 C18_5 1_555 1_555
C18_5 O21_2 1_555 1_555
C19_5 H10_5 1_555 1_555
C20_5 C18_5 1_555 1_555
C21_5 C17_5 1_555 1_555
C22_5 C21_5 1_555 1_555
H11_5 C22_5 1_555 1_555
C23_5 C22_5 1_555 1_555
H12_5 C23_5 1_555 1_555
C24_5 C20_5 1_555 1_555
H13_5 C24_5 1_555 1_555
C19_5 C20_5 1_555 1_555
C19_5 C21_5 1_555 1_555
C23_5 C24_5 1_555 1_555
Fe4_2 O1_5 1_555 1_555
O1_5 Fe5_3 1_555 1_555
O2_5 Fe4_2 1_555 1_555
O3_5 Fe4_2 1_555 1_555
Fe5_3 O7_5 1_555 1_555
O8_5 Fe5_3 1_555 1_555
O17_3 C10_5 1_555 1_555
O10_5 Fe4_2 1_555 1_555
C9_5 O8_5 1_555 1_555
C10_5 O20_3 1_555 1_555
C11_5 H6_5 1_555 1_555
C12_5 C10_5 1_555 1_555
C13_5 C9_5 1_555 1_555
C14_5 C13_5 1_555 1_555
H7_5 C14_5 1_555 1_555
C15_5 C14_5 1_555 1_555
H8_5 C15_5 1_555 1_555
C16_5 C12_5 1_555 1_555
H9_5 C16_5 1_555 1_555
Fe7_2 O1_5 1_555 1_555
O12_5 Fe7_2 1_555 1_555
O13_5 Fe7_2 1_555 1_555
O15_5 Fe5_3 1_555 1_555
O5_5 Fe7_2 1_555 1_555
O10_5 C9_5 1_555 1_555
C11_5 C12_5 1_555 1_555
C11_5 C13_5 1_555 1_555
C15_5 C16_5 1_555 1_555
O17_4 C2_5 1_555 1_555
C2_5 O20_4 1_555 1_555
C3_5 H2_5 1_555 1_555
C4_5 C2_5 1_555 1_555
C5_5 C1_5 1_555 1_555
C6_5 C5_5 1_555 1_555
H3_5 C6_5 1_555 1_555
C7_5 C6_5 1_555 1_555
H4_5 C7_5 1_555 1_555
C8_5 C4_5 1_555 1_555
H5_5 C8_5 1_555 1_555
C3_5 C4_5 1_555 1_555
C3_5 C5_5 1_555 1_555
C7_5 C8_5 1_555 1_555
O18_3 C18_6 1_555 1_555
C18_6 O21_3 1_555 1_555
C19_6 H10_6 1_555 1_555
C20_6 C18_6 1_555 1_555
C21_6 C17_6 1_555 1_555
C22_6 C21_6 1_555 1_555
H11_6 C22_6 1_555 1_555
C23_6 C22_6 1_555 1_555
H12_6 C23_6 1_555 1_555
C24_6 C20_6 1_555 1_555
H13_6 C24_6 1_555 1_555
C19_6 C20_6 1_555 1_555
C19_6 C21_6 1_555 1_555
C23_6 C24_6 1_555 1_555
Fe4_3 O1_6 1_555 1_555
O1_6 Fe5 1_555 1_555
O2_6 Fe4_3 1_555 1_555
O3_6 Fe4_3 1_555 1_555
Fe5 O7_6 1_555 1_555
O8_6 Fe5 1_555 1_555
O17 C10_6 1_555 1_555
O10_6 Fe4_3 1_555 1_555
C9_6 O8_6 1_555 1_555
C10_6 O20 1_555 1_555
C11_6 H6_6 1_555 1_555
C12_6 C10_6 1_555 1_555
C13_6 C9_6 1_555 1_555
C14_6 C13_6 1_555 1_555
H7_6 C14_6 1_555 1_555
C15_6 C14_6 1_555 1_555
H8_6 C15_6 1_555 1_555
C16_6 C12_6 1_555 1_555
H9_6 C16_6 1_555 1_555
Fe9 O1_6 1_555 1_555
O12_6 Fe9 1_555 1_555
O13_6 Fe9 1_555 1_555
O15_6 Fe5 1_555 1_555
O5_6 Fe9 1_555 1_555
O10_6 C9_6 1_555 1_555
C11_6 C12_6 1_555 1_555
C11_6 C13_6 1_555 1_555
C15_6 C16_6 1_555 1_555
O19_4 C2_6 1_555 1_555
C2_6 O22_4 1_555 1_555
C3_6 H2_6 1_555 1_555
C4_6 C2_6 1_555 1_555
C5_6 C1_6 1_555 1_555
C6_6 C5_6 1_555 1_555
H3_6 C6_6 1_555 1_555
C7_6 C6_6 1_555 1_555
H4_6 C7_6 1_555 1_555
C8_6 C4_6 1_555 1_555
H5_6 C8_6 1_555 1_555
C3_6 C4_6 1_555 1_555
C3_6 C5_6 1_555 1_555
C7_6 C8_6 1_555 1_555
O18 C18_7 1_555 1_555
C18_7 O21 1_555 1_555
C19_7 H10_7 1_555 1_555
C20_7 C18_7 1_555 1_555
C21_7 C17_7 1_555 1_555
C22_7 C21_7 1_555 1_555
H11_7 C22_7 1_555 1_555
C23_7 C22_7 1_555 1_555
H12_7 C23_7 1_555 1_555
C24_7 C20_7 1_555 1_555
H13_7 C24_7 1_555 1_555
C19_7 C20_7 1_555 1_555
C19_7 C21_7 1_555 1_555
C23_7 C24_7 1_555 1_555
Fe4 O1_7 1_555 1_555
O1_7 Fe5_2 1_555 1_555
O2_7 Fe4 1_555 1_555
O3_7 Fe4 1_555 1_555
Fe5_2 O7_7 1_555 1_555
O8_7 Fe5_2 1_555 1_555
O17_2 C10_7 1_555 1_555
O10_7 Fe4 1_555 1_555
C9_7 O8_7 1_555 1_555
C10_7 O20_2 1_555 1_555
C11_7 H6_7 1_555 1_555
C12_7 C10_7 1_555 1_555
C13_7 C9_7 1_555 1_555
C14_7 C13_7 1_555 1_555
H7_7 C14_7 1_555 1_555
C15_7 C14_7 1_555 1_555
H8_7 C15_7 1_555 1_555
C16_7 C12_7 1_555 1_555
H9_7 C16_7 1_555 1_555
Fe7 O1_7 1_555 1_555
O12_7 Fe7 1_555 1_555
O13_7 Fe7 1_555 1_555
O15_7 Fe5_2 1_555 1_555
O5_7 Fe7 1_555 1_555
O10_7 C9_7 1_555 1_555
C11_7 C12_7 1_555 1_555
C11_7 C13_7 1_555 1_555
C15_7 C16_7 1_555 1_555
O18_4 C2_7 1_555 1_555
C2_7 O21_4 1_555 1_555
C3_7 H2_7 1_555 1_555
C4_7 C2_7 1_555 1_555
C5_7 C1_7 1_555 1_555
C6_7 C5_7 1_555 1_555
H3_7 C6_7 1_555 1_555
C7_7 C6_7 1_555 1_555
H4_7 C7_7 1_555 1_555
C8_7 C4_7 1_555 1_555
H5_7 C8_7 1_555 1_555
C3_7 C4_7 1_555 1_555
C3_7 C5_7 1_555 1_555
C7_7 C8_7 1_555 1_555
Fe6 O1_8 1_555 1_555
O1_8 Fe6_2 1_555 1_555
O2_8 Fe6 1_555 1_555
O3_8 Fe6 1_555 1_555
O19_2 C2_8 1_555 1_555
O5_8 C1_8 1_555 1_555
C1_8 O3_8 1_555 1_555
C2_8 O22_2 1_555 1_555
C3_8 H2_8 1_555 1_555
C4_8 C2_8 1_555 1_555
C5_8 C1_8 1_555 1_555
C6_8 C5_8 1_555 1_555
H3_8 C6_8 1_555 1_555
C7_8 C6_8 1_555 1_555
H4_8 C7_8 1_555 1_555
C8_8 C4_8 1_555 1_555
H5_8 C8_8 1_555 1_555
Fe6_2 O7_8 1_555 1_555
O8_8 Fe6_2 1_555 1_555
O19_3 C10_8 1_555 1_555
O10_8 Fe6 1_555 1_555
C9_8 O8_8 1_555 1_555
C10_8 O22_3 1_555 1_555
C11_8 H6_8 1_555 1_555
C12_8 C10_8 1_555 1_555
C13_8 C9_8 1_555 1_555
C14_8 C13_8 1_555 1_555
H7_8 C14_8 1_555 1_555
C15_8 C14_8 1_555 1_555
H8_8 C15_8 1_555 1_555
C16_8 C12_8 1_555 1_555
H9_8 C16_8 1_555 1_555
Fe8 O1_8 1_555 1_555
O12_8 Fe8 1_555 1_555
O13_8 Fe8 1_555 1_555
O19 C18_8 1_555 1_555
O15_8 Fe6_2 1_555 1_555
C17_8 O13_8 1_555 1_555
C18_8 O22 1_555 1_555
C19_8 H10_8 1_555 1_555
C20_8 C18_8 1_555 1_555
C21_8 C17_8 1_555 1_555
C22_8 C21_8 1_555 1_555
H11_8 C22_8 1_555 1_555
C23_8 C22_8 1_555 1_555
H12_8 C23_8 1_555 1_555
C24_8 C20_8 1_555 1_555
H13_8 C24_8 1_555 1_555
O5_8 Fe8 1_555 1_555
C3_8 C4_8 1_555 1_555
C3_8 C5_8 1_555 1_555
C7_8 C8_8 1_555 1_555
O10_8 C9_8 1_555 1_555
C11_8 C12_8 1_555 1_555
C11_8 C13_8 1_555 1_555
C15_8 C16_8 1_555 1_555
O15_8 C17_8 1_555 1_555
C19_8 C20_8 1_555 1_555
C19_8 C21_8 1_555 1_555
C23_8 C24_8 1_555 1_555

#END
