
###############################################################################
#
# This file contains modified crystal structure data generated from the
# MOF subset of the Cambridge Structural Database (CSD) v543 
# hosted by the Cambridge Crystallographic Data Centre (CCDC).
#
# This work is licensed under the Creative Commons
# Attribution-NonCommercial-ShareAlike 4.0 International License.
# To view a copy of this license, visit
# http://creativecommons.org/licenses/by-nc-sa/4.0/
# or send a letter to
# Creative Commons, PO Box 1866, Mountain View, CA 94042, USA.
#
# CIF created using the CSD Python API on 29 September 2022
# The structure has been converted into the P1 space group
# The structure has a 3D framework
# The original CSD entry TOWLUO is in the cubic crystal system
# The framework has been calculated to contain at least 10.0% void space
# The void calculation uses a probe of radius 1.32A, grid spacing 0.4
#
###############################################################################

data_TOWLUO
_chemical_formula_moiety         '(C240 H174 Co14 Fe24 O138)n'
_symmetry_cell_setting           triclinic
_symmetry_space_group_name_H-M   'P 1'
_symmetry_Int_Tables_number      1
_space_group_name_Hall           'P 1'
loop_
_symmetry_equiv_pos_site_id
_symmetry_equiv_pos_as_xyz
1 x,y,z
_cell_length_a                   19.627(7)
_cell_length_b                   19.627(7)
_cell_length_c                   19.627(7)
_cell_angle_alpha                90
_cell_angle_beta                 90
_cell_angle_gamma                90
_cell_volume                     7560.7
loop_
_atom_site_label
_atom_site_type_symbol
_atom_site_fract_x
_atom_site_fract_y
_atom_site_fract_z
Fe1 Fe 0.77645(4) 0.39634(4) 0.10552(4)
Co1 Co 0.5000 0.5000 0.0000
O1 O 0.4877(2) 0.3228(2) 0.4048(2)
O2 O 0.4923(2) 0.3736(2) 0.3023(2)
O3 O 0.8064(2) 0.4203(2) 0.2648(2)
O4 O 0.7218(2) 0.3895(2) 0.1947(2)
O5 O 0.85440(19) 0.35440(19) 0.14560(19)
O6 O 0.6953(2) 0.4332(2) 0.0551(2)
O7 O 0.5998(2) 0.4715(3) 0.0134(3)
C1 C 0.5190(3) 0.3528(3) 0.3572(3)
C2 C 0.5937(3) 0.3653(3) 0.3651(3)
C3 C 0.6229(4) 0.3667(4) 0.4296(4)
H1 H 0.5958 0.3591 0.4690
C4 C 0.6923(4) 0.3794(6) 0.4359(4)
H2 H 0.7126 0.3806 0.4798
C5 C 0.7319(4) 0.3903(5) 0.3790(4)
H3 H 0.7791 0.3997 0.3839
C6 C 0.7028(3) 0.3876(3) 0.3143(3)
C7 C 0.6329(3) 0.3761(3) 0.3076(3)
H4 H 0.6125 0.3757 0.2638
C8 C 0.7463(3) 0.3997(3) 0.2529(3)
C9 C 0.6438(5) 0.4657(5) 0.0607(5)
C10 C 0.6337(5) 0.5095(5) 0.1256(5)
H5 H 0.6618 0.4911 0.1626
H6 H 0.5857 0.5086 0.1390
H7 H 0.6475 0.5566 0.1161
H8 H 0.8262(2) 0.3262(2) 0.1738(2)
O8 O 0.6772(2) 0.9048(2) 0.0123(2)
O9 O 0.6264(2) 0.8023(2) 0.0077(2)
C30 C 0.3744(5) 0.3663(5) 0.0095(5)
H21 H 0.3610 0.4143 0.0086
H22 H 0.3839 0.3525 0.0566
Fe5 Fe 0.39634(4) 0.39448(4) 0.27645(4)
O29 O 0.4203(2) 0.2352(2) 0.3064(2)
O30 O 0.3895(2) 0.3053(2) 0.2218(2)
O31 O 0.4332(2) 0.4449(2) 0.1953(2)
O32 O 0.4715(3) 0.4866(3) 0.0998(2)
C41 C 0.3528(3) 0.1428(3) 0.0190(3)
C42 C 0.3653(3) 0.1349(3) 0.0937(3)
C43 C 0.3667(4) 0.0704(4) 0.1229(4)
H31 H 0.3591 0.0310 0.0958
C44 C 0.3794(6) 0.0641(4) 0.1923(4)
H32 H 0.3806 0.0202 0.2126
C45 C 0.3903(5) 0.1210(4) 0.2319(4)
H33 H 0.3997 0.1161 0.2791
C46 C 0.3876(3) 0.1857(3) 0.2028(3)
C47 C 0.3761(3) 0.1924(3) 0.1329(3)
H34 H 0.3757 0.2362 0.1125
C48 C 0.3997(3) 0.2471(3) 0.2463(3)
C49 C 0.4657(5) 0.4393(5) 0.1438(5)
C50 C 0.5095(5) 0.3744(5) 0.1337(5)
H35 H 0.4911 0.3374 0.1618
H36 H 0.5086 0.3610 0.0857
H37 H 0.5566 0.3839 0.1475
Fe6 Fe 0.60552(4) 0.77645(4) 0.10366(4)
O33 O 0.9048(2) 0.4877(2) 0.1772(2)
O34 O 0.8023(2) 0.4923(2) 0.1264(2)
O35 O 0.7648(2) 0.8064(2) 0.0797(2)
O36 O 0.6947(2) 0.7218(2) 0.1105(2)
O37 O 0.5551(2) 0.6953(2) 0.0668(2)
O38 O 0.5134(3) 0.5998(2) 0.0285(3)
C51 C 0.8572(3) 0.5190(3) 0.1472(3)
C52 C 0.8651(3) 0.5937(3) 0.1347(3)
C53 C 0.9296(4) 0.6229(4) 0.1333(4)
H38 H 0.9690 0.5958 0.1409
C54 C 0.9359(4) 0.6923(4) 0.1206(6)
H39 H 0.9798 0.7126 0.1194
C55 C 0.8790(4) 0.7319(4) 0.1097(5)
H40 H 0.8839 0.7791 0.1003
C56 C 0.8143(3) 0.7028(3) 0.1124(3)
C57 C 0.8076(3) 0.6329(3) 0.1239(3)
H41 H 0.7638 0.6125 0.1243
C58 C 0.7529(3) 0.7463(3) 0.1003(3)
C59 C 0.5607(5) 0.6438(5) 0.0343(5)
H42 H 0.6626 0.6618 0.0089
Fe8 Fe 0.89448(4) 0.27645(4) 0.10366(4)
Fe9 Fe 0.89634(4) 0.39448(4) 0.22355(4)
Fe11 Fe 0.39448(4) 0.27645(4) 0.39634(4)
Fe14 Fe 0.72355(4) 0.89634(4) 0.10552(4)
O39 O 0.4048(2) 0.4877(2) 0.3228(2)
O41 O 0.5123(2) 0.8228(2) 0.0952(2)
O43 O 0.8228(2) 0.4048(2) 0.0123(2)
O46 O 0.7352(2) 0.3064(2) 0.0797(2)
O48 O 0.5797(2) 0.7352(2) 0.1936(2)
O50 O 0.3064(2) 0.4203(2) 0.2352(2)
O53 O 0.64560(19) 0.85440(19) 0.14560(19)
O54 O 0.35440(19) 0.35440(19) 0.35440(19)
Co1_2 Co 0.5000 0.5000 1.0000
Fe2 Fe 0.60366(4) 0.60552(4) 0.72355(4)
O10 O 0.5797(2) 0.7648(2) 0.6936(2)
O11 O 0.6105(2) 0.6947(2) 0.7782(2)
O12 O 0.5668(2) 0.5551(2) 0.8047(2)
O13 O 0.5285(3) 0.5134(3) 0.9002(2)
C11 C 0.6472(3) 0.8572(3) 0.9810(3)
C12 C 0.6347(3) 0.8651(3) 0.9063(3)
C13 C 0.6333(4) 0.9296(4) 0.8771(4)
H9 H 0.6409 0.9690 0.9042
C14 C 0.6206(6) 0.9359(4) 0.8077(4)
H10 H 0.6194 0.9798 0.7874
C15 C 0.6097(5) 0.8790(4) 0.7681(4)
H11 H 0.6003 0.8839 0.7209
C16 C 0.6124(3) 0.8143(3) 0.7972(3)
C17 C 0.6239(3) 0.8076(3) 0.8671(3)
H12 H 0.6243 0.7638 0.8875
C18 C 0.6003(3) 0.7529(3) 0.7537(3)
C19 C 0.5343(5) 0.5607(5) 0.8562(5)
C20 C 0.4905(5) 0.6256(5) 0.8663(5)
H13 H 0.5089 0.6626 0.8382
H14 H 0.4914 0.6390 0.9143
H15 H 0.4434 0.6161 0.8525
Fe3 Fe 0.39448(4) 0.22355(4) 0.89634(4)
O14 O 0.0952(2) 0.5123(2) 0.8228(2)
O15 O 0.1977(2) 0.5077(2) 0.8736(2)
O16 O 0.2352(2) 0.1936(2) 0.9203(2)
O17 O 0.3053(2) 0.2782(2) 0.8895(2)
O18 O 0.4449(2) 0.3047(2) 0.9332(2)
O19 O 0.4866(3) 0.4002(2) 0.9715(3)
C21 C 0.1428(3) 0.4810(3) 0.8528(3)
C22 C 0.1349(3) 0.4063(3) 0.8653(3)
C23 C 0.0704(4) 0.3771(4) 0.8667(4)
H16 H 0.0310 0.4042 0.8591
C24 C 0.0641(4) 0.3077(4) 0.8794(6)
H17 H 0.0202 0.2874 0.8806
C25 C 0.1210(4) 0.2681(4) 0.8903(5)
H18 H 0.1161 0.2209 0.8997
C26 C 0.1857(3) 0.2972(3) 0.8876(3)
C27 C 0.1924(3) 0.3671(3) 0.8761(3)
H19 H 0.2362 0.3875 0.8757
C28 C 0.2471(3) 0.2537(3) 0.8997(3)
C29 C 0.4393(5) 0.3562(5) 0.9657(5)
H20 H 0.3374 0.3382 0.9911
Fe4 Fe 0.22355(4) 0.60366(4) 0.89448(4)
O20 O 0.5123(2) 0.6772(2) 0.5952(2)
O21 O 0.5077(2) 0.6264(2) 0.6977(2)
O22 O 0.1936(2) 0.5797(2) 0.7352(2)
O23 O 0.2782(2) 0.6105(2) 0.8053(2)
O24 O 0.14560(19) 0.64560(19) 0.85440(19)
O25 O 0.3047(2) 0.5668(2) 0.9449(2)
O26 O 0.4002(2) 0.5285(3) 0.9866(3)
C31 C 0.4810(3) 0.6472(3) 0.6428(3)
C32 C 0.4063(3) 0.6347(3) 0.6349(3)
C33 C 0.3771(4) 0.6333(4) 0.5704(4)
H23 H 0.4042 0.6409 0.5310
C34 C 0.3077(4) 0.6206(6) 0.5641(4)
H24 H 0.2874 0.6194 0.5202
C35 C 0.2681(4) 0.6097(5) 0.6210(4)
H25 H 0.2209 0.6003 0.6161
C36 C 0.2972(3) 0.6124(3) 0.6857(3)
C37 C 0.3671(3) 0.6239(3) 0.6924(3)
H26 H 0.3875 0.6243 0.7362
C38 C 0.2537(3) 0.6003(3) 0.7471(3)
C39 C 0.3562(5) 0.5343(5) 0.9393(5)
C40 C 0.3663(5) 0.4905(5) 0.8744(5)
H27 H 0.3382 0.5089 0.8374
H28 H 0.4143 0.4914 0.8610
H29 H 0.3525 0.4434 0.8839
H30 H 0.1738(2) 0.6738(2) 0.8262(2)
O27 O 0.3228(2) 0.0952(2) 0.9877(2)
O28 O 0.3736(2) 0.1977(2) 0.9923(2)
C60 C 0.6256(5) 0.6337(5) 0.9905(5)
H43 H 0.6390 0.5857 0.9914
H44 H 0.6161 0.6475 0.9434
Fe7 Fe 0.60552(4) 0.72355(4) 0.60366(4)
Fe10 Fe 0.27645(4) 0.10366(4) 0.89448(4)
Fe12 Fe 0.10552(4) 0.72355(4) 0.89634(4)
Fe13 Fe 0.10366(4) 0.60552(4) 0.77645(4)
O40 O 0.1772(2) 0.5952(2) 0.9877(2)
O42 O 0.5952(2) 0.5123(2) 0.6772(2)
O44 O 0.4877(2) 0.1772(2) 0.9048(2)
O45 O 0.4203(2) 0.2648(2) 0.8064(2)
O47 O 0.6936(2) 0.5797(2) 0.7648(2)
O49 O 0.2648(2) 0.6936(2) 0.9203(2)
O51 O 0.35440(19) 0.14560(19) 0.85440(19)
O52 O 0.64560(19) 0.64560(19) 0.64560(19)
Fe1_2 Fe 0.10552(4) 0.77645(4) 0.39634(4)
Co1_3 Co 0.0000 0.5000 0.5000
O2_2 O 0.3023(2) 0.4923(2) 0.3736(2)
O3_2 O 0.2648(2) 0.8064(2) 0.4203(2)
O4_2 O 0.1947(2) 0.7218(2) 0.3895(2)
O5_2 O 0.14560(19) 0.85440(19) 0.35440(19)
O6_2 O 0.0551(2) 0.6953(2) 0.4332(2)
O7_2 O 0.0134(3) 0.5998(2) 0.4715(3)
C1_2 C 0.3572(3) 0.5190(3) 0.3528(3)
C2_2 C 0.3651(3) 0.5937(3) 0.3653(3)
C3_2 C 0.4296(4) 0.6229(4) 0.3667(4)
H1_2 H 0.4690 0.5958 0.3591
C4_2 C 0.4359(4) 0.6923(4) 0.3794(6)
H2_2 H 0.4798 0.7126 0.3806
C5_2 C 0.3790(4) 0.7319(4) 0.3903(5)
H3_2 H 0.3839 0.7791 0.3997
C6_2 C 0.3143(3) 0.7028(3) 0.3876(3)
C7_2 C 0.3076(3) 0.6329(3) 0.3761(3)
H4_2 H 0.2638 0.6125 0.3757
C8_2 C 0.2529(3) 0.7463(3) 0.3997(3)
C9_2 C 0.0607(5) 0.6438(5) 0.4657(5)
C10_2 C 0.1256(5) 0.6337(5) 0.5095(5)
H5_2 H 0.1626 0.6618 0.4911
H6_2 H 0.1390 0.5857 0.5086
H7_2 H 0.1161 0.6475 0.5566
H8_2 H 0.1738(2) 0.8262(2) 0.3262(2)
O8_2 O 0.0123(2) 0.6772(2) 0.9048(2)
O9_2 O 0.0077(2) 0.6264(2) 0.8023(2)
C30_2 C 0.0095(5) 0.3744(5) 0.3663(5)
H21_2 H 0.0086 0.3610 0.4143
H22_2 H 0.0566 0.3839 0.3525
Fe5_2 Fe 0.27645(4) 0.39634(4) 0.39448(4)
O30_2 O 0.2218(2) 0.3895(2) 0.3053(2)
O31_2 O 0.1953(2) 0.4332(2) 0.4449(2)
O32_2 O 0.0998(2) 0.4715(3) 0.4866(3)
C41_2 C 0.0190(3) 0.3528(3) 0.1428(3)
C42_2 C 0.0937(3) 0.3653(3) 0.1349(3)
C43_2 C 0.1229(4) 0.3667(4) 0.0704(4)
H31_2 H 0.0958 0.3591 0.0310
C44_2 C 0.1923(4) 0.3794(6) 0.0641(4)
H32_2 H 0.2126 0.3806 0.0202
C45_2 C 0.2319(4) 0.3903(5) 0.1210(4)
H33_2 H 0.2791 0.3997 0.1161
C46_2 C 0.2028(3) 0.3876(3) 0.1857(3)
C47_2 C 0.1329(3) 0.3761(3) 0.1924(3)
H34_2 H 0.1125 0.3757 0.2362
C48_2 C 0.2463(3) 0.3997(3) 0.2471(3)
C49_2 C 0.1438(5) 0.4657(5) 0.4393(5)
C50_2 C 0.1337(5) 0.5095(5) 0.3744(5)
H35_2 H 0.1618 0.4911 0.3374
H36_2 H 0.0857 0.5086 0.3610
H37_2 H 0.1475 0.5566 0.3839
O33_2 O 0.1772(2) 0.9048(2) 0.4877(2)
O34_2 O 0.1264(2) 0.8023(2) 0.4923(2)
O35_2 O 0.0797(2) 0.7648(2) 0.8064(2)
O36_2 O 0.1105(2) 0.6947(2) 0.7218(2)
O37_2 O 0.0668(2) 0.5551(2) 0.6953(2)
O38_2 O 0.0285(3) 0.5134(3) 0.5998(2)
C51_2 C 0.1472(3) 0.8572(3) 0.5190(3)
C52_2 C 0.1347(3) 0.8651(3) 0.5937(3)
C53_2 C 0.1333(4) 0.9296(4) 0.6229(4)
H38_2 H 0.1409 0.9690 0.5958
C54_2 C 0.1206(6) 0.9359(4) 0.6923(4)
H39_2 H 0.1194 0.9798 0.7126
C55_2 C 0.1097(5) 0.8790(4) 0.7319(4)
H40_2 H 0.1003 0.8839 0.7791
C56_2 C 0.1124(3) 0.8143(3) 0.7028(3)
C57_2 C 0.1239(3) 0.8076(3) 0.6329(3)
H41_2 H 0.1243 0.7638 0.6125
C58_2 C 0.1003(3) 0.7529(3) 0.7463(3)
C59_2 C 0.0343(5) 0.5607(5) 0.6438(5)
H42_2 H 0.0089 0.6626 0.6618
Fe8_2 Fe 0.10366(4) 0.89448(4) 0.27645(4)
Fe9_2 Fe 0.22355(4) 0.89634(4) 0.39448(4)
O39_2 O 0.3228(2) 0.4048(2) 0.4877(2)
O43_2 O 0.0123(2) 0.8228(2) 0.4048(2)
O46_2 O 0.0797(2) 0.7352(2) 0.3064(2)
O50_2 O 0.2352(2) 0.3064(2) 0.4203(2)
Co1_4 Co 1.0000 0.5000 0.5000
Fe2_2 Fe 0.72355(4) 0.60366(4) 0.60552(4)
O11_2 O 0.7782(2) 0.6105(2) 0.6947(2)
O12_2 O 0.8047(2) 0.5668(2) 0.5551(2)
O13_2 O 0.9002(2) 0.5285(3) 0.5134(3)
C11_2 C 0.9810(3) 0.6472(3) 0.8572(3)
C12_2 C 0.9063(3) 0.6347(3) 0.8651(3)
C13_2 C 0.8771(4) 0.6333(4) 0.9296(4)
H9_2 H 0.9042 0.6409 0.9690
C14_2 C 0.8077(4) 0.6206(6) 0.9359(4)
H10_2 H 0.7874 0.6194 0.9798
C15_2 C 0.7681(4) 0.6097(5) 0.8790(4)
H11_2 H 0.7209 0.6003 0.8839
C16_2 C 0.7972(3) 0.6124(3) 0.8143(3)
C17_2 C 0.8671(3) 0.6239(3) 0.8076(3)
H12_2 H 0.8875 0.6243 0.7638
C18_2 C 0.7537(3) 0.6003(3) 0.7529(3)
C19_2 C 0.8562(5) 0.5343(5) 0.5607(5)
C20_2 C 0.8663(5) 0.4905(5) 0.6256(5)
H13_2 H 0.8382 0.5089 0.6626
H14_2 H 0.9143 0.4914 0.6390
H15_2 H 0.8525 0.4434 0.6161
O14_2 O 0.8228(2) 0.0952(2) 0.5123(2)
O15_2 O 0.8736(2) 0.1977(2) 0.5077(2)
O16_2 O 0.9203(2) 0.2352(2) 0.1936(2)
O17_2 O 0.8895(2) 0.3053(2) 0.2782(2)
O18_2 O 0.9332(2) 0.4449(2) 0.3047(2)
O19_2 O 0.9715(3) 0.4866(3) 0.4002(2)
C21_2 C 0.8528(3) 0.1428(3) 0.4810(3)
C22_2 C 0.8653(3) 0.1349(3) 0.4063(3)
C23_2 C 0.8667(4) 0.0704(4) 0.3771(4)
H16_2 H 0.8591 0.0310 0.4042
C24_2 C 0.8794(6) 0.0641(4) 0.3077(4)
H17_2 H 0.8806 0.0202 0.2874
C25_2 C 0.8903(5) 0.1210(4) 0.2681(4)
H18_2 H 0.8997 0.1161 0.2209
C26_2 C 0.8876(3) 0.1857(3) 0.2972(3)
C27_2 C 0.8761(3) 0.1924(3) 0.3671(3)
H19_2 H 0.8757 0.2362 0.3875
C28_2 C 0.8997(3) 0.2471(3) 0.2537(3)
C29_2 C 0.9657(5) 0.4393(5) 0.3562(5)
H20_2 H 0.9911 0.3374 0.3382
Fe4_2 Fe 0.89448(4) 0.22355(4) 0.60366(4)
O21_2 O 0.6977(2) 0.5077(2) 0.6264(2)
O22_2 O 0.7352(2) 0.1936(2) 0.5797(2)
O23_2 O 0.8053(2) 0.2782(2) 0.6105(2)
O24_2 O 0.85440(19) 0.14560(19) 0.64560(19)
O25_2 O 0.9449(2) 0.3047(2) 0.5668(2)
O26_2 O 0.9866(3) 0.4002(2) 0.5285(3)
C31_2 C 0.6428(3) 0.4810(3) 0.6472(3)
C32_2 C 0.6349(3) 0.4063(3) 0.6347(3)
C33_2 C 0.5704(4) 0.3771(4) 0.6333(4)
H23_2 H 0.5310 0.4042 0.6409
C34_2 C 0.5641(4) 0.3077(4) 0.6206(6)
H24_2 H 0.5202 0.2874 0.6194
C35_2 C 0.6210(4) 0.2681(4) 0.6097(5)
H25_2 H 0.6161 0.2209 0.6003
C36_2 C 0.6857(3) 0.2972(3) 0.6124(3)
C37_2 C 0.6924(3) 0.3671(3) 0.6239(3)
H26_2 H 0.7362 0.3875 0.6243
C38_2 C 0.7471(3) 0.2537(3) 0.6003(3)
C39_2 C 0.9393(5) 0.3562(5) 0.5343(5)
C40_2 C 0.8744(5) 0.3663(5) 0.4905(5)
H27_2 H 0.8374 0.3382 0.5089
H28_2 H 0.8610 0.4143 0.4914
H29_2 H 0.8839 0.3525 0.4434
H30_2 H 0.8262(2) 0.1738(2) 0.6738(2)
O27_2 O 0.9877(2) 0.3228(2) 0.0952(2)
O28_2 O 0.9923(2) 0.3736(2) 0.1977(2)
C60_2 C 0.9905(5) 0.6256(5) 0.6337(5)
H43_2 H 0.9914 0.6390 0.5857
H44_2 H 0.9434 0.6161 0.6475
Fe12_2 Fe 0.89634(4) 0.10552(4) 0.72355(4)
Fe13_2 Fe 0.77645(4) 0.10366(4) 0.60552(4)
O40_2 O 0.9877(2) 0.1772(2) 0.5952(2)
O42_2 O 0.6772(2) 0.5952(2) 0.5123(2)
O47_2 O 0.7648(2) 0.6936(2) 0.5797(2)
O49_2 O 0.9203(2) 0.2648(2) 0.6936(2)
Fe1_3 Fe 0.39634(4) 0.10552(4) 0.77645(4)
Co1_5 Co 0.5000 0.0000 0.5000
O2_3 O 0.3736(2) 0.3023(2) 0.4923(2)
O4_3 O 0.3895(2) 0.1947(2) 0.7218(2)
O6_3 O 0.4332(2) 0.0551(2) 0.6953(2)
O7_3 O 0.4715(3) 0.0134(3) 0.5998(2)
C1_3 C 0.3528(3) 0.3572(3) 0.5190(3)
C2_3 C 0.3653(3) 0.3651(3) 0.5937(3)
C3_3 C 0.3667(4) 0.4296(4) 0.6229(4)
H1_3 H 0.3591 0.4690 0.5958
C4_3 C 0.3794(6) 0.4359(4) 0.6923(4)
H2_3 H 0.3806 0.4798 0.7126
C5_3 C 0.3903(5) 0.3790(4) 0.7319(4)
H3_3 H 0.3997 0.3839 0.7791
C6_3 C 0.3876(3) 0.3143(3) 0.7028(3)
C7_3 C 0.3761(3) 0.3076(3) 0.6329(3)
H4_3 H 0.3757 0.2638 0.6125
C8_3 C 0.3997(3) 0.2529(3) 0.7463(3)
C9_3 C 0.4657(5) 0.0607(5) 0.6438(5)
C10_3 C 0.5095(5) 0.1256(5) 0.6337(5)
H5_3 H 0.4911 0.1626 0.6618
H6_3 H 0.5086 0.1390 0.5857
H7_3 H 0.5566 0.1161 0.6475
H8_3 H 0.3262(2) 0.1738(2) 0.8262(2)
O8_3 O 0.9048(2) 0.0123(2) 0.6772(2)
O9_3 O 0.8023(2) 0.0077(2) 0.6264(2)
C30_3 C 0.3663(5) 0.0095(5) 0.3744(5)
H21_3 H 0.4143 0.0086 0.3610
H22_3 H 0.3525 0.0566 0.3839
O30_3 O 0.3053(2) 0.2218(2) 0.3895(2)
O31_3 O 0.4449(2) 0.1953(2) 0.4332(2)
O32_3 O 0.4866(3) 0.0998(2) 0.4715(3)
C41_3 C 0.1428(3) 0.0190(3) 0.3528(3)
C42_3 C 0.1349(3) 0.0937(3) 0.3653(3)
C43_3 C 0.0704(4) 0.1229(4) 0.3667(4)
H31_3 H 0.0310 0.0958 0.3591
C44_3 C 0.0641(4) 0.1923(4) 0.3794(6)
H32_3 H 0.0202 0.2126 0.3806
C45_3 C 0.1210(4) 0.2319(4) 0.3903(5)
H33_3 H 0.1161 0.2791 0.3997
C46_3 C 0.1857(3) 0.2028(3) 0.3876(3)
C47_3 C 0.1924(3) 0.1329(3) 0.3761(3)
H34_3 H 0.2362 0.1125 0.3757
C48_3 C 0.2471(3) 0.2463(3) 0.3997(3)
C49_3 C 0.4393(5) 0.1438(5) 0.4657(5)
C50_3 C 0.3744(5) 0.1337(5) 0.5095(5)
H35_3 H 0.3374 0.1618 0.4911
H36_3 H 0.3610 0.0857 0.5086
H37_3 H 0.3839 0.1475 0.5566
O34_3 O 0.4923(2) 0.1264(2) 0.8023(2)
O35_3 O 0.8064(2) 0.0797(2) 0.7648(2)
O36_3 O 0.7218(2) 0.1105(2) 0.6947(2)
O37_3 O 0.6953(2) 0.0668(2) 0.5551(2)
O38_3 O 0.5998(2) 0.0285(3) 0.5134(3)
C51_3 C 0.5190(3) 0.1472(3) 0.8572(3)
C52_3 C 0.5937(3) 0.1347(3) 0.8651(3)
C53_3 C 0.6229(4) 0.1333(4) 0.9296(4)
H38_3 H 0.5958 0.1409 0.9690
C54_3 C 0.6923(4) 0.1206(6) 0.9359(4)
H39_3 H 0.7126 0.1194 0.9798
C55_3 C 0.7319(4) 0.1097(5) 0.8790(4)
H40_3 H 0.7791 0.1003 0.8839
C56_3 C 0.7028(3) 0.1124(3) 0.8143(3)
C57_3 C 0.6329(3) 0.1239(3) 0.8076(3)
H41_3 H 0.6125 0.1243 0.7638
C58_3 C 0.7463(3) 0.1003(3) 0.7529(3)
C59_3 C 0.6438(5) 0.0343(5) 0.5607(5)
H42_3 H 0.6618 0.0089 0.6626
O43_3 O 0.4048(2) 0.0123(2) 0.8228(2)
O46_3 O 0.3064(2) 0.0797(2) 0.7352(2)
Co1_6 Co 0.5000 1.0000 0.5000
O11_3 O 0.6947(2) 0.7782(2) 0.6105(2)
O12_3 O 0.5551(2) 0.8047(2) 0.5668(2)
O13_3 O 0.5134(3) 0.9002(2) 0.5285(3)
C11_3 C 0.8572(3) 0.9810(3) 0.6472(3)
C12_3 C 0.8651(3) 0.9063(3) 0.6347(3)
C13_3 C 0.9296(4) 0.8771(4) 0.6333(4)
H9_3 H 0.9690 0.9042 0.6409
C14_3 C 0.9359(4) 0.8077(4) 0.6206(6)
H10_3 H 0.9798 0.7874 0.6194
C15_3 C 0.8790(4) 0.7681(4) 0.6097(5)
H11_3 H 0.8839 0.7209 0.6003
C16_3 C 0.8143(3) 0.7972(3) 0.6124(3)
C17_3 C 0.8076(3) 0.8671(3) 0.6239(3)
H12_3 H 0.7638 0.8875 0.6243
C18_3 C 0.7529(3) 0.7537(3) 0.6003(3)
C19_3 C 0.5607(5) 0.8562(5) 0.5343(5)
C20_3 C 0.6256(5) 0.8663(5) 0.4905(5)
H13_3 H 0.6626 0.8382 0.5089
H14_3 H 0.6390 0.9143 0.4914
H15_3 H 0.6161 0.8525 0.4434
O15_3 O 0.5077(2) 0.8736(2) 0.1977(2)
O16_3 O 0.1936(2) 0.9203(2) 0.2352(2)
O17_3 O 0.2782(2) 0.8895(2) 0.3053(2)
O18_3 O 0.3047(2) 0.9332(2) 0.4449(2)
O19_3 O 0.4002(2) 0.9715(3) 0.4866(3)
C21_3 C 0.4810(3) 0.8528(3) 0.1428(3)
C22_3 C 0.4063(3) 0.8653(3) 0.1349(3)
C23_3 C 0.3771(4) 0.8667(4) 0.0704(4)
H16_3 H 0.4042 0.8591 0.0310
C24_3 C 0.3077(4) 0.8794(6) 0.0641(4)
H17_3 H 0.2874 0.8806 0.0202
C25_3 C 0.2681(4) 0.8903(5) 0.1210(4)
H18_3 H 0.2209 0.8997 0.1161
C26_3 C 0.2972(3) 0.8876(3) 0.1857(3)
C27_3 C 0.3671(3) 0.8761(3) 0.1924(3)
H19_3 H 0.3875 0.8757 0.2362
C28_3 C 0.2537(3) 0.8997(3) 0.2471(3)
C29_3 C 0.3562(5) 0.9657(5) 0.4393(5)
H20_3 H 0.3382 0.9911 0.3374
Fe4_3 Fe 0.60366(4) 0.89448(4) 0.22355(4)
O21_3 O 0.6264(2) 0.6977(2) 0.5077(2)
O23_3 O 0.6105(2) 0.8053(2) 0.2782(2)
O25_3 O 0.5668(2) 0.9449(2) 0.3047(2)
O26_3 O 0.5285(3) 0.9866(3) 0.4002(2)
C31_3 C 0.6472(3) 0.6428(3) 0.4810(3)
C32_3 C 0.6347(3) 0.6349(3) 0.4063(3)
C33_3 C 0.6333(4) 0.5704(4) 0.3771(4)
H23_3 H 0.6409 0.5310 0.4042
C34_3 C 0.6206(6) 0.5641(4) 0.3077(4)
H24_3 H 0.6194 0.5202 0.2874
C35_3 C 0.6097(5) 0.6210(4) 0.2681(4)
H25_3 H 0.6003 0.6161 0.2209
C36_3 C 0.6124(3) 0.6857(3) 0.2972(3)
C37_3 C 0.6239(3) 0.6924(3) 0.3671(3)
H26_3 H 0.6243 0.7362 0.3875
C38_3 C 0.6003(3) 0.7471(3) 0.2537(3)
C39_3 C 0.5343(5) 0.9393(5) 0.3562(5)
C40_3 C 0.4905(5) 0.8744(5) 0.3663(5)
H27_3 H 0.5089 0.8374 0.3382
H28_3 H 0.4914 0.8610 0.4143
H29_3 H 0.4434 0.8839 0.3525
H30_3 H 0.6738(2) 0.8262(2) 0.1738(2)
O27_3 O 0.0952(2) 0.9877(2) 0.3228(2)
O28_3 O 0.1977(2) 0.9923(2) 0.3736(2)
C60_3 C 0.6337(5) 0.9905(5) 0.6256(5)
H43_3 H 0.5857 0.9914 0.6390
H44_3 H 0.6475 0.9434 0.6161
O40_3 O 0.5952(2) 0.9877(2) 0.1772(2)
O49_3 O 0.6936(2) 0.9203(2) 0.2648(2)
Co1_7 Co 0.0000 0.0000 1.0000
O17_4 O 0.2218(2) 0.1105(2) 0.8053(2)
O18_4 O 0.1953(2) 0.0668(2) 0.9449(2)
O19_4 O 0.0998(2) 0.0285(3) 0.9866(3)
C21_4 C 0.0190(3) 0.1472(3) 0.6428(3)
C22_4 C 0.0937(3) 0.1347(3) 0.6349(3)
C23_4 C 0.1229(4) 0.1333(4) 0.5704(4)
H16_4 H 0.0958 0.1409 0.5310
C24_4 C 0.1923(4) 0.1206(6) 0.5641(4)
H17_4 H 0.2126 0.1194 0.5202
C25_4 C 0.2319(4) 0.1097(5) 0.6210(4)
H18_4 H 0.2791 0.1003 0.6161
C26_4 C 0.2028(3) 0.1124(3) 0.6857(3)
C27_4 C 0.1329(3) 0.1239(3) 0.6924(3)
H19_4 H 0.1125 0.1243 0.7362
C28_4 C 0.2463(3) 0.1003(3) 0.7471(3)
C29_4 C 0.1438(5) 0.0343(5) 0.9393(5)
H20_4 H 0.1618 0.0089 0.8374
C40_4 C 0.0095(5) 0.1256(5) 0.8663(5)
H28_4 H 0.0086 0.1390 0.9143
H29_4 H 0.0566 0.1161 0.8525
O28_4 O 0.3023(2) 0.0077(2) 0.8736(2)
Co1_8 Co 0.0000 1.0000 -0.0000
O4_4 O 0.1105(2) 0.8053(2) 0.2218(2)
O6_4 O 0.0668(2) 0.9449(2) 0.1953(2)
O7_4 O 0.0285(3) 0.9866(3) 0.0998(2)
C1_4 C 0.1472(3) 0.6428(3) 0.0190(3)
C2_4 C 0.1347(3) 0.6349(3) 0.0937(3)
C3_4 C 0.1333(4) 0.5704(4) 0.1229(4)
H1_4 H 0.1409 0.5310 0.0958
C4_4 C 0.1206(6) 0.5641(4) 0.1923(4)
H2_4 H 0.1194 0.5202 0.2126
C5_4 C 0.1097(5) 0.6210(4) 0.2319(4)
H3_4 H 0.1003 0.6161 0.2791
C6_4 C 0.1124(3) 0.6857(3) 0.2028(3)
C7_4 C 0.1239(3) 0.6924(3) 0.1329(3)
H4_4 H 0.1243 0.7362 0.1125
C8_4 C 0.1003(3) 0.7471(3) 0.2463(3)
C9_4 C 0.0343(5) 0.9393(5) 0.1438(5)
H5_4 H 0.0089 0.8374 0.1618
C50_4 C 0.1256(5) 0.8663(5) 0.0095(5)
H36_4 H 0.1390 0.9143 0.0086
H37_4 H 0.1161 0.8525 0.0566
O34_4 O 0.0077(2) 0.8736(2) 0.3023(2)
Co1_9 Co 0.0000 1.0000 1.0000
O2_4 O 0.1264(2) 0.6977(2) 0.9923(2)
C30_4 C 0.1337(5) 0.9905(5) 0.8744(5)
H21_4 H 0.0857 0.9914 0.8610
H22_4 H 0.1475 0.9434 0.8839
O30_4 O 0.1947(2) 0.7782(2) 0.8895(2)
O31_4 O 0.0551(2) 0.8047(2) 0.9332(2)
O32_4 O 0.0134(3) 0.9002(2) 0.9715(3)
C41_4 C 0.3572(3) 0.9810(3) 0.8528(3)
C42_4 C 0.3651(3) 0.9063(3) 0.8653(3)
C43_4 C 0.4296(4) 0.8771(4) 0.8667(4)
H31_4 H 0.4690 0.9042 0.8591
C44_4 C 0.4359(4) 0.8077(4) 0.8794(6)
H32_4 H 0.4798 0.7874 0.8806
C45_4 C 0.3790(4) 0.7681(4) 0.8903(5)
H33_4 H 0.3839 0.7209 0.8997
C46_4 C 0.3143(3) 0.7972(3) 0.8876(3)
C47_4 C 0.3076(3) 0.8671(3) 0.8761(3)
H34_4 H 0.2638 0.8875 0.8757
C48_4 C 0.2529(3) 0.7537(3) 0.8997(3)
C49_4 C 0.0607(5) 0.8562(5) 0.9657(5)
H35_4 H 0.1626 0.8382 0.9911
Co1_10 Co 1.0000 0.0000 -0.0000
O11_4 O 0.8053(2) 0.2218(2) 0.1105(2)
O12_4 O 0.9449(2) 0.1953(2) 0.0668(2)
O13_4 O 0.9866(3) 0.0998(2) 0.0285(3)
C11_4 C 0.6428(3) 0.0190(3) 0.1472(3)
C12_4 C 0.6349(3) 0.0937(3) 0.1347(3)
C13_4 C 0.5704(4) 0.1229(4) 0.1333(4)
H9_4 H 0.5310 0.0958 0.1409
C14_4 C 0.5641(4) 0.1923(4) 0.1206(6)
H10_4 H 0.5202 0.2126 0.1194
C15_4 C 0.6210(4) 0.2319(4) 0.1097(5)
H11_4 H 0.6161 0.2791 0.1003
C16_4 C 0.6857(3) 0.2028(3) 0.1124(3)
C17_4 C 0.6924(3) 0.1329(3) 0.1239(3)
H12_4 H 0.7362 0.1125 0.1243
C18_4 C 0.7471(3) 0.2463(3) 0.1003(3)
C19_4 C 0.9393(5) 0.1438(5) 0.0343(5)
H13_4 H 0.8374 0.1618 0.0089
O21_4 O 0.8736(2) 0.3023(2) 0.0077(2)
C60_4 C 0.8663(5) 0.0095(5) 0.1256(5)
H43_4 H 0.9143 0.0086 0.1390
H44_4 H 0.8525 0.0566 0.1161
Co1_11 Co 1.0000 0.0000 1.0000
C20_4 C 0.8744(5) 0.1337(5) 0.9905(5)
H14_4 H 0.8610 0.0857 0.9914
H15_4 H 0.8839 0.1475 0.9434
O15_4 O 0.9923(2) 0.1264(2) 0.6977(2)
O23_4 O 0.8895(2) 0.1947(2) 0.7782(2)
O25_4 O 0.9332(2) 0.0551(2) 0.8047(2)
O26_4 O 0.9715(3) 0.0134(3) 0.9002(2)
C31_4 C 0.8528(3) 0.3572(3) 0.9810(3)
C32_4 C 0.8653(3) 0.3651(3) 0.9063(3)
C33_4 C 0.8667(4) 0.4296(4) 0.8771(4)
H23_4 H 0.8591 0.4690 0.9042
C34_4 C 0.8794(6) 0.4359(4) 0.8077(4)
H24_4 H 0.8806 0.4798 0.7874
C35_4 C 0.8903(5) 0.3790(4) 0.7681(4)
H25_4 H 0.8997 0.3839 0.7209
C36_4 C 0.8876(3) 0.3143(3) 0.7972(3)
C37_4 C 0.8761(3) 0.3076(3) 0.8671(3)
H26_4 H 0.8757 0.2638 0.8875
C38_4 C 0.8997(3) 0.2529(3) 0.7537(3)
C39_4 C 0.9657(5) 0.0607(5) 0.8562(5)
H27_4 H 0.9911 0.1626 0.8382
Co1_12 Co 1.0000 1.0000 -0.0000
C10_4 C 0.9905(5) 0.8744(5) 0.1337(5)
H6_4 H 0.9914 0.8610 0.0857
H7_4 H 0.9434 0.8839 0.1475
O9_4 O 0.6977(2) 0.9923(2) 0.1264(2)
O36_4 O 0.7782(2) 0.8895(2) 0.1947(2)
O37_4 O 0.8047(2) 0.9332(2) 0.0551(2)
O38_4 O 0.9002(2) 0.9715(3) 0.0134(3)
C51_4 C 0.9810(3) 0.8528(3) 0.3572(3)
C52_4 C 0.9063(3) 0.8653(3) 0.3651(3)
C53_4 C 0.8771(4) 0.8667(4) 0.4296(4)
H38_4 H 0.9042 0.8591 0.4690
C54_4 C 0.8077(4) 0.8794(6) 0.4359(4)
H39_4 H 0.7874 0.8806 0.4798
C55_4 C 0.7681(4) 0.8903(5) 0.3790(4)
H40_4 H 0.7209 0.8997 0.3839
C56_4 C 0.7972(3) 0.8876(3) 0.3143(3)
C57_4 C 0.8671(3) 0.8761(3) 0.3076(3)
H41_4 H 0.8875 0.8757 0.2638
C58_4 C 0.7537(3) 0.8997(3) 0.2529(3)
C59_4 C 0.8562(5) 0.9657(5) 0.0607(5)
H42_4 H 0.8382 0.9911 0.1626
H30_4 H 0.3262(2) 0.3262(2) 0.3262(2)
H8_4 H 0.6738(2) 0.6738(2) 0.6738(2)
Co1_13 Co 0.0000 0.0000 -0.0000
Co1_14 Co 1.0000 1.0000 1.0000
loop_
_geom_bond_atom_site_label_1
_geom_bond_atom_site_label_2
_geom_bond_site_symmetry_1
_geom_bond_site_symmetry_2
Fe1 O4 1_555 1_555
Co1 O7 1_555 1_555
O1 C1 1_555 1_555
O2 C1 1_555 1_555
O3 C8 1_555 1_555
O4 C8 1_555 1_555
O5 Fe1 1_555 1_555
O6 Fe1 1_555 1_555
O7 C9 1_555 1_555
C1 C2 1_555 1_555
C2 C3 1_555 1_555
C3 H1 1_555 1_555
C4 C3 1_555 1_555
H2 C4 1_555 1_555
C5 C4 1_555 1_555
H3 C5 1_555 1_555
C6 C5 1_555 1_555
C7 C2 1_555 1_555
H4 C7 1_555 1_555
C8 C6 1_555 1_555
C9 O6 1_555 1_555
C10 C9 1_555 1_555
H5 C10 1_555 1_555
H6 C10 1_555 1_555
H7 C10 1_555 1_555
H8 O5 1_555 1_555
H21 C30 1_555 1_555
H22 C30 1_555 1_555
Fe5 O2 1_555 1_555
O29 C48 1_555 1_555
O30 Fe5 1_555 1_555
O31 Fe5 1_555 1_555
O32 Co1 1_555 1_555
C42 C41 1_555 1_555
C43 C42 1_555 1_555
H31 C43 1_555 1_555
C44 C43 1_555 1_555
H32 C44 1_555 1_555
C45 C44 1_555 1_555
H33 C45 1_555 1_555
C46 C45 1_555 1_555
C47 C42 1_555 1_555
H34 C47 1_555 1_555
C48 O30 1_555 1_555
C49 O31 1_555 1_555
C50 C49 1_555 1_555
H35 C50 1_555 1_555
H36 C50 1_555 1_555
H37 C50 1_555 1_555
Fe6 O9 1_555 1_555
O33 C51 1_555 1_555
O34 Fe1 1_555 1_555
O35 C58 1_555 1_555
O36 Fe6 1_555 1_555
O37 Fe6 1_555 1_555
O38 Co1 1_555 1_555
C51 O34 1_555 1_555
C52 C51 1_555 1_555
C53 C52 1_555 1_555
H38 C53 1_555 1_555
C54 C53 1_555 1_555
H39 C54 1_555 1_555
C55 C54 1_555 1_555
H40 C55 1_555 1_555
C56 C55 1_555 1_555
C57 C52 1_555 1_555
H41 C57 1_555 1_555
C58 O36 1_555 1_555
C59 O37 1_555 1_555
Fe8 O5 1_555 1_555
Fe9 O3 1_555 1_555
Fe11 O1 1_555 1_555
Fe14 O8 1_555 1_555
O39 Fe5 1_555 1_555
O41 Fe6 1_555 1_555
O43 Fe1 1_555 1_555
O46 Fe1 1_555 1_555
O48 Fe6 1_555 1_555
O50 Fe5 1_555 1_555
O53 Fe6 1_555 1_555
O54 Fe5 1_555 1_555
O5 Fe9 1_555 1_555
C6 C7 1_555 1_555
O29 Fe11 1_555 1_555
O32 C49 1_555 1_555
C46 C47 1_555 1_555
C46 C48 1_555 1_555
O33 Fe9 1_555 1_555
O35 Fe14 1_555 1_555
O38 C59 1_555 1_555
C56 C57 1_555 1_555
C56 C58 1_555 1_555
Fe11 O54 1_555 1_555
Fe14 O53 1_555 1_555
Fe2 O11 1_555 1_555
O10 C18 1_555 1_555
O11 C18 1_555 1_555
O12 Fe2 1_555 1_555
O13 Co1_2 1_555 1_555
C11 C12 1_555 1_555
C12 C13 1_555 1_555
C13 H9 1_555 1_555
C14 C13 1_555 1_555
H10 C14 1_555 1_555
C15 C14 1_555 1_555
H11 C15 1_555 1_555
C16 C15 1_555 1_555
C17 C12 1_555 1_555
H12 C17 1_555 1_555
C18 C16 1_555 1_555
C19 O12 1_555 1_555
C20 C19 1_555 1_555
H13 C20 1_555 1_555
H14 C20 1_555 1_555
H15 C20 1_555 1_555
Fe3 O17 1_555 1_555
O14 C21 1_555 1_555
O15 C21 1_555 1_555
O16 C28 1_555 1_555
O17 C28 1_555 1_555
O18 Fe3 1_555 1_555
O19 Co1_2 1_555 1_555
C21 C22 1_555 1_555
C22 C23 1_555 1_555
C23 H16 1_555 1_555
C24 C23 1_555 1_555
H17 C24 1_555 1_555
C25 C24 1_555 1_555
H18 C25 1_555 1_555
C26 C25 1_555 1_555
C27 C22 1_555 1_555
H19 C27 1_555 1_555
C28 C26 1_555 1_555
C29 O18 1_555 1_555
Fe4 O15 1_555 1_555
O20 C31 1_555 1_555
O21 Fe2 1_555 1_555
O22 C38 1_555 1_555
O23 Fe4 1_555 1_555
O24 Fe4 1_555 1_555
O25 Fe4 1_555 1_555
O26 Co1_2 1_555 1_555
C31 O21 1_555 1_555
C32 C31 1_555 1_555
C33 C32 1_555 1_555
H23 C33 1_555 1_555
C34 C33 1_555 1_555
H24 C34 1_555 1_555
C35 C34 1_555 1_555
H25 C35 1_555 1_555
C36 C35 1_555 1_555
C37 C32 1_555 1_555
H26 C37 1_555 1_555
C38 O23 1_555 1_555
C39 O25 1_555 1_555
C40 C39 1_555 1_555
H27 C40 1_555 1_555
H28 C40 1_555 1_555
H29 C40 1_555 1_555
H30 O24 1_555 1_555
O28 Fe3 1_555 1_555
H43 C60 1_555 1_555
H44 C60 1_555 1_555
Fe7 O10 1_555 1_555
Fe10 O16 1_555 1_555
Fe12 O24 1_555 1_555
Fe13 O14 1_555 1_555
O40 Fe4 1_555 1_555
O42 Fe2 1_555 1_555
O44 Fe3 1_555 1_555
O45 Fe3 1_555 1_555
O47 Fe2 1_555 1_555
O49 Fe4 1_555 1_555
O51 Fe3 1_555 1_555
O52 Fe2 1_555 1_555
O13 C19 1_555 1_555
C16 C17 1_555 1_555
O19 C29 1_555 1_555
C26 C27 1_555 1_555
O20 Fe7 1_555 1_555
O22 Fe13 1_555 1_555
O24 Fe13 1_555 1_555
O26 C39 1_555 1_555
C36 C37 1_555 1_555
C36 C38 1_555 1_555
O27 Fe10 1_555 1_555
Fe7 O52 1_555 1_555
Fe10 O51 1_555 1_555
Fe1_2 O4_2 1_555 1_555
Co1_3 O7_2 1_555 1_555
O39 C1_2 1_555 1_555
O2_2 C1_2 1_555 1_555
O3_2 C8_2 1_555 1_555
O4_2 C8_2 1_555 1_555
O5_2 Fe1_2 1_555 1_555
O6_2 Fe1_2 1_555 1_555
O7_2 C9_2 1_555 1_555
C1_2 C2_2 1_555 1_555
C2_2 C3_2 1_555 1_555
C3_2 H1_2 1_555 1_555
C4_2 C3_2 1_555 1_555
H2_2 C4_2 1_555 1_555
C5_2 C4_2 1_555 1_555
H3_2 C5_2 1_555 1_555
C6_2 C5_2 1_555 1_555
C7_2 C2_2 1_555 1_555
H4_2 C7_2 1_555 1_555
C8_2 C6_2 1_555 1_555
C9_2 O6_2 1_555 1_555
C10_2 C9_2 1_555 1_555
H5_2 C10_2 1_555 1_555
H6_2 C10_2 1_555 1_555
H7_2 C10_2 1_555 1_555
H8_2 O5_2 1_555 1_555
H21_2 C30_2 1_555 1_555
H22_2 C30_2 1_555 1_555
Fe5_2 O2_2 1_555 1_555
O50 C48_2 1_555 1_555
O30_2 Fe5_2 1_555 1_555
O31_2 Fe5_2 1_555 1_555
O32_2 Co1_3 1_555 1_555
C42_2 C41_2 1_555 1_555
C43_2 C42_2 1_555 1_555
H31_2 C43_2 1_555 1_555
C44_2 C43_2 1_555 1_555
H32_2 C44_2 1_555 1_555
C45_2 C44_2 1_555 1_555
H33_2 C45_2 1_555 1_555
C46_2 C45_2 1_555 1_555
C47_2 C42_2 1_555 1_555
H34_2 C47_2 1_555 1_555
C48_2 O30_2 1_555 1_555
C49_2 O31_2 1_555 1_555
C50_2 C49_2 1_555 1_555
H35_2 C50_2 1_555 1_555
H36_2 C50_2 1_555 1_555
H37_2 C50_2 1_555 1_555
Fe13 O9_2 1_555 1_555
O33_2 C51_2 1_555 1_555
O34_2 Fe1_2 1_555 1_555
O35_2 C58_2 1_555 1_555
O36_2 Fe13 1_555 1_555
O37_2 Fe13 1_555 1_555
O38_2 Co1_3 1_555 1_555
C51_2 O34_2 1_555 1_555
C52_2 C51_2 1_555 1_555
C53_2 C52_2 1_555 1_555
H38_2 C53_2 1_555 1_555
C54_2 C53_2 1_555 1_555
H39_2 C54_2 1_555 1_555
C55_2 C54_2 1_555 1_555
H40_2 C55_2 1_555 1_555
C56_2 C55_2 1_555 1_555
C57_2 C52_2 1_555 1_555
H41_2 C57_2 1_555 1_555
C58_2 O36_2 1_555 1_555
C59_2 O37_2 1_555 1_555
Fe8_2 O5_2 1_555 1_555
Fe9_2 O3_2 1_555 1_555
Fe12 O8_2 1_555 1_555
O39_2 Fe5_2 1_555 1_555
O43_2 Fe1_2 1_555 1_555
O46_2 Fe1_2 1_555 1_555
O50_2 Fe5_2 1_555 1_555
O54 Fe5_2 1_555 1_555
O5_2 Fe9_2 1_555 1_555
C6_2 C7_2 1_555 1_555
O32_2 C49_2 1_555 1_555
C46_2 C47_2 1_555 1_555
C46_2 C48_2 1_555 1_555
O33_2 Fe9_2 1_555 1_555
O35_2 Fe12 1_555 1_555
O38_2 C59_2 1_555 1_555
C56_2 C57_2 1_555 1_555
C56_2 C58_2 1_555 1_555
Fe2_2 O11_2 1_555 1_555
O47 C18_2 1_555 1_555
O11_2 C18_2 1_555 1_555
O12_2 Fe2_2 1_555 1_555
O13_2 Co1_4 1_555 1_555
C11_2 C12_2 1_555 1_555
C12_2 C13_2 1_555 1_555
C13_2 H9_2 1_555 1_555
C14_2 C13_2 1_555 1_555
H10_2 C14_2 1_555 1_555
C15_2 C14_2 1_555 1_555
H11_2 C15_2 1_555 1_555
C16_2 C15_2 1_555 1_555
C17_2 C12_2 1_555 1_555
H12_2 C17_2 1_555 1_555
C18_2 C16_2 1_555 1_555
C19_2 O12_2 1_555 1_555
C20_2 C19_2 1_555 1_555
H13_2 C20_2 1_555 1_555
H14_2 C20_2 1_555 1_555
H15_2 C20_2 1_555 1_555
Fe9 O17_2 1_555 1_555
O14_2 C21_2 1_555 1_555
O15_2 C21_2 1_555 1_555
O16_2 C28_2 1_555 1_555
O17_2 C28_2 1_555 1_555
O18_2 Fe9 1_555 1_555
O19_2 Co1_4 1_555 1_555
C21_2 C22_2 1_555 1_555
C22_2 C23_2 1_555 1_555
C23_2 H16_2 1_555 1_555
C24_2 C23_2 1_555 1_555
H17_2 C24_2 1_555 1_555
C25_2 C24_2 1_555 1_555
H18_2 C25_2 1_555 1_555
C26_2 C25_2 1_555 1_555
C27_2 C22_2 1_555 1_555
H19_2 C27_2 1_555 1_555
C28_2 C26_2 1_555 1_555
C29_2 O18_2 1_555 1_555
Fe4_2 O15_2 1_555 1_555
O42 C31_2 1_555 1_555
O21_2 Fe2_2 1_555 1_555
O22_2 C38_2 1_555 1_555
O23_2 Fe4_2 1_555 1_555
O24_2 Fe4_2 1_555 1_555
O25_2 Fe4_2 1_555 1_555
O26_2 Co1_4 1_555 1_555
C31_2 O21_2 1_555 1_555
C32_2 C31_2 1_555 1_555
C33_2 C32_2 1_555 1_555
H23_2 C33_2 1_555 1_555
C34_2 C33_2 1_555 1_555
H24_2 C34_2 1_555 1_555
C35_2 C34_2 1_555 1_555
H25_2 C35_2 1_555 1_555
C36_2 C35_2 1_555 1_555
C37_2 C32_2 1_555 1_555
H26_2 C37_2 1_555 1_555
C38_2 O23_2 1_555 1_555
C39_2 O25_2 1_555 1_555
C40_2 C39_2 1_555 1_555
H27_2 C40_2 1_555 1_555
H28_2 C40_2 1_555 1_555
H29_2 C40_2 1_555 1_555
H30_2 O24_2 1_555 1_555
O28_2 Fe9 1_555 1_555
H43_2 C60_2 1_555 1_555
H44_2 C60_2 1_555 1_555
Fe8 O16_2 1_555 1_555
Fe12_2 O24_2 1_555 1_555
Fe13_2 O14_2 1_555 1_555
O40_2 Fe4_2 1_555 1_555
O42_2 Fe2_2 1_555 1_555
O47_2 Fe2_2 1_555 1_555
O49_2 Fe4_2 1_555 1_555
O52 Fe2_2 1_555 1_555
O13_2 C19_2 1_555 1_555
C16_2 C17_2 1_555 1_555
O19_2 C29_2 1_555 1_555
C26_2 C27_2 1_555 1_555
O22_2 Fe13_2 1_555 1_555
O24_2 Fe13_2 1_555 1_555
O26_2 C39_2 1_555 1_555
C36_2 C37_2 1_555 1_555
C36_2 C38_2 1_555 1_555
O27_2 Fe8 1_555 1_555
Fe1_3 O4_3 1_555 1_555
Co1_5 O7_3 1_555 1_555
O39_2 C1_3 1_555 1_555
O2_3 C1_3 1_555 1_555
O45 C8_3 1_555 1_555
O4_3 C8_3 1_555 1_555
O51 Fe1_3 1_555 1_555
O6_3 Fe1_3 1_555 1_555
O7_3 C9_3 1_555 1_555
C1_3 C2_3 1_555 1_555
C2_3 C3_3 1_555 1_555
C3_3 H1_3 1_555 1_555
C4_3 C3_3 1_555 1_555
H2_3 C4_3 1_555 1_555
C5_3 C4_3 1_555 1_555
H3_3 C5_3 1_555 1_555
C6_3 C5_3 1_555 1_555
C7_3 C2_3 1_555 1_555
H4_3 C7_3 1_555 1_555
C8_3 C6_3 1_555 1_555
C9_3 O6_3 1_555 1_555
C10_3 C9_3 1_555 1_555
H5_3 C10_3 1_555 1_555
H6_3 C10_3 1_555 1_555
H7_3 C10_3 1_555 1_555
H8_3 O51 1_555 1_555
H21_3 C30_3 1_555 1_555
H22_3 C30_3 1_555 1_555
Fe11 O2_3 1_555 1_555
O50_2 C48_3 1_555 1_555
O30_3 Fe11 1_555 1_555
O31_3 Fe11 1_555 1_555
O32_3 Co1_5 1_555 1_555
C42_3 C41_3 1_555 1_555
C43_3 C42_3 1_555 1_555
H31_3 C43_3 1_555 1_555
C44_3 C43_3 1_555 1_555
H32_3 C44_3 1_555 1_555
C45_3 C44_3 1_555 1_555
H33_3 C45_3 1_555 1_555
C46_3 C45_3 1_555 1_555
C47_3 C42_3 1_555 1_555
H34_3 C47_3 1_555 1_555
C48_3 O30_3 1_555 1_555
C49_3 O31_3 1_555 1_555
C50_3 C49_3 1_555 1_555
H35_3 C50_3 1_555 1_555
H36_3 C50_3 1_555 1_555
H37_3 C50_3 1_555 1_555
Fe13_2 O9_3 1_555 1_555
O44 C51_3 1_555 1_555
O34_3 Fe1_3 1_555 1_555
O35_3 C58_3 1_555 1_555
O36_3 Fe13_2 1_555 1_555
O37_3 Fe13_2 1_555 1_555
O38_3 Co1_5 1_555 1_555
C51_3 O34_3 1_555 1_555
C52_3 C51_3 1_555 1_555
C53_3 C52_3 1_555 1_555
H38_3 C53_3 1_555 1_555
C54_3 C53_3 1_555 1_555
H39_3 C54_3 1_555 1_555
C55_3 C54_3 1_555 1_555
H40_3 C55_3 1_555 1_555
C56_3 C55_3 1_555 1_555
C57_3 C52_3 1_555 1_555
H41_3 C57_3 1_555 1_555
C58_3 O36_3 1_555 1_555
C59_3 O37_3 1_555 1_555
Fe12_2 O8_3 1_555 1_555
O43_3 Fe1_3 1_555 1_555
O46_3 Fe1_3 1_555 1_555
C6_3 C7_3 1_555 1_555
O32_3 C49_3 1_555 1_555
C46_3 C47_3 1_555 1_555
C46_3 C48_3 1_555 1_555
O35_3 Fe12_2 1_555 1_555
O38_3 C59_3 1_555 1_555
C56_3 C57_3 1_555 1_555
C56_3 C58_3 1_555 1_555
Fe7 O11_3 1_555 1_555
O47_2 C18_3 1_555 1_555
O11_3 C18_3 1_555 1_555
O12_3 Fe7 1_555 1_555
O13_3 Co1_6 1_555 1_555
C11_3 C12_3 1_555 1_555
C12_3 C13_3 1_555 1_555
C13_3 H9_3 1_555 1_555
C14_3 C13_3 1_555 1_555
H10_3 C14_3 1_555 1_555
C15_3 C14_3 1_555 1_555
H11_3 C15_3 1_555 1_555
C16_3 C15_3 1_555 1_555
C17_3 C12_3 1_555 1_555
H12_3 C17_3 1_555 1_555
C18_3 C16_3 1_555 1_555
C19_3 O12_3 1_555 1_555
C20_3 C19_3 1_555 1_555
H13_3 C20_3 1_555 1_555
H14_3 C20_3 1_555 1_555
H15_3 C20_3 1_555 1_555
Fe9_2 O17_3 1_555 1_555
O41 C21_3 1_555 1_555
O15_3 C21_3 1_555 1_555
O16_3 C28_3 1_555 1_555
O17_3 C28_3 1_555 1_555
O18_3 Fe9_2 1_555 1_555
O19_3 Co1_6 1_555 1_555
C21_3 C22_3 1_555 1_555
C22_3 C23_3 1_555 1_555
C23_3 H16_3 1_555 1_555
C24_3 C23_3 1_555 1_555
H17_3 C24_3 1_555 1_555
C25_3 C24_3 1_555 1_555
H18_3 C25_3 1_555 1_555
C26_3 C25_3 1_555 1_555
C27_3 C22_3 1_555 1_555
H19_3 C27_3 1_555 1_555
C28_3 C26_3 1_555 1_555
C29_3 O18_3 1_555 1_555
Fe4_3 O15_3 1_555 1_555
O42_2 C31_3 1_555 1_555
O21_3 Fe7 1_555 1_555
O48 C38_3 1_555 1_555
O23_3 Fe4_3 1_555 1_555
O53 Fe4_3 1_555 1_555
O25_3 Fe4_3 1_555 1_555
O26_3 Co1_6 1_555 1_555
C31_3 O21_3 1_555 1_555
C32_3 C31_3 1_555 1_555
C33_3 C32_3 1_555 1_555
H23_3 C33_3 1_555 1_555
C34_3 C33_3 1_555 1_555
H24_3 C34_3 1_555 1_555
C35_3 C34_3 1_555 1_555
H25_3 C35_3 1_555 1_555
C36_3 C35_3 1_555 1_555
C37_3 C32_3 1_555 1_555
H26_3 C37_3 1_555 1_555
C38_3 O23_3 1_555 1_555
C39_3 O25_3 1_555 1_555
C40_3 C39_3 1_555 1_555
H27_3 C40_3 1_555 1_555
H28_3 C40_3 1_555 1_555
H29_3 C40_3 1_555 1_555
H30_3 O53 1_555 1_555
O28_3 Fe9_2 1_555 1_555
H43_3 C60_3 1_555 1_555
H44_3 C60_3 1_555 1_555
Fe8_2 O16_3 1_555 1_555
O40_3 Fe4_3 1_555 1_555
O49_3 Fe4_3 1_555 1_555
O13_3 C19_3 1_555 1_555
C16_3 C17_3 1_555 1_555
O19_3 C29_3 1_555 1_555
C26_3 C27_3 1_555 1_555
O26_3 C39_3 1_555 1_555
C36_3 C37_3 1_555 1_555
C36_3 C38_3 1_555 1_555
O27_3 Fe8_2 1_555 1_555
Fe10 O17_4 1_555 1_555
O46_3 C28_4 1_555 1_555
O17_4 C28_4 1_555 1_555
O18_4 Fe10 1_555 1_555
O19_4 Co1_7 1_555 1_555
C21_4 C22_4 1_555 1_555
C22_4 C23_4 1_555 1_555
C23_4 H16_4 1_555 1_555
C24_4 C23_4 1_555 1_555
H17_4 C24_4 1_555 1_555
C25_4 C24_4 1_555 1_555
H18_4 C25_4 1_555 1_555
C26_4 C25_4 1_555 1_555
C27_4 C22_4 1_555 1_555
H19_4 C27_4 1_555 1_555
C28_4 C26_4 1_555 1_555
C29_4 O18_4 1_555 1_555
H28_4 C40_4 1_555 1_555
H29_4 C40_4 1_555 1_555
O28_4 Fe10 1_555 1_555
O19_4 C29_4 1_555 1_555
C26_4 C27_4 1_555 1_555
Fe8_2 O4_4 1_555 1_555
Co1_8 O7_4 1_555 1_555
O46_2 C8_4 1_555 1_555
O4_4 C8_4 1_555 1_555
O6_4 Fe8_2 1_555 1_555
O7_4 C9_4 1_555 1_555
C1_4 C2_4 1_555 1_555
C2_4 C3_4 1_555 1_555
C3_4 H1_4 1_555 1_555
C4_4 C3_4 1_555 1_555
H2_4 C4_4 1_555 1_555
C5_4 C4_4 1_555 1_555
H3_4 C5_4 1_555 1_555
C6_4 C5_4 1_555 1_555
C7_4 C2_4 1_555 1_555
H4_4 C7_4 1_555 1_555
C8_4 C6_4 1_555 1_555
C9_4 O6_4 1_555 1_555
H36_4 C50_4 1_555 1_555
H37_4 C50_4 1_555 1_555
O34_4 Fe8_2 1_555 1_555
C6_4 C7_4 1_555 1_555
H21_4 C30_4 1_555 1_555
H22_4 C30_4 1_555 1_555
Fe12 O2_4 1_555 1_555
O49 C48_4 1_555 1_555
O30_4 Fe12 1_555 1_555
O31_4 Fe12 1_555 1_555
O32_4 Co1_9 1_555 1_555
C42_4 C41_4 1_555 1_555
C43_4 C42_4 1_555 1_555
H31_4 C43_4 1_555 1_555
C44_4 C43_4 1_555 1_555
H32_4 C44_4 1_555 1_555
C45_4 C44_4 1_555 1_555
H33_4 C45_4 1_555 1_555
C46_4 C45_4 1_555 1_555
C47_4 C42_4 1_555 1_555
H34_4 C47_4 1_555 1_555
C48_4 O30_4 1_555 1_555
C49_4 O31_4 1_555 1_555
O32_4 C49_4 1_555 1_555
C46_4 C47_4 1_555 1_555
C46_4 C48_4 1_555 1_555
Fe8 O11_4 1_555 1_555
O46 C18_4 1_555 1_555
O11_4 C18_4 1_555 1_555
O12_4 Fe8 1_555 1_555
O13_4 Co1_10 1_555 1_555
C11_4 C12_4 1_555 1_555
C12_4 C13_4 1_555 1_555
C13_4 H9_4 1_555 1_555
C14_4 C13_4 1_555 1_555
H10_4 C14_4 1_555 1_555
C15_4 C14_4 1_555 1_555
H11_4 C15_4 1_555 1_555
C16_4 C15_4 1_555 1_555
C17_4 C12_4 1_555 1_555
H12_4 C17_4 1_555 1_555
C18_4 C16_4 1_555 1_555
C19_4 O12_4 1_555 1_555
O21_4 Fe8 1_555 1_555
H43_4 C60_4 1_555 1_555
H44_4 C60_4 1_555 1_555
O13_4 C19_4 1_555 1_555
C16_4 C17_4 1_555 1_555
H14_4 C20_4 1_555 1_555
H15_4 C20_4 1_555 1_555
Fe12_2 O15_4 1_555 1_555
O49_2 C38_4 1_555 1_555
O23_4 Fe12_2 1_555 1_555
O25_4 Fe12_2 1_555 1_555
O26_4 Co1_11 1_555 1_555
C32_4 C31_4 1_555 1_555
C33_4 C32_4 1_555 1_555
H23_4 C33_4 1_555 1_555
C34_4 C33_4 1_555 1_555
H24_4 C34_4 1_555 1_555
C35_4 C34_4 1_555 1_555
H25_4 C35_4 1_555 1_555
C36_4 C35_4 1_555 1_555
C37_4 C32_4 1_555 1_555
H26_4 C37_4 1_555 1_555
C38_4 O23_4 1_555 1_555
C39_4 O25_4 1_555 1_555
O26_4 C39_4 1_555 1_555
C36_4 C37_4 1_555 1_555
C36_4 C38_4 1_555 1_555
H6_4 C10_4 1_555 1_555
H7_4 C10_4 1_555 1_555
Fe14 O9_4 1_555 1_555
O49_3 C58_4 1_555 1_555
O36_4 Fe14 1_555 1_555
O37_4 Fe14 1_555 1_555
O38_4 Co1_12 1_555 1_555
C52_4 C51_4 1_555 1_555
C53_4 C52_4 1_555 1_555
H38_4 C53_4 1_555 1_555
C54_4 C53_4 1_555 1_555
H39_4 C54_4 1_555 1_555
C55_4 C54_4 1_555 1_555
H40_4 C55_4 1_555 1_555
C56_4 C55_4 1_555 1_555
C57_4 C52_4 1_555 1_555
H41_4 C57_4 1_555 1_555
C58_4 O36_4 1_555 1_555
C59_4 O37_4 1_555 1_555
O38_4 C59_4 1_555 1_555
C56_4 C57_4 1_555 1_555
C56_4 C58_4 1_555 1_555
H30_4 O54 1_555 1_555
H8_4 O52 1_555 1_555

#END
