
###############################################################################
#
# This file contains modified crystal structure data generated from the
# MOF subset of the Cambridge Structural Database (CSD) v543 
# hosted by the Cambridge Crystallographic Data Centre (CCDC).
#
# This work is licensed under the Creative Commons
# Attribution-NonCommercial-ShareAlike 4.0 International License.
# To view a copy of this license, visit
# http://creativecommons.org/licenses/by-nc-sa/4.0/
# or send a letter to
# Creative Commons, PO Box 1866, Mountain View, CA 94042, USA.
#
# CIF created using the CSD Python API on 29 September 2022
# The structure has been converted into the P1 space group
# The structure has a 3D framework
# The original CSD entry TOWNAW is in the hexagonal crystal system
# The framework has been calculated to contain at least 10.0% void space
# The void calculation uses a probe of radius 1.32A, grid spacing 0.4
# H atom positions have been added when not included in the experimental data
# Generated hydrogen atom positions removed from atoms on special positions
#
###############################################################################

data_TOWNAW
_chemical_formula_moiety         '(C252 H288 Fe18 N36 O100)n'
_symmetry_cell_setting           triclinic
_symmetry_space_group_name_H-M   'P 1'
_symmetry_Int_Tables_number      1
_space_group_name_Hall           'P 1'
loop_
_symmetry_equiv_pos_site_id
_symmetry_equiv_pos_as_xyz
1 x,y,z
_cell_length_a                   18.6996(8)
_cell_length_b                   18.6996(8)
_cell_length_c                   28.8572(18)
_cell_angle_alpha                90
_cell_angle_beta                 90
_cell_angle_gamma                120
_cell_volume                     8738.75
loop_
_atom_site_label
_atom_site_type_symbol
_atom_site_fract_x
_atom_site_fract_y
_atom_site_fract_z
O2 O 0.1935(11) 0.6568(14) 0.6436(5)
N1 N 0.0094(7) 0.5047(4) 0.4263(3)
C6 C 0.1905(5) 0.5952(3) 0.6237(3)
C7 C 0.1350(4) 0.5675(2) 0.5821(2)
C8 C 0.1097(4) 0.6198(2) 0.5632(2)
H3 H 0.1275 0.6726 0.5765
C9 C 0.0580(5) 0.5938(3) 0.5245(2)
H4 H 0.0402 0.6286 0.5111
C10 C 0.0330(6) 0.5165(3) 0.5057(2)
O6 O 0.1935(11) 0.5367(18) 0.6436(5)
C13 C 0.1097(4) 0.4899(4) 0.5632(2)
H7 H 0.1275 0.4549 0.5765
C14 C 0.0580(5) 0.4642(6) 0.5245(2)
H8 H 0.0402 0.4116 0.5111
Fe5 Fe 0.27431(22) 0.72571(10) 0.6937(2)
Fe7 Fe 0.27429(10) 0.5486(2) 0.6937(2)
Fe1 Fe 0.72571(10) 0.4514(2) 0.1937(2)
O1 O 0.8033(12) 0.4612(15) 0.2460(5)
N2 N 0.9809(7) 0.4905(4) 0.4667(3)
C1 C 0.8108(5) 0.4054(3) 0.2649(3)
C2 C 0.8634(4) 0.4317(2) 0.3076(2)
C3 C 0.8873(4) 0.5086(2) 0.3270(2)
H1 H 0.8705 0.5441 0.3134
C4 C 0.9363(5) 0.5330(3) 0.3669(2)
H2 H 0.9532 0.5852 0.3806
C5 C 0.9600(6) 0.4800(3) 0.3861(2)
O3 O 0.7925(8) 0.5850(15) 0.1885(7)
O4 O 0.6667 0.3333 0.1927(16)
O5 O 0.8033(12) 0.3421(19) 0.2460(5)
C11 C 0.8873(4) 0.3787(4) 0.3270(2)
H5 H 0.8705 0.3264 0.3134
C12 C 0.9363(5) 0.4033(6) 0.3669(2)
H6 H 0.9532 0.3680 0.3806
Fe2 Fe 0.5486(2) 0.27431(22) 0.1937(2)
O7 O 0.5388(15) 0.3421(19) 0.2460(5)
O8 O 0.3432(14) 0.5367(18) 0.6436(5)
N3 N 0.4953(4) 0.5047(8) 0.4263(3)
N4 N 0.5095(4) 0.4904(8) 0.4667(3)
C15 C 0.5946(3) 0.4054(6) 0.2649(3)
C16 C 0.5683(2) 0.4317(4) 0.3076(2)
C17 C 0.4914(2) 0.3787(4) 0.3270(2)
H9 H 0.4559 0.3264 0.3134
C18 C 0.4670(3) 0.4033(6) 0.3669(2)
H10 H 0.4148 0.3680 0.3806
C19 C 0.5200(3) 0.4800(7) 0.3861(2)
C20 C 0.4048(3) 0.5953(6) 0.6237(3)
C21 C 0.4325(2) 0.5675(4) 0.5821(2)
C22 C 0.3802(2) 0.4899(4) 0.5632(2)
H11 H 0.3274 0.4549 0.5765
C23 C 0.4062(3) 0.4642(6) 0.5245(2)
H12 H 0.3714 0.4116 0.5111
C24 C 0.4835(3) 0.5165(7) 0.5057(2)
O9 O 0.4150(15) 0.2075(17) 0.1885(7)
O10 O 0.6579(19) 0.4612(15) 0.2460(5)
O11 O 0.4633(18) 0.6568(14) 0.6436(5)
C25 C 0.6213(4) 0.5086(2) 0.3270(2)
H13 H 0.6736 0.5441 0.3134
C26 C 0.5967(6) 0.5330(3) 0.3669(2)
H14 H 0.6320 0.5852 0.3806
C27 C 0.5101(4) 0.6198(2) 0.5632(2)
H15 H 0.5451 0.6726 0.5765
C28 C 0.5358(6) 0.5938(3) 0.5245(2)
H16 H 0.5884 0.6286 0.5111
Fe3 Fe 0.72569(22) 0.27429(10) 0.1937(2)
O12 O 0.6579(19) 0.1967(12) 0.2460(5)
N6 N 0.5096(8) 0.0191(7) 0.4667(3)
C29 C 0.5946(6) 0.1892(5) 0.2649(3)
C30 C 0.5683(4) 0.1366(4) 0.3076(2)
C31 C 0.6213(4) 0.1127(4) 0.3270(2)
H17 H 0.6736 0.1295 0.3134
C32 C 0.5967(6) 0.0637(5) 0.3669(2)
H18 H 0.6320 0.0468 0.3806
C33 C 0.5200(7) 0.0400(6) 0.3861(2)
O14 O 0.7925(17) 0.2075(8) 0.1885(7)
O15 O 0.5388(15) 0.1967(12) 0.2460(5)
C39 C 0.4914(2) 0.1127(4) 0.3270(2)
H21 H 0.4559 0.1295 0.3134
C40 C 0.4670(3) 0.0637(5) 0.3669(2)
H22 H 0.4148 0.0468 0.3806
Fe9 Fe 0.4514(2) 0.72569(22) 0.6937(2)
O17 O 0.5367(18) 0.1935(11) 0.1436(5)
O18 O 0.8065(11) 0.3432(14) 0.1436(5)
O19 O 0.6568(14) 0.4633(18) 0.1436(5)
O20 O 0.6568(14) 0.1935(11) 0.1436(5)
O21 O 0.5367(18) 0.3432(14) 0.1436(5)
O22 O 0.8065(11) 0.4633(18) 0.1436(5)
O13 O 0.4633(18) 0.8065(11) 0.6436(5)
N5 N 0.4953(8) 0.9906(7) 0.4263(3)
C34 C 0.4047(6) 0.8095(5) 0.6237(3)
C35 C 0.4325(4) 0.8650(4) 0.5821(2)
C36 C 0.5101(4) 0.8903(4) 0.5632(2)
H19 H 0.5451 0.8725 0.5765
C37 C 0.5358(6) 0.9420(5) 0.5245(2)
H20 H 0.5884 0.9598 0.5111
C38 C 0.4835(7) 0.9670(6) 0.5057(2)
O16 O 0.3432(14) 0.8065(11) 0.6436(5)
C41 C 0.3802(2) 0.8903(4) 0.5632(2)
H23 H 0.3274 0.8725 0.5765
C42 C 0.4062(3) 0.9420(5) 0.5245(2)
H24 H 0.3714 0.9598 0.5111
C6_2 C 0.5953(6) 0.1905(5) 0.1237(3)
C7_2 C 0.5675(4) 0.1350(4) 0.0821(2)
C8_2 C 0.4899(4) 0.1097(4) 0.0632(2)
H3_2 H 0.4549 0.1275 0.0765
C9_2 C 0.4642(6) 0.0580(5) 0.0245(2)
H4_2 H 0.4116 0.0402 0.0111
C10_2 C 0.5165(7) 0.0330(6) 0.0057(2)
C13_2 C 0.6198(6) 0.1097(4) 0.0632(2)
H7_2 H 0.6726 0.1275 0.0765
C14_2 C 0.5938(8) 0.0580(5) 0.0245(2)
H8_2 H 0.6286 0.0402 0.0111
C34_2 C 0.5952(8) 0.4047(6) 0.1237(3)
C35_2 C 0.5675(6) 0.4325(4) 0.0821(2)
C36_2 C 0.6198(6) 0.5101(4) 0.0632(2)
H19_2 H 0.6726 0.5451 0.0765
C37_2 C 0.5938(8) 0.5358(6) 0.0245(2)
H20_2 H 0.6286 0.5884 0.0111
C38_2 C 0.5165(9) 0.4835(7) 0.0057(2)
C41_2 C 0.4899(4) 0.3802(2) 0.0632(2)
H23_2 H 0.4549 0.3274 0.0765
C42_2 C 0.4642(6) 0.4062(3) 0.0245(2)
H24_2 H 0.4116 0.3714 0.0111
O1_2 O 0.3421(19) 0.8033(12) 0.7460(5)
N2_2 N 0.4904(8) 0.9809(7) 0.9667(3)
C1_2 C 0.4054(6) 0.8108(5) 0.7649(3)
C2_2 C 0.4317(4) 0.8634(4) 0.8076(2)
C3_2 C 0.3787(4) 0.8873(4) 0.8270(2)
H1_2 H 0.3264 0.8705 0.8134
C4_2 C 0.4033(6) 0.9363(5) 0.8669(2)
H2_2 H 0.3680 0.9532 0.8806
C5_2 C 0.4800(7) 0.9600(6) 0.8861(2)
O3_2 O 0.2075(17) 0.7925(8) 0.6885(7)
O4_2 O 0.3334 0.6667 0.6927(16)
O5_2 O 0.4612(22) 0.8033(12) 0.7460(5)
C11_2 C 0.5086(6) 0.8873(4) 0.8270(2)
H5_2 H 0.5441 0.8705 0.8134
C12_2 C 0.5330(8) 0.9363(5) 0.8669(2)
H6_2 H 0.5852 0.9532 0.8806
O7_2 O 0.1967(24) 0.5388(15) 0.7460(5)
N4_2 N 0.0191(9) 0.5095(4) 0.9667(3)
C15_2 C 0.1892(7) 0.5946(3) 0.7649(3)
C16_2 C 0.1366(4) 0.5683(2) 0.8076(2)
C17_2 C 0.1127(4) 0.4914(2) 0.8270(2)
H9_2 H 0.1295 0.4559 0.8134
C18_2 C 0.0637(7) 0.4670(3) 0.8669(2)
H10_2 H 0.0468 0.4148 0.8806
C19_2 C 0.0400(8) 0.5200(3) 0.8861(2)
O9_2 O 0.2075(23) 0.4150(15) 0.6885(7)
O10_2 O 0.1967(24) 0.6579(19) 0.7460(5)
C25_2 C 0.1127(4) 0.6213(4) 0.8270(2)
H13_2 H 0.1295 0.6736 0.8134
C26_2 C 0.0637(7) 0.5967(6) 0.8669(2)
H14_2 H 0.0468 0.6320 0.8806
O12_2 O 0.4612(22) 0.6579(19) 0.7460(5)
N5_2 N 0.5047(11) 0.4953(8) 0.9263(3)
N6_2 N 0.4905(11) 0.5096(8) 0.9667(3)
C29_2 C 0.4054(8) 0.5946(6) 0.7649(3)
C30_2 C 0.4317(6) 0.5683(4) 0.8076(2)
C31_2 C 0.5086(6) 0.6213(4) 0.8270(2)
H17_2 H 0.5441 0.6736 0.8134
C32_2 C 0.5330(8) 0.5967(6) 0.8669(2)
H18_2 H 0.5852 0.6320 0.8806
C33_2 C 0.4800(9) 0.5200(7) 0.8861(2)
O14_2 O 0.5850(19) 0.7925(17) 0.6885(7)
O15_2 O 0.3421(19) 0.5388(15) 0.7460(5)
C39_2 C 0.3787(4) 0.4914(2) 0.8270(2)
H21_2 H 0.3264 0.4559 0.8134
C40_2 C 0.4033(6) 0.4670(3) 0.8669(2)
H22_2 H 0.3680 0.4148 0.8806
C20_2 C 0.8095(7) 0.4048(3) 0.1237(3)
C21_2 C 0.8650(4) 0.4325(2) 0.0821(2)
C22_2 C 0.8903(4) 0.3802(2) 0.0632(2)
H11_2 H 0.8725 0.3274 0.0765
C23_2 C 0.9420(7) 0.4062(3) 0.0245(2)
H12_2 H 0.9598 0.3714 0.0111
C24_2 C 0.9670(8) 0.4835(3) 0.0057(2)
C27_2 C 0.8903(4) 0.5101(4) 0.0632(2)
H15_2 H 0.8725 0.5451 0.0765
C28_2 C 0.9420(7) 0.5358(6) 0.0245(2)
H16_2 H 0.9598 0.5884 0.0111
N1_2 N 0.5047(8) 0.0094(7) 0.9263(3)
N3_2 N 0.9906(9) 0.4953(4) 0.9263(3)
Fe11 Fe 0.05921(12) 0.1184(2) 0.1619(2)
O29 O 0.1234(7) 0.2467(13) 0.1596(7)
O30 O -0.0000 0.0000 0.1618(14)
H30 H 0.0064 0.2115 0.0405
O60 O 0.1359(21) 0.1292(14) 0.2122(5)
O63 O 0.1386(22) 0.1290(16) 0.1116(5)
H35 H 0.0100 0.2075 0.2835
O30_2 O -0.0000 1.0000 0.1618(14)
H54 H 0.0064 0.7949 0.0405
Fe24 Fe 0.05919(23) 0.94079(12) 0.1619(2)
H43 H 0.0100 0.8025 0.2835
O25 O 0.9904(15) 0.1290(16) 0.1116(5)
C53 C 0.9179(3) 0.0821(3) 0.0946(4)
C54 C 0.8999(2) 0.1001(2) 0.0468(3)
O30_3 O 1.0000 0.0000 0.1618(14)
C60 C 0.9568(2) 0.1734(2) 0.0252(3)
O33 O 0.8710(16) 0.0096(15) 0.1116(5)
C68 C 0.8266(2) 0.0432(2) 0.0252(3)
O47 O 0.1386(22) 0.0096(15) 0.1116(5)
C109 C 0.1642(4) 0.0821(3) 0.0946(4)
C110 C 0.2002(3) 0.1001(2) 0.0468(3)
C116 C 0.2166(3) 0.0432(2) 0.0252(3)
C124 C 0.2166(3) 0.1734(2) 0.0252(3)
H70 H 0.2051 0.2115 0.0405
O57 O 0.9933(16) 0.1292(14) 0.2122(5)
O59 O 0.1359(21) 0.0067(16) 0.2122(5)
O62 O 0.8708(14) 0.0067(16) 0.2122(5)
Fe10 Fe 0.7842(2) 0.39212(12) 0.6624(2)
O23 O 0.7950(15) 0.3233(15) 0.6138(5)
O26 O 0.7939(14) 0.3242(17) 0.7135(6)
N7 N 0.8203(4) 0.1797(4) 0.4203(4)
N8 N 0.8583(4) 0.1417(4) 0.4116(4)
N9 N 0.8500(4) 0.1500(4) 0.9149(4)
N10 N 0.8112(4) 0.1888(4) 0.9141(4)
C43 C 0.7464(3) 0.2536(3) 0.5978(3)
C44 C 0.7659(2) 0.2341(2) 0.5508(3)
C45 C 0.7100(2) 0.1602(2) 0.5293(3)
H25 H 0.6598 0.1226 0.5443
C46 C 0.7284(3) 0.1421(3) 0.4855(3)
H26 H 0.6909 0.0920 0.4704
C47 C 0.8020(3) 0.1980(3) 0.4642(4)
C48 C 0.9199(3) 0.0801(3) 0.2282(4)
C49 C 0.9035(2) 0.0965(2) 0.2768(3)
C50 C 0.8312(2) 0.0391(2) 0.2990(3)
C51 C 0.8162(3) 0.0544(3) 0.3442(3)
H28 H 0.7671 0.0158 0.3598
C52 C 0.8735(3) 0.1265(3) 0.3662(4)
C55 C 0.8667(3) 0.1333(3) 0.9591(4)
C56 C 0.7464(3) 0.2536(3) 0.7328(4)
C57 C 0.7636(2) 0.2364(2) 0.7810(3)
C58 C 0.7953(3) 0.2047(3) 0.8695(4)
O27 O 0.9093(18) 0.4547(9) 0.6668(7)
O28 O 0.6667 0.3333 0.6612(14)
C59 C 0.8524(3) 0.2773(3) 0.8479(3)
H29 H 0.9016 0.3155 0.8634
C61 C 0.9397(3) 0.1900(3) 0.9806(3)
H31 H 0.9776 0.2396 0.9651
C62 C 0.8365(2) 0.2936(2) 0.8029(3)
H32 H 0.8749 0.3430 0.7875
O31 O 0.6767(15) 0.2050(15) 0.6138(5)
C63 C 0.8398(2) 0.2900(2) 0.5293(3)
H33 H 0.8774 0.3402 0.5443
C64 C 0.8579(3) 0.2716(3) 0.4855(3)
H34 H 0.9080 0.3091 0.4704
C65 C 0.9609(2) 0.1688(2) 0.2990(3)
C66 C 0.9456(3) 0.1838(3) 0.3442(3)
H36 H 0.9842 0.2329 0.3598
O34 O 0.6758(17) 0.2061(14) 0.7135(6)
C67 C 0.7227(3) 0.1476(3) 0.8479(3)
H37 H 0.6845 0.0984 0.8634
C69 C 0.8100(3) 0.0603(3) 0.9806(3)
H39 H 0.7604 0.0224 0.9651
C70 C 0.7064(2) 0.1635(2) 0.8029(3)
H40 H 0.6570 0.1251 0.7875
Fe14 Fe 0.60792(23) 0.2158(2) 0.6624(2)
O45 O 0.5283(21) 0.2050(15) 0.6138(5)
O48 O 0.5303(22) 0.2061(14) 0.7135(6)
N15 N 0.3594(6) 0.1797(4) 0.4203(4)
N16 N 0.2834(6) 0.1417(4) 0.4116(4)
N17 N 0.3000(6) 0.1500(4) 0.9149(4)
N18 N 0.3776(6) 0.1888(4) 0.9141(4)
C99 C 0.5072(4) 0.2536(3) 0.5978(3)
C100 C 0.4682(3) 0.2341(2) 0.5508(3)
C101 C 0.4502(3) 0.2900(2) 0.5293(3)
H57 H 0.4628 0.3402 0.5443
C102 C 0.4137(4) 0.2716(3) 0.4855(3)
H58 H 0.4011 0.3091 0.4704
C103 C 0.3960(4) 0.1980(3) 0.4642(4)
C104 C 0.1602(4) 0.0801(3) 0.2282(4)
C105 C 0.1930(3) 0.0965(2) 0.2768(3)
C106 C 0.2079(3) 0.1688(2) 0.2990(3)
H59 H 0.1975 0.2075 0.2835
C107 C 0.2382(4) 0.1838(3) 0.3442(3)
H60 H 0.2487 0.2329 0.3598
C108 C 0.2530(4) 0.1265(3) 0.3662(4)
C111 C 0.2666(4) 0.1333(3) 0.9591(4)
C112 C 0.5072(4) 0.2536(3) 0.7328(4)
C113 C 0.4728(3) 0.2364(2) 0.7810(3)
C114 C 0.4094(4) 0.2047(3) 0.8695(4)
O49 O 0.5454(20) 0.0907(18) 0.6668(7)
C115 C 0.4249(4) 0.1476(3) 0.8479(3)
H61 H 0.4139 0.0984 0.8634
C117 C 0.2503(4) 0.0603(3) 0.9806(3)
H63 H 0.2620 0.0224 0.9651
C118 C 0.4571(3) 0.1635(2) 0.8029(3)
H64 H 0.4681 0.1251 0.7875
O51 O 0.5283(21) 0.3233(15) 0.6138(5)
C119 C 0.4502(3) 0.1602(2) 0.5293(3)
H65 H 0.4628 0.1226 0.5443
C120 C 0.4137(4) 0.1421(3) 0.4855(3)
H66 H 0.4011 0.0920 0.4704
C121 C 0.2079(3) 0.0391(2) 0.2990(3)
C122 C 0.2382(4) 0.0544(3) 0.3442(3)
H68 H 0.2487 0.0158 0.3598
O54 O 0.5303(22) 0.3242(17) 0.7135(6)
C123 C 0.4249(4) 0.2773(3) 0.8479(3)
H69 H 0.4139 0.3155 0.8634
C125 C 0.2503(4) 0.1900(3) 0.9806(3)
H71 H 0.2620 0.2396 0.9651
C126 C 0.4571(3) 0.2936(2) 0.8029(3)
H72 H 0.4681 0.3430 0.7875
Fe17 Fe 0.60788(12) 0.39208(23) 0.6624(2)
O56 O 0.7950(15) 0.4717(21) 0.6138(5)
O66 O 0.7939(14) 0.4697(22) 0.7135(6)
O30_4 O 1.0000 1.0000 0.1618(14)
H38 H 0.7885 0.9936 0.0405
Fe13 Fe 0.8816(2) 0.94081(23) 0.1619(2)
O37 O 0.8710(16) 0.8614(22) 0.1116(5)
C81 C 0.9179(3) 0.8358(4) 0.0946(4)
C82 C 0.8999(2) 0.7998(3) 0.0468(3)
O40 O 0.7533(13) 0.8767(15) 0.1596(7)
C88 C 0.8266(2) 0.7834(3) 0.0252(3)
H46 H 0.7885 0.7949 0.0405
O43 O 0.9904(15) 0.8614(22) 0.1116(5)
C96 C 0.9568(2) 0.7834(3) 0.0252(3)
O50 O 0.1233(15) 0.8766(7) 0.1596(7)
H62 H 0.2051 0.9936 0.0405
O58 O 0.8708(14) 0.8641(21) 0.2122(5)
H27 H 0.7925 0.9900 0.2835
O35 O 0.6767(15) 0.4717(21) 0.6138(5)
O38 O 0.6758(17) 0.4697(22) 0.7135(6)
N11 N 0.8203(4) 0.6406(6) 0.4203(4)
N12 N 0.8583(4) 0.7166(6) 0.4116(4)
N13 N 0.8500(4) 0.7000(6) 0.9149(4)
N14 N 0.8112(4) 0.6224(6) 0.9141(4)
C71 C 0.7464(3) 0.4928(4) 0.5978(3)
C72 C 0.7659(2) 0.5318(3) 0.5508(3)
C73 C 0.8398(2) 0.5498(3) 0.5293(3)
H41 H 0.8774 0.5372 0.5443
C74 C 0.8579(3) 0.5863(4) 0.4855(3)
H42 H 0.9080 0.5989 0.4704
C75 C 0.8020(3) 0.6040(4) 0.4642(4)
C76 C 0.9199(3) 0.8398(4) 0.2282(4)
C77 C 0.9035(2) 0.8070(3) 0.2768(3)
C78 C 0.9609(2) 0.7921(3) 0.2990(3)
C79 C 0.9456(3) 0.7618(4) 0.3442(3)
H44 H 0.9842 0.7513 0.3598
C80 C 0.8735(3) 0.7470(4) 0.3662(4)
C83 C 0.8667(3) 0.7334(4) 0.9591(4)
C84 C 0.7464(3) 0.4928(4) 0.7328(4)
C85 C 0.7636(2) 0.5272(3) 0.7810(3)
C86 C 0.7953(3) 0.5906(4) 0.8695(4)
O39 O 0.5453(9) 0.4546(20) 0.6668(7)
C87 C 0.7227(3) 0.5751(4) 0.8479(3)
H45 H 0.6845 0.5861 0.8634
C89 C 0.8100(3) 0.7497(4) 0.9806(3)
H47 H 0.7604 0.7380 0.9651
C90 C 0.7064(2) 0.5429(3) 0.8029(3)
H48 H 0.6570 0.5319 0.7875
O42 O 0.9933(16) 0.8641(21) 0.2122(5)
C91 C 0.7100(2) 0.5498(3) 0.5293(3)
H49 H 0.6598 0.5372 0.5443
C92 C 0.7284(3) 0.5863(4) 0.4855(3)
H50 H 0.6909 0.5989 0.4704
C93 C 0.8312(2) 0.7921(3) 0.2990(3)
H51 H 0.7925 0.8025 0.2835
C94 C 0.8162(3) 0.7618(4) 0.3442(3)
H52 H 0.7671 0.7513 0.3598
C95 C 0.8524(3) 0.5751(4) 0.8479(3)
H53 H 0.9016 0.5861 0.8634
C97 C 0.9397(3) 0.7497(4) 0.9806(3)
H55 H 0.9776 0.7380 0.9651
C98 C 0.8365(2) 0.5429(3) 0.8029(3)
H56 H 0.8749 0.5319 0.7875
H67 H 0.1975 0.9900 0.2835
O30_5 O 0.0000 0.0000 0.6618(14)
H54_2 H 0.2115 0.0064 0.5405
Fe24_2 Fe 0.11840(26) 0.05919(23) 0.6619(2)
O60_2 O 0.0067(25) 0.1359(21) 0.7122(5)
O63_2 O 0.0096(27) 0.1386(22) 0.6116(5)
H43_2 H 0.2075 0.0100 0.7835
O30_6 O 0.0000 1.0000 0.6618(14)
Fe12 Fe 0.21580(26) 0.60788(12) 0.1624(2)
O35_2 O 0.2050(26) 0.6767(15) 0.1138(5)
O37_2 O 0.0096(27) 0.8710(16) 0.6116(5)
O38_2 O 0.2061(28) 0.6758(17) 0.2135(6)
N13_2 N 0.1500(7) 0.8500(4) 0.4149(4)
N14_2 N 0.1888(7) 0.8112(4) 0.4141(4)
C71_2 C 0.2536(5) 0.7464(3) 0.0978(3)
C72_2 C 0.2341(4) 0.7659(2) 0.0508(3)
C73_2 C 0.2900(4) 0.8398(2) 0.0293(3)
H41_2 H 0.3402 0.8774 0.0443
C81_2 C 0.0821(5) 0.9179(3) 0.5946(4)
C82_2 C 0.1001(4) 0.8999(2) 0.5468(3)
C83_2 C 0.1333(5) 0.8667(3) 0.4591(4)
C84_2 C 0.2536(5) 0.7464(3) 0.2328(4)
C85_2 C 0.2364(4) 0.7636(2) 0.2810(3)
C86_2 C 0.2047(5) 0.7953(3) 0.3695(4)
O39_2 O 0.0907(22) 0.5453(9) 0.1668(7)
C87_2 C 0.1476(5) 0.7227(3) 0.3479(3)
H45_2 H 0.0984 0.6845 0.3634
C88_2 C 0.0432(4) 0.8266(2) 0.5252(3)
C89_2 C 0.0603(5) 0.8100(3) 0.4806(3)
H47_2 H 0.0224 0.7604 0.4651
C90_2 C 0.1635(4) 0.7064(2) 0.3029(3)
H48_2 H 0.1251 0.6570 0.2875
O41 O 0.3233(26) 0.7950(15) 0.1138(5)
C91_2 C 0.1602(4) 0.7100(2) 0.0293(3)
H49_2 H 0.1226 0.6598 0.0443
O43_2 O 0.1290(27) 0.9904(15) 0.6116(5)
O44 O 0.3242(26) 0.7939(14) 0.2135(6)
C95_2 C 0.2773(5) 0.8524(3) 0.3479(3)
H53_2 H 0.3155 0.9016 0.3634
C96_2 C 0.1734(4) 0.9568(2) 0.5252(3)
C97_2 C 0.1900(5) 0.9397(3) 0.4806(3)
H55_2 H 0.2396 0.9776 0.4651
C98_2 C 0.2936(4) 0.8365(2) 0.3029(3)
H56_2 H 0.3430 0.8749 0.2875
Fe16 Fe 0.39208(23) 0.7842(2) 0.1624(2)
O55 O 0.2050(26) 0.5283(21) 0.1138(5)
O58_2 O 0.0067(25) 0.8708(14) 0.7122(5)
O65 O 0.2061(28) 0.5303(22) 0.2135(6)
O67 O 0.3334 0.6667 0.1612(14)
N11_2 N 0.1797(7) 0.8203(4) 0.9203(4)
N12_2 N 0.1417(7) 0.8583(4) 0.9116(4)
C74_2 C 0.2716(5) 0.8579(3) 0.9855(3)
H42_2 H 0.3091 0.9080 0.9704
C75_2 C 0.1980(5) 0.8020(3) 0.9642(4)
C76_2 C 0.0801(5) 0.9199(3) 0.7282(4)
C77_2 C 0.0965(4) 0.9035(2) 0.7768(3)
C78_2 C 0.1688(4) 0.9609(2) 0.7990(3)
C79_2 C 0.1838(5) 0.9456(3) 0.8442(3)
H44_2 H 0.2329 0.9842 0.8598
C80_2 C 0.1265(5) 0.8735(3) 0.8662(4)
O42_2 O 0.1292(26) 0.9933(16) 0.7122(5)
C92_2 C 0.1421(5) 0.7284(3) 0.9855(3)
H50_2 H 0.0920 0.6909 0.9704
C93_2 C 0.0391(4) 0.8312(2) 0.7990(3)
C94_2 C 0.0544(5) 0.8162(3) 0.8442(3)
H52_2 H 0.0158 0.7671 0.8598
Fe11_2 Fe 0.94081(23) 0.05921(12) 0.6619(2)
O29_2 O 0.8767(15) 0.1234(7) 0.6596(7)
O30_7 O 1.0000 0.0000 0.6618(14)
H30_2 H 0.7949 0.0064 0.5405
H35_2 H 0.8025 0.0100 0.7835
O23_2 O 0.4717(21) 0.7950(15) 0.1138(5)
O25_2 O 0.8614(22) 0.9904(15) 0.6116(5)
O26_2 O 0.4697(22) 0.7939(14) 0.2135(6)
N9_2 N 0.7000(6) 0.8500(4) 0.4149(4)
N10_2 N 0.6224(6) 0.8112(4) 0.4141(4)
C43_2 C 0.4928(4) 0.7464(3) 0.0978(3)
C44_2 C 0.5318(3) 0.7659(2) 0.0508(3)
C45_2 C 0.5498(3) 0.7100(2) 0.0293(3)
H25_2 H 0.5372 0.6598 0.0443
C53_2 C 0.8358(4) 0.9179(3) 0.5946(4)
C54_2 C 0.7998(3) 0.8999(2) 0.5468(3)
C55_2 C 0.7334(4) 0.8667(3) 0.4591(4)
C56_2 C 0.4928(4) 0.7464(3) 0.2328(4)
C57_2 C 0.5272(3) 0.7636(2) 0.2810(3)
C58_2 C 0.5906(4) 0.7953(3) 0.3695(4)
O27_2 O 0.4546(20) 0.9093(18) 0.1668(7)
O30_8 O 1.0000 1.0000 0.6618(14)
C59_2 C 0.5751(4) 0.8524(3) 0.3479(3)
H29_2 H 0.5861 0.9016 0.3634
C60_2 C 0.7834(3) 0.9568(2) 0.5252(3)
C61_2 C 0.7497(4) 0.9397(3) 0.4806(3)
H31_2 H 0.7380 0.9776 0.4651
C62_2 C 0.5429(3) 0.8365(2) 0.3029(3)
H32_2 H 0.5319 0.8749 0.2875
O31_2 O 0.4717(21) 0.6767(15) 0.1138(5)
C63_2 C 0.5498(3) 0.8398(2) 0.0293(3)
H33_2 H 0.5372 0.8774 0.0443
O33_2 O 0.8614(22) 0.8710(16) 0.6116(5)
O34_2 O 0.4697(22) 0.6758(17) 0.2135(6)
C67_2 C 0.5751(4) 0.7227(3) 0.3479(3)
H37_2 H 0.5861 0.6845 0.3634
C68_2 C 0.7834(3) 0.8266(2) 0.5252(3)
H38_2 H 0.7949 0.7885 0.5405
C69_2 C 0.7497(4) 0.8100(3) 0.4806(3)
H39_2 H 0.7380 0.7604 0.4651
C70_2 C 0.5429(3) 0.7064(2) 0.3029(3)
H40_2 H 0.5319 0.6570 0.2875
Fe13_2 Fe 0.94079(30) 0.8816(2) 0.6619(2)
O40_2 O 0.8766(20) 0.7533(13) 0.6596(7)
H46_2 H 0.9936 0.7885 0.5405
Fe14_2 Fe 0.39212(30) 0.60792(23) 0.1624(2)
O45_2 O 0.3233(26) 0.5283(21) 0.1138(5)
O47_2 O 0.1290(27) 0.1386(22) 0.6116(5)
O48_2 O 0.3242(26) 0.5303(22) 0.2135(6)
N17_2 N 0.1500(7) 0.3000(6) 0.4149(4)
N18_2 N 0.1888(7) 0.3776(6) 0.4141(4)
C99_2 C 0.2536(5) 0.5072(4) 0.0978(3)
C100_2 C 0.2341(4) 0.4682(3) 0.0508(3)
C101_2 C 0.1602(4) 0.4502(3) 0.0293(3)
H57_2 H 0.1226 0.4628 0.0443
C109_2 C 0.0821(5) 0.1642(4) 0.5946(4)
C110_2 C 0.1001(4) 0.2002(3) 0.5468(3)
C111_2 C 0.1333(5) 0.2666(4) 0.4591(4)
C112_2 C 0.2536(5) 0.5072(4) 0.2328(4)
C113_2 C 0.2364(4) 0.4728(3) 0.2810(3)
C114_2 C 0.2047(5) 0.4094(4) 0.3695(4)
O49_2 O 0.4547(27) 0.5454(20) 0.1668(7)
O50_2 O 0.2467(17) 0.1233(15) 0.6596(7)
C115_2 C 0.2773(5) 0.4249(4) 0.3479(3)
H61_2 H 0.3155 0.4139 0.3634
C116_2 C 0.1734(4) 0.2166(3) 0.5252(3)
H62_2 H 0.2115 0.2051 0.5405
C117_2 C 0.1900(5) 0.2503(4) 0.4806(3)
H63_2 H 0.2396 0.2620 0.4651
C118_2 C 0.2936(4) 0.4571(3) 0.3029(3)
H64_2 H 0.3430 0.4681 0.2875
C119_2 C 0.2900(4) 0.4502(3) 0.0293(3)
H65_2 H 0.3402 0.4628 0.0443
C123_2 C 0.1476(5) 0.4249(4) 0.3479(3)
H69_2 H 0.0984 0.4139 0.3634
C124_2 C 0.0432(4) 0.2166(3) 0.5252(3)
C125_2 C 0.0603(5) 0.2503(4) 0.4806(3)
H71_2 H 0.0224 0.2620 0.4651
C126_2 C 0.1635(4) 0.4571(3) 0.3029(3)
H72_2 H 0.1251 0.4681 0.2875
O57_2 O 0.8641(21) 0.9933(16) 0.7122(5)
O59_2 O 0.1292(26) 0.1359(21) 0.7122(5)
O62_2 O 0.8641(21) 0.8708(14) 0.7122(5)
N7_2 N 0.6406(6) 0.8203(4) 0.9203(4)
N8_2 N 0.7166(6) 0.8583(4) 0.9116(4)
C46_2 C 0.5863(4) 0.7284(3) 0.9855(3)
H26_2 H 0.5989 0.6909 0.9704
C47_2 C 0.6040(4) 0.8020(3) 0.9642(4)
C48_2 C 0.8398(4) 0.9199(3) 0.7282(4)
C49_2 C 0.8070(3) 0.9035(2) 0.7768(3)
C50_2 C 0.7921(3) 0.8312(2) 0.7990(3)
H27_2 H 0.8025 0.7925 0.7835
C51_2 C 0.7618(4) 0.8162(3) 0.8442(3)
H28_2 H 0.7513 0.7671 0.8598
C52_2 C 0.7470(4) 0.8735(3) 0.8662(4)
C64_2 C 0.5863(4) 0.8579(3) 0.9855(3)
H34_2 H 0.5989 0.9080 0.9704
C65_2 C 0.7921(3) 0.9609(2) 0.7990(3)
C66_2 C 0.7618(4) 0.9456(3) 0.8442(3)
H36_2 H 0.7513 0.9842 0.8598
H51_2 H 0.9900 0.7925 0.7835
N15_2 N 0.1797(7) 0.3594(6) 0.9203(4)
N16_2 N 0.1417(7) 0.2834(6) 0.9116(4)
C102_2 C 0.1421(5) 0.4137(4) 0.9855(3)
H58_2 H 0.0920 0.4011 0.9704
C103_2 C 0.1980(5) 0.3960(4) 0.9642(4)
C104_2 C 0.0801(5) 0.1602(4) 0.7282(4)
C105_2 C 0.0965(4) 0.1930(3) 0.7768(3)
C106_2 C 0.0391(4) 0.2079(3) 0.7990(3)
C107_2 C 0.0544(5) 0.2382(4) 0.8442(3)
H60_2 H 0.0158 0.2487 0.8598
C108_2 C 0.1265(5) 0.2530(4) 0.8662(4)
C120_2 C 0.2716(5) 0.4137(4) 0.9855(3)
H66_2 H 0.3091 0.4011 0.9704
C121_2 C 0.1688(4) 0.2079(3) 0.7990(3)
H67_2 H 0.2075 0.1975 0.7835
C122_2 C 0.1838(5) 0.2382(4) 0.8442(3)
H68_2 H 0.2329 0.2487 0.8598
H70_2 H 0.9936 0.2051 0.5405
H59_2 H 0.9900 0.1975 0.7835
loop_
_geom_bond_atom_site_label_1
_geom_bond_atom_site_label_2
_geom_bond_site_symmetry_1
_geom_bond_site_symmetry_2
O2 C6 1_555 1_555
C6 C7 1_555 1_555
C7 C8 1_555 1_555
C8 H3 1_555 1_555
C9 C8 1_555 1_555
H4 C9 1_555 1_555
C10 C9 1_555 1_555
O6 C6 1_555 1_555
C13 C7 1_555 1_555
H7 C13 1_555 1_555
C14 C10 1_555 1_555
H8 C14 1_555 1_555
Fe5 O2 1_555 1_555
Fe7 O6 1_555 1_555
C13 C14 1_555 1_555
Fe1 O1 1_555 1_555
O1 C1 1_555 1_555
C1 C2 1_555 1_555
C2 C3 1_555 1_555
C3 H1 1_555 1_555
C4 C3 1_555 1_555
H2 C4 1_555 1_555
O3 Fe1 1_555 1_555
O4 Fe1 1_555 1_555
O5 C1 1_555 1_555
C11 C2 1_555 1_555
H5 C11 1_555 1_555
C12 C5 1_555 1_555
H6 C12 1_555 1_555
Fe2 O4 1_555 1_555
O7 Fe2 1_555 1_555
O8 C20 1_555 1_555
N3 N4 1_555 1_555
N4 C24 1_555 1_555
C15 O7 1_555 1_555
C16 C15 1_555 1_555
C17 C16 1_555 1_555
H9 C17 1_555 1_555
C18 C17 1_555 1_555
H10 C18 1_555 1_555
C19 N3 1_555 1_555
C20 C21 1_555 1_555
C21 C22 1_555 1_555
C22 H11 1_555 1_555
C23 C22 1_555 1_555
H12 C23 1_555 1_555
C24 C23 1_555 1_555
O9 Fe2 1_555 1_555
O10 Fe1 1_555 1_555
O11 C20 1_555 1_555
C25 C16 1_555 1_555
H13 C25 1_555 1_555
C26 C19 1_555 1_555
H14 C26 1_555 1_555
C27 C21 1_555 1_555
H15 C27 1_555 1_555
C28 C24 1_555 1_555
H16 C28 1_555 1_555
Fe3 O4 1_555 1_555
O12 Fe3 1_555 1_555
C29 O12 1_555 1_555
C30 C29 1_555 1_555
C31 C30 1_555 1_555
H17 C31 1_555 1_555
C32 C31 1_555 1_555
H18 C32 1_555 1_555
O14 Fe3 1_555 1_555
O15 Fe2 1_555 1_555
C39 C30 1_555 1_555
H21 C39 1_555 1_555
C40 C33 1_555 1_555
H22 C40 1_555 1_555
Fe7 O8 1_555 1_555
Fe9 O11 1_555 1_555
O17 Fe2 1_555 1_555
O18 Fe3 1_555 1_555
O19 Fe1 1_555 1_555
O20 Fe3 1_555 1_555
O21 Fe2 1_555 1_555
O22 Fe1 1_555 1_555
C4 C5 1_555 1_555
O5 Fe3 1_555 1_555
C11 C12 1_555 1_555
C15 O10 1_555 1_555
C18 C19 1_555 1_555
C25 C26 1_555 1_555
C27 C28 1_555 1_555
C29 O15 1_555 1_555
C32 C33 1_555 1_555
C39 C40 1_555 1_555
O13 C34 1_555 1_555
C34 C35 1_555 1_555
C35 C36 1_555 1_555
C36 H19 1_555 1_555
C37 C36 1_555 1_555
H20 C37 1_555 1_555
C38 C37 1_555 1_555
O16 C34 1_555 1_555
C41 C35 1_555 1_555
H23 C41 1_555 1_555
C42 C38 1_555 1_555
H24 C42 1_555 1_555
Fe5 O16 1_555 1_555
Fe9 O13 1_555 1_555
C41 C42 1_555 1_555
O17 C6_2 1_555 1_555
C6_2 C7_2 1_555 1_555
C7_2 C8_2 1_555 1_555
C8_2 H3_2 1_555 1_555
C9_2 C8_2 1_555 1_555
H4_2 C9_2 1_555 1_555
C10_2 C9_2 1_555 1_555
O20 C6_2 1_555 1_555
C13_2 C7_2 1_555 1_555
H7_2 C13_2 1_555 1_555
C14_2 C10_2 1_555 1_555
H8_2 C14_2 1_555 1_555
C13_2 C14_2 1_555 1_555
O19 C34_2 1_555 1_555
C34_2 C35_2 1_555 1_555
C35_2 C36_2 1_555 1_555
C36_2 H19_2 1_555 1_555
C37_2 C36_2 1_555 1_555
H20_2 C37_2 1_555 1_555
C38_2 C37_2 1_555 1_555
O21 C34_2 1_555 1_555
C41_2 C35_2 1_555 1_555
H23_2 C41_2 1_555 1_555
C42_2 C38_2 1_555 1_555
H24_2 C42_2 1_555 1_555
C41_2 C42_2 1_555 1_555
Fe5 O1_2 1_555 1_555
O1_2 C1_2 1_555 1_555
C1_2 C2_2 1_555 1_555
C2_2 C3_2 1_555 1_555
C3_2 H1_2 1_555 1_555
C4_2 C3_2 1_555 1_555
H2_2 C4_2 1_555 1_555
O3_2 Fe5 1_555 1_555
O4_2 Fe5 1_555 1_555
O5_2 C1_2 1_555 1_555
C11_2 C2_2 1_555 1_555
H5_2 C11_2 1_555 1_555
C12_2 C5_2 1_555 1_555
H6_2 C12_2 1_555 1_555
Fe7 O4_2 1_555 1_555
O7_2 Fe7 1_555 1_555
C15_2 O7_2 1_555 1_555
C16_2 C15_2 1_555 1_555
C17_2 C16_2 1_555 1_555
H9_2 C17_2 1_555 1_555
C18_2 C17_2 1_555 1_555
H10_2 C18_2 1_555 1_555
O9_2 Fe7 1_555 1_555
O10_2 Fe5 1_555 1_555
C25_2 C16_2 1_555 1_555
H13_2 C25_2 1_555 1_555
C26_2 C19_2 1_555 1_555
H14_2 C26_2 1_555 1_555
Fe9 O4_2 1_555 1_555
O12_2 Fe9 1_555 1_555
N5_2 N6_2 1_555 1_555
C29_2 O12_2 1_555 1_555
C30_2 C29_2 1_555 1_555
C31_2 C30_2 1_555 1_555
H17_2 C31_2 1_555 1_555
C32_2 C31_2 1_555 1_555
H18_2 C32_2 1_555 1_555
C33_2 N5_2 1_555 1_555
O14_2 Fe9 1_555 1_555
O15_2 Fe7 1_555 1_555
C39_2 C30_2 1_555 1_555
H21_2 C39_2 1_555 1_555
C40_2 C33_2 1_555 1_555
H22_2 C40_2 1_555 1_555
C4_2 C5_2 1_555 1_555
O5_2 Fe9 1_555 1_555
C11_2 C12_2 1_555 1_555
C15_2 O10_2 1_555 1_555
C18_2 C19_2 1_555 1_555
C25_2 C26_2 1_555 1_555
C29_2 O15_2 1_555 1_555
C32_2 C33_2 1_555 1_555
C39_2 C40_2 1_555 1_555
O18 C20_2 1_555 1_555
C20_2 C21_2 1_555 1_555
C21_2 C22_2 1_555 1_555
C22_2 H11_2 1_555 1_555
C23_2 C22_2 1_555 1_555
H12_2 C23_2 1_555 1_555
C24_2 C23_2 1_555 1_555
O22 C20_2 1_555 1_555
C27_2 C21_2 1_555 1_555
H15_2 C27_2 1_555 1_555
C28_2 C24_2 1_555 1_555
H16_2 C28_2 1_555 1_555
C27_2 C28_2 1_555 1_555
O29 Fe11 1_555 1_555
O30 Fe11 1_555 1_555
O60 Fe11 1_555 1_555
O63 Fe11 1_555 1_555
Fe24 O30_2 1_555 1_555
O25 C53 1_555 1_555
C53 C54 1_555 1_555
C54 C60 1_555 1_555
O33 C53 1_555 1_555
C68 C54 1_555 1_555
O47 C109 1_555 1_555
C109 C110 1_555 1_555
C110 C116 1_555 1_555
O63 C109 1_555 1_555
C124 C110 1_555 1_555
H70 C124 1_555 1_555
Fe10 O23 1_555 1_555
O23 C43 1_555 1_555
O57 C48 1_555 1_555
O26 Fe10 1_555 1_555
N7 N8 1_555 1_555
N8 C52 1_555 1_555
N9 N10 1_555 1_555
N10 C58 1_555 1_555
C43 C44 1_555 1_555
C44 C45 1_555 1_555
C45 H25 1_555 1_555
C46 C45 1_555 1_555
H26 C46 1_555 1_555
C47 N7 1_555 1_555
C48 C49 1_555 1_555
C49 C50 1_555 1_555
C51 C50 1_555 1_555
H28 C51 1_555 1_555
C52 C51 1_555 1_555
C55 N9 1_555 1_555
C56 O26 1_555 1_555
C57 C56 1_555 1_555
C58 C59 1_555 1_555
O27 Fe10 1_555 1_555
O28 Fe10 1_555 1_555
C59 H29 1_555 1_555
C61 C55 1_555 1_555
H31 C61 1_555 1_555
C62 C57 1_555 1_555
H32 C62 1_555 1_555
O31 C43 1_555 1_555
O62 C48 1_555 1_555
C63 C44 1_555 1_555
H33 C63 1_555 1_555
C64 C47 1_555 1_555
H34 C64 1_555 1_555
C65 C49 1_555 1_555
C66 C52 1_555 1_555
H36 C66 1_555 1_555
O34 C56 1_555 1_555
C67 C58 1_555 1_555
H37 C67 1_555 1_555
C69 C55 1_555 1_555
H39 C69 1_555 1_555
C70 C57 1_555 1_555
H40 C70 1_555 1_555
Fe14 O28 1_555 1_555
O45 Fe14 1_555 1_555
O59 C104 1_555 1_555
O48 Fe14 1_555 1_555
N15 N16 1_555 1_555
N16 C108 1_555 1_555
N17 N18 1_555 1_555
N18 C114 1_555 1_555
C99 O45 1_555 1_555
C100 C99 1_555 1_555
C101 C100 1_555 1_555
H57 C101 1_555 1_555
C102 C101 1_555 1_555
H58 C102 1_555 1_555
C103 N15 1_555 1_555
C104 C105 1_555 1_555
C105 C106 1_555 1_555
C106 H59 1_555 1_555
C107 C106 1_555 1_555
H60 C107 1_555 1_555
C108 C107 1_555 1_555
C111 N17 1_555 1_555
C112 O48 1_555 1_555
C113 C112 1_555 1_555
C114 C115 1_555 1_555
O49 Fe14 1_555 1_555
C115 H61 1_555 1_555
C117 C111 1_555 1_555
H63 C117 1_555 1_555
C118 C113 1_555 1_555
H64 C118 1_555 1_555
O51 C99 1_555 1_555
O60 C104 1_555 1_555
C119 C100 1_555 1_555
H65 C119 1_555 1_555
C120 C103 1_555 1_555
H66 C120 1_555 1_555
C121 C105 1_555 1_555
C122 C108 1_555 1_555
H68 C122 1_555 1_555
O54 C112 1_555 1_555
C123 C114 1_555 1_555
H69 C123 1_555 1_555
C125 C111 1_555 1_555
H71 C125 1_555 1_555
C126 C113 1_555 1_555
H72 C126 1_555 1_555
Fe17 O28 1_555 1_555
O56 Fe10 1_555 1_555
O66 Fe10 1_555 1_555
C46 C47 1_555 1_555
C59 C62 1_555 1_555
O31 Fe14 1_555 1_555
C63 C64 1_555 1_555
C65 C66 1_555 1_555
O34 Fe14 1_555 1_555
C67 C70 1_555 1_555
C102 C103 1_555 1_555
C115 C118 1_555 1_555
O51 Fe17 1_555 1_555
C119 C120 1_555 1_555
C121 C122 1_555 1_555
O54 Fe17 1_555 1_555
C123 C126 1_555 1_555
Fe13 O30_4 1_555 1_555
O37 Fe13 1_555 1_555
C81 O37 1_555 1_555
C82 C81 1_555 1_555
O40 Fe13 1_555 1_555
C88 C82 1_555 1_555
H46 C88 1_555 1_555
O43 C81 1_555 1_555
C96 C82 1_555 1_555
O50 Fe24 1_555 1_555
O58 Fe13 1_555 1_555
Fe17 O35 1_555 1_555
O35 C71 1_555 1_555
O58 C76 1_555 1_555
O38 Fe17 1_555 1_555
N11 N12 1_555 1_555
N12 C80 1_555 1_555
N13 N14 1_555 1_555
N14 C86 1_555 1_555
C71 C72 1_555 1_555
C72 C73 1_555 1_555
C73 H41 1_555 1_555
C74 C73 1_555 1_555
H42 C74 1_555 1_555
C75 N11 1_555 1_555
C76 C77 1_555 1_555
C77 C78 1_555 1_555
C79 C78 1_555 1_555
H44 C79 1_555 1_555
C80 C79 1_555 1_555
C83 N13 1_555 1_555
C84 O38 1_555 1_555
C85 C84 1_555 1_555
C86 C87 1_555 1_555
O39 Fe17 1_555 1_555
C87 H45 1_555 1_555
C89 C83 1_555 1_555
H47 C89 1_555 1_555
C90 C85 1_555 1_555
H48 C90 1_555 1_555
O56 C71 1_555 1_555
O42 C76 1_555 1_555
C91 C72 1_555 1_555
H49 C91 1_555 1_555
C92 C75 1_555 1_555
H50 C92 1_555 1_555
C93 C77 1_555 1_555
H51 C93 1_555 1_555
C94 C80 1_555 1_555
H52 C94 1_555 1_555
O66 C84 1_555 1_555
C95 C86 1_555 1_555
H53 C95 1_555 1_555
C97 C83 1_555 1_555
H55 C97 1_555 1_555
C98 C85 1_555 1_555
H56 C98 1_555 1_555
C74 C75 1_555 1_555
C87 C90 1_555 1_555
C91 C92 1_555 1_555
C93 C94 1_555 1_555
C95 C98 1_555 1_555
Fe24_2 O30_5 1_555 1_555
Fe12 O35_2 1_555 1_555
O35_2 C71_2 1_555 1_555
O38_2 Fe12 1_555 1_555
N13_2 N14_2 1_555 1_555
N14_2 C86_2 1_555 1_555
C71_2 C72_2 1_555 1_555
C72_2 C73_2 1_555 1_555
C73_2 H41_2 1_555 1_555
C81_2 O37_2 1_555 1_555
C82_2 C81_2 1_555 1_555
C83_2 N13_2 1_555 1_555
C84_2 O38_2 1_555 1_555
C85_2 C84_2 1_555 1_555
C86_2 C87_2 1_555 1_555
O39_2 Fe12 1_555 1_555
C87_2 H45_2 1_555 1_555
C88_2 C82_2 1_555 1_555
C89_2 C83_2 1_555 1_555
H47_2 C89_2 1_555 1_555
C90_2 C85_2 1_555 1_555
H48_2 C90_2 1_555 1_555
O41 C71_2 1_555 1_555
C91_2 C72_2 1_555 1_555
H49_2 C91_2 1_555 1_555
O43_2 C81_2 1_555 1_555
O44 C84_2 1_555 1_555
C95_2 C86_2 1_555 1_555
H53_2 C95_2 1_555 1_555
C96_2 C82_2 1_555 1_555
C97_2 C83_2 1_555 1_555
H55_2 C97_2 1_555 1_555
C98_2 C85_2 1_555 1_555
H56_2 C98_2 1_555 1_555
Fe16 O41 1_555 1_555
O55 Fe12 1_555 1_555
O65 Fe12 1_555 1_555
O67 Fe12 1_555 1_555
C87_2 C90_2 1_555 1_555
C88_2 C89_2 1_555 1_555
O44 Fe16 1_555 1_555
C95_2 C98_2 1_555 1_555
C96_2 C97_2 1_555 1_555
Fe16 O67 1_555 1_555
O58_2 C76_2 1_555 1_555
N11_2 N12_2 1_555 1_555
N12_2 C80_2 1_555 1_555
H42_2 C74_2 1_555 1_555
C75_2 N11_2 1_555 1_555
C76_2 C77_2 1_555 1_555
C77_2 C78_2 1_555 1_555
C79_2 C78_2 1_555 1_555
H44_2 C79_2 1_555 1_555
C80_2 C79_2 1_555 1_555
O42_2 C76_2 1_555 1_555
C92_2 C75_2 1_555 1_555
H50_2 C92_2 1_555 1_555
C93_2 C77_2 1_555 1_555
C94_2 C80_2 1_555 1_555
H52_2 C94_2 1_555 1_555
C74_2 C75_2 1_555 1_555
C93_2 C94_2 1_555 1_555
O29_2 Fe11_2 1_555 1_555
O30_7 Fe11_2 1_555 1_555
Fe16 O23_2 1_555 1_555
O23_2 C43_2 1_555 1_555
O25_2 C53_2 1_555 1_555
O26_2 Fe16 1_555 1_555
N9_2 N10_2 1_555 1_555
N10_2 C58_2 1_555 1_555
C43_2 C44_2 1_555 1_555
C44_2 C45_2 1_555 1_555
C45_2 H25_2 1_555 1_555
C53_2 C54_2 1_555 1_555
C54_2 C60_2 1_555 1_555
C55_2 N9_2 1_555 1_555
C56_2 O26_2 1_555 1_555
C57_2 C56_2 1_555 1_555
C58_2 C59_2 1_555 1_555
O27_2 Fe16 1_555 1_555
C59_2 H29_2 1_555 1_555
C61_2 C55_2 1_555 1_555
H31_2 C61_2 1_555 1_555
C62_2 C57_2 1_555 1_555
H32_2 C62_2 1_555 1_555
O31_2 C43_2 1_555 1_555
C63_2 C44_2 1_555 1_555
H33_2 C63_2 1_555 1_555
O33_2 C53_2 1_555 1_555
O34_2 C56_2 1_555 1_555
C67_2 C58_2 1_555 1_555
H37_2 C67_2 1_555 1_555
C68_2 C54_2 1_555 1_555
H38_2 C68_2 1_555 1_555
C69_2 C55_2 1_555 1_555
H39_2 C69_2 1_555 1_555
C70_2 C57_2 1_555 1_555
H40_2 C70_2 1_555 1_555
Fe13_2 O30_8 1_555 1_555
O40_2 Fe13_2 1_555 1_555
Fe14_2 O67 1_555 1_555
Fe24_2 O47_2 1_555 1_555
O45_2 Fe14_2 1_555 1_555
O47_2 C109_2 1_555 1_555
O48_2 Fe14_2 1_555 1_555
N17_2 N18_2 1_555 1_555
N18_2 C114_2 1_555 1_555
C99_2 O45_2 1_555 1_555
C100_2 C99_2 1_555 1_555
C101_2 C100_2 1_555 1_555
H57_2 C101_2 1_555 1_555
C109_2 C110_2 1_555 1_555
C110_2 C116_2 1_555 1_555
C111_2 N17_2 1_555 1_555
C112_2 O48_2 1_555 1_555
C113_2 C112_2 1_555 1_555
C114_2 C115_2 1_555 1_555
O49_2 Fe14_2 1_555 1_555
O50_2 Fe24_2 1_555 1_555
C115_2 H61_2 1_555 1_555
C116_2 H62_2 1_555 1_555
C117_2 C111_2 1_555 1_555
H63_2 C117_2 1_555 1_555
C118_2 C113_2 1_555 1_555
H64_2 C118_2 1_555 1_555
O55 C99_2 1_555 1_555
C119_2 C100_2 1_555 1_555
H65_2 C119_2 1_555 1_555
O63_2 C109_2 1_555 1_555
O65 C112_2 1_555 1_555
C123_2 C114_2 1_555 1_555
H69_2 C123_2 1_555 1_555
C124_2 C110_2 1_555 1_555
C125_2 C111_2 1_555 1_555
H71_2 C125_2 1_555 1_555
C126_2 C113_2 1_555 1_555
H72_2 C126_2 1_555 1_555
O59_2 Fe24_2 1_555 1_555
O62_2 Fe13_2 1_555 1_555
C59_2 C62_2 1_555 1_555
C60_2 C61_2 1_555 1_555
O31_2 Fe14_2 1_555 1_555
O33_2 Fe13_2 1_555 1_555
O34_2 Fe14_2 1_555 1_555
C67_2 C70_2 1_555 1_555
C68_2 C69_2 1_555 1_555
C115_2 C118_2 1_555 1_555
C116_2 C117_2 1_555 1_555
C123_2 C126_2 1_555 1_555
C124_2 C125_2 1_555 1_555
O57_2 C48_2 1_555 1_555
N7_2 N8_2 1_555 1_555
N8_2 C52_2 1_555 1_555
H26_2 C46_2 1_555 1_555
C47_2 N7_2 1_555 1_555
C48_2 C49_2 1_555 1_555
C49_2 C50_2 1_555 1_555
C50_2 H27_2 1_555 1_555
C51_2 C50_2 1_555 1_555
H28_2 C51_2 1_555 1_555
C52_2 C51_2 1_555 1_555
O62_2 C48_2 1_555 1_555
C64_2 C47_2 1_555 1_555
H34_2 C64_2 1_555 1_555
C65_2 C49_2 1_555 1_555
C66_2 C52_2 1_555 1_555
H36_2 C66_2 1_555 1_555
O59_2 C104_2 1_555 1_555
N15_2 N16_2 1_555 1_555
N16_2 C108_2 1_555 1_555
H58_2 C102_2 1_555 1_555
C103_2 N15_2 1_555 1_555
C104_2 C105_2 1_555 1_555
C105_2 C106_2 1_555 1_555
C107_2 C106_2 1_555 1_555
H60_2 C107_2 1_555 1_555
C108_2 C107_2 1_555 1_555
O60_2 C104_2 1_555 1_555
C120_2 C103_2 1_555 1_555
H66_2 C120_2 1_555 1_555
C121_2 C105_2 1_555 1_555
H67_2 C121_2 1_555 1_555
C122_2 C108_2 1_555 1_555
H68_2 C122_2 1_555 1_555
C46_2 C47_2 1_555 1_555
C65_2 C66_2 1_555 1_555
C102_2 C103_2 1_555 1_555
C121_2 C122_2 1_555 1_555

#END
