
###############################################################################
#
# This file contains modified crystal structure data generated from the
# MOF subset of the Cambridge Structural Database (CSD) v543 
# hosted by the Cambridge Crystallographic Data Centre (CCDC).
#
# This work is licensed under the Creative Commons
# Attribution-NonCommercial-ShareAlike 4.0 International License.
# To view a copy of this license, visit
# http://creativecommons.org/licenses/by-nc-sa/4.0/
# or send a letter to
# Creative Commons, PO Box 1866, Mountain View, CA 94042, USA.
#
# CIF created using the CSD Python API on 29 September 2022
# The structure has been converted into the P1 space group
# The structure has a 3D framework
# The original CSD entry TOWNOK is in the hexagonal crystal system
# The original CSD entry TOWNOK is in a Sohncke space group
# The framework has been calculated to contain at least 10.0% void space
# The void calculation uses a probe of radius 1.32A, grid spacing 0.4
# H atom positions have been added when not included in the experimental data
# Generated hydrogen atom positions removed from atoms on special positions
#
###############################################################################

data_TOWNOK
_chemical_formula_moiety         '(C84 H108 Fe6 O44 S15)n'
_symmetry_cell_setting           triclinic
_symmetry_space_group_name_H-M   'P 1'
_symmetry_Int_Tables_number      1
_space_group_name_Hall           'P 1'
loop_
_symmetry_equiv_pos_site_id
_symmetry_equiv_pos_as_xyz
1 x,y,z
_cell_length_a                   12.3081(8)
_cell_length_b                   12.3081(8)
_cell_length_c                   27.375(4)
_cell_angle_alpha                90
_cell_angle_beta                 90
_cell_angle_gamma                120
_cell_volume                     3591.42
loop_
_atom_site_label
_atom_site_type_symbol
_atom_site_fract_x
_atom_site_fract_y
_atom_site_fract_z
S3 S 0.34079(18) 0.0000 0.0000
O22 O 0.3391(4) 0.1148(3) 0.01129(10)
S3_2 S 0.34079(18) 0.0000 1.0000
O20 O 0.4759(4) 0.1458(3) 0.81129(10)
O21 O 0.6367(4) 0.1124(3) 0.79692(10)
C36 C 0.5502(6) 0.1119(4) 0.82351(12)
C37 C 0.5471(6) 0.0765(4) 0.87624(13)
C38 C 0.4524(5) 0.0595(5) 0.90613(16)
H17 H 0.3850 0.0686 0.8941
C39 C 0.4554(5) 0.0285(5) 0.95498(15)
C40 C 0.5525(5) 0.0163(5) 0.97349(13)
C41 C 0.6498(6) 0.0324(5) 0.94369(14)
H18 H 0.7178 0.0253 0.9564
C42 C 0.6464(6) 0.0592(5) 0.89492(15)
H19 H 0.7104 0.0663 0.8735
Fe5 Fe 0.75679(9) 0.24320(4) 0.7500
Fe9 Fe 0.48641(8) 0.24321(9) 0.7500
Fe1 Fe 0.24320(4) 0.48641(8) 0.2500
S1 S 0.0000 0.34079(18) 0.0000
O1 O 0.1458(3) 0.4759(4) 0.18871(10)
O2 O 0.1124(3) 0.6367(4) 0.20308(10)
O4 O 0.1488(2) 0.2975(5) 0.2500
O5 O 0.3333 0.6667 0.2500
C1 C 0.1119(4) 0.5502(6) 0.17649(12)
C2 C 0.0765(4) 0.5471(6) 0.12376(13)
C3 C 0.0595(5) 0.4524(5) 0.09387(16)
H2 H 0.0686 0.3850 0.1059
C4 C 0.0285(5) 0.4554(5) 0.04502(15)
C5 C 0.0163(5) 0.5525(5) 0.02651(13)
C6 C 0.0324(5) 0.6498(6) 0.05631(14)
H3 H 0.0253 0.7178 0.0436
C7 C 0.0592(5) 0.6464(6) 0.10508(15)
H4 H 0.0663 0.7104 0.1265
Fe2 Fe 0.51359(8) 0.75679(9) 0.2500
S2 S 0.65921(18) 0.65921(18) 0.0000
O9 O 0.5241(4) 0.6699(5) 0.18871(10)
O10 O 0.3633(4) 0.4757(5) 0.20308(10)
O12 O 0.7025(5) 0.8513(5) 0.2500
C15 C 0.4498(6) 0.5617(7) 0.17649(12)
C16 C 0.4529(6) 0.5294(7) 0.12376(13)
C17 C 0.5476(5) 0.6071(7) 0.09387(16)
H8 H 0.6150 0.6836 0.1059
C18 C 0.5446(5) 0.5731(7) 0.04502(15)
C19 C 0.4475(5) 0.4638(7) 0.02651(13)
C20 C 0.3502(6) 0.3826(8) 0.05631(14)
H9 H 0.2822 0.3075 0.0436
C21 C 0.3536(6) 0.4128(8) 0.10508(15)
H10 H 0.2896 0.3559 0.1265
O15 O 0.7757(5) 0.6609(4) 0.01129(10)
Fe3 Fe 0.24321(9) 0.75680(4) 0.2500
S3_3 S 0.34079(18) 1.0000 0.0000
O16 O 0.3301(5) 0.8542(3) 0.18871(10)
O17 O 0.5243(5) 0.8876(3) 0.20308(10)
O19 O 0.1487(5) 0.8512(2) 0.2500
C29 C 0.4383(7) 0.8881(4) 0.17649(12)
C30 C 0.4706(7) 0.9235(4) 0.12376(13)
C31 C 0.3929(7) 0.9405(5) 0.09387(16)
H14 H 0.3164 0.9314 0.1059
C32 C 0.4269(7) 0.9715(5) 0.04502(15)
C33 C 0.5362(7) 0.9837(5) 0.02651(13)
C34 C 0.6174(8) 0.9676(5) 0.05631(14)
H15 H 0.6925 0.9747 0.0436
C35 C 0.5872(8) 0.9408(5) 0.10508(15)
H16 H 0.6441 0.9337 0.1265
O23 O 0.5241(4) 0.8542(3) 0.31129(10)
O24 O 0.3301(5) 0.4759(4) 0.31129(10)
O25 O 0.1458(3) 0.6699(5) 0.31129(10)
O26 O 0.3633(4) 0.8876(3) 0.29692(10)
O27 O 0.5243(5) 0.6367(4) 0.29692(10)
O28 O 0.1124(3) 0.4757(5) 0.29692(10)
S1_2 S 0.0000 0.34079(18) 1.0000
O3 O 0.1148(3) 0.3391(4) 0.98871(10)
S2_2 S 0.65921(18) 0.65921(18) 1.0000
O11 O 0.6609(4) 0.7757(5) 0.98871(10)
O13 O 0.6699(5) 0.5241(4) 0.81129(10)
O14 O 0.4757(5) 0.3633(4) 0.79692(10)
C22 C 0.5617(7) 0.4498(6) 0.82351(12)
C23 C 0.5294(7) 0.4529(6) 0.87624(13)
C24 C 0.6071(7) 0.5476(5) 0.90613(16)
H11 H 0.6836 0.6150 0.8941
C25 C 0.5731(7) 0.5446(5) 0.95498(15)
C26 C 0.4638(7) 0.4475(5) 0.97349(13)
C27 C 0.3826(8) 0.3502(6) 0.94369(14)
H12 H 0.3075 0.2822 0.9564
C28 C 0.4128(8) 0.3536(6) 0.89492(15)
H13 H 0.3559 0.2896 0.8735
S3_4 S 0.34079(18) 1.0000 1.0000
O18 O 0.2243(5) 0.8852(3) 0.98871(10)
Fe7 Fe 0.75680(4) 0.51359(8) 0.7500
S1_3 S 1.0000 0.34079(18) 0.0000
O8 O 0.8852(3) 0.2243(5) 0.01129(10)
S1_4 S 1.0000 0.34079(18) 1.0000
O6 O 0.8542(3) 0.3301(5) 0.81129(10)
O7 O 0.8876(3) 0.5243(5) 0.79692(10)
C8 C 0.8881(4) 0.4383(7) 0.82351(12)
C9 C 0.9235(4) 0.4706(7) 0.87624(13)
C10 C 0.9405(5) 0.3929(7) 0.90613(16)
H5 H 0.9314 0.3164 0.8941
C11 C 0.9715(5) 0.4269(7) 0.95498(15)
C12 C 0.9837(5) 0.5362(7) 0.97349(13)
C13 C 0.9676(5) 0.6174(8) 0.94369(14)
H6 H 0.9747 0.6925 0.9564
C14 C 0.9408(5) 0.5872(8) 0.89492(15)
H7 H 0.9337 0.6441 0.8735
S2_3 S 0.00000(25) 0.65921(18) 0.5000
O15_2 O 0.1148(6) 0.7757(5) 0.51129(10)
C22_2 C 0.1119(9) 0.5617(7) 0.32351(12)
C23_2 C 0.0765(9) 0.5294(7) 0.37624(13)
C24_2 C 0.0595(9) 0.6071(7) 0.40613(16)
H11_2 H 0.0686 0.6836 0.3941
C25_2 C 0.0285(9) 0.5731(7) 0.45498(15)
C26_2 C 0.0163(9) 0.4638(7) 0.47349(13)
C27_2 C 0.0324(10) 0.3826(8) 0.44369(14)
H12_2 H 0.0253 0.3075 0.4564
C28_2 C 0.0592(10) 0.4128(8) 0.39492(15)
H13_2 H 0.0663 0.3559 0.3735
S1_5 S 0.65921(18) 0.0000 0.5000
O1_2 O 0.6699(5) 0.1458(3) 0.68871(10)
O2_2 O 0.4757(5) 0.1124(3) 0.70308(10)
O3_2 O 0.7757(5) 0.1148(3) 0.48871(10)
O4_2 O 0.8513(5) 0.1488(2) 0.7500
O5_2 O 0.6666 0.3333 0.7500
C1_2 C 0.5617(7) 0.1119(4) 0.67649(12)
C2_2 C 0.5294(7) 0.0765(4) 0.62376(13)
C3_2 C 0.6071(7) 0.0595(5) 0.59387(16)
H2_2 H 0.6836 0.0686 0.6059
C4_2 C 0.5731(7) 0.0285(5) 0.54502(15)
C5_2 C 0.4638(7) 0.0163(5) 0.52651(13)
C6_2 C 0.3826(8) 0.0324(5) 0.55631(14)
H3_2 H 0.3075 0.0253 0.5436
C7_2 C 0.4128(8) 0.0592(5) 0.60508(15)
H4_2 H 0.3559 0.0663 0.6265
S2_4 S 1.00000(25) 0.65921(18) 0.5000
O9_2 O 0.8542(6) 0.5241(4) 0.68871(10)
O10_2 O 0.8876(6) 0.3633(4) 0.70308(10)
O11_2 O 0.8852(6) 0.6609(4) 0.48871(10)
O12_2 O 0.8512(7) 0.7025(5) 0.7500
C15_2 C 0.8881(9) 0.4498(6) 0.67649(12)
C16_2 C 0.9235(9) 0.4529(6) 0.62376(13)
C17_2 C 0.9405(9) 0.5476(5) 0.59387(16)
H8_2 H 0.9314 0.6150 0.6059
C18_2 C 0.9715(9) 0.5446(5) 0.54502(15)
C19_2 C 0.9837(9) 0.4475(5) 0.52651(13)
C20_2 C 0.9676(10) 0.3502(6) 0.55631(14)
H9_2 H 0.9747 0.2822 0.5436
C21_2 C 0.9408(10) 0.3536(6) 0.60508(15)
H10_2 H 0.9337 0.2896 0.6265
S3_5 S 0.34079(18) 0.34079(18) 0.5000
O16_2 O 0.4759(6) 0.3301(5) 0.68871(10)
O17_2 O 0.6367(6) 0.5243(5) 0.70308(10)
O18_2 O 0.3391(6) 0.2243(5) 0.48871(10)
O19_2 O 0.2975(5) 0.1487(5) 0.7500
C29_2 C 0.5502(8) 0.4383(7) 0.67649(12)
C30_2 C 0.5471(8) 0.4706(7) 0.62376(13)
C31_2 C 0.4524(9) 0.3929(7) 0.59387(16)
H14_2 H 0.3850 0.3164 0.6059
C32_2 C 0.4554(9) 0.4269(7) 0.54502(15)
C33_2 C 0.5525(9) 0.5362(7) 0.52651(13)
C34_2 C 0.6498(9) 0.6174(8) 0.55631(14)
H15_2 H 0.7178 0.6925 0.5436
C35_2 C 0.6464(9) 0.5872(8) 0.60508(15)
H16_2 H 0.7104 0.6441 0.6265
O22_2 O 0.2243(5) 0.3391(4) 0.51129(10)
C36_2 C 0.4383(7) 0.5502(6) 0.32351(12)
C37_2 C 0.4706(7) 0.5471(6) 0.37624(13)
C38_2 C 0.3929(7) 0.4524(5) 0.40613(16)
H17_2 H 0.3164 0.3850 0.3941
C39_2 C 0.4269(7) 0.4554(5) 0.45498(15)
C40_2 C 0.5362(7) 0.5525(5) 0.47349(13)
C41_2 C 0.6174(8) 0.6498(6) 0.44369(14)
H18_2 H 0.6925 0.7178 0.4564
C42_2 C 0.5872(8) 0.6464(6) 0.39492(15)
H19_2 H 0.6441 0.7104 0.3735
S1_6 S 0.65921(18) 1.0000 0.5000
O8_2 O 0.6609(6) 0.8852(3) 0.51129(10)
C8_2 C 0.4498(8) 0.8881(4) 0.32351(12)
C9_2 C 0.4529(8) 0.9235(4) 0.37624(13)
C10_2 C 0.5476(9) 0.9405(5) 0.40613(16)
H5_2 H 0.6150 0.9314 0.3941
C11_2 C 0.5446(9) 0.9715(5) 0.45498(15)
C12_2 C 0.4475(9) 0.9837(5) 0.47349(13)
C13_2 C 0.3502(9) 0.9676(5) 0.44369(14)
H6_2 H 0.2822 0.9747 0.4564
C14_2 C 0.3536(9) 0.9408(5) 0.39492(15)
H7_2 H 0.2896 0.9337 0.3735
loop_
_geom_bond_atom_site_label_1
_geom_bond_atom_site_label_2
_geom_bond_site_symmetry_1
_geom_bond_site_symmetry_2
O22 S3 1_555 1_555
O20 C36 1_555 1_555
O21 C36 1_555 1_555
C36 C37 1_555 1_555
C37 C38 1_555 1_555
C38 H17 1_555 1_555
C39 S3_2 1_555 1_555
C41 C40 1_555 1_555
H18 C41 1_555 1_555
C42 C37 1_555 1_555
H19 C42 1_555 1_555
Fe5 O21 1_555 1_555
Fe9 O20 1_555 1_555
C38 C39 1_555 1_555
C39 C40 1_555 1_555
C41 C42 1_555 1_555
Fe1 O1 1_555 1_555
O1 C1 1_555 1_555
O2 C1 1_555 1_555
O4 Fe1 1_555 1_555
O5 Fe1 1_555 1_555
C1 C2 1_555 1_555
C2 C3 1_555 1_555
C3 H2 1_555 1_555
C4 S1 1_555 1_555
C5 C4 1_555 1_555
C6 C5 1_555 1_555
H3 C6 1_555 1_555
C7 C2 1_555 1_555
H4 C7 1_555 1_555
Fe2 O5 1_555 1_555
O9 Fe2 1_555 1_555
O10 Fe1 1_555 1_555
O12 Fe2 1_555 1_555
C15 O9 1_555 1_555
C16 C15 1_555 1_555
C17 C16 1_555 1_555
H8 C17 1_555 1_555
C18 S2 1_555 1_555
C19 C18 1_555 1_555
C20 C19 1_555 1_555
H9 C20 1_555 1_555
C21 C16 1_555 1_555
H10 C21 1_555 1_555
O15 S2 1_555 1_555
Fe3 O2 1_555 1_555
O16 Fe3 1_555 1_555
O17 Fe2 1_555 1_555
O19 Fe3 1_555 1_555
C29 O16 1_555 1_555
C30 C29 1_555 1_555
C31 C30 1_555 1_555
H14 C31 1_555 1_555
C32 S3_3 1_555 1_555
C33 C32 1_555 1_555
C34 C33 1_555 1_555
H15 C34 1_555 1_555
C35 C30 1_555 1_555
H16 C35 1_555 1_555
O23 Fe2 1_555 1_555
O24 Fe1 1_555 1_555
O25 Fe3 1_555 1_555
O26 Fe3 1_555 1_555
O27 Fe2 1_555 1_555
O28 Fe1 1_555 1_555
O5 Fe3 1_555 1_555
C3 C4 1_555 1_555
C6 C7 1_555 1_555
O10 C15 1_555 1_555
C17 C18 1_555 1_555
C20 C21 1_555 1_555
O17 C29 1_555 1_555
C31 C32 1_555 1_555
C34 C35 1_555 1_555
S1_2 O3 1_555 1_555
S2_2 O11 1_555 1_555
O13 C22 1_555 1_555
O14 C22 1_555 1_555
C22 C23 1_555 1_555
C23 C24 1_555 1_555
C24 H11 1_555 1_555
C25 S2_2 1_555 1_555
C27 C26 1_555 1_555
H12 C27 1_555 1_555
C28 C23 1_555 1_555
H13 C28 1_555 1_555
S3_4 O18 1_555 1_555
Fe7 O13 1_555 1_555
Fe9 O14 1_555 1_555
C24 C25 1_555 1_555
C25 C26 1_555 1_555
C27 C28 1_555 1_555
O8 S1_3 1_555 1_555
O6 C8 1_555 1_555
O7 C8 1_555 1_555
C8 C9 1_555 1_555
C9 C10 1_555 1_555
C10 H5 1_555 1_555
C11 S1_4 1_555 1_555
C13 C12 1_555 1_555
H6 C13 1_555 1_555
C14 C9 1_555 1_555
H7 C14 1_555 1_555
Fe5 O6 1_555 1_555
Fe7 O7 1_555 1_555
C10 C11 1_555 1_555
C11 C12 1_555 1_555
C13 C14 1_555 1_555
O25 C22_2 1_555 1_555
O28 C22_2 1_555 1_555
O15_2 S2_3 1_555 1_555
C22_2 C23_2 1_555 1_555
C23_2 C24_2 1_555 1_555
C24_2 H11_2 1_555 1_555
C25_2 S2_3 1_555 1_555
C27_2 C26_2 1_555 1_555
H12_2 C27_2 1_555 1_555
C28_2 C23_2 1_555 1_555
H13_2 C28_2 1_555 1_555
C24_2 C25_2 1_555 1_555
C25_2 C26_2 1_555 1_555
C27_2 C28_2 1_555 1_555
Fe5 O1_2 1_555 1_555
S1_5 O3_2 1_555 1_555
O1_2 C1_2 1_555 1_555
O2_2 C1_2 1_555 1_555
O4_2 Fe5 1_555 1_555
O5_2 Fe5 1_555 1_555
C1_2 C2_2 1_555 1_555
C2_2 C3_2 1_555 1_555
C3_2 H2_2 1_555 1_555
C4_2 S1_5 1_555 1_555
C5_2 C4_2 1_555 1_555
C6_2 C5_2 1_555 1_555
H3_2 C6_2 1_555 1_555
C7_2 C2_2 1_555 1_555
H4_2 C7_2 1_555 1_555
Fe7 O5_2 1_555 1_555
S2_4 O11_2 1_555 1_555
O9_2 Fe7 1_555 1_555
O10_2 Fe5 1_555 1_555
O12_2 Fe7 1_555 1_555
C15_2 O9_2 1_555 1_555
C16_2 C15_2 1_555 1_555
C17_2 C16_2 1_555 1_555
H8_2 C17_2 1_555 1_555
C18_2 S2_4 1_555 1_555
C19_2 C18_2 1_555 1_555
C20_2 C19_2 1_555 1_555
H9_2 C20_2 1_555 1_555
C21_2 C16_2 1_555 1_555
H10_2 C21_2 1_555 1_555
Fe9 O2_2 1_555 1_555
S3_5 O18_2 1_555 1_555
O16_2 Fe9 1_555 1_555
O17_2 Fe7 1_555 1_555
O19_2 Fe9 1_555 1_555
C29_2 O16_2 1_555 1_555
C30_2 C29_2 1_555 1_555
C31_2 C30_2 1_555 1_555
H14_2 C31_2 1_555 1_555
C32_2 S3_5 1_555 1_555
C33_2 C32_2 1_555 1_555
C34_2 C33_2 1_555 1_555
H15_2 C34_2 1_555 1_555
C35_2 C30_2 1_555 1_555
H16_2 C35_2 1_555 1_555
O24 C36_2 1_555 1_555
O27 C36_2 1_555 1_555
O22_2 S3_5 1_555 1_555
C36_2 C37_2 1_555 1_555
C37_2 C38_2 1_555 1_555
C38_2 H17_2 1_555 1_555
C39_2 S3_5 1_555 1_555
C40_2 C33_2 1_555 1_555
C41_2 C40_2 1_555 1_555
H18_2 C41_2 1_555 1_555
C42_2 C37_2 1_555 1_555
H19_2 C42_2 1_555 1_555
O5_2 Fe9 1_555 1_555
C3_2 C4_2 1_555 1_555
C6_2 C7_2 1_555 1_555
O10_2 C15_2 1_555 1_555
C17_2 C18_2 1_555 1_555
C20_2 C21_2 1_555 1_555
O17_2 C29_2 1_555 1_555
C31_2 C32_2 1_555 1_555
C34_2 C35_2 1_555 1_555
C38_2 C39_2 1_555 1_555
C39_2 C40_2 1_555 1_555
C41_2 C42_2 1_555 1_555
O23 C8_2 1_555 1_555
O26 C8_2 1_555 1_555
O8_2 S1_6 1_555 1_555
C8_2 C9_2 1_555 1_555
C9_2 C10_2 1_555 1_555
C10_2 H5_2 1_555 1_555
C11_2 S1_6 1_555 1_555
C13_2 C12_2 1_555 1_555
H6_2 C13_2 1_555 1_555
C14_2 C9_2 1_555 1_555
H7_2 C14_2 1_555 1_555
C10_2 C11_2 1_555 1_555
C11_2 C12_2 1_555 1_555
C13_2 C14_2 1_555 1_555

#END
