
###############################################################################
#
# This file contains modified crystal structure data generated from the
# MOF subset of the Cambridge Structural Database (CSD) v543 
# hosted by the Cambridge Crystallographic Data Centre (CCDC).
#
# This work is licensed under the Creative Commons
# Attribution-NonCommercial-ShareAlike 4.0 International License.
# To view a copy of this license, visit
# http://creativecommons.org/licenses/by-nc-sa/4.0/
# or send a letter to
# Creative Commons, PO Box 1866, Mountain View, CA 94042, USA.
#
# CIF created using the CSD Python API on 29 September 2022
# The structure has been converted into the P1 space group
# The structure has a 3D framework
# The original CSD entry TOWNEA is in the tetragonal crystal system
# The original CSD entry TOWNEA is in a Sohncke space group
# The framework has been calculated to contain at least 10.0% void space
# The void calculation uses a probe of radius 1.32A, grid spacing 0.4
# H atom positions have been added when not included in the experimental data
#
###############################################################################

data_TOWNEA
_chemical_formula_moiety         '(C336 H240 Fe24 O128)n'
_symmetry_cell_setting           triclinic
_symmetry_space_group_name_H-M   'P 1'
_symmetry_Int_Tables_number      1
_space_group_name_Hall           'P 1'
loop_
_symmetry_equiv_pos_site_id
_symmetry_equiv_pos_as_xyz
1 x,y,z
_cell_length_a                   21.757(11)
_cell_length_b                   21.757(11)
_cell_length_c                   35.299(18)
_cell_angle_alpha                90
_cell_angle_beta                 90
_cell_angle_gamma                90
_cell_volume                     16709.4
loop_
_atom_site_label
_atom_site_type_symbol
_atom_site_fract_x
_atom_site_fract_y
_atom_site_fract_z
Fe7 Fe 0.34314(4) 0.00239(6) 0.23610(3)
Fe1 Fe 0.78344(5) 0.50024(6) 0.10032(3)
Fe2 Fe 0.84314(4) 0.49761(6) 0.01390(3)
Fe3 Fe 0.69377(4) 0.50546(5) 0.02412(3)
O1 O 0.77350(18) 0.5025(2) 0.04680(11)
O2 O 0.7127(2) 0.4381(2) 0.10768(14)
O3 O 0.6696(2) 0.4272(2) 0.04915(14)
O4 O 0.7948(2) 0.4984(3) 0.15857(13)
O5 O 0.3423(3) 0.0724(2) 0.15092(15)
O9 O 0.3550(2) 0.9408(2) 0.15061(14)
O10 O 0.3831(2) 0.9303(2) 0.21255(14)
O13 O 0.3930(2) 0.0597(2) 0.20346(15)
O14 O 0.6560(2) 0.5521(2) 0.06572(13)
O16 O 0.7251(2) 0.5695(2) 0.11195(13)
C1 C 0.6753(5) 0.4131(5) 0.0834(3)
C2 C 0.6398(3) 0.3601(3) 0.09907(17)
C3 C 0.6033(3) 0.3287(3) 0.07315(12)
H1 H 0.6056 0.3386 0.0470
C4 C 0.5635(3) 0.2830(3) 0.08555(15)
H2 H 0.5386 0.2615 0.0678
C5 C 0.5602(3) 0.2686(3) 0.12386(17)
C6 C 0.5967(3) 0.3000(3) 0.14978(13)
H3 H 0.5944 0.2901 0.1760
C7 C 0.6364(3) 0.3457(3) 0.13738(15)
H4 H 0.6613 0.3672 0.1551
C8 C 0.5125(3) 0.2226(3) 0.13705(17)
C9 C 0.4610(3) 0.2100(3) 0.11512(14)
H5 H 0.4543 0.2317 0.0921
C10 C 0.4191(3) 0.1656(3) 0.12682(16)
H6 H 0.3839 0.1570 0.1118
C11 C 0.4288(3) 0.1338(3) 0.16044(17)
C12 C 0.4804(3) 0.1463(3) 0.18236(14)
H7 H 0.4870 0.1246 0.2053
C13 C 0.5222(3) 0.1907(3) 0.17067(16)
H8 H 0.5575 0.1993 0.1856
C14 C 0.3860(6) 0.0858(5) 0.1731(3)
C15 C 0.6729(4) 0.5806(4) 0.0953(2)
C16 C 0.6289(2) 0.6249(2) 0.11267(14)
C17 C 0.5779(2) 0.6410(2) 0.09118(11)
H9 H 0.5698 0.6204 0.0680
C18 C 0.53863(19) 0.6872(2) 0.10364(12)
H10 H 0.5037 0.6982 0.0890
C19 C 0.5505(2) 0.71732(19) 0.13759(13)
C20 C 0.6015(2) 0.7012(2) 0.15908(11)
H11 H 0.6096 0.7218 0.1823
C21 C 0.64076(19) 0.6550(2) 0.14662(13)
H12 H 0.6757 0.6440 0.1613
C22 C 0.5118(2) 0.77212(19) 0.14824(13)
C23 C 0.4940(2) 0.7806(2) 0.18569(11)
H13 H 0.5098 0.7544 0.2049
C24 C 0.4531(2) 0.8273(2) 0.19500(10)
H14 H 0.4409 0.8330 0.2206
C25 C 0.4301(2) 0.8655(2) 0.16685(14)
C26 C 0.4479(2) 0.8571(2) 0.12940(12)
H15 H 0.4321 0.8833 0.1102
C27 C 0.4888(2) 0.8104(2) 0.12009(10)
H16 H 0.5010 0.8046 0.0945
C28 C 0.3855(4) 0.9148(4) 0.1768(3)
Fe5 Fe 0.28344(5) 0.99976(6) 0.14968(3)
O17 O 0.8423(3) 0.4276(2) 0.09908(15)
O18 O 0.8550(2) 0.5592(2) 0.09939(14)
O19 O 0.8831(2) 0.5697(2) 0.03745(14)
O21 O 0.8930(2) 0.4403(2) 0.04654(15)
H28 H 0.58543 0.470778 0.00250667
H29 H 0.804593 0.455859 0.16678
H30 H 0.828975 0.526272 0.165819
O6 O 0.6072(2) 0.5105(2) 0.99906(13)
O7 O 0.8123(2) 0.4247(2) 0.98555(13)
O8 O 0.9189(2) 0.4917(3) 0.97607(14)
O11 O 0.7132(2) 0.4535(2) 0.97848(12)
O12 O 0.6915(2) 0.0567(2) 0.77505(12)
O15 O 0.7856(2) 0.0839(2) 0.75371(13)
C29 C 0.7612(4) 0.4193(4) 0.9711(2)
C30 C 0.7506(2) 0.3748(2) 0.93933(12)
C31 C 0.69381(19) 0.3664(2) 0.92207(14)
H17 H 0.6590 0.3886 0.9308
C32 C 0.68797(18) 0.3256(2) 0.89200(14)
H18 H 0.6491 0.3199 0.8802
C33 C 0.7389(2) 0.2932(2) 0.87919(12)
C34 C 0.79574(19) 0.3015(2) 0.89645(14)
H19 H 0.8306 0.2794 0.8877
C35 C 0.80158(18) 0.3424(2) 0.92652(13)
H20 H 0.8404 0.3481 0.9383
C36 C 0.7337(2) 0.2468(2) 0.84653(13)
C37 C 0.78396(19) 0.2368(2) 0.82303(14)
H21 H 0.8184 0.2636 0.8242
C38 C 0.78382(19) 0.1878(2) 0.79781(13)
H22 H 0.8182 0.1810 0.7818
C39 C 0.7334(2) 0.1487(2) 0.79609(13)
C40 C 0.68308(19) 0.1586(2) 0.81958(14)
H23 H 0.6486 0.1319 0.8184
C41 C 0.68323(19) 0.2077(2) 0.84480(13)
H24 H 0.6489 0.2145 0.8609
C42 C 0.7360(4) 0.0936(4) 0.7737(2)
Fe9 Fe 0.80623(4) 0.00546(5) 0.72588(3)
O20 O 0.8085(2) 0.5567(2) 0.97495(12)
O22 O 0.7144(2) 0.5839(2) 0.99629(13)
H25 H 0.914755 0.523578 0.956101
H26 H 0.957716 0.498398 0.99028
H27 H 0.611807 0.519181 0.971589
Fe8 Fe 0.65686(4) 0.99761(6) 0.73610(3)
Fe4 Fe 0.71656(5) 0.00024(6) 0.64968(3)
Fe1_2 Fe 0.21656(5) 0.49976(6) 0.60032(3)
Fe2_2 Fe 0.15686(4) 0.50239(6) 0.51390(3)
Fe3_2 Fe 0.30623(4) 0.49454(5) 0.52412(3)
O1_2 O 0.22650(18) 0.4975(2) 0.54680(11)
O2_2 O 0.2873(2) 0.5619(2) 0.60768(14)
O3_2 O 0.3304(2) 0.5728(2) 0.54915(14)
O4_2 O 0.2052(2) 0.5016(3) 0.65857(13)
O5_2 O 0.6577(3) 0.9276(2) 0.65092(15)
O6_2 O 0.3928(2) 0.4895(2) 0.49906(13)
O7_2 O 0.1877(2) 0.5753(2) 0.48555(13)
O8_2 O 0.0811(2) 0.5083(3) 0.47607(14)
O9_2 O 0.6450(2) 0.0592(2) 0.65061(14)
O10_2 O 0.6169(2) 0.0697(2) 0.71255(14)
O11_2 O 0.2868(2) 0.5465(2) 0.47848(12)
O12_2 O 0.3085(2) 0.9433(2) 0.27505(12)
O13_2 O 0.6070(2) 0.9403(2) 0.70346(15)
O14_2 O 0.3440(2) 0.4479(2) 0.56572(13)
O15_2 O 0.2144(2) 0.9161(2) 0.25371(13)
O16_2 O 0.2749(2) 0.4305(2) 0.61195(13)
C1_2 C 0.3247(5) 0.5869(5) 0.5834(3)
C2_2 C 0.3602(3) 0.6399(3) 0.59907(17)
C3_2 C 0.3967(3) 0.6713(3) 0.57315(12)
H1_2 H 0.3944 0.6614 0.5470
C4_2 C 0.4365(3) 0.7170(3) 0.58555(15)
H2_2 H 0.4614 0.7385 0.5678
C5_2 C 0.4398(3) 0.7314(3) 0.62386(17)
C6_2 C 0.4033(3) 0.7000(3) 0.64978(13)
H3_2 H 0.4056 0.7099 0.6760
C7_2 C 0.3636(3) 0.6543(3) 0.63738(15)
H4_2 H 0.3387 0.6328 0.6551
C8_2 C 0.4875(3) 0.7774(3) 0.63705(17)
C9_2 C 0.5390(3) 0.7900(3) 0.61512(14)
H5_2 H 0.5457 0.7683 0.5921
C10_2 C 0.5809(3) 0.8344(3) 0.62682(16)
H6_2 H 0.6161 0.8430 0.6118
C11_2 C 0.5712(3) 0.8662(3) 0.66044(17)
C12_2 C 0.5196(3) 0.8537(3) 0.68236(14)
H7_2 H 0.5130 0.8754 0.7053
C13_2 C 0.4778(3) 0.8093(3) 0.67067(16)
H8_2 H 0.4425 0.8007 0.6856
C14_2 C 0.6140(6) 0.9142(5) 0.6731(3)
C15_2 C 0.3271(4) 0.4194(4) 0.5953(2)
C16_2 C 0.3711(2) 0.3751(2) 0.61267(14)
C17_2 C 0.4221(2) 0.3590(2) 0.59118(11)
H9_2 H 0.4302 0.3796 0.5680
C18_2 C 0.46137(19) 0.3128(2) 0.60364(12)
H10_2 H 0.4963 0.3018 0.5890
C19_2 C 0.4495(2) 0.28268(19) 0.63759(13)
C20_2 C 0.3985(2) 0.2988(2) 0.65908(11)
H11_2 H 0.3904 0.2782 0.6823
C21_2 C 0.35924(19) 0.3450(2) 0.64662(13)
H12_2 H 0.3243 0.3560 0.6613
C22_2 C 0.4882(2) 0.22788(19) 0.64824(13)
C23_2 C 0.5060(2) 0.2194(2) 0.68569(11)
H13_2 H 0.4902 0.2456 0.7049
C24_2 C 0.5469(2) 0.1727(2) 0.69500(10)
H14_2 H 0.5591 0.1670 0.7206
C25_2 C 0.5699(2) 0.1345(2) 0.66685(14)
C26_2 C 0.5521(2) 0.1429(2) 0.62940(12)
H15_2 H 0.5679 0.1167 0.6102
C27_2 C 0.5112(2) 0.1896(2) 0.62009(10)
H16_2 H 0.4990 0.1954 0.5945
C28_2 C 0.6145(4) 0.0852(4) 0.6768(3)
C29_2 C 0.2388(4) 0.5807(4) 0.4711(2)
C30_2 C 0.2494(2) 0.6252(2) 0.43933(12)
C31_2 C 0.30619(19) 0.6336(2) 0.42207(14)
H17_2 H 0.3410 0.6114 0.4308
C32_2 C 0.31203(18) 0.6744(2) 0.39200(14)
H18_2 H 0.3509 0.6801 0.3802
C33_2 C 0.2611(2) 0.7068(2) 0.37919(12)
C34_2 C 0.20426(19) 0.6985(2) 0.39645(14)
H19_2 H 0.1694 0.7206 0.3877
C35_2 C 0.19842(18) 0.6576(2) 0.42652(13)
H20_2 H 0.1596 0.6519 0.4383
C36_2 C 0.2663(2) 0.7532(2) 0.34653(13)
C37_2 C 0.21604(19) 0.7632(2) 0.32303(14)
H21_2 H 0.1816 0.7364 0.3242
C38_2 C 0.21618(19) 0.8122(2) 0.29781(13)
H22_2 H 0.1818 0.8190 0.2818
C39_2 C 0.2666(2) 0.8513(2) 0.29609(13)
C40_2 C 0.31692(19) 0.8414(2) 0.31958(14)
H23_2 H 0.3514 0.8681 0.3184
C41_2 C 0.31677(19) 0.7923(2) 0.34480(13)
H24_2 H 0.3511 0.7855 0.3609
C42_2 C 0.2640(4) 0.9064(4) 0.2737(2)
Fe9_2 Fe 0.19377(4) 0.99454(5) 0.22588(3)
O17_2 O 0.1577(3) 0.5724(2) 0.59908(15)
O18_2 O 0.1450(2) 0.4408(2) 0.59939(14)
O19_2 O 0.1169(2) 0.4303(2) 0.53745(14)
O20_2 O 0.1915(2) 0.4433(2) 0.47495(12)
O21_2 O 0.1070(2) 0.5597(2) 0.54654(15)
O22_2 O 0.2856(2) 0.4161(2) 0.49629(13)
H25_2 H 0.0852454 0.476422 0.456101
H26_2 H 0.0422843 0.501602 0.49028
H27_2 H 0.388193 0.480819 0.471589
H28_2 H 0.41457 0.529222 0.502507
H29_2 H 0.195407 0.544141 0.66678
H30_2 H 0.171025 0.473728 0.665819
O2_3 O 0.2127(2) 0.0619(2) 0.14232(14)
O3_3 O 0.1696(2) 0.0728(2) 0.20085(14)
O4_3 O 0.2948(2) 0.0016(3) 0.09143(13)
O7_3 O 0.3123(2) 0.0753(2) 0.26445(13)
O8_3 O 0.4189(2) 0.0083(3) 0.27393(14)
O11_3 O 0.2132(2) 0.0465(2) 0.27152(12)
C1_3 C 0.1753(5) 0.0869(5) 0.1666(3)
C2_3 C 0.1398(3) 0.1399(3) 0.15093(17)
C3_3 C 0.1033(3) 0.1713(3) 0.17685(12)
H1_3 H 0.1056 0.1614 0.2030
C4_3 C 0.0635(3) 0.2170(3) 0.16445(15)
H2_3 H 0.0386 0.2385 0.1822
C5_3 C 0.0602(3) 0.2314(3) 0.12614(17)
C6_3 C 0.0967(3) 0.2000(3) 0.10022(13)
H3_3 H 0.0944 0.2099 0.0740
C7_3 C 0.1364(3) 0.1543(3) 0.11262(15)
H4_3 H 0.1613 0.1328 0.0949
C8_3 C 0.0125(3) 0.2774(3) 0.11295(17)
C13_3 C 0.0222(3) 0.3093(3) 0.07933(16)
H8_3 H 0.0575 0.3007 0.0644
C29_3 C 0.2612(4) 0.0807(4) 0.2789(2)
C30_3 C 0.2506(2) 0.1252(2) 0.31067(12)
C31_3 C 0.19381(19) 0.1336(2) 0.32793(14)
H17_3 H 0.1590 0.1114 0.3192
C32_3 C 0.18797(18) 0.1744(2) 0.35800(14)
H18_3 H 0.1491 0.1801 0.3698
C33_3 C 0.2389(2) 0.2068(2) 0.37081(12)
C34_3 C 0.29574(19) 0.1985(2) 0.35355(14)
H19_3 H 0.3306 0.2206 0.3623
C35_3 C 0.30158(18) 0.1576(2) 0.32348(13)
H20_3 H 0.3404 0.1519 0.3117
C36_3 C 0.2337(2) 0.2532(2) 0.40347(13)
C37_3 C 0.28396(19) 0.2632(2) 0.42697(14)
H21_3 H 0.3184 0.2364 0.4258
C38_3 C 0.28382(19) 0.3122(2) 0.45219(13)
H22_3 H 0.3182 0.3190 0.4682
C39_3 C 0.2334(2) 0.3513(2) 0.45391(13)
C40_3 C 0.18308(19) 0.3414(2) 0.43042(14)
H23_3 H 0.1486 0.3681 0.4316
C41_3 C 0.18323(19) 0.2923(2) 0.40520(13)
H24_3 H 0.1489 0.2855 0.3891
C42_3 C 0.2360(4) 0.4064(4) 0.4763(2)
H26_3 H 0.457716 0.00160212 0.25972
H28_3 H 0.08543 0.0292222 0.247493
H29_3 H 0.304593 0.0441408 0.0832197
O1_3 O 0.27350(18) 0.9975(2) 0.20320(11)
O6_3 O 0.1072(2) 0.9895(2) 0.25094(13)
O14_3 O 0.1560(2) 0.9479(2) 0.18428(13)
O16_3 O 0.2251(2) 0.9305(2) 0.13805(13)
C15_3 C 0.1729(4) 0.9194(4) 0.1547(2)
C16_3 C 0.1289(2) 0.8751(2) 0.13733(14)
C17_3 C 0.0779(2) 0.8590(2) 0.15882(11)
H9_3 H 0.0698 0.8796 0.1820
C18_3 C 0.03863(19) 0.8128(2) 0.14636(12)
H10_3 H 0.0037 0.8018 0.1610
C19_3 C 0.0505(2) 0.78268(19) 0.11241(13)
C20_3 C 0.1015(2) 0.7988(2) 0.09092(11)
H11_3 H 0.1096 0.7782 0.0677
C21_3 C 0.14076(19) 0.8450(2) 0.10338(13)
H12_3 H 0.1757 0.8560 0.0887
C22_3 C 0.0118(2) 0.72788(19) 0.10176(13)
H13_3 H 0.0098 0.7456 0.0451
H16_3 H 0.0010 0.6954 0.1555
H25_3 H 0.414755 0.976422 0.293899
H27_3 H 0.111807 0.980819 0.278411
H30_3 H 0.328975 0.973728 0.0841812
C9_3 C 0.9610(3) 0.2900(3) 0.13488(14)
H5_3 H 0.9543 0.2683 0.1579
C10_3 C 0.9191(3) 0.3344(3) 0.12318(16)
H6_3 H 0.8839 0.3430 0.1382
C11_3 C 0.9288(3) 0.3662(3) 0.08956(17)
C12_3 C 0.9804(3) 0.3537(3) 0.06764(14)
H7_3 H 0.9870 0.3754 0.0447
C14_3 C 0.8860(6) 0.4142(5) 0.0769(3)
C23_3 C 0.9940(2) 0.7194(2) 0.06431(11)
C24_3 C 0.9531(2) 0.6727(2) 0.05500(10)
H14_3 H 0.9409 0.6670 0.0294
C25_3 C 0.9301(2) 0.6345(2) 0.08315(14)
C26_3 C 0.9479(2) 0.6429(2) 0.12060(12)
H15_3 H 0.9321 0.6167 0.1398
C27_3 C 0.9888(2) 0.6896(2) 0.12991(10)
C28_3 C 0.8855(4) 0.5852(4) 0.0732(3)
C23_4 C 0.0060(2) 0.2806(2) 0.56431(11)
C24_4 C 0.0469(2) 0.3273(2) 0.55500(10)
H14_4 H 0.0591 0.3330 0.5294
C25_4 C 0.0699(2) 0.3655(2) 0.58315(14)
C26_4 C 0.0521(2) 0.3571(2) 0.62060(12)
H15_4 H 0.0679 0.3833 0.6398
C27_4 C 0.0112(2) 0.3104(2) 0.62991(10)
C28_4 C 0.1145(4) 0.4148(4) 0.5732(3)
C9_4 C 0.0390(3) 0.7100(3) 0.63488(14)
H5_4 H 0.0457 0.7317 0.6579
C10_4 C 0.0809(3) 0.6656(3) 0.62318(16)
H6_4 H 0.1161 0.6570 0.6382
C11_4 C 0.0712(3) 0.6338(3) 0.58956(17)
C12_4 C 0.0196(3) 0.6463(3) 0.56764(14)
H7_4 H 0.0130 0.6246 0.5447
C14_4 C 0.1140(6) 0.5858(5) 0.5769(3)
O1_4 O 0.72650(18) 0.0025(2) 0.70320(11)
O6_4 O 0.8928(2) 0.0105(2) 0.75094(13)
O14_4 O 0.8440(2) 0.0521(2) 0.68428(13)
O16_4 O 0.7749(2) 0.0695(2) 0.63805(13)
C15_4 C 0.8271(4) 0.0806(4) 0.6547(2)
C16_4 C 0.8711(2) 0.1249(2) 0.63733(14)
C17_4 C 0.9221(2) 0.1410(2) 0.65882(11)
H9_4 H 0.9302 0.1204 0.6820
C18_4 C 0.96137(19) 0.1872(2) 0.64636(12)
H10_4 H 0.9963 0.1982 0.6610
C19_4 C 0.9495(2) 0.21732(19) 0.61241(13)
C20_4 C 0.8985(2) 0.2012(2) 0.59092(11)
H11_4 H 0.8904 0.2218 0.5677
C21_4 C 0.85924(19) 0.1550(2) 0.60338(13)
H12_4 H 0.8243 0.1440 0.5887
C22_4 C 0.9882(2) 0.27212(19) 0.60176(13)
H13_4 H 0.9902 0.2544 0.5451
H16_4 H 0.9990 0.3046 0.6555
H25_4 H 0.585245 0.0235776 0.793899
H27_4 H 0.888193 0.0191811 0.778411
H30_4 H 0.671025 0.0262715 0.584181
O2_4 O 0.7873(2) 0.9381(2) 0.64232(14)
O3_4 O 0.8304(2) 0.9272(2) 0.70085(14)
O4_4 O 0.7052(2) 0.9984(3) 0.59143(13)
O7_4 O 0.6877(2) 0.9247(2) 0.76445(13)
O8_4 O 0.5811(2) 0.9917(3) 0.77393(14)
O11_4 O 0.7868(2) 0.9535(2) 0.77152(12)
C1_4 C 0.8247(5) 0.9131(5) 0.6666(3)
C2_4 C 0.8602(3) 0.8601(3) 0.65093(17)
C3_4 C 0.8967(3) 0.8287(3) 0.67685(12)
H1_4 H 0.8944 0.8386 0.7030
C4_4 C 0.9365(3) 0.7830(3) 0.66445(15)
H2_4 H 0.9614 0.7615 0.6822
C5_4 C 0.9398(3) 0.7686(3) 0.62614(17)
C6_4 C 0.9033(3) 0.8000(3) 0.60022(13)
H3_4 H 0.9056 0.7901 0.5740
C7_4 C 0.8636(3) 0.8457(3) 0.61262(15)
H4_4 H 0.8387 0.8672 0.5949
C8_4 C 0.9875(3) 0.7226(3) 0.61295(17)
C13_4 C 0.9778(3) 0.6907(3) 0.57933(16)
H8_4 H 0.9425 0.6993 0.5644
C29_4 C 0.7388(4) 0.9193(4) 0.7789(2)
C30_4 C 0.7494(2) 0.8748(2) 0.81067(12)
C31_4 C 0.80619(19) 0.8664(2) 0.82793(14)
H17_4 H 0.8410 0.8886 0.8192
C32_4 C 0.81203(18) 0.8256(2) 0.85800(14)
H18_4 H 0.8509 0.8199 0.8698
C33_4 C 0.7611(2) 0.7932(2) 0.87081(12)
C34_4 C 0.70426(19) 0.8015(2) 0.85355(14)
H19_4 H 0.6694 0.7794 0.8623
C35_4 C 0.69842(18) 0.8424(2) 0.82348(13)
H20_4 H 0.6596 0.8481 0.8117
C36_4 C 0.7663(2) 0.7468(2) 0.90347(13)
C37_4 C 0.71604(19) 0.7368(2) 0.92697(14)
H21_4 H 0.6816 0.7636 0.9258
C38_4 C 0.71618(19) 0.6878(2) 0.95219(13)
H22_4 H 0.6818 0.6810 0.9682
C39_4 C 0.7666(2) 0.6487(2) 0.95391(13)
C40_4 C 0.81692(19) 0.6586(2) 0.93042(14)
H23_4 H 0.8514 0.6319 0.9316
C41_4 C 0.81677(19) 0.7077(2) 0.90520(13)
H24_4 H 0.8511 0.7145 0.8891
C42_4 C 0.7640(4) 0.5936(4) 0.9763(2)
H26_4 H 0.542284 0.998398 0.75972
H28_4 H 0.91457 0.970778 0.747493
H29_4 H 0.695407 0.955859 0.58322
Fe2_3 Fe 0.00239(6) 0.34314(4) 0.76390(3)
O2_5 O 0.0619(2) 0.2127(2) 0.85768(14)
O3_5 O 0.0728(2) 0.1696(2) 0.79915(14)
O4_5 O 0.0016(3) 0.2948(2) 0.90857(13)
O7_5 O 0.0753(2) 0.3123(2) 0.73555(13)
O8_5 O 0.0083(3) 0.4189(2) 0.72607(14)
O11_5 O 0.0465(2) 0.2132(2) 0.72848(12)
O12_3 O 0.4433(2) 0.1915(2) 0.52505(12)
O15_3 O 0.4161(2) 0.2856(2) 0.50371(13)
C1_5 C 0.0869(5) 0.1753(5) 0.8334(3)
C2_5 C 0.1399(3) 0.1398(3) 0.84907(17)
C3_5 C 0.1713(3) 0.1033(3) 0.82315(12)
H1_5 H 0.1614 0.1056 0.7970
C4_5 C 0.2170(3) 0.0635(3) 0.83555(15)
H2_5 H 0.2385 0.0386 0.8178
C5_5 C 0.2314(3) 0.0602(3) 0.87386(17)
C6_5 C 0.2000(3) 0.0967(3) 0.89978(13)
H3_5 H 0.2099 0.0944 0.9260
C7_5 C 0.1543(3) 0.1364(3) 0.88738(15)
H4_5 H 0.1328 0.1613 0.9051
C8_5 C 0.2774(3) 0.0125(3) 0.88705(17)
C13_5 C 0.3093(3) 0.0222(3) 0.92067(16)
H8_5 H 0.3007 0.0575 0.9356
C29_5 C 0.0807(4) 0.2612(4) 0.7211(2)
C30_5 C 0.1252(2) 0.2506(2) 0.68933(12)
C31_5 C 0.1336(2) 0.19381(19) 0.67207(14)
H17_5 H 0.1114 0.1590 0.6808
C32_5 C 0.1744(2) 0.18797(18) 0.64200(14)
H18_5 H 0.1801 0.1491 0.6302
C33_5 C 0.2068(2) 0.2389(2) 0.62919(12)
C34_5 C 0.1985(2) 0.29574(19) 0.64645(14)
H19_5 H 0.2206 0.3306 0.6377
C35_5 C 0.1576(2) 0.30158(18) 0.67652(13)
H20_5 H 0.1519 0.3404 0.6883
C36_5 C 0.2532(2) 0.2337(2) 0.59653(13)
C37_5 C 0.2632(2) 0.28396(19) 0.57303(14)
H21_5 H 0.2364 0.3184 0.5742
C38_5 C 0.3122(2) 0.28382(19) 0.54781(13)
H22_5 H 0.3190 0.3182 0.5318
C39_5 C 0.3513(2) 0.2334(2) 0.54609(13)
C40_5 C 0.3414(2) 0.18308(19) 0.56958(14)
H23_5 H 0.3681 0.1486 0.5684
C41_5 C 0.2923(2) 0.18323(19) 0.59480(13)
H24_5 H 0.2855 0.1489 0.6109
C42_5 C 0.4064(4) 0.2360(4) 0.5237(2)
Fe8_2 Fe 0.50239(6) 0.15686(4) 0.48610(3)
Fe9_3 Fe 0.49454(5) 0.30623(4) 0.47588(3)
O17_3 O 0.0724(2) 0.3423(3) 0.84908(15)
O21_3 O 0.0597(2) 0.3930(2) 0.79654(15)
H26_5 H 0.00160212 0.457716 0.74028
H28_5 H 0.0292222 0.08543 0.752507
H29_5 H 0.0441408 0.304593 0.91678
O5_3 O 0.4276(2) 0.8423(3) 0.90092(15)
O13_3 O 0.4403(2) 0.8930(2) 0.95346(15)
C9_5 C 0.2900(3) 0.9610(3) 0.86512(14)
H5_5 H 0.2683 0.9543 0.8421
C10_5 C 0.3344(3) 0.9191(3) 0.87682(16)
H6_5 H 0.3430 0.8839 0.8618
C11_5 C 0.3662(3) 0.9288(3) 0.91044(17)
C12_5 C 0.3537(3) 0.9804(3) 0.93236(14)
H7_5 H 0.3754 0.9870 0.9553
C14_5 C 0.4142(5) 0.8860(6) 0.9231(3)
Fe4_2 Fe 0.50024(6) 0.78344(5) 0.89968(3)
Fe6 Fe 0.49761(6) 0.84314(4) 0.98610(3)
Fe1_3 Fe 0.99976(6) 0.28344(5) 0.85032(3)
Fe3_3 Fe 0.99454(5) 0.19377(4) 0.77412(3)
O1_5 O 0.9975(2) 0.27350(18) 0.79680(11)
O6_5 O 0.9895(2) 0.1072(2) 0.74906(13)
O14_5 O 0.9479(2) 0.1560(2) 0.81572(13)
O16_5 O 0.9305(2) 0.2251(2) 0.86195(13)
C15_5 C 0.9194(4) 0.1729(4) 0.8453(2)
C16_5 C 0.8751(2) 0.1289(2) 0.86267(14)
C17_5 C 0.8590(2) 0.0779(2) 0.84118(11)
H9_5 H 0.8796 0.0698 0.8180
C18_5 C 0.8128(2) 0.03863(19) 0.85364(12)
H10_5 H 0.8018 0.0037 0.8390
C19_5 C 0.78268(19) 0.0505(2) 0.88759(13)
C20_5 C 0.7988(2) 0.1015(2) 0.90908(11)
H11_5 H 0.7782 0.1096 0.9323
C21_5 C 0.8450(2) 0.14076(19) 0.89662(13)
H12_5 H 0.8560 0.1757 0.9113
C22_5 C 0.72788(19) 0.0118(2) 0.89824(13)
H13_5 H 0.7456 0.0098 0.9549
H16_5 H 0.6954 0.0010 0.8445
O18_3 O 0.9408(2) 0.3550(2) 0.84939(14)
O19_3 O 0.9303(2) 0.3831(2) 0.78745(14)
O20_3 O 0.9433(2) 0.3085(2) 0.72495(12)
O22_3 O 0.9161(2) 0.2144(2) 0.74629(13)
H25_5 H 0.976422 0.414755 0.706101
H27_5 H 0.980819 0.111807 0.721589
H30_5 H 0.973728 0.328975 0.915819
O9_3 O 0.5592(2) 0.8550(2) 0.90061(14)
O10_3 O 0.5697(2) 0.8831(2) 0.96255(14)
C23_5 C 0.7194(2) 0.9940(2) 0.93569(11)
C24_5 C 0.6727(2) 0.9531(2) 0.94500(10)
H14_5 H 0.6670 0.9409 0.9706
C25_5 C 0.6345(2) 0.9301(2) 0.91685(14)
C26_5 C 0.6429(2) 0.9479(2) 0.87940(12)
H15_5 H 0.6167 0.9321 0.8602
C27_5 C 0.6896(2) 0.9888(2) 0.87009(10)
C28_5 C 0.5852(4) 0.8855(4) 0.9268(3)
O9_4 O 0.4408(2) 0.1450(2) 0.40061(14)
O10_4 O 0.4303(2) 0.1169(2) 0.46255(14)
C23_6 C 0.2806(2) 0.0060(2) 0.43569(11)
C24_6 C 0.3273(2) 0.0469(2) 0.44500(10)
H14_6 H 0.3330 0.0591 0.4706
C25_6 C 0.3655(2) 0.0699(2) 0.41685(14)
C26_6 C 0.3571(2) 0.0521(2) 0.37940(12)
H15_6 H 0.3833 0.0679 0.3602
C27_6 C 0.3104(2) 0.0112(2) 0.37009(10)
C28_6 C 0.4148(4) 0.1145(4) 0.4268(3)
Fe5_2 Fe 0.49976(6) 0.21656(5) 0.39968(3)
Fe1_4 Fe 0.00024(6) 0.71656(5) 0.35032(3)
Fe3_4 Fe 0.00546(5) 0.80623(4) 0.27412(3)
O1_6 O 0.0025(2) 0.72650(18) 0.29680(11)
O6_6 O 0.0105(2) 0.8928(2) 0.24906(13)
O14_6 O 0.0521(2) 0.8440(2) 0.31572(13)
O16_6 O 0.0695(2) 0.7749(2) 0.36195(13)
C15_6 C 0.0806(4) 0.8271(4) 0.3453(2)
C16_6 C 0.1249(2) 0.8711(2) 0.36267(14)
C17_6 C 0.1410(2) 0.9221(2) 0.34118(11)
H9_6 H 0.1204 0.9302 0.3180
C18_6 C 0.1872(2) 0.96137(19) 0.35364(12)
H10_6 H 0.1982 0.9963 0.3390
C19_6 C 0.21732(19) 0.9495(2) 0.38759(13)
C20_6 C 0.2012(2) 0.8985(2) 0.40908(11)
H11_6 H 0.2218 0.8904 0.4323
C21_6 C 0.1550(2) 0.85924(19) 0.39662(13)
H12_6 H 0.1440 0.8243 0.4113
C22_6 C 0.27212(19) 0.9882(2) 0.39824(13)
H13_6 H 0.2544 0.9902 0.4549
H16_6 H 0.3046 0.9990 0.3445
O18_4 O 0.0592(2) 0.6450(2) 0.34939(14)
O19_4 O 0.0697(2) 0.6169(2) 0.28745(14)
O20_4 O 0.0567(2) 0.6915(2) 0.22495(12)
O22_4 O 0.0839(2) 0.7856(2) 0.24629(13)
H25_6 H 0.0235776 0.585245 0.206101
H27_6 H 0.0191811 0.888193 0.221589
H30_6 H 0.0262715 0.671025 0.415819
O5_4 O 0.5724(2) 0.1577(3) 0.40092(15)
O13_4 O 0.5597(2) 0.1070(2) 0.45346(15)
C9_6 C 0.7100(3) 0.0390(3) 0.36512(14)
H5_6 H 0.7317 0.0457 0.3421
C10_6 C 0.6656(3) 0.0809(3) 0.37682(16)
H6_6 H 0.6570 0.1161 0.3618
C11_6 C 0.6338(3) 0.0712(3) 0.41044(17)
C12_6 C 0.6463(3) 0.0196(3) 0.43236(14)
H7_6 H 0.6246 0.0130 0.4553
C14_6 C 0.5858(5) 0.1140(6) 0.4231(3)
Fe2_4 Fe 0.99761(6) 0.65686(4) 0.26390(3)
O2_6 O 0.9381(2) 0.7873(2) 0.35768(14)
O3_6 O 0.9272(2) 0.8304(2) 0.29915(14)
O4_6 O 0.9984(3) 0.7052(2) 0.40857(13)
O7_6 O 0.9247(2) 0.6877(2) 0.23555(13)
O8_6 O 0.9917(3) 0.5811(2) 0.22607(14)
O11_6 O 0.9535(2) 0.7868(2) 0.22848(12)
O12_4 O 0.5567(2) 0.8085(2) 0.02505(12)
O15_4 O 0.5839(2) 0.7144(2) 0.00371(13)
C1_6 C 0.9131(5) 0.8247(5) 0.3334(3)
C2_6 C 0.8601(3) 0.8602(3) 0.34907(17)
C3_6 C 0.8287(3) 0.8967(3) 0.32315(12)
H1_6 H 0.8386 0.8944 0.2970
C4_6 C 0.7830(3) 0.9365(3) 0.33555(15)
H2_6 H 0.7615 0.9614 0.3178
C5_6 C 0.7686(3) 0.9398(3) 0.37386(17)
C6_6 C 0.8000(3) 0.9033(3) 0.39978(13)
H3_6 H 0.7901 0.9056 0.4260
C7_6 C 0.8457(3) 0.8636(3) 0.38738(15)
H4_6 H 0.8672 0.8387 0.4051
C8_6 C 0.7226(3) 0.9875(3) 0.38705(17)
C13_6 C 0.6907(3) 0.9778(3) 0.42067(16)
H8_6 H 0.6993 0.9425 0.4356
C29_6 C 0.9193(4) 0.7388(4) 0.2211(2)
C30_6 C 0.8748(2) 0.7494(2) 0.18933(12)
C31_6 C 0.8664(2) 0.80619(19) 0.17207(14)
H17_6 H 0.8886 0.8410 0.1808
C32_6 C 0.8256(2) 0.81203(18) 0.14200(14)
H18_6 H 0.8199 0.8509 0.1302
C33_6 C 0.7932(2) 0.7611(2) 0.12919(12)
C34_6 C 0.8015(2) 0.70426(19) 0.14645(14)
H19_6 H 0.7794 0.6694 0.1377
C35_6 C 0.8424(2) 0.69842(18) 0.17652(13)
H20_6 H 0.8481 0.6596 0.1883
C36_6 C 0.7468(2) 0.7663(2) 0.09653(13)
C37_6 C 0.7368(2) 0.71604(19) 0.07303(14)
H21_6 H 0.7636 0.6816 0.0742
C38_6 C 0.6878(2) 0.71618(19) 0.04781(13)
H22_6 H 0.6810 0.6818 0.0318
C39_6 C 0.6487(2) 0.7666(2) 0.04609(13)
C40_6 C 0.6586(2) 0.81692(19) 0.06958(14)
H23_6 H 0.6319 0.8514 0.0684
C41_6 C 0.7077(2) 0.81677(19) 0.09480(13)
H24_6 H 0.7145 0.8511 0.1109
C42_6 C 0.5936(4) 0.7640(4) 0.0237(2)
O17_4 O 0.9276(2) 0.6577(3) 0.34908(15)
O21_4 O 0.9403(2) 0.6070(2) 0.29654(15)
H26_6 H 0.998398 0.542284 0.24028
H28_6 H 0.970778 0.91457 0.252507
H29_6 H 0.955859 0.695407 0.41678
Fe9_4 Fe 0.50546(5) 0.69377(4) 0.97588(3)
O6_7 O 0.5105(2) 0.6072(2) 0.00094(13)
O7_7 O 0.4247(2) 0.8123(2) 0.01445(13)
O8_7 O 0.4917(3) 0.9189(2) 0.02393(14)
O11_7 O 0.4535(2) 0.7132(2) 0.02152(12)
C29_7 C 0.4193(4) 0.7612(4) 0.0289(2)
C30_7 C 0.3748(2) 0.7506(2) 0.06067(12)
C31_7 C 0.3664(2) 0.69381(19) 0.07793(14)
H17_7 H 0.3886 0.6590 0.0692
C32_7 C 0.3256(2) 0.68797(18) 0.10800(14)
H18_7 H 0.3199 0.6491 0.1198
C33_7 C 0.2932(2) 0.7389(2) 0.12081(12)
C34_7 C 0.3015(2) 0.79574(19) 0.10355(14)
H19_7 H 0.2794 0.8306 0.1123
C35_7 C 0.3424(2) 0.80158(18) 0.07348(13)
H20_7 H 0.3481 0.8404 0.0617
C36_7 C 0.2468(2) 0.7337(2) 0.15347(13)
C37_7 C 0.2368(2) 0.78396(19) 0.17697(14)
H21_7 H 0.2636 0.8184 0.1758
C38_7 C 0.1878(2) 0.78382(19) 0.20219(13)
H22_7 H 0.1810 0.8182 0.2182
C39_7 C 0.1487(2) 0.7334(2) 0.20391(13)
C40_7 C 0.1586(2) 0.68308(19) 0.18042(14)
H23_7 H 0.1319 0.6486 0.1816
C41_7 C 0.2077(2) 0.68323(19) 0.15520(13)
H24_7 H 0.2145 0.6489 0.1391
C42_7 C 0.0936(4) 0.7360(4) 0.2263(2)
H25_7 H 0.523578 0.914755 0.0438995
H26_7 H 0.498398 0.957716 0.00971975
H27_7 H 0.519181 0.611807 0.0284112
O1_7 O 0.5025(2) 0.77350(18) 0.95320(11)
O2_7 O 0.4381(2) 0.7127(2) 0.89232(14)
O3_7 O 0.4272(2) 0.6696(2) 0.95085(14)
O4_7 O 0.4984(3) 0.7948(2) 0.84143(13)
O14_7 O 0.5521(2) 0.6560(2) 0.93428(13)
O16_7 O 0.5695(2) 0.7251(2) 0.88805(13)
C1_7 C 0.4131(5) 0.6753(5) 0.9166(3)
C2_7 C 0.3601(3) 0.6398(3) 0.90093(17)
C3_7 C 0.3287(3) 0.6033(3) 0.92685(12)
H1_7 H 0.3386 0.6056 0.9530
C4_7 C 0.2830(3) 0.5635(3) 0.91445(15)
H2_7 H 0.2615 0.5386 0.9322
C5_7 C 0.2686(3) 0.5602(3) 0.87614(17)
C6_7 C 0.3000(3) 0.5967(3) 0.85022(13)
H3_7 H 0.2901 0.5944 0.8240
C7_7 C 0.3457(3) 0.6364(3) 0.86262(15)
H4_7 H 0.3672 0.6613 0.8449
C8_7 C 0.2226(3) 0.5125(3) 0.86295(17)
C9_7 C 0.2100(3) 0.4610(3) 0.88488(14)
H5_7 H 0.2317 0.4543 0.9079
C10_7 C 0.1656(3) 0.4191(3) 0.87318(16)
H6_7 H 0.1570 0.3839 0.8882
C11_7 C 0.1338(3) 0.4288(3) 0.83956(17)
C12_7 C 0.1463(3) 0.4804(3) 0.81764(14)
H7_7 H 0.1246 0.4870 0.7947
C13_7 C 0.1907(3) 0.5222(3) 0.82933(16)
H8_7 H 0.1993 0.5575 0.8144
C14_7 C 0.0858(5) 0.3860(6) 0.8269(3)
C15_7 C 0.5806(4) 0.6729(4) 0.9047(2)
C16_7 C 0.6249(2) 0.6289(2) 0.88733(14)
C17_7 C 0.6410(2) 0.5779(2) 0.90882(11)
H9_7 H 0.6204 0.5698 0.9320
C18_7 C 0.6872(2) 0.53863(19) 0.89636(12)
H10_7 H 0.6982 0.5037 0.9110
C19_7 C 0.71732(19) 0.5505(2) 0.86241(13)
C20_7 C 0.7012(2) 0.6015(2) 0.84092(11)
H11_7 H 0.7218 0.6096 0.8177
C21_7 C 0.6550(2) 0.64076(19) 0.85338(13)
H12_7 H 0.6440 0.6757 0.8387
C22_7 C 0.77212(19) 0.5118(2) 0.85176(13)
C23_7 C 0.7806(2) 0.4940(2) 0.81431(11)
H13_7 H 0.7544 0.5098 0.7951
C24_7 C 0.8273(2) 0.4531(2) 0.80500(10)
H14_7 H 0.8330 0.4409 0.7794
C25_7 C 0.8655(2) 0.4301(2) 0.83315(14)
C26_7 C 0.8571(2) 0.4479(2) 0.87060(12)
H15_7 H 0.8833 0.4321 0.8898
C27_7 C 0.8104(2) 0.4888(2) 0.87991(10)
H16_7 H 0.8046 0.5010 0.9055
C28_7 C 0.9148(4) 0.3855(4) 0.8232(3)
H28_7 H 0.470778 0.58543 0.997493
H29_7 H 0.455859 0.804593 0.83322
H30_7 H 0.526272 0.828975 0.834181
O1_8 O 0.4975(2) 0.22650(18) 0.45320(11)
O2_8 O 0.5619(2) 0.2873(2) 0.39232(14)
O3_8 O 0.5728(2) 0.3304(2) 0.45085(14)
O4_8 O 0.5016(3) 0.2052(2) 0.34143(13)
O6_8 O 0.4895(2) 0.3928(2) 0.50094(13)
O7_8 O 0.5753(2) 0.1877(2) 0.51445(13)
O8_8 O 0.5083(3) 0.0811(2) 0.52393(14)
O11_8 O 0.5465(2) 0.2868(2) 0.52152(12)
O14_8 O 0.4479(2) 0.3440(2) 0.43428(13)
O16_8 O 0.4305(2) 0.2749(2) 0.38805(13)
C1_8 C 0.5869(5) 0.3247(5) 0.4166(3)
C2_8 C 0.6399(3) 0.3602(3) 0.40093(17)
C3_8 C 0.6713(3) 0.3967(3) 0.42685(12)
H1_8 H 0.6614 0.3944 0.4530
C4_8 C 0.7170(3) 0.4365(3) 0.41445(15)
H2_8 H 0.7385 0.4614 0.4322
C5_8 C 0.7314(3) 0.4398(3) 0.37614(17)
C6_8 C 0.7000(3) 0.4033(3) 0.35022(13)
H3_8 H 0.7099 0.4056 0.3240
C7_8 C 0.6543(3) 0.3636(3) 0.36262(15)
H4_8 H 0.6328 0.3387 0.3449
C8_8 C 0.7774(3) 0.4875(3) 0.36295(17)
C9_8 C 0.7900(3) 0.5390(3) 0.38488(14)
H5_8 H 0.7683 0.5457 0.4079
C10_8 C 0.8344(3) 0.5809(3) 0.37318(16)
H6_8 H 0.8430 0.6161 0.3882
C11_8 C 0.8662(3) 0.5712(3) 0.33956(17)
C12_8 C 0.8537(3) 0.5196(3) 0.31764(14)
H7_8 H 0.8754 0.5130 0.2947
C13_8 C 0.8093(3) 0.4778(3) 0.32933(16)
H8_8 H 0.8007 0.4425 0.3144
C14_8 C 0.9142(5) 0.6140(6) 0.3269(3)
C15_8 C 0.4194(4) 0.3271(4) 0.4047(2)
C16_8 C 0.3751(2) 0.3711(2) 0.38733(14)
C17_8 C 0.3590(2) 0.4221(2) 0.40882(11)
H9_8 H 0.3796 0.4302 0.4320
C18_8 C 0.3128(2) 0.46137(19) 0.39636(12)
H10_8 H 0.3018 0.4963 0.4110
C19_8 C 0.28268(19) 0.4495(2) 0.36241(13)
C20_8 C 0.2988(2) 0.3985(2) 0.34092(11)
H11_8 H 0.2782 0.3904 0.3177
C21_8 C 0.3450(2) 0.35924(19) 0.35338(13)
H12_8 H 0.3560 0.3243 0.3387
C22_8 C 0.22788(19) 0.4882(2) 0.35176(13)
C23_8 C 0.2194(2) 0.5060(2) 0.31431(11)
H13_8 H 0.2456 0.4902 0.2951
C24_8 C 0.1727(2) 0.5469(2) 0.30500(10)
H14_8 H 0.1670 0.5591 0.2794
C25_8 C 0.1345(2) 0.5699(2) 0.33315(14)
C26_8 C 0.1429(2) 0.5521(2) 0.37060(12)
H15_8 H 0.1167 0.5679 0.3898
C27_8 C 0.1896(2) 0.5112(2) 0.37991(10)
H16_8 H 0.1954 0.4990 0.4055
C28_8 C 0.0852(4) 0.6145(4) 0.3232(3)
C29_8 C 0.5807(4) 0.2388(4) 0.5289(2)
C30_8 C 0.6252(2) 0.2494(2) 0.56067(12)
C31_8 C 0.6336(2) 0.30619(19) 0.57793(14)
H17_8 H 0.6114 0.3410 0.5692
C32_8 C 0.6744(2) 0.31203(18) 0.60800(14)
H18_8 H 0.6801 0.3509 0.6198
C33_8 C 0.7068(2) 0.2611(2) 0.62081(12)
C34_8 C 0.6985(2) 0.20426(19) 0.60355(14)
H19_8 H 0.7206 0.1694 0.6123
C35_8 C 0.6576(2) 0.19842(18) 0.57348(13)
H20_8 H 0.6519 0.1596 0.5617
C36_8 C 0.7532(2) 0.2663(2) 0.65347(13)
C37_8 C 0.7632(2) 0.21604(19) 0.67697(14)
H21_8 H 0.7364 0.1816 0.6758
C38_8 C 0.8122(2) 0.21618(19) 0.70219(13)
H22_8 H 0.8190 0.1818 0.7182
C39_8 C 0.8513(2) 0.2666(2) 0.70391(13)
C40_8 C 0.8414(2) 0.31692(19) 0.68042(14)
H23_8 H 0.8681 0.3514 0.6816
C41_8 C 0.7923(2) 0.31677(19) 0.65520(13)
H24_8 H 0.7855 0.3511 0.6391
C42_8 C 0.9064(4) 0.2640(4) 0.7263(2)
H25_8 H 0.476422 0.0852454 0.543899
H26_8 H 0.501602 0.0422843 0.50972
H27_8 H 0.480819 0.388193 0.528411
H28_8 H 0.529222 0.41457 0.497493
H29_8 H 0.544141 0.195407 0.33322
H30_8 H 0.473728 0.171025 0.334181
loop_
_geom_bond_atom_site_label_1
_geom_bond_atom_site_label_2
_geom_bond_site_symmetry_1
_geom_bond_site_symmetry_2
Fe1 O1 1_555 1_555
Fe2 O1 1_555 1_555
Fe3 O1 1_555 1_555
O2 Fe1 1_555 1_555
O3 Fe3 1_555 1_555
O4 Fe1 1_555 1_555
O5 C14 1_555 1_555
O9 C28 1_555 1_555
O10 C28 1_555 1_555
O13 C14 1_555 1_555
O14 Fe3 1_555 1_555
O16 Fe1 1_555 1_555
C1 O2 1_555 1_555
C2 C1 1_555 1_555
C3 C2 1_555 1_555
H1 C3 1_555 1_555
C4 C3 1_555 1_555
H2 C4 1_555 1_555
C5 C4 1_555 1_555
C6 C5 1_555 1_555
H3 C6 1_555 1_555
C7 C2 1_555 1_555
H4 C7 1_555 1_555
C8 C5 1_555 1_555
C9 C8 1_555 1_555
H5 C9 1_555 1_555
C10 C9 1_555 1_555
H6 C10 1_555 1_555
C11 C10 1_555 1_555
C12 C11 1_555 1_555
H7 C12 1_555 1_555
C13 C8 1_555 1_555
H8 C13 1_555 1_555
C14 C11 1_555 1_555
C15 O14 1_555 1_555
C16 C15 1_555 1_555
C17 C16 1_555 1_555
H9 C17 1_555 1_555
C18 C17 1_555 1_555
H10 C18 1_555 1_555
C19 C18 1_555 1_555
C20 C19 1_555 1_555
H11 C20 1_555 1_555
C21 C16 1_555 1_555
H12 C21 1_555 1_555
C22 C19 1_555 1_555
C23 C22 1_555 1_555
H13 C23 1_555 1_555
C24 C23 1_555 1_555
H14 C24 1_555 1_555
C25 C24 1_555 1_555
C26 C25 1_555 1_555
H15 C26 1_555 1_555
C27 C22 1_555 1_555
H16 C27 1_555 1_555
C28 C25 1_555 1_555
Fe5 O9 1_555 1_555
Fe7 O13 1_555 1_555
O17 Fe1 1_555 1_555
O18 Fe1 1_555 1_555
O19 Fe2 1_555 1_555
O21 Fe2 1_555 1_555
O3 C1 1_555 1_555
O16 C15 1_555 1_555
C6 C7 1_555 1_555
C12 C13 1_555 1_555
C20 C21 1_555 1_555
C26 C27 1_555 1_555
O4 H29 1_555 1_555
O4 H30 1_555 1_555
O12 C42 1_555 1_555
O15 C42 1_555 1_555
C29 O7 1_555 1_555
C30 C29 1_555 1_555
C31 C30 1_555 1_555
H17 C31 1_555 1_555
C32 C31 1_555 1_555
H18 C32 1_555 1_555
C33 C32 1_555 1_555
C34 C33 1_555 1_555
H19 C34 1_555 1_555
C35 C30 1_555 1_555
H20 C35 1_555 1_555
C36 C33 1_555 1_555
C37 C36 1_555 1_555
H21 C37 1_555 1_555
C38 C37 1_555 1_555
H22 C38 1_555 1_555
C39 C38 1_555 1_555
C40 C39 1_555 1_555
H23 C40 1_555 1_555
C41 C36 1_555 1_555
H24 C41 1_555 1_555
C42 C39 1_555 1_555
Fe9 O15 1_555 1_555
O11 C29 1_555 1_555
C34 C35 1_555 1_555
C40 C41 1_555 1_555
O8 H25 1_555 1_555
O8 H26 1_555 1_555
O6 H27 1_555 1_555
Fe1_2 O1_2 1_555 1_555
Fe2_2 O1_2 1_555 1_555
Fe3_2 O1_2 1_555 1_555
O2_2 Fe1_2 1_555 1_555
O3_2 Fe3_2 1_555 1_555
O4_2 Fe1_2 1_555 1_555
O5_2 C14_2 1_555 1_555
O6_2 Fe3_2 1_555 1_555
O7_2 Fe2_2 1_555 1_555
O8_2 Fe2_2 1_555 1_555
O9_2 C28_2 1_555 1_555
O10_2 C28_2 1_555 1_555
O11_2 Fe3_2 1_555 1_555
O12_2 C42_2 1_555 1_555
O13_2 C14_2 1_555 1_555
O14_2 Fe3_2 1_555 1_555
O15_2 C42_2 1_555 1_555
O16_2 Fe1_2 1_555 1_555
C1_2 O2_2 1_555 1_555
C2_2 C1_2 1_555 1_555
C3_2 C2_2 1_555 1_555
H1_2 C3_2 1_555 1_555
C4_2 C3_2 1_555 1_555
H2_2 C4_2 1_555 1_555
C5_2 C4_2 1_555 1_555
C6_2 C5_2 1_555 1_555
H3_2 C6_2 1_555 1_555
C7_2 C2_2 1_555 1_555
H4_2 C7_2 1_555 1_555
C8_2 C5_2 1_555 1_555
C9_2 C8_2 1_555 1_555
H5_2 C9_2 1_555 1_555
C10_2 C9_2 1_555 1_555
H6_2 C10_2 1_555 1_555
C11_2 C10_2 1_555 1_555
C12_2 C11_2 1_555 1_555
H7_2 C12_2 1_555 1_555
C13_2 C8_2 1_555 1_555
H8_2 C13_2 1_555 1_555
C14_2 C11_2 1_555 1_555
C15_2 O14_2 1_555 1_555
C16_2 C15_2 1_555 1_555
C17_2 C16_2 1_555 1_555
H9_2 C17_2 1_555 1_555
C18_2 C17_2 1_555 1_555
H10_2 C18_2 1_555 1_555
C19_2 C18_2 1_555 1_555
C20_2 C19_2 1_555 1_555
H11_2 C20_2 1_555 1_555
C21_2 C16_2 1_555 1_555
H12_2 C21_2 1_555 1_555
C22_2 C19_2 1_555 1_555
C23_2 C22_2 1_555 1_555
H13_2 C23_2 1_555 1_555
C24_2 C23_2 1_555 1_555
H14_2 C24_2 1_555 1_555
C25_2 C24_2 1_555 1_555
C26_2 C25_2 1_555 1_555
H15_2 C26_2 1_555 1_555
C27_2 C22_2 1_555 1_555
H16_2 C27_2 1_555 1_555
C28_2 C25_2 1_555 1_555
C29_2 O7_2 1_555 1_555
C30_2 C29_2 1_555 1_555
C31_2 C30_2 1_555 1_555
H17_2 C31_2 1_555 1_555
C32_2 C31_2 1_555 1_555
H18_2 C32_2 1_555 1_555
C33_2 C32_2 1_555 1_555
C34_2 C33_2 1_555 1_555
H19_2 C34_2 1_555 1_555
C35_2 C30_2 1_555 1_555
H20_2 C35_2 1_555 1_555
C36_2 C33_2 1_555 1_555
C37_2 C36_2 1_555 1_555
H21_2 C37_2 1_555 1_555
C38_2 C37_2 1_555 1_555
H22_2 C38_2 1_555 1_555
C39_2 C38_2 1_555 1_555
C40_2 C39_2 1_555 1_555
H23_2 C40_2 1_555 1_555
C41_2 C36_2 1_555 1_555
H24_2 C41_2 1_555 1_555
C42_2 C39_2 1_555 1_555
Fe4 O9_2 1_555 1_555
Fe8 O13_2 1_555 1_555
Fe9_2 O15_2 1_555 1_555
O17_2 Fe1_2 1_555 1_555
O18_2 Fe1_2 1_555 1_555
O19_2 Fe2_2 1_555 1_555
O20_2 Fe2_2 1_555 1_555
O21_2 Fe2_2 1_555 1_555
O22_2 Fe3_2 1_555 1_555
O3_2 C1_2 1_555 1_555
O11_2 C29_2 1_555 1_555
O16_2 C15_2 1_555 1_555
C6_2 C7_2 1_555 1_555
C12_2 C13_2 1_555 1_555
C20_2 C21_2 1_555 1_555
C26_2 C27_2 1_555 1_555
C34_2 C35_2 1_555 1_555
C40_2 C41_2 1_555 1_555
O8_2 H25_2 1_555 1_555
O8_2 H26_2 1_555 1_555
O6_2 H27_2 1_555 1_555
O6_2 H28_2 1_555 1_555
O4_2 H29_2 1_555 1_555
O4_2 H30_2 1_555 1_555
O7_3 Fe7 1_555 1_555
O8_3 Fe7 1_555 1_555
O20_2 C42_3 1_555 1_555
O22_2 C42_3 1_555 1_555
C1_3 O2_3 1_555 1_555
C2_3 C1_3 1_555 1_555
C3_3 C2_3 1_555 1_555
H1_3 C3_3 1_555 1_555
C4_3 C3_3 1_555 1_555
H2_3 C4_3 1_555 1_555
C5_3 C4_3 1_555 1_555
C6_3 C5_3 1_555 1_555
H3_3 C6_3 1_555 1_555
C7_3 C2_3 1_555 1_555
H4_3 C7_3 1_555 1_555
C8_3 C5_3 1_555 1_555
C13_3 C8_3 1_555 1_555
H8_3 C13_3 1_555 1_555
C29_3 O7_3 1_555 1_555
C30_3 C29_3 1_555 1_555
C31_3 C30_3 1_555 1_555
H17_3 C31_3 1_555 1_555
C32_3 C31_3 1_555 1_555
H18_3 C32_3 1_555 1_555
C33_3 C32_3 1_555 1_555
C34_3 C33_3 1_555 1_555
H19_3 C34_3 1_555 1_555
C35_3 C30_3 1_555 1_555
H20_3 C35_3 1_555 1_555
C36_3 C33_3 1_555 1_555
C37_3 C36_3 1_555 1_555
H21_3 C37_3 1_555 1_555
C38_3 C37_3 1_555 1_555
H22_3 C38_3 1_555 1_555
C39_3 C38_3 1_555 1_555
C40_3 C39_3 1_555 1_555
H23_3 C40_3 1_555 1_555
C41_3 C36_3 1_555 1_555
H24_3 C41_3 1_555 1_555
C42_3 C39_3 1_555 1_555
O3_3 C1_3 1_555 1_555
O11_3 C29_3 1_555 1_555
C6_3 C7_3 1_555 1_555
C34_3 C35_3 1_555 1_555
C40_3 C41_3 1_555 1_555
O8_3 H26_3 1_555 1_555
O4_3 H29_3 1_555 1_555
Fe5 O1_3 1_555 1_555
Fe9_2 O1_3 1_555 1_555
O6_3 Fe9_2 1_555 1_555
O14_3 Fe9_2 1_555 1_555
O16_3 Fe5 1_555 1_555
C15_3 O14_3 1_555 1_555
C16_3 C15_3 1_555 1_555
C17_3 C16_3 1_555 1_555
H9_3 C17_3 1_555 1_555
C18_3 C17_3 1_555 1_555
H10_3 C18_3 1_555 1_555
C19_3 C18_3 1_555 1_555
C20_3 C19_3 1_555 1_555
H11_3 C20_3 1_555 1_555
C21_3 C16_3 1_555 1_555
H12_3 C21_3 1_555 1_555
C22_3 C19_3 1_555 1_555
O16_3 C15_3 1_555 1_555
C20_3 C21_3 1_555 1_555
O6_3 H27_3 1_555 1_555
O17 C14_3 1_555 1_555
O21 C14_3 1_555 1_555
H5_3 C9_3 1_555 1_555
C10_3 C9_3 1_555 1_555
H6_3 C10_3 1_555 1_555
C11_3 C10_3 1_555 1_555
C12_3 C11_3 1_555 1_555
H7_3 C12_3 1_555 1_555
C14_3 C11_3 1_555 1_555
O18 C28_3 1_555 1_555
O19 C28_3 1_555 1_555
C24_3 C23_3 1_555 1_555
H14_3 C24_3 1_555 1_555
C25_3 C24_3 1_555 1_555
C26_3 C25_3 1_555 1_555
H15_3 C26_3 1_555 1_555
C28_3 C25_3 1_555 1_555
C26_3 C27_3 1_555 1_555
O18_2 C28_4 1_555 1_555
O19_2 C28_4 1_555 1_555
C24_4 C23_4 1_555 1_555
H14_4 C24_4 1_555 1_555
C25_4 C24_4 1_555 1_555
C26_4 C25_4 1_555 1_555
H15_4 C26_4 1_555 1_555
C28_4 C25_4 1_555 1_555
C26_4 C27_4 1_555 1_555
O17_2 C14_4 1_555 1_555
O21_2 C14_4 1_555 1_555
H5_4 C9_4 1_555 1_555
C10_4 C9_4 1_555 1_555
H6_4 C10_4 1_555 1_555
C11_4 C10_4 1_555 1_555
C12_4 C11_4 1_555 1_555
H7_4 C12_4 1_555 1_555
C14_4 C11_4 1_555 1_555
Fe4 O1_4 1_555 1_555
Fe9 O1_4 1_555 1_555
O6_4 Fe9 1_555 1_555
O14_4 Fe9 1_555 1_555
O16_4 Fe4 1_555 1_555
C15_4 O14_4 1_555 1_555
C16_4 C15_4 1_555 1_555
C17_4 C16_4 1_555 1_555
H9_4 C17_4 1_555 1_555
C18_4 C17_4 1_555 1_555
H10_4 C18_4 1_555 1_555
C19_4 C18_4 1_555 1_555
C20_4 C19_4 1_555 1_555
H11_4 C20_4 1_555 1_555
C21_4 C16_4 1_555 1_555
H12_4 C21_4 1_555 1_555
C22_4 C19_4 1_555 1_555
O16_4 C15_4 1_555 1_555
C20_4 C21_4 1_555 1_555
O6_4 H27_4 1_555 1_555
O7_4 Fe8 1_555 1_555
O8_4 Fe8 1_555 1_555
O20 C42_4 1_555 1_555
O22 C42_4 1_555 1_555
C1_4 O2_4 1_555 1_555
C2_4 C1_4 1_555 1_555
C3_4 C2_4 1_555 1_555
H1_4 C3_4 1_555 1_555
C4_4 C3_4 1_555 1_555
H2_4 C4_4 1_555 1_555
C5_4 C4_4 1_555 1_555
C6_4 C5_4 1_555 1_555
H3_4 C6_4 1_555 1_555
C7_4 C2_4 1_555 1_555
H4_4 C7_4 1_555 1_555
C8_4 C5_4 1_555 1_555
C13_4 C8_4 1_555 1_555
H8_4 C13_4 1_555 1_555
C29_4 O7_4 1_555 1_555
C30_4 C29_4 1_555 1_555
C31_4 C30_4 1_555 1_555
H17_4 C31_4 1_555 1_555
C32_4 C31_4 1_555 1_555
H18_4 C32_4 1_555 1_555
C33_4 C32_4 1_555 1_555
C34_4 C33_4 1_555 1_555
H19_4 C34_4 1_555 1_555
C35_4 C30_4 1_555 1_555
H20_4 C35_4 1_555 1_555
C36_4 C33_4 1_555 1_555
C37_4 C36_4 1_555 1_555
H21_4 C37_4 1_555 1_555
C38_4 C37_4 1_555 1_555
H22_4 C38_4 1_555 1_555
C39_4 C38_4 1_555 1_555
C40_4 C39_4 1_555 1_555
H23_4 C40_4 1_555 1_555
C41_4 C36_4 1_555 1_555
H24_4 C41_4 1_555 1_555
C42_4 C39_4 1_555 1_555
O3_4 C1_4 1_555 1_555
O11_4 C29_4 1_555 1_555
C6_4 C7_4 1_555 1_555
C34_4 C35_4 1_555 1_555
C40_4 C41_4 1_555 1_555
O8_4 H26_4 1_555 1_555
O4_4 H29_4 1_555 1_555
O7_5 Fe2_3 1_555 1_555
O8_5 Fe2_3 1_555 1_555
O12_3 C42_5 1_555 1_555
O15_3 C42_5 1_555 1_555
C1_5 O2_5 1_555 1_555
C2_5 C1_5 1_555 1_555
C3_5 C2_5 1_555 1_555
H1_5 C3_5 1_555 1_555
C4_5 C3_5 1_555 1_555
H2_5 C4_5 1_555 1_555
C5_5 C4_5 1_555 1_555
C6_5 C5_5 1_555 1_555
H3_5 C6_5 1_555 1_555
C7_5 C2_5 1_555 1_555
H4_5 C7_5 1_555 1_555
C8_5 C5_5 1_555 1_555
C13_5 C8_5 1_555 1_555
H8_5 C13_5 1_555 1_555
C29_5 O7_5 1_555 1_555
C30_5 C29_5 1_555 1_555
C31_5 C30_5 1_555 1_555
H17_5 C31_5 1_555 1_555
C32_5 C31_5 1_555 1_555
H18_5 C32_5 1_555 1_555
C33_5 C32_5 1_555 1_555
C34_5 C33_5 1_555 1_555
H19_5 C34_5 1_555 1_555
C35_5 C30_5 1_555 1_555
H20_5 C35_5 1_555 1_555
C36_5 C33_5 1_555 1_555
C37_5 C36_5 1_555 1_555
H21_5 C37_5 1_555 1_555
C38_5 C37_5 1_555 1_555
H22_5 C38_5 1_555 1_555
C39_5 C38_5 1_555 1_555
C40_5 C39_5 1_555 1_555
H23_5 C40_5 1_555 1_555
C41_5 C36_5 1_555 1_555
H24_5 C41_5 1_555 1_555
C42_5 C39_5 1_555 1_555
Fe8_2 O12_3 1_555 1_555
Fe9_3 O15_3 1_555 1_555
O21_3 Fe2_3 1_555 1_555
O3_5 C1_5 1_555 1_555
O11_5 C29_5 1_555 1_555
C6_5 C7_5 1_555 1_555
C34_5 C35_5 1_555 1_555
C40_5 C41_5 1_555 1_555
O8_5 H26_5 1_555 1_555
O4_5 H29_5 1_555 1_555
O5_3 C14_5 1_555 1_555
O13_3 C14_5 1_555 1_555
H5_5 C9_5 1_555 1_555
C10_5 C9_5 1_555 1_555
H6_5 C10_5 1_555 1_555
C11_5 C10_5 1_555 1_555
C12_5 C11_5 1_555 1_555
H7_5 C12_5 1_555 1_555
C14_5 C11_5 1_555 1_555
Fe4_2 O5_3 1_555 1_555
Fe6 O13_3 1_555 1_555
Fe1_3 O1_5 1_555 1_555
Fe3_3 O1_5 1_555 1_555
O6_5 Fe3_3 1_555 1_555
O14_5 Fe3_3 1_555 1_555
O16_5 Fe1_3 1_555 1_555
C15_5 O14_5 1_555 1_555
C16_5 C15_5 1_555 1_555
C17_5 C16_5 1_555 1_555
H9_5 C17_5 1_555 1_555
C18_5 C17_5 1_555 1_555
H10_5 C18_5 1_555 1_555
C19_5 C18_5 1_555 1_555
C20_5 C19_5 1_555 1_555
H11_5 C20_5 1_555 1_555
C21_5 C16_5 1_555 1_555
H12_5 C21_5 1_555 1_555
C22_5 C19_5 1_555 1_555
O18_3 Fe1_3 1_555 1_555
O22_3 Fe3_3 1_555 1_555
O16_5 C15_5 1_555 1_555
C20_5 C21_5 1_555 1_555
O6_5 H27_5 1_555 1_555
O9_3 C28_5 1_555 1_555
O10_3 C28_5 1_555 1_555
C24_5 C23_5 1_555 1_555
H14_5 C24_5 1_555 1_555
C25_5 C24_5 1_555 1_555
C26_5 C25_5 1_555 1_555
H15_5 C26_5 1_555 1_555
C28_5 C25_5 1_555 1_555
Fe4_2 O9_3 1_555 1_555
Fe6 O10_3 1_555 1_555
C26_5 C27_5 1_555 1_555
O9_4 C28_6 1_555 1_555
O10_4 C28_6 1_555 1_555
C24_6 C23_6 1_555 1_555
H14_6 C24_6 1_555 1_555
C25_6 C24_6 1_555 1_555
C26_6 C25_6 1_555 1_555
H15_6 C26_6 1_555 1_555
C28_6 C25_6 1_555 1_555
Fe5_2 O9_4 1_555 1_555
Fe8_2 O10_4 1_555 1_555
C26_6 C27_6 1_555 1_555
Fe1_4 O1_6 1_555 1_555
Fe3_4 O1_6 1_555 1_555
O6_6 Fe3_4 1_555 1_555
O14_6 Fe3_4 1_555 1_555
O16_6 Fe1_4 1_555 1_555
C15_6 O14_6 1_555 1_555
C16_6 C15_6 1_555 1_555
C17_6 C16_6 1_555 1_555
H9_6 C17_6 1_555 1_555
C18_6 C17_6 1_555 1_555
H10_6 C18_6 1_555 1_555
C19_6 C18_6 1_555 1_555
C20_6 C19_6 1_555 1_555
H11_6 C20_6 1_555 1_555
C21_6 C16_6 1_555 1_555
H12_6 C21_6 1_555 1_555
C22_6 C19_6 1_555 1_555
O18_4 Fe1_4 1_555 1_555
O22_4 Fe3_4 1_555 1_555
O16_6 C15_6 1_555 1_555
C20_6 C21_6 1_555 1_555
O6_6 H27_6 1_555 1_555
O5_4 C14_6 1_555 1_555
O13_4 C14_6 1_555 1_555
H5_6 C9_6 1_555 1_555
C10_6 C9_6 1_555 1_555
H6_6 C10_6 1_555 1_555
C11_6 C10_6 1_555 1_555
C12_6 C11_6 1_555 1_555
H7_6 C12_6 1_555 1_555
C14_6 C11_6 1_555 1_555
Fe5_2 O5_4 1_555 1_555
Fe8_2 O13_4 1_555 1_555
O7_6 Fe2_4 1_555 1_555
O8_6 Fe2_4 1_555 1_555
O12_4 C42_6 1_555 1_555
O15_4 C42_6 1_555 1_555
C1_6 O2_6 1_555 1_555
C2_6 C1_6 1_555 1_555
C3_6 C2_6 1_555 1_555
H1_6 C3_6 1_555 1_555
C4_6 C3_6 1_555 1_555
H2_6 C4_6 1_555 1_555
C5_6 C4_6 1_555 1_555
C6_6 C5_6 1_555 1_555
H3_6 C6_6 1_555 1_555
C7_6 C2_6 1_555 1_555
H4_6 C7_6 1_555 1_555
C8_6 C5_6 1_555 1_555
C13_6 C8_6 1_555 1_555
H8_6 C13_6 1_555 1_555
C29_6 O7_6 1_555 1_555
C30_6 C29_6 1_555 1_555
C31_6 C30_6 1_555 1_555
H17_6 C31_6 1_555 1_555
C32_6 C31_6 1_555 1_555
H18_6 C32_6 1_555 1_555
C33_6 C32_6 1_555 1_555
C34_6 C33_6 1_555 1_555
H19_6 C34_6 1_555 1_555
C35_6 C30_6 1_555 1_555
H20_6 C35_6 1_555 1_555
C36_6 C33_6 1_555 1_555
C37_6 C36_6 1_555 1_555
H21_6 C37_6 1_555 1_555
C38_6 C37_6 1_555 1_555
H22_6 C38_6 1_555 1_555
C39_6 C38_6 1_555 1_555
C40_6 C39_6 1_555 1_555
H23_6 C40_6 1_555 1_555
C41_6 C36_6 1_555 1_555
H24_6 C41_6 1_555 1_555
C42_6 C39_6 1_555 1_555
O21_4 Fe2_4 1_555 1_555
O3_6 C1_6 1_555 1_555
O11_6 C29_6 1_555 1_555
C6_6 C7_6 1_555 1_555
C34_6 C35_6 1_555 1_555
C40_6 C41_6 1_555 1_555
O8_6 H26_6 1_555 1_555
O4_6 H29_6 1_555 1_555
O20_4 C42_7 1_555 1_555
O22_4 C42_7 1_555 1_555
C29_7 O7_7 1_555 1_555
C30_7 C29_7 1_555 1_555
C31_7 C30_7 1_555 1_555
H17_7 C31_7 1_555 1_555
C32_7 C31_7 1_555 1_555
H18_7 C32_7 1_555 1_555
C33_7 C32_7 1_555 1_555
C34_7 C33_7 1_555 1_555
H19_7 C34_7 1_555 1_555
C35_7 C30_7 1_555 1_555
H20_7 C35_7 1_555 1_555
C36_7 C33_7 1_555 1_555
C37_7 C36_7 1_555 1_555
H21_7 C37_7 1_555 1_555
C38_7 C37_7 1_555 1_555
H22_7 C38_7 1_555 1_555
C39_7 C38_7 1_555 1_555
C40_7 C39_7 1_555 1_555
H23_7 C40_7 1_555 1_555
C41_7 C36_7 1_555 1_555
H24_7 C41_7 1_555 1_555
C42_7 C39_7 1_555 1_555
O11_7 C29_7 1_555 1_555
C34_7 C35_7 1_555 1_555
C40_7 C41_7 1_555 1_555
O8_7 H25_7 1_555 1_555
O8_7 H26_7 1_555 1_555
O6_7 H27_7 1_555 1_555
Fe4_2 O1_7 1_555 1_555
Fe6 O1_7 1_555 1_555
Fe9_4 O1_7 1_555 1_555
O2_7 Fe4_2 1_555 1_555
O3_7 Fe9_4 1_555 1_555
O4_7 Fe4_2 1_555 1_555
O17_3 C14_7 1_555 1_555
O18_3 C28_7 1_555 1_555
O19_3 C28_7 1_555 1_555
O21_3 C14_7 1_555 1_555
O14_7 Fe9_4 1_555 1_555
O16_7 Fe4_2 1_555 1_555
C1_7 O2_7 1_555 1_555
C2_7 C1_7 1_555 1_555
C3_7 C2_7 1_555 1_555
H1_7 C3_7 1_555 1_555
C4_7 C3_7 1_555 1_555
H2_7 C4_7 1_555 1_555
C5_7 C4_7 1_555 1_555
C6_7 C5_7 1_555 1_555
H3_7 C6_7 1_555 1_555
C7_7 C2_7 1_555 1_555
H4_7 C7_7 1_555 1_555
C8_7 C5_7 1_555 1_555
C9_7 C8_7 1_555 1_555
H5_7 C9_7 1_555 1_555
C10_7 C9_7 1_555 1_555
H6_7 C10_7 1_555 1_555
C11_7 C10_7 1_555 1_555
C12_7 C11_7 1_555 1_555
H7_7 C12_7 1_555 1_555
C13_7 C8_7 1_555 1_555
H8_7 C13_7 1_555 1_555
C14_7 C11_7 1_555 1_555
C15_7 O14_7 1_555 1_555
C16_7 C15_7 1_555 1_555
C17_7 C16_7 1_555 1_555
H9_7 C17_7 1_555 1_555
C18_7 C17_7 1_555 1_555
H10_7 C18_7 1_555 1_555
C19_7 C18_7 1_555 1_555
C20_7 C19_7 1_555 1_555
H11_7 C20_7 1_555 1_555
C21_7 C16_7 1_555 1_555
H12_7 C21_7 1_555 1_555
C22_7 C19_7 1_555 1_555
C23_7 C22_7 1_555 1_555
H13_7 C23_7 1_555 1_555
C24_7 C23_7 1_555 1_555
H14_7 C24_7 1_555 1_555
C25_7 C24_7 1_555 1_555
C26_7 C25_7 1_555 1_555
H15_7 C26_7 1_555 1_555
C27_7 C22_7 1_555 1_555
H16_7 C27_7 1_555 1_555
C28_7 C25_7 1_555 1_555
O3_7 C1_7 1_555 1_555
O16_7 C15_7 1_555 1_555
C6_7 C7_7 1_555 1_555
C12_7 C13_7 1_555 1_555
C20_7 C21_7 1_555 1_555
C26_7 C27_7 1_555 1_555
O4_7 H29_7 1_555 1_555
O4_7 H30_7 1_555 1_555
Fe5_2 O1_8 1_555 1_555
Fe8_2 O1_8 1_555 1_555
Fe9_3 O1_8 1_555 1_555
O2_8 Fe5_2 1_555 1_555
O3_8 Fe9_3 1_555 1_555
O4_8 Fe5_2 1_555 1_555
O17_4 C14_8 1_555 1_555
O6_8 Fe9_3 1_555 1_555
O7_8 Fe8_2 1_555 1_555
O8_8 Fe8_2 1_555 1_555
O18_4 C28_8 1_555 1_555
O19_4 C28_8 1_555 1_555
O11_8 Fe9_3 1_555 1_555
O20_3 C42_8 1_555 1_555
O21_4 C14_8 1_555 1_555
O14_8 Fe9_3 1_555 1_555
O22_3 C42_8 1_555 1_555
O16_8 Fe5_2 1_555 1_555
C1_8 O2_8 1_555 1_555
C2_8 C1_8 1_555 1_555
C3_8 C2_8 1_555 1_555
H1_8 C3_8 1_555 1_555
C4_8 C3_8 1_555 1_555
H2_8 C4_8 1_555 1_555
C5_8 C4_8 1_555 1_555
C6_8 C5_8 1_555 1_555
H3_8 C6_8 1_555 1_555
C7_8 C2_8 1_555 1_555
H4_8 C7_8 1_555 1_555
C8_8 C5_8 1_555 1_555
C9_8 C8_8 1_555 1_555
H5_8 C9_8 1_555 1_555
C10_8 C9_8 1_555 1_555
H6_8 C10_8 1_555 1_555
C11_8 C10_8 1_555 1_555
C12_8 C11_8 1_555 1_555
H7_8 C12_8 1_555 1_555
C13_8 C8_8 1_555 1_555
H8_8 C13_8 1_555 1_555
C14_8 C11_8 1_555 1_555
C15_8 O14_8 1_555 1_555
C16_8 C15_8 1_555 1_555
C17_8 C16_8 1_555 1_555
H9_8 C17_8 1_555 1_555
C18_8 C17_8 1_555 1_555
H10_8 C18_8 1_555 1_555
C19_8 C18_8 1_555 1_555
C20_8 C19_8 1_555 1_555
H11_8 C20_8 1_555 1_555
C21_8 C16_8 1_555 1_555
H12_8 C21_8 1_555 1_555
C22_8 C19_8 1_555 1_555
C23_8 C22_8 1_555 1_555
H13_8 C23_8 1_555 1_555
C24_8 C23_8 1_555 1_555
H14_8 C24_8 1_555 1_555
C25_8 C24_8 1_555 1_555
C26_8 C25_8 1_555 1_555
H15_8 C26_8 1_555 1_555
C27_8 C22_8 1_555 1_555
H16_8 C27_8 1_555 1_555
C28_8 C25_8 1_555 1_555
C29_8 O7_8 1_555 1_555
C30_8 C29_8 1_555 1_555
C31_8 C30_8 1_555 1_555
H17_8 C31_8 1_555 1_555
C32_8 C31_8 1_555 1_555
H18_8 C32_8 1_555 1_555
C33_8 C32_8 1_555 1_555
C34_8 C33_8 1_555 1_555
H19_8 C34_8 1_555 1_555
C35_8 C30_8 1_555 1_555
H20_8 C35_8 1_555 1_555
C36_8 C33_8 1_555 1_555
C37_8 C36_8 1_555 1_555
H21_8 C37_8 1_555 1_555
C38_8 C37_8 1_555 1_555
H22_8 C38_8 1_555 1_555
C39_8 C38_8 1_555 1_555
C40_8 C39_8 1_555 1_555
H23_8 C40_8 1_555 1_555
C41_8 C36_8 1_555 1_555
H24_8 C41_8 1_555 1_555
C42_8 C39_8 1_555 1_555
O3_8 C1_8 1_555 1_555
O11_8 C29_8 1_555 1_555
O16_8 C15_8 1_555 1_555
C6_8 C7_8 1_555 1_555
C12_8 C13_8 1_555 1_555
C20_8 C21_8 1_555 1_555
C26_8 C27_8 1_555 1_555
C34_8 C35_8 1_555 1_555
C40_8 C41_8 1_555 1_555
O8_8 H25_8 1_555 1_555
O8_8 H26_8 1_555 1_555
O6_8 H27_8 1_555 1_555
O6_8 H28_8 1_555 1_555
O4_8 H29_8 1_555 1_555
O4_8 H30_8 1_555 1_555

#END
