
###############################################################################
#
# This file contains modified crystal structure data generated from the
# MOF subset of the Cambridge Structural Database (CSD) v543 
# hosted by the Cambridge Crystallographic Data Centre (CCDC).
#
# This work is licensed under the Creative Commons
# Attribution-NonCommercial-ShareAlike 4.0 International License.
# To view a copy of this license, visit
# http://creativecommons.org/licenses/by-nc-sa/4.0/
# or send a letter to
# Creative Commons, PO Box 1866, Mountain View, CA 94042, USA.
#
# CIF created using the CSD Python API on 29 September 2022
# The structure has been converted into the P1 space group
# The structure has a 3D framework
# The original CSD entry TOWPAY is in the cubic crystal system
# The framework has been calculated to contain at least 10.0% void space
# The void calculation uses a probe of radius 1.32A, grid spacing 0.4
# H atom positions have been added when not included in the experimental data
# Generated hydrogen atom positions removed from atoms on special positions
#
###############################################################################

data_TOWPAY
_chemical_formula_moiety         '(C192 H144 Fe24 N24 O125)n'
_symmetry_cell_setting           triclinic
_symmetry_space_group_name_H-M   'P 1'
_symmetry_Int_Tables_number      1
_space_group_name_Hall           'P 1'
loop_
_symmetry_equiv_pos_site_id
_symmetry_equiv_pos_as_xyz
1 x,y,z
_cell_length_a                   21.966(3)
_cell_length_b                   21.966(3)
_cell_length_c                   21.966(3)
_cell_angle_alpha                90
_cell_angle_beta                 90
_cell_angle_gamma                90
_cell_volume                     10598.7
loop_
_atom_site_label
_atom_site_type_symbol
_atom_site_fract_x
_atom_site_fract_y
_atom_site_fract_z
O28 O 0.74538(9) 0.24955(9) 0.10716(8)
O29 O 0.70380(10) 0.16681(9) 0.14875(8)
C44 C 0.71380(14) 0.17001(13) 0.04253(12)
C45 C 0.7031(2) 0.10735(14) 0.04105(13)
H21 H 0.6997 0.0845 0.0776
C48 C 0.72230(12) 0.19834(13) 0.10414(11)
Fe7 Fe 0.760592(16) 0.303669(16) 0.179832(16)
Fe19 Fe 0.696331(16) 0.179832(16) 0.239408(16)
O26 O 0.68661(10) 0.18046(9) 0.82902(8)
O27 O 0.72654(10) 0.26214(9) 0.87442(8)
N6 N 0.6912(2) 0.01540(12) 0.97674(12)
C41 C 0.70670(14) 0.20907(13) 0.87471(12)
C42 C 0.70646(15) 0.17539(13) 0.93306(12)
C43 C 0.71636(13) 0.20327(13) 0.98957(12)
H20 H 0.7249 0.2456 0.9913
C46 C 0.6974(3) 0.07923(14) 0.98396(14)
C47 C 0.6950(2) 0.11253(14) 0.93108(14)
H22 H 0.6856 0.0932 0.8935
Fe12 Fe 0.739408(16) 0.320168(16) 0.803669(16)
Fe14 Fe 0.679832(16) 0.196331(16) 0.739408(16)
O1 O 0.81339(10) 0.32902(8) 0.31954(9)
O2 O 0.77346(10) 0.37442(8) 0.23786(9)
O3 O 0.75462(9) 0.60716(8) 0.25045(9)
O4 O 0.79620(10) 0.64875(8) 0.33319(9)
O5 O 0.75950(8) 0.24050(8) 0.24050(8)
O6 O 0.76326(11) 0.37056(10) 0.11505(9)
N1 N 0.8088(2) 0.47674(12) 0.48460(12)
C1 C 0.79330(14) 0.37471(12) 0.29093(13)
C2 C 0.79354(15) 0.43306(12) 0.32461(13)
C3 C 0.78364(13) 0.48957(12) 0.29673(13)
H1 H 0.7751 0.4913 0.2544
C4 C 0.78620(14) 0.54253(12) 0.32999(13)
C5 C 0.7969(2) 0.54105(13) 0.39265(14)
H2 H 0.8003 0.5776 0.4155
C6 C 0.8026(3) 0.48396(14) 0.42077(14)
C7 C 0.8050(2) 0.43108(14) 0.38747(14)
H3 H 0.8144 0.3935 0.4068
C8 C 0.77770(12) 0.60414(11) 0.30166(13)
O7 O 0.81339(10) 0.67098(8) 0.68046(9)
O8 O 0.77346(10) 0.62558(8) 0.76214(9)
O9 O 0.75462(9) 0.39284(8) 0.74955(9)
O10 O 0.79620(10) 0.35125(8) 0.66681(9)
N2 N 0.8088(2) 0.52326(12) 0.51540(12)
C9 C 0.79330(14) 0.62529(12) 0.70907(13)
C10 C 0.79354(15) 0.56694(12) 0.67539(13)
C11 C 0.78364(13) 0.51043(12) 0.70327(13)
H5 H 0.7751 0.5087 0.7456
C12 C 0.78620(14) 0.45747(12) 0.67001(13)
C13 C 0.7969(2) 0.45895(13) 0.60735(14)
H6 H 0.8003 0.4224 0.5845
C14 C 0.8026(3) 0.51604(14) 0.57923(14)
C15 C 0.8050(2) 0.56892(14) 0.61253(14)
H7 H 0.8144 0.6065 0.5932
C16 C 0.77770(12) 0.39586(11) 0.69834(13)
Fe2 Fe 0.803669(16) 0.739408(16) 0.320168(16)
O11 O 0.87056(10) 0.73674(11) 0.38495(9)
Fe4 Fe 0.739408(16) 0.679832(16) 0.196331(16)
O21 O 0.68661(10) 0.81954(9) 0.17098(8)
O22 O 0.72654(10) 0.73786(9) 0.12558(8)
O25 O 0.73674(11) 0.61505(9) 0.12944(10)
N5 N 0.6912(2) 0.98460(12) 0.02326(12)
C33 C 0.70670(14) 0.79093(13) 0.12529(12)
C34 C 0.70646(15) 0.82461(13) 0.06694(12)
C35 C 0.71636(13) 0.79673(13) 0.01043(12)
H16 H 0.7249 0.7544 0.0087
C38 C 0.6974(3) 0.92077(14) 0.01604(14)
C39 C 0.6950(2) 0.88747(14) 0.06892(14)
H18 H 0.6856 0.9068 0.1065
Fe5 Fe 0.760592(16) 0.696331(16) 0.820168(16)
O30 O 0.75950(8) 0.75950(8) 0.75950(8)
O31 O 0.76326(11) 0.62944(10) 0.88495(9)
Fe6 Fe 0.820168(16) 0.239408(16) 0.303669(16)
O32 O 0.88495(9) 0.23674(11) 0.37056(10)
Fe17 Fe 0.696331(16) 0.820168(16) 0.760592(16)
Fe20 Fe 0.820168(16) 0.760592(16) 0.696331(16)
Fe21 Fe 0.803669(16) 0.260592(16) 0.679832(16)
Fe23 Fe 0.679832(16) 0.803669(16) 0.260592(16)
O34 O 0.82902(8) 0.68661(10) 0.18046(9)
O35 O 0.67098(8) 0.68046(9) 0.81339(10)
O36 O 0.67098(8) 0.31954(9) 0.18661(10)
O37 O 0.81954(9) 0.82902(8) 0.31339(10)
O38 O 0.87442(8) 0.72654(10) 0.26214(9)
O39 O 0.76214(9) 0.22654(10) 0.37442(8)
O41 O 0.89284(8) 0.25462(9) 0.24955(9)
O42 O 0.74538(9) 0.75045(9) 0.89284(8)
O43 O 0.74955(9) 0.75462(9) 0.39284(8)
O44 O 0.85125(8) 0.29620(10) 0.16681(9)
O46 O 0.64875(8) 0.66681(9) 0.20380(10)
O47 O 0.85125(8) 0.70380(10) 0.83319(9)
O48 O 0.83319(9) 0.14875(8) 0.29620(10)
O50 O 0.74050(8) 0.74050(8) 0.25950(8)
O24 O 0.70380(10) 0.83319(9) 0.85125(8)
C36 C 0.71380(14) 0.82999(13) 0.95747(12)
C37 C 0.7031(2) 0.89265(14) 0.95895(13)
H17 H 0.6997 0.9155 0.9224
C40 C 0.72230(12) 0.80166(13) 0.89586(11)
O3_2 O 0.10716(8) 0.74538(9) 0.24955(9)
O4_2 O 0.14875(8) 0.70380(10) 0.16681(9)
C4_2 C 0.04253(12) 0.71380(14) 0.17001(13)
C5_2 C 0.04105(13) 0.7031(2) 0.10735(14)
H2_2 H 0.0776 0.6997 0.0845
C8_2 C 0.10414(11) 0.72230(12) 0.19834(13)
Fe2_2 Fe 0.239408(16) 0.696331(16) 0.179832(16)
O11_2 O 0.23674(11) 0.62944(10) 0.11505(9)
Fe4_2 Fe 0.179832(16) 0.760592(16) 0.303669(16)
O21_2 O 0.31954(9) 0.81339(10) 0.32902(8)
O22_2 O 0.23786(9) 0.77346(10) 0.37442(8)
O23 O 0.25045(9) 0.75462(9) 0.60716(8)
O24_2 O 0.33319(9) 0.79620(10) 0.64875(8)
O25_2 O 0.11505(9) 0.76326(11) 0.37056(10)
N5_2 N 0.48460(12) 0.8088(2) 0.47674(12)
C33_2 C 0.29093(13) 0.79330(14) 0.37471(12)
C34_2 C 0.32461(13) 0.79354(15) 0.43306(12)
C35_2 C 0.29673(13) 0.78364(13) 0.48957(12)
H16_2 H 0.2544 0.7751 0.4913
C36_2 C 0.32999(13) 0.78620(14) 0.54253(12)
C37_2 C 0.39265(14) 0.7969(2) 0.54105(13)
H17_2 H 0.4155 0.8003 0.5776
C38_2 C 0.42077(14) 0.8026(3) 0.48396(14)
C39_2 C 0.38747(14) 0.8050(2) 0.43108(14)
H18_2 H 0.4068 0.8144 0.3935
C40_2 C 0.30166(13) 0.77770(12) 0.60414(11)
O26_2 O 0.68046(9) 0.81339(10) 0.67098(8)
O27_2 O 0.76214(9) 0.77346(10) 0.62558(8)
O29_2 O 0.66681(9) 0.79620(10) 0.35125(8)
N6_2 N 0.51540(12) 0.8088(2) 0.52326(12)
C41_2 C 0.70907(13) 0.79330(14) 0.62529(12)
C42_2 C 0.67539(13) 0.79354(15) 0.56694(12)
C43_2 C 0.70327(13) 0.78364(13) 0.51043(12)
H20_2 H 0.7456 0.7751 0.5087
C44_2 C 0.67001(13) 0.78620(14) 0.45747(12)
C45_2 C 0.60735(14) 0.7969(2) 0.45895(13)
H21_2 H 0.5845 0.8003 0.4224
C46_2 C 0.57923(14) 0.8026(3) 0.51604(14)
C47_2 C 0.61253(14) 0.8050(2) 0.56892(14)
H22_2 H 0.5932 0.8144 0.6065
C48_2 C 0.69834(13) 0.77770(12) 0.39586(11)
Fe9 Fe 0.196331(16) 0.739408(16) 0.679832(16)
Fe16 Fe 0.320168(16) 0.803669(16) 0.739408(16)
Fe23_2 Fe 0.303669(16) 0.820168(16) 0.239408(16)
O34_2 O 0.18661(10) 0.67098(8) 0.31954(9)
O37_2 O 0.32902(8) 0.68046(9) 0.18661(10)
O38_2 O 0.22654(10) 0.62558(8) 0.23786(9)
O43_2 O 0.25462(9) 0.75045(9) 0.10716(8)
O46_2 O 0.16681(9) 0.85125(8) 0.29620(10)
O50_2 O 0.24050(8) 0.75950(8) 0.24050(8)
O7_2 O 0.17098(8) 0.68661(10) 0.81954(9)
O8_2 O 0.12558(8) 0.72654(10) 0.73786(9)
N2_2 N 0.02326(12) 0.6912(2) 0.98460(12)
C9_2 C 0.12529(12) 0.70670(14) 0.79093(13)
C10_2 C 0.06694(12) 0.70646(15) 0.82461(13)
C11_2 C 0.01043(12) 0.71636(13) 0.79673(13)
H5_2 H 0.0087 0.7249 0.7544
C14_2 C 0.01604(14) 0.6974(3) 0.92077(14)
C15_2 C 0.06892(14) 0.6950(2) 0.88747(14)
H7_2 H 0.1065 0.6856 0.9068
O30_2 O 0.25950(8) 0.74050(8) 0.74050(8)
O31_2 O 0.12944(10) 0.73674(11) 0.61505(9)
Fe20_2 Fe 0.260592(16) 0.679832(16) 0.803669(16)
O35_2 O 0.18046(9) 0.82902(8) 0.68661(10)
O47_2 O 0.20380(10) 0.64875(8) 0.66681(9)
N1_2 N 0.97674(12) 0.6912(2) 0.01540(12)
C1_2 C 0.87471(12) 0.70670(14) 0.20907(13)
C2_2 C 0.93306(12) 0.70646(15) 0.17539(13)
C3_2 C 0.98957(12) 0.71636(13) 0.20327(13)
H1_2 H 0.9913 0.7249 0.2456
C6_2 C 0.98396(14) 0.6974(3) 0.07923(14)
C7_2 C 0.93108(14) 0.6950(2) 0.11253(14)
H3_2 H 0.8935 0.6856 0.0932
O9_2 O 0.89284(8) 0.74538(9) 0.75045(9)
C12_2 C 0.95747(12) 0.71380(14) 0.82999(13)
C13_2 C 0.95895(13) 0.7031(2) 0.89265(14)
H6_2 H 0.9224 0.6997 0.9155
C16_2 C 0.89586(11) 0.72230(12) 0.80166(13)
Fe3 Fe 0.260592(16) 0.320168(16) 0.196331(16)
O12 O 0.31339(10) 0.18046(9) 0.17098(8)
O13 O 0.27346(10) 0.26214(9) 0.12558(8)
O16 O 0.26326(11) 0.38495(9) 0.12944(10)
N3 N 0.3088(2) 0.01540(12) 0.02326(12)
C17 C 0.29330(14) 0.20907(13) 0.12529(12)
C18 C 0.29354(15) 0.17539(13) 0.06694(12)
C19 C 0.28364(13) 0.20327(13) 0.01043(12)
H9 H 0.2751 0.2456 0.0087
C22 C 0.3026(3) 0.07923(14) 0.01604(14)
C23 C 0.3050(2) 0.11253(14) 0.06892(14)
H11 H 0.3144 0.0932 0.1065
Fe22 Fe 0.320168(16) 0.196331(16) 0.260592(16)
O33 O 0.17098(8) 0.31339(10) 0.18046(9)
O40 O 0.24538(9) 0.39284(8) 0.25045(9)
O45 O 0.35125(8) 0.33319(9) 0.20380(10)
O49 O 0.25950(8) 0.25950(8) 0.25950(8)
O14 O 0.25462(9) 0.24955(9) 0.89284(8)
O15 O 0.29620(10) 0.16681(9) 0.85125(8)
C20 C 0.28620(14) 0.17001(13) 0.95747(12)
C21 C 0.2969(2) 0.10735(14) 0.95895(13)
H10 H 0.3003 0.0845 0.9224
C24 C 0.27770(12) 0.19834(13) 0.89586(11)
Fe8 Fe 0.239408(16) 0.303669(16) 0.820168(16)
Fe15 Fe 0.303669(16) 0.179832(16) 0.760592(16)
O4_3 O 0.20380(10) 0.35125(8) 0.33319(9)
N1_3 N 0.1912(2) 0.52326(12) 0.48460(12)
C1_3 C 0.20670(14) 0.62529(12) 0.29093(13)
C2_3 C 0.20646(15) 0.56694(12) 0.32461(13)
C3_3 C 0.21636(13) 0.51043(12) 0.29673(13)
H1_3 H 0.2249 0.5087 0.2544
C4_3 C 0.21380(14) 0.45747(12) 0.32999(13)
C5_3 C 0.2031(2) 0.45895(13) 0.39265(14)
H2_3 H 0.1997 0.4224 0.4155
C6_3 C 0.1974(3) 0.51604(14) 0.42077(14)
C7_3 C 0.1950(2) 0.56892(14) 0.38747(14)
H3_3 H 0.1856 0.6065 0.4068
C8_3 C 0.22230(12) 0.39586(11) 0.30166(13)
O7_3 O 0.18661(10) 0.32902(8) 0.68046(9)
O8_3 O 0.22654(10) 0.37442(8) 0.76214(9)
O9_3 O 0.24538(9) 0.60716(8) 0.74955(9)
N2_3 N 0.1912(2) 0.47674(12) 0.51540(12)
C9_3 C 0.20670(14) 0.37471(12) 0.70907(13)
C10_3 C 0.20646(15) 0.43306(12) 0.67539(13)
C11_3 C 0.21636(13) 0.48957(12) 0.70327(13)
H5_3 H 0.2249 0.4913 0.7456
C12_3 C 0.21380(14) 0.54253(12) 0.67001(13)
C13_3 C 0.2031(2) 0.54105(13) 0.60735(14)
H6_3 H 0.1997 0.5776 0.5845
C14_3 C 0.1974(3) 0.48396(14) 0.57923(14)
C15_3 C 0.1950(2) 0.43108(14) 0.61253(14)
H7_3 H 0.1856 0.3935 0.5932
C16_3 C 0.22230(12) 0.60414(11) 0.69834(13)
Fe2_3 Fe 0.196331(16) 0.260592(16) 0.320168(16)
O11_3 O 0.12944(10) 0.26326(11) 0.38495(9)
O20 O 0.29620(10) 0.83319(9) 0.14875(8)
C28 C 0.28620(14) 0.82999(13) 0.04253(12)
C29 C 0.2969(2) 0.89265(14) 0.04105(13)
H14 H 0.3003 0.9155 0.0776
C32 C 0.27770(12) 0.80166(13) 0.10414(11)
O30_3 O 0.24050(8) 0.24050(8) 0.75950(8)
O31_3 O 0.23674(11) 0.37056(10) 0.88495(9)
Fe20_3 Fe 0.179832(16) 0.239408(16) 0.696331(16)
O35_3 O 0.32902(8) 0.31954(9) 0.81339(10)
O37_3 O 0.18046(9) 0.17098(8) 0.31339(10)
O38_3 O 0.12558(8) 0.27346(10) 0.26214(9)
O43_3 O 0.25045(9) 0.24538(9) 0.39284(8)
O47_3 O 0.14875(8) 0.29620(10) 0.83319(9)
O17 O 0.31339(10) 0.81954(9) 0.82902(8)
O18 O 0.27346(10) 0.73786(9) 0.87442(8)
N4 N 0.3088(2) 0.98460(12) 0.97674(12)
C25 C 0.29330(14) 0.79093(13) 0.87471(12)
C26 C 0.29354(15) 0.82461(13) 0.93306(12)
C27 C 0.28364(13) 0.79673(13) 0.98957(12)
H13 H 0.2751 0.7544 0.9913
C30 C 0.3026(3) 0.92077(14) 0.98396(14)
C31 C 0.3050(2) 0.88747(14) 0.93108(14)
H15 H 0.3144 0.9068 0.8935
N1_4 N 0.02326(12) 0.3088(2) 0.01540(12)
C1_4 C 0.12529(12) 0.29330(14) 0.20907(13)
C2_4 C 0.06694(12) 0.29354(15) 0.17539(13)
C3_4 C 0.01043(12) 0.28364(13) 0.20327(13)
H1_4 H 0.0087 0.2751 0.2456
C6_4 C 0.01604(14) 0.3026(3) 0.07923(14)
C7_4 C 0.06892(14) 0.3050(2) 0.11253(14)
H3_4 H 0.1065 0.3144 0.0932
O12_2 O 0.68046(9) 0.18661(10) 0.32902(8)
O14_2 O 0.74955(9) 0.24538(9) 0.60716(8)
O15_2 O 0.66681(9) 0.20380(10) 0.64875(8)
N3_2 N 0.51540(12) 0.1912(2) 0.47674(12)
C17_2 C 0.70907(13) 0.20670(14) 0.37471(12)
C18_2 C 0.67539(13) 0.20646(15) 0.43306(12)
C19_2 C 0.70327(13) 0.21636(13) 0.48957(12)
H9_2 H 0.7456 0.2249 0.4913
C20_2 C 0.67001(13) 0.21380(14) 0.54253(12)
C21_2 C 0.60735(14) 0.2031(2) 0.54105(13)
H10_2 H 0.5845 0.1997 0.5776
C22_2 C 0.57923(14) 0.1974(3) 0.48396(14)
C23_2 C 0.61253(14) 0.1950(2) 0.43108(14)
H11_2 H 0.5932 0.1856 0.3935
C24_2 C 0.69834(13) 0.22230(12) 0.60414(11)
O17_2 O 0.31954(9) 0.18661(10) 0.67098(8)
O18_2 O 0.23786(9) 0.22654(10) 0.62558(8)
O20_2 O 0.33319(9) 0.20380(10) 0.35125(8)
N4_2 N 0.48460(12) 0.1912(2) 0.52326(12)
C25_2 C 0.29093(13) 0.20670(14) 0.62529(12)
C26_2 C 0.32461(13) 0.20646(15) 0.56694(12)
C27_2 C 0.29673(13) 0.21636(13) 0.51043(12)
H13_2 H 0.2544 0.2249 0.5087
C28_2 C 0.32999(13) 0.21380(14) 0.45747(12)
C29_2 C 0.39265(14) 0.2031(2) 0.45895(13)
H14_2 H 0.4155 0.1997 0.4224
C30_2 C 0.42077(14) 0.1974(3) 0.51604(14)
C31_2 C 0.38747(14) 0.1950(2) 0.56892(14)
H15_2 H 0.4068 0.1856 0.6065
C32_2 C 0.30166(13) 0.22230(12) 0.39586(11)
O9_4 O 0.10716(8) 0.25462(9) 0.75045(9)
C12_4 C 0.04253(12) 0.28620(14) 0.82999(13)
C13_4 C 0.04105(13) 0.2969(2) 0.89265(14)
H6_4 H 0.0776 0.3003 0.9155
C16_4 C 0.10414(11) 0.27770(12) 0.80166(13)
C4_4 C 0.95747(12) 0.28620(14) 0.17001(13)
C5_4 C 0.95895(13) 0.2969(2) 0.10735(14)
H2_4 H 0.9224 0.3003 0.0845
C8_4 C 0.89586(11) 0.27770(12) 0.19834(13)
O7_4 O 0.82902(8) 0.31339(10) 0.81954(9)
O8_4 O 0.87442(8) 0.27346(10) 0.73786(9)
N2_4 N 0.97674(12) 0.3088(2) 0.98460(12)
C9_4 C 0.87471(12) 0.29330(14) 0.79093(13)
C10_4 C 0.93306(12) 0.29354(15) 0.82461(13)
C11_4 C 0.98957(12) 0.28364(13) 0.79673(13)
H5_4 H 0.9913 0.2751 0.7544
C14_4 C 0.98396(14) 0.3026(3) 0.92077(14)
C15_4 C 0.93108(14) 0.3050(2) 0.88747(14)
H7_4 H 0.8935 0.3144 0.9068
O30_4 O 0.74050(8) 0.25950(8) 0.74050(8)
O31_4 O 0.87056(10) 0.26326(11) 0.61505(9)
O35_4 O 0.81954(9) 0.17098(8) 0.68661(10)
O31_5 O 0.73674(11) 0.38495(9) 0.87056(10)
O47_4 O 0.64875(8) 0.33319(9) 0.79620(10)
O32_2 O 0.61505(9) 0.87056(10) 0.26326(11)
O39_2 O 0.73786(9) 0.87442(8) 0.27346(10)
O41_2 O 0.60716(8) 0.74955(9) 0.24538(9)
O11_4 O 0.62944(10) 0.88495(9) 0.76326(11)
O38_4 O 0.62558(8) 0.76214(9) 0.77346(10)
O43_4 O 0.75045(9) 0.89284(8) 0.74538(9)
O32_3 O 0.88495(9) 0.76326(11) 0.62944(10)
O48_2 O 0.83319(9) 0.85125(8) 0.70380(10)
O11_5 O 0.62944(10) 0.11505(9) 0.23674(11)
O38_5 O 0.62558(8) 0.23786(9) 0.22654(10)
O43_5 O 0.75045(9) 0.10716(8) 0.25462(9)
O32_4 O 0.61505(9) 0.12944(10) 0.73674(11)
O39_3 O 0.73786(9) 0.12558(8) 0.72654(10)
O41_3 O 0.60716(8) 0.25045(9) 0.75462(9)
O2_2 O 0.26214(9) 0.12558(8) 0.27346(10)
O6_2 O 0.38495(9) 0.12944(10) 0.26326(11)
N1_5 N 0.01540(12) 0.02326(12) 0.3088(2)
C1_5 C 0.20907(13) 0.12529(12) 0.29330(14)
C2_5 C 0.17539(13) 0.06694(12) 0.29354(15)
C3_5 C 0.20327(13) 0.01043(12) 0.28364(13)
H1_5 H 0.2456 0.0087 0.2751
C6_5 C 0.07923(14) 0.01604(14) 0.3026(3)
C7_5 C 0.11253(14) 0.06892(14) 0.3050(2)
H3_5 H 0.0932 0.1065 0.3144
O13_2 O 0.37442(8) 0.76214(9) 0.22654(10)
O16_2 O 0.37056(10) 0.88495(9) 0.23674(11)
N3_3 N 0.47674(12) 0.51540(12) 0.1912(2)
C17_3 C 0.37471(12) 0.70907(13) 0.20670(14)
C18_3 C 0.43306(12) 0.67539(13) 0.20646(15)
C19_3 C 0.48957(12) 0.70327(13) 0.21636(13)
H9_3 H 0.4913 0.7456 0.2249
C20_3 C 0.54253(12) 0.67001(13) 0.21380(14)
C21_3 C 0.54105(13) 0.60735(14) 0.2031(2)
H10_3 H 0.5776 0.5845 0.1997
C22_3 C 0.48396(14) 0.57923(14) 0.1974(3)
C23_3 C 0.43108(14) 0.61253(14) 0.1950(2)
H11_3 H 0.3935 0.5932 0.1856
C24_3 C 0.60414(11) 0.69834(13) 0.22230(12)
O19 O 0.39284(8) 0.25045(9) 0.24538(9)
N4_3 N 0.52326(12) 0.48460(12) 0.1912(2)
C25_3 C 0.62529(12) 0.29093(13) 0.20670(14)
C26_3 C 0.56694(12) 0.32461(13) 0.20646(15)
C27_3 C 0.51043(12) 0.29673(13) 0.21636(13)
H13_3 H 0.5087 0.2544 0.2249
C28_3 C 0.45747(12) 0.32999(13) 0.21380(14)
C29_3 C 0.45895(13) 0.39265(14) 0.2031(2)
H14_3 H 0.4224 0.4155 0.1997
C30_3 C 0.51604(14) 0.42077(14) 0.1974(3)
C31_3 C 0.56892(14) 0.38747(14) 0.1950(2)
H15_3 H 0.6065 0.4068 0.1856
C32_3 C 0.39586(11) 0.30166(13) 0.22230(12)
O40_2 O 0.24955(9) 0.89284(8) 0.25462(9)
C4_5 C 0.17001(13) 0.95747(12) 0.28620(14)
C5_5 C 0.10735(14) 0.95895(13) 0.2969(2)
H2_5 H 0.0845 0.9224 0.3003
C8_5 C 0.19834(13) 0.89586(11) 0.27770(12)
C12_5 C 0.82999(13) 0.04253(12) 0.28620(14)
C13_5 C 0.89265(14) 0.04105(13) 0.2969(2)
H6_5 H 0.9155 0.0776 0.3003
C16_5 C 0.80166(13) 0.10414(11) 0.27770(12)
N2_5 N 0.98460(12) 0.97674(12) 0.3088(2)
C9_5 C 0.79093(13) 0.87471(12) 0.29330(14)
C10_5 C 0.82461(13) 0.93306(12) 0.29354(15)
C11_5 C 0.79673(13) 0.98957(12) 0.28364(13)
H5_5 H 0.7544 0.9913 0.2751
C14_5 C 0.92077(14) 0.98396(14) 0.3026(3)
C15_5 C 0.88747(14) 0.93108(14) 0.3050(2)
H7_5 H 0.9068 0.8935 0.3144
O25_3 O 0.26326(11) 0.61505(9) 0.87056(10)
O32_5 O 0.11505(9) 0.23674(11) 0.62944(10)
O46_3 O 0.35125(8) 0.66681(9) 0.79620(10)
O48_3 O 0.16681(9) 0.14875(8) 0.70380(10)
O9_5 O 0.24955(9) 0.10716(8) 0.74538(9)
C12_6 C 0.17001(13) 0.04253(12) 0.71380(14)
C13_6 C 0.10735(14) 0.04105(13) 0.7031(2)
H6_6 H 0.0845 0.0776 0.6997
C16_6 C 0.19834(13) 0.10414(11) 0.72230(12)
O8_5 O 0.26214(9) 0.87442(8) 0.72654(10)
N2_6 N 0.01540(12) 0.97674(12) 0.6912(2)
C9_6 C 0.20907(13) 0.87471(12) 0.70670(14)
C10_6 C 0.17539(13) 0.93306(12) 0.70646(15)
C11_6 C 0.20327(13) 0.98957(12) 0.71636(13)
H5_6 H 0.2456 0.9913 0.7249
C14_6 C 0.07923(14) 0.98396(14) 0.6974(3)
C15_6 C 0.11253(14) 0.93108(14) 0.6950(2)
H7_6 H 0.0932 0.8935 0.6856
O31_6 O 0.38495(9) 0.87056(10) 0.73674(11)
O42_2 O 0.39284(8) 0.74955(9) 0.75462(9)
N1_6 N 0.98460(12) 0.02326(12) 0.6912(2)
C1_6 C 0.79093(13) 0.12529(12) 0.70670(14)
C2_6 C 0.82461(13) 0.06694(12) 0.70646(15)
C3_6 C 0.79673(13) 0.01043(12) 0.71636(13)
H1_6 H 0.7544 0.0087 0.7249
C6_6 C 0.92077(14) 0.01604(14) 0.6974(3)
C7_6 C 0.88747(14) 0.06892(14) 0.6950(2)
H3_6 H 0.9068 0.1065 0.6856
N3_4 N 0.52326(12) 0.51540(12) 0.8088(2)
C17_4 C 0.62529(12) 0.70907(13) 0.79330(14)
C18_4 C 0.56694(12) 0.67539(13) 0.79354(15)
C19_4 C 0.51043(12) 0.70327(13) 0.78364(13)
H9_4 H 0.5087 0.7456 0.7751
C20_4 C 0.45747(12) 0.67001(13) 0.78620(14)
C21_4 C 0.45895(13) 0.60735(14) 0.7969(2)
H10_4 H 0.4224 0.5845 0.8003
C22_4 C 0.51604(14) 0.57923(14) 0.8026(3)
C23_4 C 0.56892(14) 0.61253(14) 0.8050(2)
H11_4 H 0.6065 0.5932 0.8144
C24_4 C 0.39586(11) 0.69834(13) 0.77770(12)
O18_3 O 0.37442(8) 0.23786(9) 0.77346(10)
N4_4 N 0.47674(12) 0.48460(12) 0.8088(2)
C25_4 C 0.37471(12) 0.29093(13) 0.79330(14)
C26_4 C 0.43306(12) 0.32461(13) 0.79354(15)
C27_4 C 0.48957(12) 0.29673(13) 0.78364(13)
H13_4 H 0.4913 0.2544 0.7751
C28_4 C 0.54253(12) 0.32999(13) 0.78620(14)
C29_4 C 0.54105(13) 0.39265(14) 0.7969(2)
H14_4 H 0.5776 0.4155 0.8003
C30_4 C 0.48396(14) 0.42077(14) 0.8026(3)
C31_4 C 0.43108(14) 0.38747(14) 0.8050(2)
H15_4 H 0.3935 0.4068 0.8144
C32_4 C 0.60414(11) 0.30166(13) 0.77770(12)
C4_6 C 0.82999(13) 0.95747(12) 0.71380(14)
C5_6 C 0.89265(14) 0.95895(13) 0.7031(2)
H2_6 H 0.9155 0.9224 0.6997
C8_6 C 0.80166(13) 0.89586(11) 0.72230(12)
O6_3 O 0.37056(10) 0.11505(9) 0.76326(11)
loop_
_geom_bond_atom_site_label_1
_geom_bond_atom_site_label_2
_geom_bond_site_symmetry_1
_geom_bond_site_symmetry_2
O28 C48 1_555 1_555
O29 C48 1_555 1_555
C45 C44 1_555 1_555
H21 C45 1_555 1_555
C48 C44 1_555 1_555
Fe7 O28 1_555 1_555
Fe19 O29 1_555 1_555
O26 C41 1_555 1_555
O27 C41 1_555 1_555
C41 C42 1_555 1_555
C42 C43 1_555 1_555
C43 H20 1_555 1_555
C46 N6 1_555 1_555
C47 C42 1_555 1_555
H22 C47 1_555 1_555
Fe12 O27 1_555 1_555
Fe14 O26 1_555 1_555
C46 C47 1_555 1_555
Fe7 O2 1_555 1_555
O1 C1 1_555 1_555
O2 C1 1_555 1_555
O3 C8 1_555 1_555
O4 C8 1_555 1_555
O5 Fe7 1_555 1_555
O6 Fe7 1_555 1_555
N1 C6 1_555 1_555
C1 C2 1_555 1_555
C2 C3 1_555 1_555
C3 H1 1_555 1_555
C4 C3 1_555 1_555
C5 C4 1_555 1_555
H2 C5 1_555 1_555
C6 C5 1_555 1_555
C7 C2 1_555 1_555
H3 C7 1_555 1_555
C8 C4 1_555 1_555
O7 C9 1_555 1_555
O8 C9 1_555 1_555
O9 C16 1_555 1_555
O10 C16 1_555 1_555
N2 N1 1_555 1_555
C9 C10 1_555 1_555
C10 C11 1_555 1_555
C11 H5 1_555 1_555
C12 C11 1_555 1_555
C13 C12 1_555 1_555
H6 C13 1_555 1_555
C14 N2 1_555 1_555
C15 C10 1_555 1_555
H7 C15 1_555 1_555
C16 C12 1_555 1_555
Fe2 O4 1_555 1_555
O11 Fe2 1_555 1_555
Fe4 O3 1_555 1_555
O21 C33 1_555 1_555
O22 Fe4 1_555 1_555
O25 Fe4 1_555 1_555
N5 C38 1_555 1_555
C33 O22 1_555 1_555
C34 C33 1_555 1_555
C35 C34 1_555 1_555
H16 C35 1_555 1_555
C39 C34 1_555 1_555
H18 C39 1_555 1_555
Fe5 O8 1_555 1_555
O30 Fe5 1_555 1_555
O31 Fe5 1_555 1_555
Fe6 O1 1_555 1_555
O32 Fe6 1_555 1_555
Fe12 O9 1_555 1_555
Fe17 O30 1_555 1_555
Fe19 O5 1_555 1_555
Fe20 O7 1_555 1_555
Fe21 O10 1_555 1_555
Fe23 O21 1_555 1_555
O34 Fe4 1_555 1_555
O35 Fe5 1_555 1_555
O36 Fe7 1_555 1_555
O37 Fe2 1_555 1_555
O38 Fe2 1_555 1_555
O39 Fe6 1_555 1_555
O41 Fe6 1_555 1_555
O42 Fe5 1_555 1_555
O43 Fe2 1_555 1_555
O44 Fe7 1_555 1_555
O46 Fe4 1_555 1_555
O47 Fe5 1_555 1_555
O48 Fe6 1_555 1_555
O50 Fe2 1_555 1_555
O5 Fe6 1_555 1_555
C6 C7 1_555 1_555
C13 C14 1_555 1_555
C14 C15 1_555 1_555
Fe4 O50 1_555 1_555
C38 C39 1_555 1_555
O30 Fe20 1_555 1_555
Fe23 O50 1_555 1_555
O42 C40 1_555 1_555
O24 C40 1_555 1_555
C37 C36 1_555 1_555
H17 C37 1_555 1_555
C40 C36 1_555 1_555
Fe17 O24 1_555 1_555
O3_2 C8_2 1_555 1_555
O4_2 C8_2 1_555 1_555
C5_2 C4_2 1_555 1_555
H2_2 C5_2 1_555 1_555
C8_2 C4_2 1_555 1_555
Fe2_2 O4_2 1_555 1_555
O11_2 Fe2_2 1_555 1_555
Fe4_2 O3_2 1_555 1_555
O21_2 C33_2 1_555 1_555
O22_2 Fe4_2 1_555 1_555
O23 C40_2 1_555 1_555
O24_2 C40_2 1_555 1_555
O25_2 Fe4_2 1_555 1_555
N5_2 C38_2 1_555 1_555
C33_2 O22_2 1_555 1_555
C34_2 C33_2 1_555 1_555
C35_2 C34_2 1_555 1_555
H16_2 C35_2 1_555 1_555
C36_2 C35_2 1_555 1_555
C37_2 C36_2 1_555 1_555
H17_2 C37_2 1_555 1_555
C38_2 C37_2 1_555 1_555
C39_2 C34_2 1_555 1_555
H18_2 C39_2 1_555 1_555
C40_2 C36_2 1_555 1_555
O26_2 C41_2 1_555 1_555
O27_2 C41_2 1_555 1_555
O43 C48_2 1_555 1_555
O29_2 C48_2 1_555 1_555
N6_2 N5_2 1_555 1_555
C41_2 C42_2 1_555 1_555
C42_2 C43_2 1_555 1_555
C43_2 H20_2 1_555 1_555
C44_2 C43_2 1_555 1_555
C45_2 C44_2 1_555 1_555
H21_2 C45_2 1_555 1_555
C46_2 N6_2 1_555 1_555
C47_2 C42_2 1_555 1_555
H22_2 C47_2 1_555 1_555
C48_2 C44_2 1_555 1_555
Fe9 O23 1_555 1_555
Fe20 O27_2 1_555 1_555
Fe17 O26_2 1_555 1_555
Fe16 O24_2 1_555 1_555
Fe23 O29_2 1_555 1_555
Fe23_2 O21_2 1_555 1_555
O34_2 Fe4_2 1_555 1_555
O37_2 Fe2_2 1_555 1_555
O38_2 Fe2_2 1_555 1_555
O43_2 Fe2_2 1_555 1_555
O46_2 Fe4_2 1_555 1_555
O50_2 Fe2_2 1_555 1_555
Fe4_2 O50_2 1_555 1_555
C38_2 C39_2 1_555 1_555
C45_2 C46_2 1_555 1_555
C46_2 C47_2 1_555 1_555
Fe23_2 O50_2 1_555 1_555
O7_2 C9_2 1_555 1_555
O8_2 C9_2 1_555 1_555
C9_2 C10_2 1_555 1_555
C10_2 C11_2 1_555 1_555
C11_2 H5_2 1_555 1_555
C14_2 N2_2 1_555 1_555
C15_2 C10_2 1_555 1_555
H7_2 C15_2 1_555 1_555
Fe9 O8_2 1_555 1_555
O30_2 Fe9 1_555 1_555
O31_2 Fe9 1_555 1_555
Fe16 O30_2 1_555 1_555
Fe20_2 O7_2 1_555 1_555
O35_2 Fe9 1_555 1_555
O47_2 Fe9 1_555 1_555
C14_2 C15_2 1_555 1_555
O30_2 Fe20_2 1_555 1_555
O34 C1_2 1_555 1_555
O38 C1_2 1_555 1_555
N1_2 C6_2 1_555 1_555
C1_2 C2_2 1_555 1_555
C2_2 C3_2 1_555 1_555
C3_2 H1_2 1_555 1_555
C7_2 C2_2 1_555 1_555
H3_2 C7_2 1_555 1_555
C6_2 C7_2 1_555 1_555
O9_2 C16_2 1_555 1_555
O47 C16_2 1_555 1_555
C13_2 C12_2 1_555 1_555
H6_2 C13_2 1_555 1_555
C16_2 C12_2 1_555 1_555
Fe20 O9_2 1_555 1_555
Fe3 O13 1_555 1_555
O12 C17 1_555 1_555
O13 C17 1_555 1_555
O16 Fe3 1_555 1_555
N3 C22 1_555 1_555
C17 C18 1_555 1_555
C18 C19 1_555 1_555
C19 H9 1_555 1_555
C23 C18 1_555 1_555
H11 C23 1_555 1_555
Fe22 O12 1_555 1_555
O33 Fe3 1_555 1_555
O40 Fe3 1_555 1_555
O45 Fe3 1_555 1_555
O49 Fe3 1_555 1_555
C22 C23 1_555 1_555
Fe22 O49 1_555 1_555
O14 C24 1_555 1_555
O15 C24 1_555 1_555
C21 C20 1_555 1_555
H10 C21 1_555 1_555
C24 C20 1_555 1_555
Fe8 O14 1_555 1_555
Fe15 O15 1_555 1_555
O34_2 C1_3 1_555 1_555
O38_2 C1_3 1_555 1_555
O40 C8_3 1_555 1_555
O4_3 C8_3 1_555 1_555
N1_3 C6_3 1_555 1_555
C1_3 C2_3 1_555 1_555
C2_3 C3_3 1_555 1_555
C3_3 H1_3 1_555 1_555
C4_3 C3_3 1_555 1_555
C5_3 C4_3 1_555 1_555
H2_3 C5_3 1_555 1_555
C6_3 C5_3 1_555 1_555
C7_3 C2_3 1_555 1_555
H3_3 C7_3 1_555 1_555
C8_3 C4_3 1_555 1_555
O7_3 C9_3 1_555 1_555
O8_3 C9_3 1_555 1_555
O9_3 C16_3 1_555 1_555
O47_2 C16_3 1_555 1_555
N2_3 N1_3 1_555 1_555
C9_3 C10_3 1_555 1_555
C10_3 C11_3 1_555 1_555
C11_3 H5_3 1_555 1_555
C12_3 C11_3 1_555 1_555
C13_3 C12_3 1_555 1_555
H6_3 C13_3 1_555 1_555
C14_3 N2_3 1_555 1_555
C15_3 C10_3 1_555 1_555
H7_3 C15_3 1_555 1_555
C16_3 C12_3 1_555 1_555
Fe2_3 O4_3 1_555 1_555
O11_3 Fe2_3 1_555 1_555
O20 C32 1_555 1_555
C29 C28 1_555 1_555
H14 C29 1_555 1_555
C32 O43_2 1_555 1_555
Fe8 O8_3 1_555 1_555
O30_3 Fe8 1_555 1_555
O31_3 Fe8 1_555 1_555
Fe20_2 O9_3 1_555 1_555
Fe15 O30_3 1_555 1_555
Fe20_3 O7_3 1_555 1_555
O35_3 Fe8 1_555 1_555
O37_3 Fe2_3 1_555 1_555
O38_3 Fe2_3 1_555 1_555
O43_3 Fe2_3 1_555 1_555
O47_3 Fe8 1_555 1_555
O49 Fe2_3 1_555 1_555
C6_3 C7_3 1_555 1_555
C13_3 C14_3 1_555 1_555
C14_3 C15_3 1_555 1_555
O20 Fe23_2 1_555 1_555
C28 C32 1_555 1_555
O30_3 Fe20_3 1_555 1_555
O17 C25 1_555 1_555
O18 C25 1_555 1_555
C25 C26 1_555 1_555
C26 C27 1_555 1_555
C27 H13 1_555 1_555
C30 N4 1_555 1_555
C31 C26 1_555 1_555
H15 C31 1_555 1_555
Fe20_2 O18 1_555 1_555
Fe16 O17 1_555 1_555
C30 C31 1_555 1_555
O33 C1_4 1_555 1_555
O38_3 C1_4 1_555 1_555
N1_4 C6_4 1_555 1_555
C1_4 C2_4 1_555 1_555
C2_4 C3_4 1_555 1_555
C3_4 H1_4 1_555 1_555
C7_4 C2_4 1_555 1_555
H3_4 C7_4 1_555 1_555
O12_2 C17_2 1_555 1_555
O39 C17_2 1_555 1_555
O14_2 C24_2 1_555 1_555
O15_2 C24_2 1_555 1_555
N3_2 C22_2 1_555 1_555
C17_2 C18_2 1_555 1_555
C18_2 C19_2 1_555 1_555
C19_2 H9_2 1_555 1_555
C20_2 C19_2 1_555 1_555
C21_2 C20_2 1_555 1_555
H10_2 C21_2 1_555 1_555
C22_2 C21_2 1_555 1_555
C23_2 C18_2 1_555 1_555
H11_2 C23_2 1_555 1_555
C24_2 C20_2 1_555 1_555
O17_2 C25_2 1_555 1_555
O18_2 C25_2 1_555 1_555
O20_2 C32_2 1_555 1_555
N4_2 N3_2 1_555 1_555
C25_2 C26_2 1_555 1_555
C26_2 C27_2 1_555 1_555
C27_2 H13_2 1_555 1_555
C28_2 C27_2 1_555 1_555
C29_2 C28_2 1_555 1_555
H14_2 C29_2 1_555 1_555
C30_2 N4_2 1_555 1_555
C31_2 C26_2 1_555 1_555
H15_2 C31_2 1_555 1_555
C32_2 O43_3 1_555 1_555
Fe21 O14_2 1_555 1_555
Fe20_3 O18_2 1_555 1_555
Fe15 O17_2 1_555 1_555
Fe14 O15_2 1_555 1_555
Fe19 O12_2 1_555 1_555
C6_4 C7_4 1_555 1_555
C22_2 C23_2 1_555 1_555
O20_2 Fe22 1_555 1_555
C28_2 C32_2 1_555 1_555
C29_2 C30_2 1_555 1_555
C30_2 C31_2 1_555 1_555
O9_4 C16_4 1_555 1_555
O47_3 C16_4 1_555 1_555
C13_4 C12_4 1_555 1_555
H6_4 C13_4 1_555 1_555
C16_4 C12_4 1_555 1_555
Fe20_3 O9_4 1_555 1_555
O41 C8_4 1_555 1_555
O44 C8_4 1_555 1_555
C5_4 C4_4 1_555 1_555
H2_4 C5_4 1_555 1_555
C8_4 C4_4 1_555 1_555
O7_4 C9_4 1_555 1_555
O8_4 C9_4 1_555 1_555
C9_4 C10_4 1_555 1_555
C10_4 C11_4 1_555 1_555
C11_4 H5_4 1_555 1_555
C14_4 N2_4 1_555 1_555
C15_4 C10_4 1_555 1_555
H7_4 C15_4 1_555 1_555
Fe21 O8_4 1_555 1_555
O30_4 Fe21 1_555 1_555
O31_4 Fe21 1_555 1_555
Fe14 O30_4 1_555 1_555
Fe12 O7_4 1_555 1_555
O35_4 Fe21 1_555 1_555
C14_4 C15_4 1_555 1_555
O30_4 Fe12 1_555 1_555
O31_5 Fe12 1_555 1_555
O47_4 Fe12 1_555 1_555
O32_2 Fe23 1_555 1_555
O39_2 Fe23 1_555 1_555
O41_2 Fe23 1_555 1_555
O11_4 Fe17 1_555 1_555
O38_4 Fe17 1_555 1_555
O43_4 Fe17 1_555 1_555
O32_3 Fe20 1_555 1_555
O48_2 Fe20 1_555 1_555
O11_5 Fe19 1_555 1_555
O38_5 Fe19 1_555 1_555
O43_5 Fe19 1_555 1_555
O32_4 Fe14 1_555 1_555
O39_3 Fe14 1_555 1_555
O41_3 Fe14 1_555 1_555
Fe22 O2_2 1_555 1_555
O37_3 C1_5 1_555 1_555
O2_2 C1_5 1_555 1_555
O6_2 Fe22 1_555 1_555
N1_5 C6_5 1_555 1_555
C1_5 C2_5 1_555 1_555
C2_5 C3_5 1_555 1_555
C3_5 H1_5 1_555 1_555
C7_5 C2_5 1_555 1_555
H3_5 C7_5 1_555 1_555
Fe23_2 O13_2 1_555 1_555
O37_2 C17_3 1_555 1_555
O13_2 C17_3 1_555 1_555
O41_2 C24_3 1_555 1_555
O46 C24_3 1_555 1_555
O16_2 Fe23_2 1_555 1_555
N3_3 C22_3 1_555 1_555
C17_3 C18_3 1_555 1_555
C18_3 C19_3 1_555 1_555
C19_3 H9_3 1_555 1_555
C20_3 C19_3 1_555 1_555
C21_3 C20_3 1_555 1_555
H10_3 C21_3 1_555 1_555
C22_3 C21_3 1_555 1_555
C23_3 C18_3 1_555 1_555
H11_3 C23_3 1_555 1_555
C24_3 C20_3 1_555 1_555
O36 C25_3 1_555 1_555
O38_5 C25_3 1_555 1_555
O19 Fe22 1_555 1_555
O45 C32_3 1_555 1_555
N4_3 N3_3 1_555 1_555
C25_3 C26_3 1_555 1_555
C26_3 C27_3 1_555 1_555
C27_3 H13_3 1_555 1_555
C28_3 C27_3 1_555 1_555
C29_3 C28_3 1_555 1_555
H14_3 C29_3 1_555 1_555
C30_3 N4_3 1_555 1_555
C31_3 C26_3 1_555 1_555
H15_3 C31_3 1_555 1_555
C32_3 O19 1_555 1_555
O40_2 Fe23_2 1_555 1_555
C6_5 C7_5 1_555 1_555
C22_3 C23_3 1_555 1_555
C28_3 C32_3 1_555 1_555
C29_3 C30_3 1_555 1_555
C30_3 C31_3 1_555 1_555
O40_2 C8_5 1_555 1_555
O46_2 C8_5 1_555 1_555
C5_5 C4_5 1_555 1_555
H2_5 C5_5 1_555 1_555
C8_5 C4_5 1_555 1_555
O43_5 C16_5 1_555 1_555
O48 C16_5 1_555 1_555
C13_5 C12_5 1_555 1_555
H6_5 C13_5 1_555 1_555
C16_5 C12_5 1_555 1_555
O37 C9_5 1_555 1_555
O39_2 C9_5 1_555 1_555
C9_5 C10_5 1_555 1_555
C10_5 C11_5 1_555 1_555
C11_5 H5_5 1_555 1_555
C14_5 N2_5 1_555 1_555
C15_5 C10_5 1_555 1_555
H7_5 C15_5 1_555 1_555
C14_5 C15_5 1_555 1_555
O25_3 Fe20_2 1_555 1_555
O32_5 Fe20_3 1_555 1_555
O46_3 Fe20_2 1_555 1_555
O48_3 Fe20_3 1_555 1_555
O9_5 C16_6 1_555 1_555
O48_3 C16_6 1_555 1_555
C13_6 C12_6 1_555 1_555
H6_6 C13_6 1_555 1_555
C16_6 C12_6 1_555 1_555
Fe15 O9_5 1_555 1_555
O35_2 C9_6 1_555 1_555
O8_5 C9_6 1_555 1_555
C9_6 C10_6 1_555 1_555
C10_6 C11_6 1_555 1_555
C11_6 H5_6 1_555 1_555
C14_6 N2_6 1_555 1_555
C15_6 C10_6 1_555 1_555
H7_6 C15_6 1_555 1_555
Fe16 O8_5 1_555 1_555
O31_6 Fe16 1_555 1_555
O42_2 Fe16 1_555 1_555
C14_6 C15_6 1_555 1_555
O35_4 C1_6 1_555 1_555
O39_3 C1_6 1_555 1_555
N1_6 C6_6 1_555 1_555
C1_6 C2_6 1_555 1_555
C2_6 C3_6 1_555 1_555
C3_6 H1_6 1_555 1_555
C7_6 C2_6 1_555 1_555
H3_6 C7_6 1_555 1_555
O35 C17_4 1_555 1_555
O38_4 C17_4 1_555 1_555
O42_2 C24_4 1_555 1_555
O46_3 C24_4 1_555 1_555
N3_4 C22_4 1_555 1_555
C17_4 C18_4 1_555 1_555
C18_4 C19_4 1_555 1_555
C19_4 H9_4 1_555 1_555
C20_4 C19_4 1_555 1_555
C21_4 C20_4 1_555 1_555
H10_4 C21_4 1_555 1_555
C22_4 C21_4 1_555 1_555
C23_4 C18_4 1_555 1_555
H11_4 C23_4 1_555 1_555
C24_4 C20_4 1_555 1_555
O35_3 C25_4 1_555 1_555
O18_3 C25_4 1_555 1_555
O47_4 C32_4 1_555 1_555
N4_4 N3_4 1_555 1_555
C25_4 C26_4 1_555 1_555
C26_4 C27_4 1_555 1_555
C27_4 H13_4 1_555 1_555
C28_4 C27_4 1_555 1_555
C29_4 C28_4 1_555 1_555
H14_4 C29_4 1_555 1_555
C30_4 N4_4 1_555 1_555
C31_4 C26_4 1_555 1_555
H15_4 C31_4 1_555 1_555
C32_4 O41_3 1_555 1_555
Fe15 O18_3 1_555 1_555
C6_6 C7_6 1_555 1_555
C22_4 C23_4 1_555 1_555
C28_4 C32_4 1_555 1_555
C29_4 C30_4 1_555 1_555
C30_4 C31_4 1_555 1_555
O43_4 C8_6 1_555 1_555
O48_2 C8_6 1_555 1_555
C5_6 C4_6 1_555 1_555
H2_6 C5_6 1_555 1_555
C8_6 C4_6 1_555 1_555
O6_3 Fe15 1_555 1_555

#END
