
###############################################################################
#
# This file contains modified crystal structure data generated from the
# MOF subset of the Cambridge Structural Database (CSD) v543 
# hosted by the Cambridge Crystallographic Data Centre (CCDC).
#
# This work is licensed under the Creative Commons
# Attribution-NonCommercial-ShareAlike 4.0 International License.
# To view a copy of this license, visit
# http://creativecommons.org/licenses/by-nc-sa/4.0/
# or send a letter to
# Creative Commons, PO Box 1866, Mountain View, CA 94042, USA.
#
# CIF created using the CSD Python API on 29 September 2022
# The structure has been converted into the P1 space group
# The structure has a 3D framework
# The original CSD entry TOWSAC is in the rhombohedral crystal system
# The original CSD entry TOWSAC is in a Sohncke space group
# The framework has been calculated to contain at least 10.0% void space
# The void calculation uses a probe of radius 1.32A, grid spacing 0.4
# H atom positions have been added when not included in the experimental data
#
###############################################################################

data_TOWSAC
_chemical_formula_moiety         '(C396 H252 Cu14 N36 O90)n'
_symmetry_cell_setting           triclinic
_symmetry_space_group_name_H-M   'P 1'
_symmetry_Int_Tables_number      1
_space_group_name_Hall           'P 1'
loop_
_symmetry_equiv_pos_site_id
_symmetry_equiv_pos_as_xyz
1 x,y,z
_cell_length_a                   17.9424(6)
_cell_length_b                   17.9424(6)
_cell_length_c                   52.247(4)
_cell_angle_alpha                90
_cell_angle_beta                 90
_cell_angle_gamma                120
_cell_volume                     14566.4
loop_
_atom_site_label
_atom_site_type_symbol
_atom_site_fract_x
_atom_site_fract_y
_atom_site_fract_z
O3 O 0.8481(5) 0.0769(5) 0.16418(11)
O4 O 0.8027(5) 0.1216(5) 0.13082(11)
C8 C 0.8093(7) 0.0638(8) 0.1422(2)
Cu2 Cu 0.84496(11) 0.23269(8) 0.14626(2)
Cu4 Cu 0.89936(8) 0.17829(11) 0.18707(2)
H2 H 0.715058 0.0108665 0.0975835
Cu1 Cu 0.76731(8) 0.61227(7) 0.14626(2)
O1 O 0.7351(5) 0.6997(4) 0.13456(12)
O2 O 0.7813(5) 0.7839(4) 0.16896(10)
N1 N 0.6385(10) 0.8618(8) 0.0744(2)
C1 C 0.7376(7) 0.8333(7) 0.13336(16)
C2 C 0.7766(8) 0.9126(7) 0.14353(17)
C3 C 0.7676(7) 0.9779(8) 0.13155(18)
C4 C 0.7223(8) 0.9616(8) 0.10758(18)
C5 C 0.6898(11) 0.8816(10) 0.0985(2)
C6 C 0.6934(9) 0.8130(8) 0.1101(2)
C7 C 0.7498(7) 0.7676(8) 0.1462(2)
O5 O 0.4944(15) 0.7238(14) 0.0933(4)
C10 C 0.546(2) 0.8440(11) 0.0014(5)
C11 C 0.5786(13) 0.8384(13) 0.0251(7)
C12 C 0.523(3) 0.8014(19) 0.0457(4)
C13 C 0.436(2) 0.7699(18) 0.0428(6)
C14 C 0.4032(12) 0.7755(17) 0.0191(8)
C15 C 0.559(2) 0.779(2) 0.0718(6)
Cu5 Cu 0.82171(11) 0.72106(7) 0.18707(2)
O6 O 0.6641(6) 0.5494(4) 0.16437(10)
O7 O 0.8186(5) 0.5621(7) 0.16915(11)
O8 O 0.8784(5) 0.6811(7) 0.13082(11)
N3 N 0.7181(6) 0.5344(12) 0.11253(13)
H1 H 0.664073 0.749014 0.101646
H3 H 0.658625 0.905419 0.0599505
H5 H 0.647298 0.862899 0.0274592
H6 H 0.814858 0.926286 0.160893
H9 H 0.392789 0.74062 0.0589971
H10 H 0.334423 0.750721 0.0168295
C9 C 0.458(2) 0.8125(16) 0.9985(5)
N2 N 0.2819(6) 0.8163(10) 0.88747(13)
C16 C 0.2498(9) 0.8234(15) 0.90937(18)
C17 C 0.2911(13) 0.8266(21) 0.9333(2)
C18 C 0.3684(11) 0.8203(18) 0.9317(2)
C19 C 0.3989(10) 0.8125(18) 0.9084(2)
C20 C 0.3528(9) 0.8082(16) 0.8872(2)
C21 C 0.4238(13) 0.8254(22) 0.9595(4)
C22 C 0.358(2) 0.790(4) 0.9831(6)
Cu3 Cu 0.23269(8) 0.84496(11) 0.85374(2)
H4 H 0.589213 0.872932 0.985184
H7 H 0.492643 0.849014 0.96071
H8 H 0.458056 0.809829 0.906892
H11 H 0.374512 0.797527 0.868813
H12 H 0.290391 0.765743 0.987504
H13 H 0.190942 0.82692 0.9094
H14 H 0.265721 0.833362 0.951544
Cu1_2 Cu 0.38773(7) 0.15504(11) 0.14626(2)
O1_2 O 0.3003(4) 0.0354(6) 0.13456(12)
Cu5_2 Cu 0.27894(7) 0.10064(13) 0.18707(2)
O6_2 O 0.4506(4) 0.1146(7) 0.16437(10)
O7_2 O 0.4379(7) 0.2564(9) 0.16915(11)
O8_2 O 0.3189(7) 0.1973(9) 0.13082(11)
N3_2 N 0.4656(12) 0.1837(13) 0.11253(13)
O2_2 O 0.2161(4) 0.9974(6) 0.16896(10)
N1_2 N 0.1382(8) 0.7767(13) 0.0744(2)
C1_2 C 0.1667(7) 0.9043(10) 0.13336(16)
C2_2 C 0.0874(7) 0.8640(11) 0.14353(17)
C3_2 C 0.0221(8) 0.7897(11) 0.13155(18)
C4_2 C 0.0384(8) 0.7607(11) 0.10758(18)
C5_2 C 0.1184(10) 0.8082(15) 0.0985(2)
C6_2 C 0.1870(8) 0.8804(12) 0.1101(2)
C7_2 C 0.2324(8) 0.9822(11) 0.1462(2)
O5_2 O 0.2762(14) 0.7706(21) 0.0933(4)
C10_2 C 0.1560(11) 0.7020(23) 0.0014(5)
C11_2 C 0.1616(13) 0.7402(18) 0.0251(7)
C12_2 C 0.1986(19) 0.7216(36) 0.0457(4)
C13_2 C 0.2301(18) 0.6661(27) 0.0428(6)
C14_2 C 0.2245(17) 0.6277(21) 0.0191(8)
C15_2 C 0.221(2) 0.780(3) 0.0718(6)
H1_2 H 0.250986 0.915059 0.101646
H3_2 H 0.0945813 0.753206 0.0599505
H5_2 H 0.137101 0.784399 0.0274592
H6_2 H 0.0737144 0.888572 0.160893
H9_2 H 0.25938 0.652169 0.0589971
H10_2 H 0.249279 0.583702 0.0168295
C9_2 C 0.1875(16) 0.6455(26) 0.9985(5)
N2_2 N 0.1837(10) 0.4656(12) 0.88747(13)
C16_2 C 0.1766(15) 0.4264(17) 0.90937(18)
C17_2 C 0.1734(21) 0.4645(25) 0.9333(2)
C18_2 C 0.1797(18) 0.5481(21) 0.9317(2)
C19_2 C 0.1875(18) 0.5864(21) 0.9084(2)
C20_2 C 0.1918(16) 0.5446(18) 0.8872(2)
C21_2 C 0.1746(22) 0.5984(26) 0.9595(4)
C22_2 C 0.210(4) 0.568(4) 0.9831(6)
Cu3_2 Cu 0.15504(11) 0.38773(14) 0.85374(2)
H4_2 H 0.127068 0.716281 0.985184
H7_2 H 0.150986 0.643629 0.96071
H8_2 H 0.190171 0.648226 0.906892
H11_2 H 0.202473 0.576985 0.868813
H12_2 H 0.234257 0.524648 0.987504
H13_2 H 0.17308 0.364023 0.9094
H14_2 H 0.166638 0.432359 0.951544
O3_2 O 0.9231(5) 0.7712(7) 0.16418(11)
C8_2 C 0.9362(8) 0.7455(11) 0.1422(2)
H2_2 H 0.989133 0.704191 0.0975835
O2_3 O 0.0026(6) 0.2187(5) 0.16896(10)
O3_3 O 0.2288(7) 0.1519(5) 0.16418(11)
N1_3 N 0.2233(13) 0.3615(10) 0.0744(2)
C1_3 C 0.0957(10) 0.2624(7) 0.13336(16)
C2_3 C 0.1360(11) 0.2234(8) 0.14353(17)
C3_3 C 0.2103(11) 0.2324(7) 0.13155(18)
C4_3 C 0.2393(11) 0.2777(8) 0.10758(18)
C5_3 C 0.1918(15) 0.3102(11) 0.0985(2)
C6_3 C 0.1196(12) 0.3066(9) 0.1101(2)
C7_3 C 0.0178(11) 0.2502(7) 0.1462(2)
C8_3 C 0.2545(11) 0.1907(7) 0.1422(2)
O5_3 O 0.2294(21) 0.5056(15) 0.0933(4)
C10_3 C 0.2980(23) 0.454(2) 0.0014(5)
C11_3 C 0.2598(18) 0.4214(13) 0.0251(7)
C12_3 C 0.2784(36) 0.477(3) 0.0457(4)
C13_3 C 0.3339(27) 0.564(2) 0.0428(6)
C14_3 C 0.3723(21) 0.5968(12) 0.0191(8)
C15_3 C 0.220(3) 0.441(2) 0.0718(6)
H1_3 H 0.0849414 0.335927 0.101646
H2_3 H 0.295809 0.284942 0.0975835
H3_3 H 0.246794 0.341375 0.0599505
H5_3 H 0.215601 0.352702 0.0274592
H6_3 H 0.111428 0.185142 0.160893
H9_3 H 0.347831 0.607211 0.0589971
H10_3 H 0.416298 0.665577 0.0168295
C9_3 C 0.3545(26) 0.542(2) 0.9985(5)
N2_3 N 0.5344(12) 0.7181(6) 0.88747(13)
C16_3 C 0.5736(17) 0.7502(9) 0.90937(18)
C17_3 C 0.5355(25) 0.7089(13) 0.9333(2)
C18_3 C 0.4519(21) 0.6316(11) 0.9317(2)
C19_3 C 0.4136(21) 0.6011(10) 0.9084(2)
C20_3 C 0.4554(18) 0.6472(9) 0.8872(2)
C21_3 C 0.4016(26) 0.5762(13) 0.9595(4)
C22_3 C 0.432(4) 0.642(2) 0.9831(6)
Cu3_3 Cu 0.61227(14) 0.76731(8) 0.85374(2)
H4_3 H 0.283719 0.410787 0.985184
H7_3 H 0.356371 0.507357 0.96071
H8_3 H 0.351774 0.541944 0.906892
H11_3 H 0.423015 0.625488 0.868813
H12_3 H 0.475352 0.709609 0.987504
H13_3 H 0.635977 0.809058 0.9094
H14_3 H 0.567641 0.734279 0.951544
O1_3 O 0.9646(6) 0.2649(5) 0.13456(12)
O6_3 O 0.8854(7) 0.3359(6) 0.16437(10)
O7_3 O 0.7436(9) 0.1814(5) 0.16915(11)
N3_3 N 0.8163(13) 0.2819(6) 0.11253(13)
O3_4 O 0.0769(5) 0.8481(5) 0.83582(11)
O4_2 O 0.1216(5) 0.8027(5) 0.86918(11)
C8_4 C 0.0638(8) 0.8093(7) 0.8578(2)
Cu4_2 Cu 0.17829(11) 0.89936(8) 0.81293(2)
H2_4 H 0.0108665 0.715058 0.902416
C9_4 C 0.8125(16) 0.458(2) 0.0015(5)
C16_4 C 0.8234(15) 0.2498(9) 0.09063(18)
C17_4 C 0.8266(21) 0.2911(13) 0.0667(2)
C18_4 C 0.8203(18) 0.3684(11) 0.0683(2)
C19_4 C 0.8125(18) 0.3989(10) 0.0916(2)
C20_4 C 0.8082(16) 0.3528(9) 0.1128(2)
C21_4 C 0.8254(22) 0.4238(13) 0.0405(4)
C22_4 C 0.790(4) 0.358(2) 0.0169(6)
H4_4 H 0.872932 0.589213 0.0148155
H7_4 H 0.849014 0.492643 0.0392902
H8_4 H 0.809829 0.458056 0.0931082
H11_4 H 0.797527 0.374512 0.131187
H12_4 H 0.765743 0.290391 0.0124964
H13_4 H 0.82692 0.190942 0.0905996
H14_4 H 0.833362 0.265721 0.0484558
O1_4 O 0.6997(4) 0.7351(5) 0.86544(12)
O2_4 O 0.7839(4) 0.7813(5) 0.83104(10)
N1_4 N 0.8618(8) 0.6385(10) 0.9256(2)
C1_4 C 0.8333(7) 0.7376(7) 0.86664(16)
C2_4 C 0.9126(7) 0.7766(8) 0.85647(17)
C3_4 C 0.9779(8) 0.7676(7) 0.86845(18)
C4_4 C 0.9616(8) 0.7223(8) 0.89242(18)
C5_4 C 0.8816(10) 0.6898(11) 0.9015(2)
C6_4 C 0.8130(8) 0.6934(9) 0.8899(2)
C7_4 C 0.7676(8) 0.7498(7) 0.8538(2)
O5_4 O 0.7238(14) 0.4944(15) 0.9067(4)
C10_4 C 0.8440(11) 0.546(2) 0.9986(5)
C11_4 C 0.8384(13) 0.5786(13) 0.9749(7)
C12_4 C 0.8014(19) 0.523(3) 0.9543(4)
C13_4 C 0.7699(18) 0.436(2) 0.9572(6)
C14_4 C 0.7755(17) 0.4032(12) 0.9809(8)
C15_4 C 0.779(2) 0.559(2) 0.9282(6)
Cu5_3 Cu 0.72106(7) 0.82171(11) 0.81293(2)
O6_4 O 0.5494(4) 0.6641(6) 0.83563(10)
O7_4 O 0.5621(7) 0.8186(5) 0.83085(11)
O8_3 O 0.6811(7) 0.8784(5) 0.86918(11)
H1_4 H 0.749014 0.664073 0.898354
H3_4 H 0.905419 0.658625 0.940049
H5_4 H 0.862899 0.647298 0.972541
H6_4 H 0.926286 0.814858 0.839107
H9_4 H 0.74062 0.392789 0.941003
H10_4 H 0.750721 0.334423 0.98317
C9_5 C 0.542(2) 0.3545(26) 0.0015(5)
C16_5 C 0.7502(9) 0.5736(17) 0.09063(18)
C17_5 C 0.7089(13) 0.5355(25) 0.0667(2)
C18_5 C 0.6316(11) 0.4519(21) 0.0683(2)
C19_5 C 0.6011(10) 0.4136(21) 0.0916(2)
C20_5 C 0.6472(9) 0.4554(18) 0.1128(2)
C21_5 C 0.5762(13) 0.4016(26) 0.0405(4)
C22_5 C 0.642(2) 0.432(4) 0.0169(6)
H4_5 H 0.410787 0.283719 0.0148155
H7_5 H 0.507357 0.356371 0.0392902
H8_5 H 0.541944 0.351774 0.0931082
H11_5 H 0.625488 0.423015 0.131187
H12_5 H 0.709609 0.475352 0.0124964
H13_5 H 0.809058 0.635977 0.0905996
H14_5 H 0.734279 0.567641 0.0484558
O2_5 O 0.2187(5) 0.0026(6) 0.83104(10)
O3_5 O 0.1519(5) 0.2288(7) 0.83582(11)
O4_3 O 0.1973(5) 0.3189(7) 0.86918(11)
N1_5 N 0.3615(10) 0.2233(13) 0.9256(2)
C1_5 C 0.2624(7) 0.0957(10) 0.86664(16)
C2_5 C 0.2234(8) 0.1360(11) 0.85647(17)
C3_5 C 0.2324(7) 0.2103(11) 0.86845(18)
C4_5 C 0.2777(8) 0.2393(11) 0.89242(18)
C5_5 C 0.3102(11) 0.1918(15) 0.9015(2)
C6_5 C 0.3066(9) 0.1196(12) 0.8899(2)
C7_5 C 0.2502(7) 0.0178(11) 0.8538(2)
C8_5 C 0.1907(7) 0.2545(11) 0.8578(2)
O5_5 O 0.5056(15) 0.2294(21) 0.9067(4)
C10_5 C 0.454(2) 0.2980(23) 0.9986(5)
C11_5 C 0.4214(13) 0.2598(18) 0.9749(7)
C12_5 C 0.477(3) 0.2784(36) 0.9543(4)
C13_5 C 0.564(2) 0.3339(27) 0.9572(6)
C14_5 C 0.5968(12) 0.3723(21) 0.9809(8)
C15_5 C 0.441(2) 0.220(3) 0.9282(6)
Cu4_3 Cu 0.10064(8) 0.27894(14) 0.81293(2)
H1_5 H 0.335927 0.0849414 0.898354
H2_5 H 0.284942 0.295809 0.902416
H3_5 H 0.341375 0.246794 0.940049
H5_5 H 0.352702 0.215601 0.972541
H6_5 H 0.185142 0.111428 0.839107
H9_5 H 0.607211 0.347831 0.941003
H10_5 H 0.665577 0.416298 0.98317
O1_5 O 0.2649(5) 0.9646(6) 0.86544(12)
O6_5 O 0.3359(6) 0.8854(7) 0.83563(10)
O7_5 O 0.1814(5) 0.7436(9) 0.83085(11)
O1_6 O 0.0354(6) 0.3003(4) 0.86544(12)
O6_6 O 0.1146(7) 0.4506(4) 0.83563(10)
O7_6 O 0.2564(9) 0.4379(7) 0.83085(11)
C9_6 C 0.6455(26) 0.1875(16) 0.0015(5)
C16_6 C 0.4264(17) 0.1766(15) 0.09063(18)
C17_6 C 0.4645(25) 0.1734(21) 0.0667(2)
C18_6 C 0.5481(21) 0.1797(18) 0.0683(2)
C19_6 C 0.5864(21) 0.1875(18) 0.0916(2)
C20_6 C 0.5446(18) 0.1918(16) 0.1128(2)
C21_6 C 0.5984(26) 0.1746(22) 0.0405(4)
C22_6 C 0.568(4) 0.210(4) 0.0169(6)
H4_6 H 0.716281 0.127068 0.0148155
H7_6 H 0.643629 0.150986 0.0392902
H8_6 H 0.648226 0.190171 0.0931082
H11_6 H 0.576985 0.202473 0.131187
H12_6 H 0.524648 0.234257 0.0124964
H13_6 H 0.364023 0.17308 0.0905996
H14_6 H 0.432359 0.166638 0.0484558
O2_6 O 0.9974(6) 0.2161(4) 0.83104(10)
N1_6 N 0.7767(13) 0.1382(8) 0.9256(2)
C1_6 C 0.9043(10) 0.1667(7) 0.86664(16)
C2_6 C 0.8640(11) 0.0874(7) 0.85647(17)
C3_6 C 0.7897(11) 0.0221(8) 0.86845(18)
C4_6 C 0.7607(11) 0.0384(8) 0.89242(18)
C5_6 C 0.8082(15) 0.1184(10) 0.9015(2)
C6_6 C 0.8804(12) 0.1870(8) 0.8899(2)
C7_6 C 0.9822(11) 0.2324(8) 0.8538(2)
O5_6 O 0.7706(21) 0.2762(14) 0.9067(4)
C10_6 C 0.7020(23) 0.1560(11) 0.9986(5)
C11_6 C 0.7402(18) 0.1616(13) 0.9749(7)
C12_6 C 0.7216(36) 0.1986(19) 0.9543(4)
C13_6 C 0.6661(27) 0.2301(18) 0.9572(6)
C14_6 C 0.6277(21) 0.2245(17) 0.9809(8)
C15_6 C 0.780(3) 0.221(2) 0.9282(6)
H1_6 H 0.915059 0.250986 0.898354
H3_6 H 0.753206 0.0945813 0.940049
H5_6 H 0.784399 0.137101 0.972541
H6_6 H 0.888572 0.0737144 0.839107
H9_6 H 0.652169 0.25938 0.941003
H10_6 H 0.583702 0.249279 0.98317
O3_6 O 0.7712(7) 0.9231(5) 0.83582(11)
C8_6 C 0.7455(11) 0.9362(8) 0.8578(2)
H2_6 H 0.704191 0.989133 0.902416
O1_7 O 0.4018(5) 0.0330(4) 0.46789(12)
O2_7 O 0.4480(5) 0.1172(4) 0.50229(10)
O3_7 O 0.5148(5) 0.4102(5) 0.49751(11)
O4_4 O 0.4694(5) 0.4549(5) 0.46415(11)
N1_7 N 0.3052(10) 0.1951(8) 0.4077(2)
C1_7 C 0.4043(7) 0.1666(7) 0.46669(16)
C2_7 C 0.4433(8) 0.2459(7) 0.47686(17)
C3_7 C 0.4343(7) 0.3112(8) 0.46488(18)
C4_7 C 0.3890(8) 0.2949(8) 0.44091(18)
C5_7 C 0.3565(11) 0.2149(10) 0.4318(2)
C6_7 C 0.3601(9) 0.1463(8) 0.4434(2)
C7_7 C 0.4165(7) 0.1009(8) 0.4795(2)
C8_7 C 0.4760(7) 0.3971(8) 0.4755(2)
O5_7 O 0.1611(15) 0.0571(14) 0.4266(4)
C9_7 C 0.125(2) 0.1458(16) 0.3318(5)
C10_7 C 0.213(2) 0.1773(11) 0.3347(5)
C11_7 C 0.2453(13) 0.1717(13) 0.3584(7)
C12_7 C 0.190(3) 0.1347(19) 0.3790(4)
C13_7 C 0.103(2) 0.1032(18) 0.3761(6)
C14_7 C 0.0699(12) 0.1088(17) 0.3524(8)
C15_7 C 0.226(2) 0.112(2) 0.4051(6)
C18_7 C 0.0351(11) 0.1536(18) 0.2650(2)
C19_7 C 0.0656(10) 0.1458(18) 0.2417(2)
C20_7 C 0.0195(9) 0.1415(16) 0.2205(2)
C21_7 C 0.0905(13) 0.1587(22) 0.2928(4)
C22_7 C 0.025(2) 0.123(4) 0.3164(6)
Cu2_2 Cu 0.51163(11) 0.56602(8) 0.47959(2)
Cu4_4 Cu 0.56602(8) 0.51163(11) 0.52041(2)
Cu5_4 Cu 0.48837(11) 0.05440(7) 0.52041(2)
O8_4 O 0.5451(5) 0.0144(7) 0.46415(11)
H1_7 H 0.33074 0.0823477 0.434979
H2_7 H 0.381724 0.3442 0.430917
H3_7 H 0.325291 0.238752 0.393284
H4_7 H 0.25588 0.206265 0.318518
H5_7 H 0.313965 0.196233 0.360792
H6_7 H 0.481525 0.259619 0.494227
H7_7 H 0.15931 0.182347 0.294043
H8_7 H 0.124722 0.143163 0.240225
H9_7 H 0.059456 0.0739536 0.39233
H10_7 H 0.00108945 0.0840545 0.350163
H11_7 H 0.0411789 0.130861 0.202146
Cu1_3 Cu 0.43398(8) 0.94560(7) 0.47959(2)
O6_7 O 0.3307(6) 0.8828(4) 0.49771(10)
O7_7 O 0.4852(5) 0.8955(7) 0.50249(11)
N3_4 N 0.3848(6) 0.8677(12) 0.44586(13)
N2_4 N 0.9486(6) 0.1496(10) 0.22080(13)
C16_7 C 0.9165(9) 0.1567(15) 0.24270(18)
C17_7 C 0.9578(13) 0.1599(21) 0.2666(2)
H12_7 H 0.957058 0.0990762 0.320837
H13_7 H 0.857609 0.160253 0.242734
H14_7 H 0.932388 0.166696 0.284878
Cu1_4 Cu 0.05440(7) 0.48837(11) 0.47959(2)
O6_8 O 0.1172(4) 0.4480(7) 0.49771(10)
O7_8 O 0.1045(7) 0.5898(9) 0.50249(11)
N3_5 N 0.1323(12) 0.5170(13) 0.44586(13)
O1_8 O 0.9670(4) 0.3687(6) 0.46789(12)
O2_8 O 0.8828(4) 0.3307(6) 0.50229(10)
O3_8 O 0.5898(5) 0.1045(7) 0.49751(11)
N1_8 N 0.8049(8) 0.1100(13) 0.4077(2)
C1_8 C 0.8334(7) 0.2376(10) 0.46669(16)
C2_8 C 0.7541(7) 0.1973(11) 0.47686(17)
C3_8 C 0.6888(8) 0.1230(11) 0.46488(18)
C4_8 C 0.7051(8) 0.0940(11) 0.44091(18)
C5_8 C 0.7851(10) 0.1415(15) 0.4318(2)
C6_8 C 0.8537(8) 0.2137(12) 0.4434(2)
C7_8 C 0.8991(8) 0.3155(11) 0.4795(2)
C8_8 C 0.6029(8) 0.0788(11) 0.4755(2)
O5_8 O 0.9429(14) 0.1039(21) 0.4266(4)
C10_8 C 0.8227(11) 0.0353(23) 0.3347(5)
C11_8 C 0.8283(13) 0.0735(18) 0.3584(7)
C12_8 C 0.8653(19) 0.0549(36) 0.3790(4)
C15_8 C 0.888(2) 0.113(3) 0.4051(6)
Cu5_5 Cu 0.94560(7) 0.43398(13) 0.52041(2)
O8_5 O 0.9856(7) 0.5306(9) 0.46415(11)
H1_8 H 0.917652 0.248392 0.434979
H2_8 H 0.6558 0.0375244 0.430917
H3_8 H 0.761248 0.0865392 0.393284
H4_8 H 0.793735 0.0496146 0.318518
H5_8 H 0.803767 0.117732 0.360792
H6_8 H 0.740381 0.221906 0.494227
C9_8 C 0.8542(16) 0.9788(26) 0.3318(5)
C13_8 C 0.8968(18) 0.9994(27) 0.3761(6)
C14_8 C 0.8912(17) 0.9610(21) 0.3524(8)
N2_5 N 0.8504(10) 0.7989(12) 0.22080(13)
C16_8 C 0.8433(15) 0.7597(17) 0.24270(18)
C17_8 C 0.8401(21) 0.7978(25) 0.2666(2)
C18_8 C 0.8464(18) 0.8814(21) 0.2650(2)
C19_8 C 0.8542(18) 0.9197(21) 0.2417(2)
C20_8 C 0.8585(16) 0.8779(18) 0.2205(2)
C21_8 C 0.8413(22) 0.9317(26) 0.2928(4)
C22_8 C 0.877(4) 0.901(4) 0.3164(6)
H7_8 H 0.817653 0.976963 0.294043
H8_8 H 0.856837 0.98156 0.240225
H9_8 H 0.926046 0.985502 0.39233
H10_8 H 0.915946 0.917035 0.350163
H11_8 H 0.869139 0.910318 0.202146
H12_8 H 0.900924 0.857982 0.320837
H13_8 H 0.839747 0.697356 0.242734
H14_8 H 0.833304 0.765692 0.284878
N2_6 N 0.2011(12) 0.0514(6) 0.22080(13)
C16_9 C 0.2403(17) 0.0835(9) 0.24270(18)
C17_9 C 0.2022(25) 0.0422(13) 0.2666(2)
H12_9 H 0.142018 0.0429421 0.320837
H13_9 H 0.302644 0.142391 0.242734
H14_9 H 0.234308 0.067612 0.284878
C9_9 C 0.0212(26) 0.875(2) 0.3318(5)
C13_9 C 0.0006(27) 0.897(2) 0.3761(6)
C14_9 C 0.0390(21) 0.9301(12) 0.3524(8)
C18_9 C 0.1186(21) 0.9649(11) 0.2650(2)
C19_9 C 0.0803(21) 0.9344(10) 0.2417(2)
C20_9 C 0.1221(18) 0.9805(9) 0.2205(2)
C21_9 C 0.0683(26) 0.9095(13) 0.2928(4)
C22_9 C 0.099(4) 0.975(2) 0.3164(6)
H7_9 H 0.0230372 0.84069 0.294043
H8_9 H 0.0184405 0.875278 0.240225
H9_9 H 0.0144976 0.940544 0.39233
H10_9 H 0.082965 0.998911 0.350163
H11_9 H 0.0896818 0.958821 0.202146
O1_9 O 0.6313(6) 0.5982(5) 0.46789(12)
O2_9 O 0.6693(6) 0.5520(5) 0.50229(10)
O3_9 O 0.8955(7) 0.4852(5) 0.49751(11)
N1_9 N 0.8900(13) 0.6948(10) 0.4077(2)
C1_9 C 0.7624(10) 0.5957(7) 0.46669(16)
C2_9 C 0.8027(11) 0.5567(8) 0.47686(17)
C3_9 C 0.8770(11) 0.5657(7) 0.46488(18)
C4_9 C 0.9060(11) 0.6110(8) 0.44091(18)
C5_9 C 0.8585(15) 0.6435(11) 0.4318(2)
C6_9 C 0.7863(12) 0.6399(9) 0.4434(2)
C7_9 C 0.6845(11) 0.5835(7) 0.4795(2)
C8_9 C 0.9212(11) 0.5240(7) 0.4755(2)
O5_9 O 0.8961(21) 0.8389(15) 0.4266(4)
C10_9 C 0.9647(23) 0.787(2) 0.3347(5)
C11_9 C 0.9265(18) 0.7547(13) 0.3584(7)
C12_9 C 0.9451(36) 0.810(3) 0.3790(4)
C15_9 C 0.887(3) 0.774(2) 0.4051(6)
O6_9 O 0.5520(7) 0.6693(6) 0.49771(10)
O7_9 O 0.4102(9) 0.5148(5) 0.50249(11)
N3_6 N 0.4830(13) 0.6152(6) 0.44586(13)
H1_9 H 0.751608 0.66926 0.434979
H2_9 H 0.962476 0.618276 0.430917
H3_9 H 0.913461 0.674709 0.393284
H4_9 H 0.950385 0.74412 0.318518
H5_9 H 0.882268 0.686035 0.360792
H6_9 H 0.778094 0.518475 0.494227
O1_10 O 0.3664(4) 0.0684(5) 0.19877(12)
O4_5 O 0.7883(5) 0.1360(5) 0.20251(11)
C1_10 C 0.5000(7) 0.0709(7) 0.19997(16)
C2_10 C 0.5793(7) 0.1099(8) 0.18980(17)
C3_10 C 0.6446(8) 0.1009(7) 0.20178(18)
C4_10 C 0.6283(8) 0.0556(8) 0.22575(18)
C5_10 C 0.5483(10) 0.0231(11) 0.2348(2)
C6_10 C 0.4797(8) 0.0267(9) 0.2232(2)
C7_10 C 0.4343(8) 0.0831(7) 0.1871(2)
C8_10 C 0.7305(8) 0.1426(7) 0.1911(2)
O8_6 O 0.3478(7) 0.2117(5) 0.20251(11)
H2_10 H 0.677533 0.0483909 0.23575
H6_10 H 0.592952 0.148191 0.17244
N1_10 N 0.5285(8) 0.9718(10) 0.2589(2)
O5_10 O 0.3905(14) 0.8277(15) 0.2400(4)
C9_10 C 0.4792(16) 0.791(2) 0.3348(5)
C10_10 C 0.5107(11) 0.879(2) 0.3319(5)
C11_10 C 0.5051(13) 0.9119(13) 0.3082(7)
C12_10 C 0.4681(19) 0.856(3) 0.2876(4)
C13_10 C 0.4366(18) 0.769(2) 0.2905(6)
C14_10 C 0.4422(17) 0.7365(12) 0.3142(8)
C15_10 C 0.446(2) 0.892(2) 0.2615(6)
C16_10 C 0.4901(15) 0.5831(9) 0.42396(18)
C17_10 C 0.4933(21) 0.6244(13) 0.4000(2)
C18_10 C 0.4870(18) 0.7017(11) 0.4016(2)
C19_10 C 0.4792(18) 0.7322(10) 0.4249(2)
C20_10 C 0.4749(16) 0.6861(9) 0.4461(2)
C21_10 C 0.4921(22) 0.7571(13) 0.3738(4)
C22_10 C 0.457(4) 0.691(2) 0.3502(6)
H1_10 H 0.415681 0.997406 0.231688
H3_10 H 0.572085 0.991958 0.273383
H4_10 H 0.539599 0.922547 0.348149
H5_10 H 0.529566 0.980632 0.305874
H7_10 H 0.515681 0.825977 0.372624
H8_10 H 0.476496 0.791389 0.426442
H9_10 H 0.407287 0.726123 0.274336
H10_10 H 0.417388 0.667756 0.316504
H11_10 H 0.464194 0.707846 0.46452
H12_10 H 0.43241 0.623725 0.34583
H13_10 H 0.493587 0.524276 0.423933
H14_10 H 0.500029 0.599055 0.381789
N1_11 N 0.0282(10) 0.5566(13) 0.2589(2)
O5_11 O 0.1723(15) 0.5627(21) 0.2400(4)
C9_11 C 0.209(2) 0.6878(26) 0.3348(5)
C10_11 C 0.121(2) 0.6313(23) 0.3319(5)
C11_11 C 0.0881(13) 0.5931(18) 0.3082(7)
C12_11 C 0.144(3) 0.6117(36) 0.2876(4)
C13_11 C 0.231(2) 0.6672(27) 0.2905(6)
C14_11 C 0.2635(12) 0.7056(21) 0.3142(8)
C15_11 C 0.108(2) 0.553(3) 0.2615(6)
C16_11 C 0.4169(9) 0.9069(17) 0.42396(18)
C17_11 C 0.3756(13) 0.8688(25) 0.4000(2)
C18_11 C 0.2983(11) 0.7852(21) 0.4016(2)
C19_11 C 0.2678(10) 0.7469(21) 0.4249(2)
C20_11 C 0.3139(9) 0.7887(18) 0.4461(2)
C21_11 C 0.2429(13) 0.7349(26) 0.3738(4)
C22_11 C 0.309(2) 0.765(4) 0.3502(6)
H1_11 H 0.00259364 0.418275 0.231688
H3_11 H 0.00804208 0.580127 0.273383
H4_11 H 0.0774533 0.617052 0.348149
H5_11 H 0.0193685 0.548935 0.305874
H7_11 H 0.174023 0.689704 0.372624
H8_11 H 0.208611 0.685107 0.426442
H9_11 H 0.273877 0.681164 0.274336
H10_11 H 0.332244 0.749632 0.316504
H11_11 H 0.292154 0.756348 0.46452
H12_11 H 0.376275 0.808685 0.34583
H13_11 H 0.475724 0.969311 0.423933
H14_11 H 0.400945 0.900974 0.381789
O1_11 O 0.9316(5) 0.2979(6) 0.19877(12)
O4_6 O 0.8640(5) 0.6522(7) 0.20251(11)
C1_11 C 0.9291(7) 0.4290(10) 0.19997(16)
C2_11 C 0.8901(8) 0.4693(11) 0.18980(17)
C3_11 C 0.8991(7) 0.5436(11) 0.20178(18)
C4_11 C 0.9444(8) 0.5726(11) 0.22575(18)
C5_11 C 0.9769(11) 0.5251(15) 0.2348(2)
C6_11 C 0.9733(9) 0.4529(12) 0.2232(2)
C7_11 C 0.9169(7) 0.3511(11) 0.1871(2)
C8_11 C 0.8574(7) 0.5878(11) 0.1911(2)
H2_11 H 0.951609 0.629142 0.23575
H6_11 H 0.851809 0.444761 0.17244
O1_12 O 0.7021(6) 0.6336(4) 0.19877(12)
N1_12 N 0.4434(13) 0.4715(8) 0.2589(2)
C1_12 C 0.5710(10) 0.5000(7) 0.19997(16)
C2_12 C 0.5307(11) 0.4207(7) 0.18980(17)
C3_12 C 0.4564(11) 0.3554(8) 0.20178(18)
C4_12 C 0.4274(11) 0.3717(8) 0.22575(18)
C5_12 C 0.4749(15) 0.4517(10) 0.2348(2)
C6_12 C 0.5471(12) 0.5203(8) 0.2232(2)
C7_12 C 0.6489(11) 0.5657(8) 0.1871(2)
C8_12 C 0.4122(11) 0.2695(8) 0.1911(2)
O5_12 O 0.4373(21) 0.6095(14) 0.2400(4)
C9_12 C 0.3122(26) 0.5208(16) 0.3348(5)
C10_12 C 0.3687(23) 0.4893(11) 0.3319(5)
C11_12 C 0.4069(18) 0.4949(13) 0.3082(7)
C12_12 C 0.3883(36) 0.5319(19) 0.2876(4)
C13_12 C 0.3328(27) 0.5634(18) 0.2905(6)
C14_12 C 0.2944(21) 0.5578(17) 0.3142(8)
C15_12 C 0.447(3) 0.554(2) 0.2615(6)
C16_12 C 0.0931(17) 0.5099(15) 0.42396(18)
C17_12 C 0.1312(25) 0.5067(21) 0.4000(2)
C18_12 C 0.2148(21) 0.5130(18) 0.4016(2)
C19_12 C 0.2531(21) 0.5208(18) 0.4249(2)
C20_12 C 0.2113(18) 0.5251(16) 0.4461(2)
C21_12 C 0.2651(26) 0.5079(22) 0.3738(4)
C22_12 C 0.235(4) 0.543(4) 0.3502(6)
H1_12 H 0.581725 0.584319 0.231688
H2_12 H 0.370858 0.322467 0.23575
H3_12 H 0.419873 0.427915 0.273383
H4_12 H 0.382948 0.460401 0.348149
H5_12 H 0.451065 0.470434 0.305874
H6_12 H 0.555239 0.407048 0.17244
H7_12 H 0.310296 0.484319 0.372624
H8_12 H 0.314893 0.523504 0.426442
H9_12 H 0.318836 0.592713 0.274336
H10_12 H 0.250368 0.582612 0.316504
H11_12 H 0.243652 0.535806 0.46452
H12_12 H 0.191315 0.56759 0.34583
H13_12 H 0.0306892 0.506413 0.423933
H14_12 H 0.0990255 0.499971 0.381789
O1_13 O 0.0684(5) 0.3664(4) 0.80123(12)
O4_7 O 0.1360(5) 0.7883(5) 0.79749(11)
C1_13 C 0.0709(7) 0.5000(7) 0.80003(16)
C2_13 C 0.1099(8) 0.5793(7) 0.81020(17)
C3_13 C 0.1009(7) 0.6446(8) 0.79822(18)
C4_13 C 0.0556(8) 0.6283(8) 0.77425(18)
C5_13 C 0.0231(11) 0.5483(10) 0.7652(2)
C6_13 C 0.0267(9) 0.4797(8) 0.7768(2)
C7_13 C 0.0831(7) 0.4343(8) 0.8129(2)
C8_13 C 0.1426(7) 0.7305(8) 0.8089(2)
O8_7 O 0.2117(5) 0.3478(7) 0.79749(11)
N3_7 N 0.0514(6) 0.2011(12) 0.77920(13)
H2_13 H 0.0483909 0.677533 0.76425
H6_13 H 0.148191 0.592952 0.82756
N1_13 N 0.9718(10) 0.5285(8) 0.7411(2)
O5_13 O 0.8277(15) 0.3905(14) 0.7600(4)
C9_13 C 0.791(2) 0.4792(16) 0.6652(5)
C10_13 C 0.879(2) 0.5107(11) 0.6681(5)
C11_13 C 0.9119(13) 0.5051(13) 0.6918(7)
C12_13 C 0.856(3) 0.4681(19) 0.7124(4)
C13_13 C 0.769(2) 0.4366(18) 0.7095(6)
C14_13 C 0.7365(12) 0.4422(17) 0.6858(8)
C15_13 C 0.892(2) 0.446(2) 0.7385(6)
N2_7 N 0.6152(6) 0.4830(10) 0.55414(13)
C16_13 C 0.5831(9) 0.4901(15) 0.57604(18)
C17_13 C 0.6244(13) 0.4933(21) 0.6000(2)
C18_13 C 0.7017(11) 0.4870(18) 0.5984(2)
C19_13 C 0.7322(10) 0.4792(18) 0.5751(2)
C20_13 C 0.6861(9) 0.4749(16) 0.5539(2)
C21_13 C 0.7571(13) 0.4921(22) 0.6262(4)
C22_13 C 0.691(2) 0.457(4) 0.6498(6)
H1_13 H 0.997406 0.415681 0.768312
H3_13 H 0.991958 0.572085 0.726617
H4_13 H 0.922547 0.539599 0.651851
H5_13 H 0.980632 0.529566 0.694126
H7_13 H 0.825977 0.515681 0.627376
H8_13 H 0.791389 0.476496 0.573558
H9_13 H 0.726123 0.407287 0.725664
H10_13 H 0.667756 0.417388 0.683496
H11_13 H 0.707846 0.464194 0.53548
H12_13 H 0.623725 0.43241 0.65417
H13_13 H 0.524276 0.493587 0.576067
H14_13 H 0.599055 0.500029 0.618211
O1_14 O 0.6336(4) 0.7021(6) 0.80123(12)
N1_14 N 0.4715(8) 0.4434(13) 0.7411(2)
C1_14 C 0.5000(7) 0.5710(10) 0.80003(16)
C2_14 C 0.4207(7) 0.5307(11) 0.81020(17)
C3_14 C 0.3554(8) 0.4564(11) 0.79822(18)
C4_14 C 0.3717(8) 0.4274(11) 0.77425(18)
C5_14 C 0.4517(10) 0.4749(15) 0.7652(2)
C6_14 C 0.5203(8) 0.5471(12) 0.7768(2)
C7_14 C 0.5657(8) 0.6489(11) 0.8129(2)
C8_14 C 0.2695(8) 0.4122(11) 0.8089(2)
O5_14 O 0.6095(14) 0.4373(21) 0.7600(4)
C9_14 C 0.5208(16) 0.3122(26) 0.6652(5)
C10_14 C 0.4893(11) 0.3687(23) 0.6681(5)
C11_14 C 0.4949(13) 0.4069(18) 0.6918(7)
C12_14 C 0.5319(19) 0.3883(36) 0.7124(4)
C13_14 C 0.5634(18) 0.3328(27) 0.7095(6)
C14_14 C 0.5578(17) 0.2944(21) 0.6858(8)
C15_14 C 0.554(2) 0.447(3) 0.7385(6)
N2_8 N 0.5170(10) 0.1323(12) 0.55414(13)
C16_14 C 0.5099(15) 0.0931(17) 0.57604(18)
C17_14 C 0.5067(21) 0.1312(25) 0.6000(2)
C18_14 C 0.5130(18) 0.2148(21) 0.5984(2)
C19_14 C 0.5208(18) 0.2531(21) 0.5751(2)
C20_14 C 0.5251(16) 0.2113(18) 0.5539(2)
C21_14 C 0.5079(22) 0.2651(26) 0.6262(4)
C22_14 C 0.543(4) 0.235(4) 0.6498(6)
O8_8 O 0.6522(7) 0.8640(9) 0.79749(11)
N3_8 N 0.7989(12) 0.8504(13) 0.77920(13)
H1_14 H 0.584319 0.581725 0.768312
H2_14 H 0.322467 0.370858 0.76425
H3_14 H 0.427915 0.419873 0.726617
H4_14 H 0.460401 0.382948 0.651851
H5_14 H 0.470434 0.451065 0.694126
H6_14 H 0.407048 0.555239 0.82756
H7_14 H 0.484319 0.310296 0.627376
H8_14 H 0.523504 0.314893 0.573558
H9_14 H 0.592713 0.318836 0.725664
H10_14 H 0.582612 0.250368 0.683496
H11_14 H 0.535806 0.243652 0.53548
H12_14 H 0.56759 0.191315 0.65417
H13_14 H 0.506413 0.0306892 0.576067
H14_14 H 0.499971 0.0990255 0.618211
N1_15 N 0.5566(13) 0.0282(10) 0.7411(2)
O5_15 O 0.5627(21) 0.1723(15) 0.7600(4)
C9_15 C 0.6878(26) 0.209(2) 0.6652(5)
C10_15 C 0.6313(23) 0.121(2) 0.6681(5)
C11_15 C 0.5931(18) 0.0881(13) 0.6918(7)
C12_15 C 0.6117(36) 0.144(3) 0.7124(4)
C13_15 C 0.6672(27) 0.231(2) 0.7095(6)
C14_15 C 0.7056(21) 0.2635(12) 0.6858(8)
C15_15 C 0.553(3) 0.108(2) 0.7385(6)
N2_9 N 0.8677(12) 0.3848(6) 0.55414(13)
C16_15 C 0.9069(17) 0.4169(9) 0.57604(18)
C17_15 C 0.8688(25) 0.3756(13) 0.6000(2)
C18_15 C 0.7852(21) 0.2983(11) 0.5984(2)
C19_15 C 0.7469(21) 0.2678(10) 0.5751(2)
C20_15 C 0.7887(18) 0.3139(9) 0.5539(2)
C21_15 C 0.7349(26) 0.2429(13) 0.6262(4)
C22_15 C 0.765(4) 0.309(2) 0.6498(6)
H1_15 H 0.418275 0.00259364 0.768312
H3_15 H 0.580127 0.00804208 0.726617
H4_15 H 0.617052 0.0774533 0.651851
H5_15 H 0.548935 0.0193685 0.694126
H7_15 H 0.689704 0.174023 0.627376
H8_15 H 0.685107 0.208611 0.573558
H9_15 H 0.681164 0.273877 0.725664
H10_15 H 0.749632 0.332244 0.683496
H11_15 H 0.756348 0.292154 0.53548
H12_15 H 0.808685 0.376275 0.65417
H13_15 H 0.969311 0.475724 0.576067
H14_15 H 0.900974 0.400945 0.618211
O1_15 O 0.2979(6) 0.9316(5) 0.80123(12)
C1_15 C 0.4290(10) 0.9291(7) 0.80003(16)
C2_15 C 0.4693(11) 0.8901(8) 0.81020(17)
C3_15 C 0.5436(11) 0.8991(7) 0.79822(18)
C4_15 C 0.5726(11) 0.9444(8) 0.77425(18)
C5_15 C 0.5251(15) 0.9769(11) 0.7652(2)
C6_15 C 0.4529(12) 0.9733(9) 0.7768(2)
C7_15 C 0.3511(11) 0.9169(7) 0.8129(2)
C8_15 C 0.5878(11) 0.8574(7) 0.8089(2)
N3_9 N 0.1496(13) 0.9486(6) 0.77920(13)
H2_15 H 0.629142 0.951609 0.76425
H6_15 H 0.444761 0.851809 0.82756
O1_16 O 0.0330(4) 0.4018(5) 0.53211(12)
O4_8 O 0.4549(5) 0.4694(5) 0.53585(11)
N1_16 N 0.1951(8) 0.3052(10) 0.5923(2)
C1_16 C 0.1666(7) 0.4043(7) 0.53331(16)
C2_16 C 0.2459(7) 0.4433(8) 0.52314(17)
C3_16 C 0.3112(8) 0.4343(7) 0.53512(18)
C4_16 C 0.2949(8) 0.3890(8) 0.55909(18)
C5_16 C 0.2149(10) 0.3565(11) 0.5682(2)
C6_16 C 0.1463(8) 0.3601(9) 0.5566(2)
C7_16 C 0.1009(8) 0.4165(7) 0.5205(2)
C8_16 C 0.3971(8) 0.4760(7) 0.5245(2)
O5_16 O 0.0571(14) 0.1611(15) 0.5734(4)
C9_16 C 0.1458(16) 0.125(2) 0.6682(5)
C10_16 C 0.1773(11) 0.213(2) 0.6653(5)
C11_16 C 0.1717(13) 0.2453(13) 0.6416(7)
C12_16 C 0.1347(19) 0.190(3) 0.6210(4)
C13_16 C 0.1032(18) 0.103(2) 0.6239(6)
C14_16 C 0.1088(17) 0.0699(12) 0.6476(8)
C15_16 C 0.112(2) 0.226(2) 0.5949(6)
C18_16 C 0.1536(18) 0.0351(11) 0.7350(2)
C19_16 C 0.1458(18) 0.0656(10) 0.7583(2)
C20_16 C 0.1415(16) 0.0195(9) 0.7795(2)
C21_16 C 0.1587(22) 0.0905(13) 0.7072(4)
C22_16 C 0.123(4) 0.025(2) 0.6836(6)
O8_9 O 0.0144(7) 0.5451(5) 0.53585(11)
H1_16 H 0.0823477 0.33074 0.565021
H2_16 H 0.3442 0.381724 0.569083
H3_16 H 0.238752 0.325291 0.606716
H4_16 H 0.206265 0.25588 0.681482
H5_16 H 0.196233 0.313965 0.639208
H6_16 H 0.259619 0.481525 0.505773
H7_16 H 0.182347 0.15931 0.705957
H8_16 H 0.143163 0.124722 0.759775
H9_16 H 0.0739536 0.059456 0.60767
H10_16 H 0.0840545 0.00108945 0.649837
H11_16 H 0.130861 0.0411789 0.797854
C16_16 C 0.1567(15) 0.9165(9) 0.75730(18)
C17_16 C 0.1599(21) 0.9578(13) 0.7334(2)
H12_16 H 0.0990762 0.957058 0.679163
H13_16 H 0.160253 0.857609 0.757266
H14_16 H 0.166696 0.932388 0.715122
C16_17 C 0.0835(9) 0.2403(17) 0.75730(18)
C17_17 C 0.0422(13) 0.2022(25) 0.7334(2)
H12_17 H 0.0429421 0.142018 0.679163
H13_17 H 0.142391 0.302644 0.757266
H14_17 H 0.067612 0.234308 0.715122
C9_17 C 0.875(2) 0.0212(26) 0.6682(5)
C13_17 C 0.897(2) 0.0006(27) 0.6239(6)
C14_17 C 0.9301(12) 0.0390(21) 0.6476(8)
C18_17 C 0.9649(11) 0.1186(21) 0.7350(2)
C19_17 C 0.9344(10) 0.0803(21) 0.7583(2)
C20_17 C 0.9805(9) 0.1221(18) 0.7795(2)
C21_17 C 0.9095(13) 0.0683(26) 0.7072(4)
C22_17 C 0.975(2) 0.099(4) 0.6836(6)
H7_17 H 0.84069 0.0230372 0.705957
H8_17 H 0.875278 0.0184405 0.759775
H9_17 H 0.940544 0.0144976 0.60767
H10_17 H 0.998911 0.082965 0.649837
H11_17 H 0.958821 0.0896818 0.797854
O1_17 O 0.5982(5) 0.6313(6) 0.53211(12)
O4_9 O 0.5306(5) 0.9856(7) 0.53585(11)
N1_17 N 0.6948(10) 0.8900(13) 0.5923(2)
C1_17 C 0.5957(7) 0.7624(10) 0.53331(16)
C2_17 C 0.5567(8) 0.8027(11) 0.52314(17)
C3_17 C 0.5657(7) 0.8770(11) 0.53512(18)
C4_17 C 0.6110(8) 0.9060(11) 0.55909(18)
C5_17 C 0.6435(11) 0.8585(15) 0.5682(2)
C6_17 C 0.6399(9) 0.7863(12) 0.5566(2)
C7_17 C 0.5835(7) 0.6845(11) 0.5205(2)
C8_17 C 0.5240(7) 0.9212(11) 0.5245(2)
O5_17 O 0.8389(15) 0.8961(21) 0.5734(4)
C10_17 C 0.787(2) 0.9647(23) 0.6653(5)
C11_17 C 0.7547(13) 0.9265(18) 0.6416(7)
C12_17 C 0.810(3) 0.9451(36) 0.6210(4)
C15_17 C 0.774(2) 0.887(3) 0.5949(6)
H1_17 H 0.66926 0.751608 0.565021
H2_17 H 0.618276 0.962476 0.569083
H3_17 H 0.674709 0.913461 0.606716
H4_17 H 0.74412 0.950385 0.681482
H5_17 H 0.686035 0.882268 0.639208
H6_17 H 0.518475 0.778094 0.505773
O1_18 O 0.3687(6) 0.9670(4) 0.53211(12)
N1_18 N 0.1100(13) 0.8049(8) 0.5923(2)
C1_18 C 0.2376(10) 0.8334(7) 0.53331(16)
C2_18 C 0.1973(11) 0.7541(7) 0.52314(17)
C3_18 C 0.1230(11) 0.6888(8) 0.53512(18)
C4_18 C 0.0940(11) 0.7051(8) 0.55909(18)
C5_18 C 0.1415(15) 0.7851(10) 0.5682(2)
C6_18 C 0.2137(12) 0.8537(8) 0.5566(2)
C7_18 C 0.3155(11) 0.8991(8) 0.5205(2)
C8_18 C 0.0788(11) 0.6029(8) 0.5245(2)
O5_18 O 0.1039(21) 0.9429(14) 0.5734(4)
C10_18 C 0.0353(23) 0.8227(11) 0.6653(5)
C11_18 C 0.0735(18) 0.8283(13) 0.6416(7)
C12_18 C 0.0549(36) 0.8653(19) 0.6210(4)
C15_18 C 0.113(3) 0.888(2) 0.5949(6)
H1_18 H 0.248392 0.917652 0.565021
H2_18 H 0.0375244 0.6558 0.569083
H3_18 H 0.0865392 0.761248 0.606716
H4_18 H 0.0496146 0.793735 0.681482
H5_18 H 0.117732 0.803767 0.639208
H6_18 H 0.221906 0.740381 0.505773
C9_18 C 0.9788(26) 0.8542(16) 0.6682(5)
C13_18 C 0.9994(27) 0.8968(18) 0.6239(6)
C14_18 C 0.9610(21) 0.8912(17) 0.6476(8)
C16_18 C 0.7597(17) 0.8433(15) 0.75730(18)
C17_18 C 0.7978(25) 0.8401(21) 0.7334(2)
C18_18 C 0.8814(21) 0.8464(18) 0.7350(2)
C19_18 C 0.9197(21) 0.8542(18) 0.7583(2)
C20_18 C 0.8779(18) 0.8585(16) 0.7795(2)
C21_18 C 0.9317(26) 0.8413(22) 0.7072(4)
C22_18 C 0.901(4) 0.877(4) 0.6836(6)
H7_18 H 0.976963 0.817653 0.705957
H8_18 H 0.98156 0.856837 0.759775
H9_18 H 0.985502 0.926046 0.60767
H10_18 H 0.917035 0.915946 0.649837
H11_18 H 0.910318 0.869139 0.797854
H12_18 H 0.857982 0.900924 0.679163
H13_18 H 0.697356 0.839747 0.757266
H14_18 H 0.765692 0.833304 0.715122
loop_
_geom_bond_atom_site_label_1
_geom_bond_atom_site_label_2
_geom_bond_site_symmetry_1
_geom_bond_site_symmetry_2
O3 C8 1_555 1_555
O4 C8 1_555 1_555
Cu2 O4 1_555 1_555
Cu4 O3 1_555 1_555
Cu1 O1 1_555 1_555
O1 C7 1_555 1_555
O2 C7 1_555 1_555
N1 C5 1_555 1_555
C1 C2 1_555 1_555
C2 C3 1_555 1_555
C3 C4 1_555 1_555
C4 C5 1_555 1_555
C5 C6 1_555 1_555
C6 C1 1_555 1_555
C7 C1 1_555 1_555
O5 C15 1_555 1_555
C10 C11 1_555 1_555
C11 C12 1_555 1_555
C12 C13 1_555 1_555
C13 C14 1_555 1_555
C15 N1 1_555 1_555
Cu5 O2 1_555 1_555
O6 Cu1 1_555 1_555
O7 Cu1 1_555 1_555
O8 Cu1 1_555 1_555
N3 Cu1 1_555 1_555
C12 C15 1_555 1_555
C6 H1 1_555 1_555
N1 H3 1_555 1_555
C11 H5 1_555 1_555
C2 H6 1_555 1_555
C13 H9 1_555 1_555
C14 H10 1_555 1_555
N2 C16 1_555 1_555
C16 C17 1_555 1_555
C17 C18 1_555 1_555
C18 C19 1_555 1_555
C19 C20 1_555 1_555
C20 N2 1_555 1_555
C21 C18 1_555 1_555
C22 C9 1_555 1_555
Cu3 N2 1_555 1_555
C21 C22 1_555 1_555
C21 H7 1_555 1_555
C19 H8 1_555 1_555
C20 H11 1_555 1_555
C22 H12 1_555 1_555
C16 H13 1_555 1_555
C17 H14 1_555 1_555
Cu1_2 O1_2 1_555 1_555
O6_2 Cu1_2 1_555 1_555
O7_2 Cu1_2 1_555 1_555
O8_2 Cu1_2 1_555 1_555
N3_2 Cu1_2 1_555 1_555
O2_2 C7_2 1_555 1_555
N1_2 C5_2 1_555 1_555
C1_2 C2_2 1_555 1_555
C2_2 C3_2 1_555 1_555
C3_2 C4_2 1_555 1_555
C4_2 C5_2 1_555 1_555
C5_2 C6_2 1_555 1_555
C6_2 C1_2 1_555 1_555
C7_2 C1_2 1_555 1_555
O5_2 C15_2 1_555 1_555
C10_2 C11_2 1_555 1_555
C11_2 C12_2 1_555 1_555
C12_2 C13_2 1_555 1_555
C13_2 C14_2 1_555 1_555
C15_2 N1_2 1_555 1_555
C12_2 C15_2 1_555 1_555
C6_2 H1_2 1_555 1_555
N1_2 H3_2 1_555 1_555
C11_2 H5_2 1_555 1_555
C2_2 H6_2 1_555 1_555
C13_2 H9_2 1_555 1_555
C14_2 H10_2 1_555 1_555
N2_2 C16_2 1_555 1_555
C16_2 C17_2 1_555 1_555
C17_2 C18_2 1_555 1_555
C18_2 C19_2 1_555 1_555
C19_2 C20_2 1_555 1_555
C20_2 N2_2 1_555 1_555
C21_2 C18_2 1_555 1_555
C22_2 C9_2 1_555 1_555
Cu3_2 N2_2 1_555 1_555
C21_2 C22_2 1_555 1_555
C21_2 H7_2 1_555 1_555
C19_2 H8_2 1_555 1_555
C20_2 H11_2 1_555 1_555
C22_2 H12_2 1_555 1_555
C16_2 H13_2 1_555 1_555
C17_2 H14_2 1_555 1_555
O3_2 C8_2 1_555 1_555
O8 C8_2 1_555 1_555
Cu5 O3_2 1_555 1_555
O2_3 C7_3 1_555 1_555
O3_3 C8_3 1_555 1_555
O8_2 C8_3 1_555 1_555
N1_3 C5_3 1_555 1_555
C1_3 C2_3 1_555 1_555
C2_3 C3_3 1_555 1_555
C3_3 C4_3 1_555 1_555
C4_3 C5_3 1_555 1_555
C5_3 C6_3 1_555 1_555
C6_3 C1_3 1_555 1_555
C7_3 C1_3 1_555 1_555
C8_3 C3_3 1_555 1_555
O5_3 C15_3 1_555 1_555
C10_3 C11_3 1_555 1_555
C11_3 C12_3 1_555 1_555
C12_3 C13_3 1_555 1_555
C13_3 C14_3 1_555 1_555
C15_3 N1_3 1_555 1_555
Cu5_2 O3_3 1_555 1_555
C12_3 C15_3 1_555 1_555
C6_3 H1_3 1_555 1_555
C4_3 H2_3 1_555 1_555
N1_3 H3_3 1_555 1_555
C11_3 H5_3 1_555 1_555
C2_3 H6_3 1_555 1_555
C13_3 H9_3 1_555 1_555
C14_3 H10_3 1_555 1_555
N2_3 C16_3 1_555 1_555
C16_3 C17_3 1_555 1_555
C17_3 C18_3 1_555 1_555
C18_3 C19_3 1_555 1_555
C19_3 C20_3 1_555 1_555
C20_3 N2_3 1_555 1_555
C21_3 C18_3 1_555 1_555
C22_3 C9_3 1_555 1_555
Cu3_3 N2_3 1_555 1_555
C21_3 C22_3 1_555 1_555
C21_3 H7_3 1_555 1_555
C19_3 H8_3 1_555 1_555
C20_3 H11_3 1_555 1_555
C22_3 H12_3 1_555 1_555
C16_3 H13_3 1_555 1_555
C17_3 H14_3 1_555 1_555
Cu2 O1_3 1_555 1_555
O6_3 Cu2 1_555 1_555
O7_3 Cu2 1_555 1_555
N3_3 Cu2 1_555 1_555
O3_4 C8_4 1_555 1_555
O4_2 C8_4 1_555 1_555
Cu3 O4_2 1_555 1_555
Cu4_2 O3_4 1_555 1_555
N3_3 C16_4 1_555 1_555
C16_4 C17_4 1_555 1_555
C17_4 C18_4 1_555 1_555
C18_4 C19_4 1_555 1_555
C19_4 C20_4 1_555 1_555
C20_4 N3_3 1_555 1_555
C21_4 C18_4 1_555 1_555
C22_4 C9_4 1_555 1_555
C21_4 C22_4 1_555 1_555
C21_4 H7_4 1_555 1_555
C19_4 H8_4 1_555 1_555
C20_4 H11_4 1_555 1_555
C22_4 H12_4 1_555 1_555
C16_4 H13_4 1_555 1_555
C17_4 H14_4 1_555 1_555
Cu3_3 O1_4 1_555 1_555
O1_4 C7_4 1_555 1_555
O2_4 C7_4 1_555 1_555
N1_4 C5_4 1_555 1_555
C1_4 C2_4 1_555 1_555
C2_4 C3_4 1_555 1_555
C3_4 C4_4 1_555 1_555
C4_4 C5_4 1_555 1_555
C5_4 C6_4 1_555 1_555
C6_4 C1_4 1_555 1_555
C7_4 C1_4 1_555 1_555
O5_4 C15_4 1_555 1_555
C10_4 C11_4 1_555 1_555
C11_4 C12_4 1_555 1_555
C12_4 C13_4 1_555 1_555
C13_4 C14_4 1_555 1_555
C15_4 N1_4 1_555 1_555
Cu5_3 O2_4 1_555 1_555
O6_4 Cu3_3 1_555 1_555
O7_4 Cu3_3 1_555 1_555
O8_3 Cu3_3 1_555 1_555
C12_4 C15_4 1_555 1_555
C6_4 H1_4 1_555 1_555
N1_4 H3_4 1_555 1_555
C11_4 H5_4 1_555 1_555
C2_4 H6_4 1_555 1_555
C13_4 H9_4 1_555 1_555
C14_4 H10_4 1_555 1_555
N3 C16_5 1_555 1_555
C16_5 C17_5 1_555 1_555
C17_5 C18_5 1_555 1_555
C18_5 C19_5 1_555 1_555
C19_5 C20_5 1_555 1_555
C20_5 N3 1_555 1_555
C21_5 C18_5 1_555 1_555
C22_5 C9_5 1_555 1_555
C21_5 C22_5 1_555 1_555
C21_5 H7_5 1_555 1_555
C19_5 H8_5 1_555 1_555
C20_5 H11_5 1_555 1_555
C22_5 H12_5 1_555 1_555
C16_5 H13_5 1_555 1_555
C17_5 H14_5 1_555 1_555
O2_5 C7_5 1_555 1_555
O3_5 C8_5 1_555 1_555
O4_3 C8_5 1_555 1_555
N1_5 C5_5 1_555 1_555
C1_5 C2_5 1_555 1_555
C2_5 C3_5 1_555 1_555
C3_5 C4_5 1_555 1_555
C4_5 C5_5 1_555 1_555
C5_5 C6_5 1_555 1_555
C6_5 C1_5 1_555 1_555
C7_5 C1_5 1_555 1_555
C8_5 C3_5 1_555 1_555
O5_5 C15_5 1_555 1_555
C10_5 C11_5 1_555 1_555
C11_5 C12_5 1_555 1_555
C12_5 C13_5 1_555 1_555
C13_5 C14_5 1_555 1_555
C15_5 N1_5 1_555 1_555
Cu3_2 O4_3 1_555 1_555
Cu4_3 O3_5 1_555 1_555
C12_5 C15_5 1_555 1_555
C6_5 H1_5 1_555 1_555
C4_5 H2_5 1_555 1_555
N1_5 H3_5 1_555 1_555
C11_5 H5_5 1_555 1_555
C2_5 H6_5 1_555 1_555
C13_5 H9_5 1_555 1_555
C14_5 H10_5 1_555 1_555
Cu3 O1_5 1_555 1_555
O6_5 Cu3 1_555 1_555
O7_5 Cu3 1_555 1_555
Cu3_2 O1_6 1_555 1_555
O6_6 Cu3_2 1_555 1_555
O7_6 Cu3_2 1_555 1_555
N3_2 C16_6 1_555 1_555
C16_6 C17_6 1_555 1_555
C17_6 C18_6 1_555 1_555
C18_6 C19_6 1_555 1_555
C19_6 C20_6 1_555 1_555
C20_6 N3_2 1_555 1_555
C21_6 C18_6 1_555 1_555
C22_6 C9_6 1_555 1_555
C21_6 C22_6 1_555 1_555
C21_6 H7_6 1_555 1_555
C19_6 H8_6 1_555 1_555
C20_6 H11_6 1_555 1_555
C22_6 H12_6 1_555 1_555
C16_6 H13_6 1_555 1_555
C17_6 H14_6 1_555 1_555
O2_6 C7_6 1_555 1_555
N1_6 C5_6 1_555 1_555
C1_6 C2_6 1_555 1_555
C2_6 C3_6 1_555 1_555
C3_6 C4_6 1_555 1_555
C4_6 C5_6 1_555 1_555
C5_6 C6_6 1_555 1_555
C6_6 C1_6 1_555 1_555
C7_6 C1_6 1_555 1_555
O5_6 C15_6 1_555 1_555
C10_6 C11_6 1_555 1_555
C11_6 C12_6 1_555 1_555
C12_6 C13_6 1_555 1_555
C13_6 C14_6 1_555 1_555
C15_6 N1_6 1_555 1_555
C12_6 C15_6 1_555 1_555
C6_6 H1_6 1_555 1_555
N1_6 H3_6 1_555 1_555
C11_6 H5_6 1_555 1_555
C2_6 H6_6 1_555 1_555
C13_6 H9_6 1_555 1_555
C14_6 H10_6 1_555 1_555
O3_6 C8_6 1_555 1_555
O8_3 C8_6 1_555 1_555
Cu5_3 O3_6 1_555 1_555
O1_7 C7_7 1_555 1_555
O2_7 C7_7 1_555 1_555
O3_7 C8_7 1_555 1_555
O4_4 C8_7 1_555 1_555
N1_7 C5_7 1_555 1_555
C1_7 C2_7 1_555 1_555
C2_7 C3_7 1_555 1_555
C3_7 C4_7 1_555 1_555
C4_7 C5_7 1_555 1_555
C5_7 C6_7 1_555 1_555
C6_7 C1_7 1_555 1_555
C7_7 C1_7 1_555 1_555
C8_7 C3_7 1_555 1_555
O5_7 C15_7 1_555 1_555
C9_7 C10_7 1_555 1_555
C10_7 C11_7 1_555 1_555
C11_7 C12_7 1_555 1_555
C12_7 C13_7 1_555 1_555
C13_7 C14_7 1_555 1_555
C14_7 C9_7 1_555 1_555
C15_7 N1_7 1_555 1_555
C18_7 C19_7 1_555 1_555
C19_7 C20_7 1_555 1_555
C21_7 C18_7 1_555 1_555
C22_7 C9_7 1_555 1_555
Cu2_2 O4_4 1_555 1_555
Cu4_4 O3_7 1_555 1_555
Cu5_4 O2_7 1_555 1_555
C12_7 C15_7 1_555 1_555
C21_7 C22_7 1_555 1_555
C6_7 H1_7 1_555 1_555
C4_7 H2_7 1_555 1_555
N1_7 H3_7 1_555 1_555
C10_7 H4_7 1_555 1_555
C11_7 H5_7 1_555 1_555
C2_7 H6_7 1_555 1_555
C21_7 H7_7 1_555 1_555
C19_7 H8_7 1_555 1_555
C13_7 H9_7 1_555 1_555
C14_7 H10_7 1_555 1_555
C20_7 H11_7 1_555 1_555
O6_7 Cu1_3 1_555 1_555
O7_7 Cu1_3 1_555 1_555
N3_4 Cu1_3 1_555 1_555
N2_4 C16_7 1_555 1_555
C16_7 C17_7 1_555 1_555
Cu4 N2_4 1_555 1_555
C16_7 H13_7 1_555 1_555
C17_7 H14_7 1_555 1_555
O6_8 Cu1_4 1_555 1_555
O7_8 Cu1_4 1_555 1_555
N3_5 Cu1_4 1_555 1_555
O1_8 C7_8 1_555 1_555
O2_8 C7_8 1_555 1_555
O3_8 C8_8 1_555 1_555
O8_4 C8_8 1_555 1_555
N1_8 C5_8 1_555 1_555
C1_8 C2_8 1_555 1_555
C2_8 C3_8 1_555 1_555
C3_8 C4_8 1_555 1_555
C4_8 C5_8 1_555 1_555
C5_8 C6_8 1_555 1_555
C6_8 C1_8 1_555 1_555
C7_8 C1_8 1_555 1_555
C8_8 C3_8 1_555 1_555
O5_8 C15_8 1_555 1_555
C10_8 C11_8 1_555 1_555
C11_8 C12_8 1_555 1_555
C15_8 N1_8 1_555 1_555
Cu5_4 O3_8 1_555 1_555
Cu5_5 O2_8 1_555 1_555
C12_8 C15_8 1_555 1_555
C6_8 H1_8 1_555 1_555
C4_8 H2_8 1_555 1_555
N1_8 H3_8 1_555 1_555
C10_8 H4_8 1_555 1_555
C11_8 H5_8 1_555 1_555
C2_8 H6_8 1_555 1_555
C13_8 C14_8 1_555 1_555
C14_8 C9_8 1_555 1_555
N2_5 C16_8 1_555 1_555
C16_8 C17_8 1_555 1_555
C17_8 C18_8 1_555 1_555
C18_8 C19_8 1_555 1_555
C19_8 C20_8 1_555 1_555
C20_8 N2_5 1_555 1_555
C21_8 C18_8 1_555 1_555
C22_8 C9_8 1_555 1_555
Cu5 N2_5 1_555 1_555
C21_8 C22_8 1_555 1_555
C21_8 H7_8 1_555 1_555
C19_8 H8_8 1_555 1_555
C13_8 H9_8 1_555 1_555
C14_8 H10_8 1_555 1_555
C20_8 H11_8 1_555 1_555
C22_8 H12_8 1_555 1_555
C16_8 H13_8 1_555 1_555
C17_8 H14_8 1_555 1_555
N2_6 C16_9 1_555 1_555
C16_9 C17_9 1_555 1_555
Cu5_2 N2_6 1_555 1_555
C16_9 H13_9 1_555 1_555
C17_9 H14_9 1_555 1_555
C13_9 C14_9 1_555 1_555
C14_9 C9_9 1_555 1_555
C18_9 C19_9 1_555 1_555
C19_9 C20_9 1_555 1_555
C21_9 C18_9 1_555 1_555
C22_9 C9_9 1_555 1_555
C21_9 C22_9 1_555 1_555
C21_9 H7_9 1_555 1_555
C19_9 H8_9 1_555 1_555
C13_9 H9_9 1_555 1_555
C14_9 H10_9 1_555 1_555
C20_9 H11_9 1_555 1_555
Cu2_2 O1_9 1_555 1_555
O1_9 C7_9 1_555 1_555
O2_9 C7_9 1_555 1_555
O3_9 C8_9 1_555 1_555
O8_5 C8_9 1_555 1_555
N1_9 C5_9 1_555 1_555
C1_9 C2_9 1_555 1_555
C2_9 C3_9 1_555 1_555
C3_9 C4_9 1_555 1_555
C4_9 C5_9 1_555 1_555
C5_9 C6_9 1_555 1_555
C6_9 C1_9 1_555 1_555
C7_9 C1_9 1_555 1_555
C8_9 C3_9 1_555 1_555
O5_9 C15_9 1_555 1_555
C10_9 C11_9 1_555 1_555
C11_9 C12_9 1_555 1_555
C15_9 N1_9 1_555 1_555
Cu5_5 O3_9 1_555 1_555
Cu4_4 O2_9 1_555 1_555
O6_9 Cu2_2 1_555 1_555
O7_9 Cu2_2 1_555 1_555
N3_6 Cu2_2 1_555 1_555
C12_9 C15_9 1_555 1_555
C6_9 H1_9 1_555 1_555
C4_9 H2_9 1_555 1_555
N1_9 H3_9 1_555 1_555
C10_9 H4_9 1_555 1_555
C11_9 H5_9 1_555 1_555
C2_9 H6_9 1_555 1_555
Cu5_2 O1_10 1_555 1_555
O1_10 C7_10 1_555 1_555
O6_2 C7_10 1_555 1_555
O7_3 C8_10 1_555 1_555
O4_5 C8_10 1_555 1_555
C1_10 C2_10 1_555 1_555
C2_10 C3_10 1_555 1_555
C3_10 C4_10 1_555 1_555
C4_10 C5_10 1_555 1_555
C5_10 C6_10 1_555 1_555
C6_10 C1_10 1_555 1_555
C7_10 C1_10 1_555 1_555
C8_10 C3_10 1_555 1_555
Cu4 O4_5 1_555 1_555
O8_6 Cu5_2 1_555 1_555
C4_10 H2_10 1_555 1_555
C2_10 H6_10 1_555 1_555
O5_10 C15_10 1_555 1_555
C9_10 C10_10 1_555 1_555
C10_10 C11_10 1_555 1_555
C11_10 C12_10 1_555 1_555
C12_10 C13_10 1_555 1_555
C13_10 C14_10 1_555 1_555
C14_10 C9_10 1_555 1_555
C15_10 N1_10 1_555 1_555
N3_6 C16_10 1_555 1_555
C16_10 C17_10 1_555 1_555
C17_10 C18_10 1_555 1_555
C18_10 C19_10 1_555 1_555
C19_10 C20_10 1_555 1_555
C20_10 N3_6 1_555 1_555
C21_10 C18_10 1_555 1_555
C22_10 C9_10 1_555 1_555
C12_10 C15_10 1_555 1_555
C21_10 C22_10 1_555 1_555
N1_10 H3_10 1_555 1_555
C10_10 H4_10 1_555 1_555
C11_10 H5_10 1_555 1_555
C21_10 H7_10 1_555 1_555
C19_10 H8_10 1_555 1_555
C13_10 H9_10 1_555 1_555
C14_10 H10_10 1_555 1_555
C20_10 H11_10 1_555 1_555
C22_10 H12_10 1_555 1_555
C16_10 H13_10 1_555 1_555
C17_10 H14_10 1_555 1_555
O5_11 C15_11 1_555 1_555
C9_11 C10_11 1_555 1_555
C10_11 C11_11 1_555 1_555
C11_11 C12_11 1_555 1_555
C12_11 C13_11 1_555 1_555
C13_11 C14_11 1_555 1_555
C14_11 C9_11 1_555 1_555
C15_11 N1_11 1_555 1_555
N3_4 C16_11 1_555 1_555
C16_11 C17_11 1_555 1_555
C17_11 C18_11 1_555 1_555
C18_11 C19_11 1_555 1_555
C19_11 C20_11 1_555 1_555
C20_11 N3_4 1_555 1_555
C21_11 C18_11 1_555 1_555
C22_11 C9_11 1_555 1_555
C12_11 C15_11 1_555 1_555
C21_11 C22_11 1_555 1_555
N1_11 H3_11 1_555 1_555
C10_11 H4_11 1_555 1_555
C11_11 H5_11 1_555 1_555
C21_11 H7_11 1_555 1_555
C19_11 H8_11 1_555 1_555
C13_11 H9_11 1_555 1_555
C14_11 H10_11 1_555 1_555
C20_11 H11_11 1_555 1_555
C22_11 H12_11 1_555 1_555
C16_11 H13_11 1_555 1_555
C17_11 H14_11 1_555 1_555
Cu4 O1_11 1_555 1_555
O1_11 C7_11 1_555 1_555
O6_3 C7_11 1_555 1_555
O7 C8_11 1_555 1_555
O4_6 C8_11 1_555 1_555
C1_11 C2_11 1_555 1_555
C2_11 C3_11 1_555 1_555
C3_11 C4_11 1_555 1_555
C4_11 C5_11 1_555 1_555
C5_11 C6_11 1_555 1_555
C6_11 C1_11 1_555 1_555
C7_11 C1_11 1_555 1_555
C8_11 C3_11 1_555 1_555
Cu5 O4_6 1_555 1_555
C4_11 H2_11 1_555 1_555
C2_11 H6_11 1_555 1_555
Cu5 O1_12 1_555 1_555
O1_12 C7_12 1_555 1_555
O6 C7_12 1_555 1_555
O7_2 C8_12 1_555 1_555
O8_6 C8_12 1_555 1_555
N1_12 C5_12 1_555 1_555
C1_12 C2_12 1_555 1_555
C2_12 C3_12 1_555 1_555
C3_12 C4_12 1_555 1_555
C4_12 C5_12 1_555 1_555
C5_12 C6_12 1_555 1_555
C6_12 C1_12 1_555 1_555
C7_12 C1_12 1_555 1_555
C8_12 C3_12 1_555 1_555
O5_12 C15_12 1_555 1_555
C9_12 C10_12 1_555 1_555
C10_12 C11_12 1_555 1_555
C11_12 C12_12 1_555 1_555
C12_12 C13_12 1_555 1_555
C13_12 C14_12 1_555 1_555
C14_12 C9_12 1_555 1_555
C15_12 N1_12 1_555 1_555
N3_5 C16_12 1_555 1_555
C16_12 C17_12 1_555 1_555
C17_12 C18_12 1_555 1_555
C18_12 C19_12 1_555 1_555
C19_12 C20_12 1_555 1_555
C20_12 N3_5 1_555 1_555
C21_12 C18_12 1_555 1_555
C22_12 C9_12 1_555 1_555
C12_12 C15_12 1_555 1_555
C21_12 C22_12 1_555 1_555
C6_12 H1_12 1_555 1_555
C4_12 H2_12 1_555 1_555
N1_12 H3_12 1_555 1_555
C10_12 H4_12 1_555 1_555
C11_12 H5_12 1_555 1_555
C2_12 H6_12 1_555 1_555
C21_12 H7_12 1_555 1_555
C19_12 H8_12 1_555 1_555
C13_12 H9_12 1_555 1_555
C14_12 H10_12 1_555 1_555
C20_12 H11_12 1_555 1_555
C22_12 H12_12 1_555 1_555
C16_12 H13_12 1_555 1_555
C17_12 H14_12 1_555 1_555
Cu4_3 O1_13 1_555 1_555
O1_13 C7_13 1_555 1_555
O6_6 C7_13 1_555 1_555
O7_5 C8_13 1_555 1_555
O4_7 C8_13 1_555 1_555
C1_13 C2_13 1_555 1_555
C2_13 C3_13 1_555 1_555
C3_13 C4_13 1_555 1_555
C4_13 C5_13 1_555 1_555
C5_13 C6_13 1_555 1_555
C6_13 C1_13 1_555 1_555
C7_13 C1_13 1_555 1_555
C8_13 C3_13 1_555 1_555
Cu4_2 O4_7 1_555 1_555
O8_7 Cu4_3 1_555 1_555
N3_7 Cu4_3 1_555 1_555
C4_13 H2_13 1_555 1_555
C2_13 H6_13 1_555 1_555
O5_13 C15_13 1_555 1_555
C9_13 C10_13 1_555 1_555
C10_13 C11_13 1_555 1_555
C11_13 C12_13 1_555 1_555
C12_13 C13_13 1_555 1_555
C13_13 C14_13 1_555 1_555
C14_13 C9_13 1_555 1_555
C15_13 N1_13 1_555 1_555
N2_7 C16_13 1_555 1_555
C16_13 C17_13 1_555 1_555
C17_13 C18_13 1_555 1_555
C18_13 C19_13 1_555 1_555
C19_13 C20_13 1_555 1_555
C20_13 N2_7 1_555 1_555
C21_13 C18_13 1_555 1_555
C22_13 C9_13 1_555 1_555
Cu4_4 N2_7 1_555 1_555
C12_13 C15_13 1_555 1_555
C21_13 C22_13 1_555 1_555
N1_13 H3_13 1_555 1_555
C10_13 H4_13 1_555 1_555
C11_13 H5_13 1_555 1_555
C21_13 H7_13 1_555 1_555
C19_13 H8_13 1_555 1_555
C13_13 H9_13 1_555 1_555
C14_13 H10_13 1_555 1_555
C20_13 H11_13 1_555 1_555
C22_13 H12_13 1_555 1_555
C16_13 H13_13 1_555 1_555
C17_13 H14_13 1_555 1_555
Cu5_3 O1_14 1_555 1_555
O1_14 C7_14 1_555 1_555
O6_4 C7_14 1_555 1_555
O7_6 C8_14 1_555 1_555
O8_7 C8_14 1_555 1_555
N1_14 C5_14 1_555 1_555
C1_14 C2_14 1_555 1_555
C2_14 C3_14 1_555 1_555
C3_14 C4_14 1_555 1_555
C4_14 C5_14 1_555 1_555
C5_14 C6_14 1_555 1_555
C6_14 C1_14 1_555 1_555
C7_14 C1_14 1_555 1_555
C8_14 C3_14 1_555 1_555
O5_14 C15_14 1_555 1_555
C9_14 C10_14 1_555 1_555
C10_14 C11_14 1_555 1_555
C11_14 C12_14 1_555 1_555
C12_14 C13_14 1_555 1_555
C13_14 C14_14 1_555 1_555
C14_14 C9_14 1_555 1_555
C15_14 N1_14 1_555 1_555
N2_8 C16_14 1_555 1_555
C16_14 C17_14 1_555 1_555
C17_14 C18_14 1_555 1_555
C18_14 C19_14 1_555 1_555
C19_14 C20_14 1_555 1_555
C20_14 N2_8 1_555 1_555
C21_14 C18_14 1_555 1_555
C22_14 C9_14 1_555 1_555
Cu5_4 N2_8 1_555 1_555
O8_8 Cu5_3 1_555 1_555
N3_8 Cu5_3 1_555 1_555
C12_14 C15_14 1_555 1_555
C21_14 C22_14 1_555 1_555
C6_14 H1_14 1_555 1_555
C4_14 H2_14 1_555 1_555
N1_14 H3_14 1_555 1_555
C10_14 H4_14 1_555 1_555
C11_14 H5_14 1_555 1_555
C2_14 H6_14 1_555 1_555
C21_14 H7_14 1_555 1_555
C19_14 H8_14 1_555 1_555
C13_14 H9_14 1_555 1_555
C14_14 H10_14 1_555 1_555
C20_14 H11_14 1_555 1_555
C22_14 H12_14 1_555 1_555
C16_14 H13_14 1_555 1_555
C17_14 H14_14 1_555 1_555
O5_15 C15_15 1_555 1_555
C9_15 C10_15 1_555 1_555
C10_15 C11_15 1_555 1_555
C11_15 C12_15 1_555 1_555
C12_15 C13_15 1_555 1_555
C13_15 C14_15 1_555 1_555
C14_15 C9_15 1_555 1_555
C15_15 N1_15 1_555 1_555
N2_9 C16_15 1_555 1_555
C16_15 C17_15 1_555 1_555
C17_15 C18_15 1_555 1_555
C18_15 C19_15 1_555 1_555
C19_15 C20_15 1_555 1_555
C20_15 N2_9 1_555 1_555
C21_15 C18_15 1_555 1_555
C22_15 C9_15 1_555 1_555
Cu5_5 N2_9 1_555 1_555
C12_15 C15_15 1_555 1_555
C21_15 C22_15 1_555 1_555
N1_15 H3_15 1_555 1_555
C10_15 H4_15 1_555 1_555
C11_15 H5_15 1_555 1_555
C21_15 H7_15 1_555 1_555
C19_15 H8_15 1_555 1_555
C13_15 H9_15 1_555 1_555
C14_15 H10_15 1_555 1_555
C20_15 H11_15 1_555 1_555
C22_15 H12_15 1_555 1_555
C16_15 H13_15 1_555 1_555
C17_15 H14_15 1_555 1_555
Cu4_2 O1_15 1_555 1_555
O1_15 C7_15 1_555 1_555
O6_5 C7_15 1_555 1_555
O7_4 C8_15 1_555 1_555
O8_8 C8_15 1_555 1_555
C1_15 C2_15 1_555 1_555
C2_15 C3_15 1_555 1_555
C3_15 C4_15 1_555 1_555
C4_15 C5_15 1_555 1_555
C5_15 C6_15 1_555 1_555
C6_15 C1_15 1_555 1_555
C7_15 C1_15 1_555 1_555
C8_15 C3_15 1_555 1_555
N3_9 Cu4_2 1_555 1_555
C4_15 H2_15 1_555 1_555
C2_15 H6_15 1_555 1_555
O1_16 C7_16 1_555 1_555
O6_8 C7_16 1_555 1_555
O7_9 C8_16 1_555 1_555
O4_8 C8_16 1_555 1_555
N1_16 C5_16 1_555 1_555
C1_16 C2_16 1_555 1_555
C2_16 C3_16 1_555 1_555
C3_16 C4_16 1_555 1_555
C4_16 C5_16 1_555 1_555
C5_16 C6_16 1_555 1_555
C6_16 C1_16 1_555 1_555
C7_16 C1_16 1_555 1_555
C8_16 C3_16 1_555 1_555
O5_16 C15_16 1_555 1_555
C9_16 C10_16 1_555 1_555
C10_16 C11_16 1_555 1_555
C11_16 C12_16 1_555 1_555
C12_16 C13_16 1_555 1_555
C13_16 C14_16 1_555 1_555
C14_16 C9_16 1_555 1_555
C15_16 N1_16 1_555 1_555
C18_16 C19_16 1_555 1_555
C19_16 C20_16 1_555 1_555
C21_16 C18_16 1_555 1_555
C22_16 C9_16 1_555 1_555
Cu4_4 O4_8 1_555 1_555
C12_16 C15_16 1_555 1_555
C21_16 C22_16 1_555 1_555
C6_16 H1_16 1_555 1_555
C4_16 H2_16 1_555 1_555
N1_16 H3_16 1_555 1_555
C10_16 H4_16 1_555 1_555
C11_16 H5_16 1_555 1_555
C2_16 H6_16 1_555 1_555
C21_16 H7_16 1_555 1_555
C19_16 H8_16 1_555 1_555
C13_16 H9_16 1_555 1_555
C14_16 H10_16 1_555 1_555
C20_16 H11_16 1_555 1_555
N3_9 C16_16 1_555 1_555
C16_16 C17_16 1_555 1_555
C16_16 H13_16 1_555 1_555
C17_16 H14_16 1_555 1_555
N3_7 C16_17 1_555 1_555
C16_17 C17_17 1_555 1_555
C16_17 H13_17 1_555 1_555
C17_17 H14_17 1_555 1_555
C13_17 C14_17 1_555 1_555
C14_17 C9_17 1_555 1_555
C18_17 C19_17 1_555 1_555
C19_17 C20_17 1_555 1_555
C21_17 C18_17 1_555 1_555
C22_17 C9_17 1_555 1_555
C21_17 C22_17 1_555 1_555
C21_17 H7_17 1_555 1_555
C19_17 H8_17 1_555 1_555
C13_17 H9_17 1_555 1_555
C14_17 H10_17 1_555 1_555
C20_17 H11_17 1_555 1_555
Cu4_4 O1_17 1_555 1_555
O1_17 C7_17 1_555 1_555
O6_9 C7_17 1_555 1_555
O7_7 C8_17 1_555 1_555
O4_9 C8_17 1_555 1_555
N1_17 C5_17 1_555 1_555
C1_17 C2_17 1_555 1_555
C2_17 C3_17 1_555 1_555
C3_17 C4_17 1_555 1_555
C4_17 C5_17 1_555 1_555
C5_17 C6_17 1_555 1_555
C6_17 C1_17 1_555 1_555
C7_17 C1_17 1_555 1_555
C8_17 C3_17 1_555 1_555
O5_17 C15_17 1_555 1_555
C10_17 C11_17 1_555 1_555
C11_17 C12_17 1_555 1_555
C15_17 N1_17 1_555 1_555
C12_17 C15_17 1_555 1_555
C6_17 H1_17 1_555 1_555
C4_17 H2_17 1_555 1_555
N1_17 H3_17 1_555 1_555
C10_17 H4_17 1_555 1_555
C11_17 H5_17 1_555 1_555
C2_17 H6_17 1_555 1_555
O1_18 C7_18 1_555 1_555
O6_7 C7_18 1_555 1_555
O7_8 C8_18 1_555 1_555
O8_9 C8_18 1_555 1_555
N1_18 C5_18 1_555 1_555
C1_18 C2_18 1_555 1_555
C2_18 C3_18 1_555 1_555
C3_18 C4_18 1_555 1_555
C4_18 C5_18 1_555 1_555
C5_18 C6_18 1_555 1_555
C6_18 C1_18 1_555 1_555
C7_18 C1_18 1_555 1_555
C8_18 C3_18 1_555 1_555
O5_18 C15_18 1_555 1_555
C10_18 C11_18 1_555 1_555
C11_18 C12_18 1_555 1_555
C15_18 N1_18 1_555 1_555
C12_18 C15_18 1_555 1_555
C6_18 H1_18 1_555 1_555
C4_18 H2_18 1_555 1_555
N1_18 H3_18 1_555 1_555
C10_18 H4_18 1_555 1_555
C11_18 H5_18 1_555 1_555
C2_18 H6_18 1_555 1_555
C13_18 C14_18 1_555 1_555
C14_18 C9_18 1_555 1_555
N3_8 C16_18 1_555 1_555
C16_18 C17_18 1_555 1_555
C17_18 C18_18 1_555 1_555
C18_18 C19_18 1_555 1_555
C19_18 C20_18 1_555 1_555
C20_18 N3_8 1_555 1_555
C21_18 C18_18 1_555 1_555
C22_18 C9_18 1_555 1_555
C21_18 C22_18 1_555 1_555
C21_18 H7_18 1_555 1_555
C19_18 H8_18 1_555 1_555
C13_18 H9_18 1_555 1_555
C14_18 H10_18 1_555 1_555
C20_18 H11_18 1_555 1_555
C22_18 H12_18 1_555 1_555
C16_18 H13_18 1_555 1_555
C17_18 H14_18 1_555 1_555

#END
