
###############################################################################
#
# This file contains modified crystal structure data generated from the
# MOF subset of the Cambridge Structural Database (CSD) v543 
# hosted by the Cambridge Crystallographic Data Centre (CCDC).
#
# This work is licensed under the Creative Commons
# Attribution-NonCommercial-ShareAlike 4.0 International License.
# To view a copy of this license, visit
# http://creativecommons.org/licenses/by-nc-sa/4.0/
# or send a letter to
# Creative Commons, PO Box 1866, Mountain View, CA 94042, USA.
#
# CIF created using the CSD Python API on 29 September 2022
# The structure has been converted into the P1 space group
# The structure has a 3D framework
# The original CSD entry TOWTOR is in the monoclinic crystal system
# The framework has been calculated to contain at least 10.0% void space
# The void calculation uses a probe of radius 1.32A, grid spacing 0.4
#
###############################################################################

data_TOWTOR
_chemical_formula_moiety         '(C240 H288 N44 Na8 O24)n'
_symmetry_cell_setting           triclinic
_symmetry_space_group_name_H-M   'P 1'
_symmetry_Int_Tables_number      1
_space_group_name_Hall           'P 1'
loop_
_symmetry_equiv_pos_site_id
_symmetry_equiv_pos_as_xyz
1 x,y,z
_cell_length_a                   22.167(9)
_cell_length_b                   14.435(6)
_cell_length_c                   21.152(9)
_cell_angle_alpha                90
_cell_angle_beta                 104.228(10)
_cell_angle_gamma                90
_cell_volume                     6560.62
loop_
_atom_site_label
_atom_site_type_symbol
_atom_site_fract_x
_atom_site_fract_y
_atom_site_fract_z
C12 C 0.3408(6) 0.1318(13) 0.0077(6)
C20 C 0.3711(7) 0.1367(14) 0.0789(6)
H19 H 0.366736 0.198040 0.096042
H20 H 0.353234 0.091585 0.103072
C21 C 0.4377(7) 0.1152(11) 0.0826(6)
H21 H 0.453781 0.069999 0.116504
H22 H 0.463047 0.170638 0.091141
C22 C 0.4363(8) 0.0760(10) 0.0157(6)
H23 H 0.476015 0.085083 0.004989
H24 H 0.426635 0.010418 0.013733
Na1 Na 0.38248(19) 0.1759(3) 0.86516(18)
O1 O 0.2691(4) 0.1231(7) 0.8506(4)
C1 C 0.3873(6) 0.2906(10) 0.7265(5)
H1 H 0.425930 0.311788 0.750160
N1 N 0.3596(5) 0.2252(7) 0.7530(4)
C2 C 0.3621(6) 0.3302(8) 0.6648(5)
H2 H 0.384291 0.374747 0.648121
O2 O 0.3894(4) 0.1263(6) 0.9737(4)
N2 N 0.3561(5) 0.6685(7) 0.4009(4)
C3 C 0.3049(5) 0.3023(8) 0.6299(5)
O3 O 0.3948(4) 0.0155(5) 0.8348(4)
C4 C 0.2760(5) 0.2341(8) 0.6579(5)
H3 H 0.237423 0.211134 0.635709
N4 N 0.3062(4) 0.4078(6) 0.5412(4)
C5 C 0.3044(6) 0.2011(10) 0.7178(5)
H4 H 0.282680 0.157204 0.735757
N5 N 0.2176(4) 0.3129(6) 0.5373(4)
C6 C 0.2753(5) 0.3412(7) 0.5667(4)
N6 N 0.2181(4) 0.4156(6) 0.4494(4)
C7 C 0.3042(5) 0.5141(8) 0.4541(5)
C8 C 0.1904(5) 0.3527(8) 0.4799(5)
C9 C 0.2735(5) 0.4405(7) 0.4832(5)
C10 C 0.2407(6) 0.0380(11) 0.8247(8)
H6 H 0.266420 0.007416 0.799895
C11 C 0.3518(6) 0.5697(9) 0.4905(6)
H7 H 0.368359 0.557663 0.534547
H8 H 0.314231 0.077583 0.998231
H9 H 0.315506 0.186427 0.993982
C13 C 0.3744(6) 0.6437(9) 0.4603(6)
H10 H 0.406334 0.678424 0.486435
C14 C 0.3109(6) 0.6170(9) 0.3658(6)
H11 H 0.296132 0.632830 0.322092
C15 C 0.2832(6) 0.5414(9) 0.3880(6)
H12 H 0.251292 0.509128 0.359794
C16 C 0.1265(5) 0.3267(9) 0.4490(5)
C17 C 0.1785(7) 0.0569(14) 0.7821(9)
H13 H 0.149220 0.007862 0.784579
H14 H 0.180060 0.065424 0.737017
C18 C 0.1622(7) 0.1475(17) 0.8123(11)
H15 H 0.147990 0.193658 0.778589
H16 H 0.129324 0.136772 0.834410
C19 C 0.2185(7) 0.1792(15) 0.8585(10)
H17 H 0.226294 0.243652 0.850335
H18 H 0.213657 0.173780 0.902720
H31 H 0.436951 0.010894 0.762259
H32 H 0.364264 0.003330 0.738830
C27 C 0.0904(5) 0.2684(8) 0.4782(5)
H33 H 0.107886 0.239689 0.517790
C28 C 0.0314(5) 0.2551(9) 0.4486(6)
H34 H 0.010809 0.213070 0.469205
C29 C 0.0310(5) 0.3468(10) 0.3638(6)
H35 H 0.011945 0.372321 0.323460
C30 C 0.0928(5) 0.3655(9) 0.3910(5)
H36 H 0.113087 0.406516 0.369306
Na2 Na 0.38248(19) 0.8241(3) 0.36516(18)
N7 N 0.3561(5) 0.3315(7) 0.9009(4)
N8 N 0.4967(4) 0.2082(8) 0.8944(5)
Na1_2 Na 0.88248(19) 0.6759(3) 0.86516(18)
O1_2 O 0.7691(4) 0.6231(7) 0.8506(4)
C1_2 C 0.8873(6) 0.7906(10) 0.7265(5)
H1_2 H 0.925930 0.811788 0.750160
N1_2 N 0.8596(5) 0.7252(7) 0.7530(4)
C2_2 C 0.8621(6) 0.8302(8) 0.6648(5)
H2_2 H 0.884291 0.874747 0.648121
O2_2 O 0.8894(4) 0.6263(6) 0.9737(4)
C3_2 C 0.8049(5) 0.8023(8) 0.6299(5)
O3_2 O 0.8948(4) 0.5155(5) 0.8348(4)
N3 N 0.4967(4) 0.7918(8) 0.3944(5)
C4_2 C 0.7760(5) 0.7341(8) 0.6579(5)
H3_2 H 0.737423 0.711134 0.635709
N4_2 N 0.8062(4) 0.9078(6) 0.5412(4)
C5_2 C 0.8044(6) 0.7011(10) 0.7178(5)
H4_2 H 0.782680 0.657204 0.735757
N5_2 N 0.7176(4) 0.8129(6) 0.5373(4)
C6_2 C 0.7753(5) 0.8412(7) 0.5667(4)
N6_2 N 0.7181(4) 0.9156(6) 0.4494(4)
C8_2 C 0.6904(5) 0.8527(8) 0.4799(5)
C9_2 C 0.7735(5) 0.9405(7) 0.4832(5)
C10_2 C 0.7407(6) 0.5380(11) 0.8247(8)
H5 H 0.737024 0.497296 0.860020
H6_2 H 0.766420 0.507416 0.799895
H8_2 H 0.814231 0.577583 0.998231
H9_2 H 0.815506 0.686427 0.993982
C16_2 C 0.6265(5) 0.8267(9) 0.4490(5)
C17_2 C 0.6785(7) 0.5569(14) 0.7821(9)
H13_2 H 0.649220 0.507862 0.784579
H14_2 H 0.680060 0.565424 0.737017
C18_2 C 0.6622(7) 0.6475(17) 0.8123(11)
H15_2 H 0.647990 0.693658 0.778589
H16_2 H 0.629324 0.636772 0.834410
C19_2 C 0.7185(7) 0.6792(15) 0.8585(10)
H17_2 H 0.726294 0.743652 0.850335
H18_2 H 0.713657 0.673780 0.902720
C23 C 0.8895(7) 0.4329(9) 0.8728(6)
H25 H 0.856600 0.441064 0.895249
H26 H 0.928225 0.422172 0.905232
C24 C 0.8750(8) 0.3514(10) 0.8270(7)
H27 H 0.830458 0.342405 0.811261
H28 H 0.893759 0.294971 0.847770
C25 C 0.9053(9) 0.3819(12) 0.7701(7)
H29 H 0.948405 0.362227 0.778379
H30 H 0.882417 0.357341 0.728401
C26 C 0.9004(7) 0.4834(10) 0.7720(6)
H31_2 H 0.936951 0.510894 0.762259
H32_2 H 0.864264 0.503330 0.738830
C27_2 C 0.5904(5) 0.7684(8) 0.4782(5)
H33_2 H 0.607886 0.739689 0.517790
C28_2 C 0.5314(5) 0.7551(9) 0.4486(6)
H34_2 H 0.510809 0.713070 0.469205
C29_2 C 0.5310(5) 0.8468(10) 0.3638(6)
H35_2 H 0.511945 0.872321 0.323460
C30_2 C 0.5928(5) 0.8655(9) 0.3910(5)
H36_2 H 0.613087 0.906516 0.369306
N7_2 N 0.8561(5) 0.8315(7) 0.9009(4)
N8_2 N 0.9967(4) 0.7082(8) 0.8944(5)
O1_3 O 0.2691(4) 0.8769(7) 0.3506(4)
C1_3 C 0.3873(6) 0.7094(10) 0.2265(5)
H1_3 H 0.425930 0.688212 0.250160
N1_3 N 0.3596(5) 0.7748(7) 0.2530(4)
C2_3 C 0.3621(6) 0.6698(8) 0.1648(5)
H2_3 H 0.384291 0.625253 0.148121
O2_3 O 0.3894(4) 0.8737(6) 0.4737(4)
C3_3 C 0.3049(5) 0.6977(8) 0.1299(5)
O3_3 O 0.3948(4) 0.9845(5) 0.3348(4)
C4_3 C 0.2760(5) 0.7659(8) 0.1579(5)
H3_3 H 0.237423 0.788866 0.135709
N4_3 N 0.3062(4) 0.5922(6) 0.0412(4)
C5_3 C 0.3044(6) 0.7989(10) 0.2178(5)
H4_3 H 0.282680 0.842796 0.235757
N5_3 N 0.2176(4) 0.6871(6) 0.0373(4)
C6_3 C 0.2753(5) 0.6588(7) 0.0667(4)
C10_3 C 0.2407(6) 0.9620(11) 0.3247(8)
H6_3 H 0.266420 0.992584 0.299895
H7_2 H 0.368359 0.442337 0.034547
C12_2 C 0.3408(6) 0.8682(13) 0.5077(6)
H8_3 H 0.314231 0.922417 0.498231
H9_3 H 0.315506 0.813573 0.493982
C17_3 C 0.1785(7) 0.9431(14) 0.2821(9)
H13_3 H 0.149220 0.992138 0.284579
H14_3 H 0.180060 0.934576 0.237017
C18_3 C 0.1622(7) 0.8525(17) 0.3123(11)
H15_3 H 0.147990 0.806342 0.278589
H16_3 H 0.129324 0.863228 0.334410
C19_3 C 0.2185(7) 0.8208(15) 0.3585(10)
H17_3 H 0.226294 0.756348 0.350335
H18_3 H 0.213657 0.826220 0.402720
C20_2 C 0.3711(7) 0.8633(14) 0.5789(6)
H19_2 H 0.366736 0.801960 0.596042
H20_2 H 0.353234 0.908415 0.603072
C21_2 C 0.4377(7) 0.8848(11) 0.5826(6)
H21_2 H 0.453781 0.930001 0.616504
H22_2 H 0.463047 0.829362 0.591141
C22_2 C 0.4363(8) 0.9240(10) 0.5157(6)
H23_2 H 0.476015 0.914917 0.504989
H24_2 H 0.426635 0.989582 0.513733
H31_3 H 0.436951 0.989106 0.262259
H32_3 H 0.364264 0.996670 0.238830
H33_3 H 0.107886 0.760311 0.017790
N6_3 N 0.2181(4) 0.5844(6) 0.9494(4)
C7_2 C 0.3042(5) 0.4859(8) 0.9541(5)
C8_3 C 0.1904(5) 0.6473(8) 0.9799(5)
C9_3 C 0.2735(5) 0.5595(7) 0.9832(5)
C11_2 C 0.3518(6) 0.4303(9) 0.9905(6)
C13_2 C 0.3744(6) 0.3563(9) 0.9603(6)
H10_2 H 0.406334 0.321576 0.986435
C14_2 C 0.3109(6) 0.3830(9) 0.8658(6)
H11_2 H 0.296132 0.367170 0.822092
C15_2 C 0.2832(6) 0.4586(9) 0.8880(6)
H12_2 H 0.251292 0.490872 0.859794
C16_3 C 0.1265(5) 0.6733(9) 0.9490(5)
C27_3 C 0.0904(5) 0.7316(8) 0.9782(5)
C28_3 C 0.0314(5) 0.7449(9) 0.9486(6)
H34_3 H 0.010809 0.786930 0.969205
C29_3 C 0.0310(5) 0.6532(10) 0.8638(6)
H35_3 H 0.011945 0.627679 0.823460
C30_3 C 0.0928(5) 0.6345(9) 0.8910(5)
H36_3 H 0.113087 0.593484 0.869306
N6_4 N 0.7181(4) 0.0844(6) 0.9494(4)
C8_4 C 0.6904(5) 0.1473(8) 0.9799(5)
C9_4 C 0.7735(5) 0.0595(7) 0.9832(5)
C16_4 C 0.6265(5) 0.1733(9) 0.9490(5)
C27_4 C 0.5904(5) 0.2316(8) 0.9782(5)
C28_4 C 0.5314(5) 0.2449(9) 0.9486(6)
H34_4 H 0.510809 0.286930 0.969205
C29_4 C 0.5310(5) 0.1532(10) 0.8638(6)
H35_4 H 0.511945 0.127679 0.823460
C30_4 C 0.5928(5) 0.1345(9) 0.8910(5)
H36_4 H 0.613087 0.093484 0.869306
C7_3 C 0.8042(5) 0.9859(8) 0.9541(5)
C11_3 C 0.8518(6) 0.9303(9) 0.9905(6)
C13_3 C 0.8744(6) 0.8563(9) 0.9603(6)
H10_3 H 0.906334 0.821576 0.986435
C14_3 C 0.8109(6) 0.8830(9) 0.8658(6)
H11_3 H 0.796132 0.867170 0.822092
C15_3 C 0.7832(6) 0.9586(9) 0.8880(6)
H12_3 H 0.751292 0.990872 0.859794
H5_2 H 0.237024 0.997296 0.860020
C23_2 C 0.3895(7) 0.9329(9) 0.8728(6)
H25_2 H 0.356600 0.941064 0.895249
H26_2 H 0.428225 0.922172 0.905232
C24_2 C 0.3750(8) 0.8514(10) 0.8270(7)
H27_2 H 0.330458 0.842405 0.811261
H28_2 H 0.393759 0.794971 0.847770
C25_2 C 0.4053(9) 0.8819(12) 0.7701(7)
H29_2 H 0.448405 0.862227 0.778379
H30_2 H 0.382417 0.857341 0.728401
C26_2 C 0.4004(7) 0.9834(10) 0.7720(6)
N3_2 N 0.9967(4) 0.2918(8) 0.3944(5)
Na3 Na 0.88248(19) 0.3241(3) 0.36516(18)
N2_2 N 0.8561(5) 0.1685(7) 0.4009(4)
C7_4 C 0.8042(5) 0.0141(8) 0.4541(5)
C11_4 C 0.8518(6) 0.0697(9) 0.4905(6)
H7_3 H 0.868359 0.057663 0.534547
C13_4 C 0.8744(6) 0.1437(9) 0.4603(6)
H10_4 H 0.906334 0.178424 0.486435
C14_4 C 0.8109(6) 0.1170(9) 0.3658(6)
H11_4 H 0.796132 0.132830 0.322092
C15_4 C 0.7832(6) 0.0414(9) 0.3880(6)
H12_4 H 0.751292 0.009128 0.359794
O1_4 O 0.7691(4) 0.3769(7) 0.3506(4)
C1_4 C 0.8873(6) 0.2094(10) 0.2265(5)
H1_4 H 0.925930 0.188212 0.250160
N1_4 N 0.8596(5) 0.2748(7) 0.2530(4)
C2_4 C 0.8621(6) 0.1698(8) 0.1648(5)
H2_4 H 0.884291 0.125253 0.148121
O2_4 O 0.8894(4) 0.3737(6) 0.4737(4)
C3_4 C 0.8049(5) 0.1977(8) 0.1299(5)
O3_4 O 0.8948(4) 0.4845(5) 0.3348(4)
C4_4 C 0.7760(5) 0.2659(8) 0.1579(5)
H3_4 H 0.737423 0.288866 0.135709
N4_4 N 0.8062(4) 0.0922(6) 0.0412(4)
C5_4 C 0.8044(6) 0.2989(10) 0.2178(5)
H4_4 H 0.782680 0.342796 0.235757
N5_4 N 0.7176(4) 0.1871(6) 0.0373(4)
C6_4 C 0.7753(5) 0.1588(7) 0.0667(4)
C10_4 C 0.7407(6) 0.4620(11) 0.3247(8)
H5_3 H 0.737024 0.502704 0.360020
H6_4 H 0.766420 0.492584 0.299895
C12_3 C 0.8408(6) 0.3682(13) 0.5077(6)
H8_4 H 0.814231 0.422417 0.498231
H9_4 H 0.815506 0.313573 0.493982
C17_4 C 0.6785(7) 0.4431(14) 0.2821(9)
H13_4 H 0.649220 0.492138 0.284579
H14_4 H 0.680060 0.434576 0.237017
C18_4 C 0.6622(7) 0.3525(17) 0.3123(11)
H15_4 H 0.647990 0.306342 0.278589
H16_4 H 0.629324 0.363228 0.334410
C19_4 C 0.7185(7) 0.3208(15) 0.3585(10)
H17_4 H 0.726294 0.256348 0.350335
H18_4 H 0.713657 0.326220 0.402720
C20_3 C 0.8711(7) 0.3633(14) 0.5789(6)
H19_3 H 0.866736 0.301960 0.596042
H20_3 H 0.853234 0.408415 0.603072
C21_3 C 0.9377(7) 0.3848(11) 0.5826(6)
H21_3 H 0.953781 0.430001 0.616504
H22_3 H 0.963047 0.329362 0.591141
C22_3 C 0.9363(8) 0.4240(10) 0.5157(6)
H23_3 H 0.976015 0.414917 0.504989
H24_3 H 0.926635 0.489582 0.513733
C23_3 C 0.8895(7) 0.5671(9) 0.3728(6)
H25_3 H 0.856600 0.558936 0.395249
H26_3 H 0.928225 0.577828 0.405232
C24_3 C 0.8750(8) 0.6486(10) 0.3270(7)
H27_3 H 0.830458 0.657595 0.311261
H28_3 H 0.893759 0.705029 0.347770
C25_3 C 0.9053(9) 0.6181(12) 0.2701(7)
H29_3 H 0.948405 0.637773 0.278379
H30_3 H 0.882417 0.642659 0.228401
C26_3 C 0.9004(7) 0.5166(10) 0.2720(6)
H31_4 H 0.936951 0.489106 0.262259
H32_4 H 0.864264 0.496670 0.238830
H33_4 H 0.607886 0.260311 0.017790
N3_3 N 0.0033(4) 0.2918(8) 0.1056(5)
Na3_2 Na 0.11752(19) 0.3241(3) 0.13484(18)
N2_3 N 0.6439(5) 0.6685(7) 0.0991(4)
N6_5 N 0.7819(4) 0.4156(6) 0.0506(4)
C7_5 C 0.6958(5) 0.5141(8) 0.0459(5)
C8_5 C 0.8096(5) 0.3527(8) 0.0201(5)
C9_5 C 0.7265(5) 0.4405(7) 0.0168(5)
C11_5 C 0.6482(6) 0.5697(9) 0.0095(6)
C13_5 C 0.6256(6) 0.6437(9) 0.0397(6)
H10_5 H 0.593666 0.678424 0.013565
C14_5 C 0.6891(6) 0.6170(9) 0.1342(6)
H11_5 H 0.703868 0.632830 0.177908
C15_5 C 0.7168(6) 0.5414(9) 0.1120(6)
H12_5 H 0.748708 0.509128 0.140206
C16_5 C 0.8735(5) 0.3267(9) 0.0510(5)
C27_5 C 0.9096(5) 0.2684(8) 0.0218(5)
C28_5 C 0.9686(5) 0.2551(9) 0.0514(6)
H34_5 H 0.989191 0.213070 0.030795
C29_5 C 0.9690(5) 0.3468(10) 0.1362(6)
H35_5 H 0.988055 0.372321 0.176540
C30_5 C 0.9072(5) 0.3655(9) 0.1090(5)
H36_5 H 0.886913 0.406516 0.130694
Na2_2 Na 0.61752(19) 0.8241(3) 0.13484(18)
Na1_3 Na 0.61752(19) 0.1759(3) 0.63484(18)
O1_5 O 0.7309(4) 0.1231(7) 0.6494(4)
C1_5 C 0.6127(6) 0.2906(10) 0.7735(5)
H1_5 H 0.574070 0.311788 0.749840
N1_5 N 0.6404(5) 0.2252(7) 0.7470(4)
C2_5 C 0.6379(6) 0.3302(8) 0.8352(5)
H2_5 H 0.615709 0.374747 0.851879
O2_5 O 0.6106(4) 0.1263(6) 0.5263(4)
C3_5 C 0.6951(5) 0.3023(8) 0.8701(5)
O3_5 O 0.6052(4) 0.0155(5) 0.6652(4)
C4_5 C 0.7240(5) 0.2341(8) 0.8421(5)
H3_5 H 0.762577 0.211134 0.864291
N4_5 N 0.6938(4) 0.4078(6) 0.9588(4)
C5_5 C 0.6956(6) 0.2011(10) 0.7822(5)
H4_5 H 0.717320 0.157204 0.764243
N5_5 N 0.7824(4) 0.3129(6) 0.9627(4)
C6_5 C 0.7247(5) 0.3412(7) 0.9333(4)
C10_5 C 0.7593(6) 0.0380(11) 0.6753(8)
H6_5 H 0.733580 0.007416 0.700105
H7_4 H 0.631641 0.557663 0.965453
C12_4 C 0.6592(6) 0.1318(13) 0.4923(6)
H8_5 H 0.685769 0.077583 0.501769
H9_5 H 0.684494 0.186427 0.506018
C17_5 C 0.8215(7) 0.0569(14) 0.7179(9)
H13_5 H 0.850780 0.007862 0.715421
H14_5 H 0.819940 0.065424 0.762983
C18_5 C 0.8378(7) 0.1475(17) 0.6877(11)
H15_5 H 0.852010 0.193658 0.721411
H16_5 H 0.870676 0.136772 0.665590
C19_5 C 0.7815(7) 0.1792(15) 0.6415(10)
H17_5 H 0.773706 0.243652 0.649665
H18_5 H 0.786343 0.173780 0.597280
C20_4 C 0.6289(7) 0.1367(14) 0.4211(6)
H19_4 H 0.633264 0.198040 0.403958
H20_4 H 0.646766 0.091585 0.396928
C21_4 C 0.5623(7) 0.1152(11) 0.4174(6)
H21_4 H 0.546219 0.069999 0.383496
H22_4 H 0.536953 0.170638 0.408859
C22_4 C 0.5637(8) 0.0760(10) 0.4843(6)
H23_4 H 0.523985 0.085083 0.495011
H24_4 H 0.573365 0.010418 0.486267
H31_5 H 0.563049 0.010894 0.737741
H32_5 H 0.635736 0.003330 0.761170
H33_5 H 0.892114 0.239689 0.982210
N7_3 N 0.6439(5) 0.3315(7) 0.5991(4)
N8_3 N 0.5033(4) 0.2082(8) 0.6056(5)
N2_4 N 0.1439(5) 0.1685(7) 0.0991(4)
C7_6 C 0.1958(5) 0.0141(8) 0.0459(5)
C11_6 C 0.1482(6) 0.0697(9) 0.0095(6)
C13_6 C 0.1256(6) 0.1437(9) 0.0397(6)
H10_6 H 0.093666 0.178424 0.013565
C14_6 C 0.1891(6) 0.1170(9) 0.1342(6)
H11_6 H 0.203868 0.132830 0.177908
C15_6 C 0.2168(6) 0.0414(9) 0.1120(6)
H12_6 H 0.248708 0.009128 0.140206
N3_4 N 0.5033(4) 0.7918(8) 0.1056(5)
N6_6 N 0.2819(4) 0.9156(6) 0.0506(4)
C8_6 C 0.3096(5) 0.8527(8) 0.0201(5)
C9_6 C 0.2265(5) 0.9405(7) 0.0168(5)
C16_6 C 0.3735(5) 0.8267(9) 0.0510(5)
C27_6 C 0.4096(5) 0.7684(8) 0.0218(5)
C28_6 C 0.4686(5) 0.7551(9) 0.0514(6)
H34_6 H 0.489191 0.713070 0.030795
C29_6 C 0.4690(5) 0.8468(10) 0.1362(6)
H35_6 H 0.488055 0.872321 0.176540
C30_6 C 0.4072(5) 0.8655(9) 0.1090(5)
H36_6 H 0.386913 0.906516 0.130694
O1_6 O 0.7309(4) 0.8769(7) 0.1494(4)
C1_6 C 0.6127(6) 0.7094(10) 0.2735(5)
H1_6 H 0.574070 0.688212 0.249840
N1_6 N 0.6404(5) 0.7748(7) 0.2470(4)
C2_6 C 0.6379(6) 0.6698(8) 0.3352(5)
H2_6 H 0.615709 0.625253 0.351879
O2_6 O 0.6106(4) 0.8737(6) 0.0263(4)
C3_6 C 0.6951(5) 0.6977(8) 0.3701(5)
O3_6 O 0.6052(4) 0.9845(5) 0.1652(4)
C4_6 C 0.7240(5) 0.7659(8) 0.3421(5)
H3_6 H 0.762577 0.788866 0.364291
N4_6 N 0.6938(4) 0.5922(6) 0.4588(4)
C5_6 C 0.6956(6) 0.7989(10) 0.2822(5)
H4_6 H 0.717320 0.842796 0.264243
N5_6 N 0.7824(4) 0.6871(6) 0.4627(4)
C6_6 C 0.7247(5) 0.6588(7) 0.4333(4)
N6_7 N 0.7819(4) 0.5844(6) 0.5506(4)
C7_7 C 0.6958(5) 0.4859(8) 0.5459(5)
C8_7 C 0.8096(5) 0.6473(8) 0.5201(5)
C9_7 C 0.7265(5) 0.5595(7) 0.5168(5)
C10_6 C 0.7593(6) 0.9620(11) 0.1753(8)
H6_6 H 0.733580 0.992584 0.200105
C11_7 C 0.6482(6) 0.4303(9) 0.5095(6)
H7_5 H 0.631641 0.442337 0.465453
H8_6 H 0.685769 0.922417 0.001769
H9_6 H 0.684494 0.813573 0.006018
C13_7 C 0.6256(6) 0.3563(9) 0.5397(6)
H10_7 H 0.593666 0.321576 0.513565
C14_7 C 0.6891(6) 0.3830(9) 0.6342(6)
H11_7 H 0.703868 0.367170 0.677908
C15_7 C 0.7168(6) 0.4586(9) 0.6120(6)
H12_7 H 0.748708 0.490872 0.640206
C16_7 C 0.8735(5) 0.6733(9) 0.5510(5)
C17_6 C 0.8215(7) 0.9431(14) 0.2179(9)
H13_6 H 0.850780 0.992138 0.215421
H14_6 H 0.819940 0.934576 0.262983
C18_6 C 0.8378(7) 0.8525(17) 0.1877(11)
H15_6 H 0.852010 0.806342 0.221411
H16_6 H 0.870676 0.863228 0.165590
C19_6 C 0.7815(7) 0.8208(15) 0.1415(10)
H17_6 H 0.773706 0.756348 0.149665
H18_6 H 0.786343 0.826220 0.097280
H31_6 H 0.563049 0.989106 0.237741
H32_6 H 0.635736 0.996670 0.261170
C27_7 C 0.9096(5) 0.7316(8) 0.5218(5)
H33_6 H 0.892114 0.760311 0.482210
C28_7 C 0.9686(5) 0.7449(9) 0.5514(6)
H34_7 H 0.989191 0.786930 0.530795
C29_7 C 0.9690(5) 0.6532(10) 0.6362(6)
H35_7 H 0.988055 0.627679 0.676540
C30_7 C 0.9072(5) 0.6345(9) 0.6090(5)
H36_7 H 0.886913 0.593484 0.630694
O1_7 O 0.2309(4) 0.3769(7) 0.1494(4)
C1_7 C 0.1127(6) 0.2094(10) 0.2735(5)
H1_7 H 0.074070 0.188212 0.249840
N1_7 N 0.1404(5) 0.2748(7) 0.2470(4)
C2_7 C 0.1379(6) 0.1698(8) 0.3352(5)
H2_7 H 0.115709 0.125253 0.351879
O2_7 O 0.1106(4) 0.3737(6) 0.0263(4)
C3_7 C 0.1951(5) 0.1977(8) 0.3701(5)
O3_7 O 0.1052(4) 0.4845(5) 0.1652(4)
C4_7 C 0.2240(5) 0.2659(8) 0.3421(5)
H3_7 H 0.262577 0.288866 0.364291
N4_7 N 0.1938(4) 0.0922(6) 0.4588(4)
C5_7 C 0.1956(6) 0.2989(10) 0.2822(5)
H4_7 H 0.217320 0.342796 0.264243
N5_7 N 0.2824(4) 0.1871(6) 0.4627(4)
C6_7 C 0.2247(5) 0.1588(7) 0.4333(4)
N6_8 N 0.2819(4) 0.0844(6) 0.5506(4)
C8_8 C 0.3096(5) 0.1473(8) 0.5201(5)
C9_8 C 0.2265(5) 0.0595(7) 0.5168(5)
C10_7 C 0.2593(6) 0.4620(11) 0.1753(8)
H5_4 H 0.262976 0.502704 0.139980
H6_7 H 0.233580 0.492584 0.200105
H8_7 H 0.185769 0.422417 0.001769
H9_7 H 0.184494 0.313573 0.006018
C16_8 C 0.3735(5) 0.1733(9) 0.5510(5)
C17_7 C 0.3215(7) 0.4431(14) 0.2179(9)
H13_7 H 0.350780 0.492138 0.215421
H14_7 H 0.319940 0.434576 0.262983
C18_7 C 0.3378(7) 0.3525(17) 0.1877(11)
H15_7 H 0.352010 0.306342 0.221411
H16_7 H 0.370676 0.363228 0.165590
C19_7 C 0.2815(7) 0.3208(15) 0.1415(10)
H17_7 H 0.273706 0.256348 0.149665
H18_7 H 0.286343 0.326220 0.097280
C23_4 C 0.1105(7) 0.5671(9) 0.1272(6)
H25_4 H 0.143400 0.558936 0.104751
H26_4 H 0.071775 0.577828 0.094768
C24_4 C 0.1250(8) 0.6486(10) 0.1730(7)
H27_4 H 0.169542 0.657595 0.188739
H28_4 H 0.106241 0.705029 0.152230
C25_4 C 0.0947(9) 0.6181(12) 0.2299(7)
H29_4 H 0.051595 0.637773 0.221621
H30_4 H 0.117583 0.642659 0.271599
C26_4 C 0.0996(7) 0.5166(10) 0.2280(6)
H31_7 H 0.063049 0.489106 0.237741
H32_7 H 0.135736 0.496670 0.261170
C27_8 C 0.4096(5) 0.2316(8) 0.5218(5)
H33_7 H 0.392114 0.260311 0.482210
C28_8 C 0.4686(5) 0.2449(9) 0.5514(6)
H34_8 H 0.489191 0.286930 0.530795
C29_8 C 0.4690(5) 0.1532(10) 0.6362(6)
H35_8 H 0.488055 0.127679 0.676540
C30_8 C 0.4072(5) 0.1345(9) 0.6090(5)
H36_8 H 0.386913 0.093484 0.630694
H5_5 H 0.762976 0.997296 0.639980
C23_5 C 0.6105(7) 0.9329(9) 0.6272(6)
H25_5 H 0.643400 0.941064 0.604751
H26_5 H 0.571775 0.922172 0.594768
C24_5 C 0.6250(8) 0.8514(10) 0.6730(7)
H27_5 H 0.669542 0.842405 0.688739
H28_5 H 0.606241 0.794971 0.652230
C25_5 C 0.5947(9) 0.8819(12) 0.7299(7)
H29_5 H 0.551595 0.862227 0.721621
H30_5 H 0.617583 0.857341 0.771599
C26_5 C 0.5996(7) 0.9834(10) 0.7280(6)
C12_5 C 0.8408(6) 0.6318(13) 0.0077(6)
C20_5 C 0.8711(7) 0.6367(14) 0.0789(6)
H19_5 H 0.866736 0.698040 0.096042
H20_5 H 0.853234 0.591585 0.103072
C21_5 C 0.9377(7) 0.6152(11) 0.0826(6)
H21_5 H 0.953781 0.569999 0.116504
H22_5 H 0.963047 0.670638 0.091141
C22_5 C 0.9363(8) 0.5760(10) 0.0157(6)
H23_5 H 0.976015 0.585083 0.004989
H24_5 H 0.926635 0.510418 0.013733
H7_6 H 0.131641 0.057663 0.965453
Na1_4 Na 0.11752(19) 0.6759(3) 0.63484(18)
O1_8 O 0.2309(4) 0.6231(7) 0.6494(4)
C1_8 C 0.1127(6) 0.7906(10) 0.7735(5)
H1_8 H 0.074070 0.811788 0.749840
N1_8 N 0.1404(5) 0.7252(7) 0.7470(4)
C2_8 C 0.1379(6) 0.8302(8) 0.8352(5)
H2_8 H 0.115709 0.874747 0.851879
O2_8 O 0.1106(4) 0.6263(6) 0.5263(4)
C3_8 C 0.1951(5) 0.8023(8) 0.8701(5)
O3_8 O 0.1052(4) 0.5155(5) 0.6652(4)
C4_8 C 0.2240(5) 0.7341(8) 0.8421(5)
H3_8 H 0.262577 0.711134 0.864291
N4_8 N 0.1938(4) 0.9078(6) 0.9588(4)
C5_8 C 0.1956(6) 0.7011(10) 0.7822(5)
H4_8 H 0.217320 0.657204 0.764243
N5_8 N 0.2824(4) 0.8129(6) 0.9627(4)
C6_8 C 0.2247(5) 0.8412(7) 0.9333(4)
C10_8 C 0.2593(6) 0.5380(11) 0.6753(8)
H5_6 H 0.262976 0.497296 0.639980
H6_8 H 0.233580 0.507416 0.700105
C12_6 C 0.1592(6) 0.6318(13) 0.4923(6)
H8_8 H 0.185769 0.577583 0.501769
H9_8 H 0.184494 0.686427 0.506018
C17_8 C 0.3215(7) 0.5569(14) 0.7179(9)
H13_8 H 0.350780 0.507862 0.715421
H14_8 H 0.319940 0.565424 0.762983
C18_8 C 0.3378(7) 0.6475(17) 0.6877(11)
H15_8 H 0.352010 0.693658 0.721411
H16_8 H 0.370676 0.636772 0.665590
C19_8 C 0.2815(7) 0.6792(15) 0.6415(10)
H17_8 H 0.273706 0.743652 0.649665
H18_8 H 0.286343 0.673780 0.597280
C20_6 C 0.1289(7) 0.6367(14) 0.4211(6)
H19_6 H 0.133264 0.698040 0.403958
H20_6 H 0.146766 0.591585 0.396928
C21_6 C 0.0623(7) 0.6152(11) 0.4174(6)
H21_6 H 0.046219 0.569999 0.383496
H22_6 H 0.036953 0.670638 0.408859
C22_6 C 0.0637(8) 0.5760(10) 0.4843(6)
H23_6 H 0.023985 0.585083 0.495011
H24_6 H 0.073365 0.510418 0.486267
C23_6 C 0.1105(7) 0.4329(9) 0.6272(6)
H25_6 H 0.143400 0.441064 0.604751
H26_6 H 0.071775 0.422172 0.594768
C24_6 C 0.1250(8) 0.3514(10) 0.6730(7)
H27_6 H 0.169542 0.342405 0.688739
H28_6 H 0.106241 0.294971 0.652230
C25_6 C 0.0947(9) 0.3819(12) 0.7299(7)
H29_6 H 0.051595 0.362227 0.721621
H30_6 H 0.117583 0.357341 0.771599
C26_6 C 0.0996(7) 0.4834(10) 0.7280(6)
H31_8 H 0.063049 0.510894 0.737741
H32_8 H 0.135736 0.503330 0.761170
H33_8 H 0.392114 0.739689 0.982210
N7_4 N 0.1439(5) 0.8315(7) 0.5991(4)
N8_4 N 0.0033(4) 0.7082(8) 0.6056(5)
C7_8 C 0.1958(5) 0.9859(8) 0.5459(5)
C11_8 C 0.1482(6) 0.9303(9) 0.5095(6)
H7_7 H 0.131641 0.942337 0.465453
C13_8 C 0.1256(6) 0.8563(9) 0.5397(6)
H10_8 H 0.093666 0.821576 0.513565
C14_8 C 0.1891(6) 0.8830(9) 0.6342(6)
H11_8 H 0.203868 0.867170 0.677908
C15_8 C 0.2168(6) 0.9586(9) 0.6120(6)
H12_8 H 0.248708 0.990872 0.640206
H5_7 H 0.762976 0.002704 0.139980
C23_7 C 0.6105(7) 0.0671(9) 0.1272(6)
H25_7 H 0.643400 0.058936 0.104751
H26_7 H 0.571775 0.077828 0.094768
C24_7 C 0.6250(8) 0.1486(10) 0.1730(7)
H27_7 H 0.669542 0.157595 0.188739
H28_7 H 0.606241 0.205029 0.152230
C25_7 C 0.5947(9) 0.1181(12) 0.2299(7)
H29_7 H 0.551595 0.137773 0.221621
H30_7 H 0.617583 0.142659 0.271599
C26_7 C 0.5996(7) 0.0166(10) 0.2280(6)
C12_7 C 0.6592(6) 0.8682(13) 0.9923(6)
C20_7 C 0.6289(7) 0.8633(14) 0.9211(6)
H19_7 H 0.633264 0.801960 0.903958
H20_7 H 0.646766 0.908415 0.896928
C21_7 C 0.5623(7) 0.8848(11) 0.9174(6)
H21_7 H 0.546219 0.930001 0.883496
H22_7 H 0.536953 0.829362 0.908859
C22_7 C 0.5637(8) 0.9240(10) 0.9843(6)
H23_7 H 0.523985 0.914917 0.995011
H24_7 H 0.573365 0.989582 0.986267
H5_8 H 0.237024 0.002704 0.360020
C23_8 C 0.3895(7) 0.0671(9) 0.3728(6)
H25_8 H 0.356600 0.058936 0.395249
H26_8 H 0.428225 0.077828 0.405232
C24_8 C 0.3750(8) 0.1486(10) 0.3270(7)
H27_8 H 0.330458 0.157595 0.311261
H28_8 H 0.393759 0.205029 0.347770
C25_8 C 0.4053(9) 0.1181(12) 0.2701(7)
H29_8 H 0.448405 0.137773 0.278379
H30_8 H 0.382417 0.142659 0.228401
C26_8 C 0.4004(7) 0.0166(10) 0.2720(6)
C12_8 C 0.1592(6) 0.3682(13) 0.9923(6)
C20_8 C 0.1289(7) 0.3633(14) 0.9211(6)
H19_8 H 0.133264 0.301960 0.903958
H20_8 H 0.146766 0.408415 0.896928
C21_8 C 0.0623(7) 0.3848(11) 0.9174(6)
H21_8 H 0.046219 0.430001 0.883496
H22_8 H 0.036953 0.329362 0.908859
C22_8 C 0.0637(8) 0.4240(10) 0.9843(6)
H23_8 H 0.023985 0.414917 0.995011
H24_8 H 0.073365 0.489582 0.986267
H7_8 H 0.868359 0.942337 0.034547
loop_
_geom_bond_atom_site_label_1
_geom_bond_atom_site_label_2
_geom_bond_site_symmetry_1
_geom_bond_site_symmetry_2
C20 C12 1_555 1_555
H19 C20 1_555 1_555
H20 C20 1_555 1_555
C21 C20 1_555 1_555
H21 C21 1_555 1_555
H22 C21 1_555 1_555
H23 C22 1_555 1_555
H24 C22 1_555 1_555
C21 C22 1_555 1_555
Na1 O1 1_555 1_555
O1 C10 1_555 1_555
C1 H1 1_555 1_555
N1 Na1 1_555 1_555
C2 C1 1_555 1_555
H2 C2 1_555 1_555
O2 Na1 1_555 1_555
N2 C13 1_555 1_555
C3 C2 1_555 1_555
O3 Na1 1_555 1_555
C4 C3 1_555 1_555
H3 C4 1_555 1_555
N4 C6 1_555 1_555
C5 N1 1_555 1_555
H4 C5 1_555 1_555
N5 C6 1_555 1_555
C6 C3 1_555 1_555
N6 C8 1_555 1_555
C7 C9 1_555 1_555
C8 N5 1_555 1_555
C9 N4 1_555 1_555
H6 C10 1_555 1_555
C11 C7 1_555 1_555
H7 C11 1_555 1_555
C13 C11 1_555 1_555
H10 C13 1_555 1_555
C14 N2 1_555 1_555
H11 C14 1_555 1_555
C15 C7 1_555 1_555
H12 C15 1_555 1_555
C16 C8 1_555 1_555
C17 C10 1_555 1_555
H13 C17 1_555 1_555
H14 C17 1_555 1_555
C18 C17 1_555 1_555
H15 C18 1_555 1_555
H16 C18 1_555 1_555
C19 O1 1_555 1_555
H17 C19 1_555 1_555
H18 C19 1_555 1_555
C27 C16 1_555 1_555
H33 C27 1_555 1_555
C28 C27 1_555 1_555
H34 C28 1_555 1_555
H35 C29 1_555 1_555
C30 C16 1_555 1_555
H36 C30 1_555 1_555
Na2 N2 1_555 1_555
N7 Na1 1_555 1_555
N8 Na1 1_555 1_555
C1 N1 1_555 1_555
C4 C5 1_555 1_555
N6 C9 1_555 1_555
C14 C15 1_555 1_555
C18 C19 1_555 1_555
C29 C30 1_555 1_555
Na1_2 O1_2 1_555 1_555
O1_2 C10_2 1_555 1_555
C1_2 H1_2 1_555 1_555
N1_2 Na1_2 1_555 1_555
C2_2 C1_2 1_555 1_555
H2_2 C2_2 1_555 1_555
O2_2 Na1_2 1_555 1_555
C3_2 C2_2 1_555 1_555
O3_2 Na1_2 1_555 1_555
N3 C28_2 1_555 1_555
C4_2 C3_2 1_555 1_555
H3_2 C4_2 1_555 1_555
N4_2 C6_2 1_555 1_555
C5_2 N1_2 1_555 1_555
H4_2 C5_2 1_555 1_555
N5_2 C6_2 1_555 1_555
C6_2 C3_2 1_555 1_555
N6_2 C8_2 1_555 1_555
C8_2 N5_2 1_555 1_555
C9_2 N4_2 1_555 1_555
C10_2 H5 1_555 1_555
H6_2 C10_2 1_555 1_555
C16_2 C8_2 1_555 1_555
C17_2 C10_2 1_555 1_555
H13_2 C17_2 1_555 1_555
H14_2 C17_2 1_555 1_555
C18_2 C17_2 1_555 1_555
H15_2 C18_2 1_555 1_555
H16_2 C18_2 1_555 1_555
C19_2 O1_2 1_555 1_555
H17_2 C19_2 1_555 1_555
H18_2 C19_2 1_555 1_555
C23 O3_2 1_555 1_555
H25 C23 1_555 1_555
H26 C23 1_555 1_555
C24 C23 1_555 1_555
H27 C24 1_555 1_555
H28 C24 1_555 1_555
C25 C24 1_555 1_555
H29 C25 1_555 1_555
H30 C25 1_555 1_555
C26 O3_2 1_555 1_555
H31_2 C26 1_555 1_555
H32_2 C26 1_555 1_555
C27_2 C16_2 1_555 1_555
H33_2 C27_2 1_555 1_555
C28_2 C27_2 1_555 1_555
H34_2 C28_2 1_555 1_555
C29_2 N3 1_555 1_555
H35_2 C29_2 1_555 1_555
C30_2 C16_2 1_555 1_555
H36_2 C30_2 1_555 1_555
Na2 N3 1_555 1_555
N7_2 Na1_2 1_555 1_555
N8_2 Na1_2 1_555 1_555
C1_2 N1_2 1_555 1_555
C4_2 C5_2 1_555 1_555
N6_2 C9_2 1_555 1_555
C18_2 C19_2 1_555 1_555
C25 C26 1_555 1_555
C29_2 C30_2 1_555 1_555
Na2 O1_3 1_555 1_555
O1_3 C10_3 1_555 1_555
C1_3 H1_3 1_555 1_555
N1_3 Na2 1_555 1_555
C2_3 C1_3 1_555 1_555
H2_3 C2_3 1_555 1_555
O2_3 Na2 1_555 1_555
C3_3 C2_3 1_555 1_555
O3_3 Na2 1_555 1_555
C4_3 C3_3 1_555 1_555
H3_3 C4_3 1_555 1_555
N4_3 C6_3 1_555 1_555
C5_3 N1_3 1_555 1_555
H4_3 C5_3 1_555 1_555
N5_3 C6_3 1_555 1_555
C6_3 C3_3 1_555 1_555
H6_3 C10_3 1_555 1_555
C12_2 O2_3 1_555 1_555
H8_3 C12_2 1_555 1_555
H9_3 C12_2 1_555 1_555
C17_3 C10_3 1_555 1_555
H13_3 C17_3 1_555 1_555
H14_3 C17_3 1_555 1_555
C18_3 C17_3 1_555 1_555
H15_3 C18_3 1_555 1_555
H16_3 C18_3 1_555 1_555
C19_3 O1_3 1_555 1_555
H17_3 C19_3 1_555 1_555
H18_3 C19_3 1_555 1_555
C20_2 C12_2 1_555 1_555
H19_2 C20_2 1_555 1_555
H20_2 C20_2 1_555 1_555
C21_2 C20_2 1_555 1_555
H21_2 C21_2 1_555 1_555
H22_2 C21_2 1_555 1_555
C22_2 O2_3 1_555 1_555
H23_2 C22_2 1_555 1_555
H24_2 C22_2 1_555 1_555
C1_3 N1_3 1_555 1_555
C4_3 C5_3 1_555 1_555
C18_3 C19_3 1_555 1_555
C21_2 C22_2 1_555 1_555
N7 C13_2 1_555 1_555
N6_3 C8_3 1_555 1_555
C7_2 C9_3 1_555 1_555
C11_2 C7_2 1_555 1_555
C13_2 C11_2 1_555 1_555
H10_2 C13_2 1_555 1_555
C14_2 N7 1_555 1_555
H11_2 C14_2 1_555 1_555
C15_2 C7_2 1_555 1_555
H12_2 C15_2 1_555 1_555
C16_3 C8_3 1_555 1_555
C27_3 C16_3 1_555 1_555
C28_3 C27_3 1_555 1_555
H34_3 C28_3 1_555 1_555
H35_3 C29_3 1_555 1_555
C30_3 C16_3 1_555 1_555
H36_3 C30_3 1_555 1_555
N6_3 C9_3 1_555 1_555
C14_2 C15_2 1_555 1_555
C29_3 C30_3 1_555 1_555
N8 C28_4 1_555 1_555
N6_4 C8_4 1_555 1_555
C16_4 C8_4 1_555 1_555
C27_4 C16_4 1_555 1_555
C28_4 C27_4 1_555 1_555
H34_4 C28_4 1_555 1_555
C29_4 N8 1_555 1_555
H35_4 C29_4 1_555 1_555
C30_4 C16_4 1_555 1_555
H36_4 C30_4 1_555 1_555
N6_4 C9_4 1_555 1_555
C29_4 C30_4 1_555 1_555
N7_2 C13_3 1_555 1_555
C11_3 C7_3 1_555 1_555
C13_3 C11_3 1_555 1_555
H10_3 C13_3 1_555 1_555
C14_3 N7_2 1_555 1_555
H11_3 C14_3 1_555 1_555
C15_3 C7_3 1_555 1_555
H12_3 C15_3 1_555 1_555
C14_3 C15_3 1_555 1_555
H25_2 C23_2 1_555 1_555
H26_2 C23_2 1_555 1_555
C24_2 C23_2 1_555 1_555
H27_2 C24_2 1_555 1_555
H28_2 C24_2 1_555 1_555
C25_2 C24_2 1_555 1_555
H29_2 C25_2 1_555 1_555
H30_2 C25_2 1_555 1_555
C25_2 C26_2 1_555 1_555
Na3 N3_2 1_555 1_555
N2_2 C13_4 1_555 1_555
C11_4 C7_4 1_555 1_555
H7_3 C11_4 1_555 1_555
C13_4 C11_4 1_555 1_555
H10_4 C13_4 1_555 1_555
C14_4 N2_2 1_555 1_555
H11_4 C14_4 1_555 1_555
C15_4 C7_4 1_555 1_555
H12_4 C15_4 1_555 1_555
Na3 N2_2 1_555 1_555
C14_4 C15_4 1_555 1_555
Na3 O1_4 1_555 1_555
O1_4 C10_4 1_555 1_555
C1_4 H1_4 1_555 1_555
N1_4 Na3 1_555 1_555
C2_4 C1_4 1_555 1_555
H2_4 C2_4 1_555 1_555
O2_4 Na3 1_555 1_555
C3_4 C2_4 1_555 1_555
O3_4 Na3 1_555 1_555
C4_4 C3_4 1_555 1_555
H3_4 C4_4 1_555 1_555
N4_4 C6_4 1_555 1_555
C5_4 N1_4 1_555 1_555
H4_4 C5_4 1_555 1_555
N5_4 C6_4 1_555 1_555
C6_4 C3_4 1_555 1_555
C10_4 H5_3 1_555 1_555
H6_4 C10_4 1_555 1_555
C12_3 O2_4 1_555 1_555
H8_4 C12_3 1_555 1_555
H9_4 C12_3 1_555 1_555
C17_4 C10_4 1_555 1_555
H13_4 C17_4 1_555 1_555
H14_4 C17_4 1_555 1_555
C18_4 C17_4 1_555 1_555
H15_4 C18_4 1_555 1_555
H16_4 C18_4 1_555 1_555
C19_4 O1_4 1_555 1_555
H17_4 C19_4 1_555 1_555
H18_4 C19_4 1_555 1_555
C20_3 C12_3 1_555 1_555
H19_3 C20_3 1_555 1_555
H20_3 C20_3 1_555 1_555
C21_3 C20_3 1_555 1_555
H21_3 C21_3 1_555 1_555
H22_3 C21_3 1_555 1_555
C22_3 O2_4 1_555 1_555
H23_3 C22_3 1_555 1_555
H24_3 C22_3 1_555 1_555
C23_3 O3_4 1_555 1_555
H25_3 C23_3 1_555 1_555
H26_3 C23_3 1_555 1_555
C24_3 C23_3 1_555 1_555
H27_3 C24_3 1_555 1_555
H28_3 C24_3 1_555 1_555
C25_3 C24_3 1_555 1_555
H29_3 C25_3 1_555 1_555
H30_3 C25_3 1_555 1_555
C26_3 O3_4 1_555 1_555
H31_4 C26_3 1_555 1_555
H32_4 C26_3 1_555 1_555
C1_4 N1_4 1_555 1_555
C4_4 C5_4 1_555 1_555
C18_4 C19_4 1_555 1_555
C21_3 C22_3 1_555 1_555
C25_3 C26_3 1_555 1_555
Na3_2 N3_3 1_555 1_555
N2_3 C13_5 1_555 1_555
N6_5 C8_5 1_555 1_555
C7_5 C9_5 1_555 1_555
C11_5 C7_5 1_555 1_555
C13_5 C11_5 1_555 1_555
H10_5 C13_5 1_555 1_555
C14_5 N2_3 1_555 1_555
H11_5 C14_5 1_555 1_555
C15_5 C7_5 1_555 1_555
H12_5 C15_5 1_555 1_555
C16_5 C8_5 1_555 1_555
C27_5 C16_5 1_555 1_555
C28_5 C27_5 1_555 1_555
H34_5 C28_5 1_555 1_555
H35_5 C29_5 1_555 1_555
C30_5 C16_5 1_555 1_555
H36_5 C30_5 1_555 1_555
Na2_2 N2_3 1_555 1_555
N6_5 C9_5 1_555 1_555
C14_5 C15_5 1_555 1_555
C29_5 C30_5 1_555 1_555
Na1_3 O1_5 1_555 1_555
O1_5 C10_5 1_555 1_555
C1_5 H1_5 1_555 1_555
N1_5 Na1_3 1_555 1_555
C2_5 C1_5 1_555 1_555
H2_5 C2_5 1_555 1_555
O2_5 Na1_3 1_555 1_555
C3_5 C2_5 1_555 1_555
O3_5 Na1_3 1_555 1_555
C4_5 C3_5 1_555 1_555
H3_5 C4_5 1_555 1_555
N4_5 C6_5 1_555 1_555
C5_5 N1_5 1_555 1_555
H4_5 C5_5 1_555 1_555
N5_5 C6_5 1_555 1_555
C6_5 C3_5 1_555 1_555
H6_5 C10_5 1_555 1_555
C12_4 O2_5 1_555 1_555
H8_5 C12_4 1_555 1_555
H9_5 C12_4 1_555 1_555
C17_5 C10_5 1_555 1_555
H13_5 C17_5 1_555 1_555
H14_5 C17_5 1_555 1_555
C18_5 C17_5 1_555 1_555
H15_5 C18_5 1_555 1_555
H16_5 C18_5 1_555 1_555
C19_5 O1_5 1_555 1_555
H17_5 C19_5 1_555 1_555
H18_5 C19_5 1_555 1_555
C20_4 C12_4 1_555 1_555
H19_4 C20_4 1_555 1_555
H20_4 C20_4 1_555 1_555
C21_4 C20_4 1_555 1_555
H21_4 C21_4 1_555 1_555
H22_4 C21_4 1_555 1_555
C22_4 O2_5 1_555 1_555
H23_4 C22_4 1_555 1_555
H24_4 C22_4 1_555 1_555
N7_3 Na1_3 1_555 1_555
N8_3 Na1_3 1_555 1_555
C1_5 N1_5 1_555 1_555
C4_5 C5_5 1_555 1_555
C18_5 C19_5 1_555 1_555
C21_4 C22_4 1_555 1_555
N2_4 C13_6 1_555 1_555
C11_6 C7_6 1_555 1_555
C13_6 C11_6 1_555 1_555
H10_6 C13_6 1_555 1_555
C14_6 N2_4 1_555 1_555
H11_6 C14_6 1_555 1_555
C15_6 C7_6 1_555 1_555
H12_6 C15_6 1_555 1_555
Na3_2 N2_4 1_555 1_555
C14_6 C15_6 1_555 1_555
N3_4 C28_6 1_555 1_555
N6_6 C8_6 1_555 1_555
C16_6 C8_6 1_555 1_555
C27_6 C16_6 1_555 1_555
C28_6 C27_6 1_555 1_555
H34_6 C28_6 1_555 1_555
C29_6 N3_4 1_555 1_555
H35_6 C29_6 1_555 1_555
C30_6 C16_6 1_555 1_555
H36_6 C30_6 1_555 1_555
Na2_2 N3_4 1_555 1_555
N6_6 C9_6 1_555 1_555
C29_6 C30_6 1_555 1_555
Na2_2 O1_6 1_555 1_555
O1_6 C10_6 1_555 1_555
C1_6 H1_6 1_555 1_555
N1_6 Na2_2 1_555 1_555
C2_6 C1_6 1_555 1_555
H2_6 C2_6 1_555 1_555
O2_6 Na2_2 1_555 1_555
N7_3 C13_7 1_555 1_555
C3_6 C2_6 1_555 1_555
O3_6 Na2_2 1_555 1_555
C4_6 C3_6 1_555 1_555
H3_6 C4_6 1_555 1_555
N4_6 C6_6 1_555 1_555
C5_6 N1_6 1_555 1_555
H4_6 C5_6 1_555 1_555
N5_6 C6_6 1_555 1_555
C6_6 C3_6 1_555 1_555
N6_7 C8_7 1_555 1_555
C7_7 C9_7 1_555 1_555
C8_7 N5_6 1_555 1_555
C9_7 N4_6 1_555 1_555
H6_6 C10_6 1_555 1_555
C11_7 C7_7 1_555 1_555
H7_5 C11_7 1_555 1_555
C13_7 C11_7 1_555 1_555
H10_7 C13_7 1_555 1_555
C14_7 N7_3 1_555 1_555
H11_7 C14_7 1_555 1_555
C15_7 C7_7 1_555 1_555
H12_7 C15_7 1_555 1_555
C16_7 C8_7 1_555 1_555
C17_6 C10_6 1_555 1_555
H13_6 C17_6 1_555 1_555
H14_6 C17_6 1_555 1_555
C18_6 C17_6 1_555 1_555
H15_6 C18_6 1_555 1_555
H16_6 C18_6 1_555 1_555
C19_6 O1_6 1_555 1_555
H17_6 C19_6 1_555 1_555
H18_6 C19_6 1_555 1_555
C27_7 C16_7 1_555 1_555
H33_6 C27_7 1_555 1_555
C28_7 C27_7 1_555 1_555
H34_7 C28_7 1_555 1_555
H35_7 C29_7 1_555 1_555
C30_7 C16_7 1_555 1_555
H36_7 C30_7 1_555 1_555
C1_6 N1_6 1_555 1_555
C4_6 C5_6 1_555 1_555
N6_7 C9_7 1_555 1_555
C14_7 C15_7 1_555 1_555
C18_6 C19_6 1_555 1_555
C29_7 C30_7 1_555 1_555
Na3_2 O1_7 1_555 1_555
O1_7 C10_7 1_555 1_555
C1_7 H1_7 1_555 1_555
N1_7 Na3_2 1_555 1_555
C2_7 C1_7 1_555 1_555
H2_7 C2_7 1_555 1_555
O2_7 Na3_2 1_555 1_555
C3_7 C2_7 1_555 1_555
O3_7 Na3_2 1_555 1_555
N8_3 C28_8 1_555 1_555
C4_7 C3_7 1_555 1_555
H3_7 C4_7 1_555 1_555
N4_7 C6_7 1_555 1_555
C5_7 N1_7 1_555 1_555
H4_7 C5_7 1_555 1_555
N5_7 C6_7 1_555 1_555
C6_7 C3_7 1_555 1_555
N6_8 C8_8 1_555 1_555
C8_8 N5_7 1_555 1_555
C9_8 N4_7 1_555 1_555
C10_7 H5_4 1_555 1_555
H6_7 C10_7 1_555 1_555
C16_8 C8_8 1_555 1_555
C17_7 C10_7 1_555 1_555
H13_7 C17_7 1_555 1_555
H14_7 C17_7 1_555 1_555
C18_7 C17_7 1_555 1_555
H15_7 C18_7 1_555 1_555
H16_7 C18_7 1_555 1_555
C19_7 O1_7 1_555 1_555
H17_7 C19_7 1_555 1_555
H18_7 C19_7 1_555 1_555
C23_4 O3_7 1_555 1_555
H25_4 C23_4 1_555 1_555
H26_4 C23_4 1_555 1_555
C24_4 C23_4 1_555 1_555
H27_4 C24_4 1_555 1_555
H28_4 C24_4 1_555 1_555
C25_4 C24_4 1_555 1_555
H29_4 C25_4 1_555 1_555
H30_4 C25_4 1_555 1_555
C26_4 O3_7 1_555 1_555
H31_7 C26_4 1_555 1_555
H32_7 C26_4 1_555 1_555
C27_8 C16_8 1_555 1_555
H33_7 C27_8 1_555 1_555
C28_8 C27_8 1_555 1_555
H34_8 C28_8 1_555 1_555
C29_8 N8_3 1_555 1_555
H35_8 C29_8 1_555 1_555
C30_8 C16_8 1_555 1_555
H36_8 C30_8 1_555 1_555
C1_7 N1_7 1_555 1_555
C4_7 C5_7 1_555 1_555
N6_8 C9_8 1_555 1_555
C18_7 C19_7 1_555 1_555
C25_4 C26_4 1_555 1_555
C29_8 C30_8 1_555 1_555
H25_5 C23_5 1_555 1_555
H26_5 C23_5 1_555 1_555
C24_5 C23_5 1_555 1_555
H27_5 C24_5 1_555 1_555
H28_5 C24_5 1_555 1_555
C25_5 C24_5 1_555 1_555
H29_5 C25_5 1_555 1_555
H30_5 C25_5 1_555 1_555
C25_5 C26_5 1_555 1_555
C20_5 C12_5 1_555 1_555
H19_5 C20_5 1_555 1_555
H20_5 C20_5 1_555 1_555
C21_5 C20_5 1_555 1_555
H21_5 C21_5 1_555 1_555
H22_5 C21_5 1_555 1_555
H23_5 C22_5 1_555 1_555
H24_5 C22_5 1_555 1_555
C21_5 C22_5 1_555 1_555
Na1_4 O1_8 1_555 1_555
O1_8 C10_8 1_555 1_555
C1_8 H1_8 1_555 1_555
N1_8 Na1_4 1_555 1_555
C2_8 C1_8 1_555 1_555
H2_8 C2_8 1_555 1_555
O2_8 Na1_4 1_555 1_555
C3_8 C2_8 1_555 1_555
O3_8 Na1_4 1_555 1_555
C4_8 C3_8 1_555 1_555
H3_8 C4_8 1_555 1_555
N4_8 C6_8 1_555 1_555
C5_8 N1_8 1_555 1_555
H4_8 C5_8 1_555 1_555
N5_8 C6_8 1_555 1_555
C6_8 C3_8 1_555 1_555
C10_8 H5_6 1_555 1_555
H6_8 C10_8 1_555 1_555
C12_6 O2_8 1_555 1_555
H8_8 C12_6 1_555 1_555
H9_8 C12_6 1_555 1_555
C17_8 C10_8 1_555 1_555
H13_8 C17_8 1_555 1_555
H14_8 C17_8 1_555 1_555
C18_8 C17_8 1_555 1_555
H15_8 C18_8 1_555 1_555
H16_8 C18_8 1_555 1_555
C19_8 O1_8 1_555 1_555
H17_8 C19_8 1_555 1_555
H18_8 C19_8 1_555 1_555
C20_6 C12_6 1_555 1_555
H19_6 C20_6 1_555 1_555
H20_6 C20_6 1_555 1_555
C21_6 C20_6 1_555 1_555
H21_6 C21_6 1_555 1_555
H22_6 C21_6 1_555 1_555
C22_6 O2_8 1_555 1_555
H23_6 C22_6 1_555 1_555
H24_6 C22_6 1_555 1_555
C23_6 O3_8 1_555 1_555
H25_6 C23_6 1_555 1_555
H26_6 C23_6 1_555 1_555
C24_6 C23_6 1_555 1_555
H27_6 C24_6 1_555 1_555
H28_6 C24_6 1_555 1_555
C25_6 C24_6 1_555 1_555
H29_6 C25_6 1_555 1_555
H30_6 C25_6 1_555 1_555
C26_6 O3_8 1_555 1_555
H31_8 C26_6 1_555 1_555
H32_8 C26_6 1_555 1_555
N7_4 Na1_4 1_555 1_555
N8_4 Na1_4 1_555 1_555
C1_8 N1_8 1_555 1_555
C4_8 C5_8 1_555 1_555
C18_8 C19_8 1_555 1_555
C21_6 C22_6 1_555 1_555
C25_6 C26_6 1_555 1_555
N7_4 C13_8 1_555 1_555
C11_8 C7_8 1_555 1_555
H7_7 C11_8 1_555 1_555
C13_8 C11_8 1_555 1_555
H10_8 C13_8 1_555 1_555
C14_8 N7_4 1_555 1_555
H11_8 C14_8 1_555 1_555
C15_8 C7_8 1_555 1_555
H12_8 C15_8 1_555 1_555
C14_8 C15_8 1_555 1_555
H25_7 C23_7 1_555 1_555
H26_7 C23_7 1_555 1_555
C24_7 C23_7 1_555 1_555
H27_7 C24_7 1_555 1_555
H28_7 C24_7 1_555 1_555
C25_7 C24_7 1_555 1_555
H29_7 C25_7 1_555 1_555
H30_7 C25_7 1_555 1_555
C25_7 C26_7 1_555 1_555
C20_7 C12_7 1_555 1_555
H19_7 C20_7 1_555 1_555
H20_7 C20_7 1_555 1_555
C21_7 C20_7 1_555 1_555
H21_7 C21_7 1_555 1_555
H22_7 C21_7 1_555 1_555
H23_7 C22_7 1_555 1_555
H24_7 C22_7 1_555 1_555
C21_7 C22_7 1_555 1_555
H25_8 C23_8 1_555 1_555
H26_8 C23_8 1_555 1_555
C24_8 C23_8 1_555 1_555
H27_8 C24_8 1_555 1_555
H28_8 C24_8 1_555 1_555
C25_8 C24_8 1_555 1_555
H29_8 C25_8 1_555 1_555
H30_8 C25_8 1_555 1_555
C25_8 C26_8 1_555 1_555
C20_8 C12_8 1_555 1_555
H19_8 C20_8 1_555 1_555
H20_8 C20_8 1_555 1_555
C21_8 C20_8 1_555 1_555
H21_8 C21_8 1_555 1_555
H22_8 C21_8 1_555 1_555
H23_8 C22_8 1_555 1_555
H24_8 C22_8 1_555 1_555
C21_8 C22_8 1_555 1_555

#END
