
###############################################################################
#
# This file contains modified crystal structure data generated from the
# MOF subset of the Cambridge Structural Database (CSD) v543 
# hosted by the Cambridge Crystallographic Data Centre (CCDC).
#
# This work is licensed under the Creative Commons
# Attribution-NonCommercial-ShareAlike 4.0 International License.
# To view a copy of this license, visit
# http://creativecommons.org/licenses/by-nc-sa/4.0/
# or send a letter to
# Creative Commons, PO Box 1866, Mountain View, CA 94042, USA.
#
# CIF created using the CSD Python API on 29 September 2022
# The structure has been converted into the P1 space group
# The structure has a 3D framework
# The original CSD entry TOWTEH is in the orthorhombic crystal system
# The framework has been calculated to contain at least 10.0% void space
# The void calculation uses a probe of radius 1.32A, grid spacing 0.4
#
###############################################################################

data_TOWTEH
_chemical_formula_moiety         '(C240 H288 N48 Na8 O24)n'
_symmetry_cell_setting           triclinic
_symmetry_space_group_name_H-M   'P 1'
_symmetry_Int_Tables_number      1
_space_group_name_Hall           'P 1'
loop_
_symmetry_equiv_pos_site_id
_symmetry_equiv_pos_as_xyz
1 x,y,z
_cell_length_a                   14.4698(13)
_cell_length_b                   17.1748(15)
_cell_length_c                   26.837(3)
_cell_angle_alpha                90
_cell_angle_beta                 90
_cell_angle_gamma                90
_cell_volume                     6669.42
loop_
_atom_site_label
_atom_site_type_symbol
_atom_site_fract_x
_atom_site_fract_y
_atom_site_fract_z
O1 O 0.1326(14) 0.5923(14) 0.1927(9)
C1 C 0.0521(13) 0.5897(12) 0.2213(7)
H1 H 0.033031 0.535621 0.226945
H2 H 0.001786 0.617298 0.204484
C2 C 0.0741(15) 0.6269(13) 0.2679(6)
H3 H 0.018654 0.648966 0.283388
H4 H 0.102719 0.590056 0.291136
C3 C 0.1384(18) 0.6875(13) 0.2539(8)
H5 H 0.108525 0.738698 0.254357
H6 H 0.191839 0.688372 0.276296
C4 C 0.1651(17) 0.6665(13) 0.2046(8)
H7 H 0.140167 0.704415 0.180879
H8 H 0.232679 0.667350 0.201954
O2 O 0.1351(4) 0.5740(3) 0.0750(2)
C5 C 0.0825(8) 0.5569(6) 0.0323(4)
H9 H 0.016491 0.557690 0.040537
H10 H 0.098155 0.504887 0.019949
C7 C 0.1384(10) 0.6798(6) 0.0226(4)
H13 H 0.099310 0.725750 0.017811
H14 H 0.201245 0.692065 0.011497
C8 C 0.1385(8) 0.6561(5) 0.0748(4)
H15 H 0.194627 0.674473 0.091470
H16 H 0.084679 0.677695 0.092110
O3 O 0.0270(4) 0.4457(3) 0.1433(3)
H23 H 0.021358 0.364980 0.195088
H24 H 0.014067 0.331980 0.139891
Na1 Na 0.18768(17) 0.47962(14) 0.13249(9)
C13 C 0.2347(6) 0.4103(4) 0.5198(3)
H25 H 0.189870 0.449786 0.522038
N1 N 0.2731(5) 0.3878(4) 0.5620(2)
N2 N 0.2317(4) 0.3998(3) 0.2030(2)
C14 C 0.2538(5) 0.3817(4) 0.4724(2)
H26 H 0.223089 0.401520 0.444261
N3 N 0.6581(4) 0.0443(3) 0.3672(2)
C15 C 0.3204(4) 0.3222(4) 0.4678(2)
N4 N 0.3106(3) 0.3227(3) 0.37880(18)
C16 C 0.3575(5) 0.2945(4) 0.5123(2)
H27 H 0.400128 0.253172 0.511761
N5 N 0.4090(3) 0.2395(3) 0.33004(17)
C17 C 0.3472(4) 0.2914(3) 0.4194(2)
N6 N 0.4135(3) 0.2349(3) 0.41989(18)
C18 C 0.3320(5) 0.3275(4) 0.5575(3)
H28 H 0.357499 0.306517 0.586834
C19 C 0.3402(4) 0.2949(3) 0.3346(2)
C20 C 0.4385(4) 0.2119(3) 0.3735(2)
C21 C 0.5132(4) 0.1519(4) 0.3710(2)
C22 C 0.2329(4) 0.3863(3) 0.2920(2)
H29 H 0.208401 0.402368 0.322745
C23 C 0.3033(4) 0.3294(3) 0.2900(2)
C24 C 0.2011(5) 0.4176(4) 0.2485(3)
H30 H 0.153598 0.454775 0.250844
C25 C 0.3001(5) 0.3449(4) 0.2007(3)
H31 H 0.323764 0.330833 0.169348
C26 C 0.3357(4) 0.3091(4) 0.2429(2)
H32 H 0.381932 0.271032 0.239637
C27 C 0.5368(5) 0.1153(4) 0.3276(3)
H33 H 0.504577 0.126078 0.297963
C28 C 0.6083(5) 0.0623(4) 0.3276(3)
H34 H 0.622608 0.037233 0.297468
C29 C 0.6348(5) 0.0799(4) 0.4097(3)
H35 H 0.669195 0.068851 0.438594
C30 C 0.5623(5) 0.1322(4) 0.4130(2)
H36 H 0.546600 0.154152 0.443940
Na3 Na 0.31232(17) 0.47962(14) 0.63249(9)
N7 N 0.2269(5) 0.3878(4) 0.0620(2)
N8 N 0.3419(4) 0.5443(3) 0.1328(2)
Na2 Na 0.81232(17) 0.97962(14) 0.36751(9)
O1_2 O 0.8674(14) 0.0923(14) 0.3073(9)
C1_2 C 0.9479(13) 0.0897(12) 0.2787(7)
H1_2 H 0.966969 0.035621 0.273055
H2_2 H 0.998214 0.117298 0.295516
C2_2 C 0.9259(15) 0.1269(13) 0.2321(6)
H3_2 H 0.981346 0.148966 0.216612
H4_2 H 0.897281 0.090056 0.208864
C3_2 C 0.8616(18) 0.1875(13) 0.2461(8)
H5_2 H 0.891475 0.238698 0.245643
H6_2 H 0.808161 0.188372 0.223704
C4_2 C 0.8349(17) 0.1665(13) 0.2954(8)
H7_2 H 0.859833 0.204415 0.319121
H8_2 H 0.767321 0.167350 0.298046
O2_2 O 0.8649(4) 0.0740(3) 0.4250(2)
C5_2 C 0.9175(8) 0.0569(6) 0.4677(4)
H9_2 H 0.983509 0.057690 0.459463
H10_2 H 0.901845 0.004887 0.480051
C6 C 0.8984(10) 0.1133(7) 0.5048(4)
H11 H 0.954798 0.127631 0.522812
H12 H 0.852879 0.093546 0.528723
C7_2 C 0.8616(10) 0.1798(6) 0.4774(4)
H13_2 H 0.900690 0.225750 0.482189
H14_2 H 0.798755 0.192065 0.488503
C8_2 C 0.8615(8) 0.1561(5) 0.4252(4)
H15_2 H 0.805373 0.174473 0.408530
H16_2 H 0.915321 0.177695 0.407890
O3_2 O 0.9730(4) 0.9457(3) 0.3567(3)
H23_2 H 0.978642 0.864980 0.304912
H24_2 H 0.985933 0.831980 0.360109
N2_2 N 0.7683(4) 0.8998(3) 0.2970(2)
C14_2 C 0.7462(5) 0.8817(4) 0.0276(2)
H26_2 H 0.776911 0.901520 0.055739
C15_2 C 0.6796(4) 0.8222(4) 0.0322(2)
N4_2 N 0.6894(3) 0.8227(3) 0.12120(18)
N5_2 N 0.5910(3) 0.7395(3) 0.16996(17)
C17_2 C 0.6528(4) 0.7914(3) 0.0806(2)
N6_2 N 0.5865(3) 0.7349(3) 0.08011(18)
C19_2 C 0.6598(4) 0.7949(3) 0.1654(2)
C20_2 C 0.5615(4) 0.7119(3) 0.1265(2)
C21_2 C 0.4868(4) 0.6519(4) 0.1290(2)
C22_2 C 0.7671(4) 0.8863(3) 0.2080(2)
H29_2 H 0.791599 0.902368 0.177255
C23_2 C 0.6967(4) 0.8294(3) 0.2100(2)
C24_2 C 0.7989(5) 0.9176(4) 0.2515(3)
H30_2 H 0.846402 0.954775 0.249156
C25_2 C 0.6999(5) 0.8449(4) 0.2993(3)
H31_2 H 0.676236 0.830833 0.330652
C26_2 C 0.6643(4) 0.8091(4) 0.2571(2)
H32_2 H 0.618068 0.771032 0.260363
C27_2 C 0.4632(5) 0.6153(4) 0.1724(3)
H33_2 H 0.495423 0.626078 0.202037
C28_2 C 0.3917(5) 0.5623(4) 0.1724(3)
H34_2 H 0.377392 0.537233 0.202532
C29_2 C 0.3652(5) 0.5799(4) 0.0903(3)
H35_2 H 0.330805 0.568851 0.061406
C30_2 C 0.4377(5) 0.6322(4) 0.0870(2)
H36_2 H 0.453400 0.654152 0.056060
N7_2 N 0.7731(5) 0.8878(4) 0.4380(2)
C13_2 C 0.7653(6) 0.9103(4) 0.9802(3)
H25_2 H 0.810130 0.949786 0.977962
N1_2 N 0.7269(5) 0.8878(4) 0.9380(2)
C16_2 C 0.6425(5) 0.7945(4) 0.9877(2)
H27_2 H 0.599872 0.753172 0.988239
C18_2 C 0.6680(5) 0.8275(4) 0.9425(3)
H28_2 H 0.642501 0.806517 0.913166
Na3_2 Na 0.68768(17) 0.97962(14) 0.86751(9)
N3_2 N 0.1581(4) 0.5443(3) 0.6328(2)
C21_3 C 0.0132(4) 0.6519(4) 0.6290(2)
C27_3 C 0.0368(5) 0.6153(4) 0.6724(3)
H33_3 H 0.004577 0.626078 0.702037
C28_3 C 0.1083(5) 0.5623(4) 0.6724(3)
H34_3 H 0.122608 0.537233 0.702532
C29_3 C 0.1348(5) 0.5799(4) 0.5903(3)
H35_3 H 0.169195 0.568851 0.561406
C30_3 C 0.0623(5) 0.6322(4) 0.5870(2)
H36_3 H 0.046600 0.654152 0.556060
O3_3 O 0.5270(4) 0.9457(3) 0.8567(3)
C9 C 0.4498(6) 0.9929(6) 0.8663(6)
C10 C 0.3694(6) 0.9558(7) 0.8485(6)
H19 H 0.321609 0.954577 0.874335
H20 H 0.344887 0.983466 0.819357
C11 C 0.3969(6) 0.8778(6) 0.8350(6)
H21 H 0.369263 0.839944 0.857967
H22 H 0.376380 0.865566 0.801129
C12 C 0.4951(6) 0.8745(5) 0.8380(5)
H23_3 H 0.521358 0.864980 0.804912
H24_3 H 0.514067 0.831980 0.860109
C13_3 C 0.7347(6) 0.9103(4) 0.4802(3)
H25_3 H 0.689870 0.949786 0.477962
N2_3 N 0.7317(4) 0.8998(3) 0.7970(2)
C14_3 C 0.7538(5) 0.8817(4) 0.5276(2)
H26_3 H 0.723089 0.901520 0.555739
C15_3 C 0.8204(4) 0.8222(4) 0.5322(2)
N4_3 N 0.8106(3) 0.8227(3) 0.62120(18)
C16_3 C 0.8575(5) 0.7945(4) 0.4877(2)
H27_3 H 0.900128 0.753172 0.488239
N5_3 N 0.9090(3) 0.7395(3) 0.66996(17)
C17_3 C 0.8472(4) 0.7914(3) 0.5806(2)
N6_3 N 0.9135(3) 0.7349(3) 0.58011(18)
C18_3 C 0.8320(5) 0.8275(4) 0.4425(3)
H28_3 H 0.857499 0.806517 0.413166
C19_3 C 0.8402(4) 0.7949(3) 0.6654(2)
C20_3 C 0.9385(4) 0.7119(3) 0.6265(2)
C22_3 C 0.7329(4) 0.8863(3) 0.7080(2)
H29_3 H 0.708401 0.902368 0.677255
C23_3 C 0.8033(4) 0.8294(3) 0.7100(2)
C24_3 C 0.7011(5) 0.9176(4) 0.7515(3)
H30_3 H 0.653598 0.954775 0.749156
C25_3 C 0.8001(5) 0.8449(4) 0.7993(3)
H31_3 H 0.823764 0.830833 0.830652
C26_3 C 0.8357(4) 0.8091(4) 0.7571(2)
H32_3 H 0.881932 0.771032 0.760363
C13_4 C 0.2653(6) 0.4103(4) 0.0198(3)
H25_4 H 0.310130 0.449786 0.022038
C16_4 C 0.1425(5) 0.2945(4) 0.0123(2)
H27_4 H 0.099872 0.253172 0.011761
C18_4 C 0.1680(5) 0.3275(4) 0.0575(3)
H28_4 H 0.142501 0.306517 0.086834
O1_3 O 0.3674(14) 0.5923(14) 0.6927(9)
C1_3 C 0.4479(13) 0.5897(12) 0.7213(7)
H1_3 H 0.466969 0.535621 0.726945
H2_3 H 0.498214 0.617298 0.704484
C2_3 C 0.4259(15) 0.6269(13) 0.7679(6)
H3_3 H 0.481346 0.648966 0.783388
H4_3 H 0.397281 0.590056 0.791136
C3_3 C 0.3616(18) 0.6875(13) 0.7539(8)
H5_3 H 0.391475 0.738698 0.754357
H6_3 H 0.308161 0.688372 0.776296
C4_3 C 0.3349(17) 0.6665(13) 0.7046(8)
H7_3 H 0.359833 0.704415 0.680879
H8_3 H 0.267321 0.667350 0.701954
O2_3 O 0.3649(4) 0.5740(3) 0.5750(2)
C5_3 C 0.4175(8) 0.5569(6) 0.5323(4)
H9_3 H 0.483509 0.557690 0.540537
H10_3 H 0.401845 0.504887 0.519949
C6_2 C 0.3984(10) 0.6133(7) 0.4952(4)
H11_2 H 0.454798 0.627631 0.477188
H12_2 H 0.352879 0.593546 0.471277
C7_3 C 0.3616(10) 0.6798(6) 0.5226(4)
H13_3 H 0.400690 0.725750 0.517811
H14_3 H 0.298755 0.692065 0.511497
C8_3 C 0.3615(8) 0.6561(5) 0.5748(4)
H15_3 H 0.305373 0.674473 0.591470
H16_3 H 0.415321 0.677695 0.592110
O3_4 O 0.4730(4) 0.4457(3) 0.6433(3)
C9_2 C 0.5502(6) 0.4929(6) 0.6337(6)
H17 H 0.555724 0.501934 0.597736
H18 H 0.542573 0.543407 0.650145
C10_2 C 0.6306(6) 0.4558(7) 0.6515(6)
H19_2 H 0.678391 0.454577 0.625665
H20_2 H 0.655113 0.483466 0.680643
C11_2 C 0.6031(6) 0.3778(6) 0.6650(6)
H21_2 H 0.630737 0.339944 0.642033
H22_2 H 0.623620 0.365566 0.698871
C12_2 C 0.5049(6) 0.3745(5) 0.6620(5)
H23_4 H 0.478642 0.364980 0.695088
H24_4 H 0.485933 0.331980 0.639891
N2_4 N 0.2683(4) 0.3998(3) 0.7030(2)
C14_4 C 0.2462(5) 0.3817(4) 0.9724(2)
H26_4 H 0.276911 0.401520 0.944261
C15_4 C 0.1796(4) 0.3222(4) 0.9678(2)
N4_4 N 0.1894(3) 0.3227(3) 0.87880(18)
N5_4 N 0.0910(3) 0.2395(3) 0.83004(17)
C17_4 C 0.1528(4) 0.2914(3) 0.9194(2)
N6_4 N 0.0865(3) 0.2349(3) 0.91989(18)
C19_4 C 0.1598(4) 0.2949(3) 0.8346(2)
C20_4 C 0.0615(4) 0.2119(3) 0.8735(2)
C22_4 C 0.2671(4) 0.3863(3) 0.7920(2)
H29_4 H 0.291599 0.402368 0.822745
C23_4 C 0.1967(4) 0.3294(3) 0.7900(2)
C24_4 C 0.2989(5) 0.4176(4) 0.7485(3)
H30_4 H 0.346402 0.454775 0.750844
C25_4 C 0.1999(5) 0.3449(4) 0.7007(3)
H31_4 H 0.176236 0.330833 0.669348
C26_4 C 0.1643(4) 0.3091(4) 0.7429(2)
H32_4 H 0.118068 0.271032 0.739637
C6_3 C 0.1016(10) 0.6133(7) 0.9952(4)
H11_3 H 0.045202 0.627631 0.977188
H12_3 H 0.147121 0.593546 0.971277
C9_3 C 0.9498(6) 0.4929(6) 0.1337(6)
H17_2 H 0.944276 0.501934 0.097736
H18_2 H 0.957427 0.543407 0.150145
C10_3 C 0.8694(6) 0.4558(7) 0.1515(6)
H19_3 H 0.821609 0.454577 0.125665
H20_3 H 0.844887 0.483466 0.180643
C11_3 C 0.8969(6) 0.3778(6) 0.1650(6)
H21_3 H 0.869263 0.339944 0.142033
H22_3 H 0.876380 0.365566 0.198871
C12_3 C 0.9951(6) 0.3745(5) 0.1620(5)
O3_5 O 0.4730(4) 0.0543(3) 0.1433(3)
C9_4 C 0.5502(6) 0.0071(6) 0.1337(6)
C10_4 C 0.6306(6) 0.0442(7) 0.1515(6)
H19_4 H 0.678391 0.045423 0.125665
H20_4 H 0.655113 0.016534 0.180643
C11_4 C 0.6031(6) 0.1222(6) 0.1650(6)
H21_4 H 0.630737 0.160056 0.142033
H22_4 H 0.623620 0.134434 0.198871
C12_4 C 0.5049(6) 0.1255(5) 0.1620(5)
H23_5 H 0.478642 0.135020 0.195088
H24_5 H 0.485933 0.168020 0.139891
Na1_2 Na 0.31232(17) 0.02038(14) 0.13249(9)
C13_5 C 0.2653(6) 0.0897(4) 0.5198(3)
H25_5 H 0.310130 0.050214 0.522038
N1_3 N 0.2269(5) 0.1122(4) 0.5620(2)
N2_5 N 0.2683(4) 0.1002(3) 0.2030(2)
C14_5 C 0.2462(5) 0.1183(4) 0.4724(2)
H26_5 H 0.276911 0.098480 0.444261
C15_5 C 0.1796(4) 0.1778(4) 0.4678(2)
N4_5 N 0.1894(3) 0.1773(3) 0.37880(18)
C16_5 C 0.1425(5) 0.2055(4) 0.5123(2)
H27_5 H 0.099872 0.246828 0.511761
N5_5 N 0.0910(3) 0.2605(3) 0.33004(17)
C17_5 C 0.1528(4) 0.2086(3) 0.4194(2)
N6_5 N 0.0865(3) 0.2651(3) 0.41989(18)
C18_5 C 0.1680(5) 0.1725(4) 0.5575(3)
H28_5 H 0.142501 0.193483 0.586834
C19_5 C 0.1598(4) 0.2051(3) 0.3346(2)
C20_5 C 0.0615(4) 0.2881(3) 0.3735(2)
C22_5 C 0.2671(4) 0.1137(3) 0.2920(2)
H29_5 H 0.291599 0.097632 0.322745
C23_5 C 0.1967(4) 0.1706(3) 0.2900(2)
C24_5 C 0.2989(5) 0.0824(4) 0.2485(3)
H30_5 H 0.346402 0.045225 0.250844
C25_5 C 0.1999(5) 0.1551(4) 0.2007(3)
H31_5 H 0.176236 0.169167 0.169348
C26_5 C 0.1643(4) 0.1909(4) 0.2429(2)
H32_5 H 0.118068 0.228968 0.239637
Na3_3 Na 0.18768(17) 0.02038(14) 0.63249(9)
N7_3 N 0.2731(5) 0.1122(4) 0.0620(2)
N3_3 N 0.8419(4) 0.4557(3) 0.3672(2)
C21_4 C 0.9868(4) 0.3481(4) 0.3710(2)
C27_4 C 0.9632(5) 0.3847(4) 0.3276(3)
H33_4 H 0.995423 0.373922 0.297963
C28_4 C 0.8917(5) 0.4377(4) 0.3276(3)
H34_4 H 0.877392 0.462767 0.297468
C29_4 C 0.8652(5) 0.4201(4) 0.4097(3)
H35_4 H 0.830805 0.431149 0.438594
C30_4 C 0.9377(5) 0.3678(4) 0.4130(2)
H36_4 H 0.953400 0.345848 0.443940
Na2_2 Na 0.68768(17) 0.52038(14) 0.36751(9)
O1_4 O 0.6326(14) 0.4077(14) 0.3073(9)
C1_4 C 0.5521(13) 0.4103(12) 0.2787(7)
H1_4 H 0.533031 0.464379 0.273055
H2_4 H 0.501786 0.382702 0.295516
C2_4 C 0.5741(15) 0.3731(13) 0.2321(6)
H3_4 H 0.518654 0.351034 0.216612
H4_4 H 0.602719 0.409944 0.208864
C3_4 C 0.6384(18) 0.3125(13) 0.2461(8)
H5_4 H 0.608525 0.261302 0.245643
H6_4 H 0.691839 0.311628 0.223704
C4_4 C 0.6651(17) 0.3335(13) 0.2954(8)
H7_4 H 0.640167 0.295585 0.319121
H8_4 H 0.732679 0.332650 0.298046
O2_4 O 0.6351(4) 0.4260(3) 0.4250(2)
C5_4 C 0.5825(8) 0.4431(6) 0.4677(4)
H9_4 H 0.516491 0.442310 0.459463
H10_4 H 0.598155 0.495113 0.480051
C6_4 C 0.6016(10) 0.3867(7) 0.5048(4)
H11_4 H 0.545202 0.372369 0.522812
H12_4 H 0.647121 0.406454 0.528723
C7_4 C 0.6384(10) 0.3202(6) 0.4774(4)
H13_4 H 0.599310 0.274250 0.482189
H14_4 H 0.701245 0.307935 0.488503
C8_4 C 0.6385(8) 0.3439(5) 0.4252(4)
H15_4 H 0.694627 0.325527 0.408530
H16_4 H 0.584679 0.322305 0.407890
O3_6 O 0.5270(4) 0.5543(3) 0.3567(3)
C9_5 C 0.4498(6) 0.5071(6) 0.3663(6)
H17_3 H 0.444276 0.498066 0.402264
H18_3 H 0.457427 0.456593 0.349855
C10_5 C 0.3694(6) 0.5442(7) 0.3485(6)
H19_5 H 0.321609 0.545423 0.374335
H20_5 H 0.344887 0.516534 0.319357
C11_5 C 0.3969(6) 0.6222(6) 0.3350(6)
H21_5 H 0.369263 0.660056 0.357967
H22_5 H 0.376380 0.634434 0.301129
C12_5 C 0.4951(6) 0.6255(5) 0.3380(5)
H23_6 H 0.521358 0.635020 0.304912
H24_6 H 0.514067 0.668020 0.360109
N2_6 N 0.7317(4) 0.6002(3) 0.2970(2)
C14_6 C 0.7538(5) 0.6183(4) 0.0276(2)
H26_6 H 0.723089 0.598480 0.055739
C15_6 C 0.8204(4) 0.6778(4) 0.0322(2)
N4_6 N 0.8106(3) 0.6773(3) 0.12120(18)
N5_6 N 0.9090(3) 0.7605(3) 0.16996(17)
C17_6 C 0.8472(4) 0.7086(3) 0.0806(2)
N6_6 N 0.9135(3) 0.7651(3) 0.08011(18)
C19_6 C 0.8402(4) 0.7051(3) 0.1654(2)
C20_6 C 0.9385(4) 0.7881(3) 0.1265(2)
C22_6 C 0.7329(4) 0.6137(3) 0.2080(2)
H29_6 H 0.708401 0.597632 0.177255
C23_6 C 0.8033(4) 0.6706(3) 0.2100(2)
C24_6 C 0.7011(5) 0.5824(4) 0.2515(3)
H30_6 H 0.653598 0.545225 0.249156
C25_6 C 0.8001(5) 0.6551(4) 0.2993(3)
H31_6 H 0.823764 0.669167 0.330652
C26_6 C 0.8357(4) 0.6909(4) 0.2571(2)
H32_6 H 0.881932 0.728968 0.260363
N7_4 N 0.7269(5) 0.6122(4) 0.4380(2)
C13_6 C 0.7347(6) 0.5897(4) 0.9802(3)
H25_6 H 0.689870 0.550214 0.977962
N1_4 N 0.7731(5) 0.6122(4) 0.9380(2)
C16_6 C 0.8575(5) 0.7055(4) 0.9877(2)
H27_6 H 0.900128 0.746828 0.988239
C18_6 C 0.8320(5) 0.6725(4) 0.9425(3)
H28_6 H 0.857499 0.693483 0.913166
Na3_4 Na 0.81232(17) 0.52038(14) 0.86751(9)
O1_5 O 0.8674(14) 0.4077(14) 0.8073(9)
C1_5 C 0.9479(13) 0.4103(12) 0.7787(7)
H1_5 H 0.966969 0.464379 0.773055
H2_5 H 0.998214 0.382702 0.795516
C2_5 C 0.9259(15) 0.3731(13) 0.7321(6)
H3_5 H 0.981346 0.351034 0.716612
H4_5 H 0.897281 0.409944 0.708864
C3_5 C 0.8616(18) 0.3125(13) 0.7461(8)
H5_5 H 0.891475 0.261302 0.745643
H6_5 H 0.808161 0.311628 0.723704
C4_5 C 0.8349(17) 0.3335(13) 0.7954(8)
H7_5 H 0.859833 0.295585 0.819121
H8_5 H 0.767321 0.332650 0.798046
O2_5 O 0.8649(4) 0.4260(3) 0.9250(2)
C5_5 C 0.9175(8) 0.4431(6) 0.9677(4)
H9_5 H 0.983509 0.442310 0.959463
H10_5 H 0.901845 0.495113 0.980051
C7_5 C 0.8616(10) 0.3202(6) 0.9774(4)
H13_5 H 0.900690 0.274250 0.982189
H14_5 H 0.798755 0.307935 0.988503
C8_5 C 0.8615(8) 0.3439(5) 0.9252(4)
H15_5 H 0.805373 0.325527 0.908530
H16_5 H 0.915321 0.322305 0.907890
O3_7 O 0.9730(4) 0.5543(3) 0.8567(3)
H23_7 H 0.978642 0.635020 0.804912
H24_7 H 0.985933 0.668020 0.860109
C13_7 C 0.7653(6) 0.5897(4) 0.4802(3)
H25_7 H 0.810130 0.550214 0.477962
N2_7 N 0.7683(4) 0.6002(3) 0.7970(2)
C14_7 C 0.7462(5) 0.6183(4) 0.5276(2)
H26_7 H 0.776911 0.598480 0.555739
N3_4 N 0.3419(4) 0.9557(3) 0.6328(2)
C15_7 C 0.6796(4) 0.6778(4) 0.5322(2)
N4_7 N 0.6894(3) 0.6773(3) 0.62120(18)
C16_7 C 0.6425(5) 0.7055(4) 0.4877(2)
H27_7 H 0.599872 0.746828 0.488239
N5_7 N 0.5910(3) 0.7605(3) 0.66996(17)
C17_7 C 0.6528(4) 0.7086(3) 0.5806(2)
N6_7 N 0.5865(3) 0.7651(3) 0.58011(18)
C18_7 C 0.6680(5) 0.6725(4) 0.4425(3)
H28_7 H 0.642501 0.693483 0.413166
C19_7 C 0.6598(4) 0.7051(3) 0.6654(2)
C20_7 C 0.5615(4) 0.7881(3) 0.6265(2)
C21_5 C 0.4868(4) 0.8481(4) 0.6290(2)
C22_7 C 0.7671(4) 0.6137(3) 0.7080(2)
H29_7 H 0.791599 0.597632 0.677255
C23_7 C 0.6967(4) 0.6706(3) 0.7100(2)
C24_7 C 0.7989(5) 0.5824(4) 0.7515(3)
H30_7 H 0.846402 0.545225 0.749156
C25_7 C 0.6999(5) 0.6551(4) 0.7993(3)
H31_7 H 0.676236 0.669167 0.830652
C26_7 C 0.6643(4) 0.6909(4) 0.7571(2)
H32_7 H 0.618068 0.728968 0.760363
C27_5 C 0.4632(5) 0.8847(4) 0.6724(3)
H33_5 H 0.495423 0.873922 0.702037
C28_5 C 0.3917(5) 0.9377(4) 0.6724(3)
H34_5 H 0.377392 0.962767 0.702532
C29_5 C 0.3652(5) 0.9201(4) 0.5903(3)
H35_5 H 0.330805 0.931149 0.561406
C30_5 C 0.4377(5) 0.8678(4) 0.5870(2)
H36_5 H 0.453400 0.845848 0.556060
N8_2 N 0.6581(4) 0.4557(3) 0.8672(2)
C13_8 C 0.2347(6) 0.0897(4) 0.0198(3)
H25_8 H 0.189870 0.050214 0.022038
C16_8 C 0.3575(5) 0.2055(4) 0.0123(2)
H27_8 H 0.400128 0.246828 0.011761
C18_8 C 0.3320(5) 0.1725(4) 0.0575(3)
H28_8 H 0.357499 0.193483 0.086834
O3_8 O 0.0270(4) 0.0543(3) 0.6433(3)
H23_8 H 0.021358 0.135020 0.695088
H24_8 H 0.014067 0.168020 0.639891
N2_8 N 0.2317(4) 0.1002(3) 0.7030(2)
C14_8 C 0.2538(5) 0.1183(4) 0.9724(2)
H26_8 H 0.223089 0.098480 0.944261
C15_8 C 0.3204(4) 0.1778(4) 0.9678(2)
N4_8 N 0.3106(3) 0.1773(3) 0.87880(18)
N5_8 N 0.4090(3) 0.2605(3) 0.83004(17)
C17_8 C 0.3472(4) 0.2086(3) 0.9194(2)
N6_8 N 0.4135(3) 0.2651(3) 0.91989(18)
C19_8 C 0.3402(4) 0.2051(3) 0.8346(2)
C20_8 C 0.4385(4) 0.2881(3) 0.8735(2)
C21_6 C 0.5132(4) 0.3481(4) 0.8710(2)
C22_8 C 0.2329(4) 0.1137(3) 0.7920(2)
H29_8 H 0.208401 0.097632 0.822745
C23_8 C 0.3033(4) 0.1706(3) 0.7900(2)
C24_8 C 0.2011(5) 0.0824(4) 0.7485(3)
H30_8 H 0.153598 0.045225 0.750844
C25_8 C 0.3001(5) 0.1551(4) 0.7007(3)
H31_8 H 0.323764 0.169167 0.669348
C26_8 C 0.3357(4) 0.1909(4) 0.7429(2)
H32_8 H 0.381932 0.228968 0.739637
C27_6 C 0.5368(5) 0.3847(4) 0.8276(3)
H33_6 H 0.504577 0.373922 0.797963
C28_6 C 0.6083(5) 0.4377(4) 0.8276(3)
H34_6 H 0.622608 0.462767 0.797468
C29_6 C 0.6348(5) 0.4201(4) 0.9097(3)
H35_6 H 0.669195 0.431149 0.938594
C30_6 C 0.5623(5) 0.3678(4) 0.9130(2)
H36_6 H 0.546600 0.345848 0.943940
O1_6 O 0.1326(14) 0.9077(14) 0.6927(9)
C1_6 C 0.0521(13) 0.9103(12) 0.7213(7)
H1_6 H 0.033031 0.964379 0.726945
H2_6 H 0.001786 0.882702 0.704484
C2_6 C 0.0741(15) 0.8731(13) 0.7679(6)
H3_6 H 0.018654 0.851034 0.783388
H4_6 H 0.102719 0.909944 0.791136
C3_6 C 0.1384(18) 0.8125(13) 0.7539(8)
H5_6 H 0.108525 0.761302 0.754357
H6_6 H 0.191839 0.811628 0.776296
C4_6 C 0.1651(17) 0.8335(13) 0.7046(8)
H7_6 H 0.140167 0.795585 0.680879
H8_6 H 0.232679 0.832650 0.701954
O2_6 O 0.1351(4) 0.9260(3) 0.5750(2)
C5_6 C 0.0825(8) 0.9431(6) 0.5323(4)
H9_6 H 0.016491 0.942310 0.540537
H10_6 H 0.098155 0.995113 0.519949
C6_5 C 0.1016(10) 0.8867(7) 0.4952(4)
H11_5 H 0.045202 0.872369 0.477188
H12_5 H 0.147121 0.906454 0.471277
C7_6 C 0.1384(10) 0.8202(6) 0.5226(4)
H13_6 H 0.099310 0.774250 0.517811
H14_6 H 0.201245 0.807935 0.511497
C8_6 C 0.1385(8) 0.8439(5) 0.5748(4)
H15_6 H 0.194627 0.825527 0.591470
H16_6 H 0.084679 0.822305 0.592110
O1_7 O 0.3674(14) 0.9077(14) 0.1927(9)
C1_7 C 0.4479(13) 0.9103(12) 0.2213(7)
H1_7 H 0.466969 0.964379 0.226945
H2_7 H 0.498214 0.882702 0.204484
C2_7 C 0.4259(15) 0.8731(13) 0.2679(6)
H3_7 H 0.481346 0.851034 0.283388
H4_7 H 0.397281 0.909944 0.291136
C3_7 C 0.3616(18) 0.8125(13) 0.2539(8)
H5_7 H 0.391475 0.761302 0.254357
H6_7 H 0.308161 0.811628 0.276296
C4_7 C 0.3349(17) 0.8335(13) 0.2046(8)
H7_7 H 0.359833 0.795585 0.180879
H8_7 H 0.267321 0.832650 0.201954
O2_7 O 0.3649(4) 0.9260(3) 0.0750(2)
C5_7 C 0.4175(8) 0.9431(6) 0.0323(4)
H9_7 H 0.483509 0.942310 0.040537
H10_7 H 0.401845 0.995113 0.019949
C7_7 C 0.3616(10) 0.8202(6) 0.0226(4)
H13_7 H 0.400690 0.774250 0.017811
H14_7 H 0.298755 0.807935 0.011497
C8_7 C 0.3615(8) 0.8439(5) 0.0748(4)
H15_7 H 0.305373 0.825527 0.091470
H16_7 H 0.415321 0.822305 0.092110
H17_4 H 0.555724 0.998066 0.097736
H18_4 H 0.542573 0.956593 0.150145
N8_3 N 0.1581(4) 0.9557(3) 0.1328(2)
C21_7 C 0.0132(4) 0.8481(4) 0.1290(2)
C27_7 C 0.0368(5) 0.8847(4) 0.1724(3)
H33_7 H 0.004577 0.873922 0.202037
C28_7 C 0.1083(5) 0.9377(4) 0.1724(3)
H34_7 H 0.122608 0.962767 0.202532
C29_7 C 0.1348(5) 0.9201(4) 0.0903(3)
H35_7 H 0.169195 0.931149 0.061406
C30_7 C 0.0623(5) 0.8678(4) 0.0870(2)
H36_7 H 0.046600 0.845848 0.056060
C6_6 C 0.3984(10) 0.8867(7) 0.9952(4)
H11_6 H 0.454798 0.872369 0.977188
H12_6 H 0.352879 0.906454 0.971277
H17_5 H 0.055724 0.001934 0.402264
H18_5 H 0.042573 0.043407 0.349855
C9_6 C 0.0502(6) 0.9929(6) 0.3663(6)
C10_6 C 0.1306(6) 0.9558(7) 0.3485(6)
H19_6 H 0.178391 0.954577 0.374335
H20_6 H 0.155113 0.983466 0.319357
C11_6 C 0.1031(6) 0.8778(6) 0.3350(6)
H21_6 H 0.130737 0.839944 0.357967
H22_6 H 0.123620 0.865566 0.301129
C12_6 C 0.0049(6) 0.8745(5) 0.3380(5)
C9_7 C 0.0502(6) 0.5071(6) 0.8663(6)
H17_6 H 0.055724 0.498066 0.902264
H18_6 H 0.042573 0.456593 0.849855
C10_7 C 0.1306(6) 0.5442(7) 0.8485(6)
H19_7 H 0.178391 0.545423 0.874335
H20_7 H 0.155113 0.516534 0.819357
C11_7 C 0.1031(6) 0.6222(6) 0.8350(6)
H21_7 H 0.130737 0.660056 0.857967
H22_7 H 0.123620 0.634434 0.801129
C12_7 C 0.0049(6) 0.6255(5) 0.8380(5)
C6_7 C 0.8984(10) 0.3867(7) 0.0048(4)
H11_7 H 0.954798 0.372369 0.022812
H12_7 H 0.852879 0.406454 0.028723
C6_8 C 0.6016(10) 0.1133(7) 0.0048(4)
H11_8 H 0.545202 0.127631 0.022812
H12_8 H 0.647121 0.093546 0.028723
O1_8 O 0.6326(14) 0.0923(14) 0.8073(9)
C1_8 C 0.5521(13) 0.0897(12) 0.7787(7)
H1_8 H 0.533031 0.035621 0.773055
H2_8 H 0.501786 0.117298 0.795516
C2_8 C 0.5741(15) 0.1269(13) 0.7321(6)
H3_8 H 0.518654 0.148966 0.716612
H4_8 H 0.602719 0.090056 0.708864
C3_8 C 0.6384(18) 0.1875(13) 0.7461(8)
H5_8 H 0.608525 0.238698 0.745643
H6_8 H 0.691839 0.188372 0.723704
C4_8 C 0.6651(17) 0.1665(13) 0.7954(8)
H7_8 H 0.640167 0.204415 0.819121
H8_8 H 0.732679 0.167350 0.798046
O2_8 O 0.6351(4) 0.0740(3) 0.9250(2)
C5_8 C 0.5825(8) 0.0569(6) 0.9677(4)
H9_8 H 0.516491 0.057690 0.959463
H10_8 H 0.598155 0.004887 0.980051
C7_8 C 0.6384(10) 0.1798(6) 0.9774(4)
H13_8 H 0.599310 0.225750 0.982189
H14_8 H 0.701245 0.192065 0.988503
C8_8 C 0.6385(8) 0.1561(5) 0.9252(4)
H15_8 H 0.694627 0.174473 0.908530
H16_8 H 0.584679 0.177695 0.907890
H17_7 H 0.444276 0.001934 0.902264
H18_7 H 0.457427 0.043407 0.849855
N8_4 N 0.8419(4) 0.0443(3) 0.8672(2)
C21_8 C 0.9868(4) 0.1519(4) 0.8710(2)
C27_8 C 0.9632(5) 0.1153(4) 0.8276(3)
H33_8 H 0.995423 0.126078 0.797963
C28_8 C 0.8917(5) 0.0623(4) 0.8276(3)
H34_8 H 0.877392 0.037233 0.797468
C29_8 C 0.8652(5) 0.0799(4) 0.9097(3)
H35_8 H 0.830805 0.068851 0.938594
C30_8 C 0.9377(5) 0.1322(4) 0.9130(2)
H36_8 H 0.953400 0.154152 0.943940
C9_8 C 0.9498(6) 0.0071(6) 0.6337(6)
C10_8 C 0.8694(6) 0.0442(7) 0.6515(6)
H19_8 H 0.821609 0.045423 0.625665
H20_8 H 0.844887 0.016534 0.680643
C11_8 C 0.8969(6) 0.1222(6) 0.6650(6)
H21_8 H 0.869263 0.160056 0.642033
H22_8 H 0.876380 0.134434 0.698871
C12_8 C 0.9951(6) 0.1255(5) 0.6620(5)
H17_8 H 0.944276 0.998066 0.597736
H18_8 H 0.957427 0.956593 0.650145
loop_
_geom_bond_atom_site_label_1
_geom_bond_atom_site_label_2
_geom_bond_site_symmetry_1
_geom_bond_site_symmetry_2
O1 C1 1_555 1_555
C1 H1 1_555 1_555
H2 C1 1_555 1_555
C2 C1 1_555 1_555
H3 C2 1_555 1_555
H4 C2 1_555 1_555
C3 C2 1_555 1_555
H5 C3 1_555 1_555
H6 C3 1_555 1_555
C4 O1 1_555 1_555
H7 C4 1_555 1_555
H8 C4 1_555 1_555
O2 C5 1_555 1_555
C5 H9 1_555 1_555
H10 C5 1_555 1_555
H13 C7 1_555 1_555
H14 C7 1_555 1_555
C8 O2 1_555 1_555
H15 C8 1_555 1_555
H16 C8 1_555 1_555
Na1 O1 1_555 1_555
C13 H25 1_555 1_555
N1 C13 1_555 1_555
N2 Na1 1_555 1_555
C14 C13 1_555 1_555
H26 C14 1_555 1_555
N3 C28 1_555 1_555
C15 C14 1_555 1_555
N4 C17 1_555 1_555
C16 C15 1_555 1_555
H27 C16 1_555 1_555
N5 C19 1_555 1_555
C17 C15 1_555 1_555
N6 C17 1_555 1_555
C18 N1 1_555 1_555
H28 C18 1_555 1_555
C19 N4 1_555 1_555
C20 N5 1_555 1_555
C21 C20 1_555 1_555
C22 H29 1_555 1_555
C23 C19 1_555 1_555
C24 N2 1_555 1_555
H30 C24 1_555 1_555
C25 N2 1_555 1_555
H31 C25 1_555 1_555
C26 C23 1_555 1_555
H32 C26 1_555 1_555
C27 C21 1_555 1_555
H33 C27 1_555 1_555
C28 C27 1_555 1_555
H34 C28 1_555 1_555
C29 N3 1_555 1_555
H35 C29 1_555 1_555
C30 C21 1_555 1_555
H36 C30 1_555 1_555
Na3 N1 1_555 1_555
N7 Na1 1_555 1_555
N8 Na1 1_555 1_555
C3 C4 1_555 1_555
O2 Na1 1_555 1_555
C7 C8 1_555 1_555
O3 Na1 1_555 1_555
C16 C18 1_555 1_555
N6 C20 1_555 1_555
C22 C23 1_555 1_555
C22 C24 1_555 1_555
C25 C26 1_555 1_555
C29 C30 1_555 1_555
O1_2 C1_2 1_555 1_555
C1_2 H1_2 1_555 1_555
H2_2 C1_2 1_555 1_555
C2_2 C1_2 1_555 1_555
H3_2 C2_2 1_555 1_555
H4_2 C2_2 1_555 1_555
C3_2 C2_2 1_555 1_555
H5_2 C3_2 1_555 1_555
H6_2 C3_2 1_555 1_555
C4_2 O1_2 1_555 1_555
H7_2 C4_2 1_555 1_555
H8_2 C4_2 1_555 1_555
O2_2 C5_2 1_555 1_555
C5_2 H9_2 1_555 1_555
H10_2 C5_2 1_555 1_555
C6 C5_2 1_555 1_555
H11 C6 1_555 1_555
H12 C6 1_555 1_555
C7_2 C6 1_555 1_555
H13_2 C7_2 1_555 1_555
H14_2 C7_2 1_555 1_555
C8_2 O2_2 1_555 1_555
H15_2 C8_2 1_555 1_555
H16_2 C8_2 1_555 1_555
C3_2 C4_2 1_555 1_555
C7_2 C8_2 1_555 1_555
N2_2 Na2 1_555 1_555
H26_2 C14_2 1_555 1_555
N8 C28_2 1_555 1_555
C15_2 C14_2 1_555 1_555
N4_2 C17_2 1_555 1_555
N5_2 C19_2 1_555 1_555
C17_2 C15_2 1_555 1_555
N6_2 C17_2 1_555 1_555
C19_2 N4_2 1_555 1_555
C20_2 N5_2 1_555 1_555
C21_2 C20_2 1_555 1_555
C22_2 H29_2 1_555 1_555
C23_2 C19_2 1_555 1_555
C24_2 N2_2 1_555 1_555
H30_2 C24_2 1_555 1_555
C25_2 N2_2 1_555 1_555
H31_2 C25_2 1_555 1_555
C26_2 C23_2 1_555 1_555
H32_2 C26_2 1_555 1_555
C27_2 C21_2 1_555 1_555
H33_2 C27_2 1_555 1_555
C28_2 C27_2 1_555 1_555
H34_2 C28_2 1_555 1_555
C29_2 N8 1_555 1_555
H35_2 C29_2 1_555 1_555
C30_2 C21_2 1_555 1_555
H36_2 C30_2 1_555 1_555
N7_2 Na2 1_555 1_555
O3_2 Na2 1_555 1_555
N6_2 C20_2 1_555 1_555
C22_2 C23_2 1_555 1_555
C22_2 C24_2 1_555 1_555
C25_2 C26_2 1_555 1_555
C29_2 C30_2 1_555 1_555
C13_2 H25_2 1_555 1_555
N1_2 C13_2 1_555 1_555
H27_2 C16_2 1_555 1_555
C18_2 N1_2 1_555 1_555
H28_2 C18_2 1_555 1_555
Na3_2 N1_2 1_555 1_555
C16_2 C18_2 1_555 1_555
N3_2 C28_3 1_555 1_555
C27_3 C21_3 1_555 1_555
H33_3 C27_3 1_555 1_555
C28_3 C27_3 1_555 1_555
H34_3 C28_3 1_555 1_555
C29_3 N3_2 1_555 1_555
H35_3 C29_3 1_555 1_555
C30_3 C21_3 1_555 1_555
H36_3 C30_3 1_555 1_555
Na3 N3_2 1_555 1_555
C29_3 C30_3 1_555 1_555
O3_3 C9 1_555 1_555
C10 C9 1_555 1_555
H19 C10 1_555 1_555
H20 C10 1_555 1_555
C11 C10 1_555 1_555
H21 C11 1_555 1_555
H22 C11 1_555 1_555
C12 O3_3 1_555 1_555
H23_3 C12 1_555 1_555
H24_3 C12 1_555 1_555
C13_3 H25_3 1_555 1_555
N7_2 C13_3 1_555 1_555
N2_3 Na3_2 1_555 1_555
C14_3 C13_3 1_555 1_555
H26_3 C14_3 1_555 1_555
C15_3 C14_3 1_555 1_555
N4_3 C17_3 1_555 1_555
C16_3 C15_3 1_555 1_555
H27_3 C16_3 1_555 1_555
N5_3 C19_3 1_555 1_555
C17_3 C15_3 1_555 1_555
N6_3 C17_3 1_555 1_555
C18_3 N7_2 1_555 1_555
H28_3 C18_3 1_555 1_555
C19_3 N4_3 1_555 1_555
C20_3 N5_3 1_555 1_555
C22_3 H29_3 1_555 1_555
C23_3 C19_3 1_555 1_555
C24_3 N2_3 1_555 1_555
H30_3 C24_3 1_555 1_555
C25_3 N2_3 1_555 1_555
H31_3 C25_3 1_555 1_555
C26_3 C23_3 1_555 1_555
H32_3 C26_3 1_555 1_555
O3_3 Na3_2 1_555 1_555
C11 C12 1_555 1_555
C16_3 C18_3 1_555 1_555
N6_3 C20_3 1_555 1_555
C22_3 C23_3 1_555 1_555
C22_3 C24_3 1_555 1_555
C25_3 C26_3 1_555 1_555
C13_4 H25_4 1_555 1_555
N7 C13_4 1_555 1_555
H27_4 C16_4 1_555 1_555
C18_4 N7 1_555 1_555
H28_4 C18_4 1_555 1_555
C16_4 C18_4 1_555 1_555
O1_3 C1_3 1_555 1_555
C1_3 H1_3 1_555 1_555
H2_3 C1_3 1_555 1_555
C2_3 C1_3 1_555 1_555
H3_3 C2_3 1_555 1_555
H4_3 C2_3 1_555 1_555
C3_3 C2_3 1_555 1_555
H5_3 C3_3 1_555 1_555
H6_3 C3_3 1_555 1_555
C4_3 O1_3 1_555 1_555
H7_3 C4_3 1_555 1_555
H8_3 C4_3 1_555 1_555
O2_3 C5_3 1_555 1_555
C5_3 H9_3 1_555 1_555
H10_3 C5_3 1_555 1_555
C6_2 C5_3 1_555 1_555
H11_2 C6_2 1_555 1_555
H12_2 C6_2 1_555 1_555
C7_3 C6_2 1_555 1_555
H13_3 C7_3 1_555 1_555
H14_3 C7_3 1_555 1_555
C8_3 O2_3 1_555 1_555
H15_3 C8_3 1_555 1_555
H16_3 C8_3 1_555 1_555
O3_4 C9_2 1_555 1_555
C9_2 H17 1_555 1_555
H18 C9_2 1_555 1_555
C10_2 C9_2 1_555 1_555
H19_2 C10_2 1_555 1_555
H20_2 C10_2 1_555 1_555
C11_2 C10_2 1_555 1_555
H21_2 C11_2 1_555 1_555
H22_2 C11_2 1_555 1_555
C12_2 O3_4 1_555 1_555
H23_4 C12_2 1_555 1_555
H24_4 C12_2 1_555 1_555
Na3 O1_3 1_555 1_555
N2_4 Na3 1_555 1_555
H26_4 C14_4 1_555 1_555
C15_4 C14_4 1_555 1_555
N4_4 C17_4 1_555 1_555
N5_4 C19_4 1_555 1_555
C17_4 C15_4 1_555 1_555
N6_4 C17_4 1_555 1_555
C19_4 N4_4 1_555 1_555
C20_4 N5_4 1_555 1_555
C22_4 H29_4 1_555 1_555
C23_4 C19_4 1_555 1_555
C24_4 N2_4 1_555 1_555
H30_4 C24_4 1_555 1_555
C25_4 N2_4 1_555 1_555
H31_4 C25_4 1_555 1_555
C26_4 C23_4 1_555 1_555
H32_4 C26_4 1_555 1_555
C3_3 C4_3 1_555 1_555
O2_3 Na3 1_555 1_555
C7_3 C8_3 1_555 1_555
O3_4 Na3 1_555 1_555
C11_2 C12_2 1_555 1_555
N6_4 C20_4 1_555 1_555
C22_4 C23_4 1_555 1_555
C22_4 C24_4 1_555 1_555
C25_4 C26_4 1_555 1_555
H11_3 C6_3 1_555 1_555
H12_3 C6_3 1_555 1_555
C9_3 H17_2 1_555 1_555
H18_2 C9_3 1_555 1_555
C10_3 C9_3 1_555 1_555
H19_3 C10_3 1_555 1_555
H20_3 C10_3 1_555 1_555
C11_3 C10_3 1_555 1_555
H21_3 C11_3 1_555 1_555
H22_3 C11_3 1_555 1_555
C11_3 C12_3 1_555 1_555
O3_5 C9_4 1_555 1_555
C10_4 C9_4 1_555 1_555
H19_4 C10_4 1_555 1_555
H20_4 C10_4 1_555 1_555
C11_4 C10_4 1_555 1_555
H21_4 C11_4 1_555 1_555
H22_4 C11_4 1_555 1_555
C12_4 O3_5 1_555 1_555
H23_5 C12_4 1_555 1_555
H24_5 C12_4 1_555 1_555
C13_5 H25_5 1_555 1_555
N1_3 C13_5 1_555 1_555
N2_5 Na1_2 1_555 1_555
C14_5 C13_5 1_555 1_555
H26_5 C14_5 1_555 1_555
C15_5 C14_5 1_555 1_555
N4_5 C17_5 1_555 1_555
C16_5 C15_5 1_555 1_555
H27_5 C16_5 1_555 1_555
N5_5 C19_5 1_555 1_555
C17_5 C15_5 1_555 1_555
N6_5 C17_5 1_555 1_555
C18_5 N1_3 1_555 1_555
H28_5 C18_5 1_555 1_555
C19_5 N4_5 1_555 1_555
C20_5 N5_5 1_555 1_555
C22_5 H29_5 1_555 1_555
C23_5 C19_5 1_555 1_555
C24_5 N2_5 1_555 1_555
H30_5 C24_5 1_555 1_555
C25_5 N2_5 1_555 1_555
H31_5 C25_5 1_555 1_555
C26_5 C23_5 1_555 1_555
H32_5 C26_5 1_555 1_555
Na3_3 N1_3 1_555 1_555
N7_3 Na1_2 1_555 1_555
O3_5 Na1_2 1_555 1_555
C11_4 C12_4 1_555 1_555
C16_5 C18_5 1_555 1_555
N6_5 C20_5 1_555 1_555
C22_5 C23_5 1_555 1_555
C22_5 C24_5 1_555 1_555
C25_5 C26_5 1_555 1_555
N3_3 C28_4 1_555 1_555
C27_4 C21_4 1_555 1_555
H33_4 C27_4 1_555 1_555
C28_4 C27_4 1_555 1_555
H34_4 C28_4 1_555 1_555
C29_4 N3_3 1_555 1_555
H35_4 C29_4 1_555 1_555
C30_4 C21_4 1_555 1_555
H36_4 C30_4 1_555 1_555
Na2_2 N3_3 1_555 1_555
C29_4 C30_4 1_555 1_555
O1_4 C1_4 1_555 1_555
C1_4 H1_4 1_555 1_555
H2_4 C1_4 1_555 1_555
C2_4 C1_4 1_555 1_555
H3_4 C2_4 1_555 1_555
H4_4 C2_4 1_555 1_555
C3_4 C2_4 1_555 1_555
H5_4 C3_4 1_555 1_555
H6_4 C3_4 1_555 1_555
C4_4 O1_4 1_555 1_555
H7_4 C4_4 1_555 1_555
H8_4 C4_4 1_555 1_555
O2_4 C5_4 1_555 1_555
C5_4 H9_4 1_555 1_555
H10_4 C5_4 1_555 1_555
C6_4 C5_4 1_555 1_555
H11_4 C6_4 1_555 1_555
H12_4 C6_4 1_555 1_555
C7_4 C6_4 1_555 1_555
H13_4 C7_4 1_555 1_555
H14_4 C7_4 1_555 1_555
C8_4 O2_4 1_555 1_555
H15_4 C8_4 1_555 1_555
H16_4 C8_4 1_555 1_555
O3_6 C9_5 1_555 1_555
C9_5 H17_3 1_555 1_555
H18_3 C9_5 1_555 1_555
C10_5 C9_5 1_555 1_555
H19_5 C10_5 1_555 1_555
H20_5 C10_5 1_555 1_555
C11_5 C10_5 1_555 1_555
H21_5 C11_5 1_555 1_555
H22_5 C11_5 1_555 1_555
C12_5 O3_6 1_555 1_555
H23_6 C12_5 1_555 1_555
H24_6 C12_5 1_555 1_555
Na2_2 O1_4 1_555 1_555
N2_6 Na2_2 1_555 1_555
H26_6 C14_6 1_555 1_555
C15_6 C14_6 1_555 1_555
N4_6 C17_6 1_555 1_555
N5_6 C19_6 1_555 1_555
C17_6 C15_6 1_555 1_555
N6_6 C17_6 1_555 1_555
C19_6 N4_6 1_555 1_555
C20_6 N5_6 1_555 1_555
C22_6 H29_6 1_555 1_555
C23_6 C19_6 1_555 1_555
C24_6 N2_6 1_555 1_555
H30_6 C24_6 1_555 1_555
C25_6 N2_6 1_555 1_555
H31_6 C25_6 1_555 1_555
C26_6 C23_6 1_555 1_555
H32_6 C26_6 1_555 1_555
N7_4 Na2_2 1_555 1_555
C3_4 C4_4 1_555 1_555
O2_4 Na2_2 1_555 1_555
C7_4 C8_4 1_555 1_555
O3_6 Na2_2 1_555 1_555
C11_5 C12_5 1_555 1_555
N6_6 C20_6 1_555 1_555
C22_6 C23_6 1_555 1_555
C22_6 C24_6 1_555 1_555
C25_6 C26_6 1_555 1_555
C13_6 H25_6 1_555 1_555
N1_4 C13_6 1_555 1_555
H27_6 C16_6 1_555 1_555
C18_6 N1_4 1_555 1_555
H28_6 C18_6 1_555 1_555
Na3_4 N1_4 1_555 1_555
C16_6 C18_6 1_555 1_555
O1_5 C1_5 1_555 1_555
C1_5 H1_5 1_555 1_555
H2_5 C1_5 1_555 1_555
C2_5 C1_5 1_555 1_555
H3_5 C2_5 1_555 1_555
H4_5 C2_5 1_555 1_555
C3_5 C2_5 1_555 1_555
H5_5 C3_5 1_555 1_555
H6_5 C3_5 1_555 1_555
C4_5 O1_5 1_555 1_555
H7_5 C4_5 1_555 1_555
H8_5 C4_5 1_555 1_555
O2_5 C5_5 1_555 1_555
C5_5 H9_5 1_555 1_555
H10_5 C5_5 1_555 1_555
H13_5 C7_5 1_555 1_555
H14_5 C7_5 1_555 1_555
C8_5 O2_5 1_555 1_555
H15_5 C8_5 1_555 1_555
H16_5 C8_5 1_555 1_555
Na3_4 O1_5 1_555 1_555
C13_7 H25_7 1_555 1_555
N7_4 C13_7 1_555 1_555
N2_7 Na3_4 1_555 1_555
C14_7 C13_7 1_555 1_555
H26_7 C14_7 1_555 1_555
N3_4 C28_5 1_555 1_555
C15_7 C14_7 1_555 1_555
N4_7 C17_7 1_555 1_555
C16_7 C15_7 1_555 1_555
H27_7 C16_7 1_555 1_555
N5_7 C19_7 1_555 1_555
C17_7 C15_7 1_555 1_555
N6_7 C17_7 1_555 1_555
C18_7 N7_4 1_555 1_555
H28_7 C18_7 1_555 1_555
C19_7 N4_7 1_555 1_555
C20_7 N5_7 1_555 1_555
C21_5 C20_7 1_555 1_555
C22_7 H29_7 1_555 1_555
C23_7 C19_7 1_555 1_555
C24_7 N2_7 1_555 1_555
H30_7 C24_7 1_555 1_555
C25_7 N2_7 1_555 1_555
H31_7 C25_7 1_555 1_555
C26_7 C23_7 1_555 1_555
H32_7 C26_7 1_555 1_555
C27_5 C21_5 1_555 1_555
H33_5 C27_5 1_555 1_555
C28_5 C27_5 1_555 1_555
H34_5 C28_5 1_555 1_555
C29_5 N3_4 1_555 1_555
H35_5 C29_5 1_555 1_555
C30_5 C21_5 1_555 1_555
H36_5 C30_5 1_555 1_555
N8_2 Na3_4 1_555 1_555
C3_5 C4_5 1_555 1_555
O2_5 Na3_4 1_555 1_555
C7_5 C8_5 1_555 1_555
O3_7 Na3_4 1_555 1_555
C16_7 C18_7 1_555 1_555
N6_7 C20_7 1_555 1_555
C22_7 C23_7 1_555 1_555
C22_7 C24_7 1_555 1_555
C25_7 C26_7 1_555 1_555
C29_5 C30_5 1_555 1_555
C13_8 H25_8 1_555 1_555
N7_3 C13_8 1_555 1_555
H27_8 C16_8 1_555 1_555
C18_8 N7_3 1_555 1_555
H28_8 C18_8 1_555 1_555
C16_8 C18_8 1_555 1_555
N2_8 Na3_3 1_555 1_555
H26_8 C14_8 1_555 1_555
N8_2 C28_6 1_555 1_555
C15_8 C14_8 1_555 1_555
N4_8 C17_8 1_555 1_555
N5_8 C19_8 1_555 1_555
C17_8 C15_8 1_555 1_555
N6_8 C17_8 1_555 1_555
C19_8 N4_8 1_555 1_555
C20_8 N5_8 1_555 1_555
C21_6 C20_8 1_555 1_555
C22_8 H29_8 1_555 1_555
C23_8 C19_8 1_555 1_555
C24_8 N2_8 1_555 1_555
H30_8 C24_8 1_555 1_555
C25_8 N2_8 1_555 1_555
H31_8 C25_8 1_555 1_555
C26_8 C23_8 1_555 1_555
H32_8 C26_8 1_555 1_555
C27_6 C21_6 1_555 1_555
H33_6 C27_6 1_555 1_555
C28_6 C27_6 1_555 1_555
H34_6 C28_6 1_555 1_555
C29_6 N8_2 1_555 1_555
H35_6 C29_6 1_555 1_555
C30_6 C21_6 1_555 1_555
H36_6 C30_6 1_555 1_555
O3_8 Na3_3 1_555 1_555
N6_8 C20_8 1_555 1_555
C22_8 C23_8 1_555 1_555
C22_8 C24_8 1_555 1_555
C25_8 C26_8 1_555 1_555
C29_6 C30_6 1_555 1_555
O1_6 C1_6 1_555 1_555
C1_6 H1_6 1_555 1_555
H2_6 C1_6 1_555 1_555
C2_6 C1_6 1_555 1_555
H3_6 C2_6 1_555 1_555
H4_6 C2_6 1_555 1_555
C3_6 C2_6 1_555 1_555
H5_6 C3_6 1_555 1_555
H6_6 C3_6 1_555 1_555
C4_6 O1_6 1_555 1_555
H7_6 C4_6 1_555 1_555
H8_6 C4_6 1_555 1_555
O2_6 C5_6 1_555 1_555
C5_6 H9_6 1_555 1_555
H10_6 C5_6 1_555 1_555
C6_5 C5_6 1_555 1_555
H11_5 C6_5 1_555 1_555
H12_5 C6_5 1_555 1_555
C7_6 C6_5 1_555 1_555
H13_6 C7_6 1_555 1_555
H14_6 C7_6 1_555 1_555
C8_6 O2_6 1_555 1_555
H15_6 C8_6 1_555 1_555
H16_6 C8_6 1_555 1_555
C3_6 C4_6 1_555 1_555
C7_6 C8_6 1_555 1_555
O1_7 C1_7 1_555 1_555
C1_7 H1_7 1_555 1_555
H2_7 C1_7 1_555 1_555
C2_7 C1_7 1_555 1_555
H3_7 C2_7 1_555 1_555
H4_7 C2_7 1_555 1_555
C3_7 C2_7 1_555 1_555
H5_7 C3_7 1_555 1_555
H6_7 C3_7 1_555 1_555
C4_7 O1_7 1_555 1_555
H7_7 C4_7 1_555 1_555
H8_7 C4_7 1_555 1_555
O2_7 C5_7 1_555 1_555
C5_7 H9_7 1_555 1_555
H10_7 C5_7 1_555 1_555
H13_7 C7_7 1_555 1_555
H14_7 C7_7 1_555 1_555
C8_7 O2_7 1_555 1_555
H15_7 C8_7 1_555 1_555
H16_7 C8_7 1_555 1_555
C3_7 C4_7 1_555 1_555
C7_7 C8_7 1_555 1_555
N8_3 C28_7 1_555 1_555
C27_7 C21_7 1_555 1_555
H33_7 C27_7 1_555 1_555
C28_7 C27_7 1_555 1_555
H34_7 C28_7 1_555 1_555
C29_7 N8_3 1_555 1_555
H35_7 C29_7 1_555 1_555
C30_7 C21_7 1_555 1_555
H36_7 C30_7 1_555 1_555
C29_7 C30_7 1_555 1_555
H11_6 C6_6 1_555 1_555
H12_6 C6_6 1_555 1_555
C10_6 C9_6 1_555 1_555
H19_6 C10_6 1_555 1_555
H20_6 C10_6 1_555 1_555
C11_6 C10_6 1_555 1_555
H21_6 C11_6 1_555 1_555
H22_6 C11_6 1_555 1_555
C11_6 C12_6 1_555 1_555
C9_7 H17_6 1_555 1_555
H18_6 C9_7 1_555 1_555
C10_7 C9_7 1_555 1_555
H19_7 C10_7 1_555 1_555
H20_7 C10_7 1_555 1_555
C11_7 C10_7 1_555 1_555
H21_7 C11_7 1_555 1_555
H22_7 C11_7 1_555 1_555
C11_7 C12_7 1_555 1_555
H11_7 C6_7 1_555 1_555
H12_7 C6_7 1_555 1_555
H11_8 C6_8 1_555 1_555
H12_8 C6_8 1_555 1_555
O1_8 C1_8 1_555 1_555
C1_8 H1_8 1_555 1_555
H2_8 C1_8 1_555 1_555
C2_8 C1_8 1_555 1_555
H3_8 C2_8 1_555 1_555
H4_8 C2_8 1_555 1_555
C3_8 C2_8 1_555 1_555
H5_8 C3_8 1_555 1_555
H6_8 C3_8 1_555 1_555
C4_8 O1_8 1_555 1_555
H7_8 C4_8 1_555 1_555
H8_8 C4_8 1_555 1_555
O2_8 C5_8 1_555 1_555
C5_8 H9_8 1_555 1_555
H10_8 C5_8 1_555 1_555
H13_8 C7_8 1_555 1_555
H14_8 C7_8 1_555 1_555
C8_8 O2_8 1_555 1_555
H15_8 C8_8 1_555 1_555
H16_8 C8_8 1_555 1_555
C3_8 C4_8 1_555 1_555
C7_8 C8_8 1_555 1_555
N8_4 C28_8 1_555 1_555
C27_8 C21_8 1_555 1_555
H33_8 C27_8 1_555 1_555
C28_8 C27_8 1_555 1_555
H34_8 C28_8 1_555 1_555
C29_8 N8_4 1_555 1_555
H35_8 C29_8 1_555 1_555
C30_8 C21_8 1_555 1_555
H36_8 C30_8 1_555 1_555
C29_8 C30_8 1_555 1_555
C10_8 C9_8 1_555 1_555
H19_8 C10_8 1_555 1_555
H20_8 C10_8 1_555 1_555
C11_8 C10_8 1_555 1_555
H21_8 C11_8 1_555 1_555
H22_8 C11_8 1_555 1_555
C11_8 C12_8 1_555 1_555

#END
