
###############################################################################
#
# This file contains modified crystal structure data generated from the
# MOF subset of the Cambridge Structural Database (CSD) v543 
# hosted by the Cambridge Crystallographic Data Centre (CCDC).
#
# This work is licensed under the Creative Commons
# Attribution-NonCommercial-ShareAlike 4.0 International License.
# To view a copy of this license, visit
# http://creativecommons.org/licenses/by-nc-sa/4.0/
# or send a letter to
# Creative Commons, PO Box 1866, Mountain View, CA 94042, USA.
#
# CIF created using the CSD Python API on 29 September 2022
# The structure has been converted into the P1 space group
# The structure has a 3D framework
# The original CSD entry TOXHAR is in the monoclinic crystal system
# The framework has been calculated to contain at least 10.0% void space
# The void calculation uses a probe of radius 1.32A, grid spacing 0.4
#
###############################################################################

data_TOXHAR
_chemical_formula_moiety         '(C132 H108 O34 Zn2)n'
_symmetry_cell_setting           triclinic
_symmetry_space_group_name_H-M   'P 1'
_symmetry_Int_Tables_number      1
_space_group_name_Hall           'P 1'
loop_
_symmetry_equiv_pos_site_id
_symmetry_equiv_pos_as_xyz
1 x,y,z
_cell_length_a                   21.4721(11)
_cell_length_b                   23.1401(11)
_cell_length_c                   7.5883(4)
_cell_angle_alpha                90
_cell_angle_beta                 104.011(5)
_cell_angle_gamma                90
_cell_volume                     3658.2
loop_
_atom_site_label
_atom_site_type_symbol
_atom_site_fract_x
_atom_site_fract_y
_atom_site_fract_z
O1 O 0.4123(2) 0.0089(3) 0.6397(9)
C1 C 0.3648(4) 0.0362(4) 0.5554(10)
O2 O 0.3656(2) 0.0690(3) 0.4244(7)
C2 C 0.3026(3) 0.0300(4) 0.6135(10)
H2 H 0.3088 0.0416 0.7393
O3 O 0.2555(2) 0.0650(3) 0.5015(8)
C3 C 0.1957(4) 0.0662(4) 0.5376(11)
C4 C 0.1759(4) 0.0341(4) 0.6665(12)
H3 H 0.2038 0.0077 0.7371
C5 C 0.0725(3) 0.0795(3) 0.5933(10)
C6 C 0.1146(4) 0.0411(4) 0.6916(12)
H4 H 0.1020 0.0187 0.7786
C7 C 0.1532(4) 0.1049(5) 0.4342(14)
H5 H 0.1658 0.1273 0.3470
C8 C 0.0925(4) 0.1105(4) 0.4599(11)
H6 H 0.0638 0.1357 0.3861
C15 C 0.0658(4) 0.1544(5) 0.8929(14)
H8 H 0.0945 0.1678 0.8224
H9 H 0.0864 0.1245 0.9743
H10 H 0.0547 0.1859 0.9616
C16 C 0.0054(3) 0.1305(3) 0.7670(11)
C33 C 0.0087(4) 0.0929(3) 0.6293(10)
Zn3 Zn 0.43495(4) 0.05810(3) 0.29842(8)
H1 H 0.2888 0.0101 0.1030
O11 O 0.4308(3) 0.1245(3) 0.1293(8)
O12 O 0.5240(3) 0.0661(3) 0.4347(10)
H16 H 0.9520 0.0123 0.9175
C27 C 0.6203(4) 0.0248(5) 0.5964(12)
H23 H 0.6219 0.0387 0.7180
H24 H 0.6436 0.0516 0.5378
C28 C 0.5491(4) 0.0187(5) 0.4841(14)
C29 C 0.7447(4) 0.0011(4) 0.8237(11)
H25 H 0.7280 0.0378 0.8325
O6 O 0.3304(4) 0.0988(4) 0.0023(10)
C22 C 0.3786(5) 0.1267(5) 0.0059(12)
Zn1 Zn 0.43495(4) 0.94190(3) 0.79842(8)
H1_2 H 0.2888 0.9899 0.6030
O10 O 0.3656(2) 0.9310(3) 0.9244(7)
O11_2 O 0.4308(3) 0.8755(3) 0.6293(8)
O12_2 O 0.5240(3) 0.9339(3) 0.9347(10)
C28_2 C 0.5491(4) 0.9813(5) 0.9841(14)
C7_2 C 0.1532(4) 0.8951(5) 0.9342(14)
H5_2 H 0.1658 0.8727 0.8470
C8_2 C 0.0925(4) 0.8895(4) 0.9599(11)
H6_2 H 0.0638 0.8643 0.8861
O5 O 0.4293(3) 0.7990(3) 0.3671(9)
O6_2 O 0.3304(4) 0.9012(4) 0.5023(10)
C11 C 0.4309(4) 0.7629(4) 0.2230(12)
C14 C 0.4388(5) 0.7045(4) 0.2589(12)
H7 H 0.4411 0.6900 0.3746
C19 C 0.4431(4) 0.6686(4) 0.1181(11)
H17 H 0.4476 0.6292 0.1413
C22_2 C 0.3786(5) 0.8733(5) 0.5059(12)
C23 C 0.3773(7) 0.8334(8) 0.3473(17)
H18 H 0.3393 0.8092 0.3290
H19 H 0.3734 0.8566 0.2388
C25 C 0.4285(6) 0.7845(4) 0.0512(13)
H21 H 0.4236 0.8239 0.0275
O4 O 0.9308(3) 0.3755(3) 0.6293(8)
O5_2 O 0.9293(3) 0.2990(3) 0.3671(9)
O6_3 O 0.8304(4) 0.4012(4) 0.5023(10)
C11_2 C 0.9309(4) 0.2629(4) 0.2230(12)
C14_2 C 0.9388(5) 0.2045(4) 0.2589(12)
H7_2 H 0.9411 0.1900 0.3746
C19_2 C 0.9431(4) 0.1686(4) 0.1181(11)
H17_2 H 0.9476 0.1292 0.1413
C22_3 C 0.8786(5) 0.3733(5) 0.5059(12)
C23_2 C 0.8773(7) 0.3334(8) 0.3473(17)
H18_2 H 0.8393 0.3092 0.3290
H19_2 H 0.8734 0.3566 0.2388
C25_2 C 0.9285(6) 0.2845(4) 0.0512(13)
H21_2 H 0.9236 0.3239 0.0275
Zn4 Zn 0.93495(4) 0.44190(3) 0.79842(8)
O4_2 O 0.9308(3) 0.6245(3) 0.1293(8)
O6_4 O 0.8304(4) 0.5988(4) 0.0023(10)
C22_4 C 0.8786(5) 0.6267(5) 0.0059(12)
Zn4_2 Zn 0.93495(4) 0.55810(3) 0.29842(8)
O1_2 O 0.9123(2) 0.5089(3) 0.6397(9)
C1_2 C 0.8648(4) 0.5362(4) 0.5554(10)
O2_2 O 0.8656(2) 0.5690(3) 0.4244(7)
C2_2 C 0.8026(3) 0.5300(4) 0.6135(10)
H1_3 H 0.7888 0.4899 0.6030
H2_2 H 0.8088 0.5416 0.7393
O3_2 O 0.7555(2) 0.5650(3) 0.5015(8)
C3_2 C 0.6957(4) 0.5662(4) 0.5376(11)
C4_2 C 0.6759(4) 0.5341(4) 0.6665(12)
H3_2 H 0.7038 0.5077 0.7371
C5_2 C 0.5725(3) 0.5795(3) 0.5933(10)
C6_2 C 0.6146(4) 0.5411(4) 0.6916(12)
H4_2 H 0.6020 0.5187 0.7786
C7_3 C 0.6532(4) 0.6049(5) 0.4342(14)
H5_3 H 0.6658 0.6273 0.3470
C8_3 C 0.5925(4) 0.6105(4) 0.4599(11)
H6_3 H 0.5638 0.6357 0.3861
C9 C 0.3929(3) 0.5867(3) 0.5426(10)
C10 C 0.4520(3) 0.5691(3) 0.5168(10)
C12 C 0.4455(3) 0.6465(3) 0.7968(12)
C13 C 0.3893(4) 0.6242(3) 0.6822(10)
C15_2 C 0.5658(4) 0.6544(5) 0.8929(14)
H8_2 H 0.5945 0.6678 0.8224
H9_2 H 0.5864 0.6245 0.9743
H10_2 H 0.5547 0.6859 0.9616
C16_2 C 0.5054(3) 0.6305(3) 0.7670(11)
C17 C 0.3245(4) 0.6405(5) 0.7194(14)
H11 H 0.3298 0.6471 0.8471
H12 H 0.2944 0.6096 0.6809
H13 H 0.3086 0.6750 0.6536
C18 C 0.4561(4) 0.5260(4) 0.3732(11)
H14 H 0.4968 0.5297 0.3430
H15 H 0.4222 0.5330 0.2670
H16_2 H 0.4520 0.4877 0.4175
C20 C 0.4413(4) 0.6875(4) 0.9451(10)
C21 C 0.3308(3) 0.5675(3) 0.4171(10)
C24 C 0.4336(5) 0.7458(4) 0.9146(12)
H20 H 0.4318 0.7600 0.7988
C26 C 0.3043(3) 0.5136(4) 0.4273(10)
H22 H 0.3276 0.4864 0.5069
C27_2 C 0.1203(4) 0.4752(5) 0.0964(12)
H23_2 H 0.1219 0.4613 0.2180
H24_2 H 0.1436 0.4484 0.0378
C29_2 C 0.2447(4) 0.4989(4) 0.3237(11)
H25_2 H 0.2280 0.4622 0.3325
C30 C 0.2098(3) 0.5392(4) 0.2064(10)
C31 C 0.2356(4) 0.5923(4) 0.1873(13)
H26 H 0.2127 0.6191 0.1057
C32 C 0.2960(4) 0.6052(4) 0.2910(12)
H27 H 0.3139 0.6408 0.2751
C33_2 C 0.5087(4) 0.5929(3) 0.6293(10)
O9 O 0.1476(3) 0.5322(3) 0.1029(8)
O10_2 O 0.8656(2) 0.4310(3) 0.9244(7)
O12_3 O 0.0240(3) 0.5661(3) 0.4347(10)
O1_3 O 0.9123(2) 0.4911(3) 0.1397(9)
C1_3 C 0.8648(4) 0.4638(4) 0.0554(10)
C2_3 C 0.8026(3) 0.4700(4) 0.1135(10)
H1_4 H 0.7888 0.5101 0.1030
H2_3 H 0.8088 0.4584 0.2393
O3_3 O 0.7555(2) 0.4350(3) 0.0015(8)
C3_3 C 0.6957(4) 0.4338(4) 0.0376(11)
C4_3 C 0.6759(4) 0.4659(4) 0.1665(12)
H3_3 H 0.7038 0.4923 0.2371
O5_3 O 0.4293(3) 0.2010(3) 0.8671(9)
C5_3 C 0.5725(3) 0.4205(3) 0.0933(10)
C6_3 C 0.6146(4) 0.4589(4) 0.1916(12)
H4_3 H 0.6020 0.4813 0.2786
C9_2 C 0.3929(3) 0.4133(3) 0.0426(10)
C10_2 C 0.4520(3) 0.4309(3) 0.0168(10)
C11_3 C 0.4309(4) 0.2371(4) 0.7230(12)
C12_2 C 0.4455(3) 0.3535(3) 0.2968(12)
C13_2 C 0.3893(4) 0.3758(3) 0.1822(10)
C14_3 C 0.4388(5) 0.2955(4) 0.7589(12)
H7_3 H 0.4411 0.3100 0.8746
C15_3 C 0.5658(4) 0.3456(5) 0.3929(14)
H8_3 H 0.5945 0.3322 0.3224
H9_3 H 0.5864 0.3755 0.4743
H10_3 H 0.5547 0.3141 0.4616
C16_3 C 0.5054(3) 0.3695(3) 0.2670(11)
C17_2 C 0.3245(4) 0.3595(5) 0.2194(14)
H11_2 H 0.3298 0.3529 0.3471
H12_2 H 0.2944 0.3904 0.1809
H13_2 H 0.3086 0.3250 0.1536
C19_3 C 0.4431(4) 0.3314(4) 0.6181(11)
H17_3 H 0.4476 0.3708 0.6413
C20_2 C 0.4413(4) 0.3125(4) 0.4451(10)
C23_3 C 0.3773(7) 0.1666(8) 0.8473(17)
H18_3 H 0.3393 0.1908 0.8290
H19_3 H 0.3734 0.1434 0.7388
C24_2 C 0.4336(5) 0.2542(4) 0.4146(12)
H20_2 H 0.4318 0.2400 0.2988
C25_3 C 0.4285(6) 0.2155(4) 0.5512(13)
H21_3 H 0.4236 0.1761 0.5275
H22_2 H 0.3276 0.5136 0.0069
C33_3 C 0.5087(4) 0.4071(3) 0.1293(10)
C7_4 C 0.6532(4) 0.3951(5) 0.9342(14)
H5_4 H 0.6658 0.3727 0.8470
O7 O 0.0246(4) 0.4713(4) 0.4610(13)
C8_4 C 0.5925(4) 0.3895(4) 0.9599(11)
H6_4 H 0.5638 0.3643 0.8861
C18_2 C 0.4561(4) 0.4740(4) 0.8732(11)
H14_2 H 0.4968 0.4703 0.8430
H15_2 H 0.4222 0.4670 0.7670
H16_3 H 0.4520 0.5123 0.9175
C21_2 C 0.3308(3) 0.4325(3) 0.9171(10)
C26_2 C 0.3043(3) 0.4864(4) 0.9273(10)
C27_3 C 0.1203(4) 0.5248(5) 0.5964(12)
H23_3 H 0.1219 0.5387 0.7180
H24_3 H 0.1436 0.5516 0.5378
C28_3 C 0.0491(4) 0.5187(5) 0.4841(14)
C29_3 C 0.2447(4) 0.5011(4) 0.8237(11)
H25_3 H 0.2280 0.5378 0.8325
C30_2 C 0.2098(3) 0.4608(4) 0.7064(10)
C31_2 C 0.2356(4) 0.4077(4) 0.6873(13)
H26_2 H 0.2127 0.3809 0.6057
C32_2 C 0.2960(4) 0.3948(4) 0.7910(12)
H27_2 H 0.3139 0.3592 0.7751
O9_2 O 0.1476(3) 0.4678(3) 0.6029(8)
C9_3 C 0.8929(3) 0.0867(3) 0.5426(10)
C10_3 C 0.9520(3) 0.0691(3) 0.5168(10)
C12_3 C 0.9455(3) 0.1465(3) 0.7968(12)
C13_3 C 0.8893(4) 0.1242(3) 0.6822(10)
C17_3 C 0.8245(4) 0.1405(5) 0.7194(14)
H11_3 H 0.8298 0.1471 0.8471
H12_3 H 0.7944 0.1096 0.6809
H13_3 H 0.8086 0.1750 0.6536
C18_3 C 0.9561(4) 0.0260(4) 0.3732(11)
H14_3 H 0.9968 0.0297 0.3430
H15_3 H 0.9222 0.0330 0.2670
C20_3 C 0.9413(4) 0.1875(4) 0.9451(10)
C21_3 C 0.8308(3) 0.0675(3) 0.4171(10)
C24_3 C 0.9336(5) 0.2458(4) 0.9146(12)
H20_3 H 0.9318 0.2600 0.7988
C26_3 C 0.8043(3) 0.0136(4) 0.4273(10)
C30_3 C 0.7098(3) 0.0392(4) 0.2064(10)
C31_3 C 0.7356(4) 0.0923(4) 0.1873(13)
H26_3 H 0.7127 0.1191 0.1057
C32_3 C 0.7960(4) 0.1052(4) 0.2910(12)
H27_3 H 0.8139 0.1408 0.2751
O9_3 O 0.6476(3) 0.0322(3) 0.1029(8)
O7_2 O 0.5246(4) 0.0287(4) 0.9610(13)
H16_4 H 0.9520 0.9877 0.4175
H22_3 H 0.8276 0.9864 0.5069
C27_4 C 0.6203(4) 0.9752(5) 0.0964(12)
H23_4 H 0.6219 0.9613 0.2180
H24_4 H 0.6436 0.9484 0.0378
C29_4 C 0.7447(4) 0.9989(4) 0.3237(11)
H25_4 H 0.7280 0.9622 0.3325
O1_4 O 0.4123(2) 0.9911(3) 0.1397(9)
C1_4 C 0.3648(4) 0.9638(4) 0.0554(10)
C2_4 C 0.3026(3) 0.9700(4) 0.1135(10)
H2_4 H 0.3088 0.9584 0.2393
O3_4 O 0.2555(2) 0.9350(3) 0.0015(8)
C3_4 C 0.1957(4) 0.9338(4) 0.0376(11)
C4_4 C 0.1759(4) 0.9659(4) 0.1665(12)
H3_4 H 0.2038 0.9923 0.2371
C5_4 C 0.0725(3) 0.9205(3) 0.0933(10)
C6_4 C 0.1146(4) 0.9589(4) 0.1916(12)
H4_4 H 0.1020 0.9813 0.2786
C15_4 C 0.0658(4) 0.8456(5) 0.3929(14)
H8_4 H 0.0945 0.8322 0.3224
H9_4 H 0.0864 0.8755 0.4743
H10_4 H 0.0547 0.8141 0.4616
C16_4 C 0.0054(3) 0.8695(3) 0.2670(11)
C33_4 C 0.0087(4) 0.9071(3) 0.1293(10)
H22_4 H 0.8276 0.0136 0.0069
O5_4 O 0.9293(3) 0.7010(3) 0.8671(9)
C9_4 C 0.8929(3) 0.9133(3) 0.0426(10)
C10_4 C 0.9520(3) 0.9309(3) 0.0168(10)
C11_4 C 0.9309(4) 0.7371(4) 0.7230(12)
C12_4 C 0.9455(3) 0.8535(3) 0.2968(12)
C13_4 C 0.8893(4) 0.8758(3) 0.1822(10)
C14_4 C 0.9388(5) 0.7955(4) 0.7589(12)
H7_4 H 0.9411 0.8100 0.8746
C17_4 C 0.8245(4) 0.8595(5) 0.2194(14)
H11_4 H 0.8298 0.8529 0.3471
H12_4 H 0.7944 0.8904 0.1809
H13_4 H 0.8086 0.8250 0.1536
C19_4 C 0.9431(4) 0.8314(4) 0.6181(11)
H17_4 H 0.9476 0.8708 0.6413
C20_4 C 0.9413(4) 0.8125(4) 0.4451(10)
C23_4 C 0.8773(7) 0.6666(8) 0.8473(17)
H18_4 H 0.8393 0.6908 0.8290
H19_4 H 0.8734 0.6434 0.7388
C24_4 C 0.9336(5) 0.7542(4) 0.4146(12)
H20_4 H 0.9318 0.7400 0.2988
C25_4 C 0.9285(6) 0.7155(4) 0.5512(13)
H21_4 H 0.9236 0.6761 0.5275
O7_3 O 0.5246(4) 0.9713(4) 0.4610(13)
C18_4 C 0.9561(4) 0.9740(4) 0.8732(11)
H14_4 H 0.9968 0.9703 0.8430
H15_4 H 0.9222 0.9670 0.7670
C21_4 C 0.8308(3) 0.9325(3) 0.9171(10)
C26_4 C 0.8043(3) 0.9864(4) 0.9273(10)
C30_4 C 0.7098(3) 0.9608(4) 0.7064(10)
C31_4 C 0.7356(4) 0.9077(4) 0.6873(13)
H26_4 H 0.7127 0.8809 0.6057
C32_4 C 0.7960(4) 0.8948(4) 0.7910(12)
H27_4 H 0.8139 0.8592 0.7751
O9_4 O 0.6476(3) 0.9678(3) 0.6029(8)
O12_4 O 0.0240(3) 0.4339(3) 0.9347(10)
O7_4 O 0.0246(4) 0.5287(4) 0.9610(13)
C28_4 C 0.0491(4) 0.4813(5) 0.9841(14)
loop_
_geom_bond_atom_site_label_1
_geom_bond_atom_site_label_2
_geom_bond_site_symmetry_1
_geom_bond_site_symmetry_2
O1 C1 1_555 1_555
C1 O2 1_555 1_555
O2 Zn3 1_555 1_555
C2 C1 1_555 1_555
H2 C2 1_555 1_555
O3 C2 1_555 1_555
C3 O3 1_555 1_555
C4 C3 1_555 1_555
H3 C4 1_555 1_555
C5 C6 1_555 1_555
C6 C4 1_555 1_555
H4 C6 1_555 1_555
C7 C3 1_555 1_555
H5 C7 1_555 1_555
C8 C5 1_555 1_555
H6 C8 1_555 1_555
C15 H8 1_555 1_555
H9 C15 1_555 1_555
H10 C15 1_555 1_555
C33 C5 1_555 1_555
C7 C8 1_555 1_555
C15 C16 1_555 1_555
C16 C33 1_555 1_555
O11 Zn3 1_555 1_555
O12 Zn3 1_555 1_555
O12 C28 1_555 1_555
C27 H23 1_555 1_555
H24 C27 1_555 1_555
C28 C27 1_555 1_555
H25 C29 1_555 1_555
O11 C22 1_555 1_555
O6 C22 1_555 1_555
O10 Zn1 1_555 1_555
O11_2 Zn1 1_555 1_555
O12_2 Zn1 1_555 1_555
O12_2 C28_2 1_555 1_555
H5_2 C7_2 1_555 1_555
H6_2 C8_2 1_555 1_555
C7_2 C8_2 1_555 1_555
O11_2 C22_2 1_555 1_555
O5 C11 1_555 1_555
O6_2 C22_2 1_555 1_555
C11 C14 1_555 1_555
C14 H7 1_555 1_555
C19 C14 1_555 1_555
H17 C19 1_555 1_555
C22_2 C23 1_555 1_555
C23 O5 1_555 1_555
H18 C23 1_555 1_555
H19 C23 1_555 1_555
C25 C11 1_555 1_555
H21 C25 1_555 1_555
O4 C22_3 1_555 1_555
O5_2 C11_2 1_555 1_555
O6_3 C22_3 1_555 1_555
C11_2 C14_2 1_555 1_555
C14_2 H7_2 1_555 1_555
C19_2 C14_2 1_555 1_555
H17_2 C19_2 1_555 1_555
C22_3 C23_2 1_555 1_555
C23_2 O5_2 1_555 1_555
H18_2 C23_2 1_555 1_555
H19_2 C23_2 1_555 1_555
C25_2 C11_2 1_555 1_555
H21_2 C25_2 1_555 1_555
Zn4 O4 1_555 1_555
O4_2 C22_4 1_555 1_555
O6_4 C22_4 1_555 1_555
Zn4_2 O4_2 1_555 1_555
Zn4 O1_2 1_555 1_555
O1_2 C1_2 1_555 1_555
C1_2 O2_2 1_555 1_555
O2_2 Zn4_2 1_555 1_555
C2_2 C1_2 1_555 1_555
H1_3 C2_2 1_555 1_555
H2_2 C2_2 1_555 1_555
O3_2 C2_2 1_555 1_555
C3_2 O3_2 1_555 1_555
C4_2 C3_2 1_555 1_555
H3_2 C4_2 1_555 1_555
C5_2 C6_2 1_555 1_555
C6_2 C4_2 1_555 1_555
H4_2 C6_2 1_555 1_555
C7_3 C3_2 1_555 1_555
H5_3 C7_3 1_555 1_555
C8_3 C5_2 1_555 1_555
H6_3 C8_3 1_555 1_555
C9 C10 1_555 1_555
C10 C18 1_555 1_555
C12 C13 1_555 1_555
C13 C9 1_555 1_555
C15_2 H8_2 1_555 1_555
H9_2 C15_2 1_555 1_555
H10_2 C15_2 1_555 1_555
C16_2 C12 1_555 1_555
C17 C13 1_555 1_555
H11 C17 1_555 1_555
H12 C17 1_555 1_555
H13 C17 1_555 1_555
C18 H14 1_555 1_555
H15 C18 1_555 1_555
H16_2 C18 1_555 1_555
C20 C12 1_555 1_555
C21 C9 1_555 1_555
C24 C20 1_555 1_555
H20 C24 1_555 1_555
C26 C21 1_555 1_555
H22 C26 1_555 1_555
C27_2 H23_2 1_555 1_555
H24_2 C27_2 1_555 1_555
C29_2 C26 1_555 1_555
H25_2 C29_2 1_555 1_555
C30 C29_2 1_555 1_555
C31 C30 1_555 1_555
H26 C31 1_555 1_555
C32 C21 1_555 1_555
H27 C32 1_555 1_555
C33_2 C5_2 1_555 1_555
O9 C27_2 1_555 1_555
O10_2 Zn4 1_555 1_555
C7_3 C8_3 1_555 1_555
C10 C33_2 1_555 1_555
C15_2 C16_2 1_555 1_555
C16_2 C33_2 1_555 1_555
C30 O9 1_555 1_555
C31 C32 1_555 1_555
Zn4_2 O1_3 1_555 1_555
O1_3 C1_3 1_555 1_555
C2_3 C1_3 1_555 1_555
H1_4 C2_3 1_555 1_555
H2_3 C2_3 1_555 1_555
O3_3 C2_3 1_555 1_555
C3_3 O3_3 1_555 1_555
C4_3 C3_3 1_555 1_555
H3_3 C4_3 1_555 1_555
O5_3 C11_3 1_555 1_555
C5_3 C6_3 1_555 1_555
C6_3 C4_3 1_555 1_555
H4_3 C6_3 1_555 1_555
C9_2 C10_2 1_555 1_555
C11_3 C14_3 1_555 1_555
C12_2 C13_2 1_555 1_555
C13_2 C9_2 1_555 1_555
C14_3 H7_3 1_555 1_555
C15_3 H8_3 1_555 1_555
H9_3 C15_3 1_555 1_555
H10_3 C15_3 1_555 1_555
C16_3 C12_2 1_555 1_555
C17_2 C13_2 1_555 1_555
H11_2 C17_2 1_555 1_555
H12_2 C17_2 1_555 1_555
H13_2 C17_2 1_555 1_555
C19_3 C14_3 1_555 1_555
H17_3 C19_3 1_555 1_555
C20_2 C12_2 1_555 1_555
C23_3 O5_3 1_555 1_555
H18_3 C23_3 1_555 1_555
H19_3 C23_3 1_555 1_555
C24_2 C20_2 1_555 1_555
H20_2 C24_2 1_555 1_555
C25_3 C11_3 1_555 1_555
H21_3 C25_3 1_555 1_555
C33_3 C5_3 1_555 1_555
C10_2 C33_3 1_555 1_555
C15_3 C16_3 1_555 1_555
C16_3 C33_3 1_555 1_555
C19_3 C20_2 1_555 1_555
C24_2 C25_3 1_555 1_555
H5_4 C7_4 1_555 1_555
O7 C28_3 1_555 1_555
H6_4 C8_4 1_555 1_555
O12_3 C28_3 1_555 1_555
C18_2 H14_2 1_555 1_555
H15_2 C18_2 1_555 1_555
H16_3 C18_2 1_555 1_555
C26_2 C21_2 1_555 1_555
C27_3 H23_3 1_555 1_555
H24_3 C27_3 1_555 1_555
C28_3 C27_3 1_555 1_555
C29_3 C26_2 1_555 1_555
H25_3 C29_3 1_555 1_555
C30_2 C29_3 1_555 1_555
C31_2 C30_2 1_555 1_555
H26_2 C31_2 1_555 1_555
C32_2 C21_2 1_555 1_555
H27_2 C32_2 1_555 1_555
O9_2 C27_3 1_555 1_555
C7_4 C8_4 1_555 1_555
C30_2 O9_2 1_555 1_555
C31_2 C32_2 1_555 1_555
C9_3 C10_3 1_555 1_555
C10_3 C18_3 1_555 1_555
C12_3 C13_3 1_555 1_555
C13_3 C9_3 1_555 1_555
C17_3 C13_3 1_555 1_555
H11_3 C17_3 1_555 1_555
H12_3 C17_3 1_555 1_555
H13_3 C17_3 1_555 1_555
C18_3 H14_3 1_555 1_555
H15_3 C18_3 1_555 1_555
C20_3 C12_3 1_555 1_555
C21_3 C9_3 1_555 1_555
C24_3 C20_3 1_555 1_555
H20_3 C24_3 1_555 1_555
C26_3 C21_3 1_555 1_555
C31_3 C30_3 1_555 1_555
H26_3 C31_3 1_555 1_555
C32_3 C21_3 1_555 1_555
H27_3 C32_3 1_555 1_555
C30_3 O9_3 1_555 1_555
C31_3 C32_3 1_555 1_555
C27_4 H23_4 1_555 1_555
H24_4 C27_4 1_555 1_555
H25_4 C29_4 1_555 1_555
O1_4 C1_4 1_555 1_555
C2_4 C1_4 1_555 1_555
H2_4 C2_4 1_555 1_555
O3_4 C2_4 1_555 1_555
C3_4 O3_4 1_555 1_555
C4_4 C3_4 1_555 1_555
H3_4 C4_4 1_555 1_555
C5_4 C6_4 1_555 1_555
C6_4 C4_4 1_555 1_555
H4_4 C6_4 1_555 1_555
C15_4 H8_4 1_555 1_555
H9_4 C15_4 1_555 1_555
H10_4 C15_4 1_555 1_555
C33_4 C5_4 1_555 1_555
C15_4 C16_4 1_555 1_555
C16_4 C33_4 1_555 1_555
O5_4 C11_4 1_555 1_555
C9_4 C10_4 1_555 1_555
C11_4 C14_4 1_555 1_555
C12_4 C13_4 1_555 1_555
C13_4 C9_4 1_555 1_555
C14_4 H7_4 1_555 1_555
C17_4 C13_4 1_555 1_555
H11_4 C17_4 1_555 1_555
H12_4 C17_4 1_555 1_555
H13_4 C17_4 1_555 1_555
C19_4 C14_4 1_555 1_555
H17_4 C19_4 1_555 1_555
C20_4 C12_4 1_555 1_555
C23_4 O5_4 1_555 1_555
H18_4 C23_4 1_555 1_555
H19_4 C23_4 1_555 1_555
C24_4 C20_4 1_555 1_555
H20_4 C24_4 1_555 1_555
C25_4 C11_4 1_555 1_555
H21_4 C25_4 1_555 1_555
C19_4 C20_4 1_555 1_555
C24_4 C25_4 1_555 1_555
C18_4 H14_4 1_555 1_555
H15_4 C18_4 1_555 1_555
C26_4 C21_4 1_555 1_555
C31_4 C30_4 1_555 1_555
H26_4 C31_4 1_555 1_555
C32_4 C21_4 1_555 1_555
H27_4 C32_4 1_555 1_555
C30_4 O9_4 1_555 1_555
C31_4 C32_4 1_555 1_555
O7_4 C28_4 1_555 1_555
O12_4 C28_4 1_555 1_555

#END
