
###############################################################################
#
# This file contains modified crystal structure data generated from the
# MOF subset of the Cambridge Structural Database (CSD) v543 
# hosted by the Cambridge Crystallographic Data Centre (CCDC).
#
# This work is licensed under the Creative Commons
# Attribution-NonCommercial-ShareAlike 4.0 International License.
# To view a copy of this license, visit
# http://creativecommons.org/licenses/by-nc-sa/4.0/
# or send a letter to
# Creative Commons, PO Box 1866, Mountain View, CA 94042, USA.
#
# CIF created using the CSD Python API on 29 September 2022
# The structure has been converted into the P1 space group
# The structure has a 3D framework
# The original CSD entry TOXHIZ is in the tetragonal crystal system
# The framework has been calculated to contain at least 10.0% void space
# The void calculation uses a probe of radius 1.32A, grid spacing 0.4
#
###############################################################################

data_TOXHIZ
_chemical_formula_moiety         '(C264 H216 O71 Ru2 Zn14)n'
_symmetry_cell_setting           triclinic
_symmetry_space_group_name_H-M   'P 1'
_symmetry_Int_Tables_number      1
_space_group_name_Hall           'P 1'
loop_
_symmetry_equiv_pos_site_id
_symmetry_equiv_pos_as_xyz
1 x,y,z
_cell_length_a                   32.610(4)
_cell_length_b                   32.610(4)
_cell_length_c                   8.1447(14)
_cell_angle_alpha                90
_cell_angle_beta                 90
_cell_angle_gamma                90
_cell_volume                     8661.17
loop_
_atom_site_label
_atom_site_type_symbol
_atom_site_fract_x
_atom_site_fract_y
_atom_site_fract_z
O47 O 0.0485(3) 0.0534(3) 0.0136(14)
O10 O 0.00000(11) 0.00000(10) 0.2481(5)
Zn2 Zn 0.00000(15) 0.00000(13) 0.5000(5)
O40 O 0.04997(14) 0.03566(12) 0.5401(5)
O42 O 0.0958(3) 0.0367(3) 0.8730(13)
O57 O 0.00000(10) 0.00000(11) 0.7519(5)
Zn6 Zn 0.00460(10) 0.05579(9) 0.1995(4)
Ru3 Ru 0.5000(5) 0.0000(4) 0.250(2)
Ru1 Ru -0.0000(4) 0.5000(5) 0.750(2)
C48 C 0.1760(3) 0.3205(3) 0.0039(17)
C56 C 0.2307(3) 0.3756(4) 0.0089(16)
H41 H 0.2593 0.3706 0.0285
H42 H 0.2173 0.3817 0.1110
C57 C 0.0946(9) 0.4024(9) 0.664(4)
H43 H 0.1192 0.4173 0.6945
H44 H 0.0941 0.3763 0.7207
C58 C 0.0565(10) 0.4272(9) 0.699(4)
C59 C 0.1151(3) 0.3766(3) 0.4071(13)
C60 C 0.1053(3) 0.3862(3) 0.2437(14)
H45 H 0.0850 0.4054 0.2212
C61 C 0.1261(3) 0.3668(3) 0.1143(12)
H46 H 0.1196 0.3732 0.0061
C62 C 0.1568(3) 0.3378(3) 0.1482(10)
C63 C 0.1666(3) 0.3282(3) 0.3116(10)
H47 H 0.1869 0.3089 0.3341
C64 C 0.1458(3) 0.3475(3) 0.4410(12)
H48 H 0.1523 0.3412 0.5492
C65 C 0.1233(2) 0.2639(2) 0.0185(8)
H50 H 0.1026 0.2838 0.0455
H51 H 0.1328 0.2509 0.1172
O15 O 0.0379(4) 0.4610(4) 0.584(2)
O16 O 0.0712(4) 0.4369(5) 0.8328(18)
O19 O 0.0924(4) 0.3985(4) 0.5302(15)
O54 O 0.0390(4) 0.5379(4) 0.916(2)
O10_2 O 0.00000(11) 1.00000(10) 0.2481(5)
Zn2_2 Zn 0.00000(15) 1.00000(13) 0.5000(5)
C34 C 0.1174(3) 0.1685(4) 0.5650(15)
C35 C 0.1430(4) 0.1608(4) 0.6879(17)
H28 H 0.1473 0.1340 0.7225
C36 C 0.1624(4) 0.1915(5) 0.7613(15)
H29 H 0.1804 0.1862 0.8474
C37 C 0.1563(4) 0.2298(4) 0.7118(16)
C38 C 0.1308(3) 0.2374(4) 0.589(2)
H30 H 0.1265 0.2642 0.5543
C39 C 0.1113(3) 0.2067(4) 0.516(2)
H31 H 0.0934 0.2120 0.4294
C40 C 0.0563(5) 0.0720(6) 0.457(2)
C41 C 0.0843(4) 0.0998(4) 0.565(2)
H32 H 0.0715 0.1040 0.6709
H33 H 0.1104 0.0861 0.5825
C42 C 0.3934(6) 0.4081(6) 0.559(3)
H34 H 0.4069 0.3832 0.5229
H35 H 0.3921 0.4085 0.6782
C43 C 0.4149(7) 0.4477(7) 0.489(3)
C44 C 0.1765(4) 0.2668(4) 0.7952(19)
C45 C 0.2119(4) 0.2842(3) 0.7246(16)
C46 C 0.2293(3) 0.3198(3) 0.7937(13)
C47 C 0.2114(3) 0.3379(3) 0.9333(14)
C49 C 0.1586(4) 0.2849(4) 0.9348(19)
C50 C 0.2626(3) 0.3413(3) 0.7147(13)
C51 C 0.3032(3) 0.3361(4) 0.7687(16)
H36 H 0.3090 0.3177 0.8527
C52 C 0.3351(4) 0.3588(5) 0.6957(19)
H37 H 0.3620 0.3553 0.7314
C53 C 0.3263(5) 0.3867(4) 0.569(2)
C54 C 0.2857(5) 0.3919(4) 0.5145(18)
H38 H 0.2799 0.4104 0.4306
C55 C 0.2538(4) 0.3692(3) 0.5876(15)
H39 H 0.2269 0.3727 0.5518
H40 H 0.2277 0.3984 0.9354
H49 H 0.1118 0.2436 0.9464
C66 C 0.23414(17) 0.26907(17) 0.5801(8)
H52 H 0.2512 0.2905 0.5370
H53 H 0.2149 0.2606 0.4977
H54 H 0.2509 0.2462 0.6111
O11 O 0.04081(9) 0.08855(8) 0.3467(4)
O13 O 0.4042(3) 0.4633(3) 0.3730(13)
O14 O 0.4515(3) 0.4466(3) 0.5136(14)
O17 O 0.3538(3) 0.4126(3) 0.4871(11)
O18 O 0.09107(11) 0.13686(10) 0.4918(4)
C100 C 0.1685(4) 0.8826(3) 0.4350(15)
C101 C 0.1608(4) 0.8570(4) 0.3121(17)
H82 H 0.1340 0.8527 0.2775
C102 C 0.1915(5) 0.8376(4) 0.2387(15)
H83 H 0.1862 0.8196 0.1526
C103 C 0.2298(4) 0.8437(4) 0.2882(16)
C104 C 0.2374(4) 0.8692(3) 0.411(2)
H84 H 0.2642 0.8735 0.4457
C105 C 0.2067(4) 0.8887(3) 0.484(2)
H85 H 0.2120 0.9066 0.5706
C106 C 0.0720(6) 0.9437(5) 0.543(2)
C107 C 0.0998(4) 0.9157(4) 0.435(2)
H86 H 0.1040 0.9285 0.3291
H87 H 0.0861 0.8896 0.4175
C108 C 0.4081(6) 0.6066(6) 0.441(3)
H88 H 0.3832 0.5931 0.4771
H89 H 0.4085 0.6079 0.3218
C109 C 0.4477(7) 0.5851(7) 0.511(3)
C110 C 0.2668(4) 0.8235(4) 0.2048(19)
C111 C 0.2842(3) 0.7881(4) 0.2754(16)
C112 C 0.3198(3) 0.7707(3) 0.2063(13)
C113 C 0.3379(3) 0.7886(3) 0.0667(14)
C115 C 0.2849(4) 0.8414(4) 0.0652(19)
C116 C 0.3413(3) 0.7374(3) 0.2853(13)
C117 C 0.3361(4) 0.6968(3) 0.2313(16)
H90 H 0.3177 0.6910 0.1473
C118 C 0.3588(5) 0.6649(4) 0.3043(19)
H91 H 0.3553 0.6380 0.2686
C119 C 0.3867(4) 0.6737(5) 0.431(2)
C120 C 0.3919(4) 0.7143(5) 0.4855(18)
H92 H 0.4104 0.7201 0.5694
C121 C 0.3692(3) 0.7462(4) 0.4124(15)
H93 H 0.3727 0.7731 0.4482
H94 H 0.3984 0.7723 0.0646
H103 H 0.2436 0.8882 0.0536
C132 C 0.26907(17) 0.76586(17) 0.4199(8)
H106 H 0.2905 0.7488 0.4630
H107 H 0.2606 0.7851 0.5023
H108 H 0.2462 0.7491 0.3889
O30 O 0.08855(8) 0.95919(9) 0.6533(4)
O31 O 0.03566(12) 0.95003(14) 0.4599(5)
O32 O 0.4633(3) 0.5958(3) 0.6270(13)
O33 O 0.4466(3) 0.5485(3) 0.4864(14)
O36 O 0.4126(3) 0.6462(3) 0.5129(11)
O37 O 0.13686(10) 0.90893(11) 0.5082(4)
Zn5 Zn 0.05579(9) 0.99540(10) 0.8005(4)
O44 O 0.0367(3) 0.9042(3) 0.1270(13)
O51 O 0.0534(3) 0.9515(3) 0.9864(14)
O57_2 O 0.00000(10) 1.00000(11) 0.7519(5)
Zn10 Zn 0.49540(10) 0.44421(9) 0.6995(4)
Zn12 Zn 0.50460(10) 0.55579(9) 0.6995(4)
Zn13 Zn 0.44421(9) 0.50460(10) 0.3005(4)
C114 C 0.3205(3) 0.8240(3) 0.9961(17)
C122 C 0.3756(4) 0.7693(3) 0.9911(16)
H95 H 0.3706 0.7407 0.9715
H96 H 0.3817 0.7827 0.8890
C123 C 0.4024(9) 0.9054(9) 0.336(4)
H97 H 0.4173 0.8808 0.3055
H98 H 0.3763 0.9059 0.2793
C124 C 0.4272(9) 0.9435(10) 0.301(4)
C125 C 0.3766(3) 0.8849(3) 0.5929(13)
C126 C 0.3862(3) 0.8947(3) 0.7563(14)
H99 H 0.4054 0.9150 0.7788
C127 C 0.3668(3) 0.8739(3) 0.8857(12)
H100 H 0.3732 0.8804 0.9939
C128 C 0.3378(3) 0.8432(3) 0.8518(10)
C129 C 0.3282(3) 0.8334(3) 0.6884(10)
H101 H 0.3089 0.8131 0.6659
C130 C 0.3475(3) 0.8542(3) 0.5590(12)
H102 H 0.3412 0.8477 0.4508
C131 C 0.2639(2) 0.8767(2) 0.9815(8)
H104 H 0.2838 0.8974 0.9545
H105 H 0.2509 0.8672 0.8828
O34 O 0.4610(4) 0.9621(4) 0.416(2)
O35 O 0.4369(5) 0.9288(4) 0.1672(18)
O38 O 0.3985(4) 0.9076(4) 0.4698(15)
Ru3_2 Ru 0.5000(5) 1.0000(4) 0.250(2)
O10_3 O 1.00000(11) 0.00000(10) 0.2481(5)
Zn2_3 Zn 1.00000(15) 0.00000(13) 0.5000(5)
O41 O 0.96434(12) 0.04997(14) 0.4599(5)
O57_3 O 1.00000(10) 0.00000(11) 0.7519(5)
Zn7 Zn 0.94421(9) 0.00460(10) 0.8005(4)
C15 C 0.8240(3) 0.6795(3) 0.0039(17)
C23 C 0.7693(3) 0.6244(4) 0.0089(16)
H14 H 0.7407 0.6294 0.0285
H15 H 0.7827 0.6183 0.1110
C24 C 0.9054(9) 0.5976(9) 0.664(4)
H16 H 0.8808 0.5827 0.6945
H17 H 0.9059 0.6237 0.7207
C25 C 0.9435(10) 0.5728(9) 0.699(4)
C26 C 0.8849(3) 0.6234(3) 0.4071(13)
C27 C 0.8947(3) 0.6138(3) 0.2437(14)
H18 H 0.9150 0.5946 0.2212
C28 C 0.8739(3) 0.6332(3) 0.1143(12)
H19 H 0.8804 0.6268 0.0061
C29 C 0.8432(3) 0.6622(3) 0.1482(10)
C30 C 0.8334(3) 0.6718(3) 0.3116(10)
H20 H 0.8131 0.6911 0.3341
C31 C 0.8542(3) 0.6525(3) 0.4410(12)
H21 H 0.8477 0.6588 0.5492
C32 C 0.8767(2) 0.7361(2) 0.0185(8)
H23 H 0.8974 0.7162 0.0455
H24 H 0.8672 0.7491 0.1172
O5 O 0.9621(4) 0.5390(4) 0.584(2)
O6 O 0.9288(4) 0.5631(5) 0.8328(18)
O9 O 0.9076(4) 0.6015(4) 0.5302(15)
Ru1_2 Ru 1.0000(4) 0.5000(5) 0.750(2)
O55 O 0.9610(4) 0.4621(4) 0.916(2)
C1 C 0.8826(3) 0.8315(4) 0.5650(15)
C2 C 0.8570(4) 0.8392(4) 0.6879(17)
H1 H 0.8527 0.8660 0.7225
C3 C 0.8376(4) 0.8085(5) 0.7613(15)
H2 H 0.8196 0.8138 0.8474
C4 C 0.8437(4) 0.7702(4) 0.7118(16)
C5 C 0.8692(3) 0.7626(4) 0.589(2)
H3 H 0.8735 0.7358 0.5543
C6 C 0.8887(3) 0.7933(4) 0.516(2)
H4 H 0.9066 0.7880 0.4294
C7 C 0.9437(5) 0.9280(6) 0.457(2)
C8 C 0.9157(4) 0.9002(4) 0.565(2)
H5 H 0.9285 0.8960 0.6709
H6 H 0.8896 0.9139 0.5825
C9 C 0.6066(6) 0.5919(6) 0.559(3)
H7 H 0.5931 0.6168 0.5229
H8 H 0.6079 0.5915 0.6782
C10 C 0.5851(7) 0.5523(7) 0.489(3)
C11 C 0.8235(4) 0.7332(4) 0.7952(19)
C12 C 0.7881(4) 0.7158(3) 0.7246(16)
C13 C 0.7707(3) 0.6802(3) 0.7937(13)
C14 C 0.7886(3) 0.6621(3) 0.9333(14)
C16 C 0.8414(4) 0.7151(4) 0.9348(19)
C17 C 0.7374(3) 0.6587(3) 0.7147(13)
C18 C 0.6968(3) 0.6639(4) 0.7687(16)
H9 H 0.6910 0.6823 0.8527
C19 C 0.6649(4) 0.6412(5) 0.6957(19)
H10 H 0.6380 0.6447 0.7314
C20 C 0.6737(5) 0.6133(4) 0.569(2)
C21 C 0.7143(5) 0.6081(4) 0.5145(18)
H11 H 0.7201 0.5896 0.4306
C22 C 0.7462(4) 0.6308(3) 0.5876(15)
H12 H 0.7731 0.6273 0.5518
H13 H 0.7723 0.6016 0.9354
H22 H 0.8882 0.7564 0.9464
C33 C 0.76586(17) 0.73093(17) 0.5801(8)
H25 H 0.7488 0.7095 0.5370
H26 H 0.7851 0.7394 0.4977
H27 H 0.7491 0.7538 0.6111
O1 O 0.95919(9) 0.91145(8) 0.3467(4)
O2 O 0.95003(14) 0.96434(12) 0.5401(5)
O3 O 0.5958(3) 0.5367(3) 0.3730(13)
O4 O 0.5485(3) 0.5534(3) 0.5136(14)
O7 O 0.6462(3) 0.5874(3) 0.4871(11)
O8 O 0.90893(11) 0.86314(10) 0.4918(4)
O10_4 O 1.00000(11) 1.00000(10) 0.2481(5)
Zn1 Zn 0.99540(10) 0.94421(9) 0.1995(4)
Zn2_4 Zn 1.00000(15) 1.00000(13) 0.5000(5)
C67 C 0.8315(4) 0.1174(3) 0.4350(15)
C68 C 0.8392(4) 0.1430(4) 0.3121(17)
H55 H 0.8660 0.1473 0.2775
C69 C 0.8085(5) 0.1624(4) 0.2387(15)
H56 H 0.8138 0.1804 0.1526
C70 C 0.7702(4) 0.1563(4) 0.2882(16)
C71 C 0.7626(4) 0.1308(3) 0.411(2)
H57 H 0.7358 0.1265 0.4457
C72 C 0.7933(4) 0.1113(3) 0.484(2)
H58 H 0.7880 0.0934 0.5706
C73 C 0.9280(6) 0.0563(5) 0.543(2)
C74 C 0.9002(4) 0.0843(4) 0.435(2)
H59 H 0.8960 0.0715 0.3291
H60 H 0.9139 0.1104 0.4175
C75 C 0.5919(6) 0.3934(6) 0.441(3)
H61 H 0.6168 0.4069 0.4771
H62 H 0.5915 0.3921 0.3218
C76 C 0.5523(7) 0.4149(7) 0.511(3)
C77 C 0.7332(4) 0.1765(4) 0.2048(19)
C78 C 0.7158(3) 0.2119(4) 0.2754(16)
C79 C 0.6802(3) 0.2293(3) 0.2063(13)
C80 C 0.6621(3) 0.2114(3) 0.0667(14)
C82 C 0.7151(4) 0.1586(4) 0.0652(19)
C83 C 0.6587(3) 0.2626(3) 0.2853(13)
C84 C 0.6639(4) 0.3032(3) 0.2313(16)
H63 H 0.6823 0.3090 0.1473
C85 C 0.6412(5) 0.3351(4) 0.3043(19)
H64 H 0.6447 0.3620 0.2686
C86 C 0.6133(4) 0.3263(5) 0.431(2)
C87 C 0.6081(4) 0.2857(5) 0.4855(18)
H65 H 0.5896 0.2799 0.5694
C88 C 0.6308(3) 0.2538(4) 0.4124(15)
H66 H 0.6273 0.2269 0.4482
H67 H 0.6016 0.2277 0.0646
H76 H 0.7564 0.1118 0.0536
C99 C 0.73093(17) 0.23414(17) 0.4199(8)
H79 H 0.7095 0.2512 0.4630
H80 H 0.7394 0.2149 0.5023
H81 H 0.7538 0.2509 0.3889
O20 O 0.91145(8) 0.04081(9) 0.6533(4)
O22 O 0.5367(3) 0.4042(3) 0.6270(13)
O23 O 0.5534(3) 0.4515(3) 0.4864(14)
O26 O 0.5874(3) 0.3538(3) 0.5129(11)
O27 O 0.86314(10) 0.09107(11) 0.5082(4)
O45 O 0.9633(3) 0.0958(3) 0.1270(13)
O49 O 0.9515(3) 0.9466(3) 0.0136(14)
O53 O 0.9466(3) 0.0485(3) 0.9864(14)
O57_4 O 1.00000(10) 1.00000(11) 0.7519(5)
Zn14 Zn 0.55579(9) 0.49540(10) 0.3005(4)
C81 C 0.6795(3) 0.1760(3) 0.9961(17)
C89 C 0.6244(4) 0.2307(3) 0.9911(16)
H68 H 0.6294 0.2593 0.9715
H69 H 0.6183 0.2173 0.8890
C90 C 0.5976(9) 0.0946(9) 0.336(4)
H70 H 0.5827 0.1192 0.3055
H71 H 0.6237 0.0941 0.2793
C91 C 0.5728(9) 0.0565(10) 0.301(4)
C92 C 0.6234(3) 0.1151(3) 0.5929(13)
C93 C 0.6138(3) 0.1053(3) 0.7563(14)
H72 H 0.5946 0.0850 0.7788
C94 C 0.6332(3) 0.1261(3) 0.8857(12)
H73 H 0.6268 0.1196 0.9939
C95 C 0.6622(3) 0.1568(3) 0.8518(10)
C96 C 0.6718(3) 0.1666(3) 0.6884(10)
H74 H 0.6911 0.1869 0.6659
C97 C 0.6525(3) 0.1458(3) 0.5590(12)
H75 H 0.6588 0.1523 0.4508
C98 C 0.7361(2) 0.1233(2) 0.9815(8)
H77 H 0.7162 0.1026 0.9545
H78 H 0.7491 0.1328 0.8828
O24 O 0.5390(4) 0.0379(4) 0.416(2)
O25 O 0.5631(5) 0.0712(4) 0.1672(18)
O28 O 0.6015(4) 0.0924(4) 0.4698(15)
O43 O 0.9042(3) 0.9633(3) 0.8730(13)
O55_2 O 0.4621(4) 0.0390(4) 0.084(2)
O54_2 O 0.5379(4) 0.9610(4) 0.084(2)
C24_2 C 0.4054(9) 0.0976(9) 0.164(4)
H16_2 H 0.3808 0.0827 0.1945
H17_2 H 0.4059 0.1237 0.2207
C25_2 C 0.4435(10) 0.0728(9) 0.199(4)
H21_2 H 0.3477 0.1588 0.0492
O6_2 O 0.4288(4) 0.0631(5) 0.3328(18)
O9_2 O 0.4076(4) 0.1015(4) 0.0302(15)
C1_2 C 0.3826(3) 0.3315(4) 0.0650(15)
C2_2 C 0.3570(4) 0.3392(4) 0.1879(17)
H1_2 H 0.3527 0.3660 0.2225
C3_2 C 0.3376(4) 0.3085(5) 0.2613(15)
H2_2 H 0.3196 0.3138 0.3474
C4_2 C 0.3437(4) 0.2702(4) 0.2118(16)
C5_2 C 0.3692(3) 0.2626(4) 0.089(2)
H3_2 H 0.3735 0.2358 0.0543
C6_2 C 0.3887(3) 0.2933(4) 0.016(2)
C8_2 C 0.4157(4) 0.4002(4) 0.065(2)
H5_2 H 0.4285 0.3960 0.1709
H6_2 H 0.3896 0.4139 0.0825
C9_2 C 0.1066(6) 0.0919(6) 0.059(3)
H7_2 H 0.0931 0.1168 0.0229
H8_2 H 0.1079 0.0915 0.1782
C11_2 C 0.3235(4) 0.2332(4) 0.2952(19)
C12_2 C 0.2881(4) 0.2158(3) 0.2246(16)
C13_2 C 0.2707(3) 0.1802(3) 0.2937(13)
C14_2 C 0.2886(3) 0.1621(3) 0.4333(14)
C15_2 C 0.3240(3) 0.1795(3) 0.5039(17)
C16_2 C 0.3414(4) 0.2151(4) 0.4348(19)
C17_2 C 0.2374(3) 0.1587(3) 0.2147(13)
C18_2 C 0.1968(3) 0.1639(4) 0.2687(16)
H9_2 H 0.1910 0.1823 0.3527
C19_2 C 0.1649(4) 0.1412(5) 0.1957(19)
H10_2 H 0.1380 0.1447 0.2314
C20_2 C 0.1737(5) 0.1133(4) 0.069(2)
C21_2 C 0.2143(5) 0.1081(4) 0.0145(18)
C22_2 C 0.2462(4) 0.1308(3) 0.0876(15)
H12_2 H 0.2731 0.1273 0.0518
C23_2 C 0.2693(3) 0.1244(4) 0.5089(16)
H13_2 H 0.2723 0.1016 0.4354
H14_2 H 0.2407 0.1294 0.5285
H15_2 H 0.2827 0.1183 0.6110
C26_2 C 0.3849(3) 0.1234(3) 0.9071(13)
C27_2 C 0.3947(3) 0.1138(3) 0.7437(14)
H18_2 H 0.4150 0.0946 0.7212
C28_2 C 0.3739(3) 0.1332(3) 0.6143(12)
H19_2 H 0.3804 0.1268 0.5061
C29_2 C 0.3432(3) 0.1622(3) 0.6482(10)
C30_2 C 0.3334(3) 0.1718(3) 0.8116(10)
H20_2 H 0.3131 0.1911 0.8341
C31_2 C 0.3542(3) 0.1525(3) 0.9410(12)
C32_2 C 0.3767(2) 0.2361(2) 0.5185(8)
H22_2 H 0.3882 0.2564 0.4464
H23_2 H 0.3974 0.2162 0.5455
H24_2 H 0.3672 0.2491 0.6172
C33_2 C 0.26586(17) 0.23093(17) 0.0801(8)
H25_2 H 0.2488 0.2095 0.0370
H27_2 H 0.2491 0.2538 0.1111
O2_2 O 0.45003(14) 0.46434(12) 0.0401(5)
Zn2_5 Zn 0.50000(15) 0.50000(13) -0.0000(5)
H85_2 H 0.7120 0.4066 0.0706
C106_2 C 0.5720(6) 0.4437(5) 0.043(2)
C109_2 C 0.9477(7) 0.0851(7) 0.011(3)
H92_2 H 0.9104 0.2201 0.0694
H107_2 H 0.7606 0.2851 0.0023
O30_2 O 0.58855(8) 0.45919(9) 0.1533(4)
O36_2 O 0.9126(3) 0.1462(3) 0.0129(11)
O37_2 O 0.63686(10) 0.40893(11) 0.0082(4)
O40_2 O 0.54997(14) 0.53566(12) 0.0401(5)
O57_5 O 0.50000(10) 0.50000(11) 0.2519(5)
H4_2 H 0.4066 0.2880 0.9294
C7_2 C 0.4437(5) 0.4280(6) 0.957(2)
C10_2 C 0.0851(7) 0.0523(7) 0.989(3)
H11_2 H 0.2201 0.0896 0.9306
H26_2 H 0.2851 0.2394 0.9977
O1_2 O 0.45919(9) 0.41145(8) 0.8467(4)
O7_2 O 0.1462(3) 0.0874(3) 0.9871(11)
O8_2 O 0.40893(11) 0.36314(10) 0.9918(4)
O10_5 O 0.50000(11) 0.50000(10) 0.7481(5)
Zn2_6 Zn 0.50000(15) 0.50000(13) 1.0000(5)
C100_2 C 0.6685(4) 0.3826(3) 0.9350(15)
C101_2 C 0.6608(4) 0.3570(4) 0.8121(17)
H82_2 H 0.6340 0.3527 0.7775
C102_2 C 0.6915(5) 0.3376(4) 0.7387(15)
H83_2 H 0.6862 0.3196 0.6526
C103_2 C 0.7298(4) 0.3437(4) 0.7882(16)
C104_2 C 0.7374(4) 0.3692(3) 0.911(2)
H84_2 H 0.7642 0.3735 0.9457
C105_2 C 0.7067(4) 0.3887(3) 0.984(2)
C107_2 C 0.5998(4) 0.4157(4) 0.935(2)
H86_2 H 0.6040 0.4285 0.8291
H87_2 H 0.5861 0.3896 0.9175
C108_2 C 0.9081(6) 0.1066(6) 0.941(3)
H88_2 H 0.8832 0.0931 0.9771
H89_2 H 0.9085 0.1079 0.8218
C110_2 C 0.7668(4) 0.3235(4) 0.7048(19)
C111_2 C 0.7842(3) 0.2881(4) 0.7754(16)
C112_2 C 0.8198(3) 0.2707(3) 0.7063(13)
C113_2 C 0.8379(3) 0.2886(3) 0.5667(14)
C114_2 C 0.8205(3) 0.3240(3) 0.4961(17)
C115_2 C 0.7849(4) 0.3414(4) 0.5652(19)
C116_2 C 0.8413(3) 0.2374(3) 0.7853(13)
C117_2 C 0.8361(4) 0.1968(3) 0.7313(16)
H90_2 H 0.8177 0.1910 0.6473
C118_2 C 0.8588(5) 0.1649(4) 0.8043(19)
H91_2 H 0.8553 0.1380 0.7686
C119_2 C 0.8867(4) 0.1737(5) 0.931(2)
C120_2 C 0.8919(4) 0.2143(5) 0.9855(18)
C121_2 C 0.8692(3) 0.2462(4) 0.9124(15)
H93_2 H 0.8727 0.2731 0.9482
C122_2 C 0.8756(4) 0.2693(3) 0.4911(16)
H94_2 H 0.8984 0.2723 0.5646
H95_2 H 0.8706 0.2407 0.4715
H96_2 H 0.8817 0.2827 0.3890
C125_2 C 0.8766(3) 0.3849(3) 0.0929(13)
C126_2 C 0.8862(3) 0.3947(3) 0.2563(14)
H99_2 H 0.9054 0.4150 0.2788
C127_2 C 0.8668(3) 0.3739(3) 0.3857(12)
H100_2 H 0.8732 0.3804 0.4939
C128_2 C 0.8378(3) 0.3432(3) 0.3518(10)
C129_2 C 0.8282(3) 0.3334(3) 0.1884(10)
H101_2 H 0.8089 0.3131 0.1659
C130_2 C 0.8475(3) 0.3542(3) 0.0590(12)
C131_2 C 0.7639(2) 0.3767(2) 0.4815(8)
H103_2 H 0.7436 0.3882 0.5536
H104_2 H 0.7838 0.3974 0.4545
H105_2 H 0.7509 0.3672 0.3828
C132_2 C 0.76907(17) 0.26586(17) 0.9199(8)
H106_2 H 0.7905 0.2488 0.9630
H108_2 H 0.7462 0.2491 0.8889
O31_2 O 0.53566(12) 0.45003(14) 0.9599(5)
O41_2 O 0.46434(12) 0.54997(14) 0.9599(5)
C123_2 C 0.9024(9) 0.4054(9) 0.836(4)
H97_2 H 0.9173 0.3808 0.8055
H98_2 H 0.8763 0.4059 0.7793
C124_2 C 0.9272(9) 0.4435(10) 0.801(4)
H102_2 H 0.8412 0.3477 0.9508
O35_2 O 0.9369(5) 0.4288(4) 0.6672(18)
O38_2 O 0.8985(4) 0.4076(4) 0.9698(15)
C57_2 C 0.5946(9) 0.9024(9) 0.164(4)
H43_2 H 0.6192 0.9173 0.1945
H44_2 H 0.5941 0.8763 0.2207
C58_2 C 0.5565(10) 0.9272(9) 0.199(4)
H48_2 H 0.6523 0.8412 0.0492
O16_2 O 0.5712(4) 0.9369(5) 0.3328(18)
O19_2 O 0.5924(4) 0.8985(4) 0.0302(15)
C34_2 C 0.6174(3) 0.6685(4) 0.0650(15)
C35_2 C 0.6430(4) 0.6608(4) 0.1879(17)
H28_2 H 0.6473 0.6340 0.2225
C36_2 C 0.6624(4) 0.6915(5) 0.2613(15)
H29_2 H 0.6804 0.6862 0.3474
C37_2 C 0.6563(4) 0.7298(4) 0.2118(16)
C38_2 C 0.6308(3) 0.7374(4) 0.089(2)
H30_2 H 0.6265 0.7642 0.0543
C39_2 C 0.6113(3) 0.7067(4) 0.016(2)
C41_2 C 0.5843(4) 0.5998(4) 0.065(2)
H32_2 H 0.5715 0.6040 0.1709
H33_2 H 0.6104 0.5861 0.0825
C42_2 C 0.8934(6) 0.9081(6) 0.059(3)
H34_2 H 0.9069 0.8832 0.0229
H35_2 H 0.8921 0.9085 0.1782
C44_2 C 0.6765(4) 0.7668(4) 0.2952(19)
C45_2 C 0.7119(4) 0.7842(3) 0.2246(16)
C46_2 C 0.7293(3) 0.8198(3) 0.2937(13)
C47_2 C 0.7114(3) 0.8379(3) 0.4333(14)
C48_2 C 0.6760(3) 0.8205(3) 0.5039(17)
C49_2 C 0.6586(4) 0.7849(4) 0.4348(19)
C50_2 C 0.7626(3) 0.8413(3) 0.2147(13)
C51_2 C 0.8032(3) 0.8361(4) 0.2687(16)
H36_2 H 0.8090 0.8177 0.3527
C52_2 C 0.8351(4) 0.8588(5) 0.1957(19)
H37_2 H 0.8620 0.8553 0.2314
C53_2 C 0.8263(5) 0.8867(4) 0.069(2)
C54_2 C 0.7857(5) 0.8919(4) 0.0145(18)
C55_2 C 0.7538(4) 0.8692(3) 0.0876(15)
H39_2 H 0.7269 0.8727 0.0518
C56_2 C 0.7307(3) 0.8756(4) 0.5089(16)
H40_2 H 0.7277 0.8984 0.4354
H41_2 H 0.7593 0.8706 0.5285
H42_2 H 0.7173 0.8817 0.6110
C59_2 C 0.6151(3) 0.8766(3) 0.9071(13)
C60_2 C 0.6053(3) 0.8862(3) 0.7437(14)
H45_2 H 0.5850 0.9054 0.7212
C61_2 C 0.6261(3) 0.8668(3) 0.6143(12)
H46_2 H 0.6196 0.8732 0.5061
C62_2 C 0.6568(3) 0.8378(3) 0.6482(10)
C63_2 C 0.6666(3) 0.8282(3) 0.8116(10)
H47_2 H 0.6869 0.8089 0.8341
C64_2 C 0.6458(3) 0.8475(3) 0.9410(12)
C65_2 C 0.6233(2) 0.7639(2) 0.5185(8)
H49_2 H 0.6118 0.7436 0.4464
H50_2 H 0.6026 0.7838 0.5455
H51_2 H 0.6328 0.7509 0.6172
C66_2 C 0.73414(17) 0.76907(17) 0.0801(8)
H52_2 H 0.7512 0.7905 0.0370
H54_2 H 0.7509 0.7462 0.1111
H58_2 H 0.2880 0.5934 0.0706
C73_2 C 0.4280(6) 0.5563(5) 0.043(2)
C76_2 C 0.0523(7) 0.9149(7) 0.011(3)
H65_2 H 0.0896 0.7799 0.0694
H80_2 H 0.2394 0.7149 0.0023
O20_2 O 0.41145(8) 0.54081(9) 0.1533(4)
O26_2 O 0.0874(3) 0.8538(3) 0.0129(11)
O27_2 O 0.36314(10) 0.59107(11) 0.0082(4)
H31_2 H 0.5934 0.7120 0.9294
C40_2 C 0.5563(5) 0.5720(6) 0.957(2)
C43_2 C 0.9149(7) 0.9477(7) 0.989(3)
H38_2 H 0.7799 0.9104 0.9306
H53_2 H 0.7149 0.7606 0.9977
O11_2 O 0.54081(9) 0.58855(8) 0.8467(4)
O17_2 O 0.8538(3) 0.9126(3) 0.9871(11)
O18_2 O 0.59107(11) 0.63686(10) 0.9918(4)
C67_2 C 0.3315(4) 0.6174(3) 0.9350(15)
C68_2 C 0.3392(4) 0.6430(4) 0.8121(17)
H55_2 H 0.3660 0.6473 0.7775
C69_2 C 0.3085(5) 0.6624(4) 0.7387(15)
H56_2 H 0.3138 0.6804 0.6526
C70_2 C 0.2702(4) 0.6563(4) 0.7882(16)
C71_2 C 0.2626(4) 0.6308(3) 0.911(2)
H57_2 H 0.2358 0.6265 0.9457
C72_2 C 0.2933(4) 0.6113(3) 0.984(2)
C74_2 C 0.4002(4) 0.5843(4) 0.935(2)
H59_2 H 0.3960 0.5715 0.8291
H60_2 H 0.4139 0.6104 0.9175
C75_2 C 0.0919(6) 0.8934(6) 0.941(3)
H61_2 H 0.1168 0.9069 0.9771
H62_2 H 0.0915 0.8921 0.8218
C77_2 C 0.2332(4) 0.6765(4) 0.7048(19)
C78_2 C 0.2158(3) 0.7119(4) 0.7754(16)
C79_2 C 0.1802(3) 0.7293(3) 0.7063(13)
C80_2 C 0.1621(3) 0.7114(3) 0.5667(14)
C81_2 C 0.1795(3) 0.6760(3) 0.4961(17)
C82_2 C 0.2151(4) 0.6586(4) 0.5652(19)
C83_2 C 0.1587(3) 0.7626(3) 0.7853(13)
C84_2 C 0.1639(4) 0.8032(3) 0.7313(16)
H63_2 H 0.1823 0.8090 0.6473
C85_2 C 0.1412(5) 0.8351(4) 0.8043(19)
H64_2 H 0.1447 0.8620 0.7686
C86_2 C 0.1133(4) 0.8263(5) 0.931(2)
C87_2 C 0.1081(4) 0.7857(5) 0.9855(18)
C88_2 C 0.1308(3) 0.7538(4) 0.9124(15)
H66_2 H 0.1273 0.7269 0.9482
C89_2 C 0.1244(4) 0.7307(3) 0.4911(16)
H67_2 H 0.1016 0.7277 0.5646
H68_2 H 0.1294 0.7593 0.4715
H69_2 H 0.1183 0.7173 0.3890
C92_2 C 0.1234(3) 0.6151(3) 0.0929(13)
C93_2 C 0.1138(3) 0.6053(3) 0.2563(14)
H72_2 H 0.0946 0.5850 0.2788
C94_2 C 0.1332(3) 0.6261(3) 0.3857(12)
H73_2 H 0.1268 0.6196 0.4939
C95_2 C 0.1622(3) 0.6568(3) 0.3518(10)
C96_2 C 0.1718(3) 0.6666(3) 0.1884(10)
H74_2 H 0.1911 0.6869 0.1659
C97_2 C 0.1525(3) 0.6458(3) 0.0590(12)
C98_2 C 0.2361(2) 0.6233(2) 0.4815(8)
H76_2 H 0.2564 0.6118 0.5536
H77_2 H 0.2162 0.6026 0.4545
H78_2 H 0.2491 0.6328 0.3828
C99_2 C 0.23093(17) 0.73414(17) 0.9199(8)
H79_2 H 0.2095 0.7512 0.9630
H81_2 H 0.2538 0.7509 0.8889
C90_2 C 0.0976(9) 0.5946(9) 0.836(4)
H70_2 H 0.0827 0.6192 0.8055
H71_2 H 0.1237 0.5941 0.7793
C91_2 C 0.0728(9) 0.5565(10) 0.801(4)
H75_2 H 0.1588 0.6523 0.9508
O25_2 O 0.0631(5) 0.5712(4) 0.6672(18)
O28_2 O 0.1015(4) 0.5924(4) 0.9698(15)
loop_
_geom_bond_atom_site_label_1
_geom_bond_atom_site_label_2
_geom_bond_site_symmetry_1
_geom_bond_site_symmetry_2
O40 Zn2 1_555 1_555
O57 Zn2 1_555 1_555
Zn6 O10 1_555 1_555
O10 Zn2 1_555 1_555
H41 C56 1_555 1_555
H42 C56 1_555 1_555
C57 H43 1_555 1_555
H44 C57 1_555 1_555
C58 C57 1_555 1_555
C59 C60 1_555 1_555
C60 H45 1_555 1_555
C61 C60 1_555 1_555
H46 C61 1_555 1_555
C62 C48 1_555 1_555
C63 C62 1_555 1_555
H47 C63 1_555 1_555
C64 C59 1_555 1_555
H48 C64 1_555 1_555
H50 C65 1_555 1_555
H51 C65 1_555 1_555
O15 Ru1 1_555 1_555
O16 C58 1_555 1_555
O19 C57 1_555 1_555
O54 Ru1 1_555 1_555
C58 O15 1_555 1_555
C59 O19 1_555 1_555
C61 C62 1_555 1_555
C63 C64 1_555 1_555
C34 C35 1_555 1_555
C35 H28 1_555 1_555
C36 C35 1_555 1_555
H29 C36 1_555 1_555
C37 C36 1_555 1_555
C38 C37 1_555 1_555
H30 C38 1_555 1_555
C39 C34 1_555 1_555
H31 C39 1_555 1_555
C40 C41 1_555 1_555
C41 H32 1_555 1_555
H33 C41 1_555 1_555
C42 H34 1_555 1_555
H35 C42 1_555 1_555
C43 C42 1_555 1_555
C44 C37 1_555 1_555
C45 C44 1_555 1_555
C46 C45 1_555 1_555
C47 C46 1_555 1_555
C49 C44 1_555 1_555
C50 C46 1_555 1_555
C51 C50 1_555 1_555
H36 C51 1_555 1_555
C52 C51 1_555 1_555
H37 C52 1_555 1_555
C53 C52 1_555 1_555
C54 C53 1_555 1_555
H38 C54 1_555 1_555
C55 C50 1_555 1_555
H39 C55 1_555 1_555
C66 C45 1_555 1_555
H52 C66 1_555 1_555
H53 C66 1_555 1_555
H54 C66 1_555 1_555
O11 C40 1_555 1_555
O40 C40 1_555 1_555
O13 C43 1_555 1_555
O14 C43 1_555 1_555
O17 C42 1_555 1_555
O18 C34 1_555 1_555
Zn6 O11 1_555 1_555
C100 C101 1_555 1_555
C101 H82 1_555 1_555
C102 C101 1_555 1_555
H83 C102 1_555 1_555
C103 C102 1_555 1_555
C104 C103 1_555 1_555
H84 C104 1_555 1_555
C105 C100 1_555 1_555
H85 C105 1_555 1_555
C106 C107 1_555 1_555
C107 H86 1_555 1_555
H87 C107 1_555 1_555
C108 H88 1_555 1_555
H89 C108 1_555 1_555
C109 C108 1_555 1_555
C110 C103 1_555 1_555
C111 C110 1_555 1_555
C112 C111 1_555 1_555
C113 C112 1_555 1_555
C115 C110 1_555 1_555
C116 C112 1_555 1_555
C117 C116 1_555 1_555
H90 C117 1_555 1_555
C118 C117 1_555 1_555
H91 C118 1_555 1_555
C119 C118 1_555 1_555
C120 C119 1_555 1_555
H92 C120 1_555 1_555
C121 C116 1_555 1_555
H93 C121 1_555 1_555
C132 C111 1_555 1_555
H106 C132 1_555 1_555
H107 C132 1_555 1_555
H108 C132 1_555 1_555
O30 C106 1_555 1_555
O32 C109 1_555 1_555
O33 C109 1_555 1_555
O36 C108 1_555 1_555
O37 C100 1_555 1_555
Zn5 O30 1_555 1_555
O47 Zn6 1_555 1_555
O51 Zn5 1_555 1_555
O57_2 Zn2_2 1_555 1_555
Zn10 O14 1_555 1_555
Zn12 O32 1_555 1_555
Zn13 O13 1_555 1_555
O10_2 Zn2_2 1_555 1_555
Zn2_2 O31 1_555 1_555
C38 C39 1_555 1_555
C41 O18 1_555 1_555
C53 O17 1_555 1_555
C54 C55 1_555 1_555
O14 Zn13 1_555 1_555
C104 C105 1_555 1_555
C106 O31 1_555 1_555
C107 O37 1_555 1_555
C119 O36 1_555 1_555
C120 C121 1_555 1_555
O33 Zn12 1_555 1_555
O33 Zn13 1_555 1_555
Zn5 O57_2 1_555 1_555
H95 C122 1_555 1_555
H96 C122 1_555 1_555
C123 H97 1_555 1_555
H98 C123 1_555 1_555
C124 C123 1_555 1_555
C125 C126 1_555 1_555
C126 H99 1_555 1_555
C127 C126 1_555 1_555
H100 C127 1_555 1_555
C128 C114 1_555 1_555
C129 C128 1_555 1_555
H101 C129 1_555 1_555
C130 C125 1_555 1_555
H102 C130 1_555 1_555
H104 C131 1_555 1_555
H105 C131 1_555 1_555
O34 C124 1_555 1_555
O35 C124 1_555 1_555
O38 C123 1_555 1_555
Ru3_2 O34 1_555 1_555
C125 O38 1_555 1_555
C127 C128 1_555 1_555
C129 C130 1_555 1_555
O41 Zn2_3 1_555 1_555
O57_3 Zn2_3 1_555 1_555
O10_3 Zn2_3 1_555 1_555
O57_3 Zn7 1_555 1_555
H14 C23 1_555 1_555
H15 C23 1_555 1_555
C24 H16 1_555 1_555
H17 C24 1_555 1_555
C25 C24 1_555 1_555
C26 C27 1_555 1_555
C27 H18 1_555 1_555
C28 C27 1_555 1_555
H19 C28 1_555 1_555
C29 C15 1_555 1_555
C30 C29 1_555 1_555
H20 C30 1_555 1_555
C31 C26 1_555 1_555
H21 C31 1_555 1_555
H23 C32 1_555 1_555
H24 C32 1_555 1_555
O5 C25 1_555 1_555
O6 C25 1_555 1_555
O9 C24 1_555 1_555
Ru1_2 O5 1_555 1_555
O55 Ru1_2 1_555 1_555
C26 O9 1_555 1_555
C28 C29 1_555 1_555
C30 C31 1_555 1_555
C1 C2 1_555 1_555
C2 H1 1_555 1_555
C3 C2 1_555 1_555
H2 C3 1_555 1_555
C4 C3 1_555 1_555
C5 C4 1_555 1_555
H3 C5 1_555 1_555
C6 C1 1_555 1_555
H4 C6 1_555 1_555
C7 C8 1_555 1_555
C8 H5 1_555 1_555
H6 C8 1_555 1_555
C9 H7 1_555 1_555
H8 C9 1_555 1_555
C10 C9 1_555 1_555
C11 C4 1_555 1_555
C12 C11 1_555 1_555
C13 C12 1_555 1_555
C14 C13 1_555 1_555
C16 C11 1_555 1_555
C17 C13 1_555 1_555
C18 C17 1_555 1_555
H9 C18 1_555 1_555
C19 C18 1_555 1_555
H10 C19 1_555 1_555
C20 C19 1_555 1_555
C21 C20 1_555 1_555
H11 C21 1_555 1_555
C22 C17 1_555 1_555
H12 C22 1_555 1_555
C33 C12 1_555 1_555
H25 C33 1_555 1_555
H26 C33 1_555 1_555
H27 C33 1_555 1_555
O1 C7 1_555 1_555
O2 C7 1_555 1_555
O3 C10 1_555 1_555
O4 C10 1_555 1_555
O7 C9 1_555 1_555
O8 C1 1_555 1_555
O10_4 Zn1 1_555 1_555
Zn1 O1 1_555 1_555
Zn2_4 O2 1_555 1_555
C67 C68 1_555 1_555
C68 H55 1_555 1_555
C69 C68 1_555 1_555
H56 C69 1_555 1_555
C70 C69 1_555 1_555
C71 C70 1_555 1_555
H57 C71 1_555 1_555
C72 C67 1_555 1_555
H58 C72 1_555 1_555
C73 C74 1_555 1_555
C74 H59 1_555 1_555
H60 C74 1_555 1_555
C75 H61 1_555 1_555
H62 C75 1_555 1_555
C76 C75 1_555 1_555
C77 C70 1_555 1_555
C78 C77 1_555 1_555
C79 C78 1_555 1_555
C80 C79 1_555 1_555
C82 C77 1_555 1_555
C83 C79 1_555 1_555
C84 C83 1_555 1_555
H63 C84 1_555 1_555
C85 C84 1_555 1_555
H64 C85 1_555 1_555
C86 C85 1_555 1_555
C87 C86 1_555 1_555
H65 C87 1_555 1_555
C88 C83 1_555 1_555
H66 C88 1_555 1_555
C99 C78 1_555 1_555
H79 C99 1_555 1_555
H80 C99 1_555 1_555
H81 C99 1_555 1_555
O20 C73 1_555 1_555
O22 C76 1_555 1_555
O23 C76 1_555 1_555
O26 C75 1_555 1_555
O27 C67 1_555 1_555
Zn7 O20 1_555 1_555
O49 Zn1 1_555 1_555
O53 Zn7 1_555 1_555
O57_4 Zn2_4 1_555 1_555
Zn10 O22 1_555 1_555
Zn12 O4 1_555 1_555
Zn14 O3 1_555 1_555
C5 C6 1_555 1_555
C8 O8 1_555 1_555
C20 O7 1_555 1_555
C21 C22 1_555 1_555
O4 Zn14 1_555 1_555
O10_4 Zn2_4 1_555 1_555
C71 C72 1_555 1_555
C73 O41 1_555 1_555
C74 O27 1_555 1_555
C86 O26 1_555 1_555
C87 C88 1_555 1_555
O23 Zn10 1_555 1_555
O23 Zn14 1_555 1_555
H68 C89 1_555 1_555
H69 C89 1_555 1_555
C90 H70 1_555 1_555
H71 C90 1_555 1_555
C91 C90 1_555 1_555
C92 C93 1_555 1_555
C93 H72 1_555 1_555
C94 C93 1_555 1_555
H73 C94 1_555 1_555
C95 C81 1_555 1_555
C96 C95 1_555 1_555
H74 C96 1_555 1_555
C97 C92 1_555 1_555
H75 C97 1_555 1_555
H77 C98 1_555 1_555
H78 C98 1_555 1_555
O24 C91 1_555 1_555
O25 C91 1_555 1_555
O28 C90 1_555 1_555
Ru3 O24 1_555 1_555
C92 O28 1_555 1_555
C94 C95 1_555 1_555
C96 C97 1_555 1_555
O55_2 Ru3 1_555 1_555
O54_2 Ru3_2 1_555 1_555
C24_2 H16_2 1_555 1_555
H17_2 C24_2 1_555 1_555
C25_2 C24_2 1_555 1_555
O55_2 C25_2 1_555 1_555
O6_2 C25_2 1_555 1_555
O9_2 C24_2 1_555 1_555
C1_2 C2_2 1_555 1_555
C2_2 H1_2 1_555 1_555
C3_2 C2_2 1_555 1_555
H2_2 C3_2 1_555 1_555
C4_2 C3_2 1_555 1_555
C5_2 C4_2 1_555 1_555
H3_2 C5_2 1_555 1_555
C6_2 C1_2 1_555 1_555
C8_2 H5_2 1_555 1_555
H6_2 C8_2 1_555 1_555
C9_2 H7_2 1_555 1_555
H8_2 C9_2 1_555 1_555
C11_2 C4_2 1_555 1_555
C12_2 C11_2 1_555 1_555
C13_2 C12_2 1_555 1_555
C14_2 C13_2 1_555 1_555
C15_2 C14_2 1_555 1_555
C16_2 C11_2 1_555 1_555
C17_2 C13_2 1_555 1_555
C18_2 C17_2 1_555 1_555
H9_2 C18_2 1_555 1_555
C19_2 C18_2 1_555 1_555
H10_2 C19_2 1_555 1_555
C20_2 C19_2 1_555 1_555
C21_2 C20_2 1_555 1_555
C22_2 C17_2 1_555 1_555
H12_2 C22_2 1_555 1_555
C23_2 C14_2 1_555 1_555
H13_2 C23_2 1_555 1_555
H14_2 C23_2 1_555 1_555
H15_2 C23_2 1_555 1_555
C26_2 C27_2 1_555 1_555
C27_2 H18_2 1_555 1_555
C28_2 C27_2 1_555 1_555
H19_2 C28_2 1_555 1_555
C29_2 C15_2 1_555 1_555
C30_2 C29_2 1_555 1_555
H20_2 C30_2 1_555 1_555
C31_2 C26_2 1_555 1_555
C32_2 C16_2 1_555 1_555
H22_2 C32_2 1_555 1_555
H23_2 C32_2 1_555 1_555
H24_2 C32_2 1_555 1_555
C33_2 C12_2 1_555 1_555
H25_2 C33_2 1_555 1_555
H27_2 C33_2 1_555 1_555
Zn2_5 O2_2 1_555 1_555
O30_2 C106_2 1_555 1_555
O45 C109_2 1_555 1_555
Zn14 O30_2 1_555 1_555
O40_2 Zn2_5 1_555 1_555
O57_5 Zn2_5 1_555 1_555
Zn13 O2_2 1_555 1_555
C5_2 C6_2 1_555 1_555
C15_2 C16_2 1_555 1_555
C21_2 C22_2 1_555 1_555
C28_2 C29_2 1_555 1_555
C30_2 C31_2 1_555 1_555
Zn14 O40_2 1_555 1_555
Zn14 O57_5 1_555 1_555
O57_5 Zn13 1_555 1_555
O1_2 C7_2 1_555 1_555
O42 C10_2 1_555 1_555
O10_5 Zn10 1_555 1_555
Zn10 O1_2 1_555 1_555
C100_2 C101_2 1_555 1_555
C101_2 H82_2 1_555 1_555
C102_2 C101_2 1_555 1_555
H83_2 C102_2 1_555 1_555
C103_2 C102_2 1_555 1_555
C104_2 C103_2 1_555 1_555
H84_2 C104_2 1_555 1_555
C105_2 C100_2 1_555 1_555
C107_2 H86_2 1_555 1_555
H87_2 C107_2 1_555 1_555
C108_2 H88_2 1_555 1_555
H89_2 C108_2 1_555 1_555
C110_2 C103_2 1_555 1_555
C111_2 C110_2 1_555 1_555
C112_2 C111_2 1_555 1_555
C113_2 C112_2 1_555 1_555
C114_2 C113_2 1_555 1_555
C115_2 C110_2 1_555 1_555
C116_2 C112_2 1_555 1_555
C117_2 C116_2 1_555 1_555
H90_2 C117_2 1_555 1_555
C118_2 C117_2 1_555 1_555
H91_2 C118_2 1_555 1_555
C119_2 C118_2 1_555 1_555
C120_2 C119_2 1_555 1_555
C121_2 C116_2 1_555 1_555
H93_2 C121_2 1_555 1_555
C122_2 C113_2 1_555 1_555
H94_2 C122_2 1_555 1_555
H95_2 C122_2 1_555 1_555
H96_2 C122_2 1_555 1_555
C125_2 C126_2 1_555 1_555
C126_2 H99_2 1_555 1_555
C127_2 C126_2 1_555 1_555
H100_2 C127_2 1_555 1_555
C128_2 C114_2 1_555 1_555
C129_2 C128_2 1_555 1_555
H101_2 C129_2 1_555 1_555
C130_2 C125_2 1_555 1_555
C131_2 C115_2 1_555 1_555
H103_2 C131_2 1_555 1_555
H104_2 C131_2 1_555 1_555
H105_2 C131_2 1_555 1_555
C132_2 C111_2 1_555 1_555
H106_2 C132_2 1_555 1_555
H108_2 C132_2 1_555 1_555
O31_2 Zn10 1_555 1_555
O41_2 Zn2_6 1_555 1_555
Zn12 O10_5 1_555 1_555
O10_5 Zn2_6 1_555 1_555
Zn2_6 O31_2 1_555 1_555
C104_2 C105_2 1_555 1_555
C114_2 C115_2 1_555 1_555
C120_2 C121_2 1_555 1_555
C127_2 C128_2 1_555 1_555
C129_2 C130_2 1_555 1_555
O41_2 Zn12 1_555 1_555
C123_2 H97_2 1_555 1_555
H98_2 C123_2 1_555 1_555
C124_2 C123_2 1_555 1_555
O55 C124_2 1_555 1_555
O35_2 C124_2 1_555 1_555
O38_2 C123_2 1_555 1_555
C57_2 H43_2 1_555 1_555
H44_2 C57_2 1_555 1_555
C58_2 C57_2 1_555 1_555
O16_2 C58_2 1_555 1_555
O19_2 C57_2 1_555 1_555
C58_2 O54_2 1_555 1_555
C34_2 C35_2 1_555 1_555
C35_2 H28_2 1_555 1_555
C36_2 C35_2 1_555 1_555
H29_2 C36_2 1_555 1_555
C37_2 C36_2 1_555 1_555
C38_2 C37_2 1_555 1_555
H30_2 C38_2 1_555 1_555
C39_2 C34_2 1_555 1_555
C41_2 H32_2 1_555 1_555
H33_2 C41_2 1_555 1_555
C42_2 H34_2 1_555 1_555
H35_2 C42_2 1_555 1_555
C44_2 C37_2 1_555 1_555
C45_2 C44_2 1_555 1_555
C46_2 C45_2 1_555 1_555
C47_2 C46_2 1_555 1_555
C48_2 C47_2 1_555 1_555
C49_2 C44_2 1_555 1_555
C50_2 C46_2 1_555 1_555
C51_2 C50_2 1_555 1_555
H36_2 C51_2 1_555 1_555
C52_2 C51_2 1_555 1_555
H37_2 C52_2 1_555 1_555
C53_2 C52_2 1_555 1_555
C54_2 C53_2 1_555 1_555
C55_2 C50_2 1_555 1_555
H39_2 C55_2 1_555 1_555
C56_2 C47_2 1_555 1_555
H40_2 C56_2 1_555 1_555
H41_2 C56_2 1_555 1_555
H42_2 C56_2 1_555 1_555
C59_2 C60_2 1_555 1_555
C60_2 H45_2 1_555 1_555
C61_2 C60_2 1_555 1_555
H46_2 C61_2 1_555 1_555
C62_2 C48_2 1_555 1_555
C63_2 C62_2 1_555 1_555
H47_2 C63_2 1_555 1_555
C64_2 C59_2 1_555 1_555
C65_2 C49_2 1_555 1_555
H49_2 C65_2 1_555 1_555
H50_2 C65_2 1_555 1_555
H51_2 C65_2 1_555 1_555
C66_2 C45_2 1_555 1_555
H52_2 C66_2 1_555 1_555
H54_2 C66_2 1_555 1_555
O20_2 C73_2 1_555 1_555
O44 C76_2 1_555 1_555
Zn13 O20_2 1_555 1_555
C38_2 C39_2 1_555 1_555
C48_2 C49_2 1_555 1_555
C54_2 C55_2 1_555 1_555
C61_2 C62_2 1_555 1_555
C63_2 C64_2 1_555 1_555
O11_2 C40_2 1_555 1_555
O43 C43_2 1_555 1_555
Zn12 O11_2 1_555 1_555
C67_2 C68_2 1_555 1_555
C68_2 H55_2 1_555 1_555
C69_2 C68_2 1_555 1_555
H56_2 C69_2 1_555 1_555
C70_2 C69_2 1_555 1_555
C71_2 C70_2 1_555 1_555
H57_2 C71_2 1_555 1_555
C72_2 C67_2 1_555 1_555
C74_2 H59_2 1_555 1_555
H60_2 C74_2 1_555 1_555
C75_2 H61_2 1_555 1_555
H62_2 C75_2 1_555 1_555
C77_2 C70_2 1_555 1_555
C78_2 C77_2 1_555 1_555
C79_2 C78_2 1_555 1_555
C80_2 C79_2 1_555 1_555
C81_2 C80_2 1_555 1_555
C82_2 C77_2 1_555 1_555
C83_2 C79_2 1_555 1_555
C84_2 C83_2 1_555 1_555
H63_2 C84_2 1_555 1_555
C85_2 C84_2 1_555 1_555
H64_2 C85_2 1_555 1_555
C86_2 C85_2 1_555 1_555
C87_2 C86_2 1_555 1_555
C88_2 C83_2 1_555 1_555
H66_2 C88_2 1_555 1_555
C89_2 C80_2 1_555 1_555
H67_2 C89_2 1_555 1_555
H68_2 C89_2 1_555 1_555
H69_2 C89_2 1_555 1_555
C92_2 C93_2 1_555 1_555
C93_2 H72_2 1_555 1_555
C94_2 C93_2 1_555 1_555
H73_2 C94_2 1_555 1_555
C95_2 C81_2 1_555 1_555
C96_2 C95_2 1_555 1_555
H74_2 C96_2 1_555 1_555
C97_2 C92_2 1_555 1_555
C98_2 C82_2 1_555 1_555
H76_2 C98_2 1_555 1_555
H77_2 C98_2 1_555 1_555
H78_2 C98_2 1_555 1_555
C99_2 C78_2 1_555 1_555
H79_2 C99_2 1_555 1_555
H81_2 C99_2 1_555 1_555
C71_2 C72_2 1_555 1_555
C81_2 C82_2 1_555 1_555
C87_2 C88_2 1_555 1_555
C94_2 C95_2 1_555 1_555
C96_2 C97_2 1_555 1_555
C90_2 H70_2 1_555 1_555
H71_2 C90_2 1_555 1_555
C91_2 C90_2 1_555 1_555
O54 C91_2 1_555 1_555
O25_2 C91_2 1_555 1_555
O28_2 C90_2 1_555 1_555

#END
