
###############################################################################
#
# This file contains modified crystal structure data generated from the
# MOF subset of the Cambridge Structural Database (CSD) v543 
# hosted by the Cambridge Crystallographic Data Centre (CCDC).
#
# This work is licensed under the Creative Commons
# Attribution-NonCommercial-ShareAlike 4.0 International License.
# To view a copy of this license, visit
# http://creativecommons.org/licenses/by-nc-sa/4.0/
# or send a letter to
# Creative Commons, PO Box 1866, Mountain View, CA 94042, USA.
#
# CIF created using the CSD Python API on 29 September 2022
# The structure has been converted into the P1 space group
# The structure has a 3D framework
# The original CSD entry TOXMUQ is in the tetragonal crystal system
# The original CSD entry TOXMUQ is in a Sohncke space group
# The framework has been calculated to contain at least 10.0% void space
# The void calculation uses a probe of radius 1.32A, grid spacing 0.4
#
###############################################################################

data_TOXMUQ
_chemical_formula_moiety         '(C84 H38 Al6 O32)n'
_symmetry_cell_setting           triclinic
_symmetry_space_group_name_H-M   'P 1'
_symmetry_Int_Tables_number      1
_space_group_name_Hall           'P 1'
loop_
_symmetry_equiv_pos_site_id
_symmetry_equiv_pos_as_xyz
1 x,y,z
_cell_length_a                   14.82280(13)
_cell_length_b                   14.82280(13)
_cell_length_c                   11.79190(10)
_cell_angle_alpha                90
_cell_angle_beta                 90
_cell_angle_gamma                90
_cell_volume                     2590.86
loop_
_atom_site_label
_atom_site_type_symbol
_atom_site_fract_x
_atom_site_fract_y
_atom_site_fract_z
_atom_site_U_iso_or_equiv
_atom_site_thermal_displace_type
O4 O 0.71355(13) 0.39613(13) 0.24610(19) 0.0038 Uiso
O5 O 0.62081(14) 0.37512(14) 0.39396(15) 0.0038 Uiso
C6 C 0.64397(21) 0.41008(23) 0.30126(25) 0.0038 Uiso
C7 C 0.57124(13) 0.46119(19) 0.23794(15) 0.0038 Uiso
C8 C 0.500 0.500 0.29438(15) 0.0038 Uiso
C9 C 0.570950(93) 0.46233(12) 0.11875(15) 0.0038 Uiso
C10 C 0.500 0.500 0.06281(17) 0.0038 Uiso
H4 H 0.500 0.500 0.3710(12) 0.0046 Uiso
H5 H 0.61838 0.42682 0.09265 0.0046 Uiso
O8 O 0.28645(13) 0.60387(13) 0.24610(19) 0.0038 Uiso
O9 O 0.37919(14) 0.62488(14) 0.39396(15) 0.0038 Uiso
C14 C 0.35603(21) 0.58992(23) 0.30126(25) 0.0038 Uiso
C15 C 0.42876(13) 0.53881(19) 0.23794(15) 0.0038 Uiso
C16 C 0.429050(93) 0.53767(12) 0.11875(15) 0.0038 Uiso
H7 H 0.38162 0.57318 0.09265 0.0046 Uiso
Al2 Al 0.805850(79) 0.305850(79) 0.250 0.0080 Uiso
O10 O 0.74448(18) 0.250 0.125 0.0038 Uiso
H8 H 0.68514 0.250 0.125 0.0046 Uiso
Al3 Al 0.805850(79) 0.194150(79) 0.000 0.0080 Uiso
Al4 Al 0.694150(79) 0.305850(79) 0.500 0.0080 Uiso
Al7 Al 0.305850(79) 0.694150(79) 0.500 0.0080 Uiso
Al9 Al 0.194150(79) 0.694150(79) 0.250 0.0080 Uiso
O12 O 0.750 0.24448(18) 0.375 0.0038 Uiso
O13 O 0.89613(13) 0.21355(13) 0.25390(19) 0.0038 Uiso
O16 O 0.87512(14) 0.37919(14) 0.14396(15) 0.0038 Uiso
O18 O 0.87919(14) 0.37512(14) 0.35604(15) 0.0038 Uiso
O1 O 0.75552(18) 0.250 0.625 0.0038 Uiso
O2 O 0.60387(13) 0.28645(13) 0.75390(19) 0.0038 Uiso
O3 O 0.62488(14) 0.37919(14) 0.60604(15) 0.0038 Uiso
C1 C 0.58992(23) 0.35603(21) 0.69874(25) 0.0038 Uiso
C2 C 0.53881(19) 0.42876(13) 0.76206(15) 0.0038 Uiso
C3 C 0.500 0.500 0.70562(15) 0.0038 Uiso
C4 C 0.53767(12) 0.429050(93) 0.88125(15) 0.0038 Uiso
C5 C 0.500 0.500 0.93719(17) 0.0038 Uiso
H1 H 0.81486 0.250 0.625 0.0046 Uiso
H2 H 0.500 0.500 0.6290(12) 0.0046 Uiso
H3 H 0.57318 0.38162 0.90735 0.0046 Uiso
O6 O 0.39613(13) 0.71355(13) 0.75390(19) 0.0038 Uiso
O7 O 0.37512(14) 0.62081(14) 0.60604(15) 0.0038 Uiso
C11 C 0.41008(23) 0.64397(21) 0.69874(25) 0.0038 Uiso
C12 C 0.46119(19) 0.57124(13) 0.76206(15) 0.0038 Uiso
C13 C 0.46233(12) 0.570950(93) 0.88125(15) 0.0038 Uiso
H6 H 0.42682 0.61838 0.90735 0.0046 Uiso
Al3_2 Al 0.805850(79) 0.194150(79) 1.000 0.0080 Uiso
Al5 Al 0.694150(79) 0.194150(79) 0.750 0.0080 Uiso
Al8 Al 0.305850(79) 0.805850(79) 0.750 0.0080 Uiso
O14 O 0.78645(13) 0.39613(13) 0.50390(19) 0.0038 Uiso
O15 O 0.60387(13) 0.21355(13) 0.49610(19) 0.0038 Uiso
Al7_2 Al 0.194150(79) 0.805850(79) 0.000 0.0080 Uiso
C3_2 C -0.000 1.000 0.20562(15) 0.0038 Uiso
C5_2 C -0.000 1.000 0.43719(17) 0.0038 Uiso
H2_2 H -0.000 1.000 0.1290(12) 0.0046 Uiso
C8_2 C -0.000 1.000 0.79438(15) 0.0038 Uiso
C10_2 C -0.000 1.000 0.56281(17) 0.0038 Uiso
H4_2 H -0.000 1.000 0.8710(12) 0.0046 Uiso
O6_2 O 0.10387(13) 0.78645(13) 0.25390(19) 0.0038 Uiso
O7_2 O 0.12488(14) 0.87919(14) 0.10604(15) 0.0038 Uiso
C11_2 C 0.08992(23) 0.85603(21) 0.19874(25) 0.0038 Uiso
C12_2 C 0.03881(19) 0.92876(13) 0.26206(15) 0.0038 Uiso
C13_2 C 0.03767(12) 0.929050(93) 0.38125(15) 0.0038 Uiso
H6_2 H 0.07318 0.88162 0.40735 0.0046 Uiso
O8_2 O 0.21355(13) 0.89613(13) 0.74610(19) 0.0038 Uiso
O9_2 O 0.12081(14) 0.87512(14) 0.89396(15) 0.0038 Uiso
C14_2 C 0.14397(21) 0.91008(23) 0.80126(25) 0.0038 Uiso
C15_2 C 0.07124(13) 0.96119(19) 0.73794(15) 0.0038 Uiso
C16_2 C 0.070950(93) 0.96233(12) 0.61875(15) 0.0038 Uiso
H7_2 H 0.11838 0.92682 0.59265 0.0046 Uiso
Al7_3 Al 0.194150(79) 0.805850(79) 1.000 0.0080 Uiso
O3_2 O 0.87512(14) 0.12081(14) 0.10604(15) 0.0038 Uiso
C1_2 C 0.91008(23) 0.14397(21) 0.19874(25) 0.0038 Uiso
C2_2 C 0.96119(19) 0.07124(13) 0.26206(15) 0.0038 Uiso
C3_3 C 1.000 -0.000 0.20562(15) 0.0038 Uiso
C4_2 C 0.96233(12) 0.070950(93) 0.38125(15) 0.0038 Uiso
C5_3 C 1.000 -0.000 0.43719(17) 0.0038 Uiso
H2_3 H 1.000 -0.000 0.1290(12) 0.0046 Uiso
H3_2 H 0.92682 0.11838 0.40735 0.0046 Uiso
O4_2 O 0.78645(13) 0.10387(13) 0.74610(19) 0.0038 Uiso
O5_2 O 0.87919(14) 0.12488(14) 0.89396(15) 0.0038 Uiso
C6_2 C 0.85603(21) 0.08992(23) 0.80126(25) 0.0038 Uiso
C7_2 C 0.92876(13) 0.03881(19) 0.73794(15) 0.0038 Uiso
C8_3 C 1.000 0.000 0.79438(15) 0.0038 Uiso
C9_2 C 0.929050(93) 0.03767(12) 0.61875(15) 0.0038 Uiso
C10_3 C 1.000 -0.000 0.56281(17) 0.0038 Uiso
H4_3 H 1.000 0.000 0.8710(12) 0.0046 Uiso
H5_2 H 0.88162 0.07318 0.59265 0.0046 Uiso
O12_2 O 0.750 0.25552(18) 0.875 0.0038 Uiso
O14_2 O 0.71355(13) 0.10387(13) 0.00390(19) 0.0038 Uiso
O16_2 O 0.62488(14) 0.12081(14) 0.64396(15) 0.0038 Uiso
O18_2 O 0.62081(14) 0.12488(14) 0.85604(15) 0.0038 Uiso
O15_2 O 0.89613(13) 0.28645(13) 0.99610(19) 0.0038 Uiso
C3_4 C -0.000 0.500 0.04438(15) 0.0038 Uiso
H2_4 H -0.000 0.500 0.1210(12) 0.0046 Uiso
O7_3 O 0.12488(14) 0.62081(14) 0.14396(15) 0.0038 Uiso
C11_3 C 0.08992(23) 0.64397(21) 0.05126(25) 0.0038 Uiso
C5_4 C -0.000 0.500 0.81281(17) 0.0038 Uiso
C8_4 C -0.000 0.500 0.45562(15) 0.0038 Uiso
C10_4 C -0.000 0.500 0.68719(17) 0.0038 Uiso
H4_4 H -0.000 0.500 0.3790(12) 0.0046 Uiso
O6_3 O 0.10387(13) 0.71355(13) 0.99610(19) 0.0038 Uiso
C12_3 C 0.03881(19) 0.57124(13) 0.98794(15) 0.0038 Uiso
C13_3 C 0.03767(12) 0.570950(93) 0.86875(15) 0.0038 Uiso
H6_3 H 0.07318 0.61838 0.84265 0.0046 Uiso
O8_3 O 0.21355(13) 0.60387(13) 0.50390(19) 0.0038 Uiso
O9_3 O 0.12081(14) 0.62488(14) 0.35604(15) 0.0038 Uiso
C14_3 C 0.14397(21) 0.58992(23) 0.44874(25) 0.0038 Uiso
C15_3 C 0.07124(13) 0.53881(19) 0.51206(15) 0.0038 Uiso
C16_3 C 0.070950(93) 0.53767(12) 0.63125(15) 0.0038 Uiso
H7_3 H 0.11838 0.57318 0.65735 0.0046 Uiso
C1_3 C 0.91008(23) 0.35603(21) 0.05126(25) 0.0038 Uiso
C3_5 C 1.000 0.500 0.04438(15) 0.0038 Uiso
H2_5 H 1.000 0.500 0.1210(12) 0.0046 Uiso
C2_3 C 0.96119(19) 0.42876(13) 0.98794(15) 0.0038 Uiso
C4_3 C 0.96233(12) 0.429050(93) 0.86875(15) 0.0038 Uiso
C5_5 C 1.000 0.500 0.81281(17) 0.0038 Uiso
H3_3 H 0.92682 0.38162 0.84265 0.0046 Uiso
C6_3 C 0.85603(21) 0.41008(23) 0.44874(25) 0.0038 Uiso
C7_3 C 0.92876(13) 0.46119(19) 0.51206(15) 0.0038 Uiso
C8_5 C 1.000 0.500 0.45562(15) 0.0038 Uiso
C9_3 C 0.929050(93) 0.46233(12) 0.63125(15) 0.0038 Uiso
C10_5 C 1.000 0.500 0.68719(17) 0.0038 Uiso
H4_5 H 1.000 0.500 0.3790(12) 0.0046 Uiso
H5_3 H 0.88162 0.42682 0.65735 0.0046 Uiso
H1_2 H 0.750 0.18514 0.375 0.0046 Uiso
H8_2 H 0.750 0.31486 0.875 0.0046 Uiso
C2_4 C 0.57124(13) 0.03881(19) 0.01206(15) 0.0038 Uiso
C4_4 C 0.570950(93) 0.03767(12) 0.13125(15) 0.0038 Uiso
C5_6 C 0.500 0.000 0.18719(17) 0.0038 Uiso
H3_4 H 0.61838 0.07318 0.15735 0.0046 Uiso
C6_4 C 0.58992(23) 0.14397(21) 0.55126(25) 0.0038 Uiso
C7_4 C 0.53881(19) 0.07124(13) 0.48794(15) 0.0038 Uiso
C8_6 C 0.500 0.000 0.54438(15) 0.0038 Uiso
C9_4 C 0.53767(12) 0.070950(93) 0.36875(15) 0.0038 Uiso
C10_6 C 0.500 0.000 0.31281(17) 0.0038 Uiso
H4_6 H 0.500 0.000 0.6210(12) 0.0046 Uiso
H5_4 H 0.57318 0.11838 0.34265 0.0046 Uiso
C1_4 C 0.64397(21) 0.08992(23) 0.94874(25) 0.0038 Uiso
C3_6 C 0.500 0.000 0.95562(15) 0.0038 Uiso
H2_6 H 0.500 0.000 0.8790(12) 0.0046 Uiso
C5_7 C 0.500 1.000 0.18719(17) 0.0038 Uiso
C8_7 C 0.500 1.000 0.54438(15) 0.0038 Uiso
C10_7 C 0.500 1.000 0.31281(17) 0.0038 Uiso
H4_7 H 0.500 1.000 0.6210(12) 0.0046 Uiso
O6_4 O 0.28645(13) 0.89613(13) 0.00390(19) 0.0038 Uiso
C12_4 C 0.42876(13) 0.96119(19) 0.01206(15) 0.0038 Uiso
C13_4 C 0.429050(93) 0.96233(12) 0.13125(15) 0.0038 Uiso
H6_4 H 0.38162 0.92682 0.15735 0.0046 Uiso
O8_4 O 0.39613(13) 0.78645(13) 0.49610(19) 0.0038 Uiso
O9_4 O 0.37512(14) 0.87919(14) 0.64396(15) 0.0038 Uiso
C14_4 C 0.41008(23) 0.85603(21) 0.55126(25) 0.0038 Uiso
C15_4 C 0.46119(19) 0.92876(13) 0.48794(15) 0.0038 Uiso
C16_4 C 0.46233(12) 0.929050(93) 0.36875(15) 0.0038 Uiso
H7_4 H 0.42682 0.88162 0.34265 0.0046 Uiso
C3_7 C 0.500 1.000 0.95562(15) 0.0038 Uiso
H2_7 H 0.500 1.000 0.8790(12) 0.0046 Uiso
O7_4 O 0.37919(14) 0.87512(14) 0.85604(15) 0.0038 Uiso
C11_4 C 0.35603(21) 0.91008(23) 0.94874(25) 0.0038 Uiso
O10_2 O 0.25552(18) 0.750 0.125 0.0038 Uiso
H8_3 H 0.31486 0.750 0.125 0.0046 Uiso
O12_3 O 0.250 0.75552(18) 0.375 0.0038 Uiso
O1_2 O 0.24448(18) 0.750 0.625 0.0038 Uiso
H1_3 H 0.18514 0.750 0.625 0.0046 Uiso
O11 O 0.250 0.74448(18) 0.875 0.0038 Uiso
H1_4 H 0.250 0.68514 0.875 0.0046 Uiso
H8_4 H 0.250 0.81486 0.375 0.0046 Uiso
C3_8 C -0.000 -0.000 0.20562(15) 0.0038 Uiso
C5_8 C -0.000 -0.000 0.43719(17) 0.0038 Uiso
H2_8 H -0.000 -0.000 0.1290(12) 0.0046 Uiso
C8_8 C -0.000 0.000 0.79438(15) 0.0038 Uiso
C10_8 C -0.000 -0.000 0.56281(17) 0.0038 Uiso
H4_8 H -0.000 0.000 0.8710(12) 0.0046 Uiso
C3_9 C 1.000 1.000 0.20562(15) 0.0038 Uiso
C5_9 C 1.000 1.000 0.43719(17) 0.0038 Uiso
H2_9 H 1.000 1.000 0.1290(12) 0.0046 Uiso
C8_9 C 1.000 1.000 0.79438(15) 0.0038 Uiso
C10_9 C 1.000 1.000 0.56281(17) 0.0038 Uiso
H4_9 H 1.000 1.000 0.8710(12) 0.0046 Uiso
loop_
_geom_bond_atom_site_label_1
_geom_bond_atom_site_label_2
_geom_bond_site_symmetry_1
_geom_bond_site_symmetry_2
O4 C6 1_555 1_555
O5 C6 1_555 1_555
C6 C7 1_555 1_555
C7 C8 1_555 1_555
C8 H4 1_555 1_555
C9 C7 1_555 1_555
H5 C9 1_555 1_555
O8 C14 1_555 1_555
O9 C14 1_555 1_555
C14 C15 1_555 1_555
C15 C8 1_555 1_555
C16 C10 1_555 1_555
H7 C16 1_555 1_555
Al2 O4 1_555 1_555
O10 Al2 1_555 1_555
H8 O10 1_555 1_555
Al3 O10 1_555 1_555
Al4 O5 1_555 1_555
Al7 O9 1_555 1_555
Al9 O8 1_555 1_555
O12 Al2 1_555 1_555
O13 Al2 1_555 1_555
O16 Al2 1_555 1_555
O18 Al2 1_555 1_555
C9 C10 1_555 1_555
C15 C16 1_555 1_555
Al4 O12 1_555 1_555
Al4 O1 1_555 1_555
O1 H1 1_555 1_555
O2 C1 1_555 1_555
O3 Al4 1_555 1_555
C1 O3 1_555 1_555
C2 C1 1_555 1_555
C3 C2 1_555 1_555
C4 C2 1_555 1_555
C5 C4 1_555 1_555
H2 C3 1_555 1_555
H3 C4 1_555 1_555
O6 C11 1_555 1_555
O7 C11 1_555 1_555
C11 C12 1_555 1_555
C12 C3 1_555 1_555
C13 C5 1_555 1_555
H6 C13 1_555 1_555
Al5 O1 1_555 1_555
Al7 O7 1_555 1_555
Al8 O6 1_555 1_555
O14 Al4 1_555 1_555
O15 Al4 1_555 1_555
O2 Al5 1_555 1_555
C12 C13 1_555 1_555
H2_2 C3_2 1_555 1_555
C8_2 H4_2 1_555 1_555
C10_2 C5_2 1_555 1_555
O6_2 C11_2 1_555 1_555
O7_2 C11_2 1_555 1_555
C11_2 C12_2 1_555 1_555
C12_2 C3_2 1_555 1_555
C13_2 C5_2 1_555 1_555
H6_2 C13_2 1_555 1_555
O8_2 C14_2 1_555 1_555
O9_2 C14_2 1_555 1_555
C14_2 C15_2 1_555 1_555
C15_2 C8_2 1_555 1_555
C16_2 C10_2 1_555 1_555
H7_2 C16_2 1_555 1_555
Al7_2 O7_2 1_555 1_555
Al7_3 O9_2 1_555 1_555
Al9 O6_2 1_555 1_555
Al8 O8_2 1_555 1_555
C12_2 C13_2 1_555 1_555
C15_2 C16_2 1_555 1_555
O13 C1_2 1_555 1_555
O3_2 Al3 1_555 1_555
C1_2 O3_2 1_555 1_555
C2_2 C1_2 1_555 1_555
C3_3 C2_2 1_555 1_555
C4_2 C2_2 1_555 1_555
C5_3 C4_2 1_555 1_555
H2_3 C3_3 1_555 1_555
H3_2 C4_2 1_555 1_555
O4_2 C6_2 1_555 1_555
O5_2 C6_2 1_555 1_555
C6_2 C7_2 1_555 1_555
C7_2 C8_3 1_555 1_555
C8_3 H4_3 1_555 1_555
C9_2 C7_2 1_555 1_555
C10_3 C5_3 1_555 1_555
H5_2 C9_2 1_555 1_555
Al5 O4_2 1_555 1_555
Al3_2 O5_2 1_555 1_555
O12_2 Al5 1_555 1_555
O14_2 Al3 1_555 1_555
O16_2 Al5 1_555 1_555
O18_2 Al5 1_555 1_555
C9_2 C10_3 1_555 1_555
Al3_2 O12_2 1_555 1_555
O15_2 Al3_2 1_555 1_555
H2_4 C3_4 1_555 1_555
O7_3 C11_3 1_555 1_555
Al9 O7_3 1_555 1_555
C8_4 H4_4 1_555 1_555
C10_4 C5_4 1_555 1_555
C13_3 C5_4 1_555 1_555
H6_3 C13_3 1_555 1_555
O8_3 C14_3 1_555 1_555
O9_3 C14_3 1_555 1_555
C14_3 C15_3 1_555 1_555
C15_3 C8_4 1_555 1_555
C16_3 C10_4 1_555 1_555
H7_3 C16_3 1_555 1_555
Al9 O9_3 1_555 1_555
Al7_3 O6_3 1_555 1_555
Al7 O8_3 1_555 1_555
C12_3 C13_3 1_555 1_555
C15_3 C16_3 1_555 1_555
C1_3 O16 1_555 1_555
H2_5 C3_5 1_555 1_555
C4_3 C2_3 1_555 1_555
C5_5 C4_3 1_555 1_555
H3_3 C4_3 1_555 1_555
O14 C6_3 1_555 1_555
O18 C6_3 1_555 1_555
C6_3 C7_3 1_555 1_555
C7_3 C8_5 1_555 1_555
C8_5 H4_5 1_555 1_555
C9_3 C7_3 1_555 1_555
C10_5 C5_5 1_555 1_555
H5_3 C9_3 1_555 1_555
C9_3 C10_5 1_555 1_555
O12 H1_2 1_555 1_555
H8_2 O12_2 1_555 1_555
C4_4 C2_4 1_555 1_555
C5_6 C4_4 1_555 1_555
H3_4 C4_4 1_555 1_555
O15 C6_4 1_555 1_555
O16_2 C6_4 1_555 1_555
C6_4 C7_4 1_555 1_555
C7_4 C8_6 1_555 1_555
C8_6 H4_6 1_555 1_555
C9_4 C7_4 1_555 1_555
C10_6 C5_6 1_555 1_555
H5_4 C9_4 1_555 1_555
C9_4 C10_6 1_555 1_555
C1_4 O18_2 1_555 1_555
H2_6 C3_6 1_555 1_555
C8_7 H4_7 1_555 1_555
C10_7 C5_7 1_555 1_555
C13_4 C5_7 1_555 1_555
H6_4 C13_4 1_555 1_555
O8_4 C14_4 1_555 1_555
O9_4 C14_4 1_555 1_555
C14_4 C15_4 1_555 1_555
C15_4 C8_7 1_555 1_555
C16_4 C10_7 1_555 1_555
H7_4 C16_4 1_555 1_555
Al8 O9_4 1_555 1_555
Al7_2 O6_4 1_555 1_555
Al7 O8_4 1_555 1_555
C12_4 C13_4 1_555 1_555
C15_4 C16_4 1_555 1_555
H2_7 C3_7 1_555 1_555
O7_4 C11_4 1_555 1_555
Al8 O7_4 1_555 1_555
O10_2 Al9 1_555 1_555
H8_3 O10_2 1_555 1_555
Al7_2 O10_2 1_555 1_555
O12_3 Al9 1_555 1_555
Al7 O12_3 1_555 1_555
Al7 O1_2 1_555 1_555
O1_2 H1_3 1_555 1_555
Al8 O1_2 1_555 1_555
O11 Al8 1_555 1_555
O11 Al7_3 1_555 1_555
O11 H1_4 1_555 1_555
H8_4 O12_3 1_555 1_555
H2_8 C3_8 1_555 1_555
C8_8 H4_8 1_555 1_555
C10_8 C5_8 1_555 1_555
H2_9 C3_9 1_555 1_555
C8_9 H4_9 1_555 1_555
C10_9 C5_9 1_555 1_555

#END
