
###############################################################################
#
# This file contains modified crystal structure data generated from the
# MOF subset of the Cambridge Structural Database (CSD) v543 
# hosted by the Cambridge Crystallographic Data Centre (CCDC).
#
# This work is licensed under the Creative Commons
# Attribution-NonCommercial-ShareAlike 4.0 International License.
# To view a copy of this license, visit
# http://creativecommons.org/licenses/by-nc-sa/4.0/
# or send a letter to
# Creative Commons, PO Box 1866, Mountain View, CA 94042, USA.
#
# CIF created using the CSD Python API on 29 September 2022
# The structure has been converted into the P1 space group
# The structure has a 3D framework
# The original CSD entry TOXNAX is in the tetragonal crystal system
# The original CSD entry TOXNAX is in a Sohncke space group
# The framework has been calculated to contain at least 10.0% void space
# The void calculation uses a probe of radius 1.32A, grid spacing 0.4
#
###############################################################################

data_TOXNAX
_chemical_formula_moiety         '(C84 H40 Al6 O38)n'
_symmetry_cell_setting           triclinic
_symmetry_space_group_name_H-M   'P 1'
_symmetry_Int_Tables_number      1
_space_group_name_Hall           'P 1'
loop_
_symmetry_equiv_pos_site_id
_symmetry_equiv_pos_as_xyz
1 x,y,z
_cell_length_a                   14.804690(33)
_cell_length_b                   14.804690(33)
_cell_length_c                   11.801726(35)
_cell_angle_alpha                90
_cell_angle_beta                 90
_cell_angle_gamma                90
_cell_volume                     2586.69
loop_
_atom_site_label
_atom_site_type_symbol
_atom_site_fract_x
_atom_site_fract_y
_atom_site_fract_z
_atom_site_U_iso_or_equiv
_atom_site_thermal_displace_type
O4 O 0.62053(30) 0.37767(28) 0.39631(21) 0.0063 Uiso
O5 O 0.71516(20) 0.39527(30) 0.25286(25) 0.0063 Uiso
C6 C 0.64009(18) 0.40695(22) 0.29973(18) 0.0125 Uiso
C7 C 0.570581(62) 0.458259(79) 0.23748(15) 0.0125 Uiso
C8 C 0.50000 0.50000 0.29687(18) 0.0125 Uiso
C9 C 0.570581(62) 0.458259(79) 0.11870(11) 0.0125 Uiso
C10 C 0.50000 0.50000 0.05931(10) 0.0125 Uiso
H4 H 0.500 0.500 0.38584(18) 0.0150 Uiso
H5 H 0.623449(89) 0.42699(13) 0.07422(11) 0.0150 Uiso
O6 O 0.37947(30) 0.62233(28) 0.39631(21) 0.0063 Uiso
O7 O 0.28484(20) 0.60473(30) 0.25286(25) 0.0063 Uiso
C11 C 0.35991(18) 0.59305(22) 0.29973(18) 0.0125 Uiso
C12 C 0.429419(62) 0.541741(79) 0.23748(15) 0.0125 Uiso
C13 C 0.429419(62) 0.541741(79) 0.11870(11) 0.0125 Uiso
H6 H 0.376551(89) 0.57301(13) 0.07422(11) 0.0150 Uiso
Al2 Al 0.805847(49) 0.305847(49) 0.25000 0.0119 Uiso
O10 O 0.74599(12) 0.25000 0.125 0.0063 Uiso
H8 H 0.68520(12) 0.250 0.125 0.0076 Uiso
Al3 Al 0.694153(49) 0.305847(49) 0.50000 0.0119 Uiso
Al5 Al 0.805847(49) 0.194153(49) -0.00000 0.0119 Uiso
Al7 Al 0.194153(49) 0.694153(49) 0.25000 0.0119 Uiso
Al9 Al 0.305847(49) 0.694153(49) 0.50000 0.0119 Uiso
O12 O 0.75000 0.24599(12) 0.375 0.0063 Uiso
O13 O 0.87767(28) 0.37947(30) 0.14631(21) 0.0063 Uiso
O15 O 0.87947(30) 0.37767(28) 0.35369(21) 0.0063 Uiso
O18 O 0.89527(30) 0.21516(20) 0.24714(25) 0.0063 Uiso
O1 O 0.75401(12) 0.25000 0.625 0.0063 Uiso
O2 O 0.62233(28) 0.37947(30) 0.60369(21) 0.0063 Uiso
O3 O 0.60473(30) 0.28484(20) 0.74714(25) 0.0063 Uiso
C1 C 0.59305(22) 0.35991(18) 0.70027(18) 0.0125 Uiso
C2 C 0.541741(79) 0.429419(62) 0.76252(15) 0.0125 Uiso
C3 C 0.50000 0.50000 0.70313(18) 0.0125 Uiso
C4 C 0.541741(79) 0.429419(62) 0.88130(11) 0.0125 Uiso
C5 C 0.50000 0.50000 0.94069(10) 0.0125 Uiso
H1 H 0.81480(12) 0.250 0.625 0.0076 Uiso
H2 H 0.500 0.500 0.61416(18) 0.0150 Uiso
H3 H 0.57301(13) 0.376551(89) 0.92578(11) 0.0150 Uiso
O8 O 0.37767(28) 0.62053(30) 0.60369(21) 0.0063 Uiso
O9 O 0.39527(30) 0.71516(20) 0.74714(25) 0.0063 Uiso
C14 C 0.40695(22) 0.64009(18) 0.70027(18) 0.0125 Uiso
C15 C 0.458259(79) 0.570581(62) 0.76252(15) 0.0125 Uiso
C16 C 0.458259(79) 0.570581(62) 0.88130(11) 0.0125 Uiso
H7 H 0.42699(13) 0.623449(89) 0.92578(11) 0.0150 Uiso
Al4 Al 0.694153(49) 0.194153(49) 0.75000 0.0119 Uiso
Al5_2 Al 0.805847(49) 0.194153(49) 1.00000 0.0119 Uiso
Al6 Al 0.305847(49) 0.805847(49) 0.75000 0.0119 Uiso
O16 O 0.78484(20) 0.39527(30) 0.49714(25) 0.0063 Uiso
O17 O 0.60473(30) 0.21516(20) 0.50286(25) 0.0063 Uiso
C3_2 C -0.00000 0.50000 0.04687(18) 0.0125 Uiso
H2_2 H -0.000 0.500 0.13584(18) 0.0150 Uiso
O8_2 O 0.12233(28) 0.62053(30) 0.14631(21) 0.0063 Uiso
O9_2 O 0.10473(30) 0.71516(20) 0.00286(25) 0.0063 Uiso
C14_2 C 0.09305(22) 0.64009(18) 0.04973(18) 0.0125 Uiso
Al6_2 Al 0.194153(49) 0.805847(49) 0.00000 0.0119 Uiso
C5_2 C -0.00000 0.50000 0.80931(10) 0.0125 Uiso
C8_2 C 0.00000 0.50000 0.45313(18) 0.0125 Uiso
C10_2 C -0.00000 0.50000 0.69069(10) 0.0125 Uiso
H4_2 H 0.000 0.500 0.36416(18) 0.0150 Uiso
O6_2 O 0.12053(30) 0.62233(28) 0.35369(21) 0.0063 Uiso
O7_2 O 0.21516(20) 0.60473(30) 0.49714(25) 0.0063 Uiso
C11_2 C 0.14009(18) 0.59305(22) 0.45027(18) 0.0125 Uiso
C12_2 C 0.070581(62) 0.541741(79) 0.51252(15) 0.0125 Uiso
C13_2 C 0.070581(62) 0.541741(79) 0.63130(11) 0.0125 Uiso
H6_2 H 0.123449(89) 0.57301(13) 0.67578(11) 0.0150 Uiso
C15_2 C 0.041741(79) 0.570581(62) 0.98748(15) 0.0125 Uiso
C16_2 C 0.041741(79) 0.570581(62) 0.86870(11) 0.0125 Uiso
H7_2 H 0.07301(13) 0.623449(89) 0.82422(11) 0.0150 Uiso
Al6_3 Al 0.194153(49) 0.805847(49) 1.00000 0.0119 Uiso
O3_2 O 0.89527(30) 0.28484(20) 0.00286(25) 0.0063 Uiso
C1_2 C 0.90695(22) 0.35991(18) 0.04973(18) 0.0125 Uiso
C3_3 C 1.00000 0.50000 0.04687(18) 0.0125 Uiso
H2_3 H 1.000 0.500 0.13584(18) 0.0150 Uiso
C2_2 C 0.958259(79) 0.429419(62) 0.98748(15) 0.0125 Uiso
C4_2 C 0.958259(79) 0.429419(62) 0.86870(11) 0.0125 Uiso
C5_3 C 1.00000 0.50000 0.80931(10) 0.0125 Uiso
H3_2 H 0.92699(13) 0.376551(89) 0.82422(11) 0.0150 Uiso
C6_2 C 0.85991(18) 0.40695(22) 0.45027(18) 0.0125 Uiso
C7_2 C 0.929419(62) 0.458259(79) 0.51252(15) 0.0125 Uiso
C8_3 C 1.00000 0.50000 0.45313(18) 0.0125 Uiso
C9_2 C 0.929419(62) 0.458259(79) 0.63130(11) 0.0125 Uiso
C10_3 C 1.00000 0.50000 0.69069(10) 0.0125 Uiso
H4_3 H 1.000 0.500 0.36416(18) 0.0150 Uiso
H5_2 H 0.876551(89) 0.42699(13) 0.67578(11) 0.0150 Uiso
H1_2 H 0.750 0.18520(12) 0.375 0.0076 Uiso
O10_2 O 0.75000 0.25401(12) 0.875 0.0063 Uiso
H8_2 H 0.750 0.31480(12) 0.875 0.0076 Uiso
O13_2 O 0.62053(30) 0.12233(28) 0.85369(21) 0.0063 Uiso
O15_2 O 0.62233(28) 0.12053(30) 0.64631(21) 0.0063 Uiso
O18_2 O 0.78484(20) 0.10473(30) 0.75286(25) 0.0063 Uiso
C2_3 C 0.570581(62) 0.041741(79) 0.01252(15) 0.0125 Uiso
C4_3 C 0.570581(62) 0.041741(79) 0.13130(11) 0.0125 Uiso
C5_4 C 0.50000 0.00000 0.19069(10) 0.0125 Uiso
H3_3 H 0.623449(89) 0.07301(13) 0.17578(11) 0.0150 Uiso
C6_3 C 0.59305(22) 0.14009(18) 0.54973(18) 0.0125 Uiso
C7_3 C 0.541741(79) 0.070581(62) 0.48748(15) 0.0125 Uiso
C8_4 C 0.50000 0.00000 0.54687(18) 0.0125 Uiso
C9_3 C 0.541741(79) 0.070581(62) 0.36870(11) 0.0125 Uiso
C10_4 C 0.50000 0.00000 0.30931(10) 0.0125 Uiso
H4_4 H 0.500 0.000 0.63584(18) 0.0150 Uiso
H5_3 H 0.57301(13) 0.123449(89) 0.32422(11) 0.0150 Uiso
O3_3 O 0.71516(20) 0.10473(30) 0.99714(25) 0.0063 Uiso
C1_3 C 0.64009(18) 0.09305(22) 0.95027(18) 0.0125 Uiso
C3_4 C 0.50000 0.00000 0.95313(18) 0.0125 Uiso
H2_4 H 0.500 0.000 0.86416(18) 0.0150 Uiso
C5_5 C 0.50000 1.00000 0.19069(10) 0.0125 Uiso
C8_5 C 0.50000 1.00000 0.54687(18) 0.0125 Uiso
C10_5 C 0.50000 1.00000 0.30931(10) 0.0125 Uiso
H4_5 H 0.500 1.000 0.63584(18) 0.0150 Uiso
O6_3 O 0.37767(28) 0.87947(30) 0.64631(21) 0.0063 Uiso
O7_3 O 0.39527(30) 0.78484(20) 0.50286(25) 0.0063 Uiso
C11_3 C 0.40695(22) 0.85991(18) 0.54973(18) 0.0125 Uiso
C12_3 C 0.458259(79) 0.929419(62) 0.48748(15) 0.0125 Uiso
C13_3 C 0.458259(79) 0.929419(62) 0.36870(11) 0.0125 Uiso
H6_3 H 0.42699(13) 0.876551(89) 0.32422(11) 0.0150 Uiso
C15_3 C 0.429419(62) 0.958259(79) 0.01252(15) 0.0125 Uiso
C16_3 C 0.429419(62) 0.958259(79) 0.13130(11) 0.0125 Uiso
H7_3 H 0.376551(89) 0.92699(13) 0.17578(11) 0.0150 Uiso
C3_5 C 0.50000 1.00000 0.95313(18) 0.0125 Uiso
H2_5 H 0.500 1.000 0.86416(18) 0.0150 Uiso
O8_3 O 0.37947(30) 0.87767(28) 0.85369(21) 0.0063 Uiso
O9_3 O 0.28484(20) 0.89527(30) 0.99714(25) 0.0063 Uiso
C14_3 C 0.35991(18) 0.90695(22) 0.95027(18) 0.0125 Uiso
O15_3 O 0.87767(28) 0.12053(30) 0.10369(21) 0.0063 Uiso
O13_3 O 0.87947(30) 0.12233(28) 0.89631(21) 0.0063 Uiso
C3_6 C 0.00000 1.00000 0.79687(18) 0.0125 Uiso
C5_6 C 0.00000 1.00000 0.55931(10) 0.0125 Uiso
H2_6 H -0.000 1.000 0.88584(18) 0.0150 Uiso
C8_6 C 0.00000 1.00000 0.20313(18) 0.0125 Uiso
C10_6 C 0.00000 1.00000 0.44069(10) 0.0125 Uiso
H4_6 H 0.000 1.000 0.11416(18) 0.0150 Uiso
O6_4 O 0.12233(28) 0.87947(30) 0.10369(21) 0.0063 Uiso
O7_4 O 0.10473(30) 0.78484(20) 0.24714(25) 0.0063 Uiso
C11_4 C 0.09305(22) 0.85991(18) 0.20027(18) 0.0125 Uiso
C12_4 C 0.041741(79) 0.929419(62) 0.26252(15) 0.0125 Uiso
C13_4 C 0.041741(79) 0.929419(62) 0.38130(11) 0.0125 Uiso
H6_4 H 0.07301(13) 0.876551(89) 0.42578(11) 0.0150 Uiso
O8_4 O 0.12053(30) 0.87767(28) 0.89631(21) 0.0063 Uiso
O9_4 O 0.21516(20) 0.89527(30) 0.75286(25) 0.0063 Uiso
C14_4 C 0.14009(18) 0.90695(22) 0.79973(18) 0.0125 Uiso
C15_4 C 0.070581(62) 0.958259(79) 0.73748(15) 0.0125 Uiso
C16_4 C 0.070581(62) 0.958259(79) 0.61870(11) 0.0125 Uiso
H7_4 H 0.123449(89) 0.92699(13) 0.57422(11) 0.0150 Uiso
C1_4 C 0.85991(18) 0.09305(22) 0.79973(18) 0.0125 Uiso
C2_4 C 0.929419(62) 0.041741(79) 0.73748(15) 0.0125 Uiso
C3_7 C 1.00000 0.00000 0.79687(18) 0.0125 Uiso
C4_4 C 0.929419(62) 0.041741(79) 0.61870(11) 0.0125 Uiso
C5_7 C 1.00000 0.00000 0.55931(10) 0.0125 Uiso
H2_7 H 1.000 0.000 0.88584(18) 0.0150 Uiso
H3_4 H 0.876551(89) 0.07301(13) 0.57422(11) 0.0150 Uiso
C6_4 C 0.90695(22) 0.14009(18) 0.20027(18) 0.0125 Uiso
C7_4 C 0.958259(79) 0.070581(62) 0.26252(15) 0.0125 Uiso
C8_7 C 1.00000 0.00000 0.20313(18) 0.0125 Uiso
C9_4 C 0.958259(79) 0.070581(62) 0.38130(11) 0.0125 Uiso
C10_7 C 1.00000 0.00000 0.44069(10) 0.0125 Uiso
H4_7 H 1.000 0.000 0.11416(18) 0.0150 Uiso
H5_4 H 0.92699(13) 0.123449(89) 0.42578(11) 0.0150 Uiso
O1_2 O 0.25401(12) 0.75000 0.125 0.0063 Uiso
H1_3 H 0.31480(12) 0.750 0.125 0.0076 Uiso
O10_3 O 0.24599(12) 0.75000 0.625 0.0063 Uiso
H8_3 H 0.18520(12) 0.750 0.625 0.0076 Uiso
O12_2 O 0.25000 0.74599(12) 0.875 0.0063 Uiso
H1_4 H 0.250 0.68520(12) 0.875 0.0076 Uiso
O10_4 O 0.25000 0.75401(12) 0.375 0.0063 Uiso
H8_4 H 0.250 0.81480(12) 0.375 0.0076 Uiso
C3_8 C 0.00000 0.00000 0.79687(18) 0.0125 Uiso
C5_8 C 0.00000 0.00000 0.55931(10) 0.0125 Uiso
H2_8 H -0.000 0.000 0.88584(18) 0.0150 Uiso
C8_8 C 0.00000 0.00000 0.20313(18) 0.0125 Uiso
C10_8 C 0.00000 0.00000 0.44069(10) 0.0125 Uiso
H4_8 H 0.000 0.000 0.11416(18) 0.0150 Uiso
C3_9 C 1.00000 1.00000 0.79687(18) 0.0125 Uiso
C5_9 C 1.00000 1.00000 0.55931(10) 0.0125 Uiso
H2_9 H 1.000 1.000 0.88584(18) 0.0150 Uiso
C8_9 C 1.00000 1.00000 0.20313(18) 0.0125 Uiso
C10_9 C 1.00000 1.00000 0.44069(10) 0.0125 Uiso
H4_9 H 1.000 1.000 0.11416(18) 0.0150 Uiso
loop_
_geom_bond_atom_site_label_1
_geom_bond_atom_site_label_2
_geom_bond_site_symmetry_1
_geom_bond_site_symmetry_2
O4 C6 1_555 1_555
O5 C6 1_555 1_555
C6 C7 1_555 1_555
C7 C8 1_555 1_555
C8 H4 1_555 1_555
C9 C7 1_555 1_555
H5 C9 1_555 1_555
O6 C11 1_555 1_555
O7 C11 1_555 1_555
C11 C12 1_555 1_555
C12 C8 1_555 1_555
C13 C10 1_555 1_555
H6 C13 1_555 1_555
Al2 O5 1_555 1_555
O10 Al2 1_555 1_555
H8 O10 1_555 1_555
Al3 O4 1_555 1_555
Al5 O10 1_555 1_555
Al7 O7 1_555 1_555
Al9 O6 1_555 1_555
O12 Al2 1_555 1_555
O13 Al2 1_555 1_555
O15 Al2 1_555 1_555
O18 Al2 1_555 1_555
C9 C10 1_555 1_555
C12 C13 1_555 1_555
Al3 O12 1_555 1_555
Al3 O1 1_555 1_555
O1 H1 1_555 1_555
O2 Al3 1_555 1_555
O3 C1 1_555 1_555
C1 O2 1_555 1_555
C2 C1 1_555 1_555
C3 C2 1_555 1_555
C4 C2 1_555 1_555
C5 C4 1_555 1_555
H2 C3 1_555 1_555
H3 C4 1_555 1_555
O8 C14 1_555 1_555
O9 C14 1_555 1_555
C14 C15 1_555 1_555
C15 C3 1_555 1_555
C16 C5 1_555 1_555
H7 C16 1_555 1_555
Al4 O1 1_555 1_555
Al6 O9 1_555 1_555
Al9 O8 1_555 1_555
O16 Al3 1_555 1_555
O17 Al3 1_555 1_555
O3 Al4 1_555 1_555
C15 C16 1_555 1_555
H2_2 C3_2 1_555 1_555
O8_2 C14_2 1_555 1_555
O9_2 C14_2 1_555 1_555
Al6_2 O9_2 1_555 1_555
Al7 O8_2 1_555 1_555
C8_2 H4_2 1_555 1_555
C10_2 C5_2 1_555 1_555
O6_2 C11_2 1_555 1_555
O7_2 C11_2 1_555 1_555
C11_2 C12_2 1_555 1_555
C12_2 C8_2 1_555 1_555
C13_2 C10_2 1_555 1_555
H6_2 C13_2 1_555 1_555
C16_2 C5_2 1_555 1_555
H7_2 C16_2 1_555 1_555
Al9 O7_2 1_555 1_555
Al7 O6_2 1_555 1_555
C12_2 C13_2 1_555 1_555
C15_2 C16_2 1_555 1_555
O3_2 C1_2 1_555 1_555
C1_2 O13 1_555 1_555
H2_3 C3_3 1_555 1_555
O3_2 Al5 1_555 1_555
C4_2 C2_2 1_555 1_555
C5_3 C4_2 1_555 1_555
H3_2 C4_2 1_555 1_555
O15 C6_2 1_555 1_555
O16 C6_2 1_555 1_555
C6_2 C7_2 1_555 1_555
C7_2 C8_3 1_555 1_555
C8_3 H4_3 1_555 1_555
C9_2 C7_2 1_555 1_555
C10_3 C5_3 1_555 1_555
H5_2 C9_2 1_555 1_555
C9_2 C10_3 1_555 1_555
O12 H1_2 1_555 1_555
O10_2 Al4 1_555 1_555
H8_2 O10_2 1_555 1_555
Al5_2 O10_2 1_555 1_555
O13_2 Al4 1_555 1_555
O15_2 Al4 1_555 1_555
O18_2 Al4 1_555 1_555
C4_3 C2_3 1_555 1_555
C5_4 C4_3 1_555 1_555
H3_3 C4_3 1_555 1_555
O15_2 C6_3 1_555 1_555
O17 C6_3 1_555 1_555
C6_3 C7_3 1_555 1_555
C7_3 C8_4 1_555 1_555
C8_4 H4_4 1_555 1_555
C9_3 C7_3 1_555 1_555
C10_4 C5_4 1_555 1_555
H5_3 C9_3 1_555 1_555
C9_3 C10_4 1_555 1_555
O3_3 C1_3 1_555 1_555
C1_3 O13_2 1_555 1_555
H2_4 C3_4 1_555 1_555
O3_3 Al5_2 1_555 1_555
C8_5 H4_5 1_555 1_555
C10_5 C5_5 1_555 1_555
O6_3 C11_3 1_555 1_555
O7_3 C11_3 1_555 1_555
C11_3 C12_3 1_555 1_555
C12_3 C8_5 1_555 1_555
C13_3 C10_5 1_555 1_555
H6_3 C13_3 1_555 1_555
C16_3 C5_5 1_555 1_555
H7_3 C16_3 1_555 1_555
Al9 O7_3 1_555 1_555
Al6 O6_3 1_555 1_555
C12_3 C13_3 1_555 1_555
C15_3 C16_3 1_555 1_555
H2_5 C3_5 1_555 1_555
O8_3 C14_3 1_555 1_555
O9_3 C14_3 1_555 1_555
Al6_3 O9_3 1_555 1_555
Al6 O8_3 1_555 1_555
O15_3 Al5 1_555 1_555
O13_3 Al5_2 1_555 1_555
H2_6 C3_6 1_555 1_555
C8_6 H4_6 1_555 1_555
C10_6 C5_6 1_555 1_555
O6_4 C11_4 1_555 1_555
O7_4 C11_4 1_555 1_555
C11_4 C12_4 1_555 1_555
C12_4 C8_6 1_555 1_555
C13_4 C10_6 1_555 1_555
H6_4 C13_4 1_555 1_555
O8_4 C14_4 1_555 1_555
O9_4 C14_4 1_555 1_555
C14_4 C15_4 1_555 1_555
C15_4 C3_6 1_555 1_555
C16_4 C5_6 1_555 1_555
H7_4 C16_4 1_555 1_555
Al6 O9_4 1_555 1_555
Al7 O7_4 1_555 1_555
Al6_3 O8_4 1_555 1_555
Al6_2 O6_4 1_555 1_555
C12_4 C13_4 1_555 1_555
C15_4 C16_4 1_555 1_555
O18_2 C1_4 1_555 1_555
C1_4 O13_3 1_555 1_555
C2_4 C1_4 1_555 1_555
C3_7 C2_4 1_555 1_555
C4_4 C2_4 1_555 1_555
C5_7 C4_4 1_555 1_555
H2_7 C3_7 1_555 1_555
H3_4 C4_4 1_555 1_555
O15_3 C6_4 1_555 1_555
O18 C6_4 1_555 1_555
C6_4 C7_4 1_555 1_555
C7_4 C8_7 1_555 1_555
C8_7 H4_7 1_555 1_555
C9_4 C7_4 1_555 1_555
C10_7 C5_7 1_555 1_555
H5_4 C9_4 1_555 1_555
C9_4 C10_7 1_555 1_555
Al6_2 O1_2 1_555 1_555
O1_2 H1_3 1_555 1_555
O10_3 Al6 1_555 1_555
H8_3 O10_3 1_555 1_555
Al7 O1_2 1_555 1_555
Al9 O10_3 1_555 1_555
O12_2 Al6 1_555 1_555
Al6_3 O12_2 1_555 1_555
O12_2 H1_4 1_555 1_555
O10_4 Al7 1_555 1_555
H8_4 O10_4 1_555 1_555
Al9 O10_4 1_555 1_555
H2_8 C3_8 1_555 1_555
C8_8 H4_8 1_555 1_555
C10_8 C5_8 1_555 1_555
H2_9 C3_9 1_555 1_555
C8_9 H4_9 1_555 1_555
C10_9 C5_9 1_555 1_555

#END
