
###############################################################################
#
# This file contains modified crystal structure data generated from the
# MOF subset of the Cambridge Structural Database (CSD) v543 
# hosted by the Cambridge Crystallographic Data Centre (CCDC).
#
# This work is licensed under the Creative Commons
# Attribution-NonCommercial-ShareAlike 4.0 International License.
# To view a copy of this license, visit
# http://creativecommons.org/licenses/by-nc-sa/4.0/
# or send a letter to
# Creative Commons, PO Box 1866, Mountain View, CA 94042, USA.
#
# CIF created using the CSD Python API on 29 September 2022
# The structure has been converted into the P1 space group
# The structure has a 3D framework
# The original CSD entry TOXTEI is in the tetragonal crystal system
# The framework has been calculated to contain at least 10.0% void space
# The void calculation uses a probe of radius 1.32A, grid spacing 0.4
#
###############################################################################

data_TOXTEI
_chemical_formula_moiety         '(C352 H256 Cl64 Co32 N32 O128)n'
_symmetry_cell_setting           triclinic
_symmetry_space_group_name_H-M   'P 1'
_symmetry_Int_Tables_number      1
_space_group_name_Hall           'P 1'
loop_
_symmetry_equiv_pos_site_id
_symmetry_equiv_pos_as_xyz
1 x,y,z
_cell_length_a                   21.637(3)
_cell_length_b                   21.637(3)
_cell_length_c                   38.299(8)
_cell_angle_alpha                90
_cell_angle_beta                 90
_cell_angle_gamma                90
_cell_volume                     17930.1
loop_
_atom_site_label
_atom_site_type_symbol
_atom_site_fract_x
_atom_site_fract_y
_atom_site_fract_z
Co1 Co 0.73503(2) 0.51989(2) 0.08639(2)
Cl1 Cl 0.80561(6) 0.21392(4) 0.19366(2)
Cl2 Cl 0.69696(6) 0.32036(4) 0.05546(2)
N1 N 0.74407(11) 0.52144(10) 0.03335(5)
O1 O 0.75296(10) 0.10617(9) 0.15572(4)
O2 O 0.78081(10) 0.10945(9) 0.09899(4)
O3 O 0.75210(10) 0.42752(9) 0.09452(4)
C1 C 0.75976(14) 0.20289(13) 0.12708(6)
C2 C 0.74112(15) 0.33120(13) 0.12209(6)
O4 O 0.71523(10) 0.42494(9) 0.14929(4)
C3 C 0.72826(16) 0.29292(14) 0.09406(6)
C4 C 0.73539(13) 0.40022(13) 0.12156(6)
C5 C 0.73669(15) 0.22977(13) 0.09666(7)
H1 H 0.726561 0.204168 0.077340
C6 C 0.76587(13) 0.13405(13) 0.12759(6)
C7 C 0.77327(15) 0.24172(14) 0.15514(6)
C8 C 0.76450(15) 0.30487(14) 0.15261(7)
H2 H 0.774503 0.330628 0.171888
C9 C 0.69152(18) 0.48962(19) 0.01673(7)
H3 H 0.652583 0.510850 0.023095
H4 H 0.689175 0.446595 0.025430
C10 C 0.7466(2) 0.58499(15) 0.01983(7)
H5 H 0.781985 0.607013 0.030460
H6 H 0.708270 0.607187 0.026385
C11 C 0.80144(17) 0.48910(19) 0.02300(7)
H7 H 0.800146 0.445886 0.031456
H8 H 0.837486 0.509744 0.033834
Co4 Co 0.73011(2) 0.51497(2) 0.16361(2)
Co6 Co 0.76989(2) 0.01497(2) 0.16361(2)
Co7 Co 0.76497(2) 0.01989(2) 0.08639(2)
O9 O 0.64383(9) 0.50296(10) 0.09428(4)
O12 O 0.71919(10) 0.60945(9) 0.09899(4)
O14 O 0.82506(9) 0.53477(10) 0.10071(4)
N2 N 0.75593(11) 0.52144(10) 0.96665(5)
C12 C 0.80848(18) 0.48962(19) 0.98327(7)
H9 H 0.847417 0.510850 0.976905
H10 H 0.810825 0.446595 0.974570
C13 C 0.7534(2) 0.58499(15) 0.98017(7)
H11 H 0.718015 0.607013 0.969540
H12 H 0.791730 0.607187 0.973615
C14 C 0.69856(17) 0.48910(19) 0.97700(7)
H13 H 0.699854 0.445886 0.968544
H14 H 0.662514 0.509744 0.966166
Co2 Co 0.76497(2) 0.51989(2) 0.91361(2)
Cl3 Cl 0.69439(6) 0.21392(4) 0.80634(2)
Cl4 Cl 0.80304(6) 0.32036(4) 0.94454(2)
O5 O 0.74704(10) 0.10617(9) 0.84428(4)
O6 O 0.71919(10) 0.10945(9) 0.90101(4)
O7 O 0.74790(10) 0.42752(9) 0.90548(4)
C15 C 0.74024(14) 0.20289(13) 0.87292(6)
C16 C 0.75888(15) 0.33120(13) 0.87791(6)
O8 O 0.78477(10) 0.42494(9) 0.85071(4)
C17 C 0.77174(16) 0.29292(14) 0.90594(6)
C18 C 0.76461(13) 0.40022(13) 0.87844(6)
C19 C 0.76331(15) 0.22977(13) 0.90334(7)
H15 H 0.773439 0.204168 0.922660
C20 C 0.73413(13) 0.13405(13) 0.87241(6)
C21 C 0.72673(15) 0.24172(14) 0.84486(6)
C22 C 0.73550(15) 0.30487(14) 0.84739(7)
H16 H 0.725497 0.330628 0.828112
Co3 Co 0.76989(2) 0.51497(2) 0.83639(2)
Co5 Co 0.73503(2) 0.01989(2) 0.91361(2)
Co8 Co 0.73011(2) 0.01497(2) 0.83639(2)
O10 O 0.85617(9) 0.50296(10) 0.90572(4)
O11 O 0.78081(10) 0.60945(9) 0.90101(4)
O13 O 0.67494(9) 0.53477(10) 0.89929(4)
Co1_2 Co 0.76497(2) 0.48011(2) 0.58639(2)
Cl1_2 Cl 0.69439(6) 0.78608(4) 0.69366(2)
Cl2_2 Cl 0.80304(6) 0.67964(4) 0.55546(2)
N1_2 N 0.75593(11) 0.47856(10) 0.53335(5)
O1_2 O 0.74704(10) 0.89383(9) 0.65572(4)
O2_2 O 0.71919(10) 0.89055(9) 0.59899(4)
O3_2 O 0.74790(10) 0.57248(9) 0.59452(4)
C1_2 C 0.74024(14) 0.79711(13) 0.62708(6)
C2_2 C 0.75888(15) 0.66880(13) 0.62209(6)
O4_2 O 0.78477(10) 0.57506(9) 0.64929(4)
C3_2 C 0.77174(16) 0.70708(14) 0.59406(6)
C4_2 C 0.76461(13) 0.59978(13) 0.62156(6)
C5_2 C 0.76331(15) 0.77023(13) 0.59666(7)
H1_2 H 0.773439 0.795832 0.577340
C6_2 C 0.73413(13) 0.86595(13) 0.62759(6)
C7_2 C 0.72673(15) 0.75828(14) 0.65514(6)
C8_2 C 0.73550(15) 0.69513(14) 0.65261(7)
H2_2 H 0.725497 0.669372 0.671888
C9_2 C 0.80848(18) 0.51038(19) 0.51673(7)
H3_2 H 0.847417 0.489150 0.523095
H4_2 H 0.810825 0.553405 0.525430
C10_2 C 0.7534(2) 0.41501(15) 0.51983(7)
H5_2 H 0.718015 0.392987 0.530460
H6_2 H 0.791730 0.392813 0.526385
C11_2 C 0.69856(17) 0.51090(19) 0.52300(7)
H7_2 H 0.699854 0.554114 0.531456
H8_2 H 0.662514 0.490256 0.533834
N2_2 N 0.74407(11) 0.47856(10) 0.46665(5)
C12_2 C 0.69152(18) 0.51038(19) 0.48327(7)
H9_2 H 0.652583 0.489150 0.476905
H10_2 H 0.689175 0.553405 0.474570
C13_2 C 0.7466(2) 0.41501(15) 0.48017(7)
H11_2 H 0.781985 0.392987 0.469540
H12_2 H 0.708270 0.392813 0.473615
C14_2 C 0.80144(17) 0.51090(19) 0.47700(7)
H13_2 H 0.800146 0.554114 0.468544
H14_2 H 0.837486 0.490256 0.466166
Co2_2 Co 0.73503(2) 0.48011(2) 0.41361(2)
Cl3_2 Cl 0.80561(6) 0.78608(4) 0.30634(2)
Cl4_2 Cl 0.69696(6) 0.67964(4) 0.44454(2)
O5_2 O 0.75296(10) 0.89383(9) 0.34428(4)
O6_2 O 0.78081(10) 0.89055(9) 0.40101(4)
O7_2 O 0.75210(10) 0.57248(9) 0.40548(4)
C15_2 C 0.75976(14) 0.79711(13) 0.37292(6)
C16_2 C 0.74112(15) 0.66880(13) 0.37791(6)
O8_2 O 0.71523(10) 0.57506(9) 0.35071(4)
C17_2 C 0.72826(16) 0.70708(14) 0.40594(6)
C18_2 C 0.73539(13) 0.59978(13) 0.37844(6)
C19_2 C 0.73669(15) 0.77023(13) 0.40334(7)
H15_2 H 0.726561 0.795832 0.422660
C20_2 C 0.76587(13) 0.86595(13) 0.37241(6)
C21_2 C 0.77327(15) 0.75828(14) 0.34486(6)
C22_2 C 0.76450(15) 0.69513(14) 0.34739(7)
H16_2 H 0.774503 0.669372 0.328112
Co3_2 Co 0.73011(2) 0.48503(2) 0.33639(2)
Co4_2 Co 0.76989(2) 0.48503(2) 0.66361(2)
Co5_2 Co 0.76497(2) 0.98011(2) 0.41361(2)
Co6_2 Co 0.73011(2) 0.98503(2) 0.66361(2)
Co7_2 Co 0.73503(2) 0.98011(2) 0.58639(2)
Co8_2 Co 0.76989(2) 0.98503(2) 0.33639(2)
O9_2 O 0.85617(9) 0.49704(10) 0.59428(4)
O10_2 O 0.64383(9) 0.49704(10) 0.40572(4)
O11_2 O 0.71919(10) 0.39055(9) 0.40101(4)
O12_2 O 0.78081(10) 0.39055(9) 0.59899(4)
O13_2 O 0.82506(9) 0.46523(10) 0.39929(4)
O14_2 O 0.67494(9) 0.46523(10) 0.60071(4)
Cl1_3 Cl 0.03608(4) 0.55561(6) 0.44366(2)
O1_3 O 0.14383(9) 0.50296(10) 0.40572(4)
O2_3 O 0.14055(9) 0.53081(10) 0.34899(4)
C1_3 C 0.04711(13) 0.50976(14) 0.37708(6)
C5_3 C 0.02023(13) 0.48669(15) 0.34666(7)
H1_3 H 0.045832 0.476561 0.327340
C6_3 C 0.11595(13) 0.51587(13) 0.37759(6)
C7_3 C 0.00828(14) 0.52327(15) 0.40514(6)
Cl3_3 Cl 0.03608(4) 0.44439(6) 0.05634(2)
O5_3 O 0.14383(9) 0.49704(10) 0.09428(4)
O6_3 O 0.14055(9) 0.46919(10) 0.15101(4)
C15_3 C 0.04711(13) 0.49024(14) 0.12292(6)
C19_3 C 0.02023(13) 0.51331(15) 0.15334(7)
H15_3 H 0.045832 0.523439 0.172660
C20_3 C 0.11595(13) 0.48413(13) 0.12241(6)
C21_3 C 0.00828(14) 0.47673(15) 0.09486(6)
Co5_3 Co 0.23011(2) 0.48503(2) 0.16361(2)
Co6_3 Co 0.23503(2) 0.51989(2) 0.41361(2)
Co7_3 Co 0.23011(2) 0.51497(2) 0.33639(2)
Co8_3 Co 0.23503(2) 0.48011(2) 0.08639(2)
Cl2_3 Cl 0.92964(4) 0.44696(6) 0.30546(2)
N1_3 N 0.72856(10) 0.49407(11) 0.28335(5)
O3_3 O 0.82248(9) 0.50210(10) 0.34452(4)
C2_3 C 0.91880(13) 0.49112(15) 0.37209(6)
C3_3 C 0.95708(14) 0.47826(16) 0.34406(6)
C4_3 C 0.84978(13) 0.48539(13) 0.37156(6)
C8_3 C 0.94513(14) 0.51450(15) 0.40261(7)
H2_3 H 0.919372 0.524503 0.421888
C9_3 C 0.76038(19) 0.44152(18) 0.26673(7)
H3_3 H 0.739150 0.402583 0.273095
H4_3 H 0.803405 0.439175 0.275430
C10_3 C 0.66501(15) 0.4966(2) 0.26983(7)
H5_3 H 0.642987 0.531985 0.280460
H6_3 H 0.642813 0.458270 0.276385
C11_3 C 0.76090(19) 0.55144(17) 0.27300(7)
H7_3 H 0.804114 0.550146 0.281456
H8_3 H 0.740256 0.587486 0.283834
N2_3 N 0.72856(10) 0.50593(11) 0.21665(5)
C12_3 C 0.76038(19) 0.55848(18) 0.23327(7)
H9_3 H 0.739150 0.597417 0.226905
H10_3 H 0.803405 0.560825 0.224570
C13_3 C 0.66501(15) 0.5034(2) 0.23017(7)
H11_3 H 0.642987 0.468015 0.219540
H12_3 H 0.642813 0.541730 0.223615
C14_3 C 0.76090(19) 0.44856(17) 0.22700(7)
H13_3 H 0.804114 0.449854 0.218544
H14_3 H 0.740256 0.412514 0.216166
Cl4_3 Cl 0.92964(4) 0.55304(6) 0.19454(2)
O7_3 O 0.82248(9) 0.49790(10) 0.15548(4)
C16_3 C 0.91880(13) 0.50888(15) 0.12791(6)
C17_3 C 0.95708(14) 0.52174(16) 0.15594(6)
C18_3 C 0.84978(13) 0.51461(13) 0.12844(6)
C22_3 C 0.94513(14) 0.48550(15) 0.09739(7)
H16_3 H 0.919372 0.475497 0.078112
O9_3 O 0.74704(10) 0.39383(9) 0.34428(4)
O10_3 O 0.74704(10) 0.60617(9) 0.15572(4)
O11_3 O 0.64055(9) 0.53081(10) 0.15101(4)
O12_3 O 0.64055(9) 0.46919(10) 0.34899(4)
Cl1_4 Cl 0.46392(4) 0.44439(6) 0.94366(2)
Cl2_4 Cl 0.57036(4) 0.55304(6) 0.80546(2)
N1_4 N 0.77144(10) 0.50593(11) 0.78335(5)
O1_4 O 0.35617(9) 0.49704(10) 0.90572(4)
O2_4 O 0.35945(9) 0.46919(10) 0.84899(4)
O3_4 O 0.67752(9) 0.49790(10) 0.84452(4)
C1_4 C 0.45289(13) 0.49024(14) 0.87708(6)
C2_4 C 0.58120(13) 0.50888(15) 0.87209(6)
C3_4 C 0.54292(14) 0.52174(16) 0.84406(6)
C4_4 C 0.65022(13) 0.51461(13) 0.87156(6)
C5_4 C 0.47977(13) 0.51331(15) 0.84666(7)
H1_4 H 0.454168 0.523439 0.827340
C6_4 C 0.38405(13) 0.48413(13) 0.87759(6)
C7_4 C 0.49172(14) 0.47673(15) 0.90514(6)
C8_4 C 0.55487(14) 0.48550(15) 0.90261(7)
H2_4 H 0.580628 0.475497 0.921888
C9_4 C 0.73962(19) 0.55848(18) 0.76673(7)
H3_4 H 0.760850 0.597417 0.773095
H4_4 H 0.696595 0.560825 0.775430
C10_4 C 0.83499(15) 0.5034(2) 0.76983(7)
H5_4 H 0.857013 0.468015 0.780460
H6_4 H 0.857187 0.541730 0.776385
C11_4 C 0.73910(19) 0.44856(17) 0.77300(7)
H7_4 H 0.695886 0.449854 0.781456
H8_4 H 0.759744 0.412514 0.783834
N2_4 N 0.77144(10) 0.49407(11) 0.71665(5)
C12_4 C 0.73962(19) 0.44152(18) 0.73327(7)
H9_4 H 0.760850 0.402583 0.726905
H10_4 H 0.696595 0.439175 0.724570
C13_4 C 0.83499(15) 0.4966(2) 0.73017(7)
H11_4 H 0.857013 0.531985 0.719540
H12_4 H 0.857187 0.458270 0.723615
C14_4 C 0.73910(19) 0.55144(17) 0.72700(7)
H13_4 H 0.695886 0.550146 0.718544
H14_4 H 0.759744 0.587486 0.716166
Cl3_4 Cl 0.46392(4) 0.55561(6) 0.55634(2)
Cl4_4 Cl 0.57036(4) 0.44696(6) 0.69454(2)
O5_4 O 0.35617(9) 0.50296(10) 0.59428(4)
O6_4 O 0.35945(9) 0.53081(10) 0.65101(4)
O7_4 O 0.67752(9) 0.50210(10) 0.65548(4)
C15_4 C 0.45289(13) 0.50976(14) 0.62292(6)
C16_4 C 0.58120(13) 0.49112(15) 0.62791(6)
C17_4 C 0.54292(14) 0.47826(16) 0.65594(6)
C18_4 C 0.65022(13) 0.48539(13) 0.62844(6)
C19_4 C 0.47977(13) 0.48669(15) 0.65334(7)
H15_4 H 0.454168 0.476561 0.672660
C20_4 C 0.38405(13) 0.51587(13) 0.62241(6)
C21_4 C 0.49172(14) 0.52327(15) 0.59486(6)
C22_4 C 0.55487(14) 0.51450(15) 0.59739(7)
H16_4 H 0.580628 0.524503 0.578112
Co5_4 Co 0.26989(2) 0.51497(2) 0.66361(2)
Co6_4 Co 0.26497(2) 0.48011(2) 0.91361(2)
Co7_4 Co 0.26989(2) 0.48503(2) 0.83639(2)
Co8_4 Co 0.26497(2) 0.51989(2) 0.58639(2)
O9_4 O 0.75296(10) 0.60617(9) 0.84428(4)
O10_4 O 0.75296(10) 0.39383(9) 0.65572(4)
O11_4 O 0.85945(9) 0.46919(10) 0.65101(4)
O12_4 O 0.85945(9) 0.53081(10) 0.84899(4)
Co1_3 Co 0.23503(2) 0.01989(2) 0.58639(2)
N1_5 N 0.24407(11) 0.02144(10) 0.53335(5)
H3_5 H 0.152583 0.010850 0.523095
C10_5 C 0.2466(2) 0.08499(15) 0.51983(7)
H5_5 H 0.281985 0.107013 0.530460
H6_5 H 0.208270 0.107187 0.526385
H8_5 H 0.337486 0.009744 0.533834
N2_5 N 0.25593(11) 0.02144(10) 0.46665(5)
H9_5 H 0.347417 0.010850 0.476905
C13_5 C 0.2534(2) 0.08499(15) 0.48017(7)
H11_5 H 0.218015 0.107013 0.469540
H12_5 H 0.291730 0.107187 0.473615
H14_5 H 0.162514 0.009744 0.466166
Co2_3 Co 0.26497(2) 0.01989(2) 0.41361(2)
Co3_3 Co 0.26989(2) 0.01497(2) 0.33639(2)
Co4_3 Co 0.23011(2) 0.01497(2) 0.66361(2)
O9_5 O 0.14383(9) 0.00296(10) 0.59428(4)
O10_5 O 0.35617(9) 0.00296(10) 0.40572(4)
O11_5 O 0.28081(10) 0.10945(9) 0.40101(4)
O12_5 O 0.21919(10) 0.10945(9) 0.59899(4)
O13_3 O 0.17494(9) 0.03477(10) 0.39929(4)
O14_3 O 0.32506(9) 0.03477(10) 0.60071(4)
Cl1_5 Cl 0.30561(6) 0.71392(4) 0.69366(2)
Cl2_5 Cl 0.19696(6) 0.82036(4) 0.55546(2)
O1_5 O 0.25296(10) 0.60617(9) 0.65572(4)
O2_5 O 0.28081(10) 0.60945(9) 0.59899(4)
O3_5 O 0.25210(10) 0.92752(9) 0.59452(4)
C1_5 C 0.25976(14) 0.70289(13) 0.62708(6)
C2_5 C 0.24112(15) 0.83120(13) 0.62209(6)
O4_3 O 0.21523(10) 0.92494(9) 0.64929(4)
C3_5 C 0.22826(16) 0.79292(14) 0.59406(6)
C4_5 C 0.23539(13) 0.90022(13) 0.62156(6)
C5_5 C 0.23669(15) 0.72977(13) 0.59666(7)
H1_5 H 0.226561 0.704168 0.577340
C6_5 C 0.26587(13) 0.63405(13) 0.62759(6)
C7_5 C 0.27327(15) 0.74172(14) 0.65514(6)
C8_5 C 0.26450(15) 0.80487(14) 0.65261(7)
H2_5 H 0.274503 0.830628 0.671888
C9_5 C 0.19152(18) 0.98962(19) 0.51673(7)
H4_5 H 0.189175 0.946595 0.525430
C11_5 C 0.30144(17) 0.98910(19) 0.52300(7)
H7_5 H 0.300146 0.945886 0.531456
C12_5 C 0.30848(18) 0.98962(19) 0.48327(7)
H10_5 H 0.310825 0.946595 0.474570
C14_5 C 0.19856(17) 0.98910(19) 0.47700(7)
H13_5 H 0.199854 0.945886 0.468544
Cl3_5 Cl 0.19439(6) 0.71392(4) 0.30634(2)
Cl4_5 Cl 0.30304(6) 0.82036(4) 0.44454(2)
O5_5 O 0.24704(10) 0.60617(9) 0.34428(4)
O6_5 O 0.21919(10) 0.60945(9) 0.40101(4)
O7_5 O 0.24790(10) 0.92752(9) 0.40548(4)
C15_5 C 0.24024(14) 0.70289(13) 0.37292(6)
C16_5 C 0.25888(15) 0.83120(13) 0.37791(6)
O8_3 O 0.28477(10) 0.92494(9) 0.35071(4)
C17_5 C 0.27174(16) 0.79292(14) 0.40594(6)
C18_5 C 0.26461(13) 0.90022(13) 0.37844(6)
C19_5 C 0.26331(15) 0.72977(13) 0.40334(7)
H15_5 H 0.273439 0.704168 0.422660
C20_5 C 0.23413(13) 0.63405(13) 0.37241(6)
C21_5 C 0.22673(15) 0.74172(14) 0.34486(6)
C22_5 C 0.23550(15) 0.80487(14) 0.34739(7)
H16_5 H 0.225497 0.830628 0.328112
Cl1_6 Cl 0.19439(6) 0.28608(4) 0.19366(2)
Cl2_6 Cl 0.30304(6) 0.17964(4) 0.05546(2)
O1_6 O 0.24704(10) 0.39383(9) 0.15572(4)
O2_6 O 0.21919(10) 0.39055(9) 0.09899(4)
O3_6 O 0.24790(10) 0.07248(9) 0.09452(4)
C1_6 C 0.24024(14) 0.29711(13) 0.12708(6)
C2_6 C 0.25888(15) 0.16880(13) 0.12209(6)
O4_4 O 0.28477(10) 0.07506(9) 0.14929(4)
C3_6 C 0.27174(16) 0.20708(14) 0.09406(6)
C4_6 C 0.26461(13) 0.09978(13) 0.12156(6)
C5_6 C 0.26331(15) 0.27023(13) 0.09666(7)
H1_6 H 0.273439 0.295832 0.077340
C6_6 C 0.23413(13) 0.36595(13) 0.12759(6)
C7_6 C 0.22673(15) 0.25828(14) 0.15514(6)
C8_6 C 0.23550(15) 0.19513(14) 0.15261(7)
H2_6 H 0.225497 0.169372 0.171888
C9_6 C 0.30848(18) 0.01038(19) 0.01673(7)
H4_6 H 0.310825 0.053405 0.025430
C11_6 C 0.19856(17) 0.01090(19) 0.02300(7)
H7_6 H 0.199854 0.054114 0.031456
C12_6 C 0.19152(18) 0.01038(19) 0.98327(7)
H10_6 H 0.189175 0.053405 0.974570
C14_6 C 0.30144(17) 0.01090(19) 0.97700(7)
H13_6 H 0.300146 0.054114 0.968544
Cl3_6 Cl 0.30561(6) 0.28608(4) 0.80634(2)
Cl4_6 Cl 0.19696(6) 0.17964(4) 0.94454(2)
O5_6 O 0.25296(10) 0.39383(9) 0.84428(4)
O6_6 O 0.28081(10) 0.39055(9) 0.90101(4)
O7_6 O 0.25210(10) 0.07248(9) 0.90548(4)
C15_6 C 0.25976(14) 0.29711(13) 0.87292(6)
C16_6 C 0.24112(15) 0.16880(13) 0.87791(6)
O8_4 O 0.21523(10) 0.07506(9) 0.85071(4)
C17_6 C 0.22826(16) 0.20708(14) 0.90594(6)
C18_6 C 0.23539(13) 0.09978(13) 0.87844(6)
C19_6 C 0.23669(15) 0.27023(13) 0.90334(7)
H15_6 H 0.226561 0.295832 0.922660
C20_6 C 0.26587(13) 0.36595(13) 0.87241(6)
C21_6 C 0.27327(15) 0.25828(14) 0.84486(6)
C22_6 C 0.26450(15) 0.19513(14) 0.84739(7)
H16_6 H 0.274503 0.169372 0.828112
Co1_4 Co 0.26497(2) 0.98011(2) 0.08639(2)
N1_6 N 0.25593(11) 0.97856(10) 0.03335(5)
H3_6 H 0.347417 0.989150 0.023095
C10_6 C 0.2534(2) 0.91501(15) 0.01983(7)
H5_6 H 0.218015 0.892987 0.030460
H6_6 H 0.291730 0.892813 0.026385
H8_6 H 0.162514 0.990256 0.033834
Co4_4 Co 0.26989(2) 0.98503(2) 0.16361(2)
O9_6 O 0.35617(9) 0.99704(10) 0.09428(4)
O12_6 O 0.28081(10) 0.89055(9) 0.09899(4)
O14_4 O 0.17494(9) 0.96523(10) 0.10071(4)
N2_6 N 0.24407(11) 0.97856(10) 0.96665(5)
H9_6 H 0.152583 0.989150 0.976905
C13_6 C 0.2466(2) 0.91501(15) 0.98017(7)
H11_6 H 0.281985 0.892987 0.969540
H12_6 H 0.208270 0.892813 0.973615
H14_6 H 0.337486 0.990256 0.966166
Co2_4 Co 0.23503(2) 0.98011(2) 0.91361(2)
Co3_4 Co 0.23011(2) 0.98503(2) 0.83639(2)
O10_6 O 0.14383(9) 0.99704(10) 0.90572(4)
O11_6 O 0.21919(10) 0.89055(9) 0.90101(4)
O13_4 O 0.32506(9) 0.96523(10) 0.89929(4)
Cl1_7 Cl 0.53608(4) 0.05561(6) 0.94366(2)
O1_7 O 0.64383(9) 0.00296(10) 0.90572(4)
O2_7 O 0.64055(9) 0.03081(10) 0.84899(4)
O3_7 O 0.32248(9) 0.00210(10) 0.84452(4)
C1_7 C 0.54711(13) 0.00976(14) 0.87708(6)
C6_7 C 0.61595(13) 0.01587(13) 0.87759(6)
C7_7 C 0.50828(14) 0.02327(15) 0.90514(6)
C8_7 C 0.44513(14) 0.01450(15) 0.90261(7)
H2_7 H 0.419372 0.024503 0.921888
H5_7 H 0.142987 0.031985 0.780460
C11_7 C 0.26090(19) 0.05144(17) 0.77300(7)
H7_7 H 0.304114 0.050146 0.781456
H8_7 H 0.240256 0.087486 0.783834
N2_7 N 0.22856(10) 0.00593(11) 0.71665(5)
C12_7 C 0.26038(19) 0.05848(18) 0.73327(7)
H9_7 H 0.239150 0.097417 0.726905
H10_7 H 0.303405 0.060825 0.724570
C13_7 C 0.16501(15) 0.0034(2) 0.73017(7)
H12_7 H 0.142813 0.041730 0.723615
Cl4_7 Cl 0.42964(4) 0.05304(6) 0.69454(2)
C16_7 C 0.41880(13) 0.00888(15) 0.62791(6)
C17_7 C 0.45708(14) 0.02174(16) 0.65594(6)
C18_7 C 0.34978(13) 0.01461(13) 0.62844(6)
C19_7 C 0.52023(13) 0.01331(15) 0.65334(7)
H15_7 H 0.545832 0.023439 0.672660
O10_7 O 0.24704(10) 0.10617(9) 0.65572(4)
O11_7 O 0.14055(9) 0.03081(10) 0.65101(4)
Cl2_7 Cl 0.42964(4) 0.94696(6) 0.80546(2)
N1_7 N 0.22856(10) 0.99407(11) 0.78335(5)
C2_7 C 0.41880(13) 0.99112(15) 0.87209(6)
C3_7 C 0.45708(14) 0.97826(16) 0.84406(6)
C4_7 C 0.34978(13) 0.98539(13) 0.87156(6)
C5_7 C 0.52023(13) 0.98669(15) 0.84666(7)
H1_7 H 0.545832 0.976561 0.827340
C9_7 C 0.26038(19) 0.94152(18) 0.76673(7)
H3_7 H 0.239150 0.902583 0.773095
H4_7 H 0.303405 0.939175 0.775430
C10_7 C 0.16501(15) 0.9966(2) 0.76983(7)
H6_7 H 0.142813 0.958270 0.776385
H11_7 H 0.142987 0.968015 0.719540
C14_7 C 0.26090(19) 0.94856(17) 0.72700(7)
H13_7 H 0.304114 0.949854 0.718544
H14_7 H 0.240256 0.912514 0.716166
Cl3_7 Cl 0.53608(4) 0.94439(6) 0.55634(2)
O5_7 O 0.64383(9) 0.99704(10) 0.59428(4)
O6_7 O 0.64055(9) 0.96919(10) 0.65101(4)
O7_7 O 0.32248(9) 0.99790(10) 0.65548(4)
C15_7 C 0.54711(13) 0.99024(14) 0.62292(6)
C20_7 C 0.61595(13) 0.98413(13) 0.62241(6)
C21_7 C 0.50828(14) 0.97673(15) 0.59486(6)
C22_7 C 0.44513(14) 0.98550(15) 0.59739(7)
H16_7 H 0.419372 0.975497 0.578112
O9_7 O 0.24704(10) 0.89383(9) 0.84428(4)
O12_7 O 0.14055(9) 0.96919(10) 0.84899(4)
Cl2_8 Cl 0.07036(4) 0.05304(6) 0.30546(2)
N1_8 N 0.27144(10) 0.00593(11) 0.28335(5)
C2_8 C 0.08120(13) 0.00888(15) 0.37209(6)
C3_8 C 0.04292(14) 0.02174(16) 0.34406(6)
C4_8 C 0.15022(13) 0.01461(13) 0.37156(6)
C9_8 C 0.23962(19) 0.05848(18) 0.26673(7)
H3_8 H 0.260850 0.097417 0.273095
H4_8 H 0.196595 0.060825 0.275430
C10_8 C 0.33499(15) 0.0034(2) 0.26983(7)
H6_8 H 0.357187 0.041730 0.276385
H11_8 H 0.357013 0.031985 0.219540
C14_8 C 0.23910(19) 0.05144(17) 0.22700(7)
H13_8 H 0.195886 0.050146 0.218544
H14_8 H 0.259744 0.087486 0.216166
O7_8 O 0.17752(9) 0.00210(10) 0.15548(4)
C22_8 C 0.05487(14) 0.01450(15) 0.09739(7)
H16_8 H 0.080628 0.024503 0.078112
O9_8 O 0.25296(10) 0.10617(9) 0.34428(4)
O12_8 O 0.35945(9) 0.03081(10) 0.34899(4)
O3_8 O 0.17752(9) 0.99790(10) 0.34452(4)
C8_8 C 0.05487(14) 0.98550(15) 0.40261(7)
H2_8 H 0.080628 0.975497 0.421888
H5_8 H 0.357013 0.968015 0.280460
C11_8 C 0.23910(19) 0.94856(17) 0.27300(7)
H7_8 H 0.195886 0.949854 0.281456
H8_8 H 0.259744 0.912514 0.283834
N2_8 N 0.27144(10) 0.99407(11) 0.21665(5)
C12_8 C 0.23962(19) 0.94152(18) 0.23327(7)
H9_8 H 0.260850 0.902583 0.226905
H10_8 H 0.196595 0.939175 0.224570
C13_8 C 0.33499(15) 0.9966(2) 0.23017(7)
H12_8 H 0.357187 0.958270 0.223615
Cl4_8 Cl 0.07036(4) 0.94696(6) 0.19454(2)
C16_8 C 0.08120(13) 0.99112(15) 0.12791(6)
C17_8 C 0.04292(14) 0.97826(16) 0.15594(6)
C18_8 C 0.15022(13) 0.98539(13) 0.12844(6)
O10_8 O 0.25296(10) 0.89383(9) 0.15572(4)
O11_8 O 0.35945(9) 0.96919(10) 0.15101(4)
C5_8 C 0.97977(13) 0.01331(15) 0.34666(7)
H1_8 H 0.954168 0.023439 0.327340
Cl3_8 Cl 0.96392(4) 0.05561(6) 0.05634(2)
O5_8 O 0.85617(9) 0.00296(10) 0.09428(4)
O6_8 O 0.85945(9) 0.03081(10) 0.15101(4)
C15_8 C 0.95289(13) 0.00976(14) 0.12292(6)
C20_8 C 0.88405(13) 0.01587(13) 0.12241(6)
C21_8 C 0.99172(14) 0.02327(15) 0.09486(6)
Cl1_8 Cl 0.96392(4) 0.94439(6) 0.44366(2)
O1_8 O 0.85617(9) 0.99704(10) 0.40572(4)
O2_8 O 0.85945(9) 0.96919(10) 0.34899(4)
C1_8 C 0.95289(13) 0.99024(14) 0.37708(6)
C6_8 C 0.88405(13) 0.98413(13) 0.37759(6)
C7_8 C 0.99172(14) 0.97673(15) 0.40514(6)
C19_8 C 0.97977(13) 0.98669(15) 0.15334(7)
H15_8 H 0.954168 0.976561 0.172660
N2_9 N 0.24407(11) 0.47856(10) 0.03335(5)
C12_9 C 0.19152(18) 0.51038(19) 0.01673(7)
H9_9 H 0.152583 0.489150 0.023095
H10_9 H 0.189175 0.553405 0.025430
C13_9 C 0.2466(2) 0.41501(15) 0.01983(7)
H11_9 H 0.281985 0.392987 0.030460
H12_9 H 0.208270 0.392813 0.026385
C14_9 C 0.30144(17) 0.51090(19) 0.02300(7)
H13_9 H 0.300146 0.554114 0.031456
H14_9 H 0.337486 0.490256 0.033834
Cl3_9 Cl 0.30561(6) 0.78608(4) 0.19366(2)
Cl4_9 Cl 0.19696(6) 0.67964(4) 0.05546(2)
O7_9 O 0.25210(10) 0.57248(9) 0.09452(4)
C15_9 C 0.25976(14) 0.79711(13) 0.12708(6)
C16_9 C 0.24112(15) 0.66880(13) 0.12209(6)
O8_5 O 0.21523(10) 0.57506(9) 0.14929(4)
C17_9 C 0.22826(16) 0.70708(14) 0.09406(6)
C18_9 C 0.23539(13) 0.59978(13) 0.12156(6)
C19_9 C 0.23669(15) 0.77023(13) 0.09666(7)
H15_9 H 0.226561 0.795832 0.077340
C20_9 C 0.26587(13) 0.86595(13) 0.12759(6)
C21_9 C 0.27327(15) 0.75828(14) 0.15514(6)
C22_9 C 0.26450(15) 0.69513(14) 0.15261(7)
H16_9 H 0.274503 0.669372 0.171888
O13_5 O 0.32506(9) 0.46523(10) 0.10071(4)
Cl1_9 Cl 0.19439(6) 0.78608(4) 0.80634(2)
Cl2_9 Cl 0.30304(6) 0.67964(4) 0.94454(2)
N1_9 N 0.25593(11) 0.47856(10) 0.96665(5)
O3_9 O 0.24790(10) 0.57248(9) 0.90548(4)
C1_9 C 0.24024(14) 0.79711(13) 0.87292(6)
C2_9 C 0.25888(15) 0.66880(13) 0.87791(6)
O4_5 O 0.28477(10) 0.57506(9) 0.85071(4)
C3_9 C 0.27174(16) 0.70708(14) 0.90594(6)
C4_9 C 0.26461(13) 0.59978(13) 0.87844(6)
C5_9 C 0.26331(15) 0.77023(13) 0.90334(7)
H1_9 H 0.273439 0.795832 0.922660
C6_9 C 0.23413(13) 0.86595(13) 0.87241(6)
C7_9 C 0.22673(15) 0.75828(14) 0.84486(6)
C8_9 C 0.23550(15) 0.69513(14) 0.84739(7)
H2_9 H 0.225497 0.669372 0.828112
C9_9 C 0.30848(18) 0.51038(19) 0.98327(7)
H3_9 H 0.347417 0.489150 0.976905
H4_9 H 0.310825 0.553405 0.974570
C10_9 C 0.2534(2) 0.41501(15) 0.98017(7)
H5_9 H 0.218015 0.392987 0.969540
H6_9 H 0.291730 0.392813 0.973615
C11_9 C 0.19856(17) 0.51090(19) 0.97700(7)
H7_9 H 0.199854 0.554114 0.968544
H8_9 H 0.162514 0.490256 0.966166
O14_5 O 0.17494(9) 0.46523(10) 0.89929(4)
Cl1_10 Cl 0.30561(6) 0.21392(4) 0.30634(2)
Cl2_10 Cl 0.19696(6) 0.32036(4) 0.44454(2)
N1_10 N 0.24407(11) 0.52144(10) 0.46665(5)
O3_10 O 0.25210(10) 0.42752(9) 0.40548(4)
C1_10 C 0.25976(14) 0.20289(13) 0.37292(6)
C2_10 C 0.24112(15) 0.33120(13) 0.37791(6)
O4_6 O 0.21523(10) 0.42494(9) 0.35071(4)
C3_10 C 0.22826(16) 0.29292(14) 0.40594(6)
C4_10 C 0.23539(13) 0.40022(13) 0.37844(6)
C5_10 C 0.23669(15) 0.22977(13) 0.40334(7)
H1_10 H 0.226561 0.204168 0.422660
C6_10 C 0.26587(13) 0.13405(13) 0.37241(6)
C7_10 C 0.27327(15) 0.24172(14) 0.34486(6)
C8_10 C 0.26450(15) 0.30487(14) 0.34739(7)
H2_10 H 0.274503 0.330628 0.328112
C9_10 C 0.19152(18) 0.48962(19) 0.48327(7)
H3_10 H 0.152583 0.510850 0.476905
H4_10 H 0.189175 0.446595 0.474570
C10_10 C 0.2466(2) 0.58499(15) 0.48017(7)
H5_10 H 0.281985 0.607013 0.469540
H6_10 H 0.208270 0.607187 0.473615
C11_10 C 0.30144(17) 0.48910(19) 0.47700(7)
H7_10 H 0.300146 0.445886 0.468544
H8_10 H 0.337486 0.509744 0.466166
N2_10 N 0.25593(11) 0.52144(10) 0.53335(5)
C12_10 C 0.30848(18) 0.48962(19) 0.51673(7)
H9_10 H 0.347417 0.510850 0.523095
H10_10 H 0.310825 0.446595 0.525430
C13_10 C 0.2534(2) 0.58499(15) 0.51983(7)
H11_10 H 0.218015 0.607013 0.530460
H12_10 H 0.291730 0.607187 0.526385
C14_10 C 0.19856(17) 0.48910(19) 0.52300(7)
H13_10 H 0.199854 0.445886 0.531456
H14_10 H 0.162514 0.509744 0.533834
Cl3_10 Cl 0.19439(6) 0.21392(4) 0.69366(2)
Cl4_10 Cl 0.30304(6) 0.32036(4) 0.55546(2)
O7_10 O 0.24790(10) 0.42752(9) 0.59452(4)
C15_10 C 0.24024(14) 0.20289(13) 0.62708(6)
C16_10 C 0.25888(15) 0.33120(13) 0.62209(6)
O8_6 O 0.28477(10) 0.42494(9) 0.64929(4)
C17_10 C 0.27174(16) 0.29292(14) 0.59406(6)
C18_10 C 0.26461(13) 0.40022(13) 0.62156(6)
C19_10 C 0.26331(15) 0.22977(13) 0.59666(7)
H15_10 H 0.273439 0.204168 0.577340
C20_10 C 0.23413(13) 0.13405(13) 0.62759(6)
C21_10 C 0.22673(15) 0.24172(14) 0.65514(6)
C22_10 C 0.23550(15) 0.30487(14) 0.65261(7)
H16_10 H 0.225497 0.330628 0.671888
O13_6 O 0.17494(9) 0.53477(10) 0.60071(4)
O14_6 O 0.32506(9) 0.53477(10) 0.39929(4)
Cl2_11 Cl 0.07036(4) 0.55304(6) 0.69454(2)
N1_11 N 0.27144(10) 0.50593(11) 0.71665(5)
O3_11 O 0.17752(9) 0.49790(10) 0.65548(4)
C2_11 C 0.08120(13) 0.50888(15) 0.62791(6)
C3_11 C 0.04292(14) 0.52174(16) 0.65594(6)
C4_11 C 0.15022(13) 0.51461(13) 0.62844(6)
C8_11 C 0.05487(14) 0.48550(15) 0.59739(7)
H2_11 H 0.080628 0.475497 0.578112
C9_11 C 0.23962(19) 0.55848(18) 0.73327(7)
H3_11 H 0.260850 0.597417 0.726905
H4_11 H 0.196595 0.560825 0.724570
C10_11 C 0.33499(15) 0.5034(2) 0.73017(7)
H5_11 H 0.357013 0.468015 0.719540
H6_11 H 0.357187 0.541730 0.723615
C11_11 C 0.23910(19) 0.44856(17) 0.72700(7)
H7_11 H 0.195886 0.449854 0.718544
H8_11 H 0.259744 0.412514 0.716166
N2_11 N 0.27144(10) 0.49407(11) 0.78335(5)
C12_11 C 0.23962(19) 0.44152(18) 0.76673(7)
H9_11 H 0.260850 0.402583 0.773095
H10_11 H 0.196595 0.439175 0.775430
C13_11 C 0.33499(15) 0.4966(2) 0.76983(7)
H11_11 H 0.357013 0.531985 0.780460
H12_11 H 0.357187 0.458270 0.776385
C14_11 C 0.23910(19) 0.55144(17) 0.77300(7)
H13_11 H 0.195886 0.550146 0.781456
H14_11 H 0.259744 0.587486 0.783834
Cl4_11 Cl 0.07036(4) 0.44696(6) 0.80546(2)
O7_11 O 0.17752(9) 0.50210(10) 0.84452(4)
C16_11 C 0.08120(13) 0.49112(15) 0.87209(6)
C17_11 C 0.04292(14) 0.47826(16) 0.84406(6)
C18_11 C 0.15022(13) 0.48539(13) 0.87156(6)
C22_11 C 0.05487(14) 0.51450(15) 0.90261(7)
H16_11 H 0.080628 0.524503 0.921888
Cl1_11 Cl 0.96392(4) 0.44439(6) 0.55634(2)
C1_11 C 0.95289(13) 0.49024(14) 0.62292(6)
C5_11 C 0.97977(13) 0.51331(15) 0.65334(7)
H1_11 H 0.954168 0.523439 0.672660
C6_11 C 0.88405(13) 0.48413(13) 0.62241(6)
C7_11 C 0.99172(14) 0.47673(15) 0.59486(6)
Cl3_11 Cl 0.96392(4) 0.55561(6) 0.94366(2)
C15_11 C 0.95289(13) 0.50976(14) 0.87708(6)
C19_11 C 0.97977(13) 0.48669(15) 0.84666(7)
H15_11 H 0.954168 0.476561 0.827340
C20_11 C 0.88405(13) 0.51587(13) 0.87759(6)
C21_11 C 0.99172(14) 0.52327(15) 0.90514(6)
Cl1_12 Cl 0.53608(4) 0.55561(6) 0.05634(2)
Cl2_12 Cl 0.42964(4) 0.44696(6) 0.19454(2)
N1_12 N 0.22856(10) 0.49407(11) 0.21665(5)
O3_12 O 0.32248(9) 0.50210(10) 0.15548(4)
C1_12 C 0.54711(13) 0.50976(14) 0.12292(6)
C2_12 C 0.41880(13) 0.49112(15) 0.12791(6)
C3_12 C 0.45708(14) 0.47826(16) 0.15594(6)
C4_12 C 0.34978(13) 0.48539(13) 0.12844(6)
C5_12 C 0.52023(13) 0.48669(15) 0.15334(7)
H1_12 H 0.545832 0.476561 0.172660
C6_12 C 0.61595(13) 0.51587(13) 0.12241(6)
C7_12 C 0.50828(14) 0.52327(15) 0.09486(6)
C8_12 C 0.44513(14) 0.51450(15) 0.09739(7)
H2_12 H 0.419372 0.524503 0.078112
C9_12 C 0.26038(19) 0.44152(18) 0.23327(7)
H3_12 H 0.239150 0.402583 0.226905
H4_12 H 0.303405 0.439175 0.224570
C10_12 C 0.16501(15) 0.4966(2) 0.23017(7)
H5_12 H 0.142987 0.531985 0.219540
H6_12 H 0.142813 0.458270 0.223615
C11_12 C 0.26090(19) 0.55144(17) 0.22700(7)
H7_12 H 0.304114 0.550146 0.218544
H8_12 H 0.240256 0.587486 0.216166
N2_12 N 0.22856(10) 0.50593(11) 0.28335(5)
C12_12 C 0.26038(19) 0.55848(18) 0.26673(7)
H9_12 H 0.239150 0.597417 0.273095
H10_12 H 0.303405 0.560825 0.275430
C13_12 C 0.16501(15) 0.5034(2) 0.26983(7)
H11_12 H 0.142987 0.468015 0.280460
H12_12 H 0.142813 0.541730 0.276385
C14_12 C 0.26090(19) 0.44856(17) 0.27300(7)
H13_12 H 0.304114 0.449854 0.281456
H14_12 H 0.240256 0.412514 0.283834
Cl3_12 Cl 0.53608(4) 0.44439(6) 0.44366(2)
Cl4_12 Cl 0.42964(4) 0.55304(6) 0.30546(2)
O7_12 O 0.32248(9) 0.49790(10) 0.34452(4)
C15_12 C 0.54711(13) 0.49024(14) 0.37708(6)
C16_12 C 0.41880(13) 0.50888(15) 0.37209(6)
C17_12 C 0.45708(14) 0.52174(16) 0.34406(6)
C18_12 C 0.34978(13) 0.51461(13) 0.37156(6)
C19_12 C 0.52023(13) 0.51331(15) 0.34666(7)
H15_12 H 0.545832 0.523439 0.327340
C20_12 C 0.61595(13) 0.48413(13) 0.37759(6)
C21_12 C 0.50828(14) 0.47673(15) 0.40514(6)
C22_12 C 0.44513(14) 0.48550(15) 0.40261(7)
H16_12 H 0.419372 0.475497 0.421888
Cl1_13 Cl 0.69439(6) 0.28608(4) 0.30634(2)
Cl2_13 Cl 0.80304(6) 0.17964(4) 0.44454(2)
O3_13 O 0.74790(10) 0.07248(9) 0.40548(4)
C1_13 C 0.74024(14) 0.29711(13) 0.37292(6)
C2_13 C 0.75888(15) 0.16880(13) 0.37791(6)
O4_7 O 0.78477(10) 0.07506(9) 0.35071(4)
C3_13 C 0.77174(16) 0.20708(14) 0.40594(6)
C4_13 C 0.76461(13) 0.09978(13) 0.37844(6)
C5_13 C 0.76331(15) 0.27023(13) 0.40334(7)
H1_13 H 0.773439 0.295832 0.422660
C6_13 C 0.73413(13) 0.36595(13) 0.37241(6)
C7_13 C 0.72673(15) 0.25828(14) 0.34486(6)
C8_13 C 0.73550(15) 0.19513(14) 0.34739(7)
H2_13 H 0.725497 0.169372 0.328112
C9_13 C 0.80848(18) 0.01038(19) 0.48327(7)
H4_13 H 0.810825 0.053405 0.474570
C11_13 C 0.69856(17) 0.01090(19) 0.47700(7)
H7_13 H 0.699854 0.054114 0.468544
C12_13 C 0.69152(18) 0.01038(19) 0.51673(7)
H10_13 H 0.689175 0.053405 0.525430
C14_13 C 0.80144(17) 0.01090(19) 0.52300(7)
H13_13 H 0.800146 0.054114 0.531456
Cl3_13 Cl 0.80561(6) 0.28608(4) 0.69366(2)
Cl4_13 Cl 0.69696(6) 0.17964(4) 0.55546(2)
O7_13 O 0.75210(10) 0.07248(9) 0.59452(4)
C15_13 C 0.75976(14) 0.29711(13) 0.62708(6)
C16_13 C 0.74112(15) 0.16880(13) 0.62209(6)
O8_7 O 0.71523(10) 0.07506(9) 0.64929(4)
C17_13 C 0.72826(16) 0.20708(14) 0.59406(6)
C18_13 C 0.73539(13) 0.09978(13) 0.62156(6)
C19_13 C 0.73669(15) 0.27023(13) 0.59666(7)
H15_13 H 0.726561 0.295832 0.577340
C20_13 C 0.76587(13) 0.36595(13) 0.62759(6)
C21_13 C 0.77327(15) 0.25828(14) 0.65514(6)
C22_13 C 0.76450(15) 0.19513(14) 0.65261(7)
H16_13 H 0.774503 0.169372 0.671888
N1_13 N 0.75593(11) 0.97856(10) 0.46665(5)
H3_13 H 0.847417 0.989150 0.476905
C10_13 C 0.7534(2) 0.91501(15) 0.48017(7)
H5_13 H 0.718015 0.892987 0.469540
H6_13 H 0.791730 0.892813 0.473615
H8_13 H 0.662514 0.990256 0.466166
N2_13 N 0.74407(11) 0.97856(10) 0.53335(5)
H9_13 H 0.652583 0.989150 0.523095
C13_13 C 0.7466(2) 0.91501(15) 0.51983(7)
H11_13 H 0.781985 0.892987 0.530460
H12_13 H 0.708270 0.892813 0.526385
H14_13 H 0.837486 0.990256 0.533834
O13_7 O 0.82506(9) 0.96523(10) 0.60071(4)
O14_7 O 0.67494(9) 0.96523(10) 0.39929(4)
N2_14 N 0.75593(11) 0.02144(10) 0.03335(5)
H9_14 H 0.847417 0.010850 0.023095
C13_14 C 0.7534(2) 0.08499(15) 0.01983(7)
H11_14 H 0.718015 0.107013 0.030460
H12_14 H 0.791730 0.107187 0.026385
H14_14 H 0.662514 0.009744 0.033834
O13_8 O 0.67494(9) 0.03477(10) 0.10071(4)
N1_14 N 0.74407(11) 0.02144(10) 0.96665(5)
H3_14 H 0.652583 0.010850 0.976905
C10_14 C 0.7466(2) 0.08499(15) 0.98017(7)
H5_14 H 0.781985 0.107013 0.969540
H6_14 H 0.708270 0.107187 0.973615
H8_14 H 0.837486 0.009744 0.966166
O14_8 O 0.82506(9) 0.03477(10) 0.89929(4)
C12_14 C 0.80848(18) 0.98962(19) 0.01673(7)
H10_14 H 0.810825 0.946595 0.025430
C14_14 C 0.69856(17) 0.98910(19) 0.02300(7)
H13_14 H 0.699854 0.945886 0.031456
Cl3_14 Cl 0.69439(6) 0.71392(4) 0.19366(2)
Cl4_14 Cl 0.80304(6) 0.82036(4) 0.05546(2)
O7_14 O 0.74790(10) 0.92752(9) 0.09452(4)
C15_14 C 0.74024(14) 0.70289(13) 0.12708(6)
C16_14 C 0.75888(15) 0.83120(13) 0.12209(6)
O8_8 O 0.78477(10) 0.92494(9) 0.14929(4)
C17_14 C 0.77174(16) 0.79292(14) 0.09406(6)
C18_14 C 0.76461(13) 0.90022(13) 0.12156(6)
C19_14 C 0.76331(15) 0.72977(13) 0.09666(7)
H15_14 H 0.773439 0.704168 0.077340
C20_14 C 0.73413(13) 0.63405(13) 0.12759(6)
C21_14 C 0.72673(15) 0.74172(14) 0.15514(6)
C22_14 C 0.73550(15) 0.80487(14) 0.15261(7)
H16_14 H 0.725497 0.830628 0.171888
Cl1_14 Cl 0.80561(6) 0.71392(4) 0.80634(2)
Cl2_14 Cl 0.69696(6) 0.82036(4) 0.94454(2)
O3_14 O 0.75210(10) 0.92752(9) 0.90548(4)
C1_14 C 0.75976(14) 0.70289(13) 0.87292(6)
C2_14 C 0.74112(15) 0.83120(13) 0.87791(6)
O4_8 O 0.71523(10) 0.92494(9) 0.85071(4)
C3_14 C 0.72826(16) 0.79292(14) 0.90594(6)
C4_14 C 0.73539(13) 0.90022(13) 0.87844(6)
C5_14 C 0.73669(15) 0.72977(13) 0.90334(7)
H1_14 H 0.726561 0.704168 0.922660
C6_14 C 0.76587(13) 0.63405(13) 0.87241(6)
C7_14 C 0.77327(15) 0.74172(14) 0.84486(6)
C8_14 C 0.76450(15) 0.80487(14) 0.84739(7)
H2_14 H 0.774503 0.830628 0.828112
C9_14 C 0.69152(18) 0.98962(19) 0.98327(7)
H4_14 H 0.689175 0.946595 0.974570
C11_14 C 0.80144(17) 0.98910(19) 0.97700(7)
H7_14 H 0.800146 0.945886 0.968544
Cl2_15 Cl 0.57036(4) 0.05304(6) 0.19454(2)
N1_15 N 0.77144(10) 0.00593(11) 0.21665(5)
C2_15 C 0.58120(13) 0.00888(15) 0.12791(6)
C3_15 C 0.54292(14) 0.02174(16) 0.15594(6)
C4_15 C 0.65022(13) 0.01461(13) 0.12844(6)
C5_15 C 0.47977(13) 0.01331(15) 0.15334(7)
H1_15 H 0.454168 0.023439 0.172660
C9_15 C 0.73962(19) 0.05848(18) 0.23327(7)
H3_15 H 0.760850 0.097417 0.226905
H4_15 H 0.696595 0.060825 0.224570
C10_15 C 0.83499(15) 0.0034(2) 0.23017(7)
H6_15 H 0.857187 0.041730 0.223615
H11_15 H 0.857013 0.031985 0.280460
C14_15 C 0.73910(19) 0.05144(17) 0.27300(7)
H13_15 H 0.695886 0.050146 0.281456
H14_15 H 0.759744 0.087486 0.283834
Cl3_15 Cl 0.46392(4) 0.05561(6) 0.44366(2)
O7_15 O 0.67752(9) 0.00210(10) 0.34452(4)
C15_15 C 0.45289(13) 0.00976(14) 0.37708(6)
C20_15 C 0.38405(13) 0.01587(13) 0.37759(6)
C21_15 C 0.49172(14) 0.02327(15) 0.40514(6)
C22_15 C 0.55487(14) 0.01450(15) 0.40261(7)
H16_15 H 0.580628 0.024503 0.421888
Cl1_15 Cl 0.46392(4) 0.94439(6) 0.05634(2)
O3_15 O 0.67752(9) 0.99790(10) 0.15548(4)
C1_15 C 0.45289(13) 0.99024(14) 0.12292(6)
C6_15 C 0.38405(13) 0.98413(13) 0.12241(6)
C7_15 C 0.49172(14) 0.97673(15) 0.09486(6)
C8_15 C 0.55487(14) 0.98550(15) 0.09739(7)
H2_15 H 0.580628 0.975497 0.078112
H5_15 H 0.857013 0.968015 0.219540
C11_15 C 0.73910(19) 0.94856(17) 0.22700(7)
H7_15 H 0.695886 0.949854 0.218544
H8_15 H 0.759744 0.912514 0.216166
N2_15 N 0.77144(10) 0.99407(11) 0.28335(5)
C12_15 C 0.73962(19) 0.94152(18) 0.26673(7)
H9_15 H 0.760850 0.902583 0.273095
H10_15 H 0.696595 0.939175 0.275430
C13_15 C 0.83499(15) 0.9966(2) 0.26983(7)
H12_15 H 0.857187 0.958270 0.276385
Cl4_15 Cl 0.57036(4) 0.94696(6) 0.30546(2)
C16_15 C 0.58120(13) 0.99112(15) 0.37209(6)
C17_15 C 0.54292(14) 0.97826(16) 0.34406(6)
C18_15 C 0.65022(13) 0.98539(13) 0.37156(6)
C19_15 C 0.47977(13) 0.98669(15) 0.34666(7)
H15_15 H 0.454168 0.976561 0.327340
Cl1_16 Cl 0.03608(4) 0.05561(6) 0.55634(2)
C1_16 C 0.04711(13) 0.00976(14) 0.62292(6)
C6_16 C 0.11595(13) 0.01587(13) 0.62241(6)
C7_16 C 0.00828(14) 0.02327(15) 0.59486(6)
C19_16 C 0.02023(13) 0.01331(15) 0.84666(7)
H15_16 H 0.045832 0.023439 0.827340
C5_16 C 0.02023(13) 0.98669(15) 0.65334(7)
H1_16 H 0.045832 0.976561 0.672660
Cl3_16 Cl 0.03608(4) 0.94439(6) 0.94366(2)
C15_16 C 0.04711(13) 0.99024(14) 0.87708(6)
C20_16 C 0.11595(13) 0.98413(13) 0.87759(6)
C21_16 C 0.00828(14) 0.97673(15) 0.90514(6)
O3_16 O 0.82248(9) 0.00210(10) 0.65548(4)
C8_16 C 0.94513(14) 0.01450(15) 0.59739(7)
H2_16 H 0.919372 0.024503 0.578112
H5_16 H 0.642987 0.031985 0.719540
C11_16 C 0.76090(19) 0.05144(17) 0.72700(7)
H7_16 H 0.804114 0.050146 0.718544
H8_16 H 0.740256 0.087486 0.716166
N2_16 N 0.72856(10) 0.00593(11) 0.78335(5)
C12_16 C 0.76038(19) 0.05848(18) 0.76673(7)
H9_16 H 0.739150 0.097417 0.773095
H10_16 H 0.803405 0.060825 0.775430
C13_16 C 0.66501(15) 0.0034(2) 0.76983(7)
H12_16 H 0.642813 0.041730 0.776385
Cl4_16 Cl 0.92964(4) 0.05304(6) 0.80546(2)
C16_16 C 0.91880(13) 0.00888(15) 0.87209(6)
C17_16 C 0.95708(14) 0.02174(16) 0.84406(6)
C18_16 C 0.84978(13) 0.01461(13) 0.87156(6)
Cl2_16 Cl 0.92964(4) 0.94696(6) 0.69454(2)
N1_16 N 0.72856(10) 0.99407(11) 0.71665(5)
C2_16 C 0.91880(13) 0.99112(15) 0.62791(6)
C3_16 C 0.95708(14) 0.97826(16) 0.65594(6)
C4_16 C 0.84978(13) 0.98539(13) 0.62844(6)
C9_16 C 0.76038(19) 0.94152(18) 0.73327(7)
H3_16 H 0.739150 0.902583 0.726905
H4_16 H 0.803405 0.939175 0.724570
C10_16 C 0.66501(15) 0.9966(2) 0.73017(7)
H6_16 H 0.642813 0.958270 0.723615
H11_16 H 0.642987 0.968015 0.780460
C14_16 C 0.76090(19) 0.94856(17) 0.77300(7)
H13_16 H 0.804114 0.949854 0.781456
H14_16 H 0.740256 0.912514 0.783834
O7_16 O 0.82248(9) 0.99790(10) 0.84452(4)
C22_16 C 0.94513(14) 0.98550(15) 0.90261(7)
H16_16 H 0.919372 0.975497 0.921888
loop_
_geom_bond_atom_site_label_1
_geom_bond_atom_site_label_2
_geom_bond_site_symmetry_1
_geom_bond_site_symmetry_2
Co1 N1 1_555 1_555
Cl1 C7 1_555 1_555
Cl2 C3 1_555 1_555
N1 C9 1_555 1_555
O1 C6 1_555 1_555
O2 C6 1_555 1_555
O3 Co1 1_555 1_555
C1 C5 1_555 1_555
C2 C3 1_555 1_555
O4 C4 1_555 1_555
C3 C5 1_555 1_555
C4 O3 1_555 1_555
C5 H1 1_555 1_555
C6 C1 1_555 1_555
C7 C1 1_555 1_555
C8 C2 1_555 1_555
H2 C8 1_555 1_555
C9 H3 1_555 1_555
H4 C9 1_555 1_555
C10 N1 1_555 1_555
H5 C10 1_555 1_555
H6 C10 1_555 1_555
C11 N1 1_555 1_555
H7 C11 1_555 1_555
H8 C11 1_555 1_555
Co4 Co1 1_555 1_555
Co6 O1 1_555 1_555
Co7 O2 1_555 1_555
O9 Co1 1_555 1_555
O12 Co1 1_555 1_555
O14 Co1 1_555 1_555
C2 C4 1_555 1_555
O4 Co4 1_555 1_555
C7 C8 1_555 1_555
Co6 Co7 1_555 1_555
N2 C12 1_555 1_555
H9 C12 1_555 1_555
H10 C12 1_555 1_555
H11 C13 1_555 1_555
H12 C13 1_555 1_555
H13 C14 1_555 1_555
H14 C14 1_555 1_555
Co2 N2 1_555 1_555
Cl3 C21 1_555 1_555
Cl4 C17 1_555 1_555
O5 C20 1_555 1_555
O6 C20 1_555 1_555
O7 Co2 1_555 1_555
C15 C19 1_555 1_555
C16 C17 1_555 1_555
O8 C18 1_555 1_555
C17 C19 1_555 1_555
C18 O7 1_555 1_555
C19 H15 1_555 1_555
C20 C15 1_555 1_555
C21 C15 1_555 1_555
C22 C16 1_555 1_555
H16 C22 1_555 1_555
Co3 Co2 1_555 1_555
Co5 O6 1_555 1_555
Co8 O5 1_555 1_555
O10 Co2 1_555 1_555
O11 Co2 1_555 1_555
O13 Co2 1_555 1_555
N2 C13 1_555 1_555
N2 C14 1_555 1_555
C16 C18 1_555 1_555
O8 Co3 1_555 1_555
C21 C22 1_555 1_555
Co5 Co8 1_555 1_555
Co1_2 N1_2 1_555 1_555
Cl1_2 C7_2 1_555 1_555
Cl2_2 C3_2 1_555 1_555
N1_2 C9_2 1_555 1_555
O1_2 C6_2 1_555 1_555
O2_2 C6_2 1_555 1_555
O3_2 Co1_2 1_555 1_555
C1_2 C5_2 1_555 1_555
C2_2 C3_2 1_555 1_555
O4_2 C4_2 1_555 1_555
C3_2 C5_2 1_555 1_555
C4_2 O3_2 1_555 1_555
C5_2 H1_2 1_555 1_555
C6_2 C1_2 1_555 1_555
C7_2 C1_2 1_555 1_555
C8_2 C2_2 1_555 1_555
H2_2 C8_2 1_555 1_555
C9_2 H3_2 1_555 1_555
H4_2 C9_2 1_555 1_555
C10_2 N1_2 1_555 1_555
H5_2 C10_2 1_555 1_555
H6_2 C10_2 1_555 1_555
C11_2 N1_2 1_555 1_555
H7_2 C11_2 1_555 1_555
H8_2 C11_2 1_555 1_555
N2_2 C12_2 1_555 1_555
C12_2 C11_2 1_555 1_555
H9_2 C12_2 1_555 1_555
H10_2 C12_2 1_555 1_555
C13_2 C10_2 1_555 1_555
H11_2 C13_2 1_555 1_555
H12_2 C13_2 1_555 1_555
C14_2 C9_2 1_555 1_555
H13_2 C14_2 1_555 1_555
H14_2 C14_2 1_555 1_555
Co2_2 N2_2 1_555 1_555
Cl3_2 C21_2 1_555 1_555
Cl4_2 C17_2 1_555 1_555
O5_2 C20_2 1_555 1_555
O6_2 C20_2 1_555 1_555
O7_2 Co2_2 1_555 1_555
C15_2 C19_2 1_555 1_555
C16_2 C17_2 1_555 1_555
O8_2 C18_2 1_555 1_555
C17_2 C19_2 1_555 1_555
C18_2 O7_2 1_555 1_555
C19_2 H15_2 1_555 1_555
C20_2 C15_2 1_555 1_555
C21_2 C15_2 1_555 1_555
C22_2 C16_2 1_555 1_555
H16_2 C22_2 1_555 1_555
Co3_2 Co2_2 1_555 1_555
Co4_2 Co1_2 1_555 1_555
Co5_2 O6_2 1_555 1_555
Co6_2 O1_2 1_555 1_555
Co7_2 O2_2 1_555 1_555
Co8_2 O5_2 1_555 1_555
O9_2 Co1_2 1_555 1_555
O10_2 Co2_2 1_555 1_555
O11_2 Co2_2 1_555 1_555
O12_2 Co1_2 1_555 1_555
O13_2 Co2_2 1_555 1_555
O14_2 Co1_2 1_555 1_555
C2_2 C4_2 1_555 1_555
O4_2 Co4_2 1_555 1_555
C7_2 C8_2 1_555 1_555
N2_2 C13_2 1_555 1_555
N2_2 C14_2 1_555 1_555
C16_2 C18_2 1_555 1_555
O8_2 Co3_2 1_555 1_555
C21_2 C22_2 1_555 1_555
Co5_2 Co8_2 1_555 1_555
Co6_2 Co7_2 1_555 1_555
Cl1_3 C7_3 1_555 1_555
O1_3 C6_3 1_555 1_555
O2_3 C6_3 1_555 1_555
C1_3 C5_3 1_555 1_555
C5_3 H1_3 1_555 1_555
C6_3 C1_3 1_555 1_555
C7_3 C1_3 1_555 1_555
Cl3_3 C21_3 1_555 1_555
O5_3 C20_3 1_555 1_555
O6_3 C20_3 1_555 1_555
C15_3 C19_3 1_555 1_555
C19_3 H15_3 1_555 1_555
C20_3 C15_3 1_555 1_555
C21_3 C15_3 1_555 1_555
Co5_3 O6_3 1_555 1_555
Co6_3 O1_3 1_555 1_555
Co7_3 O2_3 1_555 1_555
Co8_3 O5_3 1_555 1_555
Co5_3 Co8_3 1_555 1_555
Co6_3 Co7_3 1_555 1_555
Co3_2 N1_3 1_555 1_555
Cl2_3 C3_3 1_555 1_555
N1_3 C9_3 1_555 1_555
O3_3 Co3_2 1_555 1_555
C2_3 C3_3 1_555 1_555
O13_2 C4_3 1_555 1_555
C4_3 O3_3 1_555 1_555
C8_3 C2_3 1_555 1_555
H2_3 C8_3 1_555 1_555
C9_3 H3_3 1_555 1_555
H4_3 C9_3 1_555 1_555
C10_3 N1_3 1_555 1_555
H5_3 C10_3 1_555 1_555
H6_3 C10_3 1_555 1_555
C11_3 N1_3 1_555 1_555
H7_3 C11_3 1_555 1_555
H8_3 C11_3 1_555 1_555
N2_3 C12_3 1_555 1_555
C12_3 C11_3 1_555 1_555
H9_3 C12_3 1_555 1_555
H10_3 C12_3 1_555 1_555
C13_3 C10_3 1_555 1_555
H11_3 C13_3 1_555 1_555
H12_3 C13_3 1_555 1_555
C14_3 C9_3 1_555 1_555
H13_3 C14_3 1_555 1_555
H14_3 C14_3 1_555 1_555
Co4 N2_3 1_555 1_555
Cl4_3 C17_3 1_555 1_555
O7_3 Co4 1_555 1_555
C16_3 C17_3 1_555 1_555
O14 C18_3 1_555 1_555
C18_3 O7_3 1_555 1_555
C22_3 C16_3 1_555 1_555
H16_3 C22_3 1_555 1_555
O9_3 Co3_2 1_555 1_555
O10_3 Co4 1_555 1_555
O11_3 Co4 1_555 1_555
O12_3 Co3_2 1_555 1_555
C2_3 C4_3 1_555 1_555
N2_3 C13_3 1_555 1_555
N2_3 C14_3 1_555 1_555
C16_3 C18_3 1_555 1_555
Co3 N1_4 1_555 1_555
Cl1_4 C7_4 1_555 1_555
Cl2_4 C3_4 1_555 1_555
N1_4 C9_4 1_555 1_555
O1_4 C6_4 1_555 1_555
O2_4 C6_4 1_555 1_555
O3_4 Co3 1_555 1_555
C1_4 C5_4 1_555 1_555
C2_4 C3_4 1_555 1_555
O13 C4_4 1_555 1_555
C3_4 C5_4 1_555 1_555
C4_4 O3_4 1_555 1_555
C5_4 H1_4 1_555 1_555
C6_4 C1_4 1_555 1_555
C7_4 C1_4 1_555 1_555
C8_4 C2_4 1_555 1_555
H2_4 C8_4 1_555 1_555
C9_4 H3_4 1_555 1_555
H4_4 C9_4 1_555 1_555
C10_4 N1_4 1_555 1_555
H5_4 C10_4 1_555 1_555
H6_4 C10_4 1_555 1_555
C11_4 N1_4 1_555 1_555
H7_4 C11_4 1_555 1_555
H8_4 C11_4 1_555 1_555
N2_4 C12_4 1_555 1_555
C12_4 C11_4 1_555 1_555
H9_4 C12_4 1_555 1_555
H10_4 C12_4 1_555 1_555
C13_4 C10_4 1_555 1_555
H11_4 C13_4 1_555 1_555
H12_4 C13_4 1_555 1_555
C14_4 C9_4 1_555 1_555
H13_4 C14_4 1_555 1_555
H14_4 C14_4 1_555 1_555
Co4_2 N2_4 1_555 1_555
Cl3_4 C21_4 1_555 1_555
Cl4_4 C17_4 1_555 1_555
O5_4 C20_4 1_555 1_555
O6_4 C20_4 1_555 1_555
O7_4 Co4_2 1_555 1_555
C15_4 C19_4 1_555 1_555
C16_4 C17_4 1_555 1_555
O14_2 C18_4 1_555 1_555
C17_4 C19_4 1_555 1_555
C18_4 O7_4 1_555 1_555
C19_4 H15_4 1_555 1_555
C20_4 C15_4 1_555 1_555
C21_4 C15_4 1_555 1_555
C22_4 C16_4 1_555 1_555
H16_4 C22_4 1_555 1_555
Co5_4 O6_4 1_555 1_555
Co6_4 O1_4 1_555 1_555
Co7_4 O2_4 1_555 1_555
Co8_4 O5_4 1_555 1_555
O9_4 Co3 1_555 1_555
O10_4 Co4_2 1_555 1_555
O11_4 Co4_2 1_555 1_555
O12_4 Co3 1_555 1_555
C2_4 C4_4 1_555 1_555
C7_4 C8_4 1_555 1_555
N2_4 C13_4 1_555 1_555
N2_4 C14_4 1_555 1_555
C16_4 C18_4 1_555 1_555
C21_4 C22_4 1_555 1_555
Co5_4 Co8_4 1_555 1_555
Co6_4 Co7_4 1_555 1_555
Co1_3 N1_5 1_555 1_555
C10_5 N1_5 1_555 1_555
H5_5 C10_5 1_555 1_555
H6_5 C10_5 1_555 1_555
C13_5 C10_5 1_555 1_555
H11_5 C13_5 1_555 1_555
H12_5 C13_5 1_555 1_555
Co2_3 N2_5 1_555 1_555
Co3_3 Co2_3 1_555 1_555
Co4_3 Co1_3 1_555 1_555
O9_5 Co1_3 1_555 1_555
O10_5 Co2_3 1_555 1_555
O11_5 Co2_3 1_555 1_555
O12_5 Co1_3 1_555 1_555
O13_3 Co2_3 1_555 1_555
O14_3 Co1_3 1_555 1_555
N2_5 C13_5 1_555 1_555
Cl1_5 C7_5 1_555 1_555
Cl2_5 C3_5 1_555 1_555
O1_5 C6_5 1_555 1_555
O2_5 C6_5 1_555 1_555
C1_5 C5_5 1_555 1_555
C2_5 C3_5 1_555 1_555
O4_3 C4_5 1_555 1_555
C3_5 C5_5 1_555 1_555
C4_5 O3_5 1_555 1_555
C5_5 H1_5 1_555 1_555
C6_5 C1_5 1_555 1_555
C7_5 C1_5 1_555 1_555
C8_5 C2_5 1_555 1_555
H2_5 C8_5 1_555 1_555
H4_5 C9_5 1_555 1_555
H7_5 C11_5 1_555 1_555
C12_5 C11_5 1_555 1_555
H10_5 C12_5 1_555 1_555
C14_5 C9_5 1_555 1_555
H13_5 C14_5 1_555 1_555
Cl3_5 C21_5 1_555 1_555
Cl4_5 C17_5 1_555 1_555
O5_5 C20_5 1_555 1_555
O6_5 C20_5 1_555 1_555
C15_5 C19_5 1_555 1_555
C16_5 C17_5 1_555 1_555
O8_3 C18_5 1_555 1_555
C17_5 C19_5 1_555 1_555
C18_5 O7_5 1_555 1_555
C19_5 H15_5 1_555 1_555
C20_5 C15_5 1_555 1_555
C21_5 C15_5 1_555 1_555
C22_5 C16_5 1_555 1_555
H16_5 C22_5 1_555 1_555
Co6_3 O6_5 1_555 1_555
Co5_4 O1_5 1_555 1_555
Co8_4 O2_5 1_555 1_555
Co7_3 O5_5 1_555 1_555
C2_5 C4_5 1_555 1_555
C7_5 C8_5 1_555 1_555
C16_5 C18_5 1_555 1_555
C21_5 C22_5 1_555 1_555
Cl1_6 C7_6 1_555 1_555
Cl2_6 C3_6 1_555 1_555
O1_6 C6_6 1_555 1_555
O2_6 C6_6 1_555 1_555
C1_6 C5_6 1_555 1_555
C2_6 C3_6 1_555 1_555
O4_4 C4_6 1_555 1_555
C3_6 C5_6 1_555 1_555
C4_6 O3_6 1_555 1_555
C5_6 H1_6 1_555 1_555
C6_6 C1_6 1_555 1_555
C7_6 C1_6 1_555 1_555
C8_6 C2_6 1_555 1_555
H2_6 C8_6 1_555 1_555
H4_6 C9_6 1_555 1_555
H7_6 C11_6 1_555 1_555
Co5_3 O1_6 1_555 1_555
Co8_3 O2_6 1_555 1_555
C2_6 C4_6 1_555 1_555
C7_6 C8_6 1_555 1_555
H10_6 C12_6 1_555 1_555
H13_6 C14_6 1_555 1_555
Cl3_6 C21_6 1_555 1_555
Cl4_6 C17_6 1_555 1_555
O5_6 C20_6 1_555 1_555
O6_6 C20_6 1_555 1_555
C15_6 C19_6 1_555 1_555
C16_6 C17_6 1_555 1_555
O8_4 C18_6 1_555 1_555
C17_6 C19_6 1_555 1_555
C18_6 O7_6 1_555 1_555
C19_6 H15_6 1_555 1_555
C20_6 C15_6 1_555 1_555
C21_6 C15_6 1_555 1_555
C22_6 C16_6 1_555 1_555
H16_6 C22_6 1_555 1_555
Co6_4 O6_6 1_555 1_555
Co7_4 O5_6 1_555 1_555
C16_6 C18_6 1_555 1_555
C21_6 C22_6 1_555 1_555
Co1_4 N1_6 1_555 1_555
C10_6 N1_6 1_555 1_555
H5_6 C10_6 1_555 1_555
H6_6 C10_6 1_555 1_555
Co4_4 Co1_4 1_555 1_555
O9_6 Co1_4 1_555 1_555
O12_6 Co1_4 1_555 1_555
O14_4 Co1_4 1_555 1_555
H11_6 C13_6 1_555 1_555
H12_6 C13_6 1_555 1_555
Co2_4 N2_6 1_555 1_555
Co3_4 Co2_4 1_555 1_555
O10_6 Co2_4 1_555 1_555
O11_6 Co2_4 1_555 1_555
O13_4 Co2_4 1_555 1_555
N2_6 C13_6 1_555 1_555
Cl1_7 C7_7 1_555 1_555
O1_7 C6_7 1_555 1_555
O2_7 C6_7 1_555 1_555
C6_7 C1_7 1_555 1_555
C7_7 C1_7 1_555 1_555
H2_7 C8_7 1_555 1_555
H7_7 C11_7 1_555 1_555
H8_7 C11_7 1_555 1_555
N2_7 C12_7 1_555 1_555
C12_7 C11_7 1_555 1_555
H9_7 C12_7 1_555 1_555
H10_7 C12_7 1_555 1_555
H12_7 C13_7 1_555 1_555
Co4_3 N2_7 1_555 1_555
Cl4_7 C17_7 1_555 1_555
C16_7 C17_7 1_555 1_555
O14_3 C18_7 1_555 1_555
C17_7 C19_7 1_555 1_555
C19_7 H15_7 1_555 1_555
Co5 O1_7 1_555 1_555
Co8 O2_7 1_555 1_555
O10_7 Co4_3 1_555 1_555
O11_7 Co4_3 1_555 1_555
C7_7 C8_7 1_555 1_555
N2_7 C13_7 1_555 1_555
C16_7 C18_7 1_555 1_555
Co3_4 N1_7 1_555 1_555
Cl2_7 C3_7 1_555 1_555
N1_7 C9_7 1_555 1_555
C2_7 C3_7 1_555 1_555
O13_4 C4_7 1_555 1_555
C3_7 C5_7 1_555 1_555
C5_7 H1_7 1_555 1_555
C9_7 H3_7 1_555 1_555
H4_7 C9_7 1_555 1_555
C10_7 N1_7 1_555 1_555
H6_7 C10_7 1_555 1_555
C14_7 C9_7 1_555 1_555
H13_7 C14_7 1_555 1_555
H14_7 C14_7 1_555 1_555
Cl3_7 C21_7 1_555 1_555
O5_7 C20_7 1_555 1_555
O6_7 C20_7 1_555 1_555
C20_7 C15_7 1_555 1_555
C21_7 C15_7 1_555 1_555
H16_7 C22_7 1_555 1_555
Co6_2 O6_7 1_555 1_555
Co7_2 O5_7 1_555 1_555
O9_7 Co3_4 1_555 1_555
O12_7 Co3_4 1_555 1_555
C2_7 C4_7 1_555 1_555
C21_7 C22_7 1_555 1_555
Co3_3 N1_8 1_555 1_555
Cl2_8 C3_8 1_555 1_555
N1_8 C9_8 1_555 1_555
C2_8 C3_8 1_555 1_555
O13_3 C4_8 1_555 1_555
C9_8 H3_8 1_555 1_555
H4_8 C9_8 1_555 1_555
C10_8 N1_8 1_555 1_555
H6_8 C10_8 1_555 1_555
C14_8 C9_8 1_555 1_555
H13_8 C14_8 1_555 1_555
H14_8 C14_8 1_555 1_555
H16_8 C22_8 1_555 1_555
O9_8 Co3_3 1_555 1_555
O12_8 Co3_3 1_555 1_555
C2_8 C4_8 1_555 1_555
H2_8 C8_8 1_555 1_555
H7_8 C11_8 1_555 1_555
H8_8 C11_8 1_555 1_555
N2_8 C12_8 1_555 1_555
C12_8 C11_8 1_555 1_555
H9_8 C12_8 1_555 1_555
H10_8 C12_8 1_555 1_555
H12_8 C13_8 1_555 1_555
Co4_4 N2_8 1_555 1_555
Cl4_8 C17_8 1_555 1_555
C16_8 C17_8 1_555 1_555
O14_4 C18_8 1_555 1_555
O10_8 Co4_4 1_555 1_555
O11_8 Co4_4 1_555 1_555
N2_8 C13_8 1_555 1_555
C16_8 C18_8 1_555 1_555
C5_8 H1_8 1_555 1_555
Cl3_8 C21_8 1_555 1_555
O5_8 C20_8 1_555 1_555
O6_8 C20_8 1_555 1_555
C20_8 C15_8 1_555 1_555
C21_8 C15_8 1_555 1_555
Co6 O6_8 1_555 1_555
Co7 O5_8 1_555 1_555
Cl1_8 C7_8 1_555 1_555
O1_8 C6_8 1_555 1_555
O2_8 C6_8 1_555 1_555
C6_8 C1_8 1_555 1_555
C7_8 C1_8 1_555 1_555
C19_8 H15_8 1_555 1_555
Co5_2 O1_8 1_555 1_555
Co8_2 O2_8 1_555 1_555
N2_9 C12_9 1_555 1_555
H9_9 C12_9 1_555 1_555
H10_9 C12_9 1_555 1_555
H11_9 C13_9 1_555 1_555
H12_9 C13_9 1_555 1_555
H13_9 C14_9 1_555 1_555
H14_9 C14_9 1_555 1_555
Co8_3 N2_9 1_555 1_555
Cl3_9 C21_9 1_555 1_555
Cl4_9 C17_9 1_555 1_555
O10_8 C20_9 1_555 1_555
O12_6 C20_9 1_555 1_555
O7_9 Co8_3 1_555 1_555
C15_9 C19_9 1_555 1_555
C16_9 C17_9 1_555 1_555
O8_5 C18_9 1_555 1_555
C17_9 C19_9 1_555 1_555
C18_9 O7_9 1_555 1_555
C19_9 H15_9 1_555 1_555
C20_9 C15_9 1_555 1_555
C21_9 C15_9 1_555 1_555
C22_9 C16_9 1_555 1_555
H16_9 C22_9 1_555 1_555
O13_5 Co8_3 1_555 1_555
N2_9 C13_9 1_555 1_555
N2_9 C14_9 1_555 1_555
C16_9 C18_9 1_555 1_555
O8_5 Co5_3 1_555 1_555
C21_9 C22_9 1_555 1_555
Co6_4 N1_9 1_555 1_555
Cl1_9 C7_9 1_555 1_555
Cl2_9 C3_9 1_555 1_555
N1_9 C9_9 1_555 1_555
O9_7 C6_9 1_555 1_555
O11_6 C6_9 1_555 1_555
O3_9 Co6_4 1_555 1_555
C1_9 C5_9 1_555 1_555
C2_9 C3_9 1_555 1_555
O4_5 C4_9 1_555 1_555
C3_9 C5_9 1_555 1_555
C4_9 O3_9 1_555 1_555
C5_9 H1_9 1_555 1_555
C6_9 C1_9 1_555 1_555
C7_9 C1_9 1_555 1_555
C8_9 C2_9 1_555 1_555
H2_9 C8_9 1_555 1_555
C9_9 H3_9 1_555 1_555
H4_9 C9_9 1_555 1_555
C10_9 N1_9 1_555 1_555
H5_9 C10_9 1_555 1_555
H6_9 C10_9 1_555 1_555
C11_9 N1_9 1_555 1_555
H7_9 C11_9 1_555 1_555
H8_9 C11_9 1_555 1_555
O14_5 Co6_4 1_555 1_555
C2_9 C4_9 1_555 1_555
O4_5 Co7_4 1_555 1_555
C7_9 C8_9 1_555 1_555
Co6_3 N1_10 1_555 1_555
Cl1_10 C7_10 1_555 1_555
Cl2_10 C3_10 1_555 1_555
N1_10 C9_10 1_555 1_555
O9_8 C6_10 1_555 1_555
O11_5 C6_10 1_555 1_555
O3_10 Co6_3 1_555 1_555
C1_10 C5_10 1_555 1_555
C2_10 C3_10 1_555 1_555
O4_6 C4_10 1_555 1_555
C3_10 C5_10 1_555 1_555
C4_10 O3_10 1_555 1_555
C5_10 H1_10 1_555 1_555
C6_10 C1_10 1_555 1_555
C7_10 C1_10 1_555 1_555
C8_10 C2_10 1_555 1_555
H2_10 C8_10 1_555 1_555
C9_10 H3_10 1_555 1_555
H4_10 C9_10 1_555 1_555
C10_10 N1_10 1_555 1_555
H5_10 C10_10 1_555 1_555
H6_10 C10_10 1_555 1_555
C11_10 N1_10 1_555 1_555
H7_10 C11_10 1_555 1_555
H8_10 C11_10 1_555 1_555
N2_10 C12_10 1_555 1_555
C12_10 C11_10 1_555 1_555
H9_10 C12_10 1_555 1_555
H10_10 C12_10 1_555 1_555
C13_10 C10_10 1_555 1_555
H11_10 C13_10 1_555 1_555
H12_10 C13_10 1_555 1_555
C14_10 C9_10 1_555 1_555
H13_10 C14_10 1_555 1_555
H14_10 C14_10 1_555 1_555
Co8_4 N2_10 1_555 1_555
Cl3_10 C21_10 1_555 1_555
Cl4_10 C17_10 1_555 1_555
O10_7 C20_10 1_555 1_555
O12_5 C20_10 1_555 1_555
O7_10 Co8_4 1_555 1_555
C15_10 C19_10 1_555 1_555
C16_10 C17_10 1_555 1_555
O8_6 C18_10 1_555 1_555
C17_10 C19_10 1_555 1_555
C18_10 O7_10 1_555 1_555
C19_10 H15_10 1_555 1_555
C20_10 C15_10 1_555 1_555
C21_10 C15_10 1_555 1_555
C22_10 C16_10 1_555 1_555
H16_10 C22_10 1_555 1_555
O13_6 Co8_4 1_555 1_555
O14_6 Co6_3 1_555 1_555
C2_10 C4_10 1_555 1_555
O4_6 Co7_3 1_555 1_555
C7_10 C8_10 1_555 1_555
N2_10 C13_10 1_555 1_555
N2_10 C14_10 1_555 1_555
C16_10 C18_10 1_555 1_555
O8_6 Co5_4 1_555 1_555
C21_10 C22_10 1_555 1_555
Co5_4 N1_11 1_555 1_555
Cl2_11 C3_11 1_555 1_555
N1_11 C9_11 1_555 1_555
O3_11 Co5_4 1_555 1_555
C2_11 C3_11 1_555 1_555
O13_6 C4_11 1_555 1_555
C4_11 O3_11 1_555 1_555
C8_11 C2_11 1_555 1_555
H2_11 C8_11 1_555 1_555
C9_11 H3_11 1_555 1_555
H4_11 C9_11 1_555 1_555
C10_11 N1_11 1_555 1_555
H5_11 C10_11 1_555 1_555
H6_11 C10_11 1_555 1_555
C11_11 N1_11 1_555 1_555
H7_11 C11_11 1_555 1_555
H8_11 C11_11 1_555 1_555
N2_11 C12_11 1_555 1_555
C12_11 C11_11 1_555 1_555
H9_11 C12_11 1_555 1_555
H10_11 C12_11 1_555 1_555
C13_11 C10_11 1_555 1_555
H11_11 C13_11 1_555 1_555
H12_11 C13_11 1_555 1_555
C14_11 C9_11 1_555 1_555
H13_11 C14_11 1_555 1_555
H14_11 C14_11 1_555 1_555
Co7_4 N2_11 1_555 1_555
Cl4_11 C17_11 1_555 1_555
O7_11 Co7_4 1_555 1_555
C16_11 C17_11 1_555 1_555
O14_5 C18_11 1_555 1_555
C18_11 O7_11 1_555 1_555
C22_11 C16_11 1_555 1_555
H16_11 C22_11 1_555 1_555
C2_11 C4_11 1_555 1_555
N2_11 C13_11 1_555 1_555
N2_11 C14_11 1_555 1_555
C16_11 C18_11 1_555 1_555
Cl1_11 C7_11 1_555 1_555
O9_2 C6_11 1_555 1_555
O11_4 C6_11 1_555 1_555
C1_11 C5_11 1_555 1_555
C5_11 H1_11 1_555 1_555
C6_11 C1_11 1_555 1_555
C7_11 C1_11 1_555 1_555
Cl3_11 C21_11 1_555 1_555
O10 C20_11 1_555 1_555
O12_4 C20_11 1_555 1_555
C15_11 C19_11 1_555 1_555
C19_11 H15_11 1_555 1_555
C20_11 C15_11 1_555 1_555
C21_11 C15_11 1_555 1_555
Co5_3 N1_12 1_555 1_555
Cl1_12 C7_12 1_555 1_555
Cl2_12 C3_12 1_555 1_555
N1_12 C9_12 1_555 1_555
O9 C6_12 1_555 1_555
O11_3 C6_12 1_555 1_555
O3_12 Co5_3 1_555 1_555
C1_12 C5_12 1_555 1_555
C2_12 C3_12 1_555 1_555
O13_5 C4_12 1_555 1_555
C3_12 C5_12 1_555 1_555
C4_12 O3_12 1_555 1_555
C5_12 H1_12 1_555 1_555
C6_12 C1_12 1_555 1_555
C7_12 C1_12 1_555 1_555
C8_12 C2_12 1_555 1_555
H2_12 C8_12 1_555 1_555
C9_12 H3_12 1_555 1_555
H4_12 C9_12 1_555 1_555
C10_12 N1_12 1_555 1_555
H5_12 C10_12 1_555 1_555
H6_12 C10_12 1_555 1_555
C11_12 N1_12 1_555 1_555
H7_12 C11_12 1_555 1_555
H8_12 C11_12 1_555 1_555
N2_12 C12_12 1_555 1_555
C12_12 C11_12 1_555 1_555
H9_12 C12_12 1_555 1_555
H10_12 C12_12 1_555 1_555
C13_12 C10_12 1_555 1_555
H11_12 C13_12 1_555 1_555
H12_12 C13_12 1_555 1_555
C14_12 C9_12 1_555 1_555
H13_12 C14_12 1_555 1_555
H14_12 C14_12 1_555 1_555
Co7_3 N2_12 1_555 1_555
Cl3_12 C21_12 1_555 1_555
Cl4_12 C17_12 1_555 1_555
O10_2 C20_12 1_555 1_555
O12_3 C20_12 1_555 1_555
O7_12 Co7_3 1_555 1_555
C15_12 C19_12 1_555 1_555
C16_12 C17_12 1_555 1_555
O14_6 C18_12 1_555 1_555
C17_12 C19_12 1_555 1_555
C18_12 O7_12 1_555 1_555
C19_12 H15_12 1_555 1_555
C20_12 C15_12 1_555 1_555
C21_12 C15_12 1_555 1_555
C22_12 C16_12 1_555 1_555
H16_12 C22_12 1_555 1_555
C2_12 C4_12 1_555 1_555
C7_12 C8_12 1_555 1_555
N2_12 C13_12 1_555 1_555
N2_12 C14_12 1_555 1_555
C16_12 C18_12 1_555 1_555
C21_12 C22_12 1_555 1_555
Cl1_13 C7_13 1_555 1_555
Cl2_13 C3_13 1_555 1_555
O9_3 C6_13 1_555 1_555
O11_2 C6_13 1_555 1_555
C1_13 C5_13 1_555 1_555
C2_13 C3_13 1_555 1_555
O4_7 C4_13 1_555 1_555
C3_13 C5_13 1_555 1_555
C4_13 O3_13 1_555 1_555
C5_13 H1_13 1_555 1_555
C6_13 C1_13 1_555 1_555
C7_13 C1_13 1_555 1_555
C8_13 C2_13 1_555 1_555
H2_13 C8_13 1_555 1_555
H4_13 C9_13 1_555 1_555
H7_13 C11_13 1_555 1_555
C12_13 C11_13 1_555 1_555
H10_13 C12_13 1_555 1_555
C14_13 C9_13 1_555 1_555
H13_13 C14_13 1_555 1_555
Cl3_13 C21_13 1_555 1_555
Cl4_13 C17_13 1_555 1_555
O10_4 C20_13 1_555 1_555
O12_2 C20_13 1_555 1_555
C15_13 C19_13 1_555 1_555
C16_13 C17_13 1_555 1_555
O8_7 C18_13 1_555 1_555
C17_13 C19_13 1_555 1_555
C18_13 O7_13 1_555 1_555
C19_13 H15_13 1_555 1_555
C20_13 C15_13 1_555 1_555
C21_13 C15_13 1_555 1_555
C22_13 C16_13 1_555 1_555
H16_13 C22_13 1_555 1_555
C2_13 C4_13 1_555 1_555
C7_13 C8_13 1_555 1_555
C16_13 C18_13 1_555 1_555
C21_13 C22_13 1_555 1_555
Co5_2 N1_13 1_555 1_555
C10_13 N1_13 1_555 1_555
H5_13 C10_13 1_555 1_555
H6_13 C10_13 1_555 1_555
C13_13 C10_13 1_555 1_555
H11_13 C13_13 1_555 1_555
H12_13 C13_13 1_555 1_555
Co7_2 N2_13 1_555 1_555
O13_7 Co7_2 1_555 1_555
O14_7 Co5_2 1_555 1_555
N2_13 C13_13 1_555 1_555
H11_14 C13_14 1_555 1_555
H12_14 C13_14 1_555 1_555
Co7 N2_14 1_555 1_555
O13_8 Co7 1_555 1_555
N2_14 C13_14 1_555 1_555
Co5 N1_14 1_555 1_555
C10_14 N1_14 1_555 1_555
H5_14 C10_14 1_555 1_555
H6_14 C10_14 1_555 1_555
O14_8 Co5 1_555 1_555
H10_14 C12_14 1_555 1_555
H13_14 C14_14 1_555 1_555
Cl3_14 C21_14 1_555 1_555
Cl4_14 C17_14 1_555 1_555
O10_3 C20_14 1_555 1_555
O12 C20_14 1_555 1_555
C15_14 C19_14 1_555 1_555
C16_14 C17_14 1_555 1_555
O8_8 C18_14 1_555 1_555
C17_14 C19_14 1_555 1_555
C18_14 O7_14 1_555 1_555
C19_14 H15_14 1_555 1_555
C20_14 C15_14 1_555 1_555
C21_14 C15_14 1_555 1_555
C22_14 C16_14 1_555 1_555
H16_14 C22_14 1_555 1_555
C16_14 C18_14 1_555 1_555
C21_14 C22_14 1_555 1_555
Cl1_14 C7_14 1_555 1_555
Cl2_14 C3_14 1_555 1_555
O9_4 C6_14 1_555 1_555
O11 C6_14 1_555 1_555
C1_14 C5_14 1_555 1_555
C2_14 C3_14 1_555 1_555
O4_8 C4_14 1_555 1_555
C3_14 C5_14 1_555 1_555
C4_14 O3_14 1_555 1_555
C5_14 H1_14 1_555 1_555
C6_14 C1_14 1_555 1_555
C7_14 C1_14 1_555 1_555
C8_14 C2_14 1_555 1_555
H2_14 C8_14 1_555 1_555
H4_14 C9_14 1_555 1_555
H7_14 C11_14 1_555 1_555
C2_14 C4_14 1_555 1_555
C7_14 C8_14 1_555 1_555
Co6 N1_15 1_555 1_555
Cl2_15 C3_15 1_555 1_555
N1_15 C9_15 1_555 1_555
C2_15 C3_15 1_555 1_555
O13_8 C4_15 1_555 1_555
C3_15 C5_15 1_555 1_555
C5_15 H1_15 1_555 1_555
C9_15 H3_15 1_555 1_555
H4_15 C9_15 1_555 1_555
C10_15 N1_15 1_555 1_555
H6_15 C10_15 1_555 1_555
C14_15 C9_15 1_555 1_555
H13_15 C14_15 1_555 1_555
H14_15 C14_15 1_555 1_555
Cl3_15 C21_15 1_555 1_555
O10_5 C20_15 1_555 1_555
O12_8 C20_15 1_555 1_555
C20_15 C15_15 1_555 1_555
C21_15 C15_15 1_555 1_555
H16_15 C22_15 1_555 1_555
C2_15 C4_15 1_555 1_555
C21_15 C22_15 1_555 1_555
Cl1_15 C7_15 1_555 1_555
O9_6 C6_15 1_555 1_555
O11_8 C6_15 1_555 1_555
C6_15 C1_15 1_555 1_555
C7_15 C1_15 1_555 1_555
H2_15 C8_15 1_555 1_555
H7_15 C11_15 1_555 1_555
H8_15 C11_15 1_555 1_555
N2_15 C12_15 1_555 1_555
C12_15 C11_15 1_555 1_555
H9_15 C12_15 1_555 1_555
H10_15 C12_15 1_555 1_555
H12_15 C13_15 1_555 1_555
Co8_2 N2_15 1_555 1_555
Cl4_15 C17_15 1_555 1_555
C16_15 C17_15 1_555 1_555
O14_7 C18_15 1_555 1_555
C17_15 C19_15 1_555 1_555
C19_15 H15_15 1_555 1_555
C7_15 C8_15 1_555 1_555
N2_15 C13_15 1_555 1_555
C16_15 C18_15 1_555 1_555
Cl1_16 C7_16 1_555 1_555
O9_5 C6_16 1_555 1_555
O11_7 C6_16 1_555 1_555
C6_16 C1_16 1_555 1_555
C7_16 C1_16 1_555 1_555
C19_16 H15_16 1_555 1_555
C5_16 H1_16 1_555 1_555
Cl3_16 C21_16 1_555 1_555
O10_6 C20_16 1_555 1_555
O12_7 C20_16 1_555 1_555
C20_16 C15_16 1_555 1_555
C21_16 C15_16 1_555 1_555
H2_16 C8_16 1_555 1_555
H7_16 C11_16 1_555 1_555
H8_16 C11_16 1_555 1_555
N2_16 C12_16 1_555 1_555
C12_16 C11_16 1_555 1_555
H9_16 C12_16 1_555 1_555
H10_16 C12_16 1_555 1_555
H12_16 C13_16 1_555 1_555
Co8 N2_16 1_555 1_555
Cl4_16 C17_16 1_555 1_555
C16_16 C17_16 1_555 1_555
O14_8 C18_16 1_555 1_555
N2_16 C13_16 1_555 1_555
C16_16 C18_16 1_555 1_555
Co6_2 N1_16 1_555 1_555
Cl2_16 C3_16 1_555 1_555
N1_16 C9_16 1_555 1_555
C2_16 C3_16 1_555 1_555
O13_7 C4_16 1_555 1_555
C9_16 H3_16 1_555 1_555
H4_16 C9_16 1_555 1_555
C10_16 N1_16 1_555 1_555
H6_16 C10_16 1_555 1_555
C14_16 C9_16 1_555 1_555
H13_16 C14_16 1_555 1_555
H14_16 C14_16 1_555 1_555
H16_16 C22_16 1_555 1_555
C2_16 C4_16 1_555 1_555

#END
