
###############################################################################
#
# This file contains modified crystal structure data generated from the
# MOF subset of the Cambridge Structural Database (CSD) v543 
# hosted by the Cambridge Crystallographic Data Centre (CCDC).
#
# This work is licensed under the Creative Commons
# Attribution-NonCommercial-ShareAlike 4.0 International License.
# To view a copy of this license, visit
# http://creativecommons.org/licenses/by-nc-sa/4.0/
# or send a letter to
# Creative Commons, PO Box 1866, Mountain View, CA 94042, USA.
#
# CIF created using the CSD Python API on 29 September 2022
# The structure has been converted into the P1 space group
# The structure has a 3D framework
# The original CSD entry TOYCOC is in the monoclinic crystal system
# The framework has been calculated to contain at least 10.0% void space
# The void calculation uses a probe of radius 1.32A, grid spacing 0.4
# H atom positions have been added when not included in the experimental data
#
###############################################################################

data_TOYCOC
_chemical_formula_moiety         '(C240 H200 Ce6 N32 O60)n'
_symmetry_cell_setting           triclinic
_symmetry_space_group_name_H-M   'P 1'
_symmetry_Int_Tables_number      1
_space_group_name_Hall           'P 1'
loop_
_symmetry_equiv_pos_site_id
_symmetry_equiv_pos_as_xyz
1 x,y,z
_cell_length_a                   31.506(4)
_cell_length_b                   13.5065(19)
_cell_length_c                   22.512(3)
_cell_angle_alpha                90
_cell_angle_beta                 101.967(5)
_cell_angle_gamma                90
_cell_volume                     9371.47
loop_
_atom_site_label
_atom_site_type_symbol
_atom_site_fract_x
_atom_site_fract_y
_atom_site_fract_z
Ce1 Ce 0.43641(2) 0.04812(4) 0.49707(3)
O7 O 0.3987(3) 0.2040(8) 0.5172(6)
C25 C 0.3938(10) 0.2874(17) 0.5025(15)
C26 C 0.4010(11) 0.3735(17) 0.5439(14)
H13 H 0.404603 0.349276 0.586181
H14 H 0.374790 0.415776 0.535420
C27 C 0.4392(11) 0.436(2) 0.5397(16)
H15 H 0.450771 0.465837 0.579862
H16 H 0.462189 0.392553 0.529677
C28 C 0.4298(16) 0.516(2) 0.4938(18)
H17 H 0.406078 0.556904 0.503031
H18 H 0.455855 0.558072 0.497867
C29 C 0.4174(16) 0.482(3) 0.4305(16)
H19 H 0.442493 0.447083 0.420056
H20 H 0.411714 0.541342 0.404140
C30 C 0.3792(16) 0.416(3) 0.4159(18)
H21 H 0.372618 0.407330 0.371254
H22 H 0.354459 0.453361 0.425934
N4 N 0.3785(12) 0.311(2) 0.4445(15)
H23 H 0.367112 0.262730 0.420019
O8 O 0.4160(3) 0.0180(10) 0.5951(5)
O9 O 0.4912(8) 0.160(2) 0.5586(14)
O10 O 0.4526(11) 0.167(5) 0.418(3)
O11 O 0.5083(15) 0.069(3) 0.4481(19)
O14 O 0.3683(8) 0.080(3) 0.4151(15)
H25 H 0.414997 0.0819323 0.616546
O1 O 0.4417(8) 0.9050(14) 0.4333(10)
O2 O 0.5088(8) 0.840(2) 0.4414(14)
O3 O 0.5474(11) 0.167(5) 0.082(3)
O4 O 0.4917(15) 0.069(3) 0.0519(19)
O5 O 0.1399(10) 0.450(2) 0.0255(14)
O6 O 0.1317(8) 0.580(3) 0.0849(15)
N1 N 0.3520(7) 0.550(2) 0.2243(13)
N2 N 0.4226(8) 0.486(2) 0.2235(14)
N3 N 0.3606(7) 0.421(2) 0.1559(14)
C1 C 0.4691(8) 0.8453(16) 0.4200(11)
C2 C 0.4601(8) 0.627(2) 0.3109(14)
H1 H 0.478727 0.582364 0.295841
C3 C 0.4768(8) 0.697(2) 0.3527(15)
H2 H 0.507278 0.700089 0.367260
C4 C 0.4510(8) 0.7630(18) 0.3741(13)
C5 C 0.4149(8) 0.6213(19) 0.2905(13)
C6 C 0.3883(8) 0.682(2) 0.3149(13)
H3 H 0.357663 0.676638 0.302396
C7 C 0.4060(7) 0.7525(18) 0.3577(12)
H4 H 0.387655 0.793281 0.375866
C8 C 0.5074(11) 0.149(4) 0.076(3)
C9 C 0.4805(10) 0.218(3) 0.103(2)
C10 C 0.4354(9) 0.212(2) 0.0900(14)
H5 H 0.421769 0.161026 0.063456
C11 C 0.4099(9) 0.276(2) 0.1145(14)
H6 H 0.379194 0.271213 0.104690
C12 C 0.4304(8) 0.351(2) 0.1544(15)
C13 C 0.4758(8) 0.352(3) 0.172(2)
H7 H 0.489877 0.399051 0.200096
C14 C 0.4998(9) 0.285(3) 0.148(2)
H8 H 0.530376 0.284097 0.161456
C15 C 0.1555(9) 0.515(8) 0.067(4)
C16 C 0.2020(7) 0.503(4) 0.099(2)
C17 C 0.2175(7) 0.543(2) 0.1555(14)
H9 H 0.198149 0.574883 0.176515
C18 C 0.2614(7) 0.537(2) 0.1820(14)
H10 H 0.271894 0.565574 0.220787
C19 C 0.2893(7) 0.490(3) 0.1528(15)
C20 C 0.2743(8) 0.442(3) 0.0971(15)
H11 H 0.293815 0.410858 0.076157
C21 C 0.2292(8) 0.442(2) 0.0732(15)
H12 H 0.217351 0.400771 0.039669
C22 C 0.3360(7) 0.489(2) 0.1791(15)
C23 C 0.3960(8) 0.550(2) 0.2425(15)
C24 C 0.4029(8) 0.424(2) 0.1798(16)
Ce2 Ce 0.56359(2) 0.04812(4) 0.00293(3)
Ce3 Ce 0.06359(2) 0.54812(4) 0.00293(3)
Ce4 Ce 0.56359(2) 0.95188(4) 0.50293(3)
O12 O 0.4917(15) 0.931(3) 0.5519(19)
O13 O 0.3601(10) 0.950(2) 0.4745(14)
H24 H 0.437762 0.973804 0.620253
Ce5 Ce 0.43641(2) 0.95188(4) 0.99707(3)
C28_2 C 0.5702(16) 0.516(2) 0.0062(18)
H18_2 H 0.544145 0.558072 0.002133
C29_2 C 0.5826(16) 0.482(3) 0.0695(16)
H19_2 H 0.557507 0.447083 0.079944
H20_2 H 0.588286 0.541342 0.095860
C30_2 C 0.6208(16) 0.416(3) 0.0841(18)
H21_2 H 0.627382 0.407330 0.128746
H22_2 H 0.645541 0.453361 0.074066
N4_2 N 0.6215(12) 0.311(2) 0.0555(15)
H23_2 H 0.632888 0.262730 0.079981
O14_2 O 0.6317(8) 0.080(3) 0.0849(15)
O7_2 O 0.6013(3) 0.2040(8) 0.9828(6)
C25_2 C 0.6062(10) 0.2874(17) 0.9975(15)
C26_2 C 0.5990(11) 0.3735(17) 0.9561(14)
H13_2 H 0.595397 0.349276 0.913819
H14_2 H 0.625210 0.415776 0.964580
C27_2 C 0.5608(11) 0.436(2) 0.9603(16)
H15_2 H 0.549229 0.465837 0.920138
H16_2 H 0.537811 0.392553 0.970323
H17_2 H 0.593922 0.556904 0.996969
O8_2 O 0.5840(3) 0.0180(10) 0.9049(5)
O9_2 O 0.5088(8) 0.160(2) 0.9414(14)
H25_2 H 0.585003 0.0819323 0.883454
O1_2 O 0.5583(8) 0.9050(14) 0.0667(10)
O2_2 O 0.4912(8) 0.840(2) 0.0586(14)
O5_2 O 0.8601(10) 0.450(2) 0.4745(14)
O6_2 O 0.8683(8) 0.580(3) 0.4151(15)
N1_2 N 0.6480(7) 0.550(2) 0.2757(13)
N2_2 N 0.5774(8) 0.486(2) 0.2765(14)
N3_2 N 0.6394(7) 0.421(2) 0.3441(14)
C1_2 C 0.5309(8) 0.8453(16) 0.0800(11)
C2_2 C 0.5399(8) 0.627(2) 0.1891(14)
H1_2 H 0.521273 0.582364 0.204159
C3_2 C 0.5232(8) 0.697(2) 0.1473(15)
H2_2 H 0.492722 0.700089 0.132740
C4_2 C 0.5490(8) 0.7630(18) 0.1259(13)
C5_2 C 0.5851(8) 0.6213(19) 0.2095(13)
C6_2 C 0.6117(8) 0.682(2) 0.1851(13)
H3_2 H 0.642337 0.676638 0.197604
C7_2 C 0.5940(7) 0.7525(18) 0.1423(12)
H4_2 H 0.612345 0.793281 0.124134
C8_2 C 0.4926(11) 0.149(4) 0.424(3)
C9_2 C 0.5195(10) 0.218(3) 0.397(2)
C10_2 C 0.5646(9) 0.212(2) 0.4100(14)
H5_2 H 0.578231 0.161026 0.436544
C11_2 C 0.5901(9) 0.276(2) 0.3855(14)
H6_2 H 0.620806 0.271213 0.395310
C12_2 C 0.5696(8) 0.351(2) 0.3456(15)
C13_2 C 0.5242(8) 0.352(3) 0.328(2)
H7_2 H 0.510123 0.399051 0.299904
C14_2 C 0.5002(9) 0.285(3) 0.352(2)
H8_2 H 0.469624 0.284097 0.338544
C15_2 C 0.8445(9) 0.515(8) 0.433(4)
C16_2 C 0.7980(7) 0.503(4) 0.401(2)
C17_2 C 0.7825(7) 0.543(2) 0.3445(14)
H9_2 H 0.801851 0.574883 0.323485
C18_2 C 0.7386(7) 0.537(2) 0.3180(14)
H10_2 H 0.728106 0.565574 0.279213
C19_2 C 0.7107(7) 0.490(3) 0.3472(15)
C20_2 C 0.7257(8) 0.442(3) 0.4029(15)
H11_2 H 0.706185 0.410858 0.423843
C21_2 C 0.7708(8) 0.442(2) 0.4268(15)
H12_2 H 0.782649 0.400771 0.460331
C22_2 C 0.6640(7) 0.489(2) 0.3209(15)
C23_2 C 0.6040(8) 0.550(2) 0.2575(15)
C24_2 C 0.5971(8) 0.424(2) 0.3202(16)
Ce3_2 Ce 0.93641(2) 0.54812(4) 0.49707(3)
O13_2 O 0.6399(10) 0.950(2) 0.0255(14)
O12_2 O 0.5083(15) 0.931(3) 0.9481(19)
H24_2 H 0.562238 0.973804 0.879747
O2_3 O 0.0088(8) 0.340(2) 0.4414(14)
H2_3 H 0.007278 0.200089 0.367260
Ce4_2 Ce 0.06359(2) 0.45188(4) 0.50293(3)
O11_2 O 0.0083(15) 0.569(3) 0.4481(19)
O3_2 O 0.0474(11) 0.667(5) 0.082(3)
C8_3 C 0.0074(11) 0.649(4) 0.076(3)
H8_3 H 0.030376 0.784097 0.161456
O1_3 O 0.9417(8) 0.4050(14) 0.4333(10)
N1_3 N 0.8520(7) 0.050(2) 0.2243(13)
C1_3 C 0.9691(8) 0.3453(16) 0.4200(11)
C2_3 C 0.9601(8) 0.127(2) 0.3109(14)
H1_3 H 0.978727 0.082364 0.295841
C3_3 C 0.9768(8) 0.197(2) 0.3527(15)
C4_3 C 0.9510(8) 0.2630(18) 0.3741(13)
C5_3 C 0.9149(8) 0.1213(19) 0.2905(13)
C6_3 C 0.8883(8) 0.182(2) 0.3149(13)
H3_3 H 0.857663 0.176638 0.302396
C7_3 C 0.9060(7) 0.2525(18) 0.3577(12)
H4_3 H 0.887655 0.293281 0.375866
C15_3 C 0.6555(9) 0.015(8) 0.067(4)
C16_3 C 0.7020(7) 0.003(4) 0.099(2)
C17_3 C 0.7175(7) 0.043(2) 0.1555(14)
H9_3 H 0.698149 0.074883 0.176515
C18_3 C 0.7614(7) 0.037(2) 0.1820(14)
H10_3 H 0.771894 0.065574 0.220787
C23_3 C 0.8960(8) 0.050(2) 0.2425(15)
O7_3 O 0.8987(3) 0.7040(8) 0.5172(6)
C25_3 C 0.8938(10) 0.7874(17) 0.5025(15)
C26_3 C 0.9010(11) 0.8735(17) 0.5439(14)
H13_3 H 0.904603 0.849276 0.586181
H14_3 H 0.874790 0.915776 0.535420
C27_3 C 0.9392(11) 0.936(2) 0.5397(16)
H15_3 H 0.950771 0.965837 0.579862
H16_3 H 0.962189 0.892553 0.529677
C29_3 C 0.9174(16) 0.982(3) 0.4305(16)
H19_3 H 0.942493 0.947083 0.420056
C30_3 C 0.8792(16) 0.916(3) 0.4159(18)
H21_3 H 0.872618 0.907330 0.371254
H22_3 H 0.854459 0.953361 0.425934
N4_3 N 0.8785(12) 0.811(2) 0.4445(15)
H23_3 H 0.867112 0.762730 0.420019
O8_3 O 0.9160(3) 0.5180(10) 0.5951(5)
O9_3 O 0.9912(8) 0.660(2) 0.5586(14)
O10_2 O 0.9526(11) 0.667(5) 0.418(3)
O12_3 O 0.9917(15) 0.431(3) 0.5519(19)
H24_3 H 0.937762 0.473804 0.620253
H25_3 H 0.914997 0.581932 0.616546
O4_2 O 0.9917(15) 0.569(3) 0.0519(19)
N2_3 N 0.9226(8) 0.986(2) 0.2235(14)
N3_3 N 0.8606(7) 0.921(2) 0.1559(14)
C9_3 C 0.9805(10) 0.718(3) 0.103(2)
C10_3 C 0.9354(9) 0.712(2) 0.0900(14)
H5_3 H 0.921769 0.661026 0.063456
C11_3 C 0.9099(9) 0.776(2) 0.1145(14)
H6_3 H 0.879194 0.771213 0.104690
C12_3 C 0.9304(8) 0.851(2) 0.1544(15)
C13_3 C 0.9758(8) 0.852(3) 0.172(2)
H7_3 H 0.989877 0.899051 0.200096
C14_3 C 0.9998(9) 0.785(3) 0.148(2)
C19_3 C 0.7893(7) 0.990(3) 0.1528(15)
C20_3 C 0.7743(8) 0.942(3) 0.0971(15)
H11_3 H 0.793815 0.910858 0.076157
C21_3 C 0.7292(8) 0.942(2) 0.0732(15)
H12_3 H 0.717351 0.900771 0.039669
C22_3 C 0.8360(7) 0.989(2) 0.1791(15)
C24_3 C 0.9029(8) 0.924(2) 0.1798(16)
Ce5_2 Ce 0.93641(2) 0.45188(4) 0.99707(3)
O1_4 O 0.0583(8) 0.4050(14) 0.0667(10)
N1_4 N 0.1480(7) 0.050(2) 0.2757(13)
C1_4 C 0.0309(8) 0.3453(16) 0.0800(11)
C2_4 C 0.0399(8) 0.127(2) 0.1891(14)
H1_4 H 0.021273 0.082364 0.204159
C3_4 C 0.0232(8) 0.197(2) 0.1473(15)
C4_4 C 0.0490(8) 0.2630(18) 0.1259(13)
C5_4 C 0.0851(8) 0.1213(19) 0.2095(13)
C6_4 C 0.1117(8) 0.182(2) 0.1851(13)
H3_4 H 0.142337 0.176638 0.197604
C7_4 C 0.0940(7) 0.2525(18) 0.1423(12)
H4_4 H 0.112345 0.293281 0.124134
C15_4 C 0.3445(9) 0.015(8) 0.433(4)
C16_4 C 0.2980(7) 0.003(4) 0.401(2)
C17_4 C 0.2825(7) 0.043(2) 0.3445(14)
H9_4 H 0.301851 0.074883 0.323485
C18_4 C 0.2386(7) 0.037(2) 0.3180(14)
H10_4 H 0.228106 0.065574 0.279213
C23_4 C 0.1040(8) 0.050(2) 0.2575(15)
C29_4 C 0.0826(16) 0.982(3) 0.0695(16)
H19_4 H 0.057507 0.947083 0.079944
C30_4 C 0.1208(16) 0.916(3) 0.0841(18)
H21_4 H 0.127382 0.907330 0.128746
H22_4 H 0.145541 0.953361 0.074066
N4_4 N 0.1215(12) 0.811(2) 0.0555(15)
H23_4 H 0.132888 0.762730 0.079981
O7_4 O 0.1013(3) 0.7040(8) 0.9828(6)
C25_4 C 0.1062(10) 0.7874(17) 0.9975(15)
C26_4 C 0.0990(11) 0.8735(17) 0.9561(14)
H13_4 H 0.095397 0.849276 0.913819
H14_4 H 0.125210 0.915776 0.964580
C27_4 C 0.0608(11) 0.936(2) 0.9603(16)
H15_4 H 0.049229 0.965837 0.920138
H16_4 H 0.037811 0.892553 0.970323
O8_4 O 0.0840(3) 0.5180(10) 0.9049(5)
O9_4 O 0.0088(8) 0.660(2) 0.9414(14)
O12_4 O 0.0083(15) 0.431(3) 0.9481(19)
H24_4 H 0.0622382 0.473804 0.879747
H25_4 H 0.0850034 0.581932 0.883454
N2_4 N 0.0774(8) 0.986(2) 0.2765(14)
N3_4 N 0.1394(7) 0.921(2) 0.3441(14)
C9_4 C 0.0195(10) 0.718(3) 0.397(2)
C10_4 C 0.0646(9) 0.712(2) 0.4100(14)
H5_4 H 0.078231 0.661026 0.436544
C11_4 C 0.0901(9) 0.776(2) 0.3855(14)
H6_4 H 0.120806 0.771213 0.395310
C12_4 C 0.0696(8) 0.851(2) 0.3456(15)
C13_4 C 0.0242(8) 0.852(3) 0.328(2)
H7_4 H 0.010123 0.899051 0.299904
C14_4 C 0.0002(9) 0.785(3) 0.352(2)
C19_4 C 0.2107(7) 0.990(3) 0.3472(15)
C20_4 C 0.2257(8) 0.942(3) 0.4029(15)
H11_4 H 0.206185 0.910858 0.423843
C21_4 C 0.2708(8) 0.942(2) 0.4268(15)
H12_4 H 0.282649 0.900771 0.460331
C22_4 C 0.1640(7) 0.989(2) 0.3209(15)
C24_4 C 0.0971(8) 0.924(2) 0.3202(16)
O2_4 O 0.9912(8) 0.340(2) 0.0586(14)
H2_4 H 0.992722 0.200089 0.132740
C8_4 C 0.9926(11) 0.649(4) 0.424(3)
H8_4 H 0.969624 0.784097 0.338544
O1_5 O 0.5583(8) 0.0950(14) 0.5667(10)
O3_3 O 0.4526(11) 0.833(5) 0.918(3)
O5_3 O 0.8601(10) 0.550(2) 0.9745(14)
O6_3 O 0.8683(8) 0.420(3) 0.9151(15)
N1_5 N 0.6480(7) 0.450(2) 0.7757(13)
N2_5 N 0.5774(8) 0.514(2) 0.7765(14)
N3_5 N 0.6394(7) 0.579(2) 0.8441(14)
C1_5 C 0.5309(8) 0.1547(16) 0.5800(11)
C2_5 C 0.5399(8) 0.373(2) 0.6891(14)
H1_5 H 0.521273 0.417636 0.704159
C3_5 C 0.5232(8) 0.303(2) 0.6473(15)
H2_5 H 0.492722 0.299911 0.632740
C4_5 C 0.5490(8) 0.2370(18) 0.6259(13)
C5_5 C 0.5851(8) 0.3787(19) 0.7095(13)
C6_5 C 0.6117(8) 0.318(2) 0.6851(13)
H3_5 H 0.642337 0.323362 0.697604
C7_5 C 0.5940(7) 0.2475(18) 0.6423(12)
H4_5 H 0.612345 0.206719 0.624134
C8_5 C 0.4926(11) 0.851(4) 0.924(3)
C9_5 C 0.5195(10) 0.782(3) 0.897(2)
C10_5 C 0.5646(9) 0.788(2) 0.9100(14)
H5_5 H 0.578231 0.838974 0.936544
C11_5 C 0.5901(9) 0.724(2) 0.8855(14)
H6_5 H 0.620806 0.728787 0.895310
C12_5 C 0.5696(8) 0.649(2) 0.8456(15)
C13_5 C 0.5242(8) 0.648(3) 0.828(2)
H7_5 H 0.510123 0.600949 0.799904
C14_5 C 0.5002(9) 0.715(3) 0.852(2)
H8_5 H 0.469624 0.715903 0.838544
C15_5 C 0.8445(9) 0.485(8) 0.933(4)
C16_5 C 0.7980(7) 0.497(4) 0.901(2)
C17_5 C 0.7825(7) 0.457(2) 0.8445(14)
H9_5 H 0.801851 0.425117 0.823485
C18_5 C 0.7386(7) 0.463(2) 0.8180(14)
H10_5 H 0.728106 0.434426 0.779213
C19_5 C 0.7107(7) 0.510(3) 0.8472(15)
C20_5 C 0.7257(8) 0.558(3) 0.9029(15)
H11_5 H 0.706185 0.589142 0.923843
C21_5 C 0.7708(8) 0.558(2) 0.9268(15)
H12_5 H 0.782649 0.599229 0.960331
C22_5 C 0.6640(7) 0.511(2) 0.8209(15)
C23_5 C 0.6040(8) 0.450(2) 0.7575(15)
C24_5 C 0.5971(8) 0.576(2) 0.8202(16)
O13_3 O 0.6399(10) 0.050(2) 0.5255(14)
H24_5 H 0.562238 0.0261964 0.379747
O7_5 O 0.6013(3) 0.7960(8) 0.4828(6)
C25_5 C 0.6062(10) 0.7126(17) 0.4975(15)
C26_5 C 0.5990(11) 0.6265(17) 0.4561(14)
H13_5 H 0.595397 0.650724 0.413819
H14_5 H 0.625210 0.584224 0.464580
C27_5 C 0.5608(11) 0.564(2) 0.4603(16)
H15_5 H 0.549229 0.534163 0.420138
H16_5 H 0.537811 0.607447 0.470323
C28_3 C 0.5702(16) 0.484(2) 0.5062(18)
H17_3 H 0.593922 0.443096 0.496969
H18_3 H 0.544145 0.441928 0.502133
C29_5 C 0.5826(16) 0.518(3) 0.5695(16)
H19_5 H 0.557507 0.552917 0.579944
H20_3 H 0.588286 0.458658 0.595860
C30_5 C 0.6208(16) 0.584(3) 0.5841(18)
H21_5 H 0.627382 0.592670 0.628746
H22_5 H 0.645541 0.546639 0.574066
N4_5 N 0.6215(12) 0.689(2) 0.5555(15)
H23_5 H 0.632888 0.737270 0.579981
O8_5 O 0.5840(3) 0.9820(10) 0.4049(5)
O10_3 O 0.5474(11) 0.833(5) 0.582(3)
O14_3 O 0.6317(8) 0.920(3) 0.5849(15)
H25_5 H 0.585003 0.918068 0.383454
H24_6 H 0.437762 0.0261964 0.120253
O1_6 O 0.4417(8) 0.0950(14) 0.9333(10)
O5_4 O 0.1399(10) 0.550(2) 0.5255(14)
O6_4 O 0.1317(8) 0.420(3) 0.5849(15)
N1_6 N 0.3520(7) 0.450(2) 0.7243(13)
N2_6 N 0.4226(8) 0.514(2) 0.7235(14)
N3_6 N 0.3606(7) 0.579(2) 0.6559(14)
C1_6 C 0.4691(8) 0.1547(16) 0.9200(11)
C2_6 C 0.4601(8) 0.373(2) 0.8109(14)
H1_6 H 0.478727 0.417636 0.795841
C3_6 C 0.4768(8) 0.303(2) 0.8527(15)
H2_6 H 0.507278 0.299911 0.867260
C4_6 C 0.4510(8) 0.2370(18) 0.8741(13)
C5_6 C 0.4149(8) 0.3787(19) 0.7905(13)
C6_6 C 0.3883(8) 0.318(2) 0.8149(13)
H3_6 H 0.357663 0.323362 0.802396
C7_6 C 0.4060(7) 0.2475(18) 0.8577(12)
H4_6 H 0.387655 0.206719 0.875866
C8_6 C 0.5074(11) 0.851(4) 0.576(3)
C9_6 C 0.4805(10) 0.782(3) 0.603(2)
C10_6 C 0.4354(9) 0.788(2) 0.5900(14)
H5_6 H 0.421769 0.838974 0.563456
C11_6 C 0.4099(9) 0.724(2) 0.6145(14)
H6_6 H 0.379194 0.728787 0.604690
C12_6 C 0.4304(8) 0.649(2) 0.6544(15)
C13_6 C 0.4758(8) 0.648(3) 0.672(2)
H7_6 H 0.489877 0.600949 0.700096
C14_6 C 0.4998(9) 0.715(3) 0.648(2)
H8_6 H 0.530376 0.715903 0.661456
C15_6 C 0.1555(9) 0.485(8) 0.567(4)
C16_6 C 0.2020(7) 0.497(4) 0.599(2)
C17_6 C 0.2175(7) 0.457(2) 0.6555(14)
H9_6 H 0.198149 0.425117 0.676515
C18_6 C 0.2614(7) 0.463(2) 0.6820(14)
H10_6 H 0.271894 0.434426 0.720787
C19_6 C 0.2893(7) 0.510(3) 0.6528(15)
C20_6 C 0.2743(8) 0.558(3) 0.5971(15)
H11_6 H 0.293815 0.589142 0.576157
C21_6 C 0.2292(8) 0.558(2) 0.5732(15)
H12_6 H 0.217351 0.599229 0.539669
C22_6 C 0.3360(7) 0.511(2) 0.6791(15)
C23_6 C 0.3960(8) 0.450(2) 0.7425(15)
C24_6 C 0.4029(8) 0.576(2) 0.6798(16)
O13_4 O 0.3601(10) 0.050(2) 0.9745(14)
O7_6 O 0.3987(3) 0.7960(8) 0.0172(6)
C25_6 C 0.3938(10) 0.7126(17) 0.0025(15)
C26_6 C 0.4010(11) 0.6265(17) 0.0439(14)
H13_6 H 0.404603 0.650724 0.086181
H14_6 H 0.374790 0.584224 0.035420
C27_6 C 0.4392(11) 0.564(2) 0.0397(16)
H15_6 H 0.450771 0.534163 0.079862
H16_6 H 0.462189 0.607447 0.029677
H17_4 H 0.406078 0.443096 0.003031
O8_6 O 0.4160(3) 0.9820(10) 0.0951(5)
H25_6 H 0.414997 0.918068 0.116546
C28_4 C 0.4298(16) 0.484(2) 0.9938(18)
H18_4 H 0.455855 0.441928 0.997867
C29_6 C 0.4174(16) 0.518(3) 0.9305(16)
H19_6 H 0.442493 0.552917 0.920056
H20_4 H 0.411714 0.458658 0.904140
C30_6 C 0.3792(16) 0.584(3) 0.9159(18)
H21_6 H 0.372618 0.592670 0.871254
H22_6 H 0.354459 0.546639 0.925934
N4_6 N 0.3785(12) 0.689(2) 0.9445(15)
H23_6 H 0.367112 0.737270 0.920019
O14_4 O 0.3683(8) 0.920(3) 0.9151(15)
N2_7 N 0.0774(8) 0.014(2) 0.7765(14)
N3_7 N 0.1394(7) 0.079(2) 0.8441(14)
C9_7 C 0.0195(10) 0.282(3) 0.897(2)
C10_7 C 0.0646(9) 0.288(2) 0.9100(14)
H5_7 H 0.078231 0.338974 0.936544
C11_7 C 0.0901(9) 0.224(2) 0.8855(14)
H6_7 H 0.120806 0.228787 0.895310
C12_7 C 0.0696(8) 0.149(2) 0.8456(15)
C13_7 C 0.0242(8) 0.148(3) 0.828(2)
H7_7 H 0.010123 0.100949 0.799904
C14_7 C 0.0002(9) 0.215(3) 0.852(2)
C19_7 C 0.2107(7) 0.010(3) 0.8472(15)
C20_7 C 0.2257(8) 0.058(3) 0.9029(15)
H11_7 H 0.206185 0.089142 0.923843
C21_7 C 0.2708(8) 0.058(2) 0.9268(15)
H12_7 H 0.282649 0.099229 0.960331
C22_7 C 0.1640(7) 0.011(2) 0.8209(15)
C24_7 C 0.0971(8) 0.076(2) 0.8202(16)
O1_7 O 0.0583(8) 0.5950(14) 0.5667(10)
N1_7 N 0.1480(7) 0.950(2) 0.7757(13)
C1_7 C 0.0309(8) 0.6547(16) 0.5800(11)
C2_7 C 0.0399(8) 0.873(2) 0.6891(14)
H1_7 H 0.021273 0.917636 0.704159
C3_7 C 0.0232(8) 0.803(2) 0.6473(15)
C4_7 C 0.0490(8) 0.7370(18) 0.6259(13)
C5_7 C 0.0851(8) 0.8787(19) 0.7095(13)
C6_7 C 0.1117(8) 0.818(2) 0.6851(13)
H3_7 H 0.142337 0.823362 0.697604
C7_7 C 0.0940(7) 0.7475(18) 0.6423(12)
H4_7 H 0.112345 0.706719 0.624134
C15_7 C 0.3445(9) 0.985(8) 0.933(4)
C16_7 C 0.2980(7) 0.997(4) 0.901(2)
C17_7 C 0.2825(7) 0.957(2) 0.8445(14)
H9_7 H 0.301851 0.925117 0.823485
C18_7 C 0.2386(7) 0.963(2) 0.8180(14)
H10_7 H 0.228106 0.934426 0.779213
C23_7 C 0.1040(8) 0.950(2) 0.7575(15)
O7_7 O 0.1013(3) 0.2960(8) 0.4828(6)
C25_7 C 0.1062(10) 0.2126(17) 0.4975(15)
C26_7 C 0.0990(11) 0.1265(17) 0.4561(14)
H13_7 H 0.095397 0.150724 0.413819
H14_7 H 0.125210 0.084224 0.464580
C27_7 C 0.0608(11) 0.064(2) 0.4603(16)
H15_7 H 0.049229 0.034163 0.420138
H16_7 H 0.037811 0.107447 0.470323
C29_7 C 0.0826(16) 0.018(3) 0.5695(16)
H19_7 H 0.057507 0.052917 0.579944
C30_7 C 0.1208(16) 0.084(3) 0.5841(18)
H21_7 H 0.127382 0.092670 0.628746
H22_7 H 0.145541 0.046639 0.574066
N4_7 N 0.1215(12) 0.189(2) 0.5555(15)
H23_7 H 0.132888 0.237270 0.579981
O8_7 O 0.0840(3) 0.4820(10) 0.4049(5)
O10_4 O 0.0474(11) 0.333(5) 0.582(3)
H24_7 H 0.0622382 0.526196 0.379747
H25_7 H 0.0850034 0.418068 0.383454
O3_4 O 0.9526(11) 0.333(5) 0.918(3)
C8_7 C 0.9926(11) 0.351(4) 0.924(3)
H8_7 H 0.969624 0.215903 0.838544
H2_7 H 0.992722 0.799911 0.632740
C8_8 C 0.0074(11) 0.351(4) 0.576(3)
H8_8 H 0.030376 0.215903 0.661456
H2_8 H 0.007278 0.799911 0.867260
N2_8 N 0.9226(8) 0.014(2) 0.7235(14)
N3_8 N 0.8606(7) 0.079(2) 0.6559(14)
C9_8 C 0.9805(10) 0.282(3) 0.603(2)
C10_8 C 0.9354(9) 0.288(2) 0.5900(14)
H5_8 H 0.921769 0.338974 0.563456
C11_8 C 0.9099(9) 0.224(2) 0.6145(14)
H6_8 H 0.879194 0.228787 0.604690
C12_8 C 0.9304(8) 0.149(2) 0.6544(15)
C13_8 C 0.9758(8) 0.148(3) 0.672(2)
H7_8 H 0.989877 0.100949 0.700096
C14_8 C 0.9998(9) 0.215(3) 0.648(2)
C19_8 C 0.7893(7) 0.010(3) 0.6528(15)
C20_8 C 0.7743(8) 0.058(3) 0.5971(15)
H11_8 H 0.793815 0.089142 0.576157
C21_8 C 0.7292(8) 0.058(2) 0.5732(15)
H12_8 H 0.717351 0.099229 0.539669
C22_8 C 0.8360(7) 0.011(2) 0.6791(15)
C24_8 C 0.9029(8) 0.076(2) 0.6798(16)
O7_8 O 0.8987(3) 0.2960(8) 0.0172(6)
C25_8 C 0.8938(10) 0.2126(17) 0.0025(15)
C26_8 C 0.9010(11) 0.1265(17) 0.0439(14)
H13_8 H 0.904603 0.150724 0.086181
H14_8 H 0.874790 0.084224 0.035420
C27_8 C 0.9392(11) 0.064(2) 0.0397(16)
H15_8 H 0.950771 0.034163 0.079862
H16_8 H 0.962189 0.107447 0.029677
O8_8 O 0.9160(3) 0.4820(10) 0.0951(5)
H24_8 H 0.937762 0.526196 0.120253
H25_8 H 0.914997 0.418068 0.116546
O1_8 O 0.9417(8) 0.5950(14) 0.9333(10)
N1_8 N 0.8520(7) 0.950(2) 0.7243(13)
C1_8 C 0.9691(8) 0.6547(16) 0.9200(11)
C2_8 C 0.9601(8) 0.873(2) 0.8109(14)
H1_8 H 0.978727 0.917636 0.795841
C3_8 C 0.9768(8) 0.803(2) 0.8527(15)
C4_8 C 0.9510(8) 0.7370(18) 0.8741(13)
C5_8 C 0.9149(8) 0.8787(19) 0.7905(13)
C6_8 C 0.8883(8) 0.818(2) 0.8149(13)
H3_8 H 0.857663 0.823362 0.802396
C7_8 C 0.9060(7) 0.7475(18) 0.8577(12)
H4_8 H 0.887655 0.706719 0.875866
C15_8 C 0.6555(9) 0.985(8) 0.567(4)
C16_8 C 0.7020(7) 0.997(4) 0.599(2)
C17_8 C 0.7175(7) 0.957(2) 0.6555(14)
H9_8 H 0.698149 0.925117 0.676515
C18_8 C 0.7614(7) 0.963(2) 0.6820(14)
H10_8 H 0.771894 0.934426 0.720787
C23_8 C 0.8960(8) 0.950(2) 0.7425(15)
C29_8 C 0.9174(16) 0.018(3) 0.9305(16)
H19_8 H 0.942493 0.052917 0.920056
C30_8 C 0.8792(16) 0.084(3) 0.9159(18)
H21_8 H 0.872618 0.092670 0.871254
H22_8 H 0.854459 0.046639 0.925934
N4_8 N 0.8785(12) 0.189(2) 0.9445(15)
H23_8 H 0.867112 0.237270 0.920019
C28_5 C 0.9298(16) 0.016(2) 0.4938(18)
H17_5 H 0.906078 0.056904 0.503031
H18_5 H 0.955855 0.058072 0.497867
H20_5 H 0.911714 0.041342 0.404140
C28_6 C 0.0702(16) 0.016(2) 0.0062(18)
H18_6 H 0.044145 0.058072 0.002133
H20_6 H 0.088286 0.041342 0.095860
H17_6 H 0.093922 0.056904 0.996969
C28_7 C 0.0702(16) 0.984(2) 0.5062(18)
H17_7 H 0.093922 0.943096 0.496969
H18_7 H 0.044145 0.941928 0.502133
H20_7 H 0.088286 0.958658 0.595860
H17_8 H 0.906078 0.943096 0.003031
C28_8 C 0.9298(16) 0.984(2) 0.9938(18)
H18_8 H 0.955855 0.941928 0.997867
H20_8 H 0.911714 0.958658 0.904140
loop_
_geom_bond_atom_site_label_1
_geom_bond_atom_site_label_2
_geom_bond_site_symmetry_1
_geom_bond_site_symmetry_2
O7 Ce1 1_555 1_555
C25 O7 1_555 1_555
C26 C25 1_555 1_555
H13 C26 1_555 1_555
H14 C26 1_555 1_555
C27 C26 1_555 1_555
H15 C27 1_555 1_555
H16 C27 1_555 1_555
C28 C27 1_555 1_555
H17 C28 1_555 1_555
H18 C28 1_555 1_555
C29 C28 1_555 1_555
H19 C29 1_555 1_555
H20 C29 1_555 1_555
C30 C29 1_555 1_555
H21 C30 1_555 1_555
H22 C30 1_555 1_555
N4 C25 1_555 1_555
H23 N4 1_555 1_555
O8 Ce1 1_555 1_555
O9 Ce1 1_555 1_555
O10 Ce1 1_555 1_555
O11 Ce1 1_555 1_555
O14 Ce1 1_555 1_555
C30 N4 1_555 1_555
O8 H25 1_555 1_555
O1 C1 1_555 1_555
O2 C1 1_555 1_555
O3 C8 1_555 1_555
O4 C8 1_555 1_555
O5 C15 1_555 1_555
O6 C15 1_555 1_555
N1 C22 1_555 1_555
N2 C23 1_555 1_555
N3 C22 1_555 1_555
C1 C4 1_555 1_555
C2 H1 1_555 1_555
C3 C2 1_555 1_555
H2 C3 1_555 1_555
C4 C3 1_555 1_555
C5 C2 1_555 1_555
C6 C5 1_555 1_555
H3 C6 1_555 1_555
C7 C4 1_555 1_555
H4 C7 1_555 1_555
C8 C9 1_555 1_555
C9 C10 1_555 1_555
C10 H5 1_555 1_555
C11 C10 1_555 1_555
H6 C11 1_555 1_555
C12 C11 1_555 1_555
C13 C12 1_555 1_555
H7 C13 1_555 1_555
C14 C9 1_555 1_555
H8 C14 1_555 1_555
C15 C16 1_555 1_555
C16 C17 1_555 1_555
C17 H9 1_555 1_555
C18 C17 1_555 1_555
H10 C18 1_555 1_555
C19 C18 1_555 1_555
C20 C19 1_555 1_555
H11 C20 1_555 1_555
C21 C16 1_555 1_555
H12 C21 1_555 1_555
C22 C19 1_555 1_555
C23 N1 1_555 1_555
C24 N2 1_555 1_555
Ce2 O3 1_555 1_555
Ce3 O5 1_555 1_555
Ce4 O2 1_555 1_555
O4 Ce2 1_555 1_555
O6 Ce3 1_555 1_555
N3 C24 1_555 1_555
C5 C23 1_555 1_555
C6 C7 1_555 1_555
C12 C24 1_555 1_555
C13 C14 1_555 1_555
C20 C21 1_555 1_555
Ce4 O12 1_555 1_555
H18_2 C28_2 1_555 1_555
C29_2 C28_2 1_555 1_555
H19_2 C29_2 1_555 1_555
H20_2 C29_2 1_555 1_555
C30_2 C29_2 1_555 1_555
H21_2 C30_2 1_555 1_555
H22_2 C30_2 1_555 1_555
H23_2 N4_2 1_555 1_555
O14_2 Ce2 1_555 1_555
C30_2 N4_2 1_555 1_555
C25_2 O7_2 1_555 1_555
C26_2 C25_2 1_555 1_555
H13_2 C26_2 1_555 1_555
H14_2 C26_2 1_555 1_555
C27_2 C26_2 1_555 1_555
H15_2 C27_2 1_555 1_555
H16_2 C27_2 1_555 1_555
O8_2 H25_2 1_555 1_555
O1_2 C1_2 1_555 1_555
O2_2 C1_2 1_555 1_555
O10 C8_2 1_555 1_555
O11 C8_2 1_555 1_555
O5_2 C15_2 1_555 1_555
O6_2 C15_2 1_555 1_555
N1_2 C22_2 1_555 1_555
N2_2 C23_2 1_555 1_555
N3_2 C22_2 1_555 1_555
C1_2 C4_2 1_555 1_555
C2_2 H1_2 1_555 1_555
C3_2 C2_2 1_555 1_555
H2_2 C3_2 1_555 1_555
C4_2 C3_2 1_555 1_555
C5_2 C2_2 1_555 1_555
C6_2 C5_2 1_555 1_555
H3_2 C6_2 1_555 1_555
C7_2 C4_2 1_555 1_555
H4_2 C7_2 1_555 1_555
C8_2 C9_2 1_555 1_555
C9_2 C10_2 1_555 1_555
C10_2 H5_2 1_555 1_555
C11_2 C10_2 1_555 1_555
H6_2 C11_2 1_555 1_555
C12_2 C11_2 1_555 1_555
C13_2 C12_2 1_555 1_555
H7_2 C13_2 1_555 1_555
C14_2 C9_2 1_555 1_555
H8_2 C14_2 1_555 1_555
C15_2 C16_2 1_555 1_555
C16_2 C17_2 1_555 1_555
C17_2 H9_2 1_555 1_555
C18_2 C17_2 1_555 1_555
H10_2 C18_2 1_555 1_555
C19_2 C18_2 1_555 1_555
C20_2 C19_2 1_555 1_555
H11_2 C20_2 1_555 1_555
C21_2 C16_2 1_555 1_555
H12_2 C21_2 1_555 1_555
C22_2 C19_2 1_555 1_555
C23_2 N1_2 1_555 1_555
C24_2 N2_2 1_555 1_555
Ce3_2 O5_2 1_555 1_555
O6_2 Ce3_2 1_555 1_555
N3_2 C24_2 1_555 1_555
C5_2 C23_2 1_555 1_555
C6_2 C7_2 1_555 1_555
C12_2 C24_2 1_555 1_555
C13_2 C14_2 1_555 1_555
C20_2 C21_2 1_555 1_555
Ce5 O12_2 1_555 1_555
Ce4_2 O2_3 1_555 1_555
Ce4_2 O11_2 1_555 1_555
O3_2 C8_3 1_555 1_555
Ce3 O3_2 1_555 1_555
Ce3_2 O1_3 1_555 1_555
O1_3 C1_3 1_555 1_555
O14_2 C15_3 1_555 1_555
C1_3 C4_3 1_555 1_555
C2_3 H1_3 1_555 1_555
C3_3 C2_3 1_555 1_555
C4_3 C3_3 1_555 1_555
C5_3 C2_3 1_555 1_555
C6_3 C5_3 1_555 1_555
H3_3 C6_3 1_555 1_555
C7_3 C4_3 1_555 1_555
H4_3 C7_3 1_555 1_555
C15_3 C16_3 1_555 1_555
C16_3 C17_3 1_555 1_555
C17_3 H9_3 1_555 1_555
C18_3 C17_3 1_555 1_555
H10_3 C18_3 1_555 1_555
C23_3 N1_3 1_555 1_555
O7_3 Ce3_2 1_555 1_555
C25_3 O7_3 1_555 1_555
C26_3 C25_3 1_555 1_555
H13_3 C26_3 1_555 1_555
H14_3 C26_3 1_555 1_555
C27_3 C26_3 1_555 1_555
H15_3 C27_3 1_555 1_555
H16_3 C27_3 1_555 1_555
H19_3 C29_3 1_555 1_555
C30_3 C29_3 1_555 1_555
H21_3 C30_3 1_555 1_555
H22_3 C30_3 1_555 1_555
N4_3 C25_3 1_555 1_555
H23_3 N4_3 1_555 1_555
O8_3 Ce3_2 1_555 1_555
O9_3 Ce3_2 1_555 1_555
O10_2 Ce3_2 1_555 1_555
O12_3 Ce3_2 1_555 1_555
C5_3 C23_3 1_555 1_555
C6_3 C7_3 1_555 1_555
C30_3 N4_3 1_555 1_555
O8_3 H24_3 1_555 1_555
O8_3 H25_3 1_555 1_555
N3_3 C22_3 1_555 1_555
C9_3 C10_3 1_555 1_555
C10_3 H5_3 1_555 1_555
C11_3 C10_3 1_555 1_555
H6_3 C11_3 1_555 1_555
C12_3 C11_3 1_555 1_555
C13_3 C12_3 1_555 1_555
H7_3 C13_3 1_555 1_555
C14_3 C9_3 1_555 1_555
C20_3 C19_3 1_555 1_555
H11_3 C20_3 1_555 1_555
H12_3 C21_3 1_555 1_555
C22_3 C19_3 1_555 1_555
C24_3 N2_3 1_555 1_555
N3_3 C24_3 1_555 1_555
C12_3 C24_3 1_555 1_555
C13_3 C14_3 1_555 1_555
C20_3 C21_3 1_555 1_555
Ce3 O1_4 1_555 1_555
O1_4 C1_4 1_555 1_555
O14 C15_4 1_555 1_555
C1_4 C4_4 1_555 1_555
C2_4 H1_4 1_555 1_555
C3_4 C2_4 1_555 1_555
C4_4 C3_4 1_555 1_555
C5_4 C2_4 1_555 1_555
C6_4 C5_4 1_555 1_555
H3_4 C6_4 1_555 1_555
C7_4 C4_4 1_555 1_555
H4_4 C7_4 1_555 1_555
C15_4 C16_4 1_555 1_555
C16_4 C17_4 1_555 1_555
C17_4 H9_4 1_555 1_555
C18_4 C17_4 1_555 1_555
H10_4 C18_4 1_555 1_555
C23_4 N1_4 1_555 1_555
H19_4 C29_4 1_555 1_555
C30_4 C29_4 1_555 1_555
H21_4 C30_4 1_555 1_555
H22_4 C30_4 1_555 1_555
H23_4 N4_4 1_555 1_555
C5_4 C23_4 1_555 1_555
C6_4 C7_4 1_555 1_555
C30_4 N4_4 1_555 1_555
C25_4 O7_4 1_555 1_555
C26_4 C25_4 1_555 1_555
H13_4 C26_4 1_555 1_555
H14_4 C26_4 1_555 1_555
C27_4 C26_4 1_555 1_555
H15_4 C27_4 1_555 1_555
H16_4 C27_4 1_555 1_555
O8_4 H24_4 1_555 1_555
O8_4 H25_4 1_555 1_555
N3_4 C22_4 1_555 1_555
C9_4 C10_4 1_555 1_555
C10_4 H5_4 1_555 1_555
C11_4 C10_4 1_555 1_555
H6_4 C11_4 1_555 1_555
C12_4 C11_4 1_555 1_555
C13_4 C12_4 1_555 1_555
H7_4 C13_4 1_555 1_555
C14_4 C9_4 1_555 1_555
C20_4 C19_4 1_555 1_555
H11_4 C20_4 1_555 1_555
H12_4 C21_4 1_555 1_555
C22_4 C19_4 1_555 1_555
C24_4 N2_4 1_555 1_555
N3_4 C24_4 1_555 1_555
C12_4 C24_4 1_555 1_555
C13_4 C14_4 1_555 1_555
C20_4 C21_4 1_555 1_555
O10_2 C8_4 1_555 1_555
O1_5 C1_5 1_555 1_555
O9 C1_5 1_555 1_555
O3_3 C8_5 1_555 1_555
O12_2 C8_5 1_555 1_555
O5_3 C15_5 1_555 1_555
O6_3 C15_5 1_555 1_555
N1_5 C22_5 1_555 1_555
N2_5 C23_5 1_555 1_555
N3_5 C22_5 1_555 1_555
C1_5 C4_5 1_555 1_555
C2_5 H1_5 1_555 1_555
C3_5 C2_5 1_555 1_555
H2_5 C3_5 1_555 1_555
C4_5 C3_5 1_555 1_555
C5_5 C2_5 1_555 1_555
C6_5 C5_5 1_555 1_555
H3_5 C6_5 1_555 1_555
C7_5 C4_5 1_555 1_555
H4_5 C7_5 1_555 1_555
C8_5 C9_5 1_555 1_555
C9_5 C10_5 1_555 1_555
C10_5 H5_5 1_555 1_555
C11_5 C10_5 1_555 1_555
H6_5 C11_5 1_555 1_555
C12_5 C11_5 1_555 1_555
C13_5 C12_5 1_555 1_555
H7_5 C13_5 1_555 1_555
C14_5 C9_5 1_555 1_555
H8_5 C14_5 1_555 1_555
C15_5 C16_5 1_555 1_555
C16_5 C17_5 1_555 1_555
C17_5 H9_5 1_555 1_555
C18_5 C17_5 1_555 1_555
H10_5 C18_5 1_555 1_555
C19_5 C18_5 1_555 1_555
C20_5 C19_5 1_555 1_555
H11_5 C20_5 1_555 1_555
C21_5 C16_5 1_555 1_555
H12_5 C21_5 1_555 1_555
C22_5 C19_5 1_555 1_555
C23_5 N1_5 1_555 1_555
C24_5 N2_5 1_555 1_555
Ce5 O3_3 1_555 1_555
Ce5_2 O5_3 1_555 1_555
O6_3 Ce5_2 1_555 1_555
N3_5 C24_5 1_555 1_555
C5_5 C23_5 1_555 1_555
C6_5 C7_5 1_555 1_555
C12_5 C24_5 1_555 1_555
C13_5 C14_5 1_555 1_555
C20_5 C21_5 1_555 1_555
O7_5 Ce4 1_555 1_555
C25_5 O7_5 1_555 1_555
C26_5 C25_5 1_555 1_555
H13_5 C26_5 1_555 1_555
H14_5 C26_5 1_555 1_555
C27_5 C26_5 1_555 1_555
H15_5 C27_5 1_555 1_555
H16_5 C27_5 1_555 1_555
C28_3 C27_5 1_555 1_555
H17_3 C28_3 1_555 1_555
H18_3 C28_3 1_555 1_555
C29_5 C28_3 1_555 1_555
H19_5 C29_5 1_555 1_555
H20_3 C29_5 1_555 1_555
C30_5 C29_5 1_555 1_555
H21_5 C30_5 1_555 1_555
H22_5 C30_5 1_555 1_555
N4_5 C25_5 1_555 1_555
H23_5 N4_5 1_555 1_555
O8_5 Ce4 1_555 1_555
O10_3 Ce4 1_555 1_555
O14_3 Ce4 1_555 1_555
C30_5 N4_5 1_555 1_555
O8_5 H25_5 1_555 1_555
O1_6 C1_6 1_555 1_555
O9_2 C1_6 1_555 1_555
O10_3 C8_6 1_555 1_555
O12 C8_6 1_555 1_555
O5_4 C15_6 1_555 1_555
O6_4 C15_6 1_555 1_555
N1_6 C22_6 1_555 1_555
N2_6 C23_6 1_555 1_555
N3_6 C22_6 1_555 1_555
C1_6 C4_6 1_555 1_555
C2_6 H1_6 1_555 1_555
C3_6 C2_6 1_555 1_555
H2_6 C3_6 1_555 1_555
C4_6 C3_6 1_555 1_555
C5_6 C2_6 1_555 1_555
C6_6 C5_6 1_555 1_555
H3_6 C6_6 1_555 1_555
C7_6 C4_6 1_555 1_555
H4_6 C7_6 1_555 1_555
C8_6 C9_6 1_555 1_555
C9_6 C10_6 1_555 1_555
C10_6 H5_6 1_555 1_555
C11_6 C10_6 1_555 1_555
H6_6 C11_6 1_555 1_555
C12_6 C11_6 1_555 1_555
C13_6 C12_6 1_555 1_555
H7_6 C13_6 1_555 1_555
C14_6 C9_6 1_555 1_555
H8_6 C14_6 1_555 1_555
C15_6 C16_6 1_555 1_555
C16_6 C17_6 1_555 1_555
C17_6 H9_6 1_555 1_555
C18_6 C17_6 1_555 1_555
H10_6 C18_6 1_555 1_555
C19_6 C18_6 1_555 1_555
C20_6 C19_6 1_555 1_555
H11_6 C20_6 1_555 1_555
C21_6 C16_6 1_555 1_555
H12_6 C21_6 1_555 1_555
C22_6 C19_6 1_555 1_555
C23_6 N1_6 1_555 1_555
C24_6 N2_6 1_555 1_555
Ce4_2 O5_4 1_555 1_555
O6_4 Ce4_2 1_555 1_555
N3_6 C24_6 1_555 1_555
C5_6 C23_6 1_555 1_555
C6_6 C7_6 1_555 1_555
C12_6 C24_6 1_555 1_555
C13_6 C14_6 1_555 1_555
C20_6 C21_6 1_555 1_555
C25_6 O7_6 1_555 1_555
C26_6 C25_6 1_555 1_555
H13_6 C26_6 1_555 1_555
H14_6 C26_6 1_555 1_555
C27_6 C26_6 1_555 1_555
H15_6 C27_6 1_555 1_555
H16_6 C27_6 1_555 1_555
O8_6 H25_6 1_555 1_555
H18_4 C28_4 1_555 1_555
C29_6 C28_4 1_555 1_555
H19_6 C29_6 1_555 1_555
H20_4 C29_6 1_555 1_555
C30_6 C29_6 1_555 1_555
H21_6 C30_6 1_555 1_555
H22_6 C30_6 1_555 1_555
H23_6 N4_6 1_555 1_555
O14_4 Ce5 1_555 1_555
C30_6 N4_6 1_555 1_555
N3_7 C22_7 1_555 1_555
C9_7 C10_7 1_555 1_555
C10_7 H5_7 1_555 1_555
C11_7 C10_7 1_555 1_555
H6_7 C11_7 1_555 1_555
C12_7 C11_7 1_555 1_555
C13_7 C12_7 1_555 1_555
H7_7 C13_7 1_555 1_555
C14_7 C9_7 1_555 1_555
C20_7 C19_7 1_555 1_555
H11_7 C20_7 1_555 1_555
H12_7 C21_7 1_555 1_555
C22_7 C19_7 1_555 1_555
C24_7 N2_7 1_555 1_555
N3_7 C24_7 1_555 1_555
C12_7 C24_7 1_555 1_555
C13_7 C14_7 1_555 1_555
C20_7 C21_7 1_555 1_555
Ce4_2 O1_7 1_555 1_555
O1_7 C1_7 1_555 1_555
O14_4 C15_7 1_555 1_555
C1_7 C4_7 1_555 1_555
C2_7 H1_7 1_555 1_555
C3_7 C2_7 1_555 1_555
C4_7 C3_7 1_555 1_555
C5_7 C2_7 1_555 1_555
C6_7 C5_7 1_555 1_555
H3_7 C6_7 1_555 1_555
C7_7 C4_7 1_555 1_555
H4_7 C7_7 1_555 1_555
C15_7 C16_7 1_555 1_555
C16_7 C17_7 1_555 1_555
C17_7 H9_7 1_555 1_555
C18_7 C17_7 1_555 1_555
H10_7 C18_7 1_555 1_555
C23_7 N1_7 1_555 1_555
O7_7 Ce4_2 1_555 1_555
C25_7 O7_7 1_555 1_555
C26_7 C25_7 1_555 1_555
H13_7 C26_7 1_555 1_555
H14_7 C26_7 1_555 1_555
C27_7 C26_7 1_555 1_555
H15_7 C27_7 1_555 1_555
H16_7 C27_7 1_555 1_555
H19_7 C29_7 1_555 1_555
C30_7 C29_7 1_555 1_555
H21_7 C30_7 1_555 1_555
H22_7 C30_7 1_555 1_555
N4_7 C25_7 1_555 1_555
H23_7 N4_7 1_555 1_555
O8_7 Ce4_2 1_555 1_555
O10_4 Ce4_2 1_555 1_555
C5_7 C23_7 1_555 1_555
C6_7 C7_7 1_555 1_555
C30_7 N4_7 1_555 1_555
O8_7 H24_7 1_555 1_555
O8_7 H25_7 1_555 1_555
O3_4 C8_7 1_555 1_555
Ce5_2 O3_4 1_555 1_555
O10_4 C8_8 1_555 1_555
N3_8 C22_8 1_555 1_555
C9_8 C10_8 1_555 1_555
C10_8 H5_8 1_555 1_555
C11_8 C10_8 1_555 1_555
H6_8 C11_8 1_555 1_555
C12_8 C11_8 1_555 1_555
C13_8 C12_8 1_555 1_555
H7_8 C13_8 1_555 1_555
C14_8 C9_8 1_555 1_555
C20_8 C19_8 1_555 1_555
H11_8 C20_8 1_555 1_555
H12_8 C21_8 1_555 1_555
C22_8 C19_8 1_555 1_555
C24_8 N2_8 1_555 1_555
N3_8 C24_8 1_555 1_555
C12_8 C24_8 1_555 1_555
C13_8 C14_8 1_555 1_555
C20_8 C21_8 1_555 1_555
C25_8 O7_8 1_555 1_555
C26_8 C25_8 1_555 1_555
H13_8 C26_8 1_555 1_555
H14_8 C26_8 1_555 1_555
C27_8 C26_8 1_555 1_555
H15_8 C27_8 1_555 1_555
H16_8 C27_8 1_555 1_555
O8_8 H24_8 1_555 1_555
O8_8 H25_8 1_555 1_555
Ce5_2 O1_8 1_555 1_555
O1_8 C1_8 1_555 1_555
O14_3 C15_8 1_555 1_555
C1_8 C4_8 1_555 1_555
C2_8 H1_8 1_555 1_555
C3_8 C2_8 1_555 1_555
C4_8 C3_8 1_555 1_555
C5_8 C2_8 1_555 1_555
C6_8 C5_8 1_555 1_555
H3_8 C6_8 1_555 1_555
C7_8 C4_8 1_555 1_555
H4_8 C7_8 1_555 1_555
C15_8 C16_8 1_555 1_555
C16_8 C17_8 1_555 1_555
C17_8 H9_8 1_555 1_555
C18_8 C17_8 1_555 1_555
H10_8 C18_8 1_555 1_555
C23_8 N1_8 1_555 1_555
H19_8 C29_8 1_555 1_555
C30_8 C29_8 1_555 1_555
H21_8 C30_8 1_555 1_555
H22_8 C30_8 1_555 1_555
H23_8 N4_8 1_555 1_555
C5_8 C23_8 1_555 1_555
C6_8 C7_8 1_555 1_555
C30_8 N4_8 1_555 1_555
H17_5 C28_5 1_555 1_555
H18_5 C28_5 1_555 1_555
H18_6 C28_6 1_555 1_555
H17_7 C28_7 1_555 1_555
H18_7 C28_7 1_555 1_555
H18_8 C28_8 1_555 1_555

#END
