
###############################################################################
#
# This file contains modified crystal structure data generated from the
# MOF subset of the Cambridge Structural Database (CSD) v543 
# hosted by the Cambridge Crystallographic Data Centre (CCDC).
#
# This work is licensed under the Creative Commons
# Attribution-NonCommercial-ShareAlike 4.0 International License.
# To view a copy of this license, visit
# http://creativecommons.org/licenses/by-nc-sa/4.0/
# or send a letter to
# Creative Commons, PO Box 1866, Mountain View, CA 94042, USA.
#
# CIF created using the CSD Python API on 29 September 2022
# The structure has been converted into the P1 space group
# The structure has a 3D framework
# The original CSD entry TOYCAO is in the monoclinic crystal system
# The framework has been calculated to contain at least 10.0% void space
# The void calculation uses a probe of radius 1.32A, grid spacing 0.4
#
###############################################################################

data_TOYCAO
_chemical_formula_moiety         '(C296 H268 Gd4 N16 O60)n'
_symmetry_cell_setting           triclinic
_symmetry_space_group_name_H-M   'P 1'
_symmetry_Int_Tables_number      1
_space_group_name_Hall           'P 1'
loop_
_symmetry_equiv_pos_site_id
_symmetry_equiv_pos_as_xyz
1 x,y,z
_cell_length_a                   33.944(3)
_cell_length_b                   9.5161(8)
_cell_length_c                   28.654(2)
_cell_angle_alpha                90
_cell_angle_beta                 109.483(2)
_cell_angle_gamma                90
_cell_volume                     8725.68
loop_
_atom_site_label
_atom_site_type_symbol
_atom_site_fract_x
_atom_site_fract_y
_atom_site_fract_z
Gd4 Gd 0.05093(2) 0.12067(3) 0.00823(2)
O1 O 0.02688(15) 0.0998(5) 0.47552(17)
C1 C 0.0145(2) 0.2094(7) 0.4500(2)
C2 C 0.04210(18) 0.2760(7) 0.4249(2)
C3 C 0.0271(2) 0.3917(8) 0.3949(3)
H1 H 0.000017 0.427445 0.390819
C4 C 0.0517(2) 0.4551(8) 0.3707(3)
H2 H 0.041124 0.534568 0.350329
C5 C 0.09097(18) 0.4058(6) 0.3756(2)
C6 C 0.08201(19) 0.2265(8) 0.4307(3)
H3 H 0.092784 0.148058 0.451591
C7 C 0.10615(19) 0.2908(8) 0.4063(3)
H4 H 0.133362 0.255962 0.410566
O3 O 0.00478(15) 0.8270(5) 0.06381(17)
O4 O 0.05617(14) 0.9851(5) 0.07881(15)
C8 C 0.03847(19) 0.8840(7) 0.0903(2)
C9 C 0.05944(18) 0.8172(7) 0.1403(2)
C10 C 0.09700(19) 0.8684(7) 0.1718(2)
H5 H 0.109633 0.947469 0.162234
C11 C 0.11625(19) 0.8048(8) 0.2171(2)
H6 H 0.141904 0.841699 0.238523
C12 C 0.09880(18) 0.6878(7) 0.2319(2)
C13 C 0.06067(19) 0.6395(7) 0.2000(2)
H7 H 0.047579 0.561571 0.209555
C14 C 0.0415(2) 0.7024(7) 0.1549(2)
H8 H 0.015719 0.666532 0.133515
O5 O 0.38234(13) 0.6960(5) 0.43113(18)
O6 O 0.38115(14) 0.5070(7) 0.4738(2)
C15 C 0.36306(18) 0.5943(7) 0.4416(2)
C16 C 0.31693(18) 0.5807(7) 0.4155(2)
C17 C 0.2961(2) 0.4632(11) 0.4202(4)
H9 H 0.311036 0.386962 0.439532
C18 C 0.2527(2) 0.4528(10) 0.3967(4)
H10 H 0.238669 0.368965 0.400039
C19 C 0.23025(18) 0.5614(8) 0.3691(3)
C20 C 0.2515(2) 0.6838(9) 0.3650(3)
H11 H 0.236502 0.761705 0.346878
C21 C 0.2947(2) 0.6917(9) 0.3877(3)
H12 H 0.309048 0.774360 0.383973
C22 C 0.18406(18) 0.5528(8) 0.3462(2)
C23 C 0.16016(18) 0.4819(7) 0.3695(2)
H13 H 0.173715 0.435461 0.399966
C24 C 0.11662(18) 0.4768(7) 0.3492(2)
C25 C 0.09737(18) 0.5444(7) 0.3042(2)
H14 H 0.067803 0.540996 0.289827
C26 C 0.12038(17) 0.6169(7) 0.2798(2)
C27 C 0.16360(17) 0.6206(8) 0.3012(2)
H15 H 0.179632 0.670106 0.285047
H26 H 0.136095 0.061258 0.348940
H27 H 0.069402 0.086980 0.302882
H30 H 0.032074 0.035342 0.351523
H33 H 0.167115 0.003651 0.444714
Gd5 Gd 0.44907(2) 0.62067(3) 0.49177(2)
O12 O 0.05617(14) 0.0149(5) 0.57881(15)
Gd1 Gd 0.05093(2) 0.87933(3) 0.50823(2)
O7 O 0.06504(19) 0.6489(5) 0.4881(2)
C28 C 0.0856(3) 0.5483(9) 0.5136(3)
N1 N 0.1236(3) 0.5133(9) 0.5146(3)
C29 C 0.1417(3) 0.3995(10) 0.5460(4)
H16 H 0.165087 0.431821 0.575115
H17 H 0.152206 0.327621 0.528142
C30 C 0.1066(4) 0.3407(13) 0.5617(5)
H18 H 0.116346 0.325649 0.597997
H19 H 0.097082 0.249472 0.545205
C31 C 0.0700(4) 0.4496(10) 0.5465(4)
H20 H 0.043000 0.404832 0.527654
H21 H 0.067171 0.499257 0.575595
C32 C 0.1449(4) 0.5901(12) 0.4890(4)
H22 H 0.172327 0.547647 0.494312
H23 H 0.128721 0.589433 0.453520
H24 H 0.148466 0.687189 0.501059
O8 O 0.0761(3) 0.8794(11) 0.4355(4)
C33 C 0.0830(6) 0.915(3) 0.3963(6)
N2 N 0.1221(6) 0.919(4) 0.3904(7)
C34 C 0.1212(8) 0.970(3) 0.3450(8)
H25 H 0.134567 0.903053 0.328560
C35 C 0.0748(9) 0.989(4) 0.3148(8)
H28 H 0.067066 0.925868 0.285603
C36 C 0.0487(7) 0.954(3) 0.3475(7)
H29 H 0.029727 0.873141 0.334132
C37 C 0.1558(9) 0.910(6) 0.4344(11)
H31 H 0.146331 0.868352 0.460199
H32 H 0.177548 0.850031 0.429325
O10 O 0.01953(15) 0.7349(5) 0.55442(19)
O13 O 0.11766(13) 0.8040(5) 0.56887(18)
O14 O 0.11885(14) 0.9930(7) 0.5262(2)
O2 O 0.98047(15) 0.2651(5) 0.44558(19)
H1_2 H 1.000017 0.427445 0.390819
Gd3 Gd 0.94907(2) 0.12067(3) 0.49177(2)
Gd2 Gd 0.94907(2) 0.87933(3) 0.99177(2)
O9 O 0.97312(15) 0.9002(5) 0.52448(17)
O11 O 0.99522(15) 0.8270(5) 0.43619(17)
O2_2 O 0.01953(15) 0.2651(5) 0.05442(19)
H1_3 H -0.000017 0.427445 0.109181
O9_2 O 0.02688(15) 0.9002(5) 0.97552(17)
O1_2 O 0.97312(15) 0.0998(5) 0.02448(17)
C1_2 C 0.9855(2) 0.2094(7) 0.0500(2)
C2_2 C 0.95790(18) 0.2760(7) 0.0751(2)
C3_2 C 0.9729(2) 0.3917(8) 0.1051(3)
H1_4 H 0.999983 0.427445 0.109181
C4_2 C 0.9483(2) 0.4551(8) 0.1293(3)
H2_2 H 0.958876 0.534568 0.149671
C5_2 C 0.90903(18) 0.4058(6) 0.1244(2)
C6_2 C 0.91799(19) 0.2265(8) 0.0693(3)
H3_2 H 0.907216 0.148058 0.048409
C7_2 C 0.89385(19) 0.2908(8) 0.0937(3)
H4_2 H 0.866638 0.255962 0.089434
O4_2 O 0.94383(14) 0.9851(5) 0.42119(15)
C8_2 C 0.96153(19) 0.8840(7) 0.4097(2)
C9_2 C 0.94056(18) 0.8172(7) 0.3597(2)
C10_2 C 0.90300(19) 0.8684(7) 0.3282(2)
H5_2 H 0.890367 0.947469 0.337766
C11_2 C 0.88375(19) 0.8048(8) 0.2829(2)
H6_2 H 0.858096 0.841699 0.261477
C12_2 C 0.90120(18) 0.6878(7) 0.2681(2)
C13_2 C 0.93933(19) 0.6395(7) 0.3000(2)
H7_2 H 0.952421 0.561571 0.290445
C14_2 C 0.9585(2) 0.7024(7) 0.3451(2)
H8_2 H 0.984281 0.666532 0.366485
O5_2 O 0.61766(13) 0.6960(5) 0.06887(18)
O6_2 O 0.61885(14) 0.5070(7) 0.0262(2)
C15_2 C 0.63694(18) 0.5943(7) 0.0584(2)
C16_2 C 0.68307(18) 0.5807(7) 0.0845(2)
C17_2 C 0.7039(2) 0.4632(11) 0.0798(4)
H9_2 H 0.688964 0.386962 0.060468
C18_2 C 0.7473(2) 0.4528(10) 0.1033(4)
H10_2 H 0.761331 0.368965 0.099961
C19_2 C 0.76975(18) 0.5614(8) 0.1309(3)
C20_2 C 0.7485(2) 0.6838(9) 0.1350(3)
H11_2 H 0.763498 0.761705 0.153122
C21_2 C 0.7053(2) 0.6917(9) 0.1123(3)
H12_2 H 0.690952 0.774360 0.116027
C22_2 C 0.81594(18) 0.5528(8) 0.1538(2)
C23_2 C 0.83984(18) 0.4819(7) 0.1305(2)
H13_2 H 0.826285 0.435461 0.100034
C24_2 C 0.88338(18) 0.4768(7) 0.1508(2)
C25_2 C 0.90263(18) 0.5444(7) 0.1958(2)
H14_2 H 0.932197 0.540996 0.210173
C26_2 C 0.87962(17) 0.6169(7) 0.2202(2)
C27_2 C 0.83640(17) 0.6206(8) 0.1988(2)
H15_2 H 0.820368 0.670106 0.214953
H26_2 H 0.863905 0.061258 0.151060
H27_2 H 0.930598 0.086980 0.197118
H30_2 H 0.967926 0.035342 0.148477
H33_2 H 0.832885 0.003651 0.055286
Gd5_2 Gd 0.55093(2) 0.62067(3) 0.00823(2)
O12_2 O 0.94383(14) 0.0149(5) 0.92119(15)
C28_2 C 0.9144(3) 0.5483(9) 0.9864(3)
N1_2 N 0.8764(3) 0.5133(9) 0.9854(3)
C29_2 C 0.8583(3) 0.3995(10) 0.9540(4)
H16_2 H 0.834913 0.431821 0.924885
H17_2 H 0.847794 0.327621 0.971858
C30_2 C 0.8934(4) 0.3407(13) 0.9383(5)
H18_2 H 0.883654 0.325649 0.902003
H19_2 H 0.902918 0.249472 0.954795
C31_2 C 0.9300(4) 0.4496(10) 0.9535(4)
H20_2 H 0.957000 0.404832 0.972346
H21_2 H 0.932829 0.499257 0.924405
H24_2 H 0.851534 0.687189 0.998941
O10_2 O 0.98047(15) 0.7349(5) 0.94558(19)
O13_2 O 0.88234(13) 0.8040(5) 0.93113(18)
O14_2 O 0.88115(14) 0.9930(7) 0.9738(2)
H2_3 H 0.541124 0.034568 0.350329
O3_2 O 0.50478(15) 0.3270(5) 0.06381(17)
O4_3 O 0.55617(14) 0.4851(5) 0.07881(15)
C8_3 C 0.53847(19) 0.3840(7) 0.0903(2)
C9_3 C 0.55944(18) 0.3172(7) 0.1403(2)
C10_3 C 0.59700(19) 0.3684(7) 0.1718(2)
H5_3 H 0.609633 0.447469 0.162234
C11_3 C 0.61625(19) 0.3048(8) 0.2171(2)
H6_3 H 0.641904 0.341699 0.238523
C12_3 C 0.59880(18) 0.1878(7) 0.2319(2)
C13_3 C 0.56067(19) 0.1395(7) 0.2000(2)
H7_3 H 0.547579 0.061571 0.209555
C14_3 C 0.5415(2) 0.2024(7) 0.1549(2)
H8_3 H 0.515719 0.166532 0.133515
O5_3 O 0.88234(13) 0.1960(5) 0.43113(18)
O6_3 O 0.88115(14) 0.0070(7) 0.4738(2)
C15_3 C 0.86306(18) 0.0943(7) 0.4416(2)
C16_3 C 0.81693(18) 0.0807(7) 0.4155(2)
C19_3 C 0.73025(18) 0.0614(8) 0.3691(3)
C20_3 C 0.7515(2) 0.1838(9) 0.3650(3)
H11_3 H 0.736502 0.261705 0.346878
C21_3 C 0.7947(2) 0.1917(9) 0.3877(3)
H12_3 H 0.809048 0.274360 0.383973
C22_3 C 0.68406(18) 0.0528(8) 0.3462(2)
C25_3 C 0.59737(18) 0.0444(7) 0.3042(2)
H14_3 H 0.567803 0.040996 0.289827
C26_3 C 0.62038(17) 0.1169(7) 0.2798(2)
C27_3 C 0.66360(17) 0.1206(8) 0.3012(2)
H15_3 H 0.679632 0.170106 0.285047
Gd2_2 Gd 0.44907(2) 0.37933(3) 0.99177(2)
Gd1_2 Gd 0.55093(2) 0.37933(3) 0.50823(2)
O1_3 O 0.52688(15) 0.5998(5) 0.47552(17)
O2_3 O 0.48047(15) 0.7651(5) 0.44558(19)
C1_3 C 0.5145(2) 0.7094(7) 0.4500(2)
C2_3 C 0.54210(18) 0.7760(7) 0.4249(2)
C3_3 C 0.5271(2) 0.8917(8) 0.3949(3)
H1_5 H 0.500017 0.927445 0.390819
C4_3 C 0.5517(2) 0.9551(8) 0.3707(3)
C5_3 C 0.59097(18) 0.9058(6) 0.3756(2)
C6_3 C 0.58201(19) 0.7265(8) 0.4307(3)
H3_3 H 0.592784 0.648058 0.451591
C7_3 C 0.60615(19) 0.7908(8) 0.4063(3)
H4_3 H 0.633362 0.755962 0.410566
C17_3 C 0.7961(2) 0.9632(11) 0.4202(4)
H9_3 H 0.811036 0.886962 0.439532
C18_3 C 0.7527(2) 0.9528(10) 0.3967(4)
H10_3 H 0.738669 0.868965 0.400039
C23_3 C 0.66016(18) 0.9819(7) 0.3695(2)
H13_3 H 0.673715 0.935461 0.399966
C24_3 C 0.61662(18) 0.9768(7) 0.3492(2)
O7_2 O 0.56504(19) 0.1489(5) 0.4881(2)
C28_3 C 0.5856(3) 0.0483(9) 0.5136(3)
N1_3 N 0.6236(3) 0.0133(9) 0.5146(3)
C32_2 C 0.6449(4) 0.0901(12) 0.4890(4)
H22_2 H 0.672327 0.047647 0.494312
H23_2 H 0.628721 0.089433 0.453520
H24_3 H 0.648466 0.187189 0.501059
O8_2 O 0.5761(3) 0.3794(11) 0.4355(4)
C33_2 C 0.5830(6) 0.415(3) 0.3963(6)
N2_2 N 0.6221(6) 0.419(4) 0.3904(7)
C34_2 C 0.6212(8) 0.470(3) 0.3450(8)
H25_2 H 0.634567 0.403053 0.328560
H26_3 H 0.636095 0.561258 0.348940
C35_2 C 0.5748(9) 0.489(4) 0.3148(8)
H27_3 H 0.569402 0.586980 0.302882
H28_2 H 0.567066 0.425868 0.285603
C36_2 C 0.5487(7) 0.454(3) 0.3475(7)
H29_2 H 0.529727 0.373141 0.334132
H30_3 H 0.532074 0.535342 0.351523
C37_2 C 0.6558(9) 0.410(6) 0.4344(11)
H31_2 H 0.646331 0.368352 0.460199
H32_2 H 0.677548 0.350031 0.429325
H33_3 H 0.667115 0.503651 0.444714
O9_3 O 0.47312(15) 0.4002(5) 0.52448(17)
O10_3 O 0.51953(15) 0.2349(5) 0.55442(19)
O11_2 O 0.49522(15) 0.3270(5) 0.43619(17)
O12_3 O 0.55617(14) 0.5149(5) 0.57881(15)
O13_3 O 0.61766(13) 0.3040(5) 0.56887(18)
O14_3 O 0.61885(14) 0.4930(7) 0.5262(2)
H2_4 H 0.458876 0.034568 0.149671
O4_4 O 0.44383(14) 0.4851(5) 0.42119(15)
C8_4 C 0.46153(19) 0.3840(7) 0.4097(2)
C9_4 C 0.44056(18) 0.3172(7) 0.3597(2)
C10_4 C 0.40300(19) 0.3684(7) 0.3282(2)
H5_4 H 0.390367 0.447469 0.337766
C11_4 C 0.38375(19) 0.3048(8) 0.2829(2)
H6_4 H 0.358096 0.341699 0.261477
C12_4 C 0.40120(18) 0.1878(7) 0.2681(2)
C13_4 C 0.43933(19) 0.1395(7) 0.3000(2)
H7_4 H 0.452421 0.061571 0.290445
C14_4 C 0.4585(2) 0.2024(7) 0.3451(2)
H8_4 H 0.484281 0.166532 0.366485
O5_4 O 0.11766(13) 0.1960(5) 0.06887(18)
O6_4 O 0.11885(14) 0.0070(7) 0.0262(2)
C15_4 C 0.13694(18) 0.0943(7) 0.0584(2)
C16_4 C 0.18307(18) 0.0807(7) 0.0845(2)
C19_4 C 0.26975(18) 0.0614(8) 0.1309(3)
C20_4 C 0.2485(2) 0.1838(9) 0.1350(3)
H11_4 H 0.263498 0.261705 0.153122
C21_4 C 0.2053(2) 0.1917(9) 0.1123(3)
H12_4 H 0.190952 0.274360 0.116027
C22_4 C 0.31594(18) 0.0528(8) 0.1538(2)
C25_4 C 0.40263(18) 0.0444(7) 0.1958(2)
H14_4 H 0.432197 0.040996 0.210173
C26_4 C 0.37962(17) 0.1169(7) 0.2202(2)
C27_4 C 0.33640(17) 0.1206(8) 0.1988(2)
H15_4 H 0.320368 0.170106 0.214953
O1_4 O 0.47312(15) 0.5998(5) 0.02448(17)
O2_4 O 0.51953(15) 0.7651(5) 0.05442(19)
C1_4 C 0.4855(2) 0.7094(7) 0.0500(2)
C2_4 C 0.45790(18) 0.7760(7) 0.0751(2)
C3_4 C 0.4729(2) 0.8917(8) 0.1051(3)
H1_6 H 0.499983 0.927445 0.109181
C4_4 C 0.4483(2) 0.9551(8) 0.1293(3)
C5_4 C 0.40903(18) 0.9058(6) 0.1244(2)
C6_4 C 0.41799(19) 0.7265(8) 0.0693(3)
H3_4 H 0.407216 0.648058 0.048409
C7_4 C 0.39385(19) 0.7908(8) 0.0937(3)
H4_4 H 0.366638 0.755962 0.089434
C17_4 C 0.2039(2) 0.9632(11) 0.0798(4)
H9_4 H 0.188964 0.886962 0.060468
C18_4 C 0.2473(2) 0.9528(10) 0.1033(4)
H10_4 H 0.261331 0.868965 0.099961
C23_4 C 0.33984(18) 0.9819(7) 0.1305(2)
H13_4 H 0.326285 0.935461 0.100034
C24_4 C 0.38338(18) 0.9768(7) 0.1508(2)
O7_3 O 0.43496(19) 0.1489(5) 0.0119(2)
C32_3 C 0.3551(4) 0.0901(12) 0.0110(4)
H22_3 H 0.327673 0.047647 0.005688
H23_3 H 0.371279 0.089433 0.046480
O8_3 O 0.4239(3) 0.3794(11) 0.0645(4)
C33_3 C 0.4170(6) 0.415(3) 0.1037(6)
N2_3 N 0.3779(6) 0.419(4) 0.1096(7)
C34_3 C 0.3788(8) 0.470(3) 0.1550(8)
H25_3 H 0.365433 0.403053 0.171440
H26_4 H 0.363905 0.561258 0.151060
C35_3 C 0.4252(9) 0.489(4) 0.1852(8)
H27_4 H 0.430598 0.586980 0.197118
H28_3 H 0.432934 0.425868 0.214397
C36_3 C 0.4513(7) 0.454(3) 0.1525(7)
H29_3 H 0.470273 0.373141 0.165868
H30_4 H 0.467926 0.535342 0.148477
C37_3 C 0.3442(9) 0.410(6) 0.0656(11)
H31_3 H 0.353669 0.368352 0.039801
H32_3 H 0.322452 0.350031 0.070675
H33_4 H 0.332885 0.503651 0.055286
C28_4 C 0.4144(3) 0.0483(9) 0.9864(3)
N1_4 N 0.3764(3) 0.0133(9) 0.9854(3)
H24_4 H 0.351534 0.187189 0.998941
O9_4 O 0.52688(15) 0.4002(5) 0.97552(17)
O10_4 O 0.48047(15) 0.2349(5) 0.94558(19)
O12_4 O 0.44383(14) 0.5149(5) 0.92119(15)
O13_4 O 0.38234(13) 0.3040(5) 0.93113(18)
O14_4 O 0.38115(14) 0.4930(7) 0.9738(2)
O11_3 O 0.00478(15) 0.1730(5) 0.56381(17)
H1_7 H -0.000017 0.572555 0.609181
O7_4 O 0.93496(19) 0.3511(5) 0.5119(2)
C28_5 C 0.9144(3) 0.4517(9) 0.4864(3)
N1_5 N 0.8764(3) 0.4867(9) 0.4854(3)
C29_3 C 0.8583(3) 0.6005(10) 0.4540(4)
H16_3 H 0.834913 0.568179 0.424885
H17_3 H 0.847794 0.672379 0.471858
C30_3 C 0.8934(4) 0.6593(13) 0.4383(5)
H18_3 H 0.883654 0.674351 0.402003
H19_3 H 0.902918 0.750528 0.454795
C31_3 C 0.9300(4) 0.5504(10) 0.4535(4)
H20_3 H 0.957000 0.595168 0.472346
H21_3 H 0.932829 0.500743 0.424405
C32_4 C 0.8551(4) 0.4099(12) 0.5110(4)
H22_4 H 0.827673 0.452353 0.505688
H23_4 H 0.871279 0.410567 0.546480
H24_5 H 0.851534 0.312811 0.498941
O8_4 O 0.9239(3) 0.1206(11) 0.5645(4)
C33_4 C 0.9170(6) 0.085(3) 0.6037(6)
N2_4 N 0.8779(6) 0.081(4) 0.6096(7)
C34_4 C 0.8788(8) 0.030(3) 0.6550(8)
H25_4 H 0.865433 0.096947 0.671440
C35_4 C 0.9252(9) 0.011(4) 0.6852(8)
H28_4 H 0.932934 0.074132 0.714397
C36_4 C 0.9513(7) 0.046(3) 0.6525(7)
H29_4 H 0.970273 0.126859 0.665868
C37_4 C 0.8442(9) 0.090(6) 0.5656(11)
H31_4 H 0.853669 0.131648 0.539801
H32_4 H 0.822452 0.149969 0.570675
C1_5 C 0.9855(2) 0.7906(7) 0.5500(2)
C2_5 C 0.95790(18) 0.7240(7) 0.5751(2)
C3_5 C 0.9729(2) 0.6083(8) 0.6051(3)
H1_8 H 0.999983 0.572555 0.609181
C4_5 C 0.9483(2) 0.5449(8) 0.6293(3)
H2_5 H 0.958876 0.465432 0.649671
C5_5 C 0.90903(18) 0.5942(6) 0.6244(2)
C6_5 C 0.91799(19) 0.7735(8) 0.5693(3)
H3_5 H 0.907216 0.851942 0.548409
C7_5 C 0.89385(19) 0.7092(8) 0.5937(3)
H4_5 H 0.866638 0.744038 0.589434
O3_3 O 0.99522(15) 0.1730(5) 0.93619(17)
C8_5 C 0.96153(19) 0.1160(7) 0.9097(2)
C9_5 C 0.94056(18) 0.1828(7) 0.8597(2)
C10_5 C 0.90300(19) 0.1316(7) 0.8282(2)
H5_5 H 0.890367 0.052531 0.837766
C11_5 C 0.88375(19) 0.1952(8) 0.7829(2)
H6_5 H 0.858096 0.158301 0.761477
C12_5 C 0.90120(18) 0.3122(7) 0.7681(2)
C13_5 C 0.93933(19) 0.3605(7) 0.8000(2)
H7_5 H 0.952421 0.438429 0.790445
C14_5 C 0.9585(2) 0.2976(7) 0.8451(2)
H8_5 H 0.984281 0.333468 0.866485
C15_5 C 0.63694(18) 0.4057(7) 0.5584(2)
C16_5 C 0.68307(18) 0.4193(7) 0.5845(2)
C17_5 C 0.7039(2) 0.5368(11) 0.5798(4)
H9_5 H 0.688964 0.613038 0.560468
C18_5 C 0.7473(2) 0.5472(10) 0.6033(4)
H10_5 H 0.761331 0.631035 0.599961
C19_5 C 0.76975(18) 0.4386(8) 0.6309(3)
C20_5 C 0.7485(2) 0.3162(9) 0.6350(3)
H11_5 H 0.763498 0.238295 0.653122
C21_5 C 0.7053(2) 0.3083(9) 0.6123(3)
H12_5 H 0.690952 0.225640 0.616027
C22_5 C 0.81594(18) 0.4472(8) 0.6538(2)
C23_5 C 0.83984(18) 0.5181(7) 0.6305(2)
H13_5 H 0.826285 0.564539 0.600034
C24_5 C 0.88338(18) 0.5232(7) 0.6508(2)
C25_5 C 0.90263(18) 0.4556(7) 0.6958(2)
H14_5 H 0.932197 0.459004 0.710173
C26_5 C 0.87962(17) 0.3831(7) 0.7202(2)
C27_5 C 0.83640(17) 0.3794(8) 0.6988(2)
H15_5 H 0.820368 0.329894 0.714953
H26_5 H 0.863905 0.938742 0.651060
H27_5 H 0.930598 0.913020 0.697118
H30_5 H 0.967926 0.964658 0.648477
H33_5 H 0.832885 0.996349 0.555286
C28_6 C 0.0856(3) 0.4517(9) 0.0136(3)
N1_6 N 0.1236(3) 0.4867(9) 0.0146(3)
C29_4 C 0.1417(3) 0.6005(10) 0.0460(4)
H16_4 H 0.165087 0.568179 0.075115
H17_4 H 0.152206 0.672379 0.028142
C30_4 C 0.1066(4) 0.6593(13) 0.0617(5)
H18_4 H 0.116346 0.674351 0.097997
H19_4 H 0.097082 0.750528 0.045205
C31_4 C 0.0700(4) 0.5504(10) 0.0465(4)
H20_4 H 0.043000 0.595168 0.027654
H21_4 H 0.067171 0.500743 0.075595
H24_6 H 0.148466 0.312811 0.001059
C1_6 C 0.0145(2) 0.7906(7) 0.9500(2)
C2_6 C 0.04210(18) 0.7240(7) 0.9249(2)
C3_6 C 0.0271(2) 0.6083(8) 0.8949(3)
H1_9 H 0.000017 0.572555 0.890819
C4_6 C 0.0517(2) 0.5449(8) 0.8707(3)
H2_6 H 0.041124 0.465432 0.850329
C5_6 C 0.09097(18) 0.5942(6) 0.8756(2)
C6_6 C 0.08201(19) 0.7735(8) 0.9307(3)
H3_6 H 0.092784 0.851942 0.951591
C7_6 C 0.10615(19) 0.7092(8) 0.9063(3)
H4_6 H 0.133362 0.744038 0.910566
C8_6 C 0.03847(19) 0.1160(7) 0.5903(2)
C9_6 C 0.05944(18) 0.1828(7) 0.6403(2)
C10_6 C 0.09700(19) 0.1316(7) 0.6718(2)
H5_6 H 0.109633 0.052531 0.662234
C11_6 C 0.11625(19) 0.1952(8) 0.7171(2)
H6_6 H 0.141904 0.158301 0.738523
C12_6 C 0.09880(18) 0.3122(7) 0.7319(2)
C13_6 C 0.06067(19) 0.3605(7) 0.7000(2)
H7_6 H 0.047579 0.438429 0.709555
C14_6 C 0.0415(2) 0.2976(7) 0.6549(2)
H8_6 H 0.015719 0.333468 0.633515
C15_6 C 0.36306(18) 0.4057(7) 0.9416(2)
C16_6 C 0.31693(18) 0.4193(7) 0.9155(2)
C17_6 C 0.2961(2) 0.5368(11) 0.9202(4)
H9_6 H 0.311036 0.613038 0.939532
C18_6 C 0.2527(2) 0.5472(10) 0.8967(4)
H10_6 H 0.238669 0.631035 0.900039
C19_6 C 0.23025(18) 0.4386(8) 0.8691(3)
C20_6 C 0.2515(2) 0.3162(9) 0.8650(3)
H11_6 H 0.236502 0.238295 0.846878
C21_6 C 0.2947(2) 0.3083(9) 0.8877(3)
H12_6 H 0.309048 0.225640 0.883973
C22_6 C 0.18406(18) 0.4472(8) 0.8462(2)
C23_6 C 0.16016(18) 0.5181(7) 0.8695(2)
H13_6 H 0.173715 0.564539 0.899966
C24_6 C 0.11662(18) 0.5232(7) 0.8492(2)
C25_6 C 0.09737(18) 0.4556(7) 0.8042(2)
H14_6 H 0.067803 0.459004 0.789827
C26_6 C 0.12038(17) 0.3831(7) 0.7798(2)
C27_6 C 0.16360(17) 0.3794(8) 0.8012(2)
H15_6 H 0.179632 0.329894 0.785047
H26_6 H 0.136095 0.938742 0.848940
H27_6 H 0.069402 0.913020 0.802882
H30_6 H 0.032074 0.964658 0.851523
H33_6 H 0.167115 0.996349 0.944714
H1_10 H 1.000017 0.572555 0.890819
C1_7 C 0.4855(2) 0.2906(7) 0.5500(2)
C2_7 C 0.45790(18) 0.2240(7) 0.5751(2)
C3_7 C 0.4729(2) 0.1083(8) 0.6051(3)
H1_11 H 0.499983 0.072555 0.609181
C4_7 C 0.4483(2) 0.0449(8) 0.6293(3)
C5_7 C 0.40903(18) 0.0942(6) 0.6244(2)
C6_7 C 0.41799(19) 0.2735(8) 0.5693(3)
H3_7 H 0.407216 0.351942 0.548409
C7_7 C 0.39385(19) 0.2092(8) 0.5937(3)
H4_7 H 0.366638 0.244038 0.589434
C17_7 C 0.2039(2) 0.0368(11) 0.5798(4)
H9_7 H 0.188964 0.113038 0.560468
C18_7 C 0.2473(2) 0.0472(10) 0.6033(4)
H10_7 H 0.261331 0.131035 0.599961
C23_7 C 0.33984(18) 0.0181(7) 0.6305(2)
H13_7 H 0.326285 0.064539 0.600034
C24_7 C 0.38338(18) 0.0232(7) 0.6508(2)
O7_5 O 0.43496(19) 0.8511(5) 0.5119(2)
C28_7 C 0.4144(3) 0.9517(9) 0.4864(3)
N1_7 N 0.3764(3) 0.9867(9) 0.4854(3)
C32_5 C 0.3551(4) 0.9099(12) 0.5110(4)
H22_5 H 0.327673 0.952353 0.505688
H23_5 H 0.371279 0.910567 0.546480
H24_7 H 0.351534 0.812811 0.498941
O8_5 O 0.4239(3) 0.6206(11) 0.5645(4)
C33_5 C 0.4170(6) 0.585(3) 0.6037(6)
N2_5 N 0.3779(6) 0.581(4) 0.6096(7)
C34_5 C 0.3788(8) 0.530(3) 0.6550(8)
H25_5 H 0.365433 0.596947 0.671440
H26_7 H 0.363905 0.438742 0.651060
C35_5 C 0.4252(9) 0.511(4) 0.6852(8)
H27_7 H 0.430598 0.413020 0.697118
H28_5 H 0.432934 0.574132 0.714397
C36_5 C 0.4513(7) 0.546(3) 0.6525(7)
H29_5 H 0.470273 0.626859 0.665868
H30_7 H 0.467926 0.464658 0.648477
C37_5 C 0.3442(9) 0.590(6) 0.5656(11)
H31_5 H 0.353669 0.631648 0.539801
H32_5 H 0.322452 0.649969 0.570675
H33_7 H 0.332885 0.496349 0.555286
O11_4 O 0.50478(15) 0.6730(5) 0.56381(17)
H2_7 H 0.458876 0.965432 0.649671
O3_4 O 0.49522(15) 0.6730(5) 0.93619(17)
C8_7 C 0.46153(19) 0.6160(7) 0.9097(2)
C9_7 C 0.44056(18) 0.6828(7) 0.8597(2)
C10_7 C 0.40300(19) 0.6316(7) 0.8282(2)
H5_7 H 0.390367 0.552531 0.837766
C11_7 C 0.38375(19) 0.6952(8) 0.7829(2)
H6_7 H 0.358096 0.658301 0.761477
C12_7 C 0.40120(18) 0.8122(7) 0.7681(2)
C13_7 C 0.43933(19) 0.8605(7) 0.8000(2)
H7_7 H 0.452421 0.938429 0.790445
C14_7 C 0.4585(2) 0.7976(7) 0.8451(2)
H8_7 H 0.484281 0.833468 0.866485
C15_7 C 0.13694(18) 0.9057(7) 0.5584(2)
C16_7 C 0.18307(18) 0.9193(7) 0.5845(2)
C19_7 C 0.26975(18) 0.9386(8) 0.6309(3)
C20_7 C 0.2485(2) 0.8162(9) 0.6350(3)
H11_7 H 0.263498 0.738295 0.653122
C21_7 C 0.2053(2) 0.8083(9) 0.6123(3)
H12_7 H 0.190952 0.725640 0.616027
C22_7 C 0.31594(18) 0.9472(8) 0.6538(2)
C25_7 C 0.40263(18) 0.9556(7) 0.6958(2)
H14_7 H 0.432197 0.959004 0.710173
C26_7 C 0.37962(17) 0.8831(7) 0.7202(2)
C27_7 C 0.33640(17) 0.8794(8) 0.6988(2)
H15_7 H 0.320368 0.829894 0.714953
C28_8 C 0.5856(3) 0.9517(9) 0.0136(3)
N1_8 N 0.6236(3) 0.9867(9) 0.0146(3)
H24_8 H 0.648466 0.812811 0.001059
C1_8 C 0.5145(2) 0.2906(7) 0.9500(2)
C2_8 C 0.54210(18) 0.2240(7) 0.9249(2)
C3_8 C 0.5271(2) 0.1083(8) 0.8949(3)
H1_12 H 0.500017 0.072555 0.890819
C4_8 C 0.5517(2) 0.0449(8) 0.8707(3)
C5_8 C 0.59097(18) 0.0942(6) 0.8756(2)
C6_8 C 0.58201(19) 0.2735(8) 0.9307(3)
H3_8 H 0.592784 0.351942 0.951591
C7_8 C 0.60615(19) 0.2092(8) 0.9063(3)
H4_8 H 0.633362 0.244038 0.910566
C17_8 C 0.7961(2) 0.0368(11) 0.9202(4)
H9_8 H 0.811036 0.113038 0.939532
C18_8 C 0.7527(2) 0.0472(10) 0.8967(4)
H10_8 H 0.738669 0.131035 0.900039
C23_8 C 0.66016(18) 0.0181(7) 0.8695(2)
H13_8 H 0.673715 0.064539 0.899966
C24_8 C 0.61662(18) 0.0232(7) 0.8492(2)
O7_6 O 0.56504(19) 0.8511(5) 0.9881(2)
C32_6 C 0.6449(4) 0.9099(12) 0.9890(4)
H22_6 H 0.672327 0.952353 0.994312
H23_6 H 0.628721 0.910567 0.953520
O8_6 O 0.5761(3) 0.6206(11) 0.9355(4)
C33_6 C 0.5830(6) 0.585(3) 0.8963(6)
N2_6 N 0.6221(6) 0.581(4) 0.8904(7)
C34_6 C 0.6212(8) 0.530(3) 0.8450(8)
H25_6 H 0.634567 0.596947 0.828560
H26_8 H 0.636095 0.438742 0.848940
C35_6 C 0.5748(9) 0.511(4) 0.8148(8)
H27_8 H 0.569402 0.413020 0.802882
H28_6 H 0.567066 0.574132 0.785603
C36_6 C 0.5487(7) 0.546(3) 0.8475(7)
H29_6 H 0.529727 0.626859 0.834132
H30_8 H 0.532074 0.464658 0.851523
C37_6 C 0.6558(9) 0.590(6) 0.9344(11)
H31_6 H 0.646331 0.631648 0.960199
H32_6 H 0.677548 0.649969 0.929325
H33_8 H 0.667115 0.496349 0.944714
H2_8 H 0.541124 0.965432 0.850329
C8_8 C 0.53847(19) 0.6160(7) 0.5903(2)
C9_8 C 0.55944(18) 0.6828(7) 0.6403(2)
C10_8 C 0.59700(19) 0.6316(7) 0.6718(2)
H5_8 H 0.609633 0.552531 0.662234
C11_8 C 0.61625(19) 0.6952(8) 0.7171(2)
H6_8 H 0.641904 0.658301 0.738523
C12_8 C 0.59880(18) 0.8122(7) 0.7319(2)
C13_8 C 0.56067(19) 0.8605(7) 0.7000(2)
H7_8 H 0.547579 0.938429 0.709555
C14_8 C 0.5415(2) 0.7976(7) 0.6549(2)
H8_8 H 0.515719 0.833468 0.633515
C15_8 C 0.86306(18) 0.9057(7) 0.9416(2)
C16_8 C 0.81693(18) 0.9193(7) 0.9155(2)
C19_8 C 0.73025(18) 0.9386(8) 0.8691(3)
C20_8 C 0.7515(2) 0.8162(9) 0.8650(3)
H11_8 H 0.736502 0.738295 0.846878
C21_8 C 0.7947(2) 0.8083(9) 0.8877(3)
H12_8 H 0.809048 0.725640 0.883973
C22_8 C 0.68406(18) 0.9472(8) 0.8462(2)
C25_8 C 0.59737(18) 0.9556(7) 0.8042(2)
H14_8 H 0.567803 0.959004 0.789827
C26_8 C 0.62038(17) 0.8831(7) 0.7798(2)
C27_8 C 0.66360(17) 0.8794(8) 0.8012(2)
H15_8 H 0.679632 0.829894 0.785047
O7_7 O 0.93496(19) 0.6489(5) 0.0119(2)
C32_7 C 0.8551(4) 0.5901(12) 0.0110(4)
H22_7 H 0.827673 0.547647 0.005688
H23_7 H 0.871279 0.589433 0.046480
O8_7 O 0.9239(3) 0.8794(11) 0.0645(4)
C33_7 C 0.9170(6) 0.915(3) 0.1037(6)
N2_7 N 0.8779(6) 0.919(4) 0.1096(7)
C34_7 C 0.8788(8) 0.970(3) 0.1550(8)
H25_7 H 0.865433 0.903053 0.171440
C35_7 C 0.9252(9) 0.989(4) 0.1852(8)
H28_7 H 0.932934 0.925868 0.214397
C36_7 C 0.9513(7) 0.954(3) 0.1525(7)
H29_7 H 0.970273 0.873141 0.165868
C37_7 C 0.8442(9) 0.910(6) 0.0656(11)
H31_7 H 0.853669 0.868352 0.039801
H32_7 H 0.822452 0.850031 0.070675
C29_5 C 0.6417(3) 0.8995(10) 0.5460(4)
H16_5 H 0.665087 0.931821 0.575115
H17_5 H 0.652206 0.827621 0.528142
C30_5 C 0.6066(4) 0.8407(13) 0.5617(5)
H18_5 H 0.616346 0.825649 0.597997
H19_5 H 0.597082 0.749472 0.545205
C31_5 C 0.5700(4) 0.9496(10) 0.5465(4)
H20_5 H 0.543000 0.904832 0.527654
H21_5 H 0.567171 0.999257 0.575595
C29_6 C 0.3583(3) 0.8995(10) 0.9540(4)
H16_6 H 0.334913 0.931821 0.924885
H17_6 H 0.347794 0.827621 0.971858
C30_6 C 0.3934(4) 0.8407(13) 0.9383(5)
H18_6 H 0.383654 0.825649 0.902003
H19_6 H 0.402918 0.749472 0.954795
C31_6 C 0.4300(4) 0.9496(10) 0.9535(4)
H20_6 H 0.457000 0.904832 0.972346
H21_6 H 0.432829 0.999257 0.924405
O7_8 O 0.06504(19) 0.3511(5) 0.9881(2)
C32_8 C 0.1449(4) 0.4099(12) 0.9890(4)
H22_8 H 0.172327 0.452353 0.994312
H23_8 H 0.128721 0.410567 0.953520
O8_8 O 0.0761(3) 0.1206(11) 0.9355(4)
C33_8 C 0.0830(6) 0.085(3) 0.8963(6)
N2_8 N 0.1221(6) 0.081(4) 0.8904(7)
C34_8 C 0.1212(8) 0.030(3) 0.8450(8)
H25_8 H 0.134567 0.096947 0.828560
C35_8 C 0.0748(9) 0.011(4) 0.8148(8)
H28_8 H 0.067066 0.074132 0.785603
C36_8 C 0.0487(7) 0.046(3) 0.8475(7)
H29_8 H 0.029727 0.126859 0.834132
C37_8 C 0.1558(9) 0.090(6) 0.9344(11)
H31_8 H 0.146331 0.131648 0.960199
H32_8 H 0.177548 0.149969 0.929325
C29_7 C 0.3583(3) 0.1005(10) 0.4540(4)
H16_7 H 0.334913 0.068179 0.424885
H17_7 H 0.347794 0.172379 0.471858
C30_7 C 0.3934(4) 0.1593(13) 0.4383(5)
H18_7 H 0.383654 0.174351 0.402003
H19_7 H 0.402918 0.250528 0.454795
C31_7 C 0.4300(4) 0.0504(10) 0.4535(4)
H20_7 H 0.457000 0.095168 0.472346
H21_7 H 0.432829 0.000743 0.424405
C29_8 C 0.6417(3) 0.1005(10) 0.0460(4)
H16_8 H 0.665087 0.068179 0.075115
H17_8 H 0.652206 0.172379 0.028142
C30_8 C 0.6066(4) 0.1593(13) 0.0617(5)
H18_8 H 0.616346 0.174351 0.097997
H19_8 H 0.597082 0.250528 0.045205
C31_8 C 0.5700(4) 0.0504(10) 0.0465(4)
H20_8 H 0.543000 0.095168 0.027654
H21_8 H 0.567171 0.000743 0.075595
loop_
_geom_bond_atom_site_label_1
_geom_bond_atom_site_label_2
_geom_bond_site_symmetry_1
_geom_bond_site_symmetry_2
O1 C1 1_555 1_555
C1 C2 1_555 1_555
C2 C3 1_555 1_555
C3 H1 1_555 1_555
C4 C3 1_555 1_555
H2 C4 1_555 1_555
C5 C4 1_555 1_555
C6 C2 1_555 1_555
H3 C6 1_555 1_555
C7 C5 1_555 1_555
H4 C7 1_555 1_555
O3 C8 1_555 1_555
O4 C8 1_555 1_555
C8 C9 1_555 1_555
C9 C10 1_555 1_555
C10 H5 1_555 1_555
C11 C10 1_555 1_555
H6 C11 1_555 1_555
C12 C11 1_555 1_555
C13 C12 1_555 1_555
H7 C13 1_555 1_555
C14 C9 1_555 1_555
H8 C14 1_555 1_555
O5 C15 1_555 1_555
O6 C15 1_555 1_555
C15 C16 1_555 1_555
C16 C17 1_555 1_555
C17 H9 1_555 1_555
C18 C17 1_555 1_555
H10 C18 1_555 1_555
C19 C18 1_555 1_555
C20 C19 1_555 1_555
H11 C20 1_555 1_555
C21 C16 1_555 1_555
H12 C21 1_555 1_555
C22 C19 1_555 1_555
C23 C22 1_555 1_555
H13 C23 1_555 1_555
C24 C5 1_555 1_555
C25 C24 1_555 1_555
H14 C25 1_555 1_555
C26 C12 1_555 1_555
C27 C22 1_555 1_555
H15 C27 1_555 1_555
Gd5 O5 1_555 1_555
C6 C7 1_555 1_555
C13 C14 1_555 1_555
O6 Gd5 1_555 1_555
C20 C21 1_555 1_555
C23 C24 1_555 1_555
C25 C26 1_555 1_555
C26 C27 1_555 1_555
O7 Gd1 1_555 1_555
C28 O7 1_555 1_555
N1 C28 1_555 1_555
C29 N1 1_555 1_555
H16 C29 1_555 1_555
H17 C29 1_555 1_555
C30 C29 1_555 1_555
H18 C30 1_555 1_555
H19 C30 1_555 1_555
C31 C28 1_555 1_555
H20 C31 1_555 1_555
H21 C31 1_555 1_555
C32 N1 1_555 1_555
H22 C32 1_555 1_555
H23 C32 1_555 1_555
H24 C32 1_555 1_555
O8 Gd1 1_555 1_555
C33 O8 1_555 1_555
N2 C33 1_555 1_555
C34 N2 1_555 1_555
H25 C34 1_555 1_555
C35 C34 1_555 1_555
H28 C35 1_555 1_555
C36 C33 1_555 1_555
H29 C36 1_555 1_555
C37 N2 1_555 1_555
H31 C37 1_555 1_555
H32 C37 1_555 1_555
O10 Gd1 1_555 1_555
O13 Gd1 1_555 1_555
O14 Gd1 1_555 1_555
C30 C31 1_555 1_555
C35 C36 1_555 1_555
O2 Gd3 1_555 1_555
O2_2 Gd4 1_555 1_555
O1_2 C1_2 1_555 1_555
C1_2 C2_2 1_555 1_555
C2_2 C3_2 1_555 1_555
C3_2 H1_4 1_555 1_555
C4_2 C3_2 1_555 1_555
H2_2 C4_2 1_555 1_555
C5_2 C4_2 1_555 1_555
C6_2 C2_2 1_555 1_555
H3_2 C6_2 1_555 1_555
C7_2 C5_2 1_555 1_555
H4_2 C7_2 1_555 1_555
O11 C8_2 1_555 1_555
O4_2 C8_2 1_555 1_555
C8_2 C9_2 1_555 1_555
C9_2 C10_2 1_555 1_555
C10_2 H5_2 1_555 1_555
C11_2 C10_2 1_555 1_555
H6_2 C11_2 1_555 1_555
C12_2 C11_2 1_555 1_555
C13_2 C12_2 1_555 1_555
H7_2 C13_2 1_555 1_555
C14_2 C9_2 1_555 1_555
H8_2 C14_2 1_555 1_555
O5_2 C15_2 1_555 1_555
O6_2 C15_2 1_555 1_555
C15_2 C16_2 1_555 1_555
C16_2 C17_2 1_555 1_555
C17_2 H9_2 1_555 1_555
C18_2 C17_2 1_555 1_555
H10_2 C18_2 1_555 1_555
C19_2 C18_2 1_555 1_555
C20_2 C19_2 1_555 1_555
H11_2 C20_2 1_555 1_555
C21_2 C16_2 1_555 1_555
H12_2 C21_2 1_555 1_555
C22_2 C19_2 1_555 1_555
C23_2 C22_2 1_555 1_555
H13_2 C23_2 1_555 1_555
C24_2 C5_2 1_555 1_555
C25_2 C24_2 1_555 1_555
H14_2 C25_2 1_555 1_555
C26_2 C12_2 1_555 1_555
C27_2 C22_2 1_555 1_555
H15_2 C27_2 1_555 1_555
Gd5_2 O5_2 1_555 1_555
C6_2 C7_2 1_555 1_555
C13_2 C14_2 1_555 1_555
O6_2 Gd5_2 1_555 1_555
C20_2 C21_2 1_555 1_555
C23_2 C24_2 1_555 1_555
C25_2 C26_2 1_555 1_555
C26_2 C27_2 1_555 1_555
N1_2 C28_2 1_555 1_555
C29_2 N1_2 1_555 1_555
H16_2 C29_2 1_555 1_555
H17_2 C29_2 1_555 1_555
C30_2 C29_2 1_555 1_555
H18_2 C30_2 1_555 1_555
H19_2 C30_2 1_555 1_555
C31_2 C28_2 1_555 1_555
H20_2 C31_2 1_555 1_555
H21_2 C31_2 1_555 1_555
O10_2 Gd2 1_555 1_555
O13_2 Gd2 1_555 1_555
O14_2 Gd2 1_555 1_555
C30_2 C31_2 1_555 1_555
O3_2 C8_3 1_555 1_555
O4_3 C8_3 1_555 1_555
C8_3 C9_3 1_555 1_555
C9_3 C10_3 1_555 1_555
C10_3 H5_3 1_555 1_555
C11_3 C10_3 1_555 1_555
H6_3 C11_3 1_555 1_555
C12_3 C11_3 1_555 1_555
C13_3 C12_3 1_555 1_555
H7_3 C13_3 1_555 1_555
C14_3 C9_3 1_555 1_555
H8_3 C14_3 1_555 1_555
O5_3 C15_3 1_555 1_555
O6_3 C15_3 1_555 1_555
C15_3 C16_3 1_555 1_555
C20_3 C19_3 1_555 1_555
H11_3 C20_3 1_555 1_555
C21_3 C16_3 1_555 1_555
H12_3 C21_3 1_555 1_555
C22_3 C19_3 1_555 1_555
H14_3 C25_3 1_555 1_555
C26_3 C12_3 1_555 1_555
C27_3 C22_3 1_555 1_555
H15_3 C27_3 1_555 1_555
Gd5_2 O4_3 1_555 1_555
Gd3 O5_3 1_555 1_555
C13_3 C14_3 1_555 1_555
O6_3 Gd3 1_555 1_555
C20_3 C21_3 1_555 1_555
C25_3 C26_3 1_555 1_555
C26_3 C27_3 1_555 1_555
Gd1_2 O1_3 1_555 1_555
O1_3 C1_3 1_555 1_555
O2_3 C1_3 1_555 1_555
C1_3 C2_3 1_555 1_555
C2_3 C3_3 1_555 1_555
C3_3 H1_5 1_555 1_555
C4_3 C3_3 1_555 1_555
C5_3 C4_3 1_555 1_555
C6_3 C2_3 1_555 1_555
H3_3 C6_3 1_555 1_555
C7_3 C5_3 1_555 1_555
H4_3 C7_3 1_555 1_555
C17_3 H9_3 1_555 1_555
C18_3 C17_3 1_555 1_555
H10_3 C18_3 1_555 1_555
H13_3 C23_3 1_555 1_555
C24_3 C5_3 1_555 1_555
O7_2 Gd1_2 1_555 1_555
C28_3 O7_2 1_555 1_555
N1_3 C28_3 1_555 1_555
C32_2 N1_3 1_555 1_555
H22_2 C32_2 1_555 1_555
H23_2 C32_2 1_555 1_555
H24_3 C32_2 1_555 1_555
O8_2 Gd1_2 1_555 1_555
C33_2 O8_2 1_555 1_555
N2_2 C33_2 1_555 1_555
C34_2 N2_2 1_555 1_555
H25_2 C34_2 1_555 1_555
H26_3 C34_2 1_555 1_555
C35_2 C34_2 1_555 1_555
H27_3 C35_2 1_555 1_555
H28_2 C35_2 1_555 1_555
C36_2 C33_2 1_555 1_555
H29_2 C36_2 1_555 1_555
H30_3 C36_2 1_555 1_555
C37_2 N2_2 1_555 1_555
H31_2 C37_2 1_555 1_555
H32_2 C37_2 1_555 1_555
H33_3 C37_2 1_555 1_555
Gd5 O1_3 1_555 1_555
O9_3 Gd1_2 1_555 1_555
O10_3 Gd1_2 1_555 1_555
O11_2 Gd1_2 1_555 1_555
O12_3 Gd1_2 1_555 1_555
O13_3 Gd1_2 1_555 1_555
O14_3 Gd1_2 1_555 1_555
O2_3 Gd5 1_555 1_555
C6_3 C7_3 1_555 1_555
C23_3 C24_3 1_555 1_555
C35_2 C36_2 1_555 1_555
Gd5 O9_3 1_555 1_555
O11_2 C8_4 1_555 1_555
O4_4 C8_4 1_555 1_555
C8_4 C9_4 1_555 1_555
C9_4 C10_4 1_555 1_555
C10_4 H5_4 1_555 1_555
C11_4 C10_4 1_555 1_555
H6_4 C11_4 1_555 1_555
C12_4 C11_4 1_555 1_555
C13_4 C12_4 1_555 1_555
H7_4 C13_4 1_555 1_555
C14_4 C9_4 1_555 1_555
H8_4 C14_4 1_555 1_555
O5_4 C15_4 1_555 1_555
O6_4 C15_4 1_555 1_555
C15_4 C16_4 1_555 1_555
C20_4 C19_4 1_555 1_555
H11_4 C20_4 1_555 1_555
C21_4 C16_4 1_555 1_555
H12_4 C21_4 1_555 1_555
C22_4 C19_4 1_555 1_555
H14_4 C25_4 1_555 1_555
C26_4 C12_4 1_555 1_555
C27_4 C22_4 1_555 1_555
H15_4 C27_4 1_555 1_555
Gd5 O4_4 1_555 1_555
Gd4 O5_4 1_555 1_555
C13_4 C14_4 1_555 1_555
O6_4 Gd4 1_555 1_555
C20_4 C21_4 1_555 1_555
C25_4 C26_4 1_555 1_555
C26_4 C27_4 1_555 1_555
O1_4 C1_4 1_555 1_555
O2_4 C1_4 1_555 1_555
C1_4 C2_4 1_555 1_555
C2_4 C3_4 1_555 1_555
C3_4 H1_6 1_555 1_555
C4_4 C3_4 1_555 1_555
C5_4 C4_4 1_555 1_555
C6_4 C2_4 1_555 1_555
H3_4 C6_4 1_555 1_555
C7_4 C5_4 1_555 1_555
H4_4 C7_4 1_555 1_555
C17_4 H9_4 1_555 1_555
C18_4 C17_4 1_555 1_555
H10_4 C18_4 1_555 1_555
H13_4 C23_4 1_555 1_555
C24_4 C5_4 1_555 1_555
H22_3 C32_3 1_555 1_555
H23_3 C32_3 1_555 1_555
C33_3 O8_3 1_555 1_555
N2_3 C33_3 1_555 1_555
C34_3 N2_3 1_555 1_555
H25_3 C34_3 1_555 1_555
H26_4 C34_3 1_555 1_555
C35_3 C34_3 1_555 1_555
H27_4 C35_3 1_555 1_555
H28_3 C35_3 1_555 1_555
C36_3 C33_3 1_555 1_555
H29_3 C36_3 1_555 1_555
H30_4 C36_3 1_555 1_555
C37_3 N2_3 1_555 1_555
H31_3 C37_3 1_555 1_555
H32_3 C37_3 1_555 1_555
H33_4 C37_3 1_555 1_555
Gd5_2 O1_4 1_555 1_555
O2_4 Gd5_2 1_555 1_555
C6_4 C7_4 1_555 1_555
C23_4 C24_4 1_555 1_555
C35_3 C36_3 1_555 1_555
N1_4 C28_4 1_555 1_555
O9_4 Gd2_2 1_555 1_555
O10_4 Gd2_2 1_555 1_555
O12_4 Gd2_2 1_555 1_555
O13_4 Gd2_2 1_555 1_555
O14_4 Gd2_2 1_555 1_555
O7_4 Gd3 1_555 1_555
C28_5 O7_4 1_555 1_555
N1_5 C28_5 1_555 1_555
C29_3 N1_5 1_555 1_555
H16_3 C29_3 1_555 1_555
H17_3 C29_3 1_555 1_555
C30_3 C29_3 1_555 1_555
H18_3 C30_3 1_555 1_555
H19_3 C30_3 1_555 1_555
C31_3 C28_5 1_555 1_555
H20_3 C31_3 1_555 1_555
H21_3 C31_3 1_555 1_555
C32_4 N1_5 1_555 1_555
H22_4 C32_4 1_555 1_555
H23_4 C32_4 1_555 1_555
H24_5 C32_4 1_555 1_555
O8_4 Gd3 1_555 1_555
C33_4 O8_4 1_555 1_555
N2_4 C33_4 1_555 1_555
C34_4 N2_4 1_555 1_555
H25_4 C34_4 1_555 1_555
C35_4 C34_4 1_555 1_555
H28_4 C35_4 1_555 1_555
C36_4 C33_4 1_555 1_555
H29_4 C36_4 1_555 1_555
C37_4 N2_4 1_555 1_555
H31_4 C37_4 1_555 1_555
H32_4 C37_4 1_555 1_555
C30_3 C31_3 1_555 1_555
C35_4 C36_4 1_555 1_555
O9 C1_5 1_555 1_555
C1_5 C2_5 1_555 1_555
C2_5 C3_5 1_555 1_555
C3_5 H1_8 1_555 1_555
C4_5 C3_5 1_555 1_555
H2_5 C4_5 1_555 1_555
C5_5 C4_5 1_555 1_555
C6_5 C2_5 1_555 1_555
H3_5 C6_5 1_555 1_555
C7_5 C5_5 1_555 1_555
H4_5 C7_5 1_555 1_555
O3_3 C8_5 1_555 1_555
O12_2 C8_5 1_555 1_555
C8_5 C9_5 1_555 1_555
C9_5 C10_5 1_555 1_555
C10_5 H5_5 1_555 1_555
C11_5 C10_5 1_555 1_555
H6_5 C11_5 1_555 1_555
C12_5 C11_5 1_555 1_555
C13_5 C12_5 1_555 1_555
H7_5 C13_5 1_555 1_555
C14_5 C9_5 1_555 1_555
H8_5 C14_5 1_555 1_555
O13_3 C15_5 1_555 1_555
O14_3 C15_5 1_555 1_555
C15_5 C16_5 1_555 1_555
C16_5 C17_5 1_555 1_555
C17_5 H9_5 1_555 1_555
C18_5 C17_5 1_555 1_555
H10_5 C18_5 1_555 1_555
C19_5 C18_5 1_555 1_555
C20_5 C19_5 1_555 1_555
H11_5 C20_5 1_555 1_555
C21_5 C16_5 1_555 1_555
H12_5 C21_5 1_555 1_555
C22_5 C19_5 1_555 1_555
C23_5 C22_5 1_555 1_555
H13_5 C23_5 1_555 1_555
C24_5 C5_5 1_555 1_555
C25_5 C24_5 1_555 1_555
H14_5 C25_5 1_555 1_555
C26_5 C12_5 1_555 1_555
C27_5 C22_5 1_555 1_555
H15_5 C27_5 1_555 1_555
C6_5 C7_5 1_555 1_555
C13_5 C14_5 1_555 1_555
C20_5 C21_5 1_555 1_555
C23_5 C24_5 1_555 1_555
C25_5 C26_5 1_555 1_555
C26_5 C27_5 1_555 1_555
N1_6 C28_6 1_555 1_555
C29_4 N1_6 1_555 1_555
H16_4 C29_4 1_555 1_555
H17_4 C29_4 1_555 1_555
C30_4 C29_4 1_555 1_555
H18_4 C30_4 1_555 1_555
H19_4 C30_4 1_555 1_555
C31_4 C28_6 1_555 1_555
H20_4 C31_4 1_555 1_555
H21_4 C31_4 1_555 1_555
C30_4 C31_4 1_555 1_555
O9_2 C1_6 1_555 1_555
C1_6 C2_6 1_555 1_555
C2_6 C3_6 1_555 1_555
C3_6 H1_9 1_555 1_555
C4_6 C3_6 1_555 1_555
H2_6 C4_6 1_555 1_555
C5_6 C4_6 1_555 1_555
C6_6 C2_6 1_555 1_555
H3_6 C6_6 1_555 1_555
C7_6 C5_6 1_555 1_555
H4_6 C7_6 1_555 1_555
O11_3 C8_6 1_555 1_555
O12 C8_6 1_555 1_555
C8_6 C9_6 1_555 1_555
C9_6 C10_6 1_555 1_555
C10_6 H5_6 1_555 1_555
C11_6 C10_6 1_555 1_555
H6_6 C11_6 1_555 1_555
C12_6 C11_6 1_555 1_555
C13_6 C12_6 1_555 1_555
H7_6 C13_6 1_555 1_555
C14_6 C9_6 1_555 1_555
H8_6 C14_6 1_555 1_555
O13_4 C15_6 1_555 1_555
O14_4 C15_6 1_555 1_555
C15_6 C16_6 1_555 1_555
C16_6 C17_6 1_555 1_555
C17_6 H9_6 1_555 1_555
C18_6 C17_6 1_555 1_555
H10_6 C18_6 1_555 1_555
C19_6 C18_6 1_555 1_555
C20_6 C19_6 1_555 1_555
H11_6 C20_6 1_555 1_555
C21_6 C16_6 1_555 1_555
H12_6 C21_6 1_555 1_555
C22_6 C19_6 1_555 1_555
C23_6 C22_6 1_555 1_555
H13_6 C23_6 1_555 1_555
C24_6 C5_6 1_555 1_555
C25_6 C24_6 1_555 1_555
H14_6 C25_6 1_555 1_555
C26_6 C12_6 1_555 1_555
C27_6 C22_6 1_555 1_555
H15_6 C27_6 1_555 1_555
C6_6 C7_6 1_555 1_555
C13_6 C14_6 1_555 1_555
C20_6 C21_6 1_555 1_555
C23_6 C24_6 1_555 1_555
C25_6 C26_6 1_555 1_555
C26_6 C27_6 1_555 1_555
O9_3 C1_7 1_555 1_555
O10_3 C1_7 1_555 1_555
C1_7 C2_7 1_555 1_555
C2_7 C3_7 1_555 1_555
C3_7 H1_11 1_555 1_555
C4_7 C3_7 1_555 1_555
C5_7 C4_7 1_555 1_555
C6_7 C2_7 1_555 1_555
H3_7 C6_7 1_555 1_555
C7_7 C5_7 1_555 1_555
H4_7 C7_7 1_555 1_555
C17_7 H9_7 1_555 1_555
C18_7 C17_7 1_555 1_555
H10_7 C18_7 1_555 1_555
H13_7 C23_7 1_555 1_555
C24_7 C5_7 1_555 1_555
O7_5 Gd5 1_555 1_555
C28_7 O7_5 1_555 1_555
N1_7 C28_7 1_555 1_555
C32_5 N1_7 1_555 1_555
H22_5 C32_5 1_555 1_555
H23_5 C32_5 1_555 1_555
H24_7 C32_5 1_555 1_555
O8_5 Gd5 1_555 1_555
C33_5 O8_5 1_555 1_555
N2_5 C33_5 1_555 1_555
C34_5 N2_5 1_555 1_555
H25_5 C34_5 1_555 1_555
H26_7 C34_5 1_555 1_555
C35_5 C34_5 1_555 1_555
H27_7 C35_5 1_555 1_555
H28_5 C35_5 1_555 1_555
C36_5 C33_5 1_555 1_555
H29_5 C36_5 1_555 1_555
H30_7 C36_5 1_555 1_555
C37_5 N2_5 1_555 1_555
H31_5 C37_5 1_555 1_555
H32_5 C37_5 1_555 1_555
H33_7 C37_5 1_555 1_555
O11_4 Gd5 1_555 1_555
C6_7 C7_7 1_555 1_555
C23_7 C24_7 1_555 1_555
C35_5 C36_5 1_555 1_555
O3_4 C8_7 1_555 1_555
O12_4 C8_7 1_555 1_555
C8_7 C9_7 1_555 1_555
C9_7 C10_7 1_555 1_555
C10_7 H5_7 1_555 1_555
C11_7 C10_7 1_555 1_555
H6_7 C11_7 1_555 1_555
C12_7 C11_7 1_555 1_555
C13_7 C12_7 1_555 1_555
H7_7 C13_7 1_555 1_555
C14_7 C9_7 1_555 1_555
H8_7 C14_7 1_555 1_555
O13 C15_7 1_555 1_555
O14 C15_7 1_555 1_555
C15_7 C16_7 1_555 1_555
C20_7 C19_7 1_555 1_555
H11_7 C20_7 1_555 1_555
C21_7 C16_7 1_555 1_555
H12_7 C21_7 1_555 1_555
C22_7 C19_7 1_555 1_555
H14_7 C25_7 1_555 1_555
C26_7 C12_7 1_555 1_555
C27_7 C22_7 1_555 1_555
H15_7 C27_7 1_555 1_555
C13_7 C14_7 1_555 1_555
C20_7 C21_7 1_555 1_555
C25_7 C26_7 1_555 1_555
C26_7 C27_7 1_555 1_555
N1_8 C28_8 1_555 1_555
O9_4 C1_8 1_555 1_555
O10_4 C1_8 1_555 1_555
C1_8 C2_8 1_555 1_555
C2_8 C3_8 1_555 1_555
C3_8 H1_12 1_555 1_555
C4_8 C3_8 1_555 1_555
C5_8 C4_8 1_555 1_555
C6_8 C2_8 1_555 1_555
H3_8 C6_8 1_555 1_555
C7_8 C5_8 1_555 1_555
H4_8 C7_8 1_555 1_555
C17_8 H9_8 1_555 1_555
C18_8 C17_8 1_555 1_555
H10_8 C18_8 1_555 1_555
H13_8 C23_8 1_555 1_555
C24_8 C5_8 1_555 1_555
H22_6 C32_6 1_555 1_555
H23_6 C32_6 1_555 1_555
C33_6 O8_6 1_555 1_555
N2_6 C33_6 1_555 1_555
C34_6 N2_6 1_555 1_555
H25_6 C34_6 1_555 1_555
H26_8 C34_6 1_555 1_555
C35_6 C34_6 1_555 1_555
H27_8 C35_6 1_555 1_555
H28_6 C35_6 1_555 1_555
C36_6 C33_6 1_555 1_555
H29_6 C36_6 1_555 1_555
H30_8 C36_6 1_555 1_555
C37_6 N2_6 1_555 1_555
H31_6 C37_6 1_555 1_555
H32_6 C37_6 1_555 1_555
H33_8 C37_6 1_555 1_555
C6_8 C7_8 1_555 1_555
C23_8 C24_8 1_555 1_555
C35_6 C36_6 1_555 1_555
O11_4 C8_8 1_555 1_555
O12_3 C8_8 1_555 1_555
C8_8 C9_8 1_555 1_555
C9_8 C10_8 1_555 1_555
C10_8 H5_8 1_555 1_555
C11_8 C10_8 1_555 1_555
H6_8 C11_8 1_555 1_555
C12_8 C11_8 1_555 1_555
C13_8 C12_8 1_555 1_555
H7_8 C13_8 1_555 1_555
C14_8 C9_8 1_555 1_555
H8_8 C14_8 1_555 1_555
O13_2 C15_8 1_555 1_555
O14_2 C15_8 1_555 1_555
C15_8 C16_8 1_555 1_555
C20_8 C19_8 1_555 1_555
H11_8 C20_8 1_555 1_555
C21_8 C16_8 1_555 1_555
H12_8 C21_8 1_555 1_555
C22_8 C19_8 1_555 1_555
H14_8 C25_8 1_555 1_555
C26_8 C12_8 1_555 1_555
C27_8 C22_8 1_555 1_555
H15_8 C27_8 1_555 1_555
C13_8 C14_8 1_555 1_555
C20_8 C21_8 1_555 1_555
C25_8 C26_8 1_555 1_555
C26_8 C27_8 1_555 1_555
H22_7 C32_7 1_555 1_555
H23_7 C32_7 1_555 1_555
C33_7 O8_7 1_555 1_555
N2_7 C33_7 1_555 1_555
C34_7 N2_7 1_555 1_555
H25_7 C34_7 1_555 1_555
C35_7 C34_7 1_555 1_555
H28_7 C35_7 1_555 1_555
C36_7 C33_7 1_555 1_555
H29_7 C36_7 1_555 1_555
C37_7 N2_7 1_555 1_555
H31_7 C37_7 1_555 1_555
H32_7 C37_7 1_555 1_555
C35_7 C36_7 1_555 1_555
H16_5 C29_5 1_555 1_555
H17_5 C29_5 1_555 1_555
C30_5 C29_5 1_555 1_555
H18_5 C30_5 1_555 1_555
H19_5 C30_5 1_555 1_555
H20_5 C31_5 1_555 1_555
H21_5 C31_5 1_555 1_555
C30_5 C31_5 1_555 1_555
H16_6 C29_6 1_555 1_555
H17_6 C29_6 1_555 1_555
C30_6 C29_6 1_555 1_555
H18_6 C30_6 1_555 1_555
H19_6 C30_6 1_555 1_555
H20_6 C31_6 1_555 1_555
H21_6 C31_6 1_555 1_555
C30_6 C31_6 1_555 1_555
H22_8 C32_8 1_555 1_555
H23_8 C32_8 1_555 1_555
C33_8 O8_8 1_555 1_555
N2_8 C33_8 1_555 1_555
C34_8 N2_8 1_555 1_555
H25_8 C34_8 1_555 1_555
C35_8 C34_8 1_555 1_555
H28_8 C35_8 1_555 1_555
C36_8 C33_8 1_555 1_555
H29_8 C36_8 1_555 1_555
C37_8 N2_8 1_555 1_555
H31_8 C37_8 1_555 1_555
H32_8 C37_8 1_555 1_555
C35_8 C36_8 1_555 1_555
H16_7 C29_7 1_555 1_555
H17_7 C29_7 1_555 1_555
C30_7 C29_7 1_555 1_555
H18_7 C30_7 1_555 1_555
H19_7 C30_7 1_555 1_555
H20_7 C31_7 1_555 1_555
H21_7 C31_7 1_555 1_555
C30_7 C31_7 1_555 1_555
H16_8 C29_8 1_555 1_555
H17_8 C29_8 1_555 1_555
C30_8 C29_8 1_555 1_555
H18_8 C30_8 1_555 1_555
H19_8 C30_8 1_555 1_555
H20_8 C31_8 1_555 1_555
H21_8 C31_8 1_555 1_555
C30_8 C31_8 1_555 1_555

#END
