
###############################################################################
#
# This file contains modified crystal structure data generated from the
# MOF subset of the Cambridge Structural Database (CSD) v543 
# hosted by the Cambridge Crystallographic Data Centre (CCDC).
#
# This work is licensed under the Creative Commons
# Attribution-NonCommercial-ShareAlike 4.0 International License.
# To view a copy of this license, visit
# http://creativecommons.org/licenses/by-nc-sa/4.0/
# or send a letter to
# Creative Commons, PO Box 1866, Mountain View, CA 94042, USA.
#
# CIF created using the CSD Python API on 29 September 2022
# The structure has been converted into the P1 space group
# The structure has a 3D framework
# The original CSD entry TOYHOH is in the hexagonal crystal system
# The framework has been calculated to contain at least 10.0% void space
# The void calculation uses a probe of radius 1.32A, grid spacing 0.4
#
###############################################################################

data_TOYHOH
_chemical_formula_moiety         '(C186 H104 N6 O35 Ti12)n'
_symmetry_cell_setting           triclinic
_symmetry_space_group_name_H-M   'P 1'
_symmetry_Int_Tables_number      1
_space_group_name_Hall           'P 1'
loop_
_symmetry_equiv_pos_site_id
_symmetry_equiv_pos_as_xyz
1 x,y,z
_cell_length_a                   24.6300
_cell_length_b                   24.6300
_cell_length_c                   11.7580
_cell_angle_alpha                90
_cell_angle_beta                 90
_cell_angle_gamma                120
_cell_volume                     6177.22
loop_
_atom_site_label
_atom_site_type_symbol
_atom_site_fract_x
_atom_site_fract_y
_atom_site_fract_z
_atom_site_U_iso_or_equiv
_atom_site_thermal_displace_type
O10 O 0.00000 0.06949 0.42714 0.0000 Uiso
Ti3 Ti 0.00000 0.08167 0.60621 0.0000 Uiso
O14 O 0.05700 0.17541 0.57128 0.0000 Uiso
O16 O 0.05047 0.11680 0.75000 0.0000 Uiso
O19 O 0.06949 0.06949 0.57286 0.0000 Uiso
O22 O -0.00000 0.93051 0.57286 0.0000 Uiso
Ti4 Ti 0.08167 0.08167 0.39379 0.0000 Uiso
Ti7 Ti -0.00000 0.91833 0.39379 0.0000 Uiso
O21 O 0.93051 0.00000 0.57286 0.0000 Uiso
Ti6 Ti 0.91833 -0.00000 0.39379 0.0000 Uiso
O1 O 0.17541 0.11841 0.42872 0.0000 Uiso
C1 C 0.36837 0.20933 0.41111 0.0000 Uiso
C2 C 0.30354 0.17766 0.41169 0.0000 Uiso
C3 C 0.56832 0.32392 0.43856 0.0000 Uiso
C4 C 0.50354 0.29182 0.44037 0.0000 Uiso
H1 H 0.39383 0.24024 0.34038 0.0000 Uiso
H2 H 0.27657 0.18377 0.34448 0.0000 Uiso
H3 H 0.59436 0.36777 0.39164 0.0000 Uiso
H4 H 0.47845 0.31137 0.39550 0.0000 Uiso
O2 O 0.11680 0.06633 0.25000 0.0000 Uiso
H5 H 0.14111 0.04526 0.25000 0.0000 Uiso
C5 C 0.60101 0.30051 0.50000 0.0000 Uiso
C6 C 0.46996 0.23498 0.50000 0.0000 Uiso
C7 C 0.40160 0.20080 0.50000 0.0000 Uiso
C8 C 0.27136 0.13568 0.50000 0.0000 Uiso
C9 C 0.20239 0.10120 0.50000 0.0000 Uiso
N1 N 0.66667 0.33333 0.50000 0.0000 Uiso
O4 O 0.88159 0.05700 0.42872 0.0000 Uiso
C10 C 0.79067 0.15904 0.41111 0.0000 Uiso
C11 C 0.82234 0.12588 0.41169 0.0000 Uiso
C12 C 0.67608 0.24440 0.43856 0.0000 Uiso
C13 C 0.70818 0.21172 0.44037 0.0000 Uiso
H6 H 0.75976 0.15359 0.34038 0.0000 Uiso
H7 H 0.81623 0.09280 0.34448 0.0000 Uiso
H8 H 0.63223 0.22659 0.39164 0.0000 Uiso
H9 H 0.68863 0.16708 0.39550 0.0000 Uiso
C14 C 0.69949 0.30050 0.50000 0.0000 Uiso
C15 C 0.76502 0.23498 0.50000 0.0000 Uiso
C16 C 0.79920 0.20080 0.50000 0.0000 Uiso
C17 C 0.86432 0.13568 0.50000 0.0000 Uiso
C18 C 0.89880 0.10119 0.50000 0.0000 Uiso
O5 O 0.94300 0.82459 0.42872 0.0000 Uiso
C19 C 0.84096 0.63163 0.41111 0.0000 Uiso
C20 C 0.87412 0.69646 0.41169 0.0000 Uiso
C21 C 0.75560 0.43168 0.43856 0.0000 Uiso
C22 C 0.78828 0.49646 0.44037 0.0000 Uiso
H10 H 0.84641 0.60617 0.34038 0.0000 Uiso
H11 H 0.90720 0.72343 0.34448 0.0000 Uiso
H12 H 0.77341 0.40564 0.39164 0.0000 Uiso
H13 H 0.83292 0.52155 0.39550 0.0000 Uiso
C23 C 0.69950 0.39899 0.50000 0.0000 Uiso
C24 C 0.76502 0.53004 0.50000 0.0000 Uiso
C25 C 0.79920 0.59840 0.50000 0.0000 Uiso
C26 C 0.86432 0.72864 0.50000 0.0000 Uiso
C27 C 0.89881 0.79761 0.50000 0.0000 Uiso
O6 O 0.88159 0.82459 0.57128 0.0000 Uiso
C28 C 0.79067 0.63163 0.58889 0.0000 Uiso
C29 C 0.82234 0.69646 0.58831 0.0000 Uiso
C30 C 0.67608 0.43168 0.56144 0.0000 Uiso
C31 C 0.70818 0.49646 0.55963 0.0000 Uiso
H14 H 0.75976 0.60617 0.65962 0.0000 Uiso
H15 H 0.81623 0.72343 0.65552 0.0000 Uiso
H16 H 0.63223 0.40564 0.60836 0.0000 Uiso
H17 H 0.68863 0.52155 0.60450 0.0000 Uiso
O7 O 0.94300 0.11841 0.57128 0.0000 Uiso
C32 C 0.84096 0.20933 0.58889 0.0000 Uiso
C33 C 0.87412 0.17766 0.58831 0.0000 Uiso
C34 C 0.75560 0.32392 0.56144 0.0000 Uiso
C35 C 0.78828 0.29182 0.55963 0.0000 Uiso
H18 H 0.84641 0.24024 0.65962 0.0000 Uiso
H19 H 0.90720 0.18377 0.65552 0.0000 Uiso
H20 H 0.77341 0.36777 0.60836 0.0000 Uiso
H21 H 0.83292 0.31137 0.60450 0.0000 Uiso
O8 O 0.17541 0.05700 0.57128 0.0000 Uiso
C36 C 0.36837 0.15904 0.58889 0.0000 Uiso
C37 C 0.30354 0.12588 0.58831 0.0000 Uiso
C38 C 0.56832 0.24440 0.56144 0.0000 Uiso
C39 C 0.50354 0.21172 0.55963 0.0000 Uiso
H22 H 0.39383 0.15359 0.65962 0.0000 Uiso
H23 H 0.27657 0.09280 0.65552 0.0000 Uiso
H24 H 0.59436 0.22659 0.60836 0.0000 Uiso
H25 H 0.47845 0.16708 0.60450 0.0000 Uiso
O9 O 0.93051 0.93051 0.42714 0.0000 Uiso
Ti2 Ti 0.91833 0.91833 0.60621 0.0000 Uiso
O10_2 O 1.00000 0.06949 0.42714 0.0000 Uiso
Ti3_2 Ti 1.00000 0.08167 0.60621 0.0000 Uiso
O11 O 0.06633 0.11680 0.25000 0.0000 Uiso
H26 H 0.04526 0.14111 0.25000 0.0000 Uiso
O12 O 0.88320 0.93367 0.75000 0.0000 Uiso
H27 H 0.85889 0.95474 0.75000 0.0000 Uiso
O13 O 0.82459 0.88159 0.57128 0.0000 Uiso
O15 O 0.11841 0.17541 0.42872 0.0000 Uiso
O17 O 0.93367 0.88320 0.75000 0.0000 Uiso
O18 O 0.94953 0.06633 0.75000 0.0000 Uiso
O21_2 O 0.93051 1.00000 0.57286 0.0000 Uiso
O22_2 O 1.00000 0.93051 0.57286 0.0000 Uiso
O24 O 0.06949 0.00000 0.42714 0.0000 Uiso
Ti6_2 Ti 0.91833 1.00000 0.39379 0.0000 Uiso
Ti7_2 Ti 1.00000 0.91833 0.39379 0.0000 Uiso
Ti8 Ti 0.91833 0.91833 0.89379 0.0000 Uiso
Ti9 Ti 0.08167 0.08167 0.10621 0.0000 Uiso
Ti11 Ti 0.08167 0.00000 0.60621 0.0000 Uiso
O24_2 O 0.06949 1.00000 0.42714 0.0000 Uiso
Ti11_2 Ti 0.08167 1.00000 0.60621 0.0000 Uiso
O2_2 O 0.93367 0.05047 0.25000 0.0000 Uiso
H5_2 H 0.95474 0.09585 0.25000 0.0000 Uiso
O17_2 O 0.11680 0.05047 0.75000 0.0000 Uiso
Ti8_2 Ti 0.08167 0.00000 0.89379 0.0000 Uiso
Ti9_2 Ti 0.91833 -0.00000 0.10621 0.0000 Uiso
O11_2 O 0.88320 0.94953 0.25000 0.0000 Uiso
H26_2 H 0.85889 0.90415 0.25000 0.0000 Uiso
O12_2 O 0.06633 0.94953 0.75000 0.0000 Uiso
H27_2 H 0.04526 0.90415 0.75000 0.0000 Uiso
O13_2 O 0.11841 0.94300 0.57128 0.0000 Uiso
O15_2 O 0.82459 0.94300 0.42872 0.0000 Uiso
Ti8_3 Ti 0.08167 1.00000 0.89379 0.0000 Uiso
Ti9_3 Ti 0.91833 1.00000 0.10621 0.0000 Uiso
O11_3 O 0.05047 0.93367 0.25000 0.0000 Uiso
H26_3 H 0.09585 0.95474 0.25000 0.0000 Uiso
H27_3 H 0.09585 0.14111 0.75000 0.0000 Uiso
O15_3 O 0.05700 0.88159 0.42872 0.0000 Uiso
Ti8_4 Ti -0.00000 0.08167 0.89379 0.0000 Uiso
Ti9_4 Ti -0.00000 0.91833 0.10621 0.0000 Uiso
O2_3 O 0.94953 0.88320 0.25000 0.0000 Uiso
H5_3 H 0.90415 0.85889 0.25000 0.0000 Uiso
Ti8_5 Ti 1.00000 0.08167 0.89379 0.0000 Uiso
Ti9_5 Ti 1.00000 0.91833 0.10621 0.0000 Uiso
O23 O -0.00000 0.93051 0.92714 0.0000 Uiso
O20 O 0.06949 0.00000 0.07286 0.0000 Uiso
O24_3 O 0.93051 0.00000 0.92714 0.0000 Uiso
O3 O 0.93051 0.93051 0.07286 0.0000 Uiso
C5_2 C 0.39899 0.69949 0.00000 0.0000 Uiso
C6_2 C 0.53004 0.76502 0.00000 0.0000 Uiso
C7_2 C 0.59840 0.79920 0.00000 0.0000 Uiso
C8_2 C 0.72864 0.86432 0.00000 0.0000 Uiso
C9_2 C 0.79761 0.89880 0.00000 0.0000 Uiso
N1_2 N 0.33333 0.66667 0.00000 0.0000 Uiso
C14_2 C 0.30051 0.69950 0.00000 0.0000 Uiso
C15_2 C 0.23498 0.76502 0.00000 0.0000 Uiso
C16_2 C 0.20080 0.79920 0.00000 0.0000 Uiso
C17_2 C 0.13568 0.86432 0.00000 0.0000 Uiso
C18_2 C 0.10120 0.89881 0.00000 0.0000 Uiso
C23_2 C 0.30050 0.60101 0.00000 0.0000 Uiso
C24_2 C 0.23498 0.46996 0.00000 0.0000 Uiso
C25_2 C 0.20080 0.40160 0.00000 0.0000 Uiso
C26_2 C 0.13568 0.27136 0.00000 0.0000 Uiso
C27_2 C 0.10119 0.20239 0.00000 0.0000 Uiso
O6_2 O 0.11841 0.17541 0.07128 0.0000 Uiso
C28_2 C 0.20933 0.36837 0.08889 0.0000 Uiso
C29_2 C 0.17766 0.30354 0.08831 0.0000 Uiso
C30_2 C 0.32392 0.56832 0.06144 0.0000 Uiso
C31_2 C 0.29182 0.50354 0.05963 0.0000 Uiso
H14_2 H 0.24024 0.39383 0.15962 0.0000 Uiso
H15_2 H 0.18377 0.27657 0.15552 0.0000 Uiso
H16_2 H 0.36777 0.59436 0.10836 0.0000 Uiso
H17_2 H 0.31137 0.47845 0.10450 0.0000 Uiso
O7_2 O 0.05700 0.88159 0.07128 0.0000 Uiso
C32_2 C 0.15904 0.79067 0.08889 0.0000 Uiso
C33_2 C 0.12588 0.82234 0.08831 0.0000 Uiso
C34_2 C 0.24440 0.67608 0.06144 0.0000 Uiso
C35_2 C 0.21172 0.70818 0.05963 0.0000 Uiso
H18_2 H 0.15359 0.75976 0.15962 0.0000 Uiso
H19_2 H 0.09280 0.81623 0.15552 0.0000 Uiso
H20_2 H 0.22659 0.63223 0.10836 0.0000 Uiso
H21_2 H 0.16708 0.68863 0.10450 0.0000 Uiso
O8_2 O 0.82459 0.94300 0.07128 0.0000 Uiso
C36_2 C 0.63163 0.84096 0.08889 0.0000 Uiso
C37_2 C 0.69646 0.87412 0.08831 0.0000 Uiso
C38_2 C 0.43168 0.75560 0.06144 0.0000 Uiso
C39_2 C 0.49646 0.78828 0.05963 0.0000 Uiso
H22_2 H 0.60617 0.84641 0.15962 0.0000 Uiso
H23_2 H 0.72343 0.90720 0.15552 0.0000 Uiso
H24_2 H 0.40564 0.77341 0.10836 0.0000 Uiso
H25_2 H 0.52155 0.83292 0.10450 0.0000 Uiso
O13_3 O 0.17541 0.11841 0.07128 0.0000 Uiso
O20_2 O 0.06949 1.00000 0.07286 0.0000 Uiso
O22_3 O -0.00000 0.06949 0.07286 0.0000 Uiso
O1_2 O 0.82459 0.88159 0.92872 0.0000 Uiso
C1_2 C 0.63163 0.79067 0.91111 0.0000 Uiso
C2_2 C 0.69646 0.82234 0.91169 0.0000 Uiso
C3_2 C 0.43168 0.67608 0.93856 0.0000 Uiso
C4_2 C 0.49646 0.70818 0.94037 0.0000 Uiso
H1_2 H 0.60617 0.75976 0.84038 0.0000 Uiso
H2_2 H 0.72343 0.81623 0.84448 0.0000 Uiso
H3_2 H 0.40564 0.63223 0.89164 0.0000 Uiso
H4_2 H 0.52155 0.68863 0.89550 0.0000 Uiso
C5_3 C 0.39899 0.69949 1.00000 0.0000 Uiso
C6_3 C 0.53004 0.76502 1.00000 0.0000 Uiso
C7_3 C 0.59840 0.79920 1.00000 0.0000 Uiso
C8_3 C 0.72864 0.86432 1.00000 0.0000 Uiso
C9_3 C 0.79761 0.89880 1.00000 0.0000 Uiso
N1_3 N 0.33333 0.66667 1.00000 0.0000 Uiso
O4_2 O 0.11841 0.94300 0.92872 0.0000 Uiso
C10_2 C 0.20933 0.84096 0.91111 0.0000 Uiso
C11_2 C 0.17766 0.87412 0.91169 0.0000 Uiso
C12_2 C 0.32392 0.75560 0.93856 0.0000 Uiso
C13_2 C 0.29182 0.78828 0.94037 0.0000 Uiso
H6_2 H 0.24024 0.84641 0.84038 0.0000 Uiso
H7_2 H 0.18377 0.90720 0.84448 0.0000 Uiso
H8_2 H 0.36777 0.77341 0.89164 0.0000 Uiso
H9_2 H 0.31137 0.83292 0.89550 0.0000 Uiso
C14_3 C 0.30051 0.69950 1.00000 0.0000 Uiso
C15_3 C 0.23498 0.76502 1.00000 0.0000 Uiso
C16_3 C 0.20080 0.79920 1.00000 0.0000 Uiso
C17_3 C 0.13568 0.86432 1.00000 0.0000 Uiso
C18_3 C 0.10120 0.89881 1.00000 0.0000 Uiso
O5_2 O 0.05700 0.17541 0.92872 0.0000 Uiso
C19_2 C 0.15904 0.36837 0.91111 0.0000 Uiso
C20_2 C 0.12588 0.30354 0.91169 0.0000 Uiso
C21_2 C 0.24440 0.56832 0.93856 0.0000 Uiso
C22_2 C 0.21172 0.50354 0.94037 0.0000 Uiso
H10_2 H 0.15359 0.39383 0.84038 0.0000 Uiso
H11_2 H 0.09280 0.27657 0.84448 0.0000 Uiso
H12_2 H 0.22659 0.59436 0.89164 0.0000 Uiso
H13_2 H 0.16708 0.47845 0.89550 0.0000 Uiso
C23_3 C 0.30050 0.60101 1.00000 0.0000 Uiso
C24_3 C 0.23498 0.46996 1.00000 0.0000 Uiso
C25_3 C 0.20080 0.40160 1.00000 0.0000 Uiso
C26_3 C 0.13568 0.27136 1.00000 0.0000 Uiso
C27_3 C 0.10119 0.20239 1.00000 0.0000 Uiso
O9_2 O 0.06949 0.06949 0.92714 0.0000 Uiso
H26_4 H 0.95474 0.85889 0.75000 0.0000 Uiso
O15_4 O 0.88159 0.82459 0.92872 0.0000 Uiso
O23_2 O 1.00000 0.93051 0.92714 0.0000 Uiso
O24_4 O 0.93051 1.00000 0.92714 0.0000 Uiso
O14_2 O 0.94300 0.82459 0.07128 0.0000 Uiso
O22_4 O 1.00000 0.06949 0.07286 0.0000 Uiso
O13_4 O 0.88159 0.05700 0.07128 0.0000 Uiso
H26_5 H 0.14111 0.09585 0.75000 0.0000 Uiso
O15_5 O 0.17541 0.05700 0.92872 0.0000 Uiso
H26_6 H 0.90415 0.04526 0.75000 0.0000 Uiso
O15_6 O 0.94300 0.11841 0.92872 0.0000 Uiso
C1_3 C 0.63163 0.79067 0.58889 0.0000 Uiso
C2_3 C 0.69646 0.82234 0.58831 0.0000 Uiso
C3_3 C 0.43168 0.67608 0.56144 0.0000 Uiso
C4_3 C 0.49646 0.70818 0.55963 0.0000 Uiso
H1_3 H 0.60617 0.75976 0.65962 0.0000 Uiso
H2_3 H 0.72343 0.81623 0.65552 0.0000 Uiso
H3_3 H 0.40564 0.63223 0.60836 0.0000 Uiso
H4_3 H 0.52155 0.68863 0.60450 0.0000 Uiso
C5_4 C 0.39899 0.69949 0.50000 0.0000 Uiso
C6_4 C 0.53004 0.76502 0.50000 0.0000 Uiso
C7_4 C 0.59840 0.79920 0.50000 0.0000 Uiso
C8_4 C 0.72864 0.86432 0.50000 0.0000 Uiso
C9_4 C 0.79761 0.89880 0.50000 0.0000 Uiso
N1_4 N 0.33333 0.66667 0.50000 0.0000 Uiso
C10_3 C 0.20933 0.84096 0.58889 0.0000 Uiso
C11_3 C 0.17766 0.87412 0.58831 0.0000 Uiso
C12_3 C 0.32392 0.75560 0.56144 0.0000 Uiso
C13_3 C 0.29182 0.78828 0.55963 0.0000 Uiso
H6_3 H 0.24024 0.84641 0.65962 0.0000 Uiso
H7_3 H 0.18377 0.90720 0.65552 0.0000 Uiso
H8_3 H 0.36777 0.77341 0.60836 0.0000 Uiso
H9_3 H 0.31137 0.83292 0.60450 0.0000 Uiso
C14_4 C 0.30051 0.69950 0.50000 0.0000 Uiso
C15_4 C 0.23498 0.76502 0.50000 0.0000 Uiso
C16_4 C 0.20080 0.79920 0.50000 0.0000 Uiso
C17_4 C 0.13568 0.86432 0.50000 0.0000 Uiso
C18_4 C 0.10120 0.89881 0.50000 0.0000 Uiso
C19_3 C 0.15904 0.36837 0.58889 0.0000 Uiso
C20_3 C 0.12588 0.30354 0.58831 0.0000 Uiso
C21_3 C 0.24440 0.56832 0.56144 0.0000 Uiso
C22_3 C 0.21172 0.50354 0.55963 0.0000 Uiso
H10_3 H 0.15359 0.39383 0.65962 0.0000 Uiso
H11_3 H 0.09280 0.27657 0.65552 0.0000 Uiso
H12_3 H 0.22659 0.59436 0.60836 0.0000 Uiso
H13_3 H 0.16708 0.47845 0.60450 0.0000 Uiso
C23_4 C 0.30050 0.60101 0.50000 0.0000 Uiso
C24_4 C 0.23498 0.46996 0.50000 0.0000 Uiso
C25_4 C 0.20080 0.40160 0.50000 0.0000 Uiso
C26_4 C 0.13568 0.27136 0.50000 0.0000 Uiso
C27_4 C 0.10119 0.20239 0.50000 0.0000 Uiso
C28_3 C 0.20933 0.36837 0.41111 0.0000 Uiso
C29_3 C 0.17766 0.30354 0.41169 0.0000 Uiso
C30_3 C 0.32392 0.56832 0.43856 0.0000 Uiso
C31_3 C 0.29182 0.50354 0.44037 0.0000 Uiso
H14_3 H 0.24024 0.39383 0.34038 0.0000 Uiso
H15_3 H 0.18377 0.27657 0.34448 0.0000 Uiso
H16_3 H 0.36777 0.59436 0.39164 0.0000 Uiso
H17_3 H 0.31137 0.47845 0.39550 0.0000 Uiso
C32_3 C 0.15904 0.79067 0.41111 0.0000 Uiso
C33_3 C 0.12588 0.82234 0.41169 0.0000 Uiso
C34_3 C 0.24440 0.67608 0.43856 0.0000 Uiso
C35_3 C 0.21172 0.70818 0.44037 0.0000 Uiso
H18_3 H 0.15359 0.75976 0.34038 0.0000 Uiso
H19_3 H 0.09280 0.81623 0.34448 0.0000 Uiso
H20_3 H 0.22659 0.63223 0.39164 0.0000 Uiso
H21_3 H 0.16708 0.68863 0.39550 0.0000 Uiso
C36_3 C 0.63163 0.84096 0.41111 0.0000 Uiso
C37_3 C 0.69646 0.87412 0.41169 0.0000 Uiso
C38_3 C 0.43168 0.75560 0.43856 0.0000 Uiso
C39_3 C 0.49646 0.78828 0.44037 0.0000 Uiso
H22_3 H 0.60617 0.84641 0.34038 0.0000 Uiso
H23_3 H 0.72343 0.90720 0.34448 0.0000 Uiso
H24_3 H 0.40564 0.77341 0.39164 0.0000 Uiso
H25_3 H 0.52155 0.83292 0.39550 0.0000 Uiso
C1_4 C 0.36837 0.20933 0.08889 0.0000 Uiso
C2_4 C 0.30354 0.17766 0.08831 0.0000 Uiso
C3_4 C 0.56832 0.32392 0.06144 0.0000 Uiso
C4_4 C 0.50354 0.29182 0.05963 0.0000 Uiso
H1_4 H 0.39383 0.24024 0.15962 0.0000 Uiso
H2_4 H 0.27657 0.18377 0.15552 0.0000 Uiso
H3_4 H 0.59436 0.36777 0.10836 0.0000 Uiso
H4_4 H 0.47845 0.31137 0.10450 0.0000 Uiso
C5_5 C 0.60101 0.30051 0.00000 0.0000 Uiso
C6_5 C 0.46996 0.23498 0.00000 0.0000 Uiso
C7_5 C 0.40160 0.20080 0.00000 0.0000 Uiso
C8_5 C 0.27136 0.13568 0.00000 0.0000 Uiso
C9_5 C 0.20239 0.10120 0.00000 0.0000 Uiso
N1_5 N 0.66667 0.33333 0.00000 0.0000 Uiso
C10_4 C 0.79067 0.15904 0.08889 0.0000 Uiso
C11_4 C 0.82234 0.12588 0.08831 0.0000 Uiso
C12_4 C 0.67608 0.24440 0.06144 0.0000 Uiso
C13_4 C 0.70818 0.21172 0.05963 0.0000 Uiso
H6_4 H 0.75976 0.15359 0.15962 0.0000 Uiso
H7_4 H 0.81623 0.09280 0.15552 0.0000 Uiso
H8_4 H 0.63223 0.22659 0.10836 0.0000 Uiso
H9_4 H 0.68863 0.16708 0.10450 0.0000 Uiso
C14_5 C 0.69949 0.30050 0.00000 0.0000 Uiso
C15_5 C 0.76502 0.23498 0.00000 0.0000 Uiso
C16_5 C 0.79920 0.20080 0.00000 0.0000 Uiso
C17_5 C 0.86432 0.13568 0.00000 0.0000 Uiso
C18_5 C 0.89880 0.10119 0.00000 0.0000 Uiso
C19_4 C 0.84096 0.63163 0.08889 0.0000 Uiso
C20_4 C 0.87412 0.69646 0.08831 0.0000 Uiso
C21_4 C 0.75560 0.43168 0.06144 0.0000 Uiso
C22_4 C 0.78828 0.49646 0.05963 0.0000 Uiso
H10_4 H 0.84641 0.60617 0.15962 0.0000 Uiso
H11_4 H 0.90720 0.72343 0.15552 0.0000 Uiso
H12_4 H 0.77341 0.40564 0.10836 0.0000 Uiso
H13_4 H 0.83292 0.52155 0.10450 0.0000 Uiso
C23_5 C 0.69950 0.39899 0.00000 0.0000 Uiso
C24_5 C 0.76502 0.53004 0.00000 0.0000 Uiso
C25_5 C 0.79920 0.59840 0.00000 0.0000 Uiso
C26_5 C 0.86432 0.72864 0.00000 0.0000 Uiso
C27_5 C 0.89881 0.79761 0.00000 0.0000 Uiso
C5_6 C 0.60101 0.30051 1.00000 0.0000 Uiso
C6_6 C 0.46996 0.23498 1.00000 0.0000 Uiso
C7_6 C 0.40160 0.20080 1.00000 0.0000 Uiso
C8_6 C 0.27136 0.13568 1.00000 0.0000 Uiso
C9_6 C 0.20239 0.10120 1.00000 0.0000 Uiso
N1_6 N 0.66667 0.33333 1.00000 0.0000 Uiso
C14_6 C 0.69949 0.30050 1.00000 0.0000 Uiso
C15_6 C 0.76502 0.23498 1.00000 0.0000 Uiso
C16_6 C 0.79920 0.20080 1.00000 0.0000 Uiso
C17_6 C 0.86432 0.13568 1.00000 0.0000 Uiso
C18_6 C 0.89880 0.10119 1.00000 0.0000 Uiso
C23_6 C 0.69950 0.39899 1.00000 0.0000 Uiso
C24_6 C 0.76502 0.53004 1.00000 0.0000 Uiso
C25_6 C 0.79920 0.59840 1.00000 0.0000 Uiso
C26_6 C 0.86432 0.72864 1.00000 0.0000 Uiso
C27_6 C 0.89881 0.79761 1.00000 0.0000 Uiso
C28_4 C 0.79067 0.63163 0.91111 0.0000 Uiso
C29_4 C 0.82234 0.69646 0.91169 0.0000 Uiso
C30_4 C 0.67608 0.43168 0.93856 0.0000 Uiso
C31_4 C 0.70818 0.49646 0.94037 0.0000 Uiso
H14_4 H 0.75976 0.60617 0.84038 0.0000 Uiso
H15_4 H 0.81623 0.72343 0.84448 0.0000 Uiso
H16_4 H 0.63223 0.40564 0.89164 0.0000 Uiso
H17_4 H 0.68863 0.52155 0.89550 0.0000 Uiso
C32_4 C 0.84096 0.20933 0.91111 0.0000 Uiso
C33_4 C 0.87412 0.17766 0.91169 0.0000 Uiso
C34_4 C 0.75560 0.32392 0.93856 0.0000 Uiso
C35_4 C 0.78828 0.29182 0.94037 0.0000 Uiso
H18_4 H 0.84641 0.24024 0.84038 0.0000 Uiso
H19_4 H 0.90720 0.18377 0.84448 0.0000 Uiso
H20_4 H 0.77341 0.36777 0.89164 0.0000 Uiso
H21_4 H 0.83292 0.31137 0.89550 0.0000 Uiso
C36_4 C 0.36837 0.15904 0.91111 0.0000 Uiso
C37_4 C 0.30354 0.12588 0.91169 0.0000 Uiso
C38_4 C 0.56832 0.24440 0.93856 0.0000 Uiso
C39_4 C 0.50354 0.21172 0.94037 0.0000 Uiso
H22_4 H 0.39383 0.15359 0.84038 0.0000 Uiso
H23_4 H 0.27657 0.09280 0.84448 0.0000 Uiso
H24_4 H 0.59436 0.22659 0.89164 0.0000 Uiso
H25_4 H 0.47845 0.16708 0.89550 0.0000 Uiso
loop_
_geom_bond_atom_site_label_1
_geom_bond_atom_site_label_2
_geom_bond_site_symmetry_1
_geom_bond_site_symmetry_2
O10 Ti3 1_555 1_555
O14 Ti3 1_555 1_555
O16 Ti3 1_555 1_555
O19 Ti3 1_555 1_555
Ti4 O10 1_555 1_555
O19 Ti4 1_555 1_555
O22 Ti7 1_555 1_555
O21 Ti6 1_555 1_555
O1 C9 1_555 1_555
C1 C2 1_555 1_555
C2 H2 1_555 1_555
C3 C4 1_555 1_555
C4 H4 1_555 1_555
H1 C1 1_555 1_555
H3 C3 1_555 1_555
O2 H5 1_555 1_555
C5 C3 1_555 1_555
C6 C4 1_555 1_555
C7 C1 1_555 1_555
C8 C2 1_555 1_555
C9 C8 1_555 1_555
Ti4 O1 1_555 1_555
N1 C5 1_555 1_555
O4 C18 1_555 1_555
C10 C11 1_555 1_555
C11 H7 1_555 1_555
C12 C13 1_555 1_555
C13 H9 1_555 1_555
H6 C10 1_555 1_555
H8 C12 1_555 1_555
C14 N1 1_555 1_555
C15 C13 1_555 1_555
C16 C10 1_555 1_555
C17 C11 1_555 1_555
C18 C17 1_555 1_555
O5 C27 1_555 1_555
C19 C20 1_555 1_555
C20 H11 1_555 1_555
C21 C22 1_555 1_555
C22 H13 1_555 1_555
H10 C19 1_555 1_555
H12 C21 1_555 1_555
C23 N1 1_555 1_555
C24 C22 1_555 1_555
C25 C19 1_555 1_555
C26 C20 1_555 1_555
C27 C26 1_555 1_555
O6 C27 1_555 1_555
C28 C25 1_555 1_555
C29 C26 1_555 1_555
C30 C23 1_555 1_555
C31 C24 1_555 1_555
H14 C28 1_555 1_555
H15 C29 1_555 1_555
H16 C30 1_555 1_555
H17 C31 1_555 1_555
O7 C18 1_555 1_555
C32 C16 1_555 1_555
C33 C17 1_555 1_555
C34 C14 1_555 1_555
C35 C15 1_555 1_555
H18 C32 1_555 1_555
H19 C33 1_555 1_555
H20 C34 1_555 1_555
H21 C35 1_555 1_555
O8 C9 1_555 1_555
C36 C7 1_555 1_555
C37 C8 1_555 1_555
C38 C5 1_555 1_555
C39 C6 1_555 1_555
H22 C36 1_555 1_555
H23 C37 1_555 1_555
H24 C38 1_555 1_555
H25 C39 1_555 1_555
O9 Ti2 1_555 1_555
Ti2 O6 1_555 1_555
O10_2 Ti3_2 1_555 1_555
Ti3_2 O7 1_555 1_555
O11 Ti4 1_555 1_555
H26 O11 1_555 1_555
O12 Ti2 1_555 1_555
H27 O12 1_555 1_555
O13 Ti2 1_555 1_555
O15 Ti4 1_555 1_555
O17 Ti2 1_555 1_555
O18 Ti3_2 1_555 1_555
O21 Ti3_2 1_555 1_555
O21_2 Ti2 1_555 1_555
O22_2 Ti2 1_555 1_555
O24 Ti4 1_555 1_555
Ti6 O4 1_555 1_555
Ti6_2 O9 1_555 1_555
Ti7_2 O5 1_555 1_555
Ti8 O12 1_555 1_555
Ti9 O2 1_555 1_555
Ti11 O19 1_555 1_555
O2 Ti4 1_555 1_555
C6 C7 1_555 1_555
C12 C14 1_555 1_555
C15 C16 1_555 1_555
C21 C23 1_555 1_555
C24 C25 1_555 1_555
C28 C29 1_555 1_555
C30 C31 1_555 1_555
C32 C33 1_555 1_555
C34 C35 1_555 1_555
O8 Ti11 1_555 1_555
C36 C37 1_555 1_555
C38 C39 1_555 1_555
O9 Ti7_2 1_555 1_555
O10_2 Ti6 1_555 1_555
O11 Ti9 1_555 1_555
O17 Ti8 1_555 1_555
O21_2 Ti6_2 1_555 1_555
O22_2 Ti7_2 1_555 1_555
O24 Ti11 1_555 1_555
O24_2 Ti11_2 1_555 1_555
O2_2 H5_2 1_555 1_555
O17_2 Ti11 1_555 1_555
Ti9_2 O2_2 1_555 1_555
O2_2 Ti6 1_555 1_555
O17_2 Ti8_2 1_555 1_555
O11_2 Ti6_2 1_555 1_555
H26_2 O11_2 1_555 1_555
O12_2 Ti11_2 1_555 1_555
H27_2 O12_2 1_555 1_555
O13_2 Ti11_2 1_555 1_555
O15_2 Ti6_2 1_555 1_555
O22 Ti11_2 1_555 1_555
Ti7 O24_2 1_555 1_555
Ti8_3 O12_2 1_555 1_555
O11_2 Ti9_3 1_555 1_555
O11_3 Ti7 1_555 1_555
H26_3 O11_3 1_555 1_555
H27_3 O16 1_555 1_555
O15_3 Ti7 1_555 1_555
Ti8_4 O16 1_555 1_555
O11_3 Ti9_4 1_555 1_555
O2_3 H5_3 1_555 1_555
Ti9_5 O2_3 1_555 1_555
O2_3 Ti7_2 1_555 1_555
O18 Ti8_5 1_555 1_555
C9_2 C8_2 1_555 1_555
N1_2 C5_2 1_555 1_555
C14_2 N1_2 1_555 1_555
C18_2 C17_2 1_555 1_555
C23_2 N1_2 1_555 1_555
C27_2 C26_2 1_555 1_555
O6_2 C27_2 1_555 1_555
C28_2 C25_2 1_555 1_555
C29_2 C26_2 1_555 1_555
C30_2 C23_2 1_555 1_555
C31_2 C24_2 1_555 1_555
H14_2 C28_2 1_555 1_555
H15_2 C29_2 1_555 1_555
H16_2 C30_2 1_555 1_555
H17_2 C31_2 1_555 1_555
O7_2 C18_2 1_555 1_555
C32_2 C16_2 1_555 1_555
C33_2 C17_2 1_555 1_555
C34_2 C14_2 1_555 1_555
C35_2 C15_2 1_555 1_555
H18_2 C32_2 1_555 1_555
H19_2 C33_2 1_555 1_555
H20_2 C34_2 1_555 1_555
H21_2 C35_2 1_555 1_555
O8_2 C9_2 1_555 1_555
C36_2 C7_2 1_555 1_555
C37_2 C8_2 1_555 1_555
C38_2 C5_2 1_555 1_555
C39_2 C6_2 1_555 1_555
H22_2 C36_2 1_555 1_555
H23_2 C37_2 1_555 1_555
H24_2 C38_2 1_555 1_555
H25_2 C39_2 1_555 1_555
Ti9 O6_2 1_555 1_555
Ti9_4 O7_2 1_555 1_555
O13_3 Ti9 1_555 1_555
O20_2 Ti9_4 1_555 1_555
O20 Ti9 1_555 1_555
O22_3 Ti9 1_555 1_555
Ti9_5 O3 1_555 1_555
Ti9_3 O3 1_555 1_555
C6_2 C7_2 1_555 1_555
C15_2 C16_2 1_555 1_555
C24_2 C25_2 1_555 1_555
C28_2 C29_2 1_555 1_555
C30_2 C31_2 1_555 1_555
C32_2 C33_2 1_555 1_555
C34_2 C35_2 1_555 1_555
O8_2 Ti9_3 1_555 1_555
C36_2 C37_2 1_555 1_555
C38_2 C39_2 1_555 1_555
O1_2 C9_3 1_555 1_555
C1_2 C2_2 1_555 1_555
C2_2 H2_2 1_555 1_555
C3_2 C4_2 1_555 1_555
C4_2 H4_2 1_555 1_555
H1_2 C1_2 1_555 1_555
H3_2 C3_2 1_555 1_555
C5_3 C3_2 1_555 1_555
C6_3 C4_2 1_555 1_555
C7_3 C1_2 1_555 1_555
C8_3 C2_2 1_555 1_555
C9_3 C8_3 1_555 1_555
Ti8 O1_2 1_555 1_555
N1_3 C5_3 1_555 1_555
O4_2 C18_3 1_555 1_555
C10_2 C11_2 1_555 1_555
C11_2 H7_2 1_555 1_555
C12_2 C13_2 1_555 1_555
C13_2 H9_2 1_555 1_555
H6_2 C10_2 1_555 1_555
H8_2 C12_2 1_555 1_555
C14_3 N1_3 1_555 1_555
C15_3 C13_2 1_555 1_555
C16_3 C10_2 1_555 1_555
C17_3 C11_2 1_555 1_555
C18_3 C17_3 1_555 1_555
O5_2 C27_3 1_555 1_555
C19_2 C20_2 1_555 1_555
C20_2 H11_2 1_555 1_555
C21_2 C22_2 1_555 1_555
C22_2 H13_2 1_555 1_555
H10_2 C19_2 1_555 1_555
H12_2 C21_2 1_555 1_555
C23_3 N1_3 1_555 1_555
C24_3 C22_2 1_555 1_555
C25_3 C19_2 1_555 1_555
C26_3 C20_2 1_555 1_555
C27_3 C26_3 1_555 1_555
H26_4 O17 1_555 1_555
O15_4 Ti8 1_555 1_555
O23_2 Ti8 1_555 1_555
O24_4 Ti8 1_555 1_555
Ti8_3 O4_2 1_555 1_555
Ti8_2 O9_2 1_555 1_555
Ti8_4 O5_2 1_555 1_555
C6_3 C7_3 1_555 1_555
C12_2 C14_3 1_555 1_555
C15_3 C16_3 1_555 1_555
C21_2 C23_3 1_555 1_555
C24_3 C25_3 1_555 1_555
O9_2 Ti8_4 1_555 1_555
O23 Ti8_3 1_555 1_555
O14_2 Ti9_5 1_555 1_555
O13_4 Ti9_2 1_555 1_555
O22_4 Ti9_2 1_555 1_555
H26_5 O17_2 1_555 1_555
O15_5 Ti8_2 1_555 1_555
Ti8_5 O24_3 1_555 1_555
H26_6 O18 1_555 1_555
O15_6 Ti8_5 1_555 1_555
O13 C9_4 1_555 1_555
C1_3 C2_3 1_555 1_555
C2_3 H2_3 1_555 1_555
C3_3 C4_3 1_555 1_555
C4_3 H4_3 1_555 1_555
H1_3 C1_3 1_555 1_555
H3_3 C3_3 1_555 1_555
C5_4 C3_3 1_555 1_555
C6_4 C4_3 1_555 1_555
C7_4 C1_3 1_555 1_555
C8_4 C2_3 1_555 1_555
C9_4 C8_4 1_555 1_555
N1_4 C5_4 1_555 1_555
O13_2 C18_4 1_555 1_555
C10_3 C11_3 1_555 1_555
C11_3 H7_3 1_555 1_555
C12_3 C13_3 1_555 1_555
C13_3 H9_3 1_555 1_555
H6_3 C10_3 1_555 1_555
H8_3 C12_3 1_555 1_555
C14_4 N1_4 1_555 1_555
C15_4 C13_3 1_555 1_555
C16_4 C10_3 1_555 1_555
C17_4 C11_3 1_555 1_555
C18_4 C17_4 1_555 1_555
O14 C27_4 1_555 1_555
C19_3 C20_3 1_555 1_555
C20_3 H11_3 1_555 1_555
C21_3 C22_3 1_555 1_555
C22_3 H13_3 1_555 1_555
H10_3 C19_3 1_555 1_555
H12_3 C21_3 1_555 1_555
C23_4 N1_4 1_555 1_555
C24_4 C22_3 1_555 1_555
C25_4 C19_3 1_555 1_555
C26_4 C20_3 1_555 1_555
C27_4 C26_4 1_555 1_555
O15 C27_4 1_555 1_555
C28_3 C25_4 1_555 1_555
C29_3 C26_4 1_555 1_555
C30_3 C23_4 1_555 1_555
C31_3 C24_4 1_555 1_555
H14_3 C28_3 1_555 1_555
H15_3 C29_3 1_555 1_555
H16_3 C30_3 1_555 1_555
H17_3 C31_3 1_555 1_555
O15_3 C18_4 1_555 1_555
C32_3 C16_4 1_555 1_555
C33_3 C17_4 1_555 1_555
C34_3 C14_4 1_555 1_555
C35_3 C15_4 1_555 1_555
H18_3 C32_3 1_555 1_555
H19_3 C33_3 1_555 1_555
H20_3 C34_3 1_555 1_555
H21_3 C35_3 1_555 1_555
O15_2 C9_4 1_555 1_555
C36_3 C7_4 1_555 1_555
C37_3 C8_4 1_555 1_555
C38_3 C5_4 1_555 1_555
C39_3 C6_4 1_555 1_555
H22_3 C36_3 1_555 1_555
H23_3 C37_3 1_555 1_555
H24_3 C38_3 1_555 1_555
H25_3 C39_3 1_555 1_555
C6_4 C7_4 1_555 1_555
C12_3 C14_4 1_555 1_555
C15_4 C16_4 1_555 1_555
C21_3 C23_4 1_555 1_555
C24_4 C25_4 1_555 1_555
C28_3 C29_3 1_555 1_555
C30_3 C31_3 1_555 1_555
C32_3 C33_3 1_555 1_555
C34_3 C35_3 1_555 1_555
C36_3 C37_3 1_555 1_555
C38_3 C39_3 1_555 1_555
O13_3 C9_5 1_555 1_555
C1_4 C2_4 1_555 1_555
C2_4 H2_4 1_555 1_555
C3_4 C4_4 1_555 1_555
C4_4 H4_4 1_555 1_555
H1_4 C1_4 1_555 1_555
H3_4 C3_4 1_555 1_555
C5_5 C3_4 1_555 1_555
C6_5 C4_4 1_555 1_555
C7_5 C1_4 1_555 1_555
C8_5 C2_4 1_555 1_555
C9_5 C8_5 1_555 1_555
N1_5 C5_5 1_555 1_555
O13_4 C18_5 1_555 1_555
C10_4 C11_4 1_555 1_555
C11_4 H7_4 1_555 1_555
C12_4 C13_4 1_555 1_555
C13_4 H9_4 1_555 1_555
H6_4 C10_4 1_555 1_555
H8_4 C12_4 1_555 1_555
C14_5 N1_5 1_555 1_555
C15_5 C13_4 1_555 1_555
C16_5 C10_4 1_555 1_555
C17_5 C11_4 1_555 1_555
C18_5 C17_5 1_555 1_555
O14_2 C27_5 1_555 1_555
C19_4 C20_4 1_555 1_555
C20_4 H11_4 1_555 1_555
C21_4 C22_4 1_555 1_555
C22_4 H13_4 1_555 1_555
H10_4 C19_4 1_555 1_555
H12_4 C21_4 1_555 1_555
C23_5 N1_5 1_555 1_555
C24_5 C22_4 1_555 1_555
C25_5 C19_4 1_555 1_555
C26_5 C20_4 1_555 1_555
C27_5 C26_5 1_555 1_555
C6_5 C7_5 1_555 1_555
C12_4 C14_5 1_555 1_555
C15_5 C16_5 1_555 1_555
C21_4 C23_5 1_555 1_555
C24_5 C25_5 1_555 1_555
C9_6 C8_6 1_555 1_555
N1_6 C5_6 1_555 1_555
C14_6 N1_6 1_555 1_555
C18_6 C17_6 1_555 1_555
C23_6 N1_6 1_555 1_555
C27_6 C26_6 1_555 1_555
O15_4 C27_6 1_555 1_555
C28_4 C25_6 1_555 1_555
C29_4 C26_6 1_555 1_555
C30_4 C23_6 1_555 1_555
C31_4 C24_6 1_555 1_555
H14_4 C28_4 1_555 1_555
H15_4 C29_4 1_555 1_555
H16_4 C30_4 1_555 1_555
H17_4 C31_4 1_555 1_555
O15_6 C18_6 1_555 1_555
C32_4 C16_6 1_555 1_555
C33_4 C17_6 1_555 1_555
C34_4 C14_6 1_555 1_555
C35_4 C15_6 1_555 1_555
H18_4 C32_4 1_555 1_555
H19_4 C33_4 1_555 1_555
H20_4 C34_4 1_555 1_555
H21_4 C35_4 1_555 1_555
O15_5 C9_6 1_555 1_555
C36_4 C7_6 1_555 1_555
C37_4 C8_6 1_555 1_555
C38_4 C5_6 1_555 1_555
C39_4 C6_6 1_555 1_555
H22_4 C36_4 1_555 1_555
H23_4 C37_4 1_555 1_555
H24_4 C38_4 1_555 1_555
H25_4 C39_4 1_555 1_555
C6_6 C7_6 1_555 1_555
C15_6 C16_6 1_555 1_555
C24_6 C25_6 1_555 1_555
C28_4 C29_4 1_555 1_555
C30_4 C31_4 1_555 1_555
C32_4 C33_4 1_555 1_555
C34_4 C35_4 1_555 1_555
C36_4 C37_4 1_555 1_555
C38_4 C39_4 1_555 1_555

#END
