
###############################################################################
#
# This file contains modified crystal structure data generated from the
# MOF subset of the Cambridge Structural Database (CSD) v543 
# hosted by the Cambridge Crystallographic Data Centre (CCDC).
#
# This work is licensed under the Creative Commons
# Attribution-NonCommercial-ShareAlike 4.0 International License.
# To view a copy of this license, visit
# http://creativecommons.org/licenses/by-nc-sa/4.0/
# or send a letter to
# Creative Commons, PO Box 1866, Mountain View, CA 94042, USA.
#
# CIF created using the CSD Python API on 29 September 2022
# The structure has been converted into the P1 space group
# The structure has a 3D framework
# The original CSD entry TOZZEQ is in the monoclinic crystal system
# The framework has been calculated to contain at least 10.0% void space
# The void calculation uses a probe of radius 1.32A, grid spacing 0.4
# H atom positions have been added when not included in the experimental data
#
###############################################################################

data_TOZZEQ
_chemical_formula_moiety         '(C192 H158 Bi3 N12 O28 4+)n'
_symmetry_cell_setting           triclinic
_symmetry_space_group_name_H-M   'P 1'
_symmetry_Int_Tables_number      1
_space_group_name_Hall           'P 1'
loop_
_symmetry_equiv_pos_site_id
_symmetry_equiv_pos_as_xyz
1 x,y,z
_cell_length_a                   8.1914(5)
_cell_length_b                   20.592(2)
_cell_length_c                   28.5598(19)
_cell_angle_alpha                90
_cell_angle_beta                 94.138(6)
_cell_angle_gamma                90
_cell_volume                     4804.83
loop_
_atom_site_label
_atom_site_type_symbol
_atom_site_fract_x
_atom_site_fract_y
_atom_site_fract_z
Bi1 Bi 0.5000 0.618045(18) 0.2500
O1 O 0.4198(5) 0.5753(3) 0.32942(16)
O2 O 0.2181(5) 0.5939(2) 0.27527(15)
O3 O 0.0659(5) 0.7869(2) 0.70423(16)
C9 C 0.1473(8) 0.5676(3) 0.3527(2)
C11 C 0.2690(8) 0.5790(4) 0.3170(2)
C12 C 0.2020(8) 0.5590(4) 0.3993(2)
H4 H 0.3139 0.5570 0.4075
C15 C 0.0933(7) 0.5534(3) 0.4338(2)
H5 H 0.1320 0.5480 0.4649
H11 H 0.0507 0.6731 0.6630
N1 N 0.5000 0.4761(7) 0.2500
C23 C 0.483(5) 0.4297(10) 0.2878(6)
H12 H 0.4692 0.4527 0.3165
H13 H 0.5801 0.4033 0.2916
H14 H 0.3899 0.4025 0.2804
C46 C 0.517(5) 0.4297(10) 0.2122(6)
H26 H 0.5308 0.4527 0.1835
H27 H 0.4199 0.4033 0.2084
H28 H 0.6101 0.4025 0.2196
Bi4 Bi 0.0000 0.881955(18) 0.7500
O9 O 0.5802(5) 0.5753(3) 0.17058(16)
O10 O 0.7819(5) 0.5939(2) 0.22473(15)
O11 O 0.4341(5) 0.7131(2) 0.29577(16)
O12 O 0.5659(5) 0.7131(2) 0.20423(16)
O13 O 0.6828(5) 0.6737(2) 0.30445(16)
O14 O 0.3172(5) 0.6737(2) 0.19555(16)
H36 H 0.376763 0.4761 0.242956
O4 O 0.1828(5) 0.8263(2) 0.80445(16)
C2 C 0.0726(8) 0.7869(3) 0.8162(2)
C4 C 0.3944(7) 0.5670(3) 0.9645(2)
C5 C 0.2043(7) 0.6519(4) 0.9269(2)
C8 C 0.5029(7) 0.5717(3) 0.9278(2)
H2 H 0.4816 0.6022 0.9042
C13 C 0.2523(8) 0.6054(3) 0.9655(2)
C14 C 0.1173(8) 0.7403(4) 0.8552(2)
C18 C 0.2820(9) 0.7106(4) 0.9244(3)
H7 H 0.3639 0.7218 0.9472
C19 C 0.0806(11) 0.6386(4) 0.8939(3)
H8 H 0.0250 0.5993 0.8950
C21 C 0.2395(10) 0.7541(4) 0.8877(3)
H10 H 0.2966 0.7929 0.8859
C22 C 0.0361(11) 0.6828(4) 0.8586(3)
C24 C 0.6729(7) 0.4845(3) 0.9612(2)
C26 C 0.5691(7) 0.4786(3) 0.9991(2)
C29 C 0.6365(7) 0.5329(3) 0.9264(2)
H15 H 0.7055 0.5380 0.9022
C30 C 0.9258(7) 0.4442(3) 0.9220(2)
C33 C 0.8462(8) 0.4008(3) 0.9977(2)
H17 H 0.9396 0.3752 0.9975
C39 C 0.9817(8) 0.4318(4) 0.8405(2)
H20 H 0.9433 0.4277 0.8092
C40 C 0.8117(7) 0.4439(3) 0.9609(2)
C43 C 0.8721(8) 0.4375(3) 0.8752(2)
H23 H 0.7603 0.4367 0.8668
C9_2 C 0.8527(8) 0.5676(3) 0.1473(2)
C11_2 C 0.7310(8) 0.5790(4) 0.1830(2)
C12_2 C 0.7980(8) 0.5590(4) 0.1007(2)
H4_2 H 0.6861 0.5570 0.0925
C15_2 C 0.9067(7) 0.5534(3) 0.0662(2)
H5_2 H 0.8680 0.5480 0.0351
H36_2 H 0.623237 0.4761 0.257044
O5 O 0.0802(5) 0.9247(3) 0.67058(16)
O6 O 0.2819(5) 0.9061(2) 0.72473(15)
C24_2 C 0.8271(7) 0.9845(3) 0.5388(2)
C25 C 0.5726(8) 0.7131(3) 0.3162(2)
C26_2 C 0.9309(7) 0.9786(3) 0.5009(2)
C27 C 0.8944(7) 0.9330(3) 0.4645(2)
C28 C 0.7043(7) 0.8481(4) 0.4269(2)
C30_2 C 0.5742(7) 0.9442(3) 0.5780(2)
H16 H 0.9816 0.8978 0.4042
C32 C 0.3527(8) 0.9324(3) 0.6473(2)
C33_2 C 0.6538(8) 0.9008(3) 0.5023(2)
H17_2 H 0.5604 0.8752 0.5025
C34 C 0.2310(8) 0.9210(4) 0.6830(2)
C35 C 0.2980(8) 0.9410(4) 0.6007(2)
H18 H 0.1861 0.9430 0.5925
C36 C 0.7523(8) 0.8946(3) 0.4655(2)
C37 C 0.6173(8) 0.7597(4) 0.3552(2)
C38 C 0.4067(7) 0.9466(3) 0.5662(2)
H19 H 0.3680 0.9520 0.5351
C39_2 C 0.5183(8) 0.9318(4) 0.6595(2)
H20_2 H 0.5567 0.9277 0.6908
C40_2 C 0.6883(7) 0.9439(3) 0.5391(2)
C41 C 0.7820(9) 0.7894(4) 0.4244(3)
H21 H 0.8639 0.7782 0.4472
C42 C 0.5806(11) 0.8614(4) 0.3939(3)
H22 H 0.5250 0.9007 0.3950
C43_2 C 0.6279(8) 0.9375(3) 0.6248(2)
H23_2 H 0.7397 0.9367 0.6332
C44 C 0.7395(10) 0.7459(4) 0.3877(3)
H24 H 0.7966 0.7071 0.3859
C45 C 0.5361(11) 0.8172(4) 0.3586(3)
H25 H 0.4493 0.8269 0.3370
C25_2 C 0.4274(8) 0.7131(3) 0.1838(2)
C27_2 C 0.1056(7) 0.9330(3) 0.0355(2)
C28_2 C 0.2957(7) 0.8481(4) 0.0731(2)
H16_2 H 0.0184 0.8978 0.0958
C36_2 C 0.2477(8) 0.8946(3) 0.0345(2)
C37_2 C 0.3827(8) 0.7597(4) 0.1448(2)
C41_2 C 0.2180(9) 0.7894(4) 0.0756(3)
H21_2 H 0.1361 0.7782 0.0528
C42_2 C 0.4194(11) 0.8614(4) 0.1061(3)
H22_2 H 0.4750 0.9007 0.1050
C44_2 C 0.2605(10) 0.7459(4) 0.1123(3)
H24_2 H 0.2034 0.7071 0.1141
C45_2 C 0.4639(11) 0.8172(4) 0.1414(3)
H25_2 H 0.5507 0.8269 0.1630
O4_2 O 0.8172(5) 0.8263(2) 0.69555(16)
C1 C 0.6729(7) 0.5155(3) 0.4612(2)
C2_2 C 0.9274(8) 0.7869(3) 0.6838(2)
C3 C 0.5691(7) 0.5214(3) 0.4991(2)
C4_2 C 0.6056(7) 0.5670(3) 0.5355(2)
C5_2 C 0.7957(7) 0.6519(4) 0.5731(2)
C6 C 0.6365(7) 0.4671(3) 0.4264(2)
H1 H 0.7055 0.4620 0.4022
C7 C 0.9258(7) 0.5558(3) 0.4220(2)
C8_2 C 0.4971(7) 0.5717(3) 0.5722(2)
H2_2 H 0.5184 0.6022 0.5958
C10 C 0.8462(8) 0.5992(3) 0.4977(2)
H3 H 0.9396 0.6248 0.4975
C13_2 C 0.7477(8) 0.6054(3) 0.5345(2)
C14_2 C 0.8827(8) 0.7403(4) 0.6448(2)
C16 C 0.9817(8) 0.5682(4) 0.3405(2)
H6 H 0.9433 0.5723 0.3092
C17 C 0.8117(7) 0.5561(3) 0.4609(2)
C18_2 C 0.7180(9) 0.7106(4) 0.5756(3)
H7_2 H 0.6361 0.7218 0.5528
C19_2 C 0.9194(11) 0.6386(4) 0.6061(3)
H8_2 H 0.9750 0.5993 0.6050
C20 C 0.8721(8) 0.5625(3) 0.3752(2)
H9 H 0.7603 0.5633 0.3668
C21_2 C 0.7605(10) 0.7541(4) 0.6123(3)
H10_2 H 0.7034 0.7929 0.6141
C22_2 C 0.9639(11) 0.6828(4) 0.6414(3)
O8 O 0.1828(5) 0.1737(2) 0.30445(16)
C24_3 C 0.3271(7) 0.4845(3) 0.5388(2)
C25_3 C 0.0726(8) 0.2131(3) 0.3162(2)
C26_3 C 0.4309(7) 0.4786(3) 0.5009(2)
C27_3 C 0.3944(7) 0.4330(3) 0.4645(2)
C28_3 C 0.2043(7) 0.3481(4) 0.4269(2)
C29_2 C 0.3635(7) 0.5329(3) 0.5736(2)
H15_2 H 0.2945 0.5380 0.5978
C30_3 C 0.0742(7) 0.4442(3) 0.5780(2)
C31 C 0.5029(7) 0.4283(3) 0.4278(2)
H16_3 H 0.4816 0.3978 0.4042
C33_3 C 0.1538(8) 0.4008(3) 0.5023(2)
H17_3 H 0.0604 0.3752 0.5025
C36_3 C 0.2523(8) 0.3946(3) 0.4655(2)
C37_3 C 0.1173(8) 0.2597(4) 0.3552(2)
C39_3 C 0.0183(8) 0.4318(4) 0.6595(2)
H20_3 H 0.0567 0.4277 0.6908
C40_3 C 0.1883(7) 0.4439(3) 0.5391(2)
C41_3 C 0.2820(9) 0.2894(4) 0.4244(3)
H21_3 H 0.3639 0.2782 0.4472
C42_3 C 0.0806(11) 0.3614(4) 0.3939(3)
H22_3 H 0.0250 0.4007 0.3950
C43_3 C 0.1279(8) 0.4375(3) 0.6248(2)
H23_3 H 0.2397 0.4367 0.6332
C44_3 C 0.2395(10) 0.2459(4) 0.3877(3)
H24_3 H 0.2966 0.2071 0.3859
C45_3 C 0.0361(11) 0.3172(4) 0.3586(3)
Bi2 Bi 0.0000 0.118045(18) 0.2500
Bi4_2 Bi 1.0000 0.881955(18) 0.7500
O7 O 0.0659(5) 0.2131(2) 0.20423(16)
H25_3 H 0.0507 0.3269 0.1630
O3_2 O 0.9341(5) 0.7869(2) 0.79577(16)
H11_2 H 0.9493 0.6731 0.8370
O9_2 O 0.0802(5) 0.0753(3) 0.17058(16)
O10_2 O 0.2819(5) 0.0939(2) 0.22473(15)
O5_2 O 0.9198(5) 0.9247(3) 0.82942(16)
O6_2 O 0.7181(5) 0.9061(2) 0.77527(15)
C24_4 C 0.1729(7) 0.9845(3) 0.9612(2)
C26_4 C 0.0691(7) 0.9786(3) 0.9991(2)
C30_4 C 0.4258(7) 0.9442(3) 0.9220(2)
C32_2 C 0.6473(8) 0.9324(3) 0.8527(2)
C33_4 C 0.3462(8) 0.9008(3) 0.9977(2)
H17_4 H 0.4396 0.8752 0.9975
C34_2 C 0.7690(8) 0.9210(4) 0.8170(2)
C35_2 C 0.7020(8) 0.9410(4) 0.8993(2)
H18_2 H 0.8139 0.9430 0.9075
C38_2 C 0.5933(7) 0.9466(3) 0.9338(2)
H19_2 H 0.6320 0.9520 0.9649
C39_4 C 0.4817(8) 0.9318(4) 0.8405(2)
H20_4 H 0.4433 0.9277 0.8092
C40_4 C 0.3117(7) 0.9439(3) 0.9609(2)
C43_4 C 0.3721(8) 0.9375(3) 0.8752(2)
H23_4 H 0.2603 0.9367 0.8668
C1_2 C 0.8271(7) 0.0155(3) 0.0388(2)
C3_2 C 0.9309(7) 0.0214(3) 0.0009(2)
C7_2 C 0.5742(7) 0.0558(3) 0.0780(2)
C9_3 C 0.3527(8) 0.0676(3) 0.1473(2)
C10_2 C 0.6538(8) 0.0992(3) 0.0023(2)
H3_2 H 0.5604 0.1248 0.0025
C11_3 C 0.2310(8) 0.0790(4) 0.1830(2)
C12_3 C 0.2980(8) 0.0590(4) 0.1007(2)
H4_3 H 0.1861 0.0570 0.0925
C15_3 C 0.4067(7) 0.0534(3) 0.0662(2)
H5_3 H 0.3680 0.0480 0.0351
C16_2 C 0.5183(8) 0.0682(4) 0.1595(2)
H6_2 H 0.5567 0.0723 0.1908
C17_2 C 0.6883(7) 0.0561(3) 0.0391(2)
C20_2 C 0.6279(8) 0.0625(3) 0.1248(2)
H9_2 H 0.7397 0.0633 0.1332
O5_3 O 0.5802(5) 0.4247(3) 0.67058(16)
O6_3 O 0.7819(5) 0.4061(2) 0.72473(15)
O7_2 O 0.9341(5) 0.2131(2) 0.29577(16)
C32_3 C 0.8527(8) 0.4324(3) 0.6473(2)
C34_3 C 0.7310(8) 0.4210(4) 0.6830(2)
C35_3 C 0.7980(8) 0.4410(4) 0.6007(2)
H18_3 H 0.6861 0.4430 0.5925
C38_3 C 0.9067(7) 0.4466(3) 0.5662(2)
H19_3 H 0.8680 0.4520 0.5351
H25_4 H 0.9493 0.3269 0.3370
Bi2_2 Bi 1.0000 0.118045(18) 0.2500
Bi3 Bi 0.5000 0.381955(18) 0.7500
O5_4 O 0.4198(5) 0.4247(3) 0.82942(16)
O6_4 O 0.2181(5) 0.4061(2) 0.77527(15)
C32_4 C 0.1473(8) 0.4324(3) 0.8527(2)
C34_4 C 0.2690(8) 0.4210(4) 0.8170(2)
C35_4 C 0.2020(8) 0.4410(4) 0.8993(2)
H18_4 H 0.3139 0.4430 0.9075
C38_4 C 0.0933(7) 0.4466(3) 0.9338(2)
H19_4 H 0.1320 0.4520 0.9649
C1_3 C 0.3271(7) 0.5155(3) 0.0388(2)
C3_3 C 0.4309(7) 0.5214(3) 0.0009(2)
C6_2 C 0.3635(7) 0.4671(3) 0.0736(2)
H1_2 H 0.2945 0.4620 0.0978
C7_3 C 0.0742(7) 0.5558(3) 0.0780(2)
C10_3 C 0.1538(8) 0.5992(3) 0.0023(2)
H3_3 H 0.0604 0.6248 0.0025
C16_3 C 0.0183(8) 0.5682(4) 0.1595(2)
H6_3 H 0.0567 0.5723 0.1908
C17_3 C 0.1883(7) 0.5561(3) 0.0391(2)
C20_3 C 0.1279(8) 0.5625(3) 0.1248(2)
H9_3 H 0.2397 0.5633 0.1332
O8_2 O 0.8172(5) 0.1737(2) 0.19555(16)
C25_4 C 0.9274(8) 0.2131(3) 0.1838(2)
C27_4 C 0.6056(7) 0.4330(3) 0.0355(2)
C28_4 C 0.7957(7) 0.3481(4) 0.0731(2)
C31_2 C 0.4971(7) 0.4283(3) 0.0722(2)
H16_4 H 0.5184 0.3978 0.0958
C36_4 C 0.7477(8) 0.3946(3) 0.0345(2)
C37_4 C 0.8827(8) 0.2597(4) 0.1448(2)
C41_4 C 0.7180(9) 0.2894(4) 0.0756(3)
H21_4 H 0.6361 0.2782 0.0528
C42_4 C 0.9194(11) 0.3614(4) 0.1061(3)
H22_4 H 0.9750 0.4007 0.1050
C44_4 C 0.7605(10) 0.2459(4) 0.1123(3)
H24_4 H 0.7034 0.2071 0.1141
C45_4 C 0.9639(11) 0.3172(4) 0.1414(3)
O1_2 O 0.9198(5) 0.0753(3) 0.32942(16)
O2_2 O 0.7181(5) 0.0939(2) 0.27527(15)
O3_3 O 0.5659(5) 0.2869(2) 0.70423(16)
O4_3 O 0.3172(5) 0.3263(2) 0.69555(16)
C1_4 C 0.1729(7) 0.0155(3) 0.4612(2)
C2_3 C 0.4274(8) 0.2869(3) 0.6838(2)
C3_4 C 0.0691(7) 0.0214(3) 0.4991(2)
C4_3 C 0.1056(7) 0.0670(3) 0.5355(2)
C5_3 C 0.2957(7) 0.1519(4) 0.5731(2)
C7_4 C 0.4258(7) 0.0558(3) 0.4220(2)
H2_3 H 0.0184 0.1022 0.5958
C9_4 C 0.6473(8) 0.0676(3) 0.3527(2)
C10_4 C 0.3462(8) 0.0992(3) 0.4977(2)
H3_4 H 0.4396 0.1248 0.4975
C11_4 C 0.7690(8) 0.0790(4) 0.3170(2)
C12_4 C 0.7020(8) 0.0590(4) 0.3993(2)
H4_4 H 0.8139 0.0570 0.4075
C13_3 C 0.2477(8) 0.1054(3) 0.5345(2)
C14_3 C 0.3827(8) 0.2403(4) 0.6448(2)
C15_4 C 0.5933(7) 0.0534(3) 0.4338(2)
H5_4 H 0.6320 0.0480 0.4649
C16_4 C 0.4817(8) 0.0682(4) 0.3405(2)
H6_4 H 0.4433 0.0723 0.3092
C17_4 C 0.3117(7) 0.0561(3) 0.4609(2)
C18_3 C 0.2180(9) 0.2106(4) 0.5756(3)
H7_3 H 0.1361 0.2218 0.5528
C19_3 C 0.4194(11) 0.1386(4) 0.6061(3)
H8_3 H 0.4750 0.0993 0.6050
C20_4 C 0.3721(8) 0.0625(3) 0.3752(2)
H9_4 H 0.2603 0.0633 0.3668
C21_3 C 0.2605(10) 0.2541(4) 0.6123(3)
H10_3 H 0.2034 0.2929 0.6141
C22_3 C 0.4639(11) 0.1828(4) 0.6414(3)
H11_3 H 0.5507 0.1731 0.6630
O3_4 O 0.4341(5) 0.2869(2) 0.79577(16)
O4_4 O 0.6828(5) 0.3263(2) 0.80445(16)
C2_4 C 0.5726(8) 0.2869(3) 0.8162(2)
C4_4 C 0.8944(7) 0.0670(3) 0.9645(2)
C5_4 C 0.7043(7) 0.1519(4) 0.9269(2)
H2_4 H 0.9816 0.1022 0.9042
C13_4 C 0.7523(8) 0.1054(3) 0.9655(2)
C14_4 C 0.6173(8) 0.2403(4) 0.8552(2)
C18_4 C 0.7820(9) 0.2106(4) 0.9244(3)
H7_4 H 0.8639 0.2218 0.9472
C19_4 C 0.5806(11) 0.1386(4) 0.8939(3)
H8_4 H 0.5250 0.0993 0.8950
C21_4 C 0.7395(10) 0.2541(4) 0.8877(3)
H10_4 H 0.7966 0.2929 0.8859
C22_4 C 0.5361(11) 0.1828(4) 0.8586(3)
H11_4 H 0.4493 0.1731 0.8370
N1_2 N 0.5000 0.5239(7) 0.7500
C23_2 C 0.517(5) 0.5703(10) 0.7122(6)
H12_2 H 0.5308 0.5473 0.6835
H13_2 H 0.4199 0.5967 0.7084
H14_2 H 0.6101 0.5975 0.7196
C46_2 C 0.483(5) 0.5703(10) 0.7878(6)
H26_2 H 0.4692 0.5473 0.8165
H27_2 H 0.5801 0.5967 0.7916
H28_2 H 0.3899 0.5975 0.7804
H36_3 H 0.623237 0.5239 0.757044
H36_4 H 0.376763 0.5239 0.742956
N1_3 N 0.0000 0.9761(7) 0.2500
H13_3 H 0.0801 0.9033 0.2916
C46_3 C 0.017(5) 0.9297(10) 0.2122(6)
H26_3 H 0.0308 0.9527 0.1835
H28_3 H 0.1101 0.9025 0.2196
C6_3 C 0.8635(7) 0.9671(3) 0.0736(2)
H1_3 H 0.7945 0.9620 0.0978
C31_3 C 0.9971(7) 0.9283(3) 0.0722(2)
H36_5 H 0.123237 0.9761 0.257044
C6_4 C 0.1365(7) 0.9671(3) 0.4264(2)
H1_4 H 0.2055 0.9620 0.4022
N1_4 N 1.0000 0.9761(7) 0.2500
C23_3 C 0.983(5) 0.9297(10) 0.2878(6)
H12_3 H 0.9692 0.9527 0.3165
H14_3 H 0.8899 0.9025 0.2804
C31_4 C 0.0029(7) 0.9283(3) 0.4278(2)
H27_3 H 0.9199 0.9033 0.2084
H36_6 H 0.876763 0.9761 0.242956
C8_3 C 0.9971(7) 0.0717(3) 0.5722(2)
C29_3 C 0.8635(7) 0.0329(3) 0.5736(2)
H15_3 H 0.7945 0.0380 0.5978
N1_5 N -0.0000 0.0239(7) 0.7500
C23_4 C 0.017(5) 0.0703(10) 0.7122(6)
H12_4 H 0.0308 0.0473 0.6835
H14_4 H 0.1101 0.0975 0.7196
H27_4 H 0.0801 0.0967 0.7916
H36_7 H 0.123237 0.0239 0.757044
C8_4 C 0.0029(7) 0.0717(3) 0.9278(2)
C29_4 C 0.1365(7) 0.0329(3) 0.9264(2)
H15_4 H 0.2055 0.0380 0.9022
N1_6 N 1.0000 0.0239(7) 0.7500
H13_4 H 0.9199 0.0967 0.7084
C46_4 C 0.983(5) 0.0703(10) 0.7878(6)
H26_4 H 0.9692 0.0473 0.8165
H28_4 H 0.8899 0.0975 0.7804
H36_8 H 0.876763 0.0239 0.742956
C47 C 0.4621(12) 0.2348(6) 0.2084(5)
H29 H 0.4375 0.2065 0.1821
H30 H 0.5544 0.2616 0.2024
H31 H 0.3691 0.2619 0.2129
N2 N 0.5000 0.1966(7) 0.2500
H32 H 0.5000 0.1548 0.2500
C48 C 0.5379(12) 0.2348(6) 0.2916(5)
H33 H 0.5625 0.2065 0.3179
H34 H 0.4456 0.2616 0.2976
H35 H 0.6309 0.2619 0.2871
H37 H 0.37993 0.1966 0.256639
H37_2 H 0.62007 0.1966 0.243361
H30_2 H 0.0544 0.7616 0.2024
N2_2 N -0.0000 0.6966(7) 0.2500
H32_2 H 0.0000 0.6548 0.2500
C48_2 C 0.0379(12) 0.7348(6) 0.2916(5)
H33_2 H 0.0625 0.7065 0.3179
H35_2 H 0.1309 0.7619 0.2871
H37_3 H 0.12007 0.6966 0.243361
C47_2 C 0.9621(12) 0.7348(6) 0.2084(5)
H29_2 H 0.9375 0.7065 0.1821
H31_2 H 0.8691 0.7619 0.2129
N2_3 N 1.0000 0.6966(7) 0.2500
H32_3 H 1.0000 0.6548 0.2500
H34_2 H 0.9456 0.7616 0.2976
H37_4 H 0.87993 0.6966 0.256639
C47_3 C 0.5379(12) 0.7652(6) 0.7916(5)
H29_3 H 0.5625 0.7935 0.8179
H30_3 H 0.4456 0.7384 0.7976
H31_3 H 0.6309 0.7381 0.7871
N2_4 N 0.5000 0.8034(7) 0.7500
H32_4 H 0.5000 0.8452 0.7500
C48_3 C 0.4621(12) 0.7652(6) 0.7084(5)
H33_3 H 0.4375 0.7935 0.6821
H34_3 H 0.5544 0.7384 0.7024
H35_3 H 0.3691 0.7381 0.7129
H37_5 H 0.62007 0.8034 0.743361
H37_6 H 0.37993 0.8034 0.756639
C47_4 C 0.0379(12) 0.2652(6) 0.7916(5)
H29_4 H 0.0625 0.2935 0.8179
H31_4 H 0.1309 0.2381 0.7871
N2_5 N 0.0000 0.3034(7) 0.7500
H32_5 H 0.0000 0.3452 0.7500
H34_4 H 0.0544 0.2384 0.7024
H37_7 H 0.12007 0.3034 0.743361
H30_4 H 0.9456 0.2384 0.7976
N2_6 N 1.0000 0.3034(7) 0.7500
H32_6 H 1.0000 0.3452 0.7500
C48_4 C 0.9621(12) 0.2652(6) 0.7084(5)
H33_4 H 0.9375 0.2935 0.6821
H35_4 H 0.8691 0.2381 0.7129
H37_8 H 0.87993 0.3034 0.756639
loop_
_geom_bond_atom_site_label_1
_geom_bond_atom_site_label_2
_geom_bond_site_symmetry_1
_geom_bond_site_symmetry_2
Bi1 O1 1_555 1_555
O1 C11 1_555 1_555
O2 Bi1 1_555 1_555
C9 C11 1_555 1_555
C11 O2 1_555 1_555
C12 C9 1_555 1_555
H4 C12 1_555 1_555
C15 C12 1_555 1_555
H5 C15 1_555 1_555
N1 Bi1 1_555 1_555
C23 N1 1_555 1_555
H12 C23 1_555 1_555
H13 C23 1_555 1_555
H14 C23 1_555 1_555
C46 N1 1_555 1_555
H26 C46 1_555 1_555
H27 C46 1_555 1_555
H28 C46 1_555 1_555
Bi4 O3 1_555 1_555
O9 Bi1 1_555 1_555
O10 Bi1 1_555 1_555
O11 Bi1 1_555 1_555
O12 Bi1 1_555 1_555
O13 Bi1 1_555 1_555
O14 Bi1 1_555 1_555
N1 H36 1_555 1_555
O4 C2 1_555 1_555
C2 C14 1_555 1_555
C4 C8 1_555 1_555
C5 C13 1_555 1_555
C8 H2 1_555 1_555
C13 C4 1_555 1_555
C14 C21 1_555 1_555
C18 C5 1_555 1_555
H7 C18 1_555 1_555
C19 C5 1_555 1_555
H8 C19 1_555 1_555
C21 C18 1_555 1_555
H10 C21 1_555 1_555
C22 C14 1_555 1_555
C24 C26 1_555 1_555
C29 C8 1_555 1_555
H15 C29 1_555 1_555
C33 H17 1_555 1_555
H20 C39 1_555 1_555
C40 C24 1_555 1_555
C43 C30 1_555 1_555
H23 C43 1_555 1_555
O4 Bi4 1_555 1_555
C19 C22 1_555 1_555
C24 C29 1_555 1_555
C30 C40 1_555 1_555
C33 C40 1_555 1_555
C39 C43 1_555 1_555
O9 C11_2 1_555 1_555
C9_2 C11_2 1_555 1_555
C11_2 O10 1_555 1_555
C12_2 C9_2 1_555 1_555
H4_2 C12_2 1_555 1_555
C15_2 C12_2 1_555 1_555
H5_2 C15_2 1_555 1_555
N1 H36_2 1_555 1_555
O5 C34 1_555 1_555
O6 C34 1_555 1_555
O11 C25 1_555 1_555
O13 C25 1_555 1_555
C24_2 C26_2 1_555 1_555
C25 C37 1_555 1_555
C27 C26_2 1_555 1_555
C28 C36 1_555 1_555
C30_2 C38 1_555 1_555
C32 C34 1_555 1_555
C33_2 H17_2 1_555 1_555
C35 C32 1_555 1_555
H18 C35 1_555 1_555
C36 C27 1_555 1_555
C37 C44 1_555 1_555
C38 C35 1_555 1_555
H19 C38 1_555 1_555
C39_2 C32 1_555 1_555
H20_2 C39_2 1_555 1_555
C40_2 C24_2 1_555 1_555
C41 C28 1_555 1_555
H21 C41 1_555 1_555
C42 C28 1_555 1_555
H22 C42 1_555 1_555
C43_2 C30_2 1_555 1_555
H23_2 C43_2 1_555 1_555
C44 C41 1_555 1_555
H24 C44 1_555 1_555
C45 C37 1_555 1_555
H25 C45 1_555 1_555
Bi4 O5 1_555 1_555
O6 Bi4 1_555 1_555
C30_2 C40_2 1_555 1_555
C33_2 C36 1_555 1_555
C33_2 C40_2 1_555 1_555
C39_2 C43_2 1_555 1_555
C42 C45 1_555 1_555
O12 C25_2 1_555 1_555
O14 C25_2 1_555 1_555
C25_2 C37_2 1_555 1_555
C28_2 C36_2 1_555 1_555
C36_2 C27_2 1_555 1_555
C37_2 C44_2 1_555 1_555
C41_2 C28_2 1_555 1_555
H21_2 C41_2 1_555 1_555
C42_2 C28_2 1_555 1_555
H22_2 C42_2 1_555 1_555
C44_2 C41_2 1_555 1_555
H24_2 C44_2 1_555 1_555
C45_2 C37_2 1_555 1_555
H25_2 C45_2 1_555 1_555
C42_2 C45_2 1_555 1_555
O4_2 C2_2 1_555 1_555
C1 C3 1_555 1_555
C2_2 C14_2 1_555 1_555
C3 C4_2 1_555 1_555
C4_2 C8_2 1_555 1_555
C5_2 C13_2 1_555 1_555
C6 C1 1_555 1_555
H1 C6 1_555 1_555
C8_2 H2_2 1_555 1_555
C10 H3 1_555 1_555
C13_2 C4_2 1_555 1_555
C14_2 C21_2 1_555 1_555
H6 C16 1_555 1_555
C17 C1 1_555 1_555
C18_2 C5_2 1_555 1_555
H7_2 C18_2 1_555 1_555
C19_2 C5_2 1_555 1_555
H8_2 C19_2 1_555 1_555
C20 C7 1_555 1_555
H9 C20 1_555 1_555
C21_2 C18_2 1_555 1_555
H10_2 C21_2 1_555 1_555
C22_2 C14_2 1_555 1_555
O8 C25_3 1_555 1_555
C24_3 C26_3 1_555 1_555
C25_3 C37_3 1_555 1_555
C26_3 C3 1_555 1_555
C27_3 C26_3 1_555 1_555
C28_3 C36_3 1_555 1_555
C29_2 C8_2 1_555 1_555
H15_2 C29_2 1_555 1_555
C31 C6 1_555 1_555
H16_3 C31 1_555 1_555
C33_3 H17_3 1_555 1_555
C36_3 C27_3 1_555 1_555
C37_3 C44_3 1_555 1_555
H20_3 C39_3 1_555 1_555
C40_3 C24_3 1_555 1_555
C41_3 C28_3 1_555 1_555
H21_3 C41_3 1_555 1_555
C42_3 C28_3 1_555 1_555
H22_3 C42_3 1_555 1_555
C43_3 C30_3 1_555 1_555
H23_3 C43_3 1_555 1_555
C44_3 C41_3 1_555 1_555
H24_3 C44_3 1_555 1_555
C45_3 C37_3 1_555 1_555
O4_2 Bi4_2 1_555 1_555
C7 C17 1_555 1_555
C10 C13_2 1_555 1_555
C10 C17 1_555 1_555
C16 C20 1_555 1_555
C19_2 C22_2 1_555 1_555
O8 Bi2 1_555 1_555
C24_3 C29_2 1_555 1_555
C27_3 C31 1_555 1_555
C30_3 C40_3 1_555 1_555
C33_3 C36_3 1_555 1_555
C33_3 C40_3 1_555 1_555
C39_3 C43_3 1_555 1_555
C42_3 C45_3 1_555 1_555
Bi2 O7 1_555 1_555
Bi4_2 O3_2 1_555 1_555
O9_2 Bi2 1_555 1_555
O10_2 Bi2 1_555 1_555
O5_2 C34_2 1_555 1_555
O6_2 C34_2 1_555 1_555
C24_4 C26_4 1_555 1_555
C30_4 C38_2 1_555 1_555
C32_2 C34_2 1_555 1_555
C33_4 H17_4 1_555 1_555
C35_2 C32_2 1_555 1_555
H18_2 C35_2 1_555 1_555
C38_2 C35_2 1_555 1_555
H19_2 C38_2 1_555 1_555
C39_4 C32_2 1_555 1_555
H20_4 C39_4 1_555 1_555
C40_4 C24_4 1_555 1_555
C43_4 C30_4 1_555 1_555
H23_4 C43_4 1_555 1_555
Bi4_2 O5_2 1_555 1_555
O6_2 Bi4_2 1_555 1_555
C30_4 C40_4 1_555 1_555
C33_4 C40_4 1_555 1_555
C39_4 C43_4 1_555 1_555
O9_2 C11_3 1_555 1_555
C1_2 C3_2 1_555 1_555
C7_2 C15_3 1_555 1_555
C9_3 C11_3 1_555 1_555
C10_2 H3_2 1_555 1_555
C11_3 O10_2 1_555 1_555
C12_3 C9_3 1_555 1_555
H4_3 C12_3 1_555 1_555
C15_3 C12_3 1_555 1_555
H5_3 C15_3 1_555 1_555
C16_2 C9_3 1_555 1_555
H6_2 C16_2 1_555 1_555
C17_2 C1_2 1_555 1_555
C20_2 C7_2 1_555 1_555
H9_2 C20_2 1_555 1_555
C7_2 C17_2 1_555 1_555
C10_2 C17_2 1_555 1_555
C16_2 C20_2 1_555 1_555
O5_3 C34_3 1_555 1_555
O6_3 C34_3 1_555 1_555
C32_3 C34_3 1_555 1_555
C35_3 C32_3 1_555 1_555
H18_3 C35_3 1_555 1_555
C38_3 C35_3 1_555 1_555
H19_3 C38_3 1_555 1_555
Bi2_2 O7_2 1_555 1_555
Bi3 O5_3 1_555 1_555
O6_3 Bi3 1_555 1_555
O5_4 C34_4 1_555 1_555
O6_4 C34_4 1_555 1_555
C32_4 C34_4 1_555 1_555
C35_4 C32_4 1_555 1_555
H18_4 C35_4 1_555 1_555
C38_4 C35_4 1_555 1_555
H19_4 C38_4 1_555 1_555
Bi3 O5_4 1_555 1_555
O6_4 Bi3 1_555 1_555
C1_3 C3_3 1_555 1_555
C6_2 C1_3 1_555 1_555
H1_2 C6_2 1_555 1_555
C10_3 H3_3 1_555 1_555
H6_3 C16_3 1_555 1_555
C17_3 C1_3 1_555 1_555
C20_3 C7_3 1_555 1_555
H9_3 C20_3 1_555 1_555
O8_2 C25_4 1_555 1_555
C25_4 C37_4 1_555 1_555
C28_4 C36_4 1_555 1_555
C31_2 C6_2 1_555 1_555
H16_4 C31_2 1_555 1_555
C36_4 C27_4 1_555 1_555
C37_4 C44_4 1_555 1_555
C41_4 C28_4 1_555 1_555
H21_4 C41_4 1_555 1_555
C42_4 C28_4 1_555 1_555
H22_4 C42_4 1_555 1_555
C44_4 C41_4 1_555 1_555
H24_4 C44_4 1_555 1_555
C45_4 C37_4 1_555 1_555
C7_3 C17_3 1_555 1_555
C10_3 C17_3 1_555 1_555
C16_3 C20_3 1_555 1_555
O8_2 Bi2_2 1_555 1_555
C27_4 C31_2 1_555 1_555
C42_4 C45_4 1_555 1_555
Bi2_2 O1_2 1_555 1_555
O1_2 C11_4 1_555 1_555
O2_2 Bi2_2 1_555 1_555
O3_3 C2_3 1_555 1_555
O4_3 C2_3 1_555 1_555
C1_4 C3_4 1_555 1_555
C2_3 C14_3 1_555 1_555
C3_4 C4_3 1_555 1_555
C5_3 C13_3 1_555 1_555
C7_4 C15_4 1_555 1_555
C9_4 C11_4 1_555 1_555
C10_4 H3_4 1_555 1_555
C11_4 O2_2 1_555 1_555
C12_4 C9_4 1_555 1_555
H4_4 C12_4 1_555 1_555
C13_3 C4_3 1_555 1_555
C14_3 C21_3 1_555 1_555
C15_4 C12_4 1_555 1_555
H5_4 C15_4 1_555 1_555
C16_4 C9_4 1_555 1_555
H6_4 C16_4 1_555 1_555
C17_4 C1_4 1_555 1_555
C18_3 C5_3 1_555 1_555
H7_3 C18_3 1_555 1_555
C19_3 C5_3 1_555 1_555
H8_3 C19_3 1_555 1_555
C20_4 C7_4 1_555 1_555
H9_4 C20_4 1_555 1_555
C21_3 C18_3 1_555 1_555
H10_3 C21_3 1_555 1_555
C22_3 C14_3 1_555 1_555
H11_3 C22_3 1_555 1_555
Bi3 O3_3 1_555 1_555
O4_3 Bi3 1_555 1_555
C7_4 C17_4 1_555 1_555
C10_4 C13_3 1_555 1_555
C10_4 C17_4 1_555 1_555
C16_4 C20_4 1_555 1_555
C19_3 C22_3 1_555 1_555
O3_4 C2_4 1_555 1_555
O4_4 C2_4 1_555 1_555
C2_4 C14_4 1_555 1_555
C5_4 C13_4 1_555 1_555
C13_4 C4_4 1_555 1_555
C14_4 C21_4 1_555 1_555
C18_4 C5_4 1_555 1_555
H7_4 C18_4 1_555 1_555
C19_4 C5_4 1_555 1_555
H8_4 C19_4 1_555 1_555
C21_4 C18_4 1_555 1_555
H10_4 C21_4 1_555 1_555
C22_4 C14_4 1_555 1_555
H11_4 C22_4 1_555 1_555
Bi3 O3_4 1_555 1_555
O4_4 Bi3 1_555 1_555
C19_4 C22_4 1_555 1_555
N1_2 Bi3 1_555 1_555
C23_2 N1_2 1_555 1_555
H12_2 C23_2 1_555 1_555
H13_2 C23_2 1_555 1_555
H14_2 C23_2 1_555 1_555
C46_2 N1_2 1_555 1_555
H26_2 C46_2 1_555 1_555
H27_2 C46_2 1_555 1_555
H28_2 C46_2 1_555 1_555
N1_2 H36_3 1_555 1_555
N1_2 H36_4 1_555 1_555
C46_3 N1_3 1_555 1_555
H26_3 C46_3 1_555 1_555
H28_3 C46_3 1_555 1_555
H1_3 C6_3 1_555 1_555
C31_3 C6_3 1_555 1_555
N1_3 H36_5 1_555 1_555
H1_4 C6_4 1_555 1_555
C23_3 N1_4 1_555 1_555
H12_3 C23_3 1_555 1_555
H14_3 C23_3 1_555 1_555
C31_4 C6_4 1_555 1_555
N1_4 H36_6 1_555 1_555
C29_3 C8_3 1_555 1_555
H15_3 C29_3 1_555 1_555
C23_4 N1_5 1_555 1_555
H12_4 C23_4 1_555 1_555
H14_4 C23_4 1_555 1_555
N1_5 H36_7 1_555 1_555
C29_4 C8_4 1_555 1_555
H15_4 C29_4 1_555 1_555
C46_4 N1_6 1_555 1_555
H26_4 C46_4 1_555 1_555
H28_4 C46_4 1_555 1_555
N1_6 H36_8 1_555 1_555
C47 H29 1_555 1_555
H30 C47 1_555 1_555
H31 C47 1_555 1_555
N2 C47 1_555 1_555
H32 N2 1_555 1_555
C48 N2 1_555 1_555
H33 C48 1_555 1_555
H34 C48 1_555 1_555
H35 C48 1_555 1_555
N2 H37 1_555 1_555
N2 H37_2 1_555 1_555
H32_2 N2_2 1_555 1_555
C48_2 N2_2 1_555 1_555
H33_2 C48_2 1_555 1_555
H35_2 C48_2 1_555 1_555
N2_2 H37_3 1_555 1_555
C47_2 H29_2 1_555 1_555
H31_2 C47_2 1_555 1_555
N2_3 C47_2 1_555 1_555
H32_3 N2_3 1_555 1_555
N2_3 H37_4 1_555 1_555
C47_3 H29_3 1_555 1_555
H30_3 C47_3 1_555 1_555
H31_3 C47_3 1_555 1_555
N2_4 C47_3 1_555 1_555
H32_4 N2_4 1_555 1_555
C48_3 N2_4 1_555 1_555
H33_3 C48_3 1_555 1_555
H34_3 C48_3 1_555 1_555
H35_3 C48_3 1_555 1_555
N2_4 H37_5 1_555 1_555
N2_4 H37_6 1_555 1_555
C47_4 H29_4 1_555 1_555
H31_4 C47_4 1_555 1_555
N2_5 C47_4 1_555 1_555
H32_5 N2_5 1_555 1_555
N2_5 H37_7 1_555 1_555
H32_6 N2_6 1_555 1_555
C48_4 N2_6 1_555 1_555
H33_4 C48_4 1_555 1_555
H35_4 C48_4 1_555 1_555
N2_6 H37_8 1_555 1_555

#END
