
###############################################################################
#
# This file contains modified crystal structure data generated from the
# MOF subset of the Cambridge Structural Database (CSD) v543 
# hosted by the Cambridge Crystallographic Data Centre (CCDC).
#
# This work is licensed under the Creative Commons
# Attribution-NonCommercial-ShareAlike 4.0 International License.
# To view a copy of this license, visit
# http://creativecommons.org/licenses/by-nc-sa/4.0/
# or send a letter to
# Creative Commons, PO Box 1866, Mountain View, CA 94042, USA.
#
# CIF created using the CSD Python API on 29 September 2022
# The structure has been converted into the P1 space group
# The structure has a 3D framework
# The original CSD entry TUBCAW is in the monoclinic crystal system
# The framework has been calculated to contain at least 10.0% void space
# The void calculation uses a probe of radius 1.32A, grid spacing 0.4
# H atom positions have been added when not included in the experimental data
#
###############################################################################

data_TUBCAW
_chemical_formula_moiety         '(C96 H88 Cd16 N48 O32)n'
_symmetry_cell_setting           triclinic
_symmetry_space_group_name_H-M   'P 1'
_symmetry_Int_Tables_number      1
_space_group_name_Hall           'P 1'
loop_
_symmetry_equiv_pos_site_id
_symmetry_equiv_pos_as_xyz
1 x,y,z
_cell_length_a                   27.9637(16)
_cell_length_b                   7.2809(4)
_cell_length_c                   19.2168(11)
_cell_angle_alpha                90
_cell_angle_beta                 111.8870(10)
_cell_angle_gamma                90
_cell_volume                     3630.54
loop_
_atom_site_label
_atom_site_type_symbol
_atom_site_fract_x
_atom_site_fract_y
_atom_site_fract_z
Cd1 Cd 0.125099(10) 0.22000(4) 0.153438(14)
C1 C 0.20583(15) 0.0738(5) 0.0809(2)
C2 C 0.21605(15) 0.0478(5) 0.0096(2)
O1 O 0.20227(9) 0.2501(3) 0.24295(13)
H9 H 0.1952 0.2670 0.2766
O2 O 0.24021(12) 0.0198(4) 0.14057(15)
O3 O 0.0886(2) 0.2110(9) 0.2426(3)
H10 H 0.0961 0.3171 0.2884
O4 O 0.16405(11) 0.1505(5) 0.07343(15)
Cd6 Cd 0.253570(9) 0.48315(4) 0.236215(13)
N7 N 0.32588(11) 0.1380(4) 0.31082(17)
N8 N 0.13067(11) 0.5787(5) 0.13514(18)
N10 N 0.04647(12) 0.2424(4) 0.05933(18)
H11 H 0.0990621 0.0913813 0.268685
C4 C 0.17887(16) 0.0927(8) 0.9414(2)
H1 H 0.1464 0.1303 0.9384
C6 C 0.18995(16) 0.0819(8) 0.8776(2)
H2 H 0.1645 0.1141 0.8320
N5 N 0.23600(13) 0.0267(5) 0.87835(18)
Cd7 Cd 0.246430(9) 0.01685(4) 0.763785(13)
Cd2 Cd 0.246430(9) 0.98315(4) 0.263785(13)
C3 C 0.10051(15) 0.7276(5) 0.1170(2)
C5 C 0.04918(14) 0.7357(5) 0.0564(2)
C7 C 0.00709(14) 0.8038(6) 0.0692(2)
H3 H 0.0103 0.8434 0.1168
C10 C 0.26312(17) 0.9866(6) 0.0107(2)
H6 H 0.2888 0.9510 0.0556
N1 N 0.12386(10) 0.8730(4) 0.15786(16)
N2 N 0.17003(11) 0.8106(4) 0.20244(16)
N3 N 0.17412(11) 0.6380(4) 0.18918(17)
N9 N 0.23600(13) 0.9733(5) 0.37835(18)
O5 O 0.29773(9) 0.7501(3) 0.25705(13)
C11 C 0.99438(15) 0.6928(6) 0.9288(2)
H7 H 0.9903 0.6557 0.8806
N6 N 0.95353(12) 0.7576(4) 0.94067(18)
Cd4 Cd 0.874901(10) 0.78000(4) 0.846562(14)
C8 C 0.03991(15) 0.8120(6) 0.4901(2)
H4 H 0.0682 0.8574 0.4813
C11_2 C 0.00562(15) 0.6928(6) 0.5712(2)
H7_2 H 0.0097 0.6557 0.6194
N6_2 N 0.04647(12) 0.7576(4) 0.55933(18)
Cd4_2 Cd 0.125099(10) 0.78000(4) 0.653438(14)
Cd1_2 Cd 0.874901(10) 0.22000(4) 0.346562(14)
C1_2 C 0.79417(15) 0.0738(5) 0.4191(2)
C2_2 C 0.78395(15) 0.0478(5) 0.4904(2)
C4_2 C 0.82113(16) 0.0927(8) 0.5586(2)
H1_2 H 0.8536 0.1303 0.5616
C6_2 C 0.81005(16) 0.0819(8) 0.6224(2)
H2_2 H 0.8355 0.1141 0.6680
N5_2 N 0.76400(13) 0.0267(5) 0.62165(18)
O1_2 O 0.79773(9) 0.2501(3) 0.25705(13)
H9_2 H 0.8048 0.2670 0.2234
O2_2 O 0.75979(12) 0.0198(4) 0.35943(15)
O3_2 O 0.9114(2) 0.2110(9) 0.2574(3)
H10_2 H 0.9039 0.3171 0.2116
O4_2 O 0.83595(11) 0.1505(5) 0.42657(15)
Cd6_2 Cd 0.746430(9) 0.48315(4) 0.263785(13)
Cd7_2 Cd 0.753570(9) 0.01685(4) 0.736215(13)
N7_2 N 0.67412(11) 0.1380(4) 0.18918(17)
N8_2 N 0.86933(11) 0.5787(5) 0.36486(18)
N10_2 N 0.95353(12) 0.2424(4) 0.44067(18)
H11_2 H 0.900938 0.0913813 0.231315
Cd2_2 Cd 0.753570(9) 0.98315(4) 0.236215(13)
C3_2 C 0.89949(15) 0.7276(5) 0.3830(2)
C5_2 C 0.95082(14) 0.7357(5) 0.4436(2)
C7_2 C 0.99291(14) 0.8038(6) 0.4308(2)
H3_2 H 0.9897 0.8434 0.3832
C9 C 0.72850(17) 0.9790(6) 0.5552(2)
H5 H 0.6966 0.9386 0.5536
C10_2 C 0.73688(17) 0.9866(6) 0.4893(2)
H6_2 H 0.7112 0.9510 0.4444
C12 C 0.95747(15) 0.6784(6) 0.5151(2)
H8 H 0.9299 0.6308 0.5253
N1_2 N 0.87614(10) 0.8730(4) 0.34214(16)
N2_2 N 0.82997(11) 0.8106(4) 0.29756(16)
N3_2 N 0.82588(11) 0.6380(4) 0.31082(17)
N9_2 N 0.76400(13) 0.9733(5) 0.12165(18)
O5_2 O 0.70227(9) 0.7501(3) 0.24295(13)
N8_3 N 0.63067(11) 0.0787(5) 0.13514(18)
Cd1_3 Cd 0.625099(10) 0.72000(4) 0.153438(14)
C1_3 C 0.70583(15) 0.5738(5) 0.0809(2)
C2_3 C 0.71605(15) 0.5478(5) 0.0096(2)
C3_3 C 0.60051(15) 0.2276(5) 0.1170(2)
C5_3 C 0.54918(14) 0.2357(5) 0.0564(2)
C7_3 C 0.50709(14) 0.3038(6) 0.0692(2)
H3_3 H 0.5103 0.3434 0.1168
C8_2 C 0.46009(15) 0.3120(6) 0.0099(2)
H4_2 H 0.4318 0.3574 0.0187
C10_3 C 0.76312(17) 0.4866(6) 0.0107(2)
H6_3 H 0.7888 0.4510 0.0556
N1_3 N 0.62386(10) 0.3730(4) 0.15786(16)
N2_3 N 0.67003(11) 0.3106(4) 0.20244(16)
H9_3 H 0.6952 0.7670 0.2766
O2_3 O 0.74021(12) 0.5198(4) 0.14057(15)
O3_3 O 0.5886(2) 0.7110(9) 0.2426(3)
H10_3 H 0.5961 0.8171 0.2884
O4_3 O 0.66405(11) 0.6505(5) 0.07343(15)
N9_3 N 0.73600(13) 0.4733(5) 0.37835(18)
N10_3 N 0.54647(12) 0.7424(4) 0.05933(18)
H11_3 H 0.599062 0.591381 0.268685
C4_3 C 0.67887(16) 0.5927(8) 0.9414(2)
H1_3 H 0.6464 0.6303 0.9384
C6_3 C 0.68995(16) 0.5819(8) 0.8776(2)
H2_3 H 0.6645 0.6141 0.8320
C9_2 C 0.77150(17) 0.4790(6) 0.9448(2)
H5_2 H 0.8034 0.4386 0.9464
C11_3 C 0.49438(15) 0.1928(6) 0.9288(2)
H7_3 H 0.4903 0.1557 0.8806
C12_2 C 0.54253(15) 0.1784(6) 0.9849(2)
H8_2 H 0.5701 0.1308 0.9747
N5_3 N 0.73600(13) 0.5267(5) 0.87835(18)
N6_3 N 0.45353(12) 0.2576(4) 0.94067(18)
Cd4_3 Cd 0.374901(10) 0.28000(4) 0.846562(14)
Cd7_3 Cd 0.746430(9) 0.51685(4) 0.763785(13)
N8_4 N 0.36933(11) 0.0787(5) 0.36486(18)
Cd1_4 Cd 0.374901(10) 0.72000(4) 0.346562(14)
C1_4 C 0.29417(15) 0.5738(5) 0.4191(2)
C2_4 C 0.28395(15) 0.5478(5) 0.4904(2)
C3_4 C 0.39949(15) 0.2276(5) 0.3830(2)
C4_4 C 0.32113(16) 0.5927(8) 0.5586(2)
H1_4 H 0.3536 0.6303 0.5616
C5_4 C 0.45082(14) 0.2357(5) 0.4436(2)
C6_4 C 0.31005(16) 0.5819(8) 0.6224(2)
H2_4 H 0.3355 0.6141 0.6680
C7_4 C 0.49291(14) 0.3038(6) 0.4308(2)
H3_4 H 0.4897 0.3434 0.3832
C8_3 C 0.53991(15) 0.3120(6) 0.4901(2)
H4_3 H 0.5682 0.3574 0.4813
C9_3 C 0.22850(17) 0.4790(6) 0.5552(2)
H5_3 H 0.1966 0.4386 0.5536
C10_4 C 0.23688(17) 0.4866(6) 0.4893(2)
H6_4 H 0.2112 0.4510 0.4444
C11_4 C 0.50562(15) 0.1928(6) 0.5712(2)
H7_4 H 0.5097 0.1557 0.6194
C12_3 C 0.45747(15) 0.1784(6) 0.5151(2)
H8_3 H 0.4299 0.1308 0.5253
N1_4 N 0.37614(10) 0.3730(4) 0.34214(16)
N2_4 N 0.32997(11) 0.3106(4) 0.29756(16)
N5_4 N 0.26400(13) 0.5267(5) 0.62165(18)
N6_4 N 0.54647(12) 0.2576(4) 0.55933(18)
H9_4 H 0.3048 0.7670 0.2234
O2_4 O 0.25979(12) 0.5198(4) 0.35943(15)
O3_4 O 0.4114(2) 0.7110(9) 0.2574(3)
H10_4 H 0.4039 0.8171 0.2116
O4_4 O 0.33595(11) 0.6505(5) 0.42657(15)
Cd4_4 Cd 0.625099(10) 0.28000(4) 0.653438(14)
Cd7_4 Cd 0.253570(9) 0.51685(4) 0.736215(13)
N9_4 N 0.26400(13) 0.4733(5) 0.12165(18)
N10_4 N 0.45353(12) 0.7424(4) 0.44067(18)
H11_4 H 0.400938 0.591381 0.231315
C11_5 C 0.00562(15) 0.3072(6) 0.0712(2)
H7_5 H 0.0097 0.3443 0.1194
C3_5 C 0.89949(15) 0.2724(5) 0.8830(2)
C5_5 C 0.95082(14) 0.2643(5) 0.9436(2)
C7_5 C 0.99291(14) 0.1962(6) 0.9308(2)
H3_5 H 0.9897 0.1566 0.8832
C10_5 C 0.73688(17) 0.0134(6) 0.9893(2)
H6_5 H 0.7112 0.0490 0.9444
N1_5 N 0.87614(10) 0.1270(4) 0.84214(16)
N2_5 N 0.82997(11) 0.1894(4) 0.79756(16)
N3_3 N 0.82588(11) 0.3620(4) 0.81082(17)
N4 N 0.86933(11) 0.4213(5) 0.86486(18)
O5_3 O 0.70227(9) 0.2499(3) 0.74295(13)
C4_5 C 0.82113(16) 0.9073(8) 0.0586(2)
H1_5 H 0.8536 0.8697 0.0616
C6_5 C 0.81005(16) 0.9181(8) 0.1224(2)
H2_5 H 0.8355 0.8859 0.1680
C1_5 C 0.79417(15) 0.9262(5) 0.9191(2)
C2_5 C 0.78395(15) 0.9522(5) 0.9904(2)
O1_3 O 0.79773(9) 0.7499(3) 0.75705(13)
H9_5 H 0.8048 0.7330 0.7234
O2_5 O 0.75979(12) 0.9802(4) 0.85943(15)
O3_5 O 0.9114(2) 0.7890(9) 0.7574(3)
H10_5 H 0.9039 0.6829 0.7116
O4_5 O 0.83595(11) 0.8495(5) 0.92657(15)
N7_3 N 0.67412(11) 0.8620(4) 0.68918(17)
H11_5 H 0.900938 0.908619 0.731315
C3_6 C 0.10051(15) 0.2724(5) 0.6170(2)
C5_6 C 0.04918(14) 0.2643(5) 0.5564(2)
C7_6 C 0.00709(14) 0.1962(6) 0.5692(2)
H3_6 H 0.0103 0.1566 0.6168
C9_4 C 0.27150(17) 0.0210(6) 0.4448(2)
H5_4 H 0.3034 0.0614 0.4464
C10_6 C 0.26312(17) 0.0134(6) 0.5107(2)
H6_6 H 0.2888 0.0490 0.5556
C12_4 C 0.04253(15) 0.3216(6) 0.4849(2)
H8_4 H 0.0701 0.3692 0.4747
N1_6 N 0.12386(10) 0.1270(4) 0.65786(16)
N2_6 N 0.17003(11) 0.1894(4) 0.70244(16)
N3_4 N 0.17412(11) 0.3620(4) 0.68918(17)
N4_2 N 0.13067(11) 0.4213(5) 0.63514(18)
O5_4 O 0.29773(9) 0.2499(3) 0.75705(13)
C1_6 C 0.20583(15) 0.9262(5) 0.5809(2)
C2_6 C 0.21605(15) 0.9522(5) 0.5096(2)
C4_6 C 0.17887(16) 0.9073(8) 0.4414(2)
H1_6 H 0.1464 0.8697 0.4384
C6_6 C 0.18995(16) 0.9181(8) 0.3776(2)
H2_6 H 0.1645 0.8859 0.3320
O1_4 O 0.20227(9) 0.7499(3) 0.74295(13)
H9_6 H 0.1952 0.7330 0.7766
O2_6 O 0.24021(12) 0.9802(4) 0.64057(15)
O3_6 O 0.0886(2) 0.7890(9) 0.7426(3)
H10_6 H 0.0961 0.6829 0.7884
O4_6 O 0.16405(11) 0.8495(5) 0.57343(15)
N7_4 N 0.32588(11) 0.8620(4) 0.81082(17)
H11_6 H 0.0990621 0.908619 0.768685
C8_4 C 0.96009(15) 0.1880(6) 0.5099(2)
H4_4 H 0.9318 0.1426 0.5187
C11_6 C 0.99438(15) 0.3072(6) 0.4288(2)
H7_6 H 0.9903 0.3443 0.3806
C4_7 C 0.32113(16) 0.4073(8) 0.0586(2)
H1_7 H 0.3536 0.3697 0.0616
C6_7 C 0.31005(16) 0.4181(8) 0.1224(2)
H2_7 H 0.3355 0.3859 0.1680
C9_5 C 0.22850(17) 0.5210(6) 0.0552(2)
H5_5 H 0.1966 0.5614 0.0536
C11_7 C 0.50562(15) 0.8072(6) 0.0712(2)
H7_7 H 0.5097 0.8443 0.1194
C12_5 C 0.45747(15) 0.8216(6) 0.0151(2)
H8_5 H 0.4299 0.8692 0.0253
C1_7 C 0.29417(15) 0.4262(5) 0.9191(2)
C2_7 C 0.28395(15) 0.4522(5) 0.9904(2)
C3_7 C 0.39949(15) 0.7724(5) 0.8830(2)
C5_7 C 0.45082(14) 0.7643(5) 0.9436(2)
C7_7 C 0.49291(14) 0.6962(6) 0.9308(2)
H3_7 H 0.4897 0.6566 0.8832
C8_5 C 0.53991(15) 0.6880(6) 0.9901(2)
H4_5 H 0.5682 0.6426 0.9813
C10_7 C 0.23688(17) 0.5134(6) 0.9893(2)
H6_7 H 0.2112 0.5490 0.9444
N1_7 N 0.37614(10) 0.6270(4) 0.84214(16)
N2_7 N 0.32997(11) 0.6894(4) 0.79756(16)
N4_3 N 0.36933(11) 0.9213(5) 0.86486(18)
H9_7 H 0.3048 0.2330 0.7234
O2_7 O 0.25979(12) 0.4802(4) 0.85943(15)
O3_7 O 0.4114(2) 0.2890(9) 0.7574(3)
H10_7 H 0.4039 0.1829 0.7116
O4_7 O 0.33595(11) 0.3495(5) 0.92657(15)
H11_7 H 0.400938 0.408619 0.731315
C1_8 C 0.70583(15) 0.4262(5) 0.5809(2)
C2_8 C 0.71605(15) 0.4522(5) 0.5096(2)
C3_8 C 0.60051(15) 0.7724(5) 0.6170(2)
C4_8 C 0.67887(16) 0.4073(8) 0.4414(2)
H1_8 H 0.6464 0.3697 0.4384
C5_8 C 0.54918(14) 0.7643(5) 0.5564(2)
C6_8 C 0.68995(16) 0.4181(8) 0.3776(2)
H2_8 H 0.6645 0.3859 0.3320
C7_8 C 0.50709(14) 0.6962(6) 0.5692(2)
H3_8 H 0.5103 0.6566 0.6168
C8_6 C 0.46009(15) 0.6880(6) 0.5099(2)
H4_6 H 0.4318 0.6426 0.5187
C9_6 C 0.77150(17) 0.5210(6) 0.4448(2)
H5_6 H 0.8034 0.5614 0.4464
C10_8 C 0.76312(17) 0.5134(6) 0.5107(2)
H6_8 H 0.7888 0.5490 0.5556
C11_8 C 0.49438(15) 0.8072(6) 0.4288(2)
H7_8 H 0.4903 0.8443 0.3806
C12_6 C 0.54253(15) 0.8216(6) 0.4849(2)
H8_6 H 0.5701 0.8692 0.4747
N1_8 N 0.62386(10) 0.6270(4) 0.65786(16)
N2_8 N 0.67003(11) 0.6894(4) 0.70244(16)
N4_4 N 0.63067(11) 0.9213(5) 0.63514(18)
H9_8 H 0.6952 0.2330 0.7766
O2_8 O 0.74021(12) 0.4802(4) 0.64057(15)
O3_8 O 0.5886(2) 0.2890(9) 0.7426(3)
H10_8 H 0.5961 0.1829 0.7884
O4_8 O 0.66405(11) 0.3495(5) 0.57343(15)
H11_8 H 0.599062 0.408619 0.768685
C9_7 C 0.27150(17) 0.9790(6) 0.9448(2)
H5_7 H 0.3034 0.9386 0.9464
C12_7 C 0.04253(15) 0.6784(6) 0.9849(2)
H8_7 H 0.0701 0.6308 0.9747
C8_7 C 0.96009(15) 0.8120(6) 0.0099(2)
H4_7 H 0.9318 0.8574 0.0187
C8_8 C 0.03991(15) 0.1880(6) 0.9901(2)
H4_8 H 0.0682 0.1426 0.9813
C9_8 C 0.72850(17) 0.0210(6) 0.0552(2)
H5_8 H 0.6966 0.0614 0.0536
C12_8 C 0.95747(15) 0.3216(6) 0.0151(2)
H8_8 H 0.9299 0.3692 0.0253
loop_
_geom_bond_atom_site_label_1
_geom_bond_atom_site_label_2
_geom_bond_site_symmetry_1
_geom_bond_site_symmetry_2
C1 C2 1_555 1_555
O1 Cd1 1_555 1_555
H9 O1 1_555 1_555
O3 Cd1 1_555 1_555
H10 O3 1_555 1_555
O4 Cd1 1_555 1_555
Cd6 O1 1_555 1_555
N8 Cd1 1_555 1_555
N10 Cd1 1_555 1_555
C1 O2 1_555 1_555
C1 O4 1_555 1_555
O3 H11 1_555 1_555
C4 H1 1_555 1_555
C6 C4 1_555 1_555
H2 C6 1_555 1_555
N5 C6 1_555 1_555
Cd7 N5 1_555 1_555
Cd2 N2 1_555 1_555
C3 C5 1_555 1_555
C5 C7 1_555 1_555
C7 H3 1_555 1_555
H6 C10 1_555 1_555
N1 C3 1_555 1_555
N2 N1 1_555 1_555
N3 N2 1_555 1_555
N8 C3 1_555 1_555
Cd6 N3 1_555 1_555
N9 Cd2 1_555 1_555
O5 Cd2 1_555 1_555
N3 N8 1_555 1_555
Cd6 O5 1_555 1_555
C11 H7 1_555 1_555
Cd4 N6 1_555 1_555
C11 N6 1_555 1_555
H4 C8 1_555 1_555
C11_2 H7_2 1_555 1_555
N6_2 C8 1_555 1_555
Cd4_2 N6_2 1_555 1_555
C11_2 N6_2 1_555 1_555
C1_2 C2_2 1_555 1_555
C2_2 C4_2 1_555 1_555
C4_2 H1_2 1_555 1_555
C6_2 C4_2 1_555 1_555
H2_2 C6_2 1_555 1_555
N5_2 C6_2 1_555 1_555
O1_2 Cd1_2 1_555 1_555
H9_2 O1_2 1_555 1_555
O3_2 Cd1_2 1_555 1_555
H10_2 O3_2 1_555 1_555
O4_2 Cd1_2 1_555 1_555
Cd6_2 O1_2 1_555 1_555
Cd7_2 N5_2 1_555 1_555
N8_2 Cd1_2 1_555 1_555
N10_2 Cd1_2 1_555 1_555
C1_2 O2_2 1_555 1_555
C1_2 O4_2 1_555 1_555
O3_2 H11_2 1_555 1_555
Cd2_2 N2_2 1_555 1_555
C3_2 C5_2 1_555 1_555
C5_2 C7_2 1_555 1_555
C7_2 H3_2 1_555 1_555
C9 H5 1_555 1_555
H6_2 C10_2 1_555 1_555
C12 C5_2 1_555 1_555
H8 C12 1_555 1_555
N1_2 C3_2 1_555 1_555
N2_2 N1_2 1_555 1_555
N3_2 N2_2 1_555 1_555
N8_2 C3_2 1_555 1_555
Cd6_2 N3_2 1_555 1_555
N9_2 Cd2_2 1_555 1_555
O5_2 Cd2_2 1_555 1_555
C9 C10_2 1_555 1_555
N3_2 N8_2 1_555 1_555
Cd6_2 O5_2 1_555 1_555
Cd1_3 N1_3 1_555 1_555
Cd6_2 N2_3 1_555 1_555
C1_3 C2_3 1_555 1_555
C3_3 C5_3 1_555 1_555
C5_3 C7_3 1_555 1_555
C7_3 H3_3 1_555 1_555
C8_2 C7_3 1_555 1_555
H4_2 C8_2 1_555 1_555
C10_3 C2_3 1_555 1_555
H6_3 C10_3 1_555 1_555
N1_3 C3_3 1_555 1_555
N2_3 N1_3 1_555 1_555
N7_2 N2_3 1_555 1_555
N8_3 C3_3 1_555 1_555
O5_2 Cd1_3 1_555 1_555
H9_3 O5_2 1_555 1_555
O2_3 Cd6_2 1_555 1_555
O3_3 Cd1_3 1_555 1_555
H10_3 O3_3 1_555 1_555
O4_3 Cd1_3 1_555 1_555
N9_3 Cd6_2 1_555 1_555
N10_3 Cd1_3 1_555 1_555
C1_3 O2_3 1_555 1_555
C1_3 O4_3 1_555 1_555
N7_2 N8_3 1_555 1_555
O3_3 H11_3 1_555 1_555
C4_3 H1_3 1_555 1_555
C6_3 C4_3 1_555 1_555
H2_3 C6_3 1_555 1_555
C9_2 H5_2 1_555 1_555
C11_3 H7_3 1_555 1_555
H8_2 C12_2 1_555 1_555
N5_3 C6_3 1_555 1_555
Cd4_3 N6_3 1_555 1_555
Cd7_3 N5_3 1_555 1_555
C9_2 N5_3 1_555 1_555
C11_3 C12_2 1_555 1_555
C11_3 N6_3 1_555 1_555
Cd1_4 N1_4 1_555 1_555
Cd6 N2_4 1_555 1_555
C1_4 C2_4 1_555 1_555
C2_4 C4_4 1_555 1_555
C3_4 C5_4 1_555 1_555
C4_4 H1_4 1_555 1_555
C5_4 C7_4 1_555 1_555
C6_4 C4_4 1_555 1_555
H2_4 C6_4 1_555 1_555
C7_4 H3_4 1_555 1_555
C8_3 C7_4 1_555 1_555
H4_3 C8_3 1_555 1_555
C9_3 H5_3 1_555 1_555
C10_4 C2_4 1_555 1_555
H6_4 C10_4 1_555 1_555
C11_4 H7_4 1_555 1_555
C12_3 C5_4 1_555 1_555
H8_3 C12_3 1_555 1_555
N1_4 C3_4 1_555 1_555
N2_4 N1_4 1_555 1_555
N7 N2_4 1_555 1_555
N8_4 C3_4 1_555 1_555
N5_4 C6_4 1_555 1_555
N6_4 C8_3 1_555 1_555
O5 Cd1_4 1_555 1_555
H9_4 O5 1_555 1_555
O2_4 Cd6 1_555 1_555
O3_4 Cd1_4 1_555 1_555
H10_4 O3_4 1_555 1_555
O4_4 Cd1_4 1_555 1_555
Cd4_4 N6_4 1_555 1_555
Cd7_4 N5_4 1_555 1_555
N9_4 Cd6 1_555 1_555
N10_4 Cd1_4 1_555 1_555
C1_4 O2_4 1_555 1_555
C1_4 O4_4 1_555 1_555
C9_3 C10_4 1_555 1_555
C9_3 N5_4 1_555 1_555
C11_4 C12_3 1_555 1_555
C11_4 N6_4 1_555 1_555
N7 N8_4 1_555 1_555
O3_4 H11_4 1_555 1_555
C11_5 H7_5 1_555 1_555
C11_5 N10 1_555 1_555
Cd7_2 N2_5 1_555 1_555
C3_5 C5_5 1_555 1_555
C5_5 C7_5 1_555 1_555
C7_5 H3_5 1_555 1_555
H6_5 C10_5 1_555 1_555
N1_5 C3_5 1_555 1_555
N2_5 N1_5 1_555 1_555
N3_3 N2_5 1_555 1_555
N4 C3_5 1_555 1_555
Cd4 N4 1_555 1_555
Cd7_3 N3_3 1_555 1_555
O5_3 Cd7_2 1_555 1_555
N3_3 N4 1_555 1_555
Cd7_3 O5_3 1_555 1_555
C4_5 H1_5 1_555 1_555
C6_5 C4_5 1_555 1_555
H2_5 C6_5 1_555 1_555
N9_2 C6_5 1_555 1_555
C1_5 C2_5 1_555 1_555
O1_3 Cd4 1_555 1_555
H9_5 O1_3 1_555 1_555
O3_5 Cd4 1_555 1_555
H10_5 O3_5 1_555 1_555
O4_5 Cd4 1_555 1_555
Cd7_3 O1_3 1_555 1_555
C1_5 O2_5 1_555 1_555
C1_5 O4_5 1_555 1_555
O3_5 H11_5 1_555 1_555
Cd7 N2_6 1_555 1_555
C3_6 C5_6 1_555 1_555
C5_6 C7_6 1_555 1_555
C7_6 H3_6 1_555 1_555
C9_4 H5_4 1_555 1_555
H6_6 C10_6 1_555 1_555
C12_4 C5_6 1_555 1_555
H8_4 C12_4 1_555 1_555
N1_6 C3_6 1_555 1_555
N2_6 N1_6 1_555 1_555
N3_4 N2_6 1_555 1_555
N4_2 C3_6 1_555 1_555
Cd4_2 N4_2 1_555 1_555
Cd7_4 N3_4 1_555 1_555
O5_4 Cd7 1_555 1_555
C9_4 C10_6 1_555 1_555
N3_4 N4_2 1_555 1_555
Cd7_4 O5_4 1_555 1_555
C1_6 C2_6 1_555 1_555
C2_6 C4_6 1_555 1_555
C4_6 H1_6 1_555 1_555
C6_6 C4_6 1_555 1_555
H2_6 C6_6 1_555 1_555
N9 C6_6 1_555 1_555
O1_4 Cd4_2 1_555 1_555
H9_6 O1_4 1_555 1_555
O3_6 Cd4_2 1_555 1_555
H10_6 O3_6 1_555 1_555
O4_6 Cd4_2 1_555 1_555
Cd7_4 O1_4 1_555 1_555
C1_6 O2_6 1_555 1_555
C1_6 O4_6 1_555 1_555
O3_6 H11_6 1_555 1_555
H4_4 C8_4 1_555 1_555
C11_6 H7_6 1_555 1_555
N10_2 C8_4 1_555 1_555
C11_6 N10_2 1_555 1_555
C4_7 H1_7 1_555 1_555
C6_7 C4_7 1_555 1_555
H2_7 C6_7 1_555 1_555
C9_5 H5_5 1_555 1_555
C11_7 H7_7 1_555 1_555
H8_5 C12_5 1_555 1_555
N9_4 C6_7 1_555 1_555
C9_5 N9_4 1_555 1_555
C11_7 C12_5 1_555 1_555
C11_7 N10_3 1_555 1_555
Cd4_3 N1_7 1_555 1_555
Cd7_4 N2_7 1_555 1_555
C1_7 C2_7 1_555 1_555
C3_7 C5_7 1_555 1_555
C5_7 C7_7 1_555 1_555
C7_7 H3_7 1_555 1_555
C8_5 C7_7 1_555 1_555
H4_5 C8_5 1_555 1_555
C10_7 C2_7 1_555 1_555
H6_7 C10_7 1_555 1_555
N1_7 C3_7 1_555 1_555
N2_7 N1_7 1_555 1_555
N7_4 N2_7 1_555 1_555
N4_3 C3_7 1_555 1_555
O5_4 Cd4_3 1_555 1_555
H9_7 O5_4 1_555 1_555
O2_7 Cd7_4 1_555 1_555
O3_7 Cd4_3 1_555 1_555
H10_7 O3_7 1_555 1_555
O4_7 Cd4_3 1_555 1_555
C1_7 O2_7 1_555 1_555
C1_7 O4_7 1_555 1_555
N7_4 N4_3 1_555 1_555
O3_7 H11_7 1_555 1_555
Cd4_4 N1_8 1_555 1_555
Cd7_3 N2_8 1_555 1_555
C1_8 C2_8 1_555 1_555
C2_8 C4_8 1_555 1_555
C3_8 C5_8 1_555 1_555
C4_8 H1_8 1_555 1_555
C5_8 C7_8 1_555 1_555
C6_8 C4_8 1_555 1_555
H2_8 C6_8 1_555 1_555
C7_8 H3_8 1_555 1_555
C8_6 C7_8 1_555 1_555
H4_6 C8_6 1_555 1_555
C9_6 H5_6 1_555 1_555
C10_8 C2_8 1_555 1_555
H6_8 C10_8 1_555 1_555
C11_8 H7_8 1_555 1_555
C12_6 C5_8 1_555 1_555
H8_6 C12_6 1_555 1_555
N1_8 C3_8 1_555 1_555
N2_8 N1_8 1_555 1_555
N7_3 N2_8 1_555 1_555
N4_4 C3_8 1_555 1_555
N9_3 C6_8 1_555 1_555
N10_4 C8_6 1_555 1_555
O5_3 Cd4_4 1_555 1_555
H9_8 O5_3 1_555 1_555
O2_8 Cd7_3 1_555 1_555
O3_8 Cd4_4 1_555 1_555
H10_8 O3_8 1_555 1_555
O4_8 Cd4_4 1_555 1_555
C1_8 O2_8 1_555 1_555
C1_8 O4_8 1_555 1_555
C9_6 C10_8 1_555 1_555
C9_6 N9_3 1_555 1_555
C11_8 C12_6 1_555 1_555
C11_8 N10_4 1_555 1_555
N7_3 N4_4 1_555 1_555
O3_8 H11_8 1_555 1_555
C9_7 H5_7 1_555 1_555
H8_7 C12_7 1_555 1_555
H4_7 C8_7 1_555 1_555
H4_8 C8_8 1_555 1_555
C9_8 H5_8 1_555 1_555
H8_8 C12_8 1_555 1_555

#END
