
###############################################################################
#
# This file contains modified crystal structure data generated from the
# MOF subset of the Cambridge Structural Database (CSD) v543 
# hosted by the Cambridge Crystallographic Data Centre (CCDC).
#
# This work is licensed under the Creative Commons
# Attribution-NonCommercial-ShareAlike 4.0 International License.
# To view a copy of this license, visit
# http://creativecommons.org/licenses/by-nc-sa/4.0/
# or send a letter to
# Creative Commons, PO Box 1866, Mountain View, CA 94042, USA.
#
# CIF created using the CSD Python API on 29 September 2022
# The structure has been converted into the P1 space group
# The structure has a 3D framework
# The original CSD entry TUBDAY is in the cubic crystal system
# The framework has been calculated to contain at least 10.0% void space
# The void calculation uses a probe of radius 1.32A, grid spacing 0.4
# H atom positions have been added when not included in the experimental data
# Generated hydrogen atom positions removed from atoms on special positions
#
###############################################################################

data_TUBDAY
_chemical_formula_moiety         '(C768 H1152 Ca72 Co24 N128 O528)n'
_symmetry_cell_setting           triclinic
_symmetry_space_group_name_H-M   'P 1'
_symmetry_Int_Tables_number      1
_space_group_name_Hall           'P 1'
loop_
_symmetry_equiv_pos_site_id
_symmetry_equiv_pos_as_xyz
1 x,y,z
_cell_length_a                   37.082(3)
_cell_length_b                   37.082(3)
_cell_length_c                   37.082(3)
_cell_angle_alpha                90
_cell_angle_beta                 90
_cell_angle_gamma                90
_cell_volume                     50990.5
loop_
_atom_site_label
_atom_site_type_symbol
_atom_site_fract_x
_atom_site_fract_y
_atom_site_fract_z
Ca3 Ca -0.000000 0.18324(4) 0.30613(5)
O25 O 0.04012(12) 0.17052(16) 0.25321(13)
O26 O -0.000000 0.20119(18) 0.36942(17)
O27 O 0.000000 0.24519(14) 0.28835(17)
O36 O 0.03805(7) 0.13376(7) 0.32836(10)
O39 O 0.06303(8) 0.20308(8) 0.32112(9)
H39 H 0.0105354 0.181552 0.384268
H40 H 0.0146022 0.22344 0.372388
H48 H 0.0247432 0.252385 0.281064
Ca1 Ca 0.80613(5) 0.500000 0.18324(4)
Co1 Co 0.86194(2) 0.36194(2) 0.13806(2)
O1 O 0.84895(7) 0.40810(7) 0.11754(7)
O2 O 0.82836(10) 0.46195(7) 0.13376(7)
O3 O 0.82112(9) 0.43697(8) 0.20308(8)
N1 N 0.84126(8) 0.38158(8) 0.18165(8)
N2 N 0.82051(8) 0.32051(8) 0.32051(8)
C1 C 0.83692(11) 0.43023(11) 0.14073(11)
C2 C 0.83259(11) 0.41619(11) 0.17895(10)
C3 C 0.83694(10) 0.36513(9) 0.21639(10)
C4 C 0.86574(10) 0.36064(10) 0.23981(10)
H1 H 0.889329 0.367418 0.232477
C5 C 0.86023(10) 0.34629(10) 0.27385(10)
H2 H 0.880085 0.343528 0.289812
C6 C 0.82586(9) 0.33588(9) 0.28493(9)
C7 C 0.79765(10) 0.33984(11) 0.26106(10)
H3 H 0.774165 0.332385 0.268092
C8 C 0.80269(10) 0.35426(11) 0.22746(10)
H4 H 0.782741 0.356877 0.211599
O4 O 0.75321(13) 0.54012(12) 0.17052(16)
O5 O 0.86942(17) 0.500000 0.20119(18)
O6 O 0.78835(17) 0.500000 0.24519(14)
O7 O 0.90810(7) 0.11754(7) 0.34895(7)
O8 O 0.96195(7) 0.13376(7) 0.32836(10)
O9 O 0.93697(8) 0.20308(8) 0.32112(9)
N3 N 0.88158(8) 0.18165(8) 0.34126(8)
C9 C 0.93023(11) 0.14073(11) 0.33692(11)
C10 C 0.91619(11) 0.17895(10) 0.33259(11)
C11 C 0.86513(9) 0.21639(10) 0.33694(10)
C12 C 0.86064(10) 0.23981(10) 0.36574(10)
H5 H 0.867418 0.232477 0.389329
C13 C 0.84629(10) 0.27385(10) 0.36023(10)
H6 H 0.843528 0.289812 0.380085
C14 C 0.83588(9) 0.28493(9) 0.32586(9)
C15 C 0.83984(11) 0.26106(10) 0.29765(10)
H7 H 0.832385 0.268092 0.274165
C16 C 0.85426(11) 0.22746(10) 0.30269(10)
H8 H 0.856877 0.211599 0.282741
O10 O 0.61754(7) 0.34895(7) 0.40810(7)
O11 O 0.63376(7) 0.32836(10) 0.46195(7)
O12 O 0.70308(8) 0.32112(9) 0.43697(8)
N4 N 0.68165(8) 0.34126(8) 0.38158(8)
C17 C 0.64073(11) 0.33692(11) 0.43023(11)
C18 C 0.67895(10) 0.33259(11) 0.41619(11)
C19 C 0.71639(10) 0.33694(10) 0.36513(9)
C20 C 0.73981(10) 0.36574(10) 0.36064(10)
H9 H 0.732477 0.389329 0.367418
C21 C 0.77385(10) 0.36023(10) 0.34629(10)
H10 H 0.789812 0.380085 0.343528
C22 C 0.78493(9) 0.32586(9) 0.33588(9)
C23 C 0.76106(10) 0.29765(10) 0.33984(11)
H11 H 0.768092 0.274165 0.332385
C24 C 0.72746(10) 0.30269(10) 0.35426(11)
H12 H 0.711599 0.282741 0.356877
Ca2 Ca 0.81676(4) 0.19387(5) 0.500000
Co2 Co 0.86194(2) 0.13806(2) 0.36194(2)
O13 O 0.88246(7) 0.15105(7) 0.40810(7)
O14 O 0.86624(7) 0.17164(10) 0.46195(7)
O15 O 0.79692(8) 0.17888(9) 0.43697(8)
N5 N 0.81835(8) 0.15874(8) 0.38158(8)
N6 N 0.67949(8) 0.17949(8) 0.32051(8)
C25 C 0.85927(11) 0.16308(11) 0.43023(11)
C26 C 0.82105(10) 0.16741(11) 0.41619(11)
C27 C 0.78361(10) 0.16306(10) 0.36513(9)
C28 C 0.76019(10) 0.13426(10) 0.36064(10)
H13 H 0.767523 0.110671 0.367418
C29 C 0.72615(10) 0.13977(10) 0.34629(10)
H14 H 0.710188 0.119915 0.343528
C30 C 0.71507(9) 0.17414(9) 0.33588(9)
C31 C 0.73894(10) 0.20235(10) 0.33984(11)
H15 H 0.731908 0.225835 0.332385
C32 C 0.77254(10) 0.19731(10) 0.35426(11)
H16 H 0.788401 0.217259 0.356877
O16 O 0.82948(16) 0.24679(13) 0.54012(12)
O17 O 0.79881(18) 0.13058(17) 0.500000
O18 O 0.75481(14) 0.21165(17) 0.500000
O19 O 0.65105(7) 0.09190(7) 0.11754(7)
O20 O 0.67164(10) 0.03805(7) 0.13376(7)
O21 O 0.67888(9) 0.06303(8) 0.20308(8)
N7 N 0.65874(8) 0.11842(8) 0.18165(8)
C33 C 0.66308(11) 0.06977(11) 0.14073(11)
C34 C 0.66741(11) 0.08381(11) 0.17895(10)
C35 C 0.66306(10) 0.13487(9) 0.21639(10)
C36 C 0.63426(10) 0.13936(10) 0.23981(10)
H17 H 0.610671 0.132582 0.232477
C37 C 0.63977(10) 0.15371(10) 0.27385(10)
H18 H 0.619915 0.156472 0.289812
C38 C 0.67414(9) 0.16412(9) 0.28493(9)
C39 C 0.70235(10) 0.16016(11) 0.26106(10)
H19 H 0.725835 0.167615 0.268092
C40 C 0.69731(10) 0.14574(11) 0.22746(10)
H20 H 0.717259 0.143123 0.211599
O22 O 0.59190(7) 0.38246(7) 0.34895(7)
O23 O 0.53805(7) 0.36624(7) 0.32836(10)
O24 O 0.56303(8) 0.29692(8) 0.32112(9)
N8 N 0.61842(8) 0.31835(8) 0.34126(8)
C41 C 0.56977(11) 0.35927(11) 0.33692(11)
C42 C 0.58381(11) 0.32105(10) 0.33259(11)
C43 C 0.63487(9) 0.28361(10) 0.33694(10)
C44 C 0.63936(10) 0.26019(10) 0.36574(10)
H21 H 0.632582 0.267523 0.389329
C45 C 0.65371(10) 0.22615(10) 0.36023(10)
H22 H 0.656472 0.210188 0.380085
C46 C 0.66412(9) 0.21507(9) 0.32586(9)
C47 C 0.66016(11) 0.23894(10) 0.29765(10)
H23 H 0.667615 0.231908 0.274165
C48 C 0.64574(11) 0.27254(10) 0.30269(10)
H24 H 0.643123 0.288401 0.282741
Ca3_2 Ca 1.000000 0.18324(4) 0.30613(5)
O26_2 O 1.000000 0.20119(18) 0.36942(17)
O27_2 O 1.000000 0.24519(14) 0.28835(17)
O28 O 0.75321(13) 0.45988(12) 0.17052(16)
O29 O 0.82948(16) 0.24679(13) 0.45988(12)
O30 O 0.95988(12) 0.17052(16) 0.25321(13)
Ca4 Ca 0.500000 0.31676(4) 0.30613(5)
Ca5 Ca 0.69387(5) 0.000000 0.18324(4)
Ca6 Ca 0.68324(4) 0.30613(5) 0.500000
Co3 Co 0.63806(2) 0.13806(2) 0.13806(2)
Co4 Co 0.63806(2) 0.36194(2) 0.36194(2)
O31 O 0.84895(7) 0.09190(7) 0.38246(7)
O32 O 0.88246(7) 0.34895(7) 0.09190(7)
O33 O 0.90810(7) 0.38246(7) 0.15105(7)
O34 O 0.82836(10) 0.53805(7) 0.13376(7)
O35 O 0.86624(7) 0.17164(10) 0.53805(7)
O37 O 0.82112(9) 0.56303(8) 0.20308(8)
O38 O 0.79692(8) 0.17888(9) 0.56303(8)
N9 N 0.84126(8) 0.11842(8) 0.31835(8)
N10 N 0.81835(8) 0.34126(8) 0.11842(8)
N11 N 0.88158(8) 0.31835(8) 0.15874(8)
H47 H 0.991975 0.260373 0.308896
Ca5_2 Ca 0.69387(5) 1.000000 0.18324(4)
Ca5_3 Ca 0.30613(5) 0.000000 0.18324(4)
Ca1_2 Ca 0.19387(5) 0.500000 0.18324(4)
Co1_2 Co 0.13806(2) 0.63806(2) 0.13806(2)
O1_2 O 0.15105(7) 0.59190(7) 0.11754(7)
O2_2 O 0.17164(10) 0.53805(7) 0.13376(7)
O3_2 O 0.17888(9) 0.56303(8) 0.20308(8)
N1_2 N 0.15874(8) 0.61842(8) 0.18165(8)
N2_2 N 0.17949(8) 0.67949(8) 0.32051(8)
C1_2 C 0.16308(11) 0.56977(11) 0.14073(11)
C2_2 C 0.16741(11) 0.58381(11) 0.17895(10)
C3_2 C 0.16306(10) 0.63487(9) 0.21639(10)
C4_2 C 0.13426(10) 0.63936(10) 0.23981(10)
H1_2 H 0.110671 0.632582 0.232477
C5_2 C 0.13977(10) 0.65371(10) 0.27385(10)
H2_2 H 0.119915 0.656472 0.289812
C6_2 C 0.17414(9) 0.66412(9) 0.28493(9)
C7_2 C 0.20235(10) 0.66016(11) 0.26106(10)
H3_2 H 0.225835 0.667615 0.268092
C8_2 C 0.19731(10) 0.64574(11) 0.22746(10)
H4_2 H 0.217259 0.643123 0.211599
O4_2 O 0.24679(13) 0.45988(12) 0.17052(16)
O5_2 O 0.13058(17) 0.500000 0.20119(18)
O6_2 O 0.21165(17) 0.500000 0.24519(14)
O7_2 O 0.09190(7) 0.88246(7) 0.34895(7)
O8_2 O 0.03805(7) 0.86624(7) 0.32836(10)
O9_2 O 0.06303(8) 0.79692(8) 0.32112(9)
N3_2 N 0.11842(8) 0.81835(8) 0.34126(8)
C9_2 C 0.06977(11) 0.85927(11) 0.33692(11)
C10_2 C 0.08381(11) 0.82105(10) 0.33259(11)
C11_2 C 0.13487(9) 0.78361(10) 0.33694(10)
C12_2 C 0.13936(10) 0.76019(10) 0.36574(10)
H5_2 H 0.132582 0.767523 0.389329
C13_2 C 0.15371(10) 0.72615(10) 0.36023(10)
H6_2 H 0.156472 0.710188 0.380085
C14_2 C 0.16412(9) 0.71507(9) 0.32586(9)
C15_2 C 0.16016(11) 0.73894(10) 0.29765(10)
H7_2 H 0.167615 0.731908 0.274165
C16_2 C 0.14574(11) 0.77254(10) 0.30269(10)
H8_2 H 0.143123 0.788401 0.282741
O10_2 O 0.38246(7) 0.65105(7) 0.40810(7)
O11_2 O 0.36624(7) 0.67164(10) 0.46195(7)
O12_2 O 0.29692(8) 0.67888(9) 0.43697(8)
N4_2 N 0.31835(8) 0.65874(8) 0.38158(8)
C17_2 C 0.35927(11) 0.66308(11) 0.43023(11)
C18_2 C 0.32105(10) 0.66741(11) 0.41619(11)
C19_2 C 0.28361(10) 0.66306(10) 0.36513(9)
C20_2 C 0.26019(10) 0.63426(10) 0.36064(10)
H9_2 H 0.267523 0.610671 0.367418
C21_2 C 0.22615(10) 0.63977(10) 0.34629(10)
H10_2 H 0.210188 0.619915 0.343528
C22_2 C 0.21507(9) 0.67414(9) 0.33588(9)
C23_2 C 0.23894(10) 0.70235(10) 0.33984(11)
H11_2 H 0.231908 0.725835 0.332385
C24_2 C 0.27254(10) 0.69731(10) 0.35426(11)
H12_2 H 0.288401 0.717259 0.356877
Ca2_2 Ca 0.18324(4) 0.80613(5) 0.500000
Co2_2 Co 0.13806(2) 0.86194(2) 0.36194(2)
O13_2 O 0.11754(7) 0.84895(7) 0.40810(7)
O14_2 O 0.13376(7) 0.82836(10) 0.46195(7)
O15_2 O 0.20308(8) 0.82112(9) 0.43697(8)
N5_2 N 0.18165(8) 0.84126(8) 0.38158(8)
N6_2 N 0.32051(8) 0.82051(8) 0.32051(8)
C25_2 C 0.14073(11) 0.83692(11) 0.43023(11)
C26_2 C 0.17895(10) 0.83259(11) 0.41619(11)
C27_2 C 0.21639(10) 0.83694(10) 0.36513(9)
C28_2 C 0.23981(10) 0.86574(10) 0.36064(10)
H13_2 H 0.232477 0.889329 0.367418
C29_2 C 0.27385(10) 0.86023(10) 0.34629(10)
H14_2 H 0.289812 0.880085 0.343528
C30_2 C 0.28493(9) 0.82586(9) 0.33588(9)
C31_2 C 0.26106(10) 0.79765(10) 0.33984(11)
H15_2 H 0.268092 0.774165 0.332385
C32_2 C 0.22746(10) 0.80269(10) 0.35426(11)
H16_2 H 0.211599 0.782741 0.356877
O16_2 O 0.17052(16) 0.75321(13) 0.54012(12)
O17_2 O 0.20119(18) 0.86942(17) 0.500000
O18_2 O 0.24519(14) 0.78835(17) 0.500000
O19_2 O 0.34895(7) 0.90810(7) 0.11754(7)
O20_2 O 0.32836(10) 0.96195(7) 0.13376(7)
O21_2 O 0.32112(9) 0.93697(8) 0.20308(8)
N7_2 N 0.34126(8) 0.88158(8) 0.18165(8)
C33_2 C 0.33692(11) 0.93023(11) 0.14073(11)
C34_2 C 0.33259(11) 0.91619(11) 0.17895(10)
C35_2 C 0.33694(10) 0.86513(9) 0.21639(10)
C36_2 C 0.36574(10) 0.86064(10) 0.23981(10)
H17_2 H 0.389329 0.867418 0.232477
C37_2 C 0.36023(10) 0.84629(10) 0.27385(10)
H18_2 H 0.380085 0.843528 0.289812
C38_2 C 0.32586(9) 0.83588(9) 0.28493(9)
C39_2 C 0.29765(10) 0.83984(11) 0.26106(10)
H19_2 H 0.274165 0.832385 0.268092
C40_2 C 0.30269(10) 0.85426(11) 0.22746(10)
H20_2 H 0.282741 0.856877 0.211599
O22_2 O 0.40810(7) 0.61754(7) 0.34895(7)
O23_2 O 0.46195(7) 0.63376(7) 0.32836(10)
O24_2 O 0.43697(8) 0.70308(8) 0.32112(9)
N8_2 N 0.38158(8) 0.68165(8) 0.34126(8)
C41_2 C 0.43023(11) 0.64073(11) 0.33692(11)
C42_2 C 0.41619(11) 0.67895(10) 0.33259(11)
C43_2 C 0.36513(9) 0.71639(10) 0.33694(10)
C44_2 C 0.36064(10) 0.73981(10) 0.36574(10)
H21_2 H 0.367418 0.732477 0.389329
C45_2 C 0.34629(10) 0.77385(10) 0.36023(10)
H22_2 H 0.343528 0.789812 0.380085
C46_2 C 0.33588(9) 0.78493(9) 0.32586(9)
C47_2 C 0.33984(11) 0.76106(10) 0.29765(10)
H23_2 H 0.332385 0.768092 0.274165
C48_2 C 0.35426(11) 0.72746(10) 0.30269(10)
H24_2 H 0.356877 0.711599 0.282741
Ca3_3 Ca 0.000000 0.81676(4) 0.30613(5)
O26_3 O 0.000000 0.79881(18) 0.36942(17)
O27_3 O -0.000000 0.75481(14) 0.28835(17)
O28_2 O 0.24679(13) 0.54012(12) 0.17052(16)
O29_2 O 0.17052(16) 0.75321(13) 0.45988(12)
O30_2 O 0.04012(12) 0.82948(16) 0.25321(13)
Ca4_2 Ca 0.500000 0.68324(4) 0.30613(5)
Ca5_4 Ca 0.30613(5) 1.000000 0.18324(4)
Ca6_2 Ca 0.31676(4) 0.69387(5) 0.500000
Co3_2 Co 0.36194(2) 0.86194(2) 0.13806(2)
Co4_2 Co 0.36194(2) 0.63806(2) 0.36194(2)
O31_2 O 0.15105(7) 0.90810(7) 0.38246(7)
O32_2 O 0.11754(7) 0.65105(7) 0.09190(7)
O33_2 O 0.09190(7) 0.61754(7) 0.15105(7)
O34_2 O 0.17164(10) 0.46195(7) 0.13376(7)
O35_2 O 0.13376(7) 0.82836(10) 0.53805(7)
O37_2 O 0.17888(9) 0.43697(8) 0.20308(8)
O38_2 O 0.20308(8) 0.82112(9) 0.56303(8)
N9_2 N 0.15874(8) 0.88158(8) 0.31835(8)
N10_2 N 0.18165(8) 0.65874(8) 0.11842(8)
N11_2 N 0.11842(8) 0.68165(8) 0.15874(8)
H47_2 H 0.00802547 0.739627 0.308896
Ca3_4 Ca 1.000000 0.81676(4) 0.30613(5)
O25_2 O 0.95988(12) 0.82948(16) 0.25321(13)
O26_4 O 1.000000 0.79881(18) 0.36942(17)
O27_4 O 1.000000 0.75481(14) 0.28835(17)
O36_2 O 0.96195(7) 0.86624(7) 0.32836(10)
O39_2 O 0.93697(8) 0.79692(8) 0.32112(9)
H39_2 H 0.989465 0.818448 0.384268
H40_2 H 0.985398 0.77656 0.372388
H48_2 H 0.975257 0.747615 0.281064
Ca1_3 Ca 0.19387(5) 0.500000 0.81676(4)
Co1_3 Co 0.13806(2) 0.36194(2) 0.86194(2)
O1_3 O 0.15105(7) 0.40810(7) 0.88246(7)
O2_3 O 0.17164(10) 0.46195(7) 0.86624(7)
O3_3 O 0.17888(9) 0.43697(8) 0.79692(8)
N1_3 N 0.15874(8) 0.38158(8) 0.81835(8)
N2_3 N 0.17949(8) 0.32051(8) 0.67949(8)
C1_3 C 0.16308(11) 0.43023(11) 0.85927(11)
C2_3 C 0.16741(11) 0.41619(11) 0.82105(10)
C3_3 C 0.16306(10) 0.36513(9) 0.78361(10)
C4_3 C 0.13426(10) 0.36064(10) 0.76019(10)
H1_3 H 0.110671 0.367418 0.767523
C5_3 C 0.13977(10) 0.34629(10) 0.72615(10)
H2_3 H 0.119915 0.343528 0.710188
C6_3 C 0.17414(9) 0.33588(9) 0.71507(9)
C7_3 C 0.20235(10) 0.33984(11) 0.73894(10)
H3_3 H 0.225835 0.332385 0.731908
C8_3 C 0.19731(10) 0.35426(11) 0.77254(10)
H4_3 H 0.217259 0.356877 0.788401
O4_3 O 0.24679(13) 0.54012(12) 0.82948(16)
O5_3 O 0.13058(17) 0.500000 0.79881(18)
O6_3 O 0.21165(17) 0.500000 0.75481(14)
O7_3 O 0.09190(7) 0.11754(7) 0.65105(7)
O8_3 O 0.03805(7) 0.13376(7) 0.67164(10)
O9_3 O 0.06303(8) 0.20308(8) 0.67888(9)
N3_3 N 0.11842(8) 0.18165(8) 0.65874(8)
C9_3 C 0.06977(11) 0.14073(11) 0.66308(11)
C10_3 C 0.08381(11) 0.17895(10) 0.66741(11)
C11_3 C 0.13487(9) 0.21639(10) 0.66306(10)
C12_3 C 0.13936(10) 0.23981(10) 0.63426(10)
H5_3 H 0.132582 0.232477 0.610671
C13_3 C 0.15371(10) 0.27385(10) 0.63977(10)
H6_3 H 0.156472 0.289812 0.619915
C14_3 C 0.16412(9) 0.28493(9) 0.67414(9)
C15_3 C 0.16016(11) 0.26106(10) 0.70235(10)
H7_3 H 0.167615 0.268092 0.725835
C16_3 C 0.14574(11) 0.22746(10) 0.69731(10)
H8_3 H 0.143123 0.211599 0.717259
O10_3 O 0.38246(7) 0.34895(7) 0.59190(7)
O11_3 O 0.36624(7) 0.32836(10) 0.53805(7)
O12_3 O 0.29692(8) 0.32112(9) 0.56303(8)
N4_3 N 0.31835(8) 0.34126(8) 0.61842(8)
C17_3 C 0.35927(11) 0.33692(11) 0.56977(11)
C18_3 C 0.32105(10) 0.33259(11) 0.58381(11)
C19_3 C 0.28361(10) 0.33694(10) 0.63487(9)
C20_3 C 0.26019(10) 0.36574(10) 0.63936(10)
H9_3 H 0.267523 0.389329 0.632582
C21_3 C 0.22615(10) 0.36023(10) 0.65371(10)
H10_3 H 0.210188 0.380085 0.656472
C22_3 C 0.21507(9) 0.32586(9) 0.66412(9)
C23_3 C 0.23894(10) 0.29765(10) 0.66016(11)
H11_3 H 0.231908 0.274165 0.667615
C24_3 C 0.27254(10) 0.30269(10) 0.64574(11)
H12_3 H 0.288401 0.282741 0.643123
Ca2_3 Ca 0.18324(4) 0.19387(5) 0.500000
Co2_3 Co 0.13806(2) 0.13806(2) 0.63806(2)
O13_3 O 0.11754(7) 0.15105(7) 0.59190(7)
O14_3 O 0.13376(7) 0.17164(10) 0.53805(7)
O15_3 O 0.20308(8) 0.17888(9) 0.56303(8)
N5_3 N 0.18165(8) 0.15874(8) 0.61842(8)
N6_3 N 0.32051(8) 0.17949(8) 0.67949(8)
C25_3 C 0.14073(11) 0.16308(11) 0.56977(11)
C26_3 C 0.17895(10) 0.16741(11) 0.58381(11)
C27_3 C 0.21639(10) 0.16306(10) 0.63487(9)
C28_3 C 0.23981(10) 0.13426(10) 0.63936(10)
H13_3 H 0.232477 0.110671 0.632582
C29_3 C 0.27385(10) 0.13977(10) 0.65371(10)
H14_3 H 0.289812 0.119915 0.656472
C30_3 C 0.28493(9) 0.17414(9) 0.66412(9)
C31_3 C 0.26106(10) 0.20235(10) 0.66016(11)
H15_3 H 0.268092 0.225835 0.667615
C32_3 C 0.22746(10) 0.19731(10) 0.64574(11)
H16_3 H 0.211599 0.217259 0.643123
O16_3 O 0.17052(16) 0.24679(13) 0.45988(12)
O17_3 O 0.20119(18) 0.13058(17) 0.500000
O18_3 O 0.24519(14) 0.21165(17) 0.500000
O19_3 O 0.34895(7) 0.09190(7) 0.88246(7)
O20_3 O 0.32836(10) 0.03805(7) 0.86624(7)
O21_3 O 0.32112(9) 0.06303(8) 0.79692(8)
N7_3 N 0.34126(8) 0.11842(8) 0.81835(8)
C33_3 C 0.33692(11) 0.06977(11) 0.85927(11)
C34_3 C 0.33259(11) 0.08381(11) 0.82105(10)
C35_3 C 0.33694(10) 0.13487(9) 0.78361(10)
C36_3 C 0.36574(10) 0.13936(10) 0.76019(10)
H17_3 H 0.389329 0.132582 0.767523
C37_3 C 0.36023(10) 0.15371(10) 0.72615(10)
H18_3 H 0.380085 0.156472 0.710188
C38_3 C 0.32586(9) 0.16412(9) 0.71507(9)
C39_3 C 0.29765(10) 0.16016(11) 0.73894(10)
H19_3 H 0.274165 0.167615 0.731908
C40_3 C 0.30269(10) 0.14574(11) 0.77254(10)
H20_3 H 0.282741 0.143123 0.788401
O22_3 O 0.40810(7) 0.38246(7) 0.65105(7)
O23_3 O 0.46195(7) 0.36624(7) 0.67164(10)
O24_3 O 0.43697(8) 0.29692(8) 0.67888(9)
N8_3 N 0.38158(8) 0.31835(8) 0.65874(8)
C41_3 C 0.43023(11) 0.35927(11) 0.66308(11)
C42_3 C 0.41619(11) 0.32105(10) 0.66741(11)
C43_3 C 0.36513(9) 0.28361(10) 0.66306(10)
C44_3 C 0.36064(10) 0.26019(10) 0.63426(10)
H21_3 H 0.367418 0.267523 0.610671
C45_3 C 0.34629(10) 0.22615(10) 0.63977(10)
H22_3 H 0.343528 0.210188 0.619915
C46_3 C 0.33588(9) 0.21507(9) 0.67414(9)
C47_3 C 0.33984(11) 0.23894(10) 0.70235(10)
H23_3 H 0.332385 0.231908 0.725835
C48_3 C 0.35426(11) 0.27254(10) 0.69731(10)
H24_3 H 0.356877 0.288401 0.717259
Ca3_5 Ca 0.000000 0.18324(4) 0.69387(5)
O26_5 O -0.000000 0.20119(18) 0.63058(17)
O27_5 O -0.000000 0.24519(14) 0.71165(17)
O28_3 O 0.24679(13) 0.45988(12) 0.82948(16)
O29_3 O 0.17052(16) 0.24679(13) 0.54012(12)
O30_3 O 0.04012(12) 0.17052(16) 0.74679(13)
Ca4_3 Ca 0.500000 0.31676(4) 0.69387(5)
Ca5_5 Ca 0.30613(5) 0.000000 0.81676(4)
Ca6_3 Ca 0.31676(4) 0.30613(5) 0.500000
Co3_3 Co 0.36194(2) 0.13806(2) 0.86194(2)
Co4_3 Co 0.36194(2) 0.36194(2) 0.63806(2)
O31_3 O 0.15105(7) 0.09190(7) 0.61754(7)
O32_3 O 0.11754(7) 0.34895(7) 0.90810(7)
O33_3 O 0.09190(7) 0.38246(7) 0.84895(7)
O34_3 O 0.17164(10) 0.53805(7) 0.86624(7)
O35_3 O 0.13376(7) 0.17164(10) 0.46195(7)
O37_3 O 0.17888(9) 0.56303(8) 0.79692(8)
O38_3 O 0.20308(8) 0.17888(9) 0.43697(8)
N9_3 N 0.15874(8) 0.11842(8) 0.68165(8)
N10_3 N 0.18165(8) 0.34126(8) 0.88158(8)
N11_3 N 0.11842(8) 0.31835(8) 0.84126(8)
H47_3 H 0.00802547 0.260373 0.691104
Ca5_6 Ca 0.30613(5) 1.000000 0.81676(4)
Ca3_6 Ca 1.000000 0.18324(4) 0.69387(5)
O25_3 O 0.95988(12) 0.17052(16) 0.74679(13)
O26_6 O 1.000000 0.20119(18) 0.63058(17)
O27_6 O 1.000000 0.24519(14) 0.71165(17)
O36_3 O 0.96195(7) 0.13376(7) 0.67164(10)
O39_3 O 0.93697(8) 0.20308(8) 0.67888(9)
H39_3 H 0.989465 0.181552 0.615732
H40_3 H 0.985398 0.22344 0.627612
H48_3 H 0.975257 0.252385 0.718936
Ca3_7 Ca -0.000000 0.81676(4) 0.69387(5)
O25_4 O 0.04012(12) 0.82948(16) 0.74679(13)
O26_7 O -0.000000 0.79881(18) 0.63058(17)
O27_7 O 0.000000 0.75481(14) 0.71165(17)
O36_4 O 0.03805(7) 0.86624(7) 0.67164(10)
O39_4 O 0.06303(8) 0.79692(8) 0.67888(9)
H39_4 H 0.0105354 0.818448 0.615732
H40_4 H 0.0146022 0.77656 0.627612
H48_4 H 0.0247432 0.747615 0.718936
Ca5_7 Ca 0.69387(5) 0.000000 0.81676(4)
Ca1_4 Ca 0.80613(5) 0.500000 0.81676(4)
Co1_4 Co 0.86194(2) 0.63806(2) 0.86194(2)
O1_4 O 0.84895(7) 0.59190(7) 0.88246(7)
O2_4 O 0.82836(10) 0.53805(7) 0.86624(7)
O3_4 O 0.82112(9) 0.56303(8) 0.79692(8)
N1_4 N 0.84126(8) 0.61842(8) 0.81835(8)
N2_4 N 0.82051(8) 0.67949(8) 0.67949(8)
C1_4 C 0.83692(11) 0.56977(11) 0.85927(11)
C2_4 C 0.83259(11) 0.58381(11) 0.82105(10)
C3_4 C 0.83694(10) 0.63487(9) 0.78361(10)
C4_4 C 0.86574(10) 0.63936(10) 0.76019(10)
H1_4 H 0.889329 0.632582 0.767523
C5_4 C 0.86023(10) 0.65371(10) 0.72615(10)
H2_4 H 0.880085 0.656472 0.710188
C6_4 C 0.82586(9) 0.66412(9) 0.71507(9)
C7_4 C 0.79765(10) 0.66016(11) 0.73894(10)
H3_4 H 0.774165 0.667615 0.731908
C8_4 C 0.80269(10) 0.64574(11) 0.77254(10)
H4_4 H 0.782741 0.643123 0.788401
O4_4 O 0.75321(13) 0.45988(12) 0.82948(16)
O5_4 O 0.86942(17) 0.500000 0.79881(18)
O6_4 O 0.78835(17) 0.500000 0.75481(14)
O7_4 O 0.90810(7) 0.88246(7) 0.65105(7)
O8_4 O 0.96195(7) 0.86624(7) 0.67164(10)
O9_4 O 0.93697(8) 0.79692(8) 0.67888(9)
N3_4 N 0.88158(8) 0.81835(8) 0.65874(8)
C9_4 C 0.93023(11) 0.85927(11) 0.66308(11)
C10_4 C 0.91619(11) 0.82105(10) 0.66741(11)
C11_4 C 0.86513(9) 0.78361(10) 0.66306(10)
C12_4 C 0.86064(10) 0.76019(10) 0.63426(10)
H5_4 H 0.867418 0.767523 0.610671
C13_4 C 0.84629(10) 0.72615(10) 0.63977(10)
H6_4 H 0.843528 0.710188 0.619915
C14_4 C 0.83588(9) 0.71507(9) 0.67414(9)
C15_4 C 0.83984(11) 0.73894(10) 0.70235(10)
H7_4 H 0.832385 0.731908 0.725835
C16_4 C 0.85426(11) 0.77254(10) 0.69731(10)
H8_4 H 0.856877 0.788401 0.717259
O10_4 O 0.61754(7) 0.65105(7) 0.59190(7)
O11_4 O 0.63376(7) 0.67164(10) 0.53805(7)
O12_4 O 0.70308(8) 0.67888(9) 0.56303(8)
N4_4 N 0.68165(8) 0.65874(8) 0.61842(8)
C17_4 C 0.64073(11) 0.66308(11) 0.56977(11)
C18_4 C 0.67895(10) 0.66741(11) 0.58381(11)
C19_4 C 0.71639(10) 0.66306(10) 0.63487(9)
C20_4 C 0.73981(10) 0.63426(10) 0.63936(10)
H9_4 H 0.732477 0.610671 0.632582
C21_4 C 0.77385(10) 0.63977(10) 0.65371(10)
H10_4 H 0.789812 0.619915 0.656472
C22_4 C 0.78493(9) 0.67414(9) 0.66412(9)
C23_4 C 0.76106(10) 0.70235(10) 0.66016(11)
H11_4 H 0.768092 0.725835 0.667615
C24_4 C 0.72746(10) 0.69731(10) 0.64574(11)
H12_4 H 0.711599 0.717259 0.643123
Ca2_4 Ca 0.81676(4) 0.80613(5) 0.500000
Co2_4 Co 0.86194(2) 0.86194(2) 0.63806(2)
O13_4 O 0.88246(7) 0.84895(7) 0.59190(7)
O14_4 O 0.86624(7) 0.82836(10) 0.53805(7)
O15_4 O 0.79692(8) 0.82112(9) 0.56303(8)
N5_4 N 0.81835(8) 0.84126(8) 0.61842(8)
N6_4 N 0.67949(8) 0.82051(8) 0.67949(8)
C25_4 C 0.85927(11) 0.83692(11) 0.56977(11)
C26_4 C 0.82105(10) 0.83259(11) 0.58381(11)
C27_4 C 0.78361(10) 0.83694(10) 0.63487(9)
C28_4 C 0.76019(10) 0.86574(10) 0.63936(10)
H13_4 H 0.767523 0.889329 0.632582
C29_4 C 0.72615(10) 0.86023(10) 0.65371(10)
H14_4 H 0.710188 0.880085 0.656472
C30_4 C 0.71507(9) 0.82586(9) 0.66412(9)
C31_4 C 0.73894(10) 0.79765(10) 0.66016(11)
H15_4 H 0.731908 0.774165 0.667615
C32_4 C 0.77254(10) 0.80269(10) 0.64574(11)
H16_4 H 0.788401 0.782741 0.643123
O16_4 O 0.82948(16) 0.75321(13) 0.45988(12)
O17_4 O 0.79881(18) 0.86942(17) 0.500000
O18_4 O 0.75481(14) 0.78835(17) 0.500000
O19_4 O 0.65105(7) 0.90810(7) 0.88246(7)
O20_4 O 0.67164(10) 0.96195(7) 0.86624(7)
O21_4 O 0.67888(9) 0.93697(8) 0.79692(8)
N7_4 N 0.65874(8) 0.88158(8) 0.81835(8)
C33_4 C 0.66308(11) 0.93023(11) 0.85927(11)
C34_4 C 0.66741(11) 0.91619(11) 0.82105(10)
C35_4 C 0.66306(10) 0.86513(9) 0.78361(10)
C36_4 C 0.63426(10) 0.86064(10) 0.76019(10)
H17_4 H 0.610671 0.867418 0.767523
C37_4 C 0.63977(10) 0.84629(10) 0.72615(10)
H18_4 H 0.619915 0.843528 0.710188
C38_4 C 0.67414(9) 0.83588(9) 0.71507(9)
C39_4 C 0.70235(10) 0.83984(11) 0.73894(10)
H19_4 H 0.725835 0.832385 0.731908
C40_4 C 0.69731(10) 0.85426(11) 0.77254(10)
H20_4 H 0.717259 0.856877 0.788401
O22_4 O 0.59190(7) 0.61754(7) 0.65105(7)
O23_4 O 0.53805(7) 0.63376(7) 0.67164(10)
O24_4 O 0.56303(8) 0.70308(8) 0.67888(9)
N8_4 N 0.61842(8) 0.68165(8) 0.65874(8)
C41_4 C 0.56977(11) 0.64073(11) 0.66308(11)
C42_4 C 0.58381(11) 0.67895(10) 0.66741(11)
C43_4 C 0.63487(9) 0.71639(10) 0.66306(10)
C44_4 C 0.63936(10) 0.73981(10) 0.63426(10)
H21_4 H 0.632582 0.732477 0.610671
C45_4 C 0.65371(10) 0.77385(10) 0.63977(10)
H22_4 H 0.656472 0.789812 0.619915
C46_4 C 0.66412(9) 0.78493(9) 0.67414(9)
C47_4 C 0.66016(11) 0.76106(10) 0.70235(10)
H23_4 H 0.667615 0.768092 0.725835
C48_4 C 0.64574(11) 0.72746(10) 0.69731(10)
H24_4 H 0.643123 0.711599 0.717259
Ca3_8 Ca 1.000000 0.81676(4) 0.69387(5)
O26_8 O 1.000000 0.79881(18) 0.63058(17)
O27_8 O 1.000000 0.75481(14) 0.71165(17)
O28_4 O 0.75321(13) 0.54012(12) 0.82948(16)
O29_4 O 0.82948(16) 0.75321(13) 0.54012(12)
O30_4 O 0.95988(12) 0.82948(16) 0.74679(13)
Ca4_4 Ca 0.500000 0.68324(4) 0.69387(5)
Ca5_8 Ca 0.69387(5) 1.000000 0.81676(4)
Ca6_4 Ca 0.68324(4) 0.69387(5) 0.500000
Co3_4 Co 0.63806(2) 0.86194(2) 0.86194(2)
Co4_4 Co 0.63806(2) 0.63806(2) 0.63806(2)
O31_4 O 0.84895(7) 0.90810(7) 0.61754(7)
O32_4 O 0.88246(7) 0.65105(7) 0.90810(7)
O33_4 O 0.90810(7) 0.61754(7) 0.84895(7)
O34_4 O 0.82836(10) 0.46195(7) 0.86624(7)
O35_4 O 0.86624(7) 0.82836(10) 0.46195(7)
O37_4 O 0.82112(9) 0.43697(8) 0.79692(8)
O38_4 O 0.79692(8) 0.82112(9) 0.43697(8)
N9_4 N 0.84126(8) 0.88158(8) 0.68165(8)
N10_4 N 0.81835(8) 0.65874(8) 0.88158(8)
N11_4 N 0.88158(8) 0.68165(8) 0.84126(8)
H47_4 H 0.991975 0.739627 0.691104
O25_5 O 0.25321(13) 0.04012(12) 0.17052(16)
O26_9 O 0.36942(17) -0.000000 0.20119(18)
O27_9 O 0.28835(17) 0.000000 0.24519(14)
O36_5 O 0.32836(10) 0.03805(7) 0.13376(7)
O39_5 O 0.32112(9) 0.06303(8) 0.20308(8)
H39_5 H 0.384268 0.0105354 0.181552
H40_5 H 0.372388 0.0146022 0.22344
H48_5 H 0.281064 0.0247432 0.252385
Ca2_5 Ca 0.500000 0.81676(4) 0.19387(5)
O13_5 O 0.40810(7) 0.88246(7) 0.15105(7)
O14_5 O 0.46195(7) 0.86624(7) 0.17164(10)
O15_5 O 0.43697(8) 0.79692(8) 0.17888(9)
N5_5 N 0.38158(8) 0.81835(8) 0.15874(8)
N6_5 N 0.32051(8) 0.67949(8) 0.17949(8)
C25_5 C 0.43023(11) 0.85927(11) 0.16308(11)
C26_5 C 0.41619(11) 0.82105(10) 0.16741(11)
C27_5 C 0.36513(9) 0.78361(10) 0.16306(10)
C28_5 C 0.36064(10) 0.76019(10) 0.13426(10)
H13_5 H 0.367418 0.767523 0.110671
C29_5 C 0.34629(10) 0.72615(10) 0.13977(10)
H14_5 H 0.343528 0.710188 0.119915
C30_5 C 0.33588(9) 0.71507(9) 0.17414(9)
C31_5 C 0.33984(11) 0.73894(10) 0.20235(10)
H15_5 H 0.332385 0.731908 0.225835
C32_5 C 0.35426(11) 0.77254(10) 0.19731(10)
H16_5 H 0.356877 0.788401 0.217259
O16_5 O 0.54012(12) 0.82948(16) 0.24679(13)
O17_5 O 0.500000 0.79881(18) 0.13058(17)
O18_5 O 0.500000 0.75481(14) 0.21165(17)
O20_5 O 0.13376(7) 0.67164(10) 0.03805(7)
O21_5 O 0.20308(8) 0.67888(9) 0.06303(8)
C33_5 C 0.14073(11) 0.66308(11) 0.06977(11)
C34_5 C 0.17895(10) 0.66741(11) 0.08381(11)
C35_5 C 0.21639(10) 0.66306(10) 0.13487(9)
C36_5 C 0.23981(10) 0.63426(10) 0.13936(10)
H17_5 H 0.232477 0.610671 0.132582
C37_5 C 0.27385(10) 0.63977(10) 0.15371(10)
H18_5 H 0.289812 0.619915 0.156472
C38_5 C 0.28493(9) 0.67414(9) 0.16412(9)
C39_5 C 0.26106(10) 0.70235(10) 0.16016(11)
H19_5 H 0.268092 0.725835 0.167615
C40_5 C 0.22746(10) 0.69731(10) 0.14574(11)
H20_5 H 0.211599 0.717259 0.143123
O22_5 O 0.34895(7) 0.59190(7) 0.38246(7)
O23_5 O 0.32836(10) 0.53805(7) 0.36624(7)
O24_5 O 0.32112(9) 0.56303(8) 0.29692(8)
N8_5 N 0.34126(8) 0.61842(8) 0.31835(8)
C41_5 C 0.33692(11) 0.56977(11) 0.35927(11)
C42_5 C 0.33259(11) 0.58381(11) 0.32105(10)
C43_5 C 0.33694(10) 0.63487(9) 0.28361(10)
C44_5 C 0.36574(10) 0.63936(10) 0.26019(10)
H21_5 H 0.389329 0.632582 0.267523
C45_5 C 0.36023(10) 0.65371(10) 0.22615(10)
H22_5 H 0.380085 0.656472 0.210188
C46_5 C 0.32586(9) 0.66412(9) 0.21507(9)
C47_5 C 0.29765(10) 0.66016(11) 0.23894(10)
H23_5 H 0.274165 0.667615 0.231908
C48_5 C 0.30269(10) 0.64574(11) 0.27254(10)
H24_5 H 0.282741 0.643123 0.288401
O26_10 O 0.36942(17) 1.000000 0.20119(18)
O27_10 O 0.28835(17) 1.000000 0.24519(14)
O29_5 O 0.45988(12) 0.82948(16) 0.24679(13)
O30_5 O 0.25321(13) 0.95988(12) 0.17052(16)
Ca4_5 Ca 0.30613(5) 0.500000 0.31676(4)
Ca5_9 Ca 0.18324(4) 0.69387(5) 0.000000
O31_5 O 0.38246(7) 0.84895(7) 0.09190(7)
O35_5 O 0.53805(7) 0.86624(7) 0.17164(10)
O38_5 O 0.56303(8) 0.79692(8) 0.17888(9)
N9_5 N 0.31835(8) 0.84126(8) 0.11842(8)
H47_5 H 0.308896 0.991975 0.260373
Ca5_10 Ca 0.18324(4) 0.69387(5) 1.000000
Ca5_11 Ca 0.18324(4) 0.30613(5) -0.000000
Ca2_6 Ca 0.500000 0.18324(4) 0.80613(5)
O13_6 O 0.40810(7) 0.11754(7) 0.84895(7)
O14_6 O 0.46195(7) 0.13376(7) 0.82836(10)
O15_6 O 0.43697(8) 0.20308(8) 0.82112(9)
N5_6 N 0.38158(8) 0.18165(8) 0.84126(8)
N6_6 N 0.32051(8) 0.32051(8) 0.82051(8)
C25_6 C 0.43023(11) 0.14073(11) 0.83692(11)
C26_6 C 0.41619(11) 0.17895(10) 0.83259(11)
C27_6 C 0.36513(9) 0.21639(10) 0.83694(10)
C28_6 C 0.36064(10) 0.23981(10) 0.86574(10)
H13_6 H 0.367418 0.232477 0.889329
C29_6 C 0.34629(10) 0.27385(10) 0.86023(10)
H14_6 H 0.343528 0.289812 0.880085
C30_6 C 0.33588(9) 0.28493(9) 0.82586(9)
C31_6 C 0.33984(11) 0.26106(10) 0.79765(10)
H15_6 H 0.332385 0.268092 0.774165
C32_6 C 0.35426(11) 0.22746(10) 0.80269(10)
H16_6 H 0.356877 0.211599 0.782741
O16_6 O 0.54012(12) 0.17052(16) 0.75321(13)
O17_6 O 0.500000 0.20119(18) 0.86942(17)
O18_6 O 0.500000 0.24519(14) 0.78835(17)
O20_6 O 0.13376(7) 0.32836(10) 0.96195(7)
O21_6 O 0.20308(8) 0.32112(9) 0.93697(8)
C33_6 C 0.14073(11) 0.33692(11) 0.93023(11)
C34_6 C 0.17895(10) 0.33259(11) 0.91619(11)
C35_6 C 0.21639(10) 0.33694(10) 0.86513(9)
C36_6 C 0.23981(10) 0.36574(10) 0.86064(10)
H17_6 H 0.232477 0.389329 0.867418
C37_6 C 0.27385(10) 0.36023(10) 0.84629(10)
H18_6 H 0.289812 0.380085 0.843528
C38_6 C 0.28493(9) 0.32586(9) 0.83588(9)
C39_6 C 0.26106(10) 0.29765(10) 0.83984(11)
H19_6 H 0.268092 0.274165 0.832385
C40_6 C 0.22746(10) 0.30269(10) 0.85426(11)
H20_6 H 0.211599 0.282741 0.856877
O22_6 O 0.34895(7) 0.40810(7) 0.61754(7)
O23_6 O 0.32836(10) 0.46195(7) 0.63376(7)
O24_6 O 0.32112(9) 0.43697(8) 0.70308(8)
N8_6 N 0.34126(8) 0.38158(8) 0.68165(8)
C41_6 C 0.33692(11) 0.43023(11) 0.64073(11)
C42_6 C 0.33259(11) 0.41619(11) 0.67895(10)
C43_6 C 0.33694(10) 0.36513(9) 0.71639(10)
C44_6 C 0.36574(10) 0.36064(10) 0.73981(10)
H21_6 H 0.389329 0.367418 0.732477
C45_6 C 0.36023(10) 0.34629(10) 0.77385(10)
H22_6 H 0.380085 0.343528 0.789812
C46_6 C 0.32586(9) 0.33588(9) 0.78493(9)
C47_6 C 0.29765(10) 0.33984(11) 0.76106(10)
H23_6 H 0.274165 0.332385 0.768092
C48_6 C 0.30269(10) 0.35426(11) 0.72746(10)
H24_6 H 0.282741 0.356877 0.711599
O26_11 O 0.36942(17) 0.000000 0.79881(18)
O27_11 O 0.28835(17) -0.000000 0.75481(14)
O29_6 O 0.45988(12) 0.17052(16) 0.75321(13)
O30_6 O 0.25321(13) 0.04012(12) 0.82948(16)
Ca4_6 Ca 0.30613(5) 0.500000 0.68324(4)
Ca5_12 Ca 0.18324(4) 0.30613(5) 1.000000
O31_6 O 0.38246(7) 0.15105(7) 0.90810(7)
O35_6 O 0.53805(7) 0.13376(7) 0.82836(10)
O38_6 O 0.56303(8) 0.20308(8) 0.82112(9)
N9_6 N 0.31835(8) 0.15874(8) 0.88158(8)
H47_6 H 0.308896 0.00802547 0.739627
O25_6 O 0.25321(13) 0.95988(12) 0.82948(16)
O26_12 O 0.36942(17) 1.000000 0.79881(18)
O27_12 O 0.28835(17) 1.000000 0.75481(14)
O36_6 O 0.32836(10) 0.96195(7) 0.86624(7)
O39_6 O 0.32112(9) 0.93697(8) 0.79692(8)
H39_6 H 0.384268 0.989465 0.818448
H40_6 H 0.372388 0.985398 0.77656
H48_6 H 0.281064 0.975257 0.747615
Ca2_7 Ca 0.500000 0.18324(4) 0.19387(5)
O13_7 O 0.59190(7) 0.11754(7) 0.15105(7)
O14_7 O 0.53805(7) 0.13376(7) 0.17164(10)
O15_7 O 0.56303(8) 0.20308(8) 0.17888(9)
N5_7 N 0.61842(8) 0.18165(8) 0.15874(8)
N6_7 N 0.67949(8) 0.32051(8) 0.17949(8)
C25_7 C 0.56977(11) 0.14073(11) 0.16308(11)
C26_7 C 0.58381(11) 0.17895(10) 0.16741(11)
C27_7 C 0.63487(9) 0.21639(10) 0.16306(10)
C28_7 C 0.63936(10) 0.23981(10) 0.13426(10)
H13_7 H 0.632582 0.232477 0.110671
C29_7 C 0.65371(10) 0.27385(10) 0.13977(10)
H14_7 H 0.656472 0.289812 0.119915
C30_7 C 0.66412(9) 0.28493(9) 0.17414(9)
C31_7 C 0.66016(11) 0.26106(10) 0.20235(10)
H15_7 H 0.667615 0.268092 0.225835
C32_7 C 0.64574(11) 0.22746(10) 0.19731(10)
H16_7 H 0.643123 0.211599 0.217259
O16_7 O 0.45988(12) 0.17052(16) 0.24679(13)
O17_7 O 0.500000 0.20119(18) 0.13058(17)
O18_7 O 0.500000 0.24519(14) 0.21165(17)
O20_7 O 0.86624(7) 0.32836(10) 0.03805(7)
O21_7 O 0.79692(8) 0.32112(9) 0.06303(8)
C33_7 C 0.85927(11) 0.33692(11) 0.06977(11)
C34_7 C 0.82105(10) 0.33259(11) 0.08381(11)
C35_7 C 0.78361(10) 0.33694(10) 0.13487(9)
C36_7 C 0.76019(10) 0.36574(10) 0.13936(10)
H17_7 H 0.767523 0.389329 0.132582
C37_7 C 0.72615(10) 0.36023(10) 0.15371(10)
H18_7 H 0.710188 0.380085 0.156472
C38_7 C 0.71507(9) 0.32586(9) 0.16412(9)
C39_7 C 0.73894(10) 0.29765(10) 0.16016(11)
H19_7 H 0.731908 0.274165 0.167615
C40_7 C 0.77254(10) 0.30269(10) 0.14574(11)
H20_7 H 0.788401 0.282741 0.143123
O22_7 O 0.65105(7) 0.40810(7) 0.38246(7)
O23_7 O 0.67164(10) 0.46195(7) 0.36624(7)
O24_7 O 0.67888(9) 0.43697(8) 0.29692(8)
N8_7 N 0.65874(8) 0.38158(8) 0.31835(8)
C41_7 C 0.66308(11) 0.43023(11) 0.35927(11)
C42_7 C 0.66741(11) 0.41619(11) 0.32105(10)
C43_7 C 0.66306(10) 0.36513(9) 0.28361(10)
C44_7 C 0.63426(10) 0.36064(10) 0.26019(10)
H21_7 H 0.610671 0.367418 0.267523
C45_7 C 0.63977(10) 0.34629(10) 0.22615(10)
H22_7 H 0.619915 0.343528 0.210188
C46_7 C 0.67414(9) 0.33588(9) 0.21507(9)
C47_7 C 0.70235(10) 0.33984(11) 0.23894(10)
H23_7 H 0.725835 0.332385 0.231908
C48_7 C 0.69731(10) 0.35426(11) 0.27254(10)
H24_7 H 0.717259 0.356877 0.288401
O26_13 O 0.63058(17) 0.000000 0.20119(18)
O27_13 O 0.71165(17) -0.000000 0.24519(14)
O29_7 O 0.54012(12) 0.17052(16) 0.24679(13)
O30_7 O 0.74679(13) 0.04012(12) 0.17052(16)
Ca4_7 Ca 0.69387(5) 0.500000 0.31676(4)
Ca5_13 Ca 0.81676(4) 0.30613(5) 0.000000
O31_7 O 0.61754(7) 0.15105(7) 0.09190(7)
O35_7 O 0.46195(7) 0.13376(7) 0.17164(10)
O38_7 O 0.43697(8) 0.20308(8) 0.17888(9)
N9_7 N 0.68165(8) 0.15874(8) 0.11842(8)
H47_7 H 0.691104 0.00802547 0.260373
Ca5_14 Ca 0.81676(4) 0.30613(5) 1.000000
O25_7 O 0.74679(13) 0.95988(12) 0.17052(16)
O26_14 O 0.63058(17) 1.000000 0.20119(18)
O27_14 O 0.71165(17) 1.000000 0.24519(14)
O36_7 O 0.67164(10) 0.96195(7) 0.13376(7)
O39_7 O 0.67888(9) 0.93697(8) 0.20308(8)
H39_7 H 0.615732 0.989465 0.181552
H40_7 H 0.627612 0.985398 0.22344
H48_7 H 0.718936 0.975257 0.252385
O25_8 O 0.74679(13) 0.04012(12) 0.82948(16)
O26_15 O 0.63058(17) 0.000000 0.79881(18)
O27_15 O 0.71165(17) 0.000000 0.75481(14)
O36_8 O 0.67164(10) 0.03805(7) 0.86624(7)
O39_8 O 0.67888(9) 0.06303(8) 0.79692(8)
H39_8 H 0.615732 0.0105354 0.818448
H40_8 H 0.627612 0.0146022 0.77656
H48_8 H 0.718936 0.0247432 0.747615
Ca5_15 Ca 0.81676(4) 0.69387(5) -0.000000
Ca2_8 Ca 0.500000 0.81676(4) 0.80613(5)
O13_8 O 0.59190(7) 0.88246(7) 0.84895(7)
O14_8 O 0.53805(7) 0.86624(7) 0.82836(10)
O15_8 O 0.56303(8) 0.79692(8) 0.82112(9)
N5_8 N 0.61842(8) 0.81835(8) 0.84126(8)
N6_8 N 0.67949(8) 0.67949(8) 0.82051(8)
C25_8 C 0.56977(11) 0.85927(11) 0.83692(11)
C26_8 C 0.58381(11) 0.82105(10) 0.83259(11)
C27_8 C 0.63487(9) 0.78361(10) 0.83694(10)
C28_8 C 0.63936(10) 0.76019(10) 0.86574(10)
H13_8 H 0.632582 0.767523 0.889329
C29_8 C 0.65371(10) 0.72615(10) 0.86023(10)
H14_8 H 0.656472 0.710188 0.880085
C30_8 C 0.66412(9) 0.71507(9) 0.82586(9)
C31_8 C 0.66016(11) 0.73894(10) 0.79765(10)
H15_8 H 0.667615 0.731908 0.774165
C32_8 C 0.64574(11) 0.77254(10) 0.80269(10)
H16_8 H 0.643123 0.788401 0.782741
O16_8 O 0.45988(12) 0.82948(16) 0.75321(13)
O17_8 O 0.500000 0.79881(18) 0.86942(17)
O18_8 O 0.500000 0.75481(14) 0.78835(17)
O20_8 O 0.86624(7) 0.67164(10) 0.96195(7)
O21_8 O 0.79692(8) 0.67888(9) 0.93697(8)
C33_8 C 0.85927(11) 0.66308(11) 0.93023(11)
C34_8 C 0.82105(10) 0.66741(11) 0.91619(11)
C35_8 C 0.78361(10) 0.66306(10) 0.86513(9)
C36_8 C 0.76019(10) 0.63426(10) 0.86064(10)
H17_8 H 0.767523 0.610671 0.867418
C37_8 C 0.72615(10) 0.63977(10) 0.84629(10)
H18_8 H 0.710188 0.619915 0.843528
C38_8 C 0.71507(9) 0.67414(9) 0.83588(9)
C39_8 C 0.73894(10) 0.70235(10) 0.83984(11)
H19_8 H 0.731908 0.725835 0.832385
C40_8 C 0.77254(10) 0.69731(10) 0.85426(11)
H20_8 H 0.788401 0.717259 0.856877
O22_8 O 0.65105(7) 0.59190(7) 0.61754(7)
O23_8 O 0.67164(10) 0.53805(7) 0.63376(7)
O24_8 O 0.67888(9) 0.56303(8) 0.70308(8)
N8_8 N 0.65874(8) 0.61842(8) 0.68165(8)
C41_8 C 0.66308(11) 0.56977(11) 0.64073(11)
C42_8 C 0.66741(11) 0.58381(11) 0.67895(10)
C43_8 C 0.66306(10) 0.63487(9) 0.71639(10)
C44_8 C 0.63426(10) 0.63936(10) 0.73981(10)
H21_8 H 0.610671 0.632582 0.732477
C45_8 C 0.63977(10) 0.65371(10) 0.77385(10)
H22_8 H 0.619915 0.656472 0.789812
C46_8 C 0.67414(9) 0.66412(9) 0.78493(9)
C47_8 C 0.70235(10) 0.66016(11) 0.76106(10)
H23_8 H 0.725835 0.667615 0.768092
C48_8 C 0.69731(10) 0.64574(11) 0.72746(10)
H24_8 H 0.717259 0.643123 0.711599
O26_16 O 0.63058(17) 1.000000 0.79881(18)
O27_16 O 0.71165(17) 1.000000 0.75481(14)
O29_8 O 0.54012(12) 0.82948(16) 0.75321(13)
O30_8 O 0.74679(13) 0.95988(12) 0.82948(16)
Ca4_8 Ca 0.69387(5) 0.500000 0.68324(4)
Ca5_16 Ca 0.81676(4) 0.69387(5) 1.000000
O31_8 O 0.61754(7) 0.84895(7) 0.90810(7)
O35_8 O 0.46195(7) 0.86624(7) 0.82836(10)
O38_8 O 0.43697(8) 0.79692(8) 0.82112(9)
N9_8 N 0.68165(8) 0.84126(8) 0.88158(8)
H47_8 H 0.691104 0.991975 0.739627
O25_9 O 0.17052(16) 0.25321(13) 0.04012(12)
O26_17 O 0.20119(18) 0.36942(17) -0.000000
O27_17 O 0.24519(14) 0.28835(17) 0.000000
O36_9 O 0.13376(7) 0.32836(10) 0.03805(7)
O39_9 O 0.20308(8) 0.32112(9) 0.06303(8)
H39_9 H 0.181552 0.384268 0.0105354
H40_9 H 0.22344 0.372388 0.0146022
H48_9 H 0.252385 0.281064 0.0247432
O26_18 O 0.20119(18) 0.36942(17) 1.000000
O27_18 O 0.24519(14) 0.28835(17) 1.000000
O30_9 O 0.17052(16) 0.25321(13) 0.95988(12)
H47_9 H 0.260373 0.308896 0.991975
O26_19 O 0.79881(18) 0.36942(17) 0.000000
O27_19 O 0.75481(14) 0.28835(17) -0.000000
O30_10 O 0.82948(16) 0.25321(13) 0.04012(12)
H47_10 H 0.739627 0.308896 0.00802547
O25_10 O 0.82948(16) 0.25321(13) 0.95988(12)
O26_20 O 0.79881(18) 0.36942(17) 1.000000
O27_20 O 0.75481(14) 0.28835(17) 1.000000
O36_10 O 0.86624(7) 0.32836(10) 0.96195(7)
O39_10 O 0.79692(8) 0.32112(9) 0.93697(8)
H39_10 H 0.818448 0.384268 0.989465
H40_10 H 0.77656 0.372388 0.985398
H48_10 H 0.747615 0.281064 0.975257
O26_21 O 0.20119(18) 0.63058(17) 0.000000
O27_21 O 0.24519(14) 0.71165(17) -0.000000
O30_11 O 0.17052(16) 0.74679(13) 0.04012(12)
H47_11 H 0.260373 0.691104 0.00802547
O25_11 O 0.17052(16) 0.74679(13) 0.95988(12)
O26_22 O 0.20119(18) 0.63058(17) 1.000000
O27_22 O 0.24519(14) 0.71165(17) 1.000000
O36_11 O 0.13376(7) 0.67164(10) 0.96195(7)
O39_11 O 0.20308(8) 0.67888(9) 0.93697(8)
H39_11 H 0.181552 0.615732 0.989465
H40_11 H 0.22344 0.627612 0.985398
H48_11 H 0.252385 0.718936 0.975257
O25_12 O 0.82948(16) 0.74679(13) 0.04012(12)
O26_23 O 0.79881(18) 0.63058(17) -0.000000
O27_23 O 0.75481(14) 0.71165(17) 0.000000
O36_12 O 0.86624(7) 0.67164(10) 0.03805(7)
O39_12 O 0.79692(8) 0.67888(9) 0.06303(8)
H39_12 H 0.818448 0.615732 0.0105354
H40_12 H 0.77656 0.627612 0.0146022
H48_12 H 0.747615 0.718936 0.0247432
O26_24 O 0.79881(18) 0.63058(17) 1.000000
O27_24 O 0.75481(14) 0.71165(17) 1.000000
O30_12 O 0.82948(16) 0.74679(13) 0.95988(12)
H47_12 H 0.739627 0.691104 0.991975
Ca3_9 Ca -0.000000 0.68324(4) 0.80613(5)
O25_13 O 0.04012(12) 0.67052(16) 0.75321(13)
O26_25 O -0.000000 0.70119(18) 0.86942(17)
O27_25 O -0.000000 0.74519(14) 0.78835(17)
O36_13 O 0.03805(7) 0.63376(7) 0.82836(10)
O39_13 O 0.06303(8) 0.70308(8) 0.82112(9)
H39_13 H 0.0105354 0.681552 0.884268
H40_13 H 0.0146022 0.72344 0.872388
H48_13 H 0.0247432 0.752385 0.781064
Ca1_5 Ca 0.80613(5) 0.000000 0.68324(4)
O4_5 O 0.75321(13) 0.04012(12) 0.67052(16)
O5_5 O 0.86942(17) 0.000000 0.70119(18)
O6_5 O 0.78835(17) 0.000000 0.74519(14)
O34_5 O 0.82836(10) 0.03805(7) 0.63376(7)
O37_5 O 0.82112(9) 0.06303(8) 0.70308(8)
H25 H 0.884268 0.0105354 0.681552
H26 H 0.872388 0.0146022 0.72344
H28 H 0.781064 0.0247432 0.752385
Ca6_5 Ca 0.68324(4) 0.80613(5) 0.000000
Ca1_6 Ca 0.80613(5) 1.000000 0.68324(4)
O2_5 O 0.82836(10) 0.96195(7) 0.63376(7)
O3_5 O 0.82112(9) 0.93697(8) 0.70308(8)
N2_5 N 0.82051(8) 0.82051(8) 0.82051(8)
C1_5 C 0.83692(11) 0.93023(11) 0.64073(11)
C2_5 C 0.83259(11) 0.91619(11) 0.67895(10)
C3_5 C 0.83694(10) 0.86513(9) 0.71639(10)
C4_5 C 0.86574(10) 0.86064(10) 0.73981(10)
H1_5 H 0.889329 0.867418 0.732477
C5_5 C 0.86023(10) 0.84629(10) 0.77385(10)
H2_5 H 0.880085 0.843528 0.789812
C6_5 C 0.82586(9) 0.83588(9) 0.78493(9)
C7_5 C 0.79765(10) 0.83984(11) 0.76106(10)
H3_5 H 0.774165 0.832385 0.768092
C8_5 C 0.80269(10) 0.85426(11) 0.72746(10)
H4_5 H 0.782741 0.856877 0.711599
O5_6 O 0.86942(17) 1.000000 0.70119(18)
O6_6 O 0.78835(17) 1.000000 0.74519(14)
O8_5 O 0.96195(7) 0.63376(7) 0.82836(10)
O9_5 O 0.93697(8) 0.70308(8) 0.82112(9)
C9_5 C 0.93023(11) 0.64073(11) 0.83692(11)
C10_5 C 0.91619(11) 0.67895(10) 0.83259(11)
C11_5 C 0.86513(9) 0.71639(10) 0.83694(10)
C12_5 C 0.86064(10) 0.73981(10) 0.86574(10)
H5_5 H 0.867418 0.732477 0.889329
C13_5 C 0.84629(10) 0.77385(10) 0.86023(10)
H6_5 H 0.843528 0.789812 0.880085
C14_5 C 0.83588(9) 0.78493(9) 0.82586(9)
C15_5 C 0.83984(11) 0.76106(10) 0.79765(10)
H7_5 H 0.832385 0.768092 0.774165
C16_5 C 0.85426(11) 0.72746(10) 0.80269(10)
H8_5 H 0.856877 0.711599 0.782741
O11_5 O 0.63376(7) 0.82836(10) 0.96195(7)
O12_5 O 0.70308(8) 0.82112(9) 0.93697(8)
C17_5 C 0.64073(11) 0.83692(11) 0.93023(11)
C18_5 C 0.67895(10) 0.83259(11) 0.91619(11)
C19_5 C 0.71639(10) 0.83694(10) 0.86513(9)
C20_5 C 0.73981(10) 0.86574(10) 0.86064(10)
H9_5 H 0.732477 0.889329 0.867418
C21_5 C 0.77385(10) 0.86023(10) 0.84629(10)
H10_5 H 0.789812 0.880085 0.843528
C22_5 C 0.78493(9) 0.82586(9) 0.83588(9)
C23_5 C 0.76106(10) 0.79765(10) 0.83984(11)
H11_5 H 0.768092 0.774165 0.832385
C24_5 C 0.72746(10) 0.80269(10) 0.85426(11)
H12_5 H 0.711599 0.782741 0.856877
Ca3_10 Ca 1.000000 0.68324(4) 0.80613(5)
O26_26 O 1.000000 0.70119(18) 0.86942(17)
O27_26 O 1.000000 0.74519(14) 0.78835(17)
O28_5 O 0.75321(13) 0.95988(12) 0.67052(16)
O30_13 O 0.95988(12) 0.67052(16) 0.75321(13)
Ca6_6 Ca 0.68324(4) 0.80613(5) 1.000000
H27 H 0.808896 0.991975 0.760373
H47_13 H 0.991975 0.760373 0.808896
Ca6_7 Ca 0.31676(4) 0.19387(5) 0.000000
Ca1_7 Ca 0.19387(5) 0.000000 0.68324(4)
O2_6 O 0.17164(10) 0.03805(7) 0.63376(7)
O3_6 O 0.17888(9) 0.06303(8) 0.70308(8)
N2_6 N 0.17949(8) 0.17949(8) 0.82051(8)
C1_6 C 0.16308(11) 0.06977(11) 0.64073(11)
C2_6 C 0.16741(11) 0.08381(11) 0.67895(10)
C3_6 C 0.16306(10) 0.13487(9) 0.71639(10)
C4_6 C 0.13426(10) 0.13936(10) 0.73981(10)
H1_6 H 0.110671 0.132582 0.732477
C5_6 C 0.13977(10) 0.15371(10) 0.77385(10)
H2_6 H 0.119915 0.156472 0.789812
C6_6 C 0.17414(9) 0.16412(9) 0.78493(9)
C7_6 C 0.20235(10) 0.16016(11) 0.76106(10)
H3_6 H 0.225835 0.167615 0.768092
C8_6 C 0.19731(10) 0.14574(11) 0.72746(10)
H4_6 H 0.217259 0.143123 0.711599
O5_7 O 0.13058(17) 0.000000 0.70119(18)
O6_7 O 0.21165(17) 0.000000 0.74519(14)
O8_6 O 0.03805(7) 0.36624(7) 0.82836(10)
O9_6 O 0.06303(8) 0.29692(8) 0.82112(9)
C9_6 C 0.06977(11) 0.35927(11) 0.83692(11)
C10_6 C 0.08381(11) 0.32105(10) 0.83259(11)
C11_6 C 0.13487(9) 0.28361(10) 0.83694(10)
C12_6 C 0.13936(10) 0.26019(10) 0.86574(10)
H5_6 H 0.132582 0.267523 0.889329
C13_6 C 0.15371(10) 0.22615(10) 0.86023(10)
H6_6 H 0.156472 0.210188 0.880085
C14_6 C 0.16412(9) 0.21507(9) 0.82586(9)
C15_6 C 0.16016(11) 0.23894(10) 0.79765(10)
H7_6 H 0.167615 0.231908 0.774165
C16_6 C 0.14574(11) 0.27254(10) 0.80269(10)
H8_6 H 0.143123 0.288401 0.782741
O11_6 O 0.36624(7) 0.17164(10) 0.96195(7)
O12_6 O 0.29692(8) 0.17888(9) 0.93697(8)
C17_6 C 0.35927(11) 0.16308(11) 0.93023(11)
C18_6 C 0.32105(10) 0.16741(11) 0.91619(11)
C19_6 C 0.28361(10) 0.16306(10) 0.86513(9)
C20_6 C 0.26019(10) 0.13426(10) 0.86064(10)
H9_6 H 0.267523 0.110671 0.867418
C21_6 C 0.22615(10) 0.13977(10) 0.84629(10)
H10_6 H 0.210188 0.119915 0.843528
C22_6 C 0.21507(9) 0.17414(9) 0.83588(9)
C23_6 C 0.23894(10) 0.20235(10) 0.83984(11)
H11_6 H 0.231908 0.225835 0.832385
C24_6 C 0.27254(10) 0.19731(10) 0.85426(11)
H12_6 H 0.288401 0.217259 0.856877
Ca3_11 Ca 0.000000 0.31676(4) 0.80613(5)
O26_27 O 0.000000 0.29881(18) 0.86942(17)
O27_27 O -0.000000 0.25481(14) 0.78835(17)
O28_6 O 0.24679(13) 0.04012(12) 0.67052(16)
O30_14 O 0.04012(12) 0.32948(16) 0.75321(13)
Ca6_8 Ca 0.31676(4) 0.19387(5) 1.000000
H27_2 H 0.191104 0.00802547 0.760373
H47_14 H 0.00802547 0.239627 0.808896
Ca1_8 Ca 0.19387(5) 1.000000 0.68324(4)
O4_6 O 0.24679(13) 0.95988(12) 0.67052(16)
O5_8 O 0.13058(17) 1.000000 0.70119(18)
O6_8 O 0.21165(17) 1.000000 0.74519(14)
O34_6 O 0.17164(10) 0.96195(7) 0.63376(7)
O37_6 O 0.17888(9) 0.93697(8) 0.70308(8)
H25_2 H 0.115732 0.989465 0.681552
H26_2 H 0.127612 0.985398 0.72344
H28_2 H 0.218936 0.975257 0.752385
Ca3_12 Ca 1.000000 0.31676(4) 0.80613(5)
O25_14 O 0.95988(12) 0.32948(16) 0.75321(13)
O26_28 O 1.000000 0.29881(18) 0.86942(17)
O27_28 O 1.000000 0.25481(14) 0.78835(17)
O36_14 O 0.96195(7) 0.36624(7) 0.82836(10)
O39_14 O 0.93697(8) 0.29692(8) 0.82112(9)
H39_14 H 0.989465 0.318448 0.884268
H40_14 H 0.985398 0.27656 0.872388
H48_14 H 0.975257 0.247615 0.781064
Ca1_9 Ca 0.19387(5) 0.000000 0.31676(4)
O4_7 O 0.24679(13) 0.04012(12) 0.32948(16)
O5_9 O 0.13058(17) 0.000000 0.29881(18)
O6_9 O 0.21165(17) 0.000000 0.25481(14)
O34_7 O 0.17164(10) 0.03805(7) 0.36624(7)
O37_7 O 0.17888(9) 0.06303(8) 0.29692(8)
H25_3 H 0.115732 0.0105354 0.318448
H26_3 H 0.127612 0.0146022 0.27656
H28_3 H 0.218936 0.0247432 0.247615
Ca1_10 Ca 0.19387(5) 1.000000 0.31676(4)
O2_7 O 0.17164(10) 0.96195(7) 0.36624(7)
O3_7 O 0.17888(9) 0.93697(8) 0.29692(8)
N2_7 N 0.17949(8) 0.82051(8) 0.17949(8)
C1_7 C 0.16308(11) 0.93023(11) 0.35927(11)
C2_7 C 0.16741(11) 0.91619(11) 0.32105(10)
C3_7 C 0.16306(10) 0.86513(9) 0.28361(10)
C4_7 C 0.13426(10) 0.86064(10) 0.26019(10)
H1_7 H 0.110671 0.867418 0.267523
C5_7 C 0.13977(10) 0.84629(10) 0.22615(10)
H2_7 H 0.119915 0.843528 0.210188
C6_7 C 0.17414(9) 0.83588(9) 0.21507(9)
C7_7 C 0.20235(10) 0.83984(11) 0.23894(10)
H3_7 H 0.225835 0.832385 0.231908
C8_7 C 0.19731(10) 0.85426(11) 0.27254(10)
H4_7 H 0.217259 0.856877 0.288401
O5_10 O 0.13058(17) 1.000000 0.29881(18)
O6_10 O 0.21165(17) 1.000000 0.25481(14)
O8_7 O 0.03805(7) 0.63376(7) 0.17164(10)
O9_7 O 0.06303(8) 0.70308(8) 0.17888(9)
C9_7 C 0.06977(11) 0.64073(11) 0.16308(11)
C10_7 C 0.08381(11) 0.67895(10) 0.16741(11)
C11_7 C 0.13487(9) 0.71639(10) 0.16306(10)
C12_7 C 0.13936(10) 0.73981(10) 0.13426(10)
H5_7 H 0.132582 0.732477 0.110671
C13_7 C 0.15371(10) 0.77385(10) 0.13977(10)
H6_7 H 0.156472 0.789812 0.119915
C14_7 C 0.16412(9) 0.78493(9) 0.17414(9)
C15_7 C 0.16016(11) 0.76106(10) 0.20235(10)
H7_7 H 0.167615 0.768092 0.225835
C16_7 C 0.14574(11) 0.72746(10) 0.19731(10)
H8_7 H 0.143123 0.711599 0.217259
O11_7 O 0.36624(7) 0.82836(10) 0.03805(7)
O12_7 O 0.29692(8) 0.82112(9) 0.06303(8)
C17_7 C 0.35927(11) 0.83692(11) 0.06977(11)
C18_7 C 0.32105(10) 0.83259(11) 0.08381(11)
C19_7 C 0.28361(10) 0.83694(10) 0.13487(9)
C20_7 C 0.26019(10) 0.86574(10) 0.13936(10)
H9_7 H 0.267523 0.889329 0.132582
C21_7 C 0.22615(10) 0.86023(10) 0.15371(10)
H10_7 H 0.210188 0.880085 0.156472
C22_7 C 0.21507(9) 0.82586(9) 0.16412(9)
C23_7 C 0.23894(10) 0.79765(10) 0.16016(11)
H11_7 H 0.231908 0.774165 0.167615
C24_7 C 0.27254(10) 0.80269(10) 0.14574(11)
H12_7 H 0.288401 0.782741 0.143123
Ca3_13 Ca 0.000000 0.68324(4) 0.19387(5)
O26_29 O 0.000000 0.70119(18) 0.13058(17)
O27_29 O -0.000000 0.74519(14) 0.21165(17)
O28_7 O 0.24679(13) 0.95988(12) 0.32948(16)
O30_15 O 0.04012(12) 0.67052(16) 0.24679(13)
Ca6_9 Ca 0.31676(4) 0.80613(5) 0.000000
H27_3 H 0.191104 0.991975 0.239627
H47_15 H 0.00802547 0.760373 0.191104
Ca6_10 Ca 0.31676(4) 0.80613(5) 1.000000
Ca3_14 Ca 1.000000 0.68324(4) 0.19387(5)
O25_15 O 0.95988(12) 0.67052(16) 0.24679(13)
O26_30 O 1.000000 0.70119(18) 0.13058(17)
O27_30 O 1.000000 0.74519(14) 0.21165(17)
O36_15 O 0.96195(7) 0.63376(7) 0.17164(10)
O39_15 O 0.93697(8) 0.70308(8) 0.17888(9)
H39_15 H 0.989465 0.681552 0.115732
H40_15 H 0.985398 0.72344 0.127612
H48_15 H 0.975257 0.752385 0.218936
Ca3_15 Ca -0.000000 0.31676(4) 0.19387(5)
O25_16 O 0.04012(12) 0.32948(16) 0.24679(13)
O26_31 O 0.000000 0.29881(18) 0.13058(17)
O27_31 O 0.000000 0.25481(14) 0.21165(17)
O36_16 O 0.03805(7) 0.36624(7) 0.17164(10)
O39_16 O 0.06303(8) 0.29692(8) 0.17888(9)
H39_16 H 0.0105354 0.318448 0.115732
H40_16 H 0.0146022 0.27656 0.127612
H48_16 H 0.0247432 0.247615 0.218936
Ca1_11 Ca 0.80613(5) 0.000000 0.31676(4)
O2_8 O 0.82836(10) 0.03805(7) 0.36624(7)
O3_8 O 0.82112(9) 0.06303(8) 0.29692(8)
N2_8 N 0.82051(8) 0.17949(8) 0.17949(8)
C1_8 C 0.83692(11) 0.06977(11) 0.35927(11)
C2_8 C 0.83259(11) 0.08381(11) 0.32105(10)
C3_8 C 0.83694(10) 0.13487(9) 0.28361(10)
C4_8 C 0.86574(10) 0.13936(10) 0.26019(10)
H1_8 H 0.889329 0.132582 0.267523
C5_8 C 0.86023(10) 0.15371(10) 0.22615(10)
H2_8 H 0.880085 0.156472 0.210188
C6_8 C 0.82586(9) 0.16412(9) 0.21507(9)
C7_8 C 0.79765(10) 0.16016(11) 0.23894(10)
H3_8 H 0.774165 0.167615 0.231908
C8_8 C 0.80269(10) 0.14574(11) 0.27254(10)
H4_8 H 0.782741 0.143123 0.288401
O5_11 O 0.86942(17) 0.000000 0.29881(18)
O6_11 O 0.78835(17) 0.000000 0.25481(14)
O8_8 O 0.96195(7) 0.36624(7) 0.17164(10)
O9_8 O 0.93697(8) 0.29692(8) 0.17888(9)
C9_8 C 0.93023(11) 0.35927(11) 0.16308(11)
C10_8 C 0.91619(11) 0.32105(10) 0.16741(11)
C11_8 C 0.86513(9) 0.28361(10) 0.16306(10)
C12_8 C 0.86064(10) 0.26019(10) 0.13426(10)
H5_8 H 0.867418 0.267523 0.110671
C13_8 C 0.84629(10) 0.22615(10) 0.13977(10)
H6_8 H 0.843528 0.210188 0.119915
C14_8 C 0.83588(9) 0.21507(9) 0.17414(9)
C15_8 C 0.83984(11) 0.23894(10) 0.20235(10)
H7_8 H 0.832385 0.231908 0.225835
C16_8 C 0.85426(11) 0.27254(10) 0.19731(10)
H8_8 H 0.856877 0.288401 0.217259
O11_8 O 0.63376(7) 0.17164(10) 0.03805(7)
O12_8 O 0.70308(8) 0.17888(9) 0.06303(8)
C17_8 C 0.64073(11) 0.16308(11) 0.06977(11)
C18_8 C 0.67895(10) 0.16741(11) 0.08381(11)
C19_8 C 0.71639(10) 0.16306(10) 0.13487(9)
C20_8 C 0.73981(10) 0.13426(10) 0.13936(10)
H9_8 H 0.732477 0.110671 0.132582
C21_8 C 0.77385(10) 0.13977(10) 0.15371(10)
H10_8 H 0.789812 0.119915 0.156472
C22_8 C 0.78493(9) 0.17414(9) 0.16412(9)
C23_8 C 0.76106(10) 0.20235(10) 0.16016(11)
H11_8 H 0.768092 0.225835 0.167615
C24_8 C 0.72746(10) 0.19731(10) 0.14574(11)
H12_8 H 0.711599 0.217259 0.143123
Ca3_16 Ca 1.000000 0.31676(4) 0.19387(5)
O26_32 O 1.000000 0.29881(18) 0.13058(17)
O27_32 O 1.000000 0.25481(14) 0.21165(17)
O28_8 O 0.75321(13) 0.04012(12) 0.32948(16)
O30_16 O 0.95988(12) 0.32948(16) 0.24679(13)
Ca6_11 Ca 0.68324(4) 0.19387(5) 0.000000
H27_4 H 0.808896 0.00802547 0.239627
H47_16 H 0.991975 0.239627 0.191104
Ca6_12 Ca 0.68324(4) 0.19387(5) 1.000000
Ca1_12 Ca 0.80613(5) 1.000000 0.31676(4)
O4_8 O 0.75321(13) 0.95988(12) 0.32948(16)
O5_12 O 0.86942(17) 1.000000 0.29881(18)
O6_12 O 0.78835(17) 1.000000 0.25481(14)
O34_8 O 0.82836(10) 0.96195(7) 0.36624(7)
O37_8 O 0.82112(9) 0.93697(8) 0.29692(8)
H25_4 H 0.884268 0.989465 0.318448
H26_4 H 0.872388 0.985398 0.27656
H28_4 H 0.781064 0.975257 0.247615
O16_9 O 0.54012(12) 0.32948(16) 0.74679(13)
O17_9 O 0.500000 0.29881(18) 0.63058(17)
O18_9 O 0.500000 0.25481(14) 0.71165(17)
O25_17 O 0.25321(13) 0.54012(12) 0.67052(16)
O26_33 O 0.36942(17) 0.500000 0.70119(18)
O27_33 O 0.28835(17) 0.500000 0.74519(14)
O29_9 O 0.45988(12) 0.32948(16) 0.74679(13)
O30_17 O 0.25321(13) 0.45988(12) 0.67052(16)
O35_9 O 0.53805(7) 0.36624(7) 0.67164(10)
O36_17 O 0.32836(10) 0.53805(7) 0.63376(7)
O38_9 O 0.56303(8) 0.29692(8) 0.67888(9)
O39_17 O 0.32112(9) 0.56303(8) 0.70308(8)
O16_10 O 0.54012(12) 0.67052(16) 0.25321(13)
O17_10 O 0.500000 0.70119(18) 0.36942(17)
O18_10 O 0.500000 0.74519(14) 0.28835(17)
O25_18 O 0.25321(13) 0.45988(12) 0.32948(16)
O26_34 O 0.36942(17) 0.500000 0.29881(18)
O27_34 O 0.28835(17) 0.500000 0.25481(14)
O29_10 O 0.45988(12) 0.67052(16) 0.25321(13)
O30_18 O 0.25321(13) 0.54012(12) 0.32948(16)
O35_10 O 0.53805(7) 0.63376(7) 0.32836(10)
O36_18 O 0.32836(10) 0.46195(7) 0.36624(7)
O38_10 O 0.56303(8) 0.70308(8) 0.32112(9)
O39_18 O 0.32112(9) 0.43697(8) 0.29692(8)
O16_11 O 0.45988(12) 0.67052(16) 0.74679(13)
O17_11 O 0.500000 0.70119(18) 0.63058(17)
O18_11 O 0.500000 0.74519(14) 0.71165(17)
O25_19 O 0.74679(13) 0.45988(12) 0.67052(16)
O26_35 O 0.63058(17) 0.500000 0.70119(18)
O27_35 O 0.71165(17) 0.500000 0.74519(14)
O29_11 O 0.54012(12) 0.67052(16) 0.74679(13)
O30_19 O 0.74679(13) 0.54012(12) 0.67052(16)
O35_11 O 0.46195(7) 0.63376(7) 0.67164(10)
O36_19 O 0.67164(10) 0.46195(7) 0.63376(7)
O38_11 O 0.43697(8) 0.70308(8) 0.67888(9)
O39_19 O 0.67888(9) 0.43697(8) 0.70308(8)
O16_12 O 0.45988(12) 0.32948(16) 0.25321(13)
O17_12 O 0.500000 0.29881(18) 0.36942(17)
O18_12 O 0.500000 0.25481(14) 0.28835(17)
O25_20 O 0.74679(13) 0.54012(12) 0.32948(16)
O26_36 O 0.63058(17) 0.500000 0.29881(18)
O27_36 O 0.71165(17) 0.500000 0.25481(14)
O29_12 O 0.54012(12) 0.32948(16) 0.25321(13)
O30_20 O 0.74679(13) 0.45988(12) 0.32948(16)
O35_12 O 0.46195(7) 0.36624(7) 0.32836(10)
O36_20 O 0.67164(10) 0.53805(7) 0.36624(7)
O38_12 O 0.43697(8) 0.29692(8) 0.32112(9)
O39_20 O 0.67888(9) 0.56303(8) 0.29692(8)
O16_13 O 0.32948(16) 0.24679(13) 0.04012(12)
O17_13 O 0.29881(18) 0.13058(17) 0.000000
O18_13 O 0.25481(14) 0.21165(17) 0.000000
O35_13 O 0.36624(7) 0.17164(10) 0.03805(7)
O38_13 O 0.29692(8) 0.17888(9) 0.06303(8)
H33 H 0.318448 0.115732 0.0105354
H34 H 0.27656 0.127612 0.0146022
H36 H 0.247615 0.218936 0.0247432
O17_14 O 0.29881(18) 0.13058(17) 1.000000
O18_14 O 0.25481(14) 0.21165(17) 1.000000
O29_13 O 0.32948(16) 0.24679(13) 0.95988(12)
H35 H 0.239627 0.191104 0.991975
O16_14 O 0.67052(16) 0.75321(13) 0.04012(12)
O17_15 O 0.70119(18) 0.86942(17) 0.000000
O18_15 O 0.74519(14) 0.78835(17) 0.000000
O35_14 O 0.63376(7) 0.82836(10) 0.03805(7)
O38_14 O 0.70308(8) 0.82112(9) 0.06303(8)
H33_2 H 0.681552 0.884268 0.0105354
H34_2 H 0.72344 0.872388 0.0146022
H36_2 H 0.752385 0.781064 0.0247432
O17_16 O 0.70119(18) 0.86942(17) 1.000000
O18_16 O 0.74519(14) 0.78835(17) 1.000000
O29_14 O 0.67052(16) 0.75321(13) 0.95988(12)
H35_2 H 0.760373 0.808896 0.991975
O17_17 O 0.70119(18) 0.13058(17) 0.000000
O18_17 O 0.74519(14) 0.21165(17) 0.000000
O29_15 O 0.67052(16) 0.24679(13) 0.04012(12)
H35_3 H 0.760373 0.191104 0.00802547
O16_15 O 0.67052(16) 0.24679(13) 0.95988(12)
O17_18 O 0.70119(18) 0.13058(17) 1.000000
O18_18 O 0.74519(14) 0.21165(17) 1.000000
O35_15 O 0.63376(7) 0.17164(10) 0.96195(7)
O38_15 O 0.70308(8) 0.17888(9) 0.93697(8)
H33_3 H 0.681552 0.115732 0.989465
H34_3 H 0.72344 0.127612 0.985398
H36_3 H 0.752385 0.218936 0.975257
O17_19 O 0.29881(18) 0.86942(17) 0.000000
O18_19 O 0.25481(14) 0.78835(17) 0.000000
O29_16 O 0.32948(16) 0.75321(13) 0.04012(12)
H35_4 H 0.239627 0.808896 0.00802547
O16_16 O 0.32948(16) 0.75321(13) 0.95988(12)
O17_20 O 0.29881(18) 0.86942(17) 1.000000
O18_20 O 0.25481(14) 0.78835(17) 1.000000
O35_16 O 0.36624(7) 0.82836(10) 0.96195(7)
O38_16 O 0.29692(8) 0.82112(9) 0.93697(8)
H33_4 H 0.318448 0.884268 0.989465
H34_4 H 0.27656 0.872388 0.985398
H36_4 H 0.247615 0.781064 0.975257
O25_21 O 0.67052(16) 0.25321(13) 0.54012(12)
O26_37 O 0.70119(18) 0.36942(17) 0.500000
O27_37 O 0.74519(14) 0.28835(17) 0.500000
O30_21 O 0.67052(16) 0.25321(13) 0.45988(12)
O36_21 O 0.63376(7) 0.32836(10) 0.53805(7)
O39_21 O 0.70308(8) 0.32112(9) 0.56303(8)
O25_22 O 0.32948(16) 0.25321(13) 0.45988(12)
O26_38 O 0.29881(18) 0.36942(17) 0.500000
O27_38 O 0.25481(14) 0.28835(17) 0.500000
O30_22 O 0.32948(16) 0.25321(13) 0.54012(12)
O36_22 O 0.36624(7) 0.32836(10) 0.46195(7)
O39_22 O 0.29692(8) 0.32112(9) 0.43697(8)
O25_23 O 0.67052(16) 0.74679(13) 0.45988(12)
O26_39 O 0.70119(18) 0.63058(17) 0.500000
O27_39 O 0.74519(14) 0.71165(17) 0.500000
O30_23 O 0.67052(16) 0.74679(13) 0.54012(12)
O36_23 O 0.63376(7) 0.67164(10) 0.46195(7)
O39_23 O 0.70308(8) 0.67888(9) 0.43697(8)
O25_24 O 0.32948(16) 0.74679(13) 0.54012(12)
O26_40 O 0.29881(18) 0.63058(17) 0.500000
O27_40 O 0.25481(14) 0.71165(17) 0.500000
O30_24 O 0.32948(16) 0.74679(13) 0.45988(12)
O36_24 O 0.36624(7) 0.67164(10) 0.53805(7)
O39_24 O 0.29692(8) 0.67888(9) 0.56303(8)
Co1_5 Co 0.13806(2) 0.63806(2) 0.86194(2)
O1_5 O 0.15105(7) 0.59190(7) 0.88246(7)
N1_5 N 0.15874(8) 0.61842(8) 0.81835(8)
N2_9 N 0.17949(8) 0.67949(8) 0.67949(8)
C1_9 C 0.16308(11) 0.56977(11) 0.85927(11)
C2_9 C 0.16741(11) 0.58381(11) 0.82105(10)
C3_9 C 0.16306(10) 0.63487(9) 0.78361(10)
C4_9 C 0.13426(10) 0.63936(10) 0.76019(10)
H1_9 H 0.110671 0.632582 0.767523
C5_9 C 0.13977(10) 0.65371(10) 0.72615(10)
H2_9 H 0.119915 0.656472 0.710188
C6_9 C 0.17414(9) 0.66412(9) 0.71507(9)
C7_9 C 0.20235(10) 0.66016(11) 0.73894(10)
H3_9 H 0.225835 0.667615 0.731908
C8_9 C 0.19731(10) 0.64574(11) 0.77254(10)
H4_9 H 0.217259 0.643123 0.788401
O7_5 O 0.09190(7) 0.88246(7) 0.65105(7)
N3_5 N 0.11842(8) 0.81835(8) 0.65874(8)
C9_9 C 0.06977(11) 0.85927(11) 0.66308(11)
C10_9 C 0.08381(11) 0.82105(10) 0.66741(11)
C11_9 C 0.13487(9) 0.78361(10) 0.66306(10)
C12_9 C 0.13936(10) 0.76019(10) 0.63426(10)
H5_9 H 0.132582 0.767523 0.610671
C13_9 C 0.15371(10) 0.72615(10) 0.63977(10)
H6_9 H 0.156472 0.710188 0.619915
C14_9 C 0.16412(9) 0.71507(9) 0.67414(9)
C15_9 C 0.16016(11) 0.73894(10) 0.70235(10)
H7_9 H 0.167615 0.731908 0.725835
C16_9 C 0.14574(11) 0.77254(10) 0.69731(10)
H8_9 H 0.143123 0.788401 0.717259
O10_5 O 0.38246(7) 0.65105(7) 0.59190(7)
N4_5 N 0.31835(8) 0.65874(8) 0.61842(8)
C17_9 C 0.35927(11) 0.66308(11) 0.56977(11)
C18_9 C 0.32105(10) 0.66741(11) 0.58381(11)
C19_9 C 0.28361(10) 0.66306(10) 0.63487(9)
C20_9 C 0.26019(10) 0.63426(10) 0.63936(10)
H9_9 H 0.267523 0.610671 0.632582
C21_9 C 0.22615(10) 0.63977(10) 0.65371(10)
H10_9 H 0.210188 0.619915 0.656472
C22_9 C 0.21507(9) 0.67414(9) 0.66412(9)
C23_9 C 0.23894(10) 0.70235(10) 0.66016(11)
H11_9 H 0.231908 0.725835 0.667615
C24_9 C 0.27254(10) 0.69731(10) 0.64574(11)
H12_9 H 0.288401 0.717259 0.643123
Co2_5 Co 0.13806(2) 0.86194(2) 0.63806(2)
O13_9 O 0.11754(7) 0.84895(7) 0.59190(7)
N5_9 N 0.18165(8) 0.84126(8) 0.61842(8)
N6_9 N 0.32051(8) 0.82051(8) 0.67949(8)
C25_9 C 0.14073(11) 0.83692(11) 0.56977(11)
C26_9 C 0.17895(10) 0.83259(11) 0.58381(11)
C27_9 C 0.21639(10) 0.83694(10) 0.63487(9)
C28_9 C 0.23981(10) 0.86574(10) 0.63936(10)
H13_9 H 0.232477 0.889329 0.632582
C29_9 C 0.27385(10) 0.86023(10) 0.65371(10)
H14_9 H 0.289812 0.880085 0.656472
C30_9 C 0.28493(9) 0.82586(9) 0.66412(9)
C31_9 C 0.26106(10) 0.79765(10) 0.66016(11)
H15_9 H 0.268092 0.774165 0.667615
C32_9 C 0.22746(10) 0.80269(10) 0.64574(11)
H16_9 H 0.211599 0.782741 0.643123
O19_5 O 0.34895(7) 0.90810(7) 0.88246(7)
N7_5 N 0.34126(8) 0.88158(8) 0.81835(8)
C33_9 C 0.33692(11) 0.93023(11) 0.85927(11)
C34_9 C 0.33259(11) 0.91619(11) 0.82105(10)
C35_9 C 0.33694(10) 0.86513(9) 0.78361(10)
C36_9 C 0.36574(10) 0.86064(10) 0.76019(10)
H17_9 H 0.389329 0.867418 0.767523
C37_9 C 0.36023(10) 0.84629(10) 0.72615(10)
H18_9 H 0.380085 0.843528 0.710188
C38_9 C 0.32586(9) 0.83588(9) 0.71507(9)
C39_9 C 0.29765(10) 0.83984(11) 0.73894(10)
H19_9 H 0.274165 0.832385 0.731908
C40_9 C 0.30269(10) 0.85426(11) 0.77254(10)
H20_9 H 0.282741 0.856877 0.788401
O22_9 O 0.40810(7) 0.61754(7) 0.65105(7)
N8_9 N 0.38158(8) 0.68165(8) 0.65874(8)
C41_9 C 0.43023(11) 0.64073(11) 0.66308(11)
C42_9 C 0.41619(11) 0.67895(10) 0.66741(11)
C43_9 C 0.36513(9) 0.71639(10) 0.66306(10)
C44_9 C 0.36064(10) 0.73981(10) 0.63426(10)
H21_9 H 0.367418 0.732477 0.610671
C45_9 C 0.34629(10) 0.77385(10) 0.63977(10)
H22_9 H 0.343528 0.789812 0.619915
C46_9 C 0.33588(9) 0.78493(9) 0.67414(9)
C47_9 C 0.33984(11) 0.76106(10) 0.70235(10)
H23_9 H 0.332385 0.768092 0.725835
C48_9 C 0.35426(11) 0.72746(10) 0.69731(10)
H24_9 H 0.356877 0.711599 0.717259
Co3_5 Co 0.36194(2) 0.86194(2) 0.86194(2)
Co4_5 Co 0.36194(2) 0.63806(2) 0.63806(2)
O31_9 O 0.15105(7) 0.90810(7) 0.61754(7)
O32_5 O 0.11754(7) 0.65105(7) 0.90810(7)
O33_5 O 0.09190(7) 0.61754(7) 0.84895(7)
N9_9 N 0.15874(8) 0.88158(8) 0.68165(8)
N10_5 N 0.18165(8) 0.65874(8) 0.88158(8)
N11_5 N 0.11842(8) 0.68165(8) 0.84126(8)
H47_17 H 0.00802547 0.739627 0.691104
H39_17 H 0.989465 0.818448 0.615732
H40_17 H 0.985398 0.77656 0.627612
H48_17 H 0.975257 0.747615 0.718936
H39_18 H 0.0105354 0.181552 0.615732
H40_18 H 0.0146022 0.22344 0.627612
H48_18 H 0.0247432 0.252385 0.718936
Co1_6 Co 0.86194(2) 0.36194(2) 0.86194(2)
O1_6 O 0.84895(7) 0.40810(7) 0.88246(7)
N1_6 N 0.84126(8) 0.38158(8) 0.81835(8)
N2_10 N 0.82051(8) 0.32051(8) 0.67949(8)
C1_10 C 0.83692(11) 0.43023(11) 0.85927(11)
C2_10 C 0.83259(11) 0.41619(11) 0.82105(10)
C3_10 C 0.83694(10) 0.36513(9) 0.78361(10)
C4_10 C 0.86574(10) 0.36064(10) 0.76019(10)
H1_10 H 0.889329 0.367418 0.767523
C5_10 C 0.86023(10) 0.34629(10) 0.72615(10)
H2_10 H 0.880085 0.343528 0.710188
C6_10 C 0.82586(9) 0.33588(9) 0.71507(9)
C7_10 C 0.79765(10) 0.33984(11) 0.73894(10)
H3_10 H 0.774165 0.332385 0.731908
C8_10 C 0.80269(10) 0.35426(11) 0.77254(10)
H4_10 H 0.782741 0.356877 0.788401
O7_6 O 0.90810(7) 0.11754(7) 0.65105(7)
N3_6 N 0.88158(8) 0.18165(8) 0.65874(8)
C9_10 C 0.93023(11) 0.14073(11) 0.66308(11)
C10_10 C 0.91619(11) 0.17895(10) 0.66741(11)
C11_10 C 0.86513(9) 0.21639(10) 0.66306(10)
C12_10 C 0.86064(10) 0.23981(10) 0.63426(10)
H5_10 H 0.867418 0.232477 0.610671
C13_10 C 0.84629(10) 0.27385(10) 0.63977(10)
H6_10 H 0.843528 0.289812 0.619915
C14_10 C 0.83588(9) 0.28493(9) 0.67414(9)
C15_10 C 0.83984(11) 0.26106(10) 0.70235(10)
H7_10 H 0.832385 0.268092 0.725835
C16_10 C 0.85426(11) 0.22746(10) 0.69731(10)
H8_10 H 0.856877 0.211599 0.717259
O10_6 O 0.61754(7) 0.34895(7) 0.59190(7)
N4_6 N 0.68165(8) 0.34126(8) 0.61842(8)
C17_10 C 0.64073(11) 0.33692(11) 0.56977(11)
C18_10 C 0.67895(10) 0.33259(11) 0.58381(11)
C19_10 C 0.71639(10) 0.33694(10) 0.63487(9)
C20_10 C 0.73981(10) 0.36574(10) 0.63936(10)
H9_10 H 0.732477 0.389329 0.632582
C21_10 C 0.77385(10) 0.36023(10) 0.65371(10)
H10_10 H 0.789812 0.380085 0.656472
C22_10 C 0.78493(9) 0.32586(9) 0.66412(9)
C23_10 C 0.76106(10) 0.29765(10) 0.66016(11)
H11_10 H 0.768092 0.274165 0.667615
C24_10 C 0.72746(10) 0.30269(10) 0.64574(11)
H12_10 H 0.711599 0.282741 0.643123
Co2_6 Co 0.86194(2) 0.13806(2) 0.63806(2)
O13_10 O 0.88246(7) 0.15105(7) 0.59190(7)
N5_10 N 0.81835(8) 0.15874(8) 0.61842(8)
N6_10 N 0.67949(8) 0.17949(8) 0.67949(8)
C25_10 C 0.85927(11) 0.16308(11) 0.56977(11)
C26_10 C 0.82105(10) 0.16741(11) 0.58381(11)
C27_10 C 0.78361(10) 0.16306(10) 0.63487(9)
C28_10 C 0.76019(10) 0.13426(10) 0.63936(10)
H13_10 H 0.767523 0.110671 0.632582
C29_10 C 0.72615(10) 0.13977(10) 0.65371(10)
H14_10 H 0.710188 0.119915 0.656472
C30_10 C 0.71507(9) 0.17414(9) 0.66412(9)
C31_10 C 0.73894(10) 0.20235(10) 0.66016(11)
H15_10 H 0.731908 0.225835 0.667615
C32_10 C 0.77254(10) 0.19731(10) 0.64574(11)
H16_10 H 0.788401 0.217259 0.643123
O19_6 O 0.65105(7) 0.09190(7) 0.88246(7)
N7_6 N 0.65874(8) 0.11842(8) 0.81835(8)
C33_10 C 0.66308(11) 0.06977(11) 0.85927(11)
C34_10 C 0.66741(11) 0.08381(11) 0.82105(10)
C35_10 C 0.66306(10) 0.13487(9) 0.78361(10)
C36_10 C 0.63426(10) 0.13936(10) 0.76019(10)
H17_10 H 0.610671 0.132582 0.767523
C37_10 C 0.63977(10) 0.15371(10) 0.72615(10)
H18_10 H 0.619915 0.156472 0.710188
C38_10 C 0.67414(9) 0.16412(9) 0.71507(9)
C39_10 C 0.70235(10) 0.16016(11) 0.73894(10)
H19_10 H 0.725835 0.167615 0.731908
C40_10 C 0.69731(10) 0.14574(11) 0.77254(10)
H20_10 H 0.717259 0.143123 0.788401
O22_10 O 0.59190(7) 0.38246(7) 0.65105(7)
N8_10 N 0.61842(8) 0.31835(8) 0.65874(8)
C41_10 C 0.56977(11) 0.35927(11) 0.66308(11)
C42_10 C 0.58381(11) 0.32105(10) 0.66741(11)
C43_10 C 0.63487(9) 0.28361(10) 0.66306(10)
C44_10 C 0.63936(10) 0.26019(10) 0.63426(10)
H21_10 H 0.632582 0.267523 0.610671
C45_10 C 0.65371(10) 0.22615(10) 0.63977(10)
H22_10 H 0.656472 0.210188 0.619915
C46_10 C 0.66412(9) 0.21507(9) 0.67414(9)
C47_10 C 0.66016(11) 0.23894(10) 0.70235(10)
H23_10 H 0.667615 0.231908 0.725835
C48_10 C 0.64574(11) 0.27254(10) 0.69731(10)
H24_10 H 0.643123 0.288401 0.717259
Co3_6 Co 0.63806(2) 0.13806(2) 0.86194(2)
Co4_6 Co 0.63806(2) 0.36194(2) 0.63806(2)
O31_10 O 0.84895(7) 0.09190(7) 0.61754(7)
O32_6 O 0.88246(7) 0.34895(7) 0.90810(7)
O33_6 O 0.90810(7) 0.38246(7) 0.84895(7)
N9_10 N 0.84126(8) 0.11842(8) 0.68165(8)
N10_6 N 0.81835(8) 0.34126(8) 0.88158(8)
N11_6 N 0.88158(8) 0.31835(8) 0.84126(8)
H47_18 H 0.991975 0.260373 0.691104
H39_19 H 0.0105354 0.818448 0.384268
H40_19 H 0.0146022 0.77656 0.372388
H48_19 H 0.0247432 0.747615 0.281064
Co1_7 Co 0.86194(2) 0.63806(2) 0.13806(2)
O1_7 O 0.84895(7) 0.59190(7) 0.11754(7)
N1_7 N 0.84126(8) 0.61842(8) 0.18165(8)
N2_11 N 0.82051(8) 0.67949(8) 0.32051(8)
C1_11 C 0.83692(11) 0.56977(11) 0.14073(11)
C2_11 C 0.83259(11) 0.58381(11) 0.17895(10)
C3_11 C 0.83694(10) 0.63487(9) 0.21639(10)
C4_11 C 0.86574(10) 0.63936(10) 0.23981(10)
H1_11 H 0.889329 0.632582 0.232477
C5_11 C 0.86023(10) 0.65371(10) 0.27385(10)
H2_11 H 0.880085 0.656472 0.289812
C6_11 C 0.82586(9) 0.66412(9) 0.28493(9)
C7_11 C 0.79765(10) 0.66016(11) 0.26106(10)
H3_11 H 0.774165 0.667615 0.268092
C8_11 C 0.80269(10) 0.64574(11) 0.22746(10)
H4_11 H 0.782741 0.643123 0.211599
O7_7 O 0.90810(7) 0.88246(7) 0.34895(7)
N3_7 N 0.88158(8) 0.81835(8) 0.34126(8)
C9_11 C 0.93023(11) 0.85927(11) 0.33692(11)
C10_11 C 0.91619(11) 0.82105(10) 0.33259(11)
C11_11 C 0.86513(9) 0.78361(10) 0.33694(10)
C12_11 C 0.86064(10) 0.76019(10) 0.36574(10)
H5_11 H 0.867418 0.767523 0.389329
C13_11 C 0.84629(10) 0.72615(10) 0.36023(10)
H6_11 H 0.843528 0.710188 0.380085
C14_11 C 0.83588(9) 0.71507(9) 0.32586(9)
C15_11 C 0.83984(11) 0.73894(10) 0.29765(10)
H7_11 H 0.832385 0.731908 0.274165
C16_11 C 0.85426(11) 0.77254(10) 0.30269(10)
H8_11 H 0.856877 0.788401 0.282741
O10_7 O 0.61754(7) 0.65105(7) 0.40810(7)
N4_7 N 0.68165(8) 0.65874(8) 0.38158(8)
C17_11 C 0.64073(11) 0.66308(11) 0.43023(11)
C18_11 C 0.67895(10) 0.66741(11) 0.41619(11)
C19_11 C 0.71639(10) 0.66306(10) 0.36513(9)
C20_11 C 0.73981(10) 0.63426(10) 0.36064(10)
H9_11 H 0.732477 0.610671 0.367418
C21_11 C 0.77385(10) 0.63977(10) 0.34629(10)
H10_11 H 0.789812 0.619915 0.343528
C22_11 C 0.78493(9) 0.67414(9) 0.33588(9)
C23_11 C 0.76106(10) 0.70235(10) 0.33984(11)
H11_11 H 0.768092 0.725835 0.332385
C24_11 C 0.72746(10) 0.69731(10) 0.35426(11)
H12_11 H 0.711599 0.717259 0.356877
Co2_7 Co 0.86194(2) 0.86194(2) 0.36194(2)
O13_11 O 0.88246(7) 0.84895(7) 0.40810(7)
N5_11 N 0.81835(8) 0.84126(8) 0.38158(8)
N6_11 N 0.67949(8) 0.82051(8) 0.32051(8)
C25_11 C 0.85927(11) 0.83692(11) 0.43023(11)
C26_11 C 0.82105(10) 0.83259(11) 0.41619(11)
C27_11 C 0.78361(10) 0.83694(10) 0.36513(9)
C28_11 C 0.76019(10) 0.86574(10) 0.36064(10)
H13_11 H 0.767523 0.889329 0.367418
C29_11 C 0.72615(10) 0.86023(10) 0.34629(10)
H14_11 H 0.710188 0.880085 0.343528
C30_11 C 0.71507(9) 0.82586(9) 0.33588(9)
C31_11 C 0.73894(10) 0.79765(10) 0.33984(11)
H15_11 H 0.731908 0.774165 0.332385
C32_11 C 0.77254(10) 0.80269(10) 0.35426(11)
H16_11 H 0.788401 0.782741 0.356877
O19_7 O 0.65105(7) 0.90810(7) 0.11754(7)
N7_7 N 0.65874(8) 0.88158(8) 0.18165(8)
C33_11 C 0.66308(11) 0.93023(11) 0.14073(11)
C34_11 C 0.66741(11) 0.91619(11) 0.17895(10)
C35_11 C 0.66306(10) 0.86513(9) 0.21639(10)
C36_11 C 0.63426(10) 0.86064(10) 0.23981(10)
H17_11 H 0.610671 0.867418 0.232477
C37_11 C 0.63977(10) 0.84629(10) 0.27385(10)
H18_11 H 0.619915 0.843528 0.289812
C38_11 C 0.67414(9) 0.83588(9) 0.28493(9)
C39_11 C 0.70235(10) 0.83984(11) 0.26106(10)
H19_11 H 0.725835 0.832385 0.268092
C40_11 C 0.69731(10) 0.85426(11) 0.22746(10)
H20_11 H 0.717259 0.856877 0.211599
O22_11 O 0.59190(7) 0.61754(7) 0.34895(7)
N8_11 N 0.61842(8) 0.68165(8) 0.34126(8)
C41_11 C 0.56977(11) 0.64073(11) 0.33692(11)
C42_11 C 0.58381(11) 0.67895(10) 0.33259(11)
C43_11 C 0.63487(9) 0.71639(10) 0.33694(10)
C44_11 C 0.63936(10) 0.73981(10) 0.36574(10)
H21_11 H 0.632582 0.732477 0.389329
C45_11 C 0.65371(10) 0.77385(10) 0.36023(10)
H22_11 H 0.656472 0.789812 0.380085
C46_11 C 0.66412(9) 0.78493(9) 0.32586(9)
C47_11 C 0.66016(11) 0.76106(10) 0.29765(10)
H23_11 H 0.667615 0.768092 0.274165
C48_11 C 0.64574(11) 0.72746(10) 0.30269(10)
H24_11 H 0.643123 0.711599 0.282741
Co3_7 Co 0.63806(2) 0.86194(2) 0.13806(2)
Co4_7 Co 0.63806(2) 0.63806(2) 0.36194(2)
O31_11 O 0.84895(7) 0.90810(7) 0.38246(7)
O32_7 O 0.88246(7) 0.65105(7) 0.09190(7)
O33_7 O 0.90810(7) 0.61754(7) 0.15105(7)
N9_11 N 0.84126(8) 0.88158(8) 0.31835(8)
N10_7 N 0.81835(8) 0.65874(8) 0.11842(8)
N11_7 N 0.88158(8) 0.68165(8) 0.15874(8)
H47_19 H 0.991975 0.739627 0.308896
Co1_8 Co 0.13806(2) 0.36194(2) 0.13806(2)
O1_8 O 0.15105(7) 0.40810(7) 0.11754(7)
N1_8 N 0.15874(8) 0.38158(8) 0.18165(8)
N2_12 N 0.17949(8) 0.32051(8) 0.32051(8)
C1_12 C 0.16308(11) 0.43023(11) 0.14073(11)
C2_12 C 0.16741(11) 0.41619(11) 0.17895(10)
C3_12 C 0.16306(10) 0.36513(9) 0.21639(10)
C4_12 C 0.13426(10) 0.36064(10) 0.23981(10)
H1_12 H 0.110671 0.367418 0.232477
C5_12 C 0.13977(10) 0.34629(10) 0.27385(10)
H2_12 H 0.119915 0.343528 0.289812
C6_12 C 0.17414(9) 0.33588(9) 0.28493(9)
C7_12 C 0.20235(10) 0.33984(11) 0.26106(10)
H3_12 H 0.225835 0.332385 0.268092
C8_12 C 0.19731(10) 0.35426(11) 0.22746(10)
H4_12 H 0.217259 0.356877 0.211599
O7_8 O 0.09190(7) 0.11754(7) 0.34895(7)
N3_8 N 0.11842(8) 0.18165(8) 0.34126(8)
C9_12 C 0.06977(11) 0.14073(11) 0.33692(11)
C10_12 C 0.08381(11) 0.17895(10) 0.33259(11)
C11_12 C 0.13487(9) 0.21639(10) 0.33694(10)
C12_12 C 0.13936(10) 0.23981(10) 0.36574(10)
H5_12 H 0.132582 0.232477 0.389329
C13_12 C 0.15371(10) 0.27385(10) 0.36023(10)
H6_12 H 0.156472 0.289812 0.380085
C14_12 C 0.16412(9) 0.28493(9) 0.32586(9)
C15_12 C 0.16016(11) 0.26106(10) 0.29765(10)
H7_12 H 0.167615 0.268092 0.274165
C16_12 C 0.14574(11) 0.22746(10) 0.30269(10)
H8_12 H 0.143123 0.211599 0.282741
O10_8 O 0.38246(7) 0.34895(7) 0.40810(7)
N4_8 N 0.31835(8) 0.34126(8) 0.38158(8)
C17_12 C 0.35927(11) 0.33692(11) 0.43023(11)
C18_12 C 0.32105(10) 0.33259(11) 0.41619(11)
C19_12 C 0.28361(10) 0.33694(10) 0.36513(9)
C20_12 C 0.26019(10) 0.36574(10) 0.36064(10)
H9_12 H 0.267523 0.389329 0.367418
C21_12 C 0.22615(10) 0.36023(10) 0.34629(10)
H10_12 H 0.210188 0.380085 0.343528
C22_12 C 0.21507(9) 0.32586(9) 0.33588(9)
C23_12 C 0.23894(10) 0.29765(10) 0.33984(11)
H11_12 H 0.231908 0.274165 0.332385
C24_12 C 0.27254(10) 0.30269(10) 0.35426(11)
H12_12 H 0.288401 0.282741 0.356877
Co2_8 Co 0.13806(2) 0.13806(2) 0.36194(2)
O13_12 O 0.11754(7) 0.15105(7) 0.40810(7)
N5_12 N 0.18165(8) 0.15874(8) 0.38158(8)
N6_12 N 0.32051(8) 0.17949(8) 0.32051(8)
C25_12 C 0.14073(11) 0.16308(11) 0.43023(11)
C26_12 C 0.17895(10) 0.16741(11) 0.41619(11)
C27_12 C 0.21639(10) 0.16306(10) 0.36513(9)
C28_12 C 0.23981(10) 0.13426(10) 0.36064(10)
H13_12 H 0.232477 0.110671 0.367418
C29_12 C 0.27385(10) 0.13977(10) 0.34629(10)
H14_12 H 0.289812 0.119915 0.343528
C30_12 C 0.28493(9) 0.17414(9) 0.33588(9)
C31_12 C 0.26106(10) 0.20235(10) 0.33984(11)
H15_12 H 0.268092 0.225835 0.332385
C32_12 C 0.22746(10) 0.19731(10) 0.35426(11)
H16_12 H 0.211599 0.217259 0.356877
O19_8 O 0.34895(7) 0.09190(7) 0.11754(7)
N7_8 N 0.34126(8) 0.11842(8) 0.18165(8)
C33_12 C 0.33692(11) 0.06977(11) 0.14073(11)
C34_12 C 0.33259(11) 0.08381(11) 0.17895(10)
C35_12 C 0.33694(10) 0.13487(9) 0.21639(10)
C36_12 C 0.36574(10) 0.13936(10) 0.23981(10)
H17_12 H 0.389329 0.132582 0.232477
C37_12 C 0.36023(10) 0.15371(10) 0.27385(10)
H18_12 H 0.380085 0.156472 0.289812
C38_12 C 0.32586(9) 0.16412(9) 0.28493(9)
C39_12 C 0.29765(10) 0.16016(11) 0.26106(10)
H19_12 H 0.274165 0.167615 0.268092
C40_12 C 0.30269(10) 0.14574(11) 0.22746(10)
H20_12 H 0.282741 0.143123 0.211599
O22_12 O 0.40810(7) 0.38246(7) 0.34895(7)
N8_12 N 0.38158(8) 0.31835(8) 0.34126(8)
C41_12 C 0.43023(11) 0.35927(11) 0.33692(11)
C42_12 C 0.41619(11) 0.32105(10) 0.33259(11)
C43_12 C 0.36513(9) 0.28361(10) 0.33694(10)
C44_12 C 0.36064(10) 0.26019(10) 0.36574(10)
H21_12 H 0.367418 0.267523 0.389329
C45_12 C 0.34629(10) 0.22615(10) 0.36023(10)
H22_12 H 0.343528 0.210188 0.380085
C46_12 C 0.33588(9) 0.21507(9) 0.32586(9)
C47_12 C 0.33984(11) 0.23894(10) 0.29765(10)
H23_12 H 0.332385 0.231908 0.274165
C48_12 C 0.35426(11) 0.27254(10) 0.30269(10)
H24_12 H 0.356877 0.288401 0.282741
Co3_8 Co 0.36194(2) 0.13806(2) 0.13806(2)
Co4_8 Co 0.36194(2) 0.36194(2) 0.36194(2)
O31_12 O 0.15105(7) 0.09190(7) 0.38246(7)
O32_8 O 0.11754(7) 0.34895(7) 0.09190(7)
O33_8 O 0.09190(7) 0.38246(7) 0.15105(7)
N9_12 N 0.15874(8) 0.11842(8) 0.31835(8)
N10_8 N 0.18165(8) 0.34126(8) 0.11842(8)
N11_8 N 0.11842(8) 0.31835(8) 0.15874(8)
H47_20 H 0.00802547 0.260373 0.308896
H39_20 H 0.989465 0.181552 0.384268
H40_20 H 0.985398 0.22344 0.372388
H48_20 H 0.975257 0.252385 0.281064
O13_13 O 0.59190(7) 0.11754(7) 0.84895(7)
N5_13 N 0.61842(8) 0.18165(8) 0.84126(8)
N6_13 N 0.67949(8) 0.32051(8) 0.82051(8)
C25_13 C 0.56977(11) 0.14073(11) 0.83692(11)
C26_13 C 0.58381(11) 0.17895(10) 0.83259(11)
C27_13 C 0.63487(9) 0.21639(10) 0.83694(10)
C28_13 C 0.63936(10) 0.23981(10) 0.86574(10)
H13_13 H 0.632582 0.232477 0.889329
C29_13 C 0.65371(10) 0.27385(10) 0.86023(10)
H14_13 H 0.656472 0.289812 0.880085
C30_13 C 0.66412(9) 0.28493(9) 0.82586(9)
C31_13 C 0.66016(11) 0.26106(10) 0.79765(10)
H15_13 H 0.667615 0.268092 0.774165
C32_13 C 0.64574(11) 0.22746(10) 0.80269(10)
H16_13 H 0.643123 0.211599 0.782741
C33_13 C 0.85927(11) 0.33692(11) 0.93023(11)
C34_13 C 0.82105(10) 0.33259(11) 0.91619(11)
C35_13 C 0.78361(10) 0.33694(10) 0.86513(9)
C36_13 C 0.76019(10) 0.36574(10) 0.86064(10)
H17_13 H 0.767523 0.389329 0.867418
C37_13 C 0.72615(10) 0.36023(10) 0.84629(10)
H18_13 H 0.710188 0.380085 0.843528
C38_13 C 0.71507(9) 0.32586(9) 0.83588(9)
C39_13 C 0.73894(10) 0.29765(10) 0.83984(11)
H19_13 H 0.731908 0.274165 0.832385
C40_13 C 0.77254(10) 0.30269(10) 0.85426(11)
H20_13 H 0.788401 0.282741 0.856877
O22_13 O 0.65105(7) 0.40810(7) 0.61754(7)
N8_13 N 0.65874(8) 0.38158(8) 0.68165(8)
C41_13 C 0.66308(11) 0.43023(11) 0.64073(11)
C42_13 C 0.66741(11) 0.41619(11) 0.67895(10)
C43_13 C 0.66306(10) 0.36513(9) 0.71639(10)
C44_13 C 0.63426(10) 0.36064(10) 0.73981(10)
H21_13 H 0.610671 0.367418 0.732477
C45_13 C 0.63977(10) 0.34629(10) 0.77385(10)
H22_13 H 0.619915 0.343528 0.789812
C46_13 C 0.67414(9) 0.33588(9) 0.78493(9)
C47_13 C 0.70235(10) 0.33984(11) 0.76106(10)
H23_13 H 0.725835 0.332385 0.768092
C48_13 C 0.69731(10) 0.35426(11) 0.72746(10)
H24_13 H 0.717259 0.356877 0.711599
O31_13 O 0.61754(7) 0.15105(7) 0.90810(7)
N9_13 N 0.68165(8) 0.15874(8) 0.88158(8)
H47_21 H 0.691104 0.00802547 0.739627
H39_21 H 0.615732 0.989465 0.818448
H40_21 H 0.627612 0.985398 0.77656
H48_21 H 0.718936 0.975257 0.747615
H39_22 H 0.615732 0.0105354 0.181552
H40_22 H 0.627612 0.0146022 0.22344
H48_22 H 0.718936 0.0247432 0.252385
O13_14 O 0.59190(7) 0.88246(7) 0.15105(7)
N5_14 N 0.61842(8) 0.81835(8) 0.15874(8)
N6_14 N 0.67949(8) 0.67949(8) 0.17949(8)
C25_14 C 0.56977(11) 0.85927(11) 0.16308(11)
C26_14 C 0.58381(11) 0.82105(10) 0.16741(11)
C27_14 C 0.63487(9) 0.78361(10) 0.16306(10)
C28_14 C 0.63936(10) 0.76019(10) 0.13426(10)
H13_14 H 0.632582 0.767523 0.110671
C29_14 C 0.65371(10) 0.72615(10) 0.13977(10)
H14_14 H 0.656472 0.710188 0.119915
C30_14 C 0.66412(9) 0.71507(9) 0.17414(9)
C31_14 C 0.66016(11) 0.73894(10) 0.20235(10)
H15_14 H 0.667615 0.731908 0.225835
C32_14 C 0.64574(11) 0.77254(10) 0.19731(10)
H16_14 H 0.643123 0.788401 0.217259
C33_14 C 0.85927(11) 0.66308(11) 0.06977(11)
C34_14 C 0.82105(10) 0.66741(11) 0.08381(11)
C35_14 C 0.78361(10) 0.66306(10) 0.13487(9)
C36_14 C 0.76019(10) 0.63426(10) 0.13936(10)
H17_14 H 0.767523 0.610671 0.132582
C37_14 C 0.72615(10) 0.63977(10) 0.15371(10)
H18_14 H 0.710188 0.619915 0.156472
C38_14 C 0.71507(9) 0.67414(9) 0.16412(9)
C39_14 C 0.73894(10) 0.70235(10) 0.16016(11)
H19_14 H 0.731908 0.725835 0.167615
C40_14 C 0.77254(10) 0.69731(10) 0.14574(11)
H20_14 H 0.788401 0.717259 0.143123
O22_14 O 0.65105(7) 0.59190(7) 0.38246(7)
N8_14 N 0.65874(8) 0.61842(8) 0.31835(8)
C41_14 C 0.66308(11) 0.56977(11) 0.35927(11)
C42_14 C 0.66741(11) 0.58381(11) 0.32105(10)
C43_14 C 0.66306(10) 0.63487(9) 0.28361(10)
C44_14 C 0.63426(10) 0.63936(10) 0.26019(10)
H21_14 H 0.610671 0.632582 0.267523
C45_14 C 0.63977(10) 0.65371(10) 0.22615(10)
H22_14 H 0.619915 0.656472 0.210188
C46_14 C 0.67414(9) 0.66412(9) 0.21507(9)
C47_14 C 0.70235(10) 0.66016(11) 0.23894(10)
H23_14 H 0.725835 0.667615 0.231908
C48_14 C 0.69731(10) 0.64574(11) 0.27254(10)
H24_14 H 0.717259 0.643123 0.288401
O31_14 O 0.61754(7) 0.84895(7) 0.09190(7)
N9_14 N 0.68165(8) 0.84126(8) 0.11842(8)
H47_22 H 0.691104 0.991975 0.260373
H39_23 H 0.384268 0.0105354 0.818448
H40_23 H 0.372388 0.0146022 0.77656
H48_23 H 0.281064 0.0247432 0.747615
O13_15 O 0.40810(7) 0.88246(7) 0.84895(7)
N5_15 N 0.38158(8) 0.81835(8) 0.84126(8)
N6_15 N 0.32051(8) 0.67949(8) 0.82051(8)
C25_15 C 0.43023(11) 0.85927(11) 0.83692(11)
C26_15 C 0.41619(11) 0.82105(10) 0.83259(11)
C27_15 C 0.36513(9) 0.78361(10) 0.83694(10)
C28_15 C 0.36064(10) 0.76019(10) 0.86574(10)
H13_15 H 0.367418 0.767523 0.889329
C29_15 C 0.34629(10) 0.72615(10) 0.86023(10)
H14_15 H 0.343528 0.710188 0.880085
C30_15 C 0.33588(9) 0.71507(9) 0.82586(9)
C31_15 C 0.33984(11) 0.73894(10) 0.79765(10)
H15_15 H 0.332385 0.731908 0.774165
C32_15 C 0.35426(11) 0.77254(10) 0.80269(10)
H16_15 H 0.356877 0.788401 0.782741
C33_15 C 0.14073(11) 0.66308(11) 0.93023(11)
C34_15 C 0.17895(10) 0.66741(11) 0.91619(11)
C35_15 C 0.21639(10) 0.66306(10) 0.86513(9)
C36_15 C 0.23981(10) 0.63426(10) 0.86064(10)
H17_15 H 0.232477 0.610671 0.867418
C37_15 C 0.27385(10) 0.63977(10) 0.84629(10)
H18_15 H 0.289812 0.619915 0.843528
C38_15 C 0.28493(9) 0.67414(9) 0.83588(9)
C39_15 C 0.26106(10) 0.70235(10) 0.83984(11)
H19_15 H 0.268092 0.725835 0.832385
C40_15 C 0.22746(10) 0.69731(10) 0.85426(11)
H20_15 H 0.211599 0.717259 0.856877
O22_15 O 0.34895(7) 0.59190(7) 0.61754(7)
N8_15 N 0.34126(8) 0.61842(8) 0.68165(8)
C41_15 C 0.33692(11) 0.56977(11) 0.64073(11)
C42_15 C 0.33259(11) 0.58381(11) 0.67895(10)
C43_15 C 0.33694(10) 0.63487(9) 0.71639(10)
C44_15 C 0.36574(10) 0.63936(10) 0.73981(10)
H21_15 H 0.389329 0.632582 0.732477
C45_15 C 0.36023(10) 0.65371(10) 0.77385(10)
H22_15 H 0.380085 0.656472 0.789812
C46_15 C 0.32586(9) 0.66412(9) 0.78493(9)
C47_15 C 0.29765(10) 0.66016(11) 0.76106(10)
H23_15 H 0.274165 0.667615 0.768092
C48_15 C 0.30269(10) 0.64574(11) 0.72746(10)
H24_15 H 0.282741 0.643123 0.711599
O31_15 O 0.38246(7) 0.84895(7) 0.90810(7)
N9_15 N 0.31835(8) 0.84126(8) 0.88158(8)
H47_23 H 0.308896 0.991975 0.739627
O13_16 O 0.40810(7) 0.11754(7) 0.15105(7)
N5_16 N 0.38158(8) 0.18165(8) 0.15874(8)
N6_16 N 0.32051(8) 0.32051(8) 0.17949(8)
C25_16 C 0.43023(11) 0.14073(11) 0.16308(11)
C26_16 C 0.41619(11) 0.17895(10) 0.16741(11)
C27_16 C 0.36513(9) 0.21639(10) 0.16306(10)
C28_16 C 0.36064(10) 0.23981(10) 0.13426(10)
H13_16 H 0.367418 0.232477 0.110671
C29_16 C 0.34629(10) 0.27385(10) 0.13977(10)
H14_16 H 0.343528 0.289812 0.119915
C30_16 C 0.33588(9) 0.28493(9) 0.17414(9)
C31_16 C 0.33984(11) 0.26106(10) 0.20235(10)
H15_16 H 0.332385 0.268092 0.225835
C32_16 C 0.35426(11) 0.22746(10) 0.19731(10)
H16_16 H 0.356877 0.211599 0.217259
C33_16 C 0.14073(11) 0.33692(11) 0.06977(11)
C34_16 C 0.17895(10) 0.33259(11) 0.08381(11)
C35_16 C 0.21639(10) 0.33694(10) 0.13487(9)
C36_16 C 0.23981(10) 0.36574(10) 0.13936(10)
H17_16 H 0.232477 0.389329 0.132582
C37_16 C 0.27385(10) 0.36023(10) 0.15371(10)
H18_16 H 0.289812 0.380085 0.156472
C38_16 C 0.28493(9) 0.32586(9) 0.16412(9)
C39_16 C 0.26106(10) 0.29765(10) 0.16016(11)
H19_16 H 0.268092 0.274165 0.167615
C40_16 C 0.22746(10) 0.30269(10) 0.14574(11)
H20_16 H 0.211599 0.282741 0.143123
O22_16 O 0.34895(7) 0.40810(7) 0.38246(7)
N8_16 N 0.34126(8) 0.38158(8) 0.31835(8)
C41_16 C 0.33692(11) 0.43023(11) 0.35927(11)
C42_16 C 0.33259(11) 0.41619(11) 0.32105(10)
C43_16 C 0.33694(10) 0.36513(9) 0.28361(10)
C44_16 C 0.36574(10) 0.36064(10) 0.26019(10)
H21_16 H 0.389329 0.367418 0.267523
C45_16 C 0.36023(10) 0.34629(10) 0.22615(10)
H22_16 H 0.380085 0.343528 0.210188
C46_16 C 0.32586(9) 0.33588(9) 0.21507(9)
C47_16 C 0.29765(10) 0.33984(11) 0.23894(10)
H23_16 H 0.274165 0.332385 0.231908
C48_16 C 0.30269(10) 0.35426(11) 0.27254(10)
H24_16 H 0.282741 0.356877 0.288401
O31_16 O 0.38246(7) 0.15105(7) 0.09190(7)
N9_16 N 0.31835(8) 0.15874(8) 0.11842(8)
H47_24 H 0.308896 0.00802547 0.260373
H39_24 H 0.384268 0.989465 0.181552
H40_24 H 0.372388 0.985398 0.22344
H48_24 H 0.281064 0.975257 0.252385
H47_25 H 0.739627 0.691104 0.00802547
H39_25 H 0.818448 0.615732 0.989465
H40_25 H 0.77656 0.627612 0.985398
H48_25 H 0.747615 0.718936 0.975257
H39_26 H 0.181552 0.615732 0.0105354
H40_26 H 0.22344 0.627612 0.0146022
H48_26 H 0.252385 0.718936 0.0247432
H47_26 H 0.260373 0.691104 0.991975
H39_27 H 0.818448 0.384268 0.0105354
H40_27 H 0.77656 0.372388 0.0146022
H48_27 H 0.747615 0.281064 0.0247432
H47_27 H 0.739627 0.308896 0.991975
H47_28 H 0.260373 0.308896 0.00802547
H39_28 H 0.181552 0.384268 0.989465
H40_28 H 0.22344 0.372388 0.985398
H48_28 H 0.252385 0.281064 0.975257
N2_13 N 0.17949(8) 0.17949(8) 0.17949(8)
C1_13 C 0.16308(11) 0.06977(11) 0.35927(11)
C2_13 C 0.16741(11) 0.08381(11) 0.32105(10)
C3_13 C 0.16306(10) 0.13487(9) 0.28361(10)
C4_13 C 0.13426(10) 0.13936(10) 0.26019(10)
H1_13 H 0.110671 0.132582 0.267523
C5_13 C 0.13977(10) 0.15371(10) 0.22615(10)
H2_13 H 0.119915 0.156472 0.210188
C6_13 C 0.17414(9) 0.16412(9) 0.21507(9)
C7_13 C 0.20235(10) 0.16016(11) 0.23894(10)
H3_13 H 0.225835 0.167615 0.231908
C8_13 C 0.19731(10) 0.14574(11) 0.27254(10)
H4_13 H 0.217259 0.143123 0.288401
C9_13 C 0.06977(11) 0.35927(11) 0.16308(11)
C10_13 C 0.08381(11) 0.32105(10) 0.16741(11)
C11_13 C 0.13487(9) 0.28361(10) 0.16306(10)
C12_13 C 0.13936(10) 0.26019(10) 0.13426(10)
H5_13 H 0.132582 0.267523 0.110671
C13_13 C 0.15371(10) 0.22615(10) 0.13977(10)
H6_13 H 0.156472 0.210188 0.119915
C14_13 C 0.16412(9) 0.21507(9) 0.17414(9)
C15_13 C 0.16016(11) 0.23894(10) 0.20235(10)
H7_13 H 0.167615 0.231908 0.225835
C16_13 C 0.14574(11) 0.27254(10) 0.19731(10)
H8_13 H 0.143123 0.288401 0.217259
C17_13 C 0.35927(11) 0.16308(11) 0.06977(11)
C18_13 C 0.32105(10) 0.16741(11) 0.08381(11)
C19_13 C 0.28361(10) 0.16306(10) 0.13487(9)
C20_13 C 0.26019(10) 0.13426(10) 0.13936(10)
H9_13 H 0.267523 0.110671 0.132582
C21_13 C 0.22615(10) 0.13977(10) 0.15371(10)
H10_13 H 0.210188 0.119915 0.156472
C22_13 C 0.21507(9) 0.17414(9) 0.16412(9)
C23_13 C 0.23894(10) 0.20235(10) 0.16016(11)
H11_13 H 0.231908 0.225835 0.167615
C24_13 C 0.27254(10) 0.19731(10) 0.14574(11)
H12_13 H 0.288401 0.217259 0.143123
H27_5 H 0.191104 0.00802547 0.239627
H47_29 H 0.00802547 0.239627 0.191104
H25_5 H 0.115732 0.989465 0.318448
H26_5 H 0.127612 0.985398 0.27656
H28_5 H 0.218936 0.975257 0.247615
H39_29 H 0.989465 0.318448 0.115732
H40_29 H 0.985398 0.27656 0.127612
H48_29 H 0.975257 0.247615 0.218936
H39_30 H 0.0105354 0.681552 0.115732
H40_30 H 0.0146022 0.72344 0.127612
H48_30 H 0.0247432 0.752385 0.218936
H25_6 H 0.884268 0.0105354 0.318448
H26_6 H 0.872388 0.0146022 0.27656
H28_6 H 0.781064 0.0247432 0.247615
N2_14 N 0.82051(8) 0.82051(8) 0.17949(8)
C1_14 C 0.83692(11) 0.93023(11) 0.35927(11)
C2_14 C 0.83259(11) 0.91619(11) 0.32105(10)
C3_14 C 0.83694(10) 0.86513(9) 0.28361(10)
C4_14 C 0.86574(10) 0.86064(10) 0.26019(10)
H1_14 H 0.889329 0.867418 0.267523
C5_14 C 0.86023(10) 0.84629(10) 0.22615(10)
H2_14 H 0.880085 0.843528 0.210188
C6_14 C 0.82586(9) 0.83588(9) 0.21507(9)
C7_14 C 0.79765(10) 0.83984(11) 0.23894(10)
H3_14 H 0.774165 0.832385 0.231908
C8_14 C 0.80269(10) 0.85426(11) 0.27254(10)
H4_14 H 0.782741 0.856877 0.288401
C9_14 C 0.93023(11) 0.64073(11) 0.16308(11)
C10_14 C 0.91619(11) 0.67895(10) 0.16741(11)
C11_14 C 0.86513(9) 0.71639(10) 0.16306(10)
C12_14 C 0.86064(10) 0.73981(10) 0.13426(10)
H5_14 H 0.867418 0.732477 0.110671
C13_14 C 0.84629(10) 0.77385(10) 0.13977(10)
H6_14 H 0.843528 0.789812 0.119915
C14_14 C 0.83588(9) 0.78493(9) 0.17414(9)
C15_14 C 0.83984(11) 0.76106(10) 0.20235(10)
H7_14 H 0.832385 0.768092 0.225835
C16_14 C 0.85426(11) 0.72746(10) 0.19731(10)
H8_14 H 0.856877 0.711599 0.217259
C17_14 C 0.64073(11) 0.83692(11) 0.06977(11)
C18_14 C 0.67895(10) 0.83259(11) 0.08381(11)
C19_14 C 0.71639(10) 0.83694(10) 0.13487(9)
C20_14 C 0.73981(10) 0.86574(10) 0.13936(10)
H9_14 H 0.732477 0.889329 0.132582
C21_14 C 0.77385(10) 0.86023(10) 0.15371(10)
H10_14 H 0.789812 0.880085 0.156472
C22_14 C 0.78493(9) 0.82586(9) 0.16412(9)
C23_14 C 0.76106(10) 0.79765(10) 0.16016(11)
H11_14 H 0.768092 0.774165 0.167615
C24_14 C 0.72746(10) 0.80269(10) 0.14574(11)
H12_14 H 0.711599 0.782741 0.143123
H27_6 H 0.808896 0.991975 0.239627
H47_30 H 0.991975 0.760373 0.191104
H39_31 H 0.0105354 0.318448 0.884268
H40_31 H 0.0146022 0.27656 0.872388
H48_31 H 0.0247432 0.247615 0.781064
N2_15 N 0.82051(8) 0.17949(8) 0.82051(8)
C1_15 C 0.83692(11) 0.06977(11) 0.64073(11)
C2_15 C 0.83259(11) 0.08381(11) 0.67895(10)
C3_15 C 0.83694(10) 0.13487(9) 0.71639(10)
C4_15 C 0.86574(10) 0.13936(10) 0.73981(10)
H1_15 H 0.889329 0.132582 0.732477
C5_15 C 0.86023(10) 0.15371(10) 0.77385(10)
H2_15 H 0.880085 0.156472 0.789812
C6_15 C 0.82586(9) 0.16412(9) 0.78493(9)
C7_15 C 0.79765(10) 0.16016(11) 0.76106(10)
H3_15 H 0.774165 0.167615 0.768092
C8_15 C 0.80269(10) 0.14574(11) 0.72746(10)
H4_15 H 0.782741 0.143123 0.711599
C9_15 C 0.93023(11) 0.35927(11) 0.83692(11)
C10_15 C 0.91619(11) 0.32105(10) 0.83259(11)
C11_15 C 0.86513(9) 0.28361(10) 0.83694(10)
C12_15 C 0.86064(10) 0.26019(10) 0.86574(10)
H5_15 H 0.867418 0.267523 0.889329
C13_15 C 0.84629(10) 0.22615(10) 0.86023(10)
H6_15 H 0.843528 0.210188 0.880085
C14_15 C 0.83588(9) 0.21507(9) 0.82586(9)
C15_15 C 0.83984(11) 0.23894(10) 0.79765(10)
H7_15 H 0.832385 0.231908 0.774165
C16_15 C 0.85426(11) 0.27254(10) 0.80269(10)
H8_15 H 0.856877 0.288401 0.782741
C17_15 C 0.64073(11) 0.16308(11) 0.93023(11)
C18_15 C 0.67895(10) 0.16741(11) 0.91619(11)
C19_15 C 0.71639(10) 0.16306(10) 0.86513(9)
C20_15 C 0.73981(10) 0.13426(10) 0.86064(10)
H9_15 H 0.732477 0.110671 0.867418
C21_15 C 0.77385(10) 0.13977(10) 0.84629(10)
H10_15 H 0.789812 0.119915 0.843528
C22_15 C 0.78493(9) 0.17414(9) 0.83588(9)
C23_15 C 0.76106(10) 0.20235(10) 0.83984(11)
H11_15 H 0.768092 0.225835 0.832385
C24_15 C 0.72746(10) 0.19731(10) 0.85426(11)
H12_15 H 0.711599 0.217259 0.856877
H27_7 H 0.808896 0.00802547 0.760373
H47_31 H 0.991975 0.239627 0.808896
H25_7 H 0.884268 0.989465 0.681552
H26_7 H 0.872388 0.985398 0.72344
H28_7 H 0.781064 0.975257 0.752385
H25_8 H 0.115732 0.0105354 0.681552
H26_8 H 0.127612 0.0146022 0.72344
H28_8 H 0.218936 0.0247432 0.752385
N2_16 N 0.17949(8) 0.82051(8) 0.82051(8)
C1_16 C 0.16308(11) 0.93023(11) 0.64073(11)
C2_16 C 0.16741(11) 0.91619(11) 0.67895(10)
C3_16 C 0.16306(10) 0.86513(9) 0.71639(10)
C4_16 C 0.13426(10) 0.86064(10) 0.73981(10)
H1_16 H 0.110671 0.867418 0.732477
C5_16 C 0.13977(10) 0.84629(10) 0.77385(10)
H2_16 H 0.119915 0.843528 0.789812
C6_16 C 0.17414(9) 0.83588(9) 0.78493(9)
C7_16 C 0.20235(10) 0.83984(11) 0.76106(10)
H3_16 H 0.225835 0.832385 0.768092
C8_16 C 0.19731(10) 0.85426(11) 0.72746(10)
H4_16 H 0.217259 0.856877 0.711599
C9_16 C 0.06977(11) 0.64073(11) 0.83692(11)
C10_16 C 0.08381(11) 0.67895(10) 0.83259(11)
C11_16 C 0.13487(9) 0.71639(10) 0.83694(10)
C12_16 C 0.13936(10) 0.73981(10) 0.86574(10)
H5_16 H 0.132582 0.732477 0.889329
C13_16 C 0.15371(10) 0.77385(10) 0.86023(10)
H6_16 H 0.156472 0.789812 0.880085
C14_16 C 0.16412(9) 0.78493(9) 0.82586(9)
C15_16 C 0.16016(11) 0.76106(10) 0.79765(10)
H7_16 H 0.167615 0.768092 0.774165
C16_16 C 0.14574(11) 0.72746(10) 0.80269(10)
H8_16 H 0.143123 0.711599 0.782741
C17_16 C 0.35927(11) 0.83692(11) 0.93023(11)
C18_16 C 0.32105(10) 0.83259(11) 0.91619(11)
C19_16 C 0.28361(10) 0.83694(10) 0.86513(9)
C20_16 C 0.26019(10) 0.86574(10) 0.86064(10)
H9_16 H 0.267523 0.889329 0.867418
C21_16 C 0.22615(10) 0.86023(10) 0.84629(10)
H10_16 H 0.210188 0.880085 0.843528
C22_16 C 0.21507(9) 0.82586(9) 0.83588(9)
C23_16 C 0.23894(10) 0.79765(10) 0.83984(11)
H11_16 H 0.231908 0.774165 0.832385
C24_16 C 0.27254(10) 0.80269(10) 0.85426(11)
H12_16 H 0.288401 0.782741 0.856877
H27_8 H 0.191104 0.991975 0.760373
H47_32 H 0.00802547 0.760373 0.808896
H39_32 H 0.989465 0.681552 0.884268
H40_32 H 0.985398 0.72344 0.872388
H48_32 H 0.975257 0.752385 0.781064
H35_5 H 0.760373 0.808896 0.00802547
H33_5 H 0.681552 0.884268 0.989465
H34_5 H 0.72344 0.872388 0.985398
H36_5 H 0.752385 0.781064 0.975257
H35_6 H 0.239627 0.191104 0.00802547
H33_6 H 0.318448 0.115732 0.989465
H34_6 H 0.27656 0.127612 0.985398
H36_6 H 0.247615 0.218936 0.975257
H33_7 H 0.318448 0.884268 0.0105354
H34_7 H 0.27656 0.872388 0.0146022
H36_7 H 0.247615 0.781064 0.0247432
H35_7 H 0.239627 0.808896 0.991975
H33_8 H 0.681552 0.115732 0.0105354
H34_8 H 0.72344 0.127612 0.0146022
H36_8 H 0.752385 0.218936 0.0247432
H35_8 H 0.760373 0.191104 0.991975
loop_
_geom_bond_atom_site_label_1
_geom_bond_atom_site_label_2
_geom_bond_site_symmetry_1
_geom_bond_site_symmetry_2
O25 Ca3 1_555 1_555
O26 Ca3 1_555 1_555
O27 Ca3 1_555 1_555
O36 Ca3 1_555 1_555
O39 Ca3 1_555 1_555
O26 H39 1_555 1_555
O26 H40 1_555 1_555
O27 H48 1_555 1_555
Ca1 O2 1_555 1_555
Co1 O1 1_555 1_555
O1 C1 1_555 1_555
O2 C1 1_555 1_555
O3 Ca1 1_555 1_555
N1 Co1 1_555 1_555
N2 C6 1_555 1_555
C1 C2 1_555 1_555
C2 O3 1_555 1_555
C3 N1 1_555 1_555
C4 C3 1_555 1_555
H1 C4 1_555 1_555
C5 C4 1_555 1_555
H2 C5 1_555 1_555
C6 C5 1_555 1_555
C7 C6 1_555 1_555
H3 C7 1_555 1_555
C8 C3 1_555 1_555
H4 C8 1_555 1_555
O4 Ca1 1_555 1_555
O5 Ca1 1_555 1_555
O6 Ca1 1_555 1_555
O7 C9 1_555 1_555
O8 C9 1_555 1_555
O9 C10 1_555 1_555
N3 C10 1_555 1_555
C9 C10 1_555 1_555
C11 N3 1_555 1_555
C12 C11 1_555 1_555
H5 C12 1_555 1_555
C13 C12 1_555 1_555
H6 C13 1_555 1_555
C14 N2 1_555 1_555
C15 C14 1_555 1_555
H7 C15 1_555 1_555
C16 C11 1_555 1_555
H8 C16 1_555 1_555
O10 C17 1_555 1_555
O11 C17 1_555 1_555
O12 C18 1_555 1_555
N4 C18 1_555 1_555
C17 C18 1_555 1_555
C19 N4 1_555 1_555
C20 C19 1_555 1_555
H9 C20 1_555 1_555
C21 C20 1_555 1_555
H10 C21 1_555 1_555
C22 N2 1_555 1_555
C23 C22 1_555 1_555
H11 C23 1_555 1_555
C24 C19 1_555 1_555
H12 C24 1_555 1_555
Ca2 O14 1_555 1_555
Co2 O7 1_555 1_555
O13 Co2 1_555 1_555
O14 C25 1_555 1_555
O15 Ca2 1_555 1_555
N5 Co2 1_555 1_555
N6 C30 1_555 1_555
C25 O13 1_555 1_555
C26 O15 1_555 1_555
C27 N5 1_555 1_555
C28 C27 1_555 1_555
H13 C28 1_555 1_555
C29 C28 1_555 1_555
H14 C29 1_555 1_555
C30 C29 1_555 1_555
C31 C30 1_555 1_555
H15 C31 1_555 1_555
C32 C27 1_555 1_555
H16 C32 1_555 1_555
O16 Ca2 1_555 1_555
O17 Ca2 1_555 1_555
O18 Ca2 1_555 1_555
O19 C33 1_555 1_555
O20 C33 1_555 1_555
O21 C34 1_555 1_555
N7 C34 1_555 1_555
C33 C34 1_555 1_555
C35 N7 1_555 1_555
C36 C35 1_555 1_555
H17 C36 1_555 1_555
C37 C36 1_555 1_555
H18 C37 1_555 1_555
C38 N6 1_555 1_555
C39 C38 1_555 1_555
H19 C39 1_555 1_555
C40 C35 1_555 1_555
H20 C40 1_555 1_555
O22 C41 1_555 1_555
O23 C41 1_555 1_555
O24 C42 1_555 1_555
N8 C42 1_555 1_555
C41 C42 1_555 1_555
C43 N8 1_555 1_555
C44 C43 1_555 1_555
H21 C44 1_555 1_555
C45 C44 1_555 1_555
H22 C45 1_555 1_555
C46 N6 1_555 1_555
C47 C46 1_555 1_555
H23 C47 1_555 1_555
C48 C43 1_555 1_555
H24 C48 1_555 1_555
Ca3_2 O8 1_555 1_555
O26_2 Ca3_2 1_555 1_555
O27_2 Ca3_2 1_555 1_555
O28 Ca1 1_555 1_555
O29 Ca2 1_555 1_555
O30 Ca3_2 1_555 1_555
Ca4 O23 1_555 1_555
Ca5 O20 1_555 1_555
Ca6 O11 1_555 1_555
Co3 O19 1_555 1_555
Co4 O10 1_555 1_555
O31 Co2 1_555 1_555
O32 Co1 1_555 1_555
O33 Co1 1_555 1_555
O34 Ca1 1_555 1_555
O35 Ca2 1_555 1_555
O37 Ca1 1_555 1_555
O38 Ca2 1_555 1_555
N9 Co2 1_555 1_555
N10 Co1 1_555 1_555
N11 Co1 1_555 1_555
N1 C2 1_555 1_555
C7 C8 1_555 1_555
O9 Ca3_2 1_555 1_555
N3 Co2 1_555 1_555
C13 C14 1_555 1_555
C15 C16 1_555 1_555
O12 Ca6 1_555 1_555
N4 Co4 1_555 1_555
C21 C22 1_555 1_555
C23 C24 1_555 1_555
N5 C26 1_555 1_555
C25 C26 1_555 1_555
C31 C32 1_555 1_555
O21 Ca5 1_555 1_555
N7 Co3 1_555 1_555
C37 C38 1_555 1_555
C39 C40 1_555 1_555
O22 Co4 1_555 1_555
O24 Ca4 1_555 1_555
N8 Co4 1_555 1_555
C45 C46 1_555 1_555
C47 C48 1_555 1_555
O27_2 H47 1_555 1_555
Ca1_2 O2_2 1_555 1_555
Co1_2 O1_2 1_555 1_555
O1_2 C1_2 1_555 1_555
O2_2 C1_2 1_555 1_555
O3_2 Ca1_2 1_555 1_555
N1_2 Co1_2 1_555 1_555
N2_2 C6_2 1_555 1_555
C1_2 C2_2 1_555 1_555
C2_2 O3_2 1_555 1_555
C3_2 N1_2 1_555 1_555
C4_2 C3_2 1_555 1_555
H1_2 C4_2 1_555 1_555
C5_2 C4_2 1_555 1_555
H2_2 C5_2 1_555 1_555
C6_2 C5_2 1_555 1_555
C7_2 C6_2 1_555 1_555
H3_2 C7_2 1_555 1_555
C8_2 C3_2 1_555 1_555
H4_2 C8_2 1_555 1_555
O4_2 Ca1_2 1_555 1_555
O5_2 Ca1_2 1_555 1_555
O6_2 Ca1_2 1_555 1_555
O7_2 C9_2 1_555 1_555
O8_2 C9_2 1_555 1_555
O9_2 C10_2 1_555 1_555
N3_2 C10_2 1_555 1_555
C9_2 C10_2 1_555 1_555
C11_2 N3_2 1_555 1_555
C12_2 C11_2 1_555 1_555
H5_2 C12_2 1_555 1_555
C13_2 C12_2 1_555 1_555
H6_2 C13_2 1_555 1_555
C14_2 N2_2 1_555 1_555
C15_2 C14_2 1_555 1_555
H7_2 C15_2 1_555 1_555
C16_2 C11_2 1_555 1_555
H8_2 C16_2 1_555 1_555
O10_2 C17_2 1_555 1_555
O11_2 C17_2 1_555 1_555
O12_2 C18_2 1_555 1_555
N4_2 C18_2 1_555 1_555
C17_2 C18_2 1_555 1_555
C19_2 N4_2 1_555 1_555
C20_2 C19_2 1_555 1_555
H9_2 C20_2 1_555 1_555
C21_2 C20_2 1_555 1_555
H10_2 C21_2 1_555 1_555
C22_2 N2_2 1_555 1_555
C23_2 C22_2 1_555 1_555
H11_2 C23_2 1_555 1_555
C24_2 C19_2 1_555 1_555
H12_2 C24_2 1_555 1_555
Ca2_2 O14_2 1_555 1_555
Co2_2 O7_2 1_555 1_555
O13_2 Co2_2 1_555 1_555
O14_2 C25_2 1_555 1_555
O15_2 Ca2_2 1_555 1_555
N5_2 Co2_2 1_555 1_555
N6_2 C30_2 1_555 1_555
C25_2 O13_2 1_555 1_555
C26_2 O15_2 1_555 1_555
C27_2 N5_2 1_555 1_555
C28_2 C27_2 1_555 1_555
H13_2 C28_2 1_555 1_555
C29_2 C28_2 1_555 1_555
H14_2 C29_2 1_555 1_555
C30_2 C29_2 1_555 1_555
C31_2 C30_2 1_555 1_555
H15_2 C31_2 1_555 1_555
C32_2 C27_2 1_555 1_555
H16_2 C32_2 1_555 1_555
O16_2 Ca2_2 1_555 1_555
O17_2 Ca2_2 1_555 1_555
O18_2 Ca2_2 1_555 1_555
O19_2 C33_2 1_555 1_555
O20_2 C33_2 1_555 1_555
O21_2 C34_2 1_555 1_555
N7_2 C34_2 1_555 1_555
C33_2 C34_2 1_555 1_555
C35_2 N7_2 1_555 1_555
C36_2 C35_2 1_555 1_555
H17_2 C36_2 1_555 1_555
C37_2 C36_2 1_555 1_555
H18_2 C37_2 1_555 1_555
C38_2 N6_2 1_555 1_555
C39_2 C38_2 1_555 1_555
H19_2 C39_2 1_555 1_555
C40_2 C35_2 1_555 1_555
H20_2 C40_2 1_555 1_555
O22_2 C41_2 1_555 1_555
O23_2 C41_2 1_555 1_555
O24_2 C42_2 1_555 1_555
N8_2 C42_2 1_555 1_555
C41_2 C42_2 1_555 1_555
C43_2 N8_2 1_555 1_555
C44_2 C43_2 1_555 1_555
H21_2 C44_2 1_555 1_555
C45_2 C44_2 1_555 1_555
H22_2 C45_2 1_555 1_555
C46_2 N6_2 1_555 1_555
C47_2 C46_2 1_555 1_555
H23_2 C47_2 1_555 1_555
C48_2 C43_2 1_555 1_555
H24_2 C48_2 1_555 1_555
Ca3_3 O8_2 1_555 1_555
O26_3 Ca3_3 1_555 1_555
O27_3 Ca3_3 1_555 1_555
O28_2 Ca1_2 1_555 1_555
O29_2 Ca2_2 1_555 1_555
O30_2 Ca3_3 1_555 1_555
Ca4_2 O23_2 1_555 1_555
Ca5_4 O20_2 1_555 1_555
Ca6_2 O11_2 1_555 1_555
Co3_2 O19_2 1_555 1_555
Co4_2 O10_2 1_555 1_555
O31_2 Co2_2 1_555 1_555
O32_2 Co1_2 1_555 1_555
O33_2 Co1_2 1_555 1_555
O34_2 Ca1_2 1_555 1_555
O35_2 Ca2_2 1_555 1_555
O37_2 Ca1_2 1_555 1_555
O38_2 Ca2_2 1_555 1_555
N9_2 Co2_2 1_555 1_555
N10_2 Co1_2 1_555 1_555
N11_2 Co1_2 1_555 1_555
N1_2 C2_2 1_555 1_555
C7_2 C8_2 1_555 1_555
O9_2 Ca3_3 1_555 1_555
N3_2 Co2_2 1_555 1_555
C13_2 C14_2 1_555 1_555
C15_2 C16_2 1_555 1_555
O12_2 Ca6_2 1_555 1_555
N4_2 Co4_2 1_555 1_555
C21_2 C22_2 1_555 1_555
C23_2 C24_2 1_555 1_555
N5_2 C26_2 1_555 1_555
C25_2 C26_2 1_555 1_555
C31_2 C32_2 1_555 1_555
O21_2 Ca5_4 1_555 1_555
N7_2 Co3_2 1_555 1_555
C37_2 C38_2 1_555 1_555
C39_2 C40_2 1_555 1_555
O22_2 Co4_2 1_555 1_555
O24_2 Ca4_2 1_555 1_555
N8_2 Co4_2 1_555 1_555
C45_2 C46_2 1_555 1_555
C47_2 C48_2 1_555 1_555
O27_3 H47_2 1_555 1_555
O25_2 Ca3_4 1_555 1_555
O26_4 Ca3_4 1_555 1_555
O27_4 Ca3_4 1_555 1_555
O36_2 Ca3_4 1_555 1_555
O39_2 Ca3_4 1_555 1_555
O26_4 H39_2 1_555 1_555
O26_4 H40_2 1_555 1_555
O27_4 H48_2 1_555 1_555
Ca1_3 O2_3 1_555 1_555
Co1_3 O1_3 1_555 1_555
O1_3 C1_3 1_555 1_555
O2_3 C1_3 1_555 1_555
O3_3 Ca1_3 1_555 1_555
N1_3 Co1_3 1_555 1_555
N2_3 C6_3 1_555 1_555
C1_3 C2_3 1_555 1_555
C2_3 O3_3 1_555 1_555
C3_3 N1_3 1_555 1_555
C4_3 C3_3 1_555 1_555
H1_3 C4_3 1_555 1_555
C5_3 C4_3 1_555 1_555
H2_3 C5_3 1_555 1_555
C6_3 C5_3 1_555 1_555
C7_3 C6_3 1_555 1_555
H3_3 C7_3 1_555 1_555
C8_3 C3_3 1_555 1_555
H4_3 C8_3 1_555 1_555
O4_3 Ca1_3 1_555 1_555
O5_3 Ca1_3 1_555 1_555
O6_3 Ca1_3 1_555 1_555
O7_3 C9_3 1_555 1_555
O8_3 C9_3 1_555 1_555
O9_3 C10_3 1_555 1_555
N3_3 C10_3 1_555 1_555
C9_3 C10_3 1_555 1_555
C11_3 N3_3 1_555 1_555
C12_3 C11_3 1_555 1_555
H5_3 C12_3 1_555 1_555
C13_3 C12_3 1_555 1_555
H6_3 C13_3 1_555 1_555
C14_3 N2_3 1_555 1_555
C15_3 C14_3 1_555 1_555
H7_3 C15_3 1_555 1_555
C16_3 C11_3 1_555 1_555
H8_3 C16_3 1_555 1_555
O10_3 C17_3 1_555 1_555
O11_3 C17_3 1_555 1_555
O12_3 C18_3 1_555 1_555
N4_3 C18_3 1_555 1_555
C17_3 C18_3 1_555 1_555
C19_3 N4_3 1_555 1_555
C20_3 C19_3 1_555 1_555
H9_3 C20_3 1_555 1_555
C21_3 C20_3 1_555 1_555
H10_3 C21_3 1_555 1_555
C22_3 N2_3 1_555 1_555
C23_3 C22_3 1_555 1_555
H11_3 C23_3 1_555 1_555
C24_3 C19_3 1_555 1_555
H12_3 C24_3 1_555 1_555
Ca2_3 O14_3 1_555 1_555
Co2_3 O7_3 1_555 1_555
O13_3 Co2_3 1_555 1_555
O14_3 C25_3 1_555 1_555
O15_3 Ca2_3 1_555 1_555
N5_3 Co2_3 1_555 1_555
N6_3 C30_3 1_555 1_555
C25_3 O13_3 1_555 1_555
C26_3 O15_3 1_555 1_555
C27_3 N5_3 1_555 1_555
C28_3 C27_3 1_555 1_555
H13_3 C28_3 1_555 1_555
C29_3 C28_3 1_555 1_555
H14_3 C29_3 1_555 1_555
C30_3 C29_3 1_555 1_555
C31_3 C30_3 1_555 1_555
H15_3 C31_3 1_555 1_555
C32_3 C27_3 1_555 1_555
H16_3 C32_3 1_555 1_555
O16_3 Ca2_3 1_555 1_555
O17_3 Ca2_3 1_555 1_555
O18_3 Ca2_3 1_555 1_555
O19_3 C33_3 1_555 1_555
O20_3 C33_3 1_555 1_555
O21_3 C34_3 1_555 1_555
N7_3 C34_3 1_555 1_555
C33_3 C34_3 1_555 1_555
C35_3 N7_3 1_555 1_555
C36_3 C35_3 1_555 1_555
H17_3 C36_3 1_555 1_555
C37_3 C36_3 1_555 1_555
H18_3 C37_3 1_555 1_555
C38_3 N6_3 1_555 1_555
C39_3 C38_3 1_555 1_555
H19_3 C39_3 1_555 1_555
C40_3 C35_3 1_555 1_555
H20_3 C40_3 1_555 1_555
O22_3 C41_3 1_555 1_555
O23_3 C41_3 1_555 1_555
O24_3 C42_3 1_555 1_555
N8_3 C42_3 1_555 1_555
C41_3 C42_3 1_555 1_555
C43_3 N8_3 1_555 1_555
C44_3 C43_3 1_555 1_555
H21_3 C44_3 1_555 1_555
C45_3 C44_3 1_555 1_555
H22_3 C45_3 1_555 1_555
C46_3 N6_3 1_555 1_555
C47_3 C46_3 1_555 1_555
H23_3 C47_3 1_555 1_555
C48_3 C43_3 1_555 1_555
H24_3 C48_3 1_555 1_555
Ca3_5 O8_3 1_555 1_555
O26_5 Ca3_5 1_555 1_555
O27_5 Ca3_5 1_555 1_555
O28_3 Ca1_3 1_555 1_555
O29_3 Ca2_3 1_555 1_555
O30_3 Ca3_5 1_555 1_555
Ca4_3 O23_3 1_555 1_555
Ca5_5 O20_3 1_555 1_555
Ca6_3 O11_3 1_555 1_555
Co3_3 O19_3 1_555 1_555
Co4_3 O10_3 1_555 1_555
O31_3 Co2_3 1_555 1_555
O32_3 Co1_3 1_555 1_555
O33_3 Co1_3 1_555 1_555
O34_3 Ca1_3 1_555 1_555
O35_3 Ca2_3 1_555 1_555
O37_3 Ca1_3 1_555 1_555
O38_3 Ca2_3 1_555 1_555
N9_3 Co2_3 1_555 1_555
N10_3 Co1_3 1_555 1_555
N11_3 Co1_3 1_555 1_555
N1_3 C2_3 1_555 1_555
C7_3 C8_3 1_555 1_555
O9_3 Ca3_5 1_555 1_555
N3_3 Co2_3 1_555 1_555
C13_3 C14_3 1_555 1_555
C15_3 C16_3 1_555 1_555
O12_3 Ca6_3 1_555 1_555
N4_3 Co4_3 1_555 1_555
C21_3 C22_3 1_555 1_555
C23_3 C24_3 1_555 1_555
N5_3 C26_3 1_555 1_555
C25_3 C26_3 1_555 1_555
C31_3 C32_3 1_555 1_555
O21_3 Ca5_5 1_555 1_555
N7_3 Co3_3 1_555 1_555
C37_3 C38_3 1_555 1_555
C39_3 C40_3 1_555 1_555
O22_3 Co4_3 1_555 1_555
O24_3 Ca4_3 1_555 1_555
N8_3 Co4_3 1_555 1_555
C45_3 C46_3 1_555 1_555
C47_3 C48_3 1_555 1_555
O27_5 H47_3 1_555 1_555
O25_3 Ca3_6 1_555 1_555
O26_6 Ca3_6 1_555 1_555
O27_6 Ca3_6 1_555 1_555
O36_3 Ca3_6 1_555 1_555
O39_3 Ca3_6 1_555 1_555
O26_6 H39_3 1_555 1_555
O26_6 H40_3 1_555 1_555
O27_6 H48_3 1_555 1_555
O25_4 Ca3_7 1_555 1_555
O26_7 Ca3_7 1_555 1_555
O27_7 Ca3_7 1_555 1_555
O36_4 Ca3_7 1_555 1_555
O39_4 Ca3_7 1_555 1_555
O26_7 H39_4 1_555 1_555
O26_7 H40_4 1_555 1_555
O27_7 H48_4 1_555 1_555
Ca1_4 O2_4 1_555 1_555
Co1_4 O1_4 1_555 1_555
O1_4 C1_4 1_555 1_555
O2_4 C1_4 1_555 1_555
O3_4 Ca1_4 1_555 1_555
N1_4 Co1_4 1_555 1_555
N2_4 C6_4 1_555 1_555
C1_4 C2_4 1_555 1_555
C2_4 O3_4 1_555 1_555
C3_4 N1_4 1_555 1_555
C4_4 C3_4 1_555 1_555
H1_4 C4_4 1_555 1_555
C5_4 C4_4 1_555 1_555
H2_4 C5_4 1_555 1_555
C6_4 C5_4 1_555 1_555
C7_4 C6_4 1_555 1_555
H3_4 C7_4 1_555 1_555
C8_4 C3_4 1_555 1_555
H4_4 C8_4 1_555 1_555
O4_4 Ca1_4 1_555 1_555
O5_4 Ca1_4 1_555 1_555
O6_4 Ca1_4 1_555 1_555
O7_4 C9_4 1_555 1_555
O8_4 C9_4 1_555 1_555
O9_4 C10_4 1_555 1_555
N3_4 C10_4 1_555 1_555
C9_4 C10_4 1_555 1_555
C11_4 N3_4 1_555 1_555
C12_4 C11_4 1_555 1_555
H5_4 C12_4 1_555 1_555
C13_4 C12_4 1_555 1_555
H6_4 C13_4 1_555 1_555
C14_4 N2_4 1_555 1_555
C15_4 C14_4 1_555 1_555
H7_4 C15_4 1_555 1_555
C16_4 C11_4 1_555 1_555
H8_4 C16_4 1_555 1_555
O10_4 C17_4 1_555 1_555
O11_4 C17_4 1_555 1_555
O12_4 C18_4 1_555 1_555
N4_4 C18_4 1_555 1_555
C17_4 C18_4 1_555 1_555
C19_4 N4_4 1_555 1_555
C20_4 C19_4 1_555 1_555
H9_4 C20_4 1_555 1_555
C21_4 C20_4 1_555 1_555
H10_4 C21_4 1_555 1_555
C22_4 N2_4 1_555 1_555
C23_4 C22_4 1_555 1_555
H11_4 C23_4 1_555 1_555
C24_4 C19_4 1_555 1_555
H12_4 C24_4 1_555 1_555
Ca2_4 O14_4 1_555 1_555
Co2_4 O7_4 1_555 1_555
O13_4 Co2_4 1_555 1_555
O14_4 C25_4 1_555 1_555
O15_4 Ca2_4 1_555 1_555
N5_4 Co2_4 1_555 1_555
N6_4 C30_4 1_555 1_555
C25_4 O13_4 1_555 1_555
C26_4 O15_4 1_555 1_555
C27_4 N5_4 1_555 1_555
C28_4 C27_4 1_555 1_555
H13_4 C28_4 1_555 1_555
C29_4 C28_4 1_555 1_555
H14_4 C29_4 1_555 1_555
C30_4 C29_4 1_555 1_555
C31_4 C30_4 1_555 1_555
H15_4 C31_4 1_555 1_555
C32_4 C27_4 1_555 1_555
H16_4 C32_4 1_555 1_555
O16_4 Ca2_4 1_555 1_555
O17_4 Ca2_4 1_555 1_555
O18_4 Ca2_4 1_555 1_555
O19_4 C33_4 1_555 1_555
O20_4 C33_4 1_555 1_555
O21_4 C34_4 1_555 1_555
N7_4 C34_4 1_555 1_555
C33_4 C34_4 1_555 1_555
C35_4 N7_4 1_555 1_555
C36_4 C35_4 1_555 1_555
H17_4 C36_4 1_555 1_555
C37_4 C36_4 1_555 1_555
H18_4 C37_4 1_555 1_555
C38_4 N6_4 1_555 1_555
C39_4 C38_4 1_555 1_555
H19_4 C39_4 1_555 1_555
C40_4 C35_4 1_555 1_555
H20_4 C40_4 1_555 1_555
O22_4 C41_4 1_555 1_555
O23_4 C41_4 1_555 1_555
O24_4 C42_4 1_555 1_555
N8_4 C42_4 1_555 1_555
C41_4 C42_4 1_555 1_555
C43_4 N8_4 1_555 1_555
C44_4 C43_4 1_555 1_555
H21_4 C44_4 1_555 1_555
C45_4 C44_4 1_555 1_555
H22_4 C45_4 1_555 1_555
C46_4 N6_4 1_555 1_555
C47_4 C46_4 1_555 1_555
H23_4 C47_4 1_555 1_555
C48_4 C43_4 1_555 1_555
H24_4 C48_4 1_555 1_555
Ca3_8 O8_4 1_555 1_555
O26_8 Ca3_8 1_555 1_555
O27_8 Ca3_8 1_555 1_555
O28_4 Ca1_4 1_555 1_555
O29_4 Ca2_4 1_555 1_555
O30_4 Ca3_8 1_555 1_555
Ca4_4 O23_4 1_555 1_555
Ca5_8 O20_4 1_555 1_555
Ca6_4 O11_4 1_555 1_555
Co3_4 O19_4 1_555 1_555
Co4_4 O10_4 1_555 1_555
O31_4 Co2_4 1_555 1_555
O32_4 Co1_4 1_555 1_555
O33_4 Co1_4 1_555 1_555
O34_4 Ca1_4 1_555 1_555
O35_4 Ca2_4 1_555 1_555
O37_4 Ca1_4 1_555 1_555
O38_4 Ca2_4 1_555 1_555
N9_4 Co2_4 1_555 1_555
N10_4 Co1_4 1_555 1_555
N11_4 Co1_4 1_555 1_555
N1_4 C2_4 1_555 1_555
C7_4 C8_4 1_555 1_555
O9_4 Ca3_8 1_555 1_555
N3_4 Co2_4 1_555 1_555
C13_4 C14_4 1_555 1_555
C15_4 C16_4 1_555 1_555
O12_4 Ca6_4 1_555 1_555
N4_4 Co4_4 1_555 1_555
C21_4 C22_4 1_555 1_555
C23_4 C24_4 1_555 1_555
N5_4 C26_4 1_555 1_555
C25_4 C26_4 1_555 1_555
C31_4 C32_4 1_555 1_555
O21_4 Ca5_8 1_555 1_555
N7_4 Co3_4 1_555 1_555
C37_4 C38_4 1_555 1_555
C39_4 C40_4 1_555 1_555
O22_4 Co4_4 1_555 1_555
O24_4 Ca4_4 1_555 1_555
N8_4 Co4_4 1_555 1_555
C45_4 C46_4 1_555 1_555
C47_4 C48_4 1_555 1_555
O27_8 H47_4 1_555 1_555
O25_5 Ca5_3 1_555 1_555
O26_9 Ca5_3 1_555 1_555
O27_9 Ca5_3 1_555 1_555
O36_5 Ca5_3 1_555 1_555
O39_5 Ca5_3 1_555 1_555
O26_9 H39_5 1_555 1_555
O26_9 H40_5 1_555 1_555
O27_9 H48_5 1_555 1_555
Ca2_5 O14_5 1_555 1_555
O13_5 Co3_2 1_555 1_555
O14_5 C25_5 1_555 1_555
O15_5 Ca2_5 1_555 1_555
N5_5 Co3_2 1_555 1_555
N6_5 C30_5 1_555 1_555
C25_5 O13_5 1_555 1_555
C26_5 O15_5 1_555 1_555
C27_5 N5_5 1_555 1_555
C28_5 C27_5 1_555 1_555
H13_5 C28_5 1_555 1_555
C29_5 C28_5 1_555 1_555
H14_5 C29_5 1_555 1_555
C30_5 C29_5 1_555 1_555
C31_5 C30_5 1_555 1_555
H15_5 C31_5 1_555 1_555
C32_5 C27_5 1_555 1_555
H16_5 C32_5 1_555 1_555
O16_5 Ca2_5 1_555 1_555
O17_5 Ca2_5 1_555 1_555
O18_5 Ca2_5 1_555 1_555
O32_2 C33_5 1_555 1_555
O20_5 C33_5 1_555 1_555
O21_5 C34_5 1_555 1_555
N10_2 C34_5 1_555 1_555
C33_5 C34_5 1_555 1_555
C35_5 N10_2 1_555 1_555
C36_5 C35_5 1_555 1_555
H17_5 C36_5 1_555 1_555
C37_5 C36_5 1_555 1_555
H18_5 C37_5 1_555 1_555
C38_5 N6_5 1_555 1_555
C39_5 C38_5 1_555 1_555
H19_5 C39_5 1_555 1_555
C40_5 C35_5 1_555 1_555
H20_5 C40_5 1_555 1_555
O22_5 C41_5 1_555 1_555
O23_5 C41_5 1_555 1_555
O24_5 C42_5 1_555 1_555
N8_5 C42_5 1_555 1_555
C41_5 C42_5 1_555 1_555
C43_5 N8_5 1_555 1_555
C44_5 C43_5 1_555 1_555
H21_5 C44_5 1_555 1_555
C45_5 C44_5 1_555 1_555
H22_5 C45_5 1_555 1_555
C46_5 N6_5 1_555 1_555
C47_5 C46_5 1_555 1_555
H23_5 C47_5 1_555 1_555
C48_5 C43_5 1_555 1_555
H24_5 C48_5 1_555 1_555
O26_10 Ca5_4 1_555 1_555
O27_10 Ca5_4 1_555 1_555
O29_5 Ca2_5 1_555 1_555
O30_5 Ca5_4 1_555 1_555
Ca4_5 O23_5 1_555 1_555
Ca5_9 O20_5 1_555 1_555
O31_5 Co3_2 1_555 1_555
O35_5 Ca2_5 1_555 1_555
O38_5 Ca2_5 1_555 1_555
N9_5 Co3_2 1_555 1_555
N5_5 C26_5 1_555 1_555
C25_5 C26_5 1_555 1_555
C31_5 C32_5 1_555 1_555
O21_5 Ca5_9 1_555 1_555
C37_5 C38_5 1_555 1_555
C39_5 C40_5 1_555 1_555
O22_5 Co4_2 1_555 1_555
O24_5 Ca4_5 1_555 1_555
N8_5 Co4_2 1_555 1_555
C45_5 C46_5 1_555 1_555
C47_5 C48_5 1_555 1_555
O27_10 H47_5 1_555 1_555
Ca2_6 O14_6 1_555 1_555
O13_6 Co3_3 1_555 1_555
O14_6 C25_6 1_555 1_555
O15_6 Ca2_6 1_555 1_555
N5_6 Co3_3 1_555 1_555
N6_6 C30_6 1_555 1_555
C25_6 O13_6 1_555 1_555
C26_6 O15_6 1_555 1_555
C27_6 N5_6 1_555 1_555
C28_6 C27_6 1_555 1_555
H13_6 C28_6 1_555 1_555
C29_6 C28_6 1_555 1_555
H14_6 C29_6 1_555 1_555
C30_6 C29_6 1_555 1_555
C31_6 C30_6 1_555 1_555
H15_6 C31_6 1_555 1_555
C32_6 C27_6 1_555 1_555
H16_6 C32_6 1_555 1_555
O16_6 Ca2_6 1_555 1_555
O17_6 Ca2_6 1_555 1_555
O18_6 Ca2_6 1_555 1_555
O32_3 C33_6 1_555 1_555
O20_6 C33_6 1_555 1_555
O21_6 C34_6 1_555 1_555
N10_3 C34_6 1_555 1_555
C33_6 C34_6 1_555 1_555
C35_6 N10_3 1_555 1_555
C36_6 C35_6 1_555 1_555
H17_6 C36_6 1_555 1_555
C37_6 C36_6 1_555 1_555
H18_6 C37_6 1_555 1_555
C38_6 N6_6 1_555 1_555
C39_6 C38_6 1_555 1_555
H19_6 C39_6 1_555 1_555
C40_6 C35_6 1_555 1_555
H20_6 C40_6 1_555 1_555
O22_6 C41_6 1_555 1_555
O23_6 C41_6 1_555 1_555
O24_6 C42_6 1_555 1_555
N8_6 C42_6 1_555 1_555
C41_6 C42_6 1_555 1_555
C43_6 N8_6 1_555 1_555
C44_6 C43_6 1_555 1_555
H21_6 C44_6 1_555 1_555
C45_6 C44_6 1_555 1_555
H22_6 C45_6 1_555 1_555
C46_6 N6_6 1_555 1_555
C47_6 C46_6 1_555 1_555
H23_6 C47_6 1_555 1_555
C48_6 C43_6 1_555 1_555
H24_6 C48_6 1_555 1_555
O26_11 Ca5_5 1_555 1_555
O27_11 Ca5_5 1_555 1_555
O29_6 Ca2_6 1_555 1_555
O30_6 Ca5_5 1_555 1_555
Ca4_6 O23_6 1_555 1_555
Ca5_12 O20_6 1_555 1_555
O31_6 Co3_3 1_555 1_555
O35_6 Ca2_6 1_555 1_555
O38_6 Ca2_6 1_555 1_555
N9_6 Co3_3 1_555 1_555
N5_6 C26_6 1_555 1_555
C25_6 C26_6 1_555 1_555
C31_6 C32_6 1_555 1_555
O21_6 Ca5_12 1_555 1_555
C37_6 C38_6 1_555 1_555
C39_6 C40_6 1_555 1_555
O22_6 Co4_3 1_555 1_555
O24_6 Ca4_6 1_555 1_555
N8_6 Co4_3 1_555 1_555
C45_6 C46_6 1_555 1_555
C47_6 C48_6 1_555 1_555
O27_11 H47_6 1_555 1_555
O25_6 Ca5_6 1_555 1_555
O26_12 Ca5_6 1_555 1_555
O27_12 Ca5_6 1_555 1_555
O36_6 Ca5_6 1_555 1_555
O39_6 Ca5_6 1_555 1_555
O26_12 H39_6 1_555 1_555
O26_12 H40_6 1_555 1_555
O27_12 H48_6 1_555 1_555
Ca2_7 O14_7 1_555 1_555
O13_7 Co3 1_555 1_555
O14_7 C25_7 1_555 1_555
O15_7 Ca2_7 1_555 1_555
N5_7 Co3 1_555 1_555
N6_7 C30_7 1_555 1_555
C25_7 O13_7 1_555 1_555
C26_7 O15_7 1_555 1_555
C27_7 N5_7 1_555 1_555
C28_7 C27_7 1_555 1_555
H13_7 C28_7 1_555 1_555
C29_7 C28_7 1_555 1_555
H14_7 C29_7 1_555 1_555
C30_7 C29_7 1_555 1_555
C31_7 C30_7 1_555 1_555
H15_7 C31_7 1_555 1_555
C32_7 C27_7 1_555 1_555
H16_7 C32_7 1_555 1_555
O16_7 Ca2_7 1_555 1_555
O17_7 Ca2_7 1_555 1_555
O18_7 Ca2_7 1_555 1_555
O32 C33_7 1_555 1_555
O20_7 C33_7 1_555 1_555
O21_7 C34_7 1_555 1_555
N10 C34_7 1_555 1_555
C33_7 C34_7 1_555 1_555
C35_7 N10 1_555 1_555
C36_7 C35_7 1_555 1_555
H17_7 C36_7 1_555 1_555
C37_7 C36_7 1_555 1_555
H18_7 C37_7 1_555 1_555
C38_7 N6_7 1_555 1_555
C39_7 C38_7 1_555 1_555
H19_7 C39_7 1_555 1_555
C40_7 C35_7 1_555 1_555
H20_7 C40_7 1_555 1_555
O22_7 C41_7 1_555 1_555
O23_7 C41_7 1_555 1_555
O24_7 C42_7 1_555 1_555
N8_7 C42_7 1_555 1_555
C41_7 C42_7 1_555 1_555
C43_7 N8_7 1_555 1_555
C44_7 C43_7 1_555 1_555
H21_7 C44_7 1_555 1_555
C45_7 C44_7 1_555 1_555
H22_7 C45_7 1_555 1_555
C46_7 N6_7 1_555 1_555
C47_7 C46_7 1_555 1_555
H23_7 C47_7 1_555 1_555
C48_7 C43_7 1_555 1_555
H24_7 C48_7 1_555 1_555
O26_13 Ca5 1_555 1_555
O27_13 Ca5 1_555 1_555
O29_7 Ca2_7 1_555 1_555
O30_7 Ca5 1_555 1_555
Ca4_7 O23_7 1_555 1_555
Ca5_13 O20_7 1_555 1_555
O31_7 Co3 1_555 1_555
O35_7 Ca2_7 1_555 1_555
O38_7 Ca2_7 1_555 1_555
N9_7 Co3 1_555 1_555
N5_7 C26_7 1_555 1_555
C25_7 C26_7 1_555 1_555
C31_7 C32_7 1_555 1_555
O21_7 Ca5_13 1_555 1_555
C37_7 C38_7 1_555 1_555
C39_7 C40_7 1_555 1_555
O22_7 Co4 1_555 1_555
O24_7 Ca4_7 1_555 1_555
N8_7 Co4 1_555 1_555
C45_7 C46_7 1_555 1_555
C47_7 C48_7 1_555 1_555
O27_13 H47_7 1_555 1_555
O25_7 Ca5_2 1_555 1_555
O26_14 Ca5_2 1_555 1_555
O27_14 Ca5_2 1_555 1_555
O36_7 Ca5_2 1_555 1_555
O39_7 Ca5_2 1_555 1_555
O26_14 H39_7 1_555 1_555
O26_14 H40_7 1_555 1_555
O27_14 H48_7 1_555 1_555
O25_8 Ca5_7 1_555 1_555
O26_15 Ca5_7 1_555 1_555
O27_15 Ca5_7 1_555 1_555
O36_8 Ca5_7 1_555 1_555
O39_8 Ca5_7 1_555 1_555
O26_15 H39_8 1_555 1_555
O26_15 H40_8 1_555 1_555
O27_15 H48_8 1_555 1_555
Ca2_8 O14_8 1_555 1_555
O13_8 Co3_4 1_555 1_555
O14_8 C25_8 1_555 1_555
O15_8 Ca2_8 1_555 1_555
N5_8 Co3_4 1_555 1_555
N6_8 C30_8 1_555 1_555
C25_8 O13_8 1_555 1_555
C26_8 O15_8 1_555 1_555
C27_8 N5_8 1_555 1_555
C28_8 C27_8 1_555 1_555
H13_8 C28_8 1_555 1_555
C29_8 C28_8 1_555 1_555
H14_8 C29_8 1_555 1_555
C30_8 C29_8 1_555 1_555
C31_8 C30_8 1_555 1_555
H15_8 C31_8 1_555 1_555
C32_8 C27_8 1_555 1_555
H16_8 C32_8 1_555 1_555
O16_8 Ca2_8 1_555 1_555
O17_8 Ca2_8 1_555 1_555
O18_8 Ca2_8 1_555 1_555
O32_4 C33_8 1_555 1_555
O20_8 C33_8 1_555 1_555
O21_8 C34_8 1_555 1_555
N10_4 C34_8 1_555 1_555
C33_8 C34_8 1_555 1_555
C35_8 N10_4 1_555 1_555
C36_8 C35_8 1_555 1_555
H17_8 C36_8 1_555 1_555
C37_8 C36_8 1_555 1_555
H18_8 C37_8 1_555 1_555
C38_8 N6_8 1_555 1_555
C39_8 C38_8 1_555 1_555
H19_8 C39_8 1_555 1_555
C40_8 C35_8 1_555 1_555
H20_8 C40_8 1_555 1_555
O22_8 C41_8 1_555 1_555
O23_8 C41_8 1_555 1_555
O24_8 C42_8 1_555 1_555
N8_8 C42_8 1_555 1_555
C41_8 C42_8 1_555 1_555
C43_8 N8_8 1_555 1_555
C44_8 C43_8 1_555 1_555
H21_8 C44_8 1_555 1_555
C45_8 C44_8 1_555 1_555
H22_8 C45_8 1_555 1_555
C46_8 N6_8 1_555 1_555
C47_8 C46_8 1_555 1_555
H23_8 C47_8 1_555 1_555
C48_8 C43_8 1_555 1_555
H24_8 C48_8 1_555 1_555
O26_16 Ca5_8 1_555 1_555
O27_16 Ca5_8 1_555 1_555
O29_8 Ca2_8 1_555 1_555
O30_8 Ca5_8 1_555 1_555
Ca4_8 O23_8 1_555 1_555
Ca5_16 O20_8 1_555 1_555
O31_8 Co3_4 1_555 1_555
O35_8 Ca2_8 1_555 1_555
O38_8 Ca2_8 1_555 1_555
N9_8 Co3_4 1_555 1_555
N5_8 C26_8 1_555 1_555
C25_8 C26_8 1_555 1_555
C31_8 C32_8 1_555 1_555
O21_8 Ca5_16 1_555 1_555
C37_8 C38_8 1_555 1_555
C39_8 C40_8 1_555 1_555
O22_8 Co4_4 1_555 1_555
O24_8 Ca4_8 1_555 1_555
N8_8 Co4_4 1_555 1_555
C45_8 C46_8 1_555 1_555
C47_8 C48_8 1_555 1_555
O27_16 H47_8 1_555 1_555
O25_9 Ca5_11 1_555 1_555
O26_17 Ca5_11 1_555 1_555
O27_17 Ca5_11 1_555 1_555
O36_9 Ca5_11 1_555 1_555
O39_9 Ca5_11 1_555 1_555
O26_17 H39_9 1_555 1_555
O26_17 H40_9 1_555 1_555
O27_17 H48_9 1_555 1_555
O26_18 Ca5_12 1_555 1_555
O27_18 Ca5_12 1_555 1_555
O30_9 Ca5_12 1_555 1_555
O27_18 H47_9 1_555 1_555
O26_19 Ca5_13 1_555 1_555
O27_19 Ca5_13 1_555 1_555
O30_10 Ca5_13 1_555 1_555
O27_19 H47_10 1_555 1_555
O25_10 Ca5_14 1_555 1_555
O26_20 Ca5_14 1_555 1_555
O27_20 Ca5_14 1_555 1_555
O36_10 Ca5_14 1_555 1_555
O39_10 Ca5_14 1_555 1_555
O26_20 H39_10 1_555 1_555
O26_20 H40_10 1_555 1_555
O27_20 H48_10 1_555 1_555
O26_21 Ca5_9 1_555 1_555
O27_21 Ca5_9 1_555 1_555
O30_11 Ca5_9 1_555 1_555
O27_21 H47_11 1_555 1_555
O25_11 Ca5_10 1_555 1_555
O26_22 Ca5_10 1_555 1_555
O27_22 Ca5_10 1_555 1_555
O36_11 Ca5_10 1_555 1_555
O39_11 Ca5_10 1_555 1_555
O26_22 H39_11 1_555 1_555
O26_22 H40_11 1_555 1_555
O27_22 H48_11 1_555 1_555
O25_12 Ca5_15 1_555 1_555
O26_23 Ca5_15 1_555 1_555
O27_23 Ca5_15 1_555 1_555
O36_12 Ca5_15 1_555 1_555
O39_12 Ca5_15 1_555 1_555
O26_23 H39_12 1_555 1_555
O26_23 H40_12 1_555 1_555
O27_23 H48_12 1_555 1_555
O26_24 Ca5_16 1_555 1_555
O27_24 Ca5_16 1_555 1_555
O30_12 Ca5_16 1_555 1_555
O27_24 H47_12 1_555 1_555
O25_13 Ca3_9 1_555 1_555
O26_25 Ca3_9 1_555 1_555
O27_25 Ca3_9 1_555 1_555
O36_13 Ca3_9 1_555 1_555
O39_13 Ca3_9 1_555 1_555
O26_25 H39_13 1_555 1_555
O26_25 H40_13 1_555 1_555
O27_25 H48_13 1_555 1_555
O4_5 Ca1_5 1_555 1_555
O5_5 Ca1_5 1_555 1_555
O6_5 Ca1_5 1_555 1_555
O34_5 Ca1_5 1_555 1_555
O37_5 Ca1_5 1_555 1_555
O5_5 H25 1_555 1_555
O5_5 H26 1_555 1_555
O6_5 H28 1_555 1_555
Ca1_6 O2_5 1_555 1_555
O31_4 C1_5 1_555 1_555
O2_5 C1_5 1_555 1_555
O3_5 Ca1_6 1_555 1_555
N2_5 C6_5 1_555 1_555
C1_5 C2_5 1_555 1_555
C2_5 O3_5 1_555 1_555
C3_5 N9_4 1_555 1_555
C4_5 C3_5 1_555 1_555
H1_5 C4_5 1_555 1_555
C5_5 C4_5 1_555 1_555
H2_5 C5_5 1_555 1_555
C6_5 C5_5 1_555 1_555
C7_5 C6_5 1_555 1_555
H3_5 C7_5 1_555 1_555
C8_5 C3_5 1_555 1_555
H4_5 C8_5 1_555 1_555
O5_6 Ca1_6 1_555 1_555
O6_6 Ca1_6 1_555 1_555
O33_4 C9_5 1_555 1_555
O8_5 C9_5 1_555 1_555
O9_5 C10_5 1_555 1_555
N11_4 C10_5 1_555 1_555
C9_5 C10_5 1_555 1_555
C11_5 N11_4 1_555 1_555
C12_5 C11_5 1_555 1_555
H5_5 C12_5 1_555 1_555
C13_5 C12_5 1_555 1_555
H6_5 C13_5 1_555 1_555
C14_5 N2_5 1_555 1_555
C15_5 C14_5 1_555 1_555
H7_5 C15_5 1_555 1_555
C16_5 C11_5 1_555 1_555
H8_5 C16_5 1_555 1_555
O31_8 C17_5 1_555 1_555
O11_5 C17_5 1_555 1_555
O12_5 C18_5 1_555 1_555
N9_8 C18_5 1_555 1_555
C17_5 C18_5 1_555 1_555
C19_5 N9_8 1_555 1_555
C20_5 C19_5 1_555 1_555
H9_5 C20_5 1_555 1_555
C21_5 C20_5 1_555 1_555
H10_5 C21_5 1_555 1_555
C22_5 N2_5 1_555 1_555
C23_5 C22_5 1_555 1_555
H11_5 C23_5 1_555 1_555
C24_5 C19_5 1_555 1_555
H12_5 C24_5 1_555 1_555
Ca3_10 O8_5 1_555 1_555
O26_26 Ca3_10 1_555 1_555
O27_26 Ca3_10 1_555 1_555
O28_5 Ca1_6 1_555 1_555
O30_13 Ca3_10 1_555 1_555
Ca6_6 O11_5 1_555 1_555
N9_4 C2_5 1_555 1_555
C7_5 C8_5 1_555 1_555
O9_5 Ca3_10 1_555 1_555
C13_5 C14_5 1_555 1_555
C15_5 C16_5 1_555 1_555
O12_5 Ca6_6 1_555 1_555
C21_5 C22_5 1_555 1_555
C23_5 C24_5 1_555 1_555
O6_6 H27 1_555 1_555
O27_26 H47_13 1_555 1_555
Ca1_7 O2_6 1_555 1_555
O31_3 C1_6 1_555 1_555
O2_6 C1_6 1_555 1_555
O3_6 Ca1_7 1_555 1_555
N2_6 C6_6 1_555 1_555
C1_6 C2_6 1_555 1_555
C2_6 O3_6 1_555 1_555
C3_6 N9_3 1_555 1_555
C4_6 C3_6 1_555 1_555
H1_6 C4_6 1_555 1_555
C5_6 C4_6 1_555 1_555
H2_6 C5_6 1_555 1_555
C6_6 C5_6 1_555 1_555
C7_6 C6_6 1_555 1_555
H3_6 C7_6 1_555 1_555
C8_6 C3_6 1_555 1_555
H4_6 C8_6 1_555 1_555
O5_7 Ca1_7 1_555 1_555
O6_7 Ca1_7 1_555 1_555
O33_3 C9_6 1_555 1_555
O8_6 C9_6 1_555 1_555
O9_6 C10_6 1_555 1_555
N11_3 C10_6 1_555 1_555
C9_6 C10_6 1_555 1_555
C11_6 N11_3 1_555 1_555
C12_6 C11_6 1_555 1_555
H5_6 C12_6 1_555 1_555
C13_6 C12_6 1_555 1_555
H6_6 C13_6 1_555 1_555
C14_6 N2_6 1_555 1_555
C15_6 C14_6 1_555 1_555
H7_6 C15_6 1_555 1_555
C16_6 C11_6 1_555 1_555
H8_6 C16_6 1_555 1_555
O31_6 C17_6 1_555 1_555
O11_6 C17_6 1_555 1_555
O12_6 C18_6 1_555 1_555
N9_6 C18_6 1_555 1_555
C17_6 C18_6 1_555 1_555
C19_6 N9_6 1_555 1_555
C20_6 C19_6 1_555 1_555
H9_6 C20_6 1_555 1_555
C21_6 C20_6 1_555 1_555
H10_6 C21_6 1_555 1_555
C22_6 N2_6 1_555 1_555
C23_6 C22_6 1_555 1_555
H11_6 C23_6 1_555 1_555
C24_6 C19_6 1_555 1_555
H12_6 C24_6 1_555 1_555
Ca3_11 O8_6 1_555 1_555
O26_27 Ca3_11 1_555 1_555
O27_27 Ca3_11 1_555 1_555
O28_6 Ca1_7 1_555 1_555
O30_14 Ca3_11 1_555 1_555
Ca6_8 O11_6 1_555 1_555
N9_3 C2_6 1_555 1_555
C7_6 C8_6 1_555 1_555
O9_6 Ca3_11 1_555 1_555
C13_6 C14_6 1_555 1_555
C15_6 C16_6 1_555 1_555
O12_6 Ca6_8 1_555 1_555
C21_6 C22_6 1_555 1_555
C23_6 C24_6 1_555 1_555
O6_7 H27_2 1_555 1_555
O27_27 H47_14 1_555 1_555
O4_6 Ca1_8 1_555 1_555
O5_8 Ca1_8 1_555 1_555
O6_8 Ca1_8 1_555 1_555
O34_6 Ca1_8 1_555 1_555
O37_6 Ca1_8 1_555 1_555
O5_8 H25_2 1_555 1_555
O5_8 H26_2 1_555 1_555
O6_8 H28_2 1_555 1_555
O25_14 Ca3_12 1_555 1_555
O26_28 Ca3_12 1_555 1_555
O27_28 Ca3_12 1_555 1_555
O36_14 Ca3_12 1_555 1_555
O39_14 Ca3_12 1_555 1_555
O26_28 H39_14 1_555 1_555
O26_28 H40_14 1_555 1_555
O27_28 H48_14 1_555 1_555
O4_7 Ca1_9 1_555 1_555
O5_9 Ca1_9 1_555 1_555
O6_9 Ca1_9 1_555 1_555
O34_7 Ca1_9 1_555 1_555
O37_7 Ca1_9 1_555 1_555
O5_9 H25_3 1_555 1_555
O5_9 H26_3 1_555 1_555
O6_9 H28_3 1_555 1_555
Ca1_10 O2_7 1_555 1_555
O31_2 C1_7 1_555 1_555
O2_7 C1_7 1_555 1_555
O3_7 Ca1_10 1_555 1_555
N2_7 C6_7 1_555 1_555
C1_7 C2_7 1_555 1_555
C2_7 O3_7 1_555 1_555
C3_7 N9_2 1_555 1_555
C4_7 C3_7 1_555 1_555
H1_7 C4_7 1_555 1_555
C5_7 C4_7 1_555 1_555
H2_7 C5_7 1_555 1_555
C6_7 C5_7 1_555 1_555
C7_7 C6_7 1_555 1_555
H3_7 C7_7 1_555 1_555
C8_7 C3_7 1_555 1_555
H4_7 C8_7 1_555 1_555
O5_10 Ca1_10 1_555 1_555
O6_10 Ca1_10 1_555 1_555
O33_2 C9_7 1_555 1_555
O8_7 C9_7 1_555 1_555
O9_7 C10_7 1_555 1_555
N11_2 C10_7 1_555 1_555
C9_7 C10_7 1_555 1_555
C11_7 N11_2 1_555 1_555
C12_7 C11_7 1_555 1_555
H5_7 C12_7 1_555 1_555
C13_7 C12_7 1_555 1_555
H6_7 C13_7 1_555 1_555
C14_7 N2_7 1_555 1_555
C15_7 C14_7 1_555 1_555
H7_7 C15_7 1_555 1_555
C16_7 C11_7 1_555 1_555
H8_7 C16_7 1_555 1_555
O31_5 C17_7 1_555 1_555
O11_7 C17_7 1_555 1_555
O12_7 C18_7 1_555 1_555
N9_5 C18_7 1_555 1_555
C17_7 C18_7 1_555 1_555
C19_7 N9_5 1_555 1_555
C20_7 C19_7 1_555 1_555
H9_7 C20_7 1_555 1_555
C21_7 C20_7 1_555 1_555
H10_7 C21_7 1_555 1_555
C22_7 N2_7 1_555 1_555
C23_7 C22_7 1_555 1_555
H11_7 C23_7 1_555 1_555
C24_7 C19_7 1_555 1_555
H12_7 C24_7 1_555 1_555
Ca3_13 O8_7 1_555 1_555
O26_29 Ca3_13 1_555 1_555
O27_29 Ca3_13 1_555 1_555
O28_7 Ca1_10 1_555 1_555
O30_15 Ca3_13 1_555 1_555
Ca6_9 O11_7 1_555 1_555
N9_2 C2_7 1_555 1_555
C7_7 C8_7 1_555 1_555
O9_7 Ca3_13 1_555 1_555
C13_7 C14_7 1_555 1_555
C15_7 C16_7 1_555 1_555
O12_7 Ca6_9 1_555 1_555
C21_7 C22_7 1_555 1_555
C23_7 C24_7 1_555 1_555
O6_10 H27_3 1_555 1_555
O27_29 H47_15 1_555 1_555
O25_15 Ca3_14 1_555 1_555
O26_30 Ca3_14 1_555 1_555
O27_30 Ca3_14 1_555 1_555
O36_15 Ca3_14 1_555 1_555
O39_15 Ca3_14 1_555 1_555
O26_30 H39_15 1_555 1_555
O26_30 H40_15 1_555 1_555
O27_30 H48_15 1_555 1_555
O25_16 Ca3_15 1_555 1_555
O26_31 Ca3_15 1_555 1_555
O27_31 Ca3_15 1_555 1_555
O36_16 Ca3_15 1_555 1_555
O39_16 Ca3_15 1_555 1_555
O26_31 H39_16 1_555 1_555
O26_31 H40_16 1_555 1_555
O27_31 H48_16 1_555 1_555
Ca1_11 O2_8 1_555 1_555
O31 C1_8 1_555 1_555
O2_8 C1_8 1_555 1_555
O3_8 Ca1_11 1_555 1_555
N2_8 C6_8 1_555 1_555
C1_8 C2_8 1_555 1_555
C2_8 O3_8 1_555 1_555
C3_8 N9 1_555 1_555
C4_8 C3_8 1_555 1_555
H1_8 C4_8 1_555 1_555
C5_8 C4_8 1_555 1_555
H2_8 C5_8 1_555 1_555
C6_8 C5_8 1_555 1_555
C7_8 C6_8 1_555 1_555
H3_8 C7_8 1_555 1_555
C8_8 C3_8 1_555 1_555
H4_8 C8_8 1_555 1_555
O5_11 Ca1_11 1_555 1_555
O6_11 Ca1_11 1_555 1_555
O33 C9_8 1_555 1_555
O8_8 C9_8 1_555 1_555
O9_8 C10_8 1_555 1_555
N11 C10_8 1_555 1_555
C9_8 C10_8 1_555 1_555
C11_8 N11 1_555 1_555
C12_8 C11_8 1_555 1_555
H5_8 C12_8 1_555 1_555
C13_8 C12_8 1_555 1_555
H6_8 C13_8 1_555 1_555
C14_8 N2_8 1_555 1_555
C15_8 C14_8 1_555 1_555
H7_8 C15_8 1_555 1_555
C16_8 C11_8 1_555 1_555
H8_8 C16_8 1_555 1_555
O31_7 C17_8 1_555 1_555
O11_8 C17_8 1_555 1_555
O12_8 C18_8 1_555 1_555
N9_7 C18_8 1_555 1_555
C17_8 C18_8 1_555 1_555
C19_8 N9_7 1_555 1_555
C20_8 C19_8 1_555 1_555
H9_8 C20_8 1_555 1_555
C21_8 C20_8 1_555 1_555
H10_8 C21_8 1_555 1_555
C22_8 N2_8 1_555 1_555
C23_8 C22_8 1_555 1_555
H11_8 C23_8 1_555 1_555
C24_8 C19_8 1_555 1_555
H12_8 C24_8 1_555 1_555
Ca3_16 O8_8 1_555 1_555
O26_32 Ca3_16 1_555 1_555
O27_32 Ca3_16 1_555 1_555
O28_8 Ca1_11 1_555 1_555
O30_16 Ca3_16 1_555 1_555
Ca6_11 O11_8 1_555 1_555
N9 C2_8 1_555 1_555
C7_8 C8_8 1_555 1_555
O9_8 Ca3_16 1_555 1_555
C13_8 C14_8 1_555 1_555
C15_8 C16_8 1_555 1_555
O12_8 Ca6_11 1_555 1_555
C21_8 C22_8 1_555 1_555
C23_8 C24_8 1_555 1_555
O6_11 H27_4 1_555 1_555
O27_32 H47_16 1_555 1_555
O4_8 Ca1_12 1_555 1_555
O5_12 Ca1_12 1_555 1_555
O6_12 Ca1_12 1_555 1_555
O34_8 Ca1_12 1_555 1_555
O37_8 Ca1_12 1_555 1_555
O5_12 H25_4 1_555 1_555
O5_12 H26_4 1_555 1_555
O6_12 H28_4 1_555 1_555
O16_9 Ca4_3 1_555 1_555
O17_9 Ca4_3 1_555 1_555
O18_9 Ca4_3 1_555 1_555
O25_17 Ca4_6 1_555 1_555
O26_33 Ca4_6 1_555 1_555
O27_33 Ca4_6 1_555 1_555
O29_9 Ca4_3 1_555 1_555
O30_17 Ca4_6 1_555 1_555
O35_9 Ca4_3 1_555 1_555
O36_17 Ca4_6 1_555 1_555
O38_9 Ca4_3 1_555 1_555
O39_17 Ca4_6 1_555 1_555
O16_10 Ca4_2 1_555 1_555
O17_10 Ca4_2 1_555 1_555
O18_10 Ca4_2 1_555 1_555
O25_18 Ca4_5 1_555 1_555
O26_34 Ca4_5 1_555 1_555
O27_34 Ca4_5 1_555 1_555
O29_10 Ca4_2 1_555 1_555
O30_18 Ca4_5 1_555 1_555
O35_10 Ca4_2 1_555 1_555
O36_18 Ca4_5 1_555 1_555
O38_10 Ca4_2 1_555 1_555
O39_18 Ca4_5 1_555 1_555
O16_11 Ca4_4 1_555 1_555
O17_11 Ca4_4 1_555 1_555
O18_11 Ca4_4 1_555 1_555
O25_19 Ca4_8 1_555 1_555
O26_35 Ca4_8 1_555 1_555
O27_35 Ca4_8 1_555 1_555
O29_11 Ca4_4 1_555 1_555
O30_19 Ca4_8 1_555 1_555
O35_11 Ca4_4 1_555 1_555
O36_19 Ca4_8 1_555 1_555
O38_11 Ca4_4 1_555 1_555
O39_19 Ca4_8 1_555 1_555
O16_12 Ca4 1_555 1_555
O17_12 Ca4 1_555 1_555
O18_12 Ca4 1_555 1_555
O25_20 Ca4_7 1_555 1_555
O26_36 Ca4_7 1_555 1_555
O27_36 Ca4_7 1_555 1_555
O29_12 Ca4 1_555 1_555
O30_20 Ca4_7 1_555 1_555
O35_12 Ca4 1_555 1_555
O36_20 Ca4_7 1_555 1_555
O38_12 Ca4 1_555 1_555
O39_20 Ca4_7 1_555 1_555
O16_13 Ca6_7 1_555 1_555
O17_13 Ca6_7 1_555 1_555
O18_13 Ca6_7 1_555 1_555
O35_13 Ca6_7 1_555 1_555
O38_13 Ca6_7 1_555 1_555
O17_13 H33 1_555 1_555
O17_13 H34 1_555 1_555
O18_13 H36 1_555 1_555
O17_14 Ca6_8 1_555 1_555
O18_14 Ca6_8 1_555 1_555
O29_13 Ca6_8 1_555 1_555
O18_14 H35 1_555 1_555
O16_14 Ca6_5 1_555 1_555
O17_15 Ca6_5 1_555 1_555
O18_15 Ca6_5 1_555 1_555
O35_14 Ca6_5 1_555 1_555
O38_14 Ca6_5 1_555 1_555
O17_15 H33_2 1_555 1_555
O17_15 H34_2 1_555 1_555
O18_15 H36_2 1_555 1_555
O17_16 Ca6_6 1_555 1_555
O18_16 Ca6_6 1_555 1_555
O29_14 Ca6_6 1_555 1_555
O18_16 H35_2 1_555 1_555
O17_17 Ca6_11 1_555 1_555
O18_17 Ca6_11 1_555 1_555
O29_15 Ca6_11 1_555 1_555
O18_17 H35_3 1_555 1_555
O16_15 Ca6_12 1_555 1_555
O17_18 Ca6_12 1_555 1_555
O18_18 Ca6_12 1_555 1_555
O35_15 Ca6_12 1_555 1_555
O38_15 Ca6_12 1_555 1_555
O17_18 H33_3 1_555 1_555
O17_18 H34_3 1_555 1_555
O18_18 H36_3 1_555 1_555
O17_19 Ca6_9 1_555 1_555
O18_19 Ca6_9 1_555 1_555
O29_16 Ca6_9 1_555 1_555
O18_19 H35_4 1_555 1_555
O16_16 Ca6_10 1_555 1_555
O17_20 Ca6_10 1_555 1_555
O18_20 Ca6_10 1_555 1_555
O35_16 Ca6_10 1_555 1_555
O38_16 Ca6_10 1_555 1_555
O17_20 H33_4 1_555 1_555
O17_20 H34_4 1_555 1_555
O18_20 H36_4 1_555 1_555
O25_21 Ca6 1_555 1_555
O26_37 Ca6 1_555 1_555
O27_37 Ca6 1_555 1_555
O30_21 Ca6 1_555 1_555
O36_21 Ca6 1_555 1_555
O39_21 Ca6 1_555 1_555
O25_22 Ca6_3 1_555 1_555
O26_38 Ca6_3 1_555 1_555
O27_38 Ca6_3 1_555 1_555
O30_22 Ca6_3 1_555 1_555
O36_22 Ca6_3 1_555 1_555
O39_22 Ca6_3 1_555 1_555
O25_23 Ca6_4 1_555 1_555
O26_39 Ca6_4 1_555 1_555
O27_39 Ca6_4 1_555 1_555
O30_23 Ca6_4 1_555 1_555
O36_23 Ca6_4 1_555 1_555
O39_23 Ca6_4 1_555 1_555
O25_24 Ca6_2 1_555 1_555
O26_40 Ca6_2 1_555 1_555
O27_40 Ca6_2 1_555 1_555
O30_24 Ca6_2 1_555 1_555
O36_24 Ca6_2 1_555 1_555
O39_24 Ca6_2 1_555 1_555
Co1_5 O1_5 1_555 1_555
O1_5 C1_9 1_555 1_555
O34_3 C1_9 1_555 1_555
N1_5 Co1_5 1_555 1_555
N2_9 C6_9 1_555 1_555
C1_9 C2_9 1_555 1_555
C2_9 O37_3 1_555 1_555
C3_9 N1_5 1_555 1_555
C4_9 C3_9 1_555 1_555
H1_9 C4_9 1_555 1_555
C5_9 C4_9 1_555 1_555
H2_9 C5_9 1_555 1_555
C6_9 C5_9 1_555 1_555
C7_9 C6_9 1_555 1_555
H3_9 C7_9 1_555 1_555
C8_9 C3_9 1_555 1_555
H4_9 C8_9 1_555 1_555
O7_5 C9_9 1_555 1_555
O36_4 C9_9 1_555 1_555
O39_4 C10_9 1_555 1_555
N3_5 C10_9 1_555 1_555
C9_9 C10_9 1_555 1_555
C11_9 N3_5 1_555 1_555
C12_9 C11_9 1_555 1_555
H5_9 C12_9 1_555 1_555
C13_9 C12_9 1_555 1_555
H6_9 C13_9 1_555 1_555
C14_9 N2_9 1_555 1_555
C15_9 C14_9 1_555 1_555
H7_9 C15_9 1_555 1_555
C16_9 C11_9 1_555 1_555
H8_9 C16_9 1_555 1_555
O10_5 C17_9 1_555 1_555
O36_24 C17_9 1_555 1_555
O39_24 C18_9 1_555 1_555
N4_5 C18_9 1_555 1_555
C17_9 C18_9 1_555 1_555
C19_9 N4_5 1_555 1_555
C20_9 C19_9 1_555 1_555
H9_9 C20_9 1_555 1_555
C21_9 C20_9 1_555 1_555
H10_9 C21_9 1_555 1_555
C22_9 N2_9 1_555 1_555
C23_9 C22_9 1_555 1_555
H11_9 C23_9 1_555 1_555
C24_9 C19_9 1_555 1_555
H12_9 C24_9 1_555 1_555
Co2_5 O7_5 1_555 1_555
O13_9 Co2_5 1_555 1_555
O35_2 C25_9 1_555 1_555
N5_9 Co2_5 1_555 1_555
N6_9 C30_9 1_555 1_555
C25_9 O13_9 1_555 1_555
C26_9 O38_2 1_555 1_555
C27_9 N5_9 1_555 1_555
C28_9 C27_9 1_555 1_555
H13_9 C28_9 1_555 1_555
C29_9 C28_9 1_555 1_555
H14_9 C29_9 1_555 1_555
C30_9 C29_9 1_555 1_555
C31_9 C30_9 1_555 1_555
H15_9 C31_9 1_555 1_555
C32_9 C27_9 1_555 1_555
H16_9 C32_9 1_555 1_555
O19_5 C33_9 1_555 1_555
O36_6 C33_9 1_555 1_555
O39_6 C34_9 1_555 1_555
N7_5 C34_9 1_555 1_555
C33_9 C34_9 1_555 1_555
C35_9 N7_5 1_555 1_555
C36_9 C35_9 1_555 1_555
H17_9 C36_9 1_555 1_555
C37_9 C36_9 1_555 1_555
H18_9 C37_9 1_555 1_555
C38_9 N6_9 1_555 1_555
C39_9 C38_9 1_555 1_555
H19_9 C39_9 1_555 1_555
C40_9 C35_9 1_555 1_555
H20_9 C40_9 1_555 1_555
O22_9 C41_9 1_555 1_555
O35_11 C41_9 1_555 1_555
O38_11 C42_9 1_555 1_555
N8_9 C42_9 1_555 1_555
C41_9 C42_9 1_555 1_555
C43_9 N8_9 1_555 1_555
C44_9 C43_9 1_555 1_555
H21_9 C44_9 1_555 1_555
C45_9 C44_9 1_555 1_555
H22_9 C45_9 1_555 1_555
C46_9 N6_9 1_555 1_555
C47_9 C46_9 1_555 1_555
H23_9 C47_9 1_555 1_555
C48_9 C43_9 1_555 1_555
H24_9 C48_9 1_555 1_555
Co3_5 O19_5 1_555 1_555
Co4_5 O10_5 1_555 1_555
O31_9 Co2_5 1_555 1_555
O32_5 Co1_5 1_555 1_555
O33_5 Co1_5 1_555 1_555
N9_9 Co2_5 1_555 1_555
N10_5 Co1_5 1_555 1_555
N11_5 Co1_5 1_555 1_555
N1_5 C2_9 1_555 1_555
C7_9 C8_9 1_555 1_555
N3_5 Co2_5 1_555 1_555
C13_9 C14_9 1_555 1_555
C15_9 C16_9 1_555 1_555
N4_5 Co4_5 1_555 1_555
C21_9 C22_9 1_555 1_555
C23_9 C24_9 1_555 1_555
N5_9 C26_9 1_555 1_555
C25_9 C26_9 1_555 1_555
C31_9 C32_9 1_555 1_555
N7_5 Co3_5 1_555 1_555
C37_9 C38_9 1_555 1_555
C39_9 C40_9 1_555 1_555
O22_9 Co4_5 1_555 1_555
N8_9 Co4_5 1_555 1_555
C45_9 C46_9 1_555 1_555
C47_9 C48_9 1_555 1_555
O27_7 H47_17 1_555 1_555
O26_8 H39_17 1_555 1_555
O26_8 H40_17 1_555 1_555
O27_8 H48_17 1_555 1_555
O26_5 H39_18 1_555 1_555
O26_5 H40_18 1_555 1_555
O27_5 H48_18 1_555 1_555
Co1_6 O1_6 1_555 1_555
O1_6 C1_10 1_555 1_555
O34_4 C1_10 1_555 1_555
N1_6 Co1_6 1_555 1_555
N2_10 C6_10 1_555 1_555
C1_10 C2_10 1_555 1_555
C2_10 O37_4 1_555 1_555
C3_10 N1_6 1_555 1_555
C4_10 C3_10 1_555 1_555
H1_10 C4_10 1_555 1_555
C5_10 C4_10 1_555 1_555
H2_10 C5_10 1_555 1_555
C6_10 C5_10 1_555 1_555
C7_10 C6_10 1_555 1_555
H3_10 C7_10 1_555 1_555
C8_10 C3_10 1_555 1_555
H4_10 C8_10 1_555 1_555
O7_6 C9_10 1_555 1_555
O36_3 C9_10 1_555 1_555
O39_3 C10_10 1_555 1_555
N3_6 C10_10 1_555 1_555
C9_10 C10_10 1_555 1_555
C11_10 N3_6 1_555 1_555
C12_10 C11_10 1_555 1_555
H5_10 C12_10 1_555 1_555
C13_10 C12_10 1_555 1_555
H6_10 C13_10 1_555 1_555
C14_10 N2_10 1_555 1_555
C15_10 C14_10 1_555 1_555
H7_10 C15_10 1_555 1_555
C16_10 C11_10 1_555 1_555
H8_10 C16_10 1_555 1_555
O10_6 C17_10 1_555 1_555
O36_21 C17_10 1_555 1_555
O39_21 C18_10 1_555 1_555
N4_6 C18_10 1_555 1_555
C17_10 C18_10 1_555 1_555
C19_10 N4_6 1_555 1_555
C20_10 C19_10 1_555 1_555
H9_10 C20_10 1_555 1_555
C21_10 C20_10 1_555 1_555
H10_10 C21_10 1_555 1_555
C22_10 N2_10 1_555 1_555
C23_10 C22_10 1_555 1_555
H11_10 C23_10 1_555 1_555
C24_10 C19_10 1_555 1_555
H12_10 C24_10 1_555 1_555
Co2_6 O7_6 1_555 1_555
O13_10 Co2_6 1_555 1_555
O35 C25_10 1_555 1_555
N5_10 Co2_6 1_555 1_555
N6_10 C30_10 1_555 1_555
C25_10 O13_10 1_555 1_555
C26_10 O38 1_555 1_555
C27_10 N5_10 1_555 1_555
C28_10 C27_10 1_555 1_555
H13_10 C28_10 1_555 1_555
C29_10 C28_10 1_555 1_555
H14_10 C29_10 1_555 1_555
C30_10 C29_10 1_555 1_555
C31_10 C30_10 1_555 1_555
H15_10 C31_10 1_555 1_555
C32_10 C27_10 1_555 1_555
H16_10 C32_10 1_555 1_555
O19_6 C33_10 1_555 1_555
O36_8 C33_10 1_555 1_555
O39_8 C34_10 1_555 1_555
N7_6 C34_10 1_555 1_555
C33_10 C34_10 1_555 1_555
C35_10 N7_6 1_555 1_555
C36_10 C35_10 1_555 1_555
H17_10 C36_10 1_555 1_555
C37_10 C36_10 1_555 1_555
H18_10 C37_10 1_555 1_555
C38_10 N6_10 1_555 1_555
C39_10 C38_10 1_555 1_555
H19_10 C39_10 1_555 1_555
C40_10 C35_10 1_555 1_555
H20_10 C40_10 1_555 1_555
O22_10 C41_10 1_555 1_555
O35_9 C41_10 1_555 1_555
O38_9 C42_10 1_555 1_555
N8_10 C42_10 1_555 1_555
C41_10 C42_10 1_555 1_555
C43_10 N8_10 1_555 1_555
C44_10 C43_10 1_555 1_555
H21_10 C44_10 1_555 1_555
C45_10 C44_10 1_555 1_555
H22_10 C45_10 1_555 1_555
C46_10 N6_10 1_555 1_555
C47_10 C46_10 1_555 1_555
H23_10 C47_10 1_555 1_555
C48_10 C43_10 1_555 1_555
H24_10 C48_10 1_555 1_555
Co3_6 O19_6 1_555 1_555
Co4_6 O10_6 1_555 1_555
O31_10 Co2_6 1_555 1_555
O32_6 Co1_6 1_555 1_555
O33_6 Co1_6 1_555 1_555
N9_10 Co2_6 1_555 1_555
N10_6 Co1_6 1_555 1_555
N11_6 Co1_6 1_555 1_555
N1_6 C2_10 1_555 1_555
C7_10 C8_10 1_555 1_555
N3_6 Co2_6 1_555 1_555
C13_10 C14_10 1_555 1_555
C15_10 C16_10 1_555 1_555
N4_6 Co4_6 1_555 1_555
C21_10 C22_10 1_555 1_555
C23_10 C24_10 1_555 1_555
N5_10 C26_10 1_555 1_555
C25_10 C26_10 1_555 1_555
C31_10 C32_10 1_555 1_555
N7_6 Co3_6 1_555 1_555
C37_10 C38_10 1_555 1_555
C39_10 C40_10 1_555 1_555
O22_10 Co4_6 1_555 1_555
N8_10 Co4_6 1_555 1_555
C45_10 C46_10 1_555 1_555
C47_10 C48_10 1_555 1_555
O27_6 H47_18 1_555 1_555
O26_3 H39_19 1_555 1_555
O26_3 H40_19 1_555 1_555
O27_3 H48_19 1_555 1_555
Co1_7 O1_7 1_555 1_555
O1_7 C1_11 1_555 1_555
O34 C1_11 1_555 1_555
N1_7 Co1_7 1_555 1_555
N2_11 C6_11 1_555 1_555
C1_11 C2_11 1_555 1_555
C2_11 O37 1_555 1_555
C3_11 N1_7 1_555 1_555
C4_11 C3_11 1_555 1_555
H1_11 C4_11 1_555 1_555
C5_11 C4_11 1_555 1_555
H2_11 C5_11 1_555 1_555
C6_11 C5_11 1_555 1_555
C7_11 C6_11 1_555 1_555
H3_11 C7_11 1_555 1_555
C8_11 C3_11 1_555 1_555
H4_11 C8_11 1_555 1_555
O7_7 C9_11 1_555 1_555
O36_2 C9_11 1_555 1_555
O39_2 C10_11 1_555 1_555
N3_7 C10_11 1_555 1_555
C9_11 C10_11 1_555 1_555
C11_11 N3_7 1_555 1_555
C12_11 C11_11 1_555 1_555
H5_11 C12_11 1_555 1_555
C13_11 C12_11 1_555 1_555
H6_11 C13_11 1_555 1_555
C14_11 N2_11 1_555 1_555
C15_11 C14_11 1_555 1_555
H7_11 C15_11 1_555 1_555
C16_11 C11_11 1_555 1_555
H8_11 C16_11 1_555 1_555
O10_7 C17_11 1_555 1_555
O36_23 C17_11 1_555 1_555
O39_23 C18_11 1_555 1_555
N4_7 C18_11 1_555 1_555
C17_11 C18_11 1_555 1_555
C19_11 N4_7 1_555 1_555
C20_11 C19_11 1_555 1_555
H9_11 C20_11 1_555 1_555
C21_11 C20_11 1_555 1_555
H10_11 C21_11 1_555 1_555
C22_11 N2_11 1_555 1_555
C23_11 C22_11 1_555 1_555
H11_11 C23_11 1_555 1_555
C24_11 C19_11 1_555 1_555
H12_11 C24_11 1_555 1_555
Co2_7 O7_7 1_555 1_555
O13_11 Co2_7 1_555 1_555
O35_4 C25_11 1_555 1_555
N5_11 Co2_7 1_555 1_555
N6_11 C30_11 1_555 1_555
C25_11 O13_11 1_555 1_555
C26_11 O38_4 1_555 1_555
C27_11 N5_11 1_555 1_555
C28_11 C27_11 1_555 1_555
H13_11 C28_11 1_555 1_555
C29_11 C28_11 1_555 1_555
H14_11 C29_11 1_555 1_555
C30_11 C29_11 1_555 1_555
C31_11 C30_11 1_555 1_555
H15_11 C31_11 1_555 1_555
C32_11 C27_11 1_555 1_555
H16_11 C32_11 1_555 1_555
O19_7 C33_11 1_555 1_555
O36_7 C33_11 1_555 1_555
O39_7 C34_11 1_555 1_555
N7_7 C34_11 1_555 1_555
C33_11 C34_11 1_555 1_555
C35_11 N7_7 1_555 1_555
C36_11 C35_11 1_555 1_555
H17_11 C36_11 1_555 1_555
C37_11 C36_11 1_555 1_555
H18_11 C37_11 1_555 1_555
C38_11 N6_11 1_555 1_555
C39_11 C38_11 1_555 1_555
H19_11 C39_11 1_555 1_555
C40_11 C35_11 1_555 1_555
H20_11 C40_11 1_555 1_555
O22_11 C41_11 1_555 1_555
O35_10 C41_11 1_555 1_555
O38_10 C42_11 1_555 1_555
N8_11 C42_11 1_555 1_555
C41_11 C42_11 1_555 1_555
C43_11 N8_11 1_555 1_555
C44_11 C43_11 1_555 1_555
H21_11 C44_11 1_555 1_555
C45_11 C44_11 1_555 1_555
H22_11 C45_11 1_555 1_555
C46_11 N6_11 1_555 1_555
C47_11 C46_11 1_555 1_555
H23_11 C47_11 1_555 1_555
C48_11 C43_11 1_555 1_555
H24_11 C48_11 1_555 1_555
Co3_7 O19_7 1_555 1_555
Co4_7 O10_7 1_555 1_555
O31_11 Co2_7 1_555 1_555
O32_7 Co1_7 1_555 1_555
O33_7 Co1_7 1_555 1_555
N9_11 Co2_7 1_555 1_555
N10_7 Co1_7 1_555 1_555
N11_7 Co1_7 1_555 1_555
N1_7 C2_11 1_555 1_555
C7_11 C8_11 1_555 1_555
N3_7 Co2_7 1_555 1_555
C13_11 C14_11 1_555 1_555
C15_11 C16_11 1_555 1_555
N4_7 Co4_7 1_555 1_555
C21_11 C22_11 1_555 1_555
C23_11 C24_11 1_555 1_555
N5_11 C26_11 1_555 1_555
C25_11 C26_11 1_555 1_555
C31_11 C32_11 1_555 1_555
N7_7 Co3_7 1_555 1_555
C37_11 C38_11 1_555 1_555
C39_11 C40_11 1_555 1_555
O22_11 Co4_7 1_555 1_555
N8_11 Co4_7 1_555 1_555
C45_11 C46_11 1_555 1_555
C47_11 C48_11 1_555 1_555
O27_4 H47_19 1_555 1_555
Co1_8 O1_8 1_555 1_555
O1_8 C1_12 1_555 1_555
O34_2 C1_12 1_555 1_555
N1_8 Co1_8 1_555 1_555
N2_12 C6_12 1_555 1_555
C1_12 C2_12 1_555 1_555
C2_12 O37_2 1_555 1_555
C3_12 N1_8 1_555 1_555
C4_12 C3_12 1_555 1_555
H1_12 C4_12 1_555 1_555
C5_12 C4_12 1_555 1_555
H2_12 C5_12 1_555 1_555
C6_12 C5_12 1_555 1_555
C7_12 C6_12 1_555 1_555
H3_12 C7_12 1_555 1_555
C8_12 C3_12 1_555 1_555
H4_12 C8_12 1_555 1_555
O7_8 C9_12 1_555 1_555
O36 C9_12 1_555 1_555
O39 C10_12 1_555 1_555
N3_8 C10_12 1_555 1_555
C9_12 C10_12 1_555 1_555
C11_12 N3_8 1_555 1_555
C12_12 C11_12 1_555 1_555
H5_12 C12_12 1_555 1_555
C13_12 C12_12 1_555 1_555
H6_12 C13_12 1_555 1_555
C14_12 N2_12 1_555 1_555
C15_12 C14_12 1_555 1_555
H7_12 C15_12 1_555 1_555
C16_12 C11_12 1_555 1_555
H8_12 C16_12 1_555 1_555
O10_8 C17_12 1_555 1_555
O36_22 C17_12 1_555 1_555
O39_22 C18_12 1_555 1_555
N4_8 C18_12 1_555 1_555
C17_12 C18_12 1_555 1_555
C19_12 N4_8 1_555 1_555
C20_12 C19_12 1_555 1_555
H9_12 C20_12 1_555 1_555
C21_12 C20_12 1_555 1_555
H10_12 C21_12 1_555 1_555
C22_12 N2_12 1_555 1_555
C23_12 C22_12 1_555 1_555
H11_12 C23_12 1_555 1_555
C24_12 C19_12 1_555 1_555
H12_12 C24_12 1_555 1_555
Co2_8 O7_8 1_555 1_555
O13_12 Co2_8 1_555 1_555
O35_3 C25_12 1_555 1_555
N5_12 Co2_8 1_555 1_555
N6_12 C30_12 1_555 1_555
C25_12 O13_12 1_555 1_555
C26_12 O38_3 1_555 1_555
C27_12 N5_12 1_555 1_555
C28_12 C27_12 1_555 1_555
H13_12 C28_12 1_555 1_555
C29_12 C28_12 1_555 1_555
H14_12 C29_12 1_555 1_555
C30_12 C29_12 1_555 1_555
C31_12 C30_12 1_555 1_555
H15_12 C31_12 1_555 1_555
C32_12 C27_12 1_555 1_555
H16_12 C32_12 1_555 1_555
O19_8 C33_12 1_555 1_555
O36_5 C33_12 1_555 1_555
O39_5 C34_12 1_555 1_555
N7_8 C34_12 1_555 1_555
C33_12 C34_12 1_555 1_555
C35_12 N7_8 1_555 1_555
C36_12 C35_12 1_555 1_555
H17_12 C36_12 1_555 1_555
C37_12 C36_12 1_555 1_555
H18_12 C37_12 1_555 1_555
C38_12 N6_12 1_555 1_555
C39_12 C38_12 1_555 1_555
H19_12 C39_12 1_555 1_555
C40_12 C35_12 1_555 1_555
H20_12 C40_12 1_555 1_555
O22_12 C41_12 1_555 1_555
O35_12 C41_12 1_555 1_555
O38_12 C42_12 1_555 1_555
N8_12 C42_12 1_555 1_555
C41_12 C42_12 1_555 1_555
C43_12 N8_12 1_555 1_555
C44_12 C43_12 1_555 1_555
H21_12 C44_12 1_555 1_555
C45_12 C44_12 1_555 1_555
H22_12 C45_12 1_555 1_555
C46_12 N6_12 1_555 1_555
C47_12 C46_12 1_555 1_555
H23_12 C47_12 1_555 1_555
C48_12 C43_12 1_555 1_555
H24_12 C48_12 1_555 1_555
Co3_8 O19_8 1_555 1_555
Co4_8 O10_8 1_555 1_555
O31_12 Co2_8 1_555 1_555
O32_8 Co1_8 1_555 1_555
O33_8 Co1_8 1_555 1_555
N9_12 Co2_8 1_555 1_555
N10_8 Co1_8 1_555 1_555
N11_8 Co1_8 1_555 1_555
N1_8 C2_12 1_555 1_555
C7_12 C8_12 1_555 1_555
N3_8 Co2_8 1_555 1_555
C13_12 C14_12 1_555 1_555
C15_12 C16_12 1_555 1_555
N4_8 Co4_8 1_555 1_555
C21_12 C22_12 1_555 1_555
C23_12 C24_12 1_555 1_555
N5_12 C26_12 1_555 1_555
C25_12 C26_12 1_555 1_555
C31_12 C32_12 1_555 1_555
N7_8 Co3_8 1_555 1_555
C37_12 C38_12 1_555 1_555
C39_12 C40_12 1_555 1_555
O22_12 Co4_8 1_555 1_555
N8_12 Co4_8 1_555 1_555
C45_12 C46_12 1_555 1_555
C47_12 C48_12 1_555 1_555
O27 H47_20 1_555 1_555
O26_2 H39_20 1_555 1_555
O26_2 H40_20 1_555 1_555
O27_2 H48_20 1_555 1_555
O13_13 Co3_6 1_555 1_555
O35_6 C25_13 1_555 1_555
N5_13 Co3_6 1_555 1_555
N6_13 C30_13 1_555 1_555
C25_13 O13_13 1_555 1_555
C26_13 O38_6 1_555 1_555
C27_13 N5_13 1_555 1_555
C28_13 C27_13 1_555 1_555
H13_13 C28_13 1_555 1_555
C29_13 C28_13 1_555 1_555
H14_13 C29_13 1_555 1_555
C30_13 C29_13 1_555 1_555
C31_13 C30_13 1_555 1_555
H15_13 C31_13 1_555 1_555
C32_13 C27_13 1_555 1_555
H16_13 C32_13 1_555 1_555
O32_6 C33_13 1_555 1_555
O36_10 C33_13 1_555 1_555
O39_10 C34_13 1_555 1_555
N10_6 C34_13 1_555 1_555
C33_13 C34_13 1_555 1_555
C35_13 N10_6 1_555 1_555
C36_13 C35_13 1_555 1_555
H17_13 C36_13 1_555 1_555
C37_13 C36_13 1_555 1_555
H18_13 C37_13 1_555 1_555
C38_13 N6_13 1_555 1_555
C39_13 C38_13 1_555 1_555
H19_13 C39_13 1_555 1_555
C40_13 C35_13 1_555 1_555
H20_13 C40_13 1_555 1_555
O22_13 C41_13 1_555 1_555
O36_19 C41_13 1_555 1_555
O39_19 C42_13 1_555 1_555
N8_13 C42_13 1_555 1_555
C41_13 C42_13 1_555 1_555
C43_13 N8_13 1_555 1_555
C44_13 C43_13 1_555 1_555
H21_13 C44_13 1_555 1_555
C45_13 C44_13 1_555 1_555
H22_13 C45_13 1_555 1_555
C46_13 N6_13 1_555 1_555
C47_13 C46_13 1_555 1_555
H23_13 C47_13 1_555 1_555
C48_13 C43_13 1_555 1_555
H24_13 C48_13 1_555 1_555
O31_13 Co3_6 1_555 1_555
N9_13 Co3_6 1_555 1_555
N5_13 C26_13 1_555 1_555
C25_13 C26_13 1_555 1_555
C31_13 C32_13 1_555 1_555
C37_13 C38_13 1_555 1_555
C39_13 C40_13 1_555 1_555
O22_13 Co4_6 1_555 1_555
N8_13 Co4_6 1_555 1_555
C45_13 C46_13 1_555 1_555
C47_13 C48_13 1_555 1_555
O27_15 H47_21 1_555 1_555
O26_16 H39_21 1_555 1_555
O26_16 H40_21 1_555 1_555
O27_16 H48_21 1_555 1_555
O26_13 H39_22 1_555 1_555
O26_13 H40_22 1_555 1_555
O27_13 H48_22 1_555 1_555
O13_14 Co3_7 1_555 1_555
O35_5 C25_14 1_555 1_555
N5_14 Co3_7 1_555 1_555
N6_14 C30_14 1_555 1_555
C25_14 O13_14 1_555 1_555
C26_14 O38_5 1_555 1_555
C27_14 N5_14 1_555 1_555
C28_14 C27_14 1_555 1_555
H13_14 C28_14 1_555 1_555
C29_14 C28_14 1_555 1_555
H14_14 C29_14 1_555 1_555
C30_14 C29_14 1_555 1_555
C31_14 C30_14 1_555 1_555
H15_14 C31_14 1_555 1_555
C32_14 C27_14 1_555 1_555
H16_14 C32_14 1_555 1_555
O32_7 C33_14 1_555 1_555
O36_12 C33_14 1_555 1_555
O39_12 C34_14 1_555 1_555
N10_7 C34_14 1_555 1_555
C33_14 C34_14 1_555 1_555
C35_14 N10_7 1_555 1_555
C36_14 C35_14 1_555 1_555
H17_14 C36_14 1_555 1_555
C37_14 C36_14 1_555 1_555
H18_14 C37_14 1_555 1_555
C38_14 N6_14 1_555 1_555
C39_14 C38_14 1_555 1_555
H19_14 C39_14 1_555 1_555
C40_14 C35_14 1_555 1_555
H20_14 C40_14 1_555 1_555
O22_14 C41_14 1_555 1_555
O36_20 C41_14 1_555 1_555
O39_20 C42_14 1_555 1_555
N8_14 C42_14 1_555 1_555
C41_14 C42_14 1_555 1_555
C43_14 N8_14 1_555 1_555
C44_14 C43_14 1_555 1_555
H21_14 C44_14 1_555 1_555
C45_14 C44_14 1_555 1_555
H22_14 C45_14 1_555 1_555
C46_14 N6_14 1_555 1_555
C47_14 C46_14 1_555 1_555
H23_14 C47_14 1_555 1_555
C48_14 C43_14 1_555 1_555
H24_14 C48_14 1_555 1_555
O31_14 Co3_7 1_555 1_555
N9_14 Co3_7 1_555 1_555
N5_14 C26_14 1_555 1_555
C25_14 C26_14 1_555 1_555
C31_14 C32_14 1_555 1_555
C37_14 C38_14 1_555 1_555
C39_14 C40_14 1_555 1_555
O22_14 Co4_7 1_555 1_555
N8_14 Co4_7 1_555 1_555
C45_14 C46_14 1_555 1_555
C47_14 C48_14 1_555 1_555
O27_14 H47_22 1_555 1_555
O26_11 H39_23 1_555 1_555
O26_11 H40_23 1_555 1_555
O27_11 H48_23 1_555 1_555
O13_15 Co3_5 1_555 1_555
O35_8 C25_15 1_555 1_555
N5_15 Co3_5 1_555 1_555
N6_15 C30_15 1_555 1_555
C25_15 O13_15 1_555 1_555
C26_15 O38_8 1_555 1_555
C27_15 N5_15 1_555 1_555
C28_15 C27_15 1_555 1_555
H13_15 C28_15 1_555 1_555
C29_15 C28_15 1_555 1_555
H14_15 C29_15 1_555 1_555
C30_15 C29_15 1_555 1_555
C31_15 C30_15 1_555 1_555
H15_15 C31_15 1_555 1_555
C32_15 C27_15 1_555 1_555
H16_15 C32_15 1_555 1_555
O32_5 C33_15 1_555 1_555
O36_11 C33_15 1_555 1_555
O39_11 C34_15 1_555 1_555
N10_5 C34_15 1_555 1_555
C33_15 C34_15 1_555 1_555
C35_15 N10_5 1_555 1_555
C36_15 C35_15 1_555 1_555
H17_15 C36_15 1_555 1_555
C37_15 C36_15 1_555 1_555
H18_15 C37_15 1_555 1_555
C38_15 N6_15 1_555 1_555
C39_15 C38_15 1_555 1_555
H19_15 C39_15 1_555 1_555
C40_15 C35_15 1_555 1_555
H20_15 C40_15 1_555 1_555
O22_15 C41_15 1_555 1_555
O36_17 C41_15 1_555 1_555
O39_17 C42_15 1_555 1_555
N8_15 C42_15 1_555 1_555
C41_15 C42_15 1_555 1_555
C43_15 N8_15 1_555 1_555
C44_15 C43_15 1_555 1_555
H21_15 C44_15 1_555 1_555
C45_15 C44_15 1_555 1_555
H22_15 C45_15 1_555 1_555
C46_15 N6_15 1_555 1_555
C47_15 C46_15 1_555 1_555
H23_15 C47_15 1_555 1_555
C48_15 C43_15 1_555 1_555
H24_15 C48_15 1_555 1_555
O31_15 Co3_5 1_555 1_555
N9_15 Co3_5 1_555 1_555
N5_15 C26_15 1_555 1_555
C25_15 C26_15 1_555 1_555
C31_15 C32_15 1_555 1_555
C37_15 C38_15 1_555 1_555
C39_15 C40_15 1_555 1_555
O22_15 Co4_5 1_555 1_555
N8_15 Co4_5 1_555 1_555
C45_15 C46_15 1_555 1_555
C47_15 C48_15 1_555 1_555
O27_12 H47_23 1_555 1_555
O13_16 Co3_8 1_555 1_555
O35_7 C25_16 1_555 1_555
N5_16 Co3_8 1_555 1_555
N6_16 C30_16 1_555 1_555
C25_16 O13_16 1_555 1_555
C26_16 O38_7 1_555 1_555
C27_16 N5_16 1_555 1_555
C28_16 C27_16 1_555 1_555
H13_16 C28_16 1_555 1_555
C29_16 C28_16 1_555 1_555
H14_16 C29_16 1_555 1_555
C30_16 C29_16 1_555 1_555
C31_16 C30_16 1_555 1_555
H15_16 C31_16 1_555 1_555
C32_16 C27_16 1_555 1_555
H16_16 C32_16 1_555 1_555
O32_8 C33_16 1_555 1_555
O36_9 C33_16 1_555 1_555
O39_9 C34_16 1_555 1_555
N10_8 C34_16 1_555 1_555
C33_16 C34_16 1_555 1_555
C35_16 N10_8 1_555 1_555
C36_16 C35_16 1_555 1_555
H17_16 C36_16 1_555 1_555
C37_16 C36_16 1_555 1_555
H18_16 C37_16 1_555 1_555
C38_16 N6_16 1_555 1_555
C39_16 C38_16 1_555 1_555
H19_16 C39_16 1_555 1_555
C40_16 C35_16 1_555 1_555
H20_16 C40_16 1_555 1_555
O22_16 C41_16 1_555 1_555
O36_18 C41_16 1_555 1_555
O39_18 C42_16 1_555 1_555
N8_16 C42_16 1_555 1_555
C41_16 C42_16 1_555 1_555
C43_16 N8_16 1_555 1_555
C44_16 C43_16 1_555 1_555
H21_16 C44_16 1_555 1_555
C45_16 C44_16 1_555 1_555
H22_16 C45_16 1_555 1_555
C46_16 N6_16 1_555 1_555
C47_16 C46_16 1_555 1_555
H23_16 C47_16 1_555 1_555
C48_16 C43_16 1_555 1_555
H24_16 C48_16 1_555 1_555
O31_16 Co3_8 1_555 1_555
N9_16 Co3_8 1_555 1_555
N5_16 C26_16 1_555 1_555
C25_16 C26_16 1_555 1_555
C31_16 C32_16 1_555 1_555
C37_16 C38_16 1_555 1_555
C39_16 C40_16 1_555 1_555
O22_16 Co4_8 1_555 1_555
N8_16 Co4_8 1_555 1_555
C45_16 C46_16 1_555 1_555
C47_16 C48_16 1_555 1_555
O27_9 H47_24 1_555 1_555
O26_10 H39_24 1_555 1_555
O26_10 H40_24 1_555 1_555
O27_10 H48_24 1_555 1_555
O27_23 H47_25 1_555 1_555
O26_24 H39_25 1_555 1_555
O26_24 H40_25 1_555 1_555
O27_24 H48_25 1_555 1_555
O26_21 H39_26 1_555 1_555
O26_21 H40_26 1_555 1_555
O27_21 H48_26 1_555 1_555
O27_22 H47_26 1_555 1_555
O26_19 H39_27 1_555 1_555
O26_19 H40_27 1_555 1_555
O27_19 H48_27 1_555 1_555
O27_20 H47_27 1_555 1_555
O27_17 H47_28 1_555 1_555
O26_18 H39_28 1_555 1_555
O26_18 H40_28 1_555 1_555
O27_18 H48_28 1_555 1_555
O31_12 C1_13 1_555 1_555
O34_7 C1_13 1_555 1_555
N2_13 C6_13 1_555 1_555
C1_13 C2_13 1_555 1_555
C2_13 O37_7 1_555 1_555
C3_13 N9_12 1_555 1_555
C4_13 C3_13 1_555 1_555
H1_13 C4_13 1_555 1_555
C5_13 C4_13 1_555 1_555
H2_13 C5_13 1_555 1_555
C6_13 C5_13 1_555 1_555
C7_13 C6_13 1_555 1_555
H3_13 C7_13 1_555 1_555
C8_13 C3_13 1_555 1_555
H4_13 C8_13 1_555 1_555
O33_8 C9_13 1_555 1_555
O36_16 C9_13 1_555 1_555
O39_16 C10_13 1_555 1_555
N11_8 C10_13 1_555 1_555
C9_13 C10_13 1_555 1_555
C11_13 N11_8 1_555 1_555
C12_13 C11_13 1_555 1_555
H5_13 C12_13 1_555 1_555
C13_13 C12_13 1_555 1_555
H6_13 C13_13 1_555 1_555
C14_13 N2_13 1_555 1_555
C15_13 C14_13 1_555 1_555
H7_13 C15_13 1_555 1_555
C16_13 C11_13 1_555 1_555
H8_13 C16_13 1_555 1_555
O31_16 C17_13 1_555 1_555
O35_13 C17_13 1_555 1_555
O38_13 C18_13 1_555 1_555
N9_16 C18_13 1_555 1_555
C17_13 C18_13 1_555 1_555
C19_13 N9_16 1_555 1_555
C20_13 C19_13 1_555 1_555
H9_13 C20_13 1_555 1_555
C21_13 C20_13 1_555 1_555
H10_13 C21_13 1_555 1_555
C22_13 N2_13 1_555 1_555
C23_13 C22_13 1_555 1_555
H11_13 C23_13 1_555 1_555
C24_13 C19_13 1_555 1_555
H12_13 C24_13 1_555 1_555
N9_12 C2_13 1_555 1_555
C7_13 C8_13 1_555 1_555
C13_13 C14_13 1_555 1_555
C15_13 C16_13 1_555 1_555
C21_13 C22_13 1_555 1_555
C23_13 C24_13 1_555 1_555
O6_9 H27_5 1_555 1_555
O27_31 H47_29 1_555 1_555
O5_10 H25_5 1_555 1_555
O5_10 H26_5 1_555 1_555
O6_10 H28_5 1_555 1_555
O26_32 H39_29 1_555 1_555
O26_32 H40_29 1_555 1_555
O27_32 H48_29 1_555 1_555
O26_29 H39_30 1_555 1_555
O26_29 H40_30 1_555 1_555
O27_29 H48_30 1_555 1_555
O5_11 H25_6 1_555 1_555
O5_11 H26_6 1_555 1_555
O6_11 H28_6 1_555 1_555
O31_11 C1_14 1_555 1_555
O34_8 C1_14 1_555 1_555
N2_14 C6_14 1_555 1_555
C1_14 C2_14 1_555 1_555
C2_14 O37_8 1_555 1_555
C3_14 N9_11 1_555 1_555
C4_14 C3_14 1_555 1_555
H1_14 C4_14 1_555 1_555
C5_14 C4_14 1_555 1_555
H2_14 C5_14 1_555 1_555
C6_14 C5_14 1_555 1_555
C7_14 C6_14 1_555 1_555
H3_14 C7_14 1_555 1_555
C8_14 C3_14 1_555 1_555
H4_14 C8_14 1_555 1_555
O33_7 C9_14 1_555 1_555
O36_15 C9_14 1_555 1_555
O39_15 C10_14 1_555 1_555
N11_7 C10_14 1_555 1_555
C9_14 C10_14 1_555 1_555
C11_14 N11_7 1_555 1_555
C12_14 C11_14 1_555 1_555
H5_14 C12_14 1_555 1_555
C13_14 C12_14 1_555 1_555
H6_14 C13_14 1_555 1_555
C14_14 N2_14 1_555 1_555
C15_14 C14_14 1_555 1_555
H7_14 C15_14 1_555 1_555
C16_14 C11_14 1_555 1_555
H8_14 C16_14 1_555 1_555
O31_14 C17_14 1_555 1_555
O35_14 C17_14 1_555 1_555
O38_14 C18_14 1_555 1_555
N9_14 C18_14 1_555 1_555
C17_14 C18_14 1_555 1_555
C19_14 N9_14 1_555 1_555
C20_14 C19_14 1_555 1_555
H9_14 C20_14 1_555 1_555
C21_14 C20_14 1_555 1_555
H10_14 C21_14 1_555 1_555
C22_14 N2_14 1_555 1_555
C23_14 C22_14 1_555 1_555
H11_14 C23_14 1_555 1_555
C24_14 C19_14 1_555 1_555
H12_14 C24_14 1_555 1_555
N9_11 C2_14 1_555 1_555
C7_14 C8_14 1_555 1_555
C13_14 C14_14 1_555 1_555
C15_14 C16_14 1_555 1_555
C21_14 C22_14 1_555 1_555
C23_14 C24_14 1_555 1_555
O6_12 H27_6 1_555 1_555
O27_30 H47_30 1_555 1_555
O26_27 H39_31 1_555 1_555
O26_27 H40_31 1_555 1_555
O27_27 H48_31 1_555 1_555
O31_10 C1_15 1_555 1_555
O34_5 C1_15 1_555 1_555
N2_15 C6_15 1_555 1_555
C1_15 C2_15 1_555 1_555
C2_15 O37_5 1_555 1_555
C3_15 N9_10 1_555 1_555
C4_15 C3_15 1_555 1_555
H1_15 C4_15 1_555 1_555
C5_15 C4_15 1_555 1_555
H2_15 C5_15 1_555 1_555
C6_15 C5_15 1_555 1_555
C7_15 C6_15 1_555 1_555
H3_15 C7_15 1_555 1_555
C8_15 C3_15 1_555 1_555
H4_15 C8_15 1_555 1_555
O33_6 C9_15 1_555 1_555
O36_14 C9_15 1_555 1_555
O39_14 C10_15 1_555 1_555
N11_6 C10_15 1_555 1_555
C9_15 C10_15 1_555 1_555
C11_15 N11_6 1_555 1_555
C12_15 C11_15 1_555 1_555
H5_15 C12_15 1_555 1_555
C13_15 C12_15 1_555 1_555
H6_15 C13_15 1_555 1_555
C14_15 N2_15 1_555 1_555
C15_15 C14_15 1_555 1_555
H7_15 C15_15 1_555 1_555
C16_15 C11_15 1_555 1_555
H8_15 C16_15 1_555 1_555
O31_13 C17_15 1_555 1_555
O35_15 C17_15 1_555 1_555
O38_15 C18_15 1_555 1_555
N9_13 C18_15 1_555 1_555
C17_15 C18_15 1_555 1_555
C19_15 N9_13 1_555 1_555
C20_15 C19_15 1_555 1_555
H9_15 C20_15 1_555 1_555
C21_15 C20_15 1_555 1_555
H10_15 C21_15 1_555 1_555
C22_15 N2_15 1_555 1_555
C23_15 C22_15 1_555 1_555
H11_15 C23_15 1_555 1_555
C24_15 C19_15 1_555 1_555
H12_15 C24_15 1_555 1_555
N9_10 C2_15 1_555 1_555
C7_15 C8_15 1_555 1_555
C13_15 C14_15 1_555 1_555
C15_15 C16_15 1_555 1_555
C21_15 C22_15 1_555 1_555
C23_15 C24_15 1_555 1_555
O6_5 H27_7 1_555 1_555
O27_28 H47_31 1_555 1_555
O5_6 H25_7 1_555 1_555
O5_6 H26_7 1_555 1_555
O6_6 H28_7 1_555 1_555
O5_7 H25_8 1_555 1_555
O5_7 H26_8 1_555 1_555
O6_7 H28_8 1_555 1_555
O31_9 C1_16 1_555 1_555
O34_6 C1_16 1_555 1_555
N2_16 C6_16 1_555 1_555
C1_16 C2_16 1_555 1_555
C2_16 O37_6 1_555 1_555
C3_16 N9_9 1_555 1_555
C4_16 C3_16 1_555 1_555
H1_16 C4_16 1_555 1_555
C5_16 C4_16 1_555 1_555
H2_16 C5_16 1_555 1_555
C6_16 C5_16 1_555 1_555
C7_16 C6_16 1_555 1_555
H3_16 C7_16 1_555 1_555
C8_16 C3_16 1_555 1_555
H4_16 C8_16 1_555 1_555
O33_5 C9_16 1_555 1_555
O36_13 C9_16 1_555 1_555
O39_13 C10_16 1_555 1_555
N11_5 C10_16 1_555 1_555
C9_16 C10_16 1_555 1_555
C11_16 N11_5 1_555 1_555
C12_16 C11_16 1_555 1_555
H5_16 C12_16 1_555 1_555
C13_16 C12_16 1_555 1_555
H6_16 C13_16 1_555 1_555
C14_16 N2_16 1_555 1_555
C15_16 C14_16 1_555 1_555
H7_16 C15_16 1_555 1_555
C16_16 C11_16 1_555 1_555
H8_16 C16_16 1_555 1_555
O31_15 C17_16 1_555 1_555
O35_16 C17_16 1_555 1_555
O38_16 C18_16 1_555 1_555
N9_15 C18_16 1_555 1_555
C17_16 C18_16 1_555 1_555
C19_16 N9_15 1_555 1_555
C20_16 C19_16 1_555 1_555
H9_16 C20_16 1_555 1_555
C21_16 C20_16 1_555 1_555
H10_16 C21_16 1_555 1_555
C22_16 N2_16 1_555 1_555
C23_16 C22_16 1_555 1_555
H11_16 C23_16 1_555 1_555
C24_16 C19_16 1_555 1_555
H12_16 C24_16 1_555 1_555
N9_9 C2_16 1_555 1_555
C7_16 C8_16 1_555 1_555
C13_16 C14_16 1_555 1_555
C15_16 C16_16 1_555 1_555
C21_16 C22_16 1_555 1_555
C23_16 C24_16 1_555 1_555
O6_8 H27_8 1_555 1_555
O27_25 H47_32 1_555 1_555
O26_26 H39_32 1_555 1_555
O26_26 H40_32 1_555 1_555
O27_26 H48_32 1_555 1_555
O18_15 H35_5 1_555 1_555
O17_16 H33_5 1_555 1_555
O17_16 H34_5 1_555 1_555
O18_16 H36_5 1_555 1_555
O18_13 H35_6 1_555 1_555
O17_14 H33_6 1_555 1_555
O17_14 H34_6 1_555 1_555
O18_14 H36_6 1_555 1_555
O17_19 H33_7 1_555 1_555
O17_19 H34_7 1_555 1_555
O18_19 H36_7 1_555 1_555
O18_20 H35_7 1_555 1_555
O17_17 H33_8 1_555 1_555
O17_17 H34_8 1_555 1_555
O18_17 H36_8 1_555 1_555
O18_18 H35_8 1_555 1_555

#END
