
###############################################################################
#
# This file contains modified crystal structure data generated from the
# MOF subset of the Cambridge Structural Database (CSD) v543 
# hosted by the Cambridge Crystallographic Data Centre (CCDC).
#
# This work is licensed under the Creative Commons
# Attribution-NonCommercial-ShareAlike 4.0 International License.
# To view a copy of this license, visit
# http://creativecommons.org/licenses/by-nc-sa/4.0/
# or send a letter to
# Creative Commons, PO Box 1866, Mountain View, CA 94042, USA.
#
# CIF created using the CSD Python API on 29 September 2022
# The structure has been converted into the P1 space group
# The structure has a 3D framework
# The original CSD entry TUBJAD is in the orthorhombic crystal system
# The framework has been calculated to contain at least 10.0% void space
# The void calculation uses a probe of radius 1.32A, grid spacing 0.4
# H atom positions have been added when not included in the experimental data
#
###############################################################################

data_TUBJAD
_chemical_formula_moiety         '(C80 H68 Cu4 N12 O24)n'
_symmetry_cell_setting           triclinic
_symmetry_space_group_name_H-M   'P 1'
_symmetry_Int_Tables_number      1
_space_group_name_Hall           'P 1'
loop_
_symmetry_equiv_pos_site_id
_symmetry_equiv_pos_as_xyz
1 x,y,z
_cell_length_a                   15.987(6)
_cell_length_b                   16.920(6)
_cell_length_c                   8.838(3)
_cell_angle_alpha                90
_cell_angle_beta                 90
_cell_angle_gamma                90
_cell_volume                     2390.68
loop_
_atom_site_label
_atom_site_type_symbol
_atom_site_fract_x
_atom_site_fract_y
_atom_site_fract_z
N2 N 0.0252(10) 0.3024(7) 0.4731(16)
H3 H 0.0190 0.3107 0.5707
N3 N 0.2565(9) 0.2569(8) 0.1359(14)
C7 C 0.0953(13) 0.3400(9) 0.3856(19)
H8 H 0.0995 0.3955 0.3719
C8 C 0.2834(12) 0.1897(9) 0.2071(18)
H9 H 0.3271 0.1584 0.1659
C9 C 0.2450(12) 0.1694(11) 0.340(2)
H10 H 0.2616 0.1222 0.3896
C10 C 0.1795(14) 0.2179(11) 0.407(3)
H11 H 0.1543 0.2043 0.5004
C11 C 0.1548(12) 0.2863(10) 0.3250(17)
C12 C 0.1961(11) 0.3016(9) 0.1924(16)
H12 H 0.1803 0.3475 0.1372
H17 H 0.0585624 0.33551 0.282195
Cu1 Cu 0.19389(11) 0.78161(8) 0.4296(4)
O1 O 0.1419(6) 0.8757(5) 0.5104(11)
O2 O 0.2533(6) 0.9538(6) 0.4810(10)
O6 O 0.0691(9) 0.7190(6) 0.4766(11)
H1 H 0.0683 0.6934 0.5706
H2 H 0.0573 0.6803 0.4041
N1 N 0.1674(7) 0.8124(6) 0.2121(13)
C1 C 0.1998(10) 0.8751(10) 0.1509(16)
H4 H 0.2344 0.9071 0.2131
C2 C 0.1884(10) 0.8990(11) 0.0048(19)
C5 C 0.1121(9) 0.7709(8) 0.1388(16)
H7 H 0.0857 0.7271 0.1859
C13 C 0.1827(11) 0.9419(8) 0.5261(14)
C20 C 0.0487(9) 0.9940(8) 0.6528(17)
H16 H 0.0187 0.9492 0.6173
O7 O 0.2381(9) 0.6795(6) 0.3526(13)
O8 O 0.3511(10) 0.7563(7) 0.3435(15)
N4 N 0.2435(9) 0.7569(8) 0.6359(14)
O1_2 O 0.3581(6) 0.3757(5) 0.0104(11)
H1_2 H 0.4317 0.1934 0.0706
C13_2 C 0.3173(11) 0.4419(8) 0.0261(14)
C14 C 0.3126(14) 0.6909(8) 0.3275(15)
C15 C 0.3669(8) 0.5017(7) 0.1215(15)
C16 C 0.3228(9) 0.5656(7) 0.1757(14)
H13 H 0.2648 0.5715 0.1546
C17 C 0.3646(9) 0.6199(8) 0.2603(18)
C18 C 0.4515(10) 0.6118(10) 0.2867(17)
H14 H 0.4814 0.6506 0.3423
C19 C 0.4901(10) 0.5489(9) 0.2321(17)
H15 H 0.5483 0.5430 0.2507
C20_2 C 0.4513(9) 0.4940(8) 0.1528(17)
H16_2 H 0.4813 0.4492 0.1173
O5 O 0.5216(7) 0.7409(8) 0.7617(13)
N2_2 N 0.4748(10) 0.8024(7) 0.9731(16)
H5 H 0.7181 0.5577 0.9627
C3 C 0.6326(10) 0.6428(9) 0.925(2)
H6 H 0.6209 0.6274 0.8235
C4 C 0.5913(11) 0.7079(11) 0.9853(16)
C6 C 0.5258(12) 0.7571(12) 0.8989(18)
C7_2 C 0.4047(13) 0.8400(9) 0.8856(19)
H8_2 H 0.4005 0.8955 0.8719
C8_2 C 0.2166(12) 0.6897(9) 0.7071(18)
H9_2 H 0.1729 0.6584 0.6659
C9_2 C 0.2550(12) 0.6694(11) 0.840(2)
H10_2 H 0.2384 0.6222 0.8896
C10_2 C 0.3205(14) 0.7179(11) 0.907(3)
C11_2 C 0.3452(12) 0.7863(10) 0.8250(17)
C12_2 C 0.3039(11) 0.8016(9) 0.6924(16)
H12_2 H 0.3197 0.8475 0.6372
H17_2 H 0.441438 0.83551 0.782195
Cu2 Cu 0.30611(11) 0.28161(8) 0.9296(4)
O1_3 O 0.8581(6) 0.1243(5) 0.0104(11)
H1_3 H 0.9317 0.3066 0.0706
C13_3 C 0.8173(11) 0.0581(8) 0.0261(14)
C20_3 C 0.9513(9) 0.0060(8) 0.1528(17)
H16_3 H 0.9813 0.0508 0.1173
N4_2 N 0.7565(9) 0.2431(8) 0.1359(14)
O3 O 0.2619(9) 0.1795(6) 0.8526(13)
O4 O 0.1489(10) 0.2563(7) 0.8435(15)
C14_2 C 0.1874(14) 0.1909(8) 0.8275(15)
C15_2 C 0.1331(8) 0.0017(7) 0.6215(15)
C16_2 C 0.1772(9) 0.0656(7) 0.6757(14)
H13_2 H 0.2352 0.0715 0.6546
C17_2 C 0.1354(9) 0.1199(8) 0.7603(18)
C18_2 C 0.0485(10) 0.1118(10) 0.7867(17)
H14_2 H 0.0186 0.1506 0.8423
C19_2 C 0.0099(10) 0.0489(9) 0.7321(17)
O2_2 O 0.2467(6) 0.4538(6) 0.9810(10)
O5_2 O 0.4784(7) 0.2591(8) 0.2617(13)
O6_2 O 0.4309(9) 0.2190(6) 0.9766(11)
H2_2 H 0.4427 0.1803 0.9041
N1_2 N 0.3326(7) 0.3124(6) 0.7121(13)
N2_3 N 0.5252(10) 0.1976(7) 0.4731(16)
H3_2 H 0.5190 0.1893 0.5707
C1_2 C 0.3002(10) 0.3751(10) 0.6509(16)
H4_2 H 0.2656 0.4071 0.7131
C2_2 C 0.3116(10) 0.3990(11) 0.5048(19)
H5_2 H 0.2819 0.4423 0.4627
C3_2 C 0.3674(10) 0.3572(9) 0.425(2)
H6_2 H 0.3791 0.3726 0.3235
C4_2 C 0.4087(11) 0.2921(11) 0.4853(16)
C5_2 C 0.3879(9) 0.2709(8) 0.6388(16)
H7_2 H 0.4143 0.2271 0.6859
C6_2 C 0.4742(12) 0.2429(12) 0.3989(18)
C7_3 C 0.5953(13) 0.1600(9) 0.3856(19)
H8_3 H 0.5995 0.1045 0.3719
C8_3 C 0.7834(12) 0.3103(9) 0.2071(18)
H9_3 H 0.8271 0.3416 0.1659
C9_3 C 0.7450(12) 0.3306(11) 0.340(2)
H10_3 H 0.7616 0.3778 0.3896
C10_3 C 0.6795(14) 0.2821(11) 0.407(3)
H11_2 H 0.6543 0.2957 0.5004
C11_3 C 0.6548(12) 0.2137(10) 0.3250(17)
C12_3 C 0.6961(11) 0.1984(9) 0.1924(16)
H12_3 H 0.6803 0.1525 0.1372
H17_3 H 0.558562 0.16449 0.282195
H15_2 H 0.0483 0.9570 0.2507
Cu1_2 Cu 0.80611(11) 0.21839(8) 0.9296(4)
O2_3 O 0.7467(6) 0.0462(6) 0.9810(10)
O5_3 O 0.9784(7) 0.2409(8) 0.2617(13)
O6_3 O 0.9309(9) 0.2810(6) 0.9766(11)
H2_3 H 0.9427 0.3197 0.9041
N1_3 N 0.8326(7) 0.1876(6) 0.7121(13)
C1_3 C 0.8002(10) 0.1249(10) 0.6509(16)
H4_3 H 0.7656 0.0929 0.7131
C2_3 C 0.8116(10) 0.1010(11) 0.5048(19)
H5_3 H 0.7819 0.0577 0.4627
C3_3 C 0.8674(10) 0.1428(9) 0.425(2)
H6_3 H 0.8791 0.1274 0.3235
C4_3 C 0.9087(11) 0.2079(11) 0.4853(16)
C5_3 C 0.8879(9) 0.2291(8) 0.6388(16)
H7_3 H 0.9143 0.2729 0.6859
C6_3 C 0.9742(12) 0.2571(12) 0.3989(18)
O7_2 O 0.7619(9) 0.3205(6) 0.8526(13)
O8_2 O 0.6489(10) 0.2437(7) 0.8435(15)
O3_2 O 0.7381(9) 0.8205(6) 0.3526(13)
O4_2 O 0.8511(10) 0.7437(7) 0.3435(15)
C14_3 C 0.8126(14) 0.8091(8) 0.3275(15)
C15_3 C 0.8669(8) 0.9983(7) 0.1215(15)
C16_3 C 0.8228(9) 0.9344(7) 0.1757(14)
H13_3 H 0.7648 0.9285 0.1546
C17_3 C 0.8646(9) 0.8801(8) 0.2603(18)
C18_3 C 0.9515(10) 0.8882(10) 0.2867(17)
H14_3 H 0.9814 0.8494 0.3423
C19_3 C 0.9901(10) 0.9511(9) 0.2321(17)
Cu3 Cu 0.69389(11) 0.71839(8) 0.4296(4)
N2_4 N 0.9748(10) 0.6976(7) 0.9731(16)
N3_2 N 0.7435(9) 0.7431(8) 0.6359(14)
C7_4 C 0.9047(13) 0.6600(9) 0.8856(19)
H8_4 H 0.9005 0.6045 0.8719
C8_4 C 0.7166(12) 0.8103(9) 0.7071(18)
H9_4 H 0.6729 0.8416 0.6659
C9_4 C 0.7550(12) 0.8306(11) 0.840(2)
H10_4 H 0.7384 0.8778 0.8896
C10_4 C 0.8205(14) 0.7821(11) 0.907(3)
C11_4 C 0.8452(12) 0.7137(10) 0.8250(17)
C12_4 C 0.8039(11) 0.6984(9) 0.6924(16)
H12_4 H 0.8197 0.6525 0.6372
H17_4 H 0.941438 0.66449 0.782195
O1_4 O 0.6419(6) 0.6243(5) 0.5104(11)
O2_4 O 0.7533(6) 0.5462(6) 0.4810(10)
O6_4 O 0.5691(9) 0.7810(6) 0.4766(11)
H1_4 H 0.5683 0.8066 0.5706
H2_4 H 0.5573 0.8197 0.4041
N1_4 N 0.6674(7) 0.6876(6) 0.2121(13)
H3_3 H 0.4810 0.8107 0.0707
C1_4 C 0.6998(10) 0.6249(10) 0.1509(16)
H4_4 H 0.7344 0.5929 0.2131
C2_4 C 0.6884(10) 0.6010(11) 0.0048(19)
C5_4 C 0.6121(9) 0.7291(8) 0.1388(16)
H7_4 H 0.5857 0.7729 0.1859
H11_3 H 0.3457 0.7043 0.0004
C13_4 C 0.6827(11) 0.5581(8) 0.5261(14)
C14_4 C 0.6874(14) 0.3091(8) 0.8275(15)
C15_4 C 0.6331(8) 0.4983(7) 0.6215(15)
C16_4 C 0.6772(9) 0.4344(7) 0.6757(14)
H13_4 H 0.7352 0.4285 0.6546
C17_4 C 0.6354(9) 0.3801(8) 0.7603(18)
C18_4 C 0.5485(10) 0.3882(10) 0.7867(17)
H14_4 H 0.5186 0.3494 0.8423
C19_4 C 0.5099(10) 0.4511(9) 0.7321(17)
H15_3 H 0.4517 0.4570 0.7507
C20_4 C 0.5487(9) 0.5060(8) 0.6528(17)
H16_4 H 0.5187 0.5508 0.6173
O5_4 O 0.0216(7) 0.7591(8) 0.7617(13)
H5_4 H 0.2181 0.9423 0.9627
C3_4 C 0.1326(10) 0.8572(9) 0.925(2)
H6_4 H 0.1209 0.8726 0.8235
C4_4 C 0.0913(11) 0.7921(11) 0.9853(16)
C6_4 C 0.0258(12) 0.7429(12) 0.8989(18)
H15_4 H 0.9517 0.0430 0.7507
H3_4 H 0.9810 0.6893 0.0707
H11_4 H 0.8457 0.7957 0.0004
loop_
_geom_bond_atom_site_label_1
_geom_bond_atom_site_label_2
_geom_bond_site_symmetry_1
_geom_bond_site_symmetry_2
N2 H3 1_555 1_555
N3 C8 1_555 1_555
C7 N2 1_555 1_555
H8 C7 1_555 1_555
C8 H9 1_555 1_555
C9 C8 1_555 1_555
H10 C9 1_555 1_555
C10 C9 1_555 1_555
H11 C10 1_555 1_555
C11 C7 1_555 1_555
C12 N3 1_555 1_555
H12 C12 1_555 1_555
C10 C11 1_555 1_555
C11 C12 1_555 1_555
C7 H17 1_555 1_555
Cu1 O1 1_555 1_555
O1 C13 1_555 1_555
O2 C13 1_555 1_555
O6 Cu1 1_555 1_555
H1 O6 1_555 1_555
H2 O6 1_555 1_555
N1 Cu1 1_555 1_555
C1 N1 1_555 1_555
H4 C1 1_555 1_555
C2 C1 1_555 1_555
C5 N1 1_555 1_555
H7 C5 1_555 1_555
H16 C20 1_555 1_555
O7 Cu1 1_555 1_555
O8 Cu1 1_555 1_555
N4 Cu1 1_555 1_555
O1_2 C13_2 1_555 1_555
O7 C14 1_555 1_555
O8 C14 1_555 1_555
C13_2 C15 1_555 1_555
C14 C17 1_555 1_555
C15 C16 1_555 1_555
C16 H13 1_555 1_555
C17 C16 1_555 1_555
C18 C17 1_555 1_555
H14 C18 1_555 1_555
C19 C18 1_555 1_555
H15 C19 1_555 1_555
C20_2 C15 1_555 1_555
H16_2 C20_2 1_555 1_555
C19 C20_2 1_555 1_555
O5 C6 1_555 1_555
N4 C8_2 1_555 1_555
H6 C3 1_555 1_555
C4 C3 1_555 1_555
C6 N2_2 1_555 1_555
C7_2 N2_2 1_555 1_555
H8_2 C7_2 1_555 1_555
C8_2 H9_2 1_555 1_555
C9_2 C8_2 1_555 1_555
H10_2 C9_2 1_555 1_555
C10_2 C9_2 1_555 1_555
C11_2 C7_2 1_555 1_555
C12_2 N4 1_555 1_555
H12_2 C12_2 1_555 1_555
C4 C6 1_555 1_555
C10_2 C11_2 1_555 1_555
C11_2 C12_2 1_555 1_555
C7_2 H17_2 1_555 1_555
O1_3 C13_3 1_555 1_555
H16_3 C20_3 1_555 1_555
O3 C14_2 1_555 1_555
O4 C14_2 1_555 1_555
C14_2 C17_2 1_555 1_555
C15_2 C16_2 1_555 1_555
C16_2 H13_2 1_555 1_555
C17_2 C16_2 1_555 1_555
C18_2 C17_2 1_555 1_555
H14_2 C18_2 1_555 1_555
C19_2 C18_2 1_555 1_555
Cu2 O3 1_555 1_555
O4 Cu2 1_555 1_555
O5_2 C6_2 1_555 1_555
O6_2 Cu2 1_555 1_555
H2_2 O6_2 1_555 1_555
N1_2 Cu2 1_555 1_555
N2_3 H3_2 1_555 1_555
N4_2 C8_3 1_555 1_555
C1_2 N1_2 1_555 1_555
H4_2 C1_2 1_555 1_555
C2_2 C1_2 1_555 1_555
H5_2 C2_2 1_555 1_555
C3_2 C2_2 1_555 1_555
H6_2 C3_2 1_555 1_555
C4_2 C3_2 1_555 1_555
C5_2 N1_2 1_555 1_555
H7_2 C5_2 1_555 1_555
C6_2 N2_3 1_555 1_555
C7_3 N2_3 1_555 1_555
H8_3 C7_3 1_555 1_555
C8_3 H9_3 1_555 1_555
C9_3 C8_3 1_555 1_555
H10_3 C9_3 1_555 1_555
C10_3 C9_3 1_555 1_555
H11_2 C10_3 1_555 1_555
C11_3 C7_3 1_555 1_555
C12_3 N4_2 1_555 1_555
H12_3 C12_3 1_555 1_555
C4_2 C5_2 1_555 1_555
C4_2 C6_2 1_555 1_555
C10_3 C11_3 1_555 1_555
C11_3 C12_3 1_555 1_555
C7_3 H17_3 1_555 1_555
O5_3 C6_3 1_555 1_555
O6_3 Cu1_2 1_555 1_555
H2_3 O6_3 1_555 1_555
N1_3 Cu1_2 1_555 1_555
C1_3 N1_3 1_555 1_555
H4_3 C1_3 1_555 1_555
C2_3 C1_3 1_555 1_555
H5_3 C2_3 1_555 1_555
C3_3 C2_3 1_555 1_555
H6_3 C3_3 1_555 1_555
C4_3 C3_3 1_555 1_555
C5_3 N1_3 1_555 1_555
H7_3 C5_3 1_555 1_555
O7_2 Cu1_2 1_555 1_555
O8_2 Cu1_2 1_555 1_555
C4_3 C5_3 1_555 1_555
C4_3 C6_3 1_555 1_555
O3_2 C14_3 1_555 1_555
O4_2 C14_3 1_555 1_555
C14_3 C17_3 1_555 1_555
C15_3 C16_3 1_555 1_555
C16_3 H13_3 1_555 1_555
C17_3 C16_3 1_555 1_555
C18_3 C17_3 1_555 1_555
H14_3 C18_3 1_555 1_555
C19_3 C18_3 1_555 1_555
Cu3 O3_2 1_555 1_555
O4_2 Cu3 1_555 1_555
N3_2 C8_4 1_555 1_555
C7_4 N2_4 1_555 1_555
H8_4 C7_4 1_555 1_555
C8_4 H9_4 1_555 1_555
C9_4 C8_4 1_555 1_555
H10_4 C9_4 1_555 1_555
C10_4 C9_4 1_555 1_555
C11_4 C7_4 1_555 1_555
C12_4 N3_2 1_555 1_555
H12_4 C12_4 1_555 1_555
Cu3 N3_2 1_555 1_555
C10_4 C11_4 1_555 1_555
C11_4 C12_4 1_555 1_555
C7_4 H17_4 1_555 1_555
Cu3 O1_4 1_555 1_555
O1_4 C13_4 1_555 1_555
O2_4 C13_4 1_555 1_555
O7_2 C14_4 1_555 1_555
O8_2 C14_4 1_555 1_555
O6_4 Cu3 1_555 1_555
H1_4 O6_4 1_555 1_555
H2_4 O6_4 1_555 1_555
N1_4 Cu3 1_555 1_555
C1_4 N1_4 1_555 1_555
H4_4 C1_4 1_555 1_555
C2_4 C1_4 1_555 1_555
C5_4 N1_4 1_555 1_555
H7_4 C5_4 1_555 1_555
C13_4 C15_4 1_555 1_555
C14_4 C17_4 1_555 1_555
C15_4 C16_4 1_555 1_555
C16_4 H13_4 1_555 1_555
C17_4 C16_4 1_555 1_555
C18_4 C17_4 1_555 1_555
H14_4 C18_4 1_555 1_555
C19_4 C18_4 1_555 1_555
H15_3 C19_4 1_555 1_555
C20_4 C15_4 1_555 1_555
H16_4 C20_4 1_555 1_555
C19_4 C20_4 1_555 1_555
O5_4 C6_4 1_555 1_555
H6_4 C3_4 1_555 1_555
C4_4 C3_4 1_555 1_555
C4_4 C6_4 1_555 1_555

#END
