
###############################################################################
#
# This file contains modified crystal structure data generated from the
# MOF subset of the Cambridge Structural Database (CSD) v543 
# hosted by the Cambridge Crystallographic Data Centre (CCDC).
#
# This work is licensed under the Creative Commons
# Attribution-NonCommercial-ShareAlike 4.0 International License.
# To view a copy of this license, visit
# http://creativecommons.org/licenses/by-nc-sa/4.0/
# or send a letter to
# Creative Commons, PO Box 1866, Mountain View, CA 94042, USA.
#
# CIF created using the CSD Python API on 29 September 2022
# The structure has been converted into the P1 space group
# The structure has a 3D framework
# The original CSD entry TUBLIN is in the triclinic crystal system
# The framework has been calculated to contain at least 10.0% void space
# The void calculation uses a probe of radius 1.32A, grid spacing 0.4
#
###############################################################################

data_TUBLIN
_chemical_formula_moiety         '(C64 H48 Cd2 N4 O10)n'
_symmetry_cell_setting           triclinic
_symmetry_space_group_name_H-M   'P 1'
_symmetry_Int_Tables_number      1
_space_group_name_Hall           'P 1'
loop_
_symmetry_equiv_pos_site_id
_symmetry_equiv_pos_as_xyz
1 x,y,z
_cell_length_a                   10.128(6)
_cell_length_b                   12.648(7)
_cell_length_c                   15.467(9)
_cell_angle_alpha                106.916(8)
_cell_angle_beta                 104.122(9)
_cell_angle_gamma                104.247(8)
_cell_volume                     1727.6
loop_
_atom_site_label
_atom_site_type_symbol
_atom_site_fract_x
_atom_site_fract_y
_atom_site_fract_z
_atom_site_U_iso_or_equiv
_atom_site_thermal_displace_type
N4 N 0.3538(6) 0.7639(5) 0.7833(4) 0.0371 Uani
C42 C 0.1451(8) 0.5911(7) 0.7371(6) 0.0381 Uani
C47 C 0.2172(7) 0.7124(6) 0.7757(5) 0.0356 Uani
H31 H 0.1667 0.7607 0.7975 0.0430 Uiso
C53 C 0.4261(8) 0.6945(7) 0.7534(6) 0.0532 Uani
H36 H 0.5218 0.7287 0.7591 0.0640 Uiso
C55 C 0.2219(9) 0.5215(8) 0.7049(7) 0.0566 Uani
H38 H 0.1778 0.4401 0.6773 0.0680 Uiso
H40 H 0.0148 0.3888 0.7457 0.0600 Uiso
C60 C 0.3636(9) 0.5722(8) 0.7137(8) 0.0670 Uani
H44 H 0.4169 0.5257 0.6935 0.0800 Uiso
Cd7 Cd 0.46893(6) 0.96648(5) 0.85346(4) 0.0304 Uani
N1 N 0.3539(6) 0.8495(5) 0.0731(4) 0.0314 Uani
H1 H 0.0689 0.8395 0.2059 0.0450 Uiso
C10 C 0.3713(8) 0.7572(7) 0.0157(5) 0.0395 Uani
H4 H 0.4595 0.7659 0.0055 0.0470 Uiso
C12 C 0.1115(8) 0.7307(6) 0.0473(5) 0.0346 Uani
C18 C 0.2271(8) 0.8361(6) 0.0889(5) 0.0362 Uani
H9 H 0.2162 0.9010 0.1300 0.0440 Uiso
O9 O 0.3999(6) 0.9954(4) 0.7114(3) 0.0424 Uani
O10 O 0.5937(6) 0.9412(4) 0.7245(4) 0.0421 Uani
C37 C 0.3795(8) 0.9959(7) 0.5272(6) 0.0450 Uani
H27 H 0.2979 0.9935 0.5451 0.0550 Uiso
C38 C 0.4984(9) 0.9860(6) 0.5861(5) 0.0386 Uani
C39 C 0.4997(9) 0.9739(6) 0.6805(5) 0.0402 Uani
C40 C 0.6197(9) 0.9907(7) 0.5588(6) 0.0468 Uani
H28 H 0.7009 0.9848 0.5982 0.0560 Uiso
O1 O 0.2676(5) 0.9792(5) 0.8817(4) 0.0481 Uani
C6 C 0.0028(8) 0.9409(7) 0.9116(5) 0.0402 Uani
H3 H 0.0042 0.8997 0.8515 0.0480 Uiso
C20 C 0.2622(9) 0.6475(7) 0.9702(5) 0.0434 Uani
H11 H 0.2758 0.5841 0.9293 0.0520 Uiso
C26 C 0.1326(8) 0.6357(7) 0.9878(6) 0.0432 Uani
H17 H 0.0588 0.5629 0.9592 0.0520 Uiso
H13 H 0.6299 0.5769 0.9841 0.0590 Uiso
H15 H 0.8371 0.5988 0.9441 0.0600 Uiso
O8 O 0.6100(5) 0.9173(4) 0.9628(4) 0.0404 Uani
C36 C 0.8728(8) 0.9256(7) 0.9275(5) 0.0405 Uani
H26 H 0.7872 0.8757 0.8777 0.0480 Uiso
Cd1 Cd 0.53107(6) 0.03352(5) 0.14654(4) 0.0304 Uani
O2 O 0.6001(6) 0.0046(4) 0.2886(3) 0.0424 Uani
O3 O 0.4063(6) 0.0588(4) 0.2755(4) 0.0421 Uani
O4 O 0.3900(5) 0.0827(4) 0.0372(4) 0.0404 Uani
C5 C 0.6205(8) 0.0041(7) 0.4728(6) 0.0450 Uani
H2 H 0.7021 0.0065 0.4549 0.0550 Uiso
C8 C 0.5016(9) 0.0140(6) 0.4139(5) 0.0386 Uani
C9 C 0.5003(9) 0.0261(6) 0.3195(5) 0.0402 Uani
C17 C 0.3803(9) 0.0093(7) 0.4412(6) 0.0468 Uani
H8 H 0.2991 0.0152 0.4018 0.0560 Uiso
C19 C 0.1272(8) 0.0744(7) 0.0725(5) 0.0405 Uani
H10 H 0.2128 0.1243 0.1223 0.0480 Uiso
H37 H 0.3701 0.4231 0.0159 0.0590 Uiso
H39 H 0.1629 0.4012 0.0559 0.0600 Uiso
O14 O 0.7324(5) 0.0208(5) 0.1183(4) 0.0481 Uani
N5 N 0.6462(6) 0.2361(5) 0.2167(4) 0.0371 Uani
C35 C 0.9972(8) 0.0591(7) 0.0884(5) 0.0402 Uani
H25 H 0.9958 0.1003 0.1485 0.0480 Uiso
C52 C 0.7378(9) 0.3525(7) 0.0298(5) 0.0434 Uani
H35 H 0.7242 0.4159 0.0707 0.0520 Uiso
C58 C 0.8674(8) 0.3643(7) 0.0122(6) 0.0432 Uani
H41 H 0.9412 0.4371 0.0408 0.0520 Uiso
N3 N 0.6461(6) 0.1505(5) 0.9269(4) 0.0314 Uani
H29 H 0.9311 0.1605 0.7941 0.0450 Uiso
C44 C 0.6287(8) 0.2428(7) 0.9843(5) 0.0395 Uani
H30 H 0.5405 0.2341 0.9945 0.0470 Uiso
C46 C 0.8885(8) 0.2693(6) 0.9527(5) 0.0346 Uani
C51 C 0.7729(8) 0.1639(6) 0.9111(5) 0.0362 Uani
H34 H 0.7838 0.0990 0.8700 0.0440 Uiso
C4 C 0.8549(8) 0.4089(7) 0.2629(6) 0.0381 Uani
C13 C 0.7828(7) 0.2876(6) 0.2243(5) 0.0356 Uani
H5 H 0.8333 0.2393 0.2025 0.0430 Uiso
C21 C 0.5739(8) 0.3055(7) 0.2466(6) 0.0532 Uani
H12 H 0.4782 0.2713 0.2409 0.0640 Uiso
C23 C 0.7781(9) 0.4785(8) 0.2951(7) 0.0566 Uani
H14 H 0.8222 0.5599 0.3227 0.0680 Uiso
H16 H 0.9852 0.6112 0.2543 0.0600 Uiso
C28 C 0.6364(9) 0.4278(8) 0.2863(8) 0.0670 Uani
H20 H 0.5831 0.4743 0.3065 0.0800 Uiso
C2 C 0.1314(7) 0.0166(6) 0.9836(5) 0.0301 Uani
C3 C 0.2741(8) 0.0290(7) 0.9670(6) 0.0349 Uani
O11 O 0.3994(5) 0.3343(5) 0.8585(4) 0.0490 Uani
O12 O 0.5871(5) 0.4086(4) 0.7535(4) 0.0438 Uani
C41 C 0.0192(8) 0.2148(6) 0.8386(5) 0.0373 Uani
C43 C 0.2722(8) 0.3098(7) 0.8773(6) 0.0415 Uani
C45 C 0.9947(8) 0.5391(6) 0.7355(6) 0.0400 Uani
C48 C 0.0234(8) 0.2787(7) 0.9286(6) 0.0379 Uani
C49 C 0.1410(8) 0.2282(6) 0.8117(6) 0.0382 Uani
H32 H 0.1349 0.1831 0.7505 0.0460 Uiso
C50 C 0.8980(8) 0.5997(7) 0.7334(6) 0.0435 Uani
H33 H 0.9248 0.6730 0.7286 0.0520 Uiso
C54 C 0.2812(8) 0.3720(7) 0.9703(6) 0.0489 Uani
C56 C 0.1570(9) 0.3574(7) 0.9944(6) 0.0496 Uani
C57 C 0.9514(8) 0.4309(7) 0.7432(6) 0.0497 Uani
C59 C 0.5414(8) 0.2949(6) 0.7584(6) 0.0428 Uani
H42 H 0.5423 0.2363 0.7020 0.0510 Uiso
H43 H 0.6079 0.2935 0.8147 0.0510 Uiso
C61 C 0.7212(8) 0.4452(6) 0.7461(5) 0.0372 Uani
C62 C 0.3929(8) 0.2667(7) 0.7636(6) 0.0479 Uani
H45 H 0.3522 0.1834 0.7502 0.0580 Uiso
H46 H 0.3312 0.2854 0.7159 0.0580 Uiso
C63 C 0.7637(8) 0.5542(6) 0.7384(6) 0.0427 Uani
H47 H 0.7007 0.5966 0.7367 0.0510 Uiso
C64 C 0.8158(9) 0.3840(7) 0.7474(6) 0.0475 Uani
H48 H 0.7884 0.3101 0.7512 0.0560 Uiso
O5 O 0.6006(5) 0.6657(5) 0.1415(4) 0.0490 Uani
O6 O 0.4129(5) 0.5914(4) 0.2465(4) 0.0438 Uani
C1 C 0.9808(8) 0.7852(6) 0.1614(5) 0.0373 Uani
C7 C 0.7278(8) 0.6902(7) 0.1227(6) 0.0415 Uani
C11 C 0.0053(8) 0.4609(6) 0.2645(6) 0.0400 Uani
C14 C 0.9766(8) 0.7213(7) 0.0714(6) 0.0379 Uani
C15 C 0.8590(8) 0.7718(6) 0.1883(6) 0.0382 Uani
H6 H 0.8651 0.8169 0.2495 0.0460 Uiso
C16 C 0.1020(8) 0.4003(7) 0.2666(6) 0.0435 Uani
H7 H 0.0752 0.3270 0.2714 0.0520 Uiso
C22 C 0.7188(8) 0.6280(7) 0.0297(6) 0.0489 Uani
C24 C 0.8430(9) 0.6426(7) 0.0056(6) 0.0496 Uani
C25 C 0.0486(8) 0.5691(7) 0.2568(6) 0.0497 Uani
C27 C 0.4586(8) 0.7051(6) 0.2416(6) 0.0428 Uani
H18 H 0.4577 0.7637 0.2980 0.0510 Uiso
H19 H 0.3921 0.7065 0.1853 0.0510 Uiso
C29 C 0.2788(8) 0.5548(6) 0.2539(5) 0.0372 Uani
C30 C 0.6071(8) 0.7333(7) 0.2364(6) 0.0479 Uani
H21 H 0.6478 0.8166 0.2498 0.0580 Uiso
H22 H 0.6688 0.7146 0.2841 0.0580 Uiso
C31 C 0.2363(8) 0.4458(6) 0.2616(6) 0.0427 Uani
H23 H 0.2993 0.4034 0.2633 0.0510 Uiso
C32 C 0.1842(9) 0.6160(7) 0.2526(6) 0.0475 Uani
H24 H 0.2116 0.6899 0.2488 0.0560 Uiso
C33 C 0.8686(7) 0.9834(6) 0.0164(5) 0.0301 Uani
C34 C 0.7259(8) 0.9710(7) 0.0330(6) 0.0349 Uani
loop_
_atom_site_aniso_label
_atom_site_aniso_U_11
_atom_site_aniso_U_22
_atom_site_aniso_U_33
_atom_site_aniso_U_23
_atom_site_aniso_U_13
_atom_site_aniso_U_12
N4 0.029 0.037 0.049 0.02 0.02 0.006
C42 0.024 0.043 0.054 0.024 0.019 0.01
C47 0.028 0.039 0.05 0.024 0.019 0.014
C53 0.028 0.052 0.091 0.03 0.034 0.015
C55 0.043 0.04 0.09 0.021 0.035 0.011
C60 0.044 0.041 0.119 0.021 0.038 0.02
Cd7 0.0232 0.0379 0.0366 0.02 0.0166 0.0074
N1 0.026 0.033 0.041 0.02 0.017 0.007
C10 0.037 0.049 0.048 0.029 0.025 0.017
C12 0.034 0.037 0.041 0.021 0.019 0.012
C18 0.033 0.036 0.05 0.023 0.019 0.016
O9 0.046 0.054 0.044 0.027 0.029 0.021
O10 0.042 0.053 0.044 0.028 0.022 0.018
C37 0.04 0.058 0.053 0.035 0.027 0.015
C38 0.053 0.04 0.037 0.02 0.026 0.022
C39 0.047 0.031 0.036 0.013 0.013 0.003
C40 0.047 0.06 0.056 0.037 0.029 0.026
O1 0.033 0.057 0.061 0.021 0.029 0.015
C6 0.033 0.052 0.038 0.01 0.023 0.016
C20 0.058 0.036 0.047 0.018 0.032 0.017
C26 0.04 0.036 0.058 0.025 0.026 0.002
O8 0.024 0.05 0.052 0.031 0.012 0.007
C36 0.024 0.051 0.045 0.017 0.014 0.009
Cd1 0.0232 0.0379 0.0366 0.02 0.0166 0.0074
O2 0.046 0.054 0.044 0.027 0.029 0.021
O3 0.042 0.053 0.044 0.028 0.022 0.018
O4 0.024 0.05 0.052 0.031 0.012 0.007
C5 0.04 0.058 0.053 0.035 0.027 0.015
C8 0.053 0.04 0.037 0.02 0.026 0.022
C9 0.047 0.031 0.036 0.013 0.013 0.003
C17 0.047 0.06 0.056 0.037 0.029 0.026
C19 0.024 0.051 0.045 0.017 0.014 0.009
O14 0.033 0.057 0.061 0.021 0.029 0.015
N5 0.029 0.037 0.049 0.02 0.02 0.006
C35 0.033 0.052 0.038 0.01 0.023 0.016
C52 0.058 0.036 0.047 0.018 0.032 0.017
C58 0.04 0.036 0.058 0.025 0.026 0.002
N3 0.026 0.033 0.041 0.02 0.017 0.007
C44 0.037 0.049 0.048 0.029 0.025 0.017
C46 0.034 0.037 0.041 0.021 0.019 0.012
C51 0.033 0.036 0.05 0.023 0.019 0.016
C4 0.024 0.043 0.054 0.024 0.019 0.01
C13 0.028 0.039 0.05 0.024 0.019 0.014
C21 0.028 0.052 0.091 0.03 0.034 0.015
C23 0.043 0.04 0.09 0.021 0.035 0.011
C28 0.044 0.041 0.119 0.021 0.038 0.02
C2 0.025 0.041 0.03 0.016 0.012 0.015
C3 0.034 0.041 0.053 0.033 0.028 0.02
O11 0.031 0.048 0.074 0.024 0.03 0.01
O12 0.028 0.042 0.075 0.032 0.027 0.013
C41 0.026 0.032 0.047 0.012 0.013 0.001
C43 0.034 0.034 0.063 0.025 0.023 0.008
C45 0.031 0.039 0.056 0.021 0.021 0.012
C48 0.03 0.036 0.052 0.025 0.018 0.004
C49 0.033 0.033 0.046 0.016 0.015 0.004
C50 0.033 0.034 0.073 0.026 0.025 0.013
C54 0.029 0.045 0.064 0.018 0.015 0.002
C56 0.045 0.055 0.052 0.021 0.023 0.015
C57 0.04 0.037 0.086 0.032 0.032 0.015
C59 0.036 0.035 0.072 0.03 0.027 0.016
C61 0.029 0.037 0.049 0.018 0.021 0.007
C62 0.036 0.046 0.074 0.03 0.028 0.016
C63 0.03 0.034 0.075 0.028 0.024 0.014
C64 0.048 0.037 0.076 0.03 0.038 0.018
O5 0.031 0.048 0.074 0.024 0.03 0.01
O6 0.028 0.042 0.075 0.032 0.027 0.013
C1 0.026 0.032 0.047 0.012 0.013 0.001
C7 0.034 0.034 0.063 0.025 0.023 0.008
C11 0.031 0.039 0.056 0.021 0.021 0.012
C14 0.03 0.036 0.052 0.025 0.018 0.004
C15 0.033 0.033 0.046 0.016 0.015 0.004
C16 0.033 0.034 0.073 0.026 0.025 0.013
C22 0.029 0.045 0.064 0.018 0.015 0.002
C24 0.045 0.055 0.052 0.021 0.023 0.015
C25 0.04 0.037 0.086 0.032 0.032 0.015
C27 0.036 0.035 0.072 0.03 0.027 0.016
C29 0.029 0.037 0.049 0.018 0.021 0.007
C30 0.036 0.046 0.074 0.03 0.028 0.016
C31 0.03 0.034 0.075 0.028 0.024 0.014
C32 0.048 0.037 0.076 0.03 0.038 0.018
C33 0.025 0.041 0.03 0.016 0.012 0.015
C34 0.034 0.041 0.053 0.033 0.028 0.02
loop_
_geom_bond_atom_site_label_1
_geom_bond_atom_site_label_2
_geom_bond_site_symmetry_1
_geom_bond_site_symmetry_2
N4 C47 1_555 1_555
C47 C42 1_555 1_555
H31 C47 1_555 1_555
C53 N4 1_555 1_555
H36 C53 1_555 1_555
C55 C42 1_555 1_555
H38 C55 1_555 1_555
C60 C53 1_555 1_555
H44 C60 1_555 1_555
Cd7 N4 1_555 1_555
C55 C60 1_555 1_555
C10 N1 1_555 1_555
H4 C10 1_555 1_555
C18 N1 1_555 1_555
H9 C18 1_555 1_555
O9 C39 1_555 1_555
O10 C39 1_555 1_555
H27 C37 1_555 1_555
C38 C37 1_555 1_555
C39 C38 1_555 1_555
H28 C40 1_555 1_555
Cd7 O9 1_555 1_555
C12 C18 1_555 1_555
O10 Cd7 1_555 1_555
C38 C40 1_555 1_555
H3 C6 1_555 1_555
H11 C20 1_555 1_555
H17 C26 1_555 1_555
Cd7 O1 1_555 1_555
C20 C26 1_555 1_555
H26 C36 1_555 1_555
Cd7 O8 1_555 1_555
Cd1 O2 1_555 1_555
O2 C9 1_555 1_555
O3 Cd1 1_555 1_555
O4 Cd1 1_555 1_555
C5 H2 1_555 1_555
C8 C5 1_555 1_555
C9 O3 1_555 1_555
C17 C8 1_555 1_555
H8 C17 1_555 1_555
H10 C19 1_555 1_555
O14 Cd1 1_555 1_555
N5 Cd1 1_555 1_555
C8 C9 1_555 1_555
H25 C35 1_555 1_555
H35 C52 1_555 1_555
H41 C58 1_555 1_555
C52 C58 1_555 1_555
C44 N3 1_555 1_555
H30 C44 1_555 1_555
C51 N3 1_555 1_555
H34 C51 1_555 1_555
C46 C51 1_555 1_555
N5 C13 1_555 1_555
C13 C4 1_555 1_555
H5 C13 1_555 1_555
C21 N5 1_555 1_555
H12 C21 1_555 1_555
C23 C4 1_555 1_555
H14 C23 1_555 1_555
C28 C21 1_555 1_555
H20 C28 1_555 1_555
C23 C28 1_555 1_555
C2 C3 1_555 1_555
O11 C43 1_555 1_555
O12 C59 1_555 1_555
C43 C49 1_555 1_555
C45 C50 1_555 1_555
C48 C41 1_555 1_555
C49 C41 1_555 1_555
H32 C49 1_555 1_555
C50 H33 1_555 1_555
C54 C43 1_555 1_555
C56 C48 1_555 1_555
C57 C45 1_555 1_555
C59 H42 1_555 1_555
H43 C59 1_555 1_555
C61 O12 1_555 1_555
C62 O11 1_555 1_555
H45 C62 1_555 1_555
H46 C62 1_555 1_555
C63 C50 1_555 1_555
H47 C63 1_555 1_555
C64 C57 1_555 1_555
H48 C64 1_555 1_555
C54 C56 1_555 1_555
C59 C62 1_555 1_555
C61 C63 1_555 1_555
C61 C64 1_555 1_555
O5 C7 1_555 1_555
O6 C27 1_555 1_555
C7 C15 1_555 1_555
C11 C16 1_555 1_555
C14 C1 1_555 1_555
C15 C1 1_555 1_555
H6 C15 1_555 1_555
C16 H7 1_555 1_555
C22 C7 1_555 1_555
C24 C14 1_555 1_555
C25 C11 1_555 1_555
C27 H18 1_555 1_555
H19 C27 1_555 1_555
C29 O6 1_555 1_555
C30 O5 1_555 1_555
H21 C30 1_555 1_555
H22 C30 1_555 1_555
C31 C16 1_555 1_555
H23 C31 1_555 1_555
C32 C25 1_555 1_555
H24 C32 1_555 1_555
C33 C34 1_555 1_555
C22 C24 1_555 1_555
C27 C30 1_555 1_555
C29 C31 1_555 1_555
C29 C32 1_555 1_555

#END
