
###############################################################################
#
# This file contains modified crystal structure data generated from the
# MOF subset of the Cambridge Structural Database (CSD) v543 
# hosted by the Cambridge Crystallographic Data Centre (CCDC).
#
# This work is licensed under the Creative Commons
# Attribution-NonCommercial-ShareAlike 4.0 International License.
# To view a copy of this license, visit
# http://creativecommons.org/licenses/by-nc-sa/4.0/
# or send a letter to
# Creative Commons, PO Box 1866, Mountain View, CA 94042, USA.
#
# CIF created using the CSD Python API on 29 September 2022
# The structure has been converted into the P1 space group
# The structure has a 3D framework
# The original CSD entry TUCHEH is in the monoclinic crystal system
# The framework has been calculated to contain at least 10.0% void space
# The void calculation uses a probe of radius 1.32A, grid spacing 0.4
#
###############################################################################

data_TUCHEH
_chemical_formula_moiety         '(C264 H168 Cd8 N40 O32)n'
_symmetry_cell_setting           triclinic
_symmetry_space_group_name_H-M   'P 1'
_symmetry_Int_Tables_number      1
_space_group_name_Hall           'P 1'
loop_
_symmetry_equiv_pos_site_id
_symmetry_equiv_pos_as_xyz
1 x,y,z
_cell_length_a                   18.1967(19)
_cell_length_b                   13.6015(14)
_cell_length_c                   25.186(3)
_cell_angle_alpha                90
_cell_angle_beta                 98.1080(10)
_cell_angle_gamma                90
_cell_volume                     6171.28
loop_
_atom_site_label
_atom_site_type_symbol
_atom_site_fract_x
_atom_site_fract_y
_atom_site_fract_z
C16 C 0.18403(17) 0.6531(2) 0.04154(12)
C17 C 0.24534(18) 0.6303(3) 0.08000(14)
H10 H 0.2618 0.5659 0.0855
C18 C 0.2799(2) 0.7064(3) 0.10896(16)
H11 H 0.3210 0.6934 0.1343
C19 C 0.2550(2) 0.8030(3) 0.10141(18)
H12 H 0.2797 0.8527 0.1221
C20 C 0.1948(2) 0.8270(3) 0.06409(17)
H13 H 0.1781 0.8914 0.0593
C21 C 0.16023(17) 0.7501(3) 0.03401(13)
N4 N 0.13825(15) 0.5915(2) 0.00783(11)
O5 O 0.24110(16) 0.3934(3) 0.06134(10)
O6 O 0.13469(15) 0.3601(2) 0.08820(10)
C2 C 0.97748(17) 0.3216(3) 0.88300(11)
C3 C 0.98555(19) 0.2275(3) 0.86388(13)
C4 C 0.93693(19) 0.1921(3) 0.82083(13)
H2 H 0.9436 0.1294 0.8076
C5 C 0.87786(17) 0.2504(3) 0.79721(12)
C6 C 0.86802(19) 0.3425(3) 0.81871(12)
H3 H 0.8274 0.3805 0.8047
C7 C 0.91778(18) 0.3788(3) 0.86068(13)
H4 H 0.9113 0.4415 0.8740
C8 C 0.82997(18) 0.2171(3) 0.74726(12)
C9 C 0.8629(2) 0.1730(4) 0.70748(14)
H5 H 0.9138 0.1611 0.7131
C10 C 0.8217(2) 0.1460(4) 0.65915(14)
H6 H 0.8453 0.1177 0.6325
C11 C 0.74586(19) 0.1608(3) 0.65036(12)
C12 C 0.71256(19) 0.2022(3) 0.69066(13)
H7 H 0.6614 0.2112 0.6858
C13 C 0.75451(19) 0.2308(3) 0.73866(13)
H8 H 0.7311 0.2596 0.7653
C14 C 0.7030(2) 0.1347(3) 0.59719(14)
C23 C 0.97805(18) 0.8185(2) 0.95906(13)
H14 H 0.9532 0.7609 0.9653
C24 C 0.94101(18) 0.9000(3) 0.93716(14)
C25 C 0.9796(2) 0.9841(3) 0.92697(16)
C27 C 0.81458(17) 0.8879(3) 0.96249(13)
H17 H 0.8297 0.8688 0.9978
C28 C 0.8184(2) 0.9295(2) 0.87796(14)
C29 C 0.8370(2) 0.9535(3) 0.82862(15)
H18 H 0.8858 0.9518 0.8215
C30 C 0.7777(3) 0.9808(3) 0.78961(15)
H19 H 0.7873 0.9992 0.7557
C31 C 0.7057(3) 0.9811(3) 0.80033(15)
H20 H 0.6679 0.9988 0.7732
C32 C 0.6876(2) 0.9559(3) 0.84994(14)
H21 H 0.6386 0.9558 0.8567
C33 C 0.7461(2) 0.9306(2) 0.88932(13)
N1 N 0.86184(15) 0.9008(2) 0.92619(11)
N2 N 0.74496(15) 0.9052(2) 0.94272(11)
O3 O 0.74110(16) 0.1066(3) 0.56134(10)
O4 O 0.63469(15) 0.1399(2) 0.58820(10)
Cd2 Cd 0.650515(11) 0.926410(16) 0.994814(8)
Cd3 Cd 0.650515(11) 0.073590(16) 0.494814(8)
O5_2 O 0.74110(16) 0.8934(3) 0.06134(10)
O6_2 O 0.63469(15) 0.8601(2) 0.08820(10)
C1 C 0.53562(18) 0.8625(3) 0.92539(12)
C2_2 C 0.47748(17) 0.8216(3) 0.88300(11)
C3_2 C 0.48555(19) 0.7275(3) 0.86388(13)
H1 H 0.5239 0.6877 0.8800
C4_2 C 0.43693(19) 0.6921(3) 0.82083(13)
H2_2 H 0.4436 0.6294 0.8076
C5_2 C 0.37786(17) 0.7504(3) 0.79721(12)
C6_2 C 0.36802(19) 0.8425(3) 0.81871(12)
H3_2 H 0.3274 0.8805 0.8047
C7_2 C 0.41778(18) 0.8788(3) 0.86068(13)
H4_2 H 0.4113 0.9415 0.8740
C8_2 C 0.32997(18) 0.7171(3) 0.74726(12)
C9_2 C 0.3629(2) 0.6730(4) 0.70748(14)
H5_2 H 0.4138 0.6611 0.7131
C10_2 C 0.3217(2) 0.6460(4) 0.65915(14)
H6_2 H 0.3453 0.6177 0.6325
C11_2 C 0.24586(19) 0.6608(3) 0.65036(12)
C12_2 C 0.21256(19) 0.7022(3) 0.69066(13)
H7_2 H 0.1614 0.7112 0.6858
C13_2 C 0.25451(19) 0.7308(3) 0.73866(13)
H8_2 H 0.2311 0.7596 0.7653
C14_2 C 0.2030(2) 0.6347(3) 0.59719(14)
O1 O 0.57836(14) 0.8044(2) 0.95334(9)
O2 O 0.54135(16) 0.9529(2) 0.93075(13)
O3_2 O 0.24110(16) 0.6066(3) 0.56134(10)
O4_2 O 0.13469(15) 0.6399(2) 0.58820(10)
Cd3_2 Cd 0.150515(11) 0.573590(16) 0.494814(8)
C1_2 C 0.03562(18) 0.6375(3) 0.42539(12)
H1_2 H 0.0239 0.8123 0.3800
C15 C 0.08829(17) 0.3508(2) 0.48116(13)
H9 H 0.0502 0.3733 0.4556
C16_2 C 0.18403(17) 0.3469(2) 0.54154(12)
C17_2 C 0.24534(18) 0.3697(3) 0.58000(14)
H10_2 H 0.2618 0.4341 0.5855
C18_2 C 0.2799(2) 0.2936(3) 0.60896(16)
H11_2 H 0.3210 0.3066 0.6343
C19_2 C 0.2550(2) 0.1970(3) 0.60141(18)
H12_2 H 0.2797 0.1473 0.6221
C20_2 C 0.1948(2) 0.1730(3) 0.56409(17)
H13_2 H 0.1781 0.1086 0.5593
C21_2 C 0.16023(17) 0.2499(3) 0.53401(13)
C22 C 0.05455(18) 0.1735(2) 0.47139(14)
C26 C 0.0890(2) 0.0871(3) 0.45989(18)
H16 H 0.1404 0.0834 0.4681
N3 N 0.09821(14) 0.25437(19) 0.49498(11)
N4_2 N 0.13825(15) 0.4085(2) 0.50783(11)
N5 N 0.05289(18) 0.0089(2) 0.43774(16)
O1_2 O 0.07836(14) 0.6956(2) 0.45334(9)
O2_2 O 0.04135(16) 0.5471(2) 0.43075(13)
N6 N 0.24496(15) 0.5948(2) 0.44272(11)
C2_3 C 0.97748(17) 0.6784(3) 0.38300(11)
C3_3 C 0.98555(19) 0.7725(3) 0.36388(13)
C4_3 C 0.93693(19) 0.8079(3) 0.32083(13)
H2_3 H 0.9436 0.8706 0.3076
C5_3 C 0.87786(17) 0.7496(3) 0.29721(12)
C6_3 C 0.86802(19) 0.6575(3) 0.31871(12)
H3_3 H 0.8274 0.6195 0.3047
C7_3 C 0.91778(18) 0.6212(3) 0.36068(13)
H4_3 H 0.9113 0.5585 0.3740
C8_3 C 0.82997(18) 0.7829(3) 0.24726(12)
C9_3 C 0.8629(2) 0.8270(4) 0.20748(14)
H5_3 H 0.9138 0.8389 0.2131
C10_3 C 0.8217(2) 0.8540(4) 0.15915(14)
H6_3 H 0.8453 0.8823 0.1325
C11_3 C 0.74586(19) 0.8392(3) 0.15036(12)
C12_3 C 0.71256(19) 0.7978(3) 0.19066(13)
H7_3 H 0.6614 0.7888 0.1858
C13_3 C 0.75451(19) 0.7692(3) 0.23866(13)
H8_3 H 0.7311 0.7404 0.2653
C14_3 C 0.7030(2) 0.8653(3) 0.09719(14)
C23_2 C 0.97805(18) 0.1815(2) 0.45906(13)
H14_2 H 0.9532 0.2391 0.4653
C24_2 C 0.94101(18) 0.1000(3) 0.43716(14)
C25_2 C 0.9796(2) 0.0159(3) 0.42697(16)
C27_2 C 0.81458(17) 0.1121(3) 0.46249(13)
H17_2 H 0.8297 0.1312 0.4978
C28_2 C 0.8184(2) 0.0705(2) 0.37796(14)
C29_2 C 0.8370(2) 0.0465(3) 0.32862(15)
H18_2 H 0.8858 0.0482 0.3215
C30_2 C 0.7777(3) 0.0192(3) 0.28961(15)
H19_2 H 0.7873 0.0008 0.2557
C31_2 C 0.7057(3) 0.0189(3) 0.30033(15)
H20_2 H 0.6679 0.0012 0.2732
C32_2 C 0.6876(2) 0.0441(3) 0.34994(14)
H21_2 H 0.6386 0.0442 0.3567
C33_2 C 0.7461(2) 0.0694(2) 0.38932(13)
N1_2 N 0.86184(15) 0.0992(2) 0.42619(11)
N2_2 N 0.74496(15) 0.0948(2) 0.44272(11)
C1_3 C 0.53562(18) 0.1375(3) 0.42539(12)
C2_4 C 0.47748(17) 0.1784(3) 0.38300(11)
C3_4 C 0.48555(19) 0.2725(3) 0.36388(13)
H1_3 H 0.5239 0.3123 0.3800
C4_4 C 0.43693(19) 0.3079(3) 0.32083(13)
H2_4 H 0.4436 0.3706 0.3076
C5_4 C 0.37786(17) 0.2496(3) 0.29721(12)
C6_4 C 0.36802(19) 0.1575(3) 0.31871(12)
H3_4 H 0.3274 0.1195 0.3047
C7_4 C 0.41778(18) 0.1212(3) 0.36068(13)
H4_4 H 0.4113 0.0585 0.3740
C8_4 C 0.32997(18) 0.2829(3) 0.24726(12)
C9_4 C 0.3629(2) 0.3270(4) 0.20748(14)
H5_4 H 0.4138 0.3389 0.2131
C10_4 C 0.3217(2) 0.3540(4) 0.15915(14)
H6_4 H 0.3453 0.3823 0.1325
C11_4 C 0.24586(19) 0.3392(3) 0.15036(12)
C12_4 C 0.21256(19) 0.2978(3) 0.19066(13)
H7_4 H 0.1614 0.2888 0.1858
C13_4 C 0.25451(19) 0.2692(3) 0.23866(13)
H8_4 H 0.2311 0.2404 0.2653
C14_4 C 0.2030(2) 0.3653(3) 0.09719(14)
O1_3 O 0.57836(14) 0.1956(2) 0.45334(9)
O2_3 O 0.54135(16) 0.0471(2) 0.43075(13)
C15_2 C 0.58829(17) 0.8508(2) 0.48116(13)
H9_2 H 0.5502 0.8733 0.4556
C16_3 C 0.68403(17) 0.8469(2) 0.54154(12)
C17_3 C 0.74534(18) 0.8697(3) 0.58000(14)
H10_3 H 0.7618 0.9341 0.5855
C18_3 C 0.7799(2) 0.7936(3) 0.60896(16)
H11_3 H 0.8210 0.8066 0.6343
C19_3 C 0.7550(2) 0.6970(3) 0.60141(18)
H12_3 H 0.7797 0.6473 0.6221
C20_3 C 0.6948(2) 0.6730(3) 0.56409(17)
H13_3 H 0.6781 0.6086 0.5593
C21_3 C 0.66023(17) 0.7499(3) 0.53401(13)
C22_2 C 0.55455(18) 0.6735(2) 0.47139(14)
C23_3 C 0.47805(18) 0.6815(2) 0.45906(13)
H14_3 H 0.4532 0.7391 0.4653
C24_3 C 0.44101(18) 0.6000(3) 0.43716(14)
C25_3 C 0.4796(2) 0.5159(3) 0.42697(16)
H15 H 0.4530 0.4619 0.4119
C26_2 C 0.5890(2) 0.5871(3) 0.45989(18)
H16_2 H 0.6404 0.5834 0.4681
C27_3 C 0.31458(17) 0.6121(3) 0.46249(13)
H17_3 H 0.3297 0.6312 0.4978
C28_3 C 0.3184(2) 0.5705(2) 0.37796(14)
C29_3 C 0.3370(2) 0.5465(3) 0.32862(15)
H18_3 H 0.3858 0.5482 0.3215
C30_3 C 0.2777(3) 0.5192(3) 0.28961(15)
H19_3 H 0.2873 0.5008 0.2557
C31_3 C 0.2057(3) 0.5189(3) 0.30033(15)
H20_3 H 0.1679 0.5012 0.2732
C32_3 C 0.1876(2) 0.5441(3) 0.34994(14)
H21_3 H 0.1386 0.5442 0.3567
C33_3 C 0.2461(2) 0.5694(2) 0.38932(13)
N1_3 N 0.36184(15) 0.5992(2) 0.42619(11)
N3_2 N 0.59821(14) 0.75437(19) 0.49498(11)
N4_3 N 0.63825(15) 0.9085(2) 0.50783(11)
N5_2 N 0.55289(18) 0.5089(2) 0.43774(16)
C1_4 C 0.03562(18) 0.3625(3) 0.92539(12)
H1_4 H 0.0239 0.1877 0.8800
C15_3 C 0.08829(17) 0.6492(2) 0.98116(13)
H9_3 H 0.0502 0.6267 0.9556
C22_3 C 0.05455(18) 0.8265(2) 0.97139(14)
C26_3 C 0.0890(2) 0.9129(3) 0.95989(18)
H16_3 H 0.1404 0.9166 0.9681
Cd1 Cd 0.150515(11) 0.426410(16) 0.994814(8)
N3_3 N 0.09821(14) 0.74563(19) 0.99498(11)
N5_3 N 0.05289(18) 0.9911(2) 0.93774(16)
O1_4 O 0.07836(14) 0.3044(2) 0.95334(9)
O2_4 O 0.04135(16) 0.4529(2) 0.93075(13)
N6_2 N 0.24496(15) 0.4052(2) 0.94272(11)
C15_4 C 0.58829(17) 0.1492(2) 0.98116(13)
H9_4 H 0.5502 0.1267 0.9556
C22_4 C 0.55455(18) 0.3265(2) 0.97139(14)
C23_4 C 0.47805(18) 0.3185(2) 0.95906(13)
H14_4 H 0.4532 0.2609 0.9653
C24_4 C 0.44101(18) 0.4000(3) 0.93716(14)
C25_4 C 0.4796(2) 0.4841(3) 0.92697(16)
H15_2 H 0.4530 0.5381 0.9119
C26_4 C 0.5890(2) 0.4129(3) 0.95989(18)
H16_4 H 0.6404 0.4166 0.9681
C27_4 C 0.31458(17) 0.3879(3) 0.96249(13)
H17_4 H 0.3297 0.3688 0.9978
C28_4 C 0.3184(2) 0.4295(2) 0.87796(14)
C29_4 C 0.3370(2) 0.4535(3) 0.82862(15)
H18_4 H 0.3858 0.4518 0.8215
C30_4 C 0.2777(3) 0.4808(3) 0.78961(15)
H19_4 H 0.2873 0.4992 0.7557
C31_4 C 0.2057(3) 0.4811(3) 0.80033(15)
H20_4 H 0.1679 0.4988 0.7732
C32_4 C 0.1876(2) 0.4559(3) 0.84994(14)
H21_4 H 0.1386 0.4558 0.8567
C33_4 C 0.2461(2) 0.4306(2) 0.88932(13)
N1_4 N 0.36184(15) 0.4008(2) 0.92619(11)
N3_4 N 0.59821(14) 0.24563(19) 0.99498(11)
N5_4 N 0.55289(18) 0.4911(2) 0.93774(16)
H15_3 H 0.9530 0.0381 0.9119
H15_4 H 0.0470 0.0381 0.5881
Cd3_3 Cd 0.349485(11) 0.073590(16) 0.005186(8)
C2_5 C 0.02252(17) 0.3216(3) 0.61700(11)
C3_5 C 0.01445(19) 0.2275(3) 0.63612(13)
C4_5 C 0.06307(19) 0.1921(3) 0.67917(13)
H2_5 H 0.0564 0.1294 0.6924
C5_5 C 0.12214(17) 0.2504(3) 0.70279(12)
C6_5 C 0.13198(19) 0.3425(3) 0.68129(12)
H3_5 H 0.1726 0.3805 0.6953
C7_5 C 0.08222(18) 0.3788(3) 0.63932(13)
H4_5 H 0.0887 0.4415 0.6260
C8_5 C 0.17003(18) 0.2171(3) 0.75274(12)
C9_5 C 0.1371(2) 0.1730(4) 0.79252(14)
H5_5 H 0.0862 0.1611 0.7869
C10_5 C 0.1783(2) 0.1460(4) 0.84085(14)
H6_5 H 0.1547 0.1177 0.8675
C11_5 C 0.25414(19) 0.1608(3) 0.84964(12)
C12_5 C 0.28744(19) 0.2022(3) 0.80934(13)
H7_5 H 0.3386 0.2112 0.8142
C13_5 C 0.24549(19) 0.2308(3) 0.76134(13)
H8_5 H 0.2689 0.2596 0.7347
C14_5 C 0.2970(2) 0.1347(3) 0.90281(14)
C23_5 C 0.02195(18) 0.8185(2) 0.54094(13)
H14_5 H 0.0468 0.7609 0.5347
C24_5 C 0.05899(18) 0.9000(3) 0.56284(14)
C25_5 C 0.0204(2) 0.9841(3) 0.57303(16)
C27_5 C 0.18542(17) 0.8879(3) 0.53751(13)
H17_5 H 0.1703 0.8688 0.5022
C28_5 C 0.1816(2) 0.9295(2) 0.62204(14)
C29_5 C 0.1630(2) 0.9535(3) 0.67138(15)
H18_5 H 0.1142 0.9518 0.6785
C30_5 C 0.2223(3) 0.9808(3) 0.71039(15)
H19_5 H 0.2127 0.9992 0.7443
C31_5 C 0.2943(3) 0.9811(3) 0.69967(15)
H20_5 H 0.3321 0.9988 0.7268
C32_5 C 0.3124(2) 0.9559(3) 0.65006(14)
H21_5 H 0.3614 0.9558 0.6433
C33_5 C 0.2539(2) 0.9306(2) 0.61068(13)
N1_5 N 0.13816(15) 0.9008(2) 0.57381(11)
N2_3 N 0.25504(15) 0.9052(2) 0.55728(11)
O3_3 O 0.25890(16) 0.1066(3) 0.93866(10)
O4_3 O 0.36531(15) 0.1399(2) 0.91180(10)
Cd2_2 Cd 0.349485(11) 0.926410(16) 0.505186(8)
C1_5 C 0.96438(18) 0.3625(3) 0.57461(12)
H1_5 H 0.9761 0.1877 0.6200
C15_5 C 0.91171(17) 0.6492(2) 0.51884(13)
H9_5 H 0.9498 0.6267 0.5444
C16_4 C 0.81597(17) 0.6531(2) 0.45846(12)
C17_4 C 0.75466(18) 0.6303(3) 0.42000(14)
H10_4 H 0.7382 0.5659 0.4145
C18_4 C 0.7201(2) 0.7064(3) 0.39104(16)
H11_4 H 0.6790 0.6934 0.3657
C19_4 C 0.7450(2) 0.8030(3) 0.39859(18)
H12_4 H 0.7203 0.8527 0.3779
C20_4 C 0.8052(2) 0.8270(3) 0.43591(17)
H13_4 H 0.8219 0.8914 0.4407
C21_4 C 0.83977(17) 0.7501(3) 0.46599(13)
C22_5 C 0.94545(18) 0.8265(2) 0.52861(14)
C26_5 C 0.9110(2) 0.9129(3) 0.54011(18)
H16_5 H 0.8596 0.9166 0.5319
Cd1_2 Cd 0.849485(11) 0.426410(16) 0.505186(8)
N3_5 N 0.90179(14) 0.74563(19) 0.50502(11)
N4_4 N 0.86175(15) 0.5915(2) 0.49217(11)
N5_5 N 0.94711(18) 0.9911(2) 0.56226(16)
O1_5 O 0.92164(14) 0.3044(2) 0.54666(9)
O2_5 O 0.95865(16) 0.4529(2) 0.56925(13)
N6_3 N 0.75504(15) 0.4052(2) 0.55728(11)
O5_3 O 0.75890(16) 0.3934(3) 0.43866(10)
O6_3 O 0.86531(15) 0.3601(2) 0.41180(10)
C15_6 C 0.41171(17) 0.1492(2) 0.51884(13)
H9_6 H 0.4498 0.1267 0.5444
C16_5 C 0.31597(17) 0.1531(2) 0.45846(12)
C17_5 C 0.25466(18) 0.1303(3) 0.42000(14)
H10_5 H 0.2382 0.0659 0.4145
C18_5 C 0.2201(2) 0.2064(3) 0.39104(16)
H11_5 H 0.1790 0.1934 0.3657
C19_5 C 0.2450(2) 0.3030(3) 0.39859(18)
H12_5 H 0.2203 0.3527 0.3779
C20_5 C 0.3052(2) 0.3270(3) 0.43591(17)
H13_5 H 0.3219 0.3914 0.4407
C21_5 C 0.33977(17) 0.2501(3) 0.46599(13)
C22_6 C 0.44545(18) 0.3265(2) 0.52861(14)
C23_6 C 0.52195(18) 0.3185(2) 0.54094(13)
H14_6 H 0.5468 0.2609 0.5347
C24_6 C 0.55899(18) 0.4000(3) 0.56284(14)
C25_6 C 0.5204(2) 0.4841(3) 0.57303(16)
H15_5 H 0.5470 0.5381 0.5881
C26_6 C 0.4110(2) 0.4129(3) 0.54011(18)
H16_6 H 0.3596 0.4166 0.5319
C27_6 C 0.68542(17) 0.3879(3) 0.53751(13)
H17_6 H 0.6703 0.3688 0.5022
C28_6 C 0.6816(2) 0.4295(2) 0.62204(14)
C29_6 C 0.6630(2) 0.4535(3) 0.67138(15)
H18_6 H 0.6142 0.4518 0.6785
C30_6 C 0.7223(3) 0.4808(3) 0.71039(15)
H19_6 H 0.7127 0.4992 0.7443
C31_6 C 0.7943(3) 0.4811(3) 0.69967(15)
H20_6 H 0.8321 0.4988 0.7268
C32_6 C 0.8124(2) 0.4559(3) 0.65006(14)
H21_6 H 0.8614 0.4558 0.6433
C33_6 C 0.7539(2) 0.4306(2) 0.61068(13)
N1_6 N 0.63816(15) 0.4008(2) 0.57381(11)
N3_6 N 0.40179(14) 0.24563(19) 0.50502(11)
N4_5 N 0.36175(15) 0.0915(2) 0.49217(11)
N5_6 N 0.44711(18) 0.4911(2) 0.56226(16)
C1_6 C 0.46438(18) 0.8625(3) 0.57461(12)
C2_6 C 0.52252(17) 0.8216(3) 0.61700(11)
C3_6 C 0.51445(19) 0.7275(3) 0.63612(13)
H1_6 H 0.4761 0.6877 0.6200
C4_6 C 0.56307(19) 0.6921(3) 0.67917(13)
H2_6 H 0.5564 0.6294 0.6924
C5_6 C 0.62214(17) 0.7504(3) 0.70279(12)
C6_6 C 0.63198(19) 0.8425(3) 0.68129(12)
H3_6 H 0.6726 0.8805 0.6953
C7_6 C 0.58222(18) 0.8788(3) 0.63932(13)
H4_6 H 0.5887 0.9415 0.6260
C8_6 C 0.67003(18) 0.7171(3) 0.75274(12)
C9_6 C 0.6371(2) 0.6730(4) 0.79252(14)
H5_6 H 0.5862 0.6611 0.7869
C10_6 C 0.6783(2) 0.6460(4) 0.84085(14)
H6_6 H 0.6547 0.6177 0.8675
C11_6 C 0.75414(19) 0.6608(3) 0.84964(12)
C12_6 C 0.78744(19) 0.7022(3) 0.80934(13)
H7_6 H 0.8386 0.7112 0.8142
C13_6 C 0.74549(19) 0.7308(3) 0.76134(13)
H8_6 H 0.7689 0.7596 0.7347
C14_6 C 0.7970(2) 0.6347(3) 0.90281(14)
O1_6 O 0.42164(14) 0.8044(2) 0.54666(9)
O2_6 O 0.45865(16) 0.9529(2) 0.56925(13)
O3_4 O 0.75890(16) 0.6066(3) 0.93866(10)
O4_4 O 0.86531(15) 0.6399(2) 0.91180(10)
O5_4 O 0.25890(16) 0.8934(3) 0.43866(10)
O6_4 O 0.36531(15) 0.8601(2) 0.41180(10)
C2_7 C 0.02252(17) 0.6784(3) 0.11700(11)
C3_7 C 0.01445(19) 0.7725(3) 0.13612(13)
C4_7 C 0.06307(19) 0.8079(3) 0.17917(13)
H2_7 H 0.0564 0.8706 0.1924
C5_7 C 0.12214(17) 0.7496(3) 0.20279(12)
C6_7 C 0.13198(19) 0.6575(3) 0.18129(12)
H3_7 H 0.1726 0.6195 0.1953
C7_7 C 0.08222(18) 0.6212(3) 0.13932(13)
H4_7 H 0.0887 0.5585 0.1260
C8_7 C 0.17003(18) 0.7829(3) 0.25274(12)
C9_7 C 0.1371(2) 0.8270(4) 0.29252(14)
H5_7 H 0.0862 0.8389 0.2869
C10_7 C 0.1783(2) 0.8540(4) 0.34085(14)
H6_7 H 0.1547 0.8823 0.3675
C11_7 C 0.25414(19) 0.8392(3) 0.34964(12)
C12_7 C 0.28744(19) 0.7978(3) 0.30934(13)
H7_7 H 0.3386 0.7888 0.3142
C13_7 C 0.24549(19) 0.7692(3) 0.26134(13)
H8_7 H 0.2689 0.7404 0.2347
C14_7 C 0.2970(2) 0.8653(3) 0.40281(14)
C23_7 C 0.02195(18) 0.1815(2) 0.04094(13)
H14_7 H 0.0468 0.2391 0.0347
C24_7 C 0.05899(18) 0.1000(3) 0.06284(14)
C25_7 C 0.0204(2) 0.0159(3) 0.07303(16)
C27_7 C 0.18542(17) 0.1121(3) 0.03751(13)
H17_7 H 0.1703 0.1312 0.0022
C28_7 C 0.1816(2) 0.0705(2) 0.12204(14)
C29_7 C 0.1630(2) 0.0465(3) 0.17138(15)
H18_7 H 0.1142 0.0482 0.1785
C30_7 C 0.2223(3) 0.0192(3) 0.21039(15)
H19_7 H 0.2127 0.0008 0.2443
C31_7 C 0.2943(3) 0.0189(3) 0.19967(15)
H20_7 H 0.3321 0.0012 0.2268
C32_7 C 0.3124(2) 0.0441(3) 0.15006(14)
H21_7 H 0.3614 0.0442 0.1433
C33_7 C 0.2539(2) 0.0694(2) 0.11068(13)
N1_7 N 0.13816(15) 0.0992(2) 0.07381(11)
N2_4 N 0.25504(15) 0.0948(2) 0.05728(11)
C16_6 C 0.81597(17) 0.3469(2) 0.95846(12)
C17_6 C 0.75466(18) 0.3697(3) 0.92000(14)
H10_6 H 0.7382 0.4341 0.9145
C18_6 C 0.7201(2) 0.2936(3) 0.89104(16)
H11_6 H 0.6790 0.3066 0.8657
C19_6 C 0.7450(2) 0.1970(3) 0.89859(18)
H12_6 H 0.7203 0.1473 0.8779
C20_6 C 0.8052(2) 0.1730(3) 0.93591(17)
H13_6 H 0.8219 0.1086 0.9407
C21_6 C 0.83977(17) 0.2499(3) 0.96599(13)
N4_6 N 0.86175(15) 0.4085(2) 0.99217(11)
C1_7 C 0.46438(18) 0.1375(3) 0.07461(12)
C2_8 C 0.52252(17) 0.1784(3) 0.11700(11)
C3_8 C 0.51445(19) 0.2725(3) 0.13612(13)
H1_7 H 0.4761 0.3123 0.1200
C4_8 C 0.56307(19) 0.3079(3) 0.17917(13)
H2_8 H 0.5564 0.3706 0.1924
C5_8 C 0.62214(17) 0.2496(3) 0.20279(12)
C6_8 C 0.63198(19) 0.1575(3) 0.18129(12)
H3_8 H 0.6726 0.1195 0.1953
C7_8 C 0.58222(18) 0.1212(3) 0.13932(13)
H4_8 H 0.5887 0.0585 0.1260
C8_8 C 0.67003(18) 0.2829(3) 0.25274(12)
C9_8 C 0.6371(2) 0.3270(4) 0.29252(14)
H5_8 H 0.5862 0.3389 0.2869
C10_8 C 0.6783(2) 0.3540(4) 0.34085(14)
H6_8 H 0.6547 0.3823 0.3675
C11_8 C 0.75414(19) 0.3392(3) 0.34964(12)
C12_8 C 0.78744(19) 0.2978(3) 0.30934(13)
H7_8 H 0.8386 0.2888 0.3142
C13_8 C 0.74549(19) 0.2692(3) 0.26134(13)
H8_8 H 0.7689 0.2404 0.2347
C14_8 C 0.7970(2) 0.3653(3) 0.40281(14)
O1_7 O 0.42164(14) 0.1956(2) 0.04666(9)
O2_7 O 0.45865(16) 0.0471(2) 0.06925(13)
C16_7 C 0.68403(17) 0.1531(2) 0.04154(12)
C17_7 C 0.74534(18) 0.1303(3) 0.08000(14)
H10_7 H 0.7618 0.0659 0.0855
C18_7 C 0.7799(2) 0.2064(3) 0.10896(16)
H11_7 H 0.8210 0.1934 0.1343
C19_7 C 0.7550(2) 0.3030(3) 0.10141(18)
H12_7 H 0.7797 0.3527 0.1221
C20_7 C 0.6948(2) 0.3270(3) 0.06409(17)
H13_7 H 0.6781 0.3914 0.0593
C21_7 C 0.66023(17) 0.2501(3) 0.03401(13)
N4_7 N 0.63825(15) 0.0915(2) 0.00783(11)
Cd3_4 Cd 0.849485(11) 0.573590(16) 0.005186(8)
C1_8 C 0.96438(18) 0.6375(3) 0.07461(12)
H1_8 H 0.9761 0.8123 0.1200
C15_7 C 0.91171(17) 0.3508(2) 0.01884(13)
H9_7 H 0.9498 0.3733 0.0444
C22_7 C 0.94545(18) 0.1735(2) 0.02861(14)
C26_7 C 0.9110(2) 0.0871(3) 0.04011(18)
H16_7 H 0.8596 0.0834 0.0319
N3_7 N 0.90179(14) 0.25437(19) 0.00502(11)
N5_7 N 0.94711(18) 0.0089(2) 0.06226(16)
O1_8 O 0.92164(14) 0.6956(2) 0.04666(9)
O2_8 O 0.95865(16) 0.5471(2) 0.06925(13)
N6_4 N 0.75504(15) 0.5948(2) 0.05728(11)
C15_8 C 0.41171(17) 0.8508(2) 0.01884(13)
H9_8 H 0.4498 0.8733 0.0444
C22_8 C 0.44545(18) 0.6735(2) 0.02861(14)
C23_8 C 0.52195(18) 0.6815(2) 0.04094(13)
H14_8 H 0.5468 0.7391 0.0347
C24_8 C 0.55899(18) 0.6000(3) 0.06284(14)
C25_8 C 0.5204(2) 0.5159(3) 0.07303(16)
H15_6 H 0.5470 0.4619 0.0881
C26_8 C 0.4110(2) 0.5871(3) 0.04011(18)
H16_8 H 0.3596 0.5834 0.0319
C27_8 C 0.68542(17) 0.6121(3) 0.03751(13)
H17_8 H 0.6703 0.6312 0.0022
C28_8 C 0.6816(2) 0.5705(2) 0.12204(14)
C29_8 C 0.6630(2) 0.5465(3) 0.17138(15)
H18_8 H 0.6142 0.5482 0.1785
C30_8 C 0.7223(3) 0.5192(3) 0.21039(15)
H19_8 H 0.7127 0.5008 0.2443
C31_8 C 0.7943(3) 0.5189(3) 0.19967(15)
H20_8 H 0.8321 0.5012 0.2268
C32_8 C 0.8124(2) 0.5441(3) 0.15006(14)
H21_8 H 0.8614 0.5442 0.1433
C33_8 C 0.7539(2) 0.5694(2) 0.11068(13)
N1_8 N 0.63816(15) 0.5992(2) 0.07381(11)
N3_8 N 0.40179(14) 0.75437(19) 0.00502(11)
N5_8 N 0.44711(18) 0.5089(2) 0.06226(16)
H15_7 H 0.0470 0.9619 0.0881
H15_8 H 0.9530 0.9619 0.4119
C16_8 C 0.31597(17) 0.8469(2) 0.95846(12)
C17_8 C 0.25466(18) 0.8697(3) 0.92000(14)
H10_8 H 0.2382 0.9341 0.9145
C18_8 C 0.2201(2) 0.7936(3) 0.89104(16)
H11_8 H 0.1790 0.8066 0.8657
C19_8 C 0.2450(2) 0.6970(3) 0.89859(18)
H12_8 H 0.2203 0.6473 0.8779
C20_8 C 0.3052(2) 0.6730(3) 0.93591(17)
H13_8 H 0.3219 0.6086 0.9407
C21_8 C 0.33977(17) 0.7499(3) 0.96599(13)
N4_8 N 0.36175(15) 0.9085(2) 0.99217(11)
loop_
_geom_bond_atom_site_label_1
_geom_bond_atom_site_label_2
_geom_bond_site_symmetry_1
_geom_bond_site_symmetry_2
C16 C17 1_555 1_555
C17 H10 1_555 1_555
C18 C17 1_555 1_555
H11 C18 1_555 1_555
C19 C18 1_555 1_555
H12 C19 1_555 1_555
C20 C19 1_555 1_555
H13 C20 1_555 1_555
C21 C16 1_555 1_555
C16 N4 1_555 1_555
C20 C21 1_555 1_555
C2 C3 1_555 1_555
C4 C3 1_555 1_555
H2 C4 1_555 1_555
C5 C4 1_555 1_555
C6 C5 1_555 1_555
H3 C6 1_555 1_555
C7 C2 1_555 1_555
H4 C7 1_555 1_555
C8 C5 1_555 1_555
C9 C8 1_555 1_555
H5 C9 1_555 1_555
C10 C9 1_555 1_555
H6 C10 1_555 1_555
C11 C10 1_555 1_555
C12 C11 1_555 1_555
H7 C12 1_555 1_555
C13 C8 1_555 1_555
H8 C13 1_555 1_555
C14 C11 1_555 1_555
C23 H14 1_555 1_555
C24 C23 1_555 1_555
C25 C24 1_555 1_555
C27 H17 1_555 1_555
C28 C29 1_555 1_555
C29 H18 1_555 1_555
C30 C29 1_555 1_555
H19 C30 1_555 1_555
C31 C30 1_555 1_555
H20 C31 1_555 1_555
C32 C31 1_555 1_555
H21 C32 1_555 1_555
C33 C28 1_555 1_555
N1 C24 1_555 1_555
N2 C27 1_555 1_555
O3 C14 1_555 1_555
O4 C14 1_555 1_555
Cd2 N2 1_555 1_555
Cd3 O3 1_555 1_555
C6 C7 1_555 1_555
C12 C13 1_555 1_555
C27 N1 1_555 1_555
C28 N1 1_555 1_555
C32 C33 1_555 1_555
C33 N2 1_555 1_555
O4 Cd3 1_555 1_555
C1 C2_2 1_555 1_555
C2_2 C3_2 1_555 1_555
C3_2 H1 1_555 1_555
C4_2 C3_2 1_555 1_555
H2_2 C4_2 1_555 1_555
C5_2 C4_2 1_555 1_555
C6_2 C5_2 1_555 1_555
H3_2 C6_2 1_555 1_555
C7_2 C2_2 1_555 1_555
H4_2 C7_2 1_555 1_555
C8_2 C5_2 1_555 1_555
C9_2 C8_2 1_555 1_555
H5_2 C9_2 1_555 1_555
C10_2 C9_2 1_555 1_555
H6_2 C10_2 1_555 1_555
C11_2 C10_2 1_555 1_555
C12_2 C11_2 1_555 1_555
H7_2 C12_2 1_555 1_555
C13_2 C8_2 1_555 1_555
H8_2 C13_2 1_555 1_555
C14_2 C11_2 1_555 1_555
O1 C1 1_555 1_555
O2 C1 1_555 1_555
O3_2 C14_2 1_555 1_555
O4_2 C14_2 1_555 1_555
Cd3_2 O3_2 1_555 1_555
C6_2 C7_2 1_555 1_555
C12_2 C13_2 1_555 1_555
Cd2 O1 1_555 1_555
Cd2 O2 1_555 1_555
O4_2 Cd3_2 1_555 1_555
C15 H9 1_555 1_555
C16_2 C17_2 1_555 1_555
C17_2 H10_2 1_555 1_555
C18_2 C17_2 1_555 1_555
H11_2 C18_2 1_555 1_555
C19_2 C18_2 1_555 1_555
H12_2 C19_2 1_555 1_555
C20_2 C19_2 1_555 1_555
H13_2 C20_2 1_555 1_555
C21_2 C16_2 1_555 1_555
C26 C22 1_555 1_555
H16 C26 1_555 1_555
Cd3_2 N4_2 1_555 1_555
N3 C15 1_555 1_555
N4_2 C15 1_555 1_555
O1_2 C1_2 1_555 1_555
O2_2 C1_2 1_555 1_555
N6 Cd3_2 1_555 1_555
C16_2 N4_2 1_555 1_555
C20_2 C21_2 1_555 1_555
C21_2 N3 1_555 1_555
C22 N3 1_555 1_555
C26 N5 1_555 1_555
Cd3_2 O1_2 1_555 1_555
Cd3_2 O2_2 1_555 1_555
C2_3 C3_3 1_555 1_555
C4_3 C3_3 1_555 1_555
H2_3 C4_3 1_555 1_555
C5_3 C4_3 1_555 1_555
C6_3 C5_3 1_555 1_555
H3_3 C6_3 1_555 1_555
C7_3 C2_3 1_555 1_555
H4_3 C7_3 1_555 1_555
C8_3 C5_3 1_555 1_555
C9_3 C8_3 1_555 1_555
H5_3 C9_3 1_555 1_555
C10_3 C9_3 1_555 1_555
H6_3 C10_3 1_555 1_555
C11_3 C10_3 1_555 1_555
C12_3 C11_3 1_555 1_555
H7_3 C12_3 1_555 1_555
C13_3 C8_3 1_555 1_555
H8_3 C13_3 1_555 1_555
C14_3 C11_3 1_555 1_555
C23_2 H14_2 1_555 1_555
C24_2 C23_2 1_555 1_555
C25_2 C24_2 1_555 1_555
C27_2 H17_2 1_555 1_555
C28_2 C29_2 1_555 1_555
C29_2 H18_2 1_555 1_555
C30_2 C29_2 1_555 1_555
H19_2 C30_2 1_555 1_555
C31_2 C30_2 1_555 1_555
H20_2 C31_2 1_555 1_555
C32_2 C31_2 1_555 1_555
H21_2 C32_2 1_555 1_555
C33_2 C28_2 1_555 1_555
N1_2 C24_2 1_555 1_555
N2_2 C27_2 1_555 1_555
O5_2 C14_3 1_555 1_555
O6_2 C14_3 1_555 1_555
Cd3 N2_2 1_555 1_555
C6_3 C7_3 1_555 1_555
C12_3 C13_3 1_555 1_555
C27_2 N1_2 1_555 1_555
C28_2 N1_2 1_555 1_555
C32_2 C33_2 1_555 1_555
C33_2 N2_2 1_555 1_555
C1_3 C2_4 1_555 1_555
C2_4 C3_4 1_555 1_555
C3_4 H1_3 1_555 1_555
C4_4 C3_4 1_555 1_555
H2_4 C4_4 1_555 1_555
C5_4 C4_4 1_555 1_555
C6_4 C5_4 1_555 1_555
H3_4 C6_4 1_555 1_555
C7_4 C2_4 1_555 1_555
H4_4 C7_4 1_555 1_555
C8_4 C5_4 1_555 1_555
C9_4 C8_4 1_555 1_555
H5_4 C9_4 1_555 1_555
C10_4 C9_4 1_555 1_555
H6_4 C10_4 1_555 1_555
C11_4 C10_4 1_555 1_555
C12_4 C11_4 1_555 1_555
H7_4 C12_4 1_555 1_555
C13_4 C8_4 1_555 1_555
H8_4 C13_4 1_555 1_555
C14_4 C11_4 1_555 1_555
O1_3 C1_3 1_555 1_555
O2_3 C1_3 1_555 1_555
O5 C14_4 1_555 1_555
O6 C14_4 1_555 1_555
C6_4 C7_4 1_555 1_555
C12_4 C13_4 1_555 1_555
Cd3 O1_3 1_555 1_555
Cd3 O2_3 1_555 1_555
C15_2 H9_2 1_555 1_555
C16_3 C17_3 1_555 1_555
C17_3 H10_3 1_555 1_555
C18_3 C17_3 1_555 1_555
H11_3 C18_3 1_555 1_555
C19_3 C18_3 1_555 1_555
H12_3 C19_3 1_555 1_555
C20_3 C19_3 1_555 1_555
H13_3 C20_3 1_555 1_555
C21_3 C16_3 1_555 1_555
C22_2 C23_3 1_555 1_555
C23_3 H14_3 1_555 1_555
C24_3 C23_3 1_555 1_555
C25_3 C24_3 1_555 1_555
H15 C25_3 1_555 1_555
C26_2 C22_2 1_555 1_555
H16_2 C26_2 1_555 1_555
C27_3 H17_3 1_555 1_555
C28_3 C29_3 1_555 1_555
C29_3 H18_3 1_555 1_555
C30_3 C29_3 1_555 1_555
H19_3 C30_3 1_555 1_555
C31_3 C30_3 1_555 1_555
H20_3 C31_3 1_555 1_555
C32_3 C31_3 1_555 1_555
H21_3 C32_3 1_555 1_555
C33_3 C28_3 1_555 1_555
N1_3 C24_3 1_555 1_555
N6 C27_3 1_555 1_555
N3_2 C15_2 1_555 1_555
N4_3 C15_2 1_555 1_555
N5_2 C25_3 1_555 1_555
C16_3 N4_3 1_555 1_555
C20_3 C21_3 1_555 1_555
C21_3 N3_2 1_555 1_555
C22_2 N3_2 1_555 1_555
C26_2 N5_2 1_555 1_555
C27_3 N1_3 1_555 1_555
C28_3 N1_3 1_555 1_555
C32_3 C33_3 1_555 1_555
C33_3 N6 1_555 1_555
C15_3 H9_3 1_555 1_555
C26_3 C22_3 1_555 1_555
H16_3 C26_3 1_555 1_555
N3_3 C15_3 1_555 1_555
O1_4 C1_4 1_555 1_555
O2_4 C1_4 1_555 1_555
N6_2 Cd1 1_555 1_555
C22_3 N3_3 1_555 1_555
C26_3 N5_3 1_555 1_555
Cd1 O1_4 1_555 1_555
Cd1 O2_4 1_555 1_555
C15_4 H9_4 1_555 1_555
C22_4 C23_4 1_555 1_555
C23_4 H14_4 1_555 1_555
C24_4 C23_4 1_555 1_555
C25_4 C24_4 1_555 1_555
H15_2 C25_4 1_555 1_555
C26_4 C22_4 1_555 1_555
H16_4 C26_4 1_555 1_555
C27_4 H17_4 1_555 1_555
C28_4 C29_4 1_555 1_555
C29_4 H18_4 1_555 1_555
C30_4 C29_4 1_555 1_555
H19_4 C30_4 1_555 1_555
C31_4 C30_4 1_555 1_555
H20_4 C31_4 1_555 1_555
C32_4 C31_4 1_555 1_555
H21_4 C32_4 1_555 1_555
C33_4 C28_4 1_555 1_555
N1_4 C24_4 1_555 1_555
N6_2 C27_4 1_555 1_555
N3_4 C15_4 1_555 1_555
N5_4 C25_4 1_555 1_555
C22_4 N3_4 1_555 1_555
C26_4 N5_4 1_555 1_555
C27_4 N1_4 1_555 1_555
C28_4 N1_4 1_555 1_555
C32_4 C33_4 1_555 1_555
C33_4 N6_2 1_555 1_555
C2_5 C3_5 1_555 1_555
C4_5 C3_5 1_555 1_555
H2_5 C4_5 1_555 1_555
C5_5 C4_5 1_555 1_555
C6_5 C5_5 1_555 1_555
H3_5 C6_5 1_555 1_555
C7_5 C2_5 1_555 1_555
H4_5 C7_5 1_555 1_555
C8_5 C5_5 1_555 1_555
C9_5 C8_5 1_555 1_555
H5_5 C9_5 1_555 1_555
C10_5 C9_5 1_555 1_555
H6_5 C10_5 1_555 1_555
C11_5 C10_5 1_555 1_555
C12_5 C11_5 1_555 1_555
H7_5 C12_5 1_555 1_555
C13_5 C8_5 1_555 1_555
H8_5 C13_5 1_555 1_555
C14_5 C11_5 1_555 1_555
C23_5 H14_5 1_555 1_555
C24_5 C23_5 1_555 1_555
C25_5 C24_5 1_555 1_555
C27_5 H17_5 1_555 1_555
C28_5 C29_5 1_555 1_555
C29_5 H18_5 1_555 1_555
C30_5 C29_5 1_555 1_555
H19_5 C30_5 1_555 1_555
C31_5 C30_5 1_555 1_555
H20_5 C31_5 1_555 1_555
C32_5 C31_5 1_555 1_555
H21_5 C32_5 1_555 1_555
C33_5 C28_5 1_555 1_555
N1_5 C24_5 1_555 1_555
N2_3 C27_5 1_555 1_555
O3_3 C14_5 1_555 1_555
O4_3 C14_5 1_555 1_555
Cd2_2 N2_3 1_555 1_555
C6_5 C7_5 1_555 1_555
C12_5 C13_5 1_555 1_555
C27_5 N1_5 1_555 1_555
C28_5 N1_5 1_555 1_555
C32_5 C33_5 1_555 1_555
C33_5 N2_3 1_555 1_555
C15_5 H9_5 1_555 1_555
C16_4 C17_4 1_555 1_555
C17_4 H10_4 1_555 1_555
C18_4 C17_4 1_555 1_555
H11_4 C18_4 1_555 1_555
C19_4 C18_4 1_555 1_555
H12_4 C19_4 1_555 1_555
C20_4 C19_4 1_555 1_555
H13_4 C20_4 1_555 1_555
C21_4 C16_4 1_555 1_555
C26_5 C22_5 1_555 1_555
H16_5 C26_5 1_555 1_555
Cd1_2 N4_4 1_555 1_555
N3_5 C15_5 1_555 1_555
N4_4 C15_5 1_555 1_555
O1_5 C1_5 1_555 1_555
O2_5 C1_5 1_555 1_555
N6_3 Cd1_2 1_555 1_555
O5_3 Cd1_2 1_555 1_555
O6_3 Cd1_2 1_555 1_555
C16_4 N4_4 1_555 1_555
C20_4 C21_4 1_555 1_555
C21_4 N3_5 1_555 1_555
C22_5 N3_5 1_555 1_555
C26_5 N5_5 1_555 1_555
Cd1_2 O1_5 1_555 1_555
Cd1_2 O2_5 1_555 1_555
C15_6 H9_6 1_555 1_555
C16_5 C17_5 1_555 1_555
C17_5 H10_5 1_555 1_555
C18_5 C17_5 1_555 1_555
H11_5 C18_5 1_555 1_555
C19_5 C18_5 1_555 1_555
H12_5 C19_5 1_555 1_555
C20_5 C19_5 1_555 1_555
H13_5 C20_5 1_555 1_555
C21_5 C16_5 1_555 1_555
C22_6 C23_6 1_555 1_555
C23_6 H14_6 1_555 1_555
C24_6 C23_6 1_555 1_555
C25_6 C24_6 1_555 1_555
H15_5 C25_6 1_555 1_555
C26_6 C22_6 1_555 1_555
H16_6 C26_6 1_555 1_555
C27_6 H17_6 1_555 1_555
C28_6 C29_6 1_555 1_555
C29_6 H18_6 1_555 1_555
C30_6 C29_6 1_555 1_555
H19_6 C30_6 1_555 1_555
C31_6 C30_6 1_555 1_555
H20_6 C31_6 1_555 1_555
C32_6 C31_6 1_555 1_555
H21_6 C32_6 1_555 1_555
C33_6 C28_6 1_555 1_555
N1_6 C24_6 1_555 1_555
N6_3 C27_6 1_555 1_555
N3_6 C15_6 1_555 1_555
N4_5 C15_6 1_555 1_555
N5_6 C25_6 1_555 1_555
C16_5 N4_5 1_555 1_555
C20_5 C21_5 1_555 1_555
C21_5 N3_6 1_555 1_555
C22_6 N3_6 1_555 1_555
C26_6 N5_6 1_555 1_555
C27_6 N1_6 1_555 1_555
C28_6 N1_6 1_555 1_555
C32_6 C33_6 1_555 1_555
C33_6 N6_3 1_555 1_555
C1_6 C2_6 1_555 1_555
C2_6 C3_6 1_555 1_555
C3_6 H1_6 1_555 1_555
C4_6 C3_6 1_555 1_555
H2_6 C4_6 1_555 1_555
C5_6 C4_6 1_555 1_555
C6_6 C5_6 1_555 1_555
H3_6 C6_6 1_555 1_555
C7_6 C2_6 1_555 1_555
H4_6 C7_6 1_555 1_555
C8_6 C5_6 1_555 1_555
C9_6 C8_6 1_555 1_555
H5_6 C9_6 1_555 1_555
C10_6 C9_6 1_555 1_555
H6_6 C10_6 1_555 1_555
C11_6 C10_6 1_555 1_555
C12_6 C11_6 1_555 1_555
H7_6 C12_6 1_555 1_555
C13_6 C8_6 1_555 1_555
H8_6 C13_6 1_555 1_555
C14_6 C11_6 1_555 1_555
O1_6 C1_6 1_555 1_555
O2_6 C1_6 1_555 1_555
O3_4 C14_6 1_555 1_555
O4_4 C14_6 1_555 1_555
O5_4 Cd2_2 1_555 1_555
O6_4 Cd2_2 1_555 1_555
C6_6 C7_6 1_555 1_555
C12_6 C13_6 1_555 1_555
Cd2_2 O1_6 1_555 1_555
Cd2_2 O2_6 1_555 1_555
C2_7 C3_7 1_555 1_555
C4_7 C3_7 1_555 1_555
H2_7 C4_7 1_555 1_555
C5_7 C4_7 1_555 1_555
C6_7 C5_7 1_555 1_555
H3_7 C6_7 1_555 1_555
C7_7 C2_7 1_555 1_555
H4_7 C7_7 1_555 1_555
C8_7 C5_7 1_555 1_555
C9_7 C8_7 1_555 1_555
H5_7 C9_7 1_555 1_555
C10_7 C9_7 1_555 1_555
H6_7 C10_7 1_555 1_555
C11_7 C10_7 1_555 1_555
C12_7 C11_7 1_555 1_555
H7_7 C12_7 1_555 1_555
C13_7 C8_7 1_555 1_555
H8_7 C13_7 1_555 1_555
C14_7 C11_7 1_555 1_555
C23_7 H14_7 1_555 1_555
C24_7 C23_7 1_555 1_555
C25_7 C24_7 1_555 1_555
C27_7 H17_7 1_555 1_555
C28_7 C29_7 1_555 1_555
C29_7 H18_7 1_555 1_555
C30_7 C29_7 1_555 1_555
H19_7 C30_7 1_555 1_555
C31_7 C30_7 1_555 1_555
H20_7 C31_7 1_555 1_555
C32_7 C31_7 1_555 1_555
H21_7 C32_7 1_555 1_555
C33_7 C28_7 1_555 1_555
N1_7 C24_7 1_555 1_555
N2_4 C27_7 1_555 1_555
O5_4 C14_7 1_555 1_555
O6_4 C14_7 1_555 1_555
Cd3_3 N2_4 1_555 1_555
C6_7 C7_7 1_555 1_555
C12_7 C13_7 1_555 1_555
C27_7 N1_7 1_555 1_555
C28_7 N1_7 1_555 1_555
C32_7 C33_7 1_555 1_555
C33_7 N2_4 1_555 1_555
C16_6 C17_6 1_555 1_555
C17_6 H10_6 1_555 1_555
C18_6 C17_6 1_555 1_555
H11_6 C18_6 1_555 1_555
C19_6 C18_6 1_555 1_555
H12_6 C19_6 1_555 1_555
C20_6 C19_6 1_555 1_555
H13_6 C20_6 1_555 1_555
C21_6 C16_6 1_555 1_555
C16_6 N4_6 1_555 1_555
C20_6 C21_6 1_555 1_555
C1_7 C2_8 1_555 1_555
C2_8 C3_8 1_555 1_555
C3_8 H1_7 1_555 1_555
C4_8 C3_8 1_555 1_555
H2_8 C4_8 1_555 1_555
C5_8 C4_8 1_555 1_555
C6_8 C5_8 1_555 1_555
H3_8 C6_8 1_555 1_555
C7_8 C2_8 1_555 1_555
H4_8 C7_8 1_555 1_555
C8_8 C5_8 1_555 1_555
C9_8 C8_8 1_555 1_555
H5_8 C9_8 1_555 1_555
C10_8 C9_8 1_555 1_555
H6_8 C10_8 1_555 1_555
C11_8 C10_8 1_555 1_555
C12_8 C11_8 1_555 1_555
H7_8 C12_8 1_555 1_555
C13_8 C8_8 1_555 1_555
H8_8 C13_8 1_555 1_555
C14_8 C11_8 1_555 1_555
O1_7 C1_7 1_555 1_555
O2_7 C1_7 1_555 1_555
O5_3 C14_8 1_555 1_555
O6_3 C14_8 1_555 1_555
C6_8 C7_8 1_555 1_555
C12_8 C13_8 1_555 1_555
Cd3_3 O1_7 1_555 1_555
Cd3_3 O2_7 1_555 1_555
C16_7 C17_7 1_555 1_555
C17_7 H10_7 1_555 1_555
C18_7 C17_7 1_555 1_555
H11_7 C18_7 1_555 1_555
C19_7 C18_7 1_555 1_555
H12_7 C19_7 1_555 1_555
C20_7 C19_7 1_555 1_555
H13_7 C20_7 1_555 1_555
C21_7 C16_7 1_555 1_555
C16_7 N4_7 1_555 1_555
C20_7 C21_7 1_555 1_555
C15_7 H9_7 1_555 1_555
C26_7 C22_7 1_555 1_555
H16_7 C26_7 1_555 1_555
N3_7 C15_7 1_555 1_555
O1_8 C1_8 1_555 1_555
O2_8 C1_8 1_555 1_555
N6_4 Cd3_4 1_555 1_555
C22_7 N3_7 1_555 1_555
C26_7 N5_7 1_555 1_555
Cd3_4 O1_8 1_555 1_555
Cd3_4 O2_8 1_555 1_555
C15_8 H9_8 1_555 1_555
C22_8 C23_8 1_555 1_555
C23_8 H14_8 1_555 1_555
C24_8 C23_8 1_555 1_555
C25_8 C24_8 1_555 1_555
H15_6 C25_8 1_555 1_555
C26_8 C22_8 1_555 1_555
H16_8 C26_8 1_555 1_555
C27_8 H17_8 1_555 1_555
C28_8 C29_8 1_555 1_555
C29_8 H18_8 1_555 1_555
C30_8 C29_8 1_555 1_555
H19_8 C30_8 1_555 1_555
C31_8 C30_8 1_555 1_555
H20_8 C31_8 1_555 1_555
C32_8 C31_8 1_555 1_555
H21_8 C32_8 1_555 1_555
C33_8 C28_8 1_555 1_555
N1_8 C24_8 1_555 1_555
N6_4 C27_8 1_555 1_555
N3_8 C15_8 1_555 1_555
N5_8 C25_8 1_555 1_555
C22_8 N3_8 1_555 1_555
C26_8 N5_8 1_555 1_555
C27_8 N1_8 1_555 1_555
C28_8 N1_8 1_555 1_555
C32_8 C33_8 1_555 1_555
C33_8 N6_4 1_555 1_555
C16_8 C17_8 1_555 1_555
C17_8 H10_8 1_555 1_555
C18_8 C17_8 1_555 1_555
H11_8 C18_8 1_555 1_555
C19_8 C18_8 1_555 1_555
H12_8 C19_8 1_555 1_555
C20_8 C19_8 1_555 1_555
H13_8 C20_8 1_555 1_555
C21_8 C16_8 1_555 1_555
C16_8 N4_8 1_555 1_555
C20_8 C21_8 1_555 1_555

#END
