
###############################################################################
#
# This file contains modified crystal structure data generated from the
# MOF subset of the Cambridge Structural Database (CSD) v543 
# hosted by the Cambridge Crystallographic Data Centre (CCDC).
#
# This work is licensed under the Creative Commons
# Attribution-NonCommercial-ShareAlike 4.0 International License.
# To view a copy of this license, visit
# http://creativecommons.org/licenses/by-nc-sa/4.0/
# or send a letter to
# Creative Commons, PO Box 1866, Mountain View, CA 94042, USA.
#
# CIF created using the CSD Python API on 29 September 2022
# The structure has been converted into the P1 space group
# The structure has a 3D framework
# The original CSD entry TUDMEL is in the monoclinic crystal system
# The framework has been calculated to contain at least 10.0% void space
# The void calculation uses a probe of radius 1.32A, grid spacing 0.4
#
###############################################################################

data_TUDMEL
_chemical_formula_moiety         '(C152 H232 N40 Ni8 O32)n'
_symmetry_cell_setting           triclinic
_symmetry_space_group_name_H-M   'P 1'
_symmetry_Int_Tables_number      1
_space_group_name_Hall           'P 1'
loop_
_symmetry_equiv_pos_site_id
_symmetry_equiv_pos_as_xyz
1 x,y,z
_cell_length_a                   25.1189(12)
_cell_length_b                   16.3750(9)
_cell_length_c                   16.6616(10)
_cell_angle_alpha                90
_cell_angle_beta                 125.254(2)
_cell_angle_gamma                90
_cell_volume                     5596.4
loop_
_atom_site_label
_atom_site_type_symbol
_atom_site_fract_x
_atom_site_fract_y
_atom_site_fract_z
H27 H 0.425 0.4289 0.0032
H29 H 0.4744 0.5657 0.0261
N6 N 0.8279(3) 0.6767(4) 0.3018(6)
H30 H 0.8632 0.65 0.3124
N7 N 0.6995(4) 0.4992(4) 0.2605(7)
H31 H 0.6651 0.5237 0.2554
N8 N 0.8143(4) 0.5610(5) 0.4299(7)
H32 H 0.8495 0.5308 0.4455
N9 N 0.7147(4) 0.6118(5) 0.1317(7)
H33 H 0.6806 0.6452 0.114
C20 C 0.7336(7) 0.4509(7) 0.3488(12)
H34 H 0.7025 0.4187 0.3522
H35 H 0.7631 0.4137 0.3476
C21 C 0.7735(6) 0.5077(7) 0.4427(10)
H36 H 0.8003 0.4747 0.5014
H37 H 0.7439 0.5399 0.4495
O7 O 0.7058(3) 0.6860(3) 0.2815(5)
C23 C 0.8525(5) 0.7324(6) 0.3842(10)
H38 H 0.8843 0.7687 0.3878
H39 H 0.8168 0.7655 0.3731
O9 O 0.8173(3) 0.4905(3) 0.2682(5)
N10 N 0.6469(4) 0.4907(6) 0.0864(9)
C26 C 0.6740(5) 0.4462(7) 0.1749(12)
H40 H 0.6407 0.4109 0.1685
H41 H 0.7089 0.4118 0.1855
C27 C 0.8833(6) 0.6883(9) 0.4792(11)
H42 H 0.9174 0.6537 0.4873
H43 H 0.9042 0.7285 0.5315
C33 C 0.7975(6) 0.7212(7) 0.2063(10)
H47 H 0.7676 0.7623 0.2002
H48 H 0.8311 0.7485 0.2045
C34 C 0.7604(6) 0.6599(7) 0.1200(9)
H49 H 0.7911 0.6236 0.1204
H50 H 0.7362 0.6891 0.058
C35 C 0.6889(6) 0.5439(9) 0.0684(10)
H51 H 0.6628 0.5627 0.0008
H52 H 0.7245 0.5113 0.078
C36 C 0.8405(7) 0.6358(8) 0.4946(11)
H53 H 0.8654 0.6188 0.5628
H54 H 0.8041 0.6684 0.4818
C37 C 0.5870(6) 0.5371(9) 0.0526(13)
H55 H 0.594 0.5721 0.1049
C38 C 0.5306(7) 0.4728(11) 0.0221(15)
H57 H 0.5395 0.4429 0.0789
Ni2 Ni 0.76343(5) 0.58900(6) 0.28041(10)
N1 N 0.1721(3) 0.3233(4) 0.6982(6)
H1 H 0.1368 0.35 0.6876
N2 N 0.3005(4) 0.5008(4) 0.7395(7)
H2 H 0.3349 0.4763 0.7446
N3 N 0.1857(4) 0.4390(5) 0.5701(7)
H3 H 0.1505 0.4692 0.5545
N4 N 0.2853(4) 0.3882(5) 0.8683(7)
H4 H 0.3194 0.3548 0.886
C1 C 0.2664(7) 0.5491(7) 0.6512(12)
H5 H 0.2975 0.5813 0.6478
H6 H 0.2369 0.5863 0.6524
C2 C 0.2265(6) 0.4923(7) 0.5573(10)
H7 H 0.1997 0.5253 0.4986
H8 H 0.2561 0.4601 0.5505
C3 C 0.1065(4) 0.5941(4) 0.7316(7)
O1 O 0.2058(3) 0.8140(3) 0.7815(5)
C4 C 0.1475(5) 0.2676(6) 0.6158(10)
H9 H 0.1157 0.2313 0.6122
H10 H 0.1832 0.2345 0.6269
O2 O 0.1827(3) 0.5095(3) 0.7318(5)
C5 C 0.1284(4) 0.5131(5) 0.7151(8)
O3 O 0.1389(4) 0.8779(4) 0.8061(7)
N5 N 0.3531(4) 0.5093(6) 0.9136(9)
C6 C 0.1596(4) 0.8126(6) 0.7887(8)
O4 O 0.0884(4) 0.4530(4) 0.6852(7)
C7 C 0.3260(5) 0.5538(7) 0.8251(12)
H11 H 0.3593 0.5891 0.8315
H12 H 0.2911 0.5882 0.8145
C8 C 0.1167(6) 0.3117(9) 0.5208(11)
H13 H 0.0826 0.3463 0.5127
H14 H 0.0958 0.2715 0.4685
C9 C 0.0502(4) 0.5964(5) 0.7293(7)
H15 H 0.0266 0.5485 0.716
C10 C 0.0640(3) 0.7380(4) 0.7659(6)
H16 H 0.0506 0.786 0.7792
C11 C 0.1427(4) 0.6648(5) 0.7527(6)
H17 H 0.1816 0.6626 0.758
C12 C 0.1220(4) 0.7382(5) 0.7660(7)
C13 C 0.0282(3) 0.6662(4) 0.7460(6)
C14 C 0.2025(6) 0.2788(7) 0.7937(10)
H18 H 0.2324 0.2377 0.7998
H19 H 0.1689 0.2515 0.7955
C15 C 0.2396(6) 0.3401(7) 0.8800(9)
H20 H 0.2089 0.3764 0.8796
H21 H 0.2638 0.3109 0.942
C16 C 0.3111(6) 0.4561(9) 0.9316(10)
H22 H 0.3372 0.4373 0.9992
H23 H 0.2755 0.4887 0.922
C17 C 0.1595(7) 0.3642(8) 0.5054(11)
H24 H 0.1346 0.3812 0.4372
H25 H 0.1959 0.3316 0.5182
C18 C 0.4130(6) 0.4629(9) 0.9474(13)
H26 H 0.406 0.4279 0.8951
C19 C 0.4694(7) 0.5272(11) 0.9779(15)
H28 H 0.4605 0.5571 0.9211
Ni1 Ni 0.23657(5) 0.41100(6) 0.71959(10)
O6 O 0.2942(3) 0.3140(3) 0.7185(5)
H56 H 0.575 0.5711 0.9968
H58 H 0.5256 0.4343 0.9739
Ni4 Ni 0.26343(5) 0.91100(6) 0.78041(10)
C22 C 0.8935(4) 0.5941(4) 0.7684(7)
O5 O 0.7942(3) 0.8140(3) 0.7185(5)
O8 O 0.8173(3) 0.5095(3) 0.7682(5)
C24 C 0.8716(4) 0.5131(5) 0.7849(8)
O10 O 0.8611(4) 0.8779(4) 0.6939(7)
C25 C 0.8404(4) 0.8126(6) 0.7113(8)
O11 O 0.9116(4) 0.4530(4) 0.8148(7)
C28 C 0.9498(4) 0.5964(5) 0.7707(7)
H44 H 0.9734 0.5485 0.784
C29 C 0.9360(3) 0.7380(4) 0.7341(6)
H45 H 0.9494 0.786 0.7208
C30 C 0.8573(4) 0.6648(5) 0.7473(6)
H46 H 0.8184 0.6626 0.742
C31 C 0.8780(4) 0.7382(5) 0.7340(7)
C32 C 0.9718(3) 0.6662(4) 0.7540(6)
Ni3 Ni 0.76343(5) 0.41100(6) 0.78041(10)
Ni5 Ni 0.73657(5) 0.91100(6) 0.71959(10)
N1_2 N 0.8279(3) 0.3233(4) 0.8018(6)
H1_2 H 0.8632 0.35 0.8124
N2_2 N 0.6995(4) 0.5008(4) 0.7605(7)
H2_2 H 0.6651 0.4763 0.7554
N3_2 N 0.8143(4) 0.4390(5) 0.9299(7)
H3_2 H 0.8495 0.4692 0.9455
N4_2 N 0.7147(4) 0.3882(5) 0.6317(7)
H4_2 H 0.6806 0.3548 0.614
C1_2 C 0.7336(7) 0.5491(7) 0.8488(12)
H5_2 H 0.7025 0.5813 0.8522
H6_2 H 0.7631 0.5863 0.8476
C2_2 C 0.7735(6) 0.4923(7) 0.9427(10)
H8_2 H 0.7439 0.4601 0.9495
C4_2 C 0.8525(5) 0.2676(6) 0.8842(10)
H9_2 H 0.8843 0.2313 0.8878
H10_2 H 0.8168 0.2345 0.8731
N5_2 N 0.6469(4) 0.5093(6) 0.5864(9)
C7_2 C 0.6740(5) 0.5538(7) 0.6749(12)
H11_2 H 0.6407 0.5891 0.6685
H12_2 H 0.7089 0.5882 0.6855
C8_2 C 0.8833(6) 0.3117(9) 0.9792(11)
H13_2 H 0.9174 0.3463 0.9873
C14_2 C 0.7975(6) 0.2788(7) 0.7063(10)
H18_2 H 0.7676 0.2377 0.7002
H19_2 H 0.8311 0.2515 0.7045
C15_2 C 0.7604(6) 0.3401(7) 0.6200(9)
H20_2 H 0.7911 0.3764 0.6204
H21_2 H 0.7362 0.3109 0.558
C16_2 C 0.6889(6) 0.4561(9) 0.5684(10)
H22_2 H 0.6628 0.4373 0.5008
H23_2 H 0.7245 0.4887 0.578
C17_2 C 0.8405(7) 0.3642(8) 0.9946(11)
H25_2 H 0.8041 0.3316 0.9818
C18_2 C 0.5870(6) 0.4629(9) 0.5526(13)
H26_2 H 0.594 0.4279 0.6049
H27_2 H 0.575 0.4289 0.4968
C19_2 C 0.5306(7) 0.5272(11) 0.5221(15)
H28_2 H 0.5395 0.5571 0.5789
H29_2 H 0.5256 0.5657 0.4739
N6_2 N 0.1721(3) 0.6767(4) 0.1982(6)
H30_2 H 0.1368 0.65 0.1876
N7_2 N 0.3005(4) 0.4992(4) 0.2395(7)
H31_2 H 0.3349 0.5237 0.2446
N8_2 N 0.1857(4) 0.5610(5) 0.0701(7)
H32_2 H 0.1505 0.5308 0.0545
N9_2 N 0.2853(4) 0.6118(5) 0.3683(7)
H33_2 H 0.3194 0.6452 0.386
C20_2 C 0.2664(7) 0.4509(7) 0.1512(12)
H34_2 H 0.2975 0.4187 0.1478
H35_2 H 0.2369 0.4137 0.1524
C21_2 C 0.2265(6) 0.5077(7) 0.0573(10)
H37_2 H 0.2561 0.5399 0.0505
O6_2 O 0.7058(3) 0.3140(3) 0.7815(5)
O7_2 O 0.2942(3) 0.6860(3) 0.2185(5)
C23_2 C 0.1475(5) 0.7324(6) 0.1158(10)
H38_2 H 0.1157 0.7687 0.1122
H39_2 H 0.1832 0.7655 0.1269
O9_2 O 0.1827(3) 0.4905(3) 0.2318(5)
N10_2 N 0.3531(4) 0.4907(6) 0.4136(9)
C26_2 C 0.3260(5) 0.4462(7) 0.3251(12)
H40_2 H 0.3593 0.4109 0.3315
H41_2 H 0.2911 0.4118 0.3145
C27_2 C 0.1167(6) 0.6883(9) 0.0208(11)
H42_2 H 0.0826 0.6537 0.0127
C33_2 C 0.2025(6) 0.7212(7) 0.2937(10)
H47_2 H 0.2324 0.7623 0.2998
H48_2 H 0.1689 0.7485 0.2955
C34_2 C 0.2396(6) 0.6599(7) 0.3800(9)
H49_2 H 0.2089 0.6236 0.3796
H50_2 H 0.2638 0.6891 0.442
C35_2 C 0.3111(6) 0.5439(9) 0.4316(10)
H51_2 H 0.3372 0.5627 0.4992
H52_2 H 0.2755 0.5113 0.422
C36_2 C 0.1595(7) 0.6358(8) 0.0054(11)
H54_2 H 0.1959 0.6684 0.0182
C37_2 C 0.4130(6) 0.5371(9) 0.4474(13)
H55_2 H 0.406 0.5721 0.3951
H56_2 H 0.425 0.5711 0.5032
C38_2 C 0.4694(7) 0.4728(11) 0.4779(15)
H57_2 H 0.4605 0.4429 0.4211
H58_2 H 0.4744 0.4343 0.5261
Ni2_2 Ni 0.23657(5) 0.58900(6) 0.21959(10)
N6_3 N 0.3279(3) 0.1767(4) 0.3018(6)
H30_3 H 0.3632 0.15 0.3124
H31_3 H 0.1651 0.0237 0.2554
N8_3 N 0.3143(4) 0.0610(5) 0.4299(7)
H32_3 H 0.3495 0.0308 0.4455
N9_3 N 0.2147(4) 0.1118(5) 0.1317(7)
H33_3 H 0.1806 0.1452 0.114
C21_3 C 0.2735(6) 0.0077(7) 0.4427(10)
H37_3 H 0.2439 0.0399 0.4495
O7_3 O 0.2058(3) 0.1860(3) 0.2815(5)
C23_3 C 0.3525(5) 0.2324(6) 0.3842(10)
H38_3 H 0.3843 0.2687 0.3878
H39_3 H 0.3168 0.2655 0.3731
C27_3 C 0.3833(6) 0.1883(9) 0.4792(11)
H42_3 H 0.4174 0.1537 0.4873
H43_2 H 0.4042 0.2285 0.5315
C33_3 C 0.2975(6) 0.2212(7) 0.2063(10)
H47_3 H 0.2676 0.2623 0.2002
H48_3 H 0.3311 0.2485 0.2045
C34_3 C 0.2604(6) 0.1599(7) 0.1200(9)
H49_3 H 0.2911 0.1236 0.1204
H50_3 H 0.2362 0.1891 0.058
C35_3 C 0.1889(6) 0.0439(9) 0.0684(10)
H51_3 H 0.1628 0.0627 0.0008
H52_3 H 0.2245 0.0113 0.078
C36_3 C 0.3405(7) 0.1358(8) 0.4946(11)
H53_2 H 0.3654 0.1188 0.5628
H54_3 H 0.3041 0.1684 0.4818
C37_3 C 0.0870(6) 0.0371(9) 0.0526(13)
H55_3 H 0.094 0.0721 0.1049
Ni2_3 Ni 0.26343(5) 0.08900(6) 0.28041(10)
N7_3 N 0.1995(4) 0.9992(4) 0.2605(7)
C20_3 C 0.2336(7) 0.9509(7) 0.3488(12)
H34_3 H 0.2025 0.9187 0.3522
H35_3 H 0.2631 0.9137 0.3476
H36_2 H 0.3003 0.9747 0.5014
O9_3 O 0.3173(3) 0.9905(3) 0.2682(5)
N10_3 N 0.1469(4) 0.9907(6) 0.0864(9)
C26_3 C 0.1740(5) 0.9462(7) 0.1749(12)
H40_3 H 0.1407 0.9109 0.1685
H41_3 H 0.2089 0.9118 0.1855
C38_3 C 0.0306(7) 0.9728(11) 0.0221(15)
H57_3 H 0.0395 0.9429 0.0789
N2_3 N 0.8005(4) 0.0008(4) 0.7395(7)
C1_3 C 0.7664(7) 0.0491(7) 0.6512(12)
H5_3 H 0.7975 0.0813 0.6478
H6_3 H 0.7369 0.0863 0.6524
H7_2 H 0.6997 0.0253 0.4986
C3_2 C 0.6065(4) 0.0941(4) 0.7316(7)
O2_2 O 0.6827(3) 0.0095(3) 0.7318(5)
C5_2 C 0.6284(4) 0.0131(5) 0.7151(8)
O3_2 O 0.6389(4) 0.3779(4) 0.8061(7)
N5_3 N 0.8531(4) 0.0093(6) 0.9136(9)
C6_2 C 0.6596(4) 0.3126(6) 0.7887(8)
C7_3 C 0.8260(5) 0.0538(7) 0.8251(12)
H11_3 H 0.8593 0.0891 0.8315
H12_3 H 0.7911 0.0882 0.8145
C9_2 C 0.5502(4) 0.0964(5) 0.7293(7)
H15_2 H 0.5266 0.0485 0.716
C10_2 C 0.5640(3) 0.2380(4) 0.7659(6)
H16_2 H 0.5506 0.286 0.7792
C11_2 C 0.6427(4) 0.1648(5) 0.7527(6)
H17_2 H 0.6816 0.1626 0.758
C12_2 C 0.6220(4) 0.2382(5) 0.7660(7)
C13_2 C 0.5282(3) 0.1662(4) 0.7460(6)
C19_3 C 0.9694(7) 0.0272(11) 0.9779(15)
H28_3 H 0.9605 0.0571 0.9211
C22_2 C 0.3935(4) 0.0941(4) 0.7684(7)
O8_2 O 0.3173(3) 0.0095(3) 0.7682(5)
C24_2 C 0.3716(4) 0.0131(5) 0.7849(8)
O10_2 O 0.3611(4) 0.3779(4) 0.6939(7)
C25_2 C 0.3404(4) 0.3126(6) 0.7113(8)
C28_2 C 0.4498(4) 0.0964(5) 0.7707(7)
H44_2 H 0.4734 0.0485 0.784
C29_2 C 0.4360(3) 0.2380(4) 0.7341(6)
H45_2 H 0.4494 0.286 0.7208
C30_2 C 0.3573(4) 0.1648(5) 0.7473(6)
H46_2 H 0.3184 0.1626 0.742
C31_2 C 0.3780(4) 0.2382(5) 0.7340(7)
C32_2 C 0.4718(3) 0.1662(4) 0.7540(6)
N1_3 N 0.6721(3) 0.8233(4) 0.6982(6)
H1_3 H 0.6368 0.85 0.6876
H2_3 H 0.8349 0.9763 0.7446
N3_3 N 0.6857(4) 0.9390(5) 0.5701(7)
H3_3 H 0.6505 0.9692 0.5545
N4_3 N 0.7853(4) 0.8882(5) 0.8683(7)
H4_3 H 0.8194 0.8548 0.886
C2_3 C 0.7265(6) 0.9923(7) 0.5573(10)
H8_3 H 0.7561 0.9601 0.5505
C4_3 C 0.6475(5) 0.7676(6) 0.6158(10)
H9_3 H 0.6157 0.7313 0.6122
H10_3 H 0.6832 0.7345 0.6269
O4_2 O 0.5884(4) 0.9530(4) 0.6852(7)
C8_3 C 0.6167(6) 0.8117(9) 0.5208(11)
H13_3 H 0.5826 0.8463 0.5127
H14_2 H 0.5958 0.7715 0.4685
C14_3 C 0.7025(6) 0.7788(7) 0.7937(10)
H18_3 H 0.7324 0.7377 0.7998
H19_3 H 0.6689 0.7515 0.7955
C15_3 C 0.7396(6) 0.8401(7) 0.8800(9)
H20_3 H 0.7089 0.8764 0.8796
H21_3 H 0.7638 0.8109 0.942
C16_3 C 0.8111(6) 0.9561(9) 0.9316(10)
H22_3 H 0.8372 0.9373 0.9992
H23_3 H 0.7755 0.9887 0.922
C17_3 C 0.6595(7) 0.8642(8) 0.5054(11)
H24_2 H 0.6346 0.8812 0.4372
H25_3 H 0.6959 0.8316 0.5182
C18_3 C 0.9130(6) 0.9629(9) 0.9474(13)
H26_3 H 0.906 0.9279 0.8951
O11_2 O 0.4116(4) 0.9530(4) 0.8148(7)
N2_4 N 0.1995(4) 0.0008(4) 0.7605(7)
C1_4 C 0.2336(7) 0.0491(7) 0.8488(12)
H5_4 H 0.2025 0.0813 0.8522
H6_4 H 0.2631 0.0863 0.8476
N5_4 N 0.1469(4) 0.0093(6) 0.5864(9)
C7_4 C 0.1740(5) 0.0538(7) 0.6749(12)
H11_4 H 0.1407 0.0891 0.6685
H12_4 H 0.2089 0.0882 0.6855
C19_4 C 0.0306(7) 0.0272(11) 0.5221(15)
H28_4 H 0.0395 0.0571 0.5789
H29_3 H 0.0256 0.0657 0.4739
N1_4 N 0.3279(3) 0.8233(4) 0.8018(6)
H1_4 H 0.3632 0.85 0.8124
H2_4 H 0.1651 0.9763 0.7554
N3_4 N 0.3143(4) 0.9390(5) 0.9299(7)
H3_4 H 0.3495 0.9692 0.9455
N4_4 N 0.2147(4) 0.8882(5) 0.6317(7)
H4_4 H 0.1806 0.8548 0.614
C2_4 C 0.2735(6) 0.9923(7) 0.9427(10)
H8_4 H 0.2439 0.9601 0.9495
C4_4 C 0.3525(5) 0.7676(6) 0.8842(10)
H9_4 H 0.3843 0.7313 0.8878
H10_4 H 0.3168 0.7345 0.8731
C8_4 C 0.3833(6) 0.8117(9) 0.9792(11)
H13_4 H 0.4174 0.8463 0.9873
C14_4 C 0.2975(6) 0.7788(7) 0.7063(10)
H18_4 H 0.2676 0.7377 0.7002
H19_4 H 0.3311 0.7515 0.7045
C15_4 C 0.2604(6) 0.8401(7) 0.6200(9)
H20_4 H 0.2911 0.8764 0.6204
H21_4 H 0.2362 0.8109 0.558
C16_4 C 0.1889(6) 0.9561(9) 0.5684(10)
H22_4 H 0.1628 0.9373 0.5008
H23_4 H 0.2245 0.9887 0.578
C17_4 C 0.3405(7) 0.8642(8) 0.9946(11)
H25_4 H 0.3041 0.8316 0.9818
C18_4 C 0.0870(6) 0.9629(9) 0.5526(13)
H26_4 H 0.094 0.9279 0.6049
H27_3 H 0.075 0.9289 0.4968
N6_4 N 0.6721(3) 0.1767(4) 0.1982(6)
H30_4 H 0.6368 0.15 0.1876
H31_4 H 0.8349 0.0237 0.2446
N8_4 N 0.6857(4) 0.0610(5) 0.0701(7)
H32_4 H 0.6505 0.0308 0.0545
N9_4 N 0.7853(4) 0.1118(5) 0.3683(7)
H33_4 H 0.8194 0.1452 0.386
C21_4 C 0.7265(6) 0.0077(7) 0.0573(10)
H37_4 H 0.7561 0.0399 0.0505
O7_4 O 0.7942(3) 0.1860(3) 0.2185(5)
C23_4 C 0.6475(5) 0.2324(6) 0.1158(10)
H38_4 H 0.6157 0.2687 0.1122
H39_4 H 0.6832 0.2655 0.1269
C27_4 C 0.6167(6) 0.1883(9) 0.0208(11)
H42_4 H 0.5826 0.1537 0.0127
C33_4 C 0.7025(6) 0.2212(7) 0.2937(10)
H47_4 H 0.7324 0.2623 0.2998
H48_4 H 0.6689 0.2485 0.2955
C34_4 C 0.7396(6) 0.1599(7) 0.3800(9)
H49_4 H 0.7089 0.1236 0.3796
H50_4 H 0.7638 0.1891 0.442
C35_4 C 0.8111(6) 0.0439(9) 0.4316(10)
H51_4 H 0.8372 0.0627 0.4992
H52_4 H 0.7755 0.0113 0.422
C36_4 C 0.6595(7) 0.1358(8) 0.0054(11)
H54_4 H 0.6959 0.1684 0.0182
C37_4 C 0.9130(6) 0.0371(9) 0.4474(13)
H55_4 H 0.906 0.0721 0.3951
H56_3 H 0.925 0.0711 0.5032
Ni2_4 Ni 0.73657(5) 0.08900(6) 0.21959(10)
N7_4 N 0.8005(4) 0.9992(4) 0.2395(7)
C20_4 C 0.7664(7) 0.9509(7) 0.1512(12)
H34_4 H 0.7975 0.9187 0.1478
H35_4 H 0.7369 0.9137 0.1524
O9_4 O 0.6827(3) 0.9905(3) 0.2318(5)
N10_4 N 0.8531(4) 0.9907(6) 0.4136(9)
C26_4 C 0.8260(5) 0.9462(7) 0.3251(12)
H40_4 H 0.8593 0.9109 0.3315
H41_4 H 0.7911 0.9118 0.3145
C38_4 C 0.9694(7) 0.9728(11) 0.4779(15)
H57_4 H 0.9605 0.9429 0.4211
H58_3 H 0.9744 0.9343 0.5261
C22_3 C 0.1065(4) 0.4059(4) 0.2316(7)
C24_3 C 0.1284(4) 0.4869(5) 0.2151(8)
O10_3 O 0.1389(4) 0.1221(4) 0.3061(7)
C25_3 C 0.1596(4) 0.1874(6) 0.2887(8)
O11_3 O 0.0884(4) 0.5470(4) 0.1852(7)
C28_3 C 0.0502(4) 0.4036(5) 0.2293(7)
H44_3 H 0.0266 0.4515 0.216
C29_3 C 0.0640(3) 0.2620(4) 0.2659(6)
H45_3 H 0.0506 0.214 0.2792
C30_3 C 0.1427(4) 0.3352(5) 0.2527(6)
H46_3 H 0.1816 0.3374 0.258
C31_3 C 0.1220(4) 0.2618(5) 0.2660(7)
C32_3 C 0.0282(3) 0.3338(4) 0.2460(6)
C3_3 C 0.8935(4) 0.4059(4) 0.2684(7)
C5_3 C 0.8716(4) 0.4869(5) 0.2849(8)
O3_3 O 0.8611(4) 0.1221(4) 0.1939(7)
C6_3 C 0.8404(4) 0.1874(6) 0.2113(8)
O4_3 O 0.9116(4) 0.5470(4) 0.3148(7)
C9_3 C 0.9498(4) 0.4036(5) 0.2707(7)
H15_3 H 0.9734 0.4515 0.284
C10_3 C 0.9360(3) 0.2620(4) 0.2341(6)
H16_3 H 0.9494 0.214 0.2208
C11_3 C 0.8573(4) 0.3352(5) 0.2473(6)
H17_3 H 0.8184 0.3374 0.242
C12_3 C 0.8780(4) 0.2618(5) 0.2340(7)
C13_3 C 0.9718(3) 0.3338(4) 0.2540(6)
O4_4 O 0.4116(4) 0.0470(4) 0.3148(7)
O11_4 O 0.5884(4) 0.0470(4) 0.1852(7)
C3_4 C 0.3935(4) 0.9059(4) 0.2684(7)
C5_4 C 0.3716(4) 0.9869(5) 0.2849(8)
O3_4 O 0.3611(4) 0.6221(4) 0.1939(7)
C6_4 C 0.3404(4) 0.6874(6) 0.2113(8)
C9_4 C 0.4498(4) 0.9036(5) 0.2707(7)
H15_4 H 0.4734 0.9515 0.284
C10_4 C 0.4360(3) 0.7620(4) 0.2341(6)
H16_4 H 0.4494 0.714 0.2208
C11_4 C 0.3573(4) 0.8352(5) 0.2473(6)
H17_4 H 0.3184 0.8374 0.242
C12_4 C 0.3780(4) 0.7618(5) 0.2340(7)
C13_4 C 0.4718(3) 0.8338(4) 0.2540(6)
C22_4 C 0.6065(4) 0.9059(4) 0.2316(7)
C24_4 C 0.6284(4) 0.9869(5) 0.2151(8)
O10_4 O 0.6389(4) 0.6221(4) 0.3061(7)
C25_4 C 0.6596(4) 0.6874(6) 0.2887(8)
C28_4 C 0.5502(4) 0.9036(5) 0.2293(7)
H44_4 H 0.5266 0.9515 0.216
C29_4 C 0.5640(3) 0.7620(4) 0.2659(6)
H45_4 H 0.5506 0.714 0.2792
C30_4 C 0.6427(4) 0.8352(5) 0.2527(6)
H46_4 H 0.6816 0.8374 0.258
C31_4 C 0.6220(4) 0.7618(5) 0.2660(7)
C32_4 C 0.5282(3) 0.8338(4) 0.2460(6)
H7_3 H 0.8003 0.5253 0.0014
H14_3 H 0.9042 0.2715 0.0315
H24_3 H 0.8654 0.3812 0.0628
H36_3 H 0.1997 0.4747 0.9986
H43_3 H 0.0958 0.7285 0.9685
H53_3 H 0.1346 0.6188 0.9372
H56_4 H 0.075 0.0711 0.9968
H58_4 H 0.0256 0.9343 0.9739
H29_4 H 0.9744 0.0657 0.0261
H27_4 H 0.925 0.9289 0.0032
H7_4 H 0.3003 0.0253 0.0014
H14_4 H 0.4042 0.7715 0.0315
H24_4 H 0.3654 0.8812 0.0628
H43_4 H 0.5958 0.2285 0.9685
H53_4 H 0.6346 0.1188 0.9372
H36_4 H 0.6997 0.9747 0.9986
loop_
_geom_bond_atom_site_label_1
_geom_bond_atom_site_label_2
_geom_bond_site_symmetry_1
_geom_bond_site_symmetry_2
N6 H30 1_555 1_555
N7 H31 1_555 1_555
N8 H32 1_555 1_555
N9 H33 1_555 1_555
C20 N7 1_555 1_555
H34 C20 1_555 1_555
H35 C20 1_555 1_555
C21 N8 1_555 1_555
H36 C21 1_555 1_555
H37 C21 1_555 1_555
O7 Ni2 1_555 1_555
C23 N6 1_555 1_555
H38 C23 1_555 1_555
H39 C23 1_555 1_555
O9 Ni2 1_555 1_555
N10 C26 1_555 1_555
C26 N7 1_555 1_555
H40 C26 1_555 1_555
H41 C26 1_555 1_555
C27 C23 1_555 1_555
H42 C27 1_555 1_555
H43 C27 1_555 1_555
C33 N6 1_555 1_555
H47 C33 1_555 1_555
H48 C33 1_555 1_555
C34 N9 1_555 1_555
H49 C34 1_555 1_555
H50 C34 1_555 1_555
C35 N9 1_555 1_555
H51 C35 1_555 1_555
H52 C35 1_555 1_555
C36 N8 1_555 1_555
H53 C36 1_555 1_555
H54 C36 1_555 1_555
C37 N10 1_555 1_555
H55 C37 1_555 1_555
H57 C38 1_555 1_555
Ni2 N6 1_555 1_555
N7 Ni2 1_555 1_555
N8 Ni2 1_555 1_555
N9 Ni2 1_555 1_555
C20 C21 1_555 1_555
N10 C35 1_555 1_555
C27 C36 1_555 1_555
C33 C34 1_555 1_555
C37 C38 1_555 1_555
N1 H1 1_555 1_555
N2 H2 1_555 1_555
N3 H3 1_555 1_555
N4 H4 1_555 1_555
C1 N2 1_555 1_555
H5 C1 1_555 1_555
H6 C1 1_555 1_555
C2 N3 1_555 1_555
H7 C2 1_555 1_555
H8 C2 1_555 1_555
C3 C5 1_555 1_555
O1 C6 1_555 1_555
C4 N1 1_555 1_555
H9 C4 1_555 1_555
H10 C4 1_555 1_555
O2 C5 1_555 1_555
C5 O4 1_555 1_555
O3 C6 1_555 1_555
N5 C7 1_555 1_555
C6 C12 1_555 1_555
C7 N2 1_555 1_555
H11 C7 1_555 1_555
H12 C7 1_555 1_555
C8 C4 1_555 1_555
H13 C8 1_555 1_555
H14 C8 1_555 1_555
C9 C3 1_555 1_555
H15 C9 1_555 1_555
C10 H16 1_555 1_555
C11 C3 1_555 1_555
H17 C11 1_555 1_555
C12 C10 1_555 1_555
C13 C9 1_555 1_555
C14 N1 1_555 1_555
H18 C14 1_555 1_555
H19 C14 1_555 1_555
C15 N4 1_555 1_555
H20 C15 1_555 1_555
H21 C15 1_555 1_555
C16 N4 1_555 1_555
H22 C16 1_555 1_555
H23 C16 1_555 1_555
C17 N3 1_555 1_555
H24 C17 1_555 1_555
H25 C17 1_555 1_555
C18 N5 1_555 1_555
H26 C18 1_555 1_555
C19 C18 1_555 1_555
H28 C19 1_555 1_555
Ni1 N1 1_555 1_555
O6 Ni1 1_555 1_555
Ni4 O1 1_555 1_555
N2 Ni1 1_555 1_555
N3 Ni1 1_555 1_555
N4 Ni1 1_555 1_555
C1 C2 1_555 1_555
O2 Ni1 1_555 1_555
N5 C16 1_555 1_555
C8 C17 1_555 1_555
C10 C13 1_555 1_555
C11 C12 1_555 1_555
C14 C15 1_555 1_555
C22 C24 1_555 1_555
O5 C25 1_555 1_555
O8 C24 1_555 1_555
C24 O11 1_555 1_555
O10 C25 1_555 1_555
C25 C31 1_555 1_555
C28 C22 1_555 1_555
H44 C28 1_555 1_555
C29 H45 1_555 1_555
C30 C22 1_555 1_555
H46 C30 1_555 1_555
C31 C29 1_555 1_555
Ni3 O8 1_555 1_555
Ni5 O5 1_555 1_555
C28 C32 1_555 1_555
C29 C32 1_555 1_555
C30 C31 1_555 1_555
N1_2 H1_2 1_555 1_555
N2_2 H2_2 1_555 1_555
N3_2 H3_2 1_555 1_555
N4_2 H4_2 1_555 1_555
C1_2 N2_2 1_555 1_555
H5_2 C1_2 1_555 1_555
H6_2 C1_2 1_555 1_555
C2_2 N3_2 1_555 1_555
H8_2 C2_2 1_555 1_555
C4_2 N1_2 1_555 1_555
H9_2 C4_2 1_555 1_555
H10_2 C4_2 1_555 1_555
N5_2 C7_2 1_555 1_555
C7_2 N2_2 1_555 1_555
H11_2 C7_2 1_555 1_555
H12_2 C7_2 1_555 1_555
C8_2 C4_2 1_555 1_555
H13_2 C8_2 1_555 1_555
C14_2 N1_2 1_555 1_555
H18_2 C14_2 1_555 1_555
H19_2 C14_2 1_555 1_555
C15_2 N4_2 1_555 1_555
H20_2 C15_2 1_555 1_555
H21_2 C15_2 1_555 1_555
C16_2 N4_2 1_555 1_555
H22_2 C16_2 1_555 1_555
H23_2 C16_2 1_555 1_555
C17_2 N3_2 1_555 1_555
H25_2 C17_2 1_555 1_555
C18_2 N5_2 1_555 1_555
H26_2 C18_2 1_555 1_555
H27_2 C18_2 1_555 1_555
C19_2 C18_2 1_555 1_555
H28_2 C19_2 1_555 1_555
H29_2 C19_2 1_555 1_555
Ni3 N1_2 1_555 1_555
N6_2 H30_2 1_555 1_555
N7_2 H31_2 1_555 1_555
N8_2 H32_2 1_555 1_555
N9_2 H33_2 1_555 1_555
C20_2 N7_2 1_555 1_555
H34_2 C20_2 1_555 1_555
H35_2 C20_2 1_555 1_555
C21_2 N8_2 1_555 1_555
H37_2 C21_2 1_555 1_555
O6_2 Ni3 1_555 1_555
O7_2 Ni2_2 1_555 1_555
C23_2 N6_2 1_555 1_555
H38_2 C23_2 1_555 1_555
H39_2 C23_2 1_555 1_555
O9_2 Ni2_2 1_555 1_555
N10_2 C26_2 1_555 1_555
C26_2 N7_2 1_555 1_555
H40_2 C26_2 1_555 1_555
H41_2 C26_2 1_555 1_555
C27_2 C23_2 1_555 1_555
H42_2 C27_2 1_555 1_555
C33_2 N6_2 1_555 1_555
H47_2 C33_2 1_555 1_555
H48_2 C33_2 1_555 1_555
C34_2 N9_2 1_555 1_555
H49_2 C34_2 1_555 1_555
H50_2 C34_2 1_555 1_555
C35_2 N9_2 1_555 1_555
H51_2 C35_2 1_555 1_555
H52_2 C35_2 1_555 1_555
C36_2 N8_2 1_555 1_555
H54_2 C36_2 1_555 1_555
C37_2 N10_2 1_555 1_555
H55_2 C37_2 1_555 1_555
H56_2 C37_2 1_555 1_555
C38_2 C19_2 1_555 1_555
H57_2 C38_2 1_555 1_555
H58_2 C38_2 1_555 1_555
Ni2_2 N6_2 1_555 1_555
N2_2 Ni3 1_555 1_555
N3_2 Ni3 1_555 1_555
N4_2 Ni3 1_555 1_555
C1_2 C2_2 1_555 1_555
N5_2 C16_2 1_555 1_555
C8_2 C17_2 1_555 1_555
C14_2 C15_2 1_555 1_555
N7_2 Ni2_2 1_555 1_555
N8_2 Ni2_2 1_555 1_555
N9_2 Ni2_2 1_555 1_555
C20_2 C21_2 1_555 1_555
N10_2 C35_2 1_555 1_555
C27_2 C36_2 1_555 1_555
C33_2 C34_2 1_555 1_555
C37_2 C38_2 1_555 1_555
N6_3 H30_3 1_555 1_555
N8_3 H32_3 1_555 1_555
N9_3 H33_3 1_555 1_555
C21_3 N8_3 1_555 1_555
H37_3 C21_3 1_555 1_555
O7_3 Ni2_3 1_555 1_555
C23_3 N6_3 1_555 1_555
H38_3 C23_3 1_555 1_555
H39_3 C23_3 1_555 1_555
C27_3 C23_3 1_555 1_555
H42_3 C27_3 1_555 1_555
H43_2 C27_3 1_555 1_555
C33_3 N6_3 1_555 1_555
H47_3 C33_3 1_555 1_555
H48_3 C33_3 1_555 1_555
C34_3 N9_3 1_555 1_555
H49_3 C34_3 1_555 1_555
H50_3 C34_3 1_555 1_555
C35_3 N9_3 1_555 1_555
H51_3 C35_3 1_555 1_555
H52_3 C35_3 1_555 1_555
C36_3 N8_3 1_555 1_555
H53_2 C36_3 1_555 1_555
H54_3 C36_3 1_555 1_555
H55_3 C37_3 1_555 1_555
Ni2_3 N6_3 1_555 1_555
N8_3 Ni2_3 1_555 1_555
N9_3 Ni2_3 1_555 1_555
C27_3 C36_3 1_555 1_555
C33_3 C34_3 1_555 1_555
C20_3 N7_3 1_555 1_555
H34_3 C20_3 1_555 1_555
H35_3 C20_3 1_555 1_555
N10_3 C26_3 1_555 1_555
C26_3 N7_3 1_555 1_555
H40_3 C26_3 1_555 1_555
H41_3 C26_3 1_555 1_555
H57_3 C38_3 1_555 1_555
C1_3 N2_3 1_555 1_555
H5_3 C1_3 1_555 1_555
H6_3 C1_3 1_555 1_555
C3_2 C5_2 1_555 1_555
O6_2 C6_2 1_555 1_555
O2_2 C5_2 1_555 1_555
O3_2 C6_2 1_555 1_555
N5_3 C7_3 1_555 1_555
C6_2 C12_2 1_555 1_555
C7_3 N2_3 1_555 1_555
H11_3 C7_3 1_555 1_555
H12_3 C7_3 1_555 1_555
C9_2 C3_2 1_555 1_555
H15_2 C9_2 1_555 1_555
C10_2 H16_2 1_555 1_555
C11_2 C3_2 1_555 1_555
H17_2 C11_2 1_555 1_555
C12_2 C10_2 1_555 1_555
C13_2 C9_2 1_555 1_555
H28_3 C19_3 1_555 1_555
C22_2 C24_2 1_555 1_555
O6 C25_2 1_555 1_555
O8_2 C24_2 1_555 1_555
O10_2 C25_2 1_555 1_555
C25_2 C31_2 1_555 1_555
C28_2 C22_2 1_555 1_555
H44_2 C28_2 1_555 1_555
C29_2 H45_2 1_555 1_555
C30_2 C22_2 1_555 1_555
H46_2 C30_2 1_555 1_555
C31_2 C29_2 1_555 1_555
C32_2 C13_2 1_555 1_555
C10_2 C13_2 1_555 1_555
C11_2 C12_2 1_555 1_555
C28_2 C32_2 1_555 1_555
C29_2 C32_2 1_555 1_555
C30_2 C31_2 1_555 1_555
N1_3 H1_3 1_555 1_555
N3_3 H3_3 1_555 1_555
N4_3 H4_3 1_555 1_555
C2_3 N3_3 1_555 1_555
H8_3 C2_3 1_555 1_555
C4_3 N1_3 1_555 1_555
H9_3 C4_3 1_555 1_555
H10_3 C4_3 1_555 1_555
C8_3 C4_3 1_555 1_555
H13_3 C8_3 1_555 1_555
H14_2 C8_3 1_555 1_555
C14_3 N1_3 1_555 1_555
H18_3 C14_3 1_555 1_555
H19_3 C14_3 1_555 1_555
C15_3 N4_3 1_555 1_555
H20_3 C15_3 1_555 1_555
H21_3 C15_3 1_555 1_555
C16_3 N4_3 1_555 1_555
H22_3 C16_3 1_555 1_555
H23_3 C16_3 1_555 1_555
C17_3 N3_3 1_555 1_555
H24_2 C17_3 1_555 1_555
H25_3 C17_3 1_555 1_555
H26_3 C18_3 1_555 1_555
Ni5 N1_3 1_555 1_555
N3_3 Ni5 1_555 1_555
N4_3 Ni5 1_555 1_555
C8_3 C17_3 1_555 1_555
C14_3 C15_3 1_555 1_555
C1_4 N2_4 1_555 1_555
H5_4 C1_4 1_555 1_555
H6_4 C1_4 1_555 1_555
N5_4 C7_4 1_555 1_555
C7_4 N2_4 1_555 1_555
H11_4 C7_4 1_555 1_555
H12_4 C7_4 1_555 1_555
H28_4 C19_4 1_555 1_555
H29_3 C19_4 1_555 1_555
N1_4 H1_4 1_555 1_555
N3_4 H3_4 1_555 1_555
N4_4 H4_4 1_555 1_555
C2_4 N3_4 1_555 1_555
H8_4 C2_4 1_555 1_555
C4_4 N1_4 1_555 1_555
H9_4 C4_4 1_555 1_555
H10_4 C4_4 1_555 1_555
C8_4 C4_4 1_555 1_555
H13_4 C8_4 1_555 1_555
C14_4 N1_4 1_555 1_555
H18_4 C14_4 1_555 1_555
H19_4 C14_4 1_555 1_555
C15_4 N4_4 1_555 1_555
H20_4 C15_4 1_555 1_555
H21_4 C15_4 1_555 1_555
C16_4 N4_4 1_555 1_555
H22_4 C16_4 1_555 1_555
H23_4 C16_4 1_555 1_555
C17_4 N3_4 1_555 1_555
H25_4 C17_4 1_555 1_555
H26_4 C18_4 1_555 1_555
H27_3 C18_4 1_555 1_555
Ni4 N1_4 1_555 1_555
N3_4 Ni4 1_555 1_555
N4_4 Ni4 1_555 1_555
C8_4 C17_4 1_555 1_555
C14_4 C15_4 1_555 1_555
N6_4 H30_4 1_555 1_555
N8_4 H32_4 1_555 1_555
N9_4 H33_4 1_555 1_555
C21_4 N8_4 1_555 1_555
H37_4 C21_4 1_555 1_555
O7_4 Ni2_4 1_555 1_555
C23_4 N6_4 1_555 1_555
H38_4 C23_4 1_555 1_555
H39_4 C23_4 1_555 1_555
C27_4 C23_4 1_555 1_555
H42_4 C27_4 1_555 1_555
C33_4 N6_4 1_555 1_555
H47_4 C33_4 1_555 1_555
H48_4 C33_4 1_555 1_555
C34_4 N9_4 1_555 1_555
H49_4 C34_4 1_555 1_555
H50_4 C34_4 1_555 1_555
C35_4 N9_4 1_555 1_555
H51_4 C35_4 1_555 1_555
H52_4 C35_4 1_555 1_555
C36_4 N8_4 1_555 1_555
H54_4 C36_4 1_555 1_555
H55_4 C37_4 1_555 1_555
H56_3 C37_4 1_555 1_555
Ni2_4 N6_4 1_555 1_555
N8_4 Ni2_4 1_555 1_555
N9_4 Ni2_4 1_555 1_555
C27_4 C36_4 1_555 1_555
C33_4 C34_4 1_555 1_555
C20_4 N7_4 1_555 1_555
H34_4 C20_4 1_555 1_555
H35_4 C20_4 1_555 1_555
N10_4 C26_4 1_555 1_555
C26_4 N7_4 1_555 1_555
H40_4 C26_4 1_555 1_555
H41_4 C26_4 1_555 1_555
H57_4 C38_4 1_555 1_555
H58_3 C38_4 1_555 1_555
C22_3 C24_3 1_555 1_555
O7_3 C25_3 1_555 1_555
O9_2 C24_3 1_555 1_555
C24_3 O11_3 1_555 1_555
O10_3 C25_3 1_555 1_555
C25_3 C31_3 1_555 1_555
C28_3 C22_3 1_555 1_555
H44_3 C28_3 1_555 1_555
C29_3 H45_3 1_555 1_555
C30_3 C22_3 1_555 1_555
H46_3 C30_3 1_555 1_555
C31_3 C29_3 1_555 1_555
C28_3 C32_3 1_555 1_555
C29_3 C32_3 1_555 1_555
C30_3 C31_3 1_555 1_555
C3_3 C5_3 1_555 1_555
O7_4 C6_3 1_555 1_555
O9 C5_3 1_555 1_555
C5_3 O4_3 1_555 1_555
O3_3 C6_3 1_555 1_555
C6_3 C12_3 1_555 1_555
C9_3 C3_3 1_555 1_555
H15_3 C9_3 1_555 1_555
C10_3 H16_3 1_555 1_555
C11_3 C3_3 1_555 1_555
H17_3 C11_3 1_555 1_555
C12_3 C10_3 1_555 1_555
C13_3 C9_3 1_555 1_555
C10_3 C13_3 1_555 1_555
C11_3 C12_3 1_555 1_555
C3_4 C5_4 1_555 1_555
O7_2 C6_4 1_555 1_555
O9_3 C5_4 1_555 1_555
O3_4 C6_4 1_555 1_555
C6_4 C12_4 1_555 1_555
C9_4 C3_4 1_555 1_555
H15_4 C9_4 1_555 1_555
C10_4 H16_4 1_555 1_555
C11_4 C3_4 1_555 1_555
H17_4 C11_4 1_555 1_555
C12_4 C10_4 1_555 1_555
C13_4 C9_4 1_555 1_555
C22_4 C24_4 1_555 1_555
O7 C25_4 1_555 1_555
O9_4 C24_4 1_555 1_555
O10_4 C25_4 1_555 1_555
C25_4 C31_4 1_555 1_555
C28_4 C22_4 1_555 1_555
H44_4 C28_4 1_555 1_555
C29_4 H45_4 1_555 1_555
C30_4 C22_4 1_555 1_555
H46_4 C30_4 1_555 1_555
C31_4 C29_4 1_555 1_555
C32_4 C13_4 1_555 1_555
C10_4 C13_4 1_555 1_555
C11_4 C12_4 1_555 1_555
C28_4 C32_4 1_555 1_555
C29_4 C32_4 1_555 1_555
C30_4 C31_4 1_555 1_555

#END
