
###############################################################################
#
# This file contains modified crystal structure data generated from the
# MOF subset of the Cambridge Structural Database (CSD) v543 
# hosted by the Cambridge Crystallographic Data Centre (CCDC).
#
# This work is licensed under the Creative Commons
# Attribution-NonCommercial-ShareAlike 4.0 International License.
# To view a copy of this license, visit
# http://creativecommons.org/licenses/by-nc-sa/4.0/
# or send a letter to
# Creative Commons, PO Box 1866, Mountain View, CA 94042, USA.
#
# CIF created using the CSD Python API on 29 September 2022
# The structure has been converted into the P1 space group
# The structure has a 3D framework
# The original CSD entry TUDMAH is in the monoclinic crystal system
# The framework has been calculated to contain at least 10.0% void space
# The void calculation uses a probe of radius 1.32A, grid spacing 0.4
#
###############################################################################

data_TUDMAH
_chemical_formula_moiety         '(C144 H216 N40 Ni8 O32)n'
_symmetry_cell_setting           triclinic
_symmetry_space_group_name_H-M   'P 1'
_symmetry_Int_Tables_number      1
_space_group_name_Hall           'P 1'
loop_
_symmetry_equiv_pos_site_id
_symmetry_equiv_pos_as_xyz
1 x,y,z
_cell_length_a                   25.2087(5)
_cell_length_b                   16.2843(3)
_cell_length_c                   19.9379(4)
_cell_angle_alpha                90
_cell_angle_beta                 119.319(1)
_cell_angle_gamma                90
_cell_volume                     7136.23
loop_
_atom_site_label
_atom_site_type_symbol
_atom_site_fract_x
_atom_site_fract_y
_atom_site_fract_z
C1 C 0.13565(14) 0.61267(19) 0.0914(2)
H1 H 0.119 0.5837 0.0428
H2 H 0.1041 0.6476 0.0905
C2 C 0.26402(14) 0.7531(2) 0.04233(18)
H3 H 0.3004 0.7866 0.062
H4 H 0.276 0.6987 0.0647
C3 C 0.15706(14) 0.55175(17) 0.1571(2)
H5 H 0.1227 0.5205 0.1527
H6 H 0.1858 0.5137 0.1551
C4 C 0.21706(16) 0.54399(17) 0.2993(2)
H7 H 0.2474 0.5105 0.2957
H8 H 0.1876 0.5074 0.3015
C5 C 0.2476(2) 0.5941(2) 0.3726(2)
H9 H 0.2181 0.6326 0.3721
H10 H 0.259 0.5573 0.4158
C6 C 0.30225(17) 0.6405(2) 0.3859(2)
H11 H 0.3291 0.6045 0.3774
H12 H 0.3239 0.6586 0.439
C7 C 0.33878(14) 0.76248(19) 0.3445(2)
H13 H 0.37 0.7271 0.3451
H14 H 0.3561 0.7917 0.3931
C8 C 0.31711(14) 0.82408(16) 0.2778(2)
H15 H 0.289 0.863 0.2803
H16 H 0.3516 0.8543 0.2814
C9 C 0.25177(13) 0.83180(15) 0.13846(18)
H17 H 0.2215 0.8609 0.146
H18 H 0.2789 0.8725 0.136
C10 C 0.17101(13) 0.73726(18) 0.05449(18)
H19 H 0.1495 0.7205 0.001
H20 H 0.143 0.7691 0.0642
C11 C 0.36945(12) 0.28453(14) 0.2776(2)
C12 C 0.39293(9) 0.36565(12) 0.26606(15)
C13 C 0.44815(9) 0.36664(12) 0.26491(14)
H21 H 0.4703 0.3183 0.2739
C14 C 0.47021(8) 0.43882(11) 0.25050(12)
C15 C 0.43696(9) 0.51015(12) 0.23712(14)
H22 H 0.4513 0.5587 0.2272
C16 C 0.38164(9) 0.51050(12) 0.23831(14)
C17 C 0.36017(9) 0.43825(12) 0.25254(13)
H23 H 0.3235 0.4381 0.2531
C18 C 0.34647(10) 0.59031(14) 0.22247(16)
N1 N 0.18839(10) 0.66328(14) 0.10296(15)
H24 H 0.2119 0.6318 0.0902
N2 N 0.18587(10) 0.59621(12) 0.22969(15)
H25 H 0.1553 0.6223 0.2331
N3 N 0.28698(11) 0.71308(15) 0.33462(15)
H26 H 0.2633 0.7464 0.3457
N4 N 0.28699(9) 0.77930(11) 0.20522(13)
H27 H 0.3166 0.7552 0.1985
N5 N 0.22153(11) 0.78993(15) 0.06634(15)
O1 O 0.39718(14) 0.22236(12) 0.2774(3)
O2 O 0.32369(7) 0.28513(9) 0.28589(11)
O3 O 0.30023(7) 0.59104(9) 0.23015(11)
O4 O 0.36596(11) 0.65017(12) 0.20272(19)
Ni1 Ni 0.237654(12) 0.686540(15) 0.219017(19)
C29 C 0.63055(12) 0.28453(14) 0.2224(2)
C30 C 0.60707(9) 0.36565(12) 0.23394(15)
C31 C 0.55185(9) 0.36664(12) 0.23509(14)
H48 H 0.5297 0.3183 0.2261
C32 C 0.52979(8) 0.43882(11) 0.24950(12)
C33 C 0.56304(9) 0.51015(12) 0.26288(14)
H49 H 0.5487 0.5587 0.2728
C34 C 0.61836(9) 0.51050(12) 0.26169(14)
C35 C 0.63983(9) 0.43825(12) 0.24746(13)
H50 H 0.6765 0.4381 0.2469
C36 C 0.65353(10) 0.59031(14) 0.27753(16)
O5 O 0.60282(14) 0.22236(12) 0.2226(3)
O6 O 0.67631(7) 0.28513(9) 0.21411(11)
O7 O 0.17631(7) 0.78513(9) 0.21411(11)
O9 O 0.69977(7) 0.59104(9) 0.26985(11)
O11 O 0.63404(11) 0.65017(12) 0.29728(19)
Ni2 Ni 0.762346(12) 0.686540(15) 0.280983(19)
Ni4 Ni 0.262346(12) 0.186540(15) 0.280983(19)
Ni5 Ni 0.737654(12) 0.186540(15) 0.219017(19)
C19 C 0.36435(14) 0.88733(19) 0.9086(2)
H28 H 0.381 0.9163 0.9572
H29 H 0.3959 0.8524 0.9095
C20 C 0.23598(14) 0.7469(2) 0.95767(18)
H30 H 0.1996 0.7134 0.938
H31 H 0.224 0.8013 0.9353
C21 C 0.34294(14) 0.94825(17) 0.8429(2)
H32 H 0.3773 0.9795 0.8473
H33 H 0.3142 0.9863 0.8449
C22 C 0.28294(16) 0.95601(17) 0.7007(2)
H34 H 0.2526 0.9895 0.7043
H35 H 0.3124 0.9926 0.6985
C23 C 0.2524(2) 0.9059(2) 0.6274(2)
H36 H 0.2819 0.8674 0.6279
H37 H 0.241 0.9427 0.5842
C24 C 0.19775(17) 0.8595(2) 0.6141(2)
H38 H 0.1709 0.8955 0.6226
H39 H 0.1761 0.8414 0.561
C25 C 0.16122(14) 0.73752(19) 0.6555(2)
H40 H 0.13 0.7729 0.6549
H41 H 0.1439 0.7083 0.6069
C26 C 0.18289(14) 0.67592(16) 0.7222(2)
H42 H 0.211 0.637 0.7197
H43 H 0.1484 0.6457 0.7186
C27 C 0.24823(13) 0.66820(15) 0.86154(18)
H44 H 0.2785 0.6391 0.854
H45 H 0.2211 0.6275 0.864
C28 C 0.32899(13) 0.76274(18) 0.94551(18)
H46 H 0.3505 0.7795 0.999
H47 H 0.357 0.7309 0.9358
N6 N 0.31161(10) 0.83672(14) 0.89704(15)
H51 H 0.2881 0.8682 0.9098
N7 N 0.31413(10) 0.90379(12) 0.77031(15)
H52 H 0.3447 0.8777 0.7669
N8 N 0.21302(11) 0.78692(15) 0.66538(15)
H53 H 0.2367 0.7536 0.6543
N9 N 0.21301(9) 0.72070(11) 0.79478(13)
H54 H 0.1834 0.7448 0.8015
N10 N 0.27847(11) 0.71007(15) 0.93366(15)
O8 O 0.32369(7) 0.71487(9) 0.78589(11)
O10 O 0.19977(7) 0.90896(9) 0.76985(11)
Ni3 Ni 0.262346(12) 0.813460(15) 0.780983(19)
C1_2 C 0.86435(14) 0.61267(19) 0.4086(2)
H1_2 H 0.881 0.5837 0.4572
H2_2 H 0.8959 0.6476 0.4095
C2_2 C 0.73598(14) 0.7531(2) 0.45767(18)
H3_2 H 0.6996 0.7866 0.438
H4_2 H 0.724 0.6987 0.4353
C3_2 C 0.84294(14) 0.55175(17) 0.3429(2)
H5_2 H 0.8773 0.5205 0.3473
H6_2 H 0.8142 0.5137 0.3449
C4_2 C 0.78294(16) 0.54399(17) 0.2007(2)
H7_2 H 0.7526 0.5105 0.2043
H8_2 H 0.8124 0.5074 0.1985
C5_2 C 0.7524(2) 0.5941(2) 0.1274(2)
H9_2 H 0.7819 0.6326 0.1279
H10_2 H 0.741 0.5573 0.0842
C6_2 C 0.69775(17) 0.6405(2) 0.1141(2)
H11_2 H 0.6709 0.6045 0.1226
H12_2 H 0.6761 0.6586 0.061
C7_2 C 0.66122(14) 0.76248(19) 0.1555(2)
H13_2 H 0.63 0.7271 0.1549
H14_2 H 0.6439 0.7917 0.1069
C8_2 C 0.68289(14) 0.82408(16) 0.2222(2)
H15_2 H 0.711 0.863 0.2197
H16_2 H 0.6484 0.8543 0.2186
C9_2 C 0.74823(13) 0.83180(15) 0.36154(18)
H17_2 H 0.7785 0.8609 0.354
H18_2 H 0.7211 0.8725 0.364
C10_2 C 0.82899(13) 0.73726(18) 0.44551(18)
H19_2 H 0.8505 0.7205 0.499
H20_2 H 0.857 0.7691 0.4358
N1_2 N 0.81161(10) 0.66328(14) 0.39704(15)
H24_2 H 0.7881 0.6318 0.4098
N2_2 N 0.81413(10) 0.59621(12) 0.27031(15)
H25_2 H 0.8447 0.6223 0.2669
N3_2 N 0.71302(11) 0.71308(15) 0.16538(15)
H26_2 H 0.7367 0.7464 0.1543
N4_2 N 0.71301(9) 0.77930(11) 0.29478(13)
H27_2 H 0.6834 0.7552 0.3015
N5_2 N 0.77847(11) 0.78993(15) 0.43366(15)
C19_2 C 0.63565(14) 0.88733(19) 0.5914(2)
H28_2 H 0.619 0.9163 0.5428
H29_2 H 0.6041 0.8524 0.5905
C20_2 C 0.76402(14) 0.7469(2) 0.54233(18)
H30_2 H 0.8004 0.7134 0.562
H31_2 H 0.776 0.8013 0.5647
C21_2 C 0.65706(14) 0.94825(17) 0.6571(2)
H32_2 H 0.6227 0.9795 0.6527
H33_2 H 0.6858 0.9863 0.6551
C22_2 C 0.71706(16) 0.95601(17) 0.7993(2)
H34_2 H 0.7474 0.9895 0.7957
H35_2 H 0.6876 0.9926 0.8015
C23_2 C 0.7476(2) 0.9059(2) 0.8726(2)
H36_2 H 0.7181 0.8674 0.8721
H37_2 H 0.759 0.9427 0.9158
C24_2 C 0.80225(17) 0.8595(2) 0.8859(2)
H38_2 H 0.8291 0.8955 0.8774
H39_2 H 0.8239 0.8414 0.939
C25_2 C 0.83878(14) 0.73752(19) 0.8445(2)
H40_2 H 0.87 0.7729 0.8451
H41_2 H 0.8561 0.7083 0.8931
C26_2 C 0.81711(14) 0.67592(16) 0.7778(2)
H42_2 H 0.789 0.637 0.7803
H43_2 H 0.8516 0.6457 0.7814
C27_2 C 0.75177(13) 0.66820(15) 0.63846(18)
H44_2 H 0.7215 0.6391 0.646
H45_2 H 0.7789 0.6275 0.636
C28_2 C 0.67101(13) 0.76274(18) 0.55449(18)
H46_2 H 0.6495 0.7795 0.501
H47_2 H 0.643 0.7309 0.5642
N6_2 N 0.68839(10) 0.83672(14) 0.60296(15)
H51_2 H 0.7119 0.8682 0.5902
N7_2 N 0.68587(10) 0.90379(12) 0.72969(15)
H52_2 H 0.6553 0.8777 0.7331
N8_2 N 0.78698(11) 0.78692(15) 0.83462(15)
H53_2 H 0.7633 0.7536 0.8457
N9_2 N 0.78699(9) 0.72070(11) 0.70522(13)
H54_2 H 0.8166 0.7448 0.6985
N10_2 N 0.72153(11) 0.71007(15) 0.56634(15)
O7_2 O 0.82369(7) 0.78513(9) 0.28589(11)
O8_2 O 0.67631(7) 0.71487(9) 0.71411(11)
O10_2 O 0.80023(7) 0.90896(9) 0.73015(11)
Ni3_2 Ni 0.737654(12) 0.813460(15) 0.719017(19)
C33_2 C 0.06304(9) 0.01015(12) 0.26288(14)
H49_2 H 0.0487 0.0587 0.2728
C34_2 C 0.11836(9) 0.01050(12) 0.26169(14)
C36_2 C 0.15353(10) 0.09031(14) 0.27753(16)
O9_2 O 0.19977(7) 0.09104(9) 0.26985(11)
O11_2 O 0.13404(11) 0.15017(12) 0.29728(19)
C29_2 C 0.13055(12) 0.78453(14) 0.2224(2)
C30_2 C 0.10707(9) 0.86565(12) 0.23394(15)
C31_2 C 0.05185(9) 0.86664(12) 0.23509(14)
H48_2 H 0.0297 0.8183 0.2261
C32_2 C 0.02979(8) 0.93882(11) 0.24950(12)
C35_2 C 0.13983(9) 0.93825(12) 0.24746(13)
H50_2 H 0.1765 0.9381 0.2469
O5_2 O 0.10282(14) 0.72236(12) 0.2226(3)
C1_3 C 0.63565(14) 0.11267(19) 0.0914(2)
H1_3 H 0.619 0.0837 0.0428
H2_3 H 0.6041 0.1476 0.0905
C2_3 C 0.76402(14) 0.2531(2) 0.04233(18)
H3_3 H 0.8004 0.2866 0.062
H4_3 H 0.776 0.1987 0.0647
C3_3 C 0.65706(14) 0.05175(17) 0.1571(2)
H5_3 H 0.6227 0.0205 0.1527
H6_3 H 0.6858 0.0137 0.1551
C4_3 C 0.71706(16) 0.04399(17) 0.2993(2)
H7_3 H 0.7474 0.0105 0.2957
H8_3 H 0.6876 0.0074 0.3015
C5_3 C 0.7476(2) 0.0941(2) 0.3726(2)
H9_3 H 0.7181 0.1326 0.3721
H10_3 H 0.759 0.0573 0.4158
C6_3 C 0.80225(17) 0.1405(2) 0.3859(2)
H11_3 H 0.8291 0.1045 0.3774
H12_3 H 0.8239 0.1586 0.439
C7_3 C 0.83878(14) 0.26248(19) 0.3445(2)
H13_3 H 0.87 0.2271 0.3451
H14_3 H 0.8561 0.2917 0.3931
C8_3 C 0.81711(14) 0.32408(16) 0.2778(2)
H15_3 H 0.789 0.363 0.2803
H16_3 H 0.8516 0.3543 0.2814
C9_3 C 0.75177(13) 0.33180(15) 0.13846(18)
H17_3 H 0.7215 0.3609 0.146
H18_3 H 0.7789 0.3725 0.136
C10_3 C 0.67101(13) 0.23726(18) 0.05449(18)
H19_3 H 0.6495 0.2205 0.001
H20_3 H 0.643 0.2691 0.0642
C15_2 C 0.93696(9) 0.01015(12) 0.23712(14)
H22_2 H 0.9513 0.0587 0.2272
C16_2 C 0.88164(9) 0.01050(12) 0.23831(14)
C18_2 C 0.84647(10) 0.09031(14) 0.22247(16)
N1_3 N 0.68839(10) 0.16328(14) 0.10296(15)
H24_3 H 0.7119 0.1318 0.0902
N2_3 N 0.68587(10) 0.09621(12) 0.22969(15)
H25_3 H 0.6553 0.1223 0.2331
N3_3 N 0.78698(11) 0.21308(15) 0.33462(15)
H26_3 H 0.7633 0.2464 0.3457
N4_3 N 0.78699(9) 0.27930(11) 0.20522(13)
H27_3 H 0.8166 0.2552 0.1985
N5_3 N 0.72153(11) 0.28993(15) 0.06634(15)
O3_2 O 0.80023(7) 0.09104(9) 0.23015(11)
O4_2 O 0.86596(11) 0.15017(12) 0.20272(19)
C19_3 C 0.86435(14) 0.38733(19) 0.9086(2)
H28_3 H 0.881 0.4163 0.9572
H29_3 H 0.8959 0.3524 0.9095
C20_3 C 0.73598(14) 0.2469(2) 0.95767(18)
H30_3 H 0.6996 0.2134 0.938
H31_3 H 0.724 0.3013 0.9353
C21_3 C 0.84294(14) 0.44825(17) 0.8429(2)
H32_3 H 0.8773 0.4795 0.8473
H33_3 H 0.8142 0.4863 0.8449
C22_3 C 0.78294(16) 0.45601(17) 0.7007(2)
H34_3 H 0.7526 0.4895 0.7043
H35_3 H 0.8124 0.4926 0.6985
C23_3 C 0.7524(2) 0.4059(2) 0.6274(2)
H36_3 H 0.7819 0.3674 0.6279
H37_3 H 0.741 0.4427 0.5842
C24_3 C 0.69775(17) 0.3595(2) 0.6141(2)
H38_3 H 0.6709 0.3955 0.6226
H39_3 H 0.6761 0.3414 0.561
C25_3 C 0.66122(14) 0.23752(19) 0.6555(2)
H40_3 H 0.63 0.2729 0.6549
H41_3 H 0.6439 0.2083 0.6069
C26_3 C 0.68289(14) 0.17592(16) 0.7222(2)
H42_3 H 0.711 0.137 0.7197
H43_3 H 0.6484 0.1457 0.7186
C27_3 C 0.74823(13) 0.16820(15) 0.86154(18)
H44_3 H 0.7785 0.1391 0.854
H45_3 H 0.7211 0.1275 0.864
C28_3 C 0.82899(13) 0.26274(18) 0.94551(18)
H46_3 H 0.8505 0.2795 0.999
H47_3 H 0.857 0.2309 0.9358
N6_3 N 0.81161(10) 0.33672(14) 0.89704(15)
H51_3 H 0.7881 0.3682 0.9098
N7_3 N 0.81413(10) 0.40379(12) 0.77031(15)
H52_3 H 0.8447 0.3777 0.7669
N8_3 N 0.71302(11) 0.28692(15) 0.66538(15)
H53_3 H 0.7367 0.2536 0.6543
N9_3 N 0.71301(9) 0.22070(11) 0.79478(13)
H54_3 H 0.6834 0.2448 0.8015
N10_3 N 0.77847(11) 0.21007(15) 0.93366(15)
O8_3 O 0.82369(7) 0.21487(9) 0.78589(11)
O10_3 O 0.69977(7) 0.40896(9) 0.76985(11)
Ni3_3 Ni 0.762346(12) 0.313460(15) 0.780983(19)
C11_2 C 0.86945(12) 0.78453(14) 0.2776(2)
C12_2 C 0.89293(9) 0.86565(12) 0.26606(15)
C13_2 C 0.94815(9) 0.86664(12) 0.26491(14)
H21_2 H 0.9703 0.8183 0.2739
C14_2 C 0.97021(8) 0.93882(11) 0.25050(12)
C17_2 C 0.86017(9) 0.93825(12) 0.25254(13)
H23_2 H 0.8235 0.9381 0.2531
O1_2 O 0.89718(14) 0.72236(12) 0.2774(3)
C1_4 C 0.36435(14) 0.11267(19) 0.4086(2)
H1_4 H 0.381 0.0837 0.4572
H2_4 H 0.3959 0.1476 0.4095
C2_4 C 0.23598(14) 0.2531(2) 0.45767(18)
H3_4 H 0.1996 0.2866 0.438
H4_4 H 0.224 0.1987 0.4353
C3_4 C 0.34294(14) 0.05175(17) 0.3429(2)
H5_4 H 0.3773 0.0205 0.3473
H6_4 H 0.3142 0.0137 0.3449
C4_4 C 0.28294(16) 0.04399(17) 0.2007(2)
H7_4 H 0.2526 0.0105 0.2043
H8_4 H 0.3124 0.0074 0.1985
C5_4 C 0.2524(2) 0.0941(2) 0.1274(2)
H9_4 H 0.2819 0.1326 0.1279
H10_4 H 0.241 0.0573 0.0842
C6_4 C 0.19775(17) 0.1405(2) 0.1141(2)
H11_4 H 0.1709 0.1045 0.1226
H12_4 H 0.1761 0.1586 0.061
C7_4 C 0.16122(14) 0.26248(19) 0.1555(2)
H13_4 H 0.13 0.2271 0.1549
H14_4 H 0.1439 0.2917 0.1069
C8_4 C 0.18289(14) 0.32408(16) 0.2222(2)
H15_4 H 0.211 0.363 0.2197
H16_4 H 0.1484 0.3543 0.2186
C9_4 C 0.24823(13) 0.33180(15) 0.36154(18)
H17_4 H 0.2785 0.3609 0.354
H18_4 H 0.2211 0.3725 0.364
C10_4 C 0.32899(13) 0.23726(18) 0.44551(18)
H19_4 H 0.3505 0.2205 0.499
H20_4 H 0.357 0.2691 0.4358
N1_4 N 0.31161(10) 0.16328(14) 0.39704(15)
H24_4 H 0.2881 0.1318 0.4098
N2_4 N 0.31413(10) 0.09621(12) 0.27031(15)
H25_4 H 0.3447 0.1223 0.2669
N3_4 N 0.21302(11) 0.21308(15) 0.16538(15)
H26_4 H 0.2367 0.2464 0.1543
N4_4 N 0.21301(9) 0.27930(11) 0.29478(13)
H27_4 H 0.1834 0.2552 0.3015
N5_4 N 0.27847(11) 0.28993(15) 0.43366(15)
C19_4 C 0.13565(14) 0.38733(19) 0.5914(2)
H28_4 H 0.119 0.4163 0.5428
H29_4 H 0.1041 0.3524 0.5905
C20_4 C 0.26402(14) 0.2469(2) 0.54233(18)
H30_4 H 0.3004 0.2134 0.562
H31_4 H 0.276 0.3013 0.5647
C21_4 C 0.15706(14) 0.44825(17) 0.6571(2)
H32_4 H 0.1227 0.4795 0.6527
H33_4 H 0.1858 0.4863 0.6551
C22_4 C 0.21706(16) 0.45601(17) 0.7993(2)
H34_4 H 0.2474 0.4895 0.7957
H35_4 H 0.1876 0.4926 0.8015
C23_4 C 0.2476(2) 0.4059(2) 0.8726(2)
H36_4 H 0.2181 0.3674 0.8721
H37_4 H 0.259 0.4427 0.9158
C24_4 C 0.30225(17) 0.3595(2) 0.8859(2)
H38_4 H 0.3291 0.3955 0.8774
H39_4 H 0.3239 0.3414 0.939
C25_4 C 0.33878(14) 0.23752(19) 0.8445(2)
H40_4 H 0.37 0.2729 0.8451
H41_4 H 0.3561 0.2083 0.8931
C26_4 C 0.31711(14) 0.17592(16) 0.7778(2)
H42_4 H 0.289 0.137 0.7803
H43_4 H 0.3516 0.1457 0.7814
C27_4 C 0.25177(13) 0.16820(15) 0.63846(18)
H44_4 H 0.2215 0.1391 0.646
H45_4 H 0.2789 0.1275 0.636
C28_4 C 0.17101(13) 0.26274(18) 0.55449(18)
H46_4 H 0.1495 0.2795 0.501
H47_4 H 0.143 0.2309 0.5642
N6_4 N 0.18839(10) 0.33672(14) 0.60296(15)
H51_4 H 0.2119 0.3682 0.5902
N7_4 N 0.18587(10) 0.40379(12) 0.72969(15)
H52_4 H 0.1553 0.3777 0.7331
N8_4 N 0.28698(11) 0.28692(15) 0.83462(15)
H53_4 H 0.2633 0.2536 0.8457
N9_4 N 0.28699(9) 0.22070(11) 0.70522(13)
H54_4 H 0.3166 0.2448 0.6985
N10_4 N 0.22153(11) 0.21007(15) 0.56634(15)
O8_4 O 0.17631(7) 0.21487(9) 0.71411(11)
O10_4 O 0.30023(7) 0.40896(9) 0.73015(11)
Ni3_4 Ni 0.237654(12) 0.313460(15) 0.719017(19)
C11_3 C 0.63055(12) 0.71547(14) 0.7224(2)
C12_3 C 0.60707(9) 0.63435(12) 0.73394(15)
C13_3 C 0.55185(9) 0.63336(12) 0.73509(14)
H21_3 H 0.5297 0.6817 0.7261
C14_3 C 0.52979(8) 0.56118(11) 0.74950(12)
C15_3 C 0.56304(9) 0.48985(12) 0.76288(14)
H22_3 H 0.5487 0.4413 0.7728
C16_3 C 0.61836(9) 0.48950(12) 0.76169(14)
C17_3 C 0.63983(9) 0.56175(12) 0.74746(13)
H23_3 H 0.6765 0.5619 0.7469
C18_3 C 0.65353(10) 0.40969(14) 0.77753(16)
O1_3 O 0.60282(14) 0.77764(12) 0.7226(3)
O4_3 O 0.63404(11) 0.34983(12) 0.79728(19)
C29_3 C 0.36945(12) 0.71547(14) 0.7776(2)
C30_3 C 0.39293(9) 0.63435(12) 0.76606(15)
C31_3 C 0.44815(9) 0.63336(12) 0.76491(14)
H48_3 H 0.4703 0.6817 0.7739
C32_3 C 0.47021(8) 0.56118(11) 0.75050(12)
C33_3 C 0.43696(9) 0.48985(12) 0.73712(14)
H49_3 H 0.4513 0.4413 0.7272
C34_3 C 0.38164(9) 0.48950(12) 0.73831(14)
C35_3 C 0.36017(9) 0.56175(12) 0.75254(13)
H50_3 H 0.3235 0.5619 0.7531
C36_3 C 0.34647(10) 0.40969(14) 0.72247(16)
O5_3 O 0.39718(14) 0.77764(12) 0.7774(3)
O11_3 O 0.36596(11) 0.34983(12) 0.70272(19)
C11_4 C 0.13055(12) 0.21547(14) 0.7224(2)
C12_4 C 0.10707(9) 0.13435(12) 0.73394(15)
C13_4 C 0.05185(9) 0.13336(12) 0.73509(14)
H21_4 H 0.0297 0.1817 0.7261
C14_4 C 0.02979(8) 0.06118(11) 0.74950(12)
C17_4 C 0.13983(9) 0.06175(12) 0.74746(13)
H23_4 H 0.1765 0.0619 0.7469
O1_4 O 0.10282(14) 0.27764(12) 0.7226(3)
C15_4 C 0.06304(9) 0.98985(12) 0.76288(14)
H22_4 H 0.0487 0.9413 0.7728
C16_4 C 0.11836(9) 0.98950(12) 0.76169(14)
C18_4 C 0.15353(10) 0.90969(14) 0.77753(16)
O4_4 O 0.13404(11) 0.84983(12) 0.79728(19)
C29_4 C 0.86945(12) 0.21547(14) 0.7776(2)
C30_4 C 0.89293(9) 0.13435(12) 0.76606(15)
C31_4 C 0.94815(9) 0.13336(12) 0.76491(14)
H48_4 H 0.9703 0.1817 0.7739
C32_4 C 0.97021(8) 0.06118(11) 0.75050(12)
C35_4 C 0.86017(9) 0.06175(12) 0.75254(13)
H50_4 H 0.8235 0.0619 0.7531
O5_4 O 0.89718(14) 0.27764(12) 0.7774(3)
C33_4 C 0.93696(9) 0.98985(12) 0.73712(14)
H49_4 H 0.9513 0.9413 0.7272
C34_4 C 0.88164(9) 0.98950(12) 0.73831(14)
C36_4 C 0.84647(10) 0.90969(14) 0.72247(16)
O11_4 O 0.86596(11) 0.84983(12) 0.70272(19)
loop_
_geom_bond_atom_site_label_1
_geom_bond_atom_site_label_2
_geom_bond_site_symmetry_1
_geom_bond_site_symmetry_2
C1 H1 1_555 1_555
H2 C1 1_555 1_555
C2 H3 1_555 1_555
H4 C2 1_555 1_555
C3 C1 1_555 1_555
H5 C3 1_555 1_555
H6 C3 1_555 1_555
C4 H7 1_555 1_555
H8 C4 1_555 1_555
C5 C4 1_555 1_555
H9 C5 1_555 1_555
H10 C5 1_555 1_555
C6 C5 1_555 1_555
H11 C6 1_555 1_555
H12 C6 1_555 1_555
C7 H13 1_555 1_555
H14 C7 1_555 1_555
C8 C7 1_555 1_555
H15 C8 1_555 1_555
H16 C8 1_555 1_555
C9 H17 1_555 1_555
H18 C9 1_555 1_555
C10 H19 1_555 1_555
H20 C10 1_555 1_555
C11 C12 1_555 1_555
C12 C13 1_555 1_555
C13 H21 1_555 1_555
C14 C13 1_555 1_555
C15 C14 1_555 1_555
H22 C15 1_555 1_555
C16 C15 1_555 1_555
C17 C12 1_555 1_555
H23 C17 1_555 1_555
C18 C16 1_555 1_555
N1 C1 1_555 1_555
H24 N1 1_555 1_555
N2 C3 1_555 1_555
H25 N2 1_555 1_555
N3 C6 1_555 1_555
H26 N3 1_555 1_555
N4 C8 1_555 1_555
H27 N4 1_555 1_555
N5 C2 1_555 1_555
O1 C11 1_555 1_555
O2 C11 1_555 1_555
O3 C18 1_555 1_555
O4 C18 1_555 1_555
Ni1 N1 1_555 1_555
C29 C30 1_555 1_555
C30 C31 1_555 1_555
C31 H48 1_555 1_555
C32 C14 1_555 1_555
C33 C32 1_555 1_555
H49 C33 1_555 1_555
C34 C33 1_555 1_555
C35 C30 1_555 1_555
H50 C35 1_555 1_555
C36 C34 1_555 1_555
O5 C29 1_555 1_555
O6 C29 1_555 1_555
O7 Ni1 1_555 1_555
O9 C36 1_555 1_555
O11 C36 1_555 1_555
Ni2 O9 1_555 1_555
Ni4 O2 1_555 1_555
Ni5 O6 1_555 1_555
C4 N2 1_555 1_555
C7 N3 1_555 1_555
C9 N4 1_555 1_555
C9 N5 1_555 1_555
C10 N1 1_555 1_555
C10 N5 1_555 1_555
C16 C17 1_555 1_555
N2 Ni1 1_555 1_555
N3 Ni1 1_555 1_555
N4 Ni1 1_555 1_555
O3 Ni1 1_555 1_555
C31 C32 1_555 1_555
C34 C35 1_555 1_555
C19 H28 1_555 1_555
H29 C19 1_555 1_555
H30 C20 1_555 1_555
H31 C20 1_555 1_555
C21 C19 1_555 1_555
H32 C21 1_555 1_555
H33 C21 1_555 1_555
C22 H34 1_555 1_555
H35 C22 1_555 1_555
C23 C22 1_555 1_555
H36 C23 1_555 1_555
H37 C23 1_555 1_555
C24 C23 1_555 1_555
H38 C24 1_555 1_555
H39 C24 1_555 1_555
C25 H40 1_555 1_555
H41 C25 1_555 1_555
C26 C25 1_555 1_555
H42 C26 1_555 1_555
H43 C26 1_555 1_555
C27 H44 1_555 1_555
H45 C27 1_555 1_555
C28 H46 1_555 1_555
H47 C28 1_555 1_555
N6 C19 1_555 1_555
H51 N6 1_555 1_555
N7 C21 1_555 1_555
H52 N7 1_555 1_555
N8 C24 1_555 1_555
H53 N8 1_555 1_555
N9 C26 1_555 1_555
H54 N9 1_555 1_555
N10 C20 1_555 1_555
O8 Ni3 1_555 1_555
O10 Ni3 1_555 1_555
Ni3 N6 1_555 1_555
C22 N7 1_555 1_555
C25 N8 1_555 1_555
C27 N9 1_555 1_555
C27 N10 1_555 1_555
C28 N6 1_555 1_555
C28 N10 1_555 1_555
N7 Ni3 1_555 1_555
N8 Ni3 1_555 1_555
N9 Ni3 1_555 1_555
C1_2 H1_2 1_555 1_555
H2_2 C1_2 1_555 1_555
C2_2 H3_2 1_555 1_555
H4_2 C2_2 1_555 1_555
C3_2 C1_2 1_555 1_555
H5_2 C3_2 1_555 1_555
H6_2 C3_2 1_555 1_555
C4_2 H7_2 1_555 1_555
H8_2 C4_2 1_555 1_555
C5_2 C4_2 1_555 1_555
H9_2 C5_2 1_555 1_555
H10_2 C5_2 1_555 1_555
C6_2 C5_2 1_555 1_555
H11_2 C6_2 1_555 1_555
H12_2 C6_2 1_555 1_555
C7_2 H13_2 1_555 1_555
H14_2 C7_2 1_555 1_555
C8_2 C7_2 1_555 1_555
H15_2 C8_2 1_555 1_555
H16_2 C8_2 1_555 1_555
C9_2 H17_2 1_555 1_555
H18_2 C9_2 1_555 1_555
C10_2 H19_2 1_555 1_555
H20_2 C10_2 1_555 1_555
N1_2 C1_2 1_555 1_555
H24_2 N1_2 1_555 1_555
N2_2 C3_2 1_555 1_555
H25_2 N2_2 1_555 1_555
N3_2 C6_2 1_555 1_555
H26_2 N3_2 1_555 1_555
N4_2 C8_2 1_555 1_555
H27_2 N4_2 1_555 1_555
N5_2 C2_2 1_555 1_555
Ni2 N1_2 1_555 1_555
C19_2 H28_2 1_555 1_555
H29_2 C19_2 1_555 1_555
C20_2 C2_2 1_555 1_555
H30_2 C20_2 1_555 1_555
H31_2 C20_2 1_555 1_555
C21_2 C19_2 1_555 1_555
H32_2 C21_2 1_555 1_555
H33_2 C21_2 1_555 1_555
C22_2 H34_2 1_555 1_555
H35_2 C22_2 1_555 1_555
C23_2 C22_2 1_555 1_555
H36_2 C23_2 1_555 1_555
H37_2 C23_2 1_555 1_555
C24_2 C23_2 1_555 1_555
H38_2 C24_2 1_555 1_555
H39_2 C24_2 1_555 1_555
C25_2 H40_2 1_555 1_555
H41_2 C25_2 1_555 1_555
C26_2 C25_2 1_555 1_555
H42_2 C26_2 1_555 1_555
H43_2 C26_2 1_555 1_555
C27_2 H44_2 1_555 1_555
H45_2 C27_2 1_555 1_555
C28_2 H46_2 1_555 1_555
H47_2 C28_2 1_555 1_555
N6_2 C19_2 1_555 1_555
H51_2 N6_2 1_555 1_555
N7_2 C21_2 1_555 1_555
H52_2 N7_2 1_555 1_555
N8_2 C24_2 1_555 1_555
H53_2 N8_2 1_555 1_555
N9_2 C26_2 1_555 1_555
H54_2 N9_2 1_555 1_555
N10_2 C20_2 1_555 1_555
O7_2 Ni2 1_555 1_555
O8_2 Ni3_2 1_555 1_555
O10_2 Ni3_2 1_555 1_555
Ni3_2 N6_2 1_555 1_555
C4_2 N2_2 1_555 1_555
C7_2 N3_2 1_555 1_555
C9_2 N4_2 1_555 1_555
C9_2 N5_2 1_555 1_555
C10_2 N1_2 1_555 1_555
C10_2 N5_2 1_555 1_555
N2_2 Ni2 1_555 1_555
N3_2 Ni2 1_555 1_555
N4_2 Ni2 1_555 1_555
C22_2 N7_2 1_555 1_555
C25_2 N8_2 1_555 1_555
C27_2 N9_2 1_555 1_555
C27_2 N10_2 1_555 1_555
C28_2 N6_2 1_555 1_555
C28_2 N10_2 1_555 1_555
N7_2 Ni3_2 1_555 1_555
N8_2 Ni3_2 1_555 1_555
N9_2 Ni3_2 1_555 1_555
H49_2 C33_2 1_555 1_555
C34_2 C33_2 1_555 1_555
C36_2 C34_2 1_555 1_555
O9_2 C36_2 1_555 1_555
O11_2 C36_2 1_555 1_555
Ni4 O9_2 1_555 1_555
C29_2 C30_2 1_555 1_555
C30_2 C31_2 1_555 1_555
C31_2 H48_2 1_555 1_555
C35_2 C30_2 1_555 1_555
H50_2 C35_2 1_555 1_555
O5_2 C29_2 1_555 1_555
O7 C29_2 1_555 1_555
C31_2 C32_2 1_555 1_555
C1_3 H1_3 1_555 1_555
H2_3 C1_3 1_555 1_555
C2_3 H3_3 1_555 1_555
H4_3 C2_3 1_555 1_555
C3_3 C1_3 1_555 1_555
H5_3 C3_3 1_555 1_555
H6_3 C3_3 1_555 1_555
C4_3 H7_3 1_555 1_555
H8_3 C4_3 1_555 1_555
C5_3 C4_3 1_555 1_555
H9_3 C5_3 1_555 1_555
H10_3 C5_3 1_555 1_555
C6_3 C5_3 1_555 1_555
H11_3 C6_3 1_555 1_555
H12_3 C6_3 1_555 1_555
C7_3 H13_3 1_555 1_555
H14_3 C7_3 1_555 1_555
C8_3 C7_3 1_555 1_555
H15_3 C8_3 1_555 1_555
H16_3 C8_3 1_555 1_555
C9_3 H17_3 1_555 1_555
H18_3 C9_3 1_555 1_555
C10_3 H19_3 1_555 1_555
H20_3 C10_3 1_555 1_555
H22_2 C15_2 1_555 1_555
C16_2 C15_2 1_555 1_555
C18_2 C16_2 1_555 1_555
N1_3 C1_3 1_555 1_555
H24_3 N1_3 1_555 1_555
N2_3 C3_3 1_555 1_555
H25_3 N2_3 1_555 1_555
N3_3 C6_3 1_555 1_555
H26_3 N3_3 1_555 1_555
N4_3 C8_3 1_555 1_555
H27_3 N4_3 1_555 1_555
N5_3 C2_3 1_555 1_555
O3_2 C18_2 1_555 1_555
O4_2 C18_2 1_555 1_555
Ni5 N1_3 1_555 1_555
C4_3 N2_3 1_555 1_555
C7_3 N3_3 1_555 1_555
C9_3 N4_3 1_555 1_555
C9_3 N5_3 1_555 1_555
C10_3 N1_3 1_555 1_555
C10_3 N5_3 1_555 1_555
N2_3 Ni5 1_555 1_555
N3_3 Ni5 1_555 1_555
N4_3 Ni5 1_555 1_555
O3_2 Ni5 1_555 1_555
C19_3 H28_3 1_555 1_555
H29_3 C19_3 1_555 1_555
H30_3 C20_3 1_555 1_555
H31_3 C20_3 1_555 1_555
C21_3 C19_3 1_555 1_555
H32_3 C21_3 1_555 1_555
H33_3 C21_3 1_555 1_555
C22_3 H34_3 1_555 1_555
H35_3 C22_3 1_555 1_555
C23_3 C22_3 1_555 1_555
H36_3 C23_3 1_555 1_555
H37_3 C23_3 1_555 1_555
C24_3 C23_3 1_555 1_555
H38_3 C24_3 1_555 1_555
H39_3 C24_3 1_555 1_555
C25_3 H40_3 1_555 1_555
H41_3 C25_3 1_555 1_555
C26_3 C25_3 1_555 1_555
H42_3 C26_3 1_555 1_555
H43_3 C26_3 1_555 1_555
C27_3 H44_3 1_555 1_555
H45_3 C27_3 1_555 1_555
C28_3 H46_3 1_555 1_555
H47_3 C28_3 1_555 1_555
N6_3 C19_3 1_555 1_555
H51_3 N6_3 1_555 1_555
N7_3 C21_3 1_555 1_555
H52_3 N7_3 1_555 1_555
N8_3 C24_3 1_555 1_555
H53_3 N8_3 1_555 1_555
N9_3 C26_3 1_555 1_555
H54_3 N9_3 1_555 1_555
N10_3 C20_3 1_555 1_555
O8_3 Ni3_3 1_555 1_555
O10_3 Ni3_3 1_555 1_555
Ni3_3 N6_3 1_555 1_555
C22_3 N7_3 1_555 1_555
C25_3 N8_3 1_555 1_555
C27_3 N9_3 1_555 1_555
C27_3 N10_3 1_555 1_555
C28_3 N6_3 1_555 1_555
C28_3 N10_3 1_555 1_555
N7_3 Ni3_3 1_555 1_555
N8_3 Ni3_3 1_555 1_555
N9_3 Ni3_3 1_555 1_555
C11_2 C12_2 1_555 1_555
C12_2 C13_2 1_555 1_555
C13_2 H21_2 1_555 1_555
C14_2 C13_2 1_555 1_555
C17_2 C12_2 1_555 1_555
H23_2 C17_2 1_555 1_555
O1_2 C11_2 1_555 1_555
O7_2 C11_2 1_555 1_555
C1_4 H1_4 1_555 1_555
H2_4 C1_4 1_555 1_555
C2_4 H3_4 1_555 1_555
H4_4 C2_4 1_555 1_555
C3_4 C1_4 1_555 1_555
H5_4 C3_4 1_555 1_555
H6_4 C3_4 1_555 1_555
C4_4 H7_4 1_555 1_555
H8_4 C4_4 1_555 1_555
C5_4 C4_4 1_555 1_555
H9_4 C5_4 1_555 1_555
H10_4 C5_4 1_555 1_555
C6_4 C5_4 1_555 1_555
H11_4 C6_4 1_555 1_555
H12_4 C6_4 1_555 1_555
C7_4 H13_4 1_555 1_555
H14_4 C7_4 1_555 1_555
C8_4 C7_4 1_555 1_555
H15_4 C8_4 1_555 1_555
H16_4 C8_4 1_555 1_555
C9_4 H17_4 1_555 1_555
H18_4 C9_4 1_555 1_555
C10_4 H19_4 1_555 1_555
H20_4 C10_4 1_555 1_555
N1_4 C1_4 1_555 1_555
H24_4 N1_4 1_555 1_555
N2_4 C3_4 1_555 1_555
H25_4 N2_4 1_555 1_555
N3_4 C6_4 1_555 1_555
H26_4 N3_4 1_555 1_555
N4_4 C8_4 1_555 1_555
H27_4 N4_4 1_555 1_555
N5_4 C2_4 1_555 1_555
Ni4 N1_4 1_555 1_555
C19_4 H28_4 1_555 1_555
H29_4 C19_4 1_555 1_555
C20_4 C2_4 1_555 1_555
H30_4 C20_4 1_555 1_555
H31_4 C20_4 1_555 1_555
C21_4 C19_4 1_555 1_555
H32_4 C21_4 1_555 1_555
H33_4 C21_4 1_555 1_555
C22_4 H34_4 1_555 1_555
H35_4 C22_4 1_555 1_555
C23_4 C22_4 1_555 1_555
H36_4 C23_4 1_555 1_555
H37_4 C23_4 1_555 1_555
C24_4 C23_4 1_555 1_555
H38_4 C24_4 1_555 1_555
H39_4 C24_4 1_555 1_555
C25_4 H40_4 1_555 1_555
H41_4 C25_4 1_555 1_555
C26_4 C25_4 1_555 1_555
H42_4 C26_4 1_555 1_555
H43_4 C26_4 1_555 1_555
C27_4 H44_4 1_555 1_555
H45_4 C27_4 1_555 1_555
C28_4 H46_4 1_555 1_555
H47_4 C28_4 1_555 1_555
N6_4 C19_4 1_555 1_555
H51_4 N6_4 1_555 1_555
N7_4 C21_4 1_555 1_555
H52_4 N7_4 1_555 1_555
N8_4 C24_4 1_555 1_555
H53_4 N8_4 1_555 1_555
N9_4 C26_4 1_555 1_555
H54_4 N9_4 1_555 1_555
N10_4 C20_4 1_555 1_555
O8_4 Ni3_4 1_555 1_555
O10_4 Ni3_4 1_555 1_555
Ni3_4 N6_4 1_555 1_555
C4_4 N2_4 1_555 1_555
C7_4 N3_4 1_555 1_555
C9_4 N4_4 1_555 1_555
C9_4 N5_4 1_555 1_555
C10_4 N1_4 1_555 1_555
C10_4 N5_4 1_555 1_555
N2_4 Ni4 1_555 1_555
N3_4 Ni4 1_555 1_555
N4_4 Ni4 1_555 1_555
C22_4 N7_4 1_555 1_555
C25_4 N8_4 1_555 1_555
C27_4 N9_4 1_555 1_555
C27_4 N10_4 1_555 1_555
C28_4 N6_4 1_555 1_555
C28_4 N10_4 1_555 1_555
N7_4 Ni3_4 1_555 1_555
N8_4 Ni3_4 1_555 1_555
N9_4 Ni3_4 1_555 1_555
C11_3 C12_3 1_555 1_555
C12_3 C13_3 1_555 1_555
C13_3 H21_3 1_555 1_555
C14_3 C13_3 1_555 1_555
C15_3 C14_3 1_555 1_555
H22_3 C15_3 1_555 1_555
C16_3 C15_3 1_555 1_555
C17_3 C12_3 1_555 1_555
H23_3 C17_3 1_555 1_555
C18_3 C16_3 1_555 1_555
O1_3 C11_3 1_555 1_555
O8_2 C11_3 1_555 1_555
O10_3 C18_3 1_555 1_555
O4_3 C18_3 1_555 1_555
C29_3 C30_3 1_555 1_555
C30_3 C31_3 1_555 1_555
C31_3 H48_3 1_555 1_555
C32_3 C14_3 1_555 1_555
C33_3 C32_3 1_555 1_555
H49_3 C33_3 1_555 1_555
C34_3 C33_3 1_555 1_555
C35_3 C30_3 1_555 1_555
H50_3 C35_3 1_555 1_555
C36_3 C34_3 1_555 1_555
O5_3 C29_3 1_555 1_555
O8 C29_3 1_555 1_555
O10_4 C36_3 1_555 1_555
O11_3 C36_3 1_555 1_555
C16_3 C17_3 1_555 1_555
C31_3 C32_3 1_555 1_555
C34_3 C35_3 1_555 1_555
C11_4 C12_4 1_555 1_555
C12_4 C13_4 1_555 1_555
C13_4 H21_4 1_555 1_555
C14_4 C13_4 1_555 1_555
C17_4 C12_4 1_555 1_555
H23_4 C17_4 1_555 1_555
O1_4 C11_4 1_555 1_555
O8_4 C11_4 1_555 1_555
H22_4 C15_4 1_555 1_555
C16_4 C15_4 1_555 1_555
C18_4 C16_4 1_555 1_555
O10 C18_4 1_555 1_555
O4_4 C18_4 1_555 1_555
C29_4 C30_4 1_555 1_555
C30_4 C31_4 1_555 1_555
C31_4 H48_4 1_555 1_555
C35_4 C30_4 1_555 1_555
H50_4 C35_4 1_555 1_555
O5_4 C29_4 1_555 1_555
O8_3 C29_4 1_555 1_555
C31_4 C32_4 1_555 1_555
H49_4 C33_4 1_555 1_555
C34_4 C33_4 1_555 1_555
C36_4 C34_4 1_555 1_555
O10_2 C36_4 1_555 1_555
O11_4 C36_4 1_555 1_555

#END
