
###############################################################################
#
# This file contains modified crystal structure data generated from the
# MOF subset of the Cambridge Structural Database (CSD) v543 
# hosted by the Cambridge Crystallographic Data Centre (CCDC).
#
# This work is licensed under the Creative Commons
# Attribution-NonCommercial-ShareAlike 4.0 International License.
# To view a copy of this license, visit
# http://creativecommons.org/licenses/by-nc-sa/4.0/
# or send a letter to
# Creative Commons, PO Box 1866, Mountain View, CA 94042, USA.
#
# CIF created using the CSD Python API on 29 September 2022
# The structure has been converted into the P1 space group
# The structure has a 3D framework
# The original CSD entry TUDQOZ is in the orthorhombic crystal system
# The framework has been calculated to contain at least 10.0% void space
# The void calculation uses a probe of radius 1.32A, grid spacing 0.4
#
###############################################################################

data_TUDQOZ
_chemical_formula_moiety         '(C480 H272 Cd24 N80 O90)n'
_symmetry_cell_setting           triclinic
_symmetry_space_group_name_H-M   'P 1'
_symmetry_Int_Tables_number      1
_space_group_name_Hall           'P 1'
loop_
_symmetry_equiv_pos_site_id
_symmetry_equiv_pos_as_xyz
1 x,y,z
_cell_length_a                   17.0131(6)
_cell_length_b                   13.5953(5)
_cell_length_c                   51.887(2)
_cell_angle_alpha                90
_cell_angle_beta                 90
_cell_angle_gamma                90
_cell_volume                     12001.4
loop_
_atom_site_label
_atom_site_type_symbol
_atom_site_fract_x
_atom_site_fract_y
_atom_site_fract_z
Cd3 Cd 0.002850(17) 0.36024(2) 0.008720(5)
O9 O 0.10784(16) 0.2640(2) 0.01581(6)
O10 O 0.00594(17) 0.1643(3) 0.01756(7)
C53 C 0.1351(2) 0.0935(3) 0.01493(7)
C57 C 0.2694(2) 0.0359(3) 0.00937(7)
C58 C 0.2150(2) 0.1123(3) 0.01169(7)
H34 H 0.2328 0.1785 0.0111
C59 C 0.0784(2) 0.1792(3) 0.01637(7)
C60 C 0.3534(2) 0.0597(3) 0.00393(7)
O17 O 0.09381(16) 0.4951(2) 0.00583(6)
N10 N 0.0202(2) 0.3380(3) 0.96484(7)
O11 O 0.37013(17) 0.1468(2) 0.99713(6)
C26 C 0.0423(3) 0.3351(4) 0.91198(9)
H16 H 0.0503 0.3352 0.8939
C27 C 0.1053(3) 0.3400(4) 0.92860(9)
H17 H 0.1574 0.3427 0.9220
C28 C 0.0923(3) 0.3410(4) 0.95485(9)
H18 H 0.1361 0.3440 0.9662
Cd7 Cd 0.502850(17) 0.13976(2) 0.991280(5)
O12 O 0.40619(16) 0.9951(2) 0.00583(6)
C54 C 0.1100(2) 0.9963(3) 0.01598(7)
H31 H 0.0557 0.9821 0.0179
C55 C 0.1635(3) 0.9203(3) 0.01420(8)
H32 H 0.1457 0.8541 0.0151
C56 C 0.2431(2) 0.9395(3) 0.01108(8)
H33 H 0.2796 0.8867 0.0101
Cd8 Cd 0.497150(17) 0.86024(2) 0.008720(5)
N11 N 0.9842(2) 0.4018(3) 0.05144(7)
O16 O 0.87013(17) 0.3532(2) 0.00287(6)
Cd1 Cd 0.519718(17) 0.32137(2) 0.828554(5)
Cd2 Cd 0.024030(17) 0.09524(2) 0.833230(5)
N3 N 0.6568(2) 0.3436(3) 0.82515(6)
N4 N 0.57231(19) 0.3301(2) 0.86956(6)
N7 N 0.8235(2) 0.3234(3) 0.91656(6)
N8 N 0.89434(19) 0.3310(3) 0.88013(6)
H2 H 0.9356 0.3336 0.8699
O1 O 0.01744(16) 0.3034(2) 0.84390(6)
O2 O 0.11743(17) 0.1988(2) 0.84479(7)
O3 O 0.41813(17) 0.4546(2) 0.84819(6)
O4 O 0.38778(18) 0.3101(3) 0.83195(7)
O5 O 0.44297(19) 0.5836(3) 0.79175(6)
O6 O 0.50936(18) 0.4465(2) 0.79932(6)
O7 O 0.4795(2) 0.7173(2) 0.70454(6)
O8 O 0.47276(18) 0.6205(3) 0.67049(5)
H12 H 0.0492 0.0846 0.8953
C19 C 0.6962(3) 0.3525(3) 0.80313(8)
H13 H 0.6675 0.3581 0.7875
C20 C 0.7782(3) 0.3541(4) 0.80215(8)
H14 H 0.8045 0.3615 0.7861
C21 C 0.8203(2) 0.3450(3) 0.82445(8)
H15 H 0.8762 0.3442 0.8240
C22 C 0.7803(2) 0.3366(3) 0.84802(8)
C23 C 0.8164(2) 0.3304(3) 0.87287(8)
C24 C 0.8946(2) 0.3270(3) 0.90650(7)
C25 C 0.9666(2) 0.3300(3) 0.92221(8)
C29 C 0.9587(2) 0.3310(3) 0.94882(8)
H19 H 0.9074 0.3265 0.9560
C30 C 0.7738(2) 0.3255(3) 0.89562(7)
C31 C 0.6898(2) 0.3249(3) 0.89538(7)
C32 C 0.6432(3) 0.3205(3) 0.91773(8)
H20 H 0.6671 0.3150 0.9342
C33 C 0.5631(3) 0.3241(3) 0.91553(8)
H21 H 0.5308 0.3233 0.9305
C34 C 0.5297(3) 0.3288(3) 0.89106(8)
H22 H 0.4741 0.3313 0.8897
C35 C 0.6514(2) 0.3299(3) 0.87131(7)
C36 C 0.6973(2) 0.3365(3) 0.84759(8)
C37 C 0.1482(2) 0.3677(3) 0.84368(8)
C38 C 0.1245(3) 0.4651(3) 0.84476(9)
H23 H 0.0702 0.4804 0.8464
C39 C 0.1791(3) 0.5402(4) 0.84351(11)
H24 H 0.1625 0.6069 0.8436
C40 C 0.2580(3) 0.5174(4) 0.84212(10)
H25 H 0.2958 0.5689 0.8419
C41 C 0.2831(2) 0.4198(3) 0.84111(8)
C42 C 0.2272(2) 0.3452(3) 0.84156(8)
H26 H 0.2434 0.2785 0.8404
C43 C 0.0897(2) 0.2857(3) 0.84412(7)
C44 C 0.3681(3) 0.3934(3) 0.84023(8)
C45 C 0.4781(2) 0.4845(3) 0.75589(8)
C46 C 0.4727(3) 0.5624(3) 0.73878(8)
H27 H 0.4650 0.6273 0.7451
C47 C 0.4785(2) 0.5463(3) 0.71256(8)
C48 C 0.4872(3) 0.4516(4) 0.70362(9)
H28 H 0.4899 0.4398 0.6856
C49 C 0.4921(3) 0.3732(4) 0.72058(10)
H29 H 0.4975 0.3081 0.7142
C50 C 0.4891(3) 0.3895(4) 0.74685(9)
H30 H 0.4945 0.3362 0.7586
C51 C 0.4758(3) 0.5050(4) 0.78425(8)
C52 C 0.4770(2) 0.6336(4) 0.69440(8)
Cd4 Cd 0.480282(17) 0.82137(2) 0.671446(5)
Cd5 Cd 0.475970(17) 0.59524(2) 0.833230(5)
O14 O 0.05703(19) 0.0836(3) 0.79175(6)
O15 O 0.5205(2) 0.2173(2) 0.79546(6)
O13 O 0.08187(17) 0.9546(2) 0.84819(6)
N1 N 0.8911(2) 0.1081(3) 0.82373(6)
N2 N 0.95878(19) 0.0897(3) 0.87154(6)
N5 N 0.6932(2) 0.0772(3) 0.90759(6)
N6 N 0.63612(19) 0.0845(3) 0.86866(6)
H1 H 0.5991 0.0861 0.8568
N9 N 0.4842(2) 0.0982(3) 0.94856(7)
C1 C 0.8597(3) 0.1153(3) 0.80027(8)
H3 H 0.8938 0.1243 0.7860
C2 C 0.7793(3) 0.1103(3) 0.79582(8)
H4 H 0.7592 0.1144 0.7788
C3 C 0.7295(2) 0.0993(3) 0.81639(8)
H5 H 0.6744 0.0950 0.8137
C4 C 0.7606(2) 0.0943(3) 0.84147(7)
C5 C 0.7161(2) 0.0856(3) 0.86469(8)
C6 C 0.6260(2) 0.0803(3) 0.89485(7)
C7 C 0.5496(2) 0.0843(3) 0.90769(8)
C8 C 0.4782(3) 0.0916(4) 0.89497(9)
H6 H 0.4761 0.0907 0.8767
C9 C 0.4101(3) 0.1001(4) 0.90939(9)
H7 H 0.3603 0.1037 0.9012
C10 C 0.4156(3) 0.1034(4) 0.93584(8)
H8 H 0.3686 0.1097 0.9456
C11 C 0.5493(2) 0.0873(3) 0.93454(8)
H9 H 0.5981 0.0813 0.9433
C12 C 0.7497(2) 0.0809(3) 0.88878(8)
C13 C 0.8330(2) 0.0830(3) 0.89221(7)
C14 C 0.8703(3) 0.0783(3) 0.91632(8)
H10 H 0.8401 0.0743 0.9317
C15 C 0.9508(3) 0.0797(3) 0.91749(8)
H11 H 0.9771 0.0773 0.9336
C16 C 0.9934(3) 0.0847(4) 0.89454(8)
C17 C 0.8798(2) 0.0897(3) 0.86993(7)
C18 C 0.8432(2) 0.0967(3) 0.84430(7)
N9_2 N 0.0158(2) 0.9018(3) 0.44856(7)
C8_2 C 0.0218(3) 0.9084(4) 0.39497(9)
H6_2 H 0.0239 0.9093 0.3767
C9_2 C 0.0899(3) 0.8999(4) 0.40939(9)
H7_2 H 0.1397 0.8963 0.4012
C10_2 C 0.0844(3) 0.8966(4) 0.43584(8)
H8_2 H 0.1314 0.8903 0.4456
O13_2 O 0.41813(17) 0.0454(2) 0.34819(6)
Cd2_2 Cd 0.475970(17) 0.90476(2) 0.333230(5)
N1_2 N 0.6089(2) 0.8919(3) 0.32373(6)
N2_2 N 0.54122(19) 0.9103(3) 0.37154(6)
N5_2 N 0.8068(2) 0.9228(3) 0.40759(6)
N6_2 N 0.86388(19) 0.9155(3) 0.36866(6)
H1_2 H 0.9009 0.9139 0.3568
O1_2 O 0.48256(16) 0.6966(2) 0.34390(6)
O2_2 O 0.38257(17) 0.8012(2) 0.34479(7)
O3_2 O 0.08187(17) 0.5454(2) 0.34819(6)
O4_2 O 0.11222(18) 0.6899(3) 0.33195(7)
O5_2 O 0.05703(19) 0.4164(3) 0.29175(6)
O7_2 O 0.0205(2) 0.2827(2) 0.20454(6)
O8_2 O 0.02724(18) 0.3795(3) 0.17049(5)
C1_2 C 0.6403(3) 0.8847(3) 0.30027(8)
H3_2 H 0.6062 0.8757 0.2860
C2_2 C 0.7207(3) 0.8897(3) 0.29582(8)
H4_2 H 0.7408 0.8856 0.2788
C3_2 C 0.7705(2) 0.9007(3) 0.31639(8)
H5_2 H 0.8256 0.9050 0.3137
C4_2 C 0.7394(2) 0.9057(3) 0.34147(7)
C5_2 C 0.7839(2) 0.9144(3) 0.36469(8)
C6_2 C 0.8740(2) 0.9197(3) 0.39485(7)
C7_2 C 0.9504(2) 0.9157(3) 0.40769(8)
C11_2 C 0.9507(2) 0.9127(3) 0.43454(8)
H9_2 H 0.9019 0.9187 0.4433
C12_2 C 0.7503(2) 0.9191(3) 0.38878(8)
C13_2 C 0.6670(2) 0.9170(3) 0.39221(7)
C14_2 C 0.6297(3) 0.9217(3) 0.41632(8)
H10_2 H 0.6599 0.9257 0.4317
C15_2 C 0.5492(3) 0.9203(3) 0.41749(8)
H11_2 H 0.5229 0.9227 0.4336
C16_2 C 0.5066(3) 0.9153(4) 0.39454(8)
H12_2 H 0.4508 0.9154 0.3953
C17_2 C 0.6202(2) 0.9103(3) 0.36993(7)
C18_2 C 0.6568(2) 0.9033(3) 0.34430(7)
H22_2 H 0.0259 0.6687 0.3897
C37_2 C 0.3518(2) 0.6323(3) 0.34368(8)
C38_2 C 0.3755(3) 0.5349(3) 0.34476(9)
H23_2 H 0.4298 0.5196 0.3464
C39_2 C 0.3209(3) 0.4598(4) 0.34351(11)
H24_2 H 0.3375 0.3931 0.3436
C40_2 C 0.2420(3) 0.4826(4) 0.34212(10)
H25_2 H 0.2042 0.4311 0.3419
C41_2 C 0.2169(2) 0.5802(3) 0.34111(8)
C42_2 C 0.2728(2) 0.6548(3) 0.34156(8)
H26_2 H 0.2566 0.7215 0.3404
C43_2 C 0.4103(2) 0.7143(3) 0.34412(7)
C44_2 C 0.1319(3) 0.6066(3) 0.34023(8)
C45_2 C 0.0219(2) 0.5155(3) 0.25589(8)
C46_2 C 0.0273(3) 0.4376(3) 0.23878(8)
H27_2 H 0.0350 0.3727 0.2451
C47_2 C 0.0215(2) 0.4537(3) 0.21256(8)
C48_2 C 0.0128(3) 0.5484(4) 0.20362(9)
H28_2 H 0.0101 0.5602 0.1856
C49_2 C 0.0079(3) 0.6268(4) 0.22058(10)
H29_2 H 0.0025 0.6919 0.2142
C50_2 C 0.0109(3) 0.6105(4) 0.24685(9)
H30_2 H 0.0055 0.6638 0.2586
C51_2 C 0.0242(3) 0.4950(4) 0.28425(8)
C52_2 C 0.0230(2) 0.3664(4) 0.19440(8)
Cd4_2 Cd 0.019718(17) 0.17863(2) 0.171446(5)
Cd5_2 Cd 0.024030(17) 0.40476(2) 0.333230(5)
Cd6 Cd 0.997150(17) 0.86024(2) 0.491280(5)
O14_2 O 0.44297(19) 0.9164(3) 0.29175(6)
O12_2 O 0.09381(16) 0.0049(2) 0.50583(6)
C54_2 C 0.3900(2) 0.0037(3) 0.51598(7)
H31_2 H 0.4443 0.0179 0.5179
C55_2 C 0.3365(3) 0.0797(3) 0.51420(8)
H32_2 H 0.3543 0.1459 0.5151
C56_2 C 0.2569(2) 0.0605(3) 0.51108(8)
H33_2 H 0.2204 0.1133 0.5101
Cd8_2 Cd 0.002850(17) 0.13976(2) 0.508720(5)
Cd1_2 Cd 0.980282(17) 0.67863(2) 0.328554(5)
Cd3_2 Cd 0.497150(17) 0.63976(2) 0.508720(5)
N3_2 N 0.8432(2) 0.6564(3) 0.32515(6)
N4_2 N 0.92769(19) 0.6699(2) 0.36956(6)
N7_2 N 0.6765(2) 0.6766(3) 0.41656(6)
N8_2 N 0.60566(19) 0.6690(3) 0.38013(6)
H2_2 H 0.5644 0.6664 0.3699
N10_2 N 0.4798(2) 0.6620(3) 0.46484(7)
O6_2 O 0.99064(18) 0.5535(2) 0.29932(6)
O9_2 O 0.39216(16) 0.7360(2) 0.51581(6)
O10_2 O 0.49406(17) 0.8357(3) 0.51756(7)
O11_2 O 0.12987(17) 0.8532(2) 0.49713(6)
C19_2 C 0.8038(3) 0.6475(3) 0.30313(8)
H13_2 H 0.8325 0.6419 0.2875
C20_2 C 0.7218(3) 0.6459(4) 0.30215(8)
H14_2 H 0.6955 0.6385 0.2861
C21_2 C 0.6797(2) 0.6550(3) 0.32445(8)
H15_2 H 0.6238 0.6558 0.3240
C22_2 C 0.7197(2) 0.6634(3) 0.34802(8)
C23_2 C 0.6836(2) 0.6696(3) 0.37287(8)
C24_2 C 0.6054(2) 0.6730(3) 0.40650(7)
C25_2 C 0.5334(2) 0.6700(3) 0.42221(8)
C26_2 C 0.4577(3) 0.6649(4) 0.41198(9)
H16_2 H 0.4497 0.6648 0.3939
C27_2 C 0.3947(3) 0.6600(4) 0.42860(9)
H17_2 H 0.3426 0.6573 0.4220
C28_2 C 0.4077(3) 0.6590(4) 0.45485(9)
H18_2 H 0.3639 0.6560 0.4662
C29_2 C 0.5413(2) 0.6690(3) 0.44882(8)
H19_2 H 0.5926 0.6735 0.4560
C30_2 C 0.7262(2) 0.6745(3) 0.39562(7)
C31_2 C 0.8102(2) 0.6751(3) 0.39538(7)
C32_2 C 0.8568(3) 0.6795(3) 0.41773(8)
H20_2 H 0.8329 0.6850 0.4342
C33_2 C 0.9369(3) 0.6759(3) 0.41553(8)
H21_2 H 0.9692 0.6767 0.4305
C34_2 C 0.9703(3) 0.6712(3) 0.39106(8)
C35_2 C 0.8486(2) 0.6701(3) 0.37131(7)
C36_2 C 0.8027(2) 0.6635(3) 0.34759(8)
C53_2 C 0.3649(2) 0.9065(3) 0.51493(7)
C57_2 C 0.2306(2) 0.9641(3) 0.50937(7)
C58_2 C 0.2850(2) 0.8877(3) 0.51169(7)
H34_2 H 0.2672 0.8215 0.5111
C59_2 C 0.4216(2) 0.8208(3) 0.51637(7)
C60_2 C 0.1466(2) 0.9403(3) 0.50393(7)
N11_2 N 0.5158(2) 0.5982(3) 0.55144(7)
O15_2 O 0.9795(2) 0.7827(2) 0.29546(6)
O16_2 O 0.62987(17) 0.6468(2) 0.50287(6)
O17_2 O 0.40619(16) 0.5049(2) 0.50583(6)
N3_3 N 0.1568(2) 0.1564(3) 0.17485(6)
N4_3 N 0.07231(19) 0.1699(2) 0.13044(6)
N7_3 N 0.3235(2) 0.1766(3) 0.08344(6)
N8_3 N 0.39434(19) 0.1690(3) 0.11987(6)
H2_3 H 0.4356 0.1664 0.1301
N10_3 N 0.5202(2) 0.1620(3) 0.03516(7)
O6_3 O 0.00936(18) 0.0535(2) 0.20068(6)
C19_3 C 0.1962(3) 0.1475(3) 0.19687(8)
H13_3 H 0.1675 0.1419 0.2125
C20_3 C 0.2782(3) 0.1459(4) 0.19785(8)
H14_3 H 0.3045 0.1385 0.2139
C21_3 C 0.3203(2) 0.1550(3) 0.17555(8)
H15_3 H 0.3762 0.1558 0.1760
C22_3 C 0.2803(2) 0.1634(3) 0.15198(8)
C23_3 C 0.3164(2) 0.1696(3) 0.12713(8)
C24_3 C 0.3946(2) 0.1730(3) 0.09350(7)
C25_3 C 0.4666(2) 0.1700(3) 0.07779(8)
C26_3 C 0.5423(3) 0.1649(4) 0.08802(9)
H16_3 H 0.5503 0.1648 0.1061
C27_3 C 0.6053(3) 0.1600(4) 0.07140(9)
H17_3 H 0.6574 0.1573 0.0780
C28_3 C 0.5923(3) 0.1590(4) 0.04515(9)
H18_3 H 0.6361 0.1560 0.0338
C29_3 C 0.4587(2) 0.1690(3) 0.05118(8)
H19_3 H 0.4074 0.1735 0.0440
C30_3 C 0.2738(2) 0.1745(3) 0.10438(7)
C31_3 C 0.1898(2) 0.1751(3) 0.10462(7)
C32_3 C 0.1432(3) 0.1795(3) 0.08227(8)
H20_3 H 0.1671 0.1850 0.0658
C33_3 C 0.0631(3) 0.1759(3) 0.08447(8)
H21_3 H 0.0308 0.1767 0.0695
C34_3 C 0.0297(3) 0.1712(3) 0.10894(8)
C35_3 C 0.1514(2) 0.1701(3) 0.12869(7)
C36_3 C 0.1973(2) 0.1635(3) 0.15241(8)
O9_3 O 0.60784(16) 0.2360(2) 0.98419(6)
O10_3 O 0.50594(17) 0.3357(3) 0.98244(7)
O12_3 O 0.90619(16) 0.5049(2) 0.99417(6)
C53_3 C 0.6351(2) 0.4065(3) 0.98507(7)
C54_3 C 0.6100(2) 0.5037(3) 0.98402(7)
H31_3 H 0.5557 0.5179 0.9821
C55_3 C 0.6635(3) 0.5797(3) 0.98580(8)
H32_3 H 0.6457 0.6459 0.9849
C56_3 C 0.7431(2) 0.5605(3) 0.98892(8)
H33_3 H 0.7796 0.6133 0.9899
C57_3 C 0.7694(2) 0.4641(3) 0.99063(7)
C58_3 C 0.7150(2) 0.3877(3) 0.98831(7)
H34_3 H 0.7328 0.3215 0.9889
C59_3 C 0.5784(2) 0.3208(3) 0.98363(7)
C60_3 C 0.8534(2) 0.4403(3) 0.99607(7)
Cd8_3 Cd 0.997150(17) 0.63976(2) 0.991280(5)
O17_3 O 0.59381(16) 0.0049(2) 0.99417(6)
Cd2_3 Cd 0.524030(17) 0.40476(2) 0.166770(5)
N1_3 N 0.3911(2) 0.3919(3) 0.17627(6)
N2_3 N 0.45878(19) 0.4103(3) 0.12846(6)
N5_3 N 0.1932(2) 0.4228(3) 0.09241(6)
N6_3 N 0.13612(19) 0.4155(3) 0.13134(6)
H1_3 H 0.0991 0.4139 0.1432
O1_3 O 0.51744(16) 0.1966(2) 0.15610(6)
O2_3 O 0.61743(17) 0.3012(2) 0.15521(7)
O3_3 O 0.91813(17) 0.0454(2) 0.15181(6)
O4_3 O 0.88778(18) 0.1899(3) 0.16805(7)
C1_3 C 0.3597(3) 0.3847(3) 0.19973(8)
H3_3 H 0.3938 0.3757 0.2140
C2_3 C 0.2793(3) 0.3897(3) 0.20418(8)
H4_3 H 0.2592 0.3856 0.2212
C3_3 C 0.2295(2) 0.4007(3) 0.18361(8)
H5_3 H 0.1744 0.4050 0.1863
C4_3 C 0.2606(2) 0.4057(3) 0.15853(7)
C5_3 C 0.2161(2) 0.4144(3) 0.13531(8)
C6_3 C 0.1260(2) 0.4197(3) 0.10515(7)
C7_3 C 0.0496(2) 0.4157(3) 0.09231(8)
C11_3 C 0.0493(2) 0.4127(3) 0.06546(8)
H9_3 H 0.0981 0.4187 0.0567
C12_3 C 0.2497(2) 0.4191(3) 0.11122(8)
C13_3 C 0.3330(2) 0.4170(3) 0.10779(7)
C14_3 C 0.3703(3) 0.4217(3) 0.08368(8)
H10_3 H 0.3401 0.4257 0.0683
C15_3 C 0.4508(3) 0.4203(3) 0.08251(8)
H11_3 H 0.4771 0.4227 0.0664
C16_3 C 0.4934(3) 0.4153(4) 0.10546(8)
H12_3 H 0.5492 0.4154 0.1047
C17_3 C 0.3798(2) 0.4103(3) 0.13007(7)
C18_3 C 0.3432(2) 0.4033(3) 0.15570(7)
H22_3 H 0.9741 0.1687 0.1103
C37_3 C 0.6482(2) 0.1323(3) 0.15632(8)
C38_3 C 0.6245(3) 0.0349(3) 0.15524(9)
H23_3 H 0.5702 0.0196 0.1536
C41_3 C 0.7831(2) 0.0802(3) 0.15889(8)
C42_3 C 0.7272(2) 0.1548(3) 0.15844(8)
H26_3 H 0.7434 0.2215 0.1596
C43_3 C 0.5897(2) 0.2143(3) 0.15588(7)
C44_3 C 0.8681(3) 0.1066(3) 0.15977(8)
C45_3 C 0.9781(2) 0.0155(3) 0.24411(8)
C48_3 C 0.9872(3) 0.0484(4) 0.29638(9)
H28_3 H 0.9899 0.0602 0.3144
C49_3 C 0.9921(3) 0.1268(4) 0.27942(10)
H29_3 H 0.9975 0.1919 0.2858
C50_3 C 0.9891(3) 0.1105(4) 0.25315(9)
H30_3 H 0.9945 0.1638 0.2414
O13_3 O 0.58187(17) 0.5454(2) 0.15181(6)
O14_3 O 0.55703(19) 0.4164(3) 0.20825(6)
O5_3 O 0.94297(19) 0.9164(3) 0.20825(6)
O8_3 O 0.97276(18) 0.8795(3) 0.32951(5)
C39_3 C 0.6791(3) 0.9598(4) 0.15649(11)
H24_3 H 0.6625 0.8931 0.1564
C40_3 C 0.7580(3) 0.9826(4) 0.15788(10)
H25_3 H 0.7958 0.9311 0.1581
C46_3 C 0.9727(3) 0.9376(3) 0.26122(8)
H27_3 H 0.9650 0.8727 0.2549
C47_3 C 0.9785(2) 0.9537(3) 0.28744(8)
C51_3 C 0.9758(3) 0.9950(4) 0.21575(8)
C52_3 C 0.9770(2) 0.8664(4) 0.30560(8)
Cd5_3 Cd 0.975970(17) 0.90476(2) 0.166770(5)
C8_3 C 0.9782(3) 0.4084(4) 0.10503(9)
H6_3 H 0.9761 0.4093 0.1233
C9_3 C 0.9101(3) 0.3999(4) 0.09061(9)
H7_3 H 0.8603 0.3963 0.0988
C10_3 C 0.9156(3) 0.3966(4) 0.06416(8)
H8_3 H 0.8686 0.3903 0.0544
N1_4 N 0.1089(2) 0.6081(3) 0.67627(6)
N2_4 N 0.04122(19) 0.5897(3) 0.62846(6)
N5_4 N 0.3068(2) 0.5772(3) 0.59241(6)
N6_4 N 0.36388(19) 0.5845(3) 0.63134(6)
H1_4 H 0.4009 0.5861 0.6432
C1_4 C 0.1403(3) 0.6153(3) 0.69973(8)
H3_4 H 0.1062 0.6243 0.7140
C2_4 C 0.2207(3) 0.6103(3) 0.70418(8)
H4_4 H 0.2408 0.6144 0.7212
C3_4 C 0.2705(2) 0.5993(3) 0.68361(8)
H5_4 H 0.3256 0.5950 0.6863
C4_4 C 0.2394(2) 0.5943(3) 0.65853(7)
C5_4 C 0.2839(2) 0.5856(3) 0.63531(8)
C6_4 C 0.3740(2) 0.5803(3) 0.60515(7)
C7_4 C 0.4504(2) 0.5843(3) 0.59231(8)
C8_4 C 0.5218(3) 0.5916(4) 0.60503(9)
H6_4 H 0.5239 0.5907 0.6233
C9_4 C 0.5899(3) 0.6001(4) 0.59061(9)
H7_4 H 0.6397 0.6037 0.5988
C10_4 C 0.5844(3) 0.6034(4) 0.56416(8)
H8_4 H 0.6314 0.6097 0.5544
C11_4 C 0.4507(2) 0.5873(3) 0.56546(8)
H9_4 H 0.4019 0.5813 0.5567
C12_4 C 0.2503(2) 0.5809(3) 0.61122(8)
C13_4 C 0.1670(2) 0.5830(3) 0.60779(7)
C14_4 C 0.1297(3) 0.5783(3) 0.58368(8)
H10_4 H 0.1599 0.5743 0.5683
C15_4 C 0.0492(3) 0.5797(3) 0.58251(8)
H11_4 H 0.0229 0.5773 0.5664
C16_4 C 0.0066(3) 0.5847(4) 0.60546(8)
C17_4 C 0.1202(2) 0.5897(3) 0.63007(7)
C18_4 C 0.1568(2) 0.5967(3) 0.65570(7)
O5_4 O 0.55703(19) 0.0836(3) 0.70825(6)
O8_4 O 0.52724(18) 0.1205(3) 0.82951(5)
C39_4 C 0.8209(3) 0.0402(4) 0.65649(11)
H24_4 H 0.8375 0.1069 0.6564
C40_4 C 0.7420(3) 0.0174(4) 0.65788(10)
H25_4 H 0.7042 0.0689 0.6581
C46_4 C 0.5273(3) 0.0624(3) 0.76122(8)
H27_4 H 0.5350 0.1273 0.7549
C47_4 C 0.5215(2) 0.0463(3) 0.78744(8)
C51_4 C 0.5242(3) 0.0050(4) 0.71575(8)
C52_4 C 0.5230(2) 0.1336(4) 0.80560(8)
Cd5_4 Cd 0.524030(17) 0.09524(2) 0.666770(5)
Cd2_4 Cd 0.975970(17) 0.59524(2) 0.666770(5)
N3_4 N 0.3432(2) 0.8436(3) 0.67485(6)
N4_4 N 0.42769(19) 0.8301(2) 0.63044(6)
N7_4 N 0.1765(2) 0.8234(3) 0.58344(6)
N8_4 N 0.10566(19) 0.8310(3) 0.61987(6)
H2_4 H 0.0644 0.8336 0.6301
O1_4 O 0.98256(16) 0.8034(2) 0.65610(6)
O2_4 O 0.88257(17) 0.6988(2) 0.65521(7)
O3_4 O 0.58187(17) 0.9546(2) 0.65181(6)
O4_4 O 0.61222(18) 0.8101(3) 0.66805(7)
O6_4 O 0.49064(18) 0.9465(2) 0.70068(6)
H12_4 H 0.9508 0.5846 0.6047
C19_4 C 0.3038(3) 0.8525(3) 0.69687(8)
H13_4 H 0.3325 0.8581 0.7125
C20_4 C 0.2218(3) 0.8541(4) 0.69785(8)
H14_4 H 0.1955 0.8615 0.7139
C21_4 C 0.1797(2) 0.8450(3) 0.67555(8)
H15_4 H 0.1238 0.8442 0.6760
C22_4 C 0.2197(2) 0.8366(3) 0.65198(8)
C23_4 C 0.1836(2) 0.8304(3) 0.62713(8)
C24_4 C 0.1054(2) 0.8270(3) 0.59350(7)
C25_4 C 0.0334(2) 0.8300(3) 0.57779(8)
C29_4 C 0.0413(2) 0.8310(3) 0.55118(8)
H19_4 H 0.0926 0.8265 0.5440
C30_4 C 0.2262(2) 0.8255(3) 0.60438(7)
C31_4 C 0.3102(2) 0.8249(3) 0.60462(7)
C32_4 C 0.3568(3) 0.8205(3) 0.58227(8)
H20_4 H 0.3329 0.8150 0.5658
C33_4 C 0.4369(3) 0.8241(3) 0.58447(8)
H21_4 H 0.4692 0.8233 0.5695
C34_4 C 0.4703(3) 0.8288(3) 0.60894(8)
H22_4 H 0.5259 0.8313 0.6103
C35_4 C 0.3486(2) 0.8299(3) 0.62869(7)
C36_4 C 0.3027(2) 0.8365(3) 0.65241(8)
C37_4 C 0.8518(2) 0.8677(3) 0.65632(8)
C38_4 C 0.8755(3) 0.9651(3) 0.65524(9)
H23_4 H 0.9298 0.9804 0.6536
C41_4 C 0.7169(2) 0.9198(3) 0.65889(8)
C42_4 C 0.7728(2) 0.8452(3) 0.65844(8)
H26_4 H 0.7566 0.7785 0.6596
C43_4 C 0.9103(2) 0.7857(3) 0.65588(7)
C44_4 C 0.6319(3) 0.8934(3) 0.65977(8)
C45_4 C 0.5219(2) 0.9845(3) 0.74411(8)
C48_4 C 0.5128(3) 0.9516(4) 0.79638(9)
H28_4 H 0.5101 0.9398 0.8144
C49_4 C 0.5079(3) 0.8732(4) 0.77942(10)
H29_4 H 0.5025 0.8081 0.7858
C50_4 C 0.5109(3) 0.8895(4) 0.75315(9)
H30_4 H 0.5055 0.8362 0.7414
O13_4 O 0.91813(17) 0.4546(2) 0.65181(6)
O14_4 O 0.94297(19) 0.5836(3) 0.70825(6)
N10_4 N 0.9798(2) 0.8380(3) 0.53516(7)
O9_4 O 0.89216(16) 0.7640(2) 0.48419(6)
O10_4 O 0.99406(17) 0.6643(3) 0.48244(7)
O12_4 O 0.59381(16) 0.4951(2) 0.49417(6)
C26_4 C 0.9577(3) 0.8351(4) 0.58802(9)
H16_4 H 0.9497 0.8352 0.6061
C27_4 C 0.8947(3) 0.8400(4) 0.57140(9)
H17_4 H 0.8426 0.8427 0.5780
C28_4 C 0.9077(3) 0.8410(4) 0.54515(9)
H18_4 H 0.8639 0.8440 0.5338
C53_4 C 0.8649(2) 0.5935(3) 0.48507(7)
C54_4 C 0.8900(2) 0.4963(3) 0.48402(7)
H31_4 H 0.9443 0.4821 0.4821
C55_4 C 0.8365(3) 0.4203(3) 0.48580(8)
H32_4 H 0.8543 0.3541 0.4849
C56_4 C 0.7569(2) 0.4395(3) 0.48892(8)
H33_4 H 0.7204 0.3867 0.4899
C57_4 C 0.7306(2) 0.5359(3) 0.49063(7)
C58_4 C 0.7850(2) 0.6123(3) 0.48831(7)
H34_4 H 0.7672 0.6785 0.4889
C59_4 C 0.9216(2) 0.6792(3) 0.48363(7)
C60_4 C 0.6466(2) 0.5597(3) 0.49607(7)
Cd8_4 Cd 0.502850(17) 0.36024(2) 0.491280(5)
O17_4 O 0.90619(16) 0.9951(2) 0.49417(6)
N1_5 N 0.1089(2) 0.8919(3) 0.17627(6)
N2_5 N 0.04122(19) 0.9103(3) 0.12846(6)
N5_5 N 0.3068(2) 0.9228(3) 0.09241(6)
N6_5 N 0.36388(19) 0.9155(3) 0.13134(6)
H1_5 H 0.4009 0.9139 0.1432
N9_3 N 0.5158(2) 0.9018(3) 0.05144(7)
C1_5 C 0.1403(3) 0.8847(3) 0.19973(8)
H3_5 H 0.1062 0.8757 0.2140
C2_5 C 0.2207(3) 0.8897(3) 0.20418(8)
H4_5 H 0.2408 0.8856 0.2212
C3_5 C 0.2705(2) 0.9007(3) 0.18361(8)
H5_5 H 0.3256 0.9050 0.1863
C4_5 C 0.2394(2) 0.9057(3) 0.15853(7)
C5_5 C 0.2839(2) 0.9144(3) 0.13531(8)
C6_5 C 0.3740(2) 0.9197(3) 0.10515(7)
C7_5 C 0.4504(2) 0.9157(3) 0.09231(8)
C8_5 C 0.5218(3) 0.9084(4) 0.10503(9)
H6_5 H 0.5239 0.9093 0.1233
C9_5 C 0.5899(3) 0.8999(4) 0.09061(9)
H7_5 H 0.6397 0.8963 0.0988
C10_5 C 0.5844(3) 0.8966(4) 0.06416(8)
H8_5 H 0.6314 0.8903 0.0544
C11_5 C 0.4507(2) 0.9127(3) 0.06546(8)
H9_5 H 0.4019 0.9187 0.0567
C12_5 C 0.2503(2) 0.9191(3) 0.11122(8)
C13_5 C 0.1670(2) 0.9170(3) 0.10779(7)
C14_5 C 0.1297(3) 0.9217(3) 0.08368(8)
H10_5 H 0.1599 0.9257 0.0683
C15_5 C 0.0492(3) 0.9203(3) 0.08251(8)
H11_5 H 0.0229 0.9227 0.0664
C16_5 C 0.0066(3) 0.9153(4) 0.10546(8)
C17_5 C 0.1202(2) 0.9103(3) 0.13007(7)
C18_5 C 0.1568(2) 0.9033(3) 0.15570(7)
Cd1_3 Cd 0.480282(17) 0.67863(2) 0.171446(5)
N3_5 N 0.3432(2) 0.6564(3) 0.17485(6)
N4_5 N 0.42769(19) 0.6699(2) 0.13044(6)
N7_5 N 0.1765(2) 0.6766(3) 0.08344(6)
N8_5 N 0.10566(19) 0.6690(3) 0.11987(6)
H2_5 H 0.0644 0.6664 0.1301
O1_5 O 0.98256(16) 0.6966(2) 0.15610(6)
O2_5 O 0.88257(17) 0.8012(2) 0.15521(7)
O4_5 O 0.61222(18) 0.6899(3) 0.16805(7)
O6_5 O 0.49064(18) 0.5535(2) 0.20068(6)
O7_3 O 0.5205(2) 0.2827(2) 0.29546(6)
O8_5 O 0.52724(18) 0.3795(3) 0.32951(5)
H12_5 H 0.9508 0.9154 0.1047
C19_5 C 0.3038(3) 0.6475(3) 0.19687(8)
H13_5 H 0.3325 0.6419 0.2125
C20_5 C 0.2218(3) 0.6459(4) 0.19785(8)
H14_5 H 0.1955 0.6385 0.2139
C21_5 C 0.1797(2) 0.6550(3) 0.17555(8)
H15_5 H 0.1238 0.6558 0.1760
C22_5 C 0.2197(2) 0.6634(3) 0.15198(8)
C23_5 C 0.1836(2) 0.6696(3) 0.12713(8)
C24_5 C 0.1054(2) 0.6730(3) 0.09350(7)
C25_5 C 0.0334(2) 0.6700(3) 0.07779(8)
C29_5 C 0.0413(2) 0.6690(3) 0.05118(8)
H19_5 H 0.0926 0.6735 0.0440
C30_5 C 0.2262(2) 0.6745(3) 0.10438(7)
C31_5 C 0.3102(2) 0.6751(3) 0.10462(7)
C32_5 C 0.3568(3) 0.6795(3) 0.08227(8)
H20_5 H 0.3329 0.6850 0.0658
C33_5 C 0.4369(3) 0.6759(3) 0.08447(8)
H21_5 H 0.4692 0.6767 0.0695
C34_5 C 0.4703(3) 0.6712(3) 0.10894(8)
H22_5 H 0.5259 0.6687 0.1103
C35_5 C 0.3486(2) 0.6701(3) 0.12869(7)
C36_5 C 0.3027(2) 0.6635(3) 0.15241(8)
C37_5 C 0.8518(2) 0.6323(3) 0.15632(8)
C38_5 C 0.8755(3) 0.5349(3) 0.15524(9)
H23_5 H 0.9298 0.5196 0.1536
C39_5 C 0.8209(3) 0.4598(4) 0.15649(11)
H24_5 H 0.8375 0.3931 0.1564
C40_5 C 0.7420(3) 0.4826(4) 0.15788(10)
H25_5 H 0.7042 0.4311 0.1581
C41_5 C 0.7169(2) 0.5802(3) 0.15889(8)
C42_5 C 0.7728(2) 0.6548(3) 0.15844(8)
H26_5 H 0.7566 0.7215 0.1596
C43_5 C 0.9103(2) 0.7143(3) 0.15588(7)
C44_5 C 0.6319(3) 0.6066(3) 0.15977(8)
C45_5 C 0.5219(2) 0.5155(3) 0.24411(8)
C46_5 C 0.5273(3) 0.4376(3) 0.26122(8)
H27_5 H 0.5350 0.3727 0.2549
C47_5 C 0.5215(2) 0.4537(3) 0.28744(8)
C48_5 C 0.5128(3) 0.5484(4) 0.29638(9)
H28_5 H 0.5101 0.5602 0.3144
C49_5 C 0.5079(3) 0.6268(4) 0.27942(10)
H29_5 H 0.5025 0.6919 0.2858
C50_5 C 0.5109(3) 0.6105(4) 0.25315(9)
H30_5 H 0.5055 0.6638 0.2414
C51_5 C 0.5242(3) 0.4950(4) 0.21575(8)
C52_5 C 0.5230(2) 0.3664(4) 0.30560(8)
Cd4_3 Cd 0.519718(17) 0.17863(2) 0.328554(5)
O15_3 O 0.4795(2) 0.7827(2) 0.20454(6)
N11_3 N 0.0158(2) 0.5982(3) 0.94856(7)
O16_3 O 0.12987(17) 0.6468(2) 0.99713(6)
C54_5 C 0.8900(2) 0.0037(3) 0.98402(7)
H31_5 H 0.9443 0.0179 0.9821
C55_5 C 0.8365(3) 0.0797(3) 0.98580(8)
H32_5 H 0.8543 0.1459 0.9849
C56_5 C 0.7569(2) 0.0605(3) 0.98892(8)
H33_5 H 0.7204 0.1133 0.9899
N10_5 N 0.9798(2) 0.6620(3) 0.03516(7)
O11_3 O 0.62987(17) 0.8532(2) 0.00287(6)
C26_5 C 0.9577(3) 0.6649(4) 0.08802(9)
H16_5 H 0.9497 0.6648 0.1061
C27_5 C 0.8947(3) 0.6600(4) 0.07140(9)
H17_5 H 0.8426 0.6573 0.0780
C28_5 C 0.9077(3) 0.6590(4) 0.04515(9)
H18_5 H 0.8639 0.6560 0.0338
O9_5 O 0.89216(16) 0.7360(2) 0.98419(6)
O10_5 O 0.99406(17) 0.8357(3) 0.98244(7)
C53_5 C 0.8649(2) 0.9065(3) 0.98507(7)
C57_5 C 0.7306(2) 0.9641(3) 0.99063(7)
C58_5 C 0.7850(2) 0.8877(3) 0.98831(7)
H34_5 H 0.7672 0.8215 0.9889
C59_5 C 0.9216(2) 0.8208(3) 0.98363(7)
C60_5 C 0.6466(2) 0.9403(3) 0.99607(7)
Cd1_4 Cd 0.019718(17) 0.32137(2) 0.671446(5)
N3_6 N 0.1568(2) 0.3436(3) 0.67485(6)
N4_6 N 0.07231(19) 0.3301(2) 0.63044(6)
N7_6 N 0.3235(2) 0.3234(3) 0.58344(6)
N8_6 N 0.39434(19) 0.3310(3) 0.61987(6)
H2_6 H 0.4356 0.3336 0.6301
N10_6 N 0.5202(2) 0.3380(3) 0.53516(7)
O6_6 O 0.00936(18) 0.4465(2) 0.70068(6)
O9_6 O 0.60784(16) 0.2640(2) 0.48419(6)
O10_6 O 0.50594(17) 0.1643(3) 0.48244(7)
O11_4 O 0.87013(17) 0.1468(2) 0.50287(6)
C19_6 C 0.1962(3) 0.3525(3) 0.69687(8)
H13_6 H 0.1675 0.3581 0.7125
C20_6 C 0.2782(3) 0.3541(4) 0.69785(8)
H14_6 H 0.3045 0.3615 0.7139
C21_6 C 0.3203(2) 0.3450(3) 0.67555(8)
H15_6 H 0.3762 0.3442 0.6760
C22_6 C 0.2803(2) 0.3366(3) 0.65198(8)
C23_6 C 0.3164(2) 0.3304(3) 0.62713(8)
C24_6 C 0.3946(2) 0.3270(3) 0.59350(7)
C25_6 C 0.4666(2) 0.3300(3) 0.57779(8)
C26_6 C 0.5423(3) 0.3351(4) 0.58802(9)
H16_6 H 0.5503 0.3352 0.6061
C27_6 C 0.6053(3) 0.3400(4) 0.57140(9)
H17_6 H 0.6574 0.3427 0.5780
C28_6 C 0.5923(3) 0.3410(4) 0.54515(9)
H18_6 H 0.6361 0.3440 0.5338
C29_6 C 0.4587(2) 0.3310(3) 0.55118(8)
H19_6 H 0.4074 0.3265 0.5440
C30_6 C 0.2738(2) 0.3255(3) 0.60438(7)
C31_6 C 0.1898(2) 0.3249(3) 0.60462(7)
C32_6 C 0.1432(3) 0.3205(3) 0.58227(8)
H20_6 H 0.1671 0.3150 0.5658
C33_6 C 0.0631(3) 0.3241(3) 0.58447(8)
H21_6 H 0.0308 0.3233 0.5695
C34_6 C 0.0297(3) 0.3288(3) 0.60894(8)
C35_6 C 0.1514(2) 0.3299(3) 0.62869(7)
C36_6 C 0.1973(2) 0.3365(3) 0.65241(8)
C53_6 C 0.6351(2) 0.0935(3) 0.48507(7)
C57_6 C 0.7694(2) 0.0359(3) 0.49063(7)
C58_6 C 0.7150(2) 0.1123(3) 0.48831(7)
H34_6 H 0.7328 0.1785 0.4889
C59_6 C 0.5784(2) 0.1792(3) 0.48363(7)
C60_6 C 0.8534(2) 0.0597(3) 0.49607(7)
N11_4 N 0.4842(2) 0.4018(3) 0.44856(7)
O15_4 O 0.0205(2) 0.2173(2) 0.70454(6)
O16_4 O 0.37013(17) 0.3532(2) 0.49713(6)
C54_6 C 0.6100(2) 0.9963(3) 0.48402(7)
H31_6 H 0.5557 0.9821 0.4821
C55_6 C 0.6635(3) 0.9203(3) 0.48580(8)
H32_6 H 0.6457 0.8541 0.4849
C56_6 C 0.7431(2) 0.9395(3) 0.48892(8)
H33_6 H 0.7796 0.8867 0.4899
N1_6 N 0.3911(2) 0.1081(3) 0.67627(6)
N2_6 N 0.45878(19) 0.0897(3) 0.62846(6)
N5_6 N 0.1932(2) 0.0772(3) 0.59241(6)
N6_6 N 0.13612(19) 0.0845(3) 0.63134(6)
H1_6 H 0.0991 0.0861 0.6432
O1_6 O 0.51744(16) 0.3034(2) 0.65610(6)
O2_6 O 0.61743(17) 0.1988(2) 0.65521(7)
O4_6 O 0.88778(18) 0.3101(3) 0.66805(7)
O7_4 O 0.9795(2) 0.7173(2) 0.79546(6)
O8_6 O 0.97276(18) 0.6205(3) 0.82951(5)
C1_6 C 0.3597(3) 0.1153(3) 0.69973(8)
H3_6 H 0.3938 0.1243 0.7140
C2_6 C 0.2793(3) 0.1103(3) 0.70418(8)
H4_6 H 0.2592 0.1144 0.7212
C3_6 C 0.2295(2) 0.0993(3) 0.68361(8)
H5_6 H 0.1744 0.0950 0.6863
C4_6 C 0.2606(2) 0.0943(3) 0.65853(7)
C5_6 C 0.2161(2) 0.0856(3) 0.63531(8)
C6_6 C 0.1260(2) 0.0803(3) 0.60515(7)
C7_6 C 0.0496(2) 0.0843(3) 0.59231(8)
C11_6 C 0.0493(2) 0.0873(3) 0.56546(8)
H9_6 H 0.0981 0.0813 0.5567
C12_6 C 0.2497(2) 0.0809(3) 0.61122(8)
C13_6 C 0.3330(2) 0.0830(3) 0.60779(7)
C14_6 C 0.3703(3) 0.0783(3) 0.58368(8)
H10_6 H 0.3401 0.0743 0.5683
C15_6 C 0.4508(3) 0.0797(3) 0.58251(8)
H11_6 H 0.4771 0.0773 0.5664
C16_6 C 0.4934(3) 0.0847(4) 0.60546(8)
H12_6 H 0.5492 0.0846 0.6047
C17_6 C 0.3798(2) 0.0897(3) 0.63007(7)
C18_6 C 0.3432(2) 0.0967(3) 0.65570(7)
H22_6 H 0.9741 0.3313 0.6103
C37_6 C 0.6482(2) 0.3677(3) 0.65632(8)
C38_6 C 0.6245(3) 0.4651(3) 0.65524(9)
H23_6 H 0.5702 0.4804 0.6536
C39_6 C 0.6791(3) 0.5402(4) 0.65649(11)
H24_6 H 0.6625 0.6069 0.6564
C40_6 C 0.7580(3) 0.5174(4) 0.65788(10)
H25_6 H 0.7958 0.5689 0.6581
C41_6 C 0.7831(2) 0.4198(3) 0.65889(8)
C42_6 C 0.7272(2) 0.3452(3) 0.65844(8)
H26_6 H 0.7434 0.2785 0.6596
C43_6 C 0.5897(2) 0.2857(3) 0.65588(7)
C44_6 C 0.8681(3) 0.3934(3) 0.65977(8)
C45_6 C 0.9781(2) 0.4845(3) 0.74411(8)
C46_6 C 0.9727(3) 0.5624(3) 0.76122(8)
H27_6 H 0.9650 0.6273 0.7549
C47_6 C 0.9785(2) 0.5463(3) 0.78744(8)
C48_6 C 0.9872(3) 0.4516(4) 0.79638(9)
H28_6 H 0.9899 0.4398 0.8144
C49_6 C 0.9921(3) 0.3732(4) 0.77942(10)
H29_6 H 0.9975 0.3081 0.7858
C50_6 C 0.9891(3) 0.3895(4) 0.75315(9)
H30_6 H 0.9945 0.3362 0.7414
C51_6 C 0.9758(3) 0.5050(4) 0.71575(8)
C52_6 C 0.9770(2) 0.6336(4) 0.80560(8)
Cd4_4 Cd 0.980282(17) 0.82137(2) 0.828554(5)
N9_4 N 0.9842(2) 0.0982(3) 0.55144(7)
C8_6 C 0.9782(3) 0.0916(4) 0.60503(9)
H6_6 H 0.9761 0.0907 0.6233
C9_6 C 0.9101(3) 0.1001(4) 0.59061(9)
H7_6 H 0.8603 0.1037 0.5988
C10_6 C 0.9156(3) 0.1034(4) 0.56416(8)
H8_6 H 0.8686 0.1097 0.5544
C8_7 C 0.0218(3) 0.5916(4) 0.89497(9)
H6_7 H 0.0239 0.5907 0.8767
C9_7 C 0.0899(3) 0.6001(4) 0.90939(9)
H7_7 H 0.1397 0.6037 0.9012
C10_7 C 0.0844(3) 0.6034(4) 0.93584(8)
H8_7 H 0.1314 0.6097 0.9456
O8_7 O 0.02724(18) 0.1205(3) 0.67049(5)
C39_7 C 0.3209(3) 0.0402(4) 0.84351(11)
H24_7 H 0.3375 0.1069 0.8436
C40_7 C 0.2420(3) 0.0174(4) 0.84212(10)
H25_7 H 0.2042 0.0689 0.8419
C46_7 C 0.0273(3) 0.0624(3) 0.73878(8)
H27_7 H 0.0350 0.1273 0.7451
C47_7 C 0.0215(2) 0.0463(3) 0.71256(8)
C51_7 C 0.0242(3) 0.0050(4) 0.78425(8)
C52_7 C 0.0230(2) 0.1336(4) 0.69440(8)
N1_7 N 0.6089(2) 0.6081(3) 0.82373(6)
N2_7 N 0.54122(19) 0.5897(3) 0.87154(6)
N5_7 N 0.8068(2) 0.5772(3) 0.90759(6)
N6_7 N 0.86388(19) 0.5845(3) 0.86866(6)
H1_7 H 0.9009 0.5861 0.8568
O1_7 O 0.48256(16) 0.8034(2) 0.84390(6)
O2_7 O 0.38257(17) 0.6988(2) 0.84479(7)
O4_7 O 0.11222(18) 0.8101(3) 0.83195(7)
C1_7 C 0.6403(3) 0.6153(3) 0.80027(8)
H3_7 H 0.6062 0.6243 0.7860
C2_7 C 0.7207(3) 0.6103(3) 0.79582(8)
H4_7 H 0.7408 0.6144 0.7788
C3_7 C 0.7705(2) 0.5993(3) 0.81639(8)
H5_7 H 0.8256 0.5950 0.8137
C4_7 C 0.7394(2) 0.5943(3) 0.84147(7)
C5_7 C 0.7839(2) 0.5856(3) 0.86469(8)
C6_7 C 0.8740(2) 0.5803(3) 0.89485(7)
C7_7 C 0.9504(2) 0.5843(3) 0.90769(8)
C11_7 C 0.9507(2) 0.5873(3) 0.93454(8)
H9_7 H 0.9019 0.5813 0.9433
C12_7 C 0.7503(2) 0.5809(3) 0.88878(8)
C13_7 C 0.6670(2) 0.5830(3) 0.89221(7)
C14_7 C 0.6297(3) 0.5783(3) 0.91632(8)
H10_7 H 0.6599 0.5743 0.9317
C15_7 C 0.5492(3) 0.5797(3) 0.91749(8)
H11_7 H 0.5229 0.5773 0.9336
C16_7 C 0.5066(3) 0.5847(4) 0.89454(8)
H12_7 H 0.4508 0.5846 0.8953
C17_7 C 0.6202(2) 0.5897(3) 0.86993(7)
C18_7 C 0.6568(2) 0.5967(3) 0.84430(7)
H22_7 H 0.0259 0.8313 0.8897
C37_7 C 0.3518(2) 0.8677(3) 0.84368(8)
C38_7 C 0.3755(3) 0.9651(3) 0.84476(9)
H23_7 H 0.4298 0.9804 0.8464
C41_7 C 0.2169(2) 0.9198(3) 0.84111(8)
C42_7 C 0.2728(2) 0.8452(3) 0.84156(8)
H26_7 H 0.2566 0.7785 0.8404
C43_7 C 0.4103(2) 0.7857(3) 0.84412(7)
C44_7 C 0.1319(3) 0.8934(3) 0.84023(8)
C45_7 C 0.0219(2) 0.9845(3) 0.75589(8)
C48_7 C 0.0128(3) 0.9516(4) 0.70362(9)
H28_7 H 0.0101 0.9398 0.6856
C49_7 C 0.0079(3) 0.8732(4) 0.72058(10)
H29_7 H 0.0025 0.8081 0.7142
C50_7 C 0.0109(3) 0.8895(4) 0.74685(9)
H30_7 H 0.0055 0.8362 0.7586
O9_7 O 0.39216(16) 0.7640(2) 0.01581(6)
O10_7 O 0.49406(17) 0.6643(3) 0.01756(7)
C53_7 C 0.3649(2) 0.5935(3) 0.01493(7)
C54_7 C 0.3900(2) 0.4963(3) 0.01598(7)
H31_7 H 0.4443 0.4821 0.0179
C55_7 C 0.3365(3) 0.4203(3) 0.01420(8)
H32_7 H 0.3543 0.3541 0.0151
C56_7 C 0.2569(2) 0.4395(3) 0.01108(8)
H33_7 H 0.2204 0.3867 0.0101
C57_7 C 0.2306(2) 0.5359(3) 0.00937(7)
C58_7 C 0.2850(2) 0.6123(3) 0.01169(7)
H34_7 H 0.2672 0.6785 0.0111
C59_7 C 0.4216(2) 0.6792(3) 0.01637(7)
C60_7 C 0.1466(2) 0.5597(3) 0.00393(7)
N3_7 N 0.8432(2) 0.8436(3) 0.82515(6)
N4_7 N 0.92769(19) 0.8301(2) 0.86956(6)
N7_7 N 0.6765(2) 0.8234(3) 0.91656(6)
N8_7 N 0.60566(19) 0.8310(3) 0.88013(6)
H2_7 H 0.5644 0.8336 0.8699
N10_7 N 0.4798(2) 0.8380(3) 0.96484(7)
O6_7 O 0.99064(18) 0.9465(2) 0.79932(6)
C19_7 C 0.8038(3) 0.8525(3) 0.80313(8)
H13_7 H 0.8325 0.8581 0.7875
C20_7 C 0.7218(3) 0.8541(4) 0.80215(8)
H14_7 H 0.6955 0.8615 0.7861
C21_7 C 0.6797(2) 0.8450(3) 0.82445(8)
H15_7 H 0.6238 0.8442 0.8240
C22_7 C 0.7197(2) 0.8366(3) 0.84802(8)
C23_7 C 0.6836(2) 0.8304(3) 0.87287(8)
C24_7 C 0.6054(2) 0.8270(3) 0.90650(7)
C25_7 C 0.5334(2) 0.8300(3) 0.92221(8)
C26_7 C 0.4577(3) 0.8351(4) 0.91198(9)
H16_7 H 0.4497 0.8352 0.8939
C27_7 C 0.3947(3) 0.8400(4) 0.92860(9)
H17_7 H 0.3426 0.8427 0.9220
C28_7 C 0.4077(3) 0.8410(4) 0.95485(9)
H18_7 H 0.3639 0.8440 0.9662
C29_7 C 0.5413(2) 0.8310(3) 0.94882(8)
H19_7 H 0.5926 0.8265 0.9560
C30_7 C 0.7262(2) 0.8255(3) 0.89562(7)
C31_7 C 0.8102(2) 0.8249(3) 0.89538(7)
C32_7 C 0.8568(3) 0.8205(3) 0.91773(8)
H20_7 H 0.8329 0.8150 0.9342
C33_7 C 0.9369(3) 0.8241(3) 0.91553(8)
H21_7 H 0.9692 0.8233 0.9305
C34_7 C 0.9703(3) 0.8288(3) 0.89106(8)
C35_7 C 0.8486(2) 0.8299(3) 0.87131(7)
C36_7 C 0.8027(2) 0.8365(3) 0.84759(8)
N10_8 N 0.0202(2) 0.1620(3) 0.46484(7)
O9_8 O 0.10784(16) 0.2360(2) 0.51581(6)
O10_8 O 0.00594(17) 0.3357(3) 0.51756(7)
C26_8 C 0.0423(3) 0.1649(4) 0.41198(9)
H16_8 H 0.0503 0.1648 0.3939
C27_8 C 0.1053(3) 0.1600(4) 0.42860(9)
H17_8 H 0.1574 0.1573 0.4220
C28_8 C 0.0923(3) 0.1590(4) 0.45485(9)
H18_8 H 0.1361 0.1560 0.4662
C53_8 C 0.1351(2) 0.4065(3) 0.51493(7)
C54_8 C 0.1100(2) 0.5037(3) 0.51598(7)
H31_8 H 0.0557 0.5179 0.5179
C55_8 C 0.1635(3) 0.5797(3) 0.51420(8)
H32_8 H 0.1457 0.6459 0.5151
C56_8 C 0.2431(2) 0.5605(3) 0.51108(8)
H33_8 H 0.2796 0.6133 0.5101
C57_8 C 0.2694(2) 0.4641(3) 0.50937(7)
C58_8 C 0.2150(2) 0.3877(3) 0.51169(7)
H34_8 H 0.2328 0.3215 0.5111
C59_8 C 0.0784(2) 0.3208(3) 0.51637(7)
C60_8 C 0.3534(2) 0.4403(3) 0.50393(7)
N3_8 N 0.6568(2) 0.1564(3) 0.32515(6)
N4_8 N 0.57231(19) 0.1699(2) 0.36956(6)
N7_8 N 0.8235(2) 0.1766(3) 0.41656(6)
N8_8 N 0.89434(19) 0.1690(3) 0.38013(6)
H2_8 H 0.9356 0.1664 0.3699
O1_8 O 0.01744(16) 0.1966(2) 0.34390(6)
O2_8 O 0.11743(17) 0.3012(2) 0.34479(7)
O4_8 O 0.38778(18) 0.1899(3) 0.33195(7)
O6_8 O 0.50936(18) 0.0535(2) 0.29932(6)
H12_8 H 0.0492 0.4154 0.3953
C19_8 C 0.6962(3) 0.1475(3) 0.30313(8)
H13_8 H 0.6675 0.1419 0.2875
C20_8 C 0.7782(3) 0.1459(4) 0.30215(8)
H14_8 H 0.8045 0.1385 0.2861
C21_8 C 0.8203(2) 0.1550(3) 0.32445(8)
H15_8 H 0.8762 0.1558 0.3240
C22_8 C 0.7803(2) 0.1634(3) 0.34802(8)
C23_8 C 0.8164(2) 0.1696(3) 0.37287(8)
C24_8 C 0.8946(2) 0.1730(3) 0.40650(7)
C25_8 C 0.9666(2) 0.1700(3) 0.42221(8)
C29_8 C 0.9587(2) 0.1690(3) 0.44882(8)
H19_8 H 0.9074 0.1735 0.4560
C30_8 C 0.7738(2) 0.1745(3) 0.39562(7)
C31_8 C 0.6898(2) 0.1751(3) 0.39538(7)
C32_8 C 0.6432(3) 0.1795(3) 0.41773(8)
H20_8 H 0.6671 0.1850 0.4342
C33_8 C 0.5631(3) 0.1759(3) 0.41553(8)
H21_8 H 0.5308 0.1767 0.4305
C34_8 C 0.5297(3) 0.1712(3) 0.39106(8)
H22_8 H 0.4741 0.1687 0.3897
C35_8 C 0.6514(2) 0.1701(3) 0.37131(7)
C36_8 C 0.6973(2) 0.1635(3) 0.34759(8)
C37_8 C 0.1482(2) 0.1323(3) 0.34368(8)
C38_8 C 0.1245(3) 0.0349(3) 0.34476(9)
H23_8 H 0.0702 0.0196 0.3464
C41_8 C 0.2831(2) 0.0802(3) 0.34111(8)
C42_8 C 0.2272(2) 0.1548(3) 0.34156(8)
H26_8 H 0.2434 0.2215 0.3404
C43_8 C 0.0897(2) 0.2143(3) 0.34412(7)
C44_8 C 0.3681(3) 0.1066(3) 0.34023(8)
C45_8 C 0.4781(2) 0.0155(3) 0.25589(8)
C48_8 C 0.4872(3) 0.0484(4) 0.20362(9)
H28_8 H 0.4899 0.0602 0.1856
C49_8 C 0.4921(3) 0.1268(4) 0.22058(10)
H29_8 H 0.4975 0.1919 0.2142
C50_8 C 0.4891(3) 0.1105(4) 0.24685(9)
H30_8 H 0.4945 0.1638 0.2586
O8_8 O 0.47276(18) 0.8795(3) 0.17049(5)
C39_8 C 0.1791(3) 0.9598(4) 0.34351(11)
H24_8 H 0.1625 0.8931 0.3436
C40_8 C 0.2580(3) 0.9826(4) 0.34212(10)
H25_8 H 0.2958 0.9311 0.3419
C46_8 C 0.4727(3) 0.9376(3) 0.23878(8)
H27_8 H 0.4650 0.8727 0.2451
C47_8 C 0.4785(2) 0.9537(3) 0.21256(8)
C51_8 C 0.4758(3) 0.9950(4) 0.28425(8)
C52_8 C 0.4770(2) 0.8664(4) 0.19440(8)
N1_8 N 0.8911(2) 0.3919(3) 0.32373(6)
N2_8 N 0.95878(19) 0.4103(3) 0.37154(6)
N5_8 N 0.6932(2) 0.4228(3) 0.40759(6)
N6_8 N 0.63612(19) 0.4155(3) 0.36866(6)
H1_8 H 0.5991 0.4139 0.3568
C1_8 C 0.8597(3) 0.3847(3) 0.30027(8)
H3_8 H 0.8938 0.3757 0.2860
C2_8 C 0.7793(3) 0.3897(3) 0.29582(8)
H4_8 H 0.7592 0.3856 0.2788
C3_8 C 0.7295(2) 0.4007(3) 0.31639(8)
H5_8 H 0.6744 0.4050 0.3137
C4_8 C 0.7606(2) 0.4057(3) 0.34147(7)
C5_8 C 0.7161(2) 0.4144(3) 0.36469(8)
C6_8 C 0.6260(2) 0.4197(3) 0.39485(7)
C7_8 C 0.5496(2) 0.4157(3) 0.40769(8)
C8_8 C 0.4782(3) 0.4084(4) 0.39497(9)
H6_8 H 0.4761 0.4093 0.3767
C9_8 C 0.4101(3) 0.3999(4) 0.40939(9)
H7_8 H 0.3603 0.3963 0.4012
C10_8 C 0.4156(3) 0.3966(4) 0.43584(8)
H8_8 H 0.3686 0.3903 0.4456
C11_8 C 0.5493(2) 0.4127(3) 0.43454(8)
H9_8 H 0.5981 0.4187 0.4433
C12_8 C 0.7497(2) 0.4191(3) 0.38878(8)
C13_8 C 0.8330(2) 0.4170(3) 0.39221(7)
C14_8 C 0.8703(3) 0.4217(3) 0.41632(8)
H10_8 H 0.8401 0.4257 0.4317
C15_8 C 0.9508(3) 0.4203(3) 0.41749(8)
H11_8 H 0.9771 0.4227 0.4336
C16_8 C 0.9934(3) 0.4153(4) 0.39454(8)
C17_8 C 0.8798(2) 0.4103(3) 0.36993(7)
C18_8 C 0.8432(2) 0.4033(3) 0.34430(7)
loop_
_geom_bond_atom_site_label_1
_geom_bond_atom_site_label_2
_geom_bond_site_symmetry_1
_geom_bond_site_symmetry_2
O9 Cd3 1_555 1_555
O10 C59 1_555 1_555
C58 C53 1_555 1_555
H34 C58 1_555 1_555
C59 O9 1_555 1_555
C60 C57 1_555 1_555
O17 Cd3 1_555 1_555
C53 C59 1_555 1_555
C57 C58 1_555 1_555
N10 C28 1_555 1_555
H16 C26 1_555 1_555
C27 C26 1_555 1_555
H17 C27 1_555 1_555
C28 C27 1_555 1_555
H18 C28 1_555 1_555
Cd7 O11 1_555 1_555
C54 H31 1_555 1_555
C55 C54 1_555 1_555
H32 C55 1_555 1_555
C56 C55 1_555 1_555
H33 C56 1_555 1_555
Cd8 O12 1_555 1_555
Cd1 N3 1_555 1_555
N3 C19 1_555 1_555
N4 Cd1 1_555 1_555
N7 C24 1_555 1_555
N8 H2 1_555 1_555
O1 C43 1_555 1_555
O2 Cd2 1_555 1_555
O3 C44 1_555 1_555
O4 Cd1 1_555 1_555
O5 C51 1_555 1_555
O6 Cd1 1_555 1_555
O7 C52 1_555 1_555
O8 C52 1_555 1_555
C19 H13 1_555 1_555
C20 C19 1_555 1_555
H14 C20 1_555 1_555
C21 C20 1_555 1_555
H15 C21 1_555 1_555
C22 C21 1_555 1_555
C23 N8 1_555 1_555
C24 N8 1_555 1_555
C25 C24 1_555 1_555
H19 C29 1_555 1_555
C30 N7 1_555 1_555
C31 C30 1_555 1_555
C32 C31 1_555 1_555
H20 C32 1_555 1_555
C33 C32 1_555 1_555
H21 C33 1_555 1_555
C34 N4 1_555 1_555
H22 C34 1_555 1_555
C35 N4 1_555 1_555
C36 N3 1_555 1_555
C37 C38 1_555 1_555
C38 H23 1_555 1_555
C39 C38 1_555 1_555
H24 C39 1_555 1_555
C40 C39 1_555 1_555
H25 C40 1_555 1_555
C41 C40 1_555 1_555
C42 C37 1_555 1_555
H26 C42 1_555 1_555
C43 O2 1_555 1_555
C44 O4 1_555 1_555
C45 C46 1_555 1_555
C46 H27 1_555 1_555
C47 C46 1_555 1_555
C48 C47 1_555 1_555
H28 C48 1_555 1_555
C49 C48 1_555 1_555
H29 C49 1_555 1_555
C50 C45 1_555 1_555
H30 C50 1_555 1_555
C51 O6 1_555 1_555
C52 C47 1_555 1_555
Cd4 O7 1_555 1_555
Cd5 O3 1_555 1_555
O14 Cd2 1_555 1_555
O15 Cd1 1_555 1_555
O5 Cd5 1_555 1_555
C22 C23 1_555 1_555
C22 C36 1_555 1_555
C23 C30 1_555 1_555
C25 C29 1_555 1_555
C31 C35 1_555 1_555
C33 C34 1_555 1_555
C35 C36 1_555 1_555
C37 C43 1_555 1_555
C41 C42 1_555 1_555
C41 C44 1_555 1_555
C45 C51 1_555 1_555
C49 C50 1_555 1_555
N1 C1 1_555 1_555
N5 C6 1_555 1_555
N6 H1 1_555 1_555
N9 C10 1_555 1_555
C1 H3 1_555 1_555
C2 C1 1_555 1_555
H4 C2 1_555 1_555
C3 C2 1_555 1_555
H5 C3 1_555 1_555
C4 C3 1_555 1_555
C5 N6 1_555 1_555
C6 N6 1_555 1_555
C7 C6 1_555 1_555
C8 C7 1_555 1_555
H6 C8 1_555 1_555
C9 C8 1_555 1_555
H7 C9 1_555 1_555
C10 C9 1_555 1_555
H8 C10 1_555 1_555
C11 N9 1_555 1_555
H9 C11 1_555 1_555
C12 N5 1_555 1_555
C13 C12 1_555 1_555
C14 C13 1_555 1_555
H10 C14 1_555 1_555
C15 C14 1_555 1_555
H11 C15 1_555 1_555
C16 N2 1_555 1_555
C17 N2 1_555 1_555
C18 N1 1_555 1_555
Cd7 N9 1_555 1_555
C4 C5 1_555 1_555
C4 C18 1_555 1_555
C5 C12 1_555 1_555
C7 C11 1_555 1_555
C13 C17 1_555 1_555
C15 C16 1_555 1_555
C17 C18 1_555 1_555
N9_2 C10_2 1_555 1_555
H6_2 C8_2 1_555 1_555
C9_2 C8_2 1_555 1_555
H7_2 C9_2 1_555 1_555
C10_2 C9_2 1_555 1_555
H8_2 C10_2 1_555 1_555
Cd2_2 N1_2 1_555 1_555
N1_2 C1_2 1_555 1_555
N2_2 Cd2_2 1_555 1_555
N5_2 C6_2 1_555 1_555
N6_2 H1_2 1_555 1_555
O1_2 C43_2 1_555 1_555
O2_2 Cd2_2 1_555 1_555
O3_2 C44_2 1_555 1_555
O5_2 C51_2 1_555 1_555
O7_2 C52_2 1_555 1_555
O8_2 C52_2 1_555 1_555
C1_2 H3_2 1_555 1_555
C2_2 C1_2 1_555 1_555
H4_2 C2_2 1_555 1_555
C3_2 C2_2 1_555 1_555
H5_2 C3_2 1_555 1_555
C4_2 C3_2 1_555 1_555
C5_2 N6_2 1_555 1_555
C6_2 N6_2 1_555 1_555
C7_2 C6_2 1_555 1_555
H9_2 C11_2 1_555 1_555
C12_2 N5_2 1_555 1_555
C13_2 C12_2 1_555 1_555
C14_2 C13_2 1_555 1_555
H10_2 C14_2 1_555 1_555
C15_2 C14_2 1_555 1_555
H11_2 C15_2 1_555 1_555
C16_2 N2_2 1_555 1_555
H12_2 C16_2 1_555 1_555
C17_2 N2_2 1_555 1_555
C18_2 N1_2 1_555 1_555
C37_2 C38_2 1_555 1_555
C38_2 H23_2 1_555 1_555
C39_2 C38_2 1_555 1_555
H24_2 C39_2 1_555 1_555
C40_2 C39_2 1_555 1_555
H25_2 C40_2 1_555 1_555
C41_2 C40_2 1_555 1_555
C42_2 C37_2 1_555 1_555
H26_2 C42_2 1_555 1_555
C43_2 O2_2 1_555 1_555
C44_2 O4_2 1_555 1_555
C45_2 C46_2 1_555 1_555
C46_2 H27_2 1_555 1_555
C47_2 C46_2 1_555 1_555
C48_2 C47_2 1_555 1_555
H28_2 C48_2 1_555 1_555
C49_2 C48_2 1_555 1_555
H29_2 C49_2 1_555 1_555
C50_2 C45_2 1_555 1_555
H30_2 C50_2 1_555 1_555
C52_2 C47_2 1_555 1_555
Cd4_2 O7_2 1_555 1_555
Cd5_2 O3_2 1_555 1_555
O14_2 Cd2_2 1_555 1_555
O5_2 Cd5_2 1_555 1_555
C4_2 C5_2 1_555 1_555
C4_2 C18_2 1_555 1_555
C5_2 C12_2 1_555 1_555
C7_2 C11_2 1_555 1_555
C13_2 C17_2 1_555 1_555
C15_2 C16_2 1_555 1_555
C17_2 C18_2 1_555 1_555
C37_2 C43_2 1_555 1_555
C41_2 C42_2 1_555 1_555
C41_2 C44_2 1_555 1_555
C45_2 C51_2 1_555 1_555
C49_2 C50_2 1_555 1_555
C54_2 H31_2 1_555 1_555
C55_2 C54_2 1_555 1_555
H32_2 C55_2 1_555 1_555
C56_2 C55_2 1_555 1_555
H33_2 C56_2 1_555 1_555
Cd8_2 O12_2 1_555 1_555
Cd1_2 N3_2 1_555 1_555
Cd3_2 N10_2 1_555 1_555
N3_2 C19_2 1_555 1_555
N4_2 Cd1_2 1_555 1_555
N7_2 C24_2 1_555 1_555
N8_2 H2_2 1_555 1_555
N10_2 C28_2 1_555 1_555
O6_2 Cd1_2 1_555 1_555
O9_2 Cd3_2 1_555 1_555
O10_2 C59_2 1_555 1_555
O11_2 C60_2 1_555 1_555
C19_2 H13_2 1_555 1_555
C20_2 C19_2 1_555 1_555
H14_2 C20_2 1_555 1_555
C21_2 C20_2 1_555 1_555
H15_2 C21_2 1_555 1_555
C22_2 C21_2 1_555 1_555
C23_2 N8_2 1_555 1_555
C24_2 N8_2 1_555 1_555
C25_2 C24_2 1_555 1_555
C26_2 C25_2 1_555 1_555
H16_2 C26_2 1_555 1_555
C27_2 C26_2 1_555 1_555
H17_2 C27_2 1_555 1_555
C28_2 C27_2 1_555 1_555
H18_2 C28_2 1_555 1_555
C29_2 N10_2 1_555 1_555
H19_2 C29_2 1_555 1_555
C30_2 N7_2 1_555 1_555
C31_2 C30_2 1_555 1_555
C32_2 C31_2 1_555 1_555
H20_2 C32_2 1_555 1_555
C33_2 C32_2 1_555 1_555
H21_2 C33_2 1_555 1_555
C34_2 N4_2 1_555 1_555
C35_2 N4_2 1_555 1_555
C36_2 N3_2 1_555 1_555
C58_2 C53_2 1_555 1_555
H34_2 C58_2 1_555 1_555
C59_2 O9_2 1_555 1_555
C60_2 C57_2 1_555 1_555
N11_2 Cd3_2 1_555 1_555
O15_2 Cd1_2 1_555 1_555
O16_2 Cd3_2 1_555 1_555
O17_2 Cd3_2 1_555 1_555
C22_2 C23_2 1_555 1_555
C22_2 C36_2 1_555 1_555
C23_2 C30_2 1_555 1_555
C25_2 C29_2 1_555 1_555
C31_2 C35_2 1_555 1_555
C33_2 C34_2 1_555 1_555
C35_2 C36_2 1_555 1_555
C53_2 C59_2 1_555 1_555
C57_2 C58_2 1_555 1_555
Cd4_2 N3_3 1_555 1_555
N3_3 C19_3 1_555 1_555
N4_3 Cd4_2 1_555 1_555
N7_3 C24_3 1_555 1_555
N8_3 H2_3 1_555 1_555
N10_3 C28_3 1_555 1_555
O6_3 Cd4_2 1_555 1_555
C19_3 H13_3 1_555 1_555
C20_3 C19_3 1_555 1_555
H14_3 C20_3 1_555 1_555
C21_3 C20_3 1_555 1_555
H15_3 C21_3 1_555 1_555
C22_3 C21_3 1_555 1_555
C23_3 N8_3 1_555 1_555
C24_3 N8_3 1_555 1_555
C25_3 C24_3 1_555 1_555
C26_3 C25_3 1_555 1_555
H16_3 C26_3 1_555 1_555
C27_3 C26_3 1_555 1_555
H17_3 C27_3 1_555 1_555
C28_3 C27_3 1_555 1_555
H18_3 C28_3 1_555 1_555
C29_3 N10_3 1_555 1_555
H19_3 C29_3 1_555 1_555
C30_3 N7_3 1_555 1_555
C31_3 C30_3 1_555 1_555
C32_3 C31_3 1_555 1_555
H20_3 C32_3 1_555 1_555
C33_3 C32_3 1_555 1_555
H21_3 C33_3 1_555 1_555
C34_3 N4_3 1_555 1_555
C35_3 N4_3 1_555 1_555
C36_3 N3_3 1_555 1_555
C22_3 C23_3 1_555 1_555
C22_3 C36_3 1_555 1_555
C23_3 C30_3 1_555 1_555
C25_3 C29_3 1_555 1_555
C31_3 C35_3 1_555 1_555
C33_3 C34_3 1_555 1_555
C35_3 C36_3 1_555 1_555
O9_3 Cd7 1_555 1_555
O10_3 C59_3 1_555 1_555
O12_3 C60_3 1_555 1_555
C53_3 C54_3 1_555 1_555
C54_3 H31_3 1_555 1_555
C55_3 C54_3 1_555 1_555
H32_3 C55_3 1_555 1_555
C56_3 C55_3 1_555 1_555
H33_3 C56_3 1_555 1_555
C57_3 C56_3 1_555 1_555
C58_3 C53_3 1_555 1_555
H34_3 C58_3 1_555 1_555
C59_3 O9_3 1_555 1_555
C60_3 C57_3 1_555 1_555
Cd8_3 O12_3 1_555 1_555
O17_3 Cd7 1_555 1_555
C53_3 C59_3 1_555 1_555
C57_3 C58_3 1_555 1_555
Cd2_3 N1_3 1_555 1_555
N1_3 C1_3 1_555 1_555
N2_3 Cd2_3 1_555 1_555
N5_3 C6_3 1_555 1_555
N6_3 H1_3 1_555 1_555
O1_3 C43_3 1_555 1_555
O2_3 Cd2_3 1_555 1_555
O3_3 C44_3 1_555 1_555
C1_3 H3_3 1_555 1_555
C2_3 C1_3 1_555 1_555
H4_3 C2_3 1_555 1_555
C3_3 C2_3 1_555 1_555
H5_3 C3_3 1_555 1_555
C4_3 C3_3 1_555 1_555
C5_3 N6_3 1_555 1_555
C6_3 N6_3 1_555 1_555
C7_3 C6_3 1_555 1_555
H9_3 C11_3 1_555 1_555
C12_3 N5_3 1_555 1_555
C13_3 C12_3 1_555 1_555
C14_3 C13_3 1_555 1_555
H10_3 C14_3 1_555 1_555
C15_3 C14_3 1_555 1_555
H11_3 C15_3 1_555 1_555
C16_3 N2_3 1_555 1_555
H12_3 C16_3 1_555 1_555
C17_3 N2_3 1_555 1_555
C18_3 N1_3 1_555 1_555
C37_3 C38_3 1_555 1_555
C38_3 H23_3 1_555 1_555
C42_3 C37_3 1_555 1_555
H26_3 C42_3 1_555 1_555
C43_3 O2_3 1_555 1_555
C44_3 O4_3 1_555 1_555
H28_3 C48_3 1_555 1_555
C49_3 C48_3 1_555 1_555
H29_3 C49_3 1_555 1_555
C50_3 C45_3 1_555 1_555
H30_3 C50_3 1_555 1_555
O13_3 Cd2_3 1_555 1_555
O14_3 Cd2_3 1_555 1_555
C4_3 C5_3 1_555 1_555
C4_3 C18_3 1_555 1_555
C5_3 C12_3 1_555 1_555
C7_3 C11_3 1_555 1_555
C13_3 C17_3 1_555 1_555
C15_3 C16_3 1_555 1_555
C17_3 C18_3 1_555 1_555
C37_3 C43_3 1_555 1_555
C41_3 C42_3 1_555 1_555
C41_3 C44_3 1_555 1_555
C49_3 C50_3 1_555 1_555
O5_3 C51_3 1_555 1_555
O15_2 C52_3 1_555 1_555
O8_3 C52_3 1_555 1_555
H24_3 C39_3 1_555 1_555
C40_3 C39_3 1_555 1_555
H25_3 C40_3 1_555 1_555
C46_3 H27_3 1_555 1_555
C47_3 C46_3 1_555 1_555
C52_3 C47_3 1_555 1_555
O5_3 Cd5_3 1_555 1_555
N11 C10_3 1_555 1_555
H6_3 C8_3 1_555 1_555
C9_3 C8_3 1_555 1_555
H7_3 C9_3 1_555 1_555
C10_3 C9_3 1_555 1_555
H8_3 C10_3 1_555 1_555
N1_4 C1_4 1_555 1_555
N5_4 C6_4 1_555 1_555
N6_4 H1_4 1_555 1_555
N11_2 C10_4 1_555 1_555
C1_4 H3_4 1_555 1_555
C2_4 C1_4 1_555 1_555
H4_4 C2_4 1_555 1_555
C3_4 C2_4 1_555 1_555
H5_4 C3_4 1_555 1_555
C4_4 C3_4 1_555 1_555
C5_4 N6_4 1_555 1_555
C6_4 N6_4 1_555 1_555
C7_4 C6_4 1_555 1_555
C8_4 C7_4 1_555 1_555
H6_4 C8_4 1_555 1_555
C9_4 C8_4 1_555 1_555
H7_4 C9_4 1_555 1_555
C10_4 C9_4 1_555 1_555
H8_4 C10_4 1_555 1_555
C11_4 N11_2 1_555 1_555
H9_4 C11_4 1_555 1_555
C12_4 N5_4 1_555 1_555
C13_4 C12_4 1_555 1_555
C14_4 C13_4 1_555 1_555
H10_4 C14_4 1_555 1_555
C15_4 C14_4 1_555 1_555
H11_4 C15_4 1_555 1_555
C16_4 N2_4 1_555 1_555
C17_4 N2_4 1_555 1_555
C18_4 N1_4 1_555 1_555
C4_4 C5_4 1_555 1_555
C4_4 C18_4 1_555 1_555
C5_4 C12_4 1_555 1_555
C7_4 C11_4 1_555 1_555
C13_4 C17_4 1_555 1_555
C15_4 C16_4 1_555 1_555
C17_4 C18_4 1_555 1_555
O5_4 C51_4 1_555 1_555
O15 C52_4 1_555 1_555
O8_4 C52_4 1_555 1_555
H24_4 C39_4 1_555 1_555
C40_4 C39_4 1_555 1_555
H25_4 C40_4 1_555 1_555
C46_4 H27_4 1_555 1_555
C47_4 C46_4 1_555 1_555
C52_4 C47_4 1_555 1_555
O5_4 Cd5_4 1_555 1_555
Cd4 N3_4 1_555 1_555
N3_4 C19_4 1_555 1_555
N4_4 Cd4 1_555 1_555
N7_4 C24_4 1_555 1_555
N8_4 H2_4 1_555 1_555
O1_4 C43_4 1_555 1_555
O2_4 Cd2_4 1_555 1_555
O3_4 C44_4 1_555 1_555
O4_4 Cd4 1_555 1_555
O6_4 Cd4 1_555 1_555
C19_4 H13_4 1_555 1_555
C20_4 C19_4 1_555 1_555
H14_4 C20_4 1_555 1_555
C21_4 C20_4 1_555 1_555
H15_4 C21_4 1_555 1_555
C22_4 C21_4 1_555 1_555
C23_4 N8_4 1_555 1_555
C24_4 N8_4 1_555 1_555
C25_4 C24_4 1_555 1_555
H19_4 C29_4 1_555 1_555
C30_4 N7_4 1_555 1_555
C31_4 C30_4 1_555 1_555
C32_4 C31_4 1_555 1_555
H20_4 C32_4 1_555 1_555
C33_4 C32_4 1_555 1_555
H21_4 C33_4 1_555 1_555
C34_4 N4_4 1_555 1_555
H22_4 C34_4 1_555 1_555
C35_4 N4_4 1_555 1_555
C36_4 N3_4 1_555 1_555
C37_4 C38_4 1_555 1_555
C38_4 H23_4 1_555 1_555
C42_4 C37_4 1_555 1_555
H26_4 C42_4 1_555 1_555
C43_4 O2_4 1_555 1_555
C44_4 O4_4 1_555 1_555
H28_4 C48_4 1_555 1_555
C49_4 C48_4 1_555 1_555
H29_4 C49_4 1_555 1_555
C50_4 C45_4 1_555 1_555
H30_4 C50_4 1_555 1_555
O13_4 Cd2_4 1_555 1_555
O14_4 Cd2_4 1_555 1_555
C22_4 C23_4 1_555 1_555
C22_4 C36_4 1_555 1_555
C23_4 C30_4 1_555 1_555
C25_4 C29_4 1_555 1_555
C31_4 C35_4 1_555 1_555
C33_4 C34_4 1_555 1_555
C35_4 C36_4 1_555 1_555
C37_4 C43_4 1_555 1_555
C41_4 C42_4 1_555 1_555
C41_4 C44_4 1_555 1_555
C49_4 C50_4 1_555 1_555
Cd6 N10_4 1_555 1_555
N10_4 C28_4 1_555 1_555
O9_4 Cd6 1_555 1_555
O10_4 C59_4 1_555 1_555
O16_2 C60_4 1_555 1_555
O12_4 C60_4 1_555 1_555
H16_4 C26_4 1_555 1_555
C27_4 C26_4 1_555 1_555
H17_4 C27_4 1_555 1_555
C28_4 C27_4 1_555 1_555
H18_4 C28_4 1_555 1_555
C53_4 C54_4 1_555 1_555
C54_4 H31_4 1_555 1_555
C55_4 C54_4 1_555 1_555
H32_4 C55_4 1_555 1_555
C56_4 C55_4 1_555 1_555
H33_4 C56_4 1_555 1_555
C57_4 C56_4 1_555 1_555
C58_4 C53_4 1_555 1_555
H34_4 C58_4 1_555 1_555
C59_4 O9_4 1_555 1_555
C60_4 C57_4 1_555 1_555
Cd8_4 O12_4 1_555 1_555
O17_4 Cd6 1_555 1_555
C53_4 C59_4 1_555 1_555
C57_4 C58_4 1_555 1_555
N1_5 C1_5 1_555 1_555
N5_5 C6_5 1_555 1_555
N6_5 H1_5 1_555 1_555
N9_3 C10_5 1_555 1_555
C1_5 H3_5 1_555 1_555
C2_5 C1_5 1_555 1_555
H4_5 C2_5 1_555 1_555
C3_5 C2_5 1_555 1_555
H5_5 C3_5 1_555 1_555
C4_5 C3_5 1_555 1_555
C5_5 N6_5 1_555 1_555
C6_5 N6_5 1_555 1_555
C7_5 C6_5 1_555 1_555
C8_5 C7_5 1_555 1_555
H6_5 C8_5 1_555 1_555
C9_5 C8_5 1_555 1_555
H7_5 C9_5 1_555 1_555
C10_5 C9_5 1_555 1_555
H8_5 C10_5 1_555 1_555
C11_5 N9_3 1_555 1_555
H9_5 C11_5 1_555 1_555
C12_5 N5_5 1_555 1_555
C13_5 C12_5 1_555 1_555
C14_5 C13_5 1_555 1_555
H10_5 C14_5 1_555 1_555
C15_5 C14_5 1_555 1_555
H11_5 C15_5 1_555 1_555
C16_5 N2_5 1_555 1_555
C17_5 N2_5 1_555 1_555
C18_5 N1_5 1_555 1_555
Cd8 N9_3 1_555 1_555
C4_5 C5_5 1_555 1_555
C4_5 C18_5 1_555 1_555
C5_5 C12_5 1_555 1_555
C7_5 C11_5 1_555 1_555
C13_5 C17_5 1_555 1_555
C15_5 C16_5 1_555 1_555
C17_5 C18_5 1_555 1_555
Cd1_3 N3_5 1_555 1_555
N3_5 C19_5 1_555 1_555
N4_5 Cd1_3 1_555 1_555
N7_5 C24_5 1_555 1_555
N8_5 H2_5 1_555 1_555
O1_5 C43_5 1_555 1_555
O2_5 Cd5_3 1_555 1_555
O13_3 C44_5 1_555 1_555
O4_5 Cd1_3 1_555 1_555
O14_3 C51_5 1_555 1_555
O6_5 Cd1_3 1_555 1_555
O7_3 C52_5 1_555 1_555
O8_5 C52_5 1_555 1_555
C19_5 H13_5 1_555 1_555
C20_5 C19_5 1_555 1_555
H14_5 C20_5 1_555 1_555
C21_5 C20_5 1_555 1_555
H15_5 C21_5 1_555 1_555
C22_5 C21_5 1_555 1_555
C23_5 N8_5 1_555 1_555
C24_5 N8_5 1_555 1_555
C25_5 C24_5 1_555 1_555
H19_5 C29_5 1_555 1_555
C30_5 N7_5 1_555 1_555
C31_5 C30_5 1_555 1_555
C32_5 C31_5 1_555 1_555
H20_5 C32_5 1_555 1_555
C33_5 C32_5 1_555 1_555
H21_5 C33_5 1_555 1_555
C34_5 N4_5 1_555 1_555
H22_5 C34_5 1_555 1_555
C35_5 N4_5 1_555 1_555
C36_5 N3_5 1_555 1_555
C37_5 C38_5 1_555 1_555
C38_5 H23_5 1_555 1_555
C39_5 C38_5 1_555 1_555
H24_5 C39_5 1_555 1_555
C40_5 C39_5 1_555 1_555
H25_5 C40_5 1_555 1_555
C41_5 C40_5 1_555 1_555
C42_5 C37_5 1_555 1_555
H26_5 C42_5 1_555 1_555
C43_5 O2_5 1_555 1_555
C44_5 O4_5 1_555 1_555
C45_5 C46_5 1_555 1_555
C46_5 H27_5 1_555 1_555
C47_5 C46_5 1_555 1_555
C48_5 C47_5 1_555 1_555
H28_5 C48_5 1_555 1_555
C49_5 C48_5 1_555 1_555
H29_5 C49_5 1_555 1_555
C50_5 C45_5 1_555 1_555
H30_5 C50_5 1_555 1_555
C51_5 O6_5 1_555 1_555
C52_5 C47_5 1_555 1_555
Cd4_3 O7_3 1_555 1_555
O15_3 Cd1_3 1_555 1_555
C22_5 C23_5 1_555 1_555
C22_5 C36_5 1_555 1_555
C23_5 C30_5 1_555 1_555
C25_5 C29_5 1_555 1_555
C31_5 C35_5 1_555 1_555
C33_5 C34_5 1_555 1_555
C35_5 C36_5 1_555 1_555
C37_5 C43_5 1_555 1_555
C41_5 C42_5 1_555 1_555
C41_5 C44_5 1_555 1_555
C45_5 C51_5 1_555 1_555
C49_5 C50_5 1_555 1_555
C54_5 H31_5 1_555 1_555
C55_5 C54_5 1_555 1_555
H32_5 C55_5 1_555 1_555
C56_5 C55_5 1_555 1_555
H33_5 C56_5 1_555 1_555
N10_5 C28_5 1_555 1_555
H16_5 C26_5 1_555 1_555
C27_5 C26_5 1_555 1_555
H17_5 C27_5 1_555 1_555
C28_5 C27_5 1_555 1_555
H18_5 C28_5 1_555 1_555
Cd8 O11_3 1_555 1_555
O9_5 Cd8_3 1_555 1_555
O10_5 C59_5 1_555 1_555
C58_5 C53_5 1_555 1_555
H34_5 C58_5 1_555 1_555
C59_5 O9_5 1_555 1_555
C60_5 C57_5 1_555 1_555
C53_5 C59_5 1_555 1_555
C57_5 C58_5 1_555 1_555
Cd1_4 N3_6 1_555 1_555
Cd8_4 N10_6 1_555 1_555
N3_6 C19_6 1_555 1_555
N4_6 Cd1_4 1_555 1_555
N7_6 C24_6 1_555 1_555
N8_6 H2_6 1_555 1_555
N10_6 C28_6 1_555 1_555
O6_6 Cd1_4 1_555 1_555
O9_6 Cd8_4 1_555 1_555
O10_6 C59_6 1_555 1_555
O11_4 C60_6 1_555 1_555
C19_6 H13_6 1_555 1_555
C20_6 C19_6 1_555 1_555
H14_6 C20_6 1_555 1_555
C21_6 C20_6 1_555 1_555
H15_6 C21_6 1_555 1_555
C22_6 C21_6 1_555 1_555
C23_6 N8_6 1_555 1_555
C24_6 N8_6 1_555 1_555
C25_6 C24_6 1_555 1_555
C26_6 C25_6 1_555 1_555
H16_6 C26_6 1_555 1_555
C27_6 C26_6 1_555 1_555
H17_6 C27_6 1_555 1_555
C28_6 C27_6 1_555 1_555
H18_6 C28_6 1_555 1_555
C29_6 N10_6 1_555 1_555
H19_6 C29_6 1_555 1_555
C30_6 N7_6 1_555 1_555
C31_6 C30_6 1_555 1_555
C32_6 C31_6 1_555 1_555
H20_6 C32_6 1_555 1_555
C33_6 C32_6 1_555 1_555
H21_6 C33_6 1_555 1_555
C34_6 N4_6 1_555 1_555
C35_6 N4_6 1_555 1_555
C36_6 N3_6 1_555 1_555
C58_6 C53_6 1_555 1_555
H34_6 C58_6 1_555 1_555
C59_6 O9_6 1_555 1_555
C60_6 C57_6 1_555 1_555
N11_4 Cd8_4 1_555 1_555
O15_4 Cd1_4 1_555 1_555
O16_4 Cd8_4 1_555 1_555
C22_6 C23_6 1_555 1_555
C22_6 C36_6 1_555 1_555
C23_6 C30_6 1_555 1_555
C25_6 C29_6 1_555 1_555
C31_6 C35_6 1_555 1_555
C33_6 C34_6 1_555 1_555
C35_6 C36_6 1_555 1_555
C53_6 C59_6 1_555 1_555
C57_6 C58_6 1_555 1_555
C54_6 H31_6 1_555 1_555
C55_6 C54_6 1_555 1_555
H32_6 C55_6 1_555 1_555
C56_6 C55_6 1_555 1_555
H33_6 C56_6 1_555 1_555
Cd5_4 N1_6 1_555 1_555
N1_6 C1_6 1_555 1_555
N2_6 Cd5_4 1_555 1_555
N5_6 C6_6 1_555 1_555
N6_6 H1_6 1_555 1_555
O1_6 C43_6 1_555 1_555
O2_6 Cd5_4 1_555 1_555
O13_4 C44_6 1_555 1_555
O14_4 C51_6 1_555 1_555
O7_4 C52_6 1_555 1_555
O8_6 C52_6 1_555 1_555
C1_6 H3_6 1_555 1_555
C2_6 C1_6 1_555 1_555
H4_6 C2_6 1_555 1_555
C3_6 C2_6 1_555 1_555
H5_6 C3_6 1_555 1_555
C4_6 C3_6 1_555 1_555
C5_6 N6_6 1_555 1_555
C6_6 N6_6 1_555 1_555
C7_6 C6_6 1_555 1_555
H9_6 C11_6 1_555 1_555
C12_6 N5_6 1_555 1_555
C13_6 C12_6 1_555 1_555
C14_6 C13_6 1_555 1_555
H10_6 C14_6 1_555 1_555
C15_6 C14_6 1_555 1_555
H11_6 C15_6 1_555 1_555
C16_6 N2_6 1_555 1_555
H12_6 C16_6 1_555 1_555
C17_6 N2_6 1_555 1_555
C18_6 N1_6 1_555 1_555
C37_6 C38_6 1_555 1_555
C38_6 H23_6 1_555 1_555
C39_6 C38_6 1_555 1_555
H24_6 C39_6 1_555 1_555
C40_6 C39_6 1_555 1_555
H25_6 C40_6 1_555 1_555
C41_6 C40_6 1_555 1_555
C42_6 C37_6 1_555 1_555
H26_6 C42_6 1_555 1_555
C43_6 O2_6 1_555 1_555
C44_6 O4_6 1_555 1_555
C45_6 C46_6 1_555 1_555
C46_6 H27_6 1_555 1_555
C47_6 C46_6 1_555 1_555
C48_6 C47_6 1_555 1_555
H28_6 C48_6 1_555 1_555
C49_6 C48_6 1_555 1_555
H29_6 C49_6 1_555 1_555
C50_6 C45_6 1_555 1_555
H30_6 C50_6 1_555 1_555
C52_6 C47_6 1_555 1_555
Cd4_4 O7_4 1_555 1_555
C4_6 C5_6 1_555 1_555
C4_6 C18_6 1_555 1_555
C5_6 C12_6 1_555 1_555
C7_6 C11_6 1_555 1_555
C13_6 C17_6 1_555 1_555
C15_6 C16_6 1_555 1_555
C17_6 C18_6 1_555 1_555
C37_6 C43_6 1_555 1_555
C41_6 C42_6 1_555 1_555
C41_6 C44_6 1_555 1_555
C45_6 C51_6 1_555 1_555
C49_6 C50_6 1_555 1_555
N9_4 C10_6 1_555 1_555
H6_6 C8_6 1_555 1_555
C9_6 C8_6 1_555 1_555
H7_6 C9_6 1_555 1_555
C10_6 C9_6 1_555 1_555
H8_6 C10_6 1_555 1_555
N11_3 C10_7 1_555 1_555
H6_7 C8_7 1_555 1_555
C9_7 C8_7 1_555 1_555
H7_7 C9_7 1_555 1_555
C10_7 C9_7 1_555 1_555
H8_7 C10_7 1_555 1_555
O14 C51_7 1_555 1_555
O15_4 C52_7 1_555 1_555
O8_7 C52_7 1_555 1_555
H24_7 C39_7 1_555 1_555
C40_7 C39_7 1_555 1_555
H25_7 C40_7 1_555 1_555
C46_7 H27_7 1_555 1_555
C47_7 C46_7 1_555 1_555
C52_7 C47_7 1_555 1_555
Cd5 N1_7 1_555 1_555
N1_7 C1_7 1_555 1_555
N2_7 Cd5 1_555 1_555
N5_7 C6_7 1_555 1_555
N6_7 H1_7 1_555 1_555
O1_7 C43_7 1_555 1_555
O2_7 Cd5 1_555 1_555
O13 C44_7 1_555 1_555
C1_7 H3_7 1_555 1_555
C2_7 C1_7 1_555 1_555
H4_7 C2_7 1_555 1_555
C3_7 C2_7 1_555 1_555
H5_7 C3_7 1_555 1_555
C4_7 C3_7 1_555 1_555
C5_7 N6_7 1_555 1_555
C6_7 N6_7 1_555 1_555
C7_7 C6_7 1_555 1_555
H9_7 C11_7 1_555 1_555
C12_7 N5_7 1_555 1_555
C13_7 C12_7 1_555 1_555
C14_7 C13_7 1_555 1_555
H10_7 C14_7 1_555 1_555
C15_7 C14_7 1_555 1_555
H11_7 C15_7 1_555 1_555
C16_7 N2_7 1_555 1_555
H12_7 C16_7 1_555 1_555
C17_7 N2_7 1_555 1_555
C18_7 N1_7 1_555 1_555
C37_7 C38_7 1_555 1_555
C38_7 H23_7 1_555 1_555
C42_7 C37_7 1_555 1_555
H26_7 C42_7 1_555 1_555
C43_7 O2_7 1_555 1_555
C44_7 O4_7 1_555 1_555
H28_7 C48_7 1_555 1_555
C49_7 C48_7 1_555 1_555
H29_7 C49_7 1_555 1_555
C50_7 C45_7 1_555 1_555
H30_7 C50_7 1_555 1_555
C4_7 C5_7 1_555 1_555
C4_7 C18_7 1_555 1_555
C5_7 C12_7 1_555 1_555
C7_7 C11_7 1_555 1_555
C13_7 C17_7 1_555 1_555
C15_7 C16_7 1_555 1_555
C17_7 C18_7 1_555 1_555
C37_7 C43_7 1_555 1_555
C41_7 C42_7 1_555 1_555
C41_7 C44_7 1_555 1_555
C49_7 C50_7 1_555 1_555
O9_7 Cd8 1_555 1_555
O10_7 C59_7 1_555 1_555
O17 C60_7 1_555 1_555
C53_7 C54_7 1_555 1_555
C54_7 H31_7 1_555 1_555
C55_7 C54_7 1_555 1_555
H32_7 C55_7 1_555 1_555
C56_7 C55_7 1_555 1_555
H33_7 C56_7 1_555 1_555
C57_7 C56_7 1_555 1_555
C58_7 C53_7 1_555 1_555
H34_7 C58_7 1_555 1_555
C59_7 O9_7 1_555 1_555
C60_7 C57_7 1_555 1_555
C53_7 C59_7 1_555 1_555
C57_7 C58_7 1_555 1_555
Cd4_4 N3_7 1_555 1_555
N3_7 C19_7 1_555 1_555
N4_7 Cd4_4 1_555 1_555
N7_7 C24_7 1_555 1_555
N8_7 H2_7 1_555 1_555
N10_7 C28_7 1_555 1_555
O6_7 Cd4_4 1_555 1_555
C19_7 H13_7 1_555 1_555
C20_7 C19_7 1_555 1_555
H14_7 C20_7 1_555 1_555
C21_7 C20_7 1_555 1_555
H15_7 C21_7 1_555 1_555
C22_7 C21_7 1_555 1_555
C23_7 N8_7 1_555 1_555
C24_7 N8_7 1_555 1_555
C25_7 C24_7 1_555 1_555
C26_7 C25_7 1_555 1_555
H16_7 C26_7 1_555 1_555
C27_7 C26_7 1_555 1_555
H17_7 C27_7 1_555 1_555
C28_7 C27_7 1_555 1_555
H18_7 C28_7 1_555 1_555
C29_7 N10_7 1_555 1_555
H19_7 C29_7 1_555 1_555
C30_7 N7_7 1_555 1_555
C31_7 C30_7 1_555 1_555
C32_7 C31_7 1_555 1_555
H20_7 C32_7 1_555 1_555
C33_7 C32_7 1_555 1_555
H21_7 C33_7 1_555 1_555
C34_7 N4_7 1_555 1_555
C35_7 N4_7 1_555 1_555
C36_7 N3_7 1_555 1_555
C22_7 C23_7 1_555 1_555
C22_7 C36_7 1_555 1_555
C23_7 C30_7 1_555 1_555
C25_7 C29_7 1_555 1_555
C31_7 C35_7 1_555 1_555
C33_7 C34_7 1_555 1_555
C35_7 C36_7 1_555 1_555
Cd8_2 N10_8 1_555 1_555
N10_8 C28_8 1_555 1_555
O9_8 Cd8_2 1_555 1_555
O10_8 C59_8 1_555 1_555
O16_4 C60_8 1_555 1_555
O17_2 C60_8 1_555 1_555
H16_8 C26_8 1_555 1_555
C27_8 C26_8 1_555 1_555
H17_8 C27_8 1_555 1_555
C28_8 C27_8 1_555 1_555
H18_8 C28_8 1_555 1_555
C53_8 C54_8 1_555 1_555
C54_8 H31_8 1_555 1_555
C55_8 C54_8 1_555 1_555
H32_8 C55_8 1_555 1_555
C56_8 C55_8 1_555 1_555
H33_8 C56_8 1_555 1_555
C57_8 C56_8 1_555 1_555
C58_8 C53_8 1_555 1_555
H34_8 C58_8 1_555 1_555
C59_8 O9_8 1_555 1_555
C60_8 C57_8 1_555 1_555
C53_8 C59_8 1_555 1_555
C57_8 C58_8 1_555 1_555
Cd4_3 N3_8 1_555 1_555
N3_8 C19_8 1_555 1_555
N4_8 Cd4_3 1_555 1_555
N7_8 C24_8 1_555 1_555
N8_8 H2_8 1_555 1_555
O1_8 C43_8 1_555 1_555
O2_8 Cd5_2 1_555 1_555
O13_2 C44_8 1_555 1_555
O4_8 Cd4_3 1_555 1_555
O6_8 Cd4_3 1_555 1_555
C19_8 H13_8 1_555 1_555
C20_8 C19_8 1_555 1_555
H14_8 C20_8 1_555 1_555
C21_8 C20_8 1_555 1_555
H15_8 C21_8 1_555 1_555
C22_8 C21_8 1_555 1_555
C23_8 N8_8 1_555 1_555
C24_8 N8_8 1_555 1_555
C25_8 C24_8 1_555 1_555
H19_8 C29_8 1_555 1_555
C30_8 N7_8 1_555 1_555
C31_8 C30_8 1_555 1_555
C32_8 C31_8 1_555 1_555
H20_8 C32_8 1_555 1_555
C33_8 C32_8 1_555 1_555
H21_8 C33_8 1_555 1_555
C34_8 N4_8 1_555 1_555
H22_8 C34_8 1_555 1_555
C35_8 N4_8 1_555 1_555
C36_8 N3_8 1_555 1_555
C37_8 C38_8 1_555 1_555
C38_8 H23_8 1_555 1_555
C42_8 C37_8 1_555 1_555
H26_8 C42_8 1_555 1_555
C43_8 O2_8 1_555 1_555
C44_8 O4_8 1_555 1_555
H28_8 C48_8 1_555 1_555
C49_8 C48_8 1_555 1_555
H29_8 C49_8 1_555 1_555
C50_8 C45_8 1_555 1_555
H30_8 C50_8 1_555 1_555
C22_8 C23_8 1_555 1_555
C22_8 C36_8 1_555 1_555
C23_8 C30_8 1_555 1_555
C25_8 C29_8 1_555 1_555
C31_8 C35_8 1_555 1_555
C33_8 C34_8 1_555 1_555
C35_8 C36_8 1_555 1_555
C37_8 C43_8 1_555 1_555
C41_8 C42_8 1_555 1_555
C41_8 C44_8 1_555 1_555
C49_8 C50_8 1_555 1_555
O14_2 C51_8 1_555 1_555
O15_3 C52_8 1_555 1_555
O8_8 C52_8 1_555 1_555
H24_8 C39_8 1_555 1_555
C40_8 C39_8 1_555 1_555
H25_8 C40_8 1_555 1_555
C46_8 H27_8 1_555 1_555
C47_8 C46_8 1_555 1_555
C52_8 C47_8 1_555 1_555
N1_8 C1_8 1_555 1_555
N5_8 C6_8 1_555 1_555
N6_8 H1_8 1_555 1_555
N11_4 C10_8 1_555 1_555
C1_8 H3_8 1_555 1_555
C2_8 C1_8 1_555 1_555
H4_8 C2_8 1_555 1_555
C3_8 C2_8 1_555 1_555
H5_8 C3_8 1_555 1_555
C4_8 C3_8 1_555 1_555
C5_8 N6_8 1_555 1_555
C6_8 N6_8 1_555 1_555
C7_8 C6_8 1_555 1_555
C8_8 C7_8 1_555 1_555
H6_8 C8_8 1_555 1_555
C9_8 C8_8 1_555 1_555
H7_8 C9_8 1_555 1_555
C10_8 C9_8 1_555 1_555
H8_8 C10_8 1_555 1_555
C11_8 N11_4 1_555 1_555
H9_8 C11_8 1_555 1_555
C12_8 N5_8 1_555 1_555
C13_8 C12_8 1_555 1_555
C14_8 C13_8 1_555 1_555
H10_8 C14_8 1_555 1_555
C15_8 C14_8 1_555 1_555
H11_8 C15_8 1_555 1_555
C16_8 N2_8 1_555 1_555
C17_8 N2_8 1_555 1_555
C18_8 N1_8 1_555 1_555
C4_8 C5_8 1_555 1_555
C4_8 C18_8 1_555 1_555
C5_8 C12_8 1_555 1_555
C7_8 C11_8 1_555 1_555
C13_8 C17_8 1_555 1_555
C15_8 C16_8 1_555 1_555
C17_8 C18_8 1_555 1_555

#END
