
###############################################################################
#
# This file contains modified crystal structure data generated from the
# MOF subset of the Cambridge Structural Database (CSD) v543 
# hosted by the Cambridge Crystallographic Data Centre (CCDC).
#
# This work is licensed under the Creative Commons
# Attribution-NonCommercial-ShareAlike 4.0 International License.
# To view a copy of this license, visit
# http://creativecommons.org/licenses/by-nc-sa/4.0/
# or send a letter to
# Creative Commons, PO Box 1866, Mountain View, CA 94042, USA.
#
# CIF created using the CSD Python API on 29 September 2022
# The structure has been converted into the P1 space group
# The structure has a 3D framework
# The original CSD entry TUFTAR is in the triclinic crystal system
# The framework has been calculated to contain at least 10.0% void space
# The void calculation uses a probe of radius 1.32A, grid spacing 0.4
#
###############################################################################

data_TUFTAR
_chemical_formula_moiety         '(C32 H24 Eu4 N4 O34)n'
_symmetry_cell_setting           triclinic
_symmetry_space_group_name_H-M   'P 1'
_symmetry_Int_Tables_number      1
_space_group_name_Hall           'P 1'
loop_
_symmetry_equiv_pos_site_id
_symmetry_equiv_pos_as_xyz
1 x,y,z
_cell_length_a                   7.7297(4)
_cell_length_b                   10.2725(5)
_cell_length_c                   16.0234(9)
_cell_angle_alpha                86.817(4)
_cell_angle_beta                 85.974(5)
_cell_angle_gamma                77.107(4)
_cell_volume                     1236.13
loop_
_atom_site_label
_atom_site_type_symbol
_atom_site_fract_x
_atom_site_fract_y
_atom_site_fract_z
_atom_site_U_iso_or_equiv
_atom_site_thermal_displace_type
O1 O 0.2064(6) 0.2973(5) 0.7774(3) 0.0083 Uani
O2 O 0.0997(6) 0.0727(5) 0.7048(3) 0.0100 Uani
C1 C 0.0606(10) 0.4879(7) 0.7051(5) 0.0117 Uani
H7 H 0.1632 0.5245 0.7047 0.0140 Uiso
N1 N 0.0599(8) 0.3689(6) 0.7440(4) 0.0093 Uani
N2 N 0.0149(8) 0.0788(6) 0.7805(4) 0.0076 Uani
Eu11 Eu 0.38490(5) 0.13162(4) 0.67534(2) 0.0069 Uani
Eu1 Eu 0.35439(5) 0.33627(4) 0.06325(2) 0.0071 Uani
O8 O 0.0379(6) 0.3685(5) 0.0762(3) 0.0113 Uani
O11 O 0.3973(7) 0.0883(5) 0.2995(3) 0.0122 Uani
O13 O 0.2908(7) 0.2475(5) 0.2030(3) 0.0122 Uani
O14 O 0.5002(7) 0.1067(5) 0.0832(3) 0.0103 Uani
O15 O 0.5957(7) 0.3625(5) 0.1452(3) 0.0144 Uani
H1 H 0.611(7) 0.335(7) 0.1955(18) 0.0220 Uiso
H2 H 0.669(7) 0.411(6) 0.130(2) 0.0220 Uiso
C15 C 0.5126(10) 0.0613(7) 0.1579(5) 0.0084 Uani
C16 C 0.3895(10) 0.1386(7) 0.2254(5) 0.0100 Uani
O20 O 0.6622(6) 0.0295(5) 0.4241(3) 0.0101 Uani
O21 O 0.5932(7) 0.1105(5) 0.5527(3) 0.0101 Uani
C18 C 0.5746(10) 0.0417(7) 0.4920(5) 0.0116 Uani
O44 O 0.2405(7) 0.5565(5) 0.1180(3) 0.0110 Uani
O3 O 0.4905(7) 0.3560(5) 0.6519(3) 0.0122 Uani
O4 O 0.6401(7) 0.1881(5) 0.7288(3) 0.0141 Uani
O5 O 0.7595(7) 0.4435(5) 0.8820(3) 0.0110 Uani
O6 O 0.5919(7) 0.3381(5) 0.9677(3) 0.0108 Uani
O16 O 0.2739(8) 0.2104(5) 0.9519(3) 0.0146 Uani
H3 H 0.341(6) 0.135(3) 0.939(3) 0.0220 Uiso
H4 H 0.240(9) 0.251(3) 0.9057(17) 0.0220 Uiso
C2 C 0.9124(10) 0.5573(7) 0.6654(5) 0.0137 Uani
H8 H 0.9105 0.6440 0.6409 0.0170 Uiso
C3 C 0.7667(10) 0.5006(7) 0.6615(5) 0.0085 Uani
H9 H 0.6678 0.5454 0.6312 0.0100 Uiso
C4 C 0.7664(10) 0.3779(7) 0.7022(5) 0.0080 Uani
C5 C 0.9117(10) 0.3150(7) 0.7467(5) 0.0077 Uani
C6 C 0.6196(10) 0.3051(7) 0.6938(5) 0.0095 Uani
C9 C 0.8210(9) 0.0897(7) 0.9311(5) 0.0073 Uani
H12 H 0.7531 0.0927 0.9830 0.0090 Uiso
C10 C 0.8188(10) 0.2063(7) 0.8830(5) 0.0067 Uani
C11 C 0.9177(10) 0.1985(7) 0.8065(5) 0.0071 Uani
C12 C 0.7149(10) 0.3388(7) 0.9122(5) 0.0087 Uani
O18 O 0.2141(6) 0.4843(5) 0.9515(3) 0.0096 Uani
C17 C 0.0510(10) 0.5330(7) 0.9642(5) 0.0084 Uani
Eu6 Eu 0.64561(5) 0.66373(4) 0.93675(2) 0.0071 Uani
Eu2 Eu 0.61510(5) 0.86838(4) 0.32466(2) 0.0069 Uani
O9 O 0.3378(6) 0.9705(5) 0.5759(3) 0.0101 Uani
O10 O 0.4068(7) 0.8895(5) 0.4473(3) 0.0101 Uani
O12 O 0.6179(7) 0.9555(5) 0.1813(3) 0.0118 Uani
O17 O 0.8047(7) 0.7328(5) 0.4234(3) 0.0120 Uani
H5 H 0.784(5) 0.663(4) 0.450(4) 0.0180 Uiso
H6 H 0.908(4) 0.741(5) 0.434(4) 0.0180 Uiso
C14 C 0.4254(10) 0.9583(7) 0.5080(5) 0.0116 Uani
O36 O 0.7936(6) 0.7027(5) 0.2226(3) 0.0083 Uani
O38 O 0.9003(6) 0.9273(5) 0.2952(3) 0.0100 Uani
O40 O 0.5095(7) 0.6440(5) 0.3481(3) 0.0122 Uani
O42 O 0.3599(7) 0.8119(5) 0.2712(3) 0.0141 Uani
O29 O 0.3821(7) 0.0445(5) 0.8187(3) 0.0118 Uani
O34 O 0.1953(7) 0.2672(5) 0.5766(3) 0.0120 Uani
H17 H 0.216(5) 0.337(4) 0.550(4) 0.0180 Uiso
H18 H 0.092(4) 0.259(5) 0.566(4) 0.0180 Uiso
O7 O 0.7859(6) 0.5157(5) 0.0485(3) 0.0096 Uani
C13 C 0.9490(10) 0.4670(7) 0.0358(5) 0.0084 Uani
O27 O 0.4081(7) 0.6619(5) 0.0323(3) 0.0108 Uani
O33 O 0.7261(8) 0.7896(5) 0.0481(3) 0.0146 Uani
H15 H 0.659(6) 0.865(3) 0.061(3) 0.0220 Uiso
H16 H 0.760(9) 0.749(3) 0.0943(17) 0.0220 Uiso
C20 C 0.0876(10) 0.4427(7) 0.3346(5) 0.0137 Uani
H20 H 0.0895 0.3560 0.3591 0.0170 Uiso
C21 C 0.2333(10) 0.4994(7) 0.3385(5) 0.0085 Uani
H21 H 0.3322 0.4546 0.3688 0.0100 Uiso
C22 C 0.2336(10) 0.6221(7) 0.2978(5) 0.0080 Uani
C23 C 0.0883(10) 0.6850(7) 0.2533(5) 0.0077 Uani
C24 C 0.3804(10) 0.6949(7) 0.3062(5) 0.0095 Uani
C27 C 0.1790(9) 0.9103(7) 0.0689(5) 0.0073 Uani
H24 H 0.2469 0.9073 0.0170 0.0090 Uiso
C28 C 0.1812(10) 0.7937(7) 0.1170(5) 0.0067 Uani
C29 C 0.0823(10) 0.8015(7) 0.1935(5) 0.0071 Uani
C30 C 0.2851(10) 0.6612(7) 0.0878(5) 0.0087 Uani
O19 O 0.9621(6) 0.6315(5) 0.9238(3) 0.0113 Uani
O28 O 0.6027(7) 0.9117(5) 0.7005(3) 0.0122 Uani
O30 O 0.7092(7) 0.7525(5) 0.7970(3) 0.0122 Uani
O31 O 0.4998(7) 0.8933(5) 0.9168(3) 0.0103 Uani
O32 O 0.4043(7) 0.6375(5) 0.8548(3) 0.0144 Uani
H13 H 0.389(7) 0.665(7) 0.8045(18) 0.0220 Uiso
H14 H 0.331(7) 0.589(6) 0.870(2) 0.0220 Uiso
C31 C 0.4874(10) 0.9387(7) 0.8421(5) 0.0084 Uani
C32 C 0.6105(10) 0.8614(7) 0.7746(5) 0.0100 Uani
C19 C 0.9394(10) 0.5121(7) 0.2949(5) 0.0117 Uani
H19 H 0.8368 0.4755 0.2953 0.0140 Uiso
N3 N 0.9401(8) 0.6311(6) 0.2560(4) 0.0093 Uani
N4 N 0.9851(8) 0.9212(6) 0.2195(4) 0.0076 Uani
C7 C 0.0182(10) 0.9664(7) 0.8285(5) 0.0120 Uani
H10 H 0.0885 0.8838 0.8100 0.0140 Uiso
C8 C 0.9212(9) 0.9695(7) 0.9042(5) 0.0115 Uani
H11 H 0.9233 0.8897 0.9373 0.0140 Uiso
C26 C 0.0788(9) 0.0305(7) 0.0958(5) 0.0115 Uani
H23 H 0.0767 0.1103 0.0627 0.0140 Uiso
C25 C 0.9818(10) 0.0336(7) 0.1715(5) 0.0120 Uani
H22 H 0.9115 0.1162 0.1900 0.0140 Uiso
loop_
_atom_site_aniso_label
_atom_site_aniso_U_11
_atom_site_aniso_U_22
_atom_site_aniso_U_33
_atom_site_aniso_U_23
_atom_site_aniso_U_13
_atom_site_aniso_U_12
O1 0.01 0.003 0.01 0.001 -0.002 0.003
O2 0.005 0.013 0.013 -0.005 0.003 -0.004
C1 0.011 0.009 0.015 0.002 0 -0.003
N1 0.006 0.01 0.01 -0.001 0.001 0.002
N2 0.011 0.006 0.005 -0.001 -0.001 0
Eu11 0.0067 0.0065 0.0073 -0.00042 -0.00056 -0.00066
Eu1 0.007 0.0059 0.0075 0.00015 -0.00059 0.00023
O8 0.008 0.013 0.012 0.002 0 -0.001
O11 0.016 0.011 0.009 0.001 -0.001 -0.002
O13 0.008 0.01 0.019 0.001 -0.001 -0.003
O14 0.014 0.006 0.01 -0.001 -0.001 0
O15 0.014 0.022 0.01 0.008 -0.001 -0.012
C15 0.008 0.005 0.014 -0.004 -0.001 -0.004
C16 0.009 0.007 0.015 -0.002 -0.002 -0.003
O20 0.01 0.01 0.01 -0.006 0.002 -0.001
O21 0.012 0.011 0.01 -0.005 -0.001 -0.007
C18 0.011 0.003 0.019 0.005 0.002 0
O44 0.012 0.006 0.014 -0.002 0.001 0
O3 0.012 0.015 0.01 -0.002 -0.002 -0.003
O4 0.013 0.014 0.018 0.005 -0.008 -0.008
O5 0.012 0.006 0.014 -0.002 0.001 0
O6 0.009 0.012 0.011 -0.002 0 -0.001
O16 0.018 0.01 0.015 -0.003 -0.003 0
C2 0.023 0.004 0.013 -0.002 0.005 -0.002
C3 0.009 0.007 0.008 -0.004 0.001 0.002
C4 0.009 0.007 0.007 -0.0054 0.0016 0.0008
C5 0.009 0.007 0.007 -0.0049 0.0013 -0.001
C6 0.01 0.009 0.009 -0.006 0.001 0
C9 0.005 0.009 0.009 -0.001 -0.005 -0.002
C10 0.009 0.005 0.007 -0.001 0.001 -0.004
C11 0.008 0.006 0.008 -0.004 0 -0.002
C12 0.005 0.013 0.008 -0.002 -0.002 -0.001
O18 0.007 0.013 0.009 0.001 -0.001 -0.003
C17 0.008 0.011 0.008 -0.003 -0.002 -0.005
Eu6 0.007 0.0059 0.0075 0.00015 -0.00059 0.00023
Eu2 0.0067 0.0065 0.0073 -0.00042 -0.00056 -0.00066
O9 0.01 0.01 0.01 -0.006 0.002 -0.001
O10 0.012 0.011 0.01 -0.005 -0.001 -0.007
O12 0.012 0.007 0.013 -0.001 0 0.005
O17 0.014 0.013 0.011 0.008 -0.004 -0.008
C14 0.011 0.003 0.019 0.005 0.002 0
O36 0.01 0.003 0.01 0.001 -0.002 0.003
O38 0.005 0.013 0.013 -0.005 0.003 -0.004
O40 0.012 0.015 0.01 -0.002 -0.002 -0.003
O42 0.013 0.014 0.018 0.005 -0.008 -0.008
O29 0.012 0.007 0.013 -0.001 0 0.005
O34 0.014 0.013 0.011 0.008 -0.004 -0.008
O7 0.007 0.013 0.009 0.001 -0.001 -0.003
C13 0.008 0.011 0.008 -0.003 -0.002 -0.005
O27 0.009 0.012 0.011 -0.002 0 -0.001
O33 0.018 0.01 0.015 -0.003 -0.003 0
C20 0.023 0.004 0.013 -0.002 0.005 -0.002
C21 0.009 0.007 0.008 -0.004 0.001 0.002
C22 0.009 0.007 0.007 -0.0054 0.0016 0.0008
C23 0.009 0.007 0.007 -0.0049 0.0013 -0.001
C24 0.01 0.009 0.009 -0.006 0.001 0
C27 0.005 0.009 0.009 -0.001 -0.005 -0.002
C28 0.009 0.005 0.007 -0.001 0.001 -0.004
C29 0.008 0.006 0.008 -0.004 0 -0.002
C30 0.005 0.013 0.008 -0.002 -0.002 -0.001
O19 0.008 0.013 0.012 0.002 0 -0.001
O28 0.016 0.011 0.009 0.001 -0.001 -0.002
O30 0.008 0.01 0.019 0.001 -0.001 -0.003
O31 0.014 0.006 0.01 -0.001 -0.001 0
O32 0.014 0.022 0.01 0.008 -0.001 -0.012
C31 0.008 0.005 0.014 -0.004 -0.001 -0.004
C32 0.009 0.007 0.015 -0.002 -0.002 -0.003
C19 0.011 0.009 0.015 0.002 0 -0.003
N3 0.006 0.01 0.01 -0.001 0.001 0.002
N4 0.011 0.006 0.005 -0.001 -0.001 0
C7 0.012 0.005 0.019 0 -0.005 -0.001
C8 0.004 0.008 0.023 0.007 -0.004 -0.003
C26 0.004 0.008 0.023 0.007 -0.004 -0.003
C25 0.012 0.005 0.019 0 -0.005 -0.001
loop_
_geom_bond_atom_site_label_1
_geom_bond_atom_site_label_2
_geom_bond_site_symmetry_1
_geom_bond_site_symmetry_2
O1 N1 1_555 1_555
O2 N2 1_555 1_555
C1 H7 1_555 1_555
N1 C1 1_555 1_555
Eu11 O1 1_555 1_555
O2 Eu11 1_555 1_555
O8 Eu1 1_555 1_555
O13 Eu1 1_555 1_555
O14 Eu1 1_555 1_555
O15 Eu1 1_555 1_555
H1 O15 1_555 1_555
H2 O15 1_555 1_555
C16 O11 1_555 1_555
O21 C18 1_555 1_555
C18 O20 1_555 1_555
O44 Eu1 1_555 1_555
O13 C16 1_555 1_555
O14 C15 1_555 1_555
C15 C16 1_555 1_555
O21 Eu11 1_555 1_555
O3 C6 1_555 1_555
O4 C6 1_555 1_555
O5 C12 1_555 1_555
O6 C12 1_555 1_555
H3 O16 1_555 1_555
H4 O16 1_555 1_555
H8 C2 1_555 1_555
C3 C2 1_555 1_555
H9 C3 1_555 1_555
C4 C3 1_555 1_555
C5 C4 1_555 1_555
C6 C4 1_555 1_555
H12 C9 1_555 1_555
C10 C9 1_555 1_555
C11 C5 1_555 1_555
C12 C10 1_555 1_555
Eu6 O5 1_555 1_555
Eu11 O3 1_555 1_555
O4 Eu11 1_555 1_555
C10 C11 1_555 1_555
O18 C17 1_555 1_555
Eu2 O10 1_555 1_555
O9 C14 1_555 1_555
O10 C14 1_555 1_555
O12 Eu2 1_555 1_555
O17 Eu2 1_555 1_555
H5 O17 1_555 1_555
H6 O17 1_555 1_555
O36 Eu2 1_555 1_555
O38 Eu2 1_555 1_555
O40 Eu2 1_555 1_555
O42 Eu2 1_555 1_555
O29 Eu11 1_555 1_555
O34 Eu11 1_555 1_555
H17 O34 1_555 1_555
H18 O34 1_555 1_555
O7 C13 1_555 1_555
O40 C24 1_555 1_555
O42 C24 1_555 1_555
O44 C30 1_555 1_555
H15 O33 1_555 1_555
H16 O33 1_555 1_555
H20 C20 1_555 1_555
C21 C20 1_555 1_555
H21 C21 1_555 1_555
C22 C21 1_555 1_555
C23 C22 1_555 1_555
C24 C22 1_555 1_555
H24 C27 1_555 1_555
C28 C27 1_555 1_555
C29 C23 1_555 1_555
C30 O27 1_555 1_555
C28 C29 1_555 1_555
C28 C30 1_555 1_555
O28 C32 1_555 1_555
O30 Eu6 1_555 1_555
O31 Eu6 1_555 1_555
O32 Eu6 1_555 1_555
H13 O32 1_555 1_555
H14 O32 1_555 1_555
C32 O30 1_555 1_555
O19 Eu6 1_555 1_555
O31 C31 1_555 1_555
C31 C32 1_555 1_555
O36 N3 1_555 1_555
O38 N4 1_555 1_555
C19 H19 1_555 1_555
N3 C19 1_555 1_555
C7 H10 1_555 1_555
H11 C8 1_555 1_555
H23 C26 1_555 1_555
C25 H22 1_555 1_555

#END
