
###############################################################################
#
# This file contains modified crystal structure data generated from the
# MOF subset of the Cambridge Structural Database (CSD) v543 
# hosted by the Cambridge Crystallographic Data Centre (CCDC).
#
# This work is licensed under the Creative Commons
# Attribution-NonCommercial-ShareAlike 4.0 International License.
# To view a copy of this license, visit
# http://creativecommons.org/licenses/by-nc-sa/4.0/
# or send a letter to
# Creative Commons, PO Box 1866, Mountain View, CA 94042, USA.
#
# CIF created using the CSD Python API on 29 September 2022
# The structure has been converted into the P1 space group
# The structure has a 3D framework
# The original CSD entry TUGQUK01 is in the monoclinic crystal system
# The framework has been calculated to contain at least 10.0% void space
# The void calculation uses a probe of radius 1.32A, grid spacing 0.4
#
###############################################################################

data_TUGQUK01
_chemical_formula_moiety         '(C184 H136 Cu8 N8 O30)n'
_symmetry_cell_setting           triclinic
_symmetry_space_group_name_H-M   'P 1'
_symmetry_Int_Tables_number      1
_space_group_name_Hall           'P 1'
loop_
_symmetry_equiv_pos_site_id
_symmetry_equiv_pos_as_xyz
1 x,y,z
_cell_length_a                   19.074(4)
_cell_length_b                   22.337(5)
_cell_length_c                   22.918(5)
_cell_angle_alpha                90
_cell_angle_beta                 103.491(16)
_cell_angle_gamma                90
_cell_volume                     9494.92
loop_
_atom_site_label
_atom_site_type_symbol
_atom_site_fract_x
_atom_site_fract_y
_atom_site_fract_z
O5 O 0.250000 0.45941(13) 0.000000
H4 H 0.183329 0.361644 0.017721
H10 H 0.148855 0.160149 0.009615
O6 O 0.53102(11) 0.47486(9) 0.41518(8)
O7 O 0.41840(11) 0.50432(9) 0.41102(8)
O8 O 0.54296(12) 0.09922(9) 0.01339(9)
O9 O 0.42906(11) 0.07127(9) 0.00659(9)
C24 C 0.46742(16) 0.48455(13) 0.38807(12)
C25 C 0.47826(18) 0.11001(15) 0.01340(12)
C26 C 0.32779(18) 0.45042(15) 0.09604(12)
H18 H 0.307432 0.485166 0.107204
C27 C 0.44680(16) 0.47136(14) 0.32189(12)
C28 C 0.45669(19) 0.17260(15) 0.02258(14)
C29 C 0.30404(18) 0.42678(15) 0.03871(12)
C30 C 0.38349(18) 0.42044(15) 0.13688(12)
C31 C 0.40606(18) 0.44124(14) 0.20048(12)
C32 C 0.33306(19) 0.37607(15) 0.02114(13)
C33 C 0.49727(18) 0.45139(16) 0.29223(13)
H20 H 0.545310 0.447854 0.312660
C34 C 0.4138(2) 0.28712(16) 0.04572(14)
C35 C 0.38727(19) 0.34597(15) 0.06157(14)
C36 C 0.3854(2) 0.18842(16) 0.00791(18)
C37 C 0.37643(18) 0.47747(16) 0.29016(13)
H22 H 0.342087 0.492004 0.309447
C38 C 0.35605(19) 0.46245(16) 0.23039(13)
H23 H 0.308114 0.466606 0.209896
C39 C 0.47669(18) 0.43664(16) 0.23228(13)
H24 H 0.511366 0.423237 0.212775
C40 C 0.41241(18) 0.36969(15) 0.11929(13)
H25 H 0.449606 0.350362 0.146152
C41 C 0.3634(2) 0.24481(17) 0.01843(17)
H26 H 0.314823 0.254837 0.007326
C42 C 0.5064(2) 0.21509(17) 0.04666(16)
H27 H 0.555210 0.205559 0.055123
C43 C 0.4854(2) 0.27187(17) 0.05860(17)
H28 H 0.520061 0.300102 0.075527
Cu3 Cu 0.56792(2) 0.48409(2) 0.50239(2)
Cu8 Cu 0.43208(2) 0.51591(2) 0.49761(2)
Cu9 Cu 0.56792(2) 0.01591(2) 0.00239(2)
O2 O 0.08160(11) 0.50432(9) 0.58898(8)
O4 O 0.07094(11) 0.07127(9) 0.99341(9)
O5_2 O 0.250000 0.45941(13) 1.000000
C1 C 0.03258(16) 0.48455(13) 0.61193(12)
C2 C 0.02174(18) 0.11001(15) 0.98660(12)
C3 C 0.17221(18) 0.45042(15) 0.90396(12)
H1 H 0.192568 0.485166 0.892796
C4 C 0.05320(16) 0.47136(14) 0.67811(12)
C5 C 0.04331(19) 0.17260(15) 0.97742(14)
C6 C 0.19596(18) 0.42678(15) 0.96129(12)
C7 C 0.11651(18) 0.42044(15) 0.86312(12)
C8 C 0.09394(18) 0.44124(14) 0.79952(12)
C10 C 0.16694(19) 0.37607(15) 0.97886(13)
C11 C 0.00273(18) 0.45139(16) 0.70777(13)
C13 C 0.0862(2) 0.28712(16) 0.95428(14)
C15 C 0.11273(19) 0.34597(15) 0.93843(14)
C16 C 0.1146(2) 0.18842(16) 0.99209(18)
C17 C 0.12357(18) 0.47747(16) 0.70984(13)
H11 H 0.157913 0.492004 0.690553
C18 C 0.14395(19) 0.46245(16) 0.76961(13)
H12 H 0.191886 0.466606 0.790104
C19 C 0.02331(18) 0.43664(16) 0.76772(13)
C20 C 0.08759(18) 0.36969(15) 0.88071(13)
H14 H 0.050394 0.350362 0.853848
C21 C 0.1366(2) 0.24481(17) 0.98157(17)
H15 H 0.185177 0.254837 0.992674
C23 C 0.0146(2) 0.27187(17) 0.94140(17)
H19 H 0.316671 0.361644 0.982279
H21 H 0.351145 0.160149 0.990385
Cu6 Cu 0.06792(2) 0.51591(2) 0.50239(2)
Cu5 Cu 0.06792(2) 0.98409(2) 0.00239(2)
Cu4 Cu 0.43208(2) 0.98409(2) 0.99761(2)
Cu1 Cu 0.93208(2) 0.48409(2) 0.49761(2)
O1 O 0.96898(11) 0.47486(9) 0.58482(8)
O3 O 0.95704(12) 0.09922(9) 0.98661(9)
N1 N 0.81760(11) 0.47697(11) 0.49875(9)
C9 C 0.77348(16) 0.50774(16) 0.44622(14)
H2 H 0.779713 0.488176 0.409980
H3 H 0.789892 0.548779 0.445557
H5 H 0.954690 0.447854 0.687340
C12 C 0.80605(16) 0.50750(17) 0.55305(14)
H6 H 0.823417 0.548384 0.553890
H7 H 0.833324 0.487181 0.588537
C14 C 0.79046(16) 0.41556(16) 0.49944(19)
H8 H 0.817920 0.394740 0.534528
H9 H 0.796842 0.394387 0.464085
H13 H 0.988634 0.423237 0.787225
C22 C 0.9936(2) 0.21509(17) 0.95334(16)
H16 H 0.944790 0.205559 0.944877
H17 H 0.979939 0.300102 0.924473
N2 N 0.68240(11) 0.47697(11) 0.50125(9)
C44 C 0.72652(16) 0.50774(16) 0.55378(14)
H29 H 0.720287 0.488176 0.590020
H30 H 0.710108 0.548779 0.554443
C45 C 0.69395(16) 0.50750(17) 0.44695(14)
H31 H 0.676583 0.548384 0.446110
H32 H 0.666676 0.487181 0.411463
C46 C 0.70954(16) 0.41556(16) 0.50056(19)
H33 H 0.682080 0.394740 0.465472
H34 H 0.703158 0.394387 0.535915
Cu10 Cu 0.93208(2) 0.01591(2) 0.99761(2)
O11 O 0.91840(11) 0.49568(9) 0.41102(8)
O12 O 0.58160(11) 0.49568(9) 0.58898(8)
O13 O 0.54296(12) 0.40078(9) 0.51339(9)
O14 O 0.95704(12) 0.40078(9) 0.48661(9)
O15 O 0.57094(11) 0.57127(9) 0.49341(9)
O16 O 0.92906(11) 0.57127(9) 0.50659(9)
O6_2 O 0.03102(11) 0.97486(9) 0.91518(8)
O8_2 O 0.04296(12) 0.59922(9) 0.51339(9)
H20_2 H 0.045310 0.947854 0.812660
H24_2 H 0.011366 0.923237 0.712775
C42_2 C 0.0064(2) 0.71509(17) 0.54666(16)
H27_2 H 0.055210 0.705559 0.555123
H28_2 H 0.020061 0.800102 0.575527
O2_2 O 0.58160(11) 0.00432(9) 0.08898(8)
C12_2 C 0.30605(16) 0.00750(17) 0.05305(14)
H6_2 H 0.323417 0.048384 0.053890
O7_2 O 0.91840(11) 0.00432(9) 0.91102(8)
C44_2 C 0.22652(16) 0.00774(16) 0.05378(14)
H30_2 H 0.210108 0.048779 0.054443
C9_2 C 0.27348(16) 0.00774(16) 0.94622(14)
H3_2 H 0.289892 0.048779 0.945557
C45_2 C 0.19395(16) 0.00750(17) 0.94695(14)
H31_2 H 0.176583 0.048384 0.946110
O1_2 O 0.46898(11) 0.97486(9) 0.08482(8)
O3_2 O 0.45704(12) 0.59922(9) 0.48661(9)
O5_3 O 0.750000 0.95941(13) 0.500000
C1_2 C 0.53258(16) 0.98455(13) 0.11193(12)
C2_2 C 0.52174(18) 0.61001(15) 0.48660(12)
C3_2 C 0.67221(18) 0.95042(15) 0.40396(12)
H1_2 H 0.692568 0.985166 0.392796
C4_2 C 0.55320(16) 0.97136(14) 0.17811(12)
C5_2 C 0.54331(19) 0.67260(15) 0.47742(14)
C6_2 C 0.69596(18) 0.92678(15) 0.46129(12)
C7_2 C 0.61651(18) 0.92044(15) 0.36312(12)
C8_2 C 0.59394(18) 0.94124(14) 0.29952(12)
C10_2 C 0.66694(19) 0.87607(15) 0.47886(13)
H4_2 H 0.683329 0.861644 0.517721
C11_2 C 0.50273(18) 0.95139(16) 0.20777(13)
H5_2 H 0.454690 0.947854 0.187340
H7_2 H 0.333324 0.987181 0.088537
C13_2 C 0.5862(2) 0.78712(16) 0.45428(14)
H8_2 H 0.317920 0.894740 0.034528
C15_2 C 0.61273(19) 0.84597(15) 0.43843(14)
C16_2 C 0.6146(2) 0.68842(16) 0.49209(18)
H10_2 H 0.648855 0.660149 0.509615
C17_2 C 0.62357(18) 0.97747(16) 0.20984(13)
H11_2 H 0.657913 0.992004 0.190553
C18_2 C 0.64395(19) 0.96245(16) 0.26961(13)
H12_2 H 0.691886 0.966606 0.290104
C19_2 C 0.52331(18) 0.93664(16) 0.26772(13)
H13_2 H 0.488634 0.923237 0.287225
C20_2 C 0.58759(18) 0.86969(15) 0.38071(13)
H14_2 H 0.550394 0.850362 0.353848
C21_2 C 0.6366(2) 0.74481(17) 0.48157(17)
H15_2 H 0.685177 0.754837 0.492674
C22_2 C 0.4936(2) 0.71509(17) 0.45334(16)
H16_2 H 0.444790 0.705559 0.444877
C23_2 C 0.5146(2) 0.77187(17) 0.44140(17)
H17_2 H 0.479939 0.800102 0.424473
C24_2 C 0.96742(16) 0.98455(13) 0.88807(12)
C25_2 C 0.97826(18) 0.61001(15) 0.51340(12)
C26_2 C 0.82779(18) 0.95042(15) 0.59604(12)
H18_2 H 0.807432 0.985166 0.607204
C27_2 C 0.94680(16) 0.97136(14) 0.82189(12)
C28_2 C 0.95669(19) 0.67260(15) 0.52258(14)
C29_2 C 0.80404(18) 0.92678(15) 0.53871(12)
C30_2 C 0.88349(18) 0.92044(15) 0.63688(12)
C31_2 C 0.90606(18) 0.94124(14) 0.70048(12)
C32_2 C 0.83306(19) 0.87607(15) 0.52114(13)
H19_2 H 0.816671 0.861644 0.482279
C33_2 C 0.99727(18) 0.95139(16) 0.79223(13)
C34_2 C 0.9138(2) 0.78712(16) 0.54572(14)
C35_2 C 0.88727(19) 0.84597(15) 0.56157(14)
C36_2 C 0.8854(2) 0.68842(16) 0.50791(18)
H21_2 H 0.851145 0.660149 0.490385
C37_2 C 0.87643(18) 0.97747(16) 0.79016(13)
H22_2 H 0.842087 0.992004 0.809447
C38_2 C 0.85605(19) 0.96245(16) 0.73039(13)
H23_2 H 0.808114 0.966606 0.709896
C39_2 C 0.97669(18) 0.93664(16) 0.73228(13)
C40_2 C 0.91241(18) 0.86969(15) 0.61929(13)
H25_2 H 0.949606 0.850362 0.646152
C41_2 C 0.8634(2) 0.74481(17) 0.51843(17)
H26_2 H 0.814823 0.754837 0.507326
C43_2 C 0.9854(2) 0.77187(17) 0.55860(17)
N2_2 N 0.18240(11) 0.97697(11) 0.00125(9)
H29_2 H 0.220287 0.988176 0.090020
C46_2 C 0.20954(16) 0.91556(16) 0.00056(19)
H34_2 H 0.203158 0.894387 0.035915
O12_2 O 0.08160(11) 0.99568(9) 0.08898(8)
O13_2 O 0.04296(12) 0.90078(9) 0.01339(9)
N1_2 N 0.31760(11) 0.97697(11) 0.99875(9)
H2_2 H 0.279713 0.988176 0.909980
C14_2 C 0.29046(16) 0.91556(16) 0.99944(19)
H9_2 H 0.296842 0.894387 0.964085
H32_2 H 0.166676 0.987181 0.911463
H33_2 H 0.182080 0.894740 0.965472
O11_2 O 0.41840(11) 0.99568(9) 0.91102(8)
O14_2 O 0.45704(12) 0.90078(9) 0.98661(9)
O1_3 O 0.03102(11) 0.52514(9) 0.41518(8)
N1_3 N 0.18240(11) 0.52303(11) 0.50125(9)
C9_3 C 0.22652(16) 0.49226(16) 0.55378(14)
H2_3 H 0.220287 0.511824 0.590020
H3_3 H 0.210108 0.451221 0.554443
H5_3 H 0.045310 0.552146 0.312660
C12_3 C 0.19395(16) 0.49250(17) 0.44695(14)
H6_3 H 0.176583 0.451616 0.446110
H7_3 H 0.166676 0.512819 0.411463
C14_3 C 0.20954(16) 0.58444(16) 0.50056(19)
H8_3 H 0.182080 0.605260 0.465472
H9_3 H 0.203158 0.605613 0.535915
H13_3 H 0.011366 0.576763 0.212775
C22_3 C 0.0064(2) 0.78491(17) 0.04666(16)
H16_3 H 0.055210 0.794441 0.055123
H17_3 H 0.020061 0.699898 0.075527
N2_3 N 0.31760(11) 0.52303(11) 0.49875(9)
C44_3 C 0.27348(16) 0.49226(16) 0.44622(14)
H29_3 H 0.279713 0.511824 0.409980
H30_3 H 0.289892 0.451221 0.445557
C45_3 C 0.30605(16) 0.49250(17) 0.55305(14)
H31_3 H 0.323417 0.451616 0.553890
H32_3 H 0.333324 0.512819 0.588537
C46_3 C 0.29046(16) 0.58444(16) 0.49944(19)
H33_3 H 0.317920 0.605260 0.534528
H34_3 H 0.296842 0.605613 0.464085
O10 O 0.46898(11) 0.52514(9) 0.58482(8)
O15_2 O 0.42906(11) 0.42873(9) 0.50659(9)
O16_2 O 0.07094(11) 0.42873(9) 0.49341(9)
O4_2 O 0.92906(11) 0.92873(9) 0.00659(9)
O5_4 O 0.750000 0.54059(13) 0.000000
C1_3 C 0.96742(16) 0.51545(13) 0.38807(12)
C2_3 C 0.97826(18) 0.88999(15) 0.01340(12)
C3_3 C 0.82779(18) 0.54958(15) 0.09604(12)
H1_3 H 0.807432 0.514834 0.107204
C4_3 C 0.94680(16) 0.52864(14) 0.32189(12)
C5_3 C 0.95669(19) 0.82740(15) 0.02258(14)
C6_3 C 0.80404(18) 0.57322(15) 0.03871(12)
C7_3 C 0.88349(18) 0.57956(15) 0.13688(12)
C8_3 C 0.90606(18) 0.55876(14) 0.20048(12)
C10_3 C 0.83306(19) 0.62393(15) 0.02114(13)
C11_3 C 0.99727(18) 0.54861(16) 0.29223(13)
C13_3 C 0.9138(2) 0.71288(16) 0.04572(14)
C15_3 C 0.88727(19) 0.65403(15) 0.06157(14)
C16_3 C 0.8854(2) 0.81158(16) 0.00791(18)
C17_3 C 0.87643(18) 0.52253(16) 0.29016(13)
H11_3 H 0.842087 0.507996 0.309447
C18_3 C 0.85605(19) 0.53755(16) 0.23039(13)
H12_3 H 0.808114 0.533394 0.209896
C19_3 C 0.97669(18) 0.56336(16) 0.23228(13)
C20_3 C 0.91241(18) 0.63031(15) 0.11929(13)
H14_3 H 0.949606 0.649638 0.146152
C21_3 C 0.8634(2) 0.75519(17) 0.01843(17)
H15_3 H 0.814823 0.745163 0.007326
C23_3 C 0.9854(2) 0.72813(17) 0.05860(17)
H19_3 H 0.683329 0.638356 0.017721
H21_3 H 0.648855 0.839851 0.009615
O5_5 O 0.750000 0.54059(13) 1.000000
H4_3 H 0.816671 0.638356 0.982279
H10_3 H 0.851145 0.839851 0.990385
O9_2 O 0.57094(11) 0.92873(9) 0.99341(9)
C24_3 C 0.53258(16) 0.51545(13) 0.61193(12)
C25_3 C 0.52174(18) 0.88999(15) 0.98660(12)
C26_3 C 0.67221(18) 0.54958(15) 0.90396(12)
H18_3 H 0.692568 0.514834 0.892796
C27_3 C 0.55320(16) 0.52864(14) 0.67811(12)
C28_3 C 0.54331(19) 0.82740(15) 0.97742(14)
C29_3 C 0.69596(18) 0.57322(15) 0.96129(12)
C30_3 C 0.61651(18) 0.57956(15) 0.86312(12)
C31_3 C 0.59394(18) 0.55876(14) 0.79952(12)
C32_3 C 0.66694(19) 0.62393(15) 0.97886(13)
C33_3 C 0.50273(18) 0.54861(16) 0.70777(13)
H20_3 H 0.454690 0.552146 0.687340
C34_3 C 0.5862(2) 0.71288(16) 0.95428(14)
C35_3 C 0.61273(19) 0.65403(15) 0.93843(14)
C36_3 C 0.6146(2) 0.81158(16) 0.99209(18)
C37_3 C 0.62357(18) 0.52253(16) 0.70984(13)
H22_3 H 0.657913 0.507996 0.690553
C38_3 C 0.64395(19) 0.53755(16) 0.76961(13)
H23_3 H 0.691886 0.533394 0.790104
C39_3 C 0.52331(18) 0.56336(16) 0.76772(13)
H24_3 H 0.488634 0.576763 0.787225
C40_3 C 0.58759(18) 0.63031(15) 0.88071(13)
H25_3 H 0.550394 0.649638 0.853848
C41_3 C 0.6366(2) 0.75519(17) 0.98157(17)
H26_3 H 0.685177 0.745163 0.992674
C42_3 C 0.4936(2) 0.78491(17) 0.95334(16)
H27_3 H 0.444790 0.794441 0.944877
C43_3 C 0.5146(2) 0.72813(17) 0.94140(17)
H28_3 H 0.479939 0.699898 0.924473
N1_4 N 0.68240(11) 0.02303(11) 0.00125(9)
H2_4 H 0.720287 0.011824 0.090020
C14_4 C 0.70954(16) 0.08444(16) 0.00056(19)
H9_4 H 0.703158 0.105613 0.035915
H32_4 H 0.833324 0.012819 0.088537
H33_4 H 0.817920 0.105260 0.034528
O10_2 O 0.96898(11) 0.02514(9) 0.08482(8)
O1_4 O 0.53102(11) 0.02514(9) 0.91518(8)
O5_6 O 0.250000 0.04059(13) 0.500000
C1_4 C 0.46742(16) 0.01545(13) 0.88807(12)
C2_4 C 0.47826(18) 0.38999(15) 0.51340(12)
C3_4 C 0.32779(18) 0.04958(15) 0.59604(12)
H1_4 H 0.307432 0.014834 0.607204
C4_4 C 0.44680(16) 0.02864(14) 0.82189(12)
C5_4 C 0.45669(19) 0.32740(15) 0.52258(14)
C6_4 C 0.30404(18) 0.07322(15) 0.53871(12)
C7_4 C 0.38349(18) 0.07956(15) 0.63688(12)
C8_4 C 0.40606(18) 0.05876(14) 0.70048(12)
C10_4 C 0.33306(19) 0.12393(15) 0.52114(13)
H4_4 H 0.316671 0.138356 0.482279
C11_4 C 0.49727(18) 0.04861(16) 0.79223(13)
H5_4 H 0.545310 0.052146 0.812660
H7_4 H 0.666676 0.012819 0.911463
C13_4 C 0.4138(2) 0.21288(16) 0.54572(14)
H8_4 H 0.682080 0.105260 0.965472
C15_4 C 0.38727(19) 0.15403(15) 0.56157(14)
C16_4 C 0.3854(2) 0.31158(16) 0.50791(18)
H10_4 H 0.351145 0.339851 0.490385
C17_4 C 0.37643(18) 0.02253(16) 0.79016(13)
H11_4 H 0.342087 0.007996 0.809447
C18_4 C 0.35605(19) 0.03755(16) 0.73039(13)
H12_4 H 0.308114 0.033394 0.709896
C19_4 C 0.47669(18) 0.06336(16) 0.73228(13)
H13_4 H 0.511366 0.076763 0.712775
C20_4 C 0.41241(18) 0.13031(15) 0.61929(13)
H14_4 H 0.449606 0.149638 0.646152
C21_4 C 0.3634(2) 0.25519(17) 0.51843(17)
H15_4 H 0.314823 0.245163 0.507326
C22_4 C 0.5064(2) 0.28491(17) 0.54666(16)
H16_4 H 0.555210 0.294441 0.555123
C23_4 C 0.4854(2) 0.22813(17) 0.55860(17)
H17_4 H 0.520061 0.199898 0.575527
C24_4 C 0.03258(16) 0.01545(13) 0.11193(12)
C25_4 C 0.02174(18) 0.38999(15) 0.48660(12)
C26_4 C 0.17221(18) 0.04958(15) 0.40396(12)
H18_4 H 0.192568 0.014834 0.392796
C27_4 C 0.05320(16) 0.02864(14) 0.17811(12)
C28_4 C 0.04331(19) 0.32740(15) 0.47742(14)
C29_4 C 0.19596(18) 0.07322(15) 0.46129(12)
C30_4 C 0.11651(18) 0.07956(15) 0.36312(12)
C31_4 C 0.09394(18) 0.05876(14) 0.29952(12)
C32_4 C 0.16694(19) 0.12393(15) 0.47886(13)
H19_4 H 0.183329 0.138356 0.517721
C33_4 C 0.00273(18) 0.04861(16) 0.20777(13)
C34_4 C 0.0862(2) 0.21288(16) 0.45428(14)
C35_4 C 0.11273(19) 0.15403(15) 0.43843(14)
C36_4 C 0.1146(2) 0.31158(16) 0.49209(18)
H21_4 H 0.148855 0.339851 0.509615
C37_4 C 0.12357(18) 0.02253(16) 0.20984(13)
H22_4 H 0.157913 0.007996 0.190553
C38_4 C 0.14395(19) 0.03755(16) 0.26961(13)
H23_4 H 0.191886 0.033394 0.290104
C39_4 C 0.02331(18) 0.06336(16) 0.26772(13)
C40_4 C 0.08759(18) 0.13031(15) 0.38071(13)
H25_4 H 0.050394 0.149638 0.353848
C41_4 C 0.1366(2) 0.25519(17) 0.48157(17)
H26_4 H 0.185177 0.245163 0.492674
C43_4 C 0.0146(2) 0.22813(17) 0.44140(17)
N2_4 N 0.81760(11) 0.02303(11) 0.99875(9)
H29_4 H 0.779713 0.011824 0.909980
C46_4 C 0.79046(16) 0.08444(16) 0.99944(19)
H34_4 H 0.796842 0.105613 0.964085
C9_4 C 0.72652(16) 0.99226(16) 0.05378(14)
H3_4 H 0.710108 0.951221 0.054443
C45_4 C 0.80605(16) 0.99250(17) 0.05305(14)
H31_4 H 0.823417 0.951616 0.053890
C12_4 C 0.69395(16) 0.99250(17) 0.94695(14)
H6_4 H 0.676583 0.951616 0.946110
C44_4 C 0.77348(16) 0.99226(16) 0.94622(14)
H30_4 H 0.789892 0.951221 0.945557
H20_4 H 0.954690 0.052146 0.187340
H24_4 H 0.988634 0.076763 0.287225
C42_4 C 0.9936(2) 0.28491(17) 0.45334(16)
H27_4 H 0.944790 0.294441 0.444877
H28_4 H 0.979939 0.199898 0.424473
loop_
_geom_bond_atom_site_label_1
_geom_bond_atom_site_label_2
_geom_bond_site_symmetry_1
_geom_bond_site_symmetry_2
O6 C24 1_555 1_555
O7 C24 1_555 1_555
O8 C25 1_555 1_555
O9 C25 1_555 1_555
C24 C27 1_555 1_555
C25 C28 1_555 1_555
C26 H18 1_555 1_555
C27 C33 1_555 1_555
C28 C36 1_555 1_555
C29 O5 1_555 1_555
C30 C26 1_555 1_555
C31 C30 1_555 1_555
C32 C29 1_555 1_555
C33 H20 1_555 1_555
C34 C35 1_555 1_555
C35 C32 1_555 1_555
C37 C27 1_555 1_555
H22 C37 1_555 1_555
C38 C31 1_555 1_555
H23 C38 1_555 1_555
C39 C31 1_555 1_555
H24 C39 1_555 1_555
C40 C30 1_555 1_555
H25 C40 1_555 1_555
C41 C34 1_555 1_555
H26 C41 1_555 1_555
C42 C28 1_555 1_555
H27 C42 1_555 1_555
C43 C34 1_555 1_555
H28 C43 1_555 1_555
Cu3 O6 1_555 1_555
Cu8 O7 1_555 1_555
Cu9 O8 1_555 1_555
C26 C29 1_555 1_555
C33 C39 1_555 1_555
C35 C40 1_555 1_555
C36 C41 1_555 1_555
C37 C38 1_555 1_555
C42 C43 1_555 1_555
Cu3 Cu8 1_555 1_555
O2 C1 1_555 1_555
O4 C2 1_555 1_555
O5_2 C6 1_555 1_555
C1 C4 1_555 1_555
C2 C5 1_555 1_555
C3 H1 1_555 1_555
C4 C11 1_555 1_555
C5 C16 1_555 1_555
C6 C3 1_555 1_555
C7 C3 1_555 1_555
C8 C7 1_555 1_555
C10 C6 1_555 1_555
C13 C15 1_555 1_555
C15 C10 1_555 1_555
C17 C4 1_555 1_555
H11 C17 1_555 1_555
C18 C8 1_555 1_555
H12 C18 1_555 1_555
C19 C8 1_555 1_555
C20 C7 1_555 1_555
H14 C20 1_555 1_555
C21 C13 1_555 1_555
H15 C21 1_555 1_555
C23 C13 1_555 1_555
O2 Cu6 1_555 1_555
C11 C19 1_555 1_555
C15 C20 1_555 1_555
C16 C21 1_555 1_555
C17 C18 1_555 1_555
Cu1 O1 1_555 1_555
N1 Cu1 1_555 1_555
C9 N1 1_555 1_555
H2 C9 1_555 1_555
H3 C9 1_555 1_555
C12 N1 1_555 1_555
H6 C12 1_555 1_555
H7 C12 1_555 1_555
C14 N1 1_555 1_555
H8 C14 1_555 1_555
H9 C14 1_555 1_555
H16 C22 1_555 1_555
N2 C44 1_555 1_555
C44 C12 1_555 1_555
H29 C44 1_555 1_555
H30 C44 1_555 1_555
C45 C9 1_555 1_555
H31 C45 1_555 1_555
H32 C45 1_555 1_555
C46 C14 1_555 1_555
H33 C46 1_555 1_555
H34 C46 1_555 1_555
Cu3 N2 1_555 1_555
Cu10 O3 1_555 1_555
O11 Cu1 1_555 1_555
O12 Cu3 1_555 1_555
O13 Cu3 1_555 1_555
O14 Cu1 1_555 1_555
O15 Cu3 1_555 1_555
O16 Cu1 1_555 1_555
N2 C45 1_555 1_555
N2 C46 1_555 1_555
H27_2 C42_2 1_555 1_555
Cu6 O8_2 1_555 1_555
H6_2 C12_2 1_555 1_555
C44_2 C12_2 1_555 1_555
H30_2 C44_2 1_555 1_555
Cu10 O7_2 1_555 1_555
O2_2 Cu9 1_555 1_555
H3_2 C9_2 1_555 1_555
C45_2 C9_2 1_555 1_555
H31_2 C45_2 1_555 1_555
O1_2 C1_2 1_555 1_555
O3_2 C2_2 1_555 1_555
O15 C2_2 1_555 1_555
O5_3 C6_2 1_555 1_555
C1_2 C4_2 1_555 1_555
C2_2 C5_2 1_555 1_555
C3_2 H1_2 1_555 1_555
C4_2 C11_2 1_555 1_555
C5_2 C16_2 1_555 1_555
C6_2 C3_2 1_555 1_555
C7_2 C3_2 1_555 1_555
C8_2 C7_2 1_555 1_555
C10_2 C6_2 1_555 1_555
H4_2 C10_2 1_555 1_555
C11_2 H5_2 1_555 1_555
C13_2 C15_2 1_555 1_555
C15_2 C10_2 1_555 1_555
C16_2 H10_2 1_555 1_555
C17_2 C4_2 1_555 1_555
H11_2 C17_2 1_555 1_555
C18_2 C8_2 1_555 1_555
H12_2 C18_2 1_555 1_555
C19_2 C8_2 1_555 1_555
H13_2 C19_2 1_555 1_555
C20_2 C7_2 1_555 1_555
H14_2 C20_2 1_555 1_555
C21_2 C13_2 1_555 1_555
H15_2 C21_2 1_555 1_555
C22_2 C5_2 1_555 1_555
H16_2 C22_2 1_555 1_555
C23_2 C13_2 1_555 1_555
H17_2 C23_2 1_555 1_555
O16 C25_2 1_555 1_555
C24_2 C27_2 1_555 1_555
C25_2 C28_2 1_555 1_555
C26_2 H18_2 1_555 1_555
C27_2 C33_2 1_555 1_555
C28_2 C36_2 1_555 1_555
C29_2 O5_3 1_555 1_555
C30_2 C26_2 1_555 1_555
C31_2 C30_2 1_555 1_555
C32_2 C29_2 1_555 1_555
H19_2 C32_2 1_555 1_555
C34_2 C35_2 1_555 1_555
C35_2 C32_2 1_555 1_555
C36_2 H21_2 1_555 1_555
C37_2 C27_2 1_555 1_555
H22_2 C37_2 1_555 1_555
C38_2 C31_2 1_555 1_555
H23_2 C38_2 1_555 1_555
C39_2 C31_2 1_555 1_555
C40_2 C30_2 1_555 1_555
H25_2 C40_2 1_555 1_555
C41_2 C34_2 1_555 1_555
H26_2 C41_2 1_555 1_555
C43_2 C34_2 1_555 1_555
H34_2 C46_2 1_555 1_555
Cu5 N2_2 1_555 1_555
Cu8 O3_2 1_555 1_555
O12_2 Cu5 1_555 1_555
O13_2 Cu5 1_555 1_555
C11_2 C19_2 1_555 1_555
C15_2 C20_2 1_555 1_555
C16_2 C21_2 1_555 1_555
C17_2 C18_2 1_555 1_555
C22_2 C23_2 1_555 1_555
C26_2 C29_2 1_555 1_555
C33_2 C39_2 1_555 1_555
C35_2 C40_2 1_555 1_555
C36_2 C41_2 1_555 1_555
C37_2 C38_2 1_555 1_555
N2_2 C46_2 1_555 1_555
N1_2 Cu4 1_555 1_555
C14_2 N1_2 1_555 1_555
H9_2 C14_2 1_555 1_555
O11_2 Cu4 1_555 1_555
O14_2 Cu4 1_555 1_555
Cu6 O1_3 1_555 1_555
N1_3 Cu6 1_555 1_555
C9_3 N1_3 1_555 1_555
H2_3 C9_3 1_555 1_555
H3_3 C9_3 1_555 1_555
C12_3 N1_3 1_555 1_555
H6_3 C12_3 1_555 1_555
H7_3 C12_3 1_555 1_555
C14_3 N1_3 1_555 1_555
H8_3 C14_3 1_555 1_555
H9_3 C14_3 1_555 1_555
H16_3 C22_3 1_555 1_555
N2_3 C44_3 1_555 1_555
C44_3 C12_3 1_555 1_555
H29_3 C44_3 1_555 1_555
H30_3 C44_3 1_555 1_555
C45_3 C9_3 1_555 1_555
H31_3 C45_3 1_555 1_555
H32_3 C45_3 1_555 1_555
C46_3 C14_3 1_555 1_555
H33_3 C46_3 1_555 1_555
H34_3 C46_3 1_555 1_555
Cu8 N2_3 1_555 1_555
O10 Cu8 1_555 1_555
O15_2 Cu8 1_555 1_555
O16_2 Cu6 1_555 1_555
N2_3 C45_3 1_555 1_555
N2_3 C46_3 1_555 1_555
O11 C1_3 1_555 1_555
O4_2 C2_3 1_555 1_555
O5_4 C6_3 1_555 1_555
C1_3 C4_3 1_555 1_555
C2_3 C5_3 1_555 1_555
C3_3 H1_3 1_555 1_555
C4_3 C11_3 1_555 1_555
C5_3 C16_3 1_555 1_555
C6_3 C3_3 1_555 1_555
C7_3 C3_3 1_555 1_555
C8_3 C7_3 1_555 1_555
C10_3 C6_3 1_555 1_555
C13_3 C15_3 1_555 1_555
C15_3 C10_3 1_555 1_555
C17_3 C4_3 1_555 1_555
H11_3 C17_3 1_555 1_555
C18_3 C8_3 1_555 1_555
H12_3 C18_3 1_555 1_555
C19_3 C8_3 1_555 1_555
C20_3 C7_3 1_555 1_555
H14_3 C20_3 1_555 1_555
C21_3 C13_3 1_555 1_555
H15_3 C21_3 1_555 1_555
C23_3 C13_3 1_555 1_555
C11_3 C19_3 1_555 1_555
C15_3 C20_3 1_555 1_555
C16_3 C21_3 1_555 1_555
C17_3 C18_3 1_555 1_555
O10 C24_3 1_555 1_555
O12 C24_3 1_555 1_555
O14_2 C25_3 1_555 1_555
O9_2 C25_3 1_555 1_555
C24_3 C27_3 1_555 1_555
C25_3 C28_3 1_555 1_555
C26_3 H18_3 1_555 1_555
C27_3 C33_3 1_555 1_555
C28_3 C36_3 1_555 1_555
C29_3 O5_5 1_555 1_555
C30_3 C26_3 1_555 1_555
C31_3 C30_3 1_555 1_555
C32_3 C29_3 1_555 1_555
C33_3 H20_3 1_555 1_555
C34_3 C35_3 1_555 1_555
C35_3 C32_3 1_555 1_555
C37_3 C27_3 1_555 1_555
H22_3 C37_3 1_555 1_555
C38_3 C31_3 1_555 1_555
H23_3 C38_3 1_555 1_555
C39_3 C31_3 1_555 1_555
H24_3 C39_3 1_555 1_555
C40_3 C30_3 1_555 1_555
H25_3 C40_3 1_555 1_555
C41_3 C34_3 1_555 1_555
H26_3 C41_3 1_555 1_555
C42_3 C28_3 1_555 1_555
H27_3 C42_3 1_555 1_555
C43_3 C34_3 1_555 1_555
H28_3 C43_3 1_555 1_555
C26_3 C29_3 1_555 1_555
C33_3 C39_3 1_555 1_555
C35_3 C40_3 1_555 1_555
C36_3 C41_3 1_555 1_555
C37_3 C38_3 1_555 1_555
C42_3 C43_3 1_555 1_555
N1_4 Cu9 1_555 1_555
C14_4 N1_4 1_555 1_555
H9_4 C14_4 1_555 1_555
O1_4 C1_4 1_555 1_555
O13 C2_4 1_555 1_555
O15_2 C2_4 1_555 1_555
O5_6 C6_4 1_555 1_555
C1_4 C4_4 1_555 1_555
C2_4 C5_4 1_555 1_555
C3_4 H1_4 1_555 1_555
C4_4 C11_4 1_555 1_555
C5_4 C16_4 1_555 1_555
C6_4 C3_4 1_555 1_555
C7_4 C3_4 1_555 1_555
C8_4 C7_4 1_555 1_555
C10_4 C6_4 1_555 1_555
H4_4 C10_4 1_555 1_555
C11_4 H5_4 1_555 1_555
C13_4 C15_4 1_555 1_555
C15_4 C10_4 1_555 1_555
C16_4 H10_4 1_555 1_555
C17_4 C4_4 1_555 1_555
H11_4 C17_4 1_555 1_555
C18_4 C8_4 1_555 1_555
H12_4 C18_4 1_555 1_555
C19_4 C8_4 1_555 1_555
H13_4 C19_4 1_555 1_555
C20_4 C7_4 1_555 1_555
H14_4 C20_4 1_555 1_555
C21_4 C13_4 1_555 1_555
H15_4 C21_4 1_555 1_555
C22_4 C5_4 1_555 1_555
H16_4 C22_4 1_555 1_555
C23_4 C13_4 1_555 1_555
H17_4 C23_4 1_555 1_555
O16_2 C25_4 1_555 1_555
C24_4 C27_4 1_555 1_555
C25_4 C28_4 1_555 1_555
C26_4 H18_4 1_555 1_555
C27_4 C33_4 1_555 1_555
C28_4 C36_4 1_555 1_555
C29_4 O5_6 1_555 1_555
C30_4 C26_4 1_555 1_555
C31_4 C30_4 1_555 1_555
C32_4 C29_4 1_555 1_555
H19_4 C32_4 1_555 1_555
C34_4 C35_4 1_555 1_555
C35_4 C32_4 1_555 1_555
C36_4 H21_4 1_555 1_555
C37_4 C27_4 1_555 1_555
H22_4 C37_4 1_555 1_555
C38_4 C31_4 1_555 1_555
H23_4 C38_4 1_555 1_555
C39_4 C31_4 1_555 1_555
C40_4 C30_4 1_555 1_555
H25_4 C40_4 1_555 1_555
C41_4 C34_4 1_555 1_555
H26_4 C41_4 1_555 1_555
C43_4 C34_4 1_555 1_555
H34_4 C46_4 1_555 1_555
Cu10 N2_4 1_555 1_555
C11_4 C19_4 1_555 1_555
C15_4 C20_4 1_555 1_555
C16_4 C21_4 1_555 1_555
C17_4 C18_4 1_555 1_555
C22_4 C23_4 1_555 1_555
C26_4 C29_4 1_555 1_555
C33_4 C39_4 1_555 1_555
C35_4 C40_4 1_555 1_555
C36_4 C41_4 1_555 1_555
C37_4 C38_4 1_555 1_555
N2_4 C46_4 1_555 1_555
H3_4 C9_4 1_555 1_555
C45_4 C9_4 1_555 1_555
H31_4 C45_4 1_555 1_555
H6_4 C12_4 1_555 1_555
C44_4 C12_4 1_555 1_555
H30_4 C44_4 1_555 1_555
H27_4 C42_4 1_555 1_555

#END
