
###############################################################################
#
# This file contains modified crystal structure data generated from the
# MOF subset of the Cambridge Structural Database (CSD) v543 
# hosted by the Cambridge Crystallographic Data Centre (CCDC).
#
# This work is licensed under the Creative Commons
# Attribution-NonCommercial-ShareAlike 4.0 International License.
# To view a copy of this license, visit
# http://creativecommons.org/licenses/by-nc-sa/4.0/
# or send a letter to
# Creative Commons, PO Box 1866, Mountain View, CA 94042, USA.
#
# CIF created using the CSD Python API on 29 September 2022
# The structure has been converted into the P1 space group
# The structure has a 3D framework
# The original CSD entry TUGQUK is in the monoclinic crystal system
# The framework has been calculated to contain at least 10.0% void space
# The void calculation uses a probe of radius 1.32A, grid spacing 0.4
#
###############################################################################

data_TUGQUK
_chemical_formula_moiety         '(C184 H136 Cu6 N8 O30)n'
_symmetry_cell_setting           triclinic
_symmetry_space_group_name_H-M   'P 1'
_symmetry_Int_Tables_number      1
_space_group_name_Hall           'P 1'
loop_
_symmetry_equiv_pos_site_id
_symmetry_equiv_pos_as_xyz
1 x,y,z
_cell_length_a                   19.120(3)
_cell_length_b                   23.730(4)
_cell_length_c                   22.493(3)
_cell_angle_alpha                90
_cell_angle_beta                 102.628(11)
_cell_angle_gamma                90
_cell_volume                     9958.6
loop_
_atom_site_label
_atom_site_type_symbol
_atom_site_fract_x
_atom_site_fract_y
_atom_site_fract_z
Cu1 Cu 0.06813(2) 0.48453(2) 0.50256(2)
O1 O 0.03250(8) 0.47108(7) 0.41475(6)
O3 O 0.04336(9) 0.09382(7) 0.01800(7)
N1 N 0.18247(9) 0.47779(7) 0.50124(7)
H3 H 0.045640 0.437241 0.312319
H6 H 0.011146 0.407971 0.212914
C16 C 0.22554(13) 0.50555(13) 0.55477(12)
H7 H 0.219269 0.486022 0.591131
H8 H 0.208752 0.543934 0.556724
C18 C 0.19500(13) 0.50643(14) 0.44643(12)
H10 H 0.178593 0.545140 0.446002
H11 H 0.167737 0.487785 0.410355
C19 C 0.21024(14) 0.42008(11) 0.50009(16)
H12 H 0.184040 0.400807 0.464006
H13 H 0.202637 0.399650 0.535495
C21 C 0.00570(15) 0.20317(11) 0.05272(13)
H15 H 0.054388 0.194803 0.060970
H17 H 0.017142 0.283267 0.083288
N2 N 0.31753(9) 0.47779(7) 0.49876(7)
C44 C 0.27446(13) 0.50555(13) 0.44523(12)
H29 H 0.280731 0.486022 0.408869
H30 H 0.291248 0.543934 0.443276
C45 C 0.30500(13) 0.50643(14) 0.55357(12)
H31 H 0.321407 0.545140 0.553998
H32 H 0.332263 0.487785 0.589645
C46 C 0.28976(14) 0.42008(11) 0.49991(16)
H33 H 0.315960 0.400807 0.535994
H34 H 0.297363 0.399650 0.464505
Cu3 Cu 0.43187(2) 0.48453(2) 0.49744(2)
Cu9 Cu 0.06813(2) 0.01547(2) 0.00256(2)
O10 O 0.07919(9) 0.49978(7) 0.58967(6)
O13 O 0.04336(9) 0.40618(7) 0.51800(7)
O15 O 0.06985(8) 0.56664(7) 0.48894(8)
O2 O 0.92081(9) 0.50022(7) 0.41033(6)
O4 O 0.93015(8) 0.06664(7) 0.01106(8)
O5 O 0.750000 0.43329(9) 0.000000
C1 C 0.97918(13) 0.10310(10) 0.01844(9)
C2 C 0.96858(12) 0.47957(9) 0.38735(9)
C3 C 0.82728(14) 0.42746(10) 0.09657(9)
H1 H 0.806933 0.460715 0.106718
C4 C 0.94779(12) 0.46194(10) 0.32200(9)
C5 C 0.95690(13) 0.16254(10) 0.02851(10)
C6 C 0.80268(14) 0.40358(10) 0.03982(9)
C7 C 0.83192(14) 0.35472(10) 0.02363(10)
C8 C 0.88251(14) 0.40185(10) 0.13865(9)
C9 C 0.90637(14) 0.42493(10) 0.20130(9)
C10 C 0.99782(13) 0.43998(12) 0.29213(10)
C11 C 0.91289(15) 0.27113(10) 0.05110(10)
C12 C 0.91208(14) 0.35238(10) 0.12233(10)
H4 H 0.949673 0.335376 0.149700
C13 C 0.88610(14) 0.32765(10) 0.06515(10)
C14 C 0.87781(14) 0.46607(12) 0.29062(10)
H5 H 0.843752 0.481360 0.309811
C15 C 0.97686(14) 0.42219(12) 0.23254(10)
C17 C 0.88656(15) 0.17753(12) 0.01405(14)
C20 C 0.85720(14) 0.44796(13) 0.23117(10)
H14 H 0.809491 0.451268 0.210832
C22 C 0.86433(16) 0.23079(11) 0.02423(14)
H16 H 0.815919 0.239852 0.012884
C23 C 0.98332(16) 0.25678(11) 0.06511(13)
H19 H 0.684460 0.339666 0.015088
H24 H 0.647421 0.150815 0.003255
Cu6 Cu 0.93187(2) 0.51547(2) 0.49744(2)
O5_2 O 0.750000 0.43329(9) 1.000000
H2 H 0.815540 0.339666 0.984912
H9 H 0.852579 0.150815 0.996745
O6 O 0.46750(8) 0.47108(7) 0.58525(6)
O7 O 0.57919(9) 0.50022(7) 0.58967(6)
O8 O 0.45664(9) 0.09382(7) 0.98200(7)
O9 O 0.56985(8) 0.06664(7) 0.98894(8)
C24 C 0.52082(13) 0.10310(10) 0.98156(9)
C25 C 0.53142(12) 0.47957(9) 0.61265(9)
C26 C 0.67272(14) 0.42746(10) 0.90343(9)
H18 H 0.693067 0.460715 0.893282
C27 C 0.55221(12) 0.46194(10) 0.67800(9)
C28 C 0.54310(13) 0.16254(10) 0.97149(10)
C29 C 0.69732(14) 0.40358(10) 0.96018(9)
C30 C 0.66808(14) 0.35472(10) 0.97637(10)
C31 C 0.61749(14) 0.40185(10) 0.86135(9)
C32 C 0.59363(14) 0.42493(10) 0.79870(9)
C33 C 0.50218(13) 0.43998(12) 0.70787(10)
H20 H 0.454360 0.437241 0.687681
C34 C 0.58711(15) 0.27113(10) 0.94890(10)
C35 C 0.58792(14) 0.35238(10) 0.87767(10)
H21 H 0.550327 0.335376 0.850300
C36 C 0.61390(14) 0.32765(10) 0.93485(10)
C37 C 0.62219(14) 0.46607(12) 0.70938(10)
H22 H 0.656248 0.481360 0.690189
C38 C 0.52314(14) 0.42219(12) 0.76746(10)
H23 H 0.488854 0.407971 0.787086
C39 C 0.61344(15) 0.17753(12) 0.98595(14)
C40 C 0.64280(14) 0.44796(13) 0.76883(10)
H25 H 0.690509 0.451268 0.789168
C41 C 0.49430(15) 0.20317(11) 0.94728(13)
H26 H 0.445612 0.194803 0.939030
C42 C 0.63567(16) 0.23079(11) 0.97577(14)
H27 H 0.684081 0.239852 0.987116
C43 C 0.51668(16) 0.25678(11) 0.93489(13)
H28 H 0.482858 0.283267 0.916712
Cu7 Cu 0.56813(2) 0.51547(2) 0.50256(2)
Cu8 Cu 0.43187(2) 0.01547(2) 0.99744(2)
O11 O 0.42081(9) 0.49978(7) 0.41033(6)
O12 O 0.45664(9) 0.40618(7) 0.48200(7)
O14 O 0.43015(8) 0.56664(7) 0.51106(8)
Cu4 Cu 0.56813(2) 0.98453(2) 0.00256(2)
Cu5 Cu 0.93187(2) 0.98453(2) 0.99744(2)
C16_2 C 0.72554(13) 0.00555(13) 0.05477(12)
H8_2 H 0.708752 0.043934 0.056724
C45_2 C 0.80500(13) 0.00643(14) 0.05357(12)
H31_2 H 0.821407 0.045140 0.053998
O2_2 O 0.42081(9) 0.00022(7) 0.91033(6)
C18_2 C 0.69500(13) 0.00643(14) 0.94643(12)
H10_2 H 0.678593 0.045140 0.946002
O7_2 O 0.07919(9) 0.00022(7) 0.08967(6)
C44_2 C 0.77446(13) 0.00555(13) 0.94523(12)
H30_2 H 0.791248 0.043934 0.943276
N1_2 N 0.68247(9) 0.97779(7) 0.00124(7)
H7_2 H 0.719269 0.986022 0.091131
C19_2 C 0.71024(14) 0.92008(11) 0.00009(16)
H13_2 H 0.702637 0.899650 0.035495
H32_2 H 0.832263 0.987785 0.089645
H33_2 H 0.815960 0.900807 0.035994
O10_2 O 0.57919(9) 0.99978(7) 0.08967(6)
O13_2 O 0.54336(9) 0.90618(7) 0.01800(7)
O1_2 O 0.53250(8) 0.97108(7) 0.91475(6)
O3_2 O 0.54336(9) 0.59382(7) 0.51800(7)
O5_3 O 0.250000 0.93329(9) 0.500000
C1_2 C 0.47918(13) 0.60310(10) 0.51844(9)
C2_2 C 0.46858(12) 0.97957(9) 0.88735(9)
C3_2 C 0.32728(14) 0.92746(10) 0.59657(9)
H1_2 H 0.306933 0.960715 0.606718
C4_2 C 0.44779(12) 0.96194(10) 0.82200(9)
C5_2 C 0.45690(13) 0.66254(10) 0.52851(10)
C6_2 C 0.30268(14) 0.90358(10) 0.53982(9)
C7_2 C 0.33192(14) 0.85472(10) 0.52363(10)
H2_2 H 0.315540 0.839666 0.484912
C8_2 C 0.38251(14) 0.90185(10) 0.63865(9)
C9_2 C 0.40637(14) 0.92493(10) 0.70130(9)
C10_2 C 0.49782(13) 0.93998(12) 0.79213(10)
H3_2 H 0.545640 0.937241 0.812319
C11_2 C 0.41289(15) 0.77113(10) 0.55110(10)
C12_2 C 0.41208(14) 0.85238(10) 0.62233(10)
H4_2 H 0.449673 0.835376 0.649700
C13_2 C 0.38610(14) 0.82765(10) 0.56515(10)
C14_2 C 0.37781(14) 0.96607(12) 0.79062(10)
H5_2 H 0.343752 0.981360 0.809811
C15_2 C 0.47686(14) 0.92219(12) 0.73254(10)
H6_2 H 0.511146 0.907971 0.712914
C17_2 C 0.38656(15) 0.67753(12) 0.51405(14)
H9_2 H 0.352579 0.650815 0.496745
H11_2 H 0.667737 0.987785 0.910355
H12_2 H 0.684040 0.900807 0.964006
C20_2 C 0.35720(14) 0.94796(13) 0.73117(10)
H14_2 H 0.309491 0.951268 0.710832
C21_2 C 0.50570(15) 0.70317(11) 0.55272(13)
H15_2 H 0.554388 0.694803 0.560970
C22_2 C 0.36433(16) 0.73079(11) 0.52423(14)
H16_2 H 0.315919 0.739852 0.512884
C23_2 C 0.48332(16) 0.75678(11) 0.56511(13)
H17_2 H 0.517142 0.783267 0.583288
C24_2 C 0.02082(13) 0.60310(10) 0.48156(9)
C25_2 C 0.03142(12) 0.97957(9) 0.11265(9)
C26_2 C 0.17272(14) 0.92746(10) 0.40343(9)
H18_2 H 0.193067 0.960715 0.393282
C27_2 C 0.05221(12) 0.96194(10) 0.17800(9)
C28_2 C 0.04310(13) 0.66254(10) 0.47149(10)
C29_2 C 0.19732(14) 0.90358(10) 0.46018(9)
C30_2 C 0.16808(14) 0.85472(10) 0.47637(10)
H19_2 H 0.184460 0.839666 0.515088
C31_2 C 0.11749(14) 0.90185(10) 0.36135(9)
C32_2 C 0.09363(14) 0.92493(10) 0.29870(9)
C33_2 C 0.00218(13) 0.93998(12) 0.20787(10)
C34_2 C 0.08711(15) 0.77113(10) 0.44890(10)
C35_2 C 0.08792(14) 0.85238(10) 0.37767(10)
H21_2 H 0.050327 0.835376 0.350300
C36_2 C 0.11390(14) 0.82765(10) 0.43485(10)
C37_2 C 0.12219(14) 0.96607(12) 0.20938(10)
H22_2 H 0.156248 0.981360 0.190189
C38_2 C 0.02314(14) 0.92219(12) 0.26746(10)
C39_2 C 0.11344(15) 0.67753(12) 0.48595(14)
H24_2 H 0.147421 0.650815 0.503255
C40_2 C 0.14280(14) 0.94796(13) 0.26883(10)
H25_2 H 0.190509 0.951268 0.289168
C42_2 C 0.13567(16) 0.73079(11) 0.47577(14)
H27_2 H 0.184081 0.739852 0.487116
C43_2 C 0.01668(16) 0.75678(11) 0.43489(13)
N2_2 N 0.81753(9) 0.97779(7) 0.99876(7)
H29_2 H 0.780731 0.986022 0.908869
C46_2 C 0.78976(14) 0.92008(11) 0.99991(16)
H34_2 H 0.797363 0.899650 0.964505
O6_2 O 0.96750(8) 0.97108(7) 0.08525(6)
O8_2 O 0.95664(9) 0.59382(7) 0.48200(7)
H20_2 H 0.954360 0.937241 0.187681
H23_2 H 0.988854 0.907971 0.287086
C41_2 C 0.99430(15) 0.70317(11) 0.44728(13)
H26_2 H 0.945612 0.694803 0.439030
H28_2 H 0.982858 0.783267 0.416712
O11_2 O 0.92081(9) 0.99978(7) 0.91033(6)
O12_2 O 0.95664(9) 0.90618(7) 0.98200(7)
O5_4 O 0.250000 0.56671(9) 0.000000
H2_3 H 0.184460 0.660334 0.015088
H9_3 H 0.147421 0.849185 0.003255
O6_3 O 0.53250(8) 0.52892(7) 0.41475(6)
O9_2 O 0.43015(8) 0.93336(7) 0.01106(8)
C24_3 C 0.47918(13) 0.89690(10) 0.01844(9)
C25_3 C 0.46858(12) 0.52043(9) 0.38735(9)
C26_3 C 0.32728(14) 0.57254(10) 0.09657(9)
H18_3 H 0.306933 0.539285 0.106718
C27_3 C 0.44779(12) 0.53806(10) 0.32200(9)
C28_3 C 0.45690(13) 0.83746(10) 0.02851(10)
C29_3 C 0.30268(14) 0.59642(10) 0.03982(9)
C30_3 C 0.33192(14) 0.64528(10) 0.02363(10)
C31_3 C 0.38251(14) 0.59815(10) 0.13865(9)
C32_3 C 0.40637(14) 0.57507(10) 0.20130(9)
C33_3 C 0.49782(13) 0.56002(12) 0.29213(10)
H20_3 H 0.545640 0.562759 0.312319
C34_3 C 0.41289(15) 0.72887(10) 0.05110(10)
C35_3 C 0.41208(14) 0.64762(10) 0.12233(10)
H21_3 H 0.449673 0.664624 0.149700
C36_3 C 0.38610(14) 0.67235(10) 0.06515(10)
C37_3 C 0.37781(14) 0.53393(12) 0.29062(10)
H22_3 H 0.343752 0.518640 0.309811
C38_3 C 0.47686(14) 0.57781(12) 0.23254(10)
H23_3 H 0.511146 0.592029 0.212914
C39_3 C 0.38656(15) 0.82247(12) 0.01405(14)
C40_3 C 0.35720(14) 0.55204(13) 0.23117(10)
H25_3 H 0.309491 0.548732 0.210832
C41_3 C 0.50570(15) 0.79683(11) 0.05272(13)
H26_3 H 0.554388 0.805197 0.060970
C42_3 C 0.36433(16) 0.76921(11) 0.02423(14)
H27_3 H 0.315919 0.760148 0.012884
C43_3 C 0.48332(16) 0.74322(11) 0.06511(13)
H28_3 H 0.517142 0.716733 0.083288
O14_2 O 0.56985(8) 0.43336(7) 0.48894(8)
N3 N 0.68247(9) 0.52221(7) 0.50124(7)
O4_2 O 0.06985(8) 0.93336(7) 0.98894(8)
O5_5 O 0.250000 0.56671(9) 1.000000
C1_3 C 0.02082(13) 0.89690(10) 0.98156(9)
C2_3 C 0.03142(12) 0.52043(9) 0.61265(9)
C3_3 C 0.17272(14) 0.57254(10) 0.90343(9)
H1_3 H 0.193067 0.539285 0.893282
C4_3 C 0.05221(12) 0.53806(10) 0.67800(9)
C5_3 C 0.04310(13) 0.83746(10) 0.97149(10)
C6_3 C 0.19732(14) 0.59642(10) 0.96018(9)
C7_3 C 0.16808(14) 0.64528(10) 0.97637(10)
C8_3 C 0.11749(14) 0.59815(10) 0.86135(9)
C9_3 C 0.09363(14) 0.57507(10) 0.79870(9)
C10_3 C 0.00218(13) 0.56002(12) 0.70787(10)
C11_3 C 0.08711(15) 0.72887(10) 0.94890(10)
C12_3 C 0.08792(14) 0.64762(10) 0.87767(10)
H4_3 H 0.050327 0.664624 0.850300
C13_3 C 0.11390(14) 0.67235(10) 0.93485(10)
C14_3 C 0.12219(14) 0.53393(12) 0.70938(10)
H5_3 H 0.156248 0.518640 0.690189
C15_3 C 0.02314(14) 0.57781(12) 0.76746(10)
C17_3 C 0.11344(15) 0.82247(12) 0.98595(14)
C20_3 C 0.14280(14) 0.55204(13) 0.76883(10)
H14_3 H 0.190509 0.548732 0.789168
C22_3 C 0.13567(16) 0.76921(11) 0.97577(14)
H16_3 H 0.184081 0.760148 0.987116
C23_3 C 0.01668(16) 0.74322(11) 0.93489(13)
H19_3 H 0.315540 0.660334 0.984912
H24_3 H 0.352579 0.849185 0.996745
O1_3 O 0.96750(8) 0.52892(7) 0.58525(6)
N1_3 N 0.81753(9) 0.52221(7) 0.49876(7)
H3_3 H 0.954360 0.562759 0.687681
H6_3 H 0.988854 0.592029 0.787086
C16_3 C 0.77446(13) 0.49445(13) 0.44523(12)
H7_3 H 0.780731 0.513978 0.408869
H8_3 H 0.791248 0.456066 0.443276
C18_3 C 0.80500(13) 0.49357(14) 0.55357(12)
H10_3 H 0.821407 0.454860 0.553998
H11_3 H 0.832263 0.512215 0.589645
C19_3 C 0.78976(14) 0.57992(11) 0.49991(16)
H12_3 H 0.815960 0.599193 0.535994
H13_3 H 0.797363 0.600350 0.464505
C21_3 C 0.99430(15) 0.79683(11) 0.94728(13)
H15_3 H 0.945612 0.805197 0.939030
H17_3 H 0.982858 0.716733 0.916712
C44_3 C 0.72554(13) 0.49445(13) 0.55477(12)
H29_3 H 0.719269 0.513978 0.591131
H30_3 H 0.708752 0.456066 0.556724
C45_3 C 0.69500(13) 0.49357(14) 0.44643(12)
H31_3 H 0.678593 0.454860 0.446002
H32_3 H 0.667737 0.512215 0.410355
C46_3 C 0.71024(14) 0.57992(11) 0.50009(16)
H33_3 H 0.684040 0.599193 0.464006
H34_3 H 0.702637 0.600350 0.535495
O15_2 O 0.93015(8) 0.43336(7) 0.51106(8)
N3_2 N 0.18247(9) 0.02221(7) 0.00124(7)
O6_4 O 0.03250(8) 0.02892(7) 0.91475(6)
H20_4 H 0.045640 0.062759 0.812319
H23_4 H 0.011146 0.092029 0.712914
C41_4 C 0.00570(15) 0.29683(11) 0.55272(13)
H26_4 H 0.054388 0.305197 0.560970
H28_4 H 0.017142 0.216733 0.583288
O1_4 O 0.46750(8) 0.02892(7) 0.08525(6)
O5_6 O 0.750000 0.06671(9) 0.500000
C1_4 C 0.52082(13) 0.39690(10) 0.48156(9)
C2_4 C 0.53142(12) 0.02043(9) 0.11265(9)
C3_4 C 0.67272(14) 0.07254(10) 0.40343(9)
H1_4 H 0.693067 0.039285 0.393282
C4_4 C 0.55221(12) 0.03806(10) 0.17800(9)
C5_4 C 0.54310(13) 0.33746(10) 0.47149(10)
C6_4 C 0.69732(14) 0.09642(10) 0.46018(9)
C7_4 C 0.66808(14) 0.14528(10) 0.47637(10)
H2_4 H 0.684460 0.160334 0.515088
C8_4 C 0.61749(14) 0.09815(10) 0.36135(9)
C9_4 C 0.59363(14) 0.07507(10) 0.29870(9)
C10_4 C 0.50218(13) 0.06002(12) 0.20787(10)
H3_4 H 0.454360 0.062759 0.187681
C11_4 C 0.58711(15) 0.22887(10) 0.44890(10)
C12_4 C 0.58792(14) 0.14762(10) 0.37767(10)
H4_4 H 0.550327 0.164624 0.350300
C13_4 C 0.61390(14) 0.17235(10) 0.43485(10)
C14_4 C 0.62219(14) 0.03393(12) 0.20938(10)
H5_4 H 0.656248 0.018640 0.190189
C15_4 C 0.52314(14) 0.07781(12) 0.26746(10)
H6_4 H 0.488854 0.092029 0.287086
C17_4 C 0.61344(15) 0.32247(12) 0.48595(14)
H9_4 H 0.647421 0.349185 0.503255
H11_4 H 0.332263 0.012215 0.089645
H12_4 H 0.315960 0.099193 0.035994
C20_4 C 0.64280(14) 0.05204(13) 0.26883(10)
H14_4 H 0.690509 0.048732 0.289168
C21_4 C 0.49430(15) 0.29683(11) 0.44728(13)
H15_4 H 0.445612 0.305197 0.439030
C22_4 C 0.63567(16) 0.26921(11) 0.47577(14)
H16_4 H 0.684081 0.260148 0.487116
C23_4 C 0.51668(16) 0.24322(11) 0.43489(13)
H17_4 H 0.482858 0.216733 0.416712
C24_4 C 0.97918(13) 0.39690(10) 0.51844(9)
C25_4 C 0.96858(12) 0.02043(9) 0.88735(9)
C26_4 C 0.82728(14) 0.07254(10) 0.59657(9)
H18_4 H 0.806933 0.039285 0.606718
C27_4 C 0.94779(12) 0.03806(10) 0.82200(9)
C28_4 C 0.95690(13) 0.33746(10) 0.52851(10)
C29_4 C 0.80268(14) 0.09642(10) 0.53982(9)
C30_4 C 0.83192(14) 0.14528(10) 0.52363(10)
H19_4 H 0.815540 0.160334 0.484912
C31_4 C 0.88251(14) 0.09815(10) 0.63865(9)
C32_4 C 0.90637(14) 0.07507(10) 0.70130(9)
C33_4 C 0.99782(13) 0.06002(12) 0.79213(10)
C34_4 C 0.91289(15) 0.22887(10) 0.55110(10)
C35_4 C 0.91208(14) 0.14762(10) 0.62233(10)
H21_4 H 0.949673 0.164624 0.649700
C36_4 C 0.88610(14) 0.17235(10) 0.56515(10)
C37_4 C 0.87781(14) 0.03393(12) 0.79062(10)
H22_4 H 0.843752 0.018640 0.809811
C38_4 C 0.97686(14) 0.07781(12) 0.73254(10)
C39_4 C 0.88656(15) 0.32247(12) 0.51405(14)
H24_4 H 0.852579 0.349185 0.496745
C40_4 C 0.85720(14) 0.05204(13) 0.73117(10)
H25_4 H 0.809491 0.048732 0.710832
C42_4 C 0.86433(16) 0.26921(11) 0.52423(14)
H27_4 H 0.815919 0.260148 0.512884
C43_4 C 0.98332(16) 0.24322(11) 0.56511(13)
H29_4 H 0.219269 0.013978 0.091131
C46_4 C 0.21024(14) 0.07992(11) 0.00009(16)
H34_4 H 0.202637 0.100350 0.035495
N1_4 N 0.31753(9) 0.02221(7) 0.99876(7)
H7_4 H 0.280731 0.013978 0.908869
C19_4 C 0.28976(14) 0.07992(11) 0.99991(16)
H13_4 H 0.297363 0.100350 0.964505
H32_4 H 0.167737 0.012215 0.910355
H33_4 H 0.184040 0.099193 0.964006
C18_4 C 0.30500(13) 0.99357(14) 0.05357(12)
H10_4 H 0.321407 0.954860 0.053998
C44_4 C 0.22554(13) 0.99445(13) 0.05477(12)
H30_4 H 0.208752 0.956066 0.056724
C16_4 C 0.27446(13) 0.99445(13) 0.94523(12)
H8_4 H 0.291248 0.956066 0.943276
C45_4 C 0.19500(13) 0.99357(14) 0.94643(12)
H31_4 H 0.178593 0.954860 0.946002
loop_
_geom_bond_atom_site_label_1
_geom_bond_atom_site_label_2
_geom_bond_site_symmetry_1
_geom_bond_site_symmetry_2
Cu1 O1 1_555 1_555
N1 Cu1 1_555 1_555
C16 N1 1_555 1_555
H7 C16 1_555 1_555
H8 C16 1_555 1_555
C18 N1 1_555 1_555
H10 C18 1_555 1_555
H11 C18 1_555 1_555
C19 N1 1_555 1_555
H12 C19 1_555 1_555
H13 C19 1_555 1_555
H15 C21 1_555 1_555
N2 C44 1_555 1_555
C44 C18 1_555 1_555
H29 C44 1_555 1_555
H30 C44 1_555 1_555
C45 C16 1_555 1_555
H31 C45 1_555 1_555
H32 C45 1_555 1_555
C46 C19 1_555 1_555
H33 C46 1_555 1_555
H34 C46 1_555 1_555
Cu3 N2 1_555 1_555
Cu9 O3 1_555 1_555
O10 Cu1 1_555 1_555
O13 Cu1 1_555 1_555
O15 Cu1 1_555 1_555
N2 C45 1_555 1_555
N2 C46 1_555 1_555
O2 C2 1_555 1_555
O4 C1 1_555 1_555
O5 C6 1_555 1_555
C1 C5 1_555 1_555
C2 C4 1_555 1_555
C3 H1 1_555 1_555
C4 C10 1_555 1_555
C5 C17 1_555 1_555
C6 C3 1_555 1_555
C7 C6 1_555 1_555
C8 C3 1_555 1_555
C9 C8 1_555 1_555
C11 C13 1_555 1_555
C12 C8 1_555 1_555
H4 C12 1_555 1_555
C13 C7 1_555 1_555
C14 C4 1_555 1_555
H5 C14 1_555 1_555
C15 C9 1_555 1_555
C20 C9 1_555 1_555
H14 C20 1_555 1_555
C22 C11 1_555 1_555
H16 C22 1_555 1_555
C23 C11 1_555 1_555
O2 Cu6 1_555 1_555
C10 C15 1_555 1_555
C12 C13 1_555 1_555
C14 C20 1_555 1_555
C17 C22 1_555 1_555
O6 C25 1_555 1_555
O7 C25 1_555 1_555
O8 C24 1_555 1_555
O9 C24 1_555 1_555
C24 C28 1_555 1_555
C25 C27 1_555 1_555
C26 H18 1_555 1_555
C27 C33 1_555 1_555
C28 C39 1_555 1_555
C29 O5_2 1_555 1_555
C30 C29 1_555 1_555
C31 C26 1_555 1_555
C32 C31 1_555 1_555
C33 H20 1_555 1_555
C34 C36 1_555 1_555
C35 C31 1_555 1_555
H21 C35 1_555 1_555
C36 C30 1_555 1_555
C37 C27 1_555 1_555
H22 C37 1_555 1_555
C38 C32 1_555 1_555
H23 C38 1_555 1_555
C40 C32 1_555 1_555
H25 C40 1_555 1_555
C41 C28 1_555 1_555
H26 C41 1_555 1_555
C42 C34 1_555 1_555
H27 C42 1_555 1_555
C43 C34 1_555 1_555
H28 C43 1_555 1_555
Cu3 O6 1_555 1_555
Cu7 O7 1_555 1_555
Cu8 O8 1_555 1_555
O11 Cu3 1_555 1_555
O12 Cu3 1_555 1_555
O14 Cu3 1_555 1_555
C26 C29 1_555 1_555
C33 C38 1_555 1_555
C35 C36 1_555 1_555
C37 C40 1_555 1_555
C39 C42 1_555 1_555
C41 C43 1_555 1_555
Cu3 Cu7 1_555 1_555
H8_2 C16_2 1_555 1_555
C45_2 C16_2 1_555 1_555
H31_2 C45_2 1_555 1_555
H10_2 C18_2 1_555 1_555
C44_2 C18_2 1_555 1_555
H30_2 C44_2 1_555 1_555
Cu9 O7_2 1_555 1_555
O2_2 Cu8 1_555 1_555
N1_2 Cu4 1_555 1_555
C19_2 N1_2 1_555 1_555
H13_2 C19_2 1_555 1_555
O10_2 Cu4 1_555 1_555
O13_2 Cu4 1_555 1_555
O1_2 C2_2 1_555 1_555
O3_2 C1_2 1_555 1_555
O14 C1_2 1_555 1_555
O5_3 C6_2 1_555 1_555
C1_2 C5_2 1_555 1_555
C2_2 C4_2 1_555 1_555
C3_2 H1_2 1_555 1_555
C4_2 C10_2 1_555 1_555
C5_2 C17_2 1_555 1_555
C6_2 C3_2 1_555 1_555
C7_2 C6_2 1_555 1_555
H2_2 C7_2 1_555 1_555
C8_2 C3_2 1_555 1_555
C9_2 C8_2 1_555 1_555
C10_2 H3_2 1_555 1_555
C11_2 C13_2 1_555 1_555
C12_2 C8_2 1_555 1_555
H4_2 C12_2 1_555 1_555
C13_2 C7_2 1_555 1_555
C14_2 C4_2 1_555 1_555
H5_2 C14_2 1_555 1_555
C15_2 C9_2 1_555 1_555
H6_2 C15_2 1_555 1_555
C17_2 H9_2 1_555 1_555
C20_2 C9_2 1_555 1_555
H14_2 C20_2 1_555 1_555
C21_2 C5_2 1_555 1_555
H15_2 C21_2 1_555 1_555
C22_2 C11_2 1_555 1_555
H16_2 C22_2 1_555 1_555
C23_2 C11_2 1_555 1_555
H17_2 C23_2 1_555 1_555
O15 C24_2 1_555 1_555
C24_2 C28_2 1_555 1_555
C25_2 C27_2 1_555 1_555
C26_2 H18_2 1_555 1_555
C27_2 C33_2 1_555 1_555
C28_2 C39_2 1_555 1_555
C29_2 O5_3 1_555 1_555
C30_2 C29_2 1_555 1_555
H19_2 C30_2 1_555 1_555
C31_2 C26_2 1_555 1_555
C32_2 C31_2 1_555 1_555
C34_2 C36_2 1_555 1_555
C35_2 C31_2 1_555 1_555
H21_2 C35_2 1_555 1_555
C36_2 C30_2 1_555 1_555
C37_2 C27_2 1_555 1_555
H22_2 C37_2 1_555 1_555
C38_2 C32_2 1_555 1_555
C39_2 H24_2 1_555 1_555
C40_2 C32_2 1_555 1_555
H25_2 C40_2 1_555 1_555
C42_2 C34_2 1_555 1_555
H27_2 C42_2 1_555 1_555
C43_2 C34_2 1_555 1_555
H34_2 C46_2 1_555 1_555
Cu5 N2_2 1_555 1_555
Cu7 O3_2 1_555 1_555
C10_2 C15_2 1_555 1_555
C12_2 C13_2 1_555 1_555
C14_2 C20_2 1_555 1_555
C17_2 C22_2 1_555 1_555
C21_2 C23_2 1_555 1_555
C26_2 C29_2 1_555 1_555
C33_2 C38_2 1_555 1_555
C35_2 C36_2 1_555 1_555
C37_2 C40_2 1_555 1_555
C39_2 C42_2 1_555 1_555
N2_2 C46_2 1_555 1_555
H26_2 C41_2 1_555 1_555
Cu6 O8_2 1_555 1_555
O11_2 Cu5 1_555 1_555
O12_2 Cu5 1_555 1_555
O6_3 C25_3 1_555 1_555
O11 C25_3 1_555 1_555
O13_2 C24_3 1_555 1_555
O9_2 C24_3 1_555 1_555
C24_3 C28_3 1_555 1_555
C25_3 C27_3 1_555 1_555
C26_3 H18_3 1_555 1_555
C27_3 C33_3 1_555 1_555
C28_3 C39_3 1_555 1_555
C29_3 O5_4 1_555 1_555
C30_3 C29_3 1_555 1_555
C31_3 C26_3 1_555 1_555
C32_3 C31_3 1_555 1_555
C33_3 H20_3 1_555 1_555
C34_3 C36_3 1_555 1_555
C35_3 C31_3 1_555 1_555
H21_3 C35_3 1_555 1_555
C36_3 C30_3 1_555 1_555
C37_3 C27_3 1_555 1_555
H22_3 C37_3 1_555 1_555
C38_3 C32_3 1_555 1_555
H23_3 C38_3 1_555 1_555
C40_3 C32_3 1_555 1_555
H25_3 C40_3 1_555 1_555
C41_3 C28_3 1_555 1_555
H26_3 C41_3 1_555 1_555
C42_3 C34_3 1_555 1_555
H27_3 C42_3 1_555 1_555
C43_3 C34_3 1_555 1_555
H28_3 C43_3 1_555 1_555
Cu7 O6_3 1_555 1_555
O14_2 Cu7 1_555 1_555
N3 Cu7 1_555 1_555
C26_3 C29_3 1_555 1_555
C33_3 C38_3 1_555 1_555
C35_3 C36_3 1_555 1_555
C37_3 C40_3 1_555 1_555
C39_3 C42_3 1_555 1_555
C41_3 C43_3 1_555 1_555
O10 C2_3 1_555 1_555
O4_2 C1_3 1_555 1_555
O5_5 C6_3 1_555 1_555
C1_3 C5_3 1_555 1_555
C2_3 C4_3 1_555 1_555
C3_3 H1_3 1_555 1_555
C4_3 C10_3 1_555 1_555
C5_3 C17_3 1_555 1_555
C6_3 C3_3 1_555 1_555
C7_3 C6_3 1_555 1_555
C8_3 C3_3 1_555 1_555
C9_3 C8_3 1_555 1_555
C11_3 C13_3 1_555 1_555
C12_3 C8_3 1_555 1_555
H4_3 C12_3 1_555 1_555
C13_3 C7_3 1_555 1_555
C14_3 C4_3 1_555 1_555
H5_3 C14_3 1_555 1_555
C15_3 C9_3 1_555 1_555
C20_3 C9_3 1_555 1_555
H14_3 C20_3 1_555 1_555
C22_3 C11_3 1_555 1_555
H16_3 C22_3 1_555 1_555
C23_3 C11_3 1_555 1_555
C10_3 C15_3 1_555 1_555
C12_3 C13_3 1_555 1_555
C14_3 C20_3 1_555 1_555
C17_3 C22_3 1_555 1_555
Cu6 O1_3 1_555 1_555
N1_3 Cu6 1_555 1_555
C16_3 N1_3 1_555 1_555
H7_3 C16_3 1_555 1_555
H8_3 C16_3 1_555 1_555
C18_3 N1_3 1_555 1_555
H10_3 C18_3 1_555 1_555
H11_3 C18_3 1_555 1_555
C19_3 N1_3 1_555 1_555
H12_3 C19_3 1_555 1_555
H13_3 C19_3 1_555 1_555
H15_3 C21_3 1_555 1_555
N3 C44_3 1_555 1_555
C44_3 C18_3 1_555 1_555
H29_3 C44_3 1_555 1_555
H30_3 C44_3 1_555 1_555
C45_3 C16_3 1_555 1_555
H31_3 C45_3 1_555 1_555
H32_3 C45_3 1_555 1_555
C46_3 C19_3 1_555 1_555
H33_3 C46_3 1_555 1_555
H34_3 C46_3 1_555 1_555
O15_2 Cu6 1_555 1_555
N3 C45_3 1_555 1_555
N3 C46_3 1_555 1_555
N3_2 Cu9 1_555 1_555
H26_4 C41_4 1_555 1_555
O1_4 C2_4 1_555 1_555
O12 C1_4 1_555 1_555
O14_2 C1_4 1_555 1_555
O5_6 C6_4 1_555 1_555
C1_4 C5_4 1_555 1_555
C2_4 C4_4 1_555 1_555
C3_4 H1_4 1_555 1_555
C4_4 C10_4 1_555 1_555
C5_4 C17_4 1_555 1_555
C6_4 C3_4 1_555 1_555
C7_4 C6_4 1_555 1_555
H2_4 C7_4 1_555 1_555
C8_4 C3_4 1_555 1_555
C9_4 C8_4 1_555 1_555
C10_4 H3_4 1_555 1_555
C11_4 C13_4 1_555 1_555
C12_4 C8_4 1_555 1_555
H4_4 C12_4 1_555 1_555
C13_4 C7_4 1_555 1_555
C14_4 C4_4 1_555 1_555
H5_4 C14_4 1_555 1_555
C15_4 C9_4 1_555 1_555
H6_4 C15_4 1_555 1_555
C17_4 H9_4 1_555 1_555
C20_4 C9_4 1_555 1_555
H14_4 C20_4 1_555 1_555
C21_4 C5_4 1_555 1_555
H15_4 C21_4 1_555 1_555
C22_4 C11_4 1_555 1_555
H16_4 C22_4 1_555 1_555
C23_4 C11_4 1_555 1_555
H17_4 C23_4 1_555 1_555
O15_2 C24_4 1_555 1_555
C24_4 C28_4 1_555 1_555
C25_4 C27_4 1_555 1_555
C26_4 H18_4 1_555 1_555
C27_4 C33_4 1_555 1_555
C28_4 C39_4 1_555 1_555
C29_4 O5_6 1_555 1_555
C30_4 C29_4 1_555 1_555
H19_4 C30_4 1_555 1_555
C31_4 C26_4 1_555 1_555
C32_4 C31_4 1_555 1_555
C34_4 C36_4 1_555 1_555
C35_4 C31_4 1_555 1_555
H21_4 C35_4 1_555 1_555
C36_4 C30_4 1_555 1_555
C37_4 C27_4 1_555 1_555
H22_4 C37_4 1_555 1_555
C38_4 C32_4 1_555 1_555
C39_4 H24_4 1_555 1_555
C40_4 C32_4 1_555 1_555
H25_4 C40_4 1_555 1_555
C42_4 C34_4 1_555 1_555
H27_4 C42_4 1_555 1_555
C43_4 C34_4 1_555 1_555
H34_4 C46_4 1_555 1_555
C10_4 C15_4 1_555 1_555
C12_4 C13_4 1_555 1_555
C14_4 C20_4 1_555 1_555
C17_4 C22_4 1_555 1_555
C21_4 C23_4 1_555 1_555
C26_4 C29_4 1_555 1_555
C33_4 C38_4 1_555 1_555
C35_4 C36_4 1_555 1_555
C37_4 C40_4 1_555 1_555
C39_4 C42_4 1_555 1_555
N3_2 C46_4 1_555 1_555
N1_4 Cu8 1_555 1_555
C19_4 N1_4 1_555 1_555
H13_4 C19_4 1_555 1_555
H10_4 C18_4 1_555 1_555
C44_4 C18_4 1_555 1_555
H30_4 C44_4 1_555 1_555
H8_4 C16_4 1_555 1_555
C45_4 C16_4 1_555 1_555
H31_4 C45_4 1_555 1_555

#END
