
###############################################################################
#
# This file contains modified crystal structure data generated from the
# MOF subset of the Cambridge Structural Database (CSD) v543 
# hosted by the Cambridge Crystallographic Data Centre (CCDC).
#
# This work is licensed under the Creative Commons
# Attribution-NonCommercial-ShareAlike 4.0 International License.
# To view a copy of this license, visit
# http://creativecommons.org/licenses/by-nc-sa/4.0/
# or send a letter to
# Creative Commons, PO Box 1866, Mountain View, CA 94042, USA.
#
# CIF created using the CSD Python API on 29 September 2022
# The structure has been converted into the P1 space group
# The structure has a 3D framework
# The original CSD entry TUGREV01 is in the monoclinic crystal system
# The framework has been calculated to contain at least 10.0% void space
# The void calculation uses a probe of radius 1.32A, grid spacing 0.4
#
###############################################################################

data_TUGREV01
_chemical_formula_moiety         '(C192 H152 Cu8 N6 O40)n'
_symmetry_cell_setting           triclinic
_symmetry_space_group_name_H-M   'P 1'
_symmetry_Int_Tables_number      1
_space_group_name_Hall           'P 1'
loop_
_symmetry_equiv_pos_site_id
_symmetry_equiv_pos_as_xyz
1 x,y,z
_cell_length_a                   18.9965(11)
_cell_length_b                   21.3362(12)
_cell_length_c                   22.8688(13)
_cell_angle_alpha                90
_cell_angle_beta                 103.120(4)
_cell_angle_gamma                90
_cell_volume                     9027.07
loop_
_atom_site_label
_atom_site_type_symbol
_atom_site_fract_x
_atom_site_fract_y
_atom_site_fract_z
Cu9 Cu 0.06789(2) 0.01593(2) 0.00107(2)
Cu1 Cu 0.06789(2) 0.48407(2) 0.50107(2)
O1 O 0.04185(15) 0.39544(12) 0.50558(12)
O3 O 0.03284(15) 0.01790(14) 0.91325(11)
N1 N 0.18181(15) 0.47557(15) 0.50032(12)
C14 C 0.2089(2) 0.4122(2) 0.4990(3)
H5 H 0.183204 0.391424 0.462627
H6 H 0.200004 0.388954 0.533040
H7 H 0.023278 0.179515 0.552101
H8 H 0.019197 0.039535 0.706555
C17 C 0.0067(2) 0.2692(2) 0.52940(19)
H9 H 0.055266 0.278353 0.532277
C18 C 0.0024(2) 0.0220(2) 0.78804(17)
H10 H 0.050974 0.020577 0.807586
C20 C 0.1949(2) 0.5084(3) 0.4477(2)
H12 H 0.178020 0.551325 0.448031
H13 H 0.167371 0.488372 0.411657
C22 C 0.2248(2) 0.5086(2) 0.5537(2)
H15 H 0.218369 0.487994 0.589905
H16 H 0.207896 0.551440 0.554136
N2 N 0.31819(15) 0.47557(15) 0.49968(12)
C46 C 0.2911(2) 0.4122(2) 0.5010(3)
H33 H 0.316796 0.391424 0.537373
H34 H 0.299996 0.388954 0.466960
C47 C 0.3051(2) 0.5084(3) 0.5523(2)
H35 H 0.321980 0.551325 0.551969
H36 H 0.332629 0.488372 0.588343
C48 C 0.2752(2) 0.5086(2) 0.4463(2)
H37 H 0.281631 0.487994 0.410095
H38 H 0.292104 0.551440 0.445864
Cu3 Cu 0.43211(2) 0.48407(2) 0.49893(2)
O13 O 0.03284(15) 0.48210(14) 0.41325(11)
O15 O 0.08061(15) 0.48837(13) 0.58824(11)
O16 O 0.07267(14) 0.57572(15) 0.49822(13)
O2 O 0.750000 0.01415(17) 0.500000
O5 O 0.92733(14) 0.42428(15) 0.50178(13)
O6 O 0.97328(17) 0.14103(16) 0.65060(13)
C1 C 0.8059(2) 0.04746(18) 0.53635(16)
C2 C 0.8324(2) 0.02438(18) 0.59365(17)
C3 C 0.9555(2) 0.31697(19) 0.51317(18)
C4 C 0.9688(2) 0.00606(18) 0.88653(17)
C5 C 0.9490(2) 0.01254(19) 0.82046(17)
C6 C 0.9766(2) 0.38321(19) 0.50567(16)
C7 C 0.9153(2) 0.1950(2) 0.53642(17)
C8 C 0.8342(2) 0.10048(19) 0.51677(17)
H2 H 0.815486 0.115475 0.478179
C9 C 0.8839(2) 0.3005(2) 0.5065(2)
H3 H 0.848159 0.330484 0.494018
C10 C 0.9115(2) 0.03591(19) 0.69631(16)
C11 C 0.8908(2) 0.13178(19) 0.55460(17)
C12 C 0.8645(2) 0.2405(2) 0.5181(2)
H4 H 0.815823 0.230736 0.513277
C13 C 0.8897(2) 0.05515(19) 0.63242(17)
C15 C 0.9879(2) 0.2101(2) 0.5410(2)
C16 C 0.9831(2) 0.0334(2) 0.72742(17)
C19 C 0.8775(2) 0.0120(2) 0.78950(18)
H11 H 0.841455 0.003464 0.809947
C21 C 0.8588(2) 0.0239(2) 0.72843(18)
H14 H 0.810360 0.023913 0.708532
C23 C 0.9185(2) 0.10854(19) 0.61224(17)
C24 C 0.9458(3) 0.1868(3) 0.6859(2)
H17 H 0.921709 0.219554 0.660134
H18 H 0.985107 0.204308 0.715290
H19 H 0.912207 0.167126 0.705751
O7 O 0.45815(15) 0.39544(12) 0.49442(12)
O8 O 0.46716(15) 0.01790(14) 0.08675(11)
O10 O 0.57267(14) 0.42428(15) 0.49822(13)
O11 O 0.52672(17) 0.14103(16) 0.34940(13)
C25 C 0.6941(2) 0.04746(18) 0.46365(16)
C26 C 0.6676(2) 0.02438(18) 0.40635(17)
C27 C 0.5445(2) 0.31697(19) 0.48683(18)
C28 C 0.5312(2) 0.00606(18) 0.11347(17)
C29 C 0.5510(2) 0.01254(19) 0.17954(17)
C30 C 0.5234(2) 0.38321(19) 0.49433(16)
C31 C 0.5847(2) 0.1950(2) 0.46358(17)
C32 C 0.6658(2) 0.10048(19) 0.48323(17)
H21 H 0.684514 0.115475 0.521821
C33 C 0.6161(2) 0.3005(2) 0.4935(2)
H22 H 0.651841 0.330484 0.505982
C34 C 0.5885(2) 0.03591(19) 0.30369(16)
C35 C 0.6092(2) 0.13178(19) 0.44540(17)
C36 C 0.6355(2) 0.2405(2) 0.4819(2)
H23 H 0.684177 0.230736 0.486723
C37 C 0.6103(2) 0.05515(19) 0.36758(17)
C38 C 0.5121(2) 0.2101(2) 0.4590(2)
H24 H 0.476722 0.179515 0.447899
C39 C 0.5169(2) 0.0334(2) 0.27258(17)
H25 H 0.480803 0.039535 0.293445
C40 C 0.4933(2) 0.2692(2) 0.47060(19)
H26 H 0.444734 0.278353 0.467723
C41 C 0.4976(2) 0.0220(2) 0.21196(17)
H27 H 0.449026 0.020577 0.192414
C42 C 0.6225(2) 0.0120(2) 0.21050(18)
H28 H 0.658545 0.003464 0.190053
C43 C 0.6412(2) 0.0239(2) 0.27157(18)
H29 H 0.689640 0.023913 0.291468
C44 C 0.5815(2) 0.10854(19) 0.38776(17)
C45 C 0.5542(3) 0.1868(3) 0.3141(2)
H30 H 0.578291 0.219554 0.339866
H31 H 0.514893 0.204308 0.284710
H32 H 0.587793 0.167126 0.294249
Cu6 Cu 0.93211(2) 0.51593(2) 0.49893(2)
Cu7 Cu 0.56789(2) 0.51593(2) 0.50107(2)
O12 O 0.46716(15) 0.48210(14) 0.58675(11)
O14 O 0.41939(15) 0.48837(13) 0.41176(11)
O17 O 0.42733(14) 0.57572(15) 0.50178(13)
Cu8 Cu 0.43211(2) 0.01593(2) 0.99893(2)
O4 O 0.91939(15) 0.98837(13) 0.91176(11)
H1 H 0.812252 0.988588 0.606388
O9 O 0.58061(15) 0.98837(13) 0.08824(11)
H20 H 0.687748 0.988588 0.393612
Cu4 Cu 0.56789(2) 0.98407(2) 0.00107(2)
Cu5 Cu 0.93211(2) 0.98407(2) 0.99893(2)
C22_2 C 0.7248(2) 0.0086(2) 0.0537(2)
H16_2 H 0.707896 0.051440 0.054136
C47_2 C 0.8051(2) 0.0084(3) 0.0523(2)
H35_2 H 0.821980 0.051325 0.051969
C20_2 C 0.6949(2) 0.0084(3) 0.9477(2)
H12_2 H 0.678020 0.051325 0.948031
C48_2 C 0.7752(2) 0.0086(2) 0.9463(2)
H38_2 H 0.792104 0.051440 0.945864
O16_2 O 0.57267(14) 0.07572(15) 0.99822(13)
O1_2 O 0.54185(15) 0.89544(12) 0.00558(12)
O2_2 O 0.250000 0.51415(17) 0.000000
O3_2 O 0.53284(15) 0.51790(14) 0.41325(11)
O5_2 O 0.42733(14) 0.92428(15) 0.00178(13)
O6_2 O 0.47328(17) 0.64103(16) 0.15060(13)
N1_2 N 0.68181(15) 0.97557(15) 0.00032(12)
C1_2 C 0.3059(2) 0.54746(18) 0.03635(16)
C2_2 C 0.3324(2) 0.52438(18) 0.09365(17)
H1_2 H 0.312252 0.488588 0.106388
C3_2 C 0.4555(2) 0.81697(19) 0.01317(18)
C4_2 C 0.4688(2) 0.50606(18) 0.38653(17)
C5_2 C 0.4490(2) 0.51254(19) 0.32046(17)
C6_2 C 0.4766(2) 0.88321(19) 0.00567(16)
C7_2 C 0.4153(2) 0.6950(2) 0.03642(17)
C8_2 C 0.3342(2) 0.60048(19) 0.01677(17)
C9_2 C 0.3839(2) 0.8005(2) 0.0065(2)
C10_2 C 0.4115(2) 0.53591(19) 0.19631(16)
C11_2 C 0.3908(2) 0.63178(19) 0.05460(17)
C12_2 C 0.3645(2) 0.7405(2) 0.0181(2)
H4_2 H 0.315823 0.730736 0.013277
C13_2 C 0.3897(2) 0.55515(19) 0.13242(17)
H6_2 H 0.700004 0.888954 0.033040
C15_2 C 0.4879(2) 0.7101(2) 0.0410(2)
H7_2 H 0.523278 0.679515 0.052101
C16_2 C 0.4831(2) 0.5334(2) 0.22742(17)
H8_2 H 0.519197 0.539535 0.206555
C17_2 C 0.5067(2) 0.7692(2) 0.02940(19)
H9_2 H 0.555266 0.778353 0.032277
C18_2 C 0.5024(2) 0.5220(2) 0.28804(17)
H10_2 H 0.550974 0.520577 0.307586
C19_2 C 0.3775(2) 0.5120(2) 0.28950(18)
H11_2 H 0.341455 0.503464 0.309947
C21_2 C 0.3588(2) 0.5239(2) 0.22843(18)
H14_2 H 0.310360 0.523913 0.208532
H15_2 H 0.718369 0.987994 0.089905
C23_2 C 0.4185(2) 0.60854(19) 0.11224(17)
C24_2 C 0.4458(3) 0.6868(3) 0.1859(2)
H17_2 H 0.421709 0.719554 0.160134
H18_2 H 0.485107 0.704308 0.215290
H19_2 H 0.412207 0.667126 0.205751
H21_2 H 0.184514 0.615475 0.021821
H22_2 H 0.151841 0.830484 0.005982
C46_2 C 0.7911(2) 0.9122(2) 0.0010(3)
H33_2 H 0.816796 0.891424 0.037373
H36_2 H 0.832629 0.988372 0.088343
O2_3 O 0.250000 0.51415(17) 1.000000
H2_2 H 0.315486 0.615475 0.978179
H3_2 H 0.348159 0.830484 0.994018
C14_2 C 0.7089(2) 0.9122(2) 0.9990(3)
H5_2 H 0.683204 0.891424 0.962627
H13_2 H 0.667371 0.988372 0.911657
O10_2 O 0.07267(14) 0.92428(15) 0.99822(13)
O11_2 O 0.02672(17) 0.64103(16) 0.84940(13)
C25_2 C 0.1941(2) 0.54746(18) 0.96365(16)
C26_2 C 0.1676(2) 0.52438(18) 0.90635(17)
H20_2 H 0.187748 0.488588 0.893612
C27_2 C 0.0445(2) 0.81697(19) 0.98683(18)
C28_2 C 0.0312(2) 0.50606(18) 0.61347(17)
C29_2 C 0.0510(2) 0.51254(19) 0.67954(17)
C30_2 C 0.0234(2) 0.88321(19) 0.99433(16)
C31_2 C 0.0847(2) 0.6950(2) 0.96358(17)
C32_2 C 0.1658(2) 0.60048(19) 0.98323(17)
C33_2 C 0.1161(2) 0.8005(2) 0.9935(2)
C34_2 C 0.0885(2) 0.53591(19) 0.80369(16)
C35_2 C 0.1092(2) 0.63178(19) 0.94540(17)
C36_2 C 0.1355(2) 0.7405(2) 0.9819(2)
H23_2 H 0.184177 0.730736 0.986723
C37_2 C 0.1103(2) 0.55515(19) 0.86758(17)
C38_2 C 0.0121(2) 0.7101(2) 0.9590(2)
C39_2 C 0.0169(2) 0.5334(2) 0.77258(17)
C42_2 C 0.1225(2) 0.5120(2) 0.71050(18)
H28_2 H 0.158545 0.503464 0.690053
C43_2 C 0.1412(2) 0.5239(2) 0.77157(18)
H29_2 H 0.189640 0.523913 0.791468
C44_2 C 0.0815(2) 0.60854(19) 0.88776(17)
C45_2 C 0.0542(3) 0.6868(3) 0.8141(2)
H30_2 H 0.078291 0.719554 0.839866
H31_2 H 0.014893 0.704308 0.784710
H32_2 H 0.087793 0.667126 0.794249
N2_2 N 0.81819(15) 0.97557(15) 0.99968(12)
H34_2 H 0.799996 0.888954 0.966960
H37_2 H 0.781631 0.987994 0.910095
O13_2 O 0.53284(15) 0.98210(14) 0.91325(11)
O17_2 O 0.92733(14) 0.07572(15) 0.00178(13)
O12_2 O 0.96716(15) 0.98210(14) 0.08675(11)
O7_2 O 0.95815(15) 0.89544(12) 0.99442(12)
O8_2 O 0.96716(15) 0.51790(14) 0.58675(11)
H24_2 H 0.976722 0.679515 0.947899
H25_2 H 0.980803 0.539535 0.793445
C40_2 C 0.9933(2) 0.7692(2) 0.97060(19)
H26_2 H 0.944734 0.778353 0.967723
C41_2 C 0.9976(2) 0.5220(2) 0.71196(17)
H27_2 H 0.949026 0.520577 0.692414
O4_2 O 0.08061(15) 0.01163(13) 0.08824(11)
H1_3 H 0.187748 0.011412 0.393612
O9_2 O 0.41939(15) 0.01163(13) 0.91176(11)
H20_3 H 0.312252 0.011412 0.606388
O2_4 O 0.250000 0.98585(17) 0.500000
O6_3 O 0.02672(17) 0.85897(16) 0.34940(13)
C1_3 C 0.1941(2) 0.95254(18) 0.46365(16)
C2_3 C 0.1676(2) 0.97562(18) 0.40635(17)
C3_3 C 0.0445(2) 0.68303(19) 0.48683(18)
C4_3 C 0.0312(2) 0.99394(18) 0.11347(17)
C5_3 C 0.0510(2) 0.98746(19) 0.17954(17)
C6_3 C 0.0234(2) 0.61679(19) 0.49433(16)
C7_3 C 0.0847(2) 0.8050(2) 0.46358(17)
C8_3 C 0.1658(2) 0.89952(19) 0.48323(17)
H2_3 H 0.184514 0.884525 0.521821
C9_3 C 0.1161(2) 0.6995(2) 0.4935(2)
H3_3 H 0.151841 0.669516 0.505982
C10_3 C 0.0885(2) 0.96409(19) 0.30369(16)
C11_3 C 0.1092(2) 0.86822(19) 0.44540(17)
C12_3 C 0.1355(2) 0.7595(2) 0.4819(2)
H4_3 H 0.184177 0.769264 0.486723
C13_3 C 0.1103(2) 0.94485(19) 0.36758(17)
C15_3 C 0.0121(2) 0.7899(2) 0.4590(2)
C16_3 C 0.0169(2) 0.9666(2) 0.27258(17)
C19_3 C 0.1225(2) 0.9880(2) 0.21050(18)
H11_3 H 0.158545 0.996536 0.190053
C21_3 C 0.1412(2) 0.9761(2) 0.27157(18)
H14_3 H 0.189640 0.976087 0.291468
C23_3 C 0.0815(2) 0.89146(19) 0.38776(17)
C24_3 C 0.0542(3) 0.8132(3) 0.3141(2)
H17_3 H 0.078291 0.780446 0.339866
H18_3 H 0.014893 0.795692 0.284710
H19_3 H 0.087793 0.832874 0.294249
O7_3 O 0.54185(15) 0.60456(12) 0.50558(12)
O11_3 O 0.47328(17) 0.85897(16) 0.65060(13)
C25_3 C 0.3059(2) 0.95254(18) 0.53635(16)
C26_3 C 0.3324(2) 0.97562(18) 0.59365(17)
C27_3 C 0.4555(2) 0.68303(19) 0.51317(18)
C28_3 C 0.4688(2) 0.99394(18) 0.88653(17)
C29_3 C 0.4490(2) 0.98746(19) 0.82046(17)
C30_3 C 0.4766(2) 0.61679(19) 0.50567(16)
C31_3 C 0.4153(2) 0.8050(2) 0.53642(17)
C32_3 C 0.3342(2) 0.89952(19) 0.51677(17)
H21_3 H 0.315486 0.884525 0.478179
C33_3 C 0.3839(2) 0.6995(2) 0.5065(2)
H22_3 H 0.348159 0.669516 0.494018
C34_3 C 0.4115(2) 0.96409(19) 0.69631(16)
C35_3 C 0.3908(2) 0.86822(19) 0.55460(17)
C36_3 C 0.3645(2) 0.7595(2) 0.5181(2)
H23_3 H 0.315823 0.769264 0.513277
C37_3 C 0.3897(2) 0.94485(19) 0.63242(17)
C38_3 C 0.4879(2) 0.7899(2) 0.5410(2)
H24_3 H 0.523278 0.820485 0.552101
C39_3 C 0.4831(2) 0.9666(2) 0.72742(17)
H25_3 H 0.519197 0.960465 0.706555
C40_3 C 0.5067(2) 0.7308(2) 0.52940(19)
H26_3 H 0.555266 0.721647 0.532277
C41_3 C 0.5024(2) 0.9780(2) 0.78804(17)
H27_3 H 0.550974 0.979423 0.807586
C42_3 C 0.3775(2) 0.9880(2) 0.78950(18)
H28_3 H 0.341455 0.996536 0.809947
C43_3 C 0.3588(2) 0.9761(2) 0.72843(18)
H29_3 H 0.310360 0.976087 0.708532
C44_3 C 0.4185(2) 0.89146(19) 0.61224(17)
C45_3 C 0.4458(3) 0.8132(3) 0.6859(2)
H30_3 H 0.421709 0.780446 0.660134
H31_3 H 0.485107 0.795692 0.715290
H32_3 H 0.412207 0.832874 0.705751
O14_2 O 0.58061(15) 0.51163(13) 0.58824(11)
N3 N 0.68181(15) 0.52443(15) 0.50032(12)
O1_3 O 0.95815(15) 0.60456(12) 0.49442(12)
N1_3 N 0.81819(15) 0.52443(15) 0.49968(12)
C14_3 C 0.7911(2) 0.5878(2) 0.5010(3)
H5_3 H 0.816796 0.608576 0.537373
H6_3 H 0.799996 0.611046 0.466960
H7_3 H 0.976722 0.820485 0.447899
H8_3 H 0.980803 0.960465 0.293445
C17_3 C 0.9933(2) 0.7308(2) 0.47060(19)
H9_3 H 0.944734 0.721647 0.467723
C18_3 C 0.9976(2) 0.9780(2) 0.21196(17)
H10_3 H 0.949026 0.979423 0.192414
C20_3 C 0.8051(2) 0.4916(3) 0.5523(2)
H12_3 H 0.821980 0.448675 0.551969
H13_3 H 0.832629 0.511628 0.588343
C22_3 C 0.7752(2) 0.4914(2) 0.4463(2)
H15_3 H 0.781631 0.512006 0.410095
H16_3 H 0.792104 0.448560 0.445864
C46_3 C 0.7089(2) 0.5878(2) 0.4990(3)
H33_3 H 0.683204 0.608576 0.462627
H34_3 H 0.700004 0.611046 0.533040
C47_3 C 0.6949(2) 0.4916(3) 0.4477(2)
H35_3 H 0.678020 0.448675 0.448031
H36_3 H 0.667371 0.511628 0.411657
C48_3 C 0.7248(2) 0.4914(2) 0.5537(2)
H37_3 H 0.718369 0.512006 0.589905
H38_3 H 0.707896 0.448560 0.554136
O15_2 O 0.91939(15) 0.51163(13) 0.41176(11)
O7_4 O 0.04185(15) 0.10456(12) 0.00558(12)
H24_4 H 0.023278 0.320485 0.052101
H25_4 H 0.019197 0.460465 0.206555
C40_4 C 0.0067(2) 0.2308(2) 0.02940(19)
H26_4 H 0.055266 0.221647 0.032277
C41_4 C 0.0024(2) 0.4780(2) 0.28804(17)
H27_4 H 0.050974 0.479423 0.307586
N3_2 N 0.18181(15) 0.02443(15) 0.00032(12)
O2_5 O 0.750000 0.48585(17) -0.000000
H2_4 H 0.684514 0.384525 0.021821
H3_4 H 0.651841 0.169516 0.005982
C14_4 C 0.2911(2) 0.0878(2) 0.0010(3)
H5_4 H 0.316796 0.108576 0.037373
H13_4 H 0.332629 0.011628 0.088343
O11_4 O 0.97328(17) 0.35897(16) 0.15060(13)
C25_4 C 0.8059(2) 0.45254(18) 0.03635(16)
C26_4 C 0.8324(2) 0.47562(18) 0.09365(17)
H20_4 H 0.812252 0.511412 0.106388
C27_4 C 0.9555(2) 0.18303(19) 0.01317(18)
C28_4 C 0.9688(2) 0.49394(18) 0.38653(17)
C29_4 C 0.9490(2) 0.48746(19) 0.32046(17)
C30_4 C 0.9766(2) 0.11679(19) 0.00567(16)
C31_4 C 0.9153(2) 0.3050(2) 0.03642(17)
C32_4 C 0.8342(2) 0.39952(19) 0.01677(17)
C33_4 C 0.8839(2) 0.1995(2) 0.0065(2)
C34_4 C 0.9115(2) 0.46409(19) 0.19631(16)
C35_4 C 0.8908(2) 0.36822(19) 0.05460(17)
C36_4 C 0.8645(2) 0.2595(2) 0.0181(2)
H23_4 H 0.815823 0.269264 0.013277
C37_4 C 0.8897(2) 0.44485(19) 0.13242(17)
C38_4 C 0.9879(2) 0.2899(2) 0.0410(2)
C39_4 C 0.9831(2) 0.4666(2) 0.22742(17)
C42_4 C 0.8775(2) 0.4880(2) 0.28950(18)
H28_4 H 0.841455 0.496536 0.309947
C43_4 C 0.8588(2) 0.4761(2) 0.22843(18)
H29_4 H 0.810360 0.476087 0.208532
C44_4 C 0.9185(2) 0.39146(19) 0.11224(17)
C45_4 C 0.9458(3) 0.3132(3) 0.1859(2)
H30_4 H 0.921709 0.280446 0.160134
H31_4 H 0.985107 0.295692 0.215290
H32_4 H 0.912207 0.332874 0.205751
H34_4 H 0.200004 0.111046 0.033040
H37_4 H 0.218369 0.012006 0.089905
O1_4 O 0.45815(15) 0.10456(12) 0.99442(12)
O2_6 O 0.750000 0.48585(17) 1.000000
O6_4 O 0.52672(17) 0.35897(16) 0.84940(13)
N1_4 N 0.31819(15) 0.02443(15) 0.99968(12)
C1_4 C 0.6941(2) 0.45254(18) 0.96365(16)
C2_4 C 0.6676(2) 0.47562(18) 0.90635(17)
H1_4 H 0.687748 0.511412 0.893612
C3_4 C 0.5445(2) 0.18303(19) 0.98683(18)
C4_4 C 0.5312(2) 0.49394(18) 0.61347(17)
C5_4 C 0.5510(2) 0.48746(19) 0.67954(17)
C6_4 C 0.5234(2) 0.11679(19) 0.99433(16)
C7_4 C 0.5847(2) 0.3050(2) 0.96358(17)
C8_4 C 0.6658(2) 0.39952(19) 0.98323(17)
C9_4 C 0.6161(2) 0.1995(2) 0.9935(2)
C10_4 C 0.5885(2) 0.46409(19) 0.80369(16)
C11_4 C 0.6092(2) 0.36822(19) 0.94540(17)
C12_4 C 0.6355(2) 0.2595(2) 0.9819(2)
H4_4 H 0.684177 0.269264 0.986723
C13_4 C 0.6103(2) 0.44485(19) 0.86758(17)
H6_4 H 0.299996 0.111046 0.966960
C15_4 C 0.5121(2) 0.2899(2) 0.9590(2)
H7_4 H 0.476722 0.320485 0.947899
C16_4 C 0.5169(2) 0.4666(2) 0.77258(17)
H8_4 H 0.480803 0.460465 0.793445
C17_4 C 0.4933(2) 0.2308(2) 0.97060(19)
H9_4 H 0.444734 0.221647 0.967723
C18_4 C 0.4976(2) 0.4780(2) 0.71196(17)
H10_4 H 0.449026 0.479423 0.692414
C19_4 C 0.6225(2) 0.4880(2) 0.71050(18)
H11_4 H 0.658545 0.496536 0.690053
C21_4 C 0.6412(2) 0.4761(2) 0.77157(18)
H14_4 H 0.689640 0.476087 0.791468
H15_4 H 0.281631 0.012006 0.910095
C23_4 C 0.5815(2) 0.39146(19) 0.88776(17)
C24_4 C 0.5542(3) 0.3132(3) 0.8141(2)
H17_4 H 0.578291 0.280446 0.839866
H18_4 H 0.514893 0.295692 0.784710
H19_4 H 0.587793 0.332874 0.794249
H21_4 H 0.815486 0.384525 0.978179
H22_4 H 0.848159 0.169516 0.994018
C46_4 C 0.2089(2) 0.0878(2) 0.9990(3)
H33_4 H 0.183204 0.108576 0.962627
H36_4 H 0.167371 0.011628 0.911657
C20_4 C 0.3051(2) 0.9916(3) 0.0523(2)
H12_4 H 0.321980 0.948675 0.051969
C48_4 C 0.2248(2) 0.9914(2) 0.0537(2)
H38_4 H 0.207896 0.948560 0.054136
C22_4 C 0.2752(2) 0.9914(2) 0.9463(2)
H16_4 H 0.292104 0.948560 0.945864
C47_4 C 0.1949(2) 0.9916(3) 0.9477(2)
H35_4 H 0.178020 0.948675 0.948031
loop_
_geom_bond_atom_site_label_1
_geom_bond_atom_site_label_2
_geom_bond_site_symmetry_1
_geom_bond_site_symmetry_2
Cu1 O1 1_555 1_555
N1 Cu1 1_555 1_555
C14 N1 1_555 1_555
H5 C14 1_555 1_555
H6 C14 1_555 1_555
H9 C17 1_555 1_555
H10 C18 1_555 1_555
C20 N1 1_555 1_555
H12 C20 1_555 1_555
H13 C20 1_555 1_555
C22 N1 1_555 1_555
H15 C22 1_555 1_555
H16 C22 1_555 1_555
N2 C46 1_555 1_555
C46 C14 1_555 1_555
H33 C46 1_555 1_555
H34 C46 1_555 1_555
C47 C22 1_555 1_555
H35 C47 1_555 1_555
H36 C47 1_555 1_555
C48 C20 1_555 1_555
H37 C48 1_555 1_555
H38 C48 1_555 1_555
Cu3 N2 1_555 1_555
O13 Cu1 1_555 1_555
O15 Cu1 1_555 1_555
O16 Cu1 1_555 1_555
N2 C47 1_555 1_555
N2 C48 1_555 1_555
O2 C1 1_555 1_555
O5 C6 1_555 1_555
O6 C23 1_555 1_555
C1 C2 1_555 1_555
C3 C6 1_555 1_555
C4 C5 1_555 1_555
C7 C11 1_555 1_555
C8 C1 1_555 1_555
H2 C8 1_555 1_555
C9 C3 1_555 1_555
H3 C9 1_555 1_555
C10 C13 1_555 1_555
C11 C8 1_555 1_555
C12 C7 1_555 1_555
H4 C12 1_555 1_555
C13 C2 1_555 1_555
C15 C7 1_555 1_555
C16 C10 1_555 1_555
C19 C5 1_555 1_555
H11 C19 1_555 1_555
C21 C10 1_555 1_555
H14 C21 1_555 1_555
C23 C11 1_555 1_555
C24 O6 1_555 1_555
H17 C24 1_555 1_555
H18 C24 1_555 1_555
H19 C24 1_555 1_555
O7 C30 1_555 1_555
O8 C28 1_555 1_555
O10 C30 1_555 1_555
O11 C44 1_555 1_555
C25 O2 1_555 1_555
C26 C25 1_555 1_555
C27 C30 1_555 1_555
C28 C29 1_555 1_555
C29 C41 1_555 1_555
C31 C35 1_555 1_555
C32 C25 1_555 1_555
H21 C32 1_555 1_555
C33 C27 1_555 1_555
H22 C33 1_555 1_555
C34 C37 1_555 1_555
C35 C32 1_555 1_555
C36 C31 1_555 1_555
H23 C36 1_555 1_555
C37 C26 1_555 1_555
C38 C31 1_555 1_555
H24 C38 1_555 1_555
C39 C34 1_555 1_555
H25 C39 1_555 1_555
C40 C27 1_555 1_555
H26 C40 1_555 1_555
C41 C39 1_555 1_555
H27 C41 1_555 1_555
C42 C29 1_555 1_555
H28 C42 1_555 1_555
C43 C34 1_555 1_555
H29 C43 1_555 1_555
C44 C35 1_555 1_555
C45 O11 1_555 1_555
H30 C45 1_555 1_555
H31 C45 1_555 1_555
H32 C45 1_555 1_555
Cu3 O7 1_555 1_555
Cu7 O10 1_555 1_555
O12 Cu3 1_555 1_555
O14 Cu3 1_555 1_555
O17 Cu3 1_555 1_555
O5 Cu6 1_555 1_555
C9 C12 1_555 1_555
C13 C23 1_555 1_555
C19 C21 1_555 1_555
C33 C36 1_555 1_555
C37 C44 1_555 1_555
C38 C40 1_555 1_555
C42 C43 1_555 1_555
Cu3 Cu7 1_555 1_555
Cu4 O9 1_555 1_555
Cu5 O4 1_555 1_555
H16_2 C22_2 1_555 1_555
C47_2 C22_2 1_555 1_555
H35_2 C47_2 1_555 1_555
H12_2 C20_2 1_555 1_555
C48_2 C20_2 1_555 1_555
H38_2 C48_2 1_555 1_555
Cu4 O1_2 1_555 1_555
O1_2 C6_2 1_555 1_555
O2_2 C1_2 1_555 1_555
O3_2 C4_2 1_555 1_555
O14 C4_2 1_555 1_555
O5_2 C6_2 1_555 1_555
O6_2 C23_2 1_555 1_555
N1_2 Cu4 1_555 1_555
C1_2 C2_2 1_555 1_555
C2_2 H1_2 1_555 1_555
C3_2 C6_2 1_555 1_555
C4_2 C5_2 1_555 1_555
C5_2 C18_2 1_555 1_555
C7_2 C11_2 1_555 1_555
C8_2 C1_2 1_555 1_555
C9_2 C3_2 1_555 1_555
C10_2 C13_2 1_555 1_555
C11_2 C8_2 1_555 1_555
C12_2 C7_2 1_555 1_555
H4_2 C12_2 1_555 1_555
C13_2 C2_2 1_555 1_555
C15_2 C7_2 1_555 1_555
H7_2 C15_2 1_555 1_555
C16_2 C10_2 1_555 1_555
H8_2 C16_2 1_555 1_555
C17_2 C3_2 1_555 1_555
H9_2 C17_2 1_555 1_555
C18_2 C16_2 1_555 1_555
H10_2 C18_2 1_555 1_555
C19_2 C5_2 1_555 1_555
H11_2 C19_2 1_555 1_555
C21_2 C10_2 1_555 1_555
H14_2 C21_2 1_555 1_555
C23_2 C11_2 1_555 1_555
C24_2 O6_2 1_555 1_555
H17_2 C24_2 1_555 1_555
H18_2 C24_2 1_555 1_555
H19_2 C24_2 1_555 1_555
H33_2 C46_2 1_555 1_555
Cu7 O3_2 1_555 1_555
C9_2 C12_2 1_555 1_555
C13_2 C23_2 1_555 1_555
C15_2 C17_2 1_555 1_555
C19_2 C21_2 1_555 1_555
H5_2 C14_2 1_555 1_555
O15 C28_2 1_555 1_555
O10_2 C30_2 1_555 1_555
O11_2 C44_2 1_555 1_555
C25_2 O2_3 1_555 1_555
C26_2 C25_2 1_555 1_555
H20_2 C26_2 1_555 1_555
C27_2 C30_2 1_555 1_555
C28_2 C29_2 1_555 1_555
C31_2 C35_2 1_555 1_555
C32_2 C25_2 1_555 1_555
C33_2 C27_2 1_555 1_555
C34_2 C37_2 1_555 1_555
C35_2 C32_2 1_555 1_555
C36_2 C31_2 1_555 1_555
H23_2 C36_2 1_555 1_555
C37_2 C26_2 1_555 1_555
C38_2 C31_2 1_555 1_555
C39_2 C34_2 1_555 1_555
C42_2 C29_2 1_555 1_555
H28_2 C42_2 1_555 1_555
C43_2 C34_2 1_555 1_555
H29_2 C43_2 1_555 1_555
C44_2 C35_2 1_555 1_555
C45_2 O11_2 1_555 1_555
H30_2 C45_2 1_555 1_555
H31_2 C45_2 1_555 1_555
H32_2 C45_2 1_555 1_555
Cu5 N2_2 1_555 1_555
C33_2 C36_2 1_555 1_555
C37_2 C44_2 1_555 1_555
C42_2 C43_2 1_555 1_555
H26_2 C40_2 1_555 1_555
H27_2 C41_2 1_555 1_555
Cu5 O7_2 1_555 1_555
Cu6 O8_2 1_555 1_555
Cu8 O9_2 1_555 1_555
Cu9 O4_2 1_555 1_555
O2_4 C1_3 1_555 1_555
O16 C6_3 1_555 1_555
O6_3 C23_3 1_555 1_555
C1_3 C2_3 1_555 1_555
C3_3 C6_3 1_555 1_555
C4_3 C5_3 1_555 1_555
C7_3 C11_3 1_555 1_555
C8_3 C1_3 1_555 1_555
H2_3 C8_3 1_555 1_555
C9_3 C3_3 1_555 1_555
H3_3 C9_3 1_555 1_555
C10_3 C13_3 1_555 1_555
C11_3 C8_3 1_555 1_555
C12_3 C7_3 1_555 1_555
H4_3 C12_3 1_555 1_555
C13_3 C2_3 1_555 1_555
C15_3 C7_3 1_555 1_555
C16_3 C10_3 1_555 1_555
C19_3 C5_3 1_555 1_555
H11_3 C19_3 1_555 1_555
C21_3 C10_3 1_555 1_555
H14_3 C21_3 1_555 1_555
C23_3 C11_3 1_555 1_555
C24_3 O6_3 1_555 1_555
H17_3 C24_3 1_555 1_555
H18_3 C24_3 1_555 1_555
H19_3 C24_3 1_555 1_555
O7_3 C30_3 1_555 1_555
O13_2 C28_3 1_555 1_555
O17 C30_3 1_555 1_555
O11_3 C44_3 1_555 1_555
C25_3 O2_4 1_555 1_555
C26_3 C25_3 1_555 1_555
C27_3 C30_3 1_555 1_555
C28_3 C29_3 1_555 1_555
C29_3 C41_3 1_555 1_555
C31_3 C35_3 1_555 1_555
C32_3 C25_3 1_555 1_555
H21_3 C32_3 1_555 1_555
C33_3 C27_3 1_555 1_555
H22_3 C33_3 1_555 1_555
C34_3 C37_3 1_555 1_555
C35_3 C32_3 1_555 1_555
C36_3 C31_3 1_555 1_555
H23_3 C36_3 1_555 1_555
C37_3 C26_3 1_555 1_555
C38_3 C31_3 1_555 1_555
H24_3 C38_3 1_555 1_555
C39_3 C34_3 1_555 1_555
H25_3 C39_3 1_555 1_555
C40_3 C27_3 1_555 1_555
H26_3 C40_3 1_555 1_555
C41_3 C39_3 1_555 1_555
H27_3 C41_3 1_555 1_555
C42_3 C29_3 1_555 1_555
H28_3 C42_3 1_555 1_555
C43_3 C34_3 1_555 1_555
H29_3 C43_3 1_555 1_555
C44_3 C35_3 1_555 1_555
C45_3 O11_3 1_555 1_555
H30_3 C45_3 1_555 1_555
H31_3 C45_3 1_555 1_555
H32_3 C45_3 1_555 1_555
Cu7 O7_3 1_555 1_555
O14_2 Cu7 1_555 1_555
N3 Cu7 1_555 1_555
C9_3 C12_3 1_555 1_555
C13_3 C23_3 1_555 1_555
C19_3 C21_3 1_555 1_555
C33_3 C36_3 1_555 1_555
C37_3 C44_3 1_555 1_555
C38_3 C40_3 1_555 1_555
C42_3 C43_3 1_555 1_555
Cu6 O1_3 1_555 1_555
N1_3 Cu6 1_555 1_555
C14_3 N1_3 1_555 1_555
H5_3 C14_3 1_555 1_555
H6_3 C14_3 1_555 1_555
H9_3 C17_3 1_555 1_555
H10_3 C18_3 1_555 1_555
C20_3 N1_3 1_555 1_555
H12_3 C20_3 1_555 1_555
H13_3 C20_3 1_555 1_555
C22_3 N1_3 1_555 1_555
H15_3 C22_3 1_555 1_555
H16_3 C22_3 1_555 1_555
N3 C46_3 1_555 1_555
C46_3 C14_3 1_555 1_555
H33_3 C46_3 1_555 1_555
H34_3 C46_3 1_555 1_555
C47_3 C22_3 1_555 1_555
H35_3 C47_3 1_555 1_555
H36_3 C47_3 1_555 1_555
C48_3 C20_3 1_555 1_555
H37_3 C48_3 1_555 1_555
H38_3 C48_3 1_555 1_555
O15_2 Cu6 1_555 1_555
N3 C47_3 1_555 1_555
N3 C48_3 1_555 1_555
H26_4 C40_4 1_555 1_555
H27_4 C41_4 1_555 1_555
Cu9 O7_4 1_555 1_555
N3_2 Cu9 1_555 1_555
H5_4 C14_4 1_555 1_555
O15_2 C28_4 1_555 1_555
O17_2 C30_4 1_555 1_555
O11_4 C44_4 1_555 1_555
C25_4 O2_5 1_555 1_555
C26_4 C25_4 1_555 1_555
H20_4 C26_4 1_555 1_555
C27_4 C30_4 1_555 1_555
C28_4 C29_4 1_555 1_555
C31_4 C35_4 1_555 1_555
C32_4 C25_4 1_555 1_555
C33_4 C27_4 1_555 1_555
C34_4 C37_4 1_555 1_555
C35_4 C32_4 1_555 1_555
C36_4 C31_4 1_555 1_555
H23_4 C36_4 1_555 1_555
C37_4 C26_4 1_555 1_555
C38_4 C31_4 1_555 1_555
C39_4 C34_4 1_555 1_555
C42_4 C29_4 1_555 1_555
H28_4 C42_4 1_555 1_555
C43_4 C34_4 1_555 1_555
H29_4 C43_4 1_555 1_555
C44_4 C35_4 1_555 1_555
C45_4 O11_4 1_555 1_555
H30_4 C45_4 1_555 1_555
H31_4 C45_4 1_555 1_555
H32_4 C45_4 1_555 1_555
C33_4 C36_4 1_555 1_555
C37_4 C44_4 1_555 1_555
C42_4 C43_4 1_555 1_555
Cu8 O1_4 1_555 1_555
O1_4 C6_4 1_555 1_555
O2_6 C1_4 1_555 1_555
O12 C4_4 1_555 1_555
O14_2 C4_4 1_555 1_555
O16_2 C6_4 1_555 1_555
O6_4 C23_4 1_555 1_555
N1_4 Cu8 1_555 1_555
C1_4 C2_4 1_555 1_555
C2_4 H1_4 1_555 1_555
C3_4 C6_4 1_555 1_555
C4_4 C5_4 1_555 1_555
C5_4 C18_4 1_555 1_555
C7_4 C11_4 1_555 1_555
C8_4 C1_4 1_555 1_555
C9_4 C3_4 1_555 1_555
C10_4 C13_4 1_555 1_555
C11_4 C8_4 1_555 1_555
C12_4 C7_4 1_555 1_555
H4_4 C12_4 1_555 1_555
C13_4 C2_4 1_555 1_555
C15_4 C7_4 1_555 1_555
H7_4 C15_4 1_555 1_555
C16_4 C10_4 1_555 1_555
H8_4 C16_4 1_555 1_555
C17_4 C3_4 1_555 1_555
H9_4 C17_4 1_555 1_555
C18_4 C16_4 1_555 1_555
H10_4 C18_4 1_555 1_555
C19_4 C5_4 1_555 1_555
H11_4 C19_4 1_555 1_555
C21_4 C10_4 1_555 1_555
H14_4 C21_4 1_555 1_555
C23_4 C11_4 1_555 1_555
C24_4 O6_4 1_555 1_555
H17_4 C24_4 1_555 1_555
H18_4 C24_4 1_555 1_555
H19_4 C24_4 1_555 1_555
H33_4 C46_4 1_555 1_555
C9_4 C12_4 1_555 1_555
C13_4 C23_4 1_555 1_555
C15_4 C17_4 1_555 1_555
C19_4 C21_4 1_555 1_555
H12_4 C20_4 1_555 1_555
C48_4 C20_4 1_555 1_555
H38_4 C48_4 1_555 1_555
H16_4 C22_4 1_555 1_555
C47_4 C22_4 1_555 1_555
H35_4 C47_4 1_555 1_555

#END
