
###############################################################################
#
# This file contains modified crystal structure data generated from the
# MOF subset of the Cambridge Structural Database (CSD) v543 
# hosted by the Cambridge Crystallographic Data Centre (CCDC).
#
# This work is licensed under the Creative Commons
# Attribution-NonCommercial-ShareAlike 4.0 International License.
# To view a copy of this license, visit
# http://creativecommons.org/licenses/by-nc-sa/4.0/
# or send a letter to
# Creative Commons, PO Box 1866, Mountain View, CA 94042, USA.
#
# CIF created using the CSD Python API on 29 September 2022
# The structure has been converted into the P1 space group
# The structure has a 3D framework
# The original CSD entry TUGREV04 is in the monoclinic crystal system
# The framework has been calculated to contain at least 10.0% void space
# The void calculation uses a probe of radius 1.32A, grid spacing 0.4
#
###############################################################################

data_TUGREV04
_chemical_formula_moiety         '(C192 H152 Cu6 N8 O38)n'
_symmetry_cell_setting           triclinic
_symmetry_space_group_name_H-M   'P 1'
_symmetry_Int_Tables_number      1
_space_group_name_Hall           'P 1'
loop_
_symmetry_equiv_pos_site_id
_symmetry_equiv_pos_as_xyz
1 x,y,z
_cell_length_a                   19.0225(12)
_cell_length_b                   23.2860(14)
_cell_length_c                   22.9826(13)
_cell_angle_alpha                90
_cell_angle_beta                 104.926(4)
_cell_angle_gamma                90
_cell_volume                     9836.83
loop_
_atom_site_label
_atom_site_type_symbol
_atom_site_fract_x
_atom_site_fract_y
_atom_site_fract_z
Cu1 Cu 0.06850(2) 0.01582(2) 0.00365(2)
N1 N 0.18214(9) 0.02369(7) 0.00147(7)
H6 H 0.222242 0.011125 0.090276
C21 C 0.21030(13) 0.08192(10) 0.00172(14)
H13 H 0.206877 0.101359 0.038213
H35 H 0.335587 0.015145 0.088418
H38 H 0.319178 0.102951 0.032344
O13 O 0.04319(9) 0.09541(6) 0.01757(7)
O14 O 0.08400(8) 0.00122(7) 0.08990(6)
O1 O 0.02952(8) 0.02770(7) 0.91663(6)
O2 O 0.04319(9) 0.40459(6) 0.51757(7)
H4 H 0.045766 0.047979 0.814819
H7 H 0.013783 0.077579 0.715997
H8 H 0.164413 0.015145 0.911582
C20 C 0.00640(14) 0.29202(11) 0.54553(11)
H12 H 0.055313 0.299214 0.548622
H14 H 0.180822 0.102951 0.967656
H16 H 0.019680 0.209384 0.570928
N2 N 0.31786(9) 0.02369(7) 0.99853(7)
H34 H 0.277758 0.011125 0.909724
C48 C 0.28970(13) 0.08192(10) 0.99828(14)
H37 H 0.293123 0.101359 0.961787
Cu3 Cu 0.43150(2) 0.01582(2) 0.99635(2)
Cu9 Cu 0.06850(2) 0.48418(2) 0.50365(2)
C14 C 0.22786(12) 0.99342(12) 0.05353(10)
H5 H 0.211953 0.953813 0.053118
C47 C 0.30790(13) 0.99493(13) 0.05299(10)
H36 H 0.326408 0.955993 0.054568
C16 C 0.19210(13) 0.99493(13) 0.94701(10)
H9 H 0.173592 0.955993 0.945432
C46 C 0.27214(12) 0.99342(12) 0.94647(10)
H33 H 0.288047 0.953813 0.946882
O17 O 0.07123(8) 0.93237(7) 0.99131(7)
O4 O 0.92877(8) 0.43237(7) 0.50869(7)
O5 O 0.750000 0.05947(9) 0.500000
O6 O 0.96631(11) 0.17300(9) 0.66689(8)
C1 C 0.96537(12) 0.01889(9) 0.88836(8)
C2 C 0.94393(12) 0.03426(9) 0.82318(8)
C3 C 0.82710(13) 0.06731(10) 0.59819(9)
H1 H 0.805993 0.033924 0.608118
C4 C 0.97850(13) 0.39487(10) 0.51740(8)
C5 C 0.95639(13) 0.33540(10) 0.52833(9)
C6 C 0.88192(13) 0.09389(10) 0.64073(9)
C7 C 0.80320(14) 0.09009(10) 0.54058(9)
C8 C 0.90526(13) 0.07115(10) 0.70327(9)
C9 C 0.87134(13) 0.03603(11) 0.79129(9)
H2 H 0.835483 0.024556 0.809718
C10 C 0.83387(14) 0.13933(10) 0.52530(9)
H3 H 0.818538 0.153586 0.486272
C11 C 0.99689(13) 0.04975(11) 0.79409(9)
C12 C 0.91344(14) 0.22543(10) 0.55265(10)
C13 C 0.88725(14) 0.16780(10) 0.56739(10)
C15 C 0.97771(13) 0.06770(11) 0.73486(9)
C17 C 0.91180(14) 0.14479(10) 0.62485(9)
C18 C 0.85200(14) 0.05487(11) 0.73195(9)
H10 H 0.803147 0.056650 0.711143
C19 C 0.88427(15) 0.32196(12) 0.52181(12)
H11 H 0.849093 0.350258 0.509402
C22 C 0.86341(15) 0.26786(11) 0.53323(13)
H15 H 0.814234 0.259804 0.527666
C23 C 0.98483(16) 0.23787(11) 0.55828(12)
C24 C 0.9384(2) 0.21280(15) 0.70220(14)
H17 H 0.913589 0.243231 0.676917
H18 H 0.977800 0.228505 0.732949
H19 H 0.905025 0.193536 0.720596
O7 O 0.47048(8) 0.02770(7) 0.08337(6)
O8 O 0.45681(9) 0.40459(6) 0.48243(7)
O10 O 0.57123(8) 0.43237(7) 0.49131(7)
O11 O 0.53369(11) 0.17300(9) 0.33311(8)
C25 C 0.53463(12) 0.01889(9) 0.11164(8)
C26 C 0.55607(12) 0.03426(9) 0.17682(8)
C27 C 0.67290(13) 0.06731(10) 0.40181(9)
H20 H 0.694007 0.033924 0.391882
C28 C 0.52150(13) 0.39487(10) 0.48260(8)
C29 C 0.54361(13) 0.33540(10) 0.47167(9)
C30 C 0.61808(13) 0.09389(10) 0.35927(9)
C31 C 0.69680(14) 0.09009(10) 0.45942(9)
C32 C 0.59474(13) 0.07115(10) 0.29673(9)
C33 C 0.62866(13) 0.03603(11) 0.20871(9)
H21 H 0.664517 0.024556 0.190282
C34 C 0.66613(14) 0.13933(10) 0.47470(9)
H22 H 0.681462 0.153586 0.513728
C35 C 0.50311(13) 0.04975(11) 0.20591(9)
H23 H 0.454234 0.047979 0.185181
C36 C 0.58656(14) 0.22543(10) 0.44735(10)
C37 C 0.61275(14) 0.16780(10) 0.43261(10)
C38 C 0.52229(13) 0.06770(11) 0.26514(9)
H24 H 0.486217 0.077579 0.284003
C39 C 0.58820(14) 0.14479(10) 0.37515(9)
C40 C 0.64800(14) 0.05487(11) 0.26805(9)
H25 H 0.696853 0.056650 0.288857
C41 C 0.61573(15) 0.32196(12) 0.47819(12)
H26 H 0.650907 0.350258 0.490598
C42 C 0.49360(14) 0.29202(11) 0.45447(11)
H27 H 0.444687 0.299214 0.451378
C43 C 0.63659(15) 0.26786(11) 0.46677(13)
H28 H 0.685766 0.259804 0.472334
C44 C 0.51517(16) 0.23787(11) 0.44172(12)
H29 H 0.480320 0.209384 0.429072
C45 C 0.5616(2) 0.21280(15) 0.29780(14)
H30 H 0.586411 0.243231 0.323083
H31 H 0.522200 0.228505 0.267051
H32 H 0.594975 0.193536 0.279404
Cu4 Cu 0.56850(2) 0.51582(2) 0.50365(2)
Cu5 Cu 0.93150(2) 0.51582(2) 0.49635(2)
Cu8 Cu 0.43150(2) 0.48418(2) 0.49635(2)
O12 O 0.45681(9) 0.09541(6) 0.98243(7)
O15 O 0.41600(8) 0.00122(7) 0.91010(6)
O3 O 0.91600(8) 0.99878(7) 0.91010(6)
O9 O 0.58400(8) 0.99878(7) 0.08990(6)
Cu6 Cu 0.93150(2) 0.98418(2) 0.99635(2)
Cu7 Cu 0.56850(2) 0.98418(2) 0.00365(2)
O16 O 0.42877(8) 0.93237(7) 0.00869(7)
O1_2 O 0.52952(8) 0.52770(7) 0.41663(6)
O2_2 O 0.54319(9) 0.90459(6) 0.01757(7)
O3_2 O 0.41600(8) 0.49878(7) 0.41010(6)
O5_2 O 0.250000 0.55947(9) 0.000000
O6_2 O 0.46631(11) 0.67300(9) 0.16689(8)
N1_2 N 0.68214(9) 0.52369(7) 0.50147(7)
C1_2 C 0.46537(12) 0.51889(9) 0.38836(8)
C2_2 C 0.44393(12) 0.53426(9) 0.32318(8)
C3_2 C 0.32710(13) 0.56731(10) 0.09819(9)
H1_2 H 0.305993 0.533924 0.108118
C4_2 C 0.47850(13) 0.89487(10) 0.01740(8)
C5_2 C 0.45639(13) 0.83540(10) 0.02833(9)
C6_2 C 0.38192(13) 0.59389(10) 0.14073(9)
C7_2 C 0.30320(14) 0.59009(10) 0.04058(9)
C8_2 C 0.40526(13) 0.57115(10) 0.20327(9)
C9_2 C 0.37134(13) 0.53603(11) 0.29129(9)
H2_2 H 0.335483 0.524556 0.309718
C10_2 C 0.33387(14) 0.63933(10) 0.02530(9)
C11_2 C 0.49689(13) 0.54975(11) 0.29409(9)
H4_2 H 0.545766 0.547979 0.314819
C12_2 C 0.41344(14) 0.72543(10) 0.05265(10)
C13_2 C 0.38725(14) 0.66780(10) 0.06739(10)
C14_2 C 0.72786(12) 0.49342(12) 0.55353(10)
H5_2 H 0.711953 0.453813 0.553118
H6_2 H 0.722242 0.511125 0.590276
C15_2 C 0.47771(13) 0.56770(11) 0.23486(9)
H7_2 H 0.513783 0.577579 0.215997
C16_2 C 0.69210(13) 0.49493(13) 0.44701(10)
H8_2 H 0.664413 0.515145 0.411582
H9_2 H 0.673592 0.455993 0.445432
C17_2 C 0.41180(14) 0.64479(10) 0.12485(9)
C18_2 C 0.35200(14) 0.55487(11) 0.23195(9)
H10_2 H 0.303147 0.556650 0.211143
C19_2 C 0.38427(15) 0.82196(12) 0.02181(12)
H11_2 H 0.349093 0.850258 0.009402
C20_2 C 0.50640(14) 0.79202(11) 0.04553(11)
H12_2 H 0.555313 0.799214 0.048622
C21_2 C 0.71030(13) 0.58192(10) 0.50172(14)
H13_2 H 0.706877 0.601359 0.538213
H14_2 H 0.680822 0.602951 0.467656
C22_2 C 0.36341(15) 0.76786(11) 0.03323(13)
H15_2 H 0.314234 0.759804 0.027666
C23_2 C 0.48483(16) 0.73787(11) 0.05828(12)
H16_2 H 0.519680 0.709384 0.070928
C24_2 C 0.4384(2) 0.71280(15) 0.20220(14)
H17_2 H 0.413589 0.743231 0.176917
H18_2 H 0.477800 0.728505 0.232949
H19_2 H 0.405025 0.693536 0.220596
H22_2 H 0.181462 0.653586 0.013728
N2_2 N 0.81786(9) 0.52369(7) 0.49853(7)
C46_2 C 0.77214(12) 0.49342(12) 0.44647(10)
H33_2 H 0.788047 0.453813 0.446882
H34_2 H 0.777758 0.511125 0.409724
C47_2 C 0.80790(13) 0.49493(13) 0.55299(10)
H35_2 H 0.835587 0.515145 0.588418
H36_2 H 0.826408 0.455993 0.554568
C48_2 C 0.78970(13) 0.58192(10) 0.49828(14)
H37_2 H 0.793123 0.601359 0.461787
H38_2 H 0.819178 0.602951 0.532344
O13_2 O 0.54319(9) 0.59541(6) 0.51757(7)
O14_2 O 0.58400(8) 0.50122(7) 0.58990(6)
O5_3 O 0.250000 0.55947(9) 1.000000
H3_2 H 0.318538 0.653586 0.986272
O9_2 O 0.08400(8) 0.49878(7) 0.58990(6)
O11_2 O 0.03369(11) 0.67300(9) 0.83311(8)
C25_2 C 0.03463(12) 0.51889(9) 0.61164(8)
C26_2 C 0.05607(12) 0.53426(9) 0.67682(8)
C27_2 C 0.17290(13) 0.56731(10) 0.90181(9)
H20_2 H 0.194007 0.533924 0.891882
C28_2 C 0.02150(13) 0.89487(10) 0.98260(8)
C29_2 C 0.04361(13) 0.83540(10) 0.97167(9)
C30_2 C 0.11808(13) 0.59389(10) 0.85927(9)
C31_2 C 0.19680(14) 0.59009(10) 0.95942(9)
C32_2 C 0.09474(13) 0.57115(10) 0.79673(9)
C33_2 C 0.12866(13) 0.53603(11) 0.70871(9)
H21_2 H 0.164517 0.524556 0.690282
C34_2 C 0.16613(14) 0.63933(10) 0.97470(9)
C35_2 C 0.00311(13) 0.54975(11) 0.70591(9)
C36_2 C 0.08656(14) 0.72543(10) 0.94735(10)
C37_2 C 0.11275(14) 0.66780(10) 0.93261(10)
C38_2 C 0.02229(13) 0.56770(11) 0.76514(9)
C39_2 C 0.08820(14) 0.64479(10) 0.87515(9)
C40_2 C 0.14800(14) 0.55487(11) 0.76805(9)
H25_2 H 0.196853 0.556650 0.788857
C41_2 C 0.11573(15) 0.82196(12) 0.97819(12)
H26_2 H 0.150907 0.850258 0.990598
C43_2 C 0.13659(15) 0.76786(11) 0.96677(13)
H28_2 H 0.185766 0.759804 0.972334
C44_2 C 0.01517(16) 0.73787(11) 0.94172(12)
C45_2 C 0.0616(2) 0.71280(15) 0.79780(14)
H30_2 H 0.086411 0.743231 0.823083
H31_2 H 0.022200 0.728505 0.767051
H32_2 H 0.094975 0.693536 0.779404
O7_2 O 0.97048(8) 0.52770(7) 0.58337(6)
O8_2 O 0.95681(9) 0.90459(6) 0.98243(7)
H23_2 H 0.954234 0.547979 0.685181
H24_2 H 0.986217 0.577579 0.784003
C42_2 C 0.99360(14) 0.79202(11) 0.95447(11)
H27_2 H 0.944687 0.799214 0.951378
H29_2 H 0.980320 0.709384 0.929072
O12_2 O 0.95681(9) 0.59541(6) 0.48243(7)
O15_2 O 0.91600(8) 0.50122(7) 0.41010(6)
O16_2 O 0.57123(8) 0.06763(7) 0.99131(7)
N3 N 0.68214(9) 0.97631(7) 0.00147(7)
O4_2 O 0.07123(8) 0.56763(7) 0.49131(7)
O5_4 O 0.250000 0.94053(9) 0.500000
O6_3 O 0.03369(11) 0.82700(9) 0.33311(8)
C1_3 C 0.03463(12) 0.98111(9) 0.11164(8)
C2_3 C 0.05607(12) 0.96574(9) 0.17682(8)
C3_3 C 0.17290(13) 0.93269(10) 0.40181(9)
H1_3 H 0.194007 0.966076 0.391882
C4_3 C 0.02150(13) 0.60513(10) 0.48260(8)
C5_3 C 0.04361(13) 0.66460(10) 0.47167(9)
C6_3 C 0.11808(13) 0.90611(10) 0.35927(9)
C7_3 C 0.19680(14) 0.90991(10) 0.45942(9)
C8_3 C 0.09474(13) 0.92885(10) 0.29673(9)
C9_3 C 0.12866(13) 0.96397(11) 0.20871(9)
H2_3 H 0.164517 0.975444 0.190282
C10_3 C 0.16613(14) 0.86067(10) 0.47470(9)
H3_3 H 0.181462 0.846414 0.513728
C11_3 C 0.00311(13) 0.95025(11) 0.20591(9)
C12_3 C 0.08656(14) 0.77457(10) 0.44735(10)
C13_3 C 0.11275(14) 0.83220(10) 0.43261(10)
C15_3 C 0.02229(13) 0.93230(11) 0.26514(9)
C17_3 C 0.08820(14) 0.85521(10) 0.37515(9)
C18_3 C 0.14800(14) 0.94513(11) 0.26805(9)
H10_3 H 0.196853 0.943350 0.288857
C19_3 C 0.11573(15) 0.67804(12) 0.47819(12)
H11_3 H 0.150907 0.649742 0.490598
C22_3 C 0.13659(15) 0.73214(11) 0.46677(13)
H15_3 H 0.185766 0.740196 0.472334
C23_3 C 0.01517(16) 0.76213(11) 0.44172(12)
C24_3 C 0.0616(2) 0.78720(15) 0.29780(14)
H17_3 H 0.086411 0.756769 0.323083
H18_3 H 0.022200 0.771495 0.267051
H19_3 H 0.094975 0.806464 0.279404
O7_3 O 0.52952(8) 0.97230(7) 0.91663(6)
O10_2 O 0.42877(8) 0.56763(7) 0.50869(7)
O11_3 O 0.46631(11) 0.82700(9) 0.66689(8)
C25_3 C 0.46537(12) 0.98111(9) 0.88836(8)
C26_3 C 0.44393(12) 0.96574(9) 0.82318(8)
C27_3 C 0.32710(13) 0.93269(10) 0.59819(9)
H20_3 H 0.305993 0.966076 0.608118
C28_3 C 0.47850(13) 0.60513(10) 0.51740(8)
C29_3 C 0.45639(13) 0.66460(10) 0.52833(9)
C30_3 C 0.38192(13) 0.90611(10) 0.64073(9)
C31_3 C 0.30320(14) 0.90991(10) 0.54058(9)
C32_3 C 0.40526(13) 0.92885(10) 0.70327(9)
C33_3 C 0.37134(13) 0.96397(11) 0.79129(9)
H21_3 H 0.335483 0.975444 0.809718
C34_3 C 0.33387(14) 0.86067(10) 0.52530(9)
H22_3 H 0.318538 0.846414 0.486272
C35_3 C 0.49689(13) 0.95025(11) 0.79409(9)
H23_3 H 0.545766 0.952021 0.814819
C36_3 C 0.41344(14) 0.77457(10) 0.55265(10)
C37_3 C 0.38725(14) 0.83220(10) 0.56739(10)
C38_3 C 0.47771(13) 0.93230(11) 0.73486(9)
H24_3 H 0.513783 0.922421 0.715997
C39_3 C 0.41180(14) 0.85521(10) 0.62485(9)
C40_3 C 0.35200(14) 0.94513(11) 0.73195(9)
H25_3 H 0.303147 0.943350 0.711143
C41_3 C 0.38427(15) 0.67804(12) 0.52181(12)
H26_3 H 0.349093 0.649742 0.509402
C42_3 C 0.50640(14) 0.70798(11) 0.54553(11)
H27_3 H 0.555313 0.700786 0.548622
C43_3 C 0.36341(15) 0.73214(11) 0.53323(13)
H28_3 H 0.314234 0.740196 0.527666
C44_3 C 0.48483(16) 0.76213(11) 0.55828(12)
H29_3 H 0.519680 0.790616 0.570928
C45_3 C 0.4384(2) 0.78720(15) 0.70220(14)
H30_3 H 0.413589 0.756769 0.676917
H31_3 H 0.477800 0.771495 0.732949
H32_3 H 0.405025 0.806464 0.720596
C16_3 C 0.80790(13) 0.00507(13) 0.05299(10)
H9_3 H 0.826408 0.044007 0.054568
C46_3 C 0.72786(12) 0.00658(12) 0.05353(10)
H33_3 H 0.711953 0.046187 0.053118
O17_2 O 0.92877(8) 0.06763(7) 0.00869(7)
C14_3 C 0.77214(12) 0.00658(12) 0.94647(10)
H5_3 H 0.788047 0.046187 0.946882
C47_3 C 0.69210(13) 0.00507(13) 0.94701(10)
H36_3 H 0.673592 0.044007 0.945432
O1_3 O 0.97048(8) 0.97230(7) 0.08337(6)
H4_3 H 0.954234 0.952021 0.185181
H7_3 H 0.986217 0.922421 0.284003
H8_3 H 0.835587 0.984855 0.088418
C20_3 C 0.99360(14) 0.70798(11) 0.45447(11)
H12_3 H 0.944687 0.700786 0.451378
H14_3 H 0.819178 0.897049 0.032344
H16_3 H 0.980320 0.790616 0.429072
H34_3 H 0.722242 0.988875 0.090276
C48_3 C 0.71030(13) 0.91808(10) 0.00172(14)
H37_3 H 0.706877 0.898641 0.038213
N1_3 N 0.81786(9) 0.97631(7) 0.99853(7)
H6_3 H 0.777758 0.988875 0.909724
C21_3 C 0.78970(13) 0.91808(10) 0.99828(14)
H13_3 H 0.793123 0.898641 0.961787
H35_3 H 0.664413 0.984855 0.911582
H38_3 H 0.680822 0.897049 0.967656
O7_4 O 0.02952(8) 0.47230(7) 0.41663(6)
H23_4 H 0.045766 0.452021 0.314819
H24_4 H 0.013783 0.422421 0.215997
C42_4 C 0.00640(14) 0.20798(11) 0.04553(11)
H27_4 H 0.055313 0.200786 0.048622
H29_4 H 0.019680 0.290616 0.070928
N3_2 N 0.18214(9) 0.47631(7) 0.50147(7)
O5_5 O 0.750000 0.44053(9) 0.000000
H3_4 H 0.681462 0.346414 0.013728
O11_4 O 0.96631(11) 0.32700(9) 0.16689(8)
C25_4 C 0.96537(12) 0.48111(9) 0.38836(8)
C26_4 C 0.94393(12) 0.46574(9) 0.32318(8)
C27_4 C 0.82710(13) 0.43269(10) 0.09819(9)
H20_4 H 0.805993 0.466076 0.108118
C28_4 C 0.97850(13) 0.10513(10) 0.01740(8)
C29_4 C 0.95639(13) 0.16460(10) 0.02833(9)
C30_4 C 0.88192(13) 0.40611(10) 0.14073(9)
C31_4 C 0.80320(14) 0.40991(10) 0.04058(9)
C32_4 C 0.90526(13) 0.42885(10) 0.20327(9)
C33_4 C 0.87134(13) 0.46397(11) 0.29129(9)
H21_4 H 0.835483 0.475444 0.309718
C34_4 C 0.83387(14) 0.36067(10) 0.02530(9)
C35_4 C 0.99689(13) 0.45025(11) 0.29409(9)
C36_4 C 0.91344(14) 0.27457(10) 0.05265(10)
C37_4 C 0.88725(14) 0.33220(10) 0.06739(10)
C38_4 C 0.97771(13) 0.43230(11) 0.23486(9)
C39_4 C 0.91180(14) 0.35521(10) 0.12485(9)
C40_4 C 0.85200(14) 0.44513(11) 0.23195(9)
H25_4 H 0.803147 0.443350 0.211143
C41_4 C 0.88427(15) 0.17804(12) 0.02181(12)
H26_4 H 0.849093 0.149742 0.009402
C43_4 C 0.86341(15) 0.23214(11) 0.03323(13)
H28_4 H 0.814234 0.240196 0.027666
C44_4 C 0.98483(16) 0.26213(11) 0.05828(12)
C45_4 C 0.9384(2) 0.28720(15) 0.20220(14)
H30_4 H 0.913589 0.256769 0.176917
H31_4 H 0.977800 0.271495 0.232949
H32_4 H 0.905025 0.306464 0.220596
O1_4 O 0.47048(8) 0.47230(7) 0.58337(6)
O5_6 O 0.750000 0.44053(9) 1.000000
O6_4 O 0.53369(11) 0.32700(9) 0.83311(8)
N1_4 N 0.31786(9) 0.47631(7) 0.49853(7)
C1_4 C 0.53463(12) 0.48111(9) 0.61164(8)
C2_4 C 0.55607(12) 0.46574(9) 0.67682(8)
C3_4 C 0.67290(13) 0.43269(10) 0.90181(9)
H1_4 H 0.694007 0.466076 0.891882
C4_4 C 0.52150(13) 0.10513(10) 0.98260(8)
C5_4 C 0.54361(13) 0.16460(10) 0.97167(9)
C6_4 C 0.61808(13) 0.40611(10) 0.85927(9)
C7_4 C 0.69680(14) 0.40991(10) 0.95942(9)
C8_4 C 0.59474(13) 0.42885(10) 0.79673(9)
C9_4 C 0.62866(13) 0.46397(11) 0.70871(9)
H2_4 H 0.664517 0.475444 0.690282
C10_4 C 0.66613(14) 0.36067(10) 0.97470(9)
C11_4 C 0.50311(13) 0.45025(11) 0.70591(9)
H4_4 H 0.454234 0.452021 0.685181
C12_4 C 0.58656(14) 0.27457(10) 0.94735(10)
C13_4 C 0.61275(14) 0.33220(10) 0.93261(10)
C14_4 C 0.27214(12) 0.50658(12) 0.44647(10)
H5_4 H 0.288047 0.546187 0.446882
H6_4 H 0.277758 0.488875 0.409724
C15_4 C 0.52229(13) 0.43230(11) 0.76514(9)
H7_4 H 0.486217 0.422421 0.784003
C16_4 C 0.30790(13) 0.50507(13) 0.55299(10)
H8_4 H 0.335587 0.484855 0.588418
H9_4 H 0.326408 0.544007 0.554568
C17_4 C 0.58820(14) 0.35521(10) 0.87515(9)
C18_4 C 0.64800(14) 0.44513(11) 0.76805(9)
H10_4 H 0.696853 0.443350 0.788857
C19_4 C 0.61573(15) 0.17804(12) 0.97819(12)
H11_4 H 0.650907 0.149742 0.990598
C20_4 C 0.49360(14) 0.20798(11) 0.95447(11)
H12_4 H 0.444687 0.200786 0.951378
C21_4 C 0.28970(13) 0.41808(10) 0.49828(14)
H13_4 H 0.293123 0.398641 0.461787
H14_4 H 0.319178 0.397049 0.532344
C22_4 C 0.63659(15) 0.23214(11) 0.96677(13)
H15_4 H 0.685766 0.240196 0.972334
C23_4 C 0.51517(16) 0.26213(11) 0.94172(12)
H16_4 H 0.480320 0.290616 0.929072
C24_4 C 0.5616(2) 0.28720(15) 0.79780(14)
H17_4 H 0.586411 0.256769 0.823083
H18_4 H 0.522200 0.271495 0.767051
H19_4 H 0.594975 0.306464 0.779404
H22_4 H 0.818538 0.346414 0.986272
C46_4 C 0.22786(12) 0.50658(12) 0.55353(10)
H33_4 H 0.211953 0.546187 0.553118
H34_4 H 0.222242 0.488875 0.590276
C47_4 C 0.19210(13) 0.50507(13) 0.44701(10)
H35_4 H 0.164413 0.484855 0.411582
H36_4 H 0.173592 0.544007 0.445432
C48_4 C 0.21030(13) 0.41808(10) 0.50172(14)
H37_4 H 0.206877 0.398641 0.538213
H38_4 H 0.180822 0.397049 0.467656
loop_
_geom_bond_atom_site_label_1
_geom_bond_atom_site_label_2
_geom_bond_site_symmetry_1
_geom_bond_site_symmetry_2
N1 Cu1 1_555 1_555
C21 N1 1_555 1_555
H13 C21 1_555 1_555
O13 Cu1 1_555 1_555
O14 Cu1 1_555 1_555
H12 C20 1_555 1_555
H37 C48 1_555 1_555
Cu3 N2 1_555 1_555
Cu9 O2 1_555 1_555
N2 C48 1_555 1_555
H5 C14 1_555 1_555
C47 C14 1_555 1_555
H36 C47 1_555 1_555
H9 C16 1_555 1_555
C46 C16 1_555 1_555
H33 C46 1_555 1_555
O4 C4 1_555 1_555
O5 C7 1_555 1_555
O6 C17 1_555 1_555
C1 C2 1_555 1_555
C2 C9 1_555 1_555
C3 H1 1_555 1_555
C4 C5 1_555 1_555
C5 C19 1_555 1_555
C6 C3 1_555 1_555
C7 C3 1_555 1_555
C8 C6 1_555 1_555
C9 H2 1_555 1_555
C10 C7 1_555 1_555
H3 C10 1_555 1_555
C11 C2 1_555 1_555
C12 C13 1_555 1_555
C13 C10 1_555 1_555
C15 C8 1_555 1_555
C17 C6 1_555 1_555
C18 C8 1_555 1_555
H10 C18 1_555 1_555
C19 H11 1_555 1_555
C22 C12 1_555 1_555
H15 C22 1_555 1_555
C23 C12 1_555 1_555
C24 O6 1_555 1_555
H17 C24 1_555 1_555
H18 C24 1_555 1_555
H19 C24 1_555 1_555
O7 C25 1_555 1_555
O8 C28 1_555 1_555
O10 C28 1_555 1_555
O11 C39 1_555 1_555
C25 C26 1_555 1_555
C26 C33 1_555 1_555
C27 H20 1_555 1_555
C28 C29 1_555 1_555
C29 C41 1_555 1_555
C30 C27 1_555 1_555
C31 O5 1_555 1_555
C32 C30 1_555 1_555
C33 H21 1_555 1_555
C34 C31 1_555 1_555
H22 C34 1_555 1_555
C35 C26 1_555 1_555
H23 C35 1_555 1_555
C36 C37 1_555 1_555
C37 C34 1_555 1_555
C38 C32 1_555 1_555
H24 C38 1_555 1_555
C39 C30 1_555 1_555
C40 C32 1_555 1_555
H25 C40 1_555 1_555
C41 H26 1_555 1_555
C42 C29 1_555 1_555
H27 C42 1_555 1_555
C43 C36 1_555 1_555
H28 C43 1_555 1_555
C44 C36 1_555 1_555
H29 C44 1_555 1_555
C45 O11 1_555 1_555
H30 C45 1_555 1_555
H31 C45 1_555 1_555
H32 C45 1_555 1_555
Cu4 O10 1_555 1_555
Cu5 O4 1_555 1_555
Cu8 O8 1_555 1_555
C9 C18 1_555 1_555
C11 C15 1_555 1_555
C13 C17 1_555 1_555
C19 C22 1_555 1_555
C27 C31 1_555 1_555
C33 C40 1_555 1_555
C35 C38 1_555 1_555
C37 C39 1_555 1_555
C41 C43 1_555 1_555
C42 C44 1_555 1_555
Cu4 Cu8 1_555 1_555
O12 Cu3 1_555 1_555
O15 Cu3 1_555 1_555
Cu7 O9 1_555 1_555
O3 Cu6 1_555 1_555
Cu4 O1_2 1_555 1_555
O1_2 C1_2 1_555 1_555
O2_2 C4_2 1_555 1_555
O3_2 C1_2 1_555 1_555
O16 C4_2 1_555 1_555
O5_2 C7_2 1_555 1_555
O6_2 C17_2 1_555 1_555
N1_2 Cu4 1_555 1_555
C1_2 C2_2 1_555 1_555
C2_2 C9_2 1_555 1_555
C3_2 H1_2 1_555 1_555
C4_2 C5_2 1_555 1_555
C5_2 C19_2 1_555 1_555
C6_2 C3_2 1_555 1_555
C7_2 C3_2 1_555 1_555
C8_2 C6_2 1_555 1_555
C9_2 H2_2 1_555 1_555
C10_2 C7_2 1_555 1_555
C11_2 C2_2 1_555 1_555
H4_2 C11_2 1_555 1_555
C12_2 C13_2 1_555 1_555
C13_2 C10_2 1_555 1_555
C14_2 N1_2 1_555 1_555
H5_2 C14_2 1_555 1_555
H6_2 C14_2 1_555 1_555
C15_2 C8_2 1_555 1_555
H7_2 C15_2 1_555 1_555
C16_2 N1_2 1_555 1_555
H8_2 C16_2 1_555 1_555
H9_2 C16_2 1_555 1_555
C17_2 C6_2 1_555 1_555
C18_2 C8_2 1_555 1_555
H10_2 C18_2 1_555 1_555
C19_2 H11_2 1_555 1_555
C20_2 C5_2 1_555 1_555
H12_2 C20_2 1_555 1_555
C21_2 N1_2 1_555 1_555
H13_2 C21_2 1_555 1_555
H14_2 C21_2 1_555 1_555
C22_2 C12_2 1_555 1_555
H15_2 C22_2 1_555 1_555
C23_2 C12_2 1_555 1_555
H16_2 C23_2 1_555 1_555
C24_2 O6_2 1_555 1_555
H17_2 C24_2 1_555 1_555
H18_2 C24_2 1_555 1_555
H19_2 C24_2 1_555 1_555
N2_2 C46_2 1_555 1_555
C46_2 C16_2 1_555 1_555
H33_2 C46_2 1_555 1_555
H34_2 C46_2 1_555 1_555
C47_2 C14_2 1_555 1_555
H35_2 C47_2 1_555 1_555
H36_2 C47_2 1_555 1_555
C48_2 C21_2 1_555 1_555
H37_2 C48_2 1_555 1_555
H38_2 C48_2 1_555 1_555
Cu5 N2_2 1_555 1_555
Cu7 O2_2 1_555 1_555
O13_2 Cu4 1_555 1_555
O14_2 Cu4 1_555 1_555
O3_2 Cu8 1_555 1_555
C9_2 C18_2 1_555 1_555
C11_2 C15_2 1_555 1_555
C13_2 C17_2 1_555 1_555
C19_2 C22_2 1_555 1_555
C20_2 C23_2 1_555 1_555
N2_2 C47_2 1_555 1_555
N2_2 C48_2 1_555 1_555
O9_2 C25_2 1_555 1_555
O17 C28_2 1_555 1_555
O11_2 C39_2 1_555 1_555
C25_2 C26_2 1_555 1_555
C26_2 C33_2 1_555 1_555
C27_2 H20_2 1_555 1_555
C28_2 C29_2 1_555 1_555
C29_2 C41_2 1_555 1_555
C30_2 C27_2 1_555 1_555
C31_2 O5_3 1_555 1_555
C32_2 C30_2 1_555 1_555
C33_2 H21_2 1_555 1_555
C34_2 C31_2 1_555 1_555
C35_2 C26_2 1_555 1_555
C36_2 C37_2 1_555 1_555
C37_2 C34_2 1_555 1_555
C38_2 C32_2 1_555 1_555
C39_2 C30_2 1_555 1_555
C40_2 C32_2 1_555 1_555
H25_2 C40_2 1_555 1_555
C41_2 H26_2 1_555 1_555
C43_2 C36_2 1_555 1_555
H28_2 C43_2 1_555 1_555
C44_2 C36_2 1_555 1_555
C45_2 O11_2 1_555 1_555
H30_2 C45_2 1_555 1_555
H31_2 C45_2 1_555 1_555
H32_2 C45_2 1_555 1_555
Cu9 O9_2 1_555 1_555
C27_2 C31_2 1_555 1_555
C33_2 C40_2 1_555 1_555
C35_2 C38_2 1_555 1_555
C37_2 C39_2 1_555 1_555
C41_2 C43_2 1_555 1_555
H27_2 C42_2 1_555 1_555
Cu5 O7_2 1_555 1_555
Cu6 O8_2 1_555 1_555
O12_2 Cu5 1_555 1_555
O15_2 Cu5 1_555 1_555
N3 Cu7 1_555 1_555
O4_2 C4_3 1_555 1_555
O5_4 C7_3 1_555 1_555
O6_3 C17_3 1_555 1_555
C1_3 C2_3 1_555 1_555
C2_3 C9_3 1_555 1_555
C3_3 H1_3 1_555 1_555
C4_3 C5_3 1_555 1_555
C5_3 C19_3 1_555 1_555
C6_3 C3_3 1_555 1_555
C7_3 C3_3 1_555 1_555
C8_3 C6_3 1_555 1_555
C9_3 H2_3 1_555 1_555
C10_3 C7_3 1_555 1_555
H3_3 C10_3 1_555 1_555
C11_3 C2_3 1_555 1_555
C12_3 C13_3 1_555 1_555
C13_3 C10_3 1_555 1_555
C15_3 C8_3 1_555 1_555
C17_3 C6_3 1_555 1_555
C18_3 C8_3 1_555 1_555
H10_3 C18_3 1_555 1_555
C19_3 H11_3 1_555 1_555
C22_3 C12_3 1_555 1_555
H15_3 C22_3 1_555 1_555
C23_3 C12_3 1_555 1_555
C24_3 O6_3 1_555 1_555
H17_3 C24_3 1_555 1_555
H18_3 C24_3 1_555 1_555
H19_3 C24_3 1_555 1_555
O7_3 C25_3 1_555 1_555
O13_2 C28_3 1_555 1_555
O10_2 C28_3 1_555 1_555
O11_3 C39_3 1_555 1_555
C25_3 C26_3 1_555 1_555
C26_3 C33_3 1_555 1_555
C27_3 H20_3 1_555 1_555
C28_3 C29_3 1_555 1_555
C29_3 C41_3 1_555 1_555
C30_3 C27_3 1_555 1_555
C31_3 O5_4 1_555 1_555
C32_3 C30_3 1_555 1_555
C33_3 H21_3 1_555 1_555
C34_3 C31_3 1_555 1_555
H22_3 C34_3 1_555 1_555
C35_3 C26_3 1_555 1_555
H23_3 C35_3 1_555 1_555
C36_3 C37_3 1_555 1_555
C37_3 C34_3 1_555 1_555
C38_3 C32_3 1_555 1_555
H24_3 C38_3 1_555 1_555
C39_3 C30_3 1_555 1_555
C40_3 C32_3 1_555 1_555
H25_3 C40_3 1_555 1_555
C41_3 H26_3 1_555 1_555
C42_3 C29_3 1_555 1_555
H27_3 C42_3 1_555 1_555
C43_3 C36_3 1_555 1_555
H28_3 C43_3 1_555 1_555
C44_3 C36_3 1_555 1_555
H29_3 C44_3 1_555 1_555
C45_3 O11_3 1_555 1_555
H30_3 C45_3 1_555 1_555
H31_3 C45_3 1_555 1_555
H32_3 C45_3 1_555 1_555
Cu8 O10_2 1_555 1_555
Cu9 O4_2 1_555 1_555
C9_3 C18_3 1_555 1_555
C11_3 C15_3 1_555 1_555
C13_3 C17_3 1_555 1_555
C19_3 C22_3 1_555 1_555
C27_3 C31_3 1_555 1_555
C33_3 C40_3 1_555 1_555
C35_3 C38_3 1_555 1_555
C37_3 C39_3 1_555 1_555
C41_3 C43_3 1_555 1_555
C42_3 C44_3 1_555 1_555
H9_3 C16_3 1_555 1_555
C46_3 C16_3 1_555 1_555
H33_3 C46_3 1_555 1_555
H5_3 C14_3 1_555 1_555
C47_3 C14_3 1_555 1_555
H36_3 C47_3 1_555 1_555
H12_3 C20_3 1_555 1_555
H37_3 C48_3 1_555 1_555
N3 C48_3 1_555 1_555
N1_3 Cu6 1_555 1_555
C21_3 N1_3 1_555 1_555
H13_3 C21_3 1_555 1_555
H27_4 C42_4 1_555 1_555
Cu9 O7_4 1_555 1_555
N3_2 Cu9 1_555 1_555
O15_2 C25_4 1_555 1_555
O17_2 C28_4 1_555 1_555
O11_4 C39_4 1_555 1_555
C25_4 C26_4 1_555 1_555
C26_4 C33_4 1_555 1_555
C27_4 H20_4 1_555 1_555
C28_4 C29_4 1_555 1_555
C29_4 C41_4 1_555 1_555
C30_4 C27_4 1_555 1_555
C31_4 O5_5 1_555 1_555
C32_4 C30_4 1_555 1_555
C33_4 H21_4 1_555 1_555
C34_4 C31_4 1_555 1_555
C35_4 C26_4 1_555 1_555
C36_4 C37_4 1_555 1_555
C37_4 C34_4 1_555 1_555
C38_4 C32_4 1_555 1_555
C39_4 C30_4 1_555 1_555
C40_4 C32_4 1_555 1_555
H25_4 C40_4 1_555 1_555
C41_4 H26_4 1_555 1_555
C43_4 C36_4 1_555 1_555
H28_4 C43_4 1_555 1_555
C44_4 C36_4 1_555 1_555
C45_4 O11_4 1_555 1_555
H30_4 C45_4 1_555 1_555
H31_4 C45_4 1_555 1_555
H32_4 C45_4 1_555 1_555
C27_4 C31_4 1_555 1_555
C33_4 C40_4 1_555 1_555
C35_4 C38_4 1_555 1_555
C37_4 C39_4 1_555 1_555
C41_4 C43_4 1_555 1_555
Cu8 O1_4 1_555 1_555
O1_4 C1_4 1_555 1_555
O12 C4_4 1_555 1_555
O14_2 C1_4 1_555 1_555
O16_2 C4_4 1_555 1_555
O5_6 C7_4 1_555 1_555
O6_4 C17_4 1_555 1_555
N1_4 Cu8 1_555 1_555
C1_4 C2_4 1_555 1_555
C2_4 C9_4 1_555 1_555
C3_4 H1_4 1_555 1_555
C4_4 C5_4 1_555 1_555
C5_4 C19_4 1_555 1_555
C6_4 C3_4 1_555 1_555
C7_4 C3_4 1_555 1_555
C8_4 C6_4 1_555 1_555
C9_4 H2_4 1_555 1_555
C10_4 C7_4 1_555 1_555
C11_4 C2_4 1_555 1_555
H4_4 C11_4 1_555 1_555
C12_4 C13_4 1_555 1_555
C13_4 C10_4 1_555 1_555
C14_4 N1_4 1_555 1_555
H5_4 C14_4 1_555 1_555
H6_4 C14_4 1_555 1_555
C15_4 C8_4 1_555 1_555
H7_4 C15_4 1_555 1_555
C16_4 N1_4 1_555 1_555
H8_4 C16_4 1_555 1_555
H9_4 C16_4 1_555 1_555
C17_4 C6_4 1_555 1_555
C18_4 C8_4 1_555 1_555
H10_4 C18_4 1_555 1_555
C19_4 H11_4 1_555 1_555
C20_4 C5_4 1_555 1_555
H12_4 C20_4 1_555 1_555
C21_4 N1_4 1_555 1_555
H13_4 C21_4 1_555 1_555
H14_4 C21_4 1_555 1_555
C22_4 C12_4 1_555 1_555
H15_4 C22_4 1_555 1_555
C23_4 C12_4 1_555 1_555
H16_4 C23_4 1_555 1_555
C24_4 O6_4 1_555 1_555
H17_4 C24_4 1_555 1_555
H18_4 C24_4 1_555 1_555
H19_4 C24_4 1_555 1_555
N3_2 C46_4 1_555 1_555
C46_4 C16_4 1_555 1_555
H33_4 C46_4 1_555 1_555
H34_4 C46_4 1_555 1_555
C47_4 C14_4 1_555 1_555
H35_4 C47_4 1_555 1_555
H36_4 C47_4 1_555 1_555
C48_4 C21_4 1_555 1_555
H37_4 C48_4 1_555 1_555
H38_4 C48_4 1_555 1_555
C9_4 C18_4 1_555 1_555
C11_4 C15_4 1_555 1_555
C13_4 C17_4 1_555 1_555
C19_4 C22_4 1_555 1_555
C20_4 C23_4 1_555 1_555
N3_2 C47_4 1_555 1_555
N3_2 C48_4 1_555 1_555

#END
