
###############################################################################
#
# This file contains modified crystal structure data generated from the
# MOF subset of the Cambridge Structural Database (CSD) v543 
# hosted by the Cambridge Crystallographic Data Centre (CCDC).
#
# This work is licensed under the Creative Commons
# Attribution-NonCommercial-ShareAlike 4.0 International License.
# To view a copy of this license, visit
# http://creativecommons.org/licenses/by-nc-sa/4.0/
# or send a letter to
# Creative Commons, PO Box 1866, Mountain View, CA 94042, USA.
#
# CIF created using the CSD Python API on 29 September 2022
# The structure has been converted into the P1 space group
# The structure has a 3D framework
# The original CSD entry TUGREV05 is in the monoclinic crystal system
# The framework has been calculated to contain at least 10.0% void space
# The void calculation uses a probe of radius 1.32A, grid spacing 0.4
#
###############################################################################

data_TUGREV05
_chemical_formula_moiety         '(C192 H152 Cu8 N8 O36)n'
_symmetry_cell_setting           triclinic
_symmetry_space_group_name_H-M   'P 1'
_symmetry_Int_Tables_number      1
_space_group_name_Hall           'P 1'
loop_
_symmetry_equiv_pos_site_id
_symmetry_equiv_pos_as_xyz
1 x,y,z
_cell_length_a                   19.045(2)
_cell_length_b                   22.004(2)
_cell_length_c                   23.168(2)
_cell_angle_alpha                90
_cell_angle_beta                 104.840(7)
_cell_angle_gamma                90
_cell_volume                     9385.08
loop_
_atom_site_label
_atom_site_type_symbol
_atom_site_fract_x
_atom_site_fract_y
_atom_site_fract_z
Cu3 Cu 0.56827(2) 0.01654(2) 0.00259(2)
O4 O 0.07196(12) 0.42792(11) 0.49510(9)
O5 O 0.250000 0.03043(16) 0.500000
O6 O 0.03202(16) 0.15551(15) 0.34024(12)
C1 C 0.03513(18) 0.01263(16) 0.11179(13)
C2 C 0.1713(2) 0.04157(18) 0.40387(13)
H1 H 0.191957 0.006574 0.392816
C3 C 0.05550(18) 0.02291(15) 0.17784(12)
C4 C 0.0440(2) 0.32432(19) 0.47848(15)
C5 C 0.0237(2) 0.38764(18) 0.48844(13)
C6 C 0.1948(2) 0.06341(19) 0.46065(13)
C7 C 0.0218(2) 0.04857(19) 0.26762(13)
C8 C 0.0932(2) 0.05105(18) 0.29884(13)
C9 C 0.1165(2) 0.07158(19) 0.36254(13)
C10 C 0.12733(19) 0.02383(17) 0.20950(13)
H3 H 0.163369 0.015369 0.190132
C13 C 0.1130(2) 0.14686(19) 0.43957(15)
C14 C 0.0028(2) 0.03505(18) 0.20735(13)
C15 C 0.1656(2) 0.11523(19) 0.47823(14)
H9 H 0.182348 0.128779 0.517374
C17 C 0.0864(2) 0.2073(2) 0.45483(15)
C18 C 0.1158(2) 0.3089(2) 0.48463(19)
H12 H 0.151420 0.338401 0.497211
C19 C 0.1463(2) 0.03716(18) 0.26960(14)
H13 H 0.194962 0.036855 0.290694
C21 C 0.0866(2) 0.1239(2) 0.37962(15)
C22 C 0.1363(2) 0.2515(2) 0.47278(19)
H15 H 0.185207 0.242912 0.477164
C23 C 0.0139(3) 0.2219(2) 0.45012(18)
C24 C 0.0603(3) 0.1989(2) 0.3055(2)
H17 H 0.078685 0.177935 0.276098
H18 H 0.098905 0.221650 0.331313
H19 H 0.022318 0.226204 0.285926
O7 O 0.52949(12) 0.02299(11) 0.91590(8)
O9 O 0.54108(13) 0.39842(11) 0.51105(10)
O10 O 0.42804(12) 0.42792(11) 0.50490(9)
O11 O 0.46798(16) 0.15551(15) 0.65976(12)
C25 C 0.46487(18) 0.01263(16) 0.88821(13)
C26 C 0.3287(2) 0.04157(18) 0.59613(13)
H20 H 0.308043 0.006574 0.607184
C27 C 0.44450(18) 0.02291(15) 0.82216(12)
C28 C 0.4560(2) 0.32432(19) 0.52152(15)
C29 C 0.4763(2) 0.38764(18) 0.51156(13)
C30 C 0.3052(2) 0.06341(19) 0.53935(13)
C31 C 0.4782(2) 0.04857(19) 0.73238(13)
H21 H 0.514375 0.056055 0.712861
C32 C 0.4068(2) 0.05105(18) 0.70116(13)
C33 C 0.3835(2) 0.07158(19) 0.63746(13)
C34 C 0.37267(19) 0.02383(17) 0.79050(13)
H22 H 0.336631 0.015369 0.809868
C35 C 0.3870(2) 0.14686(19) 0.56043(15)
C36 C 0.4972(2) 0.03505(18) 0.79265(13)
H23 H 0.545941 0.034142 0.813445
C37 C 0.3344(2) 0.11523(19) 0.52177(14)
H24 H 0.317652 0.128779 0.482626
C38 C 0.4136(2) 0.2073(2) 0.54517(15)
C39 C 0.3842(2) 0.3089(2) 0.51537(19)
H25 H 0.348580 0.338401 0.502789
C40 C 0.3537(2) 0.03716(18) 0.73040(14)
H26 H 0.305038 0.036855 0.709306
C41 C 0.5060(2) 0.2790(2) 0.53731(17)
H27 H 0.554553 0.287066 0.539573
C42 C 0.4134(2) 0.1239(2) 0.62038(15)
C43 C 0.3637(2) 0.2515(2) 0.52722(19)
H28 H 0.314793 0.242912 0.522836
C44 C 0.4861(3) 0.2219(2) 0.54988(18)
H29 H 0.521535 0.192122 0.561789
C45 C 0.4397(3) 0.1989(2) 0.6945(2)
H30 H 0.421315 0.177935 0.723902
H31 H 0.401095 0.221650 0.668687
H32 H 0.477682 0.226204 0.714074
Cu4 Cu 0.43173(2) 0.51654(2) 0.49741(2)
Cu5 Cu 0.06827(2) 0.51654(2) 0.50259(2)
Cu9 Cu 0.56827(2) 0.48346(2) 0.50259(2)
O2 O 0.08465(12) 0.99272(11) 0.08920(8)
O8 O 0.41535(12) 0.99272(11) 0.91080(8)
Cu6 Cu 0.06827(2) 0.98346(2) 0.00259(2)
Cu8 Cu 0.43173(2) 0.98346(2) 0.99741(2)
O1 O 0.97051(12) 0.02299(11) 0.08410(8)
O3 O 0.95892(13) 0.39842(11) 0.48895(10)
H2 H 0.985625 0.056055 0.287139
H7 H 0.819331 0.108550 0.033926
H8 H 0.954059 0.034142 0.186555
H10 H 0.835385 0.014703 0.087995
C20 C 0.9940(2) 0.2790(2) 0.46269(17)
H14 H 0.945447 0.287066 0.460427
H16 H 0.978465 0.192122 0.438211
N2 N 0.68252(13) 0.02479(14) 0.00131(9)
H34 H 0.721406 0.012686 0.089397
C47 C 0.70945(18) 0.08727(19) 0.0008(2)
H35 H 0.704397 0.108542 0.036178
Cu10 Cu 0.93173(2) 0.48346(2) 0.49741(2)
O14 O 0.58465(12) 0.00728(11) 0.08920(8)
O15 O 0.54108(13) 0.10158(11) 0.01105(10)
Cu1 Cu 0.93173(2) 0.01654(2) 0.99741(2)
N1 N 0.81748(13) 0.02479(14) 0.99869(9)
H5 H 0.778594 0.012686 0.910603
C12 C 0.79055(18) 0.08727(19) 0.9992(2)
H6 H 0.795603 0.108542 0.963822
H36 H 0.680669 0.108550 0.966074
H37 H 0.664615 0.014703 0.912005
O13 O 0.91535(12) 0.00728(11) 0.91080(8)
O16 O 0.95892(13) 0.10158(11) 0.98895(10)
C16 C 0.80732(18) 0.9939(2) 0.05269(15)
H11 H 0.825061 0.952467 0.053728
C46 C 0.72697(18) 0.99320(18) 0.05327(14)
H33 H 0.710501 0.951493 0.053355
O18 O 0.92804(12) 0.92792(11) 0.00490(9)
C11 C 0.77303(18) 0.99320(18) 0.94673(14)
H4 H 0.789499 0.951493 0.946645
C48 C 0.69268(18) 0.9939(2) 0.94731(15)
H38 H 0.674939 0.952467 0.946272
O17 O 0.57196(12) 0.92792(11) 0.99510(9)
O7_2 O 0.02949(12) 0.52299(11) 0.41590(8)
O9_2 O 0.04108(13) 0.89842(11) 0.01105(10)
H21_2 H 0.014375 0.556055 0.212861
H23_2 H 0.045941 0.534142 0.313445
C41_2 C 0.0060(2) 0.7790(2) 0.03731(17)
H27_2 H 0.054553 0.787066 0.039573
H29_2 H 0.021535 0.692122 0.061789
O5_2 O 0.750000 0.53043(16) 0.000000
H9_2 H 0.682348 0.628779 0.017374
O8_2 O 0.91535(12) 0.49272(11) 0.41080(8)
O11_2 O 0.96798(16) 0.65551(15) 0.15976(12)
C25_2 C 0.96487(18) 0.51263(16) 0.38821(13)
C26_2 C 0.8287(2) 0.54157(18) 0.09613(13)
H20_2 H 0.808043 0.506574 0.107184
C27_2 C 0.94450(18) 0.52291(15) 0.32216(12)
C28_2 C 0.9560(2) 0.82432(19) 0.02152(15)
C29_2 C 0.9763(2) 0.88764(18) 0.01156(13)
C30_2 C 0.8052(2) 0.56341(19) 0.03935(13)
C31_2 C 0.9782(2) 0.54857(19) 0.23238(13)
C32_2 C 0.9068(2) 0.55105(18) 0.20116(13)
C33_2 C 0.8835(2) 0.57158(19) 0.13746(13)
C34_2 C 0.87267(19) 0.52383(17) 0.29050(13)
H22_2 H 0.836631 0.515369 0.309868
C35_2 C 0.8870(2) 0.64686(19) 0.06043(15)
C36_2 C 0.9972(2) 0.53505(18) 0.29265(13)
C37_2 C 0.8344(2) 0.61523(19) 0.02177(14)
C38_2 C 0.9136(2) 0.7073(2) 0.04517(15)
C39_2 C 0.8842(2) 0.8089(2) 0.01537(19)
H25_2 H 0.848580 0.838401 0.002789
C40_2 C 0.8537(2) 0.53716(18) 0.23040(14)
H26_2 H 0.805038 0.536855 0.209306
C42_2 C 0.9134(2) 0.6239(2) 0.12038(15)
C43_2 C 0.8637(2) 0.7515(2) 0.02722(19)
H28_2 H 0.814793 0.742912 0.022836
C44_2 C 0.9861(3) 0.7219(2) 0.04988(18)
C45_2 C 0.9397(3) 0.6989(2) 0.1945(2)
H30_2 H 0.921315 0.677935 0.223902
H31_2 H 0.901095 0.721650 0.168687
H32_2 H 0.977682 0.726204 0.214074
O1_2 O 0.47051(12) 0.52299(11) 0.58410(8)
O2_2 O 0.58465(12) 0.49272(11) 0.58920(8)
O3_2 O 0.45892(13) 0.89842(11) 0.98895(10)
O5_3 O 0.750000 0.53043(16) 1.000000
O6_2 O 0.53202(16) 0.65551(15) 0.84024(12)
N1_2 N 0.31748(13) 0.52479(14) 0.49869(9)
C1_2 C 0.53513(18) 0.51263(16) 0.61179(13)
C2_2 C 0.6713(2) 0.54157(18) 0.90387(13)
H1_2 H 0.691957 0.506574 0.892816
C3_2 C 0.55550(18) 0.52291(15) 0.67784(12)
C4_2 C 0.5440(2) 0.82432(19) 0.97848(15)
C5_2 C 0.5237(2) 0.88764(18) 0.98844(13)
C6_2 C 0.6948(2) 0.56341(19) 0.96065(13)
C7_2 C 0.5218(2) 0.54857(19) 0.76762(13)
H2_2 H 0.485625 0.556055 0.787139
C8_2 C 0.5932(2) 0.55105(18) 0.79884(13)
C9_2 C 0.6165(2) 0.57158(19) 0.86254(13)
C10_2 C 0.62733(19) 0.52383(17) 0.70950(13)
H3_2 H 0.663369 0.515369 0.690132
C11_2 C 0.27303(18) 0.49320(18) 0.44673(14)
H4_2 H 0.289499 0.451493 0.446645
H5_2 H 0.278594 0.512686 0.410603
C12_2 C 0.29055(18) 0.58727(19) 0.4992(2)
H6_2 H 0.295603 0.608542 0.463822
H7_2 H 0.319331 0.608550 0.533926
C13_2 C 0.6130(2) 0.64686(19) 0.93957(15)
C14_2 C 0.5028(2) 0.53505(18) 0.70735(13)
H8_2 H 0.454059 0.534142 0.686555
C15_2 C 0.6656(2) 0.61523(19) 0.97823(14)
C16_2 C 0.30732(18) 0.4939(2) 0.55269(15)
H10_2 H 0.335385 0.514703 0.587995
H11_2 H 0.325061 0.452467 0.553728
C17_2 C 0.5864(2) 0.7073(2) 0.95483(15)
C18_2 C 0.6158(2) 0.8089(2) 0.98463(19)
H12_2 H 0.651420 0.838401 0.997211
C19_2 C 0.6463(2) 0.53716(18) 0.76960(14)
H13_2 H 0.694962 0.536855 0.790694
C20_2 C 0.4940(2) 0.7790(2) 0.96269(17)
H14_2 H 0.445447 0.787066 0.960427
C21_2 C 0.5866(2) 0.6239(2) 0.87962(15)
C22_2 C 0.6363(2) 0.7515(2) 0.97278(19)
H15_2 H 0.685207 0.742912 0.977164
C23_2 C 0.5139(3) 0.7219(2) 0.95012(18)
H16_2 H 0.478465 0.692122 0.938211
C24_2 C 0.5603(3) 0.6989(2) 0.8055(2)
H17_2 H 0.578685 0.677935 0.776098
H18_2 H 0.598905 0.721650 0.831313
H19_2 H 0.522318 0.726204 0.785926
H24_2 H 0.817652 0.628779 0.982626
N2_2 N 0.18252(13) 0.52479(14) 0.50131(9)
C46_2 C 0.22697(18) 0.49320(18) 0.55327(14)
H33_2 H 0.210501 0.451493 0.553355
H34_2 H 0.221406 0.512686 0.589397
C47_2 C 0.20945(18) 0.58727(19) 0.5008(2)
H35_2 H 0.204397 0.608542 0.536178
H36_2 H 0.180669 0.608550 0.466074
C48_2 C 0.19268(18) 0.4939(2) 0.44731(15)
H37_2 H 0.164615 0.514703 0.412005
H38_2 H 0.174939 0.452467 0.446272
O13_2 O 0.41535(12) 0.50728(11) 0.41080(8)
O14_2 O 0.08465(12) 0.50728(11) 0.58920(8)
O15_2 O 0.04108(13) 0.60158(11) 0.51105(10)
O16_2 O 0.45892(13) 0.60158(11) 0.48895(10)
C11_3 C 0.22697(18) 0.00680(18) 0.05327(14)
H4_3 H 0.210501 0.048507 0.053355
C48_3 C 0.30732(18) 0.0061(2) 0.05269(15)
H38_3 H 0.325061 0.047533 0.053728
O17_2 O 0.42804(12) 0.07208(11) 0.00490(9)
C16_3 C 0.19268(18) 0.0061(2) 0.94731(15)
H11_3 H 0.174939 0.047533 0.946272
C46_3 C 0.27303(18) 0.00680(18) 0.94673(14)
H33_3 H 0.289499 0.048507 0.946645
O18_2 O 0.07196(12) 0.07208(11) 0.99510(9)
N1_3 N 0.18252(13) 0.97521(14) 0.00131(9)
H5_3 H 0.221406 0.987314 0.089397
C12_3 C 0.20945(18) 0.91273(19) 0.0008(2)
H6_3 H 0.204397 0.891458 0.036178
H36_3 H 0.319331 0.891450 0.033926
H37_3 H 0.335385 0.985297 0.087995
O12 O 0.47051(12) 0.97701(11) 0.08410(8)
O1_3 O 0.02949(12) 0.97701(11) 0.91590(8)
H2_3 H 0.014375 0.943945 0.712861
H7_3 H 0.180669 0.891450 0.966074
H8_3 H 0.045941 0.965858 0.813445
H10_3 H 0.164615 0.985297 0.912005
C20_3 C 0.0060(2) 0.7210(2) 0.53731(17)
H14_3 H 0.054553 0.712934 0.539573
H16_3 H 0.021535 0.807878 0.561789
N2_3 N 0.31748(13) 0.97521(14) 0.99869(9)
H34_3 H 0.278594 0.987314 0.910603
C47_3 C 0.29055(18) 0.91273(19) 0.9992(2)
H35_3 H 0.295603 0.891458 0.963822
O4_2 O 0.92804(12) 0.57208(11) 0.50490(9)
O5_4 O 0.750000 0.96957(16) 0.500000
O6_3 O 0.96798(16) 0.84449(15) 0.65976(12)
C1_3 C 0.96487(18) 0.98737(16) 0.88821(13)
C2_3 C 0.8287(2) 0.95843(18) 0.59613(13)
H1_3 H 0.808043 0.993426 0.607184
C3_3 C 0.94450(18) 0.97709(15) 0.82216(12)
C4_3 C 0.9560(2) 0.67568(19) 0.52152(15)
C5_3 C 0.9763(2) 0.61236(18) 0.51156(13)
C6_3 C 0.8052(2) 0.93659(19) 0.53935(13)
C7_3 C 0.9782(2) 0.95143(19) 0.73238(13)
C8_3 C 0.9068(2) 0.94895(18) 0.70116(13)
C9_3 C 0.8835(2) 0.92842(19) 0.63746(13)
C10_3 C 0.87267(19) 0.97617(17) 0.79050(13)
H3_3 H 0.836631 0.984631 0.809868
C13_3 C 0.8870(2) 0.85314(19) 0.56043(15)
C14_3 C 0.9972(2) 0.96495(18) 0.79265(13)
C15_3 C 0.8344(2) 0.88477(19) 0.52177(14)
H9_3 H 0.817652 0.871221 0.482626
C17_3 C 0.9136(2) 0.7927(2) 0.54517(15)
C18_3 C 0.8842(2) 0.6911(2) 0.51537(19)
H12_3 H 0.848580 0.661599 0.502789
C19_3 C 0.8537(2) 0.96284(18) 0.73040(14)
H13_3 H 0.805038 0.963145 0.709306
C21_3 C 0.9134(2) 0.8761(2) 0.62038(15)
C22_3 C 0.8637(2) 0.7485(2) 0.52722(19)
H15_3 H 0.814793 0.757088 0.522836
C23_3 C 0.9861(3) 0.7781(2) 0.54988(18)
C24_3 C 0.9397(3) 0.8011(2) 0.6945(2)
H17_3 H 0.921315 0.822065 0.723902
H18_3 H 0.901095 0.778350 0.668687
H19_3 H 0.977682 0.773796 0.714074
O10_2 O 0.57196(12) 0.57208(11) 0.49510(9)
O11_3 O 0.53202(16) 0.84449(15) 0.34024(12)
C25_3 C 0.53513(18) 0.98737(16) 0.11179(13)
C26_3 C 0.6713(2) 0.95843(18) 0.40387(13)
H20_3 H 0.691957 0.993426 0.392816
C27_3 C 0.55550(18) 0.97709(15) 0.17784(12)
C28_3 C 0.5440(2) 0.67568(19) 0.47848(15)
C29_3 C 0.5237(2) 0.61236(18) 0.48844(13)
C30_3 C 0.6948(2) 0.93659(19) 0.46065(13)
C31_3 C 0.5218(2) 0.95143(19) 0.26762(13)
H21_3 H 0.485625 0.943945 0.287139
C32_3 C 0.5932(2) 0.94895(18) 0.29884(13)
C33_3 C 0.6165(2) 0.92842(19) 0.36254(13)
C34_3 C 0.62733(19) 0.97617(17) 0.20950(13)
H22_3 H 0.663369 0.984631 0.190132
C35_3 C 0.6130(2) 0.85314(19) 0.43957(15)
C36_3 C 0.5028(2) 0.96495(18) 0.20735(13)
H23_3 H 0.454059 0.965858 0.186555
C37_3 C 0.6656(2) 0.88477(19) 0.47823(14)
H24_3 H 0.682348 0.871221 0.517374
C38_3 C 0.5864(2) 0.7927(2) 0.45483(15)
C39_3 C 0.6158(2) 0.6911(2) 0.48463(19)
H25_3 H 0.651420 0.661599 0.497211
C40_3 C 0.6463(2) 0.96284(18) 0.26960(14)
H26_3 H 0.694962 0.963145 0.290694
C41_3 C 0.4940(2) 0.7210(2) 0.46269(17)
H27_3 H 0.445447 0.712934 0.460427
C42_3 C 0.5866(2) 0.8761(2) 0.37962(15)
C43_3 C 0.6363(2) 0.7485(2) 0.47278(19)
H28_3 H 0.685207 0.757088 0.477164
C44_3 C 0.5139(3) 0.7781(2) 0.45012(18)
H29_3 H 0.478465 0.807878 0.438211
C45_3 C 0.5603(3) 0.8011(2) 0.3055(2)
H30_3 H 0.578685 0.822065 0.276098
H31_3 H 0.598905 0.778350 0.331313
H32_3 H 0.522318 0.773796 0.285926
O1_4 O 0.52949(12) 0.47701(11) 0.41590(8)
O5_5 O 0.250000 0.46957(16) 0.000000
O6_4 O 0.46798(16) 0.34449(15) 0.15976(12)
N1_4 N 0.68252(13) 0.47521(14) 0.50131(9)
C1_4 C 0.46487(18) 0.48737(16) 0.38821(13)
C2_4 C 0.3287(2) 0.45843(18) 0.09613(13)
H1_4 H 0.308043 0.493426 0.107184
C3_4 C 0.44450(18) 0.47709(15) 0.32216(12)
C4_4 C 0.4560(2) 0.17568(19) 0.02152(15)
C5_4 C 0.4763(2) 0.11236(18) 0.01156(13)
C6_4 C 0.3052(2) 0.43659(19) 0.03935(13)
C7_4 C 0.4782(2) 0.45143(19) 0.23238(13)
H2_4 H 0.514375 0.443945 0.212861
C8_4 C 0.4068(2) 0.44895(18) 0.20116(13)
C9_4 C 0.3835(2) 0.42842(19) 0.13746(13)
C10_4 C 0.37267(19) 0.47617(17) 0.29050(13)
H3_4 H 0.336631 0.484631 0.309868
C11_4 C 0.72697(18) 0.50680(18) 0.55327(14)
H4_4 H 0.710501 0.548507 0.553355
H5_4 H 0.721406 0.487314 0.589397
C12_4 C 0.70945(18) 0.41273(19) 0.5008(2)
H6_4 H 0.704397 0.391458 0.536178
H7_4 H 0.680669 0.391450 0.466074
C13_4 C 0.3870(2) 0.35314(19) 0.06043(15)
C14_4 C 0.4972(2) 0.46495(18) 0.29265(13)
H8_4 H 0.545941 0.465858 0.313445
C15_4 C 0.3344(2) 0.38477(19) 0.02177(14)
C16_4 C 0.69268(18) 0.5061(2) 0.44731(15)
H10_4 H 0.664615 0.485297 0.412005
H11_4 H 0.674939 0.547533 0.446272
C17_4 C 0.4136(2) 0.2927(2) 0.04517(15)
C18_4 C 0.3842(2) 0.1911(2) 0.01537(19)
H12_4 H 0.348580 0.161599 0.002789
C19_4 C 0.3537(2) 0.46284(18) 0.23040(14)
H13_4 H 0.305038 0.463145 0.209306
C20_4 C 0.5060(2) 0.2210(2) 0.03731(17)
H14_4 H 0.554553 0.212934 0.039573
C21_4 C 0.4134(2) 0.3761(2) 0.12038(15)
C22_4 C 0.3637(2) 0.2485(2) 0.02722(19)
H15_4 H 0.314793 0.257088 0.022836
C23_4 C 0.4861(3) 0.2781(2) 0.04988(18)
H16_4 H 0.521535 0.307878 0.061789
C24_4 C 0.4397(3) 0.3011(2) 0.1945(2)
H17_4 H 0.421315 0.322065 0.223902
H18_4 H 0.401095 0.278350 0.168687
H19_4 H 0.477682 0.273796 0.214074
H24_4 H 0.182348 0.371221 0.017374
N2_4 N 0.81748(13) 0.47521(14) 0.49869(9)
C46_4 C 0.77303(18) 0.50680(18) 0.44673(14)
H33_4 H 0.789499 0.548507 0.446645
H34_4 H 0.778594 0.487314 0.410603
C47_4 C 0.79055(18) 0.41273(19) 0.4992(2)
H35_4 H 0.795603 0.391458 0.463822
H36_4 H 0.819331 0.391450 0.533926
C48_4 C 0.80732(18) 0.5061(2) 0.55269(15)
H37_4 H 0.835385 0.485297 0.587995
H38_4 H 0.825061 0.547533 0.553728
O12_2 O 0.97051(12) 0.47701(11) 0.58410(8)
O5_6 O 0.250000 0.46957(16) 1.000000
H9_4 H 0.317652 0.371221 0.982626
O11_4 O 0.03202(16) 0.34449(15) 0.84024(12)
C25_4 C 0.03513(18) 0.48737(16) 0.61179(13)
C26_4 C 0.1713(2) 0.45843(18) 0.90387(13)
H20_4 H 0.191957 0.493426 0.892816
C27_4 C 0.05550(18) 0.47709(15) 0.67784(12)
C28_4 C 0.0440(2) 0.17568(19) 0.97848(15)
C29_4 C 0.0237(2) 0.11236(18) 0.98844(13)
C30_4 C 0.1948(2) 0.43659(19) 0.96065(13)
C31_4 C 0.0218(2) 0.45143(19) 0.76762(13)
C32_4 C 0.0932(2) 0.44895(18) 0.79884(13)
C33_4 C 0.1165(2) 0.42842(19) 0.86254(13)
C34_4 C 0.12733(19) 0.47617(17) 0.70950(13)
H22_4 H 0.163369 0.484631 0.690132
C35_4 C 0.1130(2) 0.35314(19) 0.93957(15)
C36_4 C 0.0028(2) 0.46495(18) 0.70735(13)
C37_4 C 0.1656(2) 0.38477(19) 0.97823(14)
C38_4 C 0.0864(2) 0.2927(2) 0.95483(15)
C39_4 C 0.1158(2) 0.1911(2) 0.98463(19)
H25_4 H 0.151420 0.161599 0.997211
C40_4 C 0.1463(2) 0.46284(18) 0.76960(14)
H26_4 H 0.194962 0.463145 0.790694
C42_4 C 0.0866(2) 0.3761(2) 0.87962(15)
C43_4 C 0.1363(2) 0.2485(2) 0.97278(19)
H28_4 H 0.185207 0.257088 0.977164
C44_4 C 0.0139(3) 0.2781(2) 0.95012(18)
C45_4 C 0.0603(3) 0.3011(2) 0.8055(2)
H30_4 H 0.078685 0.322065 0.776098
H31_4 H 0.098905 0.278350 0.831313
H32_4 H 0.022318 0.273796 0.785926
H21_4 H 0.985625 0.443945 0.787139
H23_4 H 0.954059 0.465858 0.686555
C41_4 C 0.9940(2) 0.2210(2) 0.96269(17)
H27_4 H 0.945447 0.212934 0.960427
H29_4 H 0.978465 0.307878 0.938211
loop_
_geom_bond_atom_site_label_1
_geom_bond_atom_site_label_2
_geom_bond_site_symmetry_1
_geom_bond_site_symmetry_2
O4 C5 1_555 1_555
O5 C6 1_555 1_555
O6 C21 1_555 1_555
C1 C3 1_555 1_555
C2 H1 1_555 1_555
C3 C10 1_555 1_555
C4 C5 1_555 1_555
C6 C2 1_555 1_555
C8 C7 1_555 1_555
C9 C2 1_555 1_555
C10 H3 1_555 1_555
C13 C15 1_555 1_555
C14 C3 1_555 1_555
C15 C6 1_555 1_555
H9 C15 1_555 1_555
C17 C13 1_555 1_555
C18 C4 1_555 1_555
H12 C18 1_555 1_555
C19 C8 1_555 1_555
H13 C19 1_555 1_555
C21 C9 1_555 1_555
C22 C17 1_555 1_555
H15 C22 1_555 1_555
C23 C17 1_555 1_555
C24 O6 1_555 1_555
H17 C24 1_555 1_555
H18 C24 1_555 1_555
H19 C24 1_555 1_555
O7 C25 1_555 1_555
O9 C29 1_555 1_555
O10 C29 1_555 1_555
O11 C42 1_555 1_555
C25 C27 1_555 1_555
C26 H20 1_555 1_555
C27 C34 1_555 1_555
C28 C29 1_555 1_555
C30 O5 1_555 1_555
C31 H21 1_555 1_555
C32 C31 1_555 1_555
C33 C26 1_555 1_555
C34 H22 1_555 1_555
C35 C37 1_555 1_555
C36 C27 1_555 1_555
H23 C36 1_555 1_555
C37 C30 1_555 1_555
H24 C37 1_555 1_555
C38 C35 1_555 1_555
C39 C28 1_555 1_555
H25 C39 1_555 1_555
C40 C32 1_555 1_555
H26 C40 1_555 1_555
C41 C28 1_555 1_555
H27 C41 1_555 1_555
C42 C33 1_555 1_555
C43 C38 1_555 1_555
H28 C43 1_555 1_555
C44 C38 1_555 1_555
H29 C44 1_555 1_555
C45 O11 1_555 1_555
H30 C45 1_555 1_555
H31 C45 1_555 1_555
H32 C45 1_555 1_555
Cu4 O10 1_555 1_555
Cu5 O4 1_555 1_555
Cu9 O9 1_555 1_555
C7 C14 1_555 1_555
C8 C9 1_555 1_555
C10 C19 1_555 1_555
C13 C21 1_555 1_555
C18 C22 1_555 1_555
C26 C30 1_555 1_555
C31 C36 1_555 1_555
C32 C33 1_555 1_555
C34 C40 1_555 1_555
C35 C42 1_555 1_555
C39 C43 1_555 1_555
C41 C44 1_555 1_555
Cu4 Cu9 1_555 1_555
Cu8 O8 1_555 1_555
O2 Cu6 1_555 1_555
H14 C20 1_555 1_555
H35 C47 1_555 1_555
Cu3 N2 1_555 1_555
Cu10 O3 1_555 1_555
O14 Cu3 1_555 1_555
O15 Cu3 1_555 1_555
N2 C47 1_555 1_555
N1 Cu1 1_555 1_555
C12 N1 1_555 1_555
H6 C12 1_555 1_555
O13 Cu1 1_555 1_555
O16 Cu1 1_555 1_555
H11 C16 1_555 1_555
C46 C16 1_555 1_555
H33 C46 1_555 1_555
H4 C11 1_555 1_555
C48 C11 1_555 1_555
H38 C48 1_555 1_555
H27_2 C41_2 1_555 1_555
Cu5 O7_2 1_555 1_555
Cu6 O9_2 1_555 1_555
O8_2 C25_2 1_555 1_555
O18 C29_2 1_555 1_555
O11_2 C42_2 1_555 1_555
C25_2 C27_2 1_555 1_555
C26_2 H20_2 1_555 1_555
C27_2 C34_2 1_555 1_555
C28_2 C29_2 1_555 1_555
C30_2 O5_2 1_555 1_555
C32_2 C31_2 1_555 1_555
C33_2 C26_2 1_555 1_555
C34_2 H22_2 1_555 1_555
C35_2 C37_2 1_555 1_555
C36_2 C27_2 1_555 1_555
C37_2 C30_2 1_555 1_555
C38_2 C35_2 1_555 1_555
C39_2 C28_2 1_555 1_555
H25_2 C39_2 1_555 1_555
C40_2 C32_2 1_555 1_555
H26_2 C40_2 1_555 1_555
C42_2 C33_2 1_555 1_555
C43_2 C38_2 1_555 1_555
H28_2 C43_2 1_555 1_555
C44_2 C38_2 1_555 1_555
C45_2 O11_2 1_555 1_555
H30_2 C45_2 1_555 1_555
H31_2 C45_2 1_555 1_555
H32_2 C45_2 1_555 1_555
Cu10 O8_2 1_555 1_555
C26_2 C30_2 1_555 1_555
C31_2 C36_2 1_555 1_555
C32_2 C33_2 1_555 1_555
C34_2 C40_2 1_555 1_555
C35_2 C42_2 1_555 1_555
C39_2 C43_2 1_555 1_555
Cu4 O1_2 1_555 1_555
O1_2 C1_2 1_555 1_555
O2_2 C1_2 1_555 1_555
O3_2 C5_2 1_555 1_555
O17 C5_2 1_555 1_555
O5_3 C6_2 1_555 1_555
O6_2 C21_2 1_555 1_555
N1_2 Cu4 1_555 1_555
C1_2 C3_2 1_555 1_555
C2_2 H1_2 1_555 1_555
C3_2 C10_2 1_555 1_555
C4_2 C5_2 1_555 1_555
C6_2 C2_2 1_555 1_555
C7_2 H2_2 1_555 1_555
C8_2 C7_2 1_555 1_555
C9_2 C2_2 1_555 1_555
C10_2 H3_2 1_555 1_555
C11_2 N1_2 1_555 1_555
H4_2 C11_2 1_555 1_555
H5_2 C11_2 1_555 1_555
C12_2 N1_2 1_555 1_555
H6_2 C12_2 1_555 1_555
H7_2 C12_2 1_555 1_555
C13_2 C15_2 1_555 1_555
C14_2 C3_2 1_555 1_555
H8_2 C14_2 1_555 1_555
C15_2 C6_2 1_555 1_555
C16_2 N1_2 1_555 1_555
H10_2 C16_2 1_555 1_555
H11_2 C16_2 1_555 1_555
C17_2 C13_2 1_555 1_555
C18_2 C4_2 1_555 1_555
H12_2 C18_2 1_555 1_555
C19_2 C8_2 1_555 1_555
H13_2 C19_2 1_555 1_555
C20_2 C4_2 1_555 1_555
H14_2 C20_2 1_555 1_555
C21_2 C9_2 1_555 1_555
C22_2 C17_2 1_555 1_555
H15_2 C22_2 1_555 1_555
C23_2 C17_2 1_555 1_555
H16_2 C23_2 1_555 1_555
C24_2 O6_2 1_555 1_555
H17_2 C24_2 1_555 1_555
H18_2 C24_2 1_555 1_555
H19_2 C24_2 1_555 1_555
N2_2 C46_2 1_555 1_555
C46_2 C16_2 1_555 1_555
H33_2 C46_2 1_555 1_555
H34_2 C46_2 1_555 1_555
C47_2 C12_2 1_555 1_555
H35_2 C47_2 1_555 1_555
H36_2 C47_2 1_555 1_555
C48_2 C11_2 1_555 1_555
H37_2 C48_2 1_555 1_555
H38_2 C48_2 1_555 1_555
Cu5 N2_2 1_555 1_555
Cu8 O3_2 1_555 1_555
O13_2 Cu4 1_555 1_555
O14_2 Cu5 1_555 1_555
O15_2 Cu5 1_555 1_555
O16_2 Cu4 1_555 1_555
O2_2 Cu9 1_555 1_555
C7_2 C14_2 1_555 1_555
C8_2 C9_2 1_555 1_555
C10_2 C19_2 1_555 1_555
C13_2 C21_2 1_555 1_555
C18_2 C22_2 1_555 1_555
C20_2 C23_2 1_555 1_555
N2_2 C47_2 1_555 1_555
N2_2 C48_2 1_555 1_555
H4_3 C11_3 1_555 1_555
C48_3 C11_3 1_555 1_555
H38_3 C48_3 1_555 1_555
H11_3 C16_3 1_555 1_555
C46_3 C16_3 1_555 1_555
H33_3 C46_3 1_555 1_555
N1_3 Cu6 1_555 1_555
C12_3 N1_3 1_555 1_555
H6_3 C12_3 1_555 1_555
H14_3 C20_3 1_555 1_555
H35_3 C47_3 1_555 1_555
Cu8 N2_3 1_555 1_555
N2_3 C47_3 1_555 1_555
O4_2 C5_3 1_555 1_555
O5_4 C6_3 1_555 1_555
O6_3 C21_3 1_555 1_555
C1_3 C3_3 1_555 1_555
C2_3 H1_3 1_555 1_555
C3_3 C10_3 1_555 1_555
C4_3 C5_3 1_555 1_555
C6_3 C2_3 1_555 1_555
C8_3 C7_3 1_555 1_555
C9_3 C2_3 1_555 1_555
C10_3 H3_3 1_555 1_555
C13_3 C15_3 1_555 1_555
C14_3 C3_3 1_555 1_555
C15_3 C6_3 1_555 1_555
H9_3 C15_3 1_555 1_555
C17_3 C13_3 1_555 1_555
C18_3 C4_3 1_555 1_555
H12_3 C18_3 1_555 1_555
C19_3 C8_3 1_555 1_555
H13_3 C19_3 1_555 1_555
C21_3 C9_3 1_555 1_555
C22_3 C17_3 1_555 1_555
H15_3 C22_3 1_555 1_555
C23_3 C17_3 1_555 1_555
C24_3 O6_3 1_555 1_555
H17_3 C24_3 1_555 1_555
H18_3 C24_3 1_555 1_555
H19_3 C24_3 1_555 1_555
O12 C25_3 1_555 1_555
O16_2 C29_3 1_555 1_555
O10_2 C29_3 1_555 1_555
O11_3 C42_3 1_555 1_555
C25_3 C27_3 1_555 1_555
C26_3 H20_3 1_555 1_555
C27_3 C34_3 1_555 1_555
C28_3 C29_3 1_555 1_555
C30_3 O5_4 1_555 1_555
C31_3 H21_3 1_555 1_555
C32_3 C31_3 1_555 1_555
C33_3 C26_3 1_555 1_555
C34_3 H22_3 1_555 1_555
C35_3 C37_3 1_555 1_555
C36_3 C27_3 1_555 1_555
H23_3 C36_3 1_555 1_555
C37_3 C30_3 1_555 1_555
H24_3 C37_3 1_555 1_555
C38_3 C35_3 1_555 1_555
C39_3 C28_3 1_555 1_555
H25_3 C39_3 1_555 1_555
C40_3 C32_3 1_555 1_555
H26_3 C40_3 1_555 1_555
C41_3 C28_3 1_555 1_555
H27_3 C41_3 1_555 1_555
C42_3 C33_3 1_555 1_555
C43_3 C38_3 1_555 1_555
H28_3 C43_3 1_555 1_555
C44_3 C38_3 1_555 1_555
H29_3 C44_3 1_555 1_555
C45_3 O11_3 1_555 1_555
H30_3 C45_3 1_555 1_555
H31_3 C45_3 1_555 1_555
H32_3 C45_3 1_555 1_555
Cu9 O10_2 1_555 1_555
Cu10 O4_2 1_555 1_555
C7_3 C14_3 1_555 1_555
C8_3 C9_3 1_555 1_555
C10_3 C19_3 1_555 1_555
C13_3 C21_3 1_555 1_555
C18_3 C22_3 1_555 1_555
C26_3 C30_3 1_555 1_555
C31_3 C36_3 1_555 1_555
C32_3 C33_3 1_555 1_555
C34_3 C40_3 1_555 1_555
C35_3 C42_3 1_555 1_555
C39_3 C43_3 1_555 1_555
C41_3 C44_3 1_555 1_555
Cu9 O1_4 1_555 1_555
O1_4 C1_4 1_555 1_555
O13_2 C1_4 1_555 1_555
O15 C5_4 1_555 1_555
O17_2 C5_4 1_555 1_555
O5_5 C6_4 1_555 1_555
O6_4 C21_4 1_555 1_555
N1_4 Cu9 1_555 1_555
C1_4 C3_4 1_555 1_555
C2_4 H1_4 1_555 1_555
C3_4 C10_4 1_555 1_555
C4_4 C5_4 1_555 1_555
C6_4 C2_4 1_555 1_555
C7_4 H2_4 1_555 1_555
C8_4 C7_4 1_555 1_555
C9_4 C2_4 1_555 1_555
C10_4 H3_4 1_555 1_555
C11_4 N1_4 1_555 1_555
H4_4 C11_4 1_555 1_555
H5_4 C11_4 1_555 1_555
C12_4 N1_4 1_555 1_555
H6_4 C12_4 1_555 1_555
H7_4 C12_4 1_555 1_555
C13_4 C15_4 1_555 1_555
C14_4 C3_4 1_555 1_555
H8_4 C14_4 1_555 1_555
C15_4 C6_4 1_555 1_555
C16_4 N1_4 1_555 1_555
H10_4 C16_4 1_555 1_555
H11_4 C16_4 1_555 1_555
C17_4 C13_4 1_555 1_555
C18_4 C4_4 1_555 1_555
H12_4 C18_4 1_555 1_555
C19_4 C8_4 1_555 1_555
H13_4 C19_4 1_555 1_555
C20_4 C4_4 1_555 1_555
H14_4 C20_4 1_555 1_555
C21_4 C9_4 1_555 1_555
C22_4 C17_4 1_555 1_555
H15_4 C22_4 1_555 1_555
C23_4 C17_4 1_555 1_555
H16_4 C23_4 1_555 1_555
C24_4 O6_4 1_555 1_555
H17_4 C24_4 1_555 1_555
H18_4 C24_4 1_555 1_555
H19_4 C24_4 1_555 1_555
N2_4 C46_4 1_555 1_555
C46_4 C16_4 1_555 1_555
H33_4 C46_4 1_555 1_555
H34_4 C46_4 1_555 1_555
C47_4 C12_4 1_555 1_555
H35_4 C47_4 1_555 1_555
H36_4 C47_4 1_555 1_555
C48_4 C11_4 1_555 1_555
H37_4 C48_4 1_555 1_555
H38_4 C48_4 1_555 1_555
Cu10 N2_4 1_555 1_555
O12_2 Cu10 1_555 1_555
C7_4 C14_4 1_555 1_555
C8_4 C9_4 1_555 1_555
C10_4 C19_4 1_555 1_555
C13_4 C21_4 1_555 1_555
C18_4 C22_4 1_555 1_555
C20_4 C23_4 1_555 1_555
N2_4 C47_4 1_555 1_555
N2_4 C48_4 1_555 1_555
O14_2 C25_4 1_555 1_555
O18_2 C29_4 1_555 1_555
O11_4 C42_4 1_555 1_555
C25_4 C27_4 1_555 1_555
C26_4 H20_4 1_555 1_555
C27_4 C34_4 1_555 1_555
C28_4 C29_4 1_555 1_555
C30_4 O5_6 1_555 1_555
C32_4 C31_4 1_555 1_555
C33_4 C26_4 1_555 1_555
C34_4 H22_4 1_555 1_555
C35_4 C37_4 1_555 1_555
C36_4 C27_4 1_555 1_555
C37_4 C30_4 1_555 1_555
C38_4 C35_4 1_555 1_555
C39_4 C28_4 1_555 1_555
H25_4 C39_4 1_555 1_555
C40_4 C32_4 1_555 1_555
H26_4 C40_4 1_555 1_555
C42_4 C33_4 1_555 1_555
C43_4 C38_4 1_555 1_555
H28_4 C43_4 1_555 1_555
C44_4 C38_4 1_555 1_555
C45_4 O11_4 1_555 1_555
H30_4 C45_4 1_555 1_555
H31_4 C45_4 1_555 1_555
H32_4 C45_4 1_555 1_555
C26_4 C30_4 1_555 1_555
C31_4 C36_4 1_555 1_555
C32_4 C33_4 1_555 1_555
C34_4 C40_4 1_555 1_555
C35_4 C42_4 1_555 1_555
C39_4 C43_4 1_555 1_555
H27_4 C41_4 1_555 1_555

#END
