
###############################################################################
#
# This file contains modified crystal structure data generated from the
# MOF subset of the Cambridge Structural Database (CSD) v543 
# hosted by the Cambridge Crystallographic Data Centre (CCDC).
#
# This work is licensed under the Creative Commons
# Attribution-NonCommercial-ShareAlike 4.0 International License.
# To view a copy of this license, visit
# http://creativecommons.org/licenses/by-nc-sa/4.0/
# or send a letter to
# Creative Commons, PO Box 1866, Mountain View, CA 94042, USA.
#
# CIF created using the CSD Python API on 29 September 2022
# The structure has been converted into the P1 space group
# The structure has a 3D framework
# The original CSD entry TUGREV03 is in the monoclinic crystal system
# The framework has been calculated to contain at least 10.0% void space
# The void calculation uses a probe of radius 1.32A, grid spacing 0.4
#
###############################################################################

data_TUGREV03
_chemical_formula_moiety         '(C192 H152 Cu6 N8 O38)n'
_symmetry_cell_setting           triclinic
_symmetry_space_group_name_H-M   'P 1'
_symmetry_Int_Tables_number      1
_space_group_name_Hall           'P 1'
loop_
_symmetry_equiv_pos_site_id
_symmetry_equiv_pos_as_xyz
1 x,y,z
_cell_length_a                   19.0238(6)
_cell_length_b                   23.2674(8)
_cell_length_c                   23.0030(7)
_cell_angle_alpha                90
_cell_angle_beta                 104.910(2)
_cell_angle_gamma                90
_cell_volume                     9839.11
loop_
_atom_site_label
_atom_site_type_symbol
_atom_site_fract_x
_atom_site_fract_y
_atom_site_fract_z
Cu1 Cu 0.06852(2) 0.01582(2) 0.00359(2)
N1 N 0.18188(10) 0.02370(8) 0.00128(8)
H9 H 0.222900 0.010609 0.090808
C22 C 0.20976(15) 0.08252(12) 0.00099(16)
H14 H 0.205179 0.102528 0.036823
H33 H 0.336233 0.014150 0.089025
H38 H 0.319131 0.102952 0.033755
O13 O 0.04349(10) 0.09544(7) 0.01748(8)
O14 O 0.08425(9) 0.00144(8) 0.08977(7)
O1 O 0.02980(9) 0.02764(8) 0.91691(7)
O2 O 0.04349(10) 0.40456(7) 0.51748(8)
H3 H 0.045371 0.047080 0.814683
H4 H 0.012919 0.076468 0.715474
H5 H 0.163767 0.014150 0.910975
C21 C 0.00653(16) 0.29169(12) 0.54572(13)
H13 H 0.055406 0.299175 0.548949
H15 H 0.180869 0.102952 0.966245
H16 H 0.021225 0.209094 0.570968
N2 N 0.31812(10) 0.02370(8) 0.99872(8)
H36 H 0.277100 0.010609 0.909192
C48 C 0.29024(15) 0.08252(12) 0.99901(16)
H37 H 0.294821 0.102528 0.963177
Cu3 Cu 0.43148(2) 0.01582(2) 0.99641(2)
Cu9 Cu 0.06852(2) 0.48418(2) 0.50359(2)
C17 C 0.22842(14) 0.99288(14) 0.05407(12)
H8 H 0.212419 0.953262 0.053678
C46 C 0.30837(14) 0.99421(15) 0.05351(12)
H34 H 0.326680 0.955207 0.054676
C13 C 0.19163(14) 0.99421(15) 0.94649(12)
H6 H 0.173320 0.955207 0.945324
C47 C 0.27158(14) 0.99288(14) 0.94593(12)
H35 H 0.287581 0.953262 0.946322
O17 O 0.07112(9) 0.93252(8) 0.99122(8)
O4 O 0.92888(9) 0.43252(8) 0.50878(8)
O5 O 0.750000 0.05876(10) 0.500000
O6 O 0.96654(12) 0.17243(10) 0.66682(9)
C1 C 0.94367(14) 0.03428(11) 0.82283(10)
C2 C 0.96512(13) 0.01893(10) 0.88855(9)
C3 C 0.97845(14) 0.39473(11) 0.51754(10)
C4 C 0.95678(15) 0.33510(11) 0.52842(11)
C5 C 0.82718(15) 0.06695(11) 0.59804(10)
H1 H 0.806139 0.033578 0.608135
C6 C 0.80361(15) 0.08913(11) 0.54056(10)
C7 C 0.88151(15) 0.09384(11) 0.64040(10)
C8 C 0.90481(15) 0.07085(11) 0.70368(10)
C9 C 0.83332(16) 0.13902(11) 0.52577(10)
H2 H 0.816782 0.154082 0.487207
C10 C 0.99650(15) 0.04911(12) 0.79405(10)
C11 C 0.88743(16) 0.16702(11) 0.56752(11)
C12 C 0.97699(15) 0.06699(13) 0.73463(10)
C14 C 0.91391(16) 0.22476(12) 0.55260(11)
C15 C 0.87152(15) 0.03611(13) 0.79147(10)
H7 H 0.835797 0.024947 0.810176
C16 C 0.91185(16) 0.14419(12) 0.62472(11)
C18 C 0.88403(16) 0.32161(13) 0.52110(14)
H10 H 0.849046 0.350047 0.508622
C19 C 0.85183(15) 0.05456(13) 0.73196(11)
H11 H 0.802994 0.055962 0.711110
C20 C 0.86274(17) 0.26771(13) 0.53175(14)
H12 H 0.813462 0.259458 0.525034
C23 C 0.98611(17) 0.23742(13) 0.55840(14)
C24 C 0.9385(3) 0.21331(17) 0.70157(16)
H17 H 0.908224 0.240479 0.675137
H18 H 0.978210 0.233181 0.728262
H19 H 0.910429 0.193713 0.724634
O7 O 0.47020(9) 0.02764(8) 0.08309(7)
O8 O 0.45651(10) 0.40456(7) 0.48252(8)
O10 O 0.57112(9) 0.43252(8) 0.49122(8)
O11 O 0.53346(12) 0.17243(10) 0.33318(9)
C25 C 0.55633(14) 0.03428(11) 0.17717(10)
C26 C 0.53488(13) 0.01893(10) 0.11145(9)
C27 C 0.52155(14) 0.39473(11) 0.48246(10)
C28 C 0.54322(15) 0.33510(11) 0.47158(11)
C29 C 0.67282(15) 0.06695(11) 0.40196(10)
H20 H 0.693861 0.033578 0.391865
C30 C 0.69639(15) 0.08913(11) 0.45944(10)
C31 C 0.61849(15) 0.09384(11) 0.35960(10)
C32 C 0.59519(15) 0.07085(11) 0.29632(10)
C33 C 0.66668(16) 0.13902(11) 0.47423(10)
H21 H 0.683218 0.154082 0.512793
C34 C 0.50350(15) 0.04911(12) 0.20595(10)
H22 H 0.454629 0.047080 0.185317
C35 C 0.61257(16) 0.16702(11) 0.43248(11)
C36 C 0.52301(15) 0.06699(13) 0.26537(10)
H23 H 0.487081 0.076468 0.284526
C37 C 0.58609(16) 0.22476(12) 0.44740(11)
C38 C 0.62848(15) 0.03611(13) 0.20853(10)
H24 H 0.664203 0.024947 0.189824
C39 C 0.58815(16) 0.14419(12) 0.37528(11)
C40 C 0.61597(16) 0.32161(13) 0.47890(14)
H25 H 0.650954 0.350047 0.491378
C41 C 0.64817(15) 0.05456(13) 0.26804(11)
H26 H 0.697006 0.055962 0.288890
C42 C 0.63726(17) 0.26771(13) 0.46825(14)
H27 H 0.686538 0.259458 0.474966
C43 C 0.49347(16) 0.29169(12) 0.45428(13)
H28 H 0.444594 0.299175 0.451051
C44 C 0.51389(17) 0.23742(13) 0.44160(14)
H29 H 0.478775 0.209094 0.429032
C45 C 0.5615(3) 0.21331(17) 0.29843(16)
H30 H 0.591776 0.240479 0.324863
H31 H 0.521790 0.233181 0.271738
H32 H 0.589571 0.193713 0.275366
Cu4 Cu 0.56852(2) 0.51582(2) 0.50359(2)
Cu5 Cu 0.93148(2) 0.51582(2) 0.49641(2)
Cu8 Cu 0.43148(2) 0.48418(2) 0.49641(2)
O12 O 0.45651(10) 0.09544(7) 0.98252(8)
O15 O 0.41575(9) 0.00144(8) 0.91023(7)
O3 O 0.91575(9) 0.99856(8) 0.91023(7)
O9 O 0.58425(9) 0.99856(8) 0.08977(7)
Cu6 Cu 0.93148(2) 0.98418(2) 0.99641(2)
Cu7 Cu 0.56852(2) 0.98418(2) 0.00359(2)
O16 O 0.42888(9) 0.93252(8) 0.00878(8)
O1_2 O 0.52980(9) 0.52764(8) 0.41691(7)
O2_2 O 0.54349(10) 0.90456(7) 0.01748(8)
O3_2 O 0.41575(9) 0.49856(8) 0.41023(7)
O5_2 O 0.250000 0.55876(10) 0.000000
O6_2 O 0.46654(12) 0.67243(10) 0.16682(9)
N1_2 N 0.68188(10) 0.52370(8) 0.50128(8)
C1_2 C 0.44367(14) 0.53428(11) 0.32283(10)
C2_2 C 0.46512(13) 0.51893(10) 0.38855(9)
C3_2 C 0.47845(14) 0.89473(11) 0.01754(10)
C4_2 C 0.45678(15) 0.83510(11) 0.02842(11)
C5_2 C 0.32718(15) 0.56695(11) 0.09804(10)
H1_2 H 0.306139 0.533578 0.108135
C6_2 C 0.30361(15) 0.58913(11) 0.04056(10)
C7_2 C 0.38151(15) 0.59384(11) 0.14040(10)
C8_2 C 0.40481(15) 0.57085(11) 0.20368(10)
C9_2 C 0.33332(16) 0.63902(11) 0.02577(10)
C10_2 C 0.49650(15) 0.54911(12) 0.29405(10)
H3_2 H 0.545371 0.547080 0.314683
C11_2 C 0.38743(16) 0.66702(11) 0.06752(11)
C12_2 C 0.47699(15) 0.56699(13) 0.23463(10)
H4_2 H 0.512919 0.576468 0.215474
C13_2 C 0.69163(14) 0.49421(15) 0.44649(12)
H5_2 H 0.663767 0.514150 0.410975
H6_2 H 0.673320 0.455207 0.445324
C14_2 C 0.41391(16) 0.72476(12) 0.05260(11)
C15_2 C 0.37152(15) 0.53611(13) 0.29147(10)
H7_2 H 0.335797 0.524947 0.310176
C16_2 C 0.41185(16) 0.64419(12) 0.12472(11)
C17_2 C 0.72842(14) 0.49288(14) 0.55407(12)
H8_2 H 0.712419 0.453262 0.553678
H9_2 H 0.722900 0.510609 0.590808
C18_2 C 0.38403(16) 0.82161(13) 0.02110(14)
H10_2 H 0.349046 0.850047 0.008622
C19_2 C 0.35183(15) 0.55456(13) 0.23196(11)
H11_2 H 0.302994 0.555962 0.211110
C20_2 C 0.36274(17) 0.76771(13) 0.03175(14)
H12_2 H 0.313462 0.759458 0.025034
C21_2 C 0.50653(16) 0.79169(12) 0.04572(13)
H13_2 H 0.555406 0.799175 0.048949
C22_2 C 0.70976(15) 0.58252(12) 0.50099(16)
H14_2 H 0.705179 0.602528 0.536823
H15_2 H 0.680869 0.602952 0.466245
C23_2 C 0.48611(17) 0.73742(13) 0.05840(14)
H16_2 H 0.521225 0.709094 0.070968
C24_2 C 0.4385(3) 0.71331(17) 0.20157(16)
H17_2 H 0.408224 0.740479 0.175137
H18_2 H 0.478210 0.733181 0.228262
H19_2 H 0.410429 0.693713 0.224634
H21_2 H 0.183218 0.654082 0.012793
N2_2 N 0.81812(10) 0.52370(8) 0.49872(8)
C46_2 C 0.80837(14) 0.49421(15) 0.55351(12)
H33_2 H 0.836233 0.514150 0.589025
H34_2 H 0.826680 0.455207 0.554676
C47_2 C 0.77158(14) 0.49288(14) 0.44593(12)
H35_2 H 0.787581 0.453262 0.446322
H36_2 H 0.777100 0.510609 0.409192
C48_2 C 0.79024(15) 0.58252(12) 0.49901(16)
H37_2 H 0.794821 0.602528 0.463177
H38_2 H 0.819131 0.602952 0.533755
O13_2 O 0.54349(10) 0.59544(7) 0.51748(8)
O14_2 O 0.58425(9) 0.50144(8) 0.58977(7)
O5_3 O 0.250000 0.55876(10) 1.000000
H2_2 H 0.316782 0.654082 0.987207
O9_2 O 0.08425(9) 0.49856(8) 0.58977(7)
O11_2 O 0.03346(12) 0.67243(10) 0.83318(9)
C25_2 C 0.05633(14) 0.53428(11) 0.67717(10)
C26_2 C 0.03488(13) 0.51893(10) 0.61145(9)
C27_2 C 0.02155(14) 0.89473(11) 0.98246(10)
C28_2 C 0.04322(15) 0.83510(11) 0.97158(11)
C29_2 C 0.17282(15) 0.56695(11) 0.90196(10)
H20_2 H 0.193861 0.533578 0.891865
C30_2 C 0.19639(15) 0.58913(11) 0.95944(10)
C31_2 C 0.11849(15) 0.59384(11) 0.85960(10)
C32_2 C 0.09519(15) 0.57085(11) 0.79632(10)
C33_2 C 0.16668(16) 0.63902(11) 0.97423(10)
C34_2 C 0.00350(15) 0.54911(12) 0.70595(10)
C35_2 C 0.11257(16) 0.66702(11) 0.93248(11)
C36_2 C 0.02301(15) 0.56699(13) 0.76537(10)
C37_2 C 0.08609(16) 0.72476(12) 0.94740(11)
C38_2 C 0.12848(15) 0.53611(13) 0.70853(10)
H24_2 H 0.164203 0.524947 0.689824
C39_2 C 0.08815(16) 0.64419(12) 0.87528(11)
C40_2 C 0.11597(16) 0.82161(13) 0.97890(14)
H25_2 H 0.150954 0.850047 0.991378
C41_2 C 0.14817(15) 0.55456(13) 0.76804(11)
H26_2 H 0.197006 0.555962 0.788890
C42_2 C 0.13726(17) 0.76771(13) 0.96825(14)
H27_2 H 0.186538 0.759458 0.974966
C44_2 C 0.01389(17) 0.73742(13) 0.94160(14)
C45_2 C 0.0615(3) 0.71331(17) 0.79843(16)
H30_2 H 0.091776 0.740479 0.824863
H31_2 H 0.021790 0.733181 0.771738
H32_2 H 0.089571 0.693713 0.775366
O7_2 O 0.97020(9) 0.52764(8) 0.58309(7)
O8_2 O 0.95651(10) 0.90456(7) 0.98252(8)
H22_2 H 0.954629 0.547080 0.685317
H23_2 H 0.987081 0.576468 0.784526
C43_2 C 0.99347(16) 0.79169(12) 0.95428(13)
H28_2 H 0.944594 0.799175 0.951051
H29_2 H 0.978775 0.709094 0.929032
O12_2 O 0.95651(10) 0.59544(7) 0.48252(8)
O15_2 O 0.91575(9) 0.50144(8) 0.41023(7)
O16_2 O 0.57112(9) 0.06748(8) 0.99122(8)
N3 N 0.68188(10) 0.97630(8) 0.00128(8)
O4_2 O 0.07112(9) 0.56748(8) 0.49122(8)
O5_4 O 0.250000 0.94124(10) 0.500000
O6_3 O 0.03346(12) 0.82757(10) 0.33318(9)
C1_3 C 0.05633(14) 0.96572(11) 0.17717(10)
C2_3 C 0.03488(13) 0.98107(10) 0.11145(9)
C3_3 C 0.02155(14) 0.60527(11) 0.48246(10)
C4_3 C 0.04322(15) 0.66490(11) 0.47158(11)
C5_3 C 0.17282(15) 0.93305(11) 0.40196(10)
H1_3 H 0.193861 0.966422 0.391865
C6_3 C 0.19639(15) 0.91087(11) 0.45944(10)
C7_3 C 0.11849(15) 0.90616(11) 0.35960(10)
C8_3 C 0.09519(15) 0.92915(11) 0.29632(10)
C9_3 C 0.16668(16) 0.86098(11) 0.47423(10)
H2_3 H 0.183218 0.845918 0.512793
C10_3 C 0.00350(15) 0.95089(12) 0.20595(10)
C11_3 C 0.11257(16) 0.83298(11) 0.43248(11)
C12_3 C 0.02301(15) 0.93301(13) 0.26537(10)
C14_3 C 0.08609(16) 0.77524(12) 0.44740(11)
C15_3 C 0.12848(15) 0.96389(13) 0.20853(10)
H7_3 H 0.164203 0.975053 0.189824
C16_3 C 0.08815(16) 0.85581(12) 0.37528(11)
C18_3 C 0.11597(16) 0.67839(13) 0.47890(14)
H10_3 H 0.150954 0.649953 0.491378
C19_3 C 0.14817(15) 0.94544(13) 0.26804(11)
H11_3 H 0.197006 0.944038 0.288890
C20_3 C 0.13726(17) 0.73229(13) 0.46825(14)
H12_3 H 0.186538 0.740542 0.474966
C23_3 C 0.01389(17) 0.76258(13) 0.44160(14)
C24_3 C 0.0615(3) 0.78669(17) 0.29843(16)
H17_3 H 0.091776 0.759521 0.324863
H18_3 H 0.021790 0.766819 0.271738
H19_3 H 0.089571 0.806287 0.275366
O7_3 O 0.52980(9) 0.97236(8) 0.91691(7)
O10_2 O 0.42888(9) 0.56748(8) 0.50878(8)
O11_3 O 0.46654(12) 0.82757(10) 0.66682(9)
C25_3 C 0.44367(14) 0.96572(11) 0.82283(10)
C26_3 C 0.46512(13) 0.98107(10) 0.88855(9)
C27_3 C 0.47845(14) 0.60527(11) 0.51754(10)
C28_3 C 0.45678(15) 0.66490(11) 0.52842(11)
C29_3 C 0.32718(15) 0.93305(11) 0.59804(10)
H20_3 H 0.306139 0.966422 0.608135
C30_3 C 0.30361(15) 0.91087(11) 0.54056(10)
C31_3 C 0.38151(15) 0.90616(11) 0.64040(10)
C32_3 C 0.40481(15) 0.92915(11) 0.70368(10)
C33_3 C 0.33332(16) 0.86098(11) 0.52577(10)
H21_3 H 0.316782 0.845918 0.487207
C34_3 C 0.49650(15) 0.95089(12) 0.79405(10)
H22_3 H 0.545371 0.952920 0.814683
C35_3 C 0.38743(16) 0.83298(11) 0.56752(11)
C36_3 C 0.47699(15) 0.93301(13) 0.73463(10)
H23_3 H 0.512919 0.923532 0.715474
C37_3 C 0.41391(16) 0.77524(12) 0.55260(11)
C38_3 C 0.37152(15) 0.96389(13) 0.79147(10)
H24_3 H 0.335797 0.975053 0.810176
C39_3 C 0.41185(16) 0.85581(12) 0.62472(11)
C40_3 C 0.38403(16) 0.67839(13) 0.52110(14)
H25_3 H 0.349046 0.649953 0.508622
C41_3 C 0.35183(15) 0.94544(13) 0.73196(11)
H26_3 H 0.302994 0.944038 0.711110
C42_3 C 0.36274(17) 0.73229(13) 0.53175(14)
H27_3 H 0.313462 0.740542 0.525034
C43_3 C 0.50653(16) 0.70831(12) 0.54572(13)
H28_3 H 0.555406 0.700825 0.548949
C44_3 C 0.48611(17) 0.76258(13) 0.55840(14)
H29_3 H 0.521225 0.790906 0.570968
C45_3 C 0.4385(3) 0.78669(17) 0.70157(16)
H30_3 H 0.408224 0.759521 0.675137
H31_3 H 0.478210 0.766819 0.728262
H32_3 H 0.410429 0.806287 0.724634
C13_3 C 0.80837(14) 0.00579(15) 0.05351(12)
H6_3 H 0.826680 0.044793 0.054676
C47_3 C 0.72842(14) 0.00712(14) 0.05407(12)
H35_3 H 0.712419 0.046738 0.053678
O17_2 O 0.92888(9) 0.06748(8) 0.00878(8)
C17_3 C 0.77158(14) 0.00712(14) 0.94593(12)
H8_3 H 0.787581 0.046738 0.946322
C46_3 C 0.69163(14) 0.00579(15) 0.94649(12)
H34_3 H 0.673320 0.044793 0.945324
O1_3 O 0.97020(9) 0.97236(8) 0.08309(7)
H3_3 H 0.954629 0.952920 0.185317
H4_3 H 0.987081 0.923532 0.284526
H5_3 H 0.836233 0.985850 0.089025
C21_3 C 0.99347(16) 0.70831(12) 0.45428(13)
H13_3 H 0.944594 0.700825 0.451051
H15_3 H 0.819131 0.897048 0.033755
H16_3 H 0.978775 0.790906 0.429032
H36_3 H 0.722900 0.989391 0.090808
C48_3 C 0.70976(15) 0.91748(12) 0.00099(16)
H37_3 H 0.705179 0.897472 0.036823
N1_3 N 0.81812(10) 0.97630(8) 0.99872(8)
H9_3 H 0.777100 0.989391 0.909192
C22_3 C 0.79024(15) 0.91748(12) 0.99901(16)
H14_3 H 0.794821 0.897472 0.963177
H33_3 H 0.663767 0.985850 0.910975
H38_3 H 0.680869 0.897048 0.966245
O7_4 O 0.02980(9) 0.47236(8) 0.41691(7)
H22_4 H 0.045371 0.452920 0.314683
H23_4 H 0.012919 0.423532 0.215474
C43_4 C 0.00653(16) 0.20831(12) 0.04572(13)
H28_4 H 0.055406 0.200825 0.048949
H29_4 H 0.021225 0.290906 0.070968
N3_2 N 0.18188(10) 0.47630(8) 0.50128(8)
O5_5 O 0.750000 0.44124(10) 0.000000
H2_4 H 0.683218 0.345918 0.012793
O11_4 O 0.96654(12) 0.32757(10) 0.16682(9)
C25_4 C 0.94367(14) 0.46572(11) 0.32283(10)
C26_4 C 0.96512(13) 0.48107(10) 0.38855(9)
C27_4 C 0.97845(14) 0.10527(11) 0.01754(10)
C28_4 C 0.95678(15) 0.16490(11) 0.02842(11)
C29_4 C 0.82718(15) 0.43305(11) 0.09804(10)
H20_4 H 0.806139 0.466422 0.108135
C30_4 C 0.80361(15) 0.41087(11) 0.04056(10)
C31_4 C 0.88151(15) 0.40616(11) 0.14040(10)
C32_4 C 0.90481(15) 0.42915(11) 0.20368(10)
C33_4 C 0.83332(16) 0.36098(11) 0.02577(10)
C34_4 C 0.99650(15) 0.45089(12) 0.29405(10)
C35_4 C 0.88743(16) 0.33298(11) 0.06752(11)
C36_4 C 0.97699(15) 0.43301(13) 0.23463(10)
C37_4 C 0.91391(16) 0.27524(12) 0.05260(11)
C38_4 C 0.87152(15) 0.46389(13) 0.29147(10)
H24_4 H 0.835797 0.475053 0.310176
C39_4 C 0.91185(16) 0.35581(12) 0.12472(11)
C40_4 C 0.88403(16) 0.17839(13) 0.02110(14)
H25_4 H 0.849046 0.149953 0.008622
C41_4 C 0.85183(15) 0.44544(13) 0.23196(11)
H26_4 H 0.802994 0.444038 0.211110
C42_4 C 0.86274(17) 0.23229(13) 0.03175(14)
H27_4 H 0.813462 0.240542 0.025034
C44_4 C 0.98611(17) 0.26258(13) 0.05840(14)
C45_4 C 0.9385(3) 0.28669(17) 0.20157(16)
H30_4 H 0.908224 0.259521 0.175137
H31_4 H 0.978210 0.266819 0.228262
H32_4 H 0.910429 0.306287 0.224634
O1_4 O 0.47020(9) 0.47236(8) 0.58309(7)
O5_6 O 0.750000 0.44124(10) 1.000000
O6_4 O 0.53346(12) 0.32757(10) 0.83318(9)
N1_4 N 0.31812(10) 0.47630(8) 0.49872(8)
C1_4 C 0.55633(14) 0.46572(11) 0.67717(10)
C2_4 C 0.53488(13) 0.48107(10) 0.61145(9)
C3_4 C 0.52155(14) 0.10527(11) 0.98246(10)
C4_4 C 0.54322(15) 0.16490(11) 0.97158(11)
C5_4 C 0.67282(15) 0.43305(11) 0.90196(10)
H1_4 H 0.693861 0.466422 0.891865
C6_4 C 0.69639(15) 0.41087(11) 0.95944(10)
C7_4 C 0.61849(15) 0.40616(11) 0.85960(10)
C8_4 C 0.59519(15) 0.42915(11) 0.79632(10)
C9_4 C 0.66668(16) 0.36098(11) 0.97423(10)
C10_4 C 0.50350(15) 0.45089(12) 0.70595(10)
H3_4 H 0.454629 0.452920 0.685317
C11_4 C 0.61257(16) 0.33298(11) 0.93248(11)
C12_4 C 0.52301(15) 0.43301(13) 0.76537(10)
H4_4 H 0.487081 0.423532 0.784526
C13_4 C 0.30837(14) 0.50579(15) 0.55351(12)
H5_4 H 0.336233 0.485850 0.589025
H6_4 H 0.326680 0.544793 0.554676
C14_4 C 0.58609(16) 0.27524(12) 0.94740(11)
C15_4 C 0.62848(15) 0.46389(13) 0.70853(10)
H7_4 H 0.664203 0.475053 0.689824
C16_4 C 0.58815(16) 0.35581(12) 0.87528(11)
C17_4 C 0.27158(14) 0.50712(14) 0.44593(12)
H8_4 H 0.287581 0.546738 0.446322
H9_4 H 0.277100 0.489391 0.409192
C18_4 C 0.61597(16) 0.17839(13) 0.97890(14)
H10_4 H 0.650954 0.149953 0.991378
C19_4 C 0.64817(15) 0.44544(13) 0.76804(11)
H11_4 H 0.697006 0.444038 0.788890
C20_4 C 0.63726(17) 0.23229(13) 0.96825(14)
H12_4 H 0.686538 0.240542 0.974966
C21_4 C 0.49347(16) 0.20831(12) 0.95428(13)
H13_4 H 0.444594 0.200825 0.951051
C22_4 C 0.29024(15) 0.41748(12) 0.49901(16)
H14_4 H 0.294821 0.397472 0.463177
H15_4 H 0.319131 0.397048 0.533755
C23_4 C 0.51389(17) 0.26258(13) 0.94160(14)
H16_4 H 0.478775 0.290906 0.929032
C24_4 C 0.5615(3) 0.28669(17) 0.79843(16)
H17_4 H 0.591776 0.259521 0.824863
H18_4 H 0.521790 0.266819 0.771738
H19_4 H 0.589571 0.306287 0.775366
H21_4 H 0.816782 0.345918 0.987207
C46_4 C 0.19163(14) 0.50579(15) 0.44649(12)
H33_4 H 0.163767 0.485850 0.410975
H34_4 H 0.173320 0.544793 0.445324
C47_4 C 0.22842(14) 0.50712(14) 0.55407(12)
H35_4 H 0.212419 0.546738 0.553678
H36_4 H 0.222900 0.489391 0.590808
C48_4 C 0.20976(15) 0.41748(12) 0.50099(16)
H37_4 H 0.205179 0.397472 0.536823
H38_4 H 0.180869 0.397048 0.466245
loop_
_geom_bond_atom_site_label_1
_geom_bond_atom_site_label_2
_geom_bond_site_symmetry_1
_geom_bond_site_symmetry_2
N1 Cu1 1_555 1_555
C22 N1 1_555 1_555
H14 C22 1_555 1_555
O13 Cu1 1_555 1_555
O14 Cu1 1_555 1_555
H13 C21 1_555 1_555
H37 C48 1_555 1_555
Cu3 N2 1_555 1_555
Cu9 O2 1_555 1_555
N2 C48 1_555 1_555
H8 C17 1_555 1_555
C46 C17 1_555 1_555
H34 C46 1_555 1_555
H6 C13 1_555 1_555
C47 C13 1_555 1_555
H35 C47 1_555 1_555
O4 C3 1_555 1_555
O5 C6 1_555 1_555
O6 C16 1_555 1_555
C1 C2 1_555 1_555
C3 C4 1_555 1_555
C4 C18 1_555 1_555
C5 H1 1_555 1_555
C6 C5 1_555 1_555
C7 C5 1_555 1_555
C8 C7 1_555 1_555
C9 C6 1_555 1_555
H2 C9 1_555 1_555
C10 C1 1_555 1_555
C11 C9 1_555 1_555
C12 C8 1_555 1_555
C14 C11 1_555 1_555
C15 C1 1_555 1_555
H7 C15 1_555 1_555
C16 C7 1_555 1_555
C18 H10 1_555 1_555
C19 C8 1_555 1_555
H11 C19 1_555 1_555
C20 C14 1_555 1_555
H12 C20 1_555 1_555
C23 C14 1_555 1_555
C24 O6 1_555 1_555
H17 C24 1_555 1_555
H18 C24 1_555 1_555
H19 C24 1_555 1_555
O7 C26 1_555 1_555
O8 C27 1_555 1_555
O10 C27 1_555 1_555
O11 C39 1_555 1_555
C25 C26 1_555 1_555
C27 C28 1_555 1_555
C28 C40 1_555 1_555
C29 H20 1_555 1_555
C30 O5 1_555 1_555
C31 C29 1_555 1_555
C32 C31 1_555 1_555
C33 C30 1_555 1_555
H21 C33 1_555 1_555
C34 C25 1_555 1_555
H22 C34 1_555 1_555
C35 C33 1_555 1_555
C36 C32 1_555 1_555
H23 C36 1_555 1_555
C37 C35 1_555 1_555
C38 C25 1_555 1_555
H24 C38 1_555 1_555
C39 C31 1_555 1_555
C40 H25 1_555 1_555
C41 C32 1_555 1_555
H26 C41 1_555 1_555
C42 C37 1_555 1_555
H27 C42 1_555 1_555
C43 C28 1_555 1_555
H28 C43 1_555 1_555
C44 C37 1_555 1_555
H29 C44 1_555 1_555
C45 O11 1_555 1_555
H30 C45 1_555 1_555
H31 C45 1_555 1_555
H32 C45 1_555 1_555
Cu4 O10 1_555 1_555
Cu5 O4 1_555 1_555
Cu8 O8 1_555 1_555
C10 C12 1_555 1_555
C11 C16 1_555 1_555
C15 C19 1_555 1_555
C18 C20 1_555 1_555
C29 C30 1_555 1_555
C34 C36 1_555 1_555
C35 C39 1_555 1_555
C38 C41 1_555 1_555
C40 C42 1_555 1_555
C43 C44 1_555 1_555
Cu4 Cu8 1_555 1_555
O12 Cu3 1_555 1_555
O15 Cu3 1_555 1_555
Cu7 O9 1_555 1_555
O3 Cu6 1_555 1_555
Cu4 O1_2 1_555 1_555
O1_2 C2_2 1_555 1_555
O2_2 C3_2 1_555 1_555
O3_2 C2_2 1_555 1_555
O16 C3_2 1_555 1_555
O5_2 C6_2 1_555 1_555
O6_2 C16_2 1_555 1_555
N1_2 Cu4 1_555 1_555
C1_2 C2_2 1_555 1_555
C3_2 C4_2 1_555 1_555
C4_2 C18_2 1_555 1_555
C5_2 H1_2 1_555 1_555
C6_2 C5_2 1_555 1_555
C7_2 C5_2 1_555 1_555
C8_2 C7_2 1_555 1_555
C9_2 C6_2 1_555 1_555
C10_2 C1_2 1_555 1_555
H3_2 C10_2 1_555 1_555
C11_2 C9_2 1_555 1_555
C12_2 C8_2 1_555 1_555
H4_2 C12_2 1_555 1_555
C13_2 N1_2 1_555 1_555
H5_2 C13_2 1_555 1_555
H6_2 C13_2 1_555 1_555
C14_2 C11_2 1_555 1_555
C15_2 C1_2 1_555 1_555
H7_2 C15_2 1_555 1_555
C16_2 C7_2 1_555 1_555
C17_2 N1_2 1_555 1_555
H8_2 C17_2 1_555 1_555
H9_2 C17_2 1_555 1_555
C18_2 H10_2 1_555 1_555
C19_2 C8_2 1_555 1_555
H11_2 C19_2 1_555 1_555
C20_2 C14_2 1_555 1_555
H12_2 C20_2 1_555 1_555
C21_2 C4_2 1_555 1_555
H13_2 C21_2 1_555 1_555
C22_2 N1_2 1_555 1_555
H14_2 C22_2 1_555 1_555
H15_2 C22_2 1_555 1_555
C23_2 C14_2 1_555 1_555
H16_2 C23_2 1_555 1_555
C24_2 O6_2 1_555 1_555
H17_2 C24_2 1_555 1_555
H18_2 C24_2 1_555 1_555
H19_2 C24_2 1_555 1_555
N2_2 C46_2 1_555 1_555
C46_2 C17_2 1_555 1_555
H33_2 C46_2 1_555 1_555
H34_2 C46_2 1_555 1_555
C47_2 C13_2 1_555 1_555
H35_2 C47_2 1_555 1_555
H36_2 C47_2 1_555 1_555
C48_2 C22_2 1_555 1_555
H37_2 C48_2 1_555 1_555
H38_2 C48_2 1_555 1_555
Cu5 N2_2 1_555 1_555
Cu7 O2_2 1_555 1_555
O13_2 Cu4 1_555 1_555
O14_2 Cu4 1_555 1_555
O3_2 Cu8 1_555 1_555
C10_2 C12_2 1_555 1_555
C11_2 C16_2 1_555 1_555
C15_2 C19_2 1_555 1_555
C18_2 C20_2 1_555 1_555
C21_2 C23_2 1_555 1_555
N2_2 C47_2 1_555 1_555
N2_2 C48_2 1_555 1_555
O9_2 C26_2 1_555 1_555
O17 C27_2 1_555 1_555
O11_2 C39_2 1_555 1_555
C25_2 C26_2 1_555 1_555
C27_2 C28_2 1_555 1_555
C28_2 C40_2 1_555 1_555
C29_2 H20_2 1_555 1_555
C30_2 O5_3 1_555 1_555
C31_2 C29_2 1_555 1_555
C32_2 C31_2 1_555 1_555
C33_2 C30_2 1_555 1_555
C34_2 C25_2 1_555 1_555
C35_2 C33_2 1_555 1_555
C36_2 C32_2 1_555 1_555
C37_2 C35_2 1_555 1_555
C38_2 C25_2 1_555 1_555
H24_2 C38_2 1_555 1_555
C39_2 C31_2 1_555 1_555
C40_2 H25_2 1_555 1_555
C41_2 C32_2 1_555 1_555
H26_2 C41_2 1_555 1_555
C42_2 C37_2 1_555 1_555
H27_2 C42_2 1_555 1_555
C44_2 C37_2 1_555 1_555
C45_2 O11_2 1_555 1_555
H30_2 C45_2 1_555 1_555
H31_2 C45_2 1_555 1_555
H32_2 C45_2 1_555 1_555
Cu9 O9_2 1_555 1_555
C29_2 C30_2 1_555 1_555
C34_2 C36_2 1_555 1_555
C35_2 C39_2 1_555 1_555
C38_2 C41_2 1_555 1_555
C40_2 C42_2 1_555 1_555
H28_2 C43_2 1_555 1_555
Cu5 O7_2 1_555 1_555
Cu6 O8_2 1_555 1_555
O12_2 Cu5 1_555 1_555
O15_2 Cu5 1_555 1_555
N3 Cu7 1_555 1_555
O4_2 C3_3 1_555 1_555
O5_4 C6_3 1_555 1_555
O6_3 C16_3 1_555 1_555
C1_3 C2_3 1_555 1_555
C3_3 C4_3 1_555 1_555
C4_3 C18_3 1_555 1_555
C5_3 H1_3 1_555 1_555
C6_3 C5_3 1_555 1_555
C7_3 C5_3 1_555 1_555
C8_3 C7_3 1_555 1_555
C9_3 C6_3 1_555 1_555
H2_3 C9_3 1_555 1_555
C10_3 C1_3 1_555 1_555
C11_3 C9_3 1_555 1_555
C12_3 C8_3 1_555 1_555
C14_3 C11_3 1_555 1_555
C15_3 C1_3 1_555 1_555
H7_3 C15_3 1_555 1_555
C16_3 C7_3 1_555 1_555
C18_3 H10_3 1_555 1_555
C19_3 C8_3 1_555 1_555
H11_3 C19_3 1_555 1_555
C20_3 C14_3 1_555 1_555
H12_3 C20_3 1_555 1_555
C23_3 C14_3 1_555 1_555
C24_3 O6_3 1_555 1_555
H17_3 C24_3 1_555 1_555
H18_3 C24_3 1_555 1_555
H19_3 C24_3 1_555 1_555
O7_3 C26_3 1_555 1_555
O13_2 C27_3 1_555 1_555
O10_2 C27_3 1_555 1_555
O11_3 C39_3 1_555 1_555
C25_3 C26_3 1_555 1_555
C27_3 C28_3 1_555 1_555
C28_3 C40_3 1_555 1_555
C29_3 H20_3 1_555 1_555
C30_3 O5_4 1_555 1_555
C31_3 C29_3 1_555 1_555
C32_3 C31_3 1_555 1_555
C33_3 C30_3 1_555 1_555
H21_3 C33_3 1_555 1_555
C34_3 C25_3 1_555 1_555
H22_3 C34_3 1_555 1_555
C35_3 C33_3 1_555 1_555
C36_3 C32_3 1_555 1_555
H23_3 C36_3 1_555 1_555
C37_3 C35_3 1_555 1_555
C38_3 C25_3 1_555 1_555
H24_3 C38_3 1_555 1_555
C39_3 C31_3 1_555 1_555
C40_3 H25_3 1_555 1_555
C41_3 C32_3 1_555 1_555
H26_3 C41_3 1_555 1_555
C42_3 C37_3 1_555 1_555
H27_3 C42_3 1_555 1_555
C43_3 C28_3 1_555 1_555
H28_3 C43_3 1_555 1_555
C44_3 C37_3 1_555 1_555
H29_3 C44_3 1_555 1_555
C45_3 O11_3 1_555 1_555
H30_3 C45_3 1_555 1_555
H31_3 C45_3 1_555 1_555
H32_3 C45_3 1_555 1_555
Cu8 O10_2 1_555 1_555
Cu9 O4_2 1_555 1_555
C10_3 C12_3 1_555 1_555
C11_3 C16_3 1_555 1_555
C15_3 C19_3 1_555 1_555
C18_3 C20_3 1_555 1_555
C29_3 C30_3 1_555 1_555
C34_3 C36_3 1_555 1_555
C35_3 C39_3 1_555 1_555
C38_3 C41_3 1_555 1_555
C40_3 C42_3 1_555 1_555
C43_3 C44_3 1_555 1_555
H6_3 C13_3 1_555 1_555
C47_3 C13_3 1_555 1_555
H35_3 C47_3 1_555 1_555
H8_3 C17_3 1_555 1_555
C46_3 C17_3 1_555 1_555
H34_3 C46_3 1_555 1_555
H13_3 C21_3 1_555 1_555
H37_3 C48_3 1_555 1_555
N3 C48_3 1_555 1_555
N1_3 Cu6 1_555 1_555
C22_3 N1_3 1_555 1_555
H14_3 C22_3 1_555 1_555
H28_4 C43_4 1_555 1_555
Cu9 O7_4 1_555 1_555
N3_2 Cu9 1_555 1_555
O15_2 C26_4 1_555 1_555
O17_2 C27_4 1_555 1_555
O11_4 C39_4 1_555 1_555
C25_4 C26_4 1_555 1_555
C27_4 C28_4 1_555 1_555
C28_4 C40_4 1_555 1_555
C29_4 H20_4 1_555 1_555
C30_4 O5_5 1_555 1_555
C31_4 C29_4 1_555 1_555
C32_4 C31_4 1_555 1_555
C33_4 C30_4 1_555 1_555
C34_4 C25_4 1_555 1_555
C35_4 C33_4 1_555 1_555
C36_4 C32_4 1_555 1_555
C37_4 C35_4 1_555 1_555
C38_4 C25_4 1_555 1_555
H24_4 C38_4 1_555 1_555
C39_4 C31_4 1_555 1_555
C40_4 H25_4 1_555 1_555
C41_4 C32_4 1_555 1_555
H26_4 C41_4 1_555 1_555
C42_4 C37_4 1_555 1_555
H27_4 C42_4 1_555 1_555
C44_4 C37_4 1_555 1_555
C45_4 O11_4 1_555 1_555
H30_4 C45_4 1_555 1_555
H31_4 C45_4 1_555 1_555
H32_4 C45_4 1_555 1_555
C29_4 C30_4 1_555 1_555
C34_4 C36_4 1_555 1_555
C35_4 C39_4 1_555 1_555
C38_4 C41_4 1_555 1_555
C40_4 C42_4 1_555 1_555
Cu8 O1_4 1_555 1_555
O1_4 C2_4 1_555 1_555
O12 C3_4 1_555 1_555
O14_2 C2_4 1_555 1_555
O16_2 C3_4 1_555 1_555
O5_6 C6_4 1_555 1_555
O6_4 C16_4 1_555 1_555
N1_4 Cu8 1_555 1_555
C1_4 C2_4 1_555 1_555
C3_4 C4_4 1_555 1_555
C4_4 C18_4 1_555 1_555
C5_4 H1_4 1_555 1_555
C6_4 C5_4 1_555 1_555
C7_4 C5_4 1_555 1_555
C8_4 C7_4 1_555 1_555
C9_4 C6_4 1_555 1_555
C10_4 C1_4 1_555 1_555
H3_4 C10_4 1_555 1_555
C11_4 C9_4 1_555 1_555
C12_4 C8_4 1_555 1_555
H4_4 C12_4 1_555 1_555
C13_4 N1_4 1_555 1_555
H5_4 C13_4 1_555 1_555
H6_4 C13_4 1_555 1_555
C14_4 C11_4 1_555 1_555
C15_4 C1_4 1_555 1_555
H7_4 C15_4 1_555 1_555
C16_4 C7_4 1_555 1_555
C17_4 N1_4 1_555 1_555
H8_4 C17_4 1_555 1_555
H9_4 C17_4 1_555 1_555
C18_4 H10_4 1_555 1_555
C19_4 C8_4 1_555 1_555
H11_4 C19_4 1_555 1_555
C20_4 C14_4 1_555 1_555
H12_4 C20_4 1_555 1_555
C21_4 C4_4 1_555 1_555
H13_4 C21_4 1_555 1_555
C22_4 N1_4 1_555 1_555
H14_4 C22_4 1_555 1_555
H15_4 C22_4 1_555 1_555
C23_4 C14_4 1_555 1_555
H16_4 C23_4 1_555 1_555
C24_4 O6_4 1_555 1_555
H17_4 C24_4 1_555 1_555
H18_4 C24_4 1_555 1_555
H19_4 C24_4 1_555 1_555
N3_2 C46_4 1_555 1_555
C46_4 C17_4 1_555 1_555
H33_4 C46_4 1_555 1_555
H34_4 C46_4 1_555 1_555
C47_4 C13_4 1_555 1_555
H35_4 C47_4 1_555 1_555
H36_4 C47_4 1_555 1_555
C48_4 C22_4 1_555 1_555
H37_4 C48_4 1_555 1_555
H38_4 C48_4 1_555 1_555
C10_4 C12_4 1_555 1_555
C11_4 C16_4 1_555 1_555
C15_4 C19_4 1_555 1_555
C18_4 C20_4 1_555 1_555
C21_4 C23_4 1_555 1_555
N3_2 C47_4 1_555 1_555
N3_2 C48_4 1_555 1_555

#END
