
###############################################################################
#
# This file contains modified crystal structure data generated from the
# MOF subset of the Cambridge Structural Database (CSD) v543 
# hosted by the Cambridge Crystallographic Data Centre (CCDC).
#
# This work is licensed under the Creative Commons
# Attribution-NonCommercial-ShareAlike 4.0 International License.
# To view a copy of this license, visit
# http://creativecommons.org/licenses/by-nc-sa/4.0/
# or send a letter to
# Creative Commons, PO Box 1866, Mountain View, CA 94042, USA.
#
# CIF created using the CSD Python API on 29 September 2022
# The structure has been converted into the P1 space group
# The structure has a 3D framework
# The original CSD entry TUGREV is in the monoclinic crystal system
# The framework has been calculated to contain at least 10.0% void space
# The void calculation uses a probe of radius 1.32A, grid spacing 0.4
#
###############################################################################

data_TUGREV
_chemical_formula_moiety         '(C192 H152 Cu8 N8 O38)n'
_symmetry_cell_setting           triclinic
_symmetry_space_group_name_H-M   'P 1'
_symmetry_Int_Tables_number      1
_space_group_name_Hall           'P 1'
loop_
_symmetry_equiv_pos_site_id
_symmetry_equiv_pos_as_xyz
1 x,y,z
_cell_length_a                   18.9565(16)
_cell_length_b                   21.0879(18)
_cell_length_c                   22.9896(16)
_cell_angle_alpha                90
_cell_angle_beta                 103.539(5)
_cell_angle_gamma                90
_cell_volume                     8934.77
loop_
_atom_site_label
_atom_site_type_symbol
_atom_site_fract_x
_atom_site_fract_y
_atom_site_fract_z
O5 O 0.250000 0.4915(2) 0.000000
H4 H 0.150868 0.170854 0.006189
H5 H 0.183399 0.389090 0.021619
O7 O 0.53178(16) 0.48185(16) 0.41389(13)
O8 O 0.42750(15) 0.07655(17) 0.00101(14)
O9 O 0.54305(17) 0.10564(15) 0.00562(15)
O10 O 0.41814(16) 0.51200(16) 0.41183(12)
O11 O 0.4733(2) 0.36162(19) 0.15146(15)
C25 C 0.4562(3) 0.1854(2) 0.0131(2)
C26 C 0.4680(2) 0.4942(2) 0.38724(19)
C27 C 0.3315(3) 0.4797(2) 0.09417(19)
H20 H 0.310990 0.515672 0.106858
C28 C 0.3058(3) 0.4569(2) 0.03668(18)
C29 C 0.4163(3) 0.3086(2) 0.0374(2)
C30 C 0.4479(3) 0.4881(2) 0.32061(19)
C31 C 0.4775(2) 0.1181(2) 0.00619(18)
C32 C 0.4101(3) 0.4665(2) 0.19727(19)
C33 C 0.3848(3) 0.2015(3) 0.0063(3)
C34 C 0.3890(3) 0.4481(2) 0.13337(18)
C35 C 0.3347(3) 0.4037(2) 0.0172(2)
C36 C 0.4824(3) 0.4696(3) 0.2284(2)
H23 H 0.518598 0.464470 0.207564
C37 C 0.3912(3) 0.3716(2) 0.0553(2)
C38 C 0.3649(3) 0.2619(3) 0.0175(3)
H24 H 0.315883 0.271757 0.011693
C39 C 0.5018(3) 0.4802(2) 0.28939(19)
H25 H 0.550504 0.482098 0.309330
C40 C 0.3754(3) 0.4881(3) 0.2896(2)
H26 H 0.339168 0.495591 0.309911
C41 C 0.4893(3) 0.2936(3) 0.0425(2)
H27 H 0.524813 0.324433 0.054272
C42 C 0.5083(3) 0.2329(2) 0.0301(2)
H28 H 0.556953 0.223321 0.033045
C43 C 0.3575(3) 0.4770(2) 0.2294(2)
H29 H 0.308842 0.476408 0.209336
C44 C 0.4185(3) 0.3948(2) 0.1131(2)
C45 C 0.4470(4) 0.3155(3) 0.1861(3)
H30 H 0.486970 0.297499 0.214877
H31 H 0.422200 0.282682 0.160312
H32 H 0.414017 0.335211 0.206537
Cu3 Cu 0.56804(3) 0.48398(3) 0.50127(2)
Cu8 Cu 0.43196(3) 0.51602(3) 0.49873(2)
Cu9 Cu 0.56804(3) 0.01602(3) 0.00127(2)
O2 O 0.07250(15) 0.07655(17) 0.99899(14)
O4 O 0.08186(16) 0.51200(16) 0.58817(12)
O5_2 O 0.250000 0.4915(2) 1.000000
O6 O 0.0267(2) 0.36162(19) 0.84854(15)
C1 C 0.0438(3) 0.1854(2) 0.9869(2)
C2 C 0.0320(2) 0.4942(2) 0.61276(19)
C3 C 0.1685(3) 0.4797(2) 0.90583(19)
H1 H 0.189010 0.515672 0.893142
C4 C 0.1942(3) 0.4569(2) 0.96332(18)
C5 C 0.0837(3) 0.3086(2) 0.9626(2)
C6 C 0.0521(3) 0.4881(2) 0.67939(19)
C7 C 0.0225(2) 0.1181(2) 0.99381(18)
C9 C 0.0899(3) 0.4665(2) 0.80273(19)
C10 C 0.1152(3) 0.2015(3) 0.9937(3)
C11 C 0.1110(3) 0.4481(2) 0.86663(18)
C12 C 0.1653(3) 0.4037(2) 0.9828(2)
C13 C 0.0176(3) 0.4696(3) 0.7716(2)
C14 C 0.1088(3) 0.3716(2) 0.9447(2)
C15 C 0.1351(3) 0.2619(3) 0.9825(3)
H7 H 0.184117 0.271757 0.988307
C17 C 0.1246(3) 0.4881(3) 0.7104(2)
H9 H 0.160832 0.495591 0.690089
C18 C 0.0107(3) 0.2936(3) 0.9575(2)
C22 C 0.1425(3) 0.4770(2) 0.7706(2)
H16 H 0.191158 0.476408 0.790664
C23 C 0.0815(3) 0.3948(2) 0.8869(2)
C24 C 0.0530(4) 0.3155(3) 0.8139(3)
H17 H 0.013030 0.297499 0.785123
H18 H 0.077800 0.282682 0.839688
H19 H 0.085983 0.335211 0.793463
H21 H 0.349132 0.170854 0.993811
H22 H 0.316601 0.389090 0.978381
Cu6 Cu 0.06804(3) 0.51602(3) 0.50127(2)
Cu5 Cu 0.06804(3) 0.98398(3) 0.00127(2)
Cu4 Cu 0.43196(3) 0.98398(3) 0.99873(2)
Cu1 Cu 0.93196(3) 0.48398(3) 0.49873(2)
O1 O 0.96822(16) 0.48185(16) 0.58611(13)
O3 O 0.95695(17) 0.10564(15) 0.99438(15)
N1 N 0.81877(18) 0.47647(18) 0.49969(14)
C8 C 0.7912(3) 0.4120(2) 0.5014(3)
H2 H 0.816774 0.391334 0.537960
H3 H 0.800230 0.388058 0.467866
H6 H 0.981402 0.464470 0.792436
C16 C 0.9982(3) 0.4802(2) 0.71061(19)
H8 H 0.949496 0.482098 0.690670
H10 H 0.975187 0.324433 0.945728
C19 C 0.8057(2) 0.5103(3) 0.5523(2)
H11 H 0.820825 0.554176 0.551114
H12 H 0.834740 0.491232 0.588446
C20 C 0.7741(2) 0.5082(3) 0.4457(2)
H13 H 0.779023 0.485520 0.410213
H14 H 0.791669 0.551098 0.443295
C21 C 0.9917(3) 0.2329(2) 0.9699(2)
H15 H 0.943047 0.223321 0.966955
N2 N 0.68123(18) 0.47647(18) 0.50031(14)
C46 C 0.7088(3) 0.4120(2) 0.4986(3)
H33 H 0.683226 0.391334 0.462040
H34 H 0.699770 0.388058 0.532134
C47 C 0.6943(2) 0.5103(3) 0.4477(2)
H35 H 0.679175 0.554176 0.448886
H36 H 0.665260 0.491232 0.411554
C48 C 0.7259(2) 0.5082(3) 0.5543(2)
H37 H 0.720977 0.485520 0.589787
H38 H 0.708331 0.551098 0.556705
Cu10 Cu 0.93196(3) 0.01602(3) 0.99873(2)
O13 O 0.57250(15) 0.57655(17) 0.49899(14)
O14 O 0.92750(15) 0.57655(17) 0.50101(14)
O15 O 0.54305(17) 0.39436(15) 0.50562(15)
O16 O 0.95695(17) 0.39436(15) 0.49438(15)
O17 O 0.91814(16) 0.48800(16) 0.41183(12)
O18 O 0.58186(16) 0.48800(16) 0.58817(12)
O7_2 O 0.03178(16) 0.98185(16) 0.91389(13)
O9_2 O 0.04305(17) 0.60564(15) 0.50562(15)
H23_2 H 0.018598 0.964470 0.707564
C39_2 C 0.0018(3) 0.9802(2) 0.78939(19)
H25_2 H 0.050504 0.982098 0.809330
H27_2 H 0.024813 0.824433 0.554272
C42_2 C 0.0083(3) 0.7329(2) 0.5301(2)
H28_2 H 0.056953 0.723321 0.533045
O4_2 O 0.58186(16) 0.01200(16) 0.08817(12)
H1_2 H 0.689010 0.015672 0.393142
C19_2 C 0.3057(2) 0.0103(3) 0.0523(2)
H11_2 H 0.320825 0.054176 0.051114
O10_2 O 0.91814(16) 0.01200(16) 0.91183(12)
H20_2 H 0.810990 0.015672 0.606858
C48_2 C 0.2259(2) 0.0082(3) 0.0543(2)
H38_2 H 0.208331 0.051098 0.056705
C20_2 C 0.2741(2) 0.0082(3) 0.9457(2)
H14_2 H 0.291669 0.051098 0.943295
C47_2 C 0.1943(2) 0.0103(3) 0.9477(2)
H35_2 H 0.179175 0.054176 0.948886
O1_2 O 0.46822(16) 0.98185(16) 0.08611(13)
O3_2 O 0.45695(17) 0.60564(15) 0.49438(15)
O5_3 O 0.750000 0.9915(2) 0.500000
O6_2 O 0.5267(2) 0.86162(19) 0.34854(15)
C1_2 C 0.5438(3) 0.6854(2) 0.4869(2)
C2_2 C 0.5320(2) 0.9942(2) 0.11276(19)
C3_2 C 0.6685(3) 0.9797(2) 0.40583(19)
C4_2 C 0.6942(3) 0.9569(2) 0.46332(18)
C5_2 C 0.5837(3) 0.8086(2) 0.4626(2)
C6_2 C 0.5521(3) 0.9881(2) 0.17939(19)
C7_2 C 0.5225(2) 0.6181(2) 0.49381(18)
C8_2 C 0.2912(3) 0.9120(2) 0.0014(3)
H2_2 H 0.316774 0.891334 0.037960
C9_2 C 0.5899(3) 0.9665(2) 0.30273(19)
C10_2 C 0.6152(3) 0.7015(3) 0.4937(3)
H4_2 H 0.650868 0.670854 0.506189
C11_2 C 0.6110(3) 0.9481(2) 0.36663(18)
C12_2 C 0.6653(3) 0.9037(2) 0.4828(2)
H5_2 H 0.683399 0.889090 0.521619
C13_2 C 0.5176(3) 0.9696(3) 0.2716(2)
H6_2 H 0.481402 0.964470 0.292436
C14_2 C 0.6088(3) 0.8716(2) 0.4447(2)
C15_2 C 0.6351(3) 0.7619(3) 0.4825(3)
H7_2 H 0.684117 0.771757 0.488307
C16_2 C 0.4982(3) 0.9802(2) 0.21061(19)
H8_2 H 0.449496 0.982098 0.190670
C17_2 C 0.6246(3) 0.9881(3) 0.2104(2)
H9_2 H 0.660832 0.995591 0.190089
C18_2 C 0.5107(3) 0.7936(3) 0.4575(2)
H10_2 H 0.475187 0.824433 0.445728
H12_2 H 0.334740 0.991232 0.088446
C21_2 C 0.4917(3) 0.7329(2) 0.4699(2)
H15_2 H 0.443047 0.723321 0.466955
C22_2 C 0.6425(3) 0.9770(2) 0.2706(2)
H16_2 H 0.691158 0.976408 0.290664
C23_2 C 0.5815(3) 0.8948(2) 0.3869(2)
C24_2 C 0.5530(4) 0.8155(3) 0.3139(3)
H17_2 H 0.513030 0.797499 0.285123
H18_2 H 0.577800 0.782682 0.339688
H19_2 H 0.585983 0.835211 0.293463
O11_2 O 0.9733(2) 0.86162(19) 0.65146(15)
C25_2 C 0.9562(3) 0.6854(2) 0.5131(2)
C26_2 C 0.9680(2) 0.9942(2) 0.88724(19)
C27_2 C 0.8315(3) 0.9797(2) 0.59417(19)
C28_2 C 0.8058(3) 0.9569(2) 0.53668(18)
C29_2 C 0.9163(3) 0.8086(2) 0.5374(2)
C30_2 C 0.9479(3) 0.9881(2) 0.82061(19)
C31_2 C 0.9775(2) 0.6181(2) 0.50619(18)
C32_2 C 0.9101(3) 0.9665(2) 0.69727(19)
C33_2 C 0.8848(3) 0.7015(3) 0.5063(3)
H21_2 H 0.849132 0.670854 0.493811
C34_2 C 0.8890(3) 0.9481(2) 0.63337(18)
C35_2 C 0.8347(3) 0.9037(2) 0.5172(2)
H22_2 H 0.816601 0.889090 0.478381
C36_2 C 0.9824(3) 0.9696(3) 0.7284(2)
C37_2 C 0.8912(3) 0.8716(2) 0.5553(2)
C38_2 C 0.8649(3) 0.7619(3) 0.5175(3)
H24_2 H 0.815883 0.771757 0.511693
C40_2 C 0.8754(3) 0.9881(3) 0.7896(2)
H26_2 H 0.839168 0.995591 0.809911
C41_2 C 0.9893(3) 0.7936(3) 0.5425(2)
C43_2 C 0.8575(3) 0.9770(2) 0.7294(2)
H29_2 H 0.808842 0.976408 0.709336
C44_2 C 0.9185(3) 0.8948(2) 0.6131(2)
C45_2 C 0.9470(4) 0.8155(3) 0.6861(3)
H30_2 H 0.986970 0.797499 0.714877
H31_2 H 0.922200 0.782682 0.660312
H32_2 H 0.914017 0.835211 0.706537
N2_2 N 0.18123(18) 0.97647(18) 0.00031(14)
H34_2 H 0.199770 0.888058 0.032134
H37_2 H 0.220977 0.985520 0.089787
O15_2 O 0.04305(17) 0.89436(15) 0.00562(15)
O18_2 O 0.08186(16) 0.98800(16) 0.08817(12)
N1_2 N 0.31877(18) 0.97647(18) 0.99969(14)
H3_2 H 0.300230 0.888058 0.967866
H13_2 H 0.279023 0.985520 0.910213
C46_2 C 0.2088(3) 0.9120(2) 0.9986(3)
H33_2 H 0.183226 0.891334 0.962040
H36_2 H 0.165260 0.991232 0.911554
O16_2 O 0.45695(17) 0.89436(15) 0.99438(15)
O17_2 O 0.41814(16) 0.98800(16) 0.91183(12)
O1_3 O 0.03178(16) 0.51815(16) 0.41389(13)
N1_3 N 0.18123(18) 0.52353(18) 0.50031(14)
C8_3 C 0.2088(3) 0.5880(2) 0.4986(3)
H2_3 H 0.183226 0.608666 0.462040
H3_3 H 0.199770 0.611942 0.532134
H6_3 H 0.018598 0.535530 0.207564
C16_3 C 0.0018(3) 0.5198(2) 0.28939(19)
H8_3 H 0.050504 0.517902 0.309330
H10_3 H 0.024813 0.675567 0.054272
C19_3 C 0.1943(2) 0.4897(3) 0.4477(2)
H11_3 H 0.179175 0.445824 0.448886
H12_3 H 0.165260 0.508768 0.411554
C20_3 C 0.2259(2) 0.4918(3) 0.5543(2)
H13_3 H 0.220977 0.514480 0.589787
H14_3 H 0.208331 0.448902 0.556705
C21_3 C 0.0083(3) 0.7671(2) 0.0301(2)
H15_3 H 0.056953 0.776679 0.033045
N2_3 N 0.31877(18) 0.52353(18) 0.49969(14)
C46_3 C 0.2912(3) 0.5880(2) 0.5014(3)
H33_3 H 0.316774 0.608666 0.537960
H34_3 H 0.300230 0.611942 0.467866
C47_3 C 0.3057(2) 0.4897(3) 0.5523(2)
H35_3 H 0.320825 0.445824 0.551114
H36_3 H 0.334740 0.508768 0.588446
C48_3 C 0.2741(2) 0.4918(3) 0.4457(2)
H37_3 H 0.279023 0.514480 0.410213
H38_3 H 0.291669 0.448902 0.443295
O12 O 0.46822(16) 0.51815(16) 0.58611(13)
O13_2 O 0.42750(15) 0.42345(17) 0.50101(14)
O14_2 O 0.07250(15) 0.42345(17) 0.49899(14)
O2_2 O 0.92750(15) 0.92345(17) 0.00101(14)
O5_4 O 0.750000 0.5085(2) 0.000000
O6_3 O 0.9733(2) 0.63838(19) 0.15146(15)
C1_3 C 0.9562(3) 0.8146(2) 0.0131(2)
C2_3 C 0.9680(2) 0.5058(2) 0.38724(19)
C3_3 C 0.8315(3) 0.5203(2) 0.09417(19)
H1_3 H 0.810990 0.484328 0.106858
C4_3 C 0.8058(3) 0.5431(2) 0.03668(18)
C5_3 C 0.9163(3) 0.6914(2) 0.0374(2)
C6_3 C 0.9479(3) 0.5119(2) 0.32061(19)
C7_3 C 0.9775(2) 0.8819(2) 0.00619(18)
C9_3 C 0.9101(3) 0.5335(2) 0.19727(19)
C10_3 C 0.8848(3) 0.7985(3) 0.0063(3)
C11_3 C 0.8890(3) 0.5519(2) 0.13337(18)
C12_3 C 0.8347(3) 0.5963(2) 0.0172(2)
C13_3 C 0.9824(3) 0.5304(3) 0.2284(2)
C14_3 C 0.8912(3) 0.6284(2) 0.0553(2)
C15_3 C 0.8649(3) 0.7381(3) 0.0175(3)
H7_3 H 0.815883 0.728243 0.011693
C17_3 C 0.8754(3) 0.5119(3) 0.2896(2)
H9_3 H 0.839168 0.504409 0.309911
C18_3 C 0.9893(3) 0.7064(3) 0.0425(2)
C22_3 C 0.8575(3) 0.5230(2) 0.2294(2)
H16_3 H 0.808842 0.523592 0.209336
C23_3 C 0.9185(3) 0.6052(2) 0.1131(2)
C24_3 C 0.9470(4) 0.6845(3) 0.1861(3)
H17_3 H 0.986970 0.702501 0.214877
H18_3 H 0.922200 0.717318 0.160312
H19_3 H 0.914017 0.664789 0.206537
H21_3 H 0.650868 0.829146 0.006189
H22_3 H 0.683399 0.610910 0.021619
O5_5 O 0.750000 0.5085(2) 1.000000
H4_3 H 0.849132 0.829146 0.993811
H5_3 H 0.816601 0.610910 0.978381
O8_2 O 0.57250(15) 0.92345(17) 0.99899(14)
O11_3 O 0.5267(2) 0.63838(19) 0.84854(15)
C25_3 C 0.5438(3) 0.8146(2) 0.9869(2)
C26_3 C 0.5320(2) 0.5058(2) 0.61276(19)
C27_3 C 0.6685(3) 0.5203(2) 0.90583(19)
H20_3 H 0.689010 0.484328 0.893142
C28_3 C 0.6942(3) 0.5431(2) 0.96332(18)
C29_3 C 0.5837(3) 0.6914(2) 0.9626(2)
C30_3 C 0.5521(3) 0.5119(2) 0.67939(19)
C31_3 C 0.5225(2) 0.8819(2) 0.99381(18)
C32_3 C 0.5899(3) 0.5335(2) 0.80273(19)
C33_3 C 0.6152(3) 0.7985(3) 0.9937(3)
C34_3 C 0.6110(3) 0.5519(2) 0.86663(18)
C35_3 C 0.6653(3) 0.5963(2) 0.9828(2)
C36_3 C 0.5176(3) 0.5304(3) 0.7716(2)
H23_3 H 0.481402 0.535530 0.792436
C37_3 C 0.6088(3) 0.6284(2) 0.9447(2)
C38_3 C 0.6351(3) 0.7381(3) 0.9825(3)
H24_3 H 0.684117 0.728243 0.988307
C39_3 C 0.4982(3) 0.5198(2) 0.71061(19)
H25_3 H 0.449496 0.517902 0.690670
C40_3 C 0.6246(3) 0.5119(3) 0.7104(2)
H26_3 H 0.660832 0.504409 0.690089
C41_3 C 0.5107(3) 0.7064(3) 0.9575(2)
H27_3 H 0.475187 0.675567 0.945728
C42_3 C 0.4917(3) 0.7671(2) 0.9699(2)
H28_3 H 0.443047 0.776679 0.966955
C43_3 C 0.6425(3) 0.5230(2) 0.7706(2)
H29_3 H 0.691158 0.523592 0.790664
C44_3 C 0.5815(3) 0.6052(2) 0.8869(2)
C45_3 C 0.5530(4) 0.6845(3) 0.8139(3)
H30_3 H 0.513030 0.702501 0.785123
H31_3 H 0.577800 0.717318 0.839688
H32_3 H 0.585983 0.664789 0.793463
N1_4 N 0.68123(18) 0.02353(18) 0.00031(14)
H3_4 H 0.699770 0.111942 0.032134
H13_4 H 0.720977 0.014480 0.089787
C46_4 C 0.7912(3) 0.0880(2) 0.0014(3)
H33_4 H 0.816774 0.108666 0.037960
H36_4 H 0.834740 0.008768 0.088446
O12_2 O 0.96822(16) 0.01815(16) 0.08611(13)
O1_4 O 0.53178(16) 0.01815(16) 0.91389(13)
O5_6 O 0.250000 0.0085(2) 0.500000
O6_4 O 0.4733(2) 0.13838(19) 0.65146(15)
C1_4 C 0.4562(3) 0.3146(2) 0.5131(2)
C2_4 C 0.4680(2) 0.0058(2) 0.88724(19)
C3_4 C 0.3315(3) 0.0203(2) 0.59417(19)
C4_4 C 0.3058(3) 0.0431(2) 0.53668(18)
C5_4 C 0.4163(3) 0.1914(2) 0.5374(2)
C6_4 C 0.4479(3) 0.0119(2) 0.82061(19)
C7_4 C 0.4775(2) 0.3819(2) 0.50619(18)
C8_4 C 0.7088(3) 0.0880(2) 0.9986(3)
H2_4 H 0.683226 0.108666 0.962040
C9_4 C 0.4101(3) 0.0335(2) 0.69727(19)
C10_4 C 0.3848(3) 0.2985(3) 0.5063(3)
H4_4 H 0.349132 0.329146 0.493811
C11_4 C 0.3890(3) 0.0519(2) 0.63337(18)
C12_4 C 0.3347(3) 0.0963(2) 0.5172(2)
H5_4 H 0.316601 0.110910 0.478381
C13_4 C 0.4824(3) 0.0304(3) 0.7284(2)
H6_4 H 0.518598 0.035530 0.707564
C14_4 C 0.3912(3) 0.1284(2) 0.5553(2)
C15_4 C 0.3649(3) 0.2381(3) 0.5175(3)
H7_4 H 0.315883 0.228243 0.511693
C16_4 C 0.5018(3) 0.0198(2) 0.78939(19)
H8_4 H 0.550504 0.017902 0.809330
C17_4 C 0.3754(3) 0.0119(3) 0.7896(2)
H9_4 H 0.339168 0.004409 0.809911
C18_4 C 0.4893(3) 0.2064(3) 0.5425(2)
H10_4 H 0.524813 0.175567 0.554272
H12_4 H 0.665260 0.008768 0.911554
C21_4 C 0.5083(3) 0.2671(2) 0.5301(2)
H15_4 H 0.556953 0.276679 0.533045
C22_4 C 0.3575(3) 0.0230(2) 0.7294(2)
H16_4 H 0.308842 0.023592 0.709336
C23_4 C 0.4185(3) 0.1052(2) 0.6131(2)
C24_4 C 0.4470(4) 0.1845(3) 0.6861(3)
H17_4 H 0.486970 0.202501 0.714877
H18_4 H 0.422200 0.217318 0.660312
H19_4 H 0.414017 0.164789 0.706537
O11_4 O 0.0267(2) 0.13838(19) 0.34854(15)
C25_4 C 0.0438(3) 0.3146(2) 0.4869(2)
C26_4 C 0.0320(2) 0.0058(2) 0.11276(19)
C27_4 C 0.1685(3) 0.0203(2) 0.40583(19)
C28_4 C 0.1942(3) 0.0431(2) 0.46332(18)
C29_4 C 0.0837(3) 0.1914(2) 0.4626(2)
C30_4 C 0.0521(3) 0.0119(2) 0.17939(19)
C31_4 C 0.0225(2) 0.3819(2) 0.49381(18)
C32_4 C 0.0899(3) 0.0335(2) 0.30273(19)
C33_4 C 0.1152(3) 0.2985(3) 0.4937(3)
H21_4 H 0.150868 0.329146 0.506189
C34_4 C 0.1110(3) 0.0519(2) 0.36663(18)
C35_4 C 0.1653(3) 0.0963(2) 0.4828(2)
H22_4 H 0.183399 0.110910 0.521619
C36_4 C 0.0176(3) 0.0304(3) 0.2716(2)
C37_4 C 0.1088(3) 0.1284(2) 0.4447(2)
C38_4 C 0.1351(3) 0.2381(3) 0.4825(3)
H24_4 H 0.184117 0.228243 0.488307
C40_4 C 0.1246(3) 0.0119(3) 0.2104(2)
H26_4 H 0.160832 0.004409 0.190089
C41_4 C 0.0107(3) 0.2064(3) 0.4575(2)
C43_4 C 0.1425(3) 0.0230(2) 0.2706(2)
H29_4 H 0.191158 0.023592 0.290664
C44_4 C 0.0815(3) 0.1052(2) 0.3869(2)
C45_4 C 0.0530(4) 0.1845(3) 0.3139(3)
H30_4 H 0.013030 0.202501 0.285123
H31_4 H 0.077800 0.217318 0.339688
H32_4 H 0.085983 0.164789 0.293463
N2_4 N 0.81877(18) 0.02353(18) 0.99969(14)
H34_4 H 0.800230 0.111942 0.967866
H37_4 H 0.779023 0.014480 0.910213
C20_4 C 0.7259(2) 0.9918(3) 0.0543(2)
H14_4 H 0.708331 0.948902 0.056705
C47_4 C 0.8057(2) 0.9897(3) 0.0523(2)
H35_4 H 0.820825 0.945824 0.051114
H1_4 H 0.310990 0.984328 0.606858
C19_4 C 0.6943(2) 0.9897(3) 0.9477(2)
H11_4 H 0.679175 0.945824 0.948886
H20_4 H 0.189010 0.984328 0.393142
C48_4 C 0.7741(2) 0.9918(3) 0.9457(2)
H38_4 H 0.791669 0.948902 0.943295
H23_4 H 0.981402 0.035530 0.292436
C39_4 C 0.9982(3) 0.0198(2) 0.21061(19)
H25_4 H 0.949496 0.017902 0.190670
H27_4 H 0.975187 0.175567 0.445728
C42_4 C 0.9917(3) 0.2671(2) 0.4699(2)
H28_4 H 0.943047 0.276679 0.466955
loop_
_geom_bond_atom_site_label_1
_geom_bond_atom_site_label_2
_geom_bond_site_symmetry_1
_geom_bond_site_symmetry_2
O7 C26 1_555 1_555
O8 C31 1_555 1_555
O9 C31 1_555 1_555
O10 C26 1_555 1_555
O11 C44 1_555 1_555
C25 C31 1_555 1_555
C26 C30 1_555 1_555
C27 H20 1_555 1_555
C28 O5 1_555 1_555
C29 C37 1_555 1_555
C30 C39 1_555 1_555
C32 C34 1_555 1_555
C33 C25 1_555 1_555
C34 C27 1_555 1_555
C35 C28 1_555 1_555
C36 C32 1_555 1_555
H23 C36 1_555 1_555
C37 C35 1_555 1_555
C38 C29 1_555 1_555
H24 C38 1_555 1_555
C39 C36 1_555 1_555
H25 C39 1_555 1_555
C40 C30 1_555 1_555
H26 C40 1_555 1_555
C41 C29 1_555 1_555
H27 C41 1_555 1_555
C42 C25 1_555 1_555
H28 C42 1_555 1_555
C43 C32 1_555 1_555
H29 C43 1_555 1_555
C44 C34 1_555 1_555
C45 O11 1_555 1_555
H30 C45 1_555 1_555
H31 C45 1_555 1_555
H32 C45 1_555 1_555
Cu3 O7 1_555 1_555
Cu8 O10 1_555 1_555
Cu9 O9 1_555 1_555
C27 C28 1_555 1_555
C33 C38 1_555 1_555
C37 C44 1_555 1_555
C40 C43 1_555 1_555
C41 C42 1_555 1_555
Cu3 Cu8 1_555 1_555
O2 C7 1_555 1_555
O4 C2 1_555 1_555
O5_2 C4 1_555 1_555
O6 C23 1_555 1_555
C1 C7 1_555 1_555
C2 C6 1_555 1_555
C3 H1 1_555 1_555
C4 C3 1_555 1_555
C5 C14 1_555 1_555
C9 C11 1_555 1_555
C10 C1 1_555 1_555
C11 C3 1_555 1_555
C12 C4 1_555 1_555
C13 C9 1_555 1_555
C14 C12 1_555 1_555
C15 C5 1_555 1_555
H7 C15 1_555 1_555
C17 C6 1_555 1_555
H9 C17 1_555 1_555
C18 C5 1_555 1_555
C22 C9 1_555 1_555
H16 C22 1_555 1_555
C23 C11 1_555 1_555
C24 O6 1_555 1_555
H17 C24 1_555 1_555
H18 C24 1_555 1_555
H19 C24 1_555 1_555
O4 Cu6 1_555 1_555
C10 C15 1_555 1_555
C14 C23 1_555 1_555
C17 C22 1_555 1_555
Cu1 O1 1_555 1_555
N1 Cu1 1_555 1_555
C8 N1 1_555 1_555
H2 C8 1_555 1_555
H3 C8 1_555 1_555
H8 C16 1_555 1_555
C19 N1 1_555 1_555
H11 C19 1_555 1_555
H12 C19 1_555 1_555
C20 N1 1_555 1_555
H13 C20 1_555 1_555
H14 C20 1_555 1_555
H15 C21 1_555 1_555
N2 C46 1_555 1_555
C46 C8 1_555 1_555
H33 C46 1_555 1_555
H34 C46 1_555 1_555
C47 C20 1_555 1_555
H35 C47 1_555 1_555
H36 C47 1_555 1_555
C48 C19 1_555 1_555
H37 C48 1_555 1_555
H38 C48 1_555 1_555
Cu3 N2 1_555 1_555
Cu10 O3 1_555 1_555
O13 Cu3 1_555 1_555
O14 Cu1 1_555 1_555
O15 Cu3 1_555 1_555
O16 Cu1 1_555 1_555
O17 Cu1 1_555 1_555
O18 Cu3 1_555 1_555
N2 C47 1_555 1_555
N2 C48 1_555 1_555
H25_2 C39_2 1_555 1_555
H28_2 C42_2 1_555 1_555
Cu6 O9_2 1_555 1_555
H11_2 C19_2 1_555 1_555
C48_2 C19_2 1_555 1_555
H38_2 C48_2 1_555 1_555
Cu10 O10_2 1_555 1_555
O4_2 Cu9 1_555 1_555
H14_2 C20_2 1_555 1_555
C47_2 C20_2 1_555 1_555
H35_2 C47_2 1_555 1_555
O1_2 C2_2 1_555 1_555
O13 C7_2 1_555 1_555
O3_2 C7_2 1_555 1_555
O5_3 C4_2 1_555 1_555
O6_2 C23_2 1_555 1_555
C1_2 C7_2 1_555 1_555
C2_2 C6_2 1_555 1_555
C4_2 C3_2 1_555 1_555
C5_2 C14_2 1_555 1_555
C6_2 C16_2 1_555 1_555
H2_2 C8_2 1_555 1_555
C9_2 C11_2 1_555 1_555
C10_2 C1_2 1_555 1_555
H4_2 C10_2 1_555 1_555
C11_2 C3_2 1_555 1_555
C12_2 C4_2 1_555 1_555
H5_2 C12_2 1_555 1_555
C13_2 C9_2 1_555 1_555
H6_2 C13_2 1_555 1_555
C14_2 C12_2 1_555 1_555
C15_2 C5_2 1_555 1_555
H7_2 C15_2 1_555 1_555
C16_2 C13_2 1_555 1_555
H8_2 C16_2 1_555 1_555
C17_2 C6_2 1_555 1_555
H9_2 C17_2 1_555 1_555
C18_2 C5_2 1_555 1_555
H10_2 C18_2 1_555 1_555
C21_2 C1_2 1_555 1_555
H15_2 C21_2 1_555 1_555
C22_2 C9_2 1_555 1_555
H16_2 C22_2 1_555 1_555
C23_2 C11_2 1_555 1_555
C24_2 O6_2 1_555 1_555
H17_2 C24_2 1_555 1_555
H18_2 C24_2 1_555 1_555
H19_2 C24_2 1_555 1_555
O14 C31_2 1_555 1_555
O11_2 C44_2 1_555 1_555
C25_2 C31_2 1_555 1_555
C26_2 C30_2 1_555 1_555
C28_2 O5_3 1_555 1_555
C29_2 C37_2 1_555 1_555
C32_2 C34_2 1_555 1_555
C33_2 C25_2 1_555 1_555
H21_2 C33_2 1_555 1_555
C34_2 C27_2 1_555 1_555
C35_2 C28_2 1_555 1_555
H22_2 C35_2 1_555 1_555
C36_2 C32_2 1_555 1_555
C37_2 C35_2 1_555 1_555
C38_2 C29_2 1_555 1_555
H24_2 C38_2 1_555 1_555
C40_2 C30_2 1_555 1_555
H26_2 C40_2 1_555 1_555
C41_2 C29_2 1_555 1_555
C43_2 C32_2 1_555 1_555
H29_2 C43_2 1_555 1_555
C44_2 C34_2 1_555 1_555
C45_2 O11_2 1_555 1_555
H30_2 C45_2 1_555 1_555
H31_2 C45_2 1_555 1_555
H32_2 C45_2 1_555 1_555
Cu5 N2_2 1_555 1_555
Cu8 O3_2 1_555 1_555
O15_2 Cu5 1_555 1_555
O18_2 Cu5 1_555 1_555
C10_2 C15_2 1_555 1_555
C14_2 C23_2 1_555 1_555
C17_2 C22_2 1_555 1_555
C18_2 C21_2 1_555 1_555
C27_2 C28_2 1_555 1_555
C33_2 C38_2 1_555 1_555
C37_2 C44_2 1_555 1_555
C40_2 C43_2 1_555 1_555
N1_2 Cu4 1_555 1_555
H33_2 C46_2 1_555 1_555
O16_2 Cu4 1_555 1_555
O17_2 Cu4 1_555 1_555
Cu6 O1_3 1_555 1_555
N1_3 Cu6 1_555 1_555
C8_3 N1_3 1_555 1_555
H2_3 C8_3 1_555 1_555
H3_3 C8_3 1_555 1_555
H8_3 C16_3 1_555 1_555
C19_3 N1_3 1_555 1_555
H11_3 C19_3 1_555 1_555
H12_3 C19_3 1_555 1_555
C20_3 N1_3 1_555 1_555
H13_3 C20_3 1_555 1_555
H14_3 C20_3 1_555 1_555
H15_3 C21_3 1_555 1_555
N2_3 C46_3 1_555 1_555
C46_3 C8_3 1_555 1_555
H33_3 C46_3 1_555 1_555
H34_3 C46_3 1_555 1_555
C47_3 C20_3 1_555 1_555
H35_3 C47_3 1_555 1_555
H36_3 C47_3 1_555 1_555
C48_3 C19_3 1_555 1_555
H37_3 C48_3 1_555 1_555
H38_3 C48_3 1_555 1_555
Cu8 N2_3 1_555 1_555
O12 Cu8 1_555 1_555
O13_2 Cu8 1_555 1_555
O14_2 Cu6 1_555 1_555
N2_3 C47_3 1_555 1_555
N2_3 C48_3 1_555 1_555
O2_2 C7_3 1_555 1_555
O17 C2_3 1_555 1_555
O5_4 C4_3 1_555 1_555
O6_3 C23_3 1_555 1_555
C1_3 C7_3 1_555 1_555
C2_3 C6_3 1_555 1_555
C3_3 H1_3 1_555 1_555
C4_3 C3_3 1_555 1_555
C5_3 C14_3 1_555 1_555
C9_3 C11_3 1_555 1_555
C10_3 C1_3 1_555 1_555
C11_3 C3_3 1_555 1_555
C12_3 C4_3 1_555 1_555
C13_3 C9_3 1_555 1_555
C14_3 C12_3 1_555 1_555
C15_3 C5_3 1_555 1_555
H7_3 C15_3 1_555 1_555
C17_3 C6_3 1_555 1_555
H9_3 C17_3 1_555 1_555
C18_3 C5_3 1_555 1_555
C22_3 C9_3 1_555 1_555
H16_3 C22_3 1_555 1_555
C23_3 C11_3 1_555 1_555
C24_3 O6_3 1_555 1_555
H17_3 C24_3 1_555 1_555
H18_3 C24_3 1_555 1_555
H19_3 C24_3 1_555 1_555
C10_3 C15_3 1_555 1_555
C14_3 C23_3 1_555 1_555
C17_3 C22_3 1_555 1_555
O12 C26_3 1_555 1_555
O8_2 C31_3 1_555 1_555
O16_2 C31_3 1_555 1_555
O18 C26_3 1_555 1_555
O11_3 C44_3 1_555 1_555
C25_3 C31_3 1_555 1_555
C26_3 C30_3 1_555 1_555
C27_3 H20_3 1_555 1_555
C28_3 O5_5 1_555 1_555
C29_3 C37_3 1_555 1_555
C30_3 C39_3 1_555 1_555
C32_3 C34_3 1_555 1_555
C33_3 C25_3 1_555 1_555
C34_3 C27_3 1_555 1_555
C35_3 C28_3 1_555 1_555
C36_3 C32_3 1_555 1_555
H23_3 C36_3 1_555 1_555
C37_3 C35_3 1_555 1_555
C38_3 C29_3 1_555 1_555
H24_3 C38_3 1_555 1_555
C39_3 C36_3 1_555 1_555
H25_3 C39_3 1_555 1_555
C40_3 C30_3 1_555 1_555
H26_3 C40_3 1_555 1_555
C41_3 C29_3 1_555 1_555
H27_3 C41_3 1_555 1_555
C42_3 C25_3 1_555 1_555
H28_3 C42_3 1_555 1_555
C43_3 C32_3 1_555 1_555
H29_3 C43_3 1_555 1_555
C44_3 C34_3 1_555 1_555
C45_3 O11_3 1_555 1_555
H30_3 C45_3 1_555 1_555
H31_3 C45_3 1_555 1_555
H32_3 C45_3 1_555 1_555
C27_3 C28_3 1_555 1_555
C33_3 C38_3 1_555 1_555
C37_3 C44_3 1_555 1_555
C40_3 C43_3 1_555 1_555
C41_3 C42_3 1_555 1_555
N1_4 Cu9 1_555 1_555
H33_4 C46_4 1_555 1_555
O1_4 C2_4 1_555 1_555
O13_2 C7_4 1_555 1_555
O15 C7_4 1_555 1_555
O5_6 C4_4 1_555 1_555
O6_4 C23_4 1_555 1_555
C1_4 C7_4 1_555 1_555
C2_4 C6_4 1_555 1_555
C4_4 C3_4 1_555 1_555
C5_4 C14_4 1_555 1_555
C6_4 C16_4 1_555 1_555
H2_4 C8_4 1_555 1_555
C9_4 C11_4 1_555 1_555
C10_4 C1_4 1_555 1_555
H4_4 C10_4 1_555 1_555
C11_4 C3_4 1_555 1_555
C12_4 C4_4 1_555 1_555
H5_4 C12_4 1_555 1_555
C13_4 C9_4 1_555 1_555
H6_4 C13_4 1_555 1_555
C14_4 C12_4 1_555 1_555
C15_4 C5_4 1_555 1_555
H7_4 C15_4 1_555 1_555
C16_4 C13_4 1_555 1_555
H8_4 C16_4 1_555 1_555
C17_4 C6_4 1_555 1_555
H9_4 C17_4 1_555 1_555
C18_4 C5_4 1_555 1_555
H10_4 C18_4 1_555 1_555
C21_4 C1_4 1_555 1_555
H15_4 C21_4 1_555 1_555
C22_4 C9_4 1_555 1_555
H16_4 C22_4 1_555 1_555
C23_4 C11_4 1_555 1_555
C24_4 O6_4 1_555 1_555
H17_4 C24_4 1_555 1_555
H18_4 C24_4 1_555 1_555
H19_4 C24_4 1_555 1_555
O14_2 C31_4 1_555 1_555
O11_4 C44_4 1_555 1_555
C25_4 C31_4 1_555 1_555
C26_4 C30_4 1_555 1_555
C28_4 O5_6 1_555 1_555
C29_4 C37_4 1_555 1_555
C32_4 C34_4 1_555 1_555
C33_4 C25_4 1_555 1_555
H21_4 C33_4 1_555 1_555
C34_4 C27_4 1_555 1_555
C35_4 C28_4 1_555 1_555
H22_4 C35_4 1_555 1_555
C36_4 C32_4 1_555 1_555
C37_4 C35_4 1_555 1_555
C38_4 C29_4 1_555 1_555
H24_4 C38_4 1_555 1_555
C40_4 C30_4 1_555 1_555
H26_4 C40_4 1_555 1_555
C41_4 C29_4 1_555 1_555
C43_4 C32_4 1_555 1_555
H29_4 C43_4 1_555 1_555
C44_4 C34_4 1_555 1_555
C45_4 O11_4 1_555 1_555
H30_4 C45_4 1_555 1_555
H31_4 C45_4 1_555 1_555
H32_4 C45_4 1_555 1_555
Cu10 N2_4 1_555 1_555
C10_4 C15_4 1_555 1_555
C14_4 C23_4 1_555 1_555
C17_4 C22_4 1_555 1_555
C18_4 C21_4 1_555 1_555
C27_4 C28_4 1_555 1_555
C33_4 C38_4 1_555 1_555
C37_4 C44_4 1_555 1_555
C40_4 C43_4 1_555 1_555
H14_4 C20_4 1_555 1_555
C47_4 C20_4 1_555 1_555
H35_4 C47_4 1_555 1_555
H11_4 C19_4 1_555 1_555
C48_4 C19_4 1_555 1_555
H38_4 C48_4 1_555 1_555
H25_4 C39_4 1_555 1_555
H28_4 C42_4 1_555 1_555

#END
