
###############################################################################
#
# This file contains modified crystal structure data generated from the
# MOF subset of the Cambridge Structural Database (CSD) v543 
# hosted by the Cambridge Crystallographic Data Centre (CCDC).
#
# This work is licensed under the Creative Commons
# Attribution-NonCommercial-ShareAlike 4.0 International License.
# To view a copy of this license, visit
# http://creativecommons.org/licenses/by-nc-sa/4.0/
# or send a letter to
# Creative Commons, PO Box 1866, Mountain View, CA 94042, USA.
#
# CIF created using the CSD Python API on 29 September 2022
# The structure has been converted into the P1 space group
# The structure has a 3D framework
# The original CSD entry TUGREV02 is in the monoclinic crystal system
# The framework has been calculated to contain at least 10.0% void space
# The void calculation uses a probe of radius 1.32A, grid spacing 0.4
#
###############################################################################

data_TUGREV02
_chemical_formula_moiety         '(C192 H152 Cu8 N8 O36)n'
_symmetry_cell_setting           triclinic
_symmetry_space_group_name_H-M   'P 1'
_symmetry_Int_Tables_number      1
_space_group_name_Hall           'P 1'
loop_
_symmetry_equiv_pos_site_id
_symmetry_equiv_pos_as_xyz
1 x,y,z
_cell_length_a                   18.9980(14)
_cell_length_b                   23.3342(17)
_cell_length_c                   22.9422(16)
_cell_angle_alpha                90
_cell_angle_beta                 104.603(5)
_cell_angle_gamma                90
_cell_volume                     9841.81
loop_
_atom_site_label
_atom_site_type_symbol
_atom_site_fract_x
_atom_site_fract_y
_atom_site_fract_z
Cu3 Cu 0.56847(2) 0.01576(2) 0.00328(2)
Cu1 Cu 0.06847(2) 0.51576(2) 0.50328(2)
O1 O 0.07131(14) 0.43426(15) 0.49224(13)
O5 O 0.250000 0.06000(19) 0.500000
O6 O 0.0337(2) 0.17271(17) 0.33385(15)
N1 N 0.18227(17) 0.52347(15) 0.50150(14)
C1 C 0.0556(2) 0.03391(19) 0.17740(17)
C2 C 0.0340(2) 0.01885(18) 0.11175(17)
C3 C 0.0435(2) 0.3356(2) 0.4718(2)
C4 C 0.1727(3) 0.0674(2) 0.40195(18)
H1 H 0.194034 0.033776 0.391676
C5 C 0.0217(2) 0.3948(2) 0.48321(18)
C6 C 0.1967(3) 0.0904(2) 0.46003(18)
C7 C 0.1175(3) 0.0941(2) 0.35971(18)
C8 C 0.0940(2) 0.0711(2) 0.29732(18)
C9 C 0.1665(3) 0.1401(2) 0.47508(19)
H2 H 0.183283 0.155269 0.514084
C10 C 0.1159(3) 0.3220(2) 0.4779(2)
H3 H 0.151503 0.350796 0.488440
C11 C 0.1362(3) 0.2679(2) 0.4688(2)
H4 H 0.186108 0.259436 0.476572
C12 C 0.1120(3) 0.1680(2) 0.4336(2)
C13 C 0.0219(3) 0.0681(2) 0.26549(18)
C14 C 0.0019(3) 0.0496(2) 0.20608(18)
C15 C 0.1927(2) 0.4945(3) 0.4473(2)
H7 H 0.164684 0.514618 0.411358
H8 H 0.174263 0.455210 0.446022
C16 C 0.1276(3) 0.0357(2) 0.20826(18)
H9 H 0.163687 0.024258 0.189173
C17 C 0.0876(3) 0.2253(2) 0.4490(2)
C18 C 0.2273(2) 0.4933(2) 0.5534(2)
H10 H 0.211018 0.453461 0.552986
H11 H 0.221533 0.511284 0.590485
C19 C 0.2099(2) 0.5821(2) 0.5010(3)
H12 H 0.205105 0.602334 0.537289
H13 H 0.180830 0.602633 0.465890
C20 C 0.0868(3) 0.1451(2) 0.3758(2)
C21 C 0.1474(3) 0.0547(2) 0.26805(19)
H14 H 0.196833 0.056370 0.288780
C23 C 0.0144(3) 0.2383(2) 0.4428(2)
C24 C 0.0615(5) 0.2138(3) 0.2993(3)
H17 H 0.022909 0.225868 0.265154
H18 H 0.100608 0.196756 0.285070
H19 H 0.079814 0.246796 0.324306
O7 O 0.42869(14) 0.43426(15) 0.50776(13)
O8 O 0.52998(15) 0.02766(14) 0.91626(12)
O9 O 0.54377(16) 0.40532(13) 0.51656(14)
O11 O 0.4663(2) 0.17271(17) 0.66615(15)
C25 C 0.4444(2) 0.03391(19) 0.82260(17)
C26 C 0.4660(2) 0.01885(18) 0.88825(17)
C27 C 0.4565(2) 0.3356(2) 0.5282(2)
C28 C 0.3273(3) 0.0674(2) 0.59805(18)
H20 H 0.305966 0.033776 0.608324
C29 C 0.4783(2) 0.3948(2) 0.51679(18)
C30 C 0.3033(3) 0.0904(2) 0.53997(18)
C31 C 0.3825(3) 0.0941(2) 0.64029(18)
C32 C 0.4060(2) 0.0711(2) 0.70268(18)
C33 C 0.3335(3) 0.1401(2) 0.52492(19)
H21 H 0.316717 0.155269 0.485916
C34 C 0.3841(3) 0.3220(2) 0.5221(2)
H22 H 0.348497 0.350796 0.511560
C35 C 0.3638(3) 0.2679(2) 0.5312(2)
H23 H 0.313892 0.259436 0.523428
C36 C 0.3880(3) 0.1680(2) 0.5664(2)
C37 C 0.4781(3) 0.0681(2) 0.73451(18)
H24 H 0.514462 0.078884 0.715477
C38 C 0.4981(3) 0.0496(2) 0.79392(18)
H25 H 0.547520 0.047603 0.814654
C39 C 0.3724(3) 0.0357(2) 0.79174(18)
H26 H 0.336313 0.024258 0.810827
C40 C 0.4124(3) 0.2253(2) 0.5510(2)
C41 C 0.4132(3) 0.1451(2) 0.6242(2)
C42 C 0.3526(3) 0.0547(2) 0.73195(19)
H27 H 0.303167 0.056370 0.711220
C43 C 0.5066(3) 0.2923(2) 0.5447(2)
H28 H 0.555989 0.299676 0.547338
C44 C 0.4856(3) 0.2383(2) 0.5572(2)
H29 H 0.520971 0.209740 0.570230
C45 C 0.4385(5) 0.2138(3) 0.7007(3)
H30 H 0.477091 0.225868 0.734846
H31 H 0.399392 0.196756 0.714930
H32 H 0.420186 0.246796 0.675694
N2 N 0.31773(17) 0.52347(15) 0.49850(14)
C46 C 0.3073(2) 0.4945(3) 0.5527(2)
H33 H 0.335316 0.514618 0.588642
H34 H 0.325737 0.455210 0.553978
C47 C 0.2727(2) 0.4933(2) 0.4466(2)
H35 H 0.288982 0.453461 0.447014
H36 H 0.278467 0.511284 0.409515
C48 C 0.2901(2) 0.5821(2) 0.4990(3)
H37 H 0.294895 0.602334 0.462711
H38 H 0.319170 0.602633 0.534110
Cu2 Cu 0.43153(2) 0.51576(2) 0.49672(2)
Cu6 Cu 0.56847(2) 0.48424(2) 0.50328(2)
O12 O 0.47002(15) 0.52766(14) 0.58374(12)
O13 O 0.02998(15) 0.52766(14) 0.41626(12)
O14 O 0.04377(16) 0.59468(13) 0.51656(14)
O15 O 0.45623(16) 0.59468(13) 0.48344(14)
O16 O 0.41657(16) 0.50184(14) 0.41058(12)
O17 O 0.08343(16) 0.50184(14) 0.58942(12)
O4 O 0.08343(16) 0.99816(14) 0.08942(12)
O10 O 0.41657(16) 0.99816(14) 0.91058(12)
Cu7 Cu 0.43153(2) 0.98424(2) 0.99672(2)
Cu8 Cu 0.06847(2) 0.98424(2) 0.00328(2)
O2 O 0.97002(15) 0.02766(14) 0.08374(12)
O3 O 0.95623(16) 0.40532(13) 0.48344(14)
H5 H 0.985538 0.078884 0.284523
H6 H 0.952480 0.047603 0.185346
C22 C 0.9934(3) 0.2923(2) 0.4553(2)
H15 H 0.944011 0.299676 0.452662
H16 H 0.979029 0.209740 0.429770
Cu5 Cu 0.93153(2) 0.48424(2) 0.49672(2)
Cu4 Cu 0.93153(2) 0.01576(2) 0.99672(2)
O9_2 O 0.04377(16) 0.90532(13) 0.01656(14)
H24_2 H 0.014462 0.578884 0.215477
H25_2 H 0.047520 0.547603 0.314654
C43_2 C 0.0066(3) 0.7923(2) 0.0447(2)
H28_2 H 0.055989 0.799676 0.047338
H29_2 H 0.020971 0.709740 0.070230
N1_2 N 0.68227(17) 0.02347(15) 0.00150(14)
H11_2 H 0.721533 0.011284 0.090485
C19_2 C 0.7099(2) 0.0821(2) 0.0010(3)
H12_2 H 0.705105 0.102334 0.037289
H33_2 H 0.835316 0.014618 0.088642
H38_2 H 0.819170 0.102633 0.034110
O14_2 O 0.54377(16) 0.09468(13) 0.01656(14)
O17_2 O 0.58343(16) 0.00184(14) 0.08942(12)
H7_2 H 0.664684 0.014618 0.911358
H13_2 H 0.680830 0.102633 0.965890
N2_2 N 0.81773(17) 0.02347(15) 0.99850(14)
H36_2 H 0.778467 0.011284 0.909515
C48_2 C 0.7901(2) 0.0821(2) 0.9990(3)
H37_2 H 0.794895 0.102334 0.962711
O15_2 O 0.95623(16) 0.09468(13) 0.98344(14)
O16_2 O 0.91657(16) 0.00184(14) 0.91058(12)
O5_2 O 0.750000 0.56000(19) 0.000000
H2_2 H 0.683283 0.655269 0.014084
C18_2 C 0.7273(2) 0.9933(2) 0.0534(2)
H10_2 H 0.711018 0.953461 0.052986
O7_2 O 0.92869(14) 0.93426(15) 0.00776(13)
O10_2 O 0.91657(16) 0.49816(14) 0.41058(12)
O11_2 O 0.9663(2) 0.67271(17) 0.16615(15)
C25_2 C 0.9444(2) 0.53391(19) 0.32260(17)
C26_2 C 0.9660(2) 0.51885(18) 0.38825(17)
C27_2 C 0.9565(2) 0.8356(2) 0.0282(2)
C28_2 C 0.8273(3) 0.5674(2) 0.09805(18)
H20_2 H 0.805966 0.533776 0.108324
C29_2 C 0.9783(2) 0.8948(2) 0.01679(18)
C30_2 C 0.8033(3) 0.5904(2) 0.03997(18)
C31_2 C 0.8825(3) 0.5941(2) 0.14029(18)
C32_2 C 0.9060(2) 0.5711(2) 0.20268(18)
C33_2 C 0.8335(3) 0.6401(2) 0.02492(19)
C34_2 C 0.8841(3) 0.8220(2) 0.0221(2)
H22_2 H 0.848497 0.850796 0.011560
C35_2 C 0.8638(3) 0.7679(2) 0.0312(2)
H23_2 H 0.813892 0.759436 0.023428
C36_2 C 0.8880(3) 0.6680(2) 0.0664(2)
C37_2 C 0.9781(3) 0.5681(2) 0.23451(18)
C38_2 C 0.9981(3) 0.5496(2) 0.29392(18)
C39_2 C 0.8724(3) 0.5357(2) 0.29174(18)
H26_2 H 0.836313 0.524258 0.310827
C40_2 C 0.9124(3) 0.7253(2) 0.0510(2)
C41_2 C 0.9132(3) 0.6451(2) 0.1242(2)
C42_2 C 0.8526(3) 0.5547(2) 0.23195(19)
H27_2 H 0.803167 0.556370 0.211220
C44_2 C 0.9856(3) 0.7383(2) 0.0572(2)
C45_2 C 0.9385(5) 0.7138(3) 0.2007(3)
H30_2 H 0.977091 0.725868 0.234846
H31_2 H 0.899392 0.696756 0.214930
H32_2 H 0.920186 0.746796 0.175694
C46_2 C 0.8073(2) 0.9945(3) 0.0527(2)
H34_2 H 0.825737 0.955210 0.053978
O1_2 O 0.57131(14) 0.93426(15) 0.99224(13)
O3_2 O 0.45623(16) 0.90532(13) 0.98344(14)
O4_2 O 0.58343(16) 0.49816(14) 0.58942(12)
O5_3 O 0.750000 0.56000(19) 1.000000
O6_2 O 0.5337(2) 0.67271(17) 0.83385(15)
C1_2 C 0.5556(2) 0.53391(19) 0.67740(17)
C2_2 C 0.5340(2) 0.51885(18) 0.61175(17)
C3_2 C 0.5435(2) 0.8356(2) 0.9718(2)
C4_2 C 0.6727(3) 0.5674(2) 0.90195(18)
H1_2 H 0.694034 0.533776 0.891676
C5_2 C 0.5217(2) 0.8948(2) 0.98321(18)
C6_2 C 0.6967(3) 0.5904(2) 0.96003(18)
C7_2 C 0.6175(3) 0.5941(2) 0.85971(18)
C8_2 C 0.5940(2) 0.5711(2) 0.79732(18)
C9_2 C 0.6665(3) 0.6401(2) 0.97508(19)
C10_2 C 0.6159(3) 0.8220(2) 0.9779(2)
H3_2 H 0.651503 0.850796 0.988440
C11_2 C 0.6362(3) 0.7679(2) 0.9688(2)
H4_2 H 0.686108 0.759436 0.976572
C12_2 C 0.6120(3) 0.6680(2) 0.9336(2)
C13_2 C 0.5219(3) 0.5681(2) 0.76549(18)
H5_2 H 0.485538 0.578884 0.784523
C14_2 C 0.5019(3) 0.5496(2) 0.70608(18)
H6_2 H 0.452480 0.547603 0.685346
C15_2 C 0.6927(2) 0.9945(3) 0.9473(2)
H8_2 H 0.674263 0.955210 0.946022
C16_2 C 0.6276(3) 0.5357(2) 0.70826(18)
H9_2 H 0.663687 0.524258 0.689173
C17_2 C 0.5876(3) 0.7253(2) 0.9490(2)
C20_2 C 0.5868(3) 0.6451(2) 0.8758(2)
C21_2 C 0.6474(3) 0.5547(2) 0.76805(19)
H14_2 H 0.696833 0.556370 0.788780
C22_2 C 0.4934(3) 0.7923(2) 0.9553(2)
H15_2 H 0.444011 0.799676 0.952662
C23_2 C 0.5144(3) 0.7383(2) 0.9428(2)
H16_2 H 0.479029 0.709740 0.929770
C24_2 C 0.5615(5) 0.7138(3) 0.7993(3)
H17_2 H 0.522909 0.725868 0.765154
H18_2 H 0.600608 0.696756 0.785070
H19_2 H 0.579814 0.746796 0.824306
H21_2 H 0.816717 0.655269 0.985916
C47_2 C 0.7727(2) 0.9933(2) 0.9466(2)
H35_2 H 0.788982 0.953461 0.947014
O2_2 O 0.02998(15) 0.97234(14) 0.91626(12)
H5_3 H 0.014462 0.921116 0.715477
H6_3 H 0.047520 0.952397 0.814654
C22_3 C 0.0066(3) 0.7077(2) 0.5447(2)
H15_3 H 0.055989 0.700324 0.547338
H16_3 H 0.020971 0.790260 0.570230
O1_3 O 0.92869(14) 0.56574(15) 0.50776(13)
O5_4 O 0.750000 0.94000(19) 0.500000
O6_3 O 0.9663(2) 0.82729(17) 0.66615(15)
N1_3 N 0.81773(17) 0.47653(15) 0.49850(14)
C1_3 C 0.9444(2) 0.96609(19) 0.82260(17)
C2_3 C 0.9660(2) 0.98115(18) 0.88825(17)
C3_3 C 0.9565(2) 0.6644(2) 0.5282(2)
C4_3 C 0.8273(3) 0.9326(2) 0.59805(18)
H1_3 H 0.805966 0.966224 0.608324
C5_3 C 0.9783(2) 0.6052(2) 0.51679(18)
C6_3 C 0.8033(3) 0.9096(2) 0.53997(18)
C7_3 C 0.8825(3) 0.9059(2) 0.64029(18)
C8_3 C 0.9060(2) 0.9289(2) 0.70268(18)
C9_3 C 0.8335(3) 0.8599(2) 0.52492(19)
H2_3 H 0.816717 0.844731 0.485916
C10_3 C 0.8841(3) 0.6780(2) 0.5221(2)
H3_3 H 0.848497 0.649204 0.511560
C11_3 C 0.8638(3) 0.7321(2) 0.5312(2)
H4_3 H 0.813892 0.740564 0.523428
C12_3 C 0.8880(3) 0.8320(2) 0.5664(2)
C13_3 C 0.9781(3) 0.9319(2) 0.73451(18)
C14_3 C 0.9981(3) 0.9504(2) 0.79392(18)
C15_3 C 0.8073(2) 0.5055(3) 0.5527(2)
H7_3 H 0.835316 0.485382 0.588642
H8_3 H 0.825737 0.544790 0.553978
C16_3 C 0.8724(3) 0.9643(2) 0.79174(18)
H9_3 H 0.836313 0.975742 0.810827
C17_3 C 0.9124(3) 0.7747(2) 0.5510(2)
C18_3 C 0.7727(2) 0.5067(2) 0.4466(2)
H10_3 H 0.788982 0.546539 0.447014
H11_3 H 0.778467 0.488716 0.409515
C19_3 C 0.7901(2) 0.4179(2) 0.4990(3)
H12_3 H 0.794895 0.397666 0.462711
H13_3 H 0.819170 0.397367 0.534110
C20_3 C 0.9132(3) 0.8549(2) 0.6242(2)
C21_3 C 0.8526(3) 0.9453(2) 0.73195(19)
H14_3 H 0.803167 0.943630 0.711220
C23_3 C 0.9856(3) 0.7617(2) 0.5572(2)
C24_3 C 0.9385(5) 0.7862(3) 0.7007(3)
H17_3 H 0.977091 0.774132 0.734846
H18_3 H 0.899392 0.803244 0.714930
H19_3 H 0.920186 0.753204 0.675694
O7_3 O 0.57131(14) 0.56574(15) 0.49224(13)
O8_2 O 0.47002(15) 0.97234(14) 0.08374(12)
O11_3 O 0.5337(2) 0.82729(17) 0.33385(15)
C25_3 C 0.5556(2) 0.96609(19) 0.17740(17)
C26_3 C 0.5340(2) 0.98115(18) 0.11175(17)
C27_3 C 0.5435(2) 0.6644(2) 0.4718(2)
C28_3 C 0.6727(3) 0.9326(2) 0.40195(18)
H20_3 H 0.694034 0.966224 0.391676
C29_3 C 0.5217(2) 0.6052(2) 0.48321(18)
C30_3 C 0.6967(3) 0.9096(2) 0.46003(18)
C31_3 C 0.6175(3) 0.9059(2) 0.35971(18)
C32_3 C 0.5940(2) 0.9289(2) 0.29732(18)
C33_3 C 0.6665(3) 0.8599(2) 0.47508(19)
H21_3 H 0.683283 0.844731 0.514084
C34_3 C 0.6159(3) 0.6780(2) 0.4779(2)
H22_3 H 0.651503 0.649204 0.488440
C35_3 C 0.6362(3) 0.7321(2) 0.4688(2)
H23_3 H 0.686108 0.740564 0.476572
C36_3 C 0.6120(3) 0.8320(2) 0.4336(2)
C37_3 C 0.5219(3) 0.9319(2) 0.26549(18)
H24_3 H 0.485538 0.921116 0.284523
C38_3 C 0.5019(3) 0.9504(2) 0.20608(18)
H25_3 H 0.452480 0.952397 0.185346
C39_3 C 0.6276(3) 0.9643(2) 0.20826(18)
H26_3 H 0.663687 0.975742 0.189173
C40_3 C 0.5876(3) 0.7747(2) 0.4490(2)
C41_3 C 0.5868(3) 0.8549(2) 0.3758(2)
C42_3 C 0.6474(3) 0.9453(2) 0.26805(19)
H27_3 H 0.696833 0.943630 0.288780
C43_3 C 0.4934(3) 0.7077(2) 0.4553(2)
H28_3 H 0.444011 0.700324 0.452662
C44_3 C 0.5144(3) 0.7617(2) 0.4428(2)
H29_3 H 0.479029 0.790260 0.429770
C45_3 C 0.5615(5) 0.7862(3) 0.2993(3)
H30_3 H 0.522909 0.774132 0.265154
H31_3 H 0.600608 0.803244 0.285070
H32_3 H 0.579814 0.753204 0.324306
N2_3 N 0.68227(17) 0.47653(15) 0.50150(14)
C46_3 C 0.6927(2) 0.5055(3) 0.4473(2)
H33_3 H 0.664684 0.485382 0.411358
H34_3 H 0.674263 0.544790 0.446022
C47_3 C 0.7273(2) 0.5067(2) 0.5534(2)
H35_3 H 0.711018 0.546539 0.552986
H36_3 H 0.721533 0.488716 0.590485
C48_3 C 0.7099(2) 0.4179(2) 0.5010(3)
H37_3 H 0.705105 0.397666 0.537289
H38_3 H 0.680830 0.397367 0.465890
O12_2 O 0.52998(15) 0.47234(14) 0.41626(12)
O13_2 O 0.97002(15) 0.47234(14) 0.58374(12)
O1_4 O 0.42869(14) 0.06574(15) 0.00776(13)
O5_5 O 0.250000 0.44000(19) 0.000000
O6_4 O 0.4663(2) 0.32729(17) 0.16615(15)
C1_4 C 0.4444(2) 0.46609(19) 0.32260(17)
C2_4 C 0.4660(2) 0.48115(18) 0.38825(17)
C3_4 C 0.4565(2) 0.1644(2) 0.0282(2)
C4_4 C 0.3273(3) 0.4326(2) 0.09805(18)
H1_4 H 0.305966 0.466224 0.108324
C5_4 C 0.4783(2) 0.1052(2) 0.01679(18)
C6_4 C 0.3033(3) 0.4096(2) 0.03997(18)
C7_4 C 0.3825(3) 0.4059(2) 0.14029(18)
C8_4 C 0.4060(2) 0.4289(2) 0.20268(18)
C9_4 C 0.3335(3) 0.3599(2) 0.02492(19)
C10_4 C 0.3841(3) 0.1780(2) 0.0221(2)
H3_4 H 0.348497 0.149204 0.011560
C11_4 C 0.3638(3) 0.2321(2) 0.0312(2)
H4_4 H 0.313892 0.240564 0.023428
C12_4 C 0.3880(3) 0.3320(2) 0.0664(2)
C13_4 C 0.4781(3) 0.4319(2) 0.23451(18)
H5_4 H 0.514462 0.421116 0.215477
C14_4 C 0.4981(3) 0.4504(2) 0.29392(18)
H6_4 H 0.547520 0.452397 0.314654
C15_4 C 0.3073(2) 0.0055(3) 0.0527(2)
H8_4 H 0.325737 0.044790 0.053978
C16_4 C 0.3724(3) 0.4643(2) 0.29174(18)
H9_4 H 0.336313 0.475742 0.310827
C17_4 C 0.4124(3) 0.2747(2) 0.0510(2)
C20_4 C 0.4132(3) 0.3549(2) 0.1242(2)
C21_4 C 0.3526(3) 0.4453(2) 0.23195(19)
H14_4 H 0.303167 0.443630 0.211220
C22_4 C 0.5066(3) 0.2077(2) 0.0447(2)
H15_4 H 0.555989 0.200324 0.047338
C23_4 C 0.4856(3) 0.2617(2) 0.0572(2)
H16_4 H 0.520971 0.290260 0.070230
C24_4 C 0.4385(5) 0.2862(3) 0.2007(3)
H17_4 H 0.477091 0.274132 0.234846
H18_4 H 0.399392 0.303244 0.214930
H19_4 H 0.420186 0.253204 0.175694
H21_4 H 0.183283 0.344731 0.014084
C47_4 C 0.2273(2) 0.0067(2) 0.0534(2)
H35_4 H 0.211018 0.046539 0.052986
O5_6 O 0.250000 0.44000(19) 1.000000
H2_4 H 0.316717 0.344731 0.985916
C18_4 C 0.2727(2) 0.0067(2) 0.9466(2)
H10_4 H 0.288982 0.046539 0.947014
O7_4 O 0.07131(14) 0.06574(15) 0.99224(13)
O11_4 O 0.0337(2) 0.32729(17) 0.83385(15)
C25_4 C 0.0556(2) 0.46609(19) 0.67740(17)
C26_4 C 0.0340(2) 0.48115(18) 0.61175(17)
C27_4 C 0.0435(2) 0.1644(2) 0.9718(2)
C28_4 C 0.1727(3) 0.4326(2) 0.90195(18)
H20_4 H 0.194034 0.466224 0.891676
C29_4 C 0.0217(2) 0.1052(2) 0.98321(18)
C30_4 C 0.1967(3) 0.4096(2) 0.96003(18)
C31_4 C 0.1175(3) 0.4059(2) 0.85971(18)
C32_4 C 0.0940(2) 0.4289(2) 0.79732(18)
C33_4 C 0.1665(3) 0.3599(2) 0.97508(19)
C34_4 C 0.1159(3) 0.1780(2) 0.9779(2)
H22_4 H 0.151503 0.149204 0.988440
C35_4 C 0.1362(3) 0.2321(2) 0.9688(2)
H23_4 H 0.186108 0.240564 0.976572
C36_4 C 0.1120(3) 0.3320(2) 0.9336(2)
C37_4 C 0.0219(3) 0.4319(2) 0.76549(18)
C38_4 C 0.0019(3) 0.4504(2) 0.70608(18)
C39_4 C 0.1276(3) 0.4643(2) 0.70826(18)
H26_4 H 0.163687 0.475742 0.689173
C40_4 C 0.0876(3) 0.2747(2) 0.9490(2)
C41_4 C 0.0868(3) 0.3549(2) 0.8758(2)
C42_4 C 0.1474(3) 0.4453(2) 0.76805(19)
H27_4 H 0.196833 0.443630 0.788780
C44_4 C 0.0144(3) 0.2617(2) 0.9428(2)
C45_4 C 0.0615(5) 0.2862(3) 0.7993(3)
H30_4 H 0.022909 0.274132 0.765154
H31_4 H 0.100608 0.303244 0.785070
H32_4 H 0.079814 0.253204 0.824306
C46_4 C 0.1927(2) 0.0055(3) 0.9473(2)
H34_4 H 0.174263 0.044790 0.946022
H7_4 H 0.335316 0.985382 0.088642
H13_4 H 0.319170 0.897367 0.034110
N2_4 N 0.18227(17) 0.97653(15) 0.00150(14)
H36_4 H 0.221533 0.988716 0.090485
C48_4 C 0.2099(2) 0.9179(2) 0.0010(3)
H37_4 H 0.205105 0.897666 0.037289
N1_4 N 0.31773(17) 0.97653(15) 0.99850(14)
H11_4 H 0.278467 0.988716 0.909515
C19_4 C 0.2901(2) 0.9179(2) 0.9990(3)
H12_4 H 0.294895 0.897666 0.962711
H33_4 H 0.164684 0.985382 0.911358
H38_4 H 0.180830 0.897367 0.965890
H24_4 H 0.985538 0.421116 0.784523
H25_4 H 0.952480 0.452397 0.685346
C43_4 C 0.9934(3) 0.2077(2) 0.9553(2)
H28_4 H 0.944011 0.200324 0.952662
H29_4 H 0.979029 0.290260 0.929770
loop_
_geom_bond_atom_site_label_1
_geom_bond_atom_site_label_2
_geom_bond_site_symmetry_1
_geom_bond_site_symmetry_2
Cu1 O1 1_555 1_555
O1 C5 1_555 1_555
O5 C6 1_555 1_555
O6 C20 1_555 1_555
N1 Cu1 1_555 1_555
C1 C2 1_555 1_555
C3 C5 1_555 1_555
C4 H1 1_555 1_555
C6 C4 1_555 1_555
C7 C4 1_555 1_555
C8 C7 1_555 1_555
C9 C6 1_555 1_555
H2 C9 1_555 1_555
C10 C3 1_555 1_555
H3 C10 1_555 1_555
C11 C10 1_555 1_555
H4 C11 1_555 1_555
C12 C9 1_555 1_555
C13 C8 1_555 1_555
C14 C1 1_555 1_555
C15 N1 1_555 1_555
H7 C15 1_555 1_555
H8 C15 1_555 1_555
C16 C1 1_555 1_555
H9 C16 1_555 1_555
C17 C11 1_555 1_555
C18 N1 1_555 1_555
H10 C18 1_555 1_555
H11 C18 1_555 1_555
C19 N1 1_555 1_555
H12 C19 1_555 1_555
H13 C19 1_555 1_555
C20 C7 1_555 1_555
C21 C8 1_555 1_555
H14 C21 1_555 1_555
C23 C17 1_555 1_555
C24 O6 1_555 1_555
H17 C24 1_555 1_555
H18 C24 1_555 1_555
H19 C24 1_555 1_555
O7 C29 1_555 1_555
O8 C26 1_555 1_555
O9 C29 1_555 1_555
O11 C41 1_555 1_555
C25 C26 1_555 1_555
C27 C29 1_555 1_555
C28 H20 1_555 1_555
C30 O5 1_555 1_555
C31 C28 1_555 1_555
C32 C31 1_555 1_555
C33 C30 1_555 1_555
H21 C33 1_555 1_555
C34 C27 1_555 1_555
H22 C34 1_555 1_555
C35 C34 1_555 1_555
H23 C35 1_555 1_555
C36 C33 1_555 1_555
C37 C32 1_555 1_555
H24 C37 1_555 1_555
C38 C25 1_555 1_555
H25 C38 1_555 1_555
C39 C25 1_555 1_555
H26 C39 1_555 1_555
C40 C35 1_555 1_555
C41 C31 1_555 1_555
C42 C32 1_555 1_555
H27 C42 1_555 1_555
C43 C27 1_555 1_555
H28 C43 1_555 1_555
C44 C40 1_555 1_555
H29 C44 1_555 1_555
C45 O11 1_555 1_555
H30 C45 1_555 1_555
H31 C45 1_555 1_555
H32 C45 1_555 1_555
N2 C46 1_555 1_555
C46 C18 1_555 1_555
H33 C46 1_555 1_555
H34 C46 1_555 1_555
C47 C15 1_555 1_555
H35 C47 1_555 1_555
H36 C47 1_555 1_555
C48 C19 1_555 1_555
H37 C48 1_555 1_555
H38 C48 1_555 1_555
Cu2 O7 1_555 1_555
Cu6 O9 1_555 1_555
O12 Cu2 1_555 1_555
O13 Cu1 1_555 1_555
O14 Cu1 1_555 1_555
O15 Cu2 1_555 1_555
O16 Cu2 1_555 1_555
O17 Cu1 1_555 1_555
C12 C17 1_555 1_555
C12 C20 1_555 1_555
C13 C14 1_555 1_555
C16 C21 1_555 1_555
C28 C30 1_555 1_555
C36 C40 1_555 1_555
C36 C41 1_555 1_555
C37 C38 1_555 1_555
C39 C42 1_555 1_555
C43 C44 1_555 1_555
N2 C47 1_555 1_555
N2 C48 1_555 1_555
N2 Cu2 1_555 1_555
Cu2 Cu6 1_555 1_555
Cu7 O10 1_555 1_555
Cu8 O4 1_555 1_555
H15 C22 1_555 1_555
O3 Cu5 1_555 1_555
H28_2 C43_2 1_555 1_555
Cu8 O9_2 1_555 1_555
N1_2 Cu3 1_555 1_555
C19_2 N1_2 1_555 1_555
H12_2 C19_2 1_555 1_555
O14_2 Cu3 1_555 1_555
O17_2 Cu3 1_555 1_555
H37_2 C48_2 1_555 1_555
O15_2 Cu4 1_555 1_555
O16_2 Cu4 1_555 1_555
N2_2 C48_2 1_555 1_555
N2_2 Cu4 1_555 1_555
H10_2 C18_2 1_555 1_555
O7_2 C29_2 1_555 1_555
O10_2 C26_2 1_555 1_555
O11_2 C41_2 1_555 1_555
C25_2 C26_2 1_555 1_555
C27_2 C29_2 1_555 1_555
C28_2 H20_2 1_555 1_555
C30_2 O5_2 1_555 1_555
C31_2 C28_2 1_555 1_555
C32_2 C31_2 1_555 1_555
C33_2 C30_2 1_555 1_555
C34_2 C27_2 1_555 1_555
H22_2 C34_2 1_555 1_555
C35_2 C34_2 1_555 1_555
H23_2 C35_2 1_555 1_555
C36_2 C33_2 1_555 1_555
C37_2 C32_2 1_555 1_555
C38_2 C25_2 1_555 1_555
C39_2 C25_2 1_555 1_555
H26_2 C39_2 1_555 1_555
C40_2 C35_2 1_555 1_555
C41_2 C31_2 1_555 1_555
C42_2 C32_2 1_555 1_555
H27_2 C42_2 1_555 1_555
C44_2 C40_2 1_555 1_555
C45_2 O11_2 1_555 1_555
H30_2 C45_2 1_555 1_555
H31_2 C45_2 1_555 1_555
H32_2 C45_2 1_555 1_555
C46_2 C18_2 1_555 1_555
H34_2 C46_2 1_555 1_555
Cu5 O10_2 1_555 1_555
C28_2 C30_2 1_555 1_555
C36_2 C40_2 1_555 1_555
C36_2 C41_2 1_555 1_555
C37_2 C38_2 1_555 1_555
C39_2 C42_2 1_555 1_555
O1_2 C5_2 1_555 1_555
O12 C2_2 1_555 1_555
O3_2 C5_2 1_555 1_555
O4_2 C2_2 1_555 1_555
O5_3 C6_2 1_555 1_555
O6_2 C20_2 1_555 1_555
C1_2 C2_2 1_555 1_555
C3_2 C5_2 1_555 1_555
C4_2 H1_2 1_555 1_555
C6_2 C4_2 1_555 1_555
C7_2 C4_2 1_555 1_555
C8_2 C7_2 1_555 1_555
C9_2 C6_2 1_555 1_555
C10_2 C3_2 1_555 1_555
H3_2 C10_2 1_555 1_555
C11_2 C10_2 1_555 1_555
H4_2 C11_2 1_555 1_555
C12_2 C9_2 1_555 1_555
C13_2 C8_2 1_555 1_555
H5_2 C13_2 1_555 1_555
C14_2 C1_2 1_555 1_555
H6_2 C14_2 1_555 1_555
H8_2 C15_2 1_555 1_555
C16_2 C1_2 1_555 1_555
H9_2 C16_2 1_555 1_555
C17_2 C11_2 1_555 1_555
C20_2 C7_2 1_555 1_555
C21_2 C8_2 1_555 1_555
H14_2 C21_2 1_555 1_555
C22_2 C3_2 1_555 1_555
H15_2 C22_2 1_555 1_555
C23_2 C17_2 1_555 1_555
H16_2 C23_2 1_555 1_555
C24_2 O6_2 1_555 1_555
H17_2 C24_2 1_555 1_555
H18_2 C24_2 1_555 1_555
H19_2 C24_2 1_555 1_555
C47_2 C15_2 1_555 1_555
H35_2 C47_2 1_555 1_555
Cu6 O4_2 1_555 1_555
O3_2 Cu7 1_555 1_555
C12_2 C17_2 1_555 1_555
C12_2 C20_2 1_555 1_555
C13_2 C14_2 1_555 1_555
C16_2 C21_2 1_555 1_555
C22_2 C23_2 1_555 1_555
H15_3 C22_3 1_555 1_555
Cu5 O1_3 1_555 1_555
O1_3 C5_3 1_555 1_555
O5_4 C6_3 1_555 1_555
O6_3 C20_3 1_555 1_555
N1_3 Cu5 1_555 1_555
C1_3 C2_3 1_555 1_555
C3_3 C5_3 1_555 1_555
C4_3 H1_3 1_555 1_555
C6_3 C4_3 1_555 1_555
C7_3 C4_3 1_555 1_555
C8_3 C7_3 1_555 1_555
C9_3 C6_3 1_555 1_555
H2_3 C9_3 1_555 1_555
C10_3 C3_3 1_555 1_555
H3_3 C10_3 1_555 1_555
C11_3 C10_3 1_555 1_555
H4_3 C11_3 1_555 1_555
C12_3 C9_3 1_555 1_555
C13_3 C8_3 1_555 1_555
C14_3 C1_3 1_555 1_555
C15_3 N1_3 1_555 1_555
H7_3 C15_3 1_555 1_555
H8_3 C15_3 1_555 1_555
C16_3 C1_3 1_555 1_555
H9_3 C16_3 1_555 1_555
C17_3 C11_3 1_555 1_555
C18_3 N1_3 1_555 1_555
H10_3 C18_3 1_555 1_555
H11_3 C18_3 1_555 1_555
C19_3 N1_3 1_555 1_555
H12_3 C19_3 1_555 1_555
H13_3 C19_3 1_555 1_555
C20_3 C7_3 1_555 1_555
C21_3 C8_3 1_555 1_555
H14_3 C21_3 1_555 1_555
C23_3 C17_3 1_555 1_555
C24_3 O6_3 1_555 1_555
H17_3 C24_3 1_555 1_555
H18_3 C24_3 1_555 1_555
H19_3 C24_3 1_555 1_555
O7_3 C29_3 1_555 1_555
O8_2 C26_3 1_555 1_555
O15 C29_3 1_555 1_555
O11_3 C41_3 1_555 1_555
C25_3 C26_3 1_555 1_555
C27_3 C29_3 1_555 1_555
C28_3 H20_3 1_555 1_555
C30_3 O5_4 1_555 1_555
C31_3 C28_3 1_555 1_555
C32_3 C31_3 1_555 1_555
C33_3 C30_3 1_555 1_555
H21_3 C33_3 1_555 1_555
C34_3 C27_3 1_555 1_555
H22_3 C34_3 1_555 1_555
C35_3 C34_3 1_555 1_555
H23_3 C35_3 1_555 1_555
C36_3 C33_3 1_555 1_555
C37_3 C32_3 1_555 1_555
H24_3 C37_3 1_555 1_555
C38_3 C25_3 1_555 1_555
H25_3 C38_3 1_555 1_555
C39_3 C25_3 1_555 1_555
H26_3 C39_3 1_555 1_555
C40_3 C35_3 1_555 1_555
C41_3 C31_3 1_555 1_555
C42_3 C32_3 1_555 1_555
H27_3 C42_3 1_555 1_555
C43_3 C27_3 1_555 1_555
H28_3 C43_3 1_555 1_555
C44_3 C40_3 1_555 1_555
H29_3 C44_3 1_555 1_555
C45_3 O11_3 1_555 1_555
H30_3 C45_3 1_555 1_555
H31_3 C45_3 1_555 1_555
H32_3 C45_3 1_555 1_555
N2_3 C46_3 1_555 1_555
C46_3 C18_3 1_555 1_555
H33_3 C46_3 1_555 1_555
H34_3 C46_3 1_555 1_555
C47_3 C15_3 1_555 1_555
H35_3 C47_3 1_555 1_555
H36_3 C47_3 1_555 1_555
C48_3 C19_3 1_555 1_555
H37_3 C48_3 1_555 1_555
H38_3 C48_3 1_555 1_555
Cu6 O7_3 1_555 1_555
O12_2 Cu6 1_555 1_555
O13_2 Cu5 1_555 1_555
C12_3 C17_3 1_555 1_555
C12_3 C20_3 1_555 1_555
C13_3 C14_3 1_555 1_555
C16_3 C21_3 1_555 1_555
C28_3 C30_3 1_555 1_555
C36_3 C40_3 1_555 1_555
C36_3 C41_3 1_555 1_555
C37_3 C38_3 1_555 1_555
C39_3 C42_3 1_555 1_555
C43_3 C44_3 1_555 1_555
N2_3 C47_3 1_555 1_555
N2_3 C48_3 1_555 1_555
N2_3 Cu6 1_555 1_555
O1_4 C5_4 1_555 1_555
O12_2 C2_4 1_555 1_555
O14_2 C5_4 1_555 1_555
O16 C2_4 1_555 1_555
O5_5 C6_4 1_555 1_555
O6_4 C20_4 1_555 1_555
C1_4 C2_4 1_555 1_555
C3_4 C5_4 1_555 1_555
C4_4 H1_4 1_555 1_555
C6_4 C4_4 1_555 1_555
C7_4 C4_4 1_555 1_555
C8_4 C7_4 1_555 1_555
C9_4 C6_4 1_555 1_555
C10_4 C3_4 1_555 1_555
H3_4 C10_4 1_555 1_555
C11_4 C10_4 1_555 1_555
H4_4 C11_4 1_555 1_555
C12_4 C9_4 1_555 1_555
C13_4 C8_4 1_555 1_555
H5_4 C13_4 1_555 1_555
C14_4 C1_4 1_555 1_555
H6_4 C14_4 1_555 1_555
H8_4 C15_4 1_555 1_555
C16_4 C1_4 1_555 1_555
H9_4 C16_4 1_555 1_555
C17_4 C11_4 1_555 1_555
C20_4 C7_4 1_555 1_555
C21_4 C8_4 1_555 1_555
H14_4 C21_4 1_555 1_555
C22_4 C3_4 1_555 1_555
H15_4 C22_4 1_555 1_555
C23_4 C17_4 1_555 1_555
H16_4 C23_4 1_555 1_555
C24_4 O6_4 1_555 1_555
H17_4 C24_4 1_555 1_555
H18_4 C24_4 1_555 1_555
H19_4 C24_4 1_555 1_555
C47_4 C15_4 1_555 1_555
H35_4 C47_4 1_555 1_555
C12_4 C17_4 1_555 1_555
C12_4 C20_4 1_555 1_555
C13_4 C14_4 1_555 1_555
C16_4 C21_4 1_555 1_555
C22_4 C23_4 1_555 1_555
H10_4 C18_4 1_555 1_555
O7_4 C29_4 1_555 1_555
O17 C26_4 1_555 1_555
O11_4 C41_4 1_555 1_555
C25_4 C26_4 1_555 1_555
C27_4 C29_4 1_555 1_555
C28_4 H20_4 1_555 1_555
C30_4 O5_6 1_555 1_555
C31_4 C28_4 1_555 1_555
C32_4 C31_4 1_555 1_555
C33_4 C30_4 1_555 1_555
C34_4 C27_4 1_555 1_555
H22_4 C34_4 1_555 1_555
C35_4 C34_4 1_555 1_555
H23_4 C35_4 1_555 1_555
C36_4 C33_4 1_555 1_555
C37_4 C32_4 1_555 1_555
C38_4 C25_4 1_555 1_555
C39_4 C25_4 1_555 1_555
H26_4 C39_4 1_555 1_555
C40_4 C35_4 1_555 1_555
C41_4 C31_4 1_555 1_555
C42_4 C32_4 1_555 1_555
H27_4 C42_4 1_555 1_555
C44_4 C40_4 1_555 1_555
C45_4 O11_4 1_555 1_555
H30_4 C45_4 1_555 1_555
H31_4 C45_4 1_555 1_555
H32_4 C45_4 1_555 1_555
C46_4 C18_4 1_555 1_555
H34_4 C46_4 1_555 1_555
C28_4 C30_4 1_555 1_555
C36_4 C40_4 1_555 1_555
C36_4 C41_4 1_555 1_555
C37_4 C38_4 1_555 1_555
C39_4 C42_4 1_555 1_555
H37_4 C48_4 1_555 1_555
N2_4 C48_4 1_555 1_555
N2_4 Cu8 1_555 1_555
N1_4 Cu7 1_555 1_555
C19_4 N1_4 1_555 1_555
H12_4 C19_4 1_555 1_555
H28_4 C43_4 1_555 1_555

#END
