
###############################################################################
#
# This file contains modified crystal structure data generated from the
# MOF subset of the Cambridge Structural Database (CSD) v543 
# hosted by the Cambridge Crystallographic Data Centre (CCDC).
#
# This work is licensed under the Creative Commons
# Attribution-NonCommercial-ShareAlike 4.0 International License.
# To view a copy of this license, visit
# http://creativecommons.org/licenses/by-nc-sa/4.0/
# or send a letter to
# Creative Commons, PO Box 1866, Mountain View, CA 94042, USA.
#
# CIF created using the CSD Python API on 29 September 2022
# The structure has been converted into the P1 space group
# The structure has a 3D framework
# The original CSD entry TUGSIA is in the monoclinic crystal system
# The framework has been calculated to contain at least 10.0% void space
# The void calculation uses a probe of radius 1.32A, grid spacing 0.4
#
###############################################################################

data_TUGSIA
_chemical_formula_moiety         '(C184 H144 Cu8 N16 O32)n'
_symmetry_cell_setting           triclinic
_symmetry_space_group_name_H-M   'P 1'
_symmetry_Int_Tables_number      1
_space_group_name_Hall           'P 1'
loop_
_symmetry_equiv_pos_site_id
_symmetry_equiv_pos_as_xyz
1 x,y,z
_cell_length_a                   18.9908(10)
_cell_length_b                   22.1873(13)
_cell_length_c                   23.2864(13)
_cell_angle_alpha                90
_cell_angle_beta                 105.529(4)
_cell_angle_gamma                90
_cell_volume                     9453.65
loop_
_atom_site_label
_atom_site_type_symbol
_atom_site_fract_x
_atom_site_fract_y
_atom_site_fract_z
Cu9 Cu 0.06798(6) 0.01609(8) 0.00322(5)
Cu1 Cu 0.06798(6) 0.48391(8) 0.50322(5)
O2 O 0.0454(3) 0.4007(3) 0.5113(2)
O3 O 0.0294(3) 0.0227(4) 0.9169(2)
N1 N 0.1810(3) 0.4768(5) 0.5023(3)
H1 H 0.004631 0.142740 0.682089
C3 C 0.2288(5) 0.5046(5) 0.5526(4)
H3 H 0.224790 0.484336 0.589445
H4 H 0.211410 0.546546 0.553075
H5 H 0.046814 0.032301 0.815123
C7 C 0.1911(4) 0.5041(6) 0.4470(4)
H6 H 0.173984 0.546223 0.447609
H7 H 0.160444 0.484343 0.410799
C9 C 0.0071(7) 0.2838(7) 0.5362(5)
H8 H 0.056442 0.293257 0.537998
H10 H 0.012907 0.053007 0.712971
H11 H 0.023305 0.194250 0.562801
C19 C 0.2097(5) 0.4147(7) 0.5013(5)
H15 H 0.180052 0.393299 0.465731
H16 H 0.204902 0.392679 0.537071
N4 N 0.3190(3) 0.4768(5) 0.4977(3)
C44 C 0.2712(5) 0.5046(5) 0.4474(4)
H31 H 0.275210 0.484336 0.410555
H32 H 0.288590 0.546546 0.446925
C45 C 0.3089(4) 0.5041(6) 0.5530(4)
H33 H 0.326016 0.546223 0.552391
H34 H 0.339556 0.484343 0.589201
C46 C 0.2903(5) 0.4147(7) 0.4987(5)
H35 H 0.319948 0.393299 0.534269
H36 H 0.295098 0.392679 0.462929
Cu3 Cu 0.43202(6) 0.48391(8) 0.49678(5)
O10 O 0.0739(3) 0.5699(4) 0.4975(2)
O13 O 0.0294(3) 0.4773(4) 0.4169(2)
O15 O 0.0860(3) 0.4944(4) 0.5889(2)
O1 O 0.9261(3) 0.4301(4) 0.5025(2)
O5 O 0.750000 0.0342(6) 0.500000
N2 N 0.9658(5) 0.1646(5) 0.6647(4)
H2 H 0.979391 0.194420 0.644949
C1 C 0.9542(6) 0.3258(7) 0.5205(4)
C2 C 0.9759(6) 0.3904(7) 0.5117(4)
C4 C 0.9435(5) 0.0264(5) 0.8227(3)
C5 C 0.8828(6) 0.0751(7) 0.6377(4)
C6 C 0.9967(5) 0.0352(5) 0.7940(4)
C8 C 0.9040(6) 0.0552(5) 0.7038(4)
C10 C 0.9659(5) 0.0140(5) 0.8893(4)
C11 C 0.9138(7) 0.2103(7) 0.5457(5)
C12 C 0.8342(7) 0.1184(6) 0.5246(4)
H9 H 0.814623 0.134061 0.485611
C13 C 0.9765(6) 0.0485(5) 0.7337(4)
C14 C 0.9868(7) 0.2243(8) 0.5503(5)
C15 C 0.8840(7) 0.3106(6) 0.5163(5)
H12 H 0.847217 0.340428 0.503260
C16 C 0.8057(6) 0.0655(7) 0.5404(5)
C17 C 0.8283(6) 0.0464(6) 0.5982(5)
H13 H 0.805353 0.012651 0.610596
C18 C 0.8709(5) 0.0303(6) 0.7913(4)
H14 H 0.834142 0.023918 0.811439
C20 C 0.9125(6) 0.1297(7) 0.6247(4)
C21 C 0.8889(6) 0.1485(7) 0.5627(5)
C22 C 0.8637(7) 0.2559(7) 0.5294(5)
H17 H 0.813899 0.248428 0.527533
C23 C 0.8505(5) 0.0433(6) 0.7306(5)
H18 H 0.800478 0.043867 0.708654
O6 O 0.5739(3) 0.4301(4) 0.4975(2)
O7 O 0.4546(3) 0.4007(3) 0.4887(2)
O8 O 0.4706(3) 0.0227(4) 0.0831(2)
N3 N 0.5342(5) 0.1646(5) 0.3353(4)
H19 H 0.495369 0.142740 0.317911
H20 H 0.520609 0.194420 0.355051
C24 C 0.5458(6) 0.3258(7) 0.4795(4)
C25 C 0.5241(6) 0.3904(7) 0.4883(4)
C26 C 0.5565(5) 0.0264(5) 0.1773(3)
C27 C 0.6172(6) 0.0751(7) 0.3623(4)
C28 C 0.5033(5) 0.0352(5) 0.2060(4)
H21 H 0.453186 0.032301 0.184877
C29 C 0.5960(6) 0.0552(5) 0.2962(4)
C30 C 0.4929(7) 0.2838(7) 0.4638(5)
H22 H 0.443558 0.293257 0.462002
C31 C 0.5341(5) 0.0140(5) 0.1107(4)
C32 C 0.5862(7) 0.2103(7) 0.4543(5)
C33 C 0.6658(7) 0.1184(6) 0.4754(4)
H23 H 0.685377 0.134061 0.514389
C34 C 0.5235(6) 0.0485(5) 0.2663(4)
H24 H 0.487093 0.053007 0.287029
C35 C 0.5132(7) 0.2243(8) 0.4497(5)
H25 H 0.476695 0.194250 0.437199
C36 C 0.6160(7) 0.3106(6) 0.4837(5)
H26 H 0.652783 0.340428 0.496740
C37 C 0.6943(6) 0.0655(7) 0.4596(5)
C38 C 0.6717(6) 0.0464(6) 0.4018(5)
H27 H 0.694647 0.012651 0.389404
C39 C 0.6291(5) 0.0303(6) 0.2087(4)
H28 H 0.665858 0.023918 0.188561
C40 C 0.5875(6) 0.1297(7) 0.3753(4)
C41 C 0.6111(6) 0.1485(7) 0.4373(5)
C42 C 0.6363(7) 0.2559(7) 0.4706(5)
H29 H 0.686101 0.248428 0.472467
C43 C 0.6495(5) 0.0433(6) 0.2694(5)
H30 H 0.699522 0.043867 0.291346
Cu6 Cu 0.93202(6) 0.51609(8) 0.49678(5)
Cu7 Cu 0.56798(6) 0.51609(8) 0.50322(5)
O11 O 0.4261(3) 0.5699(4) 0.5025(2)
O12 O 0.4706(3) 0.4773(4) 0.5831(2)
O14 O 0.4140(3) 0.4944(4) 0.4111(2)
Cu8 Cu 0.43202(6) 0.01609(8) 0.99678(5)
O4 O 0.9140(3) 0.9944(4) 0.9111(2)
O9 O 0.5860(3) 0.9944(4) 0.0889(2)
Cu4 Cu 0.56798(6) 0.98391(8) 0.00322(5)
Cu5 Cu 0.93202(6) 0.98391(8) 0.99678(5)
C3_2 C 0.7288(5) 0.0046(5) 0.0526(4)
H4_2 H 0.711410 0.046546 0.053075
C45_2 C 0.8089(4) 0.0041(6) 0.0530(4)
H33_2 H 0.826016 0.046223 0.052391
C7_2 C 0.6911(4) 0.0041(6) 0.9470(4)
H6_2 H 0.673984 0.046223 0.947609
C44_2 C 0.7712(5) 0.0046(5) 0.9474(4)
H32_2 H 0.788590 0.046546 0.946925
O10_2 O 0.5739(3) 0.0699(4) 0.9975(2)
O1_2 O 0.4261(3) 0.9301(4) 0.0025(2)
O2_2 O 0.5454(3) 0.9007(3) 0.0113(2)
O3_2 O 0.5294(3) 0.5227(4) 0.4169(2)
O5_2 O 0.250000 0.5342(6) -0.000000
N1_2 N 0.6810(3) 0.9768(5) 0.0023(3)
N2_2 N 0.4658(5) 0.6646(5) 0.1647(4)
H1_2 H 0.504631 0.642740 0.182089
H2_2 H 0.479391 0.694420 0.144949
C1_2 C 0.4542(6) 0.8258(7) 0.0205(4)
C2_2 C 0.4759(6) 0.8904(7) 0.0117(4)
H3_2 H 0.724790 0.984336 0.089445
C4_2 C 0.4435(5) 0.5264(5) 0.3227(3)
C5_2 C 0.3828(6) 0.5751(7) 0.1377(4)
C6_2 C 0.4967(5) 0.5352(5) 0.2940(4)
H5_2 H 0.546814 0.532301 0.315123
C8_2 C 0.4040(6) 0.5552(5) 0.2038(4)
C9_2 C 0.5071(7) 0.7838(7) 0.0362(5)
H8_2 H 0.556442 0.793257 0.037998
C10_2 C 0.4659(5) 0.5140(5) 0.3893(4)
C11_2 C 0.4138(7) 0.7103(7) 0.0457(5)
C12_2 C 0.3342(7) 0.6184(6) 0.0246(4)
C13_2 C 0.4765(6) 0.5485(5) 0.2337(4)
H10_2 H 0.512907 0.553007 0.212971
C14_2 C 0.4868(7) 0.7243(8) 0.0503(5)
H11_2 H 0.523305 0.694250 0.062801
C15_2 C 0.3840(7) 0.8106(6) 0.0163(5)
H12_2 H 0.347217 0.840428 0.003260
C16_2 C 0.3057(6) 0.5655(7) 0.0404(5)
C17_2 C 0.3283(6) 0.5464(6) 0.0982(5)
H13_2 H 0.305353 0.512651 0.110596
C18_2 C 0.3709(5) 0.5303(6) 0.2913(4)
H14_2 H 0.334142 0.523918 0.311439
C19_2 C 0.7097(5) 0.9147(7) 0.0013(5)
H16_2 H 0.704902 0.892679 0.037071
C20_2 C 0.4125(6) 0.6297(7) 0.1247(4)
C21_2 C 0.3889(6) 0.6485(7) 0.0627(5)
C22_2 C 0.3637(7) 0.7559(7) 0.0294(5)
H17_2 H 0.313899 0.748428 0.027533
C23_2 C 0.3505(5) 0.5433(6) 0.2306(5)
H18_2 H 0.300478 0.543867 0.208654
H23_2 H 0.185377 0.634061 0.014389
H34_2 H 0.839556 0.984343 0.089201
H35_2 H 0.819948 0.893299 0.034269
O5_3 O 0.250000 0.5342(6) 1.000000
H7_2 H 0.660444 0.984343 0.910799
H9_2 H 0.314623 0.634061 0.985611
H15_2 H 0.680052 0.893299 0.965731
O6_2 O 0.0739(3) 0.9301(4) 0.9975(2)
N3_2 N 0.0342(5) 0.6646(5) 0.8353(4)
H20_2 H 0.020609 0.694420 0.855051
C24_2 C 0.0458(6) 0.8258(7) 0.9795(4)
C25_2 C 0.0241(6) 0.8904(7) 0.9883(4)
C26_2 C 0.0565(5) 0.5264(5) 0.6773(3)
C27_2 C 0.1172(6) 0.5751(7) 0.8623(4)
C28_2 C 0.0033(5) 0.5352(5) 0.7060(4)
C29_2 C 0.0960(6) 0.5552(5) 0.7962(4)
C31_2 C 0.0341(5) 0.5140(5) 0.6107(4)
C32_2 C 0.0862(7) 0.7103(7) 0.9543(5)
C33_2 C 0.1658(7) 0.6184(6) 0.9754(4)
C34_2 C 0.0235(6) 0.5485(5) 0.7663(4)
C35_2 C 0.0132(7) 0.7243(8) 0.9497(5)
C36_2 C 0.1160(7) 0.8106(6) 0.9837(5)
H26_2 H 0.152783 0.840428 0.996740
C37_2 C 0.1943(6) 0.5655(7) 0.9596(5)
C38_2 C 0.1717(6) 0.5464(6) 0.9018(5)
H27_2 H 0.194647 0.512651 0.889404
C39_2 C 0.1291(5) 0.5303(6) 0.7087(4)
H28_2 H 0.165858 0.523918 0.688561
C40_2 C 0.0875(6) 0.6297(7) 0.8753(4)
C41_2 C 0.1111(6) 0.6485(7) 0.9373(5)
C42_2 C 0.1363(7) 0.7559(7) 0.9706(5)
H29_2 H 0.186101 0.748428 0.972467
C43_2 C 0.1495(5) 0.5433(6) 0.7694(5)
H30_2 H 0.199522 0.543867 0.791346
N4_2 N 0.8190(3) 0.9768(5) 0.9977(3)
H31_2 H 0.775210 0.984336 0.910555
C46_2 C 0.7903(5) 0.9147(7) 0.9987(5)
H36_2 H 0.795098 0.892679 0.962929
O13_2 O 0.5294(3) 0.9773(4) 0.9169(2)
O11_2 O 0.9261(3) 0.0699(4) 0.0025(2)
O12_2 O 0.9706(3) 0.9773(4) 0.0831(2)
O7_2 O 0.9546(3) 0.9007(3) 0.9887(2)
O8_2 O 0.9706(3) 0.5227(4) 0.5831(2)
H19_2 H 0.995369 0.642740 0.817911
H21_2 H 0.953186 0.532301 0.684877
C30_2 C 0.9929(7) 0.7838(7) 0.9638(5)
H22_2 H 0.943558 0.793257 0.962002
H24_2 H 0.987093 0.553007 0.787029
H25_2 H 0.976695 0.694250 0.937199
O4_2 O 0.0860(3) 0.0056(4) 0.0889(2)
O9_2 O 0.4140(3) 0.0056(4) 0.9111(2)
O5_4 O 0.250000 0.9658(6) 0.500000
N2_3 N 0.0342(5) 0.8354(5) 0.3353(4)
H2_3 H 0.020609 0.805580 0.355051
C1_3 C 0.0458(6) 0.6742(7) 0.4795(4)
C2_3 C 0.0241(6) 0.6096(7) 0.4883(4)
C4_3 C 0.0565(5) 0.9736(5) 0.1773(3)
C5_3 C 0.1172(6) 0.9249(7) 0.3623(4)
C6_3 C 0.0033(5) 0.9648(5) 0.2060(4)
C8_3 C 0.0960(6) 0.9448(5) 0.2962(4)
C10_3 C 0.0341(5) 0.9860(5) 0.1107(4)
C11_3 C 0.0862(7) 0.7897(7) 0.4543(5)
C12_3 C 0.1658(7) 0.8816(6) 0.4754(4)
H9_3 H 0.185377 0.865939 0.514389
C13_3 C 0.0235(6) 0.9515(5) 0.2663(4)
C14_3 C 0.0132(7) 0.7757(8) 0.4497(5)
C15_3 C 0.1160(7) 0.6894(6) 0.4837(5)
H12_3 H 0.152783 0.659572 0.496740
C16_3 C 0.1943(6) 0.9345(7) 0.4596(5)
C17_3 C 0.1717(6) 0.9536(6) 0.4018(5)
H13_3 H 0.194647 0.987349 0.389404
C18_3 C 0.1291(5) 0.9697(6) 0.2087(4)
H14_3 H 0.165858 0.976082 0.188561
C20_3 C 0.0875(6) 0.8703(7) 0.3753(4)
C21_3 C 0.1111(6) 0.8515(7) 0.4373(5)
C22_3 C 0.1363(7) 0.7441(7) 0.4706(5)
H17_3 H 0.186101 0.751572 0.472467
C23_3 C 0.1495(5) 0.9567(6) 0.2694(5)
H18_3 H 0.199522 0.956133 0.291346
O7_3 O 0.5454(3) 0.5993(3) 0.5113(2)
N3_3 N 0.4658(5) 0.8354(5) 0.6647(4)
H19_3 H 0.504631 0.857260 0.682089
H20_3 H 0.479391 0.805580 0.644949
C24_3 C 0.4542(6) 0.6742(7) 0.5205(4)
C25_3 C 0.4759(6) 0.6096(7) 0.5117(4)
C26_3 C 0.4435(5) 0.9736(5) 0.8227(3)
C27_3 C 0.3828(6) 0.9249(7) 0.6377(4)
C28_3 C 0.4967(5) 0.9648(5) 0.7940(4)
H21_3 H 0.546814 0.967699 0.815123
C29_3 C 0.4040(6) 0.9448(5) 0.7038(4)
C30_3 C 0.5071(7) 0.7162(7) 0.5362(5)
H22_3 H 0.556442 0.706743 0.537998
C31_3 C 0.4659(5) 0.9860(5) 0.8893(4)
C32_3 C 0.4138(7) 0.7897(7) 0.5457(5)
C33_3 C 0.3342(7) 0.8816(6) 0.5246(4)
H23_3 H 0.314623 0.865939 0.485611
C34_3 C 0.4765(6) 0.9515(5) 0.7337(4)
H24_3 H 0.512907 0.946993 0.712971
C35_3 C 0.4868(7) 0.7757(8) 0.5503(5)
H25_3 H 0.523305 0.805750 0.562801
C36_3 C 0.3840(7) 0.6894(6) 0.5163(5)
H26_3 H 0.347217 0.659572 0.503260
C37_3 C 0.3057(6) 0.9345(7) 0.5404(5)
C38_3 C 0.3283(6) 0.9536(6) 0.5982(5)
H27_3 H 0.305353 0.987349 0.610596
C39_3 C 0.3709(5) 0.9697(6) 0.7913(4)
H28_3 H 0.334142 0.976082 0.811439
C40_3 C 0.4125(6) 0.8703(7) 0.6247(4)
C41_3 C 0.3889(6) 0.8515(7) 0.5627(5)
C42_3 C 0.3637(7) 0.7441(7) 0.5294(5)
H29_3 H 0.313899 0.751572 0.527533
C43_3 C 0.3505(5) 0.9567(6) 0.7306(5)
H30_3 H 0.300478 0.956133 0.708654
O14_2 O 0.5860(3) 0.5056(4) 0.5889(2)
N5 N 0.6810(3) 0.5232(5) 0.5023(3)
O2_3 O 0.9546(3) 0.5993(3) 0.4887(2)
N1_3 N 0.8190(3) 0.5232(5) 0.4977(3)
H1_3 H 0.995369 0.857260 0.317911
C3_3 C 0.7712(5) 0.4954(5) 0.4474(4)
H3_3 H 0.775210 0.515664 0.410555
H4_3 H 0.788590 0.453454 0.446925
H5_3 H 0.953186 0.967699 0.184877
C7_3 C 0.8089(4) 0.4959(6) 0.5530(4)
H6_3 H 0.826016 0.453777 0.552391
H7_3 H 0.839556 0.515657 0.589201
C9_3 C 0.9929(7) 0.7162(7) 0.4638(5)
H8_3 H 0.943558 0.706743 0.462002
H10_3 H 0.987093 0.946993 0.287029
H11_3 H 0.976695 0.805750 0.437199
C19_3 C 0.7903(5) 0.5853(7) 0.4987(5)
H15_3 H 0.819948 0.606701 0.534269
H16_3 H 0.795098 0.607321 0.462929
C44_3 C 0.7288(5) 0.4954(5) 0.5526(4)
H31_3 H 0.724790 0.515664 0.589445
H32_3 H 0.711410 0.453454 0.553075
C45_3 C 0.6911(4) 0.4959(6) 0.4470(4)
H33_3 H 0.673984 0.453777 0.447609
H34_3 H 0.660444 0.515657 0.410799
C46_3 C 0.7097(5) 0.5853(7) 0.5013(5)
H35_3 H 0.680052 0.606701 0.465731
H36_3 H 0.704902 0.607321 0.537071
O15_2 O 0.9140(3) 0.5056(4) 0.4111(2)
O7_4 O 0.0454(3) 0.0993(3) 0.0113(2)
H19_4 H 0.004631 0.357260 0.182089
H21_4 H 0.046814 0.467699 0.315123
C30_4 C 0.0071(7) 0.2162(7) 0.0362(5)
H22_4 H 0.056442 0.206743 0.037998
H24_4 H 0.012907 0.446993 0.212971
H25_4 H 0.023305 0.305750 0.062801
N5_2 N 0.1810(3) 0.0232(5) 0.0023(3)
O5_5 O 0.750000 0.4658(6) 0.000000
H7_4 H 0.339556 0.015657 0.089201
H9_4 H 0.685377 0.365939 0.014389
H15_4 H 0.319948 0.106701 0.034269
N3_4 N 0.9658(5) 0.3354(5) 0.1647(4)
H20_4 H 0.979391 0.305580 0.144949
C24_4 C 0.9542(6) 0.1742(7) 0.0205(4)
C25_4 C 0.9759(6) 0.1096(7) 0.0117(4)
C26_4 C 0.9435(5) 0.4736(5) 0.3227(3)
C27_4 C 0.8828(6) 0.4249(7) 0.1377(4)
C28_4 C 0.9967(5) 0.4648(5) 0.2940(4)
C29_4 C 0.9040(6) 0.4448(5) 0.2038(4)
C31_4 C 0.9659(5) 0.4860(5) 0.3893(4)
C32_4 C 0.9138(7) 0.2897(7) 0.0457(5)
C33_4 C 0.8342(7) 0.3816(6) 0.0246(4)
C34_4 C 0.9765(6) 0.4515(5) 0.2337(4)
C35_4 C 0.9868(7) 0.2757(8) 0.0503(5)
C36_4 C 0.8840(7) 0.1894(6) 0.0163(5)
H26_4 H 0.847217 0.159572 0.003260
C37_4 C 0.8057(6) 0.4345(7) 0.0404(5)
C38_4 C 0.8283(6) 0.4536(6) 0.0982(5)
H27_4 H 0.805353 0.487349 0.110596
C39_4 C 0.8709(5) 0.4697(6) 0.2913(4)
H28_4 H 0.834142 0.476082 0.311439
C40_4 C 0.9125(6) 0.3703(7) 0.1247(4)
C41_4 C 0.8889(6) 0.3515(7) 0.0627(5)
C42_4 C 0.8637(7) 0.2441(7) 0.0294(5)
H29_4 H 0.813899 0.251572 0.027533
C43_4 C 0.8505(5) 0.4567(6) 0.2306(5)
H30_4 H 0.800478 0.456133 0.208654
H31_4 H 0.224790 0.015664 0.089445
C46_4 C 0.2097(5) 0.0853(7) 0.0013(5)
H36_4 H 0.204902 0.107321 0.037071
O2_4 O 0.4546(3) 0.0993(3) 0.9887(2)
O5_6 O 0.750000 0.4658(6) 1.000000
N1_4 N 0.3190(3) 0.0232(5) 0.9977(3)
N2_4 N 0.5342(5) 0.3354(5) 0.8353(4)
H1_4 H 0.495369 0.357260 0.817911
H2_4 H 0.520609 0.305580 0.855051
C1_4 C 0.5458(6) 0.1742(7) 0.9795(4)
C2_4 C 0.5241(6) 0.1096(7) 0.9883(4)
H3_4 H 0.275210 0.015664 0.910555
C4_4 C 0.5565(5) 0.4736(5) 0.6773(3)
C5_4 C 0.6172(6) 0.4249(7) 0.8623(4)
C6_4 C 0.5033(5) 0.4648(5) 0.7060(4)
H5_4 H 0.453186 0.467699 0.684877
C8_4 C 0.5960(6) 0.4448(5) 0.7962(4)
C9_4 C 0.4929(7) 0.2162(7) 0.9638(5)
H8_4 H 0.443558 0.206743 0.962002
C10_4 C 0.5341(5) 0.4860(5) 0.6107(4)
C11_4 C 0.5862(7) 0.2897(7) 0.9543(5)
C12_4 C 0.6658(7) 0.3816(6) 0.9754(4)
C13_4 C 0.5235(6) 0.4515(5) 0.7663(4)
H10_4 H 0.487093 0.446993 0.787029
C14_4 C 0.5132(7) 0.2757(8) 0.9497(5)
H11_4 H 0.476695 0.305750 0.937199
C15_4 C 0.6160(7) 0.1894(6) 0.9837(5)
H12_4 H 0.652783 0.159572 0.996740
C16_4 C 0.6943(6) 0.4345(7) 0.9596(5)
C17_4 C 0.6717(6) 0.4536(6) 0.9018(5)
H13_4 H 0.694647 0.487349 0.889404
C18_4 C 0.6291(5) 0.4697(6) 0.7087(4)
H14_4 H 0.665858 0.476082 0.688561
C19_4 C 0.2903(5) 0.0853(7) 0.9987(5)
H16_4 H 0.295098 0.107321 0.962929
C20_4 C 0.5875(6) 0.3703(7) 0.8753(4)
C21_4 C 0.6111(6) 0.3515(7) 0.9373(5)
C22_4 C 0.6363(7) 0.2441(7) 0.9706(5)
H17_4 H 0.686101 0.251572 0.972467
C23_4 C 0.6495(5) 0.4567(6) 0.7694(5)
H18_4 H 0.699522 0.456133 0.791346
H23_4 H 0.814623 0.365939 0.985611
H34_4 H 0.160444 0.015657 0.910799
H35_4 H 0.180052 0.106701 0.965731
C7_4 C 0.3089(4) 0.9959(6) 0.0530(4)
H6_4 H 0.326016 0.953777 0.052391
C44_4 C 0.2288(5) 0.9954(5) 0.0526(4)
H32_4 H 0.211410 0.953454 0.053075
C3_4 C 0.2712(5) 0.9954(5) 0.9474(4)
H4_4 H 0.288590 0.953454 0.946925
C45_4 C 0.1911(4) 0.9959(6) 0.9470(4)
H33_4 H 0.173984 0.953777 0.947609
loop_
_geom_bond_atom_site_label_1
_geom_bond_atom_site_label_2
_geom_bond_site_symmetry_1
_geom_bond_site_symmetry_2
Cu1 O2 1_555 1_555
N1 Cu1 1_555 1_555
C3 N1 1_555 1_555
H3 C3 1_555 1_555
H4 C3 1_555 1_555
C7 N1 1_555 1_555
H6 C7 1_555 1_555
H7 C7 1_555 1_555
H8 C9 1_555 1_555
C19 N1 1_555 1_555
H15 C19 1_555 1_555
H16 C19 1_555 1_555
N4 C44 1_555 1_555
C44 C7 1_555 1_555
H31 C44 1_555 1_555
H32 C44 1_555 1_555
C45 C3 1_555 1_555
H33 C45 1_555 1_555
H34 C45 1_555 1_555
C46 C19 1_555 1_555
H35 C46 1_555 1_555
H36 C46 1_555 1_555
Cu3 N4 1_555 1_555
O10 Cu1 1_555 1_555
O13 Cu1 1_555 1_555
O15 Cu1 1_555 1_555
N4 C45 1_555 1_555
N4 C46 1_555 1_555
O1 C2 1_555 1_555
O5 C16 1_555 1_555
H2 N2 1_555 1_555
C1 C2 1_555 1_555
C4 C6 1_555 1_555
C5 C8 1_555 1_555
C8 C13 1_555 1_555
C10 C4 1_555 1_555
C11 C14 1_555 1_555
C12 H9 1_555 1_555
C13 C6 1_555 1_555
C15 C1 1_555 1_555
H12 C15 1_555 1_555
C16 C12 1_555 1_555
C17 C5 1_555 1_555
H13 C17 1_555 1_555
C18 C4 1_555 1_555
H14 C18 1_555 1_555
C20 N2 1_555 1_555
C21 C11 1_555 1_555
C22 C11 1_555 1_555
H17 C22 1_555 1_555
C23 C8 1_555 1_555
H18 C23 1_555 1_555
O6 C25 1_555 1_555
O7 C25 1_555 1_555
O8 C31 1_555 1_555
N3 H19 1_555 1_555
H20 N3 1_555 1_555
C24 C25 1_555 1_555
C26 C28 1_555 1_555
C27 C29 1_555 1_555
C28 H21 1_555 1_555
C29 C34 1_555 1_555
C30 C24 1_555 1_555
H22 C30 1_555 1_555
C31 C26 1_555 1_555
C32 C35 1_555 1_555
C33 H23 1_555 1_555
C34 C28 1_555 1_555
H24 C34 1_555 1_555
C35 C30 1_555 1_555
H25 C35 1_555 1_555
C36 C24 1_555 1_555
H26 C36 1_555 1_555
C37 O5 1_555 1_555
C38 C27 1_555 1_555
H27 C38 1_555 1_555
C39 C26 1_555 1_555
H28 C39 1_555 1_555
C40 N3 1_555 1_555
C41 C32 1_555 1_555
C42 C32 1_555 1_555
H29 C42 1_555 1_555
C43 C29 1_555 1_555
H30 C43 1_555 1_555
Cu3 O7 1_555 1_555
Cu7 O6 1_555 1_555
O11 Cu3 1_555 1_555
O12 Cu3 1_555 1_555
O14 Cu3 1_555 1_555
O1 Cu6 1_555 1_555
C5 C20 1_555 1_555
C12 C21 1_555 1_555
C15 C22 1_555 1_555
C16 C17 1_555 1_555
C18 C23 1_555 1_555
C20 C21 1_555 1_555
C27 C40 1_555 1_555
C33 C37 1_555 1_555
C33 C41 1_555 1_555
C36 C42 1_555 1_555
C37 C38 1_555 1_555
C39 C43 1_555 1_555
C40 C41 1_555 1_555
Cu3 Cu7 1_555 1_555
Cu4 O9 1_555 1_555
Cu5 O4 1_555 1_555
H4_2 C3_2 1_555 1_555
C45_2 C3_2 1_555 1_555
H33_2 C45_2 1_555 1_555
H6_2 C7_2 1_555 1_555
C44_2 C7_2 1_555 1_555
H32_2 C44_2 1_555 1_555
Cu4 O2_2 1_555 1_555
O1_2 C2_2 1_555 1_555
O2_2 C2_2 1_555 1_555
O3_2 C10_2 1_555 1_555
O14 C10_2 1_555 1_555
O5_2 C16_2 1_555 1_555
N1_2 Cu4 1_555 1_555
N2_2 H1_2 1_555 1_555
H2_2 N2_2 1_555 1_555
C1_2 C2_2 1_555 1_555
C4_2 C6_2 1_555 1_555
C5_2 C8_2 1_555 1_555
C6_2 H5_2 1_555 1_555
C8_2 C13_2 1_555 1_555
C9_2 C1_2 1_555 1_555
H8_2 C9_2 1_555 1_555
C10_2 C4_2 1_555 1_555
C11_2 C14_2 1_555 1_555
C13_2 C6_2 1_555 1_555
H10_2 C13_2 1_555 1_555
C14_2 C9_2 1_555 1_555
H11_2 C14_2 1_555 1_555
C15_2 C1_2 1_555 1_555
H12_2 C15_2 1_555 1_555
C16_2 C12_2 1_555 1_555
C17_2 C5_2 1_555 1_555
H13_2 C17_2 1_555 1_555
C18_2 C4_2 1_555 1_555
H14_2 C18_2 1_555 1_555
C19_2 N1_2 1_555 1_555
H16_2 C19_2 1_555 1_555
C20_2 N2_2 1_555 1_555
C21_2 C11_2 1_555 1_555
C22_2 C11_2 1_555 1_555
H17_2 C22_2 1_555 1_555
C23_2 C8_2 1_555 1_555
H18_2 C23_2 1_555 1_555
Cu7 O3_2 1_555 1_555
C5_2 C20_2 1_555 1_555
C12_2 C21_2 1_555 1_555
C15_2 C22_2 1_555 1_555
C16_2 C17_2 1_555 1_555
C18_2 C23_2 1_555 1_555
C20_2 C21_2 1_555 1_555
O6_2 C25_2 1_555 1_555
O15 C31_2 1_555 1_555
H20_2 N3_2 1_555 1_555
C24_2 C25_2 1_555 1_555
C26_2 C28_2 1_555 1_555
C27_2 C29_2 1_555 1_555
C29_2 C34_2 1_555 1_555
C31_2 C26_2 1_555 1_555
C32_2 C35_2 1_555 1_555
C34_2 C28_2 1_555 1_555
C36_2 C24_2 1_555 1_555
H26_2 C36_2 1_555 1_555
C37_2 O5_3 1_555 1_555
C38_2 C27_2 1_555 1_555
H27_2 C38_2 1_555 1_555
C39_2 C26_2 1_555 1_555
H28_2 C39_2 1_555 1_555
C40_2 N3_2 1_555 1_555
C41_2 C32_2 1_555 1_555
C42_2 C32_2 1_555 1_555
H29_2 C42_2 1_555 1_555
C43_2 C29_2 1_555 1_555
H30_2 C43_2 1_555 1_555
H36_2 C46_2 1_555 1_555
Cu5 N4_2 1_555 1_555
C27_2 C40_2 1_555 1_555
C33_2 C37_2 1_555 1_555
C33_2 C41_2 1_555 1_555
C36_2 C42_2 1_555 1_555
C37_2 C38_2 1_555 1_555
C39_2 C43_2 1_555 1_555
C40_2 C41_2 1_555 1_555
N4_2 C46_2 1_555 1_555
H22_2 C30_2 1_555 1_555
Cu5 O7_2 1_555 1_555
Cu6 O8_2 1_555 1_555
Cu8 O9_2 1_555 1_555
Cu9 O4_2 1_555 1_555
O10 C2_3 1_555 1_555
O5_4 C16_3 1_555 1_555
H2_3 N2_3 1_555 1_555
C1_3 C2_3 1_555 1_555
C4_3 C6_3 1_555 1_555
C5_3 C8_3 1_555 1_555
C8_3 C13_3 1_555 1_555
C10_3 C4_3 1_555 1_555
C11_3 C14_3 1_555 1_555
C12_3 H9_3 1_555 1_555
C13_3 C6_3 1_555 1_555
C15_3 C1_3 1_555 1_555
H12_3 C15_3 1_555 1_555
C16_3 C12_3 1_555 1_555
C17_3 C5_3 1_555 1_555
H13_3 C17_3 1_555 1_555
C18_3 C4_3 1_555 1_555
H14_3 C18_3 1_555 1_555
C20_3 N2_3 1_555 1_555
C21_3 C11_3 1_555 1_555
C22_3 C11_3 1_555 1_555
H17_3 C22_3 1_555 1_555
C23_3 C8_3 1_555 1_555
H18_3 C23_3 1_555 1_555
O11 C25_3 1_555 1_555
O7_3 C25_3 1_555 1_555
O13_2 C31_3 1_555 1_555
N3_3 H19_3 1_555 1_555
H20_3 N3_3 1_555 1_555
C24_3 C25_3 1_555 1_555
C26_3 C28_3 1_555 1_555
C27_3 C29_3 1_555 1_555
C28_3 H21_3 1_555 1_555
C29_3 C34_3 1_555 1_555
C30_3 C24_3 1_555 1_555
H22_3 C30_3 1_555 1_555
C31_3 C26_3 1_555 1_555
C32_3 C35_3 1_555 1_555
C33_3 H23_3 1_555 1_555
C34_3 C28_3 1_555 1_555
H24_3 C34_3 1_555 1_555
C35_3 C30_3 1_555 1_555
H25_3 C35_3 1_555 1_555
C36_3 C24_3 1_555 1_555
H26_3 C36_3 1_555 1_555
C37_3 O5_4 1_555 1_555
C38_3 C27_3 1_555 1_555
H27_3 C38_3 1_555 1_555
C39_3 C26_3 1_555 1_555
H28_3 C39_3 1_555 1_555
C40_3 N3_3 1_555 1_555
C41_3 C32_3 1_555 1_555
C42_3 C32_3 1_555 1_555
H29_3 C42_3 1_555 1_555
C43_3 C29_3 1_555 1_555
H30_3 C43_3 1_555 1_555
Cu7 O7_3 1_555 1_555
O14_2 Cu7 1_555 1_555
N5 Cu7 1_555 1_555
C5_3 C20_3 1_555 1_555
C12_3 C21_3 1_555 1_555
C15_3 C22_3 1_555 1_555
C16_3 C17_3 1_555 1_555
C18_3 C23_3 1_555 1_555
C20_3 C21_3 1_555 1_555
C27_3 C40_3 1_555 1_555
C33_3 C37_3 1_555 1_555
C33_3 C41_3 1_555 1_555
C36_3 C42_3 1_555 1_555
C37_3 C38_3 1_555 1_555
C39_3 C43_3 1_555 1_555
C40_3 C41_3 1_555 1_555
Cu6 O2_3 1_555 1_555
N1_3 Cu6 1_555 1_555
C3_3 N1_3 1_555 1_555
H3_3 C3_3 1_555 1_555
H4_3 C3_3 1_555 1_555
C7_3 N1_3 1_555 1_555
H6_3 C7_3 1_555 1_555
H7_3 C7_3 1_555 1_555
H8_3 C9_3 1_555 1_555
C19_3 N1_3 1_555 1_555
H15_3 C19_3 1_555 1_555
H16_3 C19_3 1_555 1_555
N5 C44_3 1_555 1_555
C44_3 C7_3 1_555 1_555
H31_3 C44_3 1_555 1_555
H32_3 C44_3 1_555 1_555
C45_3 C3_3 1_555 1_555
H33_3 C45_3 1_555 1_555
H34_3 C45_3 1_555 1_555
C46_3 C19_3 1_555 1_555
H35_3 C46_3 1_555 1_555
H36_3 C46_3 1_555 1_555
O15_2 Cu6 1_555 1_555
N5 C45_3 1_555 1_555
N5 C46_3 1_555 1_555
H22_4 C30_4 1_555 1_555
Cu9 O7_4 1_555 1_555
N5_2 Cu9 1_555 1_555
O11_2 C25_4 1_555 1_555
O15_2 C31_4 1_555 1_555
H20_4 N3_4 1_555 1_555
C24_4 C25_4 1_555 1_555
C26_4 C28_4 1_555 1_555
C27_4 C29_4 1_555 1_555
C29_4 C34_4 1_555 1_555
C31_4 C26_4 1_555 1_555
C32_4 C35_4 1_555 1_555
C34_4 C28_4 1_555 1_555
C36_4 C24_4 1_555 1_555
H26_4 C36_4 1_555 1_555
C37_4 O5_5 1_555 1_555
C38_4 C27_4 1_555 1_555
H27_4 C38_4 1_555 1_555
C39_4 C26_4 1_555 1_555
H28_4 C39_4 1_555 1_555
C40_4 N3_4 1_555 1_555
C41_4 C32_4 1_555 1_555
C42_4 C32_4 1_555 1_555
H29_4 C42_4 1_555 1_555
C43_4 C29_4 1_555 1_555
H30_4 C43_4 1_555 1_555
H36_4 C46_4 1_555 1_555
C27_4 C40_4 1_555 1_555
C33_4 C37_4 1_555 1_555
C33_4 C41_4 1_555 1_555
C36_4 C42_4 1_555 1_555
C37_4 C38_4 1_555 1_555
C39_4 C43_4 1_555 1_555
C40_4 C41_4 1_555 1_555
N5_2 C46_4 1_555 1_555
Cu8 O2_4 1_555 1_555
O10_2 C2_4 1_555 1_555
O2_4 C2_4 1_555 1_555
O12 C10_4 1_555 1_555
O14_2 C10_4 1_555 1_555
O5_6 C16_4 1_555 1_555
N1_4 Cu8 1_555 1_555
N2_4 H1_4 1_555 1_555
H2_4 N2_4 1_555 1_555
C1_4 C2_4 1_555 1_555
C4_4 C6_4 1_555 1_555
C5_4 C8_4 1_555 1_555
C6_4 H5_4 1_555 1_555
C8_4 C13_4 1_555 1_555
C9_4 C1_4 1_555 1_555
H8_4 C9_4 1_555 1_555
C10_4 C4_4 1_555 1_555
C11_4 C14_4 1_555 1_555
C13_4 C6_4 1_555 1_555
H10_4 C13_4 1_555 1_555
C14_4 C9_4 1_555 1_555
H11_4 C14_4 1_555 1_555
C15_4 C1_4 1_555 1_555
H12_4 C15_4 1_555 1_555
C16_4 C12_4 1_555 1_555
C17_4 C5_4 1_555 1_555
H13_4 C17_4 1_555 1_555
C18_4 C4_4 1_555 1_555
H14_4 C18_4 1_555 1_555
C19_4 N1_4 1_555 1_555
H16_4 C19_4 1_555 1_555
C20_4 N2_4 1_555 1_555
C21_4 C11_4 1_555 1_555
C22_4 C11_4 1_555 1_555
H17_4 C22_4 1_555 1_555
C23_4 C8_4 1_555 1_555
H18_4 C23_4 1_555 1_555
C5_4 C20_4 1_555 1_555
C12_4 C21_4 1_555 1_555
C15_4 C22_4 1_555 1_555
C16_4 C17_4 1_555 1_555
C18_4 C23_4 1_555 1_555
C20_4 C21_4 1_555 1_555
H6_4 C7_4 1_555 1_555
C44_4 C7_4 1_555 1_555
H32_4 C44_4 1_555 1_555
H4_4 C3_4 1_555 1_555
C45_4 C3_4 1_555 1_555
H33_4 C45_4 1_555 1_555

#END
