
###############################################################################
#
# This file contains modified crystal structure data generated from the
# MOF subset of the Cambridge Structural Database (CSD) v543 
# hosted by the Cambridge Crystallographic Data Centre (CCDC).
#
# This work is licensed under the Creative Commons
# Attribution-NonCommercial-ShareAlike 4.0 International License.
# To view a copy of this license, visit
# http://creativecommons.org/licenses/by-nc-sa/4.0/
# or send a letter to
# Creative Commons, PO Box 1866, Mountain View, CA 94042, USA.
#
# CIF created using the CSD Python API on 29 September 2022
# The structure has been converted into the P1 space group
# The structure has a 3D framework
# The original CSD entry TUHDIM is in the orthorhombic crystal system
# The framework has been calculated to contain at least 10.0% void space
# The void calculation uses a probe of radius 1.32A, grid spacing 0.4
# H atom positions have been added when not included in the experimental data
# Generated hydrogen atom positions removed from atoms on special positions
#
###############################################################################

data_TUHDIM
_chemical_formula_moiety         '(C320 H240 Cu16 O84)n'
_symmetry_cell_setting           triclinic
_symmetry_space_group_name_H-M   'P 1'
_symmetry_Int_Tables_number      1
_space_group_name_Hall           'P 1'
loop_
_symmetry_equiv_pos_site_id
_symmetry_equiv_pos_as_xyz
1 x,y,z
_cell_length_a                   27.652(2)
_cell_length_b                   35.173(3)
_cell_length_c                   17.2733(14)
_cell_angle_alpha                90
_cell_angle_beta                 90
_cell_angle_gamma                90
_cell_volume                     16800.1
loop_
_atom_site_label
_atom_site_type_symbol
_atom_site_fract_x
_atom_site_fract_y
_atom_site_fract_z
O5 O 0.70011(14) 0.53210(12) 0.1093(2)
O8 O 0.69967(14) 0.47241(12) 0.1545(3)
C16 C 0.68536(19) 0.49771(18) 0.1096(4)
C26 C 0.6490(2) 0.48789(18) 0.0505(4)
C39 C 0.6278(2) 0.4522(2) 0.0492(4)
H21 H 0.636101 0.434425 0.086764
Cu6 Cu 0.750000 0.55145(3) 0.17981(5)
Cu8 Cu 0.750000 0.48119(3) 0.23283(5)
O17 O 0.79989(14) 0.53210(12) 0.1093(2)
O19 O 0.80033(14) 0.47241(12) 0.1545(3)
C56 C 0.81464(19) 0.49771(18) 0.1096(4)
C66 C 0.8510(2) 0.48789(18) 0.0505(4)
C79 C 0.8722(2) 0.4522(2) 0.0492(4)
H43 H 0.863899 0.434425 0.086764
O14 O 0.04311(12) 0.53185(10) 0.6642(2)
O21 O 0.20097(15) 0.74645(13) 0.4894(3)
O22 O 0.19963(15) 0.72819(13) 0.3642(3)
C43 C 0.0589(2) 0.53215(16) 0.7960(4)
H24 H 0.084710 0.515921 0.786189
C44 C 0.03077(17) 0.54388(14) 0.7366(4)
C50 C 0.0099(2) 0.56714(19) 0.8838(4)
H25 H 0.003049 0.575148 0.933960
C51 C 0.03225(19) 0.55522(15) 0.6014(3)
C53 C 0.1353(2) 0.48642(18) 0.9946(4)
H26 H 0.148721 0.462175 0.994802
C55 C 0.0499(2) 0.54388(18) 0.8715(4)
C57 C 0.0816(2) 0.53255(19) 0.9362(4)
C60 C 0.0626(2) 0.58373(17) 0.5821(4)
H29 H 0.089483 0.588752 0.612822
C62 C 0.0867(2) 0.63741(18) 0.4935(4)
C63 C 0.0129(2) 0.59748(17) 0.4720(4)
H31 H 0.006720 0.611954 0.428083
C65 C 0.1417(2) 0.6872(2) 0.5303(4)
H33 H 0.156636 0.701150 0.569317
C67 C 0.1506(2) 0.6961(2) 0.4550(4)
C69 C 0.1020(2) 0.4959(2) 0.9381(4)
H35 H 0.093038 0.477970 0.901130
C71 C 0.0540(2) 0.60551(18) 0.5169(4)
C72 C 0.1872(2) 0.72553(19) 0.4328(4)
C73 C 0.0937(3) 0.6474(2) 0.4183(5)
H37 H 0.076874 0.634794 0.379415
C77 C 0.1108(2) 0.6579(2) 0.5498(4)
H41 H 0.106264 0.651737 0.601663
C78 C 0.0948(2) 0.5572(2) 0.9936(4)
H42 H 0.080856 0.581206 0.994742
C80 C 0.1258(3) 0.6762(2) 0.3989(5)
H44 H 0.130617 0.682148 0.347042
Cu9 Cu 0.250000 0.78569(3) 0.47920(6)
Cu11 Cu 0.250000 0.76500(3) 0.33202(6)
O1 O 0.45689(12) 0.53185(10) 0.6642(2)
O2 O 0.750000 0.60605(18) 0.1283(4)
O3 O 0.70008(14) 0.67860(13) 0.9485(3)
O4 O 0.70039(13) 0.55968(11) 0.2585(2)
O6 O 0.69958(14) 0.49992(12) 0.3020(3)
O7 O 0.750000 0.42346(19) 0.2764(4)
O9 O 0.250000 0.79771(18) 0.6022(4)
O10 O 0.69987(14) 0.69600(12) 0.8243(3)
O11 O 0.29903(15) 0.74645(13) 0.4894(3)
O12 O 0.30037(15) 0.72819(13) 0.3642(3)
C1 C 0.51980(18) 0.57875(17) 0.8242(4)
C2 C 0.50931(18) 0.56754(16) 0.7518(4)
H1 H 0.528787 0.575512 0.711052
C3 C 0.4411(2) 0.53215(16) 0.7960(4)
H2 H 0.415290 0.515921 0.786189
O13 O 0.250000 0.7529(2) 0.2115(4)
C4 C 0.46923(17) 0.54388(14) 0.7366(4)
C5 C 0.6417(2) 0.65122(19) 0.8652(4)
C6 C 0.5189(2) 0.56822(16) 0.4920(4)
C7 C 0.56267(18) 0.60285(18) 0.8387(4)
C8 C 0.64265(19) 0.54315(17) 0.3522(4)
C9 C 0.68460(19) 0.53428(17) 0.2993(3)
C10 C 0.4901(2) 0.56714(19) 0.8838(4)
H3 H 0.496951 0.575148 0.933960
C11 C 0.46775(19) 0.55522(15) 0.6014(3)
C12 C 0.68451(19) 0.67727(18) 0.8825(4)
C13 C 0.3647(2) 0.48642(18) 0.9946(4)
H4 H 0.351279 0.462175 0.994802
C14 C 0.5085(2) 0.54818(15) 0.5584(3)
H5 H 0.529764 0.529295 0.574572
C15 C 0.4501(2) 0.54388(18) 0.8715(4)
C17 C 0.4184(2) 0.53255(19) 0.9362(4)
C18 C 0.56231(19) 0.56000(18) 0.4430(4)
C19 C 0.5842(2) 0.6056(2) 0.9090(4)
H6 H 0.572201 0.591034 0.949608
C20 C 0.4374(2) 0.58373(17) 0.5821(4)
H7 H 0.410517 0.588752 0.612822
C21 C 0.6234(2) 0.62918(19) 0.9228(4)
H8 H 0.637273 0.629950 0.971868
C22 C 0.4133(2) 0.63741(18) 0.4935(4)
C23 C 0.4871(2) 0.59748(17) 0.4720(4)
H9 H 0.493280 0.611954 0.428083
C24 C 0.5806(2) 0.52381(19) 0.4416(5)
H10 H 0.565906 0.505043 0.471397
C25 C 0.3583(2) 0.6872(2) 0.5303(4)
H11 H 0.343364 0.701150 0.569317
C27 C 0.3494(2) 0.6961(2) 0.4550(4)
C28 C 0.6241(2) 0.57969(18) 0.3551(4)
H12 H 0.638528 0.598736 0.325737
C29 C 0.3980(2) 0.4959(2) 0.9381(4)
H13 H 0.406962 0.477970 0.901130
C30 C 0.6212(2) 0.5144(2) 0.3960(5)
H14 H 0.633274 0.489701 0.395093
C31 C 0.4460(2) 0.60551(18) 0.5169(4)
C32 C 0.3128(2) 0.72553(19) 0.4328(4)
C33 C 0.4063(3) 0.6474(2) 0.4183(5)
H15 H 0.423126 0.634794 0.379415
C34 C 0.5846(2) 0.5884(2) 0.4005(4)
H16 H 0.573053 0.613194 0.402603
C35 C 0.6188(2) 0.6515(2) 0.7944(5)
H17 H 0.629618 0.667489 0.755242
C36 C 0.5801(2) 0.6280(2) 0.7819(5)
H18 H 0.564783 0.628778 0.734038
C37 C 0.3892(2) 0.6579(2) 0.5498(4)
H19 H 0.393736 0.651737 0.601663
C38 C 0.4052(2) 0.5572(2) 0.9936(4)
H20 H 0.419144 0.581206 0.994742
C40 C 0.3742(3) 0.6762(2) 0.3989(5)
H22 H 0.369383 0.682148 0.347042
O15 O 0.79992(14) 0.67860(13) 0.9485(3)
O16 O 0.79961(13) 0.55968(11) 0.2585(2)
O18 O 0.80042(14) 0.49992(12) 0.3020(3)
O20 O 0.80013(14) 0.69600(12) 0.8243(3)
C41 C 0.98020(18) 0.57875(17) 0.8242(4)
C42 C 0.99069(18) 0.56754(16) 0.7518(4)
H23 H 0.971213 0.575512 0.711052
C45 C 0.8583(2) 0.65122(19) 0.8652(4)
C46 C 0.9811(2) 0.56822(16) 0.4920(4)
C47 C 0.93733(18) 0.60285(18) 0.8387(4)
C48 C 0.85735(19) 0.54315(17) 0.3522(4)
C49 C 0.81540(19) 0.53428(17) 0.2993(3)
C52 C 0.81549(19) 0.67727(18) 0.8825(4)
C54 C 0.9915(2) 0.54818(15) 0.5584(3)
H27 H 0.970236 0.529295 0.574572
C58 C 0.93769(19) 0.56000(18) 0.4430(4)
C59 C 0.9158(2) 0.6056(2) 0.9090(4)
H28 H 0.927799 0.591034 0.949608
C61 C 0.8766(2) 0.62918(19) 0.9228(4)
H30 H 0.862727 0.629950 0.971868
C64 C 0.9194(2) 0.52381(19) 0.4416(5)
H32 H 0.934094 0.505043 0.471397
C68 C 0.8759(2) 0.57969(18) 0.3551(4)
H34 H 0.861472 0.598736 0.325737
C70 C 0.8788(2) 0.5144(2) 0.3960(5)
H36 H 0.866726 0.489701 0.395093
C74 C 0.9154(2) 0.5884(2) 0.4005(4)
H38 H 0.926947 0.613194 0.402603
C75 C 0.8812(2) 0.6515(2) 0.7944(5)
H39 H 0.870382 0.667489 0.755242
C76 C 0.9199(2) 0.6280(2) 0.7819(5)
H40 H 0.935217 0.628778 0.734038
Cu10 Cu 0.750000 0.71431(3) 0.97920(6)
Cu12 Cu 0.750000 0.73500(3) 0.83202(6)
O23 O 0.29992(14) 0.82140(13) 0.4485(3)
O24 O 0.20008(14) 0.82140(13) 0.4485(3)
O29 O 0.30013(14) 0.80400(12) 0.3243(3)
O30 O 0.19987(14) 0.80400(12) 0.3243(3)
O1_2 O 0.54311(12) 0.96815(10) 0.1642(2)
O8_2 O 0.69967(14) 0.97241(12) 0.6545(3)
O9_2 O 0.750000 0.70229(18) 0.1022(4)
C1_2 C 0.48020(18) 0.92125(17) 0.3242(4)
C2_2 C 0.49069(18) 0.93246(16) 0.2518(4)
H1_2 H 0.471213 0.924488 0.211052
C3_2 C 0.5589(2) 0.96785(16) 0.2960(4)
H2_2 H 0.584710 0.984079 0.286189
C4_2 C 0.53077(17) 0.95612(14) 0.2366(4)
C5_2 C 0.3583(2) 0.84878(19) 0.3652(4)
C7_2 C 0.43733(18) 0.89715(18) 0.3387(4)
C10_2 C 0.5099(2) 0.93286(19) 0.3838(4)
H3_2 H 0.503049 0.924852 0.433960
C11_2 C 0.53225(19) 0.94478(15) 0.1014(3)
C12_2 C 0.31549(19) 0.82273(18) 0.3825(4)
C14_2 C 0.4915(2) 0.95182(15) 0.0584(3)
H5_2 H 0.470236 0.970705 0.074572
C15_2 C 0.5499(2) 0.95612(18) 0.3715(4)
C16_2 C 0.68536(19) 0.99771(18) 0.6096(4)
C17_2 C 0.5816(2) 0.96745(19) 0.4362(4)
C19_2 C 0.4158(2) 0.8944(2) 0.4090(4)
H6_2 H 0.427799 0.908966 0.449608
C20_2 C 0.5626(2) 0.91627(17) 0.0821(4)
H7_2 H 0.589483 0.911248 0.112822
C21_2 C 0.3766(2) 0.87082(19) 0.4228(4)
H8_2 H 0.362727 0.870050 0.471868
C25_2 C 0.6417(2) 0.8128(2) 0.0303(4)
H11_2 H 0.656636 0.798850 0.069317
C26_2 C 0.6490(2) 0.98789(18) 0.5505(4)
C31_2 C 0.5540(2) 0.89449(18) 0.0169(4)
C35_2 C 0.3812(2) 0.8485(2) 0.2944(5)
H17_2 H 0.370382 0.832511 0.255242
C36_2 C 0.4199(2) 0.8720(2) 0.2819(5)
H18_2 H 0.435217 0.871222 0.234038
C37_2 C 0.6108(2) 0.8421(2) 0.0498(4)
H19_2 H 0.606264 0.848263 0.101663
C38_2 C 0.5948(2) 0.9428(2) 0.4936(4)
H20_2 H 0.580856 0.918794 0.494742
C39_2 C 0.6278(2) 0.9522(2) 0.5492(4)
H21_2 H 0.636101 0.934425 0.586764
C41_2 C 0.01980(18) 0.92125(17) 0.3242(4)
C42_2 C 0.00931(18) 0.93246(16) 0.2518(4)
H23_2 H 0.028787 0.924488 0.211052
C45_2 C 0.1417(2) 0.84878(19) 0.3652(4)
C47_2 C 0.06267(18) 0.89715(18) 0.3387(4)
C52_2 C 0.18451(19) 0.82273(18) 0.3825(4)
C54_2 C 0.0085(2) 0.95182(15) 0.0584(3)
H27_2 H 0.029764 0.970705 0.074572
C59_2 C 0.0842(2) 0.8944(2) 0.4090(4)
H28_2 H 0.072201 0.908966 0.449608
C61_2 C 0.1234(2) 0.87082(19) 0.4228(4)
H30_2 H 0.137273 0.870050 0.471868
C75_2 C 0.1188(2) 0.8485(2) 0.2944(5)
H39_2 H 0.129618 0.832511 0.255242
C76_2 C 0.0801(2) 0.8720(2) 0.2819(5)
H40_2 H 0.064783 0.871222 0.234038
Cu8_2 Cu 0.750000 0.98119(3) 0.73283(5)
Cu1 Cu 0.250000 0.94855(3) 0.67981(5)
O2_2 O 0.250000 0.89395(18) 0.6283(4)
O4_2 O 0.29961(13) 0.94032(11) 0.7585(2)
O11_2 O 0.70097(15) 0.75355(13) 0.9894(3)
O12_2 O 0.69963(15) 0.77181(13) 0.8642(3)
O13_2 O 0.750000 0.7471(2) 0.7115(4)
C6_2 C 0.4811(2) 0.93178(16) 0.9920(4)
C8_2 C 0.35735(19) 0.95685(17) 0.8522(4)
C9_2 C 0.31540(19) 0.96572(17) 0.7993(3)
C18_2 C 0.43769(19) 0.94000(18) 0.9430(4)
C22_2 C 0.5867(2) 0.86259(18) 0.9935(4)
C23_2 C 0.5129(2) 0.90252(17) 0.9720(4)
H9_2 H 0.506720 0.888046 0.928083
C24_2 C 0.4194(2) 0.97619(19) 0.9416(5)
H10_2 H 0.434094 0.994957 0.971397
C27_2 C 0.6506(2) 0.8039(2) 0.9550(4)
C28_2 C 0.3759(2) 0.92031(18) 0.8551(4)
H12_2 H 0.361472 0.901264 0.825737
C30_2 C 0.3788(2) 0.9856(2) 0.8960(5)
C32_2 C 0.6872(2) 0.77447(19) 0.9328(4)
C33_2 C 0.5937(3) 0.8526(2) 0.9183(5)
H15_2 H 0.576874 0.865206 0.879415
C34_2 C 0.4154(2) 0.9116(2) 0.9005(4)
H16_2 H 0.426947 0.886806 0.902603
C40_2 C 0.6258(3) 0.8238(2) 0.8989(5)
H22_2 H 0.630617 0.817852 0.847042
O16_2 O 0.20039(13) 0.94032(11) 0.7585(2)
C46_2 C 0.0189(2) 0.93178(16) 0.9920(4)
C48_2 C 0.14265(19) 0.95685(17) 0.8522(4)
C49_2 C 0.18460(19) 0.96572(17) 0.7993(3)
C58_2 C 0.06231(19) 0.94000(18) 0.9430(4)
C64_2 C 0.0806(2) 0.97619(19) 0.9416(5)
H32_2 H 0.065906 0.994957 0.971397
C68_2 C 0.1241(2) 0.92031(18) 0.8551(4)
H34_2 H 0.138528 0.901264 0.825737
C70_2 C 0.1212(2) 0.9856(2) 0.8960(5)
C74_2 C 0.0846(2) 0.9116(2) 0.9005(4)
H38_2 H 0.073053 0.886806 0.902603
O25 O 0.29989(14) 0.96790(12) 0.6093(2)
O26 O 0.20011(14) 0.96790(12) 0.6093(2)
O31 O 0.79903(15) 0.75355(13) 0.9894(3)
O32 O 0.80037(15) 0.77181(13) 0.8642(3)
O14_2 O 0.95689(12) 0.96815(10) 0.1642(2)
O19_2 O 0.80033(14) 0.97241(12) 0.6545(3)
C43_2 C 0.9411(2) 0.96785(16) 0.2960(4)
H24_2 H 0.915290 0.984079 0.286189
C44_2 C 0.96923(17) 0.95612(14) 0.2366(4)
C50_2 C 0.9901(2) 0.93286(19) 0.3838(4)
H25_2 H 0.996951 0.924852 0.433960
C51_2 C 0.96775(19) 0.94478(15) 0.1014(3)
C55_2 C 0.9501(2) 0.95612(18) 0.3715(4)
C56_2 C 0.81464(19) 0.99771(18) 0.6096(4)
C57_2 C 0.9184(2) 0.96745(19) 0.4362(4)
C60_2 C 0.9374(2) 0.91627(17) 0.0821(4)
H29_2 H 0.910517 0.911248 0.112822
C65_2 C 0.8583(2) 0.8128(2) 0.0303(4)
H33_2 H 0.843364 0.798850 0.069317
C66_2 C 0.8510(2) 0.98789(18) 0.5505(4)
C71_2 C 0.9460(2) 0.89449(18) 0.0169(4)
C77_2 C 0.8892(2) 0.8421(2) 0.0498(4)
H41_2 H 0.893736 0.848263 0.101663
C78_2 C 0.9052(2) 0.9428(2) 0.4936(4)
H42_2 H 0.919144 0.918794 0.494742
C79_2 C 0.8722(2) 0.9522(2) 0.5492(4)
H43_2 H 0.863899 0.934425 0.586764
C62_2 C 0.9133(2) 0.86259(18) 0.9935(4)
C63_2 C 0.9871(2) 0.90252(17) 0.9720(4)
H31_2 H 0.993280 0.888046 0.928083
C67_2 C 0.8494(2) 0.8039(2) 0.9550(4)
C72_2 C 0.8128(2) 0.77447(19) 0.9328(4)
C73_2 C 0.9063(3) 0.8526(2) 0.9183(5)
H37_2 H 0.923126 0.865206 0.879415
C80_2 C 0.8742(3) 0.8238(2) 0.8989(5)
H44_2 H 0.869383 0.817852 0.847042
C53_2 C 0.1353(2) 0.98642(18) 0.4946(4)
H26_2 H 0.148721 0.962175 0.494802
C69_2 C 0.1020(2) 0.9959(2) 0.4381(4)
H35_2 H 0.093038 0.977970 0.401130
C13_2 C 0.3647(2) 0.98642(18) 0.4946(4)
H4_2 H 0.351279 0.962175 0.494802
C29_2 C 0.3980(2) 0.9959(2) 0.4381(4)
H13_2 H 0.406962 0.977970 0.401130
O6_2 O 0.69958(14) 0.99992(12) 0.8020(3)
O7_2 O 0.750000 0.92346(19) 0.7764(4)
H14_2 H 0.633274 0.989701 0.895093
O18_2 O 0.80042(14) 0.99992(12) 0.8020(3)
H36_2 H 0.866726 0.989701 0.895093
Cu1_2 Cu 0.250000 0.44855(3) 0.17981(5)
Cu2 Cu 0.250000 0.51881(3) 0.23283(5)
Cu3 Cu 0.750000 0.21431(3) 0.47920(6)
Cu4 Cu 0.750000 0.23500(3) 0.33202(6)
O1_3 O 0.54311(12) 0.46815(10) 0.6642(2)
O2_3 O 0.250000 0.39395(18) 0.1283(4)
O3_2 O 0.29992(14) 0.32140(13) 0.9485(3)
O4_3 O 0.29961(13) 0.44032(11) 0.2585(2)
O6_3 O 0.30042(14) 0.50008(12) 0.3020(3)
O7_3 O 0.250000 0.57654(19) 0.2764(4)
O9_3 O 0.750000 0.20229(18) 0.6022(4)
O10_2 O 0.30013(14) 0.30400(12) 0.8243(3)
O11_3 O 0.70097(15) 0.25355(13) 0.4894(3)
O12_3 O 0.69963(15) 0.27181(13) 0.3642(3)
C1_3 C 0.48020(18) 0.42125(17) 0.8242(4)
C2_3 C 0.49069(18) 0.43246(16) 0.7518(4)
H1_3 H 0.471213 0.424488 0.711052
C3_3 C 0.5589(2) 0.46785(16) 0.7960(4)
H2_3 H 0.584710 0.484079 0.786189
O13_3 O 0.750000 0.2471(2) 0.2115(4)
C4_3 C 0.53077(17) 0.45612(14) 0.7366(4)
C5_3 C 0.3583(2) 0.34878(19) 0.8652(4)
C6_3 C 0.4811(2) 0.43178(16) 0.4920(4)
C7_3 C 0.43733(18) 0.39715(18) 0.8387(4)
C8_3 C 0.35735(19) 0.45685(17) 0.3522(4)
C9_3 C 0.31540(19) 0.46572(17) 0.2993(3)
C10_3 C 0.5099(2) 0.43286(19) 0.8838(4)
H3_3 H 0.503049 0.424852 0.933960
C11_3 C 0.53225(19) 0.44478(15) 0.6014(3)
C12_3 C 0.31549(19) 0.32273(18) 0.8825(4)
C13_3 C 0.6353(2) 0.51358(18) 0.9946(4)
H4_3 H 0.648721 0.537825 0.994802
C14_3 C 0.4915(2) 0.45182(15) 0.5584(3)
H5_3 H 0.470236 0.470705 0.574572
C15_3 C 0.5499(2) 0.45612(18) 0.8715(4)
C17_3 C 0.5816(2) 0.46745(19) 0.9362(4)
C18_3 C 0.43769(19) 0.44000(18) 0.4430(4)
C19_3 C 0.4158(2) 0.3944(2) 0.9090(4)
H6_3 H 0.427799 0.408966 0.949608
C20_3 C 0.5626(2) 0.41627(17) 0.5821(4)
H7_3 H 0.589483 0.411248 0.612822
C21_3 C 0.3766(2) 0.37082(19) 0.9228(4)
H8_3 H 0.362727 0.370050 0.971868
C22_3 C 0.5867(2) 0.36259(18) 0.4935(4)
C23_3 C 0.5129(2) 0.40252(17) 0.4720(4)
H9_3 H 0.506720 0.388046 0.428083
C24_3 C 0.4194(2) 0.47619(19) 0.4416(5)
H10_3 H 0.434094 0.494957 0.471397
C25_3 C 0.6417(2) 0.3128(2) 0.5303(4)
H11_3 H 0.656636 0.298850 0.569317
C27_3 C 0.6506(2) 0.3039(2) 0.4550(4)
C28_3 C 0.3759(2) 0.42031(18) 0.3551(4)
H12_3 H 0.361472 0.401264 0.325737
C29_3 C 0.6020(2) 0.5041(2) 0.9381(4)
H13_3 H 0.593038 0.522030 0.901130
C30_3 C 0.3788(2) 0.4856(2) 0.3960(5)
H14_3 H 0.366726 0.510299 0.395093
C31_3 C 0.5540(2) 0.39449(18) 0.5169(4)
C32_3 C 0.6872(2) 0.27447(19) 0.4328(4)
C33_3 C 0.5937(3) 0.3526(2) 0.4183(5)
H15_3 H 0.576874 0.365206 0.379415
C34_3 C 0.4154(2) 0.4116(2) 0.4005(4)
H16_3 H 0.426947 0.386806 0.402603
C35_3 C 0.3812(2) 0.3485(2) 0.7944(5)
H17_3 H 0.370382 0.332511 0.755242
C36_3 C 0.4199(2) 0.3720(2) 0.7819(5)
H18_3 H 0.435217 0.371222 0.734038
C37_3 C 0.6108(2) 0.3421(2) 0.5498(4)
H19_3 H 0.606264 0.348263 0.601663
C38_3 C 0.5948(2) 0.4428(2) 0.9936(4)
H20_3 H 0.580856 0.418794 0.994742
C40_3 C 0.6258(3) 0.3238(2) 0.3989(5)
H22_3 H 0.630617 0.317852 0.347042
O15_2 O 0.20008(14) 0.32140(13) 0.9485(3)
O16_3 O 0.20039(13) 0.44032(11) 0.2585(2)
O18_3 O 0.19958(14) 0.50008(12) 0.3020(3)
O20_2 O 0.19987(14) 0.30400(12) 0.8243(3)
C41_3 C 0.01980(18) 0.42125(17) 0.8242(4)
C42_3 C 0.00931(18) 0.43246(16) 0.7518(4)
H23_3 H 0.028787 0.424488 0.711052
C45_3 C 0.1417(2) 0.34878(19) 0.8652(4)
C46_3 C 0.0189(2) 0.43178(16) 0.4920(4)
C47_3 C 0.06267(18) 0.39715(18) 0.8387(4)
C48_3 C 0.14265(19) 0.45685(17) 0.3522(4)
C49_3 C 0.18460(19) 0.46572(17) 0.2993(3)
C52_3 C 0.18451(19) 0.32273(18) 0.8825(4)
C54_3 C 0.0085(2) 0.45182(15) 0.5584(3)
H27_3 H 0.029764 0.470705 0.574572
C58_3 C 0.06231(19) 0.44000(18) 0.4430(4)
C59_3 C 0.0842(2) 0.3944(2) 0.9090(4)
H28_3 H 0.072201 0.408966 0.949608
C61_3 C 0.1234(2) 0.37082(19) 0.9228(4)
H30_3 H 0.137273 0.370050 0.971868
C64_3 C 0.0806(2) 0.47619(19) 0.4416(5)
H32_3 H 0.065906 0.494957 0.471397
C68_3 C 0.1241(2) 0.42031(18) 0.3551(4)
H34_3 H 0.138528 0.401264 0.325737
C70_3 C 0.1212(2) 0.4856(2) 0.3960(5)
H36_3 H 0.133274 0.510299 0.395093
C74_3 C 0.0846(2) 0.4116(2) 0.4005(4)
H38_3 H 0.073053 0.386806 0.402603
C75_3 C 0.1188(2) 0.3485(2) 0.7944(5)
H39_3 H 0.129618 0.332511 0.755242
C76_3 C 0.0801(2) 0.3720(2) 0.7819(5)
H40_3 H 0.064783 0.371222 0.734038
Cu10_2 Cu 0.250000 0.28569(3) 0.97920(6)
Cu12_2 Cu 0.250000 0.26500(3) 0.83202(6)
O23_2 O 0.70008(14) 0.17860(13) 0.4485(3)
O24_2 O 0.79992(14) 0.17860(13) 0.4485(3)
O25_2 O 0.29989(14) 0.46790(12) 0.1093(2)
O26_2 O 0.20011(14) 0.46790(12) 0.1093(2)
O27 O 0.30033(14) 0.52759(12) 0.1545(3)
O28 O 0.19967(14) 0.52759(12) 0.1545(3)
O29_2 O 0.69987(14) 0.19600(12) 0.3243(3)
O30_2 O 0.80013(14) 0.19600(12) 0.3243(3)
O31_2 O 0.79903(15) 0.25355(13) 0.4894(3)
O32_2 O 0.80037(15) 0.27181(13) 0.3642(3)
O14_3 O 0.95689(12) 0.46815(10) 0.6642(2)
C43_3 C 0.9411(2) 0.46785(16) 0.7960(4)
H24_3 H 0.915290 0.484079 0.786189
C44_3 C 0.96923(17) 0.45612(14) 0.7366(4)
C50_3 C 0.9901(2) 0.43286(19) 0.8838(4)
H25_3 H 0.996951 0.424852 0.933960
C51_3 C 0.96775(19) 0.44478(15) 0.6014(3)
C53_3 C 0.8647(2) 0.51358(18) 0.9946(4)
H26_3 H 0.851279 0.537825 0.994802
C55_3 C 0.9501(2) 0.45612(18) 0.8715(4)
C57_3 C 0.9184(2) 0.46745(19) 0.9362(4)
C60_3 C 0.9374(2) 0.41627(17) 0.5821(4)
H29_3 H 0.910517 0.411248 0.612822
C62_3 C 0.9133(2) 0.36259(18) 0.4935(4)
C63_3 C 0.9871(2) 0.40252(17) 0.4720(4)
H31_3 H 0.993280 0.388046 0.428083
C65_3 C 0.8583(2) 0.3128(2) 0.5303(4)
H33_3 H 0.843364 0.298850 0.569317
C67_3 C 0.8494(2) 0.3039(2) 0.4550(4)
C69_3 C 0.8980(2) 0.5041(2) 0.9381(4)
H35_3 H 0.906962 0.522030 0.901130
C71_3 C 0.9460(2) 0.39449(18) 0.5169(4)
C72_3 C 0.8128(2) 0.27447(19) 0.4328(4)
C73_3 C 0.9063(3) 0.3526(2) 0.4183(5)
H37_3 H 0.923126 0.365206 0.379415
C77_3 C 0.8892(2) 0.3421(2) 0.5498(4)
H41_3 H 0.893736 0.348263 0.601663
C78_3 C 0.9052(2) 0.4428(2) 0.9936(4)
H42_3 H 0.919144 0.418794 0.994742
C80_3 C 0.8742(3) 0.3238(2) 0.3989(5)
H44_3 H 0.869383 0.317852 0.347042
C56_3 C 0.18536(19) 0.50229(18) 0.1096(4)
C66_3 C 0.1490(2) 0.51211(18) 0.0505(4)
C79_3 C 0.1278(2) 0.5478(2) 0.0492(4)
H43_3 H 0.136101 0.565575 0.086764
C16_3 C 0.31464(19) 0.50229(18) 0.1096(4)
C26_3 C 0.3510(2) 0.51211(18) 0.0505(4)
C39_3 C 0.3722(2) 0.5478(2) 0.0492(4)
H21_3 H 0.363899 0.565575 0.086764
O5_2 O 0.70011(14) 0.03210(12) 0.6093(2)
C13_4 C 0.6353(2) 0.01358(18) 0.4946(4)
H4_4 H 0.648721 0.037825 0.494802
C29_4 C 0.6020(2) 0.0041(2) 0.4381(4)
H13_4 H 0.593038 0.022030 0.401130
Cu6_2 Cu 0.750000 0.05145(3) 0.67981(5)
Cu2_2 Cu 0.250000 0.01881(3) 0.73283(5)
O6_4 O 0.30042(14) 0.00008(12) 0.8020(3)
O7_4 O 0.250000 0.07654(19) 0.7764(4)
H14_4 H 0.366726 0.010299 0.895093
O18_4 O 0.19958(14) 0.00008(12) 0.8020(3)
H36_4 H 0.133274 0.010299 0.895093
O27_2 O 0.30033(14) 0.02759(12) 0.6545(3)
O28_2 O 0.19967(14) 0.02759(12) 0.6545(3)
O17_2 O 0.79989(14) 0.03210(12) 0.6093(2)
C53_4 C 0.8647(2) 0.01358(18) 0.4946(4)
H26_4 H 0.851279 0.037825 0.494802
C69_4 C 0.8980(2) 0.0041(2) 0.4381(4)
H35_4 H 0.906962 0.022030 0.401130
O14_4 O 0.04311(12) 0.03185(10) 0.1642(2)
C43_4 C 0.0589(2) 0.03215(16) 0.2960(4)
H24_4 H 0.084710 0.015921 0.286189
C44_4 C 0.03077(17) 0.04388(14) 0.2366(4)
C50_4 C 0.0099(2) 0.06714(19) 0.3838(4)
H25_4 H 0.003049 0.075148 0.433960
C51_4 C 0.03225(19) 0.05522(15) 0.1014(3)
C55_4 C 0.0499(2) 0.04388(18) 0.3715(4)
C56_4 C 0.18536(19) 0.00229(18) 0.6096(4)
C57_4 C 0.0816(2) 0.03255(19) 0.4362(4)
C60_4 C 0.0626(2) 0.08373(17) 0.0821(4)
H29_4 H 0.089483 0.088752 0.112822
C65_4 C 0.1417(2) 0.1872(2) 0.0303(4)
H33_4 H 0.156636 0.201150 0.069317
C66_4 C 0.1490(2) 0.01211(18) 0.5505(4)
C71_4 C 0.0540(2) 0.10551(18) 0.0169(4)
C77_4 C 0.1108(2) 0.1579(2) 0.0498(4)
H41_4 H 0.106264 0.151737 0.101663
C78_4 C 0.0948(2) 0.0572(2) 0.4936(4)
H42_4 H 0.080856 0.081206 0.494742
C79_4 C 0.1278(2) 0.0478(2) 0.5492(4)
H43_4 H 0.136101 0.065575 0.586764
O21_2 O 0.20097(15) 0.24645(13) 0.9894(3)
O22_2 O 0.19963(15) 0.22819(13) 0.8642(3)
C62_4 C 0.0867(2) 0.13741(18) 0.9935(4)
C63_4 C 0.0129(2) 0.09748(17) 0.9720(4)
H31_4 H 0.006720 0.111954 0.928083
C67_4 C 0.1506(2) 0.1961(2) 0.9550(4)
C72_4 C 0.1872(2) 0.22553(19) 0.9328(4)
C73_4 C 0.0937(3) 0.1474(2) 0.9183(5)
H37_4 H 0.076874 0.134794 0.879415
C80_4 C 0.1258(3) 0.1762(2) 0.8989(5)
H44_4 H 0.130617 0.182148 0.847042
O1_4 O 0.45689(12) 0.03185(10) 0.1642(2)
O9_4 O 0.250000 0.29771(18) 0.1022(4)
C1_4 C 0.51980(18) 0.07875(17) 0.3242(4)
C2_4 C 0.50931(18) 0.06754(16) 0.2518(4)
H1_4 H 0.528787 0.075512 0.211052
C3_4 C 0.4411(2) 0.03215(16) 0.2960(4)
H2_4 H 0.415290 0.015921 0.286189
C4_4 C 0.46923(17) 0.04388(14) 0.2366(4)
C5_4 C 0.6417(2) 0.15122(19) 0.3652(4)
C7_4 C 0.56267(18) 0.10285(18) 0.3387(4)
C10_4 C 0.4901(2) 0.06714(19) 0.3838(4)
H3_4 H 0.496951 0.075148 0.433960
C11_4 C 0.46775(19) 0.05522(15) 0.1014(3)
C12_4 C 0.68451(19) 0.17727(18) 0.3825(4)
C14_4 C 0.5085(2) 0.04818(15) 0.0584(3)
H5_4 H 0.529764 0.029295 0.074572
C15_4 C 0.4501(2) 0.04388(18) 0.3715(4)
C16_4 C 0.31464(19) 0.00229(18) 0.6096(4)
C17_4 C 0.4184(2) 0.03255(19) 0.4362(4)
C19_4 C 0.5842(2) 0.1056(2) 0.4090(4)
H6_4 H 0.572201 0.091034 0.449608
C20_4 C 0.4374(2) 0.08373(17) 0.0821(4)
H7_4 H 0.410517 0.088752 0.112822
C21_4 C 0.6234(2) 0.12918(19) 0.4228(4)
H8_4 H 0.637273 0.129950 0.471868
C25_4 C 0.3583(2) 0.1872(2) 0.0303(4)
H11_4 H 0.343364 0.201150 0.069317
C26_4 C 0.3510(2) 0.01211(18) 0.5505(4)
C31_4 C 0.4460(2) 0.10551(18) 0.0169(4)
C35_4 C 0.6188(2) 0.1515(2) 0.2944(5)
H17_4 H 0.629618 0.167489 0.255242
C36_4 C 0.5801(2) 0.1280(2) 0.2819(5)
H18_4 H 0.564783 0.128778 0.234038
C37_4 C 0.3892(2) 0.1579(2) 0.0498(4)
H19_4 H 0.393736 0.151737 0.101663
C38_4 C 0.4052(2) 0.0572(2) 0.4936(4)
H20_4 H 0.419144 0.081206 0.494742
C39_4 C 0.3722(2) 0.0478(2) 0.5492(4)
H21_4 H 0.363899 0.065575 0.586764
C41_4 C 0.98020(18) 0.07875(17) 0.3242(4)
C42_4 C 0.99069(18) 0.06754(16) 0.2518(4)
H23_4 H 0.971213 0.075512 0.211052
C45_4 C 0.8583(2) 0.15122(19) 0.3652(4)
C47_4 C 0.93733(18) 0.10285(18) 0.3387(4)
C52_4 C 0.81549(19) 0.17727(18) 0.3825(4)
C54_4 C 0.9915(2) 0.04818(15) 0.0584(3)
H27_4 H 0.970236 0.029295 0.074572
C59_4 C 0.9158(2) 0.1056(2) 0.4090(4)
H28_4 H 0.927799 0.091034 0.449608
C61_4 C 0.8766(2) 0.12918(19) 0.4228(4)
H30_4 H 0.862727 0.129950 0.471868
C75_4 C 0.8812(2) 0.1515(2) 0.2944(5)
H39_4 H 0.870382 0.167489 0.255242
C76_4 C 0.9199(2) 0.1280(2) 0.2819(5)
H40_4 H 0.935217 0.128778 0.234038
O2_4 O 0.750000 0.10605(18) 0.6283(4)
O4_4 O 0.70039(13) 0.05968(11) 0.7585(2)
O11_4 O 0.29903(15) 0.24645(13) 0.9894(3)
O12_4 O 0.30037(15) 0.22819(13) 0.8642(3)
O13_4 O 0.250000 0.2529(2) 0.7115(4)
C6_4 C 0.5189(2) 0.06822(16) 0.9920(4)
C8_4 C 0.64265(19) 0.04315(17) 0.8522(4)
C9_4 C 0.68460(19) 0.03428(17) 0.7993(3)
C18_4 C 0.56231(19) 0.06000(18) 0.9430(4)
C22_4 C 0.4133(2) 0.13741(18) 0.9935(4)
C23_4 C 0.4871(2) 0.09748(17) 0.9720(4)
H9_4 H 0.493280 0.111954 0.928083
C24_4 C 0.5806(2) 0.02381(19) 0.9416(5)
H10_4 H 0.565906 0.005043 0.971397
C27_4 C 0.3494(2) 0.1961(2) 0.9550(4)
C28_4 C 0.6241(2) 0.07969(18) 0.8551(4)
H12_4 H 0.638528 0.098736 0.825737
C30_4 C 0.6212(2) 0.0144(2) 0.8960(5)
C32_4 C 0.3128(2) 0.22553(19) 0.9328(4)
C33_4 C 0.4063(3) 0.1474(2) 0.9183(5)
H15_4 H 0.423126 0.134794 0.879415
C34_4 C 0.5846(2) 0.0884(2) 0.9005(4)
H16_4 H 0.573053 0.113194 0.902603
C40_4 C 0.3742(3) 0.1762(2) 0.8989(5)
H22_4 H 0.369383 0.182148 0.847042
O16_4 O 0.79961(13) 0.05968(11) 0.7585(2)
C46_4 C 0.9811(2) 0.06822(16) 0.9920(4)
C48_4 C 0.85735(19) 0.04315(17) 0.8522(4)
C49_4 C 0.81540(19) 0.03428(17) 0.7993(3)
C58_4 C 0.93769(19) 0.06000(18) 0.9430(4)
C64_4 C 0.9194(2) 0.02381(19) 0.9416(5)
H32_4 H 0.934094 0.005043 0.971397
C68_4 C 0.8759(2) 0.07969(18) 0.8551(4)
H34_4 H 0.861472 0.098736 0.825737
C70_4 C 0.8788(2) 0.0144(2) 0.8960(5)
C74_4 C 0.9154(2) 0.0884(2) 0.9005(4)
H38_4 H 0.926947 0.113194 0.902603
loop_
_geom_bond_atom_site_label_1
_geom_bond_atom_site_label_2
_geom_bond_site_symmetry_1
_geom_bond_site_symmetry_2
O5 C16 1_555 1_555
O8 C16 1_555 1_555
C16 C26 1_555 1_555
C39 C26 1_555 1_555
H21 C39 1_555 1_555
Cu6 O5 1_555 1_555
Cu8 O8 1_555 1_555
O17 C56 1_555 1_555
O19 C56 1_555 1_555
C56 C66 1_555 1_555
C79 C66 1_555 1_555
H43 C79 1_555 1_555
Cu6 O17 1_555 1_555
Cu8 O19 1_555 1_555
O14 C44 1_555 1_555
O21 C72 1_555 1_555
O22 C72 1_555 1_555
C43 H24 1_555 1_555
H25 C50 1_555 1_555
C51 O14 1_555 1_555
C53 H26 1_555 1_555
C55 C43 1_555 1_555
C57 C55 1_555 1_555
C60 C51 1_555 1_555
H29 C60 1_555 1_555
C62 C71 1_555 1_555
H31 C63 1_555 1_555
C65 H33 1_555 1_555
C67 C65 1_555 1_555
C69 C53 1_555 1_555
H35 C69 1_555 1_555
C71 C60 1_555 1_555
C72 C67 1_555 1_555
C73 C62 1_555 1_555
H37 C73 1_555 1_555
C77 C62 1_555 1_555
H41 C77 1_555 1_555
C78 C57 1_555 1_555
H42 C78 1_555 1_555
C80 C67 1_555 1_555
H44 C80 1_555 1_555
Cu9 O21 1_555 1_555
Cu11 O22 1_555 1_555
C43 C44 1_555 1_555
C50 C55 1_555 1_555
C57 C69 1_555 1_555
C63 C71 1_555 1_555
C65 C77 1_555 1_555
C73 C80 1_555 1_555
Cu6 O2 1_555 1_555
Cu8 O6 1_555 1_555
Cu9 O9 1_555 1_555
Cu11 O12 1_555 1_555
O1 C4 1_555 1_555
O3 C12 1_555 1_555
O4 Cu6 1_555 1_555
O6 C9 1_555 1_555
O7 Cu8 1_555 1_555
O10 C12 1_555 1_555
O11 Cu9 1_555 1_555
O12 C32 1_555 1_555
C1 C2 1_555 1_555
C2 H1 1_555 1_555
C3 H2 1_555 1_555
O13 Cu11 1_555 1_555
C4 C2 1_555 1_555
C5 C12 1_555 1_555
C6 C14 1_555 1_555
C7 C1 1_555 1_555
C8 C9 1_555 1_555
C9 O4 1_555 1_555
C10 C1 1_555 1_555
H3 C10 1_555 1_555
C11 O1 1_555 1_555
C13 H4 1_555 1_555
C14 C11 1_555 1_555
H5 C14 1_555 1_555
C15 C3 1_555 1_555
C17 C15 1_555 1_555
C18 C6 1_555 1_555
C19 C7 1_555 1_555
H6 C19 1_555 1_555
C20 C11 1_555 1_555
H7 C20 1_555 1_555
C21 C5 1_555 1_555
H8 C21 1_555 1_555
C22 C31 1_555 1_555
C23 C6 1_555 1_555
H9 C23 1_555 1_555
C24 C18 1_555 1_555
H10 C24 1_555 1_555
C25 H11 1_555 1_555
C27 C25 1_555 1_555
C28 C8 1_555 1_555
H12 C28 1_555 1_555
C29 C13 1_555 1_555
H13 C29 1_555 1_555
C30 C8 1_555 1_555
H14 C30 1_555 1_555
C31 C20 1_555 1_555
C32 O11 1_555 1_555
C33 C22 1_555 1_555
H15 C33 1_555 1_555
C34 C18 1_555 1_555
H16 C34 1_555 1_555
C35 C5 1_555 1_555
H17 C35 1_555 1_555
C36 C7 1_555 1_555
H18 C36 1_555 1_555
C37 C22 1_555 1_555
H19 C37 1_555 1_555
C38 C17 1_555 1_555
H20 C38 1_555 1_555
C40 C27 1_555 1_555
H22 C40 1_555 1_555
O15 C52 1_555 1_555
O16 Cu6 1_555 1_555
O18 Cu8 1_555 1_555
O20 C52 1_555 1_555
C41 C42 1_555 1_555
C42 H23 1_555 1_555
C45 C52 1_555 1_555
C46 C54 1_555 1_555
C47 C41 1_555 1_555
C48 C49 1_555 1_555
C49 O16 1_555 1_555
H27 C54 1_555 1_555
C58 C46 1_555 1_555
C59 C47 1_555 1_555
H28 C59 1_555 1_555
C61 C45 1_555 1_555
H30 C61 1_555 1_555
C64 C58 1_555 1_555
H32 C64 1_555 1_555
C68 C48 1_555 1_555
H34 C68 1_555 1_555
C70 C48 1_555 1_555
H36 C70 1_555 1_555
C74 C58 1_555 1_555
H38 C74 1_555 1_555
C75 C45 1_555 1_555
H39 C75 1_555 1_555
C76 C47 1_555 1_555
H40 C76 1_555 1_555
Cu10 O3 1_555 1_555
Cu12 O10 1_555 1_555
O23 Cu9 1_555 1_555
O24 Cu9 1_555 1_555
O29 Cu11 1_555 1_555
O30 Cu11 1_555 1_555
C3 C4 1_555 1_555
C10 C15 1_555 1_555
C17 C29 1_555 1_555
C19 C21 1_555 1_555
C23 C31 1_555 1_555
C24 C30 1_555 1_555
C25 C37 1_555 1_555
C27 C32 1_555 1_555
C28 C34 1_555 1_555
C33 C40 1_555 1_555
C35 C36 1_555 1_555
O15 Cu10 1_555 1_555
O18 C49 1_555 1_555
O20 Cu12 1_555 1_555
C59 C61 1_555 1_555
C64 C70 1_555 1_555
C68 C74 1_555 1_555
C75 C76 1_555 1_555
O1_2 C4_2 1_555 1_555
O23 C12_2 1_555 1_555
O8_2 C16_2 1_555 1_555
O29 C12_2 1_555 1_555
C1_2 C2_2 1_555 1_555
C2_2 H1_2 1_555 1_555
C3_2 H2_2 1_555 1_555
C4_2 C2_2 1_555 1_555
C5_2 C12_2 1_555 1_555
C7_2 C1_2 1_555 1_555
C10_2 C1_2 1_555 1_555
H3_2 C10_2 1_555 1_555
C11_2 O1_2 1_555 1_555
C14_2 C11_2 1_555 1_555
H5_2 C14_2 1_555 1_555
C15_2 C3_2 1_555 1_555
C16_2 C26_2 1_555 1_555
C17_2 C15_2 1_555 1_555
C19_2 C7_2 1_555 1_555
H6_2 C19_2 1_555 1_555
C20_2 C11_2 1_555 1_555
H7_2 C20_2 1_555 1_555
C21_2 C5_2 1_555 1_555
H8_2 C21_2 1_555 1_555
C25_2 H11_2 1_555 1_555
C31_2 C20_2 1_555 1_555
C35_2 C5_2 1_555 1_555
H17_2 C35_2 1_555 1_555
C36_2 C7_2 1_555 1_555
H18_2 C36_2 1_555 1_555
H19_2 C37_2 1_555 1_555
C38_2 C17_2 1_555 1_555
H20_2 C38_2 1_555 1_555
C39_2 C26_2 1_555 1_555
H21_2 C39_2 1_555 1_555
O24 C52_2 1_555 1_555
O30 C52_2 1_555 1_555
C41_2 C42_2 1_555 1_555
C42_2 H23_2 1_555 1_555
C45_2 C52_2 1_555 1_555
C47_2 C41_2 1_555 1_555
H27_2 C54_2 1_555 1_555
C59_2 C47_2 1_555 1_555
H28_2 C59_2 1_555 1_555
C61_2 C45_2 1_555 1_555
H30_2 C61_2 1_555 1_555
C75_2 C45_2 1_555 1_555
H39_2 C75_2 1_555 1_555
C76_2 C47_2 1_555 1_555
H40_2 C76_2 1_555 1_555
Cu8_2 O8_2 1_555 1_555
C3_2 C4_2 1_555 1_555
C10_2 C15_2 1_555 1_555
C19_2 C21_2 1_555 1_555
C25_2 C37_2 1_555 1_555
C35_2 C36_2 1_555 1_555
C38_2 C39_2 1_555 1_555
C59_2 C61_2 1_555 1_555
C75_2 C76_2 1_555 1_555
Cu1 O2_2 1_555 1_555
Cu12 O12_2 1_555 1_555
O4_2 Cu1 1_555 1_555
O11_2 Cu10 1_555 1_555
O12_2 C32_2 1_555 1_555
O13_2 Cu12 1_555 1_555
C8_2 C9_2 1_555 1_555
C9_2 O4_2 1_555 1_555
C18_2 C6_2 1_555 1_555
C23_2 C6_2 1_555 1_555
H9_2 C23_2 1_555 1_555
C24_2 C18_2 1_555 1_555
H10_2 C24_2 1_555 1_555
C28_2 C8_2 1_555 1_555
H12_2 C28_2 1_555 1_555
C30_2 C8_2 1_555 1_555
C32_2 O11_2 1_555 1_555
C33_2 C22_2 1_555 1_555
H15_2 C33_2 1_555 1_555
C34_2 C18_2 1_555 1_555
H16_2 C34_2 1_555 1_555
C40_2 C27_2 1_555 1_555
H22_2 C40_2 1_555 1_555
O16_2 Cu1 1_555 1_555
C48_2 C49_2 1_555 1_555
C49_2 O16_2 1_555 1_555
C58_2 C46_2 1_555 1_555
C64_2 C58_2 1_555 1_555
H32_2 C64_2 1_555 1_555
C68_2 C48_2 1_555 1_555
H34_2 C68_2 1_555 1_555
C70_2 C48_2 1_555 1_555
C74_2 C58_2 1_555 1_555
H38_2 C74_2 1_555 1_555
O25 Cu1 1_555 1_555
O26 Cu1 1_555 1_555
O31 Cu10 1_555 1_555
O32 Cu12 1_555 1_555
C24_2 C30_2 1_555 1_555
C27_2 C32_2 1_555 1_555
C28_2 C34_2 1_555 1_555
C33_2 C40_2 1_555 1_555
C64_2 C70_2 1_555 1_555
C68_2 C74_2 1_555 1_555
O14_2 C44_2 1_555 1_555
O19_2 C56_2 1_555 1_555
C43_2 H24_2 1_555 1_555
H25_2 C50_2 1_555 1_555
C51_2 O14_2 1_555 1_555
C55_2 C43_2 1_555 1_555
C56_2 C66_2 1_555 1_555
C57_2 C55_2 1_555 1_555
C60_2 C51_2 1_555 1_555
H29_2 C60_2 1_555 1_555
C65_2 H33_2 1_555 1_555
C71_2 C60_2 1_555 1_555
H41_2 C77_2 1_555 1_555
C78_2 C57_2 1_555 1_555
H42_2 C78_2 1_555 1_555
C79_2 C66_2 1_555 1_555
H43_2 C79_2 1_555 1_555
Cu8_2 O19_2 1_555 1_555
C43_2 C44_2 1_555 1_555
C50_2 C55_2 1_555 1_555
C65_2 C77_2 1_555 1_555
C78_2 C79_2 1_555 1_555
O31 C72_2 1_555 1_555
O32 C72_2 1_555 1_555
H31_2 C63_2 1_555 1_555
C72_2 C67_2 1_555 1_555
C73_2 C62_2 1_555 1_555
H37_2 C73_2 1_555 1_555
C80_2 C67_2 1_555 1_555
H44_2 C80_2 1_555 1_555
C73_2 C80_2 1_555 1_555
C53_2 H26_2 1_555 1_555
C69_2 C53_2 1_555 1_555
H35_2 C69_2 1_555 1_555
C13_2 H4_2 1_555 1_555
C29_2 C13_2 1_555 1_555
H13_2 C29_2 1_555 1_555
Cu8_2 O6_2 1_555 1_555
O7_2 Cu8_2 1_555 1_555
O18_2 Cu8_2 1_555 1_555
Cu1_2 O2_3 1_555 1_555
Cu2 O6_3 1_555 1_555
Cu3 O9_3 1_555 1_555
Cu4 O12_3 1_555 1_555
O1_3 C4_3 1_555 1_555
O3_2 C12_3 1_555 1_555
O4_3 Cu1_2 1_555 1_555
O6_3 C9_3 1_555 1_555
O7_3 Cu2 1_555 1_555
O10_2 C12_3 1_555 1_555
O11_3 Cu3 1_555 1_555
O12_3 C32_3 1_555 1_555
C1_3 C2_3 1_555 1_555
C2_3 H1_3 1_555 1_555
C3_3 H2_3 1_555 1_555
O13_3 Cu4 1_555 1_555
C4_3 C2_3 1_555 1_555
C5_3 C12_3 1_555 1_555
C6_3 C14_3 1_555 1_555
C7_3 C1_3 1_555 1_555
C8_3 C9_3 1_555 1_555
C9_3 O4_3 1_555 1_555
C10_3 C1_3 1_555 1_555
H3_3 C10_3 1_555 1_555
C11_3 O1_3 1_555 1_555
C13_3 H4_3 1_555 1_555
C14_3 C11_3 1_555 1_555
H5_3 C14_3 1_555 1_555
C15_3 C3_3 1_555 1_555
C17_3 C15_3 1_555 1_555
C18_3 C6_3 1_555 1_555
C19_3 C7_3 1_555 1_555
H6_3 C19_3 1_555 1_555
C20_3 C11_3 1_555 1_555
H7_3 C20_3 1_555 1_555
C21_3 C5_3 1_555 1_555
H8_3 C21_3 1_555 1_555
C22_3 C31_3 1_555 1_555
C23_3 C6_3 1_555 1_555
H9_3 C23_3 1_555 1_555
C24_3 C18_3 1_555 1_555
H10_3 C24_3 1_555 1_555
C25_3 H11_3 1_555 1_555
C27_3 C25_3 1_555 1_555
C28_3 C8_3 1_555 1_555
H12_3 C28_3 1_555 1_555
C29_3 C13_3 1_555 1_555
H13_3 C29_3 1_555 1_555
C30_3 C8_3 1_555 1_555
H14_3 C30_3 1_555 1_555
C31_3 C20_3 1_555 1_555
C32_3 O11_3 1_555 1_555
C33_3 C22_3 1_555 1_555
H15_3 C33_3 1_555 1_555
C34_3 C18_3 1_555 1_555
H16_3 C34_3 1_555 1_555
C35_3 C5_3 1_555 1_555
H17_3 C35_3 1_555 1_555
C36_3 C7_3 1_555 1_555
H18_3 C36_3 1_555 1_555
C37_3 C22_3 1_555 1_555
H19_3 C37_3 1_555 1_555
C38_3 C17_3 1_555 1_555
H20_3 C38_3 1_555 1_555
C40_3 C27_3 1_555 1_555
H22_3 C40_3 1_555 1_555
O15_2 C52_3 1_555 1_555
O16_3 Cu1_2 1_555 1_555
O18_3 Cu2 1_555 1_555
O20_2 C52_3 1_555 1_555
C41_3 C42_3 1_555 1_555
C42_3 H23_3 1_555 1_555
C45_3 C52_3 1_555 1_555
C46_3 C54_3 1_555 1_555
C47_3 C41_3 1_555 1_555
C48_3 C49_3 1_555 1_555
C49_3 O16_3 1_555 1_555
H27_3 C54_3 1_555 1_555
C58_3 C46_3 1_555 1_555
C59_3 C47_3 1_555 1_555
H28_3 C59_3 1_555 1_555
C61_3 C45_3 1_555 1_555
H30_3 C61_3 1_555 1_555
C64_3 C58_3 1_555 1_555
H32_3 C64_3 1_555 1_555
C68_3 C48_3 1_555 1_555
H34_3 C68_3 1_555 1_555
C70_3 C48_3 1_555 1_555
H36_3 C70_3 1_555 1_555
C74_3 C58_3 1_555 1_555
H38_3 C74_3 1_555 1_555
C75_3 C45_3 1_555 1_555
H39_3 C75_3 1_555 1_555
C76_3 C47_3 1_555 1_555
H40_3 C76_3 1_555 1_555
Cu10_2 O3_2 1_555 1_555
Cu12_2 O10_2 1_555 1_555
O23_2 Cu3 1_555 1_555
O24_2 Cu3 1_555 1_555
O25_2 Cu1_2 1_555 1_555
O26_2 Cu1_2 1_555 1_555
O27 Cu2 1_555 1_555
O28 Cu2 1_555 1_555
O29_2 Cu4 1_555 1_555
O30_2 Cu4 1_555 1_555
O31_2 Cu3 1_555 1_555
O32_2 Cu4 1_555 1_555
C3_3 C4_3 1_555 1_555
C10_3 C15_3 1_555 1_555
C17_3 C29_3 1_555 1_555
C19_3 C21_3 1_555 1_555
C23_3 C31_3 1_555 1_555
C24_3 C30_3 1_555 1_555
C25_3 C37_3 1_555 1_555
C27_3 C32_3 1_555 1_555
C28_3 C34_3 1_555 1_555
C33_3 C40_3 1_555 1_555
C35_3 C36_3 1_555 1_555
O15_2 Cu10_2 1_555 1_555
O18_3 C49_3 1_555 1_555
O20_2 Cu12_2 1_555 1_555
C59_3 C61_3 1_555 1_555
C64_3 C70_3 1_555 1_555
C68_3 C74_3 1_555 1_555
C75_3 C76_3 1_555 1_555
O14_3 C44_3 1_555 1_555
O31_2 C72_3 1_555 1_555
O32_2 C72_3 1_555 1_555
C43_3 H24_3 1_555 1_555
H25_3 C50_3 1_555 1_555
C51_3 O14_3 1_555 1_555
C53_3 H26_3 1_555 1_555
C55_3 C43_3 1_555 1_555
C57_3 C55_3 1_555 1_555
C60_3 C51_3 1_555 1_555
H29_3 C60_3 1_555 1_555
C62_3 C71_3 1_555 1_555
H31_3 C63_3 1_555 1_555
C65_3 H33_3 1_555 1_555
C67_3 C65_3 1_555 1_555
C69_3 C53_3 1_555 1_555
H35_3 C69_3 1_555 1_555
C71_3 C60_3 1_555 1_555
C72_3 C67_3 1_555 1_555
C73_3 C62_3 1_555 1_555
H37_3 C73_3 1_555 1_555
C77_3 C62_3 1_555 1_555
H41_3 C77_3 1_555 1_555
C78_3 C57_3 1_555 1_555
H42_3 C78_3 1_555 1_555
C80_3 C67_3 1_555 1_555
H44_3 C80_3 1_555 1_555
C43_3 C44_3 1_555 1_555
C50_3 C55_3 1_555 1_555
C57_3 C69_3 1_555 1_555
C63_3 C71_3 1_555 1_555
C65_3 C77_3 1_555 1_555
C73_3 C80_3 1_555 1_555
O26_2 C56_3 1_555 1_555
O28 C56_3 1_555 1_555
C56_3 C66_3 1_555 1_555
C79_3 C66_3 1_555 1_555
H43_3 C79_3 1_555 1_555
O25_2 C16_3 1_555 1_555
O27 C16_3 1_555 1_555
C16_3 C26_3 1_555 1_555
C39_3 C26_3 1_555 1_555
H21_3 C39_3 1_555 1_555
C13_4 H4_4 1_555 1_555
C29_4 C13_4 1_555 1_555
H13_4 C29_4 1_555 1_555
Cu6_2 O5_2 1_555 1_555
Cu2_2 O6_4 1_555 1_555
O7_4 Cu2_2 1_555 1_555
O18_4 Cu2_2 1_555 1_555
O27_2 Cu2_2 1_555 1_555
O28_2 Cu2_2 1_555 1_555
C53_4 H26_4 1_555 1_555
C69_4 C53_4 1_555 1_555
H35_4 C69_4 1_555 1_555
Cu6_2 O17_2 1_555 1_555
O14_4 C44_4 1_555 1_555
O28_2 C56_4 1_555 1_555
C43_4 H24_4 1_555 1_555
H25_4 C50_4 1_555 1_555
C51_4 O14_4 1_555 1_555
C55_4 C43_4 1_555 1_555
C56_4 C66_4 1_555 1_555
C57_4 C55_4 1_555 1_555
C60_4 C51_4 1_555 1_555
H29_4 C60_4 1_555 1_555
C65_4 H33_4 1_555 1_555
C71_4 C60_4 1_555 1_555
H41_4 C77_4 1_555 1_555
C78_4 C57_4 1_555 1_555
H42_4 C78_4 1_555 1_555
C79_4 C66_4 1_555 1_555
H43_4 C79_4 1_555 1_555
C43_4 C44_4 1_555 1_555
C50_4 C55_4 1_555 1_555
C65_4 C77_4 1_555 1_555
C78_4 C79_4 1_555 1_555
O21_2 C72_4 1_555 1_555
O22_2 C72_4 1_555 1_555
H31_4 C63_4 1_555 1_555
C72_4 C67_4 1_555 1_555
C73_4 C62_4 1_555 1_555
H37_4 C73_4 1_555 1_555
C80_4 C67_4 1_555 1_555
H44_4 C80_4 1_555 1_555
Cu10_2 O21_2 1_555 1_555
Cu12_2 O22_2 1_555 1_555
C73_4 C80_4 1_555 1_555
O1_4 C4_4 1_555 1_555
O23_2 C12_4 1_555 1_555
O27_2 C16_4 1_555 1_555
O29_2 C12_4 1_555 1_555
C1_4 C2_4 1_555 1_555
C2_4 H1_4 1_555 1_555
C3_4 H2_4 1_555 1_555
C4_4 C2_4 1_555 1_555
C5_4 C12_4 1_555 1_555
C7_4 C1_4 1_555 1_555
C10_4 C1_4 1_555 1_555
H3_4 C10_4 1_555 1_555
C11_4 O1_4 1_555 1_555
C14_4 C11_4 1_555 1_555
H5_4 C14_4 1_555 1_555
C15_4 C3_4 1_555 1_555
C16_4 C26_4 1_555 1_555
C17_4 C15_4 1_555 1_555
C19_4 C7_4 1_555 1_555
H6_4 C19_4 1_555 1_555
C20_4 C11_4 1_555 1_555
H7_4 C20_4 1_555 1_555
C21_4 C5_4 1_555 1_555
H8_4 C21_4 1_555 1_555
C25_4 H11_4 1_555 1_555
C31_4 C20_4 1_555 1_555
C35_4 C5_4 1_555 1_555
H17_4 C35_4 1_555 1_555
C36_4 C7_4 1_555 1_555
H18_4 C36_4 1_555 1_555
H19_4 C37_4 1_555 1_555
C38_4 C17_4 1_555 1_555
H20_4 C38_4 1_555 1_555
C39_4 C26_4 1_555 1_555
H21_4 C39_4 1_555 1_555
O24_2 C52_4 1_555 1_555
O30_2 C52_4 1_555 1_555
C41_4 C42_4 1_555 1_555
C42_4 H23_4 1_555 1_555
C45_4 C52_4 1_555 1_555
C47_4 C41_4 1_555 1_555
H27_4 C54_4 1_555 1_555
C59_4 C47_4 1_555 1_555
H28_4 C59_4 1_555 1_555
C61_4 C45_4 1_555 1_555
H30_4 C61_4 1_555 1_555
C75_4 C45_4 1_555 1_555
H39_4 C75_4 1_555 1_555
C76_4 C47_4 1_555 1_555
H40_4 C76_4 1_555 1_555
C3_4 C4_4 1_555 1_555
C10_4 C15_4 1_555 1_555
C19_4 C21_4 1_555 1_555
C25_4 C37_4 1_555 1_555
C35_4 C36_4 1_555 1_555
C38_4 C39_4 1_555 1_555
C59_4 C61_4 1_555 1_555
C75_4 C76_4 1_555 1_555
Cu6_2 O2_4 1_555 1_555
Cu12_2 O12_4 1_555 1_555
O4_4 Cu6_2 1_555 1_555
O11_4 Cu10_2 1_555 1_555
O12_4 C32_4 1_555 1_555
O13_4 Cu12_2 1_555 1_555
C8_4 C9_4 1_555 1_555
C9_4 O4_4 1_555 1_555
C18_4 C6_4 1_555 1_555
C23_4 C6_4 1_555 1_555
H9_4 C23_4 1_555 1_555
C24_4 C18_4 1_555 1_555
H10_4 C24_4 1_555 1_555
C28_4 C8_4 1_555 1_555
H12_4 C28_4 1_555 1_555
C30_4 C8_4 1_555 1_555
C32_4 O11_4 1_555 1_555
C33_4 C22_4 1_555 1_555
H15_4 C33_4 1_555 1_555
C34_4 C18_4 1_555 1_555
H16_4 C34_4 1_555 1_555
C40_4 C27_4 1_555 1_555
H22_4 C40_4 1_555 1_555
O16_4 Cu6_2 1_555 1_555
C48_4 C49_4 1_555 1_555
C49_4 O16_4 1_555 1_555
C58_4 C46_4 1_555 1_555
C64_4 C58_4 1_555 1_555
H32_4 C64_4 1_555 1_555
C68_4 C48_4 1_555 1_555
H34_4 C68_4 1_555 1_555
C70_4 C48_4 1_555 1_555
C74_4 C58_4 1_555 1_555
H38_4 C74_4 1_555 1_555
C24_4 C30_4 1_555 1_555
C27_4 C32_4 1_555 1_555
C28_4 C34_4 1_555 1_555
C33_4 C40_4 1_555 1_555
C64_4 C70_4 1_555 1_555
C68_4 C74_4 1_555 1_555

#END
