
###############################################################################
#
# This file contains modified crystal structure data generated from the
# MOF subset of the Cambridge Structural Database (CSD) v543 
# hosted by the Cambridge Crystallographic Data Centre (CCDC).
#
# This work is licensed under the Creative Commons
# Attribution-NonCommercial-ShareAlike 4.0 International License.
# To view a copy of this license, visit
# http://creativecommons.org/licenses/by-nc-sa/4.0/
# or send a letter to
# Creative Commons, PO Box 1866, Mountain View, CA 94042, USA.
#
# CIF created using the CSD Python API on 29 September 2022
# The structure has been converted into the P1 space group
# The structure has a 3D framework
# The original CSD entry TUHDOS is in the monoclinic crystal system
# The framework has been calculated to contain at least 10.0% void space
# The void calculation uses a probe of radius 1.32A, grid spacing 0.4
# H atom positions have been added when not included in the experimental data
#
###############################################################################

data_TUHDOS
_chemical_formula_moiety         '(C168 H120 Cu8 O48)n'
_symmetry_cell_setting           triclinic
_symmetry_space_group_name_H-M   'P 1'
_symmetry_Int_Tables_number      1
_space_group_name_Hall           'P 1'
loop_
_symmetry_equiv_pos_site_id
_symmetry_equiv_pos_as_xyz
1 x,y,z
_cell_length_a                   20.156(7)
_cell_length_b                   25.796(8)
_cell_length_c                   22.349(6)
_cell_angle_alpha                90
_cell_angle_beta                 105.78(2)
_cell_angle_gamma                90
_cell_volume                     11182.3
loop_
_atom_site_label
_atom_site_type_symbol
_atom_site_fract_x
_atom_site_fract_y
_atom_site_fract_z
Cu8 Cu 0.06300(2) 0.01747(2) 0.00612(2)
Cu7 Cu 0.43700(2) 0.01747(2) 0.99388(2)
O5 O 0.250000 0.61096(12) 0.000000
H12 H 0.187849 0.701303 0.002989
O8 O 0.52938(14) 0.91806(9) 0.03432(11)
O9 O 0.42273(14) 0.94755(9) 0.02255(11)
O10 O 0.41524(14) 0.51077(9) 0.40920(10)
O11 O 0.44704(17) 0.70838(11) 0.18755(12)
O12 O 0.52321(13) 0.54019(9) 0.41982(10)
C22 C 0.3755(2) 0.85072(15) 0.04399(19)
H14 H 0.343567 0.877445 0.032978
C23 C 0.4918(2) 0.82050(15) 0.0689(2)
H15 H 0.538374 0.826722 0.073371
C24 C 0.4379(2) 0.55855(14) 0.32690(15)
C25 C 0.4003(2) 0.76135(14) 0.07262(15)
C26 C 0.4144(3) 0.7394(2) 0.2276(2)
H16 H 0.449479 0.757090 0.258676
H17 H 0.388938 0.716950 0.247455
H18 H 0.383745 0.764429 0.202629
C27 C 0.4707(3) 0.77180(15) 0.0807(2)
H19 H 0.503133 0.745655 0.094141
C28 C 0.3694(2) 0.55930(14) 0.29377(15)
H20 H 0.336840 0.542919 0.309756
C29 C 0.4609(2) 0.53430(13) 0.39057(15)
C30 C 0.3488(2) 0.58415(14) 0.23711(16)
H21 H 0.302327 0.584387 0.215462
C31 C 0.3956(2) 0.60859(13) 0.21197(15)
C32 C 0.4646(2) 0.60644(16) 0.24359(17)
H22 H 0.497263 0.621234 0.226356
C33 C 0.3722(2) 0.63547(14) 0.15008(16)
C34 C 0.4856(2) 0.58185(15) 0.30191(17)
H23 H 0.532069 0.581357 0.323666
C35 C 0.3989(2) 0.68384(14) 0.14049(16)
C36 C 0.2991(2) 0.63818(12) 0.04566(14)
C37 C 0.3752(2) 0.70869(14) 0.08295(16)
C38 C 0.3535(2) 0.80119(15) 0.05391(18)
H24 H 0.306764 0.794812 0.047861
C39 C 0.3266(2) 0.68538(13) 0.03572(15)
C40 C 0.3224(2) 0.61281(13) 0.10235(15)
H26 H 0.304509 0.580546 0.108104
C41 C 0.4446(2) 0.86061(13) 0.05037(15)
C42 C 0.4688(2) 0.91326(12) 0.03493(14)
Cu2 Cu 0.43700(2) 0.48253(2) 0.49388(2)
O13 O 0.33544(14) 0.45761(12) 0.48932(15)
Cu3 Cu 0.56300(2) 0.98253(2) 0.00612(2)
Cu6 Cu 0.56300(2) 0.51747(2) 0.50612(2)
O14 O 0.47062(14) 0.41806(9) 0.46568(11)
O16 O 0.42273(14) 0.55245(9) 0.52255(11)
O19 O 0.47679(13) 0.45981(9) 0.58018(10)
H29 H 0.320139 0.431934 0.455244
H30 H 0.33483 0.441353 0.529442
Cu1 Cu 0.06300(2) 0.48253(2) 0.50612(2)
O2 O 0.07727(14) 0.94755(9) 0.97745(11)
O3 O 0.08476(14) 0.51077(9) 0.59080(10)
O4 O 0.05296(17) 0.70838(11) 0.81245(12)
O5_2 O 0.250000 0.61096(12) 1.000000
O7 O 0.16456(14) 0.45761(12) 0.51068(15)
C1 C 0.1245(2) 0.85072(15) 0.95601(19)
H1 H 0.156433 0.877445 0.967022
C2 C 0.0082(2) 0.82050(15) 0.9311(2)
C3 C 0.0621(2) 0.55855(14) 0.67310(15)
C4 C 0.0997(2) 0.76135(14) 0.92738(15)
C5 C 0.0856(3) 0.7394(2) 0.7724(2)
H3 H 0.050521 0.757090 0.741324
H4 H 0.111062 0.716950 0.752545
H5 H 0.116255 0.764429 0.797371
C6 C 0.0293(3) 0.77180(15) 0.9193(2)
C7 C 0.1306(2) 0.55930(14) 0.70623(15)
H7 H 0.163160 0.542919 0.690244
C8 C 0.0391(2) 0.53430(13) 0.60943(15)
C9 C 0.1512(2) 0.58415(14) 0.76289(16)
H8 H 0.197673 0.584387 0.784538
C10 C 0.1044(2) 0.60859(13) 0.78803(15)
C11 C 0.0354(2) 0.60644(16) 0.75641(17)
H9 H 0.002737 0.621234 0.773644
C12 C 0.1278(2) 0.63547(14) 0.84992(16)
C13 C 0.0144(2) 0.58185(15) 0.69809(17)
C14 C 0.1011(2) 0.68384(14) 0.85951(16)
C15 C 0.2009(2) 0.63818(12) 0.95434(14)
C16 C 0.1248(2) 0.70869(14) 0.91705(16)
C17 C 0.1465(2) 0.80119(15) 0.94609(18)
H11 H 0.193236 0.794812 0.952139
C18 C 0.1734(2) 0.68538(13) 0.96428(15)
C19 C 0.1776(2) 0.61281(13) 0.89765(15)
H13 H 0.195491 0.580546 0.891896
C20 C 0.0554(2) 0.86061(13) 0.94963(15)
C21 C 0.0312(2) 0.91326(12) 0.96507(14)
H25 H 0.312151 0.701303 0.997011
O15 O 0.02938(14) 0.41806(9) 0.53432(11)
O17 O 0.07727(14) 0.55245(9) 0.47745(11)
O18 O 0.02321(13) 0.45981(9) 0.41982(10)
H27 H 0.179861 0.431934 0.544756
H28 H 0.16517 0.441353 0.470558
O1 O 0.97062(14) 0.91806(9) 0.96568(11)
O6 O 0.97679(13) 0.54019(9) 0.58018(10)
H2 H 0.961626 0.826722 0.926629
H6 H 0.996867 0.745655 0.905859
H10 H 0.967931 0.581357 0.676334
Cu4 Cu 0.93700(2) 0.98253(2) 0.99388(2)
Cu5 Cu 0.93700(2) 0.51747(2) 0.49388(2)
O12_2 O 0.02321(13) 0.04019(9) 0.91982(10)
H15_2 H 0.038374 0.326722 0.573371
H19_2 H 0.003133 0.245655 0.594141
H23_2 H 0.032069 0.081357 0.823666
O16_2 O 0.92273(14) 0.05245(9) 0.02255(11)
O2_2 O 0.57727(14) 0.44755(9) 0.47745(11)
O3_2 O 0.58476(14) 0.01077(9) 0.09080(10)
O4_2 O 0.55296(17) 0.20838(11) 0.31245(12)
O5_3 O 0.750000 0.11096(12) 0.500000
O6_2 O 0.47679(13) 0.04019(9) 0.08018(10)
C1_2 C 0.6245(2) 0.35072(15) 0.45601(19)
H1_2 H 0.656433 0.377445 0.467022
C2_2 C 0.5082(2) 0.32050(15) 0.4311(2)
H2_2 H 0.461626 0.326722 0.426629
C3_2 C 0.5621(2) 0.05855(14) 0.17310(15)
C4_2 C 0.5997(2) 0.26135(14) 0.42738(15)
C5_2 C 0.5856(3) 0.2394(2) 0.2724(2)
H3_2 H 0.550521 0.257090 0.241324
H4_2 H 0.611062 0.216950 0.252545
H5_2 H 0.616255 0.264429 0.297371
C6_2 C 0.5293(3) 0.27180(15) 0.4193(2)
H6_2 H 0.496867 0.245655 0.405859
C7_2 C 0.6306(2) 0.05930(14) 0.20623(15)
H7_2 H 0.663160 0.042919 0.190244
C8_2 C 0.5391(2) 0.03430(13) 0.10943(15)
C9_2 C 0.6512(2) 0.08415(14) 0.26289(16)
H8_2 H 0.697673 0.084387 0.284538
C10_2 C 0.6044(2) 0.10859(13) 0.28803(15)
C11_2 C 0.5354(2) 0.10644(16) 0.25641(17)
H9_2 H 0.502737 0.121234 0.273644
C12_2 C 0.6278(2) 0.13547(14) 0.34992(16)
C13_2 C 0.5144(2) 0.08185(15) 0.19809(17)
H10_2 H 0.467931 0.081357 0.176334
C14_2 C 0.6011(2) 0.18384(14) 0.35951(16)
C15_2 C 0.7009(2) 0.13818(12) 0.45434(14)
C16_2 C 0.6248(2) 0.20869(14) 0.41705(16)
C17_2 C 0.6465(2) 0.30119(15) 0.44609(18)
H11_2 H 0.693236 0.294812 0.452139
C18_2 C 0.6734(2) 0.18538(13) 0.46428(15)
H12_2 H 0.687849 0.201303 0.502989
C19_2 C 0.6776(2) 0.11281(13) 0.39765(15)
H13_2 H 0.695491 0.080546 0.391896
C20_2 C 0.5554(2) 0.36061(13) 0.44963(15)
C21_2 C 0.5312(2) 0.41326(12) 0.46507(14)
O9_2 O 0.92273(14) 0.44755(9) 0.52255(11)
O10_2 O 0.91524(14) 0.01077(9) 0.90920(10)
O11_2 O 0.94704(17) 0.20838(11) 0.68755(12)
C22_2 C 0.8755(2) 0.35072(15) 0.54399(19)
H14_2 H 0.843567 0.377445 0.532978
C23_2 C 0.9918(2) 0.32050(15) 0.5689(2)
C24_2 C 0.9379(2) 0.05855(14) 0.82690(15)
C25_2 C 0.9003(2) 0.26135(14) 0.57262(15)
C26_2 C 0.9144(3) 0.2394(2) 0.7276(2)
H16_2 H 0.949479 0.257090 0.758676
H17_2 H 0.888938 0.216950 0.747455
H18_2 H 0.883745 0.264429 0.702629
C27_2 C 0.9707(3) 0.27180(15) 0.5807(2)
C28_2 C 0.8694(2) 0.05930(14) 0.79377(15)
H20_2 H 0.836840 0.042919 0.809756
C29_2 C 0.9609(2) 0.03430(13) 0.89057(15)
C30_2 C 0.8488(2) 0.08415(14) 0.73711(16)
H21_2 H 0.802327 0.084387 0.715462
C31_2 C 0.8956(2) 0.10859(13) 0.71197(15)
C32_2 C 0.9646(2) 0.10644(16) 0.74359(17)
H22_2 H 0.997263 0.121234 0.726356
C33_2 C 0.8722(2) 0.13547(14) 0.65008(16)
C34_2 C 0.9856(2) 0.08185(15) 0.80191(17)
C35_2 C 0.8989(2) 0.18384(14) 0.64049(16)
C36_2 C 0.7991(2) 0.13818(12) 0.54566(14)
C37_2 C 0.8752(2) 0.20869(14) 0.58295(16)
C38_2 C 0.8535(2) 0.30119(15) 0.55391(18)
H24_2 H 0.806764 0.294812 0.547861
C39_2 C 0.8266(2) 0.18538(13) 0.53572(15)
H25_2 H 0.812151 0.201303 0.497011
C40_2 C 0.8224(2) 0.11281(13) 0.60235(15)
H26_2 H 0.804509 0.080546 0.608104
C41_2 C 0.9446(2) 0.36061(13) 0.55037(15)
C42_2 C 0.9688(2) 0.41326(12) 0.53493(14)
O17_2 O 0.57727(14) 0.05245(9) 0.97745(11)
O19_2 O 0.97679(13) 0.95981(9) 0.08018(10)
H30_2 H 0.83483 0.941353 0.0294419
O7_2 O 0.66456(14) 0.95761(12) 0.01068(15)
O13_2 O 0.83544(14) 0.95761(12) 0.98932(15)
H27_2 H 0.679861 0.931934 0.0447562
H29_2 H 0.820139 0.931934 0.955244
O18_2 O 0.52321(13) 0.95981(9) 0.91982(10)
H28_2 H 0.66517 0.941353 0.970558
O1_2 O 0.02938(14) 0.08194(9) 0.03432(11)
H2_3 H 0.038374 0.173278 0.073371
H6_3 H 0.003133 0.254345 0.094141
H10_3 H 0.032069 0.418643 0.323666
O3_3 O 0.91524(14) 0.48923(9) 0.40920(10)
O4_3 O 0.94704(17) 0.29162(11) 0.18755(12)
O5_4 O 0.750000 0.38904(12) 0.000000
O7_3 O 0.83544(14) 0.54239(12) 0.48932(15)
C1_3 C 0.8755(2) 0.14928(15) 0.04399(19)
H1_3 H 0.843567 0.122555 0.032978
C2_3 C 0.9918(2) 0.17950(15) 0.0689(2)
C3_3 C 0.9379(2) 0.44145(14) 0.32690(15)
C4_3 C 0.9003(2) 0.23865(14) 0.07262(15)
C5_3 C 0.9144(3) 0.2606(2) 0.2276(2)
H3_3 H 0.949479 0.242910 0.258676
H4_3 H 0.888938 0.283050 0.247455
H5_3 H 0.883745 0.235571 0.202629
C6_3 C 0.9707(3) 0.22820(15) 0.0807(2)
C7_3 C 0.8694(2) 0.44070(14) 0.29377(15)
H7_3 H 0.836840 0.457081 0.309756
C8_3 C 0.9609(2) 0.46570(13) 0.39057(15)
C9_3 C 0.8488(2) 0.41585(14) 0.23711(16)
H8_3 H 0.802327 0.415613 0.215462
C10_3 C 0.8956(2) 0.39141(13) 0.21197(15)
C11_3 C 0.9646(2) 0.39356(16) 0.24359(17)
H9_3 H 0.997263 0.378766 0.226356
C12_3 C 0.8722(2) 0.36453(14) 0.15008(16)
C13_3 C 0.9856(2) 0.41815(15) 0.30191(17)
C14_3 C 0.8989(2) 0.31616(14) 0.14049(16)
C15_3 C 0.7991(2) 0.36182(12) 0.04566(14)
C16_3 C 0.8752(2) 0.29131(14) 0.08295(16)
C17_3 C 0.8535(2) 0.19881(15) 0.05391(18)
H11_3 H 0.806764 0.205188 0.047861
C18_3 C 0.8266(2) 0.31462(13) 0.03572(15)
C19_3 C 0.8224(2) 0.38719(13) 0.10235(15)
H13_3 H 0.804509 0.419454 0.108104
C20_3 C 0.9446(2) 0.13939(13) 0.05037(15)
C21_3 C 0.9688(2) 0.08674(12) 0.03493(14)
H25_3 H 0.687849 0.298697 0.002989
O15_2 O 0.97062(14) 0.58194(9) 0.46568(11)
H27_3 H 0.820139 0.568066 0.455244
H28_3 H 0.83483 0.558647 0.529442
O5_5 O 0.750000 0.38904(12) 1.000000
H12_3 H 0.812151 0.298697 0.997011
O8_2 O 0.47062(14) 0.08194(9) 0.96568(11)
O10_3 O 0.58476(14) 0.48923(9) 0.59080(10)
O11_3 O 0.55296(17) 0.29162(11) 0.81245(12)
C22_3 C 0.6245(2) 0.14928(15) 0.95601(19)
H14_3 H 0.656433 0.122555 0.967022
C23_3 C 0.5082(2) 0.17950(15) 0.9311(2)
H15_3 H 0.461626 0.173278 0.926629
C24_3 C 0.5621(2) 0.44145(14) 0.67310(15)
C25_3 C 0.5997(2) 0.23865(14) 0.92738(15)
C26_3 C 0.5856(3) 0.2606(2) 0.7724(2)
H16_3 H 0.550521 0.242910 0.741324
H17_3 H 0.611062 0.283050 0.752545
H18_3 H 0.616255 0.235571 0.797371
C27_3 C 0.5293(3) 0.22820(15) 0.9193(2)
H19_3 H 0.496867 0.254345 0.905859
C28_3 C 0.6306(2) 0.44070(14) 0.70623(15)
H20_3 H 0.663160 0.457081 0.690244
C29_3 C 0.5391(2) 0.46570(13) 0.60943(15)
C30_3 C 0.6512(2) 0.41585(14) 0.76289(16)
H21_3 H 0.697673 0.415613 0.784538
C31_3 C 0.6044(2) 0.39141(13) 0.78803(15)
C32_3 C 0.5354(2) 0.39356(16) 0.75641(17)
H22_3 H 0.502737 0.378766 0.773644
C33_3 C 0.6278(2) 0.36453(14) 0.84992(16)
C34_3 C 0.5144(2) 0.41815(15) 0.69809(17)
H23_3 H 0.467931 0.418643 0.676334
C35_3 C 0.6011(2) 0.31616(14) 0.85951(16)
C36_3 C 0.7009(2) 0.36182(12) 0.95434(14)
C37_3 C 0.6248(2) 0.29131(14) 0.91705(16)
C38_3 C 0.6465(2) 0.19881(15) 0.94609(18)
H24_3 H 0.693236 0.205188 0.952139
C39_3 C 0.6734(2) 0.31462(13) 0.96428(15)
C40_3 C 0.6776(2) 0.38719(13) 0.89765(15)
H26_3 H 0.695491 0.419454 0.891896
C41_3 C 0.5554(2) 0.13939(13) 0.94963(15)
C42_3 C 0.5312(2) 0.08674(12) 0.96507(14)
O13_3 O 0.66456(14) 0.54239(12) 0.51068(15)
O14_2 O 0.52938(14) 0.58194(9) 0.53432(11)
H29_3 H 0.679861 0.568066 0.544756
H30_3 H 0.66517 0.558647 0.470558
H28_4 H 0.33483 0.0586465 0.0294419
O7_4 O 0.33544(14) 0.04239(12) 0.98932(15)
O13_4 O 0.16456(14) 0.04239(12) 0.01068(15)
H27_4 H 0.320139 0.0680661 0.955244
H29_4 H 0.179861 0.0680661 0.0447562
H30_4 H 0.16517 0.0586465 0.970558
O3_4 O 0.41524(14) 0.98923(9) 0.90920(10)
O4_4 O 0.44704(17) 0.79162(11) 0.68755(12)
O5_6 O 0.250000 0.88904(12) 0.500000
C1_4 C 0.3755(2) 0.64928(15) 0.54399(19)
H1_4 H 0.343567 0.622555 0.532978
C2_4 C 0.4918(2) 0.67950(15) 0.5689(2)
H2_4 H 0.538374 0.673278 0.573371
C3_4 C 0.4379(2) 0.94145(14) 0.82690(15)
C4_4 C 0.4003(2) 0.73865(14) 0.57262(15)
C5_4 C 0.4144(3) 0.7606(2) 0.7276(2)
H3_4 H 0.449479 0.742910 0.758676
H4_4 H 0.388938 0.783050 0.747455
H5_4 H 0.383745 0.735571 0.702629
C6_4 C 0.4707(3) 0.72820(15) 0.5807(2)
H6_4 H 0.503133 0.754345 0.594141
C7_4 C 0.3694(2) 0.94070(14) 0.79377(15)
H7_4 H 0.336840 0.957081 0.809756
C8_4 C 0.4609(2) 0.96570(13) 0.89057(15)
C9_4 C 0.3488(2) 0.91585(14) 0.73711(16)
H8_4 H 0.302327 0.915613 0.715462
C10_4 C 0.3956(2) 0.89141(13) 0.71197(15)
C11_4 C 0.4646(2) 0.89356(16) 0.74359(17)
H9_4 H 0.497263 0.878766 0.726356
C12_4 C 0.3722(2) 0.86453(14) 0.65008(16)
C13_4 C 0.4856(2) 0.91815(15) 0.80191(17)
H10_4 H 0.532069 0.918643 0.823666
C14_4 C 0.3989(2) 0.81616(14) 0.64049(16)
C15_4 C 0.2991(2) 0.86182(12) 0.54566(14)
C16_4 C 0.3752(2) 0.79131(14) 0.58295(16)
C17_4 C 0.3535(2) 0.69881(15) 0.55391(18)
H11_4 H 0.306764 0.705188 0.547861
C18_4 C 0.3266(2) 0.81462(13) 0.53572(15)
H12_4 H 0.312151 0.798697 0.497011
C19_4 C 0.3224(2) 0.88719(13) 0.60235(15)
H13_4 H 0.304509 0.919454 0.608104
C20_4 C 0.4446(2) 0.63939(13) 0.55037(15)
C21_4 C 0.4688(2) 0.58674(12) 0.53493(14)
O10_4 O 0.08476(14) 0.98923(9) 0.09080(10)
O11_4 O 0.05296(17) 0.79162(11) 0.31245(12)
C22_4 C 0.1245(2) 0.64928(15) 0.45601(19)
H14_4 H 0.156433 0.622555 0.467022
C23_4 C 0.0082(2) 0.67950(15) 0.4311(2)
C24_4 C 0.0621(2) 0.94145(14) 0.17310(15)
C25_4 C 0.0997(2) 0.73865(14) 0.42738(15)
C26_4 C 0.0856(3) 0.7606(2) 0.2724(2)
H16_4 H 0.050521 0.742910 0.241324
H17_4 H 0.111062 0.783050 0.252545
H18_4 H 0.116255 0.735571 0.297371
C27_4 C 0.0293(3) 0.72820(15) 0.4193(2)
C28_4 C 0.1306(2) 0.94070(14) 0.20623(15)
H20_4 H 0.163160 0.957081 0.190244
C29_4 C 0.0391(2) 0.96570(13) 0.10943(15)
C30_4 C 0.1512(2) 0.91585(14) 0.26289(16)
H21_4 H 0.197673 0.915613 0.284538
C31_4 C 0.1044(2) 0.89141(13) 0.28803(15)
C32_4 C 0.0354(2) 0.89356(16) 0.25641(17)
H22_4 H 0.002737 0.878766 0.273644
C33_4 C 0.1278(2) 0.86453(14) 0.34992(16)
C34_4 C 0.0144(2) 0.91815(15) 0.19809(17)
C35_4 C 0.1011(2) 0.81616(14) 0.35951(16)
C36_4 C 0.2009(2) 0.86182(12) 0.45434(14)
C37_4 C 0.1248(2) 0.79131(14) 0.41705(16)
C38_4 C 0.1465(2) 0.69881(15) 0.44609(18)
H24_4 H 0.193236 0.705188 0.452139
C39_4 C 0.1734(2) 0.81462(13) 0.46428(15)
H25_4 H 0.187849 0.798697 0.502989
C40_4 C 0.1776(2) 0.88719(13) 0.39765(15)
H26_4 H 0.195491 0.919454 0.391896
C41_4 C 0.0554(2) 0.63939(13) 0.44963(15)
C42_4 C 0.0312(2) 0.58674(12) 0.46507(14)
H15_4 H 0.961626 0.673278 0.426629
H19_4 H 0.996867 0.754345 0.405859
H23_4 H 0.967931 0.918643 0.176334
loop_
_geom_bond_atom_site_label_1
_geom_bond_atom_site_label_2
_geom_bond_site_symmetry_1
_geom_bond_site_symmetry_2
O8 C42 1_555 1_555
O9 C42 1_555 1_555
O10 C29 1_555 1_555
O11 C26 1_555 1_555
O12 C29 1_555 1_555
C22 H14 1_555 1_555
C23 H15 1_555 1_555
C24 C28 1_555 1_555
C25 C27 1_555 1_555
C26 H16 1_555 1_555
H17 C26 1_555 1_555
H18 C26 1_555 1_555
C27 C23 1_555 1_555
H19 C27 1_555 1_555
C28 H20 1_555 1_555
C29 C24 1_555 1_555
C30 C28 1_555 1_555
H21 C30 1_555 1_555
C31 C30 1_555 1_555
C32 C31 1_555 1_555
H22 C32 1_555 1_555
C33 C31 1_555 1_555
C34 C24 1_555 1_555
H23 C34 1_555 1_555
C35 O11 1_555 1_555
C36 O5 1_555 1_555
C37 C25 1_555 1_555
C38 C22 1_555 1_555
H24 C38 1_555 1_555
C39 C36 1_555 1_555
C40 C33 1_555 1_555
H26 C40 1_555 1_555
C41 C22 1_555 1_555
C42 C41 1_555 1_555
Cu2 O10 1_555 1_555
O13 Cu2 1_555 1_555
Cu3 O8 1_555 1_555
Cu6 O12 1_555 1_555
O14 Cu2 1_555 1_555
O16 Cu2 1_555 1_555
O19 Cu2 1_555 1_555
C23 C41 1_555 1_555
C25 C38 1_555 1_555
C32 C34 1_555 1_555
C33 C35 1_555 1_555
C35 C37 1_555 1_555
C36 C40 1_555 1_555
C37 C39 1_555 1_555
Cu2 Cu6 1_555 1_555
O13 H29 1_555 1_555
O13 H30 1_555 1_555
Cu1 O3 1_555 1_555
O2 C21 1_555 1_555
O3 C8 1_555 1_555
O4 C5 1_555 1_555
O5_2 C15 1_555 1_555
O7 Cu1 1_555 1_555
C1 H1 1_555 1_555
C3 C7 1_555 1_555
C4 C6 1_555 1_555
C5 H3 1_555 1_555
H4 C5 1_555 1_555
H5 C5 1_555 1_555
C6 C2 1_555 1_555
C7 H7 1_555 1_555
C8 C3 1_555 1_555
C9 C7 1_555 1_555
H8 C9 1_555 1_555
C10 C9 1_555 1_555
C11 C10 1_555 1_555
H9 C11 1_555 1_555
C12 C10 1_555 1_555
C13 C3 1_555 1_555
C14 O4 1_555 1_555
C15 C18 1_555 1_555
C16 C4 1_555 1_555
C17 C1 1_555 1_555
H11 C17 1_555 1_555
C18 C16 1_555 1_555
C19 C12 1_555 1_555
H13 C19 1_555 1_555
C20 C1 1_555 1_555
C21 C20 1_555 1_555
O15 Cu1 1_555 1_555
O17 Cu1 1_555 1_555
O18 Cu1 1_555 1_555
C2 C20 1_555 1_555
C4 C17 1_555 1_555
C11 C13 1_555 1_555
C12 C14 1_555 1_555
C14 C16 1_555 1_555
C15 C19 1_555 1_555
O7 H27 1_555 1_555
O7 H28 1_555 1_555
Cu4 O1 1_555 1_555
O6 Cu5 1_555 1_555
O14 C21_2 1_555 1_555
O2_2 C21_2 1_555 1_555
O3_2 C8_2 1_555 1_555
O4_2 C5_2 1_555 1_555
O5_3 C15_2 1_555 1_555
O6_2 C8_2 1_555 1_555
C1_2 H1_2 1_555 1_555
C2_2 H2_2 1_555 1_555
C3_2 C7_2 1_555 1_555
C4_2 C6_2 1_555 1_555
C5_2 H3_2 1_555 1_555
H4_2 C5_2 1_555 1_555
H5_2 C5_2 1_555 1_555
C6_2 C2_2 1_555 1_555
H6_2 C6_2 1_555 1_555
C7_2 H7_2 1_555 1_555
C8_2 C3_2 1_555 1_555
C9_2 C7_2 1_555 1_555
H8_2 C9_2 1_555 1_555
C10_2 C9_2 1_555 1_555
C11_2 C10_2 1_555 1_555
H9_2 C11_2 1_555 1_555
C12_2 C10_2 1_555 1_555
C13_2 C3_2 1_555 1_555
H10_2 C13_2 1_555 1_555
C14_2 O4_2 1_555 1_555
C15_2 C18_2 1_555 1_555
C16_2 C4_2 1_555 1_555
C17_2 C1_2 1_555 1_555
H11_2 C17_2 1_555 1_555
C18_2 C16_2 1_555 1_555
H12_2 C18_2 1_555 1_555
C19_2 C12_2 1_555 1_555
H13_2 C19_2 1_555 1_555
C20_2 C1_2 1_555 1_555
C21_2 C20_2 1_555 1_555
O9_2 C42_2 1_555 1_555
O10_2 C29_2 1_555 1_555
O11_2 C26_2 1_555 1_555
C22_2 H14_2 1_555 1_555
C24_2 C28_2 1_555 1_555
C25_2 C27_2 1_555 1_555
C26_2 H16_2 1_555 1_555
H17_2 C26_2 1_555 1_555
H18_2 C26_2 1_555 1_555
C27_2 C23_2 1_555 1_555
C28_2 H20_2 1_555 1_555
C29_2 C24_2 1_555 1_555
C30_2 C28_2 1_555 1_555
H21_2 C30_2 1_555 1_555
C31_2 C30_2 1_555 1_555
C32_2 C31_2 1_555 1_555
H22_2 C32_2 1_555 1_555
C33_2 C31_2 1_555 1_555
C34_2 C24_2 1_555 1_555
C35_2 O11_2 1_555 1_555
C36_2 O5_3 1_555 1_555
C37_2 C25_2 1_555 1_555
C38_2 C22_2 1_555 1_555
H24_2 C38_2 1_555 1_555
C39_2 C36_2 1_555 1_555
H25_2 C39_2 1_555 1_555
C40_2 C33_2 1_555 1_555
H26_2 C40_2 1_555 1_555
C41_2 C22_2 1_555 1_555
C42_2 C41_2 1_555 1_555
Cu5 O9_2 1_555 1_555
Cu6 O2_2 1_555 1_555
C2_2 C20_2 1_555 1_555
C4_2 C17_2 1_555 1_555
C11_2 C13_2 1_555 1_555
C12_2 C14_2 1_555 1_555
C14_2 C16_2 1_555 1_555
C15_2 C19_2 1_555 1_555
C23_2 C41_2 1_555 1_555
C25_2 C38_2 1_555 1_555
C32_2 C34_2 1_555 1_555
C33_2 C35_2 1_555 1_555
C35_2 C37_2 1_555 1_555
C36_2 C40_2 1_555 1_555
C37_2 C39_2 1_555 1_555
O7_2 Cu3 1_555 1_555
O13_2 Cu4 1_555 1_555
O7_2 H27_2 1_555 1_555
O13_2 H29_2 1_555 1_555
Cu8 O1_2 1_555 1_555
Cu5 O3_3 1_555 1_555
O16_2 C21_3 1_555 1_555
O3_3 C8_3 1_555 1_555
O4_3 C5_3 1_555 1_555
O5_4 C15_3 1_555 1_555
O7_3 Cu5 1_555 1_555
C1_3 H1_3 1_555 1_555
C3_3 C7_3 1_555 1_555
C4_3 C6_3 1_555 1_555
C5_3 H3_3 1_555 1_555
H4_3 C5_3 1_555 1_555
H5_3 C5_3 1_555 1_555
C6_3 C2_3 1_555 1_555
C7_3 H7_3 1_555 1_555
C8_3 C3_3 1_555 1_555
C9_3 C7_3 1_555 1_555
H8_3 C9_3 1_555 1_555
C10_3 C9_3 1_555 1_555
C11_3 C10_3 1_555 1_555
H9_3 C11_3 1_555 1_555
C12_3 C10_3 1_555 1_555
C13_3 C3_3 1_555 1_555
C14_3 O4_3 1_555 1_555
C15_3 C18_3 1_555 1_555
C16_3 C4_3 1_555 1_555
C17_3 C1_3 1_555 1_555
H11_3 C17_3 1_555 1_555
C18_3 C16_3 1_555 1_555
C19_3 C12_3 1_555 1_555
H13_3 C19_3 1_555 1_555
C20_3 C1_3 1_555 1_555
C21_3 C20_3 1_555 1_555
O15_2 Cu5 1_555 1_555
C2_3 C20_3 1_555 1_555
C4_3 C17_3 1_555 1_555
C11_3 C13_3 1_555 1_555
C12_3 C14_3 1_555 1_555
C14_3 C16_3 1_555 1_555
C15_3 C19_3 1_555 1_555
O7_3 H27_3 1_555 1_555
O7_3 H28_3 1_555 1_555
O8_2 C42_3 1_555 1_555
O17_2 C42_3 1_555 1_555
O10_3 C29_3 1_555 1_555
O11_3 C26_3 1_555 1_555
O19 C29_3 1_555 1_555
C22_3 H14_3 1_555 1_555
C23_3 H15_3 1_555 1_555
C24_3 C28_3 1_555 1_555
C25_3 C27_3 1_555 1_555
C26_3 H16_3 1_555 1_555
H17_3 C26_3 1_555 1_555
H18_3 C26_3 1_555 1_555
C27_3 C23_3 1_555 1_555
H19_3 C27_3 1_555 1_555
C28_3 H20_3 1_555 1_555
C29_3 C24_3 1_555 1_555
C30_3 C28_3 1_555 1_555
H21_3 C30_3 1_555 1_555
C31_3 C30_3 1_555 1_555
C32_3 C31_3 1_555 1_555
H22_3 C32_3 1_555 1_555
C33_3 C31_3 1_555 1_555
C34_3 C24_3 1_555 1_555
H23_3 C34_3 1_555 1_555
C35_3 O11_3 1_555 1_555
C36_3 O5_5 1_555 1_555
C37_3 C25_3 1_555 1_555
C38_3 C22_3 1_555 1_555
H24_3 C38_3 1_555 1_555
C39_3 C36_3 1_555 1_555
C40_3 C33_3 1_555 1_555
H26_3 C40_3 1_555 1_555
C41_3 C22_3 1_555 1_555
C42_3 C41_3 1_555 1_555
Cu6 O10_3 1_555 1_555
O13_3 Cu6 1_555 1_555
Cu7 O8_2 1_555 1_555
O14_2 Cu6 1_555 1_555
C23_3 C41_3 1_555 1_555
C25_3 C38_3 1_555 1_555
C32_3 C34_3 1_555 1_555
C33_3 C35_3 1_555 1_555
C35_3 C37_3 1_555 1_555
C36_3 C40_3 1_555 1_555
C37_3 C39_3 1_555 1_555
O13_3 H29_3 1_555 1_555
O13_3 H30_3 1_555 1_555
O7_4 Cu7 1_555 1_555
O13_4 Cu8 1_555 1_555
O7_4 H27_4 1_555 1_555
O13_4 H29_4 1_555 1_555
O14_2 C21_4 1_555 1_555
O16 C21_4 1_555 1_555
O3_4 C8_4 1_555 1_555
O4_4 C5_4 1_555 1_555
O5_6 C15_4 1_555 1_555
O18_2 C8_4 1_555 1_555
C1_4 H1_4 1_555 1_555
C2_4 H2_4 1_555 1_555
C3_4 C7_4 1_555 1_555
C4_4 C6_4 1_555 1_555
C5_4 H3_4 1_555 1_555
H4_4 C5_4 1_555 1_555
H5_4 C5_4 1_555 1_555
C6_4 C2_4 1_555 1_555
H6_4 C6_4 1_555 1_555
C7_4 H7_4 1_555 1_555
C8_4 C3_4 1_555 1_555
C9_4 C7_4 1_555 1_555
H8_4 C9_4 1_555 1_555
C10_4 C9_4 1_555 1_555
C11_4 C10_4 1_555 1_555
H9_4 C11_4 1_555 1_555
C12_4 C10_4 1_555 1_555
C13_4 C3_4 1_555 1_555
H10_4 C13_4 1_555 1_555
C14_4 O4_4 1_555 1_555
C15_4 C18_4 1_555 1_555
C16_4 C4_4 1_555 1_555
C17_4 C1_4 1_555 1_555
H11_4 C17_4 1_555 1_555
C18_4 C16_4 1_555 1_555
H12_4 C18_4 1_555 1_555
C19_4 C12_4 1_555 1_555
H13_4 C19_4 1_555 1_555
C20_4 C1_4 1_555 1_555
C21_4 C20_4 1_555 1_555
O17 C42_4 1_555 1_555
O10_4 C29_4 1_555 1_555
O11_4 C26_4 1_555 1_555
C22_4 H14_4 1_555 1_555
C24_4 C28_4 1_555 1_555
C25_4 C27_4 1_555 1_555
C26_4 H16_4 1_555 1_555
H17_4 C26_4 1_555 1_555
H18_4 C26_4 1_555 1_555
C27_4 C23_4 1_555 1_555
C28_4 H20_4 1_555 1_555
C29_4 C24_4 1_555 1_555
C30_4 C28_4 1_555 1_555
H21_4 C30_4 1_555 1_555
C31_4 C30_4 1_555 1_555
C32_4 C31_4 1_555 1_555
H22_4 C32_4 1_555 1_555
C33_4 C31_4 1_555 1_555
C34_4 C24_4 1_555 1_555
C35_4 O11_4 1_555 1_555
C36_4 O5_6 1_555 1_555
C37_4 C25_4 1_555 1_555
C38_4 C22_4 1_555 1_555
H24_4 C38_4 1_555 1_555
C39_4 C36_4 1_555 1_555
H25_4 C39_4 1_555 1_555
C40_4 C33_4 1_555 1_555
H26_4 C40_4 1_555 1_555
C41_4 C22_4 1_555 1_555
C42_4 C41_4 1_555 1_555
C2_4 C20_4 1_555 1_555
C4_4 C17_4 1_555 1_555
C11_4 C13_4 1_555 1_555
C12_4 C14_4 1_555 1_555
C14_4 C16_4 1_555 1_555
C15_4 C19_4 1_555 1_555
C23_4 C41_4 1_555 1_555
C25_4 C38_4 1_555 1_555
C32_4 C34_4 1_555 1_555
C33_4 C35_4 1_555 1_555
C35_4 C37_4 1_555 1_555
C36_4 C40_4 1_555 1_555
C37_4 C39_4 1_555 1_555

#END
