
###############################################################################
#
# This file contains modified crystal structure data generated from the
# MOF subset of the Cambridge Structural Database (CSD) v543 
# hosted by the Cambridge Crystallographic Data Centre (CCDC).
#
# This work is licensed under the Creative Commons
# Attribution-NonCommercial-ShareAlike 4.0 International License.
# To view a copy of this license, visit
# http://creativecommons.org/licenses/by-nc-sa/4.0/
# or send a letter to
# Creative Commons, PO Box 1866, Mountain View, CA 94042, USA.
#
# CIF created using the CSD Python API on 29 September 2022
# The structure has been converted into the P1 space group
# The structure has a 3D framework
# The original CSD entry TUHFEK is in the monoclinic crystal system
# The framework has been calculated to contain at least 10.0% void space
# The void calculation uses a probe of radius 1.32A, grid spacing 0.4
#
###############################################################################

data_TUHFEK
_chemical_formula_moiety         '(C184 H136 Cu8 N8 O30)n'
_symmetry_cell_setting           triclinic
_symmetry_space_group_name_H-M   'P 1'
_symmetry_Int_Tables_number      1
_space_group_name_Hall           'P 1'
loop_
_symmetry_equiv_pos_site_id
_symmetry_equiv_pos_as_xyz
1 x,y,z
_cell_length_a                   19.079(4)
_cell_length_b                   19.539(4)
_cell_length_c                   23.358(10)
_cell_angle_alpha                90
_cell_angle_beta                 104.82(3)
_cell_angle_gamma                90
_cell_volume                     8417.84
loop_
_atom_site_label
_atom_site_type_symbol
_atom_site_fract_x
_atom_site_fract_y
_atom_site_fract_z
Cu3 Cu 0.56823(2) 0.01701(3) 0.00125(2)
O5 O 0.07464(17) 0.41644(17) 0.50497(13)
C1 C 0.0451(2) 0.3005(2) 0.49325(18)
C3 C 0.1941(3) 0.0091(2) 0.46285(17)
C4 C 0.1655(2) 0.0663(2) 0.48429(16)
H1 H 0.182392 0.078609 0.523891
C8 C 0.1160(2) 0.0272(2) 0.36655(16)
C9 C 0.1363(3) 0.2151(3) 0.50135(19)
H5 H 0.183881 0.201044 0.517352
C10 C 0.0871(3) 0.1693(2) 0.46658(18)
C11 C 0.0247(3) 0.3736(2) 0.50031(17)
C12 C 0.0936(2) 0.0123(2) 0.30213(16)
C13 C 0.1164(3) 0.2797(3) 0.5124(2)
H6 H 0.151300 0.310121 0.533091
C15 C 0.1124(2) 0.1045(2) 0.44725(17)
C16 C 0.0871(2) 0.0838(2) 0.38856(17)
H8 H 0.049911 0.108322 0.363449
C18 C 0.0025(2) 0.0147(2) 0.20884(17)
C22 C 0.0221(2) 0.0219(2) 0.26983(17)
C23 C 0.0146(3) 0.1895(3) 0.4482(2)
O6 O 0.52970(15) 0.01364(16) 0.91477(11)
O8 O 0.54042(17) 0.38635(16) 0.50058(14)
O9 O 0.42536(17) 0.41644(17) 0.49503(13)
C24 C 0.4549(2) 0.3005(2) 0.50675(18)
C26 C 0.3059(3) 0.0091(2) 0.53715(17)
C27 C 0.3345(2) 0.0663(2) 0.51571(16)
H18 H 0.317608 0.078609 0.476109
C30 C 0.3840(2) 0.0272(2) 0.63345(16)
C31 C 0.3637(3) 0.2151(3) 0.49865(19)
H20 H 0.316119 0.201044 0.482648
C32 C 0.4129(3) 0.1693(2) 0.53342(18)
C33 C 0.4753(3) 0.3736(2) 0.49969(17)
C34 C 0.4064(2) 0.0123(2) 0.69787(16)
C35 C 0.3836(3) 0.2797(3) 0.4876(2)
H21 H 0.348700 0.310121 0.466909
C37 C 0.3876(2) 0.1045(2) 0.55275(17)
C38 C 0.4129(2) 0.0838(2) 0.61144(17)
H23 H 0.450089 0.108322 0.636551
C39 C 0.4975(2) 0.0147(2) 0.79116(17)
H24 H 0.545704 0.020060 0.811923
C40 C 0.5076(3) 0.2544(3) 0.5386(2)
H25 H 0.556107 0.267058 0.550595
C42 C 0.4779(2) 0.0219(2) 0.73017(17)
H27 H 0.512929 0.033366 0.710517
C43 C 0.4854(3) 0.1895(3) 0.5518(2)
H28 H 0.519650 0.159021 0.573355
Cu4 Cu 0.43177(2) 0.51701(3) 0.49875(2)
Cu5 Cu 0.06823(2) 0.51701(3) 0.50125(2)
Cu9 Cu 0.56823(2) 0.48299(3) 0.50125(2)
O2 O 0.08331(16) 0.98006(18) 0.08742(11)
O3 O 0.250000 0.9709(2) 0.500000
C2 C 0.0343(2) 0.9977(2) 0.11218(16)
C5 C 0.1707(2) 0.9894(2) 0.40421(17)
H2 H 0.191122 0.951760 0.390206
C6 C 0.0543(2) 0.9996(2) 0.17841(16)
C14 C 0.1251(2) 0.9892(3) 0.20965(17)
H7 H 0.160047 0.977674 0.189868
C20 C 0.1443(3) 0.9960(2) 0.27138(18)
H13 H 0.192369 0.989418 0.292182
O7 O 0.41669(16) 0.98006(18) 0.91258(11)
C25 C 0.4657(2) 0.9977(2) 0.88782(16)
C28 C 0.3293(2) 0.9894(2) 0.59579(17)
H19 H 0.308878 0.951760 0.609794
C29 C 0.4457(2) 0.9996(2) 0.82159(16)
C36 C 0.3749(2) 0.9892(3) 0.79035(17)
H22 H 0.339953 0.977674 0.810132
C41 C 0.3557(3) 0.9960(2) 0.72862(18)
H26 H 0.307631 0.989418 0.707818
Cu6 Cu 0.06823(2) 0.98299(3) 0.00125(2)
Cu8 Cu 0.43177(2) 0.98299(3) 0.99875(2)
O1 O 0.97030(15) 0.01364(16) 0.08523(11)
O4 O 0.95958(17) 0.38635(16) 0.49942(14)
C7 C 0.7904(2) 0.0953(2) 0.0017(2)
H4 H 0.816547 0.117360 0.038128
H11 H 0.954296 0.020060 0.188077
C19 C 0.9924(3) 0.2544(3) 0.4614(2)
H12 H 0.943893 0.267058 0.449405
H14 H 0.837218 0.008058 0.087994
H16 H 0.987071 0.033366 0.289483
H17 H 0.980350 0.159021 0.426645
N2 N 0.68156(17) 0.02447(17) 0.00016(12)
H29 H 0.701016 0.121388 0.031195
H32 H 0.722902 0.016081 0.089184
Cu10 Cu 0.93177(2) 0.48299(3) 0.49875(2)
O12 O 0.58331(16) 0.01994(18) 0.08742(11)
O13 O 0.54042(17) 0.11365(16) 0.00058(14)
Cu1 Cu 0.93177(2) 0.01701(3) 0.99875(2)
N1 N 0.81844(17) 0.02447(17) 0.99984(12)
H3 H 0.798984 0.121388 0.968805
H10 H 0.777098 0.016081 0.910816
C44 C 0.7096(2) 0.0953(2) 0.9983(2)
H30 H 0.683453 0.117360 0.961872
H33 H 0.662782 0.008058 0.912006
O11 O 0.91669(16) 0.01994(18) 0.91258(11)
O14 O 0.95958(17) 0.11365(16) 0.99942(14)
C21 C 0.8070(2) 0.9877(3) 0.05226(18)
H15 H 0.821545 0.940280 0.050858
C45 C 0.7267(2) 0.9907(3) 0.05442(19)
H31 H 0.708973 0.944692 0.057410
O15 O 0.57464(17) 0.91644(17) 0.00497(13)
C17 C 0.7733(2) 0.9907(3) 0.94558(19)
H9 H 0.791027 0.944692 0.942590
C46 C 0.6930(2) 0.9877(3) 0.94774(18)
H34 H 0.678455 0.940280 0.949142
O16 O 0.92536(17) 0.91644(17) 0.99503(13)
O6_2 O 0.02970(15) 0.51364(16) 0.41477(11)
O8_2 O 0.04042(17) 0.88635(16) 0.00058(14)
H24_2 H 0.045704 0.520060 0.311923
C40_2 C 0.0076(3) 0.7544(3) 0.0386(2)
H25_2 H 0.056107 0.767058 0.050595
H27_2 H 0.012929 0.533366 0.210517
H28_2 H 0.019650 0.659021 0.073355
O3_2 O 0.750000 0.4709(2) 0.000000
H1_2 H 0.682392 0.578609 0.023891
C9_2 C 0.6363(3) 0.7151(3) 0.00135(19)
H5_2 H 0.683881 0.701044 0.017352
C11_2 C 0.5247(3) 0.8736(2) 0.00031(17)
C13_2 C 0.6164(3) 0.7797(3) 0.0124(2)
H6_2 H 0.651300 0.810121 0.033091
O7_2 O 0.91669(16) 0.48006(18) 0.41258(11)
C24_2 C 0.9549(2) 0.8005(2) 0.00675(18)
C25_2 C 0.9657(2) 0.4977(2) 0.38782(16)
C26_2 C 0.8059(3) 0.5091(2) 0.03715(17)
C27_2 C 0.8345(2) 0.5663(2) 0.01571(16)
C28_2 C 0.8293(2) 0.4894(2) 0.09579(17)
H19_2 H 0.808878 0.451760 0.109794
C29_2 C 0.9457(2) 0.4996(2) 0.32159(16)
C30_2 C 0.8840(2) 0.5272(2) 0.13345(16)
C32_2 C 0.9129(3) 0.6693(2) 0.03342(18)
C34_2 C 0.9064(2) 0.5123(2) 0.19787(16)
C36_2 C 0.8749(2) 0.4892(3) 0.29035(17)
H22_2 H 0.839953 0.477674 0.310132
C37_2 C 0.8876(2) 0.6045(2) 0.05275(17)
C38_2 C 0.9129(2) 0.5838(2) 0.11144(17)
H23_2 H 0.950089 0.608322 0.136551
C39_2 C 0.9975(2) 0.5147(2) 0.29116(17)
C41_2 C 0.8557(3) 0.4960(2) 0.22862(18)
H26_2 H 0.807631 0.489418 0.207818
C42_2 C 0.9779(2) 0.5219(2) 0.23017(17)
C43_2 C 0.9854(3) 0.6895(3) 0.0518(2)
O1_2 O 0.47030(15) 0.51364(16) 0.58523(11)
O2_2 O 0.58331(16) 0.48006(18) 0.58742(11)
O3_3 O 0.750000 0.4709(2) 1.000000
O4_2 O 0.45958(17) 0.88635(16) 0.99942(14)
N1_2 N 0.31844(17) 0.52447(17) 0.49984(12)
C1_2 C 0.5451(2) 0.8005(2) 0.99325(18)
C2_2 C 0.5343(2) 0.4977(2) 0.61218(16)
C3_2 C 0.6941(3) 0.5091(2) 0.96285(17)
C4_2 C 0.6655(2) 0.5663(2) 0.98429(16)
C5_2 C 0.6707(2) 0.4894(2) 0.90421(17)
H2_2 H 0.691122 0.451760 0.890206
C6_2 C 0.5543(2) 0.4996(2) 0.67841(16)
C7_2 C 0.2904(2) 0.5953(2) 0.5017(2)
H3_2 H 0.298984 0.621388 0.468805
H4_2 H 0.316547 0.617360 0.538128
C8_2 C 0.6160(2) 0.5272(2) 0.86655(16)
C10_2 C 0.5871(3) 0.6693(2) 0.96658(18)
C12_2 C 0.5936(2) 0.5123(2) 0.80213(16)
C14_2 C 0.6251(2) 0.4892(3) 0.70965(17)
H7_2 H 0.660047 0.477674 0.689868
C15_2 C 0.6124(2) 0.6045(2) 0.94725(17)
C16_2 C 0.5871(2) 0.5838(2) 0.88856(17)
H8_2 H 0.549911 0.608322 0.863449
C17_2 C 0.2733(2) 0.4907(3) 0.44558(19)
H9_2 H 0.291027 0.444692 0.442590
H10_2 H 0.277098 0.516081 0.410816
C18_2 C 0.5025(2) 0.5147(2) 0.70884(17)
H11_2 H 0.454296 0.520060 0.688077
C19_2 C 0.4924(3) 0.7544(3) 0.9614(2)
H12_2 H 0.443893 0.767058 0.949405
C20_2 C 0.6443(3) 0.4960(2) 0.77138(18)
H13_2 H 0.692369 0.489418 0.792182
C21_2 C 0.3070(2) 0.4877(3) 0.55226(18)
H14_2 H 0.337218 0.508058 0.587994
H15_2 H 0.321545 0.440280 0.550858
C22_2 C 0.5221(2) 0.5219(2) 0.76983(17)
H16_2 H 0.487071 0.533366 0.789483
C23_2 C 0.5146(3) 0.6895(3) 0.9482(2)
H17_2 H 0.480350 0.659021 0.926645
H18_2 H 0.817608 0.578609 0.976109
C31_2 C 0.8637(3) 0.7151(3) 0.99865(19)
H20_2 H 0.816119 0.701044 0.982648
C33_2 C 0.9753(3) 0.8736(2) 0.99969(17)
C35_2 C 0.8836(3) 0.7797(3) 0.9876(2)
H21_2 H 0.848700 0.810121 0.966909
N2_2 N 0.18156(17) 0.52447(17) 0.50016(12)
C44_2 C 0.2096(2) 0.5953(2) 0.4983(2)
H29_2 H 0.201016 0.621388 0.531195
H30_2 H 0.183453 0.617360 0.461872
C45_2 C 0.2267(2) 0.4907(3) 0.55442(19)
H31_2 H 0.208973 0.444692 0.557410
H32_2 H 0.222902 0.516081 0.589184
C46_2 C 0.1930(2) 0.4877(3) 0.44774(18)
H33_2 H 0.162782 0.508058 0.412006
H34_2 H 0.178455 0.440280 0.449142
O11_2 O 0.41669(16) 0.51994(18) 0.41258(11)
O12_2 O 0.08331(16) 0.51994(18) 0.58742(11)
O13_2 O 0.04042(17) 0.61365(16) 0.50058(14)
O14_2 O 0.45958(17) 0.61365(16) 0.49942(14)
C17_3 C 0.2267(2) 0.0093(3) 0.05442(19)
H9_3 H 0.208973 0.055308 0.057410
C46_3 C 0.3070(2) 0.0123(3) 0.05226(18)
H34_3 H 0.321545 0.059720 0.050858
O16_2 O 0.07464(17) 0.08356(17) 0.00497(13)
C21_3 C 0.1930(2) 0.0123(3) 0.94774(18)
H15_3 H 0.178455 0.059720 0.949142
C45_3 C 0.2733(2) 0.0093(3) 0.94558(19)
H31_3 H 0.291027 0.055308 0.942590
O15_2 O 0.42536(17) 0.08356(17) 0.99503(13)
N1_3 N 0.18156(17) 0.97553(17) 0.00016(12)
H3_3 H 0.201016 0.878612 0.031195
H10_3 H 0.222902 0.983919 0.089184
C44_3 C 0.2904(2) 0.9047(2) 0.0017(2)
H30_3 H 0.316547 0.882640 0.038128
H33_3 H 0.337218 0.991942 0.087994
O10 O 0.47030(15) 0.98636(16) 0.08523(11)
O1_3 O 0.02970(15) 0.98636(16) 0.91477(11)
C7_3 C 0.2096(2) 0.9047(2) 0.9983(2)
H4_3 H 0.183453 0.882640 0.961872
H11_3 H 0.045704 0.979940 0.811923
C19_3 C 0.0076(3) 0.7456(3) 0.5386(2)
H12_3 H 0.056107 0.732942 0.550595
H14_3 H 0.162782 0.991942 0.912006
H16_3 H 0.012929 0.966634 0.710517
H17_3 H 0.019650 0.840979 0.573355
N2_3 N 0.31844(17) 0.97553(17) 0.99984(12)
H29_3 H 0.298984 0.878612 0.968805
H32_3 H 0.277098 0.983919 0.910816
O3_4 O 0.750000 0.0291(2) 0.500000
C2_3 C 0.9657(2) 0.0023(2) 0.88782(16)
C5_3 C 0.8293(2) 0.0106(2) 0.59579(17)
H2_3 H 0.808878 0.048240 0.609794
C6_3 C 0.9457(2) 0.0004(2) 0.82159(16)
C14_3 C 0.8749(2) 0.0108(3) 0.79035(17)
H7_3 H 0.839953 0.022326 0.810132
C20_3 C 0.8557(3) 0.0040(2) 0.72862(18)
H13_3 H 0.807631 0.010582 0.707818
C25_3 C 0.5343(2) 0.0023(2) 0.11218(16)
C28_3 C 0.6707(2) 0.0106(2) 0.40421(17)
H19_3 H 0.691122 0.048240 0.390206
C29_3 C 0.5543(2) 0.0004(2) 0.17841(16)
C36_3 C 0.6251(2) 0.0108(3) 0.20965(17)
H22_3 H 0.660047 0.022326 0.189868
C41_3 C 0.6443(3) 0.0040(2) 0.27138(18)
H26_3 H 0.692369 0.010582 0.292182
O5_2 O 0.92536(17) 0.58356(17) 0.49503(13)
C1_3 C 0.9549(2) 0.6995(2) 0.50675(18)
C3_3 C 0.8059(3) 0.9909(2) 0.53715(17)
C4_3 C 0.8345(2) 0.9337(2) 0.51571(16)
H1_3 H 0.817608 0.921391 0.476109
C8_3 C 0.8840(2) 0.9728(2) 0.63345(16)
C9_3 C 0.8637(3) 0.7849(3) 0.49865(19)
H5_3 H 0.816119 0.798956 0.482648
C10_3 C 0.9129(3) 0.8307(2) 0.53342(18)
C11_3 C 0.9753(3) 0.6264(2) 0.49969(17)
C12_3 C 0.9064(2) 0.9877(2) 0.69787(16)
C13_3 C 0.8836(3) 0.7203(3) 0.4876(2)
H6_3 H 0.848700 0.689879 0.466909
C15_3 C 0.8876(2) 0.8955(2) 0.55275(17)
C16_3 C 0.9129(2) 0.9162(2) 0.61144(17)
H8_3 H 0.950089 0.891678 0.636551
C18_3 C 0.9975(2) 0.9853(2) 0.79116(17)
C22_3 C 0.9779(2) 0.9781(2) 0.73017(17)
C23_3 C 0.9854(3) 0.8105(3) 0.5518(2)
O9_2 O 0.57464(17) 0.58356(17) 0.50497(13)
C24_3 C 0.5451(2) 0.6995(2) 0.49325(18)
C26_3 C 0.6941(3) 0.9909(2) 0.46285(17)
C27_3 C 0.6655(2) 0.9337(2) 0.48429(16)
H18_3 H 0.682392 0.921391 0.523891
C30_3 C 0.6160(2) 0.9728(2) 0.36655(16)
C31_3 C 0.6363(3) 0.7849(3) 0.50135(19)
H20_3 H 0.683881 0.798956 0.517352
C32_3 C 0.5871(3) 0.8307(2) 0.46658(18)
C33_3 C 0.5247(3) 0.6264(2) 0.50031(17)
C34_3 C 0.5936(2) 0.9877(2) 0.30213(16)
C35_3 C 0.6164(3) 0.7203(3) 0.5124(2)
H21_3 H 0.651300 0.689879 0.533091
C37_3 C 0.6124(2) 0.8955(2) 0.44725(17)
C38_3 C 0.5871(2) 0.9162(2) 0.38856(17)
H23_3 H 0.549911 0.891678 0.363449
C39_3 C 0.5025(2) 0.9853(2) 0.20884(17)
H24_3 H 0.454296 0.979940 0.188077
C40_3 C 0.4924(3) 0.7456(3) 0.4614(2)
H25_3 H 0.443893 0.732942 0.449405
C42_3 C 0.5221(2) 0.9781(2) 0.26983(17)
H27_3 H 0.487071 0.966634 0.289483
C43_3 C 0.5146(3) 0.8105(3) 0.4482(2)
H28_3 H 0.480350 0.840979 0.426645
O1_4 O 0.52970(15) 0.48636(16) 0.41477(11)
O3_5 O 0.250000 0.5291(2) -0.000000
N1_4 N 0.68156(17) 0.47553(17) 0.50016(12)
C1_4 C 0.4549(2) 0.1995(2) 0.00675(18)
C2_4 C 0.4657(2) 0.5023(2) 0.38782(16)
C3_4 C 0.3059(3) 0.4909(2) 0.03715(17)
C4_4 C 0.3345(2) 0.4337(2) 0.01571(16)
C5_4 C 0.3293(2) 0.5106(2) 0.09579(17)
H2_4 H 0.308878 0.548240 0.109794
C6_4 C 0.4457(2) 0.5004(2) 0.32159(16)
C7_4 C 0.7096(2) 0.4047(2) 0.4983(2)
H3_4 H 0.701016 0.378612 0.531195
H4_4 H 0.683453 0.382640 0.461872
C8_4 C 0.3840(2) 0.4728(2) 0.13345(16)
C10_4 C 0.4129(3) 0.3307(2) 0.03342(18)
C12_4 C 0.4064(2) 0.4877(2) 0.19787(16)
C14_4 C 0.3749(2) 0.5108(3) 0.29035(17)
H7_4 H 0.339953 0.522326 0.310132
C15_4 C 0.3876(2) 0.3955(2) 0.05275(17)
C16_4 C 0.4129(2) 0.4162(2) 0.11144(17)
H8_4 H 0.450089 0.391678 0.136551
C17_4 C 0.7267(2) 0.5093(3) 0.55442(19)
H9_4 H 0.708973 0.555308 0.557410
H10_4 H 0.722902 0.483919 0.589184
C18_4 C 0.4975(2) 0.4853(2) 0.29116(17)
H11_4 H 0.545704 0.479940 0.311923
C19_4 C 0.5076(3) 0.2456(3) 0.0386(2)
H12_4 H 0.556107 0.232942 0.050595
C20_4 C 0.3557(3) 0.5040(2) 0.22862(18)
H13_4 H 0.307631 0.510582 0.207818
C21_4 C 0.6930(2) 0.5123(3) 0.44774(18)
H14_4 H 0.662782 0.491942 0.412006
H15_4 H 0.678455 0.559720 0.449142
C22_4 C 0.4779(2) 0.4781(2) 0.23017(17)
H16_4 H 0.512929 0.466634 0.210517
C23_4 C 0.4854(3) 0.3105(3) 0.0518(2)
H17_4 H 0.519650 0.340979 0.073355
H18_4 H 0.182392 0.421391 0.023891
C31_4 C 0.1363(3) 0.2849(3) 0.00135(19)
H20_4 H 0.183881 0.298956 0.017352
C33_4 C 0.0247(3) 0.1264(2) 0.00031(17)
C35_4 C 0.1164(3) 0.2203(3) 0.0124(2)
H21_4 H 0.151300 0.189879 0.033091
N2_4 N 0.81844(17) 0.47553(17) 0.49984(12)
C44_4 C 0.7904(2) 0.4047(2) 0.5017(2)
H29_4 H 0.798984 0.378612 0.468805
H30_4 H 0.816547 0.382640 0.538128
C45_4 C 0.7733(2) 0.5093(3) 0.44558(19)
H31_4 H 0.791027 0.555308 0.442590
H32_4 H 0.777098 0.483919 0.410816
C46_4 C 0.8070(2) 0.5123(3) 0.55226(18)
H33_4 H 0.837218 0.491942 0.587994
H34_4 H 0.821545 0.559720 0.550858
O10_2 O 0.97030(15) 0.48636(16) 0.58523(11)
O3_6 O 0.250000 0.5291(2) 1.000000
H1_4 H 0.317608 0.421391 0.976109
C9_4 C 0.3637(3) 0.2849(3) 0.99865(19)
H5_4 H 0.316119 0.298956 0.982648
C11_4 C 0.4753(3) 0.1264(2) 0.99969(17)
C13_4 C 0.3836(3) 0.2203(3) 0.9876(2)
H6_4 H 0.348700 0.189879 0.966909
C24_4 C 0.0451(2) 0.1995(2) 0.99325(18)
C25_4 C 0.0343(2) 0.5023(2) 0.61218(16)
C26_4 C 0.1941(3) 0.4909(2) 0.96285(17)
C27_4 C 0.1655(2) 0.4337(2) 0.98429(16)
C28_4 C 0.1707(2) 0.5106(2) 0.90421(17)
H19_4 H 0.191122 0.548240 0.890206
C29_4 C 0.0543(2) 0.5004(2) 0.67841(16)
C30_4 C 0.1160(2) 0.4728(2) 0.86655(16)
C32_4 C 0.0871(3) 0.3307(2) 0.96658(18)
C34_4 C 0.0936(2) 0.4877(2) 0.80213(16)
C36_4 C 0.1251(2) 0.5108(3) 0.70965(17)
H22_4 H 0.160047 0.522326 0.689868
C37_4 C 0.1124(2) 0.3955(2) 0.94725(17)
C38_4 C 0.0871(2) 0.4162(2) 0.88856(17)
H23_4 H 0.049911 0.391678 0.863449
C39_4 C 0.0025(2) 0.4853(2) 0.70884(17)
C41_4 C 0.1443(3) 0.5040(2) 0.77138(18)
H26_4 H 0.192369 0.510582 0.792182
C42_4 C 0.0221(2) 0.4781(2) 0.76983(17)
C43_4 C 0.0146(3) 0.3105(3) 0.9482(2)
H24_4 H 0.954296 0.479940 0.688077
C40_4 C 0.9924(3) 0.2456(3) 0.9614(2)
H25_4 H 0.943893 0.232942 0.949405
H27_4 H 0.987071 0.466634 0.789483
H28_4 H 0.980350 0.340979 0.926645
loop_
_geom_bond_atom_site_label_1
_geom_bond_atom_site_label_2
_geom_bond_site_symmetry_1
_geom_bond_site_symmetry_2
O5 C11 1_555 1_555
C1 C11 1_555 1_555
C3 C4 1_555 1_555
C4 H1 1_555 1_555
C9 H5 1_555 1_555
C10 C9 1_555 1_555
C12 C8 1_555 1_555
C13 C1 1_555 1_555
H6 C13 1_555 1_555
C15 C4 1_555 1_555
C16 C8 1_555 1_555
H8 C16 1_555 1_555
C22 C12 1_555 1_555
C23 C10 1_555 1_555
O8 C33 1_555 1_555
O9 C33 1_555 1_555
C24 C33 1_555 1_555
C27 C26 1_555 1_555
H18 C27 1_555 1_555
C31 H20 1_555 1_555
C32 C31 1_555 1_555
C34 C30 1_555 1_555
C35 C24 1_555 1_555
H21 C35 1_555 1_555
C37 C27 1_555 1_555
C38 C30 1_555 1_555
H23 C38 1_555 1_555
H24 C39 1_555 1_555
C40 C24 1_555 1_555
H25 C40 1_555 1_555
C42 C34 1_555 1_555
H27 C42 1_555 1_555
C43 C32 1_555 1_555
H28 C43 1_555 1_555
Cu4 O9 1_555 1_555
Cu5 O5 1_555 1_555
Cu9 O8 1_555 1_555
C9 C13 1_555 1_555
C10 C15 1_555 1_555
C15 C16 1_555 1_555
C18 C22 1_555 1_555
C31 C35 1_555 1_555
C32 C37 1_555 1_555
C37 C38 1_555 1_555
C39 C42 1_555 1_555
C40 C43 1_555 1_555
Cu4 Cu9 1_555 1_555
O2 C2 1_555 1_555
C2 C6 1_555 1_555
H2 C5 1_555 1_555
C6 C14 1_555 1_555
C14 H7 1_555 1_555
H13 C20 1_555 1_555
O7 C25 1_555 1_555
C25 C29 1_555 1_555
H19 C28 1_555 1_555
C29 C36 1_555 1_555
C36 H22 1_555 1_555
H26 C41 1_555 1_555
Cu8 O7 1_555 1_555
O2 Cu6 1_555 1_555
C14 C20 1_555 1_555
C36 C41 1_555 1_555
H4 C7 1_555 1_555
H12 C19 1_555 1_555
Cu3 N2 1_555 1_555
Cu10 O4 1_555 1_555
O12 Cu3 1_555 1_555
O13 Cu3 1_555 1_555
N1 Cu1 1_555 1_555
H30 C44 1_555 1_555
O11 Cu1 1_555 1_555
O14 Cu1 1_555 1_555
H15 C21 1_555 1_555
C45 C21 1_555 1_555
H31 C45 1_555 1_555
H9 C17 1_555 1_555
C46 C17 1_555 1_555
H34 C46 1_555 1_555
H25_2 C40_2 1_555 1_555
Cu5 O6_2 1_555 1_555
Cu6 O8_2 1_555 1_555
O15 C11_2 1_555 1_555
C9_2 H5_2 1_555 1_555
H6_2 C13_2 1_555 1_555
O7_2 C25_2 1_555 1_555
C25_2 C29_2 1_555 1_555
C26_2 O3_2 1_555 1_555
C27_2 C26_2 1_555 1_555
C28_2 C26_2 1_555 1_555
H19_2 C28_2 1_555 1_555
C29_2 C36_2 1_555 1_555
C30_2 C28_2 1_555 1_555
C34_2 C30_2 1_555 1_555
C36_2 H22_2 1_555 1_555
C37_2 C27_2 1_555 1_555
C38_2 C30_2 1_555 1_555
H23_2 C38_2 1_555 1_555
C39_2 C29_2 1_555 1_555
C41_2 C34_2 1_555 1_555
H26_2 C41_2 1_555 1_555
C42_2 C34_2 1_555 1_555
C43_2 C32_2 1_555 1_555
Cu10 O7_2 1_555 1_555
C9_2 C13_2 1_555 1_555
C32_2 C37_2 1_555 1_555
C36_2 C41_2 1_555 1_555
C37_2 C38_2 1_555 1_555
C39_2 C42_2 1_555 1_555
Cu4 O1_2 1_555 1_555
O1_2 C2_2 1_555 1_555
O2_2 C2_2 1_555 1_555
O3_3 C3_2 1_555 1_555
N1_2 Cu4 1_555 1_555
C2_2 C6_2 1_555 1_555
C3_2 C4_2 1_555 1_555
C5_2 C3_2 1_555 1_555
H2_2 C5_2 1_555 1_555
C6_2 C14_2 1_555 1_555
C7_2 N1_2 1_555 1_555
H3_2 C7_2 1_555 1_555
H4_2 C7_2 1_555 1_555
C8_2 C5_2 1_555 1_555
C12_2 C8_2 1_555 1_555
C14_2 H7_2 1_555 1_555
C15_2 C4_2 1_555 1_555
C16_2 C8_2 1_555 1_555
H8_2 C16_2 1_555 1_555
C17_2 N1_2 1_555 1_555
H9_2 C17_2 1_555 1_555
H10_2 C17_2 1_555 1_555
C18_2 C6_2 1_555 1_555
H11_2 C18_2 1_555 1_555
C19_2 C1_2 1_555 1_555
H12_2 C19_2 1_555 1_555
C20_2 C12_2 1_555 1_555
H13_2 C20_2 1_555 1_555
C21_2 N1_2 1_555 1_555
H14_2 C21_2 1_555 1_555
H15_2 C21_2 1_555 1_555
C22_2 C12_2 1_555 1_555
H16_2 C22_2 1_555 1_555
C23_2 C10_2 1_555 1_555
H17_2 C23_2 1_555 1_555
O16 C33_2 1_555 1_555
C31_2 H20_2 1_555 1_555
H21_2 C35_2 1_555 1_555
N2_2 C44_2 1_555 1_555
C44_2 C7_2 1_555 1_555
H29_2 C44_2 1_555 1_555
H30_2 C44_2 1_555 1_555
C45_2 C21_2 1_555 1_555
H31_2 C45_2 1_555 1_555
H32_2 C45_2 1_555 1_555
C46_2 C17_2 1_555 1_555
H33_2 C46_2 1_555 1_555
H34_2 C46_2 1_555 1_555
Cu5 N2_2 1_555 1_555
Cu8 O4_2 1_555 1_555
O11_2 Cu4 1_555 1_555
O12_2 Cu5 1_555 1_555
O13_2 Cu5 1_555 1_555
O14_2 Cu4 1_555 1_555
O2_2 Cu9 1_555 1_555
C10_2 C15_2 1_555 1_555
C14_2 C20_2 1_555 1_555
C15_2 C16_2 1_555 1_555
C18_2 C22_2 1_555 1_555
C19_2 C23_2 1_555 1_555
C31_2 C35_2 1_555 1_555
N2_2 C45_2 1_555 1_555
N2_2 C46_2 1_555 1_555
H9_3 C17_3 1_555 1_555
C46_3 C17_3 1_555 1_555
H34_3 C46_3 1_555 1_555
H15_3 C21_3 1_555 1_555
C45_3 C21_3 1_555 1_555
H31_3 C45_3 1_555 1_555
N1_3 Cu6 1_555 1_555
H30_3 C44_3 1_555 1_555
H4_3 C7_3 1_555 1_555
H12_3 C19_3 1_555 1_555
Cu8 N2_3 1_555 1_555
O11 C2_3 1_555 1_555
C2_3 C6_3 1_555 1_555
H2_3 C5_3 1_555 1_555
C6_3 C14_3 1_555 1_555
C14_3 H7_3 1_555 1_555
H13_3 C20_3 1_555 1_555
O12 C25_3 1_555 1_555
C25_3 C29_3 1_555 1_555
H19_3 C28_3 1_555 1_555
C29_3 C36_3 1_555 1_555
C36_3 H22_3 1_555 1_555
H26_3 C41_3 1_555 1_555
C14_3 C20_3 1_555 1_555
C36_3 C41_3 1_555 1_555
O5_2 C11_3 1_555 1_555
C1_3 C11_3 1_555 1_555
C3_3 C4_3 1_555 1_555
C4_3 H1_3 1_555 1_555
C9_3 H5_3 1_555 1_555
C10_3 C9_3 1_555 1_555
C12_3 C8_3 1_555 1_555
C13_3 C1_3 1_555 1_555
H6_3 C13_3 1_555 1_555
C15_3 C4_3 1_555 1_555
C16_3 C8_3 1_555 1_555
H8_3 C16_3 1_555 1_555
C22_3 C12_3 1_555 1_555
C23_3 C10_3 1_555 1_555
O14_2 C33_3 1_555 1_555
O9_2 C33_3 1_555 1_555
C24_3 C33_3 1_555 1_555
C27_3 C26_3 1_555 1_555
H18_3 C27_3 1_555 1_555
C31_3 H20_3 1_555 1_555
C32_3 C31_3 1_555 1_555
C34_3 C30_3 1_555 1_555
C35_3 C24_3 1_555 1_555
H21_3 C35_3 1_555 1_555
C37_3 C27_3 1_555 1_555
C38_3 C30_3 1_555 1_555
H23_3 C38_3 1_555 1_555
H24_3 C39_3 1_555 1_555
C40_3 C24_3 1_555 1_555
H25_3 C40_3 1_555 1_555
C42_3 C34_3 1_555 1_555
H27_3 C42_3 1_555 1_555
C43_3 C32_3 1_555 1_555
H28_3 C43_3 1_555 1_555
Cu9 O9_2 1_555 1_555
Cu10 O5_2 1_555 1_555
C9_3 C13_3 1_555 1_555
C10_3 C15_3 1_555 1_555
C15_3 C16_3 1_555 1_555
C18_3 C22_3 1_555 1_555
C31_3 C35_3 1_555 1_555
C32_3 C37_3 1_555 1_555
C37_3 C38_3 1_555 1_555
C39_3 C42_3 1_555 1_555
C40_3 C43_3 1_555 1_555
Cu9 O1_4 1_555 1_555
O1_4 C2_4 1_555 1_555
O11_2 C2_4 1_555 1_555
O3_5 C3_4 1_555 1_555
N1_4 Cu9 1_555 1_555
C2_4 C6_4 1_555 1_555
C3_4 C4_4 1_555 1_555
C5_4 C3_4 1_555 1_555
H2_4 C5_4 1_555 1_555
C6_4 C14_4 1_555 1_555
C7_4 N1_4 1_555 1_555
H3_4 C7_4 1_555 1_555
H4_4 C7_4 1_555 1_555
C8_4 C5_4 1_555 1_555
C12_4 C8_4 1_555 1_555
C14_4 H7_4 1_555 1_555
C15_4 C4_4 1_555 1_555
C16_4 C8_4 1_555 1_555
H8_4 C16_4 1_555 1_555
C17_4 N1_4 1_555 1_555
H9_4 C17_4 1_555 1_555
H10_4 C17_4 1_555 1_555
C18_4 C6_4 1_555 1_555
H11_4 C18_4 1_555 1_555
C19_4 C1_4 1_555 1_555
H12_4 C19_4 1_555 1_555
C20_4 C12_4 1_555 1_555
H13_4 C20_4 1_555 1_555
C21_4 N1_4 1_555 1_555
H14_4 C21_4 1_555 1_555
H15_4 C21_4 1_555 1_555
C22_4 C12_4 1_555 1_555
H16_4 C22_4 1_555 1_555
C23_4 C10_4 1_555 1_555
H17_4 C23_4 1_555 1_555
O16_2 C33_4 1_555 1_555
C31_4 H20_4 1_555 1_555
H21_4 C35_4 1_555 1_555
N2_4 C44_4 1_555 1_555
C44_4 C7_4 1_555 1_555
H29_4 C44_4 1_555 1_555
H30_4 C44_4 1_555 1_555
C45_4 C21_4 1_555 1_555
H31_4 C45_4 1_555 1_555
H32_4 C45_4 1_555 1_555
C46_4 C17_4 1_555 1_555
H33_4 C46_4 1_555 1_555
H34_4 C46_4 1_555 1_555
Cu10 N2_4 1_555 1_555
O10_2 Cu10 1_555 1_555
C10_4 C15_4 1_555 1_555
C14_4 C20_4 1_555 1_555
C15_4 C16_4 1_555 1_555
C18_4 C22_4 1_555 1_555
C19_4 C23_4 1_555 1_555
C31_4 C35_4 1_555 1_555
N2_4 C45_4 1_555 1_555
N2_4 C46_4 1_555 1_555
O15_2 C11_4 1_555 1_555
C9_4 H5_4 1_555 1_555
H6_4 C13_4 1_555 1_555
O12_2 C25_4 1_555 1_555
C25_4 C29_4 1_555 1_555
C26_4 O3_6 1_555 1_555
C27_4 C26_4 1_555 1_555
C28_4 C26_4 1_555 1_555
H19_4 C28_4 1_555 1_555
C29_4 C36_4 1_555 1_555
C30_4 C28_4 1_555 1_555
C34_4 C30_4 1_555 1_555
C36_4 H22_4 1_555 1_555
C37_4 C27_4 1_555 1_555
C38_4 C30_4 1_555 1_555
H23_4 C38_4 1_555 1_555
C39_4 C29_4 1_555 1_555
C41_4 C34_4 1_555 1_555
H26_4 C41_4 1_555 1_555
C42_4 C34_4 1_555 1_555
C43_4 C32_4 1_555 1_555
C9_4 C13_4 1_555 1_555
C32_4 C37_4 1_555 1_555
C36_4 C41_4 1_555 1_555
C37_4 C38_4 1_555 1_555
C39_4 C42_4 1_555 1_555
H25_4 C40_4 1_555 1_555

#END
