
###############################################################################
#
# This file contains modified crystal structure data generated from the
# MOF subset of the Cambridge Structural Database (CSD) v543 
# hosted by the Cambridge Crystallographic Data Centre (CCDC).
#
# This work is licensed under the Creative Commons
# Attribution-NonCommercial-ShareAlike 4.0 International License.
# To view a copy of this license, visit
# http://creativecommons.org/licenses/by-nc-sa/4.0/
# or send a letter to
# Creative Commons, PO Box 1866, Mountain View, CA 94042, USA.
#
# CIF created using the CSD Python API on 29 September 2022
# The structure has been converted into the P1 space group
# The structure has a 3D framework
# The original CSD entry TUHFIO is in the monoclinic crystal system
# The framework has been calculated to contain at least 10.0% void space
# The void calculation uses a probe of radius 1.32A, grid spacing 0.4
#
###############################################################################

data_TUHFIO
_chemical_formula_moiety         '(C184 H136 Cu8 N8 O34)n'
_symmetry_cell_setting           triclinic
_symmetry_space_group_name_H-M   'P 1'
_symmetry_Int_Tables_number      1
_space_group_name_Hall           'P 1'
loop_
_symmetry_equiv_pos_site_id
_symmetry_equiv_pos_as_xyz
1 x,y,z
_cell_length_a                   19.0970(6)
_cell_length_b                   24.0172(8)
_cell_length_c                   22.3447(7)
_cell_angle_alpha                90
_cell_angle_beta                 102.265(2)
_cell_angle_gamma                90
_cell_volume                     10014.6
loop_
_atom_site_label
_atom_site_type_symbol
_atom_site_fract_x
_atom_site_fract_y
_atom_site_fract_z
O5 O 0.250000 0.42828(10) 0.000000
H6 H 0.184277 0.334371 0.014888
H7 H 0.148604 0.147551 0.001513
O6 O 0.53355(8) 0.47022(7) 0.41463(7)
O7 O 0.54396(9) 0.09240(7) 0.01925(8)
O8 O 0.42133(9) 0.49899(8) 0.41032(7)
O9 O 0.43048(9) 0.06623(7) 0.01244(8)
C24 C 0.46977(13) 0.47829(10) 0.38735(10)
C25 C 0.47900(14) 0.10154(11) 0.01990(11)
C26 C 0.44930(13) 0.46026(11) 0.32134(10)
C27 C 0.32763(15) 0.42283(11) 0.09621(11)
H18 H 0.306856 0.455990 0.106519
C28 C 0.45710(14) 0.16003(11) 0.03028(12)
C29 C 0.30343(15) 0.39881(11) 0.03988(11)
C30 C 0.38328(15) 0.39767(12) 0.13807(11)
C31 C 0.49869(14) 0.43785(12) 0.29145(12)
H19 H 0.546991 0.435115 0.311791
C32 C 0.41308(15) 0.26836(12) 0.05208(12)
C33 C 0.37823(15) 0.46430(13) 0.29021(12)
H20 H 0.343933 0.480013 0.309759
C34 C 0.33245(15) 0.35002(11) 0.02409(11)
C35 C 0.40664(14) 0.42218(11) 0.20120(11)
C36 C 0.38572(15) 0.17434(13) 0.01562(15)
C37 C 0.47801(14) 0.41946(12) 0.23221(11)
H23 H 0.512533 0.404798 0.212212
C38 C 0.38643(15) 0.32403(11) 0.06588(12)
C39 C 0.50627(15) 0.20046(12) 0.05525(14)
H24 H 0.555392 0.191824 0.064763
C40 C 0.41247(14) 0.34906(11) 0.12262(11)
H25 H 0.450452 0.332363 0.150525
C41 C 0.35797(15) 0.44546(13) 0.23108(12)
H26 H 0.309759 0.448544 0.210602
C42 C 0.36423(16) 0.22740(13) 0.02580(15)
H27 H 0.315284 0.236417 0.014778
C43 C 0.48380(16) 0.25344(12) 0.06635(14)
H28 H 0.518098 0.279981 0.084215
Cu3 Cu 0.56807(2) 0.48480(2) 0.50252(2)
Cu8 Cu 0.43193(2) 0.51520(2) 0.49748(2)
Cu9 Cu 0.56807(2) 0.01520(2) 0.00252(2)
O3 O 0.07867(9) 0.49899(8) 0.58968(7)
O4 O 0.06952(9) 0.06623(7) 0.98756(8)
O5_2 O 0.250000 0.42828(10) 1.000000
C1 C 0.03023(13) 0.47829(10) 0.61265(10)
C2 C 0.02100(14) 0.10154(11) 0.98010(11)
C3 C 0.05070(13) 0.46026(11) 0.67866(10)
C4 C 0.17237(15) 0.42283(11) 0.90379(11)
H1 H 0.193144 0.455990 0.893481
C5 C 0.04290(14) 0.16003(11) 0.96972(12)
C6 C 0.19657(15) 0.39881(11) 0.96012(11)
C7 C 0.11672(15) 0.39767(12) 0.86193(11)
C9 C 0.00131(14) 0.43785(12) 0.70855(12)
C10 C 0.08692(15) 0.26836(12) 0.94792(12)
C11 C 0.12177(15) 0.46430(13) 0.70979(12)
H5 H 0.156067 0.480013 0.690241
C12 C 0.16755(15) 0.35002(11) 0.97591(11)
C13 C 0.09336(14) 0.42218(11) 0.79880(11)
C14 C 0.11428(15) 0.17434(13) 0.98438(15)
C16 C 0.02199(14) 0.41946(12) 0.76779(11)
C17 C 0.11357(15) 0.32403(11) 0.93412(12)
C20 C 0.08753(14) 0.34906(11) 0.87738(11)
H14 H 0.049548 0.332363 0.849475
C21 C 0.14203(15) 0.44546(13) 0.76892(12)
H15 H 0.190241 0.448544 0.789398
C22 C 0.13577(16) 0.22740(13) 0.97420(15)
H16 H 0.184716 0.236417 0.985222
C23 C 0.01620(16) 0.25344(12) 0.93365(14)
H21 H 0.315723 0.334371 0.985112
H22 H 0.351396 0.147551 0.998487
Cu6 Cu 0.06807(2) 0.51520(2) 0.50252(2)
Cu5 Cu 0.06807(2) 0.98480(2) 0.00252(2)
Cu4 Cu 0.43193(2) 0.98480(2) 0.99748(2)
Cu1 Cu 0.93193(2) 0.48480(2) 0.49748(2)
O1 O 0.96645(8) 0.47022(7) 0.58537(7)
O2 O 0.95604(9) 0.09240(7) 0.98075(8)
N1 N 0.81791(9) 0.47832(8) 0.49883(8)
C8 C 0.77521(13) 0.50638(12) 0.44493(13)
H2 H 0.781966 0.487307 0.407796
H3 H 0.792099 0.544781 0.443465
H4 H 0.953009 0.435115 0.688209
C15 C 0.79089(13) 0.42154(12) 0.50051(17)
H8 H 0.816617 0.402865 0.537718
H9 H 0.799753 0.400730 0.465124
H10 H 0.987467 0.404798 0.787788
C18 C 0.80439(13) 0.50683(14) 0.55378(13)
H11 H 0.821177 0.545414 0.554177
H12 H 0.831495 0.488270 0.590530
C19 C 0.99373(15) 0.20046(12) 0.94475(14)
H13 H 0.944608 0.191824 0.935237
H17 H 0.981902 0.279981 0.915785
N2 N 0.68209(9) 0.47832(8) 0.50117(8)
C44 C 0.72479(13) 0.50638(12) 0.55507(13)
H29 H 0.718034 0.487307 0.592204
H30 H 0.707901 0.544781 0.556535
C45 C 0.70911(13) 0.42154(12) 0.49949(17)
H31 H 0.683383 0.402865 0.462282
H32 H 0.700247 0.400730 0.534876
C46 C 0.69561(13) 0.50683(14) 0.44622(13)
H33 H 0.678823 0.545414 0.445823
H34 H 0.668505 0.488270 0.409470
Cu10 Cu 0.93193(2) 0.01520(2) 0.99748(2)
O11 O 0.54396(9) 0.40760(7) 0.51925(8)
O12 O 0.95604(9) 0.40760(7) 0.48075(8)
O13 O 0.92133(9) 0.50101(8) 0.41032(7)
O14 O 0.57867(9) 0.50101(8) 0.58968(7)
O15 O 0.56952(9) 0.56623(7) 0.48756(8)
O16 O 0.93048(9) 0.56623(7) 0.51244(8)
O6_2 O 0.03355(8) 0.97022(7) 0.91463(7)
O7_2 O 0.04396(9) 0.59240(7) 0.51925(8)
H19_2 H 0.046991 0.935115 0.811791
H23_2 H 0.012533 0.904798 0.712212
C39_2 C 0.00627(15) 0.70046(12) 0.55525(14)
H24_2 H 0.055392 0.691824 0.564763
H28_2 H 0.018098 0.779981 0.584215
C18_2 C 0.30439(13) 0.00683(14) 0.05378(13)
H11_2 H 0.321177 0.045414 0.054177
C44_2 C 0.22479(13) 0.00638(12) 0.05507(13)
H30_2 H 0.207901 0.044781 0.056535
O14_2 O 0.07867(9) 0.00101(8) 0.08968(7)
C8_2 C 0.27521(13) 0.00638(12) 0.94493(13)
H3_2 H 0.292099 0.044781 0.943465
C46_2 C 0.19561(13) 0.00683(14) 0.94622(13)
H33_2 H 0.178823 0.045414 0.945823
O13_2 O 0.42133(9) 0.00101(8) 0.91032(7)
O1_2 O 0.46645(8) 0.97022(7) 0.08537(7)
O2_2 O 0.45604(9) 0.59240(7) 0.48075(8)
O3_2 O 0.57867(9) 0.99899(8) 0.08968(7)
O5_3 O 0.750000 0.92828(10) 0.500000
C1_2 C 0.53023(13) 0.97829(10) 0.11265(10)
C2_2 C 0.52100(14) 0.60154(11) 0.48010(11)
C3_2 C 0.55070(13) 0.96026(11) 0.17866(10)
C4_2 C 0.67237(15) 0.92283(11) 0.40379(11)
H1_2 H 0.693144 0.955990 0.393481
C5_2 C 0.54290(14) 0.66003(11) 0.46972(12)
C6_2 C 0.69657(15) 0.89881(11) 0.46012(11)
C7_2 C 0.61672(15) 0.89767(12) 0.36193(11)
C9_2 C 0.50131(14) 0.93785(12) 0.20855(12)
H4_2 H 0.453009 0.935115 0.188209
C10_2 C 0.58692(15) 0.76836(12) 0.44792(12)
C11_2 C 0.62177(15) 0.96430(13) 0.20979(12)
H5_2 H 0.656067 0.980013 0.190241
C12_2 C 0.66755(15) 0.85002(11) 0.47591(11)
H6_2 H 0.684277 0.834371 0.514888
C13_2 C 0.59336(14) 0.92218(11) 0.29880(11)
C14_2 C 0.61428(15) 0.67434(13) 0.48438(15)
H7_2 H 0.648604 0.647551 0.501513
C15_2 C 0.29089(13) 0.92154(12) 0.00051(17)
H8_2 H 0.316617 0.902865 0.037718
C16_2 C 0.52199(14) 0.91946(12) 0.26779(11)
H10_2 H 0.487467 0.904798 0.287788
C17_2 C 0.61357(15) 0.82403(11) 0.43412(12)
H12_2 H 0.331495 0.988270 0.090530
C19_2 C 0.49373(15) 0.70046(12) 0.44475(14)
H13_2 H 0.444608 0.691824 0.435237
C20_2 C 0.58753(14) 0.84906(11) 0.37738(11)
H14_2 H 0.549548 0.832363 0.349475
C21_2 C 0.64203(15) 0.94546(13) 0.26892(12)
H15_2 H 0.690241 0.948544 0.289398
C22_2 C 0.63577(16) 0.72740(13) 0.47420(15)
H16_2 H 0.684716 0.736417 0.485222
C23_2 C 0.51620(16) 0.75344(12) 0.43365(14)
H17_2 H 0.481902 0.779981 0.415785
O8_2 O 0.92133(9) 0.99899(8) 0.91032(7)
C24_2 C 0.96977(13) 0.97829(10) 0.88735(10)
C25_2 C 0.97900(14) 0.60154(11) 0.51990(11)
C26_2 C 0.94930(13) 0.96026(11) 0.82134(10)
C27_2 C 0.82763(15) 0.92283(11) 0.59621(11)
H18_2 H 0.806856 0.955990 0.606519
C28_2 C 0.95710(14) 0.66003(11) 0.53028(12)
C29_2 C 0.80343(15) 0.89881(11) 0.53988(11)
C30_2 C 0.88328(15) 0.89767(12) 0.63807(11)
C31_2 C 0.99869(14) 0.93785(12) 0.79145(12)
C32_2 C 0.91308(15) 0.76836(12) 0.55208(12)
C33_2 C 0.87823(15) 0.96430(13) 0.79021(12)
H20_2 H 0.843933 0.980013 0.809759
C34_2 C 0.83245(15) 0.85002(11) 0.52409(11)
H21_2 H 0.815723 0.834371 0.485112
C35_2 C 0.90664(14) 0.92218(11) 0.70120(11)
C36_2 C 0.88572(15) 0.67434(13) 0.51562(15)
H22_2 H 0.851396 0.647551 0.498487
C37_2 C 0.97801(14) 0.91946(12) 0.73221(11)
C38_2 C 0.88643(15) 0.82403(11) 0.56588(12)
C40_2 C 0.91247(14) 0.84906(11) 0.62262(11)
H25_2 H 0.950452 0.832363 0.650525
C41_2 C 0.85797(15) 0.94546(13) 0.73108(12)
H26_2 H 0.809759 0.948544 0.710602
C42_2 C 0.86423(16) 0.72740(13) 0.52580(15)
H27_2 H 0.815284 0.736417 0.514778
C43_2 C 0.98380(16) 0.75344(12) 0.56635(14)
N2_2 N 0.18209(9) 0.97832(8) 0.00117(8)
H29_2 H 0.218034 0.987307 0.092204
H32_2 H 0.200247 0.900730 0.034876
O11_2 O 0.04396(9) 0.90760(7) 0.01925(8)
N1_2 N 0.31791(9) 0.97832(8) 0.99883(8)
H2_2 H 0.281966 0.987307 0.907796
H9_2 H 0.299753 0.900730 0.965124
C45_2 C 0.20911(13) 0.92154(12) 0.99949(17)
H31_2 H 0.183383 0.902865 0.962282
H34_2 H 0.168505 0.988270 0.909470
O12_2 O 0.45604(9) 0.90760(7) 0.98075(8)
O1_3 O 0.03355(8) 0.52978(7) 0.41463(7)
N1_3 N 0.18209(9) 0.52168(8) 0.50117(8)
C8_3 C 0.22479(13) 0.49362(12) 0.55507(13)
H2_3 H 0.218034 0.512693 0.592204
H3_3 H 0.207901 0.455219 0.556535
H4_3 H 0.046991 0.564885 0.311791
C15_3 C 0.20911(13) 0.57846(12) 0.49949(17)
H8_3 H 0.183383 0.597135 0.462282
H9_3 H 0.200247 0.599270 0.534876
H10_3 H 0.012533 0.595202 0.212212
C18_3 C 0.19561(13) 0.49317(14) 0.44622(13)
H11_3 H 0.178823 0.454586 0.445823
H12_3 H 0.168505 0.511730 0.409470
C19_3 C 0.00627(15) 0.79954(12) 0.05525(14)
H13_3 H 0.055392 0.808176 0.064763
H17_3 H 0.018098 0.720019 0.084215
N2_3 N 0.31791(9) 0.52168(8) 0.49883(8)
C44_3 C 0.27521(13) 0.49362(12) 0.44493(13)
H29_3 H 0.281966 0.512693 0.407796
H30_3 H 0.292099 0.455219 0.443465
C45_3 C 0.29089(13) 0.57846(12) 0.50051(17)
H31_3 H 0.316617 0.597135 0.537718
H32_3 H 0.299753 0.599270 0.465124
C46_3 C 0.30439(13) 0.49317(14) 0.55378(13)
H33_3 H 0.321177 0.454586 0.554177
H34_3 H 0.331495 0.511730 0.590530
O10 O 0.46645(8) 0.52978(7) 0.58537(7)
O15_2 O 0.43048(9) 0.43377(7) 0.51244(8)
O16_2 O 0.06952(9) 0.43377(7) 0.48756(8)
O4_2 O 0.93048(9) 0.93377(7) 0.01244(8)
O5_4 O 0.750000 0.57172(10) 0.000000
C1_3 C 0.96977(13) 0.52171(10) 0.38735(10)
C2_3 C 0.97900(14) 0.89846(11) 0.01990(11)
C3_3 C 0.94930(13) 0.53974(11) 0.32134(10)
C4_3 C 0.82763(15) 0.57717(11) 0.09621(11)
H1_3 H 0.806856 0.544010 0.106519
C5_3 C 0.95710(14) 0.83997(11) 0.03028(12)
C6_3 C 0.80343(15) 0.60119(11) 0.03988(11)
C7_3 C 0.88328(15) 0.60233(12) 0.13807(11)
C9_3 C 0.99869(14) 0.56215(12) 0.29145(12)
C10_3 C 0.91308(15) 0.73164(12) 0.05208(12)
C11_3 C 0.87823(15) 0.53570(13) 0.29021(12)
H5_3 H 0.843933 0.519987 0.309759
C12_3 C 0.83245(15) 0.64998(11) 0.02409(11)
C13_3 C 0.90664(14) 0.57782(11) 0.20120(11)
C14_3 C 0.88572(15) 0.82566(13) 0.01562(15)
C16_3 C 0.97801(14) 0.58054(12) 0.23221(11)
C17_3 C 0.88643(15) 0.67597(11) 0.06588(12)
C20_3 C 0.91247(14) 0.65094(11) 0.12262(11)
H14_3 H 0.950452 0.667637 0.150525
C21_3 C 0.85797(15) 0.55454(13) 0.23108(12)
H15_3 H 0.809759 0.551456 0.210602
C22_3 C 0.86423(16) 0.77260(13) 0.02580(15)
H16_3 H 0.815284 0.763583 0.014778
C23_3 C 0.98380(16) 0.74656(12) 0.06635(14)
H21_3 H 0.684277 0.665629 0.014888
H22_3 H 0.648604 0.852449 0.001513
O5_5 O 0.750000 0.57172(10) 1.000000
H6_3 H 0.815723 0.665629 0.985112
H7_3 H 0.851396 0.852449 0.998487
O9_2 O 0.56952(9) 0.93377(7) 0.98756(8)
C24_3 C 0.53023(13) 0.52171(10) 0.61265(10)
C25_3 C 0.52100(14) 0.89846(11) 0.98010(11)
C26_3 C 0.55070(13) 0.53974(11) 0.67866(10)
C27_3 C 0.67237(15) 0.57717(11) 0.90379(11)
H18_3 H 0.693144 0.544010 0.893481
C28_3 C 0.54290(14) 0.83997(11) 0.96972(12)
C29_3 C 0.69657(15) 0.60119(11) 0.96012(11)
C30_3 C 0.61672(15) 0.60233(12) 0.86193(11)
C31_3 C 0.50131(14) 0.56215(12) 0.70855(12)
H19_3 H 0.453009 0.564885 0.688209
C32_3 C 0.58692(15) 0.73164(12) 0.94792(12)
C33_3 C 0.62177(15) 0.53570(13) 0.70979(12)
H20_3 H 0.656067 0.519987 0.690241
C34_3 C 0.66755(15) 0.64998(11) 0.97591(11)
C35_3 C 0.59336(14) 0.57782(11) 0.79880(11)
C36_3 C 0.61428(15) 0.82566(13) 0.98438(15)
C37_3 C 0.52199(14) 0.58054(12) 0.76779(11)
H23_3 H 0.487467 0.595202 0.787788
C38_3 C 0.61357(15) 0.67597(11) 0.93412(12)
C39_3 C 0.49373(15) 0.79954(12) 0.94475(14)
H24_3 H 0.444608 0.808176 0.935237
C40_3 C 0.58753(14) 0.65094(11) 0.87738(11)
H25_3 H 0.549548 0.667637 0.849475
C41_3 C 0.64203(15) 0.55454(13) 0.76892(12)
H26_3 H 0.690241 0.551456 0.789398
C42_3 C 0.63577(16) 0.77260(13) 0.97420(15)
H27_3 H 0.684716 0.763583 0.985222
C43_3 C 0.51620(16) 0.74656(12) 0.93365(14)
H28_3 H 0.481902 0.720019 0.915785
N1_4 N 0.68209(9) 0.02168(8) 0.00117(8)
H2_4 H 0.718034 0.012693 0.092204
H9_4 H 0.700247 0.099270 0.034876
C45_4 C 0.79089(13) 0.07846(12) 0.00051(17)
H31_4 H 0.816617 0.097135 0.037718
H34_4 H 0.831495 0.011730 0.090530
O10_2 O 0.96645(8) 0.02978(7) 0.08537(7)
O1_4 O 0.53355(8) 0.02978(7) 0.91463(7)
O5_6 O 0.250000 0.07172(10) 0.500000
C1_4 C 0.46977(13) 0.02171(10) 0.88735(10)
C2_4 C 0.47900(14) 0.39846(11) 0.51990(11)
C3_4 C 0.44930(13) 0.03974(11) 0.82134(10)
C4_4 C 0.32763(15) 0.07717(11) 0.59621(11)
H1_4 H 0.306856 0.044010 0.606519
C5_4 C 0.45710(14) 0.33997(11) 0.53028(12)
C6_4 C 0.30343(15) 0.10119(11) 0.53988(11)
C7_4 C 0.38328(15) 0.10233(12) 0.63807(11)
C9_4 C 0.49869(14) 0.06215(12) 0.79145(12)
H4_4 H 0.546991 0.064885 0.811791
C10_4 C 0.41308(15) 0.23164(12) 0.55208(12)
C11_4 C 0.37823(15) 0.03570(13) 0.79021(12)
H5_4 H 0.343933 0.019987 0.809759
C12_4 C 0.33245(15) 0.14998(11) 0.52409(11)
H6_4 H 0.315723 0.165629 0.485112
C13_4 C 0.40664(14) 0.07782(11) 0.70120(11)
C14_4 C 0.38572(15) 0.32566(13) 0.51562(15)
H7_4 H 0.351396 0.352449 0.498487
C15_4 C 0.70911(13) 0.07846(12) 0.99949(17)
H8_4 H 0.683383 0.097135 0.962282
C16_4 C 0.47801(14) 0.08054(12) 0.73221(11)
H10_4 H 0.512533 0.095202 0.712212
C17_4 C 0.38643(15) 0.17597(11) 0.56588(12)
H12_4 H 0.668505 0.011730 0.909470
C19_4 C 0.50627(15) 0.29954(12) 0.55525(14)
H13_4 H 0.555392 0.308176 0.564763
C20_4 C 0.41247(14) 0.15094(11) 0.62262(11)
H14_4 H 0.450452 0.167637 0.650525
C21_4 C 0.35797(15) 0.05454(13) 0.73108(12)
H15_4 H 0.309759 0.051456 0.710602
C22_4 C 0.36423(16) 0.27260(13) 0.52580(15)
H16_4 H 0.315284 0.263583 0.514778
C23_4 C 0.48380(16) 0.24656(12) 0.56635(14)
H17_4 H 0.518098 0.220019 0.584215
C24_4 C 0.03023(13) 0.02171(10) 0.11265(10)
C25_4 C 0.02100(14) 0.39846(11) 0.48010(11)
C26_4 C 0.05070(13) 0.03974(11) 0.17866(10)
C27_4 C 0.17237(15) 0.07717(11) 0.40379(11)
H18_4 H 0.193144 0.044010 0.393481
C28_4 C 0.04290(14) 0.33997(11) 0.46972(12)
C29_4 C 0.19657(15) 0.10119(11) 0.46012(11)
C30_4 C 0.11672(15) 0.10233(12) 0.36193(11)
C31_4 C 0.00131(14) 0.06215(12) 0.20855(12)
C32_4 C 0.08692(15) 0.23164(12) 0.44792(12)
C33_4 C 0.12177(15) 0.03570(13) 0.20979(12)
H20_4 H 0.156067 0.019987 0.190241
C34_4 C 0.16755(15) 0.14998(11) 0.47591(11)
H21_4 H 0.184277 0.165629 0.514888
C35_4 C 0.09336(14) 0.07782(11) 0.29880(11)
C36_4 C 0.11428(15) 0.32566(13) 0.48438(15)
H22_4 H 0.148604 0.352449 0.501513
C37_4 C 0.02199(14) 0.08054(12) 0.26779(11)
C38_4 C 0.11357(15) 0.17597(11) 0.43412(12)
C40_4 C 0.08753(14) 0.15094(11) 0.37738(11)
H25_4 H 0.049548 0.167637 0.349475
C41_4 C 0.14203(15) 0.05454(13) 0.26892(12)
H26_4 H 0.190241 0.051456 0.289398
C42_4 C 0.13577(16) 0.27260(13) 0.47420(15)
H27_4 H 0.184716 0.263583 0.485222
C43_4 C 0.01620(16) 0.24656(12) 0.43365(14)
N2_4 N 0.81791(9) 0.02168(8) 0.99883(8)
H29_4 H 0.781966 0.012693 0.907796
H32_4 H 0.799753 0.099270 0.965124
C8_4 C 0.72479(13) 0.99362(12) 0.05507(13)
H3_4 H 0.707901 0.955219 0.056535
C46_4 C 0.80439(13) 0.99317(14) 0.05378(13)
H33_4 H 0.821177 0.954586 0.054177
C18_4 C 0.69561(13) 0.99317(14) 0.94622(13)
H11_4 H 0.678823 0.954586 0.945823
C44_4 C 0.77521(13) 0.99362(12) 0.94493(13)
H30_4 H 0.792099 0.955219 0.943465
H19_4 H 0.953009 0.064885 0.188209
H23_4 H 0.987467 0.095202 0.287788
C39_4 C 0.99373(15) 0.29954(12) 0.44475(14)
H24_4 H 0.944608 0.308176 0.435237
H28_4 H 0.981902 0.220019 0.415785
loop_
_geom_bond_atom_site_label_1
_geom_bond_atom_site_label_2
_geom_bond_site_symmetry_1
_geom_bond_site_symmetry_2
O6 C24 1_555 1_555
O7 C25 1_555 1_555
O8 C24 1_555 1_555
O9 C25 1_555 1_555
C24 C26 1_555 1_555
C25 C28 1_555 1_555
C26 C31 1_555 1_555
C27 H18 1_555 1_555
C28 C36 1_555 1_555
C29 O5 1_555 1_555
C30 C27 1_555 1_555
C31 H19 1_555 1_555
C32 C38 1_555 1_555
C33 C26 1_555 1_555
H20 C33 1_555 1_555
C34 C29 1_555 1_555
C35 C30 1_555 1_555
C37 C31 1_555 1_555
H23 C37 1_555 1_555
C38 C34 1_555 1_555
C39 C28 1_555 1_555
H24 C39 1_555 1_555
C40 C30 1_555 1_555
H25 C40 1_555 1_555
C41 C33 1_555 1_555
H26 C41 1_555 1_555
C42 C32 1_555 1_555
H27 C42 1_555 1_555
C43 C32 1_555 1_555
H28 C43 1_555 1_555
Cu3 O6 1_555 1_555
Cu8 O8 1_555 1_555
Cu9 O7 1_555 1_555
C27 C29 1_555 1_555
C35 C37 1_555 1_555
C35 C41 1_555 1_555
C36 C42 1_555 1_555
C38 C40 1_555 1_555
C39 C43 1_555 1_555
Cu3 Cu8 1_555 1_555
O3 C1 1_555 1_555
O4 C2 1_555 1_555
O5_2 C6 1_555 1_555
C1 C3 1_555 1_555
C2 C5 1_555 1_555
C3 C9 1_555 1_555
C4 H1 1_555 1_555
C5 C14 1_555 1_555
C6 C4 1_555 1_555
C7 C4 1_555 1_555
C10 C17 1_555 1_555
C11 C3 1_555 1_555
H5 C11 1_555 1_555
C12 C6 1_555 1_555
C13 C7 1_555 1_555
C16 C9 1_555 1_555
C17 C12 1_555 1_555
C20 C7 1_555 1_555
H14 C20 1_555 1_555
C21 C11 1_555 1_555
H15 C21 1_555 1_555
C22 C10 1_555 1_555
H16 C22 1_555 1_555
C23 C10 1_555 1_555
O3 Cu6 1_555 1_555
C13 C16 1_555 1_555
C13 C21 1_555 1_555
C14 C22 1_555 1_555
C17 C20 1_555 1_555
Cu1 O1 1_555 1_555
N1 Cu1 1_555 1_555
C8 N1 1_555 1_555
H2 C8 1_555 1_555
H3 C8 1_555 1_555
C15 N1 1_555 1_555
H8 C15 1_555 1_555
H9 C15 1_555 1_555
C18 N1 1_555 1_555
H11 C18 1_555 1_555
H12 C18 1_555 1_555
H13 C19 1_555 1_555
N2 C44 1_555 1_555
C44 C18 1_555 1_555
H29 C44 1_555 1_555
H30 C44 1_555 1_555
C45 C15 1_555 1_555
H31 C45 1_555 1_555
H32 C45 1_555 1_555
C46 C8 1_555 1_555
H33 C46 1_555 1_555
H34 C46 1_555 1_555
Cu3 N2 1_555 1_555
Cu10 O2 1_555 1_555
O11 Cu3 1_555 1_555
O12 Cu1 1_555 1_555
O13 Cu1 1_555 1_555
O14 Cu3 1_555 1_555
O15 Cu3 1_555 1_555
O16 Cu1 1_555 1_555
N2 C45 1_555 1_555
N2 C46 1_555 1_555
H24_2 C39_2 1_555 1_555
Cu6 O7_2 1_555 1_555
H11_2 C18_2 1_555 1_555
C44_2 C18_2 1_555 1_555
H30_2 C44_2 1_555 1_555
H3_2 C8_2 1_555 1_555
C46_2 C8_2 1_555 1_555
H33_2 C46_2 1_555 1_555
O1_2 C1_2 1_555 1_555
O2_2 C2_2 1_555 1_555
O3_2 C1_2 1_555 1_555
O15 C2_2 1_555 1_555
O5_3 C6_2 1_555 1_555
C1_2 C3_2 1_555 1_555
C2_2 C5_2 1_555 1_555
C3_2 C9_2 1_555 1_555
C4_2 H1_2 1_555 1_555
C5_2 C14_2 1_555 1_555
C6_2 C4_2 1_555 1_555
C7_2 C4_2 1_555 1_555
C9_2 H4_2 1_555 1_555
C10_2 C17_2 1_555 1_555
C11_2 C3_2 1_555 1_555
H5_2 C11_2 1_555 1_555
C12_2 C6_2 1_555 1_555
H6_2 C12_2 1_555 1_555
C13_2 C7_2 1_555 1_555
C14_2 H7_2 1_555 1_555
H8_2 C15_2 1_555 1_555
C16_2 C9_2 1_555 1_555
H10_2 C16_2 1_555 1_555
C17_2 C12_2 1_555 1_555
C19_2 C5_2 1_555 1_555
H13_2 C19_2 1_555 1_555
C20_2 C7_2 1_555 1_555
H14_2 C20_2 1_555 1_555
C21_2 C11_2 1_555 1_555
H15_2 C21_2 1_555 1_555
C22_2 C10_2 1_555 1_555
H16_2 C22_2 1_555 1_555
C23_2 C10_2 1_555 1_555
H17_2 C23_2 1_555 1_555
O8_2 C24_2 1_555 1_555
O16 C25_2 1_555 1_555
C24_2 C26_2 1_555 1_555
C25_2 C28_2 1_555 1_555
C26_2 C31_2 1_555 1_555
C27_2 H18_2 1_555 1_555
C28_2 C36_2 1_555 1_555
C29_2 O5_3 1_555 1_555
C30_2 C27_2 1_555 1_555
C32_2 C38_2 1_555 1_555
C33_2 C26_2 1_555 1_555
H20_2 C33_2 1_555 1_555
C34_2 C29_2 1_555 1_555
H21_2 C34_2 1_555 1_555
C35_2 C30_2 1_555 1_555
C36_2 H22_2 1_555 1_555
C37_2 C31_2 1_555 1_555
C38_2 C34_2 1_555 1_555
C40_2 C30_2 1_555 1_555
H25_2 C40_2 1_555 1_555
C41_2 C33_2 1_555 1_555
H26_2 C41_2 1_555 1_555
C42_2 C32_2 1_555 1_555
H27_2 C42_2 1_555 1_555
C43_2 C32_2 1_555 1_555
Cu5 N2_2 1_555 1_555
Cu8 O2_2 1_555 1_555
O11_2 Cu5 1_555 1_555
C13_2 C16_2 1_555 1_555
C13_2 C21_2 1_555 1_555
C14_2 C22_2 1_555 1_555
C17_2 C20_2 1_555 1_555
C19_2 C23_2 1_555 1_555
C27_2 C29_2 1_555 1_555
C35_2 C37_2 1_555 1_555
C35_2 C41_2 1_555 1_555
C36_2 C42_2 1_555 1_555
C38_2 C40_2 1_555 1_555
N1_2 Cu4 1_555 1_555
H31_2 C45_2 1_555 1_555
O12_2 Cu4 1_555 1_555
Cu6 O1_3 1_555 1_555
N1_3 Cu6 1_555 1_555
C8_3 N1_3 1_555 1_555
H2_3 C8_3 1_555 1_555
H3_3 C8_3 1_555 1_555
C15_3 N1_3 1_555 1_555
H8_3 C15_3 1_555 1_555
H9_3 C15_3 1_555 1_555
C18_3 N1_3 1_555 1_555
H11_3 C18_3 1_555 1_555
H12_3 C18_3 1_555 1_555
H13_3 C19_3 1_555 1_555
N2_3 C44_3 1_555 1_555
C44_3 C18_3 1_555 1_555
H29_3 C44_3 1_555 1_555
H30_3 C44_3 1_555 1_555
C45_3 C15_3 1_555 1_555
H31_3 C45_3 1_555 1_555
H32_3 C45_3 1_555 1_555
C46_3 C8_3 1_555 1_555
H33_3 C46_3 1_555 1_555
H34_3 C46_3 1_555 1_555
Cu8 N2_3 1_555 1_555
O10 Cu8 1_555 1_555
O15_2 Cu8 1_555 1_555
O16_2 Cu6 1_555 1_555
N2_3 C45_3 1_555 1_555
N2_3 C46_3 1_555 1_555
O13 C1_3 1_555 1_555
O4_2 C2_3 1_555 1_555
O5_4 C6_3 1_555 1_555
C1_3 C3_3 1_555 1_555
C2_3 C5_3 1_555 1_555
C3_3 C9_3 1_555 1_555
C4_3 H1_3 1_555 1_555
C5_3 C14_3 1_555 1_555
C6_3 C4_3 1_555 1_555
C7_3 C4_3 1_555 1_555
C10_3 C17_3 1_555 1_555
C11_3 C3_3 1_555 1_555
H5_3 C11_3 1_555 1_555
C12_3 C6_3 1_555 1_555
C13_3 C7_3 1_555 1_555
C16_3 C9_3 1_555 1_555
C17_3 C12_3 1_555 1_555
C20_3 C7_3 1_555 1_555
H14_3 C20_3 1_555 1_555
C21_3 C11_3 1_555 1_555
H15_3 C21_3 1_555 1_555
C22_3 C10_3 1_555 1_555
H16_3 C22_3 1_555 1_555
C23_3 C10_3 1_555 1_555
C13_3 C16_3 1_555 1_555
C13_3 C21_3 1_555 1_555
C14_3 C22_3 1_555 1_555
C17_3 C20_3 1_555 1_555
O10 C24_3 1_555 1_555
O12_2 C25_3 1_555 1_555
O14 C24_3 1_555 1_555
O9_2 C25_3 1_555 1_555
C24_3 C26_3 1_555 1_555
C25_3 C28_3 1_555 1_555
C26_3 C31_3 1_555 1_555
C27_3 H18_3 1_555 1_555
C28_3 C36_3 1_555 1_555
C29_3 O5_5 1_555 1_555
C30_3 C27_3 1_555 1_555
C31_3 H19_3 1_555 1_555
C32_3 C38_3 1_555 1_555
C33_3 C26_3 1_555 1_555
H20_3 C33_3 1_555 1_555
C34_3 C29_3 1_555 1_555
C35_3 C30_3 1_555 1_555
C37_3 C31_3 1_555 1_555
H23_3 C37_3 1_555 1_555
C38_3 C34_3 1_555 1_555
C39_3 C28_3 1_555 1_555
H24_3 C39_3 1_555 1_555
C40_3 C30_3 1_555 1_555
H25_3 C40_3 1_555 1_555
C41_3 C33_3 1_555 1_555
H26_3 C41_3 1_555 1_555
C42_3 C32_3 1_555 1_555
H27_3 C42_3 1_555 1_555
C43_3 C32_3 1_555 1_555
H28_3 C43_3 1_555 1_555
C27_3 C29_3 1_555 1_555
C35_3 C37_3 1_555 1_555
C35_3 C41_3 1_555 1_555
C36_3 C42_3 1_555 1_555
C38_3 C40_3 1_555 1_555
C39_3 C43_3 1_555 1_555
N1_4 Cu9 1_555 1_555
H31_4 C45_4 1_555 1_555
O1_4 C1_4 1_555 1_555
O11 C2_4 1_555 1_555
O13_2 C1_4 1_555 1_555
O15_2 C2_4 1_555 1_555
O5_6 C6_4 1_555 1_555
C1_4 C3_4 1_555 1_555
C2_4 C5_4 1_555 1_555
C3_4 C9_4 1_555 1_555
C4_4 H1_4 1_555 1_555
C5_4 C14_4 1_555 1_555
C6_4 C4_4 1_555 1_555
C7_4 C4_4 1_555 1_555
C9_4 H4_4 1_555 1_555
C10_4 C17_4 1_555 1_555
C11_4 C3_4 1_555 1_555
H5_4 C11_4 1_555 1_555
C12_4 C6_4 1_555 1_555
H6_4 C12_4 1_555 1_555
C13_4 C7_4 1_555 1_555
C14_4 H7_4 1_555 1_555
H8_4 C15_4 1_555 1_555
C16_4 C9_4 1_555 1_555
H10_4 C16_4 1_555 1_555
C17_4 C12_4 1_555 1_555
C19_4 C5_4 1_555 1_555
H13_4 C19_4 1_555 1_555
C20_4 C7_4 1_555 1_555
H14_4 C20_4 1_555 1_555
C21_4 C11_4 1_555 1_555
H15_4 C21_4 1_555 1_555
C22_4 C10_4 1_555 1_555
H16_4 C22_4 1_555 1_555
C23_4 C10_4 1_555 1_555
H17_4 C23_4 1_555 1_555
O14_2 C24_4 1_555 1_555
O16_2 C25_4 1_555 1_555
C24_4 C26_4 1_555 1_555
C25_4 C28_4 1_555 1_555
C26_4 C31_4 1_555 1_555
C27_4 H18_4 1_555 1_555
C28_4 C36_4 1_555 1_555
C29_4 O5_6 1_555 1_555
C30_4 C27_4 1_555 1_555
C32_4 C38_4 1_555 1_555
C33_4 C26_4 1_555 1_555
H20_4 C33_4 1_555 1_555
C34_4 C29_4 1_555 1_555
H21_4 C34_4 1_555 1_555
C35_4 C30_4 1_555 1_555
C36_4 H22_4 1_555 1_555
C37_4 C31_4 1_555 1_555
C38_4 C34_4 1_555 1_555
C40_4 C30_4 1_555 1_555
H25_4 C40_4 1_555 1_555
C41_4 C33_4 1_555 1_555
H26_4 C41_4 1_555 1_555
C42_4 C32_4 1_555 1_555
H27_4 C42_4 1_555 1_555
C43_4 C32_4 1_555 1_555
Cu10 N2_4 1_555 1_555
C13_4 C16_4 1_555 1_555
C13_4 C21_4 1_555 1_555
C14_4 C22_4 1_555 1_555
C17_4 C20_4 1_555 1_555
C19_4 C23_4 1_555 1_555
C27_4 C29_4 1_555 1_555
C35_4 C37_4 1_555 1_555
C35_4 C41_4 1_555 1_555
C36_4 C42_4 1_555 1_555
C38_4 C40_4 1_555 1_555
H3_4 C8_4 1_555 1_555
C46_4 C8_4 1_555 1_555
H33_4 C46_4 1_555 1_555
H11_4 C18_4 1_555 1_555
C44_4 C18_4 1_555 1_555
H30_4 C44_4 1_555 1_555
H24_4 C39_4 1_555 1_555

#END
