
###############################################################################
#
# This file contains modified crystal structure data generated from the
# MOF subset of the Cambridge Structural Database (CSD) v543 
# hosted by the Cambridge Crystallographic Data Centre (CCDC).
#
# This work is licensed under the Creative Commons
# Attribution-NonCommercial-ShareAlike 4.0 International License.
# To view a copy of this license, visit
# http://creativecommons.org/licenses/by-nc-sa/4.0/
# or send a letter to
# Creative Commons, PO Box 1866, Mountain View, CA 94042, USA.
#
# CIF created using the CSD Python API on 29 September 2022
# The structure has been converted into the P1 space group
# The structure has a 3D framework
# The original CSD entry TUHFOU is in the monoclinic crystal system
# The framework has been calculated to contain at least 10.0% void space
# The void calculation uses a probe of radius 1.32A, grid spacing 0.4
#
###############################################################################

data_TUHFOU
_chemical_formula_moiety         '(C184 H136 Cu8 N8 O34)n'
_symmetry_cell_setting           triclinic
_symmetry_space_group_name_H-M   'P 1'
_symmetry_Int_Tables_number      1
_space_group_name_Hall           'P 1'
loop_
_symmetry_equiv_pos_site_id
_symmetry_equiv_pos_as_xyz
1 x,y,z
_cell_length_a                   19.1116(5)
_cell_length_b                   24.0090(8)
_cell_length_c                   22.3650(6)
_cell_angle_alpha                90
_cell_angle_beta                 102.366(2)
_cell_angle_gamma                90
_cell_volume                     10024.1
loop_
_atom_site_label
_atom_site_type_symbol
_atom_site_fract_x
_atom_site_fract_y
_atom_site_fract_z
O5 O 0.250000 0.42789(8) 0.000000
H2 H 0.185036 0.334554 0.014599
H13 H 0.148499 0.147572 0.000520
O6 O 0.53317(7) 0.47021(6) 0.41466(6)
O7 O 0.42106(7) 0.49904(6) 0.41015(6)
O8 O 0.54376(7) 0.09267(5) 0.01920(7)
O9 O 0.43041(7) 0.06585(6) 0.01243(7)
C24 C 0.47911(11) 0.10145(8) 0.01957(8)
C25 C 0.46893(10) 0.47840(8) 0.38736(8)
C26 C 0.45679(11) 0.16050(8) 0.03039(9)
C27 C 0.44863(10) 0.46026(9) 0.32173(8)
C28 C 0.32735(11) 0.42292(8) 0.09653(8)
H18 H 0.306724 0.456216 0.106652
C29 C 0.30297(12) 0.39879(8) 0.03999(8)
C30 C 0.33194(11) 0.35023(8) 0.02432(9)
C31 C 0.38283(11) 0.39774(9) 0.13879(8)
C32 C 0.41267(12) 0.26830(9) 0.05203(9)
C33 C 0.38669(11) 0.32399(9) 0.06611(9)
C34 C 0.49840(11) 0.43779(10) 0.29185(9)
H20 H 0.546686 0.435110 0.312243
C35 C 0.37769(11) 0.46385(10) 0.29063(9)
H21 H 0.343212 0.479338 0.310054
C36 C 0.41231(11) 0.34876(9) 0.12267(9)
H22 H 0.450332 0.331994 0.150495
C37 C 0.40637(11) 0.42171(9) 0.20140(9)
C38 C 0.47757(11) 0.41932(10) 0.23237(9)
H23 H 0.512132 0.404832 0.212385
C39 C 0.38575(12) 0.17458(10) 0.01618(12)
C40 C 0.36400(12) 0.22733(10) 0.02594(12)
H25 H 0.315034 0.236222 0.014798
C41 C 0.50607(12) 0.20069(9) 0.05466(11)
H26 H 0.555180 0.192062 0.063434
C42 C 0.35758(12) 0.44463(10) 0.23095(9)
H27 H 0.309379 0.447397 0.210340
C43 C 0.48375(12) 0.25399(9) 0.06632(11)
H28 H 0.517929 0.280597 0.084265
Cu3 Cu 0.56807(2) 0.48473(2) 0.50254(2)
Cu8 Cu 0.43193(2) 0.51527(2) 0.49746(2)
Cu9 Cu 0.56807(2) 0.01527(2) 0.00254(2)
O2 O 0.07894(7) 0.49904(6) 0.58985(6)
O4 O 0.06959(7) 0.06585(6) 0.98757(7)
O5_2 O 0.250000 0.42789(8) 1.000000
C1 C 0.02089(11) 0.10145(8) 0.98043(8)
C2 C 0.03107(10) 0.47840(8) 0.61264(8)
C3 C 0.04321(11) 0.16050(8) 0.96961(9)
C4 C 0.05137(10) 0.46026(9) 0.67827(8)
C5 C 0.17265(11) 0.42292(8) 0.90347(8)
H1 H 0.193276 0.456216 0.893348
C6 C 0.19703(12) 0.39879(8) 0.96001(8)
C7 C 0.16806(11) 0.35023(8) 0.97568(9)
C8 C 0.11717(11) 0.39774(9) 0.86121(8)
C9 C 0.08733(12) 0.26830(9) 0.94797(9)
C10 C 0.11331(11) 0.32399(9) 0.93389(9)
C12 C 0.00160(11) 0.43779(10) 0.70815(9)
C13 C 0.12231(11) 0.46385(10) 0.70937(9)
H6 H 0.156788 0.479338 0.689946
C14 C 0.08769(11) 0.34876(9) 0.87733(9)
H7 H 0.049668 0.331994 0.849505
C15 C 0.09363(11) 0.42171(9) 0.79860(9)
C16 C 0.02243(11) 0.41932(10) 0.76763(9)
C19 C 0.11425(12) 0.17458(10) 0.98382(12)
C20 C 0.13600(12) 0.22733(10) 0.97406(12)
H14 H 0.184966 0.236222 0.985202
C22 C 0.14242(12) 0.44463(10) 0.76905(9)
H16 H 0.190621 0.447397 0.789660
C23 C 0.01625(12) 0.25399(9) 0.93368(11)
H19 H 0.314964 0.334554 0.985401
H24 H 0.351501 0.147572 0.999480
Cu6 Cu 0.06807(2) 0.51527(2) 0.50254(2)
Cu5 Cu 0.06807(2) 0.98473(2) 0.00254(2)
Cu4 Cu 0.43193(2) 0.98473(2) 0.99746(2)
Cu1 Cu 0.93193(2) 0.48473(2) 0.49746(2)
O1 O 0.96683(7) 0.47021(6) 0.58534(6)
O3 O 0.95624(7) 0.09267(5) 0.98080(7)
N1 N 0.81762(7) 0.47819(6) 0.49873(6)
C11 C 0.77501(10) 0.50631(10) 0.44502(10)
H3 H 0.781752 0.487346 0.407867
H4 H 0.791868 0.544749 0.443704
H5 H 0.953314 0.435110 0.687757
H8 H 0.987868 0.404832 0.787615
C17 C 0.79028(10) 0.42115(9) 0.50027(13)
H9 H 0.816265 0.402283 0.537266
H10 H 0.798716 0.400462 0.464704
C18 C 0.80424(10) 0.50667(11) 0.55375(10)
H11 H 0.821103 0.545252 0.554237
H12 H 0.831322 0.488026 0.590456
C21 C 0.99393(12) 0.20069(9) 0.94534(11)
H15 H 0.944820 0.192062 0.936566
H17 H 0.982071 0.280597 0.915735
N2 N 0.68238(7) 0.47819(6) 0.50127(6)
C44 C 0.72499(10) 0.50631(10) 0.55498(10)
H29 H 0.718248 0.487346 0.592133
H30 H 0.708132 0.544749 0.556296
C45 C 0.70972(10) 0.42115(9) 0.49973(13)
H31 H 0.683735 0.402283 0.462734
H32 H 0.701284 0.400462 0.535296
C46 C 0.69576(10) 0.50667(11) 0.44625(10)
H33 H 0.678897 0.545252 0.445763
H34 H 0.668678 0.488026 0.409544
Cu10 Cu 0.93193(2) 0.01527(2) 0.99746(2)
O11 O 0.92106(7) 0.50096(6) 0.41015(6)
O12 O 0.57894(7) 0.50096(6) 0.58985(6)
O13 O 0.54376(7) 0.40733(5) 0.51920(7)
O14 O 0.95624(7) 0.40733(5) 0.48080(7)
O15 O 0.56959(7) 0.56585(6) 0.48757(7)
O16 O 0.93041(7) 0.56585(6) 0.51243(7)
O6_2 O 0.03317(7) 0.97021(6) 0.91466(6)
O8_2 O 0.04376(7) 0.59267(5) 0.51920(7)
H20_2 H 0.046686 0.935110 0.812243
H23_2 H 0.012132 0.904832 0.712385
C41_2 C 0.00607(12) 0.70069(9) 0.55466(11)
H26_2 H 0.055180 0.692062 0.563434
H28_2 H 0.017929 0.780597 0.584265
C18_2 C 0.30424(10) 0.00667(11) 0.05375(10)
H11_2 H 0.321103 0.045252 0.054237
C44_2 C 0.22499(10) 0.00631(10) 0.05498(10)
H30_2 H 0.208132 0.044749 0.056296
O12_2 O 0.07894(7) 0.00096(6) 0.08985(6)
C11_2 C 0.27501(10) 0.00631(10) 0.94502(10)
H4_2 H 0.291868 0.044749 0.943704
C46_2 C 0.19576(10) 0.00667(11) 0.94625(10)
H33_2 H 0.178897 0.045252 0.945763
O11_2 O 0.42106(7) 0.00096(6) 0.91015(6)
O1_2 O 0.46683(7) 0.97021(6) 0.08534(6)
O2_2 O 0.57894(7) 0.99904(6) 0.08985(6)
O3_2 O 0.45624(7) 0.59267(5) 0.48080(7)
O5_3 O 0.750000 0.92789(8) 0.500000
C1_2 C 0.52089(11) 0.60145(8) 0.48043(8)
C2_2 C 0.53107(10) 0.97840(8) 0.11264(8)
C3_2 C 0.54321(11) 0.66050(8) 0.46961(9)
C4_2 C 0.55137(10) 0.96026(9) 0.17827(8)
C5_2 C 0.67265(11) 0.92292(8) 0.40347(8)
H1_2 H 0.693276 0.956216 0.393348
C6_2 C 0.69703(12) 0.89879(8) 0.46001(8)
C7_2 C 0.66806(11) 0.85023(8) 0.47568(9)
H2_2 H 0.685036 0.834554 0.514599
C8_2 C 0.61717(11) 0.89774(9) 0.36121(8)
C9_2 C 0.58733(12) 0.76830(9) 0.44797(9)
C10_2 C 0.61331(11) 0.82399(9) 0.43389(9)
C12_2 C 0.50160(11) 0.93779(10) 0.20815(9)
H5_2 H 0.453314 0.935110 0.187757
C13_2 C 0.62231(11) 0.96385(10) 0.20937(9)
H6_2 H 0.656788 0.979338 0.189946
C14_2 C 0.58769(11) 0.84876(9) 0.37733(9)
H7_2 H 0.549668 0.831994 0.349505
C15_2 C 0.59363(11) 0.92171(9) 0.29860(9)
C16_2 C 0.52243(11) 0.91932(10) 0.26763(9)
H8_2 H 0.487868 0.904832 0.287615
C17_2 C 0.29028(10) 0.92115(9) 0.00027(13)
H9_2 H 0.316265 0.902283 0.037266
H12_2 H 0.331322 0.988026 0.090456
C19_2 C 0.61425(12) 0.67458(10) 0.48382(12)
H13_2 H 0.648499 0.647572 0.500520
C20_2 C 0.63600(12) 0.72733(10) 0.47406(12)
H14_2 H 0.684966 0.736222 0.485202
C21_2 C 0.49393(12) 0.70069(9) 0.44534(11)
H15_2 H 0.444820 0.692062 0.436566
C22_2 C 0.64242(12) 0.94463(10) 0.26905(9)
H16_2 H 0.690621 0.947397 0.289660
C23_2 C 0.51625(12) 0.75399(9) 0.43368(11)
H17_2 H 0.482071 0.780597 0.415735
O7_2 O 0.92106(7) 0.99904(6) 0.91015(6)
C24_2 C 0.97911(11) 0.60145(8) 0.51957(8)
C25_2 C 0.96893(10) 0.97840(8) 0.88736(8)
C26_2 C 0.95679(11) 0.66050(8) 0.53039(9)
C27_2 C 0.94863(10) 0.96026(9) 0.82173(8)
C28_2 C 0.82735(11) 0.92292(8) 0.59653(8)
H18_2 H 0.806724 0.956216 0.606652
C29_2 C 0.80297(12) 0.89879(8) 0.53999(8)
C30_2 C 0.83194(11) 0.85023(8) 0.52432(9)
H19_2 H 0.814964 0.834554 0.485401
C31_2 C 0.88283(11) 0.89774(9) 0.63879(8)
C32_2 C 0.91267(12) 0.76830(9) 0.55203(9)
C33_2 C 0.88669(11) 0.82399(9) 0.56611(9)
C34_2 C 0.99840(11) 0.93779(10) 0.79185(9)
C35_2 C 0.87769(11) 0.96385(10) 0.79063(9)
H21_2 H 0.843212 0.979338 0.810054
C36_2 C 0.91231(11) 0.84876(9) 0.62267(9)
H22_2 H 0.950332 0.831994 0.650495
C37_2 C 0.90637(11) 0.92171(9) 0.70140(9)
C38_2 C 0.97757(11) 0.91932(10) 0.73237(9)
C39_2 C 0.88575(12) 0.67458(10) 0.51618(12)
H24_2 H 0.851501 0.647572 0.499480
C40_2 C 0.86400(12) 0.72733(10) 0.52594(12)
H25_2 H 0.815034 0.736222 0.514798
C42_2 C 0.85758(12) 0.94463(10) 0.73095(9)
H27_2 H 0.809379 0.947397 0.710340
C43_2 C 0.98375(12) 0.75399(9) 0.56632(11)
N2_2 N 0.18238(7) 0.97819(6) 0.00127(6)
H29_2 H 0.218248 0.987346 0.092133
H32_2 H 0.201284 0.900462 0.035296
O13_2 O 0.04376(7) 0.90733(5) 0.01920(7)
N1_2 N 0.31762(7) 0.97819(6) 0.99873(6)
H3_2 H 0.281752 0.987346 0.907867
H10_2 H 0.298716 0.900462 0.964704
C45_2 C 0.20972(10) 0.92115(9) 0.99973(13)
H31_2 H 0.183735 0.902283 0.962734
H34_2 H 0.168678 0.988026 0.909544
O14_2 O 0.45624(7) 0.90733(5) 0.98080(7)
O1_3 O 0.03317(7) 0.52979(6) 0.41466(6)
N1_3 N 0.18238(7) 0.52181(6) 0.50127(6)
C11_3 C 0.22499(10) 0.49369(10) 0.55498(10)
H3_3 H 0.218248 0.512654 0.592133
H4_3 H 0.208132 0.455251 0.556296
H5_3 H 0.046686 0.564890 0.312243
H8_3 H 0.012132 0.595168 0.212385
C17_3 C 0.20972(10) 0.57885(9) 0.49973(13)
H9_3 H 0.183735 0.597717 0.462734
H10_3 H 0.201284 0.599538 0.535296
C18_3 C 0.19576(10) 0.49333(11) 0.44625(10)
H11_3 H 0.178897 0.454748 0.445763
H12_3 H 0.168678 0.511974 0.409544
C21_3 C 0.00607(12) 0.79931(9) 0.05466(11)
H15_3 H 0.055180 0.807938 0.063434
H17_3 H 0.017929 0.719403 0.084265
N2_3 N 0.31762(7) 0.52181(6) 0.49873(6)
C44_3 C 0.27501(10) 0.49369(10) 0.44502(10)
H29_3 H 0.281752 0.512654 0.407867
H30_3 H 0.291868 0.455251 0.443704
C45_3 C 0.29028(10) 0.57885(9) 0.50027(13)
H31_3 H 0.316265 0.597717 0.537266
H32_3 H 0.298716 0.599538 0.464704
C46_3 C 0.30424(10) 0.49333(11) 0.55375(10)
H33_3 H 0.321103 0.454748 0.554237
H34_3 H 0.331322 0.511974 0.590456
O10 O 0.46683(7) 0.52979(6) 0.58534(6)
O15_2 O 0.43041(7) 0.43415(6) 0.51243(7)
O16_2 O 0.06959(7) 0.43415(6) 0.48757(7)
O4_2 O 0.93041(7) 0.93415(6) 0.01243(7)
O5_4 O 0.750000 0.57211(8) 0.000000
C1_3 C 0.97911(11) 0.89855(8) 0.01957(8)
C2_3 C 0.96893(10) 0.52160(8) 0.38736(8)
C3_3 C 0.95679(11) 0.83950(8) 0.03039(9)
C4_3 C 0.94863(10) 0.53974(9) 0.32173(8)
C5_3 C 0.82735(11) 0.57708(8) 0.09653(8)
H1_3 H 0.806724 0.543784 0.106652
C6_3 C 0.80297(12) 0.60121(8) 0.03999(8)
C7_3 C 0.83194(11) 0.64977(8) 0.02432(9)
C8_3 C 0.88283(11) 0.60226(9) 0.13879(8)
C9_3 C 0.91267(12) 0.73170(9) 0.05203(9)
C10_3 C 0.88669(11) 0.67601(9) 0.06611(9)
C12_3 C 0.99840(11) 0.56221(10) 0.29185(9)
C13_3 C 0.87769(11) 0.53615(10) 0.29063(9)
H6_3 H 0.843212 0.520662 0.310054
C14_3 C 0.91231(11) 0.65124(9) 0.12267(9)
H7_3 H 0.950332 0.668006 0.150495
C15_3 C 0.90637(11) 0.57829(9) 0.20140(9)
C16_3 C 0.97757(11) 0.58068(10) 0.23237(9)
C19_3 C 0.88575(12) 0.82542(10) 0.01618(12)
C20_3 C 0.86400(12) 0.77267(10) 0.02594(12)
H14_3 H 0.815034 0.763778 0.014798
C22_3 C 0.85758(12) 0.55537(10) 0.23095(9)
H16_3 H 0.809379 0.552603 0.210340
C23_3 C 0.98375(12) 0.74601(9) 0.06632(11)
H19_3 H 0.685036 0.665446 0.014599
H24_3 H 0.648499 0.852428 0.000520
O5_5 O 0.750000 0.57211(8) 1.000000
H2_3 H 0.814964 0.665446 0.985401
H13_3 H 0.851501 0.852428 0.999480
O9_2 O 0.56959(7) 0.93415(6) 0.98757(7)
C24_3 C 0.52089(11) 0.89855(8) 0.98043(8)
C25_3 C 0.53107(10) 0.52160(8) 0.61264(8)
C26_3 C 0.54321(11) 0.83950(8) 0.96961(9)
C27_3 C 0.55137(10) 0.53974(9) 0.67827(8)
C28_3 C 0.67265(11) 0.57708(8) 0.90347(8)
H18_3 H 0.693276 0.543784 0.893348
C29_3 C 0.69703(12) 0.60121(8) 0.96001(8)
C30_3 C 0.66806(11) 0.64977(8) 0.97568(9)
C31_3 C 0.61717(11) 0.60226(9) 0.86121(8)
C32_3 C 0.58733(12) 0.73170(9) 0.94797(9)
C33_3 C 0.61331(11) 0.67601(9) 0.93389(9)
C34_3 C 0.50160(11) 0.56221(10) 0.70815(9)
H20_3 H 0.453314 0.564890 0.687757
C35_3 C 0.62231(11) 0.53615(10) 0.70937(9)
H21_3 H 0.656788 0.520662 0.689946
C36_3 C 0.58769(11) 0.65124(9) 0.87733(9)
H22_3 H 0.549668 0.668006 0.849505
C37_3 C 0.59363(11) 0.57829(9) 0.79860(9)
C38_3 C 0.52243(11) 0.58068(10) 0.76763(9)
H23_3 H 0.487868 0.595168 0.787615
C39_3 C 0.61425(12) 0.82542(10) 0.98382(12)
C40_3 C 0.63600(12) 0.77267(10) 0.97406(12)
H25_3 H 0.684966 0.763778 0.985202
C41_3 C 0.49393(12) 0.79931(9) 0.94534(11)
H26_3 H 0.444820 0.807938 0.936566
C42_3 C 0.64242(12) 0.55537(10) 0.76905(9)
H27_3 H 0.690621 0.552603 0.789660
C43_3 C 0.51625(12) 0.74601(9) 0.93368(11)
H28_3 H 0.482071 0.719403 0.915735
N1_4 N 0.68238(7) 0.02181(6) 0.00127(6)
H3_4 H 0.718248 0.012654 0.092133
H10_4 H 0.701284 0.099538 0.035296
C45_4 C 0.79028(10) 0.07885(9) 0.00027(13)
H31_4 H 0.816265 0.097717 0.037266
H34_4 H 0.831322 0.011974 0.090456
O10_2 O 0.96683(7) 0.02979(6) 0.08534(6)
O1_4 O 0.53317(7) 0.02979(6) 0.91466(6)
O5_6 O 0.250000 0.07211(8) 0.500000
C1_4 C 0.47911(11) 0.39855(8) 0.51957(8)
C2_4 C 0.46893(10) 0.02160(8) 0.88736(8)
C3_4 C 0.45679(11) 0.33950(8) 0.53039(9)
C4_4 C 0.44863(10) 0.03974(9) 0.82173(8)
C5_4 C 0.32735(11) 0.07708(8) 0.59653(8)
H1_4 H 0.306724 0.043784 0.606652
C6_4 C 0.30297(12) 0.10121(8) 0.53999(8)
C7_4 C 0.33194(11) 0.14977(8) 0.52432(9)
H2_4 H 0.314964 0.165446 0.485401
C8_4 C 0.38283(11) 0.10226(9) 0.63879(8)
C9_4 C 0.41267(12) 0.23170(9) 0.55203(9)
C10_4 C 0.38669(11) 0.17601(9) 0.56611(9)
C12_4 C 0.49840(11) 0.06221(10) 0.79185(9)
H5_4 H 0.546686 0.064890 0.812243
C13_4 C 0.37769(11) 0.03615(10) 0.79063(9)
H6_4 H 0.343212 0.020662 0.810054
C14_4 C 0.41231(11) 0.15124(9) 0.62267(9)
H7_4 H 0.450332 0.168006 0.650495
C15_4 C 0.40637(11) 0.07829(9) 0.70140(9)
C16_4 C 0.47757(11) 0.08068(10) 0.73237(9)
H8_4 H 0.512132 0.095168 0.712385
C17_4 C 0.70972(10) 0.07885(9) 0.99973(13)
H9_4 H 0.683735 0.097717 0.962734
H12_4 H 0.668678 0.011974 0.909544
C19_4 C 0.38575(12) 0.32542(10) 0.51618(12)
H13_4 H 0.351501 0.352428 0.499480
C20_4 C 0.36400(12) 0.27267(10) 0.52594(12)
H14_4 H 0.315034 0.263778 0.514798
C21_4 C 0.50607(12) 0.29931(9) 0.55466(11)
H15_4 H 0.555180 0.307938 0.563434
C22_4 C 0.35758(12) 0.05537(10) 0.73095(9)
H16_4 H 0.309379 0.052603 0.710340
C23_4 C 0.48375(12) 0.24601(9) 0.56632(11)
H17_4 H 0.517929 0.219403 0.584265
C24_4 C 0.02089(11) 0.39855(8) 0.48043(8)
C25_4 C 0.03107(10) 0.02160(8) 0.11264(8)
C26_4 C 0.04321(11) 0.33950(8) 0.46961(9)
C27_4 C 0.05137(10) 0.03974(9) 0.17827(8)
C28_4 C 0.17265(11) 0.07708(8) 0.40347(8)
H18_4 H 0.193276 0.043784 0.393348
C29_4 C 0.19703(12) 0.10121(8) 0.46001(8)
C30_4 C 0.16806(11) 0.14977(8) 0.47568(9)
H19_4 H 0.185036 0.165446 0.514599
C31_4 C 0.11717(11) 0.10226(9) 0.36121(8)
C32_4 C 0.08733(12) 0.23170(9) 0.44797(9)
C33_4 C 0.11331(11) 0.17601(9) 0.43389(9)
C34_4 C 0.00160(11) 0.06221(10) 0.20815(9)
C35_4 C 0.12231(11) 0.03615(10) 0.20937(9)
H21_4 H 0.156788 0.020662 0.189946
C36_4 C 0.08769(11) 0.15124(9) 0.37733(9)
H22_4 H 0.049668 0.168006 0.349505
C37_4 C 0.09363(11) 0.07829(9) 0.29860(9)
C38_4 C 0.02243(11) 0.08068(10) 0.26763(9)
C39_4 C 0.11425(12) 0.32542(10) 0.48382(12)
H24_4 H 0.148499 0.352428 0.500520
C40_4 C 0.13600(12) 0.27267(10) 0.47406(12)
H25_4 H 0.184966 0.263778 0.485202
C42_4 C 0.14242(12) 0.05537(10) 0.26905(9)
H27_4 H 0.190621 0.052603 0.289660
C43_4 C 0.01625(12) 0.24601(9) 0.43368(11)
N2_4 N 0.81762(7) 0.02181(6) 0.99873(6)
H29_4 H 0.781752 0.012654 0.907867
H32_4 H 0.798716 0.099538 0.964704
C11_4 C 0.72499(10) 0.99369(10) 0.05498(10)
H4_4 H 0.708132 0.955251 0.056296
C46_4 C 0.80424(10) 0.99333(11) 0.05375(10)
H33_4 H 0.821103 0.954748 0.054237
C18_4 C 0.69576(10) 0.99333(11) 0.94625(10)
H11_4 H 0.678897 0.954748 0.945763
C44_4 C 0.77501(10) 0.99369(10) 0.94502(10)
H30_4 H 0.791868 0.955251 0.943704
H20_4 H 0.953314 0.064890 0.187757
H23_4 H 0.987868 0.095168 0.287615
C41_4 C 0.99393(12) 0.29931(9) 0.44534(11)
H26_4 H 0.944820 0.307938 0.436566
H28_4 H 0.982071 0.219403 0.415735
loop_
_geom_bond_atom_site_label_1
_geom_bond_atom_site_label_2
_geom_bond_site_symmetry_1
_geom_bond_site_symmetry_2
O6 C25 1_555 1_555
O7 C25 1_555 1_555
O8 C24 1_555 1_555
O9 C24 1_555 1_555
C24 C26 1_555 1_555
C25 C27 1_555 1_555
C26 C39 1_555 1_555
C27 C34 1_555 1_555
C28 H18 1_555 1_555
C29 O5 1_555 1_555
C30 C29 1_555 1_555
C31 C28 1_555 1_555
C32 C33 1_555 1_555
C33 C30 1_555 1_555
C34 H20 1_555 1_555
C35 C27 1_555 1_555
H21 C35 1_555 1_555
C36 C31 1_555 1_555
H22 C36 1_555 1_555
C37 C31 1_555 1_555
C38 C34 1_555 1_555
H23 C38 1_555 1_555
C40 C32 1_555 1_555
H25 C40 1_555 1_555
C41 C26 1_555 1_555
H26 C41 1_555 1_555
C42 C35 1_555 1_555
H27 C42 1_555 1_555
C43 C32 1_555 1_555
H28 C43 1_555 1_555
Cu3 O6 1_555 1_555
Cu8 O7 1_555 1_555
Cu9 O8 1_555 1_555
C28 C29 1_555 1_555
C33 C36 1_555 1_555
C37 C38 1_555 1_555
C37 C42 1_555 1_555
C39 C40 1_555 1_555
C41 C43 1_555 1_555
Cu3 Cu8 1_555 1_555
O2 C2 1_555 1_555
O4 C1 1_555 1_555
O5_2 C6 1_555 1_555
C1 C3 1_555 1_555
C2 C4 1_555 1_555
C3 C19 1_555 1_555
C4 C12 1_555 1_555
C5 H1 1_555 1_555
C6 C5 1_555 1_555
C7 C6 1_555 1_555
C8 C5 1_555 1_555
C9 C10 1_555 1_555
C10 C7 1_555 1_555
C13 C4 1_555 1_555
H6 C13 1_555 1_555
C14 C8 1_555 1_555
H7 C14 1_555 1_555
C15 C8 1_555 1_555
C16 C12 1_555 1_555
C20 C9 1_555 1_555
H14 C20 1_555 1_555
C22 C13 1_555 1_555
H16 C22 1_555 1_555
C23 C9 1_555 1_555
O2 Cu6 1_555 1_555
C10 C14 1_555 1_555
C15 C16 1_555 1_555
C15 C22 1_555 1_555
C19 C20 1_555 1_555
Cu1 O1 1_555 1_555
N1 Cu1 1_555 1_555
C11 N1 1_555 1_555
H3 C11 1_555 1_555
H4 C11 1_555 1_555
C17 N1 1_555 1_555
H9 C17 1_555 1_555
H10 C17 1_555 1_555
C18 N1 1_555 1_555
H11 C18 1_555 1_555
H12 C18 1_555 1_555
H15 C21 1_555 1_555
N2 C44 1_555 1_555
C44 C18 1_555 1_555
H29 C44 1_555 1_555
H30 C44 1_555 1_555
C45 C17 1_555 1_555
H31 C45 1_555 1_555
H32 C45 1_555 1_555
C46 C11 1_555 1_555
H33 C46 1_555 1_555
H34 C46 1_555 1_555
Cu3 N2 1_555 1_555
Cu10 O3 1_555 1_555
O11 Cu1 1_555 1_555
O12 Cu3 1_555 1_555
O13 Cu3 1_555 1_555
O14 Cu1 1_555 1_555
O15 Cu3 1_555 1_555
O16 Cu1 1_555 1_555
N2 C45 1_555 1_555
N2 C46 1_555 1_555
H26_2 C41_2 1_555 1_555
Cu6 O8_2 1_555 1_555
H11_2 C18_2 1_555 1_555
C44_2 C18_2 1_555 1_555
H30_2 C44_2 1_555 1_555
H4_2 C11_2 1_555 1_555
C46_2 C11_2 1_555 1_555
H33_2 C46_2 1_555 1_555
O1_2 C2_2 1_555 1_555
O2_2 C2_2 1_555 1_555
O3_2 C1_2 1_555 1_555
O15 C1_2 1_555 1_555
O5_3 C6_2 1_555 1_555
C1_2 C3_2 1_555 1_555
C2_2 C4_2 1_555 1_555
C3_2 C19_2 1_555 1_555
C4_2 C12_2 1_555 1_555
C5_2 H1_2 1_555 1_555
C6_2 C5_2 1_555 1_555
C7_2 C6_2 1_555 1_555
H2_2 C7_2 1_555 1_555
C8_2 C5_2 1_555 1_555
C9_2 C10_2 1_555 1_555
C10_2 C7_2 1_555 1_555
C12_2 H5_2 1_555 1_555
C13_2 C4_2 1_555 1_555
H6_2 C13_2 1_555 1_555
C14_2 C8_2 1_555 1_555
H7_2 C14_2 1_555 1_555
C15_2 C8_2 1_555 1_555
C16_2 C12_2 1_555 1_555
H8_2 C16_2 1_555 1_555
H9_2 C17_2 1_555 1_555
C19_2 H13_2 1_555 1_555
C20_2 C9_2 1_555 1_555
H14_2 C20_2 1_555 1_555
C21_2 C3_2 1_555 1_555
H15_2 C21_2 1_555 1_555
C22_2 C13_2 1_555 1_555
H16_2 C22_2 1_555 1_555
C23_2 C9_2 1_555 1_555
H17_2 C23_2 1_555 1_555
O7_2 C25_2 1_555 1_555
O16 C24_2 1_555 1_555
C24_2 C26_2 1_555 1_555
C25_2 C27_2 1_555 1_555
C26_2 C39_2 1_555 1_555
C27_2 C34_2 1_555 1_555
C28_2 H18_2 1_555 1_555
C29_2 O5_3 1_555 1_555
C30_2 C29_2 1_555 1_555
H19_2 C30_2 1_555 1_555
C31_2 C28_2 1_555 1_555
C32_2 C33_2 1_555 1_555
C33_2 C30_2 1_555 1_555
C35_2 C27_2 1_555 1_555
H21_2 C35_2 1_555 1_555
C36_2 C31_2 1_555 1_555
H22_2 C36_2 1_555 1_555
C37_2 C31_2 1_555 1_555
C38_2 C34_2 1_555 1_555
C39_2 H24_2 1_555 1_555
C40_2 C32_2 1_555 1_555
H25_2 C40_2 1_555 1_555
C42_2 C35_2 1_555 1_555
H27_2 C42_2 1_555 1_555
C43_2 C32_2 1_555 1_555
Cu5 N2_2 1_555 1_555
Cu8 O3_2 1_555 1_555
O13_2 Cu5 1_555 1_555
C10_2 C14_2 1_555 1_555
C15_2 C16_2 1_555 1_555
C15_2 C22_2 1_555 1_555
C19_2 C20_2 1_555 1_555
C21_2 C23_2 1_555 1_555
C28_2 C29_2 1_555 1_555
C33_2 C36_2 1_555 1_555
C37_2 C38_2 1_555 1_555
C37_2 C42_2 1_555 1_555
C39_2 C40_2 1_555 1_555
N1_2 Cu4 1_555 1_555
H31_2 C45_2 1_555 1_555
O14_2 Cu4 1_555 1_555
Cu6 O1_3 1_555 1_555
N1_3 Cu6 1_555 1_555
C11_3 N1_3 1_555 1_555
H3_3 C11_3 1_555 1_555
H4_3 C11_3 1_555 1_555
C17_3 N1_3 1_555 1_555
H9_3 C17_3 1_555 1_555
H10_3 C17_3 1_555 1_555
C18_3 N1_3 1_555 1_555
H11_3 C18_3 1_555 1_555
H12_3 C18_3 1_555 1_555
H15_3 C21_3 1_555 1_555
N2_3 C44_3 1_555 1_555
C44_3 C18_3 1_555 1_555
H29_3 C44_3 1_555 1_555
H30_3 C44_3 1_555 1_555
C45_3 C17_3 1_555 1_555
H31_3 C45_3 1_555 1_555
H32_3 C45_3 1_555 1_555
C46_3 C11_3 1_555 1_555
H33_3 C46_3 1_555 1_555
H34_3 C46_3 1_555 1_555
Cu8 N2_3 1_555 1_555
O10 Cu8 1_555 1_555
O15_2 Cu8 1_555 1_555
O16_2 Cu6 1_555 1_555
N2_3 C45_3 1_555 1_555
N2_3 C46_3 1_555 1_555
O11 C2_3 1_555 1_555
O4_2 C1_3 1_555 1_555
O5_4 C6_3 1_555 1_555
C1_3 C3_3 1_555 1_555
C2_3 C4_3 1_555 1_555
C3_3 C19_3 1_555 1_555
C4_3 C12_3 1_555 1_555
C5_3 H1_3 1_555 1_555
C6_3 C5_3 1_555 1_555
C7_3 C6_3 1_555 1_555
C8_3 C5_3 1_555 1_555
C9_3 C10_3 1_555 1_555
C10_3 C7_3 1_555 1_555
C13_3 C4_3 1_555 1_555
H6_3 C13_3 1_555 1_555
C14_3 C8_3 1_555 1_555
H7_3 C14_3 1_555 1_555
C15_3 C8_3 1_555 1_555
C16_3 C12_3 1_555 1_555
C20_3 C9_3 1_555 1_555
H14_3 C20_3 1_555 1_555
C22_3 C13_3 1_555 1_555
H16_3 C22_3 1_555 1_555
C23_3 C9_3 1_555 1_555
C10_3 C14_3 1_555 1_555
C15_3 C16_3 1_555 1_555
C15_3 C22_3 1_555 1_555
C19_3 C20_3 1_555 1_555
O10 C25_3 1_555 1_555
O12 C25_3 1_555 1_555
O14_2 C24_3 1_555 1_555
O9_2 C24_3 1_555 1_555
C24_3 C26_3 1_555 1_555
C25_3 C27_3 1_555 1_555
C26_3 C39_3 1_555 1_555
C27_3 C34_3 1_555 1_555
C28_3 H18_3 1_555 1_555
C29_3 O5_5 1_555 1_555
C30_3 C29_3 1_555 1_555
C31_3 C28_3 1_555 1_555
C32_3 C33_3 1_555 1_555
C33_3 C30_3 1_555 1_555
C34_3 H20_3 1_555 1_555
C35_3 C27_3 1_555 1_555
H21_3 C35_3 1_555 1_555
C36_3 C31_3 1_555 1_555
H22_3 C36_3 1_555 1_555
C37_3 C31_3 1_555 1_555
C38_3 C34_3 1_555 1_555
H23_3 C38_3 1_555 1_555
C40_3 C32_3 1_555 1_555
H25_3 C40_3 1_555 1_555
C41_3 C26_3 1_555 1_555
H26_3 C41_3 1_555 1_555
C42_3 C35_3 1_555 1_555
H27_3 C42_3 1_555 1_555
C43_3 C32_3 1_555 1_555
H28_3 C43_3 1_555 1_555
C28_3 C29_3 1_555 1_555
C33_3 C36_3 1_555 1_555
C37_3 C38_3 1_555 1_555
C37_3 C42_3 1_555 1_555
C39_3 C40_3 1_555 1_555
C41_3 C43_3 1_555 1_555
N1_4 Cu9 1_555 1_555
H31_4 C45_4 1_555 1_555
O1_4 C2_4 1_555 1_555
O11_2 C2_4 1_555 1_555
O13 C1_4 1_555 1_555
O15_2 C1_4 1_555 1_555
O5_6 C6_4 1_555 1_555
C1_4 C3_4 1_555 1_555
C2_4 C4_4 1_555 1_555
C3_4 C19_4 1_555 1_555
C4_4 C12_4 1_555 1_555
C5_4 H1_4 1_555 1_555
C6_4 C5_4 1_555 1_555
C7_4 C6_4 1_555 1_555
H2_4 C7_4 1_555 1_555
C8_4 C5_4 1_555 1_555
C9_4 C10_4 1_555 1_555
C10_4 C7_4 1_555 1_555
C12_4 H5_4 1_555 1_555
C13_4 C4_4 1_555 1_555
H6_4 C13_4 1_555 1_555
C14_4 C8_4 1_555 1_555
H7_4 C14_4 1_555 1_555
C15_4 C8_4 1_555 1_555
C16_4 C12_4 1_555 1_555
H8_4 C16_4 1_555 1_555
H9_4 C17_4 1_555 1_555
C19_4 H13_4 1_555 1_555
C20_4 C9_4 1_555 1_555
H14_4 C20_4 1_555 1_555
C21_4 C3_4 1_555 1_555
H15_4 C21_4 1_555 1_555
C22_4 C13_4 1_555 1_555
H16_4 C22_4 1_555 1_555
C23_4 C9_4 1_555 1_555
H17_4 C23_4 1_555 1_555
O12_2 C25_4 1_555 1_555
O16_2 C24_4 1_555 1_555
C24_4 C26_4 1_555 1_555
C25_4 C27_4 1_555 1_555
C26_4 C39_4 1_555 1_555
C27_4 C34_4 1_555 1_555
C28_4 H18_4 1_555 1_555
C29_4 O5_6 1_555 1_555
C30_4 C29_4 1_555 1_555
H19_4 C30_4 1_555 1_555
C31_4 C28_4 1_555 1_555
C32_4 C33_4 1_555 1_555
C33_4 C30_4 1_555 1_555
C35_4 C27_4 1_555 1_555
H21_4 C35_4 1_555 1_555
C36_4 C31_4 1_555 1_555
H22_4 C36_4 1_555 1_555
C37_4 C31_4 1_555 1_555
C38_4 C34_4 1_555 1_555
C39_4 H24_4 1_555 1_555
C40_4 C32_4 1_555 1_555
H25_4 C40_4 1_555 1_555
C42_4 C35_4 1_555 1_555
H27_4 C42_4 1_555 1_555
C43_4 C32_4 1_555 1_555
Cu10 N2_4 1_555 1_555
C10_4 C14_4 1_555 1_555
C15_4 C16_4 1_555 1_555
C15_4 C22_4 1_555 1_555
C19_4 C20_4 1_555 1_555
C21_4 C23_4 1_555 1_555
C28_4 C29_4 1_555 1_555
C33_4 C36_4 1_555 1_555
C37_4 C38_4 1_555 1_555
C37_4 C42_4 1_555 1_555
C39_4 C40_4 1_555 1_555
H4_4 C11_4 1_555 1_555
C46_4 C11_4 1_555 1_555
H33_4 C46_4 1_555 1_555
H11_4 C18_4 1_555 1_555
C44_4 C18_4 1_555 1_555
H30_4 C44_4 1_555 1_555
H26_4 C41_4 1_555 1_555

#END
