
###############################################################################
#
# This file contains modified crystal structure data generated from the
# MOF subset of the Cambridge Structural Database (CSD) v543 
# hosted by the Cambridge Crystallographic Data Centre (CCDC).
#
# This work is licensed under the Creative Commons
# Attribution-NonCommercial-ShareAlike 4.0 International License.
# To view a copy of this license, visit
# http://creativecommons.org/licenses/by-nc-sa/4.0/
# or send a letter to
# Creative Commons, PO Box 1866, Mountain View, CA 94042, USA.
#
# CIF created using the CSD Python API on 29 September 2022
# The structure has been converted into the P1 space group
# The structure has a 3D framework
# The original CSD entry TUHFAG is in the monoclinic crystal system
# The framework has been calculated to contain at least 10.0% void space
# The void calculation uses a probe of radius 1.32A, grid spacing 0.4
#
###############################################################################

data_TUHFAG
_chemical_formula_moiety         '(C184 H136 Cu6 N6 O32)n'
_symmetry_cell_setting           triclinic
_symmetry_space_group_name_H-M   'P 1'
_symmetry_Int_Tables_number      1
_space_group_name_Hall           'P 1'
loop_
_symmetry_equiv_pos_site_id
_symmetry_equiv_pos_as_xyz
1 x,y,z
_cell_length_a                   19.006(4)
_cell_length_b                   19.429(4)
_cell_length_c                   23.348(10)
_cell_angle_alpha                90
_cell_angle_beta                 105.00(3)
_cell_angle_gamma                90
_cell_volume                     8327.88
loop_
_atom_site_label
_atom_site_type_symbol
_atom_site_fract_x
_atom_site_fract_y
_atom_site_fract_z
Cu1 Cu 0.06831(2) 0.01705(2) 0.00147(2)
N1 N 0.18185(11) 0.02392(12) 0.00046(8)
H4 H 0.224586 0.016509 0.089166
H6 H 0.200245 0.121515 0.030195
C45 C 0.29061(15) 0.09464(17) 0.00214(15)
H32 H 0.316554 0.116071 0.039103
H33 H 0.338542 0.005596 0.087703
O10 O 0.08400(11) 0.02001(12) 0.08742(8)
O15 O 0.04087(12) 0.11469(11) 0.00058(9)
O1 O 0.02930(10) 0.01380(11) 0.91507(7)
O5 O 0.04087(12) 0.38531(11) 0.50058(9)
C10 C 0.20939(15) 0.09464(17) 0.99786(15)
H7 H 0.183446 0.116071 0.960897
H12 H 0.046071 0.019773 0.813204
H13 H 0.161458 0.005596 0.912297
C21 C 0.00751(17) 0.25237(18) 0.53903(13)
H15 H 0.056376 0.264834 0.550995
H16 H 0.013197 0.030058 0.710663
H17 H 0.020202 0.158264 0.574813
N2 N 0.31815(11) 0.02392(12) 0.99954(8)
H30 H 0.275414 0.016509 0.910834
H31 H 0.299755 0.121515 0.969805
Cu3 Cu 0.43169(2) 0.01705(2) 0.99853(2)
Cu9 Cu 0.06831(2) 0.48295(2) 0.50147(2)
C8 C 0.22753(15) 0.99041(17) 0.05444(12)
H3 H 0.209223 0.944439 0.058020
C46 C 0.30731(15) 0.98612(18) 0.05179(12)
H34 H 0.320870 0.938261 0.049489
O13 O 0.07418(10) 0.91624(12) 0.00523(9)
C20 C 0.19269(15) 0.98612(18) 0.94821(12)
H14 H 0.179130 0.938261 0.950511
C44 C 0.27247(15) 0.99041(17) 0.94556(12)
H29 H 0.290777 0.944439 0.941980
O4 O 0.92582(10) 0.41624(12) 0.49477(9)
C4 C 0.95565(17) 0.29870(16) 0.50705(12)
C5 C 0.80497(18) 0.00662(15) 0.53698(11)
C6 C 0.83431(17) 0.06250(15) 0.51571(11)
H2 H 0.818271 0.074080 0.475796
C7 C 0.88340(17) 0.02544(15) 0.63391(11)
C11 C 0.90629(16) 0.01112(15) 0.69852(10)
C12 C 0.91309(16) 0.08151(16) 0.61193(11)
H8 H 0.950780 0.105960 0.637029
C13 C 0.91354(17) 0.16757(16) 0.53399(11)
C14 C 0.88779(17) 0.10197(16) 0.55330(11)
C15 C 0.86349(17) 0.21290(16) 0.49766(13)
H9 H 0.815942 0.198344 0.481160
C17 C 0.97621(16) 0.37257(16) 0.49994(11)
C18 C 0.88355(16) 0.27764(17) 0.48630(13)
H11 H 0.848926 0.307968 0.464575
C19 C 0.99774(16) 0.01399(16) 0.79209(11)
C22 C 0.97786(16) 0.01998(17) 0.73050(11)
C23 C 0.98573(19) 0.18839(18) 0.55260(14)
O6 O 0.47070(10) 0.01380(11) 0.08493(7)
O8 O 0.57418(10) 0.41624(12) 0.50523(9)
O9 O 0.45913(12) 0.38531(11) 0.49942(9)
C27 C 0.54435(17) 0.29870(16) 0.49295(12)
C28 C 0.69503(18) 0.00662(15) 0.46302(11)
C29 C 0.66569(17) 0.06250(15) 0.48429(11)
H19 H 0.681729 0.074080 0.524204
C30 C 0.61660(17) 0.02544(15) 0.36609(11)
C32 C 0.59371(16) 0.01112(15) 0.30148(10)
C33 C 0.58691(16) 0.08151(16) 0.38807(11)
H21 H 0.549220 0.105960 0.362971
C34 C 0.58646(17) 0.16757(16) 0.46601(11)
C35 C 0.61221(17) 0.10197(16) 0.44670(11)
C36 C 0.63651(17) 0.21290(16) 0.50234(13)
H22 H 0.684058 0.198344 0.518840
C38 C 0.52379(16) 0.37257(16) 0.50006(11)
C39 C 0.61645(16) 0.27764(17) 0.51370(13)
H24 H 0.651074 0.307968 0.535425
C40 C 0.50226(16) 0.01399(16) 0.20791(11)
H25 H 0.453929 0.019773 0.186796
C41 C 0.49249(17) 0.25237(18) 0.46097(13)
H26 H 0.443624 0.264834 0.449005
C42 C 0.52214(16) 0.01998(17) 0.26950(11)
H27 H 0.486803 0.030058 0.289337
C43 C 0.51427(19) 0.18839(18) 0.44740(14)
H28 H 0.479798 0.158264 0.425187
Cu4 Cu 0.56831(2) 0.51705(2) 0.50147(2)
Cu5 Cu 0.93169(2) 0.51705(2) 0.49853(2)
Cu8 Cu 0.43169(2) 0.48295(2) 0.49853(2)
O11 O 0.41600(11) 0.02001(12) 0.91258(8)
O14 O 0.45913(12) 0.11469(11) 0.99942(9)
O2 O 0.91600(11) 0.97999(12) 0.91258(8)
O3 O 0.750000 0.96760(14) 0.500000
C1 C 0.96507(14) 0.99726(15) 0.88806(11)
C2 C 0.82852(17) 0.98704(15) 0.59613(10)
H1 H 0.808142 0.949178 0.610210
C3 C 0.94480(15) 0.99930(15) 0.82177(10)
C9 C 0.87337(16) 0.98865(16) 0.79017(11)
H5 H 0.838160 0.977698 0.809893
C16 C 0.85447(17) 0.99441(17) 0.72860(11)
H10 H 0.806473 0.986966 0.707356
O7 O 0.58400(11) 0.97999(12) 0.08742(8)
C24 C 0.53493(14) 0.99726(15) 0.11194(11)
C25 C 0.67148(17) 0.98704(15) 0.40387(10)
H18 H 0.691858 0.949178 0.389790
C26 C 0.55520(15) 0.99930(15) 0.17823(10)
C31 C 0.62663(16) 0.98865(16) 0.20983(11)
H20 H 0.661840 0.977698 0.190107
C37 C 0.64553(17) 0.99441(17) 0.27140(11)
H23 H 0.693527 0.986966 0.292644
Cu6 Cu 0.93169(2) 0.98295(2) 0.99853(2)
Cu7 Cu 0.56831(2) 0.98295(2) 0.00147(2)
O12 O 0.42582(10) 0.91624(12) 0.99477(9)
O1_2 O 0.52930(10) 0.51380(11) 0.41507(7)
O2_2 O 0.41600(11) 0.47999(12) 0.41258(8)
O3_2 O 0.250000 0.46760(14) 0.000000
O5_2 O 0.54087(12) 0.88531(11) 0.00058(9)
N1_2 N 0.68185(11) 0.52392(12) 0.50046(8)
C1_2 C 0.46507(14) 0.49726(15) 0.38806(11)
C2_2 C 0.32852(17) 0.48704(15) 0.09613(10)
H1_2 H 0.308142 0.449178 0.110210
C3_2 C 0.44480(15) 0.49930(15) 0.32177(10)
C4_2 C 0.45565(17) 0.79870(16) 0.00705(12)
C5_2 C 0.30497(18) 0.50662(15) 0.03698(11)
C6_2 C 0.33431(17) 0.56250(15) 0.01571(11)
C7_2 C 0.38340(17) 0.52544(15) 0.13391(11)
C8_2 C 0.72753(15) 0.49041(17) 0.55444(12)
H3_2 H 0.709223 0.444439 0.558020
H4_2 H 0.724586 0.516509 0.589166
C9_2 C 0.37337(16) 0.48865(16) 0.29017(11)
H5_2 H 0.338160 0.477698 0.309893
C10_2 C 0.70939(15) 0.59464(17) 0.49786(15)
H6_2 H 0.700245 0.621515 0.530195
H7_2 H 0.683446 0.616071 0.460897
C11_2 C 0.40629(16) 0.51112(15) 0.19852(10)
C12_2 C 0.41309(16) 0.58151(16) 0.11193(11)
H8_2 H 0.450780 0.605960 0.137029
C13_2 C 0.41354(17) 0.66757(16) 0.03399(11)
C14_2 C 0.38779(17) 0.60197(16) 0.05330(11)
C16_2 C 0.35447(17) 0.49441(17) 0.22860(11)
H10_2 H 0.306473 0.486966 0.207356
C19_2 C 0.49774(16) 0.51399(16) 0.29209(11)
H12_2 H 0.546071 0.519773 0.313204
C20_2 C 0.69269(15) 0.48612(18) 0.44821(12)
H13_2 H 0.661458 0.505596 0.412297
H14_2 H 0.679130 0.438261 0.450511
C21_2 C 0.50751(17) 0.75237(18) 0.03903(13)
H15_2 H 0.556376 0.764834 0.050995
C22_2 C 0.47786(16) 0.51998(17) 0.23050(11)
H16_2 H 0.513197 0.530058 0.210663
C23_2 C 0.48573(19) 0.68839(18) 0.05260(14)
H17_2 H 0.520202 0.658264 0.074813
H19_2 H 0.181729 0.574080 0.024204
C36_2 C 0.13651(17) 0.71290(16) 0.00234(13)
H22_2 H 0.184058 0.698344 0.018840
C38_2 C 0.02379(16) 0.87257(16) 0.00006(11)
C39_2 C 0.11645(16) 0.77764(17) 0.01370(13)
H24_2 H 0.151074 0.807968 0.035425
N2_2 N 0.81815(11) 0.52392(12) 0.49954(8)
C44_2 C 0.77247(15) 0.49041(17) 0.44556(12)
H29_2 H 0.790777 0.444439 0.441980
H30_2 H 0.775414 0.516509 0.410834
C45_2 C 0.79061(15) 0.59464(17) 0.50214(15)
H31_2 H 0.799755 0.621515 0.469805
H32_2 H 0.816554 0.616071 0.539103
C46_2 C 0.80731(15) 0.48612(18) 0.55179(12)
H33_2 H 0.838542 0.505596 0.587703
H34_2 H 0.820870 0.438261 0.549489
O10_2 O 0.58400(11) 0.52001(12) 0.58742(8)
O15_2 O 0.54087(12) 0.61469(11) 0.50058(9)
O3_3 O 0.250000 0.46760(14) 1.000000
H2_2 H 0.318271 0.574080 0.975796
C15_2 C 0.36349(17) 0.71290(16) 0.99766(13)
H9_2 H 0.315942 0.698344 0.981160
C17_2 C 0.47621(16) 0.87257(16) 0.99994(11)
C18_2 C 0.38355(16) 0.77764(17) 0.98630(13)
H11_2 H 0.348926 0.807968 0.964575
O7_2 O 0.08400(11) 0.47999(12) 0.58742(8)
C24_2 C 0.03493(14) 0.49726(15) 0.61194(11)
C25_2 C 0.17148(17) 0.48704(15) 0.90387(10)
H18_2 H 0.191858 0.449178 0.889790
C26_2 C 0.05520(15) 0.49930(15) 0.67823(10)
C27_2 C 0.04435(17) 0.79870(16) 0.99295(12)
C28_2 C 0.19503(18) 0.50662(15) 0.96302(11)
C29_2 C 0.16569(17) 0.56250(15) 0.98429(11)
C30_2 C 0.11660(17) 0.52544(15) 0.86609(11)
C31_2 C 0.12663(16) 0.48865(16) 0.70983(11)
H20_2 H 0.161840 0.477698 0.690107
C32_2 C 0.09371(16) 0.51112(15) 0.80148(10)
C33_2 C 0.08691(16) 0.58151(16) 0.88807(11)
H21_2 H 0.049220 0.605960 0.862971
C34_2 C 0.08646(17) 0.66757(16) 0.96601(11)
C35_2 C 0.11221(17) 0.60197(16) 0.94670(11)
C37_2 C 0.14553(17) 0.49441(17) 0.77140(11)
H23_2 H 0.193527 0.486966 0.792644
C40_2 C 0.00226(16) 0.51399(16) 0.70791(11)
C42_2 C 0.02214(16) 0.51998(17) 0.76950(11)
C43_2 C 0.01427(19) 0.68839(18) 0.94740(14)
O6_2 O 0.97070(10) 0.51380(11) 0.58493(7)
O9_2 O 0.95913(12) 0.88531(11) 0.99942(9)
H25_2 H 0.953929 0.519773 0.686796
C41_2 C 0.99249(17) 0.75237(18) 0.96097(13)
H26_2 H 0.943624 0.764834 0.949005
H27_2 H 0.986803 0.530058 0.789337
H28_2 H 0.979798 0.658264 0.925187
O11_2 O 0.91600(11) 0.52001(12) 0.41258(8)
O14_2 O 0.95913(12) 0.61469(11) 0.49942(9)
O12_2 O 0.57418(10) 0.08376(12) 0.00523(9)
O3_4 O 0.250000 0.03240(14) 0.500000
C1_3 C 0.03493(14) 0.00274(15) 0.11194(11)
C2_3 C 0.17148(17) 0.01296(15) 0.40387(10)
H1_3 H 0.191858 0.050822 0.389790
C3_3 C 0.05520(15) 0.00070(15) 0.17823(10)
C9_3 C 0.12663(16) 0.01135(16) 0.20983(11)
H5_3 H 0.161840 0.022302 0.190107
C16_3 C 0.14553(17) 0.00559(17) 0.27140(11)
H10_3 H 0.193527 0.013034 0.292644
C24_3 C 0.46507(14) 0.00274(15) 0.88806(11)
C25_3 C 0.32852(17) 0.01296(15) 0.59613(10)
H18_3 H 0.308142 0.050822 0.610210
C26_3 C 0.44480(15) 0.00070(15) 0.82177(10)
C31_3 C 0.37337(16) 0.01135(16) 0.79017(11)
H20_3 H 0.338160 0.022302 0.809893
C37_3 C 0.35447(17) 0.00559(17) 0.72860(11)
H23_3 H 0.306473 0.013034 0.707356
N3 N 0.68185(11) 0.97608(12) 0.00046(8)
O4_2 O 0.07418(10) 0.58376(12) 0.50523(9)
C4_3 C 0.04435(17) 0.70130(16) 0.49295(12)
C5_3 C 0.19503(18) 0.99338(15) 0.46302(11)
C6_3 C 0.16569(17) 0.93750(15) 0.48429(11)
H2_3 H 0.181729 0.925920 0.524204
C7_3 C 0.11660(17) 0.97456(15) 0.36609(11)
C11_3 C 0.09371(16) 0.98888(15) 0.30148(10)
C12_3 C 0.08691(16) 0.91849(16) 0.38807(11)
H8_3 H 0.049220 0.894040 0.362971
C13_3 C 0.08646(17) 0.83243(16) 0.46601(11)
C14_3 C 0.11221(17) 0.89803(16) 0.44670(11)
C15_3 C 0.13651(17) 0.78710(16) 0.50234(13)
H9_3 H 0.184058 0.801656 0.518840
C17_3 C 0.02379(16) 0.62743(16) 0.50006(11)
C18_3 C 0.11645(16) 0.72236(17) 0.51370(13)
H11_3 H 0.151074 0.692032 0.535425
C19_3 C 0.00226(16) 0.98601(16) 0.20791(11)
C22_3 C 0.02214(16) 0.98002(17) 0.26950(11)
C23_3 C 0.01427(19) 0.81161(18) 0.44740(14)
O6_3 O 0.52930(10) 0.98620(11) 0.91507(7)
O8_2 O 0.42582(10) 0.58376(12) 0.49477(9)
C27_3 C 0.45565(17) 0.70130(16) 0.50705(12)
C28_3 C 0.30497(18) 0.99338(15) 0.53698(11)
C29_3 C 0.33431(17) 0.93750(15) 0.51571(11)
H19_3 H 0.318271 0.925920 0.475796
C30_3 C 0.38340(17) 0.97456(15) 0.63391(11)
C32_3 C 0.40629(16) 0.98888(15) 0.69852(10)
C33_3 C 0.41309(16) 0.91849(16) 0.61193(11)
H21_3 H 0.450780 0.894040 0.637029
C34_3 C 0.41354(17) 0.83243(16) 0.53399(11)
C35_3 C 0.38779(17) 0.89803(16) 0.55330(11)
C36_3 C 0.36349(17) 0.78710(16) 0.49766(13)
H22_3 H 0.315942 0.801656 0.481160
C38_3 C 0.47621(16) 0.62743(16) 0.49994(11)
C39_3 C 0.38355(16) 0.72236(17) 0.48630(13)
H24_3 H 0.348926 0.692032 0.464575
C40_3 C 0.49774(16) 0.98601(16) 0.79209(11)
H25_3 H 0.546071 0.980227 0.813204
C41_3 C 0.50751(17) 0.74763(18) 0.53903(13)
H26_3 H 0.556376 0.735166 0.550995
C42_3 C 0.47786(16) 0.98002(17) 0.73050(11)
H27_3 H 0.513197 0.969942 0.710663
C43_3 C 0.48573(19) 0.81161(18) 0.55260(14)
H28_3 H 0.520202 0.841736 0.574813
C20_3 C 0.80731(15) 0.01388(18) 0.05179(12)
H14_3 H 0.820870 0.061739 0.049489
C44_3 C 0.72753(15) 0.00959(17) 0.05444(12)
H29_3 H 0.709223 0.055561 0.058020
C8_3 C 0.77247(15) 0.00959(17) 0.94556(12)
H3_3 H 0.790777 0.055561 0.941980
C46_3 C 0.69269(15) 0.01388(18) 0.94821(12)
H34_3 H 0.679130 0.061739 0.950511
O13_2 O 0.92582(10) 0.08376(12) 0.99477(9)
O1_3 O 0.97070(10) 0.98620(11) 0.08493(7)
C10_3 C 0.79061(15) 0.90536(17) 0.00214(15)
H7_3 H 0.816554 0.883929 0.039103
H12_3 H 0.953929 0.980227 0.186796
H13_3 H 0.838542 0.994404 0.087703
C21_3 C 0.99249(17) 0.74763(18) 0.46097(13)
H15_3 H 0.943624 0.735166 0.449005
H16_3 H 0.986803 0.969942 0.289337
H17_3 H 0.979798 0.841736 0.425187
H30_3 H 0.724586 0.983491 0.089166
H31_3 H 0.700245 0.878485 0.030195
N1_3 N 0.81815(11) 0.97608(12) 0.99954(8)
H4_3 H 0.775414 0.983491 0.910834
H6_3 H 0.799755 0.878485 0.969805
C45_3 C 0.70939(15) 0.90536(17) 0.99786(15)
H32_3 H 0.683446 0.883929 0.960897
H33_3 H 0.661458 0.994404 0.912297
O6_4 O 0.02930(10) 0.48620(11) 0.41507(7)
H25_4 H 0.046071 0.480227 0.313204
C41_4 C 0.00751(17) 0.24763(18) 0.03903(13)
H26_4 H 0.056376 0.235166 0.050995
H27_4 H 0.013197 0.469942 0.210663
H28_4 H 0.020202 0.341736 0.074813
N3_2 N 0.18185(11) 0.47608(12) 0.50046(8)
O3_5 O 0.750000 0.53240(14) -0.000000
H2_4 H 0.681729 0.425920 0.024204
C15_4 C 0.63651(17) 0.28710(16) 0.00234(13)
H9_4 H 0.684058 0.301656 0.018840
C17_4 C 0.52379(16) 0.12743(16) 0.00006(11)
C18_4 C 0.61645(16) 0.22236(17) 0.01370(13)
H11_4 H 0.651074 0.192032 0.035425
C24_4 C 0.96507(14) 0.50274(15) 0.38806(11)
C25_4 C 0.82852(17) 0.51296(15) 0.09613(10)
H18_4 H 0.808142 0.550822 0.110210
C26_4 C 0.94480(15) 0.50070(15) 0.32177(10)
C27_4 C 0.95565(17) 0.20130(16) 0.00705(12)
C28_4 C 0.80497(18) 0.49338(15) 0.03698(11)
C29_4 C 0.83431(17) 0.43750(15) 0.01571(11)
C30_4 C 0.88340(17) 0.47456(15) 0.13391(11)
C31_4 C 0.87337(16) 0.51135(16) 0.29017(11)
H20_4 H 0.838160 0.522302 0.309893
C32_4 C 0.90629(16) 0.48888(15) 0.19852(10)
C33_4 C 0.91309(16) 0.41849(16) 0.11193(11)
H21_4 H 0.950780 0.394040 0.137029
C34_4 C 0.91354(17) 0.33243(16) 0.03399(11)
C35_4 C 0.88779(17) 0.39803(16) 0.05330(11)
C37_4 C 0.85447(17) 0.50559(17) 0.22860(11)
H23_4 H 0.806473 0.513034 0.207356
C40_4 C 0.99774(16) 0.48601(16) 0.29209(11)
C42_4 C 0.97786(16) 0.48002(17) 0.23050(11)
C43_4 C 0.98573(19) 0.31161(18) 0.05260(14)
O1_4 O 0.47070(10) 0.48620(11) 0.58493(7)
O3_6 O 0.750000 0.53240(14) 1.000000
N1_4 N 0.31815(11) 0.47608(12) 0.49954(8)
C1_4 C 0.53493(14) 0.50274(15) 0.61194(11)
C2_4 C 0.67148(17) 0.51296(15) 0.90387(10)
H1_4 H 0.691858 0.550822 0.889790
C3_4 C 0.55520(15) 0.50070(15) 0.67823(10)
C4_4 C 0.54435(17) 0.20130(16) 0.99295(12)
C5_4 C 0.69503(18) 0.49338(15) 0.96302(11)
C6_4 C 0.66569(17) 0.43750(15) 0.98429(11)
C7_4 C 0.61660(17) 0.47456(15) 0.86609(11)
C8_4 C 0.27247(15) 0.50959(17) 0.44556(12)
H3_4 H 0.290777 0.555561 0.441980
H4_4 H 0.275414 0.483491 0.410834
C9_4 C 0.62663(16) 0.51135(16) 0.70983(11)
H5_4 H 0.661840 0.522302 0.690107
C10_4 C 0.29061(15) 0.40536(17) 0.50214(15)
H6_4 H 0.299755 0.378485 0.469805
H7_4 H 0.316554 0.383929 0.539103
C11_4 C 0.59371(16) 0.48888(15) 0.80148(10)
C12_4 C 0.58691(16) 0.41849(16) 0.88807(11)
H8_4 H 0.549220 0.394040 0.862971
C13_4 C 0.58646(17) 0.33243(16) 0.96601(11)
C14_4 C 0.61221(17) 0.39803(16) 0.94670(11)
C16_4 C 0.64553(17) 0.50559(17) 0.77140(11)
H10_4 H 0.693527 0.513034 0.792644
C19_4 C 0.50226(16) 0.48601(16) 0.70791(11)
H12_4 H 0.453929 0.480227 0.686796
C20_4 C 0.30731(15) 0.51388(18) 0.55179(12)
H13_4 H 0.338542 0.494404 0.587703
H14_4 H 0.320870 0.561739 0.549489
C21_4 C 0.49249(17) 0.24763(18) 0.96097(13)
H15_4 H 0.443624 0.235166 0.949005
C22_4 C 0.52214(16) 0.48002(17) 0.76950(11)
H16_4 H 0.486803 0.469942 0.789337
C23_4 C 0.51427(19) 0.31161(18) 0.94740(14)
H17_4 H 0.479798 0.341736 0.925187
H19_4 H 0.818271 0.425920 0.975796
C36_4 C 0.86349(17) 0.28710(16) 0.99766(13)
H22_4 H 0.815942 0.301656 0.981160
C38_4 C 0.97621(16) 0.12743(16) 0.99994(11)
C39_4 C 0.88355(16) 0.22236(17) 0.98630(13)
H24_4 H 0.848926 0.192032 0.964575
C44_4 C 0.22753(15) 0.50959(17) 0.55444(12)
H29_4 H 0.209223 0.555561 0.558020
H30_4 H 0.224586 0.483491 0.589166
C45_4 C 0.20939(15) 0.40536(17) 0.49786(15)
H31_4 H 0.200245 0.378485 0.530195
H32_4 H 0.183446 0.383929 0.460897
C46_4 C 0.19269(15) 0.51388(18) 0.44821(12)
H33_4 H 0.161458 0.494404 0.412297
H34_4 H 0.179130 0.561739 0.450511
loop_
_geom_bond_atom_site_label_1
_geom_bond_atom_site_label_2
_geom_bond_site_symmetry_1
_geom_bond_site_symmetry_2
N1 Cu1 1_555 1_555
H32 C45 1_555 1_555
O10 Cu1 1_555 1_555
O15 Cu1 1_555 1_555
H7 C10 1_555 1_555
H15 C21 1_555 1_555
Cu3 N2 1_555 1_555
Cu9 O5 1_555 1_555
H3 C8 1_555 1_555
C46 C8 1_555 1_555
H34 C46 1_555 1_555
H14 C20 1_555 1_555
C44 C20 1_555 1_555
H29 C44 1_555 1_555
O4 C17 1_555 1_555
C4 C17 1_555 1_555
C6 C5 1_555 1_555
H2 C6 1_555 1_555
C11 C7 1_555 1_555
C12 C7 1_555 1_555
H8 C12 1_555 1_555
C13 C14 1_555 1_555
C14 C6 1_555 1_555
C15 C13 1_555 1_555
H9 C15 1_555 1_555
C18 C4 1_555 1_555
H11 C18 1_555 1_555
C22 C11 1_555 1_555
C23 C13 1_555 1_555
O8 C38 1_555 1_555
O9 C38 1_555 1_555
C27 C38 1_555 1_555
C29 C28 1_555 1_555
H19 C29 1_555 1_555
C32 C30 1_555 1_555
C33 C30 1_555 1_555
H21 C33 1_555 1_555
C34 C35 1_555 1_555
C35 C29 1_555 1_555
C36 C34 1_555 1_555
H22 C36 1_555 1_555
C39 C27 1_555 1_555
H24 C39 1_555 1_555
H25 C40 1_555 1_555
C41 C27 1_555 1_555
H26 C41 1_555 1_555
C42 C32 1_555 1_555
H27 C42 1_555 1_555
C43 C34 1_555 1_555
H28 C43 1_555 1_555
Cu4 O8 1_555 1_555
Cu5 O4 1_555 1_555
Cu8 O9 1_555 1_555
C12 C14 1_555 1_555
C15 C18 1_555 1_555
C19 C22 1_555 1_555
C33 C35 1_555 1_555
C36 C39 1_555 1_555
C40 C42 1_555 1_555
C41 C43 1_555 1_555
Cu4 Cu8 1_555 1_555
O11 Cu3 1_555 1_555
O14 Cu3 1_555 1_555
O2 C1 1_555 1_555
C1 C3 1_555 1_555
C2 H1 1_555 1_555
C3 C9 1_555 1_555
C9 H5 1_555 1_555
C16 C9 1_555 1_555
H10 C16 1_555 1_555
O7 C24 1_555 1_555
C24 C26 1_555 1_555
C25 H18 1_555 1_555
C26 C31 1_555 1_555
C31 H20 1_555 1_555
C37 C31 1_555 1_555
H23 C37 1_555 1_555
Cu7 O7 1_555 1_555
O2 Cu6 1_555 1_555
Cu4 O1_2 1_555 1_555
O1_2 C1_2 1_555 1_555
O2_2 C1_2 1_555 1_555
O3_2 C5_2 1_555 1_555
N1_2 Cu4 1_555 1_555
C1_2 C3_2 1_555 1_555
C2_2 H1_2 1_555 1_555
C3_2 C9_2 1_555 1_555
C5_2 C2_2 1_555 1_555
C6_2 C5_2 1_555 1_555
C7_2 C2_2 1_555 1_555
C8_2 N1_2 1_555 1_555
H3_2 C8_2 1_555 1_555
H4_2 C8_2 1_555 1_555
C9_2 H5_2 1_555 1_555
C10_2 N1_2 1_555 1_555
H6_2 C10_2 1_555 1_555
H7_2 C10_2 1_555 1_555
C11_2 C7_2 1_555 1_555
C12_2 C7_2 1_555 1_555
H8_2 C12_2 1_555 1_555
C13_2 C14_2 1_555 1_555
C14_2 C6_2 1_555 1_555
C16_2 C9_2 1_555 1_555
H10_2 C16_2 1_555 1_555
C19_2 C3_2 1_555 1_555
H12_2 C19_2 1_555 1_555
C20_2 N1_2 1_555 1_555
H13_2 C20_2 1_555 1_555
H14_2 C20_2 1_555 1_555
C21_2 C4_2 1_555 1_555
H15_2 C21_2 1_555 1_555
C22_2 C11_2 1_555 1_555
H16_2 C22_2 1_555 1_555
C23_2 C13_2 1_555 1_555
H17_2 C23_2 1_555 1_555
O13 C38_2 1_555 1_555
H22_2 C36_2 1_555 1_555
H24_2 C39_2 1_555 1_555
N2_2 C44_2 1_555 1_555
C44_2 C20_2 1_555 1_555
H29_2 C44_2 1_555 1_555
H30_2 C44_2 1_555 1_555
C45_2 C10_2 1_555 1_555
H31_2 C45_2 1_555 1_555
H32_2 C45_2 1_555 1_555
C46_2 C8_2 1_555 1_555
H33_2 C46_2 1_555 1_555
H34_2 C46_2 1_555 1_555
Cu5 N2_2 1_555 1_555
Cu7 O5_2 1_555 1_555
O10_2 Cu4 1_555 1_555
O15_2 Cu4 1_555 1_555
O2_2 Cu8 1_555 1_555
C11_2 C16_2 1_555 1_555
C12_2 C14_2 1_555 1_555
C19_2 C22_2 1_555 1_555
C21_2 C23_2 1_555 1_555
C36_2 C39_2 1_555 1_555
N2_2 C45_2 1_555 1_555
N2_2 C46_2 1_555 1_555
O12 C17_2 1_555 1_555
H9_2 C15_2 1_555 1_555
H11_2 C18_2 1_555 1_555
O7_2 C24_2 1_555 1_555
C24_2 C26_2 1_555 1_555
C25_2 H18_2 1_555 1_555
C26_2 C31_2 1_555 1_555
C28_2 O3_3 1_555 1_555
C29_2 C28_2 1_555 1_555
C30_2 C25_2 1_555 1_555
C31_2 H20_2 1_555 1_555
C32_2 C30_2 1_555 1_555
C33_2 C30_2 1_555 1_555
H21_2 C33_2 1_555 1_555
C34_2 C35_2 1_555 1_555
C35_2 C29_2 1_555 1_555
C37_2 C31_2 1_555 1_555
H23_2 C37_2 1_555 1_555
C40_2 C26_2 1_555 1_555
C42_2 C32_2 1_555 1_555
C43_2 C34_2 1_555 1_555
Cu9 O7_2 1_555 1_555
C15_2 C18_2 1_555 1_555
C25_2 C28_2 1_555 1_555
C32_2 C37_2 1_555 1_555
C33_2 C35_2 1_555 1_555
C40_2 C42_2 1_555 1_555
H26_2 C41_2 1_555 1_555
Cu5 O6_2 1_555 1_555
Cu6 O9_2 1_555 1_555
O11_2 Cu5 1_555 1_555
O14_2 Cu5 1_555 1_555
O10 C1_3 1_555 1_555
C1_3 C3_3 1_555 1_555
C2_3 H1_3 1_555 1_555
C3_3 C9_3 1_555 1_555
C9_3 H5_3 1_555 1_555
C16_3 C9_3 1_555 1_555
H10_3 C16_3 1_555 1_555
O11 C24_3 1_555 1_555
C24_3 C26_3 1_555 1_555
C25_3 H18_3 1_555 1_555
C26_3 C31_3 1_555 1_555
C31_3 H20_3 1_555 1_555
C37_3 C31_3 1_555 1_555
H23_3 C37_3 1_555 1_555
N3 Cu7 1_555 1_555
O4_2 C17_3 1_555 1_555
C4_3 C17_3 1_555 1_555
C6_3 C5_3 1_555 1_555
H2_3 C6_3 1_555 1_555
C11_3 C7_3 1_555 1_555
C12_3 C7_3 1_555 1_555
H8_3 C12_3 1_555 1_555
C13_3 C14_3 1_555 1_555
C14_3 C6_3 1_555 1_555
C15_3 C13_3 1_555 1_555
H9_3 C15_3 1_555 1_555
C18_3 C4_3 1_555 1_555
H11_3 C18_3 1_555 1_555
C22_3 C11_3 1_555 1_555
C23_3 C13_3 1_555 1_555
O8_2 C38_3 1_555 1_555
O15_2 C38_3 1_555 1_555
C27_3 C38_3 1_555 1_555
C29_3 C28_3 1_555 1_555
H19_3 C29_3 1_555 1_555
C32_3 C30_3 1_555 1_555
C33_3 C30_3 1_555 1_555
H21_3 C33_3 1_555 1_555
C34_3 C35_3 1_555 1_555
C35_3 C29_3 1_555 1_555
C36_3 C34_3 1_555 1_555
H22_3 C36_3 1_555 1_555
C39_3 C27_3 1_555 1_555
H24_3 C39_3 1_555 1_555
H25_3 C40_3 1_555 1_555
C41_3 C27_3 1_555 1_555
H26_3 C41_3 1_555 1_555
C42_3 C32_3 1_555 1_555
H27_3 C42_3 1_555 1_555
C43_3 C34_3 1_555 1_555
H28_3 C43_3 1_555 1_555
Cu8 O8_2 1_555 1_555
Cu9 O4_2 1_555 1_555
C12_3 C14_3 1_555 1_555
C15_3 C18_3 1_555 1_555
C19_3 C22_3 1_555 1_555
C33_3 C35_3 1_555 1_555
C36_3 C39_3 1_555 1_555
C40_3 C42_3 1_555 1_555
C41_3 C43_3 1_555 1_555
H14_3 C20_3 1_555 1_555
C44_3 C20_3 1_555 1_555
H29_3 C44_3 1_555 1_555
H3_3 C8_3 1_555 1_555
C46_3 C8_3 1_555 1_555
H34_3 C46_3 1_555 1_555
H7_3 C10_3 1_555 1_555
H15_3 C21_3 1_555 1_555
N1_3 Cu6 1_555 1_555
H32_3 C45_3 1_555 1_555
H26_4 C41_4 1_555 1_555
Cu9 O6_4 1_555 1_555
N3_2 Cu9 1_555 1_555
O12_2 C17_4 1_555 1_555
H9_4 C15_4 1_555 1_555
H11_4 C18_4 1_555 1_555
O11_2 C24_4 1_555 1_555
C24_4 C26_4 1_555 1_555
C25_4 H18_4 1_555 1_555
C26_4 C31_4 1_555 1_555
C28_4 O3_5 1_555 1_555
C29_4 C28_4 1_555 1_555
C30_4 C25_4 1_555 1_555
C31_4 H20_4 1_555 1_555
C32_4 C30_4 1_555 1_555
C33_4 C30_4 1_555 1_555
H21_4 C33_4 1_555 1_555
C34_4 C35_4 1_555 1_555
C35_4 C29_4 1_555 1_555
C37_4 C31_4 1_555 1_555
H23_4 C37_4 1_555 1_555
C40_4 C26_4 1_555 1_555
C42_4 C32_4 1_555 1_555
C43_4 C34_4 1_555 1_555
C15_4 C18_4 1_555 1_555
C25_4 C28_4 1_555 1_555
C32_4 C37_4 1_555 1_555
C33_4 C35_4 1_555 1_555
C40_4 C42_4 1_555 1_555
Cu8 O1_4 1_555 1_555
O1_4 C1_4 1_555 1_555
O10_2 C1_4 1_555 1_555
O3_6 C5_4 1_555 1_555
N1_4 Cu8 1_555 1_555
C1_4 C3_4 1_555 1_555
C2_4 H1_4 1_555 1_555
C3_4 C9_4 1_555 1_555
C5_4 C2_4 1_555 1_555
C6_4 C5_4 1_555 1_555
C7_4 C2_4 1_555 1_555
C8_4 N1_4 1_555 1_555
H3_4 C8_4 1_555 1_555
H4_4 C8_4 1_555 1_555
C9_4 H5_4 1_555 1_555
C10_4 N1_4 1_555 1_555
H6_4 C10_4 1_555 1_555
H7_4 C10_4 1_555 1_555
C11_4 C7_4 1_555 1_555
C12_4 C7_4 1_555 1_555
H8_4 C12_4 1_555 1_555
C13_4 C14_4 1_555 1_555
C14_4 C6_4 1_555 1_555
C16_4 C9_4 1_555 1_555
H10_4 C16_4 1_555 1_555
C19_4 C3_4 1_555 1_555
H12_4 C19_4 1_555 1_555
C20_4 N1_4 1_555 1_555
H13_4 C20_4 1_555 1_555
H14_4 C20_4 1_555 1_555
C21_4 C4_4 1_555 1_555
H15_4 C21_4 1_555 1_555
C22_4 C11_4 1_555 1_555
H16_4 C22_4 1_555 1_555
C23_4 C13_4 1_555 1_555
H17_4 C23_4 1_555 1_555
O13_2 C38_4 1_555 1_555
H22_4 C36_4 1_555 1_555
H24_4 C39_4 1_555 1_555
N3_2 C44_4 1_555 1_555
C44_4 C20_4 1_555 1_555
H29_4 C44_4 1_555 1_555
H30_4 C44_4 1_555 1_555
C45_4 C10_4 1_555 1_555
H31_4 C45_4 1_555 1_555
H32_4 C45_4 1_555 1_555
C46_4 C8_4 1_555 1_555
H33_4 C46_4 1_555 1_555
H34_4 C46_4 1_555 1_555
C11_4 C16_4 1_555 1_555
C12_4 C14_4 1_555 1_555
C19_4 C22_4 1_555 1_555
C21_4 C23_4 1_555 1_555
C36_4 C39_4 1_555 1_555
N3_2 C45_4 1_555 1_555
N3_2 C46_4 1_555 1_555

#END
