
###############################################################################
#
# This file contains modified crystal structure data generated from the
# MOF subset of the Cambridge Structural Database (CSD) v543 
# hosted by the Cambridge Crystallographic Data Centre (CCDC).
#
# This work is licensed under the Creative Commons
# Attribution-NonCommercial-ShareAlike 4.0 International License.
# To view a copy of this license, visit
# http://creativecommons.org/licenses/by-nc-sa/4.0/
# or send a letter to
# Creative Commons, PO Box 1866, Mountain View, CA 94042, USA.
#
# CIF created using the CSD Python API on 29 September 2022
# The structure has been converted into the P1 space group
# The structure has a 3D framework
# The original CSD entry TUJGIQ is in the monoclinic crystal system
# The framework has been calculated to contain at least 10.0% void space
# The void calculation uses a probe of radius 1.32A, grid spacing 0.4
#
###############################################################################

data_TUJGIQ
_chemical_formula_moiety         '(C160 H104 Cu8 N24 O44)n'
_symmetry_cell_setting           triclinic
_symmetry_space_group_name_H-M   'P 1'
_symmetry_Int_Tables_number      1
_space_group_name_Hall           'P 1'
loop_
_symmetry_equiv_pos_site_id
_symmetry_equiv_pos_as_xyz
1 x,y,z
_cell_length_a                   24.9497(18)
_cell_length_b                   9.4852(7)
_cell_length_c                   21.7319(15)
_cell_angle_alpha                90
_cell_angle_beta                 102.2610(10)
_cell_angle_gamma                90
_cell_volume                     5025.61
loop_
_atom_site_label
_atom_site_type_symbol
_atom_site_fract_x
_atom_site_fract_y
_atom_site_fract_z
H7 H 0.0981 0.0352 0.3858
C10 C 0.18071(15) 0.0362(5) 0.41836(17)
H8 H 0.1880 0.0983 0.3868
Cu2 Cu 0.297087(15) 0.07882(4) 0.470426(17)
O3 O 0.70780(10) 0.0367(3) 0.11881(11)
H12 H 0.6200 0.0181 0.2234
Cu3 Cu 0.702913(15) 0.07882(4) 0.029574(17)
Cu1 Cu 0.797087(15) 0.57882(4) 0.470426(17)
O1 O 0.76707(10) 0.7980(3) 0.43378(11)
O2 O 0.69217(10) 0.9235(3) 0.43804(11)
O4 O 0.63498(15) 0.8923(4) 0.10501(14)
O5 O 0.82371(15) 0.8052(5) 0.22556(19)
O6 O 0.75585(17) 0.7495(4) 0.14980(15)
N1 N 0.87464(11) 0.6481(3) 0.48242(13)
N3 N 0.77439(17) 0.7992(4) 0.20190(17)
C1 C 0.88893(15) 0.7352(5) 0.44069(19)
H1 H 0.8611 0.7692 0.4072
C2 C 0.94214(16) 0.7788(6) 0.4436(2)
H2 H 0.9502 0.8413 0.4127
C3 C 0.98369(14) 0.7313(4) 0.49167(18)
C4 C 0.96882(15) 0.6401(5) 0.5349(2)
H3 H 0.9960 0.6036 0.5685
C5 C 0.91446(15) 0.6021(5) 0.52926(19)
H4 H 0.9051 0.5408 0.5599
C13 C 0.72596(13) 0.8665(4) 0.40922(14)
C14 C 0.71304(14) 0.8880(4) 0.33880(15)
C15 C 0.66552(18) 0.9569(6) 0.30865(18)
H11 H 0.6411 0.9933 0.3328
C16 C 0.65322(19) 0.9733(6) 0.24334(19)
C17 C 0.68900(16) 0.9250(4) 0.20747(16)
C18 C 0.73575(16) 0.8546(5) 0.23846(17)
C19 C 0.74789(15) 0.8339(5) 0.30302(16)
H13 H 0.7798 0.7830 0.3225
C20 C 0.67533(16) 0.9502(4) 0.13674(16)
Cu4 Cu 0.702913(15) 0.92118(4) 0.529574(17)
O7 O 0.80783(10) 0.5765(3) 0.56196(11)
O8 O 0.79220(10) 0.5367(3) 0.38119(11)
N4 N 0.72263(11) 0.4902(3) 0.46251(13)
O3_2 O 0.29220(10) 0.0367(3) 0.38119(11)
H12_2 H 0.3800 0.0181 0.2766
Cu1_2 Cu 0.202913(15) 0.57882(4) 0.029574(17)
O1_2 O 0.23293(10) 0.7980(3) 0.06622(11)
O2_2 O 0.30783(10) 0.9235(3) 0.06196(11)
O4_2 O 0.36502(15) 0.8923(4) 0.39499(14)
O5_2 O 0.17629(15) 0.8052(5) 0.27444(19)
O6_2 O 0.24415(17) 0.7495(4) 0.35020(15)
N1_2 N 0.12536(11) 0.6481(3) 0.01758(13)
N3_2 N 0.22561(17) 0.7992(4) 0.29810(17)
C1_2 C 0.11107(15) 0.7352(5) 0.05931(19)
H1_2 H 0.1389 0.7692 0.0928
C2_2 C 0.05786(16) 0.7788(6) 0.0564(2)
H2_2 H 0.0498 0.8413 0.0873
C3_2 C 0.01631(14) 0.7313(4) 0.00833(18)
C13_2 C 0.27404(13) 0.8665(4) 0.09078(14)
C14_2 C 0.28696(14) 0.8880(4) 0.16120(15)
C15_2 C 0.33448(18) 0.9569(6) 0.19135(18)
H11_2 H 0.3589 0.9933 0.1672
C16_2 C 0.34678(19) 0.9733(6) 0.25666(19)
C17_2 C 0.31100(16) 0.9250(4) 0.29253(16)
C18_2 C 0.26425(16) 0.8546(5) 0.26154(17)
C19_2 C 0.25211(15) 0.8339(5) 0.19698(16)
H13_2 H 0.2202 0.7830 0.1775
C20_2 C 0.32467(16) 0.9502(4) 0.36326(16)
O8_2 O 0.20780(10) 0.5367(3) 0.11881(11)
N4_2 N 0.27737(11) 0.4902(3) 0.03749(13)
C4_2 C 0.03118(15) 0.6401(5) 0.9651(2)
H3_2 H 0.0040 0.6036 0.9315
C5_2 C 0.08554(15) 0.6021(5) 0.97074(19)
H4_2 H 0.0949 0.5408 0.9401
Cu4_2 Cu 0.297087(15) 0.92118(4) 0.970426(17)
O7_2 O 0.19217(10) 0.5765(3) 0.93804(11)
H7_2 H 0.9019 0.0352 0.1142
C10_2 C 0.81929(15) 0.0362(5) 0.08164(17)
H8_2 H 0.8120 0.0983 0.1132
O1_3 O 0.26707(10) 0.2980(3) 0.43378(11)
O2_3 O 0.19217(10) 0.4235(3) 0.43804(11)
O4_3 O 0.13498(15) 0.3923(4) 0.10501(14)
O5_3 O 0.32371(15) 0.3052(5) 0.22556(19)
O6_3 O 0.25585(17) 0.2495(4) 0.14980(15)
N1_3 N 0.37464(11) 0.1481(3) 0.48242(13)
N3_3 N 0.27439(17) 0.2992(4) 0.20190(17)
C1_3 C 0.38893(15) 0.2352(5) 0.44069(19)
H1_3 H 0.3611 0.2692 0.4072
C2_3 C 0.44214(16) 0.2788(6) 0.4436(2)
H2_3 H 0.4502 0.3413 0.4127
C3_3 C 0.48369(14) 0.2313(4) 0.49167(18)
C4_3 C 0.46882(15) 0.1401(5) 0.5349(2)
H3_3 H 0.4960 0.1036 0.5685
C5_3 C 0.41446(15) 0.1021(5) 0.52926(19)
H4_3 H 0.4051 0.0408 0.5599
C6 C 0.54143(14) 0.2696(5) 0.49662(18)
H5 H 0.5682 0.2257 0.5285
C7 C 0.55840(15) 0.3621(5) 0.4591(2)
H6 H 0.5310 0.4073 0.4283
C8 C 0.61561(15) 0.4008(4) 0.46083(19)
C9 C 0.62705(15) 0.4968(5) 0.4168(2)
H7_3 H 0.5981 0.5352 0.3858
C10_3 C 0.68071(15) 0.5362(5) 0.41836(17)
H8_3 H 0.6880 0.5983 0.3868
C11 C 0.71186(14) 0.3969(4) 0.50469(16)
H9 H 0.7416 0.3626 0.5360
C12 C 0.65999(14) 0.3484(4) 0.50487(17)
H10 H 0.6545 0.2798 0.5348
C13_3 C 0.22596(13) 0.3665(4) 0.40922(14)
C14_3 C 0.21304(14) 0.3880(4) 0.33880(15)
C15_3 C 0.16552(18) 0.4569(6) 0.30865(18)
H11_3 H 0.1411 0.4933 0.3328
C16_3 C 0.15322(19) 0.4733(6) 0.24334(19)
H12_3 H 0.1200 0.5181 0.2234
C17_3 C 0.18900(16) 0.4250(4) 0.20747(16)
C18_3 C 0.23575(16) 0.3546(5) 0.23846(17)
C19_3 C 0.24789(15) 0.3339(5) 0.30302(16)
H13_3 H 0.2798 0.2830 0.3225
C20_3 C 0.17533(16) 0.4502(4) 0.13674(16)
Cu4_3 Cu 0.202913(15) 0.42118(4) 0.529574(17)
O7_3 O 0.30783(10) 0.0765(3) 0.56196(11)
O1_4 O 0.73293(10) 0.2980(3) 0.06622(11)
O2_4 O 0.80783(10) 0.4235(3) 0.06196(11)
O4_4 O 0.86502(15) 0.3923(4) 0.39499(14)
O5_4 O 0.67629(15) 0.3052(5) 0.27444(19)
O6_4 O 0.74415(17) 0.2495(4) 0.35020(15)
N1_4 N 0.62536(11) 0.1481(3) 0.01758(13)
N3_4 N 0.72561(17) 0.2992(4) 0.29810(17)
C1_4 C 0.61107(15) 0.2352(5) 0.05931(19)
H1_4 H 0.6389 0.2692 0.0928
C2_4 C 0.55786(16) 0.2788(6) 0.0564(2)
H2_4 H 0.5498 0.3413 0.0873
C3_4 C 0.51631(14) 0.2313(4) 0.00833(18)
C6_2 C 0.45857(14) 0.2696(5) 0.00338(18)
C7_2 C 0.44160(15) 0.3621(5) 0.0409(2)
H6_2 H 0.4690 0.4073 0.0717
C8_2 C 0.38439(15) 0.4008(4) 0.03917(19)
C9_2 C 0.37295(15) 0.4968(5) 0.0832(2)
H7_4 H 0.4019 0.5352 0.1142
C10_4 C 0.31929(15) 0.5362(5) 0.08164(17)
H8_4 H 0.3120 0.5983 0.1132
C13_4 C 0.77404(13) 0.3665(4) 0.09078(14)
C14_4 C 0.78696(14) 0.3880(4) 0.16120(15)
C15_4 C 0.83448(18) 0.4569(6) 0.19135(18)
H11_4 H 0.8589 0.4933 0.1672
C16_4 C 0.84678(19) 0.4733(6) 0.25666(19)
H12_4 H 0.8800 0.5181 0.2766
C17_4 C 0.81100(16) 0.4250(4) 0.29253(16)
C18_4 C 0.76425(16) 0.3546(5) 0.26154(17)
C19_4 C 0.75211(15) 0.3339(5) 0.19698(16)
H13_4 H 0.7202 0.2830 0.1775
C20_4 C 0.82467(16) 0.4502(4) 0.36326(16)
C4_4 C 0.53118(15) 0.1401(5) 0.9651(2)
H3_4 H 0.5040 0.1036 0.9315
C5_4 C 0.58554(15) 0.1021(5) 0.97074(19)
H4_4 H 0.5949 0.0408 0.9401
H5_2 H 0.4318 0.2257 0.9715
C11_2 C 0.28814(14) 0.3969(4) 0.99531(16)
H9_2 H 0.2584 0.3626 0.9640
C12_2 C 0.34001(14) 0.3484(4) 0.99513(17)
H10_2 H 0.3455 0.2798 0.9652
Cu4_4 Cu 0.797087(15) 0.42118(4) 0.970426(17)
O7_4 O 0.69217(10) 0.0765(3) 0.93804(11)
O1_5 O 0.23293(10) 0.2020(3) 0.56622(11)
O4_5 O 0.36502(15) 0.1077(4) 0.89499(14)
O5_5 O 0.17629(15) 0.1948(5) 0.77444(19)
O6_5 O 0.24415(17) 0.2505(4) 0.85020(15)
N1_5 N 0.12536(11) 0.3519(3) 0.51758(13)
N3_5 N 0.22561(17) 0.2008(4) 0.79810(17)
C1_5 C 0.11107(15) 0.2648(5) 0.55931(19)
H1_5 H 0.1389 0.2308 0.5928
C2_5 C 0.05786(16) 0.2212(6) 0.5564(2)
H2_5 H 0.0498 0.1587 0.5873
C3_5 C 0.01631(14) 0.2687(4) 0.50833(18)
C4_5 C 0.03118(15) 0.3599(5) 0.4651(2)
H3_5 H 0.0040 0.3964 0.4315
C5_5 C 0.08554(15) 0.3979(5) 0.47074(19)
H4_5 H 0.0949 0.4592 0.4401
C13_5 C 0.27404(13) 0.1335(4) 0.59078(14)
C14_5 C 0.28696(14) 0.1120(4) 0.66120(15)
C15_5 C 0.33448(18) 0.0431(6) 0.69135(18)
H11_5 H 0.3589 0.0067 0.6672
C16_5 C 0.34678(19) 0.0267(6) 0.75666(19)
C17_5 C 0.31100(16) 0.0750(4) 0.79253(16)
C18_5 C 0.26425(16) 0.1454(5) 0.76154(17)
C19_5 C 0.25211(15) 0.1661(5) 0.69698(16)
H13_5 H 0.2202 0.2170 0.6775
C20_5 C 0.32467(16) 0.0498(4) 0.86326(16)
O8_3 O 0.20780(10) 0.4633(3) 0.61881(11)
N4_3 N 0.27737(11) 0.5098(3) 0.53749(13)
O3_3 O 0.29220(10) 0.9633(3) 0.88119(11)
H12_5 H 0.3800 0.9819 0.7766
H7_5 H 0.9019 0.9648 0.6142
C10_5 C 0.81929(15) 0.9638(5) 0.58164(17)
H8_5 H 0.8120 0.9017 0.6132
H7_6 H 0.0981 0.9648 0.8858
C10_6 C 0.18071(15) 0.9638(5) 0.91836(17)
H8_6 H 0.1880 0.9017 0.8868
C4_6 C 0.96882(15) 0.3599(5) 0.0349(2)
H3_6 H 0.9960 0.3964 0.0685
C5_6 C 0.91446(15) 0.3979(5) 0.02926(19)
H4_6 H 0.9051 0.4592 0.0599
O1_6 O 0.76707(10) 0.2020(3) 0.93378(11)
O4_6 O 0.63498(15) 0.1077(4) 0.60501(14)
O5_6 O 0.82371(15) 0.1948(5) 0.72556(19)
O6_6 O 0.75585(17) 0.2505(4) 0.64980(15)
N1_6 N 0.87464(11) 0.3519(3) 0.98242(13)
N3_6 N 0.77439(17) 0.2008(4) 0.70190(17)
C1_6 C 0.88893(15) 0.2648(5) 0.94069(19)
H1_6 H 0.8611 0.2308 0.9072
C2_6 C 0.94214(16) 0.2212(6) 0.9436(2)
H2_6 H 0.9502 0.1587 0.9127
C3_6 C 0.98369(14) 0.2687(4) 0.99167(18)
C13_6 C 0.72596(13) 0.1335(4) 0.90922(14)
C14_6 C 0.71304(14) 0.1120(4) 0.83880(15)
C15_6 C 0.66552(18) 0.0431(6) 0.80865(18)
H11_6 H 0.6411 0.0067 0.8328
C16_6 C 0.65322(19) 0.0267(6) 0.74334(19)
C17_6 C 0.68900(16) 0.0750(4) 0.70747(16)
C18_6 C 0.73575(16) 0.1454(5) 0.73846(17)
C19_6 C 0.74789(15) 0.1661(5) 0.80302(16)
H13_6 H 0.7798 0.2170 0.8225
C20_6 C 0.67533(16) 0.0498(4) 0.63674(16)
O8_4 O 0.79220(10) 0.4633(3) 0.88119(11)
N4_4 N 0.72263(11) 0.5098(3) 0.96251(13)
O3_4 O 0.70780(10) 0.9633(3) 0.61881(11)
H12_6 H 0.6200 0.9819 0.7234
O1_7 O 0.73293(10) 0.7020(3) 0.56622(11)
O4_7 O 0.86502(15) 0.6077(4) 0.89499(14)
O5_7 O 0.67629(15) 0.6948(5) 0.77444(19)
O6_7 O 0.74415(17) 0.7505(4) 0.85020(15)
N1_7 N 0.62536(11) 0.8519(3) 0.51758(13)
N3_7 N 0.72561(17) 0.7008(4) 0.79810(17)
C1_7 C 0.61107(15) 0.7648(5) 0.55931(19)
H1_7 H 0.6389 0.7308 0.5928
C2_7 C 0.55786(16) 0.7212(6) 0.5564(2)
H2_7 H 0.5498 0.6587 0.5873
C3_7 C 0.51631(14) 0.7687(4) 0.50833(18)
C4_7 C 0.53118(15) 0.8599(5) 0.4651(2)
H3_7 H 0.5040 0.8964 0.4315
C5_7 C 0.58554(15) 0.8979(5) 0.47074(19)
H4_7 H 0.5949 0.9592 0.4401
C6_3 C 0.45857(14) 0.7304(5) 0.50338(18)
H5_3 H 0.4318 0.7743 0.4715
C7_3 C 0.44160(15) 0.6379(5) 0.5409(2)
H6_3 H 0.4690 0.5927 0.5717
C8_3 C 0.38439(15) 0.5992(4) 0.53917(19)
C9_3 C 0.37295(15) 0.5032(5) 0.5832(2)
H7_7 H 0.4019 0.4648 0.6142
C10_7 C 0.31929(15) 0.4638(5) 0.58164(17)
H8_7 H 0.3120 0.4017 0.6132
C11_3 C 0.28814(14) 0.6031(4) 0.49531(16)
H9_3 H 0.2584 0.6374 0.4640
C12_3 C 0.34001(14) 0.6516(4) 0.49513(17)
H10_3 H 0.3455 0.7202 0.4652
C13_7 C 0.77404(13) 0.6335(4) 0.59078(14)
C14_7 C 0.78696(14) 0.6120(4) 0.66120(15)
C15_7 C 0.83448(18) 0.5431(6) 0.69135(18)
H11_7 H 0.8589 0.5067 0.6672
C16_7 C 0.84678(19) 0.5267(6) 0.75666(19)
H12_7 H 0.8800 0.4819 0.7766
C17_7 C 0.81100(16) 0.5750(4) 0.79253(16)
C18_7 C 0.76425(16) 0.6454(5) 0.76154(17)
C19_7 C 0.75211(15) 0.6661(5) 0.69698(16)
H13_7 H 0.7202 0.7170 0.6775
C20_7 C 0.82467(16) 0.5498(4) 0.86326(16)
C4_8 C 0.46882(15) 0.8599(5) 0.0349(2)
H3_8 H 0.4960 0.8964 0.0685
C5_8 C 0.41446(15) 0.8979(5) 0.02926(19)
H4_8 H 0.4051 0.9592 0.0599
H5_4 H 0.5682 0.7743 0.0285
C11_4 C 0.71186(14) 0.6031(4) 0.00469(16)
H9_4 H 0.7416 0.6374 0.0360
C12_4 C 0.65999(14) 0.6516(4) 0.00487(17)
H10_4 H 0.6545 0.7202 0.0348
O1_8 O 0.26707(10) 0.7020(3) 0.93378(11)
O4_8 O 0.13498(15) 0.6077(4) 0.60501(14)
O5_8 O 0.32371(15) 0.6948(5) 0.72556(19)
O6_8 O 0.25585(17) 0.7505(4) 0.64980(15)
N1_8 N 0.37464(11) 0.8519(3) 0.98242(13)
N3_8 N 0.27439(17) 0.7008(4) 0.70190(17)
C1_8 C 0.38893(15) 0.7648(5) 0.94069(19)
H1_8 H 0.3611 0.7308 0.9072
C2_8 C 0.44214(16) 0.7212(6) 0.9436(2)
H2_8 H 0.4502 0.6587 0.9127
C3_8 C 0.48369(14) 0.7687(4) 0.99167(18)
C6_4 C 0.54143(14) 0.7304(5) 0.99662(18)
C7_4 C 0.55840(15) 0.6379(5) 0.9591(2)
H6_4 H 0.5310 0.5927 0.9283
C8_4 C 0.61561(15) 0.5992(4) 0.96083(19)
C9_4 C 0.62705(15) 0.5032(5) 0.9168(2)
H7_8 H 0.5981 0.4648 0.8858
C10_8 C 0.68071(15) 0.4638(5) 0.91836(17)
H8_8 H 0.6880 0.4017 0.8868
C13_8 C 0.22596(13) 0.6335(4) 0.90922(14)
C14_8 C 0.21304(14) 0.6120(4) 0.83880(15)
C15_8 C 0.16552(18) 0.5431(6) 0.80865(18)
H11_8 H 0.1411 0.5067 0.8328
C16_8 C 0.15322(19) 0.5267(6) 0.74334(19)
H12_8 H 0.1200 0.4819 0.7234
C17_8 C 0.18900(16) 0.5750(4) 0.70747(16)
C18_8 C 0.23575(16) 0.6454(5) 0.73846(17)
C19_8 C 0.24789(15) 0.6661(5) 0.80302(16)
H13_8 H 0.2798 0.7170 0.8225
C20_8 C 0.17533(16) 0.5498(4) 0.63674(16)
N2 N 0.22263(11) 0.9902(3) 0.46251(13)
C6_5 C 0.04143(14) 0.7696(5) 0.49662(18)
H5_5 H 0.0682 0.7257 0.5285
C7_5 C 0.05840(15) 0.8621(5) 0.4591(2)
H6_5 H 0.0310 0.9073 0.4283
C8_5 C 0.11561(15) 0.9008(4) 0.46083(19)
C9_5 C 0.12705(15) 0.9968(5) 0.4168(2)
C11_5 C 0.21186(14) 0.8969(4) 0.50469(16)
H9_5 H 0.2416 0.8626 0.5360
C12_5 C 0.15999(14) 0.8484(4) 0.50487(17)
H10_5 H 0.1545 0.7798 0.5348
N2_2 N 0.77737(11) 0.9902(3) 0.03749(13)
C6_6 C 0.95857(14) 0.7696(5) 0.00338(18)
C7_6 C 0.94160(15) 0.8621(5) 0.0409(2)
H6_6 H 0.9690 0.9073 0.0717
C8_6 C 0.88439(15) 0.9008(4) 0.03917(19)
C9_6 C 0.87295(15) 0.9968(5) 0.0832(2)
H5_6 H 0.9318 0.7257 0.9715
C11_6 C 0.78814(14) 0.8969(4) 0.99531(16)
H9_6 H 0.7584 0.8626 0.9640
C12_6 C 0.84001(14) 0.8484(4) 0.99513(17)
H10_6 H 0.8455 0.7798 0.9652
N2_3 N 0.77737(11) 0.0098(3) 0.53749(13)
C6_7 C 0.95857(14) 0.2304(5) 0.50338(18)
H5_7 H 0.9318 0.2743 0.4715
C7_7 C 0.94160(15) 0.1379(5) 0.5409(2)
H6_7 H 0.9690 0.0927 0.5717
C8_7 C 0.88439(15) 0.0992(4) 0.53917(19)
C9_7 C 0.87295(15) 0.0032(5) 0.5832(2)
C11_7 C 0.78814(14) 0.1031(4) 0.49531(16)
H9_7 H 0.7584 0.1374 0.4640
C12_7 C 0.84001(14) 0.1516(4) 0.49513(17)
H10_7 H 0.8455 0.2202 0.4652
H5_8 H 0.0682 0.2743 0.0285
C11_8 C 0.21186(14) 0.1031(4) 0.00469(16)
H9_8 H 0.2416 0.1374 0.0360
C12_8 C 0.15999(14) 0.1516(4) 0.00487(17)
H10_8 H 0.1545 0.2202 0.0348
N2_4 N 0.22263(11) 0.0098(3) 0.96251(13)
C6_8 C 0.04143(14) 0.2304(5) 0.99662(18)
C7_8 C 0.05840(15) 0.1379(5) 0.9591(2)
H6_8 H 0.0310 0.0927 0.9283
C8_8 C 0.11561(15) 0.0992(4) 0.96083(19)
C9_8 C 0.12705(15) 0.0032(5) 0.9168(2)
loop_
_geom_bond_atom_site_label_1
_geom_bond_atom_site_label_2
_geom_bond_site_symmetry_1
_geom_bond_site_symmetry_2
H8 C10 1_555 1_555
Cu3 O3 1_555 1_555
Cu1 O1 1_555 1_555
O1 C13 1_555 1_555
O2 C13 1_555 1_555
O4 C20 1_555 1_555
O5 N3 1_555 1_555
O6 N3 1_555 1_555
N1 Cu1 1_555 1_555
N3 C18 1_555 1_555
C1 N1 1_555 1_555
H1 C1 1_555 1_555
C2 C1 1_555 1_555
H2 C2 1_555 1_555
C3 C2 1_555 1_555
C4 C3 1_555 1_555
H3 C4 1_555 1_555
C5 N1 1_555 1_555
H4 C5 1_555 1_555
C13 C14 1_555 1_555
C14 C15 1_555 1_555
C15 H11 1_555 1_555
C16 C15 1_555 1_555
C17 C16 1_555 1_555
C18 C17 1_555 1_555
C19 C14 1_555 1_555
H13 C19 1_555 1_555
C20 C17 1_555 1_555
Cu4 O2 1_555 1_555
O7 Cu1 1_555 1_555
O8 Cu1 1_555 1_555
N4 Cu1 1_555 1_555
C4 C5 1_555 1_555
C18 C19 1_555 1_555
Cu2 O3_2 1_555 1_555
Cu1_2 O1_2 1_555 1_555
O1_2 C13_2 1_555 1_555
O2_2 C13_2 1_555 1_555
O4_2 C20_2 1_555 1_555
O5_2 N3_2 1_555 1_555
O6_2 N3_2 1_555 1_555
N1_2 Cu1_2 1_555 1_555
N3_2 C18_2 1_555 1_555
C1_2 N1_2 1_555 1_555
H1_2 C1_2 1_555 1_555
C2_2 C1_2 1_555 1_555
H2_2 C2_2 1_555 1_555
C3_2 C2_2 1_555 1_555
C13_2 C14_2 1_555 1_555
C14_2 C15_2 1_555 1_555
C15_2 H11_2 1_555 1_555
C16_2 C15_2 1_555 1_555
C17_2 C16_2 1_555 1_555
C18_2 C17_2 1_555 1_555
C19_2 C14_2 1_555 1_555
H13_2 C19_2 1_555 1_555
C20_2 C17_2 1_555 1_555
O8_2 Cu1_2 1_555 1_555
N4_2 Cu1_2 1_555 1_555
C18_2 C19_2 1_555 1_555
H3_2 C4_2 1_555 1_555
H4_2 C5_2 1_555 1_555
C4_2 C5_2 1_555 1_555
H8_2 C10_2 1_555 1_555
Cu2 O1_3 1_555 1_555
O1_3 C13_3 1_555 1_555
O2_3 C13_3 1_555 1_555
O8_2 C20_3 1_555 1_555
O4_3 C20_3 1_555 1_555
O5_3 N3_3 1_555 1_555
O6_3 N3_3 1_555 1_555
N1_3 Cu2 1_555 1_555
N4 C10_3 1_555 1_555
N3_3 C18_3 1_555 1_555
C1_3 N1_3 1_555 1_555
H1_3 C1_3 1_555 1_555
C2_3 C1_3 1_555 1_555
H2_3 C2_3 1_555 1_555
C3_3 C2_3 1_555 1_555
C4_3 C3_3 1_555 1_555
H3_3 C4_3 1_555 1_555
C5_3 N1_3 1_555 1_555
H4_3 C5_3 1_555 1_555
C6 C3_3 1_555 1_555
H5 C6 1_555 1_555
C7 C6 1_555 1_555
H6 C7 1_555 1_555
C8 C7 1_555 1_555
C9 C8 1_555 1_555
H7_3 C9 1_555 1_555
C10_3 C9 1_555 1_555
H8_3 C10_3 1_555 1_555
C11 N4 1_555 1_555
H9 C11 1_555 1_555
C12 C8 1_555 1_555
H10 C12 1_555 1_555
C13_3 C14_3 1_555 1_555
C14_3 C15_3 1_555 1_555
C15_3 H11_3 1_555 1_555
C16_3 C15_3 1_555 1_555
H12_3 C16_3 1_555 1_555
C17_3 C16_3 1_555 1_555
C18_3 C17_3 1_555 1_555
C19_3 C14_3 1_555 1_555
H13_3 C19_3 1_555 1_555
C20_3 C17_3 1_555 1_555
Cu4_3 O2_3 1_555 1_555
O7_3 Cu2 1_555 1_555
C4_3 C5_3 1_555 1_555
C11 C12 1_555 1_555
C18_3 C19_3 1_555 1_555
Cu3 O1_4 1_555 1_555
O1_4 C13_4 1_555 1_555
O2_4 C13_4 1_555 1_555
O8 C20_4 1_555 1_555
O4_4 C20_4 1_555 1_555
O5_4 N3_4 1_555 1_555
O6_4 N3_4 1_555 1_555
N1_4 Cu3 1_555 1_555
N4_2 C10_4 1_555 1_555
N3_4 C18_4 1_555 1_555
C1_4 N1_4 1_555 1_555
H1_4 C1_4 1_555 1_555
C2_4 C1_4 1_555 1_555
H2_4 C2_4 1_555 1_555
C3_4 C2_4 1_555 1_555
C6_2 C3_4 1_555 1_555
C7_2 C6_2 1_555 1_555
H6_2 C7_2 1_555 1_555
C8_2 C7_2 1_555 1_555
C9_2 C8_2 1_555 1_555
H7_4 C9_2 1_555 1_555
C10_4 C9_2 1_555 1_555
H8_4 C10_4 1_555 1_555
C13_4 C14_4 1_555 1_555
C14_4 C15_4 1_555 1_555
C15_4 H11_4 1_555 1_555
C16_4 C15_4 1_555 1_555
H12_4 C16_4 1_555 1_555
C17_4 C16_4 1_555 1_555
C18_4 C17_4 1_555 1_555
C19_4 C14_4 1_555 1_555
H13_4 C19_4 1_555 1_555
C20_4 C17_4 1_555 1_555
C18_4 C19_4 1_555 1_555
H3_4 C4_4 1_555 1_555
H4_4 C5_4 1_555 1_555
H9_2 C11_2 1_555 1_555
H10_2 C12_2 1_555 1_555
C4_4 C5_4 1_555 1_555
C11_2 C12_2 1_555 1_555
Cu4_3 O1_5 1_555 1_555
O1_5 C13_5 1_555 1_555
O7_3 C13_5 1_555 1_555
O4_5 C20_5 1_555 1_555
O5_5 N3_5 1_555 1_555
O6_5 N3_5 1_555 1_555
N1_5 Cu4_3 1_555 1_555
N3_5 C18_5 1_555 1_555
C1_5 N1_5 1_555 1_555
H1_5 C1_5 1_555 1_555
C2_5 C1_5 1_555 1_555
H2_5 C2_5 1_555 1_555
C3_5 C2_5 1_555 1_555
C4_5 C3_5 1_555 1_555
H3_5 C4_5 1_555 1_555
C5_5 N1_5 1_555 1_555
H4_5 C5_5 1_555 1_555
C13_5 C14_5 1_555 1_555
C14_5 C15_5 1_555 1_555
C15_5 H11_5 1_555 1_555
C16_5 C15_5 1_555 1_555
C17_5 C16_5 1_555 1_555
C18_5 C17_5 1_555 1_555
C19_5 C14_5 1_555 1_555
H13_5 C19_5 1_555 1_555
C20_5 C17_5 1_555 1_555
O8_3 Cu4_3 1_555 1_555
N4_3 Cu4_3 1_555 1_555
C4_5 C5_5 1_555 1_555
C18_5 C19_5 1_555 1_555
Cu4_2 O3_3 1_555 1_555
H8_5 C10_5 1_555 1_555
H8_6 C10_6 1_555 1_555
H3_6 C4_6 1_555 1_555
H4_6 C5_6 1_555 1_555
C4_6 C5_6 1_555 1_555
Cu4_4 O1_6 1_555 1_555
O1_6 C13_6 1_555 1_555
O7_4 C13_6 1_555 1_555
O4_6 C20_6 1_555 1_555
O5_6 N3_6 1_555 1_555
O6_6 N3_6 1_555 1_555
N1_6 Cu4_4 1_555 1_555
N3_6 C18_6 1_555 1_555
C1_6 N1_6 1_555 1_555
H1_6 C1_6 1_555 1_555
C2_6 C1_6 1_555 1_555
H2_6 C2_6 1_555 1_555
C3_6 C2_6 1_555 1_555
C13_6 C14_6 1_555 1_555
C14_6 C15_6 1_555 1_555
C15_6 H11_6 1_555 1_555
C16_6 C15_6 1_555 1_555
C17_6 C16_6 1_555 1_555
C18_6 C17_6 1_555 1_555
C19_6 C14_6 1_555 1_555
H13_6 C19_6 1_555 1_555
C20_6 C17_6 1_555 1_555
O8_4 Cu4_4 1_555 1_555
N4_4 Cu4_4 1_555 1_555
C18_6 C19_6 1_555 1_555
Cu4 O3_4 1_555 1_555
Cu4 O1_7 1_555 1_555
O1_7 C13_7 1_555 1_555
O7 C13_7 1_555 1_555
O8_4 C20_7 1_555 1_555
O4_7 C20_7 1_555 1_555
O5_7 N3_7 1_555 1_555
O6_7 N3_7 1_555 1_555
N1_7 Cu4 1_555 1_555
N4_3 C10_7 1_555 1_555
N3_7 C18_7 1_555 1_555
C1_7 N1_7 1_555 1_555
H1_7 C1_7 1_555 1_555
C2_7 C1_7 1_555 1_555
H2_7 C2_7 1_555 1_555
C3_7 C2_7 1_555 1_555
C4_7 C3_7 1_555 1_555
H3_7 C4_7 1_555 1_555
C5_7 N1_7 1_555 1_555
H4_7 C5_7 1_555 1_555
C6_3 C3_7 1_555 1_555
H5_3 C6_3 1_555 1_555
C7_3 C6_3 1_555 1_555
H6_3 C7_3 1_555 1_555
C8_3 C7_3 1_555 1_555
C9_3 C8_3 1_555 1_555
H7_7 C9_3 1_555 1_555
C10_7 C9_3 1_555 1_555
H8_7 C10_7 1_555 1_555
C11_3 N4_3 1_555 1_555
H9_3 C11_3 1_555 1_555
C12_3 C8_3 1_555 1_555
H10_3 C12_3 1_555 1_555
C13_7 C14_7 1_555 1_555
C14_7 C15_7 1_555 1_555
C15_7 H11_7 1_555 1_555
C16_7 C15_7 1_555 1_555
H12_7 C16_7 1_555 1_555
C17_7 C16_7 1_555 1_555
C18_7 C17_7 1_555 1_555
C19_7 C14_7 1_555 1_555
H13_7 C19_7 1_555 1_555
C20_7 C17_7 1_555 1_555
C4_7 C5_7 1_555 1_555
C11_3 C12_3 1_555 1_555
C18_7 C19_7 1_555 1_555
H3_8 C4_8 1_555 1_555
H4_8 C5_8 1_555 1_555
H9_4 C11_4 1_555 1_555
H10_4 C12_4 1_555 1_555
C4_8 C5_8 1_555 1_555
C11_4 C12_4 1_555 1_555
Cu4_2 O1_8 1_555 1_555
O1_8 C13_8 1_555 1_555
O7_2 C13_8 1_555 1_555
O8_3 C20_8 1_555 1_555
O4_8 C20_8 1_555 1_555
O5_8 N3_8 1_555 1_555
O6_8 N3_8 1_555 1_555
N1_8 Cu4_2 1_555 1_555
N4_4 C10_8 1_555 1_555
N3_8 C18_8 1_555 1_555
C1_8 N1_8 1_555 1_555
H1_8 C1_8 1_555 1_555
C2_8 C1_8 1_555 1_555
H2_8 C2_8 1_555 1_555
C3_8 C2_8 1_555 1_555
C6_4 C3_8 1_555 1_555
C7_4 C6_4 1_555 1_555
H6_4 C7_4 1_555 1_555
C8_4 C7_4 1_555 1_555
C9_4 C8_4 1_555 1_555
H7_8 C9_4 1_555 1_555
C10_8 C9_4 1_555 1_555
H8_8 C10_8 1_555 1_555
C13_8 C14_8 1_555 1_555
C14_8 C15_8 1_555 1_555
C15_8 H11_8 1_555 1_555
C16_8 C15_8 1_555 1_555
H12_8 C16_8 1_555 1_555
C17_8 C16_8 1_555 1_555
C18_8 C17_8 1_555 1_555
C19_8 C14_8 1_555 1_555
H13_8 C19_8 1_555 1_555
C20_8 C17_8 1_555 1_555
C18_8 C19_8 1_555 1_555
H5_5 C6_5 1_555 1_555
C7_5 C6_5 1_555 1_555
H6_5 C7_5 1_555 1_555
C8_5 C7_5 1_555 1_555
C9_5 C8_5 1_555 1_555
C11_5 N2 1_555 1_555
H9_5 C11_5 1_555 1_555
C12_5 C8_5 1_555 1_555
H10_5 C12_5 1_555 1_555
C11_5 C12_5 1_555 1_555
C7_6 C6_6 1_555 1_555
H6_6 C7_6 1_555 1_555
C8_6 C7_6 1_555 1_555
C9_6 C8_6 1_555 1_555
H9_6 C11_6 1_555 1_555
H10_6 C12_6 1_555 1_555
C11_6 C12_6 1_555 1_555
H5_7 C6_7 1_555 1_555
C7_7 C6_7 1_555 1_555
H6_7 C7_7 1_555 1_555
C8_7 C7_7 1_555 1_555
C9_7 C8_7 1_555 1_555
C11_7 N2_3 1_555 1_555
H9_7 C11_7 1_555 1_555
C12_7 C8_7 1_555 1_555
H10_7 C12_7 1_555 1_555
C11_7 C12_7 1_555 1_555
H9_8 C11_8 1_555 1_555
H10_8 C12_8 1_555 1_555
C11_8 C12_8 1_555 1_555
C7_8 C6_8 1_555 1_555
H6_8 C7_8 1_555 1_555
C8_8 C7_8 1_555 1_555
C9_8 C8_8 1_555 1_555

#END
