
###############################################################################
#
# This file contains modified crystal structure data generated from the
# MOF subset of the Cambridge Structural Database (CSD) v543 
# hosted by the Cambridge Crystallographic Data Centre (CCDC).
#
# This work is licensed under the Creative Commons
# Attribution-NonCommercial-ShareAlike 4.0 International License.
# To view a copy of this license, visit
# http://creativecommons.org/licenses/by-nc-sa/4.0/
# or send a letter to
# Creative Commons, PO Box 1866, Mountain View, CA 94042, USA.
#
# CIF created using the CSD Python API on 29 September 2022
# The structure has been converted into the P1 space group
# The structure has a 3D framework
# The original CSD entry TUKCUZ is in the monoclinic crystal system
# The framework has been calculated to contain at least 10.0% void space
# The void calculation uses a probe of radius 1.32A, grid spacing 0.4
#
###############################################################################

data_TUKCUZ
_chemical_formula_moiety         '(C92 H64 Cd4 N24 O20)n'
_symmetry_cell_setting           triclinic
_symmetry_space_group_name_H-M   'P 1'
_symmetry_Int_Tables_number      1
_space_group_name_Hall           'P 1'
loop_
_symmetry_equiv_pos_site_id
_symmetry_equiv_pos_as_xyz
1 x,y,z
_cell_length_a                   9.8120(3)
_cell_length_b                   14.2830(5)
_cell_length_c                   19.5720(6)
_cell_angle_alpha                90
_cell_angle_beta                 96.9410(10)
_cell_angle_gamma                90
_cell_volume                     2722.81
loop_
_atom_site_label
_atom_site_type_symbol
_atom_site_fract_x
_atom_site_fract_y
_atom_site_fract_z
H1 H 0.2285 0.0031 0.2316
H4 H 0.0440 0.1463 0.3804
H12 H 0.4240 0.0365 0.1663
N2 N 0.0443(4) 0.0374(3) 0.31424(19)
C1 C 0.2606(5) 0.9867(3) 0.2766(2)
C2 C 0.1803(5) 0.9989(3) 0.3292(2)
C3 C 0.2242(5) 0.9742(3) 0.3964(2)
H2 H 0.1678 0.9828 0.4308
C4 C 0.3542(5) 0.9363(3) 0.4113(2)
C5 C 0.4388(5) 0.9244(3) 0.3600(2)
H3 H 0.5268 0.9001 0.3702
C6 C 0.3894(5) 0.9495(3) 0.2931(2)
C10 C 0.3232(5) 0.9017(4) 0.5324(2)
H7 H 0.2340 0.9245 0.5302
C11 C 0.5162(5) 0.8391(4) 0.5689(3)
H8 H 0.5863 0.8101 0.5975
C12 C 0.5252(5) 0.8656(4) 0.5033(3)
H9 H 0.6000 0.8579 0.4788
C13 C 0.5666(5) 0.8641(3) 0.2380(3)
H10 H 0.5839 0.8184 0.2718
C14 C 0.5724(5) 0.9435(3) 0.1459(2)
H11 H 0.5963 0.9634 0.1037
C15 C 0.4773(5) 0.9845(4) 0.1802(2)
N3 N 0.3899(4) 0.8610(3) 0.5873(2)
N4 N 0.4011(4) 0.9062(3) 0.47990(19)
N5 N 0.6284(4) 0.8687(3) 0.1823(2)
N6 N 0.4751(4) 0.9336(3) 0.23996(19)
Cd2 Cd 0.76598(3) 0.749521(19) 0.151366(15)
Cd3 Cd 0.26598(3) 0.750479(19) 0.651366(15)
C17 C 0.1838(5) 0.7069(4) 0.5105(2)
C18 C 0.1928(4) 0.7057(3) 0.4344(2)
C19 C 0.0787(5) 0.7279(3) 0.3879(2)
C20 C 0.0914(5) 0.7337(3) 0.3180(3)
C21 C 0.2164(5) 0.7189(4) 0.2953(2)
H14 H 0.2246 0.7238 0.2486
C22 C 0.3312(5) 0.6966(3) 0.3415(2)
C23 C 0.3186(5) 0.6881(3) 0.4109(2)
H15 H 0.3939 0.6708 0.4417
O3 O 0.0864(5) 0.7490(2) 0.5331(2)
O4 O 0.2804(4) 0.6699(3) 0.54975(16)
O5 O 0.4517(4) 0.6834(3) 0.31506(18)
H16 H 0.5102 0.6649 0.3455
C1_2 C 0.2394(5) 0.4867(3) 0.2234(2)
H1_2 H 0.2715 0.5031 0.2684
C2_2 C 0.3197(5) 0.4989(3) 0.1708(2)
C3_2 C 0.2758(5) 0.4742(3) 0.1036(2)
H2_2 H 0.3322 0.4828 0.0692
C4_2 C 0.1458(5) 0.4363(3) 0.0887(2)
C5_2 C 0.0612(5) 0.4244(3) 0.1400(2)
C6_2 C 0.1106(5) 0.4495(3) 0.2069(2)
C7 C 0.5056(5) 0.6118(4) 0.1545(2)
H4_2 H 0.4560 0.6463 0.1196
C8 C 0.6667(5) 0.5632(4) 0.2290(3)
H5 H 0.7520 0.5576 0.2551
C9 C 0.5574(5) 0.5071(4) 0.2342(3)
H6 H 0.5526 0.4577 0.2648
C15_2 C 0.0227(5) 0.4845(4) 0.3198(2)
H12_2 H 0.0760 0.5365 0.3337
C16 C 0.9661(7) 0.7516(3) 0.2667(3)
H13 H 0.9943 0.7389 0.4035
N1 N 0.6326(4) 0.6293(3) 0.1795(2)
N2_2 N 0.4557(4) 0.5374(3) 0.18576(19)
N4_2 N 0.0989(4) 0.4062(3) 0.02010(19)
N6_2 N 0.0249(4) 0.4336(3) 0.26004(19)
O1 O 0.8493(5) 0.7412(3) 0.2848(3)
O2 O 0.9828(4) 0.7747(3) 0.20678(18)
N7 N 0.8899(4) 0.6390(3) 0.0873(2)
O6 O 0.5864(5) 0.7510(2) 0.0331(2)
O7 O 0.7804(4) 0.8301(3) 0.04975(16)
C17_2 C 0.6838(5) 0.7931(4) 0.0105(2)
C7_2 C 0.0056(5) 0.8882(4) 0.6545(2)
C8_2 C 0.1667(5) 0.9368(4) 0.7290(3)
H5_2 H 0.2520 0.9424 0.7551
C9_2 C 0.0574(5) 0.9929(4) 0.7342(3)
C16_2 C 0.4661(7) 0.7484(3) 0.7667(3)
C18_2 C 0.6928(4) 0.7943(3) 0.9344(2)
C19_2 C 0.5787(5) 0.7721(3) 0.8879(2)
H13_2 H 0.4943 0.7611 0.9035
C20_2 C 0.5914(5) 0.7663(3) 0.8180(3)
C21_2 C 0.7164(5) 0.7811(4) 0.7953(2)
H14_2 H 0.7246 0.7762 0.7486
C22_2 C 0.8312(5) 0.8034(3) 0.8415(2)
C23_2 C 0.8186(5) 0.8119(3) 0.9109(2)
H15_2 H 0.8939 0.8292 0.9417
N1_2 N 0.1326(4) 0.8707(3) 0.6795(2)
O1_2 O 0.3493(5) 0.7588(3) 0.7848(3)
O2_2 O 0.4828(4) 0.7253(3) 0.70678(18)
O5_2 O 0.9517(4) 0.8166(3) 0.81506(18)
N8 N 0.1284(4) 0.6313(3) 0.6823(2)
H3_2 H 0.0268 0.5999 0.8702
H9_2 H 0.1000 0.6421 0.9788
C13_2 C 0.0666(5) 0.6359(3) 0.7380(3)
H10_2 H 0.0839 0.6816 0.7718
C14_2 C 0.0724(5) 0.5565(3) 0.6459(2)
H11_2 H 0.0963 0.5366 0.6037
C10_2 C 0.8232(5) 0.5983(4) 0.0324(2)
H7_2 H 0.7340 0.5755 0.0302
Cd1 Cd 0.73402(3) 0.249521(19) 0.348634(15)
C7_3 C 0.9944(5) 0.1118(4) 0.3455(2)
C8_3 C 0.8333(5) 0.0632(4) 0.2710(3)
H5_3 H 0.7480 0.0576 0.2449
C9_3 C 0.9426(5) 0.0071(4) 0.2658(3)
C16_3 C 0.5339(7) 0.2516(3) 0.2333(3)
C18_3 C 0.3072(4) 0.2057(3) 0.0656(2)
C19_3 C 0.4213(5) 0.2279(3) 0.1121(2)
H13_3 H 0.5057 0.2389 0.0965
C20_3 C 0.4086(5) 0.2337(3) 0.1820(3)
C21_3 C 0.2836(5) 0.2189(4) 0.2047(2)
H14_3 H 0.2754 0.2238 0.2514
C22_3 C 0.1688(5) 0.1966(3) 0.1585(2)
C23_3 C 0.1814(5) 0.1881(3) 0.0891(2)
H15_3 H 0.1061 0.1708 0.0583
N1_3 N 0.8674(4) 0.1293(3) 0.3205(2)
O1_3 O 0.6507(5) 0.2412(3) 0.2152(3)
O2_3 O 0.5172(4) 0.2747(3) 0.29322(18)
O5_3 O 0.0483(4) 0.1834(3) 0.18494(18)
N7_2 N 0.6101(4) 0.1390(3) 0.4127(2)
N8_2 N 0.8716(4) 0.3687(3) 0.3177(2)
O6_2 O 0.9136(5) 0.2510(2) 0.4669(2)
O7_2 O 0.7196(4) 0.3301(3) 0.45025(16)
C17_3 C 0.3162(5) 0.2069(4) 0.9895(2)
O3_2 O 0.4136(5) 0.2490(2) 0.9669(2)
O4_2 O 0.2196(4) 0.1699(3) 0.95025(16)
Cd4 Cd 0.23402(3) 0.250479(19) 0.848634(15)
C10_3 C 0.1768(5) 0.4017(4) 0.9676(2)
H7_3 H 0.2660 0.4245 0.9698
N3_2 N 0.1101(4) 0.3610(3) 0.9127(2)
H3_3 H 0.9732 0.4001 0.1298
H9_3 H 0.9000 0.3579 0.0212
C13_3 C 0.9334(5) 0.3641(3) 0.2620(3)
H10_3 H 0.9161 0.3184 0.2282
C14_3 C 0.9276(5) 0.4435(3) 0.3541(2)
H11_3 H 0.9037 0.4634 0.3963
C1_3 C 0.7394(5) 0.0133(3) 0.7234(2)
C2_3 C 0.8197(5) 0.0011(3) 0.6708(2)
C3_3 C 0.7758(5) 0.0258(3) 0.6036(2)
H2_3 H 0.8322 0.0172 0.5692
C4_3 C 0.6458(5) 0.0637(3) 0.5887(2)
C5_3 C 0.5612(5) 0.0756(3) 0.6400(2)
H3_4 H 0.4732 0.0999 0.6298
C6_3 C 0.6106(5) 0.0505(3) 0.7069(2)
C10_4 C 0.6768(5) 0.0983(4) 0.4676(2)
H7_4 H 0.7660 0.0755 0.4698
C11_2 C 0.4838(5) 0.1609(4) 0.4311(3)
H8_2 H 0.4137 0.1899 0.4025
C12_2 C 0.4748(5) 0.1344(4) 0.4967(3)
H9_4 H 0.4000 0.1421 0.5212
C13_4 C 0.4334(5) 0.1359(3) 0.7620(3)
H10_4 H 0.4161 0.1816 0.7282
C14_4 C 0.4276(5) 0.0565(3) 0.8541(2)
H11_4 H 0.4037 0.0366 0.8963
C15_3 C 0.5227(5) 0.0155(4) 0.8198(2)
N4_3 N 0.5989(4) 0.0938(3) 0.52010(19)
N5_2 N 0.3716(4) 0.1313(3) 0.8177(2)
N6_3 N 0.5249(4) 0.0664(3) 0.76004(19)
C1_4 C 0.7606(5) 0.5133(3) 0.7766(2)
H1_3 H 0.7285 0.4969 0.7316
C2_4 C 0.6803(5) 0.5011(3) 0.8292(2)
C3_4 C 0.7242(5) 0.5258(3) 0.8964(2)
H2_4 H 0.6678 0.5172 0.9308
C4_4 C 0.8542(5) 0.5637(3) 0.9113(2)
C5_4 C 0.9388(5) 0.5756(3) 0.8600(2)
C6_4 C 0.8894(5) 0.5505(3) 0.7931(2)
C7_4 C 0.4944(5) 0.3882(4) 0.8455(2)
H4_3 H 0.5440 0.3537 0.8804
C8_4 C 0.3333(5) 0.4368(4) 0.7710(3)
H5_4 H 0.2480 0.4424 0.7449
C9_4 C 0.4426(5) 0.4929(4) 0.7658(3)
H6_2 H 0.4474 0.5423 0.7352
C15_4 C 0.9773(5) 0.5155(4) 0.6802(2)
H12_3 H 0.9240 0.4635 0.6663
C16_4 C 0.0339(7) 0.2484(3) 0.7333(3)
H13_4 H 0.0057 0.2611 0.5965
N1_4 N 0.3674(4) 0.3707(3) 0.8205(2)
N2_3 N 0.5443(4) 0.4626(3) 0.81424(19)
N4_4 N 0.9011(4) 0.5938(3) 0.97990(19)
N6_4 N 0.9751(4) 0.5664(3) 0.73996(19)
O1_4 O 0.1507(5) 0.2588(3) 0.7152(3)
O2_4 O 0.0172(4) 0.2253(3) 0.79322(18)
C17_4 C 0.8162(5) 0.2931(4) 0.4895(2)
C18_4 C 0.8072(4) 0.2943(3) 0.5656(2)
C19_4 C 0.9213(5) 0.2721(3) 0.6121(2)
C20_4 C 0.9086(5) 0.2663(3) 0.6820(3)
C21_4 C 0.7836(5) 0.2811(4) 0.7047(2)
H14_4 H 0.7754 0.2762 0.7514
C22_4 C 0.6688(5) 0.3034(3) 0.6585(2)
C23_4 C 0.6814(5) 0.3119(3) 0.5891(2)
H15_4 H 0.6061 0.3292 0.5583
O5_4 O 0.5483(4) 0.3166(3) 0.68494(18)
H16_2 H 0.4898 0.3351 0.6545
H6_3 H 0.9474 0.9577 0.2352
H16_3 H 0.9898 0.1649 0.1545
C11_3 C 0.9838(5) 0.3391(4) 0.9311(3)
H8_3 H 0.9137 0.3101 0.9025
C12_3 C 0.9748(5) 0.3656(4) 0.9967(3)
H16_4 H 0.0102 0.8351 0.8455
H6_4 H 0.0526 0.0423 0.7648
H1_4 H 0.7715 0.9969 0.7684
H4_4 H 0.9560 0.8537 0.6196
H12_4 H 0.5760 0.9635 0.8337
N2_4 N 0.9557(4) 0.9626(3) 0.68576(19)
C11_4 C 0.0162(5) 0.6609(4) 0.0689(3)
H8_4 H 0.0863 0.6899 0.0975
C12_4 C 0.0252(5) 0.6344(4) 0.0033(3)
loop_
_geom_bond_atom_site_label_1
_geom_bond_atom_site_label_2
_geom_bond_site_symmetry_1
_geom_bond_site_symmetry_2
C2 C1 1_555 1_555
C3 C2 1_555 1_555
H2 C3 1_555 1_555
C4 C3 1_555 1_555
C5 C4 1_555 1_555
H3 C5 1_555 1_555
C6 C1 1_555 1_555
C10 H7 1_555 1_555
C11 H8 1_555 1_555
C12 C11 1_555 1_555
H9 C12 1_555 1_555
C13 H10 1_555 1_555
C14 H11 1_555 1_555
C15 C14 1_555 1_555
N3 C10 1_555 1_555
N4 C4 1_555 1_555
N5 C13 1_555 1_555
N6 C6 1_555 1_555
Cd2 N5 1_555 1_555
Cd3 N3 1_555 1_555
C5 C6 1_555 1_555
C10 N4 1_555 1_555
C11 N3 1_555 1_555
C12 N4 1_555 1_555
C13 N6 1_555 1_555
C14 N5 1_555 1_555
C15 N6 1_555 1_555
C17 C18 1_555 1_555
C18 C19 1_555 1_555
C20 C19 1_555 1_555
C21 C20 1_555 1_555
H14 C21 1_555 1_555
C22 C21 1_555 1_555
C23 C18 1_555 1_555
H15 C23 1_555 1_555
O3 C17 1_555 1_555
O4 C17 1_555 1_555
O5 C22 1_555 1_555
H16 O5 1_555 1_555
Cd3 O3 1_555 1_555
C22 C23 1_555 1_555
O4 Cd3 1_555 1_555
Cd2 N1 1_555 1_555
C1_2 H1_2 1_555 1_555
C2_2 C1_2 1_555 1_555
C3_2 C2_2 1_555 1_555
H2_2 C3_2 1_555 1_555
C4_2 C3_2 1_555 1_555
C5_2 C4_2 1_555 1_555
C6_2 C1_2 1_555 1_555
C7 H4_2 1_555 1_555
C8 H5 1_555 1_555
C9 C8 1_555 1_555
H6 C9 1_555 1_555
H12_2 C15_2 1_555 1_555
N1 C7 1_555 1_555
N2_2 C2_2 1_555 1_555
N4_2 C4_2 1_555 1_555
N6_2 C6_2 1_555 1_555
O1 Cd2 1_555 1_555
O2 Cd2 1_555 1_555
N7 Cd2 1_555 1_555
O6 Cd2 1_555 1_555
O7 Cd2 1_555 1_555
C5_2 C6_2 1_555 1_555
C7 N2_2 1_555 1_555
C8 N1 1_555 1_555
C9 N2_2 1_555 1_555
C15_2 N6_2 1_555 1_555
C16 O1 1_555 1_555
C16 O2 1_555 1_555
O6 C17_2 1_555 1_555
O7 C17_2 1_555 1_555
Cd3 N1_2 1_555 1_555
C8_2 H5_2 1_555 1_555
C9_2 C8_2 1_555 1_555
C16_2 C20_2 1_555 1_555
C18_2 C19_2 1_555 1_555
C19_2 H13_2 1_555 1_555
C20_2 C19_2 1_555 1_555
C21_2 C20_2 1_555 1_555
H14_2 C21_2 1_555 1_555
C22_2 C21_2 1_555 1_555
C23_2 C18_2 1_555 1_555
H15_2 C23_2 1_555 1_555
N1_2 C7_2 1_555 1_555
O1_2 Cd3 1_555 1_555
O2_2 Cd3 1_555 1_555
O5_2 C22_2 1_555 1_555
N8 Cd3 1_555 1_555
C8_2 N1_2 1_555 1_555
C16_2 O1_2 1_555 1_555
C16_2 O2_2 1_555 1_555
C22_2 C23_2 1_555 1_555
C13_2 H10_2 1_555 1_555
C14_2 H11_2 1_555 1_555
N8 C13_2 1_555 1_555
C14_2 N8 1_555 1_555
C10_2 H7_2 1_555 1_555
N7 C10_2 1_555 1_555
Cd1 N1_3 1_555 1_555
C8_3 H5_3 1_555 1_555
C9_3 C8_3 1_555 1_555
C16_3 C20_3 1_555 1_555
C18_3 C19_3 1_555 1_555
C19_3 H13_3 1_555 1_555
C20_3 C19_3 1_555 1_555
C21_3 C20_3 1_555 1_555
H14_3 C21_3 1_555 1_555
C22_3 C21_3 1_555 1_555
C23_3 C18_3 1_555 1_555
H15_3 C23_3 1_555 1_555
N1_3 C7_3 1_555 1_555
O1_3 Cd1 1_555 1_555
O2_3 Cd1 1_555 1_555
O5_3 C22_3 1_555 1_555
N7_2 Cd1 1_555 1_555
N8_2 Cd1 1_555 1_555
O6_2 Cd1 1_555 1_555
O7_2 Cd1 1_555 1_555
C8_3 N1_3 1_555 1_555
C16_3 O1_3 1_555 1_555
C16_3 O2_3 1_555 1_555
C22_3 C23_3 1_555 1_555
O3_2 C17_3 1_555 1_555
O4_2 C17_3 1_555 1_555
Cd4 O3_2 1_555 1_555
O4_2 Cd4 1_555 1_555
C10_3 H7_3 1_555 1_555
N3_2 C10_3 1_555 1_555
Cd4 N3_2 1_555 1_555
C13_3 H10_3 1_555 1_555
C14_3 H11_3 1_555 1_555
N8_2 C13_3 1_555 1_555
C14_3 N8_2 1_555 1_555
C2_3 C1_3 1_555 1_555
C3_3 C2_3 1_555 1_555
H2_3 C3_3 1_555 1_555
C4_3 C3_3 1_555 1_555
C5_3 C4_3 1_555 1_555
H3_4 C5_3 1_555 1_555
C6_3 C1_3 1_555 1_555
C10_4 H7_4 1_555 1_555
C11_2 H8_2 1_555 1_555
C12_2 C11_2 1_555 1_555
H9_4 C12_2 1_555 1_555
C13_4 H10_4 1_555 1_555
C14_4 H11_4 1_555 1_555
C15_3 C14_4 1_555 1_555
N7_2 C10_4 1_555 1_555
N4_3 C4_3 1_555 1_555
N5_2 C13_4 1_555 1_555
N6_3 C6_3 1_555 1_555
Cd4 N5_2 1_555 1_555
C5_3 C6_3 1_555 1_555
C10_4 N4_3 1_555 1_555
C11_2 N7_2 1_555 1_555
C12_2 N4_3 1_555 1_555
C13_4 N6_3 1_555 1_555
C14_4 N5_2 1_555 1_555
C15_3 N6_3 1_555 1_555
Cd4 N1_4 1_555 1_555
C1_4 H1_3 1_555 1_555
C2_4 C1_4 1_555 1_555
C3_4 C2_4 1_555 1_555
H2_4 C3_4 1_555 1_555
C4_4 C3_4 1_555 1_555
C5_4 C4_4 1_555 1_555
C6_4 C1_4 1_555 1_555
C7_4 H4_3 1_555 1_555
C8_4 H5_4 1_555 1_555
C9_4 C8_4 1_555 1_555
H6_2 C9_4 1_555 1_555
H12_3 C15_4 1_555 1_555
N1_4 C7_4 1_555 1_555
N2_3 C2_4 1_555 1_555
N4_4 C4_4 1_555 1_555
N6_4 C6_4 1_555 1_555
O1_4 Cd4 1_555 1_555
O2_4 Cd4 1_555 1_555
C5_4 C6_4 1_555 1_555
C7_4 N2_3 1_555 1_555
C8_4 N1_4 1_555 1_555
C9_4 N2_3 1_555 1_555
C15_4 N6_4 1_555 1_555
C16_4 O1_4 1_555 1_555
C16_4 O2_4 1_555 1_555
C17_4 C18_4 1_555 1_555
C18_4 C19_4 1_555 1_555
C20_4 C19_4 1_555 1_555
C21_4 C20_4 1_555 1_555
H14_4 C21_4 1_555 1_555
C22_4 C21_4 1_555 1_555
C23_4 C18_4 1_555 1_555
H15_4 C23_4 1_555 1_555
O6_2 C17_4 1_555 1_555
O7_2 C17_4 1_555 1_555
O5_4 C22_4 1_555 1_555
H16_2 O5_4 1_555 1_555
C22_4 C23_4 1_555 1_555
C11_3 H8_3 1_555 1_555
C12_3 C11_3 1_555 1_555
C11_4 H8_4 1_555 1_555
C12_4 C11_4 1_555 1_555

#END
