
###############################################################################
#
# This file contains modified crystal structure data generated from the
# MOF subset of the Cambridge Structural Database (CSD) v543 
# hosted by the Cambridge Crystallographic Data Centre (CCDC).
#
# This work is licensed under the Creative Commons
# Attribution-NonCommercial-ShareAlike 4.0 International License.
# To view a copy of this license, visit
# http://creativecommons.org/licenses/by-nc-sa/4.0/
# or send a letter to
# Creative Commons, PO Box 1866, Mountain View, CA 94042, USA.
#
# CIF created using the CSD Python API on 29 September 2022
# The structure has been converted into the P1 space group
# The structure has a 3D framework
# The original CSD entry TUKVIF is in the cubic crystal system
# The framework has been calculated to contain at least 10.0% void space
# The void calculation uses a probe of radius 1.32A, grid spacing 0.4
#
###############################################################################

data_TUKVIF
_chemical_formula_moiety         '(C120 H168 B12 Li12 N48)n'
_symmetry_cell_setting           triclinic
_symmetry_space_group_name_H-M   'P 1'
_symmetry_Int_Tables_number      1
_space_group_name_Hall           'P 1'
loop_
_symmetry_equiv_pos_site_id
_symmetry_equiv_pos_as_xyz
1 x,y,z
_cell_length_a                   16.31380(10)
_cell_length_b                   16.31380(10)
_cell_length_c                   16.31380(10)
_cell_angle_alpha                90
_cell_angle_beta                 90
_cell_angle_gamma                90
_cell_volume                     4341.76
loop_
_atom_site_label
_atom_site_type_symbol
_atom_site_fract_x
_atom_site_fract_y
_atom_site_fract_z
Li6 Li 0.5000 -0.0000 0.2500
Li4 Li 0.5000 -0.0000 0.7500
Li1 Li 0.7500 0.5000 0.0000
B1 B 0.5000 0.2500 0.0000
N1 N 0.56931(9) 0.30667(9) 0.03206(9)
N2 N 0.66311(10) 0.40725(9) 0.04069(9)
C2 C 0.65720(12) 0.36830(11) 0.11593(11)
C3 C 0.60029(11) 0.30746(11) 0.11126(11)
H1 H 0.5846 0.2718 0.1546
C5 C 0.70704(16) 0.39258(15) 0.18840(14)
H5 H 0.6815 0.3712 0.2384
H6 H 0.7100 0.4525 0.1915
H7 H 0.7625 0.3700 0.1830
Li2 Li 0.2500 0.5000 0.0000
Li6_2 Li 0.5000 1.0000 0.2500
B2 B 0.5000 0.7500 0.0000
N5 N 0.46794(9) 0.19333(9) 0.06931(9)
N6 N 0.43069(9) 0.69333(9) 0.03206(9)
N9 N 0.53206(9) 0.80667(9) 0.06931(9)
N12 N 0.45931(9) 0.09275(9) 0.16311(10)
N13 N 0.33689(10) 0.59275(9) 0.04069(9)
N16 N 0.54069(9) 0.90725(9) 0.16311(10)
N18 N 0.83689(10) 0.54069(9) 0.09275(9)
N20 N 0.16311(10) 0.45931(9) 0.09275(9)
C6 C 0.39180(10) 0.37000(10) 0.00713(10)
C8 C 0.50713(10) 0.13000(10) 0.10820(10)
C10 C 0.60820(10) 0.63000(10) 0.00713(10)
C12 C 0.49287(10) 0.87000(10) 0.10820(10)
C15 C 0.38407(11) 0.13170(11) 0.15720(12)
C16 C 0.34280(12) 0.63170(11) 0.11593(11)
C19 C 0.61593(11) 0.86830(11) 0.15720(12)
C22 C 0.38874(11) 0.19254(11) 0.10029(11)
C23 C 0.39971(11) 0.69254(11) 0.11126(11)
C26 C 0.61126(11) 0.80746(11) 0.10029(11)
H10 H 0.3454 0.2282 0.0846
H11 H 0.4154 0.7282 0.1546
H14 H 0.6546 0.7718 0.0846
C27 C 0.41191(14) 0.39855(12) 0.09214(12)
C29 C 0.59214(12) 0.10145(12) 0.08809(14)
C31 C 0.58809(14) 0.60145(12) 0.09214(12)
C33 C 0.40786(12) 0.89855(12) 0.08809(14)
H15 H 0.4628 0.4305 0.0910
H17 H 0.5910 0.0695 0.0372
H19 H 0.5372 0.5695 0.0910
H21 H 0.4090 0.9305 0.0372
H22 H 0.4189 0.3510 0.1281
H24 H 0.6281 0.1490 0.0811
H26 H 0.5811 0.6490 0.1281
H28 H 0.3719 0.8510 0.0811
H29 H 0.3672 0.4329 0.1128
H31 H 0.6128 0.0671 0.1328
H33 H 0.6328 0.5671 0.1128
H35 H 0.3872 0.9329 0.1328
C36 C 0.31160(14) 0.10742(15) 0.20704(16)
C37 C 0.29296(16) 0.60742(15) 0.18840(14)
C40 C 0.68840(14) 0.89258(15) 0.20704(16)
H38 H 0.2616 0.1288 0.1815
H39 H 0.3185 0.6288 0.2384
H42 H 0.7384 0.8712 0.1815
H45 H 0.3085 0.0475 0.2100
H46 H 0.2900 0.5475 0.1915
H49 H 0.6915 0.9525 0.2100
H52 H 0.3170 0.1300 0.2625
H53 H 0.2375 0.6300 0.1830
H56 H 0.6830 0.8700 0.2625
Li1_2 Li 0.7500 0.5000 1.0000
B1_2 B 0.5000 0.2500 1.0000
C1 C 0.60820(10) 0.37000(10) 0.99287(10)
C4 C 0.58809(14) 0.39855(12) 0.90786(12)
H2 H 0.5372 0.4305 0.9090
H3 H 0.5811 0.3510 0.8719
H4 H 0.6328 0.4329 0.8872
Li2_2 Li 0.2500 0.5000 1.0000
Li4_2 Li 0.5000 1.0000 0.7500
B2_2 B 0.5000 0.7500 1.0000
N3 N 0.43069(9) 0.30667(9) 0.96794(9)
N4 N 0.53206(9) 0.19333(9) 0.93069(9)
N7 N 0.56931(9) 0.69333(9) 0.96794(9)
N8 N 0.46794(9) 0.80667(9) 0.93069(9)
N10 N 0.33689(10) 0.40725(9) 0.95931(9)
N11 N 0.54069(9) 0.09275(9) 0.83689(10)
N14 N 0.66311(10) 0.59275(9) 0.95931(9)
N15 N 0.45931(9) 0.90725(9) 0.83689(10)
N17 N 0.16311(10) 0.54069(9) 0.90725(9)
N19 N 0.83689(10) 0.45931(9) 0.90725(9)
C7 C 0.49287(10) 0.13000(10) 0.89180(10)
C9 C 0.39180(10) 0.63000(10) 0.99287(10)
C11 C 0.50713(10) 0.87000(10) 0.89180(10)
C13 C 0.34280(12) 0.36830(11) 0.88407(11)
C14 C 0.61593(11) 0.13170(11) 0.84280(12)
C17 C 0.65720(12) 0.63170(11) 0.88407(11)
C18 C 0.38407(11) 0.86830(11) 0.84280(12)
C20 C 0.39971(11) 0.30746(11) 0.88874(11)
C21 C 0.61126(11) 0.19254(11) 0.89971(11)
C24 C 0.60029(11) 0.69254(11) 0.88874(11)
C25 C 0.38874(11) 0.80746(11) 0.89971(11)
H8 H 0.4154 0.2718 0.8454
H9 H 0.6546 0.2282 0.9154
H12 H 0.5846 0.7282 0.8454
H13 H 0.3454 0.7718 0.9154
C28 C 0.40786(12) 0.10145(12) 0.91191(14)
C30 C 0.41191(14) 0.60145(12) 0.90786(12)
C32 C 0.59214(12) 0.89855(12) 0.91191(14)
H16 H 0.4090 0.0695 0.9628
H18 H 0.4628 0.5695 0.9090
H20 H 0.5910 0.9305 0.9628
H23 H 0.3719 0.1490 0.9189
H25 H 0.4189 0.6490 0.8719
H27 H 0.6281 0.8510 0.9189
H30 H 0.3872 0.0671 0.8672
H32 H 0.3672 0.5671 0.8872
H34 H 0.6128 0.9329 0.8672
C34 C 0.29296(16) 0.39258(15) 0.81160(14)
C35 C 0.68840(14) 0.10742(15) 0.79296(16)
C38 C 0.70704(16) 0.60742(15) 0.81160(14)
C39 C 0.31160(14) 0.89258(15) 0.79296(16)
H36 H 0.3185 0.3712 0.7616
H37 H 0.7384 0.1288 0.8185
H40 H 0.6815 0.6288 0.7616
H41 H 0.2616 0.8712 0.8185
H43 H 0.2900 0.4525 0.8085
H44 H 0.6915 0.0475 0.7900
H47 H 0.7100 0.5475 0.8085
H48 H 0.3085 0.9525 0.7900
H50 H 0.2375 0.3700 0.8170
H51 H 0.6830 0.1300 0.7375
H54 H 0.7625 0.6300 0.8170
H55 H 0.3170 0.8700 0.7375
Li1_3 Li 0.0000 0.7500 0.5000
B1_3 B 0.0000 0.5000 0.2500
N1_2 N 0.03206(9) 0.56931(9) 0.30667(9)
N2_2 N 0.04069(9) 0.66311(10) 0.40725(9)
C2_2 C 0.11593(11) 0.65720(12) 0.36830(11)
C3_2 C 0.11126(11) 0.60029(11) 0.30746(11)
H1_2 H 0.1546 0.5846 0.2718
C5_2 C 0.18840(14) 0.70704(16) 0.39258(15)
H5_2 H 0.2384 0.6815 0.3712
H6_2 H 0.1915 0.7100 0.4525
H7_2 H 0.1830 0.7625 0.3700
Li2_3 Li -0.0000 0.2500 0.5000
B2_3 B 0.0000 0.5000 0.7500
N5_2 N 0.06931(9) 0.46794(9) 0.19333(9)
N6_2 N 0.03206(9) 0.43069(9) 0.69333(9)
N9_2 N 0.06931(9) 0.53206(9) 0.80667(9)
N13_2 N 0.04069(9) 0.33689(10) 0.59275(9)
N18_2 N 0.09275(9) 0.83689(10) 0.54069(9)
N20_2 N 0.09275(9) 0.16311(10) 0.45931(9)
C6_2 C 0.00713(10) 0.39180(10) 0.37000(10)
C8_2 C 0.10820(10) 0.50713(10) 0.13000(10)
C10_2 C 0.00713(10) 0.60820(10) 0.63000(10)
C12_2 C 0.10820(10) 0.49287(10) 0.87000(10)
C15_2 C 0.15720(12) 0.38407(11) 0.13170(11)
C16_2 C 0.11593(11) 0.34280(12) 0.63170(11)
C19_2 C 0.15720(12) 0.61593(11) 0.86830(11)
C22_2 C 0.10029(11) 0.38874(11) 0.19254(11)
C23_2 C 0.11126(11) 0.39971(11) 0.69254(11)
C26_2 C 0.10029(11) 0.61126(11) 0.80746(11)
H10_2 H 0.0846 0.3454 0.2282
H11_2 H 0.1546 0.4154 0.7282
H14_2 H 0.0846 0.6546 0.7718
C27_2 C 0.09214(12) 0.41191(14) 0.39855(12)
C29_2 C 0.08809(14) 0.59214(12) 0.10145(12)
C31_2 C 0.09214(12) 0.58809(14) 0.60145(12)
C33_2 C 0.08809(14) 0.40786(12) 0.89855(12)
H15_2 H 0.0910 0.4628 0.4305
H17_2 H 0.0372 0.5910 0.0695
H19_2 H 0.0910 0.5372 0.5695
H21_2 H 0.0372 0.4090 0.9305
H22_2 H 0.1281 0.4189 0.3510
H24_2 H 0.0811 0.6281 0.1490
H26_2 H 0.1281 0.5811 0.6490
H28_2 H 0.0811 0.3719 0.8510
H29_2 H 0.1128 0.3672 0.4329
H31_2 H 0.1328 0.6128 0.0671
H33_2 H 0.1128 0.6328 0.5671
H35_2 H 0.1328 0.3872 0.9329
C36_2 C 0.20704(16) 0.31160(14) 0.10742(15)
C37_2 C 0.18840(14) 0.29296(16) 0.60742(15)
C40_2 C 0.20704(16) 0.68840(14) 0.89258(15)
H38_2 H 0.1815 0.2616 0.1288
H39_2 H 0.2384 0.3185 0.6288
H42_2 H 0.1815 0.7384 0.8712
H45_2 H 0.2100 0.3085 0.0475
H46_2 H 0.1915 0.2900 0.5475
H49_2 H 0.2100 0.6915 0.9525
H52_2 H 0.2625 0.3170 0.1300
H53_2 H 0.1830 0.2375 0.6300
H56_2 H 0.2625 0.6830 0.8700
Li1_4 Li 1.0000 0.7500 0.5000
B1_4 B 1.0000 0.5000 0.2500
C1_2 C 0.99287(10) 0.60820(10) 0.37000(10)
C4_2 C 0.90786(12) 0.58809(14) 0.39855(12)
H2_2 H 0.9090 0.5372 0.4305
H3_2 H 0.8719 0.5811 0.3510
H4_2 H 0.8872 0.6328 0.4329
Li2_4 Li 1.0000 0.2500 0.5000
B2_4 B 1.0000 0.5000 0.7500
N3_2 N 0.96794(9) 0.43069(9) 0.30667(9)
N4_2 N 0.93069(9) 0.53206(9) 0.19333(9)
N7_2 N 0.96794(9) 0.56931(9) 0.69333(9)
N8_2 N 0.93069(9) 0.46794(9) 0.80667(9)
N10_2 N 0.95931(9) 0.33689(10) 0.40725(9)
N14_2 N 0.95931(9) 0.66311(10) 0.59275(9)
N17_2 N 0.90725(9) 0.16311(10) 0.54069(9)
N19_2 N 0.90725(9) 0.83689(10) 0.45931(9)
C7_2 C 0.89180(10) 0.49287(10) 0.13000(10)
C9_2 C 0.99287(10) 0.39180(10) 0.63000(10)
C11_2 C 0.89180(10) 0.50713(10) 0.87000(10)
C13_2 C 0.88407(11) 0.34280(12) 0.36830(11)
C14_2 C 0.84280(12) 0.61593(11) 0.13170(11)
C17_2 C 0.88407(11) 0.65720(12) 0.63170(11)
C18_2 C 0.84280(12) 0.38407(11) 0.86830(11)
C20_2 C 0.88874(11) 0.39971(11) 0.30746(11)
C21_2 C 0.89971(11) 0.61126(11) 0.19254(11)
C24_2 C 0.88874(11) 0.60029(11) 0.69254(11)
C25_2 C 0.89971(11) 0.38874(11) 0.80746(11)
H8_2 H 0.8454 0.4154 0.2718
H9_2 H 0.9154 0.6546 0.2282
H12_2 H 0.8454 0.5846 0.7282
H13_2 H 0.9154 0.3454 0.7718
C28_2 C 0.91191(14) 0.40786(12) 0.10145(12)
C30_2 C 0.90786(12) 0.41191(14) 0.60145(12)
C32_2 C 0.91191(14) 0.59214(12) 0.89855(12)
H16_2 H 0.9628 0.4090 0.0695
H18_2 H 0.9090 0.4628 0.5695
H20_2 H 0.9628 0.5910 0.9305
H23_2 H 0.9189 0.3719 0.1490
H25_2 H 0.8719 0.4189 0.6490
H27_2 H 0.9189 0.6281 0.8510
H30_2 H 0.8672 0.3872 0.0671
H32_2 H 0.8872 0.3672 0.5671
H34_2 H 0.8672 0.6128 0.9329
C34_2 C 0.81160(14) 0.29296(16) 0.39258(15)
C35_2 C 0.79296(16) 0.68840(14) 0.10742(15)
C38_2 C 0.81160(14) 0.70704(16) 0.60742(15)
C39_2 C 0.79296(16) 0.31160(14) 0.89258(15)
H36_2 H 0.7616 0.3185 0.3712
H37_2 H 0.8185 0.7384 0.1288
H40_2 H 0.7616 0.6815 0.6288
H41_2 H 0.8185 0.2616 0.8712
H43_2 H 0.8085 0.2900 0.4525
H44_2 H 0.7900 0.6915 0.0475
H47_2 H 0.8085 0.7100 0.5475
H48_2 H 0.7900 0.3085 0.9525
H50_2 H 0.8170 0.2375 0.3700
H51_2 H 0.7375 0.6830 0.1300
H54_2 H 0.8170 0.7625 0.6300
H55_2 H 0.7375 0.3170 0.8700
B1_5 B 0.2500 0.0000 0.5000
N1_3 N 0.30667(9) 0.03206(9) 0.56931(9)
N2_3 N 0.40725(9) 0.04069(9) 0.66311(10)
C2_3 C 0.36830(11) 0.11593(11) 0.65720(12)
C3_3 C 0.30746(11) 0.11126(11) 0.60029(11)
H1_3 H 0.2718 0.1546 0.5846
C5_3 C 0.39258(15) 0.18840(14) 0.70704(16)
H5_3 H 0.3712 0.2384 0.6815
H6_3 H 0.4525 0.1915 0.7100
H7_3 H 0.3700 0.1830 0.7625
B2_5 B 0.7500 0.0000 0.5000
N5_3 N 0.19333(9) 0.06931(9) 0.46794(9)
N6_3 N 0.69333(9) 0.03206(9) 0.43069(9)
N9_3 N 0.80667(9) 0.06931(9) 0.53206(9)
N13_3 N 0.59275(9) 0.04069(9) 0.33689(10)
C6_3 C 0.37000(10) 0.00713(10) 0.39180(10)
C8_3 C 0.13000(10) 0.10820(10) 0.50713(10)
C10_3 C 0.63000(10) 0.00713(10) 0.60820(10)
C12_3 C 0.87000(10) 0.10820(10) 0.49287(10)
C15_3 C 0.13170(11) 0.15720(12) 0.38407(11)
C16_3 C 0.63170(11) 0.11593(11) 0.34280(12)
C19_3 C 0.86830(11) 0.15720(12) 0.61593(11)
C22_3 C 0.19254(11) 0.10029(11) 0.38874(11)
C23_3 C 0.69254(11) 0.11126(11) 0.39971(11)
C26_3 C 0.80746(11) 0.10029(11) 0.61126(11)
H10_3 H 0.2282 0.0846 0.3454
H11_3 H 0.7282 0.1546 0.4154
H14_3 H 0.7718 0.0846 0.6546
C27_3 C 0.39855(12) 0.09214(12) 0.41191(14)
C29_3 C 0.10145(12) 0.08809(14) 0.59214(12)
C31_3 C 0.60145(12) 0.09214(12) 0.58809(14)
C33_3 C 0.89855(12) 0.08809(14) 0.40786(12)
H15_3 H 0.4305 0.0910 0.4628
H17_3 H 0.0695 0.0372 0.5910
H19_3 H 0.5695 0.0910 0.5372
H21_3 H 0.9305 0.0372 0.4090
H22_3 H 0.3510 0.1281 0.4189
H24_3 H 0.1490 0.0811 0.6281
H26_3 H 0.6490 0.1281 0.5811
H28_3 H 0.8510 0.0811 0.3719
H29_3 H 0.4329 0.1128 0.3672
H31_3 H 0.0671 0.1328 0.6128
H33_3 H 0.5671 0.1128 0.6328
H35_3 H 0.9329 0.1328 0.3872
C36_3 C 0.10742(15) 0.20704(16) 0.31160(14)
C37_3 C 0.60742(15) 0.18840(14) 0.29296(16)
C40_3 C 0.89258(15) 0.20704(16) 0.68840(14)
H38_3 H 0.1288 0.1815 0.2616
H39_3 H 0.6288 0.2384 0.3185
H42_3 H 0.8712 0.1815 0.7384
H45_3 H 0.0475 0.2100 0.3085
H46_3 H 0.5475 0.1915 0.2900
H49_3 H 0.9525 0.2100 0.6915
H52_3 H 0.1300 0.2625 0.3170
H53_3 H 0.6300 0.1830 0.2375
H56_3 H 0.8700 0.2625 0.6830
B1_6 B 0.2500 1.0000 0.5000
C1_3 C 0.37000(10) 0.99287(10) 0.60820(10)
C4_3 C 0.39855(12) 0.90786(12) 0.58809(14)
H2_3 H 0.4305 0.9090 0.5372
H3_3 H 0.3510 0.8719 0.5811
H4_3 H 0.4329 0.8872 0.6328
B2_6 B 0.7500 1.0000 0.5000
N3_3 N 0.30667(9) 0.96794(9) 0.43069(9)
N4_3 N 0.19333(9) 0.93069(9) 0.53206(9)
N7_3 N 0.69333(9) 0.96794(9) 0.56931(9)
N8_3 N 0.80667(9) 0.93069(9) 0.46794(9)
N10_3 N 0.40725(9) 0.95931(9) 0.33689(10)
N14_3 N 0.59275(9) 0.95931(9) 0.66311(10)
C7_3 C 0.13000(10) 0.89180(10) 0.49287(10)
C9_3 C 0.63000(10) 0.99287(10) 0.39180(10)
C11_3 C 0.87000(10) 0.89180(10) 0.50713(10)
C13_3 C 0.36830(11) 0.88407(11) 0.34280(12)
C14_3 C 0.13170(11) 0.84280(12) 0.61593(11)
C17_3 C 0.63170(11) 0.88407(11) 0.65720(12)
C18_3 C 0.86830(11) 0.84280(12) 0.38407(11)
C20_3 C 0.30746(11) 0.88874(11) 0.39971(11)
C21_3 C 0.19254(11) 0.89971(11) 0.61126(11)
C24_3 C 0.69254(11) 0.88874(11) 0.60029(11)
C25_3 C 0.80746(11) 0.89971(11) 0.38874(11)
H8_3 H 0.2718 0.8454 0.4154
H9_3 H 0.2282 0.9154 0.6546
H12_3 H 0.7282 0.8454 0.5846
H13_3 H 0.7718 0.9154 0.3454
C28_3 C 0.10145(12) 0.91191(14) 0.40786(12)
C30_3 C 0.60145(12) 0.90786(12) 0.41191(14)
C32_3 C 0.89855(12) 0.91191(14) 0.59214(12)
H16_3 H 0.0695 0.9628 0.4090
H18_3 H 0.5695 0.9090 0.4628
H20_3 H 0.9305 0.9628 0.5910
H23_3 H 0.1490 0.9189 0.3719
H25_3 H 0.6490 0.8719 0.4189
H27_3 H 0.8510 0.9189 0.6281
H30_3 H 0.0671 0.8672 0.3872
H32_3 H 0.5671 0.8872 0.3672
H34_3 H 0.9329 0.8672 0.6128
C34_3 C 0.39258(15) 0.81160(14) 0.29296(16)
C35_3 C 0.10742(15) 0.79296(16) 0.68840(14)
C38_3 C 0.60742(15) 0.81160(14) 0.70704(16)
C39_3 C 0.89258(15) 0.79296(16) 0.31160(14)
H36_3 H 0.3712 0.7616 0.3185
H37_3 H 0.1288 0.8185 0.7384
H40_3 H 0.6288 0.7616 0.6815
H41_3 H 0.8712 0.8185 0.2616
H43_3 H 0.4525 0.8085 0.2900
H44_3 H 0.0475 0.7900 0.6915
H47_3 H 0.5475 0.8085 0.7100
H48_3 H 0.9525 0.7900 0.3085
H50_3 H 0.3700 0.8170 0.2375
H51_3 H 0.1300 0.7375 0.6830
H54_3 H 0.6300 0.8170 0.7625
H55_3 H 0.8700 0.7375 0.3170
loop_
_geom_bond_atom_site_label_1
_geom_bond_atom_site_label_2
_geom_bond_site_symmetry_1
_geom_bond_site_symmetry_2
Li1 N2 1_555 1_555
B1 N1 1_555 1_555
C2 N2 1_555 1_555
C3 N1 1_555 1_555
H1 C3 1_555 1_555
C5 C2 1_555 1_555
H5 C5 1_555 1_555
H6 C5 1_555 1_555
H7 C5 1_555 1_555
Li6 N12 1_555 1_555
Li6_2 N16 1_555 1_555
B2 N6 1_555 1_555
N5 B1 1_555 1_555
N9 B2 1_555 1_555
N12 C8 1_555 1_555
N13 Li2 1_555 1_555
N16 C12 1_555 1_555
N18 Li1 1_555 1_555
N20 Li2 1_555 1_555
C8 N5 1_555 1_555
C12 N9 1_555 1_555
C15 N12 1_555 1_555
C16 N13 1_555 1_555
C19 N16 1_555 1_555
C22 N5 1_555 1_555
C23 N6 1_555 1_555
C26 N9 1_555 1_555
H10 C22 1_555 1_555
H11 C23 1_555 1_555
H14 C26 1_555 1_555
C27 C6 1_555 1_555
C29 C8 1_555 1_555
C31 C10 1_555 1_555
C33 C12 1_555 1_555
H15 C27 1_555 1_555
H17 C29 1_555 1_555
H19 C31 1_555 1_555
H21 C33 1_555 1_555
H22 C27 1_555 1_555
H24 C29 1_555 1_555
H26 C31 1_555 1_555
H28 C33 1_555 1_555
H29 C27 1_555 1_555
H31 C29 1_555 1_555
H33 C31 1_555 1_555
H35 C33 1_555 1_555
C36 C15 1_555 1_555
C37 C16 1_555 1_555
C40 C19 1_555 1_555
H38 C36 1_555 1_555
H39 C37 1_555 1_555
H42 C40 1_555 1_555
H45 C36 1_555 1_555
H46 C37 1_555 1_555
H49 C40 1_555 1_555
H52 C36 1_555 1_555
H53 C37 1_555 1_555
H56 C40 1_555 1_555
C2 C3 1_555 1_555
C15 C22 1_555 1_555
C16 C23 1_555 1_555
C19 C26 1_555 1_555
C1 C4 1_555 1_555
C4 H2 1_555 1_555
H3 C4 1_555 1_555
H4 C4 1_555 1_555
Li2_2 N10 1_555 1_555
Li4 N11 1_555 1_555
Li4_2 N15 1_555 1_555
N3 B1_2 1_555 1_555
N4 B1_2 1_555 1_555
N7 B2_2 1_555 1_555
N8 B2_2 1_555 1_555
N11 C7 1_555 1_555
N14 Li1_2 1_555 1_555
N15 C11 1_555 1_555
N17 Li2_2 1_555 1_555
N19 Li1_2 1_555 1_555
C7 N4 1_555 1_555
C11 N8 1_555 1_555
C13 N10 1_555 1_555
C14 N11 1_555 1_555
C17 N14 1_555 1_555
C18 N15 1_555 1_555
C20 N3 1_555 1_555
C21 N4 1_555 1_555
C24 N7 1_555 1_555
C25 N8 1_555 1_555
H8 C20 1_555 1_555
H9 C21 1_555 1_555
H12 C24 1_555 1_555
H13 C25 1_555 1_555
C28 C7 1_555 1_555
C30 C9 1_555 1_555
C32 C11 1_555 1_555
H16 C28 1_555 1_555
H18 C30 1_555 1_555
H20 C32 1_555 1_555
H23 C28 1_555 1_555
H25 C30 1_555 1_555
H27 C32 1_555 1_555
H30 C28 1_555 1_555
H32 C30 1_555 1_555
H34 C32 1_555 1_555
C34 C13 1_555 1_555
C35 C14 1_555 1_555
C38 C17 1_555 1_555
C39 C18 1_555 1_555
H36 C34 1_555 1_555
H37 C35 1_555 1_555
H40 C38 1_555 1_555
H41 C39 1_555 1_555
H43 C34 1_555 1_555
H44 C35 1_555 1_555
H47 C38 1_555 1_555
H48 C39 1_555 1_555
H50 C34 1_555 1_555
H51 C35 1_555 1_555
H54 C38 1_555 1_555
H55 C39 1_555 1_555
C13 C20 1_555 1_555
C14 C21 1_555 1_555
C17 C24 1_555 1_555
C18 C25 1_555 1_555
Li1_3 N2_2 1_555 1_555
B1_3 N1_2 1_555 1_555
C2_2 N2_2 1_555 1_555
C3_2 N1_2 1_555 1_555
H1_2 C3_2 1_555 1_555
C5_2 C2_2 1_555 1_555
H5_2 C5_2 1_555 1_555
H6_2 C5_2 1_555 1_555
H7_2 C5_2 1_555 1_555
B2_3 N6_2 1_555 1_555
N5_2 B1_3 1_555 1_555
N9_2 B2_3 1_555 1_555
N20 C8_2 1_555 1_555
N13_2 Li2_3 1_555 1_555
N17 C12_2 1_555 1_555
N18_2 Li1_3 1_555 1_555
N20_2 Li2_3 1_555 1_555
C8_2 N5_2 1_555 1_555
C12_2 N9_2 1_555 1_555
C15_2 N20 1_555 1_555
C16_2 N13_2 1_555 1_555
C19_2 N17 1_555 1_555
C22_2 N5_2 1_555 1_555
C23_2 N6_2 1_555 1_555
C26_2 N9_2 1_555 1_555
H10_2 C22_2 1_555 1_555
H11_2 C23_2 1_555 1_555
H14_2 C26_2 1_555 1_555
C27_2 C6_2 1_555 1_555
C29_2 C8_2 1_555 1_555
C31_2 C10_2 1_555 1_555
C33_2 C12_2 1_555 1_555
H15_2 C27_2 1_555 1_555
H17_2 C29_2 1_555 1_555
H19_2 C31_2 1_555 1_555
H21_2 C33_2 1_555 1_555
H22_2 C27_2 1_555 1_555
H24_2 C29_2 1_555 1_555
H26_2 C31_2 1_555 1_555
H28_2 C33_2 1_555 1_555
H29_2 C27_2 1_555 1_555
H31_2 C29_2 1_555 1_555
H33_2 C31_2 1_555 1_555
H35_2 C33_2 1_555 1_555
C36_2 C15_2 1_555 1_555
C37_2 C16_2 1_555 1_555
C40_2 C19_2 1_555 1_555
H38_2 C36_2 1_555 1_555
H39_2 C37_2 1_555 1_555
H42_2 C40_2 1_555 1_555
H45_2 C36_2 1_555 1_555
H46_2 C37_2 1_555 1_555
H49_2 C40_2 1_555 1_555
H52_2 C36_2 1_555 1_555
H53_2 C37_2 1_555 1_555
H56_2 C40_2 1_555 1_555
C2_2 C3_2 1_555 1_555
C15_2 C22_2 1_555 1_555
C16_2 C23_2 1_555 1_555
C19_2 C26_2 1_555 1_555
C1_2 C4_2 1_555 1_555
C4_2 H2_2 1_555 1_555
H3_2 C4_2 1_555 1_555
H4_2 C4_2 1_555 1_555
Li2_4 N10_2 1_555 1_555
N3_2 B1_4 1_555 1_555
N4_2 B1_4 1_555 1_555
N7_2 B2_4 1_555 1_555
N8_2 B2_4 1_555 1_555
N18 C7_2 1_555 1_555
N14_2 Li1_4 1_555 1_555
N19 C11_2 1_555 1_555
N17_2 Li2_4 1_555 1_555
N19_2 Li1_4 1_555 1_555
C7_2 N4_2 1_555 1_555
C11_2 N8_2 1_555 1_555
C13_2 N10_2 1_555 1_555
C14_2 N18 1_555 1_555
C17_2 N14_2 1_555 1_555
C18_2 N19 1_555 1_555
C20_2 N3_2 1_555 1_555
C21_2 N4_2 1_555 1_555
C24_2 N7_2 1_555 1_555
C25_2 N8_2 1_555 1_555
H8_2 C20_2 1_555 1_555
H9_2 C21_2 1_555 1_555
H12_2 C24_2 1_555 1_555
H13_2 C25_2 1_555 1_555
C28_2 C7_2 1_555 1_555
C30_2 C9_2 1_555 1_555
C32_2 C11_2 1_555 1_555
H16_2 C28_2 1_555 1_555
H18_2 C30_2 1_555 1_555
H20_2 C32_2 1_555 1_555
H23_2 C28_2 1_555 1_555
H25_2 C30_2 1_555 1_555
H27_2 C32_2 1_555 1_555
H30_2 C28_2 1_555 1_555
H32_2 C30_2 1_555 1_555
H34_2 C32_2 1_555 1_555
C34_2 C13_2 1_555 1_555
C35_2 C14_2 1_555 1_555
C38_2 C17_2 1_555 1_555
C39_2 C18_2 1_555 1_555
H36_2 C34_2 1_555 1_555
H37_2 C35_2 1_555 1_555
H40_2 C38_2 1_555 1_555
H41_2 C39_2 1_555 1_555
H43_2 C34_2 1_555 1_555
H44_2 C35_2 1_555 1_555
H47_2 C38_2 1_555 1_555
H48_2 C39_2 1_555 1_555
H50_2 C34_2 1_555 1_555
H51_2 C35_2 1_555 1_555
H54_2 C38_2 1_555 1_555
H55_2 C39_2 1_555 1_555
C13_2 C20_2 1_555 1_555
C14_2 C21_2 1_555 1_555
C17_2 C24_2 1_555 1_555
C18_2 C25_2 1_555 1_555
Li4 N2_3 1_555 1_555
B1_5 N1_3 1_555 1_555
C2_3 N2_3 1_555 1_555
C3_3 N1_3 1_555 1_555
H1_3 C3_3 1_555 1_555
C5_3 C2_3 1_555 1_555
H5_3 C5_3 1_555 1_555
H6_3 C5_3 1_555 1_555
H7_3 C5_3 1_555 1_555
B2_5 N6_3 1_555 1_555
N5_3 B1_5 1_555 1_555
N9_3 B2_5 1_555 1_555
N20_2 C8_3 1_555 1_555
N13_3 Li6 1_555 1_555
N17_2 C12_3 1_555 1_555
C8_3 N5_3 1_555 1_555
C12_3 N9_3 1_555 1_555
C15_3 N20_2 1_555 1_555
C16_3 N13_3 1_555 1_555
C19_3 N17_2 1_555 1_555
C22_3 N5_3 1_555 1_555
C23_3 N6_3 1_555 1_555
C26_3 N9_3 1_555 1_555
H10_3 C22_3 1_555 1_555
H11_3 C23_3 1_555 1_555
H14_3 C26_3 1_555 1_555
C27_3 C6_3 1_555 1_555
C29_3 C8_3 1_555 1_555
C31_3 C10_3 1_555 1_555
C33_3 C12_3 1_555 1_555
H15_3 C27_3 1_555 1_555
H17_3 C29_3 1_555 1_555
H19_3 C31_3 1_555 1_555
H21_3 C33_3 1_555 1_555
H22_3 C27_3 1_555 1_555
H24_3 C29_3 1_555 1_555
H26_3 C31_3 1_555 1_555
H28_3 C33_3 1_555 1_555
H29_3 C27_3 1_555 1_555
H31_3 C29_3 1_555 1_555
H33_3 C31_3 1_555 1_555
H35_3 C33_3 1_555 1_555
C36_3 C15_3 1_555 1_555
C37_3 C16_3 1_555 1_555
C40_3 C19_3 1_555 1_555
H38_3 C36_3 1_555 1_555
H39_3 C37_3 1_555 1_555
H42_3 C40_3 1_555 1_555
H45_3 C36_3 1_555 1_555
H46_3 C37_3 1_555 1_555
H49_3 C40_3 1_555 1_555
H52_3 C36_3 1_555 1_555
H53_3 C37_3 1_555 1_555
H56_3 C40_3 1_555 1_555
C2_3 C3_3 1_555 1_555
C15_3 C22_3 1_555 1_555
C16_3 C23_3 1_555 1_555
C19_3 C26_3 1_555 1_555
C1_3 C4_3 1_555 1_555
C4_3 H2_3 1_555 1_555
H3_3 C4_3 1_555 1_555
H4_3 C4_3 1_555 1_555
Li6_2 N10_3 1_555 1_555
N3_3 B1_6 1_555 1_555
N4_3 B1_6 1_555 1_555
N7_3 B2_6 1_555 1_555
N8_3 B2_6 1_555 1_555
N18_2 C7_3 1_555 1_555
N14_3 Li4_2 1_555 1_555
N19_2 C11_3 1_555 1_555
C7_3 N4_3 1_555 1_555
C11_3 N8_3 1_555 1_555
C13_3 N10_3 1_555 1_555
C14_3 N18_2 1_555 1_555
C17_3 N14_3 1_555 1_555
C18_3 N19_2 1_555 1_555
C20_3 N3_3 1_555 1_555
C21_3 N4_3 1_555 1_555
C24_3 N7_3 1_555 1_555
C25_3 N8_3 1_555 1_555
H8_3 C20_3 1_555 1_555
H9_3 C21_3 1_555 1_555
H12_3 C24_3 1_555 1_555
H13_3 C25_3 1_555 1_555
C28_3 C7_3 1_555 1_555
C30_3 C9_3 1_555 1_555
C32_3 C11_3 1_555 1_555
H16_3 C28_3 1_555 1_555
H18_3 C30_3 1_555 1_555
H20_3 C32_3 1_555 1_555
H23_3 C28_3 1_555 1_555
H25_3 C30_3 1_555 1_555
H27_3 C32_3 1_555 1_555
H30_3 C28_3 1_555 1_555
H32_3 C30_3 1_555 1_555
H34_3 C32_3 1_555 1_555
C34_3 C13_3 1_555 1_555
C35_3 C14_3 1_555 1_555
C38_3 C17_3 1_555 1_555
C39_3 C18_3 1_555 1_555
H36_3 C34_3 1_555 1_555
H37_3 C35_3 1_555 1_555
H40_3 C38_3 1_555 1_555
H41_3 C39_3 1_555 1_555
H43_3 C34_3 1_555 1_555
H44_3 C35_3 1_555 1_555
H47_3 C38_3 1_555 1_555
H48_3 C39_3 1_555 1_555
H50_3 C34_3 1_555 1_555
H51_3 C35_3 1_555 1_555
H54_3 C38_3 1_555 1_555
H55_3 C39_3 1_555 1_555
C13_3 C20_3 1_555 1_555
C14_3 C21_3 1_555 1_555
C17_3 C24_3 1_555 1_555
C18_3 C25_3 1_555 1_555

#END
