
###############################################################################
#
# This file contains modified crystal structure data generated from the
# MOF subset of the Cambridge Structural Database (CSD) v543 
# hosted by the Cambridge Crystallographic Data Centre (CCDC).
#
# This work is licensed under the Creative Commons
# Attribution-NonCommercial-ShareAlike 4.0 International License.
# To view a copy of this license, visit
# http://creativecommons.org/licenses/by-nc-sa/4.0/
# or send a letter to
# Creative Commons, PO Box 1866, Mountain View, CA 94042, USA.
#
# CIF created using the CSD Python API on 29 September 2022
# The structure has been converted into the P1 space group
# The structure has a 3D framework
# The original CSD entry TULLIX is in the monoclinic crystal system
# The framework has been calculated to contain at least 10.0% void space
# The void calculation uses a probe of radius 1.32A, grid spacing 0.4
# H atom positions have been added when not included in the experimental data
# Generated hydrogen atom positions removed from atoms on special positions
#
###############################################################################

data_TULLIX
_chemical_formula_moiety         '(C168 H152 Cd14 O90)n'
_symmetry_cell_setting           triclinic
_symmetry_space_group_name_H-M   'P 1'
_symmetry_Int_Tables_number      1
_space_group_name_Hall           'P 1'
loop_
_symmetry_equiv_pos_site_id
_symmetry_equiv_pos_as_xyz
1 x,y,z
_cell_length_a                   46.561(7)
_cell_length_b                   5.9263(9)
_cell_length_c                   33.495(6)
_cell_angle_alpha                90
_cell_angle_beta                 128.794(2)
_cell_angle_gamma                90
_cell_volume                     7203.58
loop_
_atom_site_label
_atom_site_type_symbol
_atom_site_fract_x
_atom_site_fract_y
_atom_site_fract_z
O14 O 0.69237(11) 0.0354(6) 0.65585(17)
H13 H 0.6241 0.0564 0.6013
Cd6 Cd 0.754470(11) 0.00061(6) 0.707323(17)
O2 O 0.30763(11) 0.0354(6) 0.84415(17)
H2 H 0.3759 0.0564 0.8987
Cd7 Cd 0.245530(11) 0.00061(6) 0.792677(17)
O3 O 0.46374(10) 0.5836(6) 0.00290(13)
C8 C 0.47705(13) 0.4324(9) 0.04272(18)
C9 C 0.49444(13) 0.2379(8) 0.04390(18)
H5 H 0.4953 0.2043 0.0175
C10 C 0.47642(15) 0.4861(8) 0.0824(2)
H6 H 0.4656 0.6197 0.0817
O4 O 0.50118(15) 0.2569(9) 0.19963(19)
Cd2 Cd 0.5000 0.54621(13) 0.2500
H8 H 0.6422 0.0455 0.2181
C17 C 0.51039(14) 0.0974(9) 0.0857(2)
C18 C 0.49233(15) 0.3360(9) 0.1237(2)
C19 C 0.58849(14) 0.0076(8) 0.1600(2)
H10 H 0.5811 0.1500 0.1621
C20 C 0.50886(15) 0.1401(10) 0.1252(2)
H11 H 0.5188 0.0383 0.1520
O9 O 0.48590(18) 0.5990(9) 0.17006(19)
C21 C 0.49238(19) 0.4020(13) 0.1660(2)
O11 O 0.5000 0.9169(15) 0.2500
O12 O 0.5670(3) 0.5131(13) 0.2942(3)
O13 O 0.71124(10) 0.7019(6) 0.65082(15)
C22 C 0.68544(15) 0.8359(10) 0.6376(2)
C23 C 0.64616(14) 0.7666(9) 0.5986(2)
C24 C 0.63704(15) 0.5575(9) 0.5755(2)
H12 H 0.6556 0.4585 0.5839
C25 C 0.61823(15) 0.9151(9) 0.5859(2)
C26 C 0.58205(14) 0.8504(8) 0.55068(19)
H14 H 0.5634 0.9486 0.5421
C27 C 0.60033(15) 0.4938(9) 0.5399(2)
H15 H 0.5942 0.3526 0.5244
C28 C 0.57321(14) 0.6408(8) 0.52781(19)
O15 O 0.53626(10) 0.5836(6) 0.49710(13)
C29 C 0.52295(13) 0.4324(9) 0.45728(18)
C30 C 0.50556(13) 0.2379(8) 0.45610(18)
H16 H 0.5047 0.2043 0.4825
C31 C 0.52358(15) 0.4861(8) 0.4176(2)
H17 H 0.5344 0.6197 0.4183
O16 O 0.49882(15) 0.2569(9) 0.30037(19)
H19 H 0.3578 0.0455 0.2819
C38 C 0.48961(14) 0.0974(9) 0.4143(2)
C39 C 0.50767(15) 0.3360(9) 0.3763(2)
C40 C 0.41151(14) 0.0076(8) 0.3400(2)
H21 H 0.4189 0.1500 0.3379
C41 C 0.49114(15) 0.1401(10) 0.3748(2)
H22 H 0.4812 0.0383 0.3480
O21 O 0.51410(18) 0.5990(9) 0.32994(19)
C42 C 0.50762(19) 0.4020(13) 0.3340(2)
O23 O 0.4330(3) 0.5131(13) 0.2058(3)
O1 O 0.28876(10) 0.7019(6) 0.84918(15)
C1 C 0.31456(15) 0.8359(10) 0.8624(2)
C2 C 0.35384(14) 0.7666(9) 0.9014(2)
C3 C 0.36296(15) 0.5575(9) 0.9245(2)
H1 H 0.3444 0.4585 0.9161
C4 C 0.38177(15) 0.9151(9) 0.9141(2)
C5 C 0.41795(14) 0.8504(8) 0.94932(19)
H3 H 0.4366 0.9486 0.9579
C6 C 0.39967(15) 0.4938(9) 0.9601(2)
H4 H 0.4058 0.3526 0.9756
C7 C 0.42679(14) 0.6408(8) 0.97219(19)
Cd2_2 Cd -0.0000 0.04621(13) 0.2500
O11_2 O -0.0000 0.4169(15) 0.2500
O12_2 O 0.0670(3) 0.0131(13) 0.2942(3)
O13_2 O 0.21124(10) 0.2019(6) 0.65082(15)
O14_2 O 0.19237(11) 0.5354(6) 0.65585(17)
C22_2 C 0.18544(15) 0.3359(10) 0.6376(2)
C23_2 C 0.14616(14) 0.2666(9) 0.5986(2)
C24_2 C 0.13704(15) 0.0575(9) 0.5755(2)
C25_2 C 0.11823(15) 0.4151(9) 0.5859(2)
H13_2 H 0.1241 0.5564 0.6013
C26_2 C 0.08205(14) 0.3504(8) 0.55068(19)
H14_2 H 0.0634 0.4486 0.5421
C28_2 C 0.07321(14) 0.1408(8) 0.52781(19)
O15_2 O 0.03626(10) 0.0836(6) 0.49710(13)
H17_2 H 0.0344 0.1197 0.4183
O21_2 O 0.01410(18) 0.0990(9) 0.32994(19)
Cd6_2 Cd 0.254470(11) 0.50061(6) 0.707323(17)
O1_2 O 0.78876(10) 0.2019(6) 0.84918(15)
O2_2 O 0.80763(11) 0.5354(6) 0.84415(17)
C1_2 C 0.81456(15) 0.3359(10) 0.8624(2)
C2_2 C 0.85384(14) 0.2666(9) 0.9014(2)
C3_2 C 0.86296(15) 0.0575(9) 0.9245(2)
C4_2 C 0.88177(15) 0.4151(9) 0.9141(2)
H2_2 H 0.8759 0.5564 0.8987
C5_2 C 0.91795(14) 0.3504(8) 0.94932(19)
H3_2 H 0.9366 0.4486 0.9579
C7_2 C 0.92679(14) 0.1408(8) 0.97219(19)
Cd7_2 Cd 0.745530(11) 0.50061(6) 0.792677(17)
H23 H 0.0220142 0.472753 0.283746
H24 H 0.000641501 0.472753 0.222617
O5 O 0.47408(10) 0.1015(6) 0.91570(14)
O6 O 0.31487(11) 0.5327(6) 0.77493(18)
O7 O 0.25224(9) 0.8874(6) 0.72743(13)
C11 C 0.36334(14) 0.2662(8) 0.8082(2)
C12 C 0.32411(15) 0.3396(11) 0.7724(2)
C13 C 0.43703(14) 0.1463(8) 0.87719(19)
C14 C 0.38938(15) 0.4191(9) 0.8456(2)
H7 H 0.3821 0.5627 0.8472
O8 O 0.30025(10) 0.1992(6) 0.73785(15)
C15 C 0.37511(16) 0.0569(9) 0.8066(2)
C16 C 0.42644(14) 0.3551(8) 0.8805(2)
H9 H 0.4438 0.4548 0.9060
O10 O 0.26027(16) 0.6124(10) 0.6465(2)
O17 O 0.52592(10) 0.1015(6) 0.58430(14)
O18 O 0.68513(11) 0.5327(6) 0.72507(18)
O19 O 0.74776(9) 0.8874(6) 0.77257(13)
C32 C 0.63666(14) 0.2662(8) 0.6918(2)
C33 C 0.67589(15) 0.3396(11) 0.7276(2)
C34 C 0.56297(14) 0.1463(8) 0.62281(19)
C35 C 0.61062(15) 0.4191(9) 0.6544(2)
H18 H 0.6179 0.5627 0.6528
O20 O 0.69975(10) 0.1992(6) 0.76215(15)
C36 C 0.62489(16) 0.0569(9) 0.6934(2)
C37 C 0.57356(14) 0.3551(8) 0.6195(2)
H20 H 0.5562 0.4548 0.5940
O22 O 0.73973(16) 0.6124(10) 0.8535(2)
O28 O 0.75224(9) 0.3874(6) 0.72743(13)
O29 O 0.24776(9) 0.3874(6) 0.77257(13)
H27 H 0.270572 0.767514 0.654417
H28 H 0.235682 0.610474 0.612081
H31 H 0.729428 0.767514 0.845583
H32 H 0.764318 0.610474 0.887919
O18_2 O 0.18513(11) 0.0327(6) 0.72507(18)
H18_2 H 0.1179 0.0627 0.6528
O22_2 O 0.23973(16) 0.1124(10) 0.8535(2)
H31_2 H 0.229428 0.267514 0.845583
H32_2 H 0.264318 0.110474 0.887919
C8_2 C 0.02295(13) 0.0676(9) 0.95728(18)
C9_2 C 0.00556(13) 0.2621(8) 0.95610(18)
H5_2 H 0.0047 0.2957 0.9825
C10_2 C 0.02358(15) 0.0139(8) 0.9176(2)
C18_2 C 0.00767(15) 0.1640(9) 0.8763(2)
C21_2 C 0.00762(19) 0.0980(13) 0.8340(2)
O16_2 O 0.00118(15) 0.2431(9) 0.69963(19)
O17_2 O 0.02592(10) 0.6015(6) 0.58430(14)
C32_2 C 0.13666(14) 0.7662(8) 0.6918(2)
C33_2 C 0.17589(15) 0.8396(11) 0.7276(2)
C34_2 C 0.06297(14) 0.6463(8) 0.62281(19)
C35_2 C 0.11062(15) 0.9191(9) 0.6544(2)
O20_2 O 0.19975(10) 0.6992(6) 0.76215(15)
C36_2 C 0.12489(16) 0.5569(9) 0.6934(2)
H19_2 H 0.1422 0.4545 0.7181
C37_2 C 0.07356(14) 0.8551(8) 0.6195(2)
H20_2 H 0.0562 0.9548 0.5940
C38_2 C 0.01039(14) 0.4026(9) 0.5857(2)
C40_2 C 0.08849(14) 0.4924(8) 0.6600(2)
H21_2 H 0.0811 0.3500 0.6621
C41_2 C 0.00886(15) 0.3599(10) 0.6252(2)
H22_2 H 0.0188 0.4617 0.6520
H29 H 0.0726452 0.142727 0.790097
O6_2 O 0.81487(11) 0.0327(6) 0.77493(18)
H7_2 H 0.8821 0.0627 0.8472
O10_2 O 0.76027(16) 0.1124(10) 0.6465(2)
H27_2 H 0.770572 0.267514 0.654417
H28_2 H 0.735682 0.110474 0.612081
O4_2 O 0.99882(15) 0.2431(9) 0.80037(19)
O5_2 O 0.97408(10) 0.6015(6) 0.91570(14)
C11_2 C 0.86334(14) 0.7662(8) 0.8082(2)
C12_2 C 0.82411(15) 0.8396(11) 0.7724(2)
C13_2 C 0.93703(14) 0.6463(8) 0.87719(19)
C14_2 C 0.88938(15) 0.9191(9) 0.8456(2)
O8_2 O 0.80025(10) 0.6992(6) 0.73785(15)
C15_2 C 0.87511(16) 0.5569(9) 0.8066(2)
H8_2 H 0.8578 0.4545 0.7819
C16_2 C 0.92644(14) 0.8551(8) 0.8805(2)
H9_2 H 0.9438 0.9548 0.9060
C17_2 C 0.98961(14) 0.4026(9) 0.9143(2)
C19_2 C 0.91151(14) 0.4924(8) 0.8400(2)
H10_2 H 0.9189 0.3500 0.8379
C20_2 C 0.99114(15) 0.3599(10) 0.8748(2)
H11_2 H 0.9812 0.4617 0.8480
H12_2 H 0.8444 0.0415 0.4161
C27_2 C 0.89967(15) 0.0062(9) 0.4601(2)
H15_2 H 0.9058 0.1474 0.4756
C29_2 C 0.97705(13) 0.0676(9) 0.54272(18)
C30_2 C 0.99444(13) 0.2621(8) 0.54390(18)
H16_2 H 0.9953 0.2957 0.5175
C31_2 C 0.97642(15) 0.0139(8) 0.5824(2)
C39_2 C 0.99233(15) 0.1640(9) 0.6237(2)
C42_2 C 0.99238(19) 0.0980(13) 0.6660(2)
H29_2 H 0.927355 0.142727 0.709903
Cd1 Cd 0.745530(11) 0.49939(6) 0.292677(17)
O5_3 O 0.52592(10) 0.8985(6) 0.08430(14)
O6_3 O 0.68513(11) 0.4673(6) 0.22507(18)
O7_2 O 0.74776(9) 0.1126(6) 0.27257(13)
C11_3 C 0.63666(14) 0.7338(8) 0.1918(2)
C12_3 C 0.67589(15) 0.6604(11) 0.2276(2)
C13_3 C 0.56297(14) 0.8537(8) 0.12281(19)
C14_3 C 0.61062(15) 0.5809(9) 0.1544(2)
H7_3 H 0.6179 0.4373 0.1528
O8_3 O 0.69975(10) 0.8008(6) 0.26215(15)
C15_3 C 0.62489(16) 0.9431(9) 0.1934(2)
C16_3 C 0.57356(14) 0.6449(8) 0.1195(2)
H9_3 H 0.5562 0.5452 0.0940
O10_3 O 0.73973(16) 0.3876(10) 0.3535(2)
Cd3 Cd 0.254470(11) 0.49939(6) 0.207323(17)
O17_3 O 0.47408(10) 0.8985(6) 0.41570(14)
O18_3 O 0.31487(11) 0.4673(6) 0.27493(18)
O19_2 O 0.25224(9) 0.1126(6) 0.22743(13)
C32_3 C 0.36334(14) 0.7338(8) 0.3082(2)
C33_3 C 0.32411(15) 0.6604(11) 0.2724(2)
C34_3 C 0.43703(14) 0.8537(8) 0.37719(19)
C35_3 C 0.38938(15) 0.5809(9) 0.3456(2)
H18_3 H 0.3821 0.4373 0.3472
O20_3 O 0.30025(10) 0.8008(6) 0.23785(15)
C36_3 C 0.37511(16) 0.9431(9) 0.3066(2)
C37_3 C 0.42644(14) 0.6449(8) 0.3805(2)
H20_3 H 0.4438 0.5452 0.4060
O22_3 O 0.26027(16) 0.3876(10) 0.1465(2)
O24 O 0.21124(10) 0.7981(6) 0.15082(15)
O25 O 0.78876(10) 0.7981(6) 0.34918(15)
O26 O 0.19237(11) 0.4646(6) 0.15585(17)
O27 O 0.80763(11) 0.4646(6) 0.34415(17)
O28_2 O 0.24776(9) 0.6126(6) 0.27257(13)
O29_2 O 0.75224(9) 0.6126(6) 0.22743(13)
H27_3 H 0.729428 0.232486 0.345583
H28_3 H 0.764318 0.389526 0.387919
H31_3 H 0.270572 0.232486 0.154417
H32_3 H 0.235682 0.389526 0.112081
Cd4 Cd 0.245530(11) 0.99939(6) 0.292677(17)
Cd5 Cd 0.754470(11) 0.99939(6) 0.207323(17)
O4_3 O 0.00118(15) 0.7569(9) 0.19963(19)
O5_4 O 0.02592(10) 0.3985(6) 0.08430(14)
C11_4 C 0.13666(14) 0.2338(8) 0.1918(2)
C12_4 C 0.17589(15) 0.1604(11) 0.2276(2)
C13_4 C 0.06297(14) 0.3537(8) 0.12281(19)
C14_4 C 0.11062(15) 0.0809(9) 0.1544(2)
O8_4 O 0.19975(10) 0.3008(6) 0.26215(15)
C15_4 C 0.12489(16) 0.4431(9) 0.1934(2)
H8_3 H 0.1422 0.5455 0.2181
C16_4 C 0.07356(14) 0.1449(8) 0.1195(2)
H9_4 H 0.0562 0.0452 0.0940
C17_3 C 0.01039(14) 0.5974(9) 0.0857(2)
C19_3 C 0.08849(14) 0.5076(8) 0.1600(2)
H10_3 H 0.0811 0.6500 0.1621
C20_3 C 0.00886(15) 0.6401(10) 0.1252(2)
H11_3 H 0.0188 0.5383 0.1520
H12_3 H 0.1556 0.9585 0.5839
C27_3 C 0.10033(15) 0.9938(9) 0.5399(2)
H15_3 H 0.0942 0.8526 0.5244
C29_3 C 0.02295(13) 0.9324(9) 0.45728(18)
C30_3 C 0.00556(13) 0.7379(8) 0.45610(18)
H16_3 H 0.0047 0.7043 0.4825
C31_3 C 0.02358(15) 0.9861(8) 0.4176(2)
C39_3 C 0.00767(15) 0.8360(9) 0.3763(2)
C42_3 C 0.00762(19) 0.9020(13) 0.3340(2)
O25_2 O 0.28876(10) 0.2981(6) 0.34918(15)
O6_4 O 0.18513(11) 0.9673(6) 0.22507(18)
H7_4 H 0.1179 0.9373 0.1528
O10_4 O 0.23973(16) 0.8876(10) 0.3535(2)
O27_2 O 0.30763(11) 0.9646(6) 0.34415(17)
H27_4 H 0.229428 0.732486 0.345583
H28_4 H 0.264318 0.889526 0.387919
C8_3 C 0.97705(13) 0.9324(9) 0.04272(18)
C9_3 C 0.99444(13) 0.7379(8) 0.04390(18)
H5_3 H 0.9953 0.7043 0.0175
C10_3 C 0.97642(15) 0.9861(8) 0.0824(2)
C18_3 C 0.99233(15) 0.8360(9) 0.1237(2)
C21_3 C 0.99238(19) 0.9020(13) 0.1660(2)
O16_3 O 0.99882(15) 0.7569(9) 0.30037(19)
O17_4 O 0.97408(10) 0.3985(6) 0.41570(14)
C32_4 C 0.86334(14) 0.2338(8) 0.3082(2)
C33_4 C 0.82411(15) 0.1604(11) 0.2724(2)
C34_4 C 0.93703(14) 0.3537(8) 0.37719(19)
C35_4 C 0.88938(15) 0.0809(9) 0.3456(2)
O20_4 O 0.80025(10) 0.3008(6) 0.23785(15)
C36_4 C 0.87511(16) 0.4431(9) 0.3066(2)
H19_3 H 0.8578 0.5455 0.2819
C37_4 C 0.92644(14) 0.1449(8) 0.3805(2)
H20_4 H 0.9438 0.0452 0.4060
C38_3 C 0.98961(14) 0.5974(9) 0.4143(2)
C40_3 C 0.91151(14) 0.5076(8) 0.3400(2)
H21_3 H 0.9189 0.6500 0.3379
C41_3 C 0.99114(15) 0.6401(10) 0.3748(2)
H22_3 H 0.9812 0.5383 0.3480
O24_2 O 0.71124(10) 0.2981(6) 0.15082(15)
H29_3 H 0.927355 0.857273 0.209903
O18_4 O 0.81487(11) 0.9673(6) 0.27493(18)
H18_4 H 0.8821 0.9373 0.3472
O22_4 O 0.76027(16) 0.8876(10) 0.1465(2)
O26_2 O 0.69237(11) 0.9646(6) 0.15585(17)
H31_4 H 0.770572 0.732486 0.154417
H32_4 H 0.735682 0.889526 0.112081
H29_4 H 0.0726452 0.857273 0.290097
C1_3 C 0.68544(15) 0.1641(10) 0.1376(2)
C2_3 C 0.64616(14) 0.2334(9) 0.0986(2)
C3_3 C 0.63704(15) 0.4425(9) 0.0755(2)
H1_2 H 0.6556 0.5415 0.0839
C4_3 C 0.61823(15) 0.0849(9) 0.0859(2)
C5_3 C 0.58205(14) 0.1496(8) 0.05068(19)
H3_3 H 0.5634 0.0514 0.0421
C6_2 C 0.60033(15) 0.5062(9) 0.0399(2)
H4_2 H 0.5942 0.6474 0.0244
C7_3 C 0.57321(14) 0.3592(8) 0.02781(19)
O3_2 O 0.53626(10) 0.4164(6) 0.99710(13)
C8_4 C 0.52295(13) 0.5676(9) 0.95728(18)
C9_4 C 0.50556(13) 0.7621(8) 0.95610(18)
H5_4 H 0.5047 0.7957 0.9825
C10_4 C 0.52358(15) 0.5139(8) 0.9176(2)
H6_2 H 0.5344 0.3803 0.9183
O4_4 O 0.49882(15) 0.7431(9) 0.80037(19)
Cd2_3 Cd 0.5000 0.45379(13) 0.7500
H8_4 H 0.3578 0.9545 0.7819
C17_4 C 0.48961(14) 0.9026(9) 0.9143(2)
C18_4 C 0.50767(15) 0.6640(9) 0.8763(2)
C19_4 C 0.41151(14) 0.9924(8) 0.8400(2)
H10_4 H 0.4189 0.8500 0.8379
C20_4 C 0.49114(15) 0.8599(10) 0.8748(2)
H11_4 H 0.4812 0.9617 0.8480
O9_2 O 0.51410(18) 0.4010(9) 0.82994(19)
C21_4 C 0.50762(19) 0.5980(13) 0.8340(2)
O11_3 O 0.5000 0.0831(15) 0.7500
O12_3 O 0.4330(3) 0.4869(13) 0.7058(3)
C22_3 C 0.31456(15) 0.1641(10) 0.3624(2)
C23_3 C 0.35384(14) 0.2334(9) 0.4014(2)
C24_3 C 0.36296(15) 0.4425(9) 0.4245(2)
H12_4 H 0.3444 0.5415 0.4161
C25_3 C 0.38177(15) 0.0849(9) 0.4141(2)
C26_3 C 0.41795(14) 0.1496(8) 0.44932(19)
H14_3 H 0.4366 0.0514 0.4579
C27_4 C 0.39967(15) 0.5062(9) 0.4601(2)
H15_4 H 0.4058 0.6474 0.4756
C28_3 C 0.42679(14) 0.3592(8) 0.47219(19)
O15_3 O 0.46374(10) 0.4164(6) 0.50290(13)
C29_4 C 0.47705(13) 0.5676(9) 0.54272(18)
C30_4 C 0.49444(13) 0.7621(8) 0.54390(18)
H16_4 H 0.4953 0.7957 0.5175
C31_4 C 0.47642(15) 0.5139(8) 0.5824(2)
H17_3 H 0.4656 0.3803 0.5817
O16_4 O 0.50118(15) 0.7431(9) 0.69963(19)
H19_4 H 0.6422 0.9545 0.7181
C38_4 C 0.51039(14) 0.9026(9) 0.5857(2)
C39_4 C 0.49233(15) 0.6640(9) 0.6237(2)
C40_4 C 0.58849(14) 0.9924(8) 0.6600(2)
H21_4 H 0.5811 0.8500 0.6621
C41_4 C 0.50886(15) 0.8599(10) 0.6252(2)
H22_4 H 0.5188 0.9617 0.6520
O21_3 O 0.48590(18) 0.4010(9) 0.67006(19)
C42_4 C 0.49238(19) 0.5980(13) 0.6660(2)
O23_2 O 0.5670(3) 0.4869(13) 0.7942(3)
H2_3 H 0.6241 0.9436 0.1013
H13_3 H 0.3759 0.9436 0.3987
C1_4 C 0.18544(15) 0.6641(10) 0.1376(2)
C2_4 C 0.14616(14) 0.7334(9) 0.0986(2)
C3_4 C 0.13704(15) 0.9425(9) 0.0755(2)
C4_4 C 0.11823(15) 0.5849(9) 0.0859(2)
H2_4 H 0.1241 0.4436 0.1013
C5_4 C 0.08205(14) 0.6496(8) 0.05068(19)
H3_4 H 0.0634 0.5514 0.0421
C7_4 C 0.07321(14) 0.8592(8) 0.02781(19)
Cd2_4 Cd 1.0000 0.95379(13) 0.7500
O11_4 O 1.0000 0.5831(15) 0.7500
O12_4 O 0.9330(3) 0.9869(13) 0.7058(3)
C22_4 C 0.81456(15) 0.6641(10) 0.3624(2)
C23_4 C 0.85384(14) 0.7334(9) 0.4014(2)
C24_4 C 0.86296(15) 0.9425(9) 0.4245(2)
C25_4 C 0.88177(15) 0.5849(9) 0.4141(2)
H13_4 H 0.8759 0.4436 0.3987
C26_4 C 0.91795(14) 0.6496(8) 0.44932(19)
H14_4 H 0.9366 0.5514 0.4579
C28_4 C 0.92679(14) 0.8592(8) 0.47219(19)
O15_4 O 0.96374(10) 0.9164(6) 0.50290(13)
H17_4 H 0.9656 0.8803 0.5817
O21_4 O 0.98590(18) 0.9010(9) 0.67006(19)
H23_2 H 0.977986 0.527247 0.716254
H24_2 H 0.999358 0.527247 0.777383
O3_3 O 0.96374(10) 0.0836(6) 0.00290(13)
H6_3 H 0.9656 0.1197 0.0817
Cd2_5 Cd 1.0000 0.04621(13) 0.2500
O9_3 O 0.98590(18) 0.0990(9) 0.17006(19)
O11_5 O 1.0000 0.4169(15) 0.2500
O23_3 O 0.9330(3) 0.0131(13) 0.2058(3)
H23_3 H 0.977986 0.472753 0.216254
H24_3 H 0.999358 0.472753 0.277383
H1_3 H 0.8444 0.9585 0.9161
C6_3 C 0.89967(15) 0.9938(9) 0.9601(2)
H4_3 H 0.9058 0.8526 0.9756
H1_4 H 0.1556 0.0415 0.0839
C6_4 C 0.10033(15) 0.0062(9) 0.0399(2)
H4_4 H 0.0942 0.1474 0.0244
O3_4 O 0.03626(10) 0.9164(6) 0.99710(13)
H6_4 H 0.0344 0.8803 0.9183
Cd2_6 Cd -0.0000 0.95379(13) 0.7500
O9_4 O 0.01410(18) 0.9010(9) 0.82994(19)
O11_6 O -0.0000 0.5831(15) 0.7500
O23_4 O 0.0670(3) 0.9869(13) 0.7942(3)
H23_4 H 0.0220142 0.527247 0.783746
H24_4 H 0.000641501 0.527247 0.722617
loop_
_geom_bond_atom_site_label_1
_geom_bond_atom_site_label_2
_geom_bond_site_symmetry_1
_geom_bond_site_symmetry_2
O14 Cd6 1_555 1_555
O2 Cd7 1_555 1_555
C8 O3 1_555 1_555
C9 C8 1_555 1_555
H5 C9 1_555 1_555
C10 C8 1_555 1_555
H6 C10 1_555 1_555
O4 Cd2 1_555 1_555
Cd2 O9 1_555 1_555
C17 C9 1_555 1_555
C18 C10 1_555 1_555
H10 C19 1_555 1_555
C20 C17 1_555 1_555
H11 C20 1_555 1_555
O9 C21 1_555 1_555
C21 O4 1_555 1_555
O11 Cd2 1_555 1_555
O12 Cd2 1_555 1_555
O13 C22 1_555 1_555
C22 C23 1_555 1_555
C23 C24 1_555 1_555
C24 H12 1_555 1_555
C25 C23 1_555 1_555
C26 C25 1_555 1_555
H14 C26 1_555 1_555
C27 C24 1_555 1_555
H15 C27 1_555 1_555
C28 C26 1_555 1_555
O15 C28 1_555 1_555
C29 O15 1_555 1_555
C30 C29 1_555 1_555
H16 C30 1_555 1_555
C31 C29 1_555 1_555
H17 C31 1_555 1_555
O16 Cd2 1_555 1_555
C38 C30 1_555 1_555
C39 C31 1_555 1_555
H21 C40 1_555 1_555
C41 C38 1_555 1_555
H22 C41 1_555 1_555
O21 Cd2 1_555 1_555
C42 O16 1_555 1_555
O23 Cd2 1_555 1_555
C18 C20 1_555 1_555
C18 C21 1_555 1_555
C27 C28 1_555 1_555
C39 C41 1_555 1_555
C39 C42 1_555 1_555
O21 C42 1_555 1_555
O1 C1 1_555 1_555
C1 C2 1_555 1_555
C2 C3 1_555 1_555
C3 H1 1_555 1_555
C4 C2 1_555 1_555
C5 C4 1_555 1_555
H3 C5 1_555 1_555
C6 C3 1_555 1_555
H4 C6 1_555 1_555
C7 C5 1_555 1_555
C6 C7 1_555 1_555
O11_2 Cd2_2 1_555 1_555
O12_2 Cd2_2 1_555 1_555
O13_2 C22_2 1_555 1_555
O14_2 C22_2 1_555 1_555
C22_2 C23_2 1_555 1_555
C23_2 C24_2 1_555 1_555
C25_2 C23_2 1_555 1_555
H13_2 C25_2 1_555 1_555
C26_2 C25_2 1_555 1_555
H14_2 C26_2 1_555 1_555
C28_2 C26_2 1_555 1_555
O15_2 C28_2 1_555 1_555
O21_2 Cd2_2 1_555 1_555
Cd6_2 O13_2 1_555 1_555
O14_2 Cd6_2 1_555 1_555
O1_2 C1_2 1_555 1_555
O2_2 C1_2 1_555 1_555
C1_2 C2_2 1_555 1_555
C2_2 C3_2 1_555 1_555
C4_2 C2_2 1_555 1_555
H2_2 C4_2 1_555 1_555
C5_2 C4_2 1_555 1_555
H3_2 C5_2 1_555 1_555
C7_2 C5_2 1_555 1_555
Cd7_2 O1_2 1_555 1_555
O2_2 Cd7_2 1_555 1_555
O11_2 H23 1_555 1_555
O11_2 H24 1_555 1_555
Cd6_2 O6 1_555 1_555
O5 C13 1_555 1_555
O6 C12 1_555 1_555
O7 Cd6_2 1_555 1_555
C11 C12 1_555 1_555
C12 O8 1_555 1_555
C13 C16 1_555 1_555
C14 C11 1_555 1_555
H7 C14 1_555 1_555
O8 Cd6_2 1_555 1_555
C15 C11 1_555 1_555
C16 C14 1_555 1_555
H9 C16 1_555 1_555
O10 Cd6_2 1_555 1_555
Cd7_2 O18 1_555 1_555
O17 C34 1_555 1_555
O18 C33 1_555 1_555
O19 Cd7_2 1_555 1_555
C32 C33 1_555 1_555
C33 O20 1_555 1_555
C34 C37 1_555 1_555
C35 C32 1_555 1_555
H18 C35 1_555 1_555
O20 Cd7_2 1_555 1_555
C36 C32 1_555 1_555
C37 C35 1_555 1_555
H20 C37 1_555 1_555
O22 Cd7_2 1_555 1_555
O28 Cd7_2 1_555 1_555
O29 Cd6_2 1_555 1_555
O10 H27 1_555 1_555
O10 H28 1_555 1_555
O22 H31 1_555 1_555
O22 H32 1_555 1_555
Cd7 O18_2 1_555 1_555
O29 Cd7 1_555 1_555
O22_2 Cd7 1_555 1_555
O22_2 H31_2 1_555 1_555
O22_2 H32_2 1_555 1_555
C9_2 C8_2 1_555 1_555
H5_2 C9_2 1_555 1_555
C10_2 C8_2 1_555 1_555
C18_2 C10_2 1_555 1_555
O17_2 C34_2 1_555 1_555
C32_2 C33_2 1_555 1_555
C33_2 O20_2 1_555 1_555
C34_2 C37_2 1_555 1_555
C35_2 C32_2 1_555 1_555
C36_2 C32_2 1_555 1_555
H19_2 C36_2 1_555 1_555
C37_2 C35_2 1_555 1_555
H20_2 C37_2 1_555 1_555
C40_2 C34_2 1_555 1_555
H21_2 C40_2 1_555 1_555
C41_2 C38_2 1_555 1_555
H22_2 C41_2 1_555 1_555
C18_2 C21_2 1_555 1_555
O17_2 C38_2 1_555 1_555
C36_2 C40_2 1_555 1_555
Cd6 O6_2 1_555 1_555
O28 Cd6 1_555 1_555
O10_2 Cd6 1_555 1_555
O10_2 H27_2 1_555 1_555
O10_2 H28_2 1_555 1_555
O5_2 C13_2 1_555 1_555
C11_2 C12_2 1_555 1_555
C12_2 O8_2 1_555 1_555
C13_2 C16_2 1_555 1_555
C14_2 C11_2 1_555 1_555
C15_2 C11_2 1_555 1_555
H8_2 C15_2 1_555 1_555
C16_2 C14_2 1_555 1_555
H9_2 C16_2 1_555 1_555
C19_2 C13_2 1_555 1_555
H10_2 C19_2 1_555 1_555
C20_2 C17_2 1_555 1_555
H11_2 C20_2 1_555 1_555
H15_2 C27_2 1_555 1_555
C30_2 C29_2 1_555 1_555
H16_2 C30_2 1_555 1_555
C31_2 C29_2 1_555 1_555
C39_2 C31_2 1_555 1_555
O5_2 C17_2 1_555 1_555
C15_2 C19_2 1_555 1_555
C39_2 C42_2 1_555 1_555
Cd1 O6_3 1_555 1_555
O5_3 C13_3 1_555 1_555
O6_3 C12_3 1_555 1_555
O7_2 Cd1 1_555 1_555
C11_3 C12_3 1_555 1_555
C12_3 O8_3 1_555 1_555
C13_3 C16_3 1_555 1_555
C14_3 C11_3 1_555 1_555
H7_3 C14_3 1_555 1_555
O8_3 Cd1 1_555 1_555
C15_3 C11_3 1_555 1_555
C16_3 C14_3 1_555 1_555
H9_3 C16_3 1_555 1_555
O10_3 Cd1 1_555 1_555
Cd3 O18_3 1_555 1_555
O17_3 C34_3 1_555 1_555
O18_3 C33_3 1_555 1_555
O19_2 Cd3 1_555 1_555
C32_3 C33_3 1_555 1_555
C33_3 O20_3 1_555 1_555
C34_3 C37_3 1_555 1_555
C35_3 C32_3 1_555 1_555
H18_3 C35_3 1_555 1_555
O20_3 Cd3 1_555 1_555
C36_3 C32_3 1_555 1_555
C37_3 C35_3 1_555 1_555
H20_3 C37_3 1_555 1_555
O22_3 Cd3 1_555 1_555
O24 Cd3 1_555 1_555
O25 Cd1 1_555 1_555
O26 Cd3 1_555 1_555
O27 Cd1 1_555 1_555
O28_2 Cd3 1_555 1_555
O29_2 Cd1 1_555 1_555
O10_3 H27_3 1_555 1_555
O10_3 H28_3 1_555 1_555
O22_3 H31_3 1_555 1_555
O22_3 H32_3 1_555 1_555
O5_4 C13_4 1_555 1_555
C11_4 C12_4 1_555 1_555
C12_4 O8_4 1_555 1_555
C13_4 C16_4 1_555 1_555
C14_4 C11_4 1_555 1_555
C15_4 C11_4 1_555 1_555
H8_3 C15_4 1_555 1_555
C16_4 C14_4 1_555 1_555
H9_4 C16_4 1_555 1_555
C19_3 C13_4 1_555 1_555
H10_3 C19_3 1_555 1_555
C20_3 C17_3 1_555 1_555
H11_3 C20_3 1_555 1_555
H15_3 C27_3 1_555 1_555
C30_3 C29_3 1_555 1_555
H16_3 C30_3 1_555 1_555
C31_3 C29_3 1_555 1_555
C39_3 C31_3 1_555 1_555
O5_4 C17_3 1_555 1_555
C15_4 C19_3 1_555 1_555
C39_3 C42_3 1_555 1_555
Cd4 O6_4 1_555 1_555
O28_2 Cd4 1_555 1_555
O10_4 Cd4 1_555 1_555
O27_2 Cd4 1_555 1_555
O10_4 H27_4 1_555 1_555
O10_4 H28_4 1_555 1_555
C9_3 C8_3 1_555 1_555
H5_3 C9_3 1_555 1_555
C10_3 C8_3 1_555 1_555
C18_3 C10_3 1_555 1_555
O17_4 C34_4 1_555 1_555
C32_4 C33_4 1_555 1_555
C33_4 O20_4 1_555 1_555
C34_4 C37_4 1_555 1_555
C35_4 C32_4 1_555 1_555
C36_4 C32_4 1_555 1_555
H19_3 C36_4 1_555 1_555
C37_4 C35_4 1_555 1_555
H20_4 C37_4 1_555 1_555
C40_3 C34_4 1_555 1_555
H21_3 C40_3 1_555 1_555
C41_3 C38_3 1_555 1_555
H22_3 C41_3 1_555 1_555
C18_3 C21_3 1_555 1_555
O17_4 C38_3 1_555 1_555
C36_4 C40_3 1_555 1_555
Cd5 O18_4 1_555 1_555
O29_2 Cd5 1_555 1_555
O22_4 Cd5 1_555 1_555
O26_2 Cd5 1_555 1_555
O22_4 H31_4 1_555 1_555
O22_4 H32_4 1_555 1_555
O24_2 C1_3 1_555 1_555
C1_3 C2_3 1_555 1_555
C2_3 C3_3 1_555 1_555
C3_3 H1_2 1_555 1_555
C4_3 C2_3 1_555 1_555
C5_3 C4_3 1_555 1_555
H3_3 C5_3 1_555 1_555
C6_2 C3_3 1_555 1_555
H4_2 C6_2 1_555 1_555
C7_3 C5_3 1_555 1_555
C6_2 C7_3 1_555 1_555
C8_4 O3_2 1_555 1_555
C9_4 C8_4 1_555 1_555
H5_4 C9_4 1_555 1_555
C10_4 C8_4 1_555 1_555
H6_2 C10_4 1_555 1_555
O4_4 Cd2_3 1_555 1_555
Cd2_3 O9_2 1_555 1_555
C17_4 C9_4 1_555 1_555
C18_4 C10_4 1_555 1_555
H10_4 C19_4 1_555 1_555
C20_4 C17_4 1_555 1_555
H11_4 C20_4 1_555 1_555
O9_2 C21_4 1_555 1_555
C21_4 O4_4 1_555 1_555
O11_3 Cd2_3 1_555 1_555
O12_3 Cd2_3 1_555 1_555
O25_2 C22_3 1_555 1_555
C22_3 C23_3 1_555 1_555
C23_3 C24_3 1_555 1_555
C24_3 H12_4 1_555 1_555
C25_3 C23_3 1_555 1_555
C26_3 C25_3 1_555 1_555
H14_3 C26_3 1_555 1_555
C27_4 C24_3 1_555 1_555
H15_4 C27_4 1_555 1_555
C28_3 C26_3 1_555 1_555
O15_3 C28_3 1_555 1_555
C29_4 O15_3 1_555 1_555
C30_4 C29_4 1_555 1_555
H16_4 C30_4 1_555 1_555
C31_4 C29_4 1_555 1_555
H17_3 C31_4 1_555 1_555
O16_4 Cd2_3 1_555 1_555
C38_4 C30_4 1_555 1_555
C39_4 C31_4 1_555 1_555
H21_4 C40_4 1_555 1_555
C41_4 C38_4 1_555 1_555
H22_4 C41_4 1_555 1_555
O21_3 Cd2_3 1_555 1_555
C42_4 O16_4 1_555 1_555
O23_2 Cd2_3 1_555 1_555
C18_4 C20_4 1_555 1_555
C18_4 C21_4 1_555 1_555
C27_4 C28_3 1_555 1_555
C39_4 C41_4 1_555 1_555
C39_4 C42_4 1_555 1_555
O21_3 C42_4 1_555 1_555
O24 C1_4 1_555 1_555
O26 C1_4 1_555 1_555
C1_4 C2_4 1_555 1_555
C2_4 C3_4 1_555 1_555
C4_4 C2_4 1_555 1_555
H2_4 C4_4 1_555 1_555
C5_4 C4_4 1_555 1_555
H3_4 C5_4 1_555 1_555
C7_4 C5_4 1_555 1_555
O11_4 Cd2_4 1_555 1_555
O12_4 Cd2_4 1_555 1_555
O25 C22_4 1_555 1_555
O27 C22_4 1_555 1_555
C22_4 C23_4 1_555 1_555
C23_4 C24_4 1_555 1_555
C25_4 C23_4 1_555 1_555
H13_4 C25_4 1_555 1_555
C26_4 C25_4 1_555 1_555
H14_4 C26_4 1_555 1_555
C28_4 C26_4 1_555 1_555
O15_4 C28_4 1_555 1_555
O21_4 Cd2_4 1_555 1_555
O11_4 H23_2 1_555 1_555
O11_4 H24_2 1_555 1_555
Cd2_5 O9_3 1_555 1_555
O11_5 Cd2_5 1_555 1_555
O23_3 Cd2_5 1_555 1_555
O11_5 H23_3 1_555 1_555
O11_5 H24_3 1_555 1_555
H4_3 C6_3 1_555 1_555
H4_4 C6_4 1_555 1_555
Cd2_6 O9_4 1_555 1_555
O11_6 Cd2_6 1_555 1_555
O23_4 Cd2_6 1_555 1_555
O11_6 H23_4 1_555 1_555
O11_6 H24_4 1_555 1_555

#END
