
###############################################################################
#
# This file contains modified crystal structure data generated from the
# MOF subset of the Cambridge Structural Database (CSD) v543 
# hosted by the Cambridge Crystallographic Data Centre (CCDC).
#
# This work is licensed under the Creative Commons
# Attribution-NonCommercial-ShareAlike 4.0 International License.
# To view a copy of this license, visit
# http://creativecommons.org/licenses/by-nc-sa/4.0/
# or send a letter to
# Creative Commons, PO Box 1866, Mountain View, CA 94042, USA.
#
# CIF created using the CSD Python API on 29 September 2022
# The structure has been converted into the P1 space group
# The structure has a 3D framework
# The original CSD entry TUMDEM is in the monoclinic crystal system
# The framework has been calculated to contain at least 10.0% void space
# The void calculation uses a probe of radius 1.32A, grid spacing 0.4
#
###############################################################################

data_TUMDEM
_chemical_formula_moiety         '(C60 H36 Cd2 N20 O16)n'
_symmetry_cell_setting           triclinic
_symmetry_space_group_name_H-M   'P 1'
_symmetry_Int_Tables_number      1
_space_group_name_Hall           'P 1'
loop_
_symmetry_equiv_pos_site_id
_symmetry_equiv_pos_as_xyz
1 x,y,z
_cell_length_a                   10.1128(8)
_cell_length_b                   11.8543(6)
_cell_length_c                   18.4224(12)
_cell_angle_alpha                90
_cell_angle_beta                 90.709(6)
_cell_angle_gamma                90
_cell_volume                     2208.31
loop_
_atom_site_label
_atom_site_type_symbol
_atom_site_fract_x
_atom_site_fract_y
_atom_site_fract_z
C1 C 0.7081(3) 0.1989(3) 0.10634(17)
C2 C 0.2091(3) 0.2153(2) 0.10354(16)
C3 C 0.4585(3) 0.2061(3) 0.10759(16)
H1 H 0.4565 0.1732 0.0606
C4 C 0.5798(3) 0.2258(2) 0.14247(16)
C5 C 0.3407(3) 0.2345(2) 0.14127(15)
C6 C 0.5814(3) 0.2736(2) 0.21137(15)
H2 H 0.6631 0.2878 0.2357
C7 C 0.3426(3) 0.2819(2) 0.21035(15)
H3 H 0.2626 0.3011 0.2338
C8 C 0.4637(3) 0.3004(2) 0.24413(14)
C9 C 0.5353(4) 0.5446(3) 0.26311(17)
H4 H 0.5411 0.6218 0.2818
H5 H 0.4652 0.5403 0.2260
H6 H 0.6199 0.5233 0.2417
C10 C 0.5045(3) 0.4661(2) 0.32353(15)
C11 C 0.4473(3) 0.3156(2) 0.38242(15)
C12 C 0.4046(3) 0.2012(2) 0.40355(16)
C13 C 0.3264(5) 0.0281(3) 0.3768(2)
C14 C 0.3202(4) 0.0018(3) 0.44948(19)
C15 C 0.3616(4) 0.0832(3) 0.49762(18)
H9 H 0.3590 0.0677 0.5482
N1 N 0.4689(2) 0.35584(19) 0.31425(12)
N2 N 0.5054(2) 0.4901(2) 0.39301(12)
N3 N 0.4685(2) 0.39474(19) 0.43003(12)
N4 N 0.3683(3) 0.1286(2) 0.35277(15)
N5 N 0.4056(2) 0.1841(2) 0.47546(13)
O1 O 0.7098(2) 0.1398(2) 0.05040(15)
O2 O 0.8120(2) 0.2371(2) 0.13483(12)
O3 O 0.2041(2) 0.1683(2) 0.04337(12)
O4 O 0.1072(2) 0.24831(19) 0.13535(12)
Cd1 Cd 0.460959(19) 0.336614(16) 0.552744(10)
N6 N 0.4946(2) 0.5099(2) 0.60699(12)
O5 O 0.2098(2) 0.3602(2) 0.55040(15)
O6 O 0.3120(2) 0.2629(2) 0.63483(12)
O7 O 0.7041(2) 0.3317(2) 0.54337(12)
O8 O 0.6072(2) 0.25169(19) 0.63535(12)
Cd2 Cd 0.539041(19) 0.663386(16) 0.447256(10)
Cd4 Cd 0.960959(19) 0.163386(16) 0.052744(10)
N6_2 N 0.0054(2) 0.0099(2) 0.89301(12)
C2_2 C 0.2909(3) 0.7153(2) 0.39646(16)
C3_2 C 0.0415(3) 0.7061(3) 0.39241(16)
H1_2 H 0.0435 0.6732 0.4394
C5_2 C 0.1593(3) 0.7345(2) 0.35873(15)
C7_2 C 0.1574(3) 0.7819(2) 0.28965(15)
H3_2 H 0.2374 0.8011 0.2662
C8_2 C 0.0363(3) 0.8004(2) 0.25587(14)
C11_2 C 0.0527(3) 0.8156(2) 0.11758(15)
C12_2 C 0.0954(3) 0.7012(2) 0.09645(16)
C13_2 C 0.1736(5) 0.5281(3) 0.1232(2)
H7 H 0.2001 0.4727 0.1577
C14_2 C 0.1798(4) 0.5018(3) 0.05052(19)
H8 H 0.2113 0.4307 0.0344
C15_2 C 0.1384(4) 0.5832(3) 0.00238(18)
N1_2 N 0.0311(2) 0.85584(19) 0.18575(12)
N3_2 N 0.0315(2) 0.89474(19) 0.06997(12)
N4_2 N 0.1317(3) 0.6286(2) 0.14723(15)
N5_2 N 0.0944(2) 0.6841(2) 0.02454(13)
O3_2 O 0.2959(2) 0.6683(2) 0.45663(12)
O4_2 O 0.3928(2) 0.74831(19) 0.36465(12)
H9_2 H 0.1410 0.5677 0.9518
Cd1_2 Cd 0.039041(19) 0.836614(16) 0.947256(10)
O5_2 O 0.2902(2) 0.8602(2) 0.94960(15)
O6_2 O 0.1880(2) 0.7629(2) 0.86517(12)
C9_2 C 0.9647(4) 0.0446(3) 0.23689(17)
H4_2 H 0.9589 0.1218 0.2182
H6_2 H 0.8801 0.0233 0.2583
C1_2 C 0.7919(3) 0.6989(3) 0.39366(17)
C4_2 C 0.9202(3) 0.7258(2) 0.35753(16)
C6_2 C 0.9186(3) 0.7736(2) 0.28863(15)
H2_2 H 0.8369 0.7878 0.2643
C10_2 C 0.9955(3) 0.9661(2) 0.17647(15)
N2_2 N 0.9946(2) 0.9901(2) 0.10699(12)
O1_2 O 0.7902(2) 0.6398(2) 0.44960(15)
O2_2 O 0.6880(2) 0.7371(2) 0.36517(12)
O7_2 O 0.7959(2) 0.8317(2) 0.95663(12)
O8_2 O 0.8928(2) 0.75169(19) 0.86465(12)
C1_3 C 0.2919(3) 0.8011(3) 0.89366(17)
C2_3 C 0.7909(3) 0.7847(2) 0.89646(16)
C3_3 C 0.5415(3) 0.7939(3) 0.89241(16)
H1_3 H 0.5435 0.8268 0.9394
C4_3 C 0.4202(3) 0.7742(2) 0.85753(16)
C5_3 C 0.6593(3) 0.7655(2) 0.85873(15)
C6_3 C 0.4186(3) 0.7264(2) 0.78863(15)
H2_3 H 0.3369 0.7122 0.7643
C7_3 C 0.6574(3) 0.7181(2) 0.78965(15)
H3_3 H 0.7374 0.6989 0.7662
C8_3 C 0.5363(3) 0.6996(2) 0.75587(14)
C9_3 C 0.4647(4) 0.4554(3) 0.73689(17)
H4_3 H 0.4589 0.3782 0.7182
H5_2 H 0.5348 0.4597 0.7740
H6_3 H 0.3801 0.4767 0.7583
C10_3 C 0.4955(3) 0.5339(2) 0.67647(15)
C11_3 C 0.5527(3) 0.6844(2) 0.61758(15)
C12_3 C 0.5954(3) 0.7988(2) 0.59645(16)
C13_3 C 0.6736(5) 0.9719(3) 0.6232(2)
C14_3 C 0.6798(4) 0.9982(3) 0.55052(19)
C15_3 C 0.6384(4) 0.9168(3) 0.50238(18)
H9_3 H 0.6410 0.9323 0.4518
N1_3 N 0.5311(2) 0.64416(19) 0.68575(12)
N3_3 N 0.5315(2) 0.60526(19) 0.56997(12)
N4_3 N 0.6317(3) 0.8714(2) 0.64723(15)
N5_3 N 0.5944(2) 0.8159(2) 0.52454(13)
C1_4 C 0.2081(3) 0.3011(3) 0.60634(17)
C4_4 C 0.0798(3) 0.2742(2) 0.64247(16)
C6_4 C 0.0814(3) 0.2264(2) 0.71137(15)
H2_4 H 0.1631 0.2122 0.7357
C10_4 C 0.0045(3) 0.0339(2) 0.82353(15)
C9_4 C 0.0353(4) 0.9554(3) 0.76311(17)
H4_4 H 0.0411 0.8782 0.7818
H6_4 H 0.1199 0.9767 0.7417
H9_4 H 0.8590 0.4323 0.0482
C2_4 C 0.7091(3) 0.2847(2) 0.60354(16)
C3_4 C 0.9585(3) 0.2939(3) 0.60759(16)
H1_4 H 0.9565 0.3268 0.5606
C5_4 C 0.8407(3) 0.2655(2) 0.64127(15)
C7_4 C 0.8426(3) 0.2181(2) 0.71035(15)
H3_4 H 0.7626 0.1989 0.7338
C8_4 C 0.9637(3) 0.1996(2) 0.74413(14)
C11_4 C 0.9473(3) 0.1844(2) 0.88242(15)
C12_4 C 0.9046(3) 0.2988(2) 0.90355(16)
C13_4 C 0.8264(5) 0.4719(3) 0.8768(2)
H7_2 H 0.7999 0.5273 0.8423
C14_4 C 0.8202(4) 0.4982(3) 0.94948(19)
H8_2 H 0.7887 0.5693 0.9656
C15_4 C 0.8616(4) 0.4168(3) 0.99762(18)
N1_4 N 0.9689(2) 0.14416(19) 0.81425(12)
N3_4 N 0.9685(2) 0.10526(19) 0.93003(12)
N4_4 N 0.8683(3) 0.3714(2) 0.85277(15)
N5_4 N 0.9056(2) 0.3159(2) 0.97546(13)
H7_3 H 0.2999 0.9727 0.3423
H8_3 H 0.2887 0.9307 0.4656
H5_3 H 0.0348 0.0403 0.2740
H7_4 H 0.7001 0.0273 0.6577
H8_4 H 0.7113 0.0693 0.5344
H5_4 H 0.9652 0.9597 0.7260
loop_
_geom_bond_atom_site_label_1
_geom_bond_atom_site_label_2
_geom_bond_site_symmetry_1
_geom_bond_site_symmetry_2
C1 C4 1_555 1_555
C2 C5 1_555 1_555
C3 H1 1_555 1_555
C4 C3 1_555 1_555
C5 C3 1_555 1_555
C6 C4 1_555 1_555
H2 C6 1_555 1_555
C7 C5 1_555 1_555
H3 C7 1_555 1_555
C8 C6 1_555 1_555
C9 H4 1_555 1_555
H5 C9 1_555 1_555
H6 C9 1_555 1_555
C10 C9 1_555 1_555
C11 C12 1_555 1_555
C12 N4 1_555 1_555
C14 C13 1_555 1_555
C15 C14 1_555 1_555
H9 C15 1_555 1_555
N1 C8 1_555 1_555
N2 C10 1_555 1_555
N3 C11 1_555 1_555
N4 C13 1_555 1_555
N5 C12 1_555 1_555
O1 C1 1_555 1_555
O2 C1 1_555 1_555
O3 C2 1_555 1_555
O4 C2 1_555 1_555
Cd1 N3 1_555 1_555
N6 Cd1 1_555 1_555
O5 Cd1 1_555 1_555
O6 Cd1 1_555 1_555
O7 Cd1 1_555 1_555
O8 Cd1 1_555 1_555
Cd2 N2 1_555 1_555
Cd4 O1 1_555 1_555
C7 C8 1_555 1_555
C10 N1 1_555 1_555
C11 N1 1_555 1_555
C15 N5 1_555 1_555
N2 N3 1_555 1_555
N5 Cd1 1_555 1_555
O2 Cd4 1_555 1_555
C2_2 C5_2 1_555 1_555
C3_2 H1_2 1_555 1_555
C5_2 C3_2 1_555 1_555
C7_2 C5_2 1_555 1_555
H3_2 C7_2 1_555 1_555
C11_2 C12_2 1_555 1_555
C12_2 N4_2 1_555 1_555
C13_2 H7 1_555 1_555
C14_2 C13_2 1_555 1_555
H8 C14_2 1_555 1_555
C15_2 C14_2 1_555 1_555
N1_2 C8_2 1_555 1_555
N3_2 C11_2 1_555 1_555
N4_2 C13_2 1_555 1_555
N5_2 C12_2 1_555 1_555
O3_2 C2_2 1_555 1_555
O4_2 C2_2 1_555 1_555
Cd2 O3_2 1_555 1_555
C7_2 C8_2 1_555 1_555
C11_2 N1_2 1_555 1_555
C15_2 N5_2 1_555 1_555
O4_2 Cd2 1_555 1_555
O5_2 Cd1_2 1_555 1_555
O6_2 Cd1_2 1_555 1_555
C9_2 H4_2 1_555 1_555
H6_2 C9_2 1_555 1_555
C1_2 C4_2 1_555 1_555
C6_2 C4_2 1_555 1_555
H2_2 C6_2 1_555 1_555
N2_2 C10_2 1_555 1_555
O1_2 C1_2 1_555 1_555
O2_2 C1_2 1_555 1_555
Cd2 O1_2 1_555 1_555
O2_2 Cd2 1_555 1_555
C1_3 C4_3 1_555 1_555
C2_3 C5_3 1_555 1_555
C3_3 H1_3 1_555 1_555
C4_3 C3_3 1_555 1_555
C5_3 C3_3 1_555 1_555
C6_3 C4_3 1_555 1_555
H2_3 C6_3 1_555 1_555
C7_3 C5_3 1_555 1_555
H3_3 C7_3 1_555 1_555
C8_3 C6_3 1_555 1_555
C9_3 H4_3 1_555 1_555
H5_2 C9_3 1_555 1_555
H6_3 C9_3 1_555 1_555
C10_3 C9_3 1_555 1_555
C11_3 C12_3 1_555 1_555
C12_3 N4_3 1_555 1_555
C14_3 C13_3 1_555 1_555
C15_3 C14_3 1_555 1_555
H9_3 C15_3 1_555 1_555
N1_3 C8_3 1_555 1_555
N6 C10_3 1_555 1_555
N3_3 C11_3 1_555 1_555
N4_3 C13_3 1_555 1_555
N5_3 C12_3 1_555 1_555
O5_2 C1_3 1_555 1_555
O6_2 C1_3 1_555 1_555
O7_2 C2_3 1_555 1_555
O8_2 C2_3 1_555 1_555
Cd2 N3_3 1_555 1_555
C7_3 C8_3 1_555 1_555
C10_3 N1_3 1_555 1_555
C11_3 N1_3 1_555 1_555
C15_3 N5_3 1_555 1_555
N6 N3_3 1_555 1_555
N5_3 Cd2 1_555 1_555
C1_4 C4_4 1_555 1_555
C6_4 C4_4 1_555 1_555
H2_4 C6_4 1_555 1_555
N6_2 C10_4 1_555 1_555
O5 C1_4 1_555 1_555
O6 C1_4 1_555 1_555
C9_4 H4_4 1_555 1_555
H6_4 C9_4 1_555 1_555
C2_4 C5_4 1_555 1_555
C3_4 H1_4 1_555 1_555
C5_4 C3_4 1_555 1_555
C7_4 C5_4 1_555 1_555
H3_4 C7_4 1_555 1_555
C11_4 C12_4 1_555 1_555
C12_4 N4_4 1_555 1_555
C13_4 H7_2 1_555 1_555
C14_4 C13_4 1_555 1_555
H8_2 C14_4 1_555 1_555
C15_4 C14_4 1_555 1_555
N1_4 C8_4 1_555 1_555
N3_4 C11_4 1_555 1_555
N4_4 C13_4 1_555 1_555
N5_4 C12_4 1_555 1_555
O7 C2_4 1_555 1_555
O8 C2_4 1_555 1_555
C7_4 C8_4 1_555 1_555
C11_4 N1_4 1_555 1_555
C15_4 N5_4 1_555 1_555

#END
