
###############################################################################
#
# This file contains modified crystal structure data generated from the
# MOF subset of the Cambridge Structural Database (CSD) v543 
# hosted by the Cambridge Crystallographic Data Centre (CCDC).
#
# This work is licensed under the Creative Commons
# Attribution-NonCommercial-ShareAlike 4.0 International License.
# To view a copy of this license, visit
# http://creativecommons.org/licenses/by-nc-sa/4.0/
# or send a letter to
# Creative Commons, PO Box 1866, Mountain View, CA 94042, USA.
#
# CIF created using the CSD Python API on 29 September 2022
# The structure has been converted into the P1 space group
# The structure has a 3D framework
# The original CSD entry TUMGIS is in the monoclinic crystal system
# The framework has been calculated to contain at least 10.0% void space
# The void calculation uses a probe of radius 1.32A, grid spacing 0.4
# H atom positions have been added when not included in the experimental data
# Generated hydrogen atom positions removed from atoms on special positions
#
###############################################################################

data_TUMGIS
_chemical_formula_moiety         '(C288 H176 Cu14 Lu8 N48 O108)n'
_symmetry_cell_setting           triclinic
_symmetry_space_group_name_H-M   'P 1'
_symmetry_Int_Tables_number      1
_space_group_name_Hall           'P 1'
loop_
_symmetry_equiv_pos_site_id
_symmetry_equiv_pos_as_xyz
1 x,y,z
_cell_length_a                   24.830(8)
_cell_length_b                   12.258(3)
_cell_length_c                   26.898(8)
_cell_angle_alpha                90
_cell_angle_beta                 109.41(3)
_cell_angle_gamma                90
_cell_volume                     7721.54
loop_
_atom_site_label
_atom_site_type_symbol
_atom_site_fract_x
_atom_site_fract_y
_atom_site_fract_z
C28 C 0.2859(3) 0.0258(4) 0.0787(2)
H14 H 0.2768 0.0991 0.0800
C36 C 0.3416(3) 0.0742(4) 0.0187(2)
O3 O 0.31983(17) 0.1674(3) 0.01040(14)
O4 O 0.37811(18) 0.0442(3) 0.99860(15)
Lu3 Lu 0.372992(10) 0.216990(17) 0.954530(8)
Cu1 Cu 0.74694(3) 0.21319(5) 0.13417(2)
C1 C 0.6352(3) 0.3067(4) 0.13175(18)
C2 C 0.5798(2) 0.3329(4) 0.12068(18)
H1 H 0.5687 0.3849 0.1406
C3 C 0.5389(3) 0.2798(4) 0.0783(2)
C4 C 0.5589(3) 0.2037(5) 0.0508(2)
H2 H 0.5333 0.1672 0.0224
C5 C 0.6150(2) 0.1818(4) 0.06470(19)
H3 H 0.6271 0.1279 0.0465
C6 C 0.6813(2) 0.3510(4) 0.17955(19)
C7 C 0.6712(2) 0.4286(4) 0.2124(2)
H4 H 0.6353 0.4606 0.2044
C8 C 0.7146(2) 0.4578(4) 0.2570(2)
C9 C 0.7665(3) 0.4061(4) 0.2693(2)
H5 H 0.7950 0.4205 0.3011
C10 C 0.7761(3) 0.3333(4) 0.2346(2)
H6 H 0.8118 0.3009 0.2419
C11 C 0.7079(3) 0.5505(4) 0.29211(19)
C12 C 0.4755(2) 0.3010(4) 0.0655(2)
C20 C 0.3084(2) 0.6885(4) 0.06324(19)
C21 C 0.3382(3) 0.6409(4) 0.0336(2)
H10 H 0.3610 0.6827 0.0196
C22 C 0.3330(2) 0.5266(4) 0.0251(2)
C23 C 0.2999(3) 0.4686(5) 0.0467(2)
H11 H 0.2953 0.3938 0.0409
C24 C 0.2727(3) 0.5217(4) 0.07773(19)
H12 H 0.2509 0.4812 0.0933
C25 C 0.3068(2) 0.8082(5) 0.0709(2)
C26 C 0.3331(3) 0.8842(4) 0.0476(2)
H13 H 0.3585 0.8616 0.0309
C27 C 0.3206(2) 0.9924(4) 0.04990(19)
C29 C 0.2654(3) 0.9484(4) 0.1052(2)
H15 H 0.2442 0.9704 0.1261
N1 N 0.6538(2) 0.2340(4) 0.10329(17)
N2 N 0.7334(2) 0.3088(4) 0.18966(16)
N5 N 0.2773(2) 0.6305(3) 0.08571(17)
N6 N 0.2758(2) 0.8401(3) 0.10106(16)
O5 O 0.44374(19) 0.2543(4) 0.02423(16)
O6 O 0.45905(18) 0.3593(4) 0.09541(15)
O11 O 0.6608(2) 0.5903(4) 0.28498(17)
O12 O 0.75554(18) 0.5851(3) 0.32418(14)
Cu4 Cu 0.24694(3) 0.71319(5) 0.13417(2)
Cu5 Cu 0.75306(3) 0.71319(5) 0.36583(2)
N12 N 0.7773(2) 0.1305(3) 0.08571(17)
N15 N 0.7758(2) 0.3401(3) 0.10106(16)
O32 O 0.74446(18) 0.0851(3) 0.17582(14)
H8 H 0.5242 0.0112 0.9082
C19 C 0.4163(2) 0.0703(5) 0.8995(2)
C35 C 0.3627(3) 0.4699(5) 0.9904(2)
O1 O 0.45127(17) 0.1218(3) 0.93799(14)
O2 O 0.36561(19) 0.0823(3) 0.88869(15)
O8 O 0.3984(2) 0.3261(4) 0.8958(2)
O9 O 0.3445(2) 0.3802(3) 0.97441(16)
O10 O 0.4020(2) 0.5229(4) 0.9817(2)
Lu2 Lu 0.627008(10) 0.216990(17) 0.545470(8)
Cu3 Cu 0.25306(3) 0.21319(5) 0.36583(2)
C37 C 0.3648(3) 0.3067(4) 0.36825(18)
C38 C 0.4202(2) 0.3329(4) 0.37932(18)
H19 H 0.4313 0.3849 0.3594
C39 C 0.4611(3) 0.2798(4) 0.4217(2)
C40 C 0.4411(3) 0.2037(5) 0.4492(2)
H20 H 0.4667 0.1672 0.4776
C41 C 0.3850(2) 0.1818(4) 0.43530(19)
H21 H 0.3729 0.1279 0.4535
C42 C 0.3187(2) 0.3510(4) 0.32045(19)
C43 C 0.3288(2) 0.4286(4) 0.2876(2)
H22 H 0.3647 0.4606 0.2956
C44 C 0.2854(2) 0.4578(4) 0.2430(2)
C45 C 0.2335(3) 0.4061(4) 0.2307(2)
H23 H 0.2050 0.4205 0.1989
C46 C 0.2239(3) 0.3333(4) 0.2654(2)
H24 H 0.1882 0.3009 0.2581
C47 C 0.2921(3) 0.5505(4) 0.20789(19)
C48 C 0.5245(2) 0.3010(4) 0.4345(2)
H26 H 0.4758 0.0112 0.5918
C55 C 0.5837(2) 0.0703(5) 0.6005(2)
N7 N 0.3462(2) 0.2340(4) 0.39671(17)
N8 N 0.2666(2) 0.3088(4) 0.31034(16)
N13 N 0.2227(2) 0.1305(3) 0.41429(17)
N16 N 0.2242(2) 0.3401(3) 0.39894(16)
O15 O 0.54873(17) 0.1218(3) 0.56201(14)
O16 O 0.63439(19) 0.0823(3) 0.61131(15)
O18 O 0.68017(17) 0.1674(3) 0.48960(14)
O20 O 0.62189(18) 0.0442(3) 0.50140(15)
O21 O 0.55626(19) 0.2543(4) 0.47577(16)
O22 O 0.54095(18) 0.3593(4) 0.40459(15)
O24 O 0.28601(19) 0.2380(3) 0.89189(14)
O25 O 0.71399(19) 0.2380(3) 0.60811(14)
O26 O 0.6016(2) 0.3261(4) 0.6042(2)
O28 O 0.6555(2) 0.3802(3) 0.52559(16)
O30 O 0.3392(2) 0.5903(4) 0.21502(17)
O31 O 0.24446(18) 0.5851(3) 0.17582(14)
O33 O 0.25554(18) 0.0851(3) 0.32418(14)
H37 H 0.606392 0.284589 0.637096
H38 H 0.626396 0.391795 0.612507
H41 H 0.393608 0.284589 0.862904
H42 H 0.373604 0.391795 0.887493
Cu2 Cu 0.5000 0.75978(8) 0.7500
C13 C 0.4248(2) 0.8772(4) 0.7928(2)
C14 C 0.4030(3) 0.9410(4) 0.8240(2)
H7 H 0.3637 0.9478 0.8160
C15 C 0.4397(2) 0.9947(4) 0.86707(19)
C16 C 0.4979(3) 0.9778(5) 0.8791(2)
C17 C 0.5153(3) 0.9103(5) 0.8468(2)
H9 H 0.5543 0.8976 0.8551
C18 C 0.3868(2) 0.8228(4) 0.7442(2)
C30 C 0.3279(3) 0.8328(4) 0.7227(2)
H16 H 0.3081 0.8740 0.7399
C31 C 0.2991(2) 0.7815(4) 0.6759(2)
C32 C 0.3306(3) 0.7217(5) 0.6514(2)
H17 H 0.3122 0.6855 0.6200
C33 C 0.3880(3) 0.7159(5) 0.6731(2)
H18 H 0.4086 0.6768 0.6558
C34 C 0.2362(3) 0.7914(4) 0.6503(2)
N3 N 0.4801(2) 0.8623(4) 0.80469(17)
N4 N 0.4157(2) 0.7649(4) 0.71850(17)
O7 O 0.21399(19) 0.7380(3) 0.60811(14)
O13 O 0.5000 0.5961(8) 0.7500
O14 O 0.2096(2) 0.8547(4) 0.67113(16)
Lu4 Lu 0.127008(10) 0.716990(17) 0.545470(8)
Lu5 Lu 0.872992(10) 0.716990(17) 0.954530(8)
C49 C 0.5752(2) 0.8772(4) 0.7072(2)
C50 C 0.5970(3) 0.9410(4) 0.6760(2)
H25 H 0.6363 0.9478 0.6840
C51 C 0.5603(2) 0.9947(4) 0.63293(19)
C52 C 0.5021(3) 0.9778(5) 0.6209(2)
C53 C 0.4847(3) 0.9103(5) 0.6532(2)
H27 H 0.4457 0.8976 0.6449
C54 C 0.6132(2) 0.8228(4) 0.7558(2)
C66 C 0.6721(3) 0.8328(4) 0.7773(2)
H34 H 0.6919 0.8740 0.7601
C67 C 0.7009(2) 0.7815(4) 0.8241(2)
C68 C 0.6694(3) 0.7217(5) 0.8486(2)
H35 H 0.6878 0.6855 0.8800
C69 C 0.6120(3) 0.7159(5) 0.8269(2)
H36 H 0.5914 0.6768 0.8442
C70 C 0.7638(3) 0.7914(4) 0.8497(2)
N9 N 0.5199(2) 0.8623(4) 0.69531(17)
N10 N 0.5843(2) 0.7649(4) 0.78150(17)
O23 O 0.78601(19) 0.7380(3) 0.89189(14)
O34 O 0.7904(2) 0.8547(4) 0.82887(16)
C28_2 C 0.7141(3) 0.0258(4) 0.4213(2)
H14_2 H 0.7232 0.0991 0.4200
C36_2 C 0.6584(3) 0.0742(4) 0.4813(2)
C20_2 C 0.6916(2) 0.6885(4) 0.43676(19)
C21_2 C 0.6618(3) 0.6409(4) 0.4664(2)
H10_2 H 0.6390 0.6827 0.4804
C22_2 C 0.6670(2) 0.5266(4) 0.4749(2)
C23_2 C 0.7001(3) 0.4686(5) 0.4533(2)
H11_2 H 0.7047 0.3938 0.4591
C24_2 C 0.7273(3) 0.5217(4) 0.42227(19)
H12_2 H 0.7491 0.4812 0.4067
C25_2 C 0.6932(2) 0.8082(5) 0.4291(2)
C26_2 C 0.6669(3) 0.8842(4) 0.4524(2)
H13_2 H 0.6415 0.8616 0.4691
C27_2 C 0.6794(2) 0.9924(4) 0.45010(19)
C29_2 C 0.7346(3) 0.9484(4) 0.3948(2)
H15_2 H 0.7558 0.9704 0.3739
C35_2 C 0.6373(3) 0.4699(5) 0.5096(2)
N5_2 N 0.7227(2) 0.6305(3) 0.41429(17)
N6_2 N 0.7242(2) 0.8401(3) 0.39894(16)
O10_2 O 0.5980(2) 0.5229(4) 0.5183(2)
C11_2 C 0.2079(3) 0.0505(4) 0.29211(19)
O11_2 O 0.1608(2) 0.0903(4) 0.28498(17)
C1_2 C 0.1352(3) 0.8067(4) 0.13175(18)
C2_2 C 0.0798(2) 0.8329(4) 0.12068(18)
H1_2 H 0.0687 0.8849 0.1406
C3_2 C 0.0389(3) 0.7798(4) 0.0783(2)
C4_2 C 0.0589(3) 0.7037(5) 0.0508(2)
H2_2 H 0.0333 0.6672 0.0224
C5_2 C 0.1150(2) 0.6818(4) 0.06470(19)
H3_2 H 0.1271 0.6279 0.0465
C6_2 C 0.1813(2) 0.8510(4) 0.17955(19)
C7_2 C 0.1712(2) 0.9286(4) 0.2124(2)
H4_2 H 0.1353 0.9606 0.2044
C8_2 C 0.2146(2) 0.9578(4) 0.2570(2)
C9_2 C 0.2665(3) 0.9061(4) 0.2693(2)
H5_2 H 0.2950 0.9205 0.3011
C10_2 C 0.2761(3) 0.8333(4) 0.2346(2)
H6_2 H 0.3118 0.8009 0.2419
N1_2 N 0.1538(2) 0.7340(4) 0.10329(17)
N2_2 N 0.2334(2) 0.8088(4) 0.18966(16)
Cu2_2 Cu -0.0000 0.25978(8) 0.7500
H8_2 H 0.0242 0.5112 0.9082
C17_2 C 0.0153(3) 0.4103(5) 0.8468(2)
H9_2 H 0.0543 0.3976 0.8551
O13_2 O -0.0000 0.0961(8) 0.7500
C48_2 C 0.0245(2) 0.8010(4) 0.4345(2)
C49_2 C 0.0752(2) 0.3772(4) 0.7072(2)
C50_2 C 0.0970(3) 0.4410(4) 0.6760(2)
H25_2 H 0.1363 0.4478 0.6840
C51_2 C 0.0603(2) 0.4947(4) 0.63293(19)
C52_2 C 0.0021(3) 0.4778(5) 0.6209(2)
C54_2 C 0.1132(2) 0.3228(4) 0.7558(2)
C55_2 C 0.0837(2) 0.5703(5) 0.6005(2)
C66_2 C 0.1721(3) 0.3328(4) 0.7773(2)
H34_2 H 0.1919 0.3740 0.7601
C67_2 C 0.2009(2) 0.2815(4) 0.8241(2)
C68_2 C 0.1694(3) 0.2217(5) 0.8486(2)
H35_2 H 0.1878 0.1855 0.8800
C69_2 C 0.1120(3) 0.2159(5) 0.8269(2)
H36_2 H 0.0914 0.1768 0.8442
C70_2 C 0.2638(3) 0.2914(4) 0.8497(2)
N9_2 N 0.0199(2) 0.3623(4) 0.69531(17)
N10_2 N 0.0843(2) 0.2649(4) 0.78150(17)
O15_2 O 0.04873(17) 0.6218(3) 0.56201(14)
O16_2 O 0.13439(19) 0.5823(3) 0.61131(15)
O18_2 O 0.18017(17) 0.6674(3) 0.48960(14)
O20_2 O 0.12189(18) 0.5442(3) 0.50140(15)
O21_2 O 0.05626(19) 0.7543(4) 0.47577(16)
O22_2 O 0.04095(18) 0.8593(4) 0.40459(15)
O26_2 O 0.1016(2) 0.8261(4) 0.6042(2)
O28_2 O 0.1555(2) 0.8802(3) 0.52559(16)
O34_2 O 0.2904(2) 0.3547(4) 0.82887(16)
H37_2 H 0.106392 0.784589 0.637096
H38_2 H 0.126396 0.891795 0.612507
H40 H 0.0109568 0.0690972 0.719888
C20_3 C 0.8084(2) 0.1885(4) 0.06324(19)
C21_3 C 0.8382(3) 0.1409(4) 0.0336(2)
H10_3 H 0.8610 0.1827 0.0196
C22_3 C 0.8330(2) 0.0266(4) 0.0251(2)
C24_3 C 0.7727(3) 0.0217(4) 0.07773(19)
C25_3 C 0.8068(2) 0.3082(5) 0.0709(2)
C26_3 C 0.8331(3) 0.3842(4) 0.0476(2)
H13_3 H 0.8585 0.3616 0.0309
C27_3 C 0.8206(2) 0.4924(4) 0.04990(19)
C28_3 C 0.7859(3) 0.5258(4) 0.0787(2)
H14_3 H 0.7768 0.5991 0.0800
C29_3 C 0.7654(3) 0.4484(4) 0.1052(2)
H15_3 H 0.7442 0.4704 0.1261
C36_3 C 0.8416(3) 0.5742(4) 0.0187(2)
O3_2 O 0.81983(17) 0.6674(3) 0.01040(14)
O4_2 O 0.87811(18) 0.5442(3) 0.99860(15)
O10_3 O 0.9020(2) 0.0229(4) 0.9817(2)
C47_2 C 0.7921(3) 0.0505(4) 0.20789(19)
O30_2 O 0.8392(2) 0.0903(4) 0.21502(17)
C12_2 C 0.9755(2) 0.8010(4) 0.0655(2)
C23_3 C 0.7999(3) 0.9686(5) 0.0467(2)
H11_3 H 0.7953 0.8938 0.0409
H12_3 H 0.7509 0.9812 0.0933
O5_2 O 0.94374(19) 0.7543(4) 0.02423(16)
O6_2 O 0.95905(18) 0.8593(4) 0.09541(15)
Cu2_3 Cu 1.0000 0.25978(8) 0.7500
C13_2 C 0.9248(2) 0.3772(4) 0.7928(2)
C14_2 C 0.9030(3) 0.4410(4) 0.8240(2)
H7_2 H 0.8637 0.4478 0.8160
C15_2 C 0.9397(2) 0.4947(4) 0.86707(19)
C16_2 C 0.9979(3) 0.4778(5) 0.8791(2)
C18_2 C 0.8868(2) 0.3228(4) 0.7442(2)
C19_2 C 0.9163(2) 0.5703(5) 0.8995(2)
C30_2 C 0.8279(3) 0.3328(4) 0.7227(2)
H16_2 H 0.8081 0.3740 0.7399
C31_2 C 0.7991(2) 0.2815(4) 0.6759(2)
C32_2 C 0.8306(3) 0.2217(5) 0.6514(2)
H17_2 H 0.8122 0.1855 0.6200
C33_2 C 0.8880(3) 0.2159(5) 0.6731(2)
H18_2 H 0.9086 0.1768 0.6558
C34_2 C 0.7362(3) 0.2914(4) 0.6503(2)
C35_3 C 0.8627(3) 0.9699(5) 0.9904(2)
N3_2 N 0.9801(2) 0.3623(4) 0.80469(17)
N4_2 N 0.9157(2) 0.2649(4) 0.71850(17)
O1_2 O 0.95127(17) 0.6218(3) 0.93799(14)
O2_2 O 0.86561(19) 0.5823(3) 0.88869(15)
O8_2 O 0.8984(2) 0.8261(4) 0.8958(2)
O9_2 O 0.8445(2) 0.8802(3) 0.97441(16)
O13_3 O 1.0000 0.0961(8) 0.7500
O14_2 O 0.7096(2) 0.3547(4) 0.67113(16)
C37_2 C 0.8648(3) 0.8067(4) 0.36825(18)
C38_2 C 0.9202(2) 0.8329(4) 0.37932(18)
H19_2 H 0.9313 0.8849 0.3594
C39_2 C 0.9611(3) 0.7798(4) 0.4217(2)
C40_2 C 0.9411(3) 0.7037(5) 0.4492(2)
H20_2 H 0.9667 0.6672 0.4776
C41_2 C 0.8850(2) 0.6818(4) 0.43530(19)
H21_2 H 0.8729 0.6279 0.4535
C42_2 C 0.8187(2) 0.8510(4) 0.32045(19)
C43_2 C 0.8288(2) 0.9286(4) 0.2876(2)
H22_2 H 0.8647 0.9606 0.2956
C44_2 C 0.7854(2) 0.9578(4) 0.2430(2)
C45_2 C 0.7335(3) 0.9061(4) 0.2307(2)
H23_2 H 0.7050 0.9205 0.1989
C46_2 C 0.7239(3) 0.8333(4) 0.2654(2)
H24_2 H 0.6882 0.8009 0.2581
H26_2 H 0.9758 0.5112 0.5918
C53_2 C 0.9847(3) 0.4103(5) 0.6532(2)
H27_2 H 0.9457 0.3976 0.6449
N7_2 N 0.8462(2) 0.7340(4) 0.39671(17)
N8_2 N 0.7666(2) 0.8088(4) 0.31034(16)
H39 H 0.961226 0.0690972 0.74658
H41_2 H 0.893608 0.784589 0.862904
H42_2 H 0.873604 0.891795 0.887493
C20_4 C 0.1916(2) 0.1885(4) 0.43676(19)
C21_4 C 0.1618(3) 0.1409(4) 0.4664(2)
H10_4 H 0.1390 0.1827 0.4804
C22_4 C 0.1670(2) 0.0266(4) 0.4749(2)
C24_4 C 0.2273(3) 0.0217(4) 0.42227(19)
C25_4 C 0.1932(2) 0.3082(5) 0.4291(2)
C26_4 C 0.1669(3) 0.3842(4) 0.4524(2)
H13_4 H 0.1415 0.3616 0.4691
C27_4 C 0.1794(2) 0.4924(4) 0.45010(19)
C28_4 C 0.2141(3) 0.5258(4) 0.4213(2)
H14_4 H 0.2232 0.5991 0.4200
C29_4 C 0.2346(3) 0.4484(4) 0.3948(2)
H15_4 H 0.2558 0.4704 0.3739
C36_4 C 0.1584(3) 0.5742(4) 0.4813(2)
O10_4 O 0.0980(2) 0.0229(4) 0.5183(2)
C23_4 C 0.2001(3) 0.9686(5) 0.4533(2)
H11_4 H 0.2047 0.8938 0.4591
H12_4 H 0.2491 0.9812 0.4067
C35_4 C 0.1373(3) 0.9699(5) 0.5096(2)
H39_2 H 0.0387736 0.0690972 0.75342
H40_2 H 0.989043 0.0690972 0.780112
Cu2_4 Cu 0.5000 0.24022(8) 0.2500
C13_3 C 0.5752(2) 0.1228(4) 0.2072(2)
C14_3 C 0.5970(3) 0.0590(4) 0.1760(2)
H7_3 H 0.6363 0.0522 0.1840
C15_3 C 0.5603(2) 0.0053(4) 0.13293(19)
C16_3 C 0.5021(3) 0.0222(5) 0.1209(2)
C17_3 C 0.4847(3) 0.0897(5) 0.1532(2)
H9_3 H 0.4457 0.1024 0.1449
C18_3 C 0.6132(2) 0.1772(4) 0.2558(2)
C30_3 C 0.6721(3) 0.1672(4) 0.2773(2)
H16_3 H 0.6919 0.1260 0.2601
C31_3 C 0.7009(2) 0.2185(4) 0.3241(2)
C32_3 C 0.6694(3) 0.2783(5) 0.3486(2)
H17_3 H 0.6878 0.3145 0.3800
C33_3 C 0.6120(3) 0.2841(5) 0.3269(2)
H18_3 H 0.5914 0.3232 0.3442
C34_3 C 0.7638(3) 0.2086(4) 0.3497(2)
N3_3 N 0.5199(2) 0.1377(4) 0.19531(17)
N4_3 N 0.5843(2) 0.2351(4) 0.28150(17)
O7_2 O 0.78601(19) 0.2620(3) 0.39189(14)
O13_4 O 0.5000 0.4039(8) 0.2500
O14_3 O 0.7904(2) 0.1453(4) 0.32887(16)
Lu4_2 Lu 0.872992(10) 0.283010(17) 0.454530(8)
Lu5_2 Lu 0.127008(10) 0.283010(17) 0.045470(8)
Lu6 Lu 0.627008(10) 0.783010(17) 0.045470(8)
C49_3 C 0.4248(2) 0.1228(4) 0.2928(2)
C50_3 C 0.4030(3) 0.0590(4) 0.3240(2)
H25_3 H 0.3637 0.0522 0.3160
C51_3 C 0.4397(2) 0.0053(4) 0.36707(19)
C52_3 C 0.4979(3) 0.0222(5) 0.3791(2)
C53_3 C 0.5153(3) 0.0897(5) 0.3468(2)
H27_3 H 0.5543 0.1024 0.3551
C54_3 C 0.3868(2) 0.1772(4) 0.2442(2)
C66_3 C 0.3279(3) 0.1672(4) 0.2227(2)
H34_3 H 0.3081 0.1260 0.2399
C67_3 C 0.2991(2) 0.2185(4) 0.1759(2)
C68_3 C 0.3306(3) 0.2783(5) 0.1514(2)
H35_3 H 0.3122 0.3145 0.1200
C69_3 C 0.3880(3) 0.2841(5) 0.1731(2)
H36_3 H 0.4086 0.3232 0.1558
C70_3 C 0.2362(3) 0.2086(4) 0.1503(2)
C71 C 0.6373(3) 0.5301(5) 0.0096(2)
N9_3 N 0.4801(2) 0.1377(4) 0.30469(17)
N10_3 N 0.4157(2) 0.2351(4) 0.21850(17)
O23_2 O 0.21399(19) 0.2620(3) 0.10811(14)
O27 O 0.6555(2) 0.6198(3) 0.02559(16)
O29 O 0.5980(2) 0.4771(4) 0.0183(2)
O34_3 O 0.2096(2) 0.1453(4) 0.17113(16)
Cu6 Cu 0.75306(3) 0.28681(5) 0.86583(2)
C56 C 0.6916(2) 0.3115(4) 0.93676(19)
C57 C 0.6618(3) 0.3591(4) 0.9664(2)
H28 H 0.6390 0.3173 0.9804
C58 C 0.6670(2) 0.4734(4) 0.9749(2)
C59 C 0.7001(3) 0.5314(5) 0.9533(2)
H29 H 0.7047 0.6062 0.9591
C60 C 0.7273(3) 0.4783(4) 0.92227(19)
H30 H 0.7491 0.5188 0.9067
C61 C 0.6932(2) 0.1918(5) 0.9291(2)
C62 C 0.6669(3) 0.1158(4) 0.9524(2)
H31 H 0.6415 0.1384 0.9691
C63 C 0.6794(2) 0.0076(4) 0.95010(19)
C65 C 0.7346(3) 0.0516(4) 0.8948(2)
H33 H 0.7558 0.0296 0.8739
N11 N 0.7227(2) 0.3695(3) 0.91429(17)
N14 N 0.7242(2) 0.1599(3) 0.89894(16)
H8_3 H 0.4758 0.9888 0.0918
C19_3 C 0.5837(2) 0.9297(5) 0.1005(2)
O1_3 O 0.54873(17) 0.8782(3) 0.06201(14)
O2_3 O 0.63439(19) 0.9177(3) 0.11131(15)
O8_3 O 0.6016(2) 0.6739(4) 0.1042(2)
Lu2_2 Lu 0.372992(10) 0.783010(17) 0.454530(8)
Cu3_2 Cu 0.74694(3) 0.78681(5) 0.63417(2)
C37_3 C 0.6352(3) 0.6933(4) 0.63175(18)
C38_3 C 0.5798(2) 0.6671(4) 0.62068(18)
H19_3 H 0.5687 0.6151 0.6406
C39_3 C 0.5389(3) 0.7202(4) 0.5783(2)
C40_3 C 0.5589(3) 0.7963(5) 0.5508(2)
H20_3 H 0.5333 0.8328 0.5224
C41_3 C 0.6150(2) 0.8182(4) 0.56470(19)
H21_3 H 0.6271 0.8721 0.5465
C42_3 C 0.6813(2) 0.6490(4) 0.67955(19)
C43_3 C 0.6712(2) 0.5714(4) 0.7124(2)
H22_3 H 0.6353 0.5394 0.7044
C44_3 C 0.7146(2) 0.5422(4) 0.7570(2)
C45_3 C 0.7665(3) 0.5939(4) 0.7693(2)
H23_3 H 0.7950 0.5795 0.8011
C46_3 C 0.7761(3) 0.6667(4) 0.7346(2)
H24_3 H 0.8118 0.6991 0.7419
C47_3 C 0.7079(3) 0.4495(4) 0.79211(19)
C48_3 C 0.4755(2) 0.6990(4) 0.5655(2)
H26_3 H 0.5242 0.9888 0.4082
C55_3 C 0.4163(2) 0.9297(5) 0.3995(2)
N7_3 N 0.6538(2) 0.7660(4) 0.60329(17)
N8_3 N 0.7334(2) 0.6912(4) 0.68966(16)
N13_2 N 0.7773(2) 0.8695(3) 0.58571(17)
N16_2 N 0.7758(2) 0.6599(3) 0.60106(16)
O15_3 O 0.45127(17) 0.8782(3) 0.43799(14)
O16_3 O 0.36561(19) 0.9177(3) 0.38869(15)
O18_3 O 0.31983(17) 0.8326(3) 0.51040(14)
O19 O 0.62189(18) 0.9558(3) 0.00140(15)
O20_3 O 0.37811(18) 0.9558(3) 0.49860(15)
O21_3 O 0.44374(19) 0.7457(4) 0.52423(16)
O22_3 O 0.45905(18) 0.6407(4) 0.59541(15)
O24_2 O 0.71399(19) 0.7620(3) 0.10811(14)
O25_2 O 0.28601(19) 0.7620(3) 0.39189(14)
O26_3 O 0.3984(2) 0.6739(4) 0.3958(2)
O28_3 O 0.3445(2) 0.6198(3) 0.47441(16)
O30_3 O 0.6608(2) 0.4097(4) 0.78498(17)
O31_2 O 0.75554(18) 0.4149(3) 0.82418(14)
O33_2 O 0.74446(18) 0.9149(3) 0.67582(14)
H37_3 H 0.393608 0.715411 0.362904
H38_3 H 0.373604 0.608205 0.387493
H41_3 H 0.606392 0.715411 0.137096
H42_3 H 0.626396 0.608205 0.112507
Cu1_2 Cu 0.25306(3) 0.78681(5) 0.86583(2)
C1_3 C 0.3648(3) 0.6933(4) 0.86825(18)
C2_3 C 0.4202(2) 0.6671(4) 0.87932(18)
H1_3 H 0.4313 0.6151 0.8594
C3_3 C 0.4611(3) 0.7202(4) 0.9217(2)
C4_3 C 0.4411(3) 0.7963(5) 0.9492(2)
H2_3 H 0.4667 0.8328 0.9776
C5_3 C 0.3850(2) 0.8182(4) 0.93530(19)
H3_3 H 0.3729 0.8721 0.9535
C6_3 C 0.3187(2) 0.6490(4) 0.82045(19)
C7_3 C 0.3288(2) 0.5714(4) 0.7876(2)
H4_3 H 0.3647 0.5394 0.7956
C8_3 C 0.2854(2) 0.5422(4) 0.7430(2)
C9_3 C 0.2335(3) 0.5939(4) 0.7307(2)
H5_3 H 0.2050 0.5795 0.6989
C10_3 C 0.2239(3) 0.6667(4) 0.7654(2)
H6_3 H 0.1882 0.6991 0.7581
C11_3 C 0.2921(3) 0.4495(4) 0.70789(19)
C12_3 C 0.5245(2) 0.6990(4) 0.9345(2)
N1_3 N 0.3462(2) 0.7660(4) 0.89671(17)
N2_3 N 0.2666(2) 0.6912(4) 0.81034(16)
O5_3 O 0.55626(19) 0.7457(4) 0.97577(16)
O6_3 O 0.54095(18) 0.6407(4) 0.90459(15)
O11_3 O 0.3392(2) 0.4097(4) 0.71502(17)
O12_2 O 0.24446(18) 0.4149(3) 0.67582(14)
Cu5_2 Cu 0.24694(3) 0.28681(5) 0.63417(2)
C64 C 0.7141(3) 0.9742(4) 0.9213(2)
H32 H 0.7232 0.9009 0.9200
C72 C 0.6584(3) 0.9258(4) 0.9813(2)
N12_2 N 0.2227(2) 0.8695(3) 0.91429(17)
N15_2 N 0.2242(2) 0.6599(3) 0.89894(16)
O17 O 0.68017(17) 0.8326(3) 0.98960(14)
O32_2 O 0.25554(18) 0.9149(3) 0.82418(14)
C56_2 C 0.3084(2) 0.3115(4) 0.56324(19)
C57_2 C 0.3382(3) 0.3591(4) 0.5336(2)
H28_2 H 0.3610 0.3173 0.5196
C58_2 C 0.3330(2) 0.4734(4) 0.5251(2)
C59_2 C 0.2999(3) 0.5314(5) 0.5467(2)
H29_2 H 0.2953 0.6062 0.5409
C60_2 C 0.2727(3) 0.4783(4) 0.57773(19)
H30_2 H 0.2509 0.5188 0.5933
C61_2 C 0.3068(2) 0.1918(5) 0.5709(2)
C62_2 C 0.3331(3) 0.1158(4) 0.5476(2)
H31_2 H 0.3585 0.1384 0.5309
C63_2 C 0.3206(2) 0.0076(4) 0.54990(19)
C65_2 C 0.2654(3) 0.0516(4) 0.6052(2)
H33_2 H 0.2442 0.0296 0.6261
C71_2 C 0.3627(3) 0.5301(5) 0.4904(2)
N11_2 N 0.2773(2) 0.3695(3) 0.58571(17)
N14_2 N 0.2758(2) 0.1599(3) 0.60106(16)
O29_2 O 0.4020(2) 0.4771(4) 0.4817(2)
C64_2 C 0.2859(3) 0.9742(4) 0.5787(2)
H32_2 H 0.2768 0.9009 0.5800
C72_2 C 0.3416(3) 0.9258(4) 0.5187(2)
C71_3 C 0.1373(3) 0.0301(5) 0.0096(2)
O27_2 O 0.1555(2) 0.1198(3) 0.02559(16)
C59_3 C 0.2001(3) 0.0314(5) 0.9533(2)
H29_3 H 0.2047 0.1062 0.9591
H30_3 H 0.2491 0.0188 0.9067
Cu2_5 Cu -0.0000 0.74022(8) 0.2500
C13_4 C 0.0752(2) 0.6228(4) 0.2072(2)
C14_4 C 0.0970(3) 0.5590(4) 0.1760(2)
H7_4 H 0.1363 0.5522 0.1840
C15_4 C 0.0603(2) 0.5053(4) 0.13293(19)
C16_4 C 0.0021(3) 0.5222(5) 0.1209(2)
C18_4 C 0.1132(2) 0.6772(4) 0.2558(2)
C19_4 C 0.0837(2) 0.4297(5) 0.1005(2)
C30_4 C 0.1721(3) 0.6672(4) 0.2773(2)
H16_4 H 0.1919 0.6260 0.2601
C31_4 C 0.2009(2) 0.7185(4) 0.3241(2)
C32_4 C 0.1694(3) 0.7783(5) 0.3486(2)
H17_4 H 0.1878 0.8145 0.3800
C33_4 C 0.1120(3) 0.7841(5) 0.3269(2)
H18_4 H 0.0914 0.8232 0.3442
C34_4 C 0.2638(3) 0.7086(4) 0.3497(2)
N3_4 N 0.0199(2) 0.6377(4) 0.19531(17)
N4_4 N 0.0843(2) 0.7351(4) 0.28150(17)
O1_4 O 0.04873(17) 0.3782(3) 0.06201(14)
O2_4 O 0.13439(19) 0.4177(3) 0.11131(15)
O8_4 O 0.1016(2) 0.1739(4) 0.1042(2)
O13_5 O 0.0000 0.9039(8) 0.2500
O14_4 O 0.2904(2) 0.6453(4) 0.32887(16)
C37_4 C 0.1352(3) 0.1933(4) 0.63175(18)
C38_4 C 0.0798(2) 0.1671(4) 0.62068(18)
H19_4 H 0.0687 0.1151 0.6406
C39_4 C 0.0389(3) 0.2202(4) 0.5783(2)
C40_4 C 0.0589(3) 0.2963(5) 0.5508(2)
H20_4 H 0.0333 0.3328 0.5224
C41_4 C 0.1150(2) 0.3182(4) 0.56470(19)
H21_4 H 0.1271 0.3721 0.5465
C42_4 C 0.1813(2) 0.1490(4) 0.67955(19)
C43_4 C 0.1712(2) 0.0714(4) 0.7124(2)
H22_4 H 0.1353 0.0394 0.7044
C44_4 C 0.2146(2) 0.0422(4) 0.7570(2)
C45_4 C 0.2665(3) 0.0939(4) 0.7693(2)
H23_4 H 0.2950 0.0795 0.8011
C46_4 C 0.2761(3) 0.1667(4) 0.7346(2)
H24_4 H 0.3118 0.1991 0.7419
H26_4 H 0.0242 0.4888 0.4082
C53_4 C 0.0153(3) 0.5897(5) 0.3468(2)
H27_4 H 0.0543 0.6024 0.3551
N7_4 N 0.1538(2) 0.2660(4) 0.60329(17)
N8_4 N 0.2334(2) 0.1912(4) 0.68966(16)
O19_2 O 0.12189(18) 0.4558(3) 0.00140(15)
O29_3 O 0.0980(2) 0.9771(4) 0.0183(2)
H39_3 H 0.0387736 0.930903 0.25342
H41_4 H 0.106392 0.215411 0.137096
H42_4 H 0.126396 0.108205 0.112507
C12_4 C 0.0245(2) 0.1990(4) 0.9345(2)
O5_4 O 0.05626(19) 0.2457(4) 0.97577(16)
O6_4 O 0.04095(18) 0.1407(4) 0.90459(15)
C56_3 C 0.1916(2) 0.8115(4) 0.93676(19)
C57_3 C 0.1618(3) 0.8591(4) 0.9664(2)
H28_3 H 0.1390 0.8173 0.9804
C58_3 C 0.1670(2) 0.9734(4) 0.9749(2)
C60_3 C 0.2273(3) 0.9783(4) 0.92227(19)
C61_3 C 0.1932(2) 0.6918(5) 0.9291(2)
C62_3 C 0.1669(3) 0.6158(4) 0.9524(2)
H31_3 H 0.1415 0.6384 0.9691
C63_3 C 0.1794(2) 0.5076(4) 0.95010(19)
C64_3 C 0.2141(3) 0.4742(4) 0.9213(2)
H32_3 H 0.2232 0.4009 0.9200
C65_3 C 0.2346(3) 0.5516(4) 0.8948(2)
H33_3 H 0.2558 0.5296 0.8739
C72_3 C 0.1584(3) 0.4258(4) 0.9813(2)
O17_2 O 0.18017(17) 0.3326(3) 0.98960(14)
C47_4 C 0.2079(3) 0.9495(4) 0.79211(19)
O30_4 O 0.1608(2) 0.9097(4) 0.78498(17)
Cu2_6 Cu 1.0000 0.74022(8) 0.2500
H8_4 H 0.9758 0.4888 0.0918
C17_4 C 0.9847(3) 0.5897(5) 0.1532(2)
H9_4 H 0.9457 0.6024 0.1449
O13_6 O 1.0000 0.9039(8) 0.2500
C48_4 C 0.9755(2) 0.1990(4) 0.5655(2)
C49_4 C 0.9248(2) 0.6228(4) 0.2928(2)
C50_4 C 0.9030(3) 0.5590(4) 0.3240(2)
H25_4 H 0.8637 0.5522 0.3160
C51_4 C 0.9397(2) 0.5053(4) 0.36707(19)
C52_4 C 0.9979(3) 0.5222(5) 0.3791(2)
C54_4 C 0.8868(2) 0.6772(4) 0.2442(2)
C55_4 C 0.9163(2) 0.4297(5) 0.3995(2)
C66_4 C 0.8279(3) 0.6672(4) 0.2227(2)
H34_4 H 0.8081 0.6260 0.2399
C67_4 C 0.7991(2) 0.7185(4) 0.1759(2)
C68_4 C 0.8306(3) 0.7783(5) 0.1514(2)
H35_4 H 0.8122 0.8145 0.1200
C69_4 C 0.8880(3) 0.7841(5) 0.1731(2)
H36_4 H 0.9086 0.8232 0.1558
C70_4 C 0.7362(3) 0.7086(4) 0.1503(2)
N9_4 N 0.9801(2) 0.6377(4) 0.30469(17)
N10_4 N 0.9157(2) 0.7351(4) 0.21850(17)
O15_4 O 0.95127(17) 0.3782(3) 0.43799(14)
O16_4 O 0.86561(19) 0.4177(3) 0.38869(15)
O18_4 O 0.81983(17) 0.3326(3) 0.51040(14)
O20_4 O 0.87811(18) 0.4558(3) 0.49860(15)
O21_4 O 0.94374(19) 0.2457(4) 0.52423(16)
O22_4 O 0.95905(18) 0.1407(4) 0.59541(15)
O26_4 O 0.8984(2) 0.1739(4) 0.3958(2)
O28_4 O 0.8445(2) 0.1198(3) 0.47441(16)
O34_4 O 0.7096(2) 0.6453(4) 0.17113(16)
H37_4 H 0.893608 0.215411 0.362904
H38_4 H 0.873604 0.108205 0.387493
H40_3 H 0.989043 0.930903 0.280112
C1_4 C 0.8648(3) 0.1933(4) 0.86825(18)
C2_4 C 0.9202(2) 0.1671(4) 0.87932(18)
H1_4 H 0.9313 0.1151 0.8594
C3_4 C 0.9611(3) 0.2202(4) 0.9217(2)
C4_4 C 0.9411(3) 0.2963(5) 0.9492(2)
H2_4 H 0.9667 0.3328 0.9776
C5_4 C 0.8850(2) 0.3182(4) 0.93530(19)
H3_4 H 0.8729 0.3721 0.9535
C6_4 C 0.8187(2) 0.1490(4) 0.82045(19)
C7_4 C 0.8288(2) 0.0714(4) 0.7876(2)
H4_4 H 0.8647 0.0394 0.7956
C8_4 C 0.7854(2) 0.0422(4) 0.7430(2)
C9_4 C 0.7335(3) 0.0939(4) 0.7307(2)
H5_4 H 0.7050 0.0795 0.6989
C10_4 C 0.7239(3) 0.1667(4) 0.7654(2)
H6_4 H 0.6882 0.1991 0.7581
N1_4 N 0.8462(2) 0.2660(4) 0.89671(17)
N2_4 N 0.7666(2) 0.1912(4) 0.81034(16)
C11_4 C 0.7921(3) 0.9495(4) 0.70789(19)
O11_4 O 0.8392(2) 0.9097(4) 0.71502(17)
H40_4 H 0.0109568 0.930903 0.219888
C59_4 C 0.7999(3) 0.0314(5) 0.5467(2)
H29_4 H 0.7953 0.1062 0.5409
H30_4 H 0.7509 0.0188 0.5933
C71_4 C 0.8627(3) 0.0301(5) 0.4904(2)
C56_4 C 0.8084(2) 0.8115(4) 0.56324(19)
C57_4 C 0.8382(3) 0.8591(4) 0.5336(2)
H28_4 H 0.8610 0.8173 0.5196
C58_4 C 0.8330(2) 0.9734(4) 0.5251(2)
C60_4 C 0.7727(3) 0.9783(4) 0.57773(19)
C61_4 C 0.8068(2) 0.6918(5) 0.5709(2)
C62_4 C 0.8331(3) 0.6158(4) 0.5476(2)
H31_4 H 0.8585 0.6384 0.5309
C63_4 C 0.8206(2) 0.5076(4) 0.54990(19)
C64_4 C 0.7859(3) 0.4742(4) 0.5787(2)
H32_4 H 0.7768 0.4009 0.5800
C65_4 C 0.7654(3) 0.5516(4) 0.6052(2)
H33_4 H 0.7442 0.5296 0.6261
C72_4 C 0.8416(3) 0.4258(4) 0.5187(2)
O29_4 O 0.9020(2) 0.9771(4) 0.4817(2)
H39_4 H 0.961226 0.930903 0.24658
loop_
_geom_bond_atom_site_label_1
_geom_bond_atom_site_label_2
_geom_bond_site_symmetry_1
_geom_bond_site_symmetry_2
H14 C28 1_555 1_555
O3 C36 1_555 1_555
O4 Lu3 1_555 1_555
Cu1 N1 1_555 1_555
C1 C2 1_555 1_555
C2 H1 1_555 1_555
C3 C2 1_555 1_555
C4 C3 1_555 1_555
H2 C4 1_555 1_555
C5 C4 1_555 1_555
H3 C5 1_555 1_555
C6 C1 1_555 1_555
C7 C6 1_555 1_555
H4 C7 1_555 1_555
C8 C7 1_555 1_555
C9 C8 1_555 1_555
H5 C9 1_555 1_555
C10 C9 1_555 1_555
H6 C10 1_555 1_555
C11 C8 1_555 1_555
C12 C3 1_555 1_555
C20 C21 1_555 1_555
C21 H10 1_555 1_555
C22 C21 1_555 1_555
C23 C22 1_555 1_555
H11 C23 1_555 1_555
C24 C23 1_555 1_555
H12 C24 1_555 1_555
C25 C20 1_555 1_555
C26 C25 1_555 1_555
H13 C26 1_555 1_555
C27 C26 1_555 1_555
H15 C29 1_555 1_555
N1 C1 1_555 1_555
N2 Cu1 1_555 1_555
N5 C20 1_555 1_555
N6 C25 1_555 1_555
O6 C12 1_555 1_555
O11 C11 1_555 1_555
O12 C11 1_555 1_555
Cu4 N5 1_555 1_555
Cu5 O12 1_555 1_555
N12 Cu1 1_555 1_555
N15 Cu1 1_555 1_555
O32 Cu1 1_555 1_555
C5 N1 1_555 1_555
C6 N2 1_555 1_555
C10 N2 1_555 1_555
C12 O5 1_555 1_555
C24 N5 1_555 1_555
C29 N6 1_555 1_555
N6 Cu4 1_555 1_555
Lu3 O1 1_555 1_555
O1 C19 1_555 1_555
O2 Lu3 1_555 1_555
O8 Lu3 1_555 1_555
O9 Lu3 1_555 1_555
O10 C35 1_555 1_555
Lu2 O15 1_555 1_555
Cu3 N7 1_555 1_555
Cu4 O31 1_555 1_555
C37 C38 1_555 1_555
C38 H19 1_555 1_555
C39 C38 1_555 1_555
C40 C39 1_555 1_555
H20 C40 1_555 1_555
C41 C40 1_555 1_555
H21 C41 1_555 1_555
C42 C37 1_555 1_555
C43 C42 1_555 1_555
H22 C43 1_555 1_555
C44 C43 1_555 1_555
C45 C44 1_555 1_555
H23 C45 1_555 1_555
C46 C45 1_555 1_555
H24 C46 1_555 1_555
C47 C44 1_555 1_555
C48 C39 1_555 1_555
N7 C37 1_555 1_555
N8 Cu3 1_555 1_555
N13 Cu3 1_555 1_555
N16 Cu3 1_555 1_555
O15 C55 1_555 1_555
O16 Lu2 1_555 1_555
O18 Lu2 1_555 1_555
O20 Lu2 1_555 1_555
O21 Lu2 1_555 1_555
O22 C48 1_555 1_555
O24 Lu3 1_555 1_555
O25 Lu2 1_555 1_555
O26 Lu2 1_555 1_555
O28 Lu2 1_555 1_555
O30 C47 1_555 1_555
O31 C47 1_555 1_555
O33 Cu3 1_555 1_555
C19 O2 1_555 1_555
C35 O9 1_555 1_555
C41 N7 1_555 1_555
C42 N8 1_555 1_555
C46 N8 1_555 1_555
C48 O21 1_555 1_555
C55 O16 1_555 1_555
O26 H37 1_555 1_555
O26 H38 1_555 1_555
O8 H41 1_555 1_555
O8 H42 1_555 1_555
Cu2 N3 1_555 1_555
C13 C14 1_555 1_555
C14 H7 1_555 1_555
C15 C14 1_555 1_555
C16 C15 1_555 1_555
C17 C16 1_555 1_555
H9 C17 1_555 1_555
C18 C13 1_555 1_555
C30 C18 1_555 1_555
H16 C30 1_555 1_555
C31 C30 1_555 1_555
C32 C31 1_555 1_555
H17 C32 1_555 1_555
C33 C32 1_555 1_555
H18 C33 1_555 1_555
C34 C31 1_555 1_555
N3 C13 1_555 1_555
N4 Cu2 1_555 1_555
O7 C34 1_555 1_555
O13 Cu2 1_555 1_555
O14 C34 1_555 1_555
Lu4 O7 1_555 1_555
Lu5 O23 1_555 1_555
C49 C50 1_555 1_555
C50 H25 1_555 1_555
C51 C50 1_555 1_555
C52 C51 1_555 1_555
C53 C52 1_555 1_555
H27 C53 1_555 1_555
C54 C49 1_555 1_555
C66 C54 1_555 1_555
H34 C66 1_555 1_555
C67 C66 1_555 1_555
C68 C67 1_555 1_555
H35 C68 1_555 1_555
C69 C68 1_555 1_555
H36 C69 1_555 1_555
C70 C67 1_555 1_555
N9 Cu2 1_555 1_555
N10 Cu2 1_555 1_555
O23 C70 1_555 1_555
O34 C70 1_555 1_555
C17 N3 1_555 1_555
C18 N4 1_555 1_555
C33 N4 1_555 1_555
C49 N9 1_555 1_555
C53 N9 1_555 1_555
C54 N10 1_555 1_555
C69 N10 1_555 1_555
H14_2 C28_2 1_555 1_555
O18 C36_2 1_555 1_555
O20 C36_2 1_555 1_555
C20_2 C21_2 1_555 1_555
C21_2 H10_2 1_555 1_555
C22_2 C21_2 1_555 1_555
C23_2 C22_2 1_555 1_555
H11_2 C23_2 1_555 1_555
C24_2 C23_2 1_555 1_555
H12_2 C24_2 1_555 1_555
C25_2 C20_2 1_555 1_555
C26_2 C25_2 1_555 1_555
H13_2 C26_2 1_555 1_555
C27_2 C26_2 1_555 1_555
H15_2 C29_2 1_555 1_555
C35_2 C22_2 1_555 1_555
N5_2 C20_2 1_555 1_555
N6_2 C25_2 1_555 1_555
O10_2 C35_2 1_555 1_555
Cu5 N5_2 1_555 1_555
C24_2 N5_2 1_555 1_555
C29_2 N6_2 1_555 1_555
C35_2 O28 1_555 1_555
N6_2 Cu5 1_555 1_555
O11_2 C11_2 1_555 1_555
O33 C11_2 1_555 1_555
Cu4 N1_2 1_555 1_555
C1_2 C2_2 1_555 1_555
C2_2 H1_2 1_555 1_555
C3_2 C2_2 1_555 1_555
C4_2 C3_2 1_555 1_555
H2_2 C4_2 1_555 1_555
C5_2 C4_2 1_555 1_555
H3_2 C5_2 1_555 1_555
C6_2 C1_2 1_555 1_555
C7_2 C6_2 1_555 1_555
H4_2 C7_2 1_555 1_555
C8_2 C7_2 1_555 1_555
C9_2 C8_2 1_555 1_555
H5_2 C9_2 1_555 1_555
C10_2 C9_2 1_555 1_555
H6_2 C10_2 1_555 1_555
N1_2 C1_2 1_555 1_555
N2_2 Cu4 1_555 1_555
C5_2 N1_2 1_555 1_555
C6_2 N2_2 1_555 1_555
C10_2 N2_2 1_555 1_555
H9_2 C17_2 1_555 1_555
O13_2 Cu2_2 1_555 1_555
Lu4 O15_2 1_555 1_555
C49_2 C50_2 1_555 1_555
C50_2 H25_2 1_555 1_555
C51_2 C50_2 1_555 1_555
C52_2 C51_2 1_555 1_555
C54_2 C49_2 1_555 1_555
C55_2 C51_2 1_555 1_555
C66_2 C54_2 1_555 1_555
H34_2 C66_2 1_555 1_555
C67_2 C66_2 1_555 1_555
C68_2 C67_2 1_555 1_555
H35_2 C68_2 1_555 1_555
C69_2 C68_2 1_555 1_555
H36_2 C69_2 1_555 1_555
C70_2 C67_2 1_555 1_555
N9_2 Cu2_2 1_555 1_555
N10_2 Cu2_2 1_555 1_555
O15_2 C55_2 1_555 1_555
O16_2 Lu4 1_555 1_555
O18_2 Lu4 1_555 1_555
O20_2 Lu4 1_555 1_555
O21_2 Lu4 1_555 1_555
O22_2 C48_2 1_555 1_555
O24 C70_2 1_555 1_555
O26_2 Lu4 1_555 1_555
O28_2 Lu4 1_555 1_555
O34_2 C70_2 1_555 1_555
C48_2 O21_2 1_555 1_555
C49_2 N9_2 1_555 1_555
C54_2 N10_2 1_555 1_555
C55_2 O16_2 1_555 1_555
C69_2 N10_2 1_555 1_555
O26_2 H37_2 1_555 1_555
O26_2 H38_2 1_555 1_555
O13_2 H40 1_555 1_555
C20_3 C21_3 1_555 1_555
C21_3 H10_3 1_555 1_555
C22_3 C21_3 1_555 1_555
C25_3 C20_3 1_555 1_555
C26_3 C25_3 1_555 1_555
H13_3 C26_3 1_555 1_555
C27_3 C26_3 1_555 1_555
C28_3 C27_3 1_555 1_555
H14_3 C28_3 1_555 1_555
C29_3 C28_3 1_555 1_555
H15_3 C29_3 1_555 1_555
C36_3 C27_3 1_555 1_555
N12 C20_3 1_555 1_555
N15 C25_3 1_555 1_555
O3_2 C36_3 1_555 1_555
C24_3 N12 1_555 1_555
C29_3 N15 1_555 1_555
O30_2 C47_2 1_555 1_555
O32 C47_2 1_555 1_555
O4_2 Lu5 1_555 1_555
H11_3 C23_3 1_555 1_555
O6_2 C12_2 1_555 1_555
C12_2 O5_2 1_555 1_555
Lu5 O1_2 1_555 1_555
Cu2_3 N3_2 1_555 1_555
C13_2 C14_2 1_555 1_555
C14_2 H7_2 1_555 1_555
C15_2 C14_2 1_555 1_555
C16_2 C15_2 1_555 1_555
C18_2 C13_2 1_555 1_555
C19_2 C15_2 1_555 1_555
C30_2 C18_2 1_555 1_555
H16_2 C30_2 1_555 1_555
C31_2 C30_2 1_555 1_555
C32_2 C31_2 1_555 1_555
H17_2 C32_2 1_555 1_555
C33_2 C32_2 1_555 1_555
H18_2 C33_2 1_555 1_555
C34_2 C31_2 1_555 1_555
N3_2 C13_2 1_555 1_555
N4_2 Cu2_3 1_555 1_555
O1_2 C19_2 1_555 1_555
O2_2 Lu5 1_555 1_555
O25 C34_2 1_555 1_555
O8_2 Lu5 1_555 1_555
O9_2 Lu5 1_555 1_555
O13_3 Cu2_3 1_555 1_555
O14_2 C34_2 1_555 1_555
Cu5 N7_2 1_555 1_555
C37_2 C38_2 1_555 1_555
C38_2 H19_2 1_555 1_555
C39_2 C38_2 1_555 1_555
C40_2 C39_2 1_555 1_555
H20_2 C40_2 1_555 1_555
C41_2 C40_2 1_555 1_555
H21_2 C41_2 1_555 1_555
C42_2 C37_2 1_555 1_555
C43_2 C42_2 1_555 1_555
H22_2 C43_2 1_555 1_555
C44_2 C43_2 1_555 1_555
C45_2 C44_2 1_555 1_555
H23_2 C45_2 1_555 1_555
C46_2 C45_2 1_555 1_555
H24_2 C46_2 1_555 1_555
H27_2 C53_2 1_555 1_555
N7_2 C37_2 1_555 1_555
N8_2 Cu5 1_555 1_555
C18_2 N4_2 1_555 1_555
C19_2 O2_2 1_555 1_555
C33_2 N4_2 1_555 1_555
C35_3 O9_2 1_555 1_555
C41_2 N7_2 1_555 1_555
C42_2 N8_2 1_555 1_555
C46_2 N8_2 1_555 1_555
O13_3 H39 1_555 1_555
O8_2 H41_2 1_555 1_555
O8_2 H42_2 1_555 1_555
C20_4 C21_4 1_555 1_555
C21_4 H10_4 1_555 1_555
C22_4 C21_4 1_555 1_555
C25_4 C20_4 1_555 1_555
C26_4 C25_4 1_555 1_555
H13_4 C26_4 1_555 1_555
C27_4 C26_4 1_555 1_555
C28_4 C27_4 1_555 1_555
H14_4 C28_4 1_555 1_555
C29_4 C28_4 1_555 1_555
H15_4 C29_4 1_555 1_555
C36_4 C27_4 1_555 1_555
N13 C20_4 1_555 1_555
N16 C25_4 1_555 1_555
O18_2 C36_4 1_555 1_555
O20_2 C36_4 1_555 1_555
C24_4 N13 1_555 1_555
C29_4 N16 1_555 1_555
H11_4 C23_4 1_555 1_555
C35_4 O28_2 1_555 1_555
O13_2 H39_2 1_555 1_555
O13_3 H40_2 1_555 1_555
Cu2_4 N3_3 1_555 1_555
C13_3 C14_3 1_555 1_555
C14_3 H7_3 1_555 1_555
C15_3 C14_3 1_555 1_555
C16_3 C15_3 1_555 1_555
C17_3 C16_3 1_555 1_555
H9_3 C17_3 1_555 1_555
C18_3 C13_3 1_555 1_555
C30_3 C18_3 1_555 1_555
H16_3 C30_3 1_555 1_555
C31_3 C30_3 1_555 1_555
C32_3 C31_3 1_555 1_555
H17_3 C32_3 1_555 1_555
C33_3 C32_3 1_555 1_555
H18_3 C33_3 1_555 1_555
C34_3 C31_3 1_555 1_555
N3_3 C13_3 1_555 1_555
N4_3 Cu2_4 1_555 1_555
O7_2 C34_3 1_555 1_555
O13_4 Cu2_4 1_555 1_555
O14_3 C34_3 1_555 1_555
Lu4_2 O7_2 1_555 1_555
Lu5_2 O23_2 1_555 1_555
Lu6 O27 1_555 1_555
C49_3 C50_3 1_555 1_555
C50_3 H25_3 1_555 1_555
C51_3 C50_3 1_555 1_555
C52_3 C51_3 1_555 1_555
C53_3 C52_3 1_555 1_555
H27_3 C53_3 1_555 1_555
C54_3 C49_3 1_555 1_555
C66_3 C54_3 1_555 1_555
H34_3 C66_3 1_555 1_555
C67_3 C66_3 1_555 1_555
C68_3 C67_3 1_555 1_555
H35_3 C68_3 1_555 1_555
C69_3 C68_3 1_555 1_555
H36_3 C69_3 1_555 1_555
C70_3 C67_3 1_555 1_555
N9_3 Cu2_4 1_555 1_555
N10_3 Cu2_4 1_555 1_555
O23_2 C70_3 1_555 1_555
O27 C71 1_555 1_555
O29 C71 1_555 1_555
O34_3 C70_3 1_555 1_555
C17_3 N3_3 1_555 1_555
C18_3 N4_3 1_555 1_555
C33_3 N4_3 1_555 1_555
C49_3 N9_3 1_555 1_555
C53_3 N9_3 1_555 1_555
C54_3 N10_3 1_555 1_555
C69_3 N10_3 1_555 1_555
Cu6 N11 1_555 1_555
C56 C57 1_555 1_555
C57 H28 1_555 1_555
C58 C57 1_555 1_555
C59 C58 1_555 1_555
H29 C59 1_555 1_555
C60 C59 1_555 1_555
H30 C60 1_555 1_555
C61 C56 1_555 1_555
C62 C61 1_555 1_555
H31 C62 1_555 1_555
C63 C62 1_555 1_555
H33 C65 1_555 1_555
N11 C56 1_555 1_555
N14 Cu6 1_555 1_555
C60 N11 1_555 1_555
C61 N14 1_555 1_555
C65 N14 1_555 1_555
Lu6 O1_3 1_555 1_555
O1_3 C19_3 1_555 1_555
O2_3 Lu6 1_555 1_555
O8_3 Lu6 1_555 1_555
Lu2_2 O15_3 1_555 1_555
Cu3_2 N7_3 1_555 1_555
Cu6 O31_2 1_555 1_555
C37_3 C38_3 1_555 1_555
C38_3 H19_3 1_555 1_555
C39_3 C38_3 1_555 1_555
C40_3 C39_3 1_555 1_555
H20_3 C40_3 1_555 1_555
C41_3 C40_3 1_555 1_555
H21_3 C41_3 1_555 1_555
C42_3 C37_3 1_555 1_555
C43_3 C42_3 1_555 1_555
H22_3 C43_3 1_555 1_555
C44_3 C43_3 1_555 1_555
C45_3 C44_3 1_555 1_555
H23_3 C45_3 1_555 1_555
C46_3 C45_3 1_555 1_555
H24_3 C46_3 1_555 1_555
C47_3 C44_3 1_555 1_555
C48_3 C39_3 1_555 1_555
N7_3 C37_3 1_555 1_555
N8_3 Cu3_2 1_555 1_555
N13_2 Cu3_2 1_555 1_555
N16_2 Cu3_2 1_555 1_555
O15_3 C55_3 1_555 1_555
O16_3 Lu2_2 1_555 1_555
O18_3 Lu2_2 1_555 1_555
O19 Lu6 1_555 1_555
O20_3 Lu2_2 1_555 1_555
O21_3 Lu2_2 1_555 1_555
O22_3 C48_3 1_555 1_555
O24_2 Lu6 1_555 1_555
O25_2 Lu2_2 1_555 1_555
O26_3 Lu2_2 1_555 1_555
O28_3 Lu2_2 1_555 1_555
O30_3 C47_3 1_555 1_555
O31_2 C47_3 1_555 1_555
O33_2 Cu3_2 1_555 1_555
C19_3 O2_3 1_555 1_555
C41_3 N7_3 1_555 1_555
C42_3 N8_3 1_555 1_555
C46_3 N8_3 1_555 1_555
C48_3 O21_3 1_555 1_555
C55_3 O16_3 1_555 1_555
O26_3 H37_3 1_555 1_555
O26_3 H38_3 1_555 1_555
O8_3 H41_3 1_555 1_555
O8_3 H42_3 1_555 1_555
Cu1_2 N1_3 1_555 1_555
C1_3 C2_3 1_555 1_555
C2_3 H1_3 1_555 1_555
C3_3 C2_3 1_555 1_555
C4_3 C3_3 1_555 1_555
H2_3 C4_3 1_555 1_555
C5_3 C4_3 1_555 1_555
H3_3 C5_3 1_555 1_555
C6_3 C1_3 1_555 1_555
C7_3 C6_3 1_555 1_555
H4_3 C7_3 1_555 1_555
C8_3 C7_3 1_555 1_555
C9_3 C8_3 1_555 1_555
H5_3 C9_3 1_555 1_555
C10_3 C9_3 1_555 1_555
H6_3 C10_3 1_555 1_555
C11_3 C8_3 1_555 1_555
C12_3 C3_3 1_555 1_555
N1_3 C1_3 1_555 1_555
N2_3 Cu1_2 1_555 1_555
O6_3 C12_3 1_555 1_555
O11_3 C11_3 1_555 1_555
O12_2 C11_3 1_555 1_555
Cu5_2 O12_2 1_555 1_555
H32 C64 1_555 1_555
N12_2 Cu1_2 1_555 1_555
N15_2 Cu1_2 1_555 1_555
O32_2 Cu1_2 1_555 1_555
C5_3 N1_3 1_555 1_555
C6_3 N2_3 1_555 1_555
C10_3 N2_3 1_555 1_555
C12_3 O5_3 1_555 1_555
C72 O17 1_555 1_555
Cu5_2 N11_2 1_555 1_555
C56_2 C57_2 1_555 1_555
C57_2 H28_2 1_555 1_555
C58_2 C57_2 1_555 1_555
C59_2 C58_2 1_555 1_555
H29_2 C59_2 1_555 1_555
C60_2 C59_2 1_555 1_555
H30_2 C60_2 1_555 1_555
C61_2 C56_2 1_555 1_555
C62_2 C61_2 1_555 1_555
H31_2 C62_2 1_555 1_555
C63_2 C62_2 1_555 1_555
H33_2 C65_2 1_555 1_555
C71_2 C58_2 1_555 1_555
N11_2 C56_2 1_555 1_555
N14_2 Cu5_2 1_555 1_555
O28_3 C71_2 1_555 1_555
O29_2 C71_2 1_555 1_555
C60_2 N11_2 1_555 1_555
C61_2 N14_2 1_555 1_555
C65_2 N14_2 1_555 1_555
H32_2 C64_2 1_555 1_555
C72_2 O18_3 1_555 1_555
C72_2 O20_3 1_555 1_555
Lu5_2 O27_2 1_555 1_555
O27_2 C71_3 1_555 1_555
H29_3 C59_3 1_555 1_555
Lu5_2 O1_4 1_555 1_555
Cu2_5 N3_4 1_555 1_555
C13_4 C14_4 1_555 1_555
C14_4 H7_4 1_555 1_555
C15_4 C14_4 1_555 1_555
C16_4 C15_4 1_555 1_555
C18_4 C13_4 1_555 1_555
C19_4 C15_4 1_555 1_555
C30_4 C18_4 1_555 1_555
H16_4 C30_4 1_555 1_555
C31_4 C30_4 1_555 1_555
C32_4 C31_4 1_555 1_555
H17_4 C32_4 1_555 1_555
C33_4 C32_4 1_555 1_555
H18_4 C33_4 1_555 1_555
C34_4 C31_4 1_555 1_555
N3_4 C13_4 1_555 1_555
N4_4 Cu2_5 1_555 1_555
O1_4 C19_4 1_555 1_555
O2_4 Lu5_2 1_555 1_555
O25_2 C34_4 1_555 1_555
O8_4 Lu5_2 1_555 1_555
O13_5 Cu2_5 1_555 1_555
O14_4 C34_4 1_555 1_555
Cu5_2 N7_4 1_555 1_555
C37_4 C38_4 1_555 1_555
C38_4 H19_4 1_555 1_555
C39_4 C38_4 1_555 1_555
C40_4 C39_4 1_555 1_555
H20_4 C40_4 1_555 1_555
C41_4 C40_4 1_555 1_555
H21_4 C41_4 1_555 1_555
C42_4 C37_4 1_555 1_555
C43_4 C42_4 1_555 1_555
H22_4 C43_4 1_555 1_555
C44_4 C43_4 1_555 1_555
C45_4 C44_4 1_555 1_555
H23_4 C45_4 1_555 1_555
C46_4 C45_4 1_555 1_555
H24_4 C46_4 1_555 1_555
H27_4 C53_4 1_555 1_555
N7_4 C37_4 1_555 1_555
N8_4 Cu5_2 1_555 1_555
O19_2 Lu5_2 1_555 1_555
C18_4 N4_4 1_555 1_555
C19_4 O2_4 1_555 1_555
C33_4 N4_4 1_555 1_555
C41_4 N7_4 1_555 1_555
C42_4 N8_4 1_555 1_555
C46_4 N8_4 1_555 1_555
O13_5 H39_3 1_555 1_555
O8_4 H41_4 1_555 1_555
O8_4 H42_4 1_555 1_555
O6_4 C12_4 1_555 1_555
C56_3 C57_3 1_555 1_555
C57_3 H28_3 1_555 1_555
C58_3 C57_3 1_555 1_555
C61_3 C56_3 1_555 1_555
C62_3 C61_3 1_555 1_555
H31_3 C62_3 1_555 1_555
C63_3 C62_3 1_555 1_555
C64_3 C63_3 1_555 1_555
H32_3 C64_3 1_555 1_555
C65_3 C64_3 1_555 1_555
H33_3 C65_3 1_555 1_555
C72_3 C63_3 1_555 1_555
N12_2 C56_3 1_555 1_555
C12_4 O5_4 1_555 1_555
C60_3 N12_2 1_555 1_555
C61_3 N15_2 1_555 1_555
C65_3 N15_2 1_555 1_555
C72_3 O17_2 1_555 1_555
O30_4 C47_4 1_555 1_555
O32_2 C47_4 1_555 1_555
H9_4 C17_4 1_555 1_555
O13_6 Cu2_6 1_555 1_555
Lu4_2 O15_4 1_555 1_555
C49_4 C50_4 1_555 1_555
C50_4 H25_4 1_555 1_555
C51_4 C50_4 1_555 1_555
C52_4 C51_4 1_555 1_555
C54_4 C49_4 1_555 1_555
C55_4 C51_4 1_555 1_555
C66_4 C54_4 1_555 1_555
H34_4 C66_4 1_555 1_555
C67_4 C66_4 1_555 1_555
C68_4 C67_4 1_555 1_555
H35_4 C68_4 1_555 1_555
C69_4 C68_4 1_555 1_555
H36_4 C69_4 1_555 1_555
C70_4 C67_4 1_555 1_555
N9_4 Cu2_6 1_555 1_555
N10_4 Cu2_6 1_555 1_555
O15_4 C55_4 1_555 1_555
O16_4 Lu4_2 1_555 1_555
O18_4 Lu4_2 1_555 1_555
O20_4 Lu4_2 1_555 1_555
O21_4 Lu4_2 1_555 1_555
O22_4 C48_4 1_555 1_555
O24_2 C70_4 1_555 1_555
O26_4 Lu4_2 1_555 1_555
O28_4 Lu4_2 1_555 1_555
O34_4 C70_4 1_555 1_555
C48_4 O21_4 1_555 1_555
C49_4 N9_4 1_555 1_555
C54_4 N10_4 1_555 1_555
C55_4 O16_4 1_555 1_555
C69_4 N10_4 1_555 1_555
O26_4 H37_4 1_555 1_555
O26_4 H38_4 1_555 1_555
O13_6 H40_3 1_555 1_555
Cu6 N1_4 1_555 1_555
C1_4 C2_4 1_555 1_555
C2_4 H1_4 1_555 1_555
C3_4 C2_4 1_555 1_555
C4_4 C3_4 1_555 1_555
H2_4 C4_4 1_555 1_555
C5_4 C4_4 1_555 1_555
H3_4 C5_4 1_555 1_555
C6_4 C1_4 1_555 1_555
C7_4 C6_4 1_555 1_555
H4_4 C7_4 1_555 1_555
C8_4 C7_4 1_555 1_555
C9_4 C8_4 1_555 1_555
H5_4 C9_4 1_555 1_555
C10_4 C9_4 1_555 1_555
H6_4 C10_4 1_555 1_555
N1_4 C1_4 1_555 1_555
N2_4 Cu6 1_555 1_555
C5_4 N1_4 1_555 1_555
C6_4 N2_4 1_555 1_555
C10_4 N2_4 1_555 1_555
O11_4 C11_4 1_555 1_555
O33_2 C11_4 1_555 1_555
O13_5 H40_4 1_555 1_555
H29_4 C59_4 1_555 1_555
O28_4 C71_4 1_555 1_555
C56_4 C57_4 1_555 1_555
C57_4 H28_4 1_555 1_555
C58_4 C57_4 1_555 1_555
C61_4 C56_4 1_555 1_555
C62_4 C61_4 1_555 1_555
H31_4 C62_4 1_555 1_555
C63_4 C62_4 1_555 1_555
C64_4 C63_4 1_555 1_555
H32_4 C64_4 1_555 1_555
C65_4 C64_4 1_555 1_555
H33_4 C65_4 1_555 1_555
C72_4 C63_4 1_555 1_555
N13_2 C56_4 1_555 1_555
C60_4 N13_2 1_555 1_555
C61_4 N16_2 1_555 1_555
C65_4 N16_2 1_555 1_555
C72_4 O18_4 1_555 1_555
C72_4 O20_4 1_555 1_555
O13_6 H39_4 1_555 1_555

#END
