
###############################################################################
#
# This file contains modified crystal structure data generated from the
# MOF subset of the Cambridge Structural Database (CSD) v543 
# hosted by the Cambridge Crystallographic Data Centre (CCDC).
#
# This work is licensed under the Creative Commons
# Attribution-NonCommercial-ShareAlike 4.0 International License.
# To view a copy of this license, visit
# http://creativecommons.org/licenses/by-nc-sa/4.0/
# or send a letter to
# Creative Commons, PO Box 1866, Mountain View, CA 94042, USA.
#
# CIF created using the CSD Python API on 29 September 2022
# The structure has been converted into the P1 space group
# The structure has a 3D framework
# The original CSD entry TUMQOJ is in the monoclinic crystal system
# The framework has been calculated to contain at least 10.0% void space
# The void calculation uses a probe of radius 1.32A, grid spacing 0.4
#
###############################################################################

data_TUMQOJ
_chemical_formula_moiety         '(C60 H32 N16 O16 Zn2)n'
_symmetry_cell_setting           triclinic
_symmetry_space_group_name_H-M   'P 1'
_symmetry_Int_Tables_number      1
_space_group_name_Hall           'P 1'
loop_
_symmetry_equiv_pos_site_id
_symmetry_equiv_pos_as_xyz
1 x,y,z
_cell_length_a                   9.8054(16)
_cell_length_b                   17.9814(19)
_cell_length_c                   11.9775(17)
_cell_angle_alpha                90
_cell_angle_beta                 97.881(12)
_cell_angle_gamma                90
_cell_volume                     2091.86
loop_
_atom_site_label
_atom_site_type_symbol
_atom_site_fract_x
_atom_site_fract_y
_atom_site_fract_z
Zn3 Zn 0.05447(5) 0.04772(3) 0.16091(4)
C1 C 0.3221(6) 0.0912(3) 0.1890(4)
C2 C 0.8363(5) 0.1394(3) 0.2049(4)
C3 C 0.5792(5) 0.1157(2) 0.2008(4)
H1 H 0.5890 0.0688 0.1661
C4 C 0.4493(5) 0.1382(2) 0.2235(4)
C5 C 0.6960(5) 0.1612(2) 0.2284(4)
C6 C 0.4352(5) 0.2059(2) 0.2791(4)
H2 H 0.3482 0.2211 0.2976
C7 C 0.6795(5) 0.2305(2) 0.2807(4)
H3 H 0.7557 0.2631 0.2979
C8 C 0.5510(5) 0.2502(2) 0.3064(4)
C9 C 0.5630(5) 0.3339(2) 0.4746(4)
H4 H 0.5972 0.2977 0.5291
C10 C 0.4885(5) 0.3875(2) 0.3157(3)
C11 C 0.4423(6) 0.4073(3) 0.1963(4)
C12 C 0.4394(8) 0.3601(3) 0.1050(4)
H5 H 0.4733 0.3107 0.1142
C15 C 0.3440(7) 0.5031(3) 0.0831(4)
H8 H 0.3120 0.5529 0.0750
N1 N 0.5347(4) 0.32135(18) 0.3621(3)
N2 N 0.5359(4) 0.40396(19) 0.4973(3)
N3 N 0.4889(4) 0.43771(19) 0.3956(3)
N4 N 0.3984(4) 0.4782(2) 0.1867(3)
O1 O 0.3293(5) 0.0333(2) 0.1322(4)
O2 O 0.2095(4) 0.11575(18) 0.2183(3)
O3 O 0.8602(4) 0.07042(19) 0.1922(3)
O4 O 0.9244(4) 0.1894(2) 0.1978(4)
Zn1 Zn 0.44553(5) 0.54772(3) 0.33909(4)
N5 N 0.4641(4) 0.59604(19) 0.5027(3)
O5 O 0.2905(4) 0.61575(18) 0.2817(3)
O6 O 0.6398(4) 0.57042(19) 0.3078(3)
Zn4 Zn 0.55447(5) 0.45228(3) 0.66091(4)
C15_2 C 0.1560(7) 0.0031(3) 0.4169(4)
H8_2 H 0.1880 0.0529 0.4250
N5_2 N 0.0359(4) 0.09604(19) 0.9973(3)
C1_2 C 0.1779(6) 0.5912(3) 0.3110(4)
C4_2 C 0.0507(5) 0.6382(2) 0.2765(4)
C6_2 C 0.0648(5) 0.7059(2) 0.2209(4)
H2_2 H 0.1518 0.7211 0.2024
C10_2 C 0.0115(5) 0.8875(2) 0.1843(3)
C11_2 C 0.0577(6) 0.9073(3) 0.3037(4)
C12_2 C 0.0606(8) 0.8601(3) 0.3950(4)
H5_2 H 0.0267 0.8107 0.3858
C13 C 0.1146(9) 0.8871(4) 0.5009(5)
H6 H 0.1155 0.8564 0.5655
C14 C 0.1661(8) 0.9572(3) 0.5118(5)
H7 H 0.2083 0.9749 0.5831
N3_2 N 0.0111(4) 0.93771(19) 0.1044(3)
N4_2 N 0.1016(4) 0.9782(2) 0.3133(3)
O1_2 O 0.1707(5) 0.5333(2) 0.3678(4)
C2_2 C 0.6637(5) 0.6394(3) 0.2951(4)
C3_2 C 0.9208(5) 0.6157(2) 0.2992(4)
H1_2 H 0.9110 0.5688 0.3339
C5_2 C 0.8040(5) 0.6612(2) 0.2716(4)
C7_2 C 0.8205(5) 0.7305(2) 0.2193(4)
H3_2 H 0.7443 0.7631 0.2021
C8_2 C 0.9490(5) 0.7502(2) 0.1936(4)
C9_2 C 0.9370(5) 0.8339(2) 0.0254(4)
N1_2 N 0.9653(4) 0.82135(18) 0.1379(3)
N2_2 N 0.9641(4) 0.90396(19) 0.0027(3)
O4_2 O 0.5756(4) 0.6894(2) 0.3022(4)
H4_2 H 0.9028 0.7977 0.9709
Zn4_2 Zn 0.94553(5) 0.95228(3) 0.83909(4)
C1_3 C 0.6779(6) 0.9088(3) 0.8110(4)
C2_3 C 0.1637(5) 0.8606(3) 0.7951(4)
C3_3 C 0.4208(5) 0.8843(2) 0.7992(4)
H1_3 H 0.4110 0.9312 0.8339
C4_3 C 0.5507(5) 0.8618(2) 0.7765(4)
C5_3 C 0.3040(5) 0.8388(2) 0.7716(4)
C6_3 C 0.5648(5) 0.7941(2) 0.7209(4)
H2_3 H 0.6518 0.7789 0.7024
C7_3 C 0.3205(5) 0.7695(2) 0.7193(4)
H3_3 H 0.2443 0.7369 0.7021
C8_3 C 0.4490(5) 0.7498(2) 0.6936(4)
C9_3 C 0.4370(5) 0.6661(2) 0.5254(4)
H4_3 H 0.4028 0.7023 0.4709
C10_3 C 0.5115(5) 0.6125(2) 0.6843(3)
C11_3 C 0.5577(6) 0.5927(3) 0.8037(4)
C12_3 C 0.5606(8) 0.6399(3) 0.8950(4)
H5_3 H 0.5267 0.6893 0.8858
C15_3 C 0.6560(7) 0.4969(3) 0.9169(4)
H8_3 H 0.6880 0.4471 0.9250
N1_3 N 0.4653(4) 0.67865(18) 0.6379(3)
N3_3 N 0.5111(4) 0.56229(19) 0.6044(3)
N4_3 N 0.6016(4) 0.5218(2) 0.8133(3)
O1_3 O 0.6707(5) 0.9667(2) 0.8678(4)
O2_2 O 0.7905(4) 0.88425(18) 0.7817(3)
O3_2 O 0.1398(4) 0.92958(19) 0.8078(3)
O4_3 O 0.0756(4) 0.8106(2) 0.8022(4)
O5_2 O 0.7095(4) 0.38425(18) 0.7183(3)
O6_2 O 0.3602(4) 0.42958(19) 0.6922(3)
H4_4 H 0.0972 0.2023 0.0291
C2_4 C 0.3363(5) 0.3606(3) 0.7049(4)
C3_4 C 0.0792(5) 0.3843(2) 0.7008(4)
H1_4 H 0.0890 0.4312 0.6661
C5_4 C 0.1960(5) 0.3388(2) 0.7284(4)
C7_4 C 0.1795(5) 0.2695(2) 0.7807(4)
H3_4 H 0.2557 0.2369 0.7979
C8_4 C 0.0510(5) 0.2498(2) 0.8064(4)
C9_4 C 0.0630(5) 0.1661(2) 0.9746(4)
N1_4 N 0.0347(4) 0.17865(18) 0.8621(3)
O4_4 O 0.4244(4) 0.3106(2) 0.6978(4)
C1_4 C 0.8221(6) 0.4088(3) 0.6890(4)
C4_4 C 0.9493(5) 0.3618(2) 0.7235(4)
C6_4 C 0.9352(5) 0.2941(2) 0.7791(4)
H2_4 H 0.8482 0.2789 0.7976
C10_4 C 0.9885(5) 0.1125(2) 0.8157(3)
C11_4 C 0.9423(6) 0.0927(3) 0.6963(4)
C12_4 C 0.9394(8) 0.1399(3) 0.6050(4)
H5_4 H 0.9733 0.1893 0.6142
C13_2 C 0.8854(9) 0.1129(4) 0.4991(5)
H6_2 H 0.8845 0.1436 0.4345
C14_2 C 0.8339(8) 0.0428(3) 0.4882(5)
H7_2 H 0.7917 0.0251 0.4169
N3_4 N 0.9889(4) 0.06229(19) 0.8956(3)
N4_4 N 0.8984(4) 0.0218(2) 0.6867(3)
O1_4 O 0.8293(5) 0.4667(2) 0.6322(4)
C15_4 C 0.8440(7) 0.9969(3) 0.5831(4)
H8_4 H 0.8120 0.9471 0.5750
C13_3 C 0.3854(9) 0.3871(4) 0.9991(5)
H6_3 H 0.3845 0.3564 0.9345
C14_3 C 0.3339(8) 0.4572(3) 0.9882(5)
H7_3 H 0.2917 0.4749 0.9169
C13_4 C 0.6146(9) 0.6129(4) 0.0009(5)
H6_4 H 0.6155 0.6436 0.0655
C14_4 C 0.6661(8) 0.5428(3) 0.0118(5)
H7_4 H 0.7083 0.5251 0.0831
loop_
_geom_bond_atom_site_label_1
_geom_bond_atom_site_label_2
_geom_bond_site_symmetry_1
_geom_bond_site_symmetry_2
C1 C4 1_555 1_555
C2 C5 1_555 1_555
C3 H1 1_555 1_555
C4 C3 1_555 1_555
C5 C3 1_555 1_555
C6 C4 1_555 1_555
H2 C6 1_555 1_555
C7 C5 1_555 1_555
H3 C7 1_555 1_555
C8 C6 1_555 1_555
C9 H4 1_555 1_555
C10 C11 1_555 1_555
C11 C12 1_555 1_555
C12 H5 1_555 1_555
H8 C15 1_555 1_555
N1 C8 1_555 1_555
N2 C9 1_555 1_555
N3 C10 1_555 1_555
N4 C11 1_555 1_555
O1 C1 1_555 1_555
O2 C1 1_555 1_555
O3 C2 1_555 1_555
O4 C2 1_555 1_555
Zn1 N3 1_555 1_555
N5 Zn1 1_555 1_555
O5 Zn1 1_555 1_555
O6 Zn1 1_555 1_555
Zn3 O2 1_555 1_555
Zn4 N2 1_555 1_555
C7 C8 1_555 1_555
C9 N1 1_555 1_555
C10 N1 1_555 1_555
C15 N4 1_555 1_555
N2 N3 1_555 1_555
N4 Zn1 1_555 1_555
H8_2 C15_2 1_555 1_555
C1_2 C4_2 1_555 1_555
C6_2 C4_2 1_555 1_555
H2_2 C6_2 1_555 1_555
C10_2 C11_2 1_555 1_555
C11_2 C12_2 1_555 1_555
C12_2 H5_2 1_555 1_555
C13 C12_2 1_555 1_555
H6 C13 1_555 1_555
C14 C13 1_555 1_555
H7 C14 1_555 1_555
N3_2 C10_2 1_555 1_555
N4_2 C11_2 1_555 1_555
O1_2 C1_2 1_555 1_555
O5 C1_2 1_555 1_555
C2_2 C5_2 1_555 1_555
C3_2 H1_2 1_555 1_555
C5_2 C3_2 1_555 1_555
C7_2 C5_2 1_555 1_555
H3_2 C7_2 1_555 1_555
N1_2 C8_2 1_555 1_555
N2_2 C9_2 1_555 1_555
O6 C2_2 1_555 1_555
O4_2 C2_2 1_555 1_555
C7_2 C8_2 1_555 1_555
C9_2 N1_2 1_555 1_555
C1_3 C4_3 1_555 1_555
C2_3 C5_3 1_555 1_555
C3_3 H1_3 1_555 1_555
C4_3 C3_3 1_555 1_555
C5_3 C3_3 1_555 1_555
C6_3 C4_3 1_555 1_555
H2_3 C6_3 1_555 1_555
C7_3 C5_3 1_555 1_555
H3_3 C7_3 1_555 1_555
C8_3 C6_3 1_555 1_555
C9_3 H4_3 1_555 1_555
C10_3 C11_3 1_555 1_555
C11_3 C12_3 1_555 1_555
C12_3 H5_3 1_555 1_555
H8_3 C15_3 1_555 1_555
N1_3 C8_3 1_555 1_555
N5 C9_3 1_555 1_555
N3_3 C10_3 1_555 1_555
N4_3 C11_3 1_555 1_555
O1_3 C1_3 1_555 1_555
O2_2 C1_3 1_555 1_555
O3_2 C2_3 1_555 1_555
O4_3 C2_3 1_555 1_555
Zn4 N3_3 1_555 1_555
O5_2 Zn4 1_555 1_555
O6_2 Zn4 1_555 1_555
Zn4_2 O2_2 1_555 1_555
C7_3 C8_3 1_555 1_555
C9_3 N1_3 1_555 1_555
C10_3 N1_3 1_555 1_555
C15_3 N4_3 1_555 1_555
N5 N3_3 1_555 1_555
N4_3 Zn4 1_555 1_555
C2_4 C5_4 1_555 1_555
C3_4 H1_4 1_555 1_555
C5_4 C3_4 1_555 1_555
C7_4 C5_4 1_555 1_555
H3_4 C7_4 1_555 1_555
N1_4 C8_4 1_555 1_555
N5_2 C9_4 1_555 1_555
O6_2 C2_4 1_555 1_555
O4_4 C2_4 1_555 1_555
C7_4 C8_4 1_555 1_555
C9_4 N1_4 1_555 1_555
C1_4 C4_4 1_555 1_555
C6_4 C4_4 1_555 1_555
H2_4 C6_4 1_555 1_555
C10_4 C11_4 1_555 1_555
C11_4 C12_4 1_555 1_555
C12_4 H5_4 1_555 1_555
C13_2 C12_4 1_555 1_555
H6_2 C13_2 1_555 1_555
C14_2 C13_2 1_555 1_555
H7_2 C14_2 1_555 1_555
N3_4 C10_4 1_555 1_555
N4_4 C11_4 1_555 1_555
O1_4 C1_4 1_555 1_555
O5_2 C1_4 1_555 1_555
H8_4 C15_4 1_555 1_555
H6_3 C13_3 1_555 1_555
C14_3 C13_3 1_555 1_555
H7_3 C14_3 1_555 1_555
H6_4 C13_4 1_555 1_555
C14_4 C13_4 1_555 1_555
H7_4 C14_4 1_555 1_555

#END
