
###############################################################################
#
# This file contains modified crystal structure data generated from the
# MOF subset of the Cambridge Structural Database (CSD) v543 
# hosted by the Cambridge Crystallographic Data Centre (CCDC).
#
# This work is licensed under the Creative Commons
# Attribution-NonCommercial-ShareAlike 4.0 International License.
# To view a copy of this license, visit
# http://creativecommons.org/licenses/by-nc-sa/4.0/
# or send a letter to
# Creative Commons, PO Box 1866, Mountain View, CA 94042, USA.
#
# CIF created using the CSD Python API on 29 September 2022
# The structure has been converted into the P1 space group
# The structure has a 3D framework
# The original CSD entry TUMQID is in the monoclinic crystal system
# The framework has been calculated to contain at least 10.0% void space
# The void calculation uses a probe of radius 1.32A, grid spacing 0.4
#
###############################################################################

data_TUMQID
_chemical_formula_moiety         '(C60 H32 Cu2 N14 O16)n'
_symmetry_cell_setting           triclinic
_symmetry_space_group_name_H-M   'P 1'
_symmetry_Int_Tables_number      1
_space_group_name_Hall           'P 1'
loop_
_symmetry_equiv_pos_site_id
_symmetry_equiv_pos_as_xyz
1 x,y,z
_cell_length_a                   9.8660(11)
_cell_length_b                   17.646(2)
_cell_length_c                   11.9142(14)
_cell_angle_alpha                90
_cell_angle_beta                 96.014(9)
_cell_angle_gamma                90
_cell_volume                     2062.79
loop_
_atom_site_label
_atom_site_type_symbol
_atom_site_fract_x
_atom_site_fract_y
_atom_site_fract_z
Cu3 Cu 0.07597(5) 0.04365(2) 0.15226(4)
C1 C 0.3385(4) 0.09003(19) 0.1789(4)
C2 C 0.8493(4) 0.1350(2) 0.2159(3)
C3 C 0.5918(4) 0.11546(18) 0.1997(3)
H1 H 0.6036 0.0697 0.1615
C4 C 0.4614(4) 0.13761(18) 0.2195(3)
C5 C 0.7059(4) 0.15952(18) 0.2351(3)
C6 C 0.4419(4) 0.20560(18) 0.2776(3)
H2 H 0.3548 0.2209 0.2938
C7 C 0.6867(4) 0.22875(18) 0.2890(3)
H3 H 0.7612 0.2607 0.3105
C8 C 0.5570(4) 0.24931(17) 0.3101(3)
C9 C 0.5767(4) 0.33464(18) 0.4784(3)
H4 H 0.6179 0.2991 0.5300
C10 C 0.4848(4) 0.38753(17) 0.3246(3)
C11 C 0.4319(4) 0.40891(19) 0.2096(3)
C12 C 0.4270(6) 0.3639(2) 0.1144(4)
H5 H 0.4600 0.3139 0.1189
C13 C 0.3727(7) 0.3937(3) 0.0129(4)
C14 C 0.3235(7) 0.4674(3) 0.0075(4)
C15 C 0.3357(6) 0.5101(2) 0.1056(4)
H8 H 0.3053 0.5606 0.1023
N1 N 0.5384(3) 0.32071(14) 0.3680(3)
N2 N 0.5481(3) 0.40488(14) 0.5033(2)
N3 N 0.4890(3) 0.43815(14) 0.4054(2)
N4 N 0.3889(4) 0.48214(16) 0.2044(3)
O1 O 0.3532(3) 0.03143(16) 0.1246(3)
O2 O 0.2232(3) 0.11453(12) 0.2034(2)
O3 O 0.8676(3) 0.06711(14) 0.1880(3)
O4 O 0.9427(4) 0.18074(19) 0.2343(4)
Cu1 Cu 0.42403(5) 0.54365(2) 0.34774(4)
N5 N 0.4519(3) 0.59512(14) 0.4967(2)
O5 O 0.1468(3) 0.53143(16) 0.3754(3)
O6 O 0.2768(3) 0.61453(12) 0.2966(2)
O7 O 0.6324(3) 0.56711(14) 0.3120(3)
Cu4 Cu 0.57597(5) 0.45635(2) 0.65226(4)
C15_2 C 0.1643(6) 0.0101(2) 0.3944(4)
H8_2 H 0.1947 0.0606 0.3977
N5_2 N 0.0481(3) 0.09512(14) 0.0033(2)
C1_2 C 0.1615(4) 0.59003(19) 0.3211(4)
C4_2 C 0.0386(4) 0.63761(18) 0.2805(3)
C6_2 C 0.0581(4) 0.70560(18) 0.2224(3)
H2_2 H 0.1452 0.7209 0.2062
C10_2 C 0.0152(4) 0.88753(17) 0.1754(3)
C11_2 C 0.0681(4) 0.90891(19) 0.2904(3)
C12_2 C 0.0730(6) 0.8639(2) 0.3856(4)
H5_2 H 0.0400 0.8139 0.3811
C13_2 C 0.1273(7) 0.8937(3) 0.4871(4)
H6 H 0.1311 0.8641 0.5529
C14_2 C 0.1765(7) 0.9674(3) 0.4925(4)
H7 H 0.2170 0.9878 0.5608
N3_2 N 0.0110(3) 0.93815(14) 0.0946(2)
N4_2 N 0.1111(4) 0.98214(16) 0.2956(3)
C2_2 C 0.6507(4) 0.6350(2) 0.2841(3)
C3_2 C 0.9082(4) 0.61546(18) 0.3003(3)
H1_2 H 0.8964 0.5697 0.3385
C5_2 C 0.7941(4) 0.65952(18) 0.2649(3)
C7_2 C 0.8133(4) 0.72875(18) 0.2110(3)
H3_2 H 0.7388 0.7607 0.1895
C8_2 C 0.9430(4) 0.74931(17) 0.1899(3)
C9_2 C 0.9233(4) 0.83464(18) 0.0216(3)
N1_2 N 0.9616(3) 0.82071(14) 0.1320(3)
O4_2 O 0.5573(4) 0.68074(19) 0.2657(4)
H4_2 H 0.8821 0.7991 0.9700
N2_2 N 0.9519(3) 0.90488(14) 0.9967(2)
Cu4_2 Cu 0.92403(5) 0.95635(2) 0.84774(4)
C1_3 C 0.6615(4) 0.90997(19) 0.8211(4)
C2_3 C 0.1507(4) 0.8650(2) 0.7841(3)
C3_3 C 0.4082(4) 0.88454(18) 0.8003(3)
H1_3 H 0.3964 0.9303 0.8385
C4_3 C 0.5386(4) 0.86239(18) 0.7805(3)
C5_3 C 0.2941(4) 0.84048(18) 0.7649(3)
C6_3 C 0.5581(4) 0.79440(18) 0.7224(3)
H2_3 H 0.6452 0.7791 0.7062
C7_3 C 0.3133(4) 0.77125(18) 0.7110(3)
H3_3 H 0.2388 0.7393 0.6895
C8_3 C 0.4430(4) 0.75069(17) 0.6899(3)
C9_3 C 0.4233(4) 0.66536(18) 0.5216(3)
H4_3 H 0.3821 0.7009 0.4700
C10_3 C 0.5152(4) 0.61247(17) 0.6754(3)
C11_3 C 0.5681(4) 0.59109(19) 0.7904(3)
C12_3 C 0.5730(6) 0.6361(2) 0.8856(4)
H5_3 H 0.5400 0.6861 0.8811
C13_3 C 0.6273(7) 0.6063(3) 0.9871(4)
C14_3 C 0.6765(7) 0.5326(3) 0.9925(4)
C15_3 C 0.6643(6) 0.4899(2) 0.8944(4)
H8_3 H 0.6947 0.4394 0.8977
N1_3 N 0.4616(3) 0.67929(14) 0.6320(3)
N3_3 N 0.5110(3) 0.56185(14) 0.5946(2)
N4_3 N 0.6111(4) 0.51786(16) 0.7956(3)
O1_2 O 0.6468(3) 0.96857(16) 0.8754(3)
O2_2 O 0.7768(3) 0.88547(12) 0.7966(2)
O3_2 O 0.1324(3) 0.93289(14) 0.8120(3)
O4_3 O 0.0573(4) 0.81926(19) 0.7657(4)
O5_2 O 0.8532(3) 0.46857(16) 0.6246(3)
O6_2 O 0.7232(3) 0.38547(12) 0.7034(2)
O7_2 O 0.3676(3) 0.43289(14) 0.6880(3)
H4_4 H 0.1179 0.2009 0.0300
C2_4 C 0.3493(4) 0.3650(2) 0.7159(3)
C3_4 C 0.0918(4) 0.38454(18) 0.6997(3)
H1_4 H 0.1036 0.4303 0.6615
C5_4 C 0.2059(4) 0.34048(18) 0.7351(3)
C7_4 C 0.1867(4) 0.27125(18) 0.7890(3)
H3_4 H 0.2612 0.2393 0.8105
C8_4 C 0.0570(4) 0.25069(17) 0.8101(3)
C9_4 C 0.0767(4) 0.16536(18) 0.9784(3)
N1_4 N 0.0384(3) 0.17929(14) 0.8680(3)
O4_4 O 0.4427(4) 0.31926(19) 0.7343(4)
C1_4 C 0.8385(4) 0.40997(19) 0.6789(4)
C4_4 C 0.9614(4) 0.36239(18) 0.7195(3)
C6_4 C 0.9419(4) 0.29440(18) 0.7776(3)
H2_4 H 0.8548 0.2791 0.7938
C10_4 C 0.9848(4) 0.11247(17) 0.8246(3)
C11_4 C 0.9319(4) 0.09109(19) 0.7096(3)
C12_4 C 0.9270(6) 0.1361(2) 0.6144(4)
H5_4 H 0.9600 0.1861 0.6189
C13_4 C 0.8727(7) 0.1063(3) 0.5129(4)
H6_2 H 0.8689 0.1359 0.4471
C14_4 C 0.8235(7) 0.0326(3) 0.5075(4)
H7_2 H 0.7830 0.0122 0.4392
N3_4 N 0.9890(3) 0.06185(14) 0.9054(2)
N4_4 N 0.8889(4) 0.01786(16) 0.7044(3)
C15_4 C 0.8357(6) 0.9899(2) 0.6056(4)
H8_4 H 0.8053 0.9394 0.6023
H6_3 H 0.3689 0.3641 0.9471
H7_3 H 0.2830 0.4878 0.9392
H6_4 H 0.6311 0.6359 0.0529
H7_4 H 0.7170 0.5122 0.0608
loop_
_geom_bond_atom_site_label_1
_geom_bond_atom_site_label_2
_geom_bond_site_symmetry_1
_geom_bond_site_symmetry_2
C1 C4 1_555 1_555
C2 C5 1_555 1_555
C3 H1 1_555 1_555
C4 C3 1_555 1_555
C5 C3 1_555 1_555
C6 C4 1_555 1_555
H2 C6 1_555 1_555
C7 C5 1_555 1_555
H3 C7 1_555 1_555
C8 C6 1_555 1_555
C9 H4 1_555 1_555
C10 C11 1_555 1_555
C11 C12 1_555 1_555
C12 H5 1_555 1_555
C13 C12 1_555 1_555
C14 C13 1_555 1_555
C15 C14 1_555 1_555
H8 C15 1_555 1_555
N1 C8 1_555 1_555
N2 C9 1_555 1_555
N3 C10 1_555 1_555
N4 C11 1_555 1_555
O1 C1 1_555 1_555
O2 C1 1_555 1_555
O3 C2 1_555 1_555
O4 C2 1_555 1_555
Cu1 N3 1_555 1_555
N5 Cu1 1_555 1_555
O5 Cu1 1_555 1_555
O6 Cu1 1_555 1_555
O7 Cu1 1_555 1_555
Cu3 O1 1_555 1_555
Cu4 N2 1_555 1_555
C7 C8 1_555 1_555
C9 N1 1_555 1_555
C10 N1 1_555 1_555
C15 N4 1_555 1_555
N2 N3 1_555 1_555
N4 Cu1 1_555 1_555
O2 Cu3 1_555 1_555
H8_2 C15_2 1_555 1_555
N5_2 Cu3 1_555 1_555
C1_2 C4_2 1_555 1_555
C6_2 C4_2 1_555 1_555
H2_2 C6_2 1_555 1_555
C10_2 C11_2 1_555 1_555
C11_2 C12_2 1_555 1_555
C12_2 H5_2 1_555 1_555
C13_2 C12_2 1_555 1_555
H6 C13_2 1_555 1_555
C14_2 C13_2 1_555 1_555
H7 C14_2 1_555 1_555
N3_2 C10_2 1_555 1_555
N4_2 C11_2 1_555 1_555
O5 C1_2 1_555 1_555
O6 C1_2 1_555 1_555
C2_2 C5_2 1_555 1_555
C3_2 H1_2 1_555 1_555
C5_2 C3_2 1_555 1_555
C7_2 C5_2 1_555 1_555
H3_2 C7_2 1_555 1_555
N1_2 C8_2 1_555 1_555
O7 C2_2 1_555 1_555
O4_2 C2_2 1_555 1_555
C7_2 C8_2 1_555 1_555
C9_2 N1_2 1_555 1_555
Cu4_2 N2_2 1_555 1_555
C1_3 C4_3 1_555 1_555
C2_3 C5_3 1_555 1_555
C3_3 H1_3 1_555 1_555
C4_3 C3_3 1_555 1_555
C5_3 C3_3 1_555 1_555
C6_3 C4_3 1_555 1_555
H2_3 C6_3 1_555 1_555
C7_3 C5_3 1_555 1_555
H3_3 C7_3 1_555 1_555
C8_3 C6_3 1_555 1_555
C9_3 H4_3 1_555 1_555
C10_3 C11_3 1_555 1_555
C11_3 C12_3 1_555 1_555
C12_3 H5_3 1_555 1_555
C13_3 C12_3 1_555 1_555
C14_3 C13_3 1_555 1_555
C15_3 C14_3 1_555 1_555
H8_3 C15_3 1_555 1_555
N1_3 C8_3 1_555 1_555
N5 C9_3 1_555 1_555
N3_3 C10_3 1_555 1_555
N4_3 C11_3 1_555 1_555
O1_2 C1_3 1_555 1_555
O2_2 C1_3 1_555 1_555
O3_2 C2_3 1_555 1_555
O4_3 C2_3 1_555 1_555
Cu4 N3_3 1_555 1_555
O5_2 Cu4 1_555 1_555
O6_2 Cu4 1_555 1_555
O7_2 Cu4 1_555 1_555
Cu4_2 O1_2 1_555 1_555
C7_3 C8_3 1_555 1_555
C9_3 N1_3 1_555 1_555
C10_3 N1_3 1_555 1_555
C15_3 N4_3 1_555 1_555
N5 N3_3 1_555 1_555
N4_3 Cu4 1_555 1_555
O2_2 Cu4_2 1_555 1_555
C2_4 C5_4 1_555 1_555
C3_4 H1_4 1_555 1_555
C5_4 C3_4 1_555 1_555
C7_4 C5_4 1_555 1_555
H3_4 C7_4 1_555 1_555
N1_4 C8_4 1_555 1_555
O7_2 C2_4 1_555 1_555
O4_4 C2_4 1_555 1_555
C7_4 C8_4 1_555 1_555
C9_4 N1_4 1_555 1_555
C1_4 C4_4 1_555 1_555
C6_4 C4_4 1_555 1_555
H2_4 C6_4 1_555 1_555
C10_4 C11_4 1_555 1_555
C11_4 C12_4 1_555 1_555
C12_4 H5_4 1_555 1_555
C13_4 C12_4 1_555 1_555
H6_2 C13_4 1_555 1_555
C14_4 C13_4 1_555 1_555
H7_2 C14_4 1_555 1_555
N3_4 C10_4 1_555 1_555
N4_4 C11_4 1_555 1_555
O5_2 C1_4 1_555 1_555
O6_2 C1_4 1_555 1_555
H8_4 C15_4 1_555 1_555

#END
