
###############################################################################
#
# This file contains modified crystal structure data generated from the
# MOF subset of the Cambridge Structural Database (CSD) v543 
# hosted by the Cambridge Crystallographic Data Centre (CCDC).
#
# This work is licensed under the Creative Commons
# Attribution-NonCommercial-ShareAlike 4.0 International License.
# To view a copy of this license, visit
# http://creativecommons.org/licenses/by-nc-sa/4.0/
# or send a letter to
# Creative Commons, PO Box 1866, Mountain View, CA 94042, USA.
#
# CIF created using the CSD Python API on 29 September 2022
# The structure has been converted into the P1 space group
# The structure has a 3D framework
# The original CSD entry TUMQUP is in the monoclinic crystal system
# The framework has been calculated to contain at least 10.0% void space
# The void calculation uses a probe of radius 1.32A, grid spacing 0.4
#
###############################################################################

data_TUMQUP
_chemical_formula_moiety         '(C60 H36 Co2 N20 O16)n'
_symmetry_cell_setting           triclinic
_symmetry_space_group_name_H-M   'P 1'
_symmetry_Int_Tables_number      1
_space_group_name_Hall           'P 1'
loop_
_symmetry_equiv_pos_site_id
_symmetry_equiv_pos_as_xyz
1 x,y,z
_cell_length_a                   9.9547(13)
_cell_length_b                   17.5327(16)
_cell_length_c                   11.8945(14)
_cell_angle_alpha                90
_cell_angle_beta                 98.436(10)
_cell_angle_gamma                90
_cell_volume                     2053.52
loop_
_atom_site_label
_atom_site_type_symbol
_atom_site_fract_x
_atom_site_fract_y
_atom_site_fract_z
Co3 Co 0.04930(3) 0.04564(2) 0.15716(3)
C1 C 0.3262(3) 0.07922(16) 0.1854(2)
C2 C 0.8335(3) 0.12281(17) 0.2099(2)
C3 C 0.5800(3) 0.10283(14) 0.2006(2)
H1 H 0.5885 0.0554 0.1637
C4 C 0.4523(2) 0.12681(14) 0.2233(2)
C5 C 0.6951(2) 0.14820(14) 0.2320(2)
C6 C 0.4398(2) 0.19571(14) 0.2784(2)
H2 H 0.3544 0.2114 0.2971
C7 C 0.6810(2) 0.21928(14) 0.2838(2)
H3 H 0.7575 0.2516 0.3033
C8 C 0.5542(2) 0.24159(13) 0.3060(2)
C9 C 0.6237(3) 0.26488(15) 0.5579(2)
H4 H 0.7154 0.2523 0.5430
H5 H 0.5664 0.2192 0.5475
H6 H 0.6280 0.2834 0.6361
C10 C 0.5647(2) 0.32528(14) 0.4774(2)
C11 C 0.4913(2) 0.38152(13) 0.3161(2)
C12 C 0.4465(2) 0.40290(14) 0.1955(2)
C13 C 0.4366(3) 0.35603(15) 0.1015(2)
H7 H 0.4699 0.3053 0.1105
C15 C 0.3561(3) 0.50237(17) 0.0831(2)
H9 H 0.3294 0.5542 0.0732
N1 N 0.5389(2) 0.31392(11) 0.36200(17)
N2 N 0.53377(19) 0.39665(11) 0.49992(16)
N3 N 0.48645(19) 0.43193(11) 0.39768(17)
N4 N 0.4105(2) 0.47743(13) 0.18603(18)
O1 O 0.3296(3) 0.02537(14) 0.1178(2)
O2 O 0.22030(18) 0.10028(11) 0.22350(17)
O3 O 0.8498(2) 0.05376(13) 0.1851(2)
O4 O 0.9285(2) 0.1694(2) 0.2185(2)
Co1 Co 0.45070(3) 0.54564(2) 0.34284(3)
N6 N 0.46623(19) 0.60335(11) 0.50008(16)
O5 O 0.27970(18) 0.60028(11) 0.27650(17)
O6 O 0.6502(2) 0.55376(13) 0.3149(2)
Co4 Co 0.54930(3) 0.45436(2) 0.65716(3)
C15_2 C 0.1439(3) 0.00237(17) 0.4169(2)
H9_2 H 0.1706 0.0542 0.4268
N6_2 N 0.03377(19) 0.10335(11) -0.00008(16)
N6_3 N 0.03377(19) 0.10335(11) 0.99992(16)
C1_2 C 0.1738(3) 0.57922(16) 0.3146(2)
C4_2 C 0.0477(2) 0.62681(14) 0.2767(2)
C6_2 C 0.0602(2) 0.69571(14) 0.2216(2)
H2_2 H 0.1456 0.7114 0.2029
C11_2 C 0.0087(2) 0.88152(13) 0.1839(2)
C12_2 C 0.0535(2) 0.90290(14) 0.3045(2)
C13_2 C 0.0634(3) 0.85603(15) 0.3985(2)
H7_2 H 0.0301 0.8053 0.3895
C14 C 0.1619(4) 0.95257(17) 0.5103(3)
H8 H 0.2060 0.9710 0.5814
N3_2 N 0.01355(19) 0.93193(11) 0.10232(17)
N4_2 N 0.0895(2) 0.97743(13) 0.31397(18)
N5 N 0.1192(3) 0.88007(15) 0.50291(19)
O1_2 O 0.1704(3) 0.52537(14) 0.3822(2)
C2_2 C 0.6665(3) 0.62281(17) 0.2901(2)
C3_2 C 0.9200(3) 0.60283(14) 0.2994(2)
H1_2 H 0.9115 0.5554 0.3363
C5_2 C 0.8049(2) 0.64820(14) 0.2680(2)
C7_2 C 0.8190(2) 0.71928(14) 0.2162(2)
H3_2 H 0.7425 0.7516 0.1967
C8_2 C 0.9458(2) 0.74159(13) 0.1940(2)
C10_2 C 0.9353(2) 0.82528(14) 0.0226(2)
N1_2 N 0.9611(2) 0.81392(11) 0.13800(17)
N2_2 N 0.96623(19) 0.89665(11) 0.00008(16)
O4_2 O 0.5715(2) 0.6694(2) 0.2815(2)
C9_2 C 0.8763(3) 0.76488(15) 0.9421(2)
H4_2 H 0.7846 0.7523 0.9570
H5_2 H 0.9336 0.7192 0.9525
H6_2 H 0.8720 0.7834 0.8639
N2_3 N 0.96623(19) 0.89665(11) 1.00008(16)
Co4_2 Co 0.95070(3) 0.95436(2) 0.84284(3)
C1_3 C 0.6738(3) 0.92078(16) 0.8146(2)
C2_3 C 0.1665(3) 0.87719(17) 0.7901(2)
C3_3 C 0.4200(3) 0.89717(14) 0.7994(2)
H1_3 H 0.4115 0.9446 0.8363
C4_3 C 0.5477(2) 0.87319(14) 0.7767(2)
C5_3 C 0.3049(2) 0.85180(14) 0.7680(2)
C6_3 C 0.5602(2) 0.80429(14) 0.7216(2)
H2_3 H 0.6456 0.7886 0.7029
C7_3 C 0.3190(2) 0.78072(14) 0.7162(2)
H3_3 H 0.2425 0.7484 0.6967
C8_3 C 0.4458(2) 0.75841(13) 0.6940(2)
C9_3 C 0.3763(3) 0.73512(15) 0.4421(2)
H4_3 H 0.2846 0.7477 0.4570
H5_3 H 0.4336 0.7808 0.4525
H6_3 H 0.3720 0.7166 0.3639
C10_3 C 0.4353(2) 0.67472(14) 0.5226(2)
C11_3 C 0.5087(2) 0.61848(13) 0.6839(2)
C12_3 C 0.5535(2) 0.59710(14) 0.8045(2)
C13_3 C 0.5634(3) 0.64397(15) 0.8985(2)
H7_3 H 0.5301 0.6947 0.8895
C15_3 C 0.6439(3) 0.49763(17) 0.9169(2)
H9_3 H 0.6706 0.4458 0.9268
N1_3 N 0.4611(2) 0.68608(11) 0.63800(17)
N3_3 N 0.51355(19) 0.56807(11) 0.60232(17)
N4_3 N 0.5895(2) 0.52257(13) 0.81397(18)
O1_3 O 0.6704(3) 0.97463(14) 0.8822(2)
O2_2 O 0.77970(18) 0.89972(11) 0.77650(17)
O3_2 O 0.1502(2) 0.94624(13) 0.8149(2)
O4_3 O 0.0715(2) 0.8306(2) 0.7815(2)
O5_2 O 0.72030(18) 0.39972(11) 0.72350(17)
O6_2 O 0.3498(2) 0.44624(13) 0.6851(2)
C9_4 C 0.1237(3) 0.23512(15) 0.0579(2)
H4_4 H 0.2154 0.2477 0.0430
H5_4 H 0.0664 0.2808 0.0475
H6_4 H 0.1280 0.2166 0.1361
C2_4 C 0.3335(3) 0.37719(17) 0.7099(2)
C3_4 C 0.0800(3) 0.39717(14) 0.7006(2)
H1_4 H 0.0885 0.4446 0.6637
C5_4 C 0.1951(2) 0.35180(14) 0.7320(2)
C7_4 C 0.1810(2) 0.28072(14) 0.7838(2)
H3_4 H 0.2575 0.2484 0.8033
C8_4 C 0.0542(2) 0.25841(13) 0.8060(2)
C10_4 C 0.0647(2) 0.17472(14) 0.9774(2)
N1_4 N 0.0389(2) 0.18608(11) 0.86200(17)
O4_4 O 0.4285(2) 0.3306(2) 0.7185(2)
C1_4 C 0.8262(3) 0.42078(16) 0.6854(2)
C4_4 C 0.9523(2) 0.37319(14) 0.7233(2)
C6_4 C 0.9398(2) 0.30429(14) 0.7784(2)
H2_4 H 0.8544 0.2886 0.7971
C11_4 C 0.9913(2) 0.11848(13) 0.8161(2)
C12_4 C 0.9465(2) 0.09710(14) 0.6955(2)
C13_4 C 0.9366(3) 0.14397(15) 0.6015(2)
H7_4 H 0.9699 0.1947 0.6105
C14_2 C 0.8381(4) 0.04743(17) 0.4897(3)
H8_2 H 0.7940 0.0290 0.4186
N3_4 N 0.98645(19) 0.06807(11) 0.89768(17)
N4_4 N 0.9105(2) 0.02257(13) 0.68603(18)
N5_2 N 0.8808(3) 0.11993(15) 0.49709(19)
O1_4 O 0.8296(3) 0.47463(14) 0.6178(2)
C15_4 C 0.8561(3) 0.99763(17) 0.5831(2)
H9_4 H 0.8294 0.9458 0.5732
C14_3 C 0.3381(4) 0.45257(17) 0.9897(3)
H8_3 H 0.2940 0.4710 0.9186
N5_3 N 0.3808(3) 0.38007(15) 0.99709(19)
C14_4 C 0.6619(4) 0.54743(17) 0.0103(3)
H8_4 H 0.7060 0.5290 0.0814
N5_4 N 0.6192(3) 0.61993(15) 0.00291(19)
loop_
_geom_bond_atom_site_label_1
_geom_bond_atom_site_label_2
_geom_bond_site_symmetry_1
_geom_bond_site_symmetry_2
C1 C4 1_555 1_555
C2 C5 1_555 1_555
C3 H1 1_555 1_555
C4 C3 1_555 1_555
C5 C3 1_555 1_555
C6 C4 1_555 1_555
H2 C6 1_555 1_555
C7 C5 1_555 1_555
H3 C7 1_555 1_555
C8 C6 1_555 1_555
C9 H4 1_555 1_555
H5 C9 1_555 1_555
H6 C9 1_555 1_555
C10 C9 1_555 1_555
C11 C12 1_555 1_555
C12 C13 1_555 1_555
C13 H7 1_555 1_555
H9 C15 1_555 1_555
N1 C8 1_555 1_555
N2 C10 1_555 1_555
N3 C11 1_555 1_555
N4 C12 1_555 1_555
O1 C1 1_555 1_555
O2 C1 1_555 1_555
O3 C2 1_555 1_555
O4 C2 1_555 1_555
Co1 N3 1_555 1_555
N6 Co1 1_555 1_555
O5 Co1 1_555 1_555
O6 Co1 1_555 1_555
Co3 O2 1_555 1_555
Co4 N2 1_555 1_555
C7 C8 1_555 1_555
C10 N1 1_555 1_555
C11 N1 1_555 1_555
C15 N4 1_555 1_555
N2 N3 1_555 1_555
N4 Co1 1_555 1_555
H9_2 C15_2 1_555 1_555
N6_2 Co3 1_555 1_555
C1_2 C4_2 1_555 1_555
C6_2 C4_2 1_555 1_555
H2_2 C6_2 1_555 1_555
C11_2 C12_2 1_555 1_555
C12_2 C13_2 1_555 1_555
C13_2 H7_2 1_555 1_555
C14 H8 1_555 1_555
N3_2 C11_2 1_555 1_555
N4_2 C12_2 1_555 1_555
N5 C13_2 1_555 1_555
O1_2 C1_2 1_555 1_555
O5 C1_2 1_555 1_555
C14 N5 1_555 1_555
C2_2 C5_2 1_555 1_555
C3_2 H1_2 1_555 1_555
C5_2 C3_2 1_555 1_555
C7_2 C5_2 1_555 1_555
H3_2 C7_2 1_555 1_555
N1_2 C8_2 1_555 1_555
N2_2 C10_2 1_555 1_555
O6 C2_2 1_555 1_555
O4_2 C2_2 1_555 1_555
C7_2 C8_2 1_555 1_555
C10_2 N1_2 1_555 1_555
C9_2 H4_2 1_555 1_555
H5_2 C9_2 1_555 1_555
H6_2 C9_2 1_555 1_555
Co4_2 N2_3 1_555 1_555
C1_3 C4_3 1_555 1_555
C2_3 C5_3 1_555 1_555
C3_3 H1_3 1_555 1_555
C4_3 C3_3 1_555 1_555
C5_3 C3_3 1_555 1_555
C6_3 C4_3 1_555 1_555
H2_3 C6_3 1_555 1_555
C7_3 C5_3 1_555 1_555
H3_3 C7_3 1_555 1_555
C8_3 C6_3 1_555 1_555
C9_3 H4_3 1_555 1_555
H5_3 C9_3 1_555 1_555
H6_3 C9_3 1_555 1_555
C10_3 C9_3 1_555 1_555
C11_3 C12_3 1_555 1_555
C12_3 C13_3 1_555 1_555
C13_3 H7_3 1_555 1_555
H9_3 C15_3 1_555 1_555
N1_3 C8_3 1_555 1_555
N6 C10_3 1_555 1_555
N3_3 C11_3 1_555 1_555
N4_3 C12_3 1_555 1_555
O1_3 C1_3 1_555 1_555
O2_2 C1_3 1_555 1_555
O3_2 C2_3 1_555 1_555
O4_3 C2_3 1_555 1_555
Co4 N3_3 1_555 1_555
O5_2 Co4 1_555 1_555
O6_2 Co4 1_555 1_555
Co4_2 O2_2 1_555 1_555
C7_3 C8_3 1_555 1_555
C10_3 N1_3 1_555 1_555
C11_3 N1_3 1_555 1_555
C15_3 N4_3 1_555 1_555
N6 N3_3 1_555 1_555
N4_3 Co4 1_555 1_555
C9_4 H4_4 1_555 1_555
H5_4 C9_4 1_555 1_555
H6_4 C9_4 1_555 1_555
C2_4 C5_4 1_555 1_555
C3_4 H1_4 1_555 1_555
C5_4 C3_4 1_555 1_555
C7_4 C5_4 1_555 1_555
H3_4 C7_4 1_555 1_555
N1_4 C8_4 1_555 1_555
N6_3 C10_4 1_555 1_555
O6_2 C2_4 1_555 1_555
O4_4 C2_4 1_555 1_555
C7_4 C8_4 1_555 1_555
C10_4 N1_4 1_555 1_555
C1_4 C4_4 1_555 1_555
C6_4 C4_4 1_555 1_555
H2_4 C6_4 1_555 1_555
C11_4 C12_4 1_555 1_555
C12_4 C13_4 1_555 1_555
C13_4 H7_4 1_555 1_555
C14_2 H8_2 1_555 1_555
N3_4 C11_4 1_555 1_555
N4_4 C12_4 1_555 1_555
N5_2 C13_4 1_555 1_555
O1_4 C1_4 1_555 1_555
O5_2 C1_4 1_555 1_555
C14_2 N5_2 1_555 1_555
H9_4 C15_4 1_555 1_555
C14_3 H8_3 1_555 1_555
C14_3 N5_3 1_555 1_555
C14_4 H8_4 1_555 1_555
C14_4 N5_4 1_555 1_555

#END
