
###############################################################################
#
# This file contains modified crystal structure data generated from the
# MOF subset of the Cambridge Structural Database (CSD) v543 
# hosted by the Cambridge Crystallographic Data Centre (CCDC).
#
# This work is licensed under the Creative Commons
# Attribution-NonCommercial-ShareAlike 4.0 International License.
# To view a copy of this license, visit
# http://creativecommons.org/licenses/by-nc-sa/4.0/
# or send a letter to
# Creative Commons, PO Box 1866, Mountain View, CA 94042, USA.
#
# CIF created using the CSD Python API on 29 September 2022
# The structure has been converted into the P1 space group
# The structure has a 3D framework
# The original CSD entry TUMRAW is in the monoclinic crystal system
# The framework has been calculated to contain at least 10.0% void space
# The void calculation uses a probe of radius 1.32A, grid spacing 0.4
#
###############################################################################

data_TUMRAW
_chemical_formula_moiety         '(C60 H36 Cu2 N18 O16)n'
_symmetry_cell_setting           triclinic
_symmetry_space_group_name_H-M   'P 1'
_symmetry_Int_Tables_number      1
_space_group_name_Hall           'P 1'
loop_
_symmetry_equiv_pos_site_id
_symmetry_equiv_pos_as_xyz
1 x,y,z
_cell_length_a                   10.0802(12)
_cell_length_b                   17.451(3)
_cell_length_c                   11.5185(15)
_cell_angle_alpha                90
_cell_angle_beta                 99.781(10)
_cell_angle_gamma                90
_cell_volume                     1996.76
loop_
_atom_site_label
_atom_site_type_symbol
_atom_site_fract_x
_atom_site_fract_y
_atom_site_fract_z
Cu3 Cu 0.06811(6) 0.05000(3) 0.16274(5)
C1 C 0.3487(6) 0.0783(3) 0.1750(6)
C2 C 0.8495(5) 0.1338(3) 0.2063(4)
C3 C 0.5979(6) 0.1083(3) 0.1897(5)
H1 H 0.6091 0.0610 0.1519
C4 C 0.4704(5) 0.1290(3) 0.2115(5)
C5 C 0.7090(5) 0.1560(3) 0.2226(4)
C6 C 0.4538(5) 0.1984(3) 0.2686(4)
H2 H 0.3687 0.2123 0.2869
C7 C 0.6916(5) 0.2267(3) 0.2759(4)
H3 H 0.7657 0.2605 0.2966
C8 C 0.5652(5) 0.2467(3) 0.2981(4)
C9 C 0.6483(6) 0.2648(3) 0.5581(5)
H4 H 0.7433 0.2618 0.5498
H5 H 0.6045 0.2154 0.5363
H6 H 0.6416 0.2768 0.6400
C10 C 0.5807(5) 0.3258(3) 0.4794(4)
C11 C 0.4928(5) 0.3862(3) 0.3162(4)
C12 C 0.4442(5) 0.4109(3) 0.1953(4)
C13 C 0.4389(6) 0.3671(3) 0.0926(5)
H7 H 0.4748 0.3166 0.0986
C15 C 0.3434(6) 0.5112(3) 0.0813(5)
H9 H 0.3090 0.5619 0.0740
N1 N 0.5473(4) 0.3173(2) 0.3595(3)
N2 N 0.5467(4) 0.3965(2) 0.5082(4)
N3 N 0.4902(4) 0.4339(2) 0.4049(3)
N4 N 0.3996(4) 0.4850(2) 0.1874(4)
O1 O 0.3518(5) 0.0270(3) 0.0982(5)
O2 O 0.2442(4) 0.0960(2) 0.2152(3)
O3 O 0.8687(4) 0.06345(19) 0.1820(3)
O4 O 0.9395(4) 0.1843(2) 0.2161(3)
Cu1 Cu 0.43189(6) 0.55000(3) 0.33726(5)
N6 N 0.4533(4) 0.6035(2) 0.4918(4)
O5 O 0.2558(4) 0.5960(2) 0.2848(3)
O6 O 0.6313(4) 0.56345(19) 0.3180(3)
O7 O 0.5605(4) 0.6843(2) 0.2839(3)
Cu4 Cu 0.56811(6) 0.45000(3) 0.66274(5)
C15_2 C 0.1566(6) 0.0112(3) 0.4187(5)
H9_2 H 0.1910 0.0619 0.4260
N6_2 N 0.0467(4) 0.1035(2) 0.0082(4)
C1_2 C 0.1513(6) 0.5783(3) 0.3250(6)
C4_2 C 0.0296(5) 0.6290(3) 0.2885(5)
C6_2 C 0.0462(5) 0.6984(3) 0.2314(4)
H2_2 H 0.1313 0.7123 0.2131
C11_2 C 0.0072(5) 0.8862(3) 0.1838(4)
C12_2 C 0.0558(5) 0.9109(3) 0.3047(4)
C13_2 C 0.0611(6) 0.8671(3) 0.4074(5)
H7_2 H 0.0252 0.8166 0.4014
C14 C 0.1657(6) 0.9653(3) 0.5185(5)
H8 H 0.2092 0.9852 0.5920
N3_2 N 0.0098(4) 0.9339(2) 0.0951(3)
N4_2 N 0.1004(4) 0.9850(2) 0.3126(4)
N5 N 0.1156(5) 0.8945(3) 0.5148(4)
O1_2 O 0.1482(5) 0.5270(3) 0.4018(5)
C2_2 C 0.6505(5) 0.6338(3) 0.2937(4)
C3_2 C 0.9021(6) 0.6083(3) 0.3103(5)
H1_2 H 0.8909 0.5610 0.3481
C5_2 C 0.7910(5) 0.6560(3) 0.2774(4)
C7_2 C 0.8084(5) 0.7267(3) 0.2241(4)
H3_2 H 0.7343 0.7605 0.2034
C8_2 C 0.9348(5) 0.7467(3) 0.2019(4)
C10_2 C 0.9193(5) 0.8258(3) 0.0206(4)
N1_2 N 0.9527(4) 0.8173(2) 0.1405(3)
C9_2 C 0.8517(6) 0.7648(3) 0.9419(5)
H4_2 H 0.7567 0.7618 0.9502
H5_2 H 0.8955 0.7154 0.9637
H6_2 H 0.8584 0.7768 0.8600
N2_2 N 0.9533(4) 0.8965(2) 0.9918(4)
Cu4_2 Cu 0.93189(6) 0.95000(3) 0.83726(5)
C1_3 C 0.6513(6) 0.9217(3) 0.8250(6)
C2_3 C 0.1505(5) 0.8662(3) 0.7937(4)
C3_3 C 0.4021(6) 0.8917(3) 0.8103(5)
H1_3 H 0.3909 0.9390 0.8481
C4_3 C 0.5296(5) 0.8710(3) 0.7885(5)
C5_3 C 0.2910(5) 0.8440(3) 0.7774(4)
C6_3 C 0.5462(5) 0.8016(3) 0.7314(4)
H2_3 H 0.6313 0.7877 0.7131
C7_3 C 0.3084(5) 0.7733(3) 0.7241(4)
H3_3 H 0.2343 0.7395 0.7034
C8_3 C 0.4348(5) 0.7533(3) 0.7019(4)
C9_3 C 0.3517(6) 0.7352(3) 0.4419(5)
H4_3 H 0.2567 0.7382 0.4502
H5_3 H 0.3955 0.7846 0.4637
H6_3 H 0.3584 0.7232 0.3600
C10_3 C 0.4193(5) 0.6742(3) 0.5206(4)
C11_3 C 0.5072(5) 0.6138(3) 0.6838(4)
C12_3 C 0.5558(5) 0.5891(3) 0.8047(4)
C13_3 C 0.5611(6) 0.6329(3) 0.9074(5)
H7_3 H 0.5252 0.6834 0.9014
C15_3 C 0.6566(6) 0.4888(3) 0.9187(5)
H9_3 H 0.6910 0.4381 0.9260
N1_3 N 0.4527(4) 0.6827(2) 0.6405(3)
N3_3 N 0.5098(4) 0.5661(2) 0.5951(3)
N4_3 N 0.6004(4) 0.5150(2) 0.8126(4)
O1_3 O 0.6482(5) 0.9730(3) 0.9018(5)
O2_2 O 0.7558(4) 0.9040(2) 0.7848(3)
O3_2 O 0.1313(4) 0.93655(19) 0.8180(3)
O4_2 O 0.0605(4) 0.8157(2) 0.7839(3)
O5_2 O 0.7442(4) 0.4040(2) 0.7152(3)
O6_2 O 0.3687(4) 0.43655(19) 0.6820(3)
O7_2 O 0.4395(4) 0.3157(2) 0.7161(3)
C9_4 C 0.1483(6) 0.2352(3) 0.0581(5)
H4_4 H 0.2433 0.2382 0.0498
H5_4 H 0.1045 0.2846 0.0363
H6_4 H 0.1416 0.2232 0.1400
C2_4 C 0.3495(5) 0.3662(3) 0.7063(4)
C3_4 C 0.0979(6) 0.3917(3) 0.6897(5)
H1_4 H 0.1091 0.4390 0.6519
C5_4 C 0.2090(5) 0.3440(3) 0.7226(4)
C7_4 C 0.1916(5) 0.2733(3) 0.7759(4)
H3_4 H 0.2657 0.2395 0.7966
C8_4 C 0.0652(5) 0.2533(3) 0.7981(4)
C10_4 C 0.0807(5) 0.1742(3) 0.9794(4)
N1_4 N 0.0473(4) 0.1827(2) 0.8595(3)
C1_4 C 0.8487(6) 0.4217(3) 0.6750(6)
C4_4 C 0.9704(5) 0.3710(3) 0.7115(5)
C6_4 C 0.9538(5) 0.3016(3) 0.7686(4)
H2_4 H 0.8687 0.2877 0.7869
C11_4 C 0.9928(5) 0.1138(3) 0.8162(4)
C12_4 C 0.9442(5) 0.0891(3) 0.6953(4)
C13_4 C 0.9389(6) 0.1329(3) 0.5926(5)
H7_4 H 0.9748 0.1834 0.5986
C14_2 C 0.8343(6) 0.0347(3) 0.4815(5)
H8_2 H 0.7908 0.0148 0.4080
N3_4 N 0.9902(4) 0.0661(2) 0.9049(3)
N4_4 N 0.8996(4) 0.0150(2) 0.6874(4)
N5_2 N 0.8844(5) 0.1055(3) 0.4852(4)
O1_4 O 0.8518(5) 0.4730(3) 0.5982(5)
C15_4 C 0.8434(6) 0.9888(3) 0.5813(5)
H9_4 H 0.8090 0.9381 0.5740
C14_3 C 0.3343(6) 0.4653(3) 0.9815(5)
H8_3 H 0.2908 0.4852 0.9080
N5_3 N 0.3844(5) 0.3945(3) 0.9852(4)
C14_4 C 0.6657(6) 0.5347(3) 0.0185(5)
H8_4 H 0.7092 0.5148 0.0920
N5_4 N 0.6156(5) 0.6055(3) 0.0148(4)
loop_
_geom_bond_atom_site_label_1
_geom_bond_atom_site_label_2
_geom_bond_site_symmetry_1
_geom_bond_site_symmetry_2
C1 C4 1_555 1_555
C2 C5 1_555 1_555
C3 H1 1_555 1_555
C4 C3 1_555 1_555
C5 C3 1_555 1_555
C6 C4 1_555 1_555
H2 C6 1_555 1_555
C7 C5 1_555 1_555
H3 C7 1_555 1_555
C8 C6 1_555 1_555
C9 H4 1_555 1_555
H5 C9 1_555 1_555
H6 C9 1_555 1_555
C10 C9 1_555 1_555
C11 C12 1_555 1_555
C12 C13 1_555 1_555
C13 H7 1_555 1_555
H9 C15 1_555 1_555
N1 C8 1_555 1_555
N2 C10 1_555 1_555
N3 C11 1_555 1_555
N4 C12 1_555 1_555
O1 C1 1_555 1_555
O2 C1 1_555 1_555
O3 C2 1_555 1_555
O4 C2 1_555 1_555
Cu1 N3 1_555 1_555
N6 Cu1 1_555 1_555
O5 Cu1 1_555 1_555
O6 Cu1 1_555 1_555
O7 Cu1 1_555 1_555
Cu3 O2 1_555 1_555
Cu4 N2 1_555 1_555
C7 C8 1_555 1_555
C10 N1 1_555 1_555
C11 N1 1_555 1_555
C15 N4 1_555 1_555
N2 N3 1_555 1_555
N4 Cu1 1_555 1_555
H9_2 C15_2 1_555 1_555
N6_2 Cu3 1_555 1_555
C1_2 C4_2 1_555 1_555
C6_2 C4_2 1_555 1_555
H2_2 C6_2 1_555 1_555
C11_2 C12_2 1_555 1_555
C12_2 C13_2 1_555 1_555
C13_2 H7_2 1_555 1_555
C14 H8 1_555 1_555
N3_2 C11_2 1_555 1_555
N4_2 C12_2 1_555 1_555
N5 C13_2 1_555 1_555
O1_2 C1_2 1_555 1_555
O5 C1_2 1_555 1_555
C14 N5 1_555 1_555
C2_2 C5_2 1_555 1_555
C3_2 H1_2 1_555 1_555
C5_2 C3_2 1_555 1_555
C7_2 C5_2 1_555 1_555
H3_2 C7_2 1_555 1_555
N1_2 C8_2 1_555 1_555
O6 C2_2 1_555 1_555
O7 C2_2 1_555 1_555
C7_2 C8_2 1_555 1_555
C10_2 N1_2 1_555 1_555
C9_2 H4_2 1_555 1_555
H5_2 C9_2 1_555 1_555
H6_2 C9_2 1_555 1_555
Cu4_2 N2_2 1_555 1_555
C1_3 C4_3 1_555 1_555
C2_3 C5_3 1_555 1_555
C3_3 H1_3 1_555 1_555
C4_3 C3_3 1_555 1_555
C5_3 C3_3 1_555 1_555
C6_3 C4_3 1_555 1_555
H2_3 C6_3 1_555 1_555
C7_3 C5_3 1_555 1_555
H3_3 C7_3 1_555 1_555
C8_3 C6_3 1_555 1_555
C9_3 H4_3 1_555 1_555
H5_3 C9_3 1_555 1_555
H6_3 C9_3 1_555 1_555
C10_3 C9_3 1_555 1_555
C11_3 C12_3 1_555 1_555
C12_3 C13_3 1_555 1_555
C13_3 H7_3 1_555 1_555
H9_3 C15_3 1_555 1_555
N1_3 C8_3 1_555 1_555
N6 C10_3 1_555 1_555
N3_3 C11_3 1_555 1_555
N4_3 C12_3 1_555 1_555
O1_3 C1_3 1_555 1_555
O2_2 C1_3 1_555 1_555
O3_2 C2_3 1_555 1_555
O4_2 C2_3 1_555 1_555
Cu4 N3_3 1_555 1_555
O5_2 Cu4 1_555 1_555
O6_2 Cu4 1_555 1_555
O7_2 Cu4 1_555 1_555
Cu4_2 O2_2 1_555 1_555
C7_3 C8_3 1_555 1_555
C10_3 N1_3 1_555 1_555
C11_3 N1_3 1_555 1_555
C15_3 N4_3 1_555 1_555
N6 N3_3 1_555 1_555
N4_3 Cu4 1_555 1_555
C9_4 H4_4 1_555 1_555
H5_4 C9_4 1_555 1_555
H6_4 C9_4 1_555 1_555
C2_4 C5_4 1_555 1_555
C3_4 H1_4 1_555 1_555
C5_4 C3_4 1_555 1_555
C7_4 C5_4 1_555 1_555
H3_4 C7_4 1_555 1_555
N1_4 C8_4 1_555 1_555
O6_2 C2_4 1_555 1_555
O7_2 C2_4 1_555 1_555
C7_4 C8_4 1_555 1_555
C10_4 N1_4 1_555 1_555
C1_4 C4_4 1_555 1_555
C6_4 C4_4 1_555 1_555
H2_4 C6_4 1_555 1_555
C11_4 C12_4 1_555 1_555
C12_4 C13_4 1_555 1_555
C13_4 H7_4 1_555 1_555
C14_2 H8_2 1_555 1_555
N3_4 C11_4 1_555 1_555
N4_4 C12_4 1_555 1_555
N5_2 C13_4 1_555 1_555
O1_4 C1_4 1_555 1_555
O5_2 C1_4 1_555 1_555
C14_2 N5_2 1_555 1_555
H9_4 C15_4 1_555 1_555
C14_3 H8_3 1_555 1_555
C14_3 N5_3 1_555 1_555
C14_4 H8_4 1_555 1_555
C14_4 N5_4 1_555 1_555

#END
