
###############################################################################
#
# This file contains modified crystal structure data generated from the
# MOF subset of the Cambridge Structural Database (CSD) v543 
# hosted by the Cambridge Crystallographic Data Centre (CCDC).
#
# This work is licensed under the Creative Commons
# Attribution-NonCommercial-ShareAlike 4.0 International License.
# To view a copy of this license, visit
# http://creativecommons.org/licenses/by-nc-sa/4.0/
# or send a letter to
# Creative Commons, PO Box 1866, Mountain View, CA 94042, USA.
#
# CIF created using the CSD Python API on 29 September 2022
# The structure has been converted into the P1 space group
# The structure has a 3D framework
# The original CSD entry TUMRIE is in the monoclinic crystal system
# The framework has been calculated to contain at least 10.0% void space
# The void calculation uses a probe of radius 1.32A, grid spacing 0.4
#
###############################################################################

data_TUMRIE
_chemical_formula_moiety         '(C60 H36 Cd2 N20 O16)n'
_symmetry_cell_setting           triclinic
_symmetry_space_group_name_H-M   'P 1'
_symmetry_Int_Tables_number      1
_space_group_name_Hall           'P 1'
loop_
_symmetry_equiv_pos_site_id
_symmetry_equiv_pos_as_xyz
1 x,y,z
_cell_length_a                   9.9977(7)
_cell_length_b                   18.2887(10)
_cell_length_c                   12.0082(9)
_cell_angle_alpha                90
_cell_angle_beta                 100.581(6)
_cell_angle_gamma                90
_cell_volume                     2158.3
loop_
_atom_site_label
_atom_site_type_symbol
_atom_site_fract_x
_atom_site_fract_y
_atom_site_fract_z
Cd3 Cd 0.047846(15) 0.051750(8) 0.165866(14)
C1 C 0.3202(2) 0.09008(13) 0.2274(2)
C2 C 0.8156(2) 0.12515(13) 0.20400(19)
C3 C 0.5687(2) 0.10872(13) 0.2184(2)
H1 H 0.5721 0.0605 0.1896
C4 C 0.4486(2) 0.13466(13) 0.2466(2)
C5 C 0.6845(2) 0.15299(13) 0.2320(2)
C6 C 0.4436(2) 0.20479(13) 0.2904(2)
H2 H 0.3624 0.2228 0.3110
C7 C 0.6800(2) 0.22366(13) 0.2749(2)
H3 H 0.7578 0.2544 0.2843
C8 C 0.5596(2) 0.24788(12) 0.3034(2)
C9 C 0.6393(3) 0.27080(14) 0.5511(2)
H4 H 0.7325 0.2597 0.5419
H5 H 0.5832 0.2266 0.5365
H6 H 0.6398 0.2878 0.6285
C10 C 0.5821(2) 0.32882(13) 0.4696(2)
C11 C 0.5054(2) 0.38354(12) 0.3093(2)
C12 C 0.4564(2) 0.40258(13) 0.1895(2)
C13 C 0.4499(3) 0.35548(15) 0.0977(2)
H7 H 0.4874 0.3078 0.1099
C15 C 0.3548(3) 0.49182(15) 0.0696(2)
H9 H 0.3216 0.5403 0.0566
N1 N 0.55334(19) 0.31873(10) 0.35521(17)
N2 N 0.5529(2) 0.39676(11) 0.49243(17)
N3 N 0.5046(2) 0.43132(11) 0.39130(17)
N4 N 0.4124(2) 0.47159(12) 0.17374(18)
O1 O 0.3155(2) 0.03037(12) 0.1762(2)
O2 O 0.21881(17) 0.11744(10) 0.26132(16)
O3 O 0.8262(2) 0.05757(10) 0.18712(19)
O4 O 0.91079(18) 0.16877(11) 0.19945(18)
Cd1 Cd 0.452154(15) 0.551750(8) 0.334134(14)
N6 N 0.4471(2) 0.60324(11) 0.50757(17)
O5 O 0.1845(2) 0.53037(12) 0.3238(2)
O6 O 0.28119(17) 0.61744(10) 0.23868(16)
O7 O 0.6738(2) 0.55757(10) 0.31288(19)
O8 O 0.58921(18) 0.66877(11) 0.30055(18)
Cd4 Cd 0.547846(15) 0.448250(8) 0.665866(14)
H9_2 H 0.1784 0.0403 0.4434
N6_2 N 0.0529(2) 0.10324(11) 0.99243(17)
C1_2 C 0.1798(2) 0.59008(13) 0.2726(2)
C4_2 C 0.0514(2) 0.63466(13) 0.2534(2)
C6_2 C 0.0564(2) 0.70479(13) 0.2096(2)
H2_2 H 0.1376 0.7228 0.1890
C12_2 C 0.0436(2) 0.90258(13) 0.3105(2)
C13_2 C 0.0501(3) 0.85548(15) 0.4023(2)
H7_2 H 0.0126 0.8078 0.3901
C14 C 0.1577(4) 0.94296(16) 0.5207(3)
H8 H 0.2031 0.9582 0.5935
C15_2 C 0.1452(3) 0.99182(15) 0.4304(2)
N4_2 N 0.0876(2) 0.97159(12) 0.32626(18)
N5 N 0.1077(3) 0.87552(15) 0.5075(2)
C2_2 C 0.6844(2) 0.62515(13) 0.29600(19)
C3_2 C 0.9313(2) 0.60872(13) 0.2816(2)
H1_2 H 0.9279 0.5605 0.3104
C5_2 C 0.8155(2) 0.65299(13) 0.2680(2)
C7_2 C 0.8200(2) 0.72366(13) 0.2251(2)
H3_2 H 0.7422 0.7544 0.2157
C8_2 C 0.9404(2) 0.74788(12) 0.1966(2)
C10_2 C 0.9179(2) 0.82882(13) 0.0304(2)
C11_2 C 0.9946(2) 0.88354(12) 0.1907(2)
N1_2 N 0.94666(19) 0.81873(10) 0.14479(17)
N2_2 N 0.9471(2) 0.89676(11) 0.00757(17)
N3_2 N 0.9954(2) 0.93132(11) 0.10870(17)
C9_2 C 0.8607(3) 0.77080(14) 0.9489(2)
H4_2 H 0.7675 0.7597 0.9581
H5_2 H 0.9168 0.7266 0.9635
H6_2 H 0.8602 0.7878 0.8715
Cd4_2 Cd 0.952154(15) 0.948250(8) 0.834134(14)
C1_3 C 0.6798(2) 0.90992(13) 0.7726(2)
C2_3 C 0.1844(2) 0.87485(13) 0.79600(19)
C3_3 C 0.4313(2) 0.89128(13) 0.7816(2)
H1_3 H 0.4279 0.9395 0.8104
C4_3 C 0.5514(2) 0.86534(13) 0.7534(2)
C5_3 C 0.3155(2) 0.84701(13) 0.7680(2)
C6_3 C 0.5564(2) 0.79521(13) 0.7096(2)
H2_3 H 0.6376 0.7772 0.6890
C7_3 C 0.3200(2) 0.77634(13) 0.7251(2)
H3_3 H 0.2422 0.7456 0.7157
C8_3 C 0.4404(2) 0.75212(12) 0.6966(2)
C9_3 C 0.3607(3) 0.72920(14) 0.4489(2)
H4_3 H 0.2675 0.7403 0.4581
H5_3 H 0.4168 0.7734 0.4635
H6_3 H 0.3602 0.7122 0.3715
C10_3 C 0.4179(2) 0.67118(13) 0.5304(2)
C11_3 C 0.4946(2) 0.61646(12) 0.6907(2)
C12_3 C 0.5436(2) 0.59742(13) 0.8105(2)
C13_3 C 0.5501(3) 0.64452(15) 0.9023(2)
H7_3 H 0.5126 0.6922 0.8901
C15_3 C 0.6452(3) 0.50818(15) 0.9304(2)
H9_3 H 0.6784 0.4597 0.9434
N1_3 N 0.44666(19) 0.68127(10) 0.64479(17)
N3_3 N 0.4954(2) 0.56868(11) 0.60870(17)
N4_3 N 0.5876(2) 0.52841(12) 0.82626(18)
O1_2 O 0.6845(2) 0.96963(12) 0.8238(2)
O2_2 O 0.78119(17) 0.88256(10) 0.73868(16)
O3_2 O 0.1738(2) 0.94243(10) 0.81288(19)
O4_2 O 0.08921(18) 0.83123(11) 0.80055(18)
O5_2 O 0.8155(2) 0.46963(12) 0.6762(2)
O6_2 O 0.71881(17) 0.38256(10) 0.76132(16)
O7_2 O 0.3262(2) 0.44243(10) 0.68712(19)
O8_2 O 0.41079(18) 0.33123(11) 0.69945(18)
C9_4 C 0.1393(3) 0.22920(14) 0.0511(2)
H4_4 H 0.2325 0.2403 0.0419
H5_4 H 0.0832 0.2734 0.0365
H6_4 H 0.1398 0.2122 0.1285
C2_4 C 0.3156(2) 0.37485(13) 0.70400(19)
C3_4 C 0.0687(2) 0.39128(13) 0.7184(2)
H1_4 H 0.0721 0.4395 0.6896
C5_4 C 0.1845(2) 0.34701(13) 0.7320(2)
C7_4 C 0.1800(2) 0.27634(13) 0.7749(2)
H3_4 H 0.2578 0.2456 0.7843
C8_4 C 0.0596(2) 0.25212(12) 0.8034(2)
C10_4 C 0.0821(2) 0.17118(13) 0.9696(2)
C11_4 C 0.0054(2) 0.11646(12) 0.8093(2)
N1_4 N 0.05334(19) 0.18127(10) 0.85521(17)
N3_4 N 0.0046(2) 0.06868(11) 0.89130(17)
C1_4 C 0.8202(2) 0.40992(13) 0.7274(2)
C4_4 C 0.9486(2) 0.36534(13) 0.7466(2)
C6_4 C 0.9436(2) 0.29521(13) 0.7904(2)
H2_4 H 0.8624 0.2772 0.8110
C12_4 C 0.9564(2) 0.09742(13) 0.6895(2)
C13_4 C 0.9499(3) 0.14452(15) 0.5977(2)
H7_4 H 0.9874 0.1922 0.6099
C14_2 C 0.8423(4) 0.05704(16) 0.4793(3)
H8_2 H 0.7969 0.0418 0.4065
C15_4 C 0.8548(3) 0.00818(15) 0.5696(2)
N4_4 N 0.9124(2) 0.02841(12) 0.67374(18)
N5_2 N 0.8923(3) 0.12448(15) 0.4925(2)
H9_4 H 0.8216 0.9597 0.5566
C14_3 C 0.3423(4) 0.44296(16) 0.9793(3)
H8_3 H 0.2969 0.4582 0.9065
N5_3 N 0.3923(3) 0.37552(15) 0.9925(2)
C14_4 C 0.6577(4) 0.55704(16) 0.0207(3)
H8_4 H 0.7031 0.5418 0.0935
N5_4 N 0.6077(3) 0.62448(15) 0.0075(2)
loop_
_geom_bond_atom_site_label_1
_geom_bond_atom_site_label_2
_geom_bond_site_symmetry_1
_geom_bond_site_symmetry_2
C1 C4 1_555 1_555
C2 C5 1_555 1_555
C3 H1 1_555 1_555
C4 C3 1_555 1_555
C5 C3 1_555 1_555
C6 C4 1_555 1_555
H2 C6 1_555 1_555
C7 C5 1_555 1_555
H3 C7 1_555 1_555
C8 C6 1_555 1_555
C9 H4 1_555 1_555
H5 C9 1_555 1_555
H6 C9 1_555 1_555
C10 C9 1_555 1_555
C11 C12 1_555 1_555
C12 C13 1_555 1_555
C13 H7 1_555 1_555
H9 C15 1_555 1_555
N1 C8 1_555 1_555
N2 C10 1_555 1_555
N3 C11 1_555 1_555
N4 C12 1_555 1_555
O1 C1 1_555 1_555
O2 C1 1_555 1_555
O3 C2 1_555 1_555
O4 C2 1_555 1_555
Cd1 N3 1_555 1_555
N6 Cd1 1_555 1_555
O5 Cd1 1_555 1_555
O6 Cd1 1_555 1_555
O7 Cd1 1_555 1_555
O8 Cd1 1_555 1_555
Cd3 O1 1_555 1_555
Cd4 N2 1_555 1_555
C7 C8 1_555 1_555
C10 N1 1_555 1_555
C11 N1 1_555 1_555
C15 N4 1_555 1_555
N2 N3 1_555 1_555
N4 Cd1 1_555 1_555
O2 Cd3 1_555 1_555
C1_2 C4_2 1_555 1_555
C6_2 C4_2 1_555 1_555
H2_2 C6_2 1_555 1_555
C12_2 C13_2 1_555 1_555
C13_2 H7_2 1_555 1_555
C14 H8 1_555 1_555
C15_2 C14 1_555 1_555
N4_2 C12_2 1_555 1_555
N5 C13_2 1_555 1_555
O5 C1_2 1_555 1_555
O6 C1_2 1_555 1_555
C14 N5 1_555 1_555
C15_2 N4_2 1_555 1_555
C2_2 C5_2 1_555 1_555
C3_2 H1_2 1_555 1_555
C5_2 C3_2 1_555 1_555
C7_2 C5_2 1_555 1_555
H3_2 C7_2 1_555 1_555
N1_2 C8_2 1_555 1_555
N2_2 C10_2 1_555 1_555
N3_2 C11_2 1_555 1_555
O7 C2_2 1_555 1_555
O8 C2_2 1_555 1_555
C7_2 C8_2 1_555 1_555
C10_2 N1_2 1_555 1_555
C11_2 N1_2 1_555 1_555
N2_2 N3_2 1_555 1_555
C9_2 H4_2 1_555 1_555
H5_2 C9_2 1_555 1_555
H6_2 C9_2 1_555 1_555
C1_3 C4_3 1_555 1_555
C2_3 C5_3 1_555 1_555
C3_3 H1_3 1_555 1_555
C4_3 C3_3 1_555 1_555
C5_3 C3_3 1_555 1_555
C6_3 C4_3 1_555 1_555
H2_3 C6_3 1_555 1_555
C7_3 C5_3 1_555 1_555
H3_3 C7_3 1_555 1_555
C8_3 C6_3 1_555 1_555
C9_3 H4_3 1_555 1_555
H5_3 C9_3 1_555 1_555
H6_3 C9_3 1_555 1_555
C10_3 C9_3 1_555 1_555
C11_3 C12_3 1_555 1_555
C12_3 C13_3 1_555 1_555
C13_3 H7_3 1_555 1_555
H9_3 C15_3 1_555 1_555
N1_3 C8_3 1_555 1_555
N6 C10_3 1_555 1_555
N3_3 C11_3 1_555 1_555
N4_3 C12_3 1_555 1_555
O1_2 C1_3 1_555 1_555
O2_2 C1_3 1_555 1_555
O3_2 C2_3 1_555 1_555
O4_2 C2_3 1_555 1_555
Cd4 N3_3 1_555 1_555
O5_2 Cd4 1_555 1_555
O6_2 Cd4 1_555 1_555
O7_2 Cd4 1_555 1_555
O8_2 Cd4 1_555 1_555
Cd4_2 O1_2 1_555 1_555
C7_3 C8_3 1_555 1_555
C10_3 N1_3 1_555 1_555
C11_3 N1_3 1_555 1_555
C15_3 N4_3 1_555 1_555
N6 N3_3 1_555 1_555
N4_3 Cd4 1_555 1_555
O2_2 Cd4_2 1_555 1_555
C9_4 H4_4 1_555 1_555
H5_4 C9_4 1_555 1_555
H6_4 C9_4 1_555 1_555
C2_4 C5_4 1_555 1_555
C3_4 H1_4 1_555 1_555
C5_4 C3_4 1_555 1_555
C7_4 C5_4 1_555 1_555
H3_4 C7_4 1_555 1_555
N1_4 C8_4 1_555 1_555
N6_2 C10_4 1_555 1_555
N3_4 C11_4 1_555 1_555
O7_2 C2_4 1_555 1_555
O8_2 C2_4 1_555 1_555
C7_4 C8_4 1_555 1_555
C10_4 N1_4 1_555 1_555
C11_4 N1_4 1_555 1_555
N6_2 N3_4 1_555 1_555
C1_4 C4_4 1_555 1_555
C6_4 C4_4 1_555 1_555
H2_4 C6_4 1_555 1_555
C12_4 C13_4 1_555 1_555
C13_4 H7_4 1_555 1_555
C14_2 H8_2 1_555 1_555
C15_4 C14_2 1_555 1_555
N4_4 C12_4 1_555 1_555
N5_2 C13_4 1_555 1_555
O5_2 C1_4 1_555 1_555
O6_2 C1_4 1_555 1_555
C14_2 N5_2 1_555 1_555
C15_4 N4_4 1_555 1_555
C14_3 H8_3 1_555 1_555
C14_3 N5_3 1_555 1_555
C14_4 H8_4 1_555 1_555
C14_4 N5_4 1_555 1_555

#END
