
###############################################################################
#
# This file contains modified crystal structure data generated from the
# MOF subset of the Cambridge Structural Database (CSD) v543 
# hosted by the Cambridge Crystallographic Data Centre (CCDC).
#
# This work is licensed under the Creative Commons
# Attribution-NonCommercial-ShareAlike 4.0 International License.
# To view a copy of this license, visit
# http://creativecommons.org/licenses/by-nc-sa/4.0/
# or send a letter to
# Creative Commons, PO Box 1866, Mountain View, CA 94042, USA.
#
# CIF created using the CSD Python API on 29 September 2022
# The structure has been converted into the P1 space group
# The structure has a 3D framework
# The original CSD entry TUMREA is in the monoclinic crystal system
# The framework has been calculated to contain at least 10.0% void space
# The void calculation uses a probe of radius 1.32A, grid spacing 0.4
#
###############################################################################

data_TUMREA
_chemical_formula_moiety         '(C60 H36 N20 O16 Zn2)n'
_symmetry_cell_setting           triclinic
_symmetry_space_group_name_H-M   'P 1'
_symmetry_Int_Tables_number      1
_space_group_name_Hall           'P 1'
loop_
_symmetry_equiv_pos_site_id
_symmetry_equiv_pos_as_xyz
1 x,y,z
_cell_length_a                   9.8439(9)
_cell_length_b                   17.6747(12)
_cell_length_c                   11.8051(10)
_cell_angle_alpha                90
_cell_angle_beta                 99.458(7)
_cell_angle_gamma                90
_cell_volume                     2026.02
loop_
_atom_site_label
_atom_site_type_symbol
_atom_site_fract_x
_atom_site_fract_y
_atom_site_fract_z
Zn3 Zn 0.05336(2) 0.04765(2) 0.15804(2)
C1 C 0.3309(2) 0.08174(14) 0.1864(2)
C2 C 0.8406(2) 0.13421(15) 0.2077(2)
C3 C 0.5852(2) 0.10904(13) 0.1990(2)
H1 H 0.5956 0.0620 0.1641
C4 C 0.4564(2) 0.13107(13) 0.2214(2)
C5 C 0.6981(2) 0.15626(13) 0.22775(19)
C6 C 0.4408(2) 0.20006(13) 0.2736(2)
H2 H 0.3548 0.2147 0.2912
C7 C 0.6827(2) 0.22685(13) 0.2771(2)
H3 H 0.7581 0.2599 0.2949
C8 C 0.5542(2) 0.24704(12) 0.29924(19)
C9 C 0.6341(3) 0.26913(14) 0.5497(2)
H4 H 0.7307 0.2645 0.5433
H5 H 0.5879 0.2214 0.5293
H6 H 0.6256 0.2822 0.6280
C10 C 0.5699(2) 0.32919(13) 0.4709(2)
C11 C 0.4894(2) 0.38535(12) 0.31020(19)
C12 C 0.4412(2) 0.40637(14) 0.1893(2)
C13 C 0.4362(3) 0.35940(16) 0.0941(2)
H7 H 0.4714 0.3100 0.1039
C15 C 0.3459(3) 0.50236(17) 0.0747(2)
H9 H 0.3150 0.5526 0.0644
N1 N 0.53854(19) 0.31827(11) 0.35518(17)
N2 N 0.53893(19) 0.39914(11) 0.49532(16)
N3 N 0.48769(18) 0.43442(11) 0.39303(16)
N4 N 0.3998(2) 0.47857(12) 0.17860(18)
O1 O 0.3370(2) 0.02745(14) 0.1212(3)
O2 O 0.22370(16) 0.10246(10) 0.22271(16)
O3 O 0.86153(19) 0.06497(11) 0.18856(17)
O4 O 0.9288(2) 0.18473(14) 0.2087(2)
Zn1 Zn 0.44664(2) 0.54765(2) 0.34196(2)
N6 N 0.46107(19) 0.60086(11) 0.50468(16)
O5 O 0.27630(16) 0.60246(10) 0.27729(16)
O6 O 0.63847(19) 0.56497(11) 0.31144(17)
Zn4 Zn 0.55336(2) 0.45235(2) 0.65804(2)
C15_2 C 0.1541(3) 0.00236(17) 0.4253(2)
H9_2 H 0.1850 0.0526 0.4356
N6_2 N 0.03893(19) 0.10086(11) 0.99532(16)
C1_2 C 0.1691(2) 0.58174(14) 0.3136(2)
C4_2 C 0.0436(2) 0.63107(13) 0.2786(2)
C6_2 C 0.0592(2) 0.70006(13) 0.2264(2)
H2_2 H 0.1452 0.7147 0.2088
C11_2 C 0.0106(2) 0.88535(12) 0.18980(19)
C12_2 C 0.0588(2) 0.90637(14) 0.3107(2)
C13_2 C 0.0638(3) 0.85940(16) 0.4059(2)
H7_2 H 0.0286 0.8100 0.3961
C14 C 0.1656(4) 0.95426(18) 0.5196(3)
H8 H 0.2085 0.9722 0.5916
N3_2 N 0.01231(18) 0.93442(11) 0.10697(16)
N4_2 N 0.1002(2) 0.97857(12) 0.32140(18)
N5 N 0.1182(3) 0.88365(15) 0.5114(2)
O1_2 O 0.1630(2) 0.52745(14) 0.3788(3)
C2_2 C 0.6594(2) 0.63421(15) 0.2923(2)
C3_2 C 0.9148(2) 0.60904(13) 0.3010(2)
H1_2 H 0.9044 0.5620 0.3359
C5_2 C 0.8019(2) 0.65626(13) 0.27225(19)
C7_2 C 0.8173(2) 0.72685(13) 0.2229(2)
H3_2 H 0.7419 0.7599 0.2051
C8_2 C 0.9458(2) 0.74704(12) 0.20076(19)
C10_2 C 0.9301(2) 0.82919(13) 0.0291(2)
N1_2 N 0.96146(19) 0.81827(11) 0.14482(17)
N2_2 N 0.96107(19) 0.89914(11) 0.00468(16)
O4_2 O 0.5712(2) 0.68473(14) 0.2913(2)
C9_2 C 0.8659(3) 0.76913(14) 0.9503(2)
H4_2 H 0.7693 0.7645 0.9567
H5_2 H 0.9121 0.7214 0.9707
H6_2 H 0.8744 0.7822 0.8720
Zn4_2 Zn 0.94664(2) 0.95235(2) 0.84196(2)
C1_3 C 0.6691(2) 0.91826(14) 0.8136(2)
C2_3 C 0.1594(2) 0.86579(15) 0.7923(2)
C3_3 C 0.4148(2) 0.89096(13) 0.8010(2)
H1_3 H 0.4044 0.9380 0.8359
C4_3 C 0.5436(2) 0.86893(13) 0.7786(2)
C5_3 C 0.3019(2) 0.84374(13) 0.77225(19)
C6_3 C 0.5592(2) 0.79994(13) 0.7264(2)
H2_3 H 0.6452 0.7853 0.7088
C7_3 C 0.3173(2) 0.77315(13) 0.7229(2)
H3_3 H 0.2419 0.7401 0.7051
C8_3 C 0.4458(2) 0.75296(12) 0.70076(19)
C9_3 C 0.3659(3) 0.73087(14) 0.4503(2)
H4_3 H 0.2693 0.7355 0.4567
H5_3 H 0.4121 0.7786 0.4707
H6_3 H 0.3744 0.7178 0.3720
C10_3 C 0.4301(2) 0.67081(13) 0.5291(2)
C11_3 C 0.5106(2) 0.61465(12) 0.68980(19)
C12_3 C 0.5588(2) 0.59363(14) 0.8107(2)
C13_3 C 0.5638(3) 0.64060(16) 0.9059(2)
H7_3 H 0.5286 0.6900 0.8961
C15_3 C 0.6541(3) 0.49764(17) 0.9253(2)
H9_3 H 0.6850 0.4474 0.9356
N1_3 N 0.46146(19) 0.68173(11) 0.64482(17)
N3_3 N 0.51231(18) 0.56558(11) 0.60697(16)
N4_3 N 0.6002(2) 0.52143(12) 0.82140(18)
O1_3 O 0.6630(2) 0.97255(14) 0.8788(3)
O2_2 O 0.77630(16) 0.89754(10) 0.77729(16)
O3_2 O 0.13847(19) 0.93503(11) 0.81144(17)
O4_3 O 0.0712(2) 0.81527(14) 0.7913(2)
O5_2 O 0.72370(16) 0.39754(10) 0.72271(16)
O6_2 O 0.36153(19) 0.43503(11) 0.68856(17)
C9_4 C 0.1341(3) 0.23087(14) 0.0497(2)
H4_4 H 0.2307 0.2355 0.0433
H5_4 H 0.0879 0.2786 0.0293
H6_4 H 0.1256 0.2178 0.1280
C2_4 C 0.3406(2) 0.36579(15) 0.7077(2)
C3_4 C 0.0852(2) 0.39096(13) 0.6990(2)
H1_4 H 0.0956 0.4380 0.6641
C5_4 C 0.1981(2) 0.34374(13) 0.72775(19)
C7_4 C 0.1827(2) 0.27315(13) 0.7771(2)
H3_4 H 0.2581 0.2401 0.7949
C8_4 C 0.0542(2) 0.25296(12) 0.79924(19)
C10_4 C 0.0699(2) 0.17081(13) 0.9709(2)
N1_4 N 0.03854(19) 0.18173(11) 0.85518(17)
O4_4 O 0.4288(2) 0.31527(14) 0.7087(2)
C1_4 C 0.8309(2) 0.41826(14) 0.6864(2)
C4_4 C 0.9564(2) 0.36893(13) 0.7214(2)
C6_4 C 0.9408(2) 0.29994(13) 0.7736(2)
H2_4 H 0.8548 0.2853 0.7912
C11_4 C 0.9894(2) 0.11465(12) 0.81020(19)
C12_4 C 0.9412(2) 0.09363(14) 0.6893(2)
C13_4 C 0.9362(3) 0.14060(16) 0.5941(2)
H7_4 H 0.9714 0.1900 0.6039
C14_2 C 0.8344(4) 0.04574(18) 0.4804(3)
H8_2 H 0.7915 0.0278 0.4084
N3_4 N 0.98769(18) 0.06558(11) 0.89303(16)
N4_4 N 0.8998(2) 0.02143(12) 0.67860(18)
N5_2 N 0.8818(3) 0.11635(15) 0.4886(2)
O1_4 O 0.8370(2) 0.47255(14) 0.6212(3)
C15_4 C 0.8459(3) 0.99764(17) 0.5747(2)
H9_4 H 0.8150 0.9474 0.5644
C14_3 C 0.3344(4) 0.45426(18) 0.9804(3)
H8_3 H 0.2915 0.4722 0.9084
N5_3 N 0.3818(3) 0.38365(15) 0.9886(2)
C14_4 C 0.6656(4) 0.54574(18) 0.0196(3)
H8_4 H 0.7085 0.5278 0.0916
N5_4 N 0.6182(3) 0.61635(15) 0.0114(2)
loop_
_geom_bond_atom_site_label_1
_geom_bond_atom_site_label_2
_geom_bond_site_symmetry_1
_geom_bond_site_symmetry_2
C1 C4 1_555 1_555
C2 C5 1_555 1_555
C3 H1 1_555 1_555
C4 C3 1_555 1_555
C5 C3 1_555 1_555
C6 C4 1_555 1_555
H2 C6 1_555 1_555
C7 C5 1_555 1_555
H3 C7 1_555 1_555
C8 C6 1_555 1_555
C9 H4 1_555 1_555
H5 C9 1_555 1_555
H6 C9 1_555 1_555
C10 C9 1_555 1_555
C11 C12 1_555 1_555
C12 C13 1_555 1_555
C13 H7 1_555 1_555
H9 C15 1_555 1_555
N1 C8 1_555 1_555
N2 C10 1_555 1_555
N3 C11 1_555 1_555
N4 C12 1_555 1_555
O1 C1 1_555 1_555
O2 C1 1_555 1_555
O3 C2 1_555 1_555
O4 C2 1_555 1_555
Zn1 N3 1_555 1_555
N6 Zn1 1_555 1_555
O5 Zn1 1_555 1_555
O6 Zn1 1_555 1_555
Zn3 O2 1_555 1_555
Zn4 N2 1_555 1_555
C7 C8 1_555 1_555
C10 N1 1_555 1_555
C11 N1 1_555 1_555
C15 N4 1_555 1_555
N2 N3 1_555 1_555
N4 Zn1 1_555 1_555
H9_2 C15_2 1_555 1_555
C1_2 C4_2 1_555 1_555
C6_2 C4_2 1_555 1_555
H2_2 C6_2 1_555 1_555
C11_2 C12_2 1_555 1_555
C12_2 C13_2 1_555 1_555
C13_2 H7_2 1_555 1_555
C14 H8 1_555 1_555
N3_2 C11_2 1_555 1_555
N4_2 C12_2 1_555 1_555
N5 C13_2 1_555 1_555
O1_2 C1_2 1_555 1_555
O5 C1_2 1_555 1_555
C14 N5 1_555 1_555
C2_2 C5_2 1_555 1_555
C3_2 H1_2 1_555 1_555
C5_2 C3_2 1_555 1_555
C7_2 C5_2 1_555 1_555
H3_2 C7_2 1_555 1_555
N1_2 C8_2 1_555 1_555
N2_2 C10_2 1_555 1_555
O6 C2_2 1_555 1_555
O4_2 C2_2 1_555 1_555
C7_2 C8_2 1_555 1_555
C10_2 N1_2 1_555 1_555
C9_2 H4_2 1_555 1_555
H5_2 C9_2 1_555 1_555
H6_2 C9_2 1_555 1_555
C1_3 C4_3 1_555 1_555
C2_3 C5_3 1_555 1_555
C3_3 H1_3 1_555 1_555
C4_3 C3_3 1_555 1_555
C5_3 C3_3 1_555 1_555
C6_3 C4_3 1_555 1_555
H2_3 C6_3 1_555 1_555
C7_3 C5_3 1_555 1_555
H3_3 C7_3 1_555 1_555
C8_3 C6_3 1_555 1_555
C9_3 H4_3 1_555 1_555
H5_3 C9_3 1_555 1_555
H6_3 C9_3 1_555 1_555
C10_3 C9_3 1_555 1_555
C11_3 C12_3 1_555 1_555
C12_3 C13_3 1_555 1_555
C13_3 H7_3 1_555 1_555
H9_3 C15_3 1_555 1_555
N1_3 C8_3 1_555 1_555
N6 C10_3 1_555 1_555
N3_3 C11_3 1_555 1_555
N4_3 C12_3 1_555 1_555
O1_3 C1_3 1_555 1_555
O2_2 C1_3 1_555 1_555
O3_2 C2_3 1_555 1_555
O4_3 C2_3 1_555 1_555
Zn4 N3_3 1_555 1_555
O5_2 Zn4 1_555 1_555
O6_2 Zn4 1_555 1_555
Zn4_2 O2_2 1_555 1_555
C7_3 C8_3 1_555 1_555
C10_3 N1_3 1_555 1_555
C11_3 N1_3 1_555 1_555
C15_3 N4_3 1_555 1_555
N6 N3_3 1_555 1_555
N4_3 Zn4 1_555 1_555
C9_4 H4_4 1_555 1_555
H5_4 C9_4 1_555 1_555
H6_4 C9_4 1_555 1_555
C2_4 C5_4 1_555 1_555
C3_4 H1_4 1_555 1_555
C5_4 C3_4 1_555 1_555
C7_4 C5_4 1_555 1_555
H3_4 C7_4 1_555 1_555
N1_4 C8_4 1_555 1_555
N6_2 C10_4 1_555 1_555
O6_2 C2_4 1_555 1_555
O4_4 C2_4 1_555 1_555
C7_4 C8_4 1_555 1_555
C10_4 N1_4 1_555 1_555
C1_4 C4_4 1_555 1_555
C6_4 C4_4 1_555 1_555
H2_4 C6_4 1_555 1_555
C11_4 C12_4 1_555 1_555
C12_4 C13_4 1_555 1_555
C13_4 H7_4 1_555 1_555
C14_2 H8_2 1_555 1_555
N3_4 C11_4 1_555 1_555
N4_4 C12_4 1_555 1_555
N5_2 C13_4 1_555 1_555
O1_4 C1_4 1_555 1_555
O5_2 C1_4 1_555 1_555
C14_2 N5_2 1_555 1_555
H9_4 C15_4 1_555 1_555
C14_3 H8_3 1_555 1_555
C14_3 N5_3 1_555 1_555
C14_4 H8_4 1_555 1_555
C14_4 N5_4 1_555 1_555

#END
