
###############################################################################
#
# This file contains modified crystal structure data generated from the
# MOF subset of the Cambridge Structural Database (CSD) v543 
# hosted by the Cambridge Crystallographic Data Centre (CCDC).
#
# This work is licensed under the Creative Commons
# Attribution-NonCommercial-ShareAlike 4.0 International License.
# To view a copy of this license, visit
# http://creativecommons.org/licenses/by-nc-sa/4.0/
# or send a letter to
# Creative Commons, PO Box 1866, Mountain View, CA 94042, USA.
#
# CIF created using the CSD Python API on 29 September 2022
# The structure has been converted into the P1 space group
# The structure has a 3D framework
# The original CSD entry TUMROK is in the monoclinic crystal system
# The framework has been calculated to contain at least 10.0% void space
# The void calculation uses a probe of radius 1.32A, grid spacing 0.4
#
###############################################################################

data_TUMROK
_chemical_formula_moiety         '(C60 H36 Co2 N18 O16)n'
_symmetry_cell_setting           triclinic
_symmetry_space_group_name_H-M   'P 1'
_symmetry_Int_Tables_number      1
_space_group_name_Hall           'P 1'
loop_
_symmetry_equiv_pos_site_id
_symmetry_equiv_pos_as_xyz
1 x,y,z
_cell_length_a                   9.8767(10)
_cell_length_b                   17.4389(12)
_cell_length_c                   12.0177(12)
_cell_angle_alpha                90
_cell_angle_beta                 97.458(8)
_cell_angle_gamma                90
_cell_volume                     2052.4
loop_
_atom_site_label
_atom_site_type_symbol
_atom_site_fract_x
_atom_site_fract_y
_atom_site_fract_z
Co3 Co 0.04850(4) 0.04625(2) 0.15508(3)
C1 C 0.3231(3) 0.0823(2) 0.1836(3)
C2 C 0.8318(3) 0.1225(2) 0.2108(3)
C3 C 0.5775(3) 0.10485(18) 0.1988(3)
H1 H 0.5862 0.0577 0.1608
C4 C 0.4496(3) 0.12876(18) 0.2217(3)
C5 C 0.6926(3) 0.14930(18) 0.2311(3)
C6 C 0.4363(3) 0.19772(18) 0.2776(3)
H2 H 0.3499 0.2140 0.2955
C7 C 0.6790(3) 0.21985(18) 0.2839(3)
H3 H 0.7561 0.2519 0.3039
C8 C 0.5511(3) 0.24191(17) 0.3065(3)
C9 C 0.6193(4) 0.2646(2) 0.5565(3)
H4 H 0.7188 0.2626 0.5585
H5 H 0.5799 0.2149 0.5318
H6 H 0.5966 0.2763 0.6316
C10 C 0.5629(3) 0.32505(17) 0.4772(3)
C11 C 0.4888(3) 0.38188(17) 0.3205(3)
C12 C 0.4444(3) 0.40343(18) 0.2031(3)
C13 C 0.3836(4) 0.3760(2) 0.0206(3)
C14 C 0.3419(4) 0.4504(2) 0.0007(3)
C15 C 0.3607(4) 0.5011(2) 0.0898(3)
H9 H 0.3345 0.5532 0.0781
N1 N 0.5353(3) 0.31382(14) 0.3638(2)
N2 N 0.5337(3) 0.39649(15) 0.5008(2)
N3 N 0.4866(2) 0.43232(14) 0.4009(2)
N4 N 0.4345(3) 0.35075(16) 0.1235(2)
N5 N 0.4152(3) 0.47831(16) 0.1920(2)
O1 O 0.3290(3) 0.02858(16) 0.1165(3)
O2 O 0.2157(2) 0.10252(15) 0.2214(2)
O3 O 0.8439(3) 0.05596(16) 0.1739(3)
O4 O 0.9321(3) 0.1622(3) 0.2351(3)
Co1 Co 0.45150(4) 0.54625(2) 0.34492(3)
N6 N 0.4663(3) 0.60351(15) 0.4992(2)
O5 O 0.2843(2) 0.60252(15) 0.2786(2)
O6 O 0.6561(3) 0.55596(16) 0.3261(3)
Co4 Co 0.54850(4) 0.45375(2) 0.65508(3)
C15_2 C 0.1393(4) 0.0011(2) 0.4102(3)
H9_2 H 0.1655 0.0532 0.4219
N6_2 N 0.0337(3) 0.10351(15) 0.0008(2)
C1_2 C 0.1769(3) 0.5823(2) 0.3164(3)
C4_2 C 0.0504(3) 0.62876(18) 0.2783(3)
C6_2 C 0.0637(3) 0.69772(18) 0.2224(3)
H2_2 H 0.1501 0.7140 0.2045
C11_2 C 0.0112(3) 0.88188(17) 0.1795(3)
C12_2 C 0.0556(3) 0.90343(18) 0.2969(3)
C13_2 C 0.1164(4) 0.8760(2) 0.4794(3)
H7 H 0.1238 0.8409 0.5404
C14_2 C 0.1581(4) 0.9504(2) 0.4993(3)
H8 H 0.1984 0.9664 0.5717
N3_2 N 0.0134(2) 0.93232(14) 0.0991(2)
N4_2 N 0.0655(3) 0.85075(16) 0.3765(2)
N5_2 N 0.0848(3) 0.97831(16) 0.3080(2)
O1_2 O 0.1710(3) 0.52858(16) 0.3835(3)
C2_2 C 0.6682(3) 0.6225(2) 0.2892(3)
C3_2 C 0.9225(3) 0.60485(18) 0.3012(3)
H1_2 H 0.9138 0.5577 0.3392
C5_2 C 0.8074(3) 0.64930(18) 0.2689(3)
C7_2 C 0.8210(3) 0.71985(18) 0.2161(3)
H3_2 H 0.7439 0.7519 0.1961
C8_2 C 0.9489(3) 0.74191(17) 0.1935(3)
C10_2 C 0.9371(3) 0.82505(17) 0.0228(3)
N1_2 N 0.9647(3) 0.81382(14) 0.1362(2)
O4_2 O 0.5679(3) 0.6622(3) 0.2649(3)
C9_2 C 0.8807(4) 0.7646(2) 0.9435(3)
H4_2 H 0.7812 0.7626 0.9415
H5_2 H 0.9201 0.7149 0.9682
H6_2 H 0.9034 0.7763 0.8684
N2_2 N 0.9663(3) 0.89649(15) 0.9992(2)
Co4_2 Co 0.95150(4) 0.95375(2) 0.84492(3)
C1_3 C 0.6769(3) 0.9177(2) 0.8164(3)
C2_3 C 0.1682(3) 0.8775(2) 0.7892(3)
C3_3 C 0.4225(3) 0.89515(18) 0.8012(3)
H1_3 H 0.4138 0.9423 0.8392
C4_3 C 0.5504(3) 0.87124(18) 0.7783(3)
C5_3 C 0.3074(3) 0.85070(18) 0.7689(3)
C6_3 C 0.5637(3) 0.80228(18) 0.7224(3)
H2_3 H 0.6501 0.7860 0.7045
C7_3 C 0.3210(3) 0.78015(18) 0.7161(3)
H3_3 H 0.2439 0.7481 0.6961
C8_3 C 0.4489(3) 0.75809(17) 0.6935(3)
C9_3 C 0.3807(4) 0.7354(2) 0.4435(3)
H4_3 H 0.2812 0.7374 0.4415
H5_3 H 0.4201 0.7851 0.4682
H6_3 H 0.4034 0.7237 0.3684
C10_3 C 0.4371(3) 0.67495(17) 0.5228(3)
C11_3 C 0.5112(3) 0.61812(17) 0.6795(3)
C12_3 C 0.5556(3) 0.59657(18) 0.7969(3)
C13_3 C 0.6164(4) 0.6240(2) 0.9794(3)
C14_3 C 0.6581(4) 0.5496(2) 0.9993(3)
C15_3 C 0.6393(4) 0.4989(2) 0.9102(3)
H9_3 H 0.6655 0.4468 0.9219
N1_3 N 0.4647(3) 0.68618(14) 0.6362(2)
N3_3 N 0.5134(2) 0.56768(14) 0.5991(2)
N4_3 N 0.5655(3) 0.64925(16) 0.8765(2)
N5_3 N 0.5848(3) 0.52169(16) 0.8080(2)
O1_3 O 0.6710(3) 0.97142(16) 0.8835(3)
O2_2 O 0.7843(2) 0.89748(15) 0.7786(2)
O3_2 O 0.1561(3) 0.94404(16) 0.8261(3)
O4_3 O 0.0679(3) 0.8378(3) 0.7649(3)
O5_2 O 0.7157(2) 0.39748(15) 0.7214(2)
O6_2 O 0.3439(3) 0.44404(16) 0.6739(3)
C9_4 C 0.1193(4) 0.2354(2) 0.0565(3)
H4_4 H 0.2188 0.2374 0.0585
H5_4 H 0.0799 0.2851 0.0318
H6_4 H 0.0966 0.2237 0.1316
C2_4 C 0.3318(3) 0.3775(2) 0.7108(3)
C3_4 C 0.0775(3) 0.39515(18) 0.6988(3)
H1_4 H 0.0862 0.4423 0.6608
C5_4 C 0.1926(3) 0.35070(18) 0.7311(3)
C7_4 C 0.1790(3) 0.28015(18) 0.7839(3)
H3_4 H 0.2561 0.2481 0.8039
C8_4 C 0.0511(3) 0.25809(17) 0.8065(3)
C10_4 C 0.0629(3) 0.17495(17) 0.9772(3)
N1_4 N 0.0353(3) 0.18618(14) 0.8638(2)
O4_4 O 0.4321(3) 0.3378(3) 0.7351(3)
C1_4 C 0.8231(3) 0.4177(2) 0.6836(3)
C4_4 C 0.9496(3) 0.37124(18) 0.7217(3)
C6_4 C 0.9363(3) 0.30228(18) 0.7776(3)
H2_4 H 0.8499 0.2860 0.7955
C11_4 C 0.9888(3) 0.11812(17) 0.8205(3)
C12_4 C 0.9444(3) 0.09657(18) 0.7031(3)
C13_4 C 0.8836(4) 0.1240(2) 0.5206(3)
H7_2 H 0.8762 0.1591 0.4596
C14_4 C 0.8419(4) 0.0496(2) 0.5007(3)
H8_2 H 0.8016 0.0336 0.4283
N3_4 N 0.9866(2) 0.06768(14) 0.9009(2)
N4_4 N 0.9345(3) 0.14925(16) 0.6235(2)
N5_4 N 0.9152(3) 0.02169(16) 0.6920(2)
O1_4 O 0.8290(3) 0.47142(16) 0.6165(3)
C15_4 C 0.8607(4) 0.9989(2) 0.5898(3)
H9_4 H 0.8345 0.9468 0.5781
H7_3 H 0.3762 0.3409 0.9596
H8_3 H 0.3016 0.4664 0.9283
H7_4 H 0.6238 0.6591 0.0404
H8_4 H 0.6984 0.5336 0.0717
loop_
_geom_bond_atom_site_label_1
_geom_bond_atom_site_label_2
_geom_bond_site_symmetry_1
_geom_bond_site_symmetry_2
C1 C4 1_555 1_555
C2 C5 1_555 1_555
C3 H1 1_555 1_555
C4 C3 1_555 1_555
C5 C3 1_555 1_555
C6 C4 1_555 1_555
H2 C6 1_555 1_555
C7 C5 1_555 1_555
H3 C7 1_555 1_555
C8 C6 1_555 1_555
C9 H4 1_555 1_555
H5 C9 1_555 1_555
H6 C9 1_555 1_555
C10 C9 1_555 1_555
C11 C12 1_555 1_555
C12 N4 1_555 1_555
C14 C13 1_555 1_555
C15 C14 1_555 1_555
H9 C15 1_555 1_555
N1 C8 1_555 1_555
N2 C10 1_555 1_555
N3 C11 1_555 1_555
N4 C13 1_555 1_555
N5 C12 1_555 1_555
O1 C1 1_555 1_555
O2 C1 1_555 1_555
O3 C2 1_555 1_555
O4 C2 1_555 1_555
Co1 N3 1_555 1_555
N6 Co1 1_555 1_555
O5 Co1 1_555 1_555
O6 Co1 1_555 1_555
Co3 O2 1_555 1_555
Co4 N2 1_555 1_555
C7 C8 1_555 1_555
C10 N1 1_555 1_555
C11 N1 1_555 1_555
C15 N5 1_555 1_555
N2 N3 1_555 1_555
N5 Co1 1_555 1_555
H9_2 C15_2 1_555 1_555
N6_2 Co3 1_555 1_555
C1_2 C4_2 1_555 1_555
C6_2 C4_2 1_555 1_555
H2_2 C6_2 1_555 1_555
C11_2 C12_2 1_555 1_555
C12_2 N4_2 1_555 1_555
C13_2 H7 1_555 1_555
C14_2 C13_2 1_555 1_555
H8 C14_2 1_555 1_555
N3_2 C11_2 1_555 1_555
N4_2 C13_2 1_555 1_555
N5_2 C12_2 1_555 1_555
O1_2 C1_2 1_555 1_555
O5 C1_2 1_555 1_555
C2_2 C5_2 1_555 1_555
C3_2 H1_2 1_555 1_555
C5_2 C3_2 1_555 1_555
C7_2 C5_2 1_555 1_555
H3_2 C7_2 1_555 1_555
N1_2 C8_2 1_555 1_555
O6 C2_2 1_555 1_555
O4_2 C2_2 1_555 1_555
C7_2 C8_2 1_555 1_555
C10_2 N1_2 1_555 1_555
C9_2 H4_2 1_555 1_555
H5_2 C9_2 1_555 1_555
H6_2 C9_2 1_555 1_555
Co4_2 N2_2 1_555 1_555
C1_3 C4_3 1_555 1_555
C2_3 C5_3 1_555 1_555
C3_3 H1_3 1_555 1_555
C4_3 C3_3 1_555 1_555
C5_3 C3_3 1_555 1_555
C6_3 C4_3 1_555 1_555
H2_3 C6_3 1_555 1_555
C7_3 C5_3 1_555 1_555
H3_3 C7_3 1_555 1_555
C8_3 C6_3 1_555 1_555
C9_3 H4_3 1_555 1_555
H5_3 C9_3 1_555 1_555
H6_3 C9_3 1_555 1_555
C10_3 C9_3 1_555 1_555
C11_3 C12_3 1_555 1_555
C12_3 N4_3 1_555 1_555
C14_3 C13_3 1_555 1_555
C15_3 C14_3 1_555 1_555
H9_3 C15_3 1_555 1_555
N1_3 C8_3 1_555 1_555
N6 C10_3 1_555 1_555
N3_3 C11_3 1_555 1_555
N4_3 C13_3 1_555 1_555
N5_3 C12_3 1_555 1_555
O1_3 C1_3 1_555 1_555
O2_2 C1_3 1_555 1_555
O3_2 C2_3 1_555 1_555
O4_3 C2_3 1_555 1_555
Co4 N3_3 1_555 1_555
O5_2 Co4 1_555 1_555
O6_2 Co4 1_555 1_555
Co4_2 O2_2 1_555 1_555
C7_3 C8_3 1_555 1_555
C10_3 N1_3 1_555 1_555
C11_3 N1_3 1_555 1_555
C15_3 N5_3 1_555 1_555
N6 N3_3 1_555 1_555
N5_3 Co4 1_555 1_555
C9_4 H4_4 1_555 1_555
H5_4 C9_4 1_555 1_555
H6_4 C9_4 1_555 1_555
C2_4 C5_4 1_555 1_555
C3_4 H1_4 1_555 1_555
C5_4 C3_4 1_555 1_555
C7_4 C5_4 1_555 1_555
H3_4 C7_4 1_555 1_555
N1_4 C8_4 1_555 1_555
O6_2 C2_4 1_555 1_555
O4_4 C2_4 1_555 1_555
C7_4 C8_4 1_555 1_555
C10_4 N1_4 1_555 1_555
C1_4 C4_4 1_555 1_555
C6_4 C4_4 1_555 1_555
H2_4 C6_4 1_555 1_555
C11_4 C12_4 1_555 1_555
C12_4 N4_4 1_555 1_555
C13_4 H7_2 1_555 1_555
C14_4 C13_4 1_555 1_555
H8_2 C14_4 1_555 1_555
N3_4 C11_4 1_555 1_555
N4_4 C13_4 1_555 1_555
N5_4 C12_4 1_555 1_555
O1_4 C1_4 1_555 1_555
O5_2 C1_4 1_555 1_555
H9_4 C15_4 1_555 1_555

#END
