
###############################################################################
#
# This file contains modified crystal structure data generated from the
# MOF subset of the Cambridge Structural Database (CSD) v543 
# hosted by the Cambridge Crystallographic Data Centre (CCDC).
#
# This work is licensed under the Creative Commons
# Attribution-NonCommercial-ShareAlike 4.0 International License.
# To view a copy of this license, visit
# http://creativecommons.org/licenses/by-nc-sa/4.0/
# or send a letter to
# Creative Commons, PO Box 1866, Mountain View, CA 94042, USA.
#
# CIF created using the CSD Python API on 29 September 2022
# The structure has been converted into the P1 space group
# The structure has a 3D framework
# The original CSD entry TUNCAI is in the monoclinic crystal system
# The framework has been calculated to contain at least 10.0% void space
# The void calculation uses a probe of radius 1.32A, grid spacing 0.4
# H atom positions have been added when not included in the experimental data
# Generated hydrogen atom positions removed from atoms on special positions
#
###############################################################################

data_TUNCAI
_chemical_formula_moiety         '(C240 H172 Cd12 N12 O72)n'
_symmetry_cell_setting           triclinic
_symmetry_space_group_name_H-M   'P 1'
_symmetry_Int_Tables_number      1
_space_group_name_Hall           'P 1'
loop_
_symmetry_equiv_pos_site_id
_symmetry_equiv_pos_as_xyz
1 x,y,z
_cell_length_a                   14.1876(12)
_cell_length_b                   23.5853(19)
_cell_length_c                   19.2357(17)
_cell_angle_alpha                90
_cell_angle_beta                 106.356(2)
_cell_angle_gamma                90
_cell_volume                     6176.14
loop_
_atom_site_label
_atom_site_type_symbol
_atom_site_fract_x
_atom_site_fract_y
_atom_site_fract_z
C83 C 0.0031(6) 0.0615(4) 0.0860(5)
C85 C 0.0123(6) 0.1611(3) 0.0632(5)
C86 C 0.0475(5) 0.1139(3) 0.1064(4)
C87 C 0.1309(5) 0.1199(4) 0.1746(4)
H51 H 0.0256 0.0290 0.1127
H52 H 0.0412 0.1965 0.0730
O25 O 0.1600(4) 0.0749(3) 0.2094(3)
O26 O 0.1628(4) 0.1687(2) 0.1908(3)
Cd15 Cd 0.24672(3) 0.21381(2) 0.29075(3)
Cd20 Cd 0.29377(4) 0.04069(2) 0.28751(3)
C22 C 0.0834(5) 0.3095(3) 0.2018(4)
O9 O 0.1101(3) 0.3438(2) 0.1642(3)
O10 O 0.1352(3) 0.2906(2) 0.2625(3)
Cd8 Cd 0.26452(3) 0.36990(2) 0.22111(3)
H29 H 0.3038 0.0270 0.4534
C52 C 0.2430(6) 0.0105(3) 0.4354(4)
N2 N 0.2017(4) 0.0144(2) 0.3640(3)
C72 C 0.7079(5) 0.1216(3) 0.0034(4)
H45 H 0.7621 0.1204 0.0440
C73 C 0.6164(5) 0.1331(3) 0.0111(4)
C74 C 0.5438(5) 0.1736(3) 0.0975(4)
C75 C 0.5127(5) 0.1579(3) 0.1564(4)
H46 H 0.5351 0.1243 0.1808
C76 C 0.4491(5) 0.1916(3) 0.1790(4)
H47 H 0.4279 0.1805 0.2185
C77 C 0.5117(5) 0.2239(3) 0.0617(4)
H48 H 0.5324 0.2344 0.0217
C78 C 0.4486(5) 0.2586(3) 0.0856(4)
C79 C 0.4157(5) 0.2418(3) 0.1442(4)
C80 C 0.3498(5) 0.2786(3) 0.1723(4)
C82 C 0.9231(7) 0.0565(4) 0.0244(5)
C84 C 0.9339(7) 0.1555(4) 0.0021(5)
H50 H 0.8926 0.0225 0.0080
C109 C 0.0760(5) 0.1497(3) 0.3405(4)
H64 H 0.0444 0.1528 0.2913
C110 C 0.0281(5) 0.1236(3) 0.3844(4)
C111 C 0.2050(6) 0.1653(4) 0.4366(4)
H66 H 0.2676 0.1803 0.4559
C112 C 0.1626(6) 0.1403(3) 0.4836(4)
H67 H 0.1961 0.1381 0.5325
H69 H 0.0002 0.0482 0.6389
C113 C 0.0710(5) 0.1183(3) 0.4588(4)
C114 C 0.0246(6) 0.0904(3) 0.5090(4)
H72 H 0.0604 0.0898 0.5576
H74 H 0.4295 0.2929 0.0636
N5 N 0.1655(4) 0.1705(2) 0.3657(3)
O21 O 0.6127(3) 0.1384(2) 0.0815(2)
O22 O 0.3299(4) 0.2675(2) 0.2293(3)
O23 O 0.3196(3) 0.3252(2) 0.1367(3)
O35 O 0.3282(3) 0.2694(2) 0.3879(2)
O50 O 0.3653(3) 0.14182(19) 0.3200(2)
C67 C 0.4558(6) 0.1260(3) 0.8198(4)
C68 C 0.5456(5) 0.1256(3) 0.8840(4)
C69 C 0.5334(5) 0.1345(3) 0.9521(4)
H43 H 0.4715 0.1412 0.9581
C70 C 0.6387(6) 0.1149(3) 0.8759(4)
H44 H 0.6464 0.1097 0.8299
C71 C 0.7195(5) 0.1120(3) 0.9360(4)
C81 C 0.8900(6) 0.1043(5) 0.9850(5)
H53 H 0.9118 0.1878 0.9725
C101 C 0.2261(5) 0.0167(3) 0.7216(4)
Cd4 Cd 0.26452(3) 0.13010(2) 0.72111(3)
O19 O 0.3732(4) 0.1326(2) 0.8321(3)
O20 O 0.4652(4) 0.1173(2) 0.7581(3)
O24 O 0.8080(4) 0.0995(3) 0.9243(3)
O30 O 0.2642(4) 0.0362(2) 0.6743(3)
O31 O 0.1972(4) 0.0498(2) 0.7633(3)
O37 O 0.3299(4) 0.2325(2) 0.7293(3)
O39 O 0.3196(3) 0.1748(2) 0.6367(3)
O46 O 0.1101(3) 0.1562(2) 0.6642(3)
C36 C 0.6974(5) 0.2982(3) 0.9764(4)
C38 C 0.5862(6) 0.3755(3) 0.9683(4)
H19 H 0.5710 0.4104 0.9849
C39 C 0.6335(5) 0.2722(3) 0.9186(4)
H20 H 0.6491 0.2374 0.9020
C40 C 0.5456(5) 0.2985(3) 0.8853(4)
H21 H 0.5014 0.2808 0.8463
C41 C 0.5218(5) 0.3508(3) 0.9089(3)
C42 C 0.4330(5) 0.3848(4) 0.8686(4)
C55 C 0.4679(6) 0.4817(3) 0.7133(4)
H32 H 0.5033 0.4858 0.7617
C56 C 0.5149(6) 0.4904(3) 0.6609(5)
H33 H 0.5811 0.5001 0.6747
C57 C 0.3246(6) 0.4615(3) 0.6275(4)
H35 H 0.2583 0.4519 0.6152
C58 C 0.3689(6) 0.4692(3) 0.5712(4)
H36 H 0.3330 0.4635 0.5232
C59 C 0.4663(6) 0.4852(3) 0.5884(4)
C60 C 0.5177(7) 0.4979(3) 0.5341(4)
H37 H 0.5851 0.5036 0.5519
Cd3 Cd 0.29377(4) 0.45931(2) 0.78751(3)
N3 N 0.3723(4) 0.4673(2) 0.6970(3)
O15 O 0.4275(4) 0.4358(2) 0.8792(3)
O16 O 0.3653(3) 0.35818(19) 0.8200(2)
O18 O 0.3382(12) 0.5567(4) 0.8057(7)
C61 C 0.5321(6) 0.5183(3) 0.2867(4)
H38 H 0.4967 0.5142 0.2383
C62 C 0.4851(6) 0.5096(3) 0.3391(5)
H39 H 0.4189 0.4999 0.3253
C63 C 0.6754(6) 0.5385(3) 0.3725(4)
H40 H 0.7417 0.5481 0.3848
C64 C 0.6311(6) 0.5308(3) 0.4288(4)
H41 H 0.6670 0.5365 0.4768
C65 C 0.5337(6) 0.5148(3) 0.4116(4)
C66 C 0.4823(7) 0.5021(3) 0.4659(4)
H42 H 0.4149 0.4964 0.4481
N4 N 0.6277(4) 0.5327(2) 0.3030(3)
C102 C 0.3026(5) 0.7018(3) 0.0236(4)
C104 C 0.4138(6) 0.6245(3) 0.0317(4)
H61 H 0.4290 0.5896 0.0151
C105 C 0.3665(5) 0.7278(3) 0.0814(4)
H62 H 0.3509 0.7626 0.0980
C106 C 0.4544(5) 0.7015(3) 0.1147(4)
H63 H 0.4986 0.7192 0.1537
C107 C 0.4782(5) 0.6492(3) 0.0911(3)
C108 C 0.5670(5) 0.6152(4) 0.1314(4)
Cd6 Cd 0.70623(4) 0.54069(2) 0.21249(3)
O33 O 0.5725(4) 0.5642(2) 0.1208(3)
O34 O 0.6347(3) 0.64182(19) 0.1800(2)
O36 O 0.6618(12) 0.4433(4) 0.1943(7)
Cd13 Cd 0.24672(3) 0.28619(2) 0.79075(3)
Cd16 Cd 0.75328(3) 0.71381(2) 0.20925(3)
N7 N 0.7983(4) 0.5144(2) 0.1360(3)
N8 N 0.2017(4) 0.4856(2) 0.8640(3)
O41 O 0.1600(4) 0.4251(3) 0.7094(3)
O42 O 0.8400(4) 0.5749(3) 0.2906(3)
C1 C 0.5442(6) 0.8740(3) 0.1802(4)
C2 C 0.4544(5) 0.8744(3) 0.1160(4)
C3 C 0.4666(5) 0.8655(3) 0.0479(4)
H1 H 0.5285 0.8588 0.0419
C4 C 0.3613(6) 0.8851(3) 0.1241(4)
H2 H 0.3536 0.8903 0.1701
C5 C 0.2805(5) 0.8880(3) 0.0640(4)
C15 C 0.1100(6) 0.8957(5) 0.0150(5)
H11 H 0.0882 0.8122 0.0275
C35 C 0.7739(5) 0.9833(3) 0.2784(4)
Cd1 Cd 0.73548(3) 0.86990(2) 0.27889(3)
O1 O 0.6268(4) 0.8674(2) 0.1679(3)
O2 O 0.5348(4) 0.8827(2) 0.2419(3)
O6 O 0.1920(4) 0.9005(3) 0.0757(3)
O12 O 0.7358(4) 0.9638(2) 0.3257(3)
O13 O 0.8028(4) 0.9502(2) 0.2367(3)
O38 O 0.6701(4) 0.7675(2) 0.2707(3)
O40 O 0.6804(3) 0.8252(2) 0.3633(3)
O45 O 0.8899(3) 0.8438(2) 0.3358(3)
C6 C 0.2921(5) 0.8784(3) 0.9966(4)
H3 H 0.2379 0.8796 0.9560
C7 C 0.3836(5) 0.8669(3) 0.9889(4)
C8 C 0.4562(5) 0.8264(3) 0.9025(4)
C9 C 0.4873(5) 0.8421(3) 0.8436(4)
H4 H 0.4649 0.8757 0.8192
C10 C 0.5509(5) 0.8084(3) 0.8210(4)
H5 H 0.5721 0.8195 0.7815
C11 C 0.4883(5) 0.7761(3) 0.9383(4)
H6 H 0.4676 0.7656 0.9783
C12 C 0.5514(5) 0.7414(3) 0.9144(4)
C13 C 0.5843(5) 0.7582(3) 0.8558(4)
C14 C 0.6502(5) 0.7214(3) 0.8277(4)
C16 C 0.0769(7) 0.9435(4) 0.9756(5)
C18 C 0.0661(7) 0.8445(4) 0.9979(5)
H8 H 0.1074 0.9775 0.9920
C43 C 0.9240(5) 0.8503(3) 0.6595(4)
H22 H 0.9556 0.8472 0.7087
C44 C 0.9719(5) 0.8764(3) 0.6156(4)
C45 C 0.7950(6) 0.8347(4) 0.5634(4)
H24 H 0.7324 0.8197 0.5441
C46 C 0.8374(6) 0.8597(3) 0.5164(4)
H25 H 0.8039 0.8619 0.4675
H27 H 0.9998 0.9518 0.3611
C47 C 0.9290(5) 0.8817(3) 0.5412(4)
C48 C 0.9754(6) 0.9096(3) 0.4910(4)
H30 H 0.9396 0.9102 0.4424
H34 H 0.5705 0.7071 0.9364
Cd2 Cd 0.75328(3) 0.78619(2) 0.70925(3)
N1 N 0.8345(4) 0.8295(2) 0.6343(3)
O3 O 0.3873(3) 0.8616(2) 0.9185(2)
O4 O 0.6701(4) 0.7325(2) 0.7707(3)
O5 O 0.6804(3) 0.6748(2) 0.8633(3)
O17 O 0.6718(3) 0.7306(2) 0.6121(2)
Cd10 Cd 0.73548(3) 0.63010(2) 0.77889(3)
O43 O 0.8372(4) 0.8313(2) 0.8092(3)
O48 O 0.8648(3) 0.7094(2) 0.7375(3)
O49 O 0.6347(3) 0.85818(19) 0.6800(2)
H71 H 0.6962 0.9730 0.5466
C118 C 0.7570(6) 0.9895(3) 0.5646(4)
N6 N 0.7983(4) 0.9856(2) 0.6360(3)
Cd18 Cd 0.70623(4) 0.95931(2) 0.71249(3)
C88 C 0.9166(5) 0.6905(3) 0.7982(4)
O27 O 0.8899(3) 0.6562(2) 0.8358(3)
C17 C 0.9969(6) 0.9385(4) 0.9140(5)
C19 C 0.9877(6) 0.8389(3) 0.9368(5)
C20 C 0.9525(5) 0.8861(3) 0.8936(4)
C21 C 0.8691(5) 0.8801(4) 0.8254(4)
H9 H 0.9744 0.9710 0.8873
H10 H 0.9588 0.8035 0.9270
O7 O 0.8400(4) 0.9251(3) 0.7906(3)
C88_2 C 0.0834(5) 0.1905(3) 0.7018(4)
H65 H 0.0346 0.6091 0.1360
H70 H 0.2310 0.5151 0.0295
C115 C 0.0600(5) 0.5667(3) 0.0072(4)
H73 H 0.0957 0.5673 0.0558
O28 O 0.1352(3) 0.2094(2) 0.7625(3)
H68 H 0.0779 0.5030 0.7891
H71_2 H 0.3038 0.4730 0.9534
C116 C 0.1078(5) 0.5382(3) 0.9565(4)
C117 C 0.1989(6) 0.5146(3) 0.9808(4)
C118_2 C 0.2430(6) 0.4895(3) 0.9354(4)
C119 C 0.0622(6) 0.5342(3) 0.8826(4)
C120 C 0.1114(6) 0.5077(3) 0.8395(4)
C17_2 C 0.0031(6) 0.4385(4) 0.5860(5)
C19_2 C 0.0123(6) 0.3389(3) 0.5632(5)
C20_2 C 0.0475(5) 0.3861(3) 0.6064(4)
C21_2 C 0.1309(5) 0.3801(4) 0.6746(4)
H9_2 H 0.0256 0.4710 0.6127
H10_2 H 0.0412 0.3035 0.5730
O8 O 0.1628(4) 0.3313(2) 0.6908(3)
C61_2 C 0.4679(6) 0.0183(3) 0.2133(4)
H38_2 H 0.5033 0.0142 0.2617
C62_2 C 0.5149(6) 0.0096(3) 0.1609(5)
C63_2 C 0.3246(6) 0.0385(3) 0.1275(4)
H40_2 H 0.2583 0.0481 0.1152
C64_2 C 0.3689(6) 0.0308(3) 0.0712(4)
H41_2 H 0.3330 0.0365 0.0232
C65_2 C 0.4663(6) 0.0148(3) 0.0884(4)
C66_2 C 0.5177(7) 0.0021(3) 0.0341(4)
N4_2 N 0.3723(4) 0.0327(2) 0.1970(3)
C67_2 C 0.5442(6) 0.6260(3) 0.6802(4)
C68_2 C 0.4544(5) 0.6256(3) 0.6160(4)
C69_2 C 0.4666(5) 0.6345(3) 0.5479(4)
H43_2 H 0.5285 0.6412 0.5419
C70_2 C 0.3613(6) 0.6149(3) 0.6241(4)
H44_2 H 0.3536 0.6097 0.6701
C71_2 C 0.2805(5) 0.6120(3) 0.5640(4)
C72_2 C 0.2921(5) 0.6216(3) 0.4966(4)
H45_2 H 0.2379 0.6204 0.4560
C73_2 C 0.3836(5) 0.6331(3) 0.4889(4)
C74_2 C 0.4562(5) 0.6736(3) 0.4025(4)
C75_2 C 0.4873(5) 0.6579(3) 0.3436(4)
H46_2 H 0.4649 0.6243 0.3192
C76_2 C 0.5509(5) 0.6916(3) 0.3210(4)
H47_2 H 0.5721 0.6805 0.2815
C77_2 C 0.4883(5) 0.7239(3) 0.4383(4)
H48_2 H 0.4676 0.7344 0.4783
C78_2 C 0.5514(5) 0.7586(3) 0.4144(4)
C79_2 C 0.5843(5) 0.7418(3) 0.3558(4)
C80_2 C 0.6502(5) 0.7786(3) 0.3277(4)
C81_2 C 0.1100(6) 0.6043(5) 0.5150(5)
C82_2 C 0.0769(7) 0.5565(4) 0.4756(5)
C84_2 C 0.0661(7) 0.6555(4) 0.4979(5)
C89 C 0.9783(5) 0.2127(3) 0.6753(4)
C90 C 0.9277(5) 0.2070(3) 0.6020(4)
H49 H 0.9576 0.1900 0.5701
H50_2 H 0.1074 0.5225 0.4920
H53_2 H 0.0882 0.6878 0.5275
H54 H 0.7212 0.2617 0.6083
C91 C 0.8330(5) 0.2270(3) 0.5779(4)
C92 C 0.9325(5) 0.2382(3) 0.7230(4)
H55 H 0.9654 0.2430 0.7719
C93 C 0.7862(5) 0.2503(3) 0.6243(4)
C94 C 0.8371(5) 0.2560(3) 0.6949(4)
C95 C 0.7912(5) 0.3381(3) 0.7507(4)
C96 C 0.7415(5) 0.3590(3) 0.7981(4)
H56 H 0.7110 0.3345 0.8229
C97 C 0.7383(5) 0.4169(3) 0.8077(4)
H57 H 0.7065 0.4311 0.8402
C98 C 0.8354(5) 0.3740(3) 0.7124(4)
H58 H 0.8682 0.3599 0.6805
C99 C 0.8289(5) 0.4328(3) 0.7233(4)
H59 H 0.8579 0.4576 0.6979
C100 C 0.7813(5) 0.4544(3) 0.7701(4)
C101_2 C 0.7739(5) 0.5167(3) 0.7784(4)
C102_2 C 0.6974(5) 0.2018(3) 0.4764(4)
C103 C 0.6735(6) 0.1512(3) 0.5037(4)
H60 H 0.7154 0.1353 0.5453
C104_2 C 0.5862(6) 0.1245(3) 0.4683(4)
H61_2 H 0.5710 0.0896 0.4849
C105_2 C 0.6335(5) 0.2278(3) 0.4186(4)
H62_2 H 0.6491 0.2626 0.4020
C106_2 C 0.5456(5) 0.2015(3) 0.3853(4)
H63_2 H 0.5014 0.2192 0.3463
C107_2 C 0.5218(5) 0.1492(3) 0.4089(3)
C108_2 C 0.4330(5) 0.1152(4) 0.3686(4)
C109_2 C 0.9240(5) 0.6497(3) 0.1595(4)
H64_2 H 0.9556 0.6528 0.2087
C110_2 C 0.9719(5) 0.6236(3) 0.1156(4)
C111_2 C 0.7950(6) 0.6653(4) 0.0634(4)
H66_2 H 0.7324 0.6803 0.0441
C112_2 C 0.8374(6) 0.6403(3) 0.0164(4)
C113_2 C 0.9290(5) 0.6183(3) 0.0412(4)
H74_2 H 0.5705 0.7929 0.4364
N5_2 N 0.8345(4) 0.6705(2) 0.1343(3)
O19_2 O 0.6268(4) 0.6326(2) 0.6679(3)
O20_2 O 0.5348(4) 0.6173(2) 0.7419(3)
O21_2 O 0.3873(3) 0.6384(2) 0.4185(2)
O24_2 O 0.1920(4) 0.5995(3) 0.5757(3)
O29 O 0.7918(4) 0.2789(2) 0.7453(3)
O30_2 O 0.7358(4) 0.5362(2) 0.8257(3)
O31_2 O 0.8028(4) 0.5498(2) 0.7367(3)
O32 O 0.7888(3) 0.2267(2) 0.5030(3)
O33_2 O 0.4275(4) 0.0642(2) 0.3792(3)
O35_2 O 0.6718(3) 0.7694(2) 0.1121(2)
O44 O 0.8372(4) 0.6687(2) 0.3092(3)
O47 O 0.8648(3) 0.7906(2) 0.2375(3)
C1_2 C 0.4558(6) 0.3740(3) 0.3198(4)
C2_2 C 0.5456(5) 0.3744(3) 0.3840(4)
C3_2 C 0.5334(5) 0.3655(3) 0.4521(4)
H1_2 H 0.4715 0.3588 0.4581
C4_2 C 0.6387(6) 0.3851(3) 0.3759(4)
H2_2 H 0.6464 0.3903 0.3299
C5_2 C 0.7195(5) 0.3880(3) 0.4360(4)
C6_2 C 0.7079(5) 0.3784(3) 0.5034(4)
H3_2 H 0.7621 0.3796 0.5440
C7_2 C 0.6164(5) 0.3669(3) 0.5111(4)
C8_2 C 0.5438(5) 0.3264(3) 0.5975(4)
C9_2 C 0.5127(5) 0.3421(3) 0.6564(4)
H4_2 H 0.5351 0.3757 0.6808
C10_2 C 0.4491(5) 0.3084(3) 0.6790(4)
H5_2 H 0.4279 0.3195 0.7185
C11_2 C 0.5117(5) 0.2761(3) 0.5617(4)
H6_2 H 0.5324 0.2656 0.5217
C12_2 C 0.4486(5) 0.2414(3) 0.5856(4)
C13_2 C 0.4157(5) 0.2582(3) 0.6442(4)
C14_2 C 0.3498(5) 0.2214(3) 0.6723(4)
C15_2 C 0.8900(6) 0.3957(5) 0.4850(5)
C16_2 C 0.9231(7) 0.4435(4) 0.5244(5)
C18_2 C 0.9339(7) 0.3445(4) 0.5021(5)
C23 C 0.0217(5) 0.7873(3) 0.3247(4)
C24 C 0.0723(5) 0.7930(3) 0.3980(4)
H7 H 0.0424 0.8100 0.4299
H8_2 H 0.8926 0.4775 0.5080
H11_2 H 0.9118 0.3122 0.4725
H12 H 0.2788 0.7383 0.3917
C25 C 0.1670(5) 0.7730(3) 0.4221(4)
C26 C 0.0675(5) 0.7618(3) 0.2770(4)
H13 H 0.0346 0.7570 0.2281
C27 C 0.2138(5) 0.7497(3) 0.3757(4)
C28 C 0.1629(5) 0.7440(3) 0.3051(4)
C29 C 0.2088(5) 0.6619(3) 0.2493(4)
C30 C 0.2585(5) 0.6410(3) 0.2019(4)
H14 H 0.2890 0.6655 0.1771
C31 C 0.2617(5) 0.5831(3) 0.1923(4)
H15 H 0.2935 0.5689 0.1598
C32 C 0.1646(5) 0.6260(3) 0.2876(4)
H16 H 0.1318 0.6401 0.3195
C33 C 0.1711(5) 0.5672(3) 0.2767(4)
H17 H 0.1421 0.5424 0.3021
C34 C 0.2187(5) 0.5456(3) 0.2299(4)
C35_2 C 0.2261(5) 0.4833(3) 0.2216(4)
C36_2 C 0.3026(5) 0.7982(3) 0.5236(4)
C37 C 0.3265(6) 0.8488(3) 0.4963(4)
H18 H 0.2846 0.8647 0.4547
C38_2 C 0.4138(6) 0.8755(3) 0.5317(4)
H19_2 H 0.4290 0.9104 0.5151
C39_2 C 0.3665(5) 0.7722(3) 0.5814(4)
H20_2 H 0.3509 0.7374 0.5980
C40_2 C 0.4544(5) 0.7985(3) 0.6147(4)
H21_2 H 0.4986 0.7808 0.6537
C41_2 C 0.4782(5) 0.8508(3) 0.5911(3)
C42_2 C 0.5670(5) 0.8848(4) 0.6314(4)
C43_2 C 0.0760(5) 0.3503(3) 0.8405(4)
H22_2 H 0.0444 0.3472 0.7913
C44_2 C 0.0281(5) 0.3764(3) 0.8844(4)
C45_2 C 0.2050(6) 0.3347(4) 0.9366(4)
H24_2 H 0.2676 0.3197 0.9559
C46_2 C 0.1626(6) 0.3597(3) 0.9836(4)
C47_2 C 0.0710(5) 0.3817(3) 0.9588(4)
C55_2 C 0.5321(6) 0.9817(3) 0.7867(4)
H32_2 H 0.4967 0.9858 0.7383
C56_2 C 0.4851(6) 0.9904(3) 0.8391(5)
H34_2 H 0.4295 0.2071 0.5636
C57_2 C 0.6754(6) 0.9615(3) 0.8725(4)
H35_2 H 0.7417 0.9519 0.8848
C58_2 C 0.6311(6) 0.9692(3) 0.9288(4)
H36_2 H 0.6670 0.9635 0.9768
C59_2 C 0.5337(6) 0.9852(3) 0.9116(4)
C60_2 C 0.4823(7) 0.9979(3) 0.9659(4)
N1_2 N 0.1655(4) 0.3295(2) 0.8657(3)
N3_2 N 0.6277(4) 0.9673(2) 0.8030(3)
O1_2 O 0.3732(4) 0.3674(2) 0.3321(3)
O2_2 O 0.4652(4) 0.3827(2) 0.2581(3)
O3_2 O 0.6127(3) 0.3616(2) 0.5815(2)
O6_2 O 0.8080(4) 0.4005(3) 0.4243(3)
O11 O 0.2082(4) 0.7211(2) 0.2547(3)
O12_2 O 0.2642(4) 0.4638(2) 0.1743(3)
O13_2 O 0.1972(4) 0.4502(2) 0.2633(3)
O14 O 0.2112(3) 0.7733(2) 0.4970(3)
O15_2 O 0.5725(4) 0.9358(2) 0.6208(3)
O17_2 O 0.3282(3) 0.2306(2) 0.8879(2)
C83_2 C 0.9969(6) 0.5615(4) 0.4140(5)
C85_2 C 0.9877(6) 0.6611(3) 0.4368(5)
C86_2 C 0.9525(5) 0.6139(3) 0.3936(4)
C87_2 C 0.8691(5) 0.6199(4) 0.3254(4)
H51_2 H 0.9744 0.5290 0.3873
H52_2 H 0.9588 0.6965 0.4270
H26 H 0.9221 0.4970 0.2109
H29_2 H 0.6962 0.5270 0.0466
C50 C 0.8922(5) 0.4618(3) 0.0435(4)
C51 C 0.8011(6) 0.4854(3) 0.0192(4)
C52_2 C 0.7570(6) 0.5105(3) 0.0646(4)
C53 C 0.9378(6) 0.4658(3) 0.1174(4)
C54 C 0.8886(6) 0.4923(3) 0.1605(4)
C22_2 C 0.9166(5) 0.8095(3) 0.2982(4)
H23 H 0.9654 0.3909 0.8640
H28 H 0.7690 0.4849 0.9705
C49 C 0.9400(5) 0.4333(3) 0.9928(4)
H31 H 0.9043 0.4327 0.9442
H23_2 H 0.0346 0.8909 0.6360
H26_2 H 0.0779 0.9970 0.2891
H28_2 H 0.2310 0.9849 0.5295
C49_2 C 0.0600(5) 0.9333(3) 0.5072(4)
H31_2 H 0.0957 0.9327 0.5558
C50_2 C 0.1078(5) 0.9618(3) 0.4565(4)
C51_2 C 0.1989(6) 0.9854(3) 0.4808(4)
C53_2 C 0.0622(6) 0.9658(3) 0.3826(4)
C54_2 C 0.1114(6) 0.9923(3) 0.3395(4)
C23_2 C 0.9783(5) 0.2873(3) 0.1753(4)
C24_2 C 0.9277(5) 0.2930(3) 0.1020(4)
H7_2 H 0.9576 0.3100 0.0701
H12_2 H 0.7212 0.2383 0.1083
C25_2 C 0.8330(5) 0.2730(3) 0.0779(4)
C26_2 C 0.9325(5) 0.2618(3) 0.2230(4)
H13_2 H 0.9654 0.2570 0.2719
C27_2 C 0.7862(5) 0.2497(3) 0.1243(4)
C28_2 C 0.8371(5) 0.2440(3) 0.1949(4)
C29_2 C 0.7912(5) 0.1619(3) 0.2507(4)
C30_2 C 0.7415(5) 0.1410(3) 0.2981(4)
H14_2 H 0.7110 0.1655 0.3229
C31_2 C 0.7383(5) 0.0831(3) 0.3077(4)
H15_2 H 0.7065 0.0689 0.3402
C32_2 C 0.8354(5) 0.1260(3) 0.2124(4)
H16_2 H 0.8682 0.1401 0.1805
C33_2 C 0.8289(5) 0.0672(3) 0.2233(4)
H17_2 H 0.8579 0.0424 0.1979
C34_2 C 0.7813(5) 0.0456(3) 0.2701(4)
C37_2 C 0.6735(6) 0.3488(3) 0.0037(4)
H18_2 H 0.7154 0.3647 0.0453
O11_2 O 0.7918(4) 0.2211(2) 0.2453(3)
O14_2 O 0.7888(3) 0.2733(2) 0.0030(3)
C89_2 C 0.0217(5) 0.7127(3) 0.8247(4)
C90_2 C 0.0723(5) 0.7070(3) 0.8980(4)
H49_2 H 0.0424 0.6900 0.9299
H54_2 H 0.2788 0.7617 0.8917
C91_2 C 0.1670(5) 0.7270(3) 0.9221(4)
C92_2 C 0.0675(5) 0.7382(3) 0.7770(4)
H55_2 H 0.0346 0.7430 0.7281
C93_2 C 0.2138(5) 0.7503(3) 0.8757(4)
C94_2 C 0.1629(5) 0.7560(3) 0.8051(4)
C95_2 C 0.2088(5) 0.8381(3) 0.7493(4)
C96_2 C 0.2585(5) 0.8590(3) 0.7019(4)
H56_2 H 0.2890 0.8345 0.6771
C97_2 C 0.2617(5) 0.9169(3) 0.6923(4)
H57_2 H 0.2935 0.9311 0.6598
C98_2 C 0.1646(5) 0.8740(3) 0.7876(4)
H58_2 H 0.1318 0.8599 0.8195
C99_2 C 0.1711(5) 0.9328(3) 0.7767(4)
H59_2 H 0.1421 0.9576 0.8021
C100_2 C 0.2187(5) 0.9544(3) 0.7299(4)
C103_2 C 0.3265(6) 0.6512(3) 0.9963(4)
H60_2 H 0.2846 0.6353 0.9547
O29_2 O 0.2082(4) 0.7789(2) 0.7547(3)
O32_2 O 0.2112(3) 0.7267(2) 0.9970(3)
H65_2 H 0.9654 0.1091 0.3640
H68_2 H 0.9221 0.0030 0.7109
H70_2 H 0.7690 0.0151 0.4705
C115_2 C 0.9400(5) 0.0667(3) 0.4928(4)
H73_2 H 0.9043 0.0673 0.4442
C116_2 C 0.8922(5) 0.0382(3) 0.5435(4)
C117_2 C 0.8011(6) 0.0146(3) 0.5192(4)
C119_2 C 0.9378(6) 0.0342(3) 0.6174(4)
C120_2 C 0.8886(6) 0.0077(3) 0.6605(4)
H33_2 H 0.4189 0.0001 0.8253
H37_2 H 0.4149 0.0036 0.9481
O18_2 O 0.6618(12) 0.0567(4) 0.6943(7)
H67_2 H 0.8039 0.6381 0.9675
H69_2 H 0.9998 0.5482 0.8611
C114_2 C 0.9754(6) 0.5904(3) 0.9910(4)
H72_2 H 0.9396 0.5898 0.9424
H25_2 H 0.1961 0.3619 0.0325
H27_2 H 0.0002 0.4518 0.1389
C48_2 C 0.0246(6) 0.4096(3) 0.0090(4)
H30_2 H 0.0604 0.4102 0.0576
H39_2 H 0.5811 0.9999 0.1747
H42_2 H 0.5851 0.9964 0.0519
O36_2 O 0.3382(12) 0.9433(4) 0.3057(7)
loop_
_geom_bond_atom_site_label_1
_geom_bond_atom_site_label_2
_geom_bond_site_symmetry_1
_geom_bond_site_symmetry_2
C83 C86 1_555 1_555
C86 C85 1_555 1_555
C87 C86 1_555 1_555
H51 C83 1_555 1_555
H52 C85 1_555 1_555
O25 C87 1_555 1_555
O26 C87 1_555 1_555
Cd15 O26 1_555 1_555
Cd20 O25 1_555 1_555
O9 C22 1_555 1_555
O10 C22 1_555 1_555
Cd8 O9 1_555 1_555
Cd15 O10 1_555 1_555
H29 C52 1_555 1_555
N2 C52 1_555 1_555
Cd20 N2 1_555 1_555
H45 C72 1_555 1_555
C74 C75 1_555 1_555
C75 H46 1_555 1_555
C76 C75 1_555 1_555
H47 C76 1_555 1_555
C77 C74 1_555 1_555
H48 C77 1_555 1_555
C78 C77 1_555 1_555
C79 C76 1_555 1_555
C80 C79 1_555 1_555
H50 C82 1_555 1_555
C109 H64 1_555 1_555
C110 C109 1_555 1_555
C111 H66 1_555 1_555
C112 C111 1_555 1_555
H67 C112 1_555 1_555
C113 C110 1_555 1_555
C114 C113 1_555 1_555
H72 C114 1_555 1_555
H74 C78 1_555 1_555
Cd15 N5 1_555 1_555
N5 C109 1_555 1_555
O21 C73 1_555 1_555
O22 C80 1_555 1_555
O23 C80 1_555 1_555
O35 Cd15 1_555 1_555
Cd8 O22 1_555 1_555
O50 Cd15 1_555 1_555
C72 C73 1_555 1_555
C74 O21 1_555 1_555
C78 C79 1_555 1_555
C111 N5 1_555 1_555
C112 C113 1_555 1_555
Cd15 O22 1_555 1_555
O23 Cd8 1_555 1_555
C67 C68 1_555 1_555
C68 C69 1_555 1_555
C69 H43 1_555 1_555
C70 C68 1_555 1_555
H44 C70 1_555 1_555
C71 C70 1_555 1_555
Cd4 O19 1_555 1_555
O19 C67 1_555 1_555
O20 C67 1_555 1_555
O24 C71 1_555 1_555
O30 C101 1_555 1_555
O31 C101 1_555 1_555
O37 Cd4 1_555 1_555
O39 Cd4 1_555 1_555
O46 Cd4 1_555 1_555
C81 O24 1_555 1_555
Cd4 O20 1_555 1_555
Cd4 O30 1_555 1_555
Cd4 O31 1_555 1_555
H19 C38 1_555 1_555
C39 C36 1_555 1_555
H20 C39 1_555 1_555
C40 C39 1_555 1_555
H21 C40 1_555 1_555
C41 C38 1_555 1_555
C42 C41 1_555 1_555
C55 H32 1_555 1_555
C56 C55 1_555 1_555
H33 C56 1_555 1_555
C57 H35 1_555 1_555
C58 C57 1_555 1_555
H36 C58 1_555 1_555
C59 C56 1_555 1_555
C60 C59 1_555 1_555
H37 C60 1_555 1_555
Cd3 N3 1_555 1_555
N3 C55 1_555 1_555
O15 C42 1_555 1_555
O16 C42 1_555 1_555
O18 Cd3 1_555 1_555
C61 H38 1_555 1_555
C62 C61 1_555 1_555
H39 C62 1_555 1_555
C63 H40 1_555 1_555
C64 C63 1_555 1_555
H41 C64 1_555 1_555
C65 C62 1_555 1_555
C66 C60 1_555 1_555
H42 C66 1_555 1_555
N4 C61 1_555 1_555
H61 C104 1_555 1_555
C105 C102 1_555 1_555
H62 C105 1_555 1_555
C106 C105 1_555 1_555
H63 C106 1_555 1_555
C107 C104 1_555 1_555
C108 C107 1_555 1_555
Cd6 N4 1_555 1_555
O33 C108 1_555 1_555
O34 C108 1_555 1_555
O36 Cd6 1_555 1_555
Cd13 O16 1_555 1_555
Cd16 O34 1_555 1_555
N7 Cd6 1_555 1_555
N8 Cd3 1_555 1_555
O41 Cd3 1_555 1_555
O42 Cd6 1_555 1_555
C40 C41 1_555 1_555
C57 N3 1_555 1_555
C58 C59 1_555 1_555
Cd3 O15 1_555 1_555
Cd3 O16 1_555 1_555
C63 N4 1_555 1_555
C64 C65 1_555 1_555
C65 C66 1_555 1_555
C106 C107 1_555 1_555
Cd6 O33 1_555 1_555
Cd6 O34 1_555 1_555
C1 C2 1_555 1_555
C2 C3 1_555 1_555
C3 H1 1_555 1_555
C4 C2 1_555 1_555
H2 C4 1_555 1_555
C5 C4 1_555 1_555
Cd1 O1 1_555 1_555
O1 C1 1_555 1_555
O2 C1 1_555 1_555
O6 C5 1_555 1_555
O12 C35 1_555 1_555
O13 C35 1_555 1_555
O38 Cd1 1_555 1_555
O40 Cd1 1_555 1_555
O45 Cd1 1_555 1_555
C15 O6 1_555 1_555
Cd1 O2 1_555 1_555
Cd1 O12 1_555 1_555
Cd1 O13 1_555 1_555
H3 C6 1_555 1_555
C8 C9 1_555 1_555
C9 H4 1_555 1_555
C10 C9 1_555 1_555
H5 C10 1_555 1_555
C11 C8 1_555 1_555
H6 C11 1_555 1_555
C12 C11 1_555 1_555
C13 C10 1_555 1_555
C14 C13 1_555 1_555
H8 C16 1_555 1_555
C43 H22 1_555 1_555
C44 C43 1_555 1_555
C45 H24 1_555 1_555
C46 C45 1_555 1_555
H25 C46 1_555 1_555
C47 C44 1_555 1_555
C48 C47 1_555 1_555
H30 C48 1_555 1_555
H34 C12 1_555 1_555
Cd2 N1 1_555 1_555
N1 C43 1_555 1_555
O3 C7 1_555 1_555
O4 C14 1_555 1_555
O5 C14 1_555 1_555
O17 Cd2 1_555 1_555
Cd10 O4 1_555 1_555
O43 Cd2 1_555 1_555
O48 Cd2 1_555 1_555
O49 Cd2 1_555 1_555
C6 C7 1_555 1_555
C8 O3 1_555 1_555
C12 C13 1_555 1_555
C45 N1 1_555 1_555
C46 C47 1_555 1_555
Cd2 O4 1_555 1_555
O5 Cd10 1_555 1_555
H71 C118 1_555 1_555
N6 C118 1_555 1_555
Cd18 N6 1_555 1_555
O27 C88 1_555 1_555
O48 C88 1_555 1_555
Cd10 O27 1_555 1_555
C17 C20 1_555 1_555
C20 C19 1_555 1_555
C21 C20 1_555 1_555
H9 C17 1_555 1_555
H10 C19 1_555 1_555
O7 C21 1_555 1_555
O43 C21 1_555 1_555
Cd18 O7 1_555 1_555
H73 C115 1_555 1_555
O46 C88_2 1_555 1_555
O28 C88_2 1_555 1_555
Cd13 O28 1_555 1_555
H68 C120 1_555 1_555
H71_2 C118_2 1_555 1_555
C117 C116 1_555 1_555
C118_2 C117 1_555 1_555
C119 C116 1_555 1_555
C120 C119 1_555 1_555
N8 C118_2 1_555 1_555
C120 N8 1_555 1_555
C17_2 C20_2 1_555 1_555
C20_2 C19_2 1_555 1_555
C21_2 C20_2 1_555 1_555
H9_2 C17_2 1_555 1_555
H10_2 C19_2 1_555 1_555
O41 C21_2 1_555 1_555
O8 C21_2 1_555 1_555
Cd13 O8 1_555 1_555
C61_2 H38_2 1_555 1_555
C62_2 C61_2 1_555 1_555
C63_2 H40_2 1_555 1_555
C64_2 C63_2 1_555 1_555
H41_2 C64_2 1_555 1_555
C65_2 C62_2 1_555 1_555
N4_2 C61_2 1_555 1_555
C67_2 C68_2 1_555 1_555
C68_2 C69_2 1_555 1_555
C69_2 H43_2 1_555 1_555
C70_2 C68_2 1_555 1_555
H44_2 C70_2 1_555 1_555
C71_2 C70_2 1_555 1_555
C72_2 C71_2 1_555 1_555
H45_2 C72_2 1_555 1_555
C73_2 C69_2 1_555 1_555
C74_2 C75_2 1_555 1_555
C75_2 H46_2 1_555 1_555
C76_2 C75_2 1_555 1_555
H47_2 C76_2 1_555 1_555
C77_2 C74_2 1_555 1_555
H48_2 C77_2 1_555 1_555
C78_2 C77_2 1_555 1_555
C79_2 C76_2 1_555 1_555
C80_2 C79_2 1_555 1_555
C81_2 C82_2 1_555 1_555
C84_2 C81_2 1_555 1_555
C89 C90 1_555 1_555
C90 H49 1_555 1_555
H50_2 C82_2 1_555 1_555
H53_2 C84_2 1_555 1_555
H54 C93 1_555 1_555
C91 C90 1_555 1_555
C92 C89 1_555 1_555
H55 C92 1_555 1_555
C93 C91 1_555 1_555
C94 C92 1_555 1_555
C95 C96 1_555 1_555
C96 H56 1_555 1_555
C97 C96 1_555 1_555
H57 C97 1_555 1_555
C98 C95 1_555 1_555
H58 C98 1_555 1_555
C99 C98 1_555 1_555
H59 C99 1_555 1_555
C100 C97 1_555 1_555
C101_2 C100 1_555 1_555
C102_2 C103 1_555 1_555
C103 H60 1_555 1_555
C104_2 C103 1_555 1_555
H61_2 C104_2 1_555 1_555
C105_2 C102_2 1_555 1_555
H62_2 C105_2 1_555 1_555
C106_2 C105_2 1_555 1_555
H63_2 C106_2 1_555 1_555
C107_2 C104_2 1_555 1_555
C108_2 C107_2 1_555 1_555
C109_2 H64_2 1_555 1_555
C110_2 C109_2 1_555 1_555
C111_2 H66_2 1_555 1_555
C112_2 C111_2 1_555 1_555
C113_2 C110_2 1_555 1_555
H74_2 C78_2 1_555 1_555
Cd10 O19_2 1_555 1_555
Cd16 N5_2 1_555 1_555
Cd20 N4_2 1_555 1_555
N5_2 C109_2 1_555 1_555
O19_2 C67_2 1_555 1_555
O20_2 C67_2 1_555 1_555
O21_2 C73_2 1_555 1_555
O38 C80_2 1_555 1_555
O40 C80_2 1_555 1_555
O24_2 C71_2 1_555 1_555
O29 C94 1_555 1_555
O30_2 C101_2 1_555 1_555
O31_2 C101_2 1_555 1_555
O32 C91 1_555 1_555
O33_2 C108_2 1_555 1_555
O50 C108_2 1_555 1_555
O35_2 Cd16 1_555 1_555
O44 Cd16 1_555 1_555
O47 Cd16 1_555 1_555
C63_2 N4_2 1_555 1_555
C64_2 C65_2 1_555 1_555
C65_2 C66_2 1_555 1_555
C72_2 C73_2 1_555 1_555
C74_2 O21_2 1_555 1_555
C78_2 C79_2 1_555 1_555
C81_2 O24_2 1_555 1_555
C93 C94 1_555 1_555
C95 O29 1_555 1_555
C99 C100 1_555 1_555
C102_2 O32 1_555 1_555
C106_2 C107_2 1_555 1_555
C111_2 N5_2 1_555 1_555
C112_2 C113_2 1_555 1_555
Cd10 O20_2 1_555 1_555
Cd10 O30_2 1_555 1_555
Cd10 O31_2 1_555 1_555
Cd16 O38 1_555 1_555
Cd20 O33_2 1_555 1_555
Cd20 O50 1_555 1_555
C1_2 C2_2 1_555 1_555
C2_2 C3_2 1_555 1_555
C3_2 H1_2 1_555 1_555
C4_2 C2_2 1_555 1_555
H2_2 C4_2 1_555 1_555
C5_2 C4_2 1_555 1_555
C6_2 C5_2 1_555 1_555
H3_2 C6_2 1_555 1_555
C7_2 C3_2 1_555 1_555
C8_2 C9_2 1_555 1_555
C9_2 H4_2 1_555 1_555
C10_2 C9_2 1_555 1_555
H5_2 C10_2 1_555 1_555
C11_2 C8_2 1_555 1_555
H6_2 C11_2 1_555 1_555
C12_2 C11_2 1_555 1_555
C13_2 C10_2 1_555 1_555
C14_2 C13_2 1_555 1_555
C15_2 C16_2 1_555 1_555
C18_2 C15_2 1_555 1_555
C23 C24 1_555 1_555
C24 H7 1_555 1_555
H8_2 C16_2 1_555 1_555
H11_2 C18_2 1_555 1_555
H12 C27 1_555 1_555
C25 C24 1_555 1_555
C26 C23 1_555 1_555
H13 C26 1_555 1_555
C27 C25 1_555 1_555
C28 C26 1_555 1_555
C29 C30 1_555 1_555
C30 H14 1_555 1_555
C31 C30 1_555 1_555
H15 C31 1_555 1_555
C32 C29 1_555 1_555
H16 C32 1_555 1_555
C33 C32 1_555 1_555
H17 C33 1_555 1_555
C34 C31 1_555 1_555
C35_2 C34 1_555 1_555
C36_2 C37 1_555 1_555
C37 H18 1_555 1_555
C38_2 C37 1_555 1_555
H19_2 C38_2 1_555 1_555
C39_2 C36_2 1_555 1_555
H20_2 C39_2 1_555 1_555
C40_2 C39_2 1_555 1_555
H21_2 C40_2 1_555 1_555
C41_2 C38_2 1_555 1_555
C42_2 C41_2 1_555 1_555
C43_2 H22_2 1_555 1_555
C44_2 C43_2 1_555 1_555
C45_2 H24_2 1_555 1_555
C46_2 C45_2 1_555 1_555
C47_2 C44_2 1_555 1_555
C55_2 H32_2 1_555 1_555
C56_2 C55_2 1_555 1_555
H34_2 C12_2 1_555 1_555
C57_2 H35_2 1_555 1_555
C58_2 C57_2 1_555 1_555
H36_2 C58_2 1_555 1_555
C59_2 C56_2 1_555 1_555
C60_2 C59_2 1_555 1_555
Cd8 O1_2 1_555 1_555
Cd13 N1_2 1_555 1_555
Cd18 N3_2 1_555 1_555
N1_2 C43_2 1_555 1_555
N3_2 C55_2 1_555 1_555
O1_2 C1_2 1_555 1_555
O2_2 C1_2 1_555 1_555
O3_2 C7_2 1_555 1_555
O37 C14_2 1_555 1_555
O39 C14_2 1_555 1_555
O6_2 C5_2 1_555 1_555
O11 C28 1_555 1_555
O12_2 C35_2 1_555 1_555
O13_2 C35_2 1_555 1_555
O14 C25 1_555 1_555
O15_2 C42_2 1_555 1_555
O49 C42_2 1_555 1_555
O17_2 Cd13 1_555 1_555
C6_2 C7_2 1_555 1_555
C8_2 O3_2 1_555 1_555
C12_2 C13_2 1_555 1_555
C15_2 O6_2 1_555 1_555
C27 C28 1_555 1_555
C29 O11 1_555 1_555
C33 C34 1_555 1_555
C36_2 O14 1_555 1_555
C40_2 C41_2 1_555 1_555
C45_2 N1_2 1_555 1_555
C46_2 C47_2 1_555 1_555
C57_2 N3_2 1_555 1_555
C58_2 C59_2 1_555 1_555
Cd8 O2_2 1_555 1_555
Cd8 O12_2 1_555 1_555
Cd8 O13_2 1_555 1_555
Cd13 O37 1_555 1_555
Cd18 O15_2 1_555 1_555
Cd18 O49 1_555 1_555
C83_2 C86_2 1_555 1_555
C86_2 C85_2 1_555 1_555
C87_2 C86_2 1_555 1_555
H51_2 C83_2 1_555 1_555
H52_2 C85_2 1_555 1_555
O42 C87_2 1_555 1_555
O44 C87_2 1_555 1_555
H26 C54 1_555 1_555
H29_2 C52_2 1_555 1_555
C51 C50 1_555 1_555
C52_2 C51 1_555 1_555
C53 C50 1_555 1_555
C54 C53 1_555 1_555
N7 C52_2 1_555 1_555
C54 N7 1_555 1_555
H31 C49 1_555 1_555
O45 C22_2 1_555 1_555
O47 C22_2 1_555 1_555
H26_2 C54_2 1_555 1_555
H28_2 C51_2 1_555 1_555
H31_2 C49_2 1_555 1_555
C50_2 C49_2 1_555 1_555
C51_2 C50_2 1_555 1_555
C53_2 C50_2 1_555 1_555
C54_2 C53_2 1_555 1_555
C23_2 C24_2 1_555 1_555
C24_2 H7_2 1_555 1_555
H12_2 C27_2 1_555 1_555
C25_2 C24_2 1_555 1_555
C26_2 C23_2 1_555 1_555
H13_2 C26_2 1_555 1_555
C27_2 C25_2 1_555 1_555
C28_2 C26_2 1_555 1_555
C29_2 C30_2 1_555 1_555
C30_2 H14_2 1_555 1_555
C31_2 C30_2 1_555 1_555
H15_2 C31_2 1_555 1_555
C32_2 C29_2 1_555 1_555
H16_2 C32_2 1_555 1_555
C33_2 C32_2 1_555 1_555
H17_2 C33_2 1_555 1_555
C34_2 C31_2 1_555 1_555
C37_2 H18_2 1_555 1_555
O11_2 C28_2 1_555 1_555
O14_2 C25_2 1_555 1_555
C27_2 C28_2 1_555 1_555
C29_2 O11_2 1_555 1_555
C33_2 C34_2 1_555 1_555
C89_2 C90_2 1_555 1_555
C90_2 H49_2 1_555 1_555
H54_2 C93_2 1_555 1_555
C91_2 C90_2 1_555 1_555
C92_2 C89_2 1_555 1_555
H55_2 C92_2 1_555 1_555
C93_2 C91_2 1_555 1_555
C94_2 C92_2 1_555 1_555
C95_2 C96_2 1_555 1_555
C96_2 H56_2 1_555 1_555
C97_2 C96_2 1_555 1_555
H57_2 C97_2 1_555 1_555
C98_2 C95_2 1_555 1_555
H58_2 C98_2 1_555 1_555
C99_2 C98_2 1_555 1_555
H59_2 C99_2 1_555 1_555
C100_2 C97_2 1_555 1_555
C103_2 H60_2 1_555 1_555
O29_2 C94_2 1_555 1_555
O32_2 C91_2 1_555 1_555
C93_2 C94_2 1_555 1_555
C95_2 O29_2 1_555 1_555
C99_2 C100_2 1_555 1_555
H68_2 C120_2 1_555 1_555
H70_2 C117_2 1_555 1_555
H73_2 C115_2 1_555 1_555
C116_2 C115_2 1_555 1_555
C117_2 C116_2 1_555 1_555
C119_2 C116_2 1_555 1_555
C120_2 C119_2 1_555 1_555
H72_2 C114_2 1_555 1_555
H30_2 C48_2 1_555 1_555

#END
