
###############################################################################
#
# This file contains modified crystal structure data generated from the
# MOF subset of the Cambridge Structural Database (CSD) v543 
# hosted by the Cambridge Crystallographic Data Centre (CCDC).
#
# This work is licensed under the Creative Commons
# Attribution-NonCommercial-ShareAlike 4.0 International License.
# To view a copy of this license, visit
# http://creativecommons.org/licenses/by-nc-sa/4.0/
# or send a letter to
# Creative Commons, PO Box 1866, Mountain View, CA 94042, USA.
#
# CIF created using the CSD Python API on 29 September 2022
# The structure has been converted into the P1 space group
# The structure has a 3D framework
# The original CSD entry TUNJET is in the monoclinic crystal system
# The framework has been calculated to contain at least 10.0% void space
# The void calculation uses a probe of radius 1.32A, grid spacing 0.4
#
###############################################################################

data_TUNJET
_chemical_formula_moiety         '(C352 H224 Br64 Co16 N64 O64)n'
_symmetry_cell_setting           triclinic
_symmetry_space_group_name_H-M   'P 1'
_symmetry_Int_Tables_number      1
_space_group_name_Hall           'P 1'
loop_
_symmetry_equiv_pos_site_id
_symmetry_equiv_pos_as_xyz
1 x,y,z
_cell_length_a                   20.4029(5)
_cell_length_b                   17.3310(5)
_cell_length_c                   38.6793(15)
_cell_angle_alpha                90
_cell_angle_beta                 91.038(3)
_cell_angle_gamma                90
_cell_volume                     13674.9
loop_
_atom_site_label
_atom_site_type_symbol
_atom_site_fract_x
_atom_site_fract_y
_atom_site_fract_z
N3 N 0.2325(4) 0.0467(5) 0.5203(2)
N5 N 0.2557(4) 0.0591(5) 0.4652(2)
C23 C 0.2088(5) 0.0610(6) 0.4887(3)
H9 H 0.1650 0.0711 0.4836
C31 C 0.3115(5) 0.0418(7) 0.4834(3)
H15 H 0.3527 0.0354 0.4740
C33 C 0.1933(5) 0.0447(6) 0.5516(3)
H18 H 0.1699 0.0931 0.5537
H19 H 0.2224 0.0398 0.5716
H20 H 0.0709 0.0403 0.5310
C44 C 0.2975(5) 0.0352(7) 0.5177(3)
H28 H 0.3271 0.0249 0.5356
Co3 Co 0.24713(6) 0.07651(8) 0.41374(3)
Br1 Br 0.57316(6) 0.34690(7) 0.60709(3)
Br2 Br 0.43298(6) 0.67064(7) 0.64985(4)
Br3 Br 0.58235(6) 0.62621(8) 0.68045(4)
Br5 Br 0.05093(7) 0.67333(8) 0.62129(6)
Br6 Br 0.11161(6) 0.35849(8) 0.62752(6)
Br8 Br 0.42580(6) 0.39326(9) 0.57555(4)
Co1 Co 0.25287(6) 0.57651(8) 0.58626(3)
Co2 Co 0.75027(6) 0.43134(8) 0.67051(3)
N1 N 0.2469(4) 0.6890(5) 0.5991(2)
N2 N 0.7556(5) 0.1847(5) 0.8250(2)
O1 O 0.6326(3) 0.4294(4) 0.68208(18)
O2 O 0.1654(3) 0.5316(4) 0.59431(18)
O3 O 0.6852(3) 0.4870(4) 0.64023(18)
O4 O 0.3255(3) 0.5263(4) 0.61206(18)
O6 O 0.3761(3) 0.5970(5) 0.57356(19)
C2 C 0.1136(6) 0.8475(8) 0.5643(4)
H1 H 0.1242 0.7987 0.5727
C3 C 0.0477(5) 0.4370(6) 0.6255(3)
N4 N 0.7354(4) 0.5113(5) 0.7713(2)
O7 O 0.1698(4) 0.5473(5) 0.6514(2)
C4 C 0.0220(5) 0.5698(6) 0.6235(3)
C5 C 0.3769(5) 0.5539(6) 0.5978(3)
C7 C 0.2502(5) 0.7472(6) 0.5774(3)
H2 H 0.2590 0.7420 0.5540
C8 C 0.2320(5) 0.8904(6) 0.5764(3)
H3 H 0.2612 0.8934 0.5569
H4 H 0.2446 0.9304 0.5928
C10 C 0.0521(7) 0.8621(9) 0.5529(4)
H5 H 0.0205 0.8235 0.5537
C11 C 0.5382(5) 0.5611(6) 0.6490(3)
C12 C 0.4756(5) 0.5789(5) 0.6360(3)
C13 C 0.4729(5) 0.4611(6) 0.6051(3)
C14 C 0.6325(5) 0.4673(6) 0.6554(3)
N6 N 0.2391(4) 0.8149(5) 0.5930(2)
C15 C 0.6398(5) 0.4755(6) 0.8060(2)
N7 N 0.7361(5) 0.3094(5) 0.8297(2)
C16 C 0.5680(4) 0.4920(5) 0.6399(2)
C17 C 0.5268(6) 0.4443(9) 0.7928(3)
H6 H 0.4865 0.4570 0.7827
N8 N 0.7598(4) 0.4746(5) 0.7190(2)
C18 C 0.5940(6) 0.3556(8) 0.8238(3)
H7 H 0.5990 0.3077 0.8343
C19 C 0.0687(4) 0.5121(6) 0.6244(2)
C20 C 0.0355(6) 0.9348(9) 0.5401(3)
C21 C 0.4423(5) 0.5307(6) 0.6140(3)
C22 C 0.1443(5) 0.9786(6) 0.5516(2)
C24 C 0.1620(5) 0.9050(7) 0.5637(3)
C25 C 0.6954(5) 0.5323(6) 0.8015(3)
H10 H 0.6775 0.5838 0.7982
H11 H 0.7229 0.5328 0.8222
C26 C 0.1414(5) 0.5312(6) 0.6239(3)
C27 C 0.5344(5) 0.4437(6) 0.6180(3)
C28 C 0.8010(6) 0.5185(9) 0.7685(3)
H12 H 0.8304 0.5360 0.7854
C29 C 0.2271(6) 0.7983(7) 0.6264(3)
H13 H 0.2171 0.8337 0.6436
C30 C 0.7282(6) 0.2397(7) 0.8429(3)
H14 H 0.7052 0.2306 0.8630
C32 C 0.7105(6) 0.3835(7) 0.8415(3)
H16 H 0.7021 0.3805 0.8660
H17 H 0.7434 0.4231 0.8381
C34 C 0.0820(6) 0.9918(8) 0.5396(3)
C35 C 0.2322(6) 0.7223(7) 0.6303(3)
H21 H 0.2266 0.6958 0.6509
C36 C 0.6475(5) 0.4069(6) 0.8223(3)
C37 C 0.5785(6) 0.4929(8) 0.7911(3)
H22 H 0.5731 0.5396 0.7796
C38 C 0.7121(5) 0.4851(6) 0.7414(3)
H23 H 0.6681 0.4752 0.7367
C39 C 0.5355(7) 0.3763(10) 0.8098(4)
H24 H 0.5001 0.3430 0.8118
C40 C 0.8156(5) 0.4947(9) 0.7356(3)
H25 H 0.8573 0.4928 0.7263
C42 C 0.7825(8) 0.2224(8) 0.7972(4)
H26 H 0.8048 0.1983 0.7795
C43 C 0.7720(8) 0.2997(8) 0.7994(4)
H27 H 0.7856 0.3378 0.7842
Co5 Co 0.74973(6) 0.06866(8) 0.82949(3)
N9 N 0.7444(5) 0.3153(5) 0.6750(2)
N10 N 0.2443(4) 0.5591(5) 0.5348(2)
O9 O 0.8403(3) 0.4549(5) 0.65697(18)
Br4 Br 0.95296(6) 0.31562(8) 0.62378(5)
Br7 Br 0.89141(6) 0.63080(8) 0.62441(6)
O5 O 0.8309(4) 0.4474(5) 0.5998(2)
C1 C 0.9555(5) 0.5527(6) 0.6237(3)
C6 C 0.9812(5) 0.4195(6) 0.6252(3)
C9 C 0.9346(4) 0.4773(6) 0.6252(2)
H8 H 0.9931 0.9446 0.5319
C41 C 0.8611(5) 0.4576(6) 0.6266(3)
Br2_2 Br 0.06702(6) 0.17064(7) 0.35015(4)
Br5_2 Br 0.44907(7) 0.17333(8) 0.37871(6)
Br7_2 Br 0.60859(6) 0.13080(8) 0.37559(6)
N1_2 N 0.2531(4) 0.1890(5) 0.4009(2)
N3_2 N 0.2675(4) 0.5467(5) 0.4797(2)
O2_2 O 0.3346(3) 0.0316(4) 0.40569(18)
O4_2 O 0.1745(3) 0.0263(4) 0.38794(18)
O6_2 O 0.1239(3) 0.0970(5) 0.42644(19)
C1_2 C 0.5445(5) 0.0527(6) 0.3763(3)
C2_2 C 0.3864(6) 0.3475(8) 0.4357(4)
H1_2 H 0.3758 0.2987 0.4273
O7_2 O 0.3302(4) 0.0473(5) 0.3486(2)
C4_2 C 0.4780(5) 0.0698(6) 0.3765(3)
C5_2 C 0.1231(5) 0.0539(6) 0.4022(3)
C7_2 C 0.2498(5) 0.2472(6) 0.4226(3)
H2_2 H 0.2410 0.2420 0.4460
C8_2 C 0.2680(5) 0.3904(6) 0.4236(3)
H3_2 H 0.2388 0.3934 0.4431
H4_2 H 0.2554 0.4304 0.4072
C10_2 C 0.4479(7) 0.3621(9) 0.4471(4)
H5_2 H 0.4795 0.3235 0.4463
C12_2 C 0.0244(5) 0.0789(5) 0.3640(3)
N6_2 N 0.2609(4) 0.3149(5) 0.4070(2)
C19_2 C 0.4313(4) 0.0121(6) 0.3756(2)
C20_2 C 0.4645(6) 0.4348(9) 0.4599(3)
H8_2 H 0.5069 0.4446 0.4681
C21_2 C 0.0577(5) 0.0307(6) 0.3860(3)
C22_2 C 0.3557(5) 0.4786(6) 0.4484(2)
C23_2 C 0.2912(5) 0.5610(6) 0.5113(3)
H9_2 H 0.3350 0.5711 0.5164
C24_2 C 0.3380(5) 0.4050(7) 0.4363(3)
C26_2 C 0.3586(5) 0.0312(6) 0.3761(3)
C29_2 C 0.2729(6) 0.2983(7) 0.3736(3)
H13_2 H 0.2829 0.3337 0.3564
C31_2 C 0.1885(5) 0.5418(7) 0.5166(3)
H15_2 H 0.1473 0.5354 0.5260
C33_2 C 0.3067(5) 0.5447(6) 0.4484(3)
H18_2 H 0.3301 0.5931 0.4463
H19_2 H 0.2776 0.5398 0.4284
C34_2 C 0.4180(6) 0.4918(8) 0.4604(3)
H20_2 H 0.4291 0.5403 0.4690
C35_2 C 0.2678(6) 0.2223(7) 0.3697(3)
H21_2 H 0.2734 0.1958 0.3491
C44_2 C 0.2025(5) 0.5352(7) 0.4823(3)
H28_2 H 0.1729 0.5249 0.4644
Br4_2 Br 0.54704(6) 0.18438(8) 0.87622(5)
Br6_2 Br 0.38839(6) 0.14151(8) 0.87248(6)
Br8_2 Br 0.07420(6) 0.10674(9) 0.92445(4)
O5_2 O 0.6691(4) 0.0526(5) 0.9002(2)
C3_2 C 0.4523(5) 0.0630(6) 0.8745(3)
O8 O 0.6597(3) 0.0451(5) 0.84303(18)
C6_2 C 0.5188(5) 0.0805(6) 0.8748(3)
C9_2 C 0.5654(4) 0.0227(6) 0.8748(2)
C13_2 C 0.0271(5) 0.0389(6) 0.8949(3)
H6_2 H 0.0135 0.0430 0.7173
C41_2 C 0.6389(5) 0.0424(6) 0.8734(3)
Br1_2 Br 0.92684(6) 0.15310(7) 0.89291(3)
O1_2 O 0.8674(3) 0.0706(4) 0.81792(18)
O3_2 O 0.8148(3) 0.0130(4) 0.85977(18)
C14_2 C 0.8675(5) 0.0327(6) 0.8446(3)
C15_2 C 0.8602(5) 0.0245(6) 0.6940(2)
N7_2 N 0.7639(5) 0.1906(5) 0.6703(2)
C16_2 C 0.9320(4) 0.0080(5) 0.8601(2)
C17_2 C 0.9732(6) 0.0557(9) 0.7072(3)
N8_2 N 0.7402(4) 0.0254(5) 0.7810(2)
C18_2 C 0.9060(6) 0.1444(8) 0.6762(3)
H7_2 H 0.9010 0.1923 0.6657
C27_2 C 0.9656(5) 0.0563(6) 0.8820(3)
C30_2 C 0.7718(6) 0.2603(7) 0.6571(3)
H14_2 H 0.7948 0.2694 0.6370
C32_2 C 0.7895(6) 0.1165(7) 0.6585(3)
H16_2 H 0.7979 0.1195 0.6340
H17_2 H 0.7566 0.0769 0.6619
C36_2 C 0.8525(5) 0.0931(6) 0.6777(3)
C37_2 C 0.9215(6) 0.0071(8) 0.7089(3)
C38_2 C 0.7879(5) 0.0149(6) 0.7586(3)
H23_2 H 0.8319 0.0248 0.7633
C39_2 C 0.9645(7) 0.1237(10) 0.6902(4)
H24_2 H 0.9999 0.1570 0.6882
C40_2 C 0.6844(5) 0.0053(9) 0.7644(3)
H25_2 H 0.6427 0.0072 0.7737
C42_2 C 0.7175(8) 0.2776(8) 0.7028(4)
H26_2 H 0.6952 0.3017 0.7205
C43_2 C 0.7280(8) 0.2003(8) 0.7006(4)
H27_2 H 0.7144 0.1622 0.7158
Br4_3 Br 0.04704(6) 0.31562(8) 0.87622(5)
Br7_3 Br 0.10859(6) 0.63080(8) 0.87559(6)
O5_3 O 0.1691(4) 0.4474(5) 0.9002(2)
C1_3 C 0.0445(5) 0.5527(6) 0.8763(3)
O8_2 O 0.1597(3) 0.4549(5) 0.84303(18)
C6_3 C 0.0188(5) 0.4195(6) 0.8748(3)
C9_3 C 0.0654(4) 0.4773(6) 0.8748(2)
H8_3 H 0.0069 0.9446 0.9681
C41_3 C 0.1389(5) 0.4576(6) 0.8734(3)
Co4 Co 0.24973(6) 0.43134(8) 0.82949(3)
Br1_3 Br 0.42684(6) 0.34690(7) 0.89291(3)
Br2_3 Br 0.56702(6) 0.67064(7) 0.85015(4)
Br3_2 Br 0.41765(6) 0.62621(8) 0.81955(4)
Br5_3 Br 0.94907(7) 0.67333(8) 0.87871(6)
Br6_3 Br 0.88839(6) 0.35849(8) 0.87248(6)
Br8_3 Br 0.57420(6) 0.39326(9) 0.92445(4)
Co1_2 Co 0.74713(6) 0.57651(8) 0.91374(3)
N1_3 N 0.7531(4) 0.6890(5) 0.9009(2)
N2_2 N 0.2444(5) 0.1847(5) 0.6750(2)
O1_3 O 0.3674(3) 0.4294(4) 0.81792(18)
O2_3 O 0.8346(3) 0.5316(4) 0.90569(18)
O3_3 O 0.3148(3) 0.4870(4) 0.85977(18)
O4_3 O 0.6745(3) 0.5263(4) 0.88794(18)
O6_3 O 0.6239(3) 0.5970(5) 0.92644(19)
C2_3 C 0.8864(6) 0.8475(8) 0.9357(4)
H1_3 H 0.8758 0.7987 0.9273
C3_3 C 0.9523(5) 0.4370(6) 0.8745(3)
N4_2 N 0.2646(4) 0.5113(5) 0.7287(2)
O7_3 O 0.8302(4) 0.5473(5) 0.8486(2)
C4_3 C 0.9780(5) 0.5698(6) 0.8765(3)
C5_3 C 0.6231(5) 0.5539(6) 0.9022(3)
C7_3 C 0.7498(5) 0.7472(6) 0.9226(3)
H2_3 H 0.7410 0.7420 0.9460
C8_3 C 0.7680(5) 0.8904(6) 0.9236(3)
H3_3 H 0.7388 0.8934 0.9431
H4_3 H 0.7554 0.9304 0.9072
C10_3 C 0.9479(7) 0.8621(9) 0.9471(4)
H5_3 H 0.9795 0.8235 0.9463
C11_2 C 0.4618(5) 0.5611(6) 0.8510(3)
C12_3 C 0.5244(5) 0.5789(5) 0.8640(3)
C13_3 C 0.5271(5) 0.4611(6) 0.8949(3)
C14_3 C 0.3675(5) 0.4673(6) 0.8446(3)
N6_3 N 0.7609(4) 0.8149(5) 0.9070(2)
C15_3 C 0.3602(5) 0.4755(6) 0.6940(2)
N7_3 N 0.2639(5) 0.3094(5) 0.6703(2)
C16_3 C 0.4320(4) 0.4920(5) 0.8601(2)
C17_3 C 0.4732(6) 0.4443(9) 0.7072(3)
H6_3 H 0.5135 0.4570 0.7173
N8_3 N 0.2402(4) 0.4746(5) 0.7810(2)
C18_3 C 0.4060(6) 0.3556(8) 0.6762(3)
H7_3 H 0.4010 0.3077 0.6657
C19_3 C 0.9313(4) 0.5121(6) 0.8756(2)
C20_3 C 0.9645(6) 0.9348(9) 0.9599(3)
C21_3 C 0.5577(5) 0.5307(6) 0.8860(3)
C22_3 C 0.8557(5) 0.9786(6) 0.9484(2)
C24_3 C 0.8380(5) 0.9050(7) 0.9363(3)
C25_2 C 0.3046(5) 0.5323(6) 0.6985(3)
H10_2 H 0.3225 0.5838 0.7018
H11_2 H 0.2771 0.5328 0.6778
C26_3 C 0.8586(5) 0.5312(6) 0.8761(3)
C27_3 C 0.4656(5) 0.4437(6) 0.8820(3)
C28_2 C 0.1990(6) 0.5185(9) 0.7315(3)
H12_2 H 0.1696 0.5360 0.7146
C29_3 C 0.7729(6) 0.7983(7) 0.8736(3)
H13_3 H 0.7829 0.8337 0.8564
C30_3 C 0.2718(6) 0.2397(7) 0.6571(3)
H14_3 H 0.2948 0.2306 0.6370
C32_3 C 0.2895(6) 0.3835(7) 0.6585(3)
H16_3 H 0.2979 0.3805 0.6340
H17_3 H 0.2566 0.4231 0.6619
C34_3 C 0.9180(6) 0.9918(8) 0.9604(3)
C35_3 C 0.7678(6) 0.7223(7) 0.8697(3)
H21_3 H 0.7734 0.6958 0.8491
C36_3 C 0.3525(5) 0.4069(6) 0.6777(3)
C37_3 C 0.4215(6) 0.4929(8) 0.7089(3)
H22_2 H 0.4269 0.5396 0.7204
C38_3 C 0.2879(5) 0.4851(6) 0.7586(3)
H23_3 H 0.3319 0.4752 0.7633
C39_3 C 0.4645(7) 0.3763(10) 0.6902(4)
H24_3 H 0.4999 0.3430 0.6882
C40_3 C 0.1844(5) 0.4947(9) 0.7644(3)
H25_3 H 0.1427 0.4928 0.7737
C42_3 C 0.2175(8) 0.2224(8) 0.7028(4)
H26_3 H 0.1952 0.1983 0.7205
C43_3 C 0.2280(8) 0.2997(8) 0.7006(4)
H27_3 H 0.2144 0.3378 0.7158
Co5_2 Co 0.25027(6) 0.06866(8) 0.67051(3)
N9_2 N 0.2556(5) 0.3153(5) 0.8250(2)
N10_2 N 0.7557(4) 0.5591(5) 0.9652(2)
C23_3 C 0.7088(5) 0.5610(6) 0.9887(3)
H9_3 H 0.6650 0.5711 0.9836
C31_3 C 0.8115(5) 0.5418(7) 0.9834(3)
H15_3 H 0.8527 0.5354 0.9740
Br1_4 Br 0.07316(6) 0.15310(7) 0.60709(3)
O1_4 O 0.1326(3) 0.0706(4) 0.68208(18)
O3_4 O 0.1852(3) 0.0130(4) 0.64023(18)
C14_4 C 0.1325(5) 0.0327(6) 0.6554(3)
C15_4 C 0.1398(5) 0.0245(6) 0.8060(2)
N7_4 N 0.2361(5) 0.1906(5) 0.8297(2)
C16_4 C 0.0680(4) 0.0080(5) 0.6399(2)
C17_4 C 0.0268(6) 0.0557(9) 0.7928(3)
N8_4 N 0.2598(4) 0.0254(5) 0.7190(2)
C18_4 C 0.0940(6) 0.1444(8) 0.8238(3)
H7_4 H 0.0990 0.1923 0.8343
C27_4 C 0.0344(5) 0.0563(6) 0.6180(3)
C30_4 C 0.2282(6) 0.2603(7) 0.8429(3)
H14_4 H 0.2052 0.2694 0.8630
C32_4 C 0.2105(6) 0.1165(7) 0.8415(3)
H16_4 H 0.2021 0.1195 0.8660
H17_4 H 0.2434 0.0769 0.8381
C36_4 C 0.1475(5) 0.0931(6) 0.8223(3)
C37_4 C 0.0785(6) 0.0071(8) 0.7911(3)
C38_4 C 0.2121(5) 0.0149(6) 0.7414(3)
H23_4 H 0.1681 0.0248 0.7367
C39_4 C 0.0355(7) 0.1237(10) 0.8098(4)
H24_4 H 0.0001 0.1570 0.8118
C40_4 C 0.3156(5) 0.0053(9) 0.7356(3)
H25_4 H 0.3573 0.0072 0.7263
C42_4 C 0.2825(8) 0.2776(8) 0.7972(4)
H26_4 H 0.3048 0.3017 0.7795
C43_4 C 0.2720(8) 0.2003(8) 0.7994(4)
H27_4 H 0.2856 0.1622 0.7842
O9_2 O 0.3403(3) 0.0451(5) 0.65697(18)
Br4_4 Br 0.45296(6) 0.18438(8) 0.62378(5)
Br6_4 Br 0.61161(6) 0.14151(8) 0.62752(6)
Br8_4 Br 0.92580(6) 0.10674(9) 0.57555(4)
O5_4 O 0.3309(4) 0.0526(5) 0.5998(2)
C3_4 C 0.5477(5) 0.0630(6) 0.6255(3)
C6_4 C 0.4812(5) 0.0805(6) 0.6252(3)
C9_4 C 0.4346(4) 0.0227(6) 0.6252(2)
C13_4 C 0.9729(5) 0.0389(6) 0.6051(3)
H6_4 H 0.9865 0.0430 0.7827
C41_4 C 0.3611(5) 0.0424(6) 0.6266(3)
N5_2 N 0.7443(4) 0.0591(5) 0.0348(2)
C23_4 C 0.7912(5) 0.0610(6) 0.0113(3)
H9_4 H 0.8350 0.0711 0.0164
C31_4 C 0.6885(5) 0.0418(7) 0.0166(3)
H15_4 H 0.6473 0.0354 0.0260
Co3_2 Co 0.75287(6) 0.07651(8) 0.08626(3)
Br2_4 Br 0.93298(6) 0.17064(7) 0.14985(4)
Br5_4 Br 0.55093(7) 0.17333(8) 0.12129(6)
Br7_4 Br 0.39141(6) 0.13080(8) 0.12441(6)
N1_4 N 0.7469(4) 0.1890(5) 0.0991(2)
N3_3 N 0.7325(4) 0.5467(5) 0.0203(2)
O2_4 O 0.6654(3) 0.0316(4) 0.09431(18)
O4_4 O 0.8255(3) 0.0263(4) 0.11206(18)
O6_4 O 0.8761(3) 0.0970(5) 0.07356(19)
C1_4 C 0.4555(5) 0.0527(6) 0.1237(3)
C2_4 C 0.6136(6) 0.3475(8) 0.0643(4)
H1_4 H 0.6242 0.2987 0.0727
O7_4 O 0.6698(4) 0.0473(5) 0.1514(2)
C4_4 C 0.5220(5) 0.0698(6) 0.1235(3)
C5_4 C 0.8769(5) 0.0539(6) 0.0978(3)
C7_4 C 0.7502(5) 0.2472(6) 0.0774(3)
H2_4 H 0.7590 0.2420 0.0540
C8_4 C 0.7320(5) 0.3904(6) 0.0764(3)
H3_4 H 0.7612 0.3934 0.0569
H4_4 H 0.7446 0.4304 0.0928
C10_4 C 0.5521(7) 0.3621(9) 0.0529(4)
H5_4 H 0.5205 0.3235 0.0537
C12_4 C 0.9756(5) 0.0789(5) 0.1360(3)
N6_4 N 0.7391(4) 0.3149(5) 0.0930(2)
C19_4 C 0.5687(4) 0.0121(6) 0.1244(2)
C20_4 C 0.5355(6) 0.4348(9) 0.0401(3)
H8_4 H 0.4931 0.4446 0.0319
C21_4 C 0.9423(5) 0.0307(6) 0.1140(3)
C22_4 C 0.6443(5) 0.4786(6) 0.0516(2)
C24_4 C 0.6620(5) 0.4050(7) 0.0637(3)
C26_4 C 0.6414(5) 0.0312(6) 0.1239(3)
C29_4 C 0.7271(6) 0.2983(7) 0.1264(3)
H13_4 H 0.7171 0.3337 0.1436
C33_3 C 0.6933(5) 0.5447(6) 0.0516(3)
H18_3 H 0.6699 0.5931 0.0537
H19_3 H 0.7224 0.5398 0.0716
C34_4 C 0.5820(6) 0.4918(8) 0.0396(3)
H20_3 H 0.5709 0.5403 0.0310
C35_4 C 0.7322(6) 0.2223(7) 0.1303(3)
H21_4 H 0.7266 0.1958 0.1509
C44_3 C 0.7975(5) 0.5352(7) 0.0177(3)
H28_3 H 0.8271 0.5249 0.0356
N3_4 N 0.7675(4) 0.0467(5) 0.9797(2)
C33_4 C 0.8067(5) 0.0447(6) 0.9484(3)
H18_4 H 0.8301 0.0931 0.9463
H19_4 H 0.7776 0.0398 0.9284
H20_4 H 0.9291 0.0403 0.9690
C44_4 C 0.7025(5) 0.0352(7) 0.9823(3)
H28_4 H 0.6729 0.0249 0.9644
Br3_3 Br 0.08235(6) 0.12621(8) 0.18045(4)
N4_3 N 0.2354(4) 0.0113(5) 0.2713(2)
C11_3 C 0.0382(5) 0.0611(6) 0.1490(3)
C25_3 C 0.1954(5) 0.0323(6) 0.3015(3)
H10_3 H 0.1775 0.0838 0.2982
H11_3 H 0.2229 0.0328 0.3222
C28_3 C 0.3010(6) 0.0185(9) 0.2685(3)
H12_3 H 0.3304 0.0360 0.2854
H22_3 H 0.0731 0.0396 0.2796
Br1_5 Br 0.07316(6) 0.84690(7) 0.10709(3)
Co2_2 Co 0.25027(6) 0.93134(8) 0.17051(3)
N2_3 N 0.2556(5) 0.6847(5) 0.3250(2)
O1_5 O 0.1326(3) 0.9294(4) 0.18208(18)
O3_5 O 0.1852(3) 0.9870(4) 0.14023(18)
C14_5 C 0.1325(5) 0.9673(6) 0.1554(3)
C15_5 C 0.1398(5) 0.9755(6) 0.3060(2)
N7_5 N 0.2361(5) 0.8094(5) 0.3297(2)
C16_5 C 0.0680(4) 0.9920(5) 0.1399(2)
C17_5 C 0.0268(6) 0.9443(9) 0.2928(3)
N8_5 N 0.2598(4) 0.9746(5) 0.2190(2)
C18_5 C 0.0940(6) 0.8556(8) 0.3238(3)
H7_5 H 0.0990 0.8077 0.3343
C27_5 C 0.0344(5) 0.9437(6) 0.1180(3)
C30_5 C 0.2282(6) 0.7397(7) 0.3429(3)
H14_5 H 0.2052 0.7306 0.3630
C32_5 C 0.2105(6) 0.8835(7) 0.3415(3)
H16_5 H 0.2021 0.8805 0.3660
H17_5 H 0.2434 0.9231 0.3381
C36_5 C 0.1475(5) 0.9069(6) 0.3223(3)
C37_5 C 0.0785(6) 0.9929(8) 0.2911(3)
C38_5 C 0.2121(5) 0.9851(6) 0.2414(3)
H23_5 H 0.1681 0.9752 0.2367
C39_5 C 0.0355(7) 0.8763(10) 0.3098(4)
H24_5 H 0.0001 0.8430 0.3118
C40_5 C 0.3156(5) 0.9947(9) 0.2356(3)
H25_5 H 0.3573 0.9928 0.2263
C42_5 C 0.2825(8) 0.7224(8) 0.2972(4)
H26_5 H 0.3048 0.6983 0.2795
C43_5 C 0.2720(8) 0.7997(8) 0.2994(4)
H27_5 H 0.2856 0.8378 0.2842
Co5_3 Co 0.24973(6) 0.56866(8) 0.32949(3)
N9_3 N 0.2444(5) 0.8153(5) 0.1750(2)
O9_3 O 0.3403(3) 0.9549(5) 0.15697(18)
Br4_5 Br 0.45296(6) 0.81562(8) 0.12378(5)
Br6_5 Br 0.61161(6) 0.85849(8) 0.12752(6)
Br8_5 Br 0.92580(6) 0.89326(9) 0.07555(4)
O5_5 O 0.3309(4) 0.9474(5) 0.0998(2)
C3_5 C 0.5477(5) 0.9370(6) 0.1255(3)
C6_5 C 0.4812(5) 0.9195(6) 0.1252(3)
C9_5 C 0.4346(4) 0.9773(6) 0.1252(2)
C13_5 C 0.9729(5) 0.9611(6) 0.1051(3)
H6_5 H 0.9865 0.9570 0.2827
C41_5 C 0.3611(5) 0.9576(6) 0.1266(3)
Br4_6 Br 0.04704(6) 0.68438(8) 0.37622(5)
Br7_5 Br 0.10859(6) 0.36920(8) 0.37559(6)
O5_6 O 0.1691(4) 0.5526(5) 0.4002(2)
C1_5 C 0.0445(5) 0.4473(6) 0.3763(3)
O8_3 O 0.1597(3) 0.5451(5) 0.34303(18)
C6_6 C 0.0188(5) 0.5805(6) 0.3748(3)
C9_6 C 0.0654(4) 0.5227(6) 0.3748(2)
H8_5 H 0.0069 0.0554 0.4681
C41_6 C 0.1389(5) 0.5424(6) 0.3734(3)
Br1_6 Br 0.42684(6) 0.65310(7) 0.39291(3)
Br2_5 Br 0.56702(6) 0.32936(7) 0.35015(4)
Br3_4 Br 0.41765(6) 0.37379(8) 0.31955(4)
Br5_5 Br 0.94907(7) 0.32667(8) 0.37871(6)
Br6_6 Br 0.88839(6) 0.64151(8) 0.37248(6)
Br8_6 Br 0.57420(6) 0.60674(9) 0.42445(4)
Co1_3 Co 0.74713(6) 0.42349(8) 0.41374(3)
N1_5 N 0.7531(4) 0.3110(5) 0.4009(2)
O1_6 O 0.3674(3) 0.5706(4) 0.31792(18)
O2_5 O 0.8346(3) 0.4684(4) 0.40569(18)
O3_6 O 0.3148(3) 0.5130(4) 0.35977(18)
O4_5 O 0.6745(3) 0.4737(4) 0.38794(18)
O6_5 O 0.6239(3) 0.4030(5) 0.42644(19)
C2_5 C 0.8864(6) 0.1525(8) 0.4357(4)
H1_5 H 0.8758 0.2013 0.4273
C3_6 C 0.9523(5) 0.5630(6) 0.3745(3)
N4_4 N 0.2646(4) 0.4887(5) 0.2287(2)
O7_5 O 0.8302(4) 0.4527(5) 0.3486(2)
C4_5 C 0.9780(5) 0.4302(6) 0.3765(3)
C5_5 C 0.6231(5) 0.4461(6) 0.4022(3)
C7_5 C 0.7498(5) 0.2528(6) 0.4226(3)
H2_5 H 0.7410 0.2580 0.4460
C8_5 C 0.7680(5) 0.1096(6) 0.4236(3)
H3_5 H 0.7388 0.1066 0.4431
H4_5 H 0.7554 0.0696 0.4072
C10_5 C 0.9479(7) 0.1379(9) 0.4471(4)
H5_5 H 0.9795 0.1765 0.4463
C11_4 C 0.4618(5) 0.4389(6) 0.3510(3)
C12_5 C 0.5244(5) 0.4211(5) 0.3640(3)
C13_6 C 0.5271(5) 0.5389(6) 0.3949(3)
C14_6 C 0.3675(5) 0.5327(6) 0.3446(3)
N6_5 N 0.7609(4) 0.1851(5) 0.4070(2)
C15_6 C 0.3602(5) 0.5245(6) 0.1940(2)
N7_6 N 0.2639(5) 0.6906(5) 0.1703(2)
C16_6 C 0.4320(4) 0.5080(5) 0.3601(2)
C17_6 C 0.4732(6) 0.5557(9) 0.2072(3)
H6_6 H 0.5135 0.5430 0.2173
N8_6 N 0.2402(4) 0.5254(5) 0.2810(2)
C18_6 C 0.4060(6) 0.6444(8) 0.1762(3)
H7_6 H 0.4010 0.6923 0.1657
C19_5 C 0.9313(4) 0.4879(6) 0.3756(2)
C20_5 C 0.9645(6) 0.0652(9) 0.4599(3)
C21_5 C 0.5577(5) 0.4693(6) 0.3860(3)
C22_5 C 0.8557(5) 0.0214(6) 0.4484(2)
C24_5 C 0.8380(5) 0.0950(7) 0.4363(3)
C25_4 C 0.3046(5) 0.4677(6) 0.1985(3)
H10_4 H 0.3225 0.4162 0.2018
H11_4 H 0.2771 0.4672 0.1778
C26_5 C 0.8586(5) 0.4688(6) 0.3761(3)
C27_6 C 0.4656(5) 0.5563(6) 0.3820(3)
C28_4 C 0.1990(6) 0.4815(9) 0.2315(3)
H12_4 H 0.1696 0.4640 0.2146
C29_5 C 0.7729(6) 0.2017(7) 0.3736(3)
H13_5 H 0.7829 0.1663 0.3564
C30_6 C 0.2718(6) 0.7603(7) 0.1571(3)
H14_6 H 0.2948 0.7694 0.1370
C32_6 C 0.2895(6) 0.6165(7) 0.1585(3)
H16_6 H 0.2979 0.6195 0.1340
H17_6 H 0.2566 0.5769 0.1619
C34_5 C 0.9180(6) 0.0082(8) 0.4604(3)
C35_5 C 0.7678(6) 0.2777(7) 0.3697(3)
H21_5 H 0.7734 0.3042 0.3491
C36_6 C 0.3525(5) 0.5931(6) 0.1777(3)
C37_6 C 0.4215(6) 0.5071(8) 0.2089(3)
H22_4 H 0.4269 0.4604 0.2204
C38_6 C 0.2879(5) 0.5149(6) 0.2586(3)
H23_6 H 0.3319 0.5248 0.2633
C39_6 C 0.4645(7) 0.6237(10) 0.1902(4)
H24_6 H 0.4999 0.6570 0.1882
C40_6 C 0.1844(5) 0.5053(9) 0.2644(3)
H25_6 H 0.1427 0.5072 0.2737
C42_6 C 0.2175(8) 0.7776(8) 0.2028(4)
H26_6 H 0.1952 0.8017 0.2205
C43_6 C 0.2280(8) 0.7003(8) 0.2006(4)
H27_6 H 0.2144 0.6622 0.2158
N10_3 N 0.7557(4) 0.4409(5) 0.4652(2)
N3_5 N 0.7675(4) 0.9533(5) 0.4797(2)
N5_3 N 0.7443(4) 0.9409(5) 0.5348(2)
C23_5 C 0.7912(5) 0.9390(6) 0.5113(3)
H9_5 H 0.8350 0.9289 0.5164
C31_5 C 0.6885(5) 0.9582(7) 0.5166(3)
H15_5 H 0.6473 0.9646 0.5260
C33_5 C 0.8067(5) 0.9553(6) 0.4484(3)
H18_5 H 0.8301 0.9069 0.4463
H19_5 H 0.7776 0.9602 0.4284
H20_5 H 0.9291 0.9597 0.4690
C44_5 C 0.7025(5) 0.9648(7) 0.4823(3)
H28_5 H 0.6729 0.9751 0.4644
Co3_3 Co 0.75287(6) 0.92349(8) 0.58626(3)
Br2_6 Br 0.93298(6) 0.82936(7) 0.64985(4)
Br5_6 Br 0.55093(7) 0.82667(8) 0.62129(6)
Br7_6 Br 0.39141(6) 0.86920(8) 0.62441(6)
N1_6 N 0.7469(4) 0.8110(5) 0.5991(2)
N3_6 N 0.7325(4) 0.4533(5) 0.5203(2)
O2_6 O 0.6654(3) 0.9684(4) 0.59431(18)
O4_6 O 0.8255(3) 0.9737(4) 0.61206(18)
O6_6 O 0.8761(3) 0.9030(5) 0.57356(19)
C1_6 C 0.4555(5) 0.9473(6) 0.6237(3)
C2_6 C 0.6136(6) 0.6525(8) 0.5643(4)
H1_6 H 0.6242 0.7013 0.5727
O7_6 O 0.6698(4) 0.9527(5) 0.6514(2)
C4_6 C 0.5220(5) 0.9302(6) 0.6235(3)
C5_6 C 0.8769(5) 0.9461(6) 0.5978(3)
C7_6 C 0.7502(5) 0.7528(6) 0.5774(3)
H2_6 H 0.7590 0.7580 0.5540
C8_6 C 0.7320(5) 0.6096(6) 0.5764(3)
H3_6 H 0.7612 0.6066 0.5569
H4_6 H 0.7446 0.5696 0.5928
C10_6 C 0.5521(7) 0.6379(9) 0.5529(4)
H5_6 H 0.5205 0.6765 0.5537
C12_6 C 0.9756(5) 0.9211(5) 0.6360(3)
N6_6 N 0.7391(4) 0.6851(5) 0.5930(2)
C19_6 C 0.5687(4) 0.9879(6) 0.6244(2)
C20_6 C 0.5355(6) 0.5652(9) 0.5401(3)
H8_6 H 0.4931 0.5554 0.5319
C21_6 C 0.9423(5) 0.9693(6) 0.6140(3)
C22_6 C 0.6443(5) 0.5214(6) 0.5516(2)
C23_6 C 0.7088(5) 0.4390(6) 0.4887(3)
H9_6 H 0.6650 0.4289 0.4836
C24_6 C 0.6620(5) 0.5950(7) 0.5637(3)
C26_6 C 0.6414(5) 0.9688(6) 0.6239(3)
C29_6 C 0.7271(6) 0.7017(7) 0.6264(3)
H13_6 H 0.7171 0.6663 0.6436
C31_6 C 0.8115(5) 0.4582(7) 0.4834(3)
H15_6 H 0.8527 0.4646 0.4740
C33_6 C 0.6933(5) 0.4553(6) 0.5516(3)
H18_6 H 0.6699 0.4069 0.5537
H19_6 H 0.7224 0.4602 0.5716
C34_6 C 0.5820(6) 0.5082(8) 0.5396(3)
H20_6 H 0.5709 0.4597 0.5310
C35_6 C 0.7322(6) 0.7777(7) 0.6303(3)
H21_6 H 0.7266 0.8042 0.6509
C44_6 C 0.7975(5) 0.4648(7) 0.5177(3)
H28_6 H 0.8271 0.4751 0.5356
Br4_7 Br 0.54704(6) 0.81562(8) 0.37622(5)
Br6_7 Br 0.38839(6) 0.85849(8) 0.37248(6)
Br8_7 Br 0.07420(6) 0.89326(9) 0.42445(4)
O5_7 O 0.6691(4) 0.9474(5) 0.4002(2)
C3_7 C 0.4523(5) 0.9370(6) 0.3745(3)
O8_4 O 0.6597(3) 0.9549(5) 0.34303(18)
C6_7 C 0.5188(5) 0.9195(6) 0.3748(3)
C9_7 C 0.5654(4) 0.9773(6) 0.3748(2)
C13_7 C 0.0271(5) 0.9611(6) 0.3949(3)
H6_7 H 0.0135 0.9570 0.2173
C41_7 C 0.6389(5) 0.9576(6) 0.3734(3)
Co4_2 Co 0.74973(6) 0.93134(8) 0.32949(3)
Br1_7 Br 0.92684(6) 0.84690(7) 0.39291(3)
N2_4 N 0.7444(5) 0.6847(5) 0.1750(2)
O1_7 O 0.8674(3) 0.9294(4) 0.31792(18)
O3_7 O 0.8148(3) 0.9870(4) 0.35977(18)
C14_7 C 0.8675(5) 0.9673(6) 0.3446(3)
C15_7 C 0.8602(5) 0.9755(6) 0.1940(2)
N7_7 N 0.7639(5) 0.8094(5) 0.1703(2)
C16_7 C 0.9320(4) 0.9920(5) 0.3601(2)
C17_7 C 0.9732(6) 0.9443(9) 0.2072(3)
N8_7 N 0.7402(4) 0.9746(5) 0.2810(2)
C18_7 C 0.9060(6) 0.8556(8) 0.1762(3)
H7_7 H 0.9010 0.8077 0.1657
C27_7 C 0.9656(5) 0.9437(6) 0.3820(3)
C30_7 C 0.7718(6) 0.7397(7) 0.1571(3)
H14_7 H 0.7948 0.7306 0.1370
C32_7 C 0.7895(6) 0.8835(7) 0.1585(3)
H16_7 H 0.7979 0.8805 0.1340
H17_7 H 0.7566 0.9231 0.1619
C36_7 C 0.8525(5) 0.9069(6) 0.1777(3)
C37_7 C 0.9215(6) 0.9929(8) 0.2089(3)
C38_7 C 0.7879(5) 0.9851(6) 0.2586(3)
H23_7 H 0.8319 0.9752 0.2633
C39_7 C 0.9645(7) 0.8763(10) 0.1902(4)
H24_7 H 0.9999 0.8430 0.1882
C40_7 C 0.6844(5) 0.9947(9) 0.2644(3)
H25_7 H 0.6427 0.9928 0.2737
C42_7 C 0.7175(8) 0.7224(8) 0.2028(4)
H26_7 H 0.6952 0.6983 0.2205
C43_7 C 0.7280(8) 0.7997(8) 0.2006(4)
H27_7 H 0.7144 0.8378 0.2158
Co5_4 Co 0.75027(6) 0.56866(8) 0.17051(3)
N9_4 N 0.7556(5) 0.8153(5) 0.3250(2)
Br1_8 Br 0.57316(6) 0.65310(7) 0.10709(3)
Br2_7 Br 0.43298(6) 0.32936(7) 0.14985(4)
Br3_5 Br 0.58235(6) 0.37379(8) 0.18045(4)
Br5_7 Br 0.05093(7) 0.32667(8) 0.12129(6)
Br6_8 Br 0.11161(6) 0.64151(8) 0.12752(6)
Br8_8 Br 0.42580(6) 0.60674(9) 0.07555(4)
Co1_4 Co 0.25287(6) 0.42349(8) 0.08626(3)
N1_7 N 0.2469(4) 0.3110(5) 0.0991(2)
O1_8 O 0.6326(3) 0.5706(4) 0.18208(18)
O2_7 O 0.1654(3) 0.4684(4) 0.09431(18)
O3_8 O 0.6852(3) 0.5130(4) 0.14023(18)
O4_7 O 0.3255(3) 0.4737(4) 0.11206(18)
O6_7 O 0.3761(3) 0.4030(5) 0.07356(19)
C2_7 C 0.1136(6) 0.1525(8) 0.0643(4)
H1_7 H 0.1242 0.2013 0.0727
C3_8 C 0.0477(5) 0.5630(6) 0.1255(3)
N4_5 N 0.7354(4) 0.4887(5) 0.2713(2)
O7_7 O 0.1698(4) 0.4527(5) 0.1514(2)
C4_7 C 0.0220(5) 0.4302(6) 0.1235(3)
C5_7 C 0.3769(5) 0.4461(6) 0.0978(3)
C7_7 C 0.2502(5) 0.2528(6) 0.0774(3)
H2_7 H 0.2590 0.2580 0.0540
C8_7 C 0.2320(5) 0.1096(6) 0.0764(3)
H3_7 H 0.2612 0.1066 0.0569
H4_7 H 0.2446 0.0696 0.0928
C10_7 C 0.0521(7) 0.1379(9) 0.0529(4)
H5_7 H 0.0205 0.1765 0.0537
C11_5 C 0.5382(5) 0.4389(6) 0.1490(3)
C12_7 C 0.4756(5) 0.4211(5) 0.1360(3)
C13_8 C 0.4729(5) 0.5389(6) 0.1051(3)
C14_8 C 0.6325(5) 0.5327(6) 0.1554(3)
N6_7 N 0.2391(4) 0.1851(5) 0.0930(2)
C15_8 C 0.6398(5) 0.5245(6) 0.3060(2)
N7_8 N 0.7361(5) 0.6906(5) 0.3297(2)
C16_8 C 0.5680(4) 0.5080(5) 0.1399(2)
C17_8 C 0.5268(6) 0.5557(9) 0.2928(3)
H6_8 H 0.4865 0.5430 0.2827
N8_8 N 0.7598(4) 0.5254(5) 0.2190(2)
C18_8 C 0.5940(6) 0.6444(8) 0.3238(3)
H7_8 H 0.5990 0.6923 0.3343
C19_7 C 0.0687(4) 0.4879(6) 0.1244(2)
C20_7 C 0.0355(6) 0.0652(9) 0.0401(3)
C21_7 C 0.4423(5) 0.4693(6) 0.1140(3)
C22_7 C 0.1443(5) 0.0214(6) 0.0516(2)
C24_7 C 0.1620(5) 0.0950(7) 0.0637(3)
C25_5 C 0.6954(5) 0.4677(6) 0.3015(3)
H10_5 H 0.6775 0.4162 0.2982
H11_5 H 0.7229 0.4672 0.3222
C26_7 C 0.1414(5) 0.4688(6) 0.1239(3)
C27_8 C 0.5344(5) 0.5563(6) 0.1180(3)
C28_5 C 0.8010(6) 0.4815(9) 0.2685(3)
H12_5 H 0.8304 0.4640 0.2854
C29_7 C 0.2271(6) 0.2017(7) 0.1264(3)
H13_7 H 0.2171 0.1663 0.1436
C30_8 C 0.7282(6) 0.7603(7) 0.3429(3)
H14_8 H 0.7052 0.7694 0.3630
C32_8 C 0.7105(6) 0.6165(7) 0.3415(3)
H16_8 H 0.7021 0.6195 0.3660
H17_8 H 0.7434 0.5769 0.3381
C34_7 C 0.0820(6) 0.0082(8) 0.0396(3)
C35_7 C 0.2322(6) 0.2777(7) 0.1303(3)
H21_7 H 0.2266 0.3042 0.1509
C36_8 C 0.6475(5) 0.5931(6) 0.3223(3)
C37_8 C 0.5785(6) 0.5071(8) 0.2911(3)
H22_5 H 0.5731 0.4604 0.2796
C38_8 C 0.7121(5) 0.5149(6) 0.2414(3)
H23_8 H 0.6681 0.5248 0.2367
C39_8 C 0.5355(7) 0.6237(10) 0.3098(4)
H24_8 H 0.5001 0.6570 0.3118
C40_8 C 0.8156(5) 0.5053(9) 0.2356(3)
H25_8 H 0.8573 0.5072 0.2263
C42_8 C 0.7825(8) 0.7776(8) 0.2972(4)
H26_8 H 0.8048 0.8017 0.2795
C43_8 C 0.7720(8) 0.7003(8) 0.2994(4)
H27_8 H 0.7856 0.6622 0.2842
N10_4 N 0.2443(4) 0.4409(5) 0.0348(2)
O9_4 O 0.8403(3) 0.5451(5) 0.15697(18)
Br4_8 Br 0.95296(6) 0.68438(8) 0.12378(5)
Br7_7 Br 0.89141(6) 0.36920(8) 0.12441(6)
O5_8 O 0.8309(4) 0.5526(5) 0.0998(2)
C1_7 C 0.9555(5) 0.4473(6) 0.1237(3)
C6_8 C 0.9812(5) 0.5805(6) 0.1252(3)
C9_8 C 0.9346(4) 0.5227(6) 0.1252(2)
H8_7 H 0.9931 0.0554 0.0319
C41_8 C 0.8611(5) 0.5424(6) 0.1266(3)
C23_7 C 0.2912(5) 0.4390(6) 0.0113(3)
H9_7 H 0.3350 0.4289 0.0164
C31_7 C 0.1885(5) 0.4582(7) 0.0166(3)
H15_7 H 0.1473 0.4646 0.0260
Br3_6 Br 0.91765(6) 0.12621(8) 0.31955(4)
N4_6 N 0.7646(4) 0.0113(5) 0.2287(2)
C11_6 C 0.9618(5) 0.0611(6) 0.3510(3)
C25_6 C 0.8046(5) 0.0323(6) 0.1985(3)
H10_6 H 0.8225 0.0838 0.2018
H11_6 H 0.7771 0.0328 0.1778
C28_6 C 0.6990(6) 0.0185(9) 0.2315(3)
H12_6 H 0.6696 0.0360 0.2146
H22_6 H 0.9269 0.0396 0.2204
N3_7 N 0.2325(4) 0.9533(5) 0.0203(2)
C33_7 C 0.1933(5) 0.9553(6) 0.0516(3)
H18_7 H 0.1699 0.9069 0.0537
H19_7 H 0.2224 0.9602 0.0716
H20_7 H 0.0709 0.9597 0.0310
C44_7 C 0.2975(5) 0.9648(7) 0.0177(3)
H28_7 H 0.3271 0.9751 0.0356
N5_4 N 0.2557(4) 0.9409(5) 0.9652(2)
C23_8 C 0.2088(5) 0.9390(6) 0.9887(3)
H9_8 H 0.1650 0.9289 0.9836
C31_8 C 0.3115(5) 0.9582(7) 0.9834(3)
H15_8 H 0.3527 0.9646 0.9740
Co3_4 Co 0.24713(6) 0.92349(8) 0.91374(3)
Br2_8 Br 0.06702(6) 0.82936(7) 0.85015(4)
Br5_8 Br 0.44907(7) 0.82667(8) 0.87871(6)
Br7_8 Br 0.60859(6) 0.86920(8) 0.87559(6)
N1_8 N 0.2531(4) 0.8110(5) 0.9009(2)
N3_8 N 0.2675(4) 0.4533(5) 0.9797(2)
O2_8 O 0.3346(3) 0.9684(4) 0.90569(18)
O4_8 O 0.1745(3) 0.9737(4) 0.88794(18)
O6_8 O 0.1239(3) 0.9030(5) 0.92644(19)
C1_8 C 0.5445(5) 0.9473(6) 0.8763(3)
C2_8 C 0.3864(6) 0.6525(8) 0.9357(4)
H1_8 H 0.3758 0.7013 0.9273
O7_8 O 0.3302(4) 0.9527(5) 0.8486(2)
C4_8 C 0.4780(5) 0.9302(6) 0.8765(3)
C5_8 C 0.1231(5) 0.9461(6) 0.9022(3)
C7_8 C 0.2498(5) 0.7528(6) 0.9226(3)
H2_8 H 0.2410 0.7580 0.9460
C8_8 C 0.2680(5) 0.6096(6) 0.9236(3)
H3_8 H 0.2388 0.6066 0.9431
H4_8 H 0.2554 0.5696 0.9072
C10_8 C 0.4479(7) 0.6379(9) 0.9471(4)
H5_8 H 0.4795 0.6765 0.9463
C12_8 C 0.0244(5) 0.9211(5) 0.8640(3)
N6_8 N 0.2609(4) 0.6851(5) 0.9070(2)
C19_8 C 0.4313(4) 0.9879(6) 0.8756(2)
C20_8 C 0.4645(6) 0.5652(9) 0.9599(3)
H8_8 H 0.5069 0.5554 0.9681
C21_8 C 0.0577(5) 0.9693(6) 0.8860(3)
C22_8 C 0.3557(5) 0.5214(6) 0.9484(2)
C24_8 C 0.3380(5) 0.5950(7) 0.9363(3)
C26_8 C 0.3586(5) 0.9688(6) 0.8761(3)
C29_8 C 0.2729(6) 0.7017(7) 0.8736(3)
H13_8 H 0.2829 0.6663 0.8564
C33_8 C 0.3067(5) 0.4553(6) 0.9484(3)
H18_8 H 0.3301 0.4069 0.9463
H19_8 H 0.2776 0.4602 0.9284
C34_8 C 0.4180(6) 0.5082(8) 0.9604(3)
H20_8 H 0.4291 0.4597 0.9690
C35_8 C 0.2678(6) 0.7777(7) 0.8697(3)
H21_8 H 0.2734 0.8042 0.8491
C44_8 C 0.2025(5) 0.4648(7) 0.9823(3)
H28_8 H 0.1729 0.4751 0.9644
Br3_7 Br 0.91765(6) 0.87379(8) 0.81955(4)
N4_7 N 0.7646(4) 0.9887(5) 0.7287(2)
C11_7 C 0.9618(5) 0.9389(6) 0.8510(3)
C25_7 C 0.8046(5) 0.9677(6) 0.6985(3)
H10_7 H 0.8225 0.9162 0.7018
H11_7 H 0.7771 0.9672 0.6778
C28_7 C 0.6990(6) 0.9815(9) 0.7315(3)
H12_7 H 0.6696 0.9640 0.7146
H22_7 H 0.9269 0.9604 0.7204
Br3_8 Br 0.08235(6) 0.87379(8) 0.68045(4)
N4_8 N 0.2354(4) 0.9887(5) 0.7713(2)
C11_8 C 0.0382(5) 0.9389(6) 0.6490(3)
C25_8 C 0.1954(5) 0.9677(6) 0.8015(3)
H10_8 H 0.1775 0.9162 0.7982
H11_8 H 0.2229 0.9672 0.8222
C28_8 C 0.3010(6) 0.9815(9) 0.7685(3)
H12_8 H 0.3304 0.9640 0.7854
H22_8 H 0.0731 0.9604 0.7796
loop_
_geom_bond_atom_site_label_1
_geom_bond_atom_site_label_2
_geom_bond_site_symmetry_1
_geom_bond_site_symmetry_2
N3 C23 1_555 1_555
N5 C23 1_555 1_555
C23 H9 1_555 1_555
C31 N5 1_555 1_555
H15 C31 1_555 1_555
C33 N3 1_555 1_555
H18 C33 1_555 1_555
H19 C33 1_555 1_555
C44 N3 1_555 1_555
H28 C44 1_555 1_555
Co3 N5 1_555 1_555
C31 C44 1_555 1_555
Br1 C27 1_555 1_555
Br2 C12 1_555 1_555
Br3 C11 1_555 1_555
Br5 C4 1_555 1_555
Br6 C3 1_555 1_555
Br8 C13 1_555 1_555
Co1 N1 1_555 1_555
Co2 O1 1_555 1_555
N1 C7 1_555 1_555
N2 C30 1_555 1_555
O1 C14 1_555 1_555
O2 Co1 1_555 1_555
O3 Co2 1_555 1_555
O4 Co1 1_555 1_555
O6 C5 1_555 1_555
C2 H1 1_555 1_555
N4 C25 1_555 1_555
O7 C26 1_555 1_555
C4 C19 1_555 1_555
C5 O4 1_555 1_555
C7 H2 1_555 1_555
C8 H3 1_555 1_555
H4 C8 1_555 1_555
C10 C2 1_555 1_555
H5 C10 1_555 1_555
C11 C12 1_555 1_555
C12 C21 1_555 1_555
C13 C21 1_555 1_555
C14 O3 1_555 1_555
N6 C7 1_555 1_555
C15 C25 1_555 1_555
N7 C30 1_555 1_555
C16 C11 1_555 1_555
C17 H6 1_555 1_555
N8 Co2 1_555 1_555
C18 H7 1_555 1_555
C19 C3 1_555 1_555
C20 C10 1_555 1_555
C21 C5 1_555 1_555
C22 C24 1_555 1_555
C24 C2 1_555 1_555
C25 H10 1_555 1_555
H11 C25 1_555 1_555
C26 O2 1_555 1_555
C27 C13 1_555 1_555
C28 N4 1_555 1_555
H12 C28 1_555 1_555
C29 N6 1_555 1_555
H13 C29 1_555 1_555
C30 H14 1_555 1_555
C32 N7 1_555 1_555
H16 C32 1_555 1_555
H17 C32 1_555 1_555
C34 C20 1_555 1_555
C35 N1 1_555 1_555
H21 C35 1_555 1_555
C36 C15 1_555 1_555
C37 C15 1_555 1_555
H22 C37 1_555 1_555
C38 N4 1_555 1_555
H23 C38 1_555 1_555
C39 C17 1_555 1_555
H24 C39 1_555 1_555
C40 N8 1_555 1_555
H25 C40 1_555 1_555
C42 N2 1_555 1_555
H26 C42 1_555 1_555
C43 N7 1_555 1_555
H27 C43 1_555 1_555
Co5 N2 1_555 1_555
N9 Co2 1_555 1_555
N10 Co1 1_555 1_555
O9 Co2 1_555 1_555
C8 N6 1_555 1_555
C8 C24 1_555 1_555
C14 C16 1_555 1_555
C16 C27 1_555 1_555
C17 C37 1_555 1_555
N8 C38 1_555 1_555
C18 C36 1_555 1_555
C18 C39 1_555 1_555
C19 C26 1_555 1_555
C22 C34 1_555 1_555
C28 C40 1_555 1_555
C29 C35 1_555 1_555
C32 C36 1_555 1_555
C42 C43 1_555 1_555
Br4 C6 1_555 1_555
Br7 C1 1_555 1_555
O5 C41 1_555 1_555
O9 C41 1_555 1_555
C6 C9 1_555 1_555
C9 C1 1_555 1_555
C41 C9 1_555 1_555
Br2_2 C12_2 1_555 1_555
Br5_2 C4_2 1_555 1_555
Br7_2 C1_2 1_555 1_555
Co3 N1_2 1_555 1_555
N1_2 C7_2 1_555 1_555
N3_2 C23_2 1_555 1_555
O2_2 Co3 1_555 1_555
O4_2 Co3 1_555 1_555
O6_2 C5_2 1_555 1_555
C1_2 C4_2 1_555 1_555
C2_2 H1_2 1_555 1_555
O7_2 C26_2 1_555 1_555
C4_2 C19_2 1_555 1_555
C5_2 O4_2 1_555 1_555
N10 C23_2 1_555 1_555
C7_2 H2_2 1_555 1_555
C8_2 H3_2 1_555 1_555
H4_2 C8_2 1_555 1_555
C10_2 C2_2 1_555 1_555
H5_2 C10_2 1_555 1_555
C12_2 C21_2 1_555 1_555
N6_2 C7_2 1_555 1_555
C20_2 C10_2 1_555 1_555
H8_2 C20_2 1_555 1_555
C21_2 C5_2 1_555 1_555
C22_2 C24_2 1_555 1_555
C23_2 H9_2 1_555 1_555
C24_2 C2_2 1_555 1_555
C26_2 O2_2 1_555 1_555
C29_2 N6_2 1_555 1_555
H13_2 C29_2 1_555 1_555
C31_2 N10 1_555 1_555
H15_2 C31_2 1_555 1_555
C33_2 N3_2 1_555 1_555
H18_2 C33_2 1_555 1_555
H19_2 C33_2 1_555 1_555
C34_2 C20_2 1_555 1_555
H20_2 C34_2 1_555 1_555
C35_2 N1_2 1_555 1_555
H21_2 C35_2 1_555 1_555
C44_2 N3_2 1_555 1_555
H28_2 C44_2 1_555 1_555
C8_2 N6_2 1_555 1_555
C8_2 C24_2 1_555 1_555
C19_2 C26_2 1_555 1_555
C22_2 C33_2 1_555 1_555
C22_2 C34_2 1_555 1_555
C29_2 C35_2 1_555 1_555
C31_2 C44_2 1_555 1_555
Br4_2 C6_2 1_555 1_555
Br6_2 C3_2 1_555 1_555
Br8_2 C13_2 1_555 1_555
O5_2 C41_2 1_555 1_555
C3_2 C6_2 1_555 1_555
O8 C41_2 1_555 1_555
C6_2 C9_2 1_555 1_555
C41_2 C9_2 1_555 1_555
Co5 O8 1_555 1_555
Br1_2 C27_2 1_555 1_555
Co5 O1_2 1_555 1_555
N9 C30_2 1_555 1_555
O1_2 C14_2 1_555 1_555
O3_2 Co5 1_555 1_555
C14_2 O3_2 1_555 1_555
N7_2 C30_2 1_555 1_555
N8_2 Co5 1_555 1_555
C18_2 H7_2 1_555 1_555
C30_2 H14_2 1_555 1_555
C32_2 N7_2 1_555 1_555
H16_2 C32_2 1_555 1_555
H17_2 C32_2 1_555 1_555
C36_2 C15_2 1_555 1_555
C37_2 C15_2 1_555 1_555
H23_2 C38_2 1_555 1_555
C39_2 C17_2 1_555 1_555
H24_2 C39_2 1_555 1_555
C40_2 N8_2 1_555 1_555
H25_2 C40_2 1_555 1_555
C42_2 N9 1_555 1_555
H26_2 C42_2 1_555 1_555
C43_2 N7_2 1_555 1_555
H27_2 C43_2 1_555 1_555
C14_2 C16_2 1_555 1_555
C16_2 C27_2 1_555 1_555
C17_2 C37_2 1_555 1_555
N8_2 C38_2 1_555 1_555
C18_2 C36_2 1_555 1_555
C18_2 C39_2 1_555 1_555
C32_2 C36_2 1_555 1_555
C42_2 C43_2 1_555 1_555
Br4_3 C6_3 1_555 1_555
Br7_3 C1_3 1_555 1_555
O5_3 C41_3 1_555 1_555
O8_2 C41_3 1_555 1_555
C6_3 C9_3 1_555 1_555
C9_3 C1_3 1_555 1_555
C41_3 C9_3 1_555 1_555
Co4 O8_2 1_555 1_555
Br1_3 C27_3 1_555 1_555
Br2_3 C12_3 1_555 1_555
Br3_2 C11_2 1_555 1_555
Br5_3 C4_3 1_555 1_555
Br6_3 C3_3 1_555 1_555
Br8_3 C13_3 1_555 1_555
Co1_2 N1_3 1_555 1_555
Co4 O1_3 1_555 1_555
N1_3 C7_3 1_555 1_555
N2_2 C30_3 1_555 1_555
O1_3 C14_3 1_555 1_555
O2_3 Co1_2 1_555 1_555
O3_3 Co4 1_555 1_555
O4_3 Co1_2 1_555 1_555
O6_3 C5_3 1_555 1_555
C2_3 H1_3 1_555 1_555
N4_2 C25_2 1_555 1_555
O7_3 C26_3 1_555 1_555
C4_3 C19_3 1_555 1_555
C5_3 O4_3 1_555 1_555
C7_3 H2_3 1_555 1_555
C8_3 H3_3 1_555 1_555
H4_3 C8_3 1_555 1_555
C10_3 C2_3 1_555 1_555
H5_3 C10_3 1_555 1_555
C11_2 C12_3 1_555 1_555
C12_3 C21_3 1_555 1_555
C13_3 C21_3 1_555 1_555
C14_3 O3_3 1_555 1_555
N6_3 C7_3 1_555 1_555
C15_3 C25_2 1_555 1_555
N7_3 C30_3 1_555 1_555
C16_3 C11_2 1_555 1_555
C17_3 H6_3 1_555 1_555
N8_3 Co4 1_555 1_555
C18_3 H7_3 1_555 1_555
C19_3 C3_3 1_555 1_555
C20_3 C10_3 1_555 1_555
C21_3 C5_3 1_555 1_555
C22_3 C24_3 1_555 1_555
C24_3 C2_3 1_555 1_555
C25_2 H10_2 1_555 1_555
H11_2 C25_2 1_555 1_555
C26_3 O2_3 1_555 1_555
C27_3 C13_3 1_555 1_555
C28_2 N4_2 1_555 1_555
H12_2 C28_2 1_555 1_555
C29_3 N6_3 1_555 1_555
H13_3 C29_3 1_555 1_555
C30_3 H14_3 1_555 1_555
C32_3 N7_3 1_555 1_555
H16_3 C32_3 1_555 1_555
H17_3 C32_3 1_555 1_555
C34_3 C20_3 1_555 1_555
C35_3 N1_3 1_555 1_555
H21_3 C35_3 1_555 1_555
C36_3 C15_3 1_555 1_555
C37_3 C15_3 1_555 1_555
H22_2 C37_3 1_555 1_555
C38_3 N4_2 1_555 1_555
H23_3 C38_3 1_555 1_555
C39_3 C17_3 1_555 1_555
H24_3 C39_3 1_555 1_555
C40_3 N8_3 1_555 1_555
H25_3 C40_3 1_555 1_555
C42_3 N2_2 1_555 1_555
H26_3 C42_3 1_555 1_555
C43_3 N7_3 1_555 1_555
H27_3 C43_3 1_555 1_555
Co5_2 N2_2 1_555 1_555
N9_2 Co4 1_555 1_555
N10_2 Co1_2 1_555 1_555
C8_3 N6_3 1_555 1_555
C8_3 C24_3 1_555 1_555
C14_3 C16_3 1_555 1_555
C16_3 C27_3 1_555 1_555
C17_3 C37_3 1_555 1_555
N8_3 C38_3 1_555 1_555
C18_3 C36_3 1_555 1_555
C18_3 C39_3 1_555 1_555
C19_3 C26_3 1_555 1_555
C22_3 C34_3 1_555 1_555
C28_2 C40_3 1_555 1_555
C29_3 C35_3 1_555 1_555
C32_3 C36_3 1_555 1_555
C42_3 C43_3 1_555 1_555
N10_2 C23_3 1_555 1_555
C23_3 H9_3 1_555 1_555
C31_3 N10_2 1_555 1_555
H15_3 C31_3 1_555 1_555
Br1_4 C27_4 1_555 1_555
Co5_2 O1_4 1_555 1_555
N9_2 C30_4 1_555 1_555
O1_4 C14_4 1_555 1_555
O3_4 Co5_2 1_555 1_555
C14_4 O3_4 1_555 1_555
N7_4 C30_4 1_555 1_555
N8_4 Co5_2 1_555 1_555
C18_4 H7_4 1_555 1_555
C30_4 H14_4 1_555 1_555
C32_4 N7_4 1_555 1_555
H16_4 C32_4 1_555 1_555
H17_4 C32_4 1_555 1_555
C36_4 C15_4 1_555 1_555
C37_4 C15_4 1_555 1_555
H23_4 C38_4 1_555 1_555
C39_4 C17_4 1_555 1_555
H24_4 C39_4 1_555 1_555
C40_4 N8_4 1_555 1_555
H25_4 C40_4 1_555 1_555
C42_4 N9_2 1_555 1_555
H26_4 C42_4 1_555 1_555
C43_4 N7_4 1_555 1_555
H27_4 C43_4 1_555 1_555
O9_2 Co5_2 1_555 1_555
C14_4 C16_4 1_555 1_555
C16_4 C27_4 1_555 1_555
C17_4 C37_4 1_555 1_555
N8_4 C38_4 1_555 1_555
C18_4 C36_4 1_555 1_555
C18_4 C39_4 1_555 1_555
C32_4 C36_4 1_555 1_555
C42_4 C43_4 1_555 1_555
Br4_4 C6_4 1_555 1_555
Br6_4 C3_4 1_555 1_555
Br8_4 C13_4 1_555 1_555
O5_4 C41_4 1_555 1_555
C3_4 C6_4 1_555 1_555
O9_2 C41_4 1_555 1_555
C6_4 C9_4 1_555 1_555
C41_4 C9_4 1_555 1_555
N5_2 C23_4 1_555 1_555
C23_4 H9_4 1_555 1_555
C31_4 N5_2 1_555 1_555
H15_4 C31_4 1_555 1_555
Co3_2 N5_2 1_555 1_555
Br2_4 C12_4 1_555 1_555
Br5_4 C4_4 1_555 1_555
Br7_4 C1_4 1_555 1_555
Co3_2 N1_4 1_555 1_555
N1_4 C7_4 1_555 1_555
O2_4 Co3_2 1_555 1_555
O4_4 Co3_2 1_555 1_555
O6_4 C5_4 1_555 1_555
C1_4 C4_4 1_555 1_555
C2_4 H1_4 1_555 1_555
O7_4 C26_4 1_555 1_555
C4_4 C19_4 1_555 1_555
C5_4 O4_4 1_555 1_555
C7_4 H2_4 1_555 1_555
C8_4 H3_4 1_555 1_555
H4_4 C8_4 1_555 1_555
C10_4 C2_4 1_555 1_555
H5_4 C10_4 1_555 1_555
C12_4 C21_4 1_555 1_555
N6_4 C7_4 1_555 1_555
C20_4 C10_4 1_555 1_555
H8_4 C20_4 1_555 1_555
C21_4 C5_4 1_555 1_555
C22_4 C24_4 1_555 1_555
C24_4 C2_4 1_555 1_555
C26_4 O2_4 1_555 1_555
C29_4 N6_4 1_555 1_555
H13_4 C29_4 1_555 1_555
C33_3 N3_3 1_555 1_555
H18_3 C33_3 1_555 1_555
H19_3 C33_3 1_555 1_555
C34_4 C20_4 1_555 1_555
H20_3 C34_4 1_555 1_555
C35_4 N1_4 1_555 1_555
H21_4 C35_4 1_555 1_555
C44_3 N3_3 1_555 1_555
H28_3 C44_3 1_555 1_555
C8_4 N6_4 1_555 1_555
C8_4 C24_4 1_555 1_555
C19_4 C26_4 1_555 1_555
C22_4 C33_3 1_555 1_555
C22_4 C34_4 1_555 1_555
C29_4 C35_4 1_555 1_555
C33_4 N3_4 1_555 1_555
H18_4 C33_4 1_555 1_555
H19_4 C33_4 1_555 1_555
C44_4 N3_4 1_555 1_555
H28_4 C44_4 1_555 1_555
Br3_3 C11_3 1_555 1_555
N4_3 C25_3 1_555 1_555
C25_3 H10_3 1_555 1_555
H11_3 C25_3 1_555 1_555
C28_3 N4_3 1_555 1_555
H12_3 C28_3 1_555 1_555
Br1_5 C27_5 1_555 1_555
Co2_2 O1_5 1_555 1_555
N2_3 C30_5 1_555 1_555
O1_5 C14_5 1_555 1_555
O3_5 Co2_2 1_555 1_555
C14_5 O3_5 1_555 1_555
N7_5 C30_5 1_555 1_555
N8_5 Co2_2 1_555 1_555
C18_5 H7_5 1_555 1_555
C30_5 H14_5 1_555 1_555
C32_5 N7_5 1_555 1_555
H16_5 C32_5 1_555 1_555
H17_5 C32_5 1_555 1_555
C36_5 C15_5 1_555 1_555
C37_5 C15_5 1_555 1_555
H23_5 C38_5 1_555 1_555
C39_5 C17_5 1_555 1_555
H24_5 C39_5 1_555 1_555
C40_5 N8_5 1_555 1_555
H25_5 C40_5 1_555 1_555
C42_5 N2_3 1_555 1_555
H26_5 C42_5 1_555 1_555
C43_5 N7_5 1_555 1_555
H27_5 C43_5 1_555 1_555
Co5_3 N2_3 1_555 1_555
N9_3 Co2_2 1_555 1_555
O9_3 Co2_2 1_555 1_555
C14_5 C16_5 1_555 1_555
C16_5 C27_5 1_555 1_555
C17_5 C37_5 1_555 1_555
N8_5 C38_5 1_555 1_555
C18_5 C36_5 1_555 1_555
C18_5 C39_5 1_555 1_555
C32_5 C36_5 1_555 1_555
C42_5 C43_5 1_555 1_555
Br4_5 C6_5 1_555 1_555
Br6_5 C3_5 1_555 1_555
Br8_5 C13_5 1_555 1_555
O5_5 C41_5 1_555 1_555
C3_5 C6_5 1_555 1_555
O9_3 C41_5 1_555 1_555
C6_5 C9_5 1_555 1_555
C41_5 C9_5 1_555 1_555
Br4_6 C6_6 1_555 1_555
Br7_5 C1_5 1_555 1_555
O5_6 C41_6 1_555 1_555
O8_3 C41_6 1_555 1_555
C6_6 C9_6 1_555 1_555
C9_6 C1_5 1_555 1_555
C41_6 C9_6 1_555 1_555
Co5_3 O8_3 1_555 1_555
Br1_6 C27_6 1_555 1_555
Br2_5 C12_5 1_555 1_555
Br3_4 C11_4 1_555 1_555
Br5_5 C4_5 1_555 1_555
Br6_6 C3_6 1_555 1_555
Br8_6 C13_6 1_555 1_555
Co1_3 N1_5 1_555 1_555
Co5_3 O1_6 1_555 1_555
N1_5 C7_5 1_555 1_555
N9_3 C30_6 1_555 1_555
O1_6 C14_6 1_555 1_555
O2_5 Co1_3 1_555 1_555
O3_6 Co5_3 1_555 1_555
O4_5 Co1_3 1_555 1_555
O6_5 C5_5 1_555 1_555
C2_5 H1_5 1_555 1_555
N4_4 C25_4 1_555 1_555
O7_5 C26_5 1_555 1_555
C4_5 C19_5 1_555 1_555
C5_5 O4_5 1_555 1_555
C7_5 H2_5 1_555 1_555
C8_5 H3_5 1_555 1_555
H4_5 C8_5 1_555 1_555
C10_5 C2_5 1_555 1_555
H5_5 C10_5 1_555 1_555
C11_4 C12_5 1_555 1_555
C12_5 C21_5 1_555 1_555
C13_6 C21_5 1_555 1_555
C14_6 O3_6 1_555 1_555
N6_5 C7_5 1_555 1_555
C15_6 C25_4 1_555 1_555
N7_6 C30_6 1_555 1_555
C16_6 C11_4 1_555 1_555
C17_6 H6_6 1_555 1_555
N8_6 Co5_3 1_555 1_555
C18_6 H7_6 1_555 1_555
C19_5 C3_6 1_555 1_555
C20_5 C10_5 1_555 1_555
C21_5 C5_5 1_555 1_555
C22_5 C24_5 1_555 1_555
C24_5 C2_5 1_555 1_555
C25_4 H10_4 1_555 1_555
H11_4 C25_4 1_555 1_555
C26_5 O2_5 1_555 1_555
C27_6 C13_6 1_555 1_555
C28_4 N4_4 1_555 1_555
H12_4 C28_4 1_555 1_555
C29_5 N6_5 1_555 1_555
H13_5 C29_5 1_555 1_555
C30_6 H14_6 1_555 1_555
C32_6 N7_6 1_555 1_555
H16_6 C32_6 1_555 1_555
H17_6 C32_6 1_555 1_555
C34_5 C20_5 1_555 1_555
C35_5 N1_5 1_555 1_555
H21_5 C35_5 1_555 1_555
C36_6 C15_6 1_555 1_555
C37_6 C15_6 1_555 1_555
H22_4 C37_6 1_555 1_555
C38_6 N4_4 1_555 1_555
H23_6 C38_6 1_555 1_555
C39_6 C17_6 1_555 1_555
H24_6 C39_6 1_555 1_555
C40_6 N8_6 1_555 1_555
H25_6 C40_6 1_555 1_555
C42_6 N9_3 1_555 1_555
H26_6 C42_6 1_555 1_555
C43_6 N7_6 1_555 1_555
H27_6 C43_6 1_555 1_555
N10_3 Co1_3 1_555 1_555
C8_5 N6_5 1_555 1_555
C8_5 C24_5 1_555 1_555
C14_6 C16_6 1_555 1_555
C16_6 C27_6 1_555 1_555
C17_6 C37_6 1_555 1_555
N8_6 C38_6 1_555 1_555
C18_6 C36_6 1_555 1_555
C18_6 C39_6 1_555 1_555
C19_5 C26_5 1_555 1_555
C22_5 C34_5 1_555 1_555
C28_4 C40_6 1_555 1_555
C29_5 C35_5 1_555 1_555
C32_6 C36_6 1_555 1_555
C42_6 C43_6 1_555 1_555
N3_5 C23_5 1_555 1_555
N5_3 C23_5 1_555 1_555
C23_5 H9_5 1_555 1_555
C31_5 N5_3 1_555 1_555
H15_5 C31_5 1_555 1_555
C33_5 N3_5 1_555 1_555
H18_5 C33_5 1_555 1_555
H19_5 C33_5 1_555 1_555
C44_5 N3_5 1_555 1_555
H28_5 C44_5 1_555 1_555
Co3_3 N5_3 1_555 1_555
C31_5 C44_5 1_555 1_555
Br2_6 C12_6 1_555 1_555
Br5_6 C4_6 1_555 1_555
Br7_6 C1_6 1_555 1_555
Co3_3 N1_6 1_555 1_555
N1_6 C7_6 1_555 1_555
N3_6 C23_6 1_555 1_555
O2_6 Co3_3 1_555 1_555
O4_6 Co3_3 1_555 1_555
O6_6 C5_6 1_555 1_555
C1_6 C4_6 1_555 1_555
C2_6 H1_6 1_555 1_555
O7_6 C26_6 1_555 1_555
C4_6 C19_6 1_555 1_555
C5_6 O4_6 1_555 1_555
N10_3 C23_6 1_555 1_555
C7_6 H2_6 1_555 1_555
C8_6 H3_6 1_555 1_555
H4_6 C8_6 1_555 1_555
C10_6 C2_6 1_555 1_555
H5_6 C10_6 1_555 1_555
C12_6 C21_6 1_555 1_555
N6_6 C7_6 1_555 1_555
C20_6 C10_6 1_555 1_555
H8_6 C20_6 1_555 1_555
C21_6 C5_6 1_555 1_555
C22_6 C24_6 1_555 1_555
C23_6 H9_6 1_555 1_555
C24_6 C2_6 1_555 1_555
C26_6 O2_6 1_555 1_555
C29_6 N6_6 1_555 1_555
H13_6 C29_6 1_555 1_555
C31_6 N10_3 1_555 1_555
H15_6 C31_6 1_555 1_555
C33_6 N3_6 1_555 1_555
H18_6 C33_6 1_555 1_555
H19_6 C33_6 1_555 1_555
C34_6 C20_6 1_555 1_555
H20_6 C34_6 1_555 1_555
C35_6 N1_6 1_555 1_555
H21_6 C35_6 1_555 1_555
C44_6 N3_6 1_555 1_555
H28_6 C44_6 1_555 1_555
C8_6 N6_6 1_555 1_555
C8_6 C24_6 1_555 1_555
C19_6 C26_6 1_555 1_555
C22_6 C33_6 1_555 1_555
C22_6 C34_6 1_555 1_555
C29_6 C35_6 1_555 1_555
C31_6 C44_6 1_555 1_555
Br4_7 C6_7 1_555 1_555
Br6_7 C3_7 1_555 1_555
Br8_7 C13_7 1_555 1_555
O5_7 C41_7 1_555 1_555
C3_7 C6_7 1_555 1_555
O8_4 C41_7 1_555 1_555
C6_7 C9_7 1_555 1_555
C41_7 C9_7 1_555 1_555
Co4_2 O8_4 1_555 1_555
Br1_7 C27_7 1_555 1_555
Co4_2 O1_7 1_555 1_555
N2_4 C30_7 1_555 1_555
O1_7 C14_7 1_555 1_555
O3_7 Co4_2 1_555 1_555
C14_7 O3_7 1_555 1_555
N7_7 C30_7 1_555 1_555
N8_7 Co4_2 1_555 1_555
C18_7 H7_7 1_555 1_555
C30_7 H14_7 1_555 1_555
C32_7 N7_7 1_555 1_555
H16_7 C32_7 1_555 1_555
H17_7 C32_7 1_555 1_555
C36_7 C15_7 1_555 1_555
C37_7 C15_7 1_555 1_555
H23_7 C38_7 1_555 1_555
C39_7 C17_7 1_555 1_555
H24_7 C39_7 1_555 1_555
C40_7 N8_7 1_555 1_555
H25_7 C40_7 1_555 1_555
C42_7 N2_4 1_555 1_555
H26_7 C42_7 1_555 1_555
C43_7 N7_7 1_555 1_555
H27_7 C43_7 1_555 1_555
Co5_4 N2_4 1_555 1_555
N9_4 Co4_2 1_555 1_555
C14_7 C16_7 1_555 1_555
C16_7 C27_7 1_555 1_555
C17_7 C37_7 1_555 1_555
N8_7 C38_7 1_555 1_555
C18_7 C36_7 1_555 1_555
C18_7 C39_7 1_555 1_555
C32_7 C36_7 1_555 1_555
C42_7 C43_7 1_555 1_555
Br1_8 C27_8 1_555 1_555
Br2_7 C12_7 1_555 1_555
Br3_5 C11_5 1_555 1_555
Br5_7 C4_7 1_555 1_555
Br6_8 C3_8 1_555 1_555
Br8_8 C13_8 1_555 1_555
Co1_4 N1_7 1_555 1_555
Co5_4 O1_8 1_555 1_555
N1_7 C7_7 1_555 1_555
N9_4 C30_8 1_555 1_555
O1_8 C14_8 1_555 1_555
O2_7 Co1_4 1_555 1_555
O3_8 Co5_4 1_555 1_555
O4_7 Co1_4 1_555 1_555
O6_7 C5_7 1_555 1_555
C2_7 H1_7 1_555 1_555
N4_5 C25_5 1_555 1_555
O7_7 C26_7 1_555 1_555
C4_7 C19_7 1_555 1_555
C5_7 O4_7 1_555 1_555
C7_7 H2_7 1_555 1_555
C8_7 H3_7 1_555 1_555
H4_7 C8_7 1_555 1_555
C10_7 C2_7 1_555 1_555
H5_7 C10_7 1_555 1_555
C11_5 C12_7 1_555 1_555
C12_7 C21_7 1_555 1_555
C13_8 C21_7 1_555 1_555
C14_8 O3_8 1_555 1_555
N6_7 C7_7 1_555 1_555
C15_8 C25_5 1_555 1_555
N7_8 C30_8 1_555 1_555
C16_8 C11_5 1_555 1_555
C17_8 H6_8 1_555 1_555
N8_8 Co5_4 1_555 1_555
C18_8 H7_8 1_555 1_555
C19_7 C3_8 1_555 1_555
C20_7 C10_7 1_555 1_555
C21_7 C5_7 1_555 1_555
C22_7 C24_7 1_555 1_555
C24_7 C2_7 1_555 1_555
C25_5 H10_5 1_555 1_555
H11_5 C25_5 1_555 1_555
C26_7 O2_7 1_555 1_555
C27_8 C13_8 1_555 1_555
C28_5 N4_5 1_555 1_555
H12_5 C28_5 1_555 1_555
C29_7 N6_7 1_555 1_555
H13_7 C29_7 1_555 1_555
C30_8 H14_8 1_555 1_555
C32_8 N7_8 1_555 1_555
H16_8 C32_8 1_555 1_555
H17_8 C32_8 1_555 1_555
C34_7 C20_7 1_555 1_555
C35_7 N1_7 1_555 1_555
H21_7 C35_7 1_555 1_555
C36_8 C15_8 1_555 1_555
C37_8 C15_8 1_555 1_555
H22_5 C37_8 1_555 1_555
C38_8 N4_5 1_555 1_555
H23_8 C38_8 1_555 1_555
C39_8 C17_8 1_555 1_555
H24_8 C39_8 1_555 1_555
C40_8 N8_8 1_555 1_555
H25_8 C40_8 1_555 1_555
C42_8 N9_4 1_555 1_555
H26_8 C42_8 1_555 1_555
C43_8 N7_8 1_555 1_555
H27_8 C43_8 1_555 1_555
N10_4 Co1_4 1_555 1_555
O9_4 Co5_4 1_555 1_555
C8_7 N6_7 1_555 1_555
C8_7 C24_7 1_555 1_555
C14_8 C16_8 1_555 1_555
C16_8 C27_8 1_555 1_555
C17_8 C37_8 1_555 1_555
N8_8 C38_8 1_555 1_555
C18_8 C36_8 1_555 1_555
C18_8 C39_8 1_555 1_555
C19_7 C26_7 1_555 1_555
C22_7 C34_7 1_555 1_555
C28_5 C40_8 1_555 1_555
C29_7 C35_7 1_555 1_555
C32_8 C36_8 1_555 1_555
C42_8 C43_8 1_555 1_555
Br4_8 C6_8 1_555 1_555
Br7_7 C1_7 1_555 1_555
O5_8 C41_8 1_555 1_555
O9_4 C41_8 1_555 1_555
C6_8 C9_8 1_555 1_555
C9_8 C1_7 1_555 1_555
C41_8 C9_8 1_555 1_555
N10_4 C23_7 1_555 1_555
C23_7 H9_7 1_555 1_555
C31_7 N10_4 1_555 1_555
H15_7 C31_7 1_555 1_555
Br3_6 C11_6 1_555 1_555
N4_6 C25_6 1_555 1_555
C25_6 H10_6 1_555 1_555
H11_6 C25_6 1_555 1_555
C28_6 N4_6 1_555 1_555
H12_6 C28_6 1_555 1_555
C33_7 N3_7 1_555 1_555
H18_7 C33_7 1_555 1_555
H19_7 C33_7 1_555 1_555
C44_7 N3_7 1_555 1_555
H28_7 C44_7 1_555 1_555
N5_4 C23_8 1_555 1_555
C23_8 H9_8 1_555 1_555
C31_8 N5_4 1_555 1_555
H15_8 C31_8 1_555 1_555
Co3_4 N5_4 1_555 1_555
Br2_8 C12_8 1_555 1_555
Br5_8 C4_8 1_555 1_555
Br7_8 C1_8 1_555 1_555
Co3_4 N1_8 1_555 1_555
N1_8 C7_8 1_555 1_555
O2_8 Co3_4 1_555 1_555
O4_8 Co3_4 1_555 1_555
O6_8 C5_8 1_555 1_555
C1_8 C4_8 1_555 1_555
C2_8 H1_8 1_555 1_555
O7_8 C26_8 1_555 1_555
C4_8 C19_8 1_555 1_555
C5_8 O4_8 1_555 1_555
C7_8 H2_8 1_555 1_555
C8_8 H3_8 1_555 1_555
H4_8 C8_8 1_555 1_555
C10_8 C2_8 1_555 1_555
H5_8 C10_8 1_555 1_555
C12_8 C21_8 1_555 1_555
N6_8 C7_8 1_555 1_555
C20_8 C10_8 1_555 1_555
H8_8 C20_8 1_555 1_555
C21_8 C5_8 1_555 1_555
C22_8 C24_8 1_555 1_555
C24_8 C2_8 1_555 1_555
C26_8 O2_8 1_555 1_555
C29_8 N6_8 1_555 1_555
H13_8 C29_8 1_555 1_555
C33_8 N3_8 1_555 1_555
H18_8 C33_8 1_555 1_555
H19_8 C33_8 1_555 1_555
C34_8 C20_8 1_555 1_555
H20_8 C34_8 1_555 1_555
C35_8 N1_8 1_555 1_555
H21_8 C35_8 1_555 1_555
C44_8 N3_8 1_555 1_555
H28_8 C44_8 1_555 1_555
C8_8 N6_8 1_555 1_555
C8_8 C24_8 1_555 1_555
C19_8 C26_8 1_555 1_555
C22_8 C33_8 1_555 1_555
C22_8 C34_8 1_555 1_555
C29_8 C35_8 1_555 1_555
Br3_7 C11_7 1_555 1_555
N4_7 C25_7 1_555 1_555
C25_7 H10_7 1_555 1_555
H11_7 C25_7 1_555 1_555
C28_7 N4_7 1_555 1_555
H12_7 C28_7 1_555 1_555
Br3_8 C11_8 1_555 1_555
N4_8 C25_8 1_555 1_555
C25_8 H10_8 1_555 1_555
H11_8 C25_8 1_555 1_555
C28_8 N4_8 1_555 1_555
H12_8 C28_8 1_555 1_555

#END
