
###############################################################################
#
# This file contains modified crystal structure data generated from the
# MOF subset of the Cambridge Structural Database (CSD) v543 
# hosted by the Cambridge Crystallographic Data Centre (CCDC).
#
# This work is licensed under the Creative Commons
# Attribution-NonCommercial-ShareAlike 4.0 International License.
# To view a copy of this license, visit
# http://creativecommons.org/licenses/by-nc-sa/4.0/
# or send a letter to
# Creative Commons, PO Box 1866, Mountain View, CA 94042, USA.
#
# CIF created using the CSD Python API on 29 September 2022
# The structure has been converted into the P1 space group
# The structure has a 3D framework
# The original CSD entry TUNKAQ is in the monoclinic crystal system
# The framework has been calculated to contain at least 10.0% void space
# The void calculation uses a probe of radius 1.32A, grid spacing 0.4
# H atom positions have been added when not included in the experimental data
#
###############################################################################

data_TUNKAQ
_chemical_formula_moiety         '(C88 H56 Br16 Cd4 N16 O16)n'
_symmetry_cell_setting           triclinic
_symmetry_space_group_name_H-M   'P 1'
_symmetry_Int_Tables_number      1
_space_group_name_Hall           'P 1'
loop_
_symmetry_equiv_pos_site_id
_symmetry_equiv_pos_as_xyz
1 x,y,z
_cell_length_a                   18.3022(3)
_cell_length_b                   8.84836(16)
_cell_length_c                   17.5015(3)
_cell_angle_alpha                90
_cell_angle_beta                 93.8224(15)
_cell_angle_gamma                90
_cell_volume                     2827.97
loop_
_atom_site_label
_atom_site_type_symbol
_atom_site_fract_x
_atom_site_fract_y
_atom_site_fract_z
Br8 Br 0.01531(5) 0.28425(10) 0.61895(6)
C29 C 0.0065(3) 0.1197(7) 0.5505(4)
Cd1 Cd 0.19458(2) 0.50930(5) 0.54661(3)
Br1 Br 0.61573(4) 0.62868(11) 0.63512(4)
Br2 Br 0.44122(5) 0.56548(17) 0.66813(5)
Br3 Br 0.13174(6) 0.99605(11) 0.63531(6)
O1 O 0.0845(3) 0.6465(6) 0.5680(4)
O2 O 0.1531(3) 0.7307(6) 0.4798(4)
O3 O 0.3232(3) 0.3422(8) 0.5496(4)
C1 C 0.4254(4) 0.4825(8) 0.5130(4)
O4 O 0.3068(3) 0.5833(8) 0.5163(4)
N2 N 0.1561(3) 0.3311(7) 0.4635(4)
C2 C 0.5490(3) 0.5493(9) 0.5582(4)
C3 C 0.0484(3) 0.8787(7) 0.5074(4)
C4 C 0.0548(4) 0.9992(7) 0.5573(4)
C5 C 0.4755(4) 0.5310(9) 0.5706(4)
C7 C 0.0997(3) 0.7404(8) 0.5196(4)
N4 N 0.1567(4) 0.1290(8) 0.3924(4)
C8 C 0.1943(4) 0.2080(9) 0.4471(5)
C9 C 0.3449(4) 0.4650(11) 0.5275(4)
C10 C 0.2485(4) 0.1535(8) 0.2672(5)
C12 C 0.3032(5) 0.1803(10) 0.2174(5)
C15 C 0.2451(5) 0.0170(8) 0.3059(5)
C16 C 0.0920(4) 0.3264(9) 0.4188(5)
C18 C 0.0914(5) 0.2017(11) 0.3726(5)
C19 C 0.3569(6) 0.0731(13) 0.2100(6)
Br5 Br 0.38427(4) 0.37132(11) 0.36488(4)
Br6 Br 0.55878(5) 0.43452(17) 0.33187(5)
O5 O 0.6768(3) 0.6578(8) 0.4504(4)
C23 C 0.5746(4) 0.5175(8) 0.4870(4)
O6 O 0.6932(3) 0.4167(8) 0.4837(4)
C24 C 0.4510(3) 0.4507(9) 0.4418(4)
C25 C 0.5245(4) 0.4690(9) 0.4294(4)
C26 C 0.6551(4) 0.5350(11) 0.4725(4)
Cd4 Cd 0.80542(2) 0.49070(5) 0.45339(3)
N10 N 0.2037(3) 0.4564(7) 0.6719(3)
H1 H 0.0480993 0.409304 0.419816
H4 H 0.247559 0.176886 0.473965
H5 H 0.303593 0.28486 0.184609
H9 H 0.40184 0.0961297 0.173924
H13 H 0.207863 0.240619 0.275935
H14 H 0.0488288 0.167322 0.329676
Br7 Br 0.86826(6) 0.00395(11) 0.36469(6)
O7 O 0.9155(3) 0.3535(6) 0.4320(4)
O8 O 0.8469(3) 0.2693(6) 0.5202(4)
C27 C 0.9516(3) 0.1213(7) 0.4926(4)
C28 C 0.9452(4) 0.0008(7) 0.4427(4)
C30 C 0.9003(3) 0.2596(8) 0.4804(4)
N6 N 0.8439(3) 0.6689(7) 0.5365(4)
N8 N 0.8433(4) 0.8710(8) 0.6076(4)
C31 C 0.8057(4) 0.7920(9) 0.5529(5)
C32 C 0.7515(4) 0.8465(8) 0.7328(5)
C34 C 0.6968(5) 0.8197(10) 0.7826(5)
C37 C 0.7549(5) 0.9830(8) 0.6941(5)
C38 C 0.9080(4) 0.6736(9) 0.5812(5)
C40 C 0.9086(5) 0.7983(11) 0.6274(5)
C41 C 0.6431(6) 0.9269(13) 0.7900(6)
N9 N 0.7963(3) 0.5436(7) 0.3281(3)
H15 H 0.792137 0.759381 0.724065
H18 H 0.752441 0.823114 0.526035
H19 H 0.696407 0.71514 0.815391
H21 H 0.951171 0.832678 0.670324
H23 H 0.951901 0.590696 0.580184
H25 H 0.59816 0.90387 0.826076
N7 N 0.2445(4) 0.3459(7) 0.7774(3)
C33 C 0.2554(4) 0.3710(9) 0.7033(4)
C35 C 0.1823(5) 0.4185(10) 0.7931(4)
C36 C 0.2923(6) 0.2516(9) 0.8297(5)
C39 C 0.2979(4) 0.0948(9) 0.7967(4)
C42 C 0.1817(7) 0.0128(9) 0.8569(7)
C43 C 0.1573(5) 0.4881(9) 0.7276(5)
C44 C 0.3541(6) 0.0636(13) 0.7481(6)
H16 H 0.269101 0.244995 0.885307
H17 H 0.346625 0.302035 0.8364
H20 H 0.157182 0.420613 0.847773
H22 H 0.301117 0.326181 0.673581
H24 H 0.396112 0.148326 0.740295
H26 H 0.108282 0.557822 0.720552
H27 H 0.199901 0.0916267 0.902019
H28 H 0.136149 0.0620845 0.822231
N3 N 0.7555(4) 0.6541(7) 0.2226(3)
C11 C 0.7446(4) 0.6290(9) 0.2967(4)
C13 C 0.8177(5) 0.5815(10) 0.2069(4)
C14 C 0.7077(6) 0.7484(9) 0.1703(5)
C17 C 0.7021(4) 0.9052(9) 0.2033(4)
C20 C 0.8183(7) 0.9872(9) 0.1431(7)
C21 C 0.8427(5) 0.5119(9) 0.2724(5)
C22 C 0.6459(6) 0.9364(13) 0.2519(6)
H2 H 0.863851 0.937915 0.177769
H3 H 0.800099 0.908373 0.0979813
H6 H 0.842818 0.579387 0.152227
H7 H 0.698883 0.673819 0.326419
H8 H 0.603888 0.851674 0.259705
H10 H 0.891718 0.442178 0.279448
H11 H 0.653375 0.697965 0.1636
H12 H 0.730899 0.755005 0.114693
N1 N 0.2037(3) 0.5436(7) 0.1719(3)
N3_2 N 0.2445(4) 0.6541(7) 0.2774(3)
C11_2 C 0.2554(4) 0.6290(9) 0.2033(4)
C13_2 C 0.1823(5) 0.5815(10) 0.2931(4)
C14_2 C 0.2923(6) 0.7484(9) 0.3297(5)
C17_2 C 0.2979(4) 0.9052(9) 0.2967(4)
C20_2 C 0.1817(7) 0.9872(9) 0.3569(7)
C21_2 C 0.1573(5) 0.5119(9) 0.2276(5)
C22_2 C 0.3541(6) 0.9364(13) 0.2481(6)
Cd5 Cd 0.19458(2) 0.49070(5) 0.04661(3)
H2_2 H 0.136149 0.937915 0.322231
H3_2 H 0.199901 0.908373 0.402019
H6_2 H 0.157182 0.579387 0.347773
H7_2 H 0.301117 0.673819 0.173581
H8_2 H 0.396112 0.851674 0.240295
H10_2 H 0.108282 0.442178 0.220552
H11_2 H 0.346625 0.697965 0.3364
H12_2 H 0.269101 0.755005 0.385307
Br7_2 Br 0.13174(6) 0.00395(11) 0.13531(6)
O7_2 O 0.0845(3) 0.3535(6) 0.0680(4)
C27_2 C 0.0484(3) 0.1213(7) 0.0074(4)
C28_2 C 0.0548(4) 0.0008(7) 0.0573(4)
C30_2 C 0.0997(3) 0.2596(8) 0.0196(4)
O9 O 0.3232(3) 0.6578(8) 0.0496(4)
O10 O 0.3068(3) 0.4167(8) 0.0163(4)
O2_2 O 0.8469(3) 0.7307(6) 0.0202(4)
N2_2 N 0.8439(3) 0.3311(7) 0.0365(4)
N4_2 N 0.8433(4) 0.1290(8) 0.1076(4)
C8_2 C 0.8057(4) 0.2080(9) 0.0529(5)
C10_2 C 0.7515(4) 0.1535(8) 0.2328(5)
C12_2 C 0.6968(5) 0.1803(10) 0.2826(5)
C15_2 C 0.7549(5) 0.0170(8) 0.1941(5)
C16_2 C 0.9080(4) 0.3264(9) 0.0812(5)
C18_2 C 0.9086(5) 0.2017(11) 0.1274(5)
C19_2 C 0.6431(6) 0.0731(13) 0.2900(6)
Br5_2 Br 0.61573(4) 0.37132(11) 0.13512(4)
Br6_2 Br 0.44122(5) 0.43452(17) 0.16813(5)
C23_2 C 0.4254(4) 0.5175(8) 0.0130(4)
C24_2 C 0.5490(3) 0.4507(9) 0.0582(4)
C25_2 C 0.4755(4) 0.4690(9) 0.0706(4)
C26_2 C 0.3449(4) 0.5350(11) 0.0275(4)
H1_2 H 0.951901 0.409304 0.0801842
H4_2 H 0.752441 0.176886 0.0260348
H5_2 H 0.696407 0.28486 0.315391
H9_2 H 0.59816 0.0961297 0.326076
H13_2 H 0.792137 0.240619 0.224065
H14_2 H 0.951171 0.167322 0.170324
N5 N 0.7963(3) 0.4564(7) 0.8281(3)
N7_2 N 0.7555(4) 0.3459(7) 0.7226(3)
C33_2 C 0.7446(4) 0.3710(9) 0.7967(4)
C35_2 C 0.8177(5) 0.4185(10) 0.7069(4)
C36_2 C 0.7077(6) 0.2516(9) 0.6703(5)
C39_2 C 0.7021(4) 0.0948(9) 0.7033(4)
C42_2 C 0.8183(7) 0.0128(9) 0.6431(7)
C43_2 C 0.8427(5) 0.4881(9) 0.7724(5)
C44_2 C 0.6459(6) 0.0636(13) 0.7519(6)
Cd3 Cd 0.80542(2) 0.50930(5) 0.95339(3)
H16_2 H 0.730899 0.244995 0.614693
H17_2 H 0.653375 0.302035 0.6636
H20_2 H 0.842818 0.420613 0.652227
H22_2 H 0.698883 0.326181 0.826419
H24_2 H 0.603888 0.148326 0.759705
H26_2 H 0.891718 0.557822 0.779448
H27_2 H 0.800099 0.0916267 0.597981
H28_2 H 0.863851 0.0620845 0.677769
O8_2 O 0.1531(3) 0.2693(6) 0.9798(4)
N6_2 N 0.1561(3) 0.6689(7) 0.9635(4)
N8_2 N 0.1567(4) 0.8710(8) 0.8924(4)
C31_2 C 0.1943(4) 0.7920(9) 0.9471(5)
C32_2 C 0.2485(4) 0.8465(8) 0.7672(5)
C34_2 C 0.3032(5) 0.8197(10) 0.7174(5)
C37_2 C 0.2451(5) 0.9830(8) 0.8059(5)
C38_2 C 0.0920(4) 0.6736(9) 0.9188(5)
C40_2 C 0.0914(5) 0.7983(11) 0.8726(5)
C41_2 C 0.3569(6) 0.9269(13) 0.7100(6)
H15_2 H 0.207863 0.759381 0.775935
H18_2 H 0.247559 0.823114 0.973965
H19_2 H 0.303593 0.71514 0.684609
H21_2 H 0.0488288 0.832678 0.829676
H23_2 H 0.0480993 0.590696 0.919816
H25_2 H 0.40184 0.90387 0.673924
Br1_2 Br 0.38427(4) 0.62868(11) 0.86488(4)
Br2_2 Br 0.55878(5) 0.56548(17) 0.83187(5)
Br3_2 Br 0.86826(6) 0.99605(11) 0.86469(6)
O1_2 O 0.9155(3) 0.6465(6) 0.9320(4)
O3_2 O 0.6768(3) 0.3422(8) 0.9504(4)
C1_2 C 0.5746(4) 0.4825(8) 0.9870(4)
O4_2 O 0.6932(3) 0.5833(8) 0.9837(4)
C2_2 C 0.4510(3) 0.5493(9) 0.9418(4)
C3_2 C 0.9516(3) 0.8787(7) 0.9926(4)
C4_2 C 0.9452(4) 0.9992(7) 0.9427(4)
C5_2 C 0.5245(4) 0.5310(9) 0.9294(4)
C7_2 C 0.9003(3) 0.7404(8) 0.9804(4)
C9_2 C 0.6551(4) 0.4650(11) 0.9725(4)
Br4 Br 0.98469(5) 0.71575(10) 0.38105(6)
C6 C 0.9935(3) 0.8803(7) 0.4495(4)
Br4_2 Br 0.01531(5) 0.71575(10) 0.11895(6)
C6_2 C 0.0065(3) 0.8803(7) 0.0505(4)
Br8_2 Br 0.98469(5) 0.28425(10) 0.88105(6)
C29_2 C 0.9935(3) 0.1197(7) 0.9495(4)
loop_
_geom_bond_atom_site_label_1
_geom_bond_atom_site_label_2
_geom_bond_site_symmetry_1
_geom_bond_site_symmetry_2
Br8 C29 1_555 1_555
Cd1 O1 1_555 1_555
Br1 C2 1_555 1_555
Br2 C5 1_555 1_555
Br3 C4 1_555 1_555
O1 C7 1_555 1_555
O2 Cd1 1_555 1_555
O3 Cd1 1_555 1_555
C1 C5 1_555 1_555
O4 Cd1 1_555 1_555
N2 Cd1 1_555 1_555
C2 C5 1_555 1_555
C3 C4 1_555 1_555
C7 O2 1_555 1_555
N4 C8 1_555 1_555
C8 N2 1_555 1_555
C9 O3 1_555 1_555
C10 C12 1_555 1_555
C12 C19 1_555 1_555
C15 C10 1_555 1_555
C16 N2 1_555 1_555
C18 N4 1_555 1_555
Br5 C24 1_555 1_555
Br6 C25 1_555 1_555
O5 C26 1_555 1_555
C23 C2 1_555 1_555
O6 C26 1_555 1_555
C24 C1 1_555 1_555
C25 C23 1_555 1_555
C26 C23 1_555 1_555
Cd4 O5 1_555 1_555
N10 Cd1 1_555 1_555
C1 C9 1_555 1_555
O4 C9 1_555 1_555
C3 C7 1_555 1_555
C16 C18 1_555 1_555
O6 Cd4 1_555 1_555
C24 C25 1_555 1_555
C16 H1 1_555 1_555
C8 H4 1_555 1_555
C12 H5 1_555 1_555
C19 H9 1_555 1_555
C10 H13 1_555 1_555
C18 H14 1_555 1_555
Br7 C28 1_555 1_555
O7 C30 1_555 1_555
O8 C30 1_555 1_555
C27 C28 1_555 1_555
C30 C27 1_555 1_555
Cd4 O7 1_555 1_555
N6 Cd4 1_555 1_555
N8 C31 1_555 1_555
C31 N6 1_555 1_555
C32 C34 1_555 1_555
C34 C41 1_555 1_555
C37 C32 1_555 1_555
C38 N6 1_555 1_555
C40 N8 1_555 1_555
N9 Cd4 1_555 1_555
O8 Cd4 1_555 1_555
C38 C40 1_555 1_555
C32 H15 1_555 1_555
C31 H18 1_555 1_555
C34 H19 1_555 1_555
C40 H21 1_555 1_555
C38 H23 1_555 1_555
C41 H25 1_555 1_555
N10 C33 1_555 1_555
N7 C33 1_555 1_555
C35 N7 1_555 1_555
C36 N7 1_555 1_555
C39 C36 1_555 1_555
C43 N10 1_555 1_555
C44 C39 1_555 1_555
C35 C43 1_555 1_555
C36 H16 1_555 1_555
C36 H17 1_555 1_555
C35 H20 1_555 1_555
C33 H22 1_555 1_555
C44 H24 1_555 1_555
C43 H26 1_555 1_555
C42 H27 1_555 1_555
C42 H28 1_555 1_555
N9 C11 1_555 1_555
N3 C11 1_555 1_555
C13 N3 1_555 1_555
C14 N3 1_555 1_555
C17 C14 1_555 1_555
C21 N9 1_555 1_555
C22 C17 1_555 1_555
C13 C21 1_555 1_555
C20 H2 1_555 1_555
C20 H3 1_555 1_555
C13 H6 1_555 1_555
C11 H7 1_555 1_555
C22 H8 1_555 1_555
C21 H10 1_555 1_555
C14 H11 1_555 1_555
C14 H12 1_555 1_555
N1 C11_2 1_555 1_555
N3_2 C11_2 1_555 1_555
C13_2 N3_2 1_555 1_555
C14_2 N3_2 1_555 1_555
C17_2 C14_2 1_555 1_555
C21_2 N1 1_555 1_555
C22_2 C17_2 1_555 1_555
Cd5 N1 1_555 1_555
C13_2 C21_2 1_555 1_555
C20_2 H2_2 1_555 1_555
C20_2 H3_2 1_555 1_555
C13_2 H6_2 1_555 1_555
C11_2 H7_2 1_555 1_555
C22_2 H8_2 1_555 1_555
C21_2 H10_2 1_555 1_555
C14_2 H11_2 1_555 1_555
C14_2 H12_2 1_555 1_555
Br7_2 C28_2 1_555 1_555
O7_2 C30_2 1_555 1_555
C27_2 C28_2 1_555 1_555
C30_2 C27_2 1_555 1_555
Cd5 O7_2 1_555 1_555
O9 Cd5 1_555 1_555
O10 Cd5 1_555 1_555
N4_2 C8_2 1_555 1_555
C8_2 N2_2 1_555 1_555
C10_2 C12_2 1_555 1_555
C12_2 C19_2 1_555 1_555
C15_2 C10_2 1_555 1_555
C16_2 N2_2 1_555 1_555
C18_2 N4_2 1_555 1_555
Br5_2 C24_2 1_555 1_555
Br6_2 C25_2 1_555 1_555
O9 C26_2 1_555 1_555
O10 C26_2 1_555 1_555
C25_2 C23_2 1_555 1_555
C26_2 C23_2 1_555 1_555
C16_2 C18_2 1_555 1_555
C24_2 C25_2 1_555 1_555
C16_2 H1_2 1_555 1_555
C8_2 H4_2 1_555 1_555
C12_2 H5_2 1_555 1_555
C19_2 H9_2 1_555 1_555
C10_2 H13_2 1_555 1_555
C18_2 H14_2 1_555 1_555
N5 C33_2 1_555 1_555
N7_2 C33_2 1_555 1_555
C35_2 N7_2 1_555 1_555
C36_2 N7_2 1_555 1_555
C39_2 C36_2 1_555 1_555
C43_2 N5 1_555 1_555
C44_2 C39_2 1_555 1_555
Cd3 N5 1_555 1_555
C35_2 C43_2 1_555 1_555
C36_2 H16_2 1_555 1_555
C36_2 H17_2 1_555 1_555
C35_2 H20_2 1_555 1_555
C33_2 H22_2 1_555 1_555
C44_2 H24_2 1_555 1_555
C43_2 H26_2 1_555 1_555
C42_2 H27_2 1_555 1_555
C42_2 H28_2 1_555 1_555
N8_2 C31_2 1_555 1_555
C31_2 N6_2 1_555 1_555
C32_2 C34_2 1_555 1_555
C34_2 C41_2 1_555 1_555
C37_2 C32_2 1_555 1_555
C38_2 N6_2 1_555 1_555
C40_2 N8_2 1_555 1_555
C38_2 C40_2 1_555 1_555
C32_2 H15_2 1_555 1_555
C31_2 H18_2 1_555 1_555
C34_2 H19_2 1_555 1_555
C40_2 H21_2 1_555 1_555
C38_2 H23_2 1_555 1_555
C41_2 H25_2 1_555 1_555
Cd3 O1_2 1_555 1_555
Br1_2 C2_2 1_555 1_555
Br2_2 C5_2 1_555 1_555
Br3_2 C4_2 1_555 1_555
O1_2 C7_2 1_555 1_555
O3_2 Cd3 1_555 1_555
C1_2 C5_2 1_555 1_555
O4_2 Cd3 1_555 1_555
C2_2 C5_2 1_555 1_555
C3_2 C4_2 1_555 1_555
C9_2 O3_2 1_555 1_555
C1_2 C9_2 1_555 1_555
O4_2 C9_2 1_555 1_555
C3_2 C7_2 1_555 1_555
Br4 C6 1_555 1_555
Br4_2 C6_2 1_555 1_555
Br8_2 C29_2 1_555 1_555

#END
