
###############################################################################
#
# This file contains modified crystal structure data generated from the
# MOF subset of the Cambridge Structural Database (CSD) v543 
# hosted by the Cambridge Crystallographic Data Centre (CCDC).
#
# This work is licensed under the Creative Commons
# Attribution-NonCommercial-ShareAlike 4.0 International License.
# To view a copy of this license, visit
# http://creativecommons.org/licenses/by-nc-sa/4.0/
# or send a letter to
# Creative Commons, PO Box 1866, Mountain View, CA 94042, USA.
#
# CIF created using the CSD Python API on 29 September 2022
# The structure has been converted into the P1 space group
# The structure has a 3D framework
# The original CSD entry TUPDOZ is in the orthorhombic crystal system
# The framework has been calculated to contain at least 10.0% void space
# The void calculation uses a probe of radius 1.32A, grid spacing 0.4
#
###############################################################################

data_TUPDOZ
_chemical_formula_moiety         '(C72 H48 Cu6 N24 O16)n'
_symmetry_cell_setting           triclinic
_symmetry_space_group_name_H-M   'P 1'
_symmetry_Int_Tables_number      1
_space_group_name_Hall           'P 1'
loop_
_symmetry_equiv_pos_site_id
_symmetry_equiv_pos_as_xyz
1 x,y,z
_cell_length_a                   12.6065(8)
_cell_length_b                   10.1370(10)
_cell_length_c                   17.5701(12)
_cell_angle_alpha                90
_cell_angle_beta                 90
_cell_angle_gamma                90
_cell_volume                     2245.32
loop_
_atom_site_label
_atom_site_type_symbol
_atom_site_fract_x
_atom_site_fract_y
_atom_site_fract_z
N1 N 0.0326(4) 0.0531(5) 0.1635(3)
H1 H 0.0037 0.3858 0.0029
C4 C 0.0248(5) 0.2396(6) 0.0801(4)
H2 H 0.0814 0.2774 0.1062
C9 C 0.1245(4) 0.0758(5) 0.1970(3)
H6 H 0.1745 0.1371 0.1807
Cu3 Cu 0.2500 0.0000 0.33472(4)
N5 N 0.5206(5) 0.0420(7) 0.2025(4)
N6 N 0.3649(3) 0.0021(4) 0.2576(2)
H9 H 0.6261 0.0163 0.0793
C17 C 0.4560(5) 0.0724(9) 0.2574(4)
H11 H 0.4711 0.1370 0.2934
Cu1 Cu 0.7500 0.5000 0.83472(4)
O1 O 0.8532(3) 0.4484(4) 0.91402(19)
O2 O 0.7770(3) 0.2661(4) 0.8747(2)
C1 C 0.8379(4) 0.3243(6) 0.9190(3)
C2 C 0.8929(4) 0.2519(5) 0.9805(3)
H4 H 0.8006 0.0922 0.9766
O3 O 0.6468(3) 0.5516(4) 0.91402(19)
O4 O 0.7230(3) 0.7339(4) 0.8747(2)
C10 C 0.6621(4) 0.6757(6) 0.9190(3)
C11 C 0.6071(4) 0.7481(5) 0.9805(3)
H10 H 0.6994 0.9078 0.9766
N7 N 0.6351(3) 0.5021(4) 0.7576(2)
N8 N 0.8649(3) 0.4979(4) 0.7576(2)
O1_2 O 0.3532(3) 0.0516(4) 0.41402(19)
O2_2 O 0.2770(3) 0.2339(4) 0.3747(2)
N1_2 N 0.5326(4) 0.4469(5) 0.6635(3)
N2 N 0.4794(5) 0.5420(7) 0.7025(4)
C1_2 C 0.3379(4) 0.1757(6) 0.4190(3)
C2_2 C 0.3929(4) 0.2481(5) 0.4805(3)
C3 C 0.4770(4) 0.1954(6) 0.5183(3)
H1_2 H 0.5037 0.1142 0.5029
C4_2 C 0.5248(5) 0.2604(6) 0.5801(4)
H2_2 H 0.5814 0.2226 0.6062
C5 C 0.4855(4) 0.3810(5) 0.6009(3)
C6 C 0.4011(5) 0.4354(7) 0.5638(4)
H3 H 0.3739 0.5163 0.5793
C7 C 0.3566(5) 0.3692(6) 0.5029(4)
H4_2 H 0.3006 0.4078 0.4766
C8 C 0.5440(5) 0.5724(9) 0.7574(4)
H5 H 0.5289 0.6370 0.7934
C9_2 C 0.6245(4) 0.4242(5) 0.6970(3)
H6_2 H 0.6745 0.3629 0.6807
N4 N 0.9674(4) 0.5531(5) 0.6635(3)
H7 H 0.9963 0.8858 0.5029
C13 C 0.9752(5) 0.7396(6) 0.5801(4)
H8 H 0.9186 0.7774 0.6062
C17_2 C 0.9560(5) 0.4276(9) 0.7574(4)
H11_2 H 0.9711 0.3630 0.7934
C18 C 0.8755(4) 0.5758(5) 0.6970(3)
H12 H 0.8255 0.6371 0.6807
N3 N 0.1351(3) 0.9979(4) 0.2576(2)
C8_2 C 0.0440(5) 0.9276(9) 0.2574(4)
H5_2 H 0.0289 0.8630 0.2934
Cu3_2 Cu 0.2500 1.0000 0.33472(4)
C3_2 C 0.9770(4) 0.3046(6) 0.0183(3)
C5_2 C 0.9855(4) 0.1190(5) 0.1009(3)
C6_2 C 0.9011(5) 0.0646(7) 0.0638(4)
C7_2 C 0.8566(5) 0.1308(6) 0.0029(4)
N4_2 N 0.4674(4) 0.9469(5) 0.1635(3)
C12 C 0.5230(4) 0.6954(6) 0.0183(3)
H7_2 H 0.4963 0.6142 0.0029
C13_2 C 0.4752(5) 0.7604(6) 0.0801(4)
H8_2 H 0.4186 0.7226 0.1062
C14 C 0.5145(4) 0.8810(5) 0.1009(3)
C15 C 0.5989(5) 0.9354(7) 0.0638(4)
C16 C 0.6434(5) 0.8692(6) 0.0029(4)
C18_2 C 0.3755(4) 0.9242(5) 0.1970(3)
H12_2 H 0.3255 0.8629 0.1807
O3_2 O 0.1468(3) 0.9484(4) 0.41402(19)
O4_2 O 0.2230(3) 0.7661(4) 0.3747(2)
N5_2 N 0.0206(5) 0.4580(7) 0.7025(4)
C10_2 C 0.1621(4) 0.8243(6) 0.4190(3)
C11_2 C 0.1071(4) 0.7519(5) 0.4805(3)
C12_2 C 0.0230(4) 0.8046(6) 0.5183(3)
C14_2 C 0.0145(4) 0.6190(5) 0.6009(3)
C15_2 C 0.0989(5) 0.5646(7) 0.5638(4)
H9_2 H 0.1261 0.4837 0.5793
C16_2 C 0.1434(5) 0.6308(6) 0.5029(4)
H10_2 H 0.1994 0.5922 0.4766
N2_2 N 0.9794(5) 0.9580(7) 0.2025(4)
H3_2 H 0.8739 0.9837 0.0793
N4_3 N 0.0326(4) 0.4469(5) 0.3365(3)
N6_2 N 0.1351(3) 0.5021(4) 0.2424(2)
H7_3 H 0.0037 0.1142 0.4971
C13_3 C 0.0248(5) 0.2604(6) 0.4199(4)
H8_3 H 0.0814 0.2226 0.3938
C17_3 C 0.0440(5) 0.5724(9) 0.2426(4)
H11_3 H 0.0289 0.6370 0.2066
C18_3 C 0.1245(4) 0.4242(5) 0.3030(3)
H12_3 H 0.1745 0.3629 0.3193
Cu2 Cu 0.2500 0.5000 0.16528(4)
Cu1_2 Cu 0.7500 1.0000 0.66528(4)
O1_3 O 0.6468(3) 0.9484(4) 0.58598(19)
O2_3 O 0.7230(3) 0.7661(4) 0.6253(2)
N1_3 N 0.4674(4) 0.5531(5) 0.3365(3)
N2_3 N 0.5206(5) 0.4580(7) 0.2975(4)
N3_2 N 0.3649(3) 0.4979(4) 0.2424(2)
C1_3 C 0.6621(4) 0.8243(6) 0.5810(3)
C2_3 C 0.6071(4) 0.7519(5) 0.5195(3)
C3_3 C 0.5230(4) 0.8046(6) 0.4817(3)
H1_3 H 0.4963 0.8858 0.4971
C4_3 C 0.4752(5) 0.7396(6) 0.4199(4)
H2_3 H 0.4186 0.7774 0.3938
C5_3 C 0.5145(4) 0.6190(5) 0.3991(3)
C6_3 C 0.5989(5) 0.5646(7) 0.4362(4)
H3_3 H 0.6261 0.4837 0.4207
C7_3 C 0.6434(5) 0.6308(6) 0.4971(4)
H4_3 H 0.6994 0.5922 0.5234
C8_3 C 0.4560(5) 0.4276(9) 0.2426(4)
H5_3 H 0.4711 0.3630 0.2066
C9_3 C 0.3755(4) 0.5758(5) 0.3030(3)
H6_3 H 0.3255 0.6371 0.3193
N8_2 N 0.6351(3) 0.9979(4) 0.7424(2)
O1_4 O 0.1468(3) 0.5516(4) 0.08598(19)
O2_4 O 0.2230(3) 0.7339(4) 0.1253(2)
C1_4 C 0.1621(4) 0.6757(6) 0.0810(3)
C2_4 C 0.1071(4) 0.7481(5) 0.0195(3)
H4_4 H 0.1994 0.9078 0.0234
O3_3 O 0.3532(3) 0.4484(4) 0.08598(19)
O4_3 O 0.2770(3) 0.2661(4) 0.1253(2)
C10_3 C 0.3379(4) 0.3243(6) 0.0810(3)
C11_3 C 0.3929(4) 0.2519(5) 0.0195(3)
H10_3 H 0.3006 0.0922 0.0234
N5_3 N 0.4794(5) 0.9580(7) 0.7975(4)
H9_3 H 0.3739 0.9837 0.9207
C17_4 C 0.5440(5) 0.9276(9) 0.7426(4)
H11_4 H 0.5289 0.8630 0.7066
N1_4 N 0.9674(4) 0.9469(5) 0.8365(3)
H1_4 H 0.9963 0.6142 0.9971
C4_4 C 0.9752(5) 0.7604(6) 0.9199(4)
H2_4 H 0.9186 0.7226 0.8938
C9_4 C 0.8755(4) 0.9242(5) 0.8030(3)
H6_4 H 0.8255 0.8629 0.8193
Cu1_3 Cu 0.7500 0.0000 0.66528(4)
O3_4 O 0.8532(3) 0.0516(4) 0.58598(19)
O4_4 O 0.7770(3) 0.2339(4) 0.6253(2)
N5_4 N 0.9794(5) 0.5420(7) 0.2975(4)
C10_4 C 0.8379(4) 0.1757(6) 0.5810(3)
C11_4 C 0.8929(4) 0.2481(5) 0.5195(3)
C12_3 C 0.9770(4) 0.1954(6) 0.4817(3)
C14_3 C 0.9855(4) 0.3810(5) 0.3991(3)
C15_3 C 0.9011(5) 0.4354(7) 0.4362(4)
H9_4 H 0.8739 0.5163 0.4207
C16_3 C 0.8566(5) 0.3692(6) 0.4971(4)
H10_4 H 0.8006 0.4078 0.5234
N7_2 N 0.8649(3) 0.0021(4) 0.7424(2)
C3_4 C 0.0230(4) 0.6954(6) 0.9817(3)
C5_4 C 0.0145(4) 0.8810(5) 0.8991(3)
C6_4 C 0.0989(5) 0.9354(7) 0.9362(4)
C7_4 C 0.1434(5) 0.8692(6) 0.9971(4)
N4_4 N 0.5326(4) 0.0531(5) 0.8365(3)
C12_4 C 0.4770(4) 0.3046(6) 0.9817(3)
H7_4 H 0.5037 0.3858 0.9971
C13_4 C 0.5248(5) 0.2396(6) 0.9199(4)
H8_4 H 0.5814 0.2774 0.8938
C14_4 C 0.4855(4) 0.1190(5) 0.8991(3)
C15_4 C 0.4011(5) 0.0646(7) 0.9362(4)
C16_4 C 0.3566(5) 0.1308(6) 0.9971(4)
C18_4 C 0.6245(4) 0.0758(5) 0.8030(3)
H12_4 H 0.6745 0.1371 0.8193
C8_4 C 0.9560(5) 0.0724(9) 0.7426(4)
H5_4 H 0.9711 0.1370 0.7066
N2_4 N 0.0206(5) 0.0420(7) 0.7975(4)
H3_4 H 0.1261 0.0163 0.9207
loop_
_geom_bond_atom_site_label_1
_geom_bond_atom_site_label_2
_geom_bond_site_symmetry_1
_geom_bond_site_symmetry_2
H2 C4 1_555 1_555
C9 N1 1_555 1_555
H6 C9 1_555 1_555
N5 C17 1_555 1_555
N6 C17 1_555 1_555
C17 H11 1_555 1_555
Cu3 N6 1_555 1_555
Cu1 O1 1_555 1_555
O1 C1 1_555 1_555
O2 Cu1 1_555 1_555
C1 O2 1_555 1_555
C2 C1 1_555 1_555
O3 Cu1 1_555 1_555
O4 Cu1 1_555 1_555
C10 O3 1_555 1_555
C11 C10 1_555 1_555
N7 Cu1 1_555 1_555
N8 Cu1 1_555 1_555
O4 C10 1_555 1_555
Cu3 O1_2 1_555 1_555
O1_2 C1_2 1_555 1_555
O2_2 Cu3 1_555 1_555
N1_2 N2 1_555 1_555
N2 C8 1_555 1_555
N7 C8 1_555 1_555
C1_2 O2_2 1_555 1_555
C2_2 C1_2 1_555 1_555
C3 C2_2 1_555 1_555
H1_2 C3 1_555 1_555
C4_2 C3 1_555 1_555
H2_2 C4_2 1_555 1_555
C5 N1_2 1_555 1_555
C6 C5 1_555 1_555
H3 C6 1_555 1_555
C7 C2_2 1_555 1_555
H4_2 C7 1_555 1_555
C8 H5 1_555 1_555
C9_2 N1_2 1_555 1_555
H6_2 C9_2 1_555 1_555
N7 C9_2 1_555 1_555
C4_2 C5 1_555 1_555
C6 C7 1_555 1_555
N8 C17_2 1_555 1_555
H8 C13 1_555 1_555
C17_2 H11_2 1_555 1_555
C18 N4 1_555 1_555
H12 C18 1_555 1_555
N8 C18 1_555 1_555
N3 C8_2 1_555 1_555
C8_2 H5_2 1_555 1_555
Cu3_2 N3 1_555 1_555
C6_2 C5_2 1_555 1_555
H7_2 C12 1_555 1_555
C13_2 C12 1_555 1_555
H8_2 C13_2 1_555 1_555
C14 N4_2 1_555 1_555
C15 C14 1_555 1_555
C18_2 N4_2 1_555 1_555
H12_2 C18_2 1_555 1_555
C6_2 C7_2 1_555 1_555
C13_2 C14 1_555 1_555
C15 C16 1_555 1_555
O3_2 Cu3_2 1_555 1_555
O4_2 Cu3_2 1_555 1_555
C10_2 O3_2 1_555 1_555
C11_2 C10_2 1_555 1_555
C12_2 C11_2 1_555 1_555
C15_2 C14_2 1_555 1_555
H9_2 C15_2 1_555 1_555
C16_2 C11_2 1_555 1_555
H10_2 C16_2 1_555 1_555
O4_2 C10_2 1_555 1_555
C15_2 C16_2 1_555 1_555
N6_2 C17_3 1_555 1_555
H8_3 C13_3 1_555 1_555
C17_3 H11_3 1_555 1_555
C18_3 N4_3 1_555 1_555
H12_3 C18_3 1_555 1_555
Cu2 N6_2 1_555 1_555
N6_2 C18_3 1_555 1_555
Cu1_2 O1_3 1_555 1_555
O1_3 C1_3 1_555 1_555
O2_3 Cu1_2 1_555 1_555
N1_3 N2_3 1_555 1_555
N2_3 C8_3 1_555 1_555
N3_2 C8_3 1_555 1_555
C1_3 O2_3 1_555 1_555
C2_3 C1_3 1_555 1_555
C3_3 C2_3 1_555 1_555
H1_3 C3_3 1_555 1_555
C4_3 C3_3 1_555 1_555
H2_3 C4_3 1_555 1_555
C5_3 N1_3 1_555 1_555
C6_3 C5_3 1_555 1_555
H3_3 C6_3 1_555 1_555
C7_3 C2_3 1_555 1_555
H4_3 C7_3 1_555 1_555
C8_3 H5_3 1_555 1_555
C9_3 N1_3 1_555 1_555
H6_3 C9_3 1_555 1_555
Cu2 N3_2 1_555 1_555
N8_2 Cu1_2 1_555 1_555
N3_2 C9_3 1_555 1_555
C4_3 C5_3 1_555 1_555
C6_3 C7_3 1_555 1_555
Cu2 O1_4 1_555 1_555
O1_4 C1_4 1_555 1_555
O2_4 Cu2 1_555 1_555
C1_4 O2_4 1_555 1_555
C2_4 C1_4 1_555 1_555
O3_3 Cu2 1_555 1_555
O4_3 Cu2 1_555 1_555
C10_3 O3_3 1_555 1_555
C11_3 C10_3 1_555 1_555
O4_3 C10_3 1_555 1_555
N5_3 C17_4 1_555 1_555
N8_2 C17_4 1_555 1_555
C17_4 H11_4 1_555 1_555
H2_4 C4_4 1_555 1_555
C9_4 N1_4 1_555 1_555
H6_4 C9_4 1_555 1_555
O3_4 Cu1_3 1_555 1_555
O4_4 Cu1_3 1_555 1_555
C10_4 O3_4 1_555 1_555
C11_4 C10_4 1_555 1_555
C12_3 C11_4 1_555 1_555
C15_3 C14_3 1_555 1_555
H9_4 C15_3 1_555 1_555
C16_3 C11_4 1_555 1_555
H10_4 C16_3 1_555 1_555
N7_2 Cu1_3 1_555 1_555
O4_4 C10_4 1_555 1_555
C15_3 C16_3 1_555 1_555
C6_4 C5_4 1_555 1_555
H7_4 C12_4 1_555 1_555
C13_4 C12_4 1_555 1_555
H8_4 C13_4 1_555 1_555
C14_4 N4_4 1_555 1_555
C15_4 C14_4 1_555 1_555
C18_4 N4_4 1_555 1_555
H12_4 C18_4 1_555 1_555
C6_4 C7_4 1_555 1_555
C13_4 C14_4 1_555 1_555
C15_4 C16_4 1_555 1_555
N7_2 C8_4 1_555 1_555
C8_4 H5_4 1_555 1_555

#END
