
###############################################################################
#
# This file contains modified crystal structure data generated from the
# MOF subset of the Cambridge Structural Database (CSD) v543 
# hosted by the Cambridge Crystallographic Data Centre (CCDC).
#
# This work is licensed under the Creative Commons
# Attribution-NonCommercial-ShareAlike 4.0 International License.
# To view a copy of this license, visit
# http://creativecommons.org/licenses/by-nc-sa/4.0/
# or send a letter to
# Creative Commons, PO Box 1866, Mountain View, CA 94042, USA.
#
# CIF created using the CSD Python API on 29 September 2022
# The structure has been converted into the P1 space group
# The structure has a 3D framework
# The original CSD entry TUPDIT01 is in the orthorhombic crystal system
# The framework has been calculated to contain at least 10.0% void space
# The void calculation uses a probe of radius 1.32A, grid spacing 0.4
#
###############################################################################

data_TUPDIT01
_chemical_formula_moiety         '(C72 H48 Cu6 N24 O16)n'
_symmetry_cell_setting           triclinic
_symmetry_space_group_name_H-M   'P 1'
_symmetry_Int_Tables_number      1
_space_group_name_Hall           'P 1'
loop_
_symmetry_equiv_pos_site_id
_symmetry_equiv_pos_as_xyz
1 x,y,z
_cell_length_a                   12.6285(9)
_cell_length_b                   10.0104(7)
_cell_length_c                   17.6492(10)
_cell_angle_alpha                90
_cell_angle_beta                 90
_cell_angle_gamma                90
_cell_volume                     2231.15
loop_
_atom_site_label
_atom_site_type_symbol
_atom_site_fract_x
_atom_site_fract_y
_atom_site_fract_z
N4 N 0.0317(3) 0.5523(4) 0.83344(19)
N6 N 0.1348(3) 0.4975(3) 0.74110(18)
H7 H 0.0030 0.8870 0.9950
C13 C 0.0228(4) 0.7395(4) 0.9193(3)
H8 H 0.0804 0.7773 0.8944
C17 C 0.0429(4) 0.4288(6) 0.7397(3)
H11 H 0.0274 0.3659 0.7025
C18 C 0.1242(3) 0.5737(4) 0.8018(2)
H12 H 0.1748 0.6337 0.8194
Cu3 Cu 0.2500 0.5000 0.66423(3)
N1 N 0.4683(3) 0.4477(4) 0.83344(19)
N2 N 0.5220(4) 0.5424(5) 0.7943(3)
N3 N 0.3652(3) 0.5025(3) 0.74110(18)
C3 C 0.5239(4) 0.1950(4) 0.9792(3)
H1 H 0.4970 0.1130 0.9950
C4 C 0.4772(4) 0.2605(4) 0.9193(3)
H2 H 0.4196 0.2227 0.8944
C5 C 0.5157(4) 0.3808(4) 0.8969(2)
C6 C 0.5992(5) 0.4376(5) 0.9339(3)
H3 H 0.6250 0.5205 0.9188
C7 C 0.6449(4) 0.3709(5) 0.9937(3)
C8 C 0.4571(4) 0.5712(6) 0.7397(3)
H5 H 0.4726 0.6341 0.7025
C9 C 0.3758(3) 0.4263(4) 0.8018(2)
H6 H 0.3252 0.3663 0.8194
Cu1 Cu 0.7500 1.0000 0.16423(3)
O3 O 0.8535(2) 0.9492(3) 0.08542(14)
O4 O 0.7758(2) 0.7636(3) 0.12234(16)
C10 C 0.8362(3) 0.8250(4) 0.0789(2)
C11 C 0.8909(3) 0.7516(4) 0.0158(2)
H10 H 0.7989 0.5900 0.0195
N7 N 0.8652(3) 0.9975(3) 0.24110(18)
O1 O 0.1465(2) 0.4492(3) 0.58542(14)
O2 O 0.2242(2) 0.2636(3) 0.62234(16)
C1 C 0.1638(3) 0.3250(4) 0.5789(2)
C2 C 0.1091(3) 0.2516(4) 0.5158(2)
C3_2 C 0.0239(4) 0.3050(4) 0.4792(3)
C5_2 C 0.0157(4) 0.1192(4) 0.3969(2)
C6_2 C 0.0992(5) 0.0624(5) 0.4339(3)
C7_2 C 0.1449(4) 0.1291(5) 0.4937(3)
H4 H 0.2011 0.0900 0.5195
O3_2 O 0.3535(2) 0.5508(3) 0.58542(14)
O4_2 O 0.2758(2) 0.7364(3) 0.62234(16)
N4_2 N 0.5317(3) 0.9477(4) 0.33344(19)
C10_2 C 0.3362(3) 0.6750(4) 0.5789(2)
C11_2 C 0.3909(3) 0.7484(4) 0.5158(2)
C12 C 0.4761(4) 0.6950(4) 0.4792(3)
H7_2 H 0.5030 0.6130 0.4950
C13_2 C 0.5228(4) 0.7605(4) 0.4193(3)
H8_2 H 0.5804 0.7227 0.3944
C14 C 0.4843(4) 0.8808(4) 0.3969(2)
C15 C 0.4008(5) 0.9376(5) 0.4339(3)
C16 C 0.3551(4) 0.8709(5) 0.4937(3)
H10_2 H 0.2989 0.9100 0.5195
C18_2 C 0.6242(3) 0.9263(4) 0.3018(2)
H12_2 H 0.6748 0.8663 0.3194
C8_2 C 0.9571(4) 0.9288(6) 0.2397(3)
H5_2 H 0.9726 0.8659 0.2025
Cu1_2 Cu 0.7500 0.0000 0.16423(3)
O1_2 O 0.6465(2) 0.0508(3) 0.08542(14)
O2_2 O 0.7242(2) 0.2364(3) 0.12234(16)
C1_2 C 0.6638(3) 0.1750(4) 0.0789(2)
C2_2 C 0.6091(3) 0.2484(4) 0.0158(2)
H4_2 H 0.7011 0.4100 0.0195
N8 N 0.6348(3) 0.0025(3) 0.24110(18)
N5 N 0.4780(4) 0.0424(5) 0.2943(3)
H9 H 0.3750 0.0205 0.4188
C17_2 C 0.5429(4) 0.0712(6) 0.2397(3)
H11_2 H 0.5274 0.1341 0.2025
N1_2 N 0.9683(3) 0.0523(4) 0.33344(19)
H1_2 H 0.9970 0.3870 0.4950
C4_2 C 0.9772(4) 0.2395(4) 0.4193(3)
H2_2 H 0.9196 0.2773 0.3944
C9_2 C 0.8758(3) 0.0737(4) 0.3018(2)
H6_2 H 0.8252 0.1337 0.3194
N5_2 N 0.9780(4) 0.4576(5) 0.7943(3)
C12_2 C 0.9761(4) 0.8050(4) 0.9792(3)
C14_2 C 0.9843(4) 0.6192(4) 0.8969(2)
C15_2 C 0.9008(5) 0.5624(5) 0.9339(3)
H9_2 H 0.8750 0.4795 0.9188
C16_2 C 0.8551(4) 0.6291(5) 0.9937(3)
N3_2 N 0.1348(3) 0.0025(3) 0.75890(18)
C8_3 C 0.0429(4) 0.0712(6) 0.7603(3)
H5_3 H 0.0274 0.1341 0.7975
Cu2 Cu 0.2500 0.0000 0.83577(3)
Cu1_3 Cu 0.7500 0.5000 0.33577(3)
O1_3 O 0.8535(2) 0.5508(3) 0.41458(14)
O2_3 O 0.7758(2) 0.7364(3) 0.37766(16)
C1_3 C 0.8362(3) 0.6750(4) 0.4211(2)
C2_3 C 0.8909(3) 0.7484(4) 0.4842(2)
C3_3 C 0.9761(4) 0.6950(4) 0.5208(3)
C5_3 C 0.9843(4) 0.8808(4) 0.6031(2)
C6_3 C 0.9008(5) 0.9376(5) 0.5661(3)
C7_3 C 0.8551(4) 0.8709(5) 0.5063(3)
H4_3 H 0.7989 0.9100 0.4805
O3_3 O 0.6465(2) 0.4492(3) 0.41458(14)
O4_3 O 0.7242(2) 0.2636(3) 0.37766(16)
N4_3 N 0.4683(3) 0.0523(4) 0.66656(19)
C10_3 C 0.6638(3) 0.3250(4) 0.4211(2)
C11_3 C 0.6091(3) 0.2516(4) 0.4842(2)
C12_3 C 0.5239(4) 0.3050(4) 0.5208(3)
H7_3 H 0.4970 0.3870 0.5050
C13_3 C 0.4772(4) 0.2395(4) 0.5807(3)
H8_3 H 0.4196 0.2773 0.6056
C14_3 C 0.5157(4) 0.1192(4) 0.6031(2)
C15_3 C 0.5992(5) 0.0624(5) 0.5661(3)
C16_3 C 0.6449(4) 0.1291(5) 0.5063(3)
H10_3 H 0.7011 0.0900 0.4805
C18_3 C 0.3758(3) 0.0737(4) 0.6982(2)
H12_3 H 0.3252 0.1337 0.6806
N7_2 N 0.6348(3) 0.4975(3) 0.25890(18)
N8_2 N 0.8652(3) 0.5025(3) 0.25890(18)
O3_4 O 0.1465(2) 0.0508(3) 0.91458(14)
O4_4 O 0.2242(2) 0.2364(3) 0.87766(16)
C10_4 C 0.1638(3) 0.1750(4) 0.9211(2)
C11_4 C 0.1091(3) 0.2484(4) 0.9842(2)
H10_4 H 0.2011 0.4100 0.9805
N1_3 N 0.5317(3) 0.5523(4) 0.16656(19)
N2_2 N 0.4780(4) 0.4576(5) 0.2057(3)
C3_4 C 0.4761(4) 0.8050(4) 0.0208(3)
H1_3 H 0.5030 0.8870 0.0050
C4_3 C 0.5228(4) 0.7395(4) 0.0807(3)
H2_3 H 0.5804 0.7773 0.1056
C5_4 C 0.4843(4) 0.6192(4) 0.1031(2)
C6_4 C 0.4008(5) 0.5624(5) 0.0661(3)
H3_2 H 0.3750 0.4795 0.0812
C7_4 C 0.3551(4) 0.6291(5) 0.0063(3)
C8_4 C 0.5429(4) 0.4288(6) 0.2603(3)
H5_4 H 0.5274 0.3659 0.2975
C9_3 C 0.6242(3) 0.5737(4) 0.1982(2)
H6_3 H 0.6748 0.6337 0.1806
N4_4 N 0.9683(3) 0.4477(4) 0.16656(19)
H7_4 H 0.9970 0.1130 0.0050
C13_4 C 0.9772(4) 0.2605(4) 0.0807(3)
H8_4 H 0.9196 0.2227 0.1056
C17_3 C 0.9571(4) 0.5712(6) 0.2603(3)
H11_3 H 0.9726 0.6341 0.2975
C18_4 C 0.8758(3) 0.4263(4) 0.1982(2)
H12_4 H 0.8252 0.3663 0.1806
N1_4 N 0.0317(3) 0.9477(4) 0.66656(19)
H1_4 H 0.0030 0.6130 0.5050
C4_4 C 0.0228(4) 0.7605(4) 0.5807(3)
H2_4 H 0.0804 0.7227 0.6056
C9_4 C 0.1242(3) 0.9263(4) 0.6982(2)
H6_4 H 0.1748 0.8663 0.6806
Cu2_2 Cu 0.2500 1.0000 0.83577(3)
N5_3 N 0.5220(4) 0.9576(5) 0.7057(3)
N6_2 N 0.3652(3) 0.9975(3) 0.75890(18)
H9_3 H 0.6250 0.9795 0.5812
C17_4 C 0.4571(4) 0.9288(6) 0.7603(3)
H11_4 H 0.4726 0.8659 0.7975
O1_4 O 0.3535(2) 0.9492(3) 0.91458(14)
O2_4 O 0.2758(2) 0.7636(3) 0.87766(16)
C1_4 C 0.3362(3) 0.8250(4) 0.9211(2)
C2_4 C 0.3909(3) 0.7516(4) 0.9842(2)
H4_4 H 0.2989 0.5900 0.9805
N2_3 N 0.9780(4) 0.0424(5) 0.7057(3)
H3_3 H 0.8750 0.0205 0.5812
N5_4 N 0.0220(4) 0.5424(5) 0.2057(3)
C12_4 C 0.0239(4) 0.1950(4) 0.0208(3)
C14_4 C 0.0157(4) 0.3808(4) 0.1031(2)
C15_4 C 0.0992(5) 0.4376(5) 0.0661(3)
H9_4 H 0.1250 0.5205 0.0812
C16_4 C 0.1449(4) 0.3709(5) 0.0063(3)
N2_4 N 0.0220(4) 0.9576(5) 0.2943(3)
H3_4 H 0.1250 0.9795 0.4188
loop_
_geom_bond_atom_site_label_1
_geom_bond_atom_site_label_2
_geom_bond_site_symmetry_1
_geom_bond_site_symmetry_2
N6 C17 1_555 1_555
H8 C13 1_555 1_555
C17 H11 1_555 1_555
C18 N4 1_555 1_555
H12 C18 1_555 1_555
Cu3 N6 1_555 1_555
N6 C18 1_555 1_555
N1 N2 1_555 1_555
N2 C8 1_555 1_555
N3 C8 1_555 1_555
H1 C3 1_555 1_555
C4 C3 1_555 1_555
H2 C4 1_555 1_555
C5 N1 1_555 1_555
C6 C5 1_555 1_555
H3 C6 1_555 1_555
C8 H5 1_555 1_555
C9 N1 1_555 1_555
H6 C9 1_555 1_555
Cu3 N3 1_555 1_555
N3 C9 1_555 1_555
C4 C5 1_555 1_555
C6 C7 1_555 1_555
O3 Cu1 1_555 1_555
O4 Cu1 1_555 1_555
C10 O3 1_555 1_555
C11 C10 1_555 1_555
N7 Cu1 1_555 1_555
O4 C10 1_555 1_555
Cu3 O1 1_555 1_555
O1 C1 1_555 1_555
O2 Cu3 1_555 1_555
C1 O2 1_555 1_555
C2 C1 1_555 1_555
C3_2 C2 1_555 1_555
C6_2 C5_2 1_555 1_555
C7_2 C2 1_555 1_555
H4 C7_2 1_555 1_555
O3_2 Cu3 1_555 1_555
O4_2 Cu3 1_555 1_555
C10_2 O3_2 1_555 1_555
C11_2 C10_2 1_555 1_555
C12 C11_2 1_555 1_555
H7_2 C12 1_555 1_555
C13_2 C12 1_555 1_555
H8_2 C13_2 1_555 1_555
C14 N4_2 1_555 1_555
C15 C14 1_555 1_555
C16 C11_2 1_555 1_555
H10_2 C16 1_555 1_555
C18_2 N4_2 1_555 1_555
H12_2 C18_2 1_555 1_555
C6_2 C7_2 1_555 1_555
O4_2 C10_2 1_555 1_555
C13_2 C14 1_555 1_555
C15 C16 1_555 1_555
N7 C8_2 1_555 1_555
C8_2 H5_2 1_555 1_555
Cu1_2 O1_2 1_555 1_555
O1_2 C1_2 1_555 1_555
O2_2 Cu1_2 1_555 1_555
C1_2 O2_2 1_555 1_555
C2_2 C1_2 1_555 1_555
N8 Cu1_2 1_555 1_555
N5 C17_2 1_555 1_555
N8 C17_2 1_555 1_555
C17_2 H11_2 1_555 1_555
H2_2 C4_2 1_555 1_555
C9_2 N1_2 1_555 1_555
H6_2 C9_2 1_555 1_555
C15_2 C14_2 1_555 1_555
H9_2 C15_2 1_555 1_555
C15_2 C16_2 1_555 1_555
N3_2 C8_3 1_555 1_555
C8_3 H5_3 1_555 1_555
Cu2 N3_2 1_555 1_555
Cu1_3 O1_3 1_555 1_555
O1_3 C1_3 1_555 1_555
O2_3 Cu1_3 1_555 1_555
C1_3 O2_3 1_555 1_555
C2_3 C1_3 1_555 1_555
C3_3 C2_3 1_555 1_555
C6_3 C5_3 1_555 1_555
C7_3 C2_3 1_555 1_555
H4_3 C7_3 1_555 1_555
O3_3 Cu1_3 1_555 1_555
O4_3 Cu1_3 1_555 1_555
C10_3 O3_3 1_555 1_555
C11_3 C10_3 1_555 1_555
C12_3 C11_3 1_555 1_555
H7_3 C12_3 1_555 1_555
C13_3 C12_3 1_555 1_555
H8_3 C13_3 1_555 1_555
C14_3 N4_3 1_555 1_555
C15_3 C14_3 1_555 1_555
C16_3 C11_3 1_555 1_555
H10_3 C16_3 1_555 1_555
C18_3 N4_3 1_555 1_555
H12_3 C18_3 1_555 1_555
N7_2 Cu1_3 1_555 1_555
N8_2 Cu1_3 1_555 1_555
C6_3 C7_3 1_555 1_555
O4_3 C10_3 1_555 1_555
C13_3 C14_3 1_555 1_555
C15_3 C16_3 1_555 1_555
O3_4 Cu2 1_555 1_555
O4_4 Cu2 1_555 1_555
C10_4 O3_4 1_555 1_555
C11_4 C10_4 1_555 1_555
O4_4 C10_4 1_555 1_555
N1_3 N2_2 1_555 1_555
N2_2 C8_4 1_555 1_555
N7_2 C8_4 1_555 1_555
H1_3 C3_4 1_555 1_555
C4_3 C3_4 1_555 1_555
H2_3 C4_3 1_555 1_555
C5_4 N1_3 1_555 1_555
C6_4 C5_4 1_555 1_555
H3_2 C6_4 1_555 1_555
C8_4 H5_4 1_555 1_555
C9_3 N1_3 1_555 1_555
H6_3 C9_3 1_555 1_555
N7_2 C9_3 1_555 1_555
C4_3 C5_4 1_555 1_555
C6_4 C7_4 1_555 1_555
N8_2 C17_3 1_555 1_555
H8_4 C13_4 1_555 1_555
C17_3 H11_3 1_555 1_555
C18_4 N4_4 1_555 1_555
H12_4 C18_4 1_555 1_555
N8_2 C18_4 1_555 1_555
H2_4 C4_4 1_555 1_555
C9_4 N1_4 1_555 1_555
H6_4 C9_4 1_555 1_555
N5_3 C17_4 1_555 1_555
N6_2 C17_4 1_555 1_555
C17_4 H11_4 1_555 1_555
Cu2_2 N6_2 1_555 1_555
Cu2_2 O1_4 1_555 1_555
O1_4 C1_4 1_555 1_555
O2_4 Cu2_2 1_555 1_555
C1_4 O2_4 1_555 1_555
C2_4 C1_4 1_555 1_555
C15_4 C14_4 1_555 1_555
H9_4 C15_4 1_555 1_555
C15_4 C16_4 1_555 1_555

#END
