
###############################################################################
#
# This file contains modified crystal structure data generated from the
# MOF subset of the Cambridge Structural Database (CSD) v543 
# hosted by the Cambridge Crystallographic Data Centre (CCDC).
#
# This work is licensed under the Creative Commons
# Attribution-NonCommercial-ShareAlike 4.0 International License.
# To view a copy of this license, visit
# http://creativecommons.org/licenses/by-nc-sa/4.0/
# or send a letter to
# Creative Commons, PO Box 1866, Mountain View, CA 94042, USA.
#
# CIF created using the CSD Python API on 29 September 2022
# The structure has been converted into the P1 space group
# The structure has a 3D framework
# The original CSD entry TUPDEP is in the orthorhombic crystal system
# The framework has been calculated to contain at least 10.0% void space
# The void calculation uses a probe of radius 1.32A, grid spacing 0.4
#
###############################################################################

data_TUPDEP
_chemical_formula_moiety         '(C72 H48 Cu6 N24 O16)n'
_symmetry_cell_setting           triclinic
_symmetry_space_group_name_H-M   'P 1'
_symmetry_Int_Tables_number      1
_space_group_name_Hall           'P 1'
loop_
_symmetry_equiv_pos_site_id
_symmetry_equiv_pos_as_xyz
1 x,y,z
_cell_length_a                   12.7307(6)
_cell_length_b                   9.8601(3)
_cell_length_c                   17.6478(10)
_cell_angle_alpha                90
_cell_angle_beta                 90
_cell_angle_gamma                90
_cell_volume                     2215.26
loop_
_atom_site_label
_atom_site_type_symbol
_atom_site_fract_x
_atom_site_fract_y
_atom_site_fract_z
N4 N 0.0319(4) 0.4527(5) 0.1706(2)
N6 N 0.1360(4) 0.5078(4) 0.2626(2)
C13 C 0.0210(5) 0.2602(6) 0.0867(4)
H8 H 0.0779 0.2193 0.1130
C17 C 0.0426(5) 0.5763(7) 0.2673(3)
H11 H 0.0267 0.6389 0.3065
C18 C 0.1263(4) 0.4306(5) 0.2014(3)
H12 H 0.1780 0.3698 0.1826
Cu3 Cu 0.2500 0.5000 0.33992(4)
Cu1 Cu 0.7500 0.0000 0.83992(4)
O3 O 0.8519(3) 0.0513(4) 0.91959(18)
O4 O 0.7759(3) 0.2413(4) 0.8821(2)
C10 C 0.8353(3) 0.1786(5) 0.9250(3)
C11 C 0.8907(4) 0.2524(5) 0.9877(3)
H10 H 0.8007 0.4209 0.9827
N8 N 0.8640(4) 0.0078(4) 0.7626(2)
N1 N 0.4681(4) 0.5473(5) 0.1706(2)
N2 N 0.5226(4) 0.4529(6) 0.2123(3)
N3 N 0.3640(4) 0.4922(4) 0.2626(2)
C3 C 0.5268(5) 0.8054(6) 0.0273(4)
H1 H 0.5025 0.8928 0.0130
C4 C 0.4790(5) 0.7398(6) 0.0867(4)
H2 H 0.4221 0.7807 0.1130
C5 C 0.5151(4) 0.6140(5) 0.1073(3)
C6 C 0.5962(6) 0.5515(7) 0.0692(4)
H3 H 0.6196 0.4636 0.0835
C7 C 0.6430(5) 0.6205(6) 0.0093(4)
C8 C 0.4574(5) 0.4237(7) 0.2673(3)
H5 H 0.4733 0.3611 0.3065
C9 C 0.3737(4) 0.5694(5) 0.2014(3)
H6 H 0.3220 0.6302 0.1826
O1 O 0.3519(3) 0.4487(4) 0.41959(18)
O2 O 0.2759(3) 0.2587(4) 0.3821(2)
N1_2 N 0.5319(4) 0.0473(5) 0.6706(2)
C1 C 0.3353(3) 0.3214(5) 0.4250(3)
C2 C 0.3907(4) 0.2476(5) 0.4877(3)
C3_2 C 0.4732(5) 0.3054(6) 0.5273(4)
H1_2 H 0.4975 0.3928 0.5130
C4_2 C 0.5210(5) 0.2398(6) 0.5867(4)
H2_2 H 0.5779 0.2807 0.6130
C5_2 C 0.4849(4) 0.1140(5) 0.6073(3)
C6_2 C 0.4038(6) 0.0515(7) 0.5692(4)
C7_2 C 0.3570(5) 0.1205(6) 0.5093(4)
H4 H 0.3007 0.0791 0.4827
C9_2 C 0.6263(4) 0.0694(5) 0.7014(3)
H6_2 H 0.6780 0.1302 0.6826
O3_2 O 0.1481(3) 0.5513(4) 0.41959(18)
O4_2 O 0.2241(3) 0.7413(4) 0.3821(2)
C10_2 C 0.1647(3) 0.6786(5) 0.4250(3)
C11_2 C 0.1093(4) 0.7524(5) 0.4877(3)
C12 C 0.0268(5) 0.6946(6) 0.5273(4)
H7 H 0.0025 0.6072 0.5130
C14 C 0.0151(4) 0.8860(5) 0.6073(3)
C15 C 0.0962(6) 0.9485(7) 0.5692(4)
C16 C 0.1430(5) 0.8795(6) 0.5093(4)
H10_2 H 0.1993 0.9209 0.4827
C17_2 C 0.9574(5) 0.0763(7) 0.7673(3)
H11_2 H 0.9733 0.1389 0.8065
N5 N 0.9774(4) 0.5471(6) 0.2123(3)
C12_2 C 0.9732(5) 0.1946(6) 0.0273(4)
H7_2 H 0.9975 0.1072 0.0130
C14_2 C 0.9849(4) 0.3860(5) 0.1073(3)
C15_2 C 0.9038(6) 0.4485(7) 0.0692(4)
H9 H 0.8804 0.5364 0.0835
C16_2 C 0.8570(5) 0.3795(6) 0.0093(4)
Cu1_2 Cu 0.7500 1.0000 0.83992(4)
O1_2 O 0.6481(3) 0.9487(4) 0.91959(18)
O2_2 O 0.7241(3) 0.7587(4) 0.8821(2)
C1_2 C 0.6647(3) 0.8214(5) 0.9250(3)
C2_2 C 0.6093(4) 0.7476(5) 0.9877(3)
H4_2 H 0.6993 0.5791 0.9827
N7 N 0.6360(4) 0.9922(4) 0.7626(2)
N2_2 N 0.4774(4) 0.9529(6) 0.7123(3)
H3_2 H 0.3804 0.9636 0.5835
C8_2 C 0.5426(5) 0.9237(7) 0.7673(3)
H5_2 H 0.5267 0.8611 0.8065
N4_2 N 0.9681(4) 0.9527(5) 0.6706(2)
C13_2 C 0.9790(5) 0.7602(6) 0.5867(4)
H8_2 H 0.9221 0.7193 0.6130
C18_2 C 0.8737(4) 0.9306(5) 0.7014(3)
H12_2 H 0.8220 0.8698 0.6826
N4_3 N 0.0319(4) 0.0473(5) 0.3294(2)
C13_3 C 0.0210(5) 0.2398(6) 0.4133(4)
H8_3 H 0.0779 0.2807 0.3870
C18_3 C 0.1263(4) 0.0694(5) 0.2986(3)
H12_3 H 0.1780 0.1302 0.3174
Cu3_2 Cu 0.2500 0.0000 0.16008(4)
N2_3 N 0.5226(4) 0.0471(6) 0.2877(3)
N3_2 N 0.3640(4) 0.0078(4) 0.2374(2)
H3_3 H 0.6196 0.0364 0.4165
C8_3 C 0.4574(5) 0.0763(7) 0.2327(3)
H5_3 H 0.4733 0.1389 0.1935
O1_3 O 0.3519(3) 0.0513(4) 0.08041(18)
O2_3 O 0.2759(3) 0.2413(4) 0.1179(2)
C1_3 C 0.3353(3) 0.1786(5) 0.0750(3)
C2_3 C 0.3907(4) 0.2524(5) 0.0123(3)
H4_3 H 0.3007 0.4209 0.0173
N6_2 N 0.1360(4) 0.9922(4) 0.2374(2)
C17_3 C 0.0426(5) 0.9237(7) 0.2327(3)
H11_3 H 0.0267 0.8611 0.1935
Cu3_3 Cu 0.2500 1.0000 0.16008(4)
Cu1_3 Cu 0.7500 0.5000 0.66008(4)
O1_4 O 0.6481(3) 0.5513(4) 0.58041(18)
O2_4 O 0.7241(3) 0.7413(4) 0.6179(2)
N1_3 N 0.4681(4) 0.9527(5) 0.3294(2)
C1_4 C 0.6647(3) 0.6786(5) 0.5750(3)
C2_4 C 0.6093(4) 0.7524(5) 0.5123(3)
C3_3 C 0.5268(5) 0.6946(6) 0.4727(4)
H1_3 H 0.5025 0.6072 0.4870
C4_3 C 0.4790(5) 0.7602(6) 0.4133(4)
H2_3 H 0.4221 0.7193 0.3870
C5_3 C 0.5151(4) 0.8860(5) 0.3927(3)
C6_3 C 0.5962(6) 0.9485(7) 0.4308(4)
C7_3 C 0.6430(5) 0.8795(6) 0.4907(4)
H4_4 H 0.6993 0.9209 0.5173
C9_3 C 0.3737(4) 0.9306(5) 0.2986(3)
H6_3 H 0.3220 0.8698 0.3174
O3_3 O 0.8519(3) 0.4487(4) 0.58041(18)
O4_3 O 0.7759(3) 0.2587(4) 0.6179(2)
C10_3 C 0.8353(3) 0.3214(5) 0.5750(3)
C11_3 C 0.8907(4) 0.2476(5) 0.5123(3)
C12_3 C 0.9732(5) 0.3054(6) 0.4727(4)
H7_3 H 0.9975 0.3928 0.4870
C14_3 C 0.9849(4) 0.1140(5) 0.3927(3)
C15_3 C 0.9038(6) 0.0515(7) 0.4308(4)
C16_3 C 0.8570(5) 0.1205(6) 0.4907(4)
H10_3 H 0.8007 0.0791 0.5173
N7_2 N 0.6360(4) 0.5078(4) 0.7374(2)
N8_2 N 0.8640(4) 0.4922(4) 0.7374(2)
N1_4 N 0.5319(4) 0.4527(5) 0.8294(2)
N2_4 N 0.4774(4) 0.5471(6) 0.7877(3)
C3_4 C 0.4732(5) 0.1946(6) 0.9727(4)
H1_4 H 0.4975 0.1072 0.9870
C4_4 C 0.5210(5) 0.2602(6) 0.9133(4)
H2_4 H 0.5779 0.2193 0.8870
C5_4 C 0.4849(4) 0.3860(5) 0.8927(3)
C6_4 C 0.4038(6) 0.4485(7) 0.9308(4)
H3_4 H 0.3804 0.5364 0.9165
C7_4 C 0.3570(5) 0.3795(6) 0.9907(4)
C8_4 C 0.5426(5) 0.5763(7) 0.7327(3)
H5_4 H 0.5267 0.6389 0.6935
C9_4 C 0.6263(4) 0.4306(5) 0.7986(3)
H6_4 H 0.6780 0.3698 0.8174
O3_4 O 0.1481(3) 0.9487(4) 0.08041(18)
O4_4 O 0.2241(3) 0.7587(4) 0.1179(2)
C10_4 C 0.1647(3) 0.8214(5) 0.0750(3)
C11_4 C 0.1093(4) 0.7476(5) 0.0123(3)
H10_4 H 0.1993 0.5791 0.0173
N4_4 N 0.9681(4) 0.5473(5) 0.8294(2)
C13_4 C 0.9790(5) 0.7398(6) 0.9133(4)
H8_4 H 0.9221 0.7807 0.8870
C17_4 C 0.9574(5) 0.4237(7) 0.7327(3)
H11_4 H 0.9733 0.3611 0.6935
C18_4 C 0.8737(4) 0.5694(5) 0.7986(3)
H12_4 H 0.8220 0.6302 0.8174
N5_2 N 0.9774(4) 0.9529(6) 0.2877(3)
H9_2 H 0.8804 0.9636 0.4165
N5_3 N 0.0226(4) 0.4529(6) 0.7877(3)
C12_4 C 0.0268(5) 0.8054(6) 0.9727(4)
H7_4 H 0.0025 0.8928 0.9870
C14_4 C 0.0151(4) 0.6140(5) 0.8927(3)
C15_4 C 0.0962(6) 0.5515(7) 0.9308(4)
H9_3 H 0.1196 0.4636 0.9165
C16_4 C 0.1430(5) 0.6205(6) 0.9907(4)
N5_4 N 0.0226(4) 0.0471(6) 0.7123(3)
H9_4 H 0.1196 0.0364 0.5835
loop_
_geom_bond_atom_site_label_1
_geom_bond_atom_site_label_2
_geom_bond_site_symmetry_1
_geom_bond_site_symmetry_2
N6 C17 1_555 1_555
H8 C13 1_555 1_555
C17 H11 1_555 1_555
C18 N4 1_555 1_555
H12 C18 1_555 1_555
Cu3 N6 1_555 1_555
N6 C18 1_555 1_555
O3 Cu1 1_555 1_555
O4 Cu1 1_555 1_555
C10 O3 1_555 1_555
C11 C10 1_555 1_555
N8 Cu1 1_555 1_555
O4 C10 1_555 1_555
N1 N2 1_555 1_555
N2 C8 1_555 1_555
N3 C8 1_555 1_555
H1 C3 1_555 1_555
C4 C3 1_555 1_555
H2 C4 1_555 1_555
C5 N1 1_555 1_555
C6 C5 1_555 1_555
H3 C6 1_555 1_555
C8 H5 1_555 1_555
C9 N1 1_555 1_555
H6 C9 1_555 1_555
Cu3 N3 1_555 1_555
N3 C9 1_555 1_555
C4 C5 1_555 1_555
C6 C7 1_555 1_555
Cu3 O1 1_555 1_555
O1 C1 1_555 1_555
O2 Cu3 1_555 1_555
C1 O2 1_555 1_555
C2 C1 1_555 1_555
C3_2 C2 1_555 1_555
H1_2 C3_2 1_555 1_555
C4_2 C3_2 1_555 1_555
H2_2 C4_2 1_555 1_555
C5_2 N1_2 1_555 1_555
C6_2 C5_2 1_555 1_555
C7_2 C2 1_555 1_555
H4 C7_2 1_555 1_555
C9_2 N1_2 1_555 1_555
H6_2 C9_2 1_555 1_555
O3_2 Cu3 1_555 1_555
O4_2 Cu3 1_555 1_555
C10_2 O3_2 1_555 1_555
C11_2 C10_2 1_555 1_555
C12 C11_2 1_555 1_555
H7 C12 1_555 1_555
C15 C14 1_555 1_555
C16 C11_2 1_555 1_555
H10_2 C16 1_555 1_555
C4_2 C5_2 1_555 1_555
C6_2 C7_2 1_555 1_555
O4_2 C10_2 1_555 1_555
C15 C16 1_555 1_555
N8 C17_2 1_555 1_555
C17_2 H11_2 1_555 1_555
H7_2 C12_2 1_555 1_555
C15_2 C14_2 1_555 1_555
H9 C15_2 1_555 1_555
C15_2 C16_2 1_555 1_555
Cu1_2 O1_2 1_555 1_555
O1_2 C1_2 1_555 1_555
O2_2 Cu1_2 1_555 1_555
C1_2 O2_2 1_555 1_555
C2_2 C1_2 1_555 1_555
N7 Cu1_2 1_555 1_555
N2_2 C8_2 1_555 1_555
N7 C8_2 1_555 1_555
C8_2 H5_2 1_555 1_555
H8_2 C13_2 1_555 1_555
C18_2 N4_2 1_555 1_555
H12_2 C18_2 1_555 1_555
H8_3 C13_3 1_555 1_555
C18_3 N4_3 1_555 1_555
H12_3 C18_3 1_555 1_555
N2_3 C8_3 1_555 1_555
N3_2 C8_3 1_555 1_555
C8_3 H5_3 1_555 1_555
Cu3_2 N3_2 1_555 1_555
Cu3_2 O1_3 1_555 1_555
O1_3 C1_3 1_555 1_555
O2_3 Cu3_2 1_555 1_555
C1_3 O2_3 1_555 1_555
C2_3 C1_3 1_555 1_555
N6_2 C17_3 1_555 1_555
C17_3 H11_3 1_555 1_555
Cu3_3 N6_2 1_555 1_555
Cu1_3 O1_4 1_555 1_555
O1_4 C1_4 1_555 1_555
O2_4 Cu1_3 1_555 1_555
C1_4 O2_4 1_555 1_555
C2_4 C1_4 1_555 1_555
C3_3 C2_4 1_555 1_555
H1_3 C3_3 1_555 1_555
C4_3 C3_3 1_555 1_555
H2_3 C4_3 1_555 1_555
C5_3 N1_3 1_555 1_555
C6_3 C5_3 1_555 1_555
C7_3 C2_4 1_555 1_555
H4_4 C7_3 1_555 1_555
C9_3 N1_3 1_555 1_555
H6_3 C9_3 1_555 1_555
O3_3 Cu1_3 1_555 1_555
O4_3 Cu1_3 1_555 1_555
C10_3 O3_3 1_555 1_555
C11_3 C10_3 1_555 1_555
C12_3 C11_3 1_555 1_555
H7_3 C12_3 1_555 1_555
C15_3 C14_3 1_555 1_555
C16_3 C11_3 1_555 1_555
H10_3 C16_3 1_555 1_555
N7_2 Cu1_3 1_555 1_555
N8_2 Cu1_3 1_555 1_555
C4_3 C5_3 1_555 1_555
C6_3 C7_3 1_555 1_555
O4_3 C10_3 1_555 1_555
C15_3 C16_3 1_555 1_555
N1_4 N2_4 1_555 1_555
N2_4 C8_4 1_555 1_555
N7_2 C8_4 1_555 1_555
H1_4 C3_4 1_555 1_555
C4_4 C3_4 1_555 1_555
H2_4 C4_4 1_555 1_555
C5_4 N1_4 1_555 1_555
C6_4 C5_4 1_555 1_555
H3_4 C6_4 1_555 1_555
C8_4 H5_4 1_555 1_555
C9_4 N1_4 1_555 1_555
H6_4 C9_4 1_555 1_555
N7_2 C9_4 1_555 1_555
C4_4 C5_4 1_555 1_555
C6_4 C7_4 1_555 1_555
O3_4 Cu3_3 1_555 1_555
O4_4 Cu3_3 1_555 1_555
C10_4 O3_4 1_555 1_555
C11_4 C10_4 1_555 1_555
O4_4 C10_4 1_555 1_555
N8_2 C17_4 1_555 1_555
H8_4 C13_4 1_555 1_555
C17_4 H11_4 1_555 1_555
C18_4 N4_4 1_555 1_555
H12_4 C18_4 1_555 1_555
N8_2 C18_4 1_555 1_555
H7_4 C12_4 1_555 1_555
C15_4 C14_4 1_555 1_555
H9_3 C15_4 1_555 1_555
C15_4 C16_4 1_555 1_555

#END
