
###############################################################################
#
# This file contains modified crystal structure data generated from the
# MOF subset of the Cambridge Structural Database (CSD) v543 
# hosted by the Cambridge Crystallographic Data Centre (CCDC).
#
# This work is licensed under the Creative Commons
# Attribution-NonCommercial-ShareAlike 4.0 International License.
# To view a copy of this license, visit
# http://creativecommons.org/licenses/by-nc-sa/4.0/
# or send a letter to
# Creative Commons, PO Box 1866, Mountain View, CA 94042, USA.
#
# CIF created using the CSD Python API on 29 September 2022
# The structure has been converted into the P1 space group
# The structure has a 3D framework
# The original CSD entry TUPWOT is in the monoclinic crystal system
# The framework has been calculated to contain at least 10.0% void space
# The void calculation uses a probe of radius 1.32A, grid spacing 0.4
#
###############################################################################

data_TUPWOT
_chemical_formula_moiety         '(C352 H328 Co13 N64 O60 S8)n'
_symmetry_cell_setting           triclinic
_symmetry_space_group_name_H-M   'P 1'
_symmetry_Int_Tables_number      1
_space_group_name_Hall           'P 1'
loop_
_symmetry_equiv_pos_site_id
_symmetry_equiv_pos_as_xyz
1 x,y,z
_cell_length_a                   45.490(3)
_cell_length_b                   10.5168(7)
_cell_length_c                   19.0629(13)
_cell_angle_alpha                90
_cell_angle_beta                 100.0450(10)
_cell_angle_gamma                90
_cell_volume                     8980.07
loop_
_atom_site_label
_atom_site_type_symbol
_atom_site_fract_x
_atom_site_fract_y
_atom_site_fract_z
C60 C 0.55949(8) 0.0612(4) 0.0613(2)
H58 H 0.572787 0.128723 0.063026
C61 C 0.54508(7) 0.0401(3) 0.11827(17)
H59 H 0.548383 0.092272 0.158274
H57 H 0.564587 0.000958 0.964165
H35 H 0.516456 0.300807 0.031679
C40 C 0.46460(9) 0.1178(4) 0.00426(19)
H38 H 0.467634 0.169814 0.044317
N11 N 0.50741(5) 0.8955(2) 0.16074(13)
N12 N 0.49963(6) 0.7722(3) 0.06465(15)
C54 C 0.49277(7) 0.7975(3) 0.12892(17)
H51 H 0.479029 0.750454 0.148976
C55 C 0.48691(8) 0.6690(3) 0.0171(2)
H52 H 0.467763 0.644464 0.028721
C56 C 0.50709(8) 0.5546(3) 0.0234(2)
H54 H 0.525859 0.577859 0.009256
H55 H 0.511314 0.526928 0.072620
C57 C 0.52069(7) 0.8611(3) 0.05294(17)
C59 C 0.55454(10) 0.9835(4) 0.0016(2)
C62 C 0.52551(6) 0.9384(3) 0.11354(15)
Co9 Co 0.500000 0.98231(5) 0.250000
Co2 Co 0.500000 0.01769(5) 0.750000
O6 O 0.34357(4) 0.10401(18) 0.58174(12)
O7 O 0.44328(4) 0.07186(19) 0.69579(11)
N7 N 0.49259(5) 0.1045(2) 0.83926(13)
N8 N 0.50037(6) 0.2278(3) 0.93535(15)
H31 H 0.390649 0.031517 0.643138
C36 C 0.50723(7) 0.2025(3) 0.87108(17)
H33 H 0.520971 0.249546 0.851024
C37 C 0.51309(8) 0.3310(3) 0.9829(2)
H34 H 0.532237 0.355536 0.971279
C38 C 0.49291(8) 0.4454(3) 0.9766(2)
H36 H 0.474141 0.422141 0.990744
H37 H 0.488686 0.473072 0.927380
C39 C 0.47931(7) 0.1389(3) 0.94706(17)
C41 C 0.44546(10) 0.0165(4) 0.9984(2)
C44 C 0.47449(6) 0.0616(3) 0.88646(15)
N9 N 0.18490(5) 0.1479(2) 0.44915(12)
N10 N 0.22339(5) 0.0238(2) 0.49291(13)
C47 C 0.19452(6) 0.0523(3) 0.49145(15)
H46 H 0.182444 0.008542 0.517914
C48 C 0.20963(6) 0.1847(3) 0.41948(15)
C49 C 0.21245(7) 0.2768(3) 0.36898(16)
H47 H 0.196429 0.328012 0.349492
C50 C 0.23993(7) 0.2892(3) 0.3489(2)
H48 H 0.242546 0.350656 0.315449
C51 C 0.26391(7) 0.2120(3) 0.3774(2)
H49 H 0.282144 0.223584 0.362583
C52 C 0.26148(7) 0.1197(3) 0.4266(2)
H50 H 0.277509 0.067965 0.445370
C53 C 0.23371(6) 0.1074(3) 0.44690(16)
H53 H 0.483544 0.699193 0.968321
C58 C 0.53540(9) 0.8822(4) 0.99574(19)
H56 H 0.532366 0.830186 0.955683
O14 O 0.65643(4) 0.10401(18) 0.91826(12)
O15 O 0.55672(4) 0.07186(19) 0.80421(11)
H81 H 0.609351 0.031517 0.856862
Co4 Co 0.36074(2) 0.30261(3) 0.57331(2)
Co5 Co 0.63926(2) 0.30261(3) 0.92669(2)
Co8 Co 0.13926(2) 0.19739(3) 0.42669(2)
N20 N 0.50741(5) 0.1045(2) 0.66074(13)
H39 H 0.435413 0.999042 0.035835
N15 N 0.65080(6) 0.1820(2) 0.14111(13)
N16 N 0.63738(5) 0.2715(2) 0.03478(12)
H72 H 0.625567 0.009343 0.211716
C73 C 0.66452(8) 0.0889(3) 0.19401(17)
H73 H 0.669388 0.129886 0.240177
H74 H 0.682961 0.058259 0.181050
C74 C 0.65508(6) 0.1898(3) 0.07318(15)
H75 H 0.669239 0.141764 0.055190
C75 C 0.62795(7) 0.2644(3) 0.14795(15)
C76 C 0.61462(8) 0.2955(4) 0.20586(17)
H76 H 0.620474 0.257223 0.250065
C77 C 0.59247(8) 0.3851(4) 0.19489(18)
H77 H 0.583203 0.408994 0.232665
C78 C 0.58344(8) 0.4416(4) 0.12817(19)
H78 H 0.568158 0.501436 0.122501
C79 C 0.59667(7) 0.4106(3) 0.07051(17)
H79 H 0.590550 0.448294 0.026237
C80 C 0.61949(6) 0.3210(3) 0.08114(14)
S1 S 0.33355(2) 0.97178(7) 0.57488(4)
O1 O 0.40823(5) 0.2477(2) 0.59415(12)
H1 H 0.4179(7) 0.197(3) 0.6232(16)
H2 H 0.4154(7) 0.321(2) 0.6031(18)
O2 O 0.37246(4) 0.49340(18) 0.56363(10)
O3 O 0.42042(5) 0.49126(19) 0.61462(14)
O4 O 0.32093(5) 0.9376(2) 0.50269(12)
O5 O 0.31524(5) 0.9368(2) 0.62644(12)
O8 O 0.46836(4) 0.89183(19) 0.71527(11)
N3 N 0.34920(6) 0.1820(2) 0.35889(13)
N4 N 0.36262(5) 0.2715(2) 0.46522(12)
N5 N 0.31510(5) 0.3521(2) 0.55085(12)
N6 N 0.27661(5) 0.4762(2) 0.50709(13)
H13 H 0.374433 0.009343 0.288284
C11 C 0.33548(8) 0.0889(3) 0.30599(17)
H14 H 0.330612 0.129886 0.259823
H15 H 0.317039 0.058259 0.318950
C12 C 0.34492(6) 0.1898(3) 0.42682(15)
H16 H 0.330761 0.141764 0.444810
C13 C 0.37205(7) 0.2644(3) 0.35205(15)
C14 C 0.38538(8) 0.2955(4) 0.29414(17)
H17 H 0.379526 0.257223 0.249935
C15 C 0.40753(8) 0.3851(4) 0.30511(18)
H18 H 0.416797 0.408994 0.267335
C16 C 0.41656(8) 0.4416(4) 0.37183(19)
H19 H 0.431842 0.501436 0.377499
C17 C 0.40333(7) 0.4106(3) 0.42949(17)
H20 H 0.409450 0.448294 0.473763
C18 C 0.38051(6) 0.3210(3) 0.41886(14)
C19 C 0.25861(7) 0.6945(3) 0.51949(18)
H21 H 0.278678 0.721895 0.539533
H22 H 0.248878 0.667544 0.558404
C20 C 0.26017(7) 0.5834(3) 0.46960(17)
H23 H 0.240091 0.556326 0.449386
H24 H 0.269971 0.610318 0.430802
C21 C 0.30548(6) 0.4477(3) 0.50855(15)
H25 H 0.317556 0.491458 0.482086
C22 C 0.29037(6) 0.3153(3) 0.58052(15)
C23 C 0.28755(7) 0.2232(3) 0.63102(16)
H26 H 0.303571 0.171988 0.650508
C24 C 0.26007(7) 0.2108(3) 0.6511(2)
H27 H 0.257454 0.149344 0.684551
C25 C 0.23609(7) 0.2880(3) 0.6226(2)
H28 H 0.217856 0.276416 0.637417
C26 C 0.23852(7) 0.3803(3) 0.5734(2)
H29 H 0.222491 0.432035 0.554630
C27 C 0.26629(6) 0.3926(3) 0.55310(16)
C28 C 0.39603(6) 0.5461(3) 0.59373(15)
C29 C 0.39477(6) 0.6875(3) 0.60556(14)
C30 C 0.41981(6) 0.7524(3) 0.64028(14)
H30 H 0.437674 0.708824 0.654032
C31 C 0.41837(6) 0.8806(3) 0.65449(14)
C32 C 0.39176(6) 0.9452(3) 0.63335(14)
C33 C 0.36699(6) 0.8829(3) 0.59806(14)
C34 C 0.36823(6) 0.7542(3) 0.58424(14)
H32 H 0.351378 0.712072 0.560735
C35 C 0.44481(6) 0.9549(3) 0.69068(14)
C42 C 0.44051(8) 0.9388(4) 0.9387(2)
H40 H 0.427213 0.871277 0.936974
C43 C 0.45492(7) 0.9599(3) 0.88173(17)
H41 H 0.451617 0.907728 0.841726
C45 C 0.24139(7) 0.8055(3) 0.48051(18)
H42 H 0.221322 0.778105 0.460467
H43 H 0.251122 0.832456 0.441596
C46 C 0.23983(7) 0.9166(3) 0.53040(17)
H44 H 0.259909 0.943674 0.550614
H45 H 0.230029 0.889682 0.569198
S2 S 0.66645(2) 0.97178(7) 0.92512(4)
O9 O 0.59177(5) 0.2477(2) 0.90585(12)
H60 H 0.5821(7) 0.197(3) 0.8768(16)
H61 H 0.5846(7) 0.321(2) 0.8969(18)
O10 O 0.62754(4) 0.49340(18) 0.93637(10)
O11 O 0.57958(5) 0.49126(19) 0.88538(14)
O12 O 0.67907(5) 0.9376(2) 0.99731(12)
O13 O 0.68476(5) 0.9368(2) 0.87356(12)
O16 O 0.53164(4) 0.89183(19) 0.78473(11)
C81 C 0.60397(6) 0.5461(3) 0.90627(15)
C82 C 0.60523(6) 0.6875(3) 0.89444(14)
C83 C 0.58019(6) 0.7524(3) 0.85972(14)
H80 H 0.562326 0.708824 0.845968
C84 C 0.58163(6) 0.8806(3) 0.84551(14)
C85 C 0.60824(6) 0.9452(3) 0.86665(14)
C86 C 0.63301(6) 0.8829(3) 0.90194(14)
C87 C 0.63177(6) 0.7542(3) 0.91576(14)
H82 H 0.648622 0.712072 0.939265
C88 C 0.55519(6) 0.9549(3) 0.80932(14)
N17 N 0.63595(5) 0.3372(2) 0.81510(12)
N18 N 0.36405(5) 0.3372(2) 0.68490(12)
N19 N 0.68490(5) 0.3521(2) 0.94915(12)
N13 N 0.63595(5) 0.6628(2) 0.31510(12)
N14 N 0.62584(6) 0.7119(2) 0.19983(12)
C63 C 0.69036(8) 0.4431(3) 0.2534(2)
H62 H 0.704581 0.380644 0.268140
C64 C 0.67494(7) 0.4959(3) 0.30236(17)
H63 H 0.678292 0.469051 0.349575
C65 C 0.65425(7) 0.5903(3) 0.27894(15)
C66 C 0.61960(7) 0.7316(3) 0.26552(15)
H64 H 0.605102 0.788494 0.274847
C67 C 0.64855(7) 0.6237(3) 0.20692(15)
C68 C 0.66406(8) 0.5704(4) 0.15774(18)
H65 H 0.660288 0.594364 0.110058
C69 C 0.68510(9) 0.4811(4) 0.1824(2)
H66 H 0.696211 0.444841 0.151014
C70 C 0.61521(8) 0.7920(3) 0.13777(16)
H67 H 0.595771 0.826451 0.141598
H68 H 0.612975 0.740577 0.094923
C71 C 0.63650(9) 0.8996(3) 0.13197(18)
H69 H 0.627764 0.954860 0.093167
H70 H 0.654805 0.864874 0.120295
C72 C 0.64399(9) 0.9776(3) 0.19920(17)
H71 H 0.653279 0.922456 0.237542
Co6 Co 0.63926(2) 0.69739(3) 0.42669(2)
N1 N 0.36405(5) 0.6628(2) 0.18490(12)
N2 N 0.37416(6) 0.7119(2) 0.30017(12)
C1 C 0.30964(8) 0.4431(3) 0.2466(2)
H3 H 0.295419 0.380644 0.231860
C2 C 0.32506(7) 0.4959(3) 0.19764(17)
H4 H 0.321708 0.469051 0.150425
C3 C 0.34575(7) 0.5903(3) 0.22106(15)
C4 C 0.38040(7) 0.7316(3) 0.23448(15)
H5 H 0.394898 0.788494 0.225153
C5 C 0.35145(7) 0.6237(3) 0.29308(15)
C6 C 0.33594(8) 0.5704(4) 0.34226(18)
H6 H 0.339712 0.594364 0.389942
C7 C 0.31490(9) 0.4811(4) 0.3176(2)
H7 H 0.303789 0.444841 0.348986
C8 C 0.38479(8) 0.7920(3) 0.36223(16)
H8 H 0.404229 0.826451 0.358402
H9 H 0.387025 0.740577 0.405077
C9 C 0.36350(9) 0.8996(3) 0.36803(18)
H10 H 0.372236 0.954860 0.406833
H11 H 0.345195 0.864874 0.379705
C10 C 0.35601(9) 0.9776(3) 0.30080(17)
H12 H 0.346721 0.922456 0.262458
Co7 Co 0.36074(2) 0.69739(3) 0.07331(2)
H57_2 H 0.435413 0.000958 0.535835
C60_2 C 0.44051(8) 0.0612(4) 0.4387(2)
H58_2 H 0.427213 0.128723 0.436974
C61_2 C 0.45492(7) 0.0401(3) 0.38173(17)
H59_2 H 0.451617 0.092272 0.341726
N9_2 N 0.81510(5) 0.1479(2) 0.05085(12)
N10_2 N 0.77661(5) 0.0238(2) 0.00709(13)
C47_2 C 0.80548(6) 0.0523(3) 0.00855(15)
C48_2 C 0.79037(6) 0.1847(3) 0.08052(15)
C49_2 C 0.78755(7) 0.2768(3) 0.13102(16)
H47_2 H 0.803571 0.328012 0.150508
C50_2 C 0.76007(7) 0.2892(3) 0.1511(2)
H48_2 H 0.757454 0.350656 0.184551
C51_2 C 0.73609(7) 0.2120(3) 0.1226(2)
H49_2 H 0.717856 0.223584 0.137417
C52_2 C 0.73852(7) 0.1197(3) 0.0734(2)
H50_2 H 0.722491 0.067965 0.054630
C53_2 C 0.76629(6) 0.1074(3) 0.05310(16)
Co8_2 Co 0.86074(2) 0.19739(3) 0.07331(2)
N8_2 N 0.49963(6) 0.2278(3) 0.56465(15)
C36_2 C 0.49277(7) 0.2025(3) 0.62892(17)
H33_2 H 0.479029 0.249546 0.648976
C37_2 C 0.48691(8) 0.3310(3) 0.5171(2)
H34_2 H 0.467763 0.355536 0.528721
H35_2 H 0.483544 0.300807 0.468321
C38_2 C 0.50709(8) 0.4454(3) 0.5234(2)
H36_2 H 0.525859 0.422141 0.509256
H37_2 H 0.511314 0.473072 0.572620
C39_2 C 0.52069(7) 0.1389(3) 0.55294(17)
C40_2 C 0.53540(9) 0.1178(4) 0.49574(19)
H38_2 H 0.532366 0.169814 0.455683
C41_2 C 0.55454(10) 0.0165(4) 0.5016(2)
C44_2 C 0.52551(6) 0.0616(3) 0.61354(15)
H46_2 H 0.817556 0.008542 0.982086
N11_2 N 0.49259(5) 0.8955(2) 0.33926(13)
N12_2 N 0.50037(6) 0.7722(3) 0.43535(15)
C54_2 C 0.50723(7) 0.7975(3) 0.37108(17)
H51_2 H 0.520971 0.750454 0.351024
C55_2 C 0.51309(8) 0.6690(3) 0.4829(2)
H52_2 H 0.532237 0.644464 0.471279
H53_2 H 0.516456 0.699193 0.531679
C56_2 C 0.49291(8) 0.5546(3) 0.4766(2)
H54_2 H 0.474141 0.577859 0.490744
H55_2 H 0.488686 0.526928 0.427380
C57_2 C 0.47931(7) 0.8611(3) 0.44706(17)
C58_2 C 0.46460(9) 0.8822(4) 0.50426(19)
H56_2 H 0.467634 0.830186 0.544317
C59_2 C 0.44546(10) 0.9835(4) 0.4984(2)
C62_2 C 0.47449(6) 0.9384(3) 0.38646(15)
C20_2 C 0.73983(7) 0.5834(3) 0.03040(17)
H23_2 H 0.759909 0.556326 0.050614
H24_2 H 0.730029 0.610318 0.069198
H25_2 H 0.682444 0.491458 0.017914
C45_2 C 0.75861(7) 0.8055(3) 0.01949(18)
H42_2 H 0.778678 0.778105 0.039533
H43_2 H 0.748878 0.832456 0.058404
N6_2 N 0.72339(5) 0.4762(2) 0.99291(13)
C19_2 C 0.74139(7) 0.6945(3) 0.98051(18)
H21_2 H 0.721322 0.721895 0.960467
H22_2 H 0.751122 0.667544 0.941596
C21_2 C 0.69452(6) 0.4477(3) 0.99145(15)
C22_2 C 0.70963(6) 0.3153(3) 0.91948(15)
C23_2 C 0.71245(7) 0.2232(3) 0.86898(16)
H26_2 H 0.696429 0.171988 0.849492
C24_2 C 0.73993(7) 0.2108(3) 0.8489(2)
H27_2 H 0.742546 0.149344 0.815449
C25_2 C 0.76391(7) 0.2880(3) 0.8774(2)
H28_2 H 0.782144 0.276416 0.862583
C26_2 C 0.76148(7) 0.3803(3) 0.9266(2)
H29_2 H 0.777509 0.432035 0.945370
C27_2 C 0.73371(6) 0.3926(3) 0.94690(16)
H39_2 H 0.564587 0.999042 0.464165
C42_2 C 0.55949(8) 0.9388(4) 0.5613(2)
H40_2 H 0.572787 0.871277 0.563026
C43_2 C 0.54508(7) 0.9599(3) 0.61827(17)
H41_2 H 0.548383 0.907728 0.658274
C46_2 C 0.76017(7) 0.9166(3) 0.96960(17)
H44_2 H 0.740091 0.943674 0.949386
H45_2 H 0.769971 0.889682 0.930802
N11_3 N 0.00741(5) 0.3955(2) 0.16074(13)
C56_3 C 0.00709(8) 0.0546(3) 0.0234(2)
H54_3 H 0.025859 0.077859 0.009256
H55_3 H 0.011314 0.026928 0.072620
C57_3 C 0.02069(7) 0.3611(3) 0.05294(17)
C59_3 C 0.05454(10) 0.4835(4) 0.0016(2)
C60_3 C 0.05949(8) 0.5612(4) 0.0613(2)
H58_3 H 0.072787 0.628723 0.063026
C61_3 C 0.04508(7) 0.5401(3) 0.11827(17)
H59_3 H 0.048383 0.592272 0.158274
C62_3 C 0.02551(6) 0.4384(3) 0.11354(15)
Co9_2 Co -0.000000 0.48231(5) 0.250000
H35_3 H 0.016456 0.800807 0.031679
H78_2 H 0.068158 0.001436 0.122501
Co2_2 Co -0.000000 0.51769(5) 0.750000
N8_3 N 0.00037(6) 0.7278(3) 0.93535(15)
C36_3 C 0.00723(7) 0.7025(3) 0.87108(17)
H33_3 H 0.020971 0.749546 0.851024
C37_3 C 0.01309(8) 0.8310(3) 0.9829(2)
H34_3 H 0.032237 0.855536 0.971279
S2_2 S 0.16645(2) 0.47178(7) 0.92512(4)
O12_2 O 0.17907(5) 0.4376(2) 0.99731(12)
O13_2 O 0.18476(5) 0.4368(2) 0.87356(12)
O14_2 O 0.15643(4) 0.60401(18) 0.91826(12)
O15_2 O 0.05672(4) 0.57186(19) 0.80421(11)
O16_2 O 0.03164(4) 0.39183(19) 0.78473(11)
C81_2 C 0.10397(6) 0.0461(3) 0.90627(15)
C82_2 C 0.10523(6) 0.1875(3) 0.89444(14)
C83_2 C 0.08019(6) 0.2524(3) 0.85972(14)
H80_2 H 0.062326 0.208824 0.845968
C84_2 C 0.08163(6) 0.3806(3) 0.84551(14)
C85_2 C 0.10824(6) 0.4452(3) 0.86665(14)
H81_2 H 0.109351 0.531517 0.856862
C86_2 C 0.13301(6) 0.3829(3) 0.90194(14)
C87_2 C 0.13177(6) 0.2542(3) 0.91576(14)
H82_2 H 0.148622 0.212072 0.939265
C88_2 C 0.05519(6) 0.4549(3) 0.80932(14)
Co5_2 Co 0.13926(2) 0.80261(3) 0.92669(2)
N20_2 N 0.00741(5) 0.6045(2) 0.66074(13)
N13_2 N 0.13595(5) 0.1628(2) 0.31510(12)
N14_2 N 0.12584(6) 0.2119(2) 0.19983(12)
N15_2 N 0.15080(6) 0.6820(2) 0.14111(13)
N16_2 N 0.13738(5) 0.7715(2) 0.03478(12)
C65_2 C 0.15425(7) 0.0903(3) 0.27894(15)
C66_2 C 0.11960(7) 0.2316(3) 0.26552(15)
H64_2 H 0.105102 0.288494 0.274847
C67_2 C 0.14855(7) 0.1237(3) 0.20692(15)
C68_2 C 0.16406(8) 0.0704(4) 0.15774(18)
H65_2 H 0.160288 0.094364 0.110058
C70_2 C 0.11521(8) 0.2920(3) 0.13777(16)
H67_2 H 0.095771 0.326451 0.141598
H68_2 H 0.112975 0.240577 0.094923
C71_2 C 0.13650(9) 0.3996(3) 0.13197(18)
H69_2 H 0.127764 0.454860 0.093167
H70_2 H 0.154805 0.364874 0.120295
C72_2 C 0.14399(9) 0.4776(3) 0.19920(17)
H71_2 H 0.153279 0.422456 0.237542
H72_2 H 0.125567 0.509343 0.211716
C73_2 C 0.16452(8) 0.5889(3) 0.19401(17)
H73_2 H 0.169388 0.629886 0.240177
H74_2 H 0.182961 0.558259 0.181050
C74_2 C 0.15508(6) 0.6898(3) 0.07318(15)
H75_2 H 0.169239 0.641764 0.055190
C75_2 C 0.12795(7) 0.7644(3) 0.14795(15)
C76_2 C 0.11462(8) 0.7955(4) 0.20586(17)
H76_2 H 0.120474 0.757223 0.250065
C77_2 C 0.09247(8) 0.8851(4) 0.19489(18)
H77_2 H 0.083203 0.908994 0.232665
C78_2 C 0.08344(8) 0.9416(4) 0.12817(19)
C79_2 C 0.09667(7) 0.9106(3) 0.07051(17)
H79_2 H 0.090550 0.948294 0.026237
C80_2 C 0.11949(6) 0.8210(3) 0.08114(14)
O9_2 O 0.09177(5) 0.7477(2) 0.90585(12)
H60_2 H 0.0821(7) 0.697(3) 0.8768(16)
H61_2 H 0.0846(7) 0.821(2) 0.8969(18)
O10_2 O 0.12754(4) 0.99340(18) 0.93637(10)
O11_2 O 0.07958(5) 0.99126(19) 0.88538(14)
N17_2 N 0.13595(5) 0.8372(2) 0.81510(12)
N19_2 N 0.18490(5) 0.8521(2) 0.94915(12)
N12_3 N 0.99963(6) 0.2722(3) 0.06465(15)
C54_3 C 0.99277(7) 0.2975(3) 0.12892(17)
H51_3 H 0.979029 0.250454 0.148976
C55_3 C 0.98691(8) 0.1690(3) 0.0171(2)
H52_3 H 0.967763 0.144464 0.028721
Co9_3 Co 1.000000 0.48231(5) 0.250000
H53_3 H 0.983544 0.199193 0.968321
Co2_3 Co 1.000000 0.51769(5) 0.750000
S1_2 S 0.83355(2) 0.47178(7) 0.57488(4)
O4_2 O 0.82093(5) 0.4376(2) 0.50269(12)
O5_2 O 0.81524(5) 0.4368(2) 0.62644(12)
O6_2 O 0.84357(4) 0.60401(18) 0.58174(12)
O7_2 O 0.94328(4) 0.57186(19) 0.69579(11)
O8_2 O 0.96836(4) 0.39183(19) 0.71527(11)
N7_2 N 0.99259(5) 0.6045(2) 0.83926(13)
H19_2 H 0.931842 0.001436 0.377499
C19_3 C 0.75861(7) 0.1945(3) 0.51949(18)
H21_3 H 0.778678 0.221895 0.539533
H22_3 H 0.748878 0.167544 0.558404
C20_3 C 0.76017(7) 0.0834(3) 0.46960(17)
H23_3 H 0.740091 0.056326 0.449386
H24_3 H 0.769971 0.110318 0.430802
C28_2 C 0.89603(6) 0.0461(3) 0.59373(15)
C29_2 C 0.89477(6) 0.1875(3) 0.60556(14)
C30_2 C 0.91981(6) 0.2524(3) 0.64028(14)
H30_2 H 0.937674 0.208824 0.654032
C31_2 C 0.91837(6) 0.3806(3) 0.65449(14)
C32_2 C 0.89176(6) 0.4452(3) 0.63335(14)
H31_2 H 0.890649 0.531517 0.643138
C33_2 C 0.86699(6) 0.3829(3) 0.59806(14)
C34_2 C 0.86823(6) 0.2542(3) 0.58424(14)
H32_2 H 0.851378 0.212072 0.560735
C35_2 C 0.94481(6) 0.4549(3) 0.69068(14)
C38_3 C 0.99291(8) 0.9454(3) 0.9766(2)
H36_3 H 0.974141 0.922141 0.990744
H37_3 H 0.988686 0.973072 0.927380
C39_3 C 0.97931(7) 0.6389(3) 0.94706(17)
C41_3 C 0.94546(10) 0.5165(4) 0.9984(2)
C42_3 C 0.94051(8) 0.4388(4) 0.9387(2)
H40_3 H 0.927213 0.371277 0.936974
C43_3 C 0.95492(7) 0.4599(3) 0.88173(17)
H41_3 H 0.951617 0.407728 0.841726
C44_3 C 0.97449(6) 0.5616(3) 0.88646(15)
N9_3 N 0.68490(5) 0.6479(2) 0.44915(12)
N10_3 N 0.72339(5) 0.5238(2) 0.49291(13)
C45_3 C 0.74139(7) 0.3055(3) 0.48051(18)
H42_3 H 0.721322 0.278105 0.460467
H43_3 H 0.751122 0.332456 0.441596
C46_3 C 0.73983(7) 0.4166(3) 0.53040(17)
H44_3 H 0.759909 0.443674 0.550614
H45_3 H 0.730029 0.389682 0.569198
C47_3 C 0.69452(6) 0.5523(3) 0.49145(15)
H46_3 H 0.682444 0.508542 0.517914
C48_3 C 0.70963(6) 0.6847(3) 0.41948(15)
C49_3 C 0.71245(7) 0.7768(3) 0.36898(16)
H47_3 H 0.696429 0.828012 0.349492
C50_3 C 0.73993(7) 0.7892(3) 0.3489(2)
H48_3 H 0.742546 0.850656 0.315449
C51_3 C 0.76391(7) 0.7120(3) 0.3774(2)
H49_3 H 0.782144 0.723584 0.362583
C52_3 C 0.76148(7) 0.6197(3) 0.4266(2)
H50_3 H 0.777509 0.567965 0.445370
C53_3 C 0.73371(6) 0.6074(3) 0.44690(16)
Co4_2 Co 0.86074(2) 0.80261(3) 0.57331(2)
O1_2 O 0.90823(5) 0.7477(2) 0.59415(12)
H1_2 H 0.9179(7) 0.697(3) 0.6232(16)
H2_2 H 0.9154(7) 0.821(2) 0.6031(18)
O2_2 O 0.87246(4) 0.99340(18) 0.56363(10)
O3_2 O 0.92042(5) 0.99126(19) 0.61462(14)
N1_2 N 0.86405(5) 0.1628(2) 0.18490(12)
N2_2 N 0.87416(6) 0.2119(2) 0.30017(12)
N3_2 N 0.84920(6) 0.6820(2) 0.35889(13)
N4_2 N 0.86262(5) 0.7715(2) 0.46522(12)
N5_2 N 0.81510(5) 0.8521(2) 0.55085(12)
N6_3 N 0.77661(5) 0.9762(2) 0.50709(13)
C3_2 C 0.84575(7) 0.0903(3) 0.22106(15)
C4_2 C 0.88040(7) 0.2316(3) 0.23448(15)
H5_2 H 0.894898 0.288494 0.225153
C5_2 C 0.85145(7) 0.1237(3) 0.29308(15)
C6_2 C 0.83594(8) 0.0704(4) 0.34226(18)
H6_2 H 0.839712 0.094364 0.389942
C8_2 C 0.88479(8) 0.2920(3) 0.36223(16)
H8_2 H 0.904229 0.326451 0.358402
H9_2 H 0.887025 0.240577 0.405077
C9_2 C 0.86350(9) 0.3996(3) 0.36803(18)
H10_2 H 0.872236 0.454860 0.406833
H11_2 H 0.845195 0.364874 0.379705
C10_2 C 0.85601(9) 0.4776(3) 0.30080(17)
H12_2 H 0.846721 0.422456 0.262458
H13_2 H 0.874433 0.509343 0.288284
C11_2 C 0.83548(8) 0.5889(3) 0.30599(17)
H14_2 H 0.830612 0.629886 0.259823
H15_2 H 0.817039 0.558259 0.318950
C12_2 C 0.84492(6) 0.6898(3) 0.42682(15)
H16_2 H 0.830761 0.641764 0.444810
C13_2 C 0.87205(7) 0.7644(3) 0.35205(15)
C14_2 C 0.88538(8) 0.7955(4) 0.29414(17)
H17_2 H 0.879526 0.757223 0.249935
C15_2 C 0.90753(8) 0.8851(4) 0.30511(18)
H18_2 H 0.916797 0.908994 0.267335
C16_2 C 0.91656(8) 0.9416(4) 0.37183(19)
C17_2 C 0.90333(7) 0.9106(3) 0.42949(17)
H20_2 H 0.909450 0.948294 0.473763
C18_2 C 0.88051(6) 0.8210(3) 0.41886(14)
C21_3 C 0.80548(6) 0.9477(3) 0.50855(15)
H25_3 H 0.817556 0.991458 0.482086
C22_3 C 0.79037(6) 0.8153(3) 0.58052(15)
C23_3 C 0.78755(7) 0.7232(3) 0.63102(16)
H26_3 H 0.803571 0.671988 0.650508
C24_3 C 0.76007(7) 0.7108(3) 0.6511(2)
H27_3 H 0.757454 0.649344 0.684551
C25_3 C 0.73609(7) 0.7880(3) 0.6226(2)
H28_3 H 0.717856 0.776416 0.637417
C26_3 C 0.73852(7) 0.8803(3) 0.5734(2)
H29_3 H 0.722491 0.932035 0.554630
C27_3 C 0.76629(6) 0.8926(3) 0.55310(16)
N18_2 N 0.86405(5) 0.8372(2) 0.68490(12)
N12_4 N 0.00037(6) 0.2722(3) 0.43535(15)
C54_4 C 0.00723(7) 0.2975(3) 0.37108(17)
H51_4 H 0.020971 0.250454 0.351024
C55_4 C 0.01309(8) 0.1690(3) 0.4829(2)
H52_4 H 0.032237 0.144464 0.471279
H53_4 H 0.016456 0.199193 0.531679
C20_4 C 0.23983(7) 0.0834(3) 0.03040(17)
H23_4 H 0.259909 0.056326 0.050614
H24_4 H 0.230029 0.110318 0.069198
N9_4 N 0.31510(5) 0.6479(2) 0.05085(12)
N10_4 N 0.27661(5) 0.5238(2) 0.00709(13)
C45_4 C 0.25861(7) 0.3055(3) 0.01949(18)
H42_4 H 0.278678 0.278105 0.039533
H43_4 H 0.248878 0.332456 0.058404
C47_4 C 0.30548(6) 0.5523(3) 0.00855(15)
C48_4 C 0.29037(6) 0.6847(3) 0.08052(15)
C49_4 C 0.28755(7) 0.7768(3) 0.13102(16)
H47_4 H 0.303571 0.828012 0.150508
C50_4 C 0.26007(7) 0.7892(3) 0.1511(2)
H48_4 H 0.257454 0.850656 0.184551
C51_4 C 0.23609(7) 0.7120(3) 0.1226(2)
H49_4 H 0.217856 0.723584 0.137417
C52_4 C 0.23852(7) 0.6197(3) 0.0734(2)
H50_4 H 0.222491 0.567965 0.054630
C53_4 C 0.26629(6) 0.6074(3) 0.05310(16)
C19_4 C 0.24139(7) 0.1945(3) 0.98051(18)
H21_4 H 0.221322 0.221895 0.960467
H22_4 H 0.251122 0.167544 0.941596
C38_4 C 0.00709(8) 0.9454(3) 0.5234(2)
H36_4 H 0.025859 0.922141 0.509256
H37_4 H 0.011314 0.973072 0.572620
C39_4 C 0.02069(7) 0.6389(3) 0.55294(17)
C40_3 C 0.03540(9) 0.6178(4) 0.49574(19)
H38_3 H 0.032366 0.669814 0.455683
C41_4 C 0.05454(10) 0.5165(4) 0.5016(2)
H39_3 H 0.064587 0.499042 0.464165
C42_4 C 0.05949(8) 0.4388(4) 0.5613(2)
H40_4 H 0.072787 0.371277 0.563026
C43_4 C 0.04508(7) 0.4599(3) 0.61827(17)
H41_4 H 0.048383 0.407728 0.658274
C44_4 C 0.02551(6) 0.5616(3) 0.61354(15)
C46_4 C 0.26017(7) 0.4166(3) 0.96960(17)
H44_4 H 0.240091 0.443674 0.949386
H45_4 H 0.269971 0.389682 0.930802
H46_4 H 0.317556 0.508542 0.982086
H25_4 H 0.182444 0.991458 0.017914
N6_4 N 0.22339(5) 0.9762(2) 0.99291(13)
C21_4 C 0.19452(6) 0.9477(3) 0.99145(15)
C22_4 C 0.20963(6) 0.8153(3) 0.91948(15)
C23_4 C 0.21245(7) 0.7232(3) 0.86898(16)
H26_4 H 0.196429 0.671988 0.849492
C24_4 C 0.23993(7) 0.7108(3) 0.8489(2)
H27_4 H 0.242546 0.649344 0.815449
C25_4 C 0.26391(7) 0.7880(3) 0.8774(2)
H28_4 H 0.282144 0.776416 0.862583
C26_4 C 0.26148(7) 0.8803(3) 0.9266(2)
H29_4 H 0.277509 0.932035 0.945370
C27_4 C 0.23371(6) 0.8926(3) 0.94690(16)
N11_4 N 0.99259(5) 0.3955(2) 0.33926(13)
C56_4 C 0.99291(8) 0.0546(3) 0.4766(2)
H54_4 H 0.974141 0.077859 0.490744
H55_4 H 0.988686 0.026928 0.427380
C57_4 C 0.97931(7) 0.3611(3) 0.44706(17)
C58_3 C 0.96460(9) 0.3822(4) 0.50426(19)
H56_3 H 0.967634 0.330186 0.544317
C59_4 C 0.94546(10) 0.4835(4) 0.4984(2)
H57_3 H 0.935413 0.500958 0.535835
C60_4 C 0.94051(8) 0.5612(4) 0.4387(2)
H58_4 H 0.927213 0.628723 0.436974
C61_4 C 0.95492(7) 0.5401(3) 0.38173(17)
H59_4 H 0.951617 0.592272 0.341726
C62_4 C 0.97449(6) 0.4384(3) 0.38646(15)
N8_4 N 0.99963(6) 0.7278(3) 0.56465(15)
C36_4 C 0.99277(7) 0.7025(3) 0.62892(17)
H33_4 H 0.979029 0.749546 0.648976
C37_4 C 0.98691(8) 0.8310(3) 0.5171(2)
H34_4 H 0.967763 0.855536 0.528721
H35_4 H 0.983544 0.800807 0.468321
N2_3 N 0.62584(6) 0.2881(2) 0.69983(12)
C1_2 C 0.69036(8) 0.5569(3) 0.7534(2)
H3_2 H 0.704581 0.619356 0.768140
C2_2 C 0.67494(7) 0.5041(3) 0.80236(17)
H4_2 H 0.678292 0.530949 0.849575
C3_3 C 0.65425(7) 0.4097(3) 0.77894(15)
C4_3 C 0.61960(7) 0.2684(3) 0.76552(15)
H5_3 H 0.605102 0.211506 0.774847
C5_3 C 0.64855(7) 0.3763(3) 0.70692(15)
C6_3 C 0.66406(8) 0.4296(4) 0.65774(18)
H6_3 H 0.660288 0.405636 0.610058
C7_2 C 0.68510(9) 0.5189(4) 0.6824(2)
H7_2 H 0.696211 0.555159 0.651014
C8_3 C 0.61521(8) 0.2080(3) 0.63777(16)
H8_3 H 0.595771 0.173549 0.641598
H9_3 H 0.612975 0.259423 0.594923
C9_3 C 0.63650(9) 0.1004(3) 0.63197(18)
H10_3 H 0.627764 0.045140 0.593167
H11_3 H 0.654805 0.135126 0.620295
C10_3 C 0.64399(9) 0.0224(3) 0.69920(17)
H12_3 H 0.653279 0.077544 0.737542
N14_3 N 0.37416(6) 0.2881(2) 0.80017(12)
C63_2 C 0.30964(8) 0.5569(3) 0.7466(2)
H62_2 H 0.295419 0.619356 0.731860
C64_2 C 0.32506(7) 0.5041(3) 0.69764(17)
H63_2 H 0.321708 0.530949 0.650425
C65_3 C 0.34575(7) 0.4097(3) 0.72106(15)
C66_3 C 0.38040(7) 0.2684(3) 0.73448(15)
H64_3 H 0.394898 0.211506 0.725153
C67_3 C 0.35145(7) 0.3763(3) 0.79308(15)
C68_3 C 0.33594(8) 0.4296(4) 0.84226(18)
H65_3 H 0.339712 0.405636 0.889942
C69_2 C 0.31490(9) 0.5189(4) 0.8176(2)
H66_2 H 0.303789 0.555159 0.848986
C70_3 C 0.38479(8) 0.2080(3) 0.86223(16)
H67_3 H 0.404229 0.173549 0.858402
H68_3 H 0.387025 0.259423 0.905077
C71_3 C 0.36350(9) 0.1004(3) 0.86803(18)
H69_3 H 0.372236 0.045140 0.906833
H70_3 H 0.345195 0.135126 0.879705
C72_3 C 0.35601(9) 0.0224(3) 0.80080(17)
H71_3 H 0.346721 0.077544 0.762458
S1_3 S 0.66645(2) 0.02822(7) 0.42512(4)
O1_3 O 0.59177(5) 0.7523(2) 0.40585(12)
H1_3 H 0.5821(7) 0.803(3) 0.3768(16)
H2_3 H 0.5846(7) 0.679(2) 0.3969(18)
O2_3 O 0.62754(4) 0.50660(18) 0.43637(10)
O3_3 O 0.57958(5) 0.50874(19) 0.38538(14)
O4_3 O 0.67907(5) 0.0624(2) 0.49731(12)
O5_3 O 0.68476(5) 0.0632(2) 0.37356(12)
O8_3 O 0.53164(4) 0.10817(19) 0.28473(11)
N3_3 N 0.65080(6) 0.8180(2) 0.64111(13)
N4_3 N 0.63738(5) 0.7285(2) 0.53478(12)
H13_3 H 0.625567 0.990657 0.711716
C11_3 C 0.66452(8) 0.9111(3) 0.69401(17)
H14_3 H 0.669388 0.870114 0.740177
H15_3 H 0.682961 0.941741 0.681050
C12_3 C 0.65508(6) 0.8102(3) 0.57318(15)
H16_3 H 0.669239 0.858236 0.555190
C13_3 C 0.62795(7) 0.7356(3) 0.64795(15)
C14_3 C 0.61462(8) 0.7045(4) 0.70586(17)
H17_3 H 0.620474 0.742777 0.750065
C15_3 C 0.59247(8) 0.6149(4) 0.69489(18)
H18_3 H 0.583203 0.591006 0.732665
C16_3 C 0.58344(8) 0.5584(4) 0.62817(19)
H19_3 H 0.568158 0.498564 0.622501
C17_3 C 0.59667(7) 0.5894(3) 0.57051(17)
H20_3 H 0.590550 0.551706 0.526237
C18_3 C 0.61949(6) 0.6790(3) 0.58114(14)
C28_3 C 0.60397(6) 0.4539(3) 0.40627(15)
C29_3 C 0.60523(6) 0.3125(3) 0.39444(14)
C30_3 C 0.58019(6) 0.2476(3) 0.35972(14)
H30_3 H 0.562326 0.291176 0.345968
C31_3 C 0.58163(6) 0.1194(3) 0.34551(14)
C32_3 C 0.60824(6) 0.0548(3) 0.36665(14)
C33_3 C 0.63301(6) 0.1171(3) 0.40194(14)
C34_3 C 0.63177(6) 0.2458(3) 0.41576(14)
H32_3 H 0.648622 0.287928 0.439265
C35_3 C 0.55519(6) 0.0451(3) 0.30932(14)
S2_3 S 0.33355(2) 0.02822(7) 0.07488(4)
O9_3 O 0.40823(5) 0.7523(2) 0.09415(12)
H60_3 H 0.4179(7) 0.803(3) 0.1232(16)
H61_3 H 0.4154(7) 0.679(2) 0.1031(18)
O10_3 O 0.37246(4) 0.50660(18) 0.06363(10)
O11_3 O 0.42042(5) 0.50874(19) 0.11462(14)
O12_3 O 0.32093(5) 0.0624(2) 0.00269(12)
O13_3 O 0.31524(5) 0.0632(2) 0.12644(12)
O16_3 O 0.46836(4) 0.10817(19) 0.21527(11)
C81_3 C 0.39603(6) 0.4539(3) 0.09373(15)
C82_3 C 0.39477(6) 0.3125(3) 0.10556(14)
C83_3 C 0.41981(6) 0.2476(3) 0.14028(14)
H80_3 H 0.437674 0.291176 0.154032
C84_3 C 0.41837(6) 0.1194(3) 0.15449(14)
C85_3 C 0.39176(6) 0.0548(3) 0.13335(14)
C86_3 C 0.36699(6) 0.1171(3) 0.09806(14)
C87_3 C 0.36823(6) 0.2458(3) 0.08424(14)
H82_3 H 0.351378 0.287928 0.060735
C88_3 C 0.44481(6) 0.0451(3) 0.19068(14)
O17 O 0.65643(4) 0.89599(18) 0.41826(12)
O18 O 0.34357(4) 0.89599(18) 0.08174(12)
N15_3 N 0.34920(6) 0.8180(2) 0.85889(13)
N16_3 N 0.36262(5) 0.7285(2) 0.96522(12)
H72_3 H 0.374433 0.990657 0.788284
C73_3 C 0.33548(8) 0.9111(3) 0.80599(17)
H73_3 H 0.330612 0.870114 0.759823
H74_3 H 0.317039 0.941741 0.818950
C74_3 C 0.34492(6) 0.8102(3) 0.92682(15)
H75_3 H 0.330761 0.858236 0.944810
C75_3 C 0.37205(7) 0.7356(3) 0.85205(15)
C76_3 C 0.38538(8) 0.7045(4) 0.79414(17)
H76_3 H 0.379526 0.742777 0.749935
C77_3 C 0.40753(8) 0.6149(4) 0.80511(18)
H77_3 H 0.416797 0.591006 0.767335
C78_3 C 0.41656(8) 0.5584(4) 0.87183(19)
H78_3 H 0.431842 0.498564 0.877499
C79_3 C 0.40333(7) 0.5894(3) 0.92949(17)
H79_3 H 0.409450 0.551706 0.973763
C80_3 C 0.38051(6) 0.6790(3) 0.91886(14)
O7_3 O 0.55672(4) 0.92814(19) 0.30421(11)
H31_3 H 0.609351 0.968483 0.356862
O15_3 O 0.44328(4) 0.92814(19) 0.19579(11)
H81_3 H 0.390649 0.968483 0.143138
O1_4 O 0.09177(5) 0.2523(2) 0.40585(12)
H1_4 H 0.0821(7) 0.303(3) 0.3768(16)
H2_4 H 0.0846(7) 0.179(2) 0.3969(18)
O2_4 O 0.12754(4) 0.00660(18) 0.43637(10)
O3_4 O 0.07958(5) 0.00874(19) 0.38538(14)
N2_4 N 0.12584(6) 0.7881(2) 0.69983(12)
N3_4 N 0.15080(6) 0.3180(2) 0.64111(13)
N4_4 N 0.13738(5) 0.2285(2) 0.53478(12)
C3_4 C 0.15425(7) 0.9097(3) 0.77894(15)
C4_4 C 0.11960(7) 0.7684(3) 0.76552(15)
H5_4 H 0.105102 0.711506 0.774847
C5_4 C 0.14855(7) 0.8763(3) 0.70692(15)
C6_4 C 0.16406(8) 0.9296(4) 0.65774(18)
H6_4 H 0.160288 0.905636 0.610058
C8_4 C 0.11521(8) 0.7080(3) 0.63777(16)
H8_4 H 0.095771 0.673549 0.641598
H9_4 H 0.112975 0.759423 0.594923
C9_4 C 0.13650(9) 0.6004(3) 0.63197(18)
H10_4 H 0.127764 0.545140 0.593167
H11_4 H 0.154805 0.635126 0.620295
C10_4 C 0.14399(9) 0.5224(3) 0.69920(17)
H12_4 H 0.153279 0.577544 0.737542
H13_4 H 0.125567 0.490657 0.711716
C11_4 C 0.16452(8) 0.4111(3) 0.69401(17)
H14_4 H 0.169388 0.370114 0.740177
H15_4 H 0.182961 0.441741 0.681050
C12_4 C 0.15508(6) 0.3102(3) 0.57318(15)
H16_4 H 0.169239 0.358236 0.555190
C13_4 C 0.12795(7) 0.2356(3) 0.64795(15)
C14_4 C 0.11462(8) 0.2045(4) 0.70586(17)
H17_4 H 0.120474 0.242777 0.750065
C15_4 C 0.09247(8) 0.1149(4) 0.69489(18)
H18_4 H 0.083203 0.091006 0.732665
C16_4 C 0.08344(8) 0.0584(4) 0.62817(19)
C17_4 C 0.09667(7) 0.0894(3) 0.57051(17)
H20_4 H 0.090550 0.051706 0.526237
C18_4 C 0.11949(6) 0.1790(3) 0.58114(14)
O17_2 O 0.15643(4) 0.39599(18) 0.41826(12)
S1_4 S 0.16645(2) 0.52822(7) 0.42512(4)
O4_4 O 0.17907(5) 0.5624(2) 0.49731(12)
O5_4 O 0.18476(5) 0.5632(2) 0.37356(12)
O7_4 O 0.05672(4) 0.42814(19) 0.30421(11)
O8_4 O 0.03164(4) 0.60817(19) 0.28473(11)
H19_4 H 0.068158 0.998564 0.622501
C28_4 C 0.10397(6) 0.9539(3) 0.40627(15)
C29_4 C 0.10523(6) 0.8125(3) 0.39444(14)
C30_4 C 0.08019(6) 0.7476(3) 0.35972(14)
H30_4 H 0.062326 0.791176 0.345968
C31_4 C 0.08163(6) 0.6194(3) 0.34551(14)
C32_4 C 0.10824(6) 0.5548(3) 0.36665(14)
H31_4 H 0.109351 0.468483 0.356862
C33_4 C 0.13301(6) 0.6171(3) 0.40194(14)
C34_4 C 0.13177(6) 0.7458(3) 0.41576(14)
H32_4 H 0.148622 0.787928 0.439265
C35_4 C 0.05519(6) 0.5451(3) 0.30932(14)
O9_4 O 0.90823(5) 0.2523(2) 0.09415(12)
H60_4 H 0.9179(7) 0.303(3) 0.1232(16)
H61_4 H 0.9154(7) 0.179(2) 0.1031(18)
O10_4 O 0.87246(4) 0.00660(18) 0.06363(10)
O11_4 O 0.92042(5) 0.00874(19) 0.11462(14)
O18_2 O 0.84357(4) 0.39599(18) 0.08174(12)
N14_4 N 0.87416(6) 0.7881(2) 0.80017(12)
N15_4 N 0.84920(6) 0.3180(2) 0.85889(13)
N16_4 N 0.86262(5) 0.2285(2) 0.96522(12)
C65_4 C 0.84575(7) 0.9097(3) 0.72106(15)
C66_4 C 0.88040(7) 0.7684(3) 0.73448(15)
H64_4 H 0.894898 0.711506 0.725153
C67_4 C 0.85145(7) 0.8763(3) 0.79308(15)
C68_4 C 0.83594(8) 0.9296(4) 0.84226(18)
H65_4 H 0.839712 0.905636 0.889942
C70_4 C 0.88479(8) 0.7080(3) 0.86223(16)
H67_4 H 0.904229 0.673549 0.858402
H68_4 H 0.887025 0.759423 0.905077
C71_4 C 0.86350(9) 0.6004(3) 0.86803(18)
H69_4 H 0.872236 0.545140 0.906833
H70_4 H 0.845195 0.635126 0.879705
C72_4 C 0.85601(9) 0.5224(3) 0.80080(17)
H71_4 H 0.846721 0.577544 0.762458
H72_4 H 0.874433 0.490657 0.788284
C73_4 C 0.83548(8) 0.4111(3) 0.80599(17)
H73_4 H 0.830612 0.370114 0.759823
H74_4 H 0.817039 0.441741 0.818950
C74_4 C 0.84492(6) 0.3102(3) 0.92682(15)
H75_4 H 0.830761 0.358236 0.944810
C75_4 C 0.87205(7) 0.2356(3) 0.85205(15)
C76_4 C 0.88538(8) 0.2045(4) 0.79414(17)
H76_4 H 0.879526 0.242777 0.749935
C77_4 C 0.90753(8) 0.1149(4) 0.80511(18)
H77_4 H 0.916797 0.091006 0.767335
C78_4 C 0.91656(8) 0.0584(4) 0.87183(19)
C79_4 C 0.90333(7) 0.0894(3) 0.92949(17)
H79_4 H 0.909450 0.051706 0.973763
C80_4 C 0.88051(6) 0.1790(3) 0.91886(14)
S2_4 S 0.83355(2) 0.52822(7) 0.07488(4)
O12_4 O 0.82093(5) 0.5624(2) 0.00269(12)
O13_4 O 0.81524(5) 0.5632(2) 0.12644(12)
O15_4 O 0.94328(4) 0.42814(19) 0.19579(11)
O16_4 O 0.96836(4) 0.60817(19) 0.21527(11)
C81_4 C 0.89603(6) 0.9539(3) 0.09373(15)
C82_4 C 0.89477(6) 0.8125(3) 0.10556(14)
C83_4 C 0.91981(6) 0.7476(3) 0.14028(14)
H80_4 H 0.937674 0.791176 0.154032
C84_4 C 0.91837(6) 0.6194(3) 0.15449(14)
C85_4 C 0.89176(6) 0.5548(3) 0.13335(14)
H81_4 H 0.890649 0.468483 0.143138
C86_4 C 0.86699(6) 0.6171(3) 0.09806(14)
C87_4 C 0.86823(6) 0.7458(3) 0.08424(14)
H82_4 H 0.851378 0.787928 0.060735
C88_4 C 0.94481(6) 0.5451(3) 0.19068(14)
H78_4 H 0.931842 0.998564 0.877499
C58_4 C 0.03540(9) 0.3822(4) 0.99574(19)
H56_4 H 0.032366 0.330186 0.955683
H57_4 H 0.064587 0.500958 0.964165
C63_3 C 0.19036(8) 0.9431(3) 0.2534(2)
H62_3 H 0.204581 0.880644 0.268140
C64_3 C 0.17494(7) 0.9959(3) 0.30236(17)
H63_3 H 0.178292 0.969051 0.349575
C69_3 C 0.18510(9) 0.9811(4) 0.1824(2)
H66_3 H 0.196211 0.944841 0.151014
C40_4 C 0.96460(9) 0.6178(4) 0.00426(19)
H38_4 H 0.967634 0.669814 0.044317
H39_4 H 0.935413 0.499042 0.035835
C1_3 C 0.80964(8) 0.9431(3) 0.2466(2)
H3_3 H 0.795419 0.880644 0.231860
C2_3 C 0.82506(7) 0.9959(3) 0.19764(17)
H4_3 H 0.821708 0.969051 0.150425
C7_3 C 0.81490(9) 0.9811(4) 0.3176(2)
H7_3 H 0.803789 0.944841 0.348986
C1_4 C 0.19036(8) 0.0569(3) 0.7534(2)
H3_4 H 0.204581 0.119356 0.768140
C2_4 C 0.17494(7) 0.0041(3) 0.80236(17)
H4_4 H 0.178292 0.030949 0.849575
C7_4 C 0.18510(9) 0.0189(4) 0.6824(2)
H7_4 H 0.196211 0.055159 0.651014
C63_4 C 0.80964(8) 0.0569(3) 0.7466(2)
H62_4 H 0.795419 0.119356 0.731860
C64_4 C 0.82506(7) 0.0041(3) 0.69764(17)
H63_4 H 0.821708 0.030949 0.650425
C69_4 C 0.81490(9) 0.0189(4) 0.8176(2)
H66_4 H 0.803789 0.055159 0.848986
loop_
_geom_bond_atom_site_label_1
_geom_bond_atom_site_label_2
_geom_bond_site_symmetry_1
_geom_bond_site_symmetry_2
H58 C60 1_555 1_555
C61 C60 1_555 1_555
H59 C61 1_555 1_555
H38 C40 1_555 1_555
N11 C54 1_555 1_555
N12 C54 1_555 1_555
C54 H51 1_555 1_555
C55 N12 1_555 1_555
H52 C55 1_555 1_555
H54 C56 1_555 1_555
H55 C56 1_555 1_555
C57 N12 1_555 1_555
C62 N11 1_555 1_555
Co9 N11 1_555 1_555
C55 C56 1_555 1_555
C57 C62 1_555 1_555
N7 Co2 1_555 1_555
N8 C36 1_555 1_555
C36 N7 1_555 1_555
H33 C36 1_555 1_555
C37 N8 1_555 1_555
H34 C37 1_555 1_555
C38 C37 1_555 1_555
H36 C38 1_555 1_555
H37 C38 1_555 1_555
C39 N8 1_555 1_555
C44 N7 1_555 1_555
N9 C47 1_555 1_555
C47 N10 1_555 1_555
H46 C47 1_555 1_555
C48 N9 1_555 1_555
C49 C48 1_555 1_555
H47 C49 1_555 1_555
C50 C49 1_555 1_555
H48 C50 1_555 1_555
C51 C50 1_555 1_555
H49 C51 1_555 1_555
C52 C51 1_555 1_555
H50 C52 1_555 1_555
C53 N10 1_555 1_555
H56 C58 1_555 1_555
Co4 O6 1_555 1_555
Co5 O14 1_555 1_555
Co8 N9 1_555 1_555
N20 Co2 1_555 1_555
C39 C44 1_555 1_555
C48 C53 1_555 1_555
C52 C53 1_555 1_555
N15 C73 1_555 1_555
H73 C73 1_555 1_555
H74 C73 1_555 1_555
C74 N15 1_555 1_555
H75 C74 1_555 1_555
C75 N15 1_555 1_555
C76 C75 1_555 1_555
H76 C76 1_555 1_555
C77 C76 1_555 1_555
H77 C77 1_555 1_555
C78 C77 1_555 1_555
H78 C78 1_555 1_555
C79 C78 1_555 1_555
H79 C79 1_555 1_555
C80 N16 1_555 1_555
N16 C74 1_555 1_555
C75 C80 1_555 1_555
C79 C80 1_555 1_555
Co4 O1 1_555 1_555
S1 O4 1_555 1_555
O1 H1 1_555 1_555
H2 O1 1_555 1_555
O2 Co4 1_555 1_555
O3 C28 1_555 1_555
O5 S1 1_555 1_555
O8 C35 1_555 1_555
N3 C11 1_555 1_555
N4 Co4 1_555 1_555
N5 Co4 1_555 1_555
N6 C20 1_555 1_555
H14 C11 1_555 1_555
H15 C11 1_555 1_555
C12 N3 1_555 1_555
H16 C12 1_555 1_555
C13 N3 1_555 1_555
C14 C13 1_555 1_555
H17 C14 1_555 1_555
C15 C14 1_555 1_555
H18 C15 1_555 1_555
C16 C15 1_555 1_555
H19 C16 1_555 1_555
C17 C16 1_555 1_555
H20 C17 1_555 1_555
C18 N4 1_555 1_555
C19 H21 1_555 1_555
H22 C19 1_555 1_555
C20 C19 1_555 1_555
H23 C20 1_555 1_555
H24 C20 1_555 1_555
C21 N5 1_555 1_555
H25 C21 1_555 1_555
C22 N5 1_555 1_555
C23 C22 1_555 1_555
H26 C23 1_555 1_555
C24 C23 1_555 1_555
H27 C24 1_555 1_555
C25 C24 1_555 1_555
H28 C25 1_555 1_555
C26 C25 1_555 1_555
H29 C26 1_555 1_555
C27 N6 1_555 1_555
C28 O2 1_555 1_555
C29 C28 1_555 1_555
C30 C29 1_555 1_555
H30 C30 1_555 1_555
C31 C30 1_555 1_555
C32 C31 1_555 1_555
C33 S1 1_555 1_555
C34 C29 1_555 1_555
H32 C34 1_555 1_555
C35 C31 1_555 1_555
H40 C42 1_555 1_555
C43 C42 1_555 1_555
H41 C43 1_555 1_555
C45 C19 1_555 1_555
H42 C45 1_555 1_555
H43 C45 1_555 1_555
C46 C45 1_555 1_555
H44 C46 1_555 1_555
H45 C46 1_555 1_555
Co5 O9 1_555 1_555
S2 O12 1_555 1_555
O9 H60 1_555 1_555
H61 O9 1_555 1_555
O10 Co5 1_555 1_555
O11 C81 1_555 1_555
O13 S2 1_555 1_555
C81 O10 1_555 1_555
C82 C81 1_555 1_555
C83 C82 1_555 1_555
H80 C83 1_555 1_555
C84 C83 1_555 1_555
C85 C84 1_555 1_555
C86 S2 1_555 1_555
C87 C82 1_555 1_555
H82 C87 1_555 1_555
C88 O16 1_555 1_555
N17 Co5 1_555 1_555
N18 Co4 1_555 1_555
N19 Co5 1_555 1_555
N4 C12 1_555 1_555
N6 C21 1_555 1_555
C13 C18 1_555 1_555
C17 C18 1_555 1_555
C22 C27 1_555 1_555
C26 C27 1_555 1_555
C32 C33 1_555 1_555
C33 C34 1_555 1_555
C84 C88 1_555 1_555
C85 C86 1_555 1_555
C86 C87 1_555 1_555
N13 C65 1_555 1_555
N14 C66 1_555 1_555
C63 H62 1_555 1_555
C64 C63 1_555 1_555
H63 C64 1_555 1_555
C65 C64 1_555 1_555
C66 N13 1_555 1_555
H64 C66 1_555 1_555
C67 N14 1_555 1_555
C68 C67 1_555 1_555
H65 C68 1_555 1_555
C69 C63 1_555 1_555
H66 C69 1_555 1_555
C70 N14 1_555 1_555
H67 C70 1_555 1_555
H68 C70 1_555 1_555
C71 C70 1_555 1_555
H69 C71 1_555 1_555
H70 C71 1_555 1_555
C72 C71 1_555 1_555
H71 C72 1_555 1_555
Co6 N13 1_555 1_555
C65 C67 1_555 1_555
C68 C69 1_555 1_555
N1 C3 1_555 1_555
N2 C4 1_555 1_555
C1 H3 1_555 1_555
C2 C1 1_555 1_555
H4 C2 1_555 1_555
C3 C2 1_555 1_555
C4 N1 1_555 1_555
H5 C4 1_555 1_555
C5 N2 1_555 1_555
C6 C5 1_555 1_555
H6 C6 1_555 1_555
C7 C1 1_555 1_555
H7 C7 1_555 1_555
C8 N2 1_555 1_555
H8 C8 1_555 1_555
H9 C8 1_555 1_555
C9 C8 1_555 1_555
H10 C9 1_555 1_555
H11 C9 1_555 1_555
C10 C9 1_555 1_555
H12 C10 1_555 1_555
Co7 N1 1_555 1_555
C3 C5 1_555 1_555
C6 C7 1_555 1_555
H58_2 C60_2 1_555 1_555
C61_2 C60_2 1_555 1_555
H59_2 C61_2 1_555 1_555
N9_2 C47_2 1_555 1_555
C47_2 N10_2 1_555 1_555
C48_2 N9_2 1_555 1_555
C49_2 C48_2 1_555 1_555
H47_2 C49_2 1_555 1_555
C50_2 C49_2 1_555 1_555
H48_2 C50_2 1_555 1_555
C51_2 C50_2 1_555 1_555
H49_2 C51_2 1_555 1_555
C52_2 C51_2 1_555 1_555
H50_2 C52_2 1_555 1_555
C53_2 N10_2 1_555 1_555
Co8_2 N9_2 1_555 1_555
C48_2 C53_2 1_555 1_555
C52_2 C53_2 1_555 1_555
N8_2 C36_2 1_555 1_555
C36_2 N20 1_555 1_555
H33_2 C36_2 1_555 1_555
C37_2 N8_2 1_555 1_555
H34_2 C37_2 1_555 1_555
H35_2 C37_2 1_555 1_555
C38_2 C37_2 1_555 1_555
H36_2 C38_2 1_555 1_555
H37_2 C38_2 1_555 1_555
C39_2 N8_2 1_555 1_555
C40_2 C39_2 1_555 1_555
H38_2 C40_2 1_555 1_555
C41_2 C40_2 1_555 1_555
C44_2 N20 1_555 1_555
N11_2 C54_2 1_555 1_555
N12_2 C54_2 1_555 1_555
C54_2 H51_2 1_555 1_555
C55_2 N12_2 1_555 1_555
H52_2 C55_2 1_555 1_555
H53_2 C55_2 1_555 1_555
C56_2 C38_2 1_555 1_555
H54_2 C56_2 1_555 1_555
H55_2 C56_2 1_555 1_555
C57_2 N12_2 1_555 1_555
C58_2 C57_2 1_555 1_555
H56_2 C58_2 1_555 1_555
C59_2 C58_2 1_555 1_555
C62_2 N11_2 1_555 1_555
Co9 N11_2 1_555 1_555
C39_2 C44_2 1_555 1_555
C55_2 C56_2 1_555 1_555
C57_2 C62_2 1_555 1_555
H23_2 C20_2 1_555 1_555
H24_2 C20_2 1_555 1_555
H42_2 C45_2 1_555 1_555
H43_2 C45_2 1_555 1_555
C19_2 H21_2 1_555 1_555
H22_2 C19_2 1_555 1_555
C21_2 N19 1_555 1_555
C22_2 N19 1_555 1_555
C23_2 C22_2 1_555 1_555
H26_2 C23_2 1_555 1_555
C24_2 C23_2 1_555 1_555
H27_2 C24_2 1_555 1_555
C25_2 C24_2 1_555 1_555
H28_2 C25_2 1_555 1_555
C26_2 C25_2 1_555 1_555
H29_2 C26_2 1_555 1_555
C27_2 N6_2 1_555 1_555
H40_2 C42_2 1_555 1_555
C43_2 C42_2 1_555 1_555
H41_2 C43_2 1_555 1_555
H44_2 C46_2 1_555 1_555
H45_2 C46_2 1_555 1_555
N6_2 C21_2 1_555 1_555
C22_2 C27_2 1_555 1_555
C26_2 C27_2 1_555 1_555
H54_3 C56_3 1_555 1_555
H55_3 C56_3 1_555 1_555
C60_3 C59_3 1_555 1_555
H58_3 C60_3 1_555 1_555
C61_3 C60_3 1_555 1_555
H59_3 C61_3 1_555 1_555
C62_3 N11_3 1_555 1_555
Co9_2 N11_3 1_555 1_555
C57_3 C62_3 1_555 1_555
C61_3 C62_3 1_555 1_555
N8_3 C36_3 1_555 1_555
H33_3 C36_3 1_555 1_555
C37_3 N8_3 1_555 1_555
H34_3 C37_3 1_555 1_555
S2_2 O12_2 1_555 1_555
O13_2 S2_2 1_555 1_555
O14_2 S2_2 1_555 1_555
O15_2 C88_2 1_555 1_555
O16_2 Co2_2 1_555 1_555
C82_2 C81_2 1_555 1_555
C83_2 C82_2 1_555 1_555
H80_2 C83_2 1_555 1_555
C84_2 C83_2 1_555 1_555
C85_2 C84_2 1_555 1_555
H81_2 C85_2 1_555 1_555
C86_2 S2_2 1_555 1_555
C87_2 C82_2 1_555 1_555
H82_2 C87_2 1_555 1_555
C88_2 O16_2 1_555 1_555
Co5_2 O14_2 1_555 1_555
N20_2 Co2_2 1_555 1_555
C84_2 C88_2 1_555 1_555
C85_2 C86_2 1_555 1_555
C86_2 C87_2 1_555 1_555
N13_2 C65_2 1_555 1_555
N14_2 C66_2 1_555 1_555
N15_2 C73_2 1_555 1_555
C66_2 N13_2 1_555 1_555
H64_2 C66_2 1_555 1_555
C67_2 N14_2 1_555 1_555
C68_2 C67_2 1_555 1_555
H65_2 C68_2 1_555 1_555
C70_2 N14_2 1_555 1_555
H67_2 C70_2 1_555 1_555
H68_2 C70_2 1_555 1_555
C71_2 C70_2 1_555 1_555
H69_2 C71_2 1_555 1_555
H70_2 C71_2 1_555 1_555
C72_2 C71_2 1_555 1_555
H71_2 C72_2 1_555 1_555
H72_2 C72_2 1_555 1_555
C73_2 C72_2 1_555 1_555
H73_2 C73_2 1_555 1_555
H74_2 C73_2 1_555 1_555
C74_2 N15_2 1_555 1_555
H75_2 C74_2 1_555 1_555
C75_2 N15_2 1_555 1_555
C76_2 C75_2 1_555 1_555
H76_2 C76_2 1_555 1_555
C77_2 C76_2 1_555 1_555
H77_2 C77_2 1_555 1_555
C78_2 C77_2 1_555 1_555
C79_2 C78_2 1_555 1_555
H79_2 C79_2 1_555 1_555
C80_2 N16_2 1_555 1_555
Co8 N13_2 1_555 1_555
N16_2 C74_2 1_555 1_555
C65_2 C67_2 1_555 1_555
C75_2 C80_2 1_555 1_555
C79_2 C80_2 1_555 1_555
Co5_2 O9_2 1_555 1_555
O9_2 H60_2 1_555 1_555
H61_2 O9_2 1_555 1_555
O10_2 Co5_2 1_555 1_555
N17_2 Co5_2 1_555 1_555
N19_2 Co5_2 1_555 1_555
N12_3 C54_3 1_555 1_555
C54_3 H51_3 1_555 1_555
C55_3 N12_3 1_555 1_555
H52_3 C55_3 1_555 1_555
Co2_3 O8_2 1_555 1_555
S1_2 O4_2 1_555 1_555
O5_2 S1_2 1_555 1_555
O6_2 S1_2 1_555 1_555
O7_2 C35_2 1_555 1_555
O8_2 C35_2 1_555 1_555
N7_2 Co2_3 1_555 1_555
C19_3 H21_3 1_555 1_555
H22_3 C19_3 1_555 1_555
C20_3 C19_3 1_555 1_555
H23_3 C20_3 1_555 1_555
H24_3 C20_3 1_555 1_555
C29_2 C28_2 1_555 1_555
C30_2 C29_2 1_555 1_555
H30_2 C30_2 1_555 1_555
C31_2 C30_2 1_555 1_555
C32_2 C31_2 1_555 1_555
H31_2 C32_2 1_555 1_555
C33_2 S1_2 1_555 1_555
C34_2 C29_2 1_555 1_555
H32_2 C34_2 1_555 1_555
C35_2 C31_2 1_555 1_555
H36_3 C38_3 1_555 1_555
H37_3 C38_3 1_555 1_555
C42_3 C41_3 1_555 1_555
H40_3 C42_3 1_555 1_555
C43_3 C42_3 1_555 1_555
H41_3 C43_3 1_555 1_555
C44_3 N7_2 1_555 1_555
N9_3 C47_3 1_555 1_555
N10_3 C46_3 1_555 1_555
C45_3 C19_3 1_555 1_555
H42_3 C45_3 1_555 1_555
H43_3 C45_3 1_555 1_555
C46_3 C45_3 1_555 1_555
H44_3 C46_3 1_555 1_555
H45_3 C46_3 1_555 1_555
C47_3 N10_3 1_555 1_555
H46_3 C47_3 1_555 1_555
C48_3 N9_3 1_555 1_555
C49_3 C48_3 1_555 1_555
H47_3 C49_3 1_555 1_555
C50_3 C49_3 1_555 1_555
H48_3 C50_3 1_555 1_555
C51_3 C50_3 1_555 1_555
H49_3 C51_3 1_555 1_555
C52_3 C51_3 1_555 1_555
H50_3 C52_3 1_555 1_555
C53_3 N10_3 1_555 1_555
Co4_2 O6_2 1_555 1_555
Co6 N9_3 1_555 1_555
C32_2 C33_2 1_555 1_555
C33_2 C34_2 1_555 1_555
C39_3 C44_3 1_555 1_555
C43_3 C44_3 1_555 1_555
C48_3 C53_3 1_555 1_555
C52_3 C53_3 1_555 1_555
Co4_2 O1_2 1_555 1_555
O1_2 H1_2 1_555 1_555
H2_2 O1_2 1_555 1_555
O2_2 Co4_2 1_555 1_555
N1_2 C3_2 1_555 1_555
N2_2 C4_2 1_555 1_555
N3_2 C11_2 1_555 1_555
N4_2 Co4_2 1_555 1_555
N5_2 Co4_2 1_555 1_555
C4_2 N1_2 1_555 1_555
H5_2 C4_2 1_555 1_555
C5_2 N2_2 1_555 1_555
C6_2 C5_2 1_555 1_555
H6_2 C6_2 1_555 1_555
C8_2 N2_2 1_555 1_555
H8_2 C8_2 1_555 1_555
H9_2 C8_2 1_555 1_555
C9_2 C8_2 1_555 1_555
H10_2 C9_2 1_555 1_555
H11_2 C9_2 1_555 1_555
C10_2 C9_2 1_555 1_555
H12_2 C10_2 1_555 1_555
H13_2 C10_2 1_555 1_555
C11_2 C10_2 1_555 1_555
H14_2 C11_2 1_555 1_555
H15_2 C11_2 1_555 1_555
C12_2 N3_2 1_555 1_555
H16_2 C12_2 1_555 1_555
C13_2 N3_2 1_555 1_555
C14_2 C13_2 1_555 1_555
H17_2 C14_2 1_555 1_555
C15_2 C14_2 1_555 1_555
H18_2 C15_2 1_555 1_555
C16_2 C15_2 1_555 1_555
C17_2 C16_2 1_555 1_555
H20_2 C17_2 1_555 1_555
C18_2 N4_2 1_555 1_555
C21_3 N5_2 1_555 1_555
H25_3 C21_3 1_555 1_555
C22_3 N5_2 1_555 1_555
C23_3 C22_3 1_555 1_555
H26_3 C23_3 1_555 1_555
C24_3 C23_3 1_555 1_555
H27_3 C24_3 1_555 1_555
C25_3 C24_3 1_555 1_555
H28_3 C25_3 1_555 1_555
C26_3 C25_3 1_555 1_555
H29_3 C26_3 1_555 1_555
C27_3 N6_3 1_555 1_555
Co8_2 N1_2 1_555 1_555
N18_2 Co4_2 1_555 1_555
N4_2 C12_2 1_555 1_555
N6_3 C21_3 1_555 1_555
C3_2 C5_2 1_555 1_555
C13_2 C18_2 1_555 1_555
C17_2 C18_2 1_555 1_555
C22_3 C27_3 1_555 1_555
C26_3 C27_3 1_555 1_555
N12_4 C54_4 1_555 1_555
C54_4 H51_4 1_555 1_555
C55_4 N12_4 1_555 1_555
H52_4 C55_4 1_555 1_555
H53_4 C55_4 1_555 1_555
H23_4 C20_4 1_555 1_555
H24_4 C20_4 1_555 1_555
N9_4 C47_4 1_555 1_555
H42_4 C45_4 1_555 1_555
H43_4 C45_4 1_555 1_555
C47_4 N10_4 1_555 1_555
C48_4 N9_4 1_555 1_555
C49_4 C48_4 1_555 1_555
H47_4 C49_4 1_555 1_555
C50_4 C49_4 1_555 1_555
H48_4 C50_4 1_555 1_555
C51_4 C50_4 1_555 1_555
H49_4 C51_4 1_555 1_555
C52_4 C51_4 1_555 1_555
H50_4 C52_4 1_555 1_555
C53_4 N10_4 1_555 1_555
Co7 N9_4 1_555 1_555
C48_4 C53_4 1_555 1_555
C52_4 C53_4 1_555 1_555
C19_4 H21_4 1_555 1_555
H22_4 C19_4 1_555 1_555
H36_4 C38_4 1_555 1_555
H37_4 C38_4 1_555 1_555
C40_3 C39_4 1_555 1_555
H38_3 C40_3 1_555 1_555
C41_4 C40_3 1_555 1_555
H39_3 C41_4 1_555 1_555
C42_4 C41_4 1_555 1_555
H40_4 C42_4 1_555 1_555
C43_4 C42_4 1_555 1_555
H41_4 C43_4 1_555 1_555
C44_4 N20_2 1_555 1_555
H44_4 C46_4 1_555 1_555
H45_4 C46_4 1_555 1_555
C39_4 C44_4 1_555 1_555
C43_4 C44_4 1_555 1_555
C21_4 N19_2 1_555 1_555
C22_4 N19_2 1_555 1_555
C23_4 C22_4 1_555 1_555
H26_4 C23_4 1_555 1_555
C24_4 C23_4 1_555 1_555
H27_4 C24_4 1_555 1_555
C25_4 C24_4 1_555 1_555
H28_4 C25_4 1_555 1_555
C26_4 C25_4 1_555 1_555
H29_4 C26_4 1_555 1_555
C27_4 N6_4 1_555 1_555
N6_4 C21_4 1_555 1_555
C22_4 C27_4 1_555 1_555
C26_4 C27_4 1_555 1_555
H54_4 C56_4 1_555 1_555
H55_4 C56_4 1_555 1_555
C58_3 C57_4 1_555 1_555
H56_3 C58_3 1_555 1_555
C59_4 C58_3 1_555 1_555
H57_3 C59_4 1_555 1_555
C60_4 C59_4 1_555 1_555
H58_4 C60_4 1_555 1_555
C61_4 C60_4 1_555 1_555
H59_4 C61_4 1_555 1_555
C62_4 N11_4 1_555 1_555
Co9_3 N11_4 1_555 1_555
C57_4 C62_4 1_555 1_555
C61_4 C62_4 1_555 1_555
N8_4 C36_4 1_555 1_555
H33_4 C36_4 1_555 1_555
C37_4 N8_4 1_555 1_555
H34_4 C37_4 1_555 1_555
H35_4 C37_4 1_555 1_555
N17 C3_3 1_555 1_555
N2_3 C4_3 1_555 1_555
C1_2 H3_2 1_555 1_555
C2_2 C1_2 1_555 1_555
H4_2 C2_2 1_555 1_555
C3_3 C2_2 1_555 1_555
C4_3 N17 1_555 1_555
H5_3 C4_3 1_555 1_555
C5_3 N2_3 1_555 1_555
C6_3 C5_3 1_555 1_555
H6_3 C6_3 1_555 1_555
C7_2 C1_2 1_555 1_555
H7_2 C7_2 1_555 1_555
C8_3 N2_3 1_555 1_555
H8_3 C8_3 1_555 1_555
H9_3 C8_3 1_555 1_555
C9_3 C8_3 1_555 1_555
H10_3 C9_3 1_555 1_555
H11_3 C9_3 1_555 1_555
C10_3 C9_3 1_555 1_555
H12_3 C10_3 1_555 1_555
C3_3 C5_3 1_555 1_555
C6_3 C7_2 1_555 1_555
N18 C65_3 1_555 1_555
N14_3 C66_3 1_555 1_555
C63_2 H62_2 1_555 1_555
C64_2 C63_2 1_555 1_555
H63_2 C64_2 1_555 1_555
C65_3 C64_2 1_555 1_555
C66_3 N18 1_555 1_555
H64_3 C66_3 1_555 1_555
C67_3 N14_3 1_555 1_555
C68_3 C67_3 1_555 1_555
H65_3 C68_3 1_555 1_555
C69_2 C63_2 1_555 1_555
H66_2 C69_2 1_555 1_555
C70_3 N14_3 1_555 1_555
H67_3 C70_3 1_555 1_555
H68_3 C70_3 1_555 1_555
C71_3 C70_3 1_555 1_555
H69_3 C71_3 1_555 1_555
H70_3 C71_3 1_555 1_555
C72_3 C71_3 1_555 1_555
H71_3 C72_3 1_555 1_555
C65_3 C67_3 1_555 1_555
C68_3 C69_2 1_555 1_555
Co6 O1_3 1_555 1_555
S1_3 O4_3 1_555 1_555
O1_3 H1_3 1_555 1_555
H2_3 O1_3 1_555 1_555
O2_3 Co6 1_555 1_555
O3_3 C28_3 1_555 1_555
O5_3 S1_3 1_555 1_555
O8_3 C35_3 1_555 1_555
N3_3 C11_3 1_555 1_555
N4_3 Co6 1_555 1_555
H14_3 C11_3 1_555 1_555
H15_3 C11_3 1_555 1_555
C12_3 N3_3 1_555 1_555
H16_3 C12_3 1_555 1_555
C13_3 N3_3 1_555 1_555
C14_3 C13_3 1_555 1_555
H17_3 C14_3 1_555 1_555
C15_3 C14_3 1_555 1_555
H18_3 C15_3 1_555 1_555
C16_3 C15_3 1_555 1_555
H19_3 C16_3 1_555 1_555
C17_3 C16_3 1_555 1_555
H20_3 C17_3 1_555 1_555
C18_3 N4_3 1_555 1_555
C28_3 O2_3 1_555 1_555
C29_3 C28_3 1_555 1_555
C30_3 C29_3 1_555 1_555
H30_3 C30_3 1_555 1_555
C31_3 C30_3 1_555 1_555
C32_3 C31_3 1_555 1_555
C33_3 S1_3 1_555 1_555
C34_3 C29_3 1_555 1_555
H32_3 C34_3 1_555 1_555
C35_3 C31_3 1_555 1_555
Co7 O9_3 1_555 1_555
S2_3 O12_3 1_555 1_555
O9_3 H60_3 1_555 1_555
H61_3 O9_3 1_555 1_555
O10_3 Co7 1_555 1_555
O11_3 C81_3 1_555 1_555
O13_3 S2_3 1_555 1_555
C81_3 O10_3 1_555 1_555
C82_3 C81_3 1_555 1_555
C83_3 C82_3 1_555 1_555
H80_3 C83_3 1_555 1_555
C84_3 C83_3 1_555 1_555
C85_3 C84_3 1_555 1_555
C86_3 S2_3 1_555 1_555
C87_3 C82_3 1_555 1_555
H82_3 C87_3 1_555 1_555
C88_3 O16_3 1_555 1_555
O17 Co6 1_555 1_555
O18 Co7 1_555 1_555
N4_3 C12_3 1_555 1_555
C13_3 C18_3 1_555 1_555
C17_3 C18_3 1_555 1_555
C32_3 C33_3 1_555 1_555
C33_3 C34_3 1_555 1_555
C84_3 C88_3 1_555 1_555
C85_3 C86_3 1_555 1_555
C86_3 C87_3 1_555 1_555
N15_3 C73_3 1_555 1_555
H73_3 C73_3 1_555 1_555
H74_3 C73_3 1_555 1_555
C74_3 N15_3 1_555 1_555
H75_3 C74_3 1_555 1_555
C75_3 N15_3 1_555 1_555
C76_3 C75_3 1_555 1_555
H76_3 C76_3 1_555 1_555
C77_3 C76_3 1_555 1_555
H77_3 C77_3 1_555 1_555
C78_3 C77_3 1_555 1_555
H78_3 C78_3 1_555 1_555
C79_3 C78_3 1_555 1_555
H79_3 C79_3 1_555 1_555
C80_3 N16_3 1_555 1_555
N16_3 C74_3 1_555 1_555
C75_3 C80_3 1_555 1_555
C79_3 C80_3 1_555 1_555
Co8 O1_4 1_555 1_555
O1_4 H1_4 1_555 1_555
H2_4 O1_4 1_555 1_555
O2_4 Co8 1_555 1_555
N17_2 C3_4 1_555 1_555
N2_4 C4_4 1_555 1_555
N3_4 C11_4 1_555 1_555
N4_4 Co8 1_555 1_555
C4_4 N17_2 1_555 1_555
H5_4 C4_4 1_555 1_555
C5_4 N2_4 1_555 1_555
C6_4 C5_4 1_555 1_555
H6_4 C6_4 1_555 1_555
C8_4 N2_4 1_555 1_555
H8_4 C8_4 1_555 1_555
H9_4 C8_4 1_555 1_555
C9_4 C8_4 1_555 1_555
H10_4 C9_4 1_555 1_555
H11_4 C9_4 1_555 1_555
C10_4 C9_4 1_555 1_555
H12_4 C10_4 1_555 1_555
H13_4 C10_4 1_555 1_555
C11_4 C10_4 1_555 1_555
H14_4 C11_4 1_555 1_555
H15_4 C11_4 1_555 1_555
C12_4 N3_4 1_555 1_555
H16_4 C12_4 1_555 1_555
C13_4 N3_4 1_555 1_555
C14_4 C13_4 1_555 1_555
H17_4 C14_4 1_555 1_555
C15_4 C14_4 1_555 1_555
H18_4 C15_4 1_555 1_555
C16_4 C15_4 1_555 1_555
C17_4 C16_4 1_555 1_555
H20_4 C17_4 1_555 1_555
C18_4 N4_4 1_555 1_555
O17_2 Co8 1_555 1_555
N4_4 C12_4 1_555 1_555
C3_4 C5_4 1_555 1_555
C13_4 C18_4 1_555 1_555
C17_4 C18_4 1_555 1_555
Co9_2 O8_4 1_555 1_555
S1_4 O4_4 1_555 1_555
O5_4 S1_4 1_555 1_555
O17_2 S1_4 1_555 1_555
O7_4 C35_4 1_555 1_555
O8_4 C35_4 1_555 1_555
C29_4 C28_4 1_555 1_555
C30_4 C29_4 1_555 1_555
H30_4 C30_4 1_555 1_555
C31_4 C30_4 1_555 1_555
C32_4 C31_4 1_555 1_555
H31_4 C32_4 1_555 1_555
C33_4 S1_4 1_555 1_555
C34_4 C29_4 1_555 1_555
H32_4 C34_4 1_555 1_555
C35_4 C31_4 1_555 1_555
C32_4 C33_4 1_555 1_555
C33_4 C34_4 1_555 1_555
Co8_2 O9_4 1_555 1_555
O9_4 H60_4 1_555 1_555
H61_4 O9_4 1_555 1_555
O10_4 Co8_2 1_555 1_555
O18_2 Co8_2 1_555 1_555
N18_2 C65_4 1_555 1_555
N14_4 C66_4 1_555 1_555
N15_4 C73_4 1_555 1_555
C66_4 N18_2 1_555 1_555
H64_4 C66_4 1_555 1_555
C67_4 N14_4 1_555 1_555
C68_4 C67_4 1_555 1_555
H65_4 C68_4 1_555 1_555
C70_4 N14_4 1_555 1_555
H67_4 C70_4 1_555 1_555
H68_4 C70_4 1_555 1_555
C71_4 C70_4 1_555 1_555
H69_4 C71_4 1_555 1_555
H70_4 C71_4 1_555 1_555
C72_4 C71_4 1_555 1_555
H71_4 C72_4 1_555 1_555
H72_4 C72_4 1_555 1_555
C73_4 C72_4 1_555 1_555
H73_4 C73_4 1_555 1_555
H74_4 C73_4 1_555 1_555
C74_4 N15_4 1_555 1_555
H75_4 C74_4 1_555 1_555
C75_4 N15_4 1_555 1_555
C76_4 C75_4 1_555 1_555
H76_4 C76_4 1_555 1_555
C77_4 C76_4 1_555 1_555
H77_4 C77_4 1_555 1_555
C78_4 C77_4 1_555 1_555
C79_4 C78_4 1_555 1_555
H79_4 C79_4 1_555 1_555
C80_4 N16_4 1_555 1_555
N16_4 C74_4 1_555 1_555
C65_4 C67_4 1_555 1_555
C75_4 C80_4 1_555 1_555
C79_4 C80_4 1_555 1_555
S2_4 O12_4 1_555 1_555
O13_4 S2_4 1_555 1_555
O18_2 S2_4 1_555 1_555
O15_4 C88_4 1_555 1_555
O16_4 Co9_3 1_555 1_555
C82_4 C81_4 1_555 1_555
C83_4 C82_4 1_555 1_555
H80_4 C83_4 1_555 1_555
C84_4 C83_4 1_555 1_555
C85_4 C84_4 1_555 1_555
H81_4 C85_4 1_555 1_555
C86_4 S2_4 1_555 1_555
C87_4 C82_4 1_555 1_555
H82_4 C87_4 1_555 1_555
C88_4 O16_4 1_555 1_555
C84_4 C88_4 1_555 1_555
C85_4 C86_4 1_555 1_555
C86_4 C87_4 1_555 1_555
H56_4 C58_4 1_555 1_555
C63_3 H62_3 1_555 1_555
C64_3 C63_3 1_555 1_555
H63_3 C64_3 1_555 1_555
C69_3 C63_3 1_555 1_555
H66_3 C69_3 1_555 1_555
H38_4 C40_4 1_555 1_555
C1_3 H3_3 1_555 1_555
C2_3 C1_3 1_555 1_555
H4_3 C2_3 1_555 1_555
C7_3 C1_3 1_555 1_555
H7_3 C7_3 1_555 1_555
C1_4 H3_4 1_555 1_555
C2_4 C1_4 1_555 1_555
H4_4 C2_4 1_555 1_555
C7_4 C1_4 1_555 1_555
H7_4 C7_4 1_555 1_555
C63_4 H62_4 1_555 1_555
C64_4 C63_4 1_555 1_555
H63_4 C64_4 1_555 1_555
C69_4 C63_4 1_555 1_555
H66_4 C69_4 1_555 1_555

#END
