
###############################################################################
#
# This file contains modified crystal structure data generated from the
# MOF subset of the Cambridge Structural Database (CSD) v543 
# hosted by the Cambridge Crystallographic Data Centre (CCDC).
#
# This work is licensed under the Creative Commons
# Attribution-NonCommercial-ShareAlike 4.0 International License.
# To view a copy of this license, visit
# http://creativecommons.org/licenses/by-nc-sa/4.0/
# or send a letter to
# Creative Commons, PO Box 1866, Mountain View, CA 94042, USA.
#
# CIF created using the CSD Python API on 29 September 2022
# The structure has been converted into the P1 space group
# The structure has a 3D framework
# The original CSD entry TUPZOW is in the triclinic crystal system
# The framework has been calculated to contain at least 10.0% void space
# The void calculation uses a probe of radius 1.32A, grid spacing 0.4
# The framework is charged, counterions have been retained in the structure
# H atom positions have been added when not included in the experimental data
# Generated hydrogen atom positions removed from atoms on special positions
#
###############################################################################

data_TUPZOW
_chemical_formula_moiety         '(C48 H28 Nd3 O26 1-)n'
_symmetry_cell_setting           triclinic
_symmetry_space_group_name_H-M   'P 1'
_symmetry_Int_Tables_number      1
_space_group_name_Hall           'P 1'
loop_
_symmetry_equiv_pos_site_id
_symmetry_equiv_pos_as_xyz
1 x,y,z
_cell_length_a                   11.6670(7)
_cell_length_b                   12.2513(7)
_cell_length_c                   13.6783(7)
_cell_angle_alpha                65.086(2)
_cell_angle_beta                 69.150(2)
_cell_angle_gamma                88.083(2)
_cell_volume                     1641.34
loop_
_atom_site_label
_atom_site_type_symbol
_atom_site_fract_x
_atom_site_fract_y
_atom_site_fract_z
Nd1 Nd 0.5000 0.5000 0.0000
O1 O 0.2836(3) 0.4528(3) 0.0799(4)
O2 O 0.2917(3) 0.3127(3) 0.0182(3)
O9 O 0.5231(3) 0.4675(3) 0.1920(3)
O10 O 0.4708(4) 0.3091(3) 0.1771(3)
O11 O 0.4381(3) 0.3704(3) 0.6269(3)
O12 O 0.4950(4) 0.1971(3) 0.7229(3)
C1 C 0.2321(4) 0.3749(4) 0.0661(4)
C5 C 0.4933(4) 0.3542(4) 0.2363(3)
C6 C 0.4712(5) 0.2697(4) 0.6358(4)
C13 C 0.4896(4) 0.3139(4) 0.4334(4)
H5 H 0.4881 0.3959 0.4156
C14 C 0.4970(4) 0.2727(4) 0.3510(4)
C15 C 0.4846(5) 0.2311(4) 0.5421(4)
C16 C 0.4883(5) 0.1083(4) 0.5674(4)
H6 H 0.4843 0.0537 0.6411
C17 C 0.4979(5) 0.0650(4) 0.4864(4)
C18 C 0.4999(5) 0.1496(4) 0.3791(4)
H7 H 0.5035 0.1231 0.3237
C19 C 0.0276(4) 0.2815(4) 0.0928(4)
H8 H 0.0677 0.2259 0.0676
C23 C 0.0942(4) 0.3637(4) 0.1047(4)
C24 C 0.0347(4) 0.4478(4) 0.1414(4)
H10 H 0.0796 0.5024 0.1497
Nd11 Nd 0.42820(2) 0.32915(2) 0.82673(2)
Nd14 Nd 0.57180(2) 0.67085(2) 0.17327(2)
O32 O 0.4322(3) 0.6593(2) 0.0578(3)
Nd1_2 Nd 0.5000 0.5000 1.0000
O13 O 0.6487(4) 0.4007(4) 0.6938(3)
O24 O 0.2584(3) 0.1757(3) 0.9037(3)
O25 O 0.1357(4) 0.1692(3) 0.8147(4)
C36 C 0.2046(4) 0.1211(4) 0.8700(4)
O27 O 0.7164(3) 0.5472(3) 0.9201(4)
O29 O 0.2623(3) 0.4470(3) 0.7908(3)
O30 O 0.5678(3) 0.3407(2) 0.9422(3)
O33 O 0.5247(3) 0.1660(3) 0.9460(3)
O36 O 0.4769(3) 0.5325(3) 0.8080(3)
O37 O 0.5292(4) 0.6909(3) 0.8229(3)
O16 O 0.5619(3) 0.6296(3) 0.3731(3)
O17 O 0.5050(4) 0.8029(3) 0.2771(3)
C25 C 0.5067(4) 0.6458(4) 0.7637(3)
C26 C 0.5288(5) 0.7303(4) 0.3642(4)
C27 C 0.5104(4) 0.6861(4) 0.5666(4)
H11 H 0.5119 0.6041 0.5844
C28 C 0.5030(4) 0.7273(4) 0.6490(4)
C29 C 0.5154(5) 0.7689(4) 0.4579(4)
C30 C 0.5117(5) 0.8917(4) 0.4326(4)
H12 H 0.5157 0.9463 0.3589
C31 C 0.5021(5) 0.9350(4) 0.5136(4)
C32 C 0.5001(5) 0.8504(4) 0.6209(4)
H13 H 0.4965 0.8769 0.6763
O23 O 0.4753(3) 0.8340(3) 0.0540(3)
C35 C 0.4192(4) 0.7707(4) 0.0292(4)
O20 O 0.0803(3) 0.3711(3) 0.8094(3)
H14 H 0.118(3) 0.293(5) 0.824(5)
C34 C 0.1512(4) 0.4503(4) 0.8082(4)
C37 C 0.1537(4) 0.9188(4) 0.8762(4)
H15 H 0.0945 0.9512 0.8451
C38 C 0.1712(4) 0.7981(4) 0.9020(4)
C39 C 0.2591(4) 0.7512(4) 0.9520(4)
H16 H 0.2710 0.6704 0.9716
C40 C 0.3283(4) 0.8231(4) 0.9726(4)
C41 C 0.3106(4) 0.9431(4) 0.9439(4)
H17 H 0.3576 0.9919 0.9566
C42 C 0.2228(4) 0.9913(4) 0.8962(4)
C44 C 0.0903(4) 0.5492(4) 0.8344(4)
C45 C 0.1570(4) 0.6324(4) 0.8449(4)
H19 H 0.2416 0.6313 0.8272
C46 C 0.0997(4) 0.7180(4) 0.8814(4)
O3 O 0.9197(3) 0.6289(3) 0.1906(3)
H1 H 0.882(3) 0.707(5) 0.176(5)
O4 O 0.7377(3) 0.5530(3) 0.2092(3)
C2 C 0.8488(4) 0.5497(4) 0.1918(4)
C7 C 0.8463(4) 0.0812(4) 0.1238(4)
H2 H 0.9055 0.0488 0.1549
C8 C 0.8288(4) 0.2019(4) 0.0980(4)
C9 C 0.7409(4) 0.2488(4) 0.0480(4)
H3 H 0.7290 0.3296 0.0284
C10 C 0.6717(4) 0.1769(4) 0.0274(4)
C11 C 0.6894(4) 0.0569(4) 0.0561(4)
H4 H 0.6424 0.0081 0.0434
C12 C 0.7772(4) 0.0087(4) 0.1038(4)
C20 C 0.9097(4) 0.4508(4) 0.1656(4)
C21 C 0.8430(4) 0.3676(4) 0.1551(4)
H9 H 0.7584 0.3687 0.1728
C22 C 0.9003(4) 0.2820(4) 0.1186(4)
C3 C 0.5808(4) 0.2293(4) 0.9708(4)
O7 O 0.7416(3) 0.8243(3) 0.0963(3)
O8 O 0.8643(4) 0.8308(3) 0.1853(4)
C4 C 0.7954(4) 0.8789(4) 0.1300(4)
O26 O 0.3513(4) 0.5993(4) 0.3062(3)
O19 O 0.7083(3) 0.6873(3) 0.9818(3)
C33 C 0.7679(4) 0.6251(4) 0.9339(4)
C43 C 0.9724(4) 0.7185(4) 0.9072(4)
H18 H 0.9323 0.7741 0.9324
C47 C 0.9058(4) 0.6363(4) 0.8953(4)
C48 C 0.9653(4) 0.5522(4) 0.8586(4)
H20 H 0.9204 0.4976 0.8503
loop_
_geom_bond_atom_site_label_1
_geom_bond_atom_site_label_2
_geom_bond_site_symmetry_1
_geom_bond_site_symmetry_2
Nd1 O1 1_555 1_555
O1 C1 1_555 1_555
O2 C1 1_555 1_555
O9 Nd1 1_555 1_555
O10 Nd1 1_555 1_555
O11 C6 1_555 1_555
O12 C6 1_555 1_555
C1 C23 1_555 1_555
C5 O9 1_555 1_555
C6 C15 1_555 1_555
C13 H5 1_555 1_555
C14 C5 1_555 1_555
C15 C13 1_555 1_555
C16 C15 1_555 1_555
H6 C16 1_555 1_555
C17 C16 1_555 1_555
C18 C14 1_555 1_555
H7 C18 1_555 1_555
C19 H8 1_555 1_555
C23 C19 1_555 1_555
H10 C24 1_555 1_555
Nd11 O11 1_555 1_555
Nd14 O9 1_555 1_555
O32 Nd1 1_555 1_555
O10 C5 1_555 1_555
O12 Nd11 1_555 1_555
C13 C14 1_555 1_555
C17 C18 1_555 1_555
C23 C24 1_555 1_555
Nd14 O32 1_555 1_555
O13 Nd11 1_555 1_555
O24 Nd11 1_555 1_555
O25 C36 1_555 1_555
C36 O24 1_555 1_555
O27 Nd1_2 1_555 1_555
O29 Nd11 1_555 1_555
O30 Nd1_2 1_555 1_555
O33 Nd11 1_555 1_555
O36 Nd1_2 1_555 1_555
O37 Nd1_2 1_555 1_555
Nd11 O30 1_555 1_555
Nd11 O36 1_555 1_555
O36 C25 1_555 1_555
O37 C25 1_555 1_555
O16 C26 1_555 1_555
O17 C26 1_555 1_555
C25 C28 1_555 1_555
C26 C29 1_555 1_555
C27 H11 1_555 1_555
C28 C27 1_555 1_555
C29 C27 1_555 1_555
C30 C29 1_555 1_555
H12 C30 1_555 1_555
C32 C28 1_555 1_555
H13 C32 1_555 1_555
O32 C35 1_555 1_555
O23 C35 1_555 1_555
Nd14 O16 1_555 1_555
O17 Nd14 1_555 1_555
C30 C31 1_555 1_555
C31 C32 1_555 1_555
O23 Nd14 1_555 1_555
O20 H14 1_555 1_555
O29 C34 1_555 1_555
C34 O20 1_555 1_555
C37 H15 1_555 1_555
C38 C37 1_555 1_555
C39 C38 1_555 1_555
H16 C39 1_555 1_555
C40 C39 1_555 1_555
C41 C40 1_555 1_555
H17 C41 1_555 1_555
C44 C34 1_555 1_555
C45 C44 1_555 1_555
H19 C45 1_555 1_555
C46 C38 1_555 1_555
C37 C42 1_555 1_555
C41 C42 1_555 1_555
C45 C46 1_555 1_555
O3 H1 1_555 1_555
O4 C2 1_555 1_555
C2 O3 1_555 1_555
C7 H2 1_555 1_555
C8 C7 1_555 1_555
C9 C8 1_555 1_555
H3 C9 1_555 1_555
C10 C9 1_555 1_555
C11 C10 1_555 1_555
H4 C11 1_555 1_555
C12 C7 1_555 1_555
C20 C2 1_555 1_555
C21 C20 1_555 1_555
H9 C21 1_555 1_555
C22 C8 1_555 1_555
Nd14 O4 1_555 1_555
C11 C12 1_555 1_555
C21 C22 1_555 1_555
O30 C3 1_555 1_555
O33 C3 1_555 1_555
O7 C4 1_555 1_555
O8 C4 1_555 1_555
Nd14 O7 1_555 1_555
O26 Nd14 1_555 1_555
O27 C33 1_555 1_555
C33 O19 1_555 1_555
C43 H18 1_555 1_555
C47 C33 1_555 1_555
H20 C48 1_555 1_555
C43 C47 1_555 1_555
C47 C48 1_555 1_555

#END
