
###############################################################################
#
# This file contains modified crystal structure data generated from the
# MOF subset of the Cambridge Structural Database (CSD) v543 
# hosted by the Cambridge Crystallographic Data Centre (CCDC).
#
# This work is licensed under the Creative Commons
# Attribution-NonCommercial-ShareAlike 4.0 International License.
# To view a copy of this license, visit
# http://creativecommons.org/licenses/by-nc-sa/4.0/
# or send a letter to
# Creative Commons, PO Box 1866, Mountain View, CA 94042, USA.
#
# CIF created using the CSD Python API on 29 September 2022
# The structure has been converted into the P1 space group
# The structure has a 3D framework
# The original CSD entry TURDIV is in the monoclinic crystal system
# The original CSD entry TURDIV is in a Sohncke space group
# The framework has been calculated to contain at least 10.0% void space
# The void calculation uses a probe of radius 1.32A, grid spacing 0.4
# The framework is charged, counterions have been retained in the structure
#
###############################################################################

data_TURDIV
_chemical_formula_moiety         '(C92 H76 Co4 N16 O24)n'
_symmetry_cell_setting           triclinic
_symmetry_space_group_name_H-M   'P 1'
_symmetry_Int_Tables_number      1
_space_group_name_Hall           'P 1'
loop_
_symmetry_equiv_pos_site_id
_symmetry_equiv_pos_as_xyz
1 x,y,z
_cell_length_a                   10.2416(6)
_cell_length_b                   24.9560(15)
_cell_length_c                   11.4453(7)
_cell_angle_alpha                90
_cell_angle_beta                 91.106(3)
_cell_angle_gamma                90
_cell_volume                     2924.75
loop_
_atom_site_label
_atom_site_type_symbol
_atom_site_fract_x
_atom_site_fract_y
_atom_site_fract_z
H15 H 0.0393 0.5583 0.5907
Co5 Co 0.04984(16) 0.94129(6) 0.43574(15)
H22 H 0.6392 0.0081 0.4922
C34 C 0.6249(11) 0.0056(5) 0.3101(10)
C39 C 0.7051(13) 0.0497(5) 0.2873(14)
H31 H 0.7546 0.0658 0.3490
C40 C 0.7122(15) 0.0695(7) 0.1770(15)
H32 H 0.7657 0.0999 0.1633
C41 C 0.6438(18) 0.0467(8) 0.0838(14)
H33 H 0.6544 0.0595 0.0064
C42 C 0.5596(18) 0.0047(6) 0.1068(13)
N9 N 0.1262(9) 0.0207(4) 0.4395(9)
N4 N 0.0489(9) 0.9469(4) 0.2460(8)
C7 C 0.0519(12) 0.9511(5) 0.0029(10)
C18 C 0.1586(12) 0.9545(5) 0.1879(10)
H14 H 0.2378 0.9580 0.2319
C21 C 0.1642(12) 0.9577(5) 0.0712(10)
H17 H 0.2453 0.9644 0.0351
Co1 Co 0.54913(16) 0.86145(6) 0.45244(14)
O1 O 0.7364(8) 0.8937(3) 0.4475(7)
O2 O 0.2362(7) 0.9088(3) 0.4410(7)
N1 N 0.5379(9) 0.8530(4) 0.2625(9)
O3 O 0.8605(8) 0.9666(3) 0.4313(7)
N3 N 0.0500(9) 0.9448(5) 0.6226(7)
O4 O 0.3607(8) 0.8357(3) 0.4516(7)
C1 C 0.2525(10) 0.8595(5) 0.4438(8)
C3 C 0.4304(11) 0.8551(5) 0.2007(9)
H2 H 0.3499 0.8577 0.2401
C4 C 0.1595(12) 0.9349(5) 0.6958(13)
H3 H 0.2382 0.9252 0.6585
O5 O 0.0176(8) 0.8548(3) 0.4223(8)
N5 N 0.8738(9) 0.5207(4) 0.5605(9)
O6 O 0.5180(8) 0.9479(3) 0.4511(7)
H6 H 0.467(7) 0.957(4) 0.510(8)
N6 N 0.6310(9) 0.7827(4) 0.4656(8)
C8 C 0.1636(11) 0.9376(6) 0.8140(10)
H7 H 0.2424 0.9303 0.8562
C9 C 0.5443(11) 0.8486(5) 0.0175(9)
C11 C 0.7507(11) 0.9427(5) 0.4379(8)
C12 C 0.4281(11) 0.8538(5) 0.0808(9)
H9 H 0.3469 0.8565 0.0397
C13 C 0.1330(11) 0.8230(5) 0.4380(11)
H10 H 0.1411 0.7990 0.3685
C15 C 0.6521(12) 0.8461(5) 0.2060(10)
H12 H 0.7307 0.8430 0.2508
C16 C 0.7498(13) 0.5308(5) 0.5448(16)
H13 H 0.6915 0.5012 0.5449
C17 C 0.0529(13) 0.9511(5) 0.8713(11)
C19 C 0.9500(15) 0.5633(7) 0.569(2)
C22 C 0.6578(12) 0.8435(5) 0.0884(12)
H18 H 0.7398 0.8380 0.0528
C24 C 0.7762(11) 0.6245(5) 0.5302(11)
C25 C 0.7250(12) 0.6796(5) 0.5083(10)
C28 C 0.6312(11) 0.9797(5) 0.4309(10)
C29 C 0.9057(16) 0.6144(7) 0.549(2)
H23 H 0.9662 0.6432 0.5484
C30 C 0.8054(12) 0.7234(5) 0.5218(11)
H24 H 0.8941 0.7190 0.5457
C31 C 0.6971(13) 0.5804(5) 0.5282(16)
H25 H 0.6057 0.5843 0.5154
C32 C 0.5991(14) 0.6880(5) 0.4709(17)
H26 H 0.5411 0.6586 0.4607
C33 C 0.5511(14) 0.9840(5) 0.2173(12)
H27 H 0.4943 0.9547 0.2311
C35 C 0.0646(15) 0.8059(6) 0.6473(11)
H28 H 0.0141 0.8379 0.6473
C36 C 0.1954(15) 0.7386(6) 0.5451(18)
H29 H 0.2335 0.7247 0.4764
C37 C 0.1283(11) 0.7881(4) 0.5463(11)
C38 C 0.202(2) 0.7110(9) 0.654(2)
H30 H 0.2484 0.6780 0.6571
H34 H 0.5072 0.9900 0.0453
C43 C 0.079(2) 0.7741(9) 0.7482(16)
H35 H 0.0384 0.7861 0.8172
C44 C 0.7539(11) 0.7748(5) 0.4996(11)
H36 H 0.8095 0.8050 0.5094
C45 C 0.5563(14) 0.7404(6) 0.4477(16)
H37 H 0.4701 0.7455 0.4178
C46 C 0.145(2) 0.7292(10) 0.754(2)
H38 H 0.1540 0.7100 0.8255
Co6 Co 0.95016(16) 0.44129(6) 0.56426(15)
N7 N 0.5468(10) 0.8574(4) 0.6417(7)
C5 C 0.6503(13) 0.8709(6) 0.7137(11)
H4 H 0.7272 0.8832 0.6770
C6 C 0.5469(11) 0.8497(5) 0.8912(11)
C10 C 0.6534(13) 0.8686(7) 0.8301(10)
H8 H 0.7295 0.8800 0.8718
C23 C 0.4456(13) 0.8367(5) 0.7016(11)
H19 H 0.3734 0.8234 0.6570
C27 C 0.4382(12) 0.8332(5) 0.8218(11)
H21 H 0.3615 0.8200 0.8572
C2 C 0.9441(12) 0.9609(6) 0.6846(12)
H1 H 0.8673 0.9711 0.6423
H5 H 0.960(5) 0.8350(13) 0.382(8)
C14 C 0.9424(13) 0.9634(6) 0.8055(12)
H11 H 0.8646 0.9737 0.8434
C2_2 C 0.0559(12) 0.4609(6) 0.3154(12)
H1_2 H 0.1327 0.4711 0.3577
H5_2 H 0.040(5) 0.3350(13) 0.618(8)
C14_2 C 0.0576(13) 0.4634(6) 0.1945(12)
H11_2 H 0.1354 0.4737 0.1566
O7 O 0.1395(8) 0.4666(3) 0.5687(7)
N2 N 0.4532(10) 0.3574(4) 0.3583(7)
C5_2 C 0.3497(13) 0.3709(6) 0.2863(11)
H4_2 H 0.2728 0.3832 0.3230
C6_2 C 0.4531(11) 0.3497(5) 0.1088(11)
C10_2 C 0.3466(13) 0.3686(7) 0.1699(10)
H8_2 H 0.2705 0.3800 0.1282
C23_2 C 0.5544(13) 0.3367(5) 0.2984(11)
H19_2 H 0.6266 0.3234 0.3430
C27_2 C 0.5618(12) 0.3332(5) 0.1782(11)
H21_2 H 0.6385 0.3200 0.1428
Co3 Co 0.45087(16) 0.36145(6) 0.54756(14)
O1_2 O 0.2636(8) 0.3937(3) 0.5525(7)
O2_2 O 0.7638(7) 0.4088(3) 0.5590(7)
N1_2 N 0.4621(9) 0.3530(4) 0.7375(9)
N3_2 N 0.9500(9) 0.4448(5) 0.3774(7)
O4_2 O 0.6393(8) 0.3357(3) 0.5484(7)
C1_2 C 0.7475(10) 0.3595(5) 0.5562(8)
C3_2 C 0.5696(11) 0.3551(5) 0.7993(9)
H2_2 H 0.6501 0.3577 0.7599
C4_2 C 0.8405(12) 0.4349(5) 0.3042(13)
H3_2 H 0.7618 0.4252 0.3415
O5_2 O 0.9824(8) 0.3548(3) 0.5777(8)
O6_2 O 0.4820(8) 0.4479(3) 0.5489(7)
H6_2 H 0.533(7) 0.457(4) 0.490(8)
N6_2 N 0.3690(9) 0.2827(4) 0.5344(8)
C8_2 C 0.8364(11) 0.4376(6) 0.1860(10)
H7_2 H 0.7576 0.4303 0.1438
C9_2 C 0.4557(11) 0.3486(5) 0.9825(9)
C11_2 C 0.2493(11) 0.4427(5) 0.5621(8)
C12_2 C 0.5719(11) 0.3538(5) 0.9192(9)
H9_2 H 0.6531 0.3565 0.9603
C13_2 C 0.8670(11) 0.3230(5) 0.5620(11)
H10_2 H 0.8589 0.2990 0.6315
C15_2 C 0.3479(12) 0.3461(5) 0.7940(10)
H12_2 H 0.2693 0.3430 0.7492
C16_2 C 0.2502(13) 0.0308(5) 0.4552(16)
H13_2 H 0.3085 0.0012 0.4551
C17_2 C 0.9471(13) 0.4511(5) 0.1287(11)
C19_2 C 0.0500(15) 0.0633(7) 0.431(2)
C22_2 C 0.3422(12) 0.3435(5) 0.9116(12)
H18_2 H 0.2602 0.3380 0.9472
C24_2 C 0.2238(11) 0.1245(5) 0.4698(11)
C25_2 C 0.2750(12) 0.1796(5) 0.4917(10)
C28_2 C 0.3688(11) 0.4797(5) 0.5691(10)
H22_2 H 0.3608 0.5081 0.5078
C29_2 C 0.0943(16) 0.1144(7) 0.451(2)
H23_2 H 0.0338 0.1432 0.4516
C30_2 C 0.1946(12) 0.2234(5) 0.4782(11)
H24_2 H 0.1059 0.2190 0.4543
C31_2 C 0.3029(13) 0.0804(5) 0.4718(16)
H25_2 H 0.3943 0.0843 0.4846
C32_2 C 0.4009(14) 0.1880(5) 0.5291(17)
H26_2 H 0.4589 0.1586 0.5393
C33_2 C 0.4489(14) 0.4840(5) 0.7827(12)
H27_2 H 0.5057 0.4547 0.7689
C34_2 C 0.3751(11) 0.5056(5) 0.6899(10)
C35_2 C 0.9354(15) 0.3059(6) 0.3527(11)
H28_2 H 0.9859 0.3379 0.3527
C36_2 C 0.8046(15) 0.2386(6) 0.4549(18)
H29_2 H 0.7665 0.2247 0.5236
C37_2 C 0.8717(11) 0.2881(4) 0.4537(11)
C38_2 C 0.798(2) 0.2110(9) 0.346(2)
H30_2 H 0.7516 0.1780 0.3429
C39_2 C 0.2949(13) 0.5497(5) 0.7127(14)
H31_2 H 0.2454 0.5658 0.6510
C40_2 C 0.2878(15) 0.5695(7) 0.8230(15)
H32_2 H 0.2343 0.5999 0.8367
C41_2 C 0.3562(18) 0.5467(8) 0.9162(14)
H33_2 H 0.3456 0.5595 0.9936
C42_2 C 0.4404(18) 0.5047(6) 0.8932(13)
H34_2 H 0.4928 0.4900 0.9547
C43_2 C 0.921(2) 0.2741(9) 0.2518(16)
H35_2 H 0.9616 0.2861 0.1828
C44_2 C 0.2461(11) 0.2748(5) 0.5004(11)
H36_2 H 0.1905 0.3050 0.4906
C45_2 C 0.4437(14) 0.2404(6) 0.5523(16)
H37_2 H 0.5299 0.2455 0.5822
C46_2 C 0.855(2) 0.2292(10) 0.246(2)
H38_2 H 0.8460 0.2100 0.1745
N8 N 0.9511(9) 0.4469(4) 0.7540(8)
C7_2 C 0.9481(12) 0.4511(5) 0.9971(10)
C18_2 C 0.8414(12) 0.4545(5) 0.8121(10)
H14_2 H 0.7622 0.4580 0.7681
C21_2 C 0.8358(12) 0.4577(5) 0.9288(10)
H17_2 H 0.7547 0.4644 0.9649
H15_2 H 0.9607 0.0583 0.4093
C20 C 0.9397(12) 0.9421(6) 0.1842(9)
H16 H 0.8606 0.9367 0.2245
C26 C 0.9345(11) 0.9444(6) 0.0653(11)
H20 H 0.8531 0.9415 0.0246
C20_2 C 0.0603(12) 0.4421(6) 0.8158(9)
H16_2 H 0.1394 0.4367 0.7755
C26_2 C 0.0655(11) 0.4444(6) 0.9347(11)
H20_2 H 0.1469 0.4415 0.9754
N10 N 0.0161(12) 0.8162(4) 0.1335(10)
O10 O 0.1331(9) 0.8256(4) 0.1528(10)
O8 O 0.9383(8) 0.8137(4) 0.2180(8)
O9 O 0.9728(9) 0.8086(5) 0.0306(9)
O8_2 O 0.0617(8) 0.3137(4) 0.7820(8)
O9_2 O 0.0272(9) 0.3086(5) 0.9694(9)
N10_2 N 0.9839(12) 0.3162(4) 0.8665(10)
O10_2 O 0.8669(9) 0.3256(4) 0.8472(10)
O11 O 0.4396(9) 0.9804(4) 0.6572(8)
O12 O 0.6379(10) 0.9949(4) 0.7127(10)
O13 O 0.4873(13) 0.9881(8) 0.8382(11)
N11 N 0.5225(11) 0.9888(5) 0.7383(10)
O11_2 O 0.5604(9) 0.4804(4) 0.3428(8)
O12_2 O 0.3621(10) 0.4949(4) 0.2873(10)
O13_2 O 0.5127(13) 0.4881(8) 0.1618(11)
N11_2 N 0.4775(11) 0.4888(5) 0.2617(10)
loop_
_geom_bond_atom_site_label_1
_geom_bond_atom_site_label_2
_geom_bond_site_symmetry_1
_geom_bond_site_symmetry_2
C39 C34 1_555 1_555
H31 C39 1_555 1_555
C40 C39 1_555 1_555
H32 C40 1_555 1_555
C41 C40 1_555 1_555
H33 C41 1_555 1_555
C41 C42 1_555 1_555
N4 C18 1_555 1_555
C18 H14 1_555 1_555
C21 C7 1_555 1_555
H17 C21 1_555 1_555
Co5 N4 1_555 1_555
C18 C21 1_555 1_555
Co1 O1 1_555 1_555
Co5 O2 1_555 1_555
O1 C11 1_555 1_555
O2 C1 1_555 1_555
N1 Co1 1_555 1_555
O3 C11 1_555 1_555
N3 Co5 1_555 1_555
O4 Co1 1_555 1_555
C1 O4 1_555 1_555
C3 N1 1_555 1_555
H2 C3 1_555 1_555
C4 N3 1_555 1_555
H3 C4 1_555 1_555
O5 Co5 1_555 1_555
N5 C16 1_555 1_555
O6 Co1 1_555 1_555
H6 O6 1_555 1_555
N6 Co1 1_555 1_555
C8 C4 1_555 1_555
H7 C8 1_555 1_555
C9 C12 1_555 1_555
C11 C28 1_555 1_555
C12 C3 1_555 1_555
H9 C12 1_555 1_555
C13 C1 1_555 1_555
H10 C13 1_555 1_555
C15 N1 1_555 1_555
H12 C15 1_555 1_555
C16 H13 1_555 1_555
C17 C8 1_555 1_555
C19 N5 1_555 1_555
C22 C9 1_555 1_555
H18 C22 1_555 1_555
C24 C25 1_555 1_555
C25 C30 1_555 1_555
C28 O6 1_555 1_555
C29 C19 1_555 1_555
H23 C29 1_555 1_555
C30 H24 1_555 1_555
C31 C16 1_555 1_555
H25 C31 1_555 1_555
C32 C25 1_555 1_555
H26 C32 1_555 1_555
C33 H27 1_555 1_555
C35 H28 1_555 1_555
C36 H29 1_555 1_555
C37 C13 1_555 1_555
C38 C36 1_555 1_555
H30 C38 1_555 1_555
C43 C35 1_555 1_555
H35 C43 1_555 1_555
C44 N6 1_555 1_555
H36 C44 1_555 1_555
C45 N6 1_555 1_555
H37 C45 1_555 1_555
C46 C38 1_555 1_555
H38 C46 1_555 1_555
Co6 N5 1_555 1_555
N7 Co1 1_555 1_555
O5 C13 1_555 1_555
C15 C22 1_555 1_555
C24 C29 1_555 1_555
C24 C31 1_555 1_555
C30 C44 1_555 1_555
C32 C45 1_555 1_555
C35 C37 1_555 1_555
C36 C37 1_555 1_555
C43 C46 1_555 1_555
N7 C5 1_555 1_555
C5 H4 1_555 1_555
C10 C5 1_555 1_555
H8 C10 1_555 1_555
C23 N7 1_555 1_555
H19 C23 1_555 1_555
C27 C6 1_555 1_555
H21 C27 1_555 1_555
C6 C10 1_555 1_555
C23 C27 1_555 1_555
H1 C2 1_555 1_555
C14 C2 1_555 1_555
H11 C14 1_555 1_555
H1_2 C2_2 1_555 1_555
C14_2 C2_2 1_555 1_555
H11_2 C14_2 1_555 1_555
N2 C5_2 1_555 1_555
C5_2 H4_2 1_555 1_555
C10_2 C5_2 1_555 1_555
H8_2 C10_2 1_555 1_555
C23_2 N2 1_555 1_555
H19_2 C23_2 1_555 1_555
C27_2 C6_2 1_555 1_555
H21_2 C27_2 1_555 1_555
Co3 N2 1_555 1_555
C6_2 C10_2 1_555 1_555
C23_2 C27_2 1_555 1_555
Co3 O1_2 1_555 1_555
Co6 O2_2 1_555 1_555
O1_2 C11_2 1_555 1_555
O2_2 C1_2 1_555 1_555
N1_2 Co3 1_555 1_555
O7 C11_2 1_555 1_555
N3_2 Co6 1_555 1_555
O4_2 Co3 1_555 1_555
C1_2 O4_2 1_555 1_555
C3_2 N1_2 1_555 1_555
H2_2 C3_2 1_555 1_555
C4_2 N3_2 1_555 1_555
H3_2 C4_2 1_555 1_555
O5_2 Co6 1_555 1_555
N9 C16_2 1_555 1_555
O6_2 Co3 1_555 1_555
H6_2 O6_2 1_555 1_555
N6_2 Co3 1_555 1_555
C8_2 C4_2 1_555 1_555
H7_2 C8_2 1_555 1_555
C9_2 C12_2 1_555 1_555
C11_2 C28_2 1_555 1_555
C12_2 C3_2 1_555 1_555
H9_2 C12_2 1_555 1_555
C13_2 C1_2 1_555 1_555
H10_2 C13_2 1_555 1_555
C15_2 N1_2 1_555 1_555
H12_2 C15_2 1_555 1_555
C16_2 H13_2 1_555 1_555
C17_2 C8_2 1_555 1_555
C19_2 N9 1_555 1_555
C22_2 C9_2 1_555 1_555
H18_2 C22_2 1_555 1_555
C24_2 C25_2 1_555 1_555
C25_2 C30_2 1_555 1_555
C28_2 O6_2 1_555 1_555
H22_2 C28_2 1_555 1_555
C29_2 C19_2 1_555 1_555
H23_2 C29_2 1_555 1_555
C30_2 H24_2 1_555 1_555
C31_2 C16_2 1_555 1_555
H25_2 C31_2 1_555 1_555
C32_2 C25_2 1_555 1_555
H26_2 C32_2 1_555 1_555
C33_2 H27_2 1_555 1_555
C34_2 C28_2 1_555 1_555
C35_2 H28_2 1_555 1_555
C36_2 H29_2 1_555 1_555
C37_2 C13_2 1_555 1_555
C38_2 C36_2 1_555 1_555
H30_2 C38_2 1_555 1_555
C39_2 C34_2 1_555 1_555
H31_2 C39_2 1_555 1_555
C40_2 C39_2 1_555 1_555
H32_2 C40_2 1_555 1_555
C41_2 C40_2 1_555 1_555
H33_2 C41_2 1_555 1_555
C42_2 C33_2 1_555 1_555
H34_2 C42_2 1_555 1_555
C43_2 C35_2 1_555 1_555
H35_2 C43_2 1_555 1_555
C44_2 N6_2 1_555 1_555
H36_2 C44_2 1_555 1_555
C45_2 N6_2 1_555 1_555
H37_2 C45_2 1_555 1_555
C46_2 C38_2 1_555 1_555
H38_2 C46_2 1_555 1_555
N8 Co6 1_555 1_555
O5_2 C13_2 1_555 1_555
C15_2 C22_2 1_555 1_555
C24_2 C29_2 1_555 1_555
C24_2 C31_2 1_555 1_555
C30_2 C44_2 1_555 1_555
C32_2 C45_2 1_555 1_555
C33_2 C34_2 1_555 1_555
C35_2 C37_2 1_555 1_555
C36_2 C37_2 1_555 1_555
C41_2 C42_2 1_555 1_555
C43_2 C46_2 1_555 1_555
N8 C18_2 1_555 1_555
C18_2 H14_2 1_555 1_555
C21_2 C7_2 1_555 1_555
H17_2 C21_2 1_555 1_555
C18_2 C21_2 1_555 1_555
H16 C20 1_555 1_555
H20 C26 1_555 1_555
C20 C26 1_555 1_555
H16_2 C20_2 1_555 1_555
H20_2 C26_2 1_555 1_555
C20_2 C26_2 1_555 1_555
O10 N10 1_555 1_555
O10_2 N10_2 1_555 1_555
O11 N11 1_555 1_555
O12 N11 1_555 1_555
O13 N11 1_555 1_555
O11_2 N11_2 1_555 1_555
O12_2 N11_2 1_555 1_555
O13_2 N11_2 1_555 1_555

#END
