
###############################################################################
#
# This file contains modified crystal structure data generated from the
# MOF subset of the Cambridge Structural Database (CSD) v543 
# hosted by the Cambridge Crystallographic Data Centre (CCDC).
#
# This work is licensed under the Creative Commons
# Attribution-NonCommercial-ShareAlike 4.0 International License.
# To view a copy of this license, visit
# http://creativecommons.org/licenses/by-nc-sa/4.0/
# or send a letter to
# Creative Commons, PO Box 1866, Mountain View, CA 94042, USA.
#
# CIF created using the CSD Python API on 29 September 2022
# The structure has been converted into the P1 space group
# The structure has a 3D framework
# The original CSD entry TURDUH is in the monoclinic crystal system
# The original CSD entry TURDUH is in a Sohncke space group
# The framework has been calculated to contain at least 10.0% void space
# The void calculation uses a probe of radius 1.32A, grid spacing 0.4
# The framework is charged, counterions have been retained in the structure
#
###############################################################################

data_TURDUH
_chemical_formula_moiety         '(C184 H152 Co8 N32 O48)n'
_symmetry_cell_setting           triclinic
_symmetry_space_group_name_H-M   'P 1'
_symmetry_Int_Tables_number      1
_space_group_name_Hall           'P 1'
loop_
_symmetry_equiv_pos_site_id
_symmetry_equiv_pos_as_xyz
1 x,y,z
_cell_length_a                   11.4393(2)
_cell_length_b                   24.6749(5)
_cell_length_c                   20.3245(4)
_cell_angle_alpha                90
_cell_angle_beta                 92.3471(6)
_cell_angle_gamma                90
_cell_volume                     5732.05
loop_
_atom_site_label
_atom_site_type_symbol
_atom_site_fract_x
_atom_site_fract_y
_atom_site_fract_z
N3 N 0.2547(3) 0.50366(16) 0.26588(17)
N9 N 0.2524(3) 0.59586(15) 0.01249(17)
C16 C 0.0091(3) 0.50218(19) 0.2654(2)
C32 C 0.0747(4) 0.51567(19) 0.3211(2)
C33 C 0.0688(4) 0.48759(18) 0.2093(2)
C46 C 0.1965(4) 0.51590(19) 0.3198(2)
H27 H 0.0373 0.5248 0.3605
C47 C 0.1896(4) 0.48842(18) 0.2119(2)
H28 H 0.0268 0.4773 0.1699
H40 H 0.2402 0.5252 0.3589
H41 H 0.2292 0.4777 0.1738
N12 N 0.2670(3) 0.50109(16) 0.75998(17)
C59 C 0.0071(3) 0.59946(18) 0.0115(2)
C70 C 0.0732(3) 0.5832(2) 0.0673(2)
H56 H 0.0355 0.5735 0.1064
C82 C 0.1937(3) 0.58131(19) 0.06536(19)
H68 H 0.2371 0.5691 0.1034
C88 C 0.0215(3) 0.49792(19) 0.7601(2)
C89 C 0.0878(4) 0.51133(19) 0.8157(2)
C90 C 0.0822(4) 0.4845(2) 0.7038(2)
C91 C 0.2082(3) 0.51242(19) 0.8140(2)
H73 H 0.0506 0.5198 0.8554
C92 C 0.2023(4) 0.4863(2) 0.7063(2)
H74 H 0.0406 0.4742 0.6644
H75 H 0.2518 0.5217 0.8532
H76 H 0.2419 0.4765 0.6678
Co5 Co 0.44476(5) 0.50937(2) 0.26380(3)
Co8 Co 0.44296(5) 0.58768(2) 0.01172(3)
Co10 Co 0.45771(5) 0.50598(3) 0.76112(3)
Co6 Co 0.55524(5) 0.00937(2) 0.73620(3)
Co11 Co 0.54229(5) 0.00598(3) 0.23888(3)
O1 O 0.4476(2) 0.54463(12) 0.35628(13)
O2 O 0.4403(2) 0.48149(12) 0.16943(13)
N1 N 0.6342(3) 0.50885(16) 0.26294(17)
O3 O 0.4392(2) 0.59571(12) 0.24304(13)
N2 N 0.5387(3) 0.92852(15) 0.69835(17)
C1 C 0.4273(3) 0.59431(17) 0.36099(18)
C2 C 0.4417(3) 0.50525(18) 0.11468(18)
C3 C 0.6931(4) 0.5142(2) 0.2079(2)
C4 C 0.6974(4) 0.5003(2) 0.3192(2)
H1 H 0.500(3) 0.6056(19) 0.223(2)
C5 C 0.4203(3) 0.62900(17) 0.29834(18)
O4 O 0.4165(2) 0.61951(12) 0.41481(13)
O5 O 0.4543(2) 0.55515(12) 0.10625(13)
C6 C 0.4263(4) 0.46817(18) 0.0546(2)
H2 H 0.6499 0.5202 0.1676
C7 C 0.8137(4) 0.5114(2) 0.2067(2)
H3 H 0.6571 0.4961 0.3588
C8 C 0.8183(4) 0.49741(19) 0.3222(2)
H4 H 0.4844 0.6566 0.3016
C9 C 0.3040(4) 0.65884(17) 0.2919(2)
Co2 Co 0.42515(5) 0.59158(3) 0.51020(3)
H5 H 0.3527 0.4467 0.0585
C10 C 0.5288(4) 0.42941(19) 0.0527(2)
H6 H 0.8517 0.5150 0.1662
C11 C 0.8787(3) 0.50351(19) 0.2646(2)
H7 H 0.8595 0.4913 0.3631
C12 C 0.2121(4) 0.6393(2) 0.2526(2)
C13 C 0.2881(5) 0.7059(2) 0.3285(2)
N4 N 0.2349(3) 0.59855(15) 0.51147(17)
O7 O 0.4406(2) 0.55693(12) 0.60427(13)
N5 N 0.4334(3) 0.67116(15) 0.55227(17)
O8 O 0.4042(3) 0.50476(13) 0.49331(13)
N7 N 0.6325(3) 0.58825(15) 0.00906(16)
N8 N 0.4570(3) 0.66706(14) 0.05336(17)
C14 C 0.5178(5) 0.3778(2) 0.0783(3)
C15 C 0.6339(5) 0.4448(3) 0.0271(3)
H9 H 0.2229 0.6080 0.2263
C17 C 0.1030(5) 0.6654(3) 0.2512(3)
H10 H 0.3512 0.7206 0.3546
C18 C 0.1785(6) 0.7315(3) 0.3267(3)
C19 C 0.1761(4) 0.5826(2) 0.5635(2)
C20 C 0.1716(4) 0.62046(19) 0.4606(2)
C21 C 0.4427(3) 0.50659(18) 0.61085(18)
C22 C 0.4173(4) 0.67963(19) 0.6159(2)
C23 C 0.4658(5) 0.7144(2) 0.5168(2)
C24 C 0.4320(4) 0.47085(18) 0.5489(2)
H11 H 0.333(3) 0.497(2) 0.476(2)
C26 C 0.6949(3) 0.60119(19) 0.0646(2)
C28 C 0.4102(4) 0.67877(18) 0.1109(2)
C29 C 0.5186(4) 0.7062(2) 0.0247(2)
H12 H 0.4459 0.3667 0.0958
C30 C 0.6138(7) 0.3416(3) 0.0784(3)
H13 H 0.6415 0.4802 0.0094
C31 C 0.7292(6) 0.4093(3) 0.0267(4)
H14 H 0.0404 0.6516 0.2239
C34 C 0.0864(5) 0.7103(3) 0.2887(3)
H15 H 0.1675 0.7635 0.3517
H16 H 0.2190 0.5685 0.6006
C35 C 0.0553(4) 0.5859(2) 0.5658(2)
C36 C 0.0508(4) 0.62409(19) 0.4592(2)
H17 H 0.2119 0.6340 0.4242
O10 O 0.4519(2) 0.48145(12) 0.66462(13)
H18 H 0.3922 0.6500 0.6416
C37 C 0.4351(4) 0.72932(19) 0.6466(2)
C38 C 0.4845(5) 0.7651(2) 0.5440(2)
H19 H 0.4763 0.7098 0.4711
C39 C 0.5443(4) 0.43972(19) 0.5412(2)
H20 H 0.3667 0.4444 0.5541
H22 H 0.6541 0.6073 0.1037
C41 C 0.8155(4) 0.60602(19) 0.0674(2)
H23 H 0.3651 0.6518 0.1314
C43 C 0.4243(4) 0.72813(18) 0.1417(2)
C44 C 0.5372(5) 0.7565(2) 0.0527(2)
H25 H 0.6074 0.3063 0.0964
C45 C 0.7173(7) 0.3586(3) 0.0518(4)
H26 H 0.8011 0.4204 0.0092
H29 H 0.0116 0.7271 0.2888
H30 H 0.0176 0.5748 0.6043
H31 H 0.0098 0.6394 0.4221
H32 H 0.4226 0.7331 0.6923
C49 C 0.4712(4) 0.77326(18) 0.6106(2)
H33 H 0.5066 0.7945 0.5169
C50 C 0.5606(7) 0.3917(3) 0.5739(3)
C51 C 0.6301(6) 0.4593(3) 0.5033(4)
C52 C 0.8771(3) 0.59738(17) 0.0105(2)
H35 H 0.8559 0.6151 0.1076
C54 C 0.4896(4) 0.76845(18) 0.1125(2)
H37 H 0.3896 0.7347 0.1826
H38 H 0.5825 0.7828 0.0311
H39 H 0.7815 0.3342 0.0511
N10 N 0.6468(3) 0.50138(16) 0.75968(17)
N11 N 0.5350(3) 0.92605(14) 0.19923(17)
C56 C 0.4945(4) 0.82663(18) 0.6415(2)
C57 C 0.6703(10) 0.3656(4) 0.5701(4)
H42 H 0.5000 0.3763 0.5985
C58 C 0.7369(7) 0.4333(3) 0.5009(5)
H43 H 0.6165 0.4913 0.4782
C62 C 0.5067(4) 0.82268(18) 0.1435(2)
C65 C 0.7046(4) 0.5088(3) 0.7045(2)
C66 C 0.7113(4) 0.49117(19) 0.8144(2)
C67 C 0.4476(4) 0.84164(19) 0.7009(2)
C68 C 0.5666(4) 0.8644(2) 0.6122(2)
C69 C 0.7564(7) 0.3863(4) 0.5335(4)
H45 H 0.6841 0.3328 0.5936
H46 H 0.7972 0.4487 0.4761
C74 C 0.5078(6) 0.8305(2) 0.2107(2)
C75 C 0.5210(6) 0.8680(2) 0.1052(3)
C78 C 0.8245(4) 0.5070(3) 0.7025(2)
H51 H 0.6606 0.5157 0.6647
C79 C 0.8319(4) 0.48875(18) 0.8173(2)
H52 H 0.6717 0.4852 0.8539
C80 C 0.4717(4) 0.89193(19) 0.7273(2)
H53 H 0.3988 0.8171 0.7232
C81 C 0.5854(4) 0.9149(2) 0.6419(2)
H54 H 0.6027 0.8559 0.5722
H55 H 0.8291 0.3679 0.5309
C85 C 0.5212(6) 0.8825(2) 0.2361(2)
H60 H 0.4994 0.8005 0.2395
C86 C 0.5343(5) 0.9180(2) 0.1347(2)
H61 H 0.5217 0.8648 0.0586
C87 C 0.8917(4) 0.4976(2) 0.7598(2)
H64 H 0.8614 0.5122 0.6620
H65 H 0.8735 0.4812 0.8577
H66 H 0.4393 0.9011 0.7682
H67 H 0.6335 0.9405 0.6210
H71 H 0.5205 0.8870 0.2825
H72 H 0.5435 0.9486 0.1071
N13 N 0.4613(3) 0.42852(15) 0.30165(17)
N15 N 0.6150(3) 0.59677(16) 0.50697(17)
O13 O 0.4604(2) 0.53954(11) 0.85534(13)
O14 O 0.4652(3) 0.59294(12) 0.74470(13)
N17 N 0.4650(3) 0.42605(14) 0.80077(17)
O6 O 0.4161(3) 0.50088(13) 0.99655(13)
O9 O 0.4371(2) 0.61401(12) 0.91606(13)
H8 H 0.347(3) 0.4983(19) 0.9737(18)
C25 C 0.6923(3) 0.5818(2) 0.9538(2)
C27 C 0.4469(3) 0.58978(18) 0.86230(19)
H21 H 0.6498 0.5739 0.9138
C40 C 0.8134(3) 0.5861(2) 0.9527(2)
C42 C 0.4432(3) 0.62591(17) 0.80050(18)
H24 H 0.5508 0.6988 0.9833
H34 H 0.8521 0.5813 0.9127
H36 H 0.5070 0.6535 0.8055
C53 C 0.3269(4) 0.65540(17) 0.79269(19)
H44 H 0.514(5) 0.603(2) 0.726(3)
C60 C 0.2379(4) 0.63671(19) 0.7511(2)
C61 C 0.3085(4) 0.70170(19) 0.8306(2)
H47 H 0.2501 0.6057 0.7244
C72 C 0.1294(4) 0.6630(2) 0.7477(3)
H48 H 0.3694 0.7150 0.8594
C73 C 0.2016(5) 0.7284(2) 0.8263(3)
H58 H 0.0681 0.6496 0.7193
C84 C 0.1113(5) 0.7082(3) 0.7855(3)
H59 H 0.1901 0.7603 0.8513
H70 H 0.0372 0.7256 0.7836
C48 C 0.9900(4) 0.60515(18) 0.5125(2)
C55 C 0.8600(3) 0.60489(18) 0.5110(2)
C63 C 0.7960(3) 0.59833(19) 0.4517(2)
C64 C 0.7975(4) 0.6095(2) 0.5677(2)
C76 C 0.6753(3) 0.59493(19) 0.4520(2)
H49 H 0.8350 0.5962 0.4114
C77 C 0.6771(4) 0.6051(2) 0.5636(2)
H50 H 0.8372 0.6156 0.6090
H62 H 0.6331 0.5911 0.4110
H63 H 0.6359 0.6081 0.6031
N6 N 0.3850(3) 0.09677(16) 0.49303(17)
C48_2 C 0.0100(4) 0.10515(18) 0.4875(2)
C55_2 C 0.1400(3) 0.10489(18) 0.4890(2)
C63_2 C 0.2040(3) 0.09833(19) 0.5483(2)
C64_2 C 0.2025(4) 0.1095(2) 0.4323(2)
C76_2 C 0.3247(3) 0.09493(19) 0.5480(2)
H49_2 H 0.1650 0.0962 0.5886
C77_2 C 0.3229(4) 0.1051(2) 0.4364(2)
H50_2 H 0.1628 0.1156 0.3910
H62_2 H 0.3669 0.0911 0.5890
H63_2 H 0.3641 0.1081 0.3969
Co7 Co 0.57485(5) 0.09158(3) 0.48980(3)
O6_2 O 0.5839(3) 0.00088(13) 0.00345(13)
O9_2 O 0.5629(2) 0.11401(12) 0.08394(13)
C25_2 C 0.3077(3) 0.0818(2) 0.0462(2)
C27_2 C 0.5531(3) 0.08978(18) 0.13770(19)
H21_2 H 0.3502 0.0739 0.0862
C40_2 C 0.1866(3) 0.0861(2) 0.0473(2)
O11 O 0.5396(2) 0.03954(11) 0.14466(13)
C42_2 C 0.5568(3) 0.12591(17) 0.19950(18)
H24_2 H 0.4492 0.1988 0.0167
H34_2 H 0.1479 0.0813 0.0873
O12 O 0.5348(3) 0.09294(12) 0.25530(13)
H36_2 H 0.4930 0.1535 0.1945
C53_2 C 0.6731(4) 0.15540(17) 0.20731(19)
H44_2 H 0.486(5) 0.103(2) 0.274(3)
C60_2 C 0.7621(4) 0.13671(19) 0.2489(2)
C61_2 C 0.6915(4) 0.20170(19) 0.1694(2)
H47_2 H 0.7499 0.1057 0.2756
C72_2 C 0.8706(4) 0.1630(2) 0.2523(3)
H48_2 H 0.6306 0.2150 0.1406
C73_2 C 0.7984(5) 0.2284(2) 0.1737(3)
H58_2 H 0.9319 0.1496 0.2807
C84_2 C 0.8887(5) 0.2082(3) 0.2145(3)
H59_2 H 0.8099 0.2603 0.1487
H70_2 H 0.9628 0.2256 0.2164
O1_2 O 0.5524(2) 0.04463(12) 0.64372(13)
N1_2 N 0.3658(3) 0.00885(16) 0.73706(17)
O3_2 O 0.5608(2) 0.09571(12) 0.75696(13)
C1_2 C 0.5727(3) 0.09431(17) 0.63901(18)
C2_2 C 0.5583(3) 0.00525(18) 0.88532(18)
C3_2 C 0.3069(4) 0.0142(2) 0.7921(2)
C4_2 C 0.3026(4) 0.0003(2) 0.6808(2)
H1_2 H 0.500(3) 0.1056(19) 0.777(2)
C5_2 C 0.5797(3) 0.12900(17) 0.70166(18)
O4_2 O 0.5835(2) 0.11951(12) 0.58519(13)
O5_2 O 0.5457(2) 0.05515(12) 0.89375(13)
H2_2 H 0.3501 0.0202 0.8324
C7_2 C 0.1863(4) 0.0114(2) 0.7933(2)
H4_2 H 0.5156 0.1566 0.6984
C9_2 C 0.6960(4) 0.15884(17) 0.7081(2)
Co3 Co 0.55704(5) 0.08768(2) 0.98828(3)
H6_2 H 0.1483 0.0150 0.8338
C11_2 C 0.1213(3) 0.00351(19) 0.7354(2)
C12_2 C 0.7879(4) 0.1393(2) 0.7474(2)
C13_2 C 0.7119(5) 0.2059(2) 0.6715(2)
N4_2 N 0.7651(3) 0.09855(15) 0.48853(17)
O7_2 O 0.5594(2) 0.05693(12) 0.39573(13)
N5_2 N 0.5666(3) 0.17116(15) 0.44773(17)
O8_2 O 0.5958(3) 0.00476(13) 0.50669(13)
N7_2 N 0.3675(3) 0.08825(15) 0.99094(16)
N8_2 N 0.5430(3) 0.16706(14) 0.94664(17)
H9_2 H 0.7771 0.1080 0.7737
C17_2 C 0.8970(5) 0.1654(3) 0.7488(3)
H10_2 H 0.6488 0.2206 0.6454
C18_2 C 0.8215(6) 0.2315(3) 0.6733(3)
C19_2 C 0.8239(4) 0.0826(2) 0.4365(2)
C20_2 C 0.8284(4) 0.12046(19) 0.5394(2)
C21_2 C 0.5573(3) 0.00659(18) 0.38915(18)
C22_2 C 0.5827(4) 0.17963(19) 0.3841(2)
C23_2 C 0.5342(5) 0.2144(2) 0.4832(2)
C26_2 C 0.3051(3) 0.10119(19) 0.9354(2)
C28_2 C 0.5898(4) 0.17877(18) 0.8891(2)
C29_2 C 0.4814(4) 0.2062(2) 0.9753(2)
H14_2 H 0.9596 0.1516 0.7761
C34_2 C 0.9136(5) 0.2103(3) 0.7113(3)
H15_2 H 0.8325 0.2635 0.6483
H16_2 H 0.7810 0.0685 0.3994
C35_2 C 0.9447(4) 0.0859(2) 0.4342(2)
C36_2 C 0.9492(4) 0.12409(19) 0.5408(2)
H17_2 H 0.7881 0.1340 0.5758
H18_2 H 0.6078 0.1500 0.3584
C37_2 C 0.5649(4) 0.22932(19) 0.3534(2)
C38_2 C 0.5155(5) 0.2651(2) 0.4560(2)
H19_2 H 0.5237 0.2098 0.5289
H22_2 H 0.3459 0.1073 0.8963
C41_2 C 0.1845(4) 0.10602(19) 0.9326(2)
H23_2 H 0.6349 0.1518 0.8686
C43_2 C 0.5757(4) 0.22813(18) 0.8583(2)
C44_2 C 0.4628(5) 0.2565(2) 0.9473(2)
H29_2 H 0.9884 0.2271 0.7112
H30_2 H 0.9824 0.0748 0.3957
H31_2 H 0.9902 0.1394 0.5779
H32_2 H 0.5774 0.2331 0.3077
C49_2 C 0.5288(4) 0.27326(18) 0.3894(2)
H33_2 H 0.4934 0.2945 0.4831
C52_2 C 0.1229(3) 0.09738(17) 0.9895(2)
H35_2 H 0.1441 0.1151 0.8924
C54_2 C 0.5104(4) 0.26845(18) 0.8875(2)
H37_2 H 0.6104 0.2347 0.8174
H38_2 H 0.4175 0.2828 0.9689
N10_2 N 0.3532(3) 0.00138(16) 0.24032(17)
C56_2 C 0.5055(4) 0.32663(18) 0.3585(2)
C62_2 C 0.4933(4) 0.32268(18) 0.8565(2)
C65_2 C 0.2954(4) 0.0088(3) 0.2955(2)
C67_2 C 0.5524(4) 0.34164(19) 0.2991(2)
C68_2 C 0.4334(4) 0.3644(2) 0.3878(2)
C74_2 C 0.4922(6) 0.3305(2) 0.7893(2)
C75_2 C 0.4790(6) 0.3680(2) 0.8948(3)
C78_2 C 0.1755(4) 0.0070(3) 0.2975(2)
H51_2 H 0.3394 0.0157 0.3353
C80_2 C 0.5283(4) 0.39193(19) 0.2727(2)
H53_2 H 0.6012 0.3171 0.2768
C81_2 C 0.4146(4) 0.4149(2) 0.3581(2)
H54_2 H 0.3973 0.3559 0.4278
C85_2 C 0.4788(6) 0.3825(2) 0.7639(2)
H60_2 H 0.5006 0.3005 0.7605
C86_2 C 0.4657(5) 0.4180(2) 0.8653(2)
H61_2 H 0.4783 0.3648 0.9414
H64_2 H 0.1386 0.0122 0.3380
H66_2 H 0.5607 0.4011 0.2318
H67_2 H 0.3665 0.4405 0.3790
H71_2 H 0.4795 0.3870 0.7175
H72_2 H 0.4565 0.4486 0.8929
N14 N 0.7453(3) 0.00366(16) 0.73412(17)
N16 N 0.7476(3) 0.09586(15) 0.98751(17)
N18 N 0.7330(3) 0.00109(16) 0.24002(17)
O2_2 O 0.5597(2) 0.98149(12) 0.83057(13)
C6_2 C 0.5737(4) 0.96817(18) 0.9454(2)
H3_2 H 0.3429 0.9961 0.6412
C8_2 C 0.1817(4) 0.99741(19) 0.6778(2)
H5_2 H 0.6473 0.9467 0.9415
C10_2 C 0.4712(4) 0.92941(19) 0.9473(2)
H7_2 H 0.1405 0.9913 0.6369
C14_2 C 0.4822(5) 0.8778(2) 0.9217(3)
C15_2 C 0.3661(5) 0.9448(3) 0.9729(3)
C24_2 C 0.5680(4) 0.97085(18) 0.4511(2)
H11_2 H 0.667(3) 0.997(2) 0.524(2)
H12_2 H 0.5541 0.8667 0.9042
C30_2 C 0.3862(7) 0.8416(3) 0.9216(3)
H13_2 H 0.3585 0.9802 0.9906
C31_2 C 0.2708(6) 0.9093(3) 0.9733(4)
O10_2 O 0.5481(2) 0.98145(12) 0.33538(13)
C39_2 C 0.4557(4) 0.93972(19) 0.4588(2)
H20_2 H 0.6333 0.9444 0.4459
H25_2 H 0.3926 0.8063 0.9036
C45_2 C 0.2827(7) 0.8586(3) 0.9482(4)
H26_2 H 0.1989 0.9204 0.9908
C50_2 C 0.4394(7) 0.8917(3) 0.4261(3)
C51_2 C 0.3699(6) 0.9593(3) 0.4967(4)
H39_2 H 0.2185 0.8342 0.9489
C57_2 C 0.3297(10) 0.8656(4) 0.4299(4)
H42_2 H 0.5000 0.8763 0.4015
C58_2 C 0.2631(7) 0.9333(3) 0.4991(5)
H43_2 H 0.3835 0.9913 0.5218
C66_2 C 0.2887(4) 0.99117(19) 0.1856(2)
C69_2 C 0.2436(7) 0.8863(4) 0.4665(4)
H45_2 H 0.3159 0.8328 0.4064
H46_2 H 0.2028 0.9487 0.5239
C79_2 C 0.1681(4) 0.98875(18) 0.1827(2)
H52_2 H 0.3283 0.9852 0.1461
H55_2 H 0.1709 0.8679 0.4691
C87_2 C 0.1083(4) 0.9976(2) 0.2402(2)
H65_2 H 0.1265 0.9812 0.1423
C16_2 C 0.9909(3) 0.00218(19) 0.7346(2)
C32_2 C 0.9253(4) 0.01567(19) 0.6789(2)
C46_2 C 0.8035(4) 0.01590(19) 0.6802(2)
H27_2 H 0.9627 0.0248 0.6395
H40_2 H 0.7598 0.0252 0.6411
C59_2 C 0.9929(3) 0.09946(18) 0.9885(2)
C70_2 C 0.9268(3) 0.0832(2) 0.9327(2)
H56_2 H 0.9645 0.0735 0.8936
C82_2 C 0.8063(3) 0.08131(19) 0.93464(19)
H68_2 H 0.7629 0.0691 0.8966
C89_2 C 0.9122(4) 0.01133(19) 0.1843(2)
C91_2 C 0.7918(3) 0.01242(19) 0.1860(2)
H73_2 H 0.9494 0.0198 0.1446
H75_2 H 0.7482 0.0217 0.1468
C71 C 0.0673(4) 0.61555(19) 0.9573(2)
C83 C 0.1891(4) 0.61365(19) 0.9598(2)
H57 H 0.0259 0.6278 0.9187
H69 H 0.2292 0.6255 0.9224
H8_2 H 0.653(3) 0.9983(19) 0.0263(18)
C71_2 C 0.9327(4) 0.11555(19) 0.0427(2)
C83_2 C 0.8109(4) 0.11365(19) 0.0402(2)
H57_2 H 0.9741 0.1278 0.0813
H69_2 H 0.7708 0.1255 0.0776
C33_2 C 0.9312(4) 0.98759(18) 0.7907(2)
C47_2 C 0.8104(4) 0.98842(18) 0.7881(2)
H28_2 H 0.9732 0.9773 0.8301
H41_2 H 0.7708 0.9777 0.8262
C88_2 C 0.9785(3) 0.99792(19) 0.2399(2)
C90_2 C 0.9178(4) 0.9845(2) 0.2962(2)
C92_2 C 0.7977(4) 0.9863(2) 0.2937(2)
H74_2 H 0.9594 0.9742 0.3356
H76_2 H 0.7581 0.9765 0.3322
O15 O 0.6589(3) 0.63904(16) 0.70912(15)
N19 N 0.7456(4) 0.63556(18) 0.7510(2)
O16 O 0.7259(3) 0.62283(16) 0.80867(16)
O17 O 0.8453(3) 0.6452(2) 0.7327(2)
O15_2 O 0.3411(3) 0.13904(16) 0.29088(15)
N19_2 N 0.2544(4) 0.13556(18) 0.2490(2)
O16_2 O 0.2741(3) 0.12283(16) 0.19133(16)
O17_2 O 0.1547(3) 0.1452(2) 0.2673(2)
O19 O 0.1329(4) 0.45152(17) 0.05895(19)
O18 O 0.0112(4) 0.4659(2) 0.9765(3)
N20 N 0.1091(5) 0.4646(3) 0.9995(3)
O20 O 0.1852(4) 0.4795(2) 0.9607(2)
O18_2 O 0.9888(4) 0.9659(2) 0.0235(3)
N20_2 N 0.8909(5) 0.9646(3) 0.0005(3)
O20_2 O 0.8148(4) 0.9795(2) 0.0393(2)
O19_2 O 0.8671(4) 0.95152(17) 0.94105(19)
O21 O 0.6340(3) 0.64178(15) 0.20611(15)
O22 O 0.6995(3) 0.63346(16) 0.30693(16)
O23 O 0.8208(3) 0.6427(2) 0.2301(2)
N21 N 0.7197(3) 0.63985(17) 0.24855(19)
O21_2 O 0.3660(3) 0.14178(15) 0.79389(15)
O22_2 O 0.3005(3) 0.13346(16) 0.69307(16)
O23_2 O 0.1792(3) 0.1427(2) 0.7699(2)
N21_2 N 0.2803(3) 0.13985(17) 0.75145(19)
N22 N 0.1167(4) 0.4573(2) 0.4943(2)
O24 O 0.1923(4) 0.4713(3) 0.4564(2)
O25 O 0.0140(4) 0.4671(3) 0.4790(3)
O26 O 0.1451(4) 0.4370(2) 0.5493(2)
N22_2 N 0.8833(4) 0.9573(2) 0.5057(2)
O24_2 O 0.8077(4) 0.9713(3) 0.5436(2)
O25_2 O 0.9860(4) 0.9671(3) 0.5210(3)
O26_2 O 0.8549(4) 0.9370(2) 0.4507(2)
loop_
_geom_bond_atom_site_label_1
_geom_bond_atom_site_label_2
_geom_bond_site_symmetry_1
_geom_bond_site_symmetry_2
N3 C46 1_555 1_555
N9 C82 1_555 1_555
C32 C16 1_555 1_555
C33 C16 1_555 1_555
C46 C32 1_555 1_555
H27 C32 1_555 1_555
C47 N3 1_555 1_555
H28 C33 1_555 1_555
H40 C46 1_555 1_555
H41 C47 1_555 1_555
N12 C91 1_555 1_555
C70 C59 1_555 1_555
H56 C70 1_555 1_555
C82 C70 1_555 1_555
H68 C82 1_555 1_555
C89 C88 1_555 1_555
C90 C88 1_555 1_555
C91 C89 1_555 1_555
H73 C89 1_555 1_555
C92 N12 1_555 1_555
H74 C90 1_555 1_555
H75 C91 1_555 1_555
H76 C92 1_555 1_555
Co5 N3 1_555 1_555
Co8 N9 1_555 1_555
Co10 N12 1_555 1_555
C33 C47 1_555 1_555
C90 C92 1_555 1_555
Co5 O1 1_555 1_555
O1 C1 1_555 1_555
O2 Co5 1_555 1_555
N1 Co5 1_555 1_555
O3 Co5 1_555 1_555
N2 C80 1_555 1_555
C1 C5 1_555 1_555
C2 O2 1_555 1_555
C3 N1 1_555 1_555
C4 N1 1_555 1_555
H1 O3 1_555 1_555
C5 O3 1_555 1_555
O4 C1 1_555 1_555
O5 C2 1_555 1_555
C6 C2 1_555 1_555
H2 C3 1_555 1_555
C7 C3 1_555 1_555
H3 C4 1_555 1_555
C8 C4 1_555 1_555
H4 C5 1_555 1_555
C9 C5 1_555 1_555
Co2 O4 1_555 1_555
Co8 O5 1_555 1_555
H5 C6 1_555 1_555
C10 C6 1_555 1_555
H6 C7 1_555 1_555
C11 C7 1_555 1_555
H7 C8 1_555 1_555
C12 C9 1_555 1_555
C13 C9 1_555 1_555
N4 Co2 1_555 1_555
O7 Co2 1_555 1_555
N5 Co2 1_555 1_555
O8 Co2 1_555 1_555
N7 Co8 1_555 1_555
N8 Co8 1_555 1_555
C14 C10 1_555 1_555
C15 C10 1_555 1_555
H9 C12 1_555 1_555
C17 C12 1_555 1_555
H10 C13 1_555 1_555
C18 C13 1_555 1_555
C19 N4 1_555 1_555
C20 N4 1_555 1_555
C21 O7 1_555 1_555
C22 N5 1_555 1_555
C23 N5 1_555 1_555
C24 O8 1_555 1_555
H11 O8 1_555 1_555
C26 N7 1_555 1_555
C28 N8 1_555 1_555
C29 N8 1_555 1_555
H12 C14 1_555 1_555
C30 C14 1_555 1_555
H13 C15 1_555 1_555
C31 C15 1_555 1_555
H14 C17 1_555 1_555
C34 C17 1_555 1_555
H15 C18 1_555 1_555
H16 C19 1_555 1_555
C35 C19 1_555 1_555
C36 C20 1_555 1_555
H17 C20 1_555 1_555
O10 C21 1_555 1_555
H18 C22 1_555 1_555
C37 C22 1_555 1_555
C38 C23 1_555 1_555
H19 C23 1_555 1_555
C39 C24 1_555 1_555
H20 C24 1_555 1_555
H22 C26 1_555 1_555
C41 C26 1_555 1_555
H23 C28 1_555 1_555
C43 C28 1_555 1_555
C44 C29 1_555 1_555
H25 C30 1_555 1_555
C45 C30 1_555 1_555
H26 C31 1_555 1_555
H29 C34 1_555 1_555
H30 C35 1_555 1_555
H31 C36 1_555 1_555
Co10 O10 1_555 1_555
H32 C37 1_555 1_555
C49 C37 1_555 1_555
H33 C38 1_555 1_555
C50 C39 1_555 1_555
C51 C39 1_555 1_555
H35 C41 1_555 1_555
C54 C43 1_555 1_555
H37 C43 1_555 1_555
H38 C44 1_555 1_555
H39 C45 1_555 1_555
N10 Co10 1_555 1_555
N11 C85 1_555 1_555
C56 C49 1_555 1_555
C57 C50 1_555 1_555
H42 C50 1_555 1_555
C58 C51 1_555 1_555
H43 C51 1_555 1_555
C62 C54 1_555 1_555
C65 N10 1_555 1_555
C66 N10 1_555 1_555
C67 C56 1_555 1_555
C68 C56 1_555 1_555
C69 C57 1_555 1_555
H45 C57 1_555 1_555
H46 C58 1_555 1_555
C74 C62 1_555 1_555
C75 C62 1_555 1_555
C78 C65 1_555 1_555
H51 C65 1_555 1_555
C79 C66 1_555 1_555
H52 C66 1_555 1_555
C80 C67 1_555 1_555
H53 C67 1_555 1_555
C81 N2 1_555 1_555
H54 C68 1_555 1_555
H55 C69 1_555 1_555
C85 C74 1_555 1_555
H60 C74 1_555 1_555
C86 N11 1_555 1_555
H61 C75 1_555 1_555
C87 C78 1_555 1_555
H64 C78 1_555 1_555
H65 C79 1_555 1_555
H66 C80 1_555 1_555
H67 C81 1_555 1_555
H71 C85 1_555 1_555
H72 C86 1_555 1_555
N13 Co5 1_555 1_555
N15 Co2 1_555 1_555
O13 Co10 1_555 1_555
O14 Co10 1_555 1_555
N17 Co10 1_555 1_555
C8 C11 1_555 1_555
C18 C34 1_555 1_555
C21 C24 1_555 1_555
C31 C45 1_555 1_555
C38 C49 1_555 1_555
C41 C52 1_555 1_555
C44 C54 1_555 1_555
C58 C69 1_555 1_555
C68 C81 1_555 1_555
C75 C86 1_555 1_555
C79 C87 1_555 1_555
H8 O6 1_555 1_555
C27 O9 1_555 1_555
H21 C25 1_555 1_555
C40 C25 1_555 1_555
O13 C27 1_555 1_555
C42 C27 1_555 1_555
H34 C40 1_555 1_555
O14 C42 1_555 1_555
H36 C42 1_555 1_555
C53 C42 1_555 1_555
H44 O14 1_555 1_555
C60 C53 1_555 1_555
C61 C53 1_555 1_555
H47 C60 1_555 1_555
C72 C60 1_555 1_555
H48 C61 1_555 1_555
C73 C61 1_555 1_555
H58 C72 1_555 1_555
C84 C72 1_555 1_555
H59 C73 1_555 1_555
H70 C84 1_555 1_555
C73 C84 1_555 1_555
N15 C76 1_555 1_555
C55 C48 1_555 1_555
C63 C55 1_555 1_555
C64 C55 1_555 1_555
C76 C63 1_555 1_555
H49 C63 1_555 1_555
C77 N15 1_555 1_555
H50 C64 1_555 1_555
H62 C76 1_555 1_555
H63 C77 1_555 1_555
C64 C77 1_555 1_555
N6 C76_2 1_555 1_555
C55_2 C48_2 1_555 1_555
C63_2 C55_2 1_555 1_555
C64_2 C55_2 1_555 1_555
C76_2 C63_2 1_555 1_555
H49_2 C63_2 1_555 1_555
C77_2 N6 1_555 1_555
H50_2 C64_2 1_555 1_555
H62_2 C76_2 1_555 1_555
H63_2 C77_2 1_555 1_555
Co7 N6 1_555 1_555
C64_2 C77_2 1_555 1_555
C27_2 O9_2 1_555 1_555
H21_2 C25_2 1_555 1_555
C40_2 C25_2 1_555 1_555
O11 C27_2 1_555 1_555
C42_2 C27_2 1_555 1_555
H34_2 C40_2 1_555 1_555
O12 C42_2 1_555 1_555
H36_2 C42_2 1_555 1_555
C53_2 C42_2 1_555 1_555
H44_2 O12 1_555 1_555
C60_2 C53_2 1_555 1_555
C61_2 C53_2 1_555 1_555
H47_2 C60_2 1_555 1_555
C72_2 C60_2 1_555 1_555
H48_2 C61_2 1_555 1_555
C73_2 C61_2 1_555 1_555
H58_2 C72_2 1_555 1_555
C84_2 C72_2 1_555 1_555
H59_2 C73_2 1_555 1_555
H70_2 C84_2 1_555 1_555
Co11 O11 1_555 1_555
O12 Co11 1_555 1_555
C73_2 C84_2 1_555 1_555
Co6 O1_2 1_555 1_555
O1_2 C1_2 1_555 1_555
N1_2 Co6 1_555 1_555
O3_2 Co6 1_555 1_555
N13 C80_2 1_555 1_555
C1_2 C5_2 1_555 1_555
C3_2 N1_2 1_555 1_555
C4_2 N1_2 1_555 1_555
H1_2 O3_2 1_555 1_555
C5_2 O3_2 1_555 1_555
O4_2 C1_2 1_555 1_555
O5_2 C2_2 1_555 1_555
H2_2 C3_2 1_555 1_555
C7_2 C3_2 1_555 1_555
H4_2 C5_2 1_555 1_555
C9_2 C5_2 1_555 1_555
Co7 O4_2 1_555 1_555
Co3 O5_2 1_555 1_555
H6_2 C7_2 1_555 1_555
C11_2 C7_2 1_555 1_555
C12_2 C9_2 1_555 1_555
C13_2 C9_2 1_555 1_555
N4_2 Co7 1_555 1_555
O7_2 Co7 1_555 1_555
N5_2 Co7 1_555 1_555
O8_2 Co7 1_555 1_555
N7_2 Co3 1_555 1_555
N8_2 Co3 1_555 1_555
H9_2 C12_2 1_555 1_555
C17_2 C12_2 1_555 1_555
H10_2 C13_2 1_555 1_555
C18_2 C13_2 1_555 1_555
C19_2 N4_2 1_555 1_555
C20_2 N4_2 1_555 1_555
C21_2 O7_2 1_555 1_555
C22_2 N5_2 1_555 1_555
C23_2 N5_2 1_555 1_555
C26_2 N7_2 1_555 1_555
C28_2 N8_2 1_555 1_555
C29_2 N8_2 1_555 1_555
H14_2 C17_2 1_555 1_555
C34_2 C17_2 1_555 1_555
H15_2 C18_2 1_555 1_555
H16_2 C19_2 1_555 1_555
C35_2 C19_2 1_555 1_555
C36_2 C20_2 1_555 1_555
H17_2 C20_2 1_555 1_555
H18_2 C22_2 1_555 1_555
C37_2 C22_2 1_555 1_555
C38_2 C23_2 1_555 1_555
H19_2 C23_2 1_555 1_555
H22_2 C26_2 1_555 1_555
C41_2 C26_2 1_555 1_555
H23_2 C28_2 1_555 1_555
C43_2 C28_2 1_555 1_555
C44_2 C29_2 1_555 1_555
H29_2 C34_2 1_555 1_555
H30_2 C35_2 1_555 1_555
H31_2 C36_2 1_555 1_555
H32_2 C37_2 1_555 1_555
C49_2 C37_2 1_555 1_555
H33_2 C38_2 1_555 1_555
H35_2 C41_2 1_555 1_555
C54_2 C43_2 1_555 1_555
H37_2 C43_2 1_555 1_555
H38_2 C44_2 1_555 1_555
N10_2 Co11 1_555 1_555
N17 C85_2 1_555 1_555
C56_2 C49_2 1_555 1_555
C62_2 C54_2 1_555 1_555
C65_2 N10_2 1_555 1_555
C67_2 C56_2 1_555 1_555
C68_2 C56_2 1_555 1_555
C74_2 C62_2 1_555 1_555
C75_2 C62_2 1_555 1_555
C78_2 C65_2 1_555 1_555
H51_2 C65_2 1_555 1_555
C80_2 C67_2 1_555 1_555
H53_2 C67_2 1_555 1_555
C81_2 N13 1_555 1_555
H54_2 C68_2 1_555 1_555
C85_2 C74_2 1_555 1_555
H60_2 C74_2 1_555 1_555
C86_2 N17 1_555 1_555
H61_2 C75_2 1_555 1_555
H64_2 C78_2 1_555 1_555
H66_2 C80_2 1_555 1_555
H67_2 C81_2 1_555 1_555
H71_2 C85_2 1_555 1_555
H72_2 C86_2 1_555 1_555
N14 Co6 1_555 1_555
N16 Co3 1_555 1_555
N18 Co11 1_555 1_555
C18_2 C34_2 1_555 1_555
C38_2 C49_2 1_555 1_555
C41_2 C52_2 1_555 1_555
C44_2 C54_2 1_555 1_555
C68_2 C81_2 1_555 1_555
C75_2 C86_2 1_555 1_555
H5_2 C6_2 1_555 1_555
C10_2 C6_2 1_555 1_555
H7_2 C8_2 1_555 1_555
C14_2 C10_2 1_555 1_555
C15_2 C10_2 1_555 1_555
H12_2 C14_2 1_555 1_555
C30_2 C14_2 1_555 1_555
H13_2 C15_2 1_555 1_555
C31_2 C15_2 1_555 1_555
C39_2 C24_2 1_555 1_555
H20_2 C24_2 1_555 1_555
H25_2 C30_2 1_555 1_555
C45_2 C30_2 1_555 1_555
H26_2 C31_2 1_555 1_555
C50_2 C39_2 1_555 1_555
C51_2 C39_2 1_555 1_555
H39_2 C45_2 1_555 1_555
C57_2 C50_2 1_555 1_555
H42_2 C50_2 1_555 1_555
C58_2 C51_2 1_555 1_555
H43_2 C51_2 1_555 1_555
C69_2 C57_2 1_555 1_555
H45_2 C57_2 1_555 1_555
H46_2 C58_2 1_555 1_555
C79_2 C66_2 1_555 1_555
H52_2 C66_2 1_555 1_555
H55_2 C69_2 1_555 1_555
H65_2 C79_2 1_555 1_555
C31_2 C45_2 1_555 1_555
C58_2 C69_2 1_555 1_555
C79_2 C87_2 1_555 1_555
N14 C46_2 1_555 1_555
N16 C82_2 1_555 1_555
C32_2 C16_2 1_555 1_555
C46_2 C32_2 1_555 1_555
H27_2 C32_2 1_555 1_555
H40_2 C46_2 1_555 1_555
N18 C91_2 1_555 1_555
C70_2 C59_2 1_555 1_555
H56_2 C70_2 1_555 1_555
C82_2 C70_2 1_555 1_555
H68_2 C82_2 1_555 1_555
C91_2 C89_2 1_555 1_555
H73_2 C89_2 1_555 1_555
H75_2 C91_2 1_555 1_555
H57 C71 1_555 1_555
H69 C83 1_555 1_555
C71 C83 1_555 1_555
H57_2 C71_2 1_555 1_555
H69_2 C83_2 1_555 1_555
C71_2 C83_2 1_555 1_555
H28_2 C33_2 1_555 1_555
H41_2 C47_2 1_555 1_555
C90_2 C88_2 1_555 1_555
H74_2 C90_2 1_555 1_555
H76_2 C92_2 1_555 1_555
C33_2 C47_2 1_555 1_555
C90_2 C92_2 1_555 1_555
O15 N19 1_555 1_555
N19 O16 1_555 1_555
O17 N19 1_555 1_555
O15_2 N19_2 1_555 1_555
N19_2 O16_2 1_555 1_555
O17_2 N19_2 1_555 1_555
O18 N20 1_555 1_555
N20 O20 1_555 1_555
O18_2 N20_2 1_555 1_555
N20_2 O20_2 1_555 1_555
O21 N21 1_555 1_555
O22 N21 1_555 1_555
O23 N21 1_555 1_555
O21_2 N21_2 1_555 1_555
O22_2 N21_2 1_555 1_555
O23_2 N21_2 1_555 1_555
N22 O24 1_555 1_555
O25 N22 1_555 1_555
O26 N22 1_555 1_555
N22_2 O24_2 1_555 1_555
O25_2 N22_2 1_555 1_555
O26_2 N22_2 1_555 1_555

#END
