
###############################################################################
#
# This file contains modified crystal structure data generated from the
# MOF subset of the Cambridge Structural Database (CSD) v543 
# hosted by the Cambridge Crystallographic Data Centre (CCDC).
#
# This work is licensed under the Creative Commons
# Attribution-NonCommercial-ShareAlike 4.0 International License.
# To view a copy of this license, visit
# http://creativecommons.org/licenses/by-nc-sa/4.0/
# or send a letter to
# Creative Commons, PO Box 1866, Mountain View, CA 94042, USA.
#
# CIF created using the CSD Python API on 29 September 2022
# The structure has been converted into the P1 space group
# The structure has a 3D framework
# The original CSD entry TURDOB is in the monoclinic crystal system
# The original CSD entry TURDOB is in a Sohncke space group
# The framework has been calculated to contain at least 10.0% void space
# The void calculation uses a probe of radius 1.32A, grid spacing 0.4
# The framework is charged, counterions have been retained in the structure
#
###############################################################################

data_TURDOB
_chemical_formula_moiety         '(C184 H152 Co8 N32 O48)n'
_symmetry_cell_setting           triclinic
_symmetry_space_group_name_H-M   'P 1'
_symmetry_Int_Tables_number      1
_space_group_name_Hall           'P 1'
loop_
_symmetry_equiv_pos_site_id
_symmetry_equiv_pos_as_xyz
1 x,y,z
_cell_length_a                   11.4463(3)
_cell_length_b                   24.6528(7)
_cell_length_c                   20.3256(6)
_cell_angle_alpha                90
_cell_angle_beta                 92.6948(13)
_cell_angle_gamma                90
_cell_volume                     5729.2
loop_
_atom_site_label
_atom_site_type_symbol
_atom_site_fract_x
_atom_site_fract_y
_atom_site_fract_z
N2 N 0.2496(4) 0.1838(2) 0.2699(3)
N5 N 0.2497(4) 0.2715(2) 0.0150(3)
C2 C 0.0709(5) 0.2620(3) 0.0715(3)
H3 H 0.0341 0.2532 0.1111
C3 C 0.1920(5) 0.2594(3) 0.0690(3)
H4 H 0.2361 0.2486 0.1076
C4 C 0.1908(6) 0.1967(3) 0.3242(3)
H5 H 0.2351 0.2066 0.3631
C5 C 0.0708(5) 0.1963(3) 0.3264(3)
H6 H 0.0345 0.2049 0.3661
C7 C 0.1821(6) 0.1684(3) 0.2168(3)
H8 H 0.2205 0.1573 0.1786
C10 C 0.0039(5) 0.2773(3) 0.0157(3)
C23 C 0.0026(5) 0.1830(3) 0.2701(3)
C27 C 0.0625(6) 0.1675(3) 0.2141(3)
H21 H 0.0203 0.1566 0.1750
Co5 Co 0.43882(8) 0.19040(4) 0.26730(4)
Co6 Co 0.44119(8) 0.26607(4) 0.01450(4)
N6 N 0.2733(4) 0.1793(2) 0.7611(3)
C6 C 0.0949(5) 0.1908(3) 0.8152(3)
H7 H 0.0574 0.2005 0.8542
C8 C 0.0649(6) 0.2917(3) 0.9603(3)
H9 H 0.0232 0.3037 0.9215
C9 C 0.1861(6) 0.2885(3) 0.9617(3)
H10 H 0.2255 0.2987 0.9235
C11 C 0.2096(6) 0.1609(4) 0.7080(3)
H11 H 0.2498 0.1489 0.6709
C17 C 0.0882(6) 0.1587(4) 0.7052(4)
H15 H 0.0469 0.1462 0.6665
C18 C 0.2143(5) 0.1925(3) 0.8139(3)
H16 H 0.2574 0.2037 0.8526
C21 C 0.0280(6) 0.1749(3) 0.7594(3)
Co8 Co 0.46446(8) 0.18621(4) 0.76266(4)
Co4 Co 0.42579(8) 0.27185(4) 0.51247(4)
N1 N 0.6284(4) 0.1910(2) 0.2672(3)
O1 O 0.4322(4) 0.16233(18) 0.1732(2)
O2 O 0.4424(3) 0.22575(18) 0.3590(2)
N3 N 0.6310(4) 0.2674(2) 0.0139(2)
O4 O 0.4519(3) 0.23528(17) 0.1096(2)
O5 O 0.4146(4) 0.30062(18) 0.4177(2)
N4 N 0.2353(4) 0.2775(2) 0.5134(3)
O7 O 0.4330(4) 0.27632(18) 0.2458(2)
H2 H 0.503(3) 0.280(2) 0.233(3)
C12 C 0.4245(5) 0.2757(3) 0.3642(3)
C13 C 0.8112(6) 0.1771(3) 0.3265(3)
H12 H 0.8524 0.1696 0.3672
C15 C 0.1763(6) 0.2595(3) 0.5644(3)
H13 H 0.2194 0.2444 0.6011
C16 C 0.0509(6) 0.3049(3) 0.4628(3)
H14 H 0.0095 0.3216 0.4266
C19 C 0.6916(5) 0.1805(3) 0.3236(3)
H17 H 0.6513 0.1753 0.3629
C24 C 0.4159(5) 0.3103(3) 0.3014(3)
H19 H 0.4801 0.3379 0.3041
C26 C 0.8724(5) 0.1849(3) 0.2693(3)
C29 C 0.1727(6) 0.3013(3) 0.4642(3)
H22 H 0.2129 0.3164 0.4287
C30 C 0.0563(6) 0.2619(4) 0.5664(3)
H23 H 0.0186 0.2482 0.6037
N8 N 0.4555(5) 0.1095(2) 0.3034(3)
C32 C 0.4365(4) 0.1860(3) 0.1186(3)
C33 C 0.2998(6) 0.3402(3) 0.2950(3)
O9 O 0.4259(4) 0.17943(18) 0.0001(2)
C34 C 0.5004(6) 0.0071(3) 0.3590(3)
C35 C 0.5474(7) 0.0226(3) 0.2997(4)
C36 C 0.4094(7) 0.0945(3) 0.3601(4)
H28 H 0.3609 0.1196 0.3814
C42 C 0.6935(5) 0.2847(3) 0.0678(3)
H33 H 0.6528 0.2945 0.1057
C57 C 0.2050(6) 0.3195(3) 0.2584(4)
H46 H 0.2139 0.2873 0.2336
C59 C 0.8744(5) 0.2764(3) 0.0147(3)
C60 C 0.0971(7) 0.3453(4) 0.2574(5)
H47 H 0.0329 0.3303 0.2323
C65 C 0.8130(6) 0.2887(3) 0.0705(3)
H51 H 0.8537 0.2997 0.1101
C67 C 0.8070(6) 0.1945(3) 0.2110(3)
H52 H 0.8444 0.1989 0.1706
C70 C 0.6882(6) 0.1975(3) 0.2129(3)
H55 H 0.6450 0.2047 0.1728
C71 C 0.5231(7) 0.0733(3) 0.2744(4)
H56 H 0.5562 0.0832 0.2340
C77 C 0.4288(7) 0.0443(3) 0.3889(4)
H61 H 0.3935 0.0353 0.4288
C79 C 0.4211(6) 0.1482(3) 0.0587(3)
H63 H 0.3419 0.1311 0.0595
C80 C 0.5118(6) 0.1036(3) 0.0638(4)
C81 C 0.1791(10) 0.4151(4) 0.3263(5)
H64 H 0.1710 0.4489 0.3480
C82 C 0.6254(8) 0.1148(4) 0.0533(6)
H65 H 0.6480 0.1501 0.0400
C83 C 0.2858(7) 0.3890(3) 0.3283(4)
H66 H 0.3504 0.4044 0.3526
C84 C 0.0825(9) 0.3915(5) 0.2920(5)
H67 H 0.0075 0.4079 0.2930
C88 C 0.4798(9) 0.0526(3) 0.0842(4)
H71 H 0.4002 0.0461 0.0928
C89 C 0.6712(12) 0.0219(5) 0.0814(8)
C90 C 0.7102(10) 0.0730(6) 0.0627(9)
H73 H 0.7907 0.0797 0.0564
C91 C 0.5583(11) 0.0111(4) 0.0924(6)
O13 O 0.4415(4) 0.23685(18) 0.6066(2)
N16 N 0.6155(4) 0.2770(2) 0.5094(3)
O14 O 0.4092(4) 0.1846(2) 0.4950(2)
N17 N 0.4496(5) 0.3460(2) 0.0546(3)
N18 N 0.4343(4) 0.3516(2) 0.5538(3)
O3 O 0.4575(4) 0.16149(18) 0.6664(2)
C20 C 0.4471(5) 0.1867(3) 0.6132(3)
C22 C 0.4359(6) 0.1510(3) 0.5505(3)
H18 H 0.3700 0.1249 0.5553
H25 H 0.358(3) 0.178(3) 0.978(2)
O10 O 0.4690(4) 0.27277(18) 0.7472(2)
H26 H 0.523(5) 0.290(2) 0.727(2)
O11 O 0.4663(4) 0.21866(17) 0.8576(2)
C37 C 0.8101(6) 0.2598(4) 0.9590(4)
H29 H 0.8485 0.2509 0.9200
C38 C 0.8995(6) 0.1754(3) 0.7590(3)
C39 C 0.8392(6) 0.1669(3) 0.8174(4)
H30 H 0.8810 0.1585 0.8575
C40 C 0.6914(6) 0.2561(3) 0.9604(4)
H31 H 0.6489 0.2450 0.9214
C41 C 0.4438(5) 0.3050(2) 0.8031(3)
H32 H 0.5051 0.3337 0.8088
C43 C 0.3251(6) 0.3322(3) 0.7936(3)
C44 C 0.2416(6) 0.3137(3) 0.7475(3)
H34 H 0.2606 0.2849 0.7189
C45 C 0.5096(6) 0.0026(3) 0.8570(3)
C48 C 0.1314(7) 0.3364(4) 0.7423(4)
H37 H 0.0747 0.3224 0.7111
C50 C 0.5008(8) 0.0102(3) 0.7896(4)
N10 N 0.4776(4) 0.1058(2) 0.8024(3)
C52 C 0.4841(7) 0.0616(3) 0.7647(4)
H41 H 0.4769 0.0659 0.7182
O12 O 0.4359(4) 0.29215(17) 0.9186(2)
N12 N 0.6539(4) 0.1822(3) 0.7599(3)
C58 C 0.5479(6) 0.1190(3) 0.5440(3)
C61 C 0.4486(5) 0.2691(3) 0.8644(3)
C62 C 0.7189(6) 0.1710(3) 0.8150(4)
H48 H 0.6797 0.1655 0.8547
C63 C 0.1034(8) 0.3791(4) 0.7820(5)
H49 H 0.0279 0.3951 0.7782
C64 C 0.1864(9) 0.3984(5) 0.8274(5)
H50 H 0.1675 0.4278 0.8552
C68 C 0.8307(7) 0.1819(5) 0.7022(4)
H53 H 0.8656 0.1833 0.6608
C69 C 0.4907(8) 0.0982(3) 0.8674(3)
H54 H 0.4884 0.1291 0.8953
C72 C 0.2970(7) 0.3755(3) 0.8334(4)
H57 H 0.3535 0.3895 0.8647
C73 C 0.7128(6) 0.1863(5) 0.7054(4)
H58 H 0.6689 0.1928 0.6654
C76 C 0.6388(9) 0.1402(4) 0.5113(6)
H60 H 0.6297 0.1744 0.4902
C78 C 0.5073(8) 0.0481(3) 0.8960(3)
H62 H 0.5170 0.0450 0.9426
C85 C 0.7596(11) 0.0640(6) 0.5382(7)
H68 H 0.8318 0.0451 0.5371
C86 C 0.5594(11) 0.0695(4) 0.5732(5)
H69 H 0.4961 0.0537 0.5949
C87 C 0.6665(15) 0.0424(6) 0.5706(8)
H70 H 0.6756 0.0082 0.5917
C92 C 0.7451(10) 0.1126(5) 0.5084(8)
H75 H 0.8073 0.1280 0.4853
H76 H 0.3423 0.1860 0.4772
H27 H 0.5957 0.9983 0.2770
C46 C 0.5121(9) 0.9440(3) 0.4558(4)
H35 H 0.4885 0.9727 0.4835
C49 C 0.5324(8) 0.8935(3) 0.4815(4)
H38 H 0.5221 0.8882 0.5271
C51 C 0.5815(7) 0.8601(3) 0.3833(3)
H40 H 0.6072 0.8307 0.3574
H42 H 0.4632 0.8786 0.0166
N11 N 0.5657(4) 0.8516(2) 0.4462(3)
C55 C 0.5623(7) 0.9100(3) 0.3530(3)
H44 H 0.5743 0.9140 0.3073
C75 C 0.5259(6) 0.9536(3) 0.3890(3)
H72 H 0.7267 0.9934 0.0865
H74 H 0.5343 0.9760 0.1055
Co11 Co 0.57421(8) 0.77185(4) 0.48753(4)
N9 N 0.5504(5) 0.8460(2) 0.9454(3)
C47 C 0.4778(7) 0.9363(3) 0.9474(3)
H36 H 0.4346 0.9630 0.9696
H39 H 0.5061 0.9801 0.7607
C53 C 0.4939(6) 0.8856(3) 0.9749(3)
C54 C 0.5854(6) 0.9073(3) 0.8565(3)
H43 H 0.6189 0.9134 0.8153
C56 C 0.5961(6) 0.8572(3) 0.8869(3)
H45 H 0.6376 0.8294 0.8656
C66 C 0.5248(6) 0.9485(3) 0.8872(3)
Co7 Co 0.55881(8) 0.76607(4) 0.98550(4)
C1 C 0.6748(6) 0.2758(3) 0.4540(3)
H1 H 0.6320 0.2726 0.4130
C14 C 0.8609(5) 0.2839(3) 0.5128(3)
C25 C 0.7964(5) 0.2790(3) 0.4540(3)
H20 H 0.8347 0.2779 0.4136
C28 C 0.9911(5) 0.2838(3) 0.5146(3)
C31 C 0.6774(6) 0.2835(3) 0.5656(3)
H24 H 0.6364 0.2860 0.6050
C74 C 0.7982(6) 0.2868(4) 0.5703(3)
H59 H 0.8381 0.2911 0.6120
C1_2 C 0.3252(6) 0.7758(3) 0.5460(3)
H1_2 H 0.3680 0.7726 0.5870
N7 N 0.3845(4) 0.7770(2) 0.4906(3)
C14_2 C 0.1391(5) 0.7839(3) 0.4872(3)
C25_2 C 0.2036(5) 0.7790(3) 0.5460(3)
H20_2 H 0.1653 0.7779 0.5864
C28_2 C 0.0089(5) 0.7838(3) 0.4854(3)
C31_2 C 0.3226(6) 0.7835(3) 0.4344(3)
H24_2 H 0.3636 0.7860 0.3950
C74_2 C 0.2018(6) 0.7868(4) 0.4297(3)
H59_2 H 0.1619 0.7911 0.3880
Co3 Co 0.53554(8) 0.68621(4) 0.23734(4)
O3_2 O 0.5425(4) 0.66149(18) 0.3336(2)
O6 O 0.5585(4) 0.73685(18) 0.3934(2)
O8 O 0.5908(4) 0.6846(2) 0.5050(2)
C20_2 C 0.5529(5) 0.6867(3) 0.3868(3)
C22_2 C 0.5641(6) 0.6510(3) 0.4495(3)
H18_2 H 0.6300 0.6249 0.4447
H25_2 H 0.642(3) 0.678(3) 0.022(2)
O10_2 O 0.5310(4) 0.77277(18) 0.2528(2)
H26_2 H 0.477(5) 0.790(2) 0.273(2)
O11_2 O 0.5337(4) 0.71866(17) 0.1424(2)
C37_2 C 0.1899(6) 0.7598(4) 0.0410(4)
H29_2 H 0.1515 0.7509 0.0800
C38_2 C 0.1005(6) 0.6754(3) 0.2410(3)
C39_2 C 0.1608(6) 0.6669(3) 0.1826(4)
H30_2 H 0.1190 0.6585 0.1425
C40_2 C 0.3086(6) 0.7561(3) 0.0396(4)
H31_2 H 0.3511 0.7450 0.0786
C41_2 C 0.5562(5) 0.8050(2) 0.1969(3)
H32_2 H 0.4949 0.8337 0.1912
C43_2 C 0.6749(6) 0.8322(3) 0.2064(3)
C44_2 C 0.7584(6) 0.8137(3) 0.2525(3)
H34_2 H 0.7394 0.7849 0.2811
C45_2 C 0.4904(6) 0.5026(3) 0.1430(3)
C47_2 C 0.5222(7) 0.4363(3) 0.0526(3)
H36_2 H 0.5654 0.4630 0.0304
C48_2 C 0.8686(7) 0.8364(4) 0.2577(4)
H37_2 H 0.9253 0.8224 0.2889
C50_2 C 0.4992(8) 0.5102(3) 0.2104(4)
H39_2 H 0.4939 0.4801 0.2393
N10_2 N 0.5224(4) 0.6058(2) 0.1976(3)
C52_2 C 0.5159(7) 0.5616(3) 0.2353(4)
H41_2 H 0.5231 0.5659 0.2818
C53_2 C 0.5061(6) 0.3856(3) 0.0251(3)
C54_2 C 0.4146(6) 0.4073(3) 0.1435(3)
H43_2 H 0.3811 0.4134 0.1847
O12_2 O 0.5641(4) 0.79215(17) 0.0814(2)
C56_2 C 0.4039(6) 0.3572(3) 0.1131(3)
H45_2 H 0.3624 0.3294 0.1344
N12_2 N 0.3461(4) 0.6822(3) 0.2401(3)
C58_2 C 0.4521(6) 0.6190(3) 0.4560(3)
C61_2 C 0.5514(5) 0.7691(3) 0.1356(3)
C62_2 C 0.2811(6) 0.6710(3) 0.1850(4)
H48_2 H 0.3203 0.6655 0.1453
C63_2 C 0.8966(8) 0.8791(4) 0.2180(5)
H49_2 H 0.9721 0.8951 0.2218
C64_2 C 0.8136(9) 0.8984(5) 0.1726(5)
H50_2 H 0.8325 0.9278 0.1448
C66_2 C 0.4752(6) 0.4485(3) 0.1128(3)
C68_2 C 0.1693(7) 0.6819(5) 0.2978(4)
H53_2 H 0.1344 0.6833 0.3392
C69_2 C 0.5093(8) 0.5982(3) 0.1326(3)
H54_2 H 0.5116 0.6291 0.1047
C72_2 C 0.7030(7) 0.8755(3) 0.1666(4)
H57_2 H 0.6465 0.8895 0.1353
C73_2 C 0.2872(6) 0.6863(5) 0.2946(4)
H58_2 H 0.3311 0.6928 0.3346
C76_2 C 0.3612(9) 0.6402(4) 0.4887(6)
H60_2 H 0.3703 0.6744 0.5098
C78_2 C 0.4927(8) 0.5481(3) 0.1040(3)
H62_2 H 0.4830 0.5450 0.0574
C85_2 C 0.2404(11) 0.5640(6) 0.4618(7)
H68_2 H 0.1682 0.5451 0.4629
C86_2 C 0.4406(11) 0.5695(4) 0.4268(5)
H69_2 H 0.5039 0.5537 0.4051
C87_2 C 0.3335(15) 0.5424(6) 0.4294(8)
H70_2 H 0.3244 0.5082 0.4083
C92_2 C 0.2549(10) 0.6126(5) 0.4916(8)
H75_2 H 0.1927 0.6280 0.5147
H76_2 H 0.6577 0.6860 0.5228
N15 N 0.7267(4) 0.6793(2) 0.2389(3)
Co1 Co 0.56118(8) 0.69040(4) 0.73270(4)
N1_2 N 0.3716(4) 0.6910(2) 0.7328(3)
O1_2 O 0.5678(4) 0.66233(18) 0.8268(2)
O2_2 O 0.5576(3) 0.72575(18) 0.6410(2)
N3_2 N 0.3690(4) 0.7674(2) 0.9861(2)
O4_2 O 0.5481(3) 0.73528(17) 0.8904(2)
O5_2 O 0.5854(4) 0.80062(18) 0.5823(2)
N4_2 N 0.7647(4) 0.7775(2) 0.4866(3)
O7_2 O 0.5670(4) 0.77632(18) 0.7542(2)
H2_2 H 0.497(3) 0.780(2) 0.767(3)
C12_2 C 0.5755(5) 0.7757(3) 0.6358(3)
C13_2 C 0.1888(6) 0.6771(3) 0.6735(3)
H12_2 H 0.1476 0.6696 0.6328
C15_2 C 0.8237(6) 0.7595(3) 0.4356(3)
H13_2 H 0.7806 0.7444 0.3989
C16_2 C 0.9491(6) 0.8049(3) 0.5372(3)
H14_2 H 0.9905 0.8216 0.5734
C19_2 C 0.3084(5) 0.6805(3) 0.6764(3)
H17_2 H 0.3487 0.6753 0.6371
C24_2 C 0.5841(5) 0.8103(3) 0.6986(3)
H19_2 H 0.5199 0.8379 0.6959
C26_2 C 0.1276(5) 0.6849(3) 0.7307(3)
C29_2 C 0.8273(6) 0.8013(3) 0.5358(3)
H22_2 H 0.7871 0.8164 0.5713
C30_2 C 0.9437(6) 0.7619(4) 0.4336(3)
H23_2 H 0.9814 0.7482 0.3963
N8_2 N 0.5445(5) 0.6095(2) 0.6966(3)
C32_2 C 0.5635(4) 0.6860(3) 0.8814(3)
C33_2 C 0.7002(6) 0.8402(3) 0.7050(3)
O9_2 O 0.5741(4) 0.67943(18) 0.9999(2)
C34_2 C 0.4996(6) 0.5071(3) 0.6410(3)
C35_2 C 0.4526(7) 0.5226(3) 0.7003(4)
H27_2 H 0.4043 0.4983 0.7230
C36_2 C 0.5906(7) 0.5945(3) 0.6399(4)
H28_2 H 0.6391 0.6196 0.6186
C42_2 C 0.3065(5) 0.7847(3) 0.9322(3)
H33_2 H 0.3472 0.7945 0.8943
C46_2 C 0.4879(9) 0.4440(3) 0.5442(4)
H35_2 H 0.5115 0.4727 0.5165
C49_2 C 0.4676(8) 0.3935(3) 0.5185(4)
H38_2 H 0.4779 0.3882 0.4729
C51_2 C 0.4185(7) 0.3601(3) 0.6167(3)
H40_2 H 0.3928 0.3307 0.6426
H42_2 H 0.5368 0.3786 0.9834
C55_2 C 0.4377(7) 0.4100(3) 0.6470(3)
H44_2 H 0.4257 0.4140 0.6927
C57_2 C 0.7950(6) 0.8195(3) 0.7416(4)
H46_2 H 0.7861 0.7873 0.7664
C59_2 C 0.1256(5) 0.7764(3) 0.9853(3)
C60_2 C 0.9029(7) 0.8453(4) 0.7426(5)
H47_2 H 0.9671 0.8303 0.7677
C65_2 C 0.1870(6) 0.7887(3) 0.9295(3)
H51_2 H 0.1463 0.7997 0.8899
C67_2 C 0.1930(6) 0.6945(3) 0.7890(3)
H52_2 H 0.1556 0.6989 0.8294
C70_2 C 0.3118(6) 0.6975(3) 0.7871(3)
H55_2 H 0.3550 0.7047 0.8272
C71_2 C 0.4769(7) 0.5733(3) 0.7256(4)
H56_2 H 0.4438 0.5832 0.7660
C75_2 C 0.4741(6) 0.4536(3) 0.6110(3)
C77_2 C 0.5712(7) 0.5443(3) 0.6111(4)
H61_2 H 0.6065 0.5353 0.5712
C79_2 C 0.5789(6) 0.6482(3) 0.9413(3)
H63_2 H 0.6581 0.6311 0.9405
C80_2 C 0.4882(6) 0.6036(3) 0.9362(4)
C81_2 C 0.8209(10) 0.9151(4) 0.6737(5)
H64_2 H 0.8290 0.9489 0.6520
C82_2 C 0.3746(8) 0.6148(4) 0.9467(6)
H65_2 H 0.3520 0.6501 0.9600
C83_2 C 0.7142(7) 0.8890(3) 0.6717(4)
H66_2 H 0.6496 0.9044 0.6474
C84_2 C 0.9175(9) 0.8915(5) 0.7080(5)
H67_2 H 0.9925 0.9079 0.7070
C88_2 C 0.5202(9) 0.5526(3) 0.9158(4)
H71_2 H 0.5998 0.5461 0.9072
C89_2 C 0.3288(12) 0.5219(5) 0.9186(8)
H72_2 H 0.2733 0.4934 0.9135
C90_2 C 0.2898(10) 0.5730(6) 0.9373(9)
H73_2 H 0.2093 0.5797 0.9436
C91_2 C 0.4417(11) 0.5111(4) 0.9076(6)
H74_2 H 0.4657 0.4760 0.8945
N13 N 0.7504(4) 0.6838(2) 0.7301(3)
N14 N 0.7503(4) 0.7715(2) 0.9850(3)
C6_2 C 0.9051(5) 0.6908(3) 0.1848(3)
H7_2 H 0.9426 0.7005 0.1458
C8_2 C 0.9351(6) 0.7917(3) 0.0397(3)
H9_2 H 0.9768 0.8037 0.0785
C9_2 C 0.8139(6) 0.7885(3) 0.0383(3)
H10_2 H 0.7745 0.7987 0.0765
C11_2 C 0.7904(6) 0.6609(4) 0.2920(3)
H11_2 H 0.7502 0.6489 0.3291
C17_2 C 0.9118(6) 0.6587(4) 0.2948(4)
H15_2 H 0.9531 0.6462 0.3335
C18_2 C 0.7857(5) 0.6925(3) 0.1861(3)
H16_2 H 0.7426 0.7037 0.1474
C21_2 C 0.9720(6) 0.6749(3) 0.2406(3)
C2_2 C 0.9291(5) 0.7620(3) 0.9285(3)
H3_2 H 0.9659 0.7532 0.8889
C3_2 C 0.8080(5) 0.7594(3) 0.9310(3)
H4_2 H 0.7639 0.7486 0.8924
C4_2 C 0.8092(6) 0.6967(3) 0.6758(3)
H5_2 H 0.7649 0.7066 0.6369
C5_2 C 0.9292(5) 0.6963(3) 0.6736(3)
H6_2 H 0.9655 0.7049 0.6339
C7_2 C 0.8179(6) 0.6684(3) 0.7832(3)
H8_2 H 0.7795 0.6573 0.8214
C10_2 C 0.9961(5) 0.7773(3) 0.9843(3)
C23_2 C 0.9974(5) 0.6830(3) 0.7299(3)
C27_2 C 0.9375(6) 0.6675(3) 0.7859(3)
H21_2 H 0.9797 0.6566 0.8250
O15 O 0.7269(6) 0.3027(3) 0.8130(3)
O16 O 0.6618(5) 0.3170(3) 0.7117(3)
O17 O 0.8493(6) 0.3214(4) 0.7372(4)
N19 N 0.7492(6) 0.3132(3) 0.7546(3)
O15_2 O 0.2731(6) 0.8027(3) 0.1870(3)
O16_2 O 0.3382(5) 0.8170(3) 0.2883(3)
O17_2 O 0.1507(6) 0.8214(4) 0.2628(4)
N19_2 N 0.2508(6) 0.8132(3) 0.2454(3)
O18 O 0.7016(5) 0.3134(2) 0.3067(2)
O19 O 0.8091(5) 0.3381(4) 0.2278(3)
O20 O 0.6229(4) 0.3263(2) 0.2083(2)
N20 N 0.7128(5) 0.3259(3) 0.2480(3)
O18_2 O 0.2984(5) 0.8134(2) 0.6933(2)
O19_2 O 0.1909(5) 0.8381(4) 0.7722(3)
O20_2 O 0.3771(4) 0.8263(2) 0.7917(2)
N20_2 N 0.2872(5) 0.8259(3) 0.7520(3)
O22 O 0.1202(5) 0.1271(3) 0.0647(3)
N21 N 0.0271(7) 0.1423(3) 0.0335(4)
O21 O 0.0285(7) 0.1511(3) 0.9739(3)
O23 O 0.9319(6) 0.1496(4) 0.0616(4)
O23_2 O 0.0681(6) 0.6496(4) 0.9384(4)
O21_2 O 0.9715(7) 0.6511(3) 0.0261(3)
O22_2 O 0.8798(5) 0.6271(3) 0.9353(3)
N21_2 N 0.9729(7) 0.6423(3) 0.9665(4)
O24 O 0.1988(6) 0.1457(4) 0.4589(3)
O25 O 0.0185(6) 0.1463(4) 0.4842(4)
N22 N 0.1200(6) 0.1338(3) 0.4990(4)
O26 O 0.1488(6) 0.1122(3) 0.5518(3)
O24_2 O 0.8012(6) 0.6457(4) 0.5411(3)
O25_2 O 0.9815(6) 0.6463(4) 0.5158(4)
N22_2 N 0.8800(6) 0.6338(3) 0.5010(4)
O26_2 O 0.8512(6) 0.6122(3) 0.4482(3)
loop_
_geom_bond_atom_site_label_1
_geom_bond_atom_site_label_2
_geom_bond_site_symmetry_1
_geom_bond_site_symmetry_2
N2 C4 1_555 1_555
N5 C3 1_555 1_555
C2 H3 1_555 1_555
C3 C2 1_555 1_555
H4 C3 1_555 1_555
C4 H5 1_555 1_555
C5 C4 1_555 1_555
H6 C5 1_555 1_555
C7 N2 1_555 1_555
H8 C7 1_555 1_555
C10 C2 1_555 1_555
C23 C5 1_555 1_555
C27 C7 1_555 1_555
H21 C27 1_555 1_555
Co5 N2 1_555 1_555
Co6 N5 1_555 1_555
C23 C27 1_555 1_555
N6 C11 1_555 1_555
C6 H7 1_555 1_555
C8 H9 1_555 1_555
H10 C9 1_555 1_555
C11 H11 1_555 1_555
C17 C11 1_555 1_555
H15 C17 1_555 1_555
C18 N6 1_555 1_555
H16 C18 1_555 1_555
C21 C6 1_555 1_555
Co8 N6 1_555 1_555
C6 C18 1_555 1_555
C8 C9 1_555 1_555
C17 C21 1_555 1_555
Co5 N1 1_555 1_555
Co6 N3 1_555 1_555
Co4 O5 1_555 1_555
N1 C19 1_555 1_555
O1 Co5 1_555 1_555
O2 Co5 1_555 1_555
O4 Co6 1_555 1_555
O5 C12 1_555 1_555
N4 Co4 1_555 1_555
O7 Co5 1_555 1_555
H2 O7 1_555 1_555
C12 O2 1_555 1_555
C13 H12 1_555 1_555
C15 N4 1_555 1_555
H13 C15 1_555 1_555
C16 H14 1_555 1_555
C19 C13 1_555 1_555
H17 C19 1_555 1_555
C24 O7 1_555 1_555
H19 C24 1_555 1_555
C26 C13 1_555 1_555
C29 N4 1_555 1_555
H22 C29 1_555 1_555
C30 C15 1_555 1_555
H23 C30 1_555 1_555
N8 Co5 1_555 1_555
C32 O1 1_555 1_555
C33 C24 1_555 1_555
O9 Co6 1_555 1_555
C34 C35 1_555 1_555
C36 N8 1_555 1_555
H28 C36 1_555 1_555
C42 N3 1_555 1_555
H33 C42 1_555 1_555
C57 C33 1_555 1_555
H46 C57 1_555 1_555
C60 C57 1_555 1_555
H47 C60 1_555 1_555
C65 C42 1_555 1_555
H51 C65 1_555 1_555
C67 C26 1_555 1_555
H52 C67 1_555 1_555
C70 N1 1_555 1_555
H55 C70 1_555 1_555
C71 N8 1_555 1_555
H56 C71 1_555 1_555
C77 C34 1_555 1_555
H61 C77 1_555 1_555
C79 C32 1_555 1_555
H63 C79 1_555 1_555
C80 C79 1_555 1_555
C81 H64 1_555 1_555
C82 C80 1_555 1_555
H65 C82 1_555 1_555
C83 C33 1_555 1_555
H66 C83 1_555 1_555
C84 C60 1_555 1_555
H67 C84 1_555 1_555
C88 C80 1_555 1_555
H71 C88 1_555 1_555
C90 C82 1_555 1_555
H73 C90 1_555 1_555
C91 C88 1_555 1_555
O13 Co4 1_555 1_555
N16 Co4 1_555 1_555
O14 Co4 1_555 1_555
N17 Co6 1_555 1_555
N18 Co4 1_555 1_555
O4 C32 1_555 1_555
C12 C24 1_555 1_555
C16 C29 1_555 1_555
O9 C79 1_555 1_555
C35 C71 1_555 1_555
C36 C77 1_555 1_555
C59 C65 1_555 1_555
C67 C70 1_555 1_555
C81 C83 1_555 1_555
C81 C84 1_555 1_555
C89 C90 1_555 1_555
C89 C91 1_555 1_555
Co8 O3 1_555 1_555
O3 C20 1_555 1_555
O13 C20 1_555 1_555
O14 C22 1_555 1_555
C20 C22 1_555 1_555
C22 H18 1_555 1_555
O10 Co8 1_555 1_555
H26 O10 1_555 1_555
O11 Co8 1_555 1_555
C37 H29 1_555 1_555
C39 C38 1_555 1_555
H30 C39 1_555 1_555
C40 C37 1_555 1_555
H31 C40 1_555 1_555
C41 O10 1_555 1_555
H32 C41 1_555 1_555
C43 C41 1_555 1_555
C44 C43 1_555 1_555
H34 C44 1_555 1_555
C45 C50 1_555 1_555
C48 C44 1_555 1_555
H37 C48 1_555 1_555
N10 Co8 1_555 1_555
C52 C50 1_555 1_555
H41 C52 1_555 1_555
N12 Co8 1_555 1_555
C58 C22 1_555 1_555
C61 O11 1_555 1_555
C62 C39 1_555 1_555
H48 C62 1_555 1_555
C63 C48 1_555 1_555
H49 C63 1_555 1_555
C64 C63 1_555 1_555
H50 C64 1_555 1_555
C68 C38 1_555 1_555
H53 C68 1_555 1_555
C69 N10 1_555 1_555
H54 C69 1_555 1_555
C72 C43 1_555 1_555
H57 C72 1_555 1_555
C73 N12 1_555 1_555
H58 C73 1_555 1_555
C76 C58 1_555 1_555
H60 C76 1_555 1_555
C78 C45 1_555 1_555
H62 C78 1_555 1_555
C85 H68 1_555 1_555
C86 C58 1_555 1_555
H69 C86 1_555 1_555
C87 C85 1_555 1_555
H70 C87 1_555 1_555
C92 C76 1_555 1_555
H75 C92 1_555 1_555
H76 O14 1_555 1_555
C41 C61 1_555 1_555
N10 C52 1_555 1_555
O12 C61 1_555 1_555
N12 C62 1_555 1_555
C64 C72 1_555 1_555
C68 C73 1_555 1_555
C69 C78 1_555 1_555
C85 C92 1_555 1_555
C86 C87 1_555 1_555
C46 H35 1_555 1_555
C49 C46 1_555 1_555
H38 C49 1_555 1_555
C51 H40 1_555 1_555
N11 C49 1_555 1_555
C55 C51 1_555 1_555
H44 C55 1_555 1_555
Co11 N11 1_555 1_555
C46 C75 1_555 1_555
C51 N11 1_555 1_555
C55 C75 1_555 1_555
N9 C53 1_555 1_555
C47 H36 1_555 1_555
C53 C47 1_555 1_555
C54 H43 1_555 1_555
C56 N9 1_555 1_555
H45 C56 1_555 1_555
Co7 N9 1_555 1_555
C47 C66 1_555 1_555
C54 C56 1_555 1_555
C54 C66 1_555 1_555
C1 H1 1_555 1_555
N16 C1 1_555 1_555
C14 C25 1_555 1_555
C25 C1 1_555 1_555
H20 C25 1_555 1_555
C28 C14 1_555 1_555
C31 N16 1_555 1_555
H24 C31 1_555 1_555
C74 C14 1_555 1_555
H59 C74 1_555 1_555
C31 C74 1_555 1_555
C1_2 H1_2 1_555 1_555
N7 C1_2 1_555 1_555
C14_2 C25_2 1_555 1_555
C25_2 C1_2 1_555 1_555
H20_2 C25_2 1_555 1_555
C28_2 C14_2 1_555 1_555
C31_2 N7 1_555 1_555
H24_2 C31_2 1_555 1_555
C74_2 C14_2 1_555 1_555
H59_2 C74_2 1_555 1_555
Co11 N7 1_555 1_555
C31_2 C74_2 1_555 1_555
Co3 O3_2 1_555 1_555
O3_2 C20_2 1_555 1_555
O6 C20_2 1_555 1_555
O8 C22_2 1_555 1_555
C20_2 C22_2 1_555 1_555
C22_2 H18_2 1_555 1_555
N17 C53_2 1_555 1_555
O10_2 Co3 1_555 1_555
H26_2 O10_2 1_555 1_555
O11_2 Co3 1_555 1_555
C37_2 H29_2 1_555 1_555
C39_2 C38_2 1_555 1_555
H30_2 C39_2 1_555 1_555
C40_2 C37_2 1_555 1_555
H31_2 C40_2 1_555 1_555
C41_2 O10_2 1_555 1_555
H32_2 C41_2 1_555 1_555
C43_2 C41_2 1_555 1_555
C44_2 C43_2 1_555 1_555
H34_2 C44_2 1_555 1_555
C45_2 C50_2 1_555 1_555
C47_2 H36_2 1_555 1_555
C48_2 C44_2 1_555 1_555
H37_2 C48_2 1_555 1_555
C50_2 H39_2 1_555 1_555
N10_2 Co3 1_555 1_555
C52_2 C50_2 1_555 1_555
H41_2 C52_2 1_555 1_555
C53_2 C47_2 1_555 1_555
C54_2 H43_2 1_555 1_555
C56_2 N17 1_555 1_555
H45_2 C56_2 1_555 1_555
N12_2 Co3 1_555 1_555
C58_2 C22_2 1_555 1_555
C61_2 O11_2 1_555 1_555
C62_2 C39_2 1_555 1_555
H48_2 C62_2 1_555 1_555
C63_2 C48_2 1_555 1_555
H49_2 C63_2 1_555 1_555
C64_2 C63_2 1_555 1_555
H50_2 C64_2 1_555 1_555
C66_2 C45_2 1_555 1_555
C68_2 C38_2 1_555 1_555
H53_2 C68_2 1_555 1_555
C69_2 N10_2 1_555 1_555
H54_2 C69_2 1_555 1_555
C72_2 C43_2 1_555 1_555
H57_2 C72_2 1_555 1_555
C73_2 N12_2 1_555 1_555
H58_2 C73_2 1_555 1_555
C76_2 C58_2 1_555 1_555
H60_2 C76_2 1_555 1_555
C78_2 C45_2 1_555 1_555
H62_2 C78_2 1_555 1_555
C85_2 H68_2 1_555 1_555
C86_2 C58_2 1_555 1_555
H69_2 C86_2 1_555 1_555
C87_2 C85_2 1_555 1_555
H70_2 C87_2 1_555 1_555
C92_2 C76_2 1_555 1_555
H75_2 C92_2 1_555 1_555
H76_2 O8 1_555 1_555
Co11 O6 1_555 1_555
N15 Co3 1_555 1_555
O8 Co11 1_555 1_555
C41_2 C61_2 1_555 1_555
C47_2 C66_2 1_555 1_555
N10_2 C52_2 1_555 1_555
C54_2 C56_2 1_555 1_555
C54_2 C66_2 1_555 1_555
O12_2 C61_2 1_555 1_555
N12_2 C62_2 1_555 1_555
C64_2 C72_2 1_555 1_555
C68_2 C73_2 1_555 1_555
C69_2 C78_2 1_555 1_555
C85_2 C92_2 1_555 1_555
C86_2 C87_2 1_555 1_555
Co1 N1_2 1_555 1_555
Co7 N3_2 1_555 1_555
Co11 O5_2 1_555 1_555
N1_2 C19_2 1_555 1_555
O1_2 Co1 1_555 1_555
O2_2 Co1 1_555 1_555
O4_2 Co7 1_555 1_555
O5_2 C12_2 1_555 1_555
N4_2 Co11 1_555 1_555
O7_2 Co1 1_555 1_555
H2_2 O7_2 1_555 1_555
C12_2 O2_2 1_555 1_555
C13_2 H12_2 1_555 1_555
C15_2 N4_2 1_555 1_555
H13_2 C15_2 1_555 1_555
C16_2 H14_2 1_555 1_555
C19_2 C13_2 1_555 1_555
H17_2 C19_2 1_555 1_555
C24_2 O7_2 1_555 1_555
H19_2 C24_2 1_555 1_555
C26_2 C13_2 1_555 1_555
C29_2 N4_2 1_555 1_555
H22_2 C29_2 1_555 1_555
C30_2 C15_2 1_555 1_555
H23_2 C30_2 1_555 1_555
N8_2 Co1 1_555 1_555
C32_2 O1_2 1_555 1_555
C33_2 C24_2 1_555 1_555
O9_2 Co7 1_555 1_555
C34_2 C35_2 1_555 1_555
C35_2 H27_2 1_555 1_555
C36_2 N8_2 1_555 1_555
H28_2 C36_2 1_555 1_555
C42_2 N3_2 1_555 1_555
H33_2 C42_2 1_555 1_555
C46_2 H35_2 1_555 1_555
C49_2 C46_2 1_555 1_555
H38_2 C49_2 1_555 1_555
C51_2 H40_2 1_555 1_555
N18 C49_2 1_555 1_555
C55_2 C51_2 1_555 1_555
H44_2 C55_2 1_555 1_555
C57_2 C33_2 1_555 1_555
H46_2 C57_2 1_555 1_555
C60_2 C57_2 1_555 1_555
H47_2 C60_2 1_555 1_555
C65_2 C42_2 1_555 1_555
H51_2 C65_2 1_555 1_555
C67_2 C26_2 1_555 1_555
H52_2 C67_2 1_555 1_555
C70_2 N1_2 1_555 1_555
H55_2 C70_2 1_555 1_555
C71_2 N8_2 1_555 1_555
H56_2 C71_2 1_555 1_555
C75_2 C34_2 1_555 1_555
C77_2 C34_2 1_555 1_555
H61_2 C77_2 1_555 1_555
C79_2 C32_2 1_555 1_555
H63_2 C79_2 1_555 1_555
C80_2 C79_2 1_555 1_555
C81_2 H64_2 1_555 1_555
C82_2 C80_2 1_555 1_555
H65_2 C82_2 1_555 1_555
C83_2 C33_2 1_555 1_555
H66_2 C83_2 1_555 1_555
C84_2 C60_2 1_555 1_555
H67_2 C84_2 1_555 1_555
C88_2 C80_2 1_555 1_555
H71_2 C88_2 1_555 1_555
C89_2 H72_2 1_555 1_555
C90_2 C82_2 1_555 1_555
H73_2 C90_2 1_555 1_555
C91_2 C88_2 1_555 1_555
H74_2 C91_2 1_555 1_555
N13 Co1 1_555 1_555
N14 Co7 1_555 1_555
O4_2 C32_2 1_555 1_555
C12_2 C24_2 1_555 1_555
C16_2 C29_2 1_555 1_555
O9_2 C79_2 1_555 1_555
C35_2 C71_2 1_555 1_555
C36_2 C77_2 1_555 1_555
C46_2 C75_2 1_555 1_555
C51_2 N18 1_555 1_555
C55_2 C75_2 1_555 1_555
C59_2 C65_2 1_555 1_555
C67_2 C70_2 1_555 1_555
C81_2 C83_2 1_555 1_555
C81_2 C84_2 1_555 1_555
C89_2 C90_2 1_555 1_555
C89_2 C91_2 1_555 1_555
N15 C11_2 1_555 1_555
C6_2 H7_2 1_555 1_555
C8_2 H9_2 1_555 1_555
H10_2 C9_2 1_555 1_555
C11_2 H11_2 1_555 1_555
C17_2 C11_2 1_555 1_555
H15_2 C17_2 1_555 1_555
C18_2 N15 1_555 1_555
H16_2 C18_2 1_555 1_555
C21_2 C6_2 1_555 1_555
C6_2 C18_2 1_555 1_555
C8_2 C9_2 1_555 1_555
C17_2 C21_2 1_555 1_555
N13 C4_2 1_555 1_555
N14 C3_2 1_555 1_555
C2_2 H3_2 1_555 1_555
C3_2 C2_2 1_555 1_555
H4_2 C3_2 1_555 1_555
C4_2 H5_2 1_555 1_555
C5_2 C4_2 1_555 1_555
H6_2 C5_2 1_555 1_555
C7_2 N13 1_555 1_555
H8_2 C7_2 1_555 1_555
C10_2 C2_2 1_555 1_555
C23_2 C5_2 1_555 1_555
C27_2 C7_2 1_555 1_555
H21_2 C27_2 1_555 1_555
C23_2 C27_2 1_555 1_555
O15 N19 1_555 1_555
O16 N19 1_555 1_555
O17 N19 1_555 1_555
O15_2 N19_2 1_555 1_555
O16_2 N19_2 1_555 1_555
O17_2 N19_2 1_555 1_555
O18 N20 1_555 1_555
O19 N20 1_555 1_555
O20 N20 1_555 1_555
O18_2 N20_2 1_555 1_555
O19_2 N20_2 1_555 1_555
O20_2 N20_2 1_555 1_555
O22 N21 1_555 1_555
O22_2 N21_2 1_555 1_555
O24 N22 1_555 1_555
O25 N22 1_555 1_555
N22 O26 1_555 1_555
O24_2 N22_2 1_555 1_555
O25_2 N22_2 1_555 1_555
N22_2 O26_2 1_555 1_555

#END
