
###############################################################################
#
# This file contains modified crystal structure data generated from the
# MOF subset of the Cambridge Structural Database (CSD) v543 
# hosted by the Cambridge Crystallographic Data Centre (CCDC).
#
# This work is licensed under the Creative Commons
# Attribution-NonCommercial-ShareAlike 4.0 International License.
# To view a copy of this license, visit
# http://creativecommons.org/licenses/by-nc-sa/4.0/
# or send a letter to
# Creative Commons, PO Box 1866, Mountain View, CA 94042, USA.
#
# CIF created using the CSD Python API on 29 September 2022
# The structure has been converted into the P1 space group
# The structure has a 3D framework
# The original CSD entry TUSGUJ is in the tetragonal crystal system
# The framework has been calculated to contain at least 10.0% void space
# The void calculation uses a probe of radius 1.32A, grid spacing 0.4
# The framework is charged, counterions have been retained in the structure
# H atom positions have been added when not included in the experimental data
# Generated hydrogen atom positions removed from atoms on special positions
#
###############################################################################

data_TUSGUJ
_chemical_formula_moiety         '(C1168 H744 Ag32 N280 O60 Zn51 16+)n'
_symmetry_cell_setting           triclinic
_symmetry_space_group_name_H-M   'P 1'
_symmetry_Int_Tables_number      1
_space_group_name_Hall           'P 1'
loop_
_symmetry_equiv_pos_site_id
_symmetry_equiv_pos_as_xyz
1 x,y,z
_cell_length_a                   39.1689(19)
_cell_length_b                   39.1689(19)
_cell_length_c                   28.991(2)
_cell_angle_alpha                90
_cell_angle_beta                 90
_cell_angle_gamma                90
_cell_volume                     44478.1
loop_
_atom_site_label
_atom_site_type_symbol
_atom_site_fract_x
_atom_site_fract_y
_atom_site_fract_z
Zn1 Zn 0.0000 0.0000 0.0000
Zn2 Zn 0.18785(3) 0.16877(3) 0.0000
Ag1 Ag 0.06042(3) 0.30806(3) 0.23925(3)
C1 C 0.1203(2) 0.2546(2) 0.0225(2)
H1 H 0.1081 0.2691 0.0417
C2 C 0.1430(2) 0.2275(2) 0.0367(3)
C3 C 0.1516(2) 0.2186(2) 0.0835(3)
C4 C 0.1749(2) 0.1953(2) 0.0973(3)
C5 C 0.1829(2) 0.1874(2) 0.1449(3)
H2 H 0.1732 0.1977 0.1707
C6 C 0.2064(2) 0.1627(2) 0.1453(3)
H3 H 0.2159 0.1522 0.1711
C7 C 0.2138(2) 0.1558(2) 0.0988(3)
C8 C 0.23745(19) 0.13143(19) 0.0832(3)
C9 C 0.2464(2) 0.12350(18) 0.0378(3)
C10 C 0.2721(2) 0.0997(2) 0.0230(2)
H4 H 0.2861 0.0867 0.0419
H5 H 0.0132 0.3324 0.0413
C16 C 0.0315(3) 0.0725(3) 0.0000
C17 C 0.0679(3) 0.0575(3) 0.0000
C18 C 0.0742(4) 0.0222(3) 0.0000
C19 C 0.1085(4) 0.0110(3) 0.0000
H7 H 0.1279 0.0247 0.0000
C20 C 0.0239(4) 0.1078(3) 0.0000
H8 H 0.0390 0.1261 0.0000
N1 N 0.0936(3) 0.2737(3) 0.1880(4)
C21 C 0.1259(4) 0.2804(3) 0.1804(4)
H9 H 0.1363 0.2969 0.1986
C22 C 0.1459(3) 0.2640(3) 0.1462(4)
H10 H 0.1684 0.2704 0.1408
C23 C 0.1303(3) 0.2380(3) 0.1209(3)
C24 C 0.0964(3) 0.2306(3) 0.1278(4)
H11 H 0.0851 0.2144 0.1101
C25 C 0.0796(3) 0.2489(4) 0.1634(5)
H12 H 0.0571 0.2430 0.1700
N2 N 0.2885(3) 0.0798(3) 0.1961(3)
C26 C 0.3025(4) 0.1062(4) 0.1746(4)
H13 H 0.3235 0.1137 0.1855
C27 C 0.2886(3) 0.1239(3) 0.1369(4)
H14 H 0.3001 0.1419 0.1228
C28 C 0.2577(3) 0.1132(2) 0.1223(3)
C29 C 0.2421(3) 0.0864(3) 0.1434(4)
H15 H 0.2210 0.0786 0.1333
C30 C 0.2588(4) 0.0710(4) 0.1806(5)
H16 H 0.2476 0.0531 0.1954
C31 C 0.0045(3) 0.3115(3) 0.1648(5)
H17 H 0.0053 0.2880 0.1692
C34 C 0.0017(3) 0.3768(3) 0.1493(5)
H19 H 0.0015 0.4004 0.1459
C35 C 0.0211(3) 0.3629(4) 0.1838(4)
H20 H 0.0333 0.3777 0.2027
C38 C 0.0950(3) 0.0820(3) 0.0000
N3 N 0.1563(2) 0.2122(2) 0.0000
N4 N 0.19403(15) 0.17508(15) 0.07056(19)
N5 N 0.23127(19) 0.13697(19) 0.0000
N8 N 0.0030(3) 0.0509(2) 0.0000
N9 N 0.0235(2) 0.3313(3) 0.1918(3)
N10 N 0.1486(2) 0.1310(2) 0.0000
C119 C 0.1358(3) 0.1190(3) 0.0372(4)
H71 H 0.1450 0.1263 0.0651
C120 C 0.1083(3) 0.0951(3) 0.0388(4)
H72 H 0.0995 0.0884 0.0672
N57 N 0.0798(3) 0.2885(3) 0.3039(3)
Ag9 Ag 0.30806(3) 0.06042(3) 0.26075(3)
Zn1_2 Zn 0.0000 0.0000 1.0000
Zn2_2 Zn 0.18785(3) 0.16877(3) 1.0000
C16_2 C 0.0315(3) 0.0725(3) 1.0000
C17_2 C 0.0679(3) 0.0575(3) 1.0000
C18_2 C 0.0742(4) 0.0222(3) 1.0000
C19_2 C 0.1085(4) 0.0110(3) 1.0000
H7_2 H 0.1279 0.0247 1.0000
C20_2 C 0.0239(4) 0.1078(3) 1.0000
H8_2 H 0.0390 0.1261 1.0000
C36 C 0.1358(3) 0.1190(3) 0.9628(4)
H21 H 0.1450 0.1263 0.9349
C37 C 0.1083(3) 0.0951(3) 0.9612(4)
H22 H 0.0995 0.0884 0.9328
C38_2 C 0.0950(3) 0.0820(3) 1.0000
N3_2 N 0.1563(2) 0.2122(2) 1.0000
N5_2 N 0.23127(19) 0.13697(19) 1.0000
N8_2 N 0.0030(3) 0.0509(2) 1.0000
N10_2 N 0.1486(2) 0.1310(2) 1.0000
C39 C 0.1203(2) 0.2546(2) 0.9775(2)
H23 H 0.1081 0.2691 0.9583
C40 C 0.1430(2) 0.2275(2) 0.9633(3)
C41 C 0.1516(2) 0.2186(2) 0.9165(3)
C42 C 0.1749(2) 0.1953(2) 0.9027(3)
C43 C 0.1829(2) 0.1874(2) 0.8551(3)
H24 H 0.1732 0.1977 0.8293
C44 C 0.2064(2) 0.1627(2) 0.8547(3)
H25 H 0.2159 0.1522 0.8289
C45 C 0.2138(2) 0.1558(2) 0.9012(3)
C46 C 0.23745(19) 0.13143(19) 0.9168(3)
C47 C 0.2464(2) 0.12350(18) 0.9622(3)
C48 C 0.2721(2) 0.0997(2) 0.9770(2)
H26 H 0.2861 0.0867 0.9581
C49 C 0.2577(3) 0.1132(2) 0.8777(3)
C50 C 0.2886(3) 0.1239(3) 0.8631(4)
C51 C 0.3025(4) 0.1062(4) 0.8254(4)
N11 N 0.2885(3) 0.0798(3) 0.8039(3)
C52 C 0.2588(4) 0.0710(4) 0.8194(5)
C53 C 0.2421(3) 0.0864(3) 0.8566(4)
H27 H 0.2210 0.0786 0.8667
H28 H 0.2476 0.0531 0.8046
H29 H 0.3235 0.1137 0.8145
H30 H 0.3001 0.1419 0.8772
N12 N 0.19403(15) 0.17508(15) 0.92944(19)
C54 C 0.1303(3) 0.2380(3) 0.8791(3)
C55 C 0.1459(3) 0.2640(3) 0.8538(4)
C56 C 0.1259(4) 0.2804(3) 0.8196(4)
N13 N 0.0936(3) 0.2737(3) 0.8120(4)
C57 C 0.0796(3) 0.2489(4) 0.8366(5)
C58 C 0.0964(3) 0.2306(3) 0.8722(4)
H31 H 0.0851 0.2144 0.8899
H32 H 0.0571 0.2430 0.8300
H33 H 0.1363 0.2969 0.8014
H34 H 0.1684 0.2704 0.8592
H35 H 0.0132 0.3324 0.9587
C86 C 0.0045(3) 0.3115(3) 0.8352(5)
H49 H 0.0053 0.2880 0.8308
N18 N 0.0235(2) 0.3313(3) 0.8082(3)
C87 C 0.0211(3) 0.3629(4) 0.8162(4)
C88 C 0.0017(3) 0.3768(3) 0.8507(5)
H50 H 0.0015 0.4004 0.8541
H51 H 0.0333 0.3777 0.7973
Ag2 Ag 0.06042(3) 0.30806(3) 0.76075(3)
Ag10 Ag 0.30806(3) 0.06042(3) 0.73925(3)
N58 N 0.0798(3) 0.2885(3) 0.6961(3)
Zn1_3 Zn 0.0000 1.0000 0.0000
C89 C 0.1078(3) 0.9761(4) 0.0000
C90 C 0.0725(3) 0.9685(3) 0.0000
C91 C 0.0575(3) 0.9321(3) 0.0000
C92 C 0.0222(3) 0.9258(4) 0.0000
C93 C 0.0110(3) 0.8915(4) 0.0000
H53 H 0.0247 0.8721 0.0000
C114 C 0.0820(3) 0.9050(3) 0.0000
N23 N 0.1310(2) 0.8514(2) 0.0000
C117 C 0.1190(3) 0.8642(3) 0.0372(4)
H67 H 0.1263 0.8550 0.0651
C118 C 0.0951(3) 0.8917(3) 0.0388(4)
H68 H 0.0884 0.9005 0.0672
N24 N 0.0509(2) 0.9970(3) 0.0000
H70 H 0.1261 0.9610 0.0000
Zn6 Zn 0.16877(3) 0.81215(3) 0.0000
C201 C 0.2546(2) 0.8797(2) 0.0225(2)
H121 H 0.2691 0.8919 0.0417
C202 C 0.2275(2) 0.8570(2) 0.0367(3)
C203 C 0.2186(2) 0.8484(2) 0.0835(3)
C204 C 0.1953(2) 0.8251(2) 0.0973(3)
C205 C 0.1874(2) 0.8171(2) 0.1449(3)
H122 H 0.1977 0.8268 0.1707
C206 C 0.1627(2) 0.7936(2) 0.1453(3)
H123 H 0.1522 0.7841 0.1711
C207 C 0.1558(2) 0.7862(2) 0.0988(3)
C208 C 0.13143(19) 0.76255(19) 0.0832(3)
C209 C 0.12350(18) 0.7536(2) 0.0378(3)
C210 C 0.0997(2) 0.7279(2) 0.0230(2)
H124 H 0.0867 0.7139 0.0419
N41 N 0.2737(3) 0.9064(3) 0.1880(4)
C211 C 0.2804(3) 0.8741(4) 0.1804(4)
H125 H 0.2969 0.8637 0.1986
C212 C 0.2640(3) 0.8541(3) 0.1462(4)
H126 H 0.2704 0.8316 0.1408
C213 C 0.2380(3) 0.8697(3) 0.1209(3)
C214 C 0.2306(3) 0.9036(3) 0.1278(4)
H127 H 0.2144 0.9149 0.1101
C215 C 0.2489(4) 0.9204(3) 0.1634(5)
H128 H 0.2430 0.9429 0.1700
N42 N 0.0798(3) 0.7115(3) 0.1961(3)
C216 C 0.1062(4) 0.6975(4) 0.1746(4)
H129 H 0.1137 0.6765 0.1855
C217 C 0.1239(3) 0.7114(3) 0.1369(4)
H130 H 0.1419 0.6999 0.1228
C218 C 0.1132(2) 0.7423(3) 0.1223(3)
C219 C 0.0864(3) 0.7579(3) 0.1434(4)
H131 H 0.0786 0.7790 0.1333
C220 C 0.0710(4) 0.7412(4) 0.1806(5)
H132 H 0.0531 0.7524 0.1954
N43 N 0.2122(2) 0.8437(2) 0.0000
N44 N 0.17508(15) 0.80597(15) 0.07056(19)
N45 N 0.13697(19) 0.76873(19) 0.0000
Ag7 Ag 0.30806(3) 0.93958(3) 0.23925(3)
Ag17 Ag 0.06042(3) 0.69194(3) 0.26075(3)
N65 N 0.2885(3) 0.9202(3) 0.3039(3)
N66 N 0.3313(3) 0.9765(2) 0.1918(3)
Zn1_4 Zn 0.0000 1.0000 1.0000
C89_2 C 0.1078(3) 0.9761(4) 1.0000
C90_2 C 0.0725(3) 0.9685(3) 1.0000
C91_2 C 0.0575(3) 0.9321(3) 1.0000
C92_2 C 0.0222(3) 0.9258(4) 1.0000
C93_2 C 0.0110(3) 0.8915(4) 1.0000
H53_2 H 0.0247 0.8721 1.0000
C114_2 C 0.0820(3) 0.9050(3) 1.0000
C115 C 0.0951(3) 0.8917(3) 0.9612(4)
C116 C 0.1190(3) 0.8642(3) 0.9628(4)
H66 H 0.1263 0.8550 0.9349
N23_2 N 0.1310(2) 0.8514(2) 1.0000
H69 H 0.0884 0.9005 0.9328
N24_2 N 0.0509(2) 0.9970(3) 1.0000
H70_2 H 0.1261 0.9610 1.0000
Zn6_2 Zn 0.16877(3) 0.81215(3) 1.0000
N43_2 N 0.2122(2) 0.8437(2) 1.0000
N45_2 N 0.13697(19) 0.76873(19) 1.0000
C221 C 0.2546(2) 0.8797(2) 0.9775(2)
H133 H 0.2691 0.8919 0.9583
C222 C 0.2275(2) 0.8570(2) 0.9633(3)
C223 C 0.2186(2) 0.8484(2) 0.9165(3)
C224 C 0.1953(2) 0.8251(2) 0.9027(3)
C225 C 0.1874(2) 0.8171(2) 0.8551(3)
H134 H 0.1977 0.8268 0.8293
C226 C 0.1627(2) 0.7936(2) 0.8547(3)
H135 H 0.1522 0.7841 0.8289
C227 C 0.1558(2) 0.7862(2) 0.9012(3)
C228 C 0.13143(19) 0.76255(19) 0.9168(3)
C229 C 0.12350(18) 0.7536(2) 0.9622(3)
C230 C 0.0997(2) 0.7279(2) 0.9770(2)
H136 H 0.0867 0.7139 0.9581
C231 C 0.1132(2) 0.7423(3) 0.8777(3)
C232 C 0.1239(3) 0.7114(3) 0.8631(4)
C233 C 0.1062(4) 0.6975(4) 0.8254(4)
N46 N 0.0798(3) 0.7115(3) 0.8039(3)
C234 C 0.0710(4) 0.7412(4) 0.8194(5)
C235 C 0.0864(3) 0.7579(3) 0.8566(4)
H137 H 0.0786 0.7790 0.8667
H138 H 0.0531 0.7524 0.8046
H139 H 0.1137 0.6765 0.8145
H140 H 0.1419 0.6999 0.8772
N47 N 0.17508(15) 0.80597(15) 0.92944(19)
C236 C 0.2380(3) 0.8697(3) 0.8791(3)
C237 C 0.2640(3) 0.8541(3) 0.8538(4)
C238 C 0.2804(3) 0.8741(4) 0.8196(4)
N48 N 0.2737(3) 0.9064(3) 0.8120(4)
C239 C 0.2489(4) 0.9204(3) 0.8366(5)
C240 C 0.2306(3) 0.9036(3) 0.8722(4)
H141 H 0.2144 0.9149 0.8899
H142 H 0.2430 0.9429 0.8300
H143 H 0.2969 0.8637 0.8014
H144 H 0.2704 0.8316 0.8592
Ag8 Ag 0.30806(3) 0.93958(3) 0.76075(3)
Ag18 Ag 0.06042(3) 0.69194(3) 0.73925(3)
N67 N 0.2885(3) 0.9202(3) 0.6961(3)
N68 N 0.3313(3) 0.9765(2) 0.8082(3)
Zn1_5 Zn 1.0000 0.0000 0.0000
Zn3 Zn 0.92541(4) 0.42541(4) 0.0000
C11 C 0.9986(2) 0.3448(2) 0.0223(2)
C12 C 0.9711(2) 0.3683(2) 0.0377(3)
C13 C 0.9621(2) 0.3747(2) 0.0837(3)
C14 C 0.9379(2) 0.3968(2) 0.0975(2)
C15 C 0.9254(2) 0.4009(2) 0.1455(3)
H6 H 0.9331 0.3888 0.1711
C32 C 0.9825(2) 0.3248(3) 0.1289(3)
H18 H 0.9682 0.3105 0.1121
C33 C 0.9835(2) 0.3580(3) 0.1210(3)
N6 N 0.9558(2) 0.3821(2) 0.0000
N7 N 0.91923(18) 0.41923(18) 0.0689(3)
O1 O 0.9633(3) 0.4633(3) 0.0000
C69 C 0.8448(2) 0.4986(2) 0.0223(2)
H36 H 0.8324 0.5132 0.0413
C70 C 0.8683(2) 0.4711(2) 0.0377(3)
C71 C 0.8747(2) 0.4621(2) 0.0837(3)
C72 C 0.8968(2) 0.4379(2) 0.0975(2)
C73 C 0.9009(2) 0.4254(2) 0.1455(3)
H37 H 0.8888 0.4331 0.1711
C74 C 0.8580(3) 0.4835(2) 0.1210(3)
C75 C 0.8248(3) 0.4825(2) 0.1289(3)
C76 C 0.8115(3) 0.5045(3) 0.1648(5)
H38 H 0.7880 0.5053 0.1692
N14 N 0.8313(3) 0.5235(2) 0.1918(3)
C77 C 0.8629(4) 0.5211(3) 0.1838(4)
C78 C 0.8768(3) 0.5017(3) 0.1493(5)
H39 H 0.9004 0.5015 0.1459
H40 H 0.8777 0.5333 0.2027
H41 H 0.8105 0.4682 0.1121
N15 N 0.8821(2) 0.4558(2) 0.0000
C99 C 0.8922(3) 0.0239(4) 0.0000
C100 C 0.9275(3) 0.0315(3) 0.0000
C101 C 0.9425(3) 0.0679(3) 0.0000
C102 C 0.9778(3) 0.0742(4) 0.0000
C103 C 0.9890(3) 0.1085(4) 0.0000
H55 H 0.9753 0.1279 0.0000
C104 C 0.9180(3) 0.0950(3) 0.0000
N19 N 0.8690(2) 0.1486(2) 0.0000
C107 C 0.8810(3) 0.1358(3) 0.0372(4)
H57 H 0.8737 0.1450 0.0651
C108 C 0.9049(3) 0.1083(3) 0.0388(4)
H58 H 0.9116 0.0995 0.0672
N20 N 0.9491(2) 0.0030(3) 0.0000
H60 H 0.8739 0.0390 0.0000
Zn4 Zn 0.83123(3) 0.18785(3) 0.0000
C121 C 0.7454(2) 0.1203(2) 0.0225(2)
H73 H 0.7309 0.1081 0.0417
C122 C 0.7725(2) 0.1430(2) 0.0367(3)
C123 C 0.7814(2) 0.1516(2) 0.0835(3)
C124 C 0.8047(2) 0.1749(2) 0.0973(3)
C125 C 0.8126(2) 0.1829(2) 0.1449(3)
H74 H 0.8023 0.1732 0.1707
C126 C 0.8373(2) 0.2064(2) 0.1453(3)
H75 H 0.8478 0.2159 0.1711
C127 C 0.8442(2) 0.2138(2) 0.0988(3)
C128 C 0.86857(19) 0.23745(19) 0.0832(3)
C129 C 0.87650(18) 0.2464(2) 0.0378(3)
C130 C 0.9003(2) 0.2721(2) 0.0230(2)
H76 H 0.9133 0.2861 0.0419
N25 N 0.7263(3) 0.0936(3) 0.1880(4)
C131 C 0.7196(3) 0.1259(4) 0.1804(4)
H77 H 0.7031 0.1363 0.1986
C132 C 0.7360(3) 0.1459(3) 0.1462(4)
H78 H 0.7296 0.1684 0.1408
C133 C 0.7620(3) 0.1303(3) 0.1209(3)
C134 C 0.7694(3) 0.0964(3) 0.1278(4)
H79 H 0.7856 0.0851 0.1101
C135 C 0.7511(4) 0.0796(3) 0.1634(5)
H80 H 0.7570 0.0571 0.1700
N26 N 0.9202(3) 0.2885(3) 0.1961(3)
C136 C 0.8938(4) 0.3025(4) 0.1746(4)
H81 H 0.8863 0.3235 0.1855
C137 C 0.8761(3) 0.2886(3) 0.1369(4)
H82 H 0.8581 0.3001 0.1228
C138 C 0.8868(2) 0.2577(3) 0.1223(3)
C139 C 0.9136(3) 0.2421(3) 0.1434(4)
H83 H 0.9214 0.2210 0.1333
C140 C 0.9290(4) 0.2588(4) 0.1806(5)
H84 H 0.9469 0.2476 0.1954
N27 N 0.7878(2) 0.1563(2) 0.0000
N28 N 0.82492(15) 0.19403(15) 0.07056(19)
N29 N 0.86303(19) 0.23127(19) 0.0000
Ag3 Ag 0.69194(3) 0.06042(3) 0.23925(3)
H145 H 0.6676 0.0132 0.0413
C246 C 0.6885(3) 0.0045(3) 0.1648(5)
H147 H 0.7120 0.0053 0.1692
C249 C 0.6232(3) 0.0017(3) 0.1493(5)
H149 H 0.5996 0.0015 0.1459
C250 C 0.6371(4) 0.0211(3) 0.1838(4)
H150 H 0.6223 0.0333 0.2027
N51 N 0.6687(3) 0.0235(2) 0.1918(3)
Ag11 Ag 0.80806(3) 0.56042(3) 0.23925(3)
Ag13 Ag 0.93958(3) 0.30806(3) 0.26075(3)
N59 N 0.7115(3) 0.0798(3) 0.3039(3)
Zn1_6 Zn 1.0000 0.0000 1.0000
Zn3_2 Zn 0.92541(4) 0.42541(4) 1.0000
N6_2 N 0.9558(2) 0.3821(2) 1.0000
O1_2 O 0.9633(3) 0.4633(3) 1.0000
C59 C 0.9986(2) 0.3448(2) 0.9777(2)
C60 C 0.9711(2) 0.3683(2) 0.9623(3)
C61 C 0.9621(2) 0.3747(2) 0.9163(3)
C62 C 0.9379(2) 0.3968(2) 0.9025(2)
C63 C 0.9254(2) 0.4009(2) 0.8545(3)
C64 C 0.9009(2) 0.4254(2) 0.8545(3)
C65 C 0.8968(2) 0.4379(2) 0.9025(2)
C66 C 0.8747(2) 0.4621(2) 0.9163(3)
C67 C 0.8683(2) 0.4711(2) 0.9623(3)
C68 C 0.8448(2) 0.4986(2) 0.9777(2)
N15_2 N 0.8821(2) 0.4558(2) 1.0000
H42 H 0.8324 0.5132 0.9587
C79 C 0.8580(3) 0.4835(2) 0.8790(3)
C80 C 0.8248(3) 0.4825(2) 0.8711(3)
C81 C 0.8115(3) 0.5045(3) 0.8352(5)
H43 H 0.7880 0.5053 0.8308
N16 N 0.8313(3) 0.5235(2) 0.8082(3)
C82 C 0.8629(4) 0.5211(3) 0.8162(4)
C83 C 0.8768(3) 0.5017(3) 0.8507(5)
H44 H 0.9004 0.5015 0.8541
H45 H 0.8777 0.5333 0.7973
H46 H 0.8105 0.4682 0.8879
N17 N 0.91923(18) 0.41923(18) 0.9311(3)
H47 H 0.8888 0.4331 0.8289
H48 H 0.9331 0.3888 0.8289
C84 C 0.9835(2) 0.3580(3) 0.8790(3)
C85 C 0.9825(2) 0.3248(3) 0.8711(3)
H52 H 0.9682 0.3105 0.8879
C99_2 C 0.8922(3) 0.0239(4) 1.0000
C100_2 C 0.9275(3) 0.0315(3) 1.0000
C101_2 C 0.9425(3) 0.0679(3) 1.0000
C102_2 C 0.9778(3) 0.0742(4) 1.0000
C103_2 C 0.9890(3) 0.1085(4) 1.0000
H55_2 H 0.9753 0.1279 1.0000
C104_2 C 0.9180(3) 0.0950(3) 1.0000
C105 C 0.9049(3) 0.1083(3) 0.9612(4)
C106 C 0.8810(3) 0.1358(3) 0.9628(4)
H56 H 0.8737 0.1450 0.9349
N19_2 N 0.8690(2) 0.1486(2) 1.0000
H59 H 0.9116 0.0995 0.9328
N20_2 N 0.9491(2) 0.0030(3) 1.0000
H60_2 H 0.8739 0.0390 1.0000
Zn4_2 Zn 0.83123(3) 0.18785(3) 1.0000
N27_2 N 0.7878(2) 0.1563(2) 1.0000
N29_2 N 0.86303(19) 0.23127(19) 1.0000
C141 C 0.7454(2) 0.1203(2) 0.9775(2)
H85 H 0.7309 0.1081 0.9583
C142 C 0.7725(2) 0.1430(2) 0.9633(3)
C143 C 0.7814(2) 0.1516(2) 0.9165(3)
C144 C 0.8047(2) 0.1749(2) 0.9027(3)
C145 C 0.8126(2) 0.1829(2) 0.8551(3)
H86 H 0.8023 0.1732 0.8293
C146 C 0.8373(2) 0.2064(2) 0.8547(3)
H87 H 0.8478 0.2159 0.8289
C147 C 0.8442(2) 0.2138(2) 0.9012(3)
C148 C 0.86857(19) 0.23745(19) 0.9168(3)
C149 C 0.87650(18) 0.2464(2) 0.9622(3)
C150 C 0.9003(2) 0.2721(2) 0.9770(2)
H88 H 0.9133 0.2861 0.9581
C151 C 0.8868(2) 0.2577(3) 0.8777(3)
C152 C 0.8761(3) 0.2886(3) 0.8631(4)
C153 C 0.8938(4) 0.3025(4) 0.8254(4)
N30 N 0.9202(3) 0.2885(3) 0.8039(3)
C154 C 0.9290(4) 0.2588(4) 0.8194(5)
C155 C 0.9136(3) 0.2421(3) 0.8566(4)
H89 H 0.9214 0.2210 0.8667
H90 H 0.9469 0.2476 0.8046
H91 H 0.8863 0.3235 0.8145
H92 H 0.8581 0.3001 0.8772
N31 N 0.82492(15) 0.19403(15) 0.92944(19)
C156 C 0.7620(3) 0.1303(3) 0.8791(3)
C157 C 0.7360(3) 0.1459(3) 0.8538(4)
C158 C 0.7196(3) 0.1259(4) 0.8196(4)
N32 N 0.7263(3) 0.0936(3) 0.8120(4)
C159 C 0.7511(4) 0.0796(3) 0.8366(5)
C160 C 0.7694(3) 0.0964(3) 0.8722(4)
H93 H 0.7856 0.0851 0.8899
H94 H 0.7570 0.0571 0.8300
H95 H 0.7031 0.1363 0.8014
H96 H 0.7296 0.1684 0.8592
Ag4 Ag 0.69194(3) 0.06042(3) 0.76075(3)
H151 H 0.6676 0.0132 0.9587
C278 C 0.6885(3) 0.0045(3) 0.8352(5)
H165 H 0.7120 0.0053 0.8308
N56 N 0.6687(3) 0.0235(2) 0.8082(3)
C279 C 0.6371(4) 0.0211(3) 0.8162(4)
C280 C 0.6232(3) 0.0017(3) 0.8507(5)
H166 H 0.5996 0.0015 0.8541
H167 H 0.6223 0.0333 0.7973
Ag12 Ag 0.80806(3) 0.56042(3) 0.76075(3)
Ag14 Ag 0.93958(3) 0.30806(3) 0.73925(3)
N60 N 0.7115(3) 0.0798(3) 0.6961(3)
Zn1_7 Zn 1.0000 1.0000 0.0000
C94 C 0.9761(4) 0.8922(3) 0.0000
C95 C 0.9685(3) 0.9275(3) 0.0000
C96 C 0.9321(3) 0.9425(3) 0.0000
C97 C 0.9258(4) 0.9778(3) 0.0000
C98 C 0.8915(4) 0.9890(3) 0.0000
H54 H 0.8721 0.9753 0.0000
C109 C 0.9050(3) 0.9180(3) 0.0000
N21 N 0.8514(2) 0.8690(2) 0.0000
C112 C 0.8642(3) 0.8810(3) 0.0372(4)
H62 H 0.8550 0.8737 0.0651
C113 C 0.8917(3) 0.9049(3) 0.0388(4)
H63 H 0.9005 0.9116 0.0672
N22 N 0.9970(3) 0.9491(2) 0.0000
H65 H 0.9610 0.8739 0.0000
Zn5 Zn 0.81215(3) 0.83123(3) 0.0000
C161 C 0.8797(2) 0.7454(2) 0.0225(2)
H97 H 0.8919 0.7309 0.0417
C162 C 0.8570(2) 0.7725(2) 0.0367(3)
C163 C 0.8484(2) 0.7814(2) 0.0835(3)
C164 C 0.8251(2) 0.8047(2) 0.0973(3)
C165 C 0.8171(2) 0.8126(2) 0.1449(3)
H98 H 0.8268 0.8023 0.1707
C166 C 0.7936(2) 0.8373(2) 0.1453(3)
H99 H 0.7841 0.8478 0.1711
C167 C 0.7862(2) 0.8442(2) 0.0988(3)
C168 C 0.76255(19) 0.86857(19) 0.0832(3)
C169 C 0.7536(2) 0.87650(18) 0.0378(3)
C170 C 0.7279(2) 0.9003(2) 0.0230(2)
H100 H 0.7139 0.9133 0.0419
N33 N 0.9064(3) 0.7263(3) 0.1880(4)
C171 C 0.8741(4) 0.7196(3) 0.1804(4)
H101 H 0.8637 0.7031 0.1986
C172 C 0.8541(3) 0.7360(3) 0.1462(4)
H102 H 0.8316 0.7296 0.1408
C173 C 0.8697(3) 0.7620(3) 0.1209(3)
C174 C 0.9036(3) 0.7694(3) 0.1278(4)
H103 H 0.9149 0.7856 0.1101
C175 C 0.9204(3) 0.7511(4) 0.1634(5)
H104 H 0.9429 0.7570 0.1700
N34 N 0.7115(3) 0.9202(3) 0.1961(3)
C176 C 0.6975(4) 0.8938(4) 0.1746(4)
H105 H 0.6765 0.8863 0.1855
C177 C 0.7114(3) 0.8761(3) 0.1369(4)
H106 H 0.6999 0.8581 0.1228
C178 C 0.7423(3) 0.8868(2) 0.1223(3)
C179 C 0.7579(3) 0.9136(3) 0.1434(4)
H107 H 0.7790 0.9214 0.1333
C180 C 0.7412(4) 0.9290(4) 0.1806(5)
H108 H 0.7524 0.9469 0.1954
N35 N 0.8437(2) 0.7878(2) 0.0000
N36 N 0.80597(15) 0.82492(15) 0.07056(19)
N37 N 0.76873(19) 0.86303(19) 0.0000
Ag5 Ag 0.93958(3) 0.69194(3) 0.23925(3)
C241 C 0.6552(2) 0.9986(2) 0.0223(2)
C242 C 0.6317(2) 0.9711(2) 0.0377(3)
C243 C 0.6253(2) 0.9621(2) 0.0837(3)
C244 C 0.6032(2) 0.9379(2) 0.0975(2)
C245 C 0.5991(2) 0.9254(2) 0.1455(3)
H146 H 0.6112 0.9331 0.1711
C247 C 0.6752(3) 0.9825(2) 0.1289(3)
H148 H 0.6895 0.9682 0.1121
C248 C 0.6420(3) 0.9835(2) 0.1210(3)
N49 N 0.6179(2) 0.9558(2) 0.0000
N50 N 0.58077(18) 0.91923(18) 0.0689(3)
C261 C 0.5014(2) 0.8448(2) 0.0223(2)
H152 H 0.4868 0.8324 0.0413
C262 C 0.5289(2) 0.8683(2) 0.0377(3)
C263 C 0.5379(2) 0.8747(2) 0.0837(3)
C264 C 0.5621(2) 0.8968(2) 0.0975(2)
C265 C 0.5746(2) 0.9009(2) 0.1455(3)
H153 H 0.5669 0.8888 0.1711
C266 C 0.5165(2) 0.8580(3) 0.1210(3)
C267 C 0.5175(2) 0.8248(3) 0.1289(3)
C268 C 0.4955(3) 0.8115(3) 0.1648(5)
H154 H 0.4947 0.7880 0.1692
N52 N 0.4765(2) 0.8313(3) 0.1918(3)
C269 C 0.4789(3) 0.8629(4) 0.1838(4)
C270 C 0.4983(3) 0.8768(3) 0.1493(5)
H155 H 0.4985 0.9004 0.1459
H156 H 0.4667 0.8777 0.2027
H157 H 0.5318 0.8105 0.1121
N53 N 0.5442(2) 0.8821(2) 0.0000
Zn7 Zn 0.57459(4) 0.92541(4) 0.0000
O2 O 0.5367(3) 0.9633(3) 0.0000
Ag15 Ag 0.69194(3) 0.93958(3) 0.26075(3)
N61 N 0.9202(3) 0.7115(3) 0.3039(3)
N62 N 0.9765(2) 0.6687(3) 0.1918(3)
Ag19 Ag 0.43958(3) 0.80806(3) 0.23925(3)
Zn1_8 Zn 1.0000 1.0000 1.0000
C94_2 C 0.9761(4) 0.8922(3) 1.0000
C95_2 C 0.9685(3) 0.9275(3) 1.0000
C96_2 C 0.9321(3) 0.9425(3) 1.0000
C97_2 C 0.9258(4) 0.9778(3) 1.0000
C98_2 C 0.8915(4) 0.9890(3) 1.0000
H54_2 H 0.8721 0.9753 1.0000
C109_2 C 0.9050(3) 0.9180(3) 1.0000
C110 C 0.8917(3) 0.9049(3) 0.9612(4)
C111 C 0.8642(3) 0.8810(3) 0.9628(4)
H61 H 0.8550 0.8737 0.9349
N21_2 N 0.8514(2) 0.8690(2) 1.0000
H64 H 0.9005 0.9116 0.9328
N22_2 N 0.9970(3) 0.9491(2) 1.0000
H65_2 H 0.9610 0.8739 1.0000
Zn5_2 Zn 0.81215(3) 0.83123(3) 1.0000
N35_2 N 0.8437(2) 0.7878(2) 1.0000
N37_2 N 0.76873(19) 0.86303(19) 1.0000
C181 C 0.8797(2) 0.7454(2) 0.9775(2)
H109 H 0.8919 0.7309 0.9583
C182 C 0.8570(2) 0.7725(2) 0.9633(3)
C183 C 0.8484(2) 0.7814(2) 0.9165(3)
C184 C 0.8251(2) 0.8047(2) 0.9027(3)
C185 C 0.8171(2) 0.8126(2) 0.8551(3)
H110 H 0.8268 0.8023 0.8293
C186 C 0.7936(2) 0.8373(2) 0.8547(3)
H111 H 0.7841 0.8478 0.8289
C187 C 0.7862(2) 0.8442(2) 0.9012(3)
C188 C 0.76255(19) 0.86857(19) 0.9168(3)
C189 C 0.7536(2) 0.87650(18) 0.9622(3)
C190 C 0.7279(2) 0.9003(2) 0.9770(2)
H112 H 0.7139 0.9133 0.9581
C191 C 0.7423(3) 0.8868(2) 0.8777(3)
C192 C 0.7114(3) 0.8761(3) 0.8631(4)
C193 C 0.6975(4) 0.8938(4) 0.8254(4)
N38 N 0.7115(3) 0.9202(3) 0.8039(3)
C194 C 0.7412(4) 0.9290(4) 0.8194(5)
C195 C 0.7579(3) 0.9136(3) 0.8566(4)
H113 H 0.7790 0.9214 0.8667
H114 H 0.7524 0.9469 0.8046
H115 H 0.6765 0.8863 0.8145
H116 H 0.6999 0.8581 0.8772
N39 N 0.80597(15) 0.82492(15) 0.92944(19)
C196 C 0.8697(3) 0.7620(3) 0.8791(3)
C197 C 0.8541(3) 0.7360(3) 0.8538(4)
C198 C 0.8741(4) 0.7196(3) 0.8196(4)
N40 N 0.9064(3) 0.7263(3) 0.8120(4)
C199 C 0.9204(3) 0.7511(4) 0.8366(5)
C200 C 0.9036(3) 0.7694(3) 0.8722(4)
H117 H 0.9149 0.7856 0.8899
H118 H 0.9429 0.7570 0.8300
H119 H 0.8637 0.7031 0.8014
H120 H 0.8316 0.7296 0.8592
Ag6 Ag 0.93958(3) 0.69194(3) 0.76075(3)
N49_2 N 0.6179(2) 0.9558(2) 1.0000
C251 C 0.6552(2) 0.9986(2) 0.9777(2)
C252 C 0.6317(2) 0.9711(2) 0.9623(3)
C253 C 0.6253(2) 0.9621(2) 0.9163(3)
C254 C 0.6032(2) 0.9379(2) 0.9025(2)
C255 C 0.5991(2) 0.9254(2) 0.8545(3)
C256 C 0.5746(2) 0.9009(2) 0.8545(3)
C257 C 0.5621(2) 0.8968(2) 0.9025(2)
C258 C 0.5379(2) 0.8747(2) 0.9163(3)
C259 C 0.5289(2) 0.8683(2) 0.9623(3)
C260 C 0.5014(2) 0.8448(2) 0.9777(2)
N53_2 N 0.5442(2) 0.8821(2) 1.0000
H158 H 0.4868 0.8324 0.9587
C271 C 0.5165(2) 0.8580(3) 0.8790(3)
C272 C 0.5175(2) 0.8248(3) 0.8711(3)
C273 C 0.4955(3) 0.8115(3) 0.8352(5)
H159 H 0.4947 0.7880 0.8308
N54 N 0.4765(2) 0.8313(3) 0.8082(3)
C274 C 0.4789(3) 0.8629(4) 0.8162(4)
C275 C 0.4983(3) 0.8768(3) 0.8507(5)
H160 H 0.4985 0.9004 0.8541
H161 H 0.4667 0.8777 0.7973
H162 H 0.5318 0.8105 0.8879
N55 N 0.58077(18) 0.91923(18) 0.9311(3)
H163 H 0.5669 0.8888 0.8289
H164 H 0.6112 0.9331 0.8289
C276 C 0.6420(3) 0.9835(2) 0.8790(3)
C277 C 0.6752(3) 0.9825(2) 0.8711(3)
H168 H 0.6895 0.9682 0.8879
Zn7_2 Zn 0.57459(4) 0.92541(4) 1.0000
O2_2 O 0.5367(3) 0.9633(3) 1.0000
Ag16 Ag 0.69194(3) 0.93958(3) 0.73925(3)
N63 N 0.9202(3) 0.7115(3) 0.6961(3)
N64 N 0.9765(2) 0.6687(3) 0.8082(3)
Ag20 Ag 0.43958(3) 0.80806(3) 0.76075(3)
Zn1_9 Zn 0.0000 0.0000 0.5000
Zn2_3 Zn 0.16877(3) 0.18785(3) 0.5000
C1_2 C 0.2546(2) 0.1203(2) 0.4775(2)
H1_2 H 0.2691 0.1081 0.4583
C2_2 C 0.2275(2) 0.1430(2) 0.4633(3)
C3_2 C 0.2186(2) 0.1516(2) 0.4165(3)
C4_2 C 0.1953(2) 0.1749(2) 0.4027(3)
C5_2 C 0.1874(2) 0.1829(2) 0.3551(3)
H2_2 H 0.1977 0.1732 0.3293
C6_2 C 0.1627(2) 0.2064(2) 0.3547(3)
H3_2 H 0.1522 0.2159 0.3289
C7_2 C 0.1558(2) 0.2138(2) 0.4012(3)
C8_2 C 0.13143(19) 0.23745(19) 0.4168(3)
C9_2 C 0.12350(18) 0.2464(2) 0.4622(3)
C10_2 C 0.0997(2) 0.2721(2) 0.4770(2)
H4_2 H 0.0867 0.2861 0.4581
H5_2 H 0.3324 0.0132 0.4587
C16_3 C 0.0725(3) 0.0315(3) 0.5000
C17_3 C 0.0575(3) 0.0679(3) 0.5000
C18_3 C 0.0222(3) 0.0742(4) 0.5000
C19_3 C 0.0110(3) 0.1085(4) 0.5000
H7_3 H 0.0247 0.1279 0.5000
C20_3 C 0.1078(3) 0.0239(4) 0.5000
H8_3 H 0.1261 0.0390 0.5000
N1_2 N 0.2737(3) 0.0936(3) 0.3120(4)
C21_2 C 0.2804(3) 0.1259(4) 0.3196(4)
H9_2 H 0.2969 0.1363 0.3014
C22_2 C 0.2640(3) 0.1459(3) 0.3538(4)
H10_2 H 0.2704 0.1684 0.3592
C23_2 C 0.2380(3) 0.1303(3) 0.3791(3)
C24_2 C 0.2306(3) 0.0964(3) 0.3722(4)
H11_2 H 0.2144 0.0851 0.3899
C25_2 C 0.2489(4) 0.0796(3) 0.3366(5)
H12_2 H 0.2430 0.0571 0.3300
C26_2 C 0.1062(4) 0.3025(4) 0.3254(4)
H13_2 H 0.1137 0.3235 0.3145
C27_2 C 0.1239(3) 0.2886(3) 0.3631(4)
H14_2 H 0.1419 0.3001 0.3772
C28_2 C 0.1132(2) 0.2577(3) 0.3777(3)
C29_2 C 0.0864(3) 0.2421(3) 0.3566(4)
H15_2 H 0.0786 0.2210 0.3667
C30_2 C 0.0710(4) 0.2588(4) 0.3194(5)
H16_2 H 0.0531 0.2476 0.3046
C31_2 C 0.3115(3) 0.0045(3) 0.3352(5)
H17_2 H 0.2880 0.0053 0.3308
C34_2 C 0.3768(3) 0.0017(3) 0.3507(5)
H19_2 H 0.4004 0.0015 0.3541
C35_2 C 0.3629(4) 0.0211(3) 0.3162(4)
H20_2 H 0.3777 0.0333 0.2973
C36_2 C 0.1190(3) 0.1358(3) 0.5372(4)
H21_2 H 0.1263 0.1450 0.5651
C37_2 C 0.0951(3) 0.1083(3) 0.5388(4)
H22_2 H 0.0884 0.0995 0.5672
C38_3 C 0.0820(3) 0.0950(3) 0.5000
N3_3 N 0.2122(2) 0.1563(2) 0.5000
N4_2 N 0.17508(15) 0.19403(15) 0.42944(19)
N5_3 N 0.13697(19) 0.23127(19) 0.5000
N8_3 N 0.0509(2) 0.0030(3) 0.5000
N9_2 N 0.3313(3) 0.0235(2) 0.3082(3)
N10_3 N 0.1310(2) 0.1486(2) 0.5000
C39_2 C 0.2546(2) 0.1203(2) 0.5225(2)
H23_2 H 0.2691 0.1081 0.5417
C40_2 C 0.2275(2) 0.1430(2) 0.5367(3)
C41_2 C 0.2186(2) 0.1516(2) 0.5835(3)
C42_2 C 0.1953(2) 0.1749(2) 0.5973(3)
C43_2 C 0.1874(2) 0.1829(2) 0.6449(3)
H24_2 H 0.1977 0.1732 0.6707
C44_2 C 0.1627(2) 0.2064(2) 0.6453(3)
H25_2 H 0.1522 0.2159 0.6711
C45_2 C 0.1558(2) 0.2138(2) 0.5988(3)
C46_2 C 0.13143(19) 0.23745(19) 0.5832(3)
C47_2 C 0.12350(18) 0.2464(2) 0.5378(3)
C48_2 C 0.0997(2) 0.2721(2) 0.5230(2)
H26_2 H 0.0867 0.2861 0.5419
C49_2 C 0.1132(2) 0.2577(3) 0.6223(3)
C50_2 C 0.1239(3) 0.2886(3) 0.6369(4)
C51_2 C 0.1062(4) 0.3025(4) 0.6746(4)
C52_2 C 0.0710(4) 0.2588(4) 0.6806(5)
C53_2 C 0.0864(3) 0.2421(3) 0.6434(4)
H27_2 H 0.0786 0.2210 0.6333
H28_2 H 0.0531 0.2476 0.6954
H29_2 H 0.1137 0.3235 0.6855
H30_2 H 0.1419 0.3001 0.6228
N12_2 N 0.17508(15) 0.19403(15) 0.57056(19)
C54_2 C 0.2380(3) 0.1303(3) 0.6209(3)
C55_2 C 0.2640(3) 0.1459(3) 0.6462(4)
C56_2 C 0.2804(3) 0.1259(4) 0.6804(4)
N13_2 N 0.2737(3) 0.0936(3) 0.6880(4)
C57_2 C 0.2489(4) 0.0796(3) 0.6634(5)
C58_2 C 0.2306(3) 0.0964(3) 0.6278(4)
H31_2 H 0.2144 0.0851 0.6101
H32_2 H 0.2430 0.0571 0.6700
H33_2 H 0.2969 0.1363 0.6986
H34_2 H 0.2704 0.1684 0.6408
H35_2 H 0.3324 0.0132 0.5413
C86_2 C 0.3115(3) 0.0045(3) 0.6648(5)
H49_2 H 0.2880 0.0053 0.6692
N18_2 N 0.3313(3) 0.0235(2) 0.6918(3)
C87_2 C 0.3629(4) 0.0211(3) 0.6838(4)
C88_2 C 0.3768(3) 0.0017(3) 0.6493(5)
H50_2 H 0.4004 0.0015 0.6459
H51_2 H 0.3777 0.0333 0.7027
C119_2 C 0.1190(3) 0.1358(3) 0.4628(4)
H71_2 H 0.1263 0.1450 0.4349
C120_2 C 0.0951(3) 0.1083(3) 0.4612(4)
H72_2 H 0.0884 0.0995 0.4328
Zn1_10 Zn 0.0000 1.0000 0.5000
Zn3_3 Zn 0.42541(4) 0.92541(4) 0.5000
C11_2 C 0.3448(2) 0.9986(2) 0.4777(2)
C12_2 C 0.3683(2) 0.9711(2) 0.4623(3)
C13_2 C 0.3747(2) 0.9621(2) 0.4163(3)
C14_2 C 0.3968(2) 0.9379(2) 0.4025(2)
C15_2 C 0.4009(2) 0.9254(2) 0.3545(3)
H6_2 H 0.3888 0.9331 0.3289
C32_2 C 0.3248(3) 0.9825(2) 0.3711(3)
H18_2 H 0.3105 0.9682 0.3879
C33_2 C 0.3580(3) 0.9835(2) 0.3790(3)
N6_3 N 0.3821(2) 0.9558(2) 0.5000
N7_2 N 0.41923(18) 0.91923(18) 0.4311(3)
O1_3 O 0.4633(3) 0.9633(3) 0.5000
C59_2 C 0.3448(2) 0.9986(2) 0.5223(2)
C60_2 C 0.3683(2) 0.9711(2) 0.5377(3)
C61_2 C 0.3747(2) 0.9621(2) 0.5837(3)
C62_2 C 0.3968(2) 0.9379(2) 0.5975(2)
C63_2 C 0.4009(2) 0.9254(2) 0.6455(3)
C64_2 C 0.4254(2) 0.9009(2) 0.6455(3)
C65_2 C 0.4379(2) 0.8968(2) 0.5975(2)
C66_2 C 0.4621(2) 0.8747(2) 0.5837(3)
C67_2 C 0.4711(2) 0.8683(2) 0.5377(3)
C68_2 C 0.4986(2) 0.8448(2) 0.5223(2)
C69_2 C 0.4986(2) 0.8448(2) 0.4777(2)
H36_2 H 0.5132 0.8324 0.4587
C70_2 C 0.4711(2) 0.8683(2) 0.4623(3)
C71_2 C 0.4621(2) 0.8747(2) 0.4163(3)
C72_2 C 0.4379(2) 0.8968(2) 0.4025(2)
C73_2 C 0.4254(2) 0.9009(2) 0.3545(3)
H37_2 H 0.4331 0.8888 0.3289
C74_2 C 0.4835(2) 0.8580(3) 0.3790(3)
C75_2 C 0.4825(2) 0.8248(3) 0.3711(3)
C76_2 C 0.5045(3) 0.8115(3) 0.3352(5)
H38_2 H 0.5053 0.7880 0.3308
N14_2 N 0.5235(2) 0.8313(3) 0.3082(3)
C77_2 C 0.5211(3) 0.8629(4) 0.3162(4)
C78_2 C 0.5017(3) 0.8768(3) 0.3507(5)
H39_2 H 0.5015 0.9004 0.3541
H40_2 H 0.5333 0.8777 0.2973
H41_2 H 0.4682 0.8105 0.3879
N15_3 N 0.4558(2) 0.8821(2) 0.5000
H42_2 H 0.5132 0.8324 0.5413
C79_2 C 0.4835(2) 0.8580(3) 0.6210(3)
C80_2 C 0.4825(2) 0.8248(3) 0.6289(3)
C81_2 C 0.5045(3) 0.8115(3) 0.6648(5)
H43_2 H 0.5053 0.7880 0.6692
N16_2 N 0.5235(2) 0.8313(3) 0.6918(3)
C82_2 C 0.5211(3) 0.8629(4) 0.6838(4)
C83_2 C 0.5017(3) 0.8768(3) 0.6493(5)
H44_2 H 0.5015 0.9004 0.6459
H45_2 H 0.5333 0.8777 0.7027
H46_2 H 0.4682 0.8105 0.6121
N17_2 N 0.41923(18) 0.91923(18) 0.5689(3)
H47_2 H 0.4331 0.8888 0.6711
H48_2 H 0.3888 0.9331 0.6711
C84_2 C 0.3580(3) 0.9835(2) 0.6210(3)
C85_2 C 0.3248(3) 0.9825(2) 0.6289(3)
H52_2 H 0.3105 0.9682 0.6121
C99_3 C 0.0239(4) 0.8922(3) 0.5000
C100_3 C 0.0315(3) 0.9275(3) 0.5000
C101_3 C 0.0679(3) 0.9425(3) 0.5000
C102_3 C 0.0742(4) 0.9778(3) 0.5000
C103_3 C 0.1085(4) 0.9890(3) 0.5000
H55_3 H 0.1279 0.9753 0.5000
C104_3 C 0.0950(3) 0.9180(3) 0.5000
C105_2 C 0.1083(3) 0.9049(3) 0.5388(4)
C106_2 C 0.1358(3) 0.8810(3) 0.5372(4)
H56_2 H 0.1450 0.8737 0.5651
N19_3 N 0.1486(2) 0.8690(2) 0.5000
C107_2 C 0.1358(3) 0.8810(3) 0.4628(4)
H57_2 H 0.1450 0.8737 0.4349
C108_2 C 0.1083(3) 0.9049(3) 0.4612(4)
H58_2 H 0.0995 0.9116 0.4328
H59_2 H 0.0995 0.9116 0.5672
N20_3 N 0.0030(3) 0.9491(2) 0.5000
H60_3 H 0.0390 0.8739 0.5000
Zn4_3 Zn 0.18785(3) 0.83123(3) 0.5000
C121_2 C 0.1203(2) 0.7454(2) 0.4775(2)
H73_2 H 0.1081 0.7309 0.4583
C122_2 C 0.1430(2) 0.7725(2) 0.4633(3)
C123_2 C 0.1516(2) 0.7814(2) 0.4165(3)
C124_2 C 0.1749(2) 0.8047(2) 0.4027(3)
C125_2 C 0.1829(2) 0.8126(2) 0.3551(3)
H74_2 H 0.1732 0.8023 0.3293
C126_2 C 0.2064(2) 0.8373(2) 0.3547(3)
H75_2 H 0.2159 0.8478 0.3289
C127_2 C 0.2138(2) 0.8442(2) 0.4012(3)
C128_2 C 0.23745(19) 0.86857(19) 0.4168(3)
C129_2 C 0.2464(2) 0.87650(18) 0.4622(3)
C130_2 C 0.2721(2) 0.9003(2) 0.4770(2)
H76_2 H 0.2861 0.9133 0.4581
N25_2 N 0.0936(3) 0.7263(3) 0.3120(4)
C131_2 C 0.1259(4) 0.7196(3) 0.3196(4)
H77_2 H 0.1363 0.7031 0.3014
C132_2 C 0.1459(3) 0.7360(3) 0.3538(4)
H78_2 H 0.1684 0.7296 0.3592
C133_2 C 0.1303(3) 0.7620(3) 0.3791(3)
C134_2 C 0.0964(3) 0.7694(3) 0.3722(4)
H79_2 H 0.0851 0.7856 0.3899
C135_2 C 0.0796(3) 0.7511(4) 0.3366(5)
H80_2 H 0.0571 0.7570 0.3300
C136_2 C 0.3025(4) 0.8938(4) 0.3254(4)
H81_2 H 0.3235 0.8863 0.3145
C137_2 C 0.2886(3) 0.8761(3) 0.3631(4)
H82_2 H 0.3001 0.8581 0.3772
C138_2 C 0.2577(3) 0.8868(2) 0.3777(3)
C139_2 C 0.2421(3) 0.9136(3) 0.3566(4)
H83_2 H 0.2210 0.9214 0.3667
C140_2 C 0.2588(4) 0.9290(4) 0.3194(5)
H84_2 H 0.2476 0.9469 0.3046
N27_3 N 0.1563(2) 0.7878(2) 0.5000
N28_2 N 0.19403(15) 0.82492(15) 0.42944(19)
N29_3 N 0.23127(19) 0.86303(19) 0.5000
C141_2 C 0.1203(2) 0.7454(2) 0.5225(2)
H85_2 H 0.1081 0.7309 0.5417
C142_2 C 0.1430(2) 0.7725(2) 0.5367(3)
C143_2 C 0.1516(2) 0.7814(2) 0.5835(3)
C144_2 C 0.1749(2) 0.8047(2) 0.5973(3)
C145_2 C 0.1829(2) 0.8126(2) 0.6449(3)
H86_2 H 0.1732 0.8023 0.6707
C146_2 C 0.2064(2) 0.8373(2) 0.6453(3)
H87_2 H 0.2159 0.8478 0.6711
C147_2 C 0.2138(2) 0.8442(2) 0.5988(3)
C148_2 C 0.23745(19) 0.86857(19) 0.5832(3)
C149_2 C 0.2464(2) 0.87650(18) 0.5378(3)
C150_2 C 0.2721(2) 0.9003(2) 0.5230(2)
H88_2 H 0.2861 0.9133 0.5419
C151_2 C 0.2577(3) 0.8868(2) 0.6223(3)
C152_2 C 0.2886(3) 0.8761(3) 0.6369(4)
C153_2 C 0.3025(4) 0.8938(4) 0.6746(4)
C154_2 C 0.2588(4) 0.9290(4) 0.6806(5)
C155_2 C 0.2421(3) 0.9136(3) 0.6434(4)
H89_2 H 0.2210 0.9214 0.6333
H90_2 H 0.2476 0.9469 0.6954
H91_2 H 0.3235 0.8863 0.6855
H92_2 H 0.3001 0.8581 0.6228
N31_2 N 0.19403(15) 0.82492(15) 0.57056(19)
C156_2 C 0.1303(3) 0.7620(3) 0.6209(3)
C157_2 C 0.1459(3) 0.7360(3) 0.6462(4)
C158_2 C 0.1259(4) 0.7196(3) 0.6804(4)
N32_2 N 0.0936(3) 0.7263(3) 0.6880(4)
C159_2 C 0.0796(3) 0.7511(4) 0.6634(5)
C160_2 C 0.0964(3) 0.7694(3) 0.6278(4)
H93_2 H 0.0851 0.7856 0.6101
H94_2 H 0.0571 0.7570 0.6700
H95_2 H 0.1363 0.7031 0.6986
H96_2 H 0.1684 0.7296 0.6408
H145_2 H 0.0132 0.6676 0.4587
C246_2 C 0.0045(3) 0.6885(3) 0.3352(5)
H147_2 H 0.0053 0.7120 0.3308
C249_2 C 0.0017(3) 0.6232(3) 0.3507(5)
H149_2 H 0.0015 0.5996 0.3541
C250_2 C 0.0211(3) 0.6371(4) 0.3162(4)
H150_2 H 0.0333 0.6223 0.2973
N51_2 N 0.0235(2) 0.6687(3) 0.3082(3)
H151_2 H 0.0132 0.6676 0.5413
C278_2 C 0.0045(3) 0.6885(3) 0.6648(5)
H165_2 H 0.0053 0.7120 0.6692
N56_2 N 0.0235(2) 0.6687(3) 0.6918(3)
C279_2 C 0.0211(3) 0.6371(4) 0.6838(4)
C280_2 C 0.0017(3) 0.6232(3) 0.6493(5)
H166_2 H 0.0015 0.5996 0.6459
H167_2 H 0.0333 0.6223 0.7027
Ag11_2 Ag 0.56042(3) 0.80806(3) 0.26075(3)
Ag12_2 Ag 0.56042(3) 0.80806(3) 0.73925(3)
Zn1_11 Zn 1.0000 0.0000 0.5000
C89_3 C 0.9761(4) 0.1078(3) 0.5000
C90_3 C 0.9685(3) 0.0725(3) 0.5000
C91_3 C 0.9321(3) 0.0575(3) 0.5000
C92_3 C 0.9258(4) 0.0222(3) 0.5000
C93_3 C 0.8915(4) 0.0110(3) 0.5000
H53_3 H 0.8721 0.0247 0.5000
C114_3 C 0.9050(3) 0.0820(3) 0.5000
C115_2 C 0.8917(3) 0.0951(3) 0.5388(4)
C116_2 C 0.8642(3) 0.1190(3) 0.5372(4)
H66_2 H 0.8550 0.1263 0.5651
N23_3 N 0.8514(2) 0.1310(2) 0.5000
C117_2 C 0.8642(3) 0.1190(3) 0.4628(4)
H67_2 H 0.8550 0.1263 0.4349
C118_2 C 0.8917(3) 0.0951(3) 0.4612(4)
H68_2 H 0.9005 0.0884 0.4328
H69_2 H 0.9005 0.0884 0.5672
N24_3 N 0.9970(3) 0.0509(2) 0.5000
H70_3 H 0.9610 0.1261 0.5000
Zn6_3 Zn 0.81215(3) 0.16877(3) 0.5000
C201_2 C 0.8797(2) 0.2546(2) 0.4775(2)
H121_2 H 0.8919 0.2691 0.4583
C202_2 C 0.8570(2) 0.2275(2) 0.4633(3)
C203_2 C 0.8484(2) 0.2186(2) 0.4165(3)
C204_2 C 0.8251(2) 0.1953(2) 0.4027(3)
C205_2 C 0.8171(2) 0.1874(2) 0.3551(3)
H122_2 H 0.8268 0.1977 0.3293
C206_2 C 0.7936(2) 0.1627(2) 0.3547(3)
H123_2 H 0.7841 0.1522 0.3289
C207_2 C 0.7862(2) 0.1558(2) 0.4012(3)
C208_2 C 0.76255(19) 0.13143(19) 0.4168(3)
C209_2 C 0.7536(2) 0.12350(18) 0.4622(3)
C210_2 C 0.7279(2) 0.0997(2) 0.4770(2)
H124_2 H 0.7139 0.0867 0.4581
N41_2 N 0.9064(3) 0.2737(3) 0.3120(4)
C211_2 C 0.8741(4) 0.2804(3) 0.3196(4)
H125_2 H 0.8637 0.2969 0.3014
C212_2 C 0.8541(3) 0.2640(3) 0.3538(4)
H126_2 H 0.8316 0.2704 0.3592
C213_2 C 0.8697(3) 0.2380(3) 0.3791(3)
C214_2 C 0.9036(3) 0.2306(3) 0.3722(4)
H127_2 H 0.9149 0.2144 0.3899
C215_2 C 0.9204(3) 0.2489(4) 0.3366(5)
H128_2 H 0.9429 0.2430 0.3300
C216_2 C 0.6975(4) 0.1062(4) 0.3254(4)
H129_2 H 0.6765 0.1137 0.3145
C217_2 C 0.7114(3) 0.1239(3) 0.3631(4)
H130_2 H 0.6999 0.1419 0.3772
C218_2 C 0.7423(3) 0.1132(2) 0.3777(3)
C219_2 C 0.7579(3) 0.0864(3) 0.3566(4)
H131_2 H 0.7790 0.0786 0.3667
C220_2 C 0.7412(4) 0.0710(4) 0.3194(5)
H132_2 H 0.7524 0.0531 0.3046
N43_3 N 0.8437(2) 0.2122(2) 0.5000
N44_2 N 0.80597(15) 0.17508(15) 0.42944(19)
N45_3 N 0.76873(19) 0.13697(19) 0.5000
C221_2 C 0.8797(2) 0.2546(2) 0.5225(2)
H133_2 H 0.8919 0.2691 0.5417
C222_2 C 0.8570(2) 0.2275(2) 0.5367(3)
C223_2 C 0.8484(2) 0.2186(2) 0.5835(3)
C224_2 C 0.8251(2) 0.1953(2) 0.5973(3)
C225_2 C 0.8171(2) 0.1874(2) 0.6449(3)
H134_2 H 0.8268 0.1977 0.6707
C226_2 C 0.7936(2) 0.1627(2) 0.6453(3)
H135_2 H 0.7841 0.1522 0.6711
C227_2 C 0.7862(2) 0.1558(2) 0.5988(3)
C228_2 C 0.76255(19) 0.13143(19) 0.5832(3)
C229_2 C 0.7536(2) 0.12350(18) 0.5378(3)
C230_2 C 0.7279(2) 0.0997(2) 0.5230(2)
H136_2 H 0.7139 0.0867 0.5419
C231_2 C 0.7423(3) 0.1132(2) 0.6223(3)
C232_2 C 0.7114(3) 0.1239(3) 0.6369(4)
C233_2 C 0.6975(4) 0.1062(4) 0.6746(4)
C234_2 C 0.7412(4) 0.0710(4) 0.6806(5)
C235_2 C 0.7579(3) 0.0864(3) 0.6434(4)
H137_2 H 0.7790 0.0786 0.6333
H138_2 H 0.7524 0.0531 0.6954
H139_2 H 0.6765 0.1137 0.6855
H140_2 H 0.6999 0.1419 0.6228
N47_2 N 0.80597(15) 0.17508(15) 0.57056(19)
C236_2 C 0.8697(3) 0.2380(3) 0.6209(3)
C237_2 C 0.8541(3) 0.2640(3) 0.6462(4)
C238_2 C 0.8741(4) 0.2804(3) 0.6804(4)
N48_2 N 0.9064(3) 0.2737(3) 0.6880(4)
C239_2 C 0.9204(3) 0.2489(4) 0.6634(5)
C240_2 C 0.9036(3) 0.2306(3) 0.6278(4)
H141_2 H 0.9149 0.2144 0.6101
H142_2 H 0.9429 0.2430 0.6700
H143_2 H 0.8637 0.2969 0.6986
H144_2 H 0.8316 0.2704 0.6408
N66_2 N 0.9765(2) 0.3313(3) 0.3082(3)
N68_2 N 0.9765(2) 0.3313(3) 0.6918(3)
Zn1_12 Zn 1.0000 1.0000 0.5000
C94_3 C 0.8922(3) 0.9761(4) 0.5000
C95_3 C 0.9275(3) 0.9685(3) 0.5000
C96_3 C 0.9425(3) 0.9321(3) 0.5000
C97_3 C 0.9778(3) 0.9258(4) 0.5000
C98_3 C 0.9890(3) 0.8915(4) 0.5000
H54_3 H 0.9753 0.8721 0.5000
C109_3 C 0.9180(3) 0.9050(3) 0.5000
C110_2 C 0.9049(3) 0.8917(3) 0.5388(4)
C111_2 C 0.8810(3) 0.8642(3) 0.5372(4)
H61_2 H 0.8737 0.8550 0.5651
N21_3 N 0.8690(2) 0.8514(2) 0.5000
C112_2 C 0.8810(3) 0.8642(3) 0.4628(4)
H62_2 H 0.8737 0.8550 0.4349
C113_2 C 0.9049(3) 0.8917(3) 0.4612(4)
H63_2 H 0.9116 0.9005 0.4328
H64_2 H 0.9116 0.9005 0.5672
N22_3 N 0.9491(2) 0.9970(3) 0.5000
H65_3 H 0.8739 0.9610 0.5000
Zn5_3 Zn 0.83123(3) 0.81215(3) 0.5000
C161_2 C 0.7454(2) 0.8797(2) 0.4775(2)
H97_2 H 0.7309 0.8919 0.4583
C162_2 C 0.7725(2) 0.8570(2) 0.4633(3)
C163_2 C 0.7814(2) 0.8484(2) 0.4165(3)
C164_2 C 0.8047(2) 0.8251(2) 0.4027(3)
C165_2 C 0.8126(2) 0.8171(2) 0.3551(3)
H98_2 H 0.8023 0.8268 0.3293
C166_2 C 0.8373(2) 0.7936(2) 0.3547(3)
H99_2 H 0.8478 0.7841 0.3289
C167_2 C 0.8442(2) 0.7862(2) 0.4012(3)
C168_2 C 0.86857(19) 0.76255(19) 0.4168(3)
C169_2 C 0.87650(18) 0.7536(2) 0.4622(3)
C170_2 C 0.9003(2) 0.7279(2) 0.4770(2)
H100_2 H 0.9133 0.7139 0.4581
N33_2 N 0.7263(3) 0.9064(3) 0.3120(4)
C171_2 C 0.7196(3) 0.8741(4) 0.3196(4)
H101_2 H 0.7031 0.8637 0.3014
C172_2 C 0.7360(3) 0.8541(3) 0.3538(4)
H102_2 H 0.7296 0.8316 0.3592
C173_2 C 0.7620(3) 0.8697(3) 0.3791(3)
C174_2 C 0.7694(3) 0.9036(3) 0.3722(4)
H103_2 H 0.7856 0.9149 0.3899
C175_2 C 0.7511(4) 0.9204(3) 0.3366(5)
H104_2 H 0.7570 0.9429 0.3300
C176_2 C 0.8938(4) 0.6975(4) 0.3254(4)
H105_2 H 0.8863 0.6765 0.3145
C177_2 C 0.8761(3) 0.7114(3) 0.3631(4)
H106_2 H 0.8581 0.6999 0.3772
C178_2 C 0.8868(2) 0.7423(3) 0.3777(3)
C179_2 C 0.9136(3) 0.7579(3) 0.3566(4)
H107_2 H 0.9214 0.7790 0.3667
C180_2 C 0.9290(4) 0.7412(4) 0.3194(5)
H108_2 H 0.9469 0.7524 0.3046
N35_3 N 0.7878(2) 0.8437(2) 0.5000
N36_2 N 0.82492(15) 0.80597(15) 0.42944(19)
N37_3 N 0.86303(19) 0.76873(19) 0.5000
C181_2 C 0.7454(2) 0.8797(2) 0.5225(2)
H109_2 H 0.7309 0.8919 0.5417
C182_2 C 0.7725(2) 0.8570(2) 0.5367(3)
C183_2 C 0.7814(2) 0.8484(2) 0.5835(3)
C184_2 C 0.8047(2) 0.8251(2) 0.5973(3)
C185_2 C 0.8126(2) 0.8171(2) 0.6449(3)
H110_2 H 0.8023 0.8268 0.6707
C186_2 C 0.8373(2) 0.7936(2) 0.6453(3)
H111_2 H 0.8478 0.7841 0.6711
C187_2 C 0.8442(2) 0.7862(2) 0.5988(3)
C188_2 C 0.86857(19) 0.76255(19) 0.5832(3)
C189_2 C 0.87650(18) 0.7536(2) 0.5378(3)
C190_2 C 0.9003(2) 0.7279(2) 0.5230(2)
H112_2 H 0.9133 0.7139 0.5419
C191_2 C 0.8868(2) 0.7423(3) 0.6223(3)
C192_2 C 0.8761(3) 0.7114(3) 0.6369(4)
C193_2 C 0.8938(4) 0.6975(4) 0.6746(4)
C194_2 C 0.9290(4) 0.7412(4) 0.6806(5)
C195_2 C 0.9136(3) 0.7579(3) 0.6434(4)
H113_2 H 0.9214 0.7790 0.6333
H114_2 H 0.9469 0.7524 0.6954
H115_2 H 0.8863 0.6765 0.6855
H116_2 H 0.8581 0.6999 0.6228
N39_2 N 0.82492(15) 0.80597(15) 0.57056(19)
C196_2 C 0.7620(3) 0.8697(3) 0.6209(3)
C197_2 C 0.7360(3) 0.8541(3) 0.6462(4)
C198_2 C 0.7196(3) 0.8741(4) 0.6804(4)
N40_2 N 0.7263(3) 0.9064(3) 0.6880(4)
C199_2 C 0.7511(4) 0.9204(3) 0.6634(5)
C200_2 C 0.7694(3) 0.9036(3) 0.6278(4)
H117_2 H 0.7856 0.9149 0.6101
H118_2 H 0.7570 0.9429 0.6700
H119_2 H 0.7031 0.8637 0.6986
H120_2 H 0.7296 0.8316 0.6408
C241_2 C 0.9986(2) 0.6552(2) 0.4777(2)
C242_2 C 0.9711(2) 0.6317(2) 0.4623(3)
C243_2 C 0.9621(2) 0.6253(2) 0.4163(3)
C244_2 C 0.9379(2) 0.6032(2) 0.4025(2)
C245_2 C 0.9254(2) 0.5991(2) 0.3545(3)
H146_2 H 0.9331 0.6112 0.3289
C247_2 C 0.9825(2) 0.6752(3) 0.3711(3)
H148_2 H 0.9682 0.6895 0.3879
C248_2 C 0.9835(2) 0.6420(3) 0.3790(3)
N49_3 N 0.9558(2) 0.6179(2) 0.5000
N50_2 N 0.91923(18) 0.58077(18) 0.4311(3)
C251_2 C 0.9986(2) 0.6552(2) 0.5223(2)
C252_2 C 0.9711(2) 0.6317(2) 0.5377(3)
C253_2 C 0.9621(2) 0.6253(2) 0.5837(3)
C254_2 C 0.9379(2) 0.6032(2) 0.5975(2)
C255_2 C 0.9254(2) 0.5991(2) 0.6455(3)
C256_2 C 0.9009(2) 0.5746(2) 0.6455(3)
C257_2 C 0.8968(2) 0.5621(2) 0.5975(2)
C258_2 C 0.8747(2) 0.5379(2) 0.5837(3)
C259_2 C 0.8683(2) 0.5289(2) 0.5377(3)
C260_2 C 0.8448(2) 0.5014(2) 0.5223(2)
C261_2 C 0.8448(2) 0.5014(2) 0.4777(2)
H152_2 H 0.8324 0.4868 0.4587
C262_2 C 0.8683(2) 0.5289(2) 0.4623(3)
C263_2 C 0.8747(2) 0.5379(2) 0.4163(3)
C264_2 C 0.8968(2) 0.5621(2) 0.4025(2)
C265_2 C 0.9009(2) 0.5746(2) 0.3545(3)
H153_2 H 0.8888 0.5669 0.3289
C266_2 C 0.8580(3) 0.5165(2) 0.3790(3)
C267_2 C 0.8248(3) 0.5175(2) 0.3711(3)
C268_2 C 0.8115(3) 0.4955(3) 0.3352(5)
H154_2 H 0.7880 0.4947 0.3308
N52_2 N 0.8313(3) 0.4765(2) 0.3082(3)
C269_2 C 0.8629(4) 0.4789(3) 0.3162(4)
C270_2 C 0.8768(3) 0.4983(3) 0.3507(5)
H155_2 H 0.9004 0.4985 0.3541
H156_2 H 0.8777 0.4667 0.2973
H157_2 H 0.8105 0.5318 0.3879
N53_3 N 0.8821(2) 0.5442(2) 0.5000
H158_2 H 0.8324 0.4868 0.5413
C271_2 C 0.8580(3) 0.5165(2) 0.6210(3)
C272_2 C 0.8248(3) 0.5175(2) 0.6289(3)
C273_2 C 0.8115(3) 0.4955(3) 0.6648(5)
H159_2 H 0.7880 0.4947 0.6692
N54_2 N 0.8313(3) 0.4765(2) 0.6918(3)
C274_2 C 0.8629(4) 0.4789(3) 0.6838(4)
C275_2 C 0.8768(3) 0.4983(3) 0.6493(5)
H160_2 H 0.9004 0.4985 0.6459
H161_2 H 0.8777 0.4667 0.7027
H162_2 H 0.8105 0.5318 0.6121
N55_2 N 0.91923(18) 0.58077(18) 0.5689(3)
H163_2 H 0.8888 0.5669 0.6711
H164_2 H 0.9331 0.6112 0.6711
C276_2 C 0.9835(2) 0.6420(3) 0.6210(3)
C277_2 C 0.9825(2) 0.6752(3) 0.6289(3)
H168_2 H 0.9682 0.6895 0.6121
Zn7_3 Zn 0.92541(4) 0.57459(4) 0.5000
O2_3 O 0.9633(3) 0.5367(3) 0.5000
N62_2 N 0.6687(3) 0.9765(2) 0.3082(3)
N64_2 N 0.6687(3) 0.9765(2) 0.6918(3)
Ag19_2 Ag 0.80806(3) 0.43958(3) 0.26075(3)
Ag20_2 Ag 0.80806(3) 0.43958(3) 0.73925(3)
Zn3_4 Zn 0.42541(4) 0.07459(4) 0.0000
C11_3 C 0.3448(2) 0.0014(2) 0.0223(2)
C12_3 C 0.3683(2) 0.0289(2) 0.0377(3)
C13_3 C 0.3747(2) 0.0379(2) 0.0837(3)
C14_3 C 0.3968(2) 0.0621(2) 0.0975(2)
C15_3 C 0.4009(2) 0.0746(2) 0.1455(3)
H6_3 H 0.3888 0.0669 0.1711
C32_3 C 0.3248(3) 0.0175(2) 0.1289(3)
H18_3 H 0.3105 0.0318 0.1121
C33_3 C 0.3580(3) 0.0165(2) 0.1210(3)
N6_4 N 0.3821(2) 0.0442(2) 0.0000
N7_3 N 0.41923(18) 0.08077(18) 0.0689(3)
O1_4 O 0.4633(3) 0.0367(3) 0.0000
C69_3 C 0.4986(2) 0.1552(2) 0.0223(2)
H36_3 H 0.5132 0.1676 0.0413
C70_3 C 0.4711(2) 0.1317(2) 0.0377(3)
C71_3 C 0.4621(2) 0.1253(2) 0.0837(3)
C72_3 C 0.4379(2) 0.1032(2) 0.0975(2)
C73_3 C 0.4254(2) 0.0991(2) 0.1455(3)
H37_3 H 0.4331 0.1112 0.1711
C74_3 C 0.4835(2) 0.1420(3) 0.1210(3)
C75_3 C 0.4825(2) 0.1752(3) 0.1289(3)
C76_3 C 0.5045(3) 0.1885(3) 0.1648(5)
H38_3 H 0.5053 0.2120 0.1692
N14_3 N 0.5235(2) 0.1687(3) 0.1918(3)
C77_3 C 0.5211(3) 0.1371(4) 0.1838(4)
C78_3 C 0.5017(3) 0.1232(3) 0.1493(5)
H39_3 H 0.5015 0.0996 0.1459
H40_3 H 0.5333 0.1223 0.2027
H41_3 H 0.4682 0.1895 0.1121
N15_4 N 0.4558(2) 0.1179(2) 0.0000
Ag11_3 Ag 0.56042(3) 0.19194(3) 0.23925(3)
Zn3_5 Zn 0.42541(4) 0.07459(4) 1.0000
N6_5 N 0.3821(2) 0.0442(2) 1.0000
O1_5 O 0.4633(3) 0.0367(3) 1.0000
C59_3 C 0.3448(2) 0.0014(2) 0.9777(2)
C60_3 C 0.3683(2) 0.0289(2) 0.9623(3)
C61_3 C 0.3747(2) 0.0379(2) 0.9163(3)
C62_3 C 0.3968(2) 0.0621(2) 0.9025(2)
C63_3 C 0.4009(2) 0.0746(2) 0.8545(3)
C64_3 C 0.4254(2) 0.0991(2) 0.8545(3)
C65_3 C 0.4379(2) 0.1032(2) 0.9025(2)
C66_3 C 0.4621(2) 0.1253(2) 0.9163(3)
C67_3 C 0.4711(2) 0.1317(2) 0.9623(3)
C68_3 C 0.4986(2) 0.1552(2) 0.9777(2)
N15_5 N 0.4558(2) 0.1179(2) 1.0000
H42_3 H 0.5132 0.1676 0.9587
C79_3 C 0.4835(2) 0.1420(3) 0.8790(3)
C80_3 C 0.4825(2) 0.1752(3) 0.8711(3)
C81_3 C 0.5045(3) 0.1885(3) 0.8352(5)
H43_3 H 0.5053 0.2120 0.8308
N16_3 N 0.5235(2) 0.1687(3) 0.8082(3)
C82_3 C 0.5211(3) 0.1371(4) 0.8162(4)
C83_3 C 0.5017(3) 0.1232(3) 0.8507(5)
H44_3 H 0.5015 0.0996 0.8541
H45_3 H 0.5333 0.1223 0.7973
H46_3 H 0.4682 0.1895 0.8879
N17_3 N 0.41923(18) 0.08077(18) 0.9311(3)
H47_3 H 0.4331 0.1112 0.8289
H48_3 H 0.3888 0.0669 0.8289
C84_3 C 0.3580(3) 0.0165(2) 0.8790(3)
C85_3 C 0.3248(3) 0.0175(2) 0.8711(3)
H52_3 H 0.3105 0.0318 0.8879
Ag12_3 Ag 0.56042(3) 0.19194(3) 0.76075(3)
H5_3 H 0.3324 0.9868 0.0413
C31_3 C 0.3115(3) 0.9955(3) 0.1648(5)
H17_3 H 0.2880 0.9947 0.1692
C34_3 C 0.3768(3) 0.9983(3) 0.1493(5)
H19_3 H 0.4004 0.9985 0.1459
C35_3 C 0.3629(4) 0.9789(3) 0.1838(4)
H20_3 H 0.3777 0.9667 0.2027
H35_3 H 0.3324 0.9868 0.9587
C86_3 C 0.3115(3) 0.9955(3) 0.8352(5)
H49_3 H 0.2880 0.9947 0.8308
C87_3 C 0.3629(4) 0.9789(3) 0.8162(4)
C88_3 C 0.3768(3) 0.9983(3) 0.8507(5)
H50_3 H 0.4004 0.9985 0.8541
H51_3 H 0.3777 0.9667 0.7973
C241_3 C 0.0014(2) 0.6552(2) 0.0223(2)
C242_3 C 0.0289(2) 0.6317(2) 0.0377(3)
C243_3 C 0.0379(2) 0.6253(2) 0.0837(3)
C244_3 C 0.0621(2) 0.6032(2) 0.0975(2)
C245_3 C 0.0746(2) 0.5991(2) 0.1455(3)
H146_3 H 0.0669 0.6112 0.1711
C247_3 C 0.0175(2) 0.6752(3) 0.1289(3)
H148_3 H 0.0318 0.6895 0.1121
C248_3 C 0.0165(2) 0.6420(3) 0.1210(3)
N49_4 N 0.0442(2) 0.6179(2) 0.0000
N50_3 N 0.08077(18) 0.58077(18) 0.0689(3)
C261_3 C 0.1552(2) 0.5014(2) 0.0223(2)
H152_3 H 0.1676 0.4868 0.0413
C262_3 C 0.1317(2) 0.5289(2) 0.0377(3)
C263_3 C 0.1253(2) 0.5379(2) 0.0837(3)
C264_3 C 0.1032(2) 0.5621(2) 0.0975(2)
C265_3 C 0.0991(2) 0.5746(2) 0.1455(3)
H153_3 H 0.1112 0.5669 0.1711
C266_3 C 0.1420(3) 0.5165(2) 0.1210(3)
C267_3 C 0.1752(3) 0.5175(2) 0.1289(3)
C268_3 C 0.1885(3) 0.4955(3) 0.1648(5)
H154_3 H 0.2120 0.4947 0.1692
N52_3 N 0.1687(3) 0.4765(2) 0.1918(3)
C269_3 C 0.1371(4) 0.4789(3) 0.1838(4)
C270_3 C 0.1232(3) 0.4983(3) 0.1493(5)
H155_3 H 0.0996 0.4985 0.1459
H156_3 H 0.1223 0.4667 0.2027
H157_3 H 0.1895 0.5318 0.1121
N53_4 N 0.1179(2) 0.5442(2) 0.0000
Zn7_4 Zn 0.07459(4) 0.57459(4) 0.0000
O2_4 O 0.0367(3) 0.5367(3) 0.0000
Ag19_3 Ag 0.19194(3) 0.43958(3) 0.23925(3)
N49_5 N 0.0442(2) 0.6179(2) 1.0000
C251_3 C 0.0014(2) 0.6552(2) 0.9777(2)
C252_3 C 0.0289(2) 0.6317(2) 0.9623(3)
C253_3 C 0.0379(2) 0.6253(2) 0.9163(3)
C254_3 C 0.0621(2) 0.6032(2) 0.9025(2)
C255_3 C 0.0746(2) 0.5991(2) 0.8545(3)
C256_3 C 0.0991(2) 0.5746(2) 0.8545(3)
C257_3 C 0.1032(2) 0.5621(2) 0.9025(2)
C258_3 C 0.1253(2) 0.5379(2) 0.9163(3)
C259_3 C 0.1317(2) 0.5289(2) 0.9623(3)
C260_3 C 0.1552(2) 0.5014(2) 0.9777(2)
N53_5 N 0.1179(2) 0.5442(2) 1.0000
H158_3 H 0.1676 0.4868 0.9587
C271_3 C 0.1420(3) 0.5165(2) 0.8790(3)
C272_3 C 0.1752(3) 0.5175(2) 0.8711(3)
C273_3 C 0.1885(3) 0.4955(3) 0.8352(5)
H159_3 H 0.2120 0.4947 0.8308
N54_3 N 0.1687(3) 0.4765(2) 0.8082(3)
C274_3 C 0.1371(4) 0.4789(3) 0.8162(4)
C275_3 C 0.1232(3) 0.4983(3) 0.8507(5)
H160_3 H 0.0996 0.4985 0.8541
H161_3 H 0.1223 0.4667 0.7973
H162_3 H 0.1895 0.5318 0.8879
N55_3 N 0.08077(18) 0.58077(18) 0.9311(3)
H163_3 H 0.1112 0.5669 0.8289
H164_3 H 0.0669 0.6112 0.8289
C276_3 C 0.0165(2) 0.6420(3) 0.8790(3)
C277_3 C 0.0175(2) 0.6752(3) 0.8711(3)
H168_3 H 0.0318 0.6895 0.8879
Zn7_5 Zn 0.07459(4) 0.57459(4) 1.0000
O2_5 O 0.0367(3) 0.5367(3) 1.0000
Ag20_3 Ag 0.19194(3) 0.43958(3) 0.76075(3)
H145_3 H 0.9868 0.6676 0.0413
C246_3 C 0.9955(3) 0.6885(3) 0.1648(5)
H147_3 H 0.9947 0.7120 0.1692
C249_3 C 0.9983(3) 0.6232(3) 0.1493(5)
H149_3 H 0.9985 0.5996 0.1459
C250_3 C 0.9789(3) 0.6371(4) 0.1838(4)
H150_3 H 0.9667 0.6223 0.2027
H151_3 H 0.9868 0.6676 0.9587
C278_3 C 0.9955(3) 0.6885(3) 0.8352(5)
H165_3 H 0.9947 0.7120 0.8308
C279_3 C 0.9789(3) 0.6371(4) 0.8162(4)
C280_3 C 0.9983(3) 0.6232(3) 0.8507(5)
H166_3 H 0.9985 0.5996 0.8541
H167_3 H 0.9667 0.6223 0.7973
Zn1_13 Zn 0.5000 0.5000 0.5000
Zn2_4 Zn 0.68785(3) 0.66877(3) 0.5000
C1_3 C 0.6203(2) 0.7546(2) 0.5225(2)
H1_3 H 0.6081 0.7691 0.5417
C2_3 C 0.6430(2) 0.7275(2) 0.5367(3)
C3_3 C 0.6516(2) 0.7186(2) 0.5835(3)
C4_3 C 0.6749(2) 0.6953(2) 0.5973(3)
C5_3 C 0.6829(2) 0.6874(2) 0.6449(3)
H2_3 H 0.6732 0.6977 0.6707
C6_3 C 0.7064(2) 0.6627(2) 0.6453(3)
H3_3 H 0.7159 0.6522 0.6711
C7_3 C 0.7138(2) 0.6558(2) 0.5988(3)
C8_3 C 0.73745(19) 0.63143(19) 0.5832(3)
C9_3 C 0.7464(2) 0.62350(18) 0.5378(3)
C10_3 C 0.7721(2) 0.5997(2) 0.5230(2)
H4_3 H 0.7861 0.5867 0.5419
C16_4 C 0.5315(3) 0.5725(3) 0.5000
C17_4 C 0.5679(3) 0.5575(3) 0.5000
C18_4 C 0.5742(4) 0.5222(3) 0.5000
C19_4 C 0.6085(4) 0.5110(3) 0.5000
H7_4 H 0.6279 0.5247 0.5000
C20_4 C 0.5239(4) 0.6078(3) 0.5000
H8_4 H 0.5390 0.6261 0.5000
N1_3 N 0.5936(3) 0.7737(3) 0.6880(4)
C21_3 C 0.6259(4) 0.7804(3) 0.6804(4)
H9_3 H 0.6363 0.7969 0.6986
C22_3 C 0.6459(3) 0.7640(3) 0.6462(4)
H10_3 H 0.6684 0.7704 0.6408
C23_3 C 0.6303(3) 0.7380(3) 0.6209(3)
C24_3 C 0.5964(3) 0.7306(3) 0.6278(4)
H11_3 H 0.5851 0.7144 0.6101
C25_3 C 0.5796(3) 0.7489(4) 0.6634(5)
H12_3 H 0.5571 0.7430 0.6700
N2_2 N 0.7885(3) 0.5798(3) 0.6961(3)
C26_3 C 0.8025(4) 0.6062(4) 0.6746(4)
H13_3 H 0.8235 0.6137 0.6855
C27_3 C 0.7886(3) 0.6239(3) 0.6369(4)
H14_3 H 0.8001 0.6419 0.6228
C28_3 C 0.7577(3) 0.6132(2) 0.6223(3)
C29_3 C 0.7421(3) 0.5864(3) 0.6434(4)
H15_3 H 0.7210 0.5786 0.6333
C30_3 C 0.7588(4) 0.5710(4) 0.6806(5)
H16_3 H 0.7476 0.5531 0.6954
C36_3 C 0.6358(3) 0.6190(3) 0.4628(4)
H21_3 H 0.6450 0.6263 0.4349
C37_3 C 0.6083(3) 0.5951(3) 0.4612(4)
H22_3 H 0.5995 0.5884 0.4328
C38_4 C 0.5950(3) 0.5820(3) 0.5000
N3_4 N 0.6563(2) 0.7122(2) 0.5000
N4_3 N 0.69403(15) 0.67508(15) 0.57056(19)
N5_4 N 0.73127(19) 0.63697(19) 0.5000
N8_4 N 0.5030(3) 0.5509(2) 0.5000
N10_4 N 0.6486(2) 0.6310(2) 0.5000
C39_3 C 0.6203(2) 0.7546(2) 0.4775(2)
H23_3 H 0.6081 0.7691 0.4583
C40_3 C 0.6430(2) 0.7275(2) 0.4633(3)
C41_3 C 0.6516(2) 0.7186(2) 0.4165(3)
C42_3 C 0.6749(2) 0.6953(2) 0.4027(3)
C43_3 C 0.6829(2) 0.6874(2) 0.3551(3)
H24_3 H 0.6732 0.6977 0.3293
C44_3 C 0.7064(2) 0.6627(2) 0.3547(3)
H25_3 H 0.7159 0.6522 0.3289
C45_3 C 0.7138(2) 0.6558(2) 0.4012(3)
C46_3 C 0.73745(19) 0.63143(19) 0.4168(3)
C47_3 C 0.7464(2) 0.62350(18) 0.4622(3)
C48_3 C 0.7721(2) 0.5997(2) 0.4770(2)
H26_3 H 0.7861 0.5867 0.4581
C49_3 C 0.7577(3) 0.6132(2) 0.3777(3)
C50_3 C 0.7886(3) 0.6239(3) 0.3631(4)
C51_3 C 0.8025(4) 0.6062(4) 0.3254(4)
N11_2 N 0.7885(3) 0.5798(3) 0.3039(3)
C52_3 C 0.7588(4) 0.5710(4) 0.3194(5)
C53_3 C 0.7421(3) 0.5864(3) 0.3566(4)
H27_3 H 0.7210 0.5786 0.3667
H28_3 H 0.7476 0.5531 0.3046
H29_3 H 0.8235 0.6137 0.3145
H30_3 H 0.8001 0.6419 0.3772
N12_3 N 0.69403(15) 0.67508(15) 0.42944(19)
C54_3 C 0.6303(3) 0.7380(3) 0.3791(3)
C55_3 C 0.6459(3) 0.7640(3) 0.3538(4)
C56_3 C 0.6259(4) 0.7804(3) 0.3196(4)
N13_3 N 0.5936(3) 0.7737(3) 0.3120(4)
C57_3 C 0.5796(3) 0.7489(4) 0.3366(5)
C58_3 C 0.5964(3) 0.7306(3) 0.3722(4)
H31_3 H 0.5851 0.7144 0.3899
H32_3 H 0.5571 0.7430 0.3300
H33_3 H 0.6363 0.7969 0.3014
H34_3 H 0.6684 0.7704 0.3592
C89_4 C 0.6078(3) 0.4761(4) 0.5000
C90_4 C 0.5725(3) 0.4685(3) 0.5000
C91_4 C 0.5575(3) 0.4321(3) 0.5000
C92_4 C 0.5222(3) 0.4258(4) 0.5000
C93_4 C 0.5110(3) 0.3915(4) 0.5000
H53_4 H 0.5247 0.3721 0.5000
C94_4 C 0.4761(4) 0.3922(3) 0.5000
C95_4 C 0.4685(3) 0.4275(3) 0.5000
C96_4 C 0.4321(3) 0.4425(3) 0.5000
C97_4 C 0.4258(4) 0.4778(3) 0.5000
C98_4 C 0.3915(4) 0.4890(3) 0.5000
H54_4 H 0.3721 0.4753 0.5000
C99_4 C 0.3922(3) 0.5239(4) 0.5000
C100_4 C 0.4275(3) 0.5315(3) 0.5000
C101_4 C 0.4425(3) 0.5679(3) 0.5000
C102_4 C 0.4778(3) 0.5742(4) 0.5000
C103_4 C 0.4890(3) 0.6085(4) 0.5000
H55_4 H 0.4753 0.6279 0.5000
C104_4 C 0.4180(3) 0.5950(3) 0.5000
C105_3 C 0.4049(3) 0.6083(3) 0.4612(4)
C106_3 C 0.3810(3) 0.6358(3) 0.4628(4)
H56_3 H 0.3737 0.6450 0.4349
N19_4 N 0.3690(2) 0.6486(2) 0.5000
C107_3 C 0.3810(3) 0.6358(3) 0.5372(4)
H57_3 H 0.3737 0.6450 0.5651
C108_3 C 0.4049(3) 0.6083(3) 0.5388(4)
H58_3 H 0.4116 0.5995 0.5672
H59_3 H 0.4116 0.5995 0.4328
N20_4 N 0.4491(2) 0.5030(3) 0.5000
H60_4 H 0.3739 0.5390 0.5000
C109_4 C 0.4050(3) 0.4180(3) 0.5000
C110_3 C 0.3917(3) 0.4049(3) 0.4612(4)
C111_3 C 0.3642(3) 0.3810(3) 0.4628(4)
H61_3 H 0.3550 0.3737 0.4349
N21_4 N 0.3514(2) 0.3690(2) 0.5000
C112_3 C 0.3642(3) 0.3810(3) 0.5372(4)
H62_3 H 0.3550 0.3737 0.5651
C113_3 C 0.3917(3) 0.4049(3) 0.5388(4)
H63_3 H 0.4005 0.4116 0.5672
H64_3 H 0.4005 0.4116 0.4328
N22_4 N 0.4970(3) 0.4491(2) 0.5000
H65_4 H 0.4610 0.3739 0.5000
C114_4 C 0.5820(3) 0.4050(3) 0.5000
C115_3 C 0.5951(3) 0.3917(3) 0.4612(4)
C116_3 C 0.6190(3) 0.3642(3) 0.4628(4)
H66_3 H 0.6263 0.3550 0.4349
N23_4 N 0.6310(2) 0.3514(2) 0.5000
C117_3 C 0.6190(3) 0.3642(3) 0.5372(4)
H67_3 H 0.6263 0.3550 0.5651
C118_3 C 0.5951(3) 0.3917(3) 0.5388(4)
H68_3 H 0.5884 0.4005 0.5672
H69_3 H 0.5884 0.4005 0.4328
N24_4 N 0.5509(2) 0.4970(3) 0.5000
H70_4 H 0.6261 0.4610 0.5000
C119_3 C 0.6358(3) 0.6190(3) 0.5372(4)
H71_3 H 0.6450 0.6263 0.5651
C120_3 C 0.6083(3) 0.5951(3) 0.5388(4)
H72_3 H 0.5995 0.5884 0.5672
Zn4_4 Zn 0.33123(3) 0.68785(3) 0.5000
Zn5_4 Zn 0.31215(3) 0.33123(3) 0.5000
Zn6_4 Zn 0.66877(3) 0.31215(3) 0.5000
C121_3 C 0.2454(2) 0.6203(2) 0.5225(2)
H73_3 H 0.2309 0.6081 0.5417
C122_3 C 0.2725(2) 0.6430(2) 0.5367(3)
C123_3 C 0.2814(2) 0.6516(2) 0.5835(3)
C124_3 C 0.3047(2) 0.6749(2) 0.5973(3)
C125_3 C 0.3126(2) 0.6829(2) 0.6449(3)
H74_3 H 0.3023 0.6732 0.6707
C126_3 C 0.3373(2) 0.7064(2) 0.6453(3)
H75_3 H 0.3478 0.7159 0.6711
C127_3 C 0.3442(2) 0.7138(2) 0.5988(3)
C128_3 C 0.36857(19) 0.73745(19) 0.5832(3)
C129_3 C 0.37650(18) 0.7464(2) 0.5378(3)
C130_3 C 0.4003(2) 0.7721(2) 0.5230(2)
H76_3 H 0.4133 0.7861 0.5419
N25_3 N 0.2263(3) 0.5936(3) 0.6880(4)
C131_3 C 0.2196(3) 0.6259(4) 0.6804(4)
H77_3 H 0.2031 0.6363 0.6986
C132_3 C 0.2360(3) 0.6459(3) 0.6462(4)
H78_3 H 0.2296 0.6684 0.6408
C133_3 C 0.2620(3) 0.6303(3) 0.6209(3)
C134_3 C 0.2694(3) 0.5964(3) 0.6278(4)
H79_3 H 0.2856 0.5851 0.6101
C135_3 C 0.2511(4) 0.5796(3) 0.6634(5)
H80_3 H 0.2570 0.5571 0.6700
N26_2 N 0.4202(3) 0.7885(3) 0.6961(3)
C136_3 C 0.3938(4) 0.8025(4) 0.6746(4)
H81_3 H 0.3863 0.8235 0.6855
C137_3 C 0.3761(3) 0.7886(3) 0.6369(4)
H82_3 H 0.3581 0.8001 0.6228
C138_3 C 0.3868(2) 0.7577(3) 0.6223(3)
C139_3 C 0.4136(3) 0.7421(3) 0.6434(4)
H83_3 H 0.4214 0.7210 0.6333
C140_3 C 0.4290(4) 0.7588(4) 0.6806(5)
H84_3 H 0.4469 0.7476 0.6954
N27_4 N 0.2878(2) 0.6563(2) 0.5000
N28_3 N 0.32492(15) 0.69403(15) 0.57056(19)
N29_4 N 0.36303(19) 0.73127(19) 0.5000
C141_3 C 0.2454(2) 0.6203(2) 0.4775(2)
H85_3 H 0.2309 0.6081 0.4583
C142_3 C 0.2725(2) 0.6430(2) 0.4633(3)
C143_3 C 0.2814(2) 0.6516(2) 0.4165(3)
C144_3 C 0.3047(2) 0.6749(2) 0.4027(3)
C145_3 C 0.3126(2) 0.6829(2) 0.3551(3)
H86_3 H 0.3023 0.6732 0.3293
C146_3 C 0.3373(2) 0.7064(2) 0.3547(3)
H87_3 H 0.3478 0.7159 0.3289
C147_3 C 0.3442(2) 0.7138(2) 0.4012(3)
C148_3 C 0.36857(19) 0.73745(19) 0.4168(3)
C149_3 C 0.37650(18) 0.7464(2) 0.4622(3)
C150_3 C 0.4003(2) 0.7721(2) 0.4770(2)
H88_3 H 0.4133 0.7861 0.4581
C151_3 C 0.3868(2) 0.7577(3) 0.3777(3)
C152_3 C 0.3761(3) 0.7886(3) 0.3631(4)
C153_3 C 0.3938(4) 0.8025(4) 0.3254(4)
N30_2 N 0.4202(3) 0.7885(3) 0.3039(3)
C154_3 C 0.4290(4) 0.7588(4) 0.3194(5)
C155_3 C 0.4136(3) 0.7421(3) 0.3566(4)
H89_3 H 0.4214 0.7210 0.3667
H90_3 H 0.4469 0.7476 0.3046
H91_3 H 0.3863 0.8235 0.3145
H92_3 H 0.3581 0.8001 0.3772
N31_3 N 0.32492(15) 0.69403(15) 0.42944(19)
C156_3 C 0.2620(3) 0.6303(3) 0.3791(3)
C157_3 C 0.2360(3) 0.6459(3) 0.3538(4)
C158_3 C 0.2196(3) 0.6259(4) 0.3196(4)
N32_3 N 0.2263(3) 0.5936(3) 0.3120(4)
C159_3 C 0.2511(4) 0.5796(3) 0.3366(5)
C160_3 C 0.2694(3) 0.5964(3) 0.3722(4)
H93_3 H 0.2856 0.5851 0.3899
H94_3 H 0.2570 0.5571 0.3300
H95_3 H 0.2031 0.6363 0.3014
H96_3 H 0.2296 0.6684 0.3592
C161_3 C 0.3797(2) 0.2454(2) 0.5225(2)
H97_3 H 0.3919 0.2309 0.5417
C162_3 C 0.3570(2) 0.2725(2) 0.5367(3)
C163_3 C 0.3484(2) 0.2814(2) 0.5835(3)
C164_3 C 0.3251(2) 0.3047(2) 0.5973(3)
C165_3 C 0.3171(2) 0.3126(2) 0.6449(3)
H98_3 H 0.3268 0.3023 0.6707
C166_3 C 0.2936(2) 0.3373(2) 0.6453(3)
H99_3 H 0.2841 0.3478 0.6711
C167_3 C 0.2862(2) 0.3442(2) 0.5988(3)
C168_3 C 0.26255(19) 0.36857(19) 0.5832(3)
C169_3 C 0.2536(2) 0.37650(18) 0.5378(3)
C170_3 C 0.2279(2) 0.4003(2) 0.5230(2)
H100_3 H 0.2139 0.4133 0.5419
N33_3 N 0.4064(3) 0.2263(3) 0.6880(4)
C171_3 C 0.3741(4) 0.2196(3) 0.6804(4)
H101_3 H 0.3637 0.2031 0.6986
C172_3 C 0.3541(3) 0.2360(3) 0.6462(4)
H102_3 H 0.3316 0.2296 0.6408
C173_3 C 0.3697(3) 0.2620(3) 0.6209(3)
C174_3 C 0.4036(3) 0.2694(3) 0.6278(4)
H103_3 H 0.4149 0.2856 0.6101
C175_3 C 0.4204(3) 0.2511(4) 0.6634(5)
H104_3 H 0.4429 0.2570 0.6700
N34_2 N 0.2115(3) 0.4202(3) 0.6961(3)
C176_3 C 0.1975(4) 0.3938(4) 0.6746(4)
H105_3 H 0.1765 0.3863 0.6855
C177_3 C 0.2114(3) 0.3761(3) 0.6369(4)
H106_3 H 0.1999 0.3581 0.6228
C178_3 C 0.2423(3) 0.3868(2) 0.6223(3)
C179_3 C 0.2579(3) 0.4136(3) 0.6434(4)
H107_3 H 0.2790 0.4214 0.6333
C180_3 C 0.2412(4) 0.4290(4) 0.6806(5)
H108_3 H 0.2524 0.4469 0.6954
N35_4 N 0.3437(2) 0.2878(2) 0.5000
N36_3 N 0.30597(15) 0.32492(15) 0.57056(19)
N37_4 N 0.26873(19) 0.36303(19) 0.5000
C181_3 C 0.3797(2) 0.2454(2) 0.4775(2)
H109_3 H 0.3919 0.2309 0.4583
C182_3 C 0.3570(2) 0.2725(2) 0.4633(3)
C183_3 C 0.3484(2) 0.2814(2) 0.4165(3)
C184_3 C 0.3251(2) 0.3047(2) 0.4027(3)
C185_3 C 0.3171(2) 0.3126(2) 0.3551(3)
H110_3 H 0.3268 0.3023 0.3293
C186_3 C 0.2936(2) 0.3373(2) 0.3547(3)
H111_3 H 0.2841 0.3478 0.3289
C187_3 C 0.2862(2) 0.3442(2) 0.4012(3)
C188_3 C 0.26255(19) 0.36857(19) 0.4168(3)
C189_3 C 0.2536(2) 0.37650(18) 0.4622(3)
C190_3 C 0.2279(2) 0.4003(2) 0.4770(2)
H112_3 H 0.2139 0.4133 0.4581
C191_3 C 0.2423(3) 0.3868(2) 0.3777(3)
C192_3 C 0.2114(3) 0.3761(3) 0.3631(4)
C193_3 C 0.1975(4) 0.3938(4) 0.3254(4)
N38_2 N 0.2115(3) 0.4202(3) 0.3039(3)
C194_3 C 0.2412(4) 0.4290(4) 0.3194(5)
C195_3 C 0.2579(3) 0.4136(3) 0.3566(4)
H113_3 H 0.2790 0.4214 0.3667
H114_3 H 0.2524 0.4469 0.3046
H115_3 H 0.1765 0.3863 0.3145
H116_3 H 0.1999 0.3581 0.3772
N39_3 N 0.30597(15) 0.32492(15) 0.42944(19)
C196_3 C 0.3697(3) 0.2620(3) 0.3791(3)
C197_3 C 0.3541(3) 0.2360(3) 0.3538(4)
C198_3 C 0.3741(4) 0.2196(3) 0.3196(4)
N40_3 N 0.4064(3) 0.2263(3) 0.3120(4)
C199_3 C 0.4204(3) 0.2511(4) 0.3366(5)
C200_3 C 0.4036(3) 0.2694(3) 0.3722(4)
H117_3 H 0.4149 0.2856 0.3899
H118_3 H 0.4429 0.2570 0.3300
H119_3 H 0.3637 0.2031 0.3014
H120_3 H 0.3316 0.2296 0.3592
C201_3 C 0.7546(2) 0.3797(2) 0.5225(2)
H121_3 H 0.7691 0.3919 0.5417
C202_3 C 0.7275(2) 0.3570(2) 0.5367(3)
C203_3 C 0.7186(2) 0.3484(2) 0.5835(3)
C204_3 C 0.6953(2) 0.3251(2) 0.5973(3)
C205_3 C 0.6874(2) 0.3171(2) 0.6449(3)
H122_3 H 0.6977 0.3268 0.6707
C206_3 C 0.6627(2) 0.2936(2) 0.6453(3)
H123_3 H 0.6522 0.2841 0.6711
C207_3 C 0.6558(2) 0.2862(2) 0.5988(3)
C208_3 C 0.63143(19) 0.26255(19) 0.5832(3)
C209_3 C 0.62350(18) 0.2536(2) 0.5378(3)
C210_3 C 0.5997(2) 0.2279(2) 0.5230(2)
H124_3 H 0.5867 0.2139 0.5419
N41_3 N 0.7737(3) 0.4064(3) 0.6880(4)
C211_3 C 0.7804(3) 0.3741(4) 0.6804(4)
H125_3 H 0.7969 0.3637 0.6986
C212_3 C 0.7640(3) 0.3541(3) 0.6462(4)
H126_3 H 0.7704 0.3316 0.6408
C213_3 C 0.7380(3) 0.3697(3) 0.6209(3)
C214_3 C 0.7306(3) 0.4036(3) 0.6278(4)
H127_3 H 0.7144 0.4149 0.6101
C215_3 C 0.7489(4) 0.4204(3) 0.6634(5)
H128_3 H 0.7430 0.4429 0.6700
N42_2 N 0.5798(3) 0.2115(3) 0.6961(3)
C216_3 C 0.6062(4) 0.1975(4) 0.6746(4)
H129_3 H 0.6137 0.1765 0.6855
C217_3 C 0.6239(3) 0.2114(3) 0.6369(4)
H130_3 H 0.6419 0.1999 0.6228
C218_3 C 0.6132(2) 0.2423(3) 0.6223(3)
C219_3 C 0.5864(3) 0.2579(3) 0.6434(4)
H131_3 H 0.5786 0.2790 0.6333
C220_3 C 0.5710(4) 0.2412(4) 0.6806(5)
H132_3 H 0.5531 0.2524 0.6954
N43_4 N 0.7122(2) 0.3437(2) 0.5000
N44_3 N 0.67508(15) 0.30597(15) 0.57056(19)
N45_4 N 0.63697(19) 0.26873(19) 0.5000
C221_3 C 0.7546(2) 0.3797(2) 0.4775(2)
H133_3 H 0.7691 0.3919 0.4583
C222_3 C 0.7275(2) 0.3570(2) 0.4633(3)
C223_3 C 0.7186(2) 0.3484(2) 0.4165(3)
C224_3 C 0.6953(2) 0.3251(2) 0.4027(3)
C225_3 C 0.6874(2) 0.3171(2) 0.3551(3)
H134_3 H 0.6977 0.3268 0.3293
C226_3 C 0.6627(2) 0.2936(2) 0.3547(3)
H135_3 H 0.6522 0.2841 0.3289
C227_3 C 0.6558(2) 0.2862(2) 0.4012(3)
C228_3 C 0.63143(19) 0.26255(19) 0.4168(3)
C229_3 C 0.62350(18) 0.2536(2) 0.4622(3)
C230_3 C 0.5997(2) 0.2279(2) 0.4770(2)
H136_3 H 0.5867 0.2139 0.4581
C231_3 C 0.6132(2) 0.2423(3) 0.3777(3)
C232_3 C 0.6239(3) 0.2114(3) 0.3631(4)
C233_3 C 0.6062(4) 0.1975(4) 0.3254(4)
N46_2 N 0.5798(3) 0.2115(3) 0.3039(3)
C234_3 C 0.5710(4) 0.2412(4) 0.3194(5)
C235_3 C 0.5864(3) 0.2579(3) 0.3566(4)
H137_3 H 0.5786 0.2790 0.3667
H138_3 H 0.5531 0.2524 0.3046
H139_3 H 0.6137 0.1765 0.3145
H140_3 H 0.6419 0.1999 0.3772
N47_3 N 0.67508(15) 0.30597(15) 0.42944(19)
C236_3 C 0.7380(3) 0.3697(3) 0.3791(3)
C237_3 C 0.7640(3) 0.3541(3) 0.3538(4)
C238_3 C 0.7804(3) 0.3741(4) 0.3196(4)
N48_3 N 0.7737(3) 0.4064(3) 0.3120(4)
C239_3 C 0.7489(4) 0.4204(3) 0.3366(5)
C240_3 C 0.7306(3) 0.4036(3) 0.3722(4)
H141_3 H 0.7144 0.4149 0.3899
H142_3 H 0.7430 0.4429 0.3300
H143_3 H 0.7969 0.3637 0.3014
H144_3 H 0.7704 0.3316 0.3592
Ag3_2 Ag 0.19194(3) 0.56042(3) 0.73925(3)
Ag4_2 Ag 0.19194(3) 0.56042(3) 0.26075(3)
Ag5_2 Ag 0.43958(3) 0.19194(3) 0.73925(3)
Ag6_2 Ag 0.43958(3) 0.19194(3) 0.26075(3)
C241_4 C 0.1552(2) 0.4986(2) 0.5223(2)
H145_4 H 0.1676 0.5132 0.5413
C242_4 C 0.1317(2) 0.4711(2) 0.5377(3)
C243_4 C 0.1253(2) 0.4621(2) 0.5837(3)
C244_4 C 0.1032(2) 0.4379(2) 0.5975(2)
C245_4 C 0.0991(2) 0.4254(2) 0.6455(3)
H146_4 H 0.1112 0.4331 0.6711
C246_4 C 0.1885(3) 0.5045(3) 0.6648(5)
H147_4 H 0.2120 0.5053 0.6692
C247_4 C 0.1752(3) 0.4825(2) 0.6289(3)
H148_4 H 0.1895 0.4682 0.6121
C248_4 C 0.1420(3) 0.4835(2) 0.6210(3)
C249_4 C 0.1232(3) 0.5017(3) 0.6493(5)
H149_4 H 0.0996 0.5015 0.6459
C250_4 C 0.1371(4) 0.5211(3) 0.6838(4)
H150_4 H 0.1223 0.5333 0.7027
N49_6 N 0.1179(2) 0.4558(2) 0.5000
N50_4 N 0.08077(18) 0.41923(18) 0.5689(3)
N51_3 N 0.1687(3) 0.5235(2) 0.6918(3)
C251_4 C 0.1552(2) 0.4986(2) 0.4777(2)
H151_4 H 0.1676 0.5132 0.4587
C252_4 C 0.1317(2) 0.4711(2) 0.4623(3)
C253_4 C 0.1253(2) 0.4621(2) 0.4163(3)
C254_4 C 0.1032(2) 0.4379(2) 0.4025(2)
C255_4 C 0.0991(2) 0.4254(2) 0.3545(3)
C256_4 C 0.0746(2) 0.4009(2) 0.3545(3)
C257_4 C 0.0621(2) 0.3968(2) 0.4025(2)
C258_4 C 0.0379(2) 0.3747(2) 0.4163(3)
C259_4 C 0.0289(2) 0.3683(2) 0.4623(3)
C260_4 C 0.0014(2) 0.3448(2) 0.4777(2)
C261_4 C 0.0014(2) 0.3448(2) 0.5223(2)
C262_4 C 0.0289(2) 0.3683(2) 0.5377(3)
C263_4 C 0.0379(2) 0.3747(2) 0.5837(3)
C264_4 C 0.0621(2) 0.3968(2) 0.5975(2)
C265_4 C 0.0746(2) 0.4009(2) 0.6455(3)
H153_4 H 0.0669 0.3888 0.6711
C266_4 C 0.0165(2) 0.3580(3) 0.6210(3)
C267_4 C 0.0175(2) 0.3248(3) 0.6289(3)
H157_4 H 0.0318 0.3105 0.6121
N53_6 N 0.0442(2) 0.3821(2) 0.5000
C271_4 C 0.0165(2) 0.3580(3) 0.3790(3)
C272_4 C 0.0175(2) 0.3248(3) 0.3711(3)
H162_4 H 0.0318 0.3105 0.3879
N55_4 N 0.08077(18) 0.41923(18) 0.4311(3)
H163_4 H 0.0669 0.3888 0.3289
H164_4 H 0.1112 0.4331 0.3289
C276_4 C 0.1420(3) 0.4835(2) 0.3790(3)
C277_4 C 0.1752(3) 0.4825(2) 0.3711(3)
C278_4 C 0.1885(3) 0.5045(3) 0.3352(5)
H165_4 H 0.2120 0.5053 0.3308
N56_3 N 0.1687(3) 0.5235(2) 0.3082(3)
C279_4 C 0.1371(4) 0.5211(3) 0.3162(4)
C280_4 C 0.1232(3) 0.5017(3) 0.3507(5)
H166_4 H 0.0996 0.5015 0.3541
H167_4 H 0.1223 0.5333 0.2973
H168_4 H 0.1895 0.4682 0.3879
Zn7_6 Zn 0.07459(4) 0.42541(4) 0.5000
O2_6 O 0.0367(3) 0.4633(3) 0.5000
N57_2 N 0.5798(3) 0.7885(3) 0.8039(3)
N58_2 N 0.5798(3) 0.7885(3) 0.1961(3)
N59_2 N 0.2115(3) 0.5798(3) 0.8039(3)
N60_2 N 0.2115(3) 0.5798(3) 0.1961(3)
N61_2 N 0.4202(3) 0.2115(3) 0.8039(3)
N62_3 N 0.4765(2) 0.1687(3) 0.6918(3)
N63_2 N 0.4202(3) 0.2115(3) 0.1961(3)
N64_3 N 0.4765(2) 0.1687(3) 0.3082(3)
N65_2 N 0.7885(3) 0.4202(3) 0.8039(3)
N67_2 N 0.7885(3) 0.4202(3) 0.1961(3)
H152_4 H 0.9868 0.3324 0.5413
C268_4 C 0.9955(3) 0.3115(3) 0.6648(5)
H154_4 H 0.9947 0.2880 0.6692
C269_4 C 0.9789(3) 0.3629(4) 0.6838(4)
C270_4 C 0.9983(3) 0.3768(3) 0.6493(5)
H155_4 H 0.9985 0.4004 0.6459
H156_4 H 0.9667 0.3777 0.7027
H158_4 H 0.9868 0.3324 0.4587
C273_4 C 0.9955(3) 0.3115(3) 0.3352(5)
H159_4 H 0.9947 0.2880 0.3308
C274_4 C 0.9789(3) 0.3629(4) 0.3162(4)
C275_4 C 0.9983(3) 0.3768(3) 0.3507(5)
H160_4 H 0.9985 0.4004 0.3541
H161_4 H 0.9667 0.3777 0.2973
Zn1_14 Zn 0.5000 0.5000 0.0000
Zn2_5 Zn 0.66877(3) 0.68785(3) 0.0000
C16_5 C 0.5725(3) 0.5315(3) 0.0000
C17_5 C 0.5575(3) 0.5679(3) 0.0000
C18_5 C 0.5222(3) 0.5742(4) 0.0000
C19_5 C 0.5110(3) 0.6085(4) 0.0000
H7_5 H 0.5247 0.6279 0.0000
C20_5 C 0.6078(3) 0.5239(4) 0.0000
H8_5 H 0.6261 0.5390 0.0000
C36_4 C 0.6190(3) 0.6358(3) 0.0372(4)
H21_4 H 0.6263 0.6450 0.0651
C37_4 C 0.5951(3) 0.6083(3) 0.0388(4)
H22_4 H 0.5884 0.5995 0.0672
C38_5 C 0.5820(3) 0.5950(3) 0.0000
N3_5 N 0.7122(2) 0.6563(2) 0.0000
N5_5 N 0.63697(19) 0.73127(19) 0.0000
N8_5 N 0.5509(2) 0.5030(3) 0.0000
N10_5 N 0.6310(2) 0.6486(2) 0.0000
C39_4 C 0.7546(2) 0.6203(2) 0.0225(2)
H23_4 H 0.7691 0.6081 0.0417
C40_4 C 0.7275(2) 0.6430(2) 0.0367(3)
C41_4 C 0.7186(2) 0.6516(2) 0.0835(3)
C42_4 C 0.6953(2) 0.6749(2) 0.0973(3)
C43_4 C 0.6874(2) 0.6829(2) 0.1449(3)
H24_4 H 0.6977 0.6732 0.1707
C44_4 C 0.6627(2) 0.7064(2) 0.1453(3)
H25_4 H 0.6522 0.7159 0.1711
C45_4 C 0.6558(2) 0.7138(2) 0.0988(3)
C46_4 C 0.63143(19) 0.73745(19) 0.0832(3)
C47_4 C 0.62350(18) 0.7464(2) 0.0378(3)
C48_4 C 0.5997(2) 0.7721(2) 0.0230(2)
H26_4 H 0.5867 0.7861 0.0419
C49_4 C 0.6132(2) 0.7577(3) 0.1223(3)
C50_4 C 0.6239(3) 0.7886(3) 0.1369(4)
C51_4 C 0.6062(4) 0.8025(4) 0.1746(4)
C52_4 C 0.5710(4) 0.7588(4) 0.1806(5)
C53_4 C 0.5864(3) 0.7421(3) 0.1434(4)
H27_4 H 0.5786 0.7210 0.1333
H28_4 H 0.5531 0.7476 0.1954
H29_4 H 0.6137 0.8235 0.1855
H30_4 H 0.6419 0.8001 0.1228
N12_4 N 0.67508(15) 0.69403(15) 0.07056(19)
C54_4 C 0.7380(3) 0.6303(3) 0.1209(3)
C55_4 C 0.7640(3) 0.6459(3) 0.1462(4)
C56_4 C 0.7804(3) 0.6259(4) 0.1804(4)
N13_4 N 0.7737(3) 0.5936(3) 0.1880(4)
C57_4 C 0.7489(4) 0.5796(3) 0.1634(5)
C58_4 C 0.7306(3) 0.5964(3) 0.1278(4)
H31_4 H 0.7144 0.5851 0.1101
H32_4 H 0.7430 0.5571 0.1700
H33_4 H 0.7969 0.6363 0.1986
H34_4 H 0.7704 0.6684 0.1408
C89_5 C 0.4761(4) 0.6078(3) 0.0000
C90_5 C 0.4685(3) 0.5725(3) 0.0000
C91_5 C 0.4321(3) 0.5575(3) 0.0000
C92_5 C 0.4258(4) 0.5222(3) 0.0000
C93_5 C 0.3915(4) 0.5110(3) 0.0000
H53_5 H 0.3721 0.5247 0.0000
C94_5 C 0.3922(3) 0.4761(4) 0.0000
C95_5 C 0.4275(3) 0.4685(3) 0.0000
C96_5 C 0.4425(3) 0.4321(3) 0.0000
C97_5 C 0.4778(3) 0.4258(4) 0.0000
C98_5 C 0.4890(3) 0.3915(4) 0.0000
H54_5 H 0.4753 0.3721 0.0000
C99_5 C 0.5239(4) 0.3922(3) 0.0000
C100_5 C 0.5315(3) 0.4275(3) 0.0000
C101_5 C 0.5679(3) 0.4425(3) 0.0000
C102_5 C 0.5742(4) 0.4778(3) 0.0000
C103_5 C 0.6085(4) 0.4890(3) 0.0000
H55_5 H 0.6279 0.4753 0.0000
C104_5 C 0.5950(3) 0.4180(3) 0.0000
C105_4 C 0.6083(3) 0.4049(3) 0.0388(4)
C106_4 C 0.6358(3) 0.3810(3) 0.0372(4)
H56_4 H 0.6450 0.3737 0.0651
N19_5 N 0.6486(2) 0.3690(2) 0.0000
H59_4 H 0.5995 0.4116 0.0672
N20_5 N 0.5030(3) 0.4491(2) 0.0000
H60_5 H 0.5390 0.3739 0.0000
C109_5 C 0.4180(3) 0.4050(3) 0.0000
C110_4 C 0.4049(3) 0.3917(3) 0.0388(4)
C111_4 C 0.3810(3) 0.3642(3) 0.0372(4)
H61_4 H 0.3737 0.3550 0.0651
N21_5 N 0.3690(2) 0.3514(2) 0.0000
H64_4 H 0.4116 0.4005 0.0672
N22_5 N 0.4491(2) 0.4970(3) 0.0000
H65_5 H 0.3739 0.4610 0.0000
C114_5 C 0.4050(3) 0.5820(3) 0.0000
C115_4 C 0.3917(3) 0.5951(3) 0.0388(4)
C116_4 C 0.3642(3) 0.6190(3) 0.0372(4)
H66_4 H 0.3550 0.6263 0.0651
N23_5 N 0.3514(2) 0.6310(2) 0.0000
H69_4 H 0.4005 0.5884 0.0672
N24_5 N 0.4970(3) 0.5509(2) 0.0000
H70_5 H 0.4610 0.6261 0.0000
Zn4_5 Zn 0.68785(3) 0.33123(3) 0.0000
Zn5_5 Zn 0.33123(3) 0.31215(3) 0.0000
Zn6_5 Zn 0.31215(3) 0.66877(3) 0.0000
N27_5 N 0.6563(2) 0.2878(2) 0.0000
N29_5 N 0.73127(19) 0.36303(19) 0.0000
C141_4 C 0.6203(2) 0.2454(2) 0.0225(2)
H85_4 H 0.6081 0.2309 0.0417
C142_4 C 0.6430(2) 0.2725(2) 0.0367(3)
C143_4 C 0.6516(2) 0.2814(2) 0.0835(3)
C144_4 C 0.6749(2) 0.3047(2) 0.0973(3)
C145_4 C 0.6829(2) 0.3126(2) 0.1449(3)
H86_4 H 0.6732 0.3023 0.1707
C146_4 C 0.7064(2) 0.3373(2) 0.1453(3)
H87_4 H 0.7159 0.3478 0.1711
C147_4 C 0.7138(2) 0.3442(2) 0.0988(3)
C148_4 C 0.73745(19) 0.36857(19) 0.0832(3)
C149_4 C 0.7464(2) 0.37650(18) 0.0378(3)
C150_4 C 0.7721(2) 0.4003(2) 0.0230(2)
H88_4 H 0.7861 0.4133 0.0419
C151_4 C 0.7577(3) 0.3868(2) 0.1223(3)
C152_4 C 0.7886(3) 0.3761(3) 0.1369(4)
C153_4 C 0.8025(4) 0.3938(4) 0.1746(4)
C154_4 C 0.7588(4) 0.4290(4) 0.1806(5)
C155_4 C 0.7421(3) 0.4136(3) 0.1434(4)
H89_4 H 0.7210 0.4214 0.1333
H90_4 H 0.7476 0.4469 0.1954
H91_4 H 0.8235 0.3863 0.1855
H92_4 H 0.8001 0.3581 0.1228
N31_4 N 0.69403(15) 0.32492(15) 0.07056(19)
C156_4 C 0.6303(3) 0.2620(3) 0.1209(3)
C157_4 C 0.6459(3) 0.2360(3) 0.1462(4)
C158_4 C 0.6259(4) 0.2196(3) 0.1804(4)
N32_4 N 0.5936(3) 0.2263(3) 0.1880(4)
C159_4 C 0.5796(3) 0.2511(4) 0.1634(5)
C160_4 C 0.5964(3) 0.2694(3) 0.1278(4)
H93_4 H 0.5851 0.2856 0.1101
H94_4 H 0.5571 0.2570 0.1700
H95_4 H 0.6363 0.2031 0.1986
H96_4 H 0.6684 0.2296 0.1408
N35_5 N 0.2878(2) 0.3437(2) 0.0000
N37_5 N 0.36303(19) 0.26873(19) 0.0000
C181_4 C 0.2454(2) 0.3797(2) 0.0225(2)
H109_4 H 0.2309 0.3919 0.0417
C182_4 C 0.2725(2) 0.3570(2) 0.0367(3)
C183_4 C 0.2814(2) 0.3484(2) 0.0835(3)
C184_4 C 0.3047(2) 0.3251(2) 0.0973(3)
C185_4 C 0.3126(2) 0.3171(2) 0.1449(3)
H110_4 H 0.3023 0.3268 0.1707
C186_4 C 0.3373(2) 0.2936(2) 0.1453(3)
H111_4 H 0.3478 0.2841 0.1711
C187_4 C 0.3442(2) 0.2862(2) 0.0988(3)
C188_4 C 0.36857(19) 0.26255(19) 0.0832(3)
C189_4 C 0.37650(18) 0.2536(2) 0.0378(3)
C190_4 C 0.4003(2) 0.2279(2) 0.0230(2)
H112_4 H 0.4133 0.2139 0.0419
C191_4 C 0.3868(2) 0.2423(3) 0.1223(3)
C192_4 C 0.3761(3) 0.2114(3) 0.1369(4)
C193_4 C 0.3938(4) 0.1975(4) 0.1746(4)
C194_4 C 0.4290(4) 0.2412(4) 0.1806(5)
C195_4 C 0.4136(3) 0.2579(3) 0.1434(4)
H113_4 H 0.4214 0.2790 0.1333
H114_4 H 0.4469 0.2524 0.1954
H115_4 H 0.3863 0.1765 0.1855
H116_4 H 0.3581 0.1999 0.1228
N39_4 N 0.32492(15) 0.30597(15) 0.07056(19)
C196_4 C 0.2620(3) 0.3697(3) 0.1209(3)
C197_4 C 0.2360(3) 0.3541(3) 0.1462(4)
C198_4 C 0.2196(3) 0.3741(4) 0.1804(4)
N40_4 N 0.2263(3) 0.4064(3) 0.1880(4)
C199_4 C 0.2511(4) 0.4204(3) 0.1634(5)
C200_4 C 0.2694(3) 0.4036(3) 0.1278(4)
H117_4 H 0.2856 0.4149 0.1101
H118_4 H 0.2570 0.4429 0.1700
H119_4 H 0.2031 0.3637 0.1986
H120_4 H 0.2296 0.3316 0.1408
N43_5 N 0.3437(2) 0.7122(2) 0.0000
N45_5 N 0.26873(19) 0.63697(19) 0.0000
C221_4 C 0.3797(2) 0.7546(2) 0.0225(2)
H133_4 H 0.3919 0.7691 0.0417
C222_4 C 0.3570(2) 0.7275(2) 0.0367(3)
C223_4 C 0.3484(2) 0.7186(2) 0.0835(3)
C224_4 C 0.3251(2) 0.6953(2) 0.0973(3)
C225_4 C 0.3171(2) 0.6874(2) 0.1449(3)
H134_4 H 0.3268 0.6977 0.1707
C226_4 C 0.2936(2) 0.6627(2) 0.1453(3)
H135_4 H 0.2841 0.6522 0.1711
C227_4 C 0.2862(2) 0.6558(2) 0.0988(3)
C228_4 C 0.26255(19) 0.63143(19) 0.0832(3)
C229_4 C 0.2536(2) 0.62350(18) 0.0378(3)
C230_4 C 0.2279(2) 0.5997(2) 0.0230(2)
H136_4 H 0.2139 0.5867 0.0419
C231_4 C 0.2423(3) 0.6132(2) 0.1223(3)
C232_4 C 0.2114(3) 0.6239(3) 0.1369(4)
C233_4 C 0.1975(4) 0.6062(4) 0.1746(4)
C234_4 C 0.2412(4) 0.5710(4) 0.1806(5)
C235_4 C 0.2579(3) 0.5864(3) 0.1434(4)
H137_4 H 0.2790 0.5786 0.1333
H138_4 H 0.2524 0.5531 0.1954
H139_4 H 0.1765 0.6137 0.1855
H140_4 H 0.1999 0.6419 0.1228
N47_4 N 0.30597(15) 0.67508(15) 0.07056(19)
C236_4 C 0.3697(3) 0.7380(3) 0.1209(3)
C237_4 C 0.3541(3) 0.7640(3) 0.1462(4)
C238_4 C 0.3741(4) 0.7804(3) 0.1804(4)
N48_4 N 0.4064(3) 0.7737(3) 0.1880(4)
C239_4 C 0.4204(3) 0.7489(4) 0.1634(5)
C240_4 C 0.4036(3) 0.7306(3) 0.1278(4)
H141_4 H 0.4149 0.7144 0.1101
H142_4 H 0.4429 0.7430 0.1700
H143_4 H 0.3637 0.7969 0.1986
H144_4 H 0.3316 0.7704 0.1408
Zn1_15 Zn 0.5000 0.5000 1.0000
Zn2_6 Zn 0.66877(3) 0.68785(3) 1.0000
C1_4 C 0.7546(2) 0.6203(2) 0.9775(2)
H1_4 H 0.7691 0.6081 0.9583
C2_4 C 0.7275(2) 0.6430(2) 0.9633(3)
C3_4 C 0.7186(2) 0.6516(2) 0.9165(3)
C4_4 C 0.6953(2) 0.6749(2) 0.9027(3)
C5_4 C 0.6874(2) 0.6829(2) 0.8551(3)
H2_4 H 0.6977 0.6732 0.8293
C6_4 C 0.6627(2) 0.7064(2) 0.8547(3)
H3_4 H 0.6522 0.7159 0.8289
C7_4 C 0.6558(2) 0.7138(2) 0.9012(3)
C8_4 C 0.63143(19) 0.73745(19) 0.9168(3)
C9_4 C 0.62350(18) 0.7464(2) 0.9622(3)
C10_4 C 0.5997(2) 0.7721(2) 0.9770(2)
H4_4 H 0.5867 0.7861 0.9581
C16_6 C 0.5725(3) 0.5315(3) 1.0000
C17_6 C 0.5575(3) 0.5679(3) 1.0000
C18_6 C 0.5222(3) 0.5742(4) 1.0000
C19_6 C 0.5110(3) 0.6085(4) 1.0000
H7_6 H 0.5247 0.6279 1.0000
C20_6 C 0.6078(3) 0.5239(4) 1.0000
H8_6 H 0.6261 0.5390 1.0000
N1_4 N 0.7737(3) 0.5936(3) 0.8120(4)
C21_4 C 0.7804(3) 0.6259(4) 0.8196(4)
H9_4 H 0.7969 0.6363 0.8014
C22_4 C 0.7640(3) 0.6459(3) 0.8538(4)
H10_4 H 0.7704 0.6684 0.8592
C23_4 C 0.7380(3) 0.6303(3) 0.8791(3)
C24_4 C 0.7306(3) 0.5964(3) 0.8722(4)
H11_4 H 0.7144 0.5851 0.8899
C25_4 C 0.7489(4) 0.5796(3) 0.8366(5)
H12_4 H 0.7430 0.5571 0.8300
C26_4 C 0.6062(4) 0.8025(4) 0.8254(4)
H13_4 H 0.6137 0.8235 0.8145
C27_4 C 0.6239(3) 0.7886(3) 0.8631(4)
H14_4 H 0.6419 0.8001 0.8772
C28_4 C 0.6132(2) 0.7577(3) 0.8777(3)
C29_4 C 0.5864(3) 0.7421(3) 0.8566(4)
H15_4 H 0.5786 0.7210 0.8667
C30_4 C 0.5710(4) 0.7588(4) 0.8194(5)
H16_4 H 0.5531 0.7476 0.8046
C38_6 C 0.5820(3) 0.5950(3) 1.0000
N3_6 N 0.7122(2) 0.6563(2) 1.0000
N4_4 N 0.67508(15) 0.69403(15) 0.92944(19)
N5_6 N 0.63697(19) 0.73127(19) 1.0000
N8_6 N 0.5509(2) 0.5030(3) 1.0000
N10_6 N 0.6310(2) 0.6486(2) 1.0000
C89_6 C 0.4761(4) 0.6078(3) 1.0000
C90_6 C 0.4685(3) 0.5725(3) 1.0000
C91_6 C 0.4321(3) 0.5575(3) 1.0000
C92_6 C 0.4258(4) 0.5222(3) 1.0000
C93_6 C 0.3915(4) 0.5110(3) 1.0000
H53_6 H 0.3721 0.5247 1.0000
C94_6 C 0.3922(3) 0.4761(4) 1.0000
C95_6 C 0.4275(3) 0.4685(3) 1.0000
C96_6 C 0.4425(3) 0.4321(3) 1.0000
C97_6 C 0.4778(3) 0.4258(4) 1.0000
C98_6 C 0.4890(3) 0.3915(4) 1.0000
H54_6 H 0.4753 0.3721 1.0000
C99_6 C 0.5239(4) 0.3922(3) 1.0000
C100_6 C 0.5315(3) 0.4275(3) 1.0000
C101_6 C 0.5679(3) 0.4425(3) 1.0000
C102_6 C 0.5742(4) 0.4778(3) 1.0000
C103_6 C 0.6085(4) 0.4890(3) 1.0000
H55_6 H 0.6279 0.4753 1.0000
C104_6 C 0.5950(3) 0.4180(3) 1.0000
N19_6 N 0.6486(2) 0.3690(2) 1.0000
C107_4 C 0.6358(3) 0.3810(3) 0.9628(4)
H57_4 H 0.6450 0.3737 0.9349
C108_4 C 0.6083(3) 0.4049(3) 0.9612(4)
H58_4 H 0.5995 0.4116 0.9328
N20_6 N 0.5030(3) 0.4491(2) 1.0000
H60_6 H 0.5390 0.3739 1.0000
C109_6 C 0.4180(3) 0.4050(3) 1.0000
N21_6 N 0.3690(2) 0.3514(2) 1.0000
C112_4 C 0.3810(3) 0.3642(3) 0.9628(4)
H62_4 H 0.3737 0.3550 0.9349
C113_4 C 0.4049(3) 0.3917(3) 0.9612(4)
H63_4 H 0.4116 0.4005 0.9328
N22_6 N 0.4491(2) 0.4970(3) 1.0000
H65_6 H 0.3739 0.4610 1.0000
C114_6 C 0.4050(3) 0.5820(3) 1.0000
N23_6 N 0.3514(2) 0.6310(2) 1.0000
C117_4 C 0.3642(3) 0.6190(3) 0.9628(4)
H67_4 H 0.3550 0.6263 0.9349
C118_4 C 0.3917(3) 0.5951(3) 0.9612(4)
H68_4 H 0.4005 0.5884 0.9328
N24_6 N 0.4970(3) 0.5509(2) 1.0000
H70_6 H 0.4610 0.6261 1.0000
C119_4 C 0.6190(3) 0.6358(3) 0.9628(4)
H71_4 H 0.6263 0.6450 0.9349
C120_4 C 0.5951(3) 0.6083(3) 0.9612(4)
H72_4 H 0.5884 0.5995 0.9328
Zn4_6 Zn 0.68785(3) 0.33123(3) 1.0000
Zn5_6 Zn 0.33123(3) 0.31215(3) 1.0000
Zn6_6 Zn 0.31215(3) 0.66877(3) 1.0000
C121_4 C 0.6203(2) 0.2454(2) 0.9775(2)
H73_4 H 0.6081 0.2309 0.9583
C122_4 C 0.6430(2) 0.2725(2) 0.9633(3)
C123_4 C 0.6516(2) 0.2814(2) 0.9165(3)
C124_4 C 0.6749(2) 0.3047(2) 0.9027(3)
C125_4 C 0.6829(2) 0.3126(2) 0.8551(3)
H74_4 H 0.6732 0.3023 0.8293
C126_4 C 0.7064(2) 0.3373(2) 0.8547(3)
H75_4 H 0.7159 0.3478 0.8289
C127_4 C 0.7138(2) 0.3442(2) 0.9012(3)
C128_4 C 0.73745(19) 0.36857(19) 0.9168(3)
C129_4 C 0.7464(2) 0.37650(18) 0.9622(3)
C130_4 C 0.7721(2) 0.4003(2) 0.9770(2)
H76_4 H 0.7861 0.4133 0.9581
N25_4 N 0.5936(3) 0.2263(3) 0.8120(4)
C131_4 C 0.6259(4) 0.2196(3) 0.8196(4)
H77_4 H 0.6363 0.2031 0.8014
C132_4 C 0.6459(3) 0.2360(3) 0.8538(4)
H78_4 H 0.6684 0.2296 0.8592
C133_4 C 0.6303(3) 0.2620(3) 0.8791(3)
C134_4 C 0.5964(3) 0.2694(3) 0.8722(4)
H79_4 H 0.5851 0.2856 0.8899
C135_4 C 0.5796(3) 0.2511(4) 0.8366(5)
H80_4 H 0.5571 0.2570 0.8300
C136_4 C 0.8025(4) 0.3938(4) 0.8254(4)
H81_4 H 0.8235 0.3863 0.8145
C137_4 C 0.7886(3) 0.3761(3) 0.8631(4)
H82_4 H 0.8001 0.3581 0.8772
C138_4 C 0.7577(3) 0.3868(2) 0.8777(3)
C139_4 C 0.7421(3) 0.4136(3) 0.8566(4)
H83_4 H 0.7210 0.4214 0.8667
C140_4 C 0.7588(4) 0.4290(4) 0.8194(5)
H84_4 H 0.7476 0.4469 0.8046
N27_6 N 0.6563(2) 0.2878(2) 1.0000
N28_4 N 0.69403(15) 0.32492(15) 0.92944(19)
N29_6 N 0.73127(19) 0.36303(19) 1.0000
C161_4 C 0.2454(2) 0.3797(2) 0.9775(2)
H97_4 H 0.2309 0.3919 0.9583
C162_4 C 0.2725(2) 0.3570(2) 0.9633(3)
C163_4 C 0.2814(2) 0.3484(2) 0.9165(3)
C164_4 C 0.3047(2) 0.3251(2) 0.9027(3)
C165_4 C 0.3126(2) 0.3171(2) 0.8551(3)
H98_4 H 0.3023 0.3268 0.8293
C166_4 C 0.3373(2) 0.2936(2) 0.8547(3)
H99_4 H 0.3478 0.2841 0.8289
C167_4 C 0.3442(2) 0.2862(2) 0.9012(3)
C168_4 C 0.36857(19) 0.26255(19) 0.9168(3)
C169_4 C 0.37650(18) 0.2536(2) 0.9622(3)
C170_4 C 0.4003(2) 0.2279(2) 0.9770(2)
H100_4 H 0.4133 0.2139 0.9581
N33_4 N 0.2263(3) 0.4064(3) 0.8120(4)
C171_4 C 0.2196(3) 0.3741(4) 0.8196(4)
H101_4 H 0.2031 0.3637 0.8014
C172_4 C 0.2360(3) 0.3541(3) 0.8538(4)
H102_4 H 0.2296 0.3316 0.8592
C173_4 C 0.2620(3) 0.3697(3) 0.8791(3)
C174_4 C 0.2694(3) 0.4036(3) 0.8722(4)
H103_4 H 0.2856 0.4149 0.8899
C175_4 C 0.2511(4) 0.4204(3) 0.8366(5)
H104_4 H 0.2570 0.4429 0.8300
C176_4 C 0.3938(4) 0.1975(4) 0.8254(4)
H105_4 H 0.3863 0.1765 0.8145
C177_4 C 0.3761(3) 0.2114(3) 0.8631(4)
H106_4 H 0.3581 0.1999 0.8772
C178_4 C 0.3868(2) 0.2423(3) 0.8777(3)
C179_4 C 0.4136(3) 0.2579(3) 0.8566(4)
H107_4 H 0.4214 0.2790 0.8667
C180_4 C 0.4290(4) 0.2412(4) 0.8194(5)
H108_4 H 0.4469 0.2524 0.8046
N35_6 N 0.2878(2) 0.3437(2) 1.0000
N36_4 N 0.32492(15) 0.30597(15) 0.92944(19)
N37_6 N 0.36303(19) 0.26873(19) 1.0000
C201_4 C 0.3797(2) 0.7546(2) 0.9775(2)
H121_4 H 0.3919 0.7691 0.9583
C202_4 C 0.3570(2) 0.7275(2) 0.9633(3)
C203_4 C 0.3484(2) 0.7186(2) 0.9165(3)
C204_4 C 0.3251(2) 0.6953(2) 0.9027(3)
C205_4 C 0.3171(2) 0.6874(2) 0.8551(3)
H122_4 H 0.3268 0.6977 0.8293
C206_4 C 0.2936(2) 0.6627(2) 0.8547(3)
H123_4 H 0.2841 0.6522 0.8289
C207_4 C 0.2862(2) 0.6558(2) 0.9012(3)
C208_4 C 0.26255(19) 0.63143(19) 0.9168(3)
C209_4 C 0.2536(2) 0.62350(18) 0.9622(3)
C210_4 C 0.2279(2) 0.5997(2) 0.9770(2)
H124_4 H 0.2139 0.5867 0.9581
N41_4 N 0.4064(3) 0.7737(3) 0.8120(4)
C211_4 C 0.3741(4) 0.7804(3) 0.8196(4)
H125_4 H 0.3637 0.7969 0.8014
C212_4 C 0.3541(3) 0.7640(3) 0.8538(4)
H126_4 H 0.3316 0.7704 0.8592
C213_4 C 0.3697(3) 0.7380(3) 0.8791(3)
C214_4 C 0.4036(3) 0.7306(3) 0.8722(4)
H127_4 H 0.4149 0.7144 0.8899
C215_4 C 0.4204(3) 0.7489(4) 0.8366(5)
H128_4 H 0.4429 0.7430 0.8300
C216_4 C 0.1975(4) 0.6062(4) 0.8254(4)
H129_4 H 0.1765 0.6137 0.8145
C217_4 C 0.2114(3) 0.6239(3) 0.8631(4)
H130_4 H 0.1999 0.6419 0.8772
C218_4 C 0.2423(3) 0.6132(2) 0.8777(3)
C219_4 C 0.2579(3) 0.5864(3) 0.8566(4)
H131_4 H 0.2790 0.5786 0.8667
C220_4 C 0.2412(4) 0.5710(4) 0.8194(5)
H132_4 H 0.2524 0.5531 0.8046
N43_6 N 0.3437(2) 0.7122(2) 1.0000
N44_4 N 0.30597(15) 0.67508(15) 0.92944(19)
N45_6 N 0.26873(19) 0.63697(19) 1.0000
C241_5 C 0.5014(2) 0.1552(2) 0.5223(2)
H145_5 H 0.4868 0.1676 0.5413
C242_5 C 0.5289(2) 0.1317(2) 0.5377(3)
C243_5 C 0.5379(2) 0.1253(2) 0.5837(3)
C244_5 C 0.5621(2) 0.1032(2) 0.5975(2)
C245_5 C 0.5746(2) 0.0991(2) 0.6455(3)
H146_5 H 0.5669 0.1112 0.6711
C246_5 C 0.4955(3) 0.1885(3) 0.6648(5)
H147_5 H 0.4947 0.2120 0.6692
C247_5 C 0.5175(2) 0.1752(3) 0.6289(3)
H148_5 H 0.5318 0.1895 0.6121
C248_5 C 0.5165(2) 0.1420(3) 0.6210(3)
C249_5 C 0.4983(3) 0.1232(3) 0.6493(5)
H149_5 H 0.4985 0.0996 0.6459
C250_5 C 0.4789(3) 0.1371(4) 0.6838(4)
H150_5 H 0.4667 0.1223 0.7027
N49_7 N 0.5442(2) 0.1179(2) 0.5000
N50_5 N 0.58077(18) 0.08077(18) 0.5689(3)
C251_5 C 0.5014(2) 0.1552(2) 0.4777(2)
H151_5 H 0.4868 0.1676 0.4587
C252_5 C 0.5289(2) 0.1317(2) 0.4623(3)
C253_5 C 0.5379(2) 0.1253(2) 0.4163(3)
C254_5 C 0.5621(2) 0.1032(2) 0.4025(2)
C255_5 C 0.5746(2) 0.0991(2) 0.3545(3)
C256_5 C 0.5991(2) 0.0746(2) 0.3545(3)
C257_5 C 0.6032(2) 0.0621(2) 0.4025(2)
C258_5 C 0.6253(2) 0.0379(2) 0.4163(3)
C259_5 C 0.6317(2) 0.0289(2) 0.4623(3)
C260_5 C 0.6552(2) 0.0014(2) 0.4777(2)
C261_5 C 0.6552(2) 0.0014(2) 0.5223(2)
C262_5 C 0.6317(2) 0.0289(2) 0.5377(3)
C263_5 C 0.6253(2) 0.0379(2) 0.5837(3)
C264_5 C 0.6032(2) 0.0621(2) 0.5975(2)
C265_5 C 0.5991(2) 0.0746(2) 0.6455(3)
H153_5 H 0.6112 0.0669 0.6711
C266_5 C 0.6420(3) 0.0165(2) 0.6210(3)
C267_5 C 0.6752(3) 0.0175(2) 0.6289(3)
H157_5 H 0.6895 0.0318 0.6121
N53_7 N 0.6179(2) 0.0442(2) 0.5000
C271_5 C 0.6420(3) 0.0165(2) 0.3790(3)
C272_5 C 0.6752(3) 0.0175(2) 0.3711(3)
H162_5 H 0.6895 0.0318 0.3879
N55_5 N 0.58077(18) 0.08077(18) 0.4311(3)
H163_5 H 0.6112 0.0669 0.3289
H164_5 H 0.5669 0.1112 0.3289
C276_5 C 0.5165(2) 0.1420(3) 0.3790(3)
C277_5 C 0.5175(2) 0.1752(3) 0.3711(3)
C278_5 C 0.4955(3) 0.1885(3) 0.3352(5)
H165_5 H 0.4947 0.2120 0.3308
C279_5 C 0.4789(3) 0.1371(4) 0.3162(4)
C280_5 C 0.4983(3) 0.1232(3) 0.3507(5)
H166_5 H 0.4985 0.0996 0.3541
H167_5 H 0.4667 0.1223 0.2973
H168_5 H 0.5318 0.1895 0.3879
Zn7_7 Zn 0.57459(4) 0.07459(4) 0.5000
O2_7 O 0.5367(3) 0.0367(3) 0.5000
H152_5 H 0.6676 0.9868 0.5413
C268_5 C 0.6885(3) 0.9955(3) 0.6648(5)
H154_5 H 0.7120 0.9947 0.6692
C269_5 C 0.6371(4) 0.9789(3) 0.6838(4)
C270_5 C 0.6232(3) 0.9983(3) 0.6493(5)
H155_5 H 0.5996 0.9985 0.6459
H156_5 H 0.6223 0.9667 0.7027
H158_5 H 0.6676 0.9868 0.4587
C273_5 C 0.6885(3) 0.9955(3) 0.3352(5)
H159_5 H 0.7120 0.9947 0.3308
C274_5 C 0.6371(4) 0.9789(3) 0.3162(4)
C275_5 C 0.6232(3) 0.9983(3) 0.3507(5)
H160_5 H 0.5996 0.9985 0.3541
H161_5 H 0.6223 0.9667 0.2973
N69 N 0.3795(3) 0.1205(3) 0.2594(6)
O3 O 0.4099(3) 0.1284(3) 0.2560(4)
O4 O 0.3574(3) 0.1426(3) 0.2546(9)
O5 O 0.3716(3) 0.0901(3) 0.2560(4)
N69_2 N 0.1205(3) 0.3795(3) 0.2406(6)
O3_2 O 0.1284(3) 0.4099(3) 0.2440(4)
O4_2 O 0.1426(3) 0.3574(3) 0.2454(9)
O5_2 O 0.0901(3) 0.3716(3) 0.2440(4)
N69_3 N 0.1205(3) 0.6205(3) 0.2594(6)
O3_3 O 0.1284(3) 0.5901(3) 0.2560(4)
O4_3 O 0.1426(3) 0.6426(3) 0.2546(9)
O5_3 O 0.0901(3) 0.6284(3) 0.2560(4)
N69_4 N 0.8795(3) 0.3795(3) 0.2594(6)
O3_4 O 0.8716(3) 0.4099(3) 0.2560(4)
O4_4 O 0.8574(3) 0.3574(3) 0.2546(9)
O5_4 O 0.9099(3) 0.3716(3) 0.2560(4)
N69_5 N 0.8795(3) 0.6205(3) 0.7594(6)
O3_5 O 0.9099(3) 0.6284(3) 0.7560(4)
O4_5 O 0.8574(3) 0.6426(3) 0.7546(9)
O5_5 O 0.8716(3) 0.5901(3) 0.7560(4)
N69_6 N 0.6205(3) 0.8795(3) 0.7406(6)
O3_6 O 0.6284(3) 0.9099(3) 0.7440(4)
O4_6 O 0.6426(3) 0.8574(3) 0.7454(9)
O5_6 O 0.5901(3) 0.8716(3) 0.7440(4)
N69_7 N 0.6205(3) 0.1205(3) 0.7594(6)
O3_7 O 0.6284(3) 0.0901(3) 0.7560(4)
O4_7 O 0.6426(3) 0.1426(3) 0.7546(9)
O5_7 O 0.5901(3) 0.1284(3) 0.7560(4)
N69_8 N 0.3795(3) 0.8795(3) 0.7594(6)
O3_8 O 0.3716(3) 0.9099(3) 0.7560(4)
O4_8 O 0.3574(3) 0.8574(3) 0.7546(9)
O5_8 O 0.4099(3) 0.8716(3) 0.7560(4)
N69_9 N 0.6205(3) 0.8795(3) 0.2594(6)
O3_9 O 0.5901(3) 0.8716(3) 0.2560(4)
O4_9 O 0.6426(3) 0.8574(3) 0.2546(9)
O5_9 O 0.6284(3) 0.9099(3) 0.2560(4)
N69_10 N 0.3795(3) 0.8795(3) 0.2406(6)
O3_10 O 0.4099(3) 0.8716(3) 0.2440(4)
O4_10 O 0.3574(3) 0.8574(3) 0.2454(9)
O5_10 O 0.3716(3) 0.9099(3) 0.2440(4)
N69_11 N 0.6205(3) 0.1205(3) 0.2406(6)
O3_11 O 0.5901(3) 0.1284(3) 0.2440(4)
O4_11 O 0.6426(3) 0.1426(3) 0.2454(9)
O5_11 O 0.6284(3) 0.0901(3) 0.2440(4)
N69_12 N 0.8795(3) 0.6205(3) 0.2406(6)
O3_12 O 0.8716(3) 0.5901(3) 0.2440(4)
O4_12 O 0.8574(3) 0.6426(3) 0.2454(9)
O5_12 O 0.9099(3) 0.6284(3) 0.2440(4)
N69_13 N 0.1205(3) 0.3795(3) 0.7594(6)
O3_13 O 0.0901(3) 0.3716(3) 0.7560(4)
O4_13 O 0.1426(3) 0.3574(3) 0.7546(9)
O5_13 O 0.1284(3) 0.4099(3) 0.7560(4)
N69_14 N 0.8795(3) 0.3795(3) 0.7406(6)
O3_14 O 0.9099(3) 0.3716(3) 0.7440(4)
O4_14 O 0.8574(3) 0.3574(3) 0.7454(9)
O5_14 O 0.8716(3) 0.4099(3) 0.7440(4)
N69_15 N 0.1205(3) 0.6205(3) 0.7406(6)
O3_15 O 0.0901(3) 0.6284(3) 0.7440(4)
O4_15 O 0.1426(3) 0.6426(3) 0.7454(9)
O5_15 O 0.1284(3) 0.5901(3) 0.7440(4)
N69_16 N 0.3795(3) 0.1205(3) 0.7406(6)
O3_16 O 0.3716(3) 0.0901(3) 0.7440(4)
O4_16 O 0.3574(3) 0.1426(3) 0.7454(9)
O5_16 O 0.4099(3) 0.1284(3) 0.7440(4)
loop_
_geom_bond_atom_site_label_1
_geom_bond_atom_site_label_2
_geom_bond_site_symmetry_1
_geom_bond_site_symmetry_2
Zn1 N8 1_555 1_555
Zn2 N3 1_555 1_555
Ag1 N1 1_555 1_555
C1 H1 1_555 1_555
C2 C1 1_555 1_555
C3 C2 1_555 1_555
C4 C3 1_555 1_555
C5 C4 1_555 1_555
H2 C5 1_555 1_555
C6 C5 1_555 1_555
H3 C6 1_555 1_555
C7 C6 1_555 1_555
C8 C7 1_555 1_555
C9 C8 1_555 1_555
C10 C9 1_555 1_555
H4 C10 1_555 1_555
C16 C17 1_555 1_555
C17 C18 1_555 1_555
C18 C19 1_555 1_555
C19 H7 1_555 1_555
C20 C16 1_555 1_555
H8 C20 1_555 1_555
N1 C21 1_555 1_555
C21 H9 1_555 1_555
C22 C21 1_555 1_555
H10 C22 1_555 1_555
C23 C3 1_555 1_555
C24 C23 1_555 1_555
H11 C24 1_555 1_555
C25 N1 1_555 1_555
H12 C25 1_555 1_555
N2 C26 1_555 1_555
C26 H13 1_555 1_555
C27 C26 1_555 1_555
H14 C27 1_555 1_555
C28 C8 1_555 1_555
C29 C28 1_555 1_555
H15 C29 1_555 1_555
C30 N2 1_555 1_555
H16 C30 1_555 1_555
C31 H17 1_555 1_555
H19 C34 1_555 1_555
C35 C34 1_555 1_555
H20 C35 1_555 1_555
C38 C17 1_555 1_555
N3 C2 1_555 1_555
N4 Zn2 1_555 1_555
N5 Zn2 1_555 1_555
N8 C16 1_555 1_555
N9 Ag1 1_555 1_555
N10 Zn2 1_555 1_555
C119 N10 1_555 1_555
H71 C119 1_555 1_555
C120 C38 1_555 1_555
H72 C120 1_555 1_555
N57 Ag1 1_555 1_555
Ag9 N2 1_555 1_555
C4 N4 1_555 1_555
C7 N4 1_555 1_555
C9 N5 1_555 1_555
C22 C23 1_555 1_555
C24 C25 1_555 1_555
C27 C28 1_555 1_555
C29 C30 1_555 1_555
C31 N9 1_555 1_555
C35 N9 1_555 1_555
C119 C120 1_555 1_555
Zn1_2 N8_2 1_555 1_555
Zn2_2 N3_2 1_555 1_555
C16_2 C17_2 1_555 1_555
C17_2 C18_2 1_555 1_555
C18_2 C19_2 1_555 1_555
C19_2 H7_2 1_555 1_555
C20_2 C16_2 1_555 1_555
H8_2 C20_2 1_555 1_555
C36 H21 1_555 1_555
C37 C36 1_555 1_555
H22 C37 1_555 1_555
C38_2 C17_2 1_555 1_555
N5_2 Zn2_2 1_555 1_555
N8_2 C16_2 1_555 1_555
N10_2 Zn2_2 1_555 1_555
H23 C39 1_555 1_555
C40 N3_2 1_555 1_555
C41 C40 1_555 1_555
C42 C41 1_555 1_555
C43 C42 1_555 1_555
H24 C43 1_555 1_555
C44 C43 1_555 1_555
H25 C44 1_555 1_555
C45 C44 1_555 1_555
C46 C45 1_555 1_555
C47 N5_2 1_555 1_555
H26 C48 1_555 1_555
C49 C46 1_555 1_555
C50 C49 1_555 1_555
C51 C50 1_555 1_555
N11 C51 1_555 1_555
C52 N11 1_555 1_555
C53 C49 1_555 1_555
H27 C53 1_555 1_555
H28 C52 1_555 1_555
H29 C51 1_555 1_555
H30 C50 1_555 1_555
N12 Zn2_2 1_555 1_555
C54 C41 1_555 1_555
C55 C54 1_555 1_555
C56 C55 1_555 1_555
N13 C56 1_555 1_555
C57 N13 1_555 1_555
C58 C54 1_555 1_555
H31 C58 1_555 1_555
H32 C57 1_555 1_555
H33 C56 1_555 1_555
H34 C55 1_555 1_555
H49 C86 1_555 1_555
N18 C86 1_555 1_555
C87 N18 1_555 1_555
H50 C88 1_555 1_555
H51 C87 1_555 1_555
Ag2 N13 1_555 1_555
Ag10 N11 1_555 1_555
N58 Ag2 1_555 1_555
C36 N10_2 1_555 1_555
C37 C38_2 1_555 1_555
C39 C40 1_555 1_555
C42 N12 1_555 1_555
C45 N12 1_555 1_555
C46 C47 1_555 1_555
C47 C48 1_555 1_555
C52 C53 1_555 1_555
C57 C58 1_555 1_555
N18 Ag2 1_555 1_555
C87 C88 1_555 1_555
C90 C89 1_555 1_555
C91 C90 1_555 1_555
C92 C91 1_555 1_555
C93 C92 1_555 1_555
H53 C93 1_555 1_555
C114 C91 1_555 1_555
C117 N23 1_555 1_555
H67 C117 1_555 1_555
C118 C114 1_555 1_555
H68 C118 1_555 1_555
N24 Zn1_3 1_555 1_555
H70 C89 1_555 1_555
Zn6 N23 1_555 1_555
C201 H121 1_555 1_555
C202 C201 1_555 1_555
C203 C202 1_555 1_555
C204 C203 1_555 1_555
C205 C204 1_555 1_555
H122 C205 1_555 1_555
C206 C205 1_555 1_555
H123 C206 1_555 1_555
C207 C206 1_555 1_555
C208 C207 1_555 1_555
C209 C208 1_555 1_555
C210 C209 1_555 1_555
H124 C210 1_555 1_555
N41 C211 1_555 1_555
C211 H125 1_555 1_555
C212 C211 1_555 1_555
H126 C212 1_555 1_555
C213 C203 1_555 1_555
C214 C213 1_555 1_555
H127 C214 1_555 1_555
C215 N41 1_555 1_555
H128 C215 1_555 1_555
N42 C216 1_555 1_555
C216 H129 1_555 1_555
C217 C216 1_555 1_555
H130 C217 1_555 1_555
C218 C208 1_555 1_555
C219 C218 1_555 1_555
H131 C219 1_555 1_555
C220 N42 1_555 1_555
H132 C220 1_555 1_555
N43 Zn6 1_555 1_555
N44 Zn6 1_555 1_555
N45 Zn6 1_555 1_555
Ag7 N41 1_555 1_555
Ag17 N42 1_555 1_555
N65 Ag7 1_555 1_555
N66 Ag7 1_555 1_555
C90 N24 1_555 1_555
C117 C118 1_555 1_555
C202 N43 1_555 1_555
C204 N44 1_555 1_555
C207 N44 1_555 1_555
C209 N45 1_555 1_555
C212 C213 1_555 1_555
C214 C215 1_555 1_555
C217 C218 1_555 1_555
C219 C220 1_555 1_555
C90_2 C89_2 1_555 1_555
C91_2 C90_2 1_555 1_555
C92_2 C91_2 1_555 1_555
C93_2 C92_2 1_555 1_555
H53_2 C93_2 1_555 1_555
C114_2 C91_2 1_555 1_555
C115 C114_2 1_555 1_555
C116 C115 1_555 1_555
H66 C116 1_555 1_555
N23_2 C116 1_555 1_555
H69 C115 1_555 1_555
N24_2 Zn1_4 1_555 1_555
H70_2 C89_2 1_555 1_555
Zn6_2 N23_2 1_555 1_555
N43_2 Zn6_2 1_555 1_555
N45_2 Zn6_2 1_555 1_555
H133 C221 1_555 1_555
C222 N43_2 1_555 1_555
C223 C222 1_555 1_555
C224 C223 1_555 1_555
C225 C224 1_555 1_555
H134 C225 1_555 1_555
C226 C225 1_555 1_555
H135 C226 1_555 1_555
C227 C226 1_555 1_555
C228 C227 1_555 1_555
C229 N45_2 1_555 1_555
H136 C230 1_555 1_555
C231 C228 1_555 1_555
C232 C231 1_555 1_555
C233 C232 1_555 1_555
N46 C233 1_555 1_555
C234 N46 1_555 1_555
C235 C231 1_555 1_555
H137 C235 1_555 1_555
H138 C234 1_555 1_555
H139 C233 1_555 1_555
H140 C232 1_555 1_555
N47 Zn6_2 1_555 1_555
C236 C223 1_555 1_555
C237 C236 1_555 1_555
C238 C237 1_555 1_555
N48 C238 1_555 1_555
C239 N48 1_555 1_555
C240 C236 1_555 1_555
H141 C240 1_555 1_555
H142 C239 1_555 1_555
H143 C238 1_555 1_555
H144 C237 1_555 1_555
Ag8 N48 1_555 1_555
Ag18 N46 1_555 1_555
N67 Ag8 1_555 1_555
N68 Ag8 1_555 1_555
C90_2 N24_2 1_555 1_555
C221 C222 1_555 1_555
C224 N47 1_555 1_555
C227 N47 1_555 1_555
C228 C229 1_555 1_555
C229 C230 1_555 1_555
C234 C235 1_555 1_555
C239 C240 1_555 1_555
Zn3 N6 1_555 1_555
C12 C11 1_555 1_555
C13 C12 1_555 1_555
C14 C13 1_555 1_555
C15 C14 1_555 1_555
H6 C15 1_555 1_555
H18 C32 1_555 1_555
C33 C13 1_555 1_555
N6 C12 1_555 1_555
N7 Zn3 1_555 1_555
O1 Zn3 1_555 1_555
H36 C69 1_555 1_555
C70 C69 1_555 1_555
C71 C70 1_555 1_555
C72 N7 1_555 1_555
C73 C15 1_555 1_555
H37 C73 1_555 1_555
C74 C71 1_555 1_555
C75 C74 1_555 1_555
C76 C75 1_555 1_555
H38 C76 1_555 1_555
N14 C76 1_555 1_555
C77 N14 1_555 1_555
C78 C74 1_555 1_555
H39 C78 1_555 1_555
H40 C77 1_555 1_555
H41 C75 1_555 1_555
N15 Zn3 1_555 1_555
C100 C99 1_555 1_555
C101 C100 1_555 1_555
H55 C103 1_555 1_555
C104 C101 1_555 1_555
C107 N19 1_555 1_555
H57 C107 1_555 1_555
C108 C104 1_555 1_555
H58 C108 1_555 1_555
N20 Zn1_5 1_555 1_555
H60 C99 1_555 1_555
Zn4 N19 1_555 1_555
C121 H73 1_555 1_555
C122 C121 1_555 1_555
C123 C122 1_555 1_555
C124 C123 1_555 1_555
C125 C124 1_555 1_555
H74 C125 1_555 1_555
C126 C125 1_555 1_555
H75 C126 1_555 1_555
C127 C126 1_555 1_555
C128 C127 1_555 1_555
C129 C128 1_555 1_555
C130 C129 1_555 1_555
H76 C130 1_555 1_555
N25 C131 1_555 1_555
C131 H77 1_555 1_555
C132 C131 1_555 1_555
H78 C132 1_555 1_555
C133 C123 1_555 1_555
C134 C133 1_555 1_555
H79 C134 1_555 1_555
C135 N25 1_555 1_555
H80 C135 1_555 1_555
N26 C136 1_555 1_555
C136 H81 1_555 1_555
C137 C136 1_555 1_555
H82 C137 1_555 1_555
C138 C128 1_555 1_555
C139 C138 1_555 1_555
H83 C139 1_555 1_555
C140 N26 1_555 1_555
H84 C140 1_555 1_555
N27 Zn4 1_555 1_555
N28 Zn4 1_555 1_555
N29 Zn4 1_555 1_555
Ag3 N25 1_555 1_555
C246 H147 1_555 1_555
H149 C249 1_555 1_555
C250 C249 1_555 1_555
H150 C250 1_555 1_555
N51 Ag3 1_555 1_555
Ag11 N14 1_555 1_555
Ag13 N26 1_555 1_555
N59 Ag3 1_555 1_555
C14 N7 1_555 1_555
C32 C33 1_555 1_555
C70 N15 1_555 1_555
C71 C72 1_555 1_555
C72 C73 1_555 1_555
C77 C78 1_555 1_555
C100 N20 1_555 1_555
C101 C102 1_555 1_555
C102 C103 1_555 1_555
C107 C108 1_555 1_555
C122 N27 1_555 1_555
C124 N28 1_555 1_555
C127 N28 1_555 1_555
C129 N29 1_555 1_555
C132 C133 1_555 1_555
C134 C135 1_555 1_555
C137 C138 1_555 1_555
C139 C140 1_555 1_555
C246 N51 1_555 1_555
C250 N51 1_555 1_555
Zn3_2 N6_2 1_555 1_555
O1_2 Zn3_2 1_555 1_555
C60 N6_2 1_555 1_555
C61 C60 1_555 1_555
C62 C61 1_555 1_555
C63 C62 1_555 1_555
C64 C63 1_555 1_555
C65 C64 1_555 1_555
C66 C65 1_555 1_555
C67 C66 1_555 1_555
C68 C67 1_555 1_555
N15_2 Zn3_2 1_555 1_555
H42 C68 1_555 1_555
C79 C66 1_555 1_555
C80 C79 1_555 1_555
C81 C80 1_555 1_555
H43 C81 1_555 1_555
N16 C81 1_555 1_555
C82 N16 1_555 1_555
C83 C79 1_555 1_555
H44 C83 1_555 1_555
H45 C82 1_555 1_555
H46 C80 1_555 1_555
N17 Zn3_2 1_555 1_555
H47 C64 1_555 1_555
H48 C63 1_555 1_555
C84 C61 1_555 1_555
C85 C84 1_555 1_555
H52 C85 1_555 1_555
C100_2 C99_2 1_555 1_555
C101_2 C100_2 1_555 1_555
H55_2 C103_2 1_555 1_555
C104_2 C101_2 1_555 1_555
C105 C104_2 1_555 1_555
C106 C105 1_555 1_555
H56 C106 1_555 1_555
N19_2 C106 1_555 1_555
H59 C105 1_555 1_555
N20_2 Zn1_6 1_555 1_555
H60_2 C99_2 1_555 1_555
Zn4_2 N19_2 1_555 1_555
N27_2 Zn4_2 1_555 1_555
N29_2 Zn4_2 1_555 1_555
H85 C141 1_555 1_555
C142 N27_2 1_555 1_555
C143 C142 1_555 1_555
C144 C143 1_555 1_555
C145 C144 1_555 1_555
H86 C145 1_555 1_555
C146 C145 1_555 1_555
H87 C146 1_555 1_555
C147 C146 1_555 1_555
C148 C147 1_555 1_555
C149 N29_2 1_555 1_555
H88 C150 1_555 1_555
C151 C148 1_555 1_555
C152 C151 1_555 1_555
C153 C152 1_555 1_555
N30 C153 1_555 1_555
C154 N30 1_555 1_555
C155 C151 1_555 1_555
H89 C155 1_555 1_555
H90 C154 1_555 1_555
H91 C153 1_555 1_555
H92 C152 1_555 1_555
N31 Zn4_2 1_555 1_555
C156 C143 1_555 1_555
C157 C156 1_555 1_555
C158 C157 1_555 1_555
N32 C158 1_555 1_555
C159 N32 1_555 1_555
C160 C156 1_555 1_555
H93 C160 1_555 1_555
H94 C159 1_555 1_555
H95 C158 1_555 1_555
H96 C157 1_555 1_555
Ag4 N32 1_555 1_555
H165 C278 1_555 1_555
N56 Ag4 1_555 1_555
C279 N56 1_555 1_555
H166 C280 1_555 1_555
H167 C279 1_555 1_555
Ag12 N16 1_555 1_555
Ag14 N30 1_555 1_555
N60 Ag4 1_555 1_555
C59 C60 1_555 1_555
C62 N17 1_555 1_555
C65 N17 1_555 1_555
C67 N15_2 1_555 1_555
C82 C83 1_555 1_555
C100_2 N20_2 1_555 1_555
C101_2 C102_2 1_555 1_555
C102_2 C103_2 1_555 1_555
C141 C142 1_555 1_555
C144 N31 1_555 1_555
C147 N31 1_555 1_555
C148 C149 1_555 1_555
C149 C150 1_555 1_555
C154 C155 1_555 1_555
C159 C160 1_555 1_555
C278 N56 1_555 1_555
C279 C280 1_555 1_555
C95 C94 1_555 1_555
C96 C95 1_555 1_555
C97 C96 1_555 1_555
C98 C97 1_555 1_555
H54 C98 1_555 1_555
C109 C96 1_555 1_555
C112 N21 1_555 1_555
H62 C112 1_555 1_555
C113 C109 1_555 1_555
H63 C113 1_555 1_555
N22 Zn1_7 1_555 1_555
H65 C94 1_555 1_555
Zn5 N21 1_555 1_555
C161 H97 1_555 1_555
C162 C161 1_555 1_555
C163 C162 1_555 1_555
C164 C163 1_555 1_555
C165 C164 1_555 1_555
H98 C165 1_555 1_555
C166 C165 1_555 1_555
H99 C166 1_555 1_555
C167 C166 1_555 1_555
C168 C167 1_555 1_555
C169 C168 1_555 1_555
C170 C169 1_555 1_555
H100 C170 1_555 1_555
N33 C171 1_555 1_555
C171 H101 1_555 1_555
C172 C171 1_555 1_555
H102 C172 1_555 1_555
C173 C163 1_555 1_555
C174 C173 1_555 1_555
H103 C174 1_555 1_555
C175 N33 1_555 1_555
H104 C175 1_555 1_555
N34 C176 1_555 1_555
C176 H105 1_555 1_555
C177 C176 1_555 1_555
H106 C177 1_555 1_555
C178 C168 1_555 1_555
C179 C178 1_555 1_555
H107 C179 1_555 1_555
C180 N34 1_555 1_555
H108 C180 1_555 1_555
N35 Zn5 1_555 1_555
N36 Zn5 1_555 1_555
N37 Zn5 1_555 1_555
Ag5 N33 1_555 1_555
C242 C241 1_555 1_555
C243 C242 1_555 1_555
C244 C243 1_555 1_555
C245 C244 1_555 1_555
H146 C245 1_555 1_555
H148 C247 1_555 1_555
C248 C243 1_555 1_555
N49 C242 1_555 1_555
N50 C244 1_555 1_555
H152 C261 1_555 1_555
C262 C261 1_555 1_555
C263 C262 1_555 1_555
C264 N50 1_555 1_555
C265 C245 1_555 1_555
H153 C265 1_555 1_555
C266 C263 1_555 1_555
C267 C266 1_555 1_555
C268 C267 1_555 1_555
H154 C268 1_555 1_555
N52 C268 1_555 1_555
C269 N52 1_555 1_555
C270 C266 1_555 1_555
H155 C270 1_555 1_555
H156 C269 1_555 1_555
H157 C267 1_555 1_555
Zn7 N49 1_555 1_555
O2 Zn7 1_555 1_555
Ag15 N34 1_555 1_555
N61 Ag5 1_555 1_555
N62 Ag5 1_555 1_555
Ag19 N52 1_555 1_555
C95 N22 1_555 1_555
C112 C113 1_555 1_555
C162 N35 1_555 1_555
C164 N36 1_555 1_555
C167 N36 1_555 1_555
C169 N37 1_555 1_555
C172 C173 1_555 1_555
C174 C175 1_555 1_555
C177 C178 1_555 1_555
C179 C180 1_555 1_555
C247 C248 1_555 1_555
N50 Zn7 1_555 1_555
C262 N53 1_555 1_555
C263 C264 1_555 1_555
C264 C265 1_555 1_555
C269 C270 1_555 1_555
N53 Zn7 1_555 1_555
C95_2 C94_2 1_555 1_555
C96_2 C95_2 1_555 1_555
C97_2 C96_2 1_555 1_555
C98_2 C97_2 1_555 1_555
H54_2 C98_2 1_555 1_555
C109_2 C96_2 1_555 1_555
C110 C109_2 1_555 1_555
C111 C110 1_555 1_555
H61 C111 1_555 1_555
N21_2 C111 1_555 1_555
H64 C110 1_555 1_555
N22_2 Zn1_8 1_555 1_555
H65_2 C94_2 1_555 1_555
Zn5_2 N21_2 1_555 1_555
N35_2 Zn5_2 1_555 1_555
N37_2 Zn5_2 1_555 1_555
H109 C181 1_555 1_555
C182 N35_2 1_555 1_555
C183 C182 1_555 1_555
C184 C183 1_555 1_555
C185 C184 1_555 1_555
H110 C185 1_555 1_555
C186 C185 1_555 1_555
H111 C186 1_555 1_555
C187 C186 1_555 1_555
C188 C187 1_555 1_555
C189 N37_2 1_555 1_555
H112 C190 1_555 1_555
C191 C188 1_555 1_555
C192 C191 1_555 1_555
C193 C192 1_555 1_555
N38 C193 1_555 1_555
C194 N38 1_555 1_555
C195 C191 1_555 1_555
H113 C195 1_555 1_555
H114 C194 1_555 1_555
H115 C193 1_555 1_555
H116 C192 1_555 1_555
N39 Zn5_2 1_555 1_555
C196 C183 1_555 1_555
C197 C196 1_555 1_555
C198 C197 1_555 1_555
N40 C198 1_555 1_555
C199 N40 1_555 1_555
C200 C196 1_555 1_555
H117 C200 1_555 1_555
H118 C199 1_555 1_555
H119 C198 1_555 1_555
H120 C197 1_555 1_555
Ag6 N40 1_555 1_555
C252 N49_2 1_555 1_555
C253 C252 1_555 1_555
C254 C253 1_555 1_555
C255 C254 1_555 1_555
C256 C255 1_555 1_555
C257 C256 1_555 1_555
C258 C257 1_555 1_555
C259 C258 1_555 1_555
C260 C259 1_555 1_555
N53_2 C259 1_555 1_555
H158 C260 1_555 1_555
C271 C258 1_555 1_555
C272 C271 1_555 1_555
C273 C272 1_555 1_555
H159 C273 1_555 1_555
N54 C273 1_555 1_555
C274 N54 1_555 1_555
C275 C271 1_555 1_555
H160 C275 1_555 1_555
H161 C274 1_555 1_555
H162 C272 1_555 1_555
N55 C254 1_555 1_555
H163 C256 1_555 1_555
H164 C255 1_555 1_555
C276 C253 1_555 1_555
C277 C276 1_555 1_555
H168 C277 1_555 1_555
Zn7_2 N49_2 1_555 1_555
O2_2 Zn7_2 1_555 1_555
Ag16 N38 1_555 1_555
N63 Ag6 1_555 1_555
N64 Ag6 1_555 1_555
Ag20 N54 1_555 1_555
C95_2 N22_2 1_555 1_555
C181 C182 1_555 1_555
C184 N39 1_555 1_555
C187 N39 1_555 1_555
C188 C189 1_555 1_555
C189 C190 1_555 1_555
C194 C195 1_555 1_555
C199 C200 1_555 1_555
C251 C252 1_555 1_555
C257 N55 1_555 1_555
N53_2 Zn7_2 1_555 1_555
C274 C275 1_555 1_555
N55 Zn7_2 1_555 1_555
Zn1_9 N8_3 1_555 1_555
Zn2_3 N3_3 1_555 1_555
Ag9 N1_2 1_555 1_555
C1_2 H1_2 1_555 1_555
C2_2 C1_2 1_555 1_555
C3_2 C2_2 1_555 1_555
C4_2 C3_2 1_555 1_555
C5_2 C4_2 1_555 1_555
H2_2 C5_2 1_555 1_555
C6_2 C5_2 1_555 1_555
H3_2 C6_2 1_555 1_555
C7_2 C6_2 1_555 1_555
C8_2 C7_2 1_555 1_555
C9_2 C8_2 1_555 1_555
C10_2 C9_2 1_555 1_555
H4_2 C10_2 1_555 1_555
C16_3 C17_3 1_555 1_555
C17_3 C18_3 1_555 1_555
C18_3 C19_3 1_555 1_555
C19_3 H7_3 1_555 1_555
C20_3 C16_3 1_555 1_555
H8_3 C20_3 1_555 1_555
N1_2 C21_2 1_555 1_555
C21_2 H9_2 1_555 1_555
C22_2 C21_2 1_555 1_555
H10_2 C22_2 1_555 1_555
C23_2 C3_2 1_555 1_555
C24_2 C23_2 1_555 1_555
H11_2 C24_2 1_555 1_555
C25_2 N1_2 1_555 1_555
H12_2 C25_2 1_555 1_555
N57 C26_2 1_555 1_555
C26_2 H13_2 1_555 1_555
C27_2 C26_2 1_555 1_555
H14_2 C27_2 1_555 1_555
C28_2 C8_2 1_555 1_555
C29_2 C28_2 1_555 1_555
H15_2 C29_2 1_555 1_555
C30_2 N57 1_555 1_555
H16_2 C30_2 1_555 1_555
C31_2 H17_2 1_555 1_555
H19_2 C34_2 1_555 1_555
C35_2 C34_2 1_555 1_555
H20_2 C35_2 1_555 1_555
C36_2 H21_2 1_555 1_555
C37_2 C36_2 1_555 1_555
H22_2 C37_2 1_555 1_555
C38_3 C17_3 1_555 1_555
N3_3 C2_2 1_555 1_555
N4_2 Zn2_3 1_555 1_555
N5_3 Zn2_3 1_555 1_555
N8_3 C16_3 1_555 1_555
N9_2 Ag9 1_555 1_555
N10_3 Zn2_3 1_555 1_555
C39_2 C1_2 1_555 1_555
H23_2 C39_2 1_555 1_555
C40_2 N3_3 1_555 1_555
C41_2 C40_2 1_555 1_555
C42_2 C41_2 1_555 1_555
C43_2 C42_2 1_555 1_555
H24_2 C43_2 1_555 1_555
C44_2 C43_2 1_555 1_555
H25_2 C44_2 1_555 1_555
C45_2 C44_2 1_555 1_555
C46_2 C45_2 1_555 1_555
C47_2 N5_3 1_555 1_555
C48_2 C10_2 1_555 1_555
H26_2 C48_2 1_555 1_555
C49_2 C46_2 1_555 1_555
C50_2 C49_2 1_555 1_555
C51_2 C50_2 1_555 1_555
N58 C51_2 1_555 1_555
C52_2 N58 1_555 1_555
C53_2 C49_2 1_555 1_555
H27_2 C53_2 1_555 1_555
H28_2 C52_2 1_555 1_555
H29_2 C51_2 1_555 1_555
H30_2 C50_2 1_555 1_555
N12_2 Zn2_3 1_555 1_555
C54_2 C41_2 1_555 1_555
C55_2 C54_2 1_555 1_555
C56_2 C55_2 1_555 1_555
N13_2 C56_2 1_555 1_555
C57_2 N13_2 1_555 1_555
C58_2 C54_2 1_555 1_555
H31_2 C58_2 1_555 1_555
H32_2 C57_2 1_555 1_555
H33_2 C56_2 1_555 1_555
H34_2 C55_2 1_555 1_555
H49_2 C86_2 1_555 1_555
N18_2 C86_2 1_555 1_555
C87_2 N18_2 1_555 1_555
H50_2 C88_2 1_555 1_555
H51_2 C87_2 1_555 1_555
C119_2 N10_3 1_555 1_555
H71_2 C119_2 1_555 1_555
C120_2 C38_3 1_555 1_555
H72_2 C120_2 1_555 1_555
Ag10 N13_2 1_555 1_555
C4_2 N4_2 1_555 1_555
C7_2 N4_2 1_555 1_555
C9_2 N5_3 1_555 1_555
C22_2 C23_2 1_555 1_555
C24_2 C25_2 1_555 1_555
C27_2 C28_2 1_555 1_555
C29_2 C30_2 1_555 1_555
C31_2 N9_2 1_555 1_555
C35_2 N9_2 1_555 1_555
C36_2 N10_3 1_555 1_555
C37_2 C38_3 1_555 1_555
C39_2 C40_2 1_555 1_555
C42_2 N12_2 1_555 1_555
C45_2 N12_2 1_555 1_555
C46_2 C47_2 1_555 1_555
C47_2 C48_2 1_555 1_555
C52_2 C53_2 1_555 1_555
C57_2 C58_2 1_555 1_555
N18_2 Ag10 1_555 1_555
C87_2 C88_2 1_555 1_555
C119_2 C120_2 1_555 1_555
Zn3_3 N6_3 1_555 1_555
C12_2 C11_2 1_555 1_555
C13_2 C12_2 1_555 1_555
C14_2 C13_2 1_555 1_555
C15_2 C14_2 1_555 1_555
H6_2 C15_2 1_555 1_555
H18_2 C32_2 1_555 1_555
C33_2 C13_2 1_555 1_555
N6_3 C12_2 1_555 1_555
N7_2 Zn3_3 1_555 1_555
O1_3 Zn3_3 1_555 1_555
C59_2 C11_2 1_555 1_555
C60_2 N6_3 1_555 1_555
C61_2 C60_2 1_555 1_555
C62_2 C61_2 1_555 1_555
C63_2 C62_2 1_555 1_555
C64_2 C63_2 1_555 1_555
C65_2 C64_2 1_555 1_555
C66_2 C65_2 1_555 1_555
C67_2 C66_2 1_555 1_555
C68_2 C67_2 1_555 1_555
C69_2 C68_2 1_555 1_555
H36_2 C69_2 1_555 1_555
C70_2 C69_2 1_555 1_555
C71_2 C70_2 1_555 1_555
C72_2 N7_2 1_555 1_555
C73_2 C15_2 1_555 1_555
H37_2 C73_2 1_555 1_555
C74_2 C71_2 1_555 1_555
C75_2 C74_2 1_555 1_555
C76_2 C75_2 1_555 1_555
H38_2 C76_2 1_555 1_555
N14_2 C76_2 1_555 1_555
C77_2 N14_2 1_555 1_555
C78_2 C74_2 1_555 1_555
H39_2 C78_2 1_555 1_555
H40_2 C77_2 1_555 1_555
H41_2 C75_2 1_555 1_555
N15_3 Zn3_3 1_555 1_555
H42_2 C68_2 1_555 1_555
C79_2 C66_2 1_555 1_555
C80_2 C79_2 1_555 1_555
C81_2 C80_2 1_555 1_555
H43_2 C81_2 1_555 1_555
N16_2 C81_2 1_555 1_555
C82_2 N16_2 1_555 1_555
C83_2 C79_2 1_555 1_555
H44_2 C83_2 1_555 1_555
H45_2 C82_2 1_555 1_555
H46_2 C80_2 1_555 1_555
N17_2 Zn3_3 1_555 1_555
H47_2 C64_2 1_555 1_555
H48_2 C63_2 1_555 1_555
C84_2 C61_2 1_555 1_555
C85_2 C84_2 1_555 1_555
H52_2 C85_2 1_555 1_555
C100_3 C99_3 1_555 1_555
C101_3 C100_3 1_555 1_555
H55_3 C103_3 1_555 1_555
C104_3 C101_3 1_555 1_555
C105_2 C104_3 1_555 1_555
C106_2 C105_2 1_555 1_555
H56_2 C106_2 1_555 1_555
N19_3 C106_2 1_555 1_555
C107_2 N19_3 1_555 1_555
H57_2 C107_2 1_555 1_555
C108_2 C104_3 1_555 1_555
H58_2 C108_2 1_555 1_555
H59_2 C105_2 1_555 1_555
N20_3 Zn1_10 1_555 1_555
H60_3 C99_3 1_555 1_555
Zn4_3 N19_3 1_555 1_555
C121_2 H73_2 1_555 1_555
C122_2 C121_2 1_555 1_555
C123_2 C122_2 1_555 1_555
C124_2 C123_2 1_555 1_555
C125_2 C124_2 1_555 1_555
H74_2 C125_2 1_555 1_555
C126_2 C125_2 1_555 1_555
H75_2 C126_2 1_555 1_555
C127_2 C126_2 1_555 1_555
C128_2 C127_2 1_555 1_555
C129_2 C128_2 1_555 1_555
C130_2 C129_2 1_555 1_555
H76_2 C130_2 1_555 1_555
N25_2 C131_2 1_555 1_555
C131_2 H77_2 1_555 1_555
C132_2 C131_2 1_555 1_555
H78_2 C132_2 1_555 1_555
C133_2 C123_2 1_555 1_555
C134_2 C133_2 1_555 1_555
H79_2 C134_2 1_555 1_555
C135_2 N25_2 1_555 1_555
H80_2 C135_2 1_555 1_555
N65 C136_2 1_555 1_555
C136_2 H81_2 1_555 1_555
C137_2 C136_2 1_555 1_555
H82_2 C137_2 1_555 1_555
C138_2 C128_2 1_555 1_555
C139_2 C138_2 1_555 1_555
H83_2 C139_2 1_555 1_555
C140_2 N65 1_555 1_555
H84_2 C140_2 1_555 1_555
N27_3 Zn4_3 1_555 1_555
N28_2 Zn4_3 1_555 1_555
N29_3 Zn4_3 1_555 1_555
C141_2 C121_2 1_555 1_555
H85_2 C141_2 1_555 1_555
C142_2 N27_3 1_555 1_555
C143_2 C142_2 1_555 1_555
C144_2 C143_2 1_555 1_555
C145_2 C144_2 1_555 1_555
H86_2 C145_2 1_555 1_555
C146_2 C145_2 1_555 1_555
H87_2 C146_2 1_555 1_555
C147_2 C146_2 1_555 1_555
C148_2 C147_2 1_555 1_555
C149_2 N29_3 1_555 1_555
C150_2 C130_2 1_555 1_555
H88_2 C150_2 1_555 1_555
C151_2 C148_2 1_555 1_555
C152_2 C151_2 1_555 1_555
C153_2 C152_2 1_555 1_555
N67 C153_2 1_555 1_555
C154_2 N67 1_555 1_555
C155_2 C151_2 1_555 1_555
H89_2 C155_2 1_555 1_555
H90_2 C154_2 1_555 1_555
H91_2 C153_2 1_555 1_555
H92_2 C152_2 1_555 1_555
N31_2 Zn4_3 1_555 1_555
C156_2 C143_2 1_555 1_555
C157_2 C156_2 1_555 1_555
C158_2 C157_2 1_555 1_555
N32_2 C158_2 1_555 1_555
C159_2 N32_2 1_555 1_555
C160_2 C156_2 1_555 1_555
H93_2 C160_2 1_555 1_555
H94_2 C159_2 1_555 1_555
H95_2 C158_2 1_555 1_555
H96_2 C157_2 1_555 1_555
Ag17 N25_2 1_555 1_555
Ag18 N32_2 1_555 1_555
C246_2 H147_2 1_555 1_555
H149_2 C249_2 1_555 1_555
C250_2 C249_2 1_555 1_555
H150_2 C250_2 1_555 1_555
N51_2 Ag17 1_555 1_555
H165_2 C278_2 1_555 1_555
N56_2 Ag18 1_555 1_555
C279_2 N56_2 1_555 1_555
H166_2 C280_2 1_555 1_555
H167_2 C279_2 1_555 1_555
Ag11_2 N14_2 1_555 1_555
Ag12_2 N16_2 1_555 1_555
C14_2 N7_2 1_555 1_555
C32_2 C33_2 1_555 1_555
C59_2 C60_2 1_555 1_555
C62_2 N17_2 1_555 1_555
C65_2 N17_2 1_555 1_555
C67_2 N15_3 1_555 1_555
C70_2 N15_3 1_555 1_555
C71_2 C72_2 1_555 1_555
C72_2 C73_2 1_555 1_555
C77_2 C78_2 1_555 1_555
C82_2 C83_2 1_555 1_555
C100_3 N20_3 1_555 1_555
C101_3 C102_3 1_555 1_555
C102_3 C103_3 1_555 1_555
C107_2 C108_2 1_555 1_555
C122_2 N27_3 1_555 1_555
C124_2 N28_2 1_555 1_555
C127_2 N28_2 1_555 1_555
C129_2 N29_3 1_555 1_555
C132_2 C133_2 1_555 1_555
C134_2 C135_2 1_555 1_555
C137_2 C138_2 1_555 1_555
C139_2 C140_2 1_555 1_555
C141_2 C142_2 1_555 1_555
C144_2 N31_2 1_555 1_555
C147_2 N31_2 1_555 1_555
C148_2 C149_2 1_555 1_555
C149_2 C150_2 1_555 1_555
C154_2 C155_2 1_555 1_555
C159_2 C160_2 1_555 1_555
C246_2 N51_2 1_555 1_555
C250_2 N51_2 1_555 1_555
C278_2 N56_2 1_555 1_555
C279_2 C280_2 1_555 1_555
C90_3 C89_3 1_555 1_555
C91_3 C90_3 1_555 1_555
C92_3 C91_3 1_555 1_555
C93_3 C92_3 1_555 1_555
H53_3 C93_3 1_555 1_555
C114_3 C91_3 1_555 1_555
C115_2 C114_3 1_555 1_555
C116_2 C115_2 1_555 1_555
H66_2 C116_2 1_555 1_555
N23_3 C116_2 1_555 1_555
C117_2 N23_3 1_555 1_555
H67_2 C117_2 1_555 1_555
C118_2 C114_3 1_555 1_555
H68_2 C118_2 1_555 1_555
H69_2 C115_2 1_555 1_555
N24_3 Zn1_11 1_555 1_555
H70_3 C89_3 1_555 1_555
Zn6_3 N23_3 1_555 1_555
C201_2 H121_2 1_555 1_555
C202_2 C201_2 1_555 1_555
C203_2 C202_2 1_555 1_555
C204_2 C203_2 1_555 1_555
C205_2 C204_2 1_555 1_555
H122_2 C205_2 1_555 1_555
C206_2 C205_2 1_555 1_555
H123_2 C206_2 1_555 1_555
C207_2 C206_2 1_555 1_555
C208_2 C207_2 1_555 1_555
C209_2 C208_2 1_555 1_555
C210_2 C209_2 1_555 1_555
H124_2 C210_2 1_555 1_555
N41_2 C211_2 1_555 1_555
C211_2 H125_2 1_555 1_555
C212_2 C211_2 1_555 1_555
H126_2 C212_2 1_555 1_555
C213_2 C203_2 1_555 1_555
C214_2 C213_2 1_555 1_555
H127_2 C214_2 1_555 1_555
C215_2 N41_2 1_555 1_555
H128_2 C215_2 1_555 1_555
N59 C216_2 1_555 1_555
C216_2 H129_2 1_555 1_555
C217_2 C216_2 1_555 1_555
H130_2 C217_2 1_555 1_555
C218_2 C208_2 1_555 1_555
C219_2 C218_2 1_555 1_555
H131_2 C219_2 1_555 1_555
C220_2 N59 1_555 1_555
H132_2 C220_2 1_555 1_555
N43_3 Zn6_3 1_555 1_555
N44_2 Zn6_3 1_555 1_555
N45_3 Zn6_3 1_555 1_555
C221_2 C201_2 1_555 1_555
H133_2 C221_2 1_555 1_555
C222_2 N43_3 1_555 1_555
C223_2 C222_2 1_555 1_555
C224_2 C223_2 1_555 1_555
C225_2 C224_2 1_555 1_555
H134_2 C225_2 1_555 1_555
C226_2 C225_2 1_555 1_555
H135_2 C226_2 1_555 1_555
C227_2 C226_2 1_555 1_555
C228_2 C227_2 1_555 1_555
C229_2 N45_3 1_555 1_555
C230_2 C210_2 1_555 1_555
H136_2 C230_2 1_555 1_555
C231_2 C228_2 1_555 1_555
C232_2 C231_2 1_555 1_555
C233_2 C232_2 1_555 1_555
N60 C233_2 1_555 1_555
C234_2 N60 1_555 1_555
C235_2 C231_2 1_555 1_555
H137_2 C235_2 1_555 1_555
H138_2 C234_2 1_555 1_555
H139_2 C233_2 1_555 1_555
H140_2 C232_2 1_555 1_555
N47_2 Zn6_3 1_555 1_555
C236_2 C223_2 1_555 1_555
C237_2 C236_2 1_555 1_555
C238_2 C237_2 1_555 1_555
N48_2 C238_2 1_555 1_555
C239_2 N48_2 1_555 1_555
C240_2 C236_2 1_555 1_555
H141_2 C240_2 1_555 1_555
H142_2 C239_2 1_555 1_555
H143_2 C238_2 1_555 1_555
H144_2 C237_2 1_555 1_555
Ag13 N41_2 1_555 1_555
Ag14 N48_2 1_555 1_555
N66_2 Ag13 1_555 1_555
N68_2 Ag14 1_555 1_555
C90_3 N24_3 1_555 1_555
C117_2 C118_2 1_555 1_555
C202_2 N43_3 1_555 1_555
C204_2 N44_2 1_555 1_555
C207_2 N44_2 1_555 1_555
C209_2 N45_3 1_555 1_555
C212_2 C213_2 1_555 1_555
C214_2 C215_2 1_555 1_555
C217_2 C218_2 1_555 1_555
C219_2 C220_2 1_555 1_555
C221_2 C222_2 1_555 1_555
C224_2 N47_2 1_555 1_555
C227_2 N47_2 1_555 1_555
C228_2 C229_2 1_555 1_555
C229_2 C230_2 1_555 1_555
C234_2 C235_2 1_555 1_555
C239_2 C240_2 1_555 1_555
C95_3 C94_3 1_555 1_555
C96_3 C95_3 1_555 1_555
C97_3 C96_3 1_555 1_555
C98_3 C97_3 1_555 1_555
H54_3 C98_3 1_555 1_555
C109_3 C96_3 1_555 1_555
C110_2 C109_3 1_555 1_555
C111_2 C110_2 1_555 1_555
H61_2 C111_2 1_555 1_555
N21_3 C111_2 1_555 1_555
C112_2 N21_3 1_555 1_555
H62_2 C112_2 1_555 1_555
C113_2 C109_3 1_555 1_555
H63_2 C113_2 1_555 1_555
H64_2 C110_2 1_555 1_555
N22_3 Zn1_12 1_555 1_555
H65_3 C94_3 1_555 1_555
Zn5_3 N21_3 1_555 1_555
C161_2 H97_2 1_555 1_555
C162_2 C161_2 1_555 1_555
C163_2 C162_2 1_555 1_555
C164_2 C163_2 1_555 1_555
C165_2 C164_2 1_555 1_555
H98_2 C165_2 1_555 1_555
C166_2 C165_2 1_555 1_555
H99_2 C166_2 1_555 1_555
C167_2 C166_2 1_555 1_555
C168_2 C167_2 1_555 1_555
C169_2 C168_2 1_555 1_555
C170_2 C169_2 1_555 1_555
H100_2 C170_2 1_555 1_555
N33_2 C171_2 1_555 1_555
C171_2 H101_2 1_555 1_555
C172_2 C171_2 1_555 1_555
H102_2 C172_2 1_555 1_555
C173_2 C163_2 1_555 1_555
C174_2 C173_2 1_555 1_555
H103_2 C174_2 1_555 1_555
C175_2 N33_2 1_555 1_555
H104_2 C175_2 1_555 1_555
N61 C176_2 1_555 1_555
C176_2 H105_2 1_555 1_555
C177_2 C176_2 1_555 1_555
H106_2 C177_2 1_555 1_555
C178_2 C168_2 1_555 1_555
C179_2 C178_2 1_555 1_555
H107_2 C179_2 1_555 1_555
C180_2 N61 1_555 1_555
H108_2 C180_2 1_555 1_555
N35_3 Zn5_3 1_555 1_555
N36_2 Zn5_3 1_555 1_555
N37_3 Zn5_3 1_555 1_555
C181_2 C161_2 1_555 1_555
H109_2 C181_2 1_555 1_555
C182_2 N35_3 1_555 1_555
C183_2 C182_2 1_555 1_555
C184_2 C183_2 1_555 1_555
C185_2 C184_2 1_555 1_555
H110_2 C185_2 1_555 1_555
C186_2 C185_2 1_555 1_555
H111_2 C186_2 1_555 1_555
C187_2 C186_2 1_555 1_555
C188_2 C187_2 1_555 1_555
C189_2 N37_3 1_555 1_555
C190_2 C170_2 1_555 1_555
H112_2 C190_2 1_555 1_555
C191_2 C188_2 1_555 1_555
C192_2 C191_2 1_555 1_555
C193_2 C192_2 1_555 1_555
N63 C193_2 1_555 1_555
C194_2 N63 1_555 1_555
C195_2 C191_2 1_555 1_555
H113_2 C195_2 1_555 1_555
H114_2 C194_2 1_555 1_555
H115_2 C193_2 1_555 1_555
H116_2 C192_2 1_555 1_555
N39_2 Zn5_3 1_555 1_555
C196_2 C183_2 1_555 1_555
C197_2 C196_2 1_555 1_555
C198_2 C197_2 1_555 1_555
N40_2 C198_2 1_555 1_555
C199_2 N40_2 1_555 1_555
C200_2 C196_2 1_555 1_555
H117_2 C200_2 1_555 1_555
H118_2 C199_2 1_555 1_555
H119_2 C198_2 1_555 1_555
H120_2 C197_2 1_555 1_555
Ag15 N33_2 1_555 1_555
Ag16 N40_2 1_555 1_555
C242_2 C241_2 1_555 1_555
C243_2 C242_2 1_555 1_555
C244_2 C243_2 1_555 1_555
C245_2 C244_2 1_555 1_555
H146_2 C245_2 1_555 1_555
H148_2 C247_2 1_555 1_555
C248_2 C243_2 1_555 1_555
N49_3 C242_2 1_555 1_555
N50_2 C244_2 1_555 1_555
C251_2 C241_2 1_555 1_555
C252_2 N49_3 1_555 1_555
C253_2 C252_2 1_555 1_555
C254_2 C253_2 1_555 1_555
C255_2 C254_2 1_555 1_555
C256_2 C255_2 1_555 1_555
C257_2 C256_2 1_555 1_555
C258_2 C257_2 1_555 1_555
C259_2 C258_2 1_555 1_555
C260_2 C259_2 1_555 1_555
C261_2 C260_2 1_555 1_555
H152_2 C261_2 1_555 1_555
C262_2 C261_2 1_555 1_555
C263_2 C262_2 1_555 1_555
C264_2 N50_2 1_555 1_555
C265_2 C245_2 1_555 1_555
H153_2 C265_2 1_555 1_555
C266_2 C263_2 1_555 1_555
C267_2 C266_2 1_555 1_555
C268_2 C267_2 1_555 1_555
H154_2 C268_2 1_555 1_555
N52_2 C268_2 1_555 1_555
C269_2 N52_2 1_555 1_555
C270_2 C266_2 1_555 1_555
H155_2 C270_2 1_555 1_555
H156_2 C269_2 1_555 1_555
H157_2 C267_2 1_555 1_555
N53_3 C259_2 1_555 1_555
H158_2 C260_2 1_555 1_555
C271_2 C258_2 1_555 1_555
C272_2 C271_2 1_555 1_555
C273_2 C272_2 1_555 1_555
H159_2 C273_2 1_555 1_555
N54_2 C273_2 1_555 1_555
C274_2 N54_2 1_555 1_555
C275_2 C271_2 1_555 1_555
H160_2 C275_2 1_555 1_555
H161_2 C274_2 1_555 1_555
H162_2 C272_2 1_555 1_555
N55_2 C254_2 1_555 1_555
H163_2 C256_2 1_555 1_555
H164_2 C255_2 1_555 1_555
C276_2 C253_2 1_555 1_555
C277_2 C276_2 1_555 1_555
H168_2 C277_2 1_555 1_555
Zn7_3 N49_3 1_555 1_555
O2_3 Zn7_3 1_555 1_555
N62_2 Ag15 1_555 1_555
N64_2 Ag16 1_555 1_555
Ag19_2 N52_2 1_555 1_555
Ag20_2 N54_2 1_555 1_555
C95_3 N22_3 1_555 1_555
C112_2 C113_2 1_555 1_555
C162_2 N35_3 1_555 1_555
C164_2 N36_2 1_555 1_555
C167_2 N36_2 1_555 1_555
C169_2 N37_3 1_555 1_555
C172_2 C173_2 1_555 1_555
C174_2 C175_2 1_555 1_555
C177_2 C178_2 1_555 1_555
C179_2 C180_2 1_555 1_555
C181_2 C182_2 1_555 1_555
C184_2 N39_2 1_555 1_555
C187_2 N39_2 1_555 1_555
C188_2 C189_2 1_555 1_555
C189_2 C190_2 1_555 1_555
C194_2 C195_2 1_555 1_555
C199_2 C200_2 1_555 1_555
C247_2 C248_2 1_555 1_555
N50_2 Zn7_3 1_555 1_555
C251_2 C252_2 1_555 1_555
C257_2 N55_2 1_555 1_555
C262_2 N53_3 1_555 1_555
C263_2 C264_2 1_555 1_555
C264_2 C265_2 1_555 1_555
C269_2 C270_2 1_555 1_555
N53_3 Zn7_3 1_555 1_555
C274_2 C275_2 1_555 1_555
N55_2 Zn7_3 1_555 1_555
Zn3_4 N6_4 1_555 1_555
C12_3 C11_3 1_555 1_555
C13_3 C12_3 1_555 1_555
C14_3 C13_3 1_555 1_555
C15_3 C14_3 1_555 1_555
H6_3 C15_3 1_555 1_555
H18_3 C32_3 1_555 1_555
C33_3 C13_3 1_555 1_555
N6_4 C12_3 1_555 1_555
N7_3 Zn3_4 1_555 1_555
O1_4 Zn3_4 1_555 1_555
H36_3 C69_3 1_555 1_555
C70_3 C69_3 1_555 1_555
C71_3 C70_3 1_555 1_555
C72_3 N7_3 1_555 1_555
C73_3 C15_3 1_555 1_555
H37_3 C73_3 1_555 1_555
C74_3 C71_3 1_555 1_555
C75_3 C74_3 1_555 1_555
C76_3 C75_3 1_555 1_555
H38_3 C76_3 1_555 1_555
N14_3 C76_3 1_555 1_555
C77_3 N14_3 1_555 1_555
C78_3 C74_3 1_555 1_555
H39_3 C78_3 1_555 1_555
H40_3 C77_3 1_555 1_555
H41_3 C75_3 1_555 1_555
N15_4 Zn3_4 1_555 1_555
Ag11_3 N14_3 1_555 1_555
C14_3 N7_3 1_555 1_555
C32_3 C33_3 1_555 1_555
C70_3 N15_4 1_555 1_555
C71_3 C72_3 1_555 1_555
C72_3 C73_3 1_555 1_555
C77_3 C78_3 1_555 1_555
Zn3_5 N6_5 1_555 1_555
O1_5 Zn3_5 1_555 1_555
C60_3 N6_5 1_555 1_555
C61_3 C60_3 1_555 1_555
C62_3 C61_3 1_555 1_555
C63_3 C62_3 1_555 1_555
C64_3 C63_3 1_555 1_555
C65_3 C64_3 1_555 1_555
C66_3 C65_3 1_555 1_555
C67_3 C66_3 1_555 1_555
C68_3 C67_3 1_555 1_555
N15_5 Zn3_5 1_555 1_555
H42_3 C68_3 1_555 1_555
C79_3 C66_3 1_555 1_555
C80_3 C79_3 1_555 1_555
C81_3 C80_3 1_555 1_555
H43_3 C81_3 1_555 1_555
N16_3 C81_3 1_555 1_555
C82_3 N16_3 1_555 1_555
C83_3 C79_3 1_555 1_555
H44_3 C83_3 1_555 1_555
H45_3 C82_3 1_555 1_555
H46_3 C80_3 1_555 1_555
N17_3 Zn3_5 1_555 1_555
H47_3 C64_3 1_555 1_555
H48_3 C63_3 1_555 1_555
C84_3 C61_3 1_555 1_555
C85_3 C84_3 1_555 1_555
H52_3 C85_3 1_555 1_555
Ag12_3 N16_3 1_555 1_555
C59_3 C60_3 1_555 1_555
C62_3 N17_3 1_555 1_555
C65_3 N17_3 1_555 1_555
C67_3 N15_5 1_555 1_555
C82_3 C83_3 1_555 1_555
C31_3 H17_3 1_555 1_555
H19_3 C34_3 1_555 1_555
C35_3 C34_3 1_555 1_555
H20_3 C35_3 1_555 1_555
C31_3 N66 1_555 1_555
C35_3 N66 1_555 1_555
H49_3 C86_3 1_555 1_555
N68 C86_3 1_555 1_555
C87_3 N68 1_555 1_555
H50_3 C88_3 1_555 1_555
H51_3 C87_3 1_555 1_555
C87_3 C88_3 1_555 1_555
C242_3 C241_3 1_555 1_555
C243_3 C242_3 1_555 1_555
C244_3 C243_3 1_555 1_555
C245_3 C244_3 1_555 1_555
H146_3 C245_3 1_555 1_555
H148_3 C247_3 1_555 1_555
C248_3 C243_3 1_555 1_555
N49_4 C242_3 1_555 1_555
N50_3 C244_3 1_555 1_555
H152_3 C261_3 1_555 1_555
C262_3 C261_3 1_555 1_555
C263_3 C262_3 1_555 1_555
C264_3 N50_3 1_555 1_555
C265_3 C245_3 1_555 1_555
H153_3 C265_3 1_555 1_555
C266_3 C263_3 1_555 1_555
C267_3 C266_3 1_555 1_555
C268_3 C267_3 1_555 1_555
H154_3 C268_3 1_555 1_555
N52_3 C268_3 1_555 1_555
C269_3 N52_3 1_555 1_555
C270_3 C266_3 1_555 1_555
H155_3 C270_3 1_555 1_555
H156_3 C269_3 1_555 1_555
H157_3 C267_3 1_555 1_555
Zn7_4 N49_4 1_555 1_555
O2_4 Zn7_4 1_555 1_555
Ag19_3 N52_3 1_555 1_555
C247_3 C248_3 1_555 1_555
N50_3 Zn7_4 1_555 1_555
C262_3 N53_4 1_555 1_555
C263_3 C264_3 1_555 1_555
C264_3 C265_3 1_555 1_555
C269_3 C270_3 1_555 1_555
N53_4 Zn7_4 1_555 1_555
C252_3 N49_5 1_555 1_555
C253_3 C252_3 1_555 1_555
C254_3 C253_3 1_555 1_555
C255_3 C254_3 1_555 1_555
C256_3 C255_3 1_555 1_555
C257_3 C256_3 1_555 1_555
C258_3 C257_3 1_555 1_555
C259_3 C258_3 1_555 1_555
C260_3 C259_3 1_555 1_555
N53_5 C259_3 1_555 1_555
H158_3 C260_3 1_555 1_555
C271_3 C258_3 1_555 1_555
C272_3 C271_3 1_555 1_555
C273_3 C272_3 1_555 1_555
H159_3 C273_3 1_555 1_555
N54_3 C273_3 1_555 1_555
C274_3 N54_3 1_555 1_555
C275_3 C271_3 1_555 1_555
H160_3 C275_3 1_555 1_555
H161_3 C274_3 1_555 1_555
H162_3 C272_3 1_555 1_555
N55_3 C254_3 1_555 1_555
H163_3 C256_3 1_555 1_555
H164_3 C255_3 1_555 1_555
C276_3 C253_3 1_555 1_555
C277_3 C276_3 1_555 1_555
H168_3 C277_3 1_555 1_555
Zn7_5 N49_5 1_555 1_555
O2_5 Zn7_5 1_555 1_555
Ag20_3 N54_3 1_555 1_555
C251_3 C252_3 1_555 1_555
C257_3 N55_3 1_555 1_555
N53_5 Zn7_5 1_555 1_555
C274_3 C275_3 1_555 1_555
N55_3 Zn7_5 1_555 1_555
C246_3 H147_3 1_555 1_555
H149_3 C249_3 1_555 1_555
C250_3 C249_3 1_555 1_555
H150_3 C250_3 1_555 1_555
C246_3 N62 1_555 1_555
C250_3 N62 1_555 1_555
H165_3 C278_3 1_555 1_555
C279_3 N64 1_555 1_555
H166_3 C280_3 1_555 1_555
H167_3 C279_3 1_555 1_555
C278_3 N64 1_555 1_555
C279_3 C280_3 1_555 1_555
Zn1_13 N8_4 1_555 1_555
Zn2_4 N3_4 1_555 1_555
Ag12_2 N1_3 1_555 1_555
C1_3 H1_3 1_555 1_555
C2_3 C1_3 1_555 1_555
C3_3 C2_3 1_555 1_555
C4_3 C3_3 1_555 1_555
C5_3 C4_3 1_555 1_555
H2_3 C5_3 1_555 1_555
C6_3 C5_3 1_555 1_555
H3_3 C6_3 1_555 1_555
C7_3 C6_3 1_555 1_555
C8_3 C7_3 1_555 1_555
C9_3 C8_3 1_555 1_555
C10_3 C9_3 1_555 1_555
H4_3 C10_3 1_555 1_555
C16_4 C17_4 1_555 1_555
C17_4 C18_4 1_555 1_555
C18_4 C19_4 1_555 1_555
C19_4 H7_4 1_555 1_555
C20_4 C16_4 1_555 1_555
H8_4 C20_4 1_555 1_555
N1_3 C21_3 1_555 1_555
C21_3 H9_3 1_555 1_555
C22_3 C21_3 1_555 1_555
H10_3 C22_3 1_555 1_555
C23_3 C3_3 1_555 1_555
C24_3 C23_3 1_555 1_555
H11_3 C24_3 1_555 1_555
C25_3 N1_3 1_555 1_555
H12_3 C25_3 1_555 1_555
N2_2 C26_3 1_555 1_555
C26_3 H13_3 1_555 1_555
C27_3 C26_3 1_555 1_555
H14_3 C27_3 1_555 1_555
C28_3 C8_3 1_555 1_555
C29_3 C28_3 1_555 1_555
H15_3 C29_3 1_555 1_555
C30_3 N2_2 1_555 1_555
H16_3 C30_3 1_555 1_555
C36_3 H21_3 1_555 1_555
C37_3 C36_3 1_555 1_555
H22_3 C37_3 1_555 1_555
C38_4 C17_4 1_555 1_555
N3_4 C2_3 1_555 1_555
N4_3 Zn2_4 1_555 1_555
N5_4 Zn2_4 1_555 1_555
N8_4 C16_4 1_555 1_555
N10_4 Zn2_4 1_555 1_555
C39_3 C1_3 1_555 1_555
H23_3 C39_3 1_555 1_555
C40_3 N3_4 1_555 1_555
C41_3 C40_3 1_555 1_555
C42_3 C41_3 1_555 1_555
C43_3 C42_3 1_555 1_555
H24_3 C43_3 1_555 1_555
C44_3 C43_3 1_555 1_555
H25_3 C44_3 1_555 1_555
C45_3 C44_3 1_555 1_555
C46_3 C45_3 1_555 1_555
C47_3 N5_4 1_555 1_555
C48_3 C10_3 1_555 1_555
H26_3 C48_3 1_555 1_555
C49_3 C46_3 1_555 1_555
C50_3 C49_3 1_555 1_555
C51_3 C50_3 1_555 1_555
N11_2 C51_3 1_555 1_555
C52_3 N11_2 1_555 1_555
C53_3 C49_3 1_555 1_555
H27_3 C53_3 1_555 1_555
H28_3 C52_3 1_555 1_555
H29_3 C51_3 1_555 1_555
H30_3 C50_3 1_555 1_555
N12_3 Zn2_4 1_555 1_555
C54_3 C41_3 1_555 1_555
C55_3 C54_3 1_555 1_555
C56_3 C55_3 1_555 1_555
N13_3 C56_3 1_555 1_555
C57_3 N13_3 1_555 1_555
C58_3 C54_3 1_555 1_555
H31_3 C58_3 1_555 1_555
H32_3 C57_3 1_555 1_555
H33_3 C56_3 1_555 1_555
H34_3 C55_3 1_555 1_555
C89_4 C19_4 1_555 1_555
C90_4 C89_4 1_555 1_555
C91_4 C90_4 1_555 1_555
C92_4 C91_4 1_555 1_555
C93_4 C92_4 1_555 1_555
H53_4 C93_4 1_555 1_555
C94_4 C93_4 1_555 1_555
C95_4 C94_4 1_555 1_555
C96_4 C95_4 1_555 1_555
C97_4 C96_4 1_555 1_555
C98_4 C97_4 1_555 1_555
H54_4 C98_4 1_555 1_555
C99_4 C98_4 1_555 1_555
C100_4 C99_4 1_555 1_555
C101_4 C100_4 1_555 1_555
C102_4 N8_4 1_555 1_555
C103_4 C20_4 1_555 1_555
H55_4 C103_4 1_555 1_555
C104_4 C101_4 1_555 1_555
C105_3 C104_4 1_555 1_555
C106_3 C105_3 1_555 1_555
H56_3 C106_3 1_555 1_555
N19_4 C106_3 1_555 1_555
C107_3 N19_4 1_555 1_555
H57_3 C107_3 1_555 1_555
C108_3 C104_4 1_555 1_555
H58_3 C108_3 1_555 1_555
H59_3 C105_3 1_555 1_555
N20_4 Zn1_13 1_555 1_555
H60_4 C99_4 1_555 1_555
C109_4 C96_4 1_555 1_555
C110_3 C109_4 1_555 1_555
C111_3 C110_3 1_555 1_555
H61_3 C111_3 1_555 1_555
N21_4 C111_3 1_555 1_555
C112_3 N21_4 1_555 1_555
H62_3 C112_3 1_555 1_555
C113_3 C109_4 1_555 1_555
H63_3 C113_3 1_555 1_555
H64_3 C110_3 1_555 1_555
N22_4 Zn1_13 1_555 1_555
H65_4 C94_4 1_555 1_555
C114_4 C91_4 1_555 1_555
C115_3 C114_4 1_555 1_555
C116_3 C115_3 1_555 1_555
H66_3 C116_3 1_555 1_555
N23_4 C116_3 1_555 1_555
C117_3 N23_4 1_555 1_555
H67_3 C117_3 1_555 1_555
C118_3 C114_4 1_555 1_555
H68_3 C118_3 1_555 1_555
H69_3 C115_3 1_555 1_555
N24_4 Zn1_13 1_555 1_555
H70_4 C89_4 1_555 1_555
C119_3 N10_4 1_555 1_555
H71_3 C119_3 1_555 1_555
C120_3 C38_4 1_555 1_555
H72_3 C120_3 1_555 1_555
Zn4_4 N19_4 1_555 1_555
Zn5_4 N21_4 1_555 1_555
Zn6_4 N23_4 1_555 1_555
C121_3 H73_3 1_555 1_555
C122_3 C121_3 1_555 1_555
C123_3 C122_3 1_555 1_555
C124_3 C123_3 1_555 1_555
C125_3 C124_3 1_555 1_555
H74_3 C125_3 1_555 1_555
C126_3 C125_3 1_555 1_555
H75_3 C126_3 1_555 1_555
C127_3 C126_3 1_555 1_555
C128_3 C127_3 1_555 1_555
C129_3 C128_3 1_555 1_555
C130_3 C129_3 1_555 1_555
H76_3 C130_3 1_555 1_555
N25_3 C131_3 1_555 1_555
C131_3 H77_3 1_555 1_555
C132_3 C131_3 1_555 1_555
H78_3 C132_3 1_555 1_555
C133_3 C123_3 1_555 1_555
C134_3 C133_3 1_555 1_555
H79_3 C134_3 1_555 1_555
C135_3 N25_3 1_555 1_555
H80_3 C135_3 1_555 1_555
N26_2 C136_3 1_555 1_555
C136_3 H81_3 1_555 1_555
C137_3 C136_3 1_555 1_555
H82_3 C137_3 1_555 1_555
C138_3 C128_3 1_555 1_555
C139_3 C138_3 1_555 1_555
H83_3 C139_3 1_555 1_555
C140_3 N26_2 1_555 1_555
H84_3 C140_3 1_555 1_555
N27_4 Zn4_4 1_555 1_555
N28_3 Zn4_4 1_555 1_555
N29_4 Zn4_4 1_555 1_555
C141_3 C121_3 1_555 1_555
H85_3 C141_3 1_555 1_555
C142_3 N27_4 1_555 1_555
C143_3 C142_3 1_555 1_555
C144_3 C143_3 1_555 1_555
C145_3 C144_3 1_555 1_555
H86_3 C145_3 1_555 1_555
C146_3 C145_3 1_555 1_555
H87_3 C146_3 1_555 1_555
C147_3 C146_3 1_555 1_555
C148_3 C147_3 1_555 1_555
C149_3 N29_4 1_555 1_555
C150_3 C130_3 1_555 1_555
H88_3 C150_3 1_555 1_555
C151_3 C148_3 1_555 1_555
C152_3 C151_3 1_555 1_555
C153_3 C152_3 1_555 1_555
N30_2 C153_3 1_555 1_555
C154_3 N30_2 1_555 1_555
C155_3 C151_3 1_555 1_555
H89_3 C155_3 1_555 1_555
H90_3 C154_3 1_555 1_555
H91_3 C153_3 1_555 1_555
H92_3 C152_3 1_555 1_555
N31_3 Zn4_4 1_555 1_555
C156_3 C143_3 1_555 1_555
C157_3 C156_3 1_555 1_555
C158_3 C157_3 1_555 1_555
N32_3 C158_3 1_555 1_555
C159_3 N32_3 1_555 1_555
C160_3 C156_3 1_555 1_555
H93_3 C160_3 1_555 1_555
H94_3 C159_3 1_555 1_555
H95_3 C158_3 1_555 1_555
H96_3 C157_3 1_555 1_555
C161_3 H97_3 1_555 1_555
C162_3 C161_3 1_555 1_555
C163_3 C162_3 1_555 1_555
C164_3 C163_3 1_555 1_555
C165_3 C164_3 1_555 1_555
H98_3 C165_3 1_555 1_555
C166_3 C165_3 1_555 1_555
H99_3 C166_3 1_555 1_555
C167_3 C166_3 1_555 1_555
C168_3 C167_3 1_555 1_555
C169_3 C168_3 1_555 1_555
C170_3 C169_3 1_555 1_555
H100_3 C170_3 1_555 1_555
N33_3 C171_3 1_555 1_555
C171_3 H101_3 1_555 1_555
C172_3 C171_3 1_555 1_555
H102_3 C172_3 1_555 1_555
C173_3 C163_3 1_555 1_555
C174_3 C173_3 1_555 1_555
H103_3 C174_3 1_555 1_555
C175_3 N33_3 1_555 1_555
H104_3 C175_3 1_555 1_555
N34_2 C176_3 1_555 1_555
C176_3 H105_3 1_555 1_555
C177_3 C176_3 1_555 1_555
H106_3 C177_3 1_555 1_555
C178_3 C168_3 1_555 1_555
C179_3 C178_3 1_555 1_555
H107_3 C179_3 1_555 1_555
C180_3 N34_2 1_555 1_555
H108_3 C180_3 1_555 1_555
N35_4 Zn5_4 1_555 1_555
N36_3 Zn5_4 1_555 1_555
N37_4 Zn5_4 1_555 1_555
C181_3 C161_3 1_555 1_555
H109_3 C181_3 1_555 1_555
C182_3 N35_4 1_555 1_555
C183_3 C182_3 1_555 1_555
C184_3 C183_3 1_555 1_555
C185_3 C184_3 1_555 1_555
H110_3 C185_3 1_555 1_555
C186_3 C185_3 1_555 1_555
H111_3 C186_3 1_555 1_555
C187_3 C186_3 1_555 1_555
C188_3 C187_3 1_555 1_555
C189_3 N37_4 1_555 1_555
C190_3 C170_3 1_555 1_555
H112_3 C190_3 1_555 1_555
C191_3 C188_3 1_555 1_555
C192_3 C191_3 1_555 1_555
C193_3 C192_3 1_555 1_555
N38_2 C193_3 1_555 1_555
C194_3 N38_2 1_555 1_555
C195_3 C191_3 1_555 1_555
H113_3 C195_3 1_555 1_555
H114_3 C194_3 1_555 1_555
H115_3 C193_3 1_555 1_555
H116_3 C192_3 1_555 1_555
N39_3 Zn5_4 1_555 1_555
C196_3 C183_3 1_555 1_555
C197_3 C196_3 1_555 1_555
C198_3 C197_3 1_555 1_555
N40_3 C198_3 1_555 1_555
C199_3 N40_3 1_555 1_555
C200_3 C196_3 1_555 1_555
H117_3 C200_3 1_555 1_555
H118_3 C199_3 1_555 1_555
H119_3 C198_3 1_555 1_555
H120_3 C197_3 1_555 1_555
C201_3 H121_3 1_555 1_555
C202_3 C201_3 1_555 1_555
C203_3 C202_3 1_555 1_555
C204_3 C203_3 1_555 1_555
C205_3 C204_3 1_555 1_555
H122_3 C205_3 1_555 1_555
C206_3 C205_3 1_555 1_555
H123_3 C206_3 1_555 1_555
C207_3 C206_3 1_555 1_555
C208_3 C207_3 1_555 1_555
C209_3 C208_3 1_555 1_555
C210_3 C209_3 1_555 1_555
H124_3 C210_3 1_555 1_555
N41_3 C211_3 1_555 1_555
C211_3 H125_3 1_555 1_555
C212_3 C211_3 1_555 1_555
H126_3 C212_3 1_555 1_555
C213_3 C203_3 1_555 1_555
C214_3 C213_3 1_555 1_555
H127_3 C214_3 1_555 1_555
C215_3 N41_3 1_555 1_555
H128_3 C215_3 1_555 1_555
N42_2 C216_3 1_555 1_555
C216_3 H129_3 1_555 1_555
C217_3 C216_3 1_555 1_555
H130_3 C217_3 1_555 1_555
C218_3 C208_3 1_555 1_555
C219_3 C218_3 1_555 1_555
H131_3 C219_3 1_555 1_555
C220_3 N42_2 1_555 1_555
H132_3 C220_3 1_555 1_555
N43_4 Zn6_4 1_555 1_555
N44_3 Zn6_4 1_555 1_555
N45_4 Zn6_4 1_555 1_555
C221_3 C201_3 1_555 1_555
H133_3 C221_3 1_555 1_555
C222_3 N43_4 1_555 1_555
C223_3 C222_3 1_555 1_555
C224_3 C223_3 1_555 1_555
C225_3 C224_3 1_555 1_555
H134_3 C225_3 1_555 1_555
C226_3 C225_3 1_555 1_555
H135_3 C226_3 1_555 1_555
C227_3 C226_3 1_555 1_555
C228_3 C227_3 1_555 1_555
C229_3 N45_4 1_555 1_555
C230_3 C210_3 1_555 1_555
H136_3 C230_3 1_555 1_555
C231_3 C228_3 1_555 1_555
C232_3 C231_3 1_555 1_555
C233_3 C232_3 1_555 1_555
N46_2 C233_3 1_555 1_555
C234_3 N46_2 1_555 1_555
C235_3 C231_3 1_555 1_555
H137_3 C235_3 1_555 1_555
H138_3 C234_3 1_555 1_555
H139_3 C233_3 1_555 1_555
H140_3 C232_3 1_555 1_555
N47_3 Zn6_4 1_555 1_555
C236_3 C223_3 1_555 1_555
C237_3 C236_3 1_555 1_555
C238_3 C237_3 1_555 1_555
N48_3 C238_3 1_555 1_555
C239_3 N48_3 1_555 1_555
C240_3 C236_3 1_555 1_555
H141_3 C240_3 1_555 1_555
H142_3 C239_3 1_555 1_555
H143_3 C238_3 1_555 1_555
H144_3 C237_3 1_555 1_555
Ag11_2 N13_3 1_555 1_555
Ag3_2 N25_3 1_555 1_555
Ag4_2 N32_3 1_555 1_555
Ag5_2 N33_3 1_555 1_555
Ag6_2 N40_3 1_555 1_555
Ag20_2 N41_3 1_555 1_555
Ag19_2 N48_3 1_555 1_555
C241_4 H145_4 1_555 1_555
C242_4 C241_4 1_555 1_555
C243_4 C242_4 1_555 1_555
C244_4 C243_4 1_555 1_555
C245_4 C244_4 1_555 1_555
H146_4 C245_4 1_555 1_555
C246_4 H147_4 1_555 1_555
C247_4 C246_4 1_555 1_555
H148_4 C247_4 1_555 1_555
C248_4 C243_4 1_555 1_555
C249_4 C248_4 1_555 1_555
H149_4 C249_4 1_555 1_555
C250_4 C249_4 1_555 1_555
H150_4 C250_4 1_555 1_555
N49_6 C242_4 1_555 1_555
N50_4 C244_4 1_555 1_555
N51_3 Ag3_2 1_555 1_555
C251_4 C241_4 1_555 1_555
H151_4 C251_4 1_555 1_555
C252_4 N49_6 1_555 1_555
C253_4 C252_4 1_555 1_555
C254_4 C253_4 1_555 1_555
C255_4 C254_4 1_555 1_555
C256_4 C255_4 1_555 1_555
C257_4 C256_4 1_555 1_555
C258_4 C257_4 1_555 1_555
C259_4 C258_4 1_555 1_555
C260_4 C259_4 1_555 1_555
C261_4 C260_4 1_555 1_555
C262_4 C261_4 1_555 1_555
C263_4 C262_4 1_555 1_555
C264_4 N50_4 1_555 1_555
C265_4 C245_4 1_555 1_555
H153_4 C265_4 1_555 1_555
C266_4 C263_4 1_555 1_555
C267_4 C266_4 1_555 1_555
H157_4 C267_4 1_555 1_555
N53_6 C259_4 1_555 1_555
C271_4 C258_4 1_555 1_555
C272_4 C271_4 1_555 1_555
H162_4 C272_4 1_555 1_555
N55_4 C254_4 1_555 1_555
H163_4 C256_4 1_555 1_555
H164_4 C255_4 1_555 1_555
C276_4 C253_4 1_555 1_555
C277_4 C276_4 1_555 1_555
C278_4 C277_4 1_555 1_555
H165_4 C278_4 1_555 1_555
N56_3 Ag4_2 1_555 1_555
C279_4 N56_3 1_555 1_555
C280_4 C276_4 1_555 1_555
H166_4 C280_4 1_555 1_555
H167_4 C279_4 1_555 1_555
H168_4 C277_4 1_555 1_555
Zn7_6 N49_6 1_555 1_555
O2_6 Zn7_6 1_555 1_555
N57_2 Ag12_2 1_555 1_555
Ag12 N2_2 1_555 1_555
Ag11 N11_2 1_555 1_555
Ag20 N26_2 1_555 1_555
Ag19 N30_2 1_555 1_555
Ag20_3 N34_2 1_555 1_555
Ag19_3 N38_2 1_555 1_555
Ag12_3 N42_2 1_555 1_555
Ag11_3 N46_2 1_555 1_555
N58_2 Ag11_2 1_555 1_555
N59_2 Ag3_2 1_555 1_555
N60_2 Ag4_2 1_555 1_555
N61_2 Ag5_2 1_555 1_555
N62_3 Ag5_2 1_555 1_555
N63_2 Ag6_2 1_555 1_555
N64_3 Ag6_2 1_555 1_555
N65_2 Ag20_2 1_555 1_555
N67_2 Ag19_2 1_555 1_555
C4_3 N4_3 1_555 1_555
C7_3 N4_3 1_555 1_555
C9_3 N5_4 1_555 1_555
C18_4 N24_4 1_555 1_555
C22_3 C23_3 1_555 1_555
C24_3 C25_3 1_555 1_555
C27_3 C28_3 1_555 1_555
C29_3 C30_3 1_555 1_555
C36_3 N10_4 1_555 1_555
C37_3 C38_4 1_555 1_555
C39_3 C40_3 1_555 1_555
C42_3 N12_3 1_555 1_555
C45_3 N12_3 1_555 1_555
C46_3 C47_3 1_555 1_555
C47_3 C48_3 1_555 1_555
C52_3 C53_3 1_555 1_555
C57_3 C58_3 1_555 1_555
C90_4 N24_4 1_555 1_555
C92_4 N22_4 1_555 1_555
C95_4 N22_4 1_555 1_555
C97_4 N20_4 1_555 1_555
C100_4 N20_4 1_555 1_555
C101_4 C102_4 1_555 1_555
C102_4 C103_4 1_555 1_555
C107_3 C108_3 1_555 1_555
C112_3 C113_3 1_555 1_555
C117_3 C118_3 1_555 1_555
C119_3 C120_3 1_555 1_555
C122_3 N27_4 1_555 1_555
C124_3 N28_3 1_555 1_555
C127_3 N28_3 1_555 1_555
C129_3 N29_4 1_555 1_555
C132_3 C133_3 1_555 1_555
C134_3 C135_3 1_555 1_555
C137_3 C138_3 1_555 1_555
C139_3 C140_3 1_555 1_555
C141_3 C142_3 1_555 1_555
C144_3 N31_3 1_555 1_555
C147_3 N31_3 1_555 1_555
C148_3 C149_3 1_555 1_555
C149_3 C150_3 1_555 1_555
C154_3 C155_3 1_555 1_555
C159_3 C160_3 1_555 1_555
C162_3 N35_4 1_555 1_555
C164_3 N36_3 1_555 1_555
C167_3 N36_3 1_555 1_555
C169_3 N37_4 1_555 1_555
C172_3 C173_3 1_555 1_555
C174_3 C175_3 1_555 1_555
C177_3 C178_3 1_555 1_555
C179_3 C180_3 1_555 1_555
C181_3 C182_3 1_555 1_555
C184_3 N39_3 1_555 1_555
C187_3 N39_3 1_555 1_555
C188_3 C189_3 1_555 1_555
C189_3 C190_3 1_555 1_555
C194_3 C195_3 1_555 1_555
C199_3 C200_3 1_555 1_555
C202_3 N43_4 1_555 1_555
C204_3 N44_3 1_555 1_555
C207_3 N44_3 1_555 1_555
C209_3 N45_4 1_555 1_555
C212_3 C213_3 1_555 1_555
C214_3 C215_3 1_555 1_555
C217_3 C218_3 1_555 1_555
C219_3 C220_3 1_555 1_555
C221_3 C222_3 1_555 1_555
C224_3 N47_3 1_555 1_555
C227_3 N47_3 1_555 1_555
C228_3 C229_3 1_555 1_555
C229_3 C230_3 1_555 1_555
C234_3 C235_3 1_555 1_555
C239_3 C240_3 1_555 1_555
C246_4 N51_3 1_555 1_555
C247_4 C248_4 1_555 1_555
C250_4 N51_3 1_555 1_555
N50_4 Zn7_6 1_555 1_555
C251_4 C252_4 1_555 1_555
C257_4 N55_4 1_555 1_555
C262_4 N53_6 1_555 1_555
C263_4 C264_4 1_555 1_555
C264_4 C265_4 1_555 1_555
N53_6 Zn7_6 1_555 1_555
N55_4 Zn7_6 1_555 1_555
C278_4 N56_3 1_555 1_555
C279_4 C280_4 1_555 1_555
H154_4 C268_4 1_555 1_555
N68_2 C268_4 1_555 1_555
C269_4 N68_2 1_555 1_555
H155_4 C270_4 1_555 1_555
H156_4 C269_4 1_555 1_555
H159_4 C273_4 1_555 1_555
N66_2 C273_4 1_555 1_555
C274_4 N66_2 1_555 1_555
H160_4 C275_4 1_555 1_555
H161_4 C274_4 1_555 1_555
C269_4 C270_4 1_555 1_555
C274_4 C275_4 1_555 1_555
Zn1_14 N8_5 1_555 1_555
Zn2_5 N3_5 1_555 1_555
C16_5 C17_5 1_555 1_555
C17_5 C18_5 1_555 1_555
C18_5 C19_5 1_555 1_555
C19_5 H7_5 1_555 1_555
C20_5 C16_5 1_555 1_555
H8_5 C20_5 1_555 1_555
C36_4 H21_4 1_555 1_555
C37_4 C36_4 1_555 1_555
H22_4 C37_4 1_555 1_555
C38_5 C17_5 1_555 1_555
N5_5 Zn2_5 1_555 1_555
N8_5 C16_5 1_555 1_555
N10_5 Zn2_5 1_555 1_555
H23_4 C39_4 1_555 1_555
C40_4 N3_5 1_555 1_555
C41_4 C40_4 1_555 1_555
C42_4 C41_4 1_555 1_555
C43_4 C42_4 1_555 1_555
H24_4 C43_4 1_555 1_555
C44_4 C43_4 1_555 1_555
H25_4 C44_4 1_555 1_555
C45_4 C44_4 1_555 1_555
C46_4 C45_4 1_555 1_555
C47_4 N5_5 1_555 1_555
H26_4 C48_4 1_555 1_555
C49_4 C46_4 1_555 1_555
C50_4 C49_4 1_555 1_555
C51_4 C50_4 1_555 1_555
N58_2 C51_4 1_555 1_555
C52_4 N58_2 1_555 1_555
C53_4 C49_4 1_555 1_555
H27_4 C53_4 1_555 1_555
H28_4 C52_4 1_555 1_555
H29_4 C51_4 1_555 1_555
H30_4 C50_4 1_555 1_555
N12_4 Zn2_5 1_555 1_555
C54_4 C41_4 1_555 1_555
C55_4 C54_4 1_555 1_555
C56_4 C55_4 1_555 1_555
N13_4 C56_4 1_555 1_555
C57_4 N13_4 1_555 1_555
C58_4 C54_4 1_555 1_555
H31_4 C58_4 1_555 1_555
H32_4 C57_4 1_555 1_555
H33_4 C56_4 1_555 1_555
H34_4 C55_4 1_555 1_555
C89_5 C19_5 1_555 1_555
C90_5 C89_5 1_555 1_555
C91_5 C90_5 1_555 1_555
C92_5 C91_5 1_555 1_555
C93_5 C92_5 1_555 1_555
H53_5 C93_5 1_555 1_555
C94_5 C93_5 1_555 1_555
C95_5 C94_5 1_555 1_555
C96_5 C95_5 1_555 1_555
C97_5 C96_5 1_555 1_555
C98_5 C97_5 1_555 1_555
H54_5 C98_5 1_555 1_555
C99_5 C98_5 1_555 1_555
C100_5 C99_5 1_555 1_555
C101_5 C100_5 1_555 1_555
C102_5 N8_5 1_555 1_555
C103_5 C20_5 1_555 1_555
H55_5 C103_5 1_555 1_555
C104_5 C101_5 1_555 1_555
C105_4 C104_5 1_555 1_555
C106_4 C105_4 1_555 1_555
H56_4 C106_4 1_555 1_555
N19_5 C106_4 1_555 1_555
H59_4 C105_4 1_555 1_555
N20_5 Zn1_14 1_555 1_555
H60_5 C99_5 1_555 1_555
C109_5 C96_5 1_555 1_555
C110_4 C109_5 1_555 1_555
C111_4 C110_4 1_555 1_555
H61_4 C111_4 1_555 1_555
N21_5 C111_4 1_555 1_555
H64_4 C110_4 1_555 1_555
N22_5 Zn1_14 1_555 1_555
H65_5 C94_5 1_555 1_555
C114_5 C91_5 1_555 1_555
C115_4 C114_5 1_555 1_555
C116_4 C115_4 1_555 1_555
H66_4 C116_4 1_555 1_555
N23_5 C116_4 1_555 1_555
H69_4 C115_4 1_555 1_555
N24_5 Zn1_14 1_555 1_555
H70_5 C89_5 1_555 1_555
Zn4_5 N19_5 1_555 1_555
Zn5_5 N21_5 1_555 1_555
Zn6_5 N23_5 1_555 1_555
N27_5 Zn4_5 1_555 1_555
N29_5 Zn4_5 1_555 1_555
H85_4 C141_4 1_555 1_555
C142_4 N27_5 1_555 1_555
C143_4 C142_4 1_555 1_555
C144_4 C143_4 1_555 1_555
C145_4 C144_4 1_555 1_555
H86_4 C145_4 1_555 1_555
C146_4 C145_4 1_555 1_555
H87_4 C146_4 1_555 1_555
C147_4 C146_4 1_555 1_555
C148_4 C147_4 1_555 1_555
C149_4 N29_5 1_555 1_555
H88_4 C150_4 1_555 1_555
C151_4 C148_4 1_555 1_555
C152_4 C151_4 1_555 1_555
C153_4 C152_4 1_555 1_555
N67_2 C153_4 1_555 1_555
C154_4 N67_2 1_555 1_555
C155_4 C151_4 1_555 1_555
H89_4 C155_4 1_555 1_555
H90_4 C154_4 1_555 1_555
H91_4 C153_4 1_555 1_555
H92_4 C152_4 1_555 1_555
N31_4 Zn4_5 1_555 1_555
C156_4 C143_4 1_555 1_555
C157_4 C156_4 1_555 1_555
C158_4 C157_4 1_555 1_555
N32_4 C158_4 1_555 1_555
C159_4 N32_4 1_555 1_555
C160_4 C156_4 1_555 1_555
H93_4 C160_4 1_555 1_555
H94_4 C159_4 1_555 1_555
H95_4 C158_4 1_555 1_555
H96_4 C157_4 1_555 1_555
N35_5 Zn5_5 1_555 1_555
N37_5 Zn5_5 1_555 1_555
H109_4 C181_4 1_555 1_555
C182_4 N35_5 1_555 1_555
C183_4 C182_4 1_555 1_555
C184_4 C183_4 1_555 1_555
C185_4 C184_4 1_555 1_555
H110_4 C185_4 1_555 1_555
C186_4 C185_4 1_555 1_555
H111_4 C186_4 1_555 1_555
C187_4 C186_4 1_555 1_555
C188_4 C187_4 1_555 1_555
C189_4 N37_5 1_555 1_555
H112_4 C190_4 1_555 1_555
C191_4 C188_4 1_555 1_555
C192_4 C191_4 1_555 1_555
C193_4 C192_4 1_555 1_555
N63_2 C193_4 1_555 1_555
C194_4 N63_2 1_555 1_555
C195_4 C191_4 1_555 1_555
H113_4 C195_4 1_555 1_555
H114_4 C194_4 1_555 1_555
H115_4 C193_4 1_555 1_555
H116_4 C192_4 1_555 1_555
N39_4 Zn5_5 1_555 1_555
C196_4 C183_4 1_555 1_555
C197_4 C196_4 1_555 1_555
C198_4 C197_4 1_555 1_555
N40_4 C198_4 1_555 1_555
C199_4 N40_4 1_555 1_555
C200_4 C196_4 1_555 1_555
H117_4 C200_4 1_555 1_555
H118_4 C199_4 1_555 1_555
H119_4 C198_4 1_555 1_555
H120_4 C197_4 1_555 1_555
N43_5 Zn6_5 1_555 1_555
N45_5 Zn6_5 1_555 1_555
H133_4 C221_4 1_555 1_555
C222_4 N43_5 1_555 1_555
C223_4 C222_4 1_555 1_555
C224_4 C223_4 1_555 1_555
C225_4 C224_4 1_555 1_555
H134_4 C225_4 1_555 1_555
C226_4 C225_4 1_555 1_555
H135_4 C226_4 1_555 1_555
C227_4 C226_4 1_555 1_555
C228_4 C227_4 1_555 1_555
C229_4 N45_5 1_555 1_555
H136_4 C230_4 1_555 1_555
C231_4 C228_4 1_555 1_555
C232_4 C231_4 1_555 1_555
C233_4 C232_4 1_555 1_555
N60_2 C233_4 1_555 1_555
C234_4 N60_2 1_555 1_555
C235_4 C231_4 1_555 1_555
H137_4 C235_4 1_555 1_555
H138_4 C234_4 1_555 1_555
H139_4 C233_4 1_555 1_555
H140_4 C232_4 1_555 1_555
N47_4 Zn6_5 1_555 1_555
C236_4 C223_4 1_555 1_555
C237_4 C236_4 1_555 1_555
C238_4 C237_4 1_555 1_555
N48_4 C238_4 1_555 1_555
C239_4 N48_4 1_555 1_555
C240_4 C236_4 1_555 1_555
H141_4 C240_4 1_555 1_555
H142_4 C239_4 1_555 1_555
H143_4 C238_4 1_555 1_555
H144_4 C237_4 1_555 1_555
Ag11 N13_4 1_555 1_555
Ag11_3 N32_4 1_555 1_555
Ag19_3 N40_4 1_555 1_555
Ag19 N48_4 1_555 1_555
C18_5 N24_5 1_555 1_555
C36_4 N10_5 1_555 1_555
C37_4 C38_5 1_555 1_555
C39_4 C40_4 1_555 1_555
C42_4 N12_4 1_555 1_555
C45_4 N12_4 1_555 1_555
C46_4 C47_4 1_555 1_555
C47_4 C48_4 1_555 1_555
C52_4 C53_4 1_555 1_555
C57_4 C58_4 1_555 1_555
C90_5 N24_5 1_555 1_555
C92_5 N22_5 1_555 1_555
C95_5 N22_5 1_555 1_555
C97_5 N20_5 1_555 1_555
C100_5 N20_5 1_555 1_555
C101_5 C102_5 1_555 1_555
C102_5 C103_5 1_555 1_555
C141_4 C142_4 1_555 1_555
C144_4 N31_4 1_555 1_555
C147_4 N31_4 1_555 1_555
C148_4 C149_4 1_555 1_555
C149_4 C150_4 1_555 1_555
C154_4 C155_4 1_555 1_555
C159_4 C160_4 1_555 1_555
C181_4 C182_4 1_555 1_555
C184_4 N39_4 1_555 1_555
C187_4 N39_4 1_555 1_555
C188_4 C189_4 1_555 1_555
C189_4 C190_4 1_555 1_555
C194_4 C195_4 1_555 1_555
C199_4 C200_4 1_555 1_555
C221_4 C222_4 1_555 1_555
C224_4 N47_4 1_555 1_555
C227_4 N47_4 1_555 1_555
C228_4 C229_4 1_555 1_555
C229_4 C230_4 1_555 1_555
C234_4 C235_4 1_555 1_555
C239_4 C240_4 1_555 1_555
Zn1_15 N8_6 1_555 1_555
Zn2_6 N3_6 1_555 1_555
Ag12 N1_4 1_555 1_555
C1_4 H1_4 1_555 1_555
C2_4 C1_4 1_555 1_555
C3_4 C2_4 1_555 1_555
C4_4 C3_4 1_555 1_555
C5_4 C4_4 1_555 1_555
H2_4 C5_4 1_555 1_555
C6_4 C5_4 1_555 1_555
H3_4 C6_4 1_555 1_555
C7_4 C6_4 1_555 1_555
C8_4 C7_4 1_555 1_555
C9_4 C8_4 1_555 1_555
C10_4 C9_4 1_555 1_555
H4_4 C10_4 1_555 1_555
C16_6 C17_6 1_555 1_555
C17_6 C18_6 1_555 1_555
C18_6 C19_6 1_555 1_555
C19_6 H7_6 1_555 1_555
C20_6 C16_6 1_555 1_555
H8_6 C20_6 1_555 1_555
N1_4 C21_4 1_555 1_555
C21_4 H9_4 1_555 1_555
C22_4 C21_4 1_555 1_555
H10_4 C22_4 1_555 1_555
C23_4 C3_4 1_555 1_555
C24_4 C23_4 1_555 1_555
H11_4 C24_4 1_555 1_555
C25_4 N1_4 1_555 1_555
H12_4 C25_4 1_555 1_555
N57_2 C26_4 1_555 1_555
C26_4 H13_4 1_555 1_555
C27_4 C26_4 1_555 1_555
H14_4 C27_4 1_555 1_555
C28_4 C8_4 1_555 1_555
C29_4 C28_4 1_555 1_555
H15_4 C29_4 1_555 1_555
C30_4 N57_2 1_555 1_555
H16_4 C30_4 1_555 1_555
C38_6 C17_6 1_555 1_555
N3_6 C2_4 1_555 1_555
N4_4 Zn2_6 1_555 1_555
N5_6 Zn2_6 1_555 1_555
N8_6 C16_6 1_555 1_555
N10_6 Zn2_6 1_555 1_555
C89_6 C19_6 1_555 1_555
C90_6 C89_6 1_555 1_555
C91_6 C90_6 1_555 1_555
C92_6 C91_6 1_555 1_555
C93_6 C92_6 1_555 1_555
H53_6 C93_6 1_555 1_555
C94_6 C93_6 1_555 1_555
C95_6 C94_6 1_555 1_555
C96_6 C95_6 1_555 1_555
C97_6 C96_6 1_555 1_555
C98_6 C97_6 1_555 1_555
H54_6 C98_6 1_555 1_555
C99_6 C98_6 1_555 1_555
C100_6 C99_6 1_555 1_555
C101_6 C100_6 1_555 1_555
C102_6 N8_6 1_555 1_555
C103_6 C20_6 1_555 1_555
H55_6 C103_6 1_555 1_555
C104_6 C101_6 1_555 1_555
C107_4 N19_6 1_555 1_555
H57_4 C107_4 1_555 1_555
C108_4 C104_6 1_555 1_555
H58_4 C108_4 1_555 1_555
N20_6 Zn1_15 1_555 1_555
H60_6 C99_6 1_555 1_555
C109_6 C96_6 1_555 1_555
C112_4 N21_6 1_555 1_555
H62_4 C112_4 1_555 1_555
C113_4 C109_6 1_555 1_555
H63_4 C113_4 1_555 1_555
N22_6 Zn1_15 1_555 1_555
H65_6 C94_6 1_555 1_555
C114_6 C91_6 1_555 1_555
C117_4 N23_6 1_555 1_555
H67_4 C117_4 1_555 1_555
C118_4 C114_6 1_555 1_555
H68_4 C118_4 1_555 1_555
N24_6 Zn1_15 1_555 1_555
H70_6 C89_6 1_555 1_555
C119_4 N10_6 1_555 1_555
H71_4 C119_4 1_555 1_555
C120_4 C38_6 1_555 1_555
H72_4 C120_4 1_555 1_555
Zn4_6 N19_6 1_555 1_555
Zn5_6 N21_6 1_555 1_555
Zn6_6 N23_6 1_555 1_555
C121_4 H73_4 1_555 1_555
C122_4 C121_4 1_555 1_555
C123_4 C122_4 1_555 1_555
C124_4 C123_4 1_555 1_555
C125_4 C124_4 1_555 1_555
H74_4 C125_4 1_555 1_555
C126_4 C125_4 1_555 1_555
H75_4 C126_4 1_555 1_555
C127_4 C126_4 1_555 1_555
C128_4 C127_4 1_555 1_555
C129_4 C128_4 1_555 1_555
C130_4 C129_4 1_555 1_555
H76_4 C130_4 1_555 1_555
N25_4 C131_4 1_555 1_555
C131_4 H77_4 1_555 1_555
C132_4 C131_4 1_555 1_555
H78_4 C132_4 1_555 1_555
C133_4 C123_4 1_555 1_555
C134_4 C133_4 1_555 1_555
H79_4 C134_4 1_555 1_555
C135_4 N25_4 1_555 1_555
H80_4 C135_4 1_555 1_555
N65_2 C136_4 1_555 1_555
C136_4 H81_4 1_555 1_555
C137_4 C136_4 1_555 1_555
H82_4 C137_4 1_555 1_555
C138_4 C128_4 1_555 1_555
C139_4 C138_4 1_555 1_555
H83_4 C139_4 1_555 1_555
C140_4 N65_2 1_555 1_555
H84_4 C140_4 1_555 1_555
N27_6 Zn4_6 1_555 1_555
N28_4 Zn4_6 1_555 1_555
N29_6 Zn4_6 1_555 1_555
C161_4 H97_4 1_555 1_555
C162_4 C161_4 1_555 1_555
C163_4 C162_4 1_555 1_555
C164_4 C163_4 1_555 1_555
C165_4 C164_4 1_555 1_555
H98_4 C165_4 1_555 1_555
C166_4 C165_4 1_555 1_555
H99_4 C166_4 1_555 1_555
C167_4 C166_4 1_555 1_555
C168_4 C167_4 1_555 1_555
C169_4 C168_4 1_555 1_555
C170_4 C169_4 1_555 1_555
H100_4 C170_4 1_555 1_555
N33_4 C171_4 1_555 1_555
C171_4 H101_4 1_555 1_555
C172_4 C171_4 1_555 1_555
H102_4 C172_4 1_555 1_555
C173_4 C163_4 1_555 1_555
C174_4 C173_4 1_555 1_555
H103_4 C174_4 1_555 1_555
C175_4 N33_4 1_555 1_555
H104_4 C175_4 1_555 1_555
N61_2 C176_4 1_555 1_555
C176_4 H105_4 1_555 1_555
C177_4 C176_4 1_555 1_555
H106_4 C177_4 1_555 1_555
C178_4 C168_4 1_555 1_555
C179_4 C178_4 1_555 1_555
H107_4 C179_4 1_555 1_555
C180_4 N61_2 1_555 1_555
H108_4 C180_4 1_555 1_555
N35_6 Zn5_6 1_555 1_555
N36_4 Zn5_6 1_555 1_555
N37_6 Zn5_6 1_555 1_555
C201_4 H121_4 1_555 1_555
C202_4 C201_4 1_555 1_555
C203_4 C202_4 1_555 1_555
C204_4 C203_4 1_555 1_555
C205_4 C204_4 1_555 1_555
H122_4 C205_4 1_555 1_555
C206_4 C205_4 1_555 1_555
H123_4 C206_4 1_555 1_555
C207_4 C206_4 1_555 1_555
C208_4 C207_4 1_555 1_555
C209_4 C208_4 1_555 1_555
C210_4 C209_4 1_555 1_555
H124_4 C210_4 1_555 1_555
N41_4 C211_4 1_555 1_555
C211_4 H125_4 1_555 1_555
C212_4 C211_4 1_555 1_555
H126_4 C212_4 1_555 1_555
C213_4 C203_4 1_555 1_555
C214_4 C213_4 1_555 1_555
H127_4 C214_4 1_555 1_555
C215_4 N41_4 1_555 1_555
H128_4 C215_4 1_555 1_555
N59_2 C216_4 1_555 1_555
C216_4 H129_4 1_555 1_555
C217_4 C216_4 1_555 1_555
H130_4 C217_4 1_555 1_555
C218_4 C208_4 1_555 1_555
C219_4 C218_4 1_555 1_555
H131_4 C219_4 1_555 1_555
C220_4 N59_2 1_555 1_555
H132_4 C220_4 1_555 1_555
N43_6 Zn6_6 1_555 1_555
N44_4 Zn6_6 1_555 1_555
N45_6 Zn6_6 1_555 1_555
Ag12_3 N25_4 1_555 1_555
Ag20_3 N33_4 1_555 1_555
Ag20 N41_4 1_555 1_555
C4_4 N4_4 1_555 1_555
C7_4 N4_4 1_555 1_555
C9_4 N5_6 1_555 1_555
C18_6 N24_6 1_555 1_555
C22_4 C23_4 1_555 1_555
C24_4 C25_4 1_555 1_555
C27_4 C28_4 1_555 1_555
C29_4 C30_4 1_555 1_555
C90_6 N24_6 1_555 1_555
C92_6 N22_6 1_555 1_555
C95_6 N22_6 1_555 1_555
C97_6 N20_6 1_555 1_555
C100_6 N20_6 1_555 1_555
C101_6 C102_6 1_555 1_555
C102_6 C103_6 1_555 1_555
C107_4 C108_4 1_555 1_555
C112_4 C113_4 1_555 1_555
C117_4 C118_4 1_555 1_555
C119_4 C120_4 1_555 1_555
C122_4 N27_6 1_555 1_555
C124_4 N28_4 1_555 1_555
C127_4 N28_4 1_555 1_555
C129_4 N29_6 1_555 1_555
C132_4 C133_4 1_555 1_555
C134_4 C135_4 1_555 1_555
C137_4 C138_4 1_555 1_555
C139_4 C140_4 1_555 1_555
C162_4 N35_6 1_555 1_555
C164_4 N36_4 1_555 1_555
C167_4 N36_4 1_555 1_555
C169_4 N37_6 1_555 1_555
C172_4 C173_4 1_555 1_555
C174_4 C175_4 1_555 1_555
C177_4 C178_4 1_555 1_555
C179_4 C180_4 1_555 1_555
C202_4 N43_6 1_555 1_555
C204_4 N44_4 1_555 1_555
C207_4 N44_4 1_555 1_555
C209_4 N45_6 1_555 1_555
C212_4 C213_4 1_555 1_555
C214_4 C215_4 1_555 1_555
C217_4 C218_4 1_555 1_555
C219_4 C220_4 1_555 1_555
C241_5 H145_5 1_555 1_555
C242_5 C241_5 1_555 1_555
C243_5 C242_5 1_555 1_555
C244_5 C243_5 1_555 1_555
C245_5 C244_5 1_555 1_555
H146_5 C245_5 1_555 1_555
C246_5 H147_5 1_555 1_555
C247_5 C246_5 1_555 1_555
H148_5 C247_5 1_555 1_555
C248_5 C243_5 1_555 1_555
C249_5 C248_5 1_555 1_555
H149_5 C249_5 1_555 1_555
C250_5 C249_5 1_555 1_555
H150_5 C250_5 1_555 1_555
N49_7 C242_5 1_555 1_555
N50_5 C244_5 1_555 1_555
C251_5 C241_5 1_555 1_555
H151_5 C251_5 1_555 1_555
C252_5 N49_7 1_555 1_555
C253_5 C252_5 1_555 1_555
C254_5 C253_5 1_555 1_555
C255_5 C254_5 1_555 1_555
C256_5 C255_5 1_555 1_555
C257_5 C256_5 1_555 1_555
C258_5 C257_5 1_555 1_555
C259_5 C258_5 1_555 1_555
C260_5 C259_5 1_555 1_555
C261_5 C260_5 1_555 1_555
C262_5 C261_5 1_555 1_555
C263_5 C262_5 1_555 1_555
C264_5 N50_5 1_555 1_555
C265_5 C245_5 1_555 1_555
H153_5 C265_5 1_555 1_555
C266_5 C263_5 1_555 1_555
C267_5 C266_5 1_555 1_555
H157_5 C267_5 1_555 1_555
N53_7 C259_5 1_555 1_555
C271_5 C258_5 1_555 1_555
C272_5 C271_5 1_555 1_555
H162_5 C272_5 1_555 1_555
N55_5 C254_5 1_555 1_555
H163_5 C256_5 1_555 1_555
H164_5 C255_5 1_555 1_555
C276_5 C253_5 1_555 1_555
C277_5 C276_5 1_555 1_555
C278_5 C277_5 1_555 1_555
H165_5 C278_5 1_555 1_555
C279_5 N64_3 1_555 1_555
C280_5 C276_5 1_555 1_555
H166_5 C280_5 1_555 1_555
H167_5 C279_5 1_555 1_555
H168_5 C277_5 1_555 1_555
Zn7_7 N49_7 1_555 1_555
O2_7 Zn7_7 1_555 1_555
C246_5 N62_3 1_555 1_555
C247_5 C248_5 1_555 1_555
C250_5 N62_3 1_555 1_555
N50_5 Zn7_7 1_555 1_555
C251_5 C252_5 1_555 1_555
C257_5 N55_5 1_555 1_555
C262_5 N53_7 1_555 1_555
C263_5 C264_5 1_555 1_555
C264_5 C265_5 1_555 1_555
N53_7 Zn7_7 1_555 1_555
N55_5 Zn7_7 1_555 1_555
C278_5 N64_3 1_555 1_555
C279_5 C280_5 1_555 1_555
H154_5 C268_5 1_555 1_555
N64_2 C268_5 1_555 1_555
C269_5 N64_2 1_555 1_555
H155_5 C270_5 1_555 1_555
H156_5 C269_5 1_555 1_555
H159_5 C273_5 1_555 1_555
N62_2 C273_5 1_555 1_555
C274_5 N62_2 1_555 1_555
H160_5 C275_5 1_555 1_555
H161_5 C274_5 1_555 1_555
C269_5 C270_5 1_555 1_555
C274_5 C275_5 1_555 1_555
N69 O3 1_555 1_555
O4 N69 1_555 1_555
O5 N69 1_555 1_555
N69_2 O3_2 1_555 1_555
O4_2 N69_2 1_555 1_555
O5_2 N69_2 1_555 1_555
N69_3 O3_3 1_555 1_555
O4_3 N69_3 1_555 1_555
O5_3 N69_3 1_555 1_555
N69_4 O3_4 1_555 1_555
O4_4 N69_4 1_555 1_555
O5_4 N69_4 1_555 1_555
N69_5 O3_5 1_555 1_555
O4_5 N69_5 1_555 1_555
O5_5 N69_5 1_555 1_555
N69_6 O3_6 1_555 1_555
O4_6 N69_6 1_555 1_555
O5_6 N69_6 1_555 1_555
N69_7 O3_7 1_555 1_555
O4_7 N69_7 1_555 1_555
O5_7 N69_7 1_555 1_555
N69_8 O3_8 1_555 1_555
O4_8 N69_8 1_555 1_555
O5_8 N69_8 1_555 1_555
N69_9 O3_9 1_555 1_555
O4_9 N69_9 1_555 1_555
O5_9 N69_9 1_555 1_555
N69_10 O3_10 1_555 1_555
O4_10 N69_10 1_555 1_555
O5_10 N69_10 1_555 1_555
N69_11 O3_11 1_555 1_555
O4_11 N69_11 1_555 1_555
O5_11 N69_11 1_555 1_555
N69_12 O3_12 1_555 1_555
O4_12 N69_12 1_555 1_555
O5_12 N69_12 1_555 1_555
N69_13 O3_13 1_555 1_555
O4_13 N69_13 1_555 1_555
O5_13 N69_13 1_555 1_555
N69_14 O3_14 1_555 1_555
O4_14 N69_14 1_555 1_555
O5_14 N69_14 1_555 1_555
N69_15 O3_15 1_555 1_555
O4_15 N69_15 1_555 1_555
O5_15 N69_15 1_555 1_555
N69_16 O3_16 1_555 1_555
O4_16 N69_16 1_555 1_555
O5_16 N69_16 1_555 1_555

#END
