
###############################################################################
#
# This file contains modified crystal structure data generated from the
# MOF subset of the Cambridge Structural Database (CSD) v543 
# hosted by the Cambridge Crystallographic Data Centre (CCDC).
#
# This work is licensed under the Creative Commons
# Attribution-NonCommercial-ShareAlike 4.0 International License.
# To view a copy of this license, visit
# http://creativecommons.org/licenses/by-nc-sa/4.0/
# or send a letter to
# Creative Commons, PO Box 1866, Mountain View, CA 94042, USA.
#
# CIF created using the CSD Python API on 29 September 2022
# The structure has been converted into the P1 space group
# The structure has a 3D framework
# The original CSD entry TUSGOD is in the orthorhombic crystal system
# The framework has been calculated to contain at least 10.0% void space
# The void calculation uses a probe of radius 1.32A, grid spacing 0.4
# The framework is charged, counterions have been retained in the structure
# H atom positions have been added when not included in the experimental data
#
###############################################################################

data_TUSGOD
_chemical_formula_moiety         '(C168 H112 Ag4 N40 O12 4+)n'
_symmetry_cell_setting           triclinic
_symmetry_space_group_name_H-M   'P 1'
_symmetry_Int_Tables_number      1
_space_group_name_Hall           'P 1'
loop_
_symmetry_equiv_pos_site_id
_symmetry_equiv_pos_as_xyz
1 x,y,z
_cell_length_a                   19.861(7)
_cell_length_b                   8.077(3)
_cell_length_c                   38.220(13)
_cell_angle_alpha                90
_cell_angle_beta                 90
_cell_angle_gamma                90
_cell_volume                     6131.15
loop_
_atom_site_label
_atom_site_type_symbol
_atom_site_fract_x
_atom_site_fract_y
_atom_site_fract_z
O2 O 0.4205(11) 0.113(2) 0.7500
Ag3 Ag 0.57239(8) 0.0728(2) 0.7500
Ag2 Ag 0.42761(8) 0.5728(2) 0.7500
N1 N 0.4127(8) 0.962(2) 0.7500
O1 O 0.4624(9) 0.868(3) 0.7500
O3 O 0.3555(9) 0.899(3) 0.7500
C1 C 0.7779(6) 0.3091(14) 0.4736(3)
H1 H 0.8016 0.3514 0.4547
C2 C 0.7059(5) 0.3127(14) 0.4721(3)
H2 H 0.6849 0.3570 0.4525
C3 C 0.6660(7) 0.2500 0.5000
C4 C 0.5958(6) 0.2500 0.5000
C5 C 0.5627(5) 0.3114(13) 0.5286(3)
C6 C 0.5930(6) 0.3950(15) 0.5589(3)
H3 H 0.6382 0.4234 0.5612
C7 C 0.5442(5) 0.4238(14) 0.5828(3)
H4 H 0.5498 0.4733 0.6046
C8 C 0.4810(5) 0.3622(12) 0.5680(3)
C9 C 0.3947(5) 0.6062(15) 0.6698(3)
H5 H 0.3764 0.7081 0.6760
C10 C 0.3965(6) 0.5605(16) 0.6350(3)
H6 H 0.3781 0.6347 0.6190
C11 C 0.4216(5) 0.4227(14) 0.6222(3)
C12 C 0.4501(6) 0.3216(17) 0.6485(4)
H7 H 0.4716 0.2238 0.6422
C13 C 0.4467(6) 0.3630(18) 0.6817(4)
H8 H 0.4647 0.2897 0.6980
C14 C 0.4208(5) 0.3710(13) 0.5857(3)
C15 C 0.3582(5) 0.3300(13) 0.5718(3)
C16 C 0.2952(5) 0.3341(14) 0.5879(3)
H9 H 0.2883 0.3546 0.6116
C17 C 0.2455(6) 0.3045(13) 0.5648(3)
H10 H 0.1996 0.3011 0.5694
C18 C 0.2775(5) 0.2793(12) 0.5318(2)
C19 C 0.2426(7) 0.2500 0.5000
C20 C 0.1334(5) 0.3568(14) 0.4796(3)
H11 H 0.1555 0.4363 0.4663
C21 C 0.0610(5) 0.3491(15) 0.4784(3)
H12 H 0.0379 0.4141 0.4623
C22 C 0.1716(6) 0.2500 0.5000
N2 N 0.4924(4) 0.3012(10) 0.5356(2)
N3 N 0.3448(4) 0.2912(9) 0.5365(2)
N4 N 0.0264(6) 0.2500 0.5000
N5 N 0.8126(6) 0.2500 0.5000
N6 N 0.4181(4) 0.5089(12) 0.6942(2)
C23 C 0.7059(5) 0.1873(14) 0.5279(3)
C24 C 0.7779(6) 0.1909(14) 0.5264(3)
H13 H 0.8016 0.1486 0.5453
H14 H 0.6849 0.1430 0.5475
C25 C 0.2775(5) 0.2207(12) 0.4682(2)
C26 C 0.2455(6) 0.1955(13) 0.4352(3)
C27 C 0.2952(5) 0.1659(14) 0.4121(3)
C28 C 0.3582(5) 0.1700(13) 0.4282(3)
C29 C 0.4208(5) 0.1290(13) 0.4143(3)
C30 C 0.4810(5) 0.1378(12) 0.4320(3)
C31 C 0.5442(5) 0.0762(14) 0.4172(3)
C32 C 0.5930(6) 0.1050(15) 0.4411(3)
C33 C 0.5627(5) 0.1886(13) 0.4714(3)
N7 N 0.4924(4) 0.1988(10) 0.4644(2)
H15 H 0.6382 0.0766 0.4388
H16 H 0.5498 0.0267 0.3954
C34 C 0.4216(5) 0.0773(14) 0.3778(3)
C37 C 0.4467(6) 0.1370(18) 0.3183(4)
C38 C 0.4501(6) 0.1784(17) 0.3515(4)
H18 H 0.4716 0.2762 0.3578
H19 H 0.4647 0.2103 0.3020
N9 N 0.3448(4) 0.2088(9) 0.4635(2)
H21 H 0.2883 0.1454 0.3884
H22 H 0.1996 0.1989 0.4306
C39 C 0.0610(5) 0.1509(15) 0.5216(3)
C40 C 0.1334(5) 0.1432(14) 0.5204(3)
H23 H 0.1555 0.0637 0.5337
H24 H 0.0379 0.0859 0.5377
O4 O 0.5376(9) 0.368(3) 0.7500
N11 N 0.4181(4) 0.5089(12) 0.8058(2)
Ag4 Ag 0.91952(6) 0.2500 0.5000
H25 H 0.456897 0.255851 0.519076
H26 H 0.380098 0.225197 0.482389
C35 C 0.3965(6) 0.9395(16) 0.3650(3)
C36 C 0.3947(5) 0.8938(15) 0.3302(3)
H17 H 0.3764 0.7919 0.3240
N8 N 0.4181(4) 0.9911(12) 0.3058(2)
H20 H 0.3781 0.8653 0.3810
Ag5 Ag 0.42761(8) 0.9272(2) 0.2500
C1_2 C 0.7779(6) 0.3091(14) 0.0264(3)
H1_2 H 0.8016 0.3514 0.0453
C2_2 C 0.7059(5) 0.3127(14) 0.0279(3)
H2_2 H 0.6849 0.3570 0.0475
C3_2 C 0.6660(7) 0.2500 0.0000
C4_2 C 0.5958(6) 0.2500 0.0000
C19_2 C 0.2426(7) 0.2500 0.0000
C20_2 C 0.1334(5) 0.3568(14) 0.0204(3)
H11_2 H 0.1555 0.4363 0.0337
C21_2 C 0.0610(5) 0.3491(15) 0.0216(3)
H12_2 H 0.0379 0.4141 0.0377
C22_2 C 0.1716(6) 0.2500 0.0000
N4_2 N 0.0264(6) 0.2500 0.0000
N5_2 N 0.8126(6) 0.2500 0.0000
C25_2 C 0.2775(5) 0.2207(12) 0.0318(2)
C26_2 C 0.2455(6) 0.1955(13) 0.0648(3)
C27_2 C 0.2952(5) 0.1659(14) 0.0879(3)
C28_2 C 0.3582(5) 0.1700(13) 0.0718(3)
C29_2 C 0.4208(5) 0.1290(13) 0.0857(3)
C30_2 C 0.4810(5) 0.1378(12) 0.0680(3)
C31_2 C 0.5442(5) 0.0762(14) 0.0828(3)
C32_2 C 0.5930(6) 0.1050(15) 0.0589(3)
C33_2 C 0.5627(5) 0.1886(13) 0.0286(3)
N7_2 N 0.4924(4) 0.1988(10) 0.0356(2)
H15_2 H 0.6382 0.0766 0.0612
H16_2 H 0.5498 0.0267 0.1046
C34_2 C 0.4216(5) 0.0773(14) 0.1222(3)
C37_2 C 0.4467(6) 0.1370(18) 0.1817(4)
C38_2 C 0.4501(6) 0.1784(17) 0.1485(4)
H18_2 H 0.4716 0.2762 0.1422
H19_2 H 0.4647 0.2103 0.1980
N9_2 N 0.3448(4) 0.2088(9) 0.0365(2)
H21_2 H 0.2883 0.1454 0.1116
H22_2 H 0.1996 0.1989 0.0694
Ag4_2 Ag 0.91952(6) 0.2500 0.0000
H26_2 H 0.380098 0.225197 0.0176109
C3_3 C 0.6660(7) 0.2500 1.0000
C4_3 C 0.5958(6) 0.2500 1.0000
C5_2 C 0.5627(5) 0.3114(13) 0.9714(3)
C6_2 C 0.5930(6) 0.3950(15) 0.9411(3)
H3_2 H 0.6382 0.4234 0.9388
C7_2 C 0.5442(5) 0.4238(14) 0.9172(3)
H4_2 H 0.5498 0.4733 0.8954
C8_2 C 0.4810(5) 0.3622(12) 0.9320(3)
C9_2 C 0.3947(5) 0.6062(15) 0.8302(3)
H5_2 H 0.3764 0.7081 0.8240
C10_2 C 0.3965(6) 0.5605(16) 0.8650(3)
H6_2 H 0.3781 0.6347 0.8810
C11_2 C 0.4216(5) 0.4227(14) 0.8778(3)
C12_2 C 0.4501(6) 0.3216(17) 0.8515(4)
H7_2 H 0.4716 0.2238 0.8578
C13_2 C 0.4467(6) 0.3630(18) 0.8183(4)
H8_2 H 0.4647 0.2897 0.8020
C14_2 C 0.4208(5) 0.3710(13) 0.9143(3)
C15_2 C 0.3582(5) 0.3300(13) 0.9282(3)
C16_2 C 0.2952(5) 0.3341(14) 0.9121(3)
H9_2 H 0.2883 0.3546 0.8884
C17_2 C 0.2455(6) 0.3045(13) 0.9352(3)
H10_2 H 0.1996 0.3011 0.9306
C18_2 C 0.2775(5) 0.2793(12) 0.9682(2)
C19_3 C 0.2426(7) 0.2500 1.0000
C22_3 C 0.1716(6) 0.2500 1.0000
N2_2 N 0.4924(4) 0.3012(10) 0.9644(2)
N3_2 N 0.3448(4) 0.2912(9) 0.9635(2)
N4_3 N 0.0264(6) 0.2500 1.0000
N5_3 N 0.8126(6) 0.2500 1.0000
C23_2 C 0.7059(5) 0.1873(14) 0.9721(3)
C24_2 C 0.7779(6) 0.1909(14) 0.9736(3)
H13_2 H 0.8016 0.1486 0.9547
H14_2 H 0.6849 0.1430 0.9525
C39_2 C 0.0610(5) 0.1509(15) 0.9784(3)
C40_2 C 0.1334(5) 0.1432(14) 0.9796(3)
H23_2 H 0.1555 0.0637 0.9663
H24_2 H 0.0379 0.0859 0.9623
Ag4_3 Ag 0.91952(6) 0.2500 1.0000
H25_2 H 0.456897 0.255851 0.980924
C35_2 C 0.3965(6) 0.9395(16) 0.1350(3)
C36_2 C 0.3947(5) 0.8938(15) 0.1698(3)
H17_2 H 0.3764 0.7919 0.1760
N8_2 N 0.4181(4) 0.9911(12) 0.1942(2)
H20_2 H 0.3781 0.8653 0.1190
Ag1 Ag 0.08048(6) 0.7500 0.5000
N10 N 0.1874(6) 0.7500 0.5000
N1_2 N 0.5873(8) 0.462(2) 0.7500
O2_2 O 0.5795(11) 0.613(2) 0.7500
O3_2 O 0.6445(9) 0.399(3) 0.7500
C9_3 C 0.6053(5) 0.1062(15) 0.6698(3)
H5_3 H 0.6236 0.2081 0.6760
C10_3 C 0.6035(6) 0.0605(16) 0.6350(3)
H6_3 H 0.6219 0.1347 0.6190
N6_2 N 0.5819(4) 0.0089(12) 0.6942(2)
N11_2 N 0.5819(4) 0.0089(12) 0.8058(2)
C1_3 C 0.2221(6) 0.8091(14) 0.4736(3)
H1_3 H 0.1984 0.8514 0.4547
C2_3 C 0.2941(5) 0.8127(14) 0.4721(3)
H2_3 H 0.3151 0.8570 0.4525
C3_4 C 0.3340(7) 0.7500 0.5000
C4_4 C 0.4042(6) 0.7500 0.5000
C5_3 C 0.4373(5) 0.8114(13) 0.5286(3)
C6_3 C 0.4070(6) 0.8950(15) 0.5589(3)
H3_3 H 0.3618 0.9234 0.5612
C7_3 C 0.4558(5) 0.9238(14) 0.5828(3)
H4_3 H 0.4502 0.9733 0.6046
C8_3 C 0.5190(5) 0.8622(12) 0.5680(3)
C11_3 C 0.5784(5) 0.9227(14) 0.6222(3)
C12_3 C 0.5499(6) 0.8216(17) 0.6485(4)
H7_3 H 0.5284 0.7238 0.6422
C13_3 C 0.5533(6) 0.8630(18) 0.6817(4)
H8_3 H 0.5353 0.7897 0.6980
C14_3 C 0.5792(5) 0.8710(13) 0.5857(3)
C15_3 C 0.6418(5) 0.8300(13) 0.5718(3)
C16_3 C 0.7048(5) 0.8341(14) 0.5879(3)
H9_3 H 0.7117 0.8546 0.6116
C17_3 C 0.7545(6) 0.8045(13) 0.5648(3)
H10_3 H 0.8004 0.8011 0.5694
C18_3 C 0.7225(5) 0.7793(12) 0.5318(2)
C19_4 C 0.7574(7) 0.7500 0.5000
C20_3 C 0.8666(5) 0.8568(14) 0.4796(3)
H11_3 H 0.8445 0.9363 0.4663
C21_3 C 0.9390(5) 0.8491(15) 0.4784(3)
H12_3 H 0.9621 0.9141 0.4623
C22_4 C 0.8284(6) 0.7500 0.5000
N2_3 N 0.5076(4) 0.8012(10) 0.5356(2)
N3_3 N 0.6552(4) 0.7912(9) 0.5365(2)
N4_4 N 0.9736(6) 0.7500 0.5000
C23_3 C 0.2941(5) 0.6873(14) 0.5279(3)
C24_3 C 0.2221(6) 0.6909(14) 0.5264(3)
H13_3 H 0.1984 0.6486 0.5453
H14_3 H 0.3151 0.6430 0.5475
C25_3 C 0.7225(5) 0.7207(12) 0.4682(2)
C26_3 C 0.7545(6) 0.6955(13) 0.4352(3)
C27_3 C 0.7048(5) 0.6659(14) 0.4121(3)
C28_3 C 0.6418(5) 0.6700(13) 0.4282(3)
C29_3 C 0.5792(5) 0.6290(13) 0.4143(3)
C30_3 C 0.5190(5) 0.6378(12) 0.4320(3)
C31_3 C 0.4558(5) 0.5762(14) 0.4172(3)
C32_3 C 0.4070(6) 0.6050(15) 0.4411(3)
C33_3 C 0.4373(5) 0.6886(13) 0.4714(3)
N7_3 N 0.5076(4) 0.6988(10) 0.4644(2)
H15_3 H 0.3618 0.5766 0.4388
H16_3 H 0.4502 0.5267 0.3954
C34_3 C 0.5784(5) 0.5773(14) 0.3778(3)
C35_3 C 0.6035(6) 0.4395(16) 0.3650(3)
C36_3 C 0.6053(5) 0.3938(15) 0.3302(3)
H17_3 H 0.6236 0.2919 0.3240
N8_3 N 0.5819(4) 0.4911(12) 0.3058(2)
C37_3 C 0.5533(6) 0.6370(18) 0.3183(4)
C38_3 C 0.5499(6) 0.6784(17) 0.3515(4)
H18_3 H 0.5284 0.7762 0.3578
H19_3 H 0.5353 0.7103 0.3020
H20_3 H 0.6219 0.3653 0.3810
N9_3 N 0.6552(4) 0.7088(9) 0.4635(2)
H21_3 H 0.7117 0.6454 0.3884
H22_3 H 0.8004 0.6989 0.4306
C39_3 C 0.9390(5) 0.6509(15) 0.5216(3)
C40_3 C 0.8666(5) 0.6432(14) 0.5204(3)
H23_3 H 0.8445 0.5637 0.5337
H24_3 H 0.9621 0.5859 0.5377
Ag5_2 Ag 0.57239(8) 0.4272(2) 0.2500
H25_3 H 0.543103 0.755851 0.519076
H26_3 H 0.619902 0.725197 0.482389
O4_2 O 0.5376(9) 0.132(3) 0.2500
H25_4 H 0.456897 0.244149 0.0190761
H26_4 H 0.380098 0.274803 0.982389
N1_3 N 0.4127(8) 0.538(2) 0.2500
O1_2 O 0.4624(9) 0.632(3) 0.2500
O2_3 O 0.4205(11) 0.387(2) 0.2500
O3_3 O 0.3555(9) 0.601(3) 0.2500
N1_4 N 0.5873(8) 0.038(2) 0.2500
O3_4 O 0.6445(9) 0.101(3) 0.2500
N11_3 N 0.5819(4) 0.4911(12) 0.1942(2)
H25_5 H 0.543103 0.744149 0.480924
H26_5 H 0.619902 0.774803 0.517611
O2_4 O 0.5795(11) 0.887(2) 0.2500
Ag1_2 Ag 0.08048(6) 0.7500 -0.0000
N10_2 N 0.1874(6) 0.7500 -0.0000
Ag1_3 Ag 0.08048(6) 0.7500 1.0000
N10_3 N 0.1874(6) 0.7500 1.0000
C35_4 C 0.6035(6) 0.0605(16) 0.8650(3)
C36_4 C 0.6053(5) 0.1062(15) 0.8302(3)
H17_4 H 0.6236 0.2081 0.8240
H20_4 H 0.6219 0.1347 0.8810
C3_5 C 0.3340(7) 0.7500 -0.0000
C4_5 C 0.4042(6) 0.7500 -0.0000
C5_4 C 0.4373(5) 0.6886(13) 0.0286(3)
C6_4 C 0.4070(6) 0.6050(15) 0.0589(3)
H3_4 H 0.3618 0.5766 0.0612
C7_4 C 0.4558(5) 0.5762(14) 0.0828(3)
H4_4 H 0.4502 0.5267 0.1046
C8_4 C 0.5190(5) 0.6378(12) 0.0680(3)
C9_4 C 0.6053(5) 0.3938(15) 0.1698(3)
H5_4 H 0.6236 0.2919 0.1760
C10_4 C 0.6035(6) 0.4395(16) 0.1350(3)
H6_4 H 0.6219 0.3653 0.1190
C11_4 C 0.5784(5) 0.5773(14) 0.1222(3)
C12_4 C 0.5499(6) 0.6784(17) 0.1485(4)
H7_4 H 0.5284 0.7762 0.1422
C13_4 C 0.5533(6) 0.6370(18) 0.1817(4)
H8_4 H 0.5353 0.7103 0.1980
C14_4 C 0.5792(5) 0.6290(13) 0.0857(3)
C15_4 C 0.6418(5) 0.6700(13) 0.0718(3)
C16_4 C 0.7048(5) 0.6659(14) 0.0879(3)
H9_4 H 0.7117 0.6454 0.1116
C17_4 C 0.7545(6) 0.6955(13) 0.0648(3)
H10_4 H 0.8004 0.6989 0.0694
C18_4 C 0.7225(5) 0.7207(12) 0.0318(2)
C19_5 C 0.7574(7) 0.7500 -0.0000
C22_5 C 0.8284(6) 0.7500 -0.0000
N2_4 N 0.5076(4) 0.6988(10) 0.0356(2)
N3_4 N 0.6552(4) 0.7088(9) 0.0365(2)
N4_5 N 0.9736(6) 0.7500 -0.0000
C23_4 C 0.2941(5) 0.8127(14) 0.0279(3)
C24_4 C 0.2221(6) 0.8091(14) 0.0264(3)
H13_4 H 0.1984 0.8514 0.0453
H14_4 H 0.3151 0.8570 0.0475
C39_4 C 0.9390(5) 0.8491(15) 0.0216(3)
C40_4 C 0.8666(5) 0.8568(14) 0.0204(3)
H23_4 H 0.8445 0.9363 0.0337
H24_4 H 0.9621 0.9141 0.0377
H25_6 H 0.543103 0.744149 0.0190761
C1_4 C 0.2221(6) 0.6909(14) 0.9736(3)
H1_4 H 0.1984 0.6486 0.9547
C2_4 C 0.2941(5) 0.6873(14) 0.9721(3)
H2_4 H 0.3151 0.6430 0.9525
C3_6 C 0.3340(7) 0.7500 1.0000
C4_6 C 0.4042(6) 0.7500 1.0000
C19_6 C 0.7574(7) 0.7500 1.0000
C20_4 C 0.8666(5) 0.6432(14) 0.9796(3)
H11_4 H 0.8445 0.5637 0.9663
C21_4 C 0.9390(5) 0.6509(15) 0.9784(3)
H12_4 H 0.9621 0.5859 0.9623
C22_6 C 0.8284(6) 0.7500 1.0000
N4_6 N 0.9736(6) 0.7500 1.0000
C25_4 C 0.7225(5) 0.7793(12) 0.9682(2)
C26_4 C 0.7545(6) 0.8045(13) 0.9352(3)
C27_4 C 0.7048(5) 0.8341(14) 0.9121(3)
C28_4 C 0.6418(5) 0.8300(13) 0.9282(3)
C29_4 C 0.5792(5) 0.8710(13) 0.9143(3)
C30_4 C 0.5190(5) 0.8622(12) 0.9320(3)
C31_4 C 0.4558(5) 0.9238(14) 0.9172(3)
C32_4 C 0.4070(6) 0.8950(15) 0.9411(3)
C33_4 C 0.4373(5) 0.8114(13) 0.9714(3)
N7_4 N 0.5076(4) 0.8012(10) 0.9644(2)
H15_4 H 0.3618 0.9234 0.9388
H16_4 H 0.4502 0.9733 0.8954
C34_4 C 0.5784(5) 0.9227(14) 0.8778(3)
C37_4 C 0.5533(6) 0.8630(18) 0.8183(4)
C38_4 C 0.5499(6) 0.8216(17) 0.8515(4)
H18_4 H 0.5284 0.7238 0.8578
H19_4 H 0.5353 0.7897 0.8020
N9_4 N 0.6552(4) 0.7912(9) 0.9635(2)
H21_4 H 0.7117 0.8546 0.8884
H22_4 H 0.8004 0.8011 0.9306
H26_6 H 0.619902 0.774803 0.982389
H25_7 H 0.456897 0.244149 0.480924
H26_7 H 0.380098 0.274803 0.517611
H26_8 H 0.619902 0.725197 0.0176109
H25_8 H 0.543103 0.755851 0.980924
loop_
_geom_bond_atom_site_label_1
_geom_bond_atom_site_label_2
_geom_bond_site_symmetry_1
_geom_bond_site_symmetry_2
Ag2 O1 1_555 1_555
N1 O1 1_555 1_555
O3 N1 1_555 1_555
C1 H1 1_555 1_555
C2 C1 1_555 1_555
H2 C2 1_555 1_555
C3 C2 1_555 1_555
C4 C3 1_555 1_555
C5 C4 1_555 1_555
C6 C5 1_555 1_555
H3 C6 1_555 1_555
C7 C6 1_555 1_555
H4 C7 1_555 1_555
C8 C7 1_555 1_555
C9 H5 1_555 1_555
C10 C9 1_555 1_555
H6 C10 1_555 1_555
C11 C10 1_555 1_555
C12 C11 1_555 1_555
H7 C12 1_555 1_555
C13 C12 1_555 1_555
H8 C13 1_555 1_555
C14 C8 1_555 1_555
C15 C14 1_555 1_555
C16 C15 1_555 1_555
H9 C16 1_555 1_555
C17 C16 1_555 1_555
H10 C17 1_555 1_555
C18 C17 1_555 1_555
C19 C18 1_555 1_555
C20 H11 1_555 1_555
C21 C20 1_555 1_555
H12 C21 1_555 1_555
C22 C19 1_555 1_555
N2 C5 1_555 1_555
N3 C15 1_555 1_555
N4 C21 1_555 1_555
N5 C1 1_555 1_555
N6 Ag2 1_555 1_555
C23 C3 1_555 1_555
C24 N5 1_555 1_555
H13 C24 1_555 1_555
H14 C23 1_555 1_555
C25 C19 1_555 1_555
C26 C25 1_555 1_555
C27 C26 1_555 1_555
C28 C27 1_555 1_555
C29 C28 1_555 1_555
C30 C29 1_555 1_555
C31 C30 1_555 1_555
C32 C31 1_555 1_555
C33 C4 1_555 1_555
N7 C30 1_555 1_555
H15 C32 1_555 1_555
H16 C31 1_555 1_555
C34 C29 1_555 1_555
C38 C34 1_555 1_555
H18 C38 1_555 1_555
H19 C37 1_555 1_555
N9 C25 1_555 1_555
H21 C27 1_555 1_555
H22 C26 1_555 1_555
C39 N4 1_555 1_555
C40 C22 1_555 1_555
H23 C40 1_555 1_555
H24 C39 1_555 1_555
O4 Ag2 1_555 1_555
N11 Ag2 1_555 1_555
Ag4 N5 1_555 1_555
C8 N2 1_555 1_555
C9 N6 1_555 1_555
C11 C14 1_555 1_555
C13 N6 1_555 1_555
C18 N3 1_555 1_555
C20 C22 1_555 1_555
C23 C24 1_555 1_555
C28 N9 1_555 1_555
C32 C33 1_555 1_555
C33 N7 1_555 1_555
C37 C38 1_555 1_555
C39 C40 1_555 1_555
N2 H25 1_555 1_555
N9 H26 1_555 1_555
C36 C35 1_555 1_555
H17 C36 1_555 1_555
N8 C36 1_555 1_555
H20 C35 1_555 1_555
Ag5 N8 1_555 1_555
C1_2 H1_2 1_555 1_555
C2_2 C1_2 1_555 1_555
H2_2 C2_2 1_555 1_555
C3_2 C2_2 1_555 1_555
C4_2 C3_2 1_555 1_555
C20_2 H11_2 1_555 1_555
C21_2 C20_2 1_555 1_555
H12_2 C21_2 1_555 1_555
C22_2 C19_2 1_555 1_555
N4_2 C21_2 1_555 1_555
N5_2 C1_2 1_555 1_555
C25_2 C19_2 1_555 1_555
C26_2 C25_2 1_555 1_555
C27_2 C26_2 1_555 1_555
C28_2 C27_2 1_555 1_555
C29_2 C28_2 1_555 1_555
C30_2 C29_2 1_555 1_555
C31_2 C30_2 1_555 1_555
C32_2 C31_2 1_555 1_555
C33_2 C4_2 1_555 1_555
N7_2 C30_2 1_555 1_555
H15_2 C32_2 1_555 1_555
H16_2 C31_2 1_555 1_555
C34_2 C29_2 1_555 1_555
C38_2 C34_2 1_555 1_555
H18_2 C38_2 1_555 1_555
H19_2 C37_2 1_555 1_555
N9_2 C25_2 1_555 1_555
H21_2 C27_2 1_555 1_555
H22_2 C26_2 1_555 1_555
Ag4_2 N5_2 1_555 1_555
C20_2 C22_2 1_555 1_555
C28_2 N9_2 1_555 1_555
C32_2 C33_2 1_555 1_555
C33_2 N7_2 1_555 1_555
C37_2 C38_2 1_555 1_555
N9_2 H26_2 1_555 1_555
C4_3 C3_3 1_555 1_555
C5_2 C4_3 1_555 1_555
C6_2 C5_2 1_555 1_555
H3_2 C6_2 1_555 1_555
C7_2 C6_2 1_555 1_555
H4_2 C7_2 1_555 1_555
C8_2 C7_2 1_555 1_555
C9_2 H5_2 1_555 1_555
C10_2 C9_2 1_555 1_555
H6_2 C10_2 1_555 1_555
C11_2 C10_2 1_555 1_555
C12_2 C11_2 1_555 1_555
H7_2 C12_2 1_555 1_555
C13_2 C12_2 1_555 1_555
H8_2 C13_2 1_555 1_555
C14_2 C8_2 1_555 1_555
C15_2 C14_2 1_555 1_555
C16_2 C15_2 1_555 1_555
H9_2 C16_2 1_555 1_555
C17_2 C16_2 1_555 1_555
H10_2 C17_2 1_555 1_555
C18_2 C17_2 1_555 1_555
C19_3 C18_2 1_555 1_555
C22_3 C19_3 1_555 1_555
N2_2 C5_2 1_555 1_555
N3_2 C15_2 1_555 1_555
C23_2 C3_3 1_555 1_555
C24_2 N5_3 1_555 1_555
H13_2 C24_2 1_555 1_555
H14_2 C23_2 1_555 1_555
C39_2 N4_3 1_555 1_555
C40_2 C22_3 1_555 1_555
H23_2 C40_2 1_555 1_555
H24_2 C39_2 1_555 1_555
Ag4_3 N5_3 1_555 1_555
C8_2 N2_2 1_555 1_555
C9_2 N11 1_555 1_555
C11_2 C14_2 1_555 1_555
C13_2 N11 1_555 1_555
C18_2 N3_2 1_555 1_555
C23_2 C24_2 1_555 1_555
C39_2 C40_2 1_555 1_555
N2_2 H25_2 1_555 1_555
C36_2 C35_2 1_555 1_555
H17_2 C36_2 1_555 1_555
N8_2 C36_2 1_555 1_555
H20_2 C35_2 1_555 1_555
Ag5 N8_2 1_555 1_555
N10 Ag1 1_555 1_555
Ag3 O4 1_555 1_555
N1_2 O4 1_555 1_555
O2_2 N1_2 1_555 1_555
O3_2 N1_2 1_555 1_555
C9_3 H5_3 1_555 1_555
C10_3 C9_3 1_555 1_555
H6_3 C10_3 1_555 1_555
N6_2 Ag3 1_555 1_555
N11_2 Ag3 1_555 1_555
C9_3 N6_2 1_555 1_555
C1_3 H1_3 1_555 1_555
C2_3 C1_3 1_555 1_555
H2_3 C2_3 1_555 1_555
C3_4 C2_3 1_555 1_555
C4_4 C3_4 1_555 1_555
C5_3 C4_4 1_555 1_555
C6_3 C5_3 1_555 1_555
H3_3 C6_3 1_555 1_555
C7_3 C6_3 1_555 1_555
H4_3 C7_3 1_555 1_555
C8_3 C7_3 1_555 1_555
C12_3 C11_3 1_555 1_555
H7_3 C12_3 1_555 1_555
C13_3 C12_3 1_555 1_555
H8_3 C13_3 1_555 1_555
C14_3 C8_3 1_555 1_555
C15_3 C14_3 1_555 1_555
C16_3 C15_3 1_555 1_555
H9_3 C16_3 1_555 1_555
C17_3 C16_3 1_555 1_555
H10_3 C17_3 1_555 1_555
C18_3 C17_3 1_555 1_555
C19_4 C18_3 1_555 1_555
C20_3 H11_3 1_555 1_555
C21_3 C20_3 1_555 1_555
H12_3 C21_3 1_555 1_555
C22_4 C19_4 1_555 1_555
N2_3 C5_3 1_555 1_555
N3_3 C15_3 1_555 1_555
N4_4 C21_3 1_555 1_555
N10 C1_3 1_555 1_555
C23_3 C3_4 1_555 1_555
C24_3 N10 1_555 1_555
H13_3 C24_3 1_555 1_555
H14_3 C23_3 1_555 1_555
C25_3 C19_4 1_555 1_555
C26_3 C25_3 1_555 1_555
C27_3 C26_3 1_555 1_555
C28_3 C27_3 1_555 1_555
C29_3 C28_3 1_555 1_555
C30_3 C29_3 1_555 1_555
C31_3 C30_3 1_555 1_555
C32_3 C31_3 1_555 1_555
C33_3 C4_4 1_555 1_555
N7_3 C30_3 1_555 1_555
H15_3 C32_3 1_555 1_555
H16_3 C31_3 1_555 1_555
C34_3 C29_3 1_555 1_555
C35_3 C34_3 1_555 1_555
C36_3 C35_3 1_555 1_555
H17_3 C36_3 1_555 1_555
N8_3 C36_3 1_555 1_555
C37_3 N8_3 1_555 1_555
C38_3 C34_3 1_555 1_555
H18_3 C38_3 1_555 1_555
H19_3 C37_3 1_555 1_555
H20_3 C35_3 1_555 1_555
N9_3 C25_3 1_555 1_555
H21_3 C27_3 1_555 1_555
H22_3 C26_3 1_555 1_555
C39_3 N4_4 1_555 1_555
C40_3 C22_4 1_555 1_555
H23_3 C40_3 1_555 1_555
H24_3 C39_3 1_555 1_555
Ag5_2 N8_3 1_555 1_555
C8_3 N2_3 1_555 1_555
C11_3 C14_3 1_555 1_555
C18_3 N3_3 1_555 1_555
C20_3 C22_4 1_555 1_555
C23_3 C24_3 1_555 1_555
C28_3 N9_3 1_555 1_555
C32_3 C33_3 1_555 1_555
C33_3 N7_3 1_555 1_555
C37_3 C38_3 1_555 1_555
C39_3 C40_3 1_555 1_555
N2_3 H25_3 1_555 1_555
N9_3 H26_3 1_555 1_555
N7_2 H25_4 1_555 1_555
N3_2 H26_4 1_555 1_555
Ag5 O1_2 1_555 1_555
N1_3 O1_2 1_555 1_555
O1_2 Ag5_2 1_555 1_555
O2_3 N1_3 1_555 1_555
O3_3 N1_3 1_555 1_555
Ag5_2 O4_2 1_555 1_555
N1_4 O4_2 1_555 1_555
O3_4 N1_4 1_555 1_555
N11_3 Ag5_2 1_555 1_555
N7_3 H25_5 1_555 1_555
N3_3 H26_5 1_555 1_555
N10_2 Ag1_2 1_555 1_555
N10_3 Ag1_3 1_555 1_555
C36_4 C35_4 1_555 1_555
H17_4 C36_4 1_555 1_555
N11_2 C36_4 1_555 1_555
H20_4 C35_4 1_555 1_555
C4_5 C3_5 1_555 1_555
C5_4 C4_5 1_555 1_555
C6_4 C5_4 1_555 1_555
H3_4 C6_4 1_555 1_555
C7_4 C6_4 1_555 1_555
H4_4 C7_4 1_555 1_555
C8_4 C7_4 1_555 1_555
C9_4 H5_4 1_555 1_555
C10_4 C9_4 1_555 1_555
H6_4 C10_4 1_555 1_555
C11_4 C10_4 1_555 1_555
C12_4 C11_4 1_555 1_555
H7_4 C12_4 1_555 1_555
C13_4 C12_4 1_555 1_555
H8_4 C13_4 1_555 1_555
C14_4 C8_4 1_555 1_555
C15_4 C14_4 1_555 1_555
C16_4 C15_4 1_555 1_555
H9_4 C16_4 1_555 1_555
C17_4 C16_4 1_555 1_555
H10_4 C17_4 1_555 1_555
C18_4 C17_4 1_555 1_555
C19_5 C18_4 1_555 1_555
C22_5 C19_5 1_555 1_555
N2_4 C5_4 1_555 1_555
N3_4 C15_4 1_555 1_555
C23_4 C3_5 1_555 1_555
C24_4 N10_2 1_555 1_555
H13_4 C24_4 1_555 1_555
H14_4 C23_4 1_555 1_555
C39_4 N4_5 1_555 1_555
C40_4 C22_5 1_555 1_555
H23_4 C40_4 1_555 1_555
H24_4 C39_4 1_555 1_555
C8_4 N2_4 1_555 1_555
C9_4 N11_3 1_555 1_555
C11_4 C14_4 1_555 1_555
C13_4 N11_3 1_555 1_555
C18_4 N3_4 1_555 1_555
C23_4 C24_4 1_555 1_555
C39_4 C40_4 1_555 1_555
N2_4 H25_6 1_555 1_555
C1_4 H1_4 1_555 1_555
C2_4 C1_4 1_555 1_555
H2_4 C2_4 1_555 1_555
C3_6 C2_4 1_555 1_555
C4_6 C3_6 1_555 1_555
C20_4 H11_4 1_555 1_555
C21_4 C20_4 1_555 1_555
H12_4 C21_4 1_555 1_555
C22_6 C19_6 1_555 1_555
N4_6 C21_4 1_555 1_555
N10_3 C1_4 1_555 1_555
C25_4 C19_6 1_555 1_555
C26_4 C25_4 1_555 1_555
C27_4 C26_4 1_555 1_555
C28_4 C27_4 1_555 1_555
C29_4 C28_4 1_555 1_555
C30_4 C29_4 1_555 1_555
C31_4 C30_4 1_555 1_555
C32_4 C31_4 1_555 1_555
C33_4 C4_6 1_555 1_555
N7_4 C30_4 1_555 1_555
H15_4 C32_4 1_555 1_555
H16_4 C31_4 1_555 1_555
C34_4 C29_4 1_555 1_555
C38_4 C34_4 1_555 1_555
H18_4 C38_4 1_555 1_555
H19_4 C37_4 1_555 1_555
N9_4 C25_4 1_555 1_555
H21_4 C27_4 1_555 1_555
H22_4 C26_4 1_555 1_555
C20_4 C22_6 1_555 1_555
C28_4 N9_4 1_555 1_555
C32_4 C33_4 1_555 1_555
C33_4 N7_4 1_555 1_555
C37_4 C38_4 1_555 1_555
N9_4 H26_6 1_555 1_555
N7 H25_7 1_555 1_555
N3 H26_7 1_555 1_555
N3_4 H26_8 1_555 1_555
N7_4 H25_8 1_555 1_555

#END
