
###############################################################################
#
# This file contains modified crystal structure data generated from the
# MOF subset of the Cambridge Structural Database (CSD) v543 
# hosted by the Cambridge Crystallographic Data Centre (CCDC).
#
# This work is licensed under the Creative Commons
# Attribution-NonCommercial-ShareAlike 4.0 International License.
# To view a copy of this license, visit
# http://creativecommons.org/licenses/by-nc-sa/4.0/
# or send a letter to
# Creative Commons, PO Box 1866, Mountain View, CA 94042, USA.
#
# CIF created using the CSD Python API on 29 September 2022
# The structure has been converted into the P1 space group
# The structure has a 3D framework
# The original CSD entry TUTGOF is in the monoclinic crystal system
# The framework has been calculated to contain at least 10.0% void space
# The void calculation uses a probe of radius 1.32A, grid spacing 0.4
# H atom positions have been added when not included in the experimental data
#
###############################################################################

data_TUTGOF
_chemical_formula_moiety         '(C136 H116 Mn8 N20 O34)n'
_symmetry_cell_setting           triclinic
_symmetry_space_group_name_H-M   'P 1'
_symmetry_Int_Tables_number      1
_space_group_name_Hall           'P 1'
loop_
_symmetry_equiv_pos_site_id
_symmetry_equiv_pos_as_xyz
1 x,y,z
_cell_length_a                   16.263(5)
_cell_length_b                   14.877(4)
_cell_length_c                   18.884(6)
_cell_angle_alpha                90
_cell_angle_beta                 111.985(5)
_cell_angle_gamma                90
_cell_volume                     4236.64
loop_
_atom_site_label
_atom_site_type_symbol
_atom_site_fract_x
_atom_site_fract_y
_atom_site_fract_z
H9 H 0.4300 0.0096 0.3612
H16 H 0.2999 0.0011 0.4427
Mn1 Mn 0.45121(5) 0.42529(5) 0.21451(4)
Mn2 Mn 0.55390(5) 0.14676(5) 0.28991(4)
O1 O 0.8356(2) 0.5606(2) 0.2147(2)
O2 O 0.9621(2) 0.4919(2) 0.2346(2)
O3 O 0.3322(2) 0.5077(2) 0.20254(19)
O4 O 0.4568(2) 0.5785(2) 0.21961(19)
O5 O 0.6147(2) 0.2754(2) 0.31687(19)
N1 N 0.9229(3) 0.1805(3) 0.3310(2)
H1 H 0.9763 0.1829 0.3323
O6 O 0.1073(2) 0.7971(2) 0.2949(2)
O7 O 0.0779(2) 0.6734(2) 0.2234(2)
O8 O 0.5872(2) 0.3979(2) 0.24339(19)
N2 N 0.4189(3) 0.8806(3) 0.5855(2)
N3 N 0.4175(3) 0.8869(3) 0.3170(2)
H2 H 0.4672 0.8900 0.3106
N4 N 0.4803(3) 0.4122(3) 0.3455(2)
H3 H 0.5165 0.3773 0.3352
H4 H 0.4245 0.4006 0.3276
C1 C 0.3619(3) 0.8138(3) 0.2885(3)
C2 C 0.3398(3) 0.6628(3) 0.2361(3)
C3 C 0.3783(3) 0.5791(3) 0.2179(3)
N5 N 0.9310(3) 0.0764(3) 0.5906(2)
C4 C 0.7629(3) 0.4092(3) 0.2574(3)
H5 H 0.7265 0.4589 0.2388
C5 C 0.3935(3) 0.7371(3) 0.2641(3)
H6 H 0.4518 0.7360 0.2668
C6 C 0.8848(3) 0.4919(3) 0.2353(3)
C7 C 0.9020(3) 0.3340(3) 0.2855(3)
H7 H 0.9599 0.3345 0.2874
C8 C 0.8694(3) 0.2565(3) 0.3085(3)
C9 C 0.2214(3) 0.7380(3) 0.2583(3)
C10 C 0.8497(3) 0.4098(3) 0.2600(3)
O9 O 0.5250(3) 0.1703(3) 0.1678(2)
C11 C 0.7309(3) 0.3345(3) 0.2825(3)
C12 C 0.9044(3) 0.0919(3) 0.4347(3)
C13 C 0.3924(3) 0.9577(3) 0.3571(3)
H8 H 0.3316 0.9754 0.3279
C14 C 0.2755(3) 0.8124(3) 0.2871(3)
H10 H 0.2540 0.8615 0.3055
C15 C 0.4001(3) 0.9292(3) 0.4364(3)
C16 C 0.8917(3) 0.0978(3) 0.3521(3)
H11 H 0.8290 0.0912 0.3214
H12 H 0.9225 0.0479 0.3399
C17 C 0.2529(3) 0.6636(3) 0.2329(3)
H13 H 0.2163 0.6141 0.2137
C18 C 0.7836(3) 0.2591(3) 0.3084(3)
H14 H 0.7616 0.2098 0.3259
C19 C 0.5129(4) 0.4891(4) 0.3925(3)
C20 C 0.1284(3) 0.7370(3) 0.2581(3)
C21 C 0.6366(3) 0.3357(3) 0.2801(3)
C22 C 0.8738(4) 0.0180(4) 0.4626(3)
C23 C 0.3452(4) 0.9616(4) 0.4695(3)
C24 C 0.4544(4) 0.5468(4) 0.4071(3)
H17 H 0.3940 0.5343 0.3873
C25 C 0.8887(4) 0.0132(4) 0.5392(3)
C26 C 0.4637(4) 0.8686(4) 0.4789(3)
H19 H 0.5017 0.8422 0.4585
C27 C 0.4703(4) 0.8478(4) 0.5516(3)
H20 H 0.5144 0.8075 0.5791
C28 C 0.6339(5) 0.5841(5) 0.4665(4)
H21 H 0.6943 0.5962 0.4873
C29 C 0.3561(4) 0.9365(4) 0.5427(3)
H22 H 0.3171 0.9602 0.5635
C30 C 0.4852(5) 0.6228(4) 0.4507(4)
H23 H 0.4458 0.6616 0.4605
C31 C 0.9494(5) 0.1552(4) 0.4879(4)
H24 H 0.9720 0.2060 0.4729
C32 C 0.5752(5) 0.6410(4) 0.4799(4)
H25 H 0.5960 0.6925 0.5090
C33 C 0.6023(4) 0.5076(4) 0.4212(4)
H26 H 0.6416 0.4695 0.4106
C34 C 0.9614(5) 0.1438(5) 0.5630(4)
H27 H 0.9938 0.1876 0.5973
Mn3 Mn 0.04879(5) 0.92529(5) 0.28549(4)
Mn4 Mn 0.95121(5) 0.07471(5) 0.71451(4)
Mn5 Mn 0.94610(5) 0.64676(5) 0.21009(4)
Mn7 Mn 0.44610(5) 0.85324(5) 0.71009(4)
O10 O 0.6644(2) 0.0606(2) 0.2853(2)
O12 O 0.3927(2) 0.2971(2) 0.2051(2)
O13 O 0.4221(2) 0.1734(2) 0.2766(2)
N6 N 0.5811(3) 0.1194(3) 0.4145(2)
N7 N 0.4310(3) 0.4236(3) 0.0906(2)
H28 H 0.581363 0.180159 0.159917
H29 H 0.493956 0.117152 0.137858
H15 H 0.8434 0.9721 0.4298
H18 H 0.8681 0.9628 0.5565
O11 O 0.5379(2) 0.9919(2) 0.2654(2)
O3_2 O 0.1678(2) 0.0077(2) 0.29746(19)
O4_2 O 0.0432(2) 0.0785(2) 0.28039(19)
N3_2 N 0.0825(3) 0.3869(3) 0.1830(2)
H2_2 H 0.0328 0.3900 0.1894
C1_2 C 0.1381(3) 0.3138(3) 0.2115(3)
C2_2 C 0.1602(3) 0.1628(3) 0.2639(3)
C3_2 C 0.1217(3) 0.0791(3) 0.2821(3)
C5_2 C 0.1065(3) 0.2371(3) 0.2359(3)
H6_2 H 0.0482 0.2360 0.2332
C9_2 C 0.2786(3) 0.2380(3) 0.2417(3)
C13_2 C 0.1076(3) 0.4577(3) 0.1429(3)
H8_2 H 0.1684 0.4754 0.1721
H9_2 H 0.0700 0.5096 0.1388
C14_2 C 0.2245(3) 0.3124(3) 0.2129(3)
H10_2 H 0.2460 0.3615 0.1945
C15_2 C 0.0999(3) 0.4292(3) 0.0636(3)
C17_2 C 0.2471(3) 0.1636(3) 0.2671(3)
H13_2 H 0.2837 0.1141 0.2863
C20_2 C 0.3716(3) 0.2370(3) 0.2419(3)
C23_2 C 0.1548(4) 0.4616(4) 0.0305(3)
H16_2 H 0.2001 0.5011 0.0573
C24_2 C 0.0456(4) 0.0468(4) 0.0929(3)
H17_2 H 0.1060 0.0343 0.1127
C26_2 C 0.0363(4) 0.3686(4) 0.0211(3)
C30_2 C 0.0148(5) 0.1228(4) 0.0493(4)
H23_2 H 0.0542 0.1616 0.0395
N2_2 N 0.0811(3) 0.3806(3) 0.9145(2)
C27_2 C 0.0297(4) 0.3478(4) 0.9484(3)
C29_2 C 0.1439(4) 0.4365(4) 0.9573(3)
H22_2 H 0.1829 0.4602 0.9365
Mn7_2 Mn 0.05390(5) 0.35324(5) 0.78991(4)
N4_2 N 0.0197(3) 0.9122(3) 0.1545(2)
H4_2 H 0.0755 0.9006 0.1724
N7_2 N 0.0690(3) 0.9236(3) 0.4094(2)
H29_2 H 0.00604399 0.617152 0.362142
H19_2 H 0.9983 0.3422 0.0415
C28_2 C 0.8661(5) 0.0841(5) 0.0335(4)
H21_2 H 0.8057 0.0962 0.0127
C32_2 C 0.9248(5) 0.1410(4) 0.0201(4)
C33_2 C 0.8977(4) 0.0076(4) 0.0788(4)
O5_2 O 0.8853(2) 0.7754(2) 0.18313(19)
N1_2 N 0.5771(3) 0.6805(3) 0.1690(2)
H1_2 H 0.5237 0.6829 0.1677
O8_2 O 0.9128(2) 0.8979(2) 0.25661(19)
H3_2 H 0.9835 0.8773 0.1648
C4_2 C 0.7371(3) 0.9092(3) 0.2426(3)
H5_2 H 0.7735 0.9589 0.2612
C6_2 C 0.6152(3) 0.9919(3) 0.2647(3)
C7_2 C 0.5980(3) 0.8340(3) 0.2145(3)
H7_2 H 0.5401 0.8345 0.2126
C8_2 C 0.6306(3) 0.7565(3) 0.1915(3)
C10_2 C 0.6503(3) 0.9098(3) 0.2400(3)
O9_2 O 0.9750(3) 0.6703(3) 0.3322(2)
C11_2 C 0.7691(3) 0.8345(3) 0.2175(3)
C12_2 C 0.5956(3) 0.5919(3) 0.0653(3)
C16_2 C 0.6083(3) 0.5978(3) 0.1479(3)
H11_2 H 0.6710 0.5912 0.1786
H12_2 H 0.5775 0.5479 0.1601
C18_2 C 0.7164(3) 0.7591(3) 0.1916(3)
H14_2 H 0.7384 0.7098 0.1741
C19_2 C 0.9871(4) 0.9891(4) 0.1075(3)
C21_2 C 0.8634(3) 0.8357(3) 0.2199(3)
C22_2 C 0.6262(4) 0.5180(4) 0.0374(3)
H15_2 H 0.6566 0.4721 0.0702
C31_2 C 0.5506(5) 0.6552(4) 0.0121(4)
H24_2 H 0.5280 0.7060 0.0271
H26_2 H 0.8584 0.9695 0.0894
N6_2 N 0.9189(3) 0.6194(3) 0.0855(2)
H28_2 H 0.918637 0.680159 0.340083
N5_2 N 0.5690(3) 0.5764(3) 0.9094(2)
C25_2 C 0.6113(4) 0.5132(4) 0.9608(3)
H18_2 H 0.6319 0.4628 0.9435
C34_2 C 0.5386(5) 0.6438(5) 0.9370(4)
H27_2 H 0.5062 0.6876 0.9027
Mn4_2 Mn 0.54879(5) 0.57471(5) 0.78549(4)
H15_3 H 0.1566 0.0279 0.5702
H18_3 H 0.1319 0.0372 0.4435
O11_2 O 0.4621(2) 0.0081(2) 0.7346(2)
O1_2 O 0.1644(2) 0.4394(2) 0.7853(2)
O2_2 O 0.0379(2) 0.5081(2) 0.7654(2)
O3_3 O 0.6678(2) 0.4923(2) 0.79746(19)
O4_3 O 0.5432(2) 0.4215(2) 0.78039(19)
O5_3 O 0.3853(2) 0.7246(2) 0.68313(19)
N1_3 N 0.0771(3) 0.8195(3) 0.6690(2)
H1_3 H 0.0237 0.8171 0.6677
O6_2 O 0.8927(2) 0.2029(2) 0.7051(2)
O7_2 O 0.9221(2) 0.3266(2) 0.7766(2)
O8_3 O 0.4128(2) 0.6021(2) 0.75661(19)
N3_3 N 0.5825(3) 0.1131(3) 0.6830(2)
H2_3 H 0.5328 0.1100 0.6894
N4_3 N 0.5197(3) 0.5878(3) 0.6545(2)
H3_3 H 0.4835 0.6227 0.6648
H4_3 H 0.5755 0.5994 0.6724
C1_3 C 0.6381(3) 0.1862(3) 0.7115(3)
C2_3 C 0.6602(3) 0.3372(3) 0.7639(3)
C3_3 C 0.6217(3) 0.4209(3) 0.7821(3)
C4_3 C 0.2371(3) 0.5908(3) 0.7426(3)
H5_3 H 0.2735 0.5411 0.7612
C5_3 C 0.6065(3) 0.2629(3) 0.7359(3)
H6_3 H 0.5482 0.2640 0.7332
C6_3 C 0.1152(3) 0.5081(3) 0.7647(3)
C7_3 C 0.0980(3) 0.6660(3) 0.7145(3)
H7_3 H 0.0401 0.6655 0.7126
C8_3 C 0.1306(3) 0.7435(3) 0.6915(3)
C9_3 C 0.7786(3) 0.2620(3) 0.7417(3)
C10_3 C 0.1503(3) 0.5902(3) 0.7400(3)
O9_3 O 0.4750(3) 0.8297(3) 0.8322(2)
C11_3 C 0.2691(3) 0.6655(3) 0.7175(3)
C12_3 C 0.0956(3) 0.9081(3) 0.5653(3)
C13_3 C 0.6076(3) 0.0423(3) 0.6429(3)
H8_3 H 0.6684 0.0246 0.6721
C14_3 C 0.7245(3) 0.1876(3) 0.7129(3)
H10_3 H 0.7460 0.1385 0.6945
C15_3 C 0.5999(3) 0.0708(3) 0.5636(3)
C16_3 C 0.1083(3) 0.9022(3) 0.6479(3)
H11_3 H 0.1710 0.9088 0.6786
H12_3 H 0.0775 0.9521 0.6601
C17_3 C 0.7471(3) 0.3364(3) 0.7671(3)
H13_3 H 0.7837 0.3859 0.7863
C18_3 C 0.2164(3) 0.7409(3) 0.6916(3)
H14_3 H 0.2384 0.7902 0.6741
C19_3 C 0.4871(4) 0.5109(4) 0.6075(3)
C20_3 C 0.8716(3) 0.2630(3) 0.7419(3)
C21_3 C 0.3634(3) 0.6643(3) 0.7199(3)
C22_3 C 0.1262(4) 0.9820(4) 0.5374(3)
C23_3 C 0.6548(4) 0.0384(4) 0.5305(3)
C24_3 C 0.5456(4) 0.4532(4) 0.5929(3)
H17_3 H 0.6060 0.4657 0.6127
C25_3 C 0.1113(4) 0.9868(4) 0.4608(3)
C26_3 C 0.5363(4) 0.1314(4) 0.5211(3)
H19_3 H 0.4983 0.1578 0.5415
C27_3 C 0.5297(4) 0.1522(4) 0.4484(3)
H20_2 H 0.4856 0.1925 0.4209
C28_3 C 0.3661(5) 0.4159(5) 0.5335(4)
H21_3 H 0.3057 0.4038 0.5127
C29_3 C 0.6439(4) 0.0635(4) 0.4573(3)
H22_3 H 0.6829 0.0398 0.4365
C30_3 C 0.5148(5) 0.3772(4) 0.5493(4)
H23_3 H 0.5542 0.3384 0.5395
C31_3 C 0.0506(5) 0.8448(4) 0.5121(4)
H24_3 H 0.0280 0.7940 0.5271
C32_3 C 0.4248(5) 0.3590(4) 0.5201(4)
H25_2 H 0.4040 0.3075 0.4910
C33_3 C 0.3977(4) 0.4924(4) 0.5788(4)
H26_3 H 0.3584 0.5305 0.5894
C34_3 C 0.0386(5) 0.8562(5) 0.4370(4)
H27_3 H 0.0062 0.8124 0.4027
O10_2 O 0.3356(2) 0.9394(2) 0.7147(2)
O12_2 O 0.6073(2) 0.7029(2) 0.7949(2)
O13_2 O 0.5779(2) 0.8266(2) 0.7234(2)
H28_3 H 0.418637 0.819841 0.840083
H29_3 H 0.506044 0.882848 0.862142
C25_4 C 0.3887(4) 0.4868(4) 0.0392(3)
H18_4 H 0.3681 0.5372 0.0565
C34_4 C 0.4614(5) 0.3562(5) 0.0630(4)
H27_4 H 0.4938 0.3124 0.0973
O5_4 O 0.1147(2) 0.2246(2) 0.81687(19)
N1_4 N 0.4229(3) 0.3195(3) 0.8310(2)
H1_4 H 0.4763 0.3171 0.8323
O8_4 O 0.0872(2) 0.1021(2) 0.74339(19)
H3_4 H 0.0165 0.1227 0.8352
C4_4 C 0.2629(3) 0.0908(3) 0.7574(3)
H5_4 H 0.2265 0.0411 0.7388
C6_4 C 0.3848(3) 0.0081(3) 0.7353(3)
C7_4 C 0.4020(3) 0.1660(3) 0.7855(3)
H7_4 H 0.4599 0.1655 0.7874
C8_4 C 0.3694(3) 0.2435(3) 0.8085(3)
C10_4 C 0.3497(3) 0.0902(3) 0.7600(3)
O9_4 O 0.0250(3) 0.3297(3) 0.6678(2)
C11_4 C 0.2309(3) 0.1655(3) 0.7825(3)
C12_4 C 0.4044(3) 0.4081(3) 0.9347(3)
C16_4 C 0.3917(3) 0.4022(3) 0.8521(3)
H11_4 H 0.3290 0.4088 0.8214
H12_4 H 0.4225 0.4521 0.8399
C18_4 C 0.2836(3) 0.2409(3) 0.8084(3)
H14_4 H 0.2616 0.2902 0.8259
C19_4 C 0.0129(4) 0.0109(4) 0.8925(3)
C21_4 C 0.1366(3) 0.1643(3) 0.7801(3)
C22_4 C 0.3738(4) 0.4820(4) 0.9626(3)
H15_4 H 0.3434 0.5279 0.9298
C31_4 C 0.4494(5) 0.3448(4) 0.9879(4)
H24_4 H 0.4720 0.2940 0.9729
H26_4 H 0.1416 0.0305 0.9106
H28_4 H 0.081363 0.319841 0.659917
H19_4 H 0.0017 0.6578 0.9585
C28_4 C 0.1339(5) 0.9159(5) 0.9665(4)
H21_4 H 0.1943 0.9038 0.9873
C32_4 C 0.0752(5) 0.8590(4) 0.9799(4)
C33_4 C 0.1023(4) 0.9924(4) 0.9212(4)
N4_4 N 0.9803(3) 0.0878(3) 0.8455(2)
H4_4 H 0.9245 0.0994 0.8276
H29_4 H 0.993956 0.382848 0.637858
C27_4 C 0.9703(4) 0.6522(4) 0.0516(3)
C29_4 C 0.8561(4) 0.5635(4) 0.0427(3)
H22_4 H 0.8171 0.5398 0.0635
O3_4 O 0.8322(2) 0.9923(2) 0.70254(19)
O4_4 O 0.9568(2) 0.9215(2) 0.71961(19)
N3_4 N 0.9175(3) 0.6131(3) 0.8170(2)
H2_4 H 0.9672 0.6100 0.8106
C1_4 C 0.8619(3) 0.6862(3) 0.7885(3)
C2_4 C 0.8398(3) 0.8372(3) 0.7361(3)
C3_4 C 0.8783(3) 0.9209(3) 0.7179(3)
C5_4 C 0.8935(3) 0.7629(3) 0.7641(3)
H6_4 H 0.9518 0.7640 0.7668
C9_4 C 0.7214(3) 0.7620(3) 0.7583(3)
C13_4 C 0.8924(3) 0.5423(3) 0.8571(3)
H8_4 H 0.8316 0.5246 0.8279
H9_3 H 0.9300 0.4904 0.8612
C14_4 C 0.7755(3) 0.6876(3) 0.7871(3)
H10_4 H 0.7540 0.6385 0.8055
C15_4 C 0.9001(3) 0.5708(3) 0.9364(3)
C17_4 C 0.7529(3) 0.8364(3) 0.7329(3)
H13_4 H 0.7163 0.8859 0.7137
C20_4 C 0.6284(3) 0.7630(3) 0.7581(3)
C23_4 C 0.8452(4) 0.5384(4) 0.9695(3)
H16_3 H 0.7999 0.4989 0.9427
C24_4 C 0.9544(4) 0.9532(4) 0.9071(3)
H17_4 H 0.8940 0.9657 0.8873
C26_4 C 0.9637(4) 0.6314(4) 0.9789(3)
C30_4 C 0.9852(5) 0.8772(4) 0.9507(4)
H23_4 H 0.9458 0.8384 0.9605
H20_3 H 0.9856 0.3075 0.9209
H25_3 H 0.9040 0.1925 0.9910
H9_4 H 0.5700 0.9904 0.6388
H16_4 H 0.7001 0.9989 0.5573
H20_4 H 0.0144 0.6925 0.0791
H25_4 H 0.0960 0.8075 0.0090
loop_
_geom_bond_atom_site_label_1
_geom_bond_atom_site_label_2
_geom_bond_site_symmetry_1
_geom_bond_site_symmetry_2
Mn1 O3 1_555 1_555
Mn2 O5 1_555 1_555
O1 C6 1_555 1_555
O2 C6 1_555 1_555
O3 C3 1_555 1_555
O4 Mn1 1_555 1_555
O5 C21 1_555 1_555
N1 H1 1_555 1_555
O6 C20 1_555 1_555
O7 C20 1_555 1_555
O8 Mn1 1_555 1_555
N2 C27 1_555 1_555
N3 H2 1_555 1_555
N4 Mn1 1_555 1_555
H3 N4 1_555 1_555
H4 N4 1_555 1_555
C1 N3 1_555 1_555
C2 C3 1_555 1_555
C3 O4 1_555 1_555
N5 C25 1_555 1_555
C4 H5 1_555 1_555
C5 C1 1_555 1_555
H6 C5 1_555 1_555
C6 C10 1_555 1_555
C7 H7 1_555 1_555
C8 N1 1_555 1_555
C9 C14 1_555 1_555
C10 C4 1_555 1_555
O9 Mn2 1_555 1_555
C11 C4 1_555 1_555
C12 C16 1_555 1_555
C13 N3 1_555 1_555
H8 C13 1_555 1_555
C14 C1 1_555 1_555
H10 C14 1_555 1_555
C15 C13 1_555 1_555
C16 N1 1_555 1_555
H11 C16 1_555 1_555
H12 C16 1_555 1_555
C17 C2 1_555 1_555
H13 C17 1_555 1_555
C18 C8 1_555 1_555
H14 C18 1_555 1_555
C19 N4 1_555 1_555
C20 C9 1_555 1_555
C21 O8 1_555 1_555
C22 C12 1_555 1_555
C23 C15 1_555 1_555
C24 C19 1_555 1_555
H17 C24 1_555 1_555
C25 C22 1_555 1_555
C26 C15 1_555 1_555
H19 C26 1_555 1_555
C27 C26 1_555 1_555
H20 C27 1_555 1_555
C28 H21 1_555 1_555
C29 N2 1_555 1_555
H22 C29 1_555 1_555
C30 C24 1_555 1_555
H23 C30 1_555 1_555
C31 C12 1_555 1_555
H24 C31 1_555 1_555
C32 C28 1_555 1_555
H25 C32 1_555 1_555
C33 C19 1_555 1_555
H26 C33 1_555 1_555
C34 N5 1_555 1_555
H27 C34 1_555 1_555
Mn3 O6 1_555 1_555
Mn4 N5 1_555 1_555
Mn5 O1 1_555 1_555
Mn7 N2 1_555 1_555
O10 Mn2 1_555 1_555
O12 Mn1 1_555 1_555
O13 Mn2 1_555 1_555
N6 Mn2 1_555 1_555
N7 Mn1 1_555 1_555
O2 Mn5 1_555 1_555
C2 C5 1_555 1_555
C7 C8 1_555 1_555
C7 C10 1_555 1_555
C9 C17 1_555 1_555
C11 C18 1_555 1_555
C11 C21 1_555 1_555
C23 C29 1_555 1_555
C28 C33 1_555 1_555
C30 C32 1_555 1_555
C31 C34 1_555 1_555
O9 H28 1_555 1_555
O9 H29 1_555 1_555
O3_2 C3_2 1_555 1_555
O12 C20_2 1_555 1_555
O13 C20_2 1_555 1_555
N3_2 H2_2 1_555 1_555
C1_2 N3_2 1_555 1_555
C2_2 C3_2 1_555 1_555
C3_2 O4_2 1_555 1_555
C5_2 C1_2 1_555 1_555
H6_2 C5_2 1_555 1_555
C9_2 C14_2 1_555 1_555
C13_2 N3_2 1_555 1_555
H8_2 C13_2 1_555 1_555
H9_2 C13_2 1_555 1_555
C14_2 C1_2 1_555 1_555
H10_2 C14_2 1_555 1_555
C15_2 C13_2 1_555 1_555
C17_2 C2_2 1_555 1_555
H13_2 C17_2 1_555 1_555
C20_2 C9_2 1_555 1_555
C23_2 C15_2 1_555 1_555
H16_2 C23_2 1_555 1_555
H17_2 C24_2 1_555 1_555
C26_2 C15_2 1_555 1_555
C30_2 C24_2 1_555 1_555
H23_2 C30_2 1_555 1_555
C2_2 C5_2 1_555 1_555
C9_2 C17_2 1_555 1_555
N2_2 C27_2 1_555 1_555
C29_2 N2_2 1_555 1_555
H22_2 C29_2 1_555 1_555
Mn7_2 N2_2 1_555 1_555
N4_2 Mn3 1_555 1_555
H4_2 N4_2 1_555 1_555
N7_2 Mn3 1_555 1_555
C28_2 H21_2 1_555 1_555
C32_2 C28_2 1_555 1_555
C28_2 C33_2 1_555 1_555
Mn5 O5_2 1_555 1_555
O11 C6_2 1_555 1_555
O5_2 C21_2 1_555 1_555
N1_2 H1_2 1_555 1_555
C4_2 H5_2 1_555 1_555
C6_2 C10_2 1_555 1_555
C7_2 H7_2 1_555 1_555
C8_2 N1_2 1_555 1_555
C10_2 C4_2 1_555 1_555
O9_2 Mn5 1_555 1_555
C11_2 C4_2 1_555 1_555
C12_2 C16_2 1_555 1_555
C16_2 N1_2 1_555 1_555
H11_2 C16_2 1_555 1_555
H12_2 C16_2 1_555 1_555
C18_2 C8_2 1_555 1_555
H14_2 C18_2 1_555 1_555
C21_2 O8_2 1_555 1_555
C22_2 C12_2 1_555 1_555
H15_2 C22_2 1_555 1_555
C31_2 C12_2 1_555 1_555
H24_2 C31_2 1_555 1_555
N6_2 Mn5 1_555 1_555
C7_2 C8_2 1_555 1_555
C7_2 C10_2 1_555 1_555
C11_2 C18_2 1_555 1_555
C11_2 C21_2 1_555 1_555
O9_2 H28_2 1_555 1_555
N5_2 C25_2 1_555 1_555
H18_2 C25_2 1_555 1_555
C34_2 N5_2 1_555 1_555
H27_2 C34_2 1_555 1_555
Mn4_2 N5_2 1_555 1_555
Mn4_2 O3_3 1_555 1_555
Mn7 O5_3 1_555 1_555
O1_2 C6_3 1_555 1_555
O2_2 C6_3 1_555 1_555
O3_3 C3_3 1_555 1_555
O4_3 Mn4_2 1_555 1_555
O5_3 C21_3 1_555 1_555
N1_3 H1_3 1_555 1_555
O6_2 C20_3 1_555 1_555
O7_2 C20_3 1_555 1_555
O8_3 Mn4_2 1_555 1_555
N6 C27_3 1_555 1_555
N3_3 H2_3 1_555 1_555
N4_3 Mn4_2 1_555 1_555
H3_3 N4_3 1_555 1_555
H4_3 N4_3 1_555 1_555
C1_3 N3_3 1_555 1_555
C2_3 C3_3 1_555 1_555
C3_3 O4_3 1_555 1_555
N7_2 C25_3 1_555 1_555
C4_3 H5_3 1_555 1_555
C5_3 C1_3 1_555 1_555
H6_3 C5_3 1_555 1_555
C6_3 C10_3 1_555 1_555
C7_3 H7_3 1_555 1_555
C8_3 N1_3 1_555 1_555
C9_3 C14_3 1_555 1_555
C10_3 C4_3 1_555 1_555
O9_3 Mn7 1_555 1_555
C11_3 C4_3 1_555 1_555
C12_3 C16_3 1_555 1_555
C13_3 N3_3 1_555 1_555
H8_3 C13_3 1_555 1_555
C14_3 C1_3 1_555 1_555
H10_3 C14_3 1_555 1_555
C15_3 C13_3 1_555 1_555
C16_3 N1_3 1_555 1_555
H11_3 C16_3 1_555 1_555
H12_3 C16_3 1_555 1_555
C17_3 C2_3 1_555 1_555
H13_3 C17_3 1_555 1_555
C18_3 C8_3 1_555 1_555
H14_3 C18_3 1_555 1_555
C19_3 N4_3 1_555 1_555
C20_3 C9_3 1_555 1_555
C21_3 O8_3 1_555 1_555
C22_3 C12_3 1_555 1_555
C23_3 C15_3 1_555 1_555
C24_3 C19_3 1_555 1_555
H17_3 C24_3 1_555 1_555
C25_3 C22_3 1_555 1_555
C26_3 C15_3 1_555 1_555
H19_3 C26_3 1_555 1_555
C27_3 C26_3 1_555 1_555
H20_2 C27_3 1_555 1_555
C28_3 H21_3 1_555 1_555
C29_3 N6 1_555 1_555
H22_3 C29_3 1_555 1_555
C30_3 C24_3 1_555 1_555
H23_3 C30_3 1_555 1_555
C31_3 C12_3 1_555 1_555
H24_3 C31_3 1_555 1_555
C32_3 C28_3 1_555 1_555
H25_2 C32_3 1_555 1_555
C33_3 C19_3 1_555 1_555
H26_3 C33_3 1_555 1_555
C34_3 N7_2 1_555 1_555
H27_3 C34_3 1_555 1_555
Mn4 O6_2 1_555 1_555
Mn7_2 O1_2 1_555 1_555
O10_2 Mn7 1_555 1_555
O12_2 Mn4_2 1_555 1_555
O13_2 Mn7 1_555 1_555
O2_2 Mn7_2 1_555 1_555
C2_3 C5_3 1_555 1_555
C7_3 C8_3 1_555 1_555
C7_3 C10_3 1_555 1_555
C9_3 C17_3 1_555 1_555
C11_3 C18_3 1_555 1_555
C11_3 C21_3 1_555 1_555
C23_3 C29_3 1_555 1_555
C28_3 C33_3 1_555 1_555
C30_3 C32_3 1_555 1_555
C31_3 C34_3 1_555 1_555
O9_3 H28_3 1_555 1_555
O9_3 H29_3 1_555 1_555
N7 C25_4 1_555 1_555
H18_4 C25_4 1_555 1_555
C34_4 N7 1_555 1_555
H27_4 C34_4 1_555 1_555
Mn7_2 O5_4 1_555 1_555
O11_2 C6_4 1_555 1_555
O5_4 C21_4 1_555 1_555
N1_4 H1_4 1_555 1_555
C4_4 H5_4 1_555 1_555
C6_4 C10_4 1_555 1_555
C7_4 H7_4 1_555 1_555
C8_4 N1_4 1_555 1_555
C10_4 C4_4 1_555 1_555
O9_4 Mn7_2 1_555 1_555
C11_4 C4_4 1_555 1_555
C12_4 C16_4 1_555 1_555
C16_4 N1_4 1_555 1_555
H11_4 C16_4 1_555 1_555
H12_4 C16_4 1_555 1_555
C18_4 C8_4 1_555 1_555
H14_4 C18_4 1_555 1_555
C21_4 O8_4 1_555 1_555
C22_4 C12_4 1_555 1_555
H15_4 C22_4 1_555 1_555
C31_4 C12_4 1_555 1_555
H24_4 C31_4 1_555 1_555
C7_4 C8_4 1_555 1_555
C7_4 C10_4 1_555 1_555
C11_4 C18_4 1_555 1_555
C11_4 C21_4 1_555 1_555
O9_4 H28_4 1_555 1_555
C28_4 H21_4 1_555 1_555
C32_4 C28_4 1_555 1_555
C28_4 C33_4 1_555 1_555
N4_4 Mn4 1_555 1_555
H4_4 N4_4 1_555 1_555
N6_2 C27_4 1_555 1_555
C29_4 N6_2 1_555 1_555
H22_4 C29_4 1_555 1_555
O3_4 C3_4 1_555 1_555
O12_2 C20_4 1_555 1_555
O13_2 C20_4 1_555 1_555
N3_4 H2_4 1_555 1_555
C1_4 N3_4 1_555 1_555
C2_4 C3_4 1_555 1_555
C3_4 O4_4 1_555 1_555
C5_4 C1_4 1_555 1_555
H6_4 C5_4 1_555 1_555
C9_4 C14_4 1_555 1_555
C13_4 N3_4 1_555 1_555
H8_4 C13_4 1_555 1_555
H9_3 C13_4 1_555 1_555
C14_4 C1_4 1_555 1_555
H10_4 C14_4 1_555 1_555
C15_4 C13_4 1_555 1_555
C17_4 C2_4 1_555 1_555
H13_4 C17_4 1_555 1_555
C20_4 C9_4 1_555 1_555
C23_4 C15_4 1_555 1_555
H16_3 C23_4 1_555 1_555
H17_4 C24_4 1_555 1_555
C26_4 C15_4 1_555 1_555
C30_4 C24_4 1_555 1_555
H23_4 C30_4 1_555 1_555
C2_4 C5_4 1_555 1_555
C9_4 C17_4 1_555 1_555

#END
