
###############################################################################
#
# This file contains modified crystal structure data generated from the
# MOF subset of the Cambridge Structural Database (CSD) v543 
# hosted by the Cambridge Crystallographic Data Centre (CCDC).
#
# This work is licensed under the Creative Commons
# Attribution-NonCommercial-ShareAlike 4.0 International License.
# To view a copy of this license, visit
# http://creativecommons.org/licenses/by-nc-sa/4.0/
# or send a letter to
# Creative Commons, PO Box 1866, Mountain View, CA 94042, USA.
#
# CIF created using the CSD Python API on 29 September 2022
# The structure has been converted into the P1 space group
# The structure has a 3D framework
# The original CSD entry TUTGUL is in the monoclinic crystal system
# The framework has been calculated to contain at least 10.0% void space
# The void calculation uses a probe of radius 1.32A, grid spacing 0.4
#
###############################################################################

data_TUTGUL
_chemical_formula_moiety         '(C152 H120 Mn8 N24 O28)n'
_symmetry_cell_setting           triclinic
_symmetry_space_group_name_H-M   'P 1'
_symmetry_Int_Tables_number      1
_space_group_name_Hall           'P 1'
loop_
_symmetry_equiv_pos_site_id
_symmetry_equiv_pos_as_xyz
1 x,y,z
_cell_length_a                   16.386(5)
_cell_length_b                   14.990(3)
_cell_length_c                   18.184(6)
_cell_angle_alpha                90
_cell_angle_beta                 114.567(5)
_cell_angle_gamma                90
_cell_volume                     4062.14
loop_
_atom_site_label
_atom_site_type_symbol
_atom_site_fract_x
_atom_site_fract_y
_atom_site_fract_z
H30 H 0.0200 0.1189 0.0784
O1 O 0.12436(18) 0.52014(18) 0.78493(18)
O2 O 0.22603(17) 0.44901(18) 0.75757(17)
C1 C 0.0951(3) 0.3682(3) 0.7449(2)
N2 N 0.0961(2) 0.1388(2) 0.6700(2)
H1 H 0.1481 0.1368 0.6700
C3 C 0.1231(3) 0.2900(3) 0.7216(3)
H2 H 0.1799 0.2878 0.7217
C4 C 0.0682(3) 0.2150(3) 0.6980(3)
C5 C 0.1525(3) 0.4498(3) 0.7642(2)
C6 C 0.0106(3) 0.3719(2) 0.7460(2)
C9 C 0.0364(3) 0.0631(3) 0.6423(3)
H6 H 0.0100 0.0521 0.6802
H7 H 0.0712 0.0108 0.6420
H9 H 0.0070 0.1858 0.5256
Mn3 Mn 0.22725(4) 0.60682(4) 0.77161(4)
C36 C 0.0140(4) 0.1235(4) 0.9667(4)
H28 H 0.0752 0.1300 0.9811
Mn1 Mn 0.72725(4) 0.10682(4) 0.27161(4)
O3 O 0.81643(17) 0.23095(18) 0.70549(19)
O4 O 0.83997(18) 0.37264(18) 0.74510(19)
N1 N 0.8232(2) 0.0938(2) 0.4029(2)
C2 C 0.9548(3) 0.2972(3) 0.7234(2)
N3 N 0.6339(3) 0.1116(2) 0.1382(2)
H3 H 0.9915 0.4241 0.7617
C7 C 0.9831(3) 0.2201(3) 0.6986(3)
H4 H 0.9450 0.1710 0.6822
C10 C 0.8638(3) 0.3005(3) 0.7250(3)
C11 C 0.9619(3) 0.0753(3) 0.5586(3)
C12 C 0.8254(3) 0.0259(4) 0.4512(3)
C13 C 0.9608(3) 0.1440(3) 0.5085(3)
C14 C 0.8920(3) 0.0154(3) 0.5287(3)
C15 C 0.8915(4) 0.1512(3) 0.4330(3)
H11 H 0.8922 0.1991 0.4008
C16 C 0.5459(4) 0.1210(3) 0.1133(4)
H12 H 0.5234 0.1262 0.1524
C17 C 0.4860(4) 0.1235(4) 0.0333(4)
H13 H 0.4248 0.1300 0.0189
C18 C 0.6632(4) 0.1035(4) 0.0803(4)
H14 H 0.7245 0.0962 0.0953
Mn2 Mn 0.77275(4) 0.10682(4) 0.72839(4)
Mn4 Mn 0.27275(4) 0.60682(4) 0.22839(4)
Mn5 Mn 0.77275(4) 0.39318(4) 0.22839(4)
Mn6 Mn 0.72725(4) 0.39318(4) 0.77161(4)
O5 O 0.37564(18) 0.52014(18) 0.21507(18)
O6 O 0.62436(18) 0.02014(18) 0.28493(18)
O7 O 0.87564(18) 0.02014(18) 0.71507(18)
O8 O 0.27397(17) 0.44901(18) 0.24243(17)
O11 O 0.68357(17) 0.23095(18) 0.29451(19)
O12 O 0.66003(18) 0.37264(18) 0.25490(19)
O13 O 0.66003(18) 0.12736(18) 0.75490(19)
O14 O 0.83997(18) 0.12736(18) 0.24510(19)
C20 C 0.4049(3) 0.3682(3) 0.2551(2)
N4 N 0.6768(2) 0.0938(2) 0.5971(2)
N5 N 0.4039(2) 0.1388(2) 0.3300(2)
H16 H 0.3519 0.1368 0.3300
C21 C 0.5452(3) 0.2972(3) 0.2766(2)
C22 C 0.3769(3) 0.2900(3) 0.2784(3)
H17 H 0.3201 0.2878 0.2783
C23 C 0.4318(3) 0.2150(3) 0.3020(3)
C24 C 0.3475(3) 0.4498(3) 0.2358(2)
N6 N 0.8661(3) 0.1116(2) 0.8618(2)
C25 C 0.4894(3) 0.3719(2) 0.2540(2)
H18 H 0.5085 0.4241 0.2383
C26 C 0.5169(3) 0.2201(3) 0.3014(3)
H19 H 0.5550 0.1710 0.3178
C28 C 0.4636(3) 0.0631(3) 0.3577(3)
H21 H 0.4900 0.0521 0.3198
H22 H 0.4288 0.0108 0.3580
C29 C 0.6362(3) 0.3005(3) 0.2750(3)
C30 C 0.5381(3) 0.0753(3) 0.4414(3)
C31 C 0.6746(3) 0.0259(4) 0.5488(3)
C32 C 0.5392(3) 0.1440(3) 0.4915(3)
H24 H 0.4930 0.1858 0.4744
C33 C 0.6080(3) 0.0154(3) 0.4713(3)
C34 C 0.6085(4) 0.1512(3) 0.5670(3)
H26 H 0.6078 0.1991 0.5992
C35 C 0.9541(4) 0.1210(3) 0.8867(4)
H27 H 0.9766 0.1262 0.8476
C37 C 0.8368(4) 0.1035(4) 0.9197(4)
H29 H 0.7755 0.0962 0.9047
H8 H 0.7798 0.9836 0.4319
H10 H 0.8895 0.9677 0.5604
O9 O 0.72603(17) 0.94901(18) 0.25757(17)
O10 O 0.77397(17) 0.94901(18) 0.74243(17)
H23 H 0.7202 0.9836 0.5681
H25 H 0.6105 0.9677 0.4396
O3_2 O 0.31643(17) 0.73095(18) 0.20549(19)
O4_2 O 0.33997(18) 0.87264(18) 0.24510(19)
C1_2 C 0.5951(3) 0.8682(3) 0.2449(2)
N2_2 N 0.5961(2) 0.6388(2) 0.1700(2)
H1_2 H 0.6481 0.6368 0.1700
C2_2 C 0.4548(3) 0.7972(3) 0.2234(2)
C3_2 C 0.6231(3) 0.7900(3) 0.2216(3)
H2_2 H 0.6799 0.7878 0.2217
C4_2 C 0.5682(3) 0.7150(3) 0.1980(3)
C5_2 C 0.6525(3) 0.9498(3) 0.2642(2)
C6_2 C 0.5106(3) 0.8719(2) 0.2460(2)
H3_2 H 0.4915 0.9241 0.2617
C7_2 C 0.4831(3) 0.7201(3) 0.1986(3)
H4_2 H 0.4450 0.6710 0.1822
C9_2 C 0.5364(3) 0.5631(3) 0.1423(3)
H6_2 H 0.5100 0.5521 0.1802
H7_2 H 0.5712 0.5108 0.1420
C10_2 C 0.3638(3) 0.8005(3) 0.2250(3)
C11_2 C 0.4619(3) 0.5753(3) 0.0586(3)
C13_2 C 0.4608(3) 0.6440(3) 0.0085(3)
H9_2 H 0.5070 0.6858 0.0256
C14_2 C 0.3920(3) 0.5154(3) 0.0287(3)
H10_2 H 0.3895 0.4677 0.0604
Mn6_2 Mn 0.22725(4) 0.89318(4) 0.27161(4)
O13_2 O 0.16003(18) 0.62736(18) 0.25490(19)
N4_2 N 0.1768(2) 0.5938(2) 0.0971(2)
N6_2 N 0.3661(3) 0.6116(2) 0.3618(2)
C27 C 0.3932(6) 0.6054(5) 0.5010(4)
H20 H 0.3701 0.5991 0.5396
C31_2 C 0.1746(3) 0.5259(4) 0.0488(3)
H23_2 H 0.2202 0.4836 0.0681
C34_2 C 0.1085(4) 0.6512(3) 0.0670(3)
H26_2 H 0.1078 0.6991 0.0992
C35_2 C 0.4541(4) 0.6210(3) 0.3867(4)
H27_2 H 0.4766 0.6262 0.3476
C36_2 C 0.5140(4) 0.6235(4) 0.4667(4)
H28_2 H 0.5752 0.6300 0.4811
C37_2 C 0.3368(4) 0.6035(4) 0.4197(4)
H29_2 H 0.2755 0.5962 0.4047
C38 C 0.4814(6) 0.6163(4) 0.5238(4)
H30_2 H 0.5200 0.6189 0.5784
N1_2 N 0.3232(2) 0.5938(2) 0.9029(2)
N3_2 N 0.1339(3) 0.6116(2) 0.6382(2)
C8 C 0.1068(6) 0.6054(5) 0.4990(4)
H5 H 0.1299 0.5991 0.4604
C12_2 C 0.3254(3) 0.5259(4) 0.9512(3)
H8_2 H 0.2798 0.4836 0.9319
C15_2 C 0.3915(4) 0.6512(3) 0.9330(3)
H11_2 H 0.3922 0.6991 0.9008
C16_2 C 0.0459(4) 0.6210(3) 0.6133(4)
H12_2 H 0.0234 0.6262 0.6524
C18_2 C 0.1632(4) 0.6035(4) 0.5803(4)
H14_2 H 0.2245 0.5962 0.5953
C19 C 0.0186(6) 0.6163(4) 0.4762(4)
Mn5_2 Mn 0.27275(4) 0.89318(4) 0.72839(4)
O11_2 O 0.18357(17) 0.73095(18) 0.79451(19)
O12_2 O 0.16003(18) 0.87264(18) 0.75490(19)
O14_2 O 0.33997(18) 0.62736(18) 0.74510(19)
C21_2 C 0.0452(3) 0.7972(3) 0.7766(2)
H18_2 H 0.0085 0.9241 0.7383
C26_2 C 0.0169(3) 0.7201(3) 0.8014(3)
H19_2 H 0.0550 0.6710 0.8178
C29_2 C 0.1362(3) 0.8005(3) 0.7750(3)
C30_2 C 0.0381(3) 0.5753(3) 0.9414(3)
C32_2 C 0.0392(3) 0.6440(3) 0.9915(3)
C33_2 C 0.1080(3) 0.5154(3) 0.9713(3)
H25_2 H 0.1105 0.4677 0.9396
C17_2 C 0.9860(4) 0.6235(4) 0.5333(4)
H13_2 H 0.9248 0.6300 0.5189
H15 H 0.9800 0.6189 0.4216
C20_2 C 0.9049(3) 0.8682(3) 0.7551(2)
N5_2 N 0.9039(2) 0.6388(2) 0.8300(2)
H16_2 H 0.8519 0.6368 0.8300
C22_2 C 0.8769(3) 0.7900(3) 0.7784(3)
H17_2 H 0.8201 0.7878 0.7783
C23_2 C 0.9318(3) 0.7150(3) 0.8020(3)
C24_2 C 0.8475(3) 0.9498(3) 0.7358(2)
C25_2 C 0.9894(3) 0.8719(2) 0.7540(2)
C28_2 C 0.9636(3) 0.5631(3) 0.8577(3)
H21_2 H 0.9900 0.5521 0.8198
H22_2 H 0.9288 0.5108 0.8580
H24_2 H 0.9930 0.6858 0.9744
H8_3 H 0.2202 0.0164 0.5681
H10_3 H 0.1105 0.0323 0.4396
O9_2 O 0.27397(17) 0.05099(18) 0.74243(17)
O10_2 O 0.22603(17) 0.05099(18) 0.25757(17)
H23_3 H 0.2798 0.0164 0.4319
H25_3 H 0.3895 0.0323 0.5604
O3_3 O 0.18357(17) 0.76905(18) 0.29451(19)
N1_3 N 0.1768(2) 0.9062(2) 0.5971(2)
C2_3 C 0.0452(3) 0.7028(3) 0.2766(2)
N3_3 N 0.3661(3) 0.8884(2) 0.8618(2)
H3_3 H 0.0085 0.5759 0.2383
C7_3 C 0.0169(3) 0.7799(3) 0.3014(3)
H4_3 H 0.0550 0.8290 0.3178
C10_3 C 0.1362(3) 0.6995(3) 0.2750(3)
C11_3 C 0.0381(3) 0.9247(3) 0.4414(3)
C12_3 C 0.1746(3) 0.9741(4) 0.5488(3)
C13_3 C 0.0392(3) 0.8560(3) 0.4915(3)
C14_3 C 0.1080(3) 0.9846(3) 0.4713(3)
C15_3 C 0.1085(4) 0.8488(3) 0.5670(3)
H11_3 H 0.1078 0.8009 0.5992
C16_3 C 0.4541(4) 0.8790(3) 0.8867(4)
H12_3 H 0.4766 0.8738 0.8476
C17_3 C 0.5140(4) 0.8765(4) 0.9667(4)
H13_3 H 0.5752 0.8700 0.9811
C18_3 C 0.3368(4) 0.8965(4) 0.9197(4)
H14_3 H 0.2755 0.9038 0.9047
O5_2 O 0.62436(18) 0.47986(18) 0.78493(18)
O6_2 O 0.37564(18) 0.97986(18) 0.71507(18)
O7_2 O 0.12436(18) 0.97986(18) 0.28493(18)
O8_2 O 0.72603(17) 0.55099(18) 0.75757(17)
O11_3 O 0.31643(17) 0.76905(18) 0.70549(19)
C20_3 C 0.5951(3) 0.6318(3) 0.7449(2)
N4_3 N 0.3232(2) 0.9062(2) 0.4029(2)
N5_3 N 0.5961(2) 0.8612(2) 0.6700(2)
H16_3 H 0.6481 0.8632 0.6700
C21_3 C 0.4548(3) 0.7028(3) 0.7234(2)
C22_3 C 0.6231(3) 0.7100(3) 0.7216(3)
H17_3 H 0.6799 0.7122 0.7217
C23_3 C 0.5682(3) 0.7850(3) 0.6980(3)
C24_3 C 0.6525(3) 0.5502(3) 0.7642(2)
N6_3 N 0.1339(3) 0.8884(2) 0.1382(2)
C25_3 C 0.5106(3) 0.6281(2) 0.7460(2)
H18_3 H 0.4915 0.5759 0.7617
C26_3 C 0.4831(3) 0.7799(3) 0.6986(3)
H19_3 H 0.4450 0.8290 0.6822
C28_3 C 0.5364(3) 0.9369(3) 0.6423(3)
H21_3 H 0.5100 0.9479 0.6802
H22_3 H 0.5712 0.9892 0.6420
C29_3 C 0.3638(3) 0.6995(3) 0.7250(3)
C30_3 C 0.4619(3) 0.9247(3) 0.5586(3)
C31_3 C 0.3254(3) 0.9741(4) 0.4512(3)
C32_3 C 0.4608(3) 0.8560(3) 0.5085(3)
H24_3 H 0.5070 0.8142 0.5256
C33_3 C 0.3920(3) 0.9846(3) 0.5287(3)
C34_3 C 0.3915(4) 0.8488(3) 0.4330(3)
H26_3 H 0.3922 0.8009 0.4008
C35_3 C 0.0459(4) 0.8790(3) 0.1133(4)
H27_3 H 0.0234 0.8738 0.1524
C37_3 C 0.1632(4) 0.8965(4) 0.0803(4)
H29_3 H 0.2245 0.9038 0.0953
O1_2 O 0.87564(18) 0.47986(18) 0.21507(18)
O2_2 O 0.77397(17) 0.55099(18) 0.24243(17)
C1_3 C 0.9049(3) 0.6318(3) 0.2551(2)
N2_3 N 0.9039(2) 0.8612(2) 0.3300(2)
H1_3 H 0.8519 0.8632 0.3300
C3_3 C 0.8769(3) 0.7100(3) 0.2784(3)
H2_3 H 0.8201 0.7122 0.2783
C4_3 C 0.9318(3) 0.7850(3) 0.3020(3)
C5_3 C 0.8475(3) 0.5502(3) 0.2358(2)
C6_3 C 0.9894(3) 0.6281(2) 0.2540(2)
C9_3 C 0.9636(3) 0.9369(3) 0.3577(3)
H6_3 H 0.9900 0.9479 0.3198
H7_3 H 0.9288 0.9892 0.3580
H9_3 H 0.9930 0.8142 0.4744
C36_3 C 0.9860(4) 0.8765(4) 0.0333(4)
H28_3 H 0.9248 0.8700 0.0189
C17_4 C 0.0140(4) 0.3765(4) 0.4667(4)
H13_4 H 0.0752 0.3700 0.4811
H15_2 H 0.0200 0.3811 0.5784
C20_4 C 0.0951(3) 0.1318(3) 0.2449(2)
N5_4 N 0.0961(2) 0.3612(2) 0.1700(2)
H16_4 H 0.1481 0.3632 0.1700
C22_4 C 0.1231(3) 0.2100(3) 0.2216(3)
H17_4 H 0.1799 0.2122 0.2217
C23_4 C 0.0682(3) 0.2850(3) 0.1980(3)
C24_4 C 0.1525(3) 0.0502(3) 0.2642(2)
C25_4 C 0.0106(3) 0.1281(2) 0.2460(2)
C28_4 C 0.0364(3) 0.4369(3) 0.1423(3)
H21_4 H 0.0100 0.4479 0.1802
H22_4 H 0.0712 0.4892 0.1420
H24_4 H 0.0070 0.3142 0.0256
N1_4 N 0.6768(2) 0.4062(2) 0.0971(2)
N3_4 N 0.8661(3) 0.3884(2) 0.3618(2)
C8_2 C 0.8932(6) 0.3946(5) 0.5010(4)
H5_2 H 0.8701 0.4009 0.5396
C12_4 C 0.6746(3) 0.4741(4) 0.0488(3)
H8_4 H 0.7202 0.5164 0.0681
C15_4 C 0.6085(4) 0.3488(3) 0.0670(3)
H11_4 H 0.6078 0.3009 0.0992
C16_4 C 0.9541(4) 0.3790(3) 0.3867(4)
H12_4 H 0.9766 0.3738 0.3476
C18_4 C 0.8368(4) 0.3965(4) 0.4197(4)
H14_4 H 0.7755 0.4038 0.4047
C19_2 C 0.9814(6) 0.3837(4) 0.5238(4)
O11_4 O 0.81643(17) 0.26905(18) 0.20549(19)
C21_4 C 0.9548(3) 0.2028(3) 0.2234(2)
H18_4 H 0.9915 0.0759 0.2617
C26_4 C 0.9831(3) 0.2799(3) 0.1986(3)
H19_4 H 0.9450 0.3290 0.1822
C29_4 C 0.8638(3) 0.1995(3) 0.2250(3)
C30_4 C 0.9619(3) 0.4247(3) 0.0586(3)
C32_4 C 0.9608(3) 0.3560(3) 0.0085(3)
C33_4 C 0.8920(3) 0.4846(3) 0.0287(3)
H25_4 H 0.8895 0.5323 0.0604
O3_4 O 0.68357(17) 0.26905(18) 0.79451(19)
C1_4 C 0.4049(3) 0.1318(3) 0.7551(2)
N2_4 N 0.4039(2) 0.3612(2) 0.8300(2)
H1_4 H 0.3519 0.3632 0.8300
C2_4 C 0.5452(3) 0.2028(3) 0.7766(2)
C3_4 C 0.3769(3) 0.2100(3) 0.7784(3)
H2_4 H 0.3201 0.2122 0.7783
C4_4 C 0.4318(3) 0.2850(3) 0.8020(3)
C5_4 C 0.3475(3) 0.0502(3) 0.7358(2)
C6_4 C 0.4894(3) 0.1281(2) 0.7540(2)
H3_4 H 0.5085 0.0759 0.7383
C7_4 C 0.5169(3) 0.2799(3) 0.8014(3)
H4_4 H 0.5550 0.3290 0.8178
C9_4 C 0.4636(3) 0.4369(3) 0.8577(3)
H6_4 H 0.4900 0.4479 0.8198
H7_4 H 0.4288 0.4892 0.8580
C10_4 C 0.6362(3) 0.1995(3) 0.7750(3)
C11_4 C 0.5381(3) 0.4247(3) 0.9414(3)
C13_4 C 0.5392(3) 0.3560(3) 0.9915(3)
H9_4 H 0.4930 0.3142 0.9744
C14_4 C 0.6080(3) 0.4846(3) 0.9713(3)
H10_4 H 0.6105 0.5323 0.9396
N4_4 N 0.8232(2) 0.4062(2) 0.9029(2)
N6_4 N 0.6339(3) 0.3884(2) 0.6382(2)
C27_2 C 0.6068(6) 0.3946(5) 0.4990(4)
H20_2 H 0.6299 0.4009 0.4604
C31_4 C 0.8254(3) 0.4741(4) 0.9512(3)
H23_4 H 0.7798 0.5164 0.9319
C34_4 C 0.8915(4) 0.3488(3) 0.9330(3)
H26_4 H 0.8922 0.3009 0.9008
C35_4 C 0.5459(4) 0.3790(3) 0.6133(4)
H27_4 H 0.5234 0.3738 0.6524
C36_4 C 0.4860(4) 0.3765(4) 0.5333(4)
H28_4 H 0.4248 0.3700 0.5189
C37_4 C 0.6632(4) 0.3965(4) 0.5803(4)
H29_4 H 0.7245 0.4038 0.5953
C38_2 C 0.5186(6) 0.3837(4) 0.4762(4)
H30_3 H 0.4800 0.3811 0.4216
C27_3 C 0.8932(6) 0.1054(5) 0.0010(4)
H20_3 H 0.8701 0.0991 0.0396
C38_3 C 0.9814(6) 0.1163(4) 0.0238(4)
C8_3 C 0.6068(6) 0.1054(5) 0.9990(4)
H5_3 H 0.6299 0.0991 0.9604
C19_3 C 0.5186(6) 0.1163(4) 0.9762(4)
H15_3 H 0.4800 0.1189 0.9216
C8_4 C 0.3932(6) 0.8946(5) 0.0010(4)
H5_4 H 0.3701 0.9009 0.0396
C19_4 C 0.4814(6) 0.8837(4) 0.0238(4)
H15_4 H 0.5200 0.8811 0.0784
C27_4 C 0.1068(6) 0.8946(5) 0.9990(4)
H20_4 H 0.1299 0.9009 0.9604
C38_4 C 0.0186(6) 0.8837(4) 0.9762(4)
H30_4 H 0.9800 0.8811 0.9216
loop_
_geom_bond_atom_site_label_1
_geom_bond_atom_site_label_2
_geom_bond_site_symmetry_1
_geom_bond_site_symmetry_2
O1 C5 1_555 1_555
O2 C5 1_555 1_555
C1 C3 1_555 1_555
N2 H1 1_555 1_555
C3 H2 1_555 1_555
C4 N2 1_555 1_555
C5 C1 1_555 1_555
C6 C1 1_555 1_555
C9 N2 1_555 1_555
H6 C9 1_555 1_555
H7 C9 1_555 1_555
Mn3 O1 1_555 1_555
H28 C36 1_555 1_555
O2 Mn3 1_555 1_555
C3 C4 1_555 1_555
Mn1 N1 1_555 1_555
O3 C10 1_555 1_555
O4 C10 1_555 1_555
N1 C12 1_555 1_555
N3 Mn1 1_555 1_555
C7 C2 1_555 1_555
H4 C7 1_555 1_555
C10 C2 1_555 1_555
C13 C11 1_555 1_555
C14 C11 1_555 1_555
C15 N1 1_555 1_555
H11 C15 1_555 1_555
C16 N3 1_555 1_555
H12 C16 1_555 1_555
C17 C16 1_555 1_555
H13 C17 1_555 1_555
C18 N3 1_555 1_555
H14 C18 1_555 1_555
Mn2 O3 1_555 1_555
Mn4 O5 1_555 1_555
Mn5 O12 1_555 1_555
Mn6 O4 1_555 1_555
O5 C24 1_555 1_555
O6 Mn1 1_555 1_555
O7 Mn2 1_555 1_555
O8 Mn4 1_555 1_555
O11 Mn1 1_555 1_555
O12 C29 1_555 1_555
O13 Mn2 1_555 1_555
O14 Mn1 1_555 1_555
C20 C22 1_555 1_555
N4 Mn2 1_555 1_555
N5 H16 1_555 1_555
C21 C25 1_555 1_555
C22 H17 1_555 1_555
C23 N5 1_555 1_555
C24 O8 1_555 1_555
N6 Mn2 1_555 1_555
C25 C20 1_555 1_555
H18 C25 1_555 1_555
C26 C21 1_555 1_555
H19 C26 1_555 1_555
C28 N5 1_555 1_555
H21 C28 1_555 1_555
H22 C28 1_555 1_555
C29 O11 1_555 1_555
C30 C28 1_555 1_555
C31 N4 1_555 1_555
C32 C30 1_555 1_555
H24 C32 1_555 1_555
C33 C30 1_555 1_555
C34 N4 1_555 1_555
H26 C34 1_555 1_555
C35 N6 1_555 1_555
H27 C35 1_555 1_555
C37 N6 1_555 1_555
H29 C37 1_555 1_555
C12 C14 1_555 1_555
C13 C15 1_555 1_555
C20 C24 1_555 1_555
C21 C29 1_555 1_555
C22 C23 1_555 1_555
C23 C26 1_555 1_555
C31 C33 1_555 1_555
C32 C34 1_555 1_555
O9 C5_2 1_555 1_555
O3_2 C10_2 1_555 1_555
O4_2 C10_2 1_555 1_555
C1_2 C3_2 1_555 1_555
N2_2 H1_2 1_555 1_555
C2_2 C6_2 1_555 1_555
C3_2 H2_2 1_555 1_555
C4_2 N2_2 1_555 1_555
C5_2 C1_2 1_555 1_555
C6_2 C1_2 1_555 1_555
H3_2 C6_2 1_555 1_555
C7_2 C2_2 1_555 1_555
H4_2 C7_2 1_555 1_555
C9_2 N2_2 1_555 1_555
H6_2 C9_2 1_555 1_555
H7_2 C9_2 1_555 1_555
C10_2 C2_2 1_555 1_555
C11_2 C9_2 1_555 1_555
C13_2 C11_2 1_555 1_555
H9_2 C13_2 1_555 1_555
C14_2 C11_2 1_555 1_555
H10_2 C14_2 1_555 1_555
Mn4 O3_2 1_555 1_555
Mn6_2 O4_2 1_555 1_555
O13_2 Mn4 1_555 1_555
N4_2 Mn4 1_555 1_555
N6_2 Mn4 1_555 1_555
C27 H20 1_555 1_555
C31_2 N4_2 1_555 1_555
H23_2 C31_2 1_555 1_555
C34_2 N4_2 1_555 1_555
H26_2 C34_2 1_555 1_555
C35_2 N6_2 1_555 1_555
H27_2 C35_2 1_555 1_555
C36_2 C35_2 1_555 1_555
H28_2 C36_2 1_555 1_555
C37_2 N6_2 1_555 1_555
H29_2 C37_2 1_555 1_555
C38 C27 1_555 1_555
H30_2 C38 1_555 1_555
C3_2 C4_2 1_555 1_555
C4_2 C7_2 1_555 1_555
C27 C37_2 1_555 1_555
C36_2 C38 1_555 1_555
Mn3 N1_2 1_555 1_555
N1_2 C12_2 1_555 1_555
N3_2 Mn3 1_555 1_555
C8 H5 1_555 1_555
C12_2 H8_2 1_555 1_555
C15_2 N1_2 1_555 1_555
H11_2 C15_2 1_555 1_555
C16_2 N3_2 1_555 1_555
H12_2 C16_2 1_555 1_555
C18_2 N3_2 1_555 1_555
H14_2 C18_2 1_555 1_555
C19 C8 1_555 1_555
Mn5_2 O12_2 1_555 1_555
O11_2 Mn3 1_555 1_555
O12_2 C29_2 1_555 1_555
O14_2 Mn3 1_555 1_555
C26_2 C21_2 1_555 1_555
H19_2 C26_2 1_555 1_555
C29_2 O11_2 1_555 1_555
C32_2 C30_2 1_555 1_555
C33_2 C30_2 1_555 1_555
H25_2 C33_2 1_555 1_555
C8 C18_2 1_555 1_555
C21_2 C29_2 1_555 1_555
H13_2 C17_2 1_555 1_555
C20_2 C22_2 1_555 1_555
N5_2 H16_2 1_555 1_555
C22_2 H17_2 1_555 1_555
C23_2 N5_2 1_555 1_555
C24_2 O10 1_555 1_555
C25_2 C20_2 1_555 1_555
C28_2 N5_2 1_555 1_555
H21_2 C28_2 1_555 1_555
H22_2 C28_2 1_555 1_555
C20_2 C24_2 1_555 1_555
C22_2 C23_2 1_555 1_555
Mn5_2 N1_3 1_555 1_555
O3_3 C10_3 1_555 1_555
O13_2 C10_3 1_555 1_555
N1_3 C12_3 1_555 1_555
N3_3 Mn5_2 1_555 1_555
C7_3 C2_3 1_555 1_555
H4_3 C7_3 1_555 1_555
C10_3 C2_3 1_555 1_555
C13_3 C11_3 1_555 1_555
C14_3 C11_3 1_555 1_555
C15_3 N1_3 1_555 1_555
H11_3 C15_3 1_555 1_555
C16_3 N3_3 1_555 1_555
H12_3 C16_3 1_555 1_555
C17_3 C16_3 1_555 1_555
H13_3 C17_3 1_555 1_555
C18_3 N3_3 1_555 1_555
H14_3 C18_3 1_555 1_555
Mn6_2 O3_3 1_555 1_555
Mn6 O5_2 1_555 1_555
O5_2 C24_3 1_555 1_555
O6_2 Mn5_2 1_555 1_555
O7_2 Mn6_2 1_555 1_555
O8_2 Mn6 1_555 1_555
O11_3 Mn5_2 1_555 1_555
O14_2 C29_3 1_555 1_555
C20_3 C22_3 1_555 1_555
N4_3 Mn6_2 1_555 1_555
N5_3 H16_3 1_555 1_555
C21_3 C25_3 1_555 1_555
C22_3 H17_3 1_555 1_555
C23_3 N5_3 1_555 1_555
C24_3 O8_2 1_555 1_555
N6_3 Mn6_2 1_555 1_555
C25_3 C20_3 1_555 1_555
H18_3 C25_3 1_555 1_555
C26_3 C21_3 1_555 1_555
H19_3 C26_3 1_555 1_555
C28_3 N5_3 1_555 1_555
H21_3 C28_3 1_555 1_555
H22_3 C28_3 1_555 1_555
C29_3 O11_3 1_555 1_555
C30_3 C28_3 1_555 1_555
C31_3 N4_3 1_555 1_555
C32_3 C30_3 1_555 1_555
H24_3 C32_3 1_555 1_555
C33_3 C30_3 1_555 1_555
C34_3 N4_3 1_555 1_555
H26_3 C34_3 1_555 1_555
C35_3 N6_3 1_555 1_555
H27_3 C35_3 1_555 1_555
C37_3 N6_3 1_555 1_555
H29_3 C37_3 1_555 1_555
C12_3 C14_3 1_555 1_555
C13_3 C15_3 1_555 1_555
C20_3 C24_3 1_555 1_555
C21_3 C29_3 1_555 1_555
C22_3 C23_3 1_555 1_555
C23_3 C26_3 1_555 1_555
C31_3 C33_3 1_555 1_555
C32_3 C34_3 1_555 1_555
O1_2 C5_3 1_555 1_555
O2_2 C5_3 1_555 1_555
C1_3 C3_3 1_555 1_555
N2_3 H1_3 1_555 1_555
C3_3 H2_3 1_555 1_555
C4_3 N2_3 1_555 1_555
C5_3 C1_3 1_555 1_555
C6_3 C1_3 1_555 1_555
C9_3 N2_3 1_555 1_555
H6_3 C9_3 1_555 1_555
H7_3 C9_3 1_555 1_555
Mn5 O1_2 1_555 1_555
H28_3 C36_3 1_555 1_555
O2_2 Mn5 1_555 1_555
C3_3 C4_3 1_555 1_555
H13_4 C17_4 1_555 1_555
C20_4 C22_4 1_555 1_555
N5_4 H16_4 1_555 1_555
C22_4 H17_4 1_555 1_555
C23_4 N5_4 1_555 1_555
C24_4 O10_2 1_555 1_555
C25_4 C20_4 1_555 1_555
C28_4 N5_4 1_555 1_555
H21_4 C28_4 1_555 1_555
H22_4 C28_4 1_555 1_555
C20_4 C24_4 1_555 1_555
C22_4 C23_4 1_555 1_555
Mn5 N1_4 1_555 1_555
N1_4 C12_4 1_555 1_555
N3_4 Mn5 1_555 1_555
C8_2 H5_2 1_555 1_555
C12_4 H8_4 1_555 1_555
C15_4 N1_4 1_555 1_555
H11_4 C15_4 1_555 1_555
C16_4 N3_4 1_555 1_555
H12_4 C16_4 1_555 1_555
C18_4 N3_4 1_555 1_555
H14_4 C18_4 1_555 1_555
C19_2 C8_2 1_555 1_555
O11_4 Mn5 1_555 1_555
O14 C29_4 1_555 1_555
C26_4 C21_4 1_555 1_555
H19_4 C26_4 1_555 1_555
C29_4 O11_4 1_555 1_555
C32_4 C30_4 1_555 1_555
C33_4 C30_4 1_555 1_555
H25_4 C33_4 1_555 1_555
C8_2 C18_4 1_555 1_555
C21_4 C29_4 1_555 1_555
O9_2 C5_4 1_555 1_555
O3_4 C10_4 1_555 1_555
O13 C10_4 1_555 1_555
C1_4 C3_4 1_555 1_555
N2_4 H1_4 1_555 1_555
C2_4 C6_4 1_555 1_555
C3_4 H2_4 1_555 1_555
C4_4 N2_4 1_555 1_555
C5_4 C1_4 1_555 1_555
C6_4 C1_4 1_555 1_555
H3_4 C6_4 1_555 1_555
C7_4 C2_4 1_555 1_555
H4_4 C7_4 1_555 1_555
C9_4 N2_4 1_555 1_555
H6_4 C9_4 1_555 1_555
H7_4 C9_4 1_555 1_555
C10_4 C2_4 1_555 1_555
C11_4 C9_4 1_555 1_555
C13_4 C11_4 1_555 1_555
H9_4 C13_4 1_555 1_555
C14_4 C11_4 1_555 1_555
H10_4 C14_4 1_555 1_555
Mn6 O3_4 1_555 1_555
N4_4 Mn6 1_555 1_555
N6_4 Mn6 1_555 1_555
C27_2 H20_2 1_555 1_555
C31_4 N4_4 1_555 1_555
H23_4 C31_4 1_555 1_555
C34_4 N4_4 1_555 1_555
H26_4 C34_4 1_555 1_555
C35_4 N6_4 1_555 1_555
H27_4 C35_4 1_555 1_555
C36_4 C35_4 1_555 1_555
H28_4 C36_4 1_555 1_555
C37_4 N6_4 1_555 1_555
H29_4 C37_4 1_555 1_555
C38_2 C27_2 1_555 1_555
H30_3 C38_2 1_555 1_555
C3_4 C4_4 1_555 1_555
C4_4 C7_4 1_555 1_555
C27_2 C37_4 1_555 1_555
C36_4 C38_2 1_555 1_555
C27_3 H20_3 1_555 1_555
C38_3 C27_3 1_555 1_555
C8_3 H5_3 1_555 1_555
C19_3 C8_3 1_555 1_555
H15_3 C19_3 1_555 1_555
C8_4 H5_4 1_555 1_555
C19_4 C8_4 1_555 1_555
H15_4 C19_4 1_555 1_555
C27_4 H20_4 1_555 1_555
C38_4 C27_4 1_555 1_555

#END
