
###############################################################################
#
# This file contains modified crystal structure data generated from the
# MOF subset of the Cambridge Structural Database (CSD) v543 
# hosted by the Cambridge Crystallographic Data Centre (CCDC).
#
# This work is licensed under the Creative Commons
# Attribution-NonCommercial-ShareAlike 4.0 International License.
# To view a copy of this license, visit
# http://creativecommons.org/licenses/by-nc-sa/4.0/
# or send a letter to
# Creative Commons, PO Box 1866, Mountain View, CA 94042, USA.
#
# CIF created using the CSD Python API on 29 September 2022
# The structure has been converted into the P1 space group
# The structure has a 3D framework
# The original CSD entry TUTHUM is in the monoclinic crystal system
# The framework has been calculated to contain at least 10.0% void space
# The void calculation uses a probe of radius 1.32A, grid spacing 0.4
#
###############################################################################

data_TUTHUM
_chemical_formula_moiety         '(C152 H120 Mn8 N24 O28)n'
_symmetry_cell_setting           triclinic
_symmetry_space_group_name_H-M   'P 1'
_symmetry_Int_Tables_number      1
_space_group_name_Hall           'P 1'
loop_
_symmetry_equiv_pos_site_id
_symmetry_equiv_pos_as_xyz
1 x,y,z
_cell_length_a                   17.950(7)
_cell_length_b                   15.228(5)
_cell_length_c                   16.336(6)
_cell_angle_alpha                90
_cell_angle_beta                 114.960(4)
_cell_angle_gamma                90
_cell_volume                     4048.28
loop_
_atom_site_label
_atom_site_type_symbol
_atom_site_fract_x
_atom_site_fract_y
_atom_site_fract_z
C35 C 0.0281(3) 0.8823(3) 0.5108(3)
H27 H 0.0835 0.8814 0.5225
C38 C 0.0063(4) 0.874(3) 0.5800(4)
H30 H 0.0465 0.8703 0.6389
H7 H 0.5657 0.0208 0.1772
H9 H 0.4330 0.0061 0.1541
O12 O 0.2548(3) 0.0445(2) 0.0333(2)
O13 O 0.7452(3) 0.0445(2) 0.4667(2)
H22 H 0.4343 0.0208 0.3228
H24 H 0.5670 0.0061 0.3459
Mn1 Mn 0.27004(6) 0.89159(7) 0.04520(7)
O1 O 0.7429(3) 0.6301(2) 0.4074(3)
O2 O 0.7842(3) 0.4763(2) 0.1623(3)
O3 O 0.7548(3) 0.5445(2) 0.0333(2)
O4 O 0.7019(3) 0.7691(2) 0.3904(3)
N1 N 0.6885(4) 0.8568(3) 0.0848(3)
H1 H 0.6960 0.8584 0.0362
C1 C 0.7255(4) 0.7018(3) 0.2723(3)
N2 N 0.4027(3) 0.9065(3) 0.0708(3)
C2 C 0.7469(4) 0.6267(3) 0.2392(3)
H2 H 0.7601 0.5755 0.2734
C3 C 0.6555(4) 0.9326(3) 0.1105(4)
H3 H 0.6590 0.9826 0.0756
H4 H 0.6893 0.9453 0.1737
C4 C 0.7291(4) 0.7046(4) 0.1044(4)
H5 H 0.7297 0.7052 0.0478
C5 C 0.7085(4) 0.7817(3) 0.1370(4)
C6 C 0.7487(4) 0.6280(3) 0.1542(4)
C7 C 0.5682(4) 0.9225(4) 0.0974(4)
C8 C 0.7058(4) 0.7789(3) 0.2210(4)
H6 H 0.6908 0.8289 0.2431
C9 C 0.7644(4) 0.5454(3) 0.1151(3)
C10 C 0.5339(3) 0.9769(3) 0.1388(3)
C11 C 0.7236(4) 0.7005(3) 0.3637(4)
N3 N 0.1379(4) 0.8805(4) 0.0203(4)
C12 C 0.5155(5) 0.8613(4) 0.0399(5)
H8 H 0.5345 0.8232 0.0085
C13 C 0.4536(4) 0.9675(3) 0.1246(3)
C14 C 0.4362(4) 0.8556(3) 0.0282(4)
C15 C 0.1113(4) 0.8926(4) 0.0875(5)
H11 H 0.1511 0.9021 0.1459
C18 C 0.0281(4) 0.8918(4) 0.0742(4)
H14 H 0.0134 0.8976 0.1222
Mn2 Mn 0.72996(6) 0.89159(7) 0.45480(7)
Mn3 Mn 0.77004(6) 0.39159(7) 0.04520(7)
Mn4 Mn 0.22996(6) 0.39159(7) 0.45480(7)
Mn6 Mn 0.77004(6) 0.60841(7) 0.54520(7)
O5 O 0.2571(3) 0.6301(2) 0.0926(3)
O6 O 0.7571(3) 0.8699(2) 0.5926(3)
O8 O 0.2158(3) 0.4763(2) 0.3377(3)
O9 O 0.2842(3) 0.9763(2) 0.1623(3)
O10 O 0.7158(3) 0.9763(2) 0.3377(3)
O11 O 0.2452(3) 0.5445(2) 0.4667(2)
O14 O 0.2981(3) 0.7691(2) 0.1096(3)
N4 N 0.3115(4) 0.8568(3) 0.4152(3)
H16 H 0.3040 0.8584 0.4638
C20 C 0.2745(4) 0.7018(3) 0.2277(3)
N5 N 0.5973(3) 0.9065(3) 0.4292(3)
C21 C 0.2531(4) 0.6267(3) 0.2608(3)
H17 H 0.2399 0.5755 0.2266
C22 C 0.3445(4) 0.9326(3) 0.3895(4)
H18 H 0.3410 0.9826 0.4244
H19 H 0.3107 0.9453 0.3263
C23 C 0.2709(4) 0.7046(4) 0.3956(4)
H20 H 0.2703 0.7052 0.4522
C24 C 0.2915(4) 0.7817(3) 0.3630(4)
C25 C 0.2513(4) 0.6280(3) 0.3458(4)
C26 C 0.4318(4) 0.9225(4) 0.4026(4)
C27 C 0.2942(4) 0.7789(3) 0.2790(4)
H21 H 0.3092 0.8289 0.2569
C28 C 0.2356(4) 0.5454(3) 0.3849(3)
C29 C 0.4661(3) 0.9769(3) 0.3612(3)
C30 C 0.2764(4) 0.7005(3) 0.1363(4)
N6 N 0.8621(4) 0.8805(4) 0.4797(4)
C31 C 0.4845(5) 0.8613(4) 0.4601(5)
H23 H 0.4655 0.8232 0.4915
C32 C 0.5464(4) 0.9675(3) 0.3754(3)
C33 C 0.5638(4) 0.8556(3) 0.4718(4)
H25 H 0.5972 0.8137 0.5120
C34 C 0.8887(4) 0.8926(4) 0.4125(5)
H26 H 0.8489 0.9021 0.3541
C36 C 0.9234(4) 0.8709(4) 0.5629(4)
H28 H 0.9097 0.8618 0.6112
C37 C 0.9719(4) 0.8918(4) 0.4258(4)
H29 H 0.9866 0.8976 0.3778
H10 H 0.4028 0.8137 0.9880
C17 C 0.0766(4) 0.8709(4) 0.9371(4)
H13 H 0.0903 0.8618 0.8888
Mn5 Mn 0.22996(6) 0.60841(7) 0.95480(7)
O7 O 0.2429(3) 0.8699(2) 0.9074(3)
O1_2 O 0.2429(3) 0.1301(2) 0.4074(3)
O4_2 O 0.2019(3) 0.2691(2) 0.3904(3)
N1_2 N 0.1885(4) 0.3568(3) 0.0848(3)
H1_2 H 0.1960 0.3584 0.0362
C1_2 C 0.2255(4) 0.2018(3) 0.2723(3)
C2_2 C 0.2469(4) 0.1267(3) 0.2392(3)
H2_2 H 0.2601 0.0755 0.2734
C3_2 C 0.1555(4) 0.4326(3) 0.1105(4)
H3_2 H 0.1590 0.4826 0.0756
H4_2 H 0.1893 0.4453 0.1737
C4_2 C 0.2291(4) 0.2046(4) 0.1044(4)
H5_2 H 0.2297 0.2052 0.0478
C5_2 C 0.2085(4) 0.2817(3) 0.1370(4)
C6_2 C 0.2487(4) 0.1280(3) 0.1542(4)
C7_2 C 0.0682(4) 0.4225(4) 0.0974(4)
C8_2 C 0.2058(4) 0.2789(3) 0.2210(4)
H6_2 H 0.1908 0.3289 0.2431
C9_2 C 0.2644(4) 0.0454(3) 0.1151(3)
C10_2 C 0.0339(3) 0.4769(3) 0.1388(3)
H7_2 H 0.0657 0.5208 0.1772
C11_2 C 0.2236(4) 0.2005(3) 0.3637(4)
C12_2 C 0.0155(5) 0.3613(4) 0.0399(5)
H8_2 H 0.0345 0.3232 0.0085
Mn6_2 Mn 0.27004(6) 0.10841(7) 0.54520(7)
O6_2 O 0.2571(3) 0.3699(2) 0.5926(3)
N5_2 N 0.0973(3) 0.4065(3) 0.4292(3)
N6_2 N 0.3621(4) 0.3805(4) 0.4797(4)
C32_2 C 0.0464(4) 0.4675(3) 0.3754(3)
H24_2 H 0.0670 0.5061 0.3459
C33_2 C 0.0638(4) 0.3556(3) 0.4718(4)
H25_2 H 0.0972 0.3137 0.5120
C34_2 C 0.3887(4) 0.3926(4) 0.4125(5)
H26_2 H 0.3489 0.4021 0.3541
C35_2 C 0.5281(3) 0.3823(3) 0.5108(3)
H27_2 H 0.5835 0.3814 0.5225
C36_2 C 0.4234(4) 0.3709(4) 0.5629(4)
H28_2 H 0.4097 0.3618 0.6112
C37_2 C 0.4719(4) 0.3918(4) 0.4258(4)
H29_2 H 0.4866 0.3976 0.3778
C38_2 C 0.5063(4) 0.374(3) 0.5800(4)
H30_2 H 0.5465 0.3703 0.6389
N2_2 N 0.9027(3) 0.4065(3) 0.0708(3)
N3_2 N 0.6379(4) 0.3805(4) 0.0203(4)
C13_2 C 0.9536(4) 0.4675(3) 0.1246(3)
H9_2 H 0.9330 0.5061 0.1541
C14_2 C 0.9362(4) 0.3556(3) 0.0282(4)
C15_2 C 0.6113(4) 0.3926(4) 0.0875(5)
H11_2 H 0.6511 0.4021 0.1459
C18_2 C 0.5281(4) 0.3918(4) 0.0742(4)
H14_2 H 0.5134 0.3976 0.1222
O5_2 O 0.7571(3) 0.1301(2) 0.0926(3)
O14_2 O 0.7981(3) 0.2691(2) 0.1096(3)
N4_2 N 0.8115(4) 0.3568(3) 0.4152(3)
H16_2 H 0.8040 0.3584 0.4638
C20_2 C 0.7745(4) 0.2018(3) 0.2277(3)
C21_2 C 0.7531(4) 0.1267(3) 0.2608(3)
H17_2 H 0.7399 0.0755 0.2266
C22_2 C 0.8445(4) 0.4326(3) 0.3895(4)
H18_2 H 0.8410 0.4826 0.4244
H19_2 H 0.8107 0.4453 0.3263
C23_2 C 0.7709(4) 0.2046(4) 0.3956(4)
H20_2 H 0.7703 0.2052 0.4522
C24_2 C 0.7915(4) 0.2817(3) 0.3630(4)
C25_2 C 0.7513(4) 0.1280(3) 0.3458(4)
C26_2 C 0.9318(4) 0.4225(4) 0.4026(4)
C27_2 C 0.7942(4) 0.2789(3) 0.2790(4)
H21_2 H 0.8092 0.3289 0.2569
C28_2 C 0.7356(4) 0.0454(3) 0.3849(3)
C29_2 C 0.9661(3) 0.4769(3) 0.3612(3)
H22_2 H 0.9343 0.5208 0.3228
C30_2 C 0.7764(4) 0.2005(3) 0.1363(4)
C31_2 C 0.9845(5) 0.3613(4) 0.4601(5)
H23_2 H 0.9655 0.3232 0.4915
H10_2 H 0.9028 0.3137 0.9880
C16 C 0.4719(3) 0.3823(3) 0.9892(3)
H12 H 0.4165 0.3814 0.9775
C17_2 C 0.5766(4) 0.3709(4) 0.9371(4)
H13_2 H 0.5903 0.3618 0.8888
C19 C 0.4937(4) 0.374(3) 0.9200(4)
H15 H 0.4535 0.3703 0.8611
Mn5_2 Mn 0.72996(6) 0.10841(7) 0.95480(7)
O7_2 O 0.7429(3) 0.3699(2) 0.9074(3)
H10_3 H 0.5972 0.1863 0.0120
C17_3 C 0.9234(4) 0.1291(4) 0.0629(4)
H13_3 H 0.9097 0.1382 0.1112
O2_2 O 0.2158(3) 0.5237(2) 0.8377(3)
O3_2 O 0.2452(3) 0.4555(2) 0.9667(2)
O4_3 O 0.2981(3) 0.2309(2) 0.6096(3)
N1_3 N 0.3115(4) 0.1432(3) 0.9152(3)
H1_3 H 0.3040 0.1416 0.9638
C1_3 C 0.2745(4) 0.2982(3) 0.7277(3)
N2_3 N 0.5973(3) 0.0935(3) 0.9292(3)
C2_3 C 0.2531(4) 0.3733(3) 0.7608(3)
H2_3 H 0.2399 0.4245 0.7266
C3_3 C 0.3445(4) 0.0674(3) 0.8895(4)
H3_3 H 0.3410 0.0174 0.9244
H4_3 H 0.3107 0.0547 0.8263
C4_3 C 0.2709(4) 0.2954(4) 0.8956(4)
H5_3 H 0.2703 0.2948 0.9522
C5_3 C 0.2915(4) 0.2183(3) 0.8630(4)
C6_3 C 0.2513(4) 0.3720(3) 0.8458(4)
C7_3 C 0.4318(4) 0.0775(4) 0.9026(4)
C8_3 C 0.2942(4) 0.2211(3) 0.7790(4)
H6_3 H 0.3092 0.1711 0.7569
C9_3 C 0.2356(4) 0.4546(3) 0.8849(3)
C10_3 C 0.4661(3) 0.0231(3) 0.8612(3)
C11_3 C 0.2764(4) 0.2995(3) 0.6363(4)
N3_3 N 0.8621(4) 0.1195(4) 0.9797(4)
C12_3 C 0.4845(5) 0.1387(4) 0.9601(5)
H8_3 H 0.4655 0.1768 0.9915
C13_3 C 0.5464(4) 0.0325(3) 0.8754(3)
C14_3 C 0.5638(4) 0.1444(3) 0.9718(4)
C15_3 C 0.8887(4) 0.1074(4) 0.9125(5)
H11_3 H 0.8489 0.0979 0.8541
C18_3 C 0.9719(4) 0.1082(4) 0.9258(4)
H14_3 H 0.9866 0.1024 0.8778
O8_2 O 0.7842(3) 0.5237(2) 0.6623(3)
O9_2 O 0.7158(3) 0.0237(2) 0.8377(3)
O10_2 O 0.2842(3) 0.0237(2) 0.6623(3)
O11_2 O 0.7548(3) 0.4555(2) 0.5333(2)
O14_3 O 0.7019(3) 0.2309(2) 0.8904(3)
N4_3 N 0.6885(4) 0.1432(3) 0.5848(3)
H16_3 H 0.6960 0.1416 0.5362
C20_3 C 0.7255(4) 0.2982(3) 0.7723(3)
N5_3 N 0.4027(3) 0.0935(3) 0.5708(3)
C21_3 C 0.7469(4) 0.3733(3) 0.7392(3)
H17_3 H 0.7601 0.4245 0.7734
C22_3 C 0.6555(4) 0.0674(3) 0.6105(4)
H18_3 H 0.6590 0.0174 0.5756
H19_3 H 0.6893 0.0547 0.6737
C23_3 C 0.7291(4) 0.2954(4) 0.6044(4)
H20_3 H 0.7297 0.2948 0.5478
C24_3 C 0.7085(4) 0.2183(3) 0.6370(4)
C25_3 C 0.7487(4) 0.3720(3) 0.6542(4)
C26_3 C 0.5682(4) 0.0775(4) 0.5974(4)
C27_3 C 0.7058(4) 0.2211(3) 0.7210(4)
H21_3 H 0.6908 0.1711 0.7431
C28_3 C 0.7644(4) 0.4546(3) 0.6151(3)
C29_3 C 0.5339(3) 0.0231(3) 0.6388(3)
C30_3 C 0.7236(4) 0.2995(3) 0.8637(4)
N6_3 N 0.1379(4) 0.1195(4) 0.5203(4)
C31_3 C 0.5155(5) 0.1387(4) 0.5399(5)
H23_3 H 0.5345 0.1768 0.5085
C32_3 C 0.4536(4) 0.0325(3) 0.6246(3)
C33_3 C 0.4362(4) 0.1444(3) 0.5282(4)
H25_3 H 0.4028 0.1863 0.4880
C34_3 C 0.1113(4) 0.1074(4) 0.5875(5)
H26_3 H 0.1511 0.0979 0.6459
C36_3 C 0.0766(4) 0.1291(4) 0.4371(4)
H28_3 H 0.0903 0.1382 0.3888
C37_3 C 0.0281(4) 0.1082(4) 0.5742(4)
H29_3 H 0.0134 0.1024 0.6222
H7_3 H 0.4343 0.9792 0.8228
H9_3 H 0.5670 0.9939 0.8459
O12_2 O 0.7452(3) 0.9555(2) 0.9667(2)
O13_2 O 0.2548(3) 0.9555(2) 0.5333(2)
H22_3 H 0.5657 0.9792 0.6772
H24_3 H 0.4330 0.9939 0.6541
H10_4 H 0.0972 0.6863 0.0120
C16_2 C 0.5281(3) 0.6177(3) 0.0108(3)
H12_2 H 0.5835 0.6186 0.0225
C17_4 C 0.4234(4) 0.6291(4) 0.0629(4)
H13_4 H 0.4097 0.6382 0.1112
C19_2 C 0.5063(4) 0.626(3) 0.0800(4)
H15_2 H 0.5465 0.6297 0.1389
N2_4 N 0.0973(3) 0.5935(3) 0.9292(3)
N3_4 N 0.3621(4) 0.6195(4) 0.9797(4)
C13_4 C 0.0464(4) 0.5325(3) 0.8754(3)
H9_4 H 0.0670 0.4939 0.8459
C14_4 C 0.0638(4) 0.6444(3) 0.9718(4)
C15_4 C 0.3887(4) 0.6074(4) 0.9125(5)
H11_4 H 0.3489 0.5979 0.8541
C18_4 C 0.4719(4) 0.6082(4) 0.9258(4)
H14_4 H 0.4866 0.6024 0.8778
O14_4 O 0.2019(3) 0.7309(2) 0.8904(3)
N4_4 N 0.1885(4) 0.6432(3) 0.5848(3)
H16_4 H 0.1960 0.6416 0.5362
C20_4 C 0.2255(4) 0.7982(3) 0.7723(3)
C21_4 C 0.2469(4) 0.8733(3) 0.7392(3)
H17_4 H 0.2601 0.9245 0.7734
C22_4 C 0.1555(4) 0.5674(3) 0.6105(4)
H18_4 H 0.1590 0.5174 0.5756
H19_4 H 0.1893 0.5547 0.6737
C23_4 C 0.2291(4) 0.7954(4) 0.6044(4)
H20_4 H 0.2297 0.7948 0.5478
C24_4 C 0.2085(4) 0.7183(3) 0.6370(4)
C25_4 C 0.2487(4) 0.8720(3) 0.6542(4)
C26_4 C 0.0682(4) 0.5775(4) 0.5974(4)
C27_4 C 0.2058(4) 0.7211(3) 0.7210(4)
H21_4 H 0.1908 0.6711 0.7431
C28_4 C 0.2644(4) 0.9546(3) 0.6151(3)
C29_4 C 0.0339(3) 0.5231(3) 0.6388(3)
H22_4 H 0.0657 0.4792 0.6772
C30_4 C 0.2236(4) 0.7995(3) 0.8637(4)
C31_4 C 0.0155(5) 0.6387(4) 0.5399(5)
H23_4 H 0.0345 0.6768 0.5085
O4_4 O 0.7981(3) 0.7309(2) 0.6096(3)
N1_4 N 0.8115(4) 0.6432(3) 0.9152(3)
H1_4 H 0.8040 0.6416 0.9638
C1_4 C 0.7745(4) 0.7982(3) 0.7277(3)
C2_4 C 0.7531(4) 0.8733(3) 0.7608(3)
H2_4 H 0.7399 0.9245 0.7266
C3_4 C 0.8445(4) 0.5674(3) 0.8895(4)
H3_4 H 0.8410 0.5174 0.9244
H4_4 H 0.8107 0.5547 0.8263
C4_4 C 0.7709(4) 0.7954(4) 0.8956(4)
H5_4 H 0.7703 0.7948 0.9522
C5_4 C 0.7915(4) 0.7183(3) 0.8630(4)
C6_4 C 0.7513(4) 0.8720(3) 0.8458(4)
C7_4 C 0.9318(4) 0.5775(4) 0.9026(4)
C8_4 C 0.7942(4) 0.7211(3) 0.7790(4)
H6_4 H 0.8092 0.6711 0.7569
C9_4 C 0.7356(4) 0.9546(3) 0.8849(3)
C10_4 C 0.9661(3) 0.5231(3) 0.8612(3)
H7_4 H 0.9343 0.4792 0.8228
C11_4 C 0.7764(4) 0.7995(3) 0.6363(4)
C12_4 C 0.9845(5) 0.6387(4) 0.9601(5)
H8_4 H 0.9655 0.6768 0.9915
N5_4 N 0.9027(3) 0.5935(3) 0.5708(3)
N6_4 N 0.6379(4) 0.6195(4) 0.5203(4)
C32_4 C 0.9536(4) 0.5325(3) 0.6246(3)
H24_4 H 0.9330 0.4939 0.6541
C33_4 C 0.9362(4) 0.6444(3) 0.5282(4)
H25_4 H 0.9028 0.6863 0.4880
C34_4 C 0.6113(4) 0.6074(4) 0.5875(5)
H26_4 H 0.6511 0.5979 0.6459
C35_3 C 0.4719(3) 0.6177(3) 0.4892(3)
H27_3 H 0.4165 0.6186 0.4775
C36_4 C 0.5766(4) 0.6291(4) 0.4371(4)
H28_4 H 0.5903 0.6382 0.3888
C37_4 C 0.5281(4) 0.6082(4) 0.5742(4)
H29_4 H 0.5134 0.6024 0.6222
C38_3 C 0.4937(4) 0.626(3) 0.4200(4)
H30_3 H 0.4535 0.6297 0.3611
C16_3 C 0.9719(3) 0.8823(3) 0.9892(3)
H12_3 H 0.9165 0.8814 0.9775
C19_3 C 0.9937(4) 0.874(3) 0.9200(4)
H15_3 H 0.9535 0.8703 0.8611
C16_4 C 0.0281(3) 0.1177(3) 0.0108(3)
H12_4 H 0.0835 0.1186 0.0225
C19_4 C 0.0063(4) 0.126(3) 0.0800(4)
H15_4 H 0.0465 0.1297 0.1389
C35_4 C 0.9719(3) 0.1177(3) 0.4892(3)
H27_4 H 0.9165 0.1186 0.4775
C38_4 C 0.9937(4) 0.126(3) 0.4200(4)
H30_4 H 0.9535 0.1297 0.3611
loop_
_geom_bond_atom_site_label_1
_geom_bond_atom_site_label_2
_geom_bond_site_symmetry_1
_geom_bond_site_symmetry_2
C35 H27 1_555 1_555
C38 C35 1_555 1_555
H30 C38 1_555 1_555
Mn1 N2 1_555 1_555
O1 C11 1_555 1_555
O2 C9 1_555 1_555
O3 C9 1_555 1_555
O4 C11 1_555 1_555
N1 H1 1_555 1_555
C1 C2 1_555 1_555
N2 C13 1_555 1_555
C2 H2 1_555 1_555
C3 N1 1_555 1_555
H3 C3 1_555 1_555
H4 C3 1_555 1_555
C4 H5 1_555 1_555
C5 N1 1_555 1_555
C6 C2 1_555 1_555
C7 C3 1_555 1_555
C8 C1 1_555 1_555
H6 C8 1_555 1_555
C9 C6 1_555 1_555
C10 C7 1_555 1_555
C11 C1 1_555 1_555
N3 Mn1 1_555 1_555
C12 C7 1_555 1_555
H8 C12 1_555 1_555
C13 C10 1_555 1_555
C14 N2 1_555 1_555
C15 N3 1_555 1_555
H11 C15 1_555 1_555
C18 C15 1_555 1_555
H14 C18 1_555 1_555
Mn2 O4 1_555 1_555
Mn3 O2 1_555 1_555
Mn4 O8 1_555 1_555
Mn6 O1 1_555 1_555
O5 C30 1_555 1_555
O6 Mn2 1_555 1_555
O8 C28 1_555 1_555
O9 Mn1 1_555 1_555
O10 Mn2 1_555 1_555
O11 Mn4 1_555 1_555
O14 Mn1 1_555 1_555
N4 H16 1_555 1_555
C20 C21 1_555 1_555
N5 Mn2 1_555 1_555
C21 H17 1_555 1_555
C22 N4 1_555 1_555
H18 C22 1_555 1_555
H19 C22 1_555 1_555
C23 H20 1_555 1_555
C24 N4 1_555 1_555
C25 C21 1_555 1_555
C26 C22 1_555 1_555
C27 C20 1_555 1_555
H21 C27 1_555 1_555
C28 O11 1_555 1_555
C29 C26 1_555 1_555
C30 O14 1_555 1_555
N6 Mn2 1_555 1_555
C31 C26 1_555 1_555
H23 C31 1_555 1_555
C32 N5 1_555 1_555
C33 N5 1_555 1_555
H25 C33 1_555 1_555
C34 N6 1_555 1_555
H26 C34 1_555 1_555
C36 N6 1_555 1_555
H28 C36 1_555 1_555
C37 C34 1_555 1_555
H29 C37 1_555 1_555
O3 Mn3 1_555 1_555
C4 C5 1_555 1_555
C4 C6 1_555 1_555
C5 C8 1_555 1_555
C12 C14 1_555 1_555
C20 C30 1_555 1_555
C23 C24 1_555 1_555
C23 C25 1_555 1_555
C24 C27 1_555 1_555
C25 C28 1_555 1_555
C29 C32 1_555 1_555
C31 C33 1_555 1_555
H13 C17 1_555 1_555
O1_2 C11_2 1_555 1_555
O12 C9_2 1_555 1_555
O4_2 C11_2 1_555 1_555
N1_2 H1_2 1_555 1_555
C1_2 C2_2 1_555 1_555
C2_2 H2_2 1_555 1_555
C3_2 N1_2 1_555 1_555
H3_2 C3_2 1_555 1_555
H4_2 C3_2 1_555 1_555
C4_2 H5_2 1_555 1_555
C5_2 N1_2 1_555 1_555
C6_2 C2_2 1_555 1_555
C7_2 C3_2 1_555 1_555
C8_2 C1_2 1_555 1_555
H6_2 C8_2 1_555 1_555
C9_2 C6_2 1_555 1_555
C10_2 C7_2 1_555 1_555
H7_2 C10_2 1_555 1_555
C11_2 C1_2 1_555 1_555
C12_2 C7_2 1_555 1_555
H8_2 C12_2 1_555 1_555
Mn4 O4_2 1_555 1_555
Mn6_2 O1_2 1_555 1_555
O6_2 Mn4 1_555 1_555
N5_2 Mn4 1_555 1_555
N6_2 Mn4 1_555 1_555
C32_2 N5_2 1_555 1_555
H24_2 C32_2 1_555 1_555
C33_2 N5_2 1_555 1_555
H25_2 C33_2 1_555 1_555
C34_2 N6_2 1_555 1_555
H26_2 C34_2 1_555 1_555
C35_2 H27_2 1_555 1_555
C36_2 N6_2 1_555 1_555
H28_2 C36_2 1_555 1_555
C37_2 C34_2 1_555 1_555
H29_2 C37_2 1_555 1_555
C38_2 C35_2 1_555 1_555
H30_2 C38_2 1_555 1_555
C4_2 C5_2 1_555 1_555
C4_2 C6_2 1_555 1_555
C5_2 C8_2 1_555 1_555
C35_2 C37_2 1_555 1_555
C36_2 C38_2 1_555 1_555
Mn3 N2_2 1_555 1_555
N2_2 C13_2 1_555 1_555
N3_2 Mn3 1_555 1_555
H9_2 C13_2 1_555 1_555
C14_2 N2_2 1_555 1_555
C15_2 N3_2 1_555 1_555
H11_2 C15_2 1_555 1_555
C18_2 C15_2 1_555 1_555
H14_2 C18_2 1_555 1_555
O5_2 C30_2 1_555 1_555
O14_2 Mn3 1_555 1_555
N4_2 H16_2 1_555 1_555
C20_2 C21_2 1_555 1_555
C21_2 H17_2 1_555 1_555
C22_2 N4_2 1_555 1_555
H18_2 C22_2 1_555 1_555
H19_2 C22_2 1_555 1_555
C23_2 H20_2 1_555 1_555
C24_2 N4_2 1_555 1_555
C25_2 C21_2 1_555 1_555
C26_2 C22_2 1_555 1_555
C27_2 C20_2 1_555 1_555
H21_2 C27_2 1_555 1_555
C28_2 O13 1_555 1_555
C29_2 C26_2 1_555 1_555
H22_2 C29_2 1_555 1_555
C30_2 O14_2 1_555 1_555
C31_2 C26_2 1_555 1_555
H23_2 C31_2 1_555 1_555
C20_2 C30_2 1_555 1_555
C23_2 C24_2 1_555 1_555
C23_2 C25_2 1_555 1_555
C24_2 C27_2 1_555 1_555
C25_2 C28_2 1_555 1_555
C16 H12 1_555 1_555
H13_2 C17_2 1_555 1_555
C19 C16 1_555 1_555
H15 C19 1_555 1_555
C17_2 C19 1_555 1_555
H13_3 C17_3 1_555 1_555
Mn5_2 N2_3 1_555 1_555
O6_2 C11_3 1_555 1_555
O2_2 C9_3 1_555 1_555
O3_2 C9_3 1_555 1_555
O4_3 C11_3 1_555 1_555
N1_3 H1_3 1_555 1_555
C1_3 C2_3 1_555 1_555
N2_3 C13_3 1_555 1_555
C2_3 H2_3 1_555 1_555
C3_3 N1_3 1_555 1_555
H3_3 C3_3 1_555 1_555
H4_3 C3_3 1_555 1_555
C4_3 H5_3 1_555 1_555
C5_3 N1_3 1_555 1_555
C6_3 C2_3 1_555 1_555
C7_3 C3_3 1_555 1_555
C8_3 C1_3 1_555 1_555
H6_3 C8_3 1_555 1_555
C9_3 C6_3 1_555 1_555
C10_3 C7_3 1_555 1_555
C11_3 C1_3 1_555 1_555
N3_3 Mn5_2 1_555 1_555
C12_3 C7_3 1_555 1_555
H8_3 C12_3 1_555 1_555
C13_3 C10_3 1_555 1_555
C14_3 N2_3 1_555 1_555
C15_3 N3_3 1_555 1_555
H11_3 C15_3 1_555 1_555
C18_3 C15_3 1_555 1_555
H14_3 C18_3 1_555 1_555
Mn6_2 O4_3 1_555 1_555
Mn5 O2_2 1_555 1_555
Mn6 O8_2 1_555 1_555
O7_2 C30_3 1_555 1_555
O8_2 C28_3 1_555 1_555
O9_2 Mn5_2 1_555 1_555
O10_2 Mn6_2 1_555 1_555
O11_2 Mn6 1_555 1_555
O14_3 Mn5_2 1_555 1_555
N4_3 H16_3 1_555 1_555
C20_3 C21_3 1_555 1_555
N5_3 Mn6_2 1_555 1_555
C21_3 H17_3 1_555 1_555
C22_3 N4_3 1_555 1_555
H18_3 C22_3 1_555 1_555
H19_3 C22_3 1_555 1_555
C23_3 H20_3 1_555 1_555
C24_3 N4_3 1_555 1_555
C25_3 C21_3 1_555 1_555
C26_3 C22_3 1_555 1_555
C27_3 C20_3 1_555 1_555
H21_3 C27_3 1_555 1_555
C28_3 O11_2 1_555 1_555
C29_3 C26_3 1_555 1_555
C30_3 O14_3 1_555 1_555
N6_3 Mn6_2 1_555 1_555
C31_3 C26_3 1_555 1_555
H23_3 C31_3 1_555 1_555
C32_3 N5_3 1_555 1_555
C33_3 N5_3 1_555 1_555
H25_3 C33_3 1_555 1_555
C34_3 N6_3 1_555 1_555
H26_3 C34_3 1_555 1_555
C36_3 N6_3 1_555 1_555
H28_3 C36_3 1_555 1_555
C37_3 C34_3 1_555 1_555
H29_3 C37_3 1_555 1_555
O3_2 Mn5 1_555 1_555
C4_3 C5_3 1_555 1_555
C4_3 C6_3 1_555 1_555
C5_3 C8_3 1_555 1_555
C12_3 C14_3 1_555 1_555
C20_3 C30_3 1_555 1_555
C23_3 C24_3 1_555 1_555
C23_3 C25_3 1_555 1_555
C24_3 C27_3 1_555 1_555
C25_3 C28_3 1_555 1_555
C29_3 C32_3 1_555 1_555
C31_3 C33_3 1_555 1_555
C16_2 H12_2 1_555 1_555
H13_4 C17_4 1_555 1_555
C19_2 C16_2 1_555 1_555
H15_2 C19_2 1_555 1_555
C17_4 C19_2 1_555 1_555
Mn5 N2_4 1_555 1_555
N2_4 C13_4 1_555 1_555
N3_4 Mn5 1_555 1_555
H9_4 C13_4 1_555 1_555
C14_4 N2_4 1_555 1_555
C15_4 N3_4 1_555 1_555
H11_4 C15_4 1_555 1_555
C18_4 C15_4 1_555 1_555
H14_4 C18_4 1_555 1_555
O7 C30_4 1_555 1_555
O14_4 Mn5 1_555 1_555
N4_4 H16_4 1_555 1_555
C20_4 C21_4 1_555 1_555
C21_4 H17_4 1_555 1_555
C22_4 N4_4 1_555 1_555
H18_4 C22_4 1_555 1_555
H19_4 C22_4 1_555 1_555
C23_4 H20_4 1_555 1_555
C24_4 N4_4 1_555 1_555
C25_4 C21_4 1_555 1_555
C26_4 C22_4 1_555 1_555
C27_4 C20_4 1_555 1_555
H21_4 C27_4 1_555 1_555
C28_4 O13_2 1_555 1_555
C29_4 C26_4 1_555 1_555
H22_4 C29_4 1_555 1_555
C30_4 O14_4 1_555 1_555
C31_4 C26_4 1_555 1_555
H23_4 C31_4 1_555 1_555
C20_4 C30_4 1_555 1_555
C23_4 C24_4 1_555 1_555
C23_4 C25_4 1_555 1_555
C24_4 C27_4 1_555 1_555
C25_4 C28_4 1_555 1_555
O6 C11_4 1_555 1_555
O12_2 C9_4 1_555 1_555
O4_4 C11_4 1_555 1_555
N1_4 H1_4 1_555 1_555
C1_4 C2_4 1_555 1_555
C2_4 H2_4 1_555 1_555
C3_4 N1_4 1_555 1_555
H3_4 C3_4 1_555 1_555
H4_4 C3_4 1_555 1_555
C4_4 H5_4 1_555 1_555
C5_4 N1_4 1_555 1_555
C6_4 C2_4 1_555 1_555
C7_4 C3_4 1_555 1_555
C8_4 C1_4 1_555 1_555
H6_4 C8_4 1_555 1_555
C9_4 C6_4 1_555 1_555
C10_4 C7_4 1_555 1_555
H7_4 C10_4 1_555 1_555
C11_4 C1_4 1_555 1_555
C12_4 C7_4 1_555 1_555
H8_4 C12_4 1_555 1_555
Mn6 O4_4 1_555 1_555
N5_4 Mn6 1_555 1_555
N6_4 Mn6 1_555 1_555
C32_4 N5_4 1_555 1_555
H24_4 C32_4 1_555 1_555
C33_4 N5_4 1_555 1_555
H25_4 C33_4 1_555 1_555
C34_4 N6_4 1_555 1_555
H26_4 C34_4 1_555 1_555
C35_3 H27_3 1_555 1_555
C36_4 N6_4 1_555 1_555
H28_4 C36_4 1_555 1_555
C37_4 C34_4 1_555 1_555
H29_4 C37_4 1_555 1_555
C38_3 C35_3 1_555 1_555
H30_3 C38_3 1_555 1_555
C4_4 C5_4 1_555 1_555
C4_4 C6_4 1_555 1_555
C5_4 C8_4 1_555 1_555
C35_3 C37_4 1_555 1_555
C36_4 C38_3 1_555 1_555
C16_3 H12_3 1_555 1_555
C19_3 C16_3 1_555 1_555
H15_3 C19_3 1_555 1_555
C16_4 H12_4 1_555 1_555
C19_4 C16_4 1_555 1_555
H15_4 C19_4 1_555 1_555
C35_4 H27_4 1_555 1_555
C38_4 C35_4 1_555 1_555
H30_4 C38_4 1_555 1_555

#END
