
###############################################################################
#
# This file contains modified crystal structure data generated from the
# MOF subset of the Cambridge Structural Database (CSD) v543 
# hosted by the Cambridge Crystallographic Data Centre (CCDC).
#
# This work is licensed under the Creative Commons
# Attribution-NonCommercial-ShareAlike 4.0 International License.
# To view a copy of this license, visit
# http://creativecommons.org/licenses/by-nc-sa/4.0/
# or send a letter to
# Creative Commons, PO Box 1866, Mountain View, CA 94042, USA.
#
# CIF created using the CSD Python API on 29 September 2022
# The structure has been converted into the P1 space group
# The structure has a 3D framework
# The original CSD entry TUTHAS is in the monoclinic crystal system
# The framework has been calculated to contain at least 10.0% void space
# The void calculation uses a probe of radius 1.32A, grid spacing 0.4
#
###############################################################################

data_TUTHAS
_chemical_formula_moiety         '(C160 H136 Mn8 N24 O32)n'
_symmetry_cell_setting           triclinic
_symmetry_space_group_name_H-M   'P 1'
_symmetry_Int_Tables_number      1
_space_group_name_Hall           'P 1'
loop_
_symmetry_equiv_pos_site_id
_symmetry_equiv_pos_as_xyz
1 x,y,z
_cell_length_a                   19.143(6)
_cell_length_b                   14.876(5)
_cell_length_c                   16.423(5)
_cell_angle_alpha                90
_cell_angle_beta                 111.779(4)
_cell_angle_gamma                90
_cell_volume                     4342.98
loop_
_atom_site_label
_atom_site_type_symbol
_atom_site_fract_x
_atom_site_fract_y
_atom_site_fract_z
Mn2 Mn 0.28715(5) 0.61064(5) 0.04919(5)
Mn6 Mn 0.21285(5) 0.11064(5) 0.45081(5)
Mn7 Mn 0.28715(5) 0.38936(5) 0.54919(5)
O5 O 0.2984(2) 0.5250(2) 0.1656(2)
O6 O 0.2801(2) 0.4527(3) 0.0425(2)
N4 N 0.1772(3) 0.1493(3) 0.0820(3)
H18 H 0.1775 0.1501 0.0298
N6 N 0.4124(3) 0.6033(3) 0.0781(3)
O7 O 0.2052(3) 0.2366(2) 0.3908(2)
O9 O 0.2948(3) 0.7366(2) 0.1092(2)
C21 C 0.2620(3) 0.3718(3) 0.1586(3)
C22 C 0.2373(3) 0.2992(3) 0.2757(3)
O10 O 0.2705(3) 0.3645(3) 0.4164(2)
C23 C 0.2828(3) 0.4536(3) 0.1208(3)
C24 C 0.2350(3) 0.2965(4) 0.1066(4)
H19 H 0.2353 0.2955 0.0501
C25 C 0.2073(3) 0.2212(4) 0.1374(3)
C26 C 0.0650(3) 0.0863(3) 0.1016(3)
C27 C 0.2640(3) 0.3724(3) 0.2451(3)
H20 H 0.2832 0.4217 0.2812
C28 C 0.2380(3) 0.2994(4) 0.3687(3)
C29 C 0.2069(3) 0.2249(4) 0.2221(4)
H21 H 0.1862 0.1778 0.2429
C30 C 0.1454(3) 0.0729(4) 0.1102(4)
H22 H 0.1757 0.0601 0.1710
H23 H 0.1480 0.0209 0.0758
C31 C 0.0191(6) 0.1452(9) 0.0502(12)
H24 H 0.0378 0.1853 0.0199
N7 N 0.1625(4) 0.6086(4) 0.0184(5)
C33 C 0.0593(4) 0.6231(4) 0.0638(4)
H26 H 0.0419 0.6340 0.1088
C37 C 0.1365(5) 0.6200(5) 0.0825(4)
H32 H 0.1701 0.6259 0.1401
C38 C 0.0317(4) 0.0391(4) 0.1420(4)
O12 O 0.2705(3) 0.6355(3) 0.9164(2)
C36 C 0.1149(4) 0.5965(5) 0.9376(4)
H31 H 0.1337 0.5866 0.8936
C39 C 0.0364(5) 0.5981(4) 0.9154(4)
H34 H 0.0038 0.5909 0.8575
C40 C 0.0089(3) 0.6103(3) 0.9802(4)
Mn1 Mn 0.78715(5) 0.11064(5) 0.04919(5)
O1 O 0.7984(2) 0.0250(2) 0.1656(2)
N3 N 0.6625(4) 0.1086(4) 0.0184(5)
C13 C 0.5593(4) 0.1231(4) 0.0638(4)
H9 H 0.5419 0.1340 0.1088
H11 H 0.4163 0.1231 0.0125
C17 C 0.6365(5) 0.1200(5) 0.0825(4)
H15 H 0.6701 0.1259 0.1401
N5 N 0.9124(3) 0.1033(3) 0.0781(3)
O8 O 0.7948(3) 0.2366(2) 0.1092(2)
C32 C 0.9565(6) 0.0477(13) 0.1285(10)
H25 H 0.9370 0.0090 0.1593
C34 C 0.9439(4) 0.1507(5) 0.0386(4)
H28 H 0.9163 0.6231 0.0125
C15 C 0.4254(5) 0.1130(5) 0.960(5)
H12 H 0.4033 0.0568 0.9340
H13 H 0.4033 0.1608 0.9188
C16 C 0.6149(4) 0.0965(5) 0.9376(4)
H14 H 0.6337 0.0866 0.8936
C19 C 0.5364(5) 0.0981(4) 0.9154(4)
H17 H 0.5038 0.0909 0.8575
C20 C 0.5089(3) 0.1103(3) 0.9802(4)
O11 O 0.7705(3) 0.1355(3) 0.9164(2)
H27 H 0.9145 0.1927 0.9985
C35 C 0.9254(5) 0.6130(5) 0.960(5)
H29 H 0.9033 0.5568 0.9340
H30 H 0.9033 0.6608 0.9188
O2 O 0.7801(2) 0.9527(3) 0.0425(2)
N1 N 0.6772(3) 0.6493(3) 0.0820(3)
H1 H 0.6775 0.6501 0.0298
O3 O 0.7052(3) 0.7366(2) 0.3908(2)
C1 C 0.7620(3) 0.8718(3) 0.1586(3)
C2 C 0.7373(3) 0.7992(3) 0.2757(3)
O4 O 0.7705(3) 0.8645(3) 0.4164(2)
C3 C 0.7828(3) 0.9536(3) 0.1208(3)
C4 C 0.7350(3) 0.7965(4) 0.1066(4)
H2 H 0.7353 0.7955 0.0501
C5 C 0.7073(3) 0.7212(4) 0.1374(3)
C6 C 0.5650(3) 0.5863(3) 0.1016(3)
C7 C 0.7640(3) 0.8724(3) 0.2451(3)
H3 H 0.7832 0.9217 0.2812
C8 C 0.7380(3) 0.7994(4) 0.3687(3)
C9 C 0.7069(3) 0.7249(4) 0.2221(4)
H4 H 0.6862 0.6778 0.2429
C10 C 0.6454(3) 0.5729(4) 0.1102(4)
H5 H 0.6757 0.5601 0.1710
H6 H 0.6480 0.5209 0.0758
C11 C 0.5191(6) 0.6452(9) 0.0502(12)
H7 H 0.5378 0.6853 0.0199
C12 C 0.4565(6) 0.5477(13) 0.1285(10)
H8 H 0.4370 0.5090 0.1593
C14 C 0.4439(4) 0.6507(5) 0.0386(4)
C18 C 0.5317(4) 0.5391(4) 0.1420(4)
H16 H 0.5599 0.4968 0.1825
Mn4 Mn 0.71285(5) 0.61064(5) 0.45081(5)
Mn5 Mn 0.78715(5) 0.88936(5) 0.54919(5)
H10 H 0.4145 0.6927 0.9985
O1_2 O 0.2016(2) 0.0250(2) 0.3344(2)
N3_2 N 0.3375(4) 0.1086(4) 0.4816(5)
C13_2 C 0.4407(4) 0.1231(4) 0.4362(4)
H9_2 H 0.4581 0.1340 0.3912
C15_2 C 0.5746(5) 0.1130(5) 0.540(5)
H11_2 H 0.5837 0.1231 0.4875
H12_2 H 0.5967 0.0568 0.5660
H13_2 H 0.5967 0.1608 0.5812
C16_2 C 0.3851(4) 0.0965(5) 0.5624(4)
H14_2 H 0.3663 0.0866 0.6064
C17_2 C 0.3635(5) 0.1200(5) 0.4175(4)
H15_2 H 0.3299 0.1259 0.3599
C19_2 C 0.4636(5) 0.0981(4) 0.5846(4)
H17_2 H 0.4962 0.0909 0.6425
C20_2 C 0.4911(3) 0.1103(3) 0.5198(4)
N5_2 N 0.0876(3) 0.1033(3) 0.4219(3)
O11_2 O 0.2295(3) 0.1355(3) 0.5836(2)
C32_2 C 0.0435(6) 0.0477(13) 0.3715(10)
H25_2 H 0.0630 0.0090 0.3407
C34_2 C 0.0561(4) 0.1507(5) 0.4614(4)
H27_2 H 0.0855 0.1927 0.5015
C35_2 C 0.0746(5) 0.6130(5) 0.540(5)
H28_2 H 0.0837 0.6231 0.4875
H29_2 H 0.0967 0.5568 0.5660
H30_2 H 0.0967 0.6608 0.5812
O2_2 O 0.2199(2) 0.9527(3) 0.4575(2)
N1_2 N 0.3228(3) 0.6493(3) 0.4180(3)
H1_2 H 0.3225 0.6501 0.4702
N2 N 0.5876(3) 0.6033(3) 0.4219(3)
C1_2 C 0.2380(3) 0.8718(3) 0.3414(3)
C2_2 C 0.2627(3) 0.7992(3) 0.2243(3)
O4_2 O 0.2295(3) 0.8645(3) 0.0836(2)
C3_2 C 0.2172(3) 0.9536(3) 0.3792(3)
C4_2 C 0.2650(3) 0.7965(4) 0.3934(4)
H2_2 H 0.2647 0.7955 0.4499
C5_2 C 0.2927(3) 0.7212(4) 0.3626(3)
C6_2 C 0.4350(3) 0.5863(3) 0.3984(3)
C7_2 C 0.2360(3) 0.8724(3) 0.2549(3)
H3_2 H 0.2168 0.9217 0.2188
C8_2 C 0.2620(3) 0.7994(4) 0.1313(3)
C9_2 C 0.2931(3) 0.7249(4) 0.2779(4)
H4_2 H 0.3138 0.6778 0.2571
C10_2 C 0.3546(3) 0.5729(4) 0.3898(4)
H5_2 H 0.3243 0.5601 0.3290
H6_2 H 0.3520 0.5209 0.4242
C11_2 C 0.4809(6) 0.6452(9) 0.4498(12)
H7_2 H 0.4622 0.6853 0.4801
C12_2 C 0.5435(6) 0.5477(13) 0.3715(10)
H8_2 H 0.5630 0.5090 0.3407
C14_2 C 0.5561(4) 0.6507(5) 0.4614(4)
H10_2 H 0.5855 0.6927 0.5015
C18_2 C 0.4683(4) 0.5391(4) 0.3580(4)
H16_2 H 0.4401 0.4968 0.3175
Mn5_2 Mn 0.21285(5) 0.88936(5) 0.95081(5)
O5_2 O 0.7016(2) 0.5250(2) 0.3344(2)
O6_2 O 0.7199(2) 0.4527(3) 0.4575(2)
N4_2 N 0.8228(3) 0.1493(3) 0.4180(3)
H18_2 H 0.8225 0.1501 0.4702
C21_2 C 0.7380(3) 0.3718(3) 0.3414(3)
C22_2 C 0.7627(3) 0.2992(3) 0.2243(3)
O10_2 O 0.7295(3) 0.3645(3) 0.0836(2)
O12_2 O 0.7295(3) 0.6355(3) 0.5836(2)
C23_2 C 0.7172(3) 0.4536(3) 0.3792(3)
C24_2 C 0.7650(3) 0.2965(4) 0.3934(4)
H19_2 H 0.7647 0.2955 0.4499
C25_2 C 0.7927(3) 0.2212(4) 0.3626(3)
C26_2 C 0.9350(3) 0.0863(3) 0.3984(3)
C27_2 C 0.7360(3) 0.3724(3) 0.2549(3)
H20_2 H 0.7168 0.4217 0.2188
C28_2 C 0.7620(3) 0.2994(4) 0.1313(3)
C29_2 C 0.7931(3) 0.2249(4) 0.2779(4)
H21_2 H 0.8138 0.1778 0.2571
C30_2 C 0.8546(3) 0.0729(4) 0.3898(4)
H22_2 H 0.8243 0.0601 0.3290
H23_2 H 0.8520 0.0209 0.4242
C31_2 C 0.9809(6) 0.1452(9) 0.4498(12)
H24_2 H 0.9622 0.1853 0.4801
N7_2 N 0.8375(4) 0.6086(4) 0.4816(5)
C33_2 C 0.9407(4) 0.6231(4) 0.4362(4)
H26_2 H 0.9581 0.6340 0.3912
C36_2 C 0.8851(4) 0.5965(5) 0.5624(4)
H31_2 H 0.8663 0.5866 0.6064
C37_2 C 0.8635(5) 0.6200(5) 0.4175(4)
H32_2 H 0.8299 0.6259 0.3599
C38_2 C 0.9683(4) 0.0391(4) 0.3580(4)
C39_2 C 0.9636(5) 0.5981(4) 0.5846(4)
H34_2 H 0.9962 0.5909 0.6425
C40_2 C 0.9911(3) 0.6103(3) 0.5198(4)
Mn7_2 Mn 0.71285(5) 0.38936(5) 0.95081(5)
H10_3 H 0.5855 0.3073 0.0015
O2_3 O 0.2199(2) 0.0473(3) 0.9575(2)
N1_3 N 0.3228(3) 0.3507(3) 0.9180(3)
H1_3 H 0.3225 0.3499 0.9702
N2_2 N 0.5876(3) 0.3967(3) 0.9219(3)
O3_2 O 0.2948(3) 0.2634(2) 0.6092(2)
C1_3 C 0.2380(3) 0.1282(3) 0.8414(3)
C2_3 C 0.2627(3) 0.2008(3) 0.7243(3)
C3_3 C 0.2172(3) 0.0464(3) 0.8792(3)
C4_3 C 0.2650(3) 0.2035(4) 0.8934(4)
H2_3 H 0.2647 0.2045 0.9499
C5_3 C 0.2927(3) 0.2788(4) 0.8626(3)
C6_3 C 0.4350(3) 0.4137(3) 0.8984(3)
C7_3 C 0.2360(3) 0.1276(3) 0.7549(3)
H3_3 H 0.2168 0.0783 0.7188
C8_3 C 0.2620(3) 0.2006(4) 0.6313(3)
C9_3 C 0.2931(3) 0.2751(4) 0.7779(4)
H4_3 H 0.3138 0.3222 0.7571
C10_3 C 0.3546(3) 0.4271(4) 0.8898(4)
H5_3 H 0.3243 0.4399 0.8290
H6_3 H 0.3520 0.4791 0.9242
C11_3 C 0.4809(6) 0.3548(9) 0.9498(12)
H7_3 H 0.4622 0.3147 0.9801
C12_3 C 0.5435(6) 0.4523(13) 0.8715(10)
H8_3 H 0.5630 0.4910 0.8407
C14_3 C 0.5561(4) 0.3493(5) 0.9614(4)
C18_3 C 0.4683(4) 0.4609(4) 0.8580(4)
H16_3 H 0.4401 0.5032 0.8175
C15_3 C 0.5746(5) 0.8870(5) 0.040(5)
H12_3 H 0.5967 0.9432 0.0660
H13_3 H 0.5967 0.8392 0.0812
C16_3 C 0.3851(4) 0.9035(5) 0.0624(4)
H14_3 H 0.3663 0.9134 0.1064
C19_3 C 0.4636(5) 0.9019(4) 0.0846(4)
H17_3 H 0.4962 0.9091 0.1425
C20_3 C 0.4911(3) 0.8897(3) 0.0198(4)
H27_3 H 0.0855 0.8073 0.0015
C35_3 C 0.0746(5) 0.3870(5) 0.040(5)
H29_3 H 0.0967 0.4432 0.0660
H30_3 H 0.0967 0.3392 0.0812
O1_3 O 0.2016(2) 0.9750(2) 0.8344(2)
N3_3 N 0.3375(4) 0.8914(4) 0.9816(5)
C13_3 C 0.4407(4) 0.8769(4) 0.9362(4)
H9_3 H 0.4581 0.8660 0.8912
H11_3 H 0.5837 0.8769 0.9875
C17_3 C 0.3635(5) 0.8800(5) 0.9175(4)
H15_3 H 0.3299 0.8741 0.8599
N5_3 N 0.0876(3) 0.8967(3) 0.9219(3)
O8_2 O 0.2052(3) 0.7634(2) 0.8908(2)
C32_3 C 0.0435(6) 0.9523(13) 0.8715(10)
H25_3 H 0.0630 0.9910 0.8407
C34_3 C 0.0561(4) 0.8493(5) 0.9614(4)
H28_3 H 0.0837 0.3769 0.9875
C36_3 C 0.8851(4) 0.4035(5) 0.0624(4)
H31_3 H 0.8663 0.4134 0.1064
C39_3 C 0.9636(5) 0.4019(4) 0.0846(4)
H34_3 H 0.9962 0.4091 0.1425
C40_3 C 0.9911(3) 0.3897(3) 0.0198(4)
O5_3 O 0.7016(2) 0.4750(2) 0.8344(2)
O6_3 O 0.7199(2) 0.5473(3) 0.9575(2)
N4_3 N 0.8228(3) 0.8507(3) 0.9180(3)
H18_3 H 0.8225 0.8499 0.9702
O7_2 O 0.7948(3) 0.7634(2) 0.6092(2)
O9_2 O 0.7052(3) 0.2634(2) 0.8908(2)
C21_3 C 0.7380(3) 0.6282(3) 0.8414(3)
C22_3 C 0.7627(3) 0.7008(3) 0.7243(3)
C23_3 C 0.7172(3) 0.5464(3) 0.8792(3)
C24_3 C 0.7650(3) 0.7035(4) 0.8934(4)
H19_3 H 0.7647 0.7045 0.9499
C25_3 C 0.7927(3) 0.7788(4) 0.8626(3)
C26_3 C 0.9350(3) 0.9137(3) 0.8984(3)
C27_3 C 0.7360(3) 0.6276(3) 0.7549(3)
H20_3 H 0.7168 0.5783 0.7188
C28_3 C 0.7620(3) 0.7006(4) 0.6313(3)
C29_3 C 0.7931(3) 0.7751(4) 0.7779(4)
H21_3 H 0.8138 0.8222 0.7571
C30_3 C 0.8546(3) 0.9271(4) 0.8898(4)
H22_3 H 0.8243 0.9399 0.8290
H23_3 H 0.8520 0.9791 0.9242
C31_3 C 0.9809(6) 0.8548(9) 0.9498(12)
H24_3 H 0.9622 0.8147 0.9801
N7_3 N 0.8375(4) 0.3914(4) 0.9816(5)
C33_3 C 0.9407(4) 0.3769(4) 0.9362(4)
H26_3 H 0.9581 0.3660 0.8912
C37_3 C 0.8635(5) 0.3800(5) 0.9175(4)
H32_3 H 0.8299 0.3741 0.8599
C38_3 C 0.9683(4) 0.9609(4) 0.8580(4)
O5_4 O 0.2984(2) 0.4750(2) 0.6656(2)
O6_4 O 0.2801(2) 0.5473(3) 0.5425(2)
N4_4 N 0.1772(3) 0.8507(3) 0.5820(3)
H18_4 H 0.1775 0.8499 0.5298
N6_2 N 0.4124(3) 0.3967(3) 0.5781(3)
C21_4 C 0.2620(3) 0.6282(3) 0.6586(3)
C22_4 C 0.2373(3) 0.7008(3) 0.7757(3)
C23_4 C 0.2828(3) 0.5464(3) 0.6208(3)
C24_4 C 0.2350(3) 0.7035(4) 0.6066(4)
H19_4 H 0.2353 0.7045 0.5501
C25_4 C 0.2073(3) 0.7788(4) 0.6374(3)
C26_4 C 0.0650(3) 0.9137(3) 0.6016(3)
C27_4 C 0.2640(3) 0.6276(3) 0.7451(3)
H20_4 H 0.2832 0.5783 0.7812
C28_4 C 0.2380(3) 0.7006(4) 0.8687(3)
C29_4 C 0.2069(3) 0.7751(4) 0.7221(4)
H21_4 H 0.1862 0.8222 0.7429
C30_4 C 0.1454(3) 0.9271(4) 0.6102(4)
H22_4 H 0.1757 0.9399 0.6710
H23_4 H 0.1480 0.9791 0.5758
C31_4 C 0.0191(6) 0.8548(9) 0.5502(12)
H24_4 H 0.0378 0.8147 0.5199
N7_4 N 0.1625(4) 0.3914(4) 0.5184(5)
C33_4 C 0.0593(4) 0.3769(4) 0.5638(4)
H26_4 H 0.0419 0.3660 0.6088
C36_4 C 0.1149(4) 0.4035(5) 0.4376(4)
H31_4 H 0.1337 0.4134 0.3936
C37_4 C 0.1365(5) 0.3800(5) 0.5825(4)
H32_4 H 0.1701 0.3741 0.6401
C38_4 C 0.0317(4) 0.9609(4) 0.6420(4)
C39_4 C 0.0364(5) 0.4019(4) 0.4154(4)
H34_4 H 0.0038 0.4091 0.3575
C40_4 C 0.0089(3) 0.3897(3) 0.4802(4)
O2_4 O 0.7801(2) 0.0473(3) 0.5425(2)
N1_4 N 0.6772(3) 0.3507(3) 0.5820(3)
H1_4 H 0.6775 0.3499 0.5298
C1_4 C 0.7620(3) 0.1282(3) 0.6586(3)
C2_4 C 0.7373(3) 0.2008(3) 0.7757(3)
C3_4 C 0.7828(3) 0.0464(3) 0.6208(3)
C4_4 C 0.7350(3) 0.2035(4) 0.6066(4)
H2_4 H 0.7353 0.2045 0.5501
C5_4 C 0.7073(3) 0.2788(4) 0.6374(3)
C6_4 C 0.5650(3) 0.4137(3) 0.6016(3)
C7_4 C 0.7640(3) 0.1276(3) 0.7451(3)
H3_4 H 0.7832 0.0783 0.7812
C8_4 C 0.7380(3) 0.2006(4) 0.8687(3)
C9_4 C 0.7069(3) 0.2751(4) 0.7221(4)
H4_4 H 0.6862 0.3222 0.7429
C10_4 C 0.6454(3) 0.4271(4) 0.6102(4)
H5_4 H 0.6757 0.4399 0.6710
H6_4 H 0.6480 0.4791 0.5758
C11_4 C 0.5191(6) 0.3548(9) 0.5502(12)
H7_4 H 0.5378 0.3147 0.5199
C12_4 C 0.4565(6) 0.4523(13) 0.6285(10)
H8_4 H 0.4370 0.4910 0.6593
C14_4 C 0.4439(4) 0.3493(5) 0.5386(4)
H10_4 H 0.4145 0.3073 0.4985
C18_4 C 0.5317(4) 0.4609(4) 0.6420(4)
H16_4 H 0.5599 0.5032 0.6825
O1_4 O 0.7984(2) 0.9750(2) 0.6656(2)
N3_4 N 0.6625(4) 0.8914(4) 0.5184(5)
C13_4 C 0.5593(4) 0.8769(4) 0.5638(4)
H9_4 H 0.5419 0.8660 0.6088
C15_4 C 0.4254(5) 0.8870(5) 0.460(5)
H11_4 H 0.4163 0.8769 0.5125
H12_4 H 0.4033 0.9432 0.4340
H13_4 H 0.4033 0.8392 0.4188
C16_4 C 0.6149(4) 0.9035(5) 0.4376(4)
H14_4 H 0.6337 0.9134 0.3936
C17_4 C 0.6365(5) 0.8800(5) 0.5825(4)
H15_4 H 0.6701 0.8741 0.6401
C19_4 C 0.5364(5) 0.9019(4) 0.4154(4)
H17_4 H 0.5038 0.9091 0.3575
C20_4 C 0.5089(3) 0.8897(3) 0.4802(4)
N5_4 N 0.9124(3) 0.8967(3) 0.5781(3)
C32_4 C 0.9565(6) 0.9523(13) 0.6285(10)
H25_4 H 0.9370 0.9910 0.6593
C34_4 C 0.9439(4) 0.8493(5) 0.5386(4)
H27_4 H 0.9145 0.8073 0.4985
C35_4 C 0.9254(5) 0.3870(5) 0.460(5)
H28_4 H 0.9163 0.3769 0.5125
H29_4 H 0.9033 0.4432 0.4340
H30_4 H 0.9033 0.3392 0.4188
H33 H 0.0599 0.9968 0.1825
H33_2 H 0.9401 0.9968 0.3175
H33_3 H 0.9401 0.0032 0.8175
H33_4 H 0.0599 0.0032 0.6825
loop_
_geom_bond_atom_site_label_1
_geom_bond_atom_site_label_2
_geom_bond_site_symmetry_1
_geom_bond_site_symmetry_2
Mn2 O5 1_555 1_555
Mn6 O7 1_555 1_555
Mn7 O10 1_555 1_555
O5 C23 1_555 1_555
O6 Mn2 1_555 1_555
N4 H18 1_555 1_555
N6 Mn2 1_555 1_555
O7 C28 1_555 1_555
O9 Mn2 1_555 1_555
C21 C23 1_555 1_555
C22 C27 1_555 1_555
O10 C28 1_555 1_555
C23 O6 1_555 1_555
C24 C21 1_555 1_555
H19 C24 1_555 1_555
C25 N4 1_555 1_555
C26 C30 1_555 1_555
C27 C21 1_555 1_555
H20 C27 1_555 1_555
C28 C22 1_555 1_555
C29 C22 1_555 1_555
H21 C29 1_555 1_555
C30 N4 1_555 1_555
H22 C30 1_555 1_555
H23 C30 1_555 1_555
C31 C26 1_555 1_555
H24 C31 1_555 1_555
N7 Mn2 1_555 1_555
C33 H26 1_555 1_555
C37 N7 1_555 1_555
H32 C37 1_555 1_555
C38 C26 1_555 1_555
C24 C25 1_555 1_555
C25 C29 1_555 1_555
C33 C37 1_555 1_555
H31 C36 1_555 1_555
C39 C36 1_555 1_555
H34 C39 1_555 1_555
C39 C40 1_555 1_555
Mn1 O1 1_555 1_555
N3 Mn1 1_555 1_555
C13 H9 1_555 1_555
C17 N3 1_555 1_555
H15 C17 1_555 1_555
N5 Mn1 1_555 1_555
O8 Mn1 1_555 1_555
C32 N5 1_555 1_555
H25 C32 1_555 1_555
C34 N5 1_555 1_555
C13 C17 1_555 1_555
H12 C15 1_555 1_555
H13 C15 1_555 1_555
H14 C16 1_555 1_555
C19 C16 1_555 1_555
H17 C19 1_555 1_555
H29 C35 1_555 1_555
H30 C35 1_555 1_555
C15 C20 1_555 1_555
C19 C20 1_555 1_555
N1 H1 1_555 1_555
N6 C12 1_555 1_555
O3 C8 1_555 1_555
C1 C3 1_555 1_555
C2 C7 1_555 1_555
O4 C8 1_555 1_555
C3 O2 1_555 1_555
C4 C1 1_555 1_555
H2 C4 1_555 1_555
C5 N1 1_555 1_555
C6 C10 1_555 1_555
C7 C1 1_555 1_555
H3 C7 1_555 1_555
C8 C2 1_555 1_555
C9 C2 1_555 1_555
H4 C9 1_555 1_555
C10 N1 1_555 1_555
H5 C10 1_555 1_555
H6 C10 1_555 1_555
C11 C6 1_555 1_555
H7 C11 1_555 1_555
C12 H8 1_555 1_555
C14 N6 1_555 1_555
C18 C6 1_555 1_555
H16 C18 1_555 1_555
Mn4 O3 1_555 1_555
Mn5 O4 1_555 1_555
C4 C5 1_555 1_555
C5 C9 1_555 1_555
C11 C14 1_555 1_555
C12 C18 1_555 1_555
Mn6 O1_2 1_555 1_555
N3_2 Mn6 1_555 1_555
C13_2 H9_2 1_555 1_555
C15_2 H11_2 1_555 1_555
H12_2 C15_2 1_555 1_555
H13_2 C15_2 1_555 1_555
C16_2 N3_2 1_555 1_555
H14_2 C16_2 1_555 1_555
C17_2 N3_2 1_555 1_555
H15_2 C17_2 1_555 1_555
C19_2 C16_2 1_555 1_555
H17_2 C19_2 1_555 1_555
C20_2 C13_2 1_555 1_555
N5_2 Mn6 1_555 1_555
O11_2 Mn6 1_555 1_555
C32_2 N5_2 1_555 1_555
H25_2 C32_2 1_555 1_555
C34_2 N5_2 1_555 1_555
H27_2 C34_2 1_555 1_555
C35_2 H28_2 1_555 1_555
H29_2 C35_2 1_555 1_555
H30_2 C35_2 1_555 1_555
C13_2 C17_2 1_555 1_555
C15_2 C20_2 1_555 1_555
C19_2 C20_2 1_555 1_555
N1_2 H1_2 1_555 1_555
N2 C12_2 1_555 1_555
O9 C8_2 1_555 1_555
C1_2 C3_2 1_555 1_555
C2_2 C7_2 1_555 1_555
O4_2 C8_2 1_555 1_555
C3_2 O2_2 1_555 1_555
C4_2 C1_2 1_555 1_555
H2_2 C4_2 1_555 1_555
C5_2 N1_2 1_555 1_555
C6_2 C10_2 1_555 1_555
C7_2 C1_2 1_555 1_555
H3_2 C7_2 1_555 1_555
C8_2 C2_2 1_555 1_555
C9_2 C2_2 1_555 1_555
H4_2 C9_2 1_555 1_555
C10_2 N1_2 1_555 1_555
H5_2 C10_2 1_555 1_555
H6_2 C10_2 1_555 1_555
C11_2 C6_2 1_555 1_555
H7_2 C11_2 1_555 1_555
C12_2 H8_2 1_555 1_555
C14_2 N2 1_555 1_555
H10_2 C14_2 1_555 1_555
C18_2 C6_2 1_555 1_555
H16_2 C18_2 1_555 1_555
Mn4 N2 1_555 1_555
C4_2 C5_2 1_555 1_555
C5_2 C9_2 1_555 1_555
C11_2 C14_2 1_555 1_555
C12_2 C18_2 1_555 1_555
Mn4 O5_2 1_555 1_555
O5_2 C23_2 1_555 1_555
O6_2 Mn4 1_555 1_555
N4_2 H18_2 1_555 1_555
O8 C28_2 1_555 1_555
C21_2 C23_2 1_555 1_555
C22_2 C27_2 1_555 1_555
O10_2 C28_2 1_555 1_555
O12_2 Mn4 1_555 1_555
C23_2 O6_2 1_555 1_555
C24_2 C21_2 1_555 1_555
H19_2 C24_2 1_555 1_555
C25_2 N4_2 1_555 1_555
C26_2 C30_2 1_555 1_555
C27_2 C21_2 1_555 1_555
H20_2 C27_2 1_555 1_555
C28_2 C22_2 1_555 1_555
C29_2 C22_2 1_555 1_555
H21_2 C29_2 1_555 1_555
C30_2 N4_2 1_555 1_555
H22_2 C30_2 1_555 1_555
H23_2 C30_2 1_555 1_555
C31_2 C26_2 1_555 1_555
H24_2 C31_2 1_555 1_555
N7_2 Mn4 1_555 1_555
C33_2 H26_2 1_555 1_555
C36_2 N7_2 1_555 1_555
H31_2 C36_2 1_555 1_555
C37_2 N7_2 1_555 1_555
H32_2 C37_2 1_555 1_555
C38_2 C26_2 1_555 1_555
C39_2 C36_2 1_555 1_555
H34_2 C39_2 1_555 1_555
C40_2 C33_2 1_555 1_555
C24_2 C25_2 1_555 1_555
C25_2 C29_2 1_555 1_555
C33_2 C37_2 1_555 1_555
C39_2 C40_2 1_555 1_555
N1_3 H1_3 1_555 1_555
N2_2 C12_3 1_555 1_555
O3_2 C8_3 1_555 1_555
C1_3 C3_3 1_555 1_555
C2_3 C7_3 1_555 1_555
O11_2 C8_3 1_555 1_555
C3_3 O2_3 1_555 1_555
C4_3 C1_3 1_555 1_555
H2_3 C4_3 1_555 1_555
C5_3 N1_3 1_555 1_555
C6_3 C10_3 1_555 1_555
C7_3 C1_3 1_555 1_555
H3_3 C7_3 1_555 1_555
C8_3 C2_3 1_555 1_555
C9_3 C2_3 1_555 1_555
H4_3 C9_3 1_555 1_555
C10_3 N1_3 1_555 1_555
H5_3 C10_3 1_555 1_555
H6_3 C10_3 1_555 1_555
C11_3 C6_3 1_555 1_555
H7_3 C11_3 1_555 1_555
C12_3 H8_3 1_555 1_555
C14_3 N2_2 1_555 1_555
C18_3 C6_3 1_555 1_555
H16_3 C18_3 1_555 1_555
Mn7_2 N2_2 1_555 1_555
Mn7 O3_2 1_555 1_555
C4_3 C5_3 1_555 1_555
C5_3 C9_3 1_555 1_555
C11_3 C14_3 1_555 1_555
C12_3 C18_3 1_555 1_555
H12_3 C15_3 1_555 1_555
H13_3 C15_3 1_555 1_555
H14_3 C16_3 1_555 1_555
C19_3 C16_3 1_555 1_555
H17_3 C19_3 1_555 1_555
H29_3 C35_3 1_555 1_555
H30_3 C35_3 1_555 1_555
C15_3 C20_3 1_555 1_555
C19_3 C20_3 1_555 1_555
Mn5_2 O1_3 1_555 1_555
N3_3 Mn5_2 1_555 1_555
C13_3 H9_3 1_555 1_555
C17_3 N3_3 1_555 1_555
H15_3 C17_3 1_555 1_555
N5_3 Mn5_2 1_555 1_555
O8_2 Mn5_2 1_555 1_555
C32_3 N5_3 1_555 1_555
H25_3 C32_3 1_555 1_555
C34_3 N5_3 1_555 1_555
C13_3 C17_3 1_555 1_555
H31_3 C36_3 1_555 1_555
C39_3 C36_3 1_555 1_555
H34_3 C39_3 1_555 1_555
C39_3 C40_3 1_555 1_555
Mn7_2 O5_3 1_555 1_555
Mn5 O7_2 1_555 1_555
O5_3 C23_3 1_555 1_555
O6_3 Mn7_2 1_555 1_555
N4_3 H18_3 1_555 1_555
O7_2 C28_3 1_555 1_555
O9_2 Mn7_2 1_555 1_555
C21_3 C23_3 1_555 1_555
C22_3 C27_3 1_555 1_555
O12_2 C28_3 1_555 1_555
C23_3 O6_3 1_555 1_555
C24_3 C21_3 1_555 1_555
H19_3 C24_3 1_555 1_555
C25_3 N4_3 1_555 1_555
C26_3 C30_3 1_555 1_555
C27_3 C21_3 1_555 1_555
H20_3 C27_3 1_555 1_555
C28_3 C22_3 1_555 1_555
C29_3 C22_3 1_555 1_555
H21_3 C29_3 1_555 1_555
C30_3 N4_3 1_555 1_555
H22_3 C30_3 1_555 1_555
H23_3 C30_3 1_555 1_555
C31_3 C26_3 1_555 1_555
H24_3 C31_3 1_555 1_555
N7_3 Mn7_2 1_555 1_555
C33_3 H26_3 1_555 1_555
C37_3 N7_3 1_555 1_555
H32_3 C37_3 1_555 1_555
C38_3 C26_3 1_555 1_555
C24_3 C25_3 1_555 1_555
C25_3 C29_3 1_555 1_555
C33_3 C37_3 1_555 1_555
Mn7 O5_4 1_555 1_555
O5_4 C23_4 1_555 1_555
O6_4 Mn7 1_555 1_555
N4_4 H18_4 1_555 1_555
N6_2 Mn7 1_555 1_555
O8_2 C28_4 1_555 1_555
C21_4 C23_4 1_555 1_555
C22_4 C27_4 1_555 1_555
O12 C28_4 1_555 1_555
C23_4 O6_4 1_555 1_555
C24_4 C21_4 1_555 1_555
H19_4 C24_4 1_555 1_555
C25_4 N4_4 1_555 1_555
C26_4 C30_4 1_555 1_555
C27_4 C21_4 1_555 1_555
H20_4 C27_4 1_555 1_555
C28_4 C22_4 1_555 1_555
C29_4 C22_4 1_555 1_555
H21_4 C29_4 1_555 1_555
C30_4 N4_4 1_555 1_555
H22_4 C30_4 1_555 1_555
H23_4 C30_4 1_555 1_555
C31_4 C26_4 1_555 1_555
H24_4 C31_4 1_555 1_555
N7_4 Mn7 1_555 1_555
C33_4 H26_4 1_555 1_555
C36_4 N7_4 1_555 1_555
H31_4 C36_4 1_555 1_555
C37_4 N7_4 1_555 1_555
H32_4 C37_4 1_555 1_555
C38_4 C26_4 1_555 1_555
C39_4 C36_4 1_555 1_555
H34_4 C39_4 1_555 1_555
C40_4 C33_4 1_555 1_555
C24_4 C25_4 1_555 1_555
C25_4 C29_4 1_555 1_555
C33_4 C37_4 1_555 1_555
C39_4 C40_4 1_555 1_555
N1_4 H1_4 1_555 1_555
N6_2 C12_4 1_555 1_555
O9_2 C8_4 1_555 1_555
C1_4 C3_4 1_555 1_555
C2_4 C7_4 1_555 1_555
O11 C8_4 1_555 1_555
C3_4 O2_4 1_555 1_555
C4_4 C1_4 1_555 1_555
H2_4 C4_4 1_555 1_555
C5_4 N1_4 1_555 1_555
C6_4 C10_4 1_555 1_555
C7_4 C1_4 1_555 1_555
H3_4 C7_4 1_555 1_555
C8_4 C2_4 1_555 1_555
C9_4 C2_4 1_555 1_555
H4_4 C9_4 1_555 1_555
C10_4 N1_4 1_555 1_555
H5_4 C10_4 1_555 1_555
H6_4 C10_4 1_555 1_555
C11_4 C6_4 1_555 1_555
H7_4 C11_4 1_555 1_555
C12_4 H8_4 1_555 1_555
C14_4 N6_2 1_555 1_555
H10_4 C14_4 1_555 1_555
C18_4 C6_4 1_555 1_555
H16_4 C18_4 1_555 1_555
C4_4 C5_4 1_555 1_555
C5_4 C9_4 1_555 1_555
C11_4 C14_4 1_555 1_555
C12_4 C18_4 1_555 1_555
Mn5 O1_4 1_555 1_555
N3_4 Mn5 1_555 1_555
C13_4 H9_4 1_555 1_555
C15_4 H11_4 1_555 1_555
H12_4 C15_4 1_555 1_555
H13_4 C15_4 1_555 1_555
C16_4 N3_4 1_555 1_555
H14_4 C16_4 1_555 1_555
C17_4 N3_4 1_555 1_555
H15_4 C17_4 1_555 1_555
C19_4 C16_4 1_555 1_555
H17_4 C19_4 1_555 1_555
C20_4 C13_4 1_555 1_555
N5_4 Mn5 1_555 1_555
C32_4 N5_4 1_555 1_555
H25_4 C32_4 1_555 1_555
C34_4 N5_4 1_555 1_555
H27_4 C34_4 1_555 1_555
C35_4 H28_4 1_555 1_555
H29_4 C35_4 1_555 1_555
H30_4 C35_4 1_555 1_555
C13_4 C17_4 1_555 1_555
C15_4 C20_4 1_555 1_555
C19_4 C20_4 1_555 1_555

#END
