
###############################################################################
#
# This file contains modified crystal structure data generated from the
# MOF subset of the Cambridge Structural Database (CSD) v543 
# hosted by the Cambridge Crystallographic Data Centre (CCDC).
#
# This work is licensed under the Creative Commons
# Attribution-NonCommercial-ShareAlike 4.0 International License.
# To view a copy of this license, visit
# http://creativecommons.org/licenses/by-nc-sa/4.0/
# or send a letter to
# Creative Commons, PO Box 1866, Mountain View, CA 94042, USA.
#
# CIF created using the CSD Python API on 29 September 2022
# The structure has been converted into the P1 space group
# The structure has a 3D framework
# The original CSD entry TUTHOG is in the monoclinic crystal system
# The framework has been calculated to contain at least 10.0% void space
# The void calculation uses a probe of radius 1.32A, grid spacing 0.4
#
###############################################################################

data_TUTHOG
_chemical_formula_moiety         '(C136 H136 Mn8 N24 O36)n'
_symmetry_cell_setting           triclinic
_symmetry_space_group_name_H-M   'P 1'
_symmetry_Int_Tables_number      1
_space_group_name_Hall           'P 1'
loop_
_symmetry_equiv_pos_site_id
_symmetry_equiv_pos_as_xyz
1 x,y,z
_cell_length_a                   18.596(6)
_cell_length_b                   15.005(5)
_cell_length_c                   16.246(4)
_cell_angle_alpha                90
_cell_angle_beta                 113.042(5)
_cell_angle_gamma                90
_cell_volume                     4171.51
loop_
_atom_site_label
_atom_site_type_symbol
_atom_site_fract_x
_atom_site_fract_y
_atom_site_fract_z
Mn3 Mn 0.27691(6) 0.11005(6) 0.04752(6)
O9 O 0.2890(3) 0.0237(3) 0.1637(3)
N2 N 0.0949(4) 0.5946(4) 0.4261(4)
C13 C 0.0630(4) 0.6445(4) 0.4671(5)
H9 H 0.0944 0.6872 0.5062
C14 C 0.0476(4) 0.5375(4) 0.3724(5)
H10 H 0.0669 0.5009 0.3395
Mn2 Mn 0.22309(6) 0.61005(6) 0.45248(6)
Mn6 Mn 0.27691(6) 0.88995(6) 0.54752(6)
O6 O 0.2624(3) 0.9568(3) 0.0347(3)
O7 O 0.2376(3) 0.4568(3) 0.4653(3)
O10 O 0.2110(3) 0.5237(3) 0.3363(3)
O12 O 0.2561(3) 0.8668(3) 0.4119(3)
O14 O 0.2439(3) 0.6332(3) 0.5881(3)
O15 O 0.1983(3) 0.7343(3) 0.3891(3)
C18 C 0.2522(4) 0.8722(4) 0.2397(4)
H18 H 0.2700 0.9221 0.2759
N4 N 0.1750(4) 0.6462(4) 0.0774(4)
H19 H 0.1767 0.6465 0.0253
C19 C 0.2283(4) 0.7972(4) 0.2727(4)
C20 C 0.2004(4) 0.7201(4) 0.1316(4)
C21 C 0.0135(5) 0.6395(5) 0.0425(5)
H20 H 0.0320 0.6789 0.0111
C22 C 0.2495(4) 0.8728(4) 0.1527(4)
C23 C 0.2012(4) 0.7224(4) 0.2186(4)
H21 H 0.1834 0.6734 0.2402
C24 C 0.2689(4) 0.9550(4) 0.1146(4)
O16 O 0.3459(4) 0.6216(4) 0.4720(5)
C25 C 0.0623(4) 0.5786(4) 0.0965(4)
C26 C 0.2238(4) 0.7964(4) 0.0997(4)
H22 H 0.2225 0.7966 0.0419
C27 C 0.2279(4) 0.7992(4) 0.3650(4)
C28 C 0.0301(4) 0.5270(4) 0.1398(4)
H23 H 0.0602 0.4833 0.1786
C29 C 0.1458(4) 0.5687(4) 0.1065(5)
H24 H 0.1783 0.5572 0.1688
H25 H 0.1499 0.5176 0.0720
C32 C 0.3979(4) 0.6148(5) 0.5367(4)
H28 H 0.3886 0.6065 0.5884
N6 N 0.4771(5) 0.6177(5) 0.5460(5)
C33 C 0.4919(5) 0.6290(4) 0.4679(4)
H29 H 0.5473 0.6295 0.4833
H30 H 0.4698 0.6844 0.4398
H31 H 0.4687 0.5808 0.4273
C34 C 0.5357(4) 0.6153(4) 0.6335(4)
H32 H 0.5863 0.6173 0.6306
H33 H 0.5309 0.5612 0.6626
H34 H 0.5298 0.6656 0.6668
O2 O 0.7110(3) 0.0237(3) 0.3363(3)
Mn4 Mn 0.72309(6) 0.11005(6) 0.45248(6)
Mn1 Mn 0.77691(6) 0.61005(6) 0.04752(6)
O1 O 0.7376(3) 0.9568(3) 0.4653(3)
O3 O 0.7439(3) 0.8668(3) 0.0881(3)
O4 O 0.8017(3) 0.7343(3) 0.1109(3)
C1 C 0.7478(4) 0.8722(4) 0.2603(4)
H1 H 0.7300 0.9221 0.2241
N1 N 0.8250(4) 0.6462(4) 0.4226(4)
H2 H 0.8233 0.6465 0.4747
C2 C 0.7717(4) 0.7972(4) 0.2273(4)
C3 C 0.7996(4) 0.7201(4) 0.3684(4)
C4 C 0.9865(5) 0.6395(5) 0.4575(5)
H3 H 0.9680 0.6789 0.4889
C5 C 0.7505(4) 0.8728(4) 0.3473(4)
C6 C 0.7988(4) 0.7224(4) 0.2814(4)
H4 H 0.8166 0.6734 0.2598
C7 C 0.7311(4) 0.9550(4) 0.3854(4)
O5 O 0.6541(4) 0.6216(4) 0.0280(5)
C8 C 0.9377(4) 0.5786(4) 0.4035(4)
C9 C 0.7762(4) 0.7964(4) 0.4003(4)
H5 H 0.7775 0.7966 0.4581
C10 C 0.7721(4) 0.7992(4) 0.1350(4)
C11 C 0.9699(4) 0.5270(4) 0.3602(4)
H6 H 0.9398 0.4833 0.3214
C12 C 0.8542(4) 0.5687(4) 0.3935(5)
H7 H 0.8217 0.5572 0.3312
H8 H 0.8501 0.5176 0.4280
C16 C 0.5081(5) 0.6290(4) 0.0321(4)
H12 H 0.4527 0.6295 0.0167
H13 H 0.5302 0.6844 0.0602
H14 H 0.5313 0.5808 0.0727
O8 O 0.7624(3) 0.4568(3) 0.0347(3)
O11 O 0.7890(3) 0.5237(3) 0.1637(3)
N5 N 0.9051(4) 0.5946(4) 0.0739(4)
C30 C 0.9370(4) 0.6445(4) 0.0329(5)
C31 C 0.9524(4) 0.5375(4) 0.1276(5)
H27 H 0.9331 0.5009 0.1605
C15 C 0.6021(4) 0.6148(5) 0.9633(4)
H11 H 0.6114 0.6065 0.9116
N3 N 0.5229(5) 0.6177(5) 0.9540(5)
C17 C 0.4643(4) 0.6153(4) 0.8665(4)
H15 H 0.4137 0.6173 0.8694
H16 H 0.4691 0.5612 0.8374
H17 H 0.4702 0.6656 0.8332
Mn5 Mn 0.72309(6) 0.88995(6) 0.95248(6)
O13 O 0.7561(3) 0.6332(3) 0.9119(3)
H26 H 0.9056 0.6872 0.9938
O3_2 O 0.2439(3) 0.3668(3) 0.0881(3)
O4_2 O 0.3017(3) 0.2343(3) 0.1109(3)
C1_2 C 0.2478(4) 0.3722(4) 0.2603(4)
H1_2 H 0.2300 0.4221 0.2241
N1_2 N 0.3250(4) 0.1462(4) 0.4226(4)
H2_2 H 0.3233 0.1465 0.4747
N2_2 N 0.5949(4) 0.0946(4) 0.4261(4)
C2_2 C 0.2717(4) 0.2972(4) 0.2273(4)
C3_2 C 0.2996(4) 0.2201(4) 0.3684(4)
C4_2 C 0.4865(5) 0.1395(5) 0.4575(5)
H3_2 H 0.4680 0.1789 0.4889
C5_2 C 0.2505(4) 0.3728(4) 0.3473(4)
C6_2 C 0.2988(4) 0.2224(4) 0.2814(4)
H4_2 H 0.3166 0.1734 0.2598
C7_2 C 0.2311(4) 0.4550(4) 0.3854(4)
O5_2 O 0.1541(4) 0.1216(4) 0.0280(5)
C8_2 C 0.4377(4) 0.0786(4) 0.4035(4)
C9_2 C 0.2762(4) 0.2964(4) 0.4003(4)
H5_2 H 0.2775 0.2966 0.4581
C10_2 C 0.2721(4) 0.2992(4) 0.1350(4)
C11_2 C 0.4699(4) 0.0270(4) 0.3602(4)
C12_2 C 0.3542(4) 0.0687(4) 0.3935(5)
H7_2 H 0.3217 0.0572 0.3312
H8_2 H 0.3501 0.0176 0.4280
C13_2 C 0.5630(4) 0.1445(4) 0.4671(5)
H9_2 H 0.5944 0.1872 0.5062
C14_2 C 0.5476(4) 0.0375(4) 0.3724(5)
H10_2 H 0.5669 0.0009 0.3395
C16_2 C 0.0081(5) 0.1290(4) 0.0321(4)
H13_2 H 0.0302 0.1844 0.0602
H14_2 H 0.0313 0.0808 0.0727
Mn6_2 Mn 0.77691(6) 0.38995(6) 0.54752(6)
O12_2 O 0.7561(3) 0.3668(3) 0.4119(3)
O14_2 O 0.7439(3) 0.1332(3) 0.5881(3)
O15_2 O 0.6983(3) 0.2343(3) 0.3891(3)
C18_2 C 0.7522(4) 0.3722(4) 0.2397(4)
H18_2 H 0.7700 0.4221 0.2759
N4_2 N 0.6750(4) 0.1462(4) 0.0774(4)
H19_2 H 0.6767 0.1465 0.0253
N5_2 N 0.4051(4) 0.0946(4) 0.0739(4)
C19_2 C 0.7283(4) 0.2972(4) 0.2727(4)
C20_2 C 0.7004(4) 0.2201(4) 0.1316(4)
C21_2 C 0.5135(5) 0.1395(5) 0.0425(5)
H20_2 H 0.5320 0.1789 0.0111
C22_2 C 0.7495(4) 0.3728(4) 0.1527(4)
C23_2 C 0.7012(4) 0.2224(4) 0.2186(4)
H21_2 H 0.6834 0.1734 0.2402
C24_2 C 0.7689(4) 0.4550(4) 0.1146(4)
O16_2 O 0.8459(4) 0.1216(4) 0.4720(5)
C25_2 C 0.5623(4) 0.0786(4) 0.0965(4)
C26_2 C 0.7238(4) 0.2964(4) 0.0997(4)
H22_2 H 0.7225 0.2966 0.0419
C27_2 C 0.7279(4) 0.2992(4) 0.3650(4)
C28_2 C 0.5301(4) 0.0270(4) 0.1398(4)
C29_2 C 0.6458(4) 0.0687(4) 0.1065(5)
H24_2 H 0.6783 0.0572 0.1688
H25_2 H 0.6499 0.0176 0.0720
C30_2 C 0.4370(4) 0.1445(4) 0.0329(5)
C31_2 C 0.4524(4) 0.0375(4) 0.1276(5)
H27_2 H 0.4331 0.0009 0.1605
C32_2 C 0.8979(4) 0.1148(5) 0.5367(4)
H28_2 H 0.8886 0.1065 0.5884
N6_2 N 0.9771(5) 0.1177(5) 0.5460(5)
C33_2 C 0.9919(5) 0.1290(4) 0.4679(4)
H30_2 H 0.9698 0.1844 0.4398
H31_2 H 0.9687 0.0808 0.4273
C15_2 C 0.1021(4) 0.1148(5) 0.9633(4)
H11_2 H 0.1114 0.1065 0.9116
N3_2 N 0.0229(5) 0.1177(5) 0.9540(5)
Mn5_2 Mn 0.22309(6) 0.38995(6) 0.95248(6)
O13_2 O 0.2561(3) 0.1332(3) 0.9119(3)
H26_2 H 0.4056 0.1872 0.9938
H6_2 H 0.4398 0.9833 0.3214
H23_2 H 0.5602 0.9833 0.1786
C15_3 C 0.3979(4) 0.3852(5) 0.0367(4)
H11_3 H 0.3886 0.3935 0.0884
N3_3 N 0.4771(5) 0.3823(5) 0.0460(5)
C17_2 C 0.5357(4) 0.3847(4) 0.1335(4)
H15_2 H 0.5863 0.3827 0.1306
H16_2 H 0.5309 0.4388 0.1626
H17_2 H 0.5298 0.3344 0.1668
H26_3 H 0.0944 0.3128 0.0062
O1_2 O 0.2624(3) 0.0432(3) 0.5347(3)
O4_3 O 0.1983(3) 0.2657(3) 0.8891(3)
C1_3 C 0.2522(4) 0.1278(4) 0.7397(4)
H1_3 H 0.2700 0.0779 0.7759
N1_3 N 0.1750(4) 0.3538(4) 0.5774(4)
H2_3 H 0.1767 0.3535 0.5253
C2_3 C 0.2283(4) 0.2028(4) 0.7727(4)
C3_3 C 0.2004(4) 0.2799(4) 0.6316(4)
C4_3 C 0.0135(5) 0.3605(5) 0.5425(5)
H3_3 H 0.0320 0.3211 0.5111
C5_3 C 0.2495(4) 0.1272(4) 0.6527(4)
C6_3 C 0.2012(4) 0.2776(4) 0.7186(4)
H4_3 H 0.1834 0.3266 0.7402
C7_3 C 0.2689(4) 0.0450(4) 0.6146(4)
O5_3 O 0.3459(4) 0.3784(4) 0.9720(5)
C8_3 C 0.0623(4) 0.4214(4) 0.5965(4)
C9_3 C 0.2238(4) 0.2036(4) 0.5997(4)
H5_3 H 0.2225 0.2034 0.5419
C10_3 C 0.2279(4) 0.2008(4) 0.8650(4)
C11_3 C 0.0301(4) 0.4730(4) 0.6398(4)
H6_3 H 0.0602 0.5167 0.6786
C12_3 C 0.1458(4) 0.4313(4) 0.6065(5)
H7_3 H 0.1783 0.4428 0.6688
H8_3 H 0.1499 0.4824 0.5720
C16_3 C 0.4919(5) 0.3710(4) 0.9679(4)
H12_2 H 0.5473 0.3705 0.9833
H13_3 H 0.4698 0.3156 0.9398
H14_3 H 0.4687 0.4192 0.9273
O8_2 O 0.2376(3) 0.5432(3) 0.9653(3)
O11_2 O 0.2110(3) 0.4763(3) 0.8363(3)
N5_3 N 0.0949(4) 0.4054(4) 0.9261(4)
C30_3 C 0.0630(4) 0.3555(4) 0.9671(5)
C31_3 C 0.0476(4) 0.4625(4) 0.8724(5)
H27_3 H 0.0669 0.4991 0.8395
O2_2 O 0.2890(3) 0.9763(3) 0.6637(3)
N2_3 N 0.9051(4) 0.4054(4) 0.5739(4)
C13_3 C 0.9370(4) 0.3555(4) 0.5329(5)
H9_3 H 0.9056 0.3128 0.4938
C14_3 C 0.9524(4) 0.4625(4) 0.6276(5)
H10_3 H 0.9331 0.4991 0.6605
O6_2 O 0.7376(3) 0.0432(3) 0.9653(3)
O7_2 O 0.7624(3) 0.5432(3) 0.5347(3)
O10_2 O 0.7890(3) 0.4763(3) 0.6637(3)
O15_3 O 0.8017(3) 0.2657(3) 0.6109(3)
C18_3 C 0.7478(4) 0.1278(4) 0.7603(4)
H18_3 H 0.7300 0.0779 0.7241
N4_3 N 0.8250(4) 0.3538(4) 0.9226(4)
H19_3 H 0.8233 0.3535 0.9747
C19_3 C 0.7717(4) 0.2028(4) 0.7273(4)
C20_3 C 0.7996(4) 0.2799(4) 0.8684(4)
C21_3 C 0.9865(5) 0.3605(5) 0.9575(5)
H20_3 H 0.9680 0.3211 0.9889
C22_3 C 0.7505(4) 0.1272(4) 0.8473(4)
C23_3 C 0.7988(4) 0.2776(4) 0.7814(4)
H21_3 H 0.8166 0.3266 0.7598
C24_3 C 0.7311(4) 0.0450(4) 0.8854(4)
O16_3 O 0.6541(4) 0.3784(4) 0.5280(5)
C25_3 C 0.9377(4) 0.4214(4) 0.9035(4)
C26_3 C 0.7762(4) 0.2036(4) 0.9003(4)
H22_3 H 0.7775 0.2034 0.9581
C27_3 C 0.7721(4) 0.2008(4) 0.6350(4)
C28_3 C 0.9699(4) 0.4730(4) 0.8602(4)
H23_3 H 0.9398 0.5167 0.8214
C29_3 C 0.8542(4) 0.4313(4) 0.8935(5)
H24_3 H 0.8217 0.4428 0.8312
H25_3 H 0.8501 0.4824 0.9280
C32_3 C 0.6021(4) 0.3852(5) 0.4633(4)
H28_3 H 0.6114 0.3935 0.4116
N6_3 N 0.5229(5) 0.3823(5) 0.4540(5)
C33_3 C 0.5081(5) 0.3710(4) 0.5321(4)
H29_2 H 0.4527 0.3705 0.5167
H30_3 H 0.5302 0.3156 0.5602
H31_3 H 0.5313 0.4192 0.5727
C34_2 C 0.4643(4) 0.3847(4) 0.3665(4)
H32_2 H 0.4137 0.3827 0.3694
H33_2 H 0.4691 0.4388 0.3374
H34_2 H 0.4702 0.3344 0.3332
O9_2 O 0.7110(3) 0.9763(3) 0.8363(3)
H6_4 H 0.5602 0.0167 0.6786
H23_4 H 0.4398 0.0167 0.8214
C15_4 C 0.8979(4) 0.8852(5) 0.0367(4)
H11_4 H 0.8886 0.8935 0.0884
N3_4 N 0.9771(5) 0.8823(5) 0.0460(5)
H26_4 H 0.5944 0.8128 0.0062
O4_4 O 0.6983(3) 0.7657(3) 0.8891(3)
C1_4 C 0.7522(4) 0.6278(4) 0.7397(4)
H1_4 H 0.7700 0.5779 0.7759
N1_4 N 0.6750(4) 0.8538(4) 0.5774(4)
H2_4 H 0.6767 0.8535 0.5253
N2_4 N 0.4051(4) 0.9054(4) 0.5739(4)
C2_4 C 0.7283(4) 0.7028(4) 0.7727(4)
C3_4 C 0.7004(4) 0.7799(4) 0.6316(4)
C4_4 C 0.5135(5) 0.8605(5) 0.5425(5)
H3_4 H 0.5320 0.8211 0.5111
C5_4 C 0.7495(4) 0.6272(4) 0.6527(4)
C6_4 C 0.7012(4) 0.7776(4) 0.7186(4)
H4_4 H 0.6834 0.8266 0.7402
C7_4 C 0.7689(4) 0.5450(4) 0.6146(4)
O5_4 O 0.8459(4) 0.8784(4) 0.9720(5)
C8_4 C 0.5623(4) 0.9214(4) 0.5965(4)
C9_4 C 0.7238(4) 0.7036(4) 0.5997(4)
H5_4 H 0.7225 0.7034 0.5419
C10_4 C 0.7279(4) 0.7008(4) 0.8650(4)
C11_4 C 0.5301(4) 0.9730(4) 0.6398(4)
C12_4 C 0.6458(4) 0.9313(4) 0.6065(5)
H7_4 H 0.6783 0.9428 0.6688
H8_4 H 0.6499 0.9824 0.5720
C13_4 C 0.4370(4) 0.8555(4) 0.5329(5)
H9_4 H 0.4056 0.8128 0.4938
C14_4 C 0.4524(4) 0.9625(4) 0.6276(5)
H10_4 H 0.4331 0.9991 0.6605
C16_4 C 0.9919(5) 0.8710(4) 0.9679(4)
H13_4 H 0.9698 0.8156 0.9398
H14_4 H 0.9687 0.9192 0.9273
O15_4 O 0.3017(3) 0.7657(3) 0.6109(3)
C18_4 C 0.2478(4) 0.6278(4) 0.7603(4)
H18_4 H 0.2300 0.5779 0.7241
N4_4 N 0.3250(4) 0.8538(4) 0.9226(4)
H19_4 H 0.3233 0.8535 0.9747
N5_4 N 0.5949(4) 0.9054(4) 0.9261(4)
C19_4 C 0.2717(4) 0.7028(4) 0.7273(4)
C20_4 C 0.2996(4) 0.7799(4) 0.8684(4)
C21_4 C 0.4865(5) 0.8605(5) 0.9575(5)
H20_4 H 0.4680 0.8211 0.9889
C22_4 C 0.2505(4) 0.6272(4) 0.8473(4)
C23_4 C 0.2988(4) 0.7776(4) 0.7814(4)
H21_4 H 0.3166 0.8266 0.7598
C24_4 C 0.2311(4) 0.5450(4) 0.8854(4)
O16_4 O 0.1541(4) 0.8784(4) 0.5280(5)
C25_4 C 0.4377(4) 0.9214(4) 0.9035(4)
C26_4 C 0.2762(4) 0.7036(4) 0.9003(4)
H22_4 H 0.2775 0.7034 0.9581
C27_4 C 0.2721(4) 0.7008(4) 0.6350(4)
C28_4 C 0.4699(4) 0.9730(4) 0.8602(4)
C29_4 C 0.3542(4) 0.9313(4) 0.8935(5)
H24_4 H 0.3217 0.9428 0.8312
H25_4 H 0.3501 0.9824 0.9280
C30_4 C 0.5630(4) 0.8555(4) 0.9671(5)
C31_4 C 0.5476(4) 0.9625(4) 0.8724(5)
H27_4 H 0.5669 0.9991 0.8395
C32_4 C 0.1021(4) 0.8852(5) 0.4633(4)
H28_4 H 0.1114 0.8935 0.4116
N6_4 N 0.0229(5) 0.8823(5) 0.4540(5)
C33_4 C 0.0081(5) 0.8710(4) 0.5321(4)
H30_4 H 0.0302 0.8156 0.5602
H31_4 H 0.0313 0.9192 0.5727
H29_3 H 0.0473 0.1295 0.4833
C34_3 C 0.0357(4) 0.1153(4) 0.6335(4)
H32_3 H 0.0863 0.1173 0.6306
H33_3 H 0.0309 0.0612 0.6626
H34_3 H 0.0298 0.1656 0.6668
H12_3 H 0.9527 0.1295 0.0167
C17_3 C 0.9643(4) 0.1153(4) 0.8665(4)
H15_3 H 0.9137 0.1173 0.8694
H16_3 H 0.9691 0.0612 0.8374
H17_3 H 0.9702 0.1656 0.8332
C17_4 C 0.0357(4) 0.8847(4) 0.1335(4)
H15_4 H 0.0863 0.8827 0.1306
H16_4 H 0.0309 0.9388 0.1626
H17_4 H 0.0298 0.8344 0.1668
H12_4 H 0.0473 0.8705 0.9833
H29_4 H 0.9527 0.8705 0.5167
C34_4 C 0.9643(4) 0.8847(4) 0.3665(4)
H32_4 H 0.9137 0.8827 0.3694
H33_4 H 0.9691 0.9388 0.3374
H34_4 H 0.9702 0.8344 0.3332
loop_
_geom_bond_atom_site_label_1
_geom_bond_atom_site_label_2
_geom_bond_site_symmetry_1
_geom_bond_site_symmetry_2
O9 Mn3 1_555 1_555
N2 C13 1_555 1_555
H9 C13 1_555 1_555
C14 N2 1_555 1_555
H10 C14 1_555 1_555
Mn2 N2 1_555 1_555
Mn6 O12 1_555 1_555
O6 C24 1_555 1_555
O7 Mn2 1_555 1_555
O10 Mn2 1_555 1_555
O12 C27 1_555 1_555
O14 Mn2 1_555 1_555
O15 Mn2 1_555 1_555
C18 H18 1_555 1_555
N4 H19 1_555 1_555
C19 C18 1_555 1_555
C20 N4 1_555 1_555
C21 H20 1_555 1_555
C22 C18 1_555 1_555
C23 C19 1_555 1_555
H21 C23 1_555 1_555
O16 Mn2 1_555 1_555
C25 C21 1_555 1_555
C26 C20 1_555 1_555
H22 C26 1_555 1_555
C27 O15 1_555 1_555
C28 C25 1_555 1_555
H23 C28 1_555 1_555
C29 N4 1_555 1_555
H24 C29 1_555 1_555
H25 C29 1_555 1_555
C32 O16 1_555 1_555
H28 C32 1_555 1_555
N6 C32 1_555 1_555
C33 N6 1_555 1_555
H29 C33 1_555 1_555
H30 C33 1_555 1_555
H31 C33 1_555 1_555
C34 N6 1_555 1_555
H32 C34 1_555 1_555
H33 C34 1_555 1_555
H34 C34 1_555 1_555
C19 C27 1_555 1_555
C20 C23 1_555 1_555
C22 C24 1_555 1_555
C22 C26 1_555 1_555
C25 C29 1_555 1_555
O2 Mn4 1_555 1_555
Mn1 O4 1_555 1_555
O1 C7 1_555 1_555
O3 C10 1_555 1_555
O4 C10 1_555 1_555
C1 H1 1_555 1_555
N1 H2 1_555 1_555
C2 C1 1_555 1_555
C3 N1 1_555 1_555
C4 H3 1_555 1_555
C5 C1 1_555 1_555
C6 C2 1_555 1_555
H4 C6 1_555 1_555
C7 C5 1_555 1_555
O5 Mn1 1_555 1_555
C8 C4 1_555 1_555
C9 C3 1_555 1_555
H5 C9 1_555 1_555
C10 C2 1_555 1_555
C11 C8 1_555 1_555
H6 C11 1_555 1_555
C12 N1 1_555 1_555
H7 C12 1_555 1_555
H8 C12 1_555 1_555
H12 C16 1_555 1_555
H13 C16 1_555 1_555
H14 C16 1_555 1_555
O8 Mn1 1_555 1_555
O11 Mn1 1_555 1_555
N5 Mn1 1_555 1_555
C30 N5 1_555 1_555
C31 N5 1_555 1_555
H27 C31 1_555 1_555
C3 C6 1_555 1_555
C5 C9 1_555 1_555
C8 C12 1_555 1_555
H11 C15 1_555 1_555
N3 C15 1_555 1_555
C17 N3 1_555 1_555
H15 C17 1_555 1_555
H16 C17 1_555 1_555
H17 C17 1_555 1_555
Mn3 O4_2 1_555 1_555
O7 C7_2 1_555 1_555
O10 C7_2 1_555 1_555
O3_2 C10_2 1_555 1_555
O4_2 C10_2 1_555 1_555
C1_2 H1_2 1_555 1_555
N1_2 H2_2 1_555 1_555
N2_2 C13_2 1_555 1_555
C2_2 C1_2 1_555 1_555
C3_2 N1_2 1_555 1_555
C4_2 H3_2 1_555 1_555
C5_2 C1_2 1_555 1_555
C6_2 C2_2 1_555 1_555
H4_2 C6_2 1_555 1_555
C7_2 C5_2 1_555 1_555
O5_2 Mn3 1_555 1_555
C8_2 C4_2 1_555 1_555
C9_2 C3_2 1_555 1_555
H5_2 C9_2 1_555 1_555
C10_2 C2_2 1_555 1_555
C11_2 C8_2 1_555 1_555
C12_2 N1_2 1_555 1_555
H7_2 C12_2 1_555 1_555
H8_2 C12_2 1_555 1_555
C13_2 C4_2 1_555 1_555
H9_2 C13_2 1_555 1_555
C14_2 N2_2 1_555 1_555
H10_2 C14_2 1_555 1_555
H13_2 C16_2 1_555 1_555
H14_2 C16_2 1_555 1_555
Mn4 N2_2 1_555 1_555
Mn6_2 O12_2 1_555 1_555
O8 C24_2 1_555 1_555
O12_2 C27_2 1_555 1_555
O14_2 Mn4 1_555 1_555
O15_2 Mn4 1_555 1_555
C18_2 H18_2 1_555 1_555
N4_2 H19_2 1_555 1_555
N5_2 Mn3 1_555 1_555
C19_2 C18_2 1_555 1_555
C20_2 N4_2 1_555 1_555
C21_2 H20_2 1_555 1_555
C22_2 C18_2 1_555 1_555
C23_2 C19_2 1_555 1_555
H21_2 C23_2 1_555 1_555
C24_2 O11 1_555 1_555
O16_2 Mn4 1_555 1_555
C25_2 C21_2 1_555 1_555
C26_2 C20_2 1_555 1_555
H22_2 C26_2 1_555 1_555
C27_2 O15_2 1_555 1_555
C28_2 C25_2 1_555 1_555
C29_2 N4_2 1_555 1_555
H24_2 C29_2 1_555 1_555
H25_2 C29_2 1_555 1_555
C30_2 N5_2 1_555 1_555
C31_2 N5_2 1_555 1_555
H27_2 C31_2 1_555 1_555
C32_2 O16_2 1_555 1_555
H28_2 C32_2 1_555 1_555
N6_2 C32_2 1_555 1_555
C33_2 N6_2 1_555 1_555
H30_2 C33_2 1_555 1_555
H31_2 C33_2 1_555 1_555
C3_2 C6_2 1_555 1_555
C5_2 C9_2 1_555 1_555
C8_2 C12_2 1_555 1_555
C11_2 C14_2 1_555 1_555
C19_2 C27_2 1_555 1_555
C20_2 C23_2 1_555 1_555
C21_2 C30_2 1_555 1_555
C22_2 C24_2 1_555 1_555
C22_2 C26_2 1_555 1_555
C25_2 C29_2 1_555 1_555
C28_2 C31_2 1_555 1_555
H11_2 C15_2 1_555 1_555
N3_2 C15_2 1_555 1_555
H11_3 C15_3 1_555 1_555
N3_3 C15_3 1_555 1_555
C17_2 N3_3 1_555 1_555
H15_2 C17_2 1_555 1_555
H16_2 C17_2 1_555 1_555
H17_2 C17_2 1_555 1_555
Mn5_2 O4_3 1_555 1_555
O1_2 C7_3 1_555 1_555
O13_2 C10_3 1_555 1_555
O4_3 C10_3 1_555 1_555
C1_3 H1_3 1_555 1_555
N1_3 H2_3 1_555 1_555
C2_3 C1_3 1_555 1_555
C3_3 N1_3 1_555 1_555
C4_3 H3_3 1_555 1_555
C5_3 C1_3 1_555 1_555
C6_3 C2_3 1_555 1_555
H4_3 C6_3 1_555 1_555
C7_3 C5_3 1_555 1_555
O5_3 Mn5_2 1_555 1_555
C8_3 C4_3 1_555 1_555
C9_3 C3_3 1_555 1_555
H5_3 C9_3 1_555 1_555
C10_3 C2_3 1_555 1_555
C11_3 C8_3 1_555 1_555
H6_3 C11_3 1_555 1_555
C12_3 N1_3 1_555 1_555
H7_3 C12_3 1_555 1_555
H8_3 C12_3 1_555 1_555
H12_2 C16_3 1_555 1_555
H13_3 C16_3 1_555 1_555
H14_3 C16_3 1_555 1_555
O8_2 Mn5_2 1_555 1_555
O11_2 Mn5_2 1_555 1_555
N5_3 Mn5_2 1_555 1_555
C30_3 N5_3 1_555 1_555
C31_3 N5_3 1_555 1_555
H27_3 C31_3 1_555 1_555
C3_3 C6_3 1_555 1_555
C5_3 C9_3 1_555 1_555
C8_3 C12_3 1_555 1_555
O2_2 Mn6 1_555 1_555
N2_3 C13_3 1_555 1_555
H9_3 C13_3 1_555 1_555
C14_3 N2_3 1_555 1_555
H10_3 C14_3 1_555 1_555
Mn6_2 N2_3 1_555 1_555
O6_2 C24_3 1_555 1_555
O7_2 Mn6_2 1_555 1_555
O10_2 Mn6_2 1_555 1_555
O14_2 C27_3 1_555 1_555
O15_3 Mn6_2 1_555 1_555
C18_3 H18_3 1_555 1_555
N4_3 H19_3 1_555 1_555
C19_3 C18_3 1_555 1_555
C20_3 N4_3 1_555 1_555
C21_3 H20_3 1_555 1_555
C22_3 C18_3 1_555 1_555
C23_3 C19_3 1_555 1_555
H21_3 C23_3 1_555 1_555
O16_3 Mn6_2 1_555 1_555
C25_3 C21_3 1_555 1_555
C26_3 C20_3 1_555 1_555
H22_3 C26_3 1_555 1_555
C27_3 O15_3 1_555 1_555
C28_3 C25_3 1_555 1_555
H23_3 C28_3 1_555 1_555
C29_3 N4_3 1_555 1_555
H24_3 C29_3 1_555 1_555
H25_3 C29_3 1_555 1_555
C32_3 O16_3 1_555 1_555
H28_3 C32_3 1_555 1_555
N6_3 C32_3 1_555 1_555
C33_3 N6_3 1_555 1_555
H29_2 C33_3 1_555 1_555
H30_3 C33_3 1_555 1_555
H31_3 C33_3 1_555 1_555
C34_2 N6_3 1_555 1_555
H32_2 C34_2 1_555 1_555
H33_2 C34_2 1_555 1_555
H34_2 C34_2 1_555 1_555
C19_3 C27_3 1_555 1_555
C20_3 C23_3 1_555 1_555
C22_3 C24_3 1_555 1_555
C22_3 C26_3 1_555 1_555
C25_3 C29_3 1_555 1_555
O9_2 Mn5 1_555 1_555
H11_4 C15_4 1_555 1_555
N3_4 C15_4 1_555 1_555
Mn5 O4_4 1_555 1_555
O7_2 C7_4 1_555 1_555
O10_2 C7_4 1_555 1_555
O13 C10_4 1_555 1_555
O4_4 C10_4 1_555 1_555
C1_4 H1_4 1_555 1_555
N1_4 H2_4 1_555 1_555
N2_4 C13_4 1_555 1_555
C2_4 C1_4 1_555 1_555
C3_4 N1_4 1_555 1_555
C4_4 H3_4 1_555 1_555
C5_4 C1_4 1_555 1_555
C6_4 C2_4 1_555 1_555
H4_4 C6_4 1_555 1_555
C7_4 C5_4 1_555 1_555
O5_4 Mn5 1_555 1_555
C8_4 C4_4 1_555 1_555
C9_4 C3_4 1_555 1_555
H5_4 C9_4 1_555 1_555
C10_4 C2_4 1_555 1_555
C11_4 C8_4 1_555 1_555
C12_4 N1_4 1_555 1_555
H7_4 C12_4 1_555 1_555
H8_4 C12_4 1_555 1_555
C13_4 C4_4 1_555 1_555
H9_4 C13_4 1_555 1_555
C14_4 N2_4 1_555 1_555
H10_4 C14_4 1_555 1_555
H13_4 C16_4 1_555 1_555
H14_4 C16_4 1_555 1_555
Mn6 N2_4 1_555 1_555
O8_2 C24_4 1_555 1_555
O14 C27_4 1_555 1_555
O15_4 Mn6 1_555 1_555
C18_4 H18_4 1_555 1_555
N4_4 H19_4 1_555 1_555
N5_4 Mn5 1_555 1_555
C19_4 C18_4 1_555 1_555
C20_4 N4_4 1_555 1_555
C21_4 H20_4 1_555 1_555
C22_4 C18_4 1_555 1_555
C23_4 C19_4 1_555 1_555
H21_4 C23_4 1_555 1_555
C24_4 O11_2 1_555 1_555
O16_4 Mn6 1_555 1_555
C25_4 C21_4 1_555 1_555
C26_4 C20_4 1_555 1_555
H22_4 C26_4 1_555 1_555
C27_4 O15_4 1_555 1_555
C28_4 C25_4 1_555 1_555
C29_4 N4_4 1_555 1_555
H24_4 C29_4 1_555 1_555
H25_4 C29_4 1_555 1_555
C30_4 N5_4 1_555 1_555
C31_4 N5_4 1_555 1_555
H27_4 C31_4 1_555 1_555
C32_4 O16_4 1_555 1_555
H28_4 C32_4 1_555 1_555
N6_4 C32_4 1_555 1_555
C33_4 N6_4 1_555 1_555
H30_4 C33_4 1_555 1_555
H31_4 C33_4 1_555 1_555
C3_4 C6_4 1_555 1_555
C5_4 C9_4 1_555 1_555
C8_4 C12_4 1_555 1_555
C11_4 C14_4 1_555 1_555
C19_4 C27_4 1_555 1_555
C20_4 C23_4 1_555 1_555
C21_4 C30_4 1_555 1_555
C22_4 C24_4 1_555 1_555
C22_4 C26_4 1_555 1_555
C25_4 C29_4 1_555 1_555
C28_4 C31_4 1_555 1_555
H32_3 C34_3 1_555 1_555
H33_3 C34_3 1_555 1_555
H34_3 C34_3 1_555 1_555
H15_3 C17_3 1_555 1_555
H16_3 C17_3 1_555 1_555
H17_3 C17_3 1_555 1_555
H15_4 C17_4 1_555 1_555
H16_4 C17_4 1_555 1_555
H17_4 C17_4 1_555 1_555
H32_4 C34_4 1_555 1_555
H33_4 C34_4 1_555 1_555
H34_4 C34_4 1_555 1_555

#END
