
###############################################################################
#
# This file contains modified crystal structure data generated from the
# MOF subset of the Cambridge Structural Database (CSD) v543 
# hosted by the Cambridge Crystallographic Data Centre (CCDC).
#
# This work is licensed under the Creative Commons
# Attribution-NonCommercial-ShareAlike 4.0 International License.
# To view a copy of this license, visit
# http://creativecommons.org/licenses/by-nc-sa/4.0/
# or send a letter to
# Creative Commons, PO Box 1866, Mountain View, CA 94042, USA.
#
# CIF created using the CSD Python API on 29 September 2022
# The structure has been converted into the P1 space group
# The structure has a 3D framework
# The original CSD entry TUTHEW is in the monoclinic crystal system
# The framework has been calculated to contain at least 10.0% void space
# The void calculation uses a probe of radius 1.32A, grid spacing 0.4
#
###############################################################################

data_TUTHEW
_chemical_formula_moiety         '(C148 H136 Mn8 N24 O34)n'
_symmetry_cell_setting           triclinic
_symmetry_space_group_name_H-M   'P 1'
_symmetry_Int_Tables_number      1
_space_group_name_Hall           'P 1'
loop_
_symmetry_equiv_pos_site_id
_symmetry_equiv_pos_as_xyz
1 x,y,z
_cell_length_a                   16.403(5)
_cell_length_b                   15.202(4)
_cell_length_c                   17.988(6)
_cell_angle_alpha                90
_cell_angle_beta                 111.833(5)
_cell_angle_gamma                90
_cell_volume                     4163.73
loop_
_atom_site_label
_atom_site_type_symbol
_atom_site_fract_x
_atom_site_fract_y
_atom_site_fract_z
Mn7 Mn 0.04361(8) 0.59017(7) 0.27029(7)
Mn1 Mn 0.54272(8) 0.37611(7) 0.27002(8)
Mn2 Mn 0.45639(8) 0.09017(7) 0.22971(7)
O1 O 0.6583(3) 0.4590(3) 0.2786(3)
O2 O 0.1581(3) 0.5084(3) 0.2768(3)
O3 O 0.0365(3) 0.4376(3) 0.2628(3)
O4 O 0.9119(3) 0.6157(3) 0.2577(3)
O5 O 0.8950(4) 0.7544(3) 0.2136(4)
O6 O 0.3952(3) 0.2145(3) 0.2090(3)
O7 O 0.5349(3) 0.5296(3) 0.2609(4)
O8 O 0.4125(3) 0.3496(3) 0.2591(3)
C1 C 0.1550(5) 0.3551(5) 0.2492(5)
C2 C 0.7738(5) 0.6850(5) 0.2304(5)
C3 C 0.2403(5) 0.3559(5) 0.2503(4)
H1 H 0.2733 0.4073 0.2633
N3 N 0.5849(4) 0.8381(4) 0.1813(4)
H2 H 0.5332 0.8373 0.1830
N4 N 0.0910(5) 0.1249(4) 0.1908(5)
H3 H 0.0437 0.1210 0.2008
C4 C 0.1413(5) 0.2019(5) 0.2123(5)
C5 C 0.6035(5) 0.9184(5) 0.0679(4)
C6 C 0.6189(5) 0.9938(5) 0.0313(5)
C7 C 0.2758(5) 0.2800(5) 0.2322(5)
C8 C 0.8677(5) 0.6858(5) 0.2359(5)
C9 C 0.6358(5) 0.7640(5) 0.2026(5)
C10 C 0.6017(5) 0.6865(5) 0.2236(5)
H5 H 0.5443 0.6863 0.2218
O9 O 0.4878(5) 0.0976(5) 0.3582(4)
C11 C 0.2267(5) 0.2039(5) 0.2126(5)
H6 H 0.2506 0.1535 0.1996
C12 C 0.6158(5) 0.9179(5) 0.1559(5)
H7 H 0.6778 0.9254 0.1879
H8 H 0.5848 0.9677 0.1664
C13 C 0.1137(5) 0.4385(5) 0.2634(5)
C14 C 0.6120(5) 0.5290(5) 0.2635(5)
C15 C 0.7229(5) 0.7608(5) 0.2058(5)
H9 H 0.7469 0.8102 0.1913
C16 C 0.7387(5) 0.6106(5) 0.2507(5)
H10 H 0.7726 0.5601 0.2670
C17 C 0.3683(5) 0.2806(5) 0.2331(5)
C18 C 0.1060(5) 0.2781(5) 0.2296(4)
H11 H 0.0487 0.2779 0.2281
C19 C 0.1028(4) 0.0729(5) 0.0659(4)
C20 C 0.1156(4) 0.0526(4) 0.1529(4)
H12 H 0.1767 0.0383 0.1827
H13 H 0.0806 0.0016 0.1542
C22 C 0.6515(5) 0.6114(5) 0.2466(5)
C23 C 0.1634(4) 0.0508(4) 0.0338(4)
H15 H 0.2156 0.0236 0.0653
C24 C 0.0302(4) 0.1174(5) 0.0192(4)
C25 C 0.5749(4) 0.8449(5) 0.0186(4)
H17 H 0.5628 0.7926 0.0393
N5 N 0.4973(4) 0.3844(5) 0.1325(5)
N6 N 0.5776(6) 0.1315(5) 0.4842(6)
C30 C 0.5541(5) 0.1215(4) 0.4042(5)
H22 H 0.5968 0.1358 0.3837
C32 C 0.4153(5) 0.4208(4) 0.0982(5)
H24 H 0.3883 0.4388 0.1328
C33 C 0.3696(3) 0.4331(3) 0.0188(3)
H25 H 0.3123 0.4542 0.0011
C34 C 0.6157(5) 0.3315(4) 0.0987(4)
H26 H 0.6410 0.3236 0.1557
H27 H 0.6520 0.3704 0.0823
H28 H 0.6117 0.2756 0.0727
C35 C 0.6618(5) 0.1712(5) 0.5348(5)
H29 H 0.6657 0.1726 0.5894
H30 H 0.6652 0.2301 0.5169
H31 H 0.7093 0.1369 0.5312
C36 C 0.5332(5) 0.3672(4) 0.0777(4)
C37 C 0.5123(4) 0.1213(4) 0.5189(4)
H32 H 0.5402 0.1216 0.5763
H33 H 0.4820 0.0666 0.5017
H34 H 0.4711 0.1690 0.5021
Mn3 Mn 0.95728(8) 0.87611(7) 0.22998(8)
O10 O 0.3419(3) 0.0084(3) 0.2232(3)
N7 N 0.4224(4) 0.0775(4) 0.0959(4)
O12 O 0.5881(3) 0.1157(3) 0.2423(3)
O13 O 0.6050(4) 0.2544(3) 0.2864(4)
N8 N 0.5749(4) 0.3910(4) 0.4050(4)
N1 N 0.5776(4) 0.9225(4) 0.9041(4)
N2 N 0.0749(4) 0.1090(4) 0.9050(4)
C21 C 0.6041(5) 0.9931(5) 0.9507(5)
C26 C 0.1469(4) 0.0690(4) 0.9542(4)
H18 H 0.1889 0.0522 0.9337
C27 C 0.5650(5) 0.8497(4) 0.9413(4)
H19 H 0.5480 0.7987 0.9109
C28 C 0.0180(3) 0.1330(4) 0.9393(4)
C29 C 0.4899(4) 0.3816(2) 0.9965(4)
H21 H 0.5185 0.3680 0.9619
C31 C 0.4075(4) 0.4147(5) 0.9656(4)
H23 H 0.3787 0.4242 0.9109
Mn4 Mn 0.04272(8) 0.12389(7) 0.77002(8)
Mn6 Mn 0.54361(8) 0.90983(7) 0.77029(7)
O11 O 0.4635(3) 0.9376(3) 0.2372(3)
O6_2 O 0.1048(3) 0.7145(3) 0.2910(3)
N2_2 N 0.4251(4) 0.6090(4) 0.5950(4)
O8_2 O 0.0875(3) 0.8496(3) 0.2409(3)
C1_2 C 0.3450(5) 0.8551(5) 0.2508(5)
C3_2 C 0.2597(5) 0.8559(5) 0.2497(4)
H1_2 H 0.2267 0.9073 0.2367
N4_2 N 0.4090(5) 0.6249(4) 0.3092(5)
H3_2 H 0.4563 0.6210 0.2992
C4_2 C 0.3587(5) 0.7019(5) 0.2877(5)
C7_2 C 0.2242(5) 0.7800(5) 0.2678(5)
O9_2 O 0.0122(5) 0.5976(5) 0.1418(4)
C11_2 C 0.2733(5) 0.7039(5) 0.2874(5)
H6_2 H 0.2494 0.6535 0.3004
C13_2 C 0.3863(5) 0.9385(5) 0.2366(5)
C17_2 C 0.1317(5) 0.7806(5) 0.2669(5)
C18_2 C 0.3940(5) 0.7781(5) 0.2704(4)
H11_2 H 0.4513 0.7779 0.2719
C19_2 C 0.3972(4) 0.5729(5) 0.4341(4)
C20_2 C 0.3844(4) 0.5526(4) 0.3471(4)
H12_2 H 0.3233 0.5383 0.3173
H13_2 H 0.4194 0.5016 0.3458
C23_2 C 0.3366(4) 0.5508(4) 0.4662(4)
H15_2 H 0.2844 0.5236 0.4347
C24_2 C 0.4698(4) 0.6174(5) 0.4808(4)
H16 H 0.5106 0.6371 0.4600
N5_2 N 0.0027(4) 0.8844(5) 0.3675(5)
C26_2 C 0.3531(4) 0.5690(4) 0.5458(4)
H18_2 H 0.3111 0.5522 0.5663
C28_2 C 0.4820(3) 0.6330(4) 0.5607(4)
H20 H 0.5330 0.6619 0.5925
C29_2 C 0.0101(4) 0.8816(2) 0.5035(4)
C31_2 C 0.0925(4) 0.9147(5) 0.5344(4)
H23_2 H 0.1213 0.9242 0.5891
C32_2 C 0.0847(5) 0.9208(4) 0.4018(5)
H24_2 H 0.1117 0.9388 0.3672
C33_2 C 0.1304(3) 0.9331(3) 0.4812(3)
H25_2 H 0.1877 0.9542 0.4989
Mn4_2 Mn 0.45728(8) 0.62389(7) 0.72998(8)
N7_2 N 0.0776(4) 0.5775(4) 0.4041(4)
N1_2 N 0.9224(4) 0.4225(4) 0.5959(4)
O7_2 O 0.9651(3) 0.0296(3) 0.2391(4)
C2_2 C 0.7262(5) 0.1850(5) 0.2696(5)
N3_2 N 0.9151(4) 0.3381(4) 0.3187(4)
H2_2 H 0.9668 0.3373 0.3170
C5_2 C 0.8965(5) 0.4184(5) 0.4321(4)
C6_2 C 0.8811(5) 0.4938(5) 0.4687(5)
H4 H 0.8609 0.5447 0.4388
C8_2 C 0.6323(5) 0.1858(5) 0.2641(5)
C9_2 C 0.8642(5) 0.2640(5) 0.2974(5)
C10_2 C 0.8983(5) 0.1865(5) 0.2764(5)
H5_2 H 0.9557 0.1863 0.2782
C12_2 C 0.8842(5) 0.4179(5) 0.3441(5)
H7_2 H 0.8222 0.4254 0.3121
H8_2 H 0.9152 0.4677 0.3336
C14_2 C 0.8880(5) 0.0290(5) 0.2365(5)
C15_2 C 0.7771(5) 0.2608(5) 0.2942(5)
H9_2 H 0.7531 0.3102 0.3087
C16_2 C 0.7613(5) 0.1106(5) 0.2493(5)
H10_2 H 0.7274 0.0601 0.2330
C21_2 C 0.8959(5) 0.4931(5) 0.5493(5)
H14 H 0.8867 0.5450 0.5724
C22_2 C 0.8485(5) 0.1114(5) 0.2534(5)
C25_2 C 0.9251(4) 0.3449(5) 0.4814(4)
H17_2 H 0.9372 0.2926 0.4607
C27_2 C 0.9350(5) 0.3497(4) 0.5587(4)
H19_2 H 0.9520 0.2987 0.5891
Mn6_2 Mn 0.95639(8) 0.40983(7) 0.72971(7)
O1_2 O 0.8417(3) 0.9590(3) 0.2214(3)
N6_2 N 0.9224(6) 0.6315(5) 0.0158(6)
H21_2 H 0.9815 0.8680 0.5381
C30_2 C 0.9459(5) 0.6215(4) 0.0958(5)
H22_2 H 0.9032 0.6358 0.1163
C34_2 C 0.8843(5) 0.8315(4) 0.4013(4)
H26_2 H 0.8590 0.8236 0.3443
H27_2 H 0.8480 0.8704 0.4177
H28_2 H 0.8883 0.7756 0.4273
C36_2 C 0.9668(5) 0.8672(4) 0.4223(4)
N8_2 N 0.9251(4) 0.8910(4) 0.0950(4)
O11_2 O 0.5365(3) 0.0624(3) 0.7628(3)
C21_3 C 0.3959(5) 0.0069(5) 0.0493(5)
C26_3 C 0.8531(4) 0.9310(4) 0.0458(4)
H18_3 H 0.8111 0.9478 0.0663
C27_3 C 0.4350(5) 0.1503(4) 0.0587(4)
H19_3 H 0.4520 0.2013 0.0891
C28_3 C 0.9820(3) 0.8670(4) 0.0607(4)
C29_3 C 0.5101(4) 0.6184(2) 0.0035(4)
H21_3 H 0.4815 0.6320 0.0381
C31_3 C 0.5925(4) 0.5853(5) 0.0344(4)
H23_3 H 0.6213 0.5758 0.0891
O1_3 O 0.3417(3) 0.5410(3) 0.7214(3)
O2_2 O 0.8419(3) 0.4916(3) 0.7232(3)
O3_2 O 0.9635(3) 0.5624(3) 0.7372(3)
O4_2 O 0.0881(3) 0.3843(3) 0.7423(3)
O5_2 O 0.1050(4) 0.2456(3) 0.7864(4)
O6_3 O 0.6048(3) 0.7855(3) 0.7910(3)
O7_3 O 0.4651(3) 0.4704(3) 0.7391(4)
O8_3 O 0.5875(3) 0.6504(3) 0.7409(3)
C1_3 C 0.8450(5) 0.6449(5) 0.7508(5)
C2_3 C 0.2262(5) 0.3150(5) 0.7696(5)
C3_3 C 0.7597(5) 0.6441(5) 0.7497(4)
H1_3 H 0.7267 0.5927 0.7367
N3_3 N 0.4151(4) 0.1619(4) 0.8187(4)
H2_3 H 0.4668 0.1627 0.8170
N4_3 N 0.9090(5) 0.8751(4) 0.8092(5)
H3_3 H 0.9563 0.8790 0.7992
C4_3 C 0.8587(5) 0.7981(5) 0.7877(5)
C5_3 C 0.3965(5) 0.0816(5) 0.9321(4)
C6_3 C 0.3811(5) 0.0062(5) 0.9687(5)
C7_3 C 0.7242(5) 0.7200(5) 0.7678(5)
C8_3 C 0.1323(5) 0.3142(5) 0.7641(5)
C9_3 C 0.3642(5) 0.2360(5) 0.7974(5)
C10_3 C 0.3983(5) 0.3135(5) 0.7764(5)
H5_3 H 0.4557 0.3137 0.7782
O9_3 O 0.5122(5) 0.9024(5) 0.6418(4)
C11_3 C 0.7733(5) 0.7961(5) 0.7874(5)
H6_3 H 0.7494 0.8465 0.8004
C12_3 C 0.3842(5) 0.0821(5) 0.8441(5)
H7_3 H 0.3222 0.0746 0.8121
H8_3 H 0.4152 0.0323 0.8336
C13_3 C 0.8863(5) 0.5615(5) 0.7366(5)
C14_3 C 0.3880(5) 0.4710(5) 0.7365(5)
C15_3 C 0.2771(5) 0.2392(5) 0.7942(5)
H9_3 H 0.2531 0.1898 0.8087
C16_3 C 0.2613(5) 0.3894(5) 0.7493(5)
H10_3 H 0.2274 0.4399 0.7330
C17_3 C 0.6317(5) 0.7194(5) 0.7669(5)
C18_3 C 0.8940(5) 0.7219(5) 0.7704(4)
H11_3 H 0.9513 0.7221 0.7719
C19_3 C 0.8972(4) 0.9271(5) 0.9341(4)
C20_3 C 0.8844(4) 0.9474(4) 0.8471(4)
H12_3 H 0.8233 0.9617 0.8173
H13_3 H 0.9194 0.9984 0.8458
C22_3 C 0.3485(5) 0.3886(5) 0.7534(5)
C23_3 C 0.8366(4) 0.9492(4) 0.9662(4)
H15_3 H 0.7844 0.9764 0.9347
C24_3 C 0.9698(4) 0.8826(5) 0.9808(4)
C25_3 C 0.4251(4) 0.1551(5) 0.9814(4)
H17_3 H 0.4372 0.2074 0.9607
N5_3 N 0.5027(4) 0.6156(5) 0.8675(5)
N6_3 N 0.4224(6) 0.8685(5) 0.5158(6)
C30_3 C 0.4459(5) 0.8785(4) 0.5958(5)
H22_3 H 0.4032 0.8642 0.6163
C32_3 C 0.5847(5) 0.5792(4) 0.9018(5)
H24_3 H 0.6117 0.5612 0.8672
C33_3 C 0.6304(3) 0.5669(3) 0.9812(3)
H25_3 H 0.6877 0.5458 0.9989
C34_3 C 0.3843(5) 0.6685(4) 0.9013(4)
H26_3 H 0.3590 0.6764 0.8443
H27_3 H 0.3480 0.6296 0.9177
H28_3 H 0.3883 0.7244 0.9273
C35_2 C 0.3382(5) 0.8288(5) 0.4652(5)
H29_2 H 0.3343 0.8274 0.4106
H30_2 H 0.3348 0.7699 0.4831
H31_2 H 0.2907 0.8631 0.4688
C36_3 C 0.4668(5) 0.6328(4) 0.9223(4)
C37_2 C 0.4877(4) 0.8787(4) 0.4811(4)
H32_2 H 0.4598 0.8784 0.4237
H33_2 H 0.5180 0.9334 0.4983
H34_2 H 0.5289 0.8310 0.4979
O10_2 O 0.6581(3) 0.9916(3) 0.7768(3)
O12_2 O 0.4119(3) 0.8843(3) 0.7577(3)
O13_2 O 0.3950(4) 0.7456(3) 0.7136(4)
O1_4 O 0.1583(3) 0.0410(3) 0.7786(3)
N6_4 N 0.0776(6) 0.3685(5) 0.9842(6)
H21_4 H 0.0185 0.1320 0.4619
C30_4 C 0.0541(5) 0.3785(4) 0.9042(5)
H22_4 H 0.0968 0.3642 0.8837
C34_4 C 0.1157(5) 0.1685(4) 0.5987(4)
H26_4 H 0.1410 0.1764 0.6557
H27_4 H 0.1520 0.1296 0.5823
H28_4 H 0.1117 0.2244 0.5727
C36_4 C 0.0332(5) 0.1328(4) 0.5777(4)
O7_4 O 0.0349(3) 0.9704(3) 0.7609(4)
C2_4 C 0.2738(5) 0.8150(5) 0.7304(5)
N3_4 N 0.0849(4) 0.6619(4) 0.6813(4)
H2_4 H 0.0332 0.6627 0.6830
C5_4 C 0.1035(5) 0.5816(5) 0.5679(4)
C6_4 C 0.1189(5) 0.5062(5) 0.5313(5)
H4_2 H 0.1391 0.4553 0.5612
C8_4 C 0.3677(5) 0.8142(5) 0.7359(5)
C9_4 C 0.1358(5) 0.7360(5) 0.7026(5)
C10_4 C 0.1017(5) 0.8135(5) 0.7236(5)
H5_4 H 0.0443 0.8137 0.7218
C12_4 C 0.1158(5) 0.5821(5) 0.6559(5)
H7_4 H 0.1778 0.5746 0.6879
H8_4 H 0.0848 0.5323 0.6664
C14_4 C 0.1120(5) 0.9710(5) 0.7635(5)
C15_4 C 0.2229(5) 0.7392(5) 0.7058(5)
H9_4 H 0.2469 0.6898 0.6913
C16_4 C 0.2387(5) 0.8894(5) 0.7507(5)
H10_4 H 0.2726 0.9399 0.7670
C21_4 C 0.1041(5) 0.5069(5) 0.4507(5)
H14_2 H 0.1133 0.4550 0.4276
C22_4 C 0.1515(5) 0.8886(5) 0.7466(5)
C25_4 C 0.0749(4) 0.6551(5) 0.5186(4)
H17_4 H 0.0628 0.7074 0.5393
C27_4 C 0.0650(5) 0.6503(4) 0.4413(4)
H19_4 H 0.0480 0.7013 0.4109
O6_4 O 0.8952(3) 0.2855(3) 0.7090(3)
O8_4 O 0.9125(3) 0.1504(3) 0.7591(3)
C1_4 C 0.6550(5) 0.1449(5) 0.7492(5)
C3_4 C 0.7403(5) 0.1441(5) 0.7503(4)
H1_4 H 0.7733 0.0927 0.7633
N4_4 N 0.5910(5) 0.3751(4) 0.6908(5)
H3_4 H 0.5437 0.3790 0.7008
C4_4 C 0.6413(5) 0.2981(5) 0.7123(5)
C7_4 C 0.7758(5) 0.2200(5) 0.7322(5)
O9_4 O 0.9878(5) 0.4024(5) 0.8582(4)
C11_4 C 0.7267(5) 0.2961(5) 0.7126(5)
H6_4 H 0.7506 0.3465 0.6996
C13_4 C 0.6137(5) 0.0615(5) 0.7634(5)
C17_4 C 0.8683(5) 0.2194(5) 0.7331(5)
C18_4 C 0.6060(5) 0.2219(5) 0.7296(4)
H11_4 H 0.5487 0.2221 0.7281
C19_4 C 0.6028(4) 0.4271(5) 0.5659(4)
C20_4 C 0.6156(4) 0.4474(4) 0.6529(4)
H12_4 H 0.6767 0.4617 0.6827
H13_4 H 0.5806 0.4984 0.6542
C23_4 C 0.6634(4) 0.4492(4) 0.5338(4)
H15_4 H 0.7156 0.4764 0.5653
C24_4 C 0.5302(4) 0.3826(5) 0.5192(4)
H16_2 H 0.4894 0.3629 0.5400
N5_4 N 0.9973(4) 0.1156(5) 0.6325(5)
C26_4 C 0.6469(4) 0.4310(4) 0.4542(4)
H18_4 H 0.6889 0.4478 0.4337
C28_4 C 0.5180(3) 0.3670(4) 0.4393(4)
H20_2 H 0.4670 0.3381 0.4075
C29_4 C 0.9899(4) 0.1184(2) 0.4965(4)
C31_4 C 0.9075(4) 0.0853(5) 0.4656(4)
H23_4 H 0.8787 0.0758 0.4109
C32_4 C 0.9153(5) 0.0792(4) 0.5982(5)
H24_4 H 0.8883 0.0612 0.6328
C33_4 C 0.8696(3) 0.0669(3) 0.5188(3)
H25_4 H 0.8123 0.0458 0.5011
H4_3 H 0.6391 0.0447 0.0612
H14_3 H 0.6133 0.0450 0.9276
H16_3 H 0.9894 0.1371 0.0400
H20_3 H 0.9670 0.1619 0.9075
H33_3 H 0.0180 0.5666 0.9983
H34_3 H 0.0289 0.6690 0.9979
C35_3 C 0.8382(5) 0.6712(5) 0.9652(5)
H29_3 H 0.8343 0.6726 0.9106
H30_3 H 0.8348 0.7301 0.9831
H31_3 H 0.7907 0.6369 0.9688
C37_3 C 0.9877(4) 0.6213(4) 0.9811(4)
H32_3 H 0.9598 0.6216 0.9237
H20_4 H 0.0330 0.8381 0.0925
H16_4 H 0.0106 0.8629 0.9600
H14_4 H 0.3867 0.9550 0.0724
H4_4 H 0.3609 0.9553 0.9388
C35_4 C 0.1618(5) 0.3288(5) 0.0348(5)
H29_4 H 0.1657 0.3274 0.0894
H30_4 H 0.1652 0.2699 0.0169
H31_4 H 0.2093 0.3631 0.0312
C37_4 C 0.0123(4) 0.3787(4) 0.0189(4)
H32_4 H 0.0402 0.3784 0.0763
H33_4 H 0.9820 0.4334 0.0017
H34_4 H 0.9711 0.3310 0.0021
loop_
_geom_bond_atom_site_label_1
_geom_bond_atom_site_label_2
_geom_bond_site_symmetry_1
_geom_bond_site_symmetry_2
Mn1 O1 1_555 1_555
Mn2 O6 1_555 1_555
O1 C14 1_555 1_555
O2 C13 1_555 1_555
O3 C13 1_555 1_555
O4 C8 1_555 1_555
O5 C8 1_555 1_555
O6 C17 1_555 1_555
O7 Mn1 1_555 1_555
O8 Mn1 1_555 1_555
C1 C3 1_555 1_555
C2 C8 1_555 1_555
C3 H1 1_555 1_555
N3 H2 1_555 1_555
N4 H3 1_555 1_555
C4 N4 1_555 1_555
C5 C6 1_555 1_555
C7 C3 1_555 1_555
C9 N3 1_555 1_555
C10 C9 1_555 1_555
H5 C10 1_555 1_555
O9 Mn2 1_555 1_555
C11 C4 1_555 1_555
H6 C11 1_555 1_555
C12 N3 1_555 1_555
H7 C12 1_555 1_555
H8 C12 1_555 1_555
C13 C1 1_555 1_555
C14 O7 1_555 1_555
C15 C2 1_555 1_555
H9 C15 1_555 1_555
C16 C2 1_555 1_555
H10 C16 1_555 1_555
C17 O8 1_555 1_555
C18 C1 1_555 1_555
H11 C18 1_555 1_555
C19 C20 1_555 1_555
C20 N4 1_555 1_555
H12 C20 1_555 1_555
H13 C20 1_555 1_555
C22 C10 1_555 1_555
C23 C19 1_555 1_555
H15 C23 1_555 1_555
C24 C19 1_555 1_555
C25 C5 1_555 1_555
H17 C25 1_555 1_555
N5 Mn1 1_555 1_555
N6 C30 1_555 1_555
C30 O9 1_555 1_555
H22 C30 1_555 1_555
C32 N5 1_555 1_555
H24 C32 1_555 1_555
H25 C33 1_555 1_555
C34 H26 1_555 1_555
H27 C34 1_555 1_555
H28 C34 1_555 1_555
C35 N6 1_555 1_555
H29 C35 1_555 1_555
H30 C35 1_555 1_555
H31 C35 1_555 1_555
C36 N5 1_555 1_555
C37 N6 1_555 1_555
H32 C37 1_555 1_555
H33 C37 1_555 1_555
H34 C37 1_555 1_555
Mn3 O5 1_555 1_555
Mn7 O2 1_555 1_555
O10 Mn2 1_555 1_555
N7 Mn2 1_555 1_555
O12 Mn2 1_555 1_555
O13 Mn1 1_555 1_555
N8 Mn1 1_555 1_555
O3 Mn7 1_555 1_555
C4 C18 1_555 1_555
C5 C12 1_555 1_555
C7 C11 1_555 1_555
C7 C17 1_555 1_555
C9 C15 1_555 1_555
C14 C22 1_555 1_555
C16 C22 1_555 1_555
C32 C33 1_555 1_555
C34 C36 1_555 1_555
N1 C21 1_555 1_555
N2 C26 1_555 1_555
H18 C26 1_555 1_555
C27 N1 1_555 1_555
H19 C27 1_555 1_555
C28 N2 1_555 1_555
C29 H21 1_555 1_555
C31 C29 1_555 1_555
H23 C31 1_555 1_555
Mn4 N2 1_555 1_555
Mn6 N1 1_555 1_555
Mn7 O6_2 1_555 1_555
O11 C13_2 1_555 1_555
O6_2 C17_2 1_555 1_555
N2_2 C26_2 1_555 1_555
C1_2 C3_2 1_555 1_555
C3_2 H1_2 1_555 1_555
N4_2 H3_2 1_555 1_555
C4_2 N4_2 1_555 1_555
C7_2 C3_2 1_555 1_555
O9_2 Mn7 1_555 1_555
C11_2 C4_2 1_555 1_555
H6_2 C11_2 1_555 1_555
C13_2 C1_2 1_555 1_555
C17_2 O8_2 1_555 1_555
C18_2 C1_2 1_555 1_555
H11_2 C18_2 1_555 1_555
C19_2 C20_2 1_555 1_555
C20_2 N4_2 1_555 1_555
H12_2 C20_2 1_555 1_555
H13_2 C20_2 1_555 1_555
C23_2 C19_2 1_555 1_555
H15_2 C23_2 1_555 1_555
C24_2 C19_2 1_555 1_555
H16 C24_2 1_555 1_555
C26_2 C23_2 1_555 1_555
H18_2 C26_2 1_555 1_555
C28_2 N2_2 1_555 1_555
H20 C28_2 1_555 1_555
C31_2 C29_2 1_555 1_555
H23_2 C31_2 1_555 1_555
C32_2 N5_2 1_555 1_555
H24_2 C32_2 1_555 1_555
C33_2 C31_2 1_555 1_555
H25_2 C33_2 1_555 1_555
Mn4_2 N2_2 1_555 1_555
N7_2 Mn7 1_555 1_555
C4_2 C18_2 1_555 1_555
C7_2 C11_2 1_555 1_555
C7_2 C17_2 1_555 1_555
C24_2 C28_2 1_555 1_555
C32_2 C33_2 1_555 1_555
N1_2 C21_2 1_555 1_555
O12 C8_2 1_555 1_555
O13 C8_2 1_555 1_555
C2_2 C8_2 1_555 1_555
N3_2 H2_2 1_555 1_555
C5_2 C6_2 1_555 1_555
C6_2 H4 1_555 1_555
C9_2 N3_2 1_555 1_555
C10_2 C9_2 1_555 1_555
H5_2 C10_2 1_555 1_555
C12_2 N3_2 1_555 1_555
H7_2 C12_2 1_555 1_555
H8_2 C12_2 1_555 1_555
C14_2 O7_2 1_555 1_555
C15_2 C2_2 1_555 1_555
H9_2 C15_2 1_555 1_555
C16_2 C2_2 1_555 1_555
H10_2 C16_2 1_555 1_555
C21_2 C6_2 1_555 1_555
H14 C21_2 1_555 1_555
C22_2 C10_2 1_555 1_555
C25_2 C5_2 1_555 1_555
H17_2 C25_2 1_555 1_555
C27_2 N1_2 1_555 1_555
H19_2 C27_2 1_555 1_555
Mn6_2 N1_2 1_555 1_555
C5_2 C12_2 1_555 1_555
C9_2 C15_2 1_555 1_555
C14_2 C22_2 1_555 1_555
C16_2 C22_2 1_555 1_555
C25_2 C27_2 1_555 1_555
Mn3 O1_2 1_555 1_555
N6_2 C30_2 1_555 1_555
H22_2 C30_2 1_555 1_555
C34_2 H26_2 1_555 1_555
H27_2 C34_2 1_555 1_555
H28_2 C34_2 1_555 1_555
N8_2 Mn3 1_555 1_555
C34_2 C36_2 1_555 1_555
N7 C21_3 1_555 1_555
N8_2 C26_3 1_555 1_555
H18_3 C26_3 1_555 1_555
C27_3 N7 1_555 1_555
H19_3 C27_3 1_555 1_555
C28_3 N8_2 1_555 1_555
C29_3 H21_3 1_555 1_555
C31_3 C29_3 1_555 1_555
H23_3 C31_3 1_555 1_555
Mn4_2 O1_3 1_555 1_555
Mn6 O6_3 1_555 1_555
O1_3 C14_3 1_555 1_555
O2_2 C13_3 1_555 1_555
O3_2 C13_3 1_555 1_555
O4_2 C8_3 1_555 1_555
O5_2 C8_3 1_555 1_555
O6_3 C17_3 1_555 1_555
O7_3 Mn4_2 1_555 1_555
O8_3 Mn4_2 1_555 1_555
C1_3 C3_3 1_555 1_555
C2_3 C8_3 1_555 1_555
C3_3 H1_3 1_555 1_555
N3_3 H2_3 1_555 1_555
N4_3 H3_3 1_555 1_555
C4_3 N4_3 1_555 1_555
C5_3 C6_3 1_555 1_555
C7_3 C3_3 1_555 1_555
C9_3 N3_3 1_555 1_555
C10_3 C9_3 1_555 1_555
H5_3 C10_3 1_555 1_555
O9_3 Mn6 1_555 1_555
C11_3 C4_3 1_555 1_555
H6_3 C11_3 1_555 1_555
C12_3 N3_3 1_555 1_555
H7_3 C12_3 1_555 1_555
H8_3 C12_3 1_555 1_555
C13_3 C1_3 1_555 1_555
C14_3 O7_3 1_555 1_555
C15_3 C2_3 1_555 1_555
H9_3 C15_3 1_555 1_555
C16_3 C2_3 1_555 1_555
H10_3 C16_3 1_555 1_555
C17_3 O8_3 1_555 1_555
C18_3 C1_3 1_555 1_555
H11_3 C18_3 1_555 1_555
C19_3 C20_3 1_555 1_555
C20_3 N4_3 1_555 1_555
H12_3 C20_3 1_555 1_555
H13_3 C20_3 1_555 1_555
C22_3 C10_3 1_555 1_555
C23_3 C19_3 1_555 1_555
H15_3 C23_3 1_555 1_555
C24_3 C19_3 1_555 1_555
C25_3 C5_3 1_555 1_555
H17_3 C25_3 1_555 1_555
N5_3 Mn4_2 1_555 1_555
N6_3 C30_3 1_555 1_555
C30_3 O9_3 1_555 1_555
H22_3 C30_3 1_555 1_555
C32_3 N5_3 1_555 1_555
H24_3 C32_3 1_555 1_555
H25_3 C33_3 1_555 1_555
C34_3 H26_3 1_555 1_555
H27_3 C34_3 1_555 1_555
H28_3 C34_3 1_555 1_555
C35_2 N6_3 1_555 1_555
H29_2 C35_2 1_555 1_555
H30_2 C35_2 1_555 1_555
H31_2 C35_2 1_555 1_555
C36_3 N5_3 1_555 1_555
C37_2 N6_3 1_555 1_555
H32_2 C37_2 1_555 1_555
H33_2 C37_2 1_555 1_555
H34_2 C37_2 1_555 1_555
Mn4 O5_2 1_555 1_555
Mn6_2 O2_2 1_555 1_555
O10_2 Mn6 1_555 1_555
O12_2 Mn6 1_555 1_555
O13_2 Mn4_2 1_555 1_555
O3_2 Mn6_2 1_555 1_555
C4_3 C18_3 1_555 1_555
C5_3 C12_3 1_555 1_555
C7_3 C11_3 1_555 1_555
C7_3 C17_3 1_555 1_555
C9_3 C15_3 1_555 1_555
C14_3 C22_3 1_555 1_555
C16_3 C22_3 1_555 1_555
C32_3 C33_3 1_555 1_555
C34_3 C36_3 1_555 1_555
Mn4 O1_4 1_555 1_555
N6_4 C30_4 1_555 1_555
H22_4 C30_4 1_555 1_555
C34_4 H26_4 1_555 1_555
H27_4 C34_4 1_555 1_555
H28_4 C34_4 1_555 1_555
C34_4 C36_4 1_555 1_555
N7_2 C21_4 1_555 1_555
O12_2 C8_4 1_555 1_555
O13_2 C8_4 1_555 1_555
C2_4 C8_4 1_555 1_555
N3_4 H2_4 1_555 1_555
C5_4 C6_4 1_555 1_555
C6_4 H4_2 1_555 1_555
C9_4 N3_4 1_555 1_555
C10_4 C9_4 1_555 1_555
H5_4 C10_4 1_555 1_555
C12_4 N3_4 1_555 1_555
H7_4 C12_4 1_555 1_555
H8_4 C12_4 1_555 1_555
C14_4 O7_4 1_555 1_555
C15_4 C2_4 1_555 1_555
H9_4 C15_4 1_555 1_555
C16_4 C2_4 1_555 1_555
H10_4 C16_4 1_555 1_555
C21_4 C6_4 1_555 1_555
H14_2 C21_4 1_555 1_555
C22_4 C10_4 1_555 1_555
C25_4 C5_4 1_555 1_555
H17_4 C25_4 1_555 1_555
C27_4 N7_2 1_555 1_555
H19_4 C27_4 1_555 1_555
C5_4 C12_4 1_555 1_555
C9_4 C15_4 1_555 1_555
C14_4 C22_4 1_555 1_555
C16_4 C22_4 1_555 1_555
C25_4 C27_4 1_555 1_555
Mn6_2 O6_4 1_555 1_555
O11_2 C13_4 1_555 1_555
O6_4 C17_4 1_555 1_555
N8 C26_4 1_555 1_555
C1_4 C3_4 1_555 1_555
C3_4 H1_4 1_555 1_555
N4_4 H3_4 1_555 1_555
C4_4 N4_4 1_555 1_555
C7_4 C3_4 1_555 1_555
O9_4 Mn6_2 1_555 1_555
C11_4 C4_4 1_555 1_555
H6_4 C11_4 1_555 1_555
C13_4 C1_4 1_555 1_555
C17_4 O8_4 1_555 1_555
C18_4 C1_4 1_555 1_555
H11_4 C18_4 1_555 1_555
C19_4 C20_4 1_555 1_555
C20_4 N4_4 1_555 1_555
H12_4 C20_4 1_555 1_555
H13_4 C20_4 1_555 1_555
C23_4 C19_4 1_555 1_555
H15_4 C23_4 1_555 1_555
C24_4 C19_4 1_555 1_555
H16_2 C24_4 1_555 1_555
C26_4 C23_4 1_555 1_555
H18_4 C26_4 1_555 1_555
C28_4 N8 1_555 1_555
H20_2 C28_4 1_555 1_555
C31_4 C29_4 1_555 1_555
H23_4 C31_4 1_555 1_555
C32_4 N5_4 1_555 1_555
H24_4 C32_4 1_555 1_555
C33_4 C31_4 1_555 1_555
H25_4 C33_4 1_555 1_555
C4_4 C18_4 1_555 1_555
C7_4 C11_4 1_555 1_555
C7_4 C17_4 1_555 1_555
C24_4 C28_4 1_555 1_555
C32_4 C33_4 1_555 1_555
H29_3 C35_3 1_555 1_555
H30_3 C35_3 1_555 1_555
H31_3 C35_3 1_555 1_555
H32_3 C37_3 1_555 1_555
H29_4 C35_4 1_555 1_555
H30_4 C35_4 1_555 1_555
H31_4 C35_4 1_555 1_555
H32_4 C37_4 1_555 1_555

#END
