
###############################################################################
#
# This file contains modified crystal structure data generated from the
# MOF subset of the Cambridge Structural Database (CSD) v543 
# hosted by the Cambridge Crystallographic Data Centre (CCDC).
#
# This work is licensed under the Creative Commons
# Attribution-NonCommercial-ShareAlike 4.0 International License.
# To view a copy of this license, visit
# http://creativecommons.org/licenses/by-nc-sa/4.0/
# or send a letter to
# Creative Commons, PO Box 1866, Mountain View, CA 94042, USA.
#
# CIF created using the CSD Python API on 29 September 2022
# The structure has been converted into the P1 space group
# The structure has a 3D framework
# The original CSD entry TUTJAU is in the monoclinic crystal system
# The framework has been calculated to contain at least 10.0% void space
# The void calculation uses a probe of radius 1.32A, grid spacing 0.4
# H atom positions have been added when not included in the experimental data
#
###############################################################################

data_TUTJAU
_chemical_formula_moiety         '(C112 H96 Mn8 N16 O38)n'
_symmetry_cell_setting           triclinic
_symmetry_space_group_name_H-M   'P 1'
_symmetry_Int_Tables_number      1
_space_group_name_Hall           'P 1'
loop_
_symmetry_equiv_pos_site_id
_symmetry_equiv_pos_as_xyz
1 x,y,z
_cell_length_a                   16.361(5)
_cell_length_b                   15.209(4)
_cell_length_c                   17.463(6)
_cell_angle_alpha                90
_cell_angle_beta                 110.410(5)
_cell_angle_gamma                90
_cell_volume                     4072.6
loop_
_atom_site_label
_atom_site_type_symbol
_atom_site_fract_x
_atom_site_fract_y
_atom_site_fract_z
Mn1 Mn 0.45813(7) 0.43356(8) 0.23338(9)
Mn2 Mn 0.55023(7) 0.14904(8) 0.28169(8)
O1 O 0.8390(3) 0.5652(3) 0.2215(4)
O2 O 0.9626(3) 0.4976(4) 0.2413(4)
O3 O 0.4017(4) 0.3091(4) 0.2219(4)
O4 O 0.1608(3) 0.0151(3) 0.2865(4)
O5 O 0.0384(3) 0.0858(4) 0.2670(4)
O6 O 0.4190(3) 0.1726(4) 0.2719(4)
O7 O 0.6107(4) 0.2719(3) 0.3099(4)
O8 O 0.5918(3) 0.4080(4) 0.2598(4)
N1 N 0.9346(4) 0.0691(4) 0.5983(5)
C1 C 0.8476(5) 0.4155(5) 0.2619(5)
O9 O 0.5178(5) 0.1643(4) 0.1491(4)
N2 N 0.9139(4) 0.1868(4) 0.3198(5)
H1 H 0.9664 0.1898 0.3198
C2 C 0.7275(5) 0.3399(5) 0.2836(5)
N3 N 0.1036(5) 0.4008(4) 0.2145(5)
H2 H 0.0630 0.4097 0.2342
C3 C 0.8825(5) 0.1032(5) 0.3395(6)
C4 C 0.1621(5) 0.1685(5) 0.2640(6)
C5 C 0.2471(5) 0.1679(5) 0.2660(5)
H3 H 0.2791 0.1160 0.2780
C6 C 0.8849(5) 0.4976(5) 0.2399(5)
C7 C 0.7621(4) 0.4160(5) 0.2626(5)
H4 H 0.7287 0.4669 0.2491
C8 C 0.2847(5) 0.2424(5) 0.2504(5)
C9 C 0.8970(5) 0.3399(5) 0.2822(5)
H5 H 0.9543 0.3408 0.2833
C10 C 0.7791(5) 0.2645(5) 0.3030(5)
H6 H 0.7562 0.2140 0.3179
C11 C 0.1509(5) 0.3224(5) 0.2323(5)
C12 C 0.1070(5) 0.4353(6) 0.0787(6)
C13 C 0.8627(5) 0.2617(5) 0.3011(5)
C14 C 0.3754(5) 0.2417(5) 0.2485(5)
C15 C 0.1219(5) 0.4665(5) 0.1640(6)
H7 H 0.1821 0.4851 0.1888
H8 H 0.0852 0.5173 0.1615
C16 C 0.9001(5) 0.0941(5) 0.4300(6)
C17 C 0.1192(5) 0.0846(5) 0.2754(6)
C18 C 0.2364(5) 0.3201(5) 0.2323(5)
H9 H 0.2613 0.3707 0.2201
C19 C 0.6371(5) 0.3388(5) 0.2844(6)
C20 C 0.1139(5) 0.2461(5) 0.2464(5)
H10 H 0.0562 0.2461 0.2441
C21 C 0.9593(5) 0.1415(4) 0.5693(5)
H11 H 0.9887 0.1847 0.6064
C22 C 0.8754(5) 0.0245(4) 0.4614(5)
O10 O 0.4781(4) 0.4367(4) 0.3675(4)
C23 C 0.1638(5) 0.4539(5) 0.0387(5)
H13 H 0.2137 0.4867 0.0651
C24 C 0.8939(4) 0.0078(4) 0.5429(4)
C25 C 0.9436(4) 0.1564(4) 0.4858(4)
H15 H 0.9626 0.2080 0.4688
C26 C 0.0372(5) 0.3839(5) 0.0354(5)
Mn4 Mn 0.95813(7) 0.06644(8) 0.73338(9)
Mn5 Mn 0.94977(7) 0.64904(8) 0.21831(8)
O11 O 0.6610(3) 0.0652(3) 0.2785(4)
O13 O 0.3392(3) 0.5151(3) 0.2135(4)
O14 O 0.4616(3) 0.5858(4) 0.2330(4)
N5 N 0.4346(4) 0.4309(4) 0.0983(5)
N6 N 0.5785(4) 0.1181(5) 0.4153(5)
H19 H 0.915236 0.0499258 0.320033
H20 H 0.812486 0.0988089 0.306895
H21 H 0.493928 0.224105 0.132294
H22 H 0.571227 0.156002 0.135245
H23 H 0.516064 0.386884 0.395389
H24 H 0.506232 0.493037 0.391382
N4 N 0.0785(4) 0.3819(5) 0.9153(5)
C27 C 0.1483(5) 0.4249(4) 0.9601(4)
H17 H 0.1905 0.4367 0.9371
C28 C 0.0251(5) 0.3610(6) 0.9561(5)
Mn6 Mn 0.05023(7) 0.35096(8) 0.78169(8)
H12 H 0.8423 0.9827 0.4248
H14 H 0.8783 0.9543 0.5596
Mn3 Mn 0.04187(7) 0.93356(8) 0.26662(9)
O12 O 0.5374(3) 0.9976(4) 0.2587(4)
H8_2 H 0.4148 0.0173 0.3385
O3_2 O 0.0983(4) 0.8091(4) 0.2781(4)
O6_2 O 0.0810(3) 0.6726(4) 0.2281(4)
N3_2 N 0.3964(5) 0.9008(4) 0.2855(5)
H2_2 H 0.4370 0.9097 0.2658
C4_2 C 0.3379(5) 0.6685(5) 0.2360(6)
C5_2 C 0.2529(5) 0.6679(5) 0.2340(5)
H3_2 H 0.2209 0.6160 0.2220
C8_2 C 0.2153(5) 0.7424(5) 0.2496(5)
N4_2 N 0.4215(4) 0.8819(5) 0.5847(5)
C11_2 C 0.3491(5) 0.8224(5) 0.2677(5)
C12_2 C 0.3930(5) 0.9353(6) 0.4213(6)
C14_2 C 0.1246(5) 0.7417(5) 0.2515(5)
C15_2 C 0.3781(5) 0.9665(5) 0.3360(6)
H7_2 H 0.3179 0.9851 0.3112
C17_2 C 0.3808(5) 0.5846(5) 0.2246(6)
C18_2 C 0.2636(5) 0.8201(5) 0.2677(5)
H9_2 H 0.2387 0.8707 0.2799
C20_2 C 0.3861(5) 0.7461(5) 0.2536(5)
H10_2 H 0.4438 0.7461 0.2559
O10_2 O 0.0219(4) 0.9367(4) 0.1325(4)
C23_2 C 0.3362(5) 0.9539(5) 0.4613(5)
H13_2 H 0.2863 0.9867 0.4349
C26_2 C 0.4628(5) 0.8839(5) 0.4646(5)
H16 H 0.5019 0.8647 0.4403
C27_2 C 0.3517(5) 0.9249(4) 0.5399(4)
H17_2 H 0.3095 0.9367 0.5629
C28_2 C 0.4749(5) 0.8610(6) 0.5439(5)
H18 H 0.5243 0.8281 0.5718
Mn6_2 Mn 0.44977(7) 0.85096(8) 0.71831(8)
N5_2 N 0.0654(4) 0.9309(4) 0.4017(5)
H21_2 H 0.00607182 0.724105 0.367706
O7_2 O 0.8893(4) 0.7719(3) 0.1901(4)
O8_2 O 0.9082(3) 0.9080(4) 0.2402(4)
C1_2 C 0.6524(5) 0.9155(5) 0.2381(5)
O9_2 O 0.9822(5) 0.6643(4) 0.3509(4)
N2_2 N 0.5861(4) 0.6868(4) 0.1802(5)
H1_2 H 0.5336 0.6898 0.1802
C2_2 C 0.7725(5) 0.8399(5) 0.2164(5)
C3_2 C 0.6175(5) 0.6032(5) 0.1605(6)
C6_2 C 0.6151(5) 0.9976(5) 0.2601(5)
C7_2 C 0.7379(4) 0.9160(5) 0.2374(5)
H4_2 H 0.7713 0.9669 0.2509
C9_2 C 0.6030(5) 0.8399(5) 0.2178(5)
H5_2 H 0.5457 0.8408 0.2167
C10_2 C 0.7209(5) 0.7645(5) 0.1970(5)
H6_2 H 0.7438 0.7140 0.1821
C13_2 C 0.6373(5) 0.7617(5) 0.1989(5)
C16_2 C 0.5999(5) 0.5941(5) 0.0700(6)
C19_2 C 0.8629(5) 0.8388(5) 0.2156(6)
C22_2 C 0.6246(5) 0.5245(4) 0.0386(5)
H12_2 H 0.6577 0.4827 0.0752
C25_2 C 0.5564(4) 0.6564(4) 0.0142(4)
H15_2 H 0.5374 0.7080 0.0312
N6_2 N 0.9215(4) 0.6181(5) 0.0847(5)
H19_2 H 0.584764 0.549926 0.179967
H20_2 H 0.687514 0.598809 0.193105
H22_2 H 0.928773 0.656002 0.364755
H23_2 H 0.983936 0.886884 0.104611
H24_2 H 0.993768 0.993037 0.108618
N1_2 N 0.5654(4) 0.5691(4) 0.9017(5)
C21_2 C 0.5407(5) 0.6415(4) 0.9307(5)
H11_2 H 0.5113 0.6847 0.8936
C24_2 C 0.6061(4) 0.5078(4) 0.9571(4)
H14_2 H 0.6217 0.4543 0.9404
Mn4_2 Mn 0.54187(7) 0.56644(8) 0.76662(9)
H12_3 H 0.1577 0.0173 0.5752
H14_3 H 0.1217 0.0457 0.4404
O12_2 O 0.4626(3) 0.0024(4) 0.7413(4)
C27_3 C 0.8517(5) 0.5751(4) 0.0399(4)
H17_3 H 0.8095 0.5633 0.0629
C28_3 C 0.9749(5) 0.6390(6) 0.0439(5)
O1_2 O 0.1610(3) 0.4348(3) 0.7785(4)
O2_2 O 0.0374(3) 0.5024(4) 0.7587(4)
O3_3 O 0.5983(4) 0.6909(4) 0.7781(4)
O4_2 O 0.8392(3) 0.9849(3) 0.7135(4)
O5_2 O 0.9616(3) 0.9142(4) 0.7330(4)
O6_3 O 0.5810(3) 0.8274(4) 0.7281(4)
O7_3 O 0.3893(4) 0.7281(3) 0.6901(4)
O8_3 O 0.4082(3) 0.5920(4) 0.7402(4)
C1_3 C 0.1524(5) 0.5845(5) 0.7381(5)
O9_3 O 0.4822(5) 0.8357(4) 0.8509(4)
N2_3 N 0.0861(4) 0.8132(4) 0.6802(5)
H1_3 H 0.0336 0.8102 0.6802
C2_3 C 0.2725(5) 0.6601(5) 0.7164(5)
N3_3 N 0.8964(5) 0.5992(4) 0.7855(5)
H2_3 H 0.9370 0.5903 0.7658
C3_3 C 0.1175(5) 0.8968(5) 0.6605(6)
C4_3 C 0.8379(5) 0.8315(5) 0.7360(6)
C5_3 C 0.7529(5) 0.8321(5) 0.7340(5)
H3_3 H 0.7209 0.8840 0.7220
C6_3 C 0.1151(5) 0.5024(5) 0.7601(5)
C7_3 C 0.2379(4) 0.5840(5) 0.7374(5)
H4_3 H 0.2713 0.5331 0.7509
C8_3 C 0.7153(5) 0.7576(5) 0.7496(5)
C9_3 C 0.1030(5) 0.6601(5) 0.7178(5)
H5_3 H 0.0457 0.6592 0.7167
C10_3 C 0.2209(5) 0.7355(5) 0.6970(5)
H6_3 H 0.2438 0.7860 0.6821
C11_3 C 0.8491(5) 0.6776(5) 0.7677(5)
C12_3 C 0.8930(5) 0.5647(6) 0.9213(6)
C13_3 C 0.1373(5) 0.7383(5) 0.6989(5)
C14_3 C 0.6246(5) 0.7583(5) 0.7515(5)
C15_3 C 0.8781(5) 0.5335(5) 0.8360(6)
H7_3 H 0.8179 0.5149 0.8112
H8_3 H 0.9148 0.4827 0.8385
C16_3 C 0.0999(5) 0.9059(5) 0.5700(6)
C17_3 C 0.8808(5) 0.9154(5) 0.7246(6)
C18_3 C 0.7636(5) 0.6799(5) 0.7677(5)
H9_3 H 0.7387 0.6293 0.7799
C19_3 C 0.3629(5) 0.6612(5) 0.7156(6)
C20_3 C 0.8861(5) 0.7539(5) 0.7536(5)
H10_3 H 0.9438 0.7539 0.7559
C21_3 C 0.0407(5) 0.8585(4) 0.4307(5)
H11_3 H 0.0113 0.8153 0.3936
C22_3 C 0.1246(5) 0.9755(4) 0.5386(5)
O10_3 O 0.5219(4) 0.5633(4) 0.6325(4)
C23_3 C 0.8362(5) 0.5461(5) 0.9613(5)
H13_3 H 0.7863 0.5133 0.9349
C24_3 C 0.1061(4) 0.9922(4) 0.4571(4)
C25_3 C 0.0564(4) 0.8436(4) 0.5142(4)
H15_3 H 0.0374 0.7920 0.5312
C26_3 C 0.9628(5) 0.6161(5) 0.9646(5)
O11_2 O 0.3390(3) 0.9348(3) 0.7215(4)
O13_2 O 0.6608(3) 0.4849(3) 0.7865(4)
O14_2 O 0.5384(3) 0.4142(4) 0.7670(4)
H19_3 H 0.0847639 0.950074 0.679967
H20_3 H 0.187514 0.901191 0.693105
H21_3 H 0.506072 0.775895 0.867706
H22_3 H 0.428773 0.843998 0.864755
H23_3 H 0.483936 0.613116 0.604611
H24_3 H 0.493768 0.506963 0.608618
C21_4 C 0.4593(5) 0.3585(4) 0.0693(5)
H11_4 H 0.4887 0.3153 0.1064
C24_4 C 0.3939(4) 0.4922(4) 0.0429(4)
H14_4 H 0.3783 0.5457 0.0596
O7_4 O 0.1107(4) 0.2281(3) 0.8099(4)
O8_4 O 0.0918(3) 0.0920(4) 0.7598(4)
C1_4 C 0.3476(5) 0.0845(5) 0.7619(5)
O9_4 O 0.0178(5) 0.3357(4) 0.6491(4)
N2_4 N 0.4139(4) 0.3132(4) 0.8198(5)
H1_4 H 0.4664 0.3102 0.8198
C2_4 C 0.2275(5) 0.1601(5) 0.7836(5)
C3_4 C 0.3825(5) 0.3968(5) 0.8395(6)
C6_4 C 0.3849(5) 0.0024(5) 0.7399(5)
C7_4 C 0.2621(4) 0.0840(5) 0.7626(5)
H4_4 H 0.2287 0.0331 0.7491
C9_4 C 0.3970(5) 0.1601(5) 0.7822(5)
H5_4 H 0.4543 0.1592 0.7833
C10_4 C 0.2791(5) 0.2355(5) 0.8030(5)
H6_4 H 0.2562 0.2860 0.8179
C13_4 C 0.3627(5) 0.2383(5) 0.8011(5)
C16_4 C 0.4001(5) 0.4059(5) 0.9300(6)
C19_4 C 0.1371(5) 0.1612(5) 0.7844(6)
C22_4 C 0.3754(5) 0.4755(4) 0.9614(5)
H12_4 H 0.3423 0.5173 0.9248
C25_4 C 0.4436(4) 0.3436(4) 0.9858(4)
H15_4 H 0.4626 0.2920 0.9688
H19_4 H 0.415236 0.450074 0.820033
H20_4 H 0.312486 0.401191 0.806895
H22_4 H 0.0712266 0.343998 0.635245
H23_4 H 0.0160639 0.113116 0.895389
H24_4 H 0.00623246 0.00696331 0.891382
O3_4 O 0.9017(4) 0.1909(4) 0.7219(4)
O6_4 O 0.9190(3) 0.3274(4) 0.7719(4)
N3_4 N 0.6036(5) 0.0992(4) 0.7145(5)
H2_4 H 0.5630 0.0903 0.7342
C4_4 C 0.6621(5) 0.3315(5) 0.7640(6)
C5_4 C 0.7471(5) 0.3321(5) 0.7660(5)
H3_4 H 0.7791 0.3840 0.7780
C8_4 C 0.7847(5) 0.2576(5) 0.7504(5)
C11_4 C 0.6509(5) 0.1776(5) 0.7323(5)
C12_4 C 0.6070(5) 0.0647(6) 0.5787(6)
C14_4 C 0.8754(5) 0.2583(5) 0.7485(5)
C15_4 C 0.6219(5) 0.0335(5) 0.6640(6)
H7_4 H 0.6821 0.0149 0.6888
C17_4 C 0.6192(5) 0.4154(5) 0.7754(6)
C18_4 C 0.7364(5) 0.1799(5) 0.7323(5)
H9_4 H 0.7613 0.1293 0.7201
C20_4 C 0.6139(5) 0.2539(5) 0.7464(5)
H10_4 H 0.5562 0.2539 0.7441
O10_4 O 0.9781(4) 0.0633(4) 0.8675(4)
C23_4 C 0.6638(5) 0.0461(5) 0.5387(5)
H13_4 H 0.7137 0.0133 0.5651
C26_4 C 0.5372(5) 0.1161(5) 0.5354(5)
H16_2 H 0.4981 0.1353 0.5597
C27_4 C 0.6483(5) 0.0751(4) 0.4601(4)
H17_4 H 0.6905 0.0633 0.4371
C28_4 C 0.5251(5) 0.1390(6) 0.4561(5)
H18_2 H 0.4757 0.1719 0.4282
H21_4 H 0.993928 0.275895 0.632294
H8_4 H 0.5852 0.9827 0.6615
H16_3 H 0.9981 0.3647 0.0597
H18_3 H 0.9757 0.3281 0.9282
H18_4 H 0.0243 0.6719 0.0718
H16_4 H 0.0019 0.6353 0.9403
loop_
_geom_bond_atom_site_label_1
_geom_bond_atom_site_label_2
_geom_bond_site_symmetry_1
_geom_bond_site_symmetry_2
Mn1 O3 1_555 1_555
Mn2 O6 1_555 1_555
O1 C6 1_555 1_555
O2 C6 1_555 1_555
O3 C14 1_555 1_555
O4 C17 1_555 1_555
O5 C17 1_555 1_555
O6 C14 1_555 1_555
O7 Mn2 1_555 1_555
O8 Mn1 1_555 1_555
N1 C21 1_555 1_555
C1 C6 1_555 1_555
O9 Mn2 1_555 1_555
N2 H1 1_555 1_555
C2 C7 1_555 1_555
N3 H2 1_555 1_555
C3 N2 1_555 1_555
C4 C5 1_555 1_555
C5 H3 1_555 1_555
C7 C1 1_555 1_555
H4 C7 1_555 1_555
C8 C5 1_555 1_555
C9 C1 1_555 1_555
H5 C9 1_555 1_555
C10 C2 1_555 1_555
H6 C10 1_555 1_555
C11 N3 1_555 1_555
C12 C15 1_555 1_555
C13 N2 1_555 1_555
C14 C8 1_555 1_555
C15 N3 1_555 1_555
H7 C15 1_555 1_555
H8 C15 1_555 1_555
C16 C3 1_555 1_555
C17 C4 1_555 1_555
C18 C8 1_555 1_555
H9 C18 1_555 1_555
C19 O7 1_555 1_555
C20 C4 1_555 1_555
H10 C20 1_555 1_555
C21 H11 1_555 1_555
C22 C16 1_555 1_555
O10 Mn1 1_555 1_555
C23 C12 1_555 1_555
H13 C23 1_555 1_555
C24 N1 1_555 1_555
C25 C16 1_555 1_555
H15 C25 1_555 1_555
C26 C12 1_555 1_555
Mn4 N1 1_555 1_555
Mn5 O1 1_555 1_555
O11 Mn2 1_555 1_555
O13 Mn1 1_555 1_555
O14 Mn1 1_555 1_555
N5 Mn1 1_555 1_555
N6 Mn2 1_555 1_555
O2 Mn5 1_555 1_555
O8 C19 1_555 1_555
C2 C19 1_555 1_555
C9 C13 1_555 1_555
C10 C13 1_555 1_555
C11 C18 1_555 1_555
C11 C20 1_555 1_555
C21 C25 1_555 1_555
C22 C24 1_555 1_555
C3 H19 1_555 1_555
C3 H20 1_555 1_555
O9 H21 1_555 1_555
O9 H22 1_555 1_555
O10 H23 1_555 1_555
O10 H24 1_555 1_555
N4 C27 1_555 1_555
H17 C27 1_555 1_555
C28 N4 1_555 1_555
Mn6 N4 1_555 1_555
Mn3 O3_2 1_555 1_555
O3_2 C14_2 1_555 1_555
O13 C17_2 1_555 1_555
O14 C17_2 1_555 1_555
O6_2 C14_2 1_555 1_555
N3_2 H2_2 1_555 1_555
C4_2 C5_2 1_555 1_555
C5_2 H3_2 1_555 1_555
C8_2 C5_2 1_555 1_555
N4_2 C27_2 1_555 1_555
C11_2 N3_2 1_555 1_555
C12_2 C15_2 1_555 1_555
C14_2 C8_2 1_555 1_555
C15_2 N3_2 1_555 1_555
H7_2 C15_2 1_555 1_555
C17_2 C4_2 1_555 1_555
C18_2 C8_2 1_555 1_555
H9_2 C18_2 1_555 1_555
C20_2 C4_2 1_555 1_555
H10_2 C20_2 1_555 1_555
O10_2 Mn3 1_555 1_555
C23_2 C12_2 1_555 1_555
H13_2 C23_2 1_555 1_555
C26_2 C12_2 1_555 1_555
H16 C26_2 1_555 1_555
C27_2 C23_2 1_555 1_555
H17_2 C27_2 1_555 1_555
C28_2 N4_2 1_555 1_555
H18 C28_2 1_555 1_555
Mn6_2 N4_2 1_555 1_555
N5_2 Mn3 1_555 1_555
C11_2 C18_2 1_555 1_555
C11_2 C20_2 1_555 1_555
C26_2 C28_2 1_555 1_555
O12 C6_2 1_555 1_555
O7_2 Mn5 1_555 1_555
C1_2 C6_2 1_555 1_555
O9_2 Mn5 1_555 1_555
N2_2 H1_2 1_555 1_555
C2_2 C7_2 1_555 1_555
C3_2 N2_2 1_555 1_555
C7_2 C1_2 1_555 1_555
H4_2 C7_2 1_555 1_555
C9_2 C1_2 1_555 1_555
H5_2 C9_2 1_555 1_555
C10_2 C2_2 1_555 1_555
H6_2 C10_2 1_555 1_555
C13_2 N2_2 1_555 1_555
C16_2 C3_2 1_555 1_555
C19_2 O7_2 1_555 1_555
C22_2 C16_2 1_555 1_555
H12_2 C22_2 1_555 1_555
C25_2 C16_2 1_555 1_555
H15_2 C25_2 1_555 1_555
N6_2 Mn5 1_555 1_555
O8_2 C19_2 1_555 1_555
C2_2 C19_2 1_555 1_555
C9_2 C13_2 1_555 1_555
C10_2 C13_2 1_555 1_555
C3_2 H19_2 1_555 1_555
C3_2 H20_2 1_555 1_555
O9_2 H22_2 1_555 1_555
N1_2 C21_2 1_555 1_555
C21_2 H11_2 1_555 1_555
C24_2 N1_2 1_555 1_555
H14_2 C24_2 1_555 1_555
Mn4_2 N1_2 1_555 1_555
N6_2 C27_3 1_555 1_555
H17_3 C27_3 1_555 1_555
C28_3 N6_2 1_555 1_555
Mn4_2 O3_3 1_555 1_555
Mn6_2 O6_3 1_555 1_555
O1_2 C6_3 1_555 1_555
O2_2 C6_3 1_555 1_555
O3_3 C14_3 1_555 1_555
O4_2 C17_3 1_555 1_555
O5_2 C17_3 1_555 1_555
O6_3 C14_3 1_555 1_555
O7_3 Mn6_2 1_555 1_555
O8_3 Mn4_2 1_555 1_555
N5_2 C21_3 1_555 1_555
C1_3 C6_3 1_555 1_555
O9_3 Mn6_2 1_555 1_555
N2_3 H1_3 1_555 1_555
C2_3 C7_3 1_555 1_555
N3_3 H2_3 1_555 1_555
C3_3 N2_3 1_555 1_555
C4_3 C5_3 1_555 1_555
C5_3 H3_3 1_555 1_555
C7_3 C1_3 1_555 1_555
H4_3 C7_3 1_555 1_555
C8_3 C5_3 1_555 1_555
C9_3 C1_3 1_555 1_555
H5_3 C9_3 1_555 1_555
C10_3 C2_3 1_555 1_555
H6_3 C10_3 1_555 1_555
C11_3 N3_3 1_555 1_555
C12_3 C15_3 1_555 1_555
C13_3 N2_3 1_555 1_555
C14_3 C8_3 1_555 1_555
C15_3 N3_3 1_555 1_555
H7_3 C15_3 1_555 1_555
H8_3 C15_3 1_555 1_555
C16_3 C3_3 1_555 1_555
C17_3 C4_3 1_555 1_555
C18_3 C8_3 1_555 1_555
H9_3 C18_3 1_555 1_555
C19_3 O7_3 1_555 1_555
C20_3 C4_3 1_555 1_555
H10_3 C20_3 1_555 1_555
C21_3 H11_3 1_555 1_555
C22_3 C16_3 1_555 1_555
O10_3 Mn4_2 1_555 1_555
C23_3 C12_3 1_555 1_555
H13_3 C23_3 1_555 1_555
C24_3 N5_2 1_555 1_555
C25_3 C16_3 1_555 1_555
H15_3 C25_3 1_555 1_555
C26_3 C12_3 1_555 1_555
Mn6 O1_2 1_555 1_555
O11_2 Mn6_2 1_555 1_555
O13_2 Mn4_2 1_555 1_555
O14_2 Mn4_2 1_555 1_555
O2_2 Mn6 1_555 1_555
O8_3 C19_3 1_555 1_555
C2_3 C19_3 1_555 1_555
C9_3 C13_3 1_555 1_555
C10_3 C13_3 1_555 1_555
C11_3 C18_3 1_555 1_555
C11_3 C20_3 1_555 1_555
C21_3 C25_3 1_555 1_555
C22_3 C24_3 1_555 1_555
C3_3 H19_3 1_555 1_555
C3_3 H20_3 1_555 1_555
O9_3 H21_3 1_555 1_555
O9_3 H22_3 1_555 1_555
O10_3 H23_3 1_555 1_555
O10_3 H24_3 1_555 1_555
N5 C21_4 1_555 1_555
C21_4 H11_4 1_555 1_555
C24_4 N5 1_555 1_555
H14_4 C24_4 1_555 1_555
O12_2 C6_4 1_555 1_555
O7_4 Mn6 1_555 1_555
C1_4 C6_4 1_555 1_555
O9_4 Mn6 1_555 1_555
N2_4 H1_4 1_555 1_555
C2_4 C7_4 1_555 1_555
C3_4 N2_4 1_555 1_555
C7_4 C1_4 1_555 1_555
H4_4 C7_4 1_555 1_555
C9_4 C1_4 1_555 1_555
H5_4 C9_4 1_555 1_555
C10_4 C2_4 1_555 1_555
H6_4 C10_4 1_555 1_555
C13_4 N2_4 1_555 1_555
C16_4 C3_4 1_555 1_555
C19_4 O7_4 1_555 1_555
C22_4 C16_4 1_555 1_555
H12_4 C22_4 1_555 1_555
C25_4 C16_4 1_555 1_555
H15_4 C25_4 1_555 1_555
O8_4 C19_4 1_555 1_555
C2_4 C19_4 1_555 1_555
C9_4 C13_4 1_555 1_555
C10_4 C13_4 1_555 1_555
C3_4 H19_4 1_555 1_555
C3_4 H20_4 1_555 1_555
O9_4 H22_4 1_555 1_555
Mn4 O3_4 1_555 1_555
O3_4 C14_4 1_555 1_555
O13_2 C17_4 1_555 1_555
O14_2 C17_4 1_555 1_555
O6_4 C14_4 1_555 1_555
N3_4 H2_4 1_555 1_555
C4_4 C5_4 1_555 1_555
C5_4 H3_4 1_555 1_555
C8_4 C5_4 1_555 1_555
N6 C27_4 1_555 1_555
C11_4 N3_4 1_555 1_555
C12_4 C15_4 1_555 1_555
C14_4 C8_4 1_555 1_555
C15_4 N3_4 1_555 1_555
H7_4 C15_4 1_555 1_555
C17_4 C4_4 1_555 1_555
C18_4 C8_4 1_555 1_555
H9_4 C18_4 1_555 1_555
C20_4 C4_4 1_555 1_555
H10_4 C20_4 1_555 1_555
O10_4 Mn4 1_555 1_555
C23_4 C12_4 1_555 1_555
H13_4 C23_4 1_555 1_555
C26_4 C12_4 1_555 1_555
H16_2 C26_4 1_555 1_555
C27_4 C23_4 1_555 1_555
H17_4 C27_4 1_555 1_555
C28_4 N6 1_555 1_555
H18_2 C28_4 1_555 1_555
C11_4 C18_4 1_555 1_555
C11_4 C20_4 1_555 1_555
C26_4 C28_4 1_555 1_555

#END
