
###############################################################################
#
# This file contains modified crystal structure data generated from the
# MOF subset of the Cambridge Structural Database (CSD) v543 
# hosted by the Cambridge Crystallographic Data Centre (CCDC).
#
# This work is licensed under the Creative Commons
# Attribution-NonCommercial-ShareAlike 4.0 International License.
# To view a copy of this license, visit
# http://creativecommons.org/licenses/by-nc-sa/4.0/
# or send a letter to
# Creative Commons, PO Box 1866, Mountain View, CA 94042, USA.
#
# CIF created using the CSD Python API on 29 September 2022
# The structure has been converted into the P1 space group
# The structure has a 3D framework
# The original CSD entry TUVDOD is in the hexagonal crystal system
# The framework has been calculated to contain at least 10.0% void space
# The void calculation uses a probe of radius 1.32A, grid spacing 0.4
# H atom positions have been added when not included in the experimental data
# Generated hydrogen atom positions removed from atoms on special positions
#
###############################################################################

data_TUVDOD
_chemical_formula_moiety         '(C84 H132 Gd3 Mn15 N12 O66)n'
_symmetry_cell_setting           triclinic
_symmetry_space_group_name_H-M   'P 1'
_symmetry_Int_Tables_number      1
_space_group_name_Hall           'P 1'
loop_
_symmetry_equiv_pos_site_id
_symmetry_equiv_pos_as_xyz
1 x,y,z
_cell_length_a                   15.307(3)
_cell_length_b                   15.307(3)
_cell_length_c                   15.695(4)
_cell_angle_alpha                90
_cell_angle_beta                 90
_cell_angle_gamma                120
_cell_volume                     3184.73
loop_
_atom_site_label
_atom_site_type_symbol
_atom_site_fract_x
_atom_site_fract_y
_atom_site_fract_z
Mn2 Mn -0.0000 0.5000 0.5000
Mn3 Mn -0.0000 0.5000 0.0000
O22 O 0.06456(19) 0.6159(2) 0.59343(17)
O23 O 0.06456(19) 0.6159(2) 0.40657(17)
O25 O 0.1424(3) 0.4909(3) 0.5000
O34 O 0.06456(19) 0.44866(28) 0.09343(17)
O36 O 0.1424(3) 0.6515(4) 0.0000
Mn3_2 Mn -0.0000 0.5000 1.0000
O30 O 0.19918(17) 0.58593(24) 0.85581(12)
O31 O 0.06456(19) 0.44866(28) 0.90657(17)
N6 N 0.23937(12) 0.47874(17) 0.7500
C36 C 0.1400(3) 0.4925(4) 0.8596(2)
C37 C 0.1617(3) 0.4269(4) 0.8034(2)
C38 C 0.1084(3) 0.3235(4) 0.8051(2)
H16 H 0.0549 0.2894 0.8428
C39 C 0.13555(18) 0.27110(25) 0.7500
H17 H 0.1005 0.2010 0.7500
C40 C 0.2652(2) 0.4269(4) 0.6966(2)
C41 C 0.3525(3) 0.4925(4) 0.6404(2)
O32 O 0.38675(17) 0.58593(24) 0.64419(12)
O33 O 0.3841(2) 0.44866(28) 0.59343(17)
C42 C 0.2151(3) 0.3235(4) 0.6949(2)
H18 H 0.2345 0.2894 0.6572
O36_2 O 0.1424(3) 0.6515(4) 1.0000
Gd3 Gd 0.3333 0.6667 0.7500
Mn9 Mn 0.5000 0.5000 0.5000
Gd1 Gd 0.6667 0.3333 0.2500
Mn1 Mn 0.5000 0.0000 0.0000
O1 O 0.61325(17) 0.19918(17) 0.14419(12)
O2 O 0.6159(2) 0.06456(19) 0.09343(17)
O3 O 0.4909(3) 0.1424(3) 0.0000
N1 N 0.76063(12) 0.23937(12) 0.2500
C1 C 0.6475(3) 0.1400(3) 0.1404(2)
C2 C 0.7348(2) 0.1617(3) 0.1966(2)
C3 C 0.7849(3) 0.1084(3) 0.1949(2)
H1 H 0.7655 0.0549 0.1572
C4 C 0.86445(18) 0.13555(18) 0.2500
H2 H 0.8995 0.1005 0.2500
C5 C 0.8383(3) 0.2652(2) 0.3034(2)
C6 C 0.8600(3) 0.3525(3) 0.3596(2)
O4 O 0.80082(17) 0.38675(17) 0.35581(12)
O5 O 0.93544(19) 0.3841(2) 0.40657(17)
C7 C 0.8916(3) 0.2151(3) 0.3051(2)
H3 H 0.9451 0.2345 0.3428
O6 O 0.80082(17) 0.41407(24) 0.14419(12)
O7 O 0.93544(19) 0.55134(28) 0.09343(17)
N2 N 0.76063(12) 0.52126(17) 0.2500
C8 C 0.8600(3) 0.5075(4) 0.1404(2)
C9 C 0.8383(3) 0.5731(4) 0.1966(2)
C10 C 0.8916(3) 0.6765(4) 0.1949(2)
H4 H 0.9451 0.7106 0.1572
C11 C 0.86445(18) 0.72890(25) 0.2500
H5 H 0.8995 0.7990 0.2500
C12 C 0.7348(2) 0.5731(4) 0.3034(2)
C13 C 0.6475(3) 0.5075(4) 0.3596(2)
O8 O 0.61325(17) 0.41407(24) 0.35581(12)
O9 O 0.6159(2) 0.55134(28) 0.40657(17)
C14 C 0.7849(3) 0.6765(4) 0.3051(2)
H6 H 0.7655 0.7106 0.3428
O10 O 0.58593(24) 0.38675(17) 0.14419(12)
O11 O 0.44866(28) 0.3841(2) 0.09343(17)
N3 N 0.47874(17) 0.23937(12) 0.2500
C15 C 0.4925(4) 0.3525(3) 0.1404(2)
C16 C 0.4269(4) 0.2652(2) 0.1966(2)
C17 C 0.3235(4) 0.2151(3) 0.1949(2)
H7 H 0.2894 0.2345 0.1572
C18 C 0.27110(25) 0.13555(18) 0.2500
H8 H 0.2010 0.1005 0.2500
C19 C 0.4269(4) 0.1617(3) 0.3034(2)
C20 C 0.4925(4) 0.1400(3) 0.3596(2)
O12 O 0.58593(24) 0.19918(17) 0.35581(12)
O13 O 0.44866(28) 0.06456(19) 0.40657(17)
C21 C 0.3235(4) 0.1084(3) 0.3051(2)
H9 H 0.2894 0.0549 0.3428
Mn2_2 Mn 1.0000 0.5000 0.5000
Mn3_3 Mn 1.0000 0.5000 0.0000
Mn5 Mn 0.5000 0.5000 0.0000
Mn6 Mn 0.5000 -0.0000 0.5000
O21 O 0.93544(19) 0.3841(2) 0.59343(17)
O24 O 0.8576(3) 0.5091(3) 0.5000
O35 O 0.8576(3) 0.3485(4) 0.0000
Mn1_2 Mn 0.5000 -0.0000 1.0000
O3_2 O 0.4909(3) 0.1424(3) 1.0000
Mn3_4 Mn 1.0000 0.5000 1.0000
Mn5_2 Mn 0.5000 0.5000 1.0000
O14 O 0.61325(17) 0.19918(17) 0.85581(12)
O15 O 0.6159(2) 0.06456(19) 0.90657(17)
N4 N 0.76063(12) 0.23937(12) 0.7500
C22 C 0.6475(3) 0.1400(3) 0.8596(2)
C23 C 0.7348(2) 0.1617(3) 0.8034(2)
C24 C 0.7849(3) 0.1084(3) 0.8051(2)
H10 H 0.7655 0.0549 0.8428
C25 C 0.86445(18) 0.13555(18) 0.7500
H11 H 0.8995 0.1005 0.7500
C26 C 0.8383(3) 0.2652(2) 0.6966(2)
C27 C 0.8600(3) 0.3525(3) 0.6404(2)
O16 O 0.80082(17) 0.38675(17) 0.64419(12)
C28 C 0.8916(3) 0.2151(3) 0.6949(2)
H12 H 0.9451 0.2345 0.6572
O26 O 0.80082(17) 0.41407(24) 0.85581(12)
O27 O 0.93544(19) 0.55134(28) 0.90657(17)
N5 N 0.76063(12) 0.52126(17) 0.7500
C29 C 0.8600(3) 0.5075(4) 0.8596(2)
C30 C 0.8383(3) 0.5731(4) 0.8034(2)
C31 C 0.8916(3) 0.6765(4) 0.8051(2)
H13 H 0.9451 0.7106 0.8428
C32 C 0.86445(18) 0.72890(25) 0.7500
H14 H 0.8995 0.7990 0.7500
C33 C 0.7348(2) 0.5731(4) 0.6966(2)
C34 C 0.6475(3) 0.5075(4) 0.6404(2)
O28 O 0.61325(17) 0.41407(24) 0.64419(12)
O29 O 0.6159(2) 0.55134(28) 0.59343(17)
C35 C 0.7849(3) 0.6765(4) 0.6949(2)
H15 H 0.7655 0.7106 0.6572
O35_2 O 0.8576(3) 0.3485(4) 1.0000
Gd2 Gd 0.6667 0.3333 0.7500
O37 O 0.58593(24) 0.19918(17) 0.64419(12)
O38 O 0.58593(24) 0.38675(17) 0.85581(12)
N7 N 0.47874(17) 0.23937(12) 0.7500
Mn1_3 Mn 0.5000 1.0000 0.0000
Mn6_2 Mn 0.5000 1.0000 0.5000
O19 O 0.3841(2) 0.93544(19) 0.09343(17)
O20 O 0.5091(3) 0.8576(3) 0.0000
Mn1_4 Mn 0.5000 1.0000 1.0000
O18 O 0.3841(2) 0.93544(19) 0.90657(17)
O20_2 O 0.5091(3) 0.8576(3) 1.0000
O23_2 O 0.3841(2) 0.44866(28) 0.40657(17)
O24_2 O 0.4909(3) 0.3485(4) 0.5000
O25_2 O 0.5091(3) 0.6515(4) 0.5000
O34_2 O 0.55134(28) 0.61590(34) 0.09343(17)
O35_3 O 0.6515(4) 0.5091(5) 0.0000
O36_3 O 0.3485(4) 0.4909(5) 0.0000
O27_2 O 0.44866(28) 0.38410(34) 0.90657(17)
C29_2 C 0.4925(4) 0.3525(5) 0.8596(2)
C30_2 C 0.4269(4) 0.2652(5) 0.8034(2)
C31_2 C 0.3235(4) 0.2151(5) 0.8051(2)
H13_2 H 0.2894 0.2345 0.8428
C32_2 C 0.27110(25) 0.13555(31) 0.7500
H14_2 H 0.2010 0.1005 0.7500
C33_2 C 0.4269(4) 0.1617(4) 0.6966(2)
C34_2 C 0.4925(4) 0.1400(5) 0.6404(2)
O29_2 O 0.44866(28) 0.06456(34) 0.59343(17)
C35_2 C 0.3235(4) 0.1084(5) 0.6949(2)
H15_2 H 0.2894 0.0549 0.6572
O30_2 O 0.41407(24) 0.61325(29) 0.85581(12)
O31_2 O 0.55134(28) 0.61590(34) 0.90657(17)
N6_2 N 0.52126(17) 0.76063(21) 0.7500
C36_2 C 0.5075(4) 0.6475(5) 0.8596(2)
C37_2 C 0.5731(4) 0.7348(5) 0.8034(2)
C38_2 C 0.6765(4) 0.7849(5) 0.8051(2)
H16_2 H 0.7106 0.7655 0.8428
C39_2 C 0.72890(25) 0.86445(31) 0.7500
H17_2 H 0.7990 0.8995 0.7500
C40_2 C 0.5731(4) 0.8383(4) 0.6966(2)
C41_2 C 0.5075(4) 0.8600(5) 0.6404(2)
O32_2 O 0.41407(24) 0.80082(29) 0.64419(12)
O33_2 O 0.55134(28) 0.93544(34) 0.59343(17)
C42_2 C 0.6765(4) 0.8916(5) 0.6949(2)
H18_2 H 0.7106 0.9451 0.6572
O35_4 O 0.6515(4) 0.5091(5) 1.0000
O36_4 O 0.3485(4) 0.4909(5) 1.0000
O24_3 O 0.6515(4) 0.1424(3) 0.5000
O23_3 O 0.55134(28) 0.93544(19) 0.40657(17)
O25_3 O 0.3485(4) 0.8576(3) 0.5000
O30_3 O 0.38675(29) 0.80082(17) 0.85581(12)
N6_3 N 0.23937(21) 0.76063(12) 0.7500
C36_3 C 0.3525(5) 0.8600(3) 0.8596(2)
C37_3 C 0.2652(5) 0.8383(3) 0.8034(2)
C38_3 C 0.2151(5) 0.8916(3) 0.8051(2)
H16_3 H 0.2345 0.9451 0.8428
C39_3 C 0.13555(31) 0.86445(18) 0.7500
H17_3 H 0.1005 0.8995 0.7500
C40_3 C 0.1617(4) 0.7348(2) 0.6966(2)
C41_3 C 0.1400(5) 0.6475(3) 0.6404(2)
O32_3 O 0.19918(29) 0.61325(17) 0.64419(12)
C42_3 C 0.1084(5) 0.7849(3) 0.6949(2)
H18_3 H 0.0549 0.7655 0.6572
Gd1_2 Gd 0.3333 0.6666 0.2500
O1_2 O 0.19918(17) 0.58593(24) 0.14419(12)
N1_2 N 0.23937(12) 0.47874(17) 0.2500
C1_2 C 0.1400(3) 0.4925(4) 0.1404(2)
C2_2 C 0.1617(3) 0.4269(4) 0.1966(2)
C3_2 C 0.1084(3) 0.3235(4) 0.1949(2)
H1_2 H 0.0549 0.2894 0.1572
C4_2 C 0.13555(18) 0.27110(25) 0.2500
H2_2 H 0.1005 0.2010 0.2500
C5_2 C 0.2652(2) 0.4269(4) 0.3034(2)
C6_2 C 0.3525(3) 0.4925(4) 0.3596(2)
O4_2 O 0.38675(17) 0.58593(24) 0.35581(12)
C7_2 C 0.2151(3) 0.3235(4) 0.3051(2)
H3_2 H 0.2345 0.2894 0.3428
O6_2 O 0.41407(24) 0.61325(29) 0.14419(12)
N2_2 N 0.52126(17) 0.76063(21) 0.2500
C8_2 C 0.5075(4) 0.6475(5) 0.1404(2)
C9_2 C 0.5731(4) 0.7348(5) 0.1966(2)
C10_2 C 0.6765(4) 0.7849(5) 0.1949(2)
H4_2 H 0.7106 0.7655 0.1572
C11_2 C 0.72890(25) 0.86445(31) 0.2500
H5_2 H 0.7990 0.8995 0.2500
C12_2 C 0.5731(4) 0.8383(4) 0.3034(2)
C13_2 C 0.5075(4) 0.8600(5) 0.3596(2)
O8_2 O 0.41407(24) 0.80082(29) 0.35581(12)
C14_2 C 0.6765(4) 0.8916(5) 0.3051(2)
H6_2 H 0.7106 0.9451 0.3428
O10_2 O 0.38675(17) 0.80082(29) 0.14419(12)
N3_2 N 0.23937(12) 0.76063(21) 0.2500
C15_2 C 0.3525(3) 0.8600(5) 0.1404(2)
C16_2 C 0.2652(2) 0.8383(4) 0.1966(2)
C17_2 C 0.2151(3) 0.8916(5) 0.1949(2)
H7_2 H 0.2345 0.9451 0.1572
C18_2 C 0.13555(18) 0.86445(31) 0.2500
H8_2 H 0.1005 0.8995 0.2500
C19_2 C 0.1617(3) 0.7348(5) 0.3034(2)
C20_2 C 0.1400(3) 0.6475(5) 0.3596(2)
O12_2 O 0.19918(17) 0.61325(29) 0.35581(12)
C21_2 C 0.1084(3) 0.7849(5) 0.3051(2)
H9_2 H 0.0549 0.7655 0.3428
loop_
_geom_bond_atom_site_label_1
_geom_bond_atom_site_label_2
_geom_bond_site_symmetry_1
_geom_bond_site_symmetry_2
O22 Mn2 1_555 1_555
O23 Mn2 1_555 1_555
O25 Mn2 1_555 1_555
O34 Mn3 1_555 1_555
O36 Mn3 1_555 1_555
O30 C36 1_555 1_555
O31 Mn3_2 1_555 1_555
N6 C37 1_555 1_555
C36 O31 1_555 1_555
C37 C36 1_555 1_555
C38 C37 1_555 1_555
H16 C38 1_555 1_555
C39 C38 1_555 1_555
H17 C39 1_555 1_555
C40 N6 1_555 1_555
C41 C40 1_555 1_555
O32 C41 1_555 1_555
O33 C41 1_555 1_555
C42 C39 1_555 1_555
H18 C42 1_555 1_555
O36_2 Mn3_2 1_555 1_555
Gd3 O30 1_555 1_555
Mn9 O33 1_555 1_555
N6 Gd3 1_555 1_555
C40 C42 1_555 1_555
O32 Gd3 1_555 1_555
Gd1 O1 1_555 1_555
Mn1 O2 1_555 1_555
O1 C1 1_555 1_555
O2 C1 1_555 1_555
O3 Mn1 1_555 1_555
N1 Gd1 1_555 1_555
C1 C2 1_555 1_555
C2 N1 1_555 1_555
C3 C2 1_555 1_555
H1 C3 1_555 1_555
C4 C3 1_555 1_555
H2 C4 1_555 1_555
C5 N1 1_555 1_555
C6 C5 1_555 1_555
O4 Gd1 1_555 1_555
O5 C6 1_555 1_555
C7 C4 1_555 1_555
H3 C7 1_555 1_555
O6 Gd1 1_555 1_555
O7 C8 1_555 1_555
N2 Gd1 1_555 1_555
C8 O6 1_555 1_555
C9 N2 1_555 1_555
C10 C9 1_555 1_555
H4 C10 1_555 1_555
C11 C10 1_555 1_555
H5 C11 1_555 1_555
C12 N2 1_555 1_555
C13 C12 1_555 1_555
O8 Gd1 1_555 1_555
O9 C13 1_555 1_555
C14 C11 1_555 1_555
H6 C14 1_555 1_555
O10 Gd1 1_555 1_555
O11 C15 1_555 1_555
N3 Gd1 1_555 1_555
C15 O10 1_555 1_555
C16 N3 1_555 1_555
C17 C16 1_555 1_555
H7 C17 1_555 1_555
C18 C17 1_555 1_555
H8 C18 1_555 1_555
C19 N3 1_555 1_555
C20 C19 1_555 1_555
O12 Gd1 1_555 1_555
O13 C20 1_555 1_555
C21 C18 1_555 1_555
H9 C21 1_555 1_555
Mn2_2 O5 1_555 1_555
Mn3_3 O7 1_555 1_555
Mn9 O9 1_555 1_555
Mn5 O11 1_555 1_555
Mn6 O13 1_555 1_555
O21 Mn2_2 1_555 1_555
O24 Mn2_2 1_555 1_555
O35 Mn3_3 1_555 1_555
C5 C7 1_555 1_555
C6 O4 1_555 1_555
C8 C9 1_555 1_555
C12 C14 1_555 1_555
C13 O8 1_555 1_555
C15 C16 1_555 1_555
C19 C21 1_555 1_555
C20 O12 1_555 1_555
O3_2 Mn1_2 1_555 1_555
O14 C22 1_555 1_555
O15 Mn1_2 1_555 1_555
N4 C23 1_555 1_555
C22 O15 1_555 1_555
C23 C22 1_555 1_555
C24 C23 1_555 1_555
H10 C24 1_555 1_555
C25 C24 1_555 1_555
H11 C25 1_555 1_555
C26 N4 1_555 1_555
C27 C26 1_555 1_555
O16 C27 1_555 1_555
O21 C27 1_555 1_555
C28 C25 1_555 1_555
H12 C28 1_555 1_555
O26 C29 1_555 1_555
O27 Mn3_4 1_555 1_555
N5 C30 1_555 1_555
C29 O27 1_555 1_555
C30 C29 1_555 1_555
C31 C30 1_555 1_555
H13 C31 1_555 1_555
C32 C31 1_555 1_555
H14 C32 1_555 1_555
C33 N5 1_555 1_555
C34 C33 1_555 1_555
O28 C34 1_555 1_555
O29 C34 1_555 1_555
C35 C32 1_555 1_555
H15 C35 1_555 1_555
O35_2 Mn3_4 1_555 1_555
Gd2 O14 1_555 1_555
Mn9 O29 1_555 1_555
O37 Gd2 1_555 1_555
O38 Gd2 1_555 1_555
N7 Gd2 1_555 1_555
N4 Gd2 1_555 1_555
C26 C28 1_555 1_555
O16 Gd2 1_555 1_555
O26 Gd2 1_555 1_555
N5 Gd2 1_555 1_555
C33 C35 1_555 1_555
O28 Gd2 1_555 1_555
O19 Mn1_3 1_555 1_555
O20 Mn1_3 1_555 1_555
O18 Mn1_4 1_555 1_555
O20_2 Mn1_4 1_555 1_555
O23_2 Mn9 1_555 1_555
O24_2 Mn9 1_555 1_555
O25_2 Mn9 1_555 1_555
O34_2 Mn5 1_555 1_555
O35_3 Mn5 1_555 1_555
O36_3 Mn5 1_555 1_555
O38 C29_2 1_555 1_555
O27_2 Mn5_2 1_555 1_555
N7 C30_2 1_555 1_555
C29_2 O27_2 1_555 1_555
C30_2 C29_2 1_555 1_555
C31_2 C30_2 1_555 1_555
H13_2 C31_2 1_555 1_555
C32_2 C31_2 1_555 1_555
H14_2 C32_2 1_555 1_555
C33_2 N7 1_555 1_555
C34_2 C33_2 1_555 1_555
O37 C34_2 1_555 1_555
O29_2 C34_2 1_555 1_555
C35_2 C32_2 1_555 1_555
H15_2 C35_2 1_555 1_555
O30_2 C36_2 1_555 1_555
O31_2 Mn5_2 1_555 1_555
N6_2 C37_2 1_555 1_555
C36_2 O31_2 1_555 1_555
C37_2 C36_2 1_555 1_555
C38_2 C37_2 1_555 1_555
H16_2 C38_2 1_555 1_555
C39_2 C38_2 1_555 1_555
H17_2 C39_2 1_555 1_555
C40_2 N6_2 1_555 1_555
C41_2 C40_2 1_555 1_555
O32_2 C41_2 1_555 1_555
O33_2 C41_2 1_555 1_555
C42_2 C39_2 1_555 1_555
H18_2 C42_2 1_555 1_555
O35_4 Mn5_2 1_555 1_555
O36_4 Mn5_2 1_555 1_555
Mn6 O29_2 1_555 1_555
Gd3 O30_2 1_555 1_555
Mn6_2 O33_2 1_555 1_555
C33_2 C35_2 1_555 1_555
N6_2 Gd3 1_555 1_555
C40_2 C42_2 1_555 1_555
O32_2 Gd3 1_555 1_555
O24_3 Mn6 1_555 1_555
O23_3 Mn6_2 1_555 1_555
O25_3 Mn6_2 1_555 1_555
O30_3 C36_3 1_555 1_555
N6_3 C37_3 1_555 1_555
C36_3 O18 1_555 1_555
C37_3 C36_3 1_555 1_555
C38_3 C37_3 1_555 1_555
H16_3 C38_3 1_555 1_555
C39_3 C38_3 1_555 1_555
H17_3 C39_3 1_555 1_555
C40_3 N6_3 1_555 1_555
C41_3 C40_3 1_555 1_555
O32_3 C41_3 1_555 1_555
O22 C41_3 1_555 1_555
C42_3 C39_3 1_555 1_555
H18_3 C42_3 1_555 1_555
Gd3 O30_3 1_555 1_555
N6_3 Gd3 1_555 1_555
C40_3 C42_3 1_555 1_555
O32_3 Gd3 1_555 1_555
Gd1_2 O1_2 1_555 1_555
O1_2 C1_2 1_555 1_555
O34 C1_2 1_555 1_555
N1_2 Gd1_2 1_555 1_555
C1_2 C2_2 1_555 1_555
C2_2 N1_2 1_555 1_555
C3_2 C2_2 1_555 1_555
H1_2 C3_2 1_555 1_555
C4_2 C3_2 1_555 1_555
H2_2 C4_2 1_555 1_555
C5_2 N1_2 1_555 1_555
C6_2 C5_2 1_555 1_555
O4_2 Gd1_2 1_555 1_555
O23_2 C6_2 1_555 1_555
C7_2 C4_2 1_555 1_555
H3_2 C7_2 1_555 1_555
O6_2 Gd1_2 1_555 1_555
O34_2 C8_2 1_555 1_555
N2_2 Gd1_2 1_555 1_555
C8_2 O6_2 1_555 1_555
C9_2 N2_2 1_555 1_555
C10_2 C9_2 1_555 1_555
H4_2 C10_2 1_555 1_555
C11_2 C10_2 1_555 1_555
H5_2 C11_2 1_555 1_555
C12_2 N2_2 1_555 1_555
C13_2 C12_2 1_555 1_555
O8_2 Gd1_2 1_555 1_555
O23_3 C13_2 1_555 1_555
C14_2 C11_2 1_555 1_555
H6_2 C14_2 1_555 1_555
O10_2 Gd1_2 1_555 1_555
O19 C15_2 1_555 1_555
N3_2 Gd1_2 1_555 1_555
C15_2 O10_2 1_555 1_555
C16_2 N3_2 1_555 1_555
C17_2 C16_2 1_555 1_555
H7_2 C17_2 1_555 1_555
C18_2 C17_2 1_555 1_555
H8_2 C18_2 1_555 1_555
C19_2 N3_2 1_555 1_555
C20_2 C19_2 1_555 1_555
O12_2 Gd1_2 1_555 1_555
O23 C20_2 1_555 1_555
C21_2 C18_2 1_555 1_555
H9_2 C21_2 1_555 1_555
C5_2 C7_2 1_555 1_555
C6_2 O4_2 1_555 1_555
C8_2 C9_2 1_555 1_555
C12_2 C14_2 1_555 1_555
C13_2 O8_2 1_555 1_555
C15_2 C16_2 1_555 1_555
C19_2 C21_2 1_555 1_555
C20_2 O12_2 1_555 1_555

#END
