
###############################################################################
#
# This file contains modified crystal structure data generated from the
# MOF subset of the Cambridge Structural Database (CSD) v543 
# hosted by the Cambridge Crystallographic Data Centre (CCDC).
#
# This work is licensed under the Creative Commons
# Attribution-NonCommercial-ShareAlike 4.0 International License.
# To view a copy of this license, visit
# http://creativecommons.org/licenses/by-nc-sa/4.0/
# or send a letter to
# Creative Commons, PO Box 1866, Mountain View, CA 94042, USA.
#
# CIF created using the CSD Python API on 29 September 2022
# The structure has been converted into the P1 space group
# The structure has a 3D framework
# The original CSD entry TUVDAS is in the orthorhombic crystal system
# The original CSD entry TUVDAS is in a Sohncke space group
# The framework has been calculated to contain at least 10.0% void space
# The void calculation uses a probe of radius 1.32A, grid spacing 0.4
#
###############################################################################

data_TUVDAS
_chemical_formula_moiety         '(C168 H152 N23 O35 Zn4)n'
_symmetry_cell_setting           triclinic
_symmetry_space_group_name_H-M   'P 1'
_symmetry_Int_Tables_number      1
_space_group_name_Hall           'P 1'
loop_
_symmetry_equiv_pos_site_id
_symmetry_equiv_pos_as_xyz
1 x,y,z
_cell_length_a                   8.5277(9)
_cell_length_b                   17.9579(18)
_cell_length_c                   28.768(3)
_cell_angle_alpha                90
_cell_angle_beta                 90
_cell_angle_gamma                90
_cell_volume                     4405.52
loop_
_atom_site_label
_atom_site_type_symbol
_atom_site_fract_x
_atom_site_fract_y
_atom_site_fract_z
Zn3 Zn 0.43758(14) 0.04361(7) 0.42944(4)
C1 C 0.5232(10) 0.1777(5) 0.4090(3)
C2 C 0.5683(11) 0.2651(5) 0.4037(3)
H1 H 0.5330 0.2874 0.3745
C3 C 0.7330(16) 0.2575(8) 0.4070(5)
H2 H 0.7845 0.2918 0.3859
H3 H 0.7643 0.2072 0.3990
C4 C 0.7770(13) 0.2745(7) 0.4554(4)
H4 H 0.8125 0.2295 0.4709
H5 H 0.8620 0.3104 0.4559
C5 C 0.6411(14) 0.3048(7) 0.4797(3)
H6 H 0.6614 0.3552 0.4904
H7 H 0.6134 0.2741 0.5062
C6 C 0.3914(13) 0.3473(6) 0.4461(3)
C7 C 0.2757(12) 0.3453(7) 0.4081(4)
C8 C 0.2340(13) 0.4135(6) 0.3872(4)
H8 H 0.2750 0.4584 0.3977
C9 C 0.1268(16) 0.4111(7) 0.3493(4)
H9 H 0.1003 0.4551 0.3343
C10 C 0.0610(13) 0.3448(6) 0.3343(4)
C11 C 0.1056(12) 0.2802(6) 0.3581(4)
H10 H 0.0636 0.2347 0.3490
C12 C 0.2064(12) 0.2822(6) 0.3933(3)
H11 H 0.2301 0.2379 0.4085
C25 C 0.0794(11) 0.0712(6) 0.4096(3)
H23 H 0.0729 0.0729 0.4419
C28 C 0.0934(12) 0.0656(7) 0.3173(3)
H25 H 0.1028 0.0625 0.2852
C29 C 0.2214(13) 0.0559(7) 0.3451(3)
H26 H 0.3170 0.0466 0.3306
N1 N 0.2198(9) 0.0588(5) 0.3911(2)
N5 N 0.5147(10) 0.3039(5) 0.4443(3)
O1 O 0.5644(8) 0.1357(4) 0.3782(2)
O2 O 0.4522(8) 0.1561(4) 0.4447(2)
O3 O 0.3759(12) 0.3955(5) 0.4787(3)
O9 O 0.6720(10) 0.0324(5) 0.4645(3)
H38 H 0.6974 0.0631 0.4894
N7 N 0.3354(10) 0.0014(5) 0.4891(3)
C41 C 0.3722(13) 0.0298(6) 0.5299(4)
H33 H 0.4465 0.0677 0.5305
C42 C 0.3101(15) 0.0082(6) 0.5704(4)
H34 H 0.3367 0.0312 0.5983
O7 O 0.090(3) 0.0215(10) 0.6460(7)
C13 C 0.0465(13) 0.8441(6) 0.2038(4)
C14 C 0.1493(15) 0.9055(7) 0.2152(4)
H12 H 0.1467 0.9480 0.1967
C15 C 0.2487(15) 0.9034(7) 0.2516(4)
H13 H 0.3102 0.9451 0.2576
C16 C 0.2632(15) 0.8411(8) 0.2807(4)
C17 C 0.1718(14) 0.7795(8) 0.2708(4)
H14 H 0.1781 0.7369 0.2890
C18 C 0.0680(14) 0.7828(7) 0.2321(4)
H15 H 0.0100 0.7403 0.2253
C19 C 0.3694(13) 0.8348(7) 0.3210(5)
C20 C 0.5958(18) 0.8949(9) 0.2764(5)
H16 H 0.5707 0.8676 0.2483
H17 H 0.5653 0.9465 0.2723
C21 C 0.765(2) 0.8894(11) 0.2868(9)
H18 H 0.8120 0.8505 0.2680
H19 H 0.8164 0.9361 0.2794
C22 C 0.7874(18) 0.8725(12) 0.3353(7)
H20 H 0.8367 0.9144 0.3509
H21 H 0.8550 0.8294 0.3387
C23 C 0.6225(16) 0.8562(7) 0.3578(5)
H22 H 0.6210 0.8050 0.3695
C24 C 0.570(2) 0.9092(8) 0.3966(5)
C26 C 0.0551(11) 0.5817(5) 0.1148(3)
H24 H 0.1495 0.5900 0.0994
C27 C 0.0490(10) 0.5800(5) 0.1627(3)
C30 C 0.2111(15) 0.5907(8) 0.2343(4)
C31 C 0.3705(13) 0.6105(6) 0.2516(3)
C32 C 0.4626(13) 0.6633(7) 0.2302(4)
H27 H 0.4287 0.6856 0.2028
C33 C 0.6062(14) 0.6835(8) 0.2494(5)
H28 H 0.6704 0.7186 0.2351
C34 C 0.650(2) 0.6494(9) 0.2905(5)
H29 H 0.7456 0.6623 0.3038
C35 C 0.5577(19) 0.5969(10) 0.3127(6)
C36 C 0.4179(16) 0.5773(8) 0.2926(4)
H30 H 0.3547 0.5416 0.3065
C37 C 0.605(3) 0.5489(11) 0.3533(7)
C38 C 0.7073(17) 0.5487(8) 0.4312(5)
C39 C 0.669(2) 0.5814(9) 0.4731(4)
H31 H 0.6009 0.6216 0.4745
C40 C 0.7336(19) 0.5538(8) 0.5112(5)
H32 H 0.7054 0.5743 0.5397
C41_2 C 0.8722(13) 0.4702(6) 0.4701(4)
H33_2 H 0.9465 0.4323 0.4695
C42_2 C 0.8101(15) 0.4918(6) 0.4296(4)
H34_2 H 0.8367 0.4688 0.4017
N2 N 0.1890(10) 0.5938(5) 0.1874(3)
H35 H 0.2696 0.6054 0.1710
N3 N 0.6330(17) 0.5785(7) 0.3901(5)
H36 H 0.6042 0.6243 0.3921
N4 N 0.8354(10) 0.4986(5) 0.5109(3)
N6 N 0.5142(13) 0.8621(6) 0.3169(4)
O4 O 0.3238(11) 0.8055(5) 0.3554(3)
O5 O 0.6320(18) 0.8912(6) 0.4378(4)
O6 O 0.4988(9) 0.9640(4) 0.3878(3)
O7_2 O 0.590(3) 0.4785(10) 0.3540(7)
O8 O 0.1107(10) 0.5655(6) 0.2601(3)
Zn2 Zn 0.93758(14) 0.45639(7) 0.57056(4)
C6_2 C 0.8914(13) 0.1527(6) 0.5539(3)
C7_2 C 0.7757(12) 0.1547(7) 0.5919(4)
C8_2 C 0.7340(13) 0.0865(6) 0.6128(4)
H8_2 H 0.7750 0.0416 0.6023
C9_2 C 0.6268(16) 0.0889(7) 0.6507(4)
H9_2 H 0.6003 0.0449 0.6657
C10_2 C 0.5610(13) 0.1552(6) 0.6657(4)
C11_2 C 0.6056(12) 0.2198(6) 0.6419(4)
H10_2 H 0.5636 0.2653 0.6510
C12_2 C 0.7064(12) 0.2178(6) 0.6067(3)
H11_2 H 0.7301 0.2621 0.5915
C13_2 C 0.4535(13) 0.1559(6) 0.7038(4)
C14_2 C 0.3507(15) 0.0945(7) 0.7152(4)
H12_2 H 0.3533 0.0520 0.6967
C15_2 C 0.2513(15) 0.0966(7) 0.7516(4)
H13_2 H 0.1898 0.0549 0.7576
C16_2 C 0.2368(15) 0.1589(8) 0.7807(4)
C17_2 C 0.3282(14) 0.2205(8) 0.7708(4)
H14_2 H 0.3219 0.2631 0.7890
C18_2 C 0.4320(14) 0.2172(7) 0.7321(4)
H15_2 H 0.4900 0.2597 0.7253
C19_2 C 0.1306(13) 0.1652(7) 0.8210(5)
C25_2 C 0.5794(11) 0.4288(6) 0.5904(3)
H23_2 H 0.5729 0.4271 0.5581
C26_2 C 0.4449(11) 0.4183(5) 0.6148(3)
H24_2 H 0.3505 0.4100 0.5994
C27_2 C 0.4510(10) 0.4200(5) 0.6627(3)
C28_2 C 0.5934(12) 0.4344(7) 0.6827(3)
H25_2 H 0.6028 0.4375 0.7148
C29_2 C 0.7214(13) 0.4441(7) 0.6549(3)
H26_2 H 0.8170 0.4534 0.6694
C30_2 C 0.2889(15) 0.4093(8) 0.7343(4)
C31_2 C 0.1295(13) 0.3895(6) 0.7516(3)
C32_2 C 0.0374(13) 0.3367(7) 0.7302(4)
H27_2 H 0.0713 0.3144 0.7028
C36_2 C 0.0821(16) 0.4227(8) 0.7926(4)
H30_2 H 0.1453 0.4584 0.8065
N1_2 N 0.7198(9) 0.4412(5) 0.6089(2)
N2_2 N 0.3110(10) 0.4062(5) 0.6874(3)
H35_2 H 0.2304 0.3946 0.6710
O2_2 O 0.9522(8) 0.3439(4) 0.5553(2)
O3_2 O 0.8759(12) 0.1045(5) 0.5213(3)
O4_2 O 0.1762(11) 0.1945(5) 0.8554(3)
O6_2 O 0.0012(9) 0.0360(4) 0.8878(3)
O8_2 O 0.3893(10) 0.4345(6) 0.7601(3)
O10 O 0.9988(9) 0.5360(4) 0.6122(3)
Zn3_2 Zn 0.06242(14) 0.95639(7) 0.92944(4)
H37 H 0.7436 0.9972 0.4541
N4_2 N 0.1646(10) 0.9986(5) 0.9891(3)
C6_3 C 0.1086(13) 0.6527(6) 0.9461(3)
C7_3 C 0.2243(12) 0.6547(7) 0.9081(4)
C8_3 C 0.2660(13) 0.5865(6) 0.8872(4)
H8_3 H 0.2250 0.5416 0.8977
C9_3 C 0.3732(16) 0.5889(7) 0.8493(4)
H9_3 H 0.3997 0.5449 0.8343
C10_3 C 0.4390(13) 0.6552(6) 0.8343(4)
C11_3 C 0.3944(12) 0.7198(6) 0.8581(4)
H10_3 H 0.4364 0.7653 0.8490
C12_3 C 0.2936(12) 0.7178(6) 0.8933(3)
H11_3 H 0.2699 0.7621 0.9085
C13_3 C 0.5465(13) 0.6559(6) 0.7962(4)
C14_3 C 0.6493(15) 0.5945(7) 0.7848(4)
H12_3 H 0.6467 0.5520 0.8033
C15_3 C 0.7487(15) 0.5966(7) 0.7484(4)
H13_3 H 0.8102 0.5549 0.7424
C16_3 C 0.7632(15) 0.6589(8) 0.7193(4)
C17_3 C 0.6718(14) 0.7205(8) 0.7292(4)
H14_3 H 0.6781 0.7631 0.7110
C18_3 C 0.5680(14) 0.7172(7) 0.7679(4)
H15_3 H 0.5100 0.7597 0.7747
C19_3 C 0.8694(13) 0.6652(7) 0.6790(5)
C25_3 C 0.4206(11) 0.9288(6) 0.9096(3)
H23_3 H 0.4271 0.9271 0.9419
C26_3 C 0.5551(11) 0.9183(5) 0.8852(3)
H24_3 H 0.6495 0.9100 0.9006
C27_3 C 0.5490(10) 0.9200(5) 0.8373(3)
C28_3 C 0.4066(12) 0.9344(7) 0.8173(3)
H25_3 H 0.3972 0.9375 0.7852
C29_3 C 0.2786(13) 0.9441(7) 0.8451(3)
H26_3 H 0.1830 0.9534 0.8306
C30_3 C 0.7111(15) 0.9093(8) 0.7657(4)
C31_3 C 0.8705(13) 0.8895(6) 0.7484(3)
C32_3 C 0.9626(13) 0.8367(7) 0.7698(4)
H27_3 H 0.9287 0.8144 0.7972
C36_3 C 0.9179(16) 0.9227(8) 0.7074(4)
H30_3 H 0.8547 0.9584 0.6935
N1_3 N 0.2802(9) 0.9412(5) 0.8911(2)
N2_3 N 0.6890(10) 0.9062(5) 0.8126(3)
H35_3 H 0.7696 0.8946 0.8290
O2_3 O 0.0478(8) 0.8439(4) 0.9447(2)
O3_3 O 0.1241(12) 0.6045(5) 0.9787(3)
O4_3 O 0.8238(11) 0.6945(5) 0.6446(3)
O8_3 O 0.6107(10) 0.9345(6) 0.7399(3)
Zn1 Zn 0.56242(14) 0.54361(7) 0.07056(4)
C1_2 C 0.4768(10) 0.6777(5) 0.0910(3)
C2_2 C 0.4317(11) 0.7651(5) 0.0963(3)
H1_2 H 0.4670 0.7874 0.1255
C3_2 C 0.2670(16) 0.7575(8) 0.0930(5)
H2_2 H 0.2155 0.7918 0.1141
H3_2 H 0.2357 0.7072 0.1010
C4_2 C 0.2230(13) 0.7745(7) 0.0446(4)
H4_2 H 0.1875 0.7295 0.0291
H5_2 H 0.1380 0.8104 0.0441
C5_2 C 0.3589(14) 0.8048(7) 0.0203(3)
H6_2 H 0.3386 0.8552 0.0096
C6_4 C 0.6086(13) 0.8473(6) 0.0539(3)
C7_4 C 0.7243(12) 0.8453(7) 0.0919(4)
C8_4 C 0.7660(13) 0.9135(6) 0.1128(4)
H8_4 H 0.7250 0.9584 0.1023
C9_4 C 0.8732(16) 0.9111(7) 0.1507(4)
H9_4 H 0.8997 0.9551 0.1657
C10_4 C 0.9390(13) 0.8448(6) 0.1657(4)
C11_4 C 0.8944(12) 0.7802(6) 0.1419(4)
H10_4 H 0.9364 0.7347 0.1510
C12_4 C 0.7936(12) 0.7822(6) 0.1067(3)
H11_4 H 0.7699 0.7379 0.0915
C25_4 C 0.9206(11) 0.5712(6) 0.0904(3)
H23_4 H 0.9271 0.5729 0.0581
C28_4 C 0.9066(12) 0.5656(7) 0.1827(3)
H25_4 H 0.8972 0.5625 0.2148
C29_4 C 0.7786(13) 0.5559(7) 0.1549(3)
H26_4 H 0.6830 0.5466 0.1694
N1_4 N 0.7802(9) 0.5588(5) 0.1089(2)
N5_2 N 0.4853(10) 0.8039(5) 0.0557(3)
O1_2 O 0.4356(8) 0.6357(4) 0.1218(2)
O2_4 O 0.5478(8) 0.6561(4) 0.0553(2)
O3_4 O 0.6241(12) 0.8955(5) 0.0213(3)
O9_2 O 0.3280(10) 0.5324(5) 0.0355(3)
H37_2 H 0.2564 0.4972 0.0459
H38_2 H 0.3026 0.5631 0.0106
N7_2 N 0.6646(10) 0.5014(5) 0.0109(3)
O10_2 O 0.5012(9) 0.4640(4) 0.1122(3)
C40_2 C 0.7664(19) 0.4462(8) 0.0112(5)
H32_2 H 0.7946 0.4257 0.0397
C13_4 C 0.9535(13) 0.3441(6) 0.2962(4)
C14_4 C 0.8507(15) 0.4055(7) 0.2848(4)
H12_4 H 0.8533 0.4480 0.3033
C15_4 C 0.7513(15) 0.4034(7) 0.2484(4)
H13_4 H 0.6898 0.4451 0.2424
C16_4 C 0.7368(15) 0.3411(8) 0.2193(4)
C17_4 C 0.8282(14) 0.2795(8) 0.2292(4)
H14_4 H 0.8219 0.2369 0.2110
C18_4 C 0.9320(14) 0.2828(7) 0.2679(4)
H15_4 H 0.9900 0.2403 0.2747
C19_4 C 0.6306(13) 0.3348(7) 0.1790(5)
C20_2 C 0.4042(18) 0.3949(9) 0.2236(5)
H16_2 H 0.4293 0.3676 0.2517
H17_2 H 0.4347 0.4465 0.2277
C21_2 C 0.235(2) 0.3894(11) 0.2132(9)
H18_2 H 0.1880 0.3505 0.2320
H19_2 H 0.1836 0.4361 0.2206
C22_2 C 0.2126(18) 0.3725(12) 0.1647(7)
H20_2 H 0.1633 0.4144 0.1491
H21_2 H 0.1450 0.3294 0.1613
C23_2 C 0.3775(16) 0.3562(7) 0.1422(5)
H22_2 H 0.3790 0.3050 0.1305
C24_2 C 0.430(2) 0.4092(8) 0.1034(5)
C26_4 C 0.9449(11) 0.0817(5) 0.3852(3)
H24_4 H 0.8505 0.0900 0.4006
C27_4 C 0.9510(10) 0.0800(5) 0.3373(3)
C30_4 C 0.7889(15) 0.0907(8) 0.2657(4)
C31_4 C 0.6295(13) 0.1105(6) 0.2484(3)
C32_4 C 0.5374(13) 0.1633(7) 0.2698(4)
H27_4 H 0.5713 0.1856 0.2972
C33_2 C 0.3938(14) 0.1835(8) 0.2506(5)
H28_2 H 0.3296 0.2186 0.2649
C34_2 C 0.350(2) 0.1494(9) 0.2095(5)
H29_2 H 0.2544 0.1623 0.1962
C35_2 C 0.4423(19) 0.0969(10) 0.1873(6)
C36_4 C 0.5821(16) 0.0773(8) 0.2074(4)
H30_4 H 0.6453 0.0416 0.1935
C37_2 C 0.395(3) 0.0489(11) 0.1467(7)
C38_2 C 0.2927(17) 0.0487(8) 0.0688(5)
C39_2 C 0.331(2) 0.0814(9) 0.0269(4)
H31_2 H 0.3991 0.1216 0.0255
N2_4 N 0.8110(10) 0.0938(5) 0.3126(3)
H35_4 H 0.7304 0.1054 0.3290
N3_2 N 0.3670(17) 0.0785(7) 0.1099(5)
H36_2 H 0.3958 0.1243 0.1079
N6_2 N 0.4858(13) 0.3621(6) 0.1831(4)
O4_4 O 0.6762(11) 0.3055(5) 0.1446(3)
O5_2 O 0.3680(18) 0.3912(6) 0.0622(4)
O8_4 O 0.8893(10) 0.0655(6) 0.2399(3)
H7_2 H 0.3866 0.7741 0.9938
C1_3 C 0.0232(10) 0.3223(5) 0.5910(3)
C2_3 C 0.0683(11) 0.2349(5) 0.5963(3)
H1_3 H 0.0330 0.2126 0.6255
C3_3 C 0.2330(16) 0.2425(8) 0.5930(5)
H2_3 H 0.2845 0.2082 0.6141
H3_3 H 0.2643 0.2928 0.6010
C4_3 C 0.2770(13) 0.2255(7) 0.5446(4)
H4_3 H 0.3125 0.2705 0.5291
H5_3 H 0.3620 0.1896 0.5441
C5_3 C 0.1411(14) 0.1952(7) 0.5203(3)
H6_3 H 0.1614 0.1448 0.5096
H7_3 H 0.1134 0.2259 0.4938
N5_3 N 0.0147(10) 0.1961(5) 0.5557(3)
O1_3 O 0.0644(8) 0.3643(4) 0.6218(2)
O9_3 O 0.1720(10) 0.4676(5) 0.5355(3)
H37_3 H 0.2436 0.5028 0.5459
H38_3 H 0.1974 0.4369 0.5106
C20_3 C 0.9042(18) 0.1051(9) 0.7764(5)
H16_3 H 0.9293 0.1324 0.7483
H17_3 H 0.9347 0.0535 0.7723
C21_3 C 0.735(2) 0.1106(11) 0.7868(9)
H18_3 H 0.6880 0.1495 0.7680
H19_3 H 0.6836 0.0639 0.7794
C22_3 C 0.7126(18) 0.1275(12) 0.8353(7)
H20_3 H 0.6633 0.0856 0.8509
H21_3 H 0.6450 0.1706 0.8387
C23_3 C 0.8775(16) 0.1438(7) 0.8578(5)
H22_3 H 0.8790 0.1950 0.8695
C24_3 C 0.930(2) 0.0908(8) 0.8966(5)
C33_3 C 0.8938(14) 0.3165(8) 0.7494(5)
H28_3 H 0.8296 0.2814 0.7351
C34_3 C 0.850(2) 0.3506(9) 0.7905(5)
H29_3 H 0.7544 0.3377 0.8038
C35_3 C 0.9423(19) 0.4031(10) 0.8127(6)
C37_3 C 0.895(3) 0.4511(11) 0.8533(7)
C38_3 C 0.7927(17) 0.4513(8) 0.9312(5)
C39_3 C 0.831(2) 0.4186(9) 0.9731(4)
H31_3 H 0.8991 0.3784 0.9745
C41_3 C 0.6278(13) 0.5298(6) 0.9701(4)
H33_3 H 0.5535 0.5677 0.9695
C42_3 C 0.6899(15) 0.5082(6) 0.9296(4)
H34_3 H 0.6633 0.5312 0.9017
N3_3 N 0.8670(17) 0.4215(7) 0.8901(5)
H36_3 H 0.8958 0.3757 0.8921
N6_3 N 0.9858(13) 0.1379(6) 0.8169(4)
O5_3 O 0.8680(18) 0.1088(6) 0.9378(4)
O7_3 O 0.910(3) 0.5215(10) 0.8540(7)
C40_3 C 0.2664(19) 0.0538(8) 0.9888(5)
H32_3 H 0.2946 0.0743 0.9603
C41_4 C 0.1278(13) 0.9702(6) 0.0299(4)
H33_4 H 0.0535 0.9323 0.0305
C42_4 C 0.1899(15) 0.9918(6) 0.0704(4)
H34_4 H 0.1633 0.9688 0.0983
O7_4 O 0.410(3) 0.9785(10) 0.1460(7)
C20_4 C 0.0958(18) 0.6051(9) 0.7236(5)
H16_4 H 0.0707 0.6324 0.7517
H17_4 H 0.0653 0.5535 0.7277
C21_4 C 0.265(2) 0.6106(11) 0.7132(9)
H18_4 H 0.3120 0.6495 0.7320
H19_4 H 0.3164 0.5639 0.7206
C22_4 C 0.2874(18) 0.6275(12) 0.6647(7)
H20_4 H 0.3367 0.5856 0.6491
H21_4 H 0.3550 0.6706 0.6613
C23_4 C 0.1225(16) 0.6438(7) 0.6422(5)
H22_4 H 0.1210 0.6950 0.6305
C24_4 C 0.070(2) 0.5908(8) 0.6034(5)
C33_4 C 0.1062(14) 0.8165(8) 0.7506(5)
H28_4 H 0.1704 0.7814 0.7649
C34_4 C 0.150(2) 0.8506(9) 0.7095(5)
H29_4 H 0.2456 0.8377 0.6962
C35_4 C 0.0577(19) 0.9031(10) 0.6873(6)
C37_4 C 0.105(3) 0.9511(11) 0.6467(7)
C38_4 C 0.2073(17) 0.9513(8) 0.5688(5)
C39_4 C 0.169(2) 0.9186(9) 0.5269(4)
H31_4 H 0.1009 0.8784 0.5255
C40_4 C 0.2336(19) 0.9462(8) 0.4888(5)
H32_4 H 0.2054 0.9257 0.4603
N3_4 N 0.1330(17) 0.9215(7) 0.6099(5)
H36_4 H 0.1042 0.8757 0.6079
N6_4 N 0.0142(13) 0.6379(6) 0.6831(4)
O5_4 O 0.1320(18) 0.6088(6) 0.5622(4)
H37_4 H 0.7564 0.0028 0.9541
H7_4 H 0.8866 0.7259 0.0062
C1_4 C 0.9768(10) 0.8223(5) 0.9090(3)
C2_4 C 0.9317(11) 0.7349(5) 0.9037(3)
H1_4 H 0.9670 0.7126 0.8745
C3_4 C 0.7670(16) 0.7425(8) 0.9070(5)
H2_4 H 0.7155 0.7082 0.8859
H3_4 H 0.7357 0.7928 0.8990
C4_4 C 0.7230(13) 0.7255(7) 0.9554(4)
H4_4 H 0.6875 0.7705 0.9709
H5_4 H 0.6380 0.6896 0.9559
C5_4 C 0.8589(14) 0.6952(7) 0.9797(3)
H6_4 H 0.8386 0.6448 0.9904
N5_4 N 0.9853(10) 0.6961(5) 0.9443(3)
O1_4 O 0.9356(8) 0.8643(4) 0.8782(2)
O9_4 O 0.8280(10) 0.9676(5) 0.9645(3)
H38_4 H 0.8026 0.9369 0.9894
loop_
_geom_bond_atom_site_label_1
_geom_bond_atom_site_label_2
_geom_bond_site_symmetry_1
_geom_bond_site_symmetry_2
Zn3 N1 1_555 1_555
C1 C2 1_555 1_555
C2 H1 1_555 1_555
C3 C2 1_555 1_555
H2 C3 1_555 1_555
H3 C3 1_555 1_555
C4 C3 1_555 1_555
H4 C4 1_555 1_555
H5 C4 1_555 1_555
C5 C4 1_555 1_555
H6 C5 1_555 1_555
H7 C5 1_555 1_555
C6 C7 1_555 1_555
C7 C8 1_555 1_555
C8 H8 1_555 1_555
C9 C8 1_555 1_555
H9 C9 1_555 1_555
C10 C9 1_555 1_555
C11 C10 1_555 1_555
H10 C11 1_555 1_555
C12 C7 1_555 1_555
H11 C12 1_555 1_555
C25 H23 1_555 1_555
H25 C28 1_555 1_555
C29 C28 1_555 1_555
H26 C29 1_555 1_555
N1 C25 1_555 1_555
N5 C2 1_555 1_555
O1 Zn3 1_555 1_555
O2 Zn3 1_555 1_555
O3 C6 1_555 1_555
O9 Zn3 1_555 1_555
H38 O9 1_555 1_555
N7 Zn3 1_555 1_555
C1 O1 1_555 1_555
C1 O2 1_555 1_555
C5 N5 1_555 1_555
C6 N5 1_555 1_555
C11 C12 1_555 1_555
C29 N1 1_555 1_555
C41 H33 1_555 1_555
H34 C42 1_555 1_555
C41 C42 1_555 1_555
C41 N7 1_555 1_555
C14 C13 1_555 1_555
H12 C14 1_555 1_555
C15 C14 1_555 1_555
H13 C15 1_555 1_555
C16 C15 1_555 1_555
C17 C16 1_555 1_555
H14 C17 1_555 1_555
C18 C13 1_555 1_555
H15 C18 1_555 1_555
C19 C16 1_555 1_555
C20 H16 1_555 1_555
H17 C20 1_555 1_555
C21 C20 1_555 1_555
H18 C21 1_555 1_555
H19 C21 1_555 1_555
C22 C21 1_555 1_555
H20 C22 1_555 1_555
H21 C22 1_555 1_555
C23 C22 1_555 1_555
H22 C23 1_555 1_555
C24 C23 1_555 1_555
H24 C26 1_555 1_555
C27 C26 1_555 1_555
C30 C31 1_555 1_555
C31 C32 1_555 1_555
C32 H27 1_555 1_555
C33 C32 1_555 1_555
H28 C33 1_555 1_555
C34 C33 1_555 1_555
H29 C34 1_555 1_555
C35 C34 1_555 1_555
C36 C31 1_555 1_555
H30 C36 1_555 1_555
C37 C35 1_555 1_555
C38 C39 1_555 1_555
C39 H31 1_555 1_555
C40 C39 1_555 1_555
H32 C40 1_555 1_555
C41_2 H33_2 1_555 1_555
C42_2 C38 1_555 1_555
H34_2 C42_2 1_555 1_555
N2 C27 1_555 1_555
H35 N2 1_555 1_555
N3 C37 1_555 1_555
H36 N3 1_555 1_555
N4 C40 1_555 1_555
N6 C19 1_555 1_555
O4 C19 1_555 1_555
O5 C24 1_555 1_555
O6 C24 1_555 1_555
O7_2 C37 1_555 1_555
O8 C30 1_555 1_555
Zn2 N4 1_555 1_555
C17 C18 1_555 1_555
C20 N6 1_555 1_555
C23 N6 1_555 1_555
C30 N2 1_555 1_555
C35 C36 1_555 1_555
C38 N3 1_555 1_555
C41_2 C42_2 1_555 1_555
C41_2 N4 1_555 1_555
Zn2 N1_2 1_555 1_555
C6_2 C7_2 1_555 1_555
C7_2 C8_2 1_555 1_555
C8_2 H8_2 1_555 1_555
C9_2 C8_2 1_555 1_555
H9_2 C9_2 1_555 1_555
C10_2 C9_2 1_555 1_555
C11_2 C10_2 1_555 1_555
H10_2 C11_2 1_555 1_555
C12_2 C7_2 1_555 1_555
H11_2 C12_2 1_555 1_555
C13_2 C10_2 1_555 1_555
C14_2 C13_2 1_555 1_555
H12_2 C14_2 1_555 1_555
C15_2 C14_2 1_555 1_555
H13_2 C15_2 1_555 1_555
C16_2 C15_2 1_555 1_555
C17_2 C16_2 1_555 1_555
H14_2 C17_2 1_555 1_555
C18_2 C13_2 1_555 1_555
H15_2 C18_2 1_555 1_555
C19_2 C16_2 1_555 1_555
C25_2 H23_2 1_555 1_555
C26_2 C25_2 1_555 1_555
H24_2 C26_2 1_555 1_555
C27_2 C26_2 1_555 1_555
C28_2 C27_2 1_555 1_555
H25_2 C28_2 1_555 1_555
C29_2 C28_2 1_555 1_555
H26_2 C29_2 1_555 1_555
C30_2 C31_2 1_555 1_555
C31_2 C32_2 1_555 1_555
C32_2 H27_2 1_555 1_555
C36_2 C31_2 1_555 1_555
H30_2 C36_2 1_555 1_555
N1_2 C25_2 1_555 1_555
N2_2 C27_2 1_555 1_555
H35_2 N2_2 1_555 1_555
O2_2 Zn2 1_555 1_555
O3_2 C6_2 1_555 1_555
O4_2 C19_2 1_555 1_555
O8_2 C30_2 1_555 1_555
O10 Zn2 1_555 1_555
C11_2 C12_2 1_555 1_555
C17_2 C18_2 1_555 1_555
C29_2 N1_2 1_555 1_555
C30_2 N2_2 1_555 1_555
Zn3_2 N4_2 1_555 1_555
Zn3_2 N1_3 1_555 1_555
C6_3 C7_3 1_555 1_555
C7_3 C8_3 1_555 1_555
C8_3 H8_3 1_555 1_555
C9_3 C8_3 1_555 1_555
H9_3 C9_3 1_555 1_555
C10_3 C9_3 1_555 1_555
C11_3 C10_3 1_555 1_555
H10_3 C11_3 1_555 1_555
C12_3 C7_3 1_555 1_555
H11_3 C12_3 1_555 1_555
C13_3 C10_3 1_555 1_555
C14_3 C13_3 1_555 1_555
H12_3 C14_3 1_555 1_555
C15_3 C14_3 1_555 1_555
H13_3 C15_3 1_555 1_555
C16_3 C15_3 1_555 1_555
C17_3 C16_3 1_555 1_555
H14_3 C17_3 1_555 1_555
C18_3 C13_3 1_555 1_555
H15_3 C18_3 1_555 1_555
C19_3 C16_3 1_555 1_555
C25_3 H23_3 1_555 1_555
C26_3 C25_3 1_555 1_555
H24_3 C26_3 1_555 1_555
C27_3 C26_3 1_555 1_555
C28_3 C27_3 1_555 1_555
H25_3 C28_3 1_555 1_555
C29_3 C28_3 1_555 1_555
H26_3 C29_3 1_555 1_555
C30_3 C31_3 1_555 1_555
C31_3 C32_3 1_555 1_555
C32_3 H27_3 1_555 1_555
C36_3 C31_3 1_555 1_555
H30_3 C36_3 1_555 1_555
N1_3 C25_3 1_555 1_555
N2_3 C27_3 1_555 1_555
H35_3 N2_3 1_555 1_555
O2_3 Zn3_2 1_555 1_555
O3_3 C6_3 1_555 1_555
O4_3 C19_3 1_555 1_555
O8_3 C30_3 1_555 1_555
C11_3 C12_3 1_555 1_555
C17_3 C18_3 1_555 1_555
C29_3 N1_3 1_555 1_555
C30_3 N2_3 1_555 1_555
Zn1 N1_4 1_555 1_555
C1_2 C2_2 1_555 1_555
C2_2 H1_2 1_555 1_555
C3_2 C2_2 1_555 1_555
H2_2 C3_2 1_555 1_555
H3_2 C3_2 1_555 1_555
C4_2 C3_2 1_555 1_555
H4_2 C4_2 1_555 1_555
H5_2 C4_2 1_555 1_555
C5_2 C4_2 1_555 1_555
H6_2 C5_2 1_555 1_555
C6_4 C7_4 1_555 1_555
C7_4 C8_4 1_555 1_555
C8_4 H8_4 1_555 1_555
C9_4 C8_4 1_555 1_555
H9_4 C9_4 1_555 1_555
C10_4 C9_4 1_555 1_555
C11_4 C10_4 1_555 1_555
H10_4 C11_4 1_555 1_555
C12_4 C7_4 1_555 1_555
H11_4 C12_4 1_555 1_555
C25_4 H23_4 1_555 1_555
H25_4 C28_4 1_555 1_555
C29_4 C28_4 1_555 1_555
H26_4 C29_4 1_555 1_555
N1_4 C25_4 1_555 1_555
N5_2 C2_2 1_555 1_555
O1_2 Zn1 1_555 1_555
O2_4 Zn1 1_555 1_555
O3_4 C6_4 1_555 1_555
O9_2 Zn1 1_555 1_555
H37_2 O9_2 1_555 1_555
H38_2 O9_2 1_555 1_555
N7_2 Zn1 1_555 1_555
O10_2 Zn1 1_555 1_555
C1_2 O1_2 1_555 1_555
C1_2 O2_4 1_555 1_555
C5_2 N5_2 1_555 1_555
C6_4 N5_2 1_555 1_555
C11_4 C12_4 1_555 1_555
C29_4 N1_4 1_555 1_555
H32_2 C40_2 1_555 1_555
N7_2 C40_2 1_555 1_555
C14_4 C13_4 1_555 1_555
H12_4 C14_4 1_555 1_555
C15_4 C14_4 1_555 1_555
H13_4 C15_4 1_555 1_555
C16_4 C15_4 1_555 1_555
C17_4 C16_4 1_555 1_555
H14_4 C17_4 1_555 1_555
C18_4 C13_4 1_555 1_555
H15_4 C18_4 1_555 1_555
C19_4 C16_4 1_555 1_555
C20_2 H16_2 1_555 1_555
H17_2 C20_2 1_555 1_555
C21_2 C20_2 1_555 1_555
H18_2 C21_2 1_555 1_555
H19_2 C21_2 1_555 1_555
C22_2 C21_2 1_555 1_555
H20_2 C22_2 1_555 1_555
H21_2 C22_2 1_555 1_555
C23_2 C22_2 1_555 1_555
H22_2 C23_2 1_555 1_555
C24_2 C23_2 1_555 1_555
H24_4 C26_4 1_555 1_555
C27_4 C26_4 1_555 1_555
C30_4 C31_4 1_555 1_555
C31_4 C32_4 1_555 1_555
C32_4 H27_4 1_555 1_555
C33_2 C32_4 1_555 1_555
H28_2 C33_2 1_555 1_555
C34_2 C33_2 1_555 1_555
H29_2 C34_2 1_555 1_555
C35_2 C34_2 1_555 1_555
C36_4 C31_4 1_555 1_555
H30_4 C36_4 1_555 1_555
C37_2 C35_2 1_555 1_555
C38_2 C39_2 1_555 1_555
C39_2 H31_2 1_555 1_555
N2_4 C27_4 1_555 1_555
H35_4 N2_4 1_555 1_555
N3_2 C37_2 1_555 1_555
H36_2 N3_2 1_555 1_555
N6_2 C19_4 1_555 1_555
O4_4 C19_4 1_555 1_555
O5_2 C24_2 1_555 1_555
O10_2 C24_2 1_555 1_555
O8_4 C30_4 1_555 1_555
C17_4 C18_4 1_555 1_555
C20_2 N6_2 1_555 1_555
C23_2 N6_2 1_555 1_555
C30_4 N2_4 1_555 1_555
C35_2 C36_4 1_555 1_555
C38_2 N3_2 1_555 1_555
C1_3 C2_3 1_555 1_555
C2_3 H1_3 1_555 1_555
C3_3 C2_3 1_555 1_555
H2_3 C3_3 1_555 1_555
H3_3 C3_3 1_555 1_555
C4_3 C3_3 1_555 1_555
H4_3 C4_3 1_555 1_555
H5_3 C4_3 1_555 1_555
C5_3 C4_3 1_555 1_555
H6_3 C5_3 1_555 1_555
H7_3 C5_3 1_555 1_555
N5_3 C2_3 1_555 1_555
H37_3 O9_3 1_555 1_555
H38_3 O9_3 1_555 1_555
C1_3 O1_3 1_555 1_555
C5_3 N5_3 1_555 1_555
C20_3 H16_3 1_555 1_555
H17_3 C20_3 1_555 1_555
C21_3 C20_3 1_555 1_555
H18_3 C21_3 1_555 1_555
H19_3 C21_3 1_555 1_555
C22_3 C21_3 1_555 1_555
H20_3 C22_3 1_555 1_555
H21_3 C22_3 1_555 1_555
C23_3 C22_3 1_555 1_555
H22_3 C23_3 1_555 1_555
C24_3 C23_3 1_555 1_555
H28_3 C33_3 1_555 1_555
C34_3 C33_3 1_555 1_555
H29_3 C34_3 1_555 1_555
C35_3 C34_3 1_555 1_555
C37_3 C35_3 1_555 1_555
C38_3 C39_3 1_555 1_555
C39_3 H31_3 1_555 1_555
C41_3 H33_3 1_555 1_555
C42_3 C38_3 1_555 1_555
H34_3 C42_3 1_555 1_555
N3_3 C37_3 1_555 1_555
H36_3 N3_3 1_555 1_555
O5_3 C24_3 1_555 1_555
O7_3 C37_3 1_555 1_555
C20_3 N6_3 1_555 1_555
C23_3 N6_3 1_555 1_555
C38_3 N3_3 1_555 1_555
C41_3 C42_3 1_555 1_555
H32_3 C40_3 1_555 1_555
C41_4 H33_4 1_555 1_555
H34_4 C42_4 1_555 1_555
C41_4 C42_4 1_555 1_555
C20_4 H16_4 1_555 1_555
H17_4 C20_4 1_555 1_555
C21_4 C20_4 1_555 1_555
H18_4 C21_4 1_555 1_555
H19_4 C21_4 1_555 1_555
C22_4 C21_4 1_555 1_555
H20_4 C22_4 1_555 1_555
H21_4 C22_4 1_555 1_555
C23_4 C22_4 1_555 1_555
H22_4 C23_4 1_555 1_555
C24_4 C23_4 1_555 1_555
H28_4 C33_4 1_555 1_555
C34_4 C33_4 1_555 1_555
H29_4 C34_4 1_555 1_555
C35_4 C34_4 1_555 1_555
C37_4 C35_4 1_555 1_555
C38_4 C39_4 1_555 1_555
C39_4 H31_4 1_555 1_555
C40_4 C39_4 1_555 1_555
H32_4 C40_4 1_555 1_555
N3_4 C37_4 1_555 1_555
H36_4 N3_4 1_555 1_555
O5_4 C24_4 1_555 1_555
C20_4 N6_4 1_555 1_555
C23_4 N6_4 1_555 1_555
C38_4 N3_4 1_555 1_555
C1_4 C2_4 1_555 1_555
C2_4 H1_4 1_555 1_555
C3_4 C2_4 1_555 1_555
H2_4 C3_4 1_555 1_555
H3_4 C3_4 1_555 1_555
C4_4 C3_4 1_555 1_555
H4_4 C4_4 1_555 1_555
H5_4 C4_4 1_555 1_555
C5_4 C4_4 1_555 1_555
H6_4 C5_4 1_555 1_555
N5_4 C2_4 1_555 1_555
H38_4 O9_4 1_555 1_555
C1_4 O1_4 1_555 1_555
C5_4 N5_4 1_555 1_555

#END
