
###############################################################################
#
# This file contains modified crystal structure data generated from the
# MOF subset of the Cambridge Structural Database (CSD) v543 
# hosted by the Cambridge Crystallographic Data Centre (CCDC).
#
# This work is licensed under the Creative Commons
# Attribution-NonCommercial-ShareAlike 4.0 International License.
# To view a copy of this license, visit
# http://creativecommons.org/licenses/by-nc-sa/4.0/
# or send a letter to
# Creative Commons, PO Box 1866, Mountain View, CA 94042, USA.
#
# CIF created using the CSD Python API on 29 September 2022
# The structure has been converted into the P1 space group
# The structure has a 3D framework
# The original CSD entry TUWFUP is in the hexagonal crystal system
# The original CSD entry TUWFUP is in a Sohncke space group
# The framework has been calculated to contain at least 10.0% void space
# The void calculation uses a probe of radius 1.32A, grid spacing 0.4
# The framework is charged, counterions have been retained in the structure
# H atom positions have been added when not included in the experimental data
#
###############################################################################

data_TUWFUP
_chemical_formula_moiety         '(C552 H504 O120 P12 Zn24 12+)n'
_symmetry_cell_setting           triclinic
_symmetry_space_group_name_H-M   'P 1'
_symmetry_Int_Tables_number      1
_space_group_name_Hall           'P 1'
loop_
_symmetry_equiv_pos_site_id
_symmetry_equiv_pos_as_xyz
1 x,y,z
_cell_length_a                   24.0731(4)
_cell_length_b                   24.0731(4)
_cell_length_c                   48.8445(19)
_cell_angle_alpha                90
_cell_angle_beta                 90
_cell_angle_gamma                120
_cell_volume                     24513.8
loop_
_atom_site_label
_atom_site_type_symbol
_atom_site_fract_x
_atom_site_fract_y
_atom_site_fract_z
Zn1 Zn 0.52776(18) 0.33774(18) 0.43634(5)
P1 P 0.5363(3) 0.4718(3) 0.45499(8)
O1 O 0.5270(6) 0.4213(6) 0.43401(18)
O2 O 0.4665(6) 0.4476(6) 0.46743(18)
O3 O 0.5899(6) 0.4884(6) 0.47601(16)
O4 O 0.3766(6) 0.7620(6) 0.5882(3)
O5 O 0.5566(5) 0.5389(6) 0.44101(19)
O6 O 0.7306(8) 0.5521(7) 0.4959(3)
O7 O 0.4673(6) 0.7715(6) 0.6100(2)
C1 C 0.4224(10) 0.7549(8) 0.5900(4)
C2 C 0.5668(6) 0.5448(8) 0.3828(2)
C3 C 0.6263(8) 0.6001(6) 0.3804(2)
C4 C 0.6759(6) 0.5982(6) 0.3666(2)
H1 H 0.7157 0.6352 0.3650
C5 C 0.6659(6) 0.5410(8) 0.35523(19)
C6 C 0.6064(7) 0.4857(6) 0.3576(2)
H2 H 0.5997 0.4474 0.3500
C7 C 0.5568(5) 0.4876(6) 0.3714(2)
C8 C 0.4908(9) 0.4279(8) 0.3700(3)
H3 H 0.4818 0.4050 0.3871
H4 H 0.4898 0.4008 0.3554
H5 H 0.4591 0.4402 0.3668
C9 C 0.4607(6) 0.5466(6) 0.43993(13)
C10 C 0.4142(5) 0.5524(6) 0.42539(19)
C11 C 0.4165(5) 0.5550(5) 0.39696(18)
C12 C 0.4652(6) 0.5518(5) 0.38307(13)
H6 H 0.4667 0.5536 0.3640
C13 C 0.5117(5) 0.5460(6) 0.39761(19)
C14 C 0.5094(5) 0.5434(6) 0.42604(19)
C15 C 0.4572(9) 0.4294(7) 0.5260(2)
C16 C 0.5121(7) 0.4389(6) 0.5395(3)
C17 C 0.5135(7) 0.3873(9) 0.5516(2)
H7 H 0.5503 0.3937 0.5607
C18 C 0.4600(9) 0.3263(7) 0.5502(2)
C19 C 0.4051(7) 0.3167(6) 0.5367(3)
H8 H 0.3693 0.2759 0.5358
C20 C 0.4037(7) 0.3683(9) 0.5246(2)
C21 C 0.4355(6) 0.7135(5) 0.5696(2)
C22 C 0.3922(5) 0.6852(6) 0.5482(2)
H9 H 0.3595 0.6946 0.5456
C23 C 0.3977(5) 0.6427(6) 0.53066(19)
H10 H 0.3687 0.6238 0.5164
C24 C 0.4465(6) 0.6286(5) 0.53449(19)
C25 C 0.4899(5) 0.6569(6) 0.5559(2)
H11 H 0.5225 0.6474 0.5584
C26 C 0.4844(5) 0.6994(6) 0.57342(19)
H12 H 0.5133 0.7183 0.5877
C27 C 0.4674(8) 0.6530(8) 0.4743(3)
H13 H 0.4302 0.6577 0.4760
H14 H 0.4778 0.6536 0.4553
H15 H 0.5029 0.6877 0.4836
C28 C 0.5687(11) 0.5011(11) 0.5427(4)
H16 H 0.5927 0.5129 0.5259
H17 H 0.5947 0.4995 0.5572
H18 H 0.5562 0.5322 0.5470
C29 C 0.3152(8) 0.6211(10) 0.3700(4)
H19 H 0.3054 0.6522 0.3754
C30 C 0.4502(5) 0.5306(6) 0.52802(13)
H20 H 0.4479 0.5266 0.5470
C31 C 0.4498(5) 0.5823(5) 0.51561(18)
C32 C 0.4532(6) 0.5883(5) 0.48727(19)
C33 C 0.4569(6) 0.5424(6) 0.47133(13)
C34 C 0.4573(6) 0.4906(5) 0.48374(19)
C35 C 0.4539(6) 0.4847(5) 0.5121(2)
C36 C 0.3407(8) 0.5270(9) 0.3584(3)
H21 H 0.3484 0.4937 0.3545
C37 C 0.3471(8) 0.5388(8) 0.4390(3)
H22 H 0.3121 0.5098 0.4276
H23 H 0.3470 0.5785 0.4407
H24 H 0.3426 0.5201 0.4568
C38 C 0.6426(11) 0.6644(10) 0.3921(5)
H25 H 0.6053 0.6613 0.4008
H26 H 0.6565 0.6956 0.3776
H27 H 0.6763 0.6774 0.4053
C39 C 0.7270(10) 0.5398(12) 0.3397(4)
H28 H 0.7507 0.5783 0.3291
H29 H 0.7108 0.5032 0.3278
H30 H 0.7546 0.5373 0.3532
C40 C 0.3382(13) 0.3552(13) 0.5095(5)
H31 H 0.3273 0.3866 0.5153
H32 H 0.3040 0.3131 0.5142
H33 H 0.3445 0.3580 0.4900
C41 C 0.4592(14) 0.2720(12) 0.5648(4)
H34 H 0.4993 0.2734 0.5620
H35 H 0.4249 0.2324 0.5578
H36 H 0.4528 0.2752 0.5840
Zn2 Zn 0.65629(12) 0.47165(11) 0.47738(4)
C42 C 0.2971(9) 0.5353(10) 0.3411(3)
H37 H 0.2753 0.5079 0.3266
C43 C 0.2903(8) 0.5866(10) 0.3475(4)
C44 C 0.3571(9) 0.6086(10) 0.3854(4)
H38 H 0.3756 0.6345 0.4007
C45 C 0.3724(9) 0.5666(10) 0.3810(3)
O8 O 0.2375(6) 0.6466(7) 0.3363(3)
O9 O 0.2182(7) 0.5601(8) 0.3095(2)
C46 C 0.2478(10) 0.6018(14) 0.3274(5)
O10 O 0.4271(10) 0.2859(7) 0.4109(4)
Zn3 Zn 0.33774(18) 0.80998(25) 0.60301(5)
Zn4 Zn 0.19002(25) 0.52776(18) 0.26967(5)
O11 O 0.6146(8) 0.3766(6) 0.4215(3)
O12 O 0.6958(8) 0.4673(6) 0.4433(2)
Zn5 Zn 0.47165(11) 0.81536(16) 0.64405(4)
Zn6 Zn 0.18464(16) 0.65629(12) 0.31071(4)
O13 O 0.6466(7) 0.4091(9) 0.5030(3)
O14 O 0.5601(8) 0.3419(11) 0.4762(2)
H39 H 0.717076 0.557435 0.514459
H40 H 0.768787 0.546733 0.497419
H41 H 0.433478 0.306812 0.392745
H42 H 0.412999 0.239797 0.408325
Zn1_2 Zn 0.66226(18) 0.19002(25) 0.10301(5)
P1_2 P 0.5282(3) 0.0645(4) 0.12166(8)
O1_2 O 0.5787(6) 0.1057(8) 0.10068(18)
O2_2 O 0.5524(6) 0.0189(8) 0.13410(18)
O3_2 O 0.5116(6) 0.1015(8) 0.14268(16)
O5_2 O 0.4611(6) 0.0177(8) 0.10768(19)
O6_2 O 0.4479(7) 0.1785(11) 0.1626(3)
C2_2 C 0.4552(8) 0.0220(10) 0.0495(2)
C3_2 C 0.3999(6) 0.0262(10) 0.0471(2)
C4_2 C 0.4018(6) 0.0777(8) 0.0333(2)
H1_2 H 0.3648 0.0805 0.0317
C5_2 C 0.4590(8) 0.1249(10) 0.02190(19)
C6_2 C 0.5143(6) 0.1207(9) 0.0243(2)
H2_2 H 0.5526 0.1523 0.0167
C7_2 C 0.5124(6) 0.0692(8) 0.0381(2)
C8_2 C 0.5721(8) 0.0629(12) 0.0367(3)
H3_2 H 0.5950 0.0768 0.0538
H4_2 H 0.5992 0.0890 0.0221
H5_2 H 0.5598 0.0189 0.0335
C15_2 C 0.5706(7) 0.0278(11) 0.1927(2)
C16_2 C 0.5611(6) 0.0732(9) 0.2062(3)
C17_2 C 0.6127(9) 0.1262(11) 0.2183(2)
H7_2 H 0.6063 0.1566 0.2274
C18_2 C 0.6737(7) 0.1337(11) 0.2169(2)
C19_2 C 0.6833(6) 0.0884(9) 0.2034(3)
H8_2 H 0.7241 0.0934 0.2025
C20_2 C 0.6317(9) 0.0354(11) 0.1913(2)
C28_2 C 0.4989(11) 0.0676(16) 0.2094(4)
H16_2 H 0.4871 0.0798 0.1926
H17_2 H 0.5005 0.0952 0.2239
H18_2 H 0.4678 0.0240 0.2137
C39_2 C 0.4602(12) 0.1872(16) 0.0064(4)
H30_2 H 0.4627 0.2173 0.0199
C41_2 C 0.7280(12) 0.1872(18) 0.2315(4)
H34_2 H 0.7266 0.2259 0.2287
H35_2 H 0.7676 0.1925 0.2245
H36_2 H 0.7248 0.1776 0.2507
Zn2_2 Zn 0.52835(11) 0.18464(16) 0.14405(4)
O10_2 O 0.7141(7) 0.1412(12) 0.0776(4)
O11_2 O 0.6234(6) 0.2380(10) 0.0882(3)
O12_2 O 0.5327(6) 0.2285(10) 0.1100(2)
O13_2 O 0.5909(9) 0.2375(11) 0.1696(3)
O14_2 O 0.6581(11) 0.2182(14) 0.1428(2)
H39_2 H 0.442565 0.159642 0.181126
H40_2 H 0.453267 0.222054 0.164085
H41_2 H 0.693188 0.126665 0.059412
H42_2 H 0.760203 0.173202 0.0749921
O4_2 O 0.2380(6) 0.6146(8) 0.2549(3)
O7_2 O 0.2285(6) 0.6958(8) 0.2767(2)
C1_2 C 0.2451(8) 0.6675(13) 0.2567(4)
C9_2 C 0.4534(6) 0.9141(8) 0.10660(13)
C10_2 C 0.4476(6) 0.8618(8) 0.09206(19)
C11_2 C 0.4450(5) 0.8615(7) 0.06363(18)
C12_2 C 0.4482(5) 0.9134(8) 0.04974(13)
H6_2 H 0.4464 0.9131 0.0307
C13_2 C 0.4540(6) 0.9657(8) 0.06428(19)
C14_2 C 0.4566(6) 0.9660(8) 0.09271(19)
C21_2 C 0.2865(5) 0.7220(8) 0.2363(2)
C22_2 C 0.3148(6) 0.7070(8) 0.2149(2)
H9_2 H 0.3054 0.6649 0.2123
C23_2 C 0.3573(6) 0.7550(8) 0.19733(19)
H10_2 H 0.3762 0.7449 0.1831
C24_2 C 0.3714(5) 0.8179(8) 0.20116(19)
C25_2 C 0.3431(6) 0.8330(8) 0.2226(2)
H11_2 H 0.3526 0.8751 0.2251
C26_2 C 0.3006(6) 0.7850(8) 0.24009(19)
H12_2 H 0.2817 0.7950 0.2544
C27_2 C 0.3470(8) 0.8144(11) 0.1410(3)
H13_2 H 0.3423 0.7725 0.1427
H14_2 H 0.3464 0.8242 0.1220
H15_2 H 0.3123 0.8152 0.1503
C29_2 C 0.3789(10) 0.6941(13) 0.0367(4)
H19_2 H 0.3478 0.6532 0.0421
C30_2 C 0.4694(6) 0.9196(8) 0.19469(13)
H20_2 H 0.4734 0.9213 0.2137
C31_2 C 0.4177(5) 0.8675(7) 0.18228(18)
C32_2 C 0.4117(5) 0.8649(8) 0.15394(19)
C33_2 C 0.4576(6) 0.9145(8) 0.13800(13)
C34_2 C 0.5094(5) 0.9667(8) 0.15041(19)
C35_2 C 0.5153(5) 0.9692(8) 0.1788(2)
C36_2 C 0.4730(9) 0.8137(12) 0.0251(3)
H21_2 H 0.5063 0.8547 0.0212
C37_2 C 0.4612(8) 0.8083(11) 0.1057(3)
H22_2 H 0.4902 0.8023 0.0943
H23_2 H 0.4215 0.7685 0.1074
H24_2 H 0.4799 0.8225 0.1235
C38_2 C 0.3356(10) 0.9782(15) 0.0588(5)
H25_2 H 0.3387 0.9440 0.0675
H26_2 H 0.3044 0.9609 0.0443
H27_2 H 0.3226 0.9989 0.0720
C40_2 C 0.6448(13) 0.9830(18) 0.1762(5)
H31_2 H 0.6134 0.9407 0.1820
H32_2 H 0.6869 0.9909 0.1809
H33_2 H 0.6420 0.9865 0.1567
C42_2 C 0.4647(10) 0.7618(13) 0.0078(3)
C43_2 C 0.4134(10) 0.7037(13) 0.0142(4)
C44_2 C 0.3914(10) 0.7485(13) 0.0521(4)
H38_2 H 0.3655 0.7411 0.0674
C45_2 C 0.4334(10) 0.8058(13) 0.0477(3)
O8_2 O 0.3534(7) 0.5909(9) 0.0030(3)
H37_2 H 0.4921 0.7674 0.9933
O9_2 O 0.4399(8) 0.6581(11) 0.9762(2)
C46_2 C 0.3982(14) 0.6460(17) 0.9941(5)
Zn4_2 Zn 0.47224(18) 0.66226(31) 0.93634(5)
Zn6_2 Zn 0.34371(12) 0.52835(20) 0.97738(4)
O4_3 O 0.3854(8) 0.6234(6) 0.9215(3)
O7_3 O 0.3042(8) 0.5327(6) 0.9433(2)
C1_3 C 0.3325(13) 0.5776(10) 0.9233(4)
C9_3 C 0.0859(8) 0.5393(6) 0.77326(13)
C10_3 C 0.1382(8) 0.5858(5) 0.75872(19)
C11_3 C 0.1385(7) 0.5835(5) 0.73029(18)
C12_3 C 0.0866(8) 0.5348(6) 0.71640(13)
H6_3 H 0.0869 0.5333 0.6973
C13_3 C 0.0343(8) 0.4883(5) 0.73094(19)
C14_3 C 0.0340(8) 0.4906(5) 0.75937(19)
C21_3 C 0.2780(8) 0.5645(6) 0.9029(2)
C22_3 C 0.2930(8) 0.6078(5) 0.8815(2)
H9_3 H 0.3351 0.6405 0.8789
C23_3 C 0.2450(8) 0.6023(5) 0.86399(19)
H10_3 H 0.2551 0.6313 0.8497
C24_3 C 0.1821(8) 0.5535(6) 0.86782(19)
C25_3 C 0.1670(8) 0.5101(5) 0.8892(2)
H11_3 H 0.1249 0.4775 0.8917
C26_3 C 0.2150(8) 0.5156(5) 0.90675(19)
H12_3 H 0.2050 0.4867 0.9210
C27_3 C 0.1856(11) 0.5326(8) 0.8076(3)
H13_3 H 0.2275 0.5698 0.8093
H14_3 H 0.1758 0.5222 0.7886
H15_3 H 0.1848 0.4971 0.8169
C29_3 C 0.3059(13) 0.6848(8) 0.7033(4)
H19_3 H 0.3468 0.6946 0.7087
C30_3 C 0.0804(8) 0.5498(5) 0.86135(13)
H20_3 H 0.0787 0.5521 0.8803
C31_3 C 0.1325(7) 0.5502(5) 0.84894(18)
C32_3 C 0.1351(8) 0.5468(6) 0.82060(19)
C33_3 C 0.0855(8) 0.5431(6) 0.80466(13)
C34_3 C 0.0333(8) 0.5427(6) 0.81707(19)
C35_3 C 0.0308(8) 0.5461(6) 0.8454(2)
C36_3 C 0.1863(12) 0.6593(8) 0.6917(3)
H21_3 H 0.1453 0.6516 0.6878
C37_3 C 0.1917(11) 0.6529(8) 0.7723(3)
H22_3 H 0.1977 0.6879 0.7609
H23_3 H 0.2315 0.6530 0.7740
H24_3 H 0.1775 0.6574 0.7901
C38_3 C 0.0218(15) 0.3574(11) 0.7254(5)
H25_3 H 0.0560 0.3947 0.7341
H26_3 H 0.0391 0.3435 0.7109
H27_3 H 0.0011 0.3237 0.7386
C40_3 C 0.0170(18) 0.6618(13) 0.8428(5)
H31_3 H 0.0593 0.6727 0.8486
H32_3 H 0.0091 0.6960 0.8475
H33_3 H 0.0135 0.6555 0.8233
C42_3 C 0.2382(13) 0.7029(9) 0.6744(3)
H37_3 H 0.2326 0.7247 0.6599
C43_3 C 0.2963(13) 0.7097(8) 0.6808(4)
C44_3 C 0.2515(13) 0.6429(9) 0.7187(4)
H38_3 H 0.2589 0.6244 0.7340
C45_3 C 0.1942(13) 0.6276(9) 0.7143(3)
O8_3 O 0.4091(9) 0.7625(6) 0.6696(3)
O9_3 O 0.3419(11) 0.7818(7) 0.6428(2)
C46_3 C 0.3540(17) 0.7522(10) 0.6607(5)
Zn1_3 Zn 0.80998(25) 0.47224(18) 0.76967(5)
P1_3 P 0.9355(4) 0.4637(3) 0.78832(8)
O1_3 O 0.8943(8) 0.4730(6) 0.76734(18)
O2_3 O 0.9811(8) 0.5335(6) 0.80076(18)
O3_3 O 0.8985(8) 0.4101(6) 0.80934(16)
O5_3 O 0.9823(8) 0.4434(5) 0.77434(19)
O6_3 O 0.8215(11) 0.2694(8) 0.8292(3)
C2_3 C 0.9780(10) 0.4332(6) 0.7161(2)
C3_3 C 0.9738(10) 0.3737(8) 0.7137(2)
C4_3 C 0.9223(8) 0.3241(6) 0.6999(2)
H1_3 H 0.9195 0.2843 0.6983
C5_3 C 0.8751(10) 0.3341(6) 0.68856(19)
C6_3 C 0.8793(9) 0.3936(7) 0.6909(2)
H2_3 H 0.8477 0.4003 0.6833
C7_3 C 0.9308(8) 0.4432(5) 0.7047(2)
C8_3 C 0.9371(12) 0.5092(9) 0.7033(3)
H3_3 H 0.9232 0.5182 0.7204
H4_3 H 0.9110 0.5102 0.6887
H5_3 H 0.9811 0.5409 0.7001
C15_3 C 0.9722(11) 0.5428(9) 0.8593(2)
C16_3 C 0.9268(9) 0.4879(7) 0.8728(3)
C17_3 C 0.8738(11) 0.4865(7) 0.8849(2)
H7_3 H 0.8434 0.4497 0.8940
C18_3 C 0.8663(11) 0.5400(9) 0.8835(2)
C19_3 C 0.9116(9) 0.5949(7) 0.8700(3)
H8_3 H 0.9066 0.6307 0.8691
C20_3 C 0.9646(11) 0.5963(7) 0.8579(2)
C28_3 C 0.9324(16) 0.4313(11) 0.8760(4)
H16_3 H 0.9202 0.4073 0.8592
H17_3 H 0.9048 0.4053 0.8905
H18_3 H 0.9760 0.4438 0.8803
C39_3 C 0.8128(16) 0.2730(10) 0.6730(4)
H28_2 H 0.8276 0.2493 0.6624
H29_2 H 0.7924 0.2892 0.6611
H30_3 H 0.7827 0.2454 0.6865
C41_3 C 0.8128(18) 0.5408(14) 0.8981(4)
H34_3 H 0.7741 0.5007 0.8953
H35_3 H 0.8075 0.5751 0.8911
H36_3 H 0.8224 0.5472 0.9173
Zn2_3 Zn 0.81536(16) 0.34371(12) 0.81071(4)
O10_3 O 0.8588(12) 0.5729(10) 0.7442(4)
O11_3 O 0.7620(10) 0.3854(8) 0.7549(3)
O12_3 O 0.7715(10) 0.3042(8) 0.7767(2)
O13_3 O 0.7625(11) 0.3534(7) 0.8363(3)
O14_3 O 0.7818(14) 0.4399(8) 0.8095(2)
H39_3 H 0.840358 0.282924 0.847792
H40_3 H 0.777946 0.231213 0.830752
H41_3 H 0.873335 0.566522 0.726079
H42_3 H 0.826798 0.587001 0.741659
C1_4 C 0.5776(10) 0.2451(8) 0.0900(4)
C15_4 C 0.5428(9) 0.5706(7) 0.0260(2)
C16_4 C 0.4879(7) 0.5611(6) 0.0395(3)
C17_4 C 0.4865(7) 0.6127(9) 0.0516(2)
H7_4 H 0.4497 0.6063 0.0607
C18_4 C 0.5400(9) 0.6737(7) 0.0502(2)
C19_4 C 0.5949(7) 0.6833(6) 0.0367(3)
H8_4 H 0.6307 0.7241 0.0358
C20_4 C 0.5963(7) 0.6317(9) 0.0246(2)
C21_4 C 0.5645(6) 0.2865(5) 0.0696(2)
C22_4 C 0.6078(5) 0.3148(6) 0.0482(2)
H9_4 H 0.6405 0.3054 0.0456
C23_4 C 0.6023(5) 0.3573(6) 0.03066(19)
H10_4 H 0.6313 0.3762 0.0164
C24_4 C 0.5535(6) 0.3714(5) 0.03449(19)
C25_4 C 0.5101(5) 0.3431(6) 0.0559(2)
H11_4 H 0.4775 0.3526 0.0584
C26_4 C 0.5156(5) 0.3006(6) 0.07342(19)
H12_4 H 0.4867 0.2817 0.0877
C28_4 C 0.4313(11) 0.4989(11) 0.0427(4)
H16_4 H 0.4073 0.4871 0.0259
H17_4 H 0.4053 0.5005 0.0572
H18_4 H 0.4438 0.4678 0.0470
C30_4 C 0.5498(5) 0.4694(6) 0.02802(13)
H20_4 H 0.5521 0.4734 0.0470
C31_4 C 0.5502(5) 0.4177(5) 0.01561(18)
C35_4 C 0.5461(6) 0.5153(5) 0.0121(2)
C40_4 C 0.6618(13) 0.6448(13) 0.0095(5)
H31_4 H 0.6727 0.6134 0.0153
H32_4 H 0.6960 0.6869 0.0142
C41_4 C 0.5408(14) 0.7280(12) 0.0648(4)
H34_4 H 0.5007 0.7266 0.0620
H35_4 H 0.5751 0.7676 0.0578
H36_4 H 0.5472 0.7248 0.0840
H39_4 H 0.282924 0.442565 0.0144591
P1_4 P 0.4637(3) 0.5282(3) 0.95499(8)
O1_4 O 0.4730(6) 0.5787(6) 0.93401(18)
O2_4 O 0.5335(6) 0.5524(6) 0.96743(18)
O3_4 O 0.4101(6) 0.5116(6) 0.97601(16)
O5_4 O 0.4434(5) 0.4611(6) 0.94101(19)
O6_4 O 0.2694(8) 0.4479(7) 0.9959(3)
C2_4 C 0.4332(6) 0.4552(8) 0.8828(2)
C3_4 C 0.3737(8) 0.3999(6) 0.8804(2)
C4_4 C 0.3241(6) 0.4018(6) 0.8666(2)
H1_4 H 0.2843 0.3648 0.8650
C5_4 C 0.3341(6) 0.4590(8) 0.85523(19)
C6_4 C 0.3936(7) 0.5143(6) 0.8576(2)
H2_4 H 0.4003 0.5526 0.8500
C7_4 C 0.4432(5) 0.5124(6) 0.8714(2)
C8_4 C 0.5092(9) 0.5721(8) 0.8700(3)
H3_4 H 0.5182 0.5950 0.8871
H4_4 H 0.5102 0.5992 0.8554
H5_4 H 0.5409 0.5598 0.8668
C9_4 C 0.5393(6) 0.4534(6) 0.93993(13)
C10_4 C 0.5858(5) 0.4476(6) 0.92539(19)
C11_4 C 0.5835(5) 0.4450(5) 0.89696(18)
C12_4 C 0.5348(6) 0.4482(5) 0.88307(13)
H6_4 H 0.5333 0.4464 0.8640
C13_4 C 0.4883(5) 0.4540(6) 0.89761(19)
C14_4 C 0.4906(5) 0.4566(6) 0.92604(19)
C27_4 C 0.5326(8) 0.3470(8) 0.9743(3)
H13_4 H 0.5698 0.3423 0.9760
H14_4 H 0.5222 0.3464 0.9553
H15_4 H 0.4971 0.3123 0.9836
C29_4 C 0.6848(8) 0.3789(10) 0.8700(4)
H19_4 H 0.6946 0.3478 0.8754
C32_4 C 0.5468(6) 0.4117(5) 0.98727(19)
C33_4 C 0.5431(6) 0.4576(6) 0.97133(13)
C34_4 C 0.5427(6) 0.5094(5) 0.98374(19)
C36_4 C 0.6593(8) 0.4730(9) 0.8584(3)
H21_4 H 0.6516 0.5063 0.8545
C37_4 C 0.6529(8) 0.4612(8) 0.9390(3)
H22_4 H 0.6879 0.4902 0.9276
H23_4 H 0.6530 0.4215 0.9407
H24_4 H 0.6574 0.4799 0.9568
C38_4 C 0.3574(11) 0.3356(10) 0.8921(5)
H25_4 H 0.3947 0.3387 0.9008
H26_4 H 0.3435 0.3044 0.8776
H27_4 H 0.3237 0.3226 0.9053
C39_4 C 0.2730(10) 0.4602(12) 0.8397(4)
H28_3 H 0.2493 0.4217 0.8291
H29_3 H 0.2892 0.4968 0.8278
H30_4 H 0.2454 0.4627 0.8532
H33_4 H 0.6555 0.6420 0.9900
C42_4 C 0.7029(9) 0.4647(10) 0.8411(3)
H37_4 H 0.7247 0.4921 0.8266
C43_4 C 0.7097(8) 0.4134(10) 0.8475(4)
C44_4 C 0.6429(9) 0.3914(10) 0.8854(4)
H38_4 H 0.6244 0.3655 0.9007
C45_4 C 0.6276(9) 0.4334(10) 0.8810(3)
C46_4 C 0.7522(10) 0.3982(14) 0.8274(5)
O10_4 O 0.5729(10) 0.7141(7) 0.9109(4)
H40_4 H 0.231213 0.453267 0.997419
H41_4 H 0.566522 0.693188 0.892745
H42_4 H 0.587001 0.760203 0.908325
C1_5 C 0.7549(8) 0.3325(13) 0.7567(4)
C9_5 C 0.5466(6) 0.0859(8) 0.60660(13)
C10_5 C 0.5524(6) 0.1382(8) 0.59206(19)
C11_5 C 0.5550(5) 0.1385(7) 0.56363(18)
C12_5 C 0.5518(5) 0.0866(8) 0.54974(13)
H6_5 H 0.5536 0.0869 0.5307
C13_5 C 0.5460(6) 0.0343(8) 0.56428(19)
C14_5 C 0.5434(6) 0.0340(8) 0.59271(19)
C21_5 C 0.7135(5) 0.2780(8) 0.7363(2)
C22_5 C 0.6852(6) 0.2930(8) 0.7149(2)
H9_5 H 0.6946 0.3351 0.7123
C23_5 C 0.6427(6) 0.2450(8) 0.69733(19)
H10_5 H 0.6238 0.2551 0.6831
C24_5 C 0.6286(5) 0.1821(8) 0.70116(19)
C25_5 C 0.6569(6) 0.1670(8) 0.7226(2)
H11_5 H 0.6474 0.1249 0.7251
C26_5 C 0.6994(6) 0.2150(8) 0.74009(19)
H12_5 H 0.7183 0.2050 0.7544
C27_5 C 0.6530(8) 0.1856(11) 0.6410(3)
H13_5 H 0.6577 0.2275 0.6427
H14_5 H 0.6536 0.1758 0.6220
H15_5 H 0.6877 0.1848 0.6503
C29_5 C 0.6211(10) 0.3059(13) 0.5367(4)
H19_5 H 0.6522 0.3468 0.5421
C30_5 C 0.5306(6) 0.0804(8) 0.69469(13)
H20_5 H 0.5266 0.0787 0.7137
C31_5 C 0.5823(5) 0.1325(7) 0.68228(18)
C32_5 C 0.5883(5) 0.1351(8) 0.65394(19)
C33_5 C 0.5424(6) 0.0855(8) 0.63800(13)
C34_5 C 0.4906(5) 0.0333(8) 0.65041(19)
C35_5 C 0.4847(5) 0.0308(8) 0.6788(2)
C36_5 C 0.5270(9) 0.1863(12) 0.5251(3)
H21_5 H 0.4937 0.1453 0.5212
C37_5 C 0.5388(8) 0.1917(11) 0.6057(3)
H22_5 H 0.5098 0.1977 0.5943
H23_5 H 0.5785 0.2315 0.6074
H24_5 H 0.5201 0.1775 0.6235
C38_5 C 0.6644(10) 0.0218(15) 0.5588(5)
H25_5 H 0.6613 0.0560 0.5675
H26_5 H 0.6956 0.0391 0.5443
H27_5 H 0.6774 0.0011 0.5720
C40_5 C 0.3552(13) 0.0170(18) 0.6762(5)
H31_5 H 0.3866 0.0593 0.6820
H32_5 H 0.3131 0.0091 0.6809
H33_5 H 0.3580 0.0135 0.6567
C42_5 C 0.5353(10) 0.2382(13) 0.5078(3)
H37_5 H 0.5079 0.2326 0.4933
C43_5 C 0.5866(10) 0.2963(13) 0.5142(4)
C44_5 C 0.6086(10) 0.2515(13) 0.5521(4)
H38_5 H 0.6345 0.2589 0.5674
C45_5 C 0.5666(10) 0.1942(13) 0.5477(3)
C46_5 C 0.6018(14) 0.3540(17) 0.4941(5)
P1_5 P 0.4718(3) 0.9355(4) 0.62166(8)
O1_5 O 0.4213(6) 0.8943(8) 0.60068(18)
O2_5 O 0.4476(6) 0.9811(8) 0.63410(18)
O3_5 O 0.4884(6) 0.8985(8) 0.64268(16)
O5_5 O 0.5389(6) 0.9823(8) 0.60768(19)
O6_5 O 0.5521(7) 0.8215(11) 0.6626(3)
C2_5 C 0.5448(8) 0.9780(10) 0.5495(2)
C3_5 C 0.6001(6) 0.9738(10) 0.5471(2)
C4_5 C 0.5982(6) 0.9223(8) 0.5333(2)
H1_5 H 0.6352 0.9195 0.5317
C5_5 C 0.5410(8) 0.8751(10) 0.52190(19)
C6_5 C 0.4857(6) 0.8793(9) 0.5243(2)
H2_5 H 0.4474 0.8477 0.5167
C7_5 C 0.4876(6) 0.9308(8) 0.5381(2)
C8_5 C 0.4279(8) 0.9371(12) 0.5367(3)
H3_5 H 0.4050 0.9232 0.5538
H4_5 H 0.4008 0.9110 0.5221
H5_5 H 0.4402 0.9811 0.5335
C15_5 C 0.4294(7) 0.9722(11) 0.6927(2)
C16_5 C 0.4389(6) 0.9268(9) 0.7062(3)
C17_5 C 0.3873(9) 0.8738(11) 0.7183(2)
H7_5 H 0.3937 0.8434 0.7274
C18_5 C 0.3263(7) 0.8663(11) 0.7169(2)
C19_5 C 0.3167(6) 0.9116(9) 0.7034(3)
H8_5 H 0.2759 0.9066 0.7025
C20_5 C 0.3683(9) 0.9646(11) 0.6913(2)
C28_5 C 0.5011(11) 0.9324(16) 0.7094(4)
H16_5 H 0.5129 0.9202 0.6926
H17_5 H 0.4995 0.9048 0.7239
H18_5 H 0.5322 0.9760 0.7137
C39_5 C 0.5398(12) 0.8128(16) 0.5064(4)
H28_4 H 0.5783 0.8276 0.4958
H29_4 H 0.5032 0.7924 0.4945
H30_5 H 0.5373 0.7827 0.5199
C41_5 C 0.2720(12) 0.8128(18) 0.7315(4)
H34_5 H 0.2734 0.7741 0.7287
H35_5 H 0.2324 0.8075 0.7245
H36_5 H 0.2752 0.8224 0.7507
O10_5 O 0.2859(7) 0.8588(12) 0.5776(4)
H39_5 H 0.557435 0.840358 0.681126
H40_5 H 0.546733 0.777946 0.664085
H41_5 H 0.306812 0.873335 0.559412
H42_5 H 0.239797 0.826798 0.574992
P1_6 P 0.0645(4) 0.5363(3) 0.28832(8)
O1_6 O 0.1057(8) 0.5270(6) 0.26734(18)
O2_6 O 0.0189(8) 0.4665(6) 0.30076(18)
O3_6 O 0.1015(8) 0.5899(6) 0.30934(16)
O5_6 O 0.0177(8) 0.5566(5) 0.27434(19)
O6_6 O 0.1785(11) 0.7306(8) 0.3292(3)
C2_6 C 0.0220(10) 0.5668(6) 0.2161(2)
C3_6 C 0.0262(10) 0.6263(8) 0.2137(2)
C4_6 C 0.0777(8) 0.6759(6) 0.1999(2)
H1_6 H 0.0805 0.7157 0.1983
C5_6 C 0.1249(10) 0.6659(6) 0.18856(19)
C6_6 C 0.1207(9) 0.6064(7) 0.1909(2)
H2_6 H 0.1523 0.5997 0.1833
C7_6 C 0.0692(8) 0.5568(5) 0.2047(2)
C8_6 C 0.0629(12) 0.4908(9) 0.2033(3)
H3_6 H 0.0768 0.4818 0.2204
H4_6 H 0.0890 0.4898 0.1887
H5_6 H 0.0189 0.4591 0.2001
C15_6 C 0.0278(11) 0.4572(9) 0.3593(2)
C16_6 C 0.0732(9) 0.5121(7) 0.3728(3)
C17_6 C 0.1262(11) 0.5135(7) 0.3849(2)
H7_6 H 0.1566 0.5503 0.3940
C18_6 C 0.1337(11) 0.4600(9) 0.3835(2)
C19_6 C 0.0884(9) 0.4051(7) 0.3700(3)
H8_6 H 0.0934 0.3693 0.3691
C20_6 C 0.0354(11) 0.4037(7) 0.3579(2)
C28_6 C 0.0676(16) 0.5687(11) 0.3760(4)
H16_6 H 0.0798 0.5927 0.3592
H17_6 H 0.0952 0.5947 0.3905
H18_6 H 0.0240 0.5562 0.3803
C39_6 C 0.1872(16) 0.7270(10) 0.1730(4)
H28_5 H 0.1724 0.7507 0.1624
H29_5 H 0.2076 0.7108 0.1611
H30_6 H 0.2173 0.7546 0.1865
C41_6 C 0.1872(18) 0.4592(14) 0.3981(4)
H34_6 H 0.2259 0.4993 0.3953
H35_6 H 0.1925 0.4249 0.3911
H36_6 H 0.1776 0.4528 0.4173
O10_6 O 0.1412(12) 0.4271(10) 0.2442(4)
H39_6 H 0.159642 0.717076 0.347792
H40_6 H 0.222054 0.768787 0.330752
H41_6 H 0.126665 0.433478 0.226079
H42_6 H 0.173202 0.412999 0.241659
C1_6 C 0.6675(13) 0.4224(10) 0.4233(4)
C9_6 C 0.9141(8) 0.4607(6) 0.27326(13)
C10_6 C 0.8618(8) 0.4142(5) 0.25872(19)
C11_6 C 0.8615(7) 0.4165(5) 0.23029(18)
C12_6 C 0.9134(8) 0.4652(6) 0.21640(13)
H6_6 H 0.9131 0.4667 0.1973
C13_6 C 0.9657(8) 0.5117(5) 0.23094(19)
C14_6 C 0.9660(8) 0.5094(5) 0.25937(19)
C21_6 C 0.7220(8) 0.4355(6) 0.4029(2)
C22_6 C 0.7070(8) 0.3922(5) 0.3815(2)
H9_6 H 0.6649 0.3595 0.3789
C23_6 C 0.7550(8) 0.3977(5) 0.36399(19)
H10_6 H 0.7449 0.3687 0.3497
C24_6 C 0.8179(8) 0.4465(6) 0.36782(19)
C25_6 C 0.8330(8) 0.4899(5) 0.3892(2)
H11_6 H 0.8751 0.5225 0.3917
C26_6 C 0.7850(8) 0.4844(5) 0.40675(19)
H12_6 H 0.7950 0.5133 0.4210
C27_6 C 0.8144(11) 0.4674(8) 0.3076(3)
H13_6 H 0.7725 0.4302 0.3093
H14_6 H 0.8242 0.4778 0.2886
H15_6 H 0.8152 0.5029 0.3169
C29_6 C 0.6941(13) 0.3152(8) 0.2033(4)
H19_6 H 0.6532 0.3054 0.2087
C30_6 C 0.9196(8) 0.4502(5) 0.36135(13)
H20_6 H 0.9213 0.4479 0.3803
C31_6 C 0.8675(7) 0.4498(5) 0.34894(18)
C32_6 C 0.8649(8) 0.4532(6) 0.32060(19)
C33_6 C 0.9145(8) 0.4569(6) 0.30466(13)
C34_6 C 0.9667(8) 0.4573(6) 0.31707(19)
C35_6 C 0.9692(8) 0.4539(6) 0.3454(2)
C36_6 C 0.8137(12) 0.3407(8) 0.1917(3)
H21_6 H 0.8547 0.3484 0.1878
C37_6 C 0.8083(11) 0.3471(8) 0.2723(3)
H22_6 H 0.8023 0.3121 0.2609
H23_6 H 0.7685 0.3470 0.2740
H24_6 H 0.8225 0.3426 0.2901
C38_6 C 0.9782(15) 0.6426(11) 0.2254(5)
H25_6 H 0.9440 0.6053 0.2341
H26_6 H 0.9609 0.6565 0.2109
H27_6 H 0.9989 0.6763 0.2386
C40_6 C 0.9830(18) 0.3382(13) 0.3428(5)
H31_6 H 0.9407 0.3273 0.3486
H32_6 H 0.9909 0.3040 0.3475
H33_6 H 0.9865 0.3445 0.3233
C42_6 C 0.7618(13) 0.2971(9) 0.1744(3)
H37_6 H 0.7674 0.2753 0.1599
C43_6 C 0.7037(13) 0.2903(8) 0.1808(4)
C44_6 C 0.7485(13) 0.3571(9) 0.2187(4)
H38_6 H 0.7411 0.3756 0.2340
C45_6 C 0.8058(13) 0.3724(9) 0.2143(3)
C46_6 C 0.6460(17) 0.2478(10) 0.1607(5)
H28_6 H 0.4217 0.1724 0.9958
H29_6 H 0.4968 0.2076 0.9945
Zn1_4 Zn 0.33774(18) 0.52776(18) 0.23033(5)
P1_7 P 0.4718(3) 0.5363(3) 0.21168(8)
O1_7 O 0.4213(6) 0.5270(6) 0.23266(18)
O2_7 O 0.4476(6) 0.4665(6) 0.19924(18)
O3_7 O 0.4884(6) 0.5899(6) 0.19066(16)
O4_4 O 0.7620(6) 0.3766(6) 0.0785(3)
O5_7 O 0.5389(6) 0.5566(5) 0.22566(19)
O6_7 O 0.5521(7) 0.7306(8) 0.1708(3)
O7_4 O 0.7715(6) 0.4673(6) 0.0567(2)
C1_7 C 0.7549(8) 0.4224(10) 0.0767(4)
C2_7 C 0.5448(8) 0.5668(6) 0.2839(2)
C3_7 C 0.6001(6) 0.6263(8) 0.2863(2)
C4_7 C 0.5982(6) 0.6759(6) 0.3001(2)
H1_7 H 0.6352 0.7157 0.3017
C5_7 C 0.5410(8) 0.6659(6) 0.31144(19)
C6_7 C 0.4857(6) 0.6064(7) 0.3091(2)
H2_7 H 0.4474 0.5997 0.3167
C7_7 C 0.4876(6) 0.5568(5) 0.2953(2)
C8_7 C 0.4279(8) 0.4908(9) 0.2967(3)
H3_7 H 0.4050 0.4818 0.2796
H4_7 H 0.4008 0.4898 0.3113
H5_7 H 0.4402 0.4591 0.2999
C9_7 C 0.5466(6) 0.4607(6) 0.22674(13)
C10_7 C 0.5524(6) 0.4142(5) 0.24128(19)
C11_7 C 0.5550(5) 0.4165(5) 0.26971(18)
C12_7 C 0.5518(5) 0.4652(6) 0.28360(13)
H6_7 H 0.5536 0.4667 0.3027
C13_7 C 0.5460(6) 0.5117(5) 0.26906(19)
C14_7 C 0.5434(6) 0.5094(5) 0.24063(19)
C15_7 C 0.4294(7) 0.4572(9) 0.1407(2)
C16_7 C 0.4389(6) 0.5121(7) 0.1272(3)
C17_7 C 0.3873(9) 0.5135(7) 0.1151(2)
H7_7 H 0.3937 0.5503 0.1060
C18_7 C 0.3263(7) 0.4600(9) 0.1165(2)
C19_7 C 0.3167(6) 0.4051(7) 0.1300(3)
H8_7 H 0.2759 0.3693 0.1309
C20_7 C 0.3683(9) 0.4037(7) 0.1421(2)
C21_7 C 0.7135(5) 0.4355(6) 0.0971(2)
C22_7 C 0.6852(6) 0.3922(5) 0.1185(2)
H9_7 H 0.6946 0.3595 0.1211
C23_7 C 0.6427(6) 0.3977(5) 0.13601(19)
H10_7 H 0.6238 0.3687 0.1503
C24_7 C 0.6286(5) 0.4465(6) 0.13218(19)
C25_7 C 0.6569(6) 0.4899(5) 0.1108(2)
H11_7 H 0.6474 0.5225 0.1083
C26_7 C 0.6994(6) 0.4844(5) 0.09325(19)
H12_7 H 0.7183 0.5133 0.0790
C27_7 C 0.6530(8) 0.4674(8) 0.1924(3)
H13_7 H 0.6577 0.4302 0.1907
H14_7 H 0.6536 0.4778 0.2114
H15_7 H 0.6877 0.5029 0.1831
C28_7 C 0.5011(11) 0.5687(11) 0.1240(4)
H16_7 H 0.5129 0.5927 0.1408
H17_7 H 0.4995 0.5947 0.1095
H18_7 H 0.5322 0.5562 0.1197
C29_7 C 0.6211(10) 0.3152(8) 0.2967(4)
H19_7 H 0.6522 0.3054 0.2913
C30_7 C 0.5306(6) 0.4502(5) 0.13865(13)
H20_7 H 0.5266 0.4479 0.1197
C31_7 C 0.5823(5) 0.4498(5) 0.15106(18)
C32_7 C 0.5883(5) 0.4532(6) 0.17940(19)
C33_7 C 0.5424(6) 0.4569(6) 0.19534(13)
C34_7 C 0.4906(5) 0.4573(6) 0.18293(19)
C35_7 C 0.4847(5) 0.4539(6) 0.1546(2)
C36_7 C 0.5270(9) 0.3407(8) 0.3083(3)
H21_7 H 0.4937 0.3484 0.3122
C37_7 C 0.5388(8) 0.3471(8) 0.2277(3)
H22_7 H 0.5098 0.3121 0.2391
H23_7 H 0.5785 0.3470 0.2260
H24_7 H 0.5201 0.3426 0.2099
C38_7 C 0.6644(10) 0.6426(11) 0.2746(5)
H25_7 H 0.6613 0.6053 0.2659
H26_7 H 0.6956 0.6565 0.2891
H27_7 H 0.6774 0.6763 0.2614
C39_7 C 0.5398(12) 0.7270(10) 0.3270(4)
H28_7 H 0.5783 0.7507 0.3376
H29_7 H 0.5032 0.7108 0.3389
H30_7 H 0.5373 0.7546 0.3135
C40_7 C 0.3552(13) 0.3382(13) 0.1572(5)
H31_7 H 0.3866 0.3273 0.1514
H32_7 H 0.3131 0.3040 0.1525
H33_7 H 0.3580 0.3445 0.1767
C41_7 C 0.2720(12) 0.4592(14) 0.1019(4)
H34_7 H 0.2734 0.4993 0.1047
H35_7 H 0.2324 0.4249 0.1089
H36_7 H 0.2752 0.4528 0.0827
Zn2_4 Zn 0.47165(11) 0.65629(12) 0.18929(4)
C42_7 C 0.5353(10) 0.2971(9) 0.3256(3)
H37_7 H 0.5079 0.2753 0.3401
C43_7 C 0.5866(10) 0.2903(8) 0.3192(4)
C44_7 C 0.6086(10) 0.3571(9) 0.2813(4)
H38_7 H 0.6345 0.3756 0.2660
C45_7 C 0.5666(10) 0.3724(9) 0.2857(3)
O8_4 O 0.6466(7) 0.2375(6) 0.3304(3)
O9_4 O 0.5601(8) 0.2182(7) 0.3572(2)
C46_7 C 0.6018(14) 0.2478(10) 0.3393(5)
O10_7 O 0.2859(7) 0.4271(10) 0.2558(4)
Zn3_2 Zn 0.80998(25) 0.33774(18) 0.06366(5)
Zn4_3 Zn 0.52776(18) 0.19002(25) 0.39699(5)
O11_4 O 0.3766(6) 0.6146(8) 0.2451(3)
O12_4 O 0.4673(6) 0.6958(8) 0.2233(2)
Zn5_2 Zn 0.81536(16) 0.47165(11) 0.02262(4)
Zn6_3 Zn 0.65629(12) 0.18464(16) 0.35595(4)
O13_4 O 0.4091(9) 0.6466(7) 0.1637(3)
O14_4 O 0.3419(11) 0.5601(8) 0.1905(2)
H39_7 H 0.557435 0.717076 0.152208
H40_7 H 0.546733 0.768787 0.169248
H41_7 H 0.306812 0.433478 0.273921
H42_7 H 0.239797 0.412999 0.258341
Zn1_5 Zn 0.19002(25) 0.66226(18) 0.56366(5)
P1_8 P 0.0645(4) 0.5282(3) 0.54501(8)
O1_8 O 0.1057(8) 0.5787(6) 0.56599(18)
O2_8 O 0.0189(8) 0.5524(6) 0.53257(18)
O3_8 O 0.1015(8) 0.5116(6) 0.52399(16)
O5_8 O 0.0177(8) 0.4611(6) 0.55899(19)
O6_8 O 0.1785(11) 0.4479(7) 0.5041(3)
C2_8 C 0.0220(10) 0.4552(8) 0.6172(2)
C3_8 C 0.0262(10) 0.3999(6) 0.6196(2)
C4_8 C 0.0777(8) 0.4018(6) 0.6334(2)
H1_8 H 0.0805 0.3648 0.6350
C5_8 C 0.1249(10) 0.4590(8) 0.64477(19)
C6_8 C 0.1207(9) 0.5143(6) 0.6424(2)
H2_8 H 0.1523 0.5526 0.6500
C7_8 C 0.0692(8) 0.5124(6) 0.6286(2)
C8_8 C 0.0629(12) 0.5721(8) 0.6300(3)
H3_8 H 0.0768 0.5950 0.6129
H4_8 H 0.0890 0.5992 0.6446
H5_8 H 0.0189 0.5598 0.6332
C15_8 C 0.0278(11) 0.5706(7) 0.4740(2)
C16_8 C 0.0732(9) 0.5611(6) 0.4605(3)
C17_8 C 0.1262(11) 0.6127(9) 0.4484(2)
H7_8 H 0.1566 0.6063 0.4393
C18_8 C 0.1337(11) 0.6737(7) 0.4498(2)
C19_8 C 0.0884(9) 0.6833(6) 0.4633(3)
H8_8 H 0.0934 0.7241 0.4642
C20_8 C 0.0354(11) 0.6317(9) 0.4754(2)
C28_8 C 0.0676(16) 0.4989(11) 0.4573(4)
H16_8 H 0.0798 0.4871 0.4741
H17_8 H 0.0952 0.5005 0.4428
H18_8 H 0.0240 0.4678 0.4530
C39_8 C 0.1872(16) 0.4602(12) 0.6603(4)
H28_8 H 0.1724 0.4217 0.6709
H29_8 H 0.2076 0.4968 0.6722
H30_8 H 0.2173 0.4627 0.6468
C41_8 C 0.1872(18) 0.7280(12) 0.4352(4)
H34_8 H 0.2259 0.7266 0.4380
H35_8 H 0.1925 0.7676 0.4422
H36_8 H 0.1776 0.7248 0.4160
Zn2_5 Zn 0.18464(16) 0.52835(11) 0.52262(4)
O10_8 O 0.1412(12) 0.7141(7) 0.5891(4)
O11_5 O 0.2380(10) 0.6234(6) 0.5785(3)
O12_5 O 0.2285(10) 0.5327(6) 0.5567(2)
O13_5 O 0.2375(11) 0.5909(9) 0.4970(3)
O14_5 O 0.2182(14) 0.6581(11) 0.5238(2)
H39_8 H 0.159642 0.442565 0.485541
H40_8 H 0.222054 0.453267 0.502581
H41_8 H 0.126665 0.693188 0.607255
H42_8 H 0.173202 0.760203 0.591675
O4_5 O 0.6146(8) 0.2380(6) 0.4118(3)
O7_5 O 0.6958(8) 0.2285(6) 0.3900(2)
C1_8 C 0.6675(13) 0.2451(8) 0.4100(4)
C9_8 C 0.9141(8) 0.4534(6) 0.56007(13)
C10_8 C 0.8618(8) 0.4476(6) 0.57461(19)
C11_8 C 0.8615(7) 0.4450(5) 0.60304(18)
C12_8 C 0.9134(8) 0.4482(5) 0.61693(13)
H6_8 H 0.9131 0.4464 0.6360
C13_8 C 0.9657(8) 0.4540(6) 0.60239(19)
C14_8 C 0.9660(8) 0.4566(6) 0.57396(19)
C21_8 C 0.7220(8) 0.2865(5) 0.4304(2)
C22_8 C 0.7070(8) 0.3148(6) 0.4518(2)
H9_8 H 0.6649 0.3054 0.4544
C23_8 C 0.7550(8) 0.3573(6) 0.46934(19)
H10_8 H 0.7449 0.3762 0.4836
C24_8 C 0.8179(8) 0.3714(5) 0.46551(19)
C25_8 C 0.8330(8) 0.3431(6) 0.4441(2)
H11_8 H 0.8751 0.3526 0.4416
C26_8 C 0.7850(8) 0.3006(6) 0.42658(19)
H12_8 H 0.7950 0.2817 0.4123
C27_8 C 0.8144(11) 0.3470(8) 0.5257(3)
H13_8 H 0.7725 0.3423 0.5240
H14_8 H 0.8242 0.3464 0.5447
H15_8 H 0.8152 0.3123 0.5164
C29_8 C 0.6941(13) 0.3789(10) 0.6300(4)
H19_8 H 0.6532 0.3478 0.6246
C30_8 C 0.9196(8) 0.4694(6) 0.47198(13)
H20_8 H 0.9213 0.4734 0.4530
C31_8 C 0.8675(7) 0.4177(5) 0.48439(18)
C32_8 C 0.8649(8) 0.4117(5) 0.51273(19)
C33_8 C 0.9145(8) 0.4576(6) 0.52867(13)
C34_8 C 0.9667(8) 0.5094(5) 0.51626(19)
C35_8 C 0.9692(8) 0.5153(5) 0.4879(2)
C36_8 C 0.8137(12) 0.4730(9) 0.6416(3)
H21_8 H 0.8547 0.5063 0.6455
C37_8 C 0.8083(11) 0.4612(8) 0.5610(3)
H22_8 H 0.8023 0.4902 0.5724
H23_8 H 0.7685 0.4215 0.5593
H24_8 H 0.8225 0.4799 0.5432
C38_8 C 0.9782(15) 0.3356(10) 0.6079(5)
H25_8 H 0.9440 0.3387 0.5992
H26_8 H 0.9609 0.3044 0.6224
H27_8 H 0.9989 0.3226 0.5947
C40_8 C 0.9830(18) 0.6448(13) 0.4905(5)
H31_8 H 0.9407 0.6134 0.4847
H32_8 H 0.9909 0.6869 0.4858
H33_8 H 0.9865 0.6420 0.5100
C42_8 C 0.7618(13) 0.4647(10) 0.6589(3)
H37_8 H 0.7674 0.4921 0.6734
C43_8 C 0.7037(13) 0.4134(10) 0.6525(4)
C44_8 C 0.7485(13) 0.3914(10) 0.6146(4)
H38_8 H 0.7411 0.3655 0.5993
C45_8 C 0.8058(13) 0.4334(10) 0.6190(3)
O8_5 O 0.5909(9) 0.3534(7) 0.6637(3)
O9_5 O 0.6581(11) 0.4399(8) 0.6905(2)
C46_8 C 0.6460(17) 0.3982(14) 0.6726(5)
Zn4_4 Zn 0.66226(31) 0.47224(18) 0.73033(5)
Zn6_4 Zn 0.52835(20) 0.34371(12) 0.68929(4)
H37_9 H 0.7247 0.2326 0.0067
O9_6 O 0.7818(7) 0.3419(11) 0.0238(2)
C46_9 C 0.7522(10) 0.3540(17) 0.0059(5)
O4_6 O 0.6234(6) 0.3854(8) 0.7451(3)
O7_6 O 0.5327(6) 0.3042(8) 0.7233(2)
C1_9 C 0.5776(10) 0.3325(13) 0.7433(4)
C9_9 C 0.5393(6) 0.0859(8) 0.89340(13)
C10_9 C 0.5858(5) 0.1382(8) 0.90794(19)
C11_9 C 0.5835(5) 0.1385(7) 0.93637(18)
C12_9 C 0.5348(6) 0.0866(8) 0.95026(13)
H6_9 H 0.5333 0.0869 0.9693
C13_9 C 0.4883(5) 0.0343(8) 0.93572(19)
C14_9 C 0.4906(5) 0.0340(8) 0.90729(19)
C21_9 C 0.5645(6) 0.2780(8) 0.7637(2)
C22_9 C 0.6078(5) 0.2930(8) 0.7851(2)
H9_9 H 0.6405 0.3351 0.7877
C23_9 C 0.6023(5) 0.2450(8) 0.80267(19)
H10_9 H 0.6313 0.2551 0.8169
C24_9 C 0.5535(6) 0.1821(8) 0.79884(19)
C25_9 C 0.5101(5) 0.1670(8) 0.7774(2)
H11_9 H 0.4775 0.1249 0.7749
C26_9 C 0.5156(5) 0.2150(8) 0.75991(19)
H12_9 H 0.4867 0.2050 0.7456
C27_9 C 0.5326(8) 0.1856(11) 0.8590(3)
H13_9 H 0.5698 0.2275 0.8573
H14_9 H 0.5222 0.1758 0.8780
H15_9 H 0.4971 0.1848 0.8497
C29_9 C 0.6848(8) 0.3059(13) 0.9633(4)
H19_9 H 0.6946 0.3468 0.9579
C30_9 C 0.5498(5) 0.0804(8) 0.80531(13)
H20_9 H 0.5521 0.0787 0.7863
C31_9 C 0.5502(5) 0.1325(7) 0.81772(18)
C32_9 C 0.5468(6) 0.1351(8) 0.84606(19)
C33_9 C 0.5431(6) 0.0855(8) 0.86200(13)
C34_9 C 0.5427(6) 0.0333(8) 0.84959(19)
C35_9 C 0.5461(6) 0.0308(8) 0.8212(2)
C36_9 C 0.6593(8) 0.1863(12) 0.9749(3)
H21_9 H 0.6516 0.1453 0.9788
C37_9 C 0.6529(8) 0.1917(11) 0.8943(3)
H22_9 H 0.6879 0.1977 0.9057
H23_9 H 0.6530 0.2315 0.8926
H24_9 H 0.6574 0.1775 0.8765
C38_9 C 0.3574(11) 0.0218(15) 0.9412(5)
H25_9 H 0.3947 0.0560 0.9325
H26_9 H 0.3435 0.0391 0.9557
H27_9 H 0.3237 0.0011 0.9280
C40_9 C 0.6618(13) 0.0170(18) 0.8238(5)
H31_9 H 0.6727 0.0593 0.8180
H32_9 H 0.6960 0.0091 0.8191
H33_9 H 0.6555 0.0135 0.8433
C42_9 C 0.7029(9) 0.2382(13) 0.9922(3)
C43_9 C 0.7097(8) 0.2963(13) 0.9858(4)
C44_9 C 0.6429(9) 0.2515(13) 0.9479(4)
H38_9 H 0.6244 0.2589 0.9326
C45_9 C 0.6276(9) 0.1942(13) 0.9523(3)
O8_6 O 0.7625(6) 0.4091(9) 0.9970(3)
Zn1_6 Zn 0.47224(18) 0.80998(25) 0.89699(5)
P1_9 P 0.4637(3) 0.9355(4) 0.87834(8)
O1_9 O 0.4730(6) 0.8943(8) 0.89932(18)
O2_9 O 0.5335(6) 0.9811(8) 0.86590(18)
O3_9 O 0.4101(6) 0.8985(8) 0.85732(16)
O5_9 O 0.4434(5) 0.9823(8) 0.89232(19)
O6_9 O 0.2694(8) 0.8215(11) 0.8374(3)
C2_9 C 0.4332(6) 0.9780(10) 0.9505(2)
C3_9 C 0.3737(8) 0.9738(10) 0.9529(2)
C4_9 C 0.3241(6) 0.9223(8) 0.9667(2)
H1_9 H 0.2843 0.9195 0.9683
C5_9 C 0.3341(6) 0.8751(10) 0.97810(19)
C6_9 C 0.3936(7) 0.8793(9) 0.9757(2)
H2_9 H 0.4003 0.8477 0.9833
C7_9 C 0.4432(5) 0.9308(8) 0.9619(2)
C8_9 C 0.5092(9) 0.9371(12) 0.9633(3)
H3_9 H 0.5182 0.9232 0.9462
H4_9 H 0.5102 0.9110 0.9779
H5_9 H 0.5409 0.9811 0.9665
C15_9 C 0.5428(9) 0.9722(11) 0.8073(2)
C16_9 C 0.4879(7) 0.9268(9) 0.7938(3)
C17_9 C 0.4865(7) 0.8738(11) 0.7817(2)
H7_9 H 0.4497 0.8434 0.7726
C18_9 C 0.5400(9) 0.8663(11) 0.7831(2)
C19_9 C 0.5949(7) 0.9116(9) 0.7966(3)
H8_9 H 0.6307 0.9066 0.7975
C20_9 C 0.5963(7) 0.9646(11) 0.8087(2)
C28_9 C 0.4313(11) 0.9324(16) 0.7906(4)
H16_9 H 0.4073 0.9202 0.8074
H17_9 H 0.4053 0.9048 0.7761
H18_9 H 0.4438 0.9760 0.7863
C39_9 C 0.2730(10) 0.8128(16) 0.9936(4)
H30_9 H 0.2454 0.7827 0.9801
C41_9 C 0.5408(14) 0.8128(18) 0.7685(4)
H34_9 H 0.5007 0.7741 0.7713
H35_9 H 0.5751 0.8075 0.7755
H36_9 H 0.5472 0.8224 0.7493
Zn2_6 Zn 0.34371(12) 0.81536(16) 0.85595(4)
O10_9 O 0.5729(10) 0.8588(12) 0.9224(4)
O11_6 O 0.3854(8) 0.7620(10) 0.9118(3)
O12_6 O 0.3042(8) 0.7715(10) 0.8900(2)
O13_6 O 0.3534(7) 0.7625(11) 0.8304(3)
O14_6 O 0.4399(8) 0.7818(14) 0.8572(2)
H39_9 H 0.282924 0.840358 0.818874
H40_9 H 0.231213 0.777946 0.835915
H41_9 H 0.566522 0.873335 0.940588
H42_9 H 0.587001 0.826798 0.925008
P1_10 P 0.5282(3) 0.4637(3) 0.71168(8)
O1_10 O 0.5787(6) 0.4730(6) 0.73266(18)
O2_10 O 0.5524(6) 0.5335(6) 0.69924(18)
O3_10 O 0.5116(6) 0.4101(6) 0.69066(16)
O5_10 O 0.4611(6) 0.4434(5) 0.72566(19)
O6_10 O 0.4479(7) 0.2694(8) 0.6708(3)
C1_10 C 0.2451(8) 0.5776(10) 0.5767(4)
C2_10 C 0.4552(8) 0.4332(6) 0.7839(2)
C3_10 C 0.3999(6) 0.3737(8) 0.7863(2)
C4_10 C 0.4018(6) 0.3241(6) 0.8001(2)
H1_10 H 0.3648 0.2843 0.8017
C5_10 C 0.4590(8) 0.3341(6) 0.81144(19)
C6_10 C 0.5143(6) 0.3936(7) 0.8091(2)
H2_10 H 0.5526 0.4003 0.8167
C7_10 C 0.5124(6) 0.4432(5) 0.7953(2)
C8_10 C 0.5721(8) 0.5092(9) 0.7967(3)
H3_10 H 0.5950 0.5182 0.7796
H4_10 H 0.5992 0.5102 0.8113
H5_10 H 0.5598 0.5409 0.7999
C9_10 C 0.4534(6) 0.5393(6) 0.72674(13)
C10_10 C 0.4476(6) 0.5858(5) 0.74128(19)
C11_10 C 0.4450(5) 0.5835(5) 0.76971(18)
C12_10 C 0.4482(5) 0.5348(6) 0.78360(13)
H6_10 H 0.4464 0.5333 0.8027
C13_10 C 0.4540(6) 0.4883(5) 0.76906(19)
C14_10 C 0.4566(6) 0.4906(5) 0.74063(19)
C15_10 C 0.5706(7) 0.5428(9) 0.6407(2)
C16_10 C 0.5611(6) 0.4879(7) 0.6272(3)
C17_10 C 0.6127(9) 0.4865(7) 0.6151(2)
H7_10 H 0.6063 0.4497 0.6060
C18_10 C 0.6737(7) 0.5400(9) 0.6165(2)
C19_10 C 0.6833(6) 0.5949(7) 0.6300(3)
H8_10 H 0.7241 0.6307 0.6309
C20_10 C 0.6317(9) 0.5963(7) 0.6421(2)
C21_10 C 0.2865(5) 0.5645(6) 0.5971(2)
C22_10 C 0.3148(6) 0.6078(5) 0.6185(2)
H9_10 H 0.3054 0.6405 0.6211
C23_10 C 0.3573(6) 0.6023(5) 0.63601(19)
H10_10 H 0.3762 0.6313 0.6503
C24_10 C 0.3714(5) 0.5535(6) 0.63218(19)
C25_10 C 0.3431(6) 0.5101(5) 0.6108(2)
H11_10 H 0.3526 0.4775 0.6083
C26_10 C 0.3006(6) 0.5156(5) 0.59325(19)
H12_10 H 0.2817 0.4867 0.5790
C27_10 C 0.3470(8) 0.5326(8) 0.6924(3)
H13_10 H 0.3423 0.5698 0.6907
H14_10 H 0.3464 0.5222 0.7114
H15_10 H 0.3123 0.4971 0.6831
C28_10 C 0.4989(11) 0.4313(11) 0.6240(4)
H16_10 H 0.4871 0.4073 0.6408
H17_10 H 0.5005 0.4053 0.6095
H18_10 H 0.4678 0.4438 0.6197
C29_10 C 0.3789(10) 0.6848(8) 0.7967(4)
H19_10 H 0.3478 0.6946 0.7913
C30_10 C 0.4694(6) 0.5498(5) 0.63865(13)
H20_10 H 0.4734 0.5521 0.6197
C31_10 C 0.4177(5) 0.5502(5) 0.65106(18)
C32_10 C 0.4117(5) 0.5468(6) 0.67940(19)
C33_10 C 0.4576(6) 0.5431(6) 0.69534(13)
C34_10 C 0.5094(5) 0.5427(6) 0.68293(19)
C35_10 C 0.5153(5) 0.5461(6) 0.6546(2)
C36_10 C 0.4730(9) 0.6593(8) 0.8083(3)
H21_10 H 0.5063 0.6516 0.8122
C37_10 C 0.4612(8) 0.6529(8) 0.7277(3)
H22_10 H 0.4902 0.6879 0.7391
H23_10 H 0.4215 0.6530 0.7260
H24_10 H 0.4799 0.6574 0.7099
C38_10 C 0.3356(10) 0.3574(11) 0.7746(5)
H25_10 H 0.3387 0.3947 0.7659
H26_10 H 0.3044 0.3435 0.7891
H27_10 H 0.3226 0.3237 0.7614
C39_10 C 0.4602(12) 0.2730(10) 0.8270(4)
H28_9 H 0.4217 0.2493 0.8376
H29_9 H 0.4968 0.2892 0.8389
H30_10 H 0.4627 0.2454 0.8135
C40_10 C 0.6448(13) 0.6618(13) 0.6572(5)
H31_10 H 0.6134 0.6727 0.6514
H32_10 H 0.6869 0.6960 0.6525
H33_10 H 0.6420 0.6555 0.6767
C41_10 C 0.7280(12) 0.5408(14) 0.6019(4)
H34_10 H 0.7266 0.5007 0.6047
H35_10 H 0.7676 0.5751 0.6089
H36_10 H 0.7248 0.5472 0.5827
C42_10 C 0.4647(10) 0.7029(9) 0.8256(3)
H37_10 H 0.4921 0.7247 0.8401
C43_10 C 0.4134(10) 0.7097(8) 0.8192(4)
C44_10 C 0.3914(10) 0.6429(9) 0.7813(4)
H38_10 H 0.3655 0.6244 0.7660
C45_10 C 0.4334(10) 0.6276(9) 0.7857(3)
C46_10 C 0.3982(14) 0.7522(10) 0.8393(5)
O10_10 O 0.7141(7) 0.5729(10) 0.7558(4)
H39_10 H 0.442565 0.282924 0.652208
H40_10 H 0.453267 0.231213 0.669248
H41_10 H 0.693188 0.566522 0.773921
H42_10 H 0.760203 0.587001 0.758341
C9_11 C 0.0859(8) 0.5466(6) 0.06007(13)
C10_11 C 0.1382(8) 0.5524(6) 0.07461(19)
C11_11 C 0.1385(7) 0.5550(5) 0.10304(18)
C12_11 C 0.0866(8) 0.5518(5) 0.11693(13)
H6_11 H 0.0869 0.5536 0.1360
C13_11 C 0.0343(8) 0.5460(6) 0.10239(19)
C14_11 C 0.0340(8) 0.5434(6) 0.07396(19)
C27_11 C 0.1856(11) 0.6530(8) 0.0257(3)
H13_11 H 0.2275 0.6577 0.0240
H14_11 H 0.1758 0.6536 0.0447
H15_11 H 0.1848 0.6877 0.0164
C29_11 C 0.3059(13) 0.6211(10) 0.1300(4)
H19_11 H 0.3468 0.6522 0.1246
C32_11 C 0.1351(8) 0.5883(5) 0.01273(19)
C33_11 C 0.0855(8) 0.5424(6) 0.02867(13)
C34_11 C 0.0333(8) 0.4906(5) 0.01626(19)
C36_11 C 0.1863(12) 0.5270(9) 0.1416(3)
H21_11 H 0.1453 0.4937 0.1455
C37_11 C 0.1917(11) 0.5388(8) 0.0610(3)
H22_11 H 0.1977 0.5098 0.0724
H23_11 H 0.2315 0.5785 0.0593
H24_11 H 0.1775 0.5201 0.0432
C38_11 C 0.0218(15) 0.6644(10) 0.1079(5)
H25_11 H 0.0560 0.6613 0.0992
H26_11 H 0.0391 0.6956 0.1224
H27_11 H 0.0011 0.6774 0.0947
H33_11 H 0.0135 0.3580 0.0100
C42_11 C 0.2382(13) 0.5353(10) 0.1589(3)
H37_11 H 0.2326 0.5079 0.1734
C43_11 C 0.2963(13) 0.5866(10) 0.1525(4)
C44_11 C 0.2515(13) 0.6086(10) 0.1146(4)
H38_11 H 0.2589 0.6345 0.0993
C45_11 C 0.1942(13) 0.5666(10) 0.1190(3)
C46_11 C 0.3540(17) 0.6018(14) 0.1726(5)
C1_11 C 0.3325(13) 0.7549(8) 0.9100(4)
C21_11 C 0.2780(8) 0.7135(5) 0.9304(2)
C22_11 C 0.2930(8) 0.6852(6) 0.9518(2)
H9_11 H 0.3351 0.6946 0.9544
C23_11 C 0.2450(8) 0.6427(6) 0.96934(19)
H10_11 H 0.2551 0.6238 0.9836
C24_11 C 0.1821(8) 0.6286(5) 0.96551(19)
C25_11 C 0.1670(8) 0.6569(6) 0.9441(2)
H11_11 H 0.1249 0.6474 0.9416
C26_11 C 0.2150(8) 0.6994(6) 0.92658(19)
H12_11 H 0.2050 0.7183 0.9123
C30_11 C 0.0804(8) 0.5306(6) 0.97198(13)
H20_11 H 0.0787 0.5266 0.9530
C31_11 C 0.1325(7) 0.5823(5) 0.98439(18)
C35_11 C 0.0308(8) 0.4847(5) 0.9879(2)
C40_11 C 0.0170(18) 0.3552(13) 0.9905(5)
H31_11 H 0.0593 0.3866 0.9847
H32_11 H 0.0091 0.3131 0.9858
P1_11 P 0.9355(4) 0.4718(3) 0.04501(8)
O1_11 O 0.8943(8) 0.4213(6) 0.06599(18)
O2_11 O 0.9811(8) 0.4476(6) 0.03257(18)
O3_11 O 0.8985(8) 0.4884(6) 0.02399(16)
O5_11 O 0.9823(8) 0.5389(6) 0.05899(19)
O6_11 O 0.8215(11) 0.5521(7) 0.0041(3)
C2_11 C 0.9780(10) 0.5448(8) 0.1172(2)
C3_11 C 0.9738(10) 0.6001(6) 0.1196(2)
C4_11 C 0.9223(8) 0.5982(6) 0.1334(2)
H1_11 H 0.9195 0.6352 0.1350
C5_11 C 0.8751(10) 0.5410(8) 0.14477(19)
C6_11 C 0.8793(9) 0.4857(6) 0.1424(2)
H2_11 H 0.8477 0.4474 0.1500
C7_11 C 0.9308(8) 0.4876(6) 0.1286(2)
C8_11 C 0.9371(12) 0.4279(8) 0.1300(3)
H3_11 H 0.9232 0.4050 0.1129
H4_11 H 0.9110 0.4008 0.1446
H5_11 H 0.9811 0.4402 0.1332
C39_11 C 0.8128(16) 0.5398(12) 0.1603(4)
H28_10 H 0.8276 0.5783 0.1709
H29_10 H 0.7924 0.5032 0.1722
H30_11 H 0.7827 0.5373 0.1468
O10_11 O 0.8588(12) 0.2859(7) 0.0891(4)
H40_11 H 0.777946 0.546733 0.00258124
H41_11 H 0.873335 0.306812 0.107255
H42_11 H 0.826798 0.239797 0.0916746
C15_11 C 0.9722(11) 0.4294(7) 0.9740(2)
C16_11 C 0.9268(9) 0.4389(6) 0.9605(3)
C17_11 C 0.8738(11) 0.3873(9) 0.9484(2)
H7_11 H 0.8434 0.3937 0.9393
C18_11 C 0.8663(11) 0.3263(7) 0.9498(2)
C19_11 C 0.9116(9) 0.3167(6) 0.9633(3)
H8_11 H 0.9066 0.2759 0.9642
C20_11 C 0.9646(11) 0.3683(9) 0.9754(2)
C28_11 C 0.9324(16) 0.5011(11) 0.9573(4)
H16_11 H 0.9202 0.5129 0.9741
H17_11 H 0.9048 0.4995 0.9428
H18_11 H 0.9760 0.5322 0.9530
C41_11 C 0.8128(18) 0.2720(12) 0.9352(4)
H34_11 H 0.7741 0.2734 0.9380
H35_11 H 0.8075 0.2324 0.9422
H36_11 H 0.8224 0.2752 0.9160
H39_11 H 0.840358 0.557435 0.985541
P1_12 P 0.5363(3) 0.0645(4) 0.37834(8)
O1_12 O 0.5270(6) 0.1057(8) 0.39932(18)
O2_12 O 0.4665(6) 0.0189(8) 0.36590(18)
O3_12 O 0.5899(6) 0.1015(8) 0.35732(16)
O5_12 O 0.5566(5) 0.0177(8) 0.39232(19)
O6_12 O 0.7306(8) 0.1785(11) 0.3374(3)
C2_12 C 0.5668(6) 0.0220(10) 0.4505(2)
C3_12 C 0.6263(8) 0.0262(10) 0.4529(2)
C4_12 C 0.6759(6) 0.0777(8) 0.4667(2)
H1_12 H 0.7157 0.0805 0.4683
C5_12 C 0.6659(6) 0.1249(10) 0.47810(19)
C6_12 C 0.6064(7) 0.1207(9) 0.4757(2)
H2_12 H 0.5997 0.1523 0.4833
C7_12 C 0.5568(5) 0.0692(8) 0.4619(2)
C8_12 C 0.4908(9) 0.0629(12) 0.4633(3)
H3_12 H 0.4818 0.0768 0.4462
H4_12 H 0.4898 0.0890 0.4779
H5_12 H 0.4591 0.0189 0.4665
C15_12 C 0.4572(9) 0.0278(11) 0.3073(2)
C16_12 C 0.5121(7) 0.0732(9) 0.2938(3)
C17_12 C 0.5135(7) 0.1262(11) 0.2817(2)
H7_12 H 0.5503 0.1566 0.2726
C18_12 C 0.4600(9) 0.1337(11) 0.2831(2)
C19_12 C 0.4051(7) 0.0884(9) 0.2966(3)
H8_12 H 0.3693 0.0934 0.2975
C20_12 C 0.4037(7) 0.0354(11) 0.3087(2)
C28_12 C 0.5687(11) 0.0676(16) 0.2906(4)
H16_12 H 0.5927 0.0798 0.3074
H17_12 H 0.5947 0.0952 0.2761
H18_12 H 0.5562 0.0240 0.2863
C39_12 C 0.7270(10) 0.1872(16) 0.4936(4)
H28_11 H 0.7507 0.1724 0.5042
H29_11 H 0.7108 0.2076 0.5055
H30_12 H 0.7546 0.2173 0.4801
C41_12 C 0.4592(14) 0.1872(18) 0.2685(4)
H34_12 H 0.4993 0.2259 0.2713
H35_12 H 0.4249 0.1925 0.2755
H36_12 H 0.4528 0.1776 0.2493
O10_12 O 0.4271(10) 0.1412(12) 0.4224(4)
H39_12 H 0.717076 0.159642 0.318874
H40_12 H 0.768787 0.222054 0.335915
H41_12 H 0.433478 0.126665 0.440588
H42_12 H 0.412999 0.173202 0.425008
C1_12 C 0.4224(10) 0.6675(13) 0.2433(4)
C9_12 C 0.4607(6) 0.9141(8) 0.39340(13)
C10_12 C 0.4142(5) 0.8618(8) 0.40794(19)
C11_12 C 0.4165(5) 0.8615(7) 0.43637(18)
C12_12 C 0.4652(6) 0.9134(8) 0.45026(13)
H6_12 H 0.4667 0.9131 0.4693
C13_12 C 0.5117(5) 0.9657(8) 0.43572(19)
C14_12 C 0.5094(5) 0.9660(8) 0.40729(19)
C21_12 C 0.4355(6) 0.7220(8) 0.2637(2)
C22_12 C 0.3922(5) 0.7070(8) 0.2851(2)
H9_12 H 0.3595 0.6649 0.2877
C23_12 C 0.3977(5) 0.7550(8) 0.30267(19)
H10_12 H 0.3687 0.7449 0.3169
C24_12 C 0.4465(6) 0.8179(8) 0.29884(19)
C25_12 C 0.4899(5) 0.8330(8) 0.2774(2)
H11_12 H 0.5225 0.8751 0.2749
C26_12 C 0.4844(5) 0.7850(8) 0.25991(19)
H12_12 H 0.5133 0.7950 0.2456
C27_12 C 0.4674(8) 0.8144(11) 0.3590(3)
H13_12 H 0.4302 0.7725 0.3573
H14_12 H 0.4778 0.8242 0.3780
H15_12 H 0.5029 0.8152 0.3497
C29_12 C 0.3152(8) 0.6941(13) 0.4633(4)
H19_12 H 0.3054 0.6532 0.4579
C30_12 C 0.4502(5) 0.9196(8) 0.30531(13)
H20_12 H 0.4479 0.9213 0.2863
C31_12 C 0.4498(5) 0.8675(7) 0.31772(18)
C32_12 C 0.4532(6) 0.8649(8) 0.34606(19)
C33_12 C 0.4569(6) 0.9145(8) 0.36200(13)
C34_12 C 0.4573(6) 0.9667(8) 0.34959(19)
C35_12 C 0.4539(6) 0.9692(8) 0.3212(2)
C36_12 C 0.3407(8) 0.8137(12) 0.4749(3)
H21_12 H 0.3484 0.8547 0.4788
C37_12 C 0.3471(8) 0.8083(11) 0.3943(3)
H22_12 H 0.3121 0.8023 0.4057
H23_12 H 0.3470 0.7685 0.3926
H24_12 H 0.3426 0.8225 0.3765
C38_12 C 0.6426(11) 0.9782(15) 0.4412(5)
H25_12 H 0.6053 0.9440 0.4325
H26_12 H 0.6565 0.9609 0.4557
H27_12 H 0.6763 0.9989 0.4280
C40_12 C 0.3382(13) 0.9830(18) 0.3238(5)
H31_12 H 0.3273 0.9407 0.3180
H32_12 H 0.3040 0.9909 0.3191
H33_12 H 0.3445 0.9865 0.3433
C42_12 C 0.2971(9) 0.7618(13) 0.4922(3)
H37_12 H 0.2753 0.7674 0.5067
C43_12 C 0.2903(8) 0.7037(13) 0.4858(4)
C44_12 C 0.3571(9) 0.7485(13) 0.4479(4)
H38_12 H 0.3756 0.7411 0.4326
C45_12 C 0.3724(9) 0.8058(13) 0.4523(3)
C46_12 C 0.2478(10) 0.6460(17) 0.5059(5)
H28_12 H 0.2493 0.8276 0.0042
H29_12 H 0.2892 0.7924 0.0055
loop_
_geom_bond_atom_site_label_1
_geom_bond_atom_site_label_2
_geom_bond_site_symmetry_1
_geom_bond_site_symmetry_2
Zn1 O1 1_555 1_555
P1 O1 1_555 1_555
O2 P1 1_555 1_555
O3 P1 1_555 1_555
O4 C1 1_555 1_555
O5 P1 1_555 1_555
O6 Zn2 1_555 1_555
O7 C1 1_555 1_555
C1 C21 1_555 1_555
C2 C3 1_555 1_555
C3 C4 1_555 1_555
C4 H1 1_555 1_555
C5 C4 1_555 1_555
C6 C5 1_555 1_555
H2 C6 1_555 1_555
C7 C2 1_555 1_555
C8 C7 1_555 1_555
H3 C8 1_555 1_555
H4 C8 1_555 1_555
H5 C8 1_555 1_555
C9 C10 1_555 1_555
C10 C11 1_555 1_555
C11 C12 1_555 1_555
C12 H6 1_555 1_555
C13 C2 1_555 1_555
C14 O5 1_555 1_555
C15 C16 1_555 1_555
C16 C17 1_555 1_555
C17 H7 1_555 1_555
C18 C17 1_555 1_555
C19 C18 1_555 1_555
H8 C19 1_555 1_555
C20 C15 1_555 1_555
C21 C22 1_555 1_555
C22 H9 1_555 1_555
C23 C22 1_555 1_555
H10 C23 1_555 1_555
C24 C23 1_555 1_555
C25 C24 1_555 1_555
H11 C25 1_555 1_555
C26 C21 1_555 1_555
H12 C26 1_555 1_555
C27 H13 1_555 1_555
H14 C27 1_555 1_555
H15 C27 1_555 1_555
C28 C16 1_555 1_555
H16 C28 1_555 1_555
H17 C28 1_555 1_555
H18 C28 1_555 1_555
C29 H19 1_555 1_555
C30 H20 1_555 1_555
C31 C24 1_555 1_555
C32 C27 1_555 1_555
C33 C9 1_555 1_555
C34 O2 1_555 1_555
C35 C15 1_555 1_555
C36 H21 1_555 1_555
C37 C10 1_555 1_555
H22 C37 1_555 1_555
H23 C37 1_555 1_555
H24 C37 1_555 1_555
C38 C3 1_555 1_555
H25 C38 1_555 1_555
H26 C38 1_555 1_555
H27 C38 1_555 1_555
C39 C5 1_555 1_555
H28 C39 1_555 1_555
H29 C39 1_555 1_555
H30 C39 1_555 1_555
C40 C20 1_555 1_555
H31 C40 1_555 1_555
H32 C40 1_555 1_555
H33 C40 1_555 1_555
C41 C18 1_555 1_555
H34 C41 1_555 1_555
H35 C41 1_555 1_555
H36 C41 1_555 1_555
Zn2 O3 1_555 1_555
C42 C36 1_555 1_555
H37 C42 1_555 1_555
C43 C29 1_555 1_555
C44 C29 1_555 1_555
H38 C44 1_555 1_555
C45 C11 1_555 1_555
O8 C46 1_555 1_555
O9 C46 1_555 1_555
C46 C43 1_555 1_555
O10 Zn1 1_555 1_555
Zn3 O4 1_555 1_555
Zn4 O9 1_555 1_555
O11 Zn1 1_555 1_555
O12 Zn2 1_555 1_555
Zn5 O7 1_555 1_555
Zn6 O8 1_555 1_555
O13 Zn2 1_555 1_555
O14 Zn1 1_555 1_555
C6 C7 1_555 1_555
C9 C14 1_555 1_555
C12 C13 1_555 1_555
C13 C14 1_555 1_555
C19 C20 1_555 1_555
C25 C26 1_555 1_555
C30 C31 1_555 1_555
C30 C35 1_555 1_555
C31 C32 1_555 1_555
C32 C33 1_555 1_555
C33 C34 1_555 1_555
C34 C35 1_555 1_555
C36 C45 1_555 1_555
C42 C43 1_555 1_555
C44 C45 1_555 1_555
O6 H39 1_555 1_555
O6 H40 1_555 1_555
O10 H41 1_555 1_555
O10 H42 1_555 1_555
Zn1_2 O1_2 1_555 1_555
P1_2 O1_2 1_555 1_555
O2_2 P1_2 1_555 1_555
O3_2 P1_2 1_555 1_555
O5_2 P1_2 1_555 1_555
O6_2 Zn2_2 1_555 1_555
C2_2 C3_2 1_555 1_555
C3_2 C4_2 1_555 1_555
C4_2 H1_2 1_555 1_555
C5_2 C4_2 1_555 1_555
C6_2 C5_2 1_555 1_555
H2_2 C6_2 1_555 1_555
C7_2 C2_2 1_555 1_555
C8_2 C7_2 1_555 1_555
H3_2 C8_2 1_555 1_555
H4_2 C8_2 1_555 1_555
H5_2 C8_2 1_555 1_555
C15_2 C16_2 1_555 1_555
C16_2 C17_2 1_555 1_555
C17_2 H7_2 1_555 1_555
C18_2 C17_2 1_555 1_555
C19_2 C18_2 1_555 1_555
H8_2 C19_2 1_555 1_555
C20_2 C15_2 1_555 1_555
C28_2 C16_2 1_555 1_555
H16_2 C28_2 1_555 1_555
H17_2 C28_2 1_555 1_555
H18_2 C28_2 1_555 1_555
C39_2 C5_2 1_555 1_555
H30_2 C39_2 1_555 1_555
C41_2 C18_2 1_555 1_555
H34_2 C41_2 1_555 1_555
H35_2 C41_2 1_555 1_555
H36_2 C41_2 1_555 1_555
Zn2_2 O3_2 1_555 1_555
O10_2 Zn1_2 1_555 1_555
O11_2 Zn1_2 1_555 1_555
O12_2 Zn2_2 1_555 1_555
O13_2 Zn2_2 1_555 1_555
O14_2 Zn1_2 1_555 1_555
C6_2 C7_2 1_555 1_555
C19_2 C20_2 1_555 1_555
O6_2 H39_2 1_555 1_555
O6_2 H40_2 1_555 1_555
O10_2 H41_2 1_555 1_555
O10_2 H42_2 1_555 1_555
O4_2 C1_2 1_555 1_555
O7_2 C1_2 1_555 1_555
C1_2 C21_2 1_555 1_555
C9_2 C10_2 1_555 1_555
C10_2 C11_2 1_555 1_555
C11_2 C12_2 1_555 1_555
C12_2 H6_2 1_555 1_555
C21_2 C22_2 1_555 1_555
C22_2 H9_2 1_555 1_555
C23_2 C22_2 1_555 1_555
H10_2 C23_2 1_555 1_555
C24_2 C23_2 1_555 1_555
C25_2 C24_2 1_555 1_555
H11_2 C25_2 1_555 1_555
C26_2 C21_2 1_555 1_555
H12_2 C26_2 1_555 1_555
C27_2 H13_2 1_555 1_555
H14_2 C27_2 1_555 1_555
H15_2 C27_2 1_555 1_555
C29_2 H19_2 1_555 1_555
C30_2 H20_2 1_555 1_555
C31_2 C24_2 1_555 1_555
C32_2 C27_2 1_555 1_555
C33_2 C9_2 1_555 1_555
C36_2 H21_2 1_555 1_555
C37_2 C10_2 1_555 1_555
H22_2 C37_2 1_555 1_555
H23_2 C37_2 1_555 1_555
H24_2 C37_2 1_555 1_555
H25_2 C38_2 1_555 1_555
H26_2 C38_2 1_555 1_555
H27_2 C38_2 1_555 1_555
H31_2 C40_2 1_555 1_555
H32_2 C40_2 1_555 1_555
H33_2 C40_2 1_555 1_555
C42_2 C36_2 1_555 1_555
C43_2 C29_2 1_555 1_555
C44_2 C29_2 1_555 1_555
H38_2 C44_2 1_555 1_555
C45_2 C11_2 1_555 1_555
Zn4 O4_2 1_555 1_555
Zn6 O7_2 1_555 1_555
C9_2 C14_2 1_555 1_555
C12_2 C13_2 1_555 1_555
C13_2 C14_2 1_555 1_555
C25_2 C26_2 1_555 1_555
C30_2 C31_2 1_555 1_555
C30_2 C35_2 1_555 1_555
C31_2 C32_2 1_555 1_555
C32_2 C33_2 1_555 1_555
C33_2 C34_2 1_555 1_555
C34_2 C35_2 1_555 1_555
C36_2 C45_2 1_555 1_555
C42_2 C43_2 1_555 1_555
C44_2 C45_2 1_555 1_555
O9_2 C46_2 1_555 1_555
Zn4_2 O9_2 1_555 1_555
O4_3 C1_3 1_555 1_555
O7_3 C1_3 1_555 1_555
C1_3 C21_3 1_555 1_555
C9_3 C10_3 1_555 1_555
C10_3 C11_3 1_555 1_555
C11_3 C12_3 1_555 1_555
C12_3 H6_3 1_555 1_555
C21_3 C22_3 1_555 1_555
C22_3 H9_3 1_555 1_555
C23_3 C22_3 1_555 1_555
H10_3 C23_3 1_555 1_555
C24_3 C23_3 1_555 1_555
C25_3 C24_3 1_555 1_555
H11_3 C25_3 1_555 1_555
C26_3 C21_3 1_555 1_555
H12_3 C26_3 1_555 1_555
C27_3 H13_3 1_555 1_555
H14_3 C27_3 1_555 1_555
H15_3 C27_3 1_555 1_555
C29_3 H19_3 1_555 1_555
C30_3 H20_3 1_555 1_555
C31_3 C24_3 1_555 1_555
C32_3 C27_3 1_555 1_555
C33_3 C9_3 1_555 1_555
C36_3 H21_3 1_555 1_555
C37_3 C10_3 1_555 1_555
H22_3 C37_3 1_555 1_555
H23_3 C37_3 1_555 1_555
H24_3 C37_3 1_555 1_555
H25_3 C38_3 1_555 1_555
H26_3 C38_3 1_555 1_555
H27_3 C38_3 1_555 1_555
H31_3 C40_3 1_555 1_555
H32_3 C40_3 1_555 1_555
H33_3 C40_3 1_555 1_555
C42_3 C36_3 1_555 1_555
H37_3 C42_3 1_555 1_555
C43_3 C29_3 1_555 1_555
C44_3 C29_3 1_555 1_555
H38_3 C44_3 1_555 1_555
C45_3 C11_3 1_555 1_555
O8_3 C46_3 1_555 1_555
O9_3 C46_3 1_555 1_555
C46_3 C43_3 1_555 1_555
Zn4_2 O4_3 1_555 1_555
Zn3 O9_3 1_555 1_555
Zn6_2 O7_3 1_555 1_555
Zn5 O8_3 1_555 1_555
C9_3 C14_3 1_555 1_555
C12_3 C13_3 1_555 1_555
C13_3 C14_3 1_555 1_555
C25_3 C26_3 1_555 1_555
C30_3 C31_3 1_555 1_555
C30_3 C35_3 1_555 1_555
C31_3 C32_3 1_555 1_555
C32_3 C33_3 1_555 1_555
C33_3 C34_3 1_555 1_555
C34_3 C35_3 1_555 1_555
C36_3 C45_3 1_555 1_555
C42_3 C43_3 1_555 1_555
C44_3 C45_3 1_555 1_555
Zn1_3 O1_3 1_555 1_555
P1_3 O1_3 1_555 1_555
O2_3 P1_3 1_555 1_555
O3_3 P1_3 1_555 1_555
O5_3 P1_3 1_555 1_555
O6_3 Zn2_3 1_555 1_555
C2_3 C3_3 1_555 1_555
C3_3 C4_3 1_555 1_555
C4_3 H1_3 1_555 1_555
C5_3 C4_3 1_555 1_555
C6_3 C5_3 1_555 1_555
H2_3 C6_3 1_555 1_555
C7_3 C2_3 1_555 1_555
C8_3 C7_3 1_555 1_555
H3_3 C8_3 1_555 1_555
H4_3 C8_3 1_555 1_555
H5_3 C8_3 1_555 1_555
C15_3 C16_3 1_555 1_555
C16_3 C17_3 1_555 1_555
C17_3 H7_3 1_555 1_555
C18_3 C17_3 1_555 1_555
C19_3 C18_3 1_555 1_555
H8_3 C19_3 1_555 1_555
C20_3 C15_3 1_555 1_555
C28_3 C16_3 1_555 1_555
H16_3 C28_3 1_555 1_555
H17_3 C28_3 1_555 1_555
H18_3 C28_3 1_555 1_555
C39_3 C5_3 1_555 1_555
H28_2 C39_3 1_555 1_555
H29_2 C39_3 1_555 1_555
H30_3 C39_3 1_555 1_555
C41_3 C18_3 1_555 1_555
H34_3 C41_3 1_555 1_555
H35_3 C41_3 1_555 1_555
H36_3 C41_3 1_555 1_555
Zn2_3 O3_3 1_555 1_555
O10_3 Zn1_3 1_555 1_555
O11_3 Zn1_3 1_555 1_555
O12_3 Zn2_3 1_555 1_555
O13_3 Zn2_3 1_555 1_555
O14_3 Zn1_3 1_555 1_555
C6_3 C7_3 1_555 1_555
C19_3 C20_3 1_555 1_555
O6_3 H39_3 1_555 1_555
O6_3 H40_3 1_555 1_555
O10_3 H41_3 1_555 1_555
O10_3 H42_3 1_555 1_555
O11_2 C1_4 1_555 1_555
O12_2 C1_4 1_555 1_555
C1_4 C21_4 1_555 1_555
C15_4 C16_4 1_555 1_555
C16_4 C17_4 1_555 1_555
C17_4 H7_4 1_555 1_555
C18_4 C17_4 1_555 1_555
C19_4 C18_4 1_555 1_555
H8_4 C19_4 1_555 1_555
C20_4 C15_4 1_555 1_555
C21_4 C22_4 1_555 1_555
C22_4 H9_4 1_555 1_555
C23_4 C22_4 1_555 1_555
H10_4 C23_4 1_555 1_555
C24_4 C23_4 1_555 1_555
C25_4 C24_4 1_555 1_555
H11_4 C25_4 1_555 1_555
C26_4 C21_4 1_555 1_555
H12_4 C26_4 1_555 1_555
C28_4 C16_4 1_555 1_555
H16_4 C28_4 1_555 1_555
H17_4 C28_4 1_555 1_555
H18_4 C28_4 1_555 1_555
C30_4 H20_4 1_555 1_555
C31_4 C24_4 1_555 1_555
C35_4 C15_4 1_555 1_555
C40_4 C20_4 1_555 1_555
H31_4 C40_4 1_555 1_555
H32_4 C40_4 1_555 1_555
C41_4 C18_4 1_555 1_555
H34_4 C41_4 1_555 1_555
H35_4 C41_4 1_555 1_555
H36_4 C41_4 1_555 1_555
C19_4 C20_4 1_555 1_555
C25_4 C26_4 1_555 1_555
C30_4 C31_4 1_555 1_555
C30_4 C35_4 1_555 1_555
Zn4_2 O1_4 1_555 1_555
P1_4 O1_4 1_555 1_555
O2_4 P1_4 1_555 1_555
O3_4 P1_4 1_555 1_555
O5_4 P1_4 1_555 1_555
O6_4 Zn6_2 1_555 1_555
C2_4 C3_4 1_555 1_555
C3_4 C4_4 1_555 1_555
C4_4 H1_4 1_555 1_555
C5_4 C4_4 1_555 1_555
C6_4 C5_4 1_555 1_555
H2_4 C6_4 1_555 1_555
C7_4 C2_4 1_555 1_555
C8_4 C7_4 1_555 1_555
H3_4 C8_4 1_555 1_555
H4_4 C8_4 1_555 1_555
H5_4 C8_4 1_555 1_555
C9_4 C10_4 1_555 1_555
C10_4 C11_4 1_555 1_555
C11_4 C12_4 1_555 1_555
C12_4 H6_4 1_555 1_555
C13_4 C2_4 1_555 1_555
C14_4 O5_4 1_555 1_555
C27_4 H13_4 1_555 1_555
H14_4 C27_4 1_555 1_555
H15_4 C27_4 1_555 1_555
C29_4 H19_4 1_555 1_555
C32_4 C27_4 1_555 1_555
C33_4 C9_4 1_555 1_555
C34_4 O2_4 1_555 1_555
C36_4 H21_4 1_555 1_555
C37_4 C10_4 1_555 1_555
H22_4 C37_4 1_555 1_555
H23_4 C37_4 1_555 1_555
H24_4 C37_4 1_555 1_555
C38_4 C3_4 1_555 1_555
H25_4 C38_4 1_555 1_555
H26_4 C38_4 1_555 1_555
H27_4 C38_4 1_555 1_555
C39_4 C5_4 1_555 1_555
H28_3 C39_4 1_555 1_555
H29_3 C39_4 1_555 1_555
H30_4 C39_4 1_555 1_555
Zn6_2 O3_4 1_555 1_555
C42_4 C36_4 1_555 1_555
H37_4 C42_4 1_555 1_555
C43_4 C29_4 1_555 1_555
C44_4 C29_4 1_555 1_555
H38_4 C44_4 1_555 1_555
C45_4 C11_4 1_555 1_555
O13_3 C46_4 1_555 1_555
O14_3 C46_4 1_555 1_555
C46_4 C43_4 1_555 1_555
O10_4 Zn4_2 1_555 1_555
C6_4 C7_4 1_555 1_555
C9_4 C14_4 1_555 1_555
C12_4 C13_4 1_555 1_555
C13_4 C14_4 1_555 1_555
C32_4 C33_4 1_555 1_555
C33_4 C34_4 1_555 1_555
C36_4 C45_4 1_555 1_555
C42_4 C43_4 1_555 1_555
C44_4 C45_4 1_555 1_555
O6_4 H40_4 1_555 1_555
O10_4 H41_4 1_555 1_555
O10_4 H42_4 1_555 1_555
O11_3 C1_5 1_555 1_555
O12_3 C1_5 1_555 1_555
C1_5 C21_5 1_555 1_555
C9_5 C10_5 1_555 1_555
C10_5 C11_5 1_555 1_555
C11_5 C12_5 1_555 1_555
C12_5 H6_5 1_555 1_555
C21_5 C22_5 1_555 1_555
C22_5 H9_5 1_555 1_555
C23_5 C22_5 1_555 1_555
H10_5 C23_5 1_555 1_555
C24_5 C23_5 1_555 1_555
C25_5 C24_5 1_555 1_555
H11_5 C25_5 1_555 1_555
C26_5 C21_5 1_555 1_555
H12_5 C26_5 1_555 1_555
C27_5 H13_5 1_555 1_555
H14_5 C27_5 1_555 1_555
H15_5 C27_5 1_555 1_555
C29_5 H19_5 1_555 1_555
C30_5 H20_5 1_555 1_555
C31_5 C24_5 1_555 1_555
C32_5 C27_5 1_555 1_555
C33_5 C9_5 1_555 1_555
C36_5 H21_5 1_555 1_555
C37_5 C10_5 1_555 1_555
H22_5 C37_5 1_555 1_555
H23_5 C37_5 1_555 1_555
H24_5 C37_5 1_555 1_555
H25_5 C38_5 1_555 1_555
H26_5 C38_5 1_555 1_555
H27_5 C38_5 1_555 1_555
H31_5 C40_5 1_555 1_555
H32_5 C40_5 1_555 1_555
H33_5 C40_5 1_555 1_555
C42_5 C36_5 1_555 1_555
H37_5 C42_5 1_555 1_555
C43_5 C29_5 1_555 1_555
C44_5 C29_5 1_555 1_555
H38_5 C44_5 1_555 1_555
C45_5 C11_5 1_555 1_555
O13 C46_5 1_555 1_555
O14 C46_5 1_555 1_555
C46_5 C43_5 1_555 1_555
C9_5 C14_5 1_555 1_555
C12_5 C13_5 1_555 1_555
C13_5 C14_5 1_555 1_555
C25_5 C26_5 1_555 1_555
C30_5 C31_5 1_555 1_555
C30_5 C35_5 1_555 1_555
C31_5 C32_5 1_555 1_555
C32_5 C33_5 1_555 1_555
C33_5 C34_5 1_555 1_555
C34_5 C35_5 1_555 1_555
C36_5 C45_5 1_555 1_555
C42_5 C43_5 1_555 1_555
C44_5 C45_5 1_555 1_555
Zn3 O1_5 1_555 1_555
P1_5 O1_5 1_555 1_555
O2_5 P1_5 1_555 1_555
O3_5 P1_5 1_555 1_555
O5_5 P1_5 1_555 1_555
O6_5 Zn5 1_555 1_555
C2_5 C3_5 1_555 1_555
C3_5 C4_5 1_555 1_555
C4_5 H1_5 1_555 1_555
C5_5 C4_5 1_555 1_555
C6_5 C5_5 1_555 1_555
H2_5 C6_5 1_555 1_555
C7_5 C2_5 1_555 1_555
C8_5 C7_5 1_555 1_555
H3_5 C8_5 1_555 1_555
H4_5 C8_5 1_555 1_555
H5_5 C8_5 1_555 1_555
C15_5 C16_5 1_555 1_555
C16_5 C17_5 1_555 1_555
C17_5 H7_5 1_555 1_555
C18_5 C17_5 1_555 1_555
C19_5 C18_5 1_555 1_555
H8_5 C19_5 1_555 1_555
C20_5 C15_5 1_555 1_555
C28_5 C16_5 1_555 1_555
H16_5 C28_5 1_555 1_555
H17_5 C28_5 1_555 1_555
H18_5 C28_5 1_555 1_555
C39_5 C5_5 1_555 1_555
H28_4 C39_5 1_555 1_555
H29_4 C39_5 1_555 1_555
H30_5 C39_5 1_555 1_555
C41_5 C18_5 1_555 1_555
H34_5 C41_5 1_555 1_555
H35_5 C41_5 1_555 1_555
H36_5 C41_5 1_555 1_555
Zn5 O3_5 1_555 1_555
O10_5 Zn3 1_555 1_555
C6_5 C7_5 1_555 1_555
C19_5 C20_5 1_555 1_555
O6_5 H39_5 1_555 1_555
O6_5 H40_5 1_555 1_555
O10_5 H41_5 1_555 1_555
O10_5 H42_5 1_555 1_555
Zn4 O1_6 1_555 1_555
P1_6 O1_6 1_555 1_555
O2_6 P1_6 1_555 1_555
O3_6 P1_6 1_555 1_555
O5_6 P1_6 1_555 1_555
O6_6 Zn6 1_555 1_555
C2_6 C3_6 1_555 1_555
C3_6 C4_6 1_555 1_555
C4_6 H1_6 1_555 1_555
C5_6 C4_6 1_555 1_555
C6_6 C5_6 1_555 1_555
H2_6 C6_6 1_555 1_555
C7_6 C2_6 1_555 1_555
C8_6 C7_6 1_555 1_555
H3_6 C8_6 1_555 1_555
H4_6 C8_6 1_555 1_555
H5_6 C8_6 1_555 1_555
C15_6 C16_6 1_555 1_555
C16_6 C17_6 1_555 1_555
C17_6 H7_6 1_555 1_555
C18_6 C17_6 1_555 1_555
C19_6 C18_6 1_555 1_555
H8_6 C19_6 1_555 1_555
C20_6 C15_6 1_555 1_555
C28_6 C16_6 1_555 1_555
H16_6 C28_6 1_555 1_555
H17_6 C28_6 1_555 1_555
H18_6 C28_6 1_555 1_555
C39_6 C5_6 1_555 1_555
H28_5 C39_6 1_555 1_555
H29_5 C39_6 1_555 1_555
H30_6 C39_6 1_555 1_555
C41_6 C18_6 1_555 1_555
H34_6 C41_6 1_555 1_555
H35_6 C41_6 1_555 1_555
H36_6 C41_6 1_555 1_555
Zn6 O3_6 1_555 1_555
O10_6 Zn4 1_555 1_555
C6_6 C7_6 1_555 1_555
C19_6 C20_6 1_555 1_555
O6_6 H39_6 1_555 1_555
O6_6 H40_6 1_555 1_555
O10_6 H41_6 1_555 1_555
O10_6 H42_6 1_555 1_555
O11 C1_6 1_555 1_555
O12 C1_6 1_555 1_555
C1_6 C21_6 1_555 1_555
C9_6 C10_6 1_555 1_555
C10_6 C11_6 1_555 1_555
C11_6 C12_6 1_555 1_555
C12_6 H6_6 1_555 1_555
C21_6 C22_6 1_555 1_555
C22_6 H9_6 1_555 1_555
C23_6 C22_6 1_555 1_555
H10_6 C23_6 1_555 1_555
C24_6 C23_6 1_555 1_555
C25_6 C24_6 1_555 1_555
H11_6 C25_6 1_555 1_555
C26_6 C21_6 1_555 1_555
H12_6 C26_6 1_555 1_555
C27_6 H13_6 1_555 1_555
H14_6 C27_6 1_555 1_555
H15_6 C27_6 1_555 1_555
C29_6 H19_6 1_555 1_555
C30_6 H20_6 1_555 1_555
C31_6 C24_6 1_555 1_555
C32_6 C27_6 1_555 1_555
C33_6 C9_6 1_555 1_555
C36_6 H21_6 1_555 1_555
C37_6 C10_6 1_555 1_555
H22_6 C37_6 1_555 1_555
H23_6 C37_6 1_555 1_555
H24_6 C37_6 1_555 1_555
H25_6 C38_6 1_555 1_555
H26_6 C38_6 1_555 1_555
H27_6 C38_6 1_555 1_555
H31_6 C40_6 1_555 1_555
H32_6 C40_6 1_555 1_555
H33_6 C40_6 1_555 1_555
C42_6 C36_6 1_555 1_555
H37_6 C42_6 1_555 1_555
C43_6 C29_6 1_555 1_555
C44_6 C29_6 1_555 1_555
H38_6 C44_6 1_555 1_555
C45_6 C11_6 1_555 1_555
O13_2 C46_6 1_555 1_555
O14_2 C46_6 1_555 1_555
C46_6 C43_6 1_555 1_555
C9_6 C14_6 1_555 1_555
C12_6 C13_6 1_555 1_555
C13_6 C14_6 1_555 1_555
C25_6 C26_6 1_555 1_555
C30_6 C31_6 1_555 1_555
C30_6 C35_6 1_555 1_555
C31_6 C32_6 1_555 1_555
C32_6 C33_6 1_555 1_555
C33_6 C34_6 1_555 1_555
C34_6 C35_6 1_555 1_555
C36_6 C45_6 1_555 1_555
C42_6 C43_6 1_555 1_555
C44_6 C45_6 1_555 1_555
Zn1_4 O1_7 1_555 1_555
P1_7 O1_7 1_555 1_555
O2_7 P1_7 1_555 1_555
O3_7 P1_7 1_555 1_555
O4_4 C1_7 1_555 1_555
O5_7 P1_7 1_555 1_555
O6_7 Zn2_4 1_555 1_555
O7_4 C1_7 1_555 1_555
C1_7 C21_7 1_555 1_555
C2_7 C3_7 1_555 1_555
C3_7 C4_7 1_555 1_555
C4_7 H1_7 1_555 1_555
C5_7 C4_7 1_555 1_555
C6_7 C5_7 1_555 1_555
H2_7 C6_7 1_555 1_555
C7_7 C2_7 1_555 1_555
C8_7 C7_7 1_555 1_555
H3_7 C8_7 1_555 1_555
H4_7 C8_7 1_555 1_555
H5_7 C8_7 1_555 1_555
C9_7 C10_7 1_555 1_555
C10_7 C11_7 1_555 1_555
C11_7 C12_7 1_555 1_555
C12_7 H6_7 1_555 1_555
C13_7 C2_7 1_555 1_555
C14_7 O5_7 1_555 1_555
C15_7 C16_7 1_555 1_555
C16_7 C17_7 1_555 1_555
C17_7 H7_7 1_555 1_555
C18_7 C17_7 1_555 1_555
C19_7 C18_7 1_555 1_555
H8_7 C19_7 1_555 1_555
C20_7 C15_7 1_555 1_555
C21_7 C22_7 1_555 1_555
C22_7 H9_7 1_555 1_555
C23_7 C22_7 1_555 1_555
H10_7 C23_7 1_555 1_555
C24_7 C23_7 1_555 1_555
C25_7 C24_7 1_555 1_555
H11_7 C25_7 1_555 1_555
C26_7 C21_7 1_555 1_555
H12_7 C26_7 1_555 1_555
C27_7 H13_7 1_555 1_555
H14_7 C27_7 1_555 1_555
H15_7 C27_7 1_555 1_555
C28_7 C16_7 1_555 1_555
H16_7 C28_7 1_555 1_555
H17_7 C28_7 1_555 1_555
H18_7 C28_7 1_555 1_555
C29_7 H19_7 1_555 1_555
C30_7 H20_7 1_555 1_555
C31_7 C24_7 1_555 1_555
C32_7 C27_7 1_555 1_555
C33_7 C9_7 1_555 1_555
C34_7 O2_7 1_555 1_555
C35_7 C15_7 1_555 1_555
C36_7 H21_7 1_555 1_555
C37_7 C10_7 1_555 1_555
H22_7 C37_7 1_555 1_555
H23_7 C37_7 1_555 1_555
H24_7 C37_7 1_555 1_555
C38_7 C3_7 1_555 1_555
H25_7 C38_7 1_555 1_555
H26_7 C38_7 1_555 1_555
H27_7 C38_7 1_555 1_555
C39_7 C5_7 1_555 1_555
H28_7 C39_7 1_555 1_555
H29_7 C39_7 1_555 1_555
H30_7 C39_7 1_555 1_555
C40_7 C20_7 1_555 1_555
H31_7 C40_7 1_555 1_555
H32_7 C40_7 1_555 1_555
H33_7 C40_7 1_555 1_555
C41_7 C18_7 1_555 1_555
H34_7 C41_7 1_555 1_555
H35_7 C41_7 1_555 1_555
H36_7 C41_7 1_555 1_555
Zn2_4 O3_7 1_555 1_555
C42_7 C36_7 1_555 1_555
H37_7 C42_7 1_555 1_555
C43_7 C29_7 1_555 1_555
C44_7 C29_7 1_555 1_555
H38_7 C44_7 1_555 1_555
C45_7 C11_7 1_555 1_555
O8_4 C46_7 1_555 1_555
O9_4 C46_7 1_555 1_555
C46_7 C43_7 1_555 1_555
O10_7 Zn1_4 1_555 1_555
Zn3_2 O4_4 1_555 1_555
Zn4_3 O9_4 1_555 1_555
O11_4 Zn1_4 1_555 1_555
O12_4 Zn2_4 1_555 1_555
Zn5_2 O7_4 1_555 1_555
Zn6_3 O8_4 1_555 1_555
O13_4 Zn2_4 1_555 1_555
O14_4 Zn1_4 1_555 1_555
C6_7 C7_7 1_555 1_555
C9_7 C14_7 1_555 1_555
C12_7 C13_7 1_555 1_555
C13_7 C14_7 1_555 1_555
C19_7 C20_7 1_555 1_555
C25_7 C26_7 1_555 1_555
C30_7 C31_7 1_555 1_555
C30_7 C35_7 1_555 1_555
C31_7 C32_7 1_555 1_555
C32_7 C33_7 1_555 1_555
C33_7 C34_7 1_555 1_555
C34_7 C35_7 1_555 1_555
C36_7 C45_7 1_555 1_555
C42_7 C43_7 1_555 1_555
C44_7 C45_7 1_555 1_555
O6_7 H39_7 1_555 1_555
O6_7 H40_7 1_555 1_555
O10_7 H41_7 1_555 1_555
O10_7 H42_7 1_555 1_555
Zn1_5 O1_8 1_555 1_555
P1_8 O1_8 1_555 1_555
O2_8 P1_8 1_555 1_555
O3_8 P1_8 1_555 1_555
O5_8 P1_8 1_555 1_555
O6_8 Zn2_5 1_555 1_555
C2_8 C3_8 1_555 1_555
C3_8 C4_8 1_555 1_555
C4_8 H1_8 1_555 1_555
C5_8 C4_8 1_555 1_555
C6_8 C5_8 1_555 1_555
H2_8 C6_8 1_555 1_555
C7_8 C2_8 1_555 1_555
C8_8 C7_8 1_555 1_555
H3_8 C8_8 1_555 1_555
H4_8 C8_8 1_555 1_555
H5_8 C8_8 1_555 1_555
C15_8 C16_8 1_555 1_555
C16_8 C17_8 1_555 1_555
C17_8 H7_8 1_555 1_555
C18_8 C17_8 1_555 1_555
C19_8 C18_8 1_555 1_555
H8_8 C19_8 1_555 1_555
C20_8 C15_8 1_555 1_555
C28_8 C16_8 1_555 1_555
H16_8 C28_8 1_555 1_555
H17_8 C28_8 1_555 1_555
H18_8 C28_8 1_555 1_555
C39_8 C5_8 1_555 1_555
H28_8 C39_8 1_555 1_555
H29_8 C39_8 1_555 1_555
H30_8 C39_8 1_555 1_555
C41_8 C18_8 1_555 1_555
H34_8 C41_8 1_555 1_555
H35_8 C41_8 1_555 1_555
H36_8 C41_8 1_555 1_555
Zn2_5 O3_8 1_555 1_555
O10_8 Zn1_5 1_555 1_555
O11_5 Zn1_5 1_555 1_555
O12_5 Zn2_5 1_555 1_555
O13_5 Zn2_5 1_555 1_555
O14_5 Zn1_5 1_555 1_555
C6_8 C7_8 1_555 1_555
C19_8 C20_8 1_555 1_555
O6_8 H39_8 1_555 1_555
O6_8 H40_8 1_555 1_555
O10_8 H41_8 1_555 1_555
O10_8 H42_8 1_555 1_555
O4_5 C1_8 1_555 1_555
O7_5 C1_8 1_555 1_555
C1_8 C21_8 1_555 1_555
C9_8 C10_8 1_555 1_555
C10_8 C11_8 1_555 1_555
C11_8 C12_8 1_555 1_555
C12_8 H6_8 1_555 1_555
C21_8 C22_8 1_555 1_555
C22_8 H9_8 1_555 1_555
C23_8 C22_8 1_555 1_555
H10_8 C23_8 1_555 1_555
C24_8 C23_8 1_555 1_555
C25_8 C24_8 1_555 1_555
H11_8 C25_8 1_555 1_555
C26_8 C21_8 1_555 1_555
H12_8 C26_8 1_555 1_555
C27_8 H13_8 1_555 1_555
H14_8 C27_8 1_555 1_555
H15_8 C27_8 1_555 1_555
C29_8 H19_8 1_555 1_555
C30_8 H20_8 1_555 1_555
C31_8 C24_8 1_555 1_555
C32_8 C27_8 1_555 1_555
C33_8 C9_8 1_555 1_555
C36_8 H21_8 1_555 1_555
C37_8 C10_8 1_555 1_555
H22_8 C37_8 1_555 1_555
H23_8 C37_8 1_555 1_555
H24_8 C37_8 1_555 1_555
H25_8 C38_8 1_555 1_555
H26_8 C38_8 1_555 1_555
H27_8 C38_8 1_555 1_555
H31_8 C40_8 1_555 1_555
H32_8 C40_8 1_555 1_555
H33_8 C40_8 1_555 1_555
C42_8 C36_8 1_555 1_555
H37_8 C42_8 1_555 1_555
C43_8 C29_8 1_555 1_555
C44_8 C29_8 1_555 1_555
H38_8 C44_8 1_555 1_555
C45_8 C11_8 1_555 1_555
O8_5 C46_8 1_555 1_555
O9_5 C46_8 1_555 1_555
C46_8 C43_8 1_555 1_555
Zn4_3 O4_5 1_555 1_555
Zn4_4 O9_5 1_555 1_555
Zn6_3 O7_5 1_555 1_555
Zn6_4 O8_5 1_555 1_555
C9_8 C14_8 1_555 1_555
C12_8 C13_8 1_555 1_555
C13_8 C14_8 1_555 1_555
C25_8 C26_8 1_555 1_555
C30_8 C31_8 1_555 1_555
C30_8 C35_8 1_555 1_555
C31_8 C32_8 1_555 1_555
C32_8 C33_8 1_555 1_555
C33_8 C34_8 1_555 1_555
C34_8 C35_8 1_555 1_555
C36_8 C45_8 1_555 1_555
C42_8 C43_8 1_555 1_555
C44_8 C45_8 1_555 1_555
O9_6 C46_9 1_555 1_555
Zn3_2 O9_6 1_555 1_555
O4_6 C1_9 1_555 1_555
O7_6 C1_9 1_555 1_555
C1_9 C21_9 1_555 1_555
C9_9 C10_9 1_555 1_555
C10_9 C11_9 1_555 1_555
C11_9 C12_9 1_555 1_555
C12_9 H6_9 1_555 1_555
C21_9 C22_9 1_555 1_555
C22_9 H9_9 1_555 1_555
C23_9 C22_9 1_555 1_555
H10_9 C23_9 1_555 1_555
C24_9 C23_9 1_555 1_555
C25_9 C24_9 1_555 1_555
H11_9 C25_9 1_555 1_555
C26_9 C21_9 1_555 1_555
H12_9 C26_9 1_555 1_555
C27_9 H13_9 1_555 1_555
H14_9 C27_9 1_555 1_555
H15_9 C27_9 1_555 1_555
C29_9 H19_9 1_555 1_555
C30_9 H20_9 1_555 1_555
C31_9 C24_9 1_555 1_555
C32_9 C27_9 1_555 1_555
C33_9 C9_9 1_555 1_555
C36_9 H21_9 1_555 1_555
C37_9 C10_9 1_555 1_555
H22_9 C37_9 1_555 1_555
H23_9 C37_9 1_555 1_555
H24_9 C37_9 1_555 1_555
H25_9 C38_9 1_555 1_555
H26_9 C38_9 1_555 1_555
H27_9 C38_9 1_555 1_555
H31_9 C40_9 1_555 1_555
H32_9 C40_9 1_555 1_555
H33_9 C40_9 1_555 1_555
C42_9 C36_9 1_555 1_555
C43_9 C29_9 1_555 1_555
C44_9 C29_9 1_555 1_555
H38_9 C44_9 1_555 1_555
C45_9 C11_9 1_555 1_555
Zn4_4 O4_6 1_555 1_555
Zn6_4 O7_6 1_555 1_555
C9_9 C14_9 1_555 1_555
C12_9 C13_9 1_555 1_555
C13_9 C14_9 1_555 1_555
C25_9 C26_9 1_555 1_555
C30_9 C31_9 1_555 1_555
C30_9 C35_9 1_555 1_555
C31_9 C32_9 1_555 1_555
C32_9 C33_9 1_555 1_555
C33_9 C34_9 1_555 1_555
C34_9 C35_9 1_555 1_555
C36_9 C45_9 1_555 1_555
C42_9 C43_9 1_555 1_555
C44_9 C45_9 1_555 1_555
Zn1_6 O1_9 1_555 1_555
P1_9 O1_9 1_555 1_555
O2_9 P1_9 1_555 1_555
O3_9 P1_9 1_555 1_555
O5_9 P1_9 1_555 1_555
O6_9 Zn2_6 1_555 1_555
C2_9 C3_9 1_555 1_555
C3_9 C4_9 1_555 1_555
C4_9 H1_9 1_555 1_555
C5_9 C4_9 1_555 1_555
C6_9 C5_9 1_555 1_555
H2_9 C6_9 1_555 1_555
C7_9 C2_9 1_555 1_555
C8_9 C7_9 1_555 1_555
H3_9 C8_9 1_555 1_555
H4_9 C8_9 1_555 1_555
H5_9 C8_9 1_555 1_555
C15_9 C16_9 1_555 1_555
C16_9 C17_9 1_555 1_555
C17_9 H7_9 1_555 1_555
C18_9 C17_9 1_555 1_555
C19_9 C18_9 1_555 1_555
H8_9 C19_9 1_555 1_555
C20_9 C15_9 1_555 1_555
C28_9 C16_9 1_555 1_555
H16_9 C28_9 1_555 1_555
H17_9 C28_9 1_555 1_555
H18_9 C28_9 1_555 1_555
C39_9 C5_9 1_555 1_555
H30_9 C39_9 1_555 1_555
C41_9 C18_9 1_555 1_555
H34_9 C41_9 1_555 1_555
H35_9 C41_9 1_555 1_555
H36_9 C41_9 1_555 1_555
Zn2_6 O3_9 1_555 1_555
O10_9 Zn1_6 1_555 1_555
O11_6 Zn1_6 1_555 1_555
O12_6 Zn2_6 1_555 1_555
O13_6 Zn2_6 1_555 1_555
O14_6 Zn1_6 1_555 1_555
C6_9 C7_9 1_555 1_555
C19_9 C20_9 1_555 1_555
O6_9 H39_9 1_555 1_555
O6_9 H40_9 1_555 1_555
O10_9 H41_9 1_555 1_555
O10_9 H42_9 1_555 1_555
Zn4_4 O1_10 1_555 1_555
P1_10 O1_10 1_555 1_555
O2_10 P1_10 1_555 1_555
O3_10 P1_10 1_555 1_555
O11_5 C1_10 1_555 1_555
O5_10 P1_10 1_555 1_555
O6_10 Zn6_4 1_555 1_555
O12_5 C1_10 1_555 1_555
C1_10 C21_10 1_555 1_555
C2_10 C3_10 1_555 1_555
C3_10 C4_10 1_555 1_555
C4_10 H1_10 1_555 1_555
C5_10 C4_10 1_555 1_555
C6_10 C5_10 1_555 1_555
H2_10 C6_10 1_555 1_555
C7_10 C2_10 1_555 1_555
C8_10 C7_10 1_555 1_555
H3_10 C8_10 1_555 1_555
H4_10 C8_10 1_555 1_555
H5_10 C8_10 1_555 1_555
C9_10 C10_10 1_555 1_555
C10_10 C11_10 1_555 1_555
C11_10 C12_10 1_555 1_555
C12_10 H6_10 1_555 1_555
C13_10 C2_10 1_555 1_555
C14_10 O5_10 1_555 1_555
C15_10 C16_10 1_555 1_555
C16_10 C17_10 1_555 1_555
C17_10 H7_10 1_555 1_555
C18_10 C17_10 1_555 1_555
C19_10 C18_10 1_555 1_555
H8_10 C19_10 1_555 1_555
C20_10 C15_10 1_555 1_555
C21_10 C22_10 1_555 1_555
C22_10 H9_10 1_555 1_555
C23_10 C22_10 1_555 1_555
H10_10 C23_10 1_555 1_555
C24_10 C23_10 1_555 1_555
C25_10 C24_10 1_555 1_555
H11_10 C25_10 1_555 1_555
C26_10 C21_10 1_555 1_555
H12_10 C26_10 1_555 1_555
C27_10 H13_10 1_555 1_555
H14_10 C27_10 1_555 1_555
H15_10 C27_10 1_555 1_555
C28_10 C16_10 1_555 1_555
H16_10 C28_10 1_555 1_555
H17_10 C28_10 1_555 1_555
H18_10 C28_10 1_555 1_555
C29_10 H19_10 1_555 1_555
C30_10 H20_10 1_555 1_555
C31_10 C24_10 1_555 1_555
C32_10 C27_10 1_555 1_555
C33_10 C9_10 1_555 1_555
C34_10 O2_10 1_555 1_555
C35_10 C15_10 1_555 1_555
C36_10 H21_10 1_555 1_555
C37_10 C10_10 1_555 1_555
H22_10 C37_10 1_555 1_555
H23_10 C37_10 1_555 1_555
H24_10 C37_10 1_555 1_555
C38_10 C3_10 1_555 1_555
H25_10 C38_10 1_555 1_555
H26_10 C38_10 1_555 1_555
H27_10 C38_10 1_555 1_555
C39_10 C5_10 1_555 1_555
H28_9 C39_10 1_555 1_555
H29_9 C39_10 1_555 1_555
H30_10 C39_10 1_555 1_555
C40_10 C20_10 1_555 1_555
H31_10 C40_10 1_555 1_555
H32_10 C40_10 1_555 1_555
H33_10 C40_10 1_555 1_555
C41_10 C18_10 1_555 1_555
H34_10 C41_10 1_555 1_555
H35_10 C41_10 1_555 1_555
H36_10 C41_10 1_555 1_555
Zn6_4 O3_10 1_555 1_555
C42_10 C36_10 1_555 1_555
H37_10 C42_10 1_555 1_555
C43_10 C29_10 1_555 1_555
C44_10 C29_10 1_555 1_555
H38_10 C44_10 1_555 1_555
C45_10 C11_10 1_555 1_555
O13_6 C46_10 1_555 1_555
O14_6 C46_10 1_555 1_555
C46_10 C43_10 1_555 1_555
O10_10 Zn4_4 1_555 1_555
C6_10 C7_10 1_555 1_555
C9_10 C14_10 1_555 1_555
C12_10 C13_10 1_555 1_555
C13_10 C14_10 1_555 1_555
C19_10 C20_10 1_555 1_555
C25_10 C26_10 1_555 1_555
C30_10 C31_10 1_555 1_555
C30_10 C35_10 1_555 1_555
C31_10 C32_10 1_555 1_555
C32_10 C33_10 1_555 1_555
C33_10 C34_10 1_555 1_555
C34_10 C35_10 1_555 1_555
C36_10 C45_10 1_555 1_555
C42_10 C43_10 1_555 1_555
C44_10 C45_10 1_555 1_555
O6_10 H39_10 1_555 1_555
O6_10 H40_10 1_555 1_555
O10_10 H41_10 1_555 1_555
O10_10 H42_10 1_555 1_555
C9_11 C10_11 1_555 1_555
C10_11 C11_11 1_555 1_555
C11_11 C12_11 1_555 1_555
C12_11 H6_11 1_555 1_555
C27_11 H13_11 1_555 1_555
H14_11 C27_11 1_555 1_555
H15_11 C27_11 1_555 1_555
C29_11 H19_11 1_555 1_555
C32_11 C27_11 1_555 1_555
C33_11 C9_11 1_555 1_555
C36_11 H21_11 1_555 1_555
C37_11 C10_11 1_555 1_555
H22_11 C37_11 1_555 1_555
H23_11 C37_11 1_555 1_555
H24_11 C37_11 1_555 1_555
H25_11 C38_11 1_555 1_555
H26_11 C38_11 1_555 1_555
H27_11 C38_11 1_555 1_555
C42_11 C36_11 1_555 1_555
H37_11 C42_11 1_555 1_555
C43_11 C29_11 1_555 1_555
C44_11 C29_11 1_555 1_555
H38_11 C44_11 1_555 1_555
C45_11 C11_11 1_555 1_555
O13_4 C46_11 1_555 1_555
O14_4 C46_11 1_555 1_555
C46_11 C43_11 1_555 1_555
C9_11 C14_11 1_555 1_555
C12_11 C13_11 1_555 1_555
C13_11 C14_11 1_555 1_555
C32_11 C33_11 1_555 1_555
C33_11 C34_11 1_555 1_555
C36_11 C45_11 1_555 1_555
C42_11 C43_11 1_555 1_555
C44_11 C45_11 1_555 1_555
O11_6 C1_11 1_555 1_555
O12_6 C1_11 1_555 1_555
C1_11 C21_11 1_555 1_555
C21_11 C22_11 1_555 1_555
C22_11 H9_11 1_555 1_555
C23_11 C22_11 1_555 1_555
H10_11 C23_11 1_555 1_555
C24_11 C23_11 1_555 1_555
C25_11 C24_11 1_555 1_555
H11_11 C25_11 1_555 1_555
C26_11 C21_11 1_555 1_555
H12_11 C26_11 1_555 1_555
C30_11 H20_11 1_555 1_555
C31_11 C24_11 1_555 1_555
H31_11 C40_11 1_555 1_555
H32_11 C40_11 1_555 1_555
C25_11 C26_11 1_555 1_555
C30_11 C31_11 1_555 1_555
C30_11 C35_11 1_555 1_555
Zn3_2 O1_11 1_555 1_555
P1_11 O1_11 1_555 1_555
O2_11 P1_11 1_555 1_555
O3_11 P1_11 1_555 1_555
O5_11 P1_11 1_555 1_555
O6_11 Zn5_2 1_555 1_555
C2_11 C3_11 1_555 1_555
C3_11 C4_11 1_555 1_555
C4_11 H1_11 1_555 1_555
C5_11 C4_11 1_555 1_555
C6_11 C5_11 1_555 1_555
H2_11 C6_11 1_555 1_555
C7_11 C2_11 1_555 1_555
C8_11 C7_11 1_555 1_555
H3_11 C8_11 1_555 1_555
H4_11 C8_11 1_555 1_555
H5_11 C8_11 1_555 1_555
C39_11 C5_11 1_555 1_555
H28_10 C39_11 1_555 1_555
H29_10 C39_11 1_555 1_555
H30_11 C39_11 1_555 1_555
Zn5_2 O3_11 1_555 1_555
O10_11 Zn3_2 1_555 1_555
C6_11 C7_11 1_555 1_555
O6_11 H40_11 1_555 1_555
O10_11 H41_11 1_555 1_555
O10_11 H42_11 1_555 1_555
C15_11 C16_11 1_555 1_555
C16_11 C17_11 1_555 1_555
C17_11 H7_11 1_555 1_555
C18_11 C17_11 1_555 1_555
C19_11 C18_11 1_555 1_555
H8_11 C19_11 1_555 1_555
C20_11 C15_11 1_555 1_555
C28_11 C16_11 1_555 1_555
H16_11 C28_11 1_555 1_555
H17_11 C28_11 1_555 1_555
H18_11 C28_11 1_555 1_555
C41_11 C18_11 1_555 1_555
H34_11 C41_11 1_555 1_555
H35_11 C41_11 1_555 1_555
H36_11 C41_11 1_555 1_555
C19_11 C20_11 1_555 1_555
Zn4_3 O1_12 1_555 1_555
P1_12 O1_12 1_555 1_555
O2_12 P1_12 1_555 1_555
O3_12 P1_12 1_555 1_555
O5_12 P1_12 1_555 1_555
O6_12 Zn6_3 1_555 1_555
C2_12 C3_12 1_555 1_555
C3_12 C4_12 1_555 1_555
C4_12 H1_12 1_555 1_555
C5_12 C4_12 1_555 1_555
C6_12 C5_12 1_555 1_555
H2_12 C6_12 1_555 1_555
C7_12 C2_12 1_555 1_555
C8_12 C7_12 1_555 1_555
H3_12 C8_12 1_555 1_555
H4_12 C8_12 1_555 1_555
H5_12 C8_12 1_555 1_555
C15_12 C16_12 1_555 1_555
C16_12 C17_12 1_555 1_555
C17_12 H7_12 1_555 1_555
C18_12 C17_12 1_555 1_555
C19_12 C18_12 1_555 1_555
H8_12 C19_12 1_555 1_555
C20_12 C15_12 1_555 1_555
C28_12 C16_12 1_555 1_555
H16_12 C28_12 1_555 1_555
H17_12 C28_12 1_555 1_555
H18_12 C28_12 1_555 1_555
C39_12 C5_12 1_555 1_555
H28_11 C39_12 1_555 1_555
H29_11 C39_12 1_555 1_555
H30_12 C39_12 1_555 1_555
C41_12 C18_12 1_555 1_555
H34_12 C41_12 1_555 1_555
H35_12 C41_12 1_555 1_555
H36_12 C41_12 1_555 1_555
Zn6_3 O3_12 1_555 1_555
O10_12 Zn4_3 1_555 1_555
C6_12 C7_12 1_555 1_555
C19_12 C20_12 1_555 1_555
O6_12 H39_12 1_555 1_555
O6_12 H40_12 1_555 1_555
O10_12 H41_12 1_555 1_555
O10_12 H42_12 1_555 1_555
O11_4 C1_12 1_555 1_555
O12_4 C1_12 1_555 1_555
C1_12 C21_12 1_555 1_555
C9_12 C10_12 1_555 1_555
C10_12 C11_12 1_555 1_555
C11_12 C12_12 1_555 1_555
C12_12 H6_12 1_555 1_555
C21_12 C22_12 1_555 1_555
C22_12 H9_12 1_555 1_555
C23_12 C22_12 1_555 1_555
H10_12 C23_12 1_555 1_555
C24_12 C23_12 1_555 1_555
C25_12 C24_12 1_555 1_555
H11_12 C25_12 1_555 1_555
C26_12 C21_12 1_555 1_555
H12_12 C26_12 1_555 1_555
C27_12 H13_12 1_555 1_555
H14_12 C27_12 1_555 1_555
H15_12 C27_12 1_555 1_555
C29_12 H19_12 1_555 1_555
C30_12 H20_12 1_555 1_555
C31_12 C24_12 1_555 1_555
C32_12 C27_12 1_555 1_555
C33_12 C9_12 1_555 1_555
C36_12 H21_12 1_555 1_555
C37_12 C10_12 1_555 1_555
H22_12 C37_12 1_555 1_555
H23_12 C37_12 1_555 1_555
H24_12 C37_12 1_555 1_555
H25_12 C38_12 1_555 1_555
H26_12 C38_12 1_555 1_555
H27_12 C38_12 1_555 1_555
H31_12 C40_12 1_555 1_555
H32_12 C40_12 1_555 1_555
H33_12 C40_12 1_555 1_555
C42_12 C36_12 1_555 1_555
H37_12 C42_12 1_555 1_555
C43_12 C29_12 1_555 1_555
C44_12 C29_12 1_555 1_555
H38_12 C44_12 1_555 1_555
C45_12 C11_12 1_555 1_555
O13_5 C46_12 1_555 1_555
O14_5 C46_12 1_555 1_555
C46_12 C43_12 1_555 1_555
C9_12 C14_12 1_555 1_555
C12_12 C13_12 1_555 1_555
C13_12 C14_12 1_555 1_555
C25_12 C26_12 1_555 1_555
C30_12 C31_12 1_555 1_555
C30_12 C35_12 1_555 1_555
C31_12 C32_12 1_555 1_555
C32_12 C33_12 1_555 1_555
C33_12 C34_12 1_555 1_555
C34_12 C35_12 1_555 1_555
C36_12 C45_12 1_555 1_555
C42_12 C43_12 1_555 1_555
C44_12 C45_12 1_555 1_555

#END
