
###############################################################################
#
# This file contains modified crystal structure data generated from the
# MOF subset of the Cambridge Structural Database (CSD) v543 
# hosted by the Cambridge Crystallographic Data Centre (CCDC).
#
# This work is licensed under the Creative Commons
# Attribution-NonCommercial-ShareAlike 4.0 International License.
# To view a copy of this license, visit
# http://creativecommons.org/licenses/by-nc-sa/4.0/
# or send a letter to
# Creative Commons, PO Box 1866, Mountain View, CA 94042, USA.
#
# CIF created using the CSD Python API on 29 September 2022
# The structure has been converted into the P1 space group
# The structure has a 3D framework
# The original CSD entry TUWFID is in the hexagonal crystal system
# The original CSD entry TUWFID is in a Sohncke space group
# The framework has been calculated to contain at least 10.0% void space
# The void calculation uses a probe of radius 1.32A, grid spacing 0.4
# H atom positions have been added when not included in the experimental data
#
###############################################################################

data_TUWFID
_chemical_formula_moiety         '(C588 H552 O142 P12 Sr24)n'
_symmetry_cell_setting           triclinic
_symmetry_space_group_name_H-M   'P 1'
_symmetry_Int_Tables_number      1
_space_group_name_Hall           'P 1'
loop_
_symmetry_equiv_pos_site_id
_symmetry_equiv_pos_as_xyz
1 x,y,z
_cell_length_a                   24.2083(5)
_cell_length_b                   24.2083(5)
_cell_length_c                   48.9972(12)
_cell_angle_alpha                90
_cell_angle_beta                 90
_cell_angle_gamma                120
_cell_volume                     24867.4
loop_
_atom_site_label
_atom_site_type_symbol
_atom_site_fract_x
_atom_site_fract_y
_atom_site_fract_z
O3 O 0.3522(2) 0.7817(2) 0.14676(9)
O5 O 0.4131(2) 0.7603(2) 0.17379(8)
O8 O 0.3811(2) 0.6221(2) 0.42355(9)
O11 O 0.3056(3) 0.5337(3) 0.44476(9)
C1 C 0.3594(3) 0.7523(3) 0.16690(11)
C2 C 0.08565(16) 0.5380(2) 0.27352(5)
C3 C 0.13821(15) 0.58402(17) 0.25925(6)
C4 C 0.14063(15) 0.58026(18) 0.23100(6)
C5 C 0.09048(18) 0.5305(2) 0.21703(5)
H1 H 0.0921 0.5280 0.1981
C6 C 0.03792(16) 0.48443(18) 0.23130(6)
C7 C 0.03550(14) 0.48819(18) 0.25955(6)
C8 C 0.19750(14) 0.6252(2) 0.21466(7)
C9 C 0.25824(17) 0.6385(2) 0.22230(7)
H2 H 0.2637 0.6197 0.2378
C10 C 0.31080(14) 0.6799(2) 0.20670(7)
H3 H 0.3514 0.6888 0.2118
C11 C 0.30261(15) 0.70801(19) 0.18347(7)
C12 C 0.24187(18) 0.6947(2) 0.17583(7)
H4 H 0.2364 0.7135 0.1603
C13 C 0.18931(14) 0.6533(2) 0.19142(8)
H5 H 0.1487 0.6444 0.1863
C14 C 0.24727(18) 0.5999(2) 0.36344(7)
H6 H 0.2588 0.6264 0.3483
C15 C 0.18380(16) 0.5537(2) 0.36754(7)
C16 C 0.16656(15) 0.5141(2) 0.39024(8)
H7 H 0.1241 0.4832 0.3930
C17 C 0.21278(19) 0.5206(2) 0.40885(7)
H8 H 0.2012 0.4941 0.4240
C18 C 0.27624(17) 0.5667(2) 0.40476(7)
C19 C 0.29349(14) 0.60637(19) 0.38205(8)
H9 H 0.3359 0.6372 0.3793
C26 C 0.3263(3) 0.5751(3) 0.42575(12)
C27 C 0.1868(3) 0.5332(4) 0.30789(13)
H12 H 0.2277 0.5694 0.3122
H13 H 0.1814 0.5296 0.2884
H14 H 0.1845 0.4952 0.3150
C28 C 0.1870(3) 0.6455(3) 0.27361(12)
H15 H 0.1718 0.6471 0.2915
H16 H 0.1930 0.6817 0.2632
H17 H 0.2269 0.6462 0.2751
C29 C 0.07988(19) 0.5471(3) 0.36122(5)
H18 H 0.0786 0.5506 0.3801
C30 C 0.13182(16) 0.5474(2) 0.34895(6)
C31 C 0.13372(16) 0.5422(2) 0.32076(7)
C32 C 0.08368(18) 0.5366(2) 0.30483(5)
C33 C 0.03174(16) 0.5363(2) 0.31709(7)
C34 C 0.02984(17) 0.5415(3) 0.34528(7)
C44 C 0.0170(5) 0.6556(5) 0.3447(2)
H27 H 0.0572 0.6706 0.3538
H28 H 0.0045 0.6874 0.3459
H29 H 0.0212 0.6473 0.3259
C46 C 0.0323(6) 0.3631(6) 0.2241(3)
H33 H 0.0707 0.4038 0.2249
H34 H 0.0386 0.3353 0.2121
H35 H 0.0217 0.3447 0.2420
Sr3 Sr 0.32477(8) 0.80774(6) 0.10509(2)
Sr4 Sr 0.48297(6) 0.67523(8) 0.43843(2)
Sr6 Sr 0.47008(6) 0.81550(4) 0.14444(2)
Sr7 Sr 0.34542(4) 0.52992(6) 0.47778(2)
Sr1 Sr 0.80774(6) 0.48297(6) 0.27176(2)
Sr2 Sr 0.81550(4) 0.34542(4) 0.31111(2)
P1 P 0.93563(7) 0.46067(8) 0.28767(3)
O1 O 0.8698(3) 0.5655(3) 0.30483(11)
O2 O 0.98362(19) 0.4423(2) 0.27377(8)
O4 O 0.89600(19) 0.4718(2) 0.26767(7)
O6 O 0.98174(19) 0.5282(2) 0.30139(8)
O7 O 0.9037(2) 0.4105(2) 0.30906(8)
O9 O 0.7266(2) 0.5098(2) 0.27645(9)
O10 O 0.8304(3) 0.2772(3) 0.32750(11)
O12 O 0.7137(3) 0.5820(3) 0.25455(10)
C20 C 0.98170(18) 0.4308(2) 0.21546(9)
C21 C 0.9343(2) 0.4402(2) 0.20421(8)
C22 C 0.8831(2) 0.3905(3) 0.19068(9)
H10 H 0.8514 0.3968 0.1831
C23 C 0.8793(2) 0.3315(2) 0.18841(12)
C24 C 0.9266(3) 0.3221(2) 0.19966(14)
H11 H 0.9241 0.2826 0.1981
C25 C 0.9779(2) 0.3718(3) 0.21319(12)
C35 C 0.9383(4) 0.5036(4) 0.20487(14)
H19 H 0.9479 0.5204 0.2231
H20 H 0.8983 0.4990 0.1992
H21 H 0.9714 0.5323 0.1927
C36 C 0.7303(4) 0.5636(4) 0.27509(13)
C37 C 0.9304(5) 0.4243(5) 0.37456(15)
H22 H 0.9607 0.4298 0.3885
H23 H 0.9442 0.4163 0.3574
H24 H 0.8894 0.3888 0.3792
C38 C 0.8686(2) 0.5404(3) 0.38375(10)
C39 C 0.87393(19) 0.4858(3) 0.38469(9)
H25 H 0.8429 0.4495 0.3935
C40 C 0.9256(2) 0.4856(2) 0.37241(8)
C41 C 0.97190(17) 0.5399(2) 0.35918(8)
C42 C 0.9666(2) 0.5944(2) 0.35824(9)
C43 C 0.9150(3) 0.5947(3) 0.37053(10)
H26 H 0.9115 0.6312 0.3699
C45 C 0.7528(5) 0.6065(4) 0.30027(18)
H30 H 0.7440 0.5807 0.3163
H31 H 0.7306 0.6300 0.3014
H32 H 0.7978 0.6356 0.2990
C47 C 0.8242(6) 0.2776(7) 0.1731(3)
H36 H 0.7858 0.2621 0.1836
H37 H 0.8331 0.2436 0.1702
H38 H 0.8188 0.2930 0.1558
C48 C 0.8130(5) 0.5423(8) 0.3974(2)
H39 H 0.7752 0.5012 0.3959
H40 H 0.8061 0.5738 0.3886
H41 H 0.8226 0.5530 0.4163
C49 C 0.7802(11) 0.2205(9) 0.3417(5)
Sr5 Sr 0.67523(8) 0.48297(6) 0.22824(2)
O13 O 0.7817(2) 0.4295(3) 0.31343(9)
O14 O 0.7603(2) 0.3472(3) 0.34046(8)
O15 O 0.7590(3) 0.3811(2) 0.25688(9)
O16 O 0.7832(3) 0.5098(2) 0.22355(9)
O17 O 0.7719(4) 0.3056(3) 0.27809(9)
O18 O 0.8683(4) 0.5820(3) 0.24545(10)
H42 H 0.908849 0.599694 0.29594
H43 H 0.843925 0.583728 0.311976
H44 H 0.74076 0.193146 0.327737
H45 H 0.799647 0.190971 0.348674
H46 H 0.763142 0.235533 0.35917
O5_2 O 0.6528(3) 0.4131(2) 0.00712(8)
C1_2 C 0.6071(4) 0.3594(3) 0.00023(11)
C2_2 C 0.54765(26) 0.08565(16) 0.10685(5)
C3_2 C 0.55419(23) 0.13821(15) 0.09258(6)
C4_2 C 0.56037(23) 0.14063(15) 0.06433(6)
C5_2 C 0.55998(27) 0.09048(18) 0.05036(5)
H1_2 H 0.5641 0.0921 0.0314
C6_2 C 0.55349(24) 0.03792(16) 0.06463(6)
C7_2 C 0.54731(23) 0.03550(14) 0.09288(6)
C8_2 C 0.57230(24) 0.19750(14) 0.04799(7)
C9_2 C 0.61974(26) 0.25824(17) 0.05563(7)
H2_2 H 0.6440 0.2637 0.0711
C10_2 C 0.63090(24) 0.31080(14) 0.04003(7)
H3_2 H 0.6626 0.3514 0.0451
C11_2 C 0.59460(24) 0.30261(15) 0.01680(7)
C12_2 C 0.54717(27) 0.24187(18) 0.00916(7)
C13_2 C 0.53601(24) 0.18931(14) 0.02475(8)
H5_2 H 0.5043 0.1487 0.0196
C14_2 C 0.64737(27) 0.24727(18) 0.19677(7)
H6_2 H 0.6324 0.2588 0.1816
C15_2 C 0.63010(26) 0.18380(16) 0.20087(7)
C16_2 C 0.65246(25) 0.16656(15) 0.22357(8)
H7_2 H 0.6409 0.1241 0.2263
C17_2 C 0.69218(28) 0.21278(19) 0.24218(7)
H8_2 H 0.7071 0.2012 0.2573
C18_2 C 0.70954(26) 0.27624(17) 0.23809(7)
C19_2 C 0.68712(24) 0.29349(14) 0.21538(8)
H9_2 H 0.6987 0.3359 0.2126
C26_2 C 0.7512(4) 0.3263(3) 0.25908(12)
C27_2 C 0.6536(5) 0.1868(3) 0.14122(13)
H12_2 H 0.6583 0.2277 0.1455
H13_2 H 0.6518 0.1814 0.1217
H14_2 H 0.6893 0.1845 0.1483
C28_2 C 0.5415(4) 0.1870(3) 0.10694(12)
H15_2 H 0.5247 0.1718 0.1248
H16_2 H 0.5113 0.1930 0.0965
H17_2 H 0.5807 0.2269 0.1084
C29_2 C 0.53278(36) 0.07988(19) 0.19455(5)
H18_2 H 0.5280 0.0786 0.2134
C30_2 C 0.58442(26) 0.13182(16) 0.18228(6)
C31_2 C 0.59152(26) 0.13372(16) 0.15409(7)
C32_2 C 0.54708(27) 0.08368(18) 0.13816(5)
C33_2 C 0.49544(26) 0.03174(16) 0.15042(7)
C34_2 C 0.48834(34) 0.02984(17) 0.17861(7)
C44_2 C 0.3614(7) 0.0170(5) 0.1780(2)
H27_2 H 0.3866 0.0572 0.1871
H28_2 H 0.3171 0.0045 0.1792
H29_2 H 0.3739 0.0212 0.1592
C46_2 C 0.6692(8) 0.0323(6) 0.0574(3)
H33_2 H 0.6669 0.0707 0.0582
H34_2 H 0.7033 0.0386 0.0454
H35_2 H 0.6770 0.0217 0.0753
O3_2 O 0.5705(3) 0.3522(2) 0.98009(9)
H4_2 H 0.5229 0.2364 0.9936
Sr3_2 Sr 0.51703(10) 0.32477(8) 0.93843(2)
Sr6_2 Sr 0.65458(7) 0.47008(6) 0.97778(2)
P1_2 P 0.47496(11) 0.93563(7) 0.12100(3)
O1_2 O 0.3043(4) 0.8698(3) 0.13816(11)
O2_2 O 0.54132(28) 0.98362(19) 0.10710(8)
O4_2 O 0.42420(28) 0.89600(19) 0.10100(7)
O6_2 O 0.45354(28) 0.98174(19) 0.13472(8)
O7_2 O 0.4932(3) 0.9037(2) 0.14239(8)
O9_2 O 0.2168(3) 0.7266(2) 0.10978(9)
O10_2 O 0.5532(4) 0.8304(3) 0.16083(11)
O12_2 O 0.1317(4) 0.7137(3) 0.08788(10)
C20_2 C 0.55090(27) 0.98170(18) 0.04879(9)
C21_2 C 0.4941(3) 0.9343(2) 0.03754(8)
C22_2 C 0.4926(4) 0.8831(2) 0.02401(9)
H10_2 H 0.4546 0.8514 0.0164
C23_2 C 0.5478(3) 0.8793(2) 0.02174(12)
C24_2 C 0.6045(4) 0.9266(3) 0.03299(14)
H11_2 H 0.6415 0.9241 0.0314
C25_2 C 0.6061(4) 0.9779(2) 0.04652(12)
C35_2 C 0.4347(6) 0.9383(4) 0.03820(14)
H19_2 H 0.4275 0.9479 0.0564
H20_2 H 0.3993 0.8983 0.0325
H21_2 H 0.4391 0.9714 0.0260
C36_2 C 0.1667(6) 0.7303(4) 0.10842(13)
C37_2 C 0.5061(7) 0.9304(5) 0.20789(15)
H22_2 H 0.5309 0.9607 0.2218
H23_2 H 0.5279 0.9442 0.1907
H24_2 H 0.5006 0.8894 0.2125
C38_2 C 0.3282(4) 0.8686(2) 0.21708(10)
C39_2 C 0.38813(36) 0.87393(19) 0.21802(9)
H25_2 H 0.3934 0.8429 0.2268
C40_2 C 0.4400(3) 0.9256(2) 0.20574(8)
C41_2 C 0.43200(26) 0.97190(17) 0.19251(8)
C42_2 C 0.3722(3) 0.9666(2) 0.19157(9)
C43_2 C 0.3203(4) 0.9150(3) 0.20386(10)
H26_2 H 0.2803 0.9115 0.2032
C45_2 C 0.1463(6) 0.7528(5) 0.13360(18)
H30_2 H 0.1633 0.7440 0.1496
H31_2 H 0.1006 0.7306 0.1347
H32_2 H 0.1622 0.7978 0.1323
C47_2 C 0.5466(9) 0.8242(6) 0.0064(3)
H36_2 H 0.5237 0.7858 0.0169
H37_2 H 0.5895 0.8331 0.0035
C48_2 C 0.2707(9) 0.8130(5) 0.2307(2)
H39_2 H 0.2740 0.7752 0.2292
H40_2 H 0.2323 0.8061 0.2219
H41_2 H 0.2696 0.8226 0.2496
C49_2 C 0.5597(14) 0.7802(11) 0.1750(5)
Sr5_2 Sr 0.19226(10) 0.67523(8) 0.06157(2)
O15_2 O 0.3779(4) 0.7590(3) 0.09022(9)
O16_2 O 0.2734(4) 0.7832(3) 0.05688(9)
O17_2 O 0.4663(5) 0.7719(4) 0.11143(9)
O18_2 O 0.2863(5) 0.8683(4) 0.07878(10)
H42_2 H 0.309155 0.908849 0.129274
H43_2 H 0.260198 0.843925 0.145309
H44_2 H 0.547613 0.74076 0.16107
H45_2 H 0.608675 0.799647 0.182008
H46_2 H 0.527609 0.763142 0.192503
C14_3 C 0.4001(2) 0.64737(27) 0.03011(7)
H6_3 H 0.3736 0.6324 0.0150
C15_3 C 0.4463(2) 0.63010(26) 0.03421(7)
C16_3 C 0.4859(2) 0.65246(25) 0.05691(8)
H7_3 H 0.5168 0.6409 0.0597
C17_3 C 0.4794(2) 0.69218(28) 0.07552(7)
H8_3 H 0.5059 0.7071 0.0907
C18_3 C 0.4333(2) 0.70954(26) 0.07143(7)
C19_3 C 0.39363(19) 0.68712(24) 0.04872(8)
H9_3 H 0.3628 0.6987 0.0460
C26_3 C 0.4249(3) 0.7512(4) 0.09242(12)
C29_3 C 0.4529(3) 0.53278(36) 0.02789(5)
H18_3 H 0.4494 0.5280 0.0468
C30_3 C 0.4526(2) 0.58442(26) 0.01562(6)
C34_3 C 0.4585(3) 0.48834(34) 0.01195(7)
C37_3 C 0.5757(5) 0.5061(7) 0.04123(15)
H22_3 H 0.5702 0.5309 0.0552
H23_3 H 0.5837 0.5279 0.0241
H24_3 H 0.6112 0.5006 0.0459
C38_3 C 0.4596(3) 0.3282(4) 0.05042(10)
C39_3 C 0.5142(3) 0.38813(36) 0.05136(9)
H25_3 H 0.5505 0.3934 0.0602
C40_3 C 0.5144(2) 0.4400(3) 0.03908(8)
C41_3 C 0.4601(2) 0.43200(26) 0.02585(8)
C42_3 C 0.4056(2) 0.3722(3) 0.02491(9)
C43_3 C 0.4053(3) 0.3203(4) 0.03720(10)
H26_3 H 0.3688 0.2803 0.0366
C44_3 C 0.3444(5) 0.3614(7) 0.0114(2)
H27_3 H 0.3294 0.3866 0.0205
H28_3 H 0.3126 0.3171 0.0126
C48_3 C 0.4577(8) 0.2707(9) 0.0641(2)
H39_3 H 0.4988 0.2740 0.0626
H40_3 H 0.4262 0.2323 0.0553
H41_3 H 0.4470 0.2696 0.0830
C49_3 C 0.7795(9) 0.5597(14) 0.0084(5)
H45_3 H 0.809029 0.608675 0.015341
H46_3 H 0.764467 0.527609 0.0258363
P1_3 P 0.53933(8) 0.47496(11) 0.95434(3)
O1_3 O 0.4345(3) 0.3043(4) 0.97150(11)
O2_3 O 0.5577(2) 0.54132(28) 0.94044(8)
O3_3 O 0.2183(2) 0.5705(3) 0.81343(9)
O4_3 O 0.5282(2) 0.42420(28) 0.93434(7)
O5_3 O 0.2397(2) 0.6528(3) 0.84046(8)
O6_3 O 0.4718(2) 0.45354(28) 0.96806(8)
O7_3 O 0.5895(2) 0.4932(3) 0.97573(8)
O9_3 O 0.4902(2) 0.2168(3) 0.94312(9)
O10_3 O 0.7228(3) 0.5532(4) 0.99417(11)
O12_3 O 0.4180(3) 0.1317(4) 0.92122(10)
C1_3 C 0.2477(3) 0.6071(4) 0.83357(11)
C2_3 C 0.4620(2) 0.54765(26) 0.94019(5)
C3_3 C 0.41598(17) 0.55419(23) 0.92592(6)
C4_3 C 0.41974(18) 0.56037(23) 0.89767(6)
C5_3 C 0.4695(2) 0.55998(27) 0.88370(5)
H1_3 H 0.4720 0.5641 0.8648
C6_3 C 0.51557(18) 0.55349(24) 0.89797(6)
C7_3 C 0.51181(18) 0.54731(23) 0.92622(6)
C8_3 C 0.3748(2) 0.57230(24) 0.88133(7)
C9_3 C 0.3615(2) 0.61974(26) 0.88897(7)
H2_3 H 0.3803 0.6440 0.9045
C10_3 C 0.3201(2) 0.63090(24) 0.87337(7)
H3_3 H 0.3112 0.6626 0.8785
C11_3 C 0.29199(19) 0.59460(24) 0.85014(7)
C12_3 C 0.3053(2) 0.54717(27) 0.84250(7)
H4_3 H 0.2865 0.5229 0.8270
C13_3 C 0.3467(2) 0.53601(24) 0.85809(8)
H5_3 H 0.3556 0.5043 0.8530
C20_3 C 0.5692(2) 0.55090(27) 0.88213(9)
C21_3 C 0.5598(2) 0.4941(3) 0.87088(8)
C22_3 C 0.6095(3) 0.4926(4) 0.85735(9)
H10_3 H 0.6032 0.4546 0.8498
C23_3 C 0.6685(2) 0.5478(3) 0.85508(12)
C24_3 C 0.6779(2) 0.6045(4) 0.86633(14)
H11_3 H 0.7174 0.6415 0.8648
C25_3 C 0.6282(3) 0.6061(4) 0.87986(12)
C27_3 C 0.4668(4) 0.6536(5) 0.97456(13)
H12_3 H 0.4306 0.6583 0.9789
H13_3 H 0.4704 0.6518 0.9551
H14_3 H 0.5048 0.6893 0.9817
C28_3 C 0.3545(3) 0.5415(4) 0.94028(12)
H15_3 H 0.3529 0.5247 0.9582
H16_3 H 0.3183 0.5113 0.9299
H17_3 H 0.3538 0.5807 0.9418
C31_3 C 0.4578(2) 0.59152(26) 0.98743(7)
C32_3 C 0.4634(2) 0.54708(27) 0.97150(5)
C33_3 C 0.4637(2) 0.49544(26) 0.98376(7)
C35_3 C 0.4964(4) 0.4347(6) 0.87154(14)
H19_3 H 0.4796 0.4275 0.8898
H20_3 H 0.5010 0.3993 0.8659
H21_3 H 0.4677 0.4391 0.8594
C36_3 C 0.4364(4) 0.1667(6) 0.94176(13)
H29_3 H 0.3527 0.3739 0.9926
C45_3 C 0.3935(4) 0.1463(6) 0.96694(18)
H30_3 H 0.4193 0.1633 0.9830
H31_3 H 0.3700 0.1006 0.9681
H32_3 H 0.3644 0.1622 0.9657
C46_3 C 0.6369(6) 0.6692(8) 0.8908(3)
H33_3 H 0.5962 0.6669 0.8916
H34_3 H 0.6647 0.7033 0.8788
H35_3 H 0.6553 0.6770 0.9087
C47_3 C 0.7224(7) 0.5466(9) 0.8398(3)
H36_3 H 0.7379 0.5237 0.8503
H37_3 H 0.7564 0.5895 0.8369
H38_2 H 0.7070 0.5258 0.8225
Sr3_3 Sr 0.19226(6) 0.51703(10) 0.77176(2)
Sr5_3 Sr 0.51703(6) 0.19226(10) 0.89491(2)
Sr6_3 Sr 0.18450(4) 0.65458(7) 0.81111(2)
O15_3 O 0.6189(2) 0.3779(4) 0.92355(9)
O16_3 O 0.4902(2) 0.2734(4) 0.89022(9)
O17_3 O 0.6944(3) 0.4663(5) 0.94476(9)
O18_3 O 0.4180(3) 0.2863(5) 0.91212(10)
H42_3 H 0.400306 0.309155 0.962607
H43_3 H 0.416272 0.260198 0.978643
H44_3 H 0.806854 0.547613 0.994404
P1_4 P 0.06437(7) 0.53933(8) 0.78767(3)
O1_4 O 0.1302(3) 0.4345(3) 0.80483(11)
O2_4 O 0.01638(19) 0.5577(2) 0.77377(8)
O4_4 O 0.10400(19) 0.5282(2) 0.76767(7)
O6_4 O 0.01826(19) 0.4718(2) 0.80139(8)
O7_4 O 0.0963(2) 0.5895(2) 0.80906(8)
O9_4 O 0.2734(2) 0.4902(2) 0.77645(9)
O10_4 O 0.1696(3) 0.7228(3) 0.82750(11)
O12_4 O 0.2863(3) 0.4180(3) 0.75455(10)
C20_4 C 0.01830(18) 0.5692(2) 0.71546(9)
C21_4 C 0.0657(2) 0.5598(2) 0.70421(8)
C22_4 C 0.1169(2) 0.6095(3) 0.69068(9)
H10_4 H 0.1486 0.6032 0.6831
C23_4 C 0.1207(2) 0.6685(2) 0.68841(12)
C24_4 C 0.0734(3) 0.6779(2) 0.69966(14)
H11_4 H 0.0759 0.7174 0.6981
C25_4 C 0.0221(2) 0.6282(3) 0.71319(12)
C35_4 C 0.0617(4) 0.4964(4) 0.70487(14)
H19_4 H 0.0521 0.4796 0.7231
H20_4 H 0.1017 0.5010 0.6992
H21_4 H 0.0286 0.4677 0.6927
C36_4 C 0.2697(4) 0.4364(4) 0.77509(13)
C37_4 C 0.0696(5) 0.5757(5) 0.87456(15)
H22_4 H 0.0393 0.5702 0.8885
H23_4 H 0.0558 0.5837 0.8574
H24_4 H 0.1106 0.6112 0.8792
C38_4 C 0.1314(2) 0.4596(3) 0.88375(10)
C39_4 C 0.12607(19) 0.5142(3) 0.88469(9)
H25_4 H 0.1571 0.5505 0.8935
C40_4 C 0.0744(2) 0.5144(2) 0.87241(8)
C41_4 C 0.02810(17) 0.4601(2) 0.85918(8)
C42_4 C 0.0334(2) 0.4056(2) 0.85824(9)
C43_4 C 0.0850(3) 0.4053(3) 0.87053(10)
H26_4 H 0.0885 0.3688 0.8699
C45_4 C 0.2472(5) 0.3935(4) 0.80027(18)
H30_4 H 0.2560 0.4193 0.8163
H31_4 H 0.2694 0.3700 0.8014
H32_4 H 0.2022 0.3644 0.7990
C47_4 C 0.1758(6) 0.7224(7) 0.6731(3)
H36_4 H 0.2142 0.7379 0.6836
H37_4 H 0.1669 0.7564 0.6702
H38_3 H 0.1812 0.7070 0.6558
C48_4 C 0.1870(5) 0.4577(8) 0.8974(2)
H39_4 H 0.2248 0.4988 0.8959
H40_4 H 0.1939 0.4262 0.8886
H41_4 H 0.1774 0.4470 0.9163
C49_4 C 0.2198(11) 0.7795(9) 0.8417(5)
Sr5_4 Sr 0.32477(8) 0.51703(6) 0.72824(2)
O15_4 O 0.2410(3) 0.6189(2) 0.75688(9)
O16_4 O 0.2168(3) 0.4902(2) 0.72355(9)
O17_4 O 0.2281(4) 0.6944(3) 0.77809(9)
O18_4 O 0.1317(4) 0.4180(3) 0.74545(10)
H42_4 H 0.0911506 0.400306 0.79594
H43_4 H 0.156075 0.416272 0.811976
H44_4 H 0.25924 0.806854 0.827737
H45_4 H 0.200353 0.809029 0.848674
H46_4 H 0.236858 0.764467 0.85917
O3_4 O 0.6478(2) 0.2183(2) 0.64676(9)
O5_4 O 0.5869(2) 0.2397(2) 0.67379(8)
C1_4 C 0.6406(3) 0.2477(3) 0.66690(11)
C2_4 C 0.91435(16) 0.4620(2) 0.77352(5)
C3_4 C 0.86179(15) 0.41598(17) 0.75925(6)
C4_4 C 0.85937(15) 0.41974(18) 0.73100(6)
C5_4 C 0.90952(18) 0.4695(2) 0.71703(5)
H1_4 H 0.9079 0.4720 0.6981
C6_4 C 0.96208(16) 0.51557(18) 0.73130(6)
C7_4 C 0.96450(14) 0.51181(18) 0.75955(6)
C8_4 C 0.80250(14) 0.3748(2) 0.71466(7)
C9_4 C 0.74176(17) 0.3615(2) 0.72230(7)
H2_4 H 0.7363 0.3803 0.7378
C10_4 C 0.68920(14) 0.3201(2) 0.70670(7)
H3_4 H 0.6486 0.3112 0.7118
C11_4 C 0.69739(15) 0.29199(19) 0.68347(7)
C12_4 C 0.75813(18) 0.3053(2) 0.67583(7)
H4_4 H 0.7636 0.2865 0.6603
C13_4 C 0.81069(14) 0.3467(2) 0.69142(8)
H5_4 H 0.8513 0.3556 0.6863
C14_4 C 0.75273(18) 0.4001(2) 0.86344(7)
H6_4 H 0.7412 0.3736 0.8483
C15_4 C 0.81620(16) 0.4463(2) 0.86754(7)
C16_4 C 0.83344(15) 0.4859(2) 0.89024(8)
H7_4 H 0.8759 0.5168 0.8930
C17_4 C 0.78722(19) 0.4794(2) 0.90885(7)
H8_4 H 0.7988 0.5059 0.9240
C18_4 C 0.72376(17) 0.4333(2) 0.90476(7)
C19_4 C 0.70651(14) 0.39363(19) 0.88205(8)
H9_4 H 0.6641 0.3628 0.8793
C26_4 C 0.6737(3) 0.4249(3) 0.92575(12)
C27_4 C 0.8132(3) 0.4668(4) 0.80789(13)
H12_4 H 0.7723 0.4306 0.8122
H13_4 H 0.8186 0.4704 0.7884
H14_4 H 0.8155 0.5048 0.8150
C28_4 C 0.8130(3) 0.3545(3) 0.77361(12)
H15_4 H 0.8282 0.3529 0.7915
H16_4 H 0.8070 0.3183 0.7632
H17_4 H 0.7731 0.3538 0.7751
C29_4 C 0.92012(19) 0.4529(3) 0.86122(5)
H18_4 H 0.9214 0.4494 0.8801
C30_4 C 0.86818(16) 0.4526(2) 0.84895(6)
C31_4 C 0.86628(16) 0.4578(2) 0.82076(7)
C32_4 C 0.91632(18) 0.4634(2) 0.80483(5)
C33_4 C 0.96826(16) 0.4637(2) 0.81709(7)
C34_4 C 0.97016(17) 0.4585(3) 0.84528(7)
C44_4 C 0.9830(5) 0.3444(5) 0.8447(2)
H27_4 H 0.9428 0.3294 0.8538
H28_4 H 0.9955 0.3126 0.8459
H29_4 H 0.9788 0.3527 0.8259
C46_4 C 0.9677(6) 0.6369(6) 0.7241(3)
H33_4 H 0.9293 0.5962 0.7249
H34_4 H 0.9614 0.6647 0.7121
H35_4 H 0.9783 0.6553 0.7420
Sr3_4 Sr 0.67523(8) 0.19226(6) 0.60509(2)
Sr6_4 Sr 0.52992(6) 0.18450(4) 0.64444(2)
P1_5 P 0.52504(11) 0.06437(7) 0.62100(3)
O1_5 O 0.6957(4) 0.1302(3) 0.63816(11)
O2_5 O 0.45868(28) 0.01638(19) 0.60710(8)
O4_5 O 0.57580(28) 0.10400(19) 0.60100(7)
O6_5 O 0.54646(28) 0.01826(19) 0.63472(8)
O7_5 O 0.5068(3) 0.0963(2) 0.64239(8)
O9_5 O 0.7832(3) 0.2734(2) 0.60978(9)
O10_5 O 0.4468(4) 0.1696(3) 0.66083(11)
O12_5 O 0.8683(4) 0.2863(3) 0.58788(10)
C20_5 C 0.44910(27) 0.01830(18) 0.54879(9)
C21_5 C 0.5059(3) 0.0657(2) 0.53754(8)
C22_5 C 0.5074(4) 0.1169(2) 0.52401(9)
H10_5 H 0.5454 0.1486 0.5164
C23_5 C 0.4522(3) 0.1207(2) 0.52174(12)
C24_5 C 0.3955(4) 0.0734(3) 0.53299(14)
H11_5 H 0.3585 0.0759 0.5314
C25_5 C 0.3939(4) 0.0221(2) 0.54652(12)
C35_5 C 0.5653(6) 0.0617(4) 0.53820(14)
H19_5 H 0.5725 0.0521 0.5564
H20_5 H 0.6007 0.1017 0.5325
H21_5 H 0.5609 0.0286 0.5260
C36_5 C 0.8333(6) 0.2697(4) 0.60842(13)
C37_5 C 0.4939(7) 0.0696(5) 0.70789(15)
H22_5 H 0.4691 0.0393 0.7218
H23_5 H 0.4721 0.0558 0.6907
H24_5 H 0.4994 0.1106 0.7125
C38_5 C 0.6718(4) 0.1314(2) 0.71708(10)
C39_5 C 0.61187(36) 0.12607(19) 0.71802(9)
H25_5 H 0.6066 0.1571 0.7268
C40_5 C 0.5600(3) 0.0744(2) 0.70574(8)
C41_5 C 0.56800(26) 0.02810(17) 0.69251(8)
C42_5 C 0.6278(3) 0.0334(2) 0.69157(9)
C43_5 C 0.6797(4) 0.0850(3) 0.70386(10)
H26_5 H 0.7197 0.0885 0.7032
C45_5 C 0.8537(6) 0.2472(5) 0.63360(18)
H30_5 H 0.8367 0.2560 0.6496
H31_5 H 0.8994 0.2694 0.6347
H32_5 H 0.8378 0.2022 0.6323
C47_5 C 0.4534(9) 0.1758(6) 0.5064(3)
H36_5 H 0.4763 0.2142 0.5169
H37_5 H 0.4105 0.1669 0.5035
H38_4 H 0.4742 0.1812 0.4891
C48_5 C 0.7293(9) 0.1870(5) 0.7307(2)
H39_5 H 0.7260 0.2248 0.7292
H40_5 H 0.7677 0.1939 0.7219
H41_5 H 0.7304 0.1774 0.7496
C49_5 C 0.4403(14) 0.2198(11) 0.6750(5)
Sr5_5 Sr 0.80774(10) 0.32477(8) 0.56157(2)
O15_5 O 0.6221(4) 0.2410(3) 0.59022(9)
O16_5 O 0.7266(4) 0.2168(3) 0.55688(9)
O17_5 O 0.5337(5) 0.2281(4) 0.61143(9)
O18_5 O 0.7137(5) 0.1317(4) 0.57878(10)
H42_5 H 0.690845 0.0911506 0.629274
H43_5 H 0.739802 0.156075 0.645309
H44_5 H 0.452387 0.25924 0.66107
H45_5 H 0.391325 0.200353 0.682008
H46_5 H 0.472391 0.236858 0.692503
O3_5 O 0.4295(3) 0.6478(2) 0.48009(9)
O5_5 O 0.3472(3) 0.5869(2) 0.50712(8)
C1_5 C 0.3929(4) 0.6406(3) 0.50023(11)
C2_5 C 0.45235(26) 0.91435(16) 0.60685(5)
C3_5 C 0.44581(23) 0.86179(15) 0.59258(6)
C4_5 C 0.43963(23) 0.85937(15) 0.56433(6)
C5_5 C 0.44002(27) 0.90952(18) 0.55036(5)
H1_5 H 0.4359 0.9079 0.5314
C6_5 C 0.44651(24) 0.96208(16) 0.56463(6)
C7_5 C 0.45269(23) 0.96450(14) 0.59288(6)
C8_5 C 0.42770(24) 0.80250(14) 0.54799(7)
C9_5 C 0.38026(26) 0.74176(17) 0.55563(7)
H2_5 H 0.3560 0.7363 0.5711
C10_5 C 0.36910(24) 0.68920(14) 0.54003(7)
H3_5 H 0.3374 0.6486 0.5451
C11_5 C 0.40540(24) 0.69739(15) 0.51680(7)
C12_5 C 0.45283(27) 0.75813(18) 0.50916(7)
H4_5 H 0.4771 0.7636 0.4936
C13_5 C 0.46399(24) 0.81069(14) 0.52475(8)
H5_5 H 0.4957 0.8513 0.5196
C14_5 C 0.35263(27) 0.75273(18) 0.69677(7)
H6_5 H 0.3676 0.7412 0.6816
C15_5 C 0.36990(26) 0.81620(16) 0.70087(7)
C16_5 C 0.34754(25) 0.83344(15) 0.72357(8)
H7_5 H 0.3591 0.8759 0.7263
C17_5 C 0.30782(28) 0.78722(19) 0.74218(7)
H8_5 H 0.2929 0.7988 0.7573
C18_5 C 0.29046(26) 0.72376(17) 0.73809(7)
C19_5 C 0.31288(24) 0.70651(14) 0.71538(8)
H9_5 H 0.3013 0.6641 0.7126
C26_5 C 0.2488(4) 0.6737(3) 0.75908(12)
C27_5 C 0.3464(5) 0.8132(3) 0.64122(13)
H12_5 H 0.3417 0.7723 0.6455
H13_5 H 0.3482 0.8186 0.6217
H14_5 H 0.3107 0.8155 0.6483
C28_5 C 0.4585(4) 0.8130(3) 0.60694(12)
H15_5 H 0.4753 0.8282 0.6248
H16_5 H 0.4887 0.8070 0.5965
H17_5 H 0.4193 0.7731 0.6084
C29_5 C 0.46722(36) 0.92012(19) 0.69455(5)
H18_5 H 0.4720 0.9214 0.7134
C30_5 C 0.41558(26) 0.86818(16) 0.68228(6)
C31_5 C 0.40848(26) 0.86628(16) 0.65409(7)
C32_5 C 0.45292(27) 0.91632(18) 0.63816(5)
C33_5 C 0.50456(26) 0.96826(16) 0.65042(7)
C34_5 C 0.51166(34) 0.97016(17) 0.67861(7)
C44_5 C 0.6386(7) 0.9830(5) 0.6780(2)
H27_5 H 0.6134 0.9428 0.6871
H28_5 H 0.6829 0.9955 0.6792
H29_5 H 0.6261 0.9788 0.6592
C46_5 C 0.3308(8) 0.9677(6) 0.5574(3)
H33_5 H 0.3331 0.9293 0.5582
H34_5 H 0.2967 0.9614 0.5454
H35_5 H 0.3230 0.9783 0.5753
P1_6 P 0.46067(8) 0.52504(11) 0.45434(3)
O1_6 O 0.5655(3) 0.6957(4) 0.47150(11)
O2_6 O 0.4423(2) 0.45868(28) 0.44044(8)
O4_6 O 0.4718(2) 0.57580(28) 0.43434(7)
O6_6 O 0.5282(2) 0.54646(28) 0.46806(8)
O7_6 O 0.4105(2) 0.5068(3) 0.47573(8)
O9_6 O 0.5098(2) 0.7832(3) 0.44312(9)
O10_6 O 0.2772(3) 0.4468(4) 0.49417(11)
O12_6 O 0.5820(3) 0.8683(4) 0.42122(10)
C1_6 C 0.7523(3) 0.3929(4) 0.33357(11)
C2_6 C 0.5380(2) 0.45235(26) 0.44019(5)
C3_6 C 0.58402(17) 0.44581(23) 0.42592(6)
C4_6 C 0.58026(18) 0.43963(23) 0.39767(6)
C5_6 C 0.5305(2) 0.44002(27) 0.38370(5)
H1_6 H 0.5280 0.4359 0.3648
C6_6 C 0.48443(18) 0.44651(24) 0.39797(6)
C7_6 C 0.48819(18) 0.45269(23) 0.42622(6)
C8_6 C 0.6252(2) 0.42770(24) 0.38133(7)
C9_6 C 0.6385(2) 0.38026(26) 0.38897(7)
H2_6 H 0.6197 0.3560 0.4045
C10_6 C 0.6799(2) 0.36910(24) 0.37337(7)
H3_6 H 0.6888 0.3374 0.3785
C11_6 C 0.70801(19) 0.40540(24) 0.35014(7)
C12_6 C 0.6947(2) 0.45283(27) 0.34250(7)
H4_6 H 0.7135 0.4771 0.3270
C13_6 C 0.6533(2) 0.46399(24) 0.35809(8)
H5_6 H 0.6444 0.4957 0.3530
C14_6 C 0.5999(2) 0.35263(27) 0.53011(7)
H6_6 H 0.6264 0.3676 0.5150
C15_6 C 0.5537(2) 0.36990(26) 0.53421(7)
C16_6 C 0.5141(2) 0.34754(25) 0.55691(8)
H7_6 H 0.4832 0.3591 0.5597
C17_6 C 0.5206(2) 0.30782(28) 0.57552(7)
H8_6 H 0.4941 0.2929 0.5907
C18_6 C 0.5667(2) 0.29046(26) 0.57143(7)
C19_6 C 0.60637(19) 0.31288(24) 0.54872(8)
H9_6 H 0.6372 0.3013 0.5460
C20_6 C 0.4308(2) 0.44910(27) 0.38213(9)
C21_6 C 0.4402(2) 0.5059(3) 0.37088(8)
C22_6 C 0.3905(3) 0.5074(4) 0.35735(9)
H10_6 H 0.3968 0.5454 0.3498
C23_6 C 0.3315(2) 0.4522(3) 0.35508(12)
C24_6 C 0.3221(2) 0.3955(4) 0.36633(14)
H11_6 H 0.2826 0.3585 0.3648
C25_6 C 0.3718(3) 0.3939(4) 0.37986(12)
C26_6 C 0.5751(3) 0.2488(4) 0.59242(12)
C27_6 C 0.5332(4) 0.3464(5) 0.47456(13)
H12_6 H 0.5694 0.3417 0.4789
H13_6 H 0.5296 0.3482 0.4551
H14_6 H 0.4952 0.3107 0.4817
C28_6 C 0.6455(3) 0.4585(4) 0.44028(12)
H15_6 H 0.6471 0.4753 0.4582
H16_6 H 0.6817 0.4887 0.4299
H17_6 H 0.6462 0.4193 0.4418
C29_6 C 0.5471(3) 0.46722(36) 0.52789(5)
H18_6 H 0.5506 0.4720 0.5468
C30_6 C 0.5474(2) 0.41558(26) 0.51562(6)
C31_6 C 0.5422(2) 0.40848(26) 0.48743(7)
C32_6 C 0.5366(2) 0.45292(27) 0.47150(5)
C33_6 C 0.5363(2) 0.50456(26) 0.48376(7)
C34_6 C 0.5415(3) 0.51166(34) 0.51195(7)
C35_6 C 0.5036(4) 0.5653(6) 0.37154(14)
H19_6 H 0.5204 0.5725 0.3898
H20_6 H 0.4990 0.6007 0.3659
H21_6 H 0.5323 0.5609 0.3594
C36_6 C 0.5636(4) 0.8333(6) 0.44176(13)
C37_6 C 0.4243(5) 0.4939(7) 0.54123(15)
H22_6 H 0.4298 0.4691 0.5552
H23_6 H 0.4163 0.4721 0.5241
H24_6 H 0.3888 0.4994 0.5459
C38_6 C 0.5404(3) 0.6718(4) 0.55042(10)
C39_6 C 0.4858(3) 0.61187(36) 0.55136(9)
H25_6 H 0.4495 0.6066 0.5602
C40_6 C 0.4856(2) 0.5600(3) 0.53908(8)
C41_6 C 0.5399(2) 0.56800(26) 0.52585(8)
C42_6 C 0.5944(2) 0.6278(3) 0.52491(9)
C43_6 C 0.5947(3) 0.6797(4) 0.53720(10)
H26_6 H 0.6312 0.7197 0.5366
C44_6 C 0.6556(5) 0.6386(7) 0.5114(2)
H27_6 H 0.6706 0.6134 0.5205
H28_6 H 0.6874 0.6829 0.5126
H29_6 H 0.6473 0.6261 0.4926
C45_6 C 0.6065(4) 0.8537(6) 0.46694(18)
H30_6 H 0.5807 0.8367 0.4830
H31_6 H 0.6300 0.8994 0.4681
H32_6 H 0.6356 0.8378 0.4657
C46_6 C 0.3631(6) 0.3308(8) 0.3908(3)
H33_6 H 0.4038 0.3331 0.3916
H34_6 H 0.3353 0.2967 0.3788
H35_6 H 0.3447 0.3230 0.4087
C47_6 C 0.2776(7) 0.4534(9) 0.3398(3)
H36_6 H 0.2621 0.4763 0.3503
H37_6 H 0.2436 0.4105 0.3369
H38_5 H 0.2930 0.4742 0.3225
C48_6 C 0.5423(8) 0.7293(9) 0.5641(2)
H39_6 H 0.5012 0.7260 0.5626
H40_6 H 0.5738 0.7677 0.5553
H41_6 H 0.5530 0.7304 0.5830
C49_6 C 0.2205(9) 0.4403(14) 0.5084(5)
Sr5_6 Sr 0.48297(6) 0.80774(10) 0.39491(2)
O16_6 O 0.5098(2) 0.7266(4) 0.39022(9)
O18_6 O 0.5820(3) 0.7137(5) 0.41212(10)
H42_6 H 0.599694 0.690845 0.462607
H43_6 H 0.583728 0.739802 0.478643
H44_6 H 0.193146 0.452387 0.494404
H45_6 H 0.190971 0.391325 0.515341
H46_6 H 0.235533 0.472391 0.525836
Sr2_2 Sr 0.65458(4) 0.18450(4) 0.85556(2)
P1_7 P 0.53933(8) 0.06437(7) 0.87900(3)
O1_7 O 0.4345(3) 0.1302(3) 0.86184(11)
O2_7 O 0.5577(2) 0.01638(19) 0.89290(8)
O4_7 O 0.5282(2) 0.10400(19) 0.89900(7)
O6_7 O 0.4718(2) 0.01826(19) 0.86528(8)
O7_7 O 0.5895(2) 0.0963(2) 0.85761(8)
O10_7 O 0.7228(3) 0.1696(3) 0.83917(11)
C20_7 C 0.5692(2) 0.01830(18) 0.95121(9)
C21_7 C 0.5598(2) 0.0657(2) 0.96246(8)
C22_7 C 0.6095(3) 0.1169(2) 0.97599(9)
H10_7 H 0.6032 0.1486 0.9836
C23_7 C 0.6685(2) 0.1207(2) 0.97826(12)
C24_7 C 0.6779(2) 0.0734(3) 0.96701(14)
H11_7 H 0.7174 0.0759 0.9686
C25_7 C 0.6282(3) 0.0221(2) 0.95348(12)
C35_7 C 0.4964(4) 0.0617(4) 0.96180(14)
H19_7 H 0.4796 0.0521 0.9436
H20_7 H 0.5010 0.1017 0.9675
H21_7 H 0.4677 0.0286 0.9740
C36_7 C 0.4364(4) 0.2697(4) 0.89158(13)
C37_7 C 0.5757(5) 0.0696(5) 0.79211(15)
H22_7 H 0.5702 0.0393 0.7782
H23_7 H 0.5837 0.0558 0.8093
H24_7 H 0.6112 0.1106 0.7875
C38_7 C 0.4596(3) 0.1314(2) 0.78292(10)
C39_7 C 0.5142(3) 0.12607(19) 0.78198(9)
H25_7 H 0.5505 0.1571 0.7732
C40_7 C 0.5144(2) 0.0744(2) 0.79426(8)
C41_7 C 0.4601(2) 0.02810(17) 0.80749(8)
C42_7 C 0.4056(2) 0.0334(2) 0.80843(9)
C43_7 C 0.4053(3) 0.0850(3) 0.79614(10)
H26_7 H 0.3688 0.0885 0.7968
C45_7 C 0.3935(4) 0.2472(5) 0.86640(18)
H30_7 H 0.4193 0.2560 0.8504
H31_7 H 0.3700 0.2694 0.8653
H32_7 H 0.3644 0.2022 0.8677
C47_7 C 0.7224(7) 0.1758(6) 0.9936(3)
H36_7 H 0.7379 0.2142 0.9831
H37_7 H 0.7564 0.1669 0.9965
C48_7 C 0.4577(8) 0.1870(5) 0.7693(2)
H39_7 H 0.4988 0.2248 0.7708
H40_7 H 0.4262 0.1939 0.7781
H41_7 H 0.4470 0.1774 0.7504
C49_7 C 0.7795(9) 0.2198(11) 0.8250(5)
O13_2 O 0.5705(3) 0.2183(2) 0.85324(9)
O14_2 O 0.6528(3) 0.2397(2) 0.82621(8)
O15_6 O 0.6189(2) 0.2410(3) 0.90978(9)
O17_6 O 0.6944(3) 0.2281(4) 0.88857(9)
H42_7 H 0.400306 0.0911506 0.870726
H43_7 H 0.416272 0.156075 0.854691
H44_7 H 0.806854 0.25924 0.83893
H45_7 H 0.809029 0.200353 0.817992
H46_7 H 0.764467 0.236858 0.807497
O3_6 O 0.2183(2) 0.6478(2) 0.01991(9)
H4_7 H 0.2865 0.7636 0.0064
Sr6_5 Sr 0.18450(4) 0.52992(6) 0.02222(2)
O5_6 O 0.2397(2) 0.5869(2) 0.99288(8)
O8_2 O 0.3779(2) 0.6189(2) 0.74312(9)
O11_2 O 0.4663(3) 0.6944(3) 0.72191(9)
C1_7 C 0.2477(3) 0.6406(3) 0.99977(11)
C2_7 C 0.4620(2) 0.91435(16) 0.89315(5)
C3_7 C 0.41598(17) 0.86179(15) 0.90742(6)
C4_7 C 0.41974(18) 0.85937(15) 0.93567(6)
C5_7 C 0.4695(2) 0.90952(18) 0.94964(5)
H1_7 H 0.4720 0.9079 0.9686
C6_7 C 0.51557(18) 0.96208(16) 0.93537(6)
C7_7 C 0.51181(18) 0.96450(14) 0.90712(6)
C8_7 C 0.3748(2) 0.80250(14) 0.95201(7)
C9_7 C 0.3615(2) 0.74176(17) 0.94437(7)
H2_7 H 0.3803 0.7363 0.9289
C10_7 C 0.3201(2) 0.68920(14) 0.95997(7)
H3_7 H 0.3112 0.6486 0.9549
C11_7 C 0.29199(19) 0.69739(15) 0.98320(7)
C12_7 C 0.3053(2) 0.75813(18) 0.99084(7)
C13_7 C 0.3467(2) 0.81069(14) 0.97525(8)
H5_7 H 0.3556 0.8513 0.9804
C14_7 C 0.4001(2) 0.75273(18) 0.80323(7)
H6_7 H 0.3736 0.7412 0.8184
C15_7 C 0.4463(2) 0.81620(16) 0.79913(7)
C16_7 C 0.4859(2) 0.83344(15) 0.77643(8)
H7_7 H 0.5168 0.8759 0.7737
C17_7 C 0.4794(2) 0.78722(19) 0.75782(7)
H8_7 H 0.5059 0.7988 0.7427
C18_7 C 0.4333(2) 0.72376(17) 0.76191(7)
C19_7 C 0.39363(19) 0.70651(14) 0.78462(8)
H9_7 H 0.3628 0.6641 0.7874
C26_7 C 0.4249(3) 0.6737(3) 0.74092(12)
C27_7 C 0.4668(4) 0.8132(3) 0.85878(13)
H12_7 H 0.4306 0.7723 0.8545
H13_7 H 0.4704 0.8186 0.8783
H14_7 H 0.5048 0.8155 0.8517
C28_7 C 0.3545(3) 0.8130(3) 0.89306(12)
H15_7 H 0.3529 0.8282 0.8752
H16_7 H 0.3183 0.8070 0.9035
H17_7 H 0.3538 0.7731 0.8916
C29_7 C 0.4529(3) 0.92012(19) 0.80545(5)
H18_7 H 0.4494 0.9214 0.7866
C30_7 C 0.4526(2) 0.86818(16) 0.81772(6)
C31_7 C 0.4578(2) 0.86628(16) 0.84591(7)
C32_7 C 0.4634(2) 0.91632(18) 0.86184(5)
C33_7 C 0.4637(2) 0.96826(16) 0.84958(7)
C34_7 C 0.4585(3) 0.97016(17) 0.82139(7)
C44_7 C 0.3444(5) 0.9830(5) 0.8220(2)
H27_7 H 0.3294 0.9428 0.8129
H28_7 H 0.3126 0.9955 0.8208
H29_7 H 0.3527 0.9788 0.8408
C46_7 C 0.6369(6) 0.9677(6) 0.9426(3)
H33_7 H 0.5962 0.9293 0.9418
H34_7 H 0.6647 0.9614 0.9546
H35_7 H 0.6553 0.9783 0.9247
Sr7_2 Sr 0.47008(6) 0.65458(4) 0.68889(2)
P1_8 P 0.47496(11) 0.53933(8) 0.71233(3)
O1_8 O 0.3043(4) 0.4345(3) 0.69517(11)
O2_8 O 0.54132(28) 0.5577(2) 0.72623(8)
O4_8 O 0.42420(28) 0.5282(2) 0.73233(7)
O6_8 O 0.45354(28) 0.4718(2) 0.69861(8)
O7_8 O 0.4932(3) 0.5895(2) 0.69094(8)
O8_3 O 0.7590(3) 0.3779(2) 0.57645(9)
O10_8 O 0.5532(4) 0.7228(3) 0.67250(11)
O11_3 O 0.7719(4) 0.4663(3) 0.55524(9)
C1_8 C 0.6071(4) 0.2477(3) 0.83310(11)
C2_8 C 0.54765(26) 0.4620(2) 0.72648(5)
C3_8 C 0.55419(23) 0.41598(17) 0.74075(6)
C4_8 C 0.56037(23) 0.41974(18) 0.76900(6)
C5_8 C 0.55998(27) 0.4695(2) 0.78297(5)
H1_8 H 0.5641 0.4720 0.8019
C6_8 C 0.55349(24) 0.51557(18) 0.76870(6)
C7_8 C 0.54731(23) 0.51181(18) 0.74045(6)
C8_8 C 0.57230(24) 0.3748(2) 0.78534(7)
C9_8 C 0.61974(26) 0.3615(2) 0.77770(7)
H2_8 H 0.6440 0.3803 0.7622
C10_8 C 0.63090(24) 0.3201(2) 0.79330(7)
H3_8 H 0.6626 0.3112 0.7882
C11_8 C 0.59460(24) 0.29199(19) 0.81653(7)
C12_8 C 0.54717(27) 0.3053(2) 0.82417(7)
H4_8 H 0.5229 0.2865 0.8397
C13_8 C 0.53601(24) 0.3467(2) 0.80858(8)
H5_8 H 0.5043 0.3556 0.8137
C14_8 C 0.64737(27) 0.4001(2) 0.63656(7)
H6_8 H 0.6324 0.3736 0.6517
C15_8 C 0.63010(26) 0.4463(2) 0.63246(7)
C16_8 C 0.65246(25) 0.4859(2) 0.60976(8)
H7_8 H 0.6409 0.5168 0.6070
C17_8 C 0.69218(28) 0.4794(2) 0.59115(7)
H8_8 H 0.7071 0.5059 0.5760
C18_8 C 0.70954(26) 0.4333(2) 0.59524(7)
C19_8 C 0.68712(24) 0.39363(19) 0.61795(8)
H9_8 H 0.6987 0.3628 0.6207
C20_8 C 0.55090(27) 0.5692(2) 0.78454(9)
C21_8 C 0.4941(3) 0.5598(2) 0.79579(8)
C22_8 C 0.4926(4) 0.6095(3) 0.80932(9)
H10_8 H 0.4546 0.6032 0.8169
C23_8 C 0.5478(3) 0.6685(2) 0.81159(12)
C24_8 C 0.6045(4) 0.6779(2) 0.80034(14)
H11_8 H 0.6415 0.7174 0.8019
C25_8 C 0.6061(4) 0.6282(3) 0.78681(12)
C26_8 C 0.7512(4) 0.4249(3) 0.57425(12)
C27_8 C 0.6536(5) 0.4668(4) 0.69211(13)
H12_8 H 0.6583 0.4306 0.6878
H13_8 H 0.6518 0.4704 0.7116
H14_8 H 0.6893 0.5048 0.6850
C28_8 C 0.5415(4) 0.3545(3) 0.72639(12)
H15_8 H 0.5247 0.3529 0.7085
H16_8 H 0.5113 0.3183 0.7368
H17_8 H 0.5807 0.3538 0.7249
C29_8 C 0.53278(36) 0.4529(3) 0.63878(5)
H18_8 H 0.5280 0.4494 0.6199
C30_8 C 0.58442(26) 0.4526(2) 0.65105(6)
C31_8 C 0.59152(26) 0.4578(2) 0.67924(7)
C32_8 C 0.54708(27) 0.4634(2) 0.69517(5)
C33_8 C 0.49544(26) 0.4637(2) 0.68291(7)
C34_8 C 0.48834(34) 0.4585(3) 0.65472(7)
C35_8 C 0.4347(6) 0.4964(4) 0.79513(14)
H19_8 H 0.4275 0.4796 0.7769
H20_8 H 0.3993 0.5010 0.8008
H21_8 H 0.4391 0.4677 0.8073
C36_8 C 0.1667(6) 0.4364(4) 0.72491(13)
C37_8 C 0.5061(7) 0.5757(5) 0.62544(15)
H22_8 H 0.5309 0.5702 0.6115
H23_8 H 0.5279 0.5837 0.6426
H24_8 H 0.5006 0.6112 0.6208
C38_8 C 0.3282(4) 0.4596(3) 0.61625(10)
C39_8 C 0.38813(36) 0.5142(3) 0.61531(9)
H25_8 H 0.3934 0.5505 0.6065
C40_8 C 0.4400(3) 0.5144(2) 0.62759(8)
C41_8 C 0.43200(26) 0.4601(2) 0.64082(8)
C42_8 C 0.3722(3) 0.4056(2) 0.64176(9)
C43_8 C 0.3203(4) 0.4053(3) 0.62947(10)
H26_8 H 0.2803 0.3688 0.6301
C44_8 C 0.3614(7) 0.3444(5) 0.6553(2)
H27_8 H 0.3866 0.3294 0.6462
H28_8 H 0.3171 0.3126 0.6541
H29_8 H 0.3739 0.3527 0.6741
C45_8 C 0.1463(6) 0.3935(4) 0.69973(18)
H30_8 H 0.1633 0.4193 0.6837
H31_8 H 0.1006 0.3700 0.6986
H32_8 H 0.1622 0.3644 0.7010
C46_8 C 0.6692(8) 0.6369(6) 0.7759(3)
H33_8 H 0.6669 0.5962 0.7751
H34_8 H 0.7033 0.6647 0.7879
H35_8 H 0.6770 0.6553 0.7580
C47_8 C 0.5466(9) 0.7224(7) 0.8269(3)
H36_8 H 0.5237 0.7379 0.8164
H37_8 H 0.5895 0.7564 0.8298
H38_6 H 0.5258 0.7070 0.8442
C48_8 C 0.2707(9) 0.4577(8) 0.6026(2)
H39_8 H 0.2740 0.4988 0.6041
H40_8 H 0.2323 0.4262 0.6114
H41_8 H 0.2696 0.4470 0.5837
C49_8 C 0.5597(14) 0.7795(9) 0.6583(5)
Sr7_3 Sr 0.81550(7) 0.47008(6) 0.52222(2)
O13_3 O 0.3522(4) 0.5705(3) 0.68657(9)
O14_3 O 0.4131(4) 0.6528(3) 0.65954(8)
H42_8 H 0.309155 0.400306 0.70406
H43_8 H 0.260198 0.416272 0.688024
H44_8 H 0.547613 0.806854 0.672263
H45_8 H 0.608675 0.809029 0.651326
H46_8 H 0.527609 0.764467 0.64083
O8_4 O 0.3811(2) 0.7590(3) 0.40978(9)
O11_4 O 0.3056(3) 0.7719(4) 0.38857(9)
C1_9 C 0.3594(3) 0.6071(4) 0.66643(11)
C2_9 C 0.08565(16) 0.54765(26) 0.55981(5)
C3_9 C 0.13821(15) 0.55419(23) 0.57408(6)
C4_9 C 0.14063(15) 0.56037(23) 0.60233(6)
C5_9 C 0.09048(18) 0.55998(27) 0.61630(5)
H1_9 H 0.0921 0.5641 0.6352
C6_9 C 0.03792(16) 0.55349(24) 0.60203(6)
C7_9 C 0.03550(14) 0.54731(23) 0.57378(6)
C8_9 C 0.19750(14) 0.57230(24) 0.61867(7)
C9_9 C 0.25824(17) 0.61974(26) 0.61103(7)
H2_9 H 0.2637 0.6440 0.5955
C10_9 C 0.31080(14) 0.63090(24) 0.62663(7)
H3_9 H 0.3514 0.6626 0.6215
C11_9 C 0.30261(15) 0.59460(24) 0.64986(7)
C12_9 C 0.24187(18) 0.54717(27) 0.65750(7)
H4_9 H 0.2364 0.5229 0.6730
C13_9 C 0.18931(14) 0.53601(24) 0.64191(8)
H5_9 H 0.1487 0.5043 0.6470
C14_9 C 0.24727(18) 0.64737(27) 0.46989(7)
H6_9 H 0.2588 0.6324 0.4850
C15_9 C 0.18380(16) 0.63010(26) 0.46579(7)
C16_9 C 0.16656(15) 0.65246(25) 0.44309(8)
H7_9 H 0.1241 0.6409 0.4403
C17_9 C 0.21278(19) 0.69218(28) 0.42448(7)
H8_9 H 0.2012 0.7071 0.4093
C18_9 C 0.27624(17) 0.70954(26) 0.42857(7)
C19_9 C 0.29349(14) 0.68712(24) 0.45128(8)
H9_9 H 0.3359 0.6987 0.4540
C26_9 C 0.3263(3) 0.7512(4) 0.40758(12)
C27_9 C 0.1868(3) 0.6536(5) 0.52544(13)
H12_9 H 0.2277 0.6583 0.5211
H13_9 H 0.1814 0.6518 0.5449
H14_9 H 0.1845 0.6893 0.5183
C28_9 C 0.1870(3) 0.5415(4) 0.55972(12)
H15_9 H 0.1718 0.5247 0.5418
H16_9 H 0.1930 0.5113 0.5701
H17_9 H 0.2269 0.5807 0.5582
C29_9 C 0.07988(19) 0.53278(36) 0.47211(5)
H18_9 H 0.0786 0.5280 0.4532
C30_9 C 0.13182(16) 0.58442(26) 0.48438(6)
C31_9 C 0.13372(16) 0.59152(26) 0.51257(7)
C32_9 C 0.08368(18) 0.54708(27) 0.52850(5)
C33_9 C 0.03174(16) 0.49544(26) 0.51624(7)
C34_9 C 0.02984(17) 0.48834(34) 0.48805(7)
C44_9 C 0.0170(5) 0.3614(7) 0.4886(2)
H27_9 H 0.0572 0.3866 0.4795
H28_9 H 0.0045 0.3171 0.4874
H29_9 H 0.0212 0.3739 0.5074
C46_9 C 0.0323(6) 0.6692(8) 0.6092(3)
H33_9 H 0.0707 0.6669 0.6084
H34_9 H 0.0386 0.7033 0.6212
H35_9 H 0.0217 0.6770 0.5913
Sr7_4 Sr 0.34542(4) 0.81550(7) 0.35556(2)
P1_9 P 0.93563(7) 0.47496(11) 0.54566(3)
O1_9 O 0.8698(3) 0.3043(4) 0.52850(11)
O2_9 O 0.98362(19) 0.54132(28) 0.55956(8)
O4_9 O 0.89600(19) 0.42420(28) 0.56566(7)
O6_9 O 0.98174(19) 0.45354(28) 0.53194(8)
O7_9 O 0.9037(2) 0.4932(3) 0.52427(8)
O10_9 O 0.8304(3) 0.5532(4) 0.50583(11)
C20_9 C 0.98170(18) 0.55090(27) 0.61787(9)
C21_9 C 0.9343(2) 0.4941(3) 0.62912(8)
C22_9 C 0.8831(2) 0.4926(4) 0.64265(9)
H10_9 H 0.8514 0.4546 0.6502
C23_9 C 0.8793(2) 0.5478(3) 0.64492(12)
C24_9 C 0.9266(3) 0.6045(4) 0.63367(14)
H11_9 H 0.9241 0.6415 0.6352
C25_9 C 0.9779(2) 0.6061(4) 0.62014(12)
C35_9 C 0.9383(4) 0.4347(6) 0.62846(14)
H19_9 H 0.9479 0.4275 0.6102
H20_9 H 0.8983 0.3993 0.6341
H21_9 H 0.9714 0.4391 0.6406
C36_9 C 0.7303(4) 0.1667(6) 0.55824(13)
C37_9 C 0.9304(5) 0.5061(7) 0.45877(15)
H22_9 H 0.9607 0.5309 0.4448
H23_9 H 0.9442 0.5279 0.4759
H24_9 H 0.8894 0.5006 0.4541
C38_9 C 0.8686(2) 0.3282(4) 0.44958(10)
C39_9 C 0.87393(19) 0.38813(36) 0.44864(9)
H25_9 H 0.8429 0.3934 0.4398
C40_9 C 0.9256(2) 0.4400(3) 0.46092(8)
C41_9 C 0.97190(17) 0.43200(26) 0.47415(8)
C42_9 C 0.9666(2) 0.3722(3) 0.47509(9)
C43_9 C 0.9150(3) 0.3203(4) 0.46280(10)
H26_9 H 0.9115 0.2803 0.4634
C45_9 C 0.7528(5) 0.1463(6) 0.53306(18)
H30_9 H 0.7440 0.1633 0.5170
H31_9 H 0.7306 0.1006 0.5319
H32_9 H 0.7978 0.1622 0.5343
C47_9 C 0.8242(6) 0.5466(9) 0.6602(3)
H36_9 H 0.7858 0.5237 0.6497
H37_9 H 0.8331 0.5895 0.6631
H38_7 H 0.8188 0.5258 0.6775
C48_9 C 0.8130(5) 0.2707(9) 0.4359(2)
H39_9 H 0.7752 0.2740 0.4374
H40_9 H 0.8061 0.2323 0.4447
H41_9 H 0.8226 0.2696 0.4170
C49_9 C 0.7802(11) 0.5597(14) 0.4916(5)
O13_4 O 0.7817(2) 0.3522(4) 0.51991(9)
O14_4 O 0.7603(2) 0.4131(4) 0.49288(8)
H42_9 H 0.908849 0.309155 0.537393
H43_9 H 0.843925 0.260198 0.521357
H44_9 H 0.74076 0.547613 0.505596
H45_9 H 0.799647 0.608675 0.484659
H46_9 H 0.763142 0.527609 0.474164
O8_5 O 0.6221(2) 0.3811(2) 0.24312(9)
O11_5 O 0.5337(3) 0.3056(3) 0.22191(9)
C1_10 C 0.7523(3) 0.3594(3) 0.49977(11)
C2_10 C 0.5380(2) 0.08565(16) 0.39315(5)
C3_10 C 0.58402(17) 0.13821(15) 0.40742(6)
C4_10 C 0.58026(18) 0.14063(15) 0.43567(6)
C5_10 C 0.5305(2) 0.09048(18) 0.44964(5)
H1_10 H 0.5280 0.0921 0.4686
C6_10 C 0.48443(18) 0.03792(16) 0.43537(6)
C7_10 C 0.48819(18) 0.03550(14) 0.40712(6)
C8_10 C 0.6252(2) 0.19750(14) 0.45201(7)
C9_10 C 0.6385(2) 0.25824(17) 0.44437(7)
H2_10 H 0.6197 0.2637 0.4289
C10_10 C 0.6799(2) 0.31080(14) 0.45997(7)
H3_10 H 0.6888 0.3514 0.4549
C11_10 C 0.70801(19) 0.30261(15) 0.48320(7)
C12_10 C 0.6947(2) 0.24187(18) 0.49084(7)
H4_10 H 0.7135 0.2364 0.5064
C13_10 C 0.6533(2) 0.18931(14) 0.47525(8)
H5_10 H 0.6444 0.1487 0.4804
C14_10 C 0.5999(2) 0.24727(18) 0.30323(7)
H6_10 H 0.6264 0.2588 0.3184
C15_10 C 0.5537(2) 0.18380(16) 0.29913(7)
C16_10 C 0.5141(2) 0.16656(15) 0.27643(8)
H7_10 H 0.4832 0.1241 0.2737
C17_10 C 0.5206(2) 0.21278(19) 0.25782(7)
H8_10 H 0.4941 0.2012 0.2427
C18_10 C 0.5667(2) 0.27624(17) 0.26191(7)
C19_10 C 0.60637(19) 0.29349(14) 0.28462(8)
H9_10 H 0.6372 0.3359 0.2874
C26_10 C 0.5751(3) 0.3263(3) 0.24092(12)
C27_10 C 0.5332(4) 0.1868(3) 0.35878(13)
H12_10 H 0.5694 0.2277 0.3545
H13_10 H 0.5296 0.1814 0.3783
H14_10 H 0.4952 0.1845 0.3517
C28_10 C 0.6455(3) 0.1870(3) 0.39306(12)
H15_10 H 0.6471 0.1718 0.3752
H16_10 H 0.6817 0.1930 0.4035
H17_10 H 0.6462 0.2269 0.3916
C29_10 C 0.5471(3) 0.07988(19) 0.30545(5)
H18_10 H 0.5506 0.0786 0.2866
C30_10 C 0.5474(2) 0.13182(16) 0.31772(6)
C31_10 C 0.5422(2) 0.13372(16) 0.34591(7)
C32_10 C 0.5366(2) 0.08368(18) 0.36184(5)
C33_10 C 0.5363(2) 0.03174(16) 0.34958(7)
C34_10 C 0.5415(3) 0.02984(17) 0.32139(7)
C44_10 C 0.6556(5) 0.0170(5) 0.3220(2)
H27_10 H 0.6706 0.0572 0.3129
H28_10 H 0.6874 0.0045 0.3208
H29_10 H 0.6473 0.0212 0.3408
C46_10 C 0.3631(6) 0.0323(6) 0.4426(3)
H33_10 H 0.4038 0.0707 0.4418
H34_10 H 0.3353 0.0386 0.4546
H35_10 H 0.3447 0.0217 0.4247
Sr7_5 Sr 0.52992(6) 0.34542(4) 0.18889(2)
P1_10 P 0.46067(8) 0.93563(7) 0.37900(3)
O1_10 O 0.5655(3) 0.8698(3) 0.36184(11)
O2_10 O 0.4423(2) 0.98362(19) 0.39290(8)
O4_10 O 0.4718(2) 0.89600(19) 0.39900(7)
O6_10 O 0.5282(2) 0.98174(19) 0.36528(8)
O7_10 O 0.4105(2) 0.9037(2) 0.35761(8)
O10_10 O 0.2772(3) 0.8304(3) 0.33917(11)
C20_10 C 0.4308(2) 0.98170(18) 0.45121(9)
C21_10 C 0.4402(2) 0.9343(2) 0.46246(8)
C22_10 C 0.3905(3) 0.8831(2) 0.47599(9)
H10_10 H 0.3968 0.8514 0.4836
C23_10 C 0.3315(2) 0.8793(2) 0.47826(12)
C24_10 C 0.3221(2) 0.9266(3) 0.46701(14)
H11_10 H 0.2826 0.9241 0.4686
C25_10 C 0.3718(3) 0.9779(2) 0.45348(12)
C35_10 C 0.5036(4) 0.9383(4) 0.46180(14)
H19_10 H 0.5204 0.9479 0.4436
H20_10 H 0.4990 0.8983 0.4675
H21_10 H 0.5323 0.9714 0.4740
C36_10 C 0.5636(4) 0.7303(4) 0.39158(13)
C37_10 C 0.4243(5) 0.9304(5) 0.29211(15)
H22_10 H 0.4298 0.9607 0.2782
H23_10 H 0.4163 0.9442 0.3093
H24_10 H 0.3888 0.8894 0.2875
C38_10 C 0.5404(3) 0.8686(2) 0.28292(10)
C39_10 C 0.4858(3) 0.87393(19) 0.28198(9)
H25_10 H 0.4495 0.8429 0.2732
C40_10 C 0.4856(2) 0.9256(2) 0.29426(8)
C41_10 C 0.5399(2) 0.97190(17) 0.30749(8)
C42_10 C 0.5944(2) 0.9666(2) 0.30843(9)
C43_10 C 0.5947(3) 0.9150(3) 0.29614(10)
H26_10 H 0.6312 0.9115 0.2968
C45_10 C 0.6065(4) 0.7528(5) 0.36640(18)
H30_10 H 0.5807 0.7440 0.3504
H31_10 H 0.6300 0.7306 0.3653
H32_10 H 0.6356 0.7978 0.3677
C47_10 C 0.2776(7) 0.8242(6) 0.4936(3)
H36_10 H 0.2621 0.7858 0.4831
H37_10 H 0.2436 0.8331 0.4965
H38_8 H 0.2930 0.8188 0.5109
C48_10 C 0.5423(8) 0.8130(5) 0.2693(2)
H39_10 H 0.5012 0.7752 0.2708
H40_10 H 0.5738 0.8061 0.2781
H41_10 H 0.5530 0.8226 0.2504
C49_10 C 0.2205(9) 0.7802(11) 0.3250(5)
O13_5 O 0.4295(3) 0.7817(2) 0.35324(9)
O14_5 O 0.3472(3) 0.7603(2) 0.32621(8)
H42_10 H 0.599694 0.908849 0.370726
H43_10 H 0.583728 0.843925 0.354691
H44_10 H 0.193146 0.74076 0.33893
H45_10 H 0.190971 0.799647 0.317992
H46_10 H 0.235533 0.763142 0.307497
P1_11 P 0.52504(11) 0.46067(8) 0.21233(3)
O1_11 O 0.6957(4) 0.5655(3) 0.19517(11)
O2_11 O 0.45868(28) 0.4423(2) 0.22623(8)
O4_11 O 0.57580(28) 0.4718(2) 0.23233(7)
O6_11 O 0.54646(28) 0.5282(2) 0.19861(8)
O7_11 O 0.5068(3) 0.4105(2) 0.19094(8)
O8_6 O 0.2410(3) 0.6221(2) 0.07645(9)
O10_11 O 0.4468(4) 0.2772(3) 0.17250(11)
O11_6 O 0.2281(4) 0.5337(3) 0.05524(9)
C1_11 C 0.3929(4) 0.7523(3) 0.33310(11)
C2_11 C 0.45235(26) 0.5380(2) 0.22648(5)
C3_11 C 0.44581(23) 0.58402(17) 0.24075(6)
C4_11 C 0.43963(23) 0.58026(18) 0.26900(6)
C5_11 C 0.44002(27) 0.5305(2) 0.28297(5)
H1_11 H 0.4359 0.5280 0.3019
C6_11 C 0.44651(24) 0.48443(18) 0.26870(6)
C7_11 C 0.45269(23) 0.48819(18) 0.24045(6)
C8_11 C 0.42770(24) 0.6252(2) 0.28534(7)
C9_11 C 0.38026(26) 0.6385(2) 0.27770(7)
H2_11 H 0.3560 0.6197 0.2622
C10_11 C 0.36910(24) 0.6799(2) 0.29330(7)
H3_11 H 0.3374 0.6888 0.2882
C11_11 C 0.40540(24) 0.70801(19) 0.31653(7)
C12_11 C 0.45283(27) 0.6947(2) 0.32417(7)
H4_11 H 0.4771 0.7135 0.3397
C13_11 C 0.46399(24) 0.6533(2) 0.30858(8)
H5_11 H 0.4957 0.6444 0.3137
C14_11 C 0.35263(27) 0.5999(2) 0.13656(7)
H6_11 H 0.3676 0.6264 0.1517
C15_11 C 0.36990(26) 0.5537(2) 0.13246(7)
C16_11 C 0.34754(25) 0.5141(2) 0.10976(8)
H7_11 H 0.3591 0.4832 0.1070
C17_11 C 0.30782(28) 0.5206(2) 0.09115(7)
H8_11 H 0.2929 0.4941 0.0760
C18_11 C 0.29046(26) 0.5667(2) 0.09524(7)
C19_11 C 0.31288(24) 0.60637(19) 0.11795(8)
H9_11 H 0.3013 0.6372 0.1207
C20_11 C 0.44910(27) 0.4308(2) 0.28454(9)
C21_11 C 0.5059(3) 0.4402(2) 0.29579(8)
C22_11 C 0.5074(4) 0.3905(3) 0.30932(9)
H10_11 H 0.5454 0.3968 0.3169
C23_11 C 0.4522(3) 0.3315(2) 0.31159(12)
C24_11 C 0.3955(4) 0.3221(2) 0.30034(14)
H11_11 H 0.3585 0.2826 0.3019
C25_11 C 0.3939(4) 0.3718(3) 0.28681(12)
C26_11 C 0.2488(4) 0.5751(3) 0.07425(12)
C27_11 C 0.3464(5) 0.5332(4) 0.19211(13)
H12_11 H 0.3417 0.5694 0.1878
H13_11 H 0.3482 0.5296 0.2116
H14_11 H 0.3107 0.4952 0.1850
C28_11 C 0.4585(4) 0.6455(3) 0.22639(12)
H15_11 H 0.4753 0.6471 0.2085
H16_11 H 0.4887 0.6817 0.2368
H17_11 H 0.4193 0.6462 0.2249
C29_11 C 0.46722(36) 0.5471(3) 0.13878(5)
H18_11 H 0.4720 0.5506 0.1199
C30_11 C 0.41558(26) 0.5474(2) 0.15105(6)
C31_11 C 0.40848(26) 0.5422(2) 0.17924(7)
C32_11 C 0.45292(27) 0.5366(2) 0.19517(5)
C33_11 C 0.50456(26) 0.5363(2) 0.18291(7)
C34_11 C 0.51166(34) 0.5415(3) 0.15472(7)
C35_11 C 0.5653(6) 0.5036(4) 0.29513(14)
H19_11 H 0.5725 0.5204 0.2769
H20_11 H 0.6007 0.4990 0.3008
H21_11 H 0.5609 0.5323 0.3073
C36_11 C 0.8333(6) 0.5636(4) 0.22491(13)
C37_11 C 0.4939(7) 0.4243(5) 0.12544(15)
H22_11 H 0.4691 0.4298 0.1115
H23_11 H 0.4721 0.4163 0.1426
H24_11 H 0.4994 0.3888 0.1208
C38_11 C 0.6718(4) 0.5404(3) 0.11625(10)
C39_11 C 0.61187(36) 0.4858(3) 0.11531(9)
H25_11 H 0.6066 0.4495 0.1065
C40_11 C 0.5600(3) 0.4856(2) 0.12759(8)
C41_11 C 0.56800(26) 0.5399(2) 0.14082(8)
C42_11 C 0.6278(3) 0.5944(2) 0.14176(9)
C43_11 C 0.6797(4) 0.5947(3) 0.12947(10)
H26_11 H 0.7197 0.6312 0.1301
C44_11 C 0.6386(7) 0.6556(5) 0.1553(2)
H27_11 H 0.6134 0.6706 0.1462
H28_11 H 0.6829 0.6874 0.1541
H29_11 H 0.6261 0.6473 0.1741
C45_11 C 0.8537(6) 0.6065(4) 0.19973(18)
H30_11 H 0.8367 0.5807 0.1837
H31_11 H 0.8994 0.6300 0.1986
H32_11 H 0.8378 0.6356 0.2010
C46_11 C 0.3308(8) 0.3631(6) 0.2759(3)
H33_11 H 0.3331 0.4038 0.2751
H34_11 H 0.2967 0.3353 0.2879
H35_11 H 0.3230 0.3447 0.2580
C47_11 C 0.4534(9) 0.2776(7) 0.3269(3)
H36_11 H 0.4763 0.2621 0.3164
H37_11 H 0.4105 0.2436 0.3298
H38_9 H 0.4742 0.2930 0.3442
C48_11 C 0.7293(9) 0.5423(8) 0.1026(2)
H39_11 H 0.7260 0.5012 0.1041
H40_11 H 0.7677 0.5738 0.1114
H41_11 H 0.7304 0.5530 0.0837
C49_11 C 0.4403(14) 0.2205(9) 0.1583(5)
O13_6 O 0.6478(4) 0.4295(3) 0.18657(9)
O14_6 O 0.5869(4) 0.3472(3) 0.15954(8)
H42_11 H 0.690845 0.599694 0.20406
H43_11 H 0.739802 0.583728 0.188024
H44_11 H 0.452387 0.193146 0.172263
H45_11 H 0.391325 0.190971 0.151326
H46_11 H 0.472391 0.235533 0.14083
P1_12 P 0.06437(7) 0.52504(11) 0.04566(3)
O1_12 O 0.1302(3) 0.6957(4) 0.02850(11)
O2_12 O 0.01638(19) 0.45868(28) 0.05956(8)
O4_12 O 0.10400(19) 0.57580(28) 0.06566(7)
O6_12 O 0.01826(19) 0.54646(28) 0.03194(8)
O7_12 O 0.0963(2) 0.5068(3) 0.02427(8)
O10_12 O 0.1696(3) 0.4468(4) 0.00583(11)
C20_12 C 0.01830(18) 0.44910(27) 0.11787(9)
C21_12 C 0.0657(2) 0.5059(3) 0.12912(8)
C22_12 C 0.1169(2) 0.5074(4) 0.14265(9)
H10_12 H 0.1486 0.5454 0.1502
C23_12 C 0.1207(2) 0.4522(3) 0.14492(12)
C24_12 C 0.0734(3) 0.3955(4) 0.13367(14)
H11_12 H 0.0759 0.3585 0.1352
C25_12 C 0.0221(2) 0.3939(4) 0.12014(12)
C35_12 C 0.0617(4) 0.5653(6) 0.12846(14)
H19_12 H 0.0521 0.5725 0.1102
H20_12 H 0.1017 0.6007 0.1341
H21_12 H 0.0286 0.5609 0.1406
C36_12 C 0.2697(4) 0.8333(6) 0.05824(13)
C45_12 C 0.2472(5) 0.8537(6) 0.03306(18)
H30_12 H 0.2560 0.8367 0.0170
H31_12 H 0.2694 0.8994 0.0319
H32_12 H 0.2022 0.8378 0.0343
C47_12 C 0.1758(6) 0.4534(9) 0.1602(3)
H36_12 H 0.2142 0.4763 0.1497
H37_12 H 0.1669 0.4105 0.1631
H38_10 H 0.1812 0.4742 0.1775
H42_12 H 0.0911506 0.690845 0.037393
H43_12 H 0.156075 0.739802 0.0213575
H44_12 H 0.25924 0.452387 0.00559648
C37_12 C 0.0696(5) 0.4939(7) 0.95877(15)
H22_12 H 0.0393 0.4691 0.9448
H23_12 H 0.0558 0.4721 0.9759
H24_12 H 0.1106 0.4994 0.9541
C38_12 C 0.1314(2) 0.6718(4) 0.94958(10)
C39_12 C 0.12607(19) 0.61187(36) 0.94864(9)
H25_12 H 0.1571 0.6066 0.9398
C40_12 C 0.0744(2) 0.5600(3) 0.96092(8)
C41_12 C 0.02810(17) 0.56800(26) 0.97415(8)
C42_12 C 0.0334(2) 0.6278(3) 0.97509(9)
C43_12 C 0.0850(3) 0.6797(4) 0.96280(10)
H26_12 H 0.0885 0.7197 0.9634
C48_12 C 0.1870(5) 0.7293(9) 0.9359(2)
H39_12 H 0.2248 0.7260 0.9374
H40_12 H 0.1939 0.7677 0.9447
H41_12 H 0.1774 0.7304 0.9170
C49_12 C 0.2198(11) 0.4403(14) 0.9916(5)
H45_12 H 0.200353 0.391325 0.984659
H46_12 H 0.236858 0.472391 0.974164
C1_12 C 0.6406(3) 0.3929(4) 0.16643(11)
C2_12 C 0.91435(16) 0.45235(26) 0.05981(5)
C3_12 C 0.86179(15) 0.44581(23) 0.07408(6)
C4_12 C 0.85937(15) 0.43963(23) 0.10233(6)
C5_12 C 0.90952(18) 0.44002(27) 0.11630(5)
H1_12 H 0.9079 0.4359 0.1352
C6_12 C 0.96208(16) 0.44651(24) 0.10203(6)
C7_12 C 0.96450(14) 0.45269(23) 0.07378(6)
C8_12 C 0.80250(14) 0.42770(24) 0.11867(7)
C9_12 C 0.74176(17) 0.38026(26) 0.11103(7)
H2_12 H 0.7363 0.3560 0.0955
C10_12 C 0.68920(14) 0.36910(24) 0.12663(7)
H3_12 H 0.6486 0.3374 0.1215
C11_12 C 0.69739(15) 0.40540(24) 0.14986(7)
C12_12 C 0.75813(18) 0.45283(27) 0.15750(7)
H4_12 H 0.7636 0.4771 0.1730
C13_12 C 0.81069(14) 0.46399(24) 0.14191(8)
H5_12 H 0.8513 0.4957 0.1470
C27_12 C 0.8132(3) 0.3464(5) 0.02544(13)
H12_12 H 0.7723 0.3417 0.0211
H13_12 H 0.8186 0.3482 0.0449
H14_12 H 0.8155 0.3107 0.0183
C28_12 C 0.8130(3) 0.4585(4) 0.05972(12)
H15_12 H 0.8282 0.4753 0.0418
H16_12 H 0.8070 0.4887 0.0701
H17_12 H 0.7731 0.4193 0.0582
C31_12 C 0.86628(16) 0.40848(26) 0.01257(7)
C32_12 C 0.91632(18) 0.45292(27) 0.02850(5)
C33_12 C 0.96826(16) 0.50456(26) 0.01624(7)
H29_12 H 0.9788 0.6261 0.0074
C46_12 C 0.9677(6) 0.3308(8) 0.1092(3)
H33_12 H 0.9293 0.3331 0.1084
H34_12 H 0.9614 0.2967 0.1212
H35_12 H 0.9783 0.3230 0.0913
C14_12 C 0.75273(18) 0.35263(27) 0.96989(7)
H6_12 H 0.7412 0.3676 0.9850
C15_12 C 0.81620(16) 0.36990(26) 0.96579(7)
C16_12 C 0.83344(15) 0.34754(25) 0.94309(8)
H7_12 H 0.8759 0.3591 0.9403
C17_12 C 0.78722(19) 0.30782(28) 0.92448(7)
H8_12 H 0.7988 0.2929 0.9093
C18_12 C 0.72376(17) 0.29046(26) 0.92857(7)
C19_12 C 0.70651(14) 0.31288(24) 0.95128(8)
H9_12 H 0.6641 0.3013 0.9540
C26_12 C 0.6737(3) 0.2488(4) 0.90758(12)
C29_12 C 0.92012(19) 0.46722(36) 0.97211(5)
H18_12 H 0.9214 0.4720 0.9532
C30_12 C 0.86818(16) 0.41558(26) 0.98438(6)
C34_12 C 0.97016(17) 0.51166(34) 0.98805(7)
C44_12 C 0.9830(5) 0.6386(7) 0.9886(2)
H27_12 H 0.9428 0.6134 0.9795
H28_12 H 0.9955 0.6829 0.9874
H38_11 H 0.5258 0.8188 0.9891
H38_12 H 0.7070 0.1812 0.0109
loop_
_geom_bond_atom_site_label_1
_geom_bond_atom_site_label_2
_geom_bond_site_symmetry_1
_geom_bond_site_symmetry_2
O3 C1 1_555 1_555
O5 C1 1_555 1_555
O8 C26 1_555 1_555
O11 C26 1_555 1_555
C1 C11 1_555 1_555
C2 C3 1_555 1_555
C3 C4 1_555 1_555
C4 C5 1_555 1_555
C5 H1 1_555 1_555
C6 C5 1_555 1_555
C7 C2 1_555 1_555
C8 C4 1_555 1_555
C9 C8 1_555 1_555
H2 C9 1_555 1_555
C10 C9 1_555 1_555
H3 C10 1_555 1_555
C11 C10 1_555 1_555
C12 C11 1_555 1_555
H4 C12 1_555 1_555
C13 C8 1_555 1_555
H5 C13 1_555 1_555
C14 H6 1_555 1_555
C15 C14 1_555 1_555
C16 C15 1_555 1_555
H7 C16 1_555 1_555
C17 C16 1_555 1_555
H8 C17 1_555 1_555
C18 C17 1_555 1_555
C19 C14 1_555 1_555
H9 C19 1_555 1_555
C26 C18 1_555 1_555
C27 H12 1_555 1_555
H13 C27 1_555 1_555
H14 C27 1_555 1_555
C28 C3 1_555 1_555
H15 C28 1_555 1_555
H16 C28 1_555 1_555
H17 C28 1_555 1_555
C29 H18 1_555 1_555
C30 C15 1_555 1_555
C31 C27 1_555 1_555
C32 C2 1_555 1_555
C34 C29 1_555 1_555
H27 C44 1_555 1_555
H28 C44 1_555 1_555
H29 C44 1_555 1_555
H33 C46 1_555 1_555
H34 C46 1_555 1_555
H35 C46 1_555 1_555
Sr3 O3 1_555 1_555
Sr4 O8 1_555 1_555
Sr6 O3 1_555 1_555
Sr7 O11 1_555 1_555
O5 Sr6 1_555 1_555
C6 C7 1_555 1_555
C12 C13 1_555 1_555
C18 C19 1_555 1_555
C29 C30 1_555 1_555
C30 C31 1_555 1_555
C31 C32 1_555 1_555
C32 C33 1_555 1_555
C33 C34 1_555 1_555
Sr1 O1 1_555 1_555
Sr2 O7 1_555 1_555
P1 O2 1_555 1_555
O4 Sr1 1_555 1_555
O6 P1 1_555 1_555
O7 P1 1_555 1_555
O9 Sr1 1_555 1_555
O10 Sr2 1_555 1_555
O12 C36 1_555 1_555
C21 C20 1_555 1_555
C22 C21 1_555 1_555
H10 C22 1_555 1_555
C23 C22 1_555 1_555
C24 C23 1_555 1_555
H11 C24 1_555 1_555
C25 C20 1_555 1_555
C35 C21 1_555 1_555
H19 C35 1_555 1_555
H20 C35 1_555 1_555
H21 C35 1_555 1_555
C36 O9 1_555 1_555
C37 H22 1_555 1_555
H23 C37 1_555 1_555
H24 C37 1_555 1_555
C38 C39 1_555 1_555
C39 H25 1_555 1_555
C40 C37 1_555 1_555
C42 C41 1_555 1_555
C43 C38 1_555 1_555
H26 C43 1_555 1_555
C45 C36 1_555 1_555
H30 C45 1_555 1_555
H31 C45 1_555 1_555
H32 C45 1_555 1_555
C47 C23 1_555 1_555
H36 C47 1_555 1_555
H37 C47 1_555 1_555
H38 C47 1_555 1_555
C48 C38 1_555 1_555
H39 C48 1_555 1_555
H40 C48 1_555 1_555
H41 C48 1_555 1_555
C49 O10 1_555 1_555
Sr5 O9 1_555 1_555
O13 Sr1 1_555 1_555
O14 Sr2 1_555 1_555
O15 Sr1 1_555 1_555
O16 Sr1 1_555 1_555
O17 Sr2 1_555 1_555
O18 Sr1 1_555 1_555
Sr2 O13 1_555 1_555
P1 O4 1_555 1_555
O12 Sr5 1_555 1_555
C24 C25 1_555 1_555
C39 C40 1_555 1_555
C40 C41 1_555 1_555
C42 C43 1_555 1_555
Sr5 O16 1_555 1_555
O1 H42 1_555 1_555
O1 H43 1_555 1_555
C49 H44 1_555 1_555
C49 H45 1_555 1_555
C49 H46 1_555 1_555
O5_2 C1_2 1_555 1_555
O15 C26_2 1_555 1_555
O17 C26_2 1_555 1_555
C1_2 C11_2 1_555 1_555
C2_2 C3_2 1_555 1_555
C3_2 C4_2 1_555 1_555
C4_2 C5_2 1_555 1_555
C5_2 H1_2 1_555 1_555
C6_2 C5_2 1_555 1_555
C7_2 C2_2 1_555 1_555
C8_2 C4_2 1_555 1_555
C9_2 C8_2 1_555 1_555
H2_2 C9_2 1_555 1_555
C10_2 C9_2 1_555 1_555
H3_2 C10_2 1_555 1_555
C11_2 C10_2 1_555 1_555
C12_2 C11_2 1_555 1_555
C13_2 C8_2 1_555 1_555
H5_2 C13_2 1_555 1_555
C14_2 H6_2 1_555 1_555
C15_2 C14_2 1_555 1_555
C16_2 C15_2 1_555 1_555
H7_2 C16_2 1_555 1_555
C17_2 C16_2 1_555 1_555
H8_2 C17_2 1_555 1_555
C18_2 C17_2 1_555 1_555
C19_2 C14_2 1_555 1_555
H9_2 C19_2 1_555 1_555
C26_2 C18_2 1_555 1_555
C27_2 H12_2 1_555 1_555
H13_2 C27_2 1_555 1_555
H14_2 C27_2 1_555 1_555
C28_2 C3_2 1_555 1_555
H15_2 C28_2 1_555 1_555
H16_2 C28_2 1_555 1_555
H17_2 C28_2 1_555 1_555
C29_2 H18_2 1_555 1_555
C30_2 C15_2 1_555 1_555
C31_2 C27_2 1_555 1_555
C32_2 C2_2 1_555 1_555
C34_2 C29_2 1_555 1_555
H27_2 C44_2 1_555 1_555
H28_2 C44_2 1_555 1_555
H29_2 C44_2 1_555 1_555
H33_2 C46_2 1_555 1_555
H34_2 C46_2 1_555 1_555
H35_2 C46_2 1_555 1_555
C6_2 C7_2 1_555 1_555
C12_2 C13_2 1_555 1_555
C18_2 C19_2 1_555 1_555
C29_2 C30_2 1_555 1_555
C30_2 C31_2 1_555 1_555
C31_2 C32_2 1_555 1_555
C32_2 C33_2 1_555 1_555
C33_2 C34_2 1_555 1_555
Sr3_2 O3_2 1_555 1_555
Sr6_2 O3_2 1_555 1_555
Sr3 O1_2 1_555 1_555
Sr6 O7_2 1_555 1_555
P1_2 O2_2 1_555 1_555
O4_2 Sr3 1_555 1_555
O6_2 P1_2 1_555 1_555
O7_2 P1_2 1_555 1_555
O9_2 Sr3 1_555 1_555
O10_2 Sr6 1_555 1_555
O12_2 C36_2 1_555 1_555
C21_2 C20_2 1_555 1_555
C22_2 C21_2 1_555 1_555
H10_2 C22_2 1_555 1_555
C23_2 C22_2 1_555 1_555
C24_2 C23_2 1_555 1_555
H11_2 C24_2 1_555 1_555
C25_2 C20_2 1_555 1_555
C35_2 C21_2 1_555 1_555
H19_2 C35_2 1_555 1_555
H20_2 C35_2 1_555 1_555
H21_2 C35_2 1_555 1_555
C36_2 O9_2 1_555 1_555
C37_2 H22_2 1_555 1_555
H23_2 C37_2 1_555 1_555
H24_2 C37_2 1_555 1_555
C38_2 C39_2 1_555 1_555
C39_2 H25_2 1_555 1_555
C40_2 C37_2 1_555 1_555
C42_2 C41_2 1_555 1_555
C43_2 C38_2 1_555 1_555
H26_2 C43_2 1_555 1_555
C45_2 C36_2 1_555 1_555
H30_2 C45_2 1_555 1_555
H31_2 C45_2 1_555 1_555
H32_2 C45_2 1_555 1_555
C47_2 C23_2 1_555 1_555
H36_2 C47_2 1_555 1_555
H37_2 C47_2 1_555 1_555
C48_2 C38_2 1_555 1_555
H39_2 C48_2 1_555 1_555
H40_2 C48_2 1_555 1_555
H41_2 C48_2 1_555 1_555
C49_2 O10_2 1_555 1_555
Sr5_2 O9_2 1_555 1_555
O15_2 Sr3 1_555 1_555
O16_2 Sr3 1_555 1_555
O17_2 Sr6 1_555 1_555
O18_2 Sr3 1_555 1_555
P1_2 O4_2 1_555 1_555
O12_2 Sr5_2 1_555 1_555
C24_2 C25_2 1_555 1_555
C39_2 C40_2 1_555 1_555
C40_2 C41_2 1_555 1_555
C42_2 C43_2 1_555 1_555
Sr5_2 O16_2 1_555 1_555
O1_2 H42_2 1_555 1_555
O1_2 H43_2 1_555 1_555
C49_2 H44_2 1_555 1_555
C49_2 H45_2 1_555 1_555
C49_2 H46_2 1_555 1_555
O15_2 C26_3 1_555 1_555
O17_2 C26_3 1_555 1_555
C14_3 H6_3 1_555 1_555
C15_3 C14_3 1_555 1_555
C16_3 C15_3 1_555 1_555
H7_3 C16_3 1_555 1_555
C17_3 C16_3 1_555 1_555
H8_3 C17_3 1_555 1_555
C18_3 C17_3 1_555 1_555
C19_3 C14_3 1_555 1_555
H9_3 C19_3 1_555 1_555
C26_3 C18_3 1_555 1_555
C29_3 H18_3 1_555 1_555
C30_3 C15_3 1_555 1_555
C34_3 C29_3 1_555 1_555
C37_3 H22_3 1_555 1_555
H23_3 C37_3 1_555 1_555
H24_3 C37_3 1_555 1_555
C38_3 C39_3 1_555 1_555
C39_3 H25_3 1_555 1_555
C40_3 C37_3 1_555 1_555
C41_3 C34_3 1_555 1_555
C42_3 C41_3 1_555 1_555
C43_3 C38_3 1_555 1_555
H26_3 C43_3 1_555 1_555
C44_3 C42_3 1_555 1_555
H27_3 C44_3 1_555 1_555
H28_3 C44_3 1_555 1_555
C48_3 C38_3 1_555 1_555
H39_3 C48_3 1_555 1_555
H40_3 C48_3 1_555 1_555
H41_3 C48_3 1_555 1_555
C18_3 C19_3 1_555 1_555
C29_3 C30_3 1_555 1_555
C39_3 C40_3 1_555 1_555
C40_3 C41_3 1_555 1_555
C42_3 C43_3 1_555 1_555
C49_3 H45_3 1_555 1_555
C49_3 H46_3 1_555 1_555
Sr3_2 O1_3 1_555 1_555
Sr6_2 O7_3 1_555 1_555
P1_3 O2_3 1_555 1_555
O2_3 C7_3 1_555 1_555
O3_3 C1_3 1_555 1_555
O4_3 Sr3_2 1_555 1_555
O5_3 C1_3 1_555 1_555
O6_3 P1_3 1_555 1_555
O7_3 P1_3 1_555 1_555
O9_3 Sr3_2 1_555 1_555
O10_3 Sr6_2 1_555 1_555
O12_3 C36_3 1_555 1_555
C1_3 C11_3 1_555 1_555
C2_3 C3_3 1_555 1_555
C3_3 C4_3 1_555 1_555
C4_3 C5_3 1_555 1_555
C5_3 H1_3 1_555 1_555
C6_3 C5_3 1_555 1_555
C7_3 C2_3 1_555 1_555
C8_3 C4_3 1_555 1_555
C9_3 C8_3 1_555 1_555
H2_3 C9_3 1_555 1_555
C10_3 C9_3 1_555 1_555
H3_3 C10_3 1_555 1_555
C11_3 C10_3 1_555 1_555
C12_3 C11_3 1_555 1_555
H4_3 C12_3 1_555 1_555
C13_3 C8_3 1_555 1_555
H5_3 C13_3 1_555 1_555
C20_3 C6_3 1_555 1_555
C21_3 C20_3 1_555 1_555
C22_3 C21_3 1_555 1_555
H10_3 C22_3 1_555 1_555
C23_3 C22_3 1_555 1_555
C24_3 C23_3 1_555 1_555
H11_3 C24_3 1_555 1_555
C25_3 C20_3 1_555 1_555
C27_3 H12_3 1_555 1_555
H13_3 C27_3 1_555 1_555
H14_3 C27_3 1_555 1_555
C28_3 C3_3 1_555 1_555
H15_3 C28_3 1_555 1_555
H16_3 C28_3 1_555 1_555
H17_3 C28_3 1_555 1_555
C31_3 C27_3 1_555 1_555
C32_3 C2_3 1_555 1_555
C33_3 O6_3 1_555 1_555
C35_3 C21_3 1_555 1_555
H19_3 C35_3 1_555 1_555
H20_3 C35_3 1_555 1_555
H21_3 C35_3 1_555 1_555
C36_3 O9_3 1_555 1_555
C45_3 C36_3 1_555 1_555
H30_3 C45_3 1_555 1_555
H31_3 C45_3 1_555 1_555
H32_3 C45_3 1_555 1_555
C46_3 C25_3 1_555 1_555
H33_3 C46_3 1_555 1_555
H34_3 C46_3 1_555 1_555
H35_3 C46_3 1_555 1_555
C47_3 C23_3 1_555 1_555
H36_3 C47_3 1_555 1_555
H37_3 C47_3 1_555 1_555
H38_2 C47_3 1_555 1_555
Sr3_3 O3_3 1_555 1_555
Sr5_3 O9_3 1_555 1_555
Sr6_3 O3_3 1_555 1_555
O15_3 Sr3_2 1_555 1_555
O16_3 Sr3_2 1_555 1_555
O17_3 Sr6_2 1_555 1_555
O18_3 Sr3_2 1_555 1_555
P1_3 O4_3 1_555 1_555
O5_3 Sr6_3 1_555 1_555
O12_3 Sr5_3 1_555 1_555
C6_3 C7_3 1_555 1_555
C12_3 C13_3 1_555 1_555
C24_3 C25_3 1_555 1_555
C31_3 C32_3 1_555 1_555
C32_3 C33_3 1_555 1_555
Sr5_3 O16_3 1_555 1_555
O1_3 H42_3 1_555 1_555
O1_3 H43_3 1_555 1_555
Sr3_3 O1_4 1_555 1_555
Sr6_3 O7_4 1_555 1_555
P1_4 O2_4 1_555 1_555
O4_4 Sr3_3 1_555 1_555
O6_4 P1_4 1_555 1_555
O7_4 P1_4 1_555 1_555
O9_4 Sr3_3 1_555 1_555
O10_4 Sr6_3 1_555 1_555
O12_4 C36_4 1_555 1_555
C21_4 C20_4 1_555 1_555
C22_4 C21_4 1_555 1_555
H10_4 C22_4 1_555 1_555
C23_4 C22_4 1_555 1_555
C24_4 C23_4 1_555 1_555
H11_4 C24_4 1_555 1_555
C25_4 C20_4 1_555 1_555
C35_4 C21_4 1_555 1_555
H19_4 C35_4 1_555 1_555
H20_4 C35_4 1_555 1_555
H21_4 C35_4 1_555 1_555
C36_4 O9_4 1_555 1_555
C37_4 H22_4 1_555 1_555
H23_4 C37_4 1_555 1_555
H24_4 C37_4 1_555 1_555
C38_4 C39_4 1_555 1_555
C39_4 H25_4 1_555 1_555
C40_4 C37_4 1_555 1_555
C42_4 C41_4 1_555 1_555
C43_4 C38_4 1_555 1_555
H26_4 C43_4 1_555 1_555
C45_4 C36_4 1_555 1_555
H30_4 C45_4 1_555 1_555
H31_4 C45_4 1_555 1_555
H32_4 C45_4 1_555 1_555
C47_4 C23_4 1_555 1_555
H36_4 C47_4 1_555 1_555
H37_4 C47_4 1_555 1_555
H38_3 C47_4 1_555 1_555
C48_4 C38_4 1_555 1_555
H39_4 C48_4 1_555 1_555
H40_4 C48_4 1_555 1_555
H41_4 C48_4 1_555 1_555
C49_4 O10_4 1_555 1_555
Sr5_4 O9_4 1_555 1_555
O15_4 Sr3_3 1_555 1_555
O16_4 Sr3_3 1_555 1_555
O17_4 Sr6_3 1_555 1_555
O18_4 Sr3_3 1_555 1_555
P1_4 O4_4 1_555 1_555
O12_4 Sr5_4 1_555 1_555
C24_4 C25_4 1_555 1_555
C39_4 C40_4 1_555 1_555
C40_4 C41_4 1_555 1_555
C42_4 C43_4 1_555 1_555
Sr5_4 O16_4 1_555 1_555
O1_4 H42_4 1_555 1_555
O1_4 H43_4 1_555 1_555
C49_4 H44_4 1_555 1_555
C49_4 H45_4 1_555 1_555
C49_4 H46_4 1_555 1_555
O3_4 C1_4 1_555 1_555
O5_4 C1_4 1_555 1_555
O15_3 C26_4 1_555 1_555
O17_3 C26_4 1_555 1_555
C1_4 C11_4 1_555 1_555
C2_4 C3_4 1_555 1_555
C3_4 C4_4 1_555 1_555
C4_4 C5_4 1_555 1_555
C5_4 H1_4 1_555 1_555
C6_4 C5_4 1_555 1_555
C7_4 C2_4 1_555 1_555
C8_4 C4_4 1_555 1_555
C9_4 C8_4 1_555 1_555
H2_4 C9_4 1_555 1_555
C10_4 C9_4 1_555 1_555
H3_4 C10_4 1_555 1_555
C11_4 C10_4 1_555 1_555
C12_4 C11_4 1_555 1_555
H4_4 C12_4 1_555 1_555
C13_4 C8_4 1_555 1_555
H5_4 C13_4 1_555 1_555
C14_4 H6_4 1_555 1_555
C15_4 C14_4 1_555 1_555
C16_4 C15_4 1_555 1_555
H7_4 C16_4 1_555 1_555
C17_4 C16_4 1_555 1_555
H8_4 C17_4 1_555 1_555
C18_4 C17_4 1_555 1_555
C19_4 C14_4 1_555 1_555
H9_4 C19_4 1_555 1_555
C26_4 C18_4 1_555 1_555
C27_4 H12_4 1_555 1_555
H13_4 C27_4 1_555 1_555
H14_4 C27_4 1_555 1_555
C28_4 C3_4 1_555 1_555
H15_4 C28_4 1_555 1_555
H16_4 C28_4 1_555 1_555
H17_4 C28_4 1_555 1_555
C29_4 H18_4 1_555 1_555
C30_4 C15_4 1_555 1_555
C31_4 C27_4 1_555 1_555
C32_4 C2_4 1_555 1_555
C34_4 C29_4 1_555 1_555
H27_4 C44_4 1_555 1_555
H28_4 C44_4 1_555 1_555
H29_4 C44_4 1_555 1_555
H33_4 C46_4 1_555 1_555
H34_4 C46_4 1_555 1_555
H35_4 C46_4 1_555 1_555
Sr3_4 O3_4 1_555 1_555
Sr6_4 O3_4 1_555 1_555
O5_4 Sr6_4 1_555 1_555
C6_4 C7_4 1_555 1_555
C12_4 C13_4 1_555 1_555
C18_4 C19_4 1_555 1_555
C29_4 C30_4 1_555 1_555
C30_4 C31_4 1_555 1_555
C31_4 C32_4 1_555 1_555
C32_4 C33_4 1_555 1_555
C33_4 C34_4 1_555 1_555
Sr3_4 O1_5 1_555 1_555
Sr6_4 O7_5 1_555 1_555
P1_5 O2_5 1_555 1_555
O4_5 Sr3_4 1_555 1_555
O6_5 P1_5 1_555 1_555
O7_5 P1_5 1_555 1_555
O9_5 Sr3_4 1_555 1_555
O10_5 Sr6_4 1_555 1_555
O12_5 C36_5 1_555 1_555
C21_5 C20_5 1_555 1_555
C22_5 C21_5 1_555 1_555
H10_5 C22_5 1_555 1_555
C23_5 C22_5 1_555 1_555
C24_5 C23_5 1_555 1_555
H11_5 C24_5 1_555 1_555
C25_5 C20_5 1_555 1_555
C35_5 C21_5 1_555 1_555
H19_5 C35_5 1_555 1_555
H20_5 C35_5 1_555 1_555
H21_5 C35_5 1_555 1_555
C36_5 O9_5 1_555 1_555
C37_5 H22_5 1_555 1_555
H23_5 C37_5 1_555 1_555
H24_5 C37_5 1_555 1_555
C38_5 C39_5 1_555 1_555
C39_5 H25_5 1_555 1_555
C40_5 C37_5 1_555 1_555
C42_5 C41_5 1_555 1_555
C43_5 C38_5 1_555 1_555
H26_5 C43_5 1_555 1_555
C45_5 C36_5 1_555 1_555
H30_5 C45_5 1_555 1_555
H31_5 C45_5 1_555 1_555
H32_5 C45_5 1_555 1_555
C47_5 C23_5 1_555 1_555
H36_5 C47_5 1_555 1_555
H37_5 C47_5 1_555 1_555
H38_4 C47_5 1_555 1_555
C48_5 C38_5 1_555 1_555
H39_5 C48_5 1_555 1_555
H40_5 C48_5 1_555 1_555
H41_5 C48_5 1_555 1_555
C49_5 O10_5 1_555 1_555
Sr5_5 O9_5 1_555 1_555
O15_5 Sr3_4 1_555 1_555
O16_5 Sr3_4 1_555 1_555
O17_5 Sr6_4 1_555 1_555
O18_5 Sr3_4 1_555 1_555
P1_5 O4_5 1_555 1_555
O12_5 Sr5_5 1_555 1_555
C24_5 C25_5 1_555 1_555
C39_5 C40_5 1_555 1_555
C40_5 C41_5 1_555 1_555
C42_5 C43_5 1_555 1_555
Sr5_5 O16_5 1_555 1_555
O1_5 H42_5 1_555 1_555
O1_5 H43_5 1_555 1_555
C49_5 H44_5 1_555 1_555
C49_5 H45_5 1_555 1_555
C49_5 H46_5 1_555 1_555
O3_5 C1_5 1_555 1_555
O5_5 C1_5 1_555 1_555
O15_4 C26_5 1_555 1_555
O17_4 C26_5 1_555 1_555
C1_5 C11_5 1_555 1_555
C2_5 C3_5 1_555 1_555
C3_5 C4_5 1_555 1_555
C4_5 C5_5 1_555 1_555
C5_5 H1_5 1_555 1_555
C6_5 C5_5 1_555 1_555
C7_5 C2_5 1_555 1_555
C8_5 C4_5 1_555 1_555
C9_5 C8_5 1_555 1_555
H2_5 C9_5 1_555 1_555
C10_5 C9_5 1_555 1_555
H3_5 C10_5 1_555 1_555
C11_5 C10_5 1_555 1_555
C12_5 C11_5 1_555 1_555
H4_5 C12_5 1_555 1_555
C13_5 C8_5 1_555 1_555
H5_5 C13_5 1_555 1_555
C14_5 H6_5 1_555 1_555
C15_5 C14_5 1_555 1_555
C16_5 C15_5 1_555 1_555
H7_5 C16_5 1_555 1_555
C17_5 C16_5 1_555 1_555
H8_5 C17_5 1_555 1_555
C18_5 C17_5 1_555 1_555
C19_5 C14_5 1_555 1_555
H9_5 C19_5 1_555 1_555
C26_5 C18_5 1_555 1_555
C27_5 H12_5 1_555 1_555
H13_5 C27_5 1_555 1_555
H14_5 C27_5 1_555 1_555
C28_5 C3_5 1_555 1_555
H15_5 C28_5 1_555 1_555
H16_5 C28_5 1_555 1_555
H17_5 C28_5 1_555 1_555
C29_5 H18_5 1_555 1_555
C30_5 C15_5 1_555 1_555
C31_5 C27_5 1_555 1_555
C32_5 C2_5 1_555 1_555
C34_5 C29_5 1_555 1_555
H27_5 C44_5 1_555 1_555
H28_5 C44_5 1_555 1_555
H29_5 C44_5 1_555 1_555
H33_5 C46_5 1_555 1_555
H34_5 C46_5 1_555 1_555
H35_5 C46_5 1_555 1_555
Sr4 O3_5 1_555 1_555
Sr7 O3_5 1_555 1_555
O5_5 Sr7 1_555 1_555
C6_5 C7_5 1_555 1_555
C12_5 C13_5 1_555 1_555
C18_5 C19_5 1_555 1_555
C29_5 C30_5 1_555 1_555
C30_5 C31_5 1_555 1_555
C31_5 C32_5 1_555 1_555
C32_5 C33_5 1_555 1_555
C33_5 C34_5 1_555 1_555
Sr4 O1_6 1_555 1_555
Sr7 O7_6 1_555 1_555
P1_6 O2_6 1_555 1_555
O2_6 C7_6 1_555 1_555
O13 C1_6 1_555 1_555
O4_6 Sr4 1_555 1_555
O14 C1_6 1_555 1_555
O6_6 P1_6 1_555 1_555
O7_6 P1_6 1_555 1_555
O15_5 C26_6 1_555 1_555
O9_6 Sr4 1_555 1_555
O10_6 Sr7 1_555 1_555
O17_5 C26_6 1_555 1_555
O12_6 C36_6 1_555 1_555
C1_6 C11_6 1_555 1_555
C2_6 C3_6 1_555 1_555
C3_6 C4_6 1_555 1_555
C4_6 C5_6 1_555 1_555
C5_6 H1_6 1_555 1_555
C6_6 C5_6 1_555 1_555
C7_6 C2_6 1_555 1_555
C8_6 C4_6 1_555 1_555
C9_6 C8_6 1_555 1_555
H2_6 C9_6 1_555 1_555
C10_6 C9_6 1_555 1_555
H3_6 C10_6 1_555 1_555
C11_6 C10_6 1_555 1_555
C12_6 C11_6 1_555 1_555
H4_6 C12_6 1_555 1_555
C13_6 C8_6 1_555 1_555
H5_6 C13_6 1_555 1_555
C14_6 H6_6 1_555 1_555
C15_6 C14_6 1_555 1_555
C16_6 C15_6 1_555 1_555
H7_6 C16_6 1_555 1_555
C17_6 C16_6 1_555 1_555
H8_6 C17_6 1_555 1_555
C18_6 C17_6 1_555 1_555
C19_6 C14_6 1_555 1_555
H9_6 C19_6 1_555 1_555
C20_6 C6_6 1_555 1_555
C21_6 C20_6 1_555 1_555
C22_6 C21_6 1_555 1_555
H10_6 C22_6 1_555 1_555
C23_6 C22_6 1_555 1_555
C24_6 C23_6 1_555 1_555
H11_6 C24_6 1_555 1_555
C25_6 C20_6 1_555 1_555
C26_6 C18_6 1_555 1_555
C27_6 H12_6 1_555 1_555
H13_6 C27_6 1_555 1_555
H14_6 C27_6 1_555 1_555
C28_6 C3_6 1_555 1_555
H15_6 C28_6 1_555 1_555
H16_6 C28_6 1_555 1_555
H17_6 C28_6 1_555 1_555
C29_6 H18_6 1_555 1_555
C30_6 C15_6 1_555 1_555
C31_6 C27_6 1_555 1_555
C32_6 C2_6 1_555 1_555
C33_6 O6_6 1_555 1_555
C34_6 C29_6 1_555 1_555
C35_6 C21_6 1_555 1_555
H19_6 C35_6 1_555 1_555
H20_6 C35_6 1_555 1_555
H21_6 C35_6 1_555 1_555
C36_6 O9_6 1_555 1_555
C37_6 H22_6 1_555 1_555
H23_6 C37_6 1_555 1_555
H24_6 C37_6 1_555 1_555
C38_6 C39_6 1_555 1_555
C39_6 H25_6 1_555 1_555
C40_6 C37_6 1_555 1_555
C41_6 C34_6 1_555 1_555
C42_6 C41_6 1_555 1_555
C43_6 C38_6 1_555 1_555
H26_6 C43_6 1_555 1_555
C44_6 C42_6 1_555 1_555
H27_6 C44_6 1_555 1_555
H28_6 C44_6 1_555 1_555
H29_6 C44_6 1_555 1_555
C45_6 C36_6 1_555 1_555
H30_6 C45_6 1_555 1_555
H31_6 C45_6 1_555 1_555
H32_6 C45_6 1_555 1_555
C46_6 C25_6 1_555 1_555
H33_6 C46_6 1_555 1_555
H34_6 C46_6 1_555 1_555
H35_6 C46_6 1_555 1_555
C47_6 C23_6 1_555 1_555
H36_6 C47_6 1_555 1_555
H37_6 C47_6 1_555 1_555
H38_5 C47_6 1_555 1_555
C48_6 C38_6 1_555 1_555
H39_6 C48_6 1_555 1_555
H40_6 C48_6 1_555 1_555
H41_6 C48_6 1_555 1_555
C49_6 O10_6 1_555 1_555
Sr5_6 O9_6 1_555 1_555
O16_6 Sr4 1_555 1_555
O18_6 Sr4 1_555 1_555
P1_6 O4_6 1_555 1_555
O12_6 Sr5_6 1_555 1_555
C6_6 C7_6 1_555 1_555
C12_6 C13_6 1_555 1_555
C18_6 C19_6 1_555 1_555
C24_6 C25_6 1_555 1_555
C29_6 C30_6 1_555 1_555
C30_6 C31_6 1_555 1_555
C31_6 C32_6 1_555 1_555
C32_6 C33_6 1_555 1_555
C33_6 C34_6 1_555 1_555
C39_6 C40_6 1_555 1_555
C40_6 C41_6 1_555 1_555
C42_6 C43_6 1_555 1_555
Sr5_6 O16_6 1_555 1_555
O1_6 H42_6 1_555 1_555
O1_6 H43_6 1_555 1_555
C49_6 H44_6 1_555 1_555
C49_6 H45_6 1_555 1_555
C49_6 H46_6 1_555 1_555
Sr5_3 O1_7 1_555 1_555
Sr2_2 O7_7 1_555 1_555
P1_7 O2_7 1_555 1_555
O4_7 Sr5_3 1_555 1_555
O6_7 P1_7 1_555 1_555
O7_7 P1_7 1_555 1_555
O10_7 Sr2_2 1_555 1_555
O18_3 C36_7 1_555 1_555
C21_7 C20_7 1_555 1_555
C22_7 C21_7 1_555 1_555
H10_7 C22_7 1_555 1_555
C23_7 C22_7 1_555 1_555
C24_7 C23_7 1_555 1_555
H11_7 C24_7 1_555 1_555
C25_7 C20_7 1_555 1_555
C35_7 C21_7 1_555 1_555
H19_7 C35_7 1_555 1_555
H20_7 C35_7 1_555 1_555
H21_7 C35_7 1_555 1_555
C36_7 O16_3 1_555 1_555
C37_7 H22_7 1_555 1_555
H23_7 C37_7 1_555 1_555
H24_7 C37_7 1_555 1_555
C38_7 C39_7 1_555 1_555
C39_7 H25_7 1_555 1_555
C40_7 C37_7 1_555 1_555
C42_7 C41_7 1_555 1_555
C43_7 C38_7 1_555 1_555
H26_7 C43_7 1_555 1_555
C45_7 C36_7 1_555 1_555
H30_7 C45_7 1_555 1_555
H31_7 C45_7 1_555 1_555
H32_7 C45_7 1_555 1_555
C47_7 C23_7 1_555 1_555
H36_7 C47_7 1_555 1_555
H37_7 C47_7 1_555 1_555
C48_7 C38_7 1_555 1_555
H39_7 C48_7 1_555 1_555
H40_7 C48_7 1_555 1_555
H41_7 C48_7 1_555 1_555
C49_7 O10_7 1_555 1_555
O13_2 Sr5_3 1_555 1_555
O14_2 Sr2_2 1_555 1_555
O15_6 Sr5_3 1_555 1_555
O17_6 Sr2_2 1_555 1_555
Sr2_2 O13_2 1_555 1_555
P1_7 O4_7 1_555 1_555
C24_7 C25_7 1_555 1_555
C39_7 C40_7 1_555 1_555
C40_7 C41_7 1_555 1_555
C42_7 C43_7 1_555 1_555
O1_7 H42_7 1_555 1_555
O1_7 H43_7 1_555 1_555
C49_7 H44_7 1_555 1_555
C49_7 H45_7 1_555 1_555
C49_7 H46_7 1_555 1_555
Sr5_2 O3_6 1_555 1_555
Sr6_5 O3_6 1_555 1_555
O5_6 C1_7 1_555 1_555
O8_2 C26_7 1_555 1_555
O11_2 C26_7 1_555 1_555
C1_7 C11_7 1_555 1_555
C2_7 C3_7 1_555 1_555
C3_7 C4_7 1_555 1_555
C4_7 C5_7 1_555 1_555
C5_7 H1_7 1_555 1_555
C6_7 C5_7 1_555 1_555
C7_7 C2_7 1_555 1_555
C8_7 C4_7 1_555 1_555
C9_7 C8_7 1_555 1_555
H2_7 C9_7 1_555 1_555
C10_7 C9_7 1_555 1_555
H3_7 C10_7 1_555 1_555
C11_7 C10_7 1_555 1_555
C12_7 C11_7 1_555 1_555
C13_7 C8_7 1_555 1_555
H5_7 C13_7 1_555 1_555
C14_7 H6_7 1_555 1_555
C15_7 C14_7 1_555 1_555
C16_7 C15_7 1_555 1_555
H7_7 C16_7 1_555 1_555
C17_7 C16_7 1_555 1_555
H8_7 C17_7 1_555 1_555
C18_7 C17_7 1_555 1_555
C19_7 C14_7 1_555 1_555
H9_7 C19_7 1_555 1_555
C26_7 C18_7 1_555 1_555
C27_7 H12_7 1_555 1_555
H13_7 C27_7 1_555 1_555
H14_7 C27_7 1_555 1_555
C28_7 C3_7 1_555 1_555
H15_7 C28_7 1_555 1_555
H16_7 C28_7 1_555 1_555
H17_7 C28_7 1_555 1_555
C29_7 H18_7 1_555 1_555
C30_7 C15_7 1_555 1_555
C31_7 C27_7 1_555 1_555
C32_7 C2_7 1_555 1_555
C34_7 C29_7 1_555 1_555
H27_7 C44_7 1_555 1_555
H28_7 C44_7 1_555 1_555
H29_7 C44_7 1_555 1_555
H33_7 C46_7 1_555 1_555
H34_7 C46_7 1_555 1_555
H35_7 C46_7 1_555 1_555
Sr5_4 O8_2 1_555 1_555
Sr7_2 O11_2 1_555 1_555
C6_7 C7_7 1_555 1_555
C12_7 C13_7 1_555 1_555
C18_7 C19_7 1_555 1_555
C29_7 C30_7 1_555 1_555
C30_7 C31_7 1_555 1_555
C31_7 C32_7 1_555 1_555
C32_7 C33_7 1_555 1_555
C33_7 C34_7 1_555 1_555
Sr5_4 O1_8 1_555 1_555
Sr7_2 O7_8 1_555 1_555
P1_8 O2_8 1_555 1_555
O2_8 C7_8 1_555 1_555
O13_2 C1_8 1_555 1_555
O4_8 Sr5_4 1_555 1_555
O14_2 C1_8 1_555 1_555
O6_8 P1_8 1_555 1_555
O7_8 P1_8 1_555 1_555
O8_3 C26_8 1_555 1_555
O10_8 Sr7_2 1_555 1_555
O11_3 C26_8 1_555 1_555
O18_4 C36_8 1_555 1_555
C1_8 C11_8 1_555 1_555
C2_8 C3_8 1_555 1_555
C3_8 C4_8 1_555 1_555
C4_8 C5_8 1_555 1_555
C5_8 H1_8 1_555 1_555
C6_8 C5_8 1_555 1_555
C7_8 C2_8 1_555 1_555
C8_8 C4_8 1_555 1_555
C9_8 C8_8 1_555 1_555
H2_8 C9_8 1_555 1_555
C10_8 C9_8 1_555 1_555
H3_8 C10_8 1_555 1_555
C11_8 C10_8 1_555 1_555
C12_8 C11_8 1_555 1_555
H4_8 C12_8 1_555 1_555
C13_8 C8_8 1_555 1_555
H5_8 C13_8 1_555 1_555
C14_8 H6_8 1_555 1_555
C15_8 C14_8 1_555 1_555
C16_8 C15_8 1_555 1_555
H7_8 C16_8 1_555 1_555
C17_8 C16_8 1_555 1_555
H8_8 C17_8 1_555 1_555
C18_8 C17_8 1_555 1_555
C19_8 C14_8 1_555 1_555
H9_8 C19_8 1_555 1_555
C20_8 C6_8 1_555 1_555
C21_8 C20_8 1_555 1_555
C22_8 C21_8 1_555 1_555
H10_8 C22_8 1_555 1_555
C23_8 C22_8 1_555 1_555
C24_8 C23_8 1_555 1_555
H11_8 C24_8 1_555 1_555
C25_8 C20_8 1_555 1_555
C26_8 C18_8 1_555 1_555
C27_8 H12_8 1_555 1_555
H13_8 C27_8 1_555 1_555
H14_8 C27_8 1_555 1_555
C28_8 C3_8 1_555 1_555
H15_8 C28_8 1_555 1_555
H16_8 C28_8 1_555 1_555
H17_8 C28_8 1_555 1_555
C29_8 H18_8 1_555 1_555
C30_8 C15_8 1_555 1_555
C31_8 C27_8 1_555 1_555
C32_8 C2_8 1_555 1_555
C33_8 O6_8 1_555 1_555
C34_8 C29_8 1_555 1_555
C35_8 C21_8 1_555 1_555
H19_8 C35_8 1_555 1_555
H20_8 C35_8 1_555 1_555
H21_8 C35_8 1_555 1_555
C36_8 O16_4 1_555 1_555
C37_8 H22_8 1_555 1_555
H23_8 C37_8 1_555 1_555
H24_8 C37_8 1_555 1_555
C38_8 C39_8 1_555 1_555
C39_8 H25_8 1_555 1_555
C40_8 C37_8 1_555 1_555
C41_8 C34_8 1_555 1_555
C42_8 C41_8 1_555 1_555
C43_8 C38_8 1_555 1_555
H26_8 C43_8 1_555 1_555
C44_8 C42_8 1_555 1_555
H27_8 C44_8 1_555 1_555
H28_8 C44_8 1_555 1_555
H29_8 C44_8 1_555 1_555
C45_8 C36_8 1_555 1_555
H30_8 C45_8 1_555 1_555
H31_8 C45_8 1_555 1_555
H32_8 C45_8 1_555 1_555
C46_8 C25_8 1_555 1_555
H33_8 C46_8 1_555 1_555
H34_8 C46_8 1_555 1_555
H35_8 C46_8 1_555 1_555
C47_8 C23_8 1_555 1_555
H36_8 C47_8 1_555 1_555
H37_8 C47_8 1_555 1_555
H38_6 C47_8 1_555 1_555
C48_8 C38_8 1_555 1_555
H39_8 C48_8 1_555 1_555
H40_8 C48_8 1_555 1_555
H41_8 C48_8 1_555 1_555
C49_8 O10_8 1_555 1_555
Sr5_5 O8_3 1_555 1_555
Sr7_3 O11_3 1_555 1_555
O13_3 Sr5_4 1_555 1_555
O14_3 Sr7_2 1_555 1_555
Sr7_2 O13_3 1_555 1_555
P1_8 O4_8 1_555 1_555
C6_8 C7_8 1_555 1_555
C12_8 C13_8 1_555 1_555
C18_8 C19_8 1_555 1_555
C24_8 C25_8 1_555 1_555
C29_8 C30_8 1_555 1_555
C30_8 C31_8 1_555 1_555
C31_8 C32_8 1_555 1_555
C32_8 C33_8 1_555 1_555
C33_8 C34_8 1_555 1_555
C39_8 C40_8 1_555 1_555
C40_8 C41_8 1_555 1_555
C42_8 C43_8 1_555 1_555
O1_8 H42_8 1_555 1_555
O1_8 H43_8 1_555 1_555
C49_8 H44_8 1_555 1_555
C49_8 H45_8 1_555 1_555
C49_8 H46_8 1_555 1_555
O13_3 C1_9 1_555 1_555
O14_3 C1_9 1_555 1_555
O8_4 C26_9 1_555 1_555
O11_4 C26_9 1_555 1_555
C1_9 C11_9 1_555 1_555
C2_9 C3_9 1_555 1_555
C3_9 C4_9 1_555 1_555
C4_9 C5_9 1_555 1_555
C5_9 H1_9 1_555 1_555
C6_9 C5_9 1_555 1_555
C7_9 C2_9 1_555 1_555
C8_9 C4_9 1_555 1_555
C9_9 C8_9 1_555 1_555
H2_9 C9_9 1_555 1_555
C10_9 C9_9 1_555 1_555
H3_9 C10_9 1_555 1_555
C11_9 C10_9 1_555 1_555
C12_9 C11_9 1_555 1_555
H4_9 C12_9 1_555 1_555
C13_9 C8_9 1_555 1_555
H5_9 C13_9 1_555 1_555
C14_9 H6_9 1_555 1_555
C15_9 C14_9 1_555 1_555
C16_9 C15_9 1_555 1_555
H7_9 C16_9 1_555 1_555
C17_9 C16_9 1_555 1_555
H8_9 C17_9 1_555 1_555
C18_9 C17_9 1_555 1_555
C19_9 C14_9 1_555 1_555
H9_9 C19_9 1_555 1_555
C26_9 C18_9 1_555 1_555
C27_9 H12_9 1_555 1_555
H13_9 C27_9 1_555 1_555
H14_9 C27_9 1_555 1_555
C28_9 C3_9 1_555 1_555
H15_9 C28_9 1_555 1_555
H16_9 C28_9 1_555 1_555
H17_9 C28_9 1_555 1_555
C29_9 H18_9 1_555 1_555
C30_9 C15_9 1_555 1_555
C31_9 C27_9 1_555 1_555
C32_9 C2_9 1_555 1_555
C34_9 C29_9 1_555 1_555
H27_9 C44_9 1_555 1_555
H28_9 C44_9 1_555 1_555
H29_9 C44_9 1_555 1_555
H33_9 C46_9 1_555 1_555
H34_9 C46_9 1_555 1_555
H35_9 C46_9 1_555 1_555
Sr5_6 O8_4 1_555 1_555
Sr7_4 O11_4 1_555 1_555
C6_9 C7_9 1_555 1_555
C12_9 C13_9 1_555 1_555
C18_9 C19_9 1_555 1_555
C29_9 C30_9 1_555 1_555
C30_9 C31_9 1_555 1_555
C31_9 C32_9 1_555 1_555
C32_9 C33_9 1_555 1_555
C33_9 C34_9 1_555 1_555
Sr5_5 O1_9 1_555 1_555
Sr7_3 O7_9 1_555 1_555
P1_9 O2_9 1_555 1_555
O4_9 Sr5_5 1_555 1_555
O6_9 P1_9 1_555 1_555
O7_9 P1_9 1_555 1_555
O10_9 Sr7_3 1_555 1_555
O18_5 C36_9 1_555 1_555
C21_9 C20_9 1_555 1_555
C22_9 C21_9 1_555 1_555
H10_9 C22_9 1_555 1_555
C23_9 C22_9 1_555 1_555
C24_9 C23_9 1_555 1_555
H11_9 C24_9 1_555 1_555
C25_9 C20_9 1_555 1_555
C35_9 C21_9 1_555 1_555
H19_9 C35_9 1_555 1_555
H20_9 C35_9 1_555 1_555
H21_9 C35_9 1_555 1_555
C36_9 O16_5 1_555 1_555
C37_9 H22_9 1_555 1_555
H23_9 C37_9 1_555 1_555
H24_9 C37_9 1_555 1_555
C38_9 C39_9 1_555 1_555
C39_9 H25_9 1_555 1_555
C40_9 C37_9 1_555 1_555
C42_9 C41_9 1_555 1_555
C43_9 C38_9 1_555 1_555
H26_9 C43_9 1_555 1_555
C45_9 C36_9 1_555 1_555
H30_9 C45_9 1_555 1_555
H31_9 C45_9 1_555 1_555
H32_9 C45_9 1_555 1_555
C47_9 C23_9 1_555 1_555
H36_9 C47_9 1_555 1_555
H37_9 C47_9 1_555 1_555
H38_7 C47_9 1_555 1_555
C48_9 C38_9 1_555 1_555
H39_9 C48_9 1_555 1_555
H40_9 C48_9 1_555 1_555
H41_9 C48_9 1_555 1_555
C49_9 O10_9 1_555 1_555
O13_4 Sr5_5 1_555 1_555
O14_4 Sr7_3 1_555 1_555
Sr7_3 O13_4 1_555 1_555
P1_9 O4_9 1_555 1_555
C24_9 C25_9 1_555 1_555
C39_9 C40_9 1_555 1_555
C40_9 C41_9 1_555 1_555
C42_9 C43_9 1_555 1_555
O1_9 H42_9 1_555 1_555
O1_9 H43_9 1_555 1_555
C49_9 H44_9 1_555 1_555
C49_9 H45_9 1_555 1_555
C49_9 H46_9 1_555 1_555
O13_4 C1_10 1_555 1_555
O14_4 C1_10 1_555 1_555
O8_5 C26_10 1_555 1_555
O11_5 C26_10 1_555 1_555
C1_10 C11_10 1_555 1_555
C2_10 C3_10 1_555 1_555
C3_10 C4_10 1_555 1_555
C4_10 C5_10 1_555 1_555
C5_10 H1_10 1_555 1_555
C6_10 C5_10 1_555 1_555
C7_10 C2_10 1_555 1_555
C8_10 C4_10 1_555 1_555
C9_10 C8_10 1_555 1_555
H2_10 C9_10 1_555 1_555
C10_10 C9_10 1_555 1_555
H3_10 C10_10 1_555 1_555
C11_10 C10_10 1_555 1_555
C12_10 C11_10 1_555 1_555
H4_10 C12_10 1_555 1_555
C13_10 C8_10 1_555 1_555
H5_10 C13_10 1_555 1_555
C14_10 H6_10 1_555 1_555
C15_10 C14_10 1_555 1_555
C16_10 C15_10 1_555 1_555
H7_10 C16_10 1_555 1_555
C17_10 C16_10 1_555 1_555
H8_10 C17_10 1_555 1_555
C18_10 C17_10 1_555 1_555
C19_10 C14_10 1_555 1_555
H9_10 C19_10 1_555 1_555
C26_10 C18_10 1_555 1_555
C27_10 H12_10 1_555 1_555
H13_10 C27_10 1_555 1_555
H14_10 C27_10 1_555 1_555
C28_10 C3_10 1_555 1_555
H15_10 C28_10 1_555 1_555
H16_10 C28_10 1_555 1_555
H17_10 C28_10 1_555 1_555
C29_10 H18_10 1_555 1_555
C30_10 C15_10 1_555 1_555
C31_10 C27_10 1_555 1_555
C32_10 C2_10 1_555 1_555
C34_10 C29_10 1_555 1_555
H27_10 C44_10 1_555 1_555
H28_10 C44_10 1_555 1_555
H29_10 C44_10 1_555 1_555
H33_10 C46_10 1_555 1_555
H34_10 C46_10 1_555 1_555
H35_10 C46_10 1_555 1_555
Sr5 O8_5 1_555 1_555
Sr7_5 O11_5 1_555 1_555
C6_10 C7_10 1_555 1_555
C12_10 C13_10 1_555 1_555
C18_10 C19_10 1_555 1_555
C29_10 C30_10 1_555 1_555
C30_10 C31_10 1_555 1_555
C31_10 C32_10 1_555 1_555
C32_10 C33_10 1_555 1_555
C33_10 C34_10 1_555 1_555
Sr5_6 O1_10 1_555 1_555
Sr7_4 O7_10 1_555 1_555
P1_10 O2_10 1_555 1_555
O4_10 Sr5_6 1_555 1_555
O6_10 P1_10 1_555 1_555
O7_10 P1_10 1_555 1_555
O10_10 Sr7_4 1_555 1_555
O18_6 C36_10 1_555 1_555
C21_10 C20_10 1_555 1_555
C22_10 C21_10 1_555 1_555
H10_10 C22_10 1_555 1_555
C23_10 C22_10 1_555 1_555
C24_10 C23_10 1_555 1_555
H11_10 C24_10 1_555 1_555
C25_10 C20_10 1_555 1_555
C35_10 C21_10 1_555 1_555
H19_10 C35_10 1_555 1_555
H20_10 C35_10 1_555 1_555
H21_10 C35_10 1_555 1_555
C36_10 O16_6 1_555 1_555
C37_10 H22_10 1_555 1_555
H23_10 C37_10 1_555 1_555
H24_10 C37_10 1_555 1_555
C38_10 C39_10 1_555 1_555
C39_10 H25_10 1_555 1_555
C40_10 C37_10 1_555 1_555
C42_10 C41_10 1_555 1_555
C43_10 C38_10 1_555 1_555
H26_10 C43_10 1_555 1_555
C45_10 C36_10 1_555 1_555
H30_10 C45_10 1_555 1_555
H31_10 C45_10 1_555 1_555
H32_10 C45_10 1_555 1_555
C47_10 C23_10 1_555 1_555
H36_10 C47_10 1_555 1_555
H37_10 C47_10 1_555 1_555
H38_8 C47_10 1_555 1_555
C48_10 C38_10 1_555 1_555
H39_10 C48_10 1_555 1_555
H40_10 C48_10 1_555 1_555
H41_10 C48_10 1_555 1_555
C49_10 O10_10 1_555 1_555
O13_5 Sr5_6 1_555 1_555
O14_5 Sr7_4 1_555 1_555
Sr7_4 O13_5 1_555 1_555
P1_10 O4_10 1_555 1_555
C24_10 C25_10 1_555 1_555
C39_10 C40_10 1_555 1_555
C40_10 C41_10 1_555 1_555
C42_10 C43_10 1_555 1_555
O1_10 H42_10 1_555 1_555
O1_10 H43_10 1_555 1_555
C49_10 H44_10 1_555 1_555
C49_10 H45_10 1_555 1_555
C49_10 H46_10 1_555 1_555
Sr5 O1_11 1_555 1_555
Sr7_5 O7_11 1_555 1_555
P1_11 O2_11 1_555 1_555
O2_11 C7_11 1_555 1_555
O13_5 C1_11 1_555 1_555
O4_11 Sr5 1_555 1_555
O14_5 C1_11 1_555 1_555
O6_11 P1_11 1_555 1_555
O7_11 P1_11 1_555 1_555
O8_6 C26_11 1_555 1_555
O10_11 Sr7_5 1_555 1_555
O11_6 C26_11 1_555 1_555
O18 C36_11 1_555 1_555
C1_11 C11_11 1_555 1_555
C2_11 C3_11 1_555 1_555
C3_11 C4_11 1_555 1_555
C4_11 C5_11 1_555 1_555
C5_11 H1_11 1_555 1_555
C6_11 C5_11 1_555 1_555
C7_11 C2_11 1_555 1_555
C8_11 C4_11 1_555 1_555
C9_11 C8_11 1_555 1_555
H2_11 C9_11 1_555 1_555
C10_11 C9_11 1_555 1_555
H3_11 C10_11 1_555 1_555
C11_11 C10_11 1_555 1_555
C12_11 C11_11 1_555 1_555
H4_11 C12_11 1_555 1_555
C13_11 C8_11 1_555 1_555
H5_11 C13_11 1_555 1_555
C14_11 H6_11 1_555 1_555
C15_11 C14_11 1_555 1_555
C16_11 C15_11 1_555 1_555
H7_11 C16_11 1_555 1_555
C17_11 C16_11 1_555 1_555
H8_11 C17_11 1_555 1_555
C18_11 C17_11 1_555 1_555
C19_11 C14_11 1_555 1_555
H9_11 C19_11 1_555 1_555
C20_11 C6_11 1_555 1_555
C21_11 C20_11 1_555 1_555
C22_11 C21_11 1_555 1_555
H10_11 C22_11 1_555 1_555
C23_11 C22_11 1_555 1_555
C24_11 C23_11 1_555 1_555
H11_11 C24_11 1_555 1_555
C25_11 C20_11 1_555 1_555
C26_11 C18_11 1_555 1_555
C27_11 H12_11 1_555 1_555
H13_11 C27_11 1_555 1_555
H14_11 C27_11 1_555 1_555
C28_11 C3_11 1_555 1_555
H15_11 C28_11 1_555 1_555
H16_11 C28_11 1_555 1_555
H17_11 C28_11 1_555 1_555
C29_11 H18_11 1_555 1_555
C30_11 C15_11 1_555 1_555
C31_11 C27_11 1_555 1_555
C32_11 C2_11 1_555 1_555
C33_11 O6_11 1_555 1_555
C34_11 C29_11 1_555 1_555
C35_11 C21_11 1_555 1_555
H19_11 C35_11 1_555 1_555
H20_11 C35_11 1_555 1_555
H21_11 C35_11 1_555 1_555
C36_11 O16 1_555 1_555
C37_11 H22_11 1_555 1_555
H23_11 C37_11 1_555 1_555
H24_11 C37_11 1_555 1_555
C38_11 C39_11 1_555 1_555
C39_11 H25_11 1_555 1_555
C40_11 C37_11 1_555 1_555
C41_11 C34_11 1_555 1_555
C42_11 C41_11 1_555 1_555
C43_11 C38_11 1_555 1_555
H26_11 C43_11 1_555 1_555
C44_11 C42_11 1_555 1_555
H27_11 C44_11 1_555 1_555
H28_11 C44_11 1_555 1_555
H29_11 C44_11 1_555 1_555
C45_11 C36_11 1_555 1_555
H30_11 C45_11 1_555 1_555
H31_11 C45_11 1_555 1_555
H32_11 C45_11 1_555 1_555
C46_11 C25_11 1_555 1_555
H33_11 C46_11 1_555 1_555
H34_11 C46_11 1_555 1_555
H35_11 C46_11 1_555 1_555
C47_11 C23_11 1_555 1_555
H36_11 C47_11 1_555 1_555
H37_11 C47_11 1_555 1_555
H38_9 C47_11 1_555 1_555
C48_11 C38_11 1_555 1_555
H39_11 C48_11 1_555 1_555
H40_11 C48_11 1_555 1_555
H41_11 C48_11 1_555 1_555
C49_11 O10_11 1_555 1_555
Sr5_2 O8_6 1_555 1_555
Sr6_5 O11_6 1_555 1_555
O13_6 Sr5 1_555 1_555
O14_6 Sr7_5 1_555 1_555
Sr7_5 O13_6 1_555 1_555
P1_11 O4_11 1_555 1_555
C6_11 C7_11 1_555 1_555
C12_11 C13_11 1_555 1_555
C18_11 C19_11 1_555 1_555
C24_11 C25_11 1_555 1_555
C29_11 C30_11 1_555 1_555
C30_11 C31_11 1_555 1_555
C31_11 C32_11 1_555 1_555
C32_11 C33_11 1_555 1_555
C33_11 C34_11 1_555 1_555
C39_11 C40_11 1_555 1_555
C40_11 C41_11 1_555 1_555
C42_11 C43_11 1_555 1_555
O1_11 H42_11 1_555 1_555
O1_11 H43_11 1_555 1_555
C49_11 H44_11 1_555 1_555
C49_11 H45_11 1_555 1_555
C49_11 H46_11 1_555 1_555
Sr5_2 O1_12 1_555 1_555
Sr6_5 O7_12 1_555 1_555
P1_12 O2_12 1_555 1_555
O4_12 Sr5_2 1_555 1_555
O6_12 P1_12 1_555 1_555
O7_12 P1_12 1_555 1_555
O10_12 Sr6_5 1_555 1_555
O18_2 C36_12 1_555 1_555
C21_12 C20_12 1_555 1_555
C22_12 C21_12 1_555 1_555
H10_12 C22_12 1_555 1_555
C23_12 C22_12 1_555 1_555
C24_12 C23_12 1_555 1_555
H11_12 C24_12 1_555 1_555
C25_12 C20_12 1_555 1_555
C35_12 C21_12 1_555 1_555
H19_12 C35_12 1_555 1_555
H20_12 C35_12 1_555 1_555
H21_12 C35_12 1_555 1_555
C36_12 O16_2 1_555 1_555
C45_12 C36_12 1_555 1_555
H30_12 C45_12 1_555 1_555
H31_12 C45_12 1_555 1_555
H32_12 C45_12 1_555 1_555
C47_12 C23_12 1_555 1_555
H36_12 C47_12 1_555 1_555
H37_12 C47_12 1_555 1_555
H38_10 C47_12 1_555 1_555
P1_12 O4_12 1_555 1_555
C24_12 C25_12 1_555 1_555
O1_12 H42_12 1_555 1_555
O1_12 H43_12 1_555 1_555
C37_12 H22_12 1_555 1_555
H23_12 C37_12 1_555 1_555
H24_12 C37_12 1_555 1_555
C38_12 C39_12 1_555 1_555
C39_12 H25_12 1_555 1_555
C40_12 C37_12 1_555 1_555
C42_12 C41_12 1_555 1_555
C43_12 C38_12 1_555 1_555
H26_12 C43_12 1_555 1_555
C48_12 C38_12 1_555 1_555
H39_12 C48_12 1_555 1_555
H40_12 C48_12 1_555 1_555
H41_12 C48_12 1_555 1_555
C39_12 C40_12 1_555 1_555
C40_12 C41_12 1_555 1_555
C42_12 C43_12 1_555 1_555
C49_12 H45_12 1_555 1_555
C49_12 H46_12 1_555 1_555
O13_6 C1_12 1_555 1_555
O14_6 C1_12 1_555 1_555
C1_12 C11_12 1_555 1_555
C2_12 C3_12 1_555 1_555
C3_12 C4_12 1_555 1_555
C4_12 C5_12 1_555 1_555
C5_12 H1_12 1_555 1_555
C6_12 C5_12 1_555 1_555
C7_12 C2_12 1_555 1_555
C8_12 C4_12 1_555 1_555
C9_12 C8_12 1_555 1_555
H2_12 C9_12 1_555 1_555
C10_12 C9_12 1_555 1_555
H3_12 C10_12 1_555 1_555
C11_12 C10_12 1_555 1_555
C12_12 C11_12 1_555 1_555
H4_12 C12_12 1_555 1_555
C13_12 C8_12 1_555 1_555
H5_12 C13_12 1_555 1_555
C27_12 H12_12 1_555 1_555
H13_12 C27_12 1_555 1_555
H14_12 C27_12 1_555 1_555
C28_12 C3_12 1_555 1_555
H15_12 C28_12 1_555 1_555
H16_12 C28_12 1_555 1_555
H17_12 C28_12 1_555 1_555
C31_12 C27_12 1_555 1_555
C32_12 C2_12 1_555 1_555
H33_12 C46_12 1_555 1_555
H34_12 C46_12 1_555 1_555
H35_12 C46_12 1_555 1_555
C6_12 C7_12 1_555 1_555
C12_12 C13_12 1_555 1_555
C31_12 C32_12 1_555 1_555
C32_12 C33_12 1_555 1_555
O15_6 C26_12 1_555 1_555
O17_6 C26_12 1_555 1_555
C14_12 H6_12 1_555 1_555
C15_12 C14_12 1_555 1_555
C16_12 C15_12 1_555 1_555
H7_12 C16_12 1_555 1_555
C17_12 C16_12 1_555 1_555
H8_12 C17_12 1_555 1_555
C18_12 C17_12 1_555 1_555
C19_12 C14_12 1_555 1_555
H9_12 C19_12 1_555 1_555
C26_12 C18_12 1_555 1_555
C29_12 H18_12 1_555 1_555
C30_12 C15_12 1_555 1_555
C34_12 C29_12 1_555 1_555
H27_12 C44_12 1_555 1_555
H28_12 C44_12 1_555 1_555
C18_12 C19_12 1_555 1_555
C29_12 C30_12 1_555 1_555

#END
