
###############################################################################
#
# This file contains modified crystal structure data generated from the
# MOF subset of the Cambridge Structural Database (CSD) v543 
# hosted by the Cambridge Crystallographic Data Centre (CCDC).
#
# This work is licensed under the Creative Commons
# Attribution-NonCommercial-ShareAlike 4.0 International License.
# To view a copy of this license, visit
# http://creativecommons.org/licenses/by-nc-sa/4.0/
# or send a letter to
# Creative Commons, PO Box 1866, Mountain View, CA 94042, USA.
#
# CIF created using the CSD Python API on 29 September 2022
# The structure has been converted into the P1 space group
# The structure has a 3D framework
# The original CSD entry TUWFOJ is in the hexagonal crystal system
# The original CSD entry TUWFOJ is in a Sohncke space group
# The framework has been calculated to contain at least 10.0% void space
# The void calculation uses a probe of radius 1.32A, grid spacing 0.4
# H atom positions have been added when not included in the experimental data
#
###############################################################################

data_TUWFOJ
_chemical_formula_moiety         '(C590 H552 Ca24 O144 P12)n'
_symmetry_cell_setting           triclinic
_symmetry_space_group_name_H-M   'P 1'
_symmetry_Int_Tables_number      1
_space_group_name_Hall           'P 1'
loop_
_symmetry_equiv_pos_site_id
_symmetry_equiv_pos_as_xyz
1 x,y,z
_cell_length_a                   24.1776(2)
_cell_length_b                   24.1776(2)
_cell_length_c                   48.9145(7)
_cell_angle_alpha                90
_cell_angle_beta                 90
_cell_angle_gamma                120
_cell_volume                     24762.5
loop_
_atom_site_label
_atom_site_type_symbol
_atom_site_fract_x
_atom_site_fract_y
_atom_site_fract_z
O4 O 0.7589(2) 0.3823(2) 0.25588(9)
O5 O 0.6516(2) 0.4125(2) 0.00705(9)
O8 O 0.7726(3) 0.3070(3) 0.27741(9)
C1 C 0.3587(6) 0.0170(6) 0.1778(2)
H1 H 0.3139 0.0028 0.1785
H2 H 0.3722 0.0218 0.1590
H3 H 0.3822 0.0572 0.1870
C2 C 0.6062(3) 0.3582(3) -0.00002(12)
C4 C 0.5597(3) 0.14010(17) 0.06451(7)
C5 C 0.5535(3) 0.13779(17) 0.09279(7)
C6 C 0.5469(3) 0.08522(19) 0.10714(5)
C7 C 0.5466(3) 0.03498(16) 0.09320(7)
C8 C 0.5529(3) 0.03729(17) 0.06491(7)
C9 C 0.5594(3) 0.08986(19) 0.05056(5)
H7 H 0.5635 0.0914 0.0316
C10 C 0.6457(2) 0.24783(19) 0.19708(7)
H8 H 0.6295 0.2589 0.1821
C11 C 0.6863(2) 0.29454(15) 0.21540(8)
H9 H 0.6972 0.3369 0.2127
C12 C 0.7105(2) 0.27794(18) 0.23773(8)
C13 C 0.6942(3) 0.2146(2) 0.24175(8)
H10 H 0.7104 0.2035 0.2567
C14 C 0.6536(3) 0.16794(16) 0.22343(8)
H11 H 0.6427 0.1256 0.2261
C15 C 0.6294(2) 0.18453(17) 0.20110(7)
C16 C 0.7512(3) 0.3262(4) 0.25848(12)
C17 C 0.5455(2) 0.2412(2) 0.00898(7)
C18 C 0.5926(2) 0.30214(17) 0.01671(7)
C19 C 0.6286(2) 0.31054(16) 0.04011(8)
H13 H 0.6601 0.3513 0.0453
C20 C 0.6176(2) 0.2580(2) 0.05577(7)
H14 H 0.6417 0.2636 0.0714
C21 C 0.5705(2) 0.19708(16) 0.04804(8)
C22 C 0.5345(2) 0.18867(16) 0.02465(8)
H15 H 0.5030 0.1479 0.0195
C30 C 0.6538(4) 0.1866(3) 0.14105(14)
H21 H 0.6662 0.1680 0.1267
H22 H 0.6866 0.2042 0.1547
H23 H 0.6475 0.2198 0.1336
C31 C 0.5464(2) 0.08361(19) 0.13830(5)
C32 C 0.5904(2) 0.13432(17) 0.15416(7)
C33 C 0.5827(2) 0.13314(18) 0.18235(7)
C34 C 0.5310(2) 0.0813(2) 0.19469(5)
H24 H 0.5259 0.0805 0.2136
C35 C 0.4870(2) 0.03055(18) 0.17883(7)
C36 C 0.4947(2) 0.03173(17) 0.15064(7)
C37 C 0.5404(4) 0.1863(4) 0.10688(13)
H25 H 0.5793 0.2266 0.1080
H26 H 0.5243 0.1716 0.1250
H27 H 0.5093 0.1912 0.0966
C47 C 0.6656(6) 0.0267(6) 0.0607(3)
H36 H 0.6748 0.0683 0.0548
H37 H 0.7003 0.0201 0.0556
H38 H 0.6605 0.0235 0.0802
Ca4 Ca 0.81517(4) 0.34600(6) 0.31110(2)
Ca6 Ca 0.80888(7) 0.48403(10) 0.27170(2)
O6 O 0.5703(3) 0.3511(2) 0.97996(9)
C2_2 C 0.6062(3) 0.3582(3) 0.99998(12)
H12 H 0.5215 0.2356 0.9933
Ca3 Ca 0.65400(6) 0.46917(5) 0.97776(2)
Ca5 Ca 0.51597(10) 0.32485(7) 0.93836(2)
Ca1 Ca 0.46917(5) 0.81517(4) 0.14443(2)
Ca2 Ca 0.32485(7) 0.80888(7) 0.10503(2)
P1 P 0.47425(10) 0.93544(9) 0.12148(3)
O1 O 0.5414(3) 0.9838(2) 0.10764(8)
O2 O 0.4257(3) 0.8972(2) 0.10165(8)
O3 O 0.4525(3) 0.9811(2) 0.13531(8)
O7 O 0.4929(3) 0.9034(2) 0.14278(8)
O9 O 0.2733(3) 0.7842(2) 0.05696(9)
O10 O 0.5521(3) 0.8267(4) 0.15975(12)
O11 O 0.3047(4) 0.8703(3) 0.13861(12)
O12 O 0.2863(3) 0.8682(3) 0.07888(11)
C3 C 0.5432(6) 0.8198(5) 0.0071(2)
H4 H 0.4999 0.7849 0.0071
H5 H 0.5700 0.8071 0.0165
C23 C 0.4333(4) 0.9388(4) 0.03806(14)
H16 H 0.4358 0.9669 0.0525
H17 H 0.3964 0.8975 0.0408
H18 H 0.4300 0.9558 0.0208
C24 C 0.5495(3) 0.98031(19) 0.04964(9)
C25 C 0.4926(2) 0.9331(2) 0.03830(9)
C26 C 0.4909(3) 0.8821(2) 0.02451(9)
H19 H 0.4529 0.8505 0.0169
C27 C 0.5462(3) 0.8782(2) 0.02206(11)
C28 C 0.6030(3) 0.9253(3) 0.03341(13)
H20 H 0.6400 0.9227 0.0318
C29 C 0.6047(2) 0.9764(2) 0.04720(12)
C38 C 0.2702(4) 0.8346(4) 0.05823(15)
C39 C 0.5022(5) 0.9283(5) 0.20815(15)
H28 H 0.5264 0.9553 0.2231
H29 H 0.5256 0.9449 0.1914
H30 H 0.4947 0.8859 0.2112
C40 C 0.3714(3) 0.9672(3) 0.19185(11)
C41 C 0.3197(2) 0.9156(3) 0.20428(12)
H31 H 0.2795 0.9119 0.2037
C42 C 0.3280(3) 0.8695(2) 0.21763(10)
C43 C 0.3880(3) 0.8750(2) 0.21855(9)
H32 H 0.3935 0.8442 0.2275
C44 C 0.4397(2) 0.9266(2) 0.20612(9)
C45 C 0.4315(3) 0.97275(19) 0.19277(9)
C46 C 0.2439(6) 0.8542(6) 0.03359(18)
H33 H 0.2386 0.8897 0.0386
H34 H 0.2034 0.8188 0.0282
H35 H 0.2734 0.8663 0.0186
C48 C 0.2652(6) 0.8138(5) 0.2310(2)
H39 H 0.2696 0.8160 0.2506
H40 H 0.2587 0.7734 0.2247
H41 H 0.2293 0.8183 0.2259
C49 C 0.5505(7) 0.7780(9) 0.1772(4)
H42 H 0.5585 0.7495 0.1665
H43 H 0.5092 0.7546 0.1856
H44 H 0.5826 0.7976 0.1911
Ca7 Ca 0.19112(7) 0.67515(7) 0.06164(2)
O13 O 0.3766(3) 0.7589(2) 0.08921(9)
O14 O 0.4125(2) 0.7609(3) 0.17372(9)
O15 O 0.3511(2) 0.7808(4) 0.14663(9)
O16 O 0.4656(4) 0.7726(3) 0.11074(9)
O17 O 0.2158(2) 0.7267(3) 0.10971(9)
H45 H 0.310312 0.909995 0.130015
H46 H 0.260328 0.844559 0.145557
C1_2 C 0.3417(8) 0.3587(6) 0.0111(2)
H1_2 H 0.3111 0.3139 0.0118
H3_2 H 0.3250 0.3822 0.0203
C10_2 C 0.39787(28) 0.6457(2) 0.03041(7)
H8_2 H 0.3706 0.6295 0.0154
C11_2 C 0.39176(25) 0.6863(2) 0.04873(8)
H9_2 H 0.3603 0.6972 0.0460
C12_2 C 0.43256(27) 0.7105(2) 0.07106(8)
C13_2 C 0.4796(4) 0.6942(3) 0.07508(8)
H10_2 H 0.5069 0.7104 0.0900
C14_2 C 0.48566(34) 0.6536(3) 0.05676(8)
H11_2 H 0.5171 0.6427 0.0594
C15_2 C 0.44487(26) 0.6294(2) 0.03443(7)
C16_2 C 0.4250(5) 0.7512(3) 0.09181(12)
C33_2 C 0.44956(27) 0.5827(2) 0.01568(7)
C34_2 C 0.4497(3) 0.5310(2) 0.02802(5)
H24_2 H 0.4454 0.5259 0.0469
C35_2 C 0.45645(27) 0.4870(2) 0.01216(7)
C39_2 C 0.5739(7) 0.5022(5) 0.04148(15)
H28_2 H 0.5711 0.5264 0.0564
H29_2 H 0.5807 0.5256 0.0247
H30_2 H 0.6088 0.4947 0.0445
C40_2 C 0.4042(4) 0.3714(3) 0.02518(11)
C41_2 C 0.4041(4) 0.3197(2) 0.03761(12)
H31_2 H 0.3676 0.2795 0.0370
C42_2 C 0.4585(4) 0.3280(3) 0.05096(10)
C43_2 C 0.5130(4) 0.3880(3) 0.05188(9)
H32_2 H 0.5493 0.3935 0.0608
C44_2 C 0.5131(3) 0.4397(2) 0.03945(9)
C45_2 C 0.45875(36) 0.4315(3) 0.02610(9)
C48_2 C 0.4514(8) 0.2652(6) 0.0643(2)
H39_2 H 0.4536 0.2696 0.0839
H40_2 H 0.4853 0.2587 0.0580
H41_2 H 0.4110 0.2293 0.0592
C49_2 C 0.7725(11) 0.5505(7) 0.0105(4)
H43_2 H 0.7546 0.5092 0.0189
H44_2 H 0.7850 0.5826 0.0244
P1_2 P 0.53881(13) 0.47425(10) 0.95481(3)
O1_2 O 0.5576(4) 0.5414(3) 0.94097(8)
O2_2 O 0.5285(4) 0.4257(3) 0.93498(8)
O3_2 O 0.4714(4) 0.4525(3) 0.96864(8)
O5_2 O 0.2391(3) 0.6516(2) 0.84038(9)
O6_2 O 0.2192(4) 0.5703(3) 0.81329(9)
O7_2 O 0.5895(4) 0.4929(3) 0.97611(8)
O9_2 O 0.4891(4) 0.2733(3) 0.89029(9)
O10_2 O 0.7254(5) 0.5521(3) 0.99308(12)
O11_2 O 0.4344(5) 0.3047(4) 0.97194(12)
O12_2 O 0.4181(4) 0.2863(3) 0.91221(11)
H2_2 H 0.3504 0.3722 0.9923
C2_3 C 0.2480(4) 0.6062(3) 0.83331(12)
C3_2 C 0.7234(8) 0.5432(6) 0.8404(2)
H4_2 H 0.7150 0.4999 0.8404
H5_2 H 0.7629 0.5700 0.8498
H6 H 0.7264 0.5577 0.8219
C4_2 C 0.41960(34) 0.5597(3) 0.89784(7)
C5_2 C 0.41571(34) 0.5535(3) 0.92612(7)
C6_2 C 0.46168(36) 0.5469(3) 0.94047(5)
C7_2 C 0.51162(34) 0.5466(3) 0.92653(7)
C8_2 C 0.51561(34) 0.5529(3) 0.89824(7)
C9_2 C 0.46954(36) 0.5594(3) 0.88389(5)
H7_2 H 0.4721 0.5635 0.8649
C17_2 C 0.3043(3) 0.5455(2) 0.84231(7)
H12_2 H 0.2859 0.5215 0.8266
C18_2 C 0.29046(26) 0.5926(2) 0.85004(7)
C19_2 C 0.31806(26) 0.6286(2) 0.87344(8)
H13_2 H 0.3088 0.6601 0.8786
C20_2 C 0.3596(3) 0.6176(2) 0.88910(7)
H14_2 H 0.3781 0.6417 0.9047
C21_2 C 0.37342(26) 0.5705(2) 0.88137(8)
C22_2 C 0.34583(26) 0.5345(2) 0.85798(8)
H15_2 H 0.3551 0.5030 0.8528
C23_2 C 0.4945(6) 0.4333(4) 0.87139(14)
H16_2 H 0.4689 0.4358 0.8858
H17_2 H 0.4989 0.3964 0.8741
H18_2 H 0.4742 0.4300 0.8541
C24_2 C 0.56919(36) 0.5495(3) 0.88297(9)
C25_2 C 0.5595(3) 0.4926(2) 0.87163(9)
C26_2 C 0.6088(4) 0.4909(3) 0.85784(9)
H19_2 H 0.6024 0.4529 0.8502
C27_2 C 0.6680(4) 0.5462(3) 0.85539(11)
C28_2 C 0.6777(4) 0.6030(3) 0.86674(13)
H20_2 H 0.7173 0.6400 0.8651
C29_2 C 0.6283(3) 0.6047(2) 0.88053(12)
C30_2 C 0.4672(5) 0.6538(4) 0.97438(14)
H21_2 H 0.4982 0.6662 0.9600
H22_2 H 0.4824 0.6866 0.9880
H23_2 H 0.4277 0.6475 0.9669
C31_2 C 0.46279(28) 0.5464(2) 0.97163(5)
C32_2 C 0.45608(26) 0.5904(2) 0.98749(7)
C36_2 C 0.46297(26) 0.4947(2) 0.98397(7)
C37_2 C 0.3541(6) 0.5404(4) 0.94021(13)
H25_2 H 0.3527 0.5793 0.9413
H26_2 H 0.3527 0.5243 0.9583
H27_2 H 0.3181 0.5093 0.9299
C38_2 C 0.4356(6) 0.2702(4) 0.89156(15)
C46_2 C 0.3897(8) 0.2439(6) 0.86692(18)
H33_2 H 0.3489 0.2386 0.8719
H34_2 H 0.3846 0.2034 0.8615
H35_2 H 0.4071 0.2734 0.8519
C47_2 C 0.6389(8) 0.6656(6) 0.8940(3)
H36_2 H 0.6065 0.6748 0.8881
H37_2 H 0.6802 0.7003 0.8889
H38_2 H 0.6370 0.6605 0.9135
H42_2 H 0.8090 0.5585 0.9998
Ca3_2 Ca 0.18483(8) 0.65400(6) 0.81110(2)
Ca5_2 Ca 0.19112(12) 0.51597(10) 0.77170(2)
Ca7_2 Ca 0.51597(10) 0.19112(7) 0.89497(2)
O13_2 O 0.6177(4) 0.3766(3) 0.92255(9)
O16_2 O 0.6930(5) 0.4656(4) 0.94408(9)
O17_2 O 0.4891(4) 0.2158(2) 0.94304(9)
H45_2 H 0.400317 0.310312 0.963348
H46_2 H 0.415769 0.260328 0.97889
P1_3 P 0.06456(9) 0.53881(13) 0.78815(3)
O1_3 O 0.0162(2) 0.5576(4) 0.77431(8)
O2_3 O 0.1028(2) 0.5285(4) 0.76832(8)
O3_3 O 0.0189(2) 0.4714(4) 0.80198(8)
O7_3 O 0.0966(2) 0.5895(4) 0.80945(8)
O9_3 O 0.2158(2) 0.4891(4) 0.72363(9)
O10_3 O 0.1733(4) 0.7254(5) 0.82642(12)
O11_3 O 0.1297(3) 0.4344(5) 0.80528(12)
O12_3 O 0.1318(3) 0.4181(4) 0.74555(11)
C3_3 C 0.1802(5) 0.7234(8) 0.6738(2)
H4_3 H 0.2151 0.7150 0.6738
H5_3 H 0.1929 0.7629 0.6832
H6_2 H 0.1687 0.7264 0.6553
C23_3 C 0.0612(4) 0.4945(6) 0.70473(14)
H16_3 H 0.0331 0.4689 0.7192
H17_3 H 0.1025 0.4989 0.7075
H18_3 H 0.0442 0.4742 0.6875
C24_3 C 0.01969(19) 0.56919(36) 0.71631(9)
C25_3 C 0.0669(2) 0.5595(3) 0.70497(9)
C26_3 C 0.1179(2) 0.6088(4) 0.69118(9)
H19_3 H 0.1495 0.6024 0.6836
C27_3 C 0.1218(2) 0.6680(4) 0.68873(11)
C28_3 C 0.0747(3) 0.6777(4) 0.70008(13)
H20_3 H 0.0773 0.7173 0.6985
C29_3 C 0.0236(2) 0.6283(3) 0.71387(12)
C38_3 C 0.1654(4) 0.4356(6) 0.72490(15)
C39_3 C 0.0717(5) 0.5739(7) 0.87482(15)
H28_3 H 0.0447 0.5711 0.8898
H29_3 H 0.0551 0.5807 0.8581
H30_3 H 0.1141 0.6088 0.8779
C40_3 C 0.0328(3) 0.4042(4) 0.85852(11)
C41_3 C 0.0844(3) 0.4041(4) 0.87095(12)
H31_3 H 0.0881 0.3676 0.8704
C42_3 C 0.1305(2) 0.4585(4) 0.88430(10)
C43_3 C 0.1250(2) 0.5130(4) 0.88522(9)
H32_3 H 0.1558 0.5493 0.8942
C44_3 C 0.0734(2) 0.5131(3) 0.87279(9)
C45_3 C 0.02725(19) 0.45875(36) 0.85944(9)
C46_3 C 0.1458(6) 0.3897(8) 0.70026(18)
H33_3 H 0.1103 0.3489 0.7053
H34_3 H 0.1812 0.3846 0.6949
H35_3 H 0.1337 0.4071 0.6853
C48_3 C 0.1862(5) 0.4514(8) 0.8977(2)
H39_3 H 0.1840 0.4536 0.9173
H40_3 H 0.2266 0.4853 0.8914
H41_3 H 0.1817 0.4110 0.8926
C49_3 C 0.2220(9) 0.7725(11) 0.8439(4)
H42_3 H 0.2505 0.8090 0.8332
H43_3 H 0.2454 0.7546 0.8523
H44_3 H 0.2024 0.7850 0.8578
Ca7_3 Ca 0.32485(7) 0.51597(10) 0.72830(2)
O13_3 O 0.2411(2) 0.6177(4) 0.75588(9)
O16_3 O 0.2274(3) 0.6930(5) 0.77741(9)
O17_3 O 0.2733(3) 0.4891(4) 0.77637(9)
H45_3 H 0.090005 0.400317 0.796681
H46_3 H 0.155441 0.415769 0.812223
O5_3 O 0.5875(2) 0.2391(3) 0.67372(9)
O6_3 O 0.6489(2) 0.2192(4) 0.64663(9)
C1_3 C 0.9830(6) 0.3417(8) 0.8445(2)
H1_3 H 0.9972 0.3111 0.8452
H2_3 H 0.9782 0.3504 0.8257
H3_3 H 0.9428 0.3250 0.8537
C2_4 C 0.6418(3) 0.2480(4) 0.66665(12)
C4_3 C 0.85990(17) 0.41960(34) 0.73118(7)
C5_3 C 0.86221(17) 0.41571(34) 0.75946(7)
C6_3 C 0.91478(19) 0.46168(36) 0.77381(5)
C7_3 C 0.96502(16) 0.51162(34) 0.75987(7)
C8_3 C 0.96271(17) 0.51561(34) 0.73158(7)
C9_3 C 0.91014(19) 0.46954(36) 0.71723(5)
H7_3 H 0.9086 0.4721 0.6983
C10_3 C 0.75217(19) 0.39787(28) 0.86375(7)
H8_3 H 0.7411 0.3706 0.8488
C11_3 C 0.70546(15) 0.39176(25) 0.88207(8)
H9_3 H 0.6631 0.3603 0.8794
C12_3 C 0.72206(18) 0.43256(27) 0.90440(8)
C13_3 C 0.7854(2) 0.4796(4) 0.90842(8)
H10_3 H 0.7965 0.5069 0.9234
C14_3 C 0.83206(16) 0.48566(34) 0.89010(8)
H11_3 H 0.8744 0.5171 0.8928
C15_3 C 0.81547(17) 0.44487(26) 0.86777(7)
C16_3 C 0.6738(4) 0.4250(5) 0.92515(12)
C17_3 C 0.7588(2) 0.3043(3) 0.67565(7)
H12_3 H 0.7644 0.2859 0.6600
C18_3 C 0.69786(17) 0.29046(26) 0.68338(7)
C19_3 C 0.68946(16) 0.31806(26) 0.70678(8)
H13_3 H 0.6487 0.3088 0.7120
C20_3 C 0.7420(2) 0.3596(3) 0.72244(7)
H14_3 H 0.7364 0.3781 0.7381
C21_3 C 0.80292(16) 0.37342(26) 0.71471(8)
C22_3 C 0.81133(16) 0.34583(26) 0.69132(8)
H15_3 H 0.8521 0.3551 0.6862
C30_3 C 0.8134(3) 0.4672(5) 0.80772(14)
H21_3 H 0.8320 0.4982 0.7934
H22_3 H 0.7958 0.4824 0.8214
H23_3 H 0.7802 0.4277 0.8003
C31_3 C 0.91639(19) 0.46279(28) 0.80497(5)
C32_3 C 0.86568(17) 0.45608(26) 0.82083(7)
C33_3 C 0.86686(18) 0.44956(27) 0.84902(7)
C34_3 C 0.9187(2) 0.4497(3) 0.86136(5)
H24_3 H 0.9195 0.4454 0.8803
C35_3 C 0.96945(18) 0.45645(27) 0.84550(7)
C36_3 C 0.96827(17) 0.46297(26) 0.81731(7)
C37_3 C 0.8137(4) 0.3541(6) 0.77355(13)
H25_3 H 0.7734 0.3527 0.7747
H26_3 H 0.8284 0.3527 0.7917
H27_3 H 0.8088 0.3181 0.7633
C47_3 C 0.9733(6) 0.6389(8) 0.7274(3)
H36_3 H 0.9317 0.6065 0.7215
H37_3 H 0.9799 0.6802 0.7223
H38_3 H 0.9765 0.6370 0.7469
Ca3_3 Ca 0.53083(5) 0.18483(8) 0.64443(2)
Ca5_3 Ca 0.67515(7) 0.19112(12) 0.60503(2)
P1_4 P 0.52575(10) 0.06456(9) 0.62148(3)
O1_4 O 0.4586(3) 0.0162(2) 0.60764(8)
O2_4 O 0.5743(3) 0.1028(2) 0.60165(8)
O3_4 O 0.5475(3) 0.0189(2) 0.63531(8)
O7_4 O 0.5071(3) 0.0966(2) 0.64278(8)
O9_4 O 0.7267(3) 0.2158(2) 0.55696(9)
O10_4 O 0.4479(3) 0.1733(4) 0.65975(12)
O11_4 O 0.6953(4) 0.1297(3) 0.63861(12)
O12_4 O 0.7137(3) 0.1318(3) 0.57888(11)
C3_4 C 0.4568(6) 0.1802(5) 0.5071(2)
H4_4 H 0.5001 0.2151 0.5071
H5_4 H 0.4300 0.1929 0.5165
H6_3 H 0.4423 0.1687 0.4886
C23_4 C 0.5667(4) 0.0612(4) 0.53806(14)
H16_4 H 0.5642 0.0331 0.5525
H17_4 H 0.6036 0.1025 0.5408
H18_4 H 0.5700 0.0442 0.5208
C24_4 C 0.4505(3) 0.01969(19) 0.54964(9)
C25_4 C 0.5074(2) 0.0669(2) 0.53830(9)
C26_4 C 0.5091(3) 0.1179(2) 0.52451(9)
H19_4 H 0.5471 0.1495 0.5169
C27_4 C 0.4538(3) 0.1218(2) 0.52206(11)
C28_4 C 0.3970(3) 0.0747(3) 0.53341(13)
H20_4 H 0.3600 0.0773 0.5318
C29_4 C 0.3953(2) 0.0236(2) 0.54720(12)
C38_4 C 0.7298(4) 0.1654(4) 0.55823(15)
C39_4 C 0.4978(5) 0.0717(5) 0.70815(15)
H28_4 H 0.4736 0.0447 0.7231
H29_4 H 0.4744 0.0551 0.6914
H30_4 H 0.5053 0.1141 0.7112
C40_4 C 0.6286(3) 0.0328(3) 0.69185(11)
C41_4 C 0.6803(2) 0.0844(3) 0.70428(12)
H31_4 H 0.7205 0.0881 0.7037
C42_4 C 0.6720(3) 0.1305(2) 0.71763(10)
C43_4 C 0.6120(3) 0.1250(2) 0.71855(9)
H32_4 H 0.6065 0.1558 0.7275
C44_4 C 0.5603(2) 0.0734(2) 0.70612(9)
C45_4 C 0.5685(3) 0.02725(19) 0.69277(9)
C46_4 C 0.7561(6) 0.1458(6) 0.53359(18)
H33_4 H 0.7614 0.1103 0.5386
H34_4 H 0.7966 0.1812 0.5282
H35_4 H 0.7266 0.1337 0.5186
C48_4 C 0.7348(6) 0.1862(5) 0.7310(2)
H39_4 H 0.7304 0.1840 0.7506
H40_4 H 0.7413 0.2266 0.7247
H41_4 H 0.7707 0.1817 0.7259
C49_4 C 0.4495(7) 0.2220(9) 0.6772(4)
H42_4 H 0.4415 0.2505 0.6665
H43_4 H 0.4908 0.2454 0.6856
H44_4 H 0.4174 0.2024 0.6911
Ca7_4 Ca 0.80888(7) 0.32485(7) 0.56164(2)
O13_4 O 0.6234(3) 0.2411(2) 0.58921(9)
O16_4 O 0.5344(4) 0.2274(3) 0.61074(9)
O17_4 O 0.7842(2) 0.2733(3) 0.60971(9)
H45_4 H 0.689688 0.090005 0.630015
H46_4 H 0.739672 0.155441 0.645557
O5_4 O 0.3484(2) 0.5875(2) 0.50705(9)
O6_4 O 0.4297(3) 0.6489(2) 0.47996(9)
C1_4 C 0.6413(6) 0.9830(6) 0.6778(2)
H1_4 H 0.6861 0.9972 0.6785
H2_4 H 0.6278 0.9782 0.6590
H3_4 H 0.6178 0.9428 0.6870
C2_5 C 0.3938(3) 0.6418(3) 0.49998(12)
C4_4 C 0.4403(3) 0.85990(17) 0.56451(7)
C5_4 C 0.4465(3) 0.86221(17) 0.59279(7)
C6_4 C 0.4531(3) 0.91478(19) 0.60714(5)
C7_4 C 0.4534(3) 0.96502(16) 0.59320(7)
C8_4 C 0.4471(3) 0.96271(17) 0.56491(7)
C9_4 C 0.4406(3) 0.91014(19) 0.55056(5)
H7_4 H 0.4365 0.9086 0.5316
C10_4 C 0.3543(2) 0.75217(19) 0.69708(7)
H8_4 H 0.3705 0.7411 0.6821
C11_4 C 0.3137(2) 0.70546(15) 0.71540(8)
H9_4 H 0.3028 0.6631 0.7127
C12_4 C 0.2895(2) 0.72206(18) 0.73773(8)
C13_4 C 0.3058(3) 0.7854(2) 0.74175(8)
H10_4 H 0.2896 0.7965 0.7567
C14_4 C 0.3464(3) 0.83206(16) 0.72343(8)
H11_4 H 0.3573 0.8744 0.7261
C15_4 C 0.3706(2) 0.81547(17) 0.70110(7)
C16_4 C 0.2488(3) 0.6738(4) 0.75848(12)
C17_4 C 0.4545(2) 0.7588(2) 0.50898(7)
H12_4 H 0.4785 0.7644 0.4933
C18_4 C 0.4074(2) 0.69786(17) 0.51671(7)
C19_4 C 0.3714(2) 0.68946(16) 0.54011(8)
H13_4 H 0.3399 0.6487 0.5453
C20_4 C 0.3824(2) 0.7420(2) 0.55577(7)
H14_4 H 0.3583 0.7364 0.5714
C21_4 C 0.4295(2) 0.80292(16) 0.54804(8)
C22_4 C 0.4655(2) 0.81133(16) 0.52465(8)
H15_4 H 0.4970 0.8521 0.5195
C30_4 C 0.3462(4) 0.8134(3) 0.64105(14)
H21_4 H 0.3338 0.8320 0.6267
H22_4 H 0.3134 0.7958 0.6547
H23_4 H 0.3525 0.7802 0.6336
C31_4 C 0.4536(2) 0.91639(19) 0.63830(5)
C32_4 C 0.4096(2) 0.86568(17) 0.65416(7)
C33_4 C 0.4173(2) 0.86686(18) 0.68235(7)
C34_4 C 0.4690(2) 0.9187(2) 0.69469(5)
H24_4 H 0.4741 0.9195 0.7136
C35_4 C 0.5130(2) 0.96945(18) 0.67883(7)
C36_4 C 0.5053(2) 0.96827(17) 0.65064(7)
C37_4 C 0.4596(4) 0.8137(4) 0.60688(13)
H25_4 H 0.4207 0.7734 0.6080
H26_4 H 0.4757 0.8284 0.6250
H27_4 H 0.4907 0.8088 0.5966
C47_4 C 0.3344(6) 0.9733(6) 0.5607(3)
H36_4 H 0.3252 0.9317 0.5548
H37_4 H 0.2997 0.9799 0.5556
H38_4 H 0.3395 0.9765 0.5802
Ca3_4 Ca 0.34600(6) 0.53083(5) 0.47776(2)
Ca5_4 Ca 0.48403(10) 0.67515(7) 0.43836(2)
P1_5 P 0.46119(13) 0.52575(10) 0.45481(3)
O1_5 O 0.4424(4) 0.4586(3) 0.44097(8)
O2_5 O 0.4715(4) 0.5743(3) 0.43498(8)
O3_5 O 0.5286(4) 0.5475(3) 0.46864(8)
O5_5 O 0.7609(3) 0.3484(2) 0.34038(9)
O6_5 O 0.7808(4) 0.4297(3) 0.31329(9)
O7_5 O 0.4105(4) 0.5071(3) 0.47611(8)
O9_5 O 0.5109(4) 0.7267(3) 0.39029(9)
O10_5 O 0.2746(5) 0.4479(3) 0.49308(12)
O11_5 O 0.5656(5) 0.6953(4) 0.47194(12)
O12_5 O 0.5819(4) 0.7137(3) 0.41221(11)
C1_5 C 0.6583(8) 0.6413(6) 0.5111(2)
H1_5 H 0.6889 0.6861 0.5118
H2_5 H 0.6496 0.6278 0.4923
H3_5 H 0.6750 0.6178 0.5203
C2_6 C 0.7520(4) 0.3938(3) 0.33331(12)
C3_5 C 0.2766(8) 0.4568(6) 0.3404(2)
H4_5 H 0.2850 0.5001 0.3404
H5_5 H 0.2371 0.4300 0.3498
H6_4 H 0.2736 0.4423 0.3219
C4_5 C 0.58040(34) 0.4403(3) 0.39784(7)
C5_5 C 0.58429(34) 0.4465(3) 0.42612(7)
C6_5 C 0.53832(36) 0.4531(3) 0.44047(5)
C7_5 C 0.48838(34) 0.4534(3) 0.42653(7)
C8_5 C 0.48439(34) 0.4471(3) 0.39824(7)
C9_5 C 0.53046(36) 0.4406(3) 0.38389(5)
H7_5 H 0.5279 0.4365 0.3649
C10_5 C 0.60213(28) 0.3543(2) 0.53041(7)
H8_5 H 0.6294 0.3705 0.5154
C11_5 C 0.60824(25) 0.3137(2) 0.54873(8)
H9_5 H 0.6397 0.3028 0.5460
C12_5 C 0.56744(27) 0.2895(2) 0.57106(8)
C13_5 C 0.5204(4) 0.3058(3) 0.57508(8)
H10_5 H 0.4931 0.2896 0.5900
C14_5 C 0.51434(34) 0.3464(3) 0.55676(8)
H11_5 H 0.4829 0.3573 0.5594
C15_5 C 0.55513(26) 0.3706(2) 0.53443(7)
C16_5 C 0.5750(5) 0.2488(3) 0.59181(12)
C17_5 C 0.6957(3) 0.4545(2) 0.34231(7)
H12_5 H 0.7141 0.4785 0.3266
C18_5 C 0.70954(26) 0.4074(2) 0.35004(7)
C19_5 C 0.68194(26) 0.3714(2) 0.37344(8)
H13_5 H 0.6912 0.3399 0.3786
C20_5 C 0.6404(3) 0.3824(2) 0.38910(7)
H14_5 H 0.6219 0.3583 0.4047
C21_5 C 0.62658(26) 0.4295(2) 0.38137(8)
C22_5 C 0.65417(26) 0.4655(2) 0.35798(8)
H15_5 H 0.6449 0.4970 0.3528
C23_5 C 0.5055(6) 0.5667(4) 0.37139(14)
H16_5 H 0.5311 0.5642 0.3858
H17_5 H 0.5011 0.6036 0.3741
H18_5 H 0.5258 0.5700 0.3541
C24_5 C 0.43081(36) 0.4505(3) 0.38297(9)
C25_5 C 0.4405(3) 0.5074(2) 0.37163(9)
C26_5 C 0.3912(4) 0.5091(3) 0.35784(9)
H19_5 H 0.3976 0.5471 0.3502
C27_5 C 0.3320(4) 0.4538(3) 0.35539(11)
C28_5 C 0.3223(4) 0.3970(3) 0.36674(13)
H20_5 H 0.2827 0.3600 0.3651
C29_5 C 0.3717(3) 0.3953(2) 0.38053(12)
C30_5 C 0.5328(5) 0.3462(4) 0.47438(14)
H21_5 H 0.5018 0.3338 0.4600
H22_5 H 0.5176 0.3134 0.4880
H23_5 H 0.5723 0.3525 0.4669
C31_5 C 0.53721(28) 0.4536(2) 0.47163(5)
C32_5 C 0.54392(26) 0.4096(2) 0.48749(7)
C33_5 C 0.55044(27) 0.4173(2) 0.51568(7)
C34_5 C 0.5503(3) 0.4690(2) 0.52802(5)
H24_5 H 0.5546 0.4741 0.5469
C35_5 C 0.54355(27) 0.5130(2) 0.51216(7)
C36_5 C 0.53703(26) 0.5053(2) 0.48397(7)
C37_5 C 0.6459(6) 0.4596(4) 0.44021(13)
H25_5 H 0.6473 0.4207 0.4413
H26_5 H 0.6473 0.4757 0.4583
H27_5 H 0.6819 0.4907 0.4299
C38_5 C 0.5644(6) 0.7298(4) 0.39156(15)
C39_5 C 0.4261(7) 0.4978(5) 0.54148(15)
H28_5 H 0.4289 0.4736 0.5564
H29_5 H 0.4193 0.4744 0.5247
H30_5 H 0.3912 0.5053 0.5445
C40_5 C 0.5958(4) 0.6286(3) 0.52518(11)
C41_5 C 0.5959(4) 0.6803(2) 0.53761(12)
H31_5 H 0.6324 0.7205 0.5370
C42_5 C 0.5415(4) 0.6720(3) 0.55096(10)
C43_5 C 0.4870(4) 0.6120(3) 0.55188(9)
H32_5 H 0.4507 0.6065 0.5608
C44_5 C 0.4869(3) 0.5603(2) 0.53945(9)
C45_5 C 0.54125(36) 0.5685(3) 0.52610(9)
C46_5 C 0.6103(8) 0.7561(6) 0.36692(18)
H33_5 H 0.6511 0.7614 0.3719
H34_5 H 0.6154 0.7966 0.3615
H35_5 H 0.5929 0.7266 0.3519
C47_5 C 0.3611(8) 0.3344(6) 0.3940(3)
H36_5 H 0.3935 0.3252 0.3881
H37_5 H 0.3198 0.2997 0.3889
H38_5 H 0.3630 0.3395 0.4135
C48_5 C 0.5486(8) 0.7348(6) 0.5643(2)
H39_5 H 0.5464 0.7304 0.5839
H40_5 H 0.5147 0.7413 0.5580
H41_5 H 0.5890 0.7707 0.5592
C49_5 C 0.2275(11) 0.4495(7) 0.5105(4)
H42_5 H 0.1910 0.4415 0.4998
H43_5 H 0.2454 0.4908 0.5189
H44_5 H 0.2150 0.4174 0.5244
Ca7_5 Ca 0.48403(10) 0.80888(7) 0.39497(2)
O13_5 O 0.3823(4) 0.6234(3) 0.42255(9)
O16_5 O 0.3070(5) 0.5344(4) 0.44408(9)
O17_5 O 0.5109(4) 0.7842(2) 0.44304(9)
H45_5 H 0.599683 0.689688 0.463348
H46_5 H 0.584231 0.739672 0.47889
C1_6 C 0.0170(6) 0.6583(8) 0.3445(2)
H1_6 H 0.0028 0.6889 0.3452
H2_6 H 0.0218 0.6496 0.3257
H3_6 H 0.0572 0.6750 0.3537
C2_7 C 0.3582(3) 0.7520(4) 0.16665(12)
C4_6 C 0.14010(17) 0.58040(34) 0.23118(7)
C5_6 C 0.13779(17) 0.58429(34) 0.25946(7)
C6_6 C 0.08522(19) 0.53832(36) 0.27381(5)
C7_6 C 0.03498(16) 0.48838(34) 0.25987(7)
C8_6 C 0.03729(17) 0.48439(34) 0.23158(7)
C9_6 C 0.08986(19) 0.53046(36) 0.21723(5)
H7_6 H 0.0914 0.5279 0.1983
C10_6 C 0.24783(19) 0.60213(28) 0.36375(7)
H8_6 H 0.2589 0.6294 0.3488
C11_6 C 0.29454(15) 0.60824(25) 0.38207(8)
H9_6 H 0.3369 0.6397 0.3794
C12_6 C 0.27794(18) 0.56744(27) 0.40440(8)
C13_6 C 0.2146(2) 0.5204(4) 0.40842(8)
H10_6 H 0.2035 0.4931 0.4234
C14_6 C 0.16794(16) 0.51434(34) 0.39010(8)
H11_6 H 0.1256 0.4829 0.3928
C15_6 C 0.18453(17) 0.55513(26) 0.36777(7)
C16_6 C 0.3262(4) 0.5750(5) 0.42515(12)
C17_6 C 0.2412(2) 0.6957(3) 0.17565(7)
H12_6 H 0.2356 0.7141 0.1600
C18_6 C 0.30214(17) 0.70954(26) 0.18338(7)
C19_6 C 0.31054(16) 0.68194(26) 0.20678(8)
H13_6 H 0.3513 0.6912 0.2120
C20_6 C 0.2580(2) 0.6404(3) 0.22244(7)
H14_6 H 0.2636 0.6219 0.2381
C21_6 C 0.19708(16) 0.62658(26) 0.21471(8)
C22_6 C 0.18867(16) 0.65417(26) 0.19132(8)
H15_6 H 0.1479 0.6449 0.1862
C30_6 C 0.1866(3) 0.5328(5) 0.30772(14)
H21_6 H 0.1680 0.5018 0.2934
H22_6 H 0.2042 0.5176 0.3214
H23_6 H 0.2198 0.5723 0.3003
C31_6 C 0.08361(19) 0.53721(28) 0.30497(5)
C32_6 C 0.13432(17) 0.54392(26) 0.32083(7)
C33_6 C 0.13314(18) 0.55044(27) 0.34902(7)
C34_6 C 0.0813(2) 0.5503(3) 0.36136(5)
H24_6 H 0.0805 0.5546 0.3803
C35_6 C 0.03055(18) 0.54355(27) 0.34550(7)
C36_6 C 0.03173(17) 0.53703(26) 0.31731(7)
C37_6 C 0.1863(4) 0.6459(6) 0.27355(13)
H25_6 H 0.2266 0.6473 0.2747
H26_6 H 0.1716 0.6473 0.2917
H27_6 H 0.1912 0.6819 0.2633
C47_6 C 0.0267(6) 0.3611(8) 0.2274(3)
H36_6 H 0.0683 0.3935 0.2215
H37_6 H 0.0201 0.3198 0.2223
H38_6 H 0.0235 0.3630 0.2469
P1_6 P 0.93544(9) 0.46119(13) 0.28815(3)
O1_6 O 0.9838(2) 0.4424(4) 0.27431(8)
O2_6 O 0.8972(2) 0.4715(4) 0.26832(8)
O3_6 O 0.9811(2) 0.5286(4) 0.30198(8)
O7_6 O 0.9034(2) 0.4105(4) 0.30945(8)
O9_6 O 0.7842(2) 0.5109(4) 0.22363(9)
O10_6 O 0.8267(4) 0.2746(5) 0.32642(12)
O11_6 O 0.8703(3) 0.5656(5) 0.30528(12)
O12_6 O 0.8682(3) 0.5819(4) 0.24555(11)
C3_6 C 0.8198(5) 0.2766(8) 0.1738(2)
H4_6 H 0.7849 0.2850 0.1738
H5_6 H 0.8071 0.2371 0.1832
H6_5 H 0.8313 0.2736 0.1553
C23_6 C 0.9388(4) 0.5055(6) 0.20473(14)
H16_6 H 0.9669 0.5311 0.2192
H17_6 H 0.8975 0.5011 0.2075
H18_6 H 0.9558 0.5258 0.1875
C24_6 C 0.98031(19) 0.43081(36) 0.21631(9)
C25_6 C 0.9331(2) 0.4405(3) 0.20497(9)
C26_6 C 0.8821(2) 0.3912(4) 0.19118(9)
H19_6 H 0.8505 0.3976 0.1836
C27_6 C 0.8782(2) 0.3320(4) 0.18873(11)
C28_6 C 0.9253(3) 0.3223(4) 0.20008(13)
H20_6 H 0.9227 0.2827 0.1985
C29_6 C 0.9764(2) 0.3717(3) 0.21387(12)
C38_6 C 0.8346(4) 0.5644(6) 0.22490(15)
C39_6 C 0.9283(5) 0.4261(7) 0.37482(15)
H28_6 H 0.9553 0.4289 0.3898
H29_6 H 0.9449 0.4193 0.3581
H30_6 H 0.8859 0.3912 0.3779
C40_6 C 0.9672(3) 0.5958(4) 0.35852(11)
C41_6 C 0.9156(3) 0.5959(4) 0.37095(12)
H31_6 H 0.9119 0.6324 0.3704
C42_6 C 0.8695(2) 0.5415(4) 0.38430(10)
C43_6 C 0.8750(2) 0.4870(4) 0.38522(9)
H32_6 H 0.8442 0.4507 0.3942
C44_6 C 0.9266(2) 0.4869(3) 0.37279(9)
C45_6 C 0.97275(19) 0.54125(36) 0.35944(9)
C46_6 C 0.8542(6) 0.6103(8) 0.20026(18)
H33_6 H 0.8897 0.6511 0.2053
H34_6 H 0.8188 0.6154 0.1949
H35_6 H 0.8663 0.5929 0.1853
C48_6 C 0.8138(5) 0.5486(8) 0.3977(2)
H39_6 H 0.8160 0.5464 0.4173
H40_6 H 0.7734 0.5147 0.3914
H41_6 H 0.8183 0.5890 0.3926
C49_6 C 0.7780(9) 0.2275(11) 0.3439(4)
H42_6 H 0.7495 0.1910 0.3332
H43_6 H 0.7546 0.2454 0.3523
H44_6 H 0.7976 0.2150 0.3578
Ca7_6 Ca 0.67515(7) 0.48403(10) 0.22830(2)
O17_6 O 0.7267(3) 0.5109(4) 0.27637(9)
H45_6 H 0.909995 0.599683 0.296681
H46_6 H 0.844559 0.584231 0.312223
Ca1_2 Ca 0.18483(4) 0.53083(5) 0.02224(2)
P1_7 P 0.06456(9) 0.52575(10) 0.04519(3)
O1_7 O 0.0162(2) 0.4586(3) 0.05903(8)
O2_7 O 0.1028(2) 0.5743(3) 0.06502(8)
O3_7 O 0.0189(2) 0.5475(3) 0.03136(8)
O7_7 O 0.0966(2) 0.5071(3) 0.02389(8)
O10_7 O 0.1733(4) 0.4479(3) 0.00692(12)
O11_7 O 0.1297(3) 0.6953(4) 0.02806(12)
O12_7 O 0.1318(3) 0.7137(3) 0.08779(11)
C3_7 C 0.1802(5) 0.4568(6) 0.1596(2)
H4_7 H 0.2151 0.5001 0.1596
H5_7 H 0.1929 0.4300 0.1502
H6_6 H 0.1687 0.4423 0.1781
C23_7 C 0.0612(4) 0.5667(4) 0.12861(14)
H16_7 H 0.0331 0.5642 0.1142
H17_7 H 0.1025 0.6036 0.1259
H18_7 H 0.0442 0.5700 0.1459
C24_7 C 0.01969(19) 0.4505(3) 0.11703(9)
C25_7 C 0.0669(2) 0.5074(2) 0.12837(9)
C26_7 C 0.1179(2) 0.5091(3) 0.14216(9)
H19_7 H 0.1495 0.5471 0.1498
C27_7 C 0.1218(2) 0.4538(3) 0.14461(11)
C28_7 C 0.0747(3) 0.3970(3) 0.13326(13)
H20_7 H 0.0773 0.3600 0.1349
C29_7 C 0.0236(2) 0.3953(2) 0.11947(12)
C38_7 C 0.1654(4) 0.7298(4) 0.10844(15)
C46_7 C 0.1458(6) 0.7561(6) 0.13308(18)
H33_7 H 0.1103 0.7614 0.1281
H34_7 H 0.1812 0.7966 0.1385
H35_7 H 0.1337 0.7266 0.1481
H42_7 H 0.2505 0.4415 0.0002
O13_6 O 0.2411(2) 0.6234(3) 0.07745(9)
O15_2 O 0.2192(4) 0.6489(2) 0.02004(9)
O16_6 O 0.2274(3) 0.5344(4) 0.05592(9)
H45_7 H 0.090005 0.689688 0.0366521
H46_7 H 0.155441 0.739672 0.0211101
C39_7 C 0.0717(5) 0.4978(5) 0.95852(15)
H28_7 H 0.0447 0.4736 0.9436
H29_7 H 0.0551 0.4744 0.9753
H30_7 H 0.1141 0.5053 0.9555
C40_7 C 0.0328(3) 0.6286(3) 0.97482(11)
C41_7 C 0.0844(3) 0.6803(2) 0.96239(12)
H31_7 H 0.0881 0.7205 0.9630
C42_7 C 0.1305(2) 0.6720(3) 0.94904(10)
C43_7 C 0.1250(2) 0.6120(3) 0.94812(9)
H32_7 H 0.1558 0.6065 0.9392
C44_7 C 0.0734(2) 0.5603(2) 0.96055(9)
C45_7 C 0.02725(19) 0.5685(3) 0.97390(9)
C48_7 C 0.1862(5) 0.7348(6) 0.9357(2)
H39_7 H 0.1840 0.7304 0.9161
H40_7 H 0.2266 0.7413 0.9420
H41_7 H 0.1817 0.7707 0.9408
C49_7 C 0.2220(9) 0.4495(7) 0.9895(4)
H43_7 H 0.2454 0.4908 0.9811
H44_7 H 0.2024 0.4174 0.9756
O14_2 O 0.2391(3) 0.5875(2) 0.99295(9)
O5_6 O 0.5875(2) 0.3484(2) 0.15962(9)
O6_6 O 0.6489(2) 0.4297(3) 0.18671(9)
H2_7 H 0.9782 0.6278 0.0077
C2_8 C 0.6418(3) 0.3938(3) 0.16669(12)
C4_7 C 0.85990(17) 0.4403(3) 0.10216(7)
C5_7 C 0.86221(17) 0.4465(3) 0.07388(7)
C6_7 C 0.91478(19) 0.4531(3) 0.05953(5)
C7_7 C 0.96502(16) 0.4534(3) 0.07347(7)
C8_7 C 0.96271(17) 0.4471(3) 0.10176(7)
C9_7 C 0.91014(19) 0.4406(3) 0.11611(5)
H7_7 H 0.9086 0.4365 0.1351
C17_7 C 0.7588(2) 0.4545(2) 0.15769(7)
H12_7 H 0.7644 0.4785 0.1734
C18_7 C 0.69786(17) 0.4074(2) 0.14996(7)
C19_7 C 0.68946(16) 0.3714(2) 0.12656(8)
H13_7 H 0.6487 0.3399 0.1214
C20_7 C 0.7420(2) 0.3824(2) 0.11090(7)
H14_7 H 0.7364 0.3583 0.0953
C21_7 C 0.80292(16) 0.4295(2) 0.11863(8)
C22_7 C 0.81133(16) 0.4655(2) 0.14202(8)
H15_7 H 0.8521 0.4970 0.1472
C30_7 C 0.8134(3) 0.3462(4) 0.02562(14)
H21_7 H 0.8320 0.3338 0.0400
H22_7 H 0.7958 0.3134 0.0120
H23_7 H 0.7802 0.3525 0.0331
C31_7 C 0.91639(19) 0.4536(2) 0.02837(5)
C32_7 C 0.86568(17) 0.4096(2) 0.01251(7)
C36_7 C 0.96827(17) 0.5053(2) 0.01603(7)
C37_7 C 0.8137(4) 0.4596(4) 0.05979(13)
H25_7 H 0.7734 0.4207 0.0587
H26_7 H 0.8284 0.4757 0.0417
H27_7 H 0.8088 0.4907 0.0701
C47_7 C 0.9733(6) 0.3344(6) 0.1060(3)
H36_7 H 0.9317 0.3252 0.1119
H37_7 H 0.9799 0.2997 0.1111
H38_7 H 0.9765 0.3395 0.0865
Ca3_5 Ca 0.53083(5) 0.34600(6) 0.18890(2)
O4_2 O 0.6177(2) 0.2411(2) 0.91079(9)
O8_2 O 0.6930(3) 0.2274(3) 0.88926(9)
C1_7 C 0.9830(6) 0.6413(6) 0.9889(2)
H1_7 H 0.9972 0.6861 0.9882
H3_7 H 0.9428 0.6178 0.9797
C10_7 C 0.75217(19) 0.3543(2) 0.96959(7)
H8_7 H 0.7411 0.3705 0.9846
C11_7 C 0.70546(15) 0.3137(2) 0.95127(8)
H9_7 H 0.6631 0.3028 0.9540
C12_7 C 0.72206(18) 0.2895(2) 0.92894(8)
C13_7 C 0.7854(2) 0.3058(3) 0.92492(8)
H10_7 H 0.7965 0.2896 0.9100
C14_7 C 0.83206(16) 0.3464(3) 0.94324(8)
H11_7 H 0.8744 0.3573 0.9406
C15_7 C 0.81547(17) 0.3706(2) 0.96557(7)
C16_7 C 0.6738(4) 0.2488(3) 0.90819(12)
C33_7 C 0.86686(18) 0.4173(2) 0.98432(7)
C34_7 C 0.9187(2) 0.4690(2) 0.97198(5)
H24_7 H 0.9195 0.4741 0.9531
C35_7 C 0.96945(18) 0.5130(2) 0.98784(7)
Ca4_2 Ca 0.65400(6) 0.18483(4) 0.85557(2)
P1_8 P 0.53881(13) 0.06456(9) 0.87852(3)
O1_8 O 0.5576(4) 0.0162(2) 0.89236(8)
O2_8 O 0.5285(4) 0.1028(2) 0.89835(8)
O3_8 O 0.4714(4) 0.0189(2) 0.86469(8)
O7_8 O 0.5895(4) 0.0966(2) 0.85722(8)
O10_8 O 0.7254(5) 0.1733(4) 0.84025(12)
O11_8 O 0.4344(5) 0.1297(3) 0.86139(12)
O12_8 O 0.4181(4) 0.1318(3) 0.92112(11)
C3_8 C 0.7234(8) 0.1802(5) 0.9929(2)
H4_8 H 0.7150 0.2151 0.9929
H5_8 H 0.7629 0.1929 0.9835
C23_8 C 0.4945(6) 0.0612(4) 0.96194(14)
H16_8 H 0.4689 0.0331 0.9475
H17_8 H 0.4989 0.1025 0.9592
H18_8 H 0.4742 0.0442 0.9792
C24_8 C 0.56919(36) 0.01969(19) 0.95036(9)
C25_8 C 0.5595(3) 0.0669(2) 0.96170(9)
C26_8 C 0.6088(4) 0.1179(2) 0.97549(9)
H19_8 H 0.6024 0.1495 0.9831
C27_8 C 0.6680(4) 0.1218(2) 0.97794(11)
C28_8 C 0.6777(4) 0.0747(3) 0.96659(13)
H20_8 H 0.7173 0.0773 0.9682
C29_8 C 0.6283(3) 0.0236(2) 0.95280(12)
C38_8 C 0.4356(6) 0.1654(4) 0.94177(15)
C39_8 C 0.5739(7) 0.0717(5) 0.79185(15)
H28_8 H 0.5711 0.0447 0.7769
H29_8 H 0.5807 0.0551 0.8086
H30_8 H 0.6088 0.1141 0.7888
C40_8 C 0.4042(4) 0.0328(3) 0.80815(11)
C41_8 C 0.4041(4) 0.0844(3) 0.79572(12)
H31_8 H 0.3676 0.0881 0.7963
C42_8 C 0.4585(4) 0.1305(2) 0.78237(10)
C43_8 C 0.5130(4) 0.1250(2) 0.78145(9)
H32_8 H 0.5493 0.1558 0.7725
C44_8 C 0.5131(3) 0.0734(2) 0.79388(9)
C45_8 C 0.45875(36) 0.02725(19) 0.80723(9)
C46_8 C 0.3897(8) 0.1458(6) 0.96641(18)
H33_8 H 0.3489 0.1103 0.9614
H34_8 H 0.3846 0.1812 0.9718
H35_8 H 0.4071 0.1337 0.9814
C48_8 C 0.4514(8) 0.1862(5) 0.7690(2)
H39_8 H 0.4536 0.1840 0.7494
H40_8 H 0.4853 0.2266 0.7753
H41_8 H 0.4110 0.1817 0.7741
C49_8 C 0.7725(11) 0.2220(9) 0.8228(4)
H42_8 H 0.8090 0.2505 0.8335
H43_8 H 0.7546 0.2454 0.8144
H44_8 H 0.7850 0.2024 0.8089
O14_3 O 0.6516(4) 0.2391(3) 0.82628(9)
O15_3 O 0.5703(4) 0.2192(4) 0.85337(9)
H45_8 H 0.400317 0.090005 0.869985
H46_8 H 0.415769 0.155441 0.854443
C2_9 C 0.2480(4) 0.6418(3) 0.00002(12)
H12_8 H 0.2859 0.7644 0.0067
O4_3 O 0.3766(3) 0.6177(2) 0.74412(9)
O8_3 O 0.4656(4) 0.6930(3) 0.72259(9)
C1_8 C 0.3417(8) 0.9830(6) 0.8222(2)
H1_8 H 0.3111 0.9972 0.8215
H2_8 H 0.3504 0.9782 0.8410
H3_8 H 0.3250 0.9428 0.8130
C2_10 C 0.2480(4) 0.6418(3) 1.00002(12)
C4_8 C 0.41960(34) 0.85990(17) 0.93549(7)
C5_8 C 0.41571(34) 0.86221(17) 0.90721(7)
C6_8 C 0.46168(36) 0.91478(19) 0.89286(5)
C7_8 C 0.51162(34) 0.96502(16) 0.90680(7)
C8_8 C 0.51561(34) 0.96271(17) 0.93509(7)
C9_8 C 0.46954(36) 0.91014(19) 0.94944(5)
H7_8 H 0.4721 0.9086 0.9684
C10_8 C 0.39787(28) 0.75217(19) 0.80292(7)
H8_8 H 0.3706 0.7411 0.8179
C11_8 C 0.39176(25) 0.70546(15) 0.78460(8)
H9_8 H 0.3603 0.6631 0.7873
C12_8 C 0.43256(27) 0.72206(18) 0.76227(8)
C13_8 C 0.4796(4) 0.7854(2) 0.75825(8)
H10_8 H 0.5069 0.7965 0.7433
C14_8 C 0.48566(34) 0.83206(16) 0.77657(8)
H11_8 H 0.5171 0.8744 0.7739
C15_8 C 0.44487(26) 0.81547(17) 0.79890(7)
C16_8 C 0.4250(5) 0.6738(4) 0.74152(12)
C17_8 C 0.3043(3) 0.7588(2) 0.99102(7)
C18_8 C 0.29046(26) 0.69786(17) 0.98329(7)
C19_8 C 0.31806(26) 0.68946(16) 0.95989(8)
H13_8 H 0.3088 0.6487 0.9547
C20_8 C 0.3596(3) 0.7420(2) 0.94423(7)
H14_8 H 0.3781 0.7364 0.9286
C21_8 C 0.37342(26) 0.80292(16) 0.95196(8)
C22_8 C 0.34583(26) 0.81133(16) 0.97535(8)
H15_8 H 0.3551 0.8521 0.9805
C30_8 C 0.4672(5) 0.8134(3) 0.85895(14)
H21_8 H 0.4982 0.8320 0.8733
H22_8 H 0.4824 0.7958 0.8453
H23_8 H 0.4277 0.7802 0.8664
C31_8 C 0.46279(28) 0.91639(19) 0.86170(5)
C32_8 C 0.45608(26) 0.86568(17) 0.84584(7)
C33_8 C 0.44956(27) 0.86686(18) 0.81765(7)
C34_8 C 0.4497(3) 0.9187(2) 0.80531(5)
H24_8 H 0.4454 0.9195 0.7864
C35_8 C 0.45645(27) 0.96945(18) 0.82117(7)
C36_8 C 0.46297(26) 0.96827(17) 0.84936(7)
C37_8 C 0.3541(6) 0.8137(4) 0.89312(13)
H25_8 H 0.3527 0.7734 0.8920
H26_8 H 0.3527 0.8284 0.8750
H27_8 H 0.3181 0.8088 0.9034
C47_8 C 0.6389(8) 0.9733(6) 0.9393(3)
H36_8 H 0.6065 0.9317 0.9452
H37_8 H 0.6802 0.9799 0.9444
H38_8 H 0.6370 0.9765 0.9198
Ca4_3 Ca 0.46917(7) 0.65400(6) 0.68890(2)
P1_9 P 0.47425(10) 0.53881(13) 0.71185(3)
O1_9 O 0.5414(3) 0.5576(4) 0.72569(8)
O2_9 O 0.4257(3) 0.5285(4) 0.73168(8)
O3_9 O 0.4525(3) 0.4714(4) 0.69802(8)
O4_4 O 0.7589(2) 0.3766(3) 0.57745(9)
O7_9 O 0.4929(3) 0.5895(4) 0.69055(8)
O8_4 O 0.7726(3) 0.4656(4) 0.55592(9)
O10_9 O 0.5521(3) 0.7254(5) 0.67358(12)
O11_9 O 0.3047(4) 0.4344(5) 0.69472(12)
O12_9 O 0.2863(3) 0.4181(4) 0.75445(11)
C1_9 C 0.3587(6) 0.3417(8) 0.6555(2)
H1_9 H 0.3139 0.3111 0.6548
H2_9 H 0.3722 0.3504 0.6743
H3_9 H 0.3822 0.3250 0.6463
C2_11 C 0.6062(3) 0.2480(4) 0.83335(12)
C3_9 C 0.5432(6) 0.7234(8) 0.8262(2)
H4_9 H 0.4999 0.7150 0.8262
H5_9 H 0.5700 0.7629 0.8168
H6_7 H 0.5577 0.7264 0.8447
C4_9 C 0.5597(3) 0.41960(34) 0.76882(7)
C5_9 C 0.5535(3) 0.41571(34) 0.74054(7)
C6_9 C 0.5469(3) 0.46168(36) 0.72619(5)
C7_9 C 0.5466(3) 0.51162(34) 0.74013(7)
C8_9 C 0.5529(3) 0.51561(34) 0.76842(7)
C9_9 C 0.5594(3) 0.46954(36) 0.78277(5)
H7_9 H 0.5635 0.4721 0.8017
C10_9 C 0.6457(2) 0.39787(28) 0.63625(7)
H8_9 H 0.6295 0.3706 0.6512
C11_9 C 0.6863(2) 0.39176(25) 0.61793(8)
H9_9 H 0.6972 0.3603 0.6206
C12_9 C 0.7105(2) 0.43256(27) 0.59560(8)
C13_9 C 0.6942(3) 0.4796(4) 0.59158(8)
H10_9 H 0.7104 0.5069 0.5766
C14_9 C 0.6536(3) 0.48566(34) 0.60990(8)
H11_9 H 0.6427 0.5171 0.6072
C15_9 C 0.6294(2) 0.44487(26) 0.63223(7)
C16_9 C 0.7512(3) 0.4250(5) 0.57485(12)
C17_9 C 0.5455(2) 0.3043(3) 0.82435(7)
H12_9 H 0.5215 0.2859 0.8400
C18_9 C 0.5926(2) 0.29046(26) 0.81662(7)
C19_9 C 0.6286(2) 0.31806(26) 0.79322(8)
H13_9 H 0.6601 0.3088 0.7880
C20_9 C 0.6176(2) 0.3596(3) 0.77756(7)
H14_9 H 0.6417 0.3781 0.7619
C21_9 C 0.5705(2) 0.37342(26) 0.78529(8)
C22_9 C 0.5345(2) 0.34583(26) 0.80868(8)
H15_9 H 0.5030 0.3551 0.8138
C23_9 C 0.4333(4) 0.4945(6) 0.79527(14)
H16_9 H 0.4358 0.4689 0.7808
H17_9 H 0.3964 0.4989 0.7925
H18_9 H 0.4300 0.4742 0.8125
C24_9 C 0.5495(3) 0.56919(36) 0.78369(9)
C25_9 C 0.4926(2) 0.5595(3) 0.79503(9)
C26_9 C 0.4909(3) 0.6088(4) 0.80882(9)
H19_9 H 0.4529 0.6024 0.8164
C27_9 C 0.5462(3) 0.6680(4) 0.81127(11)
C28_9 C 0.6030(3) 0.6777(4) 0.79992(13)
H20_9 H 0.6400 0.7173 0.8015
C29_9 C 0.6047(2) 0.6283(3) 0.78613(12)
C30_9 C 0.6538(4) 0.4672(5) 0.69228(14)
H21_9 H 0.6662 0.4982 0.7066
H22_9 H 0.6866 0.4824 0.6786
H23_9 H 0.6475 0.4277 0.6997
C31_9 C 0.5464(2) 0.46279(28) 0.69503(5)
C32_9 C 0.5904(2) 0.45608(26) 0.67917(7)
C33_9 C 0.5827(2) 0.44956(27) 0.65098(7)
C34_9 C 0.5310(2) 0.4497(3) 0.63864(5)
H24_9 H 0.5259 0.4454 0.6197
C35_9 C 0.4870(2) 0.45645(27) 0.65450(7)
C36_9 C 0.4947(2) 0.46297(26) 0.68269(7)
C37_9 C 0.5404(4) 0.3541(6) 0.72645(13)
H25_9 H 0.5793 0.3527 0.7253
H26_9 H 0.5243 0.3527 0.7083
H27_9 H 0.5093 0.3181 0.7367
C38_9 C 0.2702(4) 0.4356(6) 0.77510(15)
C39_9 C 0.5022(5) 0.5739(7) 0.62518(15)
H28_9 H 0.5264 0.5711 0.6102
H29_9 H 0.5256 0.5807 0.6419
H30_9 H 0.4947 0.6088 0.6221
C40_9 C 0.3714(3) 0.4042(4) 0.64148(11)
C41_9 C 0.3197(2) 0.4041(4) 0.62905(12)
H31_9 H 0.2795 0.3676 0.6296
C42_9 C 0.3280(3) 0.4585(4) 0.61570(10)
C43_9 C 0.3880(3) 0.5130(4) 0.61478(9)
H32_9 H 0.3935 0.5493 0.6058
C44_9 C 0.4397(2) 0.5131(3) 0.62721(9)
C45_9 C 0.4315(3) 0.45875(36) 0.64056(9)
C46_9 C 0.2439(6) 0.3897(8) 0.79974(18)
H33_9 H 0.2386 0.3489 0.7947
H34_9 H 0.2034 0.3846 0.8051
H35_9 H 0.2734 0.4071 0.8147
C47_9 C 0.6656(6) 0.6389(8) 0.7726(3)
H36_9 H 0.6748 0.6065 0.7785
H37_9 H 0.7003 0.6802 0.7777
H38_9 H 0.6605 0.6370 0.7531
C48_9 C 0.2652(6) 0.4514(8) 0.6023(2)
H39_9 H 0.2696 0.4536 0.5827
H40_9 H 0.2587 0.4853 0.6086
H41_9 H 0.2293 0.4110 0.6074
C49_9 C 0.5505(7) 0.7725(11) 0.6561(4)
H42_9 H 0.5585 0.8090 0.6668
H43_9 H 0.5092 0.7546 0.6477
H44_9 H 0.5826 0.7850 0.6422
Ca4_4 Ca 0.81517(4) 0.46917(7) 0.52224(2)
O14_4 O 0.4125(2) 0.6516(4) 0.65962(9)
O15_4 O 0.3511(2) 0.5703(4) 0.68671(9)
H45_9 H 0.310312 0.400317 0.703319
H46_9 H 0.260328 0.415769 0.687777
O4_5 O 0.3823(2) 0.7589(2) 0.41079(9)
O8_5 O 0.3070(3) 0.7726(3) 0.38926(9)
C1_10 C 0.0170(6) 0.3587(6) 0.4889(2)
H1_10 H 0.0028 0.3139 0.4882
H2_10 H 0.0218 0.3722 0.5077
H3_10 H 0.0572 0.3822 0.4797
C2_12 C 0.3582(3) 0.6062(3) 0.66669(12)
C4_10 C 0.14010(17) 0.5597(3) 0.60216(7)
C5_10 C 0.13779(17) 0.5535(3) 0.57388(7)
C6_10 C 0.08522(19) 0.5469(3) 0.55953(5)
C7_10 C 0.03498(16) 0.5466(3) 0.57347(7)
C8_10 C 0.03729(17) 0.5529(3) 0.60176(7)
C9_10 C 0.08986(19) 0.5594(3) 0.61611(5)
H7_10 H 0.0914 0.5635 0.6351
C10_10 C 0.24783(19) 0.6457(2) 0.46959(7)
H8_10 H 0.2589 0.6295 0.4846
C11_10 C 0.29454(15) 0.6863(2) 0.45127(8)
H9_10 H 0.3369 0.6972 0.4540
C12_10 C 0.27794(18) 0.7105(2) 0.42894(8)
C13_10 C 0.2146(2) 0.6942(3) 0.42492(8)
H10_10 H 0.2035 0.7104 0.4100
C14_10 C 0.16794(16) 0.6536(3) 0.44324(8)
H11_10 H 0.1256 0.6427 0.4406
C15_10 C 0.18453(17) 0.6294(2) 0.46557(7)
C16_10 C 0.3262(4) 0.7512(3) 0.40819(12)
C17_10 C 0.2412(2) 0.5455(2) 0.65769(7)
H12_10 H 0.2356 0.5215 0.6734
C18_10 C 0.30214(17) 0.5926(2) 0.64996(7)
C19_10 C 0.31054(16) 0.6286(2) 0.62656(8)
H13_10 H 0.3513 0.6601 0.6214
C20_10 C 0.2580(2) 0.6176(2) 0.61090(7)
H14_10 H 0.2636 0.6417 0.5953
C21_10 C 0.19708(16) 0.5705(2) 0.61863(8)
C22_10 C 0.18867(16) 0.5345(2) 0.64202(8)
H15_10 H 0.1479 0.5030 0.6472
C30_10 C 0.1866(3) 0.6538(4) 0.52562(14)
H21_10 H 0.1680 0.6662 0.5400
H22_10 H 0.2042 0.6866 0.5120
H23_10 H 0.2198 0.6475 0.5331
C31_10 C 0.08361(19) 0.5464(2) 0.52837(5)
C32_10 C 0.13432(17) 0.5904(2) 0.51251(7)
C33_10 C 0.13314(18) 0.5827(2) 0.48432(7)
C34_10 C 0.0813(2) 0.5310(2) 0.47198(5)
H24_10 H 0.0805 0.5259 0.4531
C35_10 C 0.03055(18) 0.4870(2) 0.48784(7)
C36_10 C 0.03173(17) 0.4947(2) 0.51603(7)
C37_10 C 0.1863(4) 0.5404(4) 0.55979(13)
H25_10 H 0.2266 0.5793 0.5587
H26_10 H 0.1716 0.5243 0.5417
H27_10 H 0.1912 0.5093 0.5701
C47_10 C 0.0267(6) 0.6656(6) 0.6060(3)
H36_10 H 0.0683 0.6748 0.6119
H37_10 H 0.0201 0.7003 0.6111
H38_10 H 0.0235 0.6605 0.5865
Ca4_5 Ca 0.34600(6) 0.81517(4) 0.35557(2)
P1_10 P 0.93544(9) 0.47425(10) 0.54519(3)
O1_10 O 0.9838(2) 0.5414(3) 0.55903(8)
O2_10 O 0.8972(2) 0.4257(3) 0.56502(8)
O3_10 O 0.9811(2) 0.4525(3) 0.53136(8)
O7_10 O 0.9034(2) 0.4929(3) 0.52389(8)
O10_10 O 0.8267(4) 0.5521(3) 0.50692(12)
O11_10 O 0.8703(3) 0.3047(4) 0.52806(12)
O12_10 O 0.8682(3) 0.2863(3) 0.58779(11)
C3_10 C 0.8198(5) 0.5432(6) 0.6596(2)
H4_10 H 0.7849 0.4999 0.6596
H5_10 H 0.8071 0.5700 0.6502
H6_8 H 0.8313 0.5577 0.6781
C23_10 C 0.9388(4) 0.4333(4) 0.62861(14)
H16_10 H 0.9669 0.4358 0.6142
H17_10 H 0.8975 0.3964 0.6259
H18_10 H 0.9558 0.4300 0.6459
C24_10 C 0.98031(19) 0.5495(3) 0.61703(9)
C25_10 C 0.9331(2) 0.4926(2) 0.62837(9)
C26_10 C 0.8821(2) 0.4909(3) 0.64216(9)
H19_10 H 0.8505 0.4529 0.6498
C27_10 C 0.8782(2) 0.5462(3) 0.64461(11)
C28_10 C 0.9253(3) 0.6030(3) 0.63326(13)
H20_10 H 0.9227 0.6400 0.6349
C29_10 C 0.9764(2) 0.6047(2) 0.61947(12)
C38_10 C 0.8346(4) 0.2702(4) 0.60844(15)
C39_10 C 0.9283(5) 0.5022(5) 0.45852(15)
H28_10 H 0.9553 0.5264 0.4436
H29_10 H 0.9449 0.5256 0.4753
H30_10 H 0.8859 0.4947 0.4555
C40_10 C 0.9672(3) 0.3714(3) 0.47482(11)
C41_10 C 0.9156(3) 0.3197(2) 0.46239(12)
H31_10 H 0.9119 0.2795 0.4630
C42_10 C 0.8695(2) 0.3280(3) 0.44904(10)
C43_10 C 0.8750(2) 0.3880(3) 0.44812(9)
H32_10 H 0.8442 0.3935 0.4392
C44_10 C 0.9266(2) 0.4397(2) 0.46055(9)
C45_10 C 0.97275(19) 0.4315(3) 0.47390(9)
C46_10 C 0.8542(6) 0.2439(6) 0.63308(18)
H33_10 H 0.8897 0.2386 0.6281
H34_10 H 0.8188 0.2034 0.6385
H35_10 H 0.8663 0.2734 0.6481
C48_10 C 0.8138(5) 0.2652(6) 0.4357(2)
H39_10 H 0.8160 0.2696 0.4161
H40_10 H 0.7734 0.2587 0.4420
H41_10 H 0.8183 0.2293 0.4408
C49_10 C 0.7780(9) 0.5505(7) 0.4895(4)
H42_10 H 0.7495 0.5585 0.5002
H43_10 H 0.7546 0.5092 0.4811
H44_10 H 0.7976 0.5826 0.4756
O14_5 O 0.7609(3) 0.4125(2) 0.49295(9)
O15_5 O 0.7808(4) 0.3511(2) 0.52004(9)
H45_10 H 0.909995 0.310312 0.536652
H46_10 H 0.844559 0.260328 0.52111
O4_6 O 0.6234(3) 0.3823(2) 0.24412(9)
O8_6 O 0.5344(4) 0.3070(3) 0.22259(9)
C1_11 C 0.6583(8) 0.0170(6) 0.3222(2)
H1_11 H 0.6889 0.0028 0.3215
H2_11 H 0.6496 0.0218 0.3410
H3_11 H 0.6750 0.0572 0.3130
C2_13 C 0.7520(4) 0.3582(3) 0.50002(12)
C4_11 C 0.58040(34) 0.14010(17) 0.43549(7)
C5_11 C 0.58429(34) 0.13779(17) 0.40721(7)
C6_11 C 0.53832(36) 0.08522(19) 0.39286(5)
C7_11 C 0.48838(34) 0.03498(16) 0.40680(7)
C8_11 C 0.48439(34) 0.03729(17) 0.43509(7)
C9_11 C 0.53046(36) 0.08986(19) 0.44944(5)
H7_11 H 0.5279 0.0914 0.4684
C10_11 C 0.60213(28) 0.24783(19) 0.30292(7)
H8_11 H 0.6294 0.2589 0.3179
C11_11 C 0.60824(25) 0.29454(15) 0.28460(8)
H9_11 H 0.6397 0.3369 0.2873
C12_11 C 0.56744(27) 0.27794(18) 0.26227(8)
C13_11 C 0.5204(4) 0.2146(2) 0.25825(8)
H10_11 H 0.4931 0.2035 0.2433
C14_11 C 0.51434(34) 0.16794(16) 0.27657(8)
H11_11 H 0.4829 0.1256 0.2739
C15_11 C 0.55513(26) 0.18453(17) 0.29890(7)
C16_11 C 0.5750(5) 0.3262(4) 0.24152(12)
C17_11 C 0.6957(3) 0.2412(2) 0.49102(7)
H12_11 H 0.7141 0.2356 0.5067
C18_11 C 0.70954(26) 0.30214(17) 0.48329(7)
C19_11 C 0.68194(26) 0.31054(16) 0.45989(8)
H13_11 H 0.6912 0.3513 0.4547
C20_11 C 0.6404(3) 0.2580(2) 0.44423(7)
H14_11 H 0.6219 0.2636 0.4286
C21_11 C 0.62658(26) 0.19708(16) 0.45196(8)
C22_11 C 0.65417(26) 0.18867(16) 0.47535(8)
H15_11 H 0.6449 0.1479 0.4805
C30_11 C 0.5328(5) 0.1866(3) 0.35895(14)
H21_11 H 0.5018 0.1680 0.3733
H22_11 H 0.5176 0.2042 0.3453
H23_11 H 0.5723 0.2198 0.3664
C31_11 C 0.53721(28) 0.08361(19) 0.36170(5)
C32_11 C 0.54392(26) 0.13432(17) 0.34584(7)
C33_11 C 0.55044(27) 0.13314(18) 0.31765(7)
C34_11 C 0.5503(3) 0.0813(2) 0.30531(5)
H24_11 H 0.5546 0.0805 0.2864
C35_11 C 0.54355(27) 0.03055(18) 0.32117(7)
C36_11 C 0.53703(26) 0.03173(17) 0.34936(7)
C37_11 C 0.6459(6) 0.1863(4) 0.39312(13)
H25_11 H 0.6473 0.2266 0.3920
H26_11 H 0.6473 0.1716 0.3750
H27_11 H 0.6819 0.1912 0.4034
C47_11 C 0.3611(8) 0.0267(6) 0.4393(3)
H36_11 H 0.3935 0.0683 0.4452
H37_11 H 0.3198 0.0201 0.4444
H38_11 H 0.3630 0.0235 0.4198
P1_11 P 0.46119(13) 0.93544(9) 0.37852(3)
O1_11 O 0.4424(4) 0.9838(2) 0.39236(8)
O2_11 O 0.4715(4) 0.8972(2) 0.39835(8)
O3_11 O 0.5286(4) 0.9811(2) 0.36469(8)
O7_11 O 0.4105(4) 0.9034(2) 0.35722(8)
O10_11 O 0.2746(5) 0.8267(4) 0.34025(12)
O11_11 O 0.5656(5) 0.8703(3) 0.36139(12)
O12_11 O 0.5819(4) 0.8682(3) 0.42112(11)
C3_11 C 0.2766(8) 0.8198(5) 0.4929(2)
H4_11 H 0.2850 0.7849 0.4929
H5_11 H 0.2371 0.8071 0.4835
H6_9 H 0.2736 0.8313 0.5114
C23_11 C 0.5055(6) 0.9388(4) 0.46194(14)
H16_11 H 0.5311 0.9669 0.4475
H17_11 H 0.5011 0.8975 0.4592
H18_11 H 0.5258 0.9558 0.4792
C24_11 C 0.43081(36) 0.98031(19) 0.45036(9)
C25_11 C 0.4405(3) 0.9331(2) 0.46170(9)
C26_11 C 0.3912(4) 0.8821(2) 0.47549(9)
H19_11 H 0.3976 0.8505 0.4831
C27_11 C 0.3320(4) 0.8782(2) 0.47794(11)
C28_11 C 0.3223(4) 0.9253(3) 0.46659(13)
H20_11 H 0.2827 0.9227 0.4682
C29_11 C 0.3717(3) 0.9764(2) 0.45280(12)
C38_11 C 0.5644(6) 0.8346(4) 0.44177(15)
C39_11 C 0.4261(7) 0.9283(5) 0.29185(15)
H28_11 H 0.4289 0.9553 0.2769
H29_11 H 0.4193 0.9449 0.3086
H30_11 H 0.3912 0.8859 0.2888
C40_11 C 0.5958(4) 0.9672(3) 0.30815(11)
C41_11 C 0.5959(4) 0.9156(3) 0.29572(12)
H31_11 H 0.6324 0.9119 0.2963
C42_11 C 0.5415(4) 0.8695(2) 0.28237(10)
C43_11 C 0.4870(4) 0.8750(2) 0.28145(9)
H32_11 H 0.4507 0.8442 0.2725
C44_11 C 0.4869(3) 0.9266(2) 0.29388(9)
C45_11 C 0.54125(36) 0.97275(19) 0.30723(9)
C46_11 C 0.6103(8) 0.8542(6) 0.46641(18)
H33_11 H 0.6511 0.8897 0.4614
H34_11 H 0.6154 0.8188 0.4718
H35_11 H 0.5929 0.8663 0.4814
C48_11 C 0.5486(8) 0.8138(5) 0.2690(2)
H39_11 H 0.5464 0.8160 0.2494
H40_11 H 0.5147 0.7734 0.2753
H41_11 H 0.5890 0.8183 0.2741
C49_11 C 0.2275(11) 0.7780(9) 0.3228(4)
H42_11 H 0.1910 0.7495 0.3335
H43_11 H 0.2454 0.7546 0.3144
H44_11 H 0.2150 0.7976 0.3089
O14_6 O 0.3484(4) 0.7609(3) 0.32628(9)
O15_6 O 0.4297(4) 0.7808(4) 0.35337(9)
H45_11 H 0.599683 0.909995 0.369985
H46_11 H 0.584231 0.844559 0.354443
P1_12 P 0.52575(10) 0.46119(13) 0.21185(3)
O1_12 O 0.4586(3) 0.4424(4) 0.22569(8)
O2_12 O 0.5743(3) 0.4715(4) 0.23168(8)
O3_12 O 0.5475(3) 0.5286(4) 0.19802(8)
O7_12 O 0.5071(3) 0.4105(4) 0.19055(8)
O10_12 O 0.4479(3) 0.2746(5) 0.17358(12)
O11_12 O 0.6953(4) 0.5656(5) 0.19472(12)
O12_12 O 0.7137(3) 0.5819(4) 0.25445(11)
C1_12 C 0.6413(6) 0.6583(8) 0.1555(2)
H1_12 H 0.6861 0.6889 0.1548
H2_12 H 0.6278 0.6496 0.1743
H3_12 H 0.6178 0.6750 0.1463
C2_14 C 0.3938(3) 0.7520(4) 0.33335(12)
C3_12 C 0.4568(6) 0.2766(8) 0.3262(2)
H4_12 H 0.5001 0.2850 0.3262
H5_12 H 0.4300 0.2371 0.3168
H6_10 H 0.4423 0.2736 0.3447
C4_12 C 0.4403(3) 0.58040(34) 0.26882(7)
C5_12 C 0.4465(3) 0.58429(34) 0.24054(7)
C6_12 C 0.4531(3) 0.53832(36) 0.22619(5)
C7_12 C 0.4534(3) 0.48838(34) 0.24013(7)
C8_12 C 0.4471(3) 0.48439(34) 0.26842(7)
C9_12 C 0.4406(3) 0.53046(36) 0.28277(5)
H7_12 H 0.4365 0.5279 0.3017
C10_12 C 0.3543(2) 0.60213(28) 0.13625(7)
H8_12 H 0.3705 0.6294 0.1512
C11_12 C 0.3137(2) 0.60824(25) 0.11793(8)
H9_12 H 0.3028 0.6397 0.1206
C12_12 C 0.2895(2) 0.56744(27) 0.09560(8)
C13_12 C 0.3058(3) 0.5204(4) 0.09158(8)
H10_12 H 0.2896 0.4931 0.0766
C14_12 C 0.3464(3) 0.51434(34) 0.10990(8)
H11_12 H 0.3573 0.4829 0.1072
C15_12 C 0.3706(2) 0.55513(26) 0.13223(7)
C16_12 C 0.2488(3) 0.5750(5) 0.07485(12)
C17_12 C 0.4545(2) 0.6957(3) 0.32435(7)
H12_12 H 0.4785 0.7141 0.3400
C18_12 C 0.4074(2) 0.70954(26) 0.31662(7)
C19_12 C 0.3714(2) 0.68194(26) 0.29322(8)
H13_12 H 0.3399 0.6912 0.2880
C20_12 C 0.3824(2) 0.6404(3) 0.27756(7)
H14_12 H 0.3583 0.6219 0.2619
C21_12 C 0.4295(2) 0.62658(26) 0.28529(8)
C22_12 C 0.4655(2) 0.65417(26) 0.30868(8)
H15_12 H 0.4970 0.6449 0.3138
C23_12 C 0.5667(4) 0.5055(6) 0.29527(14)
H16_12 H 0.5642 0.5311 0.2808
H17_12 H 0.6036 0.5011 0.2925
H18_12 H 0.5700 0.5258 0.3125
C24_12 C 0.4505(3) 0.43081(36) 0.28369(9)
C25_12 C 0.5074(2) 0.4405(3) 0.29503(9)
C26_12 C 0.5091(3) 0.3912(4) 0.30882(9)
H19_12 H 0.5471 0.3976 0.3164
C27_12 C 0.4538(3) 0.3320(4) 0.31127(11)
C28_12 C 0.3970(3) 0.3223(4) 0.29992(13)
H20_12 H 0.3600 0.2827 0.3015
C29_12 C 0.3953(2) 0.3717(3) 0.28613(12)
C30_12 C 0.3462(4) 0.5328(5) 0.19228(14)
H21_12 H 0.3338 0.5018 0.2066
H22_12 H 0.3134 0.5176 0.1786
H23_12 H 0.3525 0.5723 0.1997
C31_12 C 0.4536(2) 0.53721(28) 0.19503(5)
C32_12 C 0.4096(2) 0.54392(26) 0.17917(7)
C33_12 C 0.4173(2) 0.55044(27) 0.15098(7)
C34_12 C 0.4690(2) 0.5503(3) 0.13864(5)
H24_12 H 0.4741 0.5546 0.1197
C35_12 C 0.5130(2) 0.54355(27) 0.15450(7)
C36_12 C 0.5053(2) 0.53703(26) 0.18269(7)
C37_12 C 0.4596(4) 0.6459(6) 0.22645(13)
H25_12 H 0.4207 0.6473 0.2253
H26_12 H 0.4757 0.6473 0.2083
H27_12 H 0.4907 0.6819 0.2367
C38_12 C 0.7298(4) 0.5644(6) 0.27510(15)
C39_12 C 0.4978(5) 0.4261(7) 0.12518(15)
H28_12 H 0.4736 0.4289 0.1102
H29_12 H 0.4744 0.4193 0.1419
H30_12 H 0.5053 0.3912 0.1221
C40_12 C 0.6286(3) 0.5958(4) 0.14148(11)
C41_12 C 0.6803(2) 0.5959(4) 0.12905(12)
H31_12 H 0.7205 0.6324 0.1296
C42_12 C 0.6720(3) 0.5415(4) 0.11570(10)
C43_12 C 0.6120(3) 0.4870(4) 0.11478(9)
H32_12 H 0.6065 0.4507 0.1058
C44_12 C 0.5603(2) 0.4869(3) 0.12721(9)
C45_12 C 0.5685(3) 0.54125(36) 0.14056(9)
C46_12 C 0.7561(6) 0.6103(8) 0.29974(18)
H33_12 H 0.7614 0.6511 0.2947
H34_12 H 0.7966 0.6154 0.3051
H35_12 H 0.7266 0.5929 0.3147
C47_12 C 0.3344(6) 0.3611(8) 0.2726(3)
H36_12 H 0.3252 0.3935 0.2785
H37_12 H 0.2997 0.3198 0.2777
H38_12 H 0.3395 0.3630 0.2531
C48_12 C 0.7348(6) 0.5486(8) 0.1023(2)
H39_12 H 0.7304 0.5464 0.0827
H40_12 H 0.7413 0.5147 0.1086
H41_12 H 0.7707 0.5890 0.1074
C49_12 C 0.4495(7) 0.2275(11) 0.1561(4)
H42_12 H 0.4415 0.1910 0.1668
H43_12 H 0.4908 0.2454 0.1477
H44_12 H 0.4174 0.2150 0.1422
H45_12 H 0.689688 0.599683 0.203319
H46_12 H 0.739672 0.584231 0.187777
H6_11 H 0.5577 0.8313 0.9886
H6_12 H 0.7264 0.1687 0.0114
loop_
_geom_bond_atom_site_label_1
_geom_bond_atom_site_label_2
_geom_bond_site_symmetry_1
_geom_bond_site_symmetry_2
O4 C16 1_555 1_555
O5 C2 1_555 1_555
O8 C16 1_555 1_555
C1 H1 1_555 1_555
H2 C1 1_555 1_555
H3 C1 1_555 1_555
C2 C18 1_555 1_555
C4 C5 1_555 1_555
C5 C6 1_555 1_555
C6 C7 1_555 1_555
C7 C8 1_555 1_555
C8 C9 1_555 1_555
C9 C4 1_555 1_555
H7 C9 1_555 1_555
C10 H8 1_555 1_555
C11 C10 1_555 1_555
H9 C11 1_555 1_555
C12 C11 1_555 1_555
C13 C12 1_555 1_555
H10 C13 1_555 1_555
C14 C13 1_555 1_555
H11 C14 1_555 1_555
C15 C10 1_555 1_555
C16 C12 1_555 1_555
C18 C17 1_555 1_555
C19 C18 1_555 1_555
H13 C19 1_555 1_555
C20 C19 1_555 1_555
H14 C20 1_555 1_555
C21 C4 1_555 1_555
C22 C17 1_555 1_555
H15 C22 1_555 1_555
C30 H21 1_555 1_555
H22 C30 1_555 1_555
H23 C30 1_555 1_555
C31 C6 1_555 1_555
C32 C30 1_555 1_555
C33 C15 1_555 1_555
C34 C33 1_555 1_555
H24 C34 1_555 1_555
C35 C34 1_555 1_555
C37 C5 1_555 1_555
H25 C37 1_555 1_555
H26 C37 1_555 1_555
H27 C37 1_555 1_555
H36 C47 1_555 1_555
H37 C47 1_555 1_555
H38 C47 1_555 1_555
Ca4 O8 1_555 1_555
Ca6 O4 1_555 1_555
C14 C15 1_555 1_555
C20 C21 1_555 1_555
C21 C22 1_555 1_555
C31 C32 1_555 1_555
C31 C36 1_555 1_555
C32 C33 1_555 1_555
C35 C36 1_555 1_555
O6 C2_2 1_555 1_555
Ca5 O6 1_555 1_555
O6 Ca3 1_555 1_555
Ca1 O7 1_555 1_555
Ca2 O2 1_555 1_555
P1 O1 1_555 1_555
O2 P1 1_555 1_555
O3 P1 1_555 1_555
O7 P1 1_555 1_555
O9 Ca2 1_555 1_555
O10 Ca1 1_555 1_555
O11 Ca2 1_555 1_555
O12 Ca2 1_555 1_555
C3 H4 1_555 1_555
H5 C3 1_555 1_555
C23 H16 1_555 1_555
H17 C23 1_555 1_555
H18 C23 1_555 1_555
C25 C23 1_555 1_555
C26 C25 1_555 1_555
H19 C26 1_555 1_555
C27 C3 1_555 1_555
C28 C27 1_555 1_555
H20 C28 1_555 1_555
C29 C24 1_555 1_555
C38 O9 1_555 1_555
C39 H28 1_555 1_555
H29 C39 1_555 1_555
H30 C39 1_555 1_555
C41 C40 1_555 1_555
H31 C41 1_555 1_555
C42 C41 1_555 1_555
C43 C42 1_555 1_555
H32 C43 1_555 1_555
C44 C39 1_555 1_555
C46 C38 1_555 1_555
H33 C46 1_555 1_555
H34 C46 1_555 1_555
H35 C46 1_555 1_555
C48 C42 1_555 1_555
H39 C48 1_555 1_555
H40 C48 1_555 1_555
H41 C48 1_555 1_555
C49 O10 1_555 1_555
H42 C49 1_555 1_555
H43 C49 1_555 1_555
H44 C49 1_555 1_555
Ca7 O9 1_555 1_555
O13 Ca2 1_555 1_555
O14 Ca1 1_555 1_555
O15 Ca1 1_555 1_555
O16 Ca1 1_555 1_555
O17 Ca2 1_555 1_555
Ca2 O15 1_555 1_555
O12 C38 1_555 1_555
C24 C25 1_555 1_555
C26 C27 1_555 1_555
C28 C29 1_555 1_555
C40 C45 1_555 1_555
C43 C44 1_555 1_555
C44 C45 1_555 1_555
Ca7 O17 1_555 1_555
O11 H45 1_555 1_555
O11 H46 1_555 1_555
O13 C16_2 1_555 1_555
O16 C16_2 1_555 1_555
C1_2 H1_2 1_555 1_555
H3_2 C1_2 1_555 1_555
C10_2 H8_2 1_555 1_555
C11_2 C10_2 1_555 1_555
H9_2 C11_2 1_555 1_555
C12_2 C11_2 1_555 1_555
C13_2 C12_2 1_555 1_555
H10_2 C13_2 1_555 1_555
C14_2 C13_2 1_555 1_555
H11_2 C14_2 1_555 1_555
C15_2 C10_2 1_555 1_555
C16_2 C12_2 1_555 1_555
C33_2 C15_2 1_555 1_555
C34_2 C33_2 1_555 1_555
H24_2 C34_2 1_555 1_555
C35_2 C34_2 1_555 1_555
C39_2 H28_2 1_555 1_555
H29_2 C39_2 1_555 1_555
H30_2 C39_2 1_555 1_555
C40_2 C1_2 1_555 1_555
C41_2 C40_2 1_555 1_555
H31_2 C41_2 1_555 1_555
C42_2 C41_2 1_555 1_555
C43_2 C42_2 1_555 1_555
H32_2 C43_2 1_555 1_555
C44_2 C39_2 1_555 1_555
C45_2 C35_2 1_555 1_555
C48_2 C42_2 1_555 1_555
H39_2 C48_2 1_555 1_555
H40_2 C48_2 1_555 1_555
H41_2 C48_2 1_555 1_555
H43_2 C49_2 1_555 1_555
H44_2 C49_2 1_555 1_555
C14_2 C15_2 1_555 1_555
C40_2 C45_2 1_555 1_555
C43_2 C44_2 1_555 1_555
C44_2 C45_2 1_555 1_555
Ca3 O7_2 1_555 1_555
Ca5 O2_2 1_555 1_555
P1_2 O1_2 1_555 1_555
O1_2 C7_2 1_555 1_555
O2_2 P1_2 1_555 1_555
O3_2 P1_2 1_555 1_555
O5_2 C2_3 1_555 1_555
O6_2 C2_3 1_555 1_555
O7_2 P1_2 1_555 1_555
O9_2 Ca5 1_555 1_555
O10_2 Ca3 1_555 1_555
O11_2 Ca5 1_555 1_555
O12_2 Ca5 1_555 1_555
C2_3 C18_2 1_555 1_555
C3_2 H4_2 1_555 1_555
H5_2 C3_2 1_555 1_555
H6 C3_2 1_555 1_555
C4_2 C5_2 1_555 1_555
C5_2 C6_2 1_555 1_555
C6_2 C7_2 1_555 1_555
C7_2 C8_2 1_555 1_555
C8_2 C9_2 1_555 1_555
C9_2 C4_2 1_555 1_555
H7_2 C9_2 1_555 1_555
C17_2 H12_2 1_555 1_555
C18_2 C17_2 1_555 1_555
C19_2 C18_2 1_555 1_555
H13_2 C19_2 1_555 1_555
C20_2 C19_2 1_555 1_555
H14_2 C20_2 1_555 1_555
C21_2 C4_2 1_555 1_555
C22_2 C17_2 1_555 1_555
H15_2 C22_2 1_555 1_555
C23_2 H16_2 1_555 1_555
H17_2 C23_2 1_555 1_555
H18_2 C23_2 1_555 1_555
C24_2 C8_2 1_555 1_555
C25_2 C23_2 1_555 1_555
C26_2 C25_2 1_555 1_555
H19_2 C26_2 1_555 1_555
C27_2 C3_2 1_555 1_555
C28_2 C27_2 1_555 1_555
H20_2 C28_2 1_555 1_555
C29_2 C24_2 1_555 1_555
C30_2 H21_2 1_555 1_555
H22_2 C30_2 1_555 1_555
H23_2 C30_2 1_555 1_555
C31_2 C6_2 1_555 1_555
C32_2 C30_2 1_555 1_555
C36_2 O3_2 1_555 1_555
C37_2 C5_2 1_555 1_555
H25_2 C37_2 1_555 1_555
H26_2 C37_2 1_555 1_555
H27_2 C37_2 1_555 1_555
C38_2 O9_2 1_555 1_555
C46_2 C38_2 1_555 1_555
H33_2 C46_2 1_555 1_555
H34_2 C46_2 1_555 1_555
H35_2 C46_2 1_555 1_555
C47_2 C29_2 1_555 1_555
H36_2 C47_2 1_555 1_555
H37_2 C47_2 1_555 1_555
H38_2 C47_2 1_555 1_555
Ca3_2 O5_2 1_555 1_555
Ca5_2 O6_2 1_555 1_555
Ca7_2 O9_2 1_555 1_555
O13_2 Ca5 1_555 1_555
O16_2 Ca3 1_555 1_555
O17_2 Ca5 1_555 1_555
O6_2 Ca3_2 1_555 1_555
O12_2 C38_2 1_555 1_555
C20_2 C21_2 1_555 1_555
C21_2 C22_2 1_555 1_555
C24_2 C25_2 1_555 1_555
C26_2 C27_2 1_555 1_555
C28_2 C29_2 1_555 1_555
C31_2 C32_2 1_555 1_555
C31_2 C36_2 1_555 1_555
Ca7_2 O17_2 1_555 1_555
O11_2 H45_2 1_555 1_555
O11_2 H46_2 1_555 1_555
Ca3_2 O7_3 1_555 1_555
Ca5_2 O2_3 1_555 1_555
P1_3 O1_3 1_555 1_555
O2_3 P1_3 1_555 1_555
O3_3 P1_3 1_555 1_555
O7_3 P1_3 1_555 1_555
O9_3 Ca5_2 1_555 1_555
O10_3 Ca3_2 1_555 1_555
O11_3 Ca5_2 1_555 1_555
O12_3 Ca5_2 1_555 1_555
C3_3 H4_3 1_555 1_555
H5_3 C3_3 1_555 1_555
H6_2 C3_3 1_555 1_555
C23_3 H16_3 1_555 1_555
H17_3 C23_3 1_555 1_555
H18_3 C23_3 1_555 1_555
C25_3 C23_3 1_555 1_555
C26_3 C25_3 1_555 1_555
H19_3 C26_3 1_555 1_555
C27_3 C3_3 1_555 1_555
C28_3 C27_3 1_555 1_555
H20_3 C28_3 1_555 1_555
C29_3 C24_3 1_555 1_555
C38_3 O9_3 1_555 1_555
C39_3 H28_3 1_555 1_555
H29_3 C39_3 1_555 1_555
H30_3 C39_3 1_555 1_555
C41_3 C40_3 1_555 1_555
H31_3 C41_3 1_555 1_555
C42_3 C41_3 1_555 1_555
C43_3 C42_3 1_555 1_555
H32_3 C43_3 1_555 1_555
C44_3 C39_3 1_555 1_555
C46_3 C38_3 1_555 1_555
H33_3 C46_3 1_555 1_555
H34_3 C46_3 1_555 1_555
H35_3 C46_3 1_555 1_555
C48_3 C42_3 1_555 1_555
H39_3 C48_3 1_555 1_555
H40_3 C48_3 1_555 1_555
H41_3 C48_3 1_555 1_555
C49_3 O10_3 1_555 1_555
H42_3 C49_3 1_555 1_555
H43_3 C49_3 1_555 1_555
H44_3 C49_3 1_555 1_555
Ca7_3 O9_3 1_555 1_555
O13_3 Ca5_2 1_555 1_555
O16_3 Ca3_2 1_555 1_555
O17_3 Ca5_2 1_555 1_555
O12_3 C38_3 1_555 1_555
C24_3 C25_3 1_555 1_555
C26_3 C27_3 1_555 1_555
C28_3 C29_3 1_555 1_555
C40_3 C45_3 1_555 1_555
C43_3 C44_3 1_555 1_555
C44_3 C45_3 1_555 1_555
Ca7_3 O17_3 1_555 1_555
O11_3 H45_3 1_555 1_555
O11_3 H46_3 1_555 1_555
O13_2 C16_3 1_555 1_555
O5_3 C2_4 1_555 1_555
O6_3 C2_4 1_555 1_555
O16_2 C16_3 1_555 1_555
C1_3 H1_3 1_555 1_555
H2_3 C1_3 1_555 1_555
H3_3 C1_3 1_555 1_555
C2_4 C18_3 1_555 1_555
C4_3 C5_3 1_555 1_555
C5_3 C6_3 1_555 1_555
C6_3 C7_3 1_555 1_555
C7_3 C8_3 1_555 1_555
C8_3 C9_3 1_555 1_555
C9_3 C4_3 1_555 1_555
H7_3 C9_3 1_555 1_555
C10_3 H8_3 1_555 1_555
C11_3 C10_3 1_555 1_555
H9_3 C11_3 1_555 1_555
C12_3 C11_3 1_555 1_555
C13_3 C12_3 1_555 1_555
H10_3 C13_3 1_555 1_555
C14_3 C13_3 1_555 1_555
H11_3 C14_3 1_555 1_555
C15_3 C10_3 1_555 1_555
C16_3 C12_3 1_555 1_555
C17_3 H12_3 1_555 1_555
C18_3 C17_3 1_555 1_555
C19_3 C18_3 1_555 1_555
H13_3 C19_3 1_555 1_555
C20_3 C19_3 1_555 1_555
H14_3 C20_3 1_555 1_555
C21_3 C4_3 1_555 1_555
C22_3 C17_3 1_555 1_555
H15_3 C22_3 1_555 1_555
C30_3 H21_3 1_555 1_555
H22_3 C30_3 1_555 1_555
H23_3 C30_3 1_555 1_555
C31_3 C6_3 1_555 1_555
C32_3 C30_3 1_555 1_555
C33_3 C15_3 1_555 1_555
C34_3 C33_3 1_555 1_555
H24_3 C34_3 1_555 1_555
C35_3 C34_3 1_555 1_555
C37_3 C5_3 1_555 1_555
H25_3 C37_3 1_555 1_555
H26_3 C37_3 1_555 1_555
H27_3 C37_3 1_555 1_555
H36_3 C47_3 1_555 1_555
H37_3 C47_3 1_555 1_555
H38_3 C47_3 1_555 1_555
Ca3_3 O5_3 1_555 1_555
Ca5_3 O6_3 1_555 1_555
O6_3 Ca3_3 1_555 1_555
C14_3 C15_3 1_555 1_555
C20_3 C21_3 1_555 1_555
C21_3 C22_3 1_555 1_555
C31_3 C32_3 1_555 1_555
C31_3 C36_3 1_555 1_555
C32_3 C33_3 1_555 1_555
C35_3 C36_3 1_555 1_555
Ca3_3 O7_4 1_555 1_555
Ca5_3 O2_4 1_555 1_555
P1_4 O1_4 1_555 1_555
O2_4 P1_4 1_555 1_555
O3_4 P1_4 1_555 1_555
O7_4 P1_4 1_555 1_555
O9_4 Ca5_3 1_555 1_555
O10_4 Ca3_3 1_555 1_555
O11_4 Ca5_3 1_555 1_555
O12_4 Ca5_3 1_555 1_555
C3_4 H4_4 1_555 1_555
H5_4 C3_4 1_555 1_555
H6_3 C3_4 1_555 1_555
C23_4 H16_4 1_555 1_555
H17_4 C23_4 1_555 1_555
H18_4 C23_4 1_555 1_555
C25_4 C23_4 1_555 1_555
C26_4 C25_4 1_555 1_555
H19_4 C26_4 1_555 1_555
C27_4 C3_4 1_555 1_555
C28_4 C27_4 1_555 1_555
H20_4 C28_4 1_555 1_555
C29_4 C24_4 1_555 1_555
C38_4 O9_4 1_555 1_555
C39_4 H28_4 1_555 1_555
H29_4 C39_4 1_555 1_555
H30_4 C39_4 1_555 1_555
C41_4 C40_4 1_555 1_555
H31_4 C41_4 1_555 1_555
C42_4 C41_4 1_555 1_555
C43_4 C42_4 1_555 1_555
H32_4 C43_4 1_555 1_555
C44_4 C39_4 1_555 1_555
C46_4 C38_4 1_555 1_555
H33_4 C46_4 1_555 1_555
H34_4 C46_4 1_555 1_555
H35_4 C46_4 1_555 1_555
C48_4 C42_4 1_555 1_555
H39_4 C48_4 1_555 1_555
H40_4 C48_4 1_555 1_555
H41_4 C48_4 1_555 1_555
C49_4 O10_4 1_555 1_555
H42_4 C49_4 1_555 1_555
H43_4 C49_4 1_555 1_555
H44_4 C49_4 1_555 1_555
Ca7_4 O9_4 1_555 1_555
O13_4 Ca5_3 1_555 1_555
O16_4 Ca3_3 1_555 1_555
O17_4 Ca5_3 1_555 1_555
O12_4 C38_4 1_555 1_555
C24_4 C25_4 1_555 1_555
C26_4 C27_4 1_555 1_555
C28_4 C29_4 1_555 1_555
C40_4 C45_4 1_555 1_555
C43_4 C44_4 1_555 1_555
C44_4 C45_4 1_555 1_555
Ca7_4 O17_4 1_555 1_555
O11_4 H45_4 1_555 1_555
O11_4 H46_4 1_555 1_555
O13_3 C16_4 1_555 1_555
O5_4 C2_5 1_555 1_555
O6_4 C2_5 1_555 1_555
O16_3 C16_4 1_555 1_555
C1_4 H1_4 1_555 1_555
H2_4 C1_4 1_555 1_555
H3_4 C1_4 1_555 1_555
C2_5 C18_4 1_555 1_555
C4_4 C5_4 1_555 1_555
C5_4 C6_4 1_555 1_555
C6_4 C7_4 1_555 1_555
C7_4 C8_4 1_555 1_555
C8_4 C9_4 1_555 1_555
C9_4 C4_4 1_555 1_555
H7_4 C9_4 1_555 1_555
C10_4 H8_4 1_555 1_555
C11_4 C10_4 1_555 1_555
H9_4 C11_4 1_555 1_555
C12_4 C11_4 1_555 1_555
C13_4 C12_4 1_555 1_555
H10_4 C13_4 1_555 1_555
C14_4 C13_4 1_555 1_555
H11_4 C14_4 1_555 1_555
C15_4 C10_4 1_555 1_555
C16_4 C12_4 1_555 1_555
C17_4 H12_4 1_555 1_555
C18_4 C17_4 1_555 1_555
C19_4 C18_4 1_555 1_555
H13_4 C19_4 1_555 1_555
C20_4 C19_4 1_555 1_555
H14_4 C20_4 1_555 1_555
C21_4 C4_4 1_555 1_555
C22_4 C17_4 1_555 1_555
H15_4 C22_4 1_555 1_555
C30_4 H21_4 1_555 1_555
H22_4 C30_4 1_555 1_555
H23_4 C30_4 1_555 1_555
C31_4 C6_4 1_555 1_555
C32_4 C30_4 1_555 1_555
C33_4 C15_4 1_555 1_555
C34_4 C33_4 1_555 1_555
H24_4 C34_4 1_555 1_555
C35_4 C34_4 1_555 1_555
C37_4 C5_4 1_555 1_555
H25_4 C37_4 1_555 1_555
H26_4 C37_4 1_555 1_555
H27_4 C37_4 1_555 1_555
H36_4 C47_4 1_555 1_555
H37_4 C47_4 1_555 1_555
H38_4 C47_4 1_555 1_555
Ca3_4 O5_4 1_555 1_555
Ca5_4 O6_4 1_555 1_555
O6_4 Ca3_4 1_555 1_555
C14_4 C15_4 1_555 1_555
C20_4 C21_4 1_555 1_555
C21_4 C22_4 1_555 1_555
C31_4 C32_4 1_555 1_555
C31_4 C36_4 1_555 1_555
C32_4 C33_4 1_555 1_555
C35_4 C36_4 1_555 1_555
Ca3_4 O7_5 1_555 1_555
Ca5_4 O2_5 1_555 1_555
P1_5 O1_5 1_555 1_555
O1_5 C7_5 1_555 1_555
O2_5 P1_5 1_555 1_555
O3_5 P1_5 1_555 1_555
O13_4 C16_5 1_555 1_555
O5_5 C2_6 1_555 1_555
O6_5 C2_6 1_555 1_555
O7_5 P1_5 1_555 1_555
O16_4 C16_5 1_555 1_555
O9_5 Ca5_4 1_555 1_555
O10_5 Ca3_4 1_555 1_555
O11_5 Ca5_4 1_555 1_555
O12_5 Ca5_4 1_555 1_555
C1_5 H1_5 1_555 1_555
H2_5 C1_5 1_555 1_555
H3_5 C1_5 1_555 1_555
C2_6 C18_5 1_555 1_555
C3_5 H4_5 1_555 1_555
H5_5 C3_5 1_555 1_555
H6_4 C3_5 1_555 1_555
C4_5 C5_5 1_555 1_555
C5_5 C6_5 1_555 1_555
C6_5 C7_5 1_555 1_555
C7_5 C8_5 1_555 1_555
C8_5 C9_5 1_555 1_555
C9_5 C4_5 1_555 1_555
H7_5 C9_5 1_555 1_555
C10_5 H8_5 1_555 1_555
C11_5 C10_5 1_555 1_555
H9_5 C11_5 1_555 1_555
C12_5 C11_5 1_555 1_555
C13_5 C12_5 1_555 1_555
H10_5 C13_5 1_555 1_555
C14_5 C13_5 1_555 1_555
H11_5 C14_5 1_555 1_555
C15_5 C10_5 1_555 1_555
C16_5 C12_5 1_555 1_555
C17_5 H12_5 1_555 1_555
C18_5 C17_5 1_555 1_555
C19_5 C18_5 1_555 1_555
H13_5 C19_5 1_555 1_555
C20_5 C19_5 1_555 1_555
H14_5 C20_5 1_555 1_555
C21_5 C4_5 1_555 1_555
C22_5 C17_5 1_555 1_555
H15_5 C22_5 1_555 1_555
C23_5 H16_5 1_555 1_555
H17_5 C23_5 1_555 1_555
H18_5 C23_5 1_555 1_555
C24_5 C8_5 1_555 1_555
C25_5 C23_5 1_555 1_555
C26_5 C25_5 1_555 1_555
H19_5 C26_5 1_555 1_555
C27_5 C3_5 1_555 1_555
C28_5 C27_5 1_555 1_555
H20_5 C28_5 1_555 1_555
C29_5 C24_5 1_555 1_555
C30_5 H21_5 1_555 1_555
H22_5 C30_5 1_555 1_555
H23_5 C30_5 1_555 1_555
C31_5 C6_5 1_555 1_555
C32_5 C30_5 1_555 1_555
C33_5 C15_5 1_555 1_555
C34_5 C33_5 1_555 1_555
H24_5 C34_5 1_555 1_555
C35_5 C34_5 1_555 1_555
C36_5 O3_5 1_555 1_555
C37_5 C5_5 1_555 1_555
H25_5 C37_5 1_555 1_555
H26_5 C37_5 1_555 1_555
H27_5 C37_5 1_555 1_555
C38_5 O9_5 1_555 1_555
C39_5 H28_5 1_555 1_555
H29_5 C39_5 1_555 1_555
H30_5 C39_5 1_555 1_555
C40_5 C1_5 1_555 1_555
C41_5 C40_5 1_555 1_555
H31_5 C41_5 1_555 1_555
C42_5 C41_5 1_555 1_555
C43_5 C42_5 1_555 1_555
H32_5 C43_5 1_555 1_555
C44_5 C39_5 1_555 1_555
C45_5 C35_5 1_555 1_555
C46_5 C38_5 1_555 1_555
H33_5 C46_5 1_555 1_555
H34_5 C46_5 1_555 1_555
H35_5 C46_5 1_555 1_555
C47_5 C29_5 1_555 1_555
H36_5 C47_5 1_555 1_555
H37_5 C47_5 1_555 1_555
H38_5 C47_5 1_555 1_555
C48_5 C42_5 1_555 1_555
H39_5 C48_5 1_555 1_555
H40_5 C48_5 1_555 1_555
H41_5 C48_5 1_555 1_555
C49_5 O10_5 1_555 1_555
H42_5 C49_5 1_555 1_555
H43_5 C49_5 1_555 1_555
H44_5 C49_5 1_555 1_555
Ca4 O5_5 1_555 1_555
Ca6 O6_5 1_555 1_555
Ca7_5 O9_5 1_555 1_555
O13_5 Ca5_4 1_555 1_555
O16_5 Ca3_4 1_555 1_555
O17_5 Ca5_4 1_555 1_555
O6_5 Ca4 1_555 1_555
O12_5 C38_5 1_555 1_555
C14_5 C15_5 1_555 1_555
C20_5 C21_5 1_555 1_555
C21_5 C22_5 1_555 1_555
C24_5 C25_5 1_555 1_555
C26_5 C27_5 1_555 1_555
C28_5 C29_5 1_555 1_555
C31_5 C32_5 1_555 1_555
C31_5 C36_5 1_555 1_555
C32_5 C33_5 1_555 1_555
C35_5 C36_5 1_555 1_555
C40_5 C45_5 1_555 1_555
C43_5 C44_5 1_555 1_555
C44_5 C45_5 1_555 1_555
Ca7_5 O17_5 1_555 1_555
O11_5 H45_5 1_555 1_555
O11_5 H46_5 1_555 1_555
O13_5 C16_6 1_555 1_555
O14 C2_7 1_555 1_555
O15 C2_7 1_555 1_555
O16_5 C16_6 1_555 1_555
C1_6 H1_6 1_555 1_555
H2_6 C1_6 1_555 1_555
H3_6 C1_6 1_555 1_555
C2_7 C18_6 1_555 1_555
C4_6 C5_6 1_555 1_555
C5_6 C6_6 1_555 1_555
C6_6 C7_6 1_555 1_555
C7_6 C8_6 1_555 1_555
C8_6 C9_6 1_555 1_555
C9_6 C4_6 1_555 1_555
H7_6 C9_6 1_555 1_555
C10_6 H8_6 1_555 1_555
C11_6 C10_6 1_555 1_555
H9_6 C11_6 1_555 1_555
C12_6 C11_6 1_555 1_555
C13_6 C12_6 1_555 1_555
H10_6 C13_6 1_555 1_555
C14_6 C13_6 1_555 1_555
H11_6 C14_6 1_555 1_555
C15_6 C10_6 1_555 1_555
C16_6 C12_6 1_555 1_555
C17_6 H12_6 1_555 1_555
C18_6 C17_6 1_555 1_555
C19_6 C18_6 1_555 1_555
H13_6 C19_6 1_555 1_555
C20_6 C19_6 1_555 1_555
H14_6 C20_6 1_555 1_555
C21_6 C4_6 1_555 1_555
C22_6 C17_6 1_555 1_555
H15_6 C22_6 1_555 1_555
C30_6 H21_6 1_555 1_555
H22_6 C30_6 1_555 1_555
H23_6 C30_6 1_555 1_555
C31_6 C6_6 1_555 1_555
C32_6 C30_6 1_555 1_555
C33_6 C15_6 1_555 1_555
C34_6 C33_6 1_555 1_555
H24_6 C34_6 1_555 1_555
C35_6 C34_6 1_555 1_555
C37_6 C5_6 1_555 1_555
H25_6 C37_6 1_555 1_555
H26_6 C37_6 1_555 1_555
H27_6 C37_6 1_555 1_555
H36_6 C47_6 1_555 1_555
H37_6 C47_6 1_555 1_555
H38_6 C47_6 1_555 1_555
C14_6 C15_6 1_555 1_555
C20_6 C21_6 1_555 1_555
C21_6 C22_6 1_555 1_555
C31_6 C32_6 1_555 1_555
C31_6 C36_6 1_555 1_555
C32_6 C33_6 1_555 1_555
C35_6 C36_6 1_555 1_555
Ca4 O7_6 1_555 1_555
Ca6 O2_6 1_555 1_555
P1_6 O1_6 1_555 1_555
O2_6 P1_6 1_555 1_555
O3_6 P1_6 1_555 1_555
O7_6 P1_6 1_555 1_555
O9_6 Ca6 1_555 1_555
O10_6 Ca4 1_555 1_555
O11_6 Ca6 1_555 1_555
O12_6 Ca6 1_555 1_555
C3_6 H4_6 1_555 1_555
H5_6 C3_6 1_555 1_555
H6_5 C3_6 1_555 1_555
C23_6 H16_6 1_555 1_555
H17_6 C23_6 1_555 1_555
H18_6 C23_6 1_555 1_555
C25_6 C23_6 1_555 1_555
C26_6 C25_6 1_555 1_555
H19_6 C26_6 1_555 1_555
C27_6 C3_6 1_555 1_555
C28_6 C27_6 1_555 1_555
H20_6 C28_6 1_555 1_555
C29_6 C24_6 1_555 1_555
C38_6 O9_6 1_555 1_555
C39_6 H28_6 1_555 1_555
H29_6 C39_6 1_555 1_555
H30_6 C39_6 1_555 1_555
C41_6 C40_6 1_555 1_555
H31_6 C41_6 1_555 1_555
C42_6 C41_6 1_555 1_555
C43_6 C42_6 1_555 1_555
H32_6 C43_6 1_555 1_555
C44_6 C39_6 1_555 1_555
C46_6 C38_6 1_555 1_555
H33_6 C46_6 1_555 1_555
H34_6 C46_6 1_555 1_555
H35_6 C46_6 1_555 1_555
C48_6 C42_6 1_555 1_555
H39_6 C48_6 1_555 1_555
H40_6 C48_6 1_555 1_555
H41_6 C48_6 1_555 1_555
C49_6 O10_6 1_555 1_555
H42_6 C49_6 1_555 1_555
H43_6 C49_6 1_555 1_555
H44_6 C49_6 1_555 1_555
Ca7_6 O9_6 1_555 1_555
O17_6 Ca6 1_555 1_555
O12_6 C38_6 1_555 1_555
C24_6 C25_6 1_555 1_555
C26_6 C27_6 1_555 1_555
C28_6 C29_6 1_555 1_555
C40_6 C45_6 1_555 1_555
C43_6 C44_6 1_555 1_555
C44_6 C45_6 1_555 1_555
Ca7_6 O17_6 1_555 1_555
O11_6 H45_6 1_555 1_555
O11_6 H46_6 1_555 1_555
Ca1_2 O7_7 1_555 1_555
Ca7 O2_7 1_555 1_555
P1_7 O1_7 1_555 1_555
O2_7 P1_7 1_555 1_555
O3_7 P1_7 1_555 1_555
O7_7 P1_7 1_555 1_555
O10_7 Ca1_2 1_555 1_555
O11_7 Ca7 1_555 1_555
O12_7 Ca7 1_555 1_555
C3_7 H4_7 1_555 1_555
H5_7 C3_7 1_555 1_555
H6_6 C3_7 1_555 1_555
C23_7 H16_7 1_555 1_555
H17_7 C23_7 1_555 1_555
H18_7 C23_7 1_555 1_555
C25_7 C23_7 1_555 1_555
C26_7 C25_7 1_555 1_555
H19_7 C26_7 1_555 1_555
C27_7 C3_7 1_555 1_555
C28_7 C27_7 1_555 1_555
H20_7 C28_7 1_555 1_555
C29_7 C24_7 1_555 1_555
C38_7 O17 1_555 1_555
C46_7 C38_7 1_555 1_555
H33_7 C46_7 1_555 1_555
H34_7 C46_7 1_555 1_555
H35_7 C46_7 1_555 1_555
O13_6 Ca7 1_555 1_555
O15_2 Ca1_2 1_555 1_555
O16_6 Ca1_2 1_555 1_555
Ca7 O15_2 1_555 1_555
O12_7 C38_7 1_555 1_555
C24_7 C25_7 1_555 1_555
C26_7 C27_7 1_555 1_555
C28_7 C29_7 1_555 1_555
O11_7 H45_7 1_555 1_555
O11_7 H46_7 1_555 1_555
C39_7 H28_7 1_555 1_555
H29_7 C39_7 1_555 1_555
H30_7 C39_7 1_555 1_555
C41_7 C40_7 1_555 1_555
H31_7 C41_7 1_555 1_555
C42_7 C41_7 1_555 1_555
C43_7 C42_7 1_555 1_555
H32_7 C43_7 1_555 1_555
C44_7 C39_7 1_555 1_555
C48_7 C42_7 1_555 1_555
H39_7 C48_7 1_555 1_555
H40_7 C48_7 1_555 1_555
H41_7 C48_7 1_555 1_555
H43_7 C49_7 1_555 1_555
H44_7 C49_7 1_555 1_555
C40_7 C45_7 1_555 1_555
C43_7 C44_7 1_555 1_555
C44_7 C45_7 1_555 1_555
O5_6 C2_8 1_555 1_555
O6_6 C2_8 1_555 1_555
C2_8 C18_7 1_555 1_555
C4_7 C5_7 1_555 1_555
C5_7 C6_7 1_555 1_555
C6_7 C7_7 1_555 1_555
C7_7 C8_7 1_555 1_555
C8_7 C9_7 1_555 1_555
C9_7 C4_7 1_555 1_555
H7_7 C9_7 1_555 1_555
C17_7 H12_7 1_555 1_555
C18_7 C17_7 1_555 1_555
C19_7 C18_7 1_555 1_555
H13_7 C19_7 1_555 1_555
C20_7 C19_7 1_555 1_555
H14_7 C20_7 1_555 1_555
C21_7 C4_7 1_555 1_555
C22_7 C17_7 1_555 1_555
H15_7 C22_7 1_555 1_555
C30_7 H21_7 1_555 1_555
H22_7 C30_7 1_555 1_555
H23_7 C30_7 1_555 1_555
C31_7 C6_7 1_555 1_555
C32_7 C30_7 1_555 1_555
C37_7 C5_7 1_555 1_555
H25_7 C37_7 1_555 1_555
H26_7 C37_7 1_555 1_555
H27_7 C37_7 1_555 1_555
H36_7 C47_7 1_555 1_555
H37_7 C47_7 1_555 1_555
H38_7 C47_7 1_555 1_555
Ca3_5 O5_6 1_555 1_555
Ca7_6 O6_6 1_555 1_555
O6_6 Ca3_5 1_555 1_555
C20_7 C21_7 1_555 1_555
C21_7 C22_7 1_555 1_555
C31_7 C32_7 1_555 1_555
C31_7 C36_7 1_555 1_555
O4_2 C16_7 1_555 1_555
O8_2 C16_7 1_555 1_555
C1_7 H1_7 1_555 1_555
H3_7 C1_7 1_555 1_555
C10_7 H8_7 1_555 1_555
C11_7 C10_7 1_555 1_555
H9_7 C11_7 1_555 1_555
C12_7 C11_7 1_555 1_555
C13_7 C12_7 1_555 1_555
H10_7 C13_7 1_555 1_555
C14_7 C13_7 1_555 1_555
H11_7 C14_7 1_555 1_555
C15_7 C10_7 1_555 1_555
C16_7 C12_7 1_555 1_555
C33_7 C15_7 1_555 1_555
C34_7 C33_7 1_555 1_555
H24_7 C34_7 1_555 1_555
C35_7 C34_7 1_555 1_555
Ca4_2 O8_2 1_555 1_555
Ca7_2 O4_2 1_555 1_555
C14_7 C15_7 1_555 1_555
Ca4_2 O7_8 1_555 1_555
Ca7_2 O2_8 1_555 1_555
P1_8 O1_8 1_555 1_555
O2_8 P1_8 1_555 1_555
O3_8 P1_8 1_555 1_555
O7_8 P1_8 1_555 1_555
O10_8 Ca4_2 1_555 1_555
O11_8 Ca7_2 1_555 1_555
O12_8 Ca7_2 1_555 1_555
C3_8 H4_8 1_555 1_555
H5_8 C3_8 1_555 1_555
C23_8 H16_8 1_555 1_555
H17_8 C23_8 1_555 1_555
H18_8 C23_8 1_555 1_555
C25_8 C23_8 1_555 1_555
C26_8 C25_8 1_555 1_555
H19_8 C26_8 1_555 1_555
C27_8 C3_8 1_555 1_555
C28_8 C27_8 1_555 1_555
H20_8 C28_8 1_555 1_555
C29_8 C24_8 1_555 1_555
C38_8 O17_2 1_555 1_555
C39_8 H28_8 1_555 1_555
H29_8 C39_8 1_555 1_555
H30_8 C39_8 1_555 1_555
C41_8 C40_8 1_555 1_555
H31_8 C41_8 1_555 1_555
C42_8 C41_8 1_555 1_555
C43_8 C42_8 1_555 1_555
H32_8 C43_8 1_555 1_555
C44_8 C39_8 1_555 1_555
C46_8 C38_8 1_555 1_555
H33_8 C46_8 1_555 1_555
H34_8 C46_8 1_555 1_555
H35_8 C46_8 1_555 1_555
C48_8 C42_8 1_555 1_555
H39_8 C48_8 1_555 1_555
H40_8 C48_8 1_555 1_555
H41_8 C48_8 1_555 1_555
C49_8 O10_8 1_555 1_555
H42_8 C49_8 1_555 1_555
H43_8 C49_8 1_555 1_555
H44_8 C49_8 1_555 1_555
O14_3 Ca4_2 1_555 1_555
O15_3 Ca4_2 1_555 1_555
Ca7_2 O15_3 1_555 1_555
O12_8 C38_8 1_555 1_555
C24_8 C25_8 1_555 1_555
C26_8 C27_8 1_555 1_555
C28_8 C29_8 1_555 1_555
C40_8 C45_8 1_555 1_555
C43_8 C44_8 1_555 1_555
C44_8 C45_8 1_555 1_555
O11_8 H45_8 1_555 1_555
O11_8 H46_8 1_555 1_555
O15_2 C2_9 1_555 1_555
O4_3 C16_8 1_555 1_555
O14_2 C2_10 1_555 1_555
O8_3 C16_8 1_555 1_555
C1_8 H1_8 1_555 1_555
H2_8 C1_8 1_555 1_555
H3_8 C1_8 1_555 1_555
C2_10 C18_8 1_555 1_555
C4_8 C5_8 1_555 1_555
C5_8 C6_8 1_555 1_555
C6_8 C7_8 1_555 1_555
C7_8 C8_8 1_555 1_555
C8_8 C9_8 1_555 1_555
C9_8 C4_8 1_555 1_555
H7_8 C9_8 1_555 1_555
C10_8 H8_8 1_555 1_555
C11_8 C10_8 1_555 1_555
H9_8 C11_8 1_555 1_555
C12_8 C11_8 1_555 1_555
C13_8 C12_8 1_555 1_555
H10_8 C13_8 1_555 1_555
C14_8 C13_8 1_555 1_555
H11_8 C14_8 1_555 1_555
C15_8 C10_8 1_555 1_555
C16_8 C12_8 1_555 1_555
C18_8 C17_8 1_555 1_555
C19_8 C18_8 1_555 1_555
H13_8 C19_8 1_555 1_555
C20_8 C19_8 1_555 1_555
H14_8 C20_8 1_555 1_555
C21_8 C4_8 1_555 1_555
C22_8 C17_8 1_555 1_555
H15_8 C22_8 1_555 1_555
C30_8 H21_8 1_555 1_555
H22_8 C30_8 1_555 1_555
H23_8 C30_8 1_555 1_555
C31_8 C6_8 1_555 1_555
C32_8 C30_8 1_555 1_555
C33_8 C15_8 1_555 1_555
C34_8 C33_8 1_555 1_555
H24_8 C34_8 1_555 1_555
C35_8 C34_8 1_555 1_555
C37_8 C5_8 1_555 1_555
H25_8 C37_8 1_555 1_555
H26_8 C37_8 1_555 1_555
H27_8 C37_8 1_555 1_555
H36_8 C47_8 1_555 1_555
H37_8 C47_8 1_555 1_555
H38_8 C47_8 1_555 1_555
Ca4_3 O8_3 1_555 1_555
Ca7_3 O4_3 1_555 1_555
C14_8 C15_8 1_555 1_555
C20_8 C21_8 1_555 1_555
C21_8 C22_8 1_555 1_555
C31_8 C32_8 1_555 1_555
C31_8 C36_8 1_555 1_555
C32_8 C33_8 1_555 1_555
C35_8 C36_8 1_555 1_555
Ca4_3 O7_9 1_555 1_555
Ca7_3 O2_9 1_555 1_555
P1_9 O1_9 1_555 1_555
O1_9 C7_9 1_555 1_555
O2_9 P1_9 1_555 1_555
O3_9 P1_9 1_555 1_555
O4_4 C16_9 1_555 1_555
O14_3 C2_11 1_555 1_555
O15_3 C2_11 1_555 1_555
O7_9 P1_9 1_555 1_555
O8_4 C16_9 1_555 1_555
O10_9 Ca4_3 1_555 1_555
O11_9 Ca7_3 1_555 1_555
O12_9 Ca7_3 1_555 1_555
C1_9 H1_9 1_555 1_555
H2_9 C1_9 1_555 1_555
H3_9 C1_9 1_555 1_555
C2_11 C18_9 1_555 1_555
C3_9 H4_9 1_555 1_555
H5_9 C3_9 1_555 1_555
H6_7 C3_9 1_555 1_555
C4_9 C5_9 1_555 1_555
C5_9 C6_9 1_555 1_555
C6_9 C7_9 1_555 1_555
C7_9 C8_9 1_555 1_555
C8_9 C9_9 1_555 1_555
C9_9 C4_9 1_555 1_555
H7_9 C9_9 1_555 1_555
C10_9 H8_9 1_555 1_555
C11_9 C10_9 1_555 1_555
H9_9 C11_9 1_555 1_555
C12_9 C11_9 1_555 1_555
C13_9 C12_9 1_555 1_555
H10_9 C13_9 1_555 1_555
C14_9 C13_9 1_555 1_555
H11_9 C14_9 1_555 1_555
C15_9 C10_9 1_555 1_555
C16_9 C12_9 1_555 1_555
C17_9 H12_9 1_555 1_555
C18_9 C17_9 1_555 1_555
C19_9 C18_9 1_555 1_555
H13_9 C19_9 1_555 1_555
C20_9 C19_9 1_555 1_555
H14_9 C20_9 1_555 1_555
C21_9 C4_9 1_555 1_555
C22_9 C17_9 1_555 1_555
H15_9 C22_9 1_555 1_555
C23_9 H16_9 1_555 1_555
H17_9 C23_9 1_555 1_555
H18_9 C23_9 1_555 1_555
C24_9 C8_9 1_555 1_555
C25_9 C23_9 1_555 1_555
C26_9 C25_9 1_555 1_555
H19_9 C26_9 1_555 1_555
C27_9 C3_9 1_555 1_555
C28_9 C27_9 1_555 1_555
H20_9 C28_9 1_555 1_555
C29_9 C24_9 1_555 1_555
C30_9 H21_9 1_555 1_555
H22_9 C30_9 1_555 1_555
H23_9 C30_9 1_555 1_555
C31_9 C6_9 1_555 1_555
C32_9 C30_9 1_555 1_555
C33_9 C15_9 1_555 1_555
C34_9 C33_9 1_555 1_555
H24_9 C34_9 1_555 1_555
C35_9 C34_9 1_555 1_555
C36_9 O3_9 1_555 1_555
C37_9 C5_9 1_555 1_555
H25_9 C37_9 1_555 1_555
H26_9 C37_9 1_555 1_555
H27_9 C37_9 1_555 1_555
C38_9 O17_3 1_555 1_555
C39_9 H28_9 1_555 1_555
H29_9 C39_9 1_555 1_555
H30_9 C39_9 1_555 1_555
C40_9 C1_9 1_555 1_555
C41_9 C40_9 1_555 1_555
H31_9 C41_9 1_555 1_555
C42_9 C41_9 1_555 1_555
C43_9 C42_9 1_555 1_555
H32_9 C43_9 1_555 1_555
C44_9 C39_9 1_555 1_555
C45_9 C35_9 1_555 1_555
C46_9 C38_9 1_555 1_555
H33_9 C46_9 1_555 1_555
H34_9 C46_9 1_555 1_555
H35_9 C46_9 1_555 1_555
C47_9 C29_9 1_555 1_555
H36_9 C47_9 1_555 1_555
H37_9 C47_9 1_555 1_555
H38_9 C47_9 1_555 1_555
C48_9 C42_9 1_555 1_555
H39_9 C48_9 1_555 1_555
H40_9 C48_9 1_555 1_555
H41_9 C48_9 1_555 1_555
C49_9 O10_9 1_555 1_555
H42_9 C49_9 1_555 1_555
H43_9 C49_9 1_555 1_555
H44_9 C49_9 1_555 1_555
Ca4_4 O8_4 1_555 1_555
Ca7_4 O4_4 1_555 1_555
O14_4 Ca4_3 1_555 1_555
O15_4 Ca4_3 1_555 1_555
Ca7_3 O15_4 1_555 1_555
O12_9 C38_9 1_555 1_555
C14_9 C15_9 1_555 1_555
C20_9 C21_9 1_555 1_555
C21_9 C22_9 1_555 1_555
C24_9 C25_9 1_555 1_555
C26_9 C27_9 1_555 1_555
C28_9 C29_9 1_555 1_555
C31_9 C32_9 1_555 1_555
C31_9 C36_9 1_555 1_555
C32_9 C33_9 1_555 1_555
C35_9 C36_9 1_555 1_555
C40_9 C45_9 1_555 1_555
C43_9 C44_9 1_555 1_555
C44_9 C45_9 1_555 1_555
O11_9 H45_9 1_555 1_555
O11_9 H46_9 1_555 1_555
O4_5 C16_10 1_555 1_555
O14_4 C2_12 1_555 1_555
O15_4 C2_12 1_555 1_555
O8_5 C16_10 1_555 1_555
C1_10 H1_10 1_555 1_555
H2_10 C1_10 1_555 1_555
H3_10 C1_10 1_555 1_555
C2_12 C18_10 1_555 1_555
C4_10 C5_10 1_555 1_555
C5_10 C6_10 1_555 1_555
C6_10 C7_10 1_555 1_555
C7_10 C8_10 1_555 1_555
C8_10 C9_10 1_555 1_555
C9_10 C4_10 1_555 1_555
H7_10 C9_10 1_555 1_555
C10_10 H8_10 1_555 1_555
C11_10 C10_10 1_555 1_555
H9_10 C11_10 1_555 1_555
C12_10 C11_10 1_555 1_555
C13_10 C12_10 1_555 1_555
H10_10 C13_10 1_555 1_555
C14_10 C13_10 1_555 1_555
H11_10 C14_10 1_555 1_555
C15_10 C10_10 1_555 1_555
C16_10 C12_10 1_555 1_555
C17_10 H12_10 1_555 1_555
C18_10 C17_10 1_555 1_555
C19_10 C18_10 1_555 1_555
H13_10 C19_10 1_555 1_555
C20_10 C19_10 1_555 1_555
H14_10 C20_10 1_555 1_555
C21_10 C4_10 1_555 1_555
C22_10 C17_10 1_555 1_555
H15_10 C22_10 1_555 1_555
C30_10 H21_10 1_555 1_555
H22_10 C30_10 1_555 1_555
H23_10 C30_10 1_555 1_555
C31_10 C6_10 1_555 1_555
C32_10 C30_10 1_555 1_555
C33_10 C15_10 1_555 1_555
C34_10 C33_10 1_555 1_555
H24_10 C34_10 1_555 1_555
C35_10 C34_10 1_555 1_555
C37_10 C5_10 1_555 1_555
H25_10 C37_10 1_555 1_555
H26_10 C37_10 1_555 1_555
H27_10 C37_10 1_555 1_555
H36_10 C47_10 1_555 1_555
H37_10 C47_10 1_555 1_555
H38_10 C47_10 1_555 1_555
Ca4_5 O8_5 1_555 1_555
Ca7_5 O4_5 1_555 1_555
C14_10 C15_10 1_555 1_555
C20_10 C21_10 1_555 1_555
C21_10 C22_10 1_555 1_555
C31_10 C32_10 1_555 1_555
C31_10 C36_10 1_555 1_555
C32_10 C33_10 1_555 1_555
C35_10 C36_10 1_555 1_555
Ca4_4 O7_10 1_555 1_555
Ca7_4 O2_10 1_555 1_555
P1_10 O1_10 1_555 1_555
O2_10 P1_10 1_555 1_555
O3_10 P1_10 1_555 1_555
O7_10 P1_10 1_555 1_555
O10_10 Ca4_4 1_555 1_555
O11_10 Ca7_4 1_555 1_555
O12_10 Ca7_4 1_555 1_555
C3_10 H4_10 1_555 1_555
H5_10 C3_10 1_555 1_555
H6_8 C3_10 1_555 1_555
C23_10 H16_10 1_555 1_555
H17_10 C23_10 1_555 1_555
H18_10 C23_10 1_555 1_555
C25_10 C23_10 1_555 1_555
C26_10 C25_10 1_555 1_555
H19_10 C26_10 1_555 1_555
C27_10 C3_10 1_555 1_555
C28_10 C27_10 1_555 1_555
H20_10 C28_10 1_555 1_555
C29_10 C24_10 1_555 1_555
C38_10 O17_4 1_555 1_555
C39_10 H28_10 1_555 1_555
H29_10 C39_10 1_555 1_555
H30_10 C39_10 1_555 1_555
C41_10 C40_10 1_555 1_555
H31_10 C41_10 1_555 1_555
C42_10 C41_10 1_555 1_555
C43_10 C42_10 1_555 1_555
H32_10 C43_10 1_555 1_555
C44_10 C39_10 1_555 1_555
C46_10 C38_10 1_555 1_555
H33_10 C46_10 1_555 1_555
H34_10 C46_10 1_555 1_555
H35_10 C46_10 1_555 1_555
C48_10 C42_10 1_555 1_555
H39_10 C48_10 1_555 1_555
H40_10 C48_10 1_555 1_555
H41_10 C48_10 1_555 1_555
C49_10 O10_10 1_555 1_555
H42_10 C49_10 1_555 1_555
H43_10 C49_10 1_555 1_555
H44_10 C49_10 1_555 1_555
O14_5 Ca4_4 1_555 1_555
O15_5 Ca4_4 1_555 1_555
Ca7_4 O15_5 1_555 1_555
O12_10 C38_10 1_555 1_555
C24_10 C25_10 1_555 1_555
C26_10 C27_10 1_555 1_555
C28_10 C29_10 1_555 1_555
C40_10 C45_10 1_555 1_555
C43_10 C44_10 1_555 1_555
C44_10 C45_10 1_555 1_555
O11_10 H45_10 1_555 1_555
O11_10 H46_10 1_555 1_555
O4_6 C16_11 1_555 1_555
O14_5 C2_13 1_555 1_555
O15_5 C2_13 1_555 1_555
O8_6 C16_11 1_555 1_555
C1_11 H1_11 1_555 1_555
H2_11 C1_11 1_555 1_555
H3_11 C1_11 1_555 1_555
C2_13 C18_11 1_555 1_555
C4_11 C5_11 1_555 1_555
C5_11 C6_11 1_555 1_555
C6_11 C7_11 1_555 1_555
C7_11 C8_11 1_555 1_555
C8_11 C9_11 1_555 1_555
C9_11 C4_11 1_555 1_555
H7_11 C9_11 1_555 1_555
C10_11 H8_11 1_555 1_555
C11_11 C10_11 1_555 1_555
H9_11 C11_11 1_555 1_555
C12_11 C11_11 1_555 1_555
C13_11 C12_11 1_555 1_555
H10_11 C13_11 1_555 1_555
C14_11 C13_11 1_555 1_555
H11_11 C14_11 1_555 1_555
C15_11 C10_11 1_555 1_555
C16_11 C12_11 1_555 1_555
C17_11 H12_11 1_555 1_555
C18_11 C17_11 1_555 1_555
C19_11 C18_11 1_555 1_555
H13_11 C19_11 1_555 1_555
C20_11 C19_11 1_555 1_555
H14_11 C20_11 1_555 1_555
C21_11 C4_11 1_555 1_555
C22_11 C17_11 1_555 1_555
H15_11 C22_11 1_555 1_555
C30_11 H21_11 1_555 1_555
H22_11 C30_11 1_555 1_555
H23_11 C30_11 1_555 1_555
C31_11 C6_11 1_555 1_555
C32_11 C30_11 1_555 1_555
C33_11 C15_11 1_555 1_555
C34_11 C33_11 1_555 1_555
H24_11 C34_11 1_555 1_555
C35_11 C34_11 1_555 1_555
C37_11 C5_11 1_555 1_555
H25_11 C37_11 1_555 1_555
H26_11 C37_11 1_555 1_555
H27_11 C37_11 1_555 1_555
H36_11 C47_11 1_555 1_555
H37_11 C47_11 1_555 1_555
H38_11 C47_11 1_555 1_555
Ca3_5 O8_6 1_555 1_555
Ca7_6 O4_6 1_555 1_555
C14_11 C15_11 1_555 1_555
C20_11 C21_11 1_555 1_555
C21_11 C22_11 1_555 1_555
C31_11 C32_11 1_555 1_555
C31_11 C36_11 1_555 1_555
C32_11 C33_11 1_555 1_555
C35_11 C36_11 1_555 1_555
Ca4_5 O7_11 1_555 1_555
Ca7_5 O2_11 1_555 1_555
P1_11 O1_11 1_555 1_555
O2_11 P1_11 1_555 1_555
O3_11 P1_11 1_555 1_555
O7_11 P1_11 1_555 1_555
O10_11 Ca4_5 1_555 1_555
O11_11 Ca7_5 1_555 1_555
O12_11 Ca7_5 1_555 1_555
C3_11 H4_11 1_555 1_555
H5_11 C3_11 1_555 1_555
H6_9 C3_11 1_555 1_555
C23_11 H16_11 1_555 1_555
H17_11 C23_11 1_555 1_555
H18_11 C23_11 1_555 1_555
C25_11 C23_11 1_555 1_555
C26_11 C25_11 1_555 1_555
H19_11 C26_11 1_555 1_555
C27_11 C3_11 1_555 1_555
C28_11 C27_11 1_555 1_555
H20_11 C28_11 1_555 1_555
C29_11 C24_11 1_555 1_555
C38_11 O17_5 1_555 1_555
C39_11 H28_11 1_555 1_555
H29_11 C39_11 1_555 1_555
H30_11 C39_11 1_555 1_555
C41_11 C40_11 1_555 1_555
H31_11 C41_11 1_555 1_555
C42_11 C41_11 1_555 1_555
C43_11 C42_11 1_555 1_555
H32_11 C43_11 1_555 1_555
C44_11 C39_11 1_555 1_555
C46_11 C38_11 1_555 1_555
H33_11 C46_11 1_555 1_555
H34_11 C46_11 1_555 1_555
H35_11 C46_11 1_555 1_555
C48_11 C42_11 1_555 1_555
H39_11 C48_11 1_555 1_555
H40_11 C48_11 1_555 1_555
H41_11 C48_11 1_555 1_555
C49_11 O10_11 1_555 1_555
H42_11 C49_11 1_555 1_555
H43_11 C49_11 1_555 1_555
H44_11 C49_11 1_555 1_555
O14_6 Ca4_5 1_555 1_555
O15_6 Ca4_5 1_555 1_555
Ca7_5 O15_6 1_555 1_555
O12_11 C38_11 1_555 1_555
C24_11 C25_11 1_555 1_555
C26_11 C27_11 1_555 1_555
C28_11 C29_11 1_555 1_555
C40_11 C45_11 1_555 1_555
C43_11 C44_11 1_555 1_555
C44_11 C45_11 1_555 1_555
O11_11 H45_11 1_555 1_555
O11_11 H46_11 1_555 1_555
Ca3_5 O7_12 1_555 1_555
Ca7_6 O2_12 1_555 1_555
P1_12 O1_12 1_555 1_555
O1_12 C7_12 1_555 1_555
O2_12 P1_12 1_555 1_555
O3_12 P1_12 1_555 1_555
O13_6 C16_12 1_555 1_555
O14_6 C2_14 1_555 1_555
O15_6 C2_14 1_555 1_555
O7_12 P1_12 1_555 1_555
O16_6 C16_12 1_555 1_555
O10_12 Ca3_5 1_555 1_555
O11_12 Ca7_6 1_555 1_555
O12_12 Ca7_6 1_555 1_555
C1_12 H1_12 1_555 1_555
H2_12 C1_12 1_555 1_555
H3_12 C1_12 1_555 1_555
C2_14 C18_12 1_555 1_555
C3_12 H4_12 1_555 1_555
H5_12 C3_12 1_555 1_555
H6_10 C3_12 1_555 1_555
C4_12 C5_12 1_555 1_555
C5_12 C6_12 1_555 1_555
C6_12 C7_12 1_555 1_555
C7_12 C8_12 1_555 1_555
C8_12 C9_12 1_555 1_555
C9_12 C4_12 1_555 1_555
H7_12 C9_12 1_555 1_555
C10_12 H8_12 1_555 1_555
C11_12 C10_12 1_555 1_555
H9_12 C11_12 1_555 1_555
C12_12 C11_12 1_555 1_555
C13_12 C12_12 1_555 1_555
H10_12 C13_12 1_555 1_555
C14_12 C13_12 1_555 1_555
H11_12 C14_12 1_555 1_555
C15_12 C10_12 1_555 1_555
C16_12 C12_12 1_555 1_555
C17_12 H12_12 1_555 1_555
C18_12 C17_12 1_555 1_555
C19_12 C18_12 1_555 1_555
H13_12 C19_12 1_555 1_555
C20_12 C19_12 1_555 1_555
H14_12 C20_12 1_555 1_555
C21_12 C4_12 1_555 1_555
C22_12 C17_12 1_555 1_555
H15_12 C22_12 1_555 1_555
C23_12 H16_12 1_555 1_555
H17_12 C23_12 1_555 1_555
H18_12 C23_12 1_555 1_555
C24_12 C8_12 1_555 1_555
C25_12 C23_12 1_555 1_555
C26_12 C25_12 1_555 1_555
H19_12 C26_12 1_555 1_555
C27_12 C3_12 1_555 1_555
C28_12 C27_12 1_555 1_555
H20_12 C28_12 1_555 1_555
C29_12 C24_12 1_555 1_555
C30_12 H21_12 1_555 1_555
H22_12 C30_12 1_555 1_555
H23_12 C30_12 1_555 1_555
C31_12 C6_12 1_555 1_555
C32_12 C30_12 1_555 1_555
C33_12 C15_12 1_555 1_555
C34_12 C33_12 1_555 1_555
H24_12 C34_12 1_555 1_555
C35_12 C34_12 1_555 1_555
C36_12 O3_12 1_555 1_555
C37_12 C5_12 1_555 1_555
H25_12 C37_12 1_555 1_555
H26_12 C37_12 1_555 1_555
H27_12 C37_12 1_555 1_555
C38_12 O17_6 1_555 1_555
C39_12 H28_12 1_555 1_555
H29_12 C39_12 1_555 1_555
H30_12 C39_12 1_555 1_555
C40_12 C1_12 1_555 1_555
C41_12 C40_12 1_555 1_555
H31_12 C41_12 1_555 1_555
C42_12 C41_12 1_555 1_555
C43_12 C42_12 1_555 1_555
H32_12 C43_12 1_555 1_555
C44_12 C39_12 1_555 1_555
C45_12 C35_12 1_555 1_555
C46_12 C38_12 1_555 1_555
H33_12 C46_12 1_555 1_555
H34_12 C46_12 1_555 1_555
H35_12 C46_12 1_555 1_555
C47_12 C29_12 1_555 1_555
H36_12 C47_12 1_555 1_555
H37_12 C47_12 1_555 1_555
H38_12 C47_12 1_555 1_555
C48_12 C42_12 1_555 1_555
H39_12 C48_12 1_555 1_555
H40_12 C48_12 1_555 1_555
H41_12 C48_12 1_555 1_555
C49_12 O10_12 1_555 1_555
H42_12 C49_12 1_555 1_555
H43_12 C49_12 1_555 1_555
H44_12 C49_12 1_555 1_555
O12_12 C38_12 1_555 1_555
C14_12 C15_12 1_555 1_555
C20_12 C21_12 1_555 1_555
C21_12 C22_12 1_555 1_555
C24_12 C25_12 1_555 1_555
C26_12 C27_12 1_555 1_555
C28_12 C29_12 1_555 1_555
C31_12 C32_12 1_555 1_555
C31_12 C36_12 1_555 1_555
C32_12 C33_12 1_555 1_555
C35_12 C36_12 1_555 1_555
C40_12 C45_12 1_555 1_555
C43_12 C44_12 1_555 1_555
C44_12 C45_12 1_555 1_555
O11_12 H45_12 1_555 1_555
O11_12 H46_12 1_555 1_555

#END
