
###############################################################################
#
# This file contains modified crystal structure data generated from the
# MOF subset of the Cambridge Structural Database (CSD) v543 
# hosted by the Cambridge Crystallographic Data Centre (CCDC).
#
# This work is licensed under the Creative Commons
# Attribution-NonCommercial-ShareAlike 4.0 International License.
# To view a copy of this license, visit
# http://creativecommons.org/licenses/by-nc-sa/4.0/
# or send a letter to
# Creative Commons, PO Box 1866, Mountain View, CA 94042, USA.
#
# CIF created using the CSD Python API on 29 September 2022
# The structure has been converted into the P1 space group
# The structure has a 3D framework
# The original CSD entry TUWRUB is in the monoclinic crystal system
# The framework has been calculated to contain at least 10.0% void space
# The void calculation uses a probe of radius 1.32A, grid spacing 0.4
#
###############################################################################

data_TUWRUB
_chemical_formula_moiety         '(C158 H148 Cl2 Mn8 N24 O16 Rh2)n'
_symmetry_cell_setting           triclinic
_symmetry_space_group_name_H-M   'P 1'
_symmetry_Int_Tables_number      1
_space_group_name_Hall           'P 1'
loop_
_symmetry_equiv_pos_site_id
_symmetry_equiv_pos_as_xyz
1 x,y,z
_cell_length_a                   12.288(3)
_cell_length_b                   32.624(7)
_cell_length_c                   12.928(3)
_cell_angle_alpha                90
_cell_angle_beta                 95.46(3)
_cell_angle_gamma                90
_cell_volume                     5159.11
loop_
_atom_site_label
_atom_site_type_symbol
_atom_site_fract_x
_atom_site_fract_y
_atom_site_fract_z
Cl1 Cl 0.6360(9) 0.7500 0.1522(7)
Cl1_2 Cl 0.3640(9) 0.2500 0.8478(7)
Mn2 Mn -0.0000 0.5000 0.5000
O11 O 0.0299(4) 0.4439(2) 0.5961(3)
O12 O 0.0608(4) 0.37761(18) 0.5857(4)
Mn7 Mn 0.20338(8) 0.42994(3) 0.59563(7)
Mn10 Mn -0.0000 -0.0000 0.5000
O13 O 0.0854(6) 0.4738(2) 0.3803(4)
O19 O 0.1362(5) 0.52745(18) 0.5837(5)
Mn10_2 Mn 0.0000 1.0000 0.5000
C1 C 0.7112(6) 0.6515(2) 0.2726(6)
H1 H 0.7715 0.6569 0.3273
H2 H 0.6913 0.6779 0.2380
N1 N 0.7502(5) 0.6236(2) 0.1966(5)
N2 N 0.7992(4) 0.5886(2) 0.2321(4)
C2 C 0.8251(6) 0.5689(3) 0.1500(6)
C3 C 0.7957(6) 0.5923(3) 0.0605(6)
C4 C 0.7475(6) 0.6258(3) 0.0932(7)
C5 C 0.8824(8) 0.5293(3) 0.1606(6)
H3 H 0.9521 0.5313 0.1299
H4 H 0.8371 0.5080 0.1246
H5 H 0.8961 0.5223 0.2344
C6 C 0.7012(10) 0.6604(3) 0.0346(7)
H6 H 0.6237 0.6631 0.0456
H8 H 0.7401 0.6855 0.0580
N3 N 0.6186(4) 0.63631(19) 0.3207(4)
N4 N 0.6395(5) 0.60369(19) 0.3871(5)
C14 C 0.5415(6) 0.5914(3) 0.4113(6)
C15 C 0.4589(7) 0.6168(3) 0.3612(6)
C16 C 0.5120(5) 0.6448(3) 0.3030(6)
C17 C 0.5315(6) 0.5564(3) 0.4817(7)
H13 H 0.5047 0.5324 0.4412
H14 H 0.4799 0.5632 0.5323
H15 H 0.6031 0.5502 0.5182
C18 C 0.4709(6) 0.6779(3) 0.2351(7)
H16 H 0.5009 0.7040 0.2621
H17 H 0.3909 0.6787 0.2321
H18 H 0.4930 0.6733 0.1652
C19 C 0.3387(6) 0.6135(3) 0.3665(6)
C20 C 0.2951(6) 0.5742(3) 0.3487(6)
H19 H 0.3391 0.5523 0.3282
C21 C 0.1839(7) 0.5684(3) 0.3621(6)
H20 H 0.1527 0.5419 0.3523
C22 C 0.1194(5) 0.6004(3) 0.3890(6)
C23 C 0.1650(6) 0.6372(3) 0.4045(7)
H21 H 0.1204 0.6595 0.4220
C24 C 0.2761(6) 0.6444(3) 0.3959(7)
H22 H 0.3069 0.6707 0.4107
C25 C 0.0059(6) 0.5938(4) 0.4049(5)
H55 H 0.2915 0.3439 0.0394
C59 C 0.1914(7) 0.4193(3) 0.0491(7)
C60 C 0.0898(10) 0.4331(4) 0.0716(8)
H57 H 0.0303 0.4361 0.0196
C61 C 0.0809(9) 0.4422(4) 0.1745(10)
H58 H 0.0126 0.4519 0.1934
C62 C 0.1675(5) 0.4378(3) 0.2532(6)
C63 C 0.2570(11) 0.4223(7) 0.2241(12)
H59 H 0.3181 0.4194 0.2744
C64 C 0.2678(13) 0.4099(5) 0.1223(12)
H60 H 0.3301 0.3948 0.1065
C65 C 0.1527(8) 0.4494(3) 0.3690(6)
O10 O 0.2061(4) 0.42710(18) 0.4326(4)
Mn5 Mn 0.79662(8) 0.57006(3) 0.40437(7)
N14 N 0.2008(4) 0.4114(2) 0.7679(4)
N16 N 0.3605(5) 0.39631(19) 0.6129(5)
O18 O 0.2721(5) 0.4866(2) 0.6374(4)
Mn2_2 Mn 1.0000 0.5000 0.5000
Rh1 Rh 0.2568(2) 0.2500 0.2769(3)
H7 H 0.7085 0.6561 0.9606
C7 C 0.8086(7) 0.5807(3) 0.9509(7)
C8 C 0.9102(10) 0.5669(4) 0.9284(8)
H9 H 0.9697 0.5639 0.9804
C9 C 0.9191(9) 0.5578(4) 0.8255(10)
H10 H 0.9874 0.5481 0.8066
C10 C 0.8325(5) 0.5622(3) 0.7468(6)
C11 C 0.7430(11) 0.5777(7) 0.7759(12)
H11 H 0.6819 0.5806 0.7256
C12 C 0.7322(13) 0.5901(5) 0.8777(12)
H12 H 0.6699 0.6052 0.8935
C13 C 0.8473(8) 0.5506(3) 0.6310(6)
O1 O 0.9146(6) 0.5262(2) 0.6197(4)
O2 O 0.7939(4) 0.57290(18) 0.5674(4)
C26 C 0.4173(14) 0.2500 0.0933(12)
H23 H 0.3401 0.2500 0.0631
H24 H 0.4652 0.2500 0.0360
N5 N 0.4386(12) 0.2846(3) 0.1575(11)
N6 N 0.3783(11) 0.2901(5) 0.2500(12)
C27 C 0.4194(9) 0.3214(4) 0.2883(11)
C28 C 0.5092(12) 0.3373(4) 0.2394(11)
C29 C 0.5141(11) 0.3125(4) 0.1648(9)
C30 C 0.3962(15) 0.3390(5) 0.4015(16)
H25 H 0.3258 0.3534 0.3960
H26 H 0.4546 0.3580 0.4264
H27 H 0.3940 0.3161 0.4506
C31 C 0.5921(12) 0.3121(5) 0.0820(12)
H28 H 0.5800 0.2873 0.0395
H29 H 0.6675 0.3122 0.1147
H30 H 0.5799 0.3364 0.0379
C32 C 0.5828(12) 0.3780(5) 0.2626(10)
C33 C 0.5471(9) 0.4144(4) 0.2461(9)
H31 H 0.4766 0.4186 0.2107
C34 C 0.6100(10) 0.4472(3) 0.2791(8)
H32 H 0.5824 0.4740 0.2649
C35 C 0.7090(8) 0.4431(3) 0.3307(6)
C36 C 0.7528(12) 0.4079(5) 0.3415(10)
H33 H 0.8257 0.4048 0.3723
C37 C 0.6865(14) 0.3717(5) 0.3042(15)
H34 H 0.7164 0.3448 0.3095
C38 C 0.7711(7) 0.4805(3) 0.3748(5)
O5 O 0.7279(5) 0.5134(2) 0.3626(4)
O6 O 0.8638(5) 0.47255(18) 0.4163(5)
C39 C 0.107(3) 0.2863(3) 0.220(2)
H35 H 0.1185 0.3124 0.1833
H36 H 0.0420 0.2707 0.1908
C40 C 0.128(3) 0.2863(3) 0.322(2)
H37 H 0.0742 0.2717 0.3608
H38 H 0.1500 0.3130 0.3534
N7 N 0.4386(12) 0.2154(3) 0.1575(11)
N8 N 0.3783(11) 0.2099(5) 0.2500(12)
C41 C 0.4194(9) 0.1786(4) 0.2883(11)
C42 C 0.5092(12) 0.1627(4) 0.2394(11)
C43 C 0.5141(11) 0.1875(4) 0.1648(9)
C44 C 0.3962(15) 0.1610(5) 0.4015(16)
H39 H 0.3258 0.1466 0.3960
H40 H 0.4546 0.1420 0.4264
H41 H 0.3940 0.1839 0.4506
C45 C 0.5921(12) 0.1879(5) 0.0820(12)
H42 H 0.5800 0.2127 0.0395
H43 H 0.6675 0.1878 0.1147
H44 H 0.5799 0.1636 0.0379
C46 C 0.5828(12) 0.1220(5) 0.2626(10)
C47 C 0.5471(9) 0.0856(4) 0.2461(9)
H45 H 0.4766 0.0814 0.2107
C48 C 0.6100(10) 0.0528(3) 0.2791(8)
H46 H 0.5824 0.0260 0.2649
C49 C 0.7090(8) 0.0569(3) 0.3307(6)
C50 C 0.7528(12) 0.0921(5) 0.3415(10)
H47 H 0.8257 0.0952 0.3723
C51 C 0.6865(14) 0.1283(5) 0.3042(15)
H48 H 0.7164 0.1552 0.3095
C52 C 0.7711(7) 0.0195(3) 0.3748(5)
O8 O 0.8638(5) 0.02745(18) 0.4163(5)
C53 C 0.2888(6) 0.3485(2) 0.7274(6)
H49 H 0.2285 0.3431 0.6727
H50 H 0.3087 0.3221 0.7620
N9 N 0.2498(5) 0.3764(2) 0.8034(5)
C54 C 0.1749(6) 0.4311(3) 0.8500(6)
C55 C 0.2043(6) 0.4077(3) 0.9395(6)
C56 C 0.2525(6) 0.3742(3) 0.9068(7)
C57 C 0.1176(8) 0.4707(3) 0.8394(6)
H51 H 0.0479 0.4687 0.8701
H52 H 0.1629 0.4920 0.8754
H53 H 0.1039 0.4777 0.7656
C58 C 0.2988(10) 0.3396(3) 0.9654(7)
H54 H 0.3763 0.3369 0.9544
H56 H 0.2599 0.3145 0.9420
N11 N 0.3814(4) 0.36369(19) 0.6793(4)
C66 C 0.4585(6) 0.4086(3) 0.5887(6)
C67 C 0.5411(7) 0.3832(3) 0.6388(6)
C68 C 0.4880(5) 0.3552(3) 0.6970(6)
C69 C 0.4685(6) 0.4436(3) 0.5183(7)
H61 H 0.4953 0.4676 0.5588
H62 H 0.5201 0.4368 0.4677
H63 H 0.3969 0.4498 0.4818
C70 C 0.5291(6) 0.3221(3) 0.7649(7)
H64 H 0.4991 0.2960 0.7379
H65 H 0.6091 0.3213 0.7679
H66 H 0.5070 0.3267 0.8348
C71 C 0.6613(6) 0.3865(3) 0.6335(6)
C72 C 0.7049(6) 0.4258(3) 0.6513(6)
H67 H 0.6609 0.4477 0.6718
C73 C 0.8161(7) 0.4316(3) 0.6379(6)
H68 H 0.8473 0.4581 0.6477
C74 C 0.8806(5) 0.3996(3) 0.6110(6)
C75 C 0.8350(6) 0.3628(3) 0.5955(7)
H69 H 0.8796 0.3405 0.5780
C76 C 0.7239(6) 0.3556(3) 0.6041(7)
H70 H 0.6931 0.3293 0.5893
C77 C 0.9941(6) 0.4062(4) 0.5951(5)
C78 C 0.107(3) 0.2137(3) 0.220(2)
H71 H 0.1185 0.1876 0.1833
H72 H 0.0420 0.2293 0.1908
C79 C 0.128(3) 0.2137(3) 0.322(2)
H73 H 0.0742 0.2283 0.3608
H74 H 0.1500 0.1870 0.3534
Mn10_3 Mn 1.0000 -0.0000 0.5000
O14 O 0.9701(4) 0.5561(2) 0.4039(3)
O16 O 0.9392(4) 0.62239(18) 0.4143(4)
O7 O 0.7279(5) 0.9866(2) 0.3626(4)
Mn8 Mn 0.79662(8) 0.92994(3) 0.40437(7)
Mn10_4 Mn 1.0000 1.0000 0.5000
O3 O 0.0299(4) 0.0561(2) 0.5961(3)
O4 O 0.0608(4) 0.12239(18) 0.5857(4)
Mn4 Mn 0.20338(8) 0.07006(3) 0.59563(7)
H7_2 H 0.2915 0.1561 0.0394
C7_2 C 0.1914(7) 0.0807(3) 0.0491(7)
C8_2 C 0.0898(10) 0.0669(4) 0.0716(8)
H9_2 H 0.0303 0.0639 0.0196
C9_2 C 0.0809(9) 0.0578(4) 0.1745(10)
H10_2 H 0.0126 0.0481 0.1934
C10_2 C 0.1675(5) 0.0622(3) 0.2532(6)
C11_2 C 0.2570(11) 0.0777(7) 0.2241(12)
H11_2 H 0.3181 0.0806 0.2744
C12_2 C 0.2678(13) 0.0901(5) 0.1223(12)
H12_2 H 0.3301 0.1052 0.1065
C13_2 C 0.1527(8) 0.0506(3) 0.3690(6)
O1_2 O 0.0854(6) 0.0262(2) 0.3803(4)
O2_2 O 0.2061(4) 0.07290(18) 0.4326(4)
O5_2 O 0.2721(5) 0.0134(2) 0.6374(4)
N13 N 0.2008(4) 0.0886(2) 0.7679(4)
N15 N 0.3605(5) 0.10369(19) 0.6129(5)
C1_2 C 0.2888(6) 0.1515(2) 0.7274(6)
H1_2 H 0.2285 0.1569 0.6727
H2_2 H 0.3087 0.1779 0.7620
N1_2 N 0.2498(5) 0.1236(2) 0.8034(5)
C2_2 C 0.1749(6) 0.0689(3) 0.8500(6)
C3_2 C 0.2043(6) 0.0923(3) 0.9395(6)
C4_2 C 0.2525(6) 0.1258(3) 0.9068(7)
C5_2 C 0.1176(8) 0.0293(3) 0.8394(6)
H3_2 H 0.0479 0.0313 0.8701
H4_2 H 0.1629 0.0080 0.8754
H5_2 H 0.1039 0.0223 0.7656
C6_2 C 0.2988(10) 0.1604(3) 0.9654(7)
H6_2 H 0.3763 0.1631 0.9544
H8_2 H 0.2599 0.1855 0.9420
N3_2 N 0.3814(4) 0.13631(19) 0.6793(4)
C14_2 C 0.4585(6) 0.0914(3) 0.5887(6)
C15_2 C 0.5411(7) 0.1168(3) 0.6388(6)
C16_2 C 0.4880(5) 0.1448(3) 0.6970(6)
C17_2 C 0.4685(6) 0.0564(3) 0.5183(7)
H13_2 H 0.4953 0.0324 0.5588
H14_2 H 0.5201 0.0632 0.4677
H15_2 H 0.3969 0.0502 0.4818
C18_2 C 0.5291(6) 0.1779(3) 0.7649(7)
H16_2 H 0.4991 0.2040 0.7379
H17_2 H 0.6091 0.1787 0.7679
H18_2 H 0.5070 0.1733 0.8348
C19_2 C 0.6613(6) 0.1135(3) 0.6335(6)
C20_2 C 0.7049(6) 0.0742(3) 0.6513(6)
H19_2 H 0.6609 0.0523 0.6718
C21_2 C 0.8161(7) 0.0684(3) 0.6379(6)
H20_2 H 0.8473 0.0419 0.6477
C22_2 C 0.8806(5) 0.1004(3) 0.6110(6)
C23_2 C 0.8350(6) 0.1372(3) 0.5955(7)
H21_2 H 0.8796 0.1595 0.5780
C24_2 C 0.7239(6) 0.1444(3) 0.6041(7)
H22_2 H 0.6931 0.1707 0.5893
C25_2 C 0.9941(6) 0.0938(4) 0.5951(5)
Rh1_2 Rh 0.7432(2) 0.7500 0.7231(3)
C26_2 C 0.5827(14) 0.7500 0.9067(12)
H23_2 H 0.6599 0.7500 0.9369
H24_2 H 0.5348 0.7500 0.9640
N5_2 N 0.5614(12) 0.7846(3) 0.8425(11)
N6_2 N 0.6217(11) 0.7901(5) 0.7500(12)
C27_2 C 0.5806(9) 0.8214(4) 0.7117(11)
C28_2 C 0.4908(12) 0.8373(4) 0.7606(11)
C29_2 C 0.4859(11) 0.8125(4) 0.8352(9)
C30_2 C 0.6038(15) 0.8390(5) 0.5985(16)
H25_2 H 0.6742 0.8534 0.6040
H26_2 H 0.5454 0.8580 0.5736
H27_2 H 0.6060 0.8161 0.5494
C31_2 C 0.4079(12) 0.8121(5) 0.9180(12)
H28_2 H 0.4200 0.7873 0.9605
H29_2 H 0.3325 0.8122 0.8853
H30_2 H 0.4201 0.8364 0.9621
C32_2 C 0.4172(12) 0.8780(5) 0.7374(10)
C33_2 C 0.4529(9) 0.9144(4) 0.7539(9)
H31_2 H 0.5234 0.9186 0.7893
C34_2 C 0.3900(10) 0.9472(3) 0.7209(8)
H32_2 H 0.4176 0.9740 0.7351
C35_2 C 0.2910(8) 0.9431(3) 0.6693(6)
C36_2 C 0.2472(12) 0.9079(5) 0.6585(10)
H33_2 H 0.1743 0.9048 0.6277
C37_2 C 0.3135(14) 0.8717(5) 0.6958(15)
H34_2 H 0.2836 0.8448 0.6905
C38_2 C 0.2289(7) 0.9805(3) 0.6252(5)
O6_2 O 0.1362(5) 0.97255(18) 0.5837(5)
C39_2 C 0.893(3) 0.7863(3) 0.780(2)
H35_2 H 0.8815 0.8124 0.8167
H36_2 H 0.9580 0.7707 0.8092
C40_2 C 0.872(3) 0.7863(3) 0.678(2)
H37_2 H 0.9258 0.7717 0.6392
H38_2 H 0.8500 0.8130 0.6466
N7_2 N 0.5614(12) 0.7154(3) 0.8425(11)
N8_2 N 0.6217(11) 0.7099(5) 0.7500(12)
C41_2 C 0.5806(9) 0.6786(4) 0.7117(11)
C42_2 C 0.4908(12) 0.6627(4) 0.7606(11)
C43_2 C 0.4859(11) 0.6875(4) 0.8352(9)
C44_2 C 0.6038(15) 0.6610(5) 0.5985(16)
H39_2 H 0.6742 0.6466 0.6040
H40_2 H 0.5454 0.6420 0.5736
H41_2 H 0.6060 0.6839 0.5494
C45_2 C 0.4079(12) 0.6879(5) 0.9180(12)
H42_2 H 0.4200 0.7127 0.9605
H43_2 H 0.3325 0.6878 0.8853
H44_2 H 0.4201 0.6636 0.9621
C46_2 C 0.4172(12) 0.6220(5) 0.7374(10)
C47_2 C 0.4529(9) 0.5856(4) 0.7539(9)
H45_2 H 0.5234 0.5814 0.7893
C48_2 C 0.3900(10) 0.5528(3) 0.7209(8)
H46_2 H 0.4176 0.5260 0.7351
C49_2 C 0.2910(8) 0.5569(3) 0.6693(6)
C50_2 C 0.2472(12) 0.5921(5) 0.6585(10)
H47_2 H 0.1743 0.5952 0.6277
C51_2 C 0.3135(14) 0.6283(5) 0.6958(15)
H48_2 H 0.2836 0.6552 0.6905
C52_2 C 0.2289(7) 0.5195(3) 0.6252(5)
C53_2 C 0.7112(6) 0.8485(2) 0.2726(6)
H49_2 H 0.7715 0.8431 0.3273
H50_2 H 0.6913 0.8221 0.2380
N9_2 N 0.7502(5) 0.8764(2) 0.1966(5)
N10 N 0.7992(4) 0.9114(2) 0.2321(4)
C54_2 C 0.8251(6) 0.9311(3) 0.1500(6)
C55_2 C 0.7957(6) 0.9077(3) 0.0605(6)
C56_2 C 0.7475(6) 0.8742(3) 0.0932(7)
C57_2 C 0.8824(8) 0.9707(3) 0.1606(6)
H51_2 H 0.9521 0.9687 0.1299
H52_2 H 0.8371 0.9920 0.1246
H53_2 H 0.8961 0.9777 0.2344
C58_2 C 0.7012(10) 0.8396(3) 0.0346(7)
H54_2 H 0.6237 0.8369 0.0456
H56_2 H 0.7401 0.8145 0.0580
N11_2 N 0.6186(4) 0.86369(19) 0.3207(4)
N12 N 0.6395(5) 0.89631(19) 0.3871(5)
C66_2 C 0.5415(6) 0.9086(3) 0.4113(6)
C67_2 C 0.4589(7) 0.8832(3) 0.3612(6)
C68_2 C 0.5120(5) 0.8552(3) 0.3030(6)
C69_2 C 0.5315(6) 0.9436(3) 0.4817(7)
H61_2 H 0.5047 0.9676 0.4412
H62_2 H 0.4799 0.9368 0.5323
H63_2 H 0.6031 0.9498 0.5182
C70_2 C 0.4709(6) 0.8221(3) 0.2351(7)
H64_2 H 0.5009 0.7960 0.2621
H65_2 H 0.3909 0.8213 0.2321
H66_2 H 0.4930 0.8267 0.1652
C71_2 C 0.3387(6) 0.8865(3) 0.3665(6)
C72_2 C 0.2951(6) 0.9258(3) 0.3487(6)
H67_2 H 0.3391 0.9477 0.3282
C73_2 C 0.1839(7) 0.9316(3) 0.3621(6)
H68_2 H 0.1527 0.9581 0.3523
C74_2 C 0.1194(5) 0.8996(3) 0.3890(6)
C75_2 C 0.1650(6) 0.8628(3) 0.4045(7)
H69_2 H 0.1204 0.8405 0.4220
C76_2 C 0.2761(6) 0.8556(3) 0.3959(7)
H70_2 H 0.3069 0.8293 0.4107
C77_2 C 0.0059(6) 0.9062(4) 0.4049(5)
C78_2 C 0.893(3) 0.7137(3) 0.780(2)
H71_2 H 0.8815 0.6876 0.8167
H72_2 H 0.9580 0.7293 0.8092
C79_2 C 0.872(3) 0.7137(3) 0.678(2)
H73_2 H 0.9258 0.7283 0.6392
H74_2 H 0.8500 0.6870 0.6466
H55_2 H 0.7085 0.8439 0.9606
C59_2 C 0.8086(7) 0.9193(3) 0.9509(7)
C60_2 C 0.9102(10) 0.9331(4) 0.9284(8)
H57_2 H 0.9697 0.9361 0.9804
C61_2 C 0.9191(9) 0.9422(4) 0.8255(10)
H58_2 H 0.9874 0.9519 0.8066
C62_2 C 0.8325(5) 0.9378(3) 0.7468(6)
C63_2 C 0.7430(11) 0.9223(7) 0.7759(12)
H59_2 H 0.6819 0.9194 0.7256
C64_2 C 0.7322(13) 0.9099(5) 0.8777(12)
H60_2 H 0.6699 0.8948 0.8935
C65_2 C 0.8473(8) 0.9494(3) 0.6310(6)
O9 O 0.9146(6) 0.9738(2) 0.6197(4)
O10_2 O 0.7939(4) 0.92710(18) 0.5674(4)
O15 O 0.9701(4) 0.9439(2) 0.4039(3)
O17 O 0.9392(4) 0.87761(18) 0.4143(4)
loop_
_geom_bond_atom_site_label_1
_geom_bond_atom_site_label_2
_geom_bond_site_symmetry_1
_geom_bond_site_symmetry_2
O11 Mn2 1_555 1_555
Mn7 O11 1_555 1_555
O13 Mn2 1_555 1_555
O19 Mn2 1_555 1_555
O12 Mn7 1_555 1_555
C1 H1 1_555 1_555
H2 C1 1_555 1_555
N1 C1 1_555 1_555
N2 N1 1_555 1_555
C2 N2 1_555 1_555
C3 C2 1_555 1_555
C4 N1 1_555 1_555
C5 C2 1_555 1_555
H3 C5 1_555 1_555
H4 C5 1_555 1_555
H5 C5 1_555 1_555
C6 C4 1_555 1_555
H6 C6 1_555 1_555
H8 C6 1_555 1_555
N3 C1 1_555 1_555
N4 N3 1_555 1_555
C14 N4 1_555 1_555
C15 C14 1_555 1_555
C16 N3 1_555 1_555
C17 C14 1_555 1_555
H13 C17 1_555 1_555
H14 C17 1_555 1_555
H15 C17 1_555 1_555
C18 C16 1_555 1_555
H16 C18 1_555 1_555
H17 C18 1_555 1_555
H18 C18 1_555 1_555
C19 C15 1_555 1_555
C20 C19 1_555 1_555
H19 C20 1_555 1_555
C21 C20 1_555 1_555
H20 C21 1_555 1_555
C22 C21 1_555 1_555
C23 C22 1_555 1_555
H21 C23 1_555 1_555
C24 C19 1_555 1_555
H22 C24 1_555 1_555
C25 C22 1_555 1_555
Mn7 O10 1_555 1_555
C60 C59 1_555 1_555
H57 C60 1_555 1_555
C61 C60 1_555 1_555
H58 C61 1_555 1_555
C62 C61 1_555 1_555
C63 C62 1_555 1_555
H59 C63 1_555 1_555
C64 C59 1_555 1_555
H60 C64 1_555 1_555
C65 C62 1_555 1_555
O13 C65 1_555 1_555
O10 C65 1_555 1_555
Mn5 N2 1_555 1_555
N14 Mn7 1_555 1_555
N16 Mn7 1_555 1_555
O18 Mn7 1_555 1_555
C3 C4 1_555 1_555
N4 Mn5 1_555 1_555
C15 C16 1_555 1_555
C23 C24 1_555 1_555
C63 C64 1_555 1_555
Mn5 O2 1_555 1_555
Mn2_2 O1 1_555 1_555
Rh1 N6 1_555 1_555
C8 C7 1_555 1_555
H9 C8 1_555 1_555
C9 C8 1_555 1_555
H10 C9 1_555 1_555
C10 C9 1_555 1_555
C11 C10 1_555 1_555
H11 C11 1_555 1_555
C12 C7 1_555 1_555
H12 C12 1_555 1_555
C13 C10 1_555 1_555
O1 C13 1_555 1_555
O2 C13 1_555 1_555
C26 H23 1_555 1_555
H24 C26 1_555 1_555
N5 C26 1_555 1_555
N6 N5 1_555 1_555
C27 N6 1_555 1_555
C28 C27 1_555 1_555
C29 N5 1_555 1_555
C30 C27 1_555 1_555
H25 C30 1_555 1_555
H26 C30 1_555 1_555
H27 C30 1_555 1_555
C31 C29 1_555 1_555
H28 C31 1_555 1_555
H29 C31 1_555 1_555
H30 C31 1_555 1_555
C32 C28 1_555 1_555
C33 C32 1_555 1_555
H31 C33 1_555 1_555
C34 C33 1_555 1_555
H32 C34 1_555 1_555
C35 C34 1_555 1_555
C36 C35 1_555 1_555
H33 C36 1_555 1_555
C37 C32 1_555 1_555
H34 C37 1_555 1_555
C38 C35 1_555 1_555
O5 Mn5 1_555 1_555
O6 Mn2_2 1_555 1_555
C39 Rh1 1_555 1_555
H35 C39 1_555 1_555
H36 C39 1_555 1_555
C40 Rh1 1_555 1_555
H37 C40 1_555 1_555
H38 C40 1_555 1_555
N7 C26 1_555 1_555
N8 Rh1 1_555 1_555
C41 N8 1_555 1_555
C42 C41 1_555 1_555
C43 N7 1_555 1_555
C44 C41 1_555 1_555
H39 C44 1_555 1_555
H40 C44 1_555 1_555
H41 C44 1_555 1_555
C45 C43 1_555 1_555
H42 C45 1_555 1_555
H43 C45 1_555 1_555
H44 C45 1_555 1_555
C46 C42 1_555 1_555
C47 C46 1_555 1_555
H45 C47 1_555 1_555
C48 C47 1_555 1_555
H46 C48 1_555 1_555
C49 C48 1_555 1_555
C50 C49 1_555 1_555
H47 C50 1_555 1_555
C51 C46 1_555 1_555
H48 C51 1_555 1_555
C52 C49 1_555 1_555
O8 C52 1_555 1_555
C53 H49 1_555 1_555
H50 C53 1_555 1_555
N9 C53 1_555 1_555
N14 N9 1_555 1_555
C54 N14 1_555 1_555
C55 C54 1_555 1_555
C56 N9 1_555 1_555
C57 C54 1_555 1_555
H51 C57 1_555 1_555
H52 C57 1_555 1_555
H53 C57 1_555 1_555
C58 C56 1_555 1_555
H54 C58 1_555 1_555
H56 C58 1_555 1_555
N11 C53 1_555 1_555
N16 N11 1_555 1_555
C66 N16 1_555 1_555
C67 C66 1_555 1_555
C68 N11 1_555 1_555
C69 C66 1_555 1_555
H61 C69 1_555 1_555
H62 C69 1_555 1_555
H63 C69 1_555 1_555
C70 C68 1_555 1_555
H64 C70 1_555 1_555
H65 C70 1_555 1_555
H66 C70 1_555 1_555
C71 C67 1_555 1_555
C72 C71 1_555 1_555
H67 C72 1_555 1_555
C73 C72 1_555 1_555
H68 C73 1_555 1_555
C74 C73 1_555 1_555
C75 C74 1_555 1_555
H69 C75 1_555 1_555
C76 C71 1_555 1_555
H70 C76 1_555 1_555
C77 C74 1_555 1_555
C78 Rh1 1_555 1_555
H71 C78 1_555 1_555
H72 C78 1_555 1_555
C79 Rh1 1_555 1_555
H73 C79 1_555 1_555
H74 C79 1_555 1_555
Mn10_3 O8 1_555 1_555
O14 Mn5 1_555 1_555
O16 Mn5 1_555 1_555
Mn2_2 O14 1_555 1_555
C11 C12 1_555 1_555
C28 C29 1_555 1_555
C36 C37 1_555 1_555
C38 O5 1_555 1_555
C38 O6 1_555 1_555
C39 C40 1_555 1_555
N7 N8 1_555 1_555
C42 C43 1_555 1_555
C50 C51 1_555 1_555
C55 C56 1_555 1_555
C67 C68 1_555 1_555
C75 C76 1_555 1_555
C78 C79 1_555 1_555
Mn8 O7 1_555 1_555
Mn4 O3 1_555 1_555
Mn10 O3 1_555 1_555
O4 Mn4 1_555 1_555
Mn4 O2_2 1_555 1_555
Mn10 O1_2 1_555 1_555
C8_2 C7_2 1_555 1_555
H9_2 C8_2 1_555 1_555
C9_2 C8_2 1_555 1_555
H10_2 C9_2 1_555 1_555
C10_2 C9_2 1_555 1_555
C11_2 C10_2 1_555 1_555
H11_2 C11_2 1_555 1_555
C12_2 C7_2 1_555 1_555
H12_2 C12_2 1_555 1_555
C13_2 C10_2 1_555 1_555
O1_2 C13_2 1_555 1_555
O2_2 C13_2 1_555 1_555
O5_2 Mn4 1_555 1_555
N13 Mn4 1_555 1_555
N15 Mn4 1_555 1_555
C11_2 C12_2 1_555 1_555
C1_2 H1_2 1_555 1_555
H2_2 C1_2 1_555 1_555
N1_2 C1_2 1_555 1_555
N13 N1_2 1_555 1_555
C2_2 N13 1_555 1_555
C3_2 C2_2 1_555 1_555
C4_2 N1_2 1_555 1_555
C5_2 C2_2 1_555 1_555
H3_2 C5_2 1_555 1_555
H4_2 C5_2 1_555 1_555
H5_2 C5_2 1_555 1_555
C6_2 C4_2 1_555 1_555
H6_2 C6_2 1_555 1_555
H8_2 C6_2 1_555 1_555
N3_2 C1_2 1_555 1_555
N15 N3_2 1_555 1_555
C14_2 N15 1_555 1_555
C15_2 C14_2 1_555 1_555
C16_2 N3_2 1_555 1_555
C17_2 C14_2 1_555 1_555
H13_2 C17_2 1_555 1_555
H14_2 C17_2 1_555 1_555
H15_2 C17_2 1_555 1_555
C18_2 C16_2 1_555 1_555
H16_2 C18_2 1_555 1_555
H17_2 C18_2 1_555 1_555
H18_2 C18_2 1_555 1_555
C19_2 C15_2 1_555 1_555
C20_2 C19_2 1_555 1_555
H19_2 C20_2 1_555 1_555
C21_2 C20_2 1_555 1_555
H20_2 C21_2 1_555 1_555
C22_2 C21_2 1_555 1_555
C23_2 C22_2 1_555 1_555
H21_2 C23_2 1_555 1_555
C24_2 C19_2 1_555 1_555
H22_2 C24_2 1_555 1_555
C25_2 C22_2 1_555 1_555
C3_2 C4_2 1_555 1_555
C15_2 C16_2 1_555 1_555
C23_2 C24_2 1_555 1_555
Rh1_2 N6_2 1_555 1_555
C26_2 H23_2 1_555 1_555
H24_2 C26_2 1_555 1_555
N5_2 C26_2 1_555 1_555
N6_2 N5_2 1_555 1_555
C27_2 N6_2 1_555 1_555
C28_2 C27_2 1_555 1_555
C29_2 N5_2 1_555 1_555
C30_2 C27_2 1_555 1_555
H25_2 C30_2 1_555 1_555
H26_2 C30_2 1_555 1_555
H27_2 C30_2 1_555 1_555
C31_2 C29_2 1_555 1_555
H28_2 C31_2 1_555 1_555
H29_2 C31_2 1_555 1_555
H30_2 C31_2 1_555 1_555
C32_2 C28_2 1_555 1_555
C33_2 C32_2 1_555 1_555
H31_2 C33_2 1_555 1_555
C34_2 C33_2 1_555 1_555
H32_2 C34_2 1_555 1_555
C35_2 C34_2 1_555 1_555
C36_2 C35_2 1_555 1_555
H33_2 C36_2 1_555 1_555
C37_2 C32_2 1_555 1_555
H34_2 C37_2 1_555 1_555
C38_2 C35_2 1_555 1_555
O6_2 Mn10_2 1_555 1_555
C39_2 Rh1_2 1_555 1_555
H35_2 C39_2 1_555 1_555
H36_2 C39_2 1_555 1_555
C40_2 Rh1_2 1_555 1_555
H37_2 C40_2 1_555 1_555
H38_2 C40_2 1_555 1_555
N7_2 C26_2 1_555 1_555
N8_2 Rh1_2 1_555 1_555
C41_2 N8_2 1_555 1_555
C42_2 C41_2 1_555 1_555
C43_2 N7_2 1_555 1_555
C44_2 C41_2 1_555 1_555
H39_2 C44_2 1_555 1_555
H40_2 C44_2 1_555 1_555
H41_2 C44_2 1_555 1_555
C45_2 C43_2 1_555 1_555
H42_2 C45_2 1_555 1_555
H43_2 C45_2 1_555 1_555
H44_2 C45_2 1_555 1_555
C46_2 C42_2 1_555 1_555
C47_2 C46_2 1_555 1_555
H45_2 C47_2 1_555 1_555
C48_2 C47_2 1_555 1_555
H46_2 C48_2 1_555 1_555
C49_2 C48_2 1_555 1_555
C50_2 C49_2 1_555 1_555
H47_2 C50_2 1_555 1_555
C51_2 C46_2 1_555 1_555
H48_2 C51_2 1_555 1_555
C52_2 C49_2 1_555 1_555
O18 C52_2 1_555 1_555
O19 C52_2 1_555 1_555
C53_2 H49_2 1_555 1_555
H50_2 C53_2 1_555 1_555
N9_2 C53_2 1_555 1_555
N10 N9_2 1_555 1_555
C54_2 N10 1_555 1_555
C55_2 C54_2 1_555 1_555
C56_2 N9_2 1_555 1_555
C57_2 C54_2 1_555 1_555
H51_2 C57_2 1_555 1_555
H52_2 C57_2 1_555 1_555
H53_2 C57_2 1_555 1_555
C58_2 C56_2 1_555 1_555
H54_2 C58_2 1_555 1_555
H56_2 C58_2 1_555 1_555
N11_2 C53_2 1_555 1_555
N12 N11_2 1_555 1_555
C66_2 N12 1_555 1_555
C67_2 C66_2 1_555 1_555
C68_2 N11_2 1_555 1_555
C69_2 C66_2 1_555 1_555
H61_2 C69_2 1_555 1_555
H62_2 C69_2 1_555 1_555
H63_2 C69_2 1_555 1_555
C70_2 C68_2 1_555 1_555
H64_2 C70_2 1_555 1_555
H65_2 C70_2 1_555 1_555
H66_2 C70_2 1_555 1_555
C71_2 C67_2 1_555 1_555
C72_2 C71_2 1_555 1_555
H67_2 C72_2 1_555 1_555
C73_2 C72_2 1_555 1_555
H68_2 C73_2 1_555 1_555
C74_2 C73_2 1_555 1_555
C75_2 C74_2 1_555 1_555
H69_2 C75_2 1_555 1_555
C76_2 C71_2 1_555 1_555
H70_2 C76_2 1_555 1_555
C77_2 C74_2 1_555 1_555
C78_2 Rh1_2 1_555 1_555
H71_2 C78_2 1_555 1_555
H72_2 C78_2 1_555 1_555
C79_2 Rh1_2 1_555 1_555
H73_2 C79_2 1_555 1_555
H74_2 C79_2 1_555 1_555
Mn8 N10 1_555 1_555
C28_2 C29_2 1_555 1_555
C36_2 C37_2 1_555 1_555
C38_2 O6_2 1_555 1_555
C39_2 C40_2 1_555 1_555
N7_2 N8_2 1_555 1_555
C42_2 C43_2 1_555 1_555
C50_2 C51_2 1_555 1_555
C55_2 C56_2 1_555 1_555
N12 Mn8 1_555 1_555
C67_2 C68_2 1_555 1_555
C75_2 C76_2 1_555 1_555
C78_2 C79_2 1_555 1_555
Mn8 O10_2 1_555 1_555
C60_2 C59_2 1_555 1_555
H57_2 C60_2 1_555 1_555
C61_2 C60_2 1_555 1_555
H58_2 C61_2 1_555 1_555
C62_2 C61_2 1_555 1_555
C63_2 C62_2 1_555 1_555
H59_2 C63_2 1_555 1_555
C64_2 C59_2 1_555 1_555
H60_2 C64_2 1_555 1_555
C65_2 C62_2 1_555 1_555
O9 C65_2 1_555 1_555
O10_2 C65_2 1_555 1_555
O15 Mn8 1_555 1_555
O17 Mn8 1_555 1_555
C63_2 C64_2 1_555 1_555
O9 Mn10_4 1_555 1_555
Mn10_4 O15 1_555 1_555

#END
