
###############################################################################
#
# This file contains modified crystal structure data generated from the
# MOF subset of the Cambridge Structural Database (CSD) v543 
# hosted by the Cambridge Crystallographic Data Centre (CCDC).
#
# This work is licensed under the Creative Commons
# Attribution-NonCommercial-ShareAlike 4.0 International License.
# To view a copy of this license, visit
# http://creativecommons.org/licenses/by-nc-sa/4.0/
# or send a letter to
# Creative Commons, PO Box 1866, Mountain View, CA 94042, USA.
#
# CIF created using the CSD Python API on 29 September 2022
# The structure has been converted into the P1 space group
# The structure has a 3D framework
# The original CSD entry TUWREL is in the monoclinic crystal system
# The framework has been calculated to contain at least 10.0% void space
# The void calculation uses a probe of radius 1.32A, grid spacing 0.4
#
###############################################################################

data_TUWREL
_chemical_formula_moiety         '(C178 H164 Cl4 Mn10 N24 O23 Rh4)n'
_symmetry_cell_setting           triclinic
_symmetry_space_group_name_H-M   'P 1'
_symmetry_Int_Tables_number      1
_space_group_name_Hall           'P 1'
loop_
_symmetry_equiv_pos_site_id
_symmetry_equiv_pos_as_xyz
1 x,y,z
_cell_length_a                   12.336(3)
_cell_length_b                   33.362(7)
_cell_length_c                   13.082(3)
_cell_angle_alpha                90
_cell_angle_beta                 95.42(3)
_cell_angle_gamma                90
_cell_volume                     5359.87
loop_
_atom_site_label
_atom_site_type_symbol
_atom_site_fract_x
_atom_site_fract_y
_atom_site_fract_z
C25 C 0.0014(3) 0.08850(13) 0.1089(3)
O3 O 0.0630(2) 0.11693(9) 0.0910(2)
O4 O 0.0349(2) 0.05182(9) 0.1071(2)
Mn6 Mn 0.0000 0.0000 0.0000
Mn9 Mn 0.20696(5) 0.06738(2) 0.10515(4)
Mn6_2 Mn 0.0000 0.0000 1.0000
C39 C 0.0459(14) 0.7500 0.215(2)
H35 H 0.0914 0.7744 0.2138
H39 H 0.0020 0.7500 0.3732
H50 H 0.0914 0.7256 0.2138
Mn6_3 Mn 0.0000 1.0000 0.0000
Mn6_4 Mn 0.0000 1.0000 1.0000
C1 C 0.2899(3) 0.14909(11) 0.2363(3)
H1 H 0.3109 0.1749 0.2700
H2 H 0.2316 0.1545 0.1807
N1 N 0.2492(3) 0.12200(10) 0.3110(2)
N2 N 0.1981(3) 0.08750(10) 0.2757(2)
C2 C 0.1697(3) 0.06845(12) 0.3593(3)
C3 C 0.2054(4) 0.09017(14) 0.4489(3)
C4 C 0.2558(4) 0.12427(13) 0.4147(3)
C5 C 0.1099(4) 0.02929(14) 0.3509(3)
H3 H 0.0316 0.0342 0.3509
H4 H 0.1348 0.0122 0.4094
H5 H 0.1243 0.0159 0.2869
C6 C 0.3069(5) 0.15873(17) 0.4751(4)
H6 H 0.3860 0.1550 0.4848
H7 H 0.2778 0.1600 0.5422
H8 H 0.2903 0.1838 0.4378
C7 C 0.1940(4) 0.07963(15) 0.5572(3)
C8 C 0.0952(4) 0.06579(14) 0.5872(3)
H9 H 0.0343 0.0629 0.5376
C9 C 0.0849(4) 0.05615(14) 0.6893(3)
H10 H 0.0177 0.0461 0.7085
C10 C 0.1728(4) 0.06119(13) 0.7640(3)
C11 C 0.2716(4) 0.07480(18) 0.7341(3)
H11 H 0.3316 0.0786 0.7843
C12 C 0.2834(5) 0.08282(19) 0.6319(3)
H12 H 0.3524 0.0906 0.6120
C13 C 0.1568(3) 0.05191(12) 0.8744(3)
O1 O 0.2244(3) 0.06617(10) 0.9441(2)
O2 O 0.0747(3) 0.03127(11) 0.8881(2)
N3 N 0.3839(3) 0.13190(9) 0.1926(2)
N4 N 0.3673(3) 0.09833(10) 0.1327(2)
C14 C 0.4663(3) 0.08535(12) 0.1153(3)
C15 C 0.5480(3) 0.11100(13) 0.1649(3)
C16 C 0.4910(3) 0.14034(12) 0.2135(3)
C17 C 0.4789(4) 0.04893(14) 0.0505(4)
H13 H 0.4785 0.0249 0.0935
H14 H 0.5480 0.0505 0.0194
C18 C 0.5313(4) 0.17530(15) 0.2779(4)
H16 H 0.5156 0.2002 0.2396
H17 H 0.6101 0.1728 0.2951
H18 H 0.4947 0.1758 0.3412
C19 C 0.6662(4) 0.10665(13) 0.1633(3)
C20 C 0.7159(4) 0.06906(13) 0.1787(3)
H19 H 0.6743 0.0471 0.1994
C21 C 0.8247(4) 0.06341(13) 0.1644(3)
H20 H 0.8564 0.0376 0.1741
C22 C 0.8880(4) 0.09565(13) 0.1358(3)
C23 C 0.8413(4) 0.13392(14) 0.1274(4)
H21 H 0.8849 0.1562 0.1122
C24 C 0.7326(4) 0.13958(13) 0.1409(4)
H22 H 0.7022 0.1657 0.1352
O5 O 0.2656(3) 0.01104(8) 0.1573(2)
Mn6_5 Mn 1.0000 0.0000 0.0000
H15 H 0.4185 0.0476 0.9963
Mn6_6 Mn 1.0000 0.0000 1.0000
Rh1 Rh 0.75439(6) 0.7500 0.22517(9)
C26 C 0.5886(8) 0.7500 0.3895(7)
H23 H 0.5416 0.7500 0.4469
H24 H 0.6655 0.7500 0.4189
N5 N 0.5666(4) 0.78578(11) 0.3263(4)
N6 N 0.6311(4) 0.79287(12) 0.2478(5)
C27 C 0.5883(4) 0.82539(13) 0.1984(5)
C28 C 0.4968(4) 0.83893(13) 0.2466(4)
C29 C 0.4843(5) 0.81294(13) 0.3277(4)
C30 C 0.6359(6) 0.84143(17) 0.1067(6)
H25 H 0.7121 0.8488 0.1253
H26 H 0.5949 0.8651 0.0813
H27 H 0.6322 0.8209 0.0529
C31 C 0.4013(6) 0.81160(17) 0.4013(4)
H28 H 0.3481 0.7906 0.3810
H29 H 0.3642 0.8376 0.4020
H30 H 0.4363 0.8058 0.4701
C32 C 0.4268(4) 0.87390(12) 0.2174(4)
C33 C 0.4144(5) 0.90506(15) 0.2860(4)
H31 H 0.4494 0.9034 0.3537
C34 C 0.3517(5) 0.93858(14) 0.2574(4)
H32 H 0.3461 0.9599 0.3047
C35 C 0.2968(3) 0.94091(12) 0.1588(3)
C36 C 0.3058(4) 0.90902(14) 0.0915(4)
H33 H 0.2669 0.9098 0.0253
C37 C 0.3708(4) 0.87602(15) 0.1196(4)
H34 H 0.3772 0.8548 0.0721
C38 C 0.2315(3) 0.97733(11) 0.1233(3)
O6 O 0.1494(3) 0.97153(10) 0.0618(3)
C40 C 0.9482(14) 0.7500 0.132(2)
H36 H 0.9675 0.7500 0.0598
C41 C 0.8794(9) 0.7849(3) 0.1605(16)
H37 H 0.8640 0.8089 0.1157
C42 C 0.8898(7) 0.7863(3) 0.2674(14)
H38 H 0.8864 0.8116 0.3079
C43 C 0.9678(13) 0.7500 0.301(2)
N7 N 0.5666(4) 0.71422(11) 0.3263(4)
N8 N 0.6311(4) 0.70713(12) 0.2478(5)
C44 C 0.5883(4) 0.67461(13) 0.1984(5)
C45 C 0.4968(4) 0.66107(13) 0.2466(4)
C46 C 0.4843(5) 0.68706(13) 0.3277(4)
C47 C 0.6359(6) 0.65857(17) 0.1067(6)
H40 H 0.7121 0.6512 0.1253
H41 H 0.5949 0.6349 0.0813
H42 H 0.6322 0.6791 0.0529
C48 C 0.4013(6) 0.68840(17) 0.4013(4)
H43 H 0.3481 0.7094 0.3810
H44 H 0.3642 0.6624 0.4020
H45 H 0.4363 0.6942 0.4701
C49 C 0.4268(4) 0.62610(12) 0.2174(4)
C50 C 0.4144(5) 0.59494(15) 0.2860(4)
H46 H 0.4494 0.5966 0.3537
C51 C 0.3517(5) 0.56142(14) 0.2574(4)
H47 H 0.3461 0.5401 0.3047
C52 C 0.2968(3) 0.55909(12) 0.1588(3)
C53 C 0.3058(4) 0.59098(14) 0.0915(4)
H48 H 0.2669 0.5902 0.0253
C54 C 0.3708(4) 0.62398(15) 0.1196(4)
H49 H 0.3772 0.6452 0.0721
C55 C 0.2315(3) 0.52267(11) 0.1233(3)
O7 O 0.2656(3) 0.48896(8) 0.1573(2)
O8 O 0.1494(3) 0.52847(10) 0.0618(3)
C56 C 0.8794(9) 0.7151(3) 0.1605(16)
H51 H 0.8640 0.6911 0.1157
C57 C 0.8898(7) 0.7137(3) 0.2674(14)
H52 H 0.8864 0.6884 0.3079
Mn6_7 Mn 1.0000 1.0000 0.0000
Mn7 Mn 0.0000 0.5000 0.0000
Mn12 Mn 0.20696(5) 0.43262(2) 0.10515(4)
Mn6_8 Mn 1.0000 1.0000 1.0000
Mn7_2 Mn 0.0000 0.5000 1.0000
O22 O 0.8506(3) 0.02847(10) 0.9382(3)
H67 H 0.5815 0.9524 0.0037
O14 O 0.7756(3) 0.93383(10) 0.0559(2)
C58 C 0.7101(3) 0.85091(11) 0.7637(3)
H53 H 0.6891 0.8251 0.7300
H54 H 0.7684 0.8455 0.8193
Mn3 Mn 0.79304(5) 0.93262(2) 0.89485(4)
N9 N 0.7508(3) 0.87800(10) 0.6890(2)
N10 N 0.8019(3) 0.91250(10) 0.7243(2)
C59 C 0.8303(3) 0.93155(12) 0.6407(3)
C60 C 0.7946(4) 0.90983(14) 0.5511(3)
C61 C 0.7442(4) 0.87573(13) 0.5853(3)
C62 C 0.8901(4) 0.97071(14) 0.6491(3)
H55 H 0.9684 0.9658 0.6491
H56 H 0.8652 0.9878 0.5906
H57 H 0.8757 0.9841 0.7131
C63 C 0.6931(5) 0.84127(17) 0.5249(4)
H58 H 0.6140 0.8450 0.5152
H59 H 0.7222 0.8400 0.4578
H60 H 0.7097 0.8162 0.5622
C64 C 0.8060(4) 0.92037(15) 0.4428(3)
C65 C 0.9048(4) 0.93421(14) 0.4128(3)
H61 H 0.9657 0.9371 0.4624
C66 C 0.9151(4) 0.94385(14) 0.3107(3)
H62 H 0.9823 0.9539 0.2915
C67 C 0.8272(4) 0.93881(13) 0.2360(3)
C68 C 0.7284(4) 0.92520(18) 0.2659(3)
H63 H 0.6684 0.9214 0.2157
C69 C 0.7166(5) 0.91718(19) 0.3681(3)
H64 H 0.6476 0.9094 0.3880
C70 C 0.8432(3) 0.94809(12) 0.1256(3)
O10 O 0.9253(3) 0.96873(11) 0.1119(2)
N11 N 0.6161(3) 0.86810(9) 0.8074(2)
N12 N 0.6327(3) 0.90167(10) 0.8673(2)
C71 C 0.5337(3) 0.91465(12) 0.8847(3)
C72 C 0.4520(3) 0.88900(13) 0.8351(3)
C73 C 0.5090(3) 0.85966(12) 0.7865(3)
C74 C 0.5211(4) 0.95107(14) 0.9495(4)
H65 H 0.5215 0.9751 0.9065
H66 H 0.4520 0.9495 0.9806
C75 C 0.4687(4) 0.82470(15) 0.7221(4)
H68 H 0.4844 0.7998 0.7604
H69 H 0.3899 0.8272 0.7049
H70 H 0.5053 0.8242 0.6588
C76 C 0.3338(4) 0.89335(13) 0.8367(3)
C77 C 0.2841(4) 0.93094(13) 0.8213(3)
H71 H 0.3257 0.9529 0.8006
C78 C 0.1753(4) 0.93659(13) 0.8356(3)
H72 H 0.1436 0.9624 0.8259
C79 C 0.1120(4) 0.90435(13) 0.8642(3)
C80 C 0.1587(4) 0.86608(14) 0.8726(4)
H73 H 0.1151 0.8438 0.8878
C81 C 0.2674(4) 0.86042(13) 0.8591(4)
H74 H 0.2978 0.8343 0.8648
Mn7_3 Mn 1.0000 0.5000 0.0000
O17 O 0.9370(2) 0.88307(9) 0.9090(2)
O20 O 0.9651(2) 0.94818(9) 0.8929(2)
O21 O 0.7344(3) 0.98896(8) 0.8427(2)
Mn7_4 Mn 1.0000 0.5000 1.0000
C82 C 0.9986(3) 0.91150(13) 0.8911(3)
C82_2 C 0.0014(3) 0.41150(13) 0.1089(3)
O11 O 0.0630(2) 0.38307(9) 0.0910(2)
O12 O 0.0349(2) 0.44818(9) 0.1071(2)
C58_2 C 0.2899(3) 0.35091(11) 0.2363(3)
H53_2 H 0.3109 0.3251 0.2700
H54_2 H 0.2316 0.3455 0.1807
N9_2 N 0.2492(3) 0.37800(10) 0.3110(2)
N10_2 N 0.1981(3) 0.41250(10) 0.2757(2)
C59_2 C 0.1697(3) 0.43155(12) 0.3593(3)
C60_2 C 0.2054(4) 0.40983(14) 0.4489(3)
C61_2 C 0.2558(4) 0.37573(13) 0.4147(3)
C62_2 C 0.1099(4) 0.47071(14) 0.3509(3)
H55_2 H 0.0316 0.4658 0.3509
H56_2 H 0.1348 0.4878 0.4094
H57_2 H 0.1243 0.4841 0.2869
C63_2 C 0.3069(5) 0.34127(17) 0.4751(4)
H58_2 H 0.3860 0.3450 0.4848
H59_2 H 0.2778 0.3400 0.5422
H60_2 H 0.2903 0.3162 0.4378
C64_2 C 0.1940(4) 0.42037(15) 0.5572(3)
C65_2 C 0.0952(4) 0.43421(14) 0.5872(3)
H61_2 H 0.0343 0.4371 0.5376
C66_2 C 0.0849(4) 0.44385(14) 0.6893(3)
H62_2 H 0.0177 0.4539 0.7085
C67_2 C 0.1728(4) 0.43881(13) 0.7640(3)
C68_2 C 0.2716(4) 0.42520(18) 0.7341(3)
H63_2 H 0.3316 0.4214 0.7843
C69_2 C 0.2834(5) 0.41718(19) 0.6319(3)
H64_2 H 0.3524 0.4094 0.6120
C70_2 C 0.1568(3) 0.44809(12) 0.8744(3)
O9 O 0.2244(3) 0.43383(10) 0.9441(2)
O10_2 O 0.0747(3) 0.46873(11) 0.8881(2)
N11_2 N 0.3839(3) 0.36810(9) 0.1926(2)
N12_2 N 0.3673(3) 0.40167(10) 0.1327(2)
C71_2 C 0.4663(3) 0.41465(12) 0.1153(3)
C72_2 C 0.5480(3) 0.38900(13) 0.1649(3)
C73_2 C 0.4910(3) 0.35966(12) 0.2135(3)
C74_2 C 0.4789(4) 0.45107(14) 0.0505(4)
H65_2 H 0.4785 0.4751 0.0935
H66_2 H 0.5480 0.4495 0.0194
C75_2 C 0.5313(4) 0.32470(15) 0.2779(4)
H68_2 H 0.5156 0.2998 0.2396
H69_2 H 0.6101 0.3272 0.2951
H70_2 H 0.4947 0.3242 0.3412
C76_2 C 0.6662(4) 0.39335(13) 0.1633(3)
C77_2 C 0.7159(4) 0.43094(13) 0.1787(3)
H71_2 H 0.6743 0.4529 0.1994
C78_2 C 0.8247(4) 0.43659(13) 0.1644(3)
H72_2 H 0.8564 0.4624 0.1741
C79_2 C 0.8880(4) 0.40435(13) 0.1358(3)
C80_2 C 0.8413(4) 0.36608(14) 0.1274(4)
H73_2 H 0.8849 0.3438 0.1122
C81_2 C 0.7326(4) 0.36042(13) 0.1409(4)
H74_2 H 0.7022 0.3343 0.1352
H67_2 H 0.4185 0.4524 0.9963
H15_2 H 0.5815 0.5476 0.0037
O13 O 0.7756(3) 0.56617(10) 0.0559(2)
O15 O 0.9253(3) 0.53127(11) 0.1119(2)
C1_2 C 0.7101(3) 0.64909(11) 0.7637(3)
H1_2 H 0.6891 0.6749 0.7300
H2_2 H 0.7684 0.6545 0.8193
Mn2 Mn 0.79304(5) 0.56738(2) 0.89485(4)
Rh1_2 Rh 0.24561(6) 0.2500 0.77483(9)
N1_2 N 0.7508(3) 0.62200(10) 0.6890(2)
N2_2 N 0.8019(3) 0.58750(10) 0.7243(2)
C2_2 C 0.8303(3) 0.56845(12) 0.6407(3)
C3_2 C 0.7946(4) 0.59017(14) 0.5511(3)
C4_2 C 0.7442(4) 0.62427(13) 0.5853(3)
C5_2 C 0.8901(4) 0.52929(14) 0.6491(3)
H3_2 H 0.9684 0.5342 0.6491
H4_2 H 0.8652 0.5122 0.5906
H5_2 H 0.8757 0.5159 0.7131
C6_2 C 0.6931(5) 0.65873(17) 0.5249(4)
H6_2 H 0.6140 0.6550 0.5152
H7_2 H 0.7222 0.6600 0.4578
H8_2 H 0.7097 0.6838 0.5622
C7_2 C 0.8060(4) 0.57963(15) 0.4428(3)
C8_2 C 0.9048(4) 0.56579(14) 0.4128(3)
H9_2 H 0.9657 0.5629 0.4624
C9_2 C 0.9151(4) 0.55615(14) 0.3107(3)
H10_2 H 0.9823 0.5461 0.2915
C10_2 C 0.8272(4) 0.56119(13) 0.2360(3)
C11_2 C 0.7284(4) 0.57480(18) 0.2659(3)
H11_2 H 0.6684 0.5786 0.2157
C12_2 C 0.7166(5) 0.58282(19) 0.3681(3)
H12_2 H 0.6476 0.5906 0.3880
C13_2 C 0.8432(3) 0.55191(12) 0.1256(3)
N3_2 N 0.6161(3) 0.63190(9) 0.8074(2)
N4_2 N 0.6327(3) 0.59833(10) 0.8673(2)
C14_2 C 0.5337(3) 0.58535(12) 0.8847(3)
C15_2 C 0.4520(3) 0.61100(13) 0.8351(3)
C16_2 C 0.5090(3) 0.64034(12) 0.7865(3)
C17_2 C 0.5211(4) 0.54893(14) 0.9495(4)
H13_2 H 0.5215 0.5249 0.9065
H14_2 H 0.4520 0.5505 0.9806
C18_2 C 0.4687(4) 0.67530(15) 0.7221(4)
H16_2 H 0.4844 0.7002 0.7604
H17_2 H 0.3899 0.6728 0.7049
H18_2 H 0.5053 0.6758 0.6588
C19_2 C 0.3338(4) 0.60665(13) 0.8367(3)
C20_2 C 0.2841(4) 0.56906(13) 0.8213(3)
H19_2 H 0.3257 0.5471 0.8006
C21_2 C 0.1753(4) 0.56341(13) 0.8356(3)
H20_2 H 0.1436 0.5376 0.8259
C22_2 C 0.1120(4) 0.59565(13) 0.8642(3)
C23_2 C 0.1587(4) 0.63392(14) 0.8726(4)
H21_2 H 0.1151 0.6562 0.8878
C24_2 C 0.2674(4) 0.63958(13) 0.8591(4)
H22_2 H 0.2978 0.6657 0.8648
C26_2 C 0.4114(8) 0.2500 0.6105(7)
H23_2 H 0.4584 0.2500 0.5531
H24_2 H 0.3345 0.2500 0.5811
N5_2 N 0.4334(4) 0.28578(11) 0.6737(4)
N6_2 N 0.3689(4) 0.29287(12) 0.7522(5)
C27_2 C 0.4117(4) 0.32539(13) 0.8016(5)
C28_2 C 0.5032(4) 0.33893(13) 0.7534(4)
C29_2 C 0.5157(5) 0.31294(13) 0.6723(4)
C30_2 C 0.3641(6) 0.34143(17) 0.8933(6)
H25_2 H 0.2879 0.3488 0.8747
H26_2 H 0.4051 0.3651 0.9187
H27_2 H 0.3678 0.3209 0.9471
C31_2 C 0.5987(6) 0.31160(17) 0.5987(4)
H28_2 H 0.6519 0.2906 0.6190
H29_2 H 0.6358 0.3376 0.5980
H30_2 H 0.5637 0.3058 0.5299
C32_2 C 0.5732(4) 0.37390(12) 0.7826(4)
C33_2 C 0.5856(5) 0.40506(15) 0.7140(4)
H31_2 H 0.5506 0.4034 0.6463
C34_2 C 0.6483(5) 0.43858(14) 0.7426(4)
H32_2 H 0.6539 0.4599 0.6953
C35_2 C 0.7032(3) 0.44091(12) 0.8412(3)
C36_2 C 0.6942(4) 0.40902(14) 0.9085(4)
H33_2 H 0.7331 0.4098 0.9747
C37_2 C 0.6292(4) 0.37602(15) 0.8804(4)
H34_2 H 0.6228 0.3548 0.9279
C38_2 C 0.7685(3) 0.47733(11) 0.8767(3)
O5_2 O 0.7344(3) 0.51104(8) 0.8427(2)
O6_2 O 0.8506(3) 0.47153(10) 0.9382(3)
C40_2 C 0.0518(14) 0.2500 0.868(2)
H36_2 H 0.0325 0.2500 0.9402
C41_2 C 0.1206(9) 0.2849(3) 0.8395(16)
H37_2 H 0.1360 0.3089 0.8843
C42_2 C 0.1102(7) 0.2863(3) 0.7326(14)
H38_2 H 0.1136 0.3116 0.6921
C43_2 C 0.0322(13) 0.2500 0.699(2)
N7_2 N 0.4334(4) 0.21422(11) 0.6737(4)
N8_2 N 0.3689(4) 0.20713(12) 0.7522(5)
C44_2 C 0.4117(4) 0.17461(13) 0.8016(5)
C45_2 C 0.5032(4) 0.16107(13) 0.7534(4)
C46_2 C 0.5157(5) 0.18706(13) 0.6723(4)
C47_2 C 0.3641(6) 0.15857(17) 0.8933(6)
H40_2 H 0.2879 0.1512 0.8747
H41_2 H 0.4051 0.1349 0.9187
H42_2 H 0.3678 0.1791 0.9471
C48_2 C 0.5987(6) 0.18840(17) 0.5987(4)
H43_2 H 0.6519 0.2094 0.6190
H44_2 H 0.6358 0.1624 0.5980
H45_2 H 0.5637 0.1942 0.5299
C49_2 C 0.5732(4) 0.12610(12) 0.7826(4)
C50_2 C 0.5856(5) 0.09494(15) 0.7140(4)
H46_2 H 0.5506 0.0966 0.6463
C51_2 C 0.6483(5) 0.06142(14) 0.7426(4)
H47_2 H 0.6539 0.0401 0.6953
C52_2 C 0.7032(3) 0.05909(12) 0.8412(3)
C53_2 C 0.6942(4) 0.09098(14) 0.9085(4)
H48_2 H 0.7331 0.0902 0.9747
C54_2 C 0.6292(4) 0.12398(15) 0.8804(4)
H49_2 H 0.6228 0.1452 0.9279
C55_2 C 0.7685(3) 0.02267(11) 0.8767(3)
C56_2 C 0.1206(9) 0.2151(3) 0.8395(16)
H51_2 H 0.1360 0.1911 0.8843
C57_2 C 0.1102(7) 0.2137(3) 0.7326(14)
H52_2 H 0.1136 0.1884 0.6921
O16 O 0.9370(2) 0.61693(9) 0.9090(2)
O18 O 0.9651(2) 0.55182(9) 0.8929(2)
C25_2 C 0.9986(3) 0.58850(13) 0.8911(3)
C39_2 C 0.9541(14) 0.2500 0.785(2)
H35_2 H 0.9086 0.2744 0.7862
H39_2 H 0.9980 0.2500 0.6268
H50_2 H 0.9086 0.2256 0.7862
Rh2 Rh 0.18473(11) 0.2500 0.24152(10)
C83 C 0.0826(14) 0.2305(3) 0.3373(18)
H75 H 0.1104 0.2155 0.4005
C85 C 0.0388(13) 0.2296(3) 0.1699(18)
H77 H 0.0341 0.2134 0.1053
Cl1 Cl 0.3494(2) 0.2500 0.3486(2)
Cl2 Cl 0.2837(5) 0.2500 0.0892(3)
C87 C 0.0826(14) 0.2695(3) 0.3373(18)
H80 H 0.1104 0.2845 0.4005
C89 C 0.0388(13) 0.2704(3) 0.1699(18)
H82 H 0.0341 0.2866 0.1053
C84 C 0.9900(13) 0.2148(7) 0.2708(17)
H76 H 0.9657 0.1864 0.2774
C86 C 0.9101(19) 0.2500 0.283(2)
H78 H 0.8486 0.2500 0.2288
H79 H 0.8818 0.2500 0.3516
C88 C 0.9900(13) 0.2852(7) 0.2708(17)
H81 H 0.9657 0.3136 0.2774
C84_2 C 0.0100(13) 0.7148(7) 0.7292(17)
H76_2 H 0.0343 0.6864 0.7226
C86_2 C 0.0899(19) 0.7500 0.717(2)
H78_2 H 0.1514 0.7500 0.7712
H79_2 H 0.1182 0.7500 0.6484
C88_2 C 0.0100(13) 0.7852(7) 0.7292(17)
H81_2 H 0.0343 0.8136 0.7226
Rh2_2 Rh 0.81527(11) 0.7500 0.75848(10)
C83_2 C 0.9174(14) 0.7305(3) 0.6627(18)
H75_2 H 0.8896 0.7155 0.5995
C85_2 C 0.9612(13) 0.7296(3) 0.8301(18)
H77_2 H 0.9659 0.7134 0.8947
Cl1_2 Cl 0.6506(2) 0.7500 0.6514(2)
Cl2_2 Cl 0.7163(5) 0.7500 0.9108(3)
C87_2 C 0.9174(14) 0.7695(3) 0.6627(18)
H80_2 H 0.8896 0.7845 0.5995
C89_2 C 0.9612(13) 0.7704(3) 0.8301(18)
H82_2 H 0.9659 0.7866 0.8947
loop_
_geom_bond_atom_site_label_1
_geom_bond_atom_site_label_2
_geom_bond_site_symmetry_1
_geom_bond_site_symmetry_2
O3 C25 1_555 1_555
O4 C25 1_555 1_555
Mn6 O4 1_555 1_555
Mn9 O3 1_555 1_555
O4 Mn9 1_555 1_555
C39 H35 1_555 1_555
H50 C39 1_555 1_555
C1 H1 1_555 1_555
H2 C1 1_555 1_555
Mn9 N2 1_555 1_555
N1 C1 1_555 1_555
N2 N1 1_555 1_555
C2 N2 1_555 1_555
C3 C2 1_555 1_555
C4 N1 1_555 1_555
C5 C2 1_555 1_555
H3 C5 1_555 1_555
H4 C5 1_555 1_555
H5 C5 1_555 1_555
C6 C4 1_555 1_555
H6 C6 1_555 1_555
H7 C6 1_555 1_555
H8 C6 1_555 1_555
C7 C3 1_555 1_555
C8 C7 1_555 1_555
H9 C8 1_555 1_555
C9 C8 1_555 1_555
H10 C9 1_555 1_555
C10 C9 1_555 1_555
C11 C10 1_555 1_555
H11 C11 1_555 1_555
C12 C7 1_555 1_555
H12 C12 1_555 1_555
C13 C10 1_555 1_555
O1 C13 1_555 1_555
O2 C13 1_555 1_555
N3 C1 1_555 1_555
N4 Mn9 1_555 1_555
C14 N4 1_555 1_555
C15 C14 1_555 1_555
C16 N3 1_555 1_555
C17 C14 1_555 1_555
H13 C17 1_555 1_555
H14 C17 1_555 1_555
C18 C16 1_555 1_555
H16 C18 1_555 1_555
H17 C18 1_555 1_555
H18 C18 1_555 1_555
C19 C15 1_555 1_555
C20 C19 1_555 1_555
H19 C20 1_555 1_555
C21 C20 1_555 1_555
H20 C21 1_555 1_555
C22 C21 1_555 1_555
C23 C22 1_555 1_555
H21 C23 1_555 1_555
C24 C19 1_555 1_555
H22 C24 1_555 1_555
O5 Mn9 1_555 1_555
Mn6_2 O2 1_555 1_555
C3 C4 1_555 1_555
C11 C12 1_555 1_555
N3 N4 1_555 1_555
C15 C16 1_555 1_555
C23 C24 1_555 1_555
Mn6_3 O6 1_555 1_555
Rh1 N6 1_555 1_555
C26 H23 1_555 1_555
H24 C26 1_555 1_555
N5 C26 1_555 1_555
N6 N5 1_555 1_555
C27 N6 1_555 1_555
C28 C27 1_555 1_555
C29 N5 1_555 1_555
C30 C27 1_555 1_555
H25 C30 1_555 1_555
H26 C30 1_555 1_555
H27 C30 1_555 1_555
C31 C29 1_555 1_555
H28 C31 1_555 1_555
H29 C31 1_555 1_555
H30 C31 1_555 1_555
C32 C28 1_555 1_555
C33 C32 1_555 1_555
H31 C33 1_555 1_555
C34 C33 1_555 1_555
H32 C34 1_555 1_555
C35 C34 1_555 1_555
C36 C35 1_555 1_555
H33 C36 1_555 1_555
C37 C32 1_555 1_555
H34 C37 1_555 1_555
C38 C35 1_555 1_555
O6 C38 1_555 1_555
H36 C40 1_555 1_555
C41 Rh1 1_555 1_555
H37 C41 1_555 1_555
C42 Rh1 1_555 1_555
H38 C42 1_555 1_555
N7 C26 1_555 1_555
N8 Rh1 1_555 1_555
C44 N8 1_555 1_555
C45 C44 1_555 1_555
C46 N7 1_555 1_555
C47 C44 1_555 1_555
H40 C47 1_555 1_555
H41 C47 1_555 1_555
H42 C47 1_555 1_555
C48 C46 1_555 1_555
H43 C48 1_555 1_555
H44 C48 1_555 1_555
H45 C48 1_555 1_555
C49 C45 1_555 1_555
C50 C49 1_555 1_555
H46 C50 1_555 1_555
C51 C50 1_555 1_555
H47 C51 1_555 1_555
C52 C51 1_555 1_555
C53 C52 1_555 1_555
H48 C53 1_555 1_555
C54 C49 1_555 1_555
H49 C54 1_555 1_555
C55 C52 1_555 1_555
O7 C55 1_555 1_555
O8 C55 1_555 1_555
C56 Rh1 1_555 1_555
H51 C56 1_555 1_555
C57 Rh1 1_555 1_555
H52 C57 1_555 1_555
Mn7 O8 1_555 1_555
Mn12 O7 1_555 1_555
C28 C29 1_555 1_555
C36 C37 1_555 1_555
C40 C41 1_555 1_555
C40 C56 1_555 1_555
C41 C42 1_555 1_555
C42 C43 1_555 1_555
C43 C57 1_555 1_555
N7 N8 1_555 1_555
C45 C46 1_555 1_555
C53 C54 1_555 1_555
C56 C57 1_555 1_555
O22 Mn6_6 1_555 1_555
C58 H53 1_555 1_555
H54 C58 1_555 1_555
Mn3 N10 1_555 1_555
N9 C58 1_555 1_555
N10 N9 1_555 1_555
C59 N10 1_555 1_555
C60 C59 1_555 1_555
C61 N9 1_555 1_555
C62 C59 1_555 1_555
H55 C62 1_555 1_555
H56 C62 1_555 1_555
H57 C62 1_555 1_555
C63 C61 1_555 1_555
H58 C63 1_555 1_555
H59 C63 1_555 1_555
H60 C63 1_555 1_555
C64 C60 1_555 1_555
C65 C64 1_555 1_555
H61 C65 1_555 1_555
C66 C65 1_555 1_555
H62 C66 1_555 1_555
C67 C66 1_555 1_555
C68 C67 1_555 1_555
H63 C68 1_555 1_555
C69 C64 1_555 1_555
H64 C69 1_555 1_555
C70 C67 1_555 1_555
O14 C70 1_555 1_555
O10 Mn6_7 1_555 1_555
N11 C58 1_555 1_555
N12 Mn3 1_555 1_555
C71 N12 1_555 1_555
C72 C71 1_555 1_555
C73 N11 1_555 1_555
C74 C71 1_555 1_555
H65 C74 1_555 1_555
H66 C74 1_555 1_555
C75 C73 1_555 1_555
H68 C75 1_555 1_555
H69 C75 1_555 1_555
H70 C75 1_555 1_555
C76 C72 1_555 1_555
C77 C76 1_555 1_555
H71 C77 1_555 1_555
C78 C77 1_555 1_555
H72 C78 1_555 1_555
C79 C78 1_555 1_555
C80 C79 1_555 1_555
H73 C80 1_555 1_555
C81 C76 1_555 1_555
H74 C81 1_555 1_555
O17 Mn3 1_555 1_555
O20 Mn3 1_555 1_555
O21 Mn3 1_555 1_555
C60 C61 1_555 1_555
C68 C69 1_555 1_555
C70 O10 1_555 1_555
N11 N12 1_555 1_555
C72 C73 1_555 1_555
C80 C81 1_555 1_555
Mn6_8 O20 1_555 1_555
O17 C82 1_555 1_555
O20 C82 1_555 1_555
O11 C82_2 1_555 1_555
O12 C82_2 1_555 1_555
Mn7 O12 1_555 1_555
Mn12 O11 1_555 1_555
O12 Mn12 1_555 1_555
C58_2 H53_2 1_555 1_555
H54_2 C58_2 1_555 1_555
Mn12 N10_2 1_555 1_555
N9_2 C58_2 1_555 1_555
N10_2 N9_2 1_555 1_555
C59_2 N10_2 1_555 1_555
C60_2 C59_2 1_555 1_555
C61_2 N9_2 1_555 1_555
C62_2 C59_2 1_555 1_555
H55_2 C62_2 1_555 1_555
H56_2 C62_2 1_555 1_555
H57_2 C62_2 1_555 1_555
C63_2 C61_2 1_555 1_555
H58_2 C63_2 1_555 1_555
H59_2 C63_2 1_555 1_555
H60_2 C63_2 1_555 1_555
C64_2 C60_2 1_555 1_555
C65_2 C64_2 1_555 1_555
H61_2 C65_2 1_555 1_555
C66_2 C65_2 1_555 1_555
H62_2 C66_2 1_555 1_555
C67_2 C66_2 1_555 1_555
C68_2 C67_2 1_555 1_555
H63_2 C68_2 1_555 1_555
C69_2 C64_2 1_555 1_555
H64_2 C69_2 1_555 1_555
C70_2 C67_2 1_555 1_555
O9 C70_2 1_555 1_555
O10_2 Mn7_2 1_555 1_555
N11_2 C58_2 1_555 1_555
N12_2 Mn12 1_555 1_555
C71_2 N12_2 1_555 1_555
C72_2 C71_2 1_555 1_555
C73_2 N11_2 1_555 1_555
C74_2 C71_2 1_555 1_555
H65_2 C74_2 1_555 1_555
H66_2 C74_2 1_555 1_555
C75_2 C73_2 1_555 1_555
H68_2 C75_2 1_555 1_555
H69_2 C75_2 1_555 1_555
H70_2 C75_2 1_555 1_555
C76_2 C72_2 1_555 1_555
C77_2 C76_2 1_555 1_555
H71_2 C77_2 1_555 1_555
C78_2 C77_2 1_555 1_555
H72_2 C78_2 1_555 1_555
C79_2 C78_2 1_555 1_555
C80_2 C79_2 1_555 1_555
H73_2 C80_2 1_555 1_555
C81_2 C76_2 1_555 1_555
H74_2 C81_2 1_555 1_555
C60_2 C61_2 1_555 1_555
C68_2 C69_2 1_555 1_555
C70_2 O10_2 1_555 1_555
N11_2 N12_2 1_555 1_555
C72_2 C73_2 1_555 1_555
C80_2 C81_2 1_555 1_555
O15 Mn7_3 1_555 1_555
Mn7_4 O6_2 1_555 1_555
C1_2 H1_2 1_555 1_555
H2_2 C1_2 1_555 1_555
Mn2 N2_2 1_555 1_555
Rh1_2 N6_2 1_555 1_555
N1_2 C1_2 1_555 1_555
N2_2 N1_2 1_555 1_555
C2_2 N2_2 1_555 1_555
C3_2 C2_2 1_555 1_555
C4_2 N1_2 1_555 1_555
C5_2 C2_2 1_555 1_555
H3_2 C5_2 1_555 1_555
H4_2 C5_2 1_555 1_555
H5_2 C5_2 1_555 1_555
C6_2 C4_2 1_555 1_555
H6_2 C6_2 1_555 1_555
H7_2 C6_2 1_555 1_555
H8_2 C6_2 1_555 1_555
C7_2 C3_2 1_555 1_555
C8_2 C7_2 1_555 1_555
H9_2 C8_2 1_555 1_555
C9_2 C8_2 1_555 1_555
H10_2 C9_2 1_555 1_555
C10_2 C9_2 1_555 1_555
C11_2 C10_2 1_555 1_555
H11_2 C11_2 1_555 1_555
C12_2 C7_2 1_555 1_555
H12_2 C12_2 1_555 1_555
C13_2 C10_2 1_555 1_555
O13 C13_2 1_555 1_555
O15 C13_2 1_555 1_555
N3_2 C1_2 1_555 1_555
N4_2 Mn2 1_555 1_555
C14_2 N4_2 1_555 1_555
C15_2 C14_2 1_555 1_555
C16_2 N3_2 1_555 1_555
C17_2 C14_2 1_555 1_555
H13_2 C17_2 1_555 1_555
H14_2 C17_2 1_555 1_555
C18_2 C16_2 1_555 1_555
H16_2 C18_2 1_555 1_555
H17_2 C18_2 1_555 1_555
H18_2 C18_2 1_555 1_555
C19_2 C15_2 1_555 1_555
C20_2 C19_2 1_555 1_555
H19_2 C20_2 1_555 1_555
C21_2 C20_2 1_555 1_555
H20_2 C21_2 1_555 1_555
C22_2 C21_2 1_555 1_555
C23_2 C22_2 1_555 1_555
H21_2 C23_2 1_555 1_555
C24_2 C19_2 1_555 1_555
H22_2 C24_2 1_555 1_555
C26_2 H23_2 1_555 1_555
H24_2 C26_2 1_555 1_555
N5_2 C26_2 1_555 1_555
N6_2 N5_2 1_555 1_555
C27_2 N6_2 1_555 1_555
C28_2 C27_2 1_555 1_555
C29_2 N5_2 1_555 1_555
C30_2 C27_2 1_555 1_555
H25_2 C30_2 1_555 1_555
H26_2 C30_2 1_555 1_555
H27_2 C30_2 1_555 1_555
C31_2 C29_2 1_555 1_555
H28_2 C31_2 1_555 1_555
H29_2 C31_2 1_555 1_555
H30_2 C31_2 1_555 1_555
C32_2 C28_2 1_555 1_555
C33_2 C32_2 1_555 1_555
H31_2 C33_2 1_555 1_555
C34_2 C33_2 1_555 1_555
H32_2 C34_2 1_555 1_555
C35_2 C34_2 1_555 1_555
C36_2 C35_2 1_555 1_555
H33_2 C36_2 1_555 1_555
C37_2 C32_2 1_555 1_555
H34_2 C37_2 1_555 1_555
C38_2 C35_2 1_555 1_555
O5_2 Mn2 1_555 1_555
O6_2 C38_2 1_555 1_555
H36_2 C40_2 1_555 1_555
C41_2 Rh1_2 1_555 1_555
H37_2 C41_2 1_555 1_555
C42_2 Rh1_2 1_555 1_555
H38_2 C42_2 1_555 1_555
N7_2 C26_2 1_555 1_555
N8_2 Rh1_2 1_555 1_555
C44_2 N8_2 1_555 1_555
C45_2 C44_2 1_555 1_555
C46_2 N7_2 1_555 1_555
C47_2 C44_2 1_555 1_555
H40_2 C47_2 1_555 1_555
H41_2 C47_2 1_555 1_555
H42_2 C47_2 1_555 1_555
C48_2 C46_2 1_555 1_555
H43_2 C48_2 1_555 1_555
H44_2 C48_2 1_555 1_555
H45_2 C48_2 1_555 1_555
C49_2 C45_2 1_555 1_555
C50_2 C49_2 1_555 1_555
H46_2 C50_2 1_555 1_555
C51_2 C50_2 1_555 1_555
H47_2 C51_2 1_555 1_555
C52_2 C51_2 1_555 1_555
C53_2 C52_2 1_555 1_555
H48_2 C53_2 1_555 1_555
C54_2 C49_2 1_555 1_555
H49_2 C54_2 1_555 1_555
C55_2 C52_2 1_555 1_555
O22 C55_2 1_555 1_555
C56_2 Rh1_2 1_555 1_555
H51_2 C56_2 1_555 1_555
C57_2 Rh1_2 1_555 1_555
H52_2 C57_2 1_555 1_555
O16 Mn2 1_555 1_555
O18 Mn7_4 1_555 1_555
Mn2 O18 1_555 1_555
C3_2 C4_2 1_555 1_555
C11_2 C12_2 1_555 1_555
N3_2 N4_2 1_555 1_555
C15_2 C16_2 1_555 1_555
C23_2 C24_2 1_555 1_555
C28_2 C29_2 1_555 1_555
C36_2 C37_2 1_555 1_555
C38_2 O5_2 1_555 1_555
C40_2 C41_2 1_555 1_555
C40_2 C56_2 1_555 1_555
C41_2 C42_2 1_555 1_555
C42_2 C43_2 1_555 1_555
C43_2 C57_2 1_555 1_555
N7_2 N8_2 1_555 1_555
C45_2 C46_2 1_555 1_555
C53_2 C54_2 1_555 1_555
C56_2 C57_2 1_555 1_555
O16 C25_2 1_555 1_555
O18 C25_2 1_555 1_555
C39_2 H35_2 1_555 1_555
H50_2 C39_2 1_555 1_555
Rh2 C83 1_555 1_555
C83 H75 1_555 1_555
C85 Rh2 1_555 1_555
H77 C85 1_555 1_555
Cl1 Rh2 1_555 1_555
Cl2 Rh2 1_555 1_555
C87 Rh2 1_555 1_555
H80 C87 1_555 1_555
C89 Rh2 1_555 1_555
H82 C89 1_555 1_555
C83 C87 1_555 1_555
C85 C89 1_555 1_555
H76 C84 1_555 1_555
C86 C84 1_555 1_555
H78 C86 1_555 1_555
H79 C86 1_555 1_555
C88 C86 1_555 1_555
H81 C88 1_555 1_555
H76_2 C84_2 1_555 1_555
C86_2 C84_2 1_555 1_555
H78_2 C86_2 1_555 1_555
H79_2 C86_2 1_555 1_555
C88_2 C86_2 1_555 1_555
H81_2 C88_2 1_555 1_555
Rh2_2 C83_2 1_555 1_555
C83_2 H75_2 1_555 1_555
C85_2 Rh2_2 1_555 1_555
H77_2 C85_2 1_555 1_555
Cl1_2 Rh2_2 1_555 1_555
Cl2_2 Rh2_2 1_555 1_555
C87_2 Rh2_2 1_555 1_555
H80_2 C87_2 1_555 1_555
C89_2 Rh2_2 1_555 1_555
H82_2 C89_2 1_555 1_555
C83_2 C87_2 1_555 1_555
C85_2 C89_2 1_555 1_555

#END
