
###############################################################################
#
# This file contains modified crystal structure data generated from the
# MOF subset of the Cambridge Structural Database (CSD) v543 
# hosted by the Cambridge Crystallographic Data Centre (CCDC).
#
# This work is licensed under the Creative Commons
# Attribution-NonCommercial-ShareAlike 4.0 International License.
# To view a copy of this license, visit
# http://creativecommons.org/licenses/by-nc-sa/4.0/
# or send a letter to
# Creative Commons, PO Box 1866, Mountain View, CA 94042, USA.
#
# CIF created using the CSD Python API on 29 September 2022
# The structure has been converted into the P1 space group
# The structure has a 3D framework
# The original CSD entry TUWRIP is in the monoclinic crystal system
# The framework has been calculated to contain at least 10.0% void space
# The void calculation uses a probe of radius 1.32A, grid spacing 0.4
#
###############################################################################

data_TUWRIP
_chemical_formula_moiety         '(C328 H296 B4 F16 Mn10 N48 O48 Rh4)n'
_symmetry_cell_setting           triclinic
_symmetry_space_group_name_H-M   'P 1'
_symmetry_Int_Tables_number      1
_space_group_name_Hall           'P 1'
loop_
_symmetry_equiv_pos_site_id
_symmetry_equiv_pos_as_xyz
1 x,y,z
_cell_length_a                   12.462(3)
_cell_length_b                   34.572(7)
_cell_length_c                   25.460(5)
_cell_angle_alpha                90
_cell_angle_beta                 98.63(3)
_cell_angle_gamma                90
_cell_volume                     10844.9
loop_
_atom_site_label
_atom_site_type_symbol
_atom_site_fract_x
_atom_site_fract_y
_atom_site_fract_z
Mn2 Mn 0.06476(4) 0.49590(2) 0.25850(2)
Mn3 Mn 0.29312(4) 0.55056(2) 0.31342(2)
H9 H 0.0068 0.4590 0.0663
C38 C 0.0870(3) 0.58082(10) 0.31960(13)
O2 O 0.11852(19) 0.54659(8) 0.31131(9)
O5 O 0.1469(2) 0.60950(8) 0.32110(11)
N13 N 0.4561(2) 0.58029(8) 0.33080(10)
O13 O 0.1559(3) 0.52300(8) 0.20666(10)
O14 O 0.2904(2) 0.56427(8) 0.23243(9)
N14 N 0.2958(2) 0.56317(8) 0.40065(11)
O15 O 0.03307(19) 0.44744(7) 0.19944(9)
O17 O 0.1985(2) 0.46346(8) 0.29741(11)
O18 O 0.0111(2) 0.38501(8) 0.20930(10)
O20 O 0.3557(2) 0.49389(7) 0.32213(10)
Mn11 Mn 0.70688(4) 0.05056(2) 0.18658(2)
Mn1 Mn 0.86196(4) 0.43127(2) 0.19492(2)
C1 C 0.7634(3) 0.35134(10) 0.13630(12)
H1 H 0.7392 0.3259 0.1212
H2 H 0.8231 0.3469 0.1660
C2 C 0.3840(3) 0.62440(10) 0.38989(13)
H3 H 0.3255 0.6319 0.3610
H4 H 0.4067 0.6478 0.4111
C3 C 0.3928(3) 0.72796(10) 0.08078(14)
H5 H 0.4192 0.7313 0.0463
H6 H 0.3127 0.7258 0.0739
Rh1 Rh 0.28888(2) 0.71750(2) 0.18339(2)
N1 N 0.8027(2) 0.37464(8) 0.09585(10)
N2 N 0.4753(2) 0.60936(8) 0.36718(11)
N3 N 0.4389(2) 0.69295(9) 0.10656(12)
N4 N 0.8567(2) 0.40806(8) 0.11091(11)
N6 N 0.4074(3) 0.68422(9) 0.15457(12)
C4 C 0.8711(3) 0.42580(10) 0.06588(12)
C5 C 0.5534(3) 0.57106(10) 0.31838(13)
C6 C 0.4740(3) 0.65640(10) 0.17554(14)
C7 C 0.8242(3) 0.40378(10) 0.02149(13)
C8 C 0.6349(3) 0.59454(10) 0.34653(13)
C9 C 0.5465(3) 0.64630(10) 0.13984(14)
C10 C 0.7810(3) 0.37114(10) 0.04222(12)
C11 C 0.5821(3) 0.61873(10) 0.37758(13)
C12 C 0.5230(3) 0.67078(10) 0.09671(14)
C13 C 0.9295(3) 0.46366(12) 0.06693(14)
H7 H 0.9205 0.4777 0.0994
H8 H 0.8994 0.4790 0.0358
C14 C 0.5637(3) 0.54038(12) 0.27812(15)
H10 H 0.5799 0.5155 0.2962
H11 H 0.6226 0.5471 0.2582
H12 H 0.4954 0.5383 0.2536
C15 C 0.4696(3) 0.64008(12) 0.22934(15)
H13 H 0.4486 0.6604 0.2526
H14 H 0.5411 0.6300 0.2442
H15 H 0.4161 0.6191 0.2266
C16 C 0.7237(3) 0.33696(12) 0.01534(14)
H16 H 0.7402 0.3139 0.0375
H18 H 0.6452 0.3416 0.0100
C17 C 0.6245(3) 0.64948(12) 0.41662(17)
H19 H 0.5895 0.6742 0.4057
H20 H 0.7031 0.6520 0.4178
H21 H 0.6086 0.6424 0.4519
C18 C 0.5774(3) 0.67526(12) 0.04894(15)
H22 H 0.5243 0.6839 0.0189
H23 H 0.6083 0.6504 0.0404
H24 H 0.6355 0.6945 0.0561
C20 C 0.7524(3) 0.59228(10) 0.34319(13)
C21 C 0.6275(3) 0.61499(11) 0.14842(14)
C23 C 0.8055(3) 0.55683(11) 0.35049(14)
H26 H 0.7673 0.5348 0.3600
C24 C 0.7149(3) 0.61751(11) 0.18975(16)
H27 H 0.7257 0.6405 0.2103
C26 C 0.9145(3) 0.55330(10) 0.34397(14)
H29 H 0.9498 0.5289 0.3491
C27 C 0.7857(3) 0.58664(12) 0.20087(16)
H30 H 0.8465 0.5889 0.2281
C29 C 0.9710(3) 0.58532(10) 0.33005(13)
C30 C 0.7679(3) 0.55237(10) 0.17225(13)
C32 C 0.9199(3) 0.62144(10) 0.32499(14)
H32 H 0.9595 0.6437 0.3173
C33 C 0.6828(3) 0.54993(11) 0.13047(14)
H33 H 0.6722 0.5269 0.1101
C35 C 0.8113(3) 0.62484(10) 0.33121(14)
H35 H 0.7769 0.6494 0.3273
C36 C 0.6134(3) 0.58103(12) 0.11834(15)
H36 H 0.5558 0.5793 0.0894
C39 C 0.8382(3) 0.51807(11) 0.18895(13)
O3 O 0.8064(2) 0.48565(8) 0.16924(10)
O6 O 0.9221(2) 0.52350(9) 0.22192(12)
N7 N 0.6741(2) 0.37040(8) 0.15597(11)
N8 N 0.3429(2) 0.59578(8) 0.42361(11)
N9 N 0.4236(3) 0.76112(9) 0.11436(13)
N10 N 0.6968(2) 0.40411(9) 0.18322(11)
N12 N 0.3784(3) 0.76512(9) 0.16001(13)
C40 C 0.6014(3) 0.41847(10) 0.19116(13)
C41 C 0.2512(3) 0.54544(10) 0.43859(12)
C42 C 0.4195(3) 0.79797(11) 0.18249(15)
C43 C 0.5164(3) 0.39310(10) 0.17014(13)
C44 C 0.2687(3) 0.56716(11) 0.48620(13)
C45 C 0.4917(3) 0.81487(10) 0.15114(15)
C46 C 0.5659(3) 0.36291(10) 0.14705(13)
C47 C 0.3286(3) 0.59909(11) 0.47525(14)
C48 C 0.4932(3) 0.79028(10) 0.10807(15)
C49 C 0.5944(3) 0.45642(11) 0.21792(15)
H37 H 0.6591 0.4601 0.2445
H38 H 0.5295 0.4570 0.2354
H39 H 0.5901 0.4772 0.1915
C50 C 0.1959(4) 0.50722(12) 0.42874(14)
H40 H 0.1264 0.5108 0.4055
H41 H 0.1828 0.4961 0.4626
H42 H 0.2420 0.4897 0.4116
C51 C 0.3919(4) 0.81140(13) 0.23453(17)
H43 H 0.3152 0.8188 0.2302
H44 H 0.4370 0.8338 0.2469
H45 H 0.4055 0.7905 0.2606
C52 C 0.5180(3) 0.32865(11) 0.11718(15)
H46 H 0.5492 0.3260 0.0842
H47 H 0.4392 0.3320 0.1086
H48 H 0.5340 0.3054 0.1389
C53 C 0.3716(4) 0.63225(14) 0.50946(16)
H49 H 0.4510 0.6327 0.5128
H50 H 0.3501 0.6294 0.5447
H51 H 0.3420 0.6565 0.4933
C54 C 0.5558(3) 0.79249(11) 0.06257(16)
H52 H 0.6110 0.7721 0.0661
H53 H 0.5911 0.8178 0.0626
H54 H 0.5062 0.7890 0.0292
C55 C 0.3996(3) 0.39734(11) 0.17474(13)
C56 C 0.2267(3) 0.55956(11) 0.53625(13)
C57 C 0.5482(3) 0.85247(11) 0.16045(15)
C58 C 0.3485(3) 0.43340(11) 0.16632(14)
H55 H 0.3873 0.4547 0.1550
C59 C 0.2956(3) 0.56208(13) 0.58501(14)
H56 H 0.3714 0.5655 0.5858
C60 C 0.6603(3) 0.85618(11) 0.16220(16)
H57 H 0.7030 0.8341 0.1572
C61 C 0.2411(3) 0.43819(11) 0.17440(14)
H58 H 0.2066 0.4626 0.1682
C62 C 0.2526(3) 0.55954(12) 0.63220(14)
H59 H 0.2995 0.5620 0.6651
C63 C 0.7094(3) 0.89187(11) 0.17110(16)
H60 H 0.7860 0.8938 0.1735
C64 C 0.1843(3) 0.40695(11) 0.19157(13)
C65 C 0.1436(3) 0.55346(11) 0.63213(13)
C66 C 0.6486(3) 0.92506(10) 0.17666(13)
C67 C 0.2334(3) 0.37100(11) 0.19829(15)
H61 H 0.1936 0.3495 0.2082
C68 C 0.0754(3) 0.54849(13) 0.58389(14)
H62 H 0.0010 0.5424 0.5835
C69 C 0.5361(3) 0.92154(10) 0.17415(14)
H63 H 0.4932 0.9439 0.1772
C70 C 0.3410(3) 0.36623(11) 0.19055(15)
H64 H 0.3746 0.3416 0.1961
C71 C 0.1163(3) 0.55249(13) 0.53655(14)
H65 H 0.0687 0.5504 0.5038
C72 C 0.4869(3) 0.88546(10) 0.16725(15)
H66 H 0.4109 0.8832 0.1671
C73 C 0.0703(3) 0.41312(10) 0.20126(12)
C74 C 0.0988(3) 0.55097(10) 0.68366(12)
C75 C 0.7025(3) 0.96350(10) 0.18661(12)
O8 O 0.1523(2) 0.56817(8) 0.72329(9)
O9 O 0.8015(2) 0.96346(8) 0.20259(11)
O11 O 0.0133(2) 0.53257(8) 0.68395(10)
O12 O 0.6443(2) 0.99389(7) 0.17787(10)
C76 C 0.1544(4) 0.67982(13) 0.1690(2)
H67 H 0.1464 0.6597 0.1405
C77 C 0.2063(4) 0.67312(13) 0.21978(19)
H68 H 0.2403 0.6478 0.2317
C78 C 0.1510(4) 0.70005(16) 0.2562(2)
H69 H 0.1626 0.6940 0.2950
C79 C 0.1918(4) 0.73930(14) 0.2394(2)
H70 H 0.2162 0.7605 0.2652
C80 C 0.1397(4) 0.74596(14) 0.1883(2)
H71 H 0.1221 0.7725 0.1737
C81 C 0.0668(4) 0.71095(15) 0.1737(2)
H72 H 0.0070 0.7138 0.1431
C82 C 0.0346(4) 0.70013(17) 0.2279(3)
Mn5 Mn 0.13804(4) 0.56873(2) 0.80508(2)
Mn7 Mn 0.93524(4) 0.99590(2) 0.24150(2)
O16 O 0.8477(2) 0.43183(8) 0.27671(9)
O19 O 0.9867(2) 0.46743(8) 0.31605(10)
H17 H 0.7479 0.3329 0.9809
C19 C 0.8151(3) 0.41387(11) 0.96495(13)
C22 C 0.7155(3) 0.40907(12) 0.93127(13)
H25 H 0.6551 0.3985 0.9450
C25 C 0.7048(3) 0.41971(12) 0.87815(13)
H28 H 0.6380 0.4156 0.8555
C28 C 0.7923(3) 0.43638(11) 0.85811(13)
C31 C 0.8906(3) 0.44161(13) 0.89135(14)
H31 H 0.9500 0.4532 0.8779
C34 C 0.9022(3) 0.43004(13) 0.94392(14)
H34 H 0.9703 0.4331 0.9660
C37 C 0.7816(3) 0.45063(10) 0.80200(13)
O1 O 0.8441(3) 0.47700(8) 0.79334(10)
O4 O 0.7096(2) 0.43573(8) 0.76757(9)
Mn9 Mn 0.93524(4) 0.50410(2) 0.74150(2)
Mn12 Mn 0.70688(4) 0.44944(2) 0.68658(2)
H73 H 0.9891 0.7200 0.2418
H74 H 0.9995 0.6744 0.2278
Mn8 Mn 0.06476(4) 0.00410(2) 0.75850(2)
Mn4 Mn 0.13804(4) 0.93127(2) 0.30508(2)
C2_2 C 0.6160(3) 0.12440(10) 0.11011(13)
H3_2 H 0.6745 0.1319 0.1390
H4_2 H 0.5933 0.1478 0.0889
C3_2 C 0.6072(3) 0.22796(10) 0.41922(14)
H5_2 H 0.5808 0.2313 0.4537
H6_2 H 0.6873 0.2258 0.4261
Rh1_2 Rh 0.71112(2) 0.21750(2) 0.31661(2)
N2_2 N 0.5247(2) 0.10936(8) 0.13282(11)
N3_2 N 0.5611(2) 0.19295(9) 0.39344(12)
N5 N 0.5439(2) 0.08029(8) 0.16920(10)
N6_2 N 0.5926(3) 0.18422(9) 0.34543(12)
C5_2 C 0.4466(3) 0.07106(10) 0.18162(13)
C6_2 C 0.5260(3) 0.15640(10) 0.32446(14)
C8_2 C 0.3651(3) 0.09454(10) 0.15347(13)
C9_2 C 0.4535(3) 0.14630(10) 0.36016(14)
C11_2 C 0.4179(3) 0.11873(10) 0.12242(13)
C12_2 C 0.4770(3) 0.17078(10) 0.40329(14)
C14_2 C 0.4363(3) 0.04038(12) 0.22188(15)
H10_2 H 0.4201 0.0155 0.2038
H11_2 H 0.3774 0.0471 0.2418
H12_2 H 0.5046 0.0383 0.2464
C15_2 C 0.5304(3) 0.14008(12) 0.27066(15)
H13_2 H 0.5514 0.1604 0.2474
H14_2 H 0.4589 0.1300 0.2558
H15_2 H 0.5839 0.1191 0.2734
C17_2 C 0.3755(3) 0.14948(12) 0.08338(17)
H19_2 H 0.4105 0.1742 0.0943
H20_2 H 0.2969 0.1520 0.0822
H21_2 H 0.3914 0.1424 0.0481
C18_2 C 0.4226(3) 0.17526(12) 0.45106(15)
H22_2 H 0.4757 0.1839 0.4811
H23_2 H 0.3917 0.1504 0.4596
H24_2 H 0.3645 0.1945 0.4439
C20_2 C 0.2476(3) 0.09228(10) 0.15681(13)
C21_2 C 0.3725(3) 0.11499(11) 0.35158(14)
C23_2 C 0.1945(3) 0.05683(11) 0.14951(14)
H26_2 H 0.2327 0.0348 0.1400
C24_2 C 0.2851(3) 0.11751(11) 0.31025(16)
H27_2 H 0.2743 0.1405 0.2897
C26_2 C 0.0855(3) 0.05330(10) 0.15603(14)
H29_2 H 0.0502 0.0289 0.1509
C27_2 C 0.2143(3) 0.08664(12) 0.29913(16)
H30_2 H 0.1535 0.0889 0.2719
C29_2 C 0.0290(3) 0.08532(10) 0.16995(13)
C30_2 C 0.2321(3) 0.05237(10) 0.32775(13)
C32_2 C 0.0801(3) 0.12144(10) 0.17501(14)
H32_2 H 0.0405 0.1437 0.1827
C33_2 C 0.3172(3) 0.04993(11) 0.36953(14)
H33_2 H 0.3278 0.0269 0.3899
C35_2 C 0.1887(3) 0.12484(10) 0.16879(14)
H35_2 H 0.2231 0.1494 0.1727
C36_2 C 0.3866(3) 0.08103(12) 0.38166(15)
H36_2 H 0.4442 0.0793 0.4106
C39_2 C 0.1618(3) 0.01807(11) 0.31105(13)
O6_2 O 0.0779(2) 0.02350(9) 0.27808(12)
N8_2 N 0.6571(2) 0.09578(8) 0.07639(11)
N9_2 N 0.5764(3) 0.26112(9) 0.38564(13)
N11 N 0.7042(2) 0.06317(8) 0.09935(11)
N12_2 N 0.6216(3) 0.26512(9) 0.33999(13)
C41_2 C 0.7488(3) 0.04544(10) 0.06141(12)
C42_2 C 0.5805(3) 0.29797(11) 0.31751(15)
C44_2 C 0.7313(3) 0.06716(11) 0.01380(13)
C45_2 C 0.5083(3) 0.31487(10) 0.34886(15)
C47_2 C 0.6714(3) 0.09909(11) 0.02475(14)
C48_2 C 0.5068(3) 0.29028(10) 0.39193(15)
C50_2 C 0.8041(4) 0.00722(12) 0.07126(14)
H40_2 H 0.8736 0.0108 0.0945
C51_2 C 0.6081(4) 0.31140(13) 0.26547(17)
H43_2 H 0.6848 0.3188 0.2698
H44_2 H 0.5630 0.3338 0.2531
H45_2 H 0.5945 0.2905 0.2394
H51_2 H 0.6580 0.1565 0.0067
C54_2 C 0.4442(3) 0.29249(11) 0.43743(16)
H52_2 H 0.3890 0.2721 0.4339
H53_2 H 0.4089 0.3178 0.4374
H54_2 H 0.4938 0.2890 0.4708
C57_2 C 0.4518(3) 0.35247(11) 0.33955(15)
C60_2 C 0.3397(3) 0.35618(11) 0.33780(16)
H57_2 H 0.2970 0.3341 0.3428
C63_2 C 0.2906(3) 0.39187(11) 0.32890(16)
H60_2 H 0.2140 0.3938 0.3265
C66_2 C 0.3514(3) 0.42506(10) 0.32334(13)
C69_2 C 0.4639(3) 0.42154(10) 0.32585(14)
H63_2 H 0.5068 0.4439 0.3228
C72_2 C 0.5131(3) 0.38546(10) 0.33275(15)
H66_2 H 0.5891 0.3832 0.3329
C75_2 C 0.2975(3) 0.46350(10) 0.31339(12)
C76_2 C 0.8456(4) 0.17982(13) 0.3310(2)
H67_2 H 0.8536 0.1597 0.3595
C77_2 C 0.7937(4) 0.17312(13) 0.28022(19)
H68_2 H 0.7597 0.1478 0.2683
C78_2 C 0.8490(4) 0.20005(16) 0.2438(2)
H69_2 H 0.8374 0.1940 0.2050
C79_2 C 0.8082(4) 0.23930(14) 0.2606(2)
H70_2 H 0.7838 0.2605 0.2348
C80_2 C 0.8603(4) 0.24596(14) 0.3117(2)
H71_2 H 0.8779 0.2725 0.3263
C81_2 C 0.9332(4) 0.21095(15) 0.3263(2)
H72_2 H 0.9930 0.2138 0.3569
C82_2 C 0.9654(4) 0.20013(17) 0.2721(3)
C53_2 C 0.6284(4) 0.13225(14) 0.99054(16)
H49_2 H 0.5490 0.1327 0.9872
H50_2 H 0.6499 0.1294 0.9553
C56_2 C 0.7733(3) 0.05956(11) 0.96375(13)
C59_2 C 0.7044(3) 0.06208(13) 0.91499(14)
H56_2 H 0.6286 0.0655 0.9142
C62_2 C 0.7474(3) 0.05954(12) 0.86780(14)
H59_2 H 0.7005 0.0620 0.8349
C65_2 C 0.8564(3) 0.05346(11) 0.86787(13)
C68_2 C 0.9246(3) 0.04849(13) 0.91611(14)
H62_2 H 0.9990 0.0424 0.9165
C71_2 C 0.8837(3) 0.05249(13) 0.96345(14)
H65_2 H 0.9313 0.0504 0.9962
C74_2 C 0.9012(3) 0.05097(10) 0.81634(12)
O8_2 O 0.8477(2) 0.06817(8) 0.77671(9)
O11_2 O 0.9867(2) 0.03257(8) 0.81605(10)
Mn5_2 Mn 0.86196(4) 0.06873(2) 0.69492(2)
C1_2 C 0.2366(3) 0.85134(10) 0.36370(12)
H1_2 H 0.2608 0.8259 0.3788
H2_2 H 0.1769 0.8469 0.3340
N1_2 N 0.1973(2) 0.87464(8) 0.40415(10)
N4_2 N 0.1433(2) 0.90806(8) 0.38909(11)
C4_2 C 0.1289(3) 0.92580(10) 0.43412(12)
C7_2 C 0.1758(3) 0.90378(10) 0.47851(13)
C10_2 C 0.2190(3) 0.87114(10) 0.45778(12)
C13_2 C 0.0705(3) 0.96366(12) 0.43307(14)
H7_2 H 0.0795 0.9777 0.4006
H8_2 H 0.1006 0.9790 0.4642
C16_2 C 0.2763(3) 0.83696(12) 0.48466(14)
H16_2 H 0.2598 0.8139 0.4625
H17_2 H 0.2521 0.8329 0.5191
H18_2 H 0.3548 0.8416 0.4900
C19_2 C 0.1849(3) 0.91387(11) 0.53505(13)
C22_2 C 0.2845(3) 0.90907(12) 0.56873(13)
H25_2 H 0.3449 0.8985 0.5550
C25_2 C 0.2952(3) 0.91971(12) 0.62185(13)
H28_2 H 0.3620 0.9156 0.6445
C28_2 C 0.2077(3) 0.93638(11) 0.64189(13)
C31_2 C 0.1094(3) 0.94161(13) 0.60865(14)
H31_2 H 0.0500 0.9532 0.6221
C34_2 C 0.0978(3) 0.93004(13) 0.55608(14)
H34_2 H 0.0297 0.9331 0.5340
C37_2 C 0.2184(3) 0.95063(10) 0.69800(13)
O1_2 O 0.1559(3) 0.97700(8) 0.70666(10)
O3_2 O 0.1936(2) 0.98565(8) 0.33076(10)
O4_2 O 0.2904(2) 0.93573(8) 0.73243(9)
N7_2 N 0.3259(2) 0.87040(8) 0.34403(11)
N10_2 N 0.3032(2) 0.90411(9) 0.31678(11)
C40_2 C 0.3986(3) 0.91847(10) 0.30884(13)
C43_2 C 0.4836(3) 0.89310(10) 0.32986(13)
C46_2 C 0.4341(3) 0.86291(10) 0.35295(13)
C49_2 C 0.4056(3) 0.95642(11) 0.28208(15)
H37_2 H 0.3409 0.9601 0.2555
H38_2 H 0.4705 0.9570 0.2646
H39_2 H 0.4099 0.9772 0.3085
H41_2 H 0.8172 0.9961 0.0374
H42_2 H 0.7580 0.9897 0.0884
C52_2 C 0.4820(3) 0.82865(11) 0.38282(15)
H46_2 H 0.4508 0.8260 0.4158
H47_2 H 0.5608 0.8320 0.3914
H48_2 H 0.4660 0.8054 0.3611
C55_2 C 0.6004(3) 0.89734(11) 0.32526(13)
C58_2 C 0.6515(3) 0.93340(11) 0.33368(14)
H55_2 H 0.6127 0.9547 0.3450
C61_2 C 0.7589(3) 0.93819(11) 0.32560(14)
H58_2 H 0.7934 0.9626 0.3318
C64_2 C 0.8157(3) 0.90695(11) 0.30843(13)
C67_2 C 0.7666(3) 0.87100(11) 0.30171(15)
H61_2 H 0.8064 0.8495 0.2918
C70_2 C 0.6590(3) 0.86623(11) 0.30945(15)
H64_2 H 0.6254 0.8416 0.3039
C73_2 C 0.9297(3) 0.91312(10) 0.29874(12)
O7 O 0.96693(19) 0.94744(7) 0.30056(9)
O10 O 0.9889(2) 0.88501(8) 0.29070(10)
Mn12_2 Mn 0.29312(4) 0.94944(2) 0.81342(2)
O16_2 O 0.1523(2) 0.93183(8) 0.22329(9)
O19_2 O 0.0133(2) 0.96743(8) 0.18395(10)
C38_2 C 0.9130(3) 0.08082(10) 0.18040(13)
O2_2 O 0.88148(19) 0.04659(8) 0.18869(9)
O5_2 O 0.8531(2) 0.10950(8) 0.17890(11)
O13_2 O 0.8441(3) 0.02300(8) 0.29334(10)
O14_2 O 0.7096(2) 0.06427(8) 0.26757(9)
H9_2 H 0.9932 0.9590 0.4337
H73_2 H 0.0109 0.2800 0.7582
H74_2 H 0.0005 0.3256 0.7722
H17_3 H 0.2521 0.6671 0.0191
C19_3 C 0.1849(3) 0.58613(11) 0.03505(13)
C22_3 C 0.2845(3) 0.59093(12) 0.06873(13)
H25_3 H 0.3449 0.6015 0.0550
C25_3 C 0.2952(3) 0.58029(12) 0.12185(13)
H28_3 H 0.3620 0.5844 0.1445
C28_3 C 0.2077(3) 0.56362(11) 0.14189(13)
C31_3 C 0.1094(3) 0.55839(13) 0.10865(14)
H31_3 H 0.0500 0.5468 0.1221
C34_3 C 0.0978(3) 0.56996(13) 0.05608(14)
H34_3 H 0.0297 0.5669 0.0340
C37_3 C 0.2184(3) 0.54937(10) 0.19800(13)
C1_3 C 0.2366(3) 0.64866(10) 0.86370(12)
H1_3 H 0.2608 0.6741 0.8788
H2_3 H 0.1769 0.6531 0.8340
C2_3 C 0.6160(3) 0.37560(10) 0.61011(13)
H3_3 H 0.6745 0.3681 0.6390
H4_3 H 0.5933 0.3522 0.5889
C3_3 C 0.6072(3) 0.27204(10) 0.91922(14)
H5_3 H 0.5808 0.2687 0.9537
H6_3 H 0.6873 0.2742 0.9261
Rh1_3 Rh 0.71112(2) 0.28250(2) 0.81661(2)
N1_3 N 0.1973(2) 0.62536(8) 0.90415(10)
N2_3 N 0.5247(2) 0.39064(8) 0.63282(11)
N3_3 N 0.5611(2) 0.30705(9) 0.89344(12)
N4_3 N 0.1433(2) 0.59194(8) 0.88909(11)
N5_2 N 0.5439(2) 0.41971(8) 0.66920(10)
N6_3 N 0.5926(3) 0.31578(9) 0.84543(12)
C4_3 C 0.1289(3) 0.57420(10) 0.93412(12)
C5_3 C 0.4466(3) 0.42894(10) 0.68162(13)
C6_3 C 0.5260(3) 0.34360(10) 0.82446(14)
C7_3 C 0.1758(3) 0.59622(10) 0.97851(13)
C8_3 C 0.3651(3) 0.40546(10) 0.65347(13)
C9_3 C 0.4535(3) 0.35370(10) 0.86016(14)
C10_3 C 0.2190(3) 0.62886(10) 0.95778(12)
C11_3 C 0.4179(3) 0.38127(10) 0.62242(13)
C12_3 C 0.4770(3) 0.32922(10) 0.90329(14)
C13_3 C 0.0705(3) 0.53634(12) 0.93307(14)
H7_3 H 0.0795 0.5223 0.9006
H8_3 H 0.1006 0.5210 0.9642
C14_3 C 0.4363(3) 0.45962(12) 0.72188(15)
H10_3 H 0.4201 0.4845 0.7038
H11_3 H 0.3774 0.4529 0.7418
H12_3 H 0.5046 0.4617 0.7464
C15_3 C 0.5304(3) 0.35992(12) 0.77066(15)
H13_3 H 0.5514 0.3396 0.7474
H14_3 H 0.4589 0.3700 0.7558
H15_3 H 0.5839 0.3809 0.7734
C16_3 C 0.2763(3) 0.66304(12) 0.98466(14)
H16_3 H 0.2598 0.6861 0.9625
H18_3 H 0.3548 0.6584 0.9900
C17_3 C 0.3755(3) 0.35052(12) 0.58338(17)
H19_3 H 0.4105 0.3258 0.5943
H20_3 H 0.2969 0.3480 0.5822
H21_3 H 0.3914 0.3576 0.5481
C18_3 C 0.4226(3) 0.32474(12) 0.95106(15)
H22_3 H 0.4757 0.3161 0.9811
H23_3 H 0.3917 0.3496 0.9596
H24_3 H 0.3645 0.3055 0.9439
C20_3 C 0.2476(3) 0.40772(10) 0.65681(13)
C21_3 C 0.3725(3) 0.38501(11) 0.85158(14)
C23_3 C 0.1945(3) 0.44317(11) 0.64951(14)
H26_3 H 0.2327 0.4652 0.6400
C24_3 C 0.2851(3) 0.38249(11) 0.81025(16)
H27_3 H 0.2743 0.3595 0.7897
C26_3 C 0.0855(3) 0.44670(10) 0.65603(14)
H29_3 H 0.0502 0.4711 0.6509
C27_3 C 0.2143(3) 0.41336(12) 0.79913(16)
H30_3 H 0.1535 0.4111 0.7719
C29_3 C 0.0290(3) 0.41468(10) 0.66995(13)
C30_3 C 0.2321(3) 0.44763(10) 0.82775(13)
C32_3 C 0.0801(3) 0.37856(10) 0.67501(14)
H32_3 H 0.0405 0.3563 0.6827
C33_3 C 0.3172(3) 0.45007(11) 0.86953(14)
H33_3 H 0.3278 0.4731 0.8899
C35_3 C 0.1887(3) 0.37516(10) 0.66879(14)
H35_3 H 0.2231 0.3506 0.6727
C36_3 C 0.3866(3) 0.41897(12) 0.88166(15)
H36_3 H 0.4442 0.4207 0.9106
C39_3 C 0.1618(3) 0.48193(11) 0.81105(13)
O3_3 O 0.1936(2) 0.51435(8) 0.83076(10)
O6_3 O 0.0779(2) 0.47650(9) 0.77808(12)
N7_3 N 0.3259(2) 0.62960(8) 0.84403(11)
N8_3 N 0.6571(2) 0.40422(8) 0.57639(11)
N9_3 N 0.5764(3) 0.23888(9) 0.88564(13)
N10_3 N 0.3032(2) 0.59589(9) 0.81678(11)
N11_2 N 0.7042(2) 0.43683(8) 0.59935(11)
N12_3 N 0.6216(3) 0.23488(9) 0.83999(13)
C40_3 C 0.3986(3) 0.58153(10) 0.80884(13)
C41_3 C 0.7488(3) 0.45456(10) 0.56141(12)
C42_3 C 0.5805(3) 0.20203(11) 0.81751(15)
C43_3 C 0.4836(3) 0.60690(10) 0.82986(13)
C44_3 C 0.7313(3) 0.43284(11) 0.51380(13)
C45_3 C 0.5083(3) 0.18513(10) 0.84886(15)
C46_3 C 0.4341(3) 0.63709(10) 0.85295(13)
C47_3 C 0.6714(3) 0.40091(11) 0.52475(14)
C48_3 C 0.5068(3) 0.20972(10) 0.89193(15)
C49_3 C 0.4056(3) 0.54358(11) 0.78208(15)
H37_3 H 0.3409 0.5399 0.7555
H38_3 H 0.4705 0.5430 0.7646
H39_3 H 0.4099 0.5228 0.8085
C50_3 C 0.8041(4) 0.49278(12) 0.57126(14)
H40_3 H 0.8736 0.4892 0.5945
H41_3 H 0.8172 0.5039 0.5374
H42_3 H 0.7580 0.5103 0.5884
C51_3 C 0.6081(4) 0.18860(13) 0.76547(17)
H43_3 H 0.6848 0.1812 0.7698
H44_3 H 0.5630 0.1662 0.7531
H45_3 H 0.5945 0.2095 0.7394
C52_3 C 0.4820(3) 0.67135(11) 0.88282(15)
H46_3 H 0.4508 0.6740 0.9158
H47_3 H 0.5608 0.6680 0.8914
H48_3 H 0.4660 0.6946 0.8611
C53_3 C 0.6284(4) 0.36775(14) 0.49054(16)
H49_3 H 0.5490 0.3673 0.4872
H50_3 H 0.6499 0.3706 0.4553
H51_3 H 0.6580 0.3435 0.5067
C54_3 C 0.4442(3) 0.20751(11) 0.93743(16)
H52_3 H 0.3890 0.2279 0.9339
H53_3 H 0.4089 0.1822 0.9374
H54_3 H 0.4938 0.2110 0.9708
C55_3 C 0.6004(3) 0.60266(11) 0.82526(13)
C56_3 C 0.7733(3) 0.44044(11) 0.46375(13)
C57_3 C 0.4518(3) 0.14753(11) 0.83955(15)
C58_3 C 0.6515(3) 0.56660(11) 0.83368(14)
H55_3 H 0.6127 0.5453 0.8450
C59_3 C 0.7044(3) 0.43792(13) 0.41499(14)
H56_3 H 0.6286 0.4345 0.4142
C60_3 C 0.3397(3) 0.14382(11) 0.83780(16)
H57_3 H 0.2970 0.1659 0.8428
C61_3 C 0.7589(3) 0.56181(11) 0.82560(14)
H58_3 H 0.7934 0.5374 0.8318
C62_3 C 0.7474(3) 0.44046(12) 0.36780(14)
H59_3 H 0.7005 0.4380 0.3349
C63_3 C 0.2906(3) 0.10813(11) 0.82890(16)
H60_3 H 0.2140 0.1062 0.8265
C64_3 C 0.8157(3) 0.59305(11) 0.80843(13)
C65_3 C 0.8564(3) 0.44654(11) 0.36787(13)
C66_3 C 0.3514(3) 0.07494(10) 0.82334(13)
C67_3 C 0.7666(3) 0.62900(11) 0.80171(15)
H61_3 H 0.8064 0.6505 0.7918
C68_3 C 0.9246(3) 0.45151(13) 0.41611(14)
H62_3 H 0.9990 0.4576 0.4165
C69_3 C 0.4639(3) 0.07846(10) 0.82585(14)
H63_3 H 0.5068 0.0561 0.8228
C70_3 C 0.6590(3) 0.63377(11) 0.80945(15)
H64_3 H 0.6254 0.6584 0.8039
C71_3 C 0.8837(3) 0.44751(13) 0.46345(14)
H65_3 H 0.9313 0.4496 0.4962
C72_3 C 0.5131(3) 0.11454(10) 0.83275(15)
H66_3 H 0.5891 0.1168 0.8329
C73_3 C 0.9297(3) 0.58688(10) 0.79874(12)
C74_3 C 0.9012(3) 0.44903(10) 0.31634(12)
C75_3 C 0.2975(3) 0.03650(10) 0.81339(12)
O7_2 O 0.96693(19) 0.55256(7) 0.80056(9)
O9_2 O 0.1985(2) 0.03654(8) 0.79741(11)
O10_2 O 0.9889(2) 0.61499(8) 0.79070(10)
O12_2 O 0.3557(2) 0.00611(7) 0.82213(10)
C76_3 C 0.8456(4) 0.32018(13) 0.8310(2)
H67_3 H 0.8536 0.3403 0.8595
C77_3 C 0.7937(4) 0.32688(13) 0.78022(19)
H68_3 H 0.7597 0.3522 0.7683
C78_3 C 0.8490(4) 0.29995(16) 0.7438(2)
H69_3 H 0.8374 0.3060 0.7050
C79_3 C 0.8082(4) 0.26070(14) 0.7606(2)
H70_3 H 0.7838 0.2395 0.7348
C80_3 C 0.8603(4) 0.25404(14) 0.8117(2)
H71_3 H 0.8779 0.2275 0.8263
C81_3 C 0.9332(4) 0.28905(15) 0.8263(2)
H72_3 H 0.9930 0.2862 0.8569
C82_3 C 0.9654(4) 0.29987(17) 0.7721(3)
H9_3 H 0.9932 0.5410 0.9337
C38_3 C 0.9130(3) 0.41918(10) 0.68040(13)
O2_3 O 0.88148(19) 0.45341(8) 0.68869(9)
O5_3 O 0.8531(2) 0.39050(8) 0.67890(11)
O17_2 O 0.8015(2) 0.53654(8) 0.70259(11)
O20_2 O 0.6443(2) 0.50611(7) 0.67787(10)
H9_4 H 0.0068 0.0410 0.5663
O15_2 O 0.03307(19) 0.05256(7) 0.69944(9)
O18_2 O 0.0111(2) 0.11499(8) 0.70930(10)
C38_4 C 0.0870(3) 0.91918(10) 0.81960(13)
O2_4 O 0.11852(19) 0.95341(8) 0.81131(9)
O5_4 O 0.1469(2) 0.89050(8) 0.82110(11)
N13_2 N 0.4561(2) 0.91971(8) 0.83080(10)
N14_2 N 0.2958(2) 0.93683(8) 0.90065(11)
C1_4 C 0.7634(3) 0.14866(10) 0.63630(12)
H1_4 H 0.7392 0.1741 0.6212
H2_4 H 0.8231 0.1531 0.6660
N1_4 N 0.8027(2) 0.12536(8) 0.59585(10)
N4_4 N 0.8567(2) 0.09194(8) 0.61091(11)
C4_4 C 0.8711(3) 0.07420(10) 0.56588(12)
C7_4 C 0.8242(3) 0.09622(10) 0.52149(13)
C10_4 C 0.7810(3) 0.12886(10) 0.54222(12)
C13_4 C 0.9295(3) 0.03634(12) 0.56693(14)
H7_4 H 0.9205 0.0223 0.5994
H8_4 H 0.8994 0.0210 0.5358
C16_4 C 0.7237(3) 0.16304(12) 0.51534(14)
H16_4 H 0.7402 0.1861 0.5375
H17_4 H 0.7479 0.1671 0.4809
H18_4 H 0.6452 0.1584 0.5100
C19_4 C 0.8151(3) 0.08613(11) 0.46495(13)
C22_4 C 0.7155(3) 0.09093(12) 0.43127(13)
H25_4 H 0.6551 0.1015 0.4450
C25_4 C 0.7048(3) 0.08029(12) 0.37815(13)
H28_4 H 0.6380 0.0844 0.3555
C28_4 C 0.7923(3) 0.06362(11) 0.35811(13)
C31_4 C 0.8906(3) 0.05839(13) 0.39135(14)
H31_4 H 0.9500 0.0468 0.3779
C34_4 C 0.9022(3) 0.06996(13) 0.44392(14)
H34_4 H 0.9703 0.0669 0.4660
C37_4 C 0.7816(3) 0.04937(10) 0.30200(13)
O3_4 O 0.8064(2) 0.01435(8) 0.66924(10)
N7_4 N 0.6741(2) 0.12960(8) 0.65597(11)
N10_4 N 0.6968(2) 0.09589(9) 0.68322(11)
C40_4 C 0.6014(3) 0.08153(10) 0.69116(13)
C43_4 C 0.5164(3) 0.10690(10) 0.67014(13)
C46_4 C 0.5659(3) 0.13709(10) 0.64705(13)
C49_4 C 0.5944(3) 0.04358(11) 0.71792(15)
H37_4 H 0.6591 0.0399 0.7445
H38_4 H 0.5295 0.0430 0.7354
H39_4 H 0.5901 0.0228 0.6915
H41_4 H 0.1828 0.0039 0.9626
H42_4 H 0.2420 0.0103 0.9116
C52_4 C 0.5180(3) 0.17135(11) 0.61718(15)
H46_4 H 0.5492 0.1740 0.5842
H47_4 H 0.4392 0.1680 0.6086
H48_4 H 0.5340 0.1946 0.6389
C55_4 C 0.3996(3) 0.10266(11) 0.67474(13)
C58_4 C 0.3485(3) 0.06660(11) 0.66632(14)
H55_4 H 0.3873 0.0453 0.6550
C61_4 C 0.2411(3) 0.06181(11) 0.67440(14)
H58_4 H 0.2066 0.0374 0.6682
C64_4 C 0.1843(3) 0.09305(11) 0.69157(13)
C67_4 C 0.2334(3) 0.12900(11) 0.69829(15)
H61_4 H 0.1936 0.1505 0.7082
C70_4 C 0.3410(3) 0.13377(11) 0.69055(15)
H64_4 H 0.3746 0.1584 0.6961
C73_4 C 0.0703(3) 0.08688(10) 0.70126(12)
C53_4 C 0.3716(4) 0.86775(14) 0.00946(16)
H49_4 H 0.4510 0.8673 0.0128
H50_4 H 0.3501 0.8706 0.0447
C56_4 C 0.2267(3) 0.94044(11) 0.03625(13)
C59_4 C 0.2956(3) 0.93792(13) 0.08501(14)
H56_4 H 0.3714 0.9345 0.0858
C62_4 C 0.2526(3) 0.94046(12) 0.13220(14)
H59_4 H 0.2995 0.9380 0.1651
C65_4 C 0.1436(3) 0.94654(11) 0.13213(13)
C68_4 C 0.0754(3) 0.95151(13) 0.08389(14)
H62_4 H 0.0010 0.9576 0.0835
C71_4 C 0.1163(3) 0.94751(13) 0.03655(14)
H65_4 H 0.0687 0.9496 0.0038
C74_4 C 0.0988(3) 0.94903(10) 0.18366(12)
C2_4 C 0.3840(3) 0.87560(10) 0.88989(13)
H3_4 H 0.3255 0.8681 0.8610
H4_4 H 0.4067 0.8522 0.9111
C3_4 C 0.3928(3) 0.77204(10) 0.58078(14)
H5_4 H 0.4192 0.7687 0.5463
H6_4 H 0.3127 0.7742 0.5739
Rh1_4 Rh 0.28888(2) 0.78250(2) 0.68339(2)
N2_4 N 0.4753(2) 0.89064(8) 0.86718(11)
N3_4 N 0.4389(2) 0.80705(9) 0.60656(12)
N6_4 N 0.4074(3) 0.81578(9) 0.65457(12)
C5_4 C 0.5534(3) 0.92894(10) 0.81838(13)
C6_4 C 0.4740(3) 0.84360(10) 0.67554(14)
C8_4 C 0.6349(3) 0.90546(10) 0.84653(13)
C9_4 C 0.5465(3) 0.85370(10) 0.63984(14)
C11_4 C 0.5821(3) 0.88127(10) 0.87758(13)
C12_4 C 0.5230(3) 0.82922(10) 0.59671(14)
C14_4 C 0.5637(3) 0.95962(12) 0.77812(15)
H10_4 H 0.5799 0.9845 0.7962
H11_4 H 0.6226 0.9529 0.7582
H12_4 H 0.4954 0.9617 0.7536
C15_4 C 0.4696(3) 0.85992(12) 0.72934(15)
H13_4 H 0.4486 0.8396 0.7526
H14_4 H 0.5411 0.8700 0.7442
H15_4 H 0.4161 0.8809 0.7266
C17_4 C 0.6245(3) 0.85052(12) 0.91662(17)
H19_4 H 0.5895 0.8258 0.9057
H20_4 H 0.7031 0.8480 0.9178
H21_4 H 0.6086 0.8576 0.9519
C18_4 C 0.5774(3) 0.82474(12) 0.54894(15)
H22_4 H 0.5243 0.8161 0.5189
H23_4 H 0.6083 0.8496 0.5404
H24_4 H 0.6355 0.8055 0.5561
C20_4 C 0.7524(3) 0.90772(10) 0.84319(13)
C21_4 C 0.6275(3) 0.88501(11) 0.64842(14)
C23_4 C 0.8055(3) 0.94317(11) 0.85049(14)
H26_4 H 0.7673 0.9652 0.8600
C24_4 C 0.7149(3) 0.88249(11) 0.68975(16)
H27_4 H 0.7257 0.8595 0.7103
C26_4 C 0.9145(3) 0.94670(10) 0.84397(14)
H29_4 H 0.9498 0.9711 0.8491
C27_4 C 0.7857(3) 0.91336(12) 0.70087(16)
H30_4 H 0.8465 0.9111 0.7281
C29_4 C 0.9710(3) 0.91468(10) 0.83005(13)
C30_4 C 0.7679(3) 0.94763(10) 0.67225(13)
C32_4 C 0.9199(3) 0.87856(10) 0.82499(14)
H32_4 H 0.9595 0.8563 0.8173
C33_4 C 0.6828(3) 0.95007(11) 0.63047(14)
H33_4 H 0.6722 0.9731 0.6101
C35_4 C 0.8113(3) 0.87516(10) 0.83121(14)
H35_4 H 0.7769 0.8506 0.8273
C36_4 C 0.6134(3) 0.91897(12) 0.61834(15)
H36_4 H 0.5558 0.9207 0.5894
C39_4 C 0.8382(3) 0.98193(11) 0.68895(13)
O6_4 O 0.9221(2) 0.97650(9) 0.72192(12)
N8_4 N 0.3429(2) 0.90422(8) 0.92361(11)
N9_4 N 0.4236(3) 0.73888(9) 0.61436(13)
N12_4 N 0.3784(3) 0.73488(9) 0.66001(13)
C41_4 C 0.2512(3) 0.95456(10) 0.93859(12)
C42_4 C 0.4195(3) 0.70203(11) 0.68249(15)
C44_4 C 0.2687(3) 0.93284(11) 0.98620(13)
C45_4 C 0.4917(3) 0.68513(10) 0.65114(15)
C47_4 C 0.3286(3) 0.90091(11) 0.97525(14)
C48_4 C 0.4932(3) 0.70972(10) 0.60807(15)
C50_4 C 0.1959(4) 0.99278(12) 0.92874(14)
H40_4 H 0.1264 0.9892 0.9055
C51_4 C 0.3919(4) 0.68860(13) 0.73453(17)
H43_4 H 0.3152 0.6812 0.7302
H44_4 H 0.4370 0.6662 0.7469
H45_4 H 0.4055 0.7095 0.7606
H51_4 H 0.3420 0.8435 0.9933
C54_4 C 0.5558(3) 0.70751(11) 0.56257(16)
H52_4 H 0.6110 0.7279 0.5661
H53_4 H 0.5911 0.6822 0.5626
H54_4 H 0.5062 0.7110 0.5292
C57_4 C 0.5482(3) 0.64753(11) 0.66045(15)
C60_4 C 0.6603(3) 0.64382(11) 0.66220(16)
H57_4 H 0.7030 0.6659 0.6572
C63_4 C 0.7094(3) 0.60813(11) 0.67110(16)
H60_4 H 0.7860 0.6062 0.6735
C66_4 C 0.6486(3) 0.57494(10) 0.67666(13)
C69_4 C 0.5361(3) 0.57846(10) 0.67415(14)
H63_4 H 0.4932 0.5561 0.6772
C72_4 C 0.4869(3) 0.61454(10) 0.66725(15)
H66_4 H 0.4109 0.6168 0.6671
C75_4 C 0.7025(3) 0.53650(10) 0.68661(12)
C76_4 C 0.1544(4) 0.82018(13) 0.6690(2)
H67_4 H 0.1464 0.8403 0.6405
C77_4 C 0.2063(4) 0.82688(13) 0.71978(19)
H68_4 H 0.2403 0.8522 0.7317
C78_4 C 0.1510(4) 0.79995(16) 0.7562(2)
H69_4 H 0.1626 0.8060 0.7950
C79_4 C 0.1918(4) 0.76070(14) 0.7394(2)
H70_4 H 0.2162 0.7395 0.7652
C80_4 C 0.1397(4) 0.75404(14) 0.6883(2)
H71_4 H 0.1221 0.7275 0.6737
C81_4 C 0.0668(4) 0.78905(15) 0.6737(2)
H72_4 H 0.0070 0.7862 0.6431
C82_4 C 0.0346(4) 0.79987(17) 0.7279(3)
H73_3 H 0.0109 0.2200 0.2582
H74_3 H 0.0005 0.1744 0.2722
H73_4 H 0.9891 0.7800 0.7418
H74_4 H 0.9995 0.8256 0.7278
B1 B 0.3514(6) 0.76416(16) 0.9135(3)
F1 F 0.4104(4) 0.74269(10) 0.95485(13)
F2 F 0.2854(3) 0.73986(9) 0.88077(16)
F3 F 0.2908(5) 0.79250(15) 0.9339(3)
F4 F 0.4231(4) 0.78251(13) 0.8857(2)
B1_2 B 0.6486(6) 0.26416(16) 0.5865(3)
F1_2 F 0.5896(4) 0.24269(10) 0.54515(13)
F2_2 F 0.7146(3) 0.23986(9) 0.61923(16)
F3_2 F 0.7092(5) 0.29250(15) 0.5661(3)
F4_2 F 0.5769(4) 0.28251(13) 0.6143(2)
B1_3 B 0.6486(6) 0.23584(16) 0.0865(3)
F1_3 F 0.5896(4) 0.25731(10) 0.04515(13)
F2_3 F 0.7146(3) 0.26014(9) 0.11923(16)
F3_3 F 0.7092(5) 0.20750(15) 0.0661(3)
F4_3 F 0.5769(4) 0.21749(13) 0.1143(2)
B1_4 B 0.3514(6) 0.73584(16) 0.4135(3)
F1_4 F 0.4104(4) 0.75731(10) 0.45485(13)
F2_4 F 0.2854(3) 0.76014(9) 0.38077(16)
F3_4 F 0.2908(5) 0.70750(15) 0.4339(3)
F4_4 F 0.4231(4) 0.71749(13) 0.3857(2)
loop_
_geom_bond_atom_site_label_1
_geom_bond_atom_site_label_2
_geom_bond_site_symmetry_1
_geom_bond_site_symmetry_2
Mn2 O2 1_555 1_555
Mn3 O2 1_555 1_555
O2 C38 1_555 1_555
O5 C38 1_555 1_555
N13 Mn3 1_555 1_555
O13 Mn2 1_555 1_555
O14 Mn3 1_555 1_555
N14 Mn3 1_555 1_555
O17 Mn2 1_555 1_555
O20 Mn3 1_555 1_555
Mn2 O15 1_555 1_555
Mn1 N4 1_555 1_555
C1 H1 1_555 1_555
H2 C1 1_555 1_555
C2 H3 1_555 1_555
H4 C2 1_555 1_555
C3 H5 1_555 1_555
H6 C3 1_555 1_555
Rh1 N6 1_555 1_555
N1 C1 1_555 1_555
N2 C2 1_555 1_555
N3 C3 1_555 1_555
N4 N1 1_555 1_555
N13 N2 1_555 1_555
N6 N3 1_555 1_555
C4 N4 1_555 1_555
C5 N13 1_555 1_555
C6 N6 1_555 1_555
C7 C4 1_555 1_555
C8 C5 1_555 1_555
C9 C6 1_555 1_555
C10 N1 1_555 1_555
C11 N2 1_555 1_555
C12 N3 1_555 1_555
C13 C4 1_555 1_555
H7 C13 1_555 1_555
H8 C13 1_555 1_555
C14 C5 1_555 1_555
H10 C14 1_555 1_555
H11 C14 1_555 1_555
H12 C14 1_555 1_555
C15 C6 1_555 1_555
H13 C15 1_555 1_555
H14 C15 1_555 1_555
H15 C15 1_555 1_555
C16 C10 1_555 1_555
H16 C16 1_555 1_555
H18 C16 1_555 1_555
C17 C11 1_555 1_555
H19 C17 1_555 1_555
H20 C17 1_555 1_555
H21 C17 1_555 1_555
C18 C12 1_555 1_555
H22 C18 1_555 1_555
H23 C18 1_555 1_555
H24 C18 1_555 1_555
C20 C8 1_555 1_555
C21 C9 1_555 1_555
C23 C20 1_555 1_555
H26 C23 1_555 1_555
C24 C21 1_555 1_555
H27 C24 1_555 1_555
C26 C23 1_555 1_555
H29 C26 1_555 1_555
C27 C24 1_555 1_555
H30 C27 1_555 1_555
C29 C26 1_555 1_555
C30 C27 1_555 1_555
C32 C29 1_555 1_555
H32 C32 1_555 1_555
C33 C30 1_555 1_555
H33 C33 1_555 1_555
C35 C20 1_555 1_555
H35 C35 1_555 1_555
C36 C21 1_555 1_555
H36 C36 1_555 1_555
C39 C30 1_555 1_555
O3 Mn1 1_555 1_555
N7 C1 1_555 1_555
N8 C2 1_555 1_555
N9 C3 1_555 1_555
N10 Mn1 1_555 1_555
N14 N8 1_555 1_555
N12 Rh1 1_555 1_555
C40 N10 1_555 1_555
C41 N14 1_555 1_555
C42 N12 1_555 1_555
C43 C40 1_555 1_555
C44 C41 1_555 1_555
C45 C42 1_555 1_555
C46 N7 1_555 1_555
C47 N8 1_555 1_555
C48 N9 1_555 1_555
C49 C40 1_555 1_555
H37 C49 1_555 1_555
H38 C49 1_555 1_555
H39 C49 1_555 1_555
C50 C41 1_555 1_555
H40 C50 1_555 1_555
H41 C50 1_555 1_555
H42 C50 1_555 1_555
C51 C42 1_555 1_555
H43 C51 1_555 1_555
H44 C51 1_555 1_555
H45 C51 1_555 1_555
C52 C46 1_555 1_555
H46 C52 1_555 1_555
H47 C52 1_555 1_555
H48 C52 1_555 1_555
C53 C47 1_555 1_555
H49 C53 1_555 1_555
H50 C53 1_555 1_555
H51 C53 1_555 1_555
C54 C48 1_555 1_555
H52 C54 1_555 1_555
H53 C54 1_555 1_555
H54 C54 1_555 1_555
C55 C43 1_555 1_555
C56 C44 1_555 1_555
C57 C45 1_555 1_555
C58 C55 1_555 1_555
H55 C58 1_555 1_555
C59 C56 1_555 1_555
H56 C59 1_555 1_555
C60 C57 1_555 1_555
H57 C60 1_555 1_555
C61 C58 1_555 1_555
H58 C61 1_555 1_555
C62 C59 1_555 1_555
H59 C62 1_555 1_555
C63 C60 1_555 1_555
H60 C63 1_555 1_555
C64 C61 1_555 1_555
C65 C62 1_555 1_555
C66 C63 1_555 1_555
C67 C64 1_555 1_555
H61 C67 1_555 1_555
C68 C65 1_555 1_555
H62 C68 1_555 1_555
C69 C66 1_555 1_555
H63 C69 1_555 1_555
C70 C55 1_555 1_555
H64 C70 1_555 1_555
C71 C56 1_555 1_555
H65 C71 1_555 1_555
C72 C57 1_555 1_555
H66 C72 1_555 1_555
C73 C64 1_555 1_555
C74 C65 1_555 1_555
C75 C66 1_555 1_555
O15 C73 1_555 1_555
O8 C74 1_555 1_555
O9 C75 1_555 1_555
O18 C73 1_555 1_555
O11 C74 1_555 1_555
O12 C75 1_555 1_555
C76 Rh1 1_555 1_555
H67 C76 1_555 1_555
C77 Rh1 1_555 1_555
H68 C77 1_555 1_555
C78 C77 1_555 1_555
H69 C78 1_555 1_555
C79 Rh1 1_555 1_555
H70 C79 1_555 1_555
C80 Rh1 1_555 1_555
H71 C80 1_555 1_555
C81 C76 1_555 1_555
H72 C81 1_555 1_555
C82 C78 1_555 1_555
Mn5 O8 1_555 1_555
Mn7 O9 1_555 1_555
O16 Mn1 1_555 1_555
C7 C10 1_555 1_555
C8 C11 1_555 1_555
C9 C12 1_555 1_555
C32 C35 1_555 1_555
C33 C36 1_555 1_555
C39 O3 1_555 1_555
C39 O6 1_555 1_555
N7 N10 1_555 1_555
N9 N12 1_555 1_555
C43 C46 1_555 1_555
C44 C47 1_555 1_555
C45 C48 1_555 1_555
C67 C70 1_555 1_555
C68 C71 1_555 1_555
C69 C72 1_555 1_555
C76 C77 1_555 1_555
C78 C79 1_555 1_555
C79 C80 1_555 1_555
C80 C81 1_555 1_555
C81 C82 1_555 1_555
C22 C19 1_555 1_555
H25 C22 1_555 1_555
C25 C22 1_555 1_555
H28 C25 1_555 1_555
C28 C25 1_555 1_555
C31 C28 1_555 1_555
H31 C31 1_555 1_555
C34 C19 1_555 1_555
H34 C34 1_555 1_555
C37 C28 1_555 1_555
O1 C37 1_555 1_555
O4 C37 1_555 1_555
Mn9 O1 1_555 1_555
Mn12 O4 1_555 1_555
C31 C34 1_555 1_555
C2_2 H3_2 1_555 1_555
H4_2 C2_2 1_555 1_555
C3_2 H5_2 1_555 1_555
H6_2 C3_2 1_555 1_555
Rh1_2 N6_2 1_555 1_555
N2_2 C2_2 1_555 1_555
N3_2 C3_2 1_555 1_555
N5 N2_2 1_555 1_555
N6_2 N3_2 1_555 1_555
C5_2 N5 1_555 1_555
C6_2 N6_2 1_555 1_555
C8_2 C5_2 1_555 1_555
C9_2 C6_2 1_555 1_555
C11_2 N2_2 1_555 1_555
C12_2 N3_2 1_555 1_555
C14_2 C5_2 1_555 1_555
H10_2 C14_2 1_555 1_555
H11_2 C14_2 1_555 1_555
H12_2 C14_2 1_555 1_555
C15_2 C6_2 1_555 1_555
H13_2 C15_2 1_555 1_555
H14_2 C15_2 1_555 1_555
H15_2 C15_2 1_555 1_555
C17_2 C11_2 1_555 1_555
H19_2 C17_2 1_555 1_555
H20_2 C17_2 1_555 1_555
H21_2 C17_2 1_555 1_555
C18_2 C12_2 1_555 1_555
H22_2 C18_2 1_555 1_555
H23_2 C18_2 1_555 1_555
H24_2 C18_2 1_555 1_555
C20_2 C8_2 1_555 1_555
C21_2 C9_2 1_555 1_555
C23_2 C20_2 1_555 1_555
H26_2 C23_2 1_555 1_555
C24_2 C21_2 1_555 1_555
H27_2 C24_2 1_555 1_555
C26_2 C23_2 1_555 1_555
H29_2 C26_2 1_555 1_555
C27_2 C24_2 1_555 1_555
H30_2 C27_2 1_555 1_555
C29_2 C26_2 1_555 1_555
C30_2 C27_2 1_555 1_555
C32_2 C29_2 1_555 1_555
H32_2 C32_2 1_555 1_555
C33_2 C30_2 1_555 1_555
H33_2 C33_2 1_555 1_555
C35_2 C20_2 1_555 1_555
H35_2 C35_2 1_555 1_555
C36_2 C21_2 1_555 1_555
H36_2 C36_2 1_555 1_555
C39_2 C30_2 1_555 1_555
N8_2 C2_2 1_555 1_555
N9_2 C3_2 1_555 1_555
N11 N8_2 1_555 1_555
N12_2 Rh1_2 1_555 1_555
C41_2 N11 1_555 1_555
C42_2 N12_2 1_555 1_555
C44_2 C41_2 1_555 1_555
C45_2 C42_2 1_555 1_555
C47_2 N8_2 1_555 1_555
C48_2 N9_2 1_555 1_555
C50_2 C41_2 1_555 1_555
H40_2 C50_2 1_555 1_555
C51_2 C42_2 1_555 1_555
H43_2 C51_2 1_555 1_555
H44_2 C51_2 1_555 1_555
H45_2 C51_2 1_555 1_555
C54_2 C48_2 1_555 1_555
H52_2 C54_2 1_555 1_555
H53_2 C54_2 1_555 1_555
H54_2 C54_2 1_555 1_555
C57_2 C45_2 1_555 1_555
C60_2 C57_2 1_555 1_555
H57_2 C60_2 1_555 1_555
C63_2 C60_2 1_555 1_555
H60_2 C63_2 1_555 1_555
C66_2 C63_2 1_555 1_555
C69_2 C66_2 1_555 1_555
H63_2 C69_2 1_555 1_555
C72_2 C57_2 1_555 1_555
H66_2 C72_2 1_555 1_555
C75_2 C66_2 1_555 1_555
O17 C75_2 1_555 1_555
O20 C75_2 1_555 1_555
C76_2 Rh1_2 1_555 1_555
H67_2 C76_2 1_555 1_555
C77_2 Rh1_2 1_555 1_555
H68_2 C77_2 1_555 1_555
C78_2 C77_2 1_555 1_555
H69_2 C78_2 1_555 1_555
C79_2 Rh1_2 1_555 1_555
H70_2 C79_2 1_555 1_555
C80_2 Rh1_2 1_555 1_555
H71_2 C80_2 1_555 1_555
C81_2 C76_2 1_555 1_555
H72_2 C81_2 1_555 1_555
C82_2 C78_2 1_555 1_555
Mn11 N5 1_555 1_555
C8_2 C11_2 1_555 1_555
C9_2 C12_2 1_555 1_555
C32_2 C35_2 1_555 1_555
C33_2 C36_2 1_555 1_555
C39_2 O6_2 1_555 1_555
N9_2 N12_2 1_555 1_555
N11 Mn11 1_555 1_555
C44_2 C47_2 1_555 1_555
C45_2 C48_2 1_555 1_555
C69_2 C72_2 1_555 1_555
C76_2 C77_2 1_555 1_555
C78_2 C79_2 1_555 1_555
C79_2 C80_2 1_555 1_555
C80_2 C81_2 1_555 1_555
C81_2 C82_2 1_555 1_555
H49_2 C53_2 1_555 1_555
H50_2 C53_2 1_555 1_555
C59_2 C56_2 1_555 1_555
H56_2 C59_2 1_555 1_555
C62_2 C59_2 1_555 1_555
H59_2 C62_2 1_555 1_555
C65_2 C62_2 1_555 1_555
C68_2 C65_2 1_555 1_555
H62_2 C68_2 1_555 1_555
C71_2 C56_2 1_555 1_555
H65_2 C71_2 1_555 1_555
C74_2 C65_2 1_555 1_555
O8_2 C74_2 1_555 1_555
O11_2 C74_2 1_555 1_555
Mn5_2 O8_2 1_555 1_555
C68_2 C71_2 1_555 1_555
Mn4 N4_2 1_555 1_555
C1_2 H1_2 1_555 1_555
H2_2 C1_2 1_555 1_555
N1_2 C1_2 1_555 1_555
N4_2 N1_2 1_555 1_555
C4_2 N4_2 1_555 1_555
C7_2 C4_2 1_555 1_555
C10_2 N1_2 1_555 1_555
C13_2 C4_2 1_555 1_555
H7_2 C13_2 1_555 1_555
H8_2 C13_2 1_555 1_555
C16_2 C10_2 1_555 1_555
H16_2 C16_2 1_555 1_555
H17_2 C16_2 1_555 1_555
H18_2 C16_2 1_555 1_555
C19_2 C7_2 1_555 1_555
C22_2 C19_2 1_555 1_555
H25_2 C22_2 1_555 1_555
C25_2 C22_2 1_555 1_555
H28_2 C25_2 1_555 1_555
C28_2 C25_2 1_555 1_555
C31_2 C28_2 1_555 1_555
H31_2 C31_2 1_555 1_555
C34_2 C19_2 1_555 1_555
H34_2 C34_2 1_555 1_555
C37_2 C28_2 1_555 1_555
O1_2 C37_2 1_555 1_555
O3_2 Mn4 1_555 1_555
O4_2 C37_2 1_555 1_555
N7_2 C1_2 1_555 1_555
N10_2 Mn4 1_555 1_555
C40_2 N10_2 1_555 1_555
C43_2 C40_2 1_555 1_555
C46_2 N7_2 1_555 1_555
C49_2 C40_2 1_555 1_555
H37_2 C49_2 1_555 1_555
H38_2 C49_2 1_555 1_555
H39_2 C49_2 1_555 1_555
C52_2 C46_2 1_555 1_555
H46_2 C52_2 1_555 1_555
H47_2 C52_2 1_555 1_555
H48_2 C52_2 1_555 1_555
C55_2 C43_2 1_555 1_555
C58_2 C55_2 1_555 1_555
H55_2 C58_2 1_555 1_555
C61_2 C58_2 1_555 1_555
H58_2 C61_2 1_555 1_555
C64_2 C61_2 1_555 1_555
C67_2 C64_2 1_555 1_555
H61_2 C67_2 1_555 1_555
C70_2 C55_2 1_555 1_555
H64_2 C70_2 1_555 1_555
C73_2 C64_2 1_555 1_555
O7 C73_2 1_555 1_555
O10 C73_2 1_555 1_555
Mn7 O7 1_555 1_555
Mn12_2 O4_2 1_555 1_555
O16_2 Mn4 1_555 1_555
C7_2 C10_2 1_555 1_555
C31_2 C34_2 1_555 1_555
N7_2 N10_2 1_555 1_555
C43_2 C46_2 1_555 1_555
C67_2 C70_2 1_555 1_555
Mn11 O2_2 1_555 1_555
O2_2 C38_2 1_555 1_555
O5_2 C38_2 1_555 1_555
O14_2 Mn11 1_555 1_555
C22_3 C19_3 1_555 1_555
H25_3 C22_3 1_555 1_555
C25_3 C22_3 1_555 1_555
H28_3 C25_3 1_555 1_555
C28_3 C25_3 1_555 1_555
C31_3 C28_3 1_555 1_555
H31_3 C31_3 1_555 1_555
C34_3 C19_3 1_555 1_555
H34_3 C34_3 1_555 1_555
C37_3 C28_3 1_555 1_555
O13 C37_3 1_555 1_555
O14 C37_3 1_555 1_555
C31_3 C34_3 1_555 1_555
Mn5 N4_3 1_555 1_555
C1_3 H1_3 1_555 1_555
H2_3 C1_3 1_555 1_555
C2_3 H3_3 1_555 1_555
H4_3 C2_3 1_555 1_555
C3_3 H5_3 1_555 1_555
H6_3 C3_3 1_555 1_555
Rh1_3 N6_3 1_555 1_555
N1_3 C1_3 1_555 1_555
N2_3 C2_3 1_555 1_555
N3_3 C3_3 1_555 1_555
N4_3 N1_3 1_555 1_555
N5_2 N2_3 1_555 1_555
N6_3 N3_3 1_555 1_555
C4_3 N4_3 1_555 1_555
C5_3 N5_2 1_555 1_555
C6_3 N6_3 1_555 1_555
C7_3 C4_3 1_555 1_555
C8_3 C5_3 1_555 1_555
C9_3 C6_3 1_555 1_555
C10_3 N1_3 1_555 1_555
C11_3 N2_3 1_555 1_555
C12_3 N3_3 1_555 1_555
C13_3 C4_3 1_555 1_555
H7_3 C13_3 1_555 1_555
H8_3 C13_3 1_555 1_555
C14_3 C5_3 1_555 1_555
H10_3 C14_3 1_555 1_555
H11_3 C14_3 1_555 1_555
H12_3 C14_3 1_555 1_555
C15_3 C6_3 1_555 1_555
H13_3 C15_3 1_555 1_555
H14_3 C15_3 1_555 1_555
H15_3 C15_3 1_555 1_555
C16_3 C10_3 1_555 1_555
H16_3 C16_3 1_555 1_555
H18_3 C16_3 1_555 1_555
C17_3 C11_3 1_555 1_555
H19_3 C17_3 1_555 1_555
H20_3 C17_3 1_555 1_555
H21_3 C17_3 1_555 1_555
C18_3 C12_3 1_555 1_555
H22_3 C18_3 1_555 1_555
H23_3 C18_3 1_555 1_555
H24_3 C18_3 1_555 1_555
C20_3 C8_3 1_555 1_555
C21_3 C9_3 1_555 1_555
C23_3 C20_3 1_555 1_555
H26_3 C23_3 1_555 1_555
C24_3 C21_3 1_555 1_555
H27_3 C24_3 1_555 1_555
C26_3 C23_3 1_555 1_555
H29_3 C26_3 1_555 1_555
C27_3 C24_3 1_555 1_555
H30_3 C27_3 1_555 1_555
C29_3 C26_3 1_555 1_555
C30_3 C27_3 1_555 1_555
C32_3 C29_3 1_555 1_555
H32_3 C32_3 1_555 1_555
C33_3 C30_3 1_555 1_555
H33_3 C33_3 1_555 1_555
C35_3 C20_3 1_555 1_555
H35_3 C35_3 1_555 1_555
C36_3 C21_3 1_555 1_555
H36_3 C36_3 1_555 1_555
C39_3 C30_3 1_555 1_555
O3_3 Mn5 1_555 1_555
N7_3 C1_3 1_555 1_555
N8_3 C2_3 1_555 1_555
N9_3 C3_3 1_555 1_555
N10_3 Mn5 1_555 1_555
N11_2 N8_3 1_555 1_555
N12_3 Rh1_3 1_555 1_555
C40_3 N10_3 1_555 1_555
C41_3 N11_2 1_555 1_555
C42_3 N12_3 1_555 1_555
C43_3 C40_3 1_555 1_555
C44_3 C41_3 1_555 1_555
C45_3 C42_3 1_555 1_555
C46_3 N7_3 1_555 1_555
C47_3 N8_3 1_555 1_555
C48_3 N9_3 1_555 1_555
C49_3 C40_3 1_555 1_555
H37_3 C49_3 1_555 1_555
H38_3 C49_3 1_555 1_555
H39_3 C49_3 1_555 1_555
C50_3 C41_3 1_555 1_555
H40_3 C50_3 1_555 1_555
H41_3 C50_3 1_555 1_555
H42_3 C50_3 1_555 1_555
C51_3 C42_3 1_555 1_555
H43_3 C51_3 1_555 1_555
H44_3 C51_3 1_555 1_555
H45_3 C51_3 1_555 1_555
C52_3 C46_3 1_555 1_555
H46_3 C52_3 1_555 1_555
H47_3 C52_3 1_555 1_555
H48_3 C52_3 1_555 1_555
C53_3 C47_3 1_555 1_555
H49_3 C53_3 1_555 1_555
H50_3 C53_3 1_555 1_555
H51_3 C53_3 1_555 1_555
C54_3 C48_3 1_555 1_555
H52_3 C54_3 1_555 1_555
H53_3 C54_3 1_555 1_555
H54_3 C54_3 1_555 1_555
C55_3 C43_3 1_555 1_555
C56_3 C44_3 1_555 1_555
C57_3 C45_3 1_555 1_555
C58_3 C55_3 1_555 1_555
H55_3 C58_3 1_555 1_555
C59_3 C56_3 1_555 1_555
H56_3 C59_3 1_555 1_555
C60_3 C57_3 1_555 1_555
H57_3 C60_3 1_555 1_555
C61_3 C58_3 1_555 1_555
H58_3 C61_3 1_555 1_555
C62_3 C59_3 1_555 1_555
H59_3 C62_3 1_555 1_555
C63_3 C60_3 1_555 1_555
H60_3 C63_3 1_555 1_555
C64_3 C61_3 1_555 1_555
C65_3 C62_3 1_555 1_555
C66_3 C63_3 1_555 1_555
C67_3 C64_3 1_555 1_555
H61_3 C67_3 1_555 1_555
C68_3 C65_3 1_555 1_555
H62_3 C68_3 1_555 1_555
C69_3 C66_3 1_555 1_555
H63_3 C69_3 1_555 1_555
C70_3 C55_3 1_555 1_555
H64_3 C70_3 1_555 1_555
C71_3 C56_3 1_555 1_555
H65_3 C71_3 1_555 1_555
C72_3 C57_3 1_555 1_555
H66_3 C72_3 1_555 1_555
C73_3 C64_3 1_555 1_555
C74_3 C65_3 1_555 1_555
C75_3 C66_3 1_555 1_555
O7_2 C73_3 1_555 1_555
O16 C74_3 1_555 1_555
O9_2 C75_3 1_555 1_555
O10_2 C73_3 1_555 1_555
O19 C74_3 1_555 1_555
O12_2 C75_3 1_555 1_555
C76_3 Rh1_3 1_555 1_555
H67_3 C76_3 1_555 1_555
C77_3 Rh1_3 1_555 1_555
H68_3 C77_3 1_555 1_555
C78_3 C77_3 1_555 1_555
H69_3 C78_3 1_555 1_555
C79_3 Rh1_3 1_555 1_555
H70_3 C79_3 1_555 1_555
C80_3 Rh1_3 1_555 1_555
H71_3 C80_3 1_555 1_555
C81_3 C76_3 1_555 1_555
H72_3 C81_3 1_555 1_555
C82_3 C78_3 1_555 1_555
Mn9 O7_2 1_555 1_555
Mn8 O9_2 1_555 1_555
Mn12 N5_2 1_555 1_555
C7_3 C10_3 1_555 1_555
C8_3 C11_3 1_555 1_555
C9_3 C12_3 1_555 1_555
C32_3 C35_3 1_555 1_555
C33_3 C36_3 1_555 1_555
C39_3 O3_3 1_555 1_555
C39_3 O6_3 1_555 1_555
N7_3 N10_3 1_555 1_555
N9_3 N12_3 1_555 1_555
N11_2 Mn12 1_555 1_555
C43_3 C46_3 1_555 1_555
C44_3 C47_3 1_555 1_555
C45_3 C48_3 1_555 1_555
C67_3 C70_3 1_555 1_555
C68_3 C71_3 1_555 1_555
C69_3 C72_3 1_555 1_555
C76_3 C77_3 1_555 1_555
C78_3 C79_3 1_555 1_555
C79_3 C80_3 1_555 1_555
C80_3 C81_3 1_555 1_555
C81_3 C82_3 1_555 1_555
Mn9 O2_3 1_555 1_555
Mn12 O2_3 1_555 1_555
O2_3 C38_3 1_555 1_555
O5_3 C38_3 1_555 1_555
O17_2 Mn9 1_555 1_555
O20_2 Mn12 1_555 1_555
Mn8 O15_2 1_555 1_555
Mn12_2 O2_4 1_555 1_555
O2_4 C38_4 1_555 1_555
O5_4 C38_4 1_555 1_555
N13_2 Mn12_2 1_555 1_555
N14_2 Mn12_2 1_555 1_555
Mn5_2 N4_4 1_555 1_555
C1_4 H1_4 1_555 1_555
H2_4 C1_4 1_555 1_555
N1_4 C1_4 1_555 1_555
N4_4 N1_4 1_555 1_555
C4_4 N4_4 1_555 1_555
C7_4 C4_4 1_555 1_555
C10_4 N1_4 1_555 1_555
C13_4 C4_4 1_555 1_555
H7_4 C13_4 1_555 1_555
H8_4 C13_4 1_555 1_555
C16_4 C10_4 1_555 1_555
H16_4 C16_4 1_555 1_555
H17_4 C16_4 1_555 1_555
H18_4 C16_4 1_555 1_555
C19_4 C7_4 1_555 1_555
C22_4 C19_4 1_555 1_555
H25_4 C22_4 1_555 1_555
C25_4 C22_4 1_555 1_555
H28_4 C25_4 1_555 1_555
C28_4 C25_4 1_555 1_555
C31_4 C28_4 1_555 1_555
H31_4 C31_4 1_555 1_555
C34_4 C19_4 1_555 1_555
H34_4 C34_4 1_555 1_555
C37_4 C28_4 1_555 1_555
O13_2 C37_4 1_555 1_555
O3_4 Mn5_2 1_555 1_555
O14_2 C37_4 1_555 1_555
N7_4 C1_4 1_555 1_555
N10_4 Mn5_2 1_555 1_555
C40_4 N10_4 1_555 1_555
C43_4 C40_4 1_555 1_555
C46_4 N7_4 1_555 1_555
C49_4 C40_4 1_555 1_555
H37_4 C49_4 1_555 1_555
H38_4 C49_4 1_555 1_555
H39_4 C49_4 1_555 1_555
C52_4 C46_4 1_555 1_555
H46_4 C52_4 1_555 1_555
H47_4 C52_4 1_555 1_555
H48_4 C52_4 1_555 1_555
C55_4 C43_4 1_555 1_555
C58_4 C55_4 1_555 1_555
H55_4 C58_4 1_555 1_555
C61_4 C58_4 1_555 1_555
H58_4 C61_4 1_555 1_555
C64_4 C61_4 1_555 1_555
C67_4 C64_4 1_555 1_555
H61_4 C67_4 1_555 1_555
C70_4 C55_4 1_555 1_555
H64_4 C70_4 1_555 1_555
C73_4 C64_4 1_555 1_555
O15_2 C73_4 1_555 1_555
O18_2 C73_4 1_555 1_555
C7_4 C10_4 1_555 1_555
C31_4 C34_4 1_555 1_555
N7_4 N10_4 1_555 1_555
C43_4 C46_4 1_555 1_555
C67_4 C70_4 1_555 1_555
H49_4 C53_4 1_555 1_555
H50_4 C53_4 1_555 1_555
C59_4 C56_4 1_555 1_555
H56_4 C59_4 1_555 1_555
C62_4 C59_4 1_555 1_555
H59_4 C62_4 1_555 1_555
C65_4 C62_4 1_555 1_555
C68_4 C65_4 1_555 1_555
H62_4 C68_4 1_555 1_555
C71_4 C56_4 1_555 1_555
H65_4 C71_4 1_555 1_555
C74_4 C65_4 1_555 1_555
O16_2 C74_4 1_555 1_555
O19_2 C74_4 1_555 1_555
C68_4 C71_4 1_555 1_555
C2_4 H3_4 1_555 1_555
H4_4 C2_4 1_555 1_555
C3_4 H5_4 1_555 1_555
H6_4 C3_4 1_555 1_555
Rh1_4 N6_4 1_555 1_555
N2_4 C2_4 1_555 1_555
N3_4 C3_4 1_555 1_555
N13_2 N2_4 1_555 1_555
N6_4 N3_4 1_555 1_555
C5_4 N13_2 1_555 1_555
C6_4 N6_4 1_555 1_555
C8_4 C5_4 1_555 1_555
C9_4 C6_4 1_555 1_555
C11_4 N2_4 1_555 1_555
C12_4 N3_4 1_555 1_555
C14_4 C5_4 1_555 1_555
H10_4 C14_4 1_555 1_555
H11_4 C14_4 1_555 1_555
H12_4 C14_4 1_555 1_555
C15_4 C6_4 1_555 1_555
H13_4 C15_4 1_555 1_555
H14_4 C15_4 1_555 1_555
H15_4 C15_4 1_555 1_555
C17_4 C11_4 1_555 1_555
H19_4 C17_4 1_555 1_555
H20_4 C17_4 1_555 1_555
H21_4 C17_4 1_555 1_555
C18_4 C12_4 1_555 1_555
H22_4 C18_4 1_555 1_555
H23_4 C18_4 1_555 1_555
H24_4 C18_4 1_555 1_555
C20_4 C8_4 1_555 1_555
C21_4 C9_4 1_555 1_555
C23_4 C20_4 1_555 1_555
H26_4 C23_4 1_555 1_555
C24_4 C21_4 1_555 1_555
H27_4 C24_4 1_555 1_555
C26_4 C23_4 1_555 1_555
H29_4 C26_4 1_555 1_555
C27_4 C24_4 1_555 1_555
H30_4 C27_4 1_555 1_555
C29_4 C26_4 1_555 1_555
C30_4 C27_4 1_555 1_555
C32_4 C29_4 1_555 1_555
H32_4 C32_4 1_555 1_555
C33_4 C30_4 1_555 1_555
H33_4 C33_4 1_555 1_555
C35_4 C20_4 1_555 1_555
H35_4 C35_4 1_555 1_555
C36_4 C21_4 1_555 1_555
H36_4 C36_4 1_555 1_555
C39_4 C30_4 1_555 1_555
N8_4 C2_4 1_555 1_555
N9_4 C3_4 1_555 1_555
N14_2 N8_4 1_555 1_555
N12_4 Rh1_4 1_555 1_555
C41_4 N14_2 1_555 1_555
C42_4 N12_4 1_555 1_555
C44_4 C41_4 1_555 1_555
C45_4 C42_4 1_555 1_555
C47_4 N8_4 1_555 1_555
C48_4 N9_4 1_555 1_555
C50_4 C41_4 1_555 1_555
H40_4 C50_4 1_555 1_555
C51_4 C42_4 1_555 1_555
H43_4 C51_4 1_555 1_555
H44_4 C51_4 1_555 1_555
H45_4 C51_4 1_555 1_555
C54_4 C48_4 1_555 1_555
H52_4 C54_4 1_555 1_555
H53_4 C54_4 1_555 1_555
H54_4 C54_4 1_555 1_555
C57_4 C45_4 1_555 1_555
C60_4 C57_4 1_555 1_555
H57_4 C60_4 1_555 1_555
C63_4 C60_4 1_555 1_555
H60_4 C63_4 1_555 1_555
C66_4 C63_4 1_555 1_555
C69_4 C66_4 1_555 1_555
H63_4 C69_4 1_555 1_555
C72_4 C57_4 1_555 1_555
H66_4 C72_4 1_555 1_555
C75_4 C66_4 1_555 1_555
O17_2 C75_4 1_555 1_555
O20_2 C75_4 1_555 1_555
C76_4 Rh1_4 1_555 1_555
H67_4 C76_4 1_555 1_555
C77_4 Rh1_4 1_555 1_555
H68_4 C77_4 1_555 1_555
C78_4 C77_4 1_555 1_555
H69_4 C78_4 1_555 1_555
C79_4 Rh1_4 1_555 1_555
H70_4 C79_4 1_555 1_555
C80_4 Rh1_4 1_555 1_555
H71_4 C80_4 1_555 1_555
C81_4 C76_4 1_555 1_555
H72_4 C81_4 1_555 1_555
C82_4 C78_4 1_555 1_555
C8_4 C11_4 1_555 1_555
C9_4 C12_4 1_555 1_555
C32_4 C35_4 1_555 1_555
C33_4 C36_4 1_555 1_555
C39_4 O6_4 1_555 1_555
N9_4 N12_4 1_555 1_555
C44_4 C47_4 1_555 1_555
C45_4 C48_4 1_555 1_555
C69_4 C72_4 1_555 1_555
C76_4 C77_4 1_555 1_555
C78_4 C79_4 1_555 1_555
C79_4 C80_4 1_555 1_555
C80_4 C81_4 1_555 1_555
C81_4 C82_4 1_555 1_555
B1 F1 1_555 1_555
F2 B1 1_555 1_555
F3 B1 1_555 1_555
F4 B1 1_555 1_555
B1_2 F1_2 1_555 1_555
F2_2 B1_2 1_555 1_555
F3_2 B1_2 1_555 1_555
F4_2 B1_2 1_555 1_555
B1_3 F1_3 1_555 1_555
F2_3 B1_3 1_555 1_555
F3_3 B1_3 1_555 1_555
F4_3 B1_3 1_555 1_555
B1_4 F1_4 1_555 1_555
F2_4 B1_4 1_555 1_555
F3_4 B1_4 1_555 1_555
F4_4 B1_4 1_555 1_555

#END
