
###############################################################################
#
# This file contains modified crystal structure data generated from the
# MOF subset of the Cambridge Structural Database (CSD) v543 
# hosted by the Cambridge Crystallographic Data Centre (CCDC).
#
# This work is licensed under the Creative Commons
# Attribution-NonCommercial-ShareAlike 4.0 International License.
# To view a copy of this license, visit
# http://creativecommons.org/licenses/by-nc-sa/4.0/
# or send a letter to
# Creative Commons, PO Box 1866, Mountain View, CA 94042, USA.
#
# CIF created using the CSD Python API on 29 September 2022
# The structure has been converted into the P1 space group
# The structure has a 3D framework
# The original CSD entry TUWROV is in the monoclinic crystal system
# The framework has been calculated to contain at least 10.0% void space
# The void calculation uses a probe of radius 1.32A, grid spacing 0.4
#
###############################################################################

data_TUWROV
_chemical_formula_moiety         '(C158 H144 Cl2 Mn7 N28 O23 Rh2)n'
_symmetry_cell_setting           triclinic
_symmetry_space_group_name_H-M   'P 1'
_symmetry_Int_Tables_number      1
_space_group_name_Hall           'P 1'
loop_
_symmetry_equiv_pos_site_id
_symmetry_equiv_pos_as_xyz
1 x,y,z
_cell_length_a                   12.329(3)
_cell_length_b                   32.790(7)
_cell_length_c                   13.037(3)
_cell_angle_alpha                90
_cell_angle_beta                 94.16(3)
_cell_angle_gamma                90
_cell_volume                     5256.56
loop_
_atom_site_label
_atom_site_type_symbol
_atom_site_fract_x
_atom_site_fract_y
_atom_site_fract_z
Mn1 Mn 0.0000 -0.0000 0.5000
O22 O 0.1432(3) 0.02854(12) 0.5683(3)
Mn1_2 Mn 0.0000 1.0000 0.5000
C77 C 0.0032(4) 0.90763(15) 0.5976(3)
O11 O 0.0668(3) 0.87923(11) 0.5820(3)
O12 O 0.0370(2) 0.94523(10) 0.5972(2)
Mn7 Mn 0.0000 0.5000 0.5000
Mn11 Mn 0.20924(5) 0.93039(2) 0.59344(4)
O14 O 0.0804(3) 0.97234(12) 0.3814(2)
Mn1_3 Mn 1.0000 -0.0000 0.5000
C1 C 0.7105(4) 0.15148(13) 0.2714(3)
H1 H 0.6904 0.1774 0.2360
H2 H 0.7696 0.1573 0.3249
Mn2 Mn 0.79076(5) 0.06961(2) 0.40656(4)
N1 N 0.7486(3) 0.12272(12) 0.1980(2)
N2 N 0.7989(3) 0.08832(11) 0.2353(2)
C2 C 0.8279(4) 0.06814(15) 0.1519(3)
C3 C 0.7940(4) 0.08949(15) 0.0620(3)
C4 C 0.7425(4) 0.12412(15) 0.0939(3)
C5 C 0.8860(5) 0.02792(17) 0.1617(3)
H3 H 0.9105 0.0232 0.2339
H4 H 0.9490 0.0283 0.1200
H5 H 0.8364 0.0060 0.1375
C6 C 0.6885(5) 0.1587(2) 0.0336(4)
H6 H 0.6101 0.1536 0.0241
H8 H 0.7016 0.1843 0.0713
N3 N 0.6159(3) 0.13525(11) 0.3200(2)
N4 N 0.6321(3) 0.10304(12) 0.3846(3)
C14 C 0.5336(4) 0.09094(15) 0.4073(4)
C15 C 0.4516(4) 0.11589(15) 0.3555(4)
C16 C 0.5087(4) 0.14358(15) 0.3006(3)
C17 C 0.5210(4) 0.05560(19) 0.4774(4)
H13 H 0.5090 0.0307 0.4366
H14 H 0.4587 0.0603 0.5185
H15 H 0.5871 0.0526 0.5233
C18 C 0.4677(5) 0.1754(2) 0.2259(5)
H16 H 0.4379 0.1983 0.2632
H17 H 0.4106 0.1638 0.1784
H18 H 0.5277 0.1851 0.1869
C19 C 0.3338(4) 0.11138(16) 0.3600(4)
C20 C 0.2857(4) 0.07313(16) 0.3429(4)
H19 H 0.3288 0.0509 0.3230
C21 C 0.1760(4) 0.06721(16) 0.3546(4)
H20 H 0.1447 0.0409 0.3441
C22 C 0.1121(4) 0.09962(16) 0.3817(4)
C23 C 0.1558(4) 0.13881(17) 0.3910(5)
H21 H 0.1106 0.1614 0.4045
C24 C 0.2675(4) 0.14461(17) 0.3802(5)
H22 H 0.2980 0.1712 0.3867
O5 O 0.7283(3) 0.01277(10) 0.3599(2)
O13 O 0.9196(3) 0.02766(12) 0.6186(2)
O15 O 0.7786(3) 0.06757(12) 0.5682(2)
O17 O 0.9332(3) 0.12077(11) 0.4180(3)
O19 O 0.9630(2) 0.05477(10) 0.4028(2)
H7 H 0.7187 0.1606 0.9663
C7 C 0.8046(4) 0.07738(16) 0.9545(3)
C8 C 0.7167(4) 0.08124(19) 0.8819(3)
H9 H 0.6480 0.0897 0.9030
C9 C 0.7286(5) 0.07281(18) 0.7778(4)
H10 H 0.6686 0.0764 0.7286
C10 C 0.8268(4) 0.05939(15) 0.7466(3)
C11 C 0.9150(4) 0.05374(16) 0.8201(3)
H11 H 0.9818 0.0432 0.7996
C12 C 0.9047(4) 0.06357(18) 0.9225(3)
H12 H 0.9656 0.0610 0.9711
C13 C 0.8418(4) 0.05091(14) 0.6348(3)
H54 H 0.2813 0.8394 0.0337
C59 C 0.1954(4) 0.92262(16) 0.0455(3)
C60 C 0.2833(4) 0.91876(19) 0.1181(3)
H56 H 0.3520 0.9103 0.0970
C61 C 0.2714(5) 0.92719(18) 0.2222(4)
H57 H 0.3314 0.9236 0.2714
C62 C 0.1732(4) 0.94061(15) 0.2534(3)
C63 C 0.0850(4) 0.94626(16) 0.1799(3)
H58 H 0.0182 0.9568 0.2004
C64 C 0.0953(4) 0.93643(18) 0.0775(3)
H59 H 0.0344 0.9390 0.0289
C65 C 0.1582(4) 0.94909(14) 0.3652(3)
O10 O 0.2214(3) 0.93243(12) 0.4318(2)
Mn1_4 Mn 1.0000 1.0000 0.5000
Rh1 Rh 0.26516(8) 0.7500 0.26247(8)
C26 C 0.4179(9) 0.7500 0.0921(6)
H23 H 0.4597 0.7500 0.0301
H24 H 0.3394 0.7500 0.0698
N5 N 0.4450(5) 0.78613(14) 0.1545(4)
N6 N 0.3801(4) 0.79264(15) 0.2358(4)
C27 C 0.4220(5) 0.82508(18) 0.2837(5)
C28 C 0.5138(5) 0.83987(16) 0.2343(4)
C29 C 0.5247(5) 0.81377(16) 0.1550(4)
C30 C 0.3786(7) 0.8412(2) 0.3808(6)
H25 H 0.3324 0.8650 0.3646
H26 H 0.4394 0.8491 0.4293
H27 H 0.3356 0.8199 0.4118
C31 C 0.6060(6) 0.8133(2) 0.0764(5)
H28 H 0.6032 0.7870 0.0407
H29 H 0.6789 0.8175 0.1100
H30 H 0.5896 0.8353 0.0266
C32 C 0.5831(5) 0.87476(16) 0.2656(4)
C33 C 0.5734(6) 0.91159(18) 0.2198(5)
H31 H 0.5254 0.9145 0.1599
C34 C 0.6306(5) 0.94508(17) 0.2569(5)
H32 H 0.6143 0.9710 0.2273
C35 C 0.7096(4) 0.94213(14) 0.3345(3)
C36 C 0.7188(8) 0.9046(2) 0.3832(7)
H33 H 0.7678 0.9019 0.4425
C37 C 0.6600(9) 0.8711(2) 0.3490(9)
H34 H 0.6716 0.8455 0.3820
C38 C 0.7716(4) 0.97832(14) 0.3781(3)
O6 O 0.8568(3) 0.97146(12) 0.4317(3)
N7 N 0.1575(7) 0.7933(2) 0.2901(8)
C39 C 0.0955(9) 0.8167(3) 0.3028(10)
C40 C 0.0235(12) 0.8491(3) 0.3320(9)
H35 H 0.0312 0.8528 0.4068
H37 H 0.0425 0.8745 0.2982
N8 N 0.4450(5) 0.71387(14) 0.1545(4)
N9 N 0.3801(4) 0.70736(15) 0.2358(4)
C41 C 0.4220(5) 0.67492(18) 0.2837(5)
C42 C 0.5138(5) 0.66013(16) 0.2343(4)
C43 C 0.5247(5) 0.68623(16) 0.1550(4)
C44 C 0.3786(7) 0.6588(2) 0.3808(6)
H38 H 0.3324 0.6350 0.3646
H39 H 0.4394 0.6509 0.4293
H40 H 0.3356 0.6801 0.4118
C45 C 0.6060(6) 0.6867(2) 0.0764(5)
H41 H 0.6032 0.7130 0.0407
H42 H 0.6789 0.6825 0.1100
H43 H 0.5896 0.6647 0.0266
C46 C 0.5831(5) 0.62524(16) 0.2656(4)
C47 C 0.5734(6) 0.58841(18) 0.2198(5)
H44 H 0.5254 0.5855 0.1599
C48 C 0.6306(5) 0.55492(17) 0.2569(5)
H45 H 0.6143 0.5290 0.2273
C49 C 0.7096(4) 0.55787(14) 0.3345(3)
C50 C 0.7188(8) 0.5954(2) 0.3832(7)
H46 H 0.7678 0.5981 0.4425
C51 C 0.6600(9) 0.6289(2) 0.3490(9)
H47 H 0.6716 0.6545 0.3820
C52 C 0.7716(4) 0.52168(14) 0.3781(3)
O7 O 0.7283(3) 0.48723(10) 0.3599(2)
O8 O 0.8568(3) 0.52854(12) 0.4317(3)
C53 C 0.2895(4) 0.84852(13) 0.7286(3)
H48 H 0.3096 0.8226 0.7640
H49 H 0.2304 0.8427 0.6751
N10 N 0.2514(3) 0.87728(12) 0.8020(2)
N11 N 0.2011(3) 0.91168(11) 0.7647(2)
C54 C 0.1721(4) 0.93186(15) 0.8481(3)
C55 C 0.2060(4) 0.91051(15) 0.9380(3)
C56 C 0.2575(4) 0.87588(15) 0.9061(3)
C57 C 0.1140(5) 0.97208(17) 0.8383(3)
H50 H 0.0895 0.9768 0.7661
H51 H 0.0510 0.9717 0.8800
H52 H 0.1636 0.9940 0.8625
C58 C 0.3115(5) 0.8413(2) 0.9664(4)
H53 H 0.3899 0.8464 0.9759
H55 H 0.2984 0.8157 0.9287
N12 N 0.3841(3) 0.86475(11) 0.6800(2)
N13 N 0.3679(3) 0.89696(12) 0.6154(3)
C66 C 0.4664(4) 0.90906(15) 0.5927(4)
C67 C 0.5484(4) 0.88411(15) 0.6445(4)
C68 C 0.4913(4) 0.85642(15) 0.6994(3)
C69 C 0.4790(4) 0.94440(19) 0.5226(4)
H60 H 0.4910 0.9693 0.5634
H61 H 0.5413 0.9397 0.4815
H62 H 0.4129 0.9474 0.4767
C70 C 0.5323(5) 0.8246(2) 0.7741(5)
H63 H 0.5621 0.8017 0.7368
H64 H 0.5894 0.8362 0.8216
H65 H 0.4723 0.8149 0.8131
C71 C 0.6662(4) 0.88862(16) 0.6400(4)
C72 C 0.7143(4) 0.92687(16) 0.6571(4)
H66 H 0.6712 0.9491 0.6770
C73 C 0.8240(4) 0.93279(16) 0.6454(4)
H67 H 0.8553 0.9591 0.6559
C74 C 0.8879(4) 0.90038(16) 0.6183(4)
C75 C 0.8442(4) 0.86119(17) 0.6090(5)
H68 H 0.8894 0.8386 0.5955
C76 C 0.7325(4) 0.85539(17) 0.6198(5)
H69 H 0.7020 0.8288 0.6133
N14 N 0.1575(7) 0.7067(2) 0.2901(8)
C78 C 0.0955(9) 0.6833(3) 0.3028(10)
C79 C 0.0235(12) 0.6509(3) 0.3320(9)
H70 H 0.0312 0.6472 0.4068
H72 H 0.0425 0.6255 0.2982
Mn7_2 Mn 1.0000 0.5000 0.5000
Mn12 Mn 0.79076(5) 0.43039(2) 0.40656(4)
O21 O 0.2717(3) 0.98723(10) 0.6401(2)
C25 C 0.9968(4) 0.09237(15) 0.4024(3)
H36 H 0.9481 0.8418 0.3107
H71 H 0.9481 0.6582 0.3107
C25_2 C 0.0032(4) 0.59237(15) 0.5976(3)
O3 O 0.0668(3) 0.62077(11) 0.5820(3)
O4 O 0.0370(2) 0.55477(10) 0.5972(2)
H36_2 H 0.0519 0.3418 0.6893
H71_2 H 0.0519 0.1582 0.6893
Mn8 Mn 0.20924(5) 0.56961(2) 0.59344(4)
H7_2 H 0.2813 0.6606 0.0337
C7_2 C 0.1954(4) 0.57738(16) 0.0455(3)
C8_2 C 0.2833(4) 0.58124(19) 0.1181(3)
H9_2 H 0.3520 0.5897 0.0970
C9_2 C 0.2714(5) 0.57281(18) 0.2222(4)
H10_2 H 0.3314 0.5764 0.2714
C10_2 C 0.1732(4) 0.55939(15) 0.2534(3)
C11_2 C 0.0850(4) 0.55374(16) 0.1799(3)
H11_2 H 0.0182 0.5432 0.2004
C12_2 C 0.0953(4) 0.56357(18) 0.0775(3)
H12_2 H 0.0344 0.5610 0.0289
C13_2 C 0.1582(4) 0.55091(14) 0.3652(3)
O1 O 0.0804(3) 0.52766(12) 0.3814(2)
O2 O 0.2214(3) 0.56757(12) 0.4318(2)
C1_2 C 0.2895(4) 0.65148(13) 0.7286(3)
H1_2 H 0.3096 0.6774 0.7640
H2_2 H 0.2304 0.6573 0.6751
Rh1_2 Rh 0.73484(8) 0.2500 0.73753(8)
N1_2 N 0.2514(3) 0.62272(12) 0.8020(2)
N2_2 N 0.2011(3) 0.58832(11) 0.7647(2)
C2_2 C 0.1721(4) 0.56814(15) 0.8481(3)
C3_2 C 0.2060(4) 0.58949(15) 0.9380(3)
C4_2 C 0.2575(4) 0.62412(15) 0.9061(3)
C5_2 C 0.1140(5) 0.52792(17) 0.8383(3)
H3_2 H 0.0895 0.5232 0.7661
H4_2 H 0.0510 0.5283 0.8800
H5_2 H 0.1636 0.5060 0.8625
C6_2 C 0.3115(5) 0.6587(2) 0.9664(4)
H6_2 H 0.3899 0.6536 0.9759
H8_2 H 0.2984 0.6843 0.9287
N3_2 N 0.3841(3) 0.63525(11) 0.6800(2)
N4_2 N 0.3679(3) 0.60304(12) 0.6154(3)
C14_2 C 0.4664(4) 0.59094(15) 0.5927(4)
C15_2 C 0.5484(4) 0.61589(15) 0.6445(4)
C16_2 C 0.4913(4) 0.64358(15) 0.6994(3)
C17_2 C 0.4790(4) 0.55560(19) 0.5226(4)
H13_2 H 0.4910 0.5307 0.5634
H14_2 H 0.5413 0.5603 0.4815
H15_2 H 0.4129 0.5526 0.4767
C18_2 C 0.5323(5) 0.6754(2) 0.7741(5)
H16_2 H 0.5621 0.6983 0.7368
H17_2 H 0.5894 0.6638 0.8216
H18_2 H 0.4723 0.6851 0.8131
C19_2 C 0.6662(4) 0.61138(16) 0.6400(4)
C20_2 C 0.7143(4) 0.57313(16) 0.6571(4)
H19_2 H 0.6712 0.5509 0.6770
C21_2 C 0.8240(4) 0.56721(16) 0.6454(4)
H20_2 H 0.8553 0.5409 0.6559
C22_2 C 0.8879(4) 0.59962(16) 0.6183(4)
C23_2 C 0.8442(4) 0.63881(17) 0.6090(5)
H21_2 H 0.8894 0.6614 0.5955
C24_2 C 0.7325(4) 0.64461(17) 0.6198(5)
H22_2 H 0.7020 0.6712 0.6133
C26_2 C 0.5821(9) 0.2500 0.9079(6)
H23_2 H 0.5403 0.2500 0.9699
H24_2 H 0.6606 0.2500 0.9302
N5_2 N 0.5550(5) 0.28613(14) 0.8455(4)
N6_2 N 0.6199(4) 0.29264(15) 0.7642(4)
C27_2 C 0.5780(5) 0.32508(18) 0.7163(5)
C28_2 C 0.4862(5) 0.33987(16) 0.7657(4)
C29_2 C 0.4753(5) 0.31377(16) 0.8450(4)
C30_2 C 0.6214(7) 0.3412(2) 0.6192(6)
H25_2 H 0.6676 0.3650 0.6354
H26_2 H 0.5606 0.3491 0.5707
H27_2 H 0.6644 0.3199 0.5882
C31_2 C 0.3940(6) 0.3133(2) 0.9236(5)
H28_2 H 0.3968 0.2870 0.9593
H29_2 H 0.3211 0.3175 0.8900
H30_2 H 0.4104 0.3353 0.9734
C32_2 C 0.4169(5) 0.37476(16) 0.7344(4)
C33_2 C 0.4266(6) 0.41159(18) 0.7802(5)
H31_2 H 0.4746 0.4145 0.8401
C34_2 C 0.3694(5) 0.44508(17) 0.7431(5)
H32_2 H 0.3857 0.4710 0.7727
C35_2 C 0.2904(4) 0.44213(14) 0.6655(3)
C36_2 C 0.2812(8) 0.4046(2) 0.6168(7)
H33_2 H 0.2322 0.4019 0.5575
C37_2 C 0.3400(9) 0.3711(2) 0.6510(9)
H34_2 H 0.3284 0.3455 0.6180
C38_2 C 0.2284(4) 0.47832(14) 0.6219(3)
O5_2 O 0.2717(3) 0.51277(10) 0.6401(2)
O6_2 O 0.1432(3) 0.47146(12) 0.5683(3)
N7_2 N 0.8425(7) 0.2933(2) 0.7099(8)
C39_2 C 0.9045(9) 0.3167(3) 0.6972(10)
C40_2 C 0.9765(12) 0.3491(3) 0.6680(9)
H35_2 H 0.9688 0.3528 0.5932
H37_2 H 0.9575 0.3745 0.7018
N8_2 N 0.5550(5) 0.21387(14) 0.8455(4)
N9_2 N 0.6199(4) 0.20736(15) 0.7642(4)
C41_2 C 0.5780(5) 0.17492(18) 0.7163(5)
C42_2 C 0.4862(5) 0.16013(16) 0.7657(4)
C43_2 C 0.4753(5) 0.18623(16) 0.8450(4)
C44_2 C 0.6214(7) 0.1588(2) 0.6192(6)
H38_2 H 0.6676 0.1350 0.6354
H39_2 H 0.5606 0.1509 0.5707
H40_2 H 0.6644 0.1801 0.5882
C45_2 C 0.3940(6) 0.1867(2) 0.9236(5)
H41_2 H 0.3968 0.2130 0.9593
H42_2 H 0.3211 0.1825 0.8900
H43_2 H 0.4104 0.1647 0.9734
C46_2 C 0.4169(5) 0.12524(16) 0.7344(4)
C47_2 C 0.4266(6) 0.08841(18) 0.7802(5)
H44_2 H 0.4746 0.0855 0.8401
C48_2 C 0.3694(5) 0.05492(17) 0.7431(5)
H45_2 H 0.3857 0.0290 0.7727
C49_2 C 0.2904(4) 0.05787(14) 0.6655(3)
C50_2 C 0.2812(8) 0.0954(2) 0.6168(7)
H46_2 H 0.2322 0.0981 0.5575
C51_2 C 0.3400(9) 0.1289(2) 0.6510(9)
H47_2 H 0.3284 0.1545 0.6180
C52_2 C 0.2284(4) 0.02168(14) 0.6219(3)
C53_2 C 0.7105(4) 0.34852(13) 0.2714(3)
H48_2 H 0.6904 0.3226 0.2360
H49_2 H 0.7696 0.3427 0.3249
N10_2 N 0.7486(3) 0.37728(12) 0.1980(2)
N11_2 N 0.7989(3) 0.41168(11) 0.2353(2)
C54_2 C 0.8279(4) 0.43186(15) 0.1519(3)
C55_2 C 0.7940(4) 0.41051(15) 0.0620(3)
C56_2 C 0.7425(4) 0.37588(15) 0.0939(3)
C57_2 C 0.8860(5) 0.47208(17) 0.1617(3)
H50_2 H 0.9105 0.4768 0.2339
H51_2 H 0.9490 0.4717 0.1200
H52_2 H 0.8364 0.4940 0.1375
C58_2 C 0.6885(5) 0.3413(2) 0.0336(4)
H53_2 H 0.6101 0.3464 0.0241
H55_2 H 0.7016 0.3157 0.0713
N12_2 N 0.6159(3) 0.36475(11) 0.3200(2)
N13_2 N 0.6321(3) 0.39696(12) 0.3846(3)
C66_2 C 0.5336(4) 0.40906(15) 0.4073(4)
C67_2 C 0.4516(4) 0.38411(15) 0.3555(4)
C68_2 C 0.5087(4) 0.35642(15) 0.3006(3)
C69_2 C 0.5210(4) 0.44440(19) 0.4774(4)
H60_2 H 0.5090 0.4693 0.4366
H61_2 H 0.4587 0.4397 0.5185
H62_2 H 0.5871 0.4474 0.5233
C70_2 C 0.4677(5) 0.3246(2) 0.2259(5)
H63_2 H 0.4379 0.3017 0.2632
H64_2 H 0.4106 0.3362 0.1784
H65_2 H 0.5277 0.3149 0.1869
C71_2 C 0.3338(4) 0.38862(16) 0.3600(4)
C72_2 C 0.2857(4) 0.42687(16) 0.3429(4)
H66_2 H 0.3288 0.4491 0.3230
C73_2 C 0.1760(4) 0.43279(16) 0.3546(4)
H67_2 H 0.1447 0.4591 0.3441
C74_2 C 0.1121(4) 0.40038(16) 0.3817(4)
C75_2 C 0.1558(4) 0.36119(17) 0.3910(5)
H68_2 H 0.1106 0.3386 0.4045
C76_2 C 0.2675(4) 0.35539(17) 0.3802(5)
H69_2 H 0.2980 0.3288 0.3867
N14_2 N 0.8425(7) 0.2067(2) 0.7099(8)
C78_2 C 0.9045(9) 0.1833(3) 0.6972(10)
C79_2 C 0.9765(12) 0.1509(3) 0.6680(9)
H70_2 H 0.9688 0.1472 0.5932
H72_2 H 0.9575 0.1255 0.7018
O16 O 0.7786(3) 0.43243(12) 0.5682(2)
O18 O 0.9332(3) 0.37923(11) 0.4180(3)
O20 O 0.9630(2) 0.44523(10) 0.4028(2)
H54_2 H 0.7187 0.3394 0.9663
C59_2 C 0.8046(4) 0.42262(16) 0.9545(3)
C60_2 C 0.7167(4) 0.41876(19) 0.8819(3)
H56_2 H 0.6480 0.4103 0.9030
C61_2 C 0.7286(5) 0.42719(18) 0.7778(4)
H57_2 H 0.6686 0.4236 0.7286
C62_2 C 0.8268(4) 0.44061(15) 0.7466(3)
C63_2 C 0.9150(4) 0.44626(16) 0.8201(3)
H58_2 H 0.9818 0.4568 0.7996
C64_2 C 0.9047(4) 0.43643(18) 0.9225(3)
H59_2 H 0.9656 0.4390 0.9711
C65_2 C 0.8418(4) 0.44909(14) 0.6348(3)
O9 O 0.9196(3) 0.47234(12) 0.6186(2)
C77_2 C 0.9968(4) 0.40763(15) 0.4024(3)
Cl1 Cl 0.6648(3) 0.2500 0.1699(2)
Cl1_2 Cl 0.3352(3) 0.7500 0.8301(2)
loop_
_geom_bond_atom_site_label_1
_geom_bond_atom_site_label_2
_geom_bond_site_symmetry_1
_geom_bond_site_symmetry_2
O22 Mn1 1_555 1_555
O11 C77 1_555 1_555
O12 Mn1_2 1_555 1_555
Mn11 O11 1_555 1_555
O14 Mn1_2 1_555 1_555
C77 O12 1_555 1_555
O12 Mn11 1_555 1_555
C1 H1 1_555 1_555
H2 C1 1_555 1_555
Mn2 N2 1_555 1_555
N1 C1 1_555 1_555
N2 N1 1_555 1_555
C2 N2 1_555 1_555
C3 C2 1_555 1_555
C4 N1 1_555 1_555
C5 C2 1_555 1_555
H3 C5 1_555 1_555
H4 C5 1_555 1_555
H5 C5 1_555 1_555
C6 C4 1_555 1_555
H6 C6 1_555 1_555
H8 C6 1_555 1_555
N3 C1 1_555 1_555
N4 Mn2 1_555 1_555
C14 N4 1_555 1_555
C15 C14 1_555 1_555
C16 N3 1_555 1_555
C17 C14 1_555 1_555
H13 C17 1_555 1_555
H14 C17 1_555 1_555
H15 C17 1_555 1_555
C18 C16 1_555 1_555
H16 C18 1_555 1_555
H17 C18 1_555 1_555
H18 C18 1_555 1_555
C19 C15 1_555 1_555
C20 C19 1_555 1_555
H19 C20 1_555 1_555
C21 C20 1_555 1_555
H20 C21 1_555 1_555
C22 C21 1_555 1_555
C23 C22 1_555 1_555
H21 C23 1_555 1_555
C24 C19 1_555 1_555
H22 C24 1_555 1_555
O5 Mn2 1_555 1_555
O13 Mn1_3 1_555 1_555
O15 Mn2 1_555 1_555
O17 Mn2 1_555 1_555
O19 Mn1_3 1_555 1_555
Mn2 O19 1_555 1_555
C3 C4 1_555 1_555
N3 N4 1_555 1_555
C15 C16 1_555 1_555
C23 C24 1_555 1_555
C8 C7 1_555 1_555
H9 C8 1_555 1_555
C9 C8 1_555 1_555
H10 C9 1_555 1_555
C10 C9 1_555 1_555
C11 C10 1_555 1_555
H11 C11 1_555 1_555
C12 C7 1_555 1_555
H12 C12 1_555 1_555
C13 C10 1_555 1_555
O13 C13 1_555 1_555
O15 C13 1_555 1_555
C11 C12 1_555 1_555
C60 C59 1_555 1_555
H56 C60 1_555 1_555
C61 C60 1_555 1_555
H57 C61 1_555 1_555
C62 C61 1_555 1_555
C63 C62 1_555 1_555
H58 C63 1_555 1_555
C64 C59 1_555 1_555
H59 C64 1_555 1_555
C65 C62 1_555 1_555
O14 C65 1_555 1_555
O10 C65 1_555 1_555
Mn11 O10 1_555 1_555
C63 C64 1_555 1_555
Mn1_4 O6 1_555 1_555
Rh1 N6 1_555 1_555
C26 H23 1_555 1_555
H24 C26 1_555 1_555
N5 C26 1_555 1_555
N6 N5 1_555 1_555
C27 N6 1_555 1_555
C28 C27 1_555 1_555
C29 N5 1_555 1_555
C30 C27 1_555 1_555
H25 C30 1_555 1_555
H26 C30 1_555 1_555
H27 C30 1_555 1_555
C31 C29 1_555 1_555
H28 C31 1_555 1_555
H29 C31 1_555 1_555
H30 C31 1_555 1_555
C32 C28 1_555 1_555
C33 C32 1_555 1_555
H31 C33 1_555 1_555
C34 C33 1_555 1_555
H32 C34 1_555 1_555
C35 C34 1_555 1_555
C36 C35 1_555 1_555
H33 C36 1_555 1_555
C37 C32 1_555 1_555
H34 C37 1_555 1_555
C38 C35 1_555 1_555
O6 C38 1_555 1_555
N7 Rh1 1_555 1_555
C39 N7 1_555 1_555
C40 C39 1_555 1_555
H35 C40 1_555 1_555
H37 C40 1_555 1_555
N8 C26 1_555 1_555
N9 Rh1 1_555 1_555
C41 N9 1_555 1_555
C42 C41 1_555 1_555
C43 N8 1_555 1_555
C44 C41 1_555 1_555
H38 C44 1_555 1_555
H39 C44 1_555 1_555
H40 C44 1_555 1_555
C45 C43 1_555 1_555
H41 C45 1_555 1_555
H42 C45 1_555 1_555
H43 C45 1_555 1_555
C46 C42 1_555 1_555
C47 C46 1_555 1_555
H44 C47 1_555 1_555
C48 C47 1_555 1_555
H45 C48 1_555 1_555
C49 C48 1_555 1_555
C50 C49 1_555 1_555
H46 C50 1_555 1_555
C51 C46 1_555 1_555
H47 C51 1_555 1_555
C52 C49 1_555 1_555
O7 C52 1_555 1_555
O8 C52 1_555 1_555
C53 H48 1_555 1_555
H49 C53 1_555 1_555
Mn11 N11 1_555 1_555
N10 C53 1_555 1_555
N11 N10 1_555 1_555
C54 N11 1_555 1_555
C55 C54 1_555 1_555
C56 N10 1_555 1_555
C57 C54 1_555 1_555
H50 C57 1_555 1_555
H51 C57 1_555 1_555
H52 C57 1_555 1_555
C58 C56 1_555 1_555
H53 C58 1_555 1_555
H55 C58 1_555 1_555
N12 C53 1_555 1_555
N13 Mn11 1_555 1_555
C66 N13 1_555 1_555
C67 C66 1_555 1_555
C68 N12 1_555 1_555
C69 C66 1_555 1_555
H60 C69 1_555 1_555
H61 C69 1_555 1_555
H62 C69 1_555 1_555
C70 C68 1_555 1_555
H63 C70 1_555 1_555
H64 C70 1_555 1_555
H65 C70 1_555 1_555
C71 C67 1_555 1_555
C72 C71 1_555 1_555
H66 C72 1_555 1_555
C73 C72 1_555 1_555
H67 C73 1_555 1_555
C74 C73 1_555 1_555
C75 C74 1_555 1_555
H68 C75 1_555 1_555
C76 C71 1_555 1_555
H69 C76 1_555 1_555
N14 Rh1 1_555 1_555
C78 N14 1_555 1_555
C79 C78 1_555 1_555
H70 C79 1_555 1_555
H72 C79 1_555 1_555
Mn7_2 O8 1_555 1_555
Mn12 O7 1_555 1_555
O21 Mn11 1_555 1_555
C28 C29 1_555 1_555
C36 C37 1_555 1_555
N8 N9 1_555 1_555
C42 C43 1_555 1_555
C50 C51 1_555 1_555
C55 C56 1_555 1_555
N12 N13 1_555 1_555
C67 C68 1_555 1_555
C75 C76 1_555 1_555
O17 C25 1_555 1_555
O19 C25 1_555 1_555
O3 C25_2 1_555 1_555
O4 C25_2 1_555 1_555
Mn7 O4 1_555 1_555
Mn8 O3 1_555 1_555
O4 Mn8 1_555 1_555
C8_2 C7_2 1_555 1_555
H9_2 C8_2 1_555 1_555
C9_2 C8_2 1_555 1_555
H10_2 C9_2 1_555 1_555
C10_2 C9_2 1_555 1_555
C11_2 C10_2 1_555 1_555
H11_2 C11_2 1_555 1_555
C12_2 C7_2 1_555 1_555
H12_2 C12_2 1_555 1_555
C13_2 C10_2 1_555 1_555
O1 C13_2 1_555 1_555
O2 C13_2 1_555 1_555
Mn7 O1 1_555 1_555
Mn8 O2 1_555 1_555
C11_2 C12_2 1_555 1_555
Mn7 O6_2 1_555 1_555
C1_2 H1_2 1_555 1_555
H2_2 C1_2 1_555 1_555
Mn8 N2_2 1_555 1_555
Rh1_2 N6_2 1_555 1_555
N1_2 C1_2 1_555 1_555
N2_2 N1_2 1_555 1_555
C2_2 N2_2 1_555 1_555
C3_2 C2_2 1_555 1_555
C4_2 N1_2 1_555 1_555
C5_2 C2_2 1_555 1_555
H3_2 C5_2 1_555 1_555
H4_2 C5_2 1_555 1_555
H5_2 C5_2 1_555 1_555
C6_2 C4_2 1_555 1_555
H6_2 C6_2 1_555 1_555
H8_2 C6_2 1_555 1_555
N3_2 C1_2 1_555 1_555
N4_2 Mn8 1_555 1_555
C14_2 N4_2 1_555 1_555
C15_2 C14_2 1_555 1_555
C16_2 N3_2 1_555 1_555
C17_2 C14_2 1_555 1_555
H13_2 C17_2 1_555 1_555
H14_2 C17_2 1_555 1_555
H15_2 C17_2 1_555 1_555
C18_2 C16_2 1_555 1_555
H16_2 C18_2 1_555 1_555
H17_2 C18_2 1_555 1_555
H18_2 C18_2 1_555 1_555
C19_2 C15_2 1_555 1_555
C20_2 C19_2 1_555 1_555
H19_2 C20_2 1_555 1_555
C21_2 C20_2 1_555 1_555
H20_2 C21_2 1_555 1_555
C22_2 C21_2 1_555 1_555
C23_2 C22_2 1_555 1_555
H21_2 C23_2 1_555 1_555
C24_2 C19_2 1_555 1_555
H22_2 C24_2 1_555 1_555
C26_2 H23_2 1_555 1_555
H24_2 C26_2 1_555 1_555
N5_2 C26_2 1_555 1_555
N6_2 N5_2 1_555 1_555
C27_2 N6_2 1_555 1_555
C28_2 C27_2 1_555 1_555
C29_2 N5_2 1_555 1_555
C30_2 C27_2 1_555 1_555
H25_2 C30_2 1_555 1_555
H26_2 C30_2 1_555 1_555
H27_2 C30_2 1_555 1_555
C31_2 C29_2 1_555 1_555
H28_2 C31_2 1_555 1_555
H29_2 C31_2 1_555 1_555
H30_2 C31_2 1_555 1_555
C32_2 C28_2 1_555 1_555
C33_2 C32_2 1_555 1_555
H31_2 C33_2 1_555 1_555
C34_2 C33_2 1_555 1_555
H32_2 C34_2 1_555 1_555
C35_2 C34_2 1_555 1_555
C36_2 C35_2 1_555 1_555
H33_2 C36_2 1_555 1_555
C37_2 C32_2 1_555 1_555
H34_2 C37_2 1_555 1_555
C38_2 C35_2 1_555 1_555
O5_2 Mn8 1_555 1_555
O6_2 C38_2 1_555 1_555
N7_2 Rh1_2 1_555 1_555
C39_2 N7_2 1_555 1_555
C40_2 C39_2 1_555 1_555
H35_2 C40_2 1_555 1_555
H37_2 C40_2 1_555 1_555
N8_2 C26_2 1_555 1_555
N9_2 Rh1_2 1_555 1_555
C41_2 N9_2 1_555 1_555
C42_2 C41_2 1_555 1_555
C43_2 N8_2 1_555 1_555
C44_2 C41_2 1_555 1_555
H38_2 C44_2 1_555 1_555
H39_2 C44_2 1_555 1_555
H40_2 C44_2 1_555 1_555
C45_2 C43_2 1_555 1_555
H41_2 C45_2 1_555 1_555
H42_2 C45_2 1_555 1_555
H43_2 C45_2 1_555 1_555
C46_2 C42_2 1_555 1_555
C47_2 C46_2 1_555 1_555
H44_2 C47_2 1_555 1_555
C48_2 C47_2 1_555 1_555
H45_2 C48_2 1_555 1_555
C49_2 C48_2 1_555 1_555
C50_2 C49_2 1_555 1_555
H46_2 C50_2 1_555 1_555
C51_2 C46_2 1_555 1_555
H47_2 C51_2 1_555 1_555
C52_2 C49_2 1_555 1_555
O22 C52_2 1_555 1_555
C53_2 H48_2 1_555 1_555
H49_2 C53_2 1_555 1_555
Mn12 N11_2 1_555 1_555
N10_2 C53_2 1_555 1_555
N11_2 N10_2 1_555 1_555
C54_2 N11_2 1_555 1_555
C55_2 C54_2 1_555 1_555
C56_2 N10_2 1_555 1_555
C57_2 C54_2 1_555 1_555
H50_2 C57_2 1_555 1_555
H51_2 C57_2 1_555 1_555
H52_2 C57_2 1_555 1_555
C58_2 C56_2 1_555 1_555
H53_2 C58_2 1_555 1_555
H55_2 C58_2 1_555 1_555
N12_2 C53_2 1_555 1_555
N13_2 Mn12 1_555 1_555
C66_2 N13_2 1_555 1_555
C67_2 C66_2 1_555 1_555
C68_2 N12_2 1_555 1_555
C69_2 C66_2 1_555 1_555
H60_2 C69_2 1_555 1_555
H61_2 C69_2 1_555 1_555
H62_2 C69_2 1_555 1_555
C70_2 C68_2 1_555 1_555
H63_2 C70_2 1_555 1_555
H64_2 C70_2 1_555 1_555
H65_2 C70_2 1_555 1_555
C71_2 C67_2 1_555 1_555
C72_2 C71_2 1_555 1_555
H66_2 C72_2 1_555 1_555
C73_2 C72_2 1_555 1_555
H67_2 C73_2 1_555 1_555
C74_2 C73_2 1_555 1_555
C75_2 C74_2 1_555 1_555
H68_2 C75_2 1_555 1_555
C76_2 C71_2 1_555 1_555
H69_2 C76_2 1_555 1_555
N14_2 Rh1_2 1_555 1_555
C78_2 N14_2 1_555 1_555
C79_2 C78_2 1_555 1_555
H70_2 C79_2 1_555 1_555
H72_2 C79_2 1_555 1_555
O16 Mn12 1_555 1_555
O18 Mn12 1_555 1_555
O20 Mn12 1_555 1_555
C3_2 C4_2 1_555 1_555
N3_2 N4_2 1_555 1_555
C15_2 C16_2 1_555 1_555
C23_2 C24_2 1_555 1_555
C28_2 C29_2 1_555 1_555
C36_2 C37_2 1_555 1_555
C38_2 O5_2 1_555 1_555
N8_2 N9_2 1_555 1_555
C42_2 C43_2 1_555 1_555
C50_2 C51_2 1_555 1_555
C55_2 C56_2 1_555 1_555
N12_2 N13_2 1_555 1_555
C67_2 C68_2 1_555 1_555
C75_2 C76_2 1_555 1_555
Mn7_2 O20 1_555 1_555
C60_2 C59_2 1_555 1_555
H56_2 C60_2 1_555 1_555
C61_2 C60_2 1_555 1_555
H57_2 C61_2 1_555 1_555
C62_2 C61_2 1_555 1_555
C63_2 C62_2 1_555 1_555
H58_2 C63_2 1_555 1_555
C64_2 C59_2 1_555 1_555
H59_2 C64_2 1_555 1_555
C65_2 C62_2 1_555 1_555
O9 C65_2 1_555 1_555
O16 C65_2 1_555 1_555
Mn7_2 O9 1_555 1_555
C63_2 C64_2 1_555 1_555
O18 C77_2 1_555 1_555
C77_2 O20 1_555 1_555

#END
