
###############################################################################
#
# This file contains modified crystal structure data generated from the
# MOF subset of the Cambridge Structural Database (CSD) v543 
# hosted by the Cambridge Crystallographic Data Centre (CCDC).
#
# This work is licensed under the Creative Commons
# Attribution-NonCommercial-ShareAlike 4.0 International License.
# To view a copy of this license, visit
# http://creativecommons.org/licenses/by-nc-sa/4.0/
# or send a letter to
# Creative Commons, PO Box 1866, Mountain View, CA 94042, USA.
#
# CIF created using the CSD Python API on 29 September 2022
# The structure has been converted into the P1 space group
# The structure has a 3D framework
# The original CSD entry TUWSAI is in the monoclinic crystal system
# The framework has been calculated to contain at least 10.0% void space
# The void calculation uses a probe of radius 1.32A, grid spacing 0.4
#
###############################################################################

data_TUWSAI
_chemical_formula_moiety         '(C166 H164 Cl4 Mn8 N24 O23 Rh4)n'
_symmetry_cell_setting           triclinic
_symmetry_space_group_name_H-M   'P 1'
_symmetry_Int_Tables_number      1
_space_group_name_Hall           'P 1'
loop_
_symmetry_equiv_pos_site_id
_symmetry_equiv_pos_as_xyz
1 x,y,z
_cell_length_a                   12.362(3)
_cell_length_b                   33.404(7)
_cell_length_c                   13.013(3)
_cell_angle_alpha                90
_cell_angle_beta                 97.03(3)
_cell_angle_gamma                90
_cell_volume                     5333.19
loop_
_atom_site_label
_atom_site_type_symbol
_atom_site_fract_x
_atom_site_fract_y
_atom_site_fract_z
Rh1 Rh 0.1968(2) 0.7500 0.7310(2)
Cl1 Cl 0.1487(8) 0.7500 0.8980(8)
Cl2 Cl 0.3648(7) 0.7500 0.8247(7)
C1 C 0.0490(16) 0.7718(3) 0.687(2)
H1 H 0.0120 0.7852 0.7412
H2 H 0.0373 0.7852 0.6189
C2 C 0.257(5) 0.7707(3) 0.587(2)
H3 H 0.2032 0.7839 0.5350
H4 H 0.3295 0.7839 0.5944
C3 C 0.0490(16) 0.7282(3) 0.687(2)
H5 H 0.0120 0.7148 0.7412
H6 H 0.0373 0.7148 0.6189
C4 C 0.257(5) 0.7293(3) 0.587(2)
H7 H 0.2032 0.7161 0.5350
H8 H 0.3295 0.7161 0.5944
Rh1_2 Rh 0.8032(2) 0.2500 0.2690(2)
Cl1_2 Cl 0.8513(8) 0.2500 0.1020(8)
Cl2_2 Cl 0.6352(7) 0.2500 0.1753(7)
C1_2 C 0.9510(16) 0.2718(3) 0.313(2)
H1_2 H 0.9880 0.2852 0.2588
H2_2 H 0.9627 0.2852 0.3811
C2_2 C 0.743(5) 0.2707(3) 0.413(2)
H3_2 H 0.7968 0.2839 0.4650
H4_2 H 0.6705 0.2839 0.4056
C3_2 C 0.9510(16) 0.2282(3) 0.313(2)
H5_2 H 0.9880 0.2148 0.2588
H6_2 H 0.9627 0.2148 0.3811
C4_2 C 0.743(5) 0.2293(3) 0.413(2)
H7_2 H 0.7968 0.2161 0.4650
H8_2 H 0.6705 0.2161 0.4056
Mn4 Mn -0.0000 -0.0000 0.5000
Mn2 Mn -0.0000 0.5000 0.5000
C21 C 0.0046(7) 0.5881(4) 0.6045(8)
Mn4_2 Mn -0.0000 1.0000 0.5000
O9 O 0.0357(5) 0.5527(2) 0.6041(5)
O10 O 0.0710(7) 0.5301(2) 0.3834(5)
O11 O 0.1525(6) 0.4736(2) 0.5629(7)
Mn5 Mn 0.20822(10) 0.56711(4) 0.60296(10)
O12 O 0.0628(6) 0.6176(2) 0.5937(6)
O7 O 0.7239(6) 0.0104(2) 0.3471(6)
Mn3 Mn 0.79178(10) 0.06711(4) 0.39704(10)
Mn4_3 Mn 1.0000 -0.0000 0.5000
C34 C 0.7868(8) 0.4127(3) 0.0544(7)
C36 C 0.8199(10) 0.4348(3) 0.1456(8)
C37 C 0.7382(9) 0.3798(3) 0.0846(7)
C40 C 0.8782(10) 0.4747(4) 0.1545(8)
N5 N 0.7403(6) 0.3815(2) 0.1872(6)
C41 C 0.6855(10) 0.3438(3) 0.0211(9)
H33 H 0.8715 0.4876 0.0864
H34 H 0.9554 0.4704 0.1794
H35 H 0.8454 0.4918 0.2034
C44 C 0.7045(9) 0.3544(3) 0.2586(9)
H36 H 0.6060 0.3464 0.0136
H37 H 0.7070 0.3188 0.0572
H45 H 0.7655 0.3486 0.3132
H46 H 0.6832 0.3290 0.2225
N9 N 0.7912(7) 0.4152(2) 0.2276(6)
Mn6 Mn 0.79178(10) 0.43289(4) 0.39704(10)
N11 N 0.6341(6) 0.4010(2) 0.3748(6)
N12 N 0.6122(6) 0.3696(2) 0.3067(6)
C60 C 0.5365(8) 0.4134(3) 0.3949(8)
C61 C 0.5055(7) 0.3636(3) 0.2869(9)
C64 C 0.4529(7) 0.3897(3) 0.3439(8)
C65 C 0.5248(8) 0.4474(3) 0.4669(8)
C66 C 0.4590(8) 0.3326(3) 0.2123(10)
C70 C 0.3321(10) 0.3946(4) 0.3487(11)
H63 H 0.5771 0.4442 0.5293
H64 H 0.4506 0.4477 0.4861
H65 H 0.5390 0.4727 0.4327
H66 H 0.4358 0.3094 0.2504
H67 H 0.5145 0.3241 0.1691
H68 H 0.3961 0.3437 0.1683
C71 C 0.1980(8) 0.5779(3) 0.0537(8)
H74 H 0.2896 0.6564 0.0476
C72 C 0.2726(9) 0.3613(4) 0.3676(12)
C73 C 0.2855(7) 0.4314(3) 0.3363(9)
C74 C 0.0931(11) 0.5629(4) 0.0725(11)
C75 C 0.2817(11) 0.5812(5) 0.1360(9)
H75 H 0.3044 0.3354 0.3714
C76 C 0.1564(9) 0.3676(4) 0.3819(12)
C77 C 0.1729(9) 0.4363(4) 0.3505(9)
H76 H 0.3271 0.4537 0.3183
H77 H 0.0360 0.5585 0.0179
C78 C 0.0792(11) 0.5547(4) 0.1830(10)
C79 C 0.2645(11) 0.5740(5) 0.2305(9)
H78 H 0.3525 0.5888 0.1224
H79 H 0.1108 0.3458 0.3956
C80 C 0.1185(7) 0.4052(3) 0.3749(9)
H80 H 0.1388 0.4617 0.3422
H81 H 0.0103 0.5460 0.1999
C81 C 0.1658(8) 0.5594(3) 0.2623(9)
H82 H 0.3231 0.5789 0.2833
C83 C 0.1465(8) 0.5517(3) 0.3722(7)
O16 O 0.2091(7) 0.5679(3) 0.4411(6)
N15 N 0.3659(6) 0.5990(2) 0.6252(6)
N16 N 0.2088(7) 0.5848(2) 0.7724(6)
O19 O 0.2761(6) 0.5104(2) 0.6529(6)
Rh2 Rh 0.24868(15) 0.7500 0.25292(18)
N1 N 0.3751(8) 0.7086(3) 0.2408(10)
C5 C 0.1326(13) 0.7091(7) 0.300(2)
C6 C 0.142(2) 0.7054(11) 0.200(2)
N2 N 0.4373(10) 0.7147(3) 0.1692(9)
C7 C 0.4198(10) 0.6751(3) 0.2949(10)
H9 H 0.1613 0.6868 0.3460
H10 H 0.0636 0.7206 0.3184
H11 H 0.0780 0.7137 0.1520
H12 H 0.1753 0.6802 0.1795
C8 C 0.398(3) 0.7500 0.1097(16)
C9 C 0.5156(11) 0.6874(3) 0.1707(10)
C10 C 0.5065(11) 0.6630(4) 0.2517(9)
C11 C 0.3777(11) 0.6611(4) 0.3905(11)
H13 H 0.3169 0.7500 0.0983
H14 H 0.4251 0.7500 0.0414
C12 C 0.6069(13) 0.6892(4) 0.0978(13)
C13 C 0.5748(10) 0.6268(3) 0.2781(10)
H15 H 0.4255 0.6400 0.4229
H16 H 0.3039 0.6504 0.3730
H17 H 0.3758 0.6835 0.4387
H18 H 0.5917 0.7112 0.0483
H19 H 0.6086 0.6638 0.0601
H20 H 0.6775 0.6936 0.1392
C14 C 0.5796(16) 0.5934(8) 0.2180(17)
C15 C 0.690(3) 0.6341(11) 0.323(3)
H21 H 0.5360 0.5925 0.1527
C16 C 0.641(2) 0.5627(7) 0.2461(19)
C17 C 0.753(4) 0.5941(9) 0.352(3)
H22 H 0.7217 0.6599 0.3325
C18 C 0.7022(9) 0.5586(3) 0.3420(8)
H23 H 0.6443 0.5417 0.1973
H24 H 0.8287 0.5951 0.3766
C19 C 0.7633(9) 0.5217(3) 0.3765(8)
O1 O 0.7239(6) 0.4896(2) 0.3471(6)
O2 O 0.8475(6) 0.5264(2) 0.4371(7)
Mn2_2 Mn 1.0000 0.5000 0.5000
O3 O 0.7909(7) 0.4321(3) 0.5589(6)
O4 O 0.9372(6) 0.3824(2) 0.4063(6)
O5 O 0.9643(5) 0.4473(2) 0.3959(5)
O6 O 0.9290(7) 0.4699(2) 0.6166(5)
C20 C 0.8535(8) 0.4483(3) 0.6278(7)
C22 C 0.8342(8) 0.4406(3) 0.7377(9)
C23 C 0.8815(7) 0.5948(3) 0.6251(9)
C24 C 0.9208(11) 0.4453(4) 0.8170(10)
C25 C 0.7355(11) 0.4260(5) 0.7695(9)
C26 C 0.8436(9) 0.6324(4) 0.6181(12)
C27 C 0.8271(9) 0.5637(4) 0.6495(9)
C28 C 0.9069(11) 0.4371(4) 0.9275(11)
H25 H 0.9897 0.4540 0.8001
H26 H 0.6769 0.4211 0.7167
C29 C 0.7183(11) 0.4188(5) 0.8640(9)
C30 C 0.7274(9) 0.6387(4) 0.6324(12)
H27 H 0.8892 0.6542 0.6044
H28 H 0.8612 0.5383 0.6578
C31 C 0.7145(7) 0.5686(3) 0.6637(9)
C32 C 0.8020(8) 0.4221(3) 0.9463(8)
H29 H 0.9640 0.4415 0.9821
H30 H 0.6475 0.4112 0.8776
C33 C 0.6679(10) 0.6054(4) 0.6513(11)
H31 H 0.6956 0.6646 0.6286
H32 H 0.6729 0.5463 0.6817
C35 C 0.5471(7) 0.6103(3) 0.6561(8)
C38 C 0.4635(8) 0.5866(3) 0.6051(8)
C39 C 0.4945(7) 0.6364(3) 0.7131(9)
C42 C 0.4752(8) 0.5526(3) 0.5331(8)
N6 N 0.3878(6) 0.6304(2) 0.6933(6)
C43 C 0.5410(8) 0.6674(3) 0.7877(10)
H38 H 0.7104 0.3436 0.9524
H39 H 0.4229 0.5558 0.4707
H40 H 0.5494 0.5523 0.5139
H41 H 0.4610 0.5273 0.5673
H42 H 0.5642 0.6906 0.7496
H43 H 0.4855 0.6759 0.8309
H44 H 0.6039 0.6563 0.8317
N7 N 0.3751(8) 0.7914(3) 0.2408(10)
C45 C 0.1326(13) 0.7909(7) 0.300(2)
C46 C 0.142(2) 0.7946(11) 0.200(2)
N8 N 0.4373(10) 0.7853(3) 0.1692(9)
C47 C 0.4198(10) 0.8249(3) 0.2949(10)
H47 H 0.1613 0.8132 0.3460
H48 H 0.0636 0.7794 0.3184
H49 H 0.0780 0.7863 0.1520
H50 H 0.1753 0.8198 0.1795
C48 C 0.5156(11) 0.8126(3) 0.1707(10)
C49 C 0.5065(11) 0.8370(4) 0.2517(9)
C50 C 0.3777(11) 0.8389(4) 0.3905(11)
C51 C 0.6069(13) 0.8108(4) 0.0978(13)
C52 C 0.5748(10) 0.8732(3) 0.2781(10)
H51 H 0.4255 0.8600 0.4229
H52 H 0.3039 0.8496 0.3730
H53 H 0.3758 0.8165 0.4387
H54 H 0.5917 0.7888 0.0483
H55 H 0.6086 0.8362 0.0601
H56 H 0.6775 0.8064 0.1392
C53 C 0.5796(16) 0.9066(8) 0.2180(17)
C54 C 0.690(3) 0.8659(11) 0.323(3)
H57 H 0.5360 0.9075 0.1527
C55 C 0.641(2) 0.9373(7) 0.2461(19)
C56 C 0.753(4) 0.9059(9) 0.352(3)
H58 H 0.7217 0.8401 0.3325
C57 C 0.7022(9) 0.9414(3) 0.3420(8)
H59 H 0.6443 0.9583 0.1973
H60 H 0.8287 0.9049 0.3766
C58 C 0.7633(9) 0.9783(3) 0.3765(8)
O8 O 0.8475(6) 0.9736(2) 0.4371(7)
Mn4_4 Mn 1.0000 1.0000 0.5000
C59 C 0.2955(9) 0.6456(3) 0.7414(9)
H61 H 0.2345 0.6514 0.6868
H62 H 0.3168 0.6710 0.7775
N14 N 0.2597(6) 0.6185(2) 0.8128(6)
C62 C 0.1801(10) 0.5652(3) 0.8544(8)
C63 C 0.2618(9) 0.6202(3) 0.9154(7)
C67 C 0.2132(8) 0.5873(3) 0.9456(7)
C68 C 0.1218(10) 0.5253(4) 0.8455(8)
C69 C 0.3145(10) 0.6562(3) 0.9789(9)
H69 H 0.1285 0.5124 0.9136
H70 H 0.0446 0.5296 0.8206
H71 H 0.1546 0.5082 0.7966
H72 H 0.3940 0.6536 0.9864
H73 H 0.2930 0.6812 0.9428
C82 C 0.9954(7) 0.4119(4) 0.3955(8)
C82_2 C 0.0046(7) 0.9119(4) 0.6045(8)
O13 O 0.0628(6) 0.8824(2) 0.5937(6)
O14 O 0.0357(5) 0.9473(2) 0.6041(5)
Mn8 Mn 0.20822(10) 0.93289(4) 0.60296(10)
Rh2_2 Rh 0.75132(15) 0.2500 0.74708(18)
N1_2 N 0.6249(8) 0.2086(3) 0.7592(10)
C5_2 C 0.8674(13) 0.2091(7) 0.700(2)
C6_2 C 0.858(2) 0.2054(11) 0.800(2)
N2_2 N 0.5627(10) 0.2147(3) 0.8308(9)
C7_2 C 0.5802(10) 0.1751(3) 0.7051(10)
H9_2 H 0.8387 0.1868 0.6540
H10_2 H 0.9364 0.2206 0.6816
H11_2 H 0.9220 0.2137 0.8480
H12_2 H 0.8247 0.1802 0.8205
C8_2 C 0.602(3) 0.2500 0.8903(16)
C9_2 C 0.4844(11) 0.1874(3) 0.8293(10)
C10_2 C 0.4935(11) 0.1630(4) 0.7483(9)
C11_2 C 0.6223(11) 0.1611(4) 0.6095(11)
H13_2 H 0.6831 0.2500 0.9017
H14_2 H 0.5749 0.2500 0.9586
C12_2 C 0.3931(13) 0.1892(4) 0.9022(13)
C13_2 C 0.4252(10) 0.1268(3) 0.7219(10)
H15_2 H 0.5745 0.1400 0.5771
H16_2 H 0.6961 0.1504 0.6270
H17_2 H 0.6242 0.1835 0.5613
H18_2 H 0.4083 0.2112 0.9517
H19_2 H 0.3914 0.1638 0.9399
H20_2 H 0.3225 0.1936 0.8608
C14_2 C 0.4204(16) 0.0934(8) 0.7820(17)
C15_2 C 0.310(3) 0.1341(11) 0.677(3)
H21_2 H 0.4640 0.0925 0.8473
C16_2 C 0.359(2) 0.0627(7) 0.7539(19)
C17_2 C 0.247(4) 0.0941(9) 0.648(3)
H22_2 H 0.2783 0.1599 0.6675
C18_2 C 0.2978(9) 0.0586(3) 0.6580(8)
H23_2 H 0.3557 0.0417 0.8027
H24_2 H 0.1713 0.0951 0.6234
C19_2 C 0.2367(9) 0.0217(3) 0.6235(8)
O2_2 O 0.1525(6) 0.0264(2) 0.5629(7)
C23_2 C 0.1185(7) 0.0948(3) 0.3749(9)
C26_2 C 0.1564(9) 0.1324(4) 0.3819(12)
C27_2 C 0.1729(9) 0.0637(4) 0.3505(9)
C30_2 C 0.2726(9) 0.1387(4) 0.3676(12)
H27_2 H 0.1108 0.1542 0.3956
H28_2 H 0.1388 0.0383 0.3422
C31_2 C 0.2855(7) 0.0686(3) 0.3363(9)
C33_2 C 0.3321(10) 0.1054(4) 0.3487(11)
H31_2 H 0.3044 0.1646 0.3714
H32_2 H 0.3271 0.0463 0.3183
C35_2 C 0.4529(7) 0.1103(3) 0.3439(8)
C38_2 C 0.5365(8) 0.0866(3) 0.3949(8)
C39_2 C 0.5055(7) 0.1364(3) 0.2869(9)
C42_2 C 0.5248(8) 0.0526(3) 0.4669(8)
N6_2 N 0.6122(6) 0.1304(2) 0.3067(6)
C43_2 C 0.4590(8) 0.1674(3) 0.2123(10)
H39_2 H 0.5771 0.0558 0.5293
H40_2 H 0.4506 0.0523 0.4861
H41_2 H 0.5390 0.0273 0.4327
H42_2 H 0.4358 0.1906 0.2504
H43_2 H 0.5145 0.1759 0.1691
H44_2 H 0.3961 0.1563 0.1683
N7_2 N 0.6249(8) 0.2914(3) 0.7592(10)
C45_2 C 0.8674(13) 0.2909(7) 0.700(2)
C46_2 C 0.858(2) 0.2946(11) 0.800(2)
N8_2 N 0.5627(10) 0.2853(3) 0.8308(9)
C47_2 C 0.5802(10) 0.3249(3) 0.7051(10)
H47_2 H 0.8387 0.3132 0.6540
H48_2 H 0.9364 0.2794 0.6816
H49_2 H 0.9220 0.2863 0.8480
H50_2 H 0.8247 0.3198 0.8205
C48_2 C 0.4844(11) 0.3126(3) 0.8293(10)
C49_2 C 0.4935(11) 0.3370(4) 0.7483(9)
C50_2 C 0.6223(11) 0.3389(4) 0.6095(11)
C51_2 C 0.3931(13) 0.3108(4) 0.9022(13)
C52_2 C 0.4252(10) 0.3732(3) 0.7219(10)
H51_2 H 0.5745 0.3600 0.5771
H52_2 H 0.6961 0.3496 0.6270
H53_2 H 0.6242 0.3165 0.5613
H54_2 H 0.4083 0.2888 0.9517
H55_2 H 0.3914 0.3362 0.9399
H56_2 H 0.3225 0.3064 0.8608
C53_2 C 0.4204(16) 0.4066(8) 0.7820(17)
C54_2 C 0.310(3) 0.3659(11) 0.677(3)
H57_2 H 0.4640 0.4075 0.8473
C55_2 C 0.359(2) 0.4373(7) 0.7539(19)
C56_2 C 0.247(4) 0.4059(9) 0.648(3)
H58_2 H 0.2783 0.3401 0.6675
C57_2 C 0.2978(9) 0.4414(3) 0.6580(8)
H59_2 H 0.3557 0.4583 0.8027
H60_2 H 0.1713 0.4049 0.6234
C58_2 C 0.2367(9) 0.4783(3) 0.6235(8)
N10 N 0.6341(6) 0.0990(2) 0.3748(6)
C59_2 C 0.7045(9) 0.1456(3) 0.2586(9)
N13 N 0.7912(7) 0.0848(2) 0.2276(6)
H61_2 H 0.7655 0.1514 0.3132
H62_2 H 0.6832 0.1710 0.2225
N14_2 N 0.7403(6) 0.1185(2) 0.1872(6)
C62_2 C 0.8199(10) 0.0652(3) 0.1456(8)
C63_2 C 0.7382(9) 0.1202(3) 0.0846(7)
C67_2 C 0.7868(8) 0.0873(3) 0.0544(7)
C68_2 C 0.8782(10) 0.0253(4) 0.1545(8)
C69_2 C 0.6855(10) 0.1562(3) 0.0211(9)
H69_2 H 0.8715 0.0124 0.0864
H70_2 H 0.9554 0.0296 0.1794
H71_2 H 0.8454 0.0082 0.2034
H72_2 H 0.6060 0.1536 0.0136
H73_2 H 0.7070 0.1812 0.0572
C71_2 C 0.8020(8) 0.0779(3) 0.9463(8)
H74_2 H 0.7104 0.1564 0.9524
C74_2 C 0.9069(11) 0.0629(4) 0.9275(11)
C75_2 C 0.7183(11) 0.0812(5) 0.8640(9)
H77_2 H 0.9640 0.0585 0.9821
C78_2 C 0.9208(11) 0.0547(4) 0.8170(10)
C79_2 C 0.7355(11) 0.0740(5) 0.7695(9)
H78_2 H 0.6475 0.0888 0.8776
H81_2 H 0.9897 0.0460 0.8001
C81_2 C 0.8342(8) 0.0594(3) 0.7377(9)
H82_2 H 0.6769 0.0789 0.7167
C83_2 C 0.8535(8) 0.0517(3) 0.6278(7)
O15 O 0.9290(7) 0.0301(2) 0.6166(5)
O16_2 O 0.7909(7) 0.0679(3) 0.5589(6)
O17 O 0.9643(5) 0.0527(2) 0.3959(5)
O18 O 0.9372(6) 0.1176(2) 0.4063(6)
O1_2 O 0.2761(6) 0.9896(2) 0.6529(6)
O3_2 O 0.2091(7) 0.9321(3) 0.4411(6)
N3 N 0.2088(7) 0.9152(2) 0.7724(6)
N4 N 0.3659(6) 0.9010(2) 0.6252(6)
O6_2 O 0.0710(7) 0.9699(2) 0.3834(5)
C20_2 C 0.1465(8) 0.9483(3) 0.3722(7)
C22_2 C 0.1658(8) 0.9406(3) 0.2623(9)
C24_2 C 0.0792(11) 0.9453(4) 0.1830(10)
C25_2 C 0.2645(11) 0.9260(5) 0.2305(9)
C28_2 C 0.0931(11) 0.9371(4) 0.0725(11)
H25_2 H 0.0103 0.9540 0.1999
H26_2 H 0.3231 0.9211 0.2833
C29_2 C 0.2817(11) 0.9188(5) 0.1360(9)
C32_2 C 0.1980(8) 0.9221(3) 0.0537(8)
H29_2 H 0.0360 0.9415 0.0179
H30_2 H 0.3525 0.9112 0.1224
H38_2 H 0.2896 0.8436 0.0476
C34_2 C 0.2132(8) 0.9127(3) 0.9456(7)
C36_2 C 0.1801(10) 0.9348(3) 0.8544(8)
C37_2 C 0.2618(9) 0.8798(3) 0.9154(7)
C40_2 C 0.1218(10) 0.9747(4) 0.8455(8)
N5_2 N 0.2597(6) 0.8815(2) 0.8128(6)
C41_2 C 0.3145(10) 0.8438(3) 0.9789(9)
H33_2 H 0.1285 0.9876 0.9136
H34_2 H 0.0446 0.9704 0.8206
H35_2 H 0.1546 0.9918 0.7966
C44_2 C 0.2955(9) 0.8544(3) 0.7414(9)
H36_2 H 0.3940 0.8464 0.9864
H37_2 H 0.2930 0.8188 0.9428
H45_2 H 0.2345 0.8486 0.6868
H46_2 H 0.3168 0.8290 0.7775
N12_2 N 0.3878(6) 0.8696(2) 0.6933(6)
C60_2 C 0.4635(8) 0.9134(3) 0.6051(8)
C61_2 C 0.4945(7) 0.8636(3) 0.7131(9)
C64_2 C 0.5471(7) 0.8897(3) 0.6561(8)
C65_2 C 0.4752(8) 0.9474(3) 0.5331(8)
C66_2 C 0.5410(8) 0.8326(3) 0.7877(10)
C70_2 C 0.6679(10) 0.8946(4) 0.6513(11)
H63_2 H 0.4229 0.9442 0.4707
H64_2 H 0.5494 0.9477 0.5139
H65_2 H 0.4610 0.9727 0.5673
H66_2 H 0.5642 0.8094 0.7496
H67_2 H 0.4855 0.8241 0.8309
H68_2 H 0.6039 0.8437 0.8317
C72_2 C 0.7274(9) 0.8613(4) 0.6324(12)
C73_2 C 0.7145(7) 0.9314(3) 0.6637(9)
H75_2 H 0.6956 0.8354 0.6286
C76_2 C 0.8436(9) 0.8676(4) 0.6181(12)
C77_2 C 0.8271(9) 0.9363(4) 0.6495(9)
H76_2 H 0.6729 0.9537 0.6817
H79_2 H 0.8892 0.8458 0.6044
C80_2 C 0.8815(7) 0.9052(3) 0.6251(9)
H80_2 H 0.8612 0.9617 0.6578
C21_2 C 0.9954(7) 0.0881(4) 0.3955(8)
loop_
_geom_bond_atom_site_label_1
_geom_bond_atom_site_label_2
_geom_bond_site_symmetry_1
_geom_bond_site_symmetry_2
Rh1 Cl1 1_555 1_555
Cl2 Rh1 1_555 1_555
C1 Rh1 1_555 1_555
H1 C1 1_555 1_555
H2 C1 1_555 1_555
C2 Rh1 1_555 1_555
H3 C2 1_555 1_555
H4 C2 1_555 1_555
C3 Rh1 1_555 1_555
H5 C3 1_555 1_555
H6 C3 1_555 1_555
C4 Rh1 1_555 1_555
H7 C4 1_555 1_555
H8 C4 1_555 1_555
C1 C3 1_555 1_555
C2 C4 1_555 1_555
Rh1_2 Cl1_2 1_555 1_555
Cl2_2 Rh1_2 1_555 1_555
C1_2 Rh1_2 1_555 1_555
H1_2 C1_2 1_555 1_555
H2_2 C1_2 1_555 1_555
C2_2 Rh1_2 1_555 1_555
H3_2 C2_2 1_555 1_555
H4_2 C2_2 1_555 1_555
C3_2 Rh1_2 1_555 1_555
H5_2 C3_2 1_555 1_555
H6_2 C3_2 1_555 1_555
C4_2 Rh1_2 1_555 1_555
H7_2 C4_2 1_555 1_555
H8_2 C4_2 1_555 1_555
C1_2 C3_2 1_555 1_555
C2_2 C4_2 1_555 1_555
O9 Mn2 1_555 1_555
O10 Mn2 1_555 1_555
O11 Mn2 1_555 1_555
Mn5 O9 1_555 1_555
O12 C21 1_555 1_555
C21 O9 1_555 1_555
Mn5 O12 1_555 1_555
Mn3 O7 1_555 1_555
C36 C34 1_555 1_555
C37 C34 1_555 1_555
C40 C36 1_555 1_555
N5 C37 1_555 1_555
C41 C37 1_555 1_555
H33 C40 1_555 1_555
H34 C40 1_555 1_555
H35 C40 1_555 1_555
C44 N5 1_555 1_555
H36 C41 1_555 1_555
H37 C41 1_555 1_555
H45 C44 1_555 1_555
H46 C44 1_555 1_555
N9 C36 1_555 1_555
Mn6 N9 1_555 1_555
N11 Mn6 1_555 1_555
N12 C44 1_555 1_555
C60 N11 1_555 1_555
C61 N12 1_555 1_555
C64 C60 1_555 1_555
C65 C60 1_555 1_555
C66 C61 1_555 1_555
C70 C64 1_555 1_555
H63 C65 1_555 1_555
H64 C65 1_555 1_555
H65 C65 1_555 1_555
H66 C66 1_555 1_555
H67 C66 1_555 1_555
H68 C66 1_555 1_555
C72 C70 1_555 1_555
C73 C70 1_555 1_555
C74 C71 1_555 1_555
C75 C71 1_555 1_555
H75 C72 1_555 1_555
C76 C72 1_555 1_555
C77 C73 1_555 1_555
H76 C73 1_555 1_555
H77 C74 1_555 1_555
C78 C74 1_555 1_555
C79 C75 1_555 1_555
H78 C75 1_555 1_555
H79 C76 1_555 1_555
C80 C76 1_555 1_555
H80 C77 1_555 1_555
H81 C78 1_555 1_555
C81 C78 1_555 1_555
H82 C79 1_555 1_555
C83 C81 1_555 1_555
O10 C83 1_555 1_555
O16 C83 1_555 1_555
Mn5 O16 1_555 1_555
N15 Mn5 1_555 1_555
N16 Mn5 1_555 1_555
O19 Mn5 1_555 1_555
N5 N9 1_555 1_555
N11 N12 1_555 1_555
C61 C64 1_555 1_555
C77 C80 1_555 1_555
C79 C81 1_555 1_555
Rh2 N1 1_555 1_555
N1 N2 1_555 1_555
C5 Rh2 1_555 1_555
C6 Rh2 1_555 1_555
N2 C8 1_555 1_555
C7 N1 1_555 1_555
H9 C5 1_555 1_555
H10 C5 1_555 1_555
H11 C6 1_555 1_555
H12 C6 1_555 1_555
C8 H13 1_555 1_555
C9 N2 1_555 1_555
C10 C7 1_555 1_555
C11 C7 1_555 1_555
H14 C8 1_555 1_555
C12 C9 1_555 1_555
C13 C10 1_555 1_555
H15 C11 1_555 1_555
H16 C11 1_555 1_555
H17 C11 1_555 1_555
H18 C12 1_555 1_555
H19 C12 1_555 1_555
H20 C12 1_555 1_555
C14 C13 1_555 1_555
C15 C13 1_555 1_555
H21 C14 1_555 1_555
C16 C14 1_555 1_555
C17 C15 1_555 1_555
H22 C15 1_555 1_555
C18 C16 1_555 1_555
H23 C16 1_555 1_555
H24 C17 1_555 1_555
C19 C18 1_555 1_555
O1 C19 1_555 1_555
O2 C19 1_555 1_555
Mn6 O1 1_555 1_555
Mn2_2 O2 1_555 1_555
O3 Mn6 1_555 1_555
O4 Mn6 1_555 1_555
O5 Mn6 1_555 1_555
O6 Mn2_2 1_555 1_555
C20 O3 1_555 1_555
C22 C20 1_555 1_555
C23 C26 1_555 1_555
C24 C22 1_555 1_555
C25 C22 1_555 1_555
C26 C30 1_555 1_555
C27 C23 1_555 1_555
C28 C24 1_555 1_555
H25 C24 1_555 1_555
H26 C25 1_555 1_555
C29 C25 1_555 1_555
C30 C33 1_555 1_555
H27 C26 1_555 1_555
H28 C27 1_555 1_555
C31 C27 1_555 1_555
C32 C28 1_555 1_555
H29 C28 1_555 1_555
H30 C29 1_555 1_555
C33 C31 1_555 1_555
H31 C30 1_555 1_555
H32 C31 1_555 1_555
C35 C33 1_555 1_555
C38 C35 1_555 1_555
C39 C35 1_555 1_555
C42 C38 1_555 1_555
N6 C39 1_555 1_555
C43 C39 1_555 1_555
H39 C42 1_555 1_555
H40 C42 1_555 1_555
H41 C42 1_555 1_555
H42 C43 1_555 1_555
H43 C43 1_555 1_555
H44 C43 1_555 1_555
N7 Rh2 1_555 1_555
C45 Rh2 1_555 1_555
C46 Rh2 1_555 1_555
N8 C8 1_555 1_555
C47 N7 1_555 1_555
H47 C45 1_555 1_555
H48 C45 1_555 1_555
H49 C46 1_555 1_555
H50 C46 1_555 1_555
C48 N8 1_555 1_555
C49 C47 1_555 1_555
C50 C47 1_555 1_555
C51 C48 1_555 1_555
C52 C49 1_555 1_555
H51 C50 1_555 1_555
H52 C50 1_555 1_555
H53 C50 1_555 1_555
H54 C51 1_555 1_555
H55 C51 1_555 1_555
H56 C51 1_555 1_555
C53 C52 1_555 1_555
C54 C52 1_555 1_555
H57 C53 1_555 1_555
C55 C53 1_555 1_555
C56 C54 1_555 1_555
H58 C54 1_555 1_555
C57 C55 1_555 1_555
H59 C55 1_555 1_555
H60 C56 1_555 1_555
C58 C57 1_555 1_555
O8 C58 1_555 1_555
Mn4_4 O8 1_555 1_555
N15 C38 1_555 1_555
C59 N6 1_555 1_555
H61 C59 1_555 1_555
H62 C59 1_555 1_555
N14 C59 1_555 1_555
C62 N16 1_555 1_555
C63 N14 1_555 1_555
C67 C62 1_555 1_555
C68 C62 1_555 1_555
C69 C63 1_555 1_555
H69 C68 1_555 1_555
H70 C68 1_555 1_555
H71 C68 1_555 1_555
H72 C69 1_555 1_555
H73 C69 1_555 1_555
C5 C6 1_555 1_555
C9 C10 1_555 1_555
C17 C18 1_555 1_555
Mn2_2 O5 1_555 1_555
O6 C20 1_555 1_555
C29 C32 1_555 1_555
N6 N15 1_555 1_555
N7 N8 1_555 1_555
C45 C46 1_555 1_555
C48 C49 1_555 1_555
C56 C57 1_555 1_555
N16 N14 1_555 1_555
C63 C67 1_555 1_555
O4 C82 1_555 1_555
O5 C82 1_555 1_555
O13 C82_2 1_555 1_555
O14 C82_2 1_555 1_555
Mn8 O13 1_555 1_555
Mn4_2 O14 1_555 1_555
O14 Mn8 1_555 1_555
Rh2_2 N1_2 1_555 1_555
N1_2 N2_2 1_555 1_555
C5_2 Rh2_2 1_555 1_555
C6_2 Rh2_2 1_555 1_555
N2_2 C8_2 1_555 1_555
C7_2 N1_2 1_555 1_555
H9_2 C5_2 1_555 1_555
H10_2 C5_2 1_555 1_555
H11_2 C6_2 1_555 1_555
H12_2 C6_2 1_555 1_555
C8_2 H13_2 1_555 1_555
C9_2 N2_2 1_555 1_555
C10_2 C7_2 1_555 1_555
C11_2 C7_2 1_555 1_555
H14_2 C8_2 1_555 1_555
C12_2 C9_2 1_555 1_555
C13_2 C10_2 1_555 1_555
H15_2 C11_2 1_555 1_555
H16_2 C11_2 1_555 1_555
H17_2 C11_2 1_555 1_555
H18_2 C12_2 1_555 1_555
H19_2 C12_2 1_555 1_555
H20_2 C12_2 1_555 1_555
C14_2 C13_2 1_555 1_555
C15_2 C13_2 1_555 1_555
H21_2 C14_2 1_555 1_555
C16_2 C14_2 1_555 1_555
C17_2 C15_2 1_555 1_555
H22_2 C15_2 1_555 1_555
C18_2 C16_2 1_555 1_555
H23_2 C16_2 1_555 1_555
H24_2 C17_2 1_555 1_555
C19_2 C18_2 1_555 1_555
O2_2 C19_2 1_555 1_555
Mn4 O2_2 1_555 1_555
C23_2 C26_2 1_555 1_555
C26_2 C30_2 1_555 1_555
C27_2 C23_2 1_555 1_555
C30_2 C33_2 1_555 1_555
H27_2 C26_2 1_555 1_555
H28_2 C27_2 1_555 1_555
C31_2 C27_2 1_555 1_555
C33_2 C31_2 1_555 1_555
H31_2 C30_2 1_555 1_555
H32_2 C31_2 1_555 1_555
C35_2 C33_2 1_555 1_555
C38_2 C35_2 1_555 1_555
C39_2 C35_2 1_555 1_555
C42_2 C38_2 1_555 1_555
N6_2 C39_2 1_555 1_555
C43_2 C39_2 1_555 1_555
H39_2 C42_2 1_555 1_555
H40_2 C42_2 1_555 1_555
H41_2 C42_2 1_555 1_555
H42_2 C43_2 1_555 1_555
H43_2 C43_2 1_555 1_555
H44_2 C43_2 1_555 1_555
N7_2 Rh2_2 1_555 1_555
C45_2 Rh2_2 1_555 1_555
C46_2 Rh2_2 1_555 1_555
N8_2 C8_2 1_555 1_555
C47_2 N7_2 1_555 1_555
H47_2 C45_2 1_555 1_555
H48_2 C45_2 1_555 1_555
H49_2 C46_2 1_555 1_555
H50_2 C46_2 1_555 1_555
C48_2 N8_2 1_555 1_555
C49_2 C47_2 1_555 1_555
C50_2 C47_2 1_555 1_555
C51_2 C48_2 1_555 1_555
C52_2 C49_2 1_555 1_555
H51_2 C50_2 1_555 1_555
H52_2 C50_2 1_555 1_555
H53_2 C50_2 1_555 1_555
H54_2 C51_2 1_555 1_555
H55_2 C51_2 1_555 1_555
H56_2 C51_2 1_555 1_555
C53_2 C52_2 1_555 1_555
C54_2 C52_2 1_555 1_555
H57_2 C53_2 1_555 1_555
C55_2 C53_2 1_555 1_555
C56_2 C54_2 1_555 1_555
H58_2 C54_2 1_555 1_555
C57_2 C55_2 1_555 1_555
H59_2 C55_2 1_555 1_555
H60_2 C56_2 1_555 1_555
C58_2 C57_2 1_555 1_555
O19 C58_2 1_555 1_555
O11 C58_2 1_555 1_555
N10 C38_2 1_555 1_555
Mn3 N10 1_555 1_555
C59_2 N6_2 1_555 1_555
N13 Mn3 1_555 1_555
H61_2 C59_2 1_555 1_555
H62_2 C59_2 1_555 1_555
N14_2 C59_2 1_555 1_555
C62_2 N13 1_555 1_555
C63_2 N14_2 1_555 1_555
C67_2 C62_2 1_555 1_555
C68_2 C62_2 1_555 1_555
C69_2 C63_2 1_555 1_555
H69_2 C68_2 1_555 1_555
H70_2 C68_2 1_555 1_555
H71_2 C68_2 1_555 1_555
H72_2 C69_2 1_555 1_555
H73_2 C69_2 1_555 1_555
C5_2 C6_2 1_555 1_555
C9_2 C10_2 1_555 1_555
C17_2 C18_2 1_555 1_555
N6_2 N10 1_555 1_555
N7_2 N8_2 1_555 1_555
C45_2 C46_2 1_555 1_555
C48_2 C49_2 1_555 1_555
C56_2 C57_2 1_555 1_555
N13 N14_2 1_555 1_555
C63_2 C67_2 1_555 1_555
C74_2 C71_2 1_555 1_555
C75_2 C71_2 1_555 1_555
H77_2 C74_2 1_555 1_555
C78_2 C74_2 1_555 1_555
C79_2 C75_2 1_555 1_555
H78_2 C75_2 1_555 1_555
H81_2 C78_2 1_555 1_555
C81_2 C78_2 1_555 1_555
H82_2 C79_2 1_555 1_555
C83_2 C81_2 1_555 1_555
O15 C83_2 1_555 1_555
O16_2 C83_2 1_555 1_555
Mn3 O16_2 1_555 1_555
O17 Mn4_3 1_555 1_555
O18 Mn3 1_555 1_555
C79_2 C81_2 1_555 1_555
O15 Mn4_3 1_555 1_555
Mn3 O17 1_555 1_555
Mn8 O1_2 1_555 1_555
O3_2 Mn8 1_555 1_555
N3 Mn8 1_555 1_555
N4 Mn8 1_555 1_555
O6_2 Mn4_2 1_555 1_555
C20_2 O3_2 1_555 1_555
C22_2 C20_2 1_555 1_555
C24_2 C22_2 1_555 1_555
C25_2 C22_2 1_555 1_555
C28_2 C24_2 1_555 1_555
H25_2 C24_2 1_555 1_555
H26_2 C25_2 1_555 1_555
C29_2 C25_2 1_555 1_555
C32_2 C28_2 1_555 1_555
H29_2 C28_2 1_555 1_555
H30_2 C29_2 1_555 1_555
O6_2 C20_2 1_555 1_555
C29_2 C32_2 1_555 1_555
C36_2 C34_2 1_555 1_555
C37_2 C34_2 1_555 1_555
C40_2 C36_2 1_555 1_555
N5_2 C37_2 1_555 1_555
C41_2 C37_2 1_555 1_555
H33_2 C40_2 1_555 1_555
H34_2 C40_2 1_555 1_555
H35_2 C40_2 1_555 1_555
C44_2 N5_2 1_555 1_555
H36_2 C41_2 1_555 1_555
H37_2 C41_2 1_555 1_555
H45_2 C44_2 1_555 1_555
H46_2 C44_2 1_555 1_555
N3 C36_2 1_555 1_555
N12_2 C44_2 1_555 1_555
C60_2 N4 1_555 1_555
C61_2 N12_2 1_555 1_555
C64_2 C60_2 1_555 1_555
C65_2 C60_2 1_555 1_555
C66_2 C61_2 1_555 1_555
C70_2 C64_2 1_555 1_555
H63_2 C65_2 1_555 1_555
H64_2 C65_2 1_555 1_555
H65_2 C65_2 1_555 1_555
H66_2 C66_2 1_555 1_555
H67_2 C66_2 1_555 1_555
H68_2 C66_2 1_555 1_555
C72_2 C70_2 1_555 1_555
C73_2 C70_2 1_555 1_555
H75_2 C72_2 1_555 1_555
C76_2 C72_2 1_555 1_555
C77_2 C73_2 1_555 1_555
H76_2 C73_2 1_555 1_555
H79_2 C76_2 1_555 1_555
C80_2 C76_2 1_555 1_555
H80_2 C77_2 1_555 1_555
N5_2 N3 1_555 1_555
N4 N12_2 1_555 1_555
C61_2 C64_2 1_555 1_555
C77_2 C80_2 1_555 1_555
O18 C21_2 1_555 1_555
C21_2 O17 1_555 1_555

#END
