
###############################################################################
#
# This file contains modified crystal structure data generated from the
# MOF subset of the Cambridge Structural Database (CSD) v543 
# hosted by the Cambridge Crystallographic Data Centre (CCDC).
#
# This work is licensed under the Creative Commons
# Attribution-NonCommercial-ShareAlike 4.0 International License.
# To view a copy of this license, visit
# http://creativecommons.org/licenses/by-nc-sa/4.0/
# or send a letter to
# Creative Commons, PO Box 1866, Mountain View, CA 94042, USA.
#
# CIF created using the CSD Python API on 29 September 2022
# The structure has been converted into the P1 space group
# The structure has a 3D framework
# The original CSD entry TUXTUD is in the cubic crystal system
# The framework has been calculated to contain at least 10.0% void space
# The void calculation uses a probe of radius 1.32A, grid spacing 0.4
#
###############################################################################

data_TUXTUD
_chemical_formula_moiety         '(C576 H288 N144 O336 Tb48)n'
_symmetry_cell_setting           triclinic
_symmetry_space_group_name_H-M   'P 1'
_symmetry_Int_Tables_number      1
_space_group_name_Hall           'P 1'
loop_
_symmetry_equiv_pos_site_id
_symmetry_equiv_pos_as_xyz
1 x,y,z
_cell_length_a                   29.2095(7)
_cell_length_b                   29.2095(7)
_cell_length_c                   29.2095(7)
_cell_angle_alpha                90
_cell_angle_beta                 90
_cell_angle_gamma                90
_cell_volume                     24921.4
loop_
_atom_site_label
_atom_site_type_symbol
_atom_site_fract_x
_atom_site_fract_y
_atom_site_fract_z
Tb1 Tb 0.63651(2) 0.34562(2) 0.02726(2)
O1 O 0.6377(3) 0.2685(3) 0.0063(3)
O3 O 0.6426(3) 0.4883(3) 0.0705(3)
O4 O 0.6292(3) 0.4138(3) 0.0655(3)
O5 O 0.6431(4) 0.3137(4) 0.1057(3)
O6 O 0.5850(4) 0.2955(4) 0.1481(4)
O7 O 0.5748(4) 0.3221(4) 0.0796(4)
N3 N 0.6005(5) 0.3110(4) 0.1119(5)
C11 C 0.6614(4) 0.4547(6) 0.0004(5)
C12 C 0.6428(4) 0.4503(5) 0.0492(5)
Tb2 Tb 0.65438(2) 0.52726(2) 0.13651(2)
O8 O 0.7124(3) 0.3452(4) 0.0416(3)
O2 O 0.6548(4) 0.2124(3) 0.9584(3)
N1 N 0.6675(4) 0.3313(4) 0.9485(4)
N2 N 0.6616(3) 0.4127(4) 0.9809(4)
C1 C 0.6522(4) 0.2536(5) 0.9686(5)
C2 C 0.6694(4) 0.2871(5) 0.9350(5)
C3 C 0.6881(5) 0.2745(5) 0.8926(4)
H1 H 0.6905 0.2431 0.8843
C4 C 0.7031(5) 0.3089(5) 0.8627(6)
H2 H 0.7152 0.3018 0.8334
C5 C 0.6997(5) 0.3522(4) 0.8772(5)
H3 H 0.7099 0.3762 0.8576
C6 C 0.6821(5) 0.3634(5) 0.9196(4)
C7 C 0.6797(5) 0.4097(5) 0.9382(5)
C8 C 0.6954(5) 0.4488(5) 0.9154(5)
H4 H 0.7057 0.4468 0.8846
C9 C 0.6960(7) 0.4898(7) 0.9375(6)
H5 H 0.7084 0.5158 0.9224
C10 C 0.6792(7) 0.4944(5) 0.9803(7)
H6 H 0.6795 0.5229 0.9959
Tb3 Tb 0.65438(2) 0.13651(2) 0.97274(2)
O9 O 0.5705(3) 0.3574(3) 0.9883(3)
Tb1_2 Tb 0.86349(2) 0.34562(2) 0.47274(2)
O1_2 O 0.8623(3) 0.2685(3) 0.4937(3)
O2_2 O 0.8452(4) 0.2124(3) 0.5416(3)
O3_2 O 0.8574(3) 0.4883(3) 0.4295(3)
O4_2 O 0.8708(3) 0.4138(3) 0.4345(3)
O5_2 O 0.8569(4) 0.3137(4) 0.3943(3)
O6_2 O 0.9150(4) 0.2955(4) 0.3519(4)
O7_2 O 0.9252(4) 0.3221(4) 0.4204(4)
N1_2 N 0.8325(4) 0.3313(4) 0.5515(4)
N2_2 N 0.8384(3) 0.4127(4) 0.5191(4)
N3_2 N 0.8995(5) 0.3110(4) 0.3881(5)
C1_2 C 0.8478(4) 0.2536(5) 0.5314(5)
C2_2 C 0.8306(4) 0.2871(5) 0.5650(5)
C3_2 C 0.8119(5) 0.2745(5) 0.6074(4)
H1_2 H 0.8095 0.2431 0.6157
C4_2 C 0.7969(5) 0.3089(5) 0.6373(6)
H2_2 H 0.7848 0.3018 0.6666
C5_2 C 0.8003(5) 0.3522(4) 0.6228(5)
H3_2 H 0.7901 0.3762 0.6424
C6_2 C 0.8179(5) 0.3634(5) 0.5804(4)
C7_2 C 0.8203(5) 0.4097(5) 0.5618(5)
C8_2 C 0.8046(5) 0.4488(5) 0.5846(5)
H4_2 H 0.7943 0.4468 0.6154
C9_2 C 0.8040(7) 0.4898(7) 0.5625(6)
H5_2 H 0.7916 0.5158 0.5776
C10_2 C 0.8208(7) 0.4944(5) 0.5197(7)
H6_2 H 0.8205 0.5229 0.5041
C11_2 C 0.8386(4) 0.4547(6) 0.4996(5)
C12_2 C 0.8572(4) 0.4503(5) 0.4508(5)
Tb2_2 Tb 0.84562(2) 0.52726(2) 0.36349(2)
Tb3_2 Tb 0.84562(2) 0.13651(2) 0.52726(2)
O8_2 O 0.7876(3) 0.3452(4) 0.4584(3)
O9_2 O 0.9295(3) 0.3574(3) 0.5117(3)
Tb1_3 Tb 0.63651(2) 0.15438(2) 0.47274(2)
O1_3 O 0.6377(3) 0.2315(3) 0.4937(3)
O2_3 O 0.6548(4) 0.2876(3) 0.5416(3)
O3_3 O 0.6426(3) 0.0117(3) 0.4295(3)
O4_3 O 0.6292(3) 0.0862(3) 0.4345(3)
O5_3 O 0.6431(4) 0.1863(4) 0.3943(3)
O6_3 O 0.5850(4) 0.2045(4) 0.3519(4)
O7_3 O 0.5748(4) 0.1779(4) 0.4204(4)
N1_3 N 0.6675(4) 0.1687(4) 0.5515(4)
N2_3 N 0.6616(3) 0.0873(4) 0.5191(4)
N3_3 N 0.6005(5) 0.1890(4) 0.3881(5)
C1_3 C 0.6522(4) 0.2464(5) 0.5314(5)
C2_3 C 0.6694(4) 0.2129(5) 0.5650(5)
C3_3 C 0.6881(5) 0.2255(5) 0.6074(4)
H1_3 H 0.6905 0.2569 0.6157
C4_3 C 0.7031(5) 0.1911(5) 0.6373(6)
H2_3 H 0.7152 0.1982 0.6666
C5_3 C 0.6997(5) 0.1478(4) 0.6228(5)
H3_3 H 0.7099 0.1238 0.6424
C6_3 C 0.6821(5) 0.1366(5) 0.5804(4)
C7_3 C 0.6797(5) 0.0903(5) 0.5618(5)
C8_3 C 0.6954(5) 0.0512(5) 0.5846(5)
H4_3 H 0.7057 0.0532 0.6154
C9_3 C 0.6960(7) 0.0102(7) 0.5625(6)
C10_3 C 0.6792(7) 0.0056(5) 0.5197(7)
C11_3 C 0.6614(4) 0.0453(6) 0.4996(5)
C12_3 C 0.6428(4) 0.0497(5) 0.4508(5)
Tb3_3 Tb 0.65438(2) 0.36349(2) 0.52726(2)
O8_3 O 0.7124(3) 0.1548(4) 0.4584(3)
O9_3 O 0.5705(3) 0.1426(3) 0.5117(3)
H5_3 H 0.7084 0.9842 0.5776
H6_3 H 0.6795 0.9771 0.5041
Tb2_3 Tb 0.65438(2) 0.97274(2) 0.36349(2)
Tb1_4 Tb 0.02726(2) 0.63651(2) 0.34562(2)
O1_4 O 0.0063(3) 0.6377(3) 0.2685(3)
O3_4 O 0.0705(3) 0.6426(3) 0.4883(3)
O4_4 O 0.0655(3) 0.6292(3) 0.4138(3)
O5_4 O 0.1057(3) 0.6431(4) 0.3137(4)
O6_4 O 0.1481(4) 0.5850(4) 0.2955(4)
O7_4 O 0.0796(4) 0.5748(4) 0.3221(4)
N3_4 N 0.1119(5) 0.6005(5) 0.3110(4)
C11_4 C 0.0004(5) 0.6614(4) 0.4547(6)
C12_4 C 0.0492(5) 0.6428(4) 0.4503(5)
Tb2_4 Tb 0.13651(2) 0.65438(2) 0.52726(2)
O8_4 O 0.0416(3) 0.7124(3) 0.3452(4)
O2_4 O 0.9584(3) 0.6548(4) 0.2124(3)
N1_4 N 0.9485(4) 0.6675(4) 0.3313(4)
N2_4 N 0.9809(4) 0.6616(3) 0.4127(4)
C1_4 C 0.9686(5) 0.6522(4) 0.2536(5)
C2_4 C 0.9350(5) 0.6694(4) 0.2871(5)
C3_4 C 0.8926(4) 0.6881(5) 0.2745(5)
H1_4 H 0.8843 0.6905 0.2431
C4_4 C 0.8627(6) 0.7031(5) 0.3089(5)
H2_4 H 0.8334 0.7152 0.3018
C5_4 C 0.8772(5) 0.6997(5) 0.3522(4)
H3_4 H 0.8576 0.7099 0.3762
C6_4 C 0.9196(4) 0.6821(5) 0.3634(5)
C7_4 C 0.9382(5) 0.6797(5) 0.4097(5)
C8_4 C 0.9154(5) 0.6954(5) 0.4488(5)
H4_4 H 0.8846 0.7057 0.4468
C9_4 C 0.9375(6) 0.6960(7) 0.4898(7)
H5_4 H 0.9224 0.7084 0.5158
C10_4 C 0.9803(7) 0.6792(7) 0.4944(5)
H6_4 H 0.9959 0.6795 0.5229
Tb3_4 Tb 0.97274(2) 0.65438(2) 0.13651(2)
O9_4 O 0.9883(3) 0.5705(3) 0.3574(3)
Tb1_5 Tb 0.47274(2) 0.86349(2) 0.34562(2)
O1_5 O 0.4937(3) 0.8623(3) 0.2685(3)
O2_5 O 0.5416(3) 0.8452(4) 0.2124(3)
O3_5 O 0.4295(3) 0.8574(3) 0.4883(3)
O4_5 O 0.4345(3) 0.8708(3) 0.4138(3)
O5_5 O 0.3943(3) 0.8569(4) 0.3137(4)
O6_5 O 0.3519(4) 0.9150(4) 0.2955(4)
O7_5 O 0.4204(4) 0.9252(4) 0.3221(4)
N1_5 N 0.5515(4) 0.8325(4) 0.3313(4)
N2_5 N 0.5191(4) 0.8384(3) 0.4127(4)
N3_5 N 0.3881(5) 0.8995(5) 0.3110(4)
C1_5 C 0.5314(5) 0.8478(4) 0.2536(5)
C2_5 C 0.5650(5) 0.8306(4) 0.2871(5)
C3_5 C 0.6074(4) 0.8119(5) 0.2745(5)
H1_5 H 0.6157 0.8095 0.2431
C4_5 C 0.6373(6) 0.7969(5) 0.3089(5)
H2_5 H 0.6666 0.7848 0.3018
C5_5 C 0.6228(5) 0.8003(5) 0.3522(4)
H3_5 H 0.6424 0.7901 0.3762
C6_5 C 0.5804(4) 0.8179(5) 0.3634(5)
C7_5 C 0.5618(5) 0.8203(5) 0.4097(5)
C8_5 C 0.5846(5) 0.8046(5) 0.4488(5)
H4_5 H 0.6154 0.7943 0.4468
C9_5 C 0.5625(6) 0.8040(7) 0.4898(7)
H5_5 H 0.5776 0.7916 0.5158
C10_5 C 0.5197(7) 0.8208(7) 0.4944(5)
H6_5 H 0.5041 0.8205 0.5229
C11_5 C 0.4996(5) 0.8386(4) 0.4547(6)
C12_5 C 0.4508(5) 0.8572(4) 0.4503(5)
Tb2_5 Tb 0.36349(2) 0.84562(2) 0.52726(2)
Tb3_5 Tb 0.52726(2) 0.84562(2) 0.13651(2)
O8_5 O 0.4584(3) 0.7876(3) 0.3452(4)
O9_5 O 0.5117(3) 0.9295(3) 0.3574(3)
Tb1_6 Tb 0.47274(2) 0.63651(2) 0.15438(2)
O1_6 O 0.4937(3) 0.6377(3) 0.2315(3)
O2_6 O 0.5416(3) 0.6548(4) 0.2876(3)
O3_6 O 0.4295(3) 0.6426(3) 0.0117(3)
O4_6 O 0.4345(3) 0.6292(3) 0.0862(3)
O5_6 O 0.3943(3) 0.6431(4) 0.1863(4)
O6_6 O 0.3519(4) 0.5850(4) 0.2045(4)
O7_6 O 0.4204(4) 0.5748(4) 0.1779(4)
N1_6 N 0.5515(4) 0.6675(4) 0.1687(4)
N2_6 N 0.5191(4) 0.6616(3) 0.0873(4)
N3_6 N 0.3881(5) 0.6005(5) 0.1890(4)
C1_6 C 0.5314(5) 0.6522(4) 0.2464(5)
C2_6 C 0.5650(5) 0.6694(4) 0.2129(5)
C3_6 C 0.6074(4) 0.6881(5) 0.2255(5)
H1_6 H 0.6157 0.6905 0.2569
C4_6 C 0.6373(6) 0.7031(5) 0.1911(5)
H2_6 H 0.6666 0.7152 0.1982
C5_6 C 0.6228(5) 0.6997(5) 0.1478(4)
H3_6 H 0.6424 0.7099 0.1238
C6_6 C 0.5804(4) 0.6821(5) 0.1366(5)
C7_6 C 0.5618(5) 0.6797(5) 0.0903(5)
C8_6 C 0.5846(5) 0.6954(5) 0.0512(5)
H4_6 H 0.6154 0.7057 0.0532
C9_6 C 0.5625(6) 0.6960(7) 0.0102(7)
C10_6 C 0.5197(7) 0.6792(7) 0.0056(5)
C11_6 C 0.4996(5) 0.6614(4) 0.0453(6)
C12_6 C 0.4508(5) 0.6428(4) 0.0497(5)
Tb3_6 Tb 0.52726(2) 0.65438(2) 0.36349(2)
O8_6 O 0.4584(3) 0.7124(3) 0.1548(4)
O9_6 O 0.5117(3) 0.5705(3) 0.1426(3)
H5_6 H 0.5776 0.7084 0.9842
H6_6 H 0.5041 0.6795 0.9771
Tb2_6 Tb 0.36349(2) 0.65438(2) 0.97274(2)
Tb1_7 Tb 0.34562(2) 0.02726(2) 0.63651(2)
O1_7 O 0.2685(3) 0.0063(3) 0.6377(3)
O3_7 O 0.4883(3) 0.0705(3) 0.6426(3)
O4_7 O 0.4138(3) 0.0655(3) 0.6292(3)
O5_7 O 0.3137(4) 0.1057(3) 0.6431(4)
O6_7 O 0.2955(4) 0.1481(4) 0.5850(4)
O7_7 O 0.3221(4) 0.0796(4) 0.5748(4)
N3_7 N 0.3110(4) 0.1119(5) 0.6005(5)
C11_7 C 0.4547(6) 0.0004(5) 0.6614(4)
C12_7 C 0.4503(5) 0.0492(5) 0.6428(4)
Tb2_7 Tb 0.52726(2) 0.13651(2) 0.65438(2)
O8_7 O 0.3452(4) 0.0416(3) 0.7124(3)
O2_7 O 0.2124(3) 0.9584(3) 0.6548(4)
N1_7 N 0.3313(4) 0.9485(4) 0.6675(4)
N2_7 N 0.4127(4) 0.9809(4) 0.6616(3)
C1_7 C 0.2536(5) 0.9686(5) 0.6522(4)
C2_7 C 0.2871(5) 0.9350(5) 0.6694(4)
C3_7 C 0.2745(5) 0.8926(4) 0.6881(5)
H1_7 H 0.2431 0.8843 0.6905
C4_7 C 0.3089(5) 0.8627(6) 0.7031(5)
H2_7 H 0.3018 0.8334 0.7152
C5_7 C 0.3522(4) 0.8772(5) 0.6997(5)
H3_7 H 0.3762 0.8576 0.7099
C6_7 C 0.3634(5) 0.9196(4) 0.6821(5)
C7_7 C 0.4097(5) 0.9382(5) 0.6797(5)
C8_7 C 0.4488(5) 0.9154(5) 0.6954(5)
H4_7 H 0.4468 0.8846 0.7057
C9_7 C 0.4898(7) 0.9375(6) 0.6960(7)
H5_7 H 0.5158 0.9224 0.7084
C10_7 C 0.4944(5) 0.9803(7) 0.6792(7)
H6_7 H 0.5229 0.9959 0.6795
Tb3_7 Tb 0.13651(2) 0.97274(2) 0.65438(2)
O9_7 O 0.3574(3) 0.9883(3) 0.5705(3)
Tb1_8 Tb 0.34562(2) 0.47274(2) 0.86349(2)
O1_8 O 0.2685(3) 0.4937(3) 0.8623(3)
O2_8 O 0.2124(3) 0.5416(3) 0.8452(4)
O3_8 O 0.4883(3) 0.4295(3) 0.8574(3)
O4_8 O 0.4138(3) 0.4345(3) 0.8708(3)
O5_8 O 0.3137(4) 0.3943(3) 0.8569(4)
O6_8 O 0.2955(4) 0.3519(4) 0.9150(4)
O7_8 O 0.3221(4) 0.4204(4) 0.9252(4)
N1_8 N 0.3313(4) 0.5515(4) 0.8325(4)
N2_8 N 0.4127(4) 0.5191(4) 0.8384(3)
N3_8 N 0.3110(4) 0.3881(5) 0.8995(5)
C1_8 C 0.2536(5) 0.5314(5) 0.8478(4)
C2_8 C 0.2871(5) 0.5650(5) 0.8306(4)
C3_8 C 0.2745(5) 0.6074(4) 0.8119(5)
H1_8 H 0.2431 0.6157 0.8095
C4_8 C 0.3089(5) 0.6373(6) 0.7969(5)
H2_8 H 0.3018 0.6666 0.7848
C5_8 C 0.3522(4) 0.6228(5) 0.8003(5)
H3_8 H 0.3762 0.6424 0.7901
C6_8 C 0.3634(5) 0.5804(4) 0.8179(5)
C7_8 C 0.4097(5) 0.5618(5) 0.8203(5)
C8_8 C 0.4488(5) 0.5846(5) 0.8046(5)
H4_8 H 0.4468 0.6154 0.7943
C9_8 C 0.4898(7) 0.5625(6) 0.8040(7)
H5_8 H 0.5158 0.5776 0.7916
C10_8 C 0.4944(5) 0.5197(7) 0.8208(7)
H6_8 H 0.5229 0.5041 0.8205
C11_8 C 0.4547(6) 0.4996(5) 0.8386(4)
C12_8 C 0.4503(5) 0.4508(5) 0.8572(4)
Tb2_8 Tb 0.52726(2) 0.36349(2) 0.84562(2)
Tb3_8 Tb 0.13651(2) 0.52726(2) 0.84562(2)
O8_8 O 0.3452(4) 0.4584(3) 0.7876(3)
O9_8 O 0.3574(3) 0.5117(3) 0.9295(3)
Tb1_9 Tb 0.15438(2) 0.47274(2) 0.63651(2)
O1_9 O 0.2315(3) 0.4937(3) 0.6377(3)
O2_9 O 0.2876(3) 0.5416(3) 0.6548(4)
O3_9 O 0.0117(3) 0.4295(3) 0.6426(3)
O4_9 O 0.0862(3) 0.4345(3) 0.6292(3)
O5_9 O 0.1863(4) 0.3943(3) 0.6431(4)
O6_9 O 0.2045(4) 0.3519(4) 0.5850(4)
O7_9 O 0.1779(4) 0.4204(4) 0.5748(4)
N1_9 N 0.1687(4) 0.5515(4) 0.6675(4)
N2_9 N 0.0873(4) 0.5191(4) 0.6616(3)
N3_9 N 0.1890(4) 0.3881(5) 0.6005(5)
C1_9 C 0.2464(5) 0.5314(5) 0.6522(4)
C2_9 C 0.2129(5) 0.5650(5) 0.6694(4)
C3_9 C 0.2255(5) 0.6074(4) 0.6881(5)
H1_9 H 0.2569 0.6157 0.6905
C4_9 C 0.1911(5) 0.6373(6) 0.7031(5)
H2_9 H 0.1982 0.6666 0.7152
C5_9 C 0.1478(4) 0.6228(5) 0.6997(5)
H3_9 H 0.1238 0.6424 0.7099
C6_9 C 0.1366(5) 0.5804(4) 0.6821(5)
C7_9 C 0.0903(5) 0.5618(5) 0.6797(5)
C8_9 C 0.0512(5) 0.5846(5) 0.6954(5)
H4_9 H 0.0532 0.6154 0.7057
C9_9 C 0.0102(7) 0.5625(6) 0.6960(7)
C10_9 C 0.0056(5) 0.5197(7) 0.6792(7)
C11_9 C 0.0453(6) 0.4996(5) 0.6614(4)
C12_9 C 0.0497(5) 0.4508(5) 0.6428(4)
Tb3_9 Tb 0.36349(2) 0.52726(2) 0.65438(2)
O8_9 O 0.1548(4) 0.4584(3) 0.7124(3)
O9_9 O 0.1426(3) 0.5117(3) 0.5705(3)
H5_9 H 0.9842 0.5776 0.7084
H6_9 H 0.9771 0.5041 0.6795
Tb2_9 Tb 0.97274(2) 0.36349(2) 0.65438(2)
Tb1_10 Tb 0.34562(2) 0.63651(2) 0.47274(2)
O1_10 O 0.2685(3) 0.6377(3) 0.4937(3)
O2_10 O 0.2124(3) 0.6548(4) 0.5416(3)
O3_10 O 0.4883(3) 0.6426(3) 0.4295(3)
O4_10 O 0.4138(3) 0.6292(3) 0.4345(3)
O5_10 O 0.3137(4) 0.6431(4) 0.3943(3)
O6_10 O 0.2955(4) 0.5850(4) 0.3519(4)
O7_10 O 0.3221(4) 0.5748(4) 0.4204(4)
N1_10 N 0.3313(4) 0.6675(4) 0.5515(4)
N2_10 N 0.4127(4) 0.6616(3) 0.5191(4)
N3_10 N 0.3110(4) 0.6005(5) 0.3881(5)
C1_10 C 0.2536(5) 0.6522(4) 0.5314(5)
C2_10 C 0.2871(5) 0.6694(4) 0.5650(5)
C3_10 C 0.2745(5) 0.6881(5) 0.6074(4)
H1_10 H 0.2431 0.6905 0.6157
C4_10 C 0.3089(5) 0.7031(5) 0.6373(6)
H2_10 H 0.3018 0.7152 0.6666
C5_10 C 0.3522(4) 0.6997(5) 0.6228(5)
H3_10 H 0.3762 0.7099 0.6424
C6_10 C 0.3634(5) 0.6821(5) 0.5804(4)
C7_10 C 0.4097(5) 0.6797(5) 0.5618(5)
C8_10 C 0.4488(5) 0.6954(5) 0.5846(5)
H4_10 H 0.4468 0.7057 0.6154
C9_10 C 0.4898(7) 0.6960(7) 0.5625(6)
H5_10 H 0.5158 0.7084 0.5776
C10_10 C 0.4944(5) 0.6792(7) 0.5197(7)
H6_10 H 0.5229 0.6795 0.5041
C11_10 C 0.4547(6) 0.6614(4) 0.4996(5)
C12_10 C 0.4503(5) 0.6428(4) 0.4508(5)
O8_10 O 0.3452(4) 0.7124(3) 0.4584(3)
O9_10 O 0.3574(3) 0.5705(3) 0.5117(3)
Tb1_11 Tb 0.15438(2) 0.86349(2) 0.47274(2)
O1_11 O 0.2315(3) 0.8623(3) 0.4937(3)
O2_11 O 0.2876(3) 0.8452(4) 0.5416(3)
O3_11 O 0.0117(3) 0.8574(3) 0.4295(3)
O4_11 O 0.0862(3) 0.8708(3) 0.4345(3)
O5_11 O 0.1863(4) 0.8569(4) 0.3943(3)
O6_11 O 0.2045(4) 0.9150(4) 0.3519(4)
O7_11 O 0.1779(4) 0.9252(4) 0.4204(4)
N1_11 N 0.1687(4) 0.8325(4) 0.5515(4)
N2_11 N 0.0873(4) 0.8384(3) 0.5191(4)
N3_11 N 0.1890(4) 0.8995(5) 0.3881(5)
C1_11 C 0.2464(5) 0.8478(4) 0.5314(5)
C2_11 C 0.2129(5) 0.8306(4) 0.5650(5)
C3_11 C 0.2255(5) 0.8119(5) 0.6074(4)
H1_11 H 0.2569 0.8095 0.6157
C4_11 C 0.1911(5) 0.7969(5) 0.6373(6)
H2_11 H 0.1982 0.7848 0.6666
C5_11 C 0.1478(4) 0.8003(5) 0.6228(5)
H3_11 H 0.1238 0.7901 0.6424
C6_11 C 0.1366(5) 0.8179(5) 0.5804(4)
C7_11 C 0.0903(5) 0.8203(5) 0.5618(5)
C8_11 C 0.0512(5) 0.8046(5) 0.5846(5)
H4_11 H 0.0532 0.7943 0.6154
C9_11 C 0.0102(7) 0.8040(7) 0.5625(6)
C10_11 C 0.0056(5) 0.8208(7) 0.5197(7)
C11_11 C 0.0453(6) 0.8386(4) 0.4996(5)
C12_11 C 0.0497(5) 0.8572(4) 0.4508(5)
O8_11 O 0.1548(4) 0.7876(3) 0.4584(3)
O9_11 O 0.1426(3) 0.9295(3) 0.5117(3)
Tb1_12 Tb 0.34562(2) 0.86349(2) 0.02726(2)
O1_12 O 0.2685(3) 0.8623(3) 0.0063(3)
O3_12 O 0.4883(3) 0.8574(3) 0.0705(3)
O4_12 O 0.4138(3) 0.8708(3) 0.0655(3)
O5_12 O 0.3137(4) 0.8569(4) 0.1057(3)
O6_12 O 0.2955(4) 0.9150(4) 0.1481(4)
O7_12 O 0.3221(4) 0.9252(4) 0.0796(4)
N3_12 N 0.3110(4) 0.8995(5) 0.1119(5)
C11_12 C 0.4547(6) 0.8386(4) 0.0004(5)
C12_12 C 0.4503(5) 0.8572(4) 0.0492(5)
O8_12 O 0.3452(4) 0.7876(3) 0.0416(3)
O2_12 O 0.2876(3) 0.6548(4) 0.9584(3)
N1_12 N 0.1687(4) 0.6675(4) 0.9485(4)
N2_12 N 0.0873(4) 0.6616(3) 0.9809(4)
C1_12 C 0.2464(5) 0.6522(4) 0.9686(5)
C2_12 C 0.2129(5) 0.6694(4) 0.9350(5)
C3_12 C 0.2255(5) 0.6881(5) 0.8926(4)
H1_12 H 0.2569 0.6905 0.8843
C4_12 C 0.1911(5) 0.7031(5) 0.8627(6)
H2_12 H 0.1982 0.7152 0.8334
C5_12 C 0.1478(4) 0.6997(5) 0.8772(5)
H3_12 H 0.1238 0.7099 0.8576
C6_12 C 0.1366(5) 0.6821(5) 0.9196(4)
C7_12 C 0.0903(5) 0.6797(5) 0.9382(5)
C8_12 C 0.0512(5) 0.6954(5) 0.9154(5)
H4_12 H 0.0532 0.7057 0.8846
C9_12 C 0.0102(7) 0.6960(7) 0.9375(6)
C10_12 C 0.0056(5) 0.6792(7) 0.9803(7)
O9_12 O 0.1426(3) 0.5705(3) 0.9883(3)
O2_13 O 0.6548(4) 0.9584(3) 0.2876(3)
N1_13 N 0.6675(4) 0.9485(4) 0.1687(4)
N2_13 N 0.6616(3) 0.9809(4) 0.0873(4)
C1_13 C 0.6522(4) 0.9686(5) 0.2464(5)
C2_13 C 0.6694(4) 0.9350(5) 0.2129(5)
C3_13 C 0.6881(5) 0.8926(4) 0.2255(5)
H1_13 H 0.6905 0.8843 0.2569
C4_13 C 0.7031(5) 0.8627(6) 0.1911(5)
H2_13 H 0.7152 0.8334 0.1982
C5_13 C 0.6997(5) 0.8772(5) 0.1478(4)
H3_13 H 0.7099 0.8576 0.1238
C6_13 C 0.6821(5) 0.9196(4) 0.1366(5)
C7_13 C 0.6797(5) 0.9382(5) 0.0903(5)
C8_13 C 0.6954(5) 0.9154(5) 0.0512(5)
H4_13 H 0.7057 0.8846 0.0532
C9_13 C 0.6960(7) 0.9375(6) 0.0102(7)
C10_13 C 0.6792(7) 0.9803(7) 0.0056(5)
O9_13 O 0.5705(3) 0.9883(3) 0.1426(3)
Tb1_13 Tb 0.86349(2) 0.02726(2) 0.34562(2)
O1_13 O 0.8623(3) 0.0063(3) 0.2685(3)
O3_13 O 0.8574(3) 0.0705(3) 0.4883(3)
O4_13 O 0.8708(3) 0.0655(3) 0.4138(3)
O5_13 O 0.8569(4) 0.1057(3) 0.3137(4)
O6_13 O 0.9150(4) 0.1481(4) 0.2955(4)
O7_13 O 0.9252(4) 0.0796(4) 0.3221(4)
N3_13 N 0.8995(5) 0.1119(5) 0.3110(4)
C11_13 C 0.8386(4) 0.0004(5) 0.4547(6)
C12_13 C 0.8572(4) 0.0492(5) 0.4503(5)
O8_13 O 0.7876(3) 0.0416(3) 0.3452(4)
Tb1_14 Tb 0.86349(2) 0.47274(2) 0.15438(2)
O1_14 O 0.8623(3) 0.4937(3) 0.2315(3)
O2_14 O 0.8452(4) 0.5416(3) 0.2876(3)
O3_14 O 0.8574(3) 0.4295(3) 0.0117(3)
O4_14 O 0.8708(3) 0.4345(3) 0.0862(3)
O5_14 O 0.8569(4) 0.3943(3) 0.1863(4)
O6_14 O 0.9150(4) 0.3519(4) 0.2045(4)
O7_14 O 0.9252(4) 0.4204(4) 0.1779(4)
N1_14 N 0.8325(4) 0.5515(4) 0.1687(4)
N2_14 N 0.8384(3) 0.5191(4) 0.0873(4)
N3_14 N 0.8995(5) 0.3881(5) 0.1890(4)
C1_14 C 0.8478(4) 0.5314(5) 0.2464(5)
C2_14 C 0.8306(4) 0.5650(5) 0.2129(5)
C3_14 C 0.8119(5) 0.6074(4) 0.2255(5)
H1_14 H 0.8095 0.6157 0.2569
C4_14 C 0.7969(5) 0.6373(6) 0.1911(5)
H2_14 H 0.7848 0.6666 0.1982
C5_14 C 0.8003(5) 0.6228(5) 0.1478(4)
H3_14 H 0.7901 0.6424 0.1238
C6_14 C 0.8179(5) 0.5804(4) 0.1366(5)
C7_14 C 0.8203(5) 0.5618(5) 0.0903(5)
C8_14 C 0.8046(5) 0.5846(5) 0.0512(5)
H4_14 H 0.7943 0.6154 0.0532
C9_14 C 0.8040(7) 0.5625(6) 0.0102(7)
C10_14 C 0.8208(7) 0.5197(7) 0.0056(5)
C11_14 C 0.8386(4) 0.4996(5) 0.0453(6)
C12_14 C 0.8572(4) 0.4508(5) 0.0497(5)
O8_14 O 0.7876(3) 0.4584(3) 0.1548(4)
O9_14 O 0.9295(3) 0.5117(3) 0.1426(3)
Tb1_15 Tb 0.63651(2) 0.47274(2) 0.34562(2)
O1_15 O 0.6377(3) 0.4937(3) 0.2685(3)
O2_15 O 0.6548(4) 0.5416(3) 0.2124(3)
O3_15 O 0.6426(3) 0.4295(3) 0.4883(3)
O4_15 O 0.6292(3) 0.4345(3) 0.4138(3)
O5_15 O 0.6431(4) 0.3943(3) 0.3137(4)
O6_15 O 0.5850(4) 0.3519(4) 0.2955(4)
O7_15 O 0.5748(4) 0.4204(4) 0.3221(4)
N1_15 N 0.6675(4) 0.5515(4) 0.3313(4)
N2_15 N 0.6616(3) 0.5191(4) 0.4127(4)
N3_15 N 0.6005(5) 0.3881(5) 0.3110(4)
C1_15 C 0.6522(4) 0.5314(5) 0.2536(5)
C2_15 C 0.6694(4) 0.5650(5) 0.2871(5)
C3_15 C 0.6881(5) 0.6074(4) 0.2745(5)
H1_15 H 0.6905 0.6157 0.2431
C4_15 C 0.7031(5) 0.6373(6) 0.3089(5)
H2_15 H 0.7152 0.6666 0.3018
C5_15 C 0.6997(5) 0.6228(5) 0.3522(4)
H3_15 H 0.7099 0.6424 0.3762
C6_15 C 0.6821(5) 0.5804(4) 0.3634(5)
C7_15 C 0.6797(5) 0.5618(5) 0.4097(5)
C8_15 C 0.6954(5) 0.5846(5) 0.4488(5)
H4_15 H 0.7057 0.6154 0.4468
C9_15 C 0.6960(7) 0.5625(6) 0.4898(7)
H5_11 H 0.7084 0.5776 0.5158
C10_15 C 0.6792(7) 0.5197(7) 0.4944(5)
H6_11 H 0.6795 0.5041 0.5229
C11_15 C 0.6614(4) 0.4996(5) 0.4547(6)
C12_15 C 0.6428(4) 0.4508(5) 0.4503(5)
O8_15 O 0.7124(3) 0.4584(3) 0.3452(4)
O9_15 O 0.5705(3) 0.5117(3) 0.3574(3)
Tb1_16 Tb 0.02726(2) 0.34562(2) 0.86349(2)
O1_16 O 0.0063(3) 0.2685(3) 0.8623(3)
O3_16 O 0.0705(3) 0.4883(3) 0.8574(3)
O4_16 O 0.0655(3) 0.4138(3) 0.8708(3)
O5_16 O 0.1057(3) 0.3137(4) 0.8569(4)
O6_16 O 0.1481(4) 0.2955(4) 0.9150(4)
O7_16 O 0.0796(4) 0.3221(4) 0.9252(4)
N3_16 N 0.1119(5) 0.3110(4) 0.8995(5)
C11_16 C 0.0004(5) 0.4547(6) 0.8386(4)
C12_16 C 0.0492(5) 0.4503(5) 0.8572(4)
O8_16 O 0.0416(3) 0.3452(4) 0.7876(3)
O2_16 O 0.9584(3) 0.2876(3) 0.6548(4)
N1_16 N 0.9485(4) 0.1687(4) 0.6675(4)
N2_16 N 0.9809(4) 0.0873(4) 0.6616(3)
C1_16 C 0.9686(5) 0.2464(5) 0.6522(4)
C2_16 C 0.9350(5) 0.2129(5) 0.6694(4)
C3_16 C 0.8926(4) 0.2255(5) 0.6881(5)
H1_16 H 0.8843 0.2569 0.6905
C4_16 C 0.8627(6) 0.1911(5) 0.7031(5)
H2_16 H 0.8334 0.1982 0.7152
C5_16 C 0.8772(5) 0.1478(4) 0.6997(5)
H3_16 H 0.8576 0.1238 0.7099
C6_16 C 0.9196(4) 0.1366(5) 0.6821(5)
C7_16 C 0.9382(5) 0.0903(5) 0.6797(5)
C8_16 C 0.9154(5) 0.0512(5) 0.6954(5)
H4_16 H 0.8846 0.0532 0.7057
C9_16 C 0.9375(6) 0.0102(7) 0.6960(7)
C10_16 C 0.9803(7) 0.0056(5) 0.6792(7)
O9_16 O 0.9883(3) 0.1426(3) 0.5705(3)
Tb1_17 Tb 0.47274(2) 0.34562(2) 0.63651(2)
O1_17 O 0.4937(3) 0.2685(3) 0.6377(3)
O2_17 O 0.5416(3) 0.2124(3) 0.6548(4)
O3_17 O 0.4295(3) 0.4883(3) 0.6426(3)
O4_17 O 0.4345(3) 0.4138(3) 0.6292(3)
O5_17 O 0.3943(3) 0.3137(4) 0.6431(4)
O6_17 O 0.3519(4) 0.2955(4) 0.5850(4)
O7_17 O 0.4204(4) 0.3221(4) 0.5748(4)
N1_17 N 0.5515(4) 0.3313(4) 0.6675(4)
N2_17 N 0.5191(4) 0.4127(4) 0.6616(3)
N3_17 N 0.3881(5) 0.3110(4) 0.6005(5)
C1_17 C 0.5314(5) 0.2536(5) 0.6522(4)
C2_17 C 0.5650(5) 0.2871(5) 0.6694(4)
C3_17 C 0.6074(4) 0.2745(5) 0.6881(5)
H1_17 H 0.6157 0.2431 0.6905
C4_17 C 0.6373(6) 0.3089(5) 0.7031(5)
H2_17 H 0.6666 0.3018 0.7152
C5_17 C 0.6228(5) 0.3522(4) 0.6997(5)
H3_17 H 0.6424 0.3762 0.7099
C6_17 C 0.5804(4) 0.3634(5) 0.6821(5)
C7_17 C 0.5618(5) 0.4097(5) 0.6797(5)
C8_17 C 0.5846(5) 0.4488(5) 0.6954(5)
H4_17 H 0.6154 0.4468 0.7057
C9_17 C 0.5625(6) 0.4898(7) 0.6960(7)
H5_12 H 0.5776 0.5158 0.7084
C10_17 C 0.5197(7) 0.4944(5) 0.6792(7)
H6_12 H 0.5041 0.5229 0.6795
C11_17 C 0.4996(5) 0.4547(6) 0.6614(4)
C12_17 C 0.4508(5) 0.4503(5) 0.6428(4)
O8_17 O 0.4584(3) 0.3452(4) 0.7124(3)
O9_17 O 0.5117(3) 0.3574(3) 0.5705(3)
Tb1_18 Tb 0.47274(2) 0.15438(2) 0.86349(2)
O1_18 O 0.4937(3) 0.2315(3) 0.8623(3)
O2_18 O 0.5416(3) 0.2876(3) 0.8452(4)
O3_18 O 0.4295(3) 0.0117(3) 0.8574(3)
O4_18 O 0.4345(3) 0.0862(3) 0.8708(3)
O5_18 O 0.3943(3) 0.1863(4) 0.8569(4)
O6_18 O 0.3519(4) 0.2045(4) 0.9150(4)
O7_18 O 0.4204(4) 0.1779(4) 0.9252(4)
N1_18 N 0.5515(4) 0.1687(4) 0.8325(4)
N2_18 N 0.5191(4) 0.0873(4) 0.8384(3)
N3_18 N 0.3881(5) 0.1890(4) 0.8995(5)
C1_18 C 0.5314(5) 0.2464(5) 0.8478(4)
C2_18 C 0.5650(5) 0.2129(5) 0.8306(4)
C3_18 C 0.6074(4) 0.2255(5) 0.8119(5)
H1_18 H 0.6157 0.2569 0.8095
C4_18 C 0.6373(6) 0.1911(5) 0.7969(5)
H2_18 H 0.6666 0.1982 0.7848
C5_18 C 0.6228(5) 0.1478(4) 0.8003(5)
H3_18 H 0.6424 0.1238 0.7901
C6_18 C 0.5804(4) 0.1366(5) 0.8179(5)
C7_18 C 0.5618(5) 0.0903(5) 0.8203(5)
C8_18 C 0.5846(5) 0.0512(5) 0.8046(5)
H4_18 H 0.6154 0.0532 0.7943
C9_18 C 0.5625(6) 0.0102(7) 0.8040(7)
C10_18 C 0.5197(7) 0.0056(5) 0.8208(7)
C11_18 C 0.4996(5) 0.0453(6) 0.8386(4)
C12_18 C 0.4508(5) 0.0497(5) 0.8572(4)
O8_18 O 0.4584(3) 0.1548(4) 0.7876(3)
O9_18 O 0.5117(3) 0.1426(3) 0.9295(3)
N1_19 N 0.3325(4) 0.6687(4) 0.0515(4)
N2_19 N 0.3384(3) 0.5873(4) 0.0191(4)
C1_19 C 0.3478(4) 0.7464(5) 0.0314(5)
C2_19 C 0.3306(4) 0.7129(5) 0.0650(5)
C3_19 C 0.3119(5) 0.7255(5) 0.1074(4)
H1_19 H 0.3095 0.7569 0.1157
C4_19 C 0.2969(5) 0.6911(5) 0.1373(6)
H2_19 H 0.2848 0.6982 0.1666
C5_19 C 0.3003(5) 0.6478(4) 0.1228(5)
H3_19 H 0.2901 0.6238 0.1424
C6_19 C 0.3179(5) 0.6366(5) 0.0804(4)
C7_19 C 0.3203(5) 0.5903(5) 0.0618(5)
C8_19 C 0.3046(5) 0.5512(5) 0.0846(5)
H4_19 H 0.2943 0.5532 0.1154
C9_19 C 0.3040(7) 0.5102(7) 0.0625(6)
H5_13 H 0.2916 0.4842 0.0776
C10_19 C 0.3208(7) 0.5056(5) 0.0197(7)
H6_13 H 0.3205 0.4771 0.0041
O1_19 O 0.3623(3) 0.7315(3) 0.9937(3)
O4_19 O 0.3708(3) 0.5862(3) 0.9345(3)
O5_19 O 0.3569(4) 0.6863(4) 0.8943(3)
O6_19 O 0.4150(4) 0.7045(4) 0.8519(4)
O7_19 O 0.4252(4) 0.6779(4) 0.9204(4)
N3_19 N 0.3995(5) 0.6890(4) 0.8881(5)
C11_19 C 0.3386(4) 0.5453(6) 0.9996(5)
C12_19 C 0.3572(4) 0.5497(5) 0.9508(5)
O1_20 O 0.1377(3) 0.7315(3) 0.5063(3)
O4_20 O 0.1292(3) 0.5862(3) 0.5655(3)
O5_20 O 0.1431(4) 0.6863(4) 0.6057(3)
O6_20 O 0.0850(4) 0.7045(4) 0.6481(4)
O7_20 O 0.0748(4) 0.6779(4) 0.5796(4)
N1_20 N 0.1675(4) 0.6687(4) 0.4485(4)
N2_20 N 0.1616(3) 0.5873(4) 0.4809(4)
N3_20 N 0.1005(5) 0.6890(4) 0.6119(5)
C1_20 C 0.1522(4) 0.7464(5) 0.4686(5)
C2_20 C 0.1694(4) 0.7129(5) 0.4350(5)
C3_20 C 0.1881(5) 0.7255(5) 0.3926(4)
H1_20 H 0.1905 0.7569 0.3843
C4_20 C 0.2031(5) 0.6911(5) 0.3627(6)
H2_20 H 0.2152 0.6982 0.3334
C5_20 C 0.1997(5) 0.6478(4) 0.3772(5)
H3_20 H 0.2099 0.6238 0.3576
C6_20 C 0.1821(5) 0.6366(5) 0.4196(4)
C7_20 C 0.1797(5) 0.5903(5) 0.4382(5)
C8_20 C 0.1954(5) 0.5512(5) 0.4154(5)
H4_20 H 0.2057 0.5532 0.3846
C9_20 C 0.1960(7) 0.5102(7) 0.4375(6)
H5_14 H 0.2084 0.4842 0.4224
C10_20 C 0.1792(7) 0.5056(5) 0.4803(7)
H6_14 H 0.1795 0.4771 0.4959
C11_20 C 0.1614(4) 0.5453(6) 0.5004(5)
C12_20 C 0.1428(4) 0.5497(5) 0.5492(5)
H5_15 H 0.2916 0.0158 0.4224
H6_15 H 0.3205 0.0229 0.4959
O1_21 O 0.3623(3) 0.7685(3) 0.5063(3)
O4_21 O 0.3708(3) 0.9138(3) 0.5655(3)
O5_21 O 0.3569(4) 0.8137(4) 0.6057(3)
O6_21 O 0.4150(4) 0.7955(4) 0.6481(4)
O7_21 O 0.4252(4) 0.8221(4) 0.5796(4)
N1_21 N 0.3325(4) 0.8313(4) 0.4485(4)
N2_21 N 0.3384(3) 0.9127(4) 0.4809(4)
N3_21 N 0.3995(5) 0.8110(4) 0.6119(5)
C1_21 C 0.3478(4) 0.7536(5) 0.4686(5)
C2_21 C 0.3306(4) 0.7871(5) 0.4350(5)
C3_21 C 0.3119(5) 0.7745(5) 0.3926(4)
H1_21 H 0.3095 0.7431 0.3843
C4_21 C 0.2969(5) 0.8089(5) 0.3627(6)
H2_21 H 0.2848 0.8018 0.3334
C5_21 C 0.3003(5) 0.8522(4) 0.3772(5)
H3_21 H 0.2901 0.8762 0.3576
C6_21 C 0.3179(5) 0.8634(5) 0.4196(4)
C7_21 C 0.3203(5) 0.9097(5) 0.4382(5)
C8_21 C 0.3046(5) 0.9488(5) 0.4154(5)
H4_21 H 0.2943 0.9468 0.3846
C9_21 C 0.3040(7) 0.9898(7) 0.4375(6)
C10_21 C 0.3208(7) 0.9944(5) 0.4803(7)
C11_21 C 0.3386(4) 0.9547(6) 0.5004(5)
C12_21 C 0.3572(4) 0.9503(5) 0.5492(5)
N1_22 N 0.0515(4) 0.3325(4) 0.6687(4)
N2_22 N 0.0191(4) 0.3384(3) 0.5873(4)
C1_22 C 0.0314(5) 0.3478(4) 0.7464(5)
C2_22 C 0.0650(5) 0.3306(4) 0.7129(5)
C3_22 C 0.1074(4) 0.3119(5) 0.7255(5)
H1_22 H 0.1157 0.3095 0.7569
C4_22 C 0.1373(6) 0.2969(5) 0.6911(5)
H2_22 H 0.1666 0.2848 0.6982
C5_22 C 0.1228(5) 0.3003(5) 0.6478(4)
H3_22 H 0.1424 0.2901 0.6238
C6_22 C 0.0804(4) 0.3179(5) 0.6366(5)
C7_22 C 0.0618(5) 0.3203(5) 0.5903(5)
C8_22 C 0.0846(5) 0.3046(5) 0.5512(5)
H4_22 H 0.1154 0.2943 0.5532
C9_22 C 0.0625(6) 0.3040(7) 0.5102(7)
H5_16 H 0.0776 0.2916 0.4842
C10_22 C 0.0197(7) 0.3208(7) 0.5056(5)
H6_16 H 0.0041 0.3205 0.4771
O1_22 O 0.9937(3) 0.3623(3) 0.7315(3)
O4_22 O 0.9345(3) 0.3708(3) 0.5862(3)
O5_22 O 0.8943(3) 0.3569(4) 0.6863(4)
O6_22 O 0.8519(4) 0.4150(4) 0.7045(4)
O7_22 O 0.9204(4) 0.4252(4) 0.6779(4)
N3_22 N 0.8881(5) 0.3995(5) 0.6890(4)
C11_22 C 0.9996(5) 0.3386(4) 0.5453(6)
C12_22 C 0.9508(5) 0.3572(4) 0.5497(5)
O1_23 O 0.5063(3) 0.1377(3) 0.7315(3)
O4_23 O 0.5655(3) 0.1292(3) 0.5862(3)
O5_23 O 0.6057(3) 0.1431(4) 0.6863(4)
O6_23 O 0.6481(4) 0.0850(4) 0.7045(4)
O7_23 O 0.5796(4) 0.0748(4) 0.6779(4)
N1_23 N 0.4485(4) 0.1675(4) 0.6687(4)
N2_23 N 0.4809(4) 0.1616(3) 0.5873(4)
N3_23 N 0.6119(5) 0.1005(5) 0.6890(4)
C1_23 C 0.4686(5) 0.1522(4) 0.7464(5)
C2_23 C 0.4350(5) 0.1694(4) 0.7129(5)
C3_23 C 0.3926(4) 0.1881(5) 0.7255(5)
H1_23 H 0.3843 0.1905 0.7569
C4_23 C 0.3627(6) 0.2031(5) 0.6911(5)
H2_23 H 0.3334 0.2152 0.6982
C5_23 C 0.3772(5) 0.1997(5) 0.6478(4)
H3_23 H 0.3576 0.2099 0.6238
C6_23 C 0.4196(4) 0.1821(5) 0.6366(5)
C7_23 C 0.4382(5) 0.1797(5) 0.5903(5)
C8_23 C 0.4154(5) 0.1954(5) 0.5512(5)
H4_23 H 0.3846 0.2057 0.5532
C9_23 C 0.4375(6) 0.1960(7) 0.5102(7)
H5_17 H 0.4224 0.2084 0.4842
C10_23 C 0.4803(7) 0.1792(7) 0.5056(5)
H6_17 H 0.4959 0.1795 0.4771
C11_23 C 0.5004(5) 0.1614(4) 0.5453(6)
C12_23 C 0.5492(5) 0.1428(4) 0.5497(5)
H5_18 H 0.4224 0.2916 0.0158
H6_18 H 0.4959 0.3205 0.0229
O1_24 O 0.5063(3) 0.3623(3) 0.7685(3)
O4_24 O 0.5655(3) 0.3708(3) 0.9138(3)
O5_24 O 0.6057(3) 0.3569(4) 0.8137(4)
O6_24 O 0.6481(4) 0.4150(4) 0.7955(4)
O7_24 O 0.5796(4) 0.4252(4) 0.8221(4)
N1_24 N 0.4485(4) 0.3325(4) 0.8313(4)
N2_24 N 0.4809(4) 0.3384(3) 0.9127(4)
N3_24 N 0.6119(5) 0.3995(5) 0.8110(4)
C1_24 C 0.4686(5) 0.3478(4) 0.7536(5)
C2_24 C 0.4350(5) 0.3306(4) 0.7871(5)
C3_24 C 0.3926(4) 0.3119(5) 0.7745(5)
H1_24 H 0.3843 0.3095 0.7431
C4_24 C 0.3627(6) 0.2969(5) 0.8089(5)
H2_24 H 0.3334 0.2848 0.8018
C5_24 C 0.3772(5) 0.3003(5) 0.8522(4)
H3_24 H 0.3576 0.2901 0.8762
C6_24 C 0.4196(4) 0.3179(5) 0.8634(5)
C7_24 C 0.4382(5) 0.3203(5) 0.9097(5)
C8_24 C 0.4154(5) 0.3046(5) 0.9488(5)
H4_24 H 0.3846 0.2943 0.9468
C9_24 C 0.4375(6) 0.3040(7) 0.9898(7)
C10_24 C 0.4803(7) 0.3208(7) 0.9944(5)
C11_24 C 0.5004(5) 0.3386(4) 0.9547(6)
C12_24 C 0.5492(5) 0.3572(4) 0.9503(5)
N1_25 N 0.6687(4) 0.0515(4) 0.3325(4)
N2_25 N 0.5873(4) 0.0191(4) 0.3384(3)
C1_25 C 0.7464(5) 0.0314(5) 0.3478(4)
C2_25 C 0.7129(5) 0.0650(5) 0.3306(4)
C3_25 C 0.7255(5) 0.1074(4) 0.3119(5)
H1_25 H 0.7569 0.1157 0.3095
C4_25 C 0.6911(5) 0.1373(6) 0.2969(5)
H2_25 H 0.6982 0.1666 0.2848
C5_25 C 0.6478(4) 0.1228(5) 0.3003(5)
H3_25 H 0.6238 0.1424 0.2901
C6_25 C 0.6366(5) 0.0804(4) 0.3179(5)
C7_25 C 0.5903(5) 0.0618(5) 0.3203(5)
C8_25 C 0.5512(5) 0.0846(5) 0.3046(5)
H4_25 H 0.5532 0.1154 0.2943
C9_25 C 0.5102(7) 0.0625(6) 0.3040(7)
H5_19 H 0.4842 0.0776 0.2916
C10_25 C 0.5056(5) 0.0197(7) 0.3208(7)
H6_19 H 0.4771 0.0041 0.3205
O1_25 O 0.7315(3) 0.9937(3) 0.3623(3)
O4_25 O 0.5862(3) 0.9345(3) 0.3708(3)
O5_25 O 0.6863(4) 0.8943(3) 0.3569(4)
O6_25 O 0.7045(4) 0.8519(4) 0.4150(4)
O7_25 O 0.6779(4) 0.9204(4) 0.4252(4)
N3_25 N 0.6890(4) 0.8881(5) 0.3995(5)
C11_25 C 0.5453(6) 0.9996(5) 0.3386(4)
C12_25 C 0.5497(5) 0.9508(5) 0.3572(4)
O1_26 O 0.7315(3) 0.5063(3) 0.1377(3)
O4_26 O 0.5862(3) 0.5655(3) 0.1292(3)
O5_26 O 0.6863(4) 0.6057(3) 0.1431(4)
O6_26 O 0.7045(4) 0.6481(4) 0.0850(4)
O7_26 O 0.6779(4) 0.5796(4) 0.0748(4)
N1_26 N 0.6687(4) 0.4485(4) 0.1675(4)
N2_26 N 0.5873(4) 0.4809(4) 0.1616(3)
N3_26 N 0.6890(4) 0.6119(5) 0.1005(5)
C1_26 C 0.7464(5) 0.4686(5) 0.1522(4)
C2_26 C 0.7129(5) 0.4350(5) 0.1694(4)
C3_26 C 0.7255(5) 0.3926(4) 0.1881(5)
H1_26 H 0.7569 0.3843 0.1905
C4_26 C 0.6911(5) 0.3627(6) 0.2031(5)
H2_26 H 0.6982 0.3334 0.2152
C5_26 C 0.6478(4) 0.3772(5) 0.1997(5)
H3_26 H 0.6238 0.3576 0.2099
C6_26 C 0.6366(5) 0.4196(4) 0.1821(5)
C7_26 C 0.5903(5) 0.4382(5) 0.1797(5)
C8_26 C 0.5512(5) 0.4154(5) 0.1954(5)
H4_26 H 0.5532 0.3846 0.2057
C9_26 C 0.5102(7) 0.4375(6) 0.1960(7)
H5_20 H 0.4842 0.4224 0.2084
C10_26 C 0.5056(5) 0.4803(7) 0.1792(7)
H6_20 H 0.4771 0.4959 0.1795
C11_26 C 0.5453(6) 0.5004(5) 0.1614(4)
C12_26 C 0.5497(5) 0.5492(5) 0.1428(4)
H5_21 H 0.0158 0.4224 0.2916
H6_21 H 0.0229 0.4959 0.3205
O1_27 O 0.7685(3) 0.5063(3) 0.3623(3)
O4_27 O 0.9138(3) 0.5655(3) 0.3708(3)
O5_27 O 0.8137(4) 0.6057(3) 0.3569(4)
O6_27 O 0.7955(4) 0.6481(4) 0.4150(4)
O7_27 O 0.8221(4) 0.5796(4) 0.4252(4)
N1_27 N 0.8313(4) 0.4485(4) 0.3325(4)
N2_27 N 0.9127(4) 0.4809(4) 0.3384(3)
N3_27 N 0.8110(4) 0.6119(5) 0.3995(5)
C1_27 C 0.7536(5) 0.4686(5) 0.3478(4)
C2_27 C 0.7871(5) 0.4350(5) 0.3306(4)
C3_27 C 0.7745(5) 0.3926(4) 0.3119(5)
H1_27 H 0.7431 0.3843 0.3095
C4_27 C 0.8089(5) 0.3627(6) 0.2969(5)
H2_27 H 0.8018 0.3334 0.2848
C5_27 C 0.8522(4) 0.3772(5) 0.3003(5)
H3_27 H 0.8762 0.3576 0.2901
C6_27 C 0.8634(5) 0.4196(4) 0.3179(5)
C7_27 C 0.9097(5) 0.4382(5) 0.3203(5)
C8_27 C 0.9488(5) 0.4154(5) 0.3046(5)
H4_27 H 0.9468 0.3846 0.2943
C9_27 C 0.9898(7) 0.4375(6) 0.3040(7)
C10_27 C 0.9944(5) 0.4803(7) 0.3208(7)
C11_27 C 0.9547(6) 0.5004(5) 0.3386(4)
C12_27 C 0.9503(5) 0.5492(5) 0.3572(4)
O1_28 O 0.7315(3) 0.3623(3) 0.5063(3)
O4_28 O 0.5862(3) 0.3708(3) 0.5655(3)
O5_28 O 0.6863(4) 0.3569(4) 0.6057(3)
O6_28 O 0.7045(4) 0.4150(4) 0.6481(4)
O7_28 O 0.6779(4) 0.4252(4) 0.5796(4)
N1_28 N 0.6687(4) 0.3325(4) 0.4485(4)
N2_28 N 0.5873(4) 0.3384(3) 0.4809(4)
N3_28 N 0.6890(4) 0.3995(5) 0.6119(5)
C1_28 C 0.7464(5) 0.3478(4) 0.4686(5)
C2_28 C 0.7129(5) 0.3306(4) 0.4350(5)
C3_28 C 0.7255(5) 0.3119(5) 0.3926(4)
H1_28 H 0.7569 0.3095 0.3843
C4_28 C 0.6911(5) 0.2969(5) 0.3627(6)
H2_28 H 0.6982 0.2848 0.3334
C5_28 C 0.6478(4) 0.3003(5) 0.3772(5)
H3_28 H 0.6238 0.2901 0.3576
C6_28 C 0.6366(5) 0.3179(5) 0.4196(4)
C7_28 C 0.5903(5) 0.3203(5) 0.4382(5)
C8_28 C 0.5512(5) 0.3046(5) 0.4154(5)
H4_28 H 0.5532 0.2943 0.3846
C9_28 C 0.5102(7) 0.3040(7) 0.4375(6)
H5_22 H 0.4842 0.2916 0.4224
C10_28 C 0.5056(5) 0.3208(7) 0.4803(7)
H6_22 H 0.4771 0.3205 0.4959
C11_28 C 0.5453(6) 0.3386(4) 0.5004(5)
C12_28 C 0.5497(5) 0.3572(4) 0.5492(5)
O1_29 O 0.7685(3) 0.1377(3) 0.5063(3)
O4_29 O 0.9138(3) 0.1292(3) 0.5655(3)
O5_29 O 0.8137(4) 0.1431(4) 0.6057(3)
O6_29 O 0.7955(4) 0.0850(4) 0.6481(4)
O7_29 O 0.8221(4) 0.0748(4) 0.5796(4)
N1_29 N 0.8313(4) 0.1675(4) 0.4485(4)
N2_29 N 0.9127(4) 0.1616(3) 0.4809(4)
N3_29 N 0.8110(4) 0.1005(5) 0.6119(5)
C1_29 C 0.7536(5) 0.1522(4) 0.4686(5)
C2_29 C 0.7871(5) 0.1694(4) 0.4350(5)
C3_29 C 0.7745(5) 0.1881(5) 0.3926(4)
H1_29 H 0.7431 0.1905 0.3843
C4_29 C 0.8089(5) 0.2031(5) 0.3627(6)
H2_29 H 0.8018 0.2152 0.3334
C5_29 C 0.8522(4) 0.1997(5) 0.3772(5)
H3_29 H 0.8762 0.2099 0.3576
C6_29 C 0.8634(5) 0.1821(5) 0.4196(4)
C7_29 C 0.9097(5) 0.1797(5) 0.4382(5)
C8_29 C 0.9488(5) 0.1954(5) 0.4154(5)
H4_29 H 0.9468 0.2057 0.3846
C9_29 C 0.9898(7) 0.1960(7) 0.4375(6)
C10_29 C 0.9944(5) 0.1792(7) 0.4803(7)
C11_29 C 0.9547(6) 0.1614(4) 0.5004(5)
C12_29 C 0.9503(5) 0.1428(4) 0.5492(5)
O1_30 O 0.7315(3) 0.1377(3) 0.9937(3)
O4_30 O 0.5862(3) 0.1292(3) 0.9345(3)
O5_30 O 0.6863(4) 0.1431(4) 0.8943(3)
O6_30 O 0.7045(4) 0.0850(4) 0.8519(4)
O7_30 O 0.6779(4) 0.0748(4) 0.9204(4)
N3_30 N 0.6890(4) 0.1005(5) 0.8881(5)
C11_30 C 0.5453(6) 0.1614(4) 0.9996(5)
C12_30 C 0.5497(5) 0.1428(4) 0.9508(5)
N1_30 N 0.8313(4) 0.3325(4) 0.0515(4)
N2_30 N 0.9127(4) 0.3384(3) 0.0191(4)
C1_30 C 0.7536(5) 0.3478(4) 0.0314(5)
C2_30 C 0.7871(5) 0.3306(4) 0.0650(5)
C3_30 C 0.7745(5) 0.3119(5) 0.1074(4)
H1_30 H 0.7431 0.3095 0.1157
C4_30 C 0.8089(5) 0.2969(5) 0.1373(6)
H2_30 H 0.8018 0.2848 0.1666
C5_30 C 0.8522(4) 0.3003(5) 0.1228(5)
H3_30 H 0.8762 0.2901 0.1424
C6_30 C 0.8634(5) 0.3179(5) 0.0804(4)
C7_30 C 0.9097(5) 0.3203(5) 0.0618(5)
C8_30 C 0.9488(5) 0.3046(5) 0.0846(5)
H4_30 H 0.9468 0.2943 0.1154
C9_30 C 0.9898(7) 0.3040(7) 0.0625(6)
C10_30 C 0.9944(5) 0.3208(7) 0.0197(7)
N1_31 N 0.3325(4) 0.0515(4) 0.8313(4)
N2_31 N 0.3384(3) 0.0191(4) 0.9127(4)
C1_31 C 0.3478(4) 0.0314(5) 0.7536(5)
C2_31 C 0.3306(4) 0.0650(5) 0.7871(5)
C3_31 C 0.3119(5) 0.1074(4) 0.7745(5)
H1_31 H 0.3095 0.1157 0.7431
C4_31 C 0.2969(5) 0.1373(6) 0.8089(5)
H2_31 H 0.2848 0.1666 0.8018
C5_31 C 0.3003(5) 0.1228(5) 0.8522(4)
H3_31 H 0.2901 0.1424 0.8762
C6_31 C 0.3179(5) 0.0804(4) 0.8634(5)
C7_31 C 0.3203(5) 0.0618(5) 0.9097(5)
C8_31 C 0.3046(5) 0.0846(5) 0.9488(5)
H4_31 H 0.2943 0.1154 0.9468
C9_31 C 0.3040(7) 0.0625(6) 0.9898(7)
C10_31 C 0.3208(7) 0.0197(7) 0.9944(5)
O1_31 O 0.1377(3) 0.9937(3) 0.7315(3)
O4_31 O 0.1292(3) 0.9345(3) 0.5862(3)
O5_31 O 0.1431(4) 0.8943(3) 0.6863(4)
O6_31 O 0.0850(4) 0.8519(4) 0.7045(4)
O7_31 O 0.0748(4) 0.9204(4) 0.6779(4)
N3_31 N 0.1005(5) 0.8881(5) 0.6890(4)
C11_31 C 0.1614(4) 0.9996(5) 0.5453(6)
C12_31 C 0.1428(4) 0.9508(5) 0.5497(5)
O1_32 O 0.1377(3) 0.5063(3) 0.7685(3)
O4_32 O 0.1292(3) 0.5655(3) 0.9138(3)
O5_32 O 0.1431(4) 0.6057(3) 0.8137(4)
O6_32 O 0.0850(4) 0.6481(4) 0.7955(4)
O7_32 O 0.0748(4) 0.5796(4) 0.8221(4)
N1_32 N 0.1675(4) 0.4485(4) 0.8313(4)
N2_32 N 0.1616(3) 0.4809(4) 0.9127(4)
N3_32 N 0.1005(5) 0.6119(5) 0.8110(4)
C1_32 C 0.1522(4) 0.4686(5) 0.7536(5)
C2_32 C 0.1694(4) 0.4350(5) 0.7871(5)
C3_32 C 0.1881(5) 0.3926(4) 0.7745(5)
H1_32 H 0.1905 0.3843 0.7431
C4_32 C 0.2031(5) 0.3627(6) 0.8089(5)
H2_32 H 0.2152 0.3334 0.8018
C5_32 C 0.1997(5) 0.3772(5) 0.8522(4)
H3_32 H 0.2099 0.3576 0.8762
C6_32 C 0.1821(5) 0.4196(4) 0.8634(5)
C7_32 C 0.1797(5) 0.4382(5) 0.9097(5)
C8_32 C 0.1954(5) 0.4154(5) 0.9488(5)
H4_32 H 0.2057 0.3846 0.9468
C9_32 C 0.1960(7) 0.4375(6) 0.9898(7)
C10_32 C 0.1792(7) 0.4803(7) 0.9944(5)
C11_32 C 0.1614(4) 0.5004(5) 0.9547(6)
C12_32 C 0.1428(4) 0.5492(5) 0.9503(5)
O1_33 O 0.3623(3) 0.5063(3) 0.7315(3)
O4_33 O 0.3708(3) 0.5655(3) 0.5862(3)
O5_33 O 0.3569(4) 0.6057(3) 0.6863(4)
O6_33 O 0.4150(4) 0.6481(4) 0.7045(4)
O7_33 O 0.4252(4) 0.5796(4) 0.6779(4)
N1_33 N 0.3325(4) 0.4485(4) 0.6687(4)
N2_33 N 0.3384(3) 0.4809(4) 0.5873(4)
N3_33 N 0.3995(5) 0.6119(5) 0.6890(4)
C1_33 C 0.3478(4) 0.4686(5) 0.7464(5)
C2_33 C 0.3306(4) 0.4350(5) 0.7129(5)
C3_33 C 0.3119(5) 0.3926(4) 0.7255(5)
H1_33 H 0.3095 0.3843 0.7569
C4_33 C 0.2969(5) 0.3627(6) 0.6911(5)
H2_33 H 0.2848 0.3334 0.6982
C5_33 C 0.3003(5) 0.3772(5) 0.6478(4)
H3_33 H 0.2901 0.3576 0.6238
C6_33 C 0.3179(5) 0.4196(4) 0.6366(5)
C7_33 C 0.3203(5) 0.4382(5) 0.5903(5)
C8_33 C 0.3046(5) 0.4154(5) 0.5512(5)
H4_33 H 0.2943 0.3846 0.5532
C9_33 C 0.3040(7) 0.4375(6) 0.5102(7)
H5_23 H 0.2916 0.4224 0.4842
C10_33 C 0.3208(7) 0.4803(7) 0.5056(5)
H6_23 H 0.3205 0.4959 0.4771
C11_33 C 0.3386(4) 0.5004(5) 0.5453(6)
C12_33 C 0.3572(4) 0.5492(5) 0.5497(5)
O1_34 O 0.9937(3) 0.7315(3) 0.1377(3)
O4_34 O 0.9345(3) 0.5862(3) 0.1292(3)
O5_34 O 0.8943(3) 0.6863(4) 0.1431(4)
O6_34 O 0.8519(4) 0.7045(4) 0.0850(4)
O7_34 O 0.9204(4) 0.6779(4) 0.0748(4)
N3_34 N 0.8881(5) 0.6890(4) 0.1005(5)
C11_34 C 0.9996(5) 0.5453(6) 0.1614(4)
C12_34 C 0.9508(5) 0.5497(5) 0.1428(4)
N1_34 N 0.0515(4) 0.8313(4) 0.3325(4)
N2_34 N 0.0191(4) 0.9127(4) 0.3384(3)
C1_34 C 0.0314(5) 0.7536(5) 0.3478(4)
C2_34 C 0.0650(5) 0.7871(5) 0.3306(4)
C3_34 C 0.1074(4) 0.7745(5) 0.3119(5)
H1_34 H 0.1157 0.7431 0.3095
C4_34 C 0.1373(6) 0.8089(5) 0.2969(5)
H2_34 H 0.1666 0.8018 0.2848
C5_34 C 0.1228(5) 0.8522(4) 0.3003(5)
H3_34 H 0.1424 0.8762 0.2901
C6_34 C 0.0804(4) 0.8634(5) 0.3179(5)
C7_34 C 0.0618(5) 0.9097(5) 0.3203(5)
C8_34 C 0.0846(5) 0.9488(5) 0.3046(5)
H4_34 H 0.1154 0.9468 0.2943
C9_34 C 0.0625(6) 0.9898(7) 0.3040(7)
C10_34 C 0.0197(7) 0.9944(5) 0.3208(7)
O1_35 O 0.5063(3) 0.7315(3) 0.3623(3)
O4_35 O 0.5655(3) 0.5862(3) 0.3708(3)
O5_35 O 0.6057(3) 0.6863(4) 0.3569(4)
O6_35 O 0.6481(4) 0.7045(4) 0.4150(4)
O7_35 O 0.5796(4) 0.6779(4) 0.4252(4)
N1_35 N 0.4485(4) 0.6687(4) 0.3325(4)
N2_35 N 0.4809(4) 0.5873(4) 0.3384(3)
N3_35 N 0.6119(5) 0.6890(4) 0.3995(5)
C1_35 C 0.4686(5) 0.7464(5) 0.3478(4)
C2_35 C 0.4350(5) 0.7129(5) 0.3306(4)
C3_35 C 0.3926(4) 0.7255(5) 0.3119(5)
H1_35 H 0.3843 0.7569 0.3095
C4_35 C 0.3627(6) 0.6911(5) 0.2969(5)
H2_35 H 0.3334 0.6982 0.2848
C5_35 C 0.3772(5) 0.6478(4) 0.3003(5)
H3_35 H 0.3576 0.6238 0.2901
C6_35 C 0.4196(4) 0.6366(5) 0.3179(5)
C7_35 C 0.4382(5) 0.5903(5) 0.3203(5)
C8_35 C 0.4154(5) 0.5512(5) 0.3046(5)
H4_35 H 0.3846 0.5532 0.2943
C9_35 C 0.4375(6) 0.5102(7) 0.3040(7)
H5_24 H 0.4224 0.4842 0.2916
C10_35 C 0.4803(7) 0.5056(5) 0.3208(7)
H6_24 H 0.4959 0.4771 0.3205
C11_35 C 0.5004(5) 0.5453(6) 0.3386(4)
C12_35 C 0.5492(5) 0.5497(5) 0.3572(4)
O1_36 O 0.5063(3) 0.7685(3) 0.1377(3)
O4_36 O 0.5655(3) 0.9138(3) 0.1292(3)
O5_36 O 0.6057(3) 0.8137(4) 0.1431(4)
O6_36 O 0.6481(4) 0.7955(4) 0.0850(4)
O7_36 O 0.5796(4) 0.8221(4) 0.0748(4)
N1_36 N 0.4485(4) 0.8313(4) 0.1675(4)
N2_36 N 0.4809(4) 0.9127(4) 0.1616(3)
N3_36 N 0.6119(5) 0.8110(4) 0.1005(5)
C1_36 C 0.4686(5) 0.7536(5) 0.1522(4)
C2_36 C 0.4350(5) 0.7871(5) 0.1694(4)
C3_36 C 0.3926(4) 0.7745(5) 0.1881(5)
H1_36 H 0.3843 0.7431 0.1905
C4_36 C 0.3627(6) 0.8089(5) 0.2031(5)
H2_36 H 0.3334 0.8018 0.2152
C5_36 C 0.3772(5) 0.8522(4) 0.1997(5)
H3_36 H 0.3576 0.8762 0.2099
C6_36 C 0.4196(4) 0.8634(5) 0.1821(5)
C7_36 C 0.4382(5) 0.9097(5) 0.1797(5)
C8_36 C 0.4154(5) 0.9488(5) 0.1954(5)
H4_36 H 0.3846 0.9468 0.2057
C9_36 C 0.4375(6) 0.9898(7) 0.1960(7)
C10_36 C 0.4803(7) 0.9944(5) 0.1792(7)
C11_36 C 0.5004(5) 0.9547(6) 0.1614(4)
C12_36 C 0.5492(5) 0.9503(5) 0.1428(4)
Tb1_19 Tb 0.86349(2) 0.15438(2) 0.02726(2)
O1_37 O 0.8623(3) 0.2315(3) 0.0063(3)
O3_19 O 0.8574(3) 0.0117(3) 0.0705(3)
O4_37 O 0.8708(3) 0.0862(3) 0.0655(3)
O5_37 O 0.8569(4) 0.1863(4) 0.1057(3)
O6_37 O 0.9150(4) 0.2045(4) 0.1481(4)
O7_37 O 0.9252(4) 0.1779(4) 0.0796(4)
N3_37 N 0.8995(5) 0.1890(4) 0.1119(5)
C11_37 C 0.8386(4) 0.0453(6) 0.0004(5)
C12_37 C 0.8572(4) 0.0497(5) 0.0492(5)
O8_19 O 0.7876(3) 0.1548(4) 0.0416(3)
Tb1_20 Tb 0.63651(2) 0.02726(2) 0.15438(2)
O1_38 O 0.6377(3) 0.0063(3) 0.2315(3)
O3_20 O 0.6426(3) 0.0705(3) 0.0117(3)
O4_38 O 0.6292(3) 0.0655(3) 0.0862(3)
O5_38 O 0.6431(4) 0.1057(3) 0.1863(4)
O6_38 O 0.5850(4) 0.1481(4) 0.2045(4)
O7_38 O 0.5748(4) 0.0796(4) 0.1779(4)
N3_38 N 0.6005(5) 0.1119(5) 0.1890(4)
C11_38 C 0.6614(4) 0.0004(5) 0.0453(6)
C12_38 C 0.6428(4) 0.0492(5) 0.0497(5)
O8_20 O 0.7124(3) 0.0416(3) 0.1548(4)
N1_37 N 0.8313(4) 0.0515(4) 0.1675(4)
N2_37 N 0.9127(4) 0.0191(4) 0.1616(3)
C1_37 C 0.7536(5) 0.0314(5) 0.1522(4)
C2_37 C 0.7871(5) 0.0650(5) 0.1694(4)
C3_37 C 0.7745(5) 0.1074(4) 0.1881(5)
H1_37 H 0.7431 0.1157 0.1905
C4_37 C 0.8089(5) 0.1373(6) 0.2031(5)
H2_37 H 0.8018 0.1666 0.2152
C5_37 C 0.8522(4) 0.1228(5) 0.1997(5)
H3_37 H 0.8762 0.1424 0.2099
C6_37 C 0.8634(5) 0.0804(4) 0.1821(5)
C7_37 C 0.9097(5) 0.0618(5) 0.1797(5)
C8_37 C 0.9488(5) 0.0846(5) 0.1954(5)
H4_37 H 0.9468 0.1154 0.2057
C9_37 C 0.9898(7) 0.0625(6) 0.1960(7)
C10_37 C 0.9944(5) 0.0197(7) 0.1792(7)
N1_38 N 0.6687(4) 0.1675(4) 0.0515(4)
N2_38 N 0.5873(4) 0.1616(3) 0.0191(4)
C1_38 C 0.7464(5) 0.1522(4) 0.0314(5)
C2_38 C 0.7129(5) 0.1694(4) 0.0650(5)
C3_38 C 0.7255(5) 0.1881(5) 0.1074(4)
H1_38 H 0.7569 0.1905 0.1157
C4_38 C 0.6911(5) 0.2031(5) 0.1373(6)
H2_38 H 0.6982 0.2152 0.1666
C5_38 C 0.6478(4) 0.1997(5) 0.1228(5)
H3_38 H 0.6238 0.2099 0.1424
C6_38 C 0.6366(5) 0.1821(5) 0.0804(4)
C7_38 C 0.5903(5) 0.1797(5) 0.0618(5)
C8_38 C 0.5512(5) 0.1954(5) 0.0846(5)
H4_38 H 0.5532 0.2057 0.1154
C9_38 C 0.5102(7) 0.1960(7) 0.0625(6)
H5_25 H 0.4842 0.2084 0.0776
C10_38 C 0.5056(5) 0.1792(7) 0.0197(7)
H6_25 H 0.4771 0.1795 0.0041
H5_26 H 0.4224 0.0158 0.2084
H6_26 H 0.4959 0.0229 0.1795
O2_19 O 0.8452(4) 0.2876(3) 0.9584(3)
N1_39 N 0.8325(4) 0.1687(4) 0.9485(4)
N2_39 N 0.8384(3) 0.0873(4) 0.9809(4)
C1_39 C 0.8478(4) 0.2464(5) 0.9686(5)
C2_39 C 0.8306(4) 0.2129(5) 0.9350(5)
C3_39 C 0.8119(5) 0.2255(5) 0.8926(4)
H1_39 H 0.8095 0.2569 0.8843
C4_39 C 0.7969(5) 0.1911(5) 0.8627(6)
H2_39 H 0.7848 0.1982 0.8334
C5_39 C 0.8003(5) 0.1478(4) 0.8772(5)
H3_39 H 0.7901 0.1238 0.8576
C6_39 C 0.8179(5) 0.1366(5) 0.9196(4)
C7_39 C 0.8203(5) 0.0903(5) 0.9382(5)
C8_39 C 0.8046(5) 0.0512(5) 0.9154(5)
H4_39 H 0.7943 0.0532 0.8846
C9_39 C 0.8040(7) 0.0102(7) 0.9375(6)
C10_39 C 0.8208(7) 0.0056(5) 0.9803(7)
Tb3_10 Tb 0.84562(2) 0.36349(2) 0.97274(2)
O9_19 O 0.9295(3) 0.1426(3) 0.9883(3)
Tb2_10 Tb 0.97274(2) 0.13651(2) 0.84562(2)
H5_27 H 0.7916 0.5776 0.9842
H6_27 H 0.8205 0.5041 0.9771
O2_20 O 0.9584(3) 0.2124(3) 0.8452(4)
N1_40 N 0.9485(4) 0.3313(4) 0.8325(4)
N2_40 N 0.9809(4) 0.4127(4) 0.8384(3)
C1_40 C 0.9686(5) 0.2536(5) 0.8478(4)
C2_40 C 0.9350(5) 0.2871(5) 0.8306(4)
C3_40 C 0.8926(4) 0.2745(5) 0.8119(5)
H1_40 H 0.8843 0.2431 0.8095
C4_40 C 0.8627(6) 0.3089(5) 0.7969(5)
H2_40 H 0.8334 0.3018 0.7848
C5_40 C 0.8772(5) 0.3522(4) 0.8003(5)
H3_40 H 0.8576 0.3762 0.7901
C6_40 C 0.9196(4) 0.3634(5) 0.8179(5)
C7_40 C 0.9382(5) 0.4097(5) 0.8203(5)
C8_40 C 0.9154(5) 0.4488(5) 0.8046(5)
H4_40 H 0.8846 0.4468 0.7943
C9_40 C 0.9375(6) 0.4898(7) 0.8040(7)
H5_28 H 0.9224 0.5158 0.7916
C10_40 C 0.9803(7) 0.4944(5) 0.8208(7)
H6_28 H 0.9959 0.5229 0.8205
O9_20 O 0.9883(3) 0.3574(3) 0.9295(3)
O1_39 O 0.9937(3) 0.1377(3) 0.7685(3)
O4_39 O 0.9345(3) 0.1292(3) 0.9138(3)
O5_39 O 0.8943(3) 0.1431(4) 0.8137(4)
O6_39 O 0.8519(4) 0.0850(4) 0.7955(4)
O7_39 O 0.9204(4) 0.0748(4) 0.8221(4)
N3_39 N 0.8881(5) 0.1005(5) 0.8110(4)
C11_39 C 0.9996(5) 0.1614(4) 0.9547(6)
C12_39 C 0.9508(5) 0.1428(4) 0.9503(5)
O1_40 O 0.7685(3) 0.3623(3) 0.9937(3)
O4_40 O 0.9138(3) 0.3708(3) 0.9345(3)
O5_40 O 0.8137(4) 0.3569(4) 0.8943(3)
O6_40 O 0.7955(4) 0.4150(4) 0.8519(4)
O7_40 O 0.8221(4) 0.4252(4) 0.9204(4)
N3_40 N 0.8110(4) 0.3995(5) 0.8881(5)
C11_40 C 0.9547(6) 0.3386(4) 0.9996(5)
C12_40 C 0.9503(5) 0.3572(4) 0.9508(5)
Tb2_11 Tb 0.84562(2) 0.97274(2) 0.13651(2)
O2_21 O 0.9584(3) 0.8452(4) 0.2876(3)
N1_41 N 0.9485(4) 0.8325(4) 0.1687(4)
N2_41 N 0.9809(4) 0.8384(3) 0.0873(4)
C1_41 C 0.9686(5) 0.8478(4) 0.2464(5)
C2_41 C 0.9350(5) 0.8306(4) 0.2129(5)
C3_41 C 0.8926(4) 0.8119(5) 0.2255(5)
H1_41 H 0.8843 0.8095 0.2569
C4_41 C 0.8627(6) 0.7969(5) 0.1911(5)
H2_41 H 0.8334 0.7848 0.1982
C5_41 C 0.8772(5) 0.8003(5) 0.1478(4)
H3_41 H 0.8576 0.7901 0.1238
C6_41 C 0.9196(4) 0.8179(5) 0.1366(5)
C7_41 C 0.9382(5) 0.8203(5) 0.0903(5)
C8_41 C 0.9154(5) 0.8046(5) 0.0512(5)
H4_41 H 0.8846 0.7943 0.0532
C9_41 C 0.9375(6) 0.8040(7) 0.0102(7)
C10_41 C 0.9803(7) 0.8208(7) 0.0056(5)
Tb3_11 Tb 0.97274(2) 0.84562(2) 0.36349(2)
O9_21 O 0.9883(3) 0.9295(3) 0.1426(3)
H5_29 H 0.9842 0.7916 0.5776
H6_29 H 0.9771 0.8205 0.5041
O2_22 O 0.8452(4) 0.9584(3) 0.2124(3)
N1_42 N 0.8325(4) 0.9485(4) 0.3313(4)
N2_42 N 0.8384(3) 0.9809(4) 0.4127(4)
C1_42 C 0.8478(4) 0.9686(5) 0.2536(5)
C2_42 C 0.8306(4) 0.9350(5) 0.2871(5)
C3_42 C 0.8119(5) 0.8926(4) 0.2745(5)
H1_42 H 0.8095 0.8843 0.2431
C4_42 C 0.7969(5) 0.8627(6) 0.3089(5)
H2_42 H 0.7848 0.8334 0.3018
C5_42 C 0.8003(5) 0.8772(5) 0.3522(4)
H3_42 H 0.7901 0.8576 0.3762
C6_42 C 0.8179(5) 0.9196(4) 0.3634(5)
C7_42 C 0.8203(5) 0.9382(5) 0.4097(5)
C8_42 C 0.8046(5) 0.9154(5) 0.4488(5)
H4_42 H 0.7943 0.8846 0.4468
C9_42 C 0.8040(7) 0.9375(6) 0.4898(7)
H5_30 H 0.7916 0.9224 0.5158
C10_42 C 0.8208(7) 0.9803(7) 0.4944(5)
H6_30 H 0.8205 0.9959 0.5229
O9_22 O 0.9295(3) 0.9883(3) 0.3574(3)
O1_41 O 0.7685(3) 0.9937(3) 0.1377(3)
O4_41 O 0.9138(3) 0.9345(3) 0.1292(3)
O5_41 O 0.8137(4) 0.8943(3) 0.1431(4)
O6_41 O 0.7955(4) 0.8519(4) 0.0850(4)
O7_41 O 0.8221(4) 0.9204(4) 0.0748(4)
N3_41 N 0.8110(4) 0.8881(5) 0.1005(5)
C11_41 C 0.9547(6) 0.9996(5) 0.1614(4)
C12_41 C 0.9503(5) 0.9508(5) 0.1428(4)
O1_42 O 0.9937(3) 0.7685(3) 0.3623(3)
O4_42 O 0.9345(3) 0.9138(3) 0.3708(3)
O5_42 O 0.8943(3) 0.8137(4) 0.3569(4)
O6_42 O 0.8519(4) 0.7955(4) 0.4150(4)
O7_42 O 0.9204(4) 0.8221(4) 0.4252(4)
N3_42 N 0.8881(5) 0.8110(4) 0.3995(5)
C11_42 C 0.9996(5) 0.9547(6) 0.3386(4)
C12_42 C 0.9508(5) 0.9503(5) 0.3572(4)
H5_31 H 0.7916 0.9842 0.9224
H6_31 H 0.8205 0.9771 0.9959
Tb1_21 Tb 0.02726(2) 0.86349(2) 0.15438(2)
O1_43 O 0.0063(3) 0.8623(3) 0.2315(3)
O3_21 O 0.0705(3) 0.8574(3) 0.0117(3)
O4_43 O 0.0655(3) 0.8708(3) 0.0862(3)
O5_43 O 0.1057(3) 0.8569(4) 0.1863(4)
O6_43 O 0.1481(4) 0.9150(4) 0.2045(4)
O7_43 O 0.0796(4) 0.9252(4) 0.1779(4)
N3_43 N 0.1119(5) 0.8995(5) 0.1890(4)
C11_43 C 0.0004(5) 0.8386(4) 0.0453(6)
C12_43 C 0.0492(5) 0.8572(4) 0.0497(5)
O8_21 O 0.0416(3) 0.7876(3) 0.1548(4)
Tb1_22 Tb 0.15438(2) 0.63651(2) 0.02726(2)
O1_44 O 0.2315(3) 0.6377(3) 0.0063(3)
O3_22 O 0.0117(3) 0.6426(3) 0.0705(3)
O4_44 O 0.0862(3) 0.6292(3) 0.0655(3)
O5_44 O 0.1863(4) 0.6431(4) 0.1057(3)
O6_44 O 0.2045(4) 0.5850(4) 0.1481(4)
O7_44 O 0.1779(4) 0.5748(4) 0.0796(4)
N3_44 N 0.1890(4) 0.6005(5) 0.1119(5)
C11_44 C 0.0453(6) 0.6614(4) 0.0004(5)
C12_44 C 0.0497(5) 0.6428(4) 0.0492(5)
O8_22 O 0.1548(4) 0.7124(3) 0.0416(3)
N1_43 N 0.1675(4) 0.8313(4) 0.0515(4)
N2_43 N 0.1616(3) 0.9127(4) 0.0191(4)
C1_43 C 0.1522(4) 0.7536(5) 0.0314(5)
C2_43 C 0.1694(4) 0.7871(5) 0.0650(5)
C3_43 C 0.1881(5) 0.7745(5) 0.1074(4)
H1_43 H 0.1905 0.7431 0.1157
C4_43 C 0.2031(5) 0.8089(5) 0.1373(6)
H2_43 H 0.2152 0.8018 0.1666
C5_43 C 0.1997(5) 0.8522(4) 0.1228(5)
H3_43 H 0.2099 0.8762 0.1424
C6_43 C 0.1821(5) 0.8634(5) 0.0804(4)
C7_43 C 0.1797(5) 0.9097(5) 0.0618(5)
C8_43 C 0.1954(5) 0.9488(5) 0.0846(5)
H4_43 H 0.2057 0.9468 0.1154
C9_43 C 0.1960(7) 0.9898(7) 0.0625(6)
C10_43 C 0.1792(7) 0.9944(5) 0.0197(7)
H5_32 H 0.2084 0.4224 0.0158
H6_32 H 0.1795 0.4959 0.0229
N1_44 N 0.0515(4) 0.6687(4) 0.1675(4)
N2_44 N 0.0191(4) 0.5873(4) 0.1616(3)
C1_44 C 0.0314(5) 0.7464(5) 0.1522(4)
C2_44 C 0.0650(5) 0.7129(5) 0.1694(4)
C3_44 C 0.1074(4) 0.7255(5) 0.1881(5)
H1_44 H 0.1157 0.7569 0.1905
C4_44 C 0.1373(6) 0.6911(5) 0.2031(5)
H2_44 H 0.1666 0.6982 0.2152
C5_44 C 0.1228(5) 0.6478(4) 0.1997(5)
H3_44 H 0.1424 0.6238 0.2099
C6_44 C 0.0804(4) 0.6366(5) 0.1821(5)
C7_44 C 0.0618(5) 0.5903(5) 0.1797(5)
C8_44 C 0.0846(5) 0.5512(5) 0.1954(5)
H4_44 H 0.1154 0.5532 0.2057
C9_44 C 0.0625(6) 0.5102(7) 0.1960(7)
H5_33 H 0.0776 0.4842 0.2084
C10_44 C 0.0197(7) 0.5056(5) 0.1792(7)
H6_33 H 0.0041 0.4771 0.1795
Tb2_12 Tb 0.13651(2) 0.84562(2) 0.97274(2)
O2_23 O 0.2876(3) 0.9584(3) 0.8452(4)
N1_45 N 0.1687(4) 0.9485(4) 0.8325(4)
N2_45 N 0.0873(4) 0.9809(4) 0.8384(3)
C1_45 C 0.2464(5) 0.9686(5) 0.8478(4)
C2_45 C 0.2129(5) 0.9350(5) 0.8306(4)
C3_45 C 0.2255(5) 0.8926(4) 0.8119(5)
H1_45 H 0.2569 0.8843 0.8095
C4_45 C 0.1911(5) 0.8627(6) 0.7969(5)
H2_45 H 0.1982 0.8334 0.7848
C5_45 C 0.1478(4) 0.8772(5) 0.8003(5)
H3_45 H 0.1238 0.8576 0.7901
C6_45 C 0.1366(5) 0.9196(4) 0.8179(5)
C7_45 C 0.0903(5) 0.9382(5) 0.8203(5)
C8_45 C 0.0512(5) 0.9154(5) 0.8046(5)
H4_45 H 0.0532 0.8846 0.7943
C9_45 C 0.0102(7) 0.9375(6) 0.8040(7)
C10_45 C 0.0056(5) 0.9803(7) 0.8208(7)
Tb3_12 Tb 0.36349(2) 0.97274(2) 0.84562(2)
O9_23 O 0.1426(3) 0.9883(3) 0.9295(3)
O2_24 O 0.2124(3) 0.8452(4) 0.9584(3)
N1_46 N 0.3313(4) 0.8325(4) 0.9485(4)
N2_46 N 0.4127(4) 0.8384(3) 0.9809(4)
C1_46 C 0.2536(5) 0.8478(4) 0.9686(5)
C2_46 C 0.2871(5) 0.8306(4) 0.9350(5)
C3_46 C 0.2745(5) 0.8119(5) 0.8926(4)
H1_46 H 0.2431 0.8095 0.8843
C4_46 C 0.3089(5) 0.7969(5) 0.8627(6)
H2_46 H 0.3018 0.7848 0.8334
C5_46 C 0.3522(4) 0.8003(5) 0.8772(5)
H3_46 H 0.3762 0.7901 0.8576
C6_46 C 0.3634(5) 0.8179(5) 0.9196(4)
C7_46 C 0.4097(5) 0.8203(5) 0.9382(5)
C8_46 C 0.4488(5) 0.8046(5) 0.9154(5)
H4_46 H 0.4468 0.7943 0.8846
C9_46 C 0.4898(7) 0.8040(7) 0.9375(6)
H5_34 H 0.5158 0.7916 0.9224
C10_46 C 0.4944(5) 0.8208(7) 0.9803(7)
H6_34 H 0.5229 0.8205 0.9959
O9_24 O 0.3574(3) 0.9295(3) 0.9883(3)
H5_35 H 0.5776 0.9842 0.7916
H6_35 H 0.5041 0.9771 0.8205
O1_45 O 0.1377(3) 0.7685(3) 0.9937(3)
O4_45 O 0.1292(3) 0.9138(3) 0.9345(3)
O5_45 O 0.1431(4) 0.8137(4) 0.8943(3)
O6_45 O 0.0850(4) 0.7955(4) 0.8519(4)
O7_45 O 0.0748(4) 0.8221(4) 0.9204(4)
N3_45 N 0.1005(5) 0.8110(4) 0.8881(5)
C11_45 C 0.1614(4) 0.9547(6) 0.9996(5)
C12_45 C 0.1428(4) 0.9503(5) 0.9508(5)
O1_46 O 0.3623(3) 0.9937(3) 0.7685(3)
O4_46 O 0.3708(3) 0.9345(3) 0.9138(3)
O5_46 O 0.3569(4) 0.8943(3) 0.8137(4)
O6_46 O 0.4150(4) 0.8519(4) 0.7955(4)
O7_46 O 0.4252(4) 0.9204(4) 0.8221(4)
N3_46 N 0.3995(5) 0.8881(5) 0.8110(4)
C11_46 C 0.3386(4) 0.9996(5) 0.9547(6)
C12_46 C 0.3572(4) 0.9508(5) 0.9503(5)
H5_36 H 0.9224 0.7916 0.9842
H6_36 H 0.9959 0.8205 0.9771
Tb1_23 Tb 0.15438(2) 0.02726(2) 0.86349(2)
O1_47 O 0.2315(3) 0.0063(3) 0.8623(3)
O3_23 O 0.0117(3) 0.0705(3) 0.8574(3)
O4_47 O 0.0862(3) 0.0655(3) 0.8708(3)
O5_47 O 0.1863(4) 0.1057(3) 0.8569(4)
O6_47 O 0.2045(4) 0.1481(4) 0.9150(4)
O7_47 O 0.1779(4) 0.0796(4) 0.9252(4)
N3_47 N 0.1890(4) 0.1119(5) 0.8995(5)
C11_47 C 0.0453(6) 0.0004(5) 0.8386(4)
C12_47 C 0.0497(5) 0.0492(5) 0.8572(4)
O8_23 O 0.1548(4) 0.0416(3) 0.7876(3)
Tb1_24 Tb 0.02726(2) 0.15438(2) 0.63651(2)
O1_48 O 0.0063(3) 0.2315(3) 0.6377(3)
O3_24 O 0.0705(3) 0.0117(3) 0.6426(3)
O4_48 O 0.0655(3) 0.0862(3) 0.6292(3)
O5_48 O 0.1057(3) 0.1863(4) 0.6431(4)
O6_48 O 0.1481(4) 0.2045(4) 0.5850(4)
O7_48 O 0.0796(4) 0.1779(4) 0.5748(4)
N3_48 N 0.1119(5) 0.1890(4) 0.6005(5)
C11_48 C 0.0004(5) 0.0453(6) 0.6614(4)
C12_48 C 0.0492(5) 0.0497(5) 0.6428(4)
O8_24 O 0.0416(3) 0.1548(4) 0.7124(3)
N1_47 N 0.0515(4) 0.1675(4) 0.8313(4)
N2_47 N 0.0191(4) 0.1616(3) 0.9127(4)
C1_47 C 0.0314(5) 0.1522(4) 0.7536(5)
C2_47 C 0.0650(5) 0.1694(4) 0.7871(5)
C3_47 C 0.1074(4) 0.1881(5) 0.7745(5)
H1_47 H 0.1157 0.1905 0.7431
C4_47 C 0.1373(6) 0.2031(5) 0.8089(5)
H2_47 H 0.1666 0.2152 0.8018
C5_47 C 0.1228(5) 0.1997(5) 0.8522(4)
H3_47 H 0.1424 0.2099 0.8762
C6_47 C 0.0804(4) 0.1821(5) 0.8634(5)
C7_47 C 0.0618(5) 0.1797(5) 0.9097(5)
C8_47 C 0.0846(5) 0.1954(5) 0.9488(5)
H4_47 H 0.1154 0.2057 0.9468
C9_47 C 0.0625(6) 0.1960(7) 0.9898(7)
C10_47 C 0.0197(7) 0.1792(7) 0.9944(5)
H5_37 H 0.0158 0.2084 0.4224
H6_37 H 0.0229 0.1795 0.4959
N1_48 N 0.1675(4) 0.0515(4) 0.6687(4)
N2_48 N 0.1616(3) 0.0191(4) 0.5873(4)
C1_48 C 0.1522(4) 0.0314(5) 0.7464(5)
C2_48 C 0.1694(4) 0.0650(5) 0.7129(5)
C3_48 C 0.1881(5) 0.1074(4) 0.7255(5)
H1_48 H 0.1905 0.1157 0.7569
C4_48 C 0.2031(5) 0.1373(6) 0.6911(5)
H2_48 H 0.2152 0.1666 0.6982
C5_48 C 0.1997(5) 0.1228(5) 0.6478(4)
H3_48 H 0.2099 0.1424 0.6238
C6_48 C 0.1821(5) 0.0804(4) 0.6366(5)
C7_48 C 0.1797(5) 0.0618(5) 0.5903(5)
C8_48 C 0.1954(5) 0.0846(5) 0.5512(5)
H4_48 H 0.2057 0.1154 0.5532
C9_48 C 0.1960(7) 0.0625(6) 0.5102(7)
H5_38 H 0.2084 0.0776 0.4842
C10_48 C 0.1792(7) 0.0197(7) 0.5056(5)
H6_38 H 0.1795 0.0041 0.4771
H5_39 H 0.9842 0.9224 0.7916
H6_39 H 0.9771 0.9959 0.8205
H5_40 H 0.9842 0.7084 0.9224
H6_40 H 0.9771 0.6795 0.9959
H5_41 H 0.7084 0.9224 0.9842
H6_41 H 0.6795 0.9959 0.9771
H5_42 H 0.9224 0.9842 0.7084
H6_42 H 0.9959 0.9771 0.6795
H5_43 H 0.2084 0.0158 0.0776
H6_43 H 0.1795 0.0229 0.0041
H5_44 H 0.0776 0.2084 0.0158
H6_44 H 0.0041 0.1795 0.0229
H5_45 H 0.0158 0.0776 0.2084
H6_45 H 0.0229 0.0041 0.1795
H5_46 H 0.0158 0.2916 0.0776
H6_46 H 0.0229 0.3205 0.0041
H5_47 H 0.2916 0.0776 0.0158
H6_47 H 0.3205 0.0041 0.0229
H5_48 H 0.0776 0.0158 0.2916
H6_48 H 0.0041 0.0229 0.3205
loop_
_geom_bond_atom_site_label_1
_geom_bond_atom_site_label_2
_geom_bond_site_symmetry_1
_geom_bond_site_symmetry_2
Tb1 O1 1_555 1_555
O3 C12 1_555 1_555
O4 Tb1 1_555 1_555
O5 Tb1 1_555 1_555
O6 N3 1_555 1_555
O7 Tb1 1_555 1_555
N3 O5 1_555 1_555
C12 O4 1_555 1_555
Tb2 O3 1_555 1_555
O8 Tb1 1_555 1_555
O7 N3 1_555 1_555
C11 C12 1_555 1_555
O2 C1 1_555 1_555
C1 C2 1_555 1_555
C2 N1 1_555 1_555
C3 C2 1_555 1_555
H1 C3 1_555 1_555
C4 C3 1_555 1_555
H2 C4 1_555 1_555
C5 C4 1_555 1_555
H3 C5 1_555 1_555
C6 N1 1_555 1_555
C7 N2 1_555 1_555
C8 C7 1_555 1_555
H4 C8 1_555 1_555
C9 C8 1_555 1_555
H5 C9 1_555 1_555
C10 C9 1_555 1_555
H6 C10 1_555 1_555
Tb3 O2 1_555 1_555
C5 C6 1_555 1_555
C6 C7 1_555 1_555
Tb1_2 O1_2 1_555 1_555
O1_2 C1_2 1_555 1_555
O2_2 C1_2 1_555 1_555
O3_2 C12_2 1_555 1_555
O4_2 Tb1_2 1_555 1_555
O5_2 Tb1_2 1_555 1_555
O6_2 N3_2 1_555 1_555
O7_2 Tb1_2 1_555 1_555
N1_2 Tb1_2 1_555 1_555
N2_2 Tb1_2 1_555 1_555
N3_2 O5_2 1_555 1_555
C1_2 C2_2 1_555 1_555
C2_2 N1_2 1_555 1_555
C3_2 C2_2 1_555 1_555
H1_2 C3_2 1_555 1_555
C4_2 C3_2 1_555 1_555
H2_2 C4_2 1_555 1_555
C5_2 C4_2 1_555 1_555
H3_2 C5_2 1_555 1_555
C6_2 N1_2 1_555 1_555
C7_2 N2_2 1_555 1_555
C8_2 C7_2 1_555 1_555
H4_2 C8_2 1_555 1_555
C9_2 C8_2 1_555 1_555
H5_2 C9_2 1_555 1_555
C10_2 C9_2 1_555 1_555
H6_2 C10_2 1_555 1_555
C11_2 N2_2 1_555 1_555
C12_2 O4_2 1_555 1_555
Tb2_2 O3_2 1_555 1_555
Tb3_2 O2_2 1_555 1_555
O8_2 Tb1_2 1_555 1_555
O9_2 Tb1_2 1_555 1_555
O7_2 N3_2 1_555 1_555
C5_2 C6_2 1_555 1_555
C6_2 C7_2 1_555 1_555
C10_2 C11_2 1_555 1_555
C11_2 C12_2 1_555 1_555
Tb1_3 O1_3 1_555 1_555
O1_3 C1_3 1_555 1_555
O2_3 C1_3 1_555 1_555
O3_3 C12_3 1_555 1_555
O4_3 Tb1_3 1_555 1_555
O5_3 Tb1_3 1_555 1_555
O6_3 N3_3 1_555 1_555
O7_3 Tb1_3 1_555 1_555
N1_3 Tb1_3 1_555 1_555
N2_3 Tb1_3 1_555 1_555
N3_3 O5_3 1_555 1_555
C1_3 C2_3 1_555 1_555
C2_3 N1_3 1_555 1_555
C3_3 C2_3 1_555 1_555
H1_3 C3_3 1_555 1_555
C4_3 C3_3 1_555 1_555
H2_3 C4_3 1_555 1_555
C5_3 C4_3 1_555 1_555
H3_3 C5_3 1_555 1_555
C6_3 N1_3 1_555 1_555
C7_3 N2_3 1_555 1_555
C8_3 C7_3 1_555 1_555
H4_3 C8_3 1_555 1_555
C9_3 C8_3 1_555 1_555
C10_3 C9_3 1_555 1_555
C11_3 N2_3 1_555 1_555
C12_3 O4_3 1_555 1_555
Tb3_3 O2_3 1_555 1_555
O8_3 Tb1_3 1_555 1_555
O9_3 Tb1_3 1_555 1_555
O7_3 N3_3 1_555 1_555
C5_3 C6_3 1_555 1_555
C6_3 C7_3 1_555 1_555
C10_3 C11_3 1_555 1_555
C11_3 C12_3 1_555 1_555
Tb1_4 O1_4 1_555 1_555
O3_4 C12_4 1_555 1_555
O4_4 Tb1_4 1_555 1_555
O5_4 Tb1_4 1_555 1_555
O6_4 N3_4 1_555 1_555
O7_4 Tb1_4 1_555 1_555
N3_4 O5_4 1_555 1_555
C12_4 O4_4 1_555 1_555
Tb2_4 O3_4 1_555 1_555
O8_4 Tb1_4 1_555 1_555
O7_4 N3_4 1_555 1_555
C11_4 C12_4 1_555 1_555
O2_4 C1_4 1_555 1_555
C1_4 C2_4 1_555 1_555
C2_4 N1_4 1_555 1_555
C3_4 C2_4 1_555 1_555
H1_4 C3_4 1_555 1_555
C4_4 C3_4 1_555 1_555
H2_4 C4_4 1_555 1_555
C5_4 C4_4 1_555 1_555
H3_4 C5_4 1_555 1_555
C6_4 N1_4 1_555 1_555
C7_4 N2_4 1_555 1_555
C8_4 C7_4 1_555 1_555
H4_4 C8_4 1_555 1_555
C9_4 C8_4 1_555 1_555
H5_4 C9_4 1_555 1_555
C10_4 C9_4 1_555 1_555
H6_4 C10_4 1_555 1_555
Tb3_4 O2_4 1_555 1_555
C5_4 C6_4 1_555 1_555
C6_4 C7_4 1_555 1_555
Tb1_5 O1_5 1_555 1_555
O1_5 C1_5 1_555 1_555
O2_5 C1_5 1_555 1_555
O3_5 C12_5 1_555 1_555
O4_5 Tb1_5 1_555 1_555
O5_5 Tb1_5 1_555 1_555
O6_5 N3_5 1_555 1_555
O7_5 Tb1_5 1_555 1_555
N1_5 Tb1_5 1_555 1_555
N2_5 Tb1_5 1_555 1_555
N3_5 O5_5 1_555 1_555
C1_5 C2_5 1_555 1_555
C2_5 N1_5 1_555 1_555
C3_5 C2_5 1_555 1_555
H1_5 C3_5 1_555 1_555
C4_5 C3_5 1_555 1_555
H2_5 C4_5 1_555 1_555
C5_5 C4_5 1_555 1_555
H3_5 C5_5 1_555 1_555
C6_5 N1_5 1_555 1_555
C7_5 N2_5 1_555 1_555
C8_5 C7_5 1_555 1_555
H4_5 C8_5 1_555 1_555
C9_5 C8_5 1_555 1_555
H5_5 C9_5 1_555 1_555
C10_5 C9_5 1_555 1_555
H6_5 C10_5 1_555 1_555
C11_5 N2_5 1_555 1_555
C12_5 O4_5 1_555 1_555
Tb2_5 O3_5 1_555 1_555
Tb3_5 O2_5 1_555 1_555
O8_5 Tb1_5 1_555 1_555
O9_5 Tb1_5 1_555 1_555
O7_5 N3_5 1_555 1_555
C5_5 C6_5 1_555 1_555
C6_5 C7_5 1_555 1_555
C10_5 C11_5 1_555 1_555
C11_5 C12_5 1_555 1_555
Tb1_6 O1_6 1_555 1_555
O1_6 C1_6 1_555 1_555
O2_6 C1_6 1_555 1_555
O3_6 C12_6 1_555 1_555
O4_6 Tb1_6 1_555 1_555
O5_6 Tb1_6 1_555 1_555
O6_6 N3_6 1_555 1_555
O7_6 Tb1_6 1_555 1_555
N1_6 Tb1_6 1_555 1_555
N2_6 Tb1_6 1_555 1_555
N3_6 O5_6 1_555 1_555
C1_6 C2_6 1_555 1_555
C2_6 N1_6 1_555 1_555
C3_6 C2_6 1_555 1_555
H1_6 C3_6 1_555 1_555
C4_6 C3_6 1_555 1_555
H2_6 C4_6 1_555 1_555
C5_6 C4_6 1_555 1_555
H3_6 C5_6 1_555 1_555
C6_6 N1_6 1_555 1_555
C7_6 N2_6 1_555 1_555
C8_6 C7_6 1_555 1_555
H4_6 C8_6 1_555 1_555
C9_6 C8_6 1_555 1_555
C10_6 C9_6 1_555 1_555
C11_6 N2_6 1_555 1_555
C12_6 O4_6 1_555 1_555
Tb3_6 O2_6 1_555 1_555
O8_6 Tb1_6 1_555 1_555
O9_6 Tb1_6 1_555 1_555
O7_6 N3_6 1_555 1_555
C5_6 C6_6 1_555 1_555
C6_6 C7_6 1_555 1_555
C10_6 C11_6 1_555 1_555
C11_6 C12_6 1_555 1_555
Tb1_7 O1_7 1_555 1_555
O3_7 C12_7 1_555 1_555
O4_7 Tb1_7 1_555 1_555
O5_7 Tb1_7 1_555 1_555
O6_7 N3_7 1_555 1_555
O7_7 Tb1_7 1_555 1_555
N3_7 O5_7 1_555 1_555
C12_7 O4_7 1_555 1_555
Tb2_7 O3_7 1_555 1_555
O8_7 Tb1_7 1_555 1_555
O7_7 N3_7 1_555 1_555
C11_7 C12_7 1_555 1_555
O2_7 C1_7 1_555 1_555
C1_7 C2_7 1_555 1_555
C2_7 N1_7 1_555 1_555
C3_7 C2_7 1_555 1_555
H1_7 C3_7 1_555 1_555
C4_7 C3_7 1_555 1_555
H2_7 C4_7 1_555 1_555
C5_7 C4_7 1_555 1_555
H3_7 C5_7 1_555 1_555
C6_7 N1_7 1_555 1_555
C7_7 N2_7 1_555 1_555
C8_7 C7_7 1_555 1_555
H4_7 C8_7 1_555 1_555
C9_7 C8_7 1_555 1_555
H5_7 C9_7 1_555 1_555
C10_7 C9_7 1_555 1_555
H6_7 C10_7 1_555 1_555
Tb3_7 O2_7 1_555 1_555
C5_7 C6_7 1_555 1_555
C6_7 C7_7 1_555 1_555
Tb1_8 O1_8 1_555 1_555
O1_8 C1_8 1_555 1_555
O2_8 C1_8 1_555 1_555
O3_8 C12_8 1_555 1_555
O4_8 Tb1_8 1_555 1_555
O5_8 Tb1_8 1_555 1_555
O6_8 N3_8 1_555 1_555
O7_8 Tb1_8 1_555 1_555
N1_8 Tb1_8 1_555 1_555
N2_8 Tb1_8 1_555 1_555
N3_8 O5_8 1_555 1_555
C1_8 C2_8 1_555 1_555
C2_8 N1_8 1_555 1_555
C3_8 C2_8 1_555 1_555
H1_8 C3_8 1_555 1_555
C4_8 C3_8 1_555 1_555
H2_8 C4_8 1_555 1_555
C5_8 C4_8 1_555 1_555
H3_8 C5_8 1_555 1_555
C6_8 N1_8 1_555 1_555
C7_8 N2_8 1_555 1_555
C8_8 C7_8 1_555 1_555
H4_8 C8_8 1_555 1_555
C9_8 C8_8 1_555 1_555
H5_8 C9_8 1_555 1_555
C10_8 C9_8 1_555 1_555
H6_8 C10_8 1_555 1_555
C11_8 N2_8 1_555 1_555
C12_8 O4_8 1_555 1_555
Tb2_8 O3_8 1_555 1_555
Tb3_8 O2_8 1_555 1_555
O8_8 Tb1_8 1_555 1_555
O9_8 Tb1_8 1_555 1_555
O7_8 N3_8 1_555 1_555
C5_8 C6_8 1_555 1_555
C6_8 C7_8 1_555 1_555
C10_8 C11_8 1_555 1_555
C11_8 C12_8 1_555 1_555
Tb1_9 O1_9 1_555 1_555
O1_9 C1_9 1_555 1_555
O2_9 C1_9 1_555 1_555
O3_9 C12_9 1_555 1_555
O4_9 Tb1_9 1_555 1_555
O5_9 Tb1_9 1_555 1_555
O6_9 N3_9 1_555 1_555
O7_9 Tb1_9 1_555 1_555
N1_9 Tb1_9 1_555 1_555
N2_9 Tb1_9 1_555 1_555
N3_9 O5_9 1_555 1_555
C1_9 C2_9 1_555 1_555
C2_9 N1_9 1_555 1_555
C3_9 C2_9 1_555 1_555
H1_9 C3_9 1_555 1_555
C4_9 C3_9 1_555 1_555
H2_9 C4_9 1_555 1_555
C5_9 C4_9 1_555 1_555
H3_9 C5_9 1_555 1_555
C6_9 N1_9 1_555 1_555
C7_9 N2_9 1_555 1_555
C8_9 C7_9 1_555 1_555
H4_9 C8_9 1_555 1_555
C9_9 C8_9 1_555 1_555
C10_9 C9_9 1_555 1_555
C11_9 N2_9 1_555 1_555
C12_9 O4_9 1_555 1_555
Tb3_9 O2_9 1_555 1_555
O8_9 Tb1_9 1_555 1_555
O9_9 Tb1_9 1_555 1_555
O7_9 N3_9 1_555 1_555
C5_9 C6_9 1_555 1_555
C6_9 C7_9 1_555 1_555
C10_9 C11_9 1_555 1_555
C11_9 C12_9 1_555 1_555
Tb1_10 O1_10 1_555 1_555
O1_10 C1_10 1_555 1_555
O2_10 C1_10 1_555 1_555
O3_10 C12_10 1_555 1_555
O4_10 Tb1_10 1_555 1_555
O5_10 Tb1_10 1_555 1_555
O6_10 N3_10 1_555 1_555
O7_10 Tb1_10 1_555 1_555
N1_10 Tb1_10 1_555 1_555
N2_10 Tb1_10 1_555 1_555
N3_10 O5_10 1_555 1_555
C1_10 C2_10 1_555 1_555
C2_10 N1_10 1_555 1_555
C3_10 C2_10 1_555 1_555
H1_10 C3_10 1_555 1_555
C4_10 C3_10 1_555 1_555
H2_10 C4_10 1_555 1_555
C5_10 C4_10 1_555 1_555
H3_10 C5_10 1_555 1_555
C6_10 N1_10 1_555 1_555
C7_10 N2_10 1_555 1_555
C8_10 C7_10 1_555 1_555
H4_10 C8_10 1_555 1_555
C9_10 C8_10 1_555 1_555
H5_10 C9_10 1_555 1_555
C10_10 C9_10 1_555 1_555
H6_10 C10_10 1_555 1_555
C11_10 N2_10 1_555 1_555
C12_10 O4_10 1_555 1_555
Tb3_6 O3_10 1_555 1_555
Tb2_4 O2_10 1_555 1_555
O8_10 Tb1_10 1_555 1_555
O9_10 Tb1_10 1_555 1_555
O7_10 N3_10 1_555 1_555
C5_10 C6_10 1_555 1_555
C6_10 C7_10 1_555 1_555
C10_10 C11_10 1_555 1_555
C11_10 C12_10 1_555 1_555
Tb1_11 O1_11 1_555 1_555
O1_11 C1_11 1_555 1_555
O2_11 C1_11 1_555 1_555
O3_11 C12_11 1_555 1_555
O4_11 Tb1_11 1_555 1_555
O5_11 Tb1_11 1_555 1_555
O6_11 N3_11 1_555 1_555
O7_11 Tb1_11 1_555 1_555
N1_11 Tb1_11 1_555 1_555
N2_11 Tb1_11 1_555 1_555
N3_11 O5_11 1_555 1_555
C1_11 C2_11 1_555 1_555
C2_11 N1_11 1_555 1_555
C3_11 C2_11 1_555 1_555
H1_11 C3_11 1_555 1_555
C4_11 C3_11 1_555 1_555
H2_11 C4_11 1_555 1_555
C5_11 C4_11 1_555 1_555
H3_11 C5_11 1_555 1_555
C6_11 N1_11 1_555 1_555
C7_11 N2_11 1_555 1_555
C8_11 C7_11 1_555 1_555
H4_11 C8_11 1_555 1_555
C9_11 C8_11 1_555 1_555
C10_11 C9_11 1_555 1_555
C11_11 N2_11 1_555 1_555
C12_11 O4_11 1_555 1_555
Tb2_5 O2_11 1_555 1_555
O8_11 Tb1_11 1_555 1_555
O9_11 Tb1_11 1_555 1_555
O7_11 N3_11 1_555 1_555
C5_11 C6_11 1_555 1_555
C6_11 C7_11 1_555 1_555
C10_11 C11_11 1_555 1_555
C11_11 C12_11 1_555 1_555
Tb1_12 O1_12 1_555 1_555
O3_12 C12_12 1_555 1_555
O4_12 Tb1_12 1_555 1_555
O5_12 Tb1_12 1_555 1_555
O6_12 N3_12 1_555 1_555
O7_12 Tb1_12 1_555 1_555
N3_12 O5_12 1_555 1_555
C12_12 O4_12 1_555 1_555
Tb3_5 O3_12 1_555 1_555
O8_12 Tb1_12 1_555 1_555
O7_12 N3_12 1_555 1_555
C11_12 C12_12 1_555 1_555
O2_12 C1_12 1_555 1_555
C1_12 C2_12 1_555 1_555
C2_12 N1_12 1_555 1_555
C3_12 C2_12 1_555 1_555
H1_12 C3_12 1_555 1_555
C4_12 C3_12 1_555 1_555
H2_12 C4_12 1_555 1_555
C5_12 C4_12 1_555 1_555
H3_12 C5_12 1_555 1_555
C6_12 N1_12 1_555 1_555
C7_12 N2_12 1_555 1_555
C8_12 C7_12 1_555 1_555
H4_12 C8_12 1_555 1_555
C9_12 C8_12 1_555 1_555
C10_12 C9_12 1_555 1_555
Tb2_6 O2_12 1_555 1_555
C5_12 C6_12 1_555 1_555
C6_12 C7_12 1_555 1_555
O2_13 C1_13 1_555 1_555
C1_13 C2_13 1_555 1_555
C2_13 N1_13 1_555 1_555
C3_13 C2_13 1_555 1_555
H1_13 C3_13 1_555 1_555
C4_13 C3_13 1_555 1_555
H2_13 C4_13 1_555 1_555
C5_13 C4_13 1_555 1_555
H3_13 C5_13 1_555 1_555
C6_13 N1_13 1_555 1_555
C7_13 N2_13 1_555 1_555
C8_13 C7_13 1_555 1_555
H4_13 C8_13 1_555 1_555
C9_13 C8_13 1_555 1_555
C10_13 C9_13 1_555 1_555
Tb2_3 O2_13 1_555 1_555
C5_13 C6_13 1_555 1_555
C6_13 C7_13 1_555 1_555
Tb1_13 O1_13 1_555 1_555
O3_13 C12_13 1_555 1_555
O4_13 Tb1_13 1_555 1_555
O5_13 Tb1_13 1_555 1_555
O6_13 N3_13 1_555 1_555
O7_13 Tb1_13 1_555 1_555
N3_13 O5_13 1_555 1_555
C12_13 O4_13 1_555 1_555
Tb3_2 O3_13 1_555 1_555
O8_13 Tb1_13 1_555 1_555
O7_13 N3_13 1_555 1_555
C11_13 C12_13 1_555 1_555
Tb1_14 O1_14 1_555 1_555
O1_14 C1_14 1_555 1_555
O2_14 C1_14 1_555 1_555
O3_14 C12_14 1_555 1_555
O4_14 Tb1_14 1_555 1_555
O5_14 Tb1_14 1_555 1_555
O6_14 N3_14 1_555 1_555
O7_14 Tb1_14 1_555 1_555
N1_14 Tb1_14 1_555 1_555
N2_14 Tb1_14 1_555 1_555
N3_14 O5_14 1_555 1_555
C1_14 C2_14 1_555 1_555
C2_14 N1_14 1_555 1_555
C3_14 C2_14 1_555 1_555
H1_14 C3_14 1_555 1_555
C4_14 C3_14 1_555 1_555
H2_14 C4_14 1_555 1_555
C5_14 C4_14 1_555 1_555
H3_14 C5_14 1_555 1_555
C6_14 N1_14 1_555 1_555
C7_14 N2_14 1_555 1_555
C8_14 C7_14 1_555 1_555
H4_14 C8_14 1_555 1_555
C9_14 C8_14 1_555 1_555
C10_14 C9_14 1_555 1_555
C11_14 N2_14 1_555 1_555
C12_14 O4_14 1_555 1_555
Tb2_2 O2_14 1_555 1_555
O8_14 Tb1_14 1_555 1_555
O9_14 Tb1_14 1_555 1_555
O7_14 N3_14 1_555 1_555
C5_14 C6_14 1_555 1_555
C6_14 C7_14 1_555 1_555
C10_14 C11_14 1_555 1_555
C11_14 C12_14 1_555 1_555
Tb1_15 O1_15 1_555 1_555
O1_15 C1_15 1_555 1_555
O2_15 C1_15 1_555 1_555
O3_15 C12_15 1_555 1_555
O4_15 Tb1_15 1_555 1_555
O5_15 Tb1_15 1_555 1_555
O6_15 N3_15 1_555 1_555
O7_15 Tb1_15 1_555 1_555
N1_15 Tb1_15 1_555 1_555
N2_15 Tb1_15 1_555 1_555
N3_15 O5_15 1_555 1_555
C1_15 C2_15 1_555 1_555
C2_15 N1_15 1_555 1_555
C3_15 C2_15 1_555 1_555
H1_15 C3_15 1_555 1_555
C4_15 C3_15 1_555 1_555
H2_15 C4_15 1_555 1_555
C5_15 C4_15 1_555 1_555
H3_15 C5_15 1_555 1_555
C6_15 N1_15 1_555 1_555
C7_15 N2_15 1_555 1_555
C8_15 C7_15 1_555 1_555
H4_15 C8_15 1_555 1_555
C9_15 C8_15 1_555 1_555
H5_11 C9_15 1_555 1_555
C10_15 C9_15 1_555 1_555
H6_11 C10_15 1_555 1_555
C11_15 N2_15 1_555 1_555
C12_15 O4_15 1_555 1_555
Tb3_3 O3_15 1_555 1_555
Tb2 O2_15 1_555 1_555
O8_15 Tb1_15 1_555 1_555
O9_15 Tb1_15 1_555 1_555
O7_15 N3_15 1_555 1_555
C5_15 C6_15 1_555 1_555
C6_15 C7_15 1_555 1_555
C10_15 C11_15 1_555 1_555
C11_15 C12_15 1_555 1_555
Tb1_16 O1_16 1_555 1_555
O3_16 C12_16 1_555 1_555
O4_16 Tb1_16 1_555 1_555
O5_16 Tb1_16 1_555 1_555
O6_16 N3_16 1_555 1_555
O7_16 Tb1_16 1_555 1_555
N3_16 O5_16 1_555 1_555
C12_16 O4_16 1_555 1_555
Tb3_8 O3_16 1_555 1_555
O8_16 Tb1_16 1_555 1_555
O7_16 N3_16 1_555 1_555
C11_16 C12_16 1_555 1_555
O2_16 C1_16 1_555 1_555
C1_16 C2_16 1_555 1_555
C2_16 N1_16 1_555 1_555
C3_16 C2_16 1_555 1_555
H1_16 C3_16 1_555 1_555
C4_16 C3_16 1_555 1_555
H2_16 C4_16 1_555 1_555
C5_16 C4_16 1_555 1_555
H3_16 C5_16 1_555 1_555
C6_16 N1_16 1_555 1_555
C7_16 N2_16 1_555 1_555
C8_16 C7_16 1_555 1_555
H4_16 C8_16 1_555 1_555
C9_16 C8_16 1_555 1_555
C10_16 C9_16 1_555 1_555
Tb2_9 O2_16 1_555 1_555
C5_16 C6_16 1_555 1_555
C6_16 C7_16 1_555 1_555
Tb1_17 O1_17 1_555 1_555
O1_17 C1_17 1_555 1_555
O2_17 C1_17 1_555 1_555
O3_17 C12_17 1_555 1_555
O4_17 Tb1_17 1_555 1_555
O5_17 Tb1_17 1_555 1_555
O6_17 N3_17 1_555 1_555
O7_17 Tb1_17 1_555 1_555
N1_17 Tb1_17 1_555 1_555
N2_17 Tb1_17 1_555 1_555
N3_17 O5_17 1_555 1_555
C1_17 C2_17 1_555 1_555
C2_17 N1_17 1_555 1_555
C3_17 C2_17 1_555 1_555
H1_17 C3_17 1_555 1_555
C4_17 C3_17 1_555 1_555
H2_17 C4_17 1_555 1_555
C5_17 C4_17 1_555 1_555
H3_17 C5_17 1_555 1_555
C6_17 N1_17 1_555 1_555
C7_17 N2_17 1_555 1_555
C8_17 C7_17 1_555 1_555
H4_17 C8_17 1_555 1_555
C9_17 C8_17 1_555 1_555
H5_12 C9_17 1_555 1_555
C10_17 C9_17 1_555 1_555
H6_12 C10_17 1_555 1_555
C11_17 N2_17 1_555 1_555
C12_17 O4_17 1_555 1_555
Tb3_9 O3_17 1_555 1_555
Tb2_7 O2_17 1_555 1_555
O8_17 Tb1_17 1_555 1_555
O9_17 Tb1_17 1_555 1_555
O7_17 N3_17 1_555 1_555
C5_17 C6_17 1_555 1_555
C6_17 C7_17 1_555 1_555
C10_17 C11_17 1_555 1_555
C11_17 C12_17 1_555 1_555
Tb1_18 O1_18 1_555 1_555
O1_18 C1_18 1_555 1_555
O2_18 C1_18 1_555 1_555
O3_18 C12_18 1_555 1_555
O4_18 Tb1_18 1_555 1_555
O5_18 Tb1_18 1_555 1_555
O6_18 N3_18 1_555 1_555
O7_18 Tb1_18 1_555 1_555
N1_18 Tb1_18 1_555 1_555
N2_18 Tb1_18 1_555 1_555
N3_18 O5_18 1_555 1_555
C1_18 C2_18 1_555 1_555
C2_18 N1_18 1_555 1_555
C3_18 C2_18 1_555 1_555
H1_18 C3_18 1_555 1_555
C4_18 C3_18 1_555 1_555
H2_18 C4_18 1_555 1_555
C5_18 C4_18 1_555 1_555
H3_18 C5_18 1_555 1_555
C6_18 N1_18 1_555 1_555
C7_18 N2_18 1_555 1_555
C8_18 C7_18 1_555 1_555
H4_18 C8_18 1_555 1_555
C9_18 C8_18 1_555 1_555
C10_18 C9_18 1_555 1_555
C11_18 N2_18 1_555 1_555
C12_18 O4_18 1_555 1_555
Tb2_8 O2_18 1_555 1_555
O8_18 Tb1_18 1_555 1_555
O9_18 Tb1_18 1_555 1_555
O7_18 N3_18 1_555 1_555
C5_18 C6_18 1_555 1_555
C6_18 C7_18 1_555 1_555
C10_18 C11_18 1_555 1_555
C11_18 C12_18 1_555 1_555
O8_12 C1_19 1_555 1_555
C1_19 C2_19 1_555 1_555
C2_19 N1_19 1_555 1_555
C3_19 C2_19 1_555 1_555
H1_19 C3_19 1_555 1_555
C4_19 C3_19 1_555 1_555
H2_19 C4_19 1_555 1_555
C5_19 C4_19 1_555 1_555
H3_19 C5_19 1_555 1_555
C6_19 N1_19 1_555 1_555
C7_19 N2_19 1_555 1_555
C8_19 C7_19 1_555 1_555
H4_19 C8_19 1_555 1_555
C9_19 C8_19 1_555 1_555
H5_13 C9_19 1_555 1_555
C10_19 C9_19 1_555 1_555
H6_13 C10_19 1_555 1_555
C5_19 C6_19 1_555 1_555
C6_19 C7_19 1_555 1_555
Tb2_6 O1_19 1_555 1_555
O9_8 C12_19 1_555 1_555
O4_19 Tb2_6 1_555 1_555
O5_19 Tb2_6 1_555 1_555
O6_19 N3_19 1_555 1_555
O7_19 Tb2_6 1_555 1_555
N3_19 O5_19 1_555 1_555
C12_19 O4_19 1_555 1_555
O7_19 N3_19 1_555 1_555
C11_19 C12_19 1_555 1_555
Tb2_4 O1_20 1_555 1_555
O1_20 C1_20 1_555 1_555
O8_11 C1_20 1_555 1_555
O9_9 C12_20 1_555 1_555
O4_20 Tb2_4 1_555 1_555
O5_20 Tb2_4 1_555 1_555
O6_20 N3_20 1_555 1_555
O7_20 Tb2_4 1_555 1_555
N1_20 Tb2_4 1_555 1_555
N2_20 Tb2_4 1_555 1_555
N3_20 O5_20 1_555 1_555
C1_20 C2_20 1_555 1_555
C2_20 N1_20 1_555 1_555
C3_20 C2_20 1_555 1_555
H1_20 C3_20 1_555 1_555
C4_20 C3_20 1_555 1_555
H2_20 C4_20 1_555 1_555
C5_20 C4_20 1_555 1_555
H3_20 C5_20 1_555 1_555
C6_20 N1_20 1_555 1_555
C7_20 N2_20 1_555 1_555
C8_20 C7_20 1_555 1_555
H4_20 C8_20 1_555 1_555
C9_20 C8_20 1_555 1_555
H5_14 C9_20 1_555 1_555
C10_20 C9_20 1_555 1_555
H6_14 C10_20 1_555 1_555
C11_20 N2_20 1_555 1_555
C12_20 O4_20 1_555 1_555
O7_20 N3_20 1_555 1_555
C5_20 C6_20 1_555 1_555
C6_20 C7_20 1_555 1_555
C10_20 C11_20 1_555 1_555
C11_20 C12_20 1_555 1_555
Tb2_5 O1_21 1_555 1_555
O1_21 C1_21 1_555 1_555
O8_10 C1_21 1_555 1_555
O9_7 C12_21 1_555 1_555
O4_21 Tb2_5 1_555 1_555
O5_21 Tb2_5 1_555 1_555
O6_21 N3_21 1_555 1_555
O7_21 Tb2_5 1_555 1_555
N1_21 Tb2_5 1_555 1_555
N2_21 Tb2_5 1_555 1_555
N3_21 O5_21 1_555 1_555
C1_21 C2_21 1_555 1_555
C2_21 N1_21 1_555 1_555
C3_21 C2_21 1_555 1_555
H1_21 C3_21 1_555 1_555
C4_21 C3_21 1_555 1_555
H2_21 C4_21 1_555 1_555
C5_21 C4_21 1_555 1_555
H3_21 C5_21 1_555 1_555
C6_21 N1_21 1_555 1_555
C7_21 N2_21 1_555 1_555
C8_21 C7_21 1_555 1_555
H4_21 C8_21 1_555 1_555
C9_21 C8_21 1_555 1_555
C10_21 C9_21 1_555 1_555
C11_21 N2_21 1_555 1_555
C12_21 O4_21 1_555 1_555
O7_21 N3_21 1_555 1_555
C5_21 C6_21 1_555 1_555
C6_21 C7_21 1_555 1_555
C10_21 C11_21 1_555 1_555
C11_21 C12_21 1_555 1_555
O8_16 C1_22 1_555 1_555
C1_22 C2_22 1_555 1_555
C2_22 N1_22 1_555 1_555
C3_22 C2_22 1_555 1_555
H1_22 C3_22 1_555 1_555
C4_22 C3_22 1_555 1_555
H2_22 C4_22 1_555 1_555
C5_22 C4_22 1_555 1_555
H3_22 C5_22 1_555 1_555
C6_22 N1_22 1_555 1_555
C7_22 N2_22 1_555 1_555
C8_22 C7_22 1_555 1_555
H4_22 C8_22 1_555 1_555
C9_22 C8_22 1_555 1_555
H5_16 C9_22 1_555 1_555
C10_22 C9_22 1_555 1_555
H6_16 C10_22 1_555 1_555
C5_22 C6_22 1_555 1_555
C6_22 C7_22 1_555 1_555
Tb2_9 O1_22 1_555 1_555
O9_2 C12_22 1_555 1_555
O4_22 Tb2_9 1_555 1_555
O5_22 Tb2_9 1_555 1_555
O6_22 N3_22 1_555 1_555
O7_22 Tb2_9 1_555 1_555
N3_22 O5_22 1_555 1_555
C12_22 O4_22 1_555 1_555
O7_22 N3_22 1_555 1_555
C11_22 C12_22 1_555 1_555
Tb2_7 O1_23 1_555 1_555
O1_23 C1_23 1_555 1_555
O8_18 C1_23 1_555 1_555
O9_3 C12_23 1_555 1_555
O4_23 Tb2_7 1_555 1_555
O5_23 Tb2_7 1_555 1_555
O6_23 N3_23 1_555 1_555
O7_23 Tb2_7 1_555 1_555
N1_23 Tb2_7 1_555 1_555
N2_23 Tb2_7 1_555 1_555
N3_23 O5_23 1_555 1_555
C1_23 C2_23 1_555 1_555
C2_23 N1_23 1_555 1_555
C3_23 C2_23 1_555 1_555
H1_23 C3_23 1_555 1_555
C4_23 C3_23 1_555 1_555
H2_23 C4_23 1_555 1_555
C5_23 C4_23 1_555 1_555
H3_23 C5_23 1_555 1_555
C6_23 N1_23 1_555 1_555
C7_23 N2_23 1_555 1_555
C8_23 C7_23 1_555 1_555
H4_23 C8_23 1_555 1_555
C9_23 C8_23 1_555 1_555
H5_17 C9_23 1_555 1_555
C10_23 C9_23 1_555 1_555
H6_17 C10_23 1_555 1_555
C11_23 N2_23 1_555 1_555
C12_23 O4_23 1_555 1_555
O7_23 N3_23 1_555 1_555
C5_23 C6_23 1_555 1_555
C6_23 C7_23 1_555 1_555
C10_23 C11_23 1_555 1_555
C11_23 C12_23 1_555 1_555
Tb2_8 O1_24 1_555 1_555
O1_24 C1_24 1_555 1_555
O8_17 C1_24 1_555 1_555
O9 C12_24 1_555 1_555
O4_24 Tb2_8 1_555 1_555
O5_24 Tb2_8 1_555 1_555
O6_24 N3_24 1_555 1_555
O7_24 Tb2_8 1_555 1_555
N1_24 Tb2_8 1_555 1_555
N2_24 Tb2_8 1_555 1_555
N3_24 O5_24 1_555 1_555
C1_24 C2_24 1_555 1_555
C2_24 N1_24 1_555 1_555
C3_24 C2_24 1_555 1_555
H1_24 C3_24 1_555 1_555
C4_24 C3_24 1_555 1_555
H2_24 C4_24 1_555 1_555
C5_24 C4_24 1_555 1_555
H3_24 C5_24 1_555 1_555
C6_24 N1_24 1_555 1_555
C7_24 N2_24 1_555 1_555
C8_24 C7_24 1_555 1_555
H4_24 C8_24 1_555 1_555
C9_24 C8_24 1_555 1_555
C10_24 C9_24 1_555 1_555
C11_24 N2_24 1_555 1_555
C12_24 O4_24 1_555 1_555
O7_24 N3_24 1_555 1_555
C5_24 C6_24 1_555 1_555
C6_24 C7_24 1_555 1_555
C10_24 C11_24 1_555 1_555
C11_24 C12_24 1_555 1_555
O8_13 C1_25 1_555 1_555
C1_25 C2_25 1_555 1_555
C2_25 N1_25 1_555 1_555
C3_25 C2_25 1_555 1_555
H1_25 C3_25 1_555 1_555
C4_25 C3_25 1_555 1_555
H2_25 C4_25 1_555 1_555
C5_25 C4_25 1_555 1_555
H3_25 C5_25 1_555 1_555
C6_25 N1_25 1_555 1_555
C7_25 N2_25 1_555 1_555
C8_25 C7_25 1_555 1_555
H4_25 C8_25 1_555 1_555
C9_25 C8_25 1_555 1_555
H5_19 C9_25 1_555 1_555
C10_25 C9_25 1_555 1_555
H6_19 C10_25 1_555 1_555
C5_25 C6_25 1_555 1_555
C6_25 C7_25 1_555 1_555
Tb2_3 O1_25 1_555 1_555
O9_5 C12_25 1_555 1_555
O4_25 Tb2_3 1_555 1_555
O5_25 Tb2_3 1_555 1_555
O6_25 N3_25 1_555 1_555
O7_25 Tb2_3 1_555 1_555
N3_25 O5_25 1_555 1_555
C12_25 O4_25 1_555 1_555
O7_25 N3_25 1_555 1_555
C11_25 C12_25 1_555 1_555
Tb2 O1_26 1_555 1_555
O1_26 C1_26 1_555 1_555
O8_14 C1_26 1_555 1_555
O9_6 C12_26 1_555 1_555
O4_26 Tb2 1_555 1_555
O5_26 Tb2 1_555 1_555
O6_26 N3_26 1_555 1_555
O7_26 Tb2 1_555 1_555
N1_26 Tb2 1_555 1_555
N2_26 Tb2 1_555 1_555
N3_26 O5_26 1_555 1_555
C1_26 C2_26 1_555 1_555
C2_26 N1_26 1_555 1_555
C3_26 C2_26 1_555 1_555
H1_26 C3_26 1_555 1_555
C4_26 C3_26 1_555 1_555
H2_26 C4_26 1_555 1_555
C5_26 C4_26 1_555 1_555
H3_26 C5_26 1_555 1_555
C6_26 N1_26 1_555 1_555
C7_26 N2_26 1_555 1_555
C8_26 C7_26 1_555 1_555
H4_26 C8_26 1_555 1_555
C9_26 C8_26 1_555 1_555
H5_20 C9_26 1_555 1_555
C10_26 C9_26 1_555 1_555
H6_20 C10_26 1_555 1_555
C11_26 N2_26 1_555 1_555
C12_26 O4_26 1_555 1_555
O7_26 N3_26 1_555 1_555
C5_26 C6_26 1_555 1_555
C6_26 C7_26 1_555 1_555
C10_26 C11_26 1_555 1_555
C11_26 C12_26 1_555 1_555
Tb2_2 O1_27 1_555 1_555
O1_27 C1_27 1_555 1_555
O8_15 C1_27 1_555 1_555
O9_4 C12_27 1_555 1_555
O4_27 Tb2_2 1_555 1_555
O5_27 Tb2_2 1_555 1_555
O6_27 N3_27 1_555 1_555
O7_27 Tb2_2 1_555 1_555
N1_27 Tb2_2 1_555 1_555
N2_27 Tb2_2 1_555 1_555
N3_27 O5_27 1_555 1_555
C1_27 C2_27 1_555 1_555
C2_27 N1_27 1_555 1_555
C3_27 C2_27 1_555 1_555
H1_27 C3_27 1_555 1_555
C4_27 C3_27 1_555 1_555
H2_27 C4_27 1_555 1_555
C5_27 C4_27 1_555 1_555
H3_27 C5_27 1_555 1_555
C6_27 N1_27 1_555 1_555
C7_27 N2_27 1_555 1_555
C8_27 C7_27 1_555 1_555
H4_27 C8_27 1_555 1_555
C9_27 C8_27 1_555 1_555
C10_27 C9_27 1_555 1_555
C11_27 N2_27 1_555 1_555
C12_27 O4_27 1_555 1_555
O7_27 N3_27 1_555 1_555
C5_27 C6_27 1_555 1_555
C6_27 C7_27 1_555 1_555
C10_27 C11_27 1_555 1_555
C11_27 C12_27 1_555 1_555
Tb3_3 O1_28 1_555 1_555
O1_28 C1_28 1_555 1_555
O8_2 C1_28 1_555 1_555
O9_17 C12_28 1_555 1_555
O4_28 Tb3_3 1_555 1_555
O5_28 Tb3_3 1_555 1_555
O6_28 N3_28 1_555 1_555
O7_28 Tb3_3 1_555 1_555
N1_28 Tb3_3 1_555 1_555
N2_28 Tb3_3 1_555 1_555
N3_28 O5_28 1_555 1_555
C1_28 C2_28 1_555 1_555
C2_28 N1_28 1_555 1_555
C3_28 C2_28 1_555 1_555
H1_28 C3_28 1_555 1_555
C4_28 C3_28 1_555 1_555
H2_28 C4_28 1_555 1_555
C5_28 C4_28 1_555 1_555
H3_28 C5_28 1_555 1_555
C6_28 N1_28 1_555 1_555
C7_28 N2_28 1_555 1_555
C8_28 C7_28 1_555 1_555
H4_28 C8_28 1_555 1_555
C9_28 C8_28 1_555 1_555
H5_22 C9_28 1_555 1_555
C10_28 C9_28 1_555 1_555
H6_22 C10_28 1_555 1_555
C11_28 N2_28 1_555 1_555
C12_28 O4_28 1_555 1_555
O7_28 N3_28 1_555 1_555
C5_28 C6_28 1_555 1_555
C6_28 C7_28 1_555 1_555
C10_28 C11_28 1_555 1_555
C11_28 C12_28 1_555 1_555
Tb3_2 O1_29 1_555 1_555
O1_29 C1_29 1_555 1_555
O8_3 C1_29 1_555 1_555
O9_16 C12_29 1_555 1_555
O4_29 Tb3_2 1_555 1_555
O5_29 Tb3_2 1_555 1_555
O6_29 N3_29 1_555 1_555
O7_29 Tb3_2 1_555 1_555
N1_29 Tb3_2 1_555 1_555
N2_29 Tb3_2 1_555 1_555
N3_29 O5_29 1_555 1_555
C1_29 C2_29 1_555 1_555
C2_29 N1_29 1_555 1_555
C3_29 C2_29 1_555 1_555
H1_29 C3_29 1_555 1_555
C4_29 C3_29 1_555 1_555
H2_29 C4_29 1_555 1_555
C5_29 C4_29 1_555 1_555
H3_29 C5_29 1_555 1_555
C6_29 N1_29 1_555 1_555
C7_29 N2_29 1_555 1_555
C8_29 C7_29 1_555 1_555
H4_29 C8_29 1_555 1_555
C9_29 C8_29 1_555 1_555
C10_29 C9_29 1_555 1_555
C11_29 N2_29 1_555 1_555
C12_29 O4_29 1_555 1_555
O7_29 N3_29 1_555 1_555
C5_29 C6_29 1_555 1_555
C6_29 C7_29 1_555 1_555
C10_29 C11_29 1_555 1_555
C11_29 C12_29 1_555 1_555
Tb3 O1_30 1_555 1_555
O9_18 C12_30 1_555 1_555
O4_30 Tb3 1_555 1_555
O5_30 Tb3 1_555 1_555
O6_30 N3_30 1_555 1_555
O7_30 Tb3 1_555 1_555
N3_30 O5_30 1_555 1_555
C12_30 O4_30 1_555 1_555
O7_30 N3_30 1_555 1_555
C11_30 C12_30 1_555 1_555
O8 C1_30 1_555 1_555
C1_30 C2_30 1_555 1_555
C2_30 N1_30 1_555 1_555
C3_30 C2_30 1_555 1_555
H1_30 C3_30 1_555 1_555
C4_30 C3_30 1_555 1_555
H2_30 C4_30 1_555 1_555
C5_30 C4_30 1_555 1_555
H3_30 C5_30 1_555 1_555
C6_30 N1_30 1_555 1_555
C7_30 N2_30 1_555 1_555
C8_30 C7_30 1_555 1_555
H4_30 C8_30 1_555 1_555
C9_30 C8_30 1_555 1_555
C10_30 C9_30 1_555 1_555
C5_30 C6_30 1_555 1_555
C6_30 C7_30 1_555 1_555
O8_7 C1_31 1_555 1_555
C1_31 C2_31 1_555 1_555
C2_31 N1_31 1_555 1_555
C3_31 C2_31 1_555 1_555
H1_31 C3_31 1_555 1_555
C4_31 C3_31 1_555 1_555
H2_31 C4_31 1_555 1_555
C5_31 C4_31 1_555 1_555
H3_31 C5_31 1_555 1_555
C6_31 N1_31 1_555 1_555
C7_31 N2_31 1_555 1_555
C8_31 C7_31 1_555 1_555
H4_31 C8_31 1_555 1_555
C9_31 C8_31 1_555 1_555
C10_31 C9_31 1_555 1_555
C5_31 C6_31 1_555 1_555
C6_31 C7_31 1_555 1_555
Tb3_7 O1_31 1_555 1_555
O9_11 C12_31 1_555 1_555
O4_31 Tb3_7 1_555 1_555
O5_31 Tb3_7 1_555 1_555
O6_31 N3_31 1_555 1_555
O7_31 Tb3_7 1_555 1_555
N3_31 O5_31 1_555 1_555
C12_31 O4_31 1_555 1_555
O7_31 N3_31 1_555 1_555
C11_31 C12_31 1_555 1_555
Tb3_8 O1_32 1_555 1_555
O1_32 C1_32 1_555 1_555
O8_9 C1_32 1_555 1_555
O9_12 C12_32 1_555 1_555
O4_32 Tb3_8 1_555 1_555
O5_32 Tb3_8 1_555 1_555
O6_32 N3_32 1_555 1_555
O7_32 Tb3_8 1_555 1_555
N1_32 Tb3_8 1_555 1_555
N2_32 Tb3_8 1_555 1_555
N3_32 O5_32 1_555 1_555
C1_32 C2_32 1_555 1_555
C2_32 N1_32 1_555 1_555
C3_32 C2_32 1_555 1_555
H1_32 C3_32 1_555 1_555
C4_32 C3_32 1_555 1_555
H2_32 C4_32 1_555 1_555
C5_32 C4_32 1_555 1_555
H3_32 C5_32 1_555 1_555
C6_32 N1_32 1_555 1_555
C7_32 N2_32 1_555 1_555
C8_32 C7_32 1_555 1_555
H4_32 C8_32 1_555 1_555
C9_32 C8_32 1_555 1_555
C10_32 C9_32 1_555 1_555
C11_32 N2_32 1_555 1_555
C12_32 O4_32 1_555 1_555
O7_32 N3_32 1_555 1_555
C5_32 C6_32 1_555 1_555
C6_32 C7_32 1_555 1_555
C10_32 C11_32 1_555 1_555
C11_32 C12_32 1_555 1_555
Tb3_9 O1_33 1_555 1_555
O1_33 C1_33 1_555 1_555
O8_8 C1_33 1_555 1_555
O9_10 C12_33 1_555 1_555
O4_33 Tb3_9 1_555 1_555
O5_33 Tb3_9 1_555 1_555
O6_33 N3_33 1_555 1_555
O7_33 Tb3_9 1_555 1_555
N1_33 Tb3_9 1_555 1_555
N2_33 Tb3_9 1_555 1_555
N3_33 O5_33 1_555 1_555
C1_33 C2_33 1_555 1_555
C2_33 N1_33 1_555 1_555
C3_33 C2_33 1_555 1_555
H1_33 C3_33 1_555 1_555
C4_33 C3_33 1_555 1_555
H2_33 C4_33 1_555 1_555
C5_33 C4_33 1_555 1_555
H3_33 C5_33 1_555 1_555
C6_33 N1_33 1_555 1_555
C7_33 N2_33 1_555 1_555
C8_33 C7_33 1_555 1_555
H4_33 C8_33 1_555 1_555
C9_33 C8_33 1_555 1_555
H5_23 C9_33 1_555 1_555
C10_33 C9_33 1_555 1_555
H6_23 C10_33 1_555 1_555
C11_33 N2_33 1_555 1_555
C12_33 O4_33 1_555 1_555
O7_33 N3_33 1_555 1_555
C5_33 C6_33 1_555 1_555
C6_33 C7_33 1_555 1_555
C10_33 C11_33 1_555 1_555
C11_33 C12_33 1_555 1_555
Tb3_4 O1_34 1_555 1_555
O9_14 C12_34 1_555 1_555
O4_34 Tb3_4 1_555 1_555
O5_34 Tb3_4 1_555 1_555
O6_34 N3_34 1_555 1_555
O7_34 Tb3_4 1_555 1_555
N3_34 O5_34 1_555 1_555
C12_34 O4_34 1_555 1_555
O7_34 N3_34 1_555 1_555
C11_34 C12_34 1_555 1_555
O8_4 C1_34 1_555 1_555
C1_34 C2_34 1_555 1_555
C2_34 N1_34 1_555 1_555
C3_34 C2_34 1_555 1_555
H1_34 C3_34 1_555 1_555
C4_34 C3_34 1_555 1_555
H2_34 C4_34 1_555 1_555
C5_34 C4_34 1_555 1_555
H3_34 C5_34 1_555 1_555
C6_34 N1_34 1_555 1_555
C7_34 N2_34 1_555 1_555
C8_34 C7_34 1_555 1_555
H4_34 C8_34 1_555 1_555
C9_34 C8_34 1_555 1_555
C10_34 C9_34 1_555 1_555
C5_34 C6_34 1_555 1_555
C6_34 C7_34 1_555 1_555
Tb3_6 O1_35 1_555 1_555
O1_35 C1_35 1_555 1_555
O8_5 C1_35 1_555 1_555
O9_15 C12_35 1_555 1_555
O4_35 Tb3_6 1_555 1_555
O5_35 Tb3_6 1_555 1_555
O6_35 N3_35 1_555 1_555
O7_35 Tb3_6 1_555 1_555
N1_35 Tb3_6 1_555 1_555
N2_35 Tb3_6 1_555 1_555
N3_35 O5_35 1_555 1_555
C1_35 C2_35 1_555 1_555
C2_35 N1_35 1_555 1_555
C3_35 C2_35 1_555 1_555
H1_35 C3_35 1_555 1_555
C4_35 C3_35 1_555 1_555
H2_35 C4_35 1_555 1_555
C5_35 C4_35 1_555 1_555
H3_35 C5_35 1_555 1_555
C6_35 N1_35 1_555 1_555
C7_35 N2_35 1_555 1_555
C8_35 C7_35 1_555 1_555
H4_35 C8_35 1_555 1_555
C9_35 C8_35 1_555 1_555
H5_24 C9_35 1_555 1_555
C10_35 C9_35 1_555 1_555
H6_24 C10_35 1_555 1_555
C11_35 N2_35 1_555 1_555
C12_35 O4_35 1_555 1_555
O7_35 N3_35 1_555 1_555
C5_35 C6_35 1_555 1_555
C6_35 C7_35 1_555 1_555
C10_35 C11_35 1_555 1_555
C11_35 C12_35 1_555 1_555
Tb3_5 O1_36 1_555 1_555
O1_36 C1_36 1_555 1_555
O8_6 C1_36 1_555 1_555
O9_13 C12_36 1_555 1_555
O4_36 Tb3_5 1_555 1_555
O5_36 Tb3_5 1_555 1_555
O6_36 N3_36 1_555 1_555
O7_36 Tb3_5 1_555 1_555
N1_36 Tb3_5 1_555 1_555
N2_36 Tb3_5 1_555 1_555
N3_36 O5_36 1_555 1_555
C1_36 C2_36 1_555 1_555
C2_36 N1_36 1_555 1_555
C3_36 C2_36 1_555 1_555
H1_36 C3_36 1_555 1_555
C4_36 C3_36 1_555 1_555
H2_36 C4_36 1_555 1_555
C5_36 C4_36 1_555 1_555
H3_36 C5_36 1_555 1_555
C6_36 N1_36 1_555 1_555
C7_36 N2_36 1_555 1_555
C8_36 C7_36 1_555 1_555
H4_36 C8_36 1_555 1_555
C9_36 C8_36 1_555 1_555
C10_36 C9_36 1_555 1_555
C11_36 N2_36 1_555 1_555
C12_36 O4_36 1_555 1_555
O7_36 N3_36 1_555 1_555
C5_36 C6_36 1_555 1_555
C6_36 C7_36 1_555 1_555
C10_36 C11_36 1_555 1_555
C11_36 C12_36 1_555 1_555
Tb1_19 O1_37 1_555 1_555
O3_19 C12_37 1_555 1_555
O4_37 Tb1_19 1_555 1_555
O5_37 Tb1_19 1_555 1_555
O6_37 N3_37 1_555 1_555
O7_37 Tb1_19 1_555 1_555
N3_37 O5_37 1_555 1_555
C12_37 O4_37 1_555 1_555
O8_19 Tb1_19 1_555 1_555
O7_37 N3_37 1_555 1_555
C11_37 C12_37 1_555 1_555
Tb1_20 O1_38 1_555 1_555
O3_20 C12_38 1_555 1_555
O4_38 Tb1_20 1_555 1_555
O5_38 Tb1_20 1_555 1_555
O6_38 N3_38 1_555 1_555
O7_38 Tb1_20 1_555 1_555
N3_38 O5_38 1_555 1_555
C12_38 O4_38 1_555 1_555
O8_20 Tb1_20 1_555 1_555
O7_38 N3_38 1_555 1_555
C11_38 C12_38 1_555 1_555
O8_20 C1_37 1_555 1_555
C1_37 C2_37 1_555 1_555
C2_37 N1_37 1_555 1_555
C3_37 C2_37 1_555 1_555
H1_37 C3_37 1_555 1_555
C4_37 C3_37 1_555 1_555
H2_37 C4_37 1_555 1_555
C5_37 C4_37 1_555 1_555
H3_37 C5_37 1_555 1_555
C6_37 N1_37 1_555 1_555
C7_37 N2_37 1_555 1_555
C8_37 C7_37 1_555 1_555
H4_37 C8_37 1_555 1_555
C9_37 C8_37 1_555 1_555
C10_37 C9_37 1_555 1_555
C5_37 C6_37 1_555 1_555
C6_37 C7_37 1_555 1_555
O8_19 C1_38 1_555 1_555
C1_38 C2_38 1_555 1_555
C2_38 N1_38 1_555 1_555
C3_38 C2_38 1_555 1_555
H1_38 C3_38 1_555 1_555
C4_38 C3_38 1_555 1_555
H2_38 C4_38 1_555 1_555
C5_38 C4_38 1_555 1_555
H3_38 C5_38 1_555 1_555
C6_38 N1_38 1_555 1_555
C7_38 N2_38 1_555 1_555
C8_38 C7_38 1_555 1_555
H4_38 C8_38 1_555 1_555
C9_38 C8_38 1_555 1_555
H5_25 C9_38 1_555 1_555
C10_38 C9_38 1_555 1_555
H6_25 C10_38 1_555 1_555
C5_38 C6_38 1_555 1_555
C6_38 C7_38 1_555 1_555
O2_19 C1_39 1_555 1_555
C1_39 C2_39 1_555 1_555
C2_39 N1_39 1_555 1_555
C3_39 C2_39 1_555 1_555
H1_39 C3_39 1_555 1_555
C4_39 C3_39 1_555 1_555
H2_39 C4_39 1_555 1_555
C5_39 C4_39 1_555 1_555
H3_39 C5_39 1_555 1_555
C6_39 N1_39 1_555 1_555
C7_39 N2_39 1_555 1_555
C8_39 C7_39 1_555 1_555
H4_39 C8_39 1_555 1_555
C9_39 C8_39 1_555 1_555
C10_39 C9_39 1_555 1_555
Tb3_10 O2_19 1_555 1_555
C5_39 C6_39 1_555 1_555
C6_39 C7_39 1_555 1_555
O2_20 C1_40 1_555 1_555
C1_40 C2_40 1_555 1_555
C2_40 N1_40 1_555 1_555
C3_40 C2_40 1_555 1_555
H1_40 C3_40 1_555 1_555
C4_40 C3_40 1_555 1_555
H2_40 C4_40 1_555 1_555
C5_40 C4_40 1_555 1_555
H3_40 C5_40 1_555 1_555
C6_40 N1_40 1_555 1_555
C7_40 N2_40 1_555 1_555
C8_40 C7_40 1_555 1_555
H4_40 C8_40 1_555 1_555
C9_40 C8_40 1_555 1_555
H5_28 C9_40 1_555 1_555
C10_40 C9_40 1_555 1_555
H6_28 C10_40 1_555 1_555
Tb2_10 O2_20 1_555 1_555
C5_40 C6_40 1_555 1_555
C6_40 C7_40 1_555 1_555
Tb2_10 O1_39 1_555 1_555
O9_19 C12_39 1_555 1_555
O4_39 Tb2_10 1_555 1_555
O5_39 Tb2_10 1_555 1_555
O6_39 N3_39 1_555 1_555
O7_39 Tb2_10 1_555 1_555
N3_39 O5_39 1_555 1_555
C12_39 O4_39 1_555 1_555
O7_39 N3_39 1_555 1_555
C11_39 C12_39 1_555 1_555
Tb3_10 O1_40 1_555 1_555
O9_20 C12_40 1_555 1_555
O4_40 Tb3_10 1_555 1_555
O5_40 Tb3_10 1_555 1_555
O6_40 N3_40 1_555 1_555
O7_40 Tb3_10 1_555 1_555
N3_40 O5_40 1_555 1_555
C12_40 O4_40 1_555 1_555
O7_40 N3_40 1_555 1_555
C11_40 C12_40 1_555 1_555
O2_21 C1_41 1_555 1_555
C1_41 C2_41 1_555 1_555
C2_41 N1_41 1_555 1_555
C3_41 C2_41 1_555 1_555
H1_41 C3_41 1_555 1_555
C4_41 C3_41 1_555 1_555
H2_41 C4_41 1_555 1_555
C5_41 C4_41 1_555 1_555
H3_41 C5_41 1_555 1_555
C6_41 N1_41 1_555 1_555
C7_41 N2_41 1_555 1_555
C8_41 C7_41 1_555 1_555
H4_41 C8_41 1_555 1_555
C9_41 C8_41 1_555 1_555
C10_41 C9_41 1_555 1_555
Tb3_11 O2_21 1_555 1_555
C5_41 C6_41 1_555 1_555
C6_41 C7_41 1_555 1_555
O2_22 C1_42 1_555 1_555
C1_42 C2_42 1_555 1_555
C2_42 N1_42 1_555 1_555
C3_42 C2_42 1_555 1_555
H1_42 C3_42 1_555 1_555
C4_42 C3_42 1_555 1_555
H2_42 C4_42 1_555 1_555
C5_42 C4_42 1_555 1_555
H3_42 C5_42 1_555 1_555
C6_42 N1_42 1_555 1_555
C7_42 N2_42 1_555 1_555
C8_42 C7_42 1_555 1_555
H4_42 C8_42 1_555 1_555
C9_42 C8_42 1_555 1_555
H5_30 C9_42 1_555 1_555
C10_42 C9_42 1_555 1_555
H6_30 C10_42 1_555 1_555
Tb2_11 O2_22 1_555 1_555
C5_42 C6_42 1_555 1_555
C6_42 C7_42 1_555 1_555
Tb2_11 O1_41 1_555 1_555
O9_21 C12_41 1_555 1_555
O4_41 Tb2_11 1_555 1_555
O5_41 Tb2_11 1_555 1_555
O6_41 N3_41 1_555 1_555
O7_41 Tb2_11 1_555 1_555
N3_41 O5_41 1_555 1_555
C12_41 O4_41 1_555 1_555
O7_41 N3_41 1_555 1_555
C11_41 C12_41 1_555 1_555
Tb3_11 O1_42 1_555 1_555
O9_22 C12_42 1_555 1_555
O4_42 Tb3_11 1_555 1_555
O5_42 Tb3_11 1_555 1_555
O6_42 N3_42 1_555 1_555
O7_42 Tb3_11 1_555 1_555
N3_42 O5_42 1_555 1_555
C12_42 O4_42 1_555 1_555
O7_42 N3_42 1_555 1_555
C11_42 C12_42 1_555 1_555
Tb1_21 O1_43 1_555 1_555
O3_21 C12_43 1_555 1_555
O4_43 Tb1_21 1_555 1_555
O5_43 Tb1_21 1_555 1_555
O6_43 N3_43 1_555 1_555
O7_43 Tb1_21 1_555 1_555
N3_43 O5_43 1_555 1_555
C12_43 O4_43 1_555 1_555
O8_21 Tb1_21 1_555 1_555
O7_43 N3_43 1_555 1_555
C11_43 C12_43 1_555 1_555
Tb1_22 O1_44 1_555 1_555
O3_22 C12_44 1_555 1_555
O4_44 Tb1_22 1_555 1_555
O5_44 Tb1_22 1_555 1_555
O6_44 N3_44 1_555 1_555
O7_44 Tb1_22 1_555 1_555
N3_44 O5_44 1_555 1_555
C12_44 O4_44 1_555 1_555
O8_22 Tb1_22 1_555 1_555
O7_44 N3_44 1_555 1_555
C11_44 C12_44 1_555 1_555
O8_22 C1_43 1_555 1_555
C1_43 C2_43 1_555 1_555
C2_43 N1_43 1_555 1_555
C3_43 C2_43 1_555 1_555
H1_43 C3_43 1_555 1_555
C4_43 C3_43 1_555 1_555
H2_43 C4_43 1_555 1_555
C5_43 C4_43 1_555 1_555
H3_43 C5_43 1_555 1_555
C6_43 N1_43 1_555 1_555
C7_43 N2_43 1_555 1_555
C8_43 C7_43 1_555 1_555
H4_43 C8_43 1_555 1_555
C9_43 C8_43 1_555 1_555
C10_43 C9_43 1_555 1_555
C5_43 C6_43 1_555 1_555
C6_43 C7_43 1_555 1_555
O8_21 C1_44 1_555 1_555
C1_44 C2_44 1_555 1_555
C2_44 N1_44 1_555 1_555
C3_44 C2_44 1_555 1_555
H1_44 C3_44 1_555 1_555
C4_44 C3_44 1_555 1_555
H2_44 C4_44 1_555 1_555
C5_44 C4_44 1_555 1_555
H3_44 C5_44 1_555 1_555
C6_44 N1_44 1_555 1_555
C7_44 N2_44 1_555 1_555
C8_44 C7_44 1_555 1_555
H4_44 C8_44 1_555 1_555
C9_44 C8_44 1_555 1_555
H5_33 C9_44 1_555 1_555
C10_44 C9_44 1_555 1_555
H6_33 C10_44 1_555 1_555
C5_44 C6_44 1_555 1_555
C6_44 C7_44 1_555 1_555
O2_23 C1_45 1_555 1_555
C1_45 C2_45 1_555 1_555
C2_45 N1_45 1_555 1_555
C3_45 C2_45 1_555 1_555
H1_45 C3_45 1_555 1_555
C4_45 C3_45 1_555 1_555
H2_45 C4_45 1_555 1_555
C5_45 C4_45 1_555 1_555
H3_45 C5_45 1_555 1_555
C6_45 N1_45 1_555 1_555
C7_45 N2_45 1_555 1_555
C8_45 C7_45 1_555 1_555
H4_45 C8_45 1_555 1_555
C9_45 C8_45 1_555 1_555
C10_45 C9_45 1_555 1_555
Tb3_12 O2_23 1_555 1_555
C5_45 C6_45 1_555 1_555
C6_45 C7_45 1_555 1_555
O2_24 C1_46 1_555 1_555
C1_46 C2_46 1_555 1_555
C2_46 N1_46 1_555 1_555
C3_46 C2_46 1_555 1_555
H1_46 C3_46 1_555 1_555
C4_46 C3_46 1_555 1_555
H2_46 C4_46 1_555 1_555
C5_46 C4_46 1_555 1_555
H3_46 C5_46 1_555 1_555
C6_46 N1_46 1_555 1_555
C7_46 N2_46 1_555 1_555
C8_46 C7_46 1_555 1_555
H4_46 C8_46 1_555 1_555
C9_46 C8_46 1_555 1_555
H5_34 C9_46 1_555 1_555
C10_46 C9_46 1_555 1_555
H6_34 C10_46 1_555 1_555
Tb2_12 O2_24 1_555 1_555
C5_46 C6_46 1_555 1_555
C6_46 C7_46 1_555 1_555
Tb2_12 O1_45 1_555 1_555
O9_23 C12_45 1_555 1_555
O4_45 Tb2_12 1_555 1_555
O5_45 Tb2_12 1_555 1_555
O6_45 N3_45 1_555 1_555
O7_45 Tb2_12 1_555 1_555
N3_45 O5_45 1_555 1_555
C12_45 O4_45 1_555 1_555
O7_45 N3_45 1_555 1_555
C11_45 C12_45 1_555 1_555
Tb3_12 O1_46 1_555 1_555
O9_24 C12_46 1_555 1_555
O4_46 Tb3_12 1_555 1_555
O5_46 Tb3_12 1_555 1_555
O6_46 N3_46 1_555 1_555
O7_46 Tb3_12 1_555 1_555
N3_46 O5_46 1_555 1_555
C12_46 O4_46 1_555 1_555
O7_46 N3_46 1_555 1_555
C11_46 C12_46 1_555 1_555
Tb1_23 O1_47 1_555 1_555
O3_23 C12_47 1_555 1_555
O4_47 Tb1_23 1_555 1_555
O5_47 Tb1_23 1_555 1_555
O6_47 N3_47 1_555 1_555
O7_47 Tb1_23 1_555 1_555
N3_47 O5_47 1_555 1_555
C12_47 O4_47 1_555 1_555
O8_23 Tb1_23 1_555 1_555
O7_47 N3_47 1_555 1_555
C11_47 C12_47 1_555 1_555
Tb1_24 O1_48 1_555 1_555
O3_24 C12_48 1_555 1_555
O4_48 Tb1_24 1_555 1_555
O5_48 Tb1_24 1_555 1_555
O6_48 N3_48 1_555 1_555
O7_48 Tb1_24 1_555 1_555
N3_48 O5_48 1_555 1_555
C12_48 O4_48 1_555 1_555
O8_24 Tb1_24 1_555 1_555
O7_48 N3_48 1_555 1_555
C11_48 C12_48 1_555 1_555
O8_24 C1_47 1_555 1_555
C1_47 C2_47 1_555 1_555
C2_47 N1_47 1_555 1_555
C3_47 C2_47 1_555 1_555
H1_47 C3_47 1_555 1_555
C4_47 C3_47 1_555 1_555
H2_47 C4_47 1_555 1_555
C5_47 C4_47 1_555 1_555
H3_47 C5_47 1_555 1_555
C6_47 N1_47 1_555 1_555
C7_47 N2_47 1_555 1_555
C8_47 C7_47 1_555 1_555
H4_47 C8_47 1_555 1_555
C9_47 C8_47 1_555 1_555
C10_47 C9_47 1_555 1_555
C5_47 C6_47 1_555 1_555
C6_47 C7_47 1_555 1_555
O8_23 C1_48 1_555 1_555
C1_48 C2_48 1_555 1_555
C2_48 N1_48 1_555 1_555
C3_48 C2_48 1_555 1_555
H1_48 C3_48 1_555 1_555
C4_48 C3_48 1_555 1_555
H2_48 C4_48 1_555 1_555
C5_48 C4_48 1_555 1_555
H3_48 C5_48 1_555 1_555
C6_48 N1_48 1_555 1_555
C7_48 N2_48 1_555 1_555
C8_48 C7_48 1_555 1_555
H4_48 C8_48 1_555 1_555
C9_48 C8_48 1_555 1_555
H5_38 C9_48 1_555 1_555
C10_48 C9_48 1_555 1_555
H6_38 C10_48 1_555 1_555
C5_48 C6_48 1_555 1_555
C6_48 C7_48 1_555 1_555

#END
