
###############################################################################
#
# This file contains modified crystal structure data generated from the
# MOF subset of the Cambridge Structural Database (CSD) v543 
# hosted by the Cambridge Crystallographic Data Centre (CCDC).
#
# This work is licensed under the Creative Commons
# Attribution-NonCommercial-ShareAlike 4.0 International License.
# To view a copy of this license, visit
# http://creativecommons.org/licenses/by-nc-sa/4.0/
# or send a letter to
# Creative Commons, PO Box 1866, Mountain View, CA 94042, USA.
#
# CIF created using the CSD Python API on 29 September 2022
# The structure has been converted into the P1 space group
# The structure has a 3D framework
# The original CSD entry TUYLEF is in the triclinic crystal system
# The framework has been calculated to contain at least 10.0% void space
# The void calculation uses a probe of radius 1.32A, grid spacing 0.4
#
###############################################################################

data_TUYLEF
_chemical_formula_moiety         '(C22 H26 N2 O29 P2 Yb4)n'
_symmetry_cell_setting           triclinic
_symmetry_space_group_name_H-M   'P 1'
_symmetry_Int_Tables_number      1
_space_group_name_Hall           'P 1'
loop_
_symmetry_equiv_pos_site_id
_symmetry_equiv_pos_as_xyz
1 x,y,z
_cell_length_a                   9.6967(6)
_cell_length_b                   10.4415(7)
_cell_length_c                   11.1027(7)
_cell_angle_alpha                95.090(3)
_cell_angle_beta                 92.821(4)
_cell_angle_gamma                107.231(3)
_cell_volume                     1066.07
loop_
_atom_site_label
_atom_site_type_symbol
_atom_site_fract_x
_atom_site_fract_y
_atom_site_fract_z
_atom_site_U_iso_or_equiv
_atom_site_thermal_displace_type
O12 O 0.5782(6) 0.0554(6) 0.3694(5) 0.0191 Uani
O13 O 0.6740(6) 0.0852(6) 0.5606(5) 0.0193 Uani
C11 C 0.5723(8) 0.0408(7) 0.4796(7) 0.0118 Uani
O20 O 0.5225(6) 0.1045(6) 0.1354(5) 0.0205 Uani
C13 C 0.5266(8) 0.0731(8) 0.0238(8) 0.0173 Uani
Yb9 Yb 0.62269(4) 0.06312(3) 0.76142(3) 0.0129 Uani
O35 O 0.2973(6) 0.1209(6) 0.2974(5) 0.0220 Uani
O19 O 0.5697(6) 0.1544(6) 0.9465(5) 0.0189 Uani
Yb1 Yb 0.18007(4) 0.38661(3) 0.05492(3) 0.0135 Uani
Yb2 Yb 0.37731(4) 0.93688(3) 0.23858(3) 0.0129 Uani
P1 P 0.0655(2) 0.6386(2) 0.20855(19) 0.0132 Uani
O1 O 0.0905(6) 0.5031(6) 0.1911(6) 0.0222 Uani
O2 O 0.2015(6) 0.7517(6) 0.2132(5) 0.0221 Uani
O4 O 0.1771(6) 0.1611(6) 0.0057(5) 0.0226 Uani
O5 O 0.2436(7) 0.2944(6) 0.2253(6) 0.0250 Uani
O10 O 0.4303(6) 0.8456(6) 0.0535(5) 0.0189 Uani
O16 O 0.5058(7) 0.7834(6) 0.2859(6) 0.0269 Uani
H5 H 0.4594 0.7053 0.2527 0.0400 Uiso
H6 H 0.5885 0.8080 0.2589 0.0400 Uiso
H12 H 0.0741 0.6633 0.4168 0.0280 Uiso
C7 C 0.2538(9) 0.1775(9) 0.2149(8) 0.0176 Uani
C8 C 0.2138(8) 0.1015(8) 0.0872(8) 0.0173 Uani
O17 O 0.6439(6) 0.6175(6) 0.0855(5) 0.0221 Uani
O18 O 0.4152(6) 0.5284(6) 0.1306(5) 0.0209 Uani
C12 C 0.5163(9) 0.5413(8) 0.0623(8) 0.0163 Uani
O21 O 0.4218(6) 0.9446(6) 0.6306(5) 0.0191 Uani
O22 O 0.3260(6) 0.9148(6) 0.4394(5) 0.0193 Uani
C14 C 0.4277(8) 0.9592(7) 0.5204(7) 0.0118 Uani
O33 O 0.2192(6) 0.9821(6) 0.0792(6) 0.0251 Uani
O8 O 0.3561(6) 0.3825(6) 0.9145(5) 0.0221 Uani
O9 O 0.5848(6) 0.4716(6) 0.8694(5) 0.0209 Uani
O11 O 0.4775(6) 0.8955(6) 0.8646(5) 0.0205 Uani
O15 O 0.2329(6) 0.6001(6) 0.9646(5) 0.0207 Uani
H3 H 0.1582 0.6294 0.9452 0.0310 Uiso
H4 H 0.3132 0.6616 0.9994 0.0310 Uiso
C9 C 0.4837(9) 0.4587(8) 0.9377(8) 0.0163 Uani
C10 C 0.4734(8) 0.9269(8) 0.9762(8) 0.0173 Uani
O25 O 0.0504(6) 0.3492(6) 0.8821(5) 0.0233 Uani
O30 O 0.0563(6) 0.7560(6) 0.9063(6) 0.0243 Uani
H14 H 0.0440 0.7963 0.8463 0.0360 Uiso
H15 H 0.1133 0.8191 0.9623 0.0360 Uiso
N2 N 0.2400(8) 0.5121(8) 0.7026(7) 0.0316 Uani
H20 H 0.1933 0.5079 0.7809 0.0380 Uiso
C15 C 0.3632(10) 0.5973(10) 0.6825(10) 0.0365 Uani
H21 H 0.4266 0.6475 0.7471 0.0440 Uiso
C16 C 0.3979(11) 0.6121(10) 0.5675(10) 0.0355 Uani
H22 H 0.4869 0.6713 0.5535 0.0430 Uiso
C17 C 0.3083(11) 0.5442(10) 0.4741(9) 0.0345 Uani
H23 H 0.3334 0.5553 0.3950 0.0420 Uiso
C18 C 0.1758(11) 0.4561(11) 0.4966(9) 0.0369 Uani
H24 H 0.1101 0.4101 0.4318 0.0450 Uiso
C19 C 0.1406(9) 0.4360(9) 0.6132(8) 0.0202 Uani
C20 C 0.0013(9) 0.3373(9) 0.6442(8) 0.0236 Uani
H26 H 0.0136 0.2482 0.6357 0.0280 Uiso
Yb5 Yb 0.81993(4) 0.61339(3) 0.94508(3) 0.0135 Uani
O28 O 0.7808(6) 0.0179(6) 0.9208(6) 0.0251 Uani
O3 O 0.9496(6) 0.6508(6) 0.1179(5) 0.0233 Uani
O14 O 0.9437(6) 0.2440(6) 0.0937(6) 0.0243 Uani
H1 H 0.9560 0.2037 0.1537 0.0360 Uiso
H2 H 0.8867 0.1809 0.0377 0.0360 Uiso
N1 N 0.7600(8) 0.4879(8) 0.2974(7) 0.0316 Uani
H7 H 0.8067 0.4921 0.2191 0.0380 Uiso
C1 C 0.6368(10) 0.4027(10) 0.3175(10) 0.0365 Uani
H8 H 0.5734 0.3525 0.2529 0.0440 Uiso
C2 C 0.6021(11) 0.3879(10) 0.4325(10) 0.0355 Uani
H9 H 0.5131 0.3287 0.4465 0.0430 Uiso
C3 C 0.6917(11) 0.4558(10) 0.5259(9) 0.0345 Uani
H10 H 0.6666 0.4447 0.6050 0.0420 Uiso
C4 C 0.8242(11) 0.5439(11) 0.5034(9) 0.0369 Uani
H11 H 0.8899 0.5899 0.5682 0.0450 Uiso
C5 C 0.8594(9) 0.5640(9) 0.3868(8) 0.0202 Uani
C6 C 0.9987(9) 0.6627(9) 0.3558(8) 0.0236 Uani
H13 H 0.9864 0.7518 0.3643 0.0280 Uiso
O31 O 0.7671(6) 0.3999(6) 0.0354(5) 0.0207 Uani
H16 H 0.8418 0.3706 0.0548 0.0310 Uiso
H17 H 0.6868 0.3384 0.0006 0.0310 Uiso
P2 P 0.9345(2) 0.3614(2) 0.79145(19) 0.0132 Uani
O23 O 0.9095(6) 0.4969(6) 0.8089(6) 0.0222 Uani
O24 O 0.7985(6) 0.2483(6) 0.7868(5) 0.0221 Uani
O26 O 0.8229(6) 0.8389(6) 0.9943(5) 0.0226 Uani
O27 O 0.7564(7) 0.7056(6) 0.7747(6) 0.0250 Uani
O29 O 0.7027(6) 0.8791(6) 0.7026(5) 0.0220 Uani
O32 O 0.4942(7) 0.2166(6) 0.7141(6) 0.0269 Uani
H18 H 0.5406 0.2947 0.7473 0.0400 Uiso
H19 H 0.4115 0.1920 0.7411 0.0400 Uiso
H25 H 0.9259 0.3367 0.5832 0.0280 Uiso
C21 C 0.7462(9) 0.8225(9) 0.7851(8) 0.0176 Uani
C22 C 0.7862(8) 0.8985(8) 0.9128(8) 0.0173 Uani
loop_
_atom_site_aniso_label
_atom_site_aniso_U_11
_atom_site_aniso_U_22
_atom_site_aniso_U_33
_atom_site_aniso_U_23
_atom_site_aniso_U_13
_atom_site_aniso_U_12
O12 0.02 0.018 0.014 0.003 0.003 -0.003
O13 0.018 0.025 0.011 0.001 0 0.001
C11 0.017 0.007 0.01 -0.001 0.002 0.002
O20 0.025 0.018 0.012 -0.002 0.006 -0.003
C13 0.008 0.017 0.025 0.002 0.008 0
Yb9 0.0148 0.0122 0.0104 0.00152 0.00074 0.00208
O35 0.029 0.02 0.019 0.004 0 0.01
O19 0.025 0.017 0.015 0.006 0.011 0.004
Yb1 0.013 0.0133 0.0148 0.00111 0.00111 0.00517
Yb2 0.0148 0.0122 0.0104 0.00152 0.00074 0.00208
P1 0.0135 0.013 0.0121 0.0007 0.0013 0.0028
O1 0.025 0.017 0.026 0.003 0.01 0.007
O2 0.021 0.016 0.023 0.001 0.005 -0.004
O4 0.03 0.019 0.019 0.009 -0.006 0.007
O5 0.034 0.022 0.021 0.001 -0.004 0.013
O10 0.025 0.017 0.015 0.006 0.011 0.004
O16 0.033 0.025 0.024 -0.003 -0.001 0.013
C7 0.014 0.025 0.013 0.001 0.002 0.005
C8 0.011 0.019 0.018 -0.005 -0.002 0.001
O17 0.014 0.027 0.024 -0.003 0.001 0.006
O18 0.014 0.025 0.023 -0.001 0.007 0.005
C12 0.015 0.01 0.024 0.003 -0.002 0.004
O21 0.02 0.018 0.014 0.003 0.003 -0.003
O22 0.018 0.025 0.011 0.001 0 0.001
C14 0.017 0.007 0.01 -0.001 0.002 0.002
O33 0.026 0.02 0.029 -0.001 -0.008 0.009
O8 0.014 0.027 0.024 -0.003 0.001 0.006
O9 0.014 0.025 0.023 -0.001 0.007 0.005
O11 0.025 0.018 0.012 -0.002 0.006 -0.003
O15 0.019 0.022 0.021 0.004 -0.001 0.006
C9 0.015 0.01 0.024 0.003 -0.002 0.004
C10 0.008 0.017 0.025 0.002 0.008 0
O25 0.02 0.032 0.018 0.008 -0.001 0.007
O30 0.016 0.018 0.033 0 -0.005 -0.002
N2 0.018 0.049 0.021 0.002 0.01 -0.001
C15 0.02 0.035 0.042 -0.005 0.001 -0.008
C16 0.032 0.021 0.047 0.003 0.018 -0.004
C17 0.044 0.033 0.024 0.007 0.019 0.004
C18 0.046 0.042 0.019 -0.007 0.007 0.01
C19 0.019 0.024 0.017 0.001 0.001 0.006
C20 0.025 0.027 0.018 0.001 0.007 0.006
Yb5 0.013 0.0133 0.0148 0.00111 0.00111 0.00517
O28 0.026 0.02 0.029 -0.001 -0.008 0.009
O3 0.02 0.032 0.018 0.008 -0.001 0.007
O14 0.016 0.018 0.033 0 -0.005 -0.002
N1 0.018 0.049 0.021 0.002 0.01 -0.001
C1 0.02 0.035 0.042 -0.005 0.001 -0.008
C2 0.032 0.021 0.047 0.003 0.018 -0.004
C3 0.044 0.033 0.024 0.007 0.019 0.004
C4 0.046 0.042 0.019 -0.007 0.007 0.01
C5 0.019 0.024 0.017 0.001 0.001 0.006
C6 0.025 0.027 0.018 0.001 0.007 0.006
O31 0.019 0.022 0.021 0.004 -0.001 0.006
P2 0.0135 0.013 0.0121 0.0007 0.0013 0.0028
O23 0.025 0.017 0.026 0.003 0.01 0.007
O24 0.021 0.016 0.023 0.001 0.005 -0.004
O26 0.03 0.019 0.019 0.009 -0.006 0.007
O27 0.034 0.022 0.021 0.001 -0.004 0.013
O29 0.029 0.02 0.019 0.004 0 0.01
O32 0.033 0.025 0.024 -0.003 -0.001 0.013
C21 0.014 0.025 0.013 0.001 0.002 0.005
C22 0.011 0.019 0.018 -0.005 -0.002 0.001
loop_
_geom_bond_atom_site_label_1
_geom_bond_atom_site_label_2
_geom_bond_site_symmetry_1
_geom_bond_site_symmetry_2
O13 C11 1_555 1_555
C11 O12 1_555 1_555
Yb9 O13 1_555 1_555
O20 C13 1_555 1_555
O19 Yb9 1_555 1_555
Yb1 O1 1_555 1_555
Yb2 O2 1_555 1_555
P1 O1 1_555 1_555
O2 P1 1_555 1_555
O4 Yb1 1_555 1_555
O5 Yb1 1_555 1_555
O35 C7 1_555 1_555
O10 Yb2 1_555 1_555
O16 Yb2 1_555 1_555
H5 O16 1_555 1_555
H6 O16 1_555 1_555
C7 O5 1_555 1_555
C8 O4 1_555 1_555
O17 C12 1_555 1_555
O18 Yb1 1_555 1_555
O21 C14 1_555 1_555
O22 Yb2 1_555 1_555
O33 Yb2 1_555 1_555
C7 C8 1_555 1_555
O18 C12 1_555 1_555
O22 C14 1_555 1_555
O9 C9 1_555 1_555
O11 C10 1_555 1_555
H3 O15 1_555 1_555
H4 O15 1_555 1_555
C9 O8 1_555 1_555
H14 O30 1_555 1_555
H15 O30 1_555 1_555
N2 H20 1_555 1_555
C15 N2 1_555 1_555
H21 C15 1_555 1_555
C16 C15 1_555 1_555
H22 C16 1_555 1_555
C17 C16 1_555 1_555
H23 C17 1_555 1_555
C18 C17 1_555 1_555
H24 C18 1_555 1_555
C19 N2 1_555 1_555
H26 C20 1_555 1_555
Yb5 O9 1_555 1_555
C18 C19 1_555 1_555
C19 C20 1_555 1_555
Yb9 O28 1_555 1_555
H1 O14 1_555 1_555
H2 O14 1_555 1_555
N1 H7 1_555 1_555
C1 N1 1_555 1_555
H8 C1 1_555 1_555
C2 C1 1_555 1_555
H9 C2 1_555 1_555
C3 C2 1_555 1_555
H10 C3 1_555 1_555
C4 C3 1_555 1_555
H11 C4 1_555 1_555
C5 N1 1_555 1_555
H13 C6 1_555 1_555
H16 O31 1_555 1_555
H17 O31 1_555 1_555
C4 C5 1_555 1_555
C5 C6 1_555 1_555
Yb9 O24 1_555 1_555
P2 O23 1_555 1_555
O23 Yb5 1_555 1_555
O24 P2 1_555 1_555
O26 Yb5 1_555 1_555
O27 Yb5 1_555 1_555
O29 C21 1_555 1_555
O32 Yb9 1_555 1_555
H18 O32 1_555 1_555
H19 O32 1_555 1_555
C21 O27 1_555 1_555
C22 O26 1_555 1_555
C21 C22 1_555 1_555

#END
