
###############################################################################
#
# This file contains modified crystal structure data generated from the
# MOF subset of the Cambridge Structural Database (CSD) v543 
# hosted by the Cambridge Crystallographic Data Centre (CCDC).
#
# This work is licensed under the Creative Commons
# Attribution-NonCommercial-ShareAlike 4.0 International License.
# To view a copy of this license, visit
# http://creativecommons.org/licenses/by-nc-sa/4.0/
# or send a letter to
# Creative Commons, PO Box 1866, Mountain View, CA 94042, USA.
#
# CIF created using the CSD Python API on 29 September 2022
# The structure has been converted into the P1 space group
# The structure has a 3D framework
# The original CSD entry TUZVUI is in the orthorhombic crystal system
# The framework has been calculated to contain at least 10.0% void space
# The void calculation uses a probe of radius 1.32A, grid spacing 0.4
#
###############################################################################

data_TUZVUI
_chemical_formula_moiety         '(C192 H112 N16 O32 S32 Zn8)n'
_symmetry_cell_setting           triclinic
_symmetry_space_group_name_H-M   'P 1'
_symmetry_Int_Tables_number      1
_space_group_name_Hall           'P 1'
loop_
_symmetry_equiv_pos_site_id
_symmetry_equiv_pos_as_xyz
1 x,y,z
_cell_length_a                   17.9642(7)
_cell_length_b                   18.9843(7)
_cell_length_c                   17.5158(7)
_cell_angle_alpha                90
_cell_angle_beta                 90
_cell_angle_gamma                90
_cell_volume                     5973.55
loop_
_atom_site_label
_atom_site_type_symbol
_atom_site_fract_x
_atom_site_fract_y
_atom_site_fract_z
S1 S 0.33425(16) 0.22785(12) 0.50913(16)
S2 S 0.23176(18) 0.29624(13) 0.61842(19)
S3 S 0.38657(17) 0.38018(12) 0.44745(16)
S4 S 0.28584(17) 0.44938(12) 0.55784(18)
S5 S 0.24703(19) 0.34045(12) 0.28067(19)
S6 S 0.15543(17) 0.27189(12) 0.40041(16)
S7 S 0.19260(19) 0.49339(13) 0.34182(18)
S8 S 0.10060(17) 0.42394(12) 0.46057(18)
N3 N 0.3258(4) 0.7260(4) 0.5309(5)
N4 N 0.1702(4) 0.7703(4) 0.3822(5)
C1 C 0.2815(6) 0.1726(4) 0.5689(5)
C2 C 0.2363(5) 0.2059(4) 0.6192(6)
H1 H 0.207460 0.179509 0.654602
C3 C 0.2993(6) 0.3069(4) 0.5460(7)
C4 C 0.3213(6) 0.3688(6) 0.5198(7)
C5 C 0.3428(5) 0.5036(5) 0.5026(5)
C6 C 0.3895(6) 0.4721(5) 0.4515(6)
H2 H 0.421964 0.498798 0.419870
C8 C 0.3394(6) 0.0667(5) 0.5101(6)
H4 H 0.366154 0.096160 0.475899
C9 C 0.2916(5) 0.0970(4) 0.5644(5)
C10 C 0.2555(5) 0.0508(4) 0.6132(5)
H5 H 0.223798 0.068107 0.652326
C12 C 0.2755(5) 0.6822(5) 0.5637(6)
H7 H 0.236455 0.701686 0.593625
C13 C 0.2795(6) 0.6094(4) 0.5545(6)
H8 H 0.242916 0.580013 0.577295
C14 C 0.3372(5) 0.5794(5) 0.5120(6)
C15 C 0.3877(5) 0.6248(5) 0.4788(6)
H9 H 0.427067 0.607429 0.447800
C16 C 0.3794(5) 0.6970(4) 0.4919(6)
H10 H 0.415877 0.727478 0.470594
C17 C 0.2123(5) 0.2180(4) 0.3432(5)
C18 C 0.2524(6) 0.2496(5) 0.2890(6)
H11 H 0.283262 0.222893 0.255741
C19 C 0.1865(7) 0.3510(5) 0.3595(7)
C20 C 0.1639(7) 0.4137(5) 0.3832(7)
C21 C 0.1455(6) 0.5475(5) 0.4080(6)
C22 C 0.1066(6) 0.5146(5) 0.4608(6)
H12 H 0.081693 0.540903 0.499182
C23 C 0.2385(5) 0.0245(4) 0.3185(5)
C24 C 0.2477(6) 0.0946(4) 0.3083(5)
H14 H 0.280394 0.112102 0.270079
C25 C 0.2077(5) 0.1409(4) 0.3555(5)
C26 C 0.1639(7) 0.1126(5) 0.4108(6)
H15 H 0.136999 0.142568 0.444333
C27 C 0.1585(6) 0.0394(5) 0.4184(6)
H16 H 0.127917 0.020448 0.457524
C28 C 0.1128(5) 0.7424(4) 0.4257(5)
H17 H 0.078926 0.773260 0.450571
C29 C 0.1042(6) 0.6703(5) 0.4333(6)
H18 H 0.063774 0.651841 0.461965
C30 C 0.1553(6) 0.6245(5) 0.3988(5)
C31 C 0.2117(5) 0.6525(5) 0.3578(6)
H19 H 0.248063 0.623043 0.334625
C32 C 0.2156(6) 0.7263(4) 0.3500(6)
H20 H 0.254240 0.745079 0.319066
Zn3 Zn 0.31960(5) 0.83799(5) 0.54244(5)
Zn5 Zn 0.17934(5) 0.88377(5) 0.37610(5)
O1 O 0.2108(3) 0.8276(3) 0.5670(4)
O2 O 0.1457(4) 0.8949(3) 0.4860(4)
O5 O 0.3599(4) 0.8452(3) 0.4349(4)
O6 O 0.2855(4) 0.8728(4) 0.3406(4)
O7 O 0.5682(4) 0.8416(3) 0.0802(4)
O8 O 0.6520(4) 0.8337(3) 0.1705(4)
N1 N 0.1949(4) 0.9955(4) 0.3725(5)
N2 N 0.3104(4) 0.9504(4) 0.5518(4)
C7 C 0.3480(6) 0.9947(5) 0.5059(6)
H3 H 0.381604 0.975755 0.469435
C11 C 0.2664(5) 0.9789(4) 0.6042(5)
H6 H 0.240558 0.948018 0.637694
H13 H 0.264657 0.993626 0.285266
C33 C 0.0921(5) 0.8698(4) 0.6052(5)
C34 C 0.0227(5) 0.8969(5) 0.5831(5)
H21 H 0.014807 0.912183 0.532118
C37 C 0.0480(5) 0.8565(6) 0.7333(6)
H23 H 0.057038 0.844303 0.785101
C38 C 0.1035(5) 0.8489(5) 0.6791(5)
H24 H 0.149985 0.829004 0.693314
C39 C 0.1547(4) 0.8639(4) 0.5478(5)
C41 C 0.4096(5) 0.8524(4) 0.3132(5)
C42 C 0.4815(5) 0.8375(5) 0.3369(6)
H25 H 0.491406 0.830674 0.389693
C43 C 0.5392(5) 0.8324(5) 0.2848(5)
H26 H 0.587950 0.820854 0.301602
C44 C 0.5256(5) 0.8442(5) 0.2078(6)
C45 C 0.4529(6) 0.8590(6) 0.1829(6)
H27 H 0.442879 0.866029 0.130147
C46 C 0.3969(5) 0.8631(6) 0.2353(5)
H28 H 0.347825 0.873500 0.218437
C47 C 0.3472(4) 0.8581(4) 0.3676(5)
C48 C 0.5856(5) 0.8390(4) 0.1495(5)
Zn4 Zn 0.68040(5) 0.83799(5) 0.04244(5)
O9 O 0.0669(4) 0.8860(3) 0.3395(4)
O10 O 0.1499(4) 0.8843(3) 0.2467(4)
O11 O 0.4318(4) 0.8416(3) 0.5802(4)
O12 O 0.3480(4) 0.8337(3) 0.6705(4)
O3 O 0.9331(4) 0.8860(3) 0.8395(4)
O4 O 0.8501(4) 0.8843(3) 0.7467(4)
C35 C 0.9665(5) 0.9011(5) 0.6354(5)
H22 H 0.918776 0.917066 0.619766
C36 C 0.9782(5) 0.8826(4) 0.7107(5)
C40 C 0.9174(6) 0.8844(4) 0.7682(5)
Zn6 Zn 0.82066(5) 0.88377(5) 0.87610(5)
C35_2 C 0.0335(5) 0.9011(5) 0.1354(5)
H22_2 H 0.081224 0.917066 0.119766
C36_2 C 0.0218(5) 0.8826(4) 0.2107(5)
C40_2 C 0.0826(6) 0.8844(4) 0.2682(5)
S1_2 S 0.66575(16) 0.22785(12) 0.00913(16)
S2_2 S 0.76824(18) 0.29624(13) 0.11842(19)
S4_2 S 0.71416(17) 0.44938(12) 0.05784(18)
N3_2 N 0.6742(4) 0.7260(4) 0.0309(5)
C1_2 C 0.7185(6) 0.1726(4) 0.0689(5)
C2_2 C 0.7637(5) 0.2059(4) 0.1192(6)
H1_2 H 0.792540 0.179509 0.154602
C3_2 C 0.7007(6) 0.3069(4) 0.0460(7)
C4_2 C 0.6787(6) 0.3688(6) 0.0198(7)
C5_2 C 0.6572(5) 0.5036(5) 0.0026(5)
C8_2 C 0.6606(6) 0.0667(5) 0.0101(6)
C9_2 C 0.7084(5) 0.0970(4) 0.0644(5)
C10_2 C 0.7445(5) 0.0508(4) 0.1132(5)
H5_2 H 0.776202 0.068107 0.152326
C12_2 C 0.7245(5) 0.6822(5) 0.0637(6)
H7_2 H 0.763545 0.701686 0.093625
C13_2 C 0.7205(6) 0.6094(4) 0.0545(6)
H8_2 H 0.757084 0.580013 0.077295
C14_2 C 0.6628(5) 0.5794(5) 0.0120(6)
S3_2 S 0.61343(17) 0.38018(12) 0.94745(16)
S5_2 S 0.75297(19) 0.34045(12) 0.78067(19)
S6_2 S 0.84457(17) 0.27189(12) 0.90041(16)
S7_2 S 0.80740(19) 0.49339(13) 0.84182(18)
S8_2 S 0.89940(17) 0.42394(12) 0.96057(18)
N4_2 N 0.8298(4) 0.7703(4) 0.8822(5)
C6_2 C 0.6105(6) 0.4721(5) 0.9515(6)
H2_2 H 0.578036 0.498798 0.919870
H4_2 H 0.633846 0.096160 0.975899
C15_2 C 0.6123(5) 0.6248(5) 0.9788(6)
H9_2 H 0.572933 0.607429 0.947800
C16_2 C 0.6206(5) 0.6970(4) 0.9919(6)
H10_2 H 0.584123 0.727478 0.970594
C17_2 C 0.7877(5) 0.2180(4) 0.8432(5)
C18_2 C 0.7476(6) 0.2496(5) 0.7890(6)
H11_2 H 0.716738 0.222893 0.755741
C19_2 C 0.8135(7) 0.3510(5) 0.8595(7)
C20_2 C 0.8361(7) 0.4137(5) 0.8832(7)
C21_2 C 0.8545(6) 0.5475(5) 0.9080(6)
C22_2 C 0.8934(6) 0.5146(5) 0.9608(6)
H12_2 H 0.918307 0.540903 0.999182
C23_2 C 0.7615(5) 0.0245(4) 0.8185(5)
C24_2 C 0.7523(6) 0.0946(4) 0.8083(5)
H14_2 H 0.719606 0.112102 0.770079
C25_2 C 0.7923(5) 0.1409(4) 0.8555(5)
C26_2 C 0.8361(7) 0.1126(5) 0.9108(6)
H15_2 H 0.863001 0.142568 0.944333
C27_2 C 0.8415(6) 0.0394(5) 0.9184(6)
H16_2 H 0.872083 0.020448 0.957524
C28_2 C 0.8872(5) 0.7424(4) 0.9257(5)
H17_2 H 0.921074 0.773260 0.950571
C29_2 C 0.8958(6) 0.6703(5) 0.9333(6)
H18_2 H 0.936226 0.651841 0.961965
C30_2 C 0.8447(6) 0.6245(5) 0.8988(5)
C31_2 C 0.7883(5) 0.6525(5) 0.8578(6)
H19_2 H 0.751937 0.623043 0.834625
C32_2 C 0.7844(6) 0.7263(4) 0.8500(6)
H20_2 H 0.745760 0.745079 0.819066
O1_2 O 0.7892(3) 0.8276(3) 0.0670(4)
N2_2 N 0.6896(4) 0.9504(4) 0.0518(4)
C7_2 C 0.6520(6) 0.9947(5) 0.0059(6)
C11_2 C 0.7336(5) 0.9789(4) 0.1042(5)
H6_2 H 0.759442 0.948018 0.137694
C33_2 C 0.9079(5) 0.8698(4) 0.1052(5)
C34_2 C 0.9773(5) 0.8969(5) 0.0831(5)
H21_2 H 0.985193 0.912183 0.032118
C37_2 C 0.9520(5) 0.8565(6) 0.2333(6)
H23_2 H 0.942962 0.844303 0.285101
C38_2 C 0.8965(5) 0.8489(5) 0.1791(5)
H24_2 H 0.850015 0.829004 0.193314
C39_2 C 0.8453(4) 0.8639(4) 0.0478(5)
O2_2 O 0.8543(4) 0.8949(3) 0.9860(4)
O5_2 O 0.6401(4) 0.8452(3) 0.9349(4)
O6_2 O 0.7145(4) 0.8728(4) 0.8406(4)
N1_2 N 0.8051(4) 0.9955(4) 0.8725(5)
H3_2 H 0.618396 0.975755 0.969435
H13_2 H 0.735343 0.993626 0.785266
C41_2 C 0.5904(5) 0.8524(4) 0.8132(5)
C42_2 C 0.5185(5) 0.8375(5) 0.8369(6)
H25_2 H 0.508594 0.830674 0.889693
C43_2 C 0.4608(5) 0.8324(5) 0.7848(5)
H26_2 H 0.412050 0.820854 0.801602
C44_2 C 0.4744(5) 0.8442(5) 0.7078(6)
C45_2 C 0.5471(6) 0.8590(6) 0.6829(6)
H27_2 H 0.557121 0.866029 0.630147
C46_2 C 0.6031(5) 0.8631(6) 0.7353(5)
H28_2 H 0.652175 0.873500 0.718437
C47_2 C 0.6528(4) 0.8581(4) 0.8676(5)
C48_2 C 0.4144(5) 0.8390(4) 0.6495(5)
O3_2 O 0.0669(4) 0.1140(3) 0.8395(4)
O4_2 O 0.1499(4) 0.1157(3) 0.7467(4)
C35_3 C 0.0335(5) 0.0989(5) 0.6354(5)
H22_3 H 0.081224 0.082934 0.619766
C36_3 C 0.0218(5) 0.1174(4) 0.7107(5)
C40_3 C 0.0826(6) 0.1156(4) 0.7682(5)
Zn6_2 Zn 0.17934(5) 0.11623(5) 0.87610(5)
Zn1 Zn 0.68040(5) 0.16201(5) 0.54244(5)
Zn2 Zn 0.82066(5) 0.11623(5) 0.37610(5)
O1_3 O 0.7892(3) 0.1724(3) 0.5670(4)
O2_3 O 0.8543(4) 0.1051(3) 0.4860(4)
O5_3 O 0.6401(4) 0.1548(3) 0.4349(4)
O6_3 O 0.7145(4) 0.1272(4) 0.3406(4)
O7_2 O 0.4318(4) 0.1584(3) 0.0802(4)
O8_2 O 0.3480(4) 0.1663(3) 0.1705(4)
N1_3 N 0.8051(4) 0.0045(4) 0.3725(5)
N2_3 N 0.6896(4) 0.0496(4) 0.5518(4)
C7_3 C 0.6520(6) 0.0053(5) 0.5059(6)
H3_3 H 0.618396 0.024245 0.469435
C11_3 C 0.7336(5) 0.0211(4) 0.6042(5)
H6_3 H 0.759442 0.051982 0.637694
H13_3 H 0.735343 0.006374 0.285266
C33_3 C 0.9079(5) 0.1302(4) 0.6052(5)
C34_3 C 0.9773(5) 0.1031(5) 0.5831(5)
H21_3 H 0.985193 0.087817 0.532118
C37_3 C 0.9520(5) 0.1435(6) 0.7333(6)
H23_3 H 0.942962 0.155697 0.785101
C38_3 C 0.8965(5) 0.1511(5) 0.6791(5)
H24_3 H 0.850015 0.170996 0.693314
C39_3 C 0.8453(4) 0.1361(4) 0.5478(5)
C41_3 C 0.5904(5) 0.1476(4) 0.3132(5)
C42_3 C 0.5185(5) 0.1625(5) 0.3369(6)
H25_3 H 0.508594 0.169326 0.389693
C43_3 C 0.4608(5) 0.1676(5) 0.2848(5)
H26_3 H 0.412050 0.179146 0.301602
C44_3 C 0.4744(5) 0.1558(5) 0.2078(6)
C45_3 C 0.5471(6) 0.1410(6) 0.1829(6)
H27_3 H 0.557121 0.133971 0.130147
C46_3 C 0.6031(5) 0.1369(6) 0.2353(5)
H28_3 H 0.652175 0.126500 0.218437
C47_3 C 0.6528(4) 0.1419(4) 0.3676(5)
C48_3 C 0.4144(5) 0.1610(4) 0.1495(5)
Zn4_2 Zn 0.31960(5) 0.16201(5) 0.04244(5)
O9_2 O 0.9331(4) 0.1140(3) 0.3395(4)
O10_2 O 0.8501(4) 0.1157(3) 0.2467(4)
O11_2 O 0.5682(4) 0.1584(3) 0.5802(4)
O12_2 O 0.6520(4) 0.1663(3) 0.6705(4)
N5 N 0.6742(4) 0.2740(4) 0.5309(5)
N6 N 0.8298(4) 0.2297(4) 0.3822(5)
S1_3 S 0.66575(16) 0.77215(12) 0.50913(16)
S2_3 S 0.76824(18) 0.70376(13) 0.61842(19)
S3_3 S 0.61343(17) 0.61982(12) 0.44745(16)
S4_3 S 0.71416(17) 0.55062(12) 0.55784(18)
S5_3 S 0.75297(19) 0.65955(12) 0.28067(19)
S6_3 S 0.84457(17) 0.72811(12) 0.40041(16)
S7_3 S 0.80740(19) 0.50661(13) 0.34182(18)
S8_3 S 0.89940(17) 0.57606(12) 0.46057(18)
C1_3 C 0.7185(6) 0.8274(4) 0.5689(5)
C2_3 C 0.7637(5) 0.7941(4) 0.6192(6)
H1_3 H 0.792540 0.820491 0.654602
C3_3 C 0.7007(6) 0.6931(4) 0.5460(7)
C4_3 C 0.6787(6) 0.6312(6) 0.5198(7)
C5_3 C 0.6572(5) 0.4964(5) 0.5026(5)
C6_3 C 0.6105(6) 0.5279(5) 0.4515(6)
H2_3 H 0.578036 0.501202 0.419870
C8_3 C 0.6606(6) 0.9333(5) 0.5101(6)
H4_3 H 0.633846 0.903840 0.475899
C9_3 C 0.7084(5) 0.9030(4) 0.5644(5)
C10_3 C 0.7445(5) 0.9492(4) 0.6132(5)
H5_3 H 0.776202 0.931893 0.652326
C12_3 C 0.7245(5) 0.3178(5) 0.5637(6)
H7_3 H 0.763545 0.298314 0.593625
C13_3 C 0.7205(6) 0.3906(4) 0.5545(6)
H8_3 H 0.757084 0.419987 0.577295
C14_3 C 0.6628(5) 0.4206(5) 0.5120(6)
C15_3 C 0.6123(5) 0.3752(5) 0.4788(6)
H9_3 H 0.572933 0.392571 0.447800
C16_3 C 0.6206(5) 0.3030(4) 0.4919(6)
H10_3 H 0.584123 0.272522 0.470594
C17_3 C 0.7877(5) 0.7820(4) 0.3432(5)
C18_3 C 0.7476(6) 0.7504(5) 0.2890(6)
H11_3 H 0.716738 0.777107 0.255741
C19_3 C 0.8135(7) 0.6490(5) 0.3595(7)
C20_3 C 0.8361(7) 0.5863(5) 0.3832(7)
C21_3 C 0.8545(6) 0.4525(5) 0.4080(6)
C22_3 C 0.8934(6) 0.4854(5) 0.4608(6)
H12_3 H 0.918307 0.459097 0.499182
C23_3 C 0.7615(5) 0.9755(4) 0.3185(5)
C24_3 C 0.7523(6) 0.9054(4) 0.3083(5)
H14_3 H 0.719606 0.887898 0.270079
C25_3 C 0.7923(5) 0.8591(4) 0.3555(5)
C26_3 C 0.8361(7) 0.8874(5) 0.4108(6)
H15_3 H 0.863001 0.857432 0.444333
C27_3 C 0.8415(6) 0.9606(5) 0.4184(6)
H16_3 H 0.872083 0.979552 0.457524
C28_3 C 0.8872(5) 0.2576(4) 0.4257(5)
H17_3 H 0.921074 0.226740 0.450571
C29_3 C 0.8958(6) 0.3297(5) 0.4333(6)
H18_3 H 0.936226 0.348159 0.461965
C30_3 C 0.8447(6) 0.3755(5) 0.3988(5)
C31_3 C 0.7883(5) 0.3475(5) 0.3578(6)
H19_3 H 0.751937 0.376957 0.334625
C32_3 C 0.7844(6) 0.2737(4) 0.3500(6)
H20_3 H 0.745760 0.254921 0.319066
O1_4 O 0.2108(3) 0.1724(3) 0.0670(4)
N2_4 N 0.3104(4) 0.0496(4) 0.0518(4)
C7_4 C 0.3480(6) 0.0053(5) 0.0059(6)
C11_4 C 0.2664(5) 0.0211(4) 0.1042(5)
H6_4 H 0.240558 0.051982 0.137694
C33_4 C 0.0921(5) 0.1302(4) 0.1052(5)
C34_4 C 0.0227(5) 0.1031(5) 0.0831(5)
H21_4 H 0.014807 0.087817 0.032118
C37_4 C 0.0480(5) 0.1435(6) 0.2333(6)
H23_4 H 0.057038 0.155697 0.285101
C38_4 C 0.1035(5) 0.1511(5) 0.1791(5)
H24_4 H 0.149985 0.170996 0.193314
C39_4 C 0.1547(4) 0.1361(4) 0.0478(5)
N5_2 N 0.3258(4) 0.2740(4) 0.0309(5)
O2_4 O 0.1457(4) 0.1051(3) 0.9860(4)
O5_4 O 0.3599(4) 0.1548(3) 0.9349(4)
O6_4 O 0.2855(4) 0.1272(4) 0.8406(4)
N1_4 N 0.1949(4) 0.0045(4) 0.8725(5)
H3_4 H 0.381604 0.024245 0.969435
H13_4 H 0.264657 0.006374 0.785266
C41_4 C 0.4096(5) 0.1476(4) 0.8132(5)
C42_4 C 0.4815(5) 0.1625(5) 0.8369(6)
H25_4 H 0.491406 0.169326 0.889693
C43_4 C 0.5392(5) 0.1676(5) 0.7848(5)
H26_4 H 0.587950 0.179146 0.801602
C44_4 C 0.5256(5) 0.1558(5) 0.7078(6)
C45_4 C 0.4529(6) 0.1410(6) 0.6829(6)
H27_4 H 0.442879 0.133971 0.630147
C46_4 C 0.3969(5) 0.1369(6) 0.7353(5)
H28_4 H 0.347825 0.126500 0.718437
C47_4 C 0.3472(4) 0.1419(4) 0.8676(5)
C48_4 C 0.5856(5) 0.1610(4) 0.6495(5)
N6_2 N 0.1702(4) 0.2297(4) 0.8822(5)
S1_4 S 0.33425(16) 0.77215(12) 0.00913(16)
S2_4 S 0.23176(18) 0.70376(13) 0.11842(19)
S4_4 S 0.28584(17) 0.55062(12) 0.05784(18)
C1_4 C 0.2815(6) 0.8274(4) 0.0689(5)
C2_4 C 0.2363(5) 0.7941(4) 0.1192(6)
H1_4 H 0.207460 0.820491 0.154602
C3_4 C 0.2993(6) 0.6931(4) 0.0460(7)
C4_4 C 0.3213(6) 0.6312(6) 0.0198(7)
C5_4 C 0.3428(5) 0.4964(5) 0.0026(5)
C8_4 C 0.3394(6) 0.9333(5) 0.0101(6)
C9_4 C 0.2916(5) 0.9030(4) 0.0644(5)
C10_4 C 0.2555(5) 0.9492(4) 0.1132(5)
H5_4 H 0.223798 0.931893 0.152326
C12_4 C 0.2755(5) 0.3178(5) 0.0637(6)
H7_4 H 0.236455 0.298314 0.093625
C13_4 C 0.2795(6) 0.3906(4) 0.0545(6)
H8_4 H 0.242916 0.419987 0.077295
C14_4 C 0.3372(5) 0.4206(5) 0.0120(6)
S3_4 S 0.38657(17) 0.61982(12) 0.94745(16)
S5_4 S 0.24703(19) 0.65955(12) 0.78067(19)
S6_4 S 0.15543(17) 0.72811(12) 0.90041(16)
S7_4 S 0.19260(19) 0.50661(13) 0.84182(18)
S8_4 S 0.10060(17) 0.57606(12) 0.96057(18)
C6_4 C 0.3895(6) 0.5279(5) 0.9515(6)
H2_4 H 0.421964 0.501202 0.919870
H4_4 H 0.366154 0.903840 0.975899
C15_4 C 0.3877(5) 0.3752(5) 0.9788(6)
H9_4 H 0.427067 0.392571 0.947800
C16_4 C 0.3794(5) 0.3030(4) 0.9919(6)
H10_4 H 0.415877 0.272522 0.970594
C17_4 C 0.2123(5) 0.7820(4) 0.8432(5)
C18_4 C 0.2524(6) 0.7504(5) 0.7890(6)
H11_4 H 0.283262 0.777107 0.755741
C19_4 C 0.1865(7) 0.6490(5) 0.8595(7)
C20_4 C 0.1639(7) 0.5863(5) 0.8832(7)
C21_4 C 0.1455(6) 0.4525(5) 0.9080(6)
C22_4 C 0.1066(6) 0.4854(5) 0.9608(6)
H12_4 H 0.081693 0.459097 0.999182
C23_4 C 0.2385(5) 0.9755(4) 0.8185(5)
C24_4 C 0.2477(6) 0.9054(4) 0.8083(5)
H14_4 H 0.280394 0.887898 0.770079
C25_4 C 0.2077(5) 0.8591(4) 0.8555(5)
C26_4 C 0.1639(7) 0.8874(5) 0.9108(6)
H15_4 H 0.136999 0.857432 0.944333
C27_4 C 0.1585(6) 0.9606(5) 0.9184(6)
H16_4 H 0.127917 0.979552 0.957524
C28_4 C 0.1128(5) 0.2576(4) 0.9257(5)
H17_4 H 0.078926 0.226740 0.950571
C29_4 C 0.1042(6) 0.3297(5) 0.9333(6)
H18_4 H 0.063774 0.348159 0.961965
C30_4 C 0.1553(6) 0.3755(5) 0.8988(5)
C31_4 C 0.2117(5) 0.3475(5) 0.8578(6)
H19_4 H 0.248063 0.376957 0.834625
C32_4 C 0.2156(6) 0.2737(4) 0.8500(6)
H20_4 H 0.254240 0.254921 0.819066
C35_4 C 0.9665(5) 0.0989(5) 0.1354(5)
H22_4 H 0.918776 0.082934 0.119766
C36_4 C 0.9782(5) 0.1174(4) 0.2107(5)
C40_4 C 0.9174(6) 0.1156(4) 0.2682(5)
loop_
_geom_bond_atom_site_label_1
_geom_bond_atom_site_label_2
_geom_bond_site_symmetry_1
_geom_bond_site_symmetry_2
S1 C1 1_555 1_555
S2 C2 1_555 1_555
S3 C4 1_555 1_555
S4 C4 1_555 1_555
S5 C18 1_555 1_555
S6 C17 1_555 1_555
S7 C20 1_555 1_555
S8 C20 1_555 1_555
N3 C12 1_555 1_555
N4 C28 1_555 1_555
C1 C2 1_555 1_555
C2 H1 1_555 1_555
C3 S1 1_555 1_555
C4 C3 1_555 1_555
C5 S4 1_555 1_555
C6 S3 1_555 1_555
H2 C6 1_555 1_555
H4 C8 1_555 1_555
C9 C1 1_555 1_555
C10 C9 1_555 1_555
H5 C10 1_555 1_555
C12 H7 1_555 1_555
C13 C12 1_555 1_555
H8 C13 1_555 1_555
C14 C5 1_555 1_555
C15 C14 1_555 1_555
H9 C15 1_555 1_555
C16 N3 1_555 1_555
H10 C16 1_555 1_555
C17 C18 1_555 1_555
C18 H11 1_555 1_555
C19 S5 1_555 1_555
C20 C19 1_555 1_555
C21 S7 1_555 1_555
C22 S8 1_555 1_555
H12 C22 1_555 1_555
C24 C23 1_555 1_555
H14 C24 1_555 1_555
C25 C17 1_555 1_555
C26 C25 1_555 1_555
H15 C26 1_555 1_555
H16 C27 1_555 1_555
C28 H17 1_555 1_555
C29 C28 1_555 1_555
H18 C29 1_555 1_555
C30 C21 1_555 1_555
C31 C30 1_555 1_555
H19 C31 1_555 1_555
C32 N4 1_555 1_555
H20 C32 1_555 1_555
Zn3 N3 1_555 1_555
Zn5 N4 1_555 1_555
S2 C3 1_555 1_555
S6 C19 1_555 1_555
C5 C6 1_555 1_555
C8 C9 1_555 1_555
C13 C14 1_555 1_555
C15 C16 1_555 1_555
C21 C22 1_555 1_555
C24 C25 1_555 1_555
C26 C27 1_555 1_555
C29 C30 1_555 1_555
C31 C32 1_555 1_555
Zn3 O1 1_555 1_555
Zn5 O2 1_555 1_555
O1 C39 1_555 1_555
O2 C39 1_555 1_555
O5 Zn3 1_555 1_555
O6 Zn5 1_555 1_555
O7 C48 1_555 1_555
O8 C48 1_555 1_555
N1 Zn5 1_555 1_555
N2 Zn3 1_555 1_555
C7 N2 1_555 1_555
H3 C7 1_555 1_555
C11 N2 1_555 1_555
H6 C11 1_555 1_555
C33 C34 1_555 1_555
C34 H21 1_555 1_555
H23 C37 1_555 1_555
C38 C33 1_555 1_555
H24 C38 1_555 1_555
C39 C33 1_555 1_555
C41 C42 1_555 1_555
C42 H25 1_555 1_555
C43 C42 1_555 1_555
H26 C43 1_555 1_555
C44 C43 1_555 1_555
C45 C44 1_555 1_555
H27 C45 1_555 1_555
C46 C41 1_555 1_555
H28 C46 1_555 1_555
C47 O5 1_555 1_555
C48 C44 1_555 1_555
Zn4 O7 1_555 1_555
O9 Zn5 1_555 1_555
O10 Zn5 1_555 1_555
O11 Zn3 1_555 1_555
O12 Zn3 1_555 1_555
O6 C47 1_555 1_555
O8 Zn4 1_555 1_555
C37 C38 1_555 1_555
C41 C47 1_555 1_555
C45 C46 1_555 1_555
O3 C40 1_555 1_555
O4 C40 1_555 1_555
H22 C35 1_555 1_555
C36 C35 1_555 1_555
C40 C36 1_555 1_555
Zn6 O3 1_555 1_555
O4 Zn6 1_555 1_555
O9 C40_2 1_555 1_555
O10 C40_2 1_555 1_555
H22_2 C35_2 1_555 1_555
C36_2 C35_2 1_555 1_555
C40_2 C36_2 1_555 1_555
S1_2 C1_2 1_555 1_555
S2_2 C2_2 1_555 1_555
S4_2 C4_2 1_555 1_555
N3_2 C12_2 1_555 1_555
C1_2 C2_2 1_555 1_555
C2_2 H1_2 1_555 1_555
C3_2 S1_2 1_555 1_555
C4_2 C3_2 1_555 1_555
C5_2 S4_2 1_555 1_555
C9_2 C1_2 1_555 1_555
C10_2 C9_2 1_555 1_555
H5_2 C10_2 1_555 1_555
C12_2 H7_2 1_555 1_555
C13_2 C12_2 1_555 1_555
H8_2 C13_2 1_555 1_555
C14_2 C5_2 1_555 1_555
Zn4 N3_2 1_555 1_555
S2_2 C3_2 1_555 1_555
C8_2 C9_2 1_555 1_555
C13_2 C14_2 1_555 1_555
S5_2 C18_2 1_555 1_555
S6_2 C17_2 1_555 1_555
S7_2 C20_2 1_555 1_555
S8_2 C20_2 1_555 1_555
N4_2 C28_2 1_555 1_555
C6_2 S3_2 1_555 1_555
H2_2 C6_2 1_555 1_555
H9_2 C15_2 1_555 1_555
H10_2 C16_2 1_555 1_555
C17_2 C18_2 1_555 1_555
C18_2 H11_2 1_555 1_555
C19_2 S5_2 1_555 1_555
C20_2 C19_2 1_555 1_555
C21_2 S7_2 1_555 1_555
C22_2 S8_2 1_555 1_555
H12_2 C22_2 1_555 1_555
C24_2 C23_2 1_555 1_555
H14_2 C24_2 1_555 1_555
C25_2 C17_2 1_555 1_555
C26_2 C25_2 1_555 1_555
H15_2 C26_2 1_555 1_555
H16_2 C27_2 1_555 1_555
C28_2 H17_2 1_555 1_555
C29_2 C28_2 1_555 1_555
H18_2 C29_2 1_555 1_555
C30_2 C21_2 1_555 1_555
C31_2 C30_2 1_555 1_555
H19_2 C31_2 1_555 1_555
C32_2 N4_2 1_555 1_555
H20_2 C32_2 1_555 1_555
Zn6 N4_2 1_555 1_555
S6_2 C19_2 1_555 1_555
C15_2 C16_2 1_555 1_555
C21_2 C22_2 1_555 1_555
C24_2 C25_2 1_555 1_555
C26_2 C27_2 1_555 1_555
C29_2 C30_2 1_555 1_555
C31_2 C32_2 1_555 1_555
Zn4 O1_2 1_555 1_555
O1_2 C39_2 1_555 1_555
N2_2 Zn4 1_555 1_555
C7_2 N2_2 1_555 1_555
C11_2 N2_2 1_555 1_555
H6_2 C11_2 1_555 1_555
C33_2 C34_2 1_555 1_555
C34_2 H21_2 1_555 1_555
H23_2 C37_2 1_555 1_555
C38_2 C33_2 1_555 1_555
H24_2 C38_2 1_555 1_555
C39_2 C33_2 1_555 1_555
C37_2 C38_2 1_555 1_555
Zn6 O2_2 1_555 1_555
O6_2 Zn6 1_555 1_555
O11 C48_2 1_555 1_555
O12 C48_2 1_555 1_555
N1_2 Zn6 1_555 1_555
C41_2 C42_2 1_555 1_555
C42_2 H25_2 1_555 1_555
C43_2 C42_2 1_555 1_555
H26_2 C43_2 1_555 1_555
C44_2 C43_2 1_555 1_555
C45_2 C44_2 1_555 1_555
H27_2 C45_2 1_555 1_555
C46_2 C41_2 1_555 1_555
H28_2 C46_2 1_555 1_555
C47_2 O5_2 1_555 1_555
C48_2 C44_2 1_555 1_555
O6_2 C47_2 1_555 1_555
C41_2 C47_2 1_555 1_555
C45_2 C46_2 1_555 1_555
O3_2 C40_3 1_555 1_555
O4_2 C40_3 1_555 1_555
H22_3 C35_3 1_555 1_555
C36_3 C35_3 1_555 1_555
C40_3 C36_3 1_555 1_555
Zn6_2 O3_2 1_555 1_555
O4_2 Zn6_2 1_555 1_555
Zn1 O1_3 1_555 1_555
Zn2 O2_3 1_555 1_555
O1_3 C39_3 1_555 1_555
O2_3 C39_3 1_555 1_555
O5_3 Zn1 1_555 1_555
O6_3 Zn2 1_555 1_555
O7_2 C48_3 1_555 1_555
O8_2 C48_3 1_555 1_555
N1_3 Zn2 1_555 1_555
N2_3 Zn1 1_555 1_555
C7_3 N2_3 1_555 1_555
H3_3 C7_3 1_555 1_555
C11_3 N2_3 1_555 1_555
H6_3 C11_3 1_555 1_555
C33_3 C34_3 1_555 1_555
C34_3 H21_3 1_555 1_555
H23_3 C37_3 1_555 1_555
C38_3 C33_3 1_555 1_555
H24_3 C38_3 1_555 1_555
C39_3 C33_3 1_555 1_555
C41_3 C42_3 1_555 1_555
C42_3 H25_3 1_555 1_555
C43_3 C42_3 1_555 1_555
H26_3 C43_3 1_555 1_555
C44_3 C43_3 1_555 1_555
C45_3 C44_3 1_555 1_555
H27_3 C45_3 1_555 1_555
C46_3 C41_3 1_555 1_555
H28_3 C46_3 1_555 1_555
C47_3 O5_3 1_555 1_555
C48_3 C44_3 1_555 1_555
Zn4_2 O7_2 1_555 1_555
O9_2 Zn2 1_555 1_555
O10_2 Zn2 1_555 1_555
O11_2 Zn1 1_555 1_555
O12_2 Zn1 1_555 1_555
N5 Zn1 1_555 1_555
N6 Zn2 1_555 1_555
O6_3 C47_3 1_555 1_555
O8_2 Zn4_2 1_555 1_555
C37_3 C38_3 1_555 1_555
C41_3 C47_3 1_555 1_555
C45_3 C46_3 1_555 1_555
S1_3 C1_3 1_555 1_555
S2_3 C2_3 1_555 1_555
S3_3 C4_3 1_555 1_555
S4_3 C4_3 1_555 1_555
S5_3 C18_3 1_555 1_555
S6_3 C17_3 1_555 1_555
S7_3 C20_3 1_555 1_555
S8_3 C20_3 1_555 1_555
N5 C12_3 1_555 1_555
N6 C28_3 1_555 1_555
C1_3 C2_3 1_555 1_555
C2_3 H1_3 1_555 1_555
C3_3 S1_3 1_555 1_555
C4_3 C3_3 1_555 1_555
C5_3 S4_3 1_555 1_555
C6_3 S3_3 1_555 1_555
H2_3 C6_3 1_555 1_555
H4_3 C8_3 1_555 1_555
C9_3 C1_3 1_555 1_555
C10_3 C9_3 1_555 1_555
H5_3 C10_3 1_555 1_555
C12_3 H7_3 1_555 1_555
C13_3 C12_3 1_555 1_555
H8_3 C13_3 1_555 1_555
C14_3 C5_3 1_555 1_555
C15_3 C14_3 1_555 1_555
H9_3 C15_3 1_555 1_555
C16_3 N5 1_555 1_555
H10_3 C16_3 1_555 1_555
C17_3 C18_3 1_555 1_555
C18_3 H11_3 1_555 1_555
C19_3 S5_3 1_555 1_555
C20_3 C19_3 1_555 1_555
C21_3 S7_3 1_555 1_555
C22_3 S8_3 1_555 1_555
H12_3 C22_3 1_555 1_555
C24_3 C23_3 1_555 1_555
H14_3 C24_3 1_555 1_555
C25_3 C17_3 1_555 1_555
C26_3 C25_3 1_555 1_555
H15_3 C26_3 1_555 1_555
H16_3 C27_3 1_555 1_555
C28_3 H17_3 1_555 1_555
C29_3 C28_3 1_555 1_555
H18_3 C29_3 1_555 1_555
C30_3 C21_3 1_555 1_555
C31_3 C30_3 1_555 1_555
H19_3 C31_3 1_555 1_555
C32_3 N6 1_555 1_555
H20_3 C32_3 1_555 1_555
S2_3 C3_3 1_555 1_555
S6_3 C19_3 1_555 1_555
C5_3 C6_3 1_555 1_555
C8_3 C9_3 1_555 1_555
C13_3 C14_3 1_555 1_555
C15_3 C16_3 1_555 1_555
C21_3 C22_3 1_555 1_555
C24_3 C25_3 1_555 1_555
C26_3 C27_3 1_555 1_555
C29_3 C30_3 1_555 1_555
C31_3 C32_3 1_555 1_555
Zn4_2 O1_4 1_555 1_555
O1_4 C39_4 1_555 1_555
N2_4 Zn4_2 1_555 1_555
C7_4 N2_4 1_555 1_555
C11_4 N2_4 1_555 1_555
H6_4 C11_4 1_555 1_555
C33_4 C34_4 1_555 1_555
C34_4 H21_4 1_555 1_555
H23_4 C37_4 1_555 1_555
C38_4 C33_4 1_555 1_555
H24_4 C38_4 1_555 1_555
C39_4 C33_4 1_555 1_555
N5_2 Zn4_2 1_555 1_555
C37_4 C38_4 1_555 1_555
Zn6_2 O2_4 1_555 1_555
O6_4 Zn6_2 1_555 1_555
O11_2 C48_4 1_555 1_555
O12_2 C48_4 1_555 1_555
N1_4 Zn6_2 1_555 1_555
C41_4 C42_4 1_555 1_555
C42_4 H25_4 1_555 1_555
C43_4 C42_4 1_555 1_555
H26_4 C43_4 1_555 1_555
C44_4 C43_4 1_555 1_555
C45_4 C44_4 1_555 1_555
H27_4 C45_4 1_555 1_555
C46_4 C41_4 1_555 1_555
H28_4 C46_4 1_555 1_555
C47_4 O5_4 1_555 1_555
C48_4 C44_4 1_555 1_555
N6_2 Zn6_2 1_555 1_555
O6_4 C47_4 1_555 1_555
C41_4 C47_4 1_555 1_555
C45_4 C46_4 1_555 1_555
S1_4 C1_4 1_555 1_555
S2_4 C2_4 1_555 1_555
S4_4 C4_4 1_555 1_555
N5_2 C12_4 1_555 1_555
C1_4 C2_4 1_555 1_555
C2_4 H1_4 1_555 1_555
C3_4 S1_4 1_555 1_555
C4_4 C3_4 1_555 1_555
C5_4 S4_4 1_555 1_555
C9_4 C1_4 1_555 1_555
C10_4 C9_4 1_555 1_555
H5_4 C10_4 1_555 1_555
C12_4 H7_4 1_555 1_555
C13_4 C12_4 1_555 1_555
H8_4 C13_4 1_555 1_555
C14_4 C5_4 1_555 1_555
S2_4 C3_4 1_555 1_555
C8_4 C9_4 1_555 1_555
C13_4 C14_4 1_555 1_555
S5_4 C18_4 1_555 1_555
S6_4 C17_4 1_555 1_555
S7_4 C20_4 1_555 1_555
S8_4 C20_4 1_555 1_555
N6_2 C28_4 1_555 1_555
C6_4 S3_4 1_555 1_555
H2_4 C6_4 1_555 1_555
H9_4 C15_4 1_555 1_555
H10_4 C16_4 1_555 1_555
C17_4 C18_4 1_555 1_555
C18_4 H11_4 1_555 1_555
C19_4 S5_4 1_555 1_555
C20_4 C19_4 1_555 1_555
C21_4 S7_4 1_555 1_555
C22_4 S8_4 1_555 1_555
H12_4 C22_4 1_555 1_555
C24_4 C23_4 1_555 1_555
H14_4 C24_4 1_555 1_555
C25_4 C17_4 1_555 1_555
C26_4 C25_4 1_555 1_555
H15_4 C26_4 1_555 1_555
H16_4 C27_4 1_555 1_555
C28_4 H17_4 1_555 1_555
C29_4 C28_4 1_555 1_555
H18_4 C29_4 1_555 1_555
C30_4 C21_4 1_555 1_555
C31_4 C30_4 1_555 1_555
H19_4 C31_4 1_555 1_555
C32_4 N6_2 1_555 1_555
H20_4 C32_4 1_555 1_555
S6_4 C19_4 1_555 1_555
C15_4 C16_4 1_555 1_555
C21_4 C22_4 1_555 1_555
C24_4 C25_4 1_555 1_555
C26_4 C27_4 1_555 1_555
C29_4 C30_4 1_555 1_555
C31_4 C32_4 1_555 1_555
O9_2 C40_4 1_555 1_555
O10_2 C40_4 1_555 1_555
H22_4 C35_4 1_555 1_555
C36_4 C35_4 1_555 1_555
C40_4 C36_4 1_555 1_555

#END
