
###############################################################################
#
# This file contains modified crystal structure data generated from the
# MOF subset of the Cambridge Structural Database (CSD) v543 
# hosted by the Cambridge Crystallographic Data Centre (CCDC).
#
# This work is licensed under the Creative Commons
# Attribution-NonCommercial-ShareAlike 4.0 International License.
# To view a copy of this license, visit
# http://creativecommons.org/licenses/by-nc-sa/4.0/
# or send a letter to
# Creative Commons, PO Box 1866, Mountain View, CA 94042, USA.
#
# CIF created using the CSD Python API on 29 September 2022
# The structure has been converted into the P1 space group
# The structure has a 3D framework
# The original CSD entry UBACUX is in the monoclinic crystal system
# The framework has been calculated to contain at least 10.0% void space
# The void calculation uses a probe of radius 1.32A, grid spacing 0.4
#
###############################################################################

data_UBACUX
_chemical_formula_moiety         '(C208 H128 N32 O64 Zn16)n'
_symmetry_cell_setting           triclinic
_symmetry_space_group_name_H-M   'P 1'
_symmetry_Int_Tables_number      1
_space_group_name_Hall           'P 1'
loop_
_symmetry_equiv_pos_site_id
_symmetry_equiv_pos_as_xyz
1 x,y,z
_cell_length_a                   29.943(6)
_cell_length_b                   13.921(3)
_cell_length_c                   18.994(4)
_cell_angle_alpha                90
_cell_angle_beta                 115.81(3)
_cell_angle_gamma                90
_cell_volume                     7127.58
loop_
_atom_site_label
_atom_site_type_symbol
_atom_site_fract_x
_atom_site_fract_y
_atom_site_fract_z
C1 C 0.2111(3) 0.6666(8) 0.3190(5)
C2 C 0.1897(4) 0.5697(8) 0.3090(5)
C3 C 0.1404(4) 0.5536(9) 0.2898(6)
H1 H 0.1195 0.6056 0.2835
C4 C 0.1214(3) 0.4606(9) 0.2796(6)
H2 H 0.0876 0.4507 0.2636
C5 C 0.1525(4) 0.3841(9) 0.2933(6)
H3 H 0.1398 0.3221 0.2869
C6 C 0.2031(3) 0.3974(8) 0.3166(5)
C7 C 0.2226(4) 0.4894(8) 0.3245(5)
C8 C 0.2354(4) 0.3085(8) 0.3326(5)
C9 C 0.2759(3) 0.4791(8) 0.2229(5)
C10 C 0.3027(3) 0.5098(8) 0.3054(5)
C11 C 0.3523(4) 0.5303(9) 0.3356(6)
H4 H 0.3687 0.5238 0.3040
C12 C 0.3789(4) 0.5609(10) 0.4133(6)
H5 H 0.4124 0.5758 0.4328
C13 C 0.3548(4) 0.5688(10) 0.4604(5)
H6 H 0.3718 0.5924 0.5110
C14 C 0.3051(3) 0.5416(8) 0.4331(5)
C15 C 0.2781(3) 0.5128(7) 0.3542(5)
C16 C 0.2822(3) 0.5505(9) 0.4896(5)
C19 C 0.0899(4) 0.3385(10) 0.0111(8)
C20 C 0.1201(5) 0.3149(13) 0.0850(9)
H9 H 0.1074 0.3005 0.1205
C21 C 0.1709(4) 0.3121(11) 0.1076(8)
H10 H 0.1916 0.2898 0.1574
N1 N 0.19124(7) 0.33986(16) 0.06142(12)
O1 O 0.20480(7) 0.71913(16) 0.36997(12)
O2 O 0.23178(7) 0.69794(16) 0.27863(12)
O3 O 0.23513(7) 0.51734(16) 0.17729(12)
O4 O 0.29781(7) 0.41623(16) 0.20042(12)
O5 O 0.21470(7) 0.22584(16) 0.31850(12)
O6 O 0.28119(7) 0.31539(16) 0.35815(12)
O7 O 0.25702(7) 0.48031(16) 0.49476(12)
O8 O 0.29222(7) 0.62675(16) 0.52903(12)
Zn1 Zn 0.26524(4) 0.34619(9) 0.10232(6)
O10 O 0.29520(7) 0.21913(16) 0.13003(12)
O15 O 0.29222(7) 0.37325(16) 0.02903(12)
Zn3 Zn 0.23476(4) 0.84619(9) 0.39768(6)
Zn4 Zn 0.26524(4) 0.65381(9) 0.60232(6)
Zn5 Zn 0.28263(4) 0.15872(9) 0.33936(6)
Zn6 Zn 0.21737(4) 0.65872(9) 0.16064(6)
C22 C 0.8801(4) 0.2536(10) 0.8634(8)
H11 H 0.8606 0.1993 0.8430
C23 C 0.9301(5) 0.2477(13) 0.8857(9)
H12 H 0.9437 0.1906 0.8785
C24 C 0.9598(4) 0.3242(13) 0.9180(8)
C25 C 0.9390(4) 0.4074(12) 0.9246(7)
H13 H 0.9587 0.4615 0.9449
C26 C 0.8868(4) 0.4128(10) 0.9006(7)
H14 H 0.8726 0.4702 0.9060
N4 N 0.85793(7) 0.33565(16) 0.87011(12)
O9 O 0.80209(7) 0.36633(16) 0.96093(12)
H15 H 0.8096 0.3271 0.9987
H16 H 0.7855 0.4156 0.9616
Zn2 Zn 0.78263(4) 0.34128(9) 0.83936(6)
O11 O 0.76822(7) 0.30206(16) 0.72137(12)
O12 O 0.76487(7) 0.48266(16) 0.82271(12)
O13 O 0.71470(7) 0.27416(16) 0.81850(12)
O14 O 0.78119(7) 0.18461(16) 0.85815(12)
C22_2 C 0.1199(4) 0.2536(10) 0.6366(8)
H11_2 H 0.1394 0.1993 0.6570
C23_2 C 0.0699(5) 0.2477(13) 0.6143(9)
H12_2 H 0.0563 0.1906 0.6215
C24_2 C 0.0402(4) 0.3242(13) 0.5820(8)
C25_2 C 0.0610(4) 0.4074(12) 0.5754(7)
H13_2 H 0.0413 0.4615 0.5551
C26_2 C 0.1132(4) 0.4128(10) 0.5994(7)
H14_2 H 0.1274 0.4702 0.5940
N4_2 N 0.14207(7) 0.33565(16) 0.62989(12)
O9_2 O 0.19791(7) 0.36633(16) 0.53907(12)
H15_2 H 0.1904 0.3271 0.5013
H16_2 H 0.2145 0.4156 0.5384
Zn2_2 Zn 0.21737(4) 0.34128(9) 0.66064(6)
O11_2 O 0.23178(7) 0.30206(16) 0.77863(12)
O12_2 O 0.23513(7) 0.48266(16) 0.67729(12)
O13_2 O 0.28530(7) 0.27416(16) 0.68150(12)
O14_2 O 0.21881(7) 0.18461(16) 0.64185(12)
C1_2 C 0.7889(3) 0.6666(8) 0.1810(5)
C2_2 C 0.8103(4) 0.5697(8) 0.1910(5)
C3_2 C 0.8596(4) 0.5536(9) 0.2102(6)
H1_2 H 0.8805 0.6056 0.2165
C4_2 C 0.8786(3) 0.4606(9) 0.2204(6)
H2_2 H 0.9124 0.4507 0.2364
C5_2 C 0.8475(4) 0.3841(9) 0.2067(6)
H3_2 H 0.8602 0.3221 0.2131
C6_2 C 0.7969(3) 0.3974(8) 0.1834(5)
C7_2 C 0.7774(4) 0.4894(8) 0.1755(5)
C8_2 C 0.7646(4) 0.3085(8) 0.1674(5)
C9_2 C 0.7241(3) 0.4791(8) 0.2771(5)
C10_2 C 0.6973(3) 0.5098(8) 0.1946(5)
C11_2 C 0.6477(4) 0.5303(9) 0.1644(6)
H4_2 H 0.6313 0.5238 0.1960
C12_2 C 0.6211(4) 0.5609(10) 0.0867(6)
H5_2 H 0.5876 0.5758 0.0672
C13_2 C 0.6452(4) 0.5688(10) 0.0396(5)
C14_2 C 0.6949(3) 0.5416(8) 0.0669(5)
C15_2 C 0.7219(3) 0.5128(7) 0.1458(5)
C16_2 C 0.7178(3) 0.5505(9) 0.0104(5)
C17 C 0.8387(4) 0.3660(11) 0.5104(7)
H7 H 0.8252 0.3853 0.5439
C18 C 0.8902(4) 0.3654(11) 0.5377(7)
H8 H 0.9107 0.3834 0.5889
C19_2 C 0.9101(4) 0.3385(10) 0.4889(8)
C20_2 C 0.8799(5) 0.3149(13) 0.4150(9)
H9_2 H 0.8926 0.3005 0.3795
C21_2 C 0.8291(4) 0.3121(11) 0.3924(8)
H10_2 H 0.8084 0.2898 0.3426
N1_2 N 0.80876(7) 0.33986(16) 0.43858(12)
N2 N 0.96223(7) 0.34235(16) 0.50911(12)
N3 N 0.98753(7) 0.31287(16) 0.56067(12)
O1_2 O 0.79520(7) 0.71913(16) 0.13003(12)
O2_2 O 0.76822(7) 0.69794(16) 0.22137(12)
O3_2 O 0.76487(7) 0.51734(16) 0.32271(12)
O4_2 O 0.70219(7) 0.41623(16) 0.29958(12)
O5_2 O 0.78530(7) 0.22584(16) 0.18150(12)
O6_2 O 0.71881(7) 0.31539(16) 0.14185(12)
O7_2 O 0.74298(7) 0.48031(16) 0.00524(12)
Zn1_2 Zn 0.73476(4) 0.34619(9) 0.39768(6)
O10_2 O 0.70480(7) 0.21913(16) 0.36997(12)
O15_2 O 0.70778(7) 0.37325(16) 0.47097(12)
Zn3_2 Zn 0.76524(4) 0.84619(9) 0.10232(6)
Zn5_2 Zn 0.71737(4) 0.15872(9) 0.16064(6)
Zn6_2 Zn 0.78263(4) 0.65872(9) 0.33936(6)
H6_2 H 0.6282 0.5924 0.9890
O8_2 O 0.70778(7) 0.62675(16) 0.97097(12)
Zn4_2 Zn 0.73476(4) 0.65381(9) 0.89768(6)
C1_3 C 0.7111(3) 0.1666(8) 0.3190(5)
C2_3 C 0.6897(4) 0.0697(8) 0.3090(5)
C3_3 C 0.6404(4) 0.0536(9) 0.2898(6)
H1_3 H 0.6195 0.1056 0.2835
C10_3 C 0.8027(3) 0.0098(8) 0.3054(5)
C11_3 C 0.8523(4) 0.0303(9) 0.3356(6)
H4_3 H 0.8687 0.0238 0.3040
C12_3 C 0.8789(4) 0.0609(10) 0.4133(6)
H5_3 H 0.9124 0.0758 0.4328
C13_3 C 0.8548(4) 0.0688(10) 0.4604(5)
H6_3 H 0.8718 0.0924 0.5110
C14_3 C 0.8051(3) 0.0416(8) 0.4331(5)
C15_3 C 0.7781(3) 0.0128(7) 0.3542(5)
C16_3 C 0.7822(3) 0.0505(9) 0.4896(5)
O2_3 O 0.73178(7) 0.19794(16) 0.27863(12)
O3_3 O 0.73513(7) 0.01734(16) 0.17729(12)
O8_3 O 0.79222(7) 0.12675(16) 0.52903(12)
Zn4_3 Zn 0.76524(4) 0.15381(9) 0.60232(6)
C4_3 C 0.6214(3) 0.9606(9) 0.2796(6)
H2_3 H 0.5876 0.9507 0.2636
C5_3 C 0.6525(4) 0.8841(9) 0.2933(6)
H3_3 H 0.6398 0.8221 0.2869
C6_3 C 0.7031(3) 0.8974(8) 0.3166(5)
C7_3 C 0.7226(4) 0.9894(8) 0.3245(5)
C8_3 C 0.7354(4) 0.8085(8) 0.3326(5)
C9_3 C 0.7759(3) 0.9791(8) 0.2229(5)
C19_3 C 0.5899(4) 0.8385(10) 0.0111(8)
C20_3 C 0.6201(5) 0.8149(13) 0.0850(9)
H9_3 H 0.6074 0.8005 0.1205
C21_3 C 0.6709(4) 0.8121(11) 0.1076(8)
H10_3 H 0.6916 0.7898 0.1574
N1_3 N 0.69124(7) 0.83986(16) 0.06142(12)
O4_3 O 0.79781(7) 0.91623(16) 0.20042(12)
O5_3 O 0.71470(7) 0.72584(16) 0.31850(12)
O6_3 O 0.78119(7) 0.81539(16) 0.35815(12)
O7_3 O 0.75702(7) 0.98031(16) 0.49476(12)
O15_3 O 0.79222(7) 0.87325(16) 0.02903(12)
C17_2 C 0.6613(4) 0.8660(11) 0.9896(7)
H7_2 H 0.6748 0.8853 0.9561
C18_2 C 0.6098(4) 0.8654(11) 0.9623(7)
H8_2 H 0.5893 0.8834 0.9111
C22_3 C 0.3801(4) 0.7536(10) 0.8634(8)
H11_3 H 0.3606 0.6993 0.8430
C23_3 C 0.4301(5) 0.7477(13) 0.8857(9)
H12_3 H 0.4437 0.6906 0.8785
C24_3 C 0.4598(4) 0.8242(13) 0.9180(8)
C25_3 C 0.4390(4) 0.9074(12) 0.9246(7)
H13_3 H 0.4587 0.9615 0.9449
C26_3 C 0.3868(4) 0.9128(10) 0.9006(7)
H14_3 H 0.3726 0.9702 0.9060
N2_2 N 0.53777(7) 0.84235(16) 0.99089(12)
N3_2 N 0.51247(7) 0.81287(16) 0.93933(12)
N4_3 N 0.35793(7) 0.83565(16) 0.87011(12)
O9_3 O 0.30209(7) 0.86633(16) 0.96093(12)
H15_3 H 0.3096 0.8271 0.9987
H16_3 H 0.2855 0.9156 0.9616
Zn2_3 Zn 0.28263(4) 0.84128(9) 0.83936(6)
O11_3 O 0.26822(7) 0.80206(16) 0.72137(12)
O12_3 O 0.26487(7) 0.98266(16) 0.82271(12)
O13_3 O 0.21470(7) 0.77416(16) 0.81850(12)
O14_3 O 0.28119(7) 0.68461(16) 0.85815(12)
C1_4 C 0.2889(3) 0.1666(8) 0.1810(5)
C2_4 C 0.3103(4) 0.0697(8) 0.1910(5)
C3_4 C 0.3596(4) 0.0536(9) 0.2102(6)
H1_4 H 0.3805 0.1056 0.2165
C10_4 C 0.1973(3) 0.0098(8) 0.1946(5)
C11_4 C 0.1477(4) 0.0303(9) 0.1644(6)
H4_4 H 0.1313 0.0238 0.1960
C12_4 C 0.1211(4) 0.0609(10) 0.0867(6)
H5_4 H 0.0876 0.0758 0.0672
C13_4 C 0.1452(4) 0.0688(10) 0.0396(5)
C14_4 C 0.1949(3) 0.0416(8) 0.0669(5)
C15_4 C 0.2219(3) 0.0128(7) 0.1458(5)
C16_4 C 0.2178(3) 0.0505(9) 0.0104(5)
O2_4 O 0.26822(7) 0.19794(16) 0.22137(12)
O3_4 O 0.26487(7) 0.01734(16) 0.32271(12)
H6_4 H 0.1282 0.0924 0.9890
O8_4 O 0.20778(7) 0.12675(16) 0.97097(12)
Zn4_4 Zn 0.23476(4) 0.15381(9) 0.89768(6)
C4_4 C 0.3786(3) 0.9606(9) 0.2204(6)
H2_4 H 0.4124 0.9507 0.2364
C5_4 C 0.3475(4) 0.8841(9) 0.2067(6)
H3_4 H 0.3602 0.8221 0.2131
C6_4 C 0.2969(3) 0.8974(8) 0.1834(5)
C7_4 C 0.2774(4) 0.9894(8) 0.1755(5)
C8_4 C 0.2646(4) 0.8085(8) 0.1674(5)
C9_4 C 0.2241(3) 0.9791(8) 0.2771(5)
C17_3 C 0.3387(4) 0.8660(11) 0.5104(7)
H7_3 H 0.3252 0.8853 0.5439
C18_3 C 0.3902(4) 0.8654(11) 0.5377(7)
H8_3 H 0.4107 0.8834 0.5889
C19_4 C 0.4101(4) 0.8385(10) 0.4889(8)
C20_4 C 0.3799(5) 0.8149(13) 0.4150(9)
H9_4 H 0.3926 0.8005 0.3795
C21_4 C 0.3291(4) 0.8121(11) 0.3924(8)
H10_4 H 0.3084 0.7898 0.3426
C22_4 C 0.6199(4) 0.7536(10) 0.6366(8)
H11_4 H 0.6394 0.6993 0.6570
C23_4 C 0.5699(5) 0.7477(13) 0.6143(9)
H12_4 H 0.5563 0.6906 0.6215
C24_4 C 0.5402(4) 0.8242(13) 0.5820(8)
C25_4 C 0.5610(4) 0.9074(12) 0.5754(7)
H13_4 H 0.5413 0.9615 0.5551
C26_4 C 0.6132(4) 0.9128(10) 0.5994(7)
H14_4 H 0.6274 0.9702 0.5940
N1_4 N 0.30876(7) 0.83986(16) 0.43858(12)
N2_3 N 0.46223(7) 0.84235(16) 0.50911(12)
N3_3 N 0.48753(7) 0.81287(16) 0.56067(12)
N4_4 N 0.64207(7) 0.83565(16) 0.62989(12)
O4_4 O 0.20219(7) 0.91623(16) 0.29958(12)
O5_4 O 0.28530(7) 0.72584(16) 0.18150(12)
O6_4 O 0.21881(7) 0.81539(16) 0.14185(12)
O7_4 O 0.24298(7) 0.98031(16) 0.00524(12)
O9_4 O 0.69791(7) 0.86633(16) 0.53907(12)
H15_4 H 0.6904 0.8271 0.5013
H16_4 H 0.7145 0.9156 0.5384
Zn2_4 Zn 0.71737(4) 0.84128(9) 0.66064(6)
O11_4 O 0.73178(7) 0.80206(16) 0.77863(12)
O12_4 O 0.73513(7) 0.98266(16) 0.67729(12)
O13_4 O 0.78530(7) 0.77416(16) 0.68150(12)
O14_4 O 0.71881(7) 0.68461(16) 0.64185(12)
O15_4 O 0.20778(7) 0.87325(16) 0.47097(12)
C22_5 C 0.1199(4) 0.7464(10) 0.1366(8)
H11_5 H 0.1394 0.8007 0.1570
C23_5 C 0.0699(5) 0.7523(13) 0.1143(9)
H12_5 H 0.0563 0.8094 0.1215
C24_5 C 0.0402(4) 0.6758(13) 0.0820(8)
C25_5 C 0.0610(4) 0.5926(12) 0.0754(7)
H13_5 H 0.0413 0.5385 0.0551
C26_5 C 0.1132(4) 0.5872(10) 0.0994(7)
H14_5 H 0.1274 0.5298 0.0940
N4_5 N 0.14207(7) 0.66435(16) 0.12989(12)
O9_5 O 0.19791(7) 0.63367(16) 0.03907(12)
H15_5 H 0.1904 0.6729 0.0013
H16_5 H 0.2145 0.5844 0.0384
C1_5 C 0.7889(3) 0.3334(8) 0.6810(5)
C2_5 C 0.8103(4) 0.4303(8) 0.6910(5)
C3_5 C 0.8596(4) 0.4464(9) 0.7102(6)
H1_5 H 0.8805 0.3944 0.7165
C4_5 C 0.8786(3) 0.5394(9) 0.7204(6)
H2_5 H 0.9124 0.5493 0.7364
C5_5 C 0.8475(4) 0.6159(9) 0.7067(6)
H3_5 H 0.8602 0.6779 0.7131
C6_5 C 0.7969(3) 0.6026(8) 0.6834(5)
C7_5 C 0.7774(4) 0.5106(8) 0.6755(5)
C8_5 C 0.7646(4) 0.6915(8) 0.6674(5)
C9_5 C 0.7241(3) 0.5209(8) 0.7771(5)
C10_5 C 0.6973(3) 0.4902(8) 0.6946(5)
C11_5 C 0.6477(4) 0.4697(9) 0.6644(6)
H4_5 H 0.6313 0.4762 0.6960
C12_5 C 0.6211(4) 0.4391(10) 0.5867(6)
H5_5 H 0.5876 0.4242 0.5672
C13_5 C 0.6452(4) 0.4312(10) 0.5396(5)
H6_5 H 0.6282 0.4076 0.4890
C14_5 C 0.6949(3) 0.4584(8) 0.5669(5)
C15_5 C 0.7219(3) 0.4872(7) 0.6458(5)
C16_5 C 0.7178(3) 0.4495(9) 0.5104(5)
C19_5 C 0.9101(4) 0.6615(10) 0.9889(8)
C20_5 C 0.8799(5) 0.6851(13) 0.9150(9)
H9_5 H 0.8926 0.6995 0.8795
C21_5 C 0.8291(4) 0.6879(11) 0.8924(8)
H10_5 H 0.8084 0.7102 0.8426
N1_5 N 0.80876(7) 0.66014(16) 0.93858(12)
O1_3 O 0.79520(7) 0.28087(16) 0.63003(12)
O4_5 O 0.70219(7) 0.58377(16) 0.79958(12)
O7_5 O 0.74298(7) 0.51969(16) 0.50524(12)
O10_3 O 0.70480(7) 0.78087(16) 0.86997(12)
H6_6 H 0.3718 0.4076 0.0110
C1_6 C 0.2111(3) 0.3334(8) 0.8190(5)
C2_6 C 0.1897(4) 0.4303(8) 0.8090(5)
C3_6 C 0.1404(4) 0.4464(9) 0.7898(6)
H1_6 H 0.1195 0.3944 0.7835
C4_6 C 0.1214(3) 0.5394(9) 0.7796(6)
H2_6 H 0.0876 0.5493 0.7636
C5_6 C 0.1525(4) 0.6159(9) 0.7933(6)
H3_6 H 0.1398 0.6779 0.7869
C6_6 C 0.2031(3) 0.6026(8) 0.8166(5)
C7_6 C 0.2226(4) 0.5106(8) 0.8245(5)
C8_6 C 0.2354(4) 0.6915(8) 0.8326(5)
C9_6 C 0.2759(3) 0.5209(8) 0.7229(5)
C10_6 C 0.3027(3) 0.4902(8) 0.8054(5)
C11_6 C 0.3523(4) 0.4697(9) 0.8356(6)
H4_6 H 0.3687 0.4762 0.8040
C12_6 C 0.3789(4) 0.4391(10) 0.9133(6)
H5_6 H 0.4124 0.4242 0.9328
C13_6 C 0.3548(4) 0.4312(10) 0.9604(5)
C14_6 C 0.3051(3) 0.4584(8) 0.9331(5)
C15_6 C 0.2781(3) 0.4872(7) 0.8542(5)
C16_6 C 0.2822(3) 0.4495(9) 0.9896(5)
C17_4 C 0.1613(4) 0.6340(11) 0.4896(7)
H7_4 H 0.1748 0.6147 0.4561
C18_4 C 0.1098(4) 0.6346(11) 0.4623(7)
H8_4 H 0.0893 0.6166 0.4111
C19_6 C 0.0899(4) 0.6615(10) 0.5111(8)
C20_6 C 0.1201(5) 0.6851(13) 0.5850(9)
H9_6 H 0.1074 0.6995 0.6205
C21_6 C 0.1709(4) 0.6879(11) 0.6076(8)
H10_6 H 0.1916 0.7102 0.6574
N1_6 N 0.19124(7) 0.66014(16) 0.56142(12)
N2_4 N 0.03777(7) 0.65765(16) 0.49089(12)
N3_4 N 0.01247(7) 0.68713(16) 0.43933(12)
O1_4 O 0.20480(7) 0.28087(16) 0.86997(12)
O4_6 O 0.29781(7) 0.58377(16) 0.70042(12)
O7_6 O 0.25702(7) 0.51969(16) 0.99476(12)
O10_4 O 0.29520(7) 0.78087(16) 0.63003(12)
C22_6 C 0.8801(4) 0.7464(10) 0.3634(8)
H11_6 H 0.8606 0.8007 0.3430
C23_6 C 0.9301(5) 0.7523(13) 0.3857(9)
H12_6 H 0.9437 0.8094 0.3785
C24_6 C 0.9598(4) 0.6758(13) 0.4180(8)
C25_6 C 0.9390(4) 0.5926(12) 0.4246(7)
H13_6 H 0.9587 0.5385 0.4449
C26_6 C 0.8868(4) 0.5872(10) 0.4006(7)
H14_6 H 0.8726 0.5298 0.4060
N4_6 N 0.85793(7) 0.66435(16) 0.37011(12)
O9_6 O 0.80209(7) 0.63367(16) 0.46093(12)
H15_6 H 0.8096 0.6729 0.4987
H16_6 H 0.7855 0.5844 0.4616
C17_5 C 0.3387(4) 0.1340(11) 0.0104(7)
H7_5 H 0.3252 0.1147 0.0439
C18_5 C 0.3902(4) 0.1346(11) 0.0377(7)
H8_5 H 0.4107 0.1166 0.0889
C22_7 C 0.6199(4) 0.2464(10) 0.1366(8)
H11_7 H 0.6394 0.3007 0.1570
C23_7 C 0.5699(5) 0.2523(13) 0.1143(9)
H12_7 H 0.5563 0.3094 0.1215
C24_7 C 0.5402(4) 0.1758(13) 0.0820(8)
C25_7 C 0.5610(4) 0.0926(12) 0.0754(7)
H13_7 H 0.5413 0.0385 0.0551
C26_7 C 0.6132(4) 0.0872(10) 0.0994(7)
H14_7 H 0.6274 0.0298 0.0940
N2_5 N 0.46223(7) 0.15765(16) 0.00911(12)
N3_5 N 0.48753(7) 0.18713(16) 0.06067(12)
N4_7 N 0.64207(7) 0.16435(16) 0.12989(12)
O9_7 O 0.69791(7) 0.13367(16) 0.03907(12)
H15_7 H 0.6904 0.1729 0.0013
H16_7 H 0.7145 0.0844 0.0384
C4_7 C 0.3786(3) 0.0394(9) 0.7204(6)
H2_7 H 0.4124 0.0493 0.7364
C5_7 C 0.3475(4) 0.1159(9) 0.7067(6)
H3_7 H 0.3602 0.1779 0.7131
C6_7 C 0.2969(3) 0.1026(8) 0.6834(5)
C7_7 C 0.2774(4) 0.0106(8) 0.6755(5)
C8_7 C 0.2646(4) 0.1915(8) 0.6674(5)
C9_7 C 0.2241(3) 0.0209(8) 0.7771(5)
C19_7 C 0.4101(4) 0.1615(10) 0.9889(8)
C20_7 C 0.3799(5) 0.1851(13) 0.9150(9)
H9_7 H 0.3926 0.1995 0.8795
C21_7 C 0.3291(4) 0.1879(11) 0.8924(8)
H10_7 H 0.3084 0.2102 0.8426
N1_7 N 0.30876(7) 0.16014(16) 0.93858(12)
O4_7 O 0.20219(7) 0.08377(16) 0.79958(12)
O7_7 O 0.24298(7) 0.01969(16) 0.50524(12)
C1_7 C 0.2889(3) 0.8334(8) 0.6810(5)
C2_7 C 0.3103(4) 0.9303(8) 0.6910(5)
C3_7 C 0.3596(4) 0.9464(9) 0.7102(6)
H1_7 H 0.3805 0.8944 0.7165
C10_7 C 0.1973(3) 0.9902(8) 0.6946(5)
C11_7 C 0.1477(4) 0.9697(9) 0.6644(6)
H4_7 H 0.1313 0.9762 0.6960
C12_7 C 0.1211(4) 0.9391(10) 0.5867(6)
H5_7 H 0.0876 0.9242 0.5672
C13_7 C 0.1452(4) 0.9312(10) 0.5396(5)
H6_7 H 0.1282 0.9076 0.4890
C14_7 C 0.1949(3) 0.9584(8) 0.5669(5)
C15_7 C 0.2219(3) 0.9872(7) 0.6458(5)
C16_7 C 0.2178(3) 0.9495(9) 0.5104(5)
C4_8 C 0.6214(3) 0.0394(9) 0.7796(6)
H2_8 H 0.5876 0.0493 0.7636
C5_8 C 0.6525(4) 0.1159(9) 0.7933(6)
H3_8 H 0.6398 0.1779 0.7869
C6_8 C 0.7031(3) 0.1026(8) 0.8166(5)
C7_8 C 0.7226(4) 0.0106(8) 0.8245(5)
C8_8 C 0.7354(4) 0.1915(8) 0.8326(5)
C9_8 C 0.7759(3) 0.0209(8) 0.7229(5)
C17_6 C 0.6613(4) 0.1340(11) 0.4896(7)
H7_6 H 0.6748 0.1147 0.4561
C18_6 C 0.6098(4) 0.1346(11) 0.4623(7)
H8_6 H 0.5893 0.1166 0.4111
C19_8 C 0.5899(4) 0.1615(10) 0.5111(8)
C20_8 C 0.6201(5) 0.1851(13) 0.5850(9)
H9_8 H 0.6074 0.1995 0.6205
C21_8 C 0.6709(4) 0.1879(11) 0.6076(8)
H10_8 H 0.6916 0.2102 0.6574
C22_8 C 0.3801(4) 0.2464(10) 0.3634(8)
H11_8 H 0.3606 0.3007 0.3430
C23_8 C 0.4301(5) 0.2523(13) 0.3857(9)
H12_8 H 0.4437 0.3094 0.3785
C24_8 C 0.4598(4) 0.1758(13) 0.4180(8)
C25_8 C 0.4390(4) 0.0926(12) 0.4246(7)
H13_8 H 0.4587 0.0385 0.4449
C26_8 C 0.3868(4) 0.0872(10) 0.4006(7)
H14_8 H 0.3726 0.0298 0.4060
N1_8 N 0.69124(7) 0.16014(16) 0.56142(12)
N2_6 N 0.53777(7) 0.15765(16) 0.49089(12)
N3_6 N 0.51247(7) 0.18713(16) 0.43933(12)
N4_8 N 0.35793(7) 0.16435(16) 0.37011(12)
O4_8 O 0.79781(7) 0.08377(16) 0.70042(12)
O7_8 O 0.75702(7) 0.01969(16) 0.99476(12)
O9_8 O 0.30209(7) 0.13367(16) 0.46093(12)
H15_8 H 0.3096 0.1729 0.4987
H16_8 H 0.2855 0.0844 0.4616
H6_8 H 0.8718 0.9076 0.0110
C1_8 C 0.7111(3) 0.8334(8) 0.8190(5)
C2_8 C 0.6897(4) 0.9303(8) 0.8090(5)
C3_8 C 0.6404(4) 0.9464(9) 0.7898(6)
H1_8 H 0.6195 0.8944 0.7835
C10_8 C 0.8027(3) 0.9902(8) 0.8054(5)
C11_8 C 0.8523(4) 0.9697(9) 0.8356(6)
H4_8 H 0.8687 0.9762 0.8040
C12_8 C 0.8789(4) 0.9391(10) 0.9133(6)
H5_8 H 0.9124 0.9242 0.9328
C13_8 C 0.8548(4) 0.9312(10) 0.9604(5)
C14_8 C 0.8051(3) 0.9584(8) 0.9331(5)
C15_8 C 0.7781(3) 0.9872(7) 0.8542(5)
C16_8 C 0.7822(3) 0.9495(9) 0.9896(5)
C17_7 C 0.1613(4) 0.3660(11) 0.9896(7)
H7_7 H 0.1748 0.3853 0.9561
C18_7 C 0.1098(4) 0.3654(11) 0.9623(7)
H8_7 H 0.0893 0.3834 0.9111
N2_7 N 0.03777(7) 0.34235(16) 0.99089(12)
N3_7 N 0.01247(7) 0.31287(16) 0.93933(12)
C17_8 C 0.8387(4) 0.6340(11) 0.0104(7)
H7_8 H 0.8252 0.6147 0.0439
C18_8 C 0.8902(4) 0.6346(11) 0.0377(7)
H8_8 H 0.9107 0.6166 0.0889
N2_8 N 0.96223(7) 0.65765(16) 0.00911(12)
N3_8 N 0.98753(7) 0.68713(16) 0.06067(12)
loop_
_geom_bond_atom_site_label_1
_geom_bond_atom_site_label_2
_geom_bond_site_symmetry_1
_geom_bond_site_symmetry_2
C1 C2 1_555 1_555
C2 C3 1_555 1_555
C3 H1 1_555 1_555
C4 C3 1_555 1_555
H2 C4 1_555 1_555
C5 C4 1_555 1_555
H3 C5 1_555 1_555
C6 C5 1_555 1_555
C7 C2 1_555 1_555
C8 C6 1_555 1_555
C9 C10 1_555 1_555
C10 C11 1_555 1_555
C11 H4 1_555 1_555
C12 C11 1_555 1_555
H5 C12 1_555 1_555
C13 C12 1_555 1_555
H6 C13 1_555 1_555
C14 C13 1_555 1_555
C15 C7 1_555 1_555
C16 C14 1_555 1_555
C20 C19 1_555 1_555
H9 C20 1_555 1_555
C21 C20 1_555 1_555
H10 C21 1_555 1_555
O1 C1 1_555 1_555
O2 C1 1_555 1_555
O3 C9 1_555 1_555
O4 C9 1_555 1_555
O5 C8 1_555 1_555
O6 C8 1_555 1_555
O7 C16 1_555 1_555
O8 C16 1_555 1_555
Zn1 N1 1_555 1_555
O10 Zn1 1_555 1_555
O15 Zn1 1_555 1_555
Zn3 O1 1_555 1_555
Zn4 O8 1_555 1_555
Zn5 O5 1_555 1_555
Zn6 O2 1_555 1_555
C6 C7 1_555 1_555
C10 C15 1_555 1_555
C14 C15 1_555 1_555
C21 N1 1_555 1_555
O3 Zn6 1_555 1_555
O4 Zn1 1_555 1_555
O6 Zn5 1_555 1_555
C22 H11 1_555 1_555
C23 C22 1_555 1_555
H12 C23 1_555 1_555
C24 C23 1_555 1_555
C25 C24 1_555 1_555
H13 C25 1_555 1_555
C26 C25 1_555 1_555
H14 C26 1_555 1_555
N4 C22 1_555 1_555
O9 H15 1_555 1_555
H16 O9 1_555 1_555
Zn2 N4 1_555 1_555
O11 Zn2 1_555 1_555
O12 Zn2 1_555 1_555
O13 Zn2 1_555 1_555
O14 Zn2 1_555 1_555
C26 N4 1_555 1_555
O9 Zn2 1_555 1_555
C22_2 H11_2 1_555 1_555
C23_2 C22_2 1_555 1_555
H12_2 C23_2 1_555 1_555
C24_2 C23_2 1_555 1_555
C25_2 C24_2 1_555 1_555
H13_2 C25_2 1_555 1_555
C26_2 C25_2 1_555 1_555
H14_2 C26_2 1_555 1_555
N4_2 C22_2 1_555 1_555
O9_2 H15_2 1_555 1_555
H16_2 O9_2 1_555 1_555
Zn2_2 N4_2 1_555 1_555
O11_2 Zn2_2 1_555 1_555
O12_2 Zn2_2 1_555 1_555
O13_2 Zn2_2 1_555 1_555
O14_2 Zn2_2 1_555 1_555
C26_2 N4_2 1_555 1_555
O9_2 Zn2_2 1_555 1_555
C1_2 C2_2 1_555 1_555
C2_2 C3_2 1_555 1_555
C3_2 H1_2 1_555 1_555
C4_2 C3_2 1_555 1_555
H2_2 C4_2 1_555 1_555
C5_2 C4_2 1_555 1_555
H3_2 C5_2 1_555 1_555
C6_2 C5_2 1_555 1_555
C7_2 C2_2 1_555 1_555
C8_2 C6_2 1_555 1_555
C9_2 C10_2 1_555 1_555
C10_2 C11_2 1_555 1_555
C11_2 H4_2 1_555 1_555
C12_2 C11_2 1_555 1_555
H5_2 C12_2 1_555 1_555
C13_2 C12_2 1_555 1_555
C14_2 C13_2 1_555 1_555
C15_2 C7_2 1_555 1_555
C16_2 C14_2 1_555 1_555
C17 H7 1_555 1_555
C18 C17 1_555 1_555
H8 C18 1_555 1_555
C19_2 C18 1_555 1_555
C20_2 C19_2 1_555 1_555
H9_2 C20_2 1_555 1_555
C21_2 C20_2 1_555 1_555
H10_2 C21_2 1_555 1_555
N1_2 C17 1_555 1_555
N2 C19_2 1_555 1_555
O1_2 C1_2 1_555 1_555
O2_2 C1_2 1_555 1_555
O3_2 C9_2 1_555 1_555
O4_2 C9_2 1_555 1_555
O5_2 C8_2 1_555 1_555
O6_2 C8_2 1_555 1_555
O7_2 C16_2 1_555 1_555
Zn1_2 N1_2 1_555 1_555
O10_2 Zn1_2 1_555 1_555
O15_2 Zn1_2 1_555 1_555
Zn3_2 O1_2 1_555 1_555
Zn5_2 O5_2 1_555 1_555
Zn6_2 O2_2 1_555 1_555
C6_2 C7_2 1_555 1_555
C10_2 C15_2 1_555 1_555
C14_2 C15_2 1_555 1_555
C21_2 N1_2 1_555 1_555
N2 N3 1_555 1_555
O3_2 Zn6_2 1_555 1_555
O4_2 Zn1_2 1_555 1_555
O6_2 Zn5_2 1_555 1_555
Zn4_2 O8_2 1_555 1_555
C1_3 C2_3 1_555 1_555
C2_3 C3_3 1_555 1_555
C3_3 H1_3 1_555 1_555
C10_3 C11_3 1_555 1_555
C11_3 H4_3 1_555 1_555
C12_3 C11_3 1_555 1_555
H5_3 C12_3 1_555 1_555
C13_3 C12_3 1_555 1_555
H6_3 C13_3 1_555 1_555
C14_3 C13_3 1_555 1_555
C16_3 C14_3 1_555 1_555
O10_2 C1_3 1_555 1_555
O2_3 C1_3 1_555 1_555
O8_3 C16_3 1_555 1_555
Zn4_3 O8_3 1_555 1_555
Zn5_2 O2_3 1_555 1_555
C10_3 C15_3 1_555 1_555
C14_3 C15_3 1_555 1_555
O3_3 Zn5_2 1_555 1_555
H2_3 C4_3 1_555 1_555
C5_3 C4_3 1_555 1_555
H3_3 C5_3 1_555 1_555
C6_3 C5_3 1_555 1_555
C8_3 C6_3 1_555 1_555
C20_3 C19_3 1_555 1_555
H9_3 C20_3 1_555 1_555
C21_3 C20_3 1_555 1_555
H10_3 C21_3 1_555 1_555
O4_3 C9_3 1_555 1_555
O5_3 C8_3 1_555 1_555
O6_3 C8_3 1_555 1_555
Zn3_2 N1_3 1_555 1_555
O15_3 Zn3_2 1_555 1_555
Zn6_2 O5_3 1_555 1_555
C6_3 C7_3 1_555 1_555
C21_3 N1_3 1_555 1_555
O4_3 Zn3_2 1_555 1_555
O6_3 Zn6_2 1_555 1_555
C17_2 H7_2 1_555 1_555
C18_2 C17_2 1_555 1_555
H8_2 C18_2 1_555 1_555
C22_3 H11_3 1_555 1_555
C23_3 C22_3 1_555 1_555
H12_3 C23_3 1_555 1_555
C24_3 C23_3 1_555 1_555
C25_3 C24_3 1_555 1_555
H13_3 C25_3 1_555 1_555
C26_3 C25_3 1_555 1_555
H14_3 C26_3 1_555 1_555
N3_2 C24_3 1_555 1_555
N4_3 C22_3 1_555 1_555
O9_3 H15_3 1_555 1_555
H16_3 O9_3 1_555 1_555
Zn2_3 N4_3 1_555 1_555
O11_3 Zn2_3 1_555 1_555
O12_3 Zn2_3 1_555 1_555
O13_3 Zn2_3 1_555 1_555
O14_3 Zn2_3 1_555 1_555
C26_3 N4_3 1_555 1_555
N2_2 N3_2 1_555 1_555
O9_3 Zn2_3 1_555 1_555
C1_4 C2_4 1_555 1_555
C2_4 C3_4 1_555 1_555
C3_4 H1_4 1_555 1_555
C10_4 C11_4 1_555 1_555
C11_4 H4_4 1_555 1_555
C12_4 C11_4 1_555 1_555
H5_4 C12_4 1_555 1_555
C13_4 C12_4 1_555 1_555
C14_4 C13_4 1_555 1_555
C16_4 C14_4 1_555 1_555
O10 C1_4 1_555 1_555
O2_4 C1_4 1_555 1_555
Zn5 O2_4 1_555 1_555
C10_4 C15_4 1_555 1_555
C14_4 C15_4 1_555 1_555
O3_4 Zn5 1_555 1_555
Zn4_4 O8_4 1_555 1_555
H2_4 C4_4 1_555 1_555
C5_4 C4_4 1_555 1_555
H3_4 C5_4 1_555 1_555
C6_4 C5_4 1_555 1_555
C8_4 C6_4 1_555 1_555
C17_3 H7_3 1_555 1_555
C18_3 C17_3 1_555 1_555
H8_3 C18_3 1_555 1_555
C19_4 C18_3 1_555 1_555
C20_4 C19_4 1_555 1_555
H9_4 C20_4 1_555 1_555
C21_4 C20_4 1_555 1_555
H10_4 C21_4 1_555 1_555
C22_4 H11_4 1_555 1_555
C23_4 C22_4 1_555 1_555
H12_4 C23_4 1_555 1_555
C24_4 C23_4 1_555 1_555
C25_4 C24_4 1_555 1_555
H13_4 C25_4 1_555 1_555
C26_4 C25_4 1_555 1_555
H14_4 C26_4 1_555 1_555
N1_4 C17_3 1_555 1_555
N2_3 C19_4 1_555 1_555
N3_3 C24_4 1_555 1_555
N4_4 C22_4 1_555 1_555
O4_4 C9_4 1_555 1_555
O5_4 C8_4 1_555 1_555
O6_4 C8_4 1_555 1_555
O9_4 H15_4 1_555 1_555
H16_4 O9_4 1_555 1_555
Zn3 N1_4 1_555 1_555
Zn2_4 N4_4 1_555 1_555
O11_4 Zn2_4 1_555 1_555
O12_4 Zn2_4 1_555 1_555
O13_4 Zn2_4 1_555 1_555
O14_4 Zn2_4 1_555 1_555
O15_4 Zn3 1_555 1_555
Zn6 O5_4 1_555 1_555
C6_4 C7_4 1_555 1_555
C21_4 N1_4 1_555 1_555
C26_4 N4_4 1_555 1_555
N2_3 N3_3 1_555 1_555
O4_4 Zn3 1_555 1_555
O6_4 Zn6 1_555 1_555
O9_4 Zn2_4 1_555 1_555
C22_5 H11_5 1_555 1_555
C23_5 C22_5 1_555 1_555
H12_5 C23_5 1_555 1_555
C24_5 C23_5 1_555 1_555
C25_5 C24_5 1_555 1_555
H13_5 C25_5 1_555 1_555
C26_5 C25_5 1_555 1_555
H14_5 C26_5 1_555 1_555
N4_5 C22_5 1_555 1_555
O9_5 H15_5 1_555 1_555
H16_5 O9_5 1_555 1_555
Zn6 N4_5 1_555 1_555
C26_5 N4_5 1_555 1_555
O9_5 Zn6 1_555 1_555
C1_5 C2_5 1_555 1_555
C2_5 C3_5 1_555 1_555
C3_5 H1_5 1_555 1_555
C4_5 C3_5 1_555 1_555
H2_5 C4_5 1_555 1_555
C5_5 C4_5 1_555 1_555
H3_5 C5_5 1_555 1_555
C6_5 C5_5 1_555 1_555
C7_5 C2_5 1_555 1_555
C8_5 C6_5 1_555 1_555
C9_5 C10_5 1_555 1_555
C10_5 C11_5 1_555 1_555
C11_5 H4_5 1_555 1_555
C12_5 C11_5 1_555 1_555
H5_5 C12_5 1_555 1_555
C13_5 C12_5 1_555 1_555
H6_5 C13_5 1_555 1_555
C14_5 C13_5 1_555 1_555
C15_5 C7_5 1_555 1_555
C16_5 C14_5 1_555 1_555
C20_5 C19_5 1_555 1_555
H9_5 C20_5 1_555 1_555
C21_5 C20_5 1_555 1_555
H10_5 C21_5 1_555 1_555
O1_3 C1_5 1_555 1_555
O11 C1_5 1_555 1_555
O12 C9_5 1_555 1_555
O4_5 C9_5 1_555 1_555
O13_4 C8_5 1_555 1_555
O14_4 C8_5 1_555 1_555
O7_5 C16_5 1_555 1_555
O15_2 C16_5 1_555 1_555
Zn4_2 N1_5 1_555 1_555
O10_3 Zn4_2 1_555 1_555
Zn4_3 O1_3 1_555 1_555
C6_5 C7_5 1_555 1_555
C10_5 C15_5 1_555 1_555
C14_5 C15_5 1_555 1_555
C21_5 N1_5 1_555 1_555
O4_5 Zn4_2 1_555 1_555
C1_6 C2_6 1_555 1_555
C2_6 C3_6 1_555 1_555
C3_6 H1_6 1_555 1_555
C4_6 C3_6 1_555 1_555
H2_6 C4_6 1_555 1_555
C5_6 C4_6 1_555 1_555
H3_6 C5_6 1_555 1_555
C6_6 C5_6 1_555 1_555
C7_6 C2_6 1_555 1_555
C8_6 C6_6 1_555 1_555
C9_6 C10_6 1_555 1_555
C10_6 C11_6 1_555 1_555
C11_6 H4_6 1_555 1_555
C12_6 C11_6 1_555 1_555
H5_6 C12_6 1_555 1_555
C13_6 C12_6 1_555 1_555
C14_6 C13_6 1_555 1_555
C15_6 C7_6 1_555 1_555
C16_6 C14_6 1_555 1_555
C17_4 H7_4 1_555 1_555
C18_4 C17_4 1_555 1_555
H8_4 C18_4 1_555 1_555
C19_6 C18_4 1_555 1_555
C20_6 C19_6 1_555 1_555
H9_6 C20_6 1_555 1_555
C21_6 C20_6 1_555 1_555
H10_6 C21_6 1_555 1_555
N1_6 C17_4 1_555 1_555
N2_4 C19_6 1_555 1_555
O1_4 C1_6 1_555 1_555
O11_2 C1_6 1_555 1_555
O12_2 C9_6 1_555 1_555
O4_6 C9_6 1_555 1_555
O13_3 C8_6 1_555 1_555
O14_3 C8_6 1_555 1_555
O7_6 C16_6 1_555 1_555
Zn4 N1_6 1_555 1_555
O10_4 Zn4 1_555 1_555
Zn4_4 O1_4 1_555 1_555
C6_6 C7_6 1_555 1_555
C10_6 C15_6 1_555 1_555
C14_6 C15_6 1_555 1_555
C21_6 N1_6 1_555 1_555
N2_4 N3_4 1_555 1_555
O4_6 Zn4 1_555 1_555
C22_6 H11_6 1_555 1_555
C23_6 C22_6 1_555 1_555
H12_6 C23_6 1_555 1_555
C24_6 C23_6 1_555 1_555
C25_6 C24_6 1_555 1_555
H13_6 C25_6 1_555 1_555
C26_6 C25_6 1_555 1_555
H14_6 C26_6 1_555 1_555
N4_6 C22_6 1_555 1_555
O9_6 H15_6 1_555 1_555
H16_6 O9_6 1_555 1_555
Zn6_2 N4_6 1_555 1_555
C26_6 N4_6 1_555 1_555
O9_6 Zn6_2 1_555 1_555
C17_5 H7_5 1_555 1_555
C18_5 C17_5 1_555 1_555
H8_5 C18_5 1_555 1_555
C22_7 H11_7 1_555 1_555
C23_7 C22_7 1_555 1_555
H12_7 C23_7 1_555 1_555
C24_7 C23_7 1_555 1_555
C25_7 C24_7 1_555 1_555
H13_7 C25_7 1_555 1_555
C26_7 C25_7 1_555 1_555
H14_7 C26_7 1_555 1_555
N3_5 C24_7 1_555 1_555
N4_7 C22_7 1_555 1_555
O9_7 H15_7 1_555 1_555
H16_7 O9_7 1_555 1_555
Zn5_2 N4_7 1_555 1_555
C26_7 N4_7 1_555 1_555
N2_5 N3_5 1_555 1_555
O9_7 Zn5_2 1_555 1_555
H2_7 C4_7 1_555 1_555
C5_7 C4_7 1_555 1_555
H3_7 C5_7 1_555 1_555
C6_7 C5_7 1_555 1_555
C8_7 C6_7 1_555 1_555
C20_7 C19_7 1_555 1_555
H9_7 C20_7 1_555 1_555
C21_7 C20_7 1_555 1_555
H10_7 C21_7 1_555 1_555
O4_7 C9_7 1_555 1_555
O13_2 C8_7 1_555 1_555
O14_2 C8_7 1_555 1_555
Zn4_4 N1_7 1_555 1_555
C6_7 C7_7 1_555 1_555
C21_7 N1_7 1_555 1_555
O4_7 Zn4_4 1_555 1_555
C1_7 C2_7 1_555 1_555
C2_7 C3_7 1_555 1_555
C3_7 H1_7 1_555 1_555
C10_7 C11_7 1_555 1_555
C11_7 H4_7 1_555 1_555
C12_7 C11_7 1_555 1_555
H5_7 C12_7 1_555 1_555
C13_7 C12_7 1_555 1_555
H6_7 C13_7 1_555 1_555
C14_7 C13_7 1_555 1_555
C16_7 C14_7 1_555 1_555
O10_4 C1_7 1_555 1_555
O11_3 C1_7 1_555 1_555
O15_4 C16_7 1_555 1_555
C10_7 C15_7 1_555 1_555
C14_7 C15_7 1_555 1_555
H2_8 C4_8 1_555 1_555
C5_8 C4_8 1_555 1_555
H3_8 C5_8 1_555 1_555
C6_8 C5_8 1_555 1_555
C8_8 C6_8 1_555 1_555
C17_6 H7_6 1_555 1_555
C18_6 C17_6 1_555 1_555
H8_6 C18_6 1_555 1_555
C19_8 C18_6 1_555 1_555
C20_8 C19_8 1_555 1_555
H9_8 C20_8 1_555 1_555
C21_8 C20_8 1_555 1_555
H10_8 C21_8 1_555 1_555
C22_8 H11_8 1_555 1_555
C23_8 C22_8 1_555 1_555
H12_8 C23_8 1_555 1_555
C24_8 C23_8 1_555 1_555
C25_8 C24_8 1_555 1_555
H13_8 C25_8 1_555 1_555
C26_8 C25_8 1_555 1_555
H14_8 C26_8 1_555 1_555
N1_8 C17_6 1_555 1_555
N2_6 C19_8 1_555 1_555
N3_6 C24_8 1_555 1_555
N4_8 C22_8 1_555 1_555
O4_8 C9_8 1_555 1_555
O13 C8_8 1_555 1_555
O14 C8_8 1_555 1_555
O9_8 H15_8 1_555 1_555
H16_8 O9_8 1_555 1_555
Zn4_3 N1_8 1_555 1_555
Zn5 N4_8 1_555 1_555
C6_8 C7_8 1_555 1_555
C21_8 N1_8 1_555 1_555
C26_8 N4_8 1_555 1_555
N2_6 N3_6 1_555 1_555
O4_8 Zn4_3 1_555 1_555
O9_8 Zn5 1_555 1_555
C1_8 C2_8 1_555 1_555
C2_8 C3_8 1_555 1_555
C3_8 H1_8 1_555 1_555
C10_8 C11_8 1_555 1_555
C11_8 H4_8 1_555 1_555
C12_8 C11_8 1_555 1_555
H5_8 C12_8 1_555 1_555
C13_8 C12_8 1_555 1_555
C14_8 C13_8 1_555 1_555
C16_8 C14_8 1_555 1_555
O10_3 C1_8 1_555 1_555
O11_4 C1_8 1_555 1_555
C10_8 C15_8 1_555 1_555
C14_8 C15_8 1_555 1_555
C17_7 H7_7 1_555 1_555
C18_7 C17_7 1_555 1_555
H8_7 C18_7 1_555 1_555
N2_7 N3_7 1_555 1_555
C17_8 H7_8 1_555 1_555
C18_8 C17_8 1_555 1_555
H8_8 C18_8 1_555 1_555
N2_8 N3_8 1_555 1_555

#END
