
###############################################################################
#
# This file contains modified crystal structure data generated from the
# MOF subset of the Cambridge Structural Database (CSD) v543 
# hosted by the Cambridge Crystallographic Data Centre (CCDC).
#
# This work is licensed under the Creative Commons
# Attribution-NonCommercial-ShareAlike 4.0 International License.
# To view a copy of this license, visit
# http://creativecommons.org/licenses/by-nc-sa/4.0/
# or send a letter to
# Creative Commons, PO Box 1866, Mountain View, CA 94042, USA.
#
# CIF created using the CSD Python API on 29 September 2022
# The structure has been converted into the P1 space group
# The structure has a 3D framework
# The original CSD entry UBIBUF is in the trigonal crystal system
# The framework has been calculated to contain at least 10.0% void space
# The void calculation uses a probe of radius 1.32A, grid spacing 0.4
#
###############################################################################

data_UBIBUF
_chemical_formula_moiety         '(C144 H90 N18 O86 Zn18)n'
_symmetry_cell_setting           triclinic
_symmetry_space_group_name_H-M   'P 1'
_symmetry_Int_Tables_number      1
_space_group_name_Hall           'P 1'
loop_
_symmetry_equiv_pos_site_id
_symmetry_equiv_pos_as_xyz
1 x,y,z
_cell_length_a                   23.0687(14)
_cell_length_b                   23.0687(14)
_cell_length_c                   20.7587(17)
_cell_angle_alpha                90
_cell_angle_beta                 90
_cell_angle_gamma                120
_cell_volume                     9567.03
loop_
_atom_site_label
_atom_site_type_symbol
_atom_site_fract_x
_atom_site_fract_y
_atom_site_fract_z
Zn1 Zn 0.18444(3) 0.40745(3) 0.18072(3)
Zn2 Zn 0.11137(4) 0.25928(4) 0.15279(4)
Zn3 Zn 0.07413(4) 0.53033(6) 0.48560(5)
C1 C 0.0014(3) 0.3036(5) 0.2969(4)
C2 C 0.0128(4) 0.3551(5) 0.3324(3)
H1 H 0.0547 0.3955 0.3314
C7 C 0.0562(3) 0.3088(4) 0.2446(4)
C16 C 0.3014(6) 0.3667(6) 0.0449(3)
C17 C 0.3606(5) 0.4238(5) 0.0486(4)
H7 H 0.3657 0.4575 0.0780
C18 C 0.4158(5) 0.4348(5) 0.0095(4)
C21 C 0.2940(5) 0.3148(5) 0.0053(3)
H9 H 0.2528 0.2737 0.0036
C23 C 0.2382(4) 0.3494(4) 0.0898(3)
O1 O 0.1062(2) 0.3713(3) 0.2426(2)
O2 O 0.0526(3) 0.2598(3) 0.2248(3)
O3 O 0.0287(3) 0.4509(3) 0.4245(4)
O9 O 0.1919(4) 0.2941(4) 0.0916(3)
O10 O 0.2471(3) 0.4052(3) 0.1160(2)
O13 O 0.2190(3) 0.5051(3) 0.1889(2)
H10 H 0.2559 0.5235 0.2093
H11 H 0.1904 0.5107 0.2095
O14 O 0.0651(6) 0.1614(4) 0.1380(4)
H12 H 0.0652 0.1537 0.0980
H13 H 0.0250 0.1447 0.1511
O15 O 0.1686(3) 0.5485(3) 0.4731(4)
H14 H 0.1765 0.5227 0.4461
H15 H 0.2028 0.5823 0.4944
N3 N 0.4761(4) 0.4946(4) 0.0211(3)
C28 C 0.5885(6) 0.6182(6) 0.0277(4)
H17 H 0.5500 0.6146 0.0482
C29 C 0.6493(6) 0.6750(5) 0.0335(4)
C31 C 0.6678(6) 0.7377(6) 0.0821(3)
O18 O 0.6073(4) 0.7230(3) 0.1070(2)
O19 O 0.7208(4) 0.7842(4) 0.0869(3)
Zn7 Zn 0.59255(3) 0.77699(4) 0.18072(3)
Zn11 Zn 0.74072(4) 0.85209(6) 0.15279(4)
O31 O 0.0806(3) 0.6003(3) 0.5499(3)
O33 O 0.0478(2) 0.4623(4) 0.5555(3)
O35 O 0.0600(3) 0.5852(5) 0.4157(4)
O37 O 0.2373(4) 0.3893(3) 0.2465(2)
O38 O 0.1871(4) 0.2810(3) 0.2234(3)
O42 O 0.1157(5) 0.3927(4) 0.1070(2)
O44 O 0.0634(6) 0.2792(4) 0.0869(3)
C19 C 0.4115(6) 0.3818(6) 0.9723(4)
H8 H 0.4500 0.3854 0.9518
C20 C 0.3507(6) 0.3250(5) 0.9665(4)
C22 C 0.3322(6) 0.2623(6) 0.9179(3)
O11 O 0.3927(4) 0.2770(3) 0.8930(2)
O12 O 0.2792(4) 0.2158(4) 0.9131(3)
C25 C 0.6986(6) 0.6333(6) 0.9551(3)
C26 C 0.6394(5) 0.5762(5) 0.9514(4)
H16 H 0.6343 0.5425 0.9220
C27 C 0.5842(5) 0.5652(5) 0.9905(4)
C30 C 0.7060(5) 0.6852(5) 0.9947(3)
H18 H 0.7472 0.7263 0.9964
C32 C 0.7618(4) 0.6506(4) 0.9102(3)
O16 O 0.8081(4) 0.7059(4) 0.9084(3)
O17 O 0.7529(3) 0.5948(3) 0.8840(2)
N4 N 0.5239(4) 0.5054(4) 0.9789(3)
Zn9 Zn 0.81556(3) 0.59255(3) 0.81928(3)
Zn10 Zn 0.40745(3) 0.22301(4) 0.81928(3)
Zn13 Zn 0.88863(4) 0.74072(4) 0.84721(4)
Zn14 Zn 0.25928(4) 0.14791(6) 0.84721(4)
C40 C 0.0465(4) 0.7222(6) 0.2919(4)
C45 C 0.0486(4) 0.6719(7) 0.3281(4)
H24 H 0.0866 0.6663 0.3251
C46 C 0.1001(5) 0.7718(7) 0.2514(5)
O26 O 0.1520(2) 0.7627(4) 0.2465(2)
O27 O 0.0939(3) 0.8129(4) 0.2234(3)
Zn8 Zn 0.22301(4) 0.81556(3) 0.18072(3)
Zn12 Zn 0.14791(6) 0.88863(4) 0.15279(4)
C3 C 0.9618(4) 0.3507(5) 0.3758(5)
C4 C 0.8992(4) 0.2877(5) 0.3764(5)
H2 H 0.8648 0.2819 0.4053
C5 C 0.8892(3) 0.2390(5) 0.3380(5)
C6 C 0.9383(4) 0.2400(5) 0.2927(4)
H3 H 0.9304 0.2044 0.2644
C9 C 0.7384(5) 0.0175(4) 0.2878(4)
H4 H 0.7733 0.0236 0.2594
C10 C 0.7447(5) 0.0694(5) 0.3279(5)
C11 C 0.7000(5) 0.0648(5) 0.3647(4)
H5 H 0.7090 0.1018 0.3914
C12 C 0.6341(5) 0.0043(4) 0.3685(3)
C15 C 0.5796(5) 0.0015(4) 0.4049(2)
C24 C 0.9673(5) 0.4032(5) 0.4167(3)
O4 O 0.9194(3) 0.3997(3) 0.4501(3)
O5 O 0.5855(3) 0.0478(2) 0.4445(3)
N1 N 0.8198(7) 0.1764(6) 0.3471(4)
N2 N 0.8202(4) 0.1356(4) 0.3174(4)
Zn18 Zn 0.92587(4) 0.46967(6) 0.51440(5)
Zn20 Zn 0.54380(7) 0.07413(4) 0.51440(5)
C8 C 0.6757(5) 0.9535(4) 0.2919(4)
C13 C 0.6233(6) 0.9514(4) 0.3281(4)
H6 H 0.5797 0.9134 0.3251
C14 C 0.6717(5) 0.8999(5) 0.2514(5)
O6 O 0.5252(4) 0.9400(3) 0.4157(4)
O7 O 0.6107(3) 0.8480(2) 0.2465(2)
O8 O 0.7190(3) 0.9061(3) 0.2234(3)
Zn6 Zn 0.46967(6) 0.54380(7) 0.48560(5)
C33 C 0.6964(5) 0.6978(6) 0.2969(4)
C34 C 0.6449(5) 0.6577(6) 0.3324(3)
H19 H 0.6045 0.6592 0.3314
C35 C 0.6493(5) 0.6111(6) 0.3758(5)
C36 C 0.7123(5) 0.6115(6) 0.3764(5)
H20 H 0.7181 0.5829 0.4053
C37 C 0.7610(5) 0.6502(6) 0.3380(5)
C38 C 0.7600(5) 0.6983(6) 0.2927(4)
H21 H 0.7956 0.7260 0.2644
C39 C 0.6912(4) 0.7474(5) 0.2446(4)
C41 C 0.9825(4) 0.7209(6) 0.2878(4)
H22 H 0.9764 0.7497 0.2594
C42 C 0.9306(5) 0.6753(7) 0.3279(5)
C43 C 0.9352(5) 0.6352(7) 0.3647(4)
H23 H 0.8982 0.6072 0.3914
C44 C 0.9957(4) 0.6298(6) 0.3685(3)
C47 C 0.9985(4) 0.5781(6) 0.4049(2)
C48 C 0.5968(5) 0.5641(7) 0.4167(3)
O20 O 0.6287(3) 0.7349(4) 0.2426(2)
O21 O 0.7402(3) 0.7928(4) 0.2248(3)
O22 O 0.5491(3) 0.5778(4) 0.4245(4)
O23 O 0.6003(3) 0.5197(4) 0.4501(3)
O24 O 0.9522(2) 0.5377(4) 0.4445(3)
O28 O 0.4949(3) 0.7139(4) 0.1889(2)
H25 H 0.4765 0.7324 0.2093
H26 H 0.4893 0.6797 0.2095
O29 O 0.8386(4) 0.9037(7) 0.1380(4)
H27 H 0.8463 0.9115 0.0980
H28 H 0.8553 0.8803 0.1511
O30 O 0.4515(3) 0.6201(4) 0.4731(4)
H29 H 0.4773 0.6538 0.4461
H30 H 0.4177 0.6205 0.4944
N5 N 0.8236(6) 0.6434(9) 0.3471(4)
N6 N 0.8644(4) 0.6846(6) 0.3174(4)
Zn16 Zn 0.45620(7) 0.92587(4) 0.48560(5)
Zn19 Zn 0.53033(6) 0.45620(7) 0.51440(5)
O32 O 0.3997(3) 0.4803(4) 0.5499(3)
O34 O 0.5377(4) 0.5855(3) 0.5555(3)
O36 O 0.4148(5) 0.4748(4) 0.4157(4)
O39 O 0.7059(4) 0.8978(6) 0.0916(3)
O40 O 0.5948(3) 0.8419(4) 0.1160(2)
C35_2 C 0.3889(6) 0.0382(8) 0.3758(5)
C36_2 C 0.3885(6) 0.1008(8) 0.3764(5)
H20_2 H 0.4171 0.1352 0.4053
C37_2 C 0.3498(6) 0.1108(8) 0.3380(5)
C38_2 C 0.3017(6) 0.0617(8) 0.2927(4)
H21_2 H 0.2740 0.0696 0.2644
C40_2 C 0.2778(6) 0.3243(7) 0.2919(4)
C41_2 C 0.2791(6) 0.2616(7) 0.2878(4)
H22_2 H 0.2503 0.2267 0.2594
C42_2 C 0.3247(7) 0.2553(9) 0.3279(5)
C43_2 C 0.3648(7) 0.3000(9) 0.3647(4)
H23_2 H 0.3928 0.2910 0.3914
C44_2 C 0.3702(6) 0.3659(7) 0.3685(3)
C45_2 C 0.3281(7) 0.3767(8) 0.3281(4)
H24_2 H 0.3337 0.4203 0.3251
C46_2 C 0.2282(7) 0.3283(9) 0.2514(5)
C47_2 C 0.4219(6) 0.4204(7) 0.4049(2)
C48_2 C 0.4359(7) 0.0327(9) 0.4167(3)
O23_2 O 0.4803(4) 0.0806(5) 0.4501(3)
O24_2 O 0.4623(4) 0.4145(4) 0.4445(3)
N5_2 N 0.3566(9) 0.1802(11) 0.3471(4)
N6_2 N 0.3154(6) 0.1798(7) 0.3174(4)
C33_2 C 0.3022(6) 0.9986(8) 0.2969(4)
C34_2 C 0.3423(6) 0.9872(8) 0.3324(3)
H19_2 H 0.3408 0.9453 0.3314
C39_2 C 0.2526(5) 0.9438(6) 0.2446(4)
O20_2 O 0.2651(4) 0.8938(5) 0.2426(2)
O21_2 O 0.2072(4) 0.9474(5) 0.2248(3)
O22_2 O 0.4222(4) 0.9713(5) 0.4245(4)
O28_2 O 0.2861(4) 0.7810(5) 0.1889(2)
H25_2 H 0.2676 0.7441 0.2093
H26_2 H 0.3203 0.8096 0.2095
O29_2 O 0.0963(7) 0.9349(8) 0.1380(4)
H27_2 H 0.0885 0.9348 0.0980
H28_2 H 0.1197 0.9750 0.1511
O30_2 O 0.3799(4) 0.8314(5) 0.4731(4)
H29_2 H 0.3462 0.8235 0.4461
H30_2 H 0.3795 0.7972 0.4944
O32_2 O 0.5197(4) 0.9194(5) 0.5499(3)
O34_2 O 0.4145(3) 0.9522(5) 0.5555(3)
O39_2 O 0.1022(6) 0.8081(7) 0.0916(3)
O40_2 O 0.1581(4) 0.7529(5) 0.1160(2)
O41 O 0.2770(3) 0.8843(5) 0.1070(2)
O43 O 0.2158(4) 0.9366(6) 0.0869(3)
C19_2 C 0.6182(6) 0.0297(8) 0.9723(4)
H8_2 H 0.6146 0.0646 0.9518
C20_2 C 0.6750(5) 0.0257(8) 0.9665(4)
C22_2 C 0.7377(6) 0.0699(8) 0.9179(3)
O11_2 O 0.7230(3) 0.1157(5) 0.8930(2)
O12_2 O 0.7842(4) 0.0634(6) 0.9131(3)
C25_2 C 0.3667(6) 0.0653(8) 0.9551(3)
C26_2 C 0.4238(5) 0.0632(7) 0.9514(4)
H16_2 H 0.4575 0.0918 0.9220
C27_2 C 0.4348(5) 0.0190(7) 0.9905(4)
C30_2 C 0.3148(5) 0.0208(7) 0.9947(3)
H18_2 H 0.2737 0.0209 0.9964
C32_2 C 0.3494(4) 0.1112(6) 0.9102(3)
O16_2 O 0.2941(4) 0.1022(6) 0.9084(3)
O17_2 O 0.4052(3) 0.1581(4) 0.8840(2)
N4_2 N 0.4946(4) 0.0185(6) 0.9789(3)
Zn10_2 Zn 0.77699(4) 0.18444(5) 0.81928(3)
Zn14_2 Zn 0.85209(6) 0.11137(7) 0.84721(4)
C16_2 C 0.6333(6) 0.9347(8) 0.0449(3)
C17_2 C 0.5762(5) 0.9368(7) 0.0486(4)
H7_2 H 0.5425 0.9082 0.0780
C18_2 C 0.5652(5) 0.9810(7) 0.0095(4)
C21_2 C 0.6852(5) 0.9792(7) 0.0053(3)
H9_2 H 0.7263 0.9791 0.0036
C23_2 C 0.6506(4) 0.8888(6) 0.0898(3)
N3_2 N 0.5054(4) 0.9815(6) 0.0211(3)
C28_2 C 0.3818(6) 0.9703(8) 0.0277(4)
H17_2 H 0.3854 0.9354 0.0482
C29_2 C 0.3250(5) 0.9743(8) 0.0335(4)
C31_2 C 0.2623(6) 0.9301(8) 0.0821(3)
C16_3 C 0.0653(8) 0.6986(6) 0.0449(3)
C17_3 C 0.0632(7) 0.6394(5) 0.0486(4)
H7_3 H 0.0918 0.6343 0.0780
C18_3 C 0.0190(7) 0.5842(5) 0.0095(4)
C21_3 C 0.0208(7) 0.7060(5) 0.0053(3)
H9_3 H 0.0209 0.7472 0.0036
C23_3 C 0.1112(6) 0.7618(4) 0.0898(3)
N3_3 N 0.0185(6) 0.5239(4) 0.0211(3)
C28_3 C 0.0297(8) 0.4115(6) 0.0277(4)
H17_3 H 0.0646 0.4500 0.0482
C29_3 C 0.0257(8) 0.3507(6) 0.0335(4)
C31_3 C 0.0699(8) 0.3322(6) 0.0821(3)
C19_3 C 0.9703(8) 0.5885(6) 0.9723(4)
H8_3 H 0.9354 0.5500 0.9518
C20_3 C 0.9743(8) 0.6493(6) 0.9665(4)
C22_3 C 0.9301(8) 0.6678(6) 0.9179(3)
O11_3 O 0.8843(5) 0.6073(4) 0.8930(2)
O12_3 O 0.9366(6) 0.7208(4) 0.9131(3)
C25_3 C 0.9347(8) 0.3014(6) 0.9551(3)
C26_3 C 0.9368(7) 0.3606(5) 0.9514(4)
H16_3 H 0.9082 0.3657 0.9220
C27_3 C 0.9810(7) 0.4158(5) 0.9905(4)
C30_3 C 0.9792(7) 0.2940(5) 0.9947(3)
H18_3 H 0.9791 0.2528 0.9964
C32_3 C 0.8888(6) 0.2382(4) 0.9102(3)
O16_3 O 0.8978(6) 0.1919(4) 0.9084(3)
O17_3 O 0.8419(4) 0.2471(3) 0.8840(2)
N4_3 N 0.9815(6) 0.4761(4) 0.9789(3)
C8_2 C 0.3243(5) 0.0465(4) 0.7081(4)
C13_2 C 0.3767(6) 0.0486(4) 0.6719(4)
H6_2 H 0.4203 0.0866 0.6749
C14_2 C 0.3283(5) 0.1001(5) 0.7486(5)
O6_2 O 0.4748(4) 0.0600(3) 0.5843(4)
O7_2 O 0.3893(3) 0.1520(2) 0.7535(2)
O8_2 O 0.2810(3) 0.0939(3) 0.7766(3)
C33_3 C 0.3036(5) 0.3022(6) 0.7031(4)
C34_3 C 0.3551(5) 0.3423(6) 0.6676(3)
H19_3 H 0.3955 0.3408 0.6686
C35_3 C 0.3507(5) 0.3889(6) 0.6242(5)
C36_3 C 0.2877(5) 0.3885(6) 0.6236(5)
H20_3 H 0.2819 0.4171 0.5947
C37_3 C 0.2390(5) 0.3498(6) 0.6620(5)
C38_3 C 0.2400(5) 0.3017(6) 0.7073(4)
H21_3 H 0.2044 0.2740 0.7356
C39_3 C 0.3088(4) 0.2526(5) 0.7554(4)
C41_3 C 0.0175(4) 0.2791(6) 0.7122(4)
H22_3 H 0.0236 0.2503 0.7406
C42_3 C 0.0694(5) 0.3247(7) 0.6721(5)
C43_3 C 0.0648(5) 0.3648(7) 0.6353(4)
H23_3 H 0.1018 0.3928 0.6086
C44_3 C 0.0043(4) 0.3702(6) 0.6315(3)
C47_3 C 0.0015(4) 0.4219(6) 0.5951(2)
C48_3 C 0.4032(5) 0.4359(7) 0.5833(3)
O20_3 O 0.3713(3) 0.2651(4) 0.7574(2)
O21_3 O 0.2598(3) 0.2072(4) 0.7752(3)
O22_3 O 0.4509(3) 0.4222(4) 0.5755(4)
O28_3 O 0.5051(3) 0.2861(4) 0.8111(2)
H25_3 H 0.5235 0.2676 0.7907
H26_3 H 0.5107 0.3203 0.7905
O29_3 O 0.1614(4) 0.0963(7) 0.8620(4)
H27_3 H 0.1537 0.0885 0.9020
H28_3 H 0.1447 0.1197 0.8489
O30_3 O 0.5485(3) 0.3799(4) 0.5269(4)
H29_3 H 0.5227 0.3462 0.5539
H30_3 H 0.5823 0.3795 0.5056
N5_3 N 0.1764(6) 0.3566(9) 0.6529(4)
N6_3 N 0.1356(4) 0.3154(6) 0.6826(4)
O36_2 O 0.5852(5) 0.5252(4) 0.5843(4)
C3_2 C 0.0382(4) 0.6493(5) 0.6242(5)
C4_2 C 0.1008(4) 0.7123(5) 0.6236(5)
H2_2 H 0.1352 0.7181 0.5947
C5_2 C 0.1108(3) 0.7610(5) 0.6620(5)
C6_2 C 0.0617(4) 0.7600(5) 0.7073(4)
H3_2 H 0.0696 0.7956 0.7356
C9_2 C 0.2616(5) 0.9825(4) 0.7122(4)
H4_2 H 0.2267 0.9764 0.7406
C10_2 C 0.2553(5) 0.9306(5) 0.6721(5)
C11_2 C 0.3000(5) 0.9352(5) 0.6353(4)
H5_2 H 0.2910 0.8982 0.6086
C12_2 C 0.3659(5) 0.9957(4) 0.6315(3)
C15_2 C 0.4204(5) 0.9985(4) 0.5951(2)
C24_2 C 0.0327(5) 0.5968(5) 0.5833(3)
N1_2 N 0.1802(7) 0.8236(6) 0.6529(4)
N2_2 N 0.1798(4) 0.8644(4) 0.6826(4)
C40_3 C 0.9535(4) 0.2778(6) 0.7081(4)
C45_3 C 0.9514(4) 0.3281(7) 0.6719(4)
H24_3 H 0.9134 0.3337 0.6749
C46_3 C 0.8999(5) 0.2282(7) 0.7486(5)
O25 O 0.9400(3) 0.4148(5) 0.5843(4)
O26_2 O 0.8480(2) 0.2373(4) 0.7535(2)
O27_2 O 0.9061(3) 0.1871(4) 0.7766(3)
C1_2 C 0.9986(3) 0.6964(5) 0.7031(4)
C2_2 C 0.9872(4) 0.6449(5) 0.6676(3)
H1_2 H 0.9453 0.6045 0.6686
C7_2 C 0.9438(3) 0.6912(4) 0.7554(4)
O1_2 O 0.8938(2) 0.6287(3) 0.7574(2)
O2_2 O 0.9474(3) 0.7402(3) 0.7752(3)
O3_2 O 0.9713(3) 0.5491(3) 0.5755(4)
O13_2 O 0.7810(3) 0.4949(3) 0.8111(2)
H10_2 H 0.7441 0.4765 0.7907
H11_2 H 0.8096 0.4893 0.7905
O14_2 O 0.9349(6) 0.8386(4) 0.8620(4)
H12_2 H 0.9348 0.8463 0.9020
H13_2 H 0.9750 0.8553 0.8489
O15_2 O 0.8314(3) 0.4515(3) 0.5269(4)
H14_2 H 0.8235 0.4773 0.5539
H15_2 H 0.7972 0.4177 0.5056
O37_2 O 0.7627(4) 0.6107(3) 0.7535(2)
O38_2 O 0.8129(4) 0.7190(3) 0.7766(3)
C33_4 C 0.6978(6) 0.0014(8) 0.7031(4)
C34_4 C 0.6577(6) 0.0128(8) 0.6676(3)
H19_4 H 0.6592 0.0547 0.6686
C39_4 C 0.7474(5) 0.0562(6) 0.7554(4)
O20_4 O 0.7349(4) 0.1062(5) 0.7574(2)
O21_4 O 0.7928(4) 0.0526(5) 0.7752(3)
O22_4 O 0.5778(4) 0.0287(5) 0.5755(4)
O28_4 O 0.7139(4) 0.2190(5) 0.8111(2)
H25_4 H 0.7324 0.2559 0.7907
H26_4 H 0.6797 0.1904 0.7905
O29_4 O 0.9037(7) 0.0651(8) 0.8620(4)
H27_4 H 0.9115 0.0652 0.9020
H28_4 H 0.8803 0.0250 0.8489
O30_4 O 0.6201(4) 0.1686(5) 0.5269(4)
H29_4 H 0.6538 0.1765 0.5539
H30_4 H 0.6205 0.2028 0.5056
C35_4 C 0.6111(6) 0.9618(8) 0.6242(5)
C36_4 C 0.6115(6) 0.8992(8) 0.6236(5)
H20_4 H 0.5829 0.8648 0.5947
C37_4 C 0.6502(6) 0.8892(8) 0.6620(5)
C38_4 C 0.6983(6) 0.9383(8) 0.7073(4)
H21_4 H 0.7260 0.9304 0.7356
C40_4 C 0.7222(6) 0.6757(7) 0.7081(4)
C41_4 C 0.7209(6) 0.7384(7) 0.7122(4)
H22_4 H 0.7497 0.7733 0.7406
C42_4 C 0.6753(7) 0.7447(9) 0.6721(5)
C43_4 C 0.6352(7) 0.7000(9) 0.6353(4)
H23_4 H 0.6072 0.7090 0.6086
C44_4 C 0.6298(6) 0.6341(7) 0.6315(3)
C45_4 C 0.6719(7) 0.6233(8) 0.6719(4)
H24_4 H 0.6663 0.5797 0.6749
C46_4 C 0.7718(7) 0.6717(9) 0.7486(5)
C47_4 C 0.5781(6) 0.5796(7) 0.5951(2)
C48_4 C 0.5641(7) 0.9673(9) 0.5833(3)
N5_4 N 0.6434(9) 0.8198(11) 0.6529(4)
N6_4 N 0.6846(6) 0.8202(7) 0.6826(4)
loop_
_geom_bond_atom_site_label_1
_geom_bond_atom_site_label_2
_geom_bond_site_symmetry_1
_geom_bond_site_symmetry_2
Zn1 O1 1_555 1_555
Zn2 O2 1_555 1_555
Zn3 O3 1_555 1_555
C1 C2 1_555 1_555
C2 H1 1_555 1_555
C7 C1 1_555 1_555
C16 C17 1_555 1_555
C17 H7 1_555 1_555
C18 C17 1_555 1_555
C21 C16 1_555 1_555
H9 C21 1_555 1_555
C23 C16 1_555 1_555
O1 C7 1_555 1_555
O2 C7 1_555 1_555
O9 Zn2 1_555 1_555
O10 Zn1 1_555 1_555
O13 Zn1 1_555 1_555
H10 O13 1_555 1_555
H11 O13 1_555 1_555
O14 Zn2 1_555 1_555
H12 O14 1_555 1_555
H13 O14 1_555 1_555
O15 Zn3 1_555 1_555
H14 O15 1_555 1_555
H15 O15 1_555 1_555
N3 C18 1_555 1_555
H17 C28 1_555 1_555
C29 C28 1_555 1_555
C31 C29 1_555 1_555
O18 C31 1_555 1_555
O19 C31 1_555 1_555
Zn7 O18 1_555 1_555
Zn11 O19 1_555 1_555
O31 Zn3 1_555 1_555
O33 Zn3 1_555 1_555
O35 Zn3 1_555 1_555
O37 Zn1 1_555 1_555
O38 Zn2 1_555 1_555
O42 Zn1 1_555 1_555
O44 Zn2 1_555 1_555
C23 O9 1_555 1_555
C23 O10 1_555 1_555
H8 C19 1_555 1_555
C20 C19 1_555 1_555
C22 C20 1_555 1_555
O11 C22 1_555 1_555
O12 C22 1_555 1_555
C25 C26 1_555 1_555
C26 H16 1_555 1_555
C27 C26 1_555 1_555
C30 C25 1_555 1_555
H18 C30 1_555 1_555
C32 C25 1_555 1_555
O16 C32 1_555 1_555
O17 C32 1_555 1_555
Zn9 O17 1_555 1_555
Zn10 O11 1_555 1_555
Zn13 O16 1_555 1_555
Zn14 O12 1_555 1_555
C27 N4 1_555 1_555
C45 C40 1_555 1_555
H24 C45 1_555 1_555
C46 C40 1_555 1_555
O26 C46 1_555 1_555
O27 C46 1_555 1_555
Zn8 O26 1_555 1_555
Zn12 O27 1_555 1_555
C4 C3 1_555 1_555
H2 C4 1_555 1_555
C5 C4 1_555 1_555
H3 C6 1_555 1_555
C9 H4 1_555 1_555
C10 C9 1_555 1_555
C11 C10 1_555 1_555
H5 C11 1_555 1_555
C12 C11 1_555 1_555
C15 C12 1_555 1_555
C24 C3 1_555 1_555
O4 C24 1_555 1_555
O5 C15 1_555 1_555
N1 C5 1_555 1_555
N2 C10 1_555 1_555
Zn18 O4 1_555 1_555
Zn20 O5 1_555 1_555
C5 C6 1_555 1_555
N1 N2 1_555 1_555
C13 C8 1_555 1_555
H6 C13 1_555 1_555
C14 C8 1_555 1_555
O7 C14 1_555 1_555
O8 C14 1_555 1_555
Zn7 O7 1_555 1_555
Zn11 O8 1_555 1_555
Zn6 O22 1_555 1_555
C33 C34 1_555 1_555
C34 H19 1_555 1_555
C35 C34 1_555 1_555
C36 C35 1_555 1_555
H20 C36 1_555 1_555
C37 C36 1_555 1_555
C38 C33 1_555 1_555
H21 C38 1_555 1_555
C39 C33 1_555 1_555
C41 H22 1_555 1_555
C42 C41 1_555 1_555
C43 C42 1_555 1_555
H23 C43 1_555 1_555
C44 C43 1_555 1_555
C47 C44 1_555 1_555
C48 C35 1_555 1_555
O20 Zn7 1_555 1_555
O21 Zn11 1_555 1_555
O22 C48 1_555 1_555
O23 C48 1_555 1_555
O24 C47 1_555 1_555
O28 Zn7 1_555 1_555
H25 O28 1_555 1_555
H26 O28 1_555 1_555
O29 Zn11 1_555 1_555
H27 O29 1_555 1_555
H28 O29 1_555 1_555
O30 Zn6 1_555 1_555
H29 O30 1_555 1_555
H30 O30 1_555 1_555
N5 C37 1_555 1_555
N6 C42 1_555 1_555
Zn16 O6 1_555 1_555
Zn18 O24 1_555 1_555
Zn19 O23 1_555 1_555
O32 Zn6 1_555 1_555
O34 Zn6 1_555 1_555
O36 Zn6 1_555 1_555
O39 Zn11 1_555 1_555
O40 Zn7 1_555 1_555
C37 C38 1_555 1_555
C39 O20 1_555 1_555
C39 O21 1_555 1_555
N5 N6 1_555 1_555
C36_2 C35_2 1_555 1_555
H20_2 C36_2 1_555 1_555
C37_2 C36_2 1_555 1_555
H21_2 C38_2 1_555 1_555
C40_2 C41_2 1_555 1_555
C41_2 H22_2 1_555 1_555
C42_2 C41_2 1_555 1_555
C43_2 C42_2 1_555 1_555
H23_2 C43_2 1_555 1_555
C44_2 C43_2 1_555 1_555
C45_2 C40_2 1_555 1_555
H24_2 C45_2 1_555 1_555
C46_2 C40_2 1_555 1_555
C47_2 C44_2 1_555 1_555
C48_2 C35_2 1_555 1_555
O23_2 C48_2 1_555 1_555
O24_2 C47_2 1_555 1_555
O36 C47_2 1_555 1_555
O37 C46_2 1_555 1_555
O38 C46_2 1_555 1_555
N5_2 C37_2 1_555 1_555
N6_2 C42_2 1_555 1_555
Zn19 O24_2 1_555 1_555
Zn20 O23_2 1_555 1_555
C37_2 C38_2 1_555 1_555
C44_2 C45_2 1_555 1_555
N5_2 N6_2 1_555 1_555
Zn16 O22_2 1_555 1_555
C33_2 C34_2 1_555 1_555
C34_2 H19_2 1_555 1_555
C39_2 C33_2 1_555 1_555
O20_2 Zn8 1_555 1_555
O21_2 Zn12 1_555 1_555
O28_2 Zn8 1_555 1_555
H25_2 O28_2 1_555 1_555
H26_2 O28_2 1_555 1_555
O29_2 Zn12 1_555 1_555
H27_2 O29_2 1_555 1_555
H28_2 O29_2 1_555 1_555
O30_2 Zn16 1_555 1_555
H29_2 O30_2 1_555 1_555
H30_2 O30_2 1_555 1_555
O32_2 Zn16 1_555 1_555
O34_2 Zn16 1_555 1_555
O39_2 Zn12 1_555 1_555
O40_2 Zn8 1_555 1_555
O41 Zn8 1_555 1_555
O43 Zn12 1_555 1_555
C39_2 O20_2 1_555 1_555
C39_2 O21_2 1_555 1_555
H8_2 C19_2 1_555 1_555
C20_2 C19_2 1_555 1_555
C22_2 C20_2 1_555 1_555
O11_2 C22_2 1_555 1_555
O12_2 C22_2 1_555 1_555
C25_2 C26_2 1_555 1_555
C26_2 H16_2 1_555 1_555
C27_2 C26_2 1_555 1_555
C30_2 C25_2 1_555 1_555
H18_2 C30_2 1_555 1_555
C32_2 C25_2 1_555 1_555
O16_2 C32_2 1_555 1_555
O17_2 C32_2 1_555 1_555
Zn10 O17_2 1_555 1_555
Zn10_2 O11_2 1_555 1_555
Zn14 O16_2 1_555 1_555
Zn14_2 O12_2 1_555 1_555
C27_2 N4_2 1_555 1_555
C16_2 C17_2 1_555 1_555
C17_2 H7_2 1_555 1_555
C18_2 C17_2 1_555 1_555
C21_2 C16_2 1_555 1_555
H9_2 C21_2 1_555 1_555
C23_2 C16_2 1_555 1_555
N3_2 C18_2 1_555 1_555
H17_2 C28_2 1_555 1_555
C29_2 C28_2 1_555 1_555
C31_2 C29_2 1_555 1_555
O41 C31_2 1_555 1_555
O43 C31_2 1_555 1_555
C23_2 O39 1_555 1_555
C23_2 O40 1_555 1_555
C16_3 C17_3 1_555 1_555
C17_3 H7_3 1_555 1_555
C18_3 C17_3 1_555 1_555
C21_3 C16_3 1_555 1_555
H9_3 C21_3 1_555 1_555
C23_3 C16_3 1_555 1_555
N3_3 C18_3 1_555 1_555
H17_3 C28_3 1_555 1_555
C29_3 C28_3 1_555 1_555
C31_3 C29_3 1_555 1_555
O42 C31_3 1_555 1_555
O44 C31_3 1_555 1_555
C23_3 O39_2 1_555 1_555
C23_3 O40_2 1_555 1_555
H8_3 C19_3 1_555 1_555
C20_3 C19_3 1_555 1_555
C22_3 C20_3 1_555 1_555
O11_3 C22_3 1_555 1_555
O12_3 C22_3 1_555 1_555
C25_3 C26_3 1_555 1_555
C26_3 H16_3 1_555 1_555
C27_3 C26_3 1_555 1_555
C30_3 C25_3 1_555 1_555
H18_3 C30_3 1_555 1_555
C32_3 C25_3 1_555 1_555
O16_3 C32_3 1_555 1_555
O17_3 C32_3 1_555 1_555
Zn10_2 O17_3 1_555 1_555
Zn9 O11_3 1_555 1_555
Zn14_2 O16_3 1_555 1_555
Zn13 O12_3 1_555 1_555
C27_3 N4_3 1_555 1_555
C13_2 C8_2 1_555 1_555
H6_2 C13_2 1_555 1_555
C14_2 C8_2 1_555 1_555
O7_2 C14_2 1_555 1_555
O8_2 C14_2 1_555 1_555
Zn10 O7_2 1_555 1_555
Zn14 O8_2 1_555 1_555
Zn19 O22_3 1_555 1_555
C33_3 C34_3 1_555 1_555
C34_3 H19_3 1_555 1_555
C35_3 C34_3 1_555 1_555
C36_3 C35_3 1_555 1_555
H20_3 C36_3 1_555 1_555
C37_3 C36_3 1_555 1_555
C38_3 C33_3 1_555 1_555
H21_3 C38_3 1_555 1_555
C39_3 C33_3 1_555 1_555
C41_3 H22_3 1_555 1_555
C42_3 C41_3 1_555 1_555
C43_3 C42_3 1_555 1_555
H23_3 C43_3 1_555 1_555
C44_3 C43_3 1_555 1_555
C47_3 C44_3 1_555 1_555
C48_3 C35_3 1_555 1_555
O20_3 Zn10 1_555 1_555
O21_3 Zn14 1_555 1_555
O22_3 C48_3 1_555 1_555
O32 C48_3 1_555 1_555
O33 C47_3 1_555 1_555
O28_3 Zn10 1_555 1_555
H25_3 O28_3 1_555 1_555
H26_3 O28_3 1_555 1_555
O29_3 Zn14 1_555 1_555
H27_3 O29_3 1_555 1_555
H28_3 O29_3 1_555 1_555
O30_3 Zn19 1_555 1_555
H29_3 O30_3 1_555 1_555
H30_3 O30_3 1_555 1_555
N5_3 C37_3 1_555 1_555
N6_3 C42_3 1_555 1_555
Zn20 O6_2 1_555 1_555
O36_2 Zn19 1_555 1_555
C37_3 C38_3 1_555 1_555
C39_3 O20_3 1_555 1_555
C39_3 O21_3 1_555 1_555
N5_3 N6_3 1_555 1_555
C4_2 C3_2 1_555 1_555
H2_2 C4_2 1_555 1_555
C5_2 C4_2 1_555 1_555
H3_2 C6_2 1_555 1_555
C9_2 H4_2 1_555 1_555
C10_2 C9_2 1_555 1_555
C11_2 C10_2 1_555 1_555
H5_2 C11_2 1_555 1_555
C12_2 C11_2 1_555 1_555
C15_2 C12_2 1_555 1_555
C24_2 C3_2 1_555 1_555
O31 C24_2 1_555 1_555
O34_2 C15_2 1_555 1_555
N1_2 C5_2 1_555 1_555
N2_2 C10_2 1_555 1_555
C5_2 C6_2 1_555 1_555
N1_2 N2_2 1_555 1_555
C45_3 C40_3 1_555 1_555
H24_3 C45_3 1_555 1_555
C46_3 C40_3 1_555 1_555
O26_2 C46_3 1_555 1_555
O27_2 C46_3 1_555 1_555
Zn10_2 O26_2 1_555 1_555
Zn14_2 O27_2 1_555 1_555
Zn18 O25 1_555 1_555
Zn9 O1_2 1_555 1_555
Zn13 O2_2 1_555 1_555
Zn18 O3_2 1_555 1_555
C1_2 C2_2 1_555 1_555
C2_2 H1_2 1_555 1_555
C7_2 C1_2 1_555 1_555
O1_2 C7_2 1_555 1_555
O2_2 C7_2 1_555 1_555
O13_2 Zn9 1_555 1_555
H10_2 O13_2 1_555 1_555
H11_2 O13_2 1_555 1_555
O14_2 Zn13 1_555 1_555
H12_2 O14_2 1_555 1_555
H13_2 O14_2 1_555 1_555
O15_2 Zn18 1_555 1_555
H14_2 O15_2 1_555 1_555
H15_2 O15_2 1_555 1_555
O37_2 Zn9 1_555 1_555
O38_2 Zn13 1_555 1_555
Zn20 O22_4 1_555 1_555
C33_4 C34_4 1_555 1_555
C34_4 H19_4 1_555 1_555
C39_4 C33_4 1_555 1_555
O20_4 Zn10_2 1_555 1_555
O21_4 Zn14_2 1_555 1_555
O28_4 Zn10_2 1_555 1_555
H25_4 O28_4 1_555 1_555
H26_4 O28_4 1_555 1_555
O29_4 Zn14_2 1_555 1_555
H27_4 O29_4 1_555 1_555
H28_4 O29_4 1_555 1_555
O30_4 Zn20 1_555 1_555
H29_4 O30_4 1_555 1_555
H30_4 O30_4 1_555 1_555
C39_4 O20_4 1_555 1_555
C39_4 O21_4 1_555 1_555
C36_4 C35_4 1_555 1_555
H20_4 C36_4 1_555 1_555
C37_4 C36_4 1_555 1_555
H21_4 C38_4 1_555 1_555
C40_4 C41_4 1_555 1_555
C41_4 H22_4 1_555 1_555
C42_4 C41_4 1_555 1_555
C43_4 C42_4 1_555 1_555
H23_4 C43_4 1_555 1_555
C44_4 C43_4 1_555 1_555
C45_4 C40_4 1_555 1_555
H24_4 C45_4 1_555 1_555
C46_4 C40_4 1_555 1_555
C47_4 C44_4 1_555 1_555
C48_4 C35_4 1_555 1_555
O32_2 C48_4 1_555 1_555
O34 C47_4 1_555 1_555
O36_2 C47_4 1_555 1_555
O37_2 C46_4 1_555 1_555
O38_2 C46_4 1_555 1_555
N5_4 C37_4 1_555 1_555
N6_4 C42_4 1_555 1_555
C37_4 C38_4 1_555 1_555
C44_4 C45_4 1_555 1_555
N5_4 N6_4 1_555 1_555

#END
