
###############################################################################
#
# This file contains modified crystal structure data generated from the
# MOF subset of the Cambridge Structural Database (CSD) v543 
# hosted by the Cambridge Crystallographic Data Centre (CCDC).
#
# This work is licensed under the Creative Commons
# Attribution-NonCommercial-ShareAlike 4.0 International License.
# To view a copy of this license, visit
# http://creativecommons.org/licenses/by-nc-sa/4.0/
# or send a letter to
# Creative Commons, PO Box 1866, Mountain View, CA 94042, USA.
#
# CIF created using the CSD Python API on 29 September 2022
# The structure has been converted into the P1 space group
# The structure has a 3D framework
# The original CSD entry UBIPAY is in the triclinic crystal system
# The framework has been calculated to contain at least 10.0% void space
# The void calculation uses a probe of radius 1.32A, grid spacing 0.4
#
###############################################################################

data_UBIPAY
_chemical_formula_moiety         '(C30 H22 N2 O10)n'
_symmetry_cell_setting           triclinic
_symmetry_space_group_name_H-M   'P 1'
_symmetry_Int_Tables_number      1
_space_group_name_Hall           'P 1'
loop_
_symmetry_equiv_pos_site_id
_symmetry_equiv_pos_as_xyz
1 x,y,z
_cell_length_a                   7.8494(4)
_cell_length_b                   9.9876(6)
_cell_length_c                   12.6067(9)
_cell_angle_alpha                104.131(6)
_cell_angle_beta                 91.094(5)
_cell_angle_gamma                111.882(6)
_cell_volume                     882.686
loop_
_atom_site_label
_atom_site_type_symbol
_atom_site_fract_x
_atom_site_fract_y
_atom_site_fract_z
_atom_site_U_iso_or_equiv
_atom_site_thermal_displace_type
Mn1 Mn 0.01807(17) 0.72108(13) 0.53563(10) 0.0364 Uani
H8 H 0.0933 0.8306 0.3176 0.0570 Uiso
O10 O 0.1967(7) 0.6001(6) 0.4929(4) 0.0413 Uani
O13 O 0.2219(7) 0.9569(5) 0.5247(4) 0.0421 Uani
O16 O 0.2370(8) 0.8856(6) 0.6733(4) 0.0495 Uani
Mn7 Mn 0.98193(17) 0.27892(13) 0.46437(10) 0.0364 Uani
O12 O 0.7781(7) 0.0431(5) 0.4753(4) 0.0421 Uani
O15 O 0.7630(8) 0.1144(6) 0.3267(4) 0.0495 Uani
C20 C 0.7120(11) 0.0171(9) 0.3797(7) 0.0386 Uani
O5 O 0.8236(9) 0.8327(7) 0.5704(5) 0.0597 Uani
H1 H 0.8106 0.9164 0.5476 0.0720 Uiso
H2 H 0.7603 0.8097 0.6347 0.0720 Uiso
N1 N 0.9183(9) 0.6587(8) 0.3550(5) 0.0421 Uani
H6 H 0.5201 0.3291 0.0064 0.0490 Uiso
C10 C 0.6495(11) 0.5609(9) 0.0282(6) 0.0400 Uani
C11 C 0.9883(12) 0.7435(9) 0.2897(6) 0.0470 Uani
C12 C 0.9140(11) 0.7107(9) 0.1801(6) 0.0458 Uani
H9 H 0.9703 0.7736 0.1364 0.0550 Uiso
C13 C 0.7561(11) 0.5837(9) 0.1380(6) 0.0411 Uani
C14 C 0.6875(12) 0.4917(9) 0.2043(6) 0.0484 Uani
H10 H 0.5858 0.4017 0.1779 0.0580 Uiso
C15 C 0.7708(12) 0.5339(9) 0.3113(7) 0.0495 Uani
H11 H 0.7202 0.4706 0.3557 0.0590 Uiso
O6 O 0.1287(8) 0.4003(6) 0.3522(4) 0.0519 Uani
O7 O 0.8713(8) 0.5997(6) 0.6478(4) 0.0519 Uani
C16 C 0.2114(11) 0.5384(9) 0.3954(7) 0.0387 Uani
C17 C 0.3328(10) 0.6316(8) 0.3299(6) 0.0352 Uani
C18 C 0.4558(10) 0.7718(8) 0.3819(6) 0.0342 Uani
H14 H 0.4653 0.8064 0.4582 0.0410 Uiso
C19 C 0.5695(10) 0.8660(8) 0.3220(6) 0.0361 Uani
C21 C 0.5578(11) 0.8092(8) 0.2090(6) 0.0391 Uani
H15 H 0.6282 0.8706 0.1679 0.0470 Uiso
C22 C 0.4428(10) 0.6624(8) 0.1562(5) 0.0362 Uani
C23 C 0.3299(11) 0.5748(9) 0.2171(6) 0.0389 Uani
H16 H 0.2509 0.4766 0.1822 0.0470 Uiso
C24 C 0.4746(11) 0.6007(9) 0.0371(6) 0.0407 Uani
H18 H 0.2682 0.3866 0.0189 0.0490 Uiso
O2 O 0.8033(7) 0.3999(6) 0.5071(4) 0.0413 Uani
C1 C 0.7886(11) 0.4616(9) 0.6046(7) 0.0387 Uani
C2 C 0.6672(10) 0.3684(8) 0.6701(6) 0.0352 Uani
C3 C 0.5442(10) 0.2282(8) 0.6181(6) 0.0342 Uani
H3 H 0.5347 0.1936 0.5418 0.0410 Uiso
C4 C 0.4305(10) 0.1340(8) 0.6780(6) 0.0361 Uani
C6 C 0.4422(11) 0.1908(8) 0.7910(6) 0.0391 Uani
H4 H 0.3718 0.1294 0.8321 0.0470 Uiso
C7 C 0.5572(10) 0.3376(8) 0.8438(5) 0.0362 Uani
C8 C 0.6701(11) 0.4252(9) 0.7829(6) 0.0389 Uani
H5 H 0.7491 0.5234 0.8178 0.0470 Uiso
C9 C 0.5254(11) 0.3993(9) 0.9629(6) 0.0407 Uani
H7 H 0.7318 0.6134 0.9811 0.0490 Uiso
O18 O 0.1764(9) 0.1673(7) 0.4296(5) 0.0597 Uani
H12 H 0.1894 0.0836 0.4524 0.0720 Uiso
H13 H 0.2397 0.1903 0.3653 0.0720 Uiso
N2 N 0.0817(9) 0.3413(8) 0.6450(5) 0.0421 Uani
H17 H 0.4799 0.6709 0.9936 0.0490 Uiso
C25 C 0.3505(11) 0.4391(9) 0.9718(6) 0.0400 Uani
C26 C 0.0117(12) 0.2565(9) 0.7103(6) 0.0470 Uani
C27 C 0.0860(11) 0.2893(9) 0.8199(6) 0.0458 Uani
H20 H 0.0297 0.2264 0.8636 0.0550 Uiso
C28 C 0.2439(11) 0.4163(9) 0.8620(6) 0.0411 Uani
C29 C 0.3125(12) 0.5083(9) 0.7957(6) 0.0484 Uani
H21 H 0.4142 0.5983 0.8221 0.0580 Uiso
C30 C 0.2292(12) 0.4661(9) 0.6887(7) 0.0495 Uani
H22 H 0.2798 0.5294 0.6443 0.0590 Uiso
C5 C 0.2880(11) 0.9829(9) 0.6203(7) 0.0386 Uani
H19 H 0.9067 0.1694 0.6824 0.0570 Uiso
loop_
_atom_site_aniso_label
_atom_site_aniso_U_11
_atom_site_aniso_U_22
_atom_site_aniso_U_33
_atom_site_aniso_U_23
_atom_site_aniso_U_13
_atom_site_aniso_U_12
Mn1 0.0363 0.0337 0.031 0.005 -0.0002 0.0071
O10 0.039 0.055 0.03 0.015 0.009 0.016
O13 0.044 0.034 0.036 0 -0.008 0.008
O16 0.059 0.037 0.04 0.009 -0.001 0.006
Mn7 0.0363 0.0337 0.031 0.005 -0.0002 0.0071
O12 0.044 0.034 0.036 0 -0.008 0.008
O15 0.059 0.037 0.04 0.009 -0.001 0.006
C20 0.039 0.036 0.037 0.007 0.008 0.012
O5 0.068 0.067 0.067 0.034 0.022 0.041
N1 0.045 0.05 0.032 0.012 -0.002 0.019
C10 0.039 0.046 0.027 0.008 0.004 0.009
C11 0.046 0.046 0.042 0.007 -0.011 0.014
C12 0.041 0.04 0.04 0.008 -0.004 0
C13 0.048 0.047 0.03 0.006 0.006 0.023
C14 0.049 0.041 0.042 0.017 -0.009 0
C15 0.045 0.049 0.047 0.017 -0.002 0.008
O6 0.059 0.046 0.051 0.017 0.016 0.018
O7 0.059 0.046 0.051 0.017 0.016 0.018
C16 0.033 0.033 0.048 0.009 0.003 0.012
C17 0.041 0.034 0.03 0.008 0.01 0.014
C18 0.04 0.03 0.025 -0.002 0.004 0.011
C19 0.033 0.034 0.029 0 0.001 0.005
C21 0.042 0.033 0.036 0.012 0.006 0.006
C22 0.041 0.04 0.023 0.002 0.002 0.015
C23 0.042 0.034 0.041 0.012 0.003 0.014
C24 0.038 0.044 0.032 0.009 -0.001 0.008
O2 0.039 0.055 0.03 0.015 0.009 0.016
C1 0.033 0.033 0.048 0.009 0.003 0.012
C2 0.041 0.034 0.03 0.008 0.01 0.014
C3 0.04 0.03 0.025 -0.002 0.004 0.011
C4 0.033 0.034 0.029 0 0.001 0.005
C6 0.042 0.033 0.036 0.012 0.006 0.006
C7 0.041 0.04 0.023 0.002 0.002 0.015
C8 0.042 0.034 0.041 0.012 0.003 0.014
C9 0.038 0.044 0.032 0.009 -0.001 0.008
O18 0.068 0.067 0.067 0.034 0.022 0.041
N2 0.045 0.05 0.032 0.012 -0.002 0.019
C25 0.039 0.046 0.027 0.008 0.004 0.009
C26 0.046 0.046 0.042 0.007 -0.011 0.014
C27 0.041 0.04 0.04 0.008 -0.004 0
C28 0.048 0.047 0.03 0.006 0.006 0.023
C29 0.049 0.041 0.042 0.017 -0.009 0
C30 0.045 0.049 0.047 0.017 -0.002 0.008
C5 0.039 0.036 0.037 0.007 0.008 0.012
loop_
_geom_bond_atom_site_label_1
_geom_bond_atom_site_label_2
_geom_bond_site_symmetry_1
_geom_bond_site_symmetry_2
O10 Mn1 1_555 1_555
O13 Mn1 1_555 1_555
O16 Mn1 1_555 1_555
Mn7 O12 1_555 1_555
O12 C20 1_555 1_555
O15 Mn7 1_555 1_555
C20 O15 1_555 1_555
O5 H1 1_555 1_555
H2 O5 1_555 1_555
C11 N1 1_555 1_555
C12 C11 1_555 1_555
H9 C12 1_555 1_555
C13 C10 1_555 1_555
C14 C13 1_555 1_555
H10 C14 1_555 1_555
C15 N1 1_555 1_555
H11 C15 1_555 1_555
O6 C16 1_555 1_555
O10 C16 1_555 1_555
C16 C17 1_555 1_555
C17 C18 1_555 1_555
C18 H14 1_555 1_555
C19 C18 1_555 1_555
C21 C19 1_555 1_555
H15 C21 1_555 1_555
C22 C21 1_555 1_555
C23 C17 1_555 1_555
H16 C23 1_555 1_555
C24 C10 1_555 1_555
C12 C13 1_555 1_555
C14 C15 1_555 1_555
C22 C23 1_555 1_555
C22 C24 1_555 1_555
O7 C1 1_555 1_555
O2 C1 1_555 1_555
C1 C2 1_555 1_555
C2 C3 1_555 1_555
C3 H3 1_555 1_555
C4 C3 1_555 1_555
C6 C4 1_555 1_555
H4 C6 1_555 1_555
C7 C6 1_555 1_555
C8 C2 1_555 1_555
H5 C8 1_555 1_555
C9 C7 1_555 1_555
Mn7 O2 1_555 1_555
H12 O18 1_555 1_555
H13 O18 1_555 1_555
C25 C9 1_555 1_555
C26 N2 1_555 1_555
C27 C26 1_555 1_555
H20 C27 1_555 1_555
C28 C25 1_555 1_555
C29 C28 1_555 1_555
H21 C29 1_555 1_555
C30 N2 1_555 1_555
H22 C30 1_555 1_555
C7 C8 1_555 1_555
C27 C28 1_555 1_555
C29 C30 1_555 1_555
O13 C5 1_555 1_555
O16 C5 1_555 1_555

#END
