
###############################################################################
#
# This file contains modified crystal structure data generated from the
# MOF subset of the Cambridge Structural Database (CSD) v543 
# hosted by the Cambridge Crystallographic Data Centre (CCDC).
#
# This work is licensed under the Creative Commons
# Attribution-NonCommercial-ShareAlike 4.0 International License.
# To view a copy of this license, visit
# http://creativecommons.org/licenses/by-nc-sa/4.0/
# or send a letter to
# Creative Commons, PO Box 1866, Mountain View, CA 94042, USA.
#
# CIF created using the CSD Python API on 29 September 2022
# The structure has been converted into the P1 space group
# The structure has a 3D framework
# The original CSD entry UBOGAV is in the triclinic crystal system
# The framework has been calculated to contain at least 10.0% void space
# The void calculation uses a probe of radius 1.32A, grid spacing 0.4
# H atom positions have been added when not included in the experimental data
# Generated hydrogen atom positions removed from atoms on special positions
#
###############################################################################

data_UBOGAV
_chemical_formula_moiety         '(C28 H22 Cu2 O26 P4 U10)n'
_symmetry_cell_setting           triclinic
_symmetry_space_group_name_H-M   'P 1'
_symmetry_Int_Tables_number      1
_space_group_name_Hall           'P 1'
loop_
_symmetry_equiv_pos_site_id
_symmetry_equiv_pos_as_xyz
1 x,y,z
_cell_length_a                   9.595(3)
_cell_length_b                   10.330(3)
_cell_length_c                   13.670(4)
_cell_angle_alpha                75.702(3)
_cell_angle_beta                 88.854(4)
_cell_angle_gamma                65.345(3)
_cell_volume                     1187.94
loop_
_atom_site_label
_atom_site_type_symbol
_atom_site_fract_x
_atom_site_fract_y
_atom_site_fract_z
U2 U -0.0000 0.0000 0.0000
U5 U 0.23419(4) 0.44979(4) 0.00052(3)
O17 O 0.0049(8) 0.0685(8) 0.1057(5)
O33 O 0.1225(9) 0.1460(8) 0.5173(6)
U2_2 U -0.0000 0.0000 1.0000
P2 P 0.0898(3) 0.3114(3) 0.87525(19)
O7 O 0.2561(8) 0.2887(7) 0.8890(5)
O8 O 0.0061(7) 0.4121(7) 0.9458(5)
O9 O 0.0713(8) 0.1674(7) 0.8973(5)
O13 O 0.0537(8) 0.7935(7) 0.6117(5)
C8 C 0.0084(11) 0.4129(11) 0.7472(7)
C9 C 0.0097(11) 0.5483(10) 0.7062(8)
H5 H 0.0606 0.5840 0.7444
Cu5 Cu 0.09792(14) 0.96519(13) 0.57957(9)
U2_3 U 0.0000 1.0000 0.0000
P1 P 0.3744(3) 0.6829(3) 0.0866(2)
O1 O 0.2716(8) 0.2998(8) 0.1103(5)
O4 O 0.3128(8) 0.5661(8) 0.0966(6)
O5 O 0.2527(8) 0.8393(8) 0.0414(5)
O6 O 0.5116(8) 0.6541(8) 0.0251(5)
O10 O 0.2703(9) 0.8632(9) 0.5062(6)
O11 O 0.0988(8) 0.9210(8) 0.3735(5)
O14 O 0.2216(9) 0.9056(9) 0.7313(6)
C1 C 0.4274(11) 0.6771(11) 0.2140(7)
C2 C 0.3253(13) 0.7758(11) 0.2632(8)
H1 H 0.2317 0.8517 0.2274
C3 C 0.3589(12) 0.7646(11) 0.3655(8)
C4 C 0.4958(13) 0.6591(13) 0.4170(8)
H2 H 0.5202 0.6543 0.4852
C5 C 0.6010(13) 0.5572(12) 0.3683(8)
H3 H 0.6965 0.4837 0.4034
C6 C 0.5632(13) 0.5657(13) 0.2695(8)
H4 H 0.6314 0.4938 0.2382
C7 C 0.2353(11) 0.8563(10) 0.4182(8)
C24 C 0.0611(11) 0.3669(11) 0.3892(8)
C25 C 0.1445(12) 0.4144(11) 0.4418(8)
H14 H 0.1997 0.3542 0.5056
C26 C 0.1468(14) 0.5505(13) 0.4006(8)
H15 H 0.2016 0.5838 0.4378
C27 C 0.0722(12) 0.6379(12) 0.3078(8)
H16 H 0.0745 0.7309 0.2808
C28 C 0.0413(12) 0.2282(11) 0.4347(8)
U2_4 U 0.0000 1.0000 1.0000
O2 O 0.1963(8) 0.5990(7) 0.8915(5)
U4 U 0.76581(4) 0.55021(4) 0.99948(3)
O21 O 0.4884(8) 0.3459(8) 0.9749(5)
Cu4 Cu 0.90208(14) 0.03481(13) 0.42043(9)
U2_5 U 1.0000 0.0000 0.0000
O16 O 0.8037(8) 0.4010(7) 0.1085(5)
O25 O 0.7439(8) 0.7113(7) 0.1110(5)
O30 O 0.9012(8) 0.0790(8) 0.6265(5)
U2_6 U 1.0000 0.0000 1.0000
O12 O 0.8775(9) 0.8540(8) 0.4827(6)
C10 C 0.9389(11) 0.6331(11) 0.6108(8)
C11 C 0.8555(12) 0.5856(11) 0.5582(8)
H6 H 0.8003 0.6458 0.4944
C12 C 0.8532(14) 0.4495(13) 0.5994(8)
H7 H 0.7984 0.4162 0.5622
C13 C 0.9278(12) 0.3621(12) 0.6922(8)
H8 H 0.9255 0.2691 0.7192
C14 C 0.9587(12) 0.7718(11) 0.5653(8)
P3 P 0.6256(3) 0.3171(3) 0.9134(2)
O15 O 0.7284(8) 0.7002(8) 0.8897(5)
O18 O 0.6872(8) 0.4339(8) 0.9034(6)
O19 O 0.7473(8) 0.1607(8) 0.9586(5)
O28 O 0.7297(9) 0.1368(9) 0.4938(6)
O37 O 0.9463(8) 0.2065(7) 0.3883(5)
O38 O 0.7784(9) 0.0944(9) 0.2687(6)
C15 C 0.5726(11) 0.3229(11) 0.7860(7)
C16 C 0.6747(13) 0.2242(11) 0.7368(8)
H9 H 0.7683 0.1483 0.7726
C17 C 0.6411(12) 0.2354(11) 0.6345(8)
C18 C 0.5042(13) 0.3409(13) 0.5830(8)
H10 H 0.4798 0.3457 0.5148
C19 C 0.3990(13) 0.4428(12) 0.6317(8)
H11 H 0.3035 0.5163 0.5966
C20 C 0.4368(13) 0.4343(13) 0.7305(8)
H12 H 0.3686 0.5062 0.7618
C21 C 0.7647(11) 0.1437(10) 0.5818(8)
U2_7 U 1.0000 1.0000 0.0000
P4 P 0.9102(3) 0.6886(3) 0.12475(19)
O26 O 0.9939(7) 0.5879(7) 0.0542(5)
O27 O 0.9287(8) 0.8326(7) 0.1027(5)
C22 C 0.9916(11) 0.5871(11) 0.2528(7)
C23 C 0.9903(11) 0.4517(10) 0.2938(8)
H13 H 0.9394 0.4160 0.2556
U2_8 U 1.0000 1.0000 1.0000
O3 O 0.9951(8) 0.9315(8) 0.8943(5)
loop_
_geom_bond_atom_site_label_1
_geom_bond_atom_site_label_2
_geom_bond_site_symmetry_1
_geom_bond_site_symmetry_2
O17 U2 1_555 1_555
P2 O7 1_555 1_555
O8 P2 1_555 1_555
O9 U2_2 1_555 1_555
C8 P2 1_555 1_555
C9 C8 1_555 1_555
H5 C9 1_555 1_555
Cu5 O13 1_555 1_555
P2 O9 1_555 1_555
U5 O1 1_555 1_555
P1 O4 1_555 1_555
Cu5 O10 1_555 1_555
O4 U5 1_555 1_555
O5 U2_3 1_555 1_555
O6 P1 1_555 1_555
O10 C7 1_555 1_555
O11 C7 1_555 1_555
O14 Cu5 1_555 1_555
C1 P1 1_555 1_555
C2 C1 1_555 1_555
H1 C2 1_555 1_555
C3 C2 1_555 1_555
C4 C3 1_555 1_555
H2 C4 1_555 1_555
C5 C4 1_555 1_555
H3 C5 1_555 1_555
C6 C1 1_555 1_555
H4 C6 1_555 1_555
C7 C3 1_555 1_555
O33 C28 1_555 1_555
C25 C24 1_555 1_555
H14 C25 1_555 1_555
C26 C25 1_555 1_555
H15 C26 1_555 1_555
H16 C27 1_555 1_555
C28 C24 1_555 1_555
P1 O5 1_555 1_555
C5 C6 1_555 1_555
C26 C27 1_555 1_555
O12 C14 1_555 1_555
C11 C10 1_555 1_555
H6 C11 1_555 1_555
C12 C11 1_555 1_555
H7 C12 1_555 1_555
H8 C13 1_555 1_555
C14 C10 1_555 1_555
P3 O18 1_555 1_555
Cu4 O28 1_555 1_555
O15 U4 1_555 1_555
O18 U4 1_555 1_555
O19 U2_6 1_555 1_555
O21 P3 1_555 1_555
O28 C21 1_555 1_555
O30 C21 1_555 1_555
O37 Cu4 1_555 1_555
O38 Cu4 1_555 1_555
C15 P3 1_555 1_555
C16 C15 1_555 1_555
H9 C16 1_555 1_555
C17 C16 1_555 1_555
C18 C17 1_555 1_555
H10 C18 1_555 1_555
C19 C18 1_555 1_555
H11 C19 1_555 1_555
C20 C15 1_555 1_555
H12 C20 1_555 1_555
C21 C17 1_555 1_555
C12 C13 1_555 1_555
P3 O19 1_555 1_555
C19 C20 1_555 1_555
P4 O25 1_555 1_555
O27 U2_7 1_555 1_555
C22 P4 1_555 1_555
C23 C22 1_555 1_555
H13 C23 1_555 1_555
P4 O26 1_555 1_555
P4 O27 1_555 1_555
U2_8 O3 1_555 1_555

#END
