
###############################################################################
#
# This file contains modified crystal structure data generated from the
# MOF subset of the Cambridge Structural Database (CSD) v543 
# hosted by the Cambridge Crystallographic Data Centre (CCDC).
#
# This work is licensed under the Creative Commons
# Attribution-NonCommercial-ShareAlike 4.0 International License.
# To view a copy of this license, visit
# http://creativecommons.org/licenses/by-nc-sa/4.0/
# or send a letter to
# Creative Commons, PO Box 1866, Mountain View, CA 94042, USA.
#
# CIF created using the CSD Python API on 29 September 2022
# The structure has been converted into the P1 space group
# The structure has a 3D framework
# The original CSD entry UBULUA is in the orthorhombic crystal system
# The framework has been calculated to contain at least 10.0% void space
# The void calculation uses a probe of radius 1.32A, grid spacing 0.4
#
###############################################################################

data_UBULUA
_chemical_formula_moiety         '(C288 H192 I48 N96 Zn24)n'
_symmetry_cell_setting           triclinic
_symmetry_space_group_name_H-M   'P 1'
_symmetry_Int_Tables_number      1
_space_group_name_Hall           'P 1'
loop_
_symmetry_equiv_pos_site_id
_symmetry_equiv_pos_as_xyz
1 x,y,z
_cell_length_a                   27.574(3)
_cell_length_b                   13.8942(17)
_cell_length_c                   44.874(6)
_cell_angle_alpha                90
_cell_angle_beta                 90
_cell_angle_gamma                90
_cell_volume                     17192.1
loop_
_atom_site_label
_atom_site_type_symbol
_atom_site_fract_x
_atom_site_fract_y
_atom_site_fract_z
Zn4 Zn 0.02245(4) 0.88298(7) 0.91404(2)
I3 I 0.07515(3) 0.80059(6) 0.87601(2)
I4 I 0.00417(3) 0.80629(4) 0.964780(15)
C19 C 0.6014(4) 0.1984(6) 0.0619(2)
C20 C 0.5877(3) 0.3002(6) 0.06765(18)
C21 C 0.5910(4) 0.3432(6) 0.0940(2)
H13 H 0.6045 0.3091 0.1104
C22 C 0.5752(3) 0.4352(7) 0.0980(2)
H14 H 0.5803 0.4647 0.1169
C23 C 0.5479(4) 0.4420(6) 0.05084(18)
H15 H 0.5320 0.4764 0.0354
C24 C 0.5639(4) 0.3526(6) 0.0452(2)
H16 H 0.5591 0.3248 0.0261
C25 C 0.5947(3) 0.0609(6) 0.03580(19)
C26 C 0.5784(3) 0.0089(6) 0.00879(17)
C31 C 0.6357(3) 0.0622(6) 0.0797(2)
C32 C 0.6602(3) 0.0077(6) 0.10326(17)
H23 H 0.7189 0.0312 0.1654
C36 C 0.6843(5) 0.0559(7) 0.1260(2)
H24 H 0.6868 0.1241 0.1263
I3_2 I 0.57515(3) 0.69941(6) 0.12399(2)
I4_2 I 0.50417(3) 0.69371(4) 0.035220(15)
N3 N 0.5534(3) 0.4846(5) 0.07730(15)
N4 N 0.6191(3) 0.0102(5) 0.05628(16)
N5 N 0.6298(3) 0.1563(5) 0.08299(17)
N6 N 0.5842(3) 0.1536(6) 0.03813(15)
Zn2 Zn 0.52245(4) 0.61702(7) 0.08596(2)
N13 N 0.4576(3) 0.5852(5) 0.10650(17)
N13_2 N 0.0424(3) 0.4148(5) 0.60650(17)
C1 C 0.1778(3) 0.4623(5) 0.65055(19)
C2 C 0.1298(3) 0.4487(6) 0.63534(17)
C3 C 0.0867(3) 0.4504(8) 0.6518(2)
H1 H 0.0867 0.4616 0.6726
C4 C 0.0446(3) 0.4350(7) 0.6363(2)
H2 H 0.0149 0.4387 0.6470
C5 C 0.0833(3) 0.4141(6) 0.5923(2)
H3 H 0.0827 0.4026 0.5715
C6 C 0.1277(3) 0.4292(6) 0.6057(2)
H4 H 0.1567 0.4259 0.5943
C7 C 0.2593(3) 0.4611(5) 0.64854(17)
C8 C 0.3052(3) 0.4420(6) 0.63230(18)
C9 C 0.3496(3) 0.4565(6) 0.6463(2)
H5 H 0.3513 0.4805 0.6661
C10 C 0.3915(3) 0.4345(7) 0.6304(2)
H6 H 0.4219 0.4442 0.6399
C11 C 0.3481(3) 0.3897(6) 0.58955(19)
H7 H 0.3477 0.3672 0.5696
C12 C 0.3038(3) 0.4087(6) 0.60321(19)
H8 H 0.2739 0.3993 0.5930
C13 C 0.2220(3) 0.4995(5) 0.69167(19)
C14 C 0.2247(3) 0.5281(5) 0.72347(17)
C15 C 0.1855(3) 0.5562(6) 0.7396(2)
H9 H 0.1542 0.5517 0.7309
C16 C 0.1899(3) 0.5906(7) 0.7678(2)
H10 H 0.1617 0.6102 0.7782
C17 C 0.2720(3) 0.5655(6) 0.7672(2)
H11 H 0.3023 0.5647 0.7772
C18 C 0.2702(3) 0.5321(5) 0.73803(19)
H12 H 0.2989 0.5124 0.7281
C19_2 C 0.3986(4) 0.6984(6) 0.4381(2)
C20_2 C 0.4123(3) 0.8002(6) 0.43235(18)
C21_2 C 0.4090(4) 0.8432(6) 0.4060(2)
H13_2 H 0.3955 0.8091 0.3896
C22_2 C 0.4248(3) 0.9352(7) 0.4020(2)
H14_2 H 0.4197 0.9647 0.3831
C23_2 C 0.4521(4) 0.9420(6) 0.44916(18)
H15_2 H 0.4680 0.9764 0.4646
C24_2 C 0.4361(4) 0.8526(6) 0.4548(2)
H16_2 H 0.4409 0.8248 0.4739
C25_2 C 0.4053(3) 0.5609(6) 0.46420(19)
C26_2 C 0.4216(3) 0.5089(6) 0.49121(17)
C27 C 0.4427(4) 0.5577(6) 0.5147(2)
H17 H 0.4488 0.6248 0.5133
C28 C 0.4550(4) 0.5079(7) 0.5406(2)
H18 H 0.4686 0.5422 0.5569
C29 C 0.4306(4) 0.3646(7) 0.5191(2)
H19 H 0.4281 0.2965 0.5202
C30 C 0.4163(4) 0.4103(7) 0.4931(2)
H20 H 0.4032 0.3746 0.4769
C31_2 C 0.3643(3) 0.5622(6) 0.4203(2)
C32_2 C 0.3398(3) 0.5077(6) 0.39674(17)
C33 C 0.3406(4) 0.4082(6) 0.3962(2)
H21 H 0.3569 0.3736 0.4115
C34 C 0.3178(4) 0.3595(7) 0.3735(2)
H22 H 0.3188 0.2912 0.3735
C35 C 0.2952(4) 0.4989(7) 0.3512(2)
H23_2 H 0.2811 0.5312 0.3346
C36_2 C 0.3157(5) 0.5559(7) 0.3740(2)
H24_2 H 0.3132 0.6241 0.3737
I1 I 0.43813(3) 0.16998(5) 0.57709(2)
I2 I 0.52177(3) 0.42135(11) 0.61487(3)
I5 I 0.30588(3) 0.16753(5) 0.312220(17)
I6 I 0.16896(3) 0.31402(6) 0.333320(19)
N1 N 0.2942(3) 0.4041(5) 0.35112(16)
N2 N 0.4479(3) 0.4123(5) 0.54310(17)
N3_2 N 0.4466(3) 0.9846(5) 0.42270(15)
N4_2 N 0.3809(3) 0.5102(5) 0.44372(16)
N5_2 N 0.3702(3) 0.6563(5) 0.41701(17)
N6_2 N 0.4158(3) 0.6536(6) 0.46187(15)
N8 N 0.3914(2) 0.4010(5) 0.60276(16)
N9 N 0.2343(3) 0.5978(5) 0.78145(15)
N10 N 0.2171(2) 0.4496(4) 0.63432(15)
N11 N 0.1775(2) 0.4862(5) 0.68037(14)
N12 N 0.2634(3) 0.4854(5) 0.67787(14)
Zn1 Zn 0.45413(4) 0.34817(8) 0.58412(3)
Zn3 Zn 0.25854(4) 0.32424(7) 0.31999(2)
N14 N 0.2657(3) 0.4022(5) 0.28145(15)
Zn5 Zn 0.24146(4) 0.67576(7) 0.81999(2)
C1_2 C 0.3222(3) 0.5377(5) 0.15055(19)
C2_2 C 0.3702(3) 0.5513(6) 0.13534(17)
C3_2 C 0.4133(3) 0.5496(8) 0.1518(2)
H1_2 H 0.4133 0.5384 0.1726
C4_2 C 0.4554(3) 0.5650(7) 0.1363(2)
H2_2 H 0.4851 0.5613 0.1470
C5_2 C 0.4167(3) 0.5859(6) 0.0923(2)
H3_2 H 0.4173 0.5974 0.0715
C6_2 C 0.3723(3) 0.5708(6) 0.1057(2)
H4_2 H 0.3433 0.5741 0.0943
C7_2 C 0.2407(3) 0.5389(5) 0.14854(17)
C8_2 C 0.1948(3) 0.5580(6) 0.13230(18)
C9_2 C 0.1504(3) 0.5435(6) 0.1463(2)
H5_2 H 0.1487 0.5195 0.1661
C10_2 C 0.1085(3) 0.5655(7) 0.1304(2)
H6_2 H 0.0781 0.5558 0.1399
C11_2 C 0.1519(3) 0.6103(6) 0.08955(19)
H7_2 H 0.1523 0.6328 0.0696
C12_2 C 0.1962(3) 0.5913(6) 0.10321(19)
H8_2 H 0.2261 0.6007 0.0930
C13_2 C 0.2780(3) 0.5005(5) 0.19167(19)
C14_2 C 0.2753(3) 0.4719(5) 0.22347(17)
C15_2 C 0.3145(3) 0.4438(6) 0.2396(2)
H9_2 H 0.3458 0.4483 0.2309
C16_2 C 0.3101(3) 0.4094(7) 0.2678(2)
H10_2 H 0.3383 0.3898 0.2782
C17_2 C 0.2280(3) 0.4345(6) 0.2672(2)
H11_2 H 0.1977 0.4353 0.2772
C18_2 C 0.2298(3) 0.4679(5) 0.23803(19)
H12_2 H 0.2011 0.4876 0.2281
C27_2 C 0.0573(4) 0.4423(6) 0.0147(2)
H17_2 H 0.0512 0.3752 0.0133
C28_2 C 0.0450(4) 0.4921(7) 0.0406(2)
H18_2 H 0.0314 0.4578 0.0569
C29_2 C 0.0694(4) 0.6354(7) 0.0191(2)
H19_2 H 0.0719 0.7035 0.0202
I1_2 I 0.06187(3) 0.83002(5) 0.07709(2)
N2_2 N 0.0521(3) 0.5877(5) 0.04310(17)
N8_2 N 0.1086(2) 0.5990(5) 0.10276(16)
N10_2 N 0.2829(2) 0.5504(4) 0.13432(15)
N11_2 N 0.3225(2) 0.5138(5) 0.18037(14)
N12_2 N 0.2366(3) 0.5146(5) 0.17787(14)
Zn1_2 Zn 0.04587(4) 0.65183(8) 0.08412(3)
C19_3 C 0.1014(4) 0.3016(6) 0.9381(2)
C20_3 C 0.0877(3) 0.1998(6) 0.93235(18)
C21_3 C 0.0910(4) 0.1568(6) 0.9060(2)
H13_3 H 0.1045 0.1909 0.8896
C22_3 C 0.0752(3) 0.0648(7) 0.9020(2)
H14_3 H 0.0803 0.0353 0.8831
C23_3 C 0.0479(4) 0.0580(6) 0.94916(18)
H15_3 H 0.0320 0.0236 0.9646
C24_3 C 0.0639(4) 0.1474(6) 0.9548(2)
H16_3 H 0.0591 0.1752 0.9739
C25_3 C 0.0947(3) 0.4391(6) 0.96420(19)
C26_3 C 0.0784(3) 0.4911(6) 0.99121(17)
C30_2 C 0.0837(4) 0.5897(7) 0.9931(2)
H20_2 H 0.0968 0.6254 0.9769
C31_3 C 0.1357(3) 0.4378(6) 0.9203(2)
C32_3 C 0.1602(3) 0.4923(6) 0.89674(17)
C33_2 C 0.1594(4) 0.5918(6) 0.8962(2)
H21_2 H 0.1431 0.6264 0.9115
C34_2 C 0.1822(4) 0.6405(7) 0.8735(2)
H22_2 H 0.1812 0.7088 0.8735
C35_2 C 0.2048(4) 0.5011(7) 0.8512(2)
H23_3 H 0.2189 0.4688 0.8346
C36_3 C 0.1843(5) 0.4441(7) 0.8740(2)
H24_3 H 0.1868 0.3759 0.8737
I5_2 I 0.19412(3) 0.83247(5) 0.812220(17)
I6_2 I 0.33104(3) 0.68598(6) 0.833320(19)
N1_2 N 0.2058(3) 0.5959(5) 0.85112(16)
N3_3 N 0.0534(3) 0.0154(5) 0.92270(15)
N4_3 N 0.1191(3) 0.4898(5) 0.94372(16)
N5_3 N 0.1298(3) 0.3437(5) 0.91701(17)
N6_3 N 0.0842(3) 0.3464(6) 0.96187(15)
C14_3 C 0.7753(3) 0.0281(5) 0.77653(17)
C15_3 C 0.8145(3) 0.0562(6) 0.7604(2)
H9_3 H 0.8458 0.0517 0.7691
C16_3 C 0.8101(3) 0.0906(7) 0.7322(2)
H10_3 H 0.8383 0.1102 0.7218
C17_3 C 0.7280(3) 0.0655(6) 0.7328(2)
H11_3 H 0.6977 0.0647 0.7228
C18_3 C 0.7298(3) 0.0321(5) 0.76197(19)
H12_3 H 0.7011 0.0124 0.7719
C27_3 C 0.5573(4) 0.0577(6) 0.9853(2)
H17_3 H 0.5512 0.1248 0.9867
C28_3 C 0.5450(4) 0.0079(7) 0.9594(2)
H18_3 H 0.5314 0.0422 0.9431
N9_2 N 0.7657(3) 0.0978(5) 0.71855(15)
Zn5_2 Zn 0.75854(4) 0.17576(7) 0.68001(2)
C1_3 C 0.6778(3) 0.0377(5) 0.34945(19)
C2_3 C 0.6298(3) 0.0513(6) 0.36466(17)
C3_3 C 0.5867(3) 0.0496(8) 0.3482(2)
H1_3 H 0.5867 0.0384 0.3274
C4_3 C 0.5446(3) 0.0650(7) 0.3637(2)
H2_3 H 0.5149 0.0613 0.3530
C5_3 C 0.5833(3) 0.0859(6) 0.4077(2)
H3_3 H 0.5827 0.0974 0.4285
C6_3 C 0.6277(3) 0.0708(6) 0.3943(2)
H4_3 H 0.6567 0.0741 0.4057
C7_3 C 0.7593(3) 0.0389(5) 0.35146(17)
C8_3 C 0.8052(3) 0.0580(6) 0.36770(18)
C9_3 C 0.8496(3) 0.0435(6) 0.3537(2)
H5_3 H 0.8513 0.0195 0.3339
C10_3 C 0.8915(3) 0.0655(7) 0.3696(2)
H6_3 H 0.9219 0.0558 0.3601
C11_3 C 0.8481(3) 0.1103(6) 0.41045(19)
H7_3 H 0.8477 0.1328 0.4304
C12_3 C 0.8038(3) 0.0913(6) 0.39679(19)
H8_3 H 0.7739 0.1007 0.4070
C13_3 C 0.7220(3) 0.0005(5) 0.30833(19)
C29_3 C 0.9306(4) 0.1354(7) 0.4809(2)
H19_3 H 0.9281 0.2035 0.4798
C30_3 C 0.9163(4) 0.0897(7) 0.5069(2)
H20_3 H 0.9032 0.1254 0.5231
C33_3 C 0.8406(4) 0.0918(6) 0.6038(2)
H21_3 H 0.8569 0.1264 0.5885
C34_3 C 0.8178(4) 0.1405(7) 0.6265(2)
H22_3 H 0.8188 0.2088 0.6265
C35_3 C 0.7952(4) 0.0011(7) 0.6488(2)
I1_3 I 0.93813(3) 0.33002(5) 0.42291(2)
I5_3 I 0.80588(3) 0.33247(5) 0.687780(17)
I6_3 I 0.66896(3) 0.18598(6) 0.666680(19)
N1_3 N 0.7942(3) 0.0959(5) 0.64888(16)
N2_3 N 0.9479(3) 0.0877(5) 0.45690(17)
N7 N 0.5424(3) 0.0852(5) 0.39350(17)
N8_3 N 0.8914(2) 0.0990(5) 0.39724(16)
N10_3 N 0.7171(2) 0.0504(4) 0.36568(15)
N11_3 N 0.6775(2) 0.0138(5) 0.31963(14)
N12_3 N 0.7634(3) 0.0146(5) 0.32213(14)
Zn1_3 Zn 0.95413(4) 0.15183(8) 0.41588(3)
Zn4_2 Zn 0.47755(4) 0.11702(7) 0.41404(2)
I3_3 I 0.42485(3) 0.19941(6) 0.37601(2)
I4_3 I 0.49583(3) 0.19371(4) 0.464780(15)
C30_4 C 0.5837(4) 0.9103(7) 0.0069(2)
H20_4 H 0.5968 0.8746 0.0231
C33_4 C 0.6594(4) 0.9082(6) 0.1038(2)
H21_4 H 0.6431 0.8736 0.0885
C34_4 C 0.6822(4) 0.8595(7) 0.1265(2)
H22_4 H 0.6812 0.7912 0.1265
C35_4 C 0.7048(4) 0.9989(7) 0.1488(2)
I5_4 I 0.69412(3) 0.66753(5) 0.187780(17)
I6_4 I 0.83104(3) 0.81402(6) 0.166680(19)
N1_4 N 0.7058(3) 0.9041(5) 0.14888(16)
Zn3_2 Zn 0.74146(4) 0.82424(7) 0.18001(2)
N14_2 N 0.7343(3) 0.9022(5) 0.21855(15)
C14_4 C 0.7247(3) 0.9719(5) 0.27653(17)
C15_4 C 0.6855(3) 0.9438(6) 0.2604(2)
H9_4 H 0.6542 0.9483 0.2691
C16_4 C 0.6899(3) 0.9094(7) 0.2322(2)
H10_4 H 0.6617 0.8898 0.2218
C17_4 C 0.7720(3) 0.9345(6) 0.2328(2)
H11_4 H 0.8023 0.9353 0.2228
C18_4 C 0.7702(3) 0.9679(5) 0.26197(19)
H12_4 H 0.7989 0.9876 0.2719
C19_4 C 0.8986(4) 0.8016(6) 0.5619(2)
C20_4 C 0.9123(3) 0.6998(6) 0.56765(18)
C21_4 C 0.9090(4) 0.6568(6) 0.5940(2)
H13_4 H 0.8955 0.6909 0.6104
C22_4 C 0.9248(3) 0.5648(7) 0.5980(2)
H14_4 H 0.9197 0.5353 0.6169
C23_4 C 0.9521(4) 0.5580(6) 0.55084(18)
H15_4 H 0.9680 0.5236 0.5354
C24_4 C 0.9361(4) 0.6474(6) 0.5452(2)
H16_4 H 0.9409 0.6752 0.5261
C25_4 C 0.9053(3) 0.9391(6) 0.53580(19)
C26_4 C 0.9216(3) 0.9911(6) 0.50879(17)
C27_4 C 0.9427(4) 0.9423(6) 0.4853(2)
H17_4 H 0.9488 0.8752 0.4867
C28_4 C 0.9550(4) 0.9921(7) 0.4594(2)
H18_4 H 0.9686 0.9578 0.4431
C31_4 C 0.8643(3) 0.9378(6) 0.5797(2)
C32_4 C 0.8398(3) 0.9923(6) 0.60326(17)
H23_4 H 0.7811 0.9688 0.6654
C36_4 C 0.8157(5) 0.9441(7) 0.6260(2)
H24_4 H 0.8132 0.8759 0.6263
I3_4 I 0.92485(3) 0.30059(6) 0.62399(2)
I4_4 I 0.99583(3) 0.30629(4) 0.535220(15)
N3_4 N 0.9466(3) 0.5154(5) 0.57730(15)
N4_4 N 0.8809(3) 0.9898(5) 0.55628(16)
N5_4 N 0.8702(3) 0.8437(5) 0.58299(17)
N6_4 N 0.9158(3) 0.8464(6) 0.53813(15)
Zn2_2 Zn 0.97755(4) 0.38298(7) 0.58596(2)
C1_4 C 0.8222(3) 0.9623(5) 0.84945(19)
C2_4 C 0.8702(3) 0.9487(6) 0.86466(17)
C3_4 C 0.9133(3) 0.9504(8) 0.8482(2)
H1_4 H 0.9133 0.9616 0.8274
C4_4 C 0.9554(3) 0.9350(7) 0.8637(2)
H2_4 H 0.9851 0.9387 0.8530
C5_4 C 0.9167(3) 0.9141(6) 0.9077(2)
H3_4 H 0.9173 0.9026 0.9285
C6_4 C 0.8723(3) 0.9292(6) 0.8943(2)
H4_4 H 0.8433 0.9259 0.9057
C7_4 C 0.7407(3) 0.9611(5) 0.85146(17)
C8_4 C 0.6948(3) 0.9420(6) 0.86770(18)
C9_4 C 0.6504(3) 0.9565(6) 0.8537(2)
H5_4 H 0.6487 0.9805 0.8339
C10_4 C 0.6085(3) 0.9345(7) 0.8696(2)
H6_4 H 0.5781 0.9442 0.8601
C11_4 C 0.6519(3) 0.8897(6) 0.91045(19)
H7_4 H 0.6523 0.8672 0.9304
C12_4 C 0.6962(3) 0.9087(6) 0.89679(19)
H8_4 H 0.7261 0.8993 0.9070
C13_4 C 0.7780(3) 0.9995(5) 0.80833(19)
C29_4 C 0.5694(4) 0.8646(7) 0.9809(2)
H19_4 H 0.5719 0.7965 0.9798
I1_4 I 0.56187(3) 0.66998(5) 0.92291(2)
I2_2 I 0.47823(3) 0.92135(11) 0.88513(3)
N2_4 N 0.5521(3) 0.9123(5) 0.95690(17)
N7_2 N 0.9576(3) 0.9148(5) 0.89350(17)
N8_4 N 0.6086(2) 0.9010(5) 0.89724(16)
N10_4 N 0.7829(2) 0.9496(4) 0.86568(15)
N11_4 N 0.8225(2) 0.9862(5) 0.81963(14)
N12_4 N 0.7366(3) 0.9854(5) 0.82213(14)
Zn1_4 Zn 0.54587(4) 0.84817(8) 0.91588(3)
I2_3 I 0.02177(3) 0.07865(11) 0.38513(3)
I2_4 I 0.97823(3) 0.57865(11) 0.11487(3)
C1_5 C 0.1778(3) 0.0377(5) 0.15055(19)
C2_5 C 0.1298(3) 0.0513(6) 0.13534(17)
C3_5 C 0.0867(3) 0.0496(8) 0.1518(2)
H1_5 H 0.0867 0.0384 0.1726
C4_5 C 0.0446(3) 0.0650(7) 0.1363(2)
H2_5 H 0.0149 0.0613 0.1470
C5_5 C 0.0833(3) 0.0859(6) 0.0923(2)
H3_5 H 0.0827 0.0974 0.0715
C6_5 C 0.1277(3) 0.0708(6) 0.1057(2)
H4_5 H 0.1567 0.0741 0.0943
C7_5 C 0.2593(3) 0.0389(5) 0.14854(17)
C8_5 C 0.3052(3) 0.0580(6) 0.13230(18)
C9_5 C 0.3496(3) 0.0435(6) 0.1463(2)
H5_5 H 0.3513 0.0195 0.1661
C10_5 C 0.3915(3) 0.0655(7) 0.1304(2)
H6_5 H 0.4219 0.0558 0.1399
C11_5 C 0.3481(3) 0.1103(6) 0.08955(19)
H7_5 H 0.3477 0.1328 0.0696
C12_5 C 0.3038(3) 0.0913(6) 0.10321(19)
H8_5 H 0.2739 0.1007 0.0930
C13_5 C 0.2220(3) 0.0005(5) 0.19167(19)
C29_5 C 0.4306(4) 0.1354(7) 0.0191(2)
H19_5 H 0.4281 0.2035 0.0202
I1_5 I 0.43813(3) 0.33002(5) 0.07709(2)
I2_5 I 0.52177(3) 0.07865(11) 0.11487(3)
N2_5 N 0.4479(3) 0.0877(5) 0.04310(17)
N7_3 N 0.0424(3) 0.0852(5) 0.10650(17)
N8_5 N 0.3914(2) 0.0990(5) 0.10276(16)
N10_5 N 0.2171(2) 0.0504(4) 0.13432(15)
N11_5 N 0.1775(2) 0.0138(5) 0.18037(14)
N12_5 N 0.2634(3) 0.0146(5) 0.17787(14)
Zn1_5 Zn 0.45413(4) 0.15183(8) 0.08412(3)
C30_5 C 0.4163(4) 0.0897(7) 0.9931(2)
H20_5 H 0.4032 0.1254 0.9769
C33_5 C 0.3406(4) 0.0918(6) 0.8962(2)
H21_5 H 0.3569 0.1264 0.9115
C34_5 C 0.3178(4) 0.1405(7) 0.8735(2)
H22_5 H 0.3188 0.2088 0.8735
C35_5 C 0.2952(4) 0.0011(7) 0.8512(2)
I5_5 I 0.30588(3) 0.33247(5) 0.812220(17)
I6_5 I 0.16896(3) 0.18598(6) 0.833320(19)
N1_5 N 0.2942(3) 0.0959(5) 0.85112(16)
Zn3_3 Zn 0.25854(4) 0.17576(7) 0.81999(2)
N14_3 N 0.2657(3) 0.0978(5) 0.78145(15)
C14_5 C 0.2753(3) 0.0281(5) 0.72347(17)
C15_5 C 0.3145(3) 0.0562(6) 0.7396(2)
H9_5 H 0.3458 0.0517 0.7309
C16_5 C 0.3101(3) 0.0906(7) 0.7678(2)
H10_5 H 0.3383 0.1102 0.7782
C17_5 C 0.2280(3) 0.0655(6) 0.7672(2)
H11_5 H 0.1977 0.0647 0.7772
C18_5 C 0.2298(3) 0.0321(5) 0.73803(19)
H12_5 H 0.2011 0.0124 0.7281
C19_5 C 0.1014(4) 0.1984(6) 0.4381(2)
C20_5 C 0.0877(3) 0.3002(6) 0.43235(18)
C21_5 C 0.0910(4) 0.3432(6) 0.4060(2)
H13_5 H 0.1045 0.3091 0.3896
C22_5 C 0.0752(3) 0.4352(7) 0.4020(2)
H14_5 H 0.0803 0.4647 0.3831
C23_5 C 0.0479(4) 0.4420(6) 0.44916(18)
H15_5 H 0.0320 0.4764 0.4646
C24_5 C 0.0639(4) 0.3526(6) 0.4548(2)
H16_5 H 0.0591 0.3248 0.4739
C25_5 C 0.0947(3) 0.0609(6) 0.46420(19)
C26_5 C 0.0784(3) 0.0089(6) 0.49121(17)
C27_5 C 0.0573(4) 0.0577(6) 0.5147(2)
H17_5 H 0.0512 0.1248 0.5133
C28_5 C 0.0450(4) 0.0079(7) 0.5406(2)
H18_5 H 0.0314 0.0422 0.5569
C31_5 C 0.1357(3) 0.0622(6) 0.4203(2)
C32_5 C 0.1602(3) 0.0077(6) 0.39674(17)
H23_5 H 0.2189 0.0312 0.3346
C36_5 C 0.1843(5) 0.0559(7) 0.3740(2)
H24_5 H 0.1868 0.1241 0.3737
I3_5 I 0.07515(3) 0.69941(6) 0.37601(2)
I4_5 I 0.00417(3) 0.69371(4) 0.464780(15)
N3_5 N 0.0534(3) 0.4846(5) 0.42270(15)
N4_5 N 0.1191(3) 0.0102(5) 0.44372(16)
N5_5 N 0.1298(3) 0.1563(5) 0.41701(17)
N6_5 N 0.0842(3) 0.1536(6) 0.46187(15)
Zn2_3 Zn 0.02245(4) 0.61702(7) 0.41404(2)
C14_6 C 0.2247(3) 0.9719(5) 0.22347(17)
C15_6 C 0.1855(3) 0.9438(6) 0.2396(2)
H9_6 H 0.1542 0.9483 0.2309
C16_6 C 0.1899(3) 0.9094(7) 0.2678(2)
H10_6 H 0.1617 0.8898 0.2782
C17_6 C 0.2720(3) 0.9345(6) 0.2672(2)
H11_6 H 0.3023 0.9353 0.2772
C18_6 C 0.2702(3) 0.9679(5) 0.23803(19)
H12_6 H 0.2989 0.9876 0.2281
C27_6 C 0.4427(4) 0.9423(6) 0.0147(2)
H17_6 H 0.4488 0.8752 0.0133
C28_6 C 0.4550(4) 0.9921(7) 0.0406(2)
H18_6 H 0.4686 0.9578 0.0569
N9_3 N 0.2343(3) 0.9022(5) 0.28145(15)
Zn5_3 Zn 0.24146(4) 0.82424(7) 0.31999(2)
C1_6 C 0.3222(3) 0.9623(5) 0.65055(19)
C2_6 C 0.3702(3) 0.9487(6) 0.63534(17)
C3_6 C 0.4133(3) 0.9504(8) 0.6518(2)
H1_6 H 0.4133 0.9616 0.6726
C4_6 C 0.4554(3) 0.9350(7) 0.6363(2)
H2_6 H 0.4851 0.9387 0.6470
C5_6 C 0.4167(3) 0.9141(6) 0.5923(2)
H3_6 H 0.4173 0.9026 0.5715
C6_6 C 0.3723(3) 0.9292(6) 0.6057(2)
H4_6 H 0.3433 0.9259 0.5943
C7_6 C 0.2407(3) 0.9611(5) 0.64854(17)
C8_6 C 0.1948(3) 0.9420(6) 0.63230(18)
C9_6 C 0.1504(3) 0.9565(6) 0.6463(2)
H5_6 H 0.1487 0.9805 0.6661
C10_6 C 0.1085(3) 0.9345(7) 0.6304(2)
H6_6 H 0.0781 0.9442 0.6399
C11_6 C 0.1519(3) 0.8897(6) 0.58955(19)
H7_6 H 0.1523 0.8672 0.5696
C12_6 C 0.1962(3) 0.9087(6) 0.60321(19)
H8_6 H 0.2261 0.8993 0.5930
C13_6 C 0.2780(3) 0.9995(5) 0.69167(19)
C29_6 C 0.0694(4) 0.8646(7) 0.5191(2)
H19_6 H 0.0719 0.7965 0.5202
C30_6 C 0.0837(4) 0.9103(7) 0.4931(2)
H20_6 H 0.0968 0.8746 0.4769
C33_6 C 0.1594(4) 0.9082(6) 0.3962(2)
H21_6 H 0.1431 0.8736 0.4115
C34_6 C 0.1822(4) 0.8595(7) 0.3735(2)
H22_6 H 0.1812 0.7912 0.3735
C35_6 C 0.2048(4) 0.9989(7) 0.3512(2)
I1_6 I 0.06187(3) 0.66998(5) 0.57709(2)
I5_6 I 0.19412(3) 0.66753(5) 0.312220(17)
I6_6 I 0.33104(3) 0.81402(6) 0.333320(19)
N1_6 N 0.2058(3) 0.9041(5) 0.35112(16)
N2_6 N 0.0521(3) 0.9123(5) 0.54310(17)
N7_4 N 0.4576(3) 0.9148(5) 0.60650(17)
N8_6 N 0.1086(2) 0.9010(5) 0.60276(16)
N10_6 N 0.2829(2) 0.9496(4) 0.63432(15)
N11_6 N 0.3225(2) 0.9862(5) 0.68037(14)
N12_6 N 0.2366(3) 0.9854(5) 0.67787(14)
Zn1_6 Zn 0.04587(4) 0.84817(8) 0.58412(3)
Zn4_3 Zn 0.52245(4) 0.88298(7) 0.58596(2)
I3_6 I 0.57515(3) 0.80059(6) 0.62399(2)
I4_6 I 0.50417(3) 0.80629(4) 0.535220(15)
C19_6 C 0.3986(4) 0.8016(6) 0.9381(2)
C20_6 C 0.4123(3) 0.6998(6) 0.93235(18)
C21_6 C 0.4090(4) 0.6568(6) 0.9060(2)
H13_6 H 0.3955 0.6909 0.8896
C22_6 C 0.4248(3) 0.5648(7) 0.9020(2)
H14_6 H 0.4197 0.5353 0.8831
C23_6 C 0.4521(4) 0.5580(6) 0.94916(18)
H15_6 H 0.4680 0.5236 0.9646
C24_6 C 0.4361(4) 0.6474(6) 0.9548(2)
H16_6 H 0.4409 0.6752 0.9739
C25_6 C 0.4053(3) 0.9391(6) 0.96420(19)
C26_6 C 0.4216(3) 0.9911(6) 0.99121(17)
C31_6 C 0.3643(3) 0.9378(6) 0.9203(2)
C32_6 C 0.3398(3) 0.9923(6) 0.89674(17)
H23_6 H 0.2811 0.9688 0.8346
C36_6 C 0.3157(5) 0.9441(7) 0.8740(2)
H24_6 H 0.3132 0.8759 0.8737
I3_7 I 0.42485(3) 0.30059(6) 0.87601(2)
I4_7 I 0.49583(3) 0.30629(4) 0.964780(15)
N3_6 N 0.4466(3) 0.5154(5) 0.92270(15)
N4_6 N 0.3809(3) 0.9898(5) 0.94372(16)
N5_6 N 0.3702(3) 0.8437(5) 0.91701(17)
N6_6 N 0.4158(3) 0.8464(6) 0.96187(15)
Zn2_4 Zn 0.47755(4) 0.38298(7) 0.91404(2)
N13_3 N 0.5424(3) 0.4148(5) 0.89350(17)
N13_4 N 0.9576(3) 0.5852(5) 0.39350(17)
C1_7 C 0.8222(3) 0.5377(5) 0.34945(19)
C2_7 C 0.8702(3) 0.5513(6) 0.36466(17)
C3_7 C 0.9133(3) 0.5496(8) 0.3482(2)
H1_7 H 0.9133 0.5384 0.3274
C4_7 C 0.9554(3) 0.5650(7) 0.3637(2)
H2_7 H 0.9851 0.5613 0.3530
C5_7 C 0.9167(3) 0.5859(6) 0.4077(2)
H3_7 H 0.9173 0.5974 0.4285
C6_7 C 0.8723(3) 0.5708(6) 0.3943(2)
H4_7 H 0.8433 0.5741 0.4057
C7_7 C 0.7407(3) 0.5389(5) 0.35146(17)
C8_7 C 0.6948(3) 0.5580(6) 0.36770(18)
C9_7 C 0.6504(3) 0.5435(6) 0.3537(2)
H5_7 H 0.6487 0.5195 0.3339
C10_7 C 0.6085(3) 0.5655(7) 0.3696(2)
H6_7 H 0.5781 0.5558 0.3601
C11_7 C 0.6519(3) 0.6103(6) 0.41045(19)
H7_7 H 0.6523 0.6328 0.4304
C12_7 C 0.6962(3) 0.5913(6) 0.39679(19)
H8_7 H 0.7261 0.6007 0.4070
C13_7 C 0.7780(3) 0.5005(5) 0.30833(19)
C14_7 C 0.7753(3) 0.4719(5) 0.27653(17)
C15_7 C 0.8145(3) 0.4438(6) 0.2604(2)
H9_7 H 0.8458 0.4483 0.2691
C16_7 C 0.8101(3) 0.4094(7) 0.2322(2)
H10_7 H 0.8383 0.3898 0.2218
C17_7 C 0.7280(3) 0.4345(6) 0.2328(2)
H11_7 H 0.6977 0.4353 0.2228
C18_7 C 0.7298(3) 0.4679(5) 0.26197(19)
H12_7 H 0.7011 0.4876 0.2719
C19_7 C 0.6014(4) 0.3016(6) 0.5619(2)
C20_7 C 0.5877(3) 0.1998(6) 0.56765(18)
C21_7 C 0.5910(4) 0.1568(6) 0.5940(2)
H13_7 H 0.6045 0.1909 0.6104
C22_7 C 0.5752(3) 0.0648(7) 0.5980(2)
H14_7 H 0.5803 0.0353 0.6169
C23_7 C 0.5479(4) 0.0580(6) 0.55084(18)
H15_7 H 0.5320 0.0236 0.5354
C24_7 C 0.5639(4) 0.1474(6) 0.5452(2)
H16_7 H 0.5591 0.1752 0.5261
C25_7 C 0.5947(3) 0.4391(6) 0.53580(19)
C26_7 C 0.5784(3) 0.4911(6) 0.50879(17)
C27_7 C 0.5573(4) 0.4423(6) 0.4853(2)
H17_7 H 0.5512 0.3752 0.4867
C28_7 C 0.5450(4) 0.4921(7) 0.4594(2)
H18_7 H 0.5314 0.4578 0.4431
C29_7 C 0.5694(4) 0.6354(7) 0.4809(2)
H19_7 H 0.5719 0.7035 0.4798
C30_7 C 0.5837(4) 0.5897(7) 0.5069(2)
H20_7 H 0.5968 0.6254 0.5231
C31_7 C 0.6357(3) 0.4378(6) 0.5797(2)
C32_7 C 0.6602(3) 0.4923(6) 0.60326(17)
C33_7 C 0.6594(4) 0.5918(6) 0.6038(2)
H21_7 H 0.6431 0.6264 0.5885
C34_7 C 0.6822(4) 0.6405(7) 0.6265(2)
H22_7 H 0.6812 0.7088 0.6265
C35_7 C 0.7048(4) 0.5011(7) 0.6488(2)
H23_7 H 0.7189 0.4688 0.6654
C36_7 C 0.6843(5) 0.4441(7) 0.6260(2)
H24_7 H 0.6868 0.3759 0.6263
I1_7 I 0.56187(3) 0.83002(5) 0.42291(2)
I2_6 I 0.47823(3) 0.57865(11) 0.38513(3)
I5_7 I 0.69412(3) 0.83247(5) 0.687780(17)
I6_7 I 0.83104(3) 0.68598(6) 0.666680(19)
N1_7 N 0.7058(3) 0.5959(5) 0.64888(16)
N2_7 N 0.5521(3) 0.5877(5) 0.45690(17)
N3_7 N 0.5534(3) 0.0154(5) 0.57730(15)
N4_7 N 0.6191(3) 0.4898(5) 0.55628(16)
N5_7 N 0.6298(3) 0.3437(5) 0.58299(17)
N6_7 N 0.5842(3) 0.3464(6) 0.53813(15)
N8_7 N 0.6086(2) 0.5990(5) 0.39724(16)
N9_4 N 0.7657(3) 0.4022(5) 0.21855(15)
N10_7 N 0.7829(2) 0.5504(4) 0.36568(15)
N11_7 N 0.8225(2) 0.5138(5) 0.31963(14)
N12_7 N 0.7366(3) 0.5146(5) 0.32213(14)
Zn1_7 Zn 0.54587(4) 0.65183(8) 0.41588(3)
Zn3_4 Zn 0.74146(4) 0.67576(7) 0.68001(2)
N14_4 N 0.7343(3) 0.5978(5) 0.71855(15)
Zn5_4 Zn 0.75854(4) 0.32424(7) 0.18001(2)
C19_8 C 0.8986(4) 0.6984(6) 0.0619(2)
C20_8 C 0.9123(3) 0.8002(6) 0.06765(18)
C21_8 C 0.9090(4) 0.8432(6) 0.0940(2)
H13_8 H 0.8955 0.8091 0.1104
C22_8 C 0.9248(3) 0.9352(7) 0.0980(2)
H14_8 H 0.9197 0.9647 0.1169
C23_8 C 0.9521(4) 0.9420(6) 0.05084(18)
H15_8 H 0.9680 0.9764 0.0354
C24_8 C 0.9361(4) 0.8526(6) 0.0452(2)
H16_8 H 0.9409 0.8248 0.0261
C25_8 C 0.9053(3) 0.5609(6) 0.03580(19)
C26_8 C 0.9216(3) 0.5089(6) 0.00879(17)
C30_8 C 0.9163(4) 0.4103(7) 0.0069(2)
H20_8 H 0.9032 0.3746 0.0231
C31_8 C 0.8643(3) 0.5622(6) 0.0797(2)
C32_8 C 0.8398(3) 0.5077(6) 0.10326(17)
C33_8 C 0.8406(4) 0.4082(6) 0.1038(2)
H21_8 H 0.8569 0.3736 0.0885
C34_8 C 0.8178(4) 0.3595(7) 0.1265(2)
H22_8 H 0.8188 0.2912 0.1265
C35_8 C 0.7952(4) 0.4989(7) 0.1488(2)
H23_8 H 0.7811 0.5312 0.1654
C36_8 C 0.8157(5) 0.5559(7) 0.1260(2)
H24_8 H 0.8132 0.6241 0.1263
I5_8 I 0.80588(3) 0.16753(5) 0.187780(17)
I6_8 I 0.66896(3) 0.31402(6) 0.166680(19)
N1_8 N 0.7942(3) 0.4041(5) 0.14888(16)
N3_8 N 0.9466(3) 0.9846(5) 0.07730(15)
N4_8 N 0.8809(3) 0.5102(5) 0.05628(16)
N5_8 N 0.8702(3) 0.6563(5) 0.08299(17)
N6_8 N 0.9158(3) 0.6536(6) 0.03813(15)
C1_8 C 0.6778(3) 0.4623(5) 0.84945(19)
C2_8 C 0.6298(3) 0.4487(6) 0.86466(17)
C3_8 C 0.5867(3) 0.4504(8) 0.8482(2)
H1_8 H 0.5867 0.4616 0.8274
C4_8 C 0.5446(3) 0.4350(7) 0.8637(2)
H2_8 H 0.5149 0.4387 0.8530
C5_8 C 0.5833(3) 0.4141(6) 0.9077(2)
H3_8 H 0.5827 0.4026 0.9285
C6_8 C 0.6277(3) 0.4292(6) 0.8943(2)
H4_8 H 0.6567 0.4259 0.9057
C7_8 C 0.7593(3) 0.4611(5) 0.85146(17)
C8_8 C 0.8052(3) 0.4420(6) 0.86770(18)
C9_8 C 0.8496(3) 0.4565(6) 0.8537(2)
H5_8 H 0.8513 0.4805 0.8339
C10_8 C 0.8915(3) 0.4345(7) 0.8696(2)
H6_8 H 0.9219 0.4442 0.8601
C11_8 C 0.8481(3) 0.3897(6) 0.91045(19)
H7_8 H 0.8477 0.3672 0.9304
C12_8 C 0.8038(3) 0.4087(6) 0.89679(19)
H8_8 H 0.7739 0.3993 0.9070
C13_8 C 0.7220(3) 0.4995(5) 0.80833(19)
C14_8 C 0.7247(3) 0.5281(5) 0.77653(17)
C15_8 C 0.6855(3) 0.5562(6) 0.7604(2)
H9_8 H 0.6542 0.5517 0.7691
C16_8 C 0.6899(3) 0.5906(7) 0.7322(2)
H10_8 H 0.6617 0.6102 0.7218
C17_8 C 0.7720(3) 0.5655(6) 0.7328(2)
H11_8 H 0.8023 0.5647 0.7228
C18_8 C 0.7702(3) 0.5321(5) 0.76197(19)
H12_8 H 0.7989 0.5124 0.7719
C27_8 C 0.9427(4) 0.5577(6) 0.9853(2)
H17_8 H 0.9488 0.6248 0.9867
C28_8 C 0.9550(4) 0.5079(7) 0.9594(2)
H18_8 H 0.9686 0.5422 0.9431
C29_8 C 0.9306(4) 0.3646(7) 0.9809(2)
H19_8 H 0.9281 0.2965 0.9798
I1_8 I 0.93813(3) 0.16998(5) 0.92291(2)
N2_8 N 0.9479(3) 0.4123(5) 0.95690(17)
N8_8 N 0.8914(2) 0.4010(5) 0.89724(16)
N10_8 N 0.7171(2) 0.4496(4) 0.86568(15)
N11_8 N 0.6775(2) 0.4862(5) 0.81963(14)
N12_8 N 0.7634(3) 0.4854(5) 0.82213(14)
Zn1_8 Zn 0.95413(4) 0.34817(8) 0.91588(3)
Zn4_4 Zn 0.97755(4) 0.11702(7) 0.08596(2)
I3_8 I 0.92485(3) 0.19941(6) 0.12399(2)
I4_8 I 0.99583(3) 0.19371(4) 0.035220(15)
I2_7 I 0.97823(3) 0.92135(11) 0.61487(3)
I2_8 I 0.02177(3) 0.42135(11) 0.88513(3)
loop_
_geom_bond_atom_site_label_1
_geom_bond_atom_site_label_2
_geom_bond_site_symmetry_1
_geom_bond_site_symmetry_2
I3 Zn4 1_555 1_555
I4 Zn4 1_555 1_555
C19 C20 1_555 1_555
C20 C21 1_555 1_555
C21 H13 1_555 1_555
C22 C21 1_555 1_555
H14 C22 1_555 1_555
C23 H15 1_555 1_555
C24 C20 1_555 1_555
H16 C24 1_555 1_555
C25 C26 1_555 1_555
C31 C32 1_555 1_555
C36 C32 1_555 1_555
H24 C36 1_555 1_555
I3_2 Zn2 1_555 1_555
I4_2 Zn2 1_555 1_555
N3 C22 1_555 1_555
N4 C25 1_555 1_555
N5 C19 1_555 1_555
N6 C19 1_555 1_555
Zn2 N3 1_555 1_555
N13 Zn2 1_555 1_555
C23 C24 1_555 1_555
C23 N3 1_555 1_555
C25 N6 1_555 1_555
C31 N4 1_555 1_555
C31 N5 1_555 1_555
C1 C2 1_555 1_555
C2 C3 1_555 1_555
C3 H1 1_555 1_555
C4 C3 1_555 1_555
H2 C4 1_555 1_555
C5 H3 1_555 1_555
C6 C2 1_555 1_555
H4 C6 1_555 1_555
C7 C8 1_555 1_555
C8 C9 1_555 1_555
C9 H5 1_555 1_555
C10 C9 1_555 1_555
H6 C10 1_555 1_555
C11 H7 1_555 1_555
C12 C8 1_555 1_555
H8 C12 1_555 1_555
C13 C14 1_555 1_555
C14 C15 1_555 1_555
C15 H9 1_555 1_555
C16 C15 1_555 1_555
H10 C16 1_555 1_555
C17 H11 1_555 1_555
C18 C14 1_555 1_555
H12 C18 1_555 1_555
C19_2 C20_2 1_555 1_555
C20_2 C21_2 1_555 1_555
C21_2 H13_2 1_555 1_555
C22_2 C21_2 1_555 1_555
H14_2 C22_2 1_555 1_555
C23_2 H15_2 1_555 1_555
C24_2 C20_2 1_555 1_555
H16_2 C24_2 1_555 1_555
C25_2 C26_2 1_555 1_555
C26_2 C27 1_555 1_555
C27 H17 1_555 1_555
C28 C27 1_555 1_555
H18 C28 1_555 1_555
C29 H19 1_555 1_555
C30 C26_2 1_555 1_555
H20 C30 1_555 1_555
C31_2 C32_2 1_555 1_555
C32_2 C33 1_555 1_555
C33 H21 1_555 1_555
C34 C33 1_555 1_555
H22 C34 1_555 1_555
C35 H23_2 1_555 1_555
C36_2 C32_2 1_555 1_555
H24_2 C36_2 1_555 1_555
I1 Zn1 1_555 1_555
I2 Zn1 1_555 1_555
I5 Zn3 1_555 1_555
I6 Zn3 1_555 1_555
N1 C34 1_555 1_555
N2 C28 1_555 1_555
N3_2 C22_2 1_555 1_555
N4_2 C25_2 1_555 1_555
N5_2 C19_2 1_555 1_555
N6_2 C19_2 1_555 1_555
N13_2 C4 1_555 1_555
N8 C10 1_555 1_555
N9 C16 1_555 1_555
N10 C1 1_555 1_555
N11 C1 1_555 1_555
N12 C7 1_555 1_555
Zn1 N2 1_555 1_555
Zn3 N1 1_555 1_555
N14 Zn3 1_555 1_555
Zn5 N9 1_555 1_555
C5 C6 1_555 1_555
C5 N13_2 1_555 1_555
C7 N10 1_555 1_555
C11 C12 1_555 1_555
C11 N8 1_555 1_555
C13 N11 1_555 1_555
C13 N12 1_555 1_555
C17 C18 1_555 1_555
C17 N9 1_555 1_555
C23_2 C24_2 1_555 1_555
C23_2 N3_2 1_555 1_555
C25_2 N6_2 1_555 1_555
C29 C30 1_555 1_555
C29 N2 1_555 1_555
C31_2 N4_2 1_555 1_555
C31_2 N5_2 1_555 1_555
C35 C36_2 1_555 1_555
C35 N1 1_555 1_555
N8 Zn1 1_555 1_555
C1_2 C2_2 1_555 1_555
C2_2 C3_2 1_555 1_555
C3_2 H1_2 1_555 1_555
C4_2 C3_2 1_555 1_555
H2_2 C4_2 1_555 1_555
C5_2 H3_2 1_555 1_555
C6_2 C2_2 1_555 1_555
H4_2 C6_2 1_555 1_555
C7_2 C8_2 1_555 1_555
C8_2 C9_2 1_555 1_555
C9_2 H5_2 1_555 1_555
C10_2 C9_2 1_555 1_555
H6_2 C10_2 1_555 1_555
C11_2 H7_2 1_555 1_555
C12_2 C8_2 1_555 1_555
H8_2 C12_2 1_555 1_555
C13_2 C14_2 1_555 1_555
C14_2 C15_2 1_555 1_555
C15_2 H9_2 1_555 1_555
C16_2 C15_2 1_555 1_555
H10_2 C16_2 1_555 1_555
C17_2 H11_2 1_555 1_555
C18_2 C14_2 1_555 1_555
H12_2 C18_2 1_555 1_555
C27_2 H17_2 1_555 1_555
C28_2 C27_2 1_555 1_555
H18_2 C28_2 1_555 1_555
C29_2 H19_2 1_555 1_555
I1_2 Zn1_2 1_555 1_555
N2_2 C28_2 1_555 1_555
N13 C4_2 1_555 1_555
N8_2 C10_2 1_555 1_555
N14 C16_2 1_555 1_555
N10_2 C1_2 1_555 1_555
N11_2 C1_2 1_555 1_555
N12_2 C7_2 1_555 1_555
Zn1_2 N2_2 1_555 1_555
C5_2 C6_2 1_555 1_555
C5_2 N13 1_555 1_555
C7_2 N10_2 1_555 1_555
C11_2 C12_2 1_555 1_555
C11_2 N8_2 1_555 1_555
C13_2 N11_2 1_555 1_555
C13_2 N12_2 1_555 1_555
C17_2 C18_2 1_555 1_555
C17_2 N14 1_555 1_555
C29_2 N2_2 1_555 1_555
N8_2 Zn1_2 1_555 1_555
C19_3 C20_3 1_555 1_555
C20_3 C21_3 1_555 1_555
C21_3 H13_3 1_555 1_555
C22_3 C21_3 1_555 1_555
H14_3 C22_3 1_555 1_555
C23_3 H15_3 1_555 1_555
C24_3 C20_3 1_555 1_555
H16_3 C24_3 1_555 1_555
C25_3 C26_3 1_555 1_555
C30_2 C26_3 1_555 1_555
H20_2 C30_2 1_555 1_555
C31_3 C32_3 1_555 1_555
C32_3 C33_2 1_555 1_555
C33_2 H21_2 1_555 1_555
C34_2 C33_2 1_555 1_555
H22_2 C34_2 1_555 1_555
C35_2 H23_3 1_555 1_555
C36_3 C32_3 1_555 1_555
H24_3 C36_3 1_555 1_555
I5_2 Zn5 1_555 1_555
I6_2 Zn5 1_555 1_555
N1_2 C34_2 1_555 1_555
N3_3 C22_3 1_555 1_555
N4_3 C25_3 1_555 1_555
N5_3 C19_3 1_555 1_555
N6_3 C19_3 1_555 1_555
Zn5 N1_2 1_555 1_555
C23_3 C24_3 1_555 1_555
C23_3 N3_3 1_555 1_555
C25_3 N6_3 1_555 1_555
C31_3 N4_3 1_555 1_555
C31_3 N5_3 1_555 1_555
C35_2 C36_3 1_555 1_555
C35_2 N1_2 1_555 1_555
C14_3 C15_3 1_555 1_555
C15_3 H9_3 1_555 1_555
C16_3 C15_3 1_555 1_555
H10_3 C16_3 1_555 1_555
C17_3 H11_3 1_555 1_555
C18_3 C14_3 1_555 1_555
H12_3 C18_3 1_555 1_555
C27_3 H17_3 1_555 1_555
C28_3 C27_3 1_555 1_555
H18_3 C28_3 1_555 1_555
N9_2 C16_3 1_555 1_555
Zn5_2 N9_2 1_555 1_555
C17_3 C18_3 1_555 1_555
C17_3 N9_2 1_555 1_555
C1_3 C2_3 1_555 1_555
C2_3 C3_3 1_555 1_555
C3_3 H1_3 1_555 1_555
C4_3 C3_3 1_555 1_555
H2_3 C4_3 1_555 1_555
C5_3 H3_3 1_555 1_555
C6_3 C2_3 1_555 1_555
H4_3 C6_3 1_555 1_555
C7_3 C8_3 1_555 1_555
C8_3 C9_3 1_555 1_555
C9_3 H5_3 1_555 1_555
C10_3 C9_3 1_555 1_555
H6_3 C10_3 1_555 1_555
C11_3 H7_3 1_555 1_555
C12_3 C8_3 1_555 1_555
H8_3 C12_3 1_555 1_555
C29_3 H19_3 1_555 1_555
H20_3 C30_3 1_555 1_555
C33_3 H21_3 1_555 1_555
C34_3 C33_3 1_555 1_555
H22_3 C34_3 1_555 1_555
I1_3 Zn1_3 1_555 1_555
I5_3 Zn5_2 1_555 1_555
I6_3 Zn5_2 1_555 1_555
N1_3 C34_3 1_555 1_555
N7 C4_3 1_555 1_555
N8_3 C10_3 1_555 1_555
N10_3 C1_3 1_555 1_555
N11_3 C1_3 1_555 1_555
N12_3 C7_3 1_555 1_555
Zn1_3 N2_3 1_555 1_555
Zn5_2 N1_3 1_555 1_555
Zn4_2 N7 1_555 1_555
C5_3 C6_3 1_555 1_555
C5_3 N7 1_555 1_555
C7_3 N10_3 1_555 1_555
C11_3 C12_3 1_555 1_555
C11_3 N8_3 1_555 1_555
C13_3 N11_3 1_555 1_555
C13_3 N12_3 1_555 1_555
C29_3 C30_3 1_555 1_555
C29_3 N2_3 1_555 1_555
C35_3 N1_3 1_555 1_555
N8_3 Zn1_3 1_555 1_555
I3_3 Zn4_2 1_555 1_555
I4_3 Zn4_2 1_555 1_555
H20_4 C30_4 1_555 1_555
C33_4 H21_4 1_555 1_555
C34_4 C33_4 1_555 1_555
H22_4 C34_4 1_555 1_555
I5_4 Zn3_2 1_555 1_555
I6_4 Zn3_2 1_555 1_555
N1_4 C34_4 1_555 1_555
Zn3_2 N1_4 1_555 1_555
N14_2 Zn3_2 1_555 1_555
C35_4 N1_4 1_555 1_555
C14_4 C15_4 1_555 1_555
C15_4 H9_4 1_555 1_555
C16_4 C15_4 1_555 1_555
H10_4 C16_4 1_555 1_555
C17_4 H11_4 1_555 1_555
C18_4 C14_4 1_555 1_555
H12_4 C18_4 1_555 1_555
C19_4 C20_4 1_555 1_555
C20_4 C21_4 1_555 1_555
C21_4 H13_4 1_555 1_555
C22_4 C21_4 1_555 1_555
H14_4 C22_4 1_555 1_555
C23_4 H15_4 1_555 1_555
C24_4 C20_4 1_555 1_555
H16_4 C24_4 1_555 1_555
C25_4 C26_4 1_555 1_555
C26_4 C27_4 1_555 1_555
C27_4 H17_4 1_555 1_555
C28_4 C27_4 1_555 1_555
H18_4 C28_4 1_555 1_555
C31_4 C32_4 1_555 1_555
C36_4 C32_4 1_555 1_555
H24_4 C36_4 1_555 1_555
I3_4 Zn2_2 1_555 1_555
I4_4 Zn2_2 1_555 1_555
N3_4 C22_4 1_555 1_555
N4_4 C25_4 1_555 1_555
N5_4 C19_4 1_555 1_555
N6_4 C19_4 1_555 1_555
N14_2 C16_4 1_555 1_555
Zn2_2 N3_4 1_555 1_555
C17_4 C18_4 1_555 1_555
C17_4 N14_2 1_555 1_555
C23_4 C24_4 1_555 1_555
C23_4 N3_4 1_555 1_555
C25_4 N6_4 1_555 1_555
C31_4 N4_4 1_555 1_555
C31_4 N5_4 1_555 1_555
C1_4 C2_4 1_555 1_555
C2_4 C3_4 1_555 1_555
C3_4 H1_4 1_555 1_555
C4_4 C3_4 1_555 1_555
H2_4 C4_4 1_555 1_555
C5_4 H3_4 1_555 1_555
C6_4 C2_4 1_555 1_555
H4_4 C6_4 1_555 1_555
C7_4 C8_4 1_555 1_555
C8_4 C9_4 1_555 1_555
C9_4 H5_4 1_555 1_555
C10_4 C9_4 1_555 1_555
H6_4 C10_4 1_555 1_555
C11_4 H7_4 1_555 1_555
C12_4 C8_4 1_555 1_555
H8_4 C12_4 1_555 1_555
C29_4 H19_4 1_555 1_555
I1_4 Zn1_4 1_555 1_555
I2_2 Zn1_4 1_555 1_555
N7_2 C4_4 1_555 1_555
N8_4 C10_4 1_555 1_555
N10_4 C1_4 1_555 1_555
N11_4 C1_4 1_555 1_555
N12_4 C7_4 1_555 1_555
Zn1_4 N2_4 1_555 1_555
C5_4 C6_4 1_555 1_555
C5_4 N7_2 1_555 1_555
C7_4 N10_4 1_555 1_555
C11_4 C12_4 1_555 1_555
C11_4 N8_4 1_555 1_555
C13_4 N11_4 1_555 1_555
C13_4 N12_4 1_555 1_555
C29_4 N2_4 1_555 1_555
N8_4 Zn1_4 1_555 1_555
C1_5 C2_5 1_555 1_555
C2_5 C3_5 1_555 1_555
C3_5 H1_5 1_555 1_555
C4_5 C3_5 1_555 1_555
H2_5 C4_5 1_555 1_555
C5_5 H3_5 1_555 1_555
C6_5 C2_5 1_555 1_555
H4_5 C6_5 1_555 1_555
C7_5 C8_5 1_555 1_555
C8_5 C9_5 1_555 1_555
C9_5 H5_5 1_555 1_555
C10_5 C9_5 1_555 1_555
H6_5 C10_5 1_555 1_555
C11_5 H7_5 1_555 1_555
C12_5 C8_5 1_555 1_555
H8_5 C12_5 1_555 1_555
C29_5 H19_5 1_555 1_555
I1_5 Zn1_5 1_555 1_555
I2_5 Zn1_5 1_555 1_555
N7_3 C4_5 1_555 1_555
N8_5 C10_5 1_555 1_555
N10_5 C1_5 1_555 1_555
N11_5 C1_5 1_555 1_555
N12_5 C7_5 1_555 1_555
Zn1_5 N2_5 1_555 1_555
C5_5 C6_5 1_555 1_555
C5_5 N7_3 1_555 1_555
C7_5 N10_5 1_555 1_555
C11_5 C12_5 1_555 1_555
C11_5 N8_5 1_555 1_555
C13_5 N11_5 1_555 1_555
C13_5 N12_5 1_555 1_555
C29_5 N2_5 1_555 1_555
N8_5 Zn1_5 1_555 1_555
H20_5 C30_5 1_555 1_555
C33_5 H21_5 1_555 1_555
C34_5 C33_5 1_555 1_555
H22_5 C34_5 1_555 1_555
I5_5 Zn3_3 1_555 1_555
I6_5 Zn3_3 1_555 1_555
N1_5 C34_5 1_555 1_555
Zn3_3 N1_5 1_555 1_555
N14_3 Zn3_3 1_555 1_555
C35_5 N1_5 1_555 1_555
C14_5 C15_5 1_555 1_555
C15_5 H9_5 1_555 1_555
C16_5 C15_5 1_555 1_555
H10_5 C16_5 1_555 1_555
C17_5 H11_5 1_555 1_555
C18_5 C14_5 1_555 1_555
H12_5 C18_5 1_555 1_555
C19_5 C20_5 1_555 1_555
C20_5 C21_5 1_555 1_555
C21_5 H13_5 1_555 1_555
C22_5 C21_5 1_555 1_555
H14_5 C22_5 1_555 1_555
C23_5 H15_5 1_555 1_555
C24_5 C20_5 1_555 1_555
H16_5 C24_5 1_555 1_555
C25_5 C26_5 1_555 1_555
C26_5 C27_5 1_555 1_555
C27_5 H17_5 1_555 1_555
C28_5 C27_5 1_555 1_555
H18_5 C28_5 1_555 1_555
C31_5 C32_5 1_555 1_555
C36_5 C32_5 1_555 1_555
H24_5 C36_5 1_555 1_555
I3_5 Zn2_3 1_555 1_555
I4_5 Zn2_3 1_555 1_555
N3_5 C22_5 1_555 1_555
N4_5 C25_5 1_555 1_555
N5_5 C19_5 1_555 1_555
N6_5 C19_5 1_555 1_555
N14_3 C16_5 1_555 1_555
Zn2_3 N3_5 1_555 1_555
C17_5 C18_5 1_555 1_555
C17_5 N14_3 1_555 1_555
C23_5 C24_5 1_555 1_555
C23_5 N3_5 1_555 1_555
C25_5 N6_5 1_555 1_555
C31_5 N4_5 1_555 1_555
C31_5 N5_5 1_555 1_555
C14_6 C15_6 1_555 1_555
C15_6 H9_6 1_555 1_555
C16_6 C15_6 1_555 1_555
H10_6 C16_6 1_555 1_555
C17_6 H11_6 1_555 1_555
C18_6 C14_6 1_555 1_555
H12_6 C18_6 1_555 1_555
C27_6 H17_6 1_555 1_555
C28_6 C27_6 1_555 1_555
H18_6 C28_6 1_555 1_555
N9_3 C16_6 1_555 1_555
Zn5_3 N9_3 1_555 1_555
C17_6 C18_6 1_555 1_555
C17_6 N9_3 1_555 1_555
C1_6 C2_6 1_555 1_555
C2_6 C3_6 1_555 1_555
C3_6 H1_6 1_555 1_555
C4_6 C3_6 1_555 1_555
H2_6 C4_6 1_555 1_555
C5_6 H3_6 1_555 1_555
C6_6 C2_6 1_555 1_555
H4_6 C6_6 1_555 1_555
C7_6 C8_6 1_555 1_555
C8_6 C9_6 1_555 1_555
C9_6 H5_6 1_555 1_555
C10_6 C9_6 1_555 1_555
H6_6 C10_6 1_555 1_555
C11_6 H7_6 1_555 1_555
C12_6 C8_6 1_555 1_555
H8_6 C12_6 1_555 1_555
C29_6 H19_6 1_555 1_555
H20_6 C30_6 1_555 1_555
C33_6 H21_6 1_555 1_555
C34_6 C33_6 1_555 1_555
H22_6 C34_6 1_555 1_555
I1_6 Zn1_6 1_555 1_555
I5_6 Zn5_3 1_555 1_555
I6_6 Zn5_3 1_555 1_555
N1_6 C34_6 1_555 1_555
N7_4 C4_6 1_555 1_555
N8_6 C10_6 1_555 1_555
N10_6 C1_6 1_555 1_555
N11_6 C1_6 1_555 1_555
N12_6 C7_6 1_555 1_555
Zn1_6 N2_6 1_555 1_555
Zn5_3 N1_6 1_555 1_555
Zn4_3 N7_4 1_555 1_555
C5_6 C6_6 1_555 1_555
C5_6 N7_4 1_555 1_555
C7_6 N10_6 1_555 1_555
C11_6 C12_6 1_555 1_555
C11_6 N8_6 1_555 1_555
C13_6 N11_6 1_555 1_555
C13_6 N12_6 1_555 1_555
C29_6 C30_6 1_555 1_555
C29_6 N2_6 1_555 1_555
C35_6 N1_6 1_555 1_555
N8_6 Zn1_6 1_555 1_555
I3_6 Zn4_3 1_555 1_555
I4_6 Zn4_3 1_555 1_555
C19_6 C20_6 1_555 1_555
C20_6 C21_6 1_555 1_555
C21_6 H13_6 1_555 1_555
C22_6 C21_6 1_555 1_555
H14_6 C22_6 1_555 1_555
C23_6 H15_6 1_555 1_555
C24_6 C20_6 1_555 1_555
H16_6 C24_6 1_555 1_555
C25_6 C26_6 1_555 1_555
C31_6 C32_6 1_555 1_555
C36_6 C32_6 1_555 1_555
H24_6 C36_6 1_555 1_555
I3_7 Zn2_4 1_555 1_555
I4_7 Zn2_4 1_555 1_555
N3_6 C22_6 1_555 1_555
N4_6 C25_6 1_555 1_555
N5_6 C19_6 1_555 1_555
N6_6 C19_6 1_555 1_555
Zn2_4 N3_6 1_555 1_555
N13_3 Zn2_4 1_555 1_555
C23_6 C24_6 1_555 1_555
C23_6 N3_6 1_555 1_555
C25_6 N6_6 1_555 1_555
C31_6 N4_6 1_555 1_555
C31_6 N5_6 1_555 1_555
C1_7 C2_7 1_555 1_555
C2_7 C3_7 1_555 1_555
C3_7 H1_7 1_555 1_555
C4_7 C3_7 1_555 1_555
H2_7 C4_7 1_555 1_555
C5_7 H3_7 1_555 1_555
C6_7 C2_7 1_555 1_555
H4_7 C6_7 1_555 1_555
C7_7 C8_7 1_555 1_555
C8_7 C9_7 1_555 1_555
C9_7 H5_7 1_555 1_555
C10_7 C9_7 1_555 1_555
H6_7 C10_7 1_555 1_555
C11_7 H7_7 1_555 1_555
C12_7 C8_7 1_555 1_555
H8_7 C12_7 1_555 1_555
C13_7 C14_7 1_555 1_555
C14_7 C15_7 1_555 1_555
C15_7 H9_7 1_555 1_555
C16_7 C15_7 1_555 1_555
H10_7 C16_7 1_555 1_555
C17_7 H11_7 1_555 1_555
C18_7 C14_7 1_555 1_555
H12_7 C18_7 1_555 1_555
C19_7 C20_7 1_555 1_555
C20_7 C21_7 1_555 1_555
C21_7 H13_7 1_555 1_555
C22_7 C21_7 1_555 1_555
H14_7 C22_7 1_555 1_555
C23_7 H15_7 1_555 1_555
C24_7 C20_7 1_555 1_555
H16_7 C24_7 1_555 1_555
C25_7 C26_7 1_555 1_555
C26_7 C27_7 1_555 1_555
C27_7 H17_7 1_555 1_555
C28_7 C27_7 1_555 1_555
H18_7 C28_7 1_555 1_555
C29_7 H19_7 1_555 1_555
C30_7 C26_7 1_555 1_555
H20_7 C30_7 1_555 1_555
C31_7 C32_7 1_555 1_555
C32_7 C33_7 1_555 1_555
C33_7 H21_7 1_555 1_555
C34_7 C33_7 1_555 1_555
H22_7 C34_7 1_555 1_555
C35_7 H23_7 1_555 1_555
C36_7 C32_7 1_555 1_555
H24_7 C36_7 1_555 1_555
I1_7 Zn1_7 1_555 1_555
I2_6 Zn1_7 1_555 1_555
I5_7 Zn3_4 1_555 1_555
I6_7 Zn3_4 1_555 1_555
N1_7 C34_7 1_555 1_555
N2_7 C28_7 1_555 1_555
N3_7 C22_7 1_555 1_555
N4_7 C25_7 1_555 1_555
N5_7 C19_7 1_555 1_555
N6_7 C19_7 1_555 1_555
N13_4 C4_7 1_555 1_555
N8_7 C10_7 1_555 1_555
N9_4 C16_7 1_555 1_555
N10_7 C1_7 1_555 1_555
N11_7 C1_7 1_555 1_555
N12_7 C7_7 1_555 1_555
Zn1_7 N2_7 1_555 1_555
Zn3_4 N1_7 1_555 1_555
N14_4 Zn3_4 1_555 1_555
Zn5_4 N9_4 1_555 1_555
C5_7 C6_7 1_555 1_555
C5_7 N13_4 1_555 1_555
C7_7 N10_7 1_555 1_555
C11_7 C12_7 1_555 1_555
C11_7 N8_7 1_555 1_555
C13_7 N11_7 1_555 1_555
C13_7 N12_7 1_555 1_555
C17_7 C18_7 1_555 1_555
C17_7 N9_4 1_555 1_555
C23_7 C24_7 1_555 1_555
C23_7 N3_7 1_555 1_555
C25_7 N6_7 1_555 1_555
C29_7 C30_7 1_555 1_555
C29_7 N2_7 1_555 1_555
C31_7 N4_7 1_555 1_555
C31_7 N5_7 1_555 1_555
C35_7 C36_7 1_555 1_555
C35_7 N1_7 1_555 1_555
N8_7 Zn1_7 1_555 1_555
C19_8 C20_8 1_555 1_555
C20_8 C21_8 1_555 1_555
C21_8 H13_8 1_555 1_555
C22_8 C21_8 1_555 1_555
H14_8 C22_8 1_555 1_555
C23_8 H15_8 1_555 1_555
C24_8 C20_8 1_555 1_555
H16_8 C24_8 1_555 1_555
C25_8 C26_8 1_555 1_555
C30_8 C26_8 1_555 1_555
H20_8 C30_8 1_555 1_555
C31_8 C32_8 1_555 1_555
C32_8 C33_8 1_555 1_555
C33_8 H21_8 1_555 1_555
C34_8 C33_8 1_555 1_555
H22_8 C34_8 1_555 1_555
C35_8 H23_8 1_555 1_555
C36_8 C32_8 1_555 1_555
H24_8 C36_8 1_555 1_555
I5_8 Zn5_4 1_555 1_555
I6_8 Zn5_4 1_555 1_555
N1_8 C34_8 1_555 1_555
N3_8 C22_8 1_555 1_555
N4_8 C25_8 1_555 1_555
N5_8 C19_8 1_555 1_555
N6_8 C19_8 1_555 1_555
Zn5_4 N1_8 1_555 1_555
C23_8 C24_8 1_555 1_555
C23_8 N3_8 1_555 1_555
C25_8 N6_8 1_555 1_555
C31_8 N4_8 1_555 1_555
C31_8 N5_8 1_555 1_555
C35_8 C36_8 1_555 1_555
C35_8 N1_8 1_555 1_555
C1_8 C2_8 1_555 1_555
C2_8 C3_8 1_555 1_555
C3_8 H1_8 1_555 1_555
C4_8 C3_8 1_555 1_555
H2_8 C4_8 1_555 1_555
C5_8 H3_8 1_555 1_555
C6_8 C2_8 1_555 1_555
H4_8 C6_8 1_555 1_555
C7_8 C8_8 1_555 1_555
C8_8 C9_8 1_555 1_555
C9_8 H5_8 1_555 1_555
C10_8 C9_8 1_555 1_555
H6_8 C10_8 1_555 1_555
C11_8 H7_8 1_555 1_555
C12_8 C8_8 1_555 1_555
H8_8 C12_8 1_555 1_555
C13_8 C14_8 1_555 1_555
C14_8 C15_8 1_555 1_555
C15_8 H9_8 1_555 1_555
C16_8 C15_8 1_555 1_555
H10_8 C16_8 1_555 1_555
C17_8 H11_8 1_555 1_555
C18_8 C14_8 1_555 1_555
H12_8 C18_8 1_555 1_555
C27_8 H17_8 1_555 1_555
C28_8 C27_8 1_555 1_555
H18_8 C28_8 1_555 1_555
C29_8 H19_8 1_555 1_555
I1_8 Zn1_8 1_555 1_555
N2_8 C28_8 1_555 1_555
N13_3 C4_8 1_555 1_555
N8_8 C10_8 1_555 1_555
N14_4 C16_8 1_555 1_555
N10_8 C1_8 1_555 1_555
N11_8 C1_8 1_555 1_555
N12_8 C7_8 1_555 1_555
Zn1_8 N2_8 1_555 1_555
C5_8 C6_8 1_555 1_555
C5_8 N13_3 1_555 1_555
C7_8 N10_8 1_555 1_555
C11_8 C12_8 1_555 1_555
C11_8 N8_8 1_555 1_555
C13_8 N11_8 1_555 1_555
C13_8 N12_8 1_555 1_555
C17_8 C18_8 1_555 1_555
C17_8 N14_4 1_555 1_555
C29_8 N2_8 1_555 1_555
N8_8 Zn1_8 1_555 1_555
I3_8 Zn4_4 1_555 1_555
I4_8 Zn4_4 1_555 1_555

#END
