
###############################################################################
#
# This file contains modified crystal structure data generated from the
# MOF subset of the Cambridge Structural Database (CSD) v543 
# hosted by the Cambridge Crystallographic Data Centre (CCDC).
#
# This work is licensed under the Creative Commons
# Attribution-NonCommercial-ShareAlike 4.0 International License.
# To view a copy of this license, visit
# http://creativecommons.org/licenses/by-nc-sa/4.0/
# or send a letter to
# Creative Commons, PO Box 1866, Mountain View, CA 94042, USA.
#
# CIF created using the CSD Python API on 29 September 2022
# The structure has been converted into the P1 space group
# The structure has a 3D framework
# The original CSD entry UCEXOQ is in the triclinic crystal system
# The framework has been calculated to contain at least 10.0% void space
# The void calculation uses a probe of radius 1.32A, grid spacing 0.4
# H atom positions have been added when not included in the experimental data
# Generated hydrogen atom positions removed from atoms on special positions
#
###############################################################################

data_UCEXOQ
_chemical_formula_moiety         '(C86 H84 Er6 N4 O46)n'
_symmetry_cell_setting           triclinic
_symmetry_space_group_name_H-M   'P 1'
_symmetry_Int_Tables_number      1
_space_group_name_Hall           'P 1'
loop_
_symmetry_equiv_pos_site_id
_symmetry_equiv_pos_as_xyz
1 x,y,z
_cell_length_a                   10.7098(5)
_cell_length_b                   11.2449(5)
_cell_length_c                   26.0660(11)
_cell_angle_alpha                84.9980(10)
_cell_angle_beta                 88.1350(10)
_cell_angle_gamma                62.6600(10)
_cell_volume                     2777.77
loop_
_atom_site_label
_atom_site_type_symbol
_atom_site_fract_x
_atom_site_fract_y
_atom_site_fract_z
O9 O 0.37051(15) 0.04775(15) 0.47062(6)
O10 O 0.40537(15) 0.08890(18) 0.38947(6)
C16 C 0.1277(2) 0.0328(2) 0.44381(10)
C18 C 0.1076(2) 0.1862(2) 0.36999(10)
H10 H 0.1448 0.2339 0.3494
C19 C 0.1826(2) 0.1042(2) 0.41267(9)
C20 C 0.3263(2) 0.0824(2) 0.42515(9)
Er17 Er 0.381330(8) 0.034850(8) 0.560250(4)
H8 H 0.1766 0.9798 0.4729
C38 C 0.1268(5) 0.4724(4) 0.43118(18)
H20 H 0.0688 0.4583 0.4076
H21 H 0.1622 0.3994 0.4575
H22 H 0.2041 0.4768 0.4129
C39 C 0.1203(4) 0.6290(4) 0.49128(18)
H23 H 0.0591 0.7129 0.5049
H24 H 0.1982 0.6358 0.4745
H25 H 0.1547 0.5591 0.5188
C40 C -0.0000(3) 0.9308(3) 0.27561(14)
H26 H 0.0207 0.9732 0.2468
C41 C 0.0795(5) 0.7720(4) 0.35037(16)
H28 H 0.1066 0.7965 0.3809
H29 H 0.1342 0.6772 0.3478
C42 C 0.2477(5) 0.8228(6) 0.2943(3)
H30 H 0.2482 0.8761 0.2635
H31 H 0.3064 0.7295 0.2896
H32 H 0.2829 0.8481 0.3226
N1 N 0.0440(3) 0.5979(3) 0.45469(11)
N2 N 0.1043(3) 0.8452(3) 0.30502(12)
O34 O 0.53721(17) 0.50158(16) 0.16995(7)
O46 O 0.48796(16) 0.20515(17) 0.19572(7)
O48 O 0.39606(15) 0.35519(16) 0.12985(7)
O52 O 0.79304(15) 0.26612(16) 0.14331(7)
O57 O 0.64394(16) 0.15515(15) 0.08431(7)
O59 O 0.50248(16) 0.31309(14) 0.02826(7)
O61 O 0.74339(16) 0.37088(16) 0.02808(7)
O63 O 0.69761(16) 0.53119(16) 0.07902(7)
O64 O 0.41605(16) 0.58492(15) 0.05966(7)
Er4 Er 0.588471(9) 0.382831(9) 0.100274(4)
C63 C 0.3910(2) 0.2749(2) 0.16494(10)
C64 C 0.2577(2) 0.2594(2) 0.16858(10)
C65 C 0.1657(2) 0.2991(3) 0.12733(11)
H43 H 0.1866 0.3337 0.0964
C66 C 0.0424(2) 0.2877(3) 0.13178(12)
C67 C 0.2253(2) 0.2070(3) 0.21459(10)
H45 H 0.2882 0.1766 0.2422
C68 C 0.1002(2) 0.2000(3) 0.21933(10)
H46 H 0.0786 0.1666 0.2504
C69 C 0.0054(2) 0.2427(2) 0.17799(9)
C77 C 0.0340(2) 0.5919(2) 0.01858(11)
H49 H 0.0557 0.6554 0.0309
Er11 Er 0.655740(9) 0.15410(1) 0.258290(4)
Er16 Er 0.618670(8) 0.965150(8) 0.439750(4)
H75 H 0.44472 0.656864 0.0613642
H76 H 0.405898 0.57228 0.0230741
O60 O 0.25661(16) 0.62912(16) 0.97192(7)
O62 O 0.30239(16) 0.46881(16) 0.92098(7)
Er7 Er 0.411529(9) 0.617169(9) 0.899726(4)
C75 C 0.2340(2) 0.5355(2) 0.95606(10)
C76 C 0.1149(2) 0.5150(2) 0.98058(10)
C78 C 0.0792(2) 0.4233(2) 0.96115(11)
H50 H 0.1312 0.3724 0.9347
O7 O 0.75398(16) 0.04644(16) 0.39977(7)
O8 O 0.72575(16) 0.19485(16) 0.33426(7)
O17 O 0.43910(18) 0.25368(18) 0.30581(8)
O18 O 0.74152(18) 0.01177(17) 0.18771(8)
C13 C 0.7896(2) 0.1232(2) 0.37275(9)
C14 C 0.9229(2) 0.1229(2) 0.38861(10)
C15 C 0.9984(2) 0.0419(2) 0.43071(10)
C17 C 0.9774(2) 0.1970(2) 0.35806(10)
H9 H 0.9263 0.2532 0.3299
O26 O 0.54282(18) 0.17962(15) 0.46457(7)
O28 O 0.66484(17) 0.85618(15) 0.36653(7)
O30 O 0.60506(16) 0.99252(14) 0.29425(7)
O32 O 0.56425(17) 0.38325(15) 0.24492(7)
O50 O 0.83833(16) 0.19848(18) 0.22591(7)
C47 C 0.6308(2) 0.8827(2) 0.31973(9)
C48 C 0.6160(2) 0.7778(2) 0.29248(9)
C49 C 0.5797(3) 0.8006(2) 0.24046(10)
H35 H 0.5667 0.8803 0.2221
C50 C 0.5630(3) 0.7035(2) 0.21603(10)
H36 H 0.5389 0.7185 0.1813
C51 C 0.6376(3) 0.6578(2) 0.31929(10)
H37 H 0.6639 0.6420 0.3539
C52 C 0.6206(2) 0.5608(2) 0.29515(10)
H38 H 0.6349 0.4808 0.3135
C53 C 0.5821(2) 0.5839(2) 0.24333(9)
C54 C 0.5600(2) 0.4809(2) 0.21722(9)
H70 H 0.777793 0.0544361 0.160267
O1 O 0.57333(17) 0.78206(15) 0.46192(7)
O2 O 0.45718(18) 0.82038(15) 0.53543(7)
O11 O 0.84673(17) 0.79099(17) 0.45929(7)
O16 O 0.87789(18) 0.95863(19) 0.28343(9)
C1 C 0.5124(2) 0.7527(2) 0.49905(10)
C2 C 0.5054(2) 0.6214(2) 0.49896(10)
C3 C 0.4754(2) 0.5659(2) 0.54478(11)
H1 H 0.4585 0.6099 0.5748
C4 C 0.5288(3) 0.5549(2) 0.45497(10)
H2 H 0.5480 0.5923 0.4244
H7 H 0.9624 0.9924 0.4508
C29 C 0.5609(2) 0.1916(2) 0.04662(9)
C30 C 0.5294(2) 0.0920(2) 0.02269(10)
C33 C 0.7660(2) 0.4645(2) 0.04394(10)
C34 C 0.8851(2) 0.4850(2) 0.01942(10)
C36 C 0.9208(2) 0.5767(2) 0.03885(11)
H18 H 0.8688 0.6276 0.0653
C37 C 0.9160(3) 0.6816(3) 0.44144(11)
H19 H 0.8731 0.6574 0.4167
C40_2 C 1.0000(3) 0.9308(3) 0.27561(14)
H27 H 0.9816 0.7945 0.3520
O24 O 0.42667(17) 0.21794(15) 0.53808(7)
O29 O 0.33516(17) 0.14382(15) 0.63347(7)
O40 O 0.62949(15) 0.95225(15) 0.52938(6)
O45 O 0.15327(17) 0.20901(17) 0.54071(7)
C43 C 0.4876(2) 0.2473(2) 0.50095(10)
C44 C 0.4946(2) 0.3786(2) 0.50104(10)
C45 C 0.5246(2) 0.4341(2) 0.45522(11)
H33 H 0.5415 0.3901 0.4252
C46 C 0.4712(3) 0.4451(2) 0.54503(10)
H34 H 0.4520 0.4077 0.5756
H44 H 0.9836 0.3107 0.1032
C70 C 0.8691(2) 0.2343(2) 0.18283(10)
C79 C 0.0840(3) 0.3184(3) 0.55856(11)
H51 H 0.1269 0.3426 0.5833
H69 H 0.663642 0.999356 0.173611
H73 H 0.819162 0.024091 0.170338
C31 C 0.4437(2) 0.1323(2) 0.97916(10)
H15 H 0.4052 0.2210 0.9652
C35 C 0.9660(2) 0.4081(2) 0.98142(11)
H17 H 0.9443 0.3446 0.9691
C74 C 0.4158(2) 0.0393(2) 0.95668(10)
H48 H 0.3594 0.0660 0.9273
C32 C 0.5842(2) 0.9607(2) 0.04332(10)
H16 H 0.6406 0.9340 0.0727
O36 O 0.24602(16) 0.95356(16) 0.60023(7)
O44 O 0.59463(15) 0.91110(18) 0.61053(6)
C73 C 0.5563(2) 0.8677(2) 0.02084(10)
H47 H 0.5948 0.7790 0.0348
H74 H 0.776703 0.916423 0.201134
O56 O 0.35606(16) 0.84485(15) 0.91569(7)
O58 O 0.49752(16) 0.68691(14) 0.97174(7)
C71 C 0.4391(2) 0.8084(2) 0.95338(9)
C72 C 0.4706(2) 0.9080(2) 0.97731(10)
C80 C 0.8732(5) 0.5276(4) 0.56882(18)
H52 H 0.9312 0.5417 0.5924
H53 H 0.8378 0.6006 0.5425
H54 H 0.7959 0.5232 0.5871
C81 C 0.8797(4) 0.3710(4) 0.50872(18)
H55 H 0.9409 0.2871 0.4951
H56 H 0.8018 0.3642 0.5255
H57 H 0.8453 0.4409 0.4812
N3 N 0.9560(3) 0.4021(3) 0.54531(11)
O14 O 0.16167(16) 0.80152(18) 0.77409(7)
O15 O 0.20696(15) 0.73388(16) 0.85669(7)
H12 H 0.0164 0.6893 0.8968
C28 C 0.1309(2) 0.7657(2) 0.81717(10)
H39 H 0.0376 0.0076 0.5492
Er10 Er 0.344260(9) 0.84590(1) 0.741710(4)
O37 O 0.27425(16) 0.80515(16) 0.66574(7)
C55 C 0.2104(2) 0.8768(2) 0.62725(9)
C56 C 0.0771(2) 0.8771(2) 0.61139(10)
C57 C 0.0016(2) 0.9581(2) 0.56929(10)
C59 C 0.0226(2) 0.8030(2) 0.64194(10)
H41 H 0.0737 0.7468 0.6701
O31 O 0.39494(16) 0.00748(14) 0.70575(7)
O53 O 0.12211(18) 0.04137(19) 0.71657(9)
C82 C 0.0000(3) 0.0692(3) 0.72439(14)
H59 H 0.0184 0.2055 0.6480
H74_2 H 0.223297 0.0835774 0.798866
O5 O 0.43575(17) 0.61675(15) 0.75508(7)
O6 O 0.46279(17) 0.49842(16) 0.83005(7)
O12 O 0.51204(16) 0.79485(17) 0.80428(7)
O13 O 0.60394(15) 0.64481(16) 0.87015(7)
O23 O 0.58395(16) 0.41508(15) 0.94034(7)
C5 C 0.3692(2) 0.1173(2) 0.68027(9)
C6 C 0.3840(2) 0.2222(2) 0.70752(9)
C7 C 0.4203(3) 0.1994(2) 0.75954(10)
H3 H 0.4333 0.1197 0.7779
C8 C 0.4370(3) 0.2965(2) 0.78397(10)
H4 H 0.4611 0.2815 0.8187
C9 C 0.3624(3) 0.3422(2) 0.68071(10)
H5 H 0.3361 0.3580 0.6461
C10 C 0.3794(2) 0.4392(2) 0.70485(10)
H6 H 0.3651 0.5192 0.6865
C11 C 0.4179(2) 0.4161(2) 0.75667(9)
C12 C 0.4400(2) 0.5191(2) 0.78278(9)
C21 C 0.6090(2) 0.7251(2) 0.83506(10)
C22 C 0.7423(2) 0.7406(2) 0.83142(10)
C23 C 0.8343(2) 0.7009(3) 0.87267(11)
H11 H 0.8134 0.6663 0.9036
C24 C 0.9576(2) 0.7123(3) 0.86822(12)
C25 C 0.7747(2) 0.7930(3) 0.78541(10)
H13 H 0.7118 0.8234 0.7578
C26 C 0.8998(2) 0.8000(3) 0.78067(10)
H14 H 0.9214 0.8334 0.7496
C27 C 0.9946(2) 0.7573(2) 0.82201(9)
O54 O 0.56090(18) 0.74632(18) 0.69419(8)
O55 O 0.25848(18) 0.98823(17) 0.81229(8)
H40 H 0.8234 0.0202 0.5271
H67 H 0.55528 0.343136 0.938636
H68 H 0.594102 0.42772 0.976926
H69_2 H 0.336358 0.000643613 0.826389
H73_2 H 0.180838 0.975909 0.829662
C58 C 0.8723(2) 0.9672(2) 0.55619(10)
C60 C 0.8924(2) 0.8138(2) 0.63001(10)
H42 H 0.8552 0.7661 0.6506
C61 C 0.8174(2) 0.8958(2) 0.58733(9)
C62 C 0.6737(2) 0.9176(2) 0.57485(9)
H70_2 H 0.222207 0.945564 0.839733
C82_2 C 1.0000(3) 0.0692(3) 0.72439(14)
H58 H 0.9793 0.0268 0.7532
C83 C 0.9205(5) 0.2280(4) 0.64963(16)
H60 H 0.8934 0.2035 0.6191
H61 H 0.8658 0.3228 0.6522
C84 C 0.7523(5) 0.1772(6) 0.7057(3)
H62 H 0.7518 0.1239 0.7365
H63 H 0.6936 0.2705 0.7104
H64 H 0.7171 0.1519 0.6774
N4 N 0.8957(3) 0.1548(3) 0.69498(12)
loop_
_geom_bond_atom_site_label_1
_geom_bond_atom_site_label_2
_geom_bond_site_symmetry_1
_geom_bond_site_symmetry_2
O9 C20 1_555 1_555
O10 C20 1_555 1_555
H10 C18 1_555 1_555
C19 C16 1_555 1_555
C20 C19 1_555 1_555
Er17 O9 1_555 1_555
C18 C19 1_555 1_555
C38 H20 1_555 1_555
H21 C38 1_555 1_555
H22 C38 1_555 1_555
C39 H23 1_555 1_555
H24 C39 1_555 1_555
H25 C39 1_555 1_555
H26 C40 1_555 1_555
H28 C41 1_555 1_555
H29 C41 1_555 1_555
C42 H30 1_555 1_555
H31 C42 1_555 1_555
H32 C42 1_555 1_555
N2 C40 1_555 1_555
O34 Er4 1_555 1_555
O46 C63 1_555 1_555
O48 Er4 1_555 1_555
O52 Er4 1_555 1_555
O57 Er4 1_555 1_555
O59 Er4 1_555 1_555
O61 Er4 1_555 1_555
O63 Er4 1_555 1_555
O64 Er4 1_555 1_555
C63 O48 1_555 1_555
C64 C63 1_555 1_555
C65 C64 1_555 1_555
H43 C65 1_555 1_555
C66 C65 1_555 1_555
C67 C64 1_555 1_555
H45 C67 1_555 1_555
C68 C67 1_555 1_555
H46 C68 1_555 1_555
C69 C66 1_555 1_555
H49 C77 1_555 1_555
Er11 O46 1_555 1_555
C38 N1 1_555 1_555
C39 N1 1_555 1_555
C41 N2 1_555 1_555
C42 N2 1_555 1_555
C68 C69 1_555 1_555
O64 H75 1_555 1_555
O64 H76 1_555 1_555
O60 Er7 1_555 1_555
O62 Er7 1_555 1_555
C75 O60 1_555 1_555
C76 C75 1_555 1_555
H50 C78 1_555 1_555
O62 C75 1_555 1_555
C76 C78 1_555 1_555
O7 C13 1_555 1_555
O8 C13 1_555 1_555
O17 Er11 1_555 1_555
O18 Er11 1_555 1_555
C13 C14 1_555 1_555
C14 C15 1_555 1_555
C17 C14 1_555 1_555
H9 C17 1_555 1_555
O28 C47 1_555 1_555
O30 C47 1_555 1_555
O32 Er11 1_555 1_555
O50 Er11 1_555 1_555
C47 C48 1_555 1_555
C48 C49 1_555 1_555
C49 H35 1_555 1_555
C50 C49 1_555 1_555
H36 C50 1_555 1_555
C51 C48 1_555 1_555
H37 C51 1_555 1_555
C52 C51 1_555 1_555
H38 C52 1_555 1_555
C53 C50 1_555 1_555
C54 O32 1_555 1_555
Er16 O28 1_555 1_555
O8 Er11 1_555 1_555
O34 C54 1_555 1_555
C52 C53 1_555 1_555
C53 C54 1_555 1_555
O18 H70 1_555 1_555
O1 C1 1_555 1_555
O2 C1 1_555 1_555
O11 C37 1_555 1_555
C1 C2 1_555 1_555
C2 C3 1_555 1_555
C3 H1 1_555 1_555
C4 C2 1_555 1_555
H2 C4 1_555 1_555
C29 O57 1_555 1_555
C30 C29 1_555 1_555
C33 O61 1_555 1_555
C34 C33 1_555 1_555
C36 C34 1_555 1_555
H18 C36 1_555 1_555
C37 H19 1_555 1_555
C40_2 O16 1_555 1_555
Er16 O1 1_555 1_555
O24 C43 1_555 1_555
O26 C43 1_555 1_555
O29 Er17 1_555 1_555
O40 Er16 1_555 1_555
O45 C79 1_555 1_555
O50 C70 1_555 1_555
O52 C70 1_555 1_555
C43 C44 1_555 1_555
C44 C45 1_555 1_555
C45 C4 1_555 1_555
H33 C45 1_555 1_555
C46 C3 1_555 1_555
H34 C46 1_555 1_555
C79 H51 1_555 1_555
Er17 O24 1_555 1_555
O11 Er16 1_555 1_555
O59 C29 1_555 1_555
O63 C33 1_555 1_555
O45 Er17 1_555 1_555
C44 C46 1_555 1_555
O18 H73 1_555 1_555
H15 C31 1_555 1_555
H17 C35 1_555 1_555
C74 C31 1_555 1_555
H48 C74 1_555 1_555
H16 C32 1_555 1_555
C73 C32 1_555 1_555
H47 C73 1_555 1_555
O56 Er7 1_555 1_555
O58 Er7 1_555 1_555
C71 O56 1_555 1_555
C72 C71 1_555 1_555
O58 C71 1_555 1_555
C80 H52 1_555 1_555
H53 C80 1_555 1_555
H54 C80 1_555 1_555
C81 H55 1_555 1_555
H56 C81 1_555 1_555
H57 C81 1_555 1_555
C80 N3 1_555 1_555
C81 N3 1_555 1_555
O14 C28 1_555 1_555
O15 C28 1_555 1_555
Er7 O15 1_555 1_555
Er10 O14 1_555 1_555
O36 C55 1_555 1_555
O37 C55 1_555 1_555
C55 C56 1_555 1_555
C56 C57 1_555 1_555
C59 C56 1_555 1_555
H41 C59 1_555 1_555
Er10 O37 1_555 1_555
C82 O53 1_555 1_555
O29 C5 1_555 1_555
O31 C5 1_555 1_555
O5 C12 1_555 1_555
O6 Er7 1_555 1_555
O12 C21 1_555 1_555
O13 Er7 1_555 1_555
O23 Er7 1_555 1_555
C5 C6 1_555 1_555
C6 C7 1_555 1_555
C7 H3 1_555 1_555
C8 C7 1_555 1_555
H4 C8 1_555 1_555
C9 C6 1_555 1_555
H5 C9 1_555 1_555
C10 C9 1_555 1_555
H6 C10 1_555 1_555
C11 C8 1_555 1_555
C12 O6 1_555 1_555
C21 O13 1_555 1_555
C22 C21 1_555 1_555
C23 C22 1_555 1_555
H11 C23 1_555 1_555
C24 C23 1_555 1_555
C25 C22 1_555 1_555
H13 C25 1_555 1_555
C26 C25 1_555 1_555
H14 C26 1_555 1_555
C27 C24 1_555 1_555
O54 Er10 1_555 1_555
O55 Er10 1_555 1_555
Er10 O5 1_555 1_555
O12 Er10 1_555 1_555
C10 C11 1_555 1_555
C11 C12 1_555 1_555
C26 C27 1_555 1_555
O23 H67 1_555 1_555
O23 H68 1_555 1_555
O55 H73_2 1_555 1_555
H42 C60 1_555 1_555
C61 C58 1_555 1_555
C62 O40 1_555 1_555
O44 C62 1_555 1_555
C60 C61 1_555 1_555
C61 C62 1_555 1_555
O55 H70_2 1_555 1_555
H58 C82_2 1_555 1_555
H60 C83 1_555 1_555
H61 C83 1_555 1_555
C84 H62 1_555 1_555
H63 C84 1_555 1_555
H64 C84 1_555 1_555
N4 C82_2 1_555 1_555
C83 N4 1_555 1_555
C84 N4 1_555 1_555

#END
