
###############################################################################
#
# This file contains modified crystal structure data generated from the
# MOF subset of the Cambridge Structural Database (CSD) v543 
# hosted by the Cambridge Crystallographic Data Centre (CCDC).
#
# This work is licensed under the Creative Commons
# Attribution-NonCommercial-ShareAlike 4.0 International License.
# To view a copy of this license, visit
# http://creativecommons.org/licenses/by-nc-sa/4.0/
# or send a letter to
# Creative Commons, PO Box 1866, Mountain View, CA 94042, USA.
#
# CIF created using the CSD Python API on 29 September 2022
# The structure has been converted into the P1 space group
# The structure has a 3D framework
# The original CSD entry UCEXIK is in the triclinic crystal system
# The framework has been calculated to contain at least 10.0% void space
# The void calculation uses a probe of radius 1.32A, grid spacing 0.4
# H atom positions have been added when not included in the experimental data
# Generated hydrogen atom positions removed from atoms on special positions
#
###############################################################################

data_UCEXIK
_chemical_formula_moiety         '(C84 H88 Ho6 N4 O46)n'
_symmetry_cell_setting           triclinic
_symmetry_space_group_name_H-M   'P 1'
_symmetry_Int_Tables_number      1
_space_group_name_Hall           'P 1'
loop_
_symmetry_equiv_pos_site_id
_symmetry_equiv_pos_as_xyz
1 x,y,z
_cell_length_a                   10.741(2)
_cell_length_b                   11.284(3)
_cell_length_c                   26.152(6)
_cell_angle_alpha                84.970(4)
_cell_angle_beta                 87.963(4)
_cell_angle_gamma                62.568(4)
_cell_volume                     2802.38
loop_
_atom_site_label
_atom_site_type_symbol
_atom_site_fract_x
_atom_site_fract_y
_atom_site_fract_z
O15 O 0.4878(2) 0.2059(2) 0.19591(8)
O16 O 0.3947(2) 0.3553(2) 0.12996(8)
C22 C 0.0070(3) 0.2410(3) 0.17774(12)
C23 C 0.3873(3) 0.2765(3) 0.16444(12)
C24 C 0.2587(3) 0.2595(3) 0.16868(11)
C25 C 0.2265(3) 0.2065(4) 0.21418(13)
H11 H 0.2891 0.1758 0.2417
C26 C 0.0998(3) 0.1994(4) 0.21868(13)
H12 H 0.0776 0.1664 0.2496
C27 C 0.0413(3) 0.2887(4) 0.13246(13)
C28 C 0.1644(3) 0.3006(4) 0.12828(14)
H14 H 0.1839 0.3369 0.0976
O55 O 0.7928(2) 0.2660(2) 0.14383(8)
O57 O 0.6444(2) 0.1540(2) 0.08427(8)
O59 O 0.5055(2) 0.3098(2) 0.02836(8)
O61 O 0.74385(19) 0.3718(2) 0.02814(8)
O63 O 0.6976(2) 0.5318(2) 0.07863(9)
O64 O 0.4166(2) 0.5845(2) 0.05888(8)
O66 O 0.5367(2) 0.5023(2) 0.16992(8)
H39 H 0.0361 0.0061 0.5489
Ho8 Ho 0.380870(13) 0.035330(14) 0.560290(5)
Ho12 Ho 0.655820(14) 0.153840(14) 0.258200(6)
Ho15 Ho 0.588600(13) 0.382730(14) 0.100330(5)
C38 C 0.1201(4) 0.6287(5) 0.49288(18)
H20 H 0.0581 0.7133 0.5057
H21 H 0.2002 0.6336 0.4774
H22 H 0.1506 0.5600 0.5207
C39 C 0.1237(5) 0.4684(5) 0.43064(19)
H23 H 0.0633 0.4595 0.4068
H24 H 0.1539 0.3954 0.4568
H25 H 0.2041 0.4671 0.4129
C40 C 0.0822(5) 0.7712(5) 0.34956(18)
H27 H 0.1084 0.7955 0.3802
H28 H 0.1368 0.6767 0.3469
C41 C 0.0012(4) 0.9284(4) 0.27538(17)
H29 H 0.0234 0.9669 0.2459
C42 C 0.2472(5) 0.8227(7) 0.2956(3)
H30 H 0.2468 0.8777 0.2654
H31 H 0.3069 0.7303 0.2902
H32 H 0.2816 0.8469 0.3243
N1 N 0.0465(3) 0.5968(3) 0.45461(12)
N2 N 0.1072(3) 0.8422(3) 0.30600(13)
O33 O 0.2452(2) 0.9535(2) 0.60001(8)
O44 O 0.2730(2) 0.8057(2) 0.66583(8)
C54 C 0.2113(3) 0.8775(3) 0.62640(11)
C55 C 0.0752(3) 0.8785(3) 0.61147(12)
C56 C 0.0002(3) 0.9574(4) 0.56928(13)
C60 C 0.0214(3) 0.8055(4) 0.64197(13)
H42 H 0.0725 0.7501 0.6701
C78 C 0.0318(3) 0.5936(4) 0.01894(14)
H50 H 0.0518 0.6578 0.0313
Ho13 Ho 0.344180(14) 0.846160(14) 0.741800(6)
O60 O 0.25615(19) 0.6282(2) 0.97186(8)
O62 O 0.3024(2) 0.4682(2) 0.92137(9)
C75 C 0.2303(3) 0.5395(3) 0.95666(12)
C76 C 0.1160(3) 0.5135(3) 0.97993(12)
C77 C 0.0785(3) 0.4244(4) 0.96184(13)
H49 H 0.1304 0.3740 0.9353
Ho18 Ho 0.411400(13) 0.617270(14) 0.899670(5)
O3 O 0.36950(19) 0.0489(2) 0.47052(7)
O4 O 0.4062(2) 0.0884(2) 0.38942(8)
O8 O 0.8409(2) 0.1969(2) 0.22597(8)
O9 O 0.7434(2) 0.0109(2) 0.18653(9)
O13 O 0.4371(2) 0.2562(2) 0.30610(9)
C5 C 0.3249(3) 0.0847(3) 0.42452(12)
C15 C 0.1271(3) 0.0342(3) 0.44335(12)
C16 C 0.1814(3) 0.1050(3) 0.41210(11)
C17 C 0.1093(3) 0.1847(3) 0.36951(12)
H9 H 0.1469 0.2313 0.3487
C21 C 0.8704(3) 0.2338(3) 0.18335(13)
H13 H 0.9817 0.3135 0.1042
O26 O 0.5435(2) 0.1795(2) 0.46429(8)
O34 O 0.7548(2) 0.0465(2) 0.39999(8)
O36 O 0.6653(2) 0.8558(2) 0.36681(8)
O42 O 0.6058(2) 0.9909(2) 0.29484(8)
O45 O 0.7270(2) 0.1943(2) 0.33417(8)
O47 O 0.5631(2) 0.3827(2) 0.24529(9)
C48 C 0.6301(3) 0.8840(3) 0.31936(12)
C49 C 0.6178(3) 0.7750(3) 0.29240(12)
C50 C 0.6367(3) 0.6590(3) 0.31889(13)
H35 H 0.6611 0.6445 0.3535
C51 C 0.6199(3) 0.5607(3) 0.29498(12)
H36 H 0.6351 0.4802 0.3129
C52 C 0.5782(3) 0.8006(3) 0.24077(12)
H37 H 0.5611 0.8817 0.2230
C53 C 0.5648(3) 0.7014(3) 0.21631(12)
H38 H 0.5456 0.7137 0.1813
H40 H 0.8240 0.0181 0.5276
C61 C 0.5798(3) 0.5876(3) 0.24341(12)
C62 C 0.5599(3) 0.4813(3) 0.21725(13)
Ho9 Ho 0.619130(13) 0.964670(14) 0.439710(5)
O1 O 0.5736(2) 0.7816(2) 0.46191(9)
O2 O 0.4565(2) 0.8205(2) 0.53571(8)
O7 O 0.8473(2) 0.7890(2) 0.45891(9)
O10 O 0.8775(2) 0.9602(3) 0.28329(10)
C1 C 0.5113(3) 0.7529(3) 0.49934(13)
C2 C 0.5052(3) 0.6210(3) 0.49935(13)
C3 C 0.5286(3) 0.5543(3) 0.45501(13)
H1 H 0.5466 0.5919 0.4243
C4 C 0.4744(3) 0.5675(3) 0.54424(13)
H2 H 0.4557 0.6125 0.5739
H8 H 0.1760 0.9819 0.4724
C29 C 0.5624(3) 0.1920(3) 0.04726(12)
C30 C 0.5302(3) 0.0922(3) 0.02271(12)
C33 C 0.7697(3) 0.4605(3) 0.04334(12)
C34 C 0.8840(3) 0.4865(3) 0.02007(12)
C35 C 0.9215(3) 0.5756(4) 0.03816(13)
H17 H 0.8696 0.6260 0.0647
C37 C 0.9170(4) 0.6814(4) 0.44079(14)
H19 H 0.8756 0.6579 0.4155
H26 H 0.9844 0.7938 0.3509
O24 O 0.4264(2) 0.2184(2) 0.53809(9)
O28 O 0.63050(19) 0.9511(2) 0.52948(7)
O31 O 0.5938(2) 0.9116(2) 0.61058(8)
O37 O 0.3347(2) 0.1442(2) 0.63319(8)
O38 O 0.1527(2) 0.2110(2) 0.54109(9)
C43 C 0.4887(3) 0.2471(3) 0.50066(13)
C44 C 0.4948(3) 0.3790(3) 0.50065(13)
C45 C 0.4714(3) 0.4457(3) 0.54499(13)
H33 H 0.4534 0.4081 0.5757
C46 C 0.5256(3) 0.4325(3) 0.45576(13)
H34 H 0.5443 0.3875 0.4261
C47 C 0.6751(3) 0.9153(3) 0.57548(12)
C57 C 0.8729(3) 0.9658(3) 0.55665(12)
C58 C 0.8186(3) 0.8950(3) 0.58790(11)
C59 C 0.8907(3) 0.8153(3) 0.63049(12)
H41 H 0.8531 0.7687 0.6513
C79 C 0.0830(4) 0.3186(4) 0.55921(14)
H51 H 0.1244 0.3421 0.5845
H67 H 0.843527 0.945724 0.192665
H68 H 0.687705 0.961784 0.183738
C32 C 0.4442(3) 0.1311(3) 0.97916(12)
H16 H 0.4051 0.2195 0.9652
C36 C 0.9682(3) 0.4064(4) 0.98106(14)
H18 H 0.9482 0.3422 0.9687
C73 C 0.4171(3) 0.0382(3) 0.95669(13)
H47 H 0.3622 0.0647 0.9271
C31 C 0.5829(3) 0.9618(3) 0.04331(13)
H15 H 0.6378 0.9353 0.0729
C74 C 0.5558(3) 0.8689(3) 0.02084(12)
H48 H 0.5949 0.7805 0.0348
O56 O 0.3556(2) 0.8460(2) 0.91573(8)
O58 O 0.4945(2) 0.6902(2) 0.97164(8)
C71 C 0.4376(3) 0.8080(3) 0.95274(12)
C72 C 0.4698(3) 0.9078(3) 0.97729(12)
C12 C 0.7887(3) 0.1225(3) 0.37360(11)
C13 C 0.9248(3) 0.1215(3) 0.38853(12)
C14 C 0.9998(3) 0.0426(4) 0.43072(13)
C18 C 0.9786(3) 0.1945(4) 0.35803(13)
H10 H 0.9275 0.2499 0.3299
H72 H 0.665788 0.0346313 0.161834
H7 H 0.9639 0.9939 0.4511
C80 C 0.8799(4) 0.3713(5) 0.50712(18)
H52 H 0.9419 0.2867 0.4943
H53 H 0.7998 0.3664 0.5226
H54 H 0.8494 0.4400 0.4793
C81 C 0.8763(5) 0.5316(5) 0.56936(19)
H55 H 0.9367 0.5405 0.5932
H56 H 0.8461 0.6046 0.5432
H57 H 0.7959 0.5329 0.5871
N3 N 0.9535(3) 0.4032(3) 0.54539(12)
H71 H 0.780096 0.915569 0.199764
O41 O 0.1225(2) 0.0398(3) 0.71671(10)
O43 O 0.3942(2) 0.0091(2) 0.70516(8)
H58 H 0.0156 0.2062 0.6491
H71_2 H 0.219904 0.0844309 0.800236
O39 O 0.1591(2) 0.8031(2) 0.77403(8)
O40 O 0.2566(2) 0.9891(2) 0.81347(9)
O46 O 0.5629(2) 0.7438(2) 0.69390(9)
O48 O 0.4369(2) 0.6173(2) 0.75471(9)
O50 O 0.5122(2) 0.7941(2) 0.80409(8)
O53 O 0.2072(2) 0.7340(2) 0.85617(8)
C63 C 0.1296(3) 0.7662(3) 0.81665(13)
H45 H 0.0183 0.6865 0.8958
H72_2 H 0.334212 0.965369 0.838166
O22 O 0.5834(2) 0.4155(2) 0.94112(8)
O23 O 0.4633(2) 0.4977(2) 0.83008(8)
C6 C 0.3699(3) 0.1160(3) 0.68064(12)
C7 C 0.3822(3) 0.2250(3) 0.70760(12)
C8 C 0.3633(3) 0.3410(3) 0.68111(13)
H3 H 0.3389 0.3555 0.6465
C9 C 0.3801(3) 0.4393(3) 0.70502(12)
H4 H 0.3649 0.5198 0.6871
C10 C 0.4218(3) 0.1994(3) 0.75923(12)
H5 H 0.4389 0.1183 0.7770
C11 C 0.4352(3) 0.2986(3) 0.78369(12)
H6 H 0.4544 0.2863 0.8187
C19 C 0.4202(3) 0.4124(3) 0.75659(12)
C20 C 0.4401(3) 0.5187(3) 0.78275(13)
O52 O 0.6053(2) 0.6447(2) 0.87004(8)
C82 C 0.9178(5) 0.2288(5) 0.65044(18)
H59 H 0.8916 0.2045 0.6198
H60 H 0.8632 0.3233 0.6531
C83 C 0.9988(4) 0.0716(4) 0.72462(17)
H61 H 0.9766 0.0331 0.7541
C84 C 0.7528(5) 0.1773(7) 0.7044(3)
H62 H 0.7532 0.1223 0.7346
H63 H 0.6931 0.2697 0.7098
H64 H 0.7184 0.1531 0.6757
N4 N 0.8928(3) 0.1578(3) 0.69400(13)
H67_2 H 0.156473 0.0542756 0.807335
H68_2 H 0.312295 0.0382159 0.816262
C64 C 0.9930(3) 0.7590(3) 0.82226(12)
C65 C 0.6127(3) 0.7235(3) 0.83556(12)
C66 C 0.7413(3) 0.7405(3) 0.83132(11)
C67 C 0.7735(3) 0.7935(4) 0.78582(13)
H43 H 0.7109 0.8242 0.7583
C68 C 0.9002(3) 0.8006(4) 0.78132(13)
H44 H 0.9224 0.8336 0.7504
C69 C 0.9587(3) 0.7113(4) 0.86754(13)
C70 C 0.8356(3) 0.6994(4) 0.87172(14)
H46 H 0.8161 0.6631 0.9024
loop_
_geom_bond_atom_site_label_1
_geom_bond_atom_site_label_2
_geom_bond_site_symmetry_1
_geom_bond_site_symmetry_2
O15 C23 1_555 1_555
O16 C23 1_555 1_555
C22 C26 1_555 1_555
C23 C24 1_555 1_555
C24 C25 1_555 1_555
C25 H11 1_555 1_555
C26 C25 1_555 1_555
H12 C26 1_555 1_555
C27 C22 1_555 1_555
C28 C24 1_555 1_555
H14 C28 1_555 1_555
O55 Ho15 1_555 1_555
O57 Ho15 1_555 1_555
O59 Ho15 1_555 1_555
O61 Ho15 1_555 1_555
O63 Ho15 1_555 1_555
O64 Ho15 1_555 1_555
O66 Ho15 1_555 1_555
Ho12 O15 1_555 1_555
Ho15 O16 1_555 1_555
C27 C28 1_555 1_555
C38 H20 1_555 1_555
H21 C38 1_555 1_555
H22 C38 1_555 1_555
C39 H23 1_555 1_555
H24 C39 1_555 1_555
H25 C39 1_555 1_555
H27 C40 1_555 1_555
H28 C40 1_555 1_555
C41 H29 1_555 1_555
C42 H30 1_555 1_555
H31 C42 1_555 1_555
H32 C42 1_555 1_555
N2 C40 1_555 1_555
O33 C54 1_555 1_555
O44 C54 1_555 1_555
C54 C55 1_555 1_555
C55 C56 1_555 1_555
C60 C55 1_555 1_555
H42 C60 1_555 1_555
H50 C78 1_555 1_555
Ho13 O44 1_555 1_555
C38 N1 1_555 1_555
C39 N1 1_555 1_555
C41 N2 1_555 1_555
C42 N2 1_555 1_555
O60 C75 1_555 1_555
O62 C75 1_555 1_555
C75 C76 1_555 1_555
C76 C77 1_555 1_555
H49 C77 1_555 1_555
Ho18 O60 1_555 1_555
O62 Ho18 1_555 1_555
O3 C5 1_555 1_555
O4 C5 1_555 1_555
O8 C21 1_555 1_555
O9 Ho12 1_555 1_555
O13 Ho12 1_555 1_555
O55 C21 1_555 1_555
C5 C16 1_555 1_555
C16 C15 1_555 1_555
C17 C16 1_555 1_555
H9 C17 1_555 1_555
Ho12 O8 1_555 1_555
O36 C48 1_555 1_555
O42 C48 1_555 1_555
O45 Ho12 1_555 1_555
O47 Ho12 1_555 1_555
O66 C62 1_555 1_555
C48 C49 1_555 1_555
C49 C50 1_555 1_555
C50 H35 1_555 1_555
C51 C50 1_555 1_555
H36 C51 1_555 1_555
C52 C49 1_555 1_555
H37 C52 1_555 1_555
C53 C52 1_555 1_555
H38 C53 1_555 1_555
C61 C51 1_555 1_555
C62 O47 1_555 1_555
Ho9 O36 1_555 1_555
O3 Ho8 1_555 1_555
C53 C61 1_555 1_555
C61 C62 1_555 1_555
O1 C1 1_555 1_555
O2 C1 1_555 1_555
O7 C37 1_555 1_555
O57 C29 1_555 1_555
O59 C29 1_555 1_555
O61 C33 1_555 1_555
O63 C33 1_555 1_555
C1 C2 1_555 1_555
C2 C3 1_555 1_555
C3 H1 1_555 1_555
C4 C2 1_555 1_555
H2 C4 1_555 1_555
C29 C30 1_555 1_555
C33 C34 1_555 1_555
C34 C35 1_555 1_555
C35 H17 1_555 1_555
C37 H19 1_555 1_555
Ho9 O1 1_555 1_555
O24 C43 1_555 1_555
O26 C43 1_555 1_555
O28 Ho9 1_555 1_555
O31 C47 1_555 1_555
O37 Ho8 1_555 1_555
O38 C79 1_555 1_555
C43 C44 1_555 1_555
C44 C45 1_555 1_555
C45 C4 1_555 1_555
H33 C45 1_555 1_555
C46 C3 1_555 1_555
H34 C46 1_555 1_555
C47 O28 1_555 1_555
C58 C47 1_555 1_555
C59 C58 1_555 1_555
H41 C59 1_555 1_555
C79 H51 1_555 1_555
Ho8 O24 1_555 1_555
O7 Ho9 1_555 1_555
O38 Ho8 1_555 1_555
C44 C46 1_555 1_555
C57 C58 1_555 1_555
H16 C32 1_555 1_555
H18 C36 1_555 1_555
C73 C32 1_555 1_555
H47 C73 1_555 1_555
C31 H15 1_555 1_555
C74 C31 1_555 1_555
H48 C74 1_555 1_555
O56 C71 1_555 1_555
O58 C71 1_555 1_555
C71 C72 1_555 1_555
Ho18 O56 1_555 1_555
O58 Ho18 1_555 1_555
O34 C12 1_555 1_555
O45 C12 1_555 1_555
C12 C13 1_555 1_555
C13 C14 1_555 1_555
C18 C13 1_555 1_555
H10 C18 1_555 1_555
O9 H72 1_555 1_555
C80 H52 1_555 1_555
H53 C80 1_555 1_555
H54 C80 1_555 1_555
C81 H55 1_555 1_555
H56 C81 1_555 1_555
H57 C81 1_555 1_555
C80 N3 1_555 1_555
C81 N3 1_555 1_555
O39 C63 1_555 1_555
O40 Ho13 1_555 1_555
O46 Ho13 1_555 1_555
O48 Ho13 1_555 1_555
O50 Ho13 1_555 1_555
O53 C63 1_555 1_555
Ho18 O53 1_555 1_555
O39 Ho13 1_555 1_555
O40 H72_2 1_555 1_555
O37 C6 1_555 1_555
O43 C6 1_555 1_555
O48 C20 1_555 1_555
O22 Ho18 1_555 1_555
O23 C20 1_555 1_555
C6 C7 1_555 1_555
C7 C8 1_555 1_555
C8 H3 1_555 1_555
C9 C8 1_555 1_555
H4 C9 1_555 1_555
C10 C7 1_555 1_555
H5 C10 1_555 1_555
C11 C10 1_555 1_555
H6 C11 1_555 1_555
C19 C9 1_555 1_555
C20 C19 1_555 1_555
O52 Ho18 1_555 1_555
H59 C82 1_555 1_555
H60 C82 1_555 1_555
C83 H61 1_555 1_555
C84 H62 1_555 1_555
H63 C84 1_555 1_555
H64 C84 1_555 1_555
N4 C82 1_555 1_555
O23 Ho18 1_555 1_555
C11 C19 1_555 1_555
C83 N4 1_555 1_555
C84 N4 1_555 1_555
O52 C65 1_555 1_555
C64 C68 1_555 1_555
C65 O50 1_555 1_555
C66 C65 1_555 1_555
C67 C66 1_555 1_555
H43 C67 1_555 1_555
C68 C67 1_555 1_555
H44 C68 1_555 1_555
C69 C64 1_555 1_555
C70 C66 1_555 1_555
H46 C70 1_555 1_555
C69 C70 1_555 1_555

#END
