
###############################################################################
#
# This file contains modified crystal structure data generated from the
# MOF subset of the Cambridge Structural Database (CSD) v543 
# hosted by the Cambridge Crystallographic Data Centre (CCDC).
#
# This work is licensed under the Creative Commons
# Attribution-NonCommercial-ShareAlike 4.0 International License.
# To view a copy of this license, visit
# http://creativecommons.org/licenses/by-nc-sa/4.0/
# or send a letter to
# Creative Commons, PO Box 1866, Mountain View, CA 94042, USA.
#
# CIF created using the CSD Python API on 29 September 2022
# The structure has been converted into the P1 space group
# The structure has a 3D framework
# The original CSD entry UCEXAC is in the triclinic crystal system
# The framework has been calculated to contain at least 10.0% void space
# The void calculation uses a probe of radius 1.32A, grid spacing 0.4
# H atom positions have been added when not included in the experimental data
# Generated hydrogen atom positions removed from atoms on special positions
#
###############################################################################

data_UCEXAC
_chemical_formula_moiety         '(C84 H84 N4 O46 Tb6)n'
_symmetry_cell_setting           triclinic
_symmetry_space_group_name_H-M   'P 1'
_symmetry_Int_Tables_number      1
_space_group_name_Hall           'P 1'
loop_
_symmetry_equiv_pos_site_id
_symmetry_equiv_pos_as_xyz
1 x,y,z
_cell_length_a                   10.7622(9)
_cell_length_b                   11.3038(10)
_cell_length_c                   26.224(2)
_cell_angle_alpha                85.086(2)
_cell_angle_beta                 88.092(2)
_cell_angle_gamma                62.225(2)
_cell_volume                     2812.23
loop_
_atom_site_label
_atom_site_type_symbol
_atom_site_fract_x
_atom_site_fract_y
_atom_site_fract_z
_atom_site_U_iso_or_equiv
_atom_site_thermal_displace_type
Tb17 Tb 0.37952(8) 0.03628(8) 0.06044(3) 0.0139 Uani
O9 O 0.3703(11) 0.0492(10) 0.9700(4) 0.0196 Uani
O10 O 0.4056(12) 0.0901(13) 0.8879(4) 0.0315 Uani
C16 C 0.124(2) 0.0360(19) 0.9430(6) 0.0363 Uani
C18 C 0.1085(19) 0.1823(18) 0.8680(6) 0.0322 Uani
H10 H 0.1454 0.2278 0.8466 0.0380 Uiso
C19 C 0.1831(16) 0.1045(17) 0.9110(6) 0.0232 Uani
C20 C 0.330(2) 0.0816(17) 0.9227(7) 0.0327 Uani
H23 H 0.0659 0.7058 0.0075 0.0810 Uiso
H25 H 0.1618 0.5517 0.0202 0.0810 Uiso
H8 H 0.1713 0.9857 0.9727 0.0440 Uiso
C38 C 0.126(3) 0.474(3) 0.9300(9) 0.0925 Uani
H20 H 0.0661 0.4657 0.9057 0.1360 Uiso
H21 H 0.1583 0.3988 0.9552 0.1360 Uiso
H22 H 0.2051 0.4755 0.9126 0.1360 Uiso
C39 C 0.128(2) 0.623(2) 0.9934(8) 0.0544 Uani
H24 H 0.2063 0.6303 0.9776 0.0810 Uiso
C40 C 0.001(3) 0.927(2) 0.7747(9) 0.0646 Uani
H26 H 0.0196 0.9678 0.7452 0.0760 Uiso
C41 C 0.083(3) 0.784(3) 0.8465(11) 0.1232 Uani
H28 H 0.1106 0.8113 0.8760 0.1850 Uiso
H29 H 0.1348 0.6882 0.8461 0.1850 Uiso
C42 C 0.250(3) 0.828(4) 0.7875(16) 0.1821 Uani
H30 H 0.2393 0.8838 0.7565 0.2710 Uiso
H31 H 0.3116 0.7360 0.7814 0.2710 Uiso
H32 H 0.2894 0.8545 0.8138 0.2710 Uiso
N1 N 0.051(2) 0.5927(18) 0.9540(7) 0.0601 Uani
N2 N 0.111(3) 0.842(2) 0.8040(8) 0.0725 Uani
O34 O 0.5335(14) 0.5031(13) 0.6708(4) 0.0340 Uani
O46 O 0.4850(13) 0.2090(12) 0.6946(4) 0.0335 Uani
O48 O 0.3896(13) 0.3586(13) 0.6292(5) 0.0380 Uani
O52 O 0.7947(12) 0.2643(12) 0.6444(4) 0.0306 Uani
O57 O 0.6445(12) 0.1523(11) 0.5851(4) 0.0283 Uani
O59 O 0.5070(12) 0.3096(12) 0.5271(4) 0.0277 Uani
O60 O 0.2535(12) 0.6273(13) 0.4712(4) 0.0331 Uani
O61 O 0.7465(12) 0.3727(13) 0.5288(4) 0.0331 Uani
O62 O 0.3011(12) 0.4689(12) 0.4217(5) 0.0288 Uani
O63 O 0.6989(12) 0.5311(12) 0.5783(5) 0.0288 Uani
O64 O 0.4154(12) 0.5885(11) 0.5580(4) 0.0294 Uani
Tb4 Tb 0.58873(8) 0.38257(8) 0.60038(3) 0.0155 Uani
Tb7 Tb 0.41127(8) 0.61743(8) 0.39962(3) 0.0155 Uani
C63 C 0.3897(18) 0.2757(18) 0.6636(7) 0.0254 Uani
C64 C 0.2571(17) 0.2584(17) 0.6679(6) 0.0177 Uani
C65 C 0.165(2) 0.298(2) 0.6278(7) 0.0477 Uani
H43 H 0.1839 0.3325 0.5969 0.0570 Uiso
C66 C 0.043(2) 0.285(2) 0.6330(7) 0.0400 Uani
C67 C 0.2285(18) 0.2032(18) 0.7131(6) 0.0277 Uani
H45 H 0.2925 0.1719 0.7401 0.0340 Uiso
C68 C 0.104(2) 0.1946(19) 0.7179(6) 0.0335 Uani
H46 H 0.0856 0.1577 0.7484 0.0400 Uiso
Tb11 Tb 0.65614(8) 0.15364(8) 0.75811(3) 0.0172 Uani
C69 C 0.0093(18) 0.2396(18) 0.6785(6) 0.0265 Uani
C75 C 0.231(2) 0.5352(19) 0.4566(7) 0.0294 Uani
C76 C 0.1166(18) 0.5143(17) 0.4802(6) 0.0206 Uani
C77 C 0.037(2) 0.5875(19) 0.5187(7) 0.0364 Uani
H49 H 0.0605 0.6478 0.5325 0.0440 Uiso
C78 C 0.080(2) 0.4266(18) 0.4622(7) 0.0339 Uani
H50 H 0.1327 0.3740 0.4364 0.0410 Uiso
Tb16 Tb 0.62048(8) 0.96372(8) 0.93956(3) 0.0139 Uani
H73 H 0.443879 0.659835 0.560068 . .
H74 H 0.407554 0.575216 0.521532 . .
O7 O 0.7564(12) 0.0479(12) 0.8992(4) 0.0300 Uani
O8 O 0.7268(13) 0.1937(12) 0.8343(4) 0.0314 Uani
O17 O 0.4365(13) 0.2568(13) 0.8055(5) 0.0410 Uani
O18 O 0.7454(13) 0.0100(12) 0.6851(4) 0.0343 Uani
C13 C 0.7902(18) 0.1228(17) 0.8720(7) 0.0223 Uani
C14 C 0.9233(17) 0.1228(16) 0.8875(5) 0.0169 Uani
C15 C 0.9976(18) 0.0446(18) 0.9299(6) 0.0296 Uani
C17 C 0.9789(19) 0.1923(18) 0.8571(6) 0.0290 Uani
H9 H 0.9282 0.2467 0.8287 0.0350 Uiso
O26 O 0.5478(14) 0.1767(12) 0.9643(5) 0.0338 Uani
O28 O 0.6649(13) 0.8563(12) 0.8651(4) 0.0301 Uani
O30 O 0.6039(12) 0.9906(11) 0.7942(4) 0.0264 Uani
O32 O 0.5630(13) 0.3865(11) 0.7450(4) 0.0336 Uani
O50 O 0.8431(12) 0.1967(13) 0.7257(5) 0.0364 Uani
C47 C 0.6291(18) 0.8821(18) 0.8182(6) 0.0259 Uani
C48 C 0.612(2) 0.7775(17) 0.7919(6) 0.0265 Uani
C49 C 0.5787(19) 0.8000(17) 0.7405(6) 0.0273 Uani
H35 H 0.5675 0.8787 0.7223 0.0330 Uiso
C50 C 0.562(2) 0.7068(17) 0.7169(6) 0.0304 Uani
H36 H 0.5389 0.7230 0.6823 0.0370 Uiso
C51 C 0.637(2) 0.6590(18) 0.8185(6) 0.0345 Uani
H37 H 0.6669 0.6419 0.8525 0.0410 Uiso
C52 C 0.6176(19) 0.5639(17) 0.7939(6) 0.0276 Uani
H38 H 0.6303 0.4848 0.8122 0.0330 Uiso
C53 C 0.5795(16) 0.5858(17) 0.7428(6) 0.0193 Uani
C54 C 0.5575(16) 0.4821(16) 0.7186(7) 0.0205 Uani
H68 H 0.781554 0.0532416 0.658253 . .
O2 O 0.4522(14) 0.8233(12) 0.0357(5) 0.0338 Uani
C3 C 0.4730(19) 0.5662(17) 0.0439(6) 0.0293 Uani
H1 H 0.4548 0.6121 0.0733 0.0350 Uiso
O24 O 0.4250(13) 0.2201(11) 0.0384(4) 0.0302 Uani
O29 O 0.3351(13) 0.1437(12) 0.1349(4) 0.0301 Uani
O40 O 0.6297(11) 0.9508(10) 0.0300(4) 0.0196 Uani
O45 O 0.1501(13) 0.2163(13) 0.0417(5) 0.0359 Uani
C43 C 0.488(2) 0.247(2) 0.0013(9) 0.0443 Uani
C44 C 0.4948(18) 0.3805(15) 0.0024(6) 0.0213 Uani
C46 C 0.4686(18) 0.4466(16) 0.0453(6) 0.0264 Uani
H34 H 0.4477 0.4110 0.0757 0.0310 Uiso
C79 C 0.082(2) 0.322(2) 0.0605(8) 0.0447 Uani
H51 H 0.1232 0.3444 0.0860 0.0530 Uiso
O1 O 0.5750(13) 0.7799(11) 0.9616(4) 0.0302 Uani
O11 O 0.8499(13) 0.7837(13) 0.9583(5) 0.0359 Uani
O16 O 0.8792(14) 0.9552(13) 0.7829(5) 0.0428 Uani
C1 C 0.512(2) 0.753(2) 0.9987(9) 0.0443 Uani
C2 C 0.5052(18) 0.6195(15) 0.9976(6) 0.0213 Uani
C4 C 0.5314(18) 0.5534(16) 0.9547(6) 0.0264 Uani
H2 H 0.5523 0.5890 0.9243 0.0310 Uiso
H7 H 0.9614 0.9965 0.9501 0.0360 Uiso
C29 C 0.5622(18) 0.1893(18) 0.5467(6) 0.0226 Uani
C30 C 0.5287(18) 0.0902(17) 0.5226(6) 0.0242 Uani
C31 C 0.444(2) 0.1316(17) 0.4795(7) 0.0344 Uani
H15 H 0.4061 0.2202 0.4659 0.0410 Uiso
C33 C 0.769(2) 0.4648(19) 0.5434(7) 0.0294 Uani
C34 C 0.8834(18) 0.4857(17) 0.5198(6) 0.0206 Uani
C35 C 0.963(2) 0.4125(19) 0.4813(7) 0.0364 Uani
H17 H 0.9395 0.3522 0.4675 0.0440 Uiso
C36 C 0.920(2) 0.5734(18) 0.5378(7) 0.0339 Uani
H18 H 0.8673 0.6260 0.5636 0.0410 Uiso
C37 C 0.918(2) 0.678(2) 0.9395(8) 0.0447 Uani
H19 H 0.8768 0.6556 0.9140 0.0530 Uiso
H27 H 0.9845 0.8107 0.8480 0.1850 Uiso
C45 C 0.5270(19) 0.4338(17) 0.9561(6) 0.0293 Uani
H33 H 0.5452 0.3879 0.9267 0.0350 Uiso
H44 H 0.9827 0.3089 0.6051 0.0480 Uiso
C70 C 0.8741(18) 0.2336(16) 0.6834(7) 0.0244 Uani
C74 C 0.4170(18) 0.0388(15) 0.4565(7) 0.0263 Uani
H48 H 0.3619 0.0652 0.4270 0.0320 Uiso
H67 H 0.66794 0.998452 0.670672 . .
H71 H 0.822982 0.0223984 0.668244 . .
O36 O 0.2436(12) 0.9521(12) 0.1008(4) 0.0300 Uani
O44 O 0.5944(12) 0.9099(13) 0.1121(4) 0.0315 Uani
C32 C 0.5830(18) 0.9612(15) 0.5435(7) 0.0263 Uani
H16 H 0.6381 0.9348 0.5730 0.0320 Uiso
O56 O 0.3555(12) 0.8477(11) 0.4149(4) 0.0283 Uani
O58 O 0.4930(12) 0.6904(12) 0.4729(4) 0.0277 Uani
C71 C 0.4378(18) 0.8107(18) 0.4533(6) 0.0226 Uani
C72 C 0.4713(18) 0.9098(17) 0.4774(6) 0.0242 Uani
C73 C 0.556(2) 0.8684(17) 0.5205(7) 0.0344 Uani
H47 H 0.5939 0.7798 0.5341 0.0410 Uiso
H72 H 0.780699 0.914502 0.697867 . .
C80 C 0.874(3) 0.526(3) 0.0700(9) 0.0925 Uani
H52 H 0.9339 0.5343 0.0943 0.1360 Uiso
H53 H 0.8417 0.6012 0.0448 0.1360 Uiso
H54 H 0.7949 0.5245 0.0874 0.1360 Uiso
C81 C 0.872(2) 0.377(2) 0.0066(8) 0.0544 Uani
H56 H 0.7937 0.3697 0.0224 0.0810 Uiso
N3 N 0.949(2) 0.4073(18) 0.0460(7) 0.0601 Uani
H55 H 0.9341 0.2942 0.9925 0.0810 Uiso
H57 H 0.8382 0.4483 0.9798 0.0810 Uiso
O14 O 0.1569(12) 0.8033(13) 0.2743(5) 0.0364 Uani
O15 O 0.2053(12) 0.7357(12) 0.3556(4) 0.0306 Uani
H12 H 0.0173 0.6911 0.3949 0.0480 Uiso
C28 C 0.1259(18) 0.7664(16) 0.3166(7) 0.0244 Uani
H39 H 0.0386 0.0035 0.0499 0.0360 Uiso
Tb10 Tb 0.34386(8) 0.84636(8) 0.24189(3) 0.0172 Uani
O37 O 0.2732(13) 0.8063(12) 0.1657(4) 0.0314 Uani
C55 C 0.2098(18) 0.8772(17) 0.1280(7) 0.0223 Uani
C56 C 0.0767(17) 0.8772(16) 0.1125(5) 0.0169 Uani
C57 C 0.0024(18) 0.9554(18) 0.0701(6) 0.0296 Uani
C59 C 0.0211(19) 0.8077(18) 0.1429(6) 0.0290 Uani
H41 H 0.0718 0.7533 0.1713 0.0350 Uiso
O31 O 0.3961(12) 0.0094(11) 0.2058(4) 0.0264 Uani
O53 O 0.1208(14) 0.0448(13) 0.2171(5) 0.0428 Uani
H59 H 0.0155 0.1893 0.1520 0.1850 Uiso
H72_2 H 0.219301 0.0854975 0.302133 . .
O5 O 0.4370(13) 0.6135(11) 0.2550(4) 0.0336 Uani
O6 O 0.4665(14) 0.4969(13) 0.3292(4) 0.0340 Uani
O12 O 0.5150(13) 0.7910(12) 0.3054(4) 0.0335 Uani
O13 O 0.6104(13) 0.6414(13) 0.3708(5) 0.0380 Uani
O23 O 0.5846(12) 0.4115(11) 0.4420(4) 0.0294 Uani
C5 C 0.3709(18) 0.1179(18) 0.1818(6) 0.0259 Uani
C6 C 0.388(2) 0.2225(17) 0.2081(6) 0.0265 Uani
C7 C 0.4213(19) 0.2000(17) 0.2595(6) 0.0273 Uani
H3 H 0.4325 0.1213 0.2777 0.0330 Uiso
C8 C 0.438(2) 0.2932(17) 0.2831(6) 0.0304 Uani
H4 H 0.4611 0.2770 0.3177 0.0370 Uiso
C9 C 0.363(2) 0.3410(18) 0.1815(6) 0.0345 Uani
H5 H 0.3331 0.3581 0.1475 0.0410 Uiso
C10 C 0.3824(19) 0.4361(17) 0.2061(6) 0.0276 Uani
H6 H 0.3697 0.5152 0.1878 0.0330 Uiso
C11 C 0.4205(16) 0.4142(17) 0.2572(6) 0.0193 Uani
C12 C 0.4425(16) 0.5179(16) 0.2814(7) 0.0205 Uani
C21 C 0.6103(18) 0.7243(18) 0.3364(7) 0.0254 Uani
C22 C 0.7429(17) 0.7416(17) 0.3321(6) 0.0177 Uani
C23 C 0.835(2) 0.702(2) 0.3722(7) 0.0477 Uani
H11 H 0.8161 0.6675 0.4031 0.0570 Uiso
C24 C 0.957(2) 0.715(2) 0.3670(7) 0.0400 Uani
C25 C 0.7715(18) 0.7968(18) 0.2869(6) 0.0277 Uani
H13 H 0.7075 0.8281 0.2599 0.0340 Uiso
C26 C 0.896(2) 0.8054(19) 0.2821(6) 0.0335 Uani
H14 H 0.9144 0.8423 0.2516 0.0400 Uiso
C27 C 0.9907(18) 0.7604(18) 0.3215(6) 0.0265 Uani
O54 O 0.5635(13) 0.7432(13) 0.1945(5) 0.0410 Uani
O55 O 0.2546(13) 0.9900(12) 0.3149(4) 0.0343 Uani
H40 H 0.8287 0.0143 0.0273 0.0440 Uiso
H67_2 H 0.33206 0.0015482 0.329328 . .
H69 H 0.556121 0.340165 0.439932 . .
H70 H 0.592446 0.424784 0.478468 . .
H71_2 H 0.177018 0.977602 0.331756 . .
C58 C 0.876(2) 0.9640(19) 0.0570(6) 0.0363 Uani
C60 C 0.8915(19) 0.8177(18) 0.1320(6) 0.0322 Uani
H42 H 0.8546 0.7722 0.1534 0.0380 Uiso
C61 C 0.8169(16) 0.8955(17) 0.0890(6) 0.0232 Uani
C62 C 0.670(2) 0.9184(17) 0.0773(7) 0.0327 Uani
H68_2 H 0.218446 0.946758 0.341747 . .
C82 C 0.999(3) 0.073(2) 0.2253(9) 0.0646 Uani
H58 H 0.9804 0.0322 0.2548 0.0760 Uiso
C83 C 0.917(3) 0.216(3) 0.1535(11) 0.1232 Uani
H60 H 0.8894 0.1887 0.1240 0.1850 Uiso
H61 H 0.8652 0.3118 0.1539 0.1850 Uiso
C84 C 0.750(3) 0.172(4) 0.2125(16) 0.1821 Uani
H62 H 0.7607 0.1162 0.2435 0.2710 Uiso
H63 H 0.6884 0.2640 0.2186 0.2710 Uiso
H64 H 0.7106 0.1455 0.1862 0.2710 Uiso
N4 N 0.889(3) 0.158(2) 0.1960(8) 0.0725 Uani
loop_
_atom_site_aniso_label
_atom_site_aniso_U_11
_atom_site_aniso_U_22
_atom_site_aniso_U_33
_atom_site_aniso_U_23
_atom_site_aniso_U_13
_atom_site_aniso_U_12
Tb17 0.0152 0.015 0.0154 0.0013 -0.0019 -0.0106
O9 0.024 0.024 0.017 -0.003 -0.001 -0.016
O10 0.028 0.061 0.014 0.009 0.003 -0.03
C16 0.049 0.042 0.021 0.015 -0.024 -0.025
C18 0.034 0.039 0.029 0.02 -0.001 -0.025
C19 0.005 0.035 0.025 0.008 -0.001 -0.007
C20 0.054 0.023 0.029 0.002 -0.019 -0.024
C38 0.1 0.08 0.059 -0.014 0.011 -0.009
C39 0.032 0.037 0.079 0.007 -0.034 -0.003
C40 0.07 0.047 0.065 0.035 -0.013 -0.023
C41 0.06 0.18 0.09 -0.08 -0.021 -0.01
C42 0.016 0.18 0.32 0.04 0 -0.03
N1 0.045 0.048 0.059 -0.017 0.018 0.003
N2 0.1 0.068 0.044 0.002 0.01 -0.036
O34 0.06 0.055 0.009 -0.01 0.002 -0.044
O46 0.026 0.043 0.037 0.003 -0.011 -0.021
O48 0.035 0.051 0.046 0.009 -0.002 -0.037
O52 0.02 0.046 0.029 0.006 -0.008 -0.019
O57 0.032 0.034 0.026 -0.006 -0.011 -0.02
O59 0.039 0.033 0.022 0.002 -0.01 -0.026
O60 0.031 0.054 0.028 0.011 -0.007 -0.033
O61 0.031 0.054 0.028 0.011 -0.007 -0.033
O62 0.026 0.028 0.037 0 0.002 -0.017
O63 0.026 0.028 0.037 0 0.002 -0.017
O64 0.031 0.032 0.022 -0.001 -0.003 -0.012
Tb4 0.0178 0.0217 0.0145 0.0007 -0.0015 -0.0156
Tb7 0.0178 0.0217 0.0145 0.0007 -0.0015 -0.0156
C63 0.019 0.028 0.028 -0.014 -0.001 -0.008
C64 0.02 0.032 0.01 -0.005 0.001 -0.019
C65 0.033 0.07 0.047 0.044 -0.027 -0.036
C66 0.044 0.058 0.032 0.03 -0.031 -0.039
C67 0.031 0.046 0.02 0.003 -0.006 -0.03
C68 0.037 0.049 0.02 0.007 -0.001 -0.026
Tb11 0.0166 0.0208 0.0193 0.0049 -0.0035 -0.0138
C69 0.027 0.032 0.026 0.012 -0.012 -0.02
C75 0.039 0.03 0.03 0.008 0.004 -0.027
C76 0.021 0.028 0.013 0.002 -0.002 -0.012
C77 0.037 0.039 0.05 -0.004 0.005 -0.032
C78 0.035 0.027 0.033 0.008 0.007 -0.011
Tb16 0.0152 0.015 0.0154 0.0013 -0.0019 -0.0106
O7 0.033 0.036 0.034 0.006 -0.007 -0.028
O8 0.038 0.045 0.019 0.002 -0.008 -0.026
O17 0.037 0.051 0.037 0.004 0.01 -0.024
O18 0.031 0.042 0.029 -0.008 0.011 -0.016
C13 0.021 0.019 0.036 -0.01 0.007 -0.016
C14 0.024 0.023 0.011 -0.002 0 -0.017
C15 0.025 0.04 0.035 0.013 -0.003 -0.027
C17 0.031 0.041 0.027 0.015 -0.011 -0.029
O26 0.06 0.021 0.03 -0.015 0.02 -0.026
O28 0.043 0.035 0.023 -0.01 0.001 -0.026
O30 0.036 0.027 0.029 0.001 0.003 -0.026
O32 0.053 0.018 0.039 0.009 -0.015 -0.025
O50 0.025 0.049 0.042 0.024 -0.007 -0.027
C47 0.032 0.037 0.025 0.002 -0.008 -0.03
C48 0.052 0.021 0.022 -0.002 0.002 -0.03
C49 0.055 0.023 0.012 0.004 -0.012 -0.025
C50 0.05 0.032 0.02 0.008 -0.011 -0.029
C51 0.063 0.032 0.012 -0.007 -0.002 -0.024
C52 0.05 0.023 0.023 -0.006 -0.004 -0.027
C53 0.016 0.034 0.017 -0.007 0.008 -0.019
C54 0.013 0.022 0.035 -0.019 0.006 -0.013
O2 0.06 0.021 0.03 -0.015 0.02 -0.026
C3 0.042 0.03 0.021 0.005 -0.004 -0.022
O24 0.051 0.02 0.036 -0.009 0.015 -0.03
O29 0.043 0.035 0.023 -0.01 0.001 -0.026
O40 0.024 0.024 0.017 -0.003 -0.001 -0.016
O45 0.024 0.042 0.039 -0.002 -0.003 -0.013
C43 0.029 0.029 0.072 0.026 -0.03 -0.014
C44 0.032 0.006 0.032 -0.002 0.002 -0.014
C46 0.04 0.018 0.026 -0.005 0.002 -0.017
C79 0.042 0.03 0.048 -0.008 0.014 -0.005
O1 0.051 0.02 0.036 -0.009 0.015 -0.03
O11 0.024 0.042 0.039 -0.002 -0.003 -0.013
O16 0.017 0.047 0.055 0.016 -0.004 -0.01
C1 0.029 0.029 0.072 0.026 -0.03 -0.014
C2 0.032 0.006 0.032 -0.002 0.002 -0.014
C4 0.04 0.018 0.026 -0.005 0.002 -0.017
C29 0.027 0.029 0.021 -0.004 0.01 -0.021
C30 0.024 0.032 0.024 -0.002 -0.004 -0.019
C31 0.043 0.017 0.042 0.013 -0.006 -0.015
C33 0.039 0.03 0.03 0.008 0.004 -0.027
C34 0.021 0.028 0.013 0.002 -0.002 -0.012
C35 0.037 0.039 0.05 -0.004 0.005 -0.032
C36 0.035 0.027 0.033 0.008 0.007 -0.011
C37 0.042 0.03 0.048 -0.008 0.014 -0.005
C45 0.042 0.03 0.021 0.005 -0.004 -0.022
C70 0.031 0.011 0.041 -0.009 0.004 -0.017
C74 0.031 0.011 0.035 -0.005 -0.012 -0.007
O36 0.033 0.036 0.034 0.006 -0.007 -0.028
O44 0.028 0.061 0.014 0.009 0.003 -0.03
C32 0.031 0.011 0.035 -0.005 -0.012 -0.007
O56 0.032 0.034 0.026 -0.006 -0.011 -0.02
O58 0.039 0.033 0.022 0.002 -0.01 -0.026
C71 0.027 0.029 0.021 -0.004 0.01 -0.021
C72 0.024 0.032 0.024 -0.002 -0.004 -0.019
C73 0.043 0.017 0.042 0.013 -0.006 -0.015
C80 0.1 0.08 0.059 -0.014 0.011 -0.009
C81 0.032 0.037 0.079 0.007 -0.034 -0.003
N3 0.045 0.048 0.059 -0.017 0.018 0.003
O14 0.025 0.049 0.042 0.024 -0.007 -0.027
O15 0.02 0.046 0.029 0.006 -0.008 -0.019
C28 0.031 0.011 0.041 -0.009 0.004 -0.017
Tb10 0.0166 0.0208 0.0193 0.0049 -0.0035 -0.0138
O37 0.038 0.045 0.019 0.002 -0.008 -0.026
C55 0.021 0.019 0.036 -0.01 0.007 -0.016
C56 0.024 0.023 0.011 -0.002 0 -0.017
C57 0.025 0.04 0.035 0.013 -0.003 -0.027
C59 0.031 0.041 0.027 0.015 -0.011 -0.029
O31 0.036 0.027 0.029 0.001 0.003 -0.026
O53 0.017 0.047 0.055 0.016 -0.004 -0.01
O5 0.053 0.018 0.039 0.009 -0.015 -0.025
O6 0.06 0.055 0.009 -0.01 0.002 -0.044
O12 0.026 0.043 0.037 0.003 -0.011 -0.021
O13 0.035 0.051 0.046 0.009 -0.002 -0.037
O23 0.031 0.032 0.022 -0.001 -0.003 -0.012
C5 0.032 0.037 0.025 0.002 -0.008 -0.03
C6 0.052 0.021 0.022 -0.002 0.002 -0.03
C7 0.055 0.023 0.012 0.004 -0.012 -0.025
C8 0.05 0.032 0.02 0.008 -0.011 -0.029
C9 0.063 0.032 0.012 -0.007 -0.002 -0.024
C10 0.05 0.023 0.023 -0.006 -0.004 -0.027
C11 0.016 0.034 0.017 -0.007 0.008 -0.019
C12 0.013 0.022 0.035 -0.019 0.006 -0.013
C21 0.019 0.028 0.028 -0.014 -0.001 -0.008
C22 0.02 0.032 0.01 -0.005 0.001 -0.019
C23 0.033 0.07 0.047 0.044 -0.027 -0.036
C24 0.044 0.058 0.032 0.03 -0.031 -0.039
C25 0.031 0.046 0.02 0.003 -0.006 -0.03
C26 0.037 0.049 0.02 0.007 -0.001 -0.026
C27 0.027 0.032 0.026 0.012 -0.012 -0.02
O54 0.037 0.051 0.037 0.004 0.01 -0.024
O55 0.031 0.042 0.029 -0.008 0.011 -0.016
C58 0.049 0.042 0.021 0.015 -0.024 -0.025
C60 0.034 0.039 0.029 0.02 -0.001 -0.025
C61 0.005 0.035 0.025 0.008 -0.001 -0.007
C62 0.054 0.023 0.029 0.002 -0.019 -0.024
C82 0.07 0.047 0.065 0.035 -0.013 -0.023
C83 0.06 0.18 0.09 -0.08 -0.021 -0.01
C84 0.016 0.18 0.32 0.04 0 -0.03
N4 0.1 0.068 0.044 0.002 0.01 -0.036
loop_
_geom_bond_atom_site_label_1
_geom_bond_atom_site_label_2
_geom_bond_site_symmetry_1
_geom_bond_site_symmetry_2
O9 C20 1_555 1_555
O10 C20 1_555 1_555
H10 C18 1_555 1_555
C19 C16 1_555 1_555
C20 C19 1_555 1_555
C18 C19 1_555 1_555
C38 H20 1_555 1_555
H21 C38 1_555 1_555
H22 C38 1_555 1_555
H24 C39 1_555 1_555
H26 C40 1_555 1_555
H28 C41 1_555 1_555
H29 C41 1_555 1_555
C42 H30 1_555 1_555
H31 C42 1_555 1_555
H32 C42 1_555 1_555
N2 C40 1_555 1_555
O34 Tb4 1_555 1_555
O46 C63 1_555 1_555
O48 Tb4 1_555 1_555
O52 Tb4 1_555 1_555
O57 Tb4 1_555 1_555
O59 Tb4 1_555 1_555
O60 Tb7 1_555 1_555
O61 Tb4 1_555 1_555
O62 Tb7 1_555 1_555
O63 Tb4 1_555 1_555
O64 Tb4 1_555 1_555
C63 O48 1_555 1_555
C64 C63 1_555 1_555
C65 C64 1_555 1_555
H43 C65 1_555 1_555
C66 C65 1_555 1_555
C67 C64 1_555 1_555
H45 C67 1_555 1_555
C68 C67 1_555 1_555
H46 C68 1_555 1_555
Tb11 O46 1_555 1_555
C69 C66 1_555 1_555
C75 O60 1_555 1_555
C76 C75 1_555 1_555
H49 C77 1_555 1_555
H50 C78 1_555 1_555
C38 N1 1_555 1_555
C39 N1 1_555 1_555
C41 N2 1_555 1_555
C42 N2 1_555 1_555
O62 C75 1_555 1_555
C68 C69 1_555 1_555
C76 C77 1_555 1_555
C76 C78 1_555 1_555
O64 H73 1_555 1_555
O64 H74 1_555 1_555
O7 C13 1_555 1_555
O8 C13 1_555 1_555
O17 Tb11 1_555 1_555
O18 Tb11 1_555 1_555
C13 C14 1_555 1_555
C14 C15 1_555 1_555
C17 C14 1_555 1_555
H9 C17 1_555 1_555
O28 C47 1_555 1_555
O30 C47 1_555 1_555
O32 Tb11 1_555 1_555
O50 Tb11 1_555 1_555
C47 C48 1_555 1_555
C48 C49 1_555 1_555
C49 H35 1_555 1_555
C50 C49 1_555 1_555
H36 C50 1_555 1_555
C51 C48 1_555 1_555
H37 C51 1_555 1_555
C52 C51 1_555 1_555
H38 C52 1_555 1_555
C53 C50 1_555 1_555
C54 O32 1_555 1_555
Tb16 O28 1_555 1_555
O8 Tb11 1_555 1_555
O34 C54 1_555 1_555
C52 C53 1_555 1_555
C53 C54 1_555 1_555
O18 H68 1_555 1_555
C3 H1 1_555 1_555
O24 C43 1_555 1_555
O29 Tb17 1_555 1_555
O45 C79 1_555 1_555
C43 C44 1_555 1_555
C46 C3 1_555 1_555
H34 C46 1_555 1_555
C79 H51 1_555 1_555
Tb17 O24 1_555 1_555
O45 Tb17 1_555 1_555
C44 C46 1_555 1_555
O1 C1 1_555 1_555
O11 C37 1_555 1_555
C1 C2 1_555 1_555
C4 C2 1_555 1_555
H2 C4 1_555 1_555
C29 O57 1_555 1_555
C30 C29 1_555 1_555
C31 C30 1_555 1_555
H15 C31 1_555 1_555
C33 O61 1_555 1_555
C34 C33 1_555 1_555
C35 C34 1_555 1_555
H17 C35 1_555 1_555
C36 C34 1_555 1_555
H18 C36 1_555 1_555
C37 H19 1_555 1_555
Tb16 O1 1_555 1_555
O52 C70 1_555 1_555
C45 C4 1_555 1_555
H33 C45 1_555 1_555
C70 O50 1_555 1_555
C74 C31 1_555 1_555
H48 C74 1_555 1_555
O11 Tb16 1_555 1_555
O59 C29 1_555 1_555
O63 C33 1_555 1_555
O18 H71 1_555 1_555
H16 C32 1_555 1_555
O56 Tb7 1_555 1_555
O58 Tb7 1_555 1_555
C71 O56 1_555 1_555
C72 C71 1_555 1_555
C73 C32 1_555 1_555
H47 C73 1_555 1_555
O58 C71 1_555 1_555
C72 C73 1_555 1_555
C80 H52 1_555 1_555
H53 C80 1_555 1_555
H54 C80 1_555 1_555
H56 C81 1_555 1_555
C80 N3 1_555 1_555
C81 N3 1_555 1_555
O14 C28 1_555 1_555
O15 C28 1_555 1_555
Tb7 O15 1_555 1_555
Tb10 O14 1_555 1_555
O36 C55 1_555 1_555
O37 C55 1_555 1_555
C55 C56 1_555 1_555
C56 C57 1_555 1_555
C59 C56 1_555 1_555
H41 C59 1_555 1_555
Tb10 O37 1_555 1_555
O29 C5 1_555 1_555
O31 C5 1_555 1_555
O5 C12 1_555 1_555
O6 Tb7 1_555 1_555
O12 C21 1_555 1_555
O13 Tb7 1_555 1_555
O23 Tb7 1_555 1_555
C5 C6 1_555 1_555
C6 C7 1_555 1_555
C7 H3 1_555 1_555
C8 C7 1_555 1_555
H4 C8 1_555 1_555
C9 C6 1_555 1_555
H5 C9 1_555 1_555
C10 C9 1_555 1_555
H6 C10 1_555 1_555
C11 C8 1_555 1_555
C12 O6 1_555 1_555
C21 O13 1_555 1_555
C22 C21 1_555 1_555
C23 C22 1_555 1_555
H11 C23 1_555 1_555
C24 C23 1_555 1_555
C25 C22 1_555 1_555
H13 C25 1_555 1_555
C26 C25 1_555 1_555
H14 C26 1_555 1_555
C27 C24 1_555 1_555
O54 Tb10 1_555 1_555
O55 Tb10 1_555 1_555
Tb10 O5 1_555 1_555
O12 Tb10 1_555 1_555
C10 C11 1_555 1_555
C11 C12 1_555 1_555
C26 C27 1_555 1_555
O23 H69 1_555 1_555
O23 H70 1_555 1_555
O55 H71_2 1_555 1_555
H42 C60 1_555 1_555
C61 C58 1_555 1_555
C62 O40 1_555 1_555
O44 C62 1_555 1_555
C60 C61 1_555 1_555
C61 C62 1_555 1_555
O55 H68_2 1_555 1_555
H58 C82 1_555 1_555
H60 C83 1_555 1_555
H61 C83 1_555 1_555
C84 H62 1_555 1_555
H63 C84 1_555 1_555
H64 C84 1_555 1_555
N4 C82 1_555 1_555
C83 N4 1_555 1_555
C84 N4 1_555 1_555

#END
