
###############################################################################
#
# This file contains modified crystal structure data generated from the
# MOF subset of the Cambridge Structural Database (CSD) v543 
# hosted by the Cambridge Crystallographic Data Centre (CCDC).
#
# This work is licensed under the Creative Commons
# Attribution-NonCommercial-ShareAlike 4.0 International License.
# To view a copy of this license, visit
# http://creativecommons.org/licenses/by-nc-sa/4.0/
# or send a letter to
# Creative Commons, PO Box 1866, Mountain View, CA 94042, USA.
#
# CIF created using the CSD Python API on 29 September 2022
# The structure has been converted into the P1 space group
# The structure has a 3D framework
# The original CSD entry UCOHUR is in the orthorhombic crystal system
# The framework has been calculated to contain at least 10.0% void space
# The void calculation uses a probe of radius 1.32A, grid spacing 0.4
#
###############################################################################

data_UCOHUR
_chemical_formula_moiety         '(C288 H192 I48 N92 Zn24)n'
_symmetry_cell_setting           triclinic
_symmetry_space_group_name_H-M   'P 1'
_symmetry_Int_Tables_number      1
_space_group_name_Hall           'P 1'
loop_
_symmetry_equiv_pos_site_id
_symmetry_equiv_pos_as_xyz
1 x,y,z
_cell_length_a                   27.165(4)
_cell_length_b                   13.745(2)
_cell_length_c                   46.162(7)
_cell_angle_alpha                90
_cell_angle_beta                 90
_cell_angle_gamma                90
_cell_volume                     17236.1
loop_
_atom_site_label
_atom_site_type_symbol
_atom_site_fract_x
_atom_site_fract_y
_atom_site_fract_z
I5 I 0.017838(17) 0.94634(4) 0.408154(10)
Zn1 Zn 0.75044(3) 0.14559(5) 0.192561(15)
I1 I 0.697289(18) 0.29735(3) 0.200877(10)
I2 I 0.841937(18) 0.16188(4) 0.181227(11)
C1 C 0.6985(2) 0.0568(5) 0.24182(14)
H1 H 0.6708 0.0796 0.2313
C2 C 0.6912(2) 0.0195(5) 0.26916(14)
H2 H 0.6591 0.0153 0.2771
C5 C 0.7818(2) 0.0285(4) 0.24424(13)
H4 H 0.8133 0.0302 0.2353
C20 C 0.6195(3) 0.0548(5) 0.01496(14)
H14 H 0.6425 0.0842 0.0277
C27 C 0.6734(3) 0.0644(5) 0.11515(14)
H19 H 0.6596 0.0991 0.0993
C28 C 0.6947(3) 0.1138(5) 0.13818(14)
H20 H 0.6950 0.1829 0.1379
N1 N 0.7431(2) 0.0624(4) 0.22945(11)
N8 N 0.7148(2) 0.0675(4) 0.16079(11)
C19 C 0.6013(3) 0.1054(5) 0.99129(14)
H13 H 0.6121 0.1703 0.9882
N7 N 0.56905(19) 0.0663(4) 0.97261(11)
Zn5 Zn 0.54914(3) 0.14347(5) 0.935662(15)
I5_2 I 0.482162(17) 0.05366(4) 0.908154(10)
I6 I 0.54097(2) 0.32050(3) 0.951566(11)
C3 C 0.7682(2) 0.0121(4) 0.78489(13)
C4 C 0.7221(2) 0.0087(4) 0.77175(13)
H3 H 0.6938 0.0318 0.7817
C6 C 0.9275(2) 0.1147(5) 0.90570(14)
H5 H 0.9324 0.1222 0.9260
C7 C 0.8801(2) 0.1022(5) 0.89561(13)
H6 H 0.8530 0.1016 0.9086
C8 C 0.8729(2) 0.0907(4) 0.86605(13)
C9 C 0.9135(2) 0.0895(5) 0.84776(13)
H7 H 0.9097 0.0787 0.8276
C10 C 0.9597(2) 0.1043(5) 0.85968(13)
H8 H 0.9874 0.1058 0.8471
C11 C 0.6086(2) 0.1013(5) 0.88258(13)
H9 H 0.5768 0.0950 0.8743
C12 C 0.6492(2) 0.0870(4) 0.86509(13)
H10 H 0.6452 0.0716 0.8452
C13 C 0.6960(2) 0.0954(4) 0.87702(13)
C14 C 0.7000(3) 0.1185(5) 0.90594(14)
H11 H 0.7315 0.1243 0.9147
C15 C 0.6578(2) 0.1332(5) 0.92208(14)
H12 H 0.6609 0.1505 0.9419
C16 C 0.7739(2) 0.0437(4) 0.81553(12)
C17 C 0.8224(2) 0.0774(4) 0.85386(13)
C18 C 0.7402(2) 0.0809(4) 0.85861(13)
C21 C 0.8967(2) 0.0404(5) 0.51964(13)
C22 C 0.9305(2) 0.0804(5) 0.50059(13)
H15 H 0.9422 0.1448 0.5034
C23 C 0.9469(2) 0.0252(5) 0.47726(14)
H16 H 0.9701 0.0528 0.4642
C24 C 0.7869(3) 0.0300(5) 0.66159(15)
H17 H 0.7735 0.0628 0.6779
C25 C 0.8076(3) 0.0848(5) 0.63939(15)
H18 H 0.8083 0.1538 0.6405
C26 C 0.8273(2) 0.0370(4) 0.61558(13)
C29 C 0.9239(3) 0.4879(5) 0.56066(14)
H21 H 0.9284 0.5314 0.5449
C30 C 0.9070(3) 0.3937(5) 0.55496(14)
H22 H 0.9012 0.3727 0.5356
C31 C 0.8989(2) 0.3314(5) 0.57827(14)
C32 C 0.9084(3) 0.3648(5) 0.60601(14)
H23 H 0.9028 0.3240 0.6223
C33 C 0.9258(3) 0.4574(5) 0.60965(15)
H24 H 0.9326 0.4795 0.6287
C34 C 0.8799(2) 0.0946(5) 0.54580(13)
C35 C 0.8498(2) 0.0922(5) 0.59118(14)
C36 C 0.8827(2) 0.2297(5) 0.57351(14)
N2 N 0.9671(2) 0.1167(4) 0.88820(12)
N3 N 0.61227(19) 0.1238(4) 0.91066(11)
N4 N 0.8196(2) 0.0530(4) 0.82578(11)
N5 N 0.7843(2) 0.0921(4) 0.87133(11)
N6 N 0.73274(19) 0.0577(4) 0.83087(11)
N9 N 0.9338(2) 0.5188(4) 0.58736(11)
N10 N 0.8571(2) 0.0431(4) 0.56646(11)
N11 N 0.8618(2) 0.1844(4) 0.59597(11)
N12 N 0.8919(2) 0.1893(4) 0.54746(12)
Zn4 Zn 0.96429(3) 0.65445(5) 0.595696(16)
I3 I 0.974295(19) 0.74234(3) 0.547381(10)
I4 I 0.919856(19) 0.72858(4) 0.638954(11)
Zn2 Zn 0.46429(3) 0.84555(5) 0.404304(16)
Zn3 Zn 0.95086(3) 0.85653(5) 0.435662(15)
I3_2 I 0.474295(19) 0.75766(3) 0.452619(10)
I4_2 I 0.419856(19) 0.77142(4) 0.361046(11)
I6_2 I 0.95903(2) 0.67950(3) 0.451566(11)
C3_2 C 0.7318(2) 0.9879(4) 0.28489(13)
C4_2 C 0.7779(2) 0.9913(4) 0.27175(13)
H3_2 H 0.8062 0.9682 0.2817
C6_2 C 0.5725(2) 0.8853(5) 0.40570(14)
H5_2 H 0.5676 0.8778 0.4260
C7_2 C 0.6199(2) 0.8978(5) 0.39561(13)
H6_2 H 0.6470 0.8984 0.4086
C8_2 C 0.6271(2) 0.9093(4) 0.36605(13)
C9_2 C 0.5865(2) 0.9105(5) 0.34776(13)
H7_2 H 0.5903 0.9213 0.3276
C10_2 C 0.5403(2) 0.8957(5) 0.35968(13)
H8_2 H 0.5126 0.8942 0.3471
C11_2 C 0.8914(2) 0.8987(5) 0.38258(13)
H9_2 H 0.9232 0.9050 0.3743
C12_2 C 0.8508(2) 0.9130(4) 0.36509(13)
H10_2 H 0.8548 0.9284 0.3452
C13_2 C 0.8040(2) 0.9046(4) 0.37702(13)
C14_2 C 0.8000(3) 0.8815(5) 0.40594(14)
H11_2 H 0.7685 0.8757 0.4147
C15_2 C 0.8422(2) 0.8668(5) 0.42208(14)
H12_2 H 0.8391 0.8495 0.4419
C16_2 C 0.7261(2) 0.9563(4) 0.31553(12)
C17_2 C 0.6776(2) 0.9226(4) 0.35386(13)
C18_2 C 0.7598(2) 0.9191(4) 0.35861(13)
C21_2 C 0.6033(2) 0.9596(5) 0.01964(13)
C22_2 C 0.5695(2) 0.9196(5) 0.00059(13)
H15_2 H 0.5578 0.8552 0.0034
C24_2 C 0.7131(3) 0.9700(5) 0.16159(15)
H17_2 H 0.7265 0.9372 0.1779
C25_2 C 0.6924(3) 0.9152(5) 0.13939(15)
H18_2 H 0.6917 0.8462 0.1405
C26_2 C 0.6727(2) 0.9630(4) 0.11558(13)
C29_2 C 0.5761(3) 0.5121(5) 0.06066(14)
H21_2 H 0.5716 0.4686 0.0449
C30_2 C 0.5930(3) 0.6063(5) 0.05496(14)
H22_2 H 0.5988 0.6273 0.0356
C31_2 C 0.6011(2) 0.6686(5) 0.07827(14)
C32_2 C 0.5916(3) 0.6352(5) 0.10601(14)
H23_2 H 0.5972 0.6760 0.1223
C33_2 C 0.5742(3) 0.5426(5) 0.10965(15)
H24_2 H 0.5674 0.5205 0.1287
C34_2 C 0.6201(2) 0.9054(5) 0.04580(13)
C35_2 C 0.6502(2) 0.9078(5) 0.09118(14)
C36_2 C 0.6173(2) 0.7703(5) 0.07351(14)
N2_2 N 0.5329(2) 0.8833(4) 0.38820(12)
N3_2 N 0.88773(19) 0.8762(4) 0.41066(11)
N4_2 N 0.6804(2) 0.9470(4) 0.32578(11)
N5_2 N 0.7157(2) 0.9079(4) 0.37133(11)
N6_2 N 0.76726(19) 0.9423(4) 0.33087(11)
N9_2 N 0.5662(2) 0.4812(4) 0.08736(11)
N10_2 N 0.6429(2) 0.9569(4) 0.06646(11)
N11_2 N 0.6382(2) 0.8156(4) 0.09597(11)
N12_2 N 0.6081(2) 0.8107(4) 0.04746(12)
Zn4_2 Zn 0.53571(3) 0.34555(5) 0.095696(16)
N13 N 0.93095(19) 0.9337(4) 0.47261(11)
N14 N 0.4338(2) 0.9812(4) 0.41264(11)
Zn1_2 Zn 0.74956(3) 0.85441(5) 0.692561(15)
I1_2 I 0.802711(18) 0.70265(3) 0.700877(10)
I2_2 I 0.658063(18) 0.83812(4) 0.681227(11)
C1_2 C 0.8015(2) 0.9432(5) 0.74182(14)
H1_2 H 0.8292 0.9204 0.7313
C2_2 C 0.8088(2) 0.9805(5) 0.76916(14)
H2_2 H 0.8409 0.9847 0.7771
C5_2 C 0.7182(2) 0.9715(4) 0.74424(13)
H4_2 H 0.6867 0.9698 0.7353
C19_2 C 0.8987(3) 0.8946(5) 0.49129(14)
H13_2 H 0.8879 0.8297 0.4882
C20_2 C 0.8805(3) 0.9452(5) 0.51496(14)
H14_2 H 0.8575 0.9158 0.5277
C27_2 C 0.8266(3) 0.9356(5) 0.61515(14)
H19_2 H 0.8404 0.9009 0.5993
C28_2 C 0.8053(3) 0.8862(5) 0.63818(14)
H20_2 H 0.8050 0.8171 0.6379
N1_2 N 0.7569(2) 0.9376(4) 0.72945(11)
N8_2 N 0.7852(2) 0.9325(4) 0.66079(11)
Zn1_3 Zn 0.24956(3) 0.64559(5) 0.307439(15)
Zn3_2 Zn 0.04914(3) 0.35653(5) 0.064338(15)
I1_3 I 0.302711(18) 0.79735(3) 0.299123(10)
I2_3 I 0.158063(18) 0.66188(4) 0.318773(11)
I3_3 I 0.525705(19) 0.25766(3) 0.047381(10)
I4_3 I 0.580144(19) 0.27142(4) 0.138954(11)
I6_3 I 0.04097(2) 0.17950(3) 0.048434(11)
C1_3 C 0.3015(2) 0.5568(5) 0.25818(14)
H1_3 H 0.3292 0.5796 0.2687
C2_3 C 0.3088(2) 0.5195(5) 0.23084(14)
H2_3 H 0.3409 0.5153 0.2229
C3_3 C 0.2682(2) 0.4879(4) 0.21511(13)
C4_3 C 0.2221(2) 0.4913(4) 0.22825(13)
H3_3 H 0.1938 0.4682 0.2183
C5_3 C 0.2182(2) 0.5285(4) 0.25576(13)
H4_3 H 0.1867 0.5302 0.2647
C6_3 C 0.4275(2) 0.3853(5) 0.09430(14)
H5_3 H 0.4324 0.3778 0.0740
C7_3 C 0.3801(2) 0.3978(5) 0.10439(13)
H6_3 H 0.3530 0.3984 0.0914
C8_3 C 0.3729(2) 0.4093(4) 0.13395(13)
C9_3 C 0.4135(2) 0.4105(5) 0.15224(13)
H7_3 H 0.4097 0.4213 0.1724
C10_3 C 0.4597(2) 0.3957(5) 0.14032(13)
H8_3 H 0.4874 0.3942 0.1529
C11_3 C 0.1086(2) 0.3987(5) 0.11742(13)
H9_3 H 0.0768 0.4050 0.1257
C12_3 C 0.1492(2) 0.4130(4) 0.13491(13)
H10_3 H 0.1452 0.4284 0.1548
C13_3 C 0.1960(2) 0.4046(4) 0.12298(13)
C14_3 C 0.2000(3) 0.3815(5) 0.09406(14)
H11_3 H 0.2315 0.3757 0.0853
C15_3 C 0.1578(2) 0.3668(5) 0.07792(14)
H12_3 H 0.1609 0.3495 0.0581
C16_3 C 0.2739(2) 0.4563(4) 0.18447(12)
C17_3 C 0.3224(2) 0.4226(4) 0.14614(13)
C18_3 C 0.2402(2) 0.4191(4) 0.14139(13)
C19_3 C 0.3987(3) 0.6054(5) 0.50871(14)
H13_3 H 0.3879 0.6703 0.5118
C20_3 C 0.3805(3) 0.5548(5) 0.48504(14)
H14_3 H 0.3575 0.5842 0.4723
C21_3 C 0.3967(2) 0.4596(5) 0.48036(13)
C22_3 C 0.4305(2) 0.4196(5) 0.49941(13)
H15_3 H 0.4422 0.3552 0.4966
C23_2 C 0.4469(2) 0.4748(5) 0.52274(14)
H16_2 H 0.4701 0.4472 0.5358
C24_3 C 0.2869(3) 0.4700(5) 0.33841(15)
H17_3 H 0.2735 0.4372 0.3221
C25_3 C 0.3076(3) 0.4152(5) 0.36061(15)
H18_3 H 0.3083 0.3462 0.3595
C26_3 C 0.3273(2) 0.4630(4) 0.38442(13)
C27_3 C 0.3266(3) 0.5644(5) 0.38485(14)
H19_3 H 0.3404 0.5991 0.4007
C28_3 C 0.3053(3) 0.6138(5) 0.36182(14)
H20_3 H 0.3050 0.6829 0.3621
C29_3 C 0.4239(3) 0.0121(5) 0.43934(14)
C30_3 C 0.4070(3) 0.1063(5) 0.44504(14)
H22_3 H 0.4012 0.1273 0.4644
C31_3 C 0.3989(2) 0.1686(5) 0.42173(14)
C32_3 C 0.4084(3) 0.1352(5) 0.39399(14)
H23_3 H 0.4028 0.1760 0.3777
C33_3 C 0.4258(3) 0.0426(5) 0.39035(15)
H24_3 H 0.4326 0.0205 0.3713
C34_3 C 0.3799(2) 0.4054(5) 0.45420(13)
C35_3 C 0.3498(2) 0.4078(5) 0.40882(14)
C36_3 C 0.3827(2) 0.2703(5) 0.42649(14)
N1_3 N 0.2569(2) 0.5624(4) 0.27055(11)
N2_3 N 0.4671(2) 0.3833(4) 0.11180(12)
N3_3 N 0.11227(19) 0.3762(4) 0.08934(11)
N4_3 N 0.3196(2) 0.4470(4) 0.17422(11)
N5_3 N 0.2843(2) 0.4079(4) 0.12867(11)
N6_3 N 0.23274(19) 0.4423(4) 0.16913(11)
N7_2 N 0.43095(19) 0.5663(4) 0.52739(11)
N8_3 N 0.2852(2) 0.5675(4) 0.33921(11)
N10_3 N 0.3571(2) 0.4569(4) 0.43354(11)
N11_3 N 0.3618(2) 0.3156(4) 0.40403(11)
N12_3 N 0.3919(2) 0.3107(4) 0.45254(12)
Zn5_2 Zn 0.45086(3) 0.64347(5) 0.564338(15)
N13_2 N 0.06905(19) 0.4337(4) 0.02739(11)
H21_3 H 0.4284 0.9686 0.4551
C19_4 C 0.1013(3) 0.3946(5) 0.00871(14)
H13_4 H 0.1121 0.3297 0.0118
C23_3 C 0.0531(2) 0.5252(5) 0.02274(14)
H16_3 H 0.0299 0.5528 0.0358
Zn1_4 Zn 0.25044(3) 0.35441(5) 0.807439(15)
I1_4 I 0.197289(18) 0.20265(3) 0.799123(10)
I2_4 I 0.341937(18) 0.33812(4) 0.818773(11)
I5_3 I 0.517838(17) 0.55366(4) 0.591846(10)
I6_4 I 0.45903(2) 0.82050(3) 0.548434(11)
C1_4 C 0.1985(2) 0.4432(5) 0.75818(14)
H1_4 H 0.1708 0.4204 0.7687
C2_4 C 0.1912(2) 0.4805(5) 0.73084(14)
H2_4 H 0.1591 0.4847 0.7229
C3_4 C 0.2318(2) 0.5121(4) 0.71511(13)
C4_4 C 0.2779(2) 0.5087(4) 0.72825(13)
H3_4 H 0.3062 0.5318 0.7183
C5_4 C 0.2818(2) 0.4715(4) 0.75576(13)
H4_4 H 0.3133 0.4698 0.7647
C6_4 C 0.0725(2) 0.6147(5) 0.59430(14)
H5_4 H 0.0676 0.6222 0.5740
C7_4 C 0.1199(2) 0.6022(5) 0.60439(13)
H6_4 H 0.1470 0.6016 0.5914
C8_4 C 0.1271(2) 0.5907(4) 0.63395(13)
C9_4 C 0.0865(2) 0.5895(5) 0.65224(13)
H7_4 H 0.0903 0.5787 0.6724
C10_4 C 0.0403(2) 0.6043(5) 0.64032(13)
H8_4 H 0.0126 0.6058 0.6529
C11_4 C 0.3914(2) 0.6013(5) 0.61742(13)
H9_4 H 0.4232 0.5950 0.6257
C12_4 C 0.3508(2) 0.5870(4) 0.63491(13)
H10_4 H 0.3548 0.5716 0.6548
C13_4 C 0.3040(2) 0.5954(4) 0.62298(13)
C14_4 C 0.3000(3) 0.6185(5) 0.59406(14)
H11_4 H 0.2685 0.6243 0.5853
C15_4 C 0.3422(2) 0.6332(5) 0.57792(14)
H12_4 H 0.3391 0.6505 0.5581
C16_4 C 0.2261(2) 0.5437(4) 0.68447(12)
C17_4 C 0.1776(2) 0.5774(4) 0.64614(13)
C18_4 C 0.2598(2) 0.5809(4) 0.64139(13)
C20_4 C 0.1195(3) 0.4452(5) 0.98504(14)
H14_4 H 0.1425 0.4158 0.9723
C21_4 C 0.1033(2) 0.5404(5) 0.98036(13)
C22_4 C 0.0695(2) 0.5804(5) 0.99941(13)
H15_4 H 0.0578 0.6448 0.9966
C24_4 C 0.2131(3) 0.5300(5) 0.83841(15)
H17_4 H 0.2265 0.5628 0.8221
C25_4 C 0.1924(3) 0.5848(5) 0.86061(15)
H18_4 H 0.1917 0.6538 0.8595
C26_4 C 0.1727(2) 0.5370(4) 0.88442(13)
C27_4 C 0.1734(3) 0.4356(5) 0.88485(14)
H19_4 H 0.1596 0.4009 0.9007
C28_4 C 0.1947(3) 0.3862(5) 0.86182(14)
H20_4 H 0.1950 0.3171 0.8621
C29_4 C 0.0761(3) 0.9879(5) 0.93934(14)
C30_4 C 0.0930(3) 0.8937(5) 0.94504(14)
H22_4 H 0.0988 0.8727 0.9644
C31_4 C 0.1011(2) 0.8314(5) 0.92173(14)
C32_4 C 0.0916(3) 0.8648(5) 0.89399(14)
H23_4 H 0.0972 0.8240 0.8777
C33_4 C 0.0742(3) 0.9574(5) 0.89035(15)
H24_4 H 0.0674 0.9795 0.8713
C34_4 C 0.1201(2) 0.5946(5) 0.95420(13)
C35_4 C 0.1502(2) 0.5922(5) 0.90882(14)
C36_4 C 0.1173(2) 0.7297(5) 0.92649(14)
N1_4 N 0.2431(2) 0.4376(4) 0.77055(11)
N2_4 N 0.0329(2) 0.6167(4) 0.61180(12)
N3_4 N 0.38773(19) 0.6238(4) 0.58934(11)
N4_4 N 0.1804(2) 0.5530(4) 0.67422(11)
N5_4 N 0.2157(2) 0.5921(4) 0.62867(11)
N6_4 N 0.26726(19) 0.5577(4) 0.66913(11)
N8_4 N 0.2148(2) 0.4325(4) 0.83921(11)
N10_4 N 0.1429(2) 0.5431(4) 0.93354(11)
N11_4 N 0.1382(2) 0.6844(4) 0.90403(11)
N12_4 N 0.1081(2) 0.6893(4) 0.95254(12)
C23_4 C 0.5531(2) 0.9748(5) 0.97726(14)
H16_4 H 0.5299 0.9472 0.9642
Zn2_2 Zn 0.03571(3) 0.15445(5) 0.904304(16)
I3_4 I 0.025705(19) 0.24234(3) 0.952619(10)
I4_4 I 0.080144(19) 0.22858(4) 0.861046(11)
N14_2 N 0.0662(2) 0.0188(4) 0.91264(11)
H21_4 H 0.0716 0.0314 0.9551
I5_4 I 0.982162(17) 0.44634(4) 0.091846(10)
C23_5 C 0.4469(2) 0.0252(5) 0.02274(14)
H16_5 H 0.4701 0.0528 0.0358
Zn2_3 Zn 0.53571(3) 0.15445(5) 0.595696(16)
Zn3_3 Zn 0.04914(3) 0.14347(5) 0.564338(15)
I3_5 I 0.525705(19) 0.24234(3) 0.547381(10)
I4_5 I 0.580144(19) 0.22858(4) 0.638954(11)
I6_5 I 0.04097(2) 0.32050(3) 0.548434(11)
C3_5 C 0.2682(2) 0.0121(4) 0.71511(13)
C4_5 C 0.2221(2) 0.0087(4) 0.72825(13)
H3_5 H 0.1938 0.0318 0.7183
C6_5 C 0.4275(2) 0.1147(5) 0.59430(14)
H5_5 H 0.4324 0.1222 0.5740
C7_5 C 0.3801(2) 0.1022(5) 0.60439(13)
H6_5 H 0.3530 0.1016 0.5914
C8_5 C 0.3729(2) 0.0907(4) 0.63395(13)
C9_5 C 0.4135(2) 0.0895(5) 0.65224(13)
H7_5 H 0.4097 0.0787 0.6724
C10_5 C 0.4597(2) 0.1043(5) 0.64032(13)
H8_5 H 0.4874 0.1058 0.6529
C11_5 C 0.1086(2) 0.1013(5) 0.61742(13)
H9_5 H 0.0768 0.0950 0.6257
C12_5 C 0.1492(2) 0.0870(4) 0.63491(13)
H10_5 H 0.1452 0.0716 0.6548
C13_5 C 0.1960(2) 0.0954(4) 0.62298(13)
C14_5 C 0.2000(3) 0.1185(5) 0.59406(14)
H11_5 H 0.2315 0.1243 0.5853
C15_5 C 0.1578(2) 0.1332(5) 0.57792(14)
H12_5 H 0.1609 0.1505 0.5581
C16_5 C 0.2739(2) 0.0437(4) 0.68447(12)
C17_5 C 0.3224(2) 0.0774(4) 0.64614(13)
C18_5 C 0.2402(2) 0.0809(4) 0.64139(13)
C21_5 C 0.3967(2) 0.0404(5) 0.98036(13)
C22_5 C 0.4305(2) 0.0804(5) 0.99941(13)
H15_5 H 0.4422 0.1448 0.9966
C24_5 C 0.2869(3) 0.0300(5) 0.83841(15)
H17_5 H 0.2735 0.0628 0.8221
C25_5 C 0.3076(3) 0.0848(5) 0.86061(15)
H18_5 H 0.3083 0.1538 0.8595
C26_5 C 0.3273(2) 0.0370(4) 0.88442(13)
C29_5 C 0.4239(3) 0.4879(5) 0.93934(14)
H21_5 H 0.4284 0.5314 0.9551
C30_5 C 0.4070(3) 0.3937(5) 0.94504(14)
H22_5 H 0.4012 0.3727 0.9644
C31_5 C 0.3989(2) 0.3314(5) 0.92173(14)
C32_5 C 0.4084(3) 0.3648(5) 0.89399(14)
H23_5 H 0.4028 0.3240 0.8777
C33_5 C 0.4258(3) 0.4574(5) 0.89035(15)
H24_5 H 0.4326 0.4795 0.8713
C34_5 C 0.3799(2) 0.0946(5) 0.95420(13)
C35_5 C 0.3498(2) 0.0922(5) 0.90882(14)
C36_5 C 0.3827(2) 0.2297(5) 0.92649(14)
N2_5 N 0.4671(2) 0.1167(4) 0.61180(12)
N3_5 N 0.11227(19) 0.1238(4) 0.58934(11)
N4_5 N 0.3196(2) 0.0530(4) 0.67422(11)
N5_5 N 0.2843(2) 0.0921(4) 0.62867(11)
N6_5 N 0.23274(19) 0.0577(4) 0.66913(11)
N9_3 N 0.4338(2) 0.5188(4) 0.91264(11)
N10_5 N 0.3571(2) 0.0431(4) 0.93354(11)
N11_5 N 0.3618(2) 0.1844(4) 0.90403(11)
N12_5 N 0.3919(2) 0.1893(4) 0.95254(12)
Zn4_3 Zn 0.46429(3) 0.65445(5) 0.904304(16)
N13_3 N 0.06905(19) 0.0663(4) 0.52739(11)
N14_3 N 0.5662(2) 0.0188(4) 0.58736(11)
Zn1_5 Zn 0.25044(3) 0.14559(5) 0.307439(15)
I1_5 I 0.197289(18) 0.29735(3) 0.299123(10)
I2_5 I 0.341937(18) 0.16188(4) 0.318773(11)
C1_5 C 0.1985(2) 0.0568(5) 0.25818(14)
H1_5 H 0.1708 0.0796 0.2687
C2_5 C 0.1912(2) 0.0195(5) 0.23084(14)
H2_5 H 0.1591 0.0153 0.2229
C5_5 C 0.2818(2) 0.0285(4) 0.25576(13)
H4_5 H 0.3133 0.0302 0.2647
C19_5 C 0.1013(3) 0.1054(5) 0.50871(14)
H13_5 H 0.1121 0.1703 0.5118
C20_5 C 0.1195(3) 0.0548(5) 0.48504(14)
H14_5 H 0.1425 0.0842 0.4723
C27_5 C 0.1734(3) 0.0644(5) 0.38485(14)
H19_5 H 0.1596 0.0991 0.4007
C28_5 C 0.1947(3) 0.1138(5) 0.36182(14)
H20_5 H 0.1950 0.1829 0.3621
N1_5 N 0.2431(2) 0.0624(4) 0.27055(11)
N8_5 N 0.2148(2) 0.0675(4) 0.33921(11)
H21_6 H 0.5716 0.0314 0.5449
Zn1_6 Zn 0.75044(3) 0.35441(5) 0.692561(15)
Zn3_4 Zn 0.95086(3) 0.64347(5) 0.935662(15)
I1_6 I 0.697289(18) 0.20265(3) 0.700877(10)
I2_6 I 0.841937(18) 0.33812(4) 0.681227(11)
I3_6 I 0.474295(19) 0.74234(3) 0.952619(10)
I4_6 I 0.419856(19) 0.72858(4) 0.861046(11)
I6_6 I 0.95903(2) 0.82050(3) 0.951566(11)
C1_6 C 0.6985(2) 0.4432(5) 0.74182(14)
H1_6 H 0.6708 0.4204 0.7313
C2_6 C 0.6912(2) 0.4805(5) 0.76916(14)
H2_6 H 0.6591 0.4847 0.7771
C3_6 C 0.7318(2) 0.5121(4) 0.78489(13)
C4_6 C 0.7779(2) 0.5087(4) 0.77175(13)
H3_6 H 0.8062 0.5318 0.7817
C5_6 C 0.7818(2) 0.4715(4) 0.74424(13)
H4_6 H 0.8133 0.4698 0.7353
C6_6 C 0.5725(2) 0.6147(5) 0.90570(14)
H5_6 H 0.5676 0.6222 0.9260
C7_6 C 0.6199(2) 0.6022(5) 0.89561(13)
H6_6 H 0.6470 0.6016 0.9086
C8_6 C 0.6271(2) 0.5907(4) 0.86605(13)
C9_6 C 0.5865(2) 0.5895(5) 0.84776(13)
H7_6 H 0.5903 0.5787 0.8276
C10_6 C 0.5403(2) 0.6043(5) 0.85968(13)
H8_6 H 0.5126 0.6058 0.8471
C11_6 C 0.8914(2) 0.6013(5) 0.88258(13)
H9_6 H 0.9232 0.5950 0.8743
C12_6 C 0.8508(2) 0.5870(4) 0.86509(13)
H10_6 H 0.8548 0.5716 0.8452
C13_6 C 0.8040(2) 0.5954(4) 0.87702(13)
C14_6 C 0.8000(3) 0.6185(5) 0.90594(14)
H11_6 H 0.7685 0.6243 0.9147
C15_6 C 0.8422(2) 0.6332(5) 0.92208(14)
H12_6 H 0.8391 0.6505 0.9419
C16_6 C 0.7261(2) 0.5437(4) 0.81553(12)
C17_6 C 0.6776(2) 0.5774(4) 0.85386(13)
C18_6 C 0.7598(2) 0.5809(4) 0.85861(13)
C19_6 C 0.6013(3) 0.3946(5) 0.49129(14)
H13_6 H 0.6121 0.3297 0.4882
C20_6 C 0.6195(3) 0.4452(5) 0.51496(14)
H14_6 H 0.6425 0.4158 0.5277
C21_6 C 0.6033(2) 0.5404(5) 0.51964(13)
C22_6 C 0.5695(2) 0.5804(5) 0.50059(13)
H15_6 H 0.5578 0.6448 0.5034
C23_6 C 0.5531(2) 0.5252(5) 0.47726(14)
H16_6 H 0.5299 0.5528 0.4642
C24_6 C 0.7131(3) 0.5300(5) 0.66159(15)
H17_6 H 0.7265 0.5628 0.6779
C25_6 C 0.6924(3) 0.5848(5) 0.63939(15)
H18_6 H 0.6917 0.6538 0.6405
C26_6 C 0.6727(2) 0.5370(4) 0.61558(13)
C27_6 C 0.6734(3) 0.4356(5) 0.61515(14)
H19_6 H 0.6596 0.4009 0.5993
C28_6 C 0.6947(3) 0.3862(5) 0.63818(14)
H20_6 H 0.6950 0.3171 0.6379
C29_6 C 0.5761(3) 0.9879(5) 0.56066(14)
C30_6 C 0.5930(3) 0.8937(5) 0.55496(14)
H22_6 H 0.5988 0.8727 0.5356
C31_6 C 0.6011(2) 0.8314(5) 0.57827(14)
C32_6 C 0.5916(3) 0.8648(5) 0.60601(14)
H23_6 H 0.5972 0.8240 0.6223
C33_6 C 0.5742(3) 0.9574(5) 0.60965(15)
H24_6 H 0.5674 0.9795 0.6287
C34_6 C 0.6201(2) 0.5946(5) 0.54580(13)
C35_6 C 0.6502(2) 0.5922(5) 0.59118(14)
C36_6 C 0.6173(2) 0.7297(5) 0.57351(14)
N1_6 N 0.7431(2) 0.4376(4) 0.72945(11)
N2_6 N 0.5329(2) 0.6167(4) 0.88820(12)
N3_6 N 0.88773(19) 0.6238(4) 0.91066(11)
N4_6 N 0.6804(2) 0.5530(4) 0.82578(11)
N5_6 N 0.7157(2) 0.5921(4) 0.87133(11)
N6_6 N 0.76726(19) 0.5577(4) 0.83087(11)
N7_3 N 0.56905(19) 0.4337(4) 0.47261(11)
N8_6 N 0.7148(2) 0.4325(4) 0.66079(11)
N10_6 N 0.6429(2) 0.5431(4) 0.56646(11)
N11_6 N 0.6382(2) 0.6844(4) 0.59597(11)
N12_6 N 0.6081(2) 0.6893(4) 0.54746(12)
Zn5_3 Zn 0.54914(3) 0.35653(5) 0.435662(15)
N13_4 N 0.93095(19) 0.5663(4) 0.97261(11)
Zn1_7 Zn 0.74956(3) 0.64559(5) 0.192561(15)
I1_7 I 0.802711(18) 0.79735(3) 0.200877(10)
I2_7 I 0.658063(18) 0.66188(4) 0.181227(11)
I5_5 I 0.482162(17) 0.44634(4) 0.408154(10)
I6_7 I 0.54097(2) 0.17950(3) 0.451566(11)
C1_7 C 0.8015(2) 0.5568(5) 0.24182(14)
H1_7 H 0.8292 0.5796 0.2313
C2_7 C 0.8088(2) 0.5195(5) 0.26916(14)
H2_7 H 0.8409 0.5153 0.2771
C3_7 C 0.7682(2) 0.4879(4) 0.28489(13)
C4_7 C 0.7221(2) 0.4913(4) 0.27175(13)
H3_7 H 0.6938 0.4682 0.2817
C5_7 C 0.7182(2) 0.5285(4) 0.24424(13)
H4_7 H 0.6867 0.5302 0.2353
C6_7 C 0.9275(2) 0.3853(5) 0.40570(14)
H5_7 H 0.9324 0.3778 0.4260
C7_7 C 0.8801(2) 0.3978(5) 0.39561(13)
H6_7 H 0.8530 0.3984 0.4086
C8_7 C 0.8729(2) 0.4093(4) 0.36605(13)
C9_7 C 0.9135(2) 0.4105(5) 0.34776(13)
H7_7 H 0.9097 0.4213 0.3276
C10_7 C 0.9597(2) 0.3957(5) 0.35968(13)
H8_7 H 0.9874 0.3942 0.3471
C11_7 C 0.6086(2) 0.3987(5) 0.38258(13)
H9_7 H 0.5768 0.4050 0.3743
C12_7 C 0.6492(2) 0.4130(4) 0.36509(13)
H10_7 H 0.6452 0.4284 0.3452
C13_7 C 0.6960(2) 0.4046(4) 0.37702(13)
C14_7 C 0.7000(3) 0.3815(5) 0.40594(14)
H11_7 H 0.7315 0.3757 0.4147
C15_7 C 0.6578(2) 0.3668(5) 0.42208(14)
H12_7 H 0.6609 0.3495 0.4419
C16_7 C 0.7739(2) 0.4563(4) 0.31553(12)
C17_7 C 0.8224(2) 0.4226(4) 0.35386(13)
C18_7 C 0.7402(2) 0.4191(4) 0.35861(13)
C20_7 C 0.8805(3) 0.5548(5) 0.01496(14)
H14_7 H 0.8575 0.5842 0.0277
C21_7 C 0.8967(2) 0.4596(5) 0.01964(13)
C22_7 C 0.9305(2) 0.4196(5) 0.00059(13)
H15_7 H 0.9422 0.3552 0.0034
C24_7 C 0.7869(3) 0.4700(5) 0.16159(15)
H17_7 H 0.7735 0.4372 0.1779
C25_7 C 0.8076(3) 0.4152(5) 0.13939(15)
H18_7 H 0.8083 0.3462 0.1405
C26_7 C 0.8273(2) 0.4630(4) 0.11558(13)
C27_7 C 0.8266(3) 0.5644(5) 0.11515(14)
H19_7 H 0.8404 0.5991 0.0993
C28_7 C 0.8053(3) 0.6138(5) 0.13818(14)
H20_7 H 0.8050 0.6829 0.1379
C29_7 C 0.9239(3) 0.0121(5) 0.06066(14)
C30_7 C 0.9070(3) 0.1063(5) 0.05496(14)
H22_7 H 0.9012 0.1273 0.0356
C31_7 C 0.8989(2) 0.1686(5) 0.07827(14)
C32_7 C 0.9084(3) 0.1352(5) 0.10601(14)
H23_7 H 0.9028 0.1760 0.1223
C33_7 C 0.9258(3) 0.0426(5) 0.10965(15)
H24_7 H 0.9326 0.0205 0.1287
C34_7 C 0.8799(2) 0.4054(5) 0.04580(13)
C35_7 C 0.8498(2) 0.4078(5) 0.09118(14)
C36_7 C 0.8827(2) 0.2703(5) 0.07351(14)
N1_7 N 0.7569(2) 0.5624(4) 0.22945(11)
N2_7 N 0.9671(2) 0.3833(4) 0.38820(12)
N3_7 N 0.61227(19) 0.3762(4) 0.41066(11)
N4_7 N 0.8196(2) 0.4470(4) 0.32578(11)
N5_7 N 0.7843(2) 0.4079(4) 0.37133(11)
N6_7 N 0.73274(19) 0.4423(4) 0.33087(11)
N8_7 N 0.7852(2) 0.5675(4) 0.16079(11)
N10_7 N 0.8571(2) 0.4569(4) 0.06646(11)
N11_7 N 0.8618(2) 0.3156(4) 0.09597(11)
N12_7 N 0.8919(2) 0.3107(4) 0.04746(12)
C19_7 C 0.8987(3) 0.6054(5) 0.99129(14)
H13_7 H 0.8879 0.6703 0.9882
C23_7 C 0.9469(2) 0.4748(5) 0.97726(14)
H16_7 H 0.9701 0.4472 0.9642
C19_8 C 0.3987(3) 0.8946(5) 0.00871(14)
H13_8 H 0.3879 0.8297 0.0118
N7_4 N 0.43095(19) 0.9337(4) 0.02739(11)
Zn5_4 Zn 0.45086(3) 0.85653(5) 0.064338(15)
I5_6 I 0.517838(17) 0.94634(4) 0.091846(10)
I6_8 I 0.45903(2) 0.67950(3) 0.048434(11)
C3_8 C 0.2318(2) 0.9879(4) 0.21511(13)
C4_8 C 0.2779(2) 0.9913(4) 0.22825(13)
H3_8 H 0.3062 0.9682 0.2183
C6_8 C 0.0725(2) 0.8853(5) 0.09430(14)
H5_8 H 0.0676 0.8778 0.0740
C7_8 C 0.1199(2) 0.8978(5) 0.10439(13)
H6_8 H 0.1470 0.8984 0.0914
C8_8 C 0.1271(2) 0.9093(4) 0.13395(13)
C9_8 C 0.0865(2) 0.9105(5) 0.15224(13)
H7_8 H 0.0903 0.9213 0.1724
C10_8 C 0.0403(2) 0.8957(5) 0.14032(13)
H8_8 H 0.0126 0.8942 0.1529
C11_8 C 0.3914(2) 0.8987(5) 0.11742(13)
H9_8 H 0.4232 0.9050 0.1257
C12_8 C 0.3508(2) 0.9130(4) 0.13491(13)
H10_8 H 0.3548 0.9284 0.1548
C13_8 C 0.3040(2) 0.9046(4) 0.12298(13)
C14_8 C 0.3000(3) 0.8815(5) 0.09406(14)
H11_8 H 0.2685 0.8757 0.0853
C15_8 C 0.3422(2) 0.8668(5) 0.07792(14)
H12_8 H 0.3391 0.8495 0.0581
C16_8 C 0.2261(2) 0.9563(4) 0.18447(12)
C17_8 C 0.1776(2) 0.9226(4) 0.14614(13)
C18_8 C 0.2598(2) 0.9191(4) 0.14139(13)
C21_8 C 0.1033(2) 0.9596(5) 0.48036(13)
C22_8 C 0.0695(2) 0.9196(5) 0.49941(13)
H15_8 H 0.0578 0.8552 0.4966
C23_8 C 0.0531(2) 0.9748(5) 0.52274(14)
H16_8 H 0.0299 0.9472 0.5358
C24_8 C 0.2131(3) 0.9700(5) 0.33841(15)
H17_8 H 0.2265 0.9372 0.3221
C25_8 C 0.1924(3) 0.9152(5) 0.36061(15)
H18_8 H 0.1917 0.8462 0.3595
C26_8 C 0.1727(2) 0.9630(4) 0.38442(13)
C29_8 C 0.0761(3) 0.5121(5) 0.43934(14)
H21_7 H 0.0716 0.4686 0.4551
C30_8 C 0.0930(3) 0.6063(5) 0.44504(14)
H22_8 H 0.0988 0.6273 0.4644
C31_8 C 0.1011(2) 0.6686(5) 0.42173(14)
C32_8 C 0.0916(3) 0.6352(5) 0.39399(14)
H23_8 H 0.0972 0.6760 0.3777
C33_8 C 0.0742(3) 0.5426(5) 0.39035(15)
H24_8 H 0.0674 0.5205 0.3713
C34_8 C 0.1201(2) 0.9054(5) 0.45420(13)
C35_8 C 0.1502(2) 0.9078(5) 0.40882(14)
C36_8 C 0.1173(2) 0.7703(5) 0.42649(14)
N2_8 N 0.0329(2) 0.8833(4) 0.11180(12)
N3_8 N 0.38773(19) 0.8762(4) 0.08934(11)
N4_8 N 0.1804(2) 0.9470(4) 0.17422(11)
N5_8 N 0.2157(2) 0.9079(4) 0.12867(11)
N6_8 N 0.26726(19) 0.9423(4) 0.16913(11)
N9_4 N 0.0662(2) 0.4812(4) 0.41264(11)
N10_8 N 0.1429(2) 0.9569(4) 0.43354(11)
N11_8 N 0.1382(2) 0.8156(4) 0.40403(11)
N12_8 N 0.1081(2) 0.8107(4) 0.45254(12)
Zn4_4 Zn 0.03571(3) 0.34555(5) 0.404304(16)
I3_7 I 0.025705(19) 0.25766(3) 0.452619(10)
I4_7 I 0.080144(19) 0.27142(4) 0.361046(11)
Zn1_8 Zn 0.24956(3) 0.85441(5) 0.807439(15)
I1_8 I 0.302711(18) 0.70265(3) 0.799123(10)
I2_8 I 0.158063(18) 0.83812(4) 0.818773(11)
C1_8 C 0.3015(2) 0.9432(5) 0.75818(14)
H1_8 H 0.3292 0.9204 0.7687
C2_8 C 0.3088(2) 0.9805(5) 0.73084(14)
H2_8 H 0.3409 0.9847 0.7229
C5_8 C 0.2182(2) 0.9715(4) 0.75576(13)
H4_8 H 0.1867 0.9698 0.7647
C20_8 C 0.3805(3) 0.9452(5) 0.98504(14)
H14_8 H 0.3575 0.9158 0.9723
C27_8 C 0.3266(3) 0.9356(5) 0.88485(14)
H19_8 H 0.3404 0.9009 0.9007
C28_8 C 0.3053(3) 0.8862(5) 0.86182(14)
H20_8 H 0.3050 0.8171 0.8621
N1_8 N 0.2569(2) 0.9376(4) 0.77055(11)
N8_8 N 0.2852(2) 0.9325(4) 0.83921(11)
I5_7 I 0.982162(17) 0.05366(4) 0.591846(10)
Zn2_4 Zn 0.96429(3) 0.84555(5) 0.095696(16)
I3_8 I 0.974295(19) 0.75766(3) 0.047381(10)
I4_8 I 0.919856(19) 0.77142(4) 0.138954(11)
N14_4 N 0.9338(2) 0.9812(4) 0.08736(11)
H21_8 H 0.9284 0.9686 0.0449
I5_8 I 0.017838(17) 0.55366(4) 0.908154(10)
loop_
_geom_bond_atom_site_label_1
_geom_bond_atom_site_label_2
_geom_bond_site_symmetry_1
_geom_bond_site_symmetry_2
Zn1 I1 1_555 1_555
I2 Zn1 1_555 1_555
C1 H1 1_555 1_555
C2 C1 1_555 1_555
H2 C2 1_555 1_555
H4 C5 1_555 1_555
H14 C20 1_555 1_555
H19 C27 1_555 1_555
C28 C27 1_555 1_555
H20 C28 1_555 1_555
N1 Zn1 1_555 1_555
N8 Zn1 1_555 1_555
C1 N1 1_555 1_555
C5 N1 1_555 1_555
C28 N8 1_555 1_555
C19 H13 1_555 1_555
N7 C19 1_555 1_555
Zn5 N7 1_555 1_555
Zn5 I5_2 1_555 1_555
I6 Zn5 1_555 1_555
C4 C3 1_555 1_555
H3 C4 1_555 1_555
C6 H5 1_555 1_555
C7 C6 1_555 1_555
H6 C7 1_555 1_555
C8 C7 1_555 1_555
C9 C8 1_555 1_555
H7 C9 1_555 1_555
C10 C9 1_555 1_555
H8 C10 1_555 1_555
C11 H9 1_555 1_555
C12 C11 1_555 1_555
H10 C12 1_555 1_555
C13 C12 1_555 1_555
C14 C13 1_555 1_555
H11 C14 1_555 1_555
C15 C14 1_555 1_555
H12 C15 1_555 1_555
C16 C3 1_555 1_555
C17 C8 1_555 1_555
C18 C13 1_555 1_555
C22 C21 1_555 1_555
H15 C22 1_555 1_555
C23 C22 1_555 1_555
H16 C23 1_555 1_555
C24 H17 1_555 1_555
C25 C24 1_555 1_555
H18 C25 1_555 1_555
C26 C25 1_555 1_555
C29 H21 1_555 1_555
C30 C29 1_555 1_555
H22 C30 1_555 1_555
C31 C30 1_555 1_555
C32 C31 1_555 1_555
H23 C32 1_555 1_555
C33 C32 1_555 1_555
H24 C33 1_555 1_555
C34 C21 1_555 1_555
C35 C26 1_555 1_555
C36 C31 1_555 1_555
N3 Zn5 1_555 1_555
N4 C16 1_555 1_555
N5 C17 1_555 1_555
N6 C16 1_555 1_555
N9 C29 1_555 1_555
N10 C34 1_555 1_555
N11 C35 1_555 1_555
N12 C34 1_555 1_555
Zn4 N9 1_555 1_555
C6 N2 1_555 1_555
C10 N2 1_555 1_555
C11 N3 1_555 1_555
C15 N3 1_555 1_555
C17 N4 1_555 1_555
C18 N5 1_555 1_555
C18 N6 1_555 1_555
C33 N9 1_555 1_555
C35 N10 1_555 1_555
C36 N11 1_555 1_555
C36 N12 1_555 1_555
Zn4 I3 1_555 1_555
I4 Zn4 1_555 1_555
Zn2 I3_2 1_555 1_555
I4_2 Zn2 1_555 1_555
I6_2 Zn3 1_555 1_555
C4_2 C3_2 1_555 1_555
H3_2 C4_2 1_555 1_555
C6_2 H5_2 1_555 1_555
C7_2 C6_2 1_555 1_555
H6_2 C7_2 1_555 1_555
C8_2 C7_2 1_555 1_555
C9_2 C8_2 1_555 1_555
H7_2 C9_2 1_555 1_555
C10_2 C9_2 1_555 1_555
H8_2 C10_2 1_555 1_555
C11_2 H9_2 1_555 1_555
C12_2 C11_2 1_555 1_555
H10_2 C12_2 1_555 1_555
C13_2 C12_2 1_555 1_555
C14_2 C13_2 1_555 1_555
H11_2 C14_2 1_555 1_555
C15_2 C14_2 1_555 1_555
H12_2 C15_2 1_555 1_555
C16_2 C3_2 1_555 1_555
C17_2 C8_2 1_555 1_555
C18_2 C13_2 1_555 1_555
C22_2 C21_2 1_555 1_555
H15_2 C22_2 1_555 1_555
C24_2 H17_2 1_555 1_555
C25_2 C24_2 1_555 1_555
H18_2 C25_2 1_555 1_555
C26_2 C25_2 1_555 1_555
C29_2 H21_2 1_555 1_555
C30_2 C29_2 1_555 1_555
H22_2 C30_2 1_555 1_555
C31_2 C30_2 1_555 1_555
C32_2 C31_2 1_555 1_555
H23_2 C32_2 1_555 1_555
C33_2 C32_2 1_555 1_555
H24_2 C33_2 1_555 1_555
C34_2 C21_2 1_555 1_555
C35_2 C26_2 1_555 1_555
C36_2 C31_2 1_555 1_555
N2_2 Zn2 1_555 1_555
N3_2 Zn3 1_555 1_555
N4_2 C16_2 1_555 1_555
N5_2 C17_2 1_555 1_555
N6_2 C16_2 1_555 1_555
N9_2 C29_2 1_555 1_555
N10_2 C34_2 1_555 1_555
N11_2 C35_2 1_555 1_555
N12_2 C34_2 1_555 1_555
Zn4_2 N9_2 1_555 1_555
N13 Zn3 1_555 1_555
N14 Zn2 1_555 1_555
C6_2 N2_2 1_555 1_555
C10_2 N2_2 1_555 1_555
C11_2 N3_2 1_555 1_555
C15_2 N3_2 1_555 1_555
C17_2 N4_2 1_555 1_555
C18_2 N5_2 1_555 1_555
C18_2 N6_2 1_555 1_555
C33_2 N9_2 1_555 1_555
C35_2 N10_2 1_555 1_555
C36_2 N11_2 1_555 1_555
C36_2 N12_2 1_555 1_555
Zn1_2 I1_2 1_555 1_555
I2_2 Zn1_2 1_555 1_555
C1_2 H1_2 1_555 1_555
C2_2 C1_2 1_555 1_555
H2_2 C2_2 1_555 1_555
H4_2 C5_2 1_555 1_555
C19_2 H13_2 1_555 1_555
C20_2 C19_2 1_555 1_555
H14_2 C20_2 1_555 1_555
H19_2 C27_2 1_555 1_555
C28_2 C27_2 1_555 1_555
H20_2 C28_2 1_555 1_555
N1_2 Zn1_2 1_555 1_555
N13 C19_2 1_555 1_555
N8_2 Zn1_2 1_555 1_555
C1_2 N1_2 1_555 1_555
C5_2 N1_2 1_555 1_555
C28_2 N8_2 1_555 1_555
Zn1_3 I1_3 1_555 1_555
Zn4_2 I3_3 1_555 1_555
I2_3 Zn1_3 1_555 1_555
I4_3 Zn4_2 1_555 1_555
I6_3 Zn3_2 1_555 1_555
C1_3 H1_3 1_555 1_555
C2_3 C1_3 1_555 1_555
H2_3 C2_3 1_555 1_555
C3_3 C2_3 1_555 1_555
C4_3 C3_3 1_555 1_555
H3_3 C4_3 1_555 1_555
C5_3 C4_3 1_555 1_555
H4_3 C5_3 1_555 1_555
C6_3 H5_3 1_555 1_555
C7_3 C6_3 1_555 1_555
H6_3 C7_3 1_555 1_555
C8_3 C7_3 1_555 1_555
C9_3 C8_3 1_555 1_555
H7_3 C9_3 1_555 1_555
C10_3 C9_3 1_555 1_555
H8_3 C10_3 1_555 1_555
C11_3 H9_3 1_555 1_555
C12_3 C11_3 1_555 1_555
H10_3 C12_3 1_555 1_555
C13_3 C12_3 1_555 1_555
C14_3 C13_3 1_555 1_555
H11_3 C14_3 1_555 1_555
C15_3 C14_3 1_555 1_555
H12_3 C15_3 1_555 1_555
C16_3 C3_3 1_555 1_555
C17_3 C8_3 1_555 1_555
C18_3 C13_3 1_555 1_555
C19_3 H13_3 1_555 1_555
C20_3 C19_3 1_555 1_555
H14_3 C20_3 1_555 1_555
C21_3 C20_3 1_555 1_555
C22_3 C21_3 1_555 1_555
H15_3 C22_3 1_555 1_555
C23_2 C22_3 1_555 1_555
H16_2 C23_2 1_555 1_555
C24_3 H17_3 1_555 1_555
C25_3 C24_3 1_555 1_555
H18_3 C25_3 1_555 1_555
C26_3 C25_3 1_555 1_555
C27_3 C26_3 1_555 1_555
H19_3 C27_3 1_555 1_555
C28_3 C27_3 1_555 1_555
H20_3 C28_3 1_555 1_555
C30_3 C29_3 1_555 1_555
H22_3 C30_3 1_555 1_555
C31_3 C30_3 1_555 1_555
C32_3 C31_3 1_555 1_555
H23_3 C32_3 1_555 1_555
C33_3 C32_3 1_555 1_555
H24_3 C33_3 1_555 1_555
C34_3 C21_3 1_555 1_555
C35_3 C26_3 1_555 1_555
C36_3 C31_3 1_555 1_555
N1_3 Zn1_3 1_555 1_555
N2_3 Zn4_2 1_555 1_555
N3_3 Zn3_2 1_555 1_555
N4_3 C16_3 1_555 1_555
N5_3 C17_3 1_555 1_555
N6_3 C16_3 1_555 1_555
N7_2 C19_3 1_555 1_555
N8_3 Zn1_3 1_555 1_555
N10_3 C34_3 1_555 1_555
N11_3 C35_3 1_555 1_555
N12_3 C34_3 1_555 1_555
Zn5_2 N7_2 1_555 1_555
N13_2 Zn3_2 1_555 1_555
C1_3 N1_3 1_555 1_555
C5_3 N1_3 1_555 1_555
C6_3 N2_3 1_555 1_555
C10_3 N2_3 1_555 1_555
C11_3 N3_3 1_555 1_555
C15_3 N3_3 1_555 1_555
C17_3 N4_3 1_555 1_555
C18_3 N5_3 1_555 1_555
C18_3 N6_3 1_555 1_555
C23_2 N7_2 1_555 1_555
C24_3 N8_3 1_555 1_555
C28_3 N8_3 1_555 1_555
C35_3 N10_3 1_555 1_555
C36_3 N11_3 1_555 1_555
C36_3 N12_3 1_555 1_555
C19_4 H13_4 1_555 1_555
H16_3 C23_3 1_555 1_555
N13_2 C19_4 1_555 1_555
C23_3 N13_2 1_555 1_555
Zn1_4 I1_4 1_555 1_555
Zn5_2 I5_3 1_555 1_555
I2_4 Zn1_4 1_555 1_555
I6_4 Zn5_2 1_555 1_555
C1_4 H1_4 1_555 1_555
C2_4 C1_4 1_555 1_555
H2_4 C2_4 1_555 1_555
C3_4 C2_4 1_555 1_555
C4_4 C3_4 1_555 1_555
H3_4 C4_4 1_555 1_555
C5_4 C4_4 1_555 1_555
H4_4 C5_4 1_555 1_555
C6_4 H5_4 1_555 1_555
C7_4 C6_4 1_555 1_555
H6_4 C7_4 1_555 1_555
C8_4 C7_4 1_555 1_555
C9_4 C8_4 1_555 1_555
H7_4 C9_4 1_555 1_555
C10_4 C9_4 1_555 1_555
H8_4 C10_4 1_555 1_555
C11_4 H9_4 1_555 1_555
C12_4 C11_4 1_555 1_555
H10_4 C12_4 1_555 1_555
C13_4 C12_4 1_555 1_555
C14_4 C13_4 1_555 1_555
H11_4 C14_4 1_555 1_555
C15_4 C14_4 1_555 1_555
H12_4 C15_4 1_555 1_555
C16_4 C3_4 1_555 1_555
C17_4 C8_4 1_555 1_555
C18_4 C13_4 1_555 1_555
H14_4 C20_4 1_555 1_555
C21_4 C20_4 1_555 1_555
C22_4 C21_4 1_555 1_555
H15_4 C22_4 1_555 1_555
C24_4 H17_4 1_555 1_555
C25_4 C24_4 1_555 1_555
H18_4 C25_4 1_555 1_555
C26_4 C25_4 1_555 1_555
C27_4 C26_4 1_555 1_555
H19_4 C27_4 1_555 1_555
C28_4 C27_4 1_555 1_555
H20_4 C28_4 1_555 1_555
C30_4 C29_4 1_555 1_555
H22_4 C30_4 1_555 1_555
C31_4 C30_4 1_555 1_555
C32_4 C31_4 1_555 1_555
H23_4 C32_4 1_555 1_555
C33_4 C32_4 1_555 1_555
H24_4 C33_4 1_555 1_555
C34_4 C21_4 1_555 1_555
C35_4 C26_4 1_555 1_555
C36_4 C31_4 1_555 1_555
N1_4 Zn1_4 1_555 1_555
N3_4 Zn5_2 1_555 1_555
N4_4 C16_4 1_555 1_555
N5_4 C17_4 1_555 1_555
N6_4 C16_4 1_555 1_555
N8_4 Zn1_4 1_555 1_555
N10_4 C34_4 1_555 1_555
N11_4 C35_4 1_555 1_555
N12_4 C34_4 1_555 1_555
C1_4 N1_4 1_555 1_555
C5_4 N1_4 1_555 1_555
C6_4 N2_4 1_555 1_555
C10_4 N2_4 1_555 1_555
C11_4 N3_4 1_555 1_555
C15_4 N3_4 1_555 1_555
C17_4 N4_4 1_555 1_555
C18_4 N5_4 1_555 1_555
C18_4 N6_4 1_555 1_555
C24_4 N8_4 1_555 1_555
C28_4 N8_4 1_555 1_555
C35_4 N10_4 1_555 1_555
C36_4 N11_4 1_555 1_555
C36_4 N12_4 1_555 1_555
H16_4 C23_4 1_555 1_555
Zn2_2 I3_4 1_555 1_555
I4_4 Zn2_2 1_555 1_555
N14_2 Zn2_2 1_555 1_555
H16_5 C23_5 1_555 1_555
Zn2_3 I3_5 1_555 1_555
I4_5 Zn2_3 1_555 1_555
I6_5 Zn3_3 1_555 1_555
C4_5 C3_5 1_555 1_555
H3_5 C4_5 1_555 1_555
C6_5 H5_5 1_555 1_555
C7_5 C6_5 1_555 1_555
H6_5 C7_5 1_555 1_555
C8_5 C7_5 1_555 1_555
C9_5 C8_5 1_555 1_555
H7_5 C9_5 1_555 1_555
C10_5 C9_5 1_555 1_555
H8_5 C10_5 1_555 1_555
C11_5 H9_5 1_555 1_555
C12_5 C11_5 1_555 1_555
H10_5 C12_5 1_555 1_555
C13_5 C12_5 1_555 1_555
C14_5 C13_5 1_555 1_555
H11_5 C14_5 1_555 1_555
C15_5 C14_5 1_555 1_555
H12_5 C15_5 1_555 1_555
C16_5 C3_5 1_555 1_555
C17_5 C8_5 1_555 1_555
C18_5 C13_5 1_555 1_555
C22_5 C21_5 1_555 1_555
H15_5 C22_5 1_555 1_555
C24_5 H17_5 1_555 1_555
C25_5 C24_5 1_555 1_555
H18_5 C25_5 1_555 1_555
C26_5 C25_5 1_555 1_555
C29_5 H21_5 1_555 1_555
C30_5 C29_5 1_555 1_555
H22_5 C30_5 1_555 1_555
C31_5 C30_5 1_555 1_555
C32_5 C31_5 1_555 1_555
H23_5 C32_5 1_555 1_555
C33_5 C32_5 1_555 1_555
H24_5 C33_5 1_555 1_555
C34_5 C21_5 1_555 1_555
C35_5 C26_5 1_555 1_555
C36_5 C31_5 1_555 1_555
N2_5 Zn2_3 1_555 1_555
N3_5 Zn3_3 1_555 1_555
N4_5 C16_5 1_555 1_555
N5_5 C17_5 1_555 1_555
N6_5 C16_5 1_555 1_555
N9_3 C29_5 1_555 1_555
N10_5 C34_5 1_555 1_555
N11_5 C35_5 1_555 1_555
N12_5 C34_5 1_555 1_555
Zn4_3 N9_3 1_555 1_555
N13_3 Zn3_3 1_555 1_555
N14_3 Zn2_3 1_555 1_555
C6_5 N2_5 1_555 1_555
C10_5 N2_5 1_555 1_555
C11_5 N3_5 1_555 1_555
C15_5 N3_5 1_555 1_555
C17_5 N4_5 1_555 1_555
C18_5 N5_5 1_555 1_555
C18_5 N6_5 1_555 1_555
C33_5 N9_3 1_555 1_555
C35_5 N10_5 1_555 1_555
C36_5 N11_5 1_555 1_555
C36_5 N12_5 1_555 1_555
Zn1_5 I1_5 1_555 1_555
I2_5 Zn1_5 1_555 1_555
C1_5 H1_5 1_555 1_555
C2_5 C1_5 1_555 1_555
H2_5 C2_5 1_555 1_555
H4_5 C5_5 1_555 1_555
C19_5 H13_5 1_555 1_555
C20_5 C19_5 1_555 1_555
H14_5 C20_5 1_555 1_555
H19_5 C27_5 1_555 1_555
C28_5 C27_5 1_555 1_555
H20_5 C28_5 1_555 1_555
N1_5 Zn1_5 1_555 1_555
N13_3 C19_5 1_555 1_555
N8_5 Zn1_5 1_555 1_555
C1_5 N1_5 1_555 1_555
C5_5 N1_5 1_555 1_555
C28_5 N8_5 1_555 1_555
Zn1_6 I1_6 1_555 1_555
Zn4_3 I3_6 1_555 1_555
I2_6 Zn1_6 1_555 1_555
I4_6 Zn4_3 1_555 1_555
I6_6 Zn3_4 1_555 1_555
C1_6 H1_6 1_555 1_555
C2_6 C1_6 1_555 1_555
H2_6 C2_6 1_555 1_555
C3_6 C2_6 1_555 1_555
C4_6 C3_6 1_555 1_555
H3_6 C4_6 1_555 1_555
C5_6 C4_6 1_555 1_555
H4_6 C5_6 1_555 1_555
C6_6 H5_6 1_555 1_555
C7_6 C6_6 1_555 1_555
H6_6 C7_6 1_555 1_555
C8_6 C7_6 1_555 1_555
C9_6 C8_6 1_555 1_555
H7_6 C9_6 1_555 1_555
C10_6 C9_6 1_555 1_555
H8_6 C10_6 1_555 1_555
C11_6 H9_6 1_555 1_555
C12_6 C11_6 1_555 1_555
H10_6 C12_6 1_555 1_555
C13_6 C12_6 1_555 1_555
C14_6 C13_6 1_555 1_555
H11_6 C14_6 1_555 1_555
C15_6 C14_6 1_555 1_555
H12_6 C15_6 1_555 1_555
C16_6 C3_6 1_555 1_555
C17_6 C8_6 1_555 1_555
C18_6 C13_6 1_555 1_555
C19_6 H13_6 1_555 1_555
C20_6 C19_6 1_555 1_555
H14_6 C20_6 1_555 1_555
C21_6 C20_6 1_555 1_555
C22_6 C21_6 1_555 1_555
H15_6 C22_6 1_555 1_555
C23_6 C22_6 1_555 1_555
H16_6 C23_6 1_555 1_555
C24_6 H17_6 1_555 1_555
C25_6 C24_6 1_555 1_555
H18_6 C25_6 1_555 1_555
C26_6 C25_6 1_555 1_555
C27_6 C26_6 1_555 1_555
H19_6 C27_6 1_555 1_555
C28_6 C27_6 1_555 1_555
H20_6 C28_6 1_555 1_555
C30_6 C29_6 1_555 1_555
H22_6 C30_6 1_555 1_555
C31_6 C30_6 1_555 1_555
C32_6 C31_6 1_555 1_555
H23_6 C32_6 1_555 1_555
C33_6 C32_6 1_555 1_555
H24_6 C33_6 1_555 1_555
C34_6 C21_6 1_555 1_555
C35_6 C26_6 1_555 1_555
C36_6 C31_6 1_555 1_555
N1_6 Zn1_6 1_555 1_555
N2_6 Zn4_3 1_555 1_555
N3_6 Zn3_4 1_555 1_555
N4_6 C16_6 1_555 1_555
N5_6 C17_6 1_555 1_555
N6_6 C16_6 1_555 1_555
N7_3 C19_6 1_555 1_555
N8_6 Zn1_6 1_555 1_555
N10_6 C34_6 1_555 1_555
N11_6 C35_6 1_555 1_555
N12_6 C34_6 1_555 1_555
Zn5_3 N7_3 1_555 1_555
N13_4 Zn3_4 1_555 1_555
C1_6 N1_6 1_555 1_555
C5_6 N1_6 1_555 1_555
C6_6 N2_6 1_555 1_555
C10_6 N2_6 1_555 1_555
C11_6 N3_6 1_555 1_555
C15_6 N3_6 1_555 1_555
C17_6 N4_6 1_555 1_555
C18_6 N5_6 1_555 1_555
C18_6 N6_6 1_555 1_555
C23_6 N7_3 1_555 1_555
C24_6 N8_6 1_555 1_555
C28_6 N8_6 1_555 1_555
C35_6 N10_6 1_555 1_555
C36_6 N11_6 1_555 1_555
C36_6 N12_6 1_555 1_555
Zn1_7 I1_7 1_555 1_555
Zn5_3 I5_5 1_555 1_555
I2_7 Zn1_7 1_555 1_555
I6_7 Zn5_3 1_555 1_555
C1_7 H1_7 1_555 1_555
C2_7 C1_7 1_555 1_555
H2_7 C2_7 1_555 1_555
C3_7 C2_7 1_555 1_555
C4_7 C3_7 1_555 1_555
H3_7 C4_7 1_555 1_555
C5_7 C4_7 1_555 1_555
H4_7 C5_7 1_555 1_555
C6_7 H5_7 1_555 1_555
C7_7 C6_7 1_555 1_555
H6_7 C7_7 1_555 1_555
C8_7 C7_7 1_555 1_555
C9_7 C8_7 1_555 1_555
H7_7 C9_7 1_555 1_555
C10_7 C9_7 1_555 1_555
H8_7 C10_7 1_555 1_555
C11_7 H9_7 1_555 1_555
C12_7 C11_7 1_555 1_555
H10_7 C12_7 1_555 1_555
C13_7 C12_7 1_555 1_555
C14_7 C13_7 1_555 1_555
H11_7 C14_7 1_555 1_555
C15_7 C14_7 1_555 1_555
H12_7 C15_7 1_555 1_555
C16_7 C3_7 1_555 1_555
C17_7 C8_7 1_555 1_555
C18_7 C13_7 1_555 1_555
H14_7 C20_7 1_555 1_555
C21_7 C20_7 1_555 1_555
C22_7 C21_7 1_555 1_555
H15_7 C22_7 1_555 1_555
C24_7 H17_7 1_555 1_555
C25_7 C24_7 1_555 1_555
H18_7 C25_7 1_555 1_555
C26_7 C25_7 1_555 1_555
C27_7 C26_7 1_555 1_555
H19_7 C27_7 1_555 1_555
C28_7 C27_7 1_555 1_555
H20_7 C28_7 1_555 1_555
C30_7 C29_7 1_555 1_555
H22_7 C30_7 1_555 1_555
C31_7 C30_7 1_555 1_555
C32_7 C31_7 1_555 1_555
H23_7 C32_7 1_555 1_555
C33_7 C32_7 1_555 1_555
H24_7 C33_7 1_555 1_555
C34_7 C21_7 1_555 1_555
C35_7 C26_7 1_555 1_555
C36_7 C31_7 1_555 1_555
N1_7 Zn1_7 1_555 1_555
N3_7 Zn5_3 1_555 1_555
N4_7 C16_7 1_555 1_555
N5_7 C17_7 1_555 1_555
N6_7 C16_7 1_555 1_555
N8_7 Zn1_7 1_555 1_555
N10_7 C34_7 1_555 1_555
N11_7 C35_7 1_555 1_555
N12_7 C34_7 1_555 1_555
C1_7 N1_7 1_555 1_555
C5_7 N1_7 1_555 1_555
C6_7 N2_7 1_555 1_555
C10_7 N2_7 1_555 1_555
C11_7 N3_7 1_555 1_555
C15_7 N3_7 1_555 1_555
C17_7 N4_7 1_555 1_555
C18_7 N5_7 1_555 1_555
C18_7 N6_7 1_555 1_555
C24_7 N8_7 1_555 1_555
C28_7 N8_7 1_555 1_555
C35_7 N10_7 1_555 1_555
C36_7 N11_7 1_555 1_555
C36_7 N12_7 1_555 1_555
C19_7 H13_7 1_555 1_555
H16_7 C23_7 1_555 1_555
N13_4 C19_7 1_555 1_555
C23_7 N13_4 1_555 1_555
C19_8 H13_8 1_555 1_555
N7_4 C19_8 1_555 1_555
Zn5_4 N7_4 1_555 1_555
Zn5_4 I5_6 1_555 1_555
I6_8 Zn5_4 1_555 1_555
C4_8 C3_8 1_555 1_555
H3_8 C4_8 1_555 1_555
C6_8 H5_8 1_555 1_555
C7_8 C6_8 1_555 1_555
H6_8 C7_8 1_555 1_555
C8_8 C7_8 1_555 1_555
C9_8 C8_8 1_555 1_555
H7_8 C9_8 1_555 1_555
C10_8 C9_8 1_555 1_555
H8_8 C10_8 1_555 1_555
C11_8 H9_8 1_555 1_555
C12_8 C11_8 1_555 1_555
H10_8 C12_8 1_555 1_555
C13_8 C12_8 1_555 1_555
C14_8 C13_8 1_555 1_555
H11_8 C14_8 1_555 1_555
C15_8 C14_8 1_555 1_555
H12_8 C15_8 1_555 1_555
C16_8 C3_8 1_555 1_555
C17_8 C8_8 1_555 1_555
C18_8 C13_8 1_555 1_555
C22_8 C21_8 1_555 1_555
H15_8 C22_8 1_555 1_555
C23_8 C22_8 1_555 1_555
H16_8 C23_8 1_555 1_555
C24_8 H17_8 1_555 1_555
C25_8 C24_8 1_555 1_555
H18_8 C25_8 1_555 1_555
C26_8 C25_8 1_555 1_555
C29_8 H21_7 1_555 1_555
C30_8 C29_8 1_555 1_555
H22_8 C30_8 1_555 1_555
C31_8 C30_8 1_555 1_555
C32_8 C31_8 1_555 1_555
H23_8 C32_8 1_555 1_555
C33_8 C32_8 1_555 1_555
H24_8 C33_8 1_555 1_555
C34_8 C21_8 1_555 1_555
C35_8 C26_8 1_555 1_555
C36_8 C31_8 1_555 1_555
N3_8 Zn5_4 1_555 1_555
N4_8 C16_8 1_555 1_555
N5_8 C17_8 1_555 1_555
N6_8 C16_8 1_555 1_555
N9_4 C29_8 1_555 1_555
N10_8 C34_8 1_555 1_555
N11_8 C35_8 1_555 1_555
N12_8 C34_8 1_555 1_555
Zn4_4 N9_4 1_555 1_555
C6_8 N2_8 1_555 1_555
C10_8 N2_8 1_555 1_555
C11_8 N3_8 1_555 1_555
C15_8 N3_8 1_555 1_555
C17_8 N4_8 1_555 1_555
C18_8 N5_8 1_555 1_555
C18_8 N6_8 1_555 1_555
C33_8 N9_4 1_555 1_555
C35_8 N10_8 1_555 1_555
C36_8 N11_8 1_555 1_555
C36_8 N12_8 1_555 1_555
Zn4_4 I3_7 1_555 1_555
I4_7 Zn4_4 1_555 1_555
Zn1_8 I1_8 1_555 1_555
I2_8 Zn1_8 1_555 1_555
C1_8 H1_8 1_555 1_555
C2_8 C1_8 1_555 1_555
H2_8 C2_8 1_555 1_555
H4_8 C5_8 1_555 1_555
H14_8 C20_8 1_555 1_555
H19_8 C27_8 1_555 1_555
C28_8 C27_8 1_555 1_555
H20_8 C28_8 1_555 1_555
N1_8 Zn1_8 1_555 1_555
N8_8 Zn1_8 1_555 1_555
C1_8 N1_8 1_555 1_555
C5_8 N1_8 1_555 1_555
C28_8 N8_8 1_555 1_555
Zn2_4 I3_8 1_555 1_555
I4_8 Zn2_4 1_555 1_555
N14_4 Zn2_4 1_555 1_555

#END
