
###############################################################################
#
# This file contains modified crystal structure data generated from the
# MOF subset of the Cambridge Structural Database (CSD) v543 
# hosted by the Cambridge Crystallographic Data Centre (CCDC).
#
# This work is licensed under the Creative Commons
# Attribution-NonCommercial-ShareAlike 4.0 International License.
# To view a copy of this license, visit
# http://creativecommons.org/licenses/by-nc-sa/4.0/
# or send a letter to
# Creative Commons, PO Box 1866, Mountain View, CA 94042, USA.
#
# CIF created using the CSD Python API on 29 September 2022
# The structure has been converted into the P1 space group
# The structure has a 3D framework
# The original CSD entry UCOJIH is in the orthorhombic crystal system
# The framework has been calculated to contain at least 10.0% void space
# The void calculation uses a probe of radius 1.32A, grid spacing 0.4
#
###############################################################################

data_UCOJIH
_chemical_formula_moiety         '(C288 H192 I48 N96 Zn24)n'
_symmetry_cell_setting           triclinic
_symmetry_space_group_name_H-M   'P 1'
_symmetry_Int_Tables_number      1
_space_group_name_Hall           'P 1'
loop_
_symmetry_equiv_pos_site_id
_symmetry_equiv_pos_as_xyz
1 x,y,z
_cell_length_a                   28.147(3)
_cell_length_b                   13.8926(13)
_cell_length_c                   44.028(4)
_cell_angle_alpha                90
_cell_angle_beta                 90
_cell_angle_gamma                90
_cell_volume                     17216.5
loop_
_atom_site_label
_atom_site_type_symbol
_atom_site_fract_x
_atom_site_fract_y
_atom_site_fract_z
C19 C 0.0666(3) 0.6341(6) 0.02642(18)
H13 H 0.0725 0.7009 0.0292
C22 C 0.0503(3) 0.4425(6) 0.01853(17)
H15 H 0.0444 0.3755 0.0164
C23 C 0.0394(3) 0.4887(5) 0.04486(17)
H16 H 0.0249 0.4526 0.0607
N7 N 0.0480(2) 0.5823(5) 0.04972(14)
Zn4 Zn 0.04637(3) 0.63648(7) 0.09304(2)
C20 C 0.0772(3) 0.5926(6) 0.99904(18)
H14 H 0.0892 0.6313 0.9830
C21 C 0.0705(3) 0.4954(6) 0.99437(17)
C24 C 0.0425(3) 0.0618(6) 0.94880(19)
H17 H 0.0270 0.0250 0.9640
C25 C 0.0565(3) 0.1555(6) 0.95529(19)
H18 H 0.0505 0.1825 0.9747
C26 C 0.0796(3) 0.2100(6) 0.93287(18)
C27 C 0.0881(3) 0.1670(6) 0.90457(18)
H19 H 0.1049 0.2008 0.8892
C28 C 0.0717(3) 0.0745(6) 0.89952(18)
H20 H 0.0757 0.0473 0.8799
C29 C 0.2012(3) 0.5144(6) 0.85414(18)
H21 H 0.2183 0.4831 0.8384
C30 C 0.1770(4) 0.4594(6) 0.87553(19)
H22 H 0.1770 0.3912 0.8742
C31 C 0.1529(3) 0.5050(5) 0.89871(17)
C32 C 0.1524(4) 0.6051(6) 0.8990(2)
H23 H 0.1358 0.6391 0.9144
C33 C 0.1762(4) 0.6535(6) 0.8769(2)
H24 H 0.1749 0.7218 0.8768
C34 C 0.0863(3) 0.4471(6) 0.96619(18)
C35 C 0.1263(3) 0.4487(5) 0.92238(17)
C36 C 0.0925(3) 0.3114(6) 0.93806(17)
N8 N 0.2008(2) 0.6098(5) 0.85537(14)
N9 N 0.0506(2) 0.0214(5) 0.92101(15)
N10 N 0.1108(2) 0.4989(4) 0.94617(14)
N11 N 0.1191(2) 0.3554(5) 0.91719(15)
N12 N 0.0751(2) 0.3524(5) 0.96277(14)
Zn5 Zn 0.23927(3) 0.69089(6) 0.82454(2)
Zn3 Zn 0.73927(3) 0.80911(6) 0.17546(2)
I5 I 0.82735(2) 0.80841(4) 0.162450(14)
I6 I 0.69662(2) 0.64836(4) 0.182030(14)
C6 C 0.6879(3) 0.8872(7) 0.2292(2)
H5 H 0.6612 0.8591 0.2195
C7 C 0.6821(3) 0.9271(6) 0.25726(18)
H6 H 0.6515 0.9285 0.2664
C8 C 0.7213(3) 0.9663(5) 0.27273(17)
C9 C 0.7646(3) 0.9674(5) 0.25752(17)
H7 H 0.7918 0.9955 0.2667
C10 C 0.7678(3) 0.9271(5) 0.22882(17)
H8 H 0.7976 0.9285 0.2188
C19_2 C 0.4334(3) 0.3659(6) 0.52642(18)
H13_2 H 0.4275 0.2991 0.5292
C20_2 C 0.4228(3) 0.4074(6) 0.49904(18)
H14_2 H 0.4108 0.3687 0.4830
C21_2 C 0.4295(3) 0.5046(6) 0.49437(17)
C22_2 C 0.4497(3) 0.5575(6) 0.51853(17)
H15_2 H 0.4556 0.6245 0.5164
C23_2 C 0.4606(3) 0.5113(5) 0.54486(17)
H16_2 H 0.4751 0.5474 0.5607
C24_2 C 0.4575(3) 0.9382(6) 0.44880(19)
H17_2 H 0.4730 0.9750 0.4640
C25_2 C 0.4435(3) 0.8445(6) 0.45529(19)
H18_2 H 0.4495 0.8175 0.4747
C26_2 C 0.4204(3) 0.7900(6) 0.43287(18)
C27_2 C 0.4119(3) 0.8330(6) 0.40457(18)
H19_2 H 0.3951 0.7992 0.3892
C28_2 C 0.4283(3) 0.9255(6) 0.39952(18)
H20_2 H 0.4243 0.9527 0.3799
C29_2 C 0.2988(3) 0.4856(6) 0.35414(18)
H21_2 H 0.2817 0.5169 0.3384
C30_2 C 0.3230(4) 0.5406(6) 0.37553(19)
H22_2 H 0.3230 0.6088 0.3742
C31_2 C 0.3471(3) 0.4950(5) 0.39871(17)
C32_2 C 0.3476(4) 0.3949(6) 0.3990(2)
H23_2 H 0.3642 0.3609 0.4144
C33_2 C 0.3238(4) 0.3465(6) 0.3769(2)
H24_2 H 0.3251 0.2782 0.3768
C34_2 C 0.4137(3) 0.5529(6) 0.46619(18)
C35_2 C 0.3737(3) 0.5513(5) 0.42238(17)
C36_2 C 0.4075(3) 0.6886(6) 0.43806(17)
N3 N 0.7307(2) 0.8859(5) 0.21442(14)
N7_2 N 0.4520(2) 0.4177(5) 0.54972(14)
N8_2 N 0.2992(2) 0.3902(5) 0.35537(14)
N9_2 N 0.4494(2) 0.9786(5) 0.42101(15)
N10_2 N 0.3892(2) 0.5011(4) 0.44617(14)
N11_2 N 0.3809(2) 0.6446(5) 0.41719(15)
N12_2 N 0.4249(2) 0.6476(5) 0.46277(14)
Zn4_2 Zn 0.45363(3) 0.36352(7) 0.59304(2)
Zn5_2 Zn 0.26073(3) 0.30911(6) 0.32454(2)
N14 N 0.7008(2) 0.8902(5) 0.14463(14)
I3 I 0.44337(3) 0.18203(5) 0.591751(19)
I4 I 0.51826(2) 0.45110(5) 0.622866(14)
I5_2 I 0.32735(2) 0.69159(4) 0.837550(14)
I6_2 I 0.19662(2) 0.85164(4) 0.817970(14)
C1 C 0.0831(3) 0.4126(6) 0.59449(18)
H1 H 0.0823 0.3972 0.5735
C2 C 0.1271(3) 0.4262(6) 0.60843(19)
H2 H 0.1557 0.4200 0.5971
C3 C 0.1287(3) 0.4489(5) 0.63893(17)
C4 C 0.0867(3) 0.4580(6) 0.65454(19)
H3 H 0.0870 0.4741 0.6755
C5 C 0.0441(3) 0.4436(5) 0.63970(17)
H4 H 0.0154 0.4500 0.6509
C6_2 C 0.1879(3) 0.6128(7) 0.7708(2)
H5_2 H 0.1612 0.6409 0.7805
C7_2 C 0.1821(3) 0.5729(6) 0.74274(18)
H6_2 H 0.1515 0.5715 0.7336
C8_2 C 0.2213(3) 0.5337(5) 0.72727(17)
C9_2 C 0.2646(3) 0.5326(5) 0.74248(17)
H7_2 H 0.2918 0.5045 0.7333
C10_2 C 0.2678(3) 0.5729(5) 0.77118(17)
H8_2 H 0.2976 0.5715 0.7812
C11 C 0.3863(3) 0.4407(6) 0.63771(18)
H9 H 0.4151 0.4500 0.6486
C12 C 0.3439(3) 0.4578(6) 0.65268(17)
H10 H 0.3435 0.4773 0.6734
C13 C 0.3018(3) 0.4455(5) 0.63641(17)
C14 C 0.3038(3) 0.4196(6) 0.60607(17)
H11 H 0.2757 0.4133 0.5943
C15 C 0.3482(3) 0.4031(6) 0.59330(18)
H12 H 0.3497 0.3847 0.5725
C16 C 0.1760(3) 0.4620(5) 0.65468(17)
C17 C 0.2550(2) 0.4592(5) 0.65233(17)
C18 C 0.2183(3) 0.4987(5) 0.69589(17)
N1 N 0.0416(2) 0.4206(5) 0.60984(15)
N2 N 0.3892(2) 0.4119(5) 0.60890(15)
N3_2 N 0.2307(2) 0.6141(5) 0.78558(14)
N4 N 0.2150(2) 0.4456(4) 0.63756(14)
N5 N 0.2590(2) 0.4852(4) 0.68179(13)
N6 N 0.1745(2) 0.4875(4) 0.68324(14)
Zn1 Zn 0.52212(3) 0.61112(7) 0.08977(2)
I1 I 0.50652(3) 0.69622(5) 0.038973(16)
I2 I 0.57090(2) 0.68776(5) 0.131530(19)
I3_2 I 0.05663(3) 0.81797(5) 0.091751(19)
I5_3 I 0.17265(2) 0.30841(4) 0.337550(14)
I6_3 I 0.30338(2) 0.14836(4) 0.317970(14)
C1_2 C 0.4169(3) 0.5874(6) 0.09449(18)
H1_2 H 0.4177 0.6028 0.0735
C2_2 C 0.3729(3) 0.5738(6) 0.10843(19)
H2_2 H 0.3443 0.5800 0.0971
C3_2 C 0.3713(3) 0.5511(5) 0.13893(17)
C4_2 C 0.4133(3) 0.5420(6) 0.15454(19)
H3_2 H 0.4130 0.5259 0.1755
C5_2 C 0.4559(3) 0.5564(5) 0.13970(17)
H4_2 H 0.4846 0.5500 0.1509
C6_3 C 0.3121(3) 0.3872(7) 0.2708(2)
H5_3 H 0.3388 0.3591 0.2805
C7_3 C 0.3179(3) 0.4271(6) 0.24274(18)
H6_3 H 0.3485 0.4285 0.2336
C8_3 C 0.2787(3) 0.4663(5) 0.22727(17)
C9_3 C 0.2354(3) 0.4674(5) 0.24248(17)
H7_3 H 0.2082 0.4955 0.2333
C10_3 C 0.2322(3) 0.4271(5) 0.27118(17)
H8_3 H 0.2024 0.4285 0.2812
C11_2 C 0.1137(3) 0.5593(6) 0.13771(18)
H9_2 H 0.0849 0.5500 0.1486
C12_2 C 0.1561(3) 0.5422(6) 0.15268(17)
H10_2 H 0.1565 0.5227 0.1734
C13_2 C 0.1982(3) 0.5545(5) 0.13641(17)
C14_2 C 0.1962(3) 0.5804(6) 0.10607(17)
H11_2 H 0.2243 0.5867 0.0943
C15_2 C 0.1518(3) 0.5969(6) 0.09330(18)
H12_2 H 0.1503 0.6153 0.0725
C16_2 C 0.3240(3) 0.5380(5) 0.15468(17)
C17_2 C 0.2450(2) 0.5408(5) 0.15233(17)
C18_2 C 0.2817(3) 0.5013(5) 0.19589(17)
C21_3 C 0.5705(3) 0.0046(6) 0.00563(17)
C24_3 C 0.5425(3) 0.4382(6) 0.05120(19)
H17_3 H 0.5270 0.4750 0.0360
C25_3 C 0.5565(3) 0.3445(6) 0.04471(19)
H18_3 H 0.5505 0.3175 0.0253
C26_3 C 0.5796(3) 0.2900(6) 0.06713(18)
C27_3 C 0.5881(3) 0.3330(6) 0.09543(18)
H19_3 H 0.6049 0.2992 0.1108
C28_3 C 0.5717(3) 0.4255(6) 0.10048(18)
H20_3 H 0.5757 0.4527 0.1201
H21_3 H 0.7183 0.0169 0.1616
C30_3 C 0.6770(4) 0.0406(6) 0.12447(19)
H22_3 H 0.6770 0.1088 0.1258
C34_3 C 0.5863(3) 0.0529(6) 0.03381(18)
C35_3 C 0.6263(3) 0.0513(5) 0.07762(17)
C36_3 C 0.5925(3) 0.1886(6) 0.06194(17)
N1_2 N 0.4584(2) 0.5794(5) 0.10984(15)
N2_2 N 0.1108(2) 0.5881(5) 0.10890(15)
N3_3 N 0.2693(2) 0.3859(5) 0.28558(14)
N4_2 N 0.2850(2) 0.5544(4) 0.13756(14)
N5_2 N 0.2410(2) 0.5148(4) 0.18179(13)
N6_2 N 0.3255(2) 0.5125(4) 0.18324(14)
N9_3 N 0.5506(2) 0.4786(5) 0.07899(15)
N10_3 N 0.6108(2) 0.0011(4) 0.05383(14)
N11_3 N 0.6191(2) 0.1446(5) 0.08281(15)
N12_3 N 0.5751(2) 0.1476(5) 0.03723(14)
C20_3 C 0.5772(3) 0.9074(6) 0.00096(18)
H14_3 H 0.5892 0.8687 0.0170
C29_3 C 0.7012(3) 0.9856(6) 0.14586(18)
C31_3 C 0.6529(3) 0.9950(5) 0.10129(17)
C32_3 C 0.6524(4) 0.8949(6) 0.1010(2)
H23_3 H 0.6358 0.8609 0.0856
C33_3 C 0.6762(4) 0.8465(6) 0.1231(2)
H24_3 H 0.6749 0.7782 0.1232
Zn1_2 Zn 0.02212(3) 0.88888(7) 0.91023(2)
I1_2 I 0.00652(3) 0.80378(5) 0.961027(16)
I2_2 I 0.07090(2) 0.81224(5) 0.868470(19)
Zn3_2 Zn 0.76073(3) 0.19089(6) 0.67546(2)
I5_4 I 0.67265(2) 0.19159(4) 0.662450(14)
I6_4 I 0.80338(2) 0.35164(4) 0.682030(14)
C6_4 C 0.8121(3) 0.1128(7) 0.7292(2)
H5_4 H 0.8388 0.1409 0.7195
C7_4 C 0.8179(3) 0.0729(6) 0.75726(18)
H6_4 H 0.8485 0.0715 0.7664
C8_4 C 0.7787(3) 0.0337(5) 0.77273(17)
C9_4 C 0.7354(3) 0.0326(5) 0.75752(17)
H7_4 H 0.7082 0.0045 0.7667
C10_4 C 0.7322(3) 0.0729(5) 0.72882(17)
H8_4 H 0.7024 0.0715 0.7188
N3_4 N 0.7693(2) 0.1141(5) 0.71442(14)
N14_2 N 0.7992(2) 0.1098(5) 0.64463(14)
Zn1_3 Zn 0.47788(3) 0.11112(7) 0.41023(2)
Zn2 Zn 0.95363(3) 0.13648(7) 0.40696(2)
I1_3 I 0.49348(3) 0.19622(5) 0.461027(16)
I2_3 I 0.42910(2) 0.18776(5) 0.368470(19)
I3_3 I 0.94337(3) 0.31797(5) 0.408249(19)
C1_3 C 0.5831(3) 0.0874(6) 0.40551(18)
H1_3 H 0.5823 0.1028 0.4265
C2_3 C 0.6271(3) 0.0738(6) 0.39157(19)
H2_3 H 0.6557 0.0800 0.4029
C3_3 C 0.6287(3) 0.0511(5) 0.36107(17)
C4_3 C 0.5867(3) 0.0420(6) 0.34546(19)
H3_3 H 0.5870 0.0259 0.3245
C5_3 C 0.5441(3) 0.0564(5) 0.36030(17)
H4_3 H 0.5154 0.0500 0.3491
C11_3 C 0.8863(3) 0.0593(6) 0.36229(18)
H9_3 H 0.9151 0.0500 0.3514
C12_3 C 0.8439(3) 0.0422(6) 0.34732(17)
H10_3 H 0.8435 0.0227 0.3266
C13_3 C 0.8018(3) 0.0545(5) 0.36359(17)
C14_3 C 0.8038(3) 0.0804(6) 0.39393(17)
H11_3 H 0.7757 0.0867 0.4057
C15_3 C 0.8482(3) 0.0969(6) 0.40670(18)
H12_3 H 0.8497 0.1153 0.4275
C16_3 C 0.6760(3) 0.0380(5) 0.34532(17)
C17_3 C 0.7550(2) 0.0408(5) 0.34767(17)
C18_3 C 0.7183(3) 0.0013(5) 0.30411(17)
N1_3 N 0.5416(2) 0.0794(5) 0.39016(15)
N2_3 N 0.8892(2) 0.0881(5) 0.39110(15)
N4_3 N 0.7150(2) 0.0544(4) 0.36244(14)
N5_3 N 0.7590(2) 0.0148(4) 0.31821(13)
N6_3 N 0.6745(2) 0.0125(4) 0.31676(14)
N13 N 0.9520(2) 0.0823(5) 0.45028(14)
C19_3 C 0.9334(3) 0.1341(6) 0.47358(18)
H13_3 H 0.9275 0.2009 0.4708
C20_4 C 0.9228(3) 0.0926(6) 0.50096(18)
H14_4 H 0.9108 0.1313 0.5170
C29_4 C 0.7988(3) 0.0144(6) 0.64586(18)
C31_4 C 0.8471(3) 0.0050(5) 0.60129(17)
C32_4 C 0.8476(4) 0.1051(6) 0.6010(2)
H23_4 H 0.8642 0.1391 0.5856
C33_4 C 0.8238(4) 0.1535(6) 0.6231(2)
H24_4 H 0.8251 0.2218 0.6232
Zn2_2 Zn 0.54637(3) 0.86352(7) 0.90696(2)
I3_4 I 0.55663(3) 0.68203(5) 0.908249(19)
I4_2 I 0.48174(2) 0.95110(5) 0.877134(14)
C1_4 C 0.9169(3) 0.9126(6) 0.90551(18)
H1_4 H 0.9177 0.8972 0.9265
C2_4 C 0.8729(3) 0.9262(6) 0.89157(19)
H2_4 H 0.8443 0.9200 0.9029
C3_4 C 0.8713(3) 0.9489(5) 0.86107(17)
C4_4 C 0.9133(3) 0.9580(6) 0.84546(19)
H3_4 H 0.9130 0.9741 0.8245
C5_4 C 0.9559(3) 0.9436(5) 0.86030(17)
H4_4 H 0.9846 0.9500 0.8491
C11_4 C 0.6137(3) 0.9407(6) 0.86229(18)
H9_4 H 0.5849 0.9500 0.8514
C12_4 C 0.6561(3) 0.9578(6) 0.84732(17)
H10_4 H 0.6565 0.9773 0.8266
C13_4 C 0.6982(3) 0.9455(5) 0.86359(17)
C14_4 C 0.6962(3) 0.9196(6) 0.89393(17)
H11_4 H 0.7243 0.9133 0.9057
C15_4 C 0.6518(3) 0.9031(6) 0.90670(18)
H12_4 H 0.6503 0.8847 0.9275
C16_4 C 0.8240(3) 0.9620(5) 0.84532(17)
C17_4 C 0.7450(2) 0.9592(5) 0.84767(17)
C18_4 C 0.7817(3) 0.9987(5) 0.80411(17)
N1_4 N 0.9584(2) 0.9206(5) 0.89016(15)
N2_4 N 0.6108(2) 0.9119(5) 0.89110(15)
N4_4 N 0.7850(2) 0.9456(4) 0.86244(14)
N5_4 N 0.7410(2) 0.9852(4) 0.81821(13)
N6_4 N 0.8255(2) 0.9875(4) 0.81676(14)
N13_2 N 0.5480(2) 0.9177(5) 0.95028(14)
C19_4 C 0.5666(3) 0.8659(6) 0.97358(18)
H13_4 H 0.5725 0.7991 0.9708
I4_3 I 0.01826(2) 0.04890(5) 0.377134(14)
Zn1_4 Zn 0.97788(3) 0.38888(7) 0.58977(2)
I1_4 I 0.99348(3) 0.30378(5) 0.538973(16)
I2_4 I 0.92910(2) 0.31224(5) 0.631530(19)
C21_4 C 0.9295(3) 0.9954(6) 0.50563(17)
C22_3 C 0.9497(3) 0.9425(6) 0.48147(17)
H15_3 H 0.9556 0.8755 0.4836
C23_3 C 0.9606(3) 0.9887(5) 0.45514(17)
H16_3 H 0.9751 0.9526 0.4393
C24_4 C 0.9575(3) 0.5618(6) 0.55120(19)
H17_4 H 0.9730 0.5250 0.5360
C25_4 C 0.9435(3) 0.6555(6) 0.54471(19)
H18_4 H 0.9495 0.6825 0.5253
C26_4 C 0.9204(3) 0.7100(6) 0.56713(18)
C27_4 C 0.9119(3) 0.6670(6) 0.59543(18)
H19_4 H 0.8951 0.7008 0.6108
C28_4 C 0.9283(3) 0.5745(6) 0.60048(18)
H20_4 H 0.9243 0.5473 0.6201
H21_4 H 0.7817 0.9831 0.6616
C30_4 C 0.8230(4) 0.9594(6) 0.62447(19)
H22_4 H 0.8230 0.8912 0.6258
C34_4 C 0.9137(3) 0.9471(6) 0.53381(18)
C35_4 C 0.8737(3) 0.9487(5) 0.57762(17)
C36_4 C 0.9075(3) 0.8114(6) 0.56194(17)
N9_4 N 0.9494(2) 0.5214(5) 0.57899(15)
N10_4 N 0.8892(2) 0.9989(4) 0.55383(14)
N11_4 N 0.8809(2) 0.8554(5) 0.58281(15)
N12_4 N 0.9249(2) 0.8524(5) 0.53723(14)
C22_4 C 0.5503(3) 0.0575(6) 0.98147(17)
H15_4 H 0.5444 0.1245 0.9836
C23_4 C 0.5394(3) 0.0113(5) 0.95514(17)
H16_4 H 0.5249 0.0474 0.9393
I4_4 I 0.98174(2) 0.54890(5) 0.122866(14)
Zn2_3 Zn 0.45363(3) 0.13648(7) 0.09304(2)
I3_5 I 0.44337(3) 0.31797(5) 0.091751(19)
I4_5 I 0.51826(2) 0.04890(5) 0.122866(14)
C1_5 C 0.0831(3) 0.0874(6) 0.09449(18)
H1_5 H 0.0823 0.1028 0.0735
C2_5 C 0.1271(3) 0.0738(6) 0.10843(19)
H2_5 H 0.1557 0.0800 0.0971
C3_5 C 0.1287(3) 0.0511(5) 0.13893(17)
C4_5 C 0.0867(3) 0.0420(6) 0.15454(19)
H3_5 H 0.0870 0.0259 0.1755
C5_5 C 0.0441(3) 0.0564(5) 0.13970(17)
H4_5 H 0.0154 0.0500 0.1509
C11_5 C 0.3863(3) 0.0593(6) 0.13771(18)
H9_5 H 0.4151 0.0500 0.1486
C12_5 C 0.3439(3) 0.0422(6) 0.15268(17)
H10_5 H 0.3435 0.0227 0.1734
C13_5 C 0.3018(3) 0.0545(5) 0.13641(17)
C14_5 C 0.3038(3) 0.0804(6) 0.10607(17)
H11_5 H 0.2757 0.0867 0.0943
C15_5 C 0.3482(3) 0.0969(6) 0.09330(18)
H12_5 H 0.3497 0.1153 0.0725
C16_5 C 0.1760(3) 0.0380(5) 0.15468(17)
C17_5 C 0.2550(2) 0.0408(5) 0.15233(17)
C18_5 C 0.2183(3) 0.0013(5) 0.19589(17)
N1_5 N 0.0416(2) 0.0794(5) 0.10984(15)
N2_5 N 0.3892(2) 0.0881(5) 0.10890(15)
N4_5 N 0.2150(2) 0.0544(4) 0.13756(14)
N5_5 N 0.2590(2) 0.0148(4) 0.18179(13)
N6_5 N 0.1745(2) 0.0125(4) 0.18324(14)
N13_3 N 0.4520(2) 0.0823(5) 0.04972(14)
C19_5 C 0.4334(3) 0.1341(6) 0.02642(18)
H13_5 H 0.4275 0.2009 0.0292
Zn3_3 Zn 0.23927(3) 0.80911(6) 0.32454(2)
I5_5 I 0.32735(2) 0.80841(4) 0.337550(14)
I6_5 I 0.19662(2) 0.64836(4) 0.317970(14)
C6_5 C 0.1879(3) 0.8872(7) 0.2708(2)
H5_5 H 0.1612 0.8591 0.2805
C7_5 C 0.1821(3) 0.9271(6) 0.24274(18)
H6_5 H 0.1515 0.9285 0.2336
C8_5 C 0.2213(3) 0.9663(5) 0.22727(17)
C9_5 C 0.2646(3) 0.9674(5) 0.24248(17)
H7_5 H 0.2918 0.9955 0.2333
C10_5 C 0.2678(3) 0.9271(5) 0.27118(17)
H8_5 H 0.2976 0.9285 0.2812
N3_5 N 0.2307(2) 0.8859(5) 0.28558(14)
N14_3 N 0.2008(2) 0.8902(5) 0.35537(14)
Zn1_5 Zn 0.52212(3) 0.88888(7) 0.58977(2)
Zn2_4 Zn 0.04637(3) 0.86352(7) 0.59304(2)
I1_5 I 0.50652(3) 0.80378(5) 0.538973(16)
I2_5 I 0.57090(2) 0.81224(5) 0.631530(19)
I3_6 I 0.05663(3) 0.68203(5) 0.591751(19)
C1_6 C 0.4169(3) 0.9126(6) 0.59449(18)
H1_6 H 0.4177 0.8972 0.5735
C2_6 C 0.3729(3) 0.9262(6) 0.60843(19)
H2_6 H 0.3443 0.9200 0.5971
C3_6 C 0.3713(3) 0.9489(5) 0.63893(17)
C4_6 C 0.4133(3) 0.9580(6) 0.65454(19)
H3_6 H 0.4130 0.9741 0.6755
C5_6 C 0.4559(3) 0.9436(5) 0.63970(17)
H4_6 H 0.4846 0.9500 0.6509
C11_6 C 0.1137(3) 0.9407(6) 0.63771(18)
H9_6 H 0.0849 0.9500 0.6486
C12_6 C 0.1561(3) 0.9578(6) 0.65268(17)
H10_6 H 0.1565 0.9773 0.6734
C13_6 C 0.1982(3) 0.9455(5) 0.63641(17)
C14_6 C 0.1962(3) 0.9196(6) 0.60607(17)
H11_6 H 0.2243 0.9133 0.5943
C15_6 C 0.1518(3) 0.9031(6) 0.59330(18)
H12_6 H 0.1503 0.8847 0.5725
C16_6 C 0.3240(3) 0.9620(5) 0.65468(17)
C17_6 C 0.2450(2) 0.9592(5) 0.65233(17)
C18_6 C 0.2817(3) 0.9987(5) 0.69589(17)
N1_6 N 0.4584(2) 0.9206(5) 0.60984(15)
N2_6 N 0.1108(2) 0.9119(5) 0.60890(15)
N4_6 N 0.2850(2) 0.9456(4) 0.63756(14)
N5_6 N 0.2410(2) 0.9852(4) 0.68179(13)
N6_6 N 0.3255(2) 0.9875(4) 0.68324(14)
N13_4 N 0.0480(2) 0.9177(5) 0.54972(14)
C19_6 C 0.0666(3) 0.8659(6) 0.52642(18)
H13_6 H 0.0725 0.7991 0.5292
C20_5 C 0.0772(3) 0.9074(6) 0.49904(18)
H14_5 H 0.0892 0.8687 0.4830
C29_5 C 0.2012(3) 0.9856(6) 0.35414(18)
C31_5 C 0.1529(3) 0.9950(5) 0.39871(17)
C32_5 C 0.1524(4) 0.8949(6) 0.3990(2)
H23_5 H 0.1358 0.8609 0.4144
C33_5 C 0.1762(4) 0.8465(6) 0.3769(2)
H24_5 H 0.1749 0.7782 0.3768
Zn1_6 Zn 0.97788(3) 0.11112(7) 0.08977(2)
I1_6 I 0.99348(3) 0.19622(5) 0.038973(16)
I2_6 I 0.92910(2) 0.18776(5) 0.131530(19)
C20_6 C 0.9228(3) 0.4074(6) 0.00096(18)
H14_6 H 0.9108 0.3687 0.0170
C21_5 C 0.9295(3) 0.5046(6) 0.00563(17)
C24_5 C 0.9575(3) 0.9382(6) 0.05120(19)
H17_5 H 0.9730 0.9750 0.0360
C25_5 C 0.9435(3) 0.8445(6) 0.04471(19)
H18_5 H 0.9495 0.8175 0.0253
C26_5 C 0.9204(3) 0.7900(6) 0.06713(18)
C27_5 C 0.9119(3) 0.8330(6) 0.09543(18)
H19_5 H 0.8951 0.7992 0.1108
C28_5 C 0.9283(3) 0.9255(6) 0.10048(18)
H20_5 H 0.9243 0.9527 0.1201
C29_6 C 0.7988(3) 0.4856(6) 0.14586(18)
H21_5 H 0.7817 0.5169 0.1616
C30_5 C 0.8230(4) 0.5406(6) 0.12447(19)
H22_5 H 0.8230 0.6088 0.1258
C31_6 C 0.8471(3) 0.4950(5) 0.10129(17)
C32_6 C 0.8476(4) 0.3949(6) 0.1010(2)
H23_6 H 0.8642 0.3609 0.0856
C33_6 C 0.8238(4) 0.3465(6) 0.1231(2)
H24_6 H 0.8251 0.2782 0.1232
C34_5 C 0.9137(3) 0.5529(6) 0.03381(18)
C35_5 C 0.8737(3) 0.5513(5) 0.07762(17)
C36_5 C 0.9075(3) 0.6886(6) 0.06194(17)
N8_3 N 0.7992(2) 0.3902(5) 0.14463(14)
N9_5 N 0.9494(2) 0.9786(5) 0.07899(15)
N10_5 N 0.8892(2) 0.5011(4) 0.05383(14)
N11_5 N 0.8809(2) 0.6446(5) 0.08281(15)
N12_5 N 0.9249(2) 0.6476(5) 0.03723(14)
Zn5_3 Zn 0.76073(3) 0.30911(6) 0.17546(2)
C19_7 C 0.9334(3) 0.3659(6) 0.97358(18)
H13_7 H 0.9275 0.2991 0.9708
C22_5 C 0.9497(3) 0.5575(6) 0.98147(17)
H15_5 H 0.9556 0.6245 0.9836
C23_5 C 0.9606(3) 0.5113(5) 0.95514(17)
H16_5 H 0.9751 0.5474 0.9393
N7_3 N 0.9520(2) 0.4177(5) 0.95028(14)
Zn4_3 Zn 0.95363(3) 0.36352(7) 0.90696(2)
Zn3_4 Zn 0.26073(3) 0.19089(6) 0.82454(2)
I5_6 I 0.17265(2) 0.19159(4) 0.837550(14)
I6_6 I 0.30338(2) 0.35164(4) 0.817970(14)
C6_6 C 0.3121(3) 0.1128(7) 0.7708(2)
H5_6 H 0.3388 0.1409 0.7805
C7_6 C 0.3179(3) 0.0729(6) 0.74274(18)
H6_6 H 0.3485 0.0715 0.7336
C8_6 C 0.2787(3) 0.0337(5) 0.72727(17)
C9_6 C 0.2354(3) 0.0326(5) 0.74248(17)
H7_6 H 0.2082 0.0045 0.7333
C10_6 C 0.2322(3) 0.0729(5) 0.77118(17)
H8_6 H 0.2024 0.0715 0.7812
C19_8 C 0.5666(3) 0.6341(6) 0.47358(18)
H13_8 H 0.5725 0.7009 0.4708
C20_7 C 0.5772(3) 0.5926(6) 0.50096(18)
H14_7 H 0.5892 0.6313 0.5170
C21_6 C 0.5705(3) 0.4954(6) 0.50563(17)
C22_6 C 0.5503(3) 0.4425(6) 0.48147(17)
H15_6 H 0.5444 0.3755 0.4836
C23_6 C 0.5394(3) 0.4887(5) 0.45514(17)
H16_6 H 0.5249 0.4526 0.4393
C24_6 C 0.5425(3) 0.0618(6) 0.55120(19)
H17_6 H 0.5270 0.0250 0.5360
C25_6 C 0.5565(3) 0.1555(6) 0.54471(19)
H18_6 H 0.5505 0.1825 0.5253
C26_6 C 0.5796(3) 0.2100(6) 0.56713(18)
C27_6 C 0.5881(3) 0.1670(6) 0.59543(18)
H19_6 H 0.6049 0.2008 0.6108
C28_6 C 0.5717(3) 0.0745(6) 0.60048(18)
H20_6 H 0.5757 0.0473 0.6201
C29_7 C 0.7012(3) 0.5144(6) 0.64586(18)
H21_6 H 0.7183 0.4831 0.6616
C30_6 C 0.6770(4) 0.4594(6) 0.62447(19)
H22_6 H 0.6770 0.3912 0.6258
C31_7 C 0.6529(3) 0.5050(5) 0.60129(17)
C32_7 C 0.6524(4) 0.6051(6) 0.6010(2)
H23_7 H 0.6358 0.6391 0.5856
C33_7 C 0.6762(4) 0.6535(6) 0.6231(2)
H24_7 H 0.6749 0.7218 0.6232
C34_6 C 0.5863(3) 0.4471(6) 0.53381(18)
C35_6 C 0.6263(3) 0.4487(5) 0.57762(17)
C36_6 C 0.5925(3) 0.3114(6) 0.56194(17)
N3_6 N 0.2693(2) 0.1141(5) 0.78558(14)
N7_4 N 0.5480(2) 0.5823(5) 0.45028(14)
N8_4 N 0.7008(2) 0.6098(5) 0.64463(14)
N9_6 N 0.5506(2) 0.0214(5) 0.57899(15)
N10_6 N 0.6108(2) 0.4989(4) 0.55383(14)
N11_6 N 0.6191(2) 0.3554(5) 0.58281(15)
N12_6 N 0.5751(2) 0.3524(5) 0.53723(14)
Zn4_4 Zn 0.54637(3) 0.63648(7) 0.40696(2)
Zn5_4 Zn 0.73927(3) 0.69089(6) 0.67546(2)
N14_4 N 0.2992(2) 0.1098(5) 0.85537(14)
I3_7 I 0.55663(3) 0.81797(5) 0.408249(19)
I4_6 I 0.48174(2) 0.54890(5) 0.377134(14)
I5_7 I 0.67265(2) 0.30841(4) 0.162450(14)
I6_7 I 0.80338(2) 0.14836(4) 0.182030(14)
C1_7 C 0.9169(3) 0.5874(6) 0.40551(18)
H1_7 H 0.9177 0.6028 0.4265
C2_7 C 0.8729(3) 0.5738(6) 0.39157(19)
H2_7 H 0.8443 0.5800 0.4029
C3_7 C 0.8713(3) 0.5511(5) 0.36107(17)
C4_7 C 0.9133(3) 0.5420(6) 0.34546(19)
H3_7 H 0.9130 0.5259 0.3245
C5_7 C 0.9559(3) 0.5564(5) 0.36030(17)
H4_7 H 0.9846 0.5500 0.3491
C6_7 C 0.8121(3) 0.3872(7) 0.2292(2)
H5_7 H 0.8388 0.3591 0.2195
C7_7 C 0.8179(3) 0.4271(6) 0.25726(18)
H6_7 H 0.8485 0.4285 0.2664
C8_7 C 0.7787(3) 0.4663(5) 0.27273(17)
C9_7 C 0.7354(3) 0.4674(5) 0.25752(17)
H7_7 H 0.7082 0.4955 0.2667
C10_7 C 0.7322(3) 0.4271(5) 0.22882(17)
H8_7 H 0.7024 0.4285 0.2188
C11_7 C 0.6137(3) 0.5593(6) 0.36229(18)
H9_7 H 0.5849 0.5500 0.3514
C12_7 C 0.6561(3) 0.5422(6) 0.34732(17)
H10_7 H 0.6565 0.5227 0.3266
C13_7 C 0.6982(3) 0.5545(5) 0.36359(17)
C14_7 C 0.6962(3) 0.5804(6) 0.39393(17)
H11_7 H 0.7243 0.5867 0.4057
C15_7 C 0.6518(3) 0.5969(6) 0.40670(18)
H12_7 H 0.6503 0.6153 0.4275
C16_7 C 0.8240(3) 0.5380(5) 0.34532(17)
C17_7 C 0.7450(2) 0.5408(5) 0.34767(17)
C18_7 C 0.7817(3) 0.5013(5) 0.30411(17)
N1_7 N 0.9584(2) 0.5794(5) 0.39016(15)
N2_7 N 0.6108(2) 0.5881(5) 0.39110(15)
N3_7 N 0.7693(2) 0.3859(5) 0.21442(14)
N4_7 N 0.7850(2) 0.5544(4) 0.36244(14)
N5_7 N 0.7410(2) 0.5148(4) 0.31821(13)
N6_7 N 0.8255(2) 0.5125(4) 0.31676(14)
C20_8 C 0.4228(3) 0.0926(6) 0.99904(18)
H14_8 H 0.4108 0.1313 0.9830
C29_8 C 0.2988(3) 0.0144(6) 0.85414(18)
C31_8 C 0.3471(3) 0.0050(5) 0.89871(17)
C32_8 C 0.3476(4) 0.1051(6) 0.8990(2)
H23_8 H 0.3642 0.1391 0.9144
C33_8 C 0.3238(4) 0.1535(6) 0.8769(2)
H24_8 H 0.3251 0.2218 0.8768
Zn1_7 Zn 0.47788(3) 0.38888(7) 0.91023(2)
I1_7 I 0.49348(3) 0.30378(5) 0.961027(16)
I2_7 I 0.42910(2) 0.31224(5) 0.868470(19)
I3_8 I 0.94337(3) 0.18203(5) 0.908249(19)
I5_8 I 0.82735(2) 0.69159(4) 0.662450(14)
I6_8 I 0.69662(2) 0.85164(4) 0.682030(14)
C1_8 C 0.5831(3) 0.4126(6) 0.90551(18)
H1_8 H 0.5823 0.3972 0.9265
C2_8 C 0.6271(3) 0.4262(6) 0.89157(19)
H2_8 H 0.6557 0.4200 0.9029
C3_8 C 0.6287(3) 0.4489(5) 0.86107(17)
C4_8 C 0.5867(3) 0.4580(6) 0.84546(19)
H3_8 H 0.5870 0.4741 0.8245
C5_8 C 0.5441(3) 0.4436(5) 0.86030(17)
H4_8 H 0.5154 0.4500 0.8491
C6_8 C 0.6879(3) 0.6128(7) 0.7292(2)
H5_8 H 0.6612 0.6409 0.7195
C7_8 C 0.6821(3) 0.5729(6) 0.75726(18)
H6_8 H 0.6515 0.5715 0.7664
C8_8 C 0.7213(3) 0.5337(5) 0.77273(17)
C9_8 C 0.7646(3) 0.5326(5) 0.75752(17)
H7_8 H 0.7918 0.5045 0.7667
C10_8 C 0.7678(3) 0.5729(5) 0.72882(17)
H8_8 H 0.7976 0.5715 0.7188
C11_8 C 0.8863(3) 0.4407(6) 0.86229(18)
H9_8 H 0.9151 0.4500 0.8514
C12_8 C 0.8439(3) 0.4578(6) 0.84732(17)
H10_8 H 0.8435 0.4773 0.8266
C13_8 C 0.8018(3) 0.4455(5) 0.86359(17)
C14_8 C 0.8038(3) 0.4196(6) 0.89393(17)
H11_8 H 0.7757 0.4133 0.9057
C15_8 C 0.8482(3) 0.4031(6) 0.90670(18)
H12_8 H 0.8497 0.3847 0.9275
C16_8 C 0.6760(3) 0.4620(5) 0.84532(17)
C17_8 C 0.7550(2) 0.4592(5) 0.84767(17)
C18_8 C 0.7183(3) 0.4987(5) 0.80411(17)
C21_7 C 0.4295(3) 0.9954(6) 0.99437(17)
C24_7 C 0.4575(3) 0.5618(6) 0.94880(19)
H17_7 H 0.4730 0.5250 0.9640
C25_7 C 0.4435(3) 0.6555(6) 0.95529(19)
H18_7 H 0.4495 0.6825 0.9747
C26_7 C 0.4204(3) 0.7100(6) 0.93287(18)
C27_7 C 0.4119(3) 0.6670(6) 0.90457(18)
H19_7 H 0.3951 0.7008 0.8892
C28_7 C 0.4283(3) 0.5745(6) 0.89952(18)
H20_7 H 0.4243 0.5473 0.8799
H21_7 H 0.2817 0.9831 0.8384
C30_7 C 0.3230(4) 0.9594(6) 0.87553(19)
H22_7 H 0.3230 0.8912 0.8742
C34_7 C 0.4137(3) 0.9471(6) 0.96619(18)
C35_7 C 0.3737(3) 0.9487(5) 0.92238(17)
C36_7 C 0.4075(3) 0.8114(6) 0.93806(17)
N1_8 N 0.5416(2) 0.4206(5) 0.89016(15)
N2_8 N 0.8892(2) 0.4119(5) 0.89110(15)
N3_8 N 0.7307(2) 0.6141(5) 0.71442(14)
N4_8 N 0.7150(2) 0.4456(4) 0.86244(14)
N5_8 N 0.7590(2) 0.4852(4) 0.81821(13)
N6_8 N 0.6745(2) 0.4875(4) 0.81676(14)
N9_7 N 0.4494(2) 0.5214(5) 0.92101(15)
N10_7 N 0.3892(2) 0.9989(4) 0.94617(14)
N11_7 N 0.3809(2) 0.8554(5) 0.91719(15)
N12_7 N 0.4249(2) 0.8524(5) 0.96277(14)
I4_7 I 0.98174(2) 0.95110(5) 0.622866(14)
Zn1_8 Zn 0.02212(3) 0.61112(7) 0.41023(2)
I1_8 I 0.00652(3) 0.69622(5) 0.461027(16)
I2_8 I 0.07090(2) 0.68776(5) 0.368470(19)
C21_8 C 0.0705(3) 0.0046(6) 0.49437(17)
C22_7 C 0.0503(3) 0.0575(6) 0.51853(17)
H15_7 H 0.0444 0.1245 0.5164
C23_7 C 0.0394(3) 0.0113(5) 0.54486(17)
H16_7 H 0.0249 0.0474 0.5607
C24_8 C 0.0425(3) 0.4382(6) 0.44880(19)
H17_8 H 0.0270 0.4750 0.4640
C25_8 C 0.0565(3) 0.3445(6) 0.45529(19)
H18_8 H 0.0505 0.3175 0.4747
C26_8 C 0.0796(3) 0.2900(6) 0.43287(18)
C27_8 C 0.0881(3) 0.3330(6) 0.40457(18)
H19_8 H 0.1049 0.2992 0.3892
C28_8 C 0.0717(3) 0.4255(6) 0.39952(18)
H20_8 H 0.0757 0.4527 0.3799
H21_8 H 0.2183 0.0169 0.3384
C30_8 C 0.1770(4) 0.0406(6) 0.37553(19)
H22_8 H 0.1770 0.1088 0.3742
C34_8 C 0.0863(3) 0.0529(6) 0.46619(18)
C35_8 C 0.1263(3) 0.0513(5) 0.42238(17)
C36_8 C 0.0925(3) 0.1886(6) 0.43806(17)
N9_8 N 0.0506(2) 0.4786(5) 0.42101(15)
N10_8 N 0.1108(2) 0.0011(4) 0.44617(14)
N11_8 N 0.1191(2) 0.1446(5) 0.41719(15)
N12_8 N 0.0751(2) 0.1476(5) 0.46277(14)
I4_8 I 0.01826(2) 0.45110(5) 0.877134(14)
C22_8 C 0.4497(3) 0.9425(6) 0.01853(17)
H15_8 H 0.4556 0.8755 0.0164
C23_8 C 0.4606(3) 0.9887(5) 0.04486(17)
H16_8 H 0.4751 0.9526 0.0607
loop_
_geom_bond_atom_site_label_1
_geom_bond_atom_site_label_2
_geom_bond_site_symmetry_1
_geom_bond_site_symmetry_2
C19 H13 1_555 1_555
H15 C22 1_555 1_555
C23 C22 1_555 1_555
H16 C23 1_555 1_555
N7 C19 1_555 1_555
Zn4 N7 1_555 1_555
C23 N7 1_555 1_555
H14 C20 1_555 1_555
C21 C20 1_555 1_555
C24 H17 1_555 1_555
C25 C24 1_555 1_555
H18 C25 1_555 1_555
C26 C25 1_555 1_555
C27 C26 1_555 1_555
H19 C27 1_555 1_555
C28 C27 1_555 1_555
H20 C28 1_555 1_555
C29 H21 1_555 1_555
C30 C29 1_555 1_555
H22 C30 1_555 1_555
C31 C30 1_555 1_555
C32 C31 1_555 1_555
H23 C32 1_555 1_555
C33 C32 1_555 1_555
H24 C33 1_555 1_555
C34 C21 1_555 1_555
C35 C31 1_555 1_555
C36 C26 1_555 1_555
N8 C29 1_555 1_555
N10 C34 1_555 1_555
N11 C35 1_555 1_555
N12 C34 1_555 1_555
Zn5 N8 1_555 1_555
C24 N9 1_555 1_555
C28 N9 1_555 1_555
C33 N8 1_555 1_555
C35 N10 1_555 1_555
C36 N11 1_555 1_555
C36 N12 1_555 1_555
Zn3 I5 1_555 1_555
I6 Zn3 1_555 1_555
C6 H5 1_555 1_555
C7 C6 1_555 1_555
H6 C7 1_555 1_555
C8 C7 1_555 1_555
C9 C8 1_555 1_555
H7 C9 1_555 1_555
C10 C9 1_555 1_555
H8 C10 1_555 1_555
C19_2 H13_2 1_555 1_555
C20_2 C19_2 1_555 1_555
H14_2 C20_2 1_555 1_555
C21_2 C20_2 1_555 1_555
C22_2 C21_2 1_555 1_555
H15_2 C22_2 1_555 1_555
C23_2 C22_2 1_555 1_555
H16_2 C23_2 1_555 1_555
C24_2 H17_2 1_555 1_555
C25_2 C24_2 1_555 1_555
H18_2 C25_2 1_555 1_555
C26_2 C25_2 1_555 1_555
C27_2 C26_2 1_555 1_555
H19_2 C27_2 1_555 1_555
C28_2 C27_2 1_555 1_555
H20_2 C28_2 1_555 1_555
C29_2 H21_2 1_555 1_555
C30_2 C29_2 1_555 1_555
H22_2 C30_2 1_555 1_555
C31_2 C30_2 1_555 1_555
C32_2 C31_2 1_555 1_555
H23_2 C32_2 1_555 1_555
C33_2 C32_2 1_555 1_555
H24_2 C33_2 1_555 1_555
C34_2 C21_2 1_555 1_555
C35_2 C31_2 1_555 1_555
C36_2 C26_2 1_555 1_555
N3 Zn3 1_555 1_555
N7_2 C19_2 1_555 1_555
N8_2 C29_2 1_555 1_555
N10_2 C34_2 1_555 1_555
N11_2 C35_2 1_555 1_555
N12_2 C34_2 1_555 1_555
Zn4_2 N7_2 1_555 1_555
Zn5_2 N8_2 1_555 1_555
N14 Zn3 1_555 1_555
C6 N3 1_555 1_555
C10 N3 1_555 1_555
C23_2 N7_2 1_555 1_555
C24_2 N9_2 1_555 1_555
C28_2 N9_2 1_555 1_555
C33_2 N8_2 1_555 1_555
C35_2 N10_2 1_555 1_555
C36_2 N11_2 1_555 1_555
C36_2 N12_2 1_555 1_555
Zn4_2 I3 1_555 1_555
Zn5 I5_2 1_555 1_555
I4 Zn4_2 1_555 1_555
I6_2 Zn5 1_555 1_555
C1 H1 1_555 1_555
C2 C1 1_555 1_555
H2 C2 1_555 1_555
C3 C2 1_555 1_555
C4 C3 1_555 1_555
H3 C4 1_555 1_555
C5 C4 1_555 1_555
H4 C5 1_555 1_555
C6_2 H5_2 1_555 1_555
C7_2 C6_2 1_555 1_555
H6_2 C7_2 1_555 1_555
C8_2 C7_2 1_555 1_555
C9_2 C8_2 1_555 1_555
H7_2 C9_2 1_555 1_555
C10_2 C9_2 1_555 1_555
H8_2 C10_2 1_555 1_555
C11 H9 1_555 1_555
C12 C11 1_555 1_555
H10 C12 1_555 1_555
C13 C12 1_555 1_555
C14 C13 1_555 1_555
H11 C14 1_555 1_555
C15 C14 1_555 1_555
H12 C15 1_555 1_555
C16 C3 1_555 1_555
C17 C13 1_555 1_555
C18 C8_2 1_555 1_555
N2 Zn4_2 1_555 1_555
N3_2 Zn5 1_555 1_555
N4 C16 1_555 1_555
N5 C17 1_555 1_555
N6 C16 1_555 1_555
C1 N1 1_555 1_555
C5 N1 1_555 1_555
C6_2 N3_2 1_555 1_555
C10_2 N3_2 1_555 1_555
C11 N2 1_555 1_555
C15 N2 1_555 1_555
C17 N4 1_555 1_555
C18 N5 1_555 1_555
C18 N6 1_555 1_555
Zn1 I1 1_555 1_555
Zn4 I3_2 1_555 1_555
Zn5_2 I5_3 1_555 1_555
I2 Zn1 1_555 1_555
I6_3 Zn5_2 1_555 1_555
C1_2 H1_2 1_555 1_555
C2_2 C1_2 1_555 1_555
H2_2 C2_2 1_555 1_555
C3_2 C2_2 1_555 1_555
C4_2 C3_2 1_555 1_555
H3_2 C4_2 1_555 1_555
C5_2 C4_2 1_555 1_555
H4_2 C5_2 1_555 1_555
C6_3 H5_3 1_555 1_555
C7_3 C6_3 1_555 1_555
H6_3 C7_3 1_555 1_555
C8_3 C7_3 1_555 1_555
C9_3 C8_3 1_555 1_555
H7_3 C9_3 1_555 1_555
C10_3 C9_3 1_555 1_555
H8_3 C10_3 1_555 1_555
C11_2 H9_2 1_555 1_555
C12_2 C11_2 1_555 1_555
H10_2 C12_2 1_555 1_555
C13_2 C12_2 1_555 1_555
C14_2 C13_2 1_555 1_555
H11_2 C14_2 1_555 1_555
C15_2 C14_2 1_555 1_555
H12_2 C15_2 1_555 1_555
C16_2 C3_2 1_555 1_555
C17_2 C13_2 1_555 1_555
C18_2 C8_3 1_555 1_555
C24_3 H17_3 1_555 1_555
C25_3 C24_3 1_555 1_555
H18_3 C25_3 1_555 1_555
C26_3 C25_3 1_555 1_555
C27_3 C26_3 1_555 1_555
H19_3 C27_3 1_555 1_555
C28_3 C27_3 1_555 1_555
H20_3 C28_3 1_555 1_555
H22_3 C30_3 1_555 1_555
C34_3 C21_3 1_555 1_555
C36_3 C26_3 1_555 1_555
N1_2 Zn1 1_555 1_555
N2_2 Zn4 1_555 1_555
N3_3 Zn5_2 1_555 1_555
N4_2 C16_2 1_555 1_555
N5_2 C17_2 1_555 1_555
N6_2 C16_2 1_555 1_555
N9_3 Zn1 1_555 1_555
N10_3 C34_3 1_555 1_555
N11_3 C35_3 1_555 1_555
N12_3 C34_3 1_555 1_555
C1_2 N1_2 1_555 1_555
C5_2 N1_2 1_555 1_555
C6_3 N3_3 1_555 1_555
C10_3 N3_3 1_555 1_555
C11_2 N2_2 1_555 1_555
C15_2 N2_2 1_555 1_555
C17_2 N4_2 1_555 1_555
C18_2 N5_2 1_555 1_555
C18_2 N6_2 1_555 1_555
C24_3 N9_3 1_555 1_555
C28_3 N9_3 1_555 1_555
C35_3 N10_3 1_555 1_555
C36_3 N11_3 1_555 1_555
C36_3 N12_3 1_555 1_555
H14_3 C20_3 1_555 1_555
C32_3 C31_3 1_555 1_555
H23_3 C32_3 1_555 1_555
C33_3 C32_3 1_555 1_555
H24_3 C33_3 1_555 1_555
N14 C29_3 1_555 1_555
C33_3 N14 1_555 1_555
Zn1_2 I1_2 1_555 1_555
I2_2 Zn1_2 1_555 1_555
Zn3_2 I5_4 1_555 1_555
I6_4 Zn3_2 1_555 1_555
C6_4 H5_4 1_555 1_555
C7_4 C6_4 1_555 1_555
H6_4 C7_4 1_555 1_555
C8_4 C7_4 1_555 1_555
C9_4 C8_4 1_555 1_555
H7_4 C9_4 1_555 1_555
C10_4 C9_4 1_555 1_555
H8_4 C10_4 1_555 1_555
N3_4 Zn3_2 1_555 1_555
N14_2 Zn3_2 1_555 1_555
C6_4 N3_4 1_555 1_555
C10_4 N3_4 1_555 1_555
Zn1_3 I1_3 1_555 1_555
Zn2 I3_3 1_555 1_555
I2_3 Zn1_3 1_555 1_555
C1_3 H1_3 1_555 1_555
C2_3 C1_3 1_555 1_555
H2_3 C2_3 1_555 1_555
C3_3 C2_3 1_555 1_555
C4_3 C3_3 1_555 1_555
H3_3 C4_3 1_555 1_555
C5_3 C4_3 1_555 1_555
H4_3 C5_3 1_555 1_555
C11_3 H9_3 1_555 1_555
C12_3 C11_3 1_555 1_555
H10_3 C12_3 1_555 1_555
C13_3 C12_3 1_555 1_555
C14_3 C13_3 1_555 1_555
H11_3 C14_3 1_555 1_555
C15_3 C14_3 1_555 1_555
H12_3 C15_3 1_555 1_555
C16_3 C3_3 1_555 1_555
C17_3 C13_3 1_555 1_555
N1_3 Zn1_3 1_555 1_555
N2_3 Zn2 1_555 1_555
N4_3 C16_3 1_555 1_555
N5_3 C17_3 1_555 1_555
N6_3 C16_3 1_555 1_555
N13 Zn2 1_555 1_555
C1_3 N1_3 1_555 1_555
C5_3 N1_3 1_555 1_555
C11_3 N2_3 1_555 1_555
C15_3 N2_3 1_555 1_555
C17_3 N4_3 1_555 1_555
C18_3 N5_3 1_555 1_555
C18_3 N6_3 1_555 1_555
C19_3 H13_3 1_555 1_555
C20_4 C19_3 1_555 1_555
H14_4 C20_4 1_555 1_555
C32_4 C31_4 1_555 1_555
H23_4 C32_4 1_555 1_555
C33_4 C32_4 1_555 1_555
H24_4 C33_4 1_555 1_555
N13 C19_3 1_555 1_555
N14_2 C29_4 1_555 1_555
C33_4 N14_2 1_555 1_555
Zn2_2 I3_4 1_555 1_555
I4_2 Zn2_2 1_555 1_555
C1_4 H1_4 1_555 1_555
C2_4 C1_4 1_555 1_555
H2_4 C2_4 1_555 1_555
C3_4 C2_4 1_555 1_555
C4_4 C3_4 1_555 1_555
H3_4 C4_4 1_555 1_555
C5_4 C4_4 1_555 1_555
H4_4 C5_4 1_555 1_555
C11_4 H9_4 1_555 1_555
C12_4 C11_4 1_555 1_555
H10_4 C12_4 1_555 1_555
C13_4 C12_4 1_555 1_555
C14_4 C13_4 1_555 1_555
H11_4 C14_4 1_555 1_555
C15_4 C14_4 1_555 1_555
H12_4 C15_4 1_555 1_555
C16_4 C3_4 1_555 1_555
C17_4 C13_4 1_555 1_555
N2_4 Zn2_2 1_555 1_555
N4_4 C16_4 1_555 1_555
N5_4 C17_4 1_555 1_555
N6_4 C16_4 1_555 1_555
N13_2 Zn2_2 1_555 1_555
C1_4 N1_4 1_555 1_555
C5_4 N1_4 1_555 1_555
C11_4 N2_4 1_555 1_555
C15_4 N2_4 1_555 1_555
C17_4 N4_4 1_555 1_555
C18_4 N5_4 1_555 1_555
C18_4 N6_4 1_555 1_555
C19_4 H13_4 1_555 1_555
N13_2 C19_4 1_555 1_555
Zn1_4 I1_4 1_555 1_555
I2_4 Zn1_4 1_555 1_555
C22_3 C21_4 1_555 1_555
H15_3 C22_3 1_555 1_555
C23_3 C22_3 1_555 1_555
H16_3 C23_3 1_555 1_555
C24_4 H17_4 1_555 1_555
C25_4 C24_4 1_555 1_555
H18_4 C25_4 1_555 1_555
C26_4 C25_4 1_555 1_555
C27_4 C26_4 1_555 1_555
H19_4 C27_4 1_555 1_555
C28_4 C27_4 1_555 1_555
H20_4 C28_4 1_555 1_555
H22_4 C30_4 1_555 1_555
C34_4 C21_4 1_555 1_555
C36_4 C26_4 1_555 1_555
N9_4 Zn1_4 1_555 1_555
N10_4 C34_4 1_555 1_555
N11_4 C35_4 1_555 1_555
N12_4 C34_4 1_555 1_555
C24_4 N9_4 1_555 1_555
C28_4 N9_4 1_555 1_555
C35_4 N10_4 1_555 1_555
C36_4 N11_4 1_555 1_555
C36_4 N12_4 1_555 1_555
H15_4 C22_4 1_555 1_555
C23_4 C22_4 1_555 1_555
H16_4 C23_4 1_555 1_555
Zn2_3 I3_5 1_555 1_555
I4_5 Zn2_3 1_555 1_555
C1_5 H1_5 1_555 1_555
C2_5 C1_5 1_555 1_555
H2_5 C2_5 1_555 1_555
C3_5 C2_5 1_555 1_555
C4_5 C3_5 1_555 1_555
H3_5 C4_5 1_555 1_555
C5_5 C4_5 1_555 1_555
H4_5 C5_5 1_555 1_555
C11_5 H9_5 1_555 1_555
C12_5 C11_5 1_555 1_555
H10_5 C12_5 1_555 1_555
C13_5 C12_5 1_555 1_555
C14_5 C13_5 1_555 1_555
H11_5 C14_5 1_555 1_555
C15_5 C14_5 1_555 1_555
H12_5 C15_5 1_555 1_555
C16_5 C3_5 1_555 1_555
C17_5 C13_5 1_555 1_555
N2_5 Zn2_3 1_555 1_555
N4_5 C16_5 1_555 1_555
N5_5 C17_5 1_555 1_555
N6_5 C16_5 1_555 1_555
N13_3 Zn2_3 1_555 1_555
C1_5 N1_5 1_555 1_555
C5_5 N1_5 1_555 1_555
C11_5 N2_5 1_555 1_555
C15_5 N2_5 1_555 1_555
C17_5 N4_5 1_555 1_555
C18_5 N5_5 1_555 1_555
C18_5 N6_5 1_555 1_555
C19_5 H13_5 1_555 1_555
N13_3 C19_5 1_555 1_555
Zn3_3 I5_5 1_555 1_555
I6_5 Zn3_3 1_555 1_555
C6_5 H5_5 1_555 1_555
C7_5 C6_5 1_555 1_555
H6_5 C7_5 1_555 1_555
C8_5 C7_5 1_555 1_555
C9_5 C8_5 1_555 1_555
H7_5 C9_5 1_555 1_555
C10_5 C9_5 1_555 1_555
H8_5 C10_5 1_555 1_555
N3_5 Zn3_3 1_555 1_555
N14_3 Zn3_3 1_555 1_555
C6_5 N3_5 1_555 1_555
C10_5 N3_5 1_555 1_555
Zn1_5 I1_5 1_555 1_555
Zn2_4 I3_6 1_555 1_555
I2_5 Zn1_5 1_555 1_555
C1_6 H1_6 1_555 1_555
C2_6 C1_6 1_555 1_555
H2_6 C2_6 1_555 1_555
C3_6 C2_6 1_555 1_555
C4_6 C3_6 1_555 1_555
H3_6 C4_6 1_555 1_555
C5_6 C4_6 1_555 1_555
H4_6 C5_6 1_555 1_555
C11_6 H9_6 1_555 1_555
C12_6 C11_6 1_555 1_555
H10_6 C12_6 1_555 1_555
C13_6 C12_6 1_555 1_555
C14_6 C13_6 1_555 1_555
H11_6 C14_6 1_555 1_555
C15_6 C14_6 1_555 1_555
H12_6 C15_6 1_555 1_555
C16_6 C3_6 1_555 1_555
C17_6 C13_6 1_555 1_555
N1_6 Zn1_5 1_555 1_555
N2_6 Zn2_4 1_555 1_555
N4_6 C16_6 1_555 1_555
N5_6 C17_6 1_555 1_555
N6_6 C16_6 1_555 1_555
N13_4 Zn2_4 1_555 1_555
C1_6 N1_6 1_555 1_555
C5_6 N1_6 1_555 1_555
C11_6 N2_6 1_555 1_555
C15_6 N2_6 1_555 1_555
C17_6 N4_6 1_555 1_555
C18_6 N5_6 1_555 1_555
C18_6 N6_6 1_555 1_555
C19_6 H13_6 1_555 1_555
C20_5 C19_6 1_555 1_555
H14_5 C20_5 1_555 1_555
C32_5 C31_5 1_555 1_555
H23_5 C32_5 1_555 1_555
C33_5 C32_5 1_555 1_555
H24_5 C33_5 1_555 1_555
N13_4 C19_6 1_555 1_555
N14_3 C29_5 1_555 1_555
C33_5 N14_3 1_555 1_555
Zn1_6 I1_6 1_555 1_555
I2_6 Zn1_6 1_555 1_555
H14_6 C20_6 1_555 1_555
C21_5 C20_6 1_555 1_555
C24_5 H17_5 1_555 1_555
C25_5 C24_5 1_555 1_555
H18_5 C25_5 1_555 1_555
C26_5 C25_5 1_555 1_555
C27_5 C26_5 1_555 1_555
H19_5 C27_5 1_555 1_555
C28_5 C27_5 1_555 1_555
H20_5 C28_5 1_555 1_555
C29_6 H21_5 1_555 1_555
C30_5 C29_6 1_555 1_555
H22_5 C30_5 1_555 1_555
C31_6 C30_5 1_555 1_555
C32_6 C31_6 1_555 1_555
H23_6 C32_6 1_555 1_555
C33_6 C32_6 1_555 1_555
H24_6 C33_6 1_555 1_555
C34_5 C21_5 1_555 1_555
C35_5 C31_6 1_555 1_555
C36_5 C26_5 1_555 1_555
N8_3 C29_6 1_555 1_555
N10_5 C34_5 1_555 1_555
N11_5 C35_5 1_555 1_555
N12_5 C34_5 1_555 1_555
Zn5_3 N8_3 1_555 1_555
C24_5 N9_5 1_555 1_555
C28_5 N9_5 1_555 1_555
C33_6 N8_3 1_555 1_555
C35_5 N10_5 1_555 1_555
C36_5 N11_5 1_555 1_555
C36_5 N12_5 1_555 1_555
C19_7 H13_7 1_555 1_555
H15_5 C22_5 1_555 1_555
C23_5 C22_5 1_555 1_555
H16_5 C23_5 1_555 1_555
N7_3 C19_7 1_555 1_555
Zn4_3 N7_3 1_555 1_555
C23_5 N7_3 1_555 1_555
Zn3_4 I5_6 1_555 1_555
I6_6 Zn3_4 1_555 1_555
C6_6 H5_6 1_555 1_555
C7_6 C6_6 1_555 1_555
H6_6 C7_6 1_555 1_555
C8_6 C7_6 1_555 1_555
C9_6 C8_6 1_555 1_555
H7_6 C9_6 1_555 1_555
C10_6 C9_6 1_555 1_555
H8_6 C10_6 1_555 1_555
C19_8 H13_8 1_555 1_555
C20_7 C19_8 1_555 1_555
H14_7 C20_7 1_555 1_555
C21_6 C20_7 1_555 1_555
C22_6 C21_6 1_555 1_555
H15_6 C22_6 1_555 1_555
C23_6 C22_6 1_555 1_555
H16_6 C23_6 1_555 1_555
C24_6 H17_6 1_555 1_555
C25_6 C24_6 1_555 1_555
H18_6 C25_6 1_555 1_555
C26_6 C25_6 1_555 1_555
C27_6 C26_6 1_555 1_555
H19_6 C27_6 1_555 1_555
C28_6 C27_6 1_555 1_555
H20_6 C28_6 1_555 1_555
C29_7 H21_6 1_555 1_555
C30_6 C29_7 1_555 1_555
H22_6 C30_6 1_555 1_555
C31_7 C30_6 1_555 1_555
C32_7 C31_7 1_555 1_555
H23_7 C32_7 1_555 1_555
C33_7 C32_7 1_555 1_555
H24_7 C33_7 1_555 1_555
C34_6 C21_6 1_555 1_555
C35_6 C31_7 1_555 1_555
C36_6 C26_6 1_555 1_555
N3_6 Zn3_4 1_555 1_555
N7_4 C19_8 1_555 1_555
N8_4 C29_7 1_555 1_555
N10_6 C34_6 1_555 1_555
N11_6 C35_6 1_555 1_555
N12_6 C34_6 1_555 1_555
Zn4_4 N7_4 1_555 1_555
Zn5_4 N8_4 1_555 1_555
N14_4 Zn3_4 1_555 1_555
C6_6 N3_6 1_555 1_555
C10_6 N3_6 1_555 1_555
C23_6 N7_4 1_555 1_555
C24_6 N9_6 1_555 1_555
C28_6 N9_6 1_555 1_555
C33_7 N8_4 1_555 1_555
C35_6 N10_6 1_555 1_555
C36_6 N11_6 1_555 1_555
C36_6 N12_6 1_555 1_555
Zn4_4 I3_7 1_555 1_555
Zn5_3 I5_7 1_555 1_555
I4_6 Zn4_4 1_555 1_555
I6_7 Zn5_3 1_555 1_555
C1_7 H1_7 1_555 1_555
C2_7 C1_7 1_555 1_555
H2_7 C2_7 1_555 1_555
C3_7 C2_7 1_555 1_555
C4_7 C3_7 1_555 1_555
H3_7 C4_7 1_555 1_555
C5_7 C4_7 1_555 1_555
H4_7 C5_7 1_555 1_555
C6_7 H5_7 1_555 1_555
C7_7 C6_7 1_555 1_555
H6_7 C7_7 1_555 1_555
C8_7 C7_7 1_555 1_555
C9_7 C8_7 1_555 1_555
H7_7 C9_7 1_555 1_555
C10_7 C9_7 1_555 1_555
H8_7 C10_7 1_555 1_555
C11_7 H9_7 1_555 1_555
C12_7 C11_7 1_555 1_555
H10_7 C12_7 1_555 1_555
C13_7 C12_7 1_555 1_555
C14_7 C13_7 1_555 1_555
H11_7 C14_7 1_555 1_555
C15_7 C14_7 1_555 1_555
H12_7 C15_7 1_555 1_555
C16_7 C3_7 1_555 1_555
C17_7 C13_7 1_555 1_555
C18_7 C8_7 1_555 1_555
N2_7 Zn4_4 1_555 1_555
N3_7 Zn5_3 1_555 1_555
N4_7 C16_7 1_555 1_555
N5_7 C17_7 1_555 1_555
N6_7 C16_7 1_555 1_555
C1_7 N1_7 1_555 1_555
C5_7 N1_7 1_555 1_555
C6_7 N3_7 1_555 1_555
C10_7 N3_7 1_555 1_555
C11_7 N2_7 1_555 1_555
C15_7 N2_7 1_555 1_555
C17_7 N4_7 1_555 1_555
C18_7 N5_7 1_555 1_555
C18_7 N6_7 1_555 1_555
H14_8 C20_8 1_555 1_555
C32_8 C31_8 1_555 1_555
H23_8 C32_8 1_555 1_555
C33_8 C32_8 1_555 1_555
H24_8 C33_8 1_555 1_555
N14_4 C29_8 1_555 1_555
C33_8 N14_4 1_555 1_555
Zn1_7 I1_7 1_555 1_555
Zn4_3 I3_8 1_555 1_555
Zn5_4 I5_8 1_555 1_555
I2_7 Zn1_7 1_555 1_555
I6_8 Zn5_4 1_555 1_555
C1_8 H1_8 1_555 1_555
C2_8 C1_8 1_555 1_555
H2_8 C2_8 1_555 1_555
C3_8 C2_8 1_555 1_555
C4_8 C3_8 1_555 1_555
H3_8 C4_8 1_555 1_555
C5_8 C4_8 1_555 1_555
H4_8 C5_8 1_555 1_555
C6_8 H5_8 1_555 1_555
C7_8 C6_8 1_555 1_555
H6_8 C7_8 1_555 1_555
C8_8 C7_8 1_555 1_555
C9_8 C8_8 1_555 1_555
H7_8 C9_8 1_555 1_555
C10_8 C9_8 1_555 1_555
H8_8 C10_8 1_555 1_555
C11_8 H9_8 1_555 1_555
C12_8 C11_8 1_555 1_555
H10_8 C12_8 1_555 1_555
C13_8 C12_8 1_555 1_555
C14_8 C13_8 1_555 1_555
H11_8 C14_8 1_555 1_555
C15_8 C14_8 1_555 1_555
H12_8 C15_8 1_555 1_555
C16_8 C3_8 1_555 1_555
C17_8 C13_8 1_555 1_555
C18_8 C8_8 1_555 1_555
C24_7 H17_7 1_555 1_555
C25_7 C24_7 1_555 1_555
H18_7 C25_7 1_555 1_555
C26_7 C25_7 1_555 1_555
C27_7 C26_7 1_555 1_555
H19_7 C27_7 1_555 1_555
C28_7 C27_7 1_555 1_555
H20_7 C28_7 1_555 1_555
H22_7 C30_7 1_555 1_555
C34_7 C21_7 1_555 1_555
C36_7 C26_7 1_555 1_555
N1_8 Zn1_7 1_555 1_555
N2_8 Zn4_3 1_555 1_555
N3_8 Zn5_4 1_555 1_555
N4_8 C16_8 1_555 1_555
N5_8 C17_8 1_555 1_555
N6_8 C16_8 1_555 1_555
N9_7 Zn1_7 1_555 1_555
N10_7 C34_7 1_555 1_555
N11_7 C35_7 1_555 1_555
N12_7 C34_7 1_555 1_555
C1_8 N1_8 1_555 1_555
C5_8 N1_8 1_555 1_555
C6_8 N3_8 1_555 1_555
C10_8 N3_8 1_555 1_555
C11_8 N2_8 1_555 1_555
C15_8 N2_8 1_555 1_555
C17_8 N4_8 1_555 1_555
C18_8 N5_8 1_555 1_555
C18_8 N6_8 1_555 1_555
C24_7 N9_7 1_555 1_555
C28_7 N9_7 1_555 1_555
C35_7 N10_7 1_555 1_555
C36_7 N11_7 1_555 1_555
C36_7 N12_7 1_555 1_555
Zn1_8 I1_8 1_555 1_555
I2_8 Zn1_8 1_555 1_555
C22_7 C21_8 1_555 1_555
H15_7 C22_7 1_555 1_555
C23_7 C22_7 1_555 1_555
H16_7 C23_7 1_555 1_555
C24_8 H17_8 1_555 1_555
C25_8 C24_8 1_555 1_555
H18_8 C25_8 1_555 1_555
C26_8 C25_8 1_555 1_555
C27_8 C26_8 1_555 1_555
H19_8 C27_8 1_555 1_555
C28_8 C27_8 1_555 1_555
H20_8 C28_8 1_555 1_555
H22_8 C30_8 1_555 1_555
C34_8 C21_8 1_555 1_555
C36_8 C26_8 1_555 1_555
N9_8 Zn1_8 1_555 1_555
N10_8 C34_8 1_555 1_555
N11_8 C35_8 1_555 1_555
N12_8 C34_8 1_555 1_555
C24_8 N9_8 1_555 1_555
C28_8 N9_8 1_555 1_555
C35_8 N10_8 1_555 1_555
C36_8 N11_8 1_555 1_555
C36_8 N12_8 1_555 1_555
H15_8 C22_8 1_555 1_555
C23_8 C22_8 1_555 1_555
H16_8 C23_8 1_555 1_555

#END
