
###############################################################################
#
# This file contains modified crystal structure data generated from the
# MOF subset of the Cambridge Structural Database (CSD) v543 
# hosted by the Cambridge Crystallographic Data Centre (CCDC).
#
# This work is licensed under the Creative Commons
# Attribution-NonCommercial-ShareAlike 4.0 International License.
# To view a copy of this license, visit
# http://creativecommons.org/licenses/by-nc-sa/4.0/
# or send a letter to
# Creative Commons, PO Box 1866, Mountain View, CA 94042, USA.
#
# CIF created using the CSD Python API on 29 September 2022
# The structure has been converted into the P1 space group
# The structure has a 3D framework
# The original CSD entry UCOJED is in the orthorhombic crystal system
# The framework has been calculated to contain at least 10.0% void space
# The void calculation uses a probe of radius 1.32A, grid spacing 0.4
#
###############################################################################

data_UCOJED
_chemical_formula_moiety         '(C288 H192 I48 N92 Zn24)n'
_symmetry_cell_setting           triclinic
_symmetry_space_group_name_H-M   'P 1'
_symmetry_Int_Tables_number      1
_space_group_name_Hall           'P 1'
loop_
_symmetry_equiv_pos_site_id
_symmetry_equiv_pos_as_xyz
1 x,y,z
_cell_length_a                   27.110(5)
_cell_length_b                   13.785(3)
_cell_length_c                   45.814(9)
_cell_angle_alpha                90
_cell_angle_beta                 90
_cell_angle_gamma                90
_cell_volume                     17121.2
loop_
_atom_site_label
_atom_site_type_symbol
_atom_site_fract_x
_atom_site_fract_y
_atom_site_fract_z
Zn1 Zn 0.24344(8) 0.65442(11) 0.31134(4)
Zn3 Zn 0.44897(5) 0.35381(11) 0.07401(3)
I1 I 0.33636(6) 0.67180(11) 0.32062(3)
I2 I 0.19083(6) 0.80873(7) 0.30503(3)
I5 I 0.51659(3) 0.44655(8) 0.10070(2)
I6 I 0.44458(5) 0.17235(8) 0.06485(3)
C1 C 0.2726(5) 0.5489(9) 0.2583(3)
H1 H 0.3046 0.5562 0.2666
C2 C 0.2688(5) 0.5143(8) 0.2295(3)
H2 H 0.2972 0.4995 0.2181
C3 C 0.2213(4) 0.5026(7) 0.2183(3)
C4 C 0.1812(5) 0.5229(9) 0.2353(3)
H3 H 0.1489 0.5105 0.2282
C5 C 0.1881(6) 0.5604(10) 0.2619(3)
H4 H 0.1600 0.5803 0.2727
C6 C 0.0334(4) 0.3999(9) 0.1337(4)
H5 H 0.0035 0.3939 0.1444
C7 C 0.0780(5) 0.4172(9) 0.1489(3)
H6 H 0.0781 0.4239 0.1695
C8 C 0.1209(4) 0.4240(7) 0.1333(3)
C9 C 0.1177(5) 0.4163(10) 0.1037(3)
H7 H 0.1469 0.4226 0.0924
C10 C 0.0739(5) 0.3998(10) 0.0897(3)
H8 H 0.0732 0.3940 0.0690
C11 C 0.3407(5) 0.3844(9) 0.0837(2)
H9 H 0.3399 0.3698 0.0634
C12 C 0.2975(4) 0.3980(8) 0.0971(2)
H10 H 0.2671 0.3915 0.0870
C13 C 0.2993(4) 0.4230(7) 0.1273(2)
C14 C 0.3449(4) 0.4315(7) 0.1411(2)
H11 H 0.3478 0.4496 0.1610
C15 C 0.3851(4) 0.4121(7) 0.1241(2)
H12 H 0.4163 0.4155 0.1335
C16 C 0.2158(4) 0.4725(7) 0.1869(2)
C17 C 0.1703(4) 0.4382(7) 0.1480(3)
C18 C 0.2533(4) 0.4388(7) 0.1440(2)
C19 C 0.0597(6) 0.4806(11) 0.5328(3)
H13 H 0.0462 0.4470 0.5490
C20 C 0.0718(6) 0.4266(10) 0.5085(3)
H14 H 0.0646 0.3593 0.5075
C21 C 0.0951(4) 0.4745(9) 0.4853(2)
C22 C 0.1008(6) 0.5746(10) 0.4871(3)
H15 H 0.1144 0.6105 0.4714
C23 C 0.0859(5) 0.6211(10) 0.5128(2)
H16 H 0.0908 0.6892 0.5142
C24 C 0.1985(6) 0.6196(10) 0.3678(3)
H17 H 0.2038 0.6875 0.3693
C25 C 0.1776(7) 0.5690(10) 0.3917(3)
H18 H 0.1694 0.6022 0.4092
C26 C 0.1695(5) 0.4723(9) 0.3892(3)
C27 C 0.1851(8) 0.4258(11) 0.3655(3)
H19 H 0.1822 0.3572 0.3645
C28 C 0.2054(7) 0.4761(10) 0.3427(4)
H20 H 0.2160 0.4419 0.3258
C29 C 0.0858(6) 0.0370(10) 0.4011(3)
H21 H 0.0893 0.0049 0.3829
C30 C 0.1039(6) 0.1301(10) 0.4040(3)
H22 H 0.1197 0.1602 0.3879
C31 C 0.0993(4) 0.1797(9) 0.4296(3)
C32 C 0.0760(5) 0.1343(10) 0.4531(3)
H23 H 0.0711 0.1681 0.4710
C33 C 0.0597(5) 0.0372(11) 0.4500(4)
H24 H 0.0459 0.0032 0.4661
C34 C 0.1122(5) 0.4199(9) 0.4587(3)
C35 C 0.1465(4) 0.4200(9) 0.4151(2)
C36 C 0.1136(5) 0.2836(9) 0.4332(3)
N1 N 0.2339(4) 0.5717(7) 0.2744(2)
N2 N 0.0320(4) 0.3919(7) 0.1051(3)
N3 N 0.3855(3) 0.3896(7) 0.09661(18)
N4 N 0.1704(3) 0.4609(6) 0.1761(2)
N5 N 0.2093(3) 0.4235(7) 0.1308(2)
N6 N 0.2579(3) 0.4633(6) 0.1725(2)
N7 N 0.0654(4) 0.5761(8) 0.5352(2)
N8 N 0.2108(6) 0.5748(8) 0.3438(3)
N10 N 0.1357(4) 0.4709(7) 0.4386(2)
N11 N 0.1367(4) 0.3256(7) 0.4109(2)
N12 N 0.1011(4) 0.3285(7) 0.4579(2)
Zn5 Zn 0.05103(5) 0.64619(11) 0.57401(3)
N13 N 0.4346(4) 0.4239(8) 0.0352(2)
N9 N 0.4357(3) 0.0081(8) 0.9224(3)
Zn4 Zn 0.46729(6) 0.14312(11) 0.91689(5)
C19_2 C 0.4403(6) 0.5194(11) 0.0328(3)
H13_2 H 0.4538 0.5530 0.0490
C20_2 C 0.4282(6) 0.5734(10) 0.0085(3)
H14_2 H 0.4354 0.6407 0.0075
C23_2 C 0.4141(5) 0.3789(10) 0.0128(2)
H16_2 H 0.4092 0.3108 0.0142
Zn1_2 Zn 0.25656(8) 0.34558(11) 0.81134(4)
Zn2 Zn 0.53271(6) 0.64312(11) 0.58311(5)
I1_2 I 0.16364(6) 0.32820(11) 0.82062(3)
I2_2 I 0.30917(6) 0.19127(7) 0.80503(3)
I3 I 0.58519(5) 0.73611(10) 0.61872(5)
I4 I 0.50860(4) 0.71042(9) 0.53317(3)
I6_2 I 0.05542(5) 0.82765(8) 0.56485(3)
C1_2 C 0.2274(5) 0.4511(9) 0.7583(3)
H1_2 H 0.1954 0.4438 0.7666
C2_2 C 0.2312(5) 0.4857(8) 0.7295(3)
H2_2 H 0.2028 0.5005 0.7181
C3_2 C 0.2787(4) 0.4974(7) 0.7183(3)
C4_2 C 0.3188(5) 0.4771(9) 0.7353(3)
H3_2 H 0.3511 0.4895 0.7282
C5_2 C 0.3119(6) 0.4396(10) 0.7619(3)
H4_2 H 0.3400 0.4197 0.7727
C6_2 C 0.4666(4) 0.6001(9) 0.6337(4)
H5_2 H 0.4965 0.6061 0.6444
C7_2 C 0.4220(5) 0.5828(9) 0.6489(3)
H6_2 H 0.4219 0.5761 0.6695
C8_2 C 0.3791(4) 0.5760(7) 0.6333(3)
C9_2 C 0.3823(5) 0.5837(10) 0.6037(3)
H7_2 H 0.3531 0.5774 0.5924
C10_2 C 0.4261(5) 0.6002(10) 0.5897(3)
H8_2 H 0.4268 0.6060 0.5690
C11_2 C 0.1593(5) 0.6156(9) 0.5837(2)
H9_2 H 0.1601 0.6302 0.5634
C12_2 C 0.2025(4) 0.6020(8) 0.5971(2)
H10_2 H 0.2329 0.6085 0.5870
C13_2 C 0.2007(4) 0.5770(7) 0.6273(2)
C14_2 C 0.1551(4) 0.5685(7) 0.6411(2)
H11_2 H 0.1522 0.5504 0.6610
C15_2 C 0.1149(4) 0.5879(7) 0.6241(2)
H12_2 H 0.0837 0.5845 0.6335
C16_2 C 0.2842(4) 0.5275(7) 0.6869(2)
C17_2 C 0.3297(4) 0.5618(7) 0.6480(3)
C18_2 C 0.2467(4) 0.5612(7) 0.6440(2)
C21_2 C 0.4049(4) 0.5255(9) 0.9853(2)
C22_2 C 0.3992(6) 0.4254(10) 0.9871(3)
H15_2 H 0.3856 0.3895 0.9714
C24_2 C 0.3015(6) 0.3804(10) 0.8678(3)
H17_2 H 0.2962 0.3125 0.8693
C25_2 C 0.3224(7) 0.4310(10) 0.8917(3)
H18_2 H 0.3306 0.3978 0.9092
C26_2 C 0.3305(5) 0.5277(9) 0.8892(3)
C27_2 C 0.3149(8) 0.5742(11) 0.8655(3)
H19_2 H 0.3178 0.6428 0.8645
C28_2 C 0.2946(7) 0.5239(10) 0.8427(4)
H20_2 H 0.2840 0.5581 0.8258
C29_2 C 0.4142(6) 0.9630(10) 0.9011(3)
H21_2 H 0.4107 0.9951 0.8829
C30_2 C 0.3961(6) 0.8699(10) 0.9040(3)
H22_2 H 0.3803 0.8398 0.8879
C31_2 C 0.4007(4) 0.8203(9) 0.9296(3)
C32_2 C 0.4240(5) 0.8657(10) 0.9531(3)
H23_2 H 0.4289 0.8319 0.9710
C33_2 C 0.4403(5) 0.9628(11) 0.9500(4)
H24_2 H 0.4541 0.9968 0.9661
C34_2 C 0.3878(5) 0.5801(9) 0.9587(3)
C35_2 C 0.3535(4) 0.5800(9) 0.9151(2)
C36_2 C 0.3864(5) 0.7164(9) 0.9332(3)
N1_2 N 0.2661(4) 0.4283(7) 0.7744(2)
N2_2 N 0.4680(4) 0.6081(7) 0.6051(3)
N3_2 N 0.1145(3) 0.6104(7) 0.59661(18)
N4_2 N 0.3296(3) 0.5391(6) 0.6761(2)
N5_2 N 0.2907(3) 0.5765(7) 0.6308(2)
N6_2 N 0.2421(3) 0.5367(6) 0.6725(2)
N8_2 N 0.2892(6) 0.4252(8) 0.8438(3)
N10_2 N 0.3643(4) 0.5291(7) 0.9386(2)
N11_2 N 0.3633(4) 0.6744(7) 0.9109(2)
N12_2 N 0.3989(4) 0.6715(7) 0.9579(2)
N14 N 0.5643(3) 0.5081(8) 0.5776(3)
C23_3 C 0.9141(5) 0.1211(10) 0.9872(2)
H16_3 H 0.9092 0.1892 0.9858
N7_2 N 0.9346(4) 0.0761(8) 0.9648(2)
Zn5_2 Zn 0.94897(5) 0.14619(11) 0.92599(3)
I3_2 I 0.41481(5) 0.23611(10) 0.88128(5)
I4_2 I 0.49140(4) 0.21042(9) 0.96683(3)
I6_3 I 0.94458(5) 0.32765(8) 0.93515(3)
H2_3 H 0.7972 0.0005 0.7819
C6_3 C 0.5334(4) 0.1001(9) 0.8663(4)
H5_3 H 0.5035 0.1061 0.8556
C7_3 C 0.5780(5) 0.0828(9) 0.8511(3)
H6_3 H 0.5781 0.0761 0.8305
C8_3 C 0.6209(4) 0.0760(7) 0.8667(3)
C9_3 C 0.6177(5) 0.0837(10) 0.8963(3)
H7_3 H 0.6469 0.0774 0.9076
C10_3 C 0.5739(5) 0.1002(10) 0.9103(3)
H8_3 H 0.5732 0.1060 0.9310
C11_3 C 0.8407(5) 0.1156(9) 0.9163(2)
H9_3 H 0.8399 0.1302 0.9366
C12_3 C 0.7975(4) 0.1020(8) 0.9029(2)
H10_3 H 0.7671 0.1085 0.9130
C13_3 C 0.7993(4) 0.0770(7) 0.8727(2)
C14_3 C 0.8449(4) 0.0685(7) 0.8589(2)
H11_3 H 0.8478 0.0504 0.8390
C15_3 C 0.8851(4) 0.0879(7) 0.8759(2)
H12_3 H 0.9163 0.0845 0.8665
C16_3 C 0.7158(4) 0.0275(7) 0.8131(2)
C17_3 C 0.6703(4) 0.0618(7) 0.8520(3)
C18_3 C 0.7533(4) 0.0612(7) 0.8560(2)
C19_3 C 0.5597(6) 0.0194(11) 0.4672(3)
H13_3 H 0.5462 0.0530 0.4510
C20_3 C 0.5718(6) 0.0734(10) 0.4915(3)
H14_3 H 0.5646 0.1407 0.4925
C21_3 C 0.5951(4) 0.0255(9) 0.5147(2)
C26_3 C 0.6695(5) 0.0277(9) 0.6108(3)
C27_3 C 0.6851(8) 0.0742(11) 0.6345(3)
H19_3 H 0.6822 0.1428 0.6355
C28_3 C 0.7054(7) 0.0239(10) 0.6573(4)
H20_3 H 0.7160 0.0581 0.6742
C29_3 C 0.5858(6) 0.4630(10) 0.5989(3)
H21_3 H 0.5893 0.4951 0.6171
C30_3 C 0.6039(6) 0.3699(10) 0.5960(3)
H22_3 H 0.6197 0.3398 0.6121
C31_3 C 0.5993(4) 0.3203(9) 0.5704(3)
C32_3 C 0.5760(5) 0.3657(10) 0.5469(3)
H23_3 H 0.5711 0.3319 0.5290
C33_3 C 0.5597(5) 0.4628(11) 0.5500(4)
H24_3 H 0.5459 0.4968 0.5339
C34_3 C 0.6122(5) 0.0801(9) 0.5413(3)
C35_3 C 0.6465(4) 0.0800(9) 0.5849(2)
C36_3 C 0.6136(5) 0.2164(9) 0.5668(3)
N2_3 N 0.5320(4) 0.1081(7) 0.8949(3)
N3_3 N 0.8855(3) 0.1104(7) 0.90339(18)
N4_3 N 0.6704(3) 0.0391(6) 0.8239(2)
N5_3 N 0.7093(3) 0.0765(7) 0.8692(2)
N6_3 N 0.7579(3) 0.0367(6) 0.8275(2)
N10_3 N 0.6357(4) 0.0291(7) 0.5614(2)
N11_3 N 0.6367(4) 0.1744(7) 0.5891(2)
N12_3 N 0.6011(4) 0.1715(7) 0.5421(2)
N9_2 N 0.0643(3) 0.9919(8) 0.4224(3)
Zn4_2 Zn 0.03271(6) 0.85688(11) 0.41689(5)
I3_3 I 0.08519(5) 0.76389(10) 0.38128(5)
I4_3 I 0.00860(4) 0.78958(9) 0.46683(3)
Zn2_2 Zn 0.96729(6) 0.35688(11) 0.08311(5)
I3_4 I 0.91481(5) 0.26389(10) 0.11872(5)
I4_4 I 0.99140(4) 0.28958(9) 0.03317(3)
N14_2 N 0.9357(3) 0.4919(8) 0.0776(3)
Zn3_2 Zn 0.55103(5) 0.85381(11) 0.42599(3)
I5_2 I 0.48341(3) 0.94655(8) 0.39930(2)
I6_4 I 0.55542(5) 0.67235(8) 0.43515(3)
H2_4 H 0.7028 0.9995 0.2819
C6_4 C 0.9666(4) 0.8999(9) 0.3663(4)
H5_4 H 0.9965 0.8939 0.3556
C7_4 C 0.9220(5) 0.9172(9) 0.3511(3)
H6_4 H 0.9219 0.9239 0.3305
C8_4 C 0.8791(4) 0.9240(7) 0.3667(3)
C9_4 C 0.8823(5) 0.9163(10) 0.3963(3)
H7_4 H 0.8531 0.9226 0.4076
C10_4 C 0.9261(5) 0.8998(10) 0.4103(3)
H8_4 H 0.9268 0.8940 0.4310
C11_4 C 0.6593(5) 0.8844(9) 0.4163(2)
H9_4 H 0.6601 0.8698 0.4366
C12_4 C 0.7025(4) 0.8980(8) 0.4029(2)
H10_4 H 0.7329 0.8915 0.4130
C13_4 C 0.7007(4) 0.9230(7) 0.3727(2)
C14_4 C 0.6551(4) 0.9315(7) 0.3589(2)
H11_4 H 0.6522 0.9496 0.3390
C15_4 C 0.6149(4) 0.9121(7) 0.3759(2)
H12_4 H 0.5837 0.9155 0.3665
C16_4 C 0.7842(4) 0.9725(7) 0.3131(2)
C17_4 C 0.8297(4) 0.9382(7) 0.3520(3)
C18_4 C 0.7467(4) 0.9388(7) 0.3560(2)
C21_4 C 0.9049(4) 0.9745(9) 0.0147(2)
C26_4 C 0.8305(5) 0.9723(9) 0.1108(3)
C27_4 C 0.8149(8) 0.9258(11) 0.1345(3)
H19_4 H 0.8178 0.8572 0.1355
C28_4 C 0.7946(7) 0.9761(10) 0.1573(4)
H20_4 H 0.7840 0.9419 0.1742
C29_4 C 0.9142(6) 0.5370(10) 0.0989(3)
H21_4 H 0.9107 0.5049 0.1171
C30_4 C 0.8961(6) 0.6301(10) 0.0960(3)
H22_4 H 0.8803 0.6602 0.1121
C31_4 C 0.9007(4) 0.6797(9) 0.0704(3)
C32_4 C 0.9240(5) 0.6343(10) 0.0469(3)
H23_4 H 0.9289 0.6681 0.0290
C33_4 C 0.9403(5) 0.5372(11) 0.0500(4)
H24_4 H 0.9541 0.5032 0.0339
C34_4 C 0.8878(5) 0.9199(9) 0.0413(3)
C35_4 C 0.8535(4) 0.9200(9) 0.0849(2)
C36_4 C 0.8864(5) 0.7836(9) 0.0668(3)
N2_4 N 0.9680(4) 0.8919(7) 0.3949(3)
N3_4 N 0.6145(3) 0.8896(7) 0.40339(18)
N4_4 N 0.8296(3) 0.9609(6) 0.3239(2)
N5_4 N 0.7907(3) 0.9235(7) 0.3692(2)
N6_4 N 0.7421(3) 0.9633(6) 0.3275(2)
N10_4 N 0.8643(4) 0.9709(7) 0.0614(2)
N11_4 N 0.8633(4) 0.8256(7) 0.0891(2)
N12_4 N 0.8989(4) 0.8285(7) 0.0421(2)
N13_2 N 0.5654(4) 0.9239(8) 0.4648(2)
Zn1_3 Zn 0.74344(8) 0.84558(11) 0.68866(4)
I1_3 I 0.83636(6) 0.82820(11) 0.67938(3)
I2_3 I 0.69083(6) 0.69127(7) 0.69497(3)
C1_3 C 0.7726(5) 0.9511(9) 0.7417(3)
H1_3 H 0.8046 0.9438 0.7334
C2_3 C 0.7688(5) 0.9857(8) 0.7705(3)
C3_3 C 0.7213(4) 0.9974(7) 0.7817(3)
C4_3 C 0.6812(5) 0.9771(9) 0.7647(3)
H3_3 H 0.6489 0.9895 0.7718
C5_3 C 0.6881(6) 0.9396(10) 0.7381(3)
H4_3 H 0.6600 0.9197 0.7273
C22_3 C 0.6008(6) 0.9254(10) 0.5129(3)
H15_3 H 0.6144 0.8895 0.5286
C23_4 C 0.5859(5) 0.8789(10) 0.4872(2)
H16_4 H 0.5908 0.8108 0.4858
C24_3 C 0.6985(6) 0.8804(10) 0.6322(3)
H17_3 H 0.7038 0.8125 0.6307
C25_3 C 0.6776(7) 0.9310(10) 0.6083(3)
H18_3 H 0.6694 0.8978 0.5908
N1_3 N 0.7339(4) 0.9283(7) 0.7256(2)
N8_3 N 0.7108(6) 0.9252(8) 0.6562(3)
I5_3 I 0.98341(3) 0.55345(8) 0.60070(2)
Zn1_4 Zn 0.75656(8) 0.15442(11) 0.18866(4)
I1_4 I 0.66364(6) 0.17180(11) 0.17938(3)
I2_4 I 0.80917(6) 0.30873(7) 0.19497(3)
C1_4 C 0.7274(5) 0.0489(9) 0.2417(3)
H1_4 H 0.6954 0.0562 0.2334
C2_4 C 0.7312(5) 0.0143(8) 0.2705(3)
C3_4 C 0.7787(4) 0.0026(7) 0.2817(3)
C4_4 C 0.8188(5) 0.0229(9) 0.2647(3)
H3_4 H 0.8511 0.0105 0.2718
C5_4 C 0.8119(6) 0.0604(10) 0.2381(3)
H4_4 H 0.8400 0.0803 0.2273
C22_4 C 0.8992(6) 0.0746(10) 0.0129(3)
H15_4 H 0.8856 0.1105 0.0286
C24_4 C 0.8015(6) 0.1196(10) 0.1322(3)
H17_4 H 0.7962 0.1875 0.1307
C25_4 C 0.8224(7) 0.0690(10) 0.1083(3)
H18_4 H 0.8306 0.1022 0.0908
N1_4 N 0.7661(4) 0.0717(7) 0.2256(2)
N8_4 N 0.7892(6) 0.0748(8) 0.1562(3)
C19_4 C 0.9403(6) 0.9806(11) 0.9672(3)
H13_4 H 0.9538 0.9470 0.9510
C20_4 C 0.9282(6) 0.9266(10) 0.9915(3)
H14_4 H 0.9354 0.8593 0.9925
I5_4 I 0.01659(3) 0.05345(8) 0.89930(2)
Zn2_3 Zn 0.03271(6) 0.64312(11) 0.91689(5)
I3_5 I 0.08519(5) 0.73611(10) 0.88128(5)
I4_5 I 0.00860(4) 0.71042(9) 0.96683(3)
N14_3 N 0.0643(3) 0.5081(8) 0.9224(3)
Zn3_3 Zn 0.44897(5) 0.14619(11) 0.57401(3)
I5_5 I 0.51659(3) 0.05345(8) 0.60070(2)
I6_5 I 0.44458(5) 0.32765(8) 0.56485(3)
H2_5 H 0.2972 0.0005 0.7181
C6_5 C 0.0334(4) 0.1001(9) 0.6337(4)
H5_5 H 0.0035 0.1061 0.6444
C7_5 C 0.0780(5) 0.0828(9) 0.6489(3)
H6_5 H 0.0781 0.0761 0.6695
C8_5 C 0.1209(4) 0.0760(7) 0.6333(3)
C9_5 C 0.1177(5) 0.0837(10) 0.6037(3)
H7_5 H 0.1469 0.0774 0.5924
C10_5 C 0.0739(5) 0.1002(10) 0.5897(3)
H8_5 H 0.0732 0.1060 0.5690
C11_5 C 0.3407(5) 0.1156(9) 0.5837(2)
H9_5 H 0.3399 0.1302 0.5634
C12_5 C 0.2975(4) 0.1020(8) 0.5971(2)
H10_5 H 0.2671 0.1085 0.5870
C13_5 C 0.2993(4) 0.0770(7) 0.6273(2)
C14_5 C 0.3449(4) 0.0685(7) 0.6411(2)
H11_5 H 0.3478 0.0504 0.6610
C15_5 C 0.3851(4) 0.0879(7) 0.6241(2)
H12_5 H 0.4163 0.0845 0.6335
C16_5 C 0.2158(4) 0.0275(7) 0.6869(2)
C17_5 C 0.1703(4) 0.0618(7) 0.6480(3)
C18_5 C 0.2533(4) 0.0612(7) 0.6440(2)
C21_5 C 0.0951(4) 0.0255(9) 0.9853(2)
C26_5 C 0.1695(5) 0.0277(9) 0.8892(3)
C27_5 C 0.1851(8) 0.0742(11) 0.8655(3)
H19_5 H 0.1822 0.1428 0.8645
C28_5 C 0.2054(7) 0.0239(10) 0.8427(4)
H20_5 H 0.2160 0.0581 0.8258
C29_5 C 0.0858(6) 0.4630(10) 0.9011(3)
H21_5 H 0.0893 0.4951 0.8829
C30_5 C 0.1039(6) 0.3699(10) 0.9040(3)
H22_5 H 0.1197 0.3398 0.8879
C31_5 C 0.0993(4) 0.3203(9) 0.9296(3)
C32_5 C 0.0760(5) 0.3657(10) 0.9531(3)
H23_5 H 0.0711 0.3319 0.9710
C33_5 C 0.0597(5) 0.4628(11) 0.9500(4)
H24_5 H 0.0459 0.4968 0.9661
C34_5 C 0.1122(5) 0.0801(9) 0.9587(3)
C35_5 C 0.1465(4) 0.0800(9) 0.9151(2)
C36_5 C 0.1136(5) 0.2164(9) 0.9332(3)
N2_5 N 0.0320(4) 0.1081(7) 0.6051(3)
N3_5 N 0.3855(3) 0.1104(7) 0.59661(18)
N4_5 N 0.1704(3) 0.0391(6) 0.6761(2)
N5_5 N 0.2093(3) 0.0765(7) 0.6308(2)
N6_5 N 0.2579(3) 0.0367(6) 0.6725(2)
N10_5 N 0.1357(4) 0.0291(7) 0.9386(2)
N11_5 N 0.1367(4) 0.1744(7) 0.9109(2)
N12_5 N 0.1011(4) 0.1715(7) 0.9579(2)
N13_3 N 0.4346(4) 0.0761(8) 0.5352(2)
Zn1_5 Zn 0.25656(8) 0.15442(11) 0.31134(4)
I1_5 I 0.16364(6) 0.17180(11) 0.32062(3)
I2_5 I 0.30917(6) 0.30873(7) 0.30503(3)
C1_5 C 0.2274(5) 0.0489(9) 0.2583(3)
H1_5 H 0.1954 0.0562 0.2666
C2_5 C 0.2312(5) 0.0143(8) 0.2295(3)
C3_5 C 0.2787(4) 0.0026(7) 0.2183(3)
C4_5 C 0.3188(5) 0.0229(9) 0.2353(3)
H3_5 H 0.3511 0.0105 0.2282
C5_5 C 0.3119(6) 0.0604(10) 0.2619(3)
H4_5 H 0.3400 0.0803 0.2727
C22_5 C 0.3992(6) 0.0746(10) 0.4871(3)
H15_5 H 0.3856 0.1105 0.4714
C23_5 C 0.4141(5) 0.1211(10) 0.5128(2)
H16_5 H 0.4092 0.1892 0.5142
C24_5 C 0.3015(6) 0.1196(10) 0.3678(3)
H17_5 H 0.2962 0.1875 0.3693
C25_5 C 0.3224(7) 0.0690(10) 0.3917(3)
H18_5 H 0.3306 0.1022 0.4092
N1_5 N 0.2661(4) 0.0717(7) 0.2744(2)
N8_5 N 0.2892(6) 0.0748(8) 0.3438(3)
N9_3 N 0.9357(3) 0.0081(8) 0.5776(3)
Zn4_3 Zn 0.96729(6) 0.14312(11) 0.58311(5)
I3_6 I 0.91481(5) 0.23611(10) 0.61872(5)
I4_6 I 0.99140(4) 0.21042(9) 0.53317(3)
Zn1_6 Zn 0.75656(8) 0.34558(11) 0.68866(4)
Zn3_4 Zn 0.55103(5) 0.64619(11) 0.92599(3)
I1_6 I 0.66364(6) 0.32820(11) 0.67938(3)
I2_6 I 0.80917(6) 0.19127(7) 0.69497(3)
I5_6 I 0.48341(3) 0.55345(8) 0.89930(2)
I6_6 I 0.55542(5) 0.82765(8) 0.93515(3)
C1_6 C 0.7274(5) 0.4511(9) 0.7417(3)
H1_6 H 0.6954 0.4438 0.7334
C2_6 C 0.7312(5) 0.4857(8) 0.7705(3)
H2_6 H 0.7028 0.5005 0.7819
C3_6 C 0.7787(4) 0.4974(7) 0.7817(3)
C4_6 C 0.8188(5) 0.4771(9) 0.7647(3)
H3_6 H 0.8511 0.4895 0.7718
C5_6 C 0.8119(6) 0.4396(10) 0.7381(3)
H4_6 H 0.8400 0.4197 0.7273
C6_6 C 0.9666(4) 0.6001(9) 0.8663(4)
H5_6 H 0.9965 0.6061 0.8556
C7_6 C 0.9220(5) 0.5828(9) 0.8511(3)
H6_6 H 0.9219 0.5761 0.8305
C8_6 C 0.8791(4) 0.5760(7) 0.8667(3)
C9_6 C 0.8823(5) 0.5837(10) 0.8963(3)
H7_6 H 0.8531 0.5774 0.9076
C10_6 C 0.9261(5) 0.6002(10) 0.9103(3)
H8_6 H 0.9268 0.6060 0.9310
C11_6 C 0.6593(5) 0.6156(9) 0.9163(2)
H9_6 H 0.6601 0.6302 0.9366
C12_6 C 0.7025(4) 0.6020(8) 0.9029(2)
H10_6 H 0.7329 0.6085 0.9130
C13_6 C 0.7007(4) 0.5770(7) 0.8727(2)
C14_6 C 0.6551(4) 0.5685(7) 0.8589(2)
H11_6 H 0.6522 0.5504 0.8390
C15_6 C 0.6149(4) 0.5879(7) 0.8759(2)
H12_6 H 0.5837 0.5845 0.8665
C16_6 C 0.7842(4) 0.5275(7) 0.8131(2)
C17_6 C 0.8297(4) 0.5618(7) 0.8520(3)
C18_6 C 0.7467(4) 0.5612(7) 0.8560(2)
C19_5 C 0.9403(6) 0.5194(11) 0.4672(3)
H13_5 H 0.9538 0.5530 0.4510
C20_5 C 0.9282(6) 0.5734(10) 0.4915(3)
H14_5 H 0.9354 0.6407 0.4925
C21_6 C 0.9049(4) 0.5255(9) 0.5147(2)
C22_6 C 0.8992(6) 0.4254(10) 0.5129(3)
H15_6 H 0.8856 0.3895 0.5286
C23_6 C 0.9141(5) 0.3789(10) 0.4872(2)
H16_6 H 0.9092 0.3108 0.4858
C24_6 C 0.8015(6) 0.3804(10) 0.6322(3)
H17_6 H 0.7962 0.3125 0.6307
C25_6 C 0.8224(7) 0.4310(10) 0.6083(3)
H18_6 H 0.8306 0.3978 0.5908
C26_6 C 0.8305(5) 0.5277(9) 0.6108(3)
C27_6 C 0.8149(8) 0.5742(11) 0.6345(3)
H19_6 H 0.8178 0.6428 0.6355
C28_6 C 0.7946(7) 0.5239(10) 0.6573(4)
H20_6 H 0.7840 0.5581 0.6742
C29_6 C 0.9142(6) 0.9630(10) 0.5989(3)
H21_6 H 0.9107 0.9951 0.6171
C30_6 C 0.8961(6) 0.8699(10) 0.5960(3)
H22_6 H 0.8803 0.8398 0.6121
C31_6 C 0.9007(4) 0.8203(9) 0.5704(3)
C32_6 C 0.9240(5) 0.8657(10) 0.5469(3)
H23_6 H 0.9289 0.8319 0.5290
C33_6 C 0.9403(5) 0.9628(11) 0.5500(4)
H24_6 H 0.9541 0.9968 0.5339
C34_6 C 0.8878(5) 0.5801(9) 0.5413(3)
C35_6 C 0.8535(4) 0.5800(9) 0.5849(2)
C36_6 C 0.8864(5) 0.7164(9) 0.5668(3)
N1_6 N 0.7661(4) 0.4283(7) 0.7256(2)
N2_6 N 0.9680(4) 0.6081(7) 0.8949(3)
N3_6 N 0.6145(3) 0.6104(7) 0.90339(18)
N4_6 N 0.8296(3) 0.5391(6) 0.8239(2)
N5_6 N 0.7907(3) 0.5765(7) 0.8692(2)
N6_6 N 0.7421(3) 0.5367(6) 0.8275(2)
N7_3 N 0.9346(4) 0.4239(8) 0.4648(2)
N8_6 N 0.7892(6) 0.4252(8) 0.6562(3)
N10_6 N 0.8643(4) 0.5291(7) 0.5614(2)
N11_6 N 0.8633(4) 0.6744(7) 0.5891(2)
N12_6 N 0.8989(4) 0.6715(7) 0.5421(2)
Zn5_3 Zn 0.94897(5) 0.35381(11) 0.42599(3)
N13_4 N 0.5654(4) 0.5761(8) 0.9648(2)
Zn1_7 Zn 0.74344(8) 0.65442(11) 0.18866(4)
Zn2_4 Zn 0.46729(6) 0.35688(11) 0.41689(5)
I1_7 I 0.83636(6) 0.67180(11) 0.17938(3)
I2_7 I 0.69083(6) 0.80873(7) 0.19497(3)
I3_7 I 0.41481(5) 0.26389(10) 0.38128(5)
I4_7 I 0.49140(4) 0.28958(9) 0.46683(3)
I6_7 I 0.94458(5) 0.17235(8) 0.43515(3)
C1_7 C 0.7726(5) 0.5489(9) 0.2417(3)
H1_7 H 0.8046 0.5562 0.2334
C2_7 C 0.7688(5) 0.5143(8) 0.2705(3)
H2_7 H 0.7972 0.4995 0.2819
C3_7 C 0.7213(4) 0.5026(7) 0.2817(3)
C4_7 C 0.6812(5) 0.5229(9) 0.2647(3)
H3_7 H 0.6489 0.5105 0.2718
C5_7 C 0.6881(6) 0.5604(10) 0.2381(3)
H4_7 H 0.6600 0.5803 0.2273
C6_7 C 0.5334(4) 0.3999(9) 0.3663(4)
H5_7 H 0.5035 0.3939 0.3556
C7_7 C 0.5780(5) 0.4172(9) 0.3511(3)
H6_7 H 0.5781 0.4239 0.3305
C8_7 C 0.6209(4) 0.4240(7) 0.3667(3)
C9_7 C 0.6177(5) 0.4163(10) 0.3963(3)
H7_7 H 0.6469 0.4226 0.4076
C10_7 C 0.5739(5) 0.3998(10) 0.4103(3)
H8_7 H 0.5732 0.3940 0.4310
C11_7 C 0.8407(5) 0.3844(9) 0.4163(2)
H9_7 H 0.8399 0.3698 0.4366
C12_7 C 0.7975(4) 0.3980(8) 0.4029(2)
H10_7 H 0.7671 0.3915 0.4130
C13_7 C 0.7993(4) 0.4230(7) 0.3727(2)
C14_7 C 0.8449(4) 0.4315(7) 0.3589(2)
H11_7 H 0.8478 0.4496 0.3390
C15_7 C 0.8851(4) 0.4121(7) 0.3759(2)
H12_7 H 0.9163 0.4155 0.3665
C16_7 C 0.7158(4) 0.4725(7) 0.3131(2)
C17_7 C 0.6703(4) 0.4382(7) 0.3520(3)
C18_7 C 0.7533(4) 0.4388(7) 0.3560(2)
C21_7 C 0.5951(4) 0.4745(9) 0.0147(2)
C22_7 C 0.6008(6) 0.5746(10) 0.0129(3)
H15_7 H 0.6144 0.6105 0.0286
C24_7 C 0.6985(6) 0.6196(10) 0.1322(3)
H17_7 H 0.7038 0.6875 0.1307
C25_7 C 0.6776(7) 0.5690(10) 0.1083(3)
H18_7 H 0.6694 0.6022 0.0908
C26_7 C 0.6695(5) 0.4723(9) 0.1108(3)
C27_7 C 0.6851(8) 0.4258(11) 0.1345(3)
H19_7 H 0.6822 0.3572 0.1355
C28_7 C 0.7054(7) 0.4761(10) 0.1573(4)
H20_7 H 0.7160 0.4419 0.1742
C29_7 C 0.5858(6) 0.0370(10) 0.0989(3)
H21_7 H 0.5893 0.0049 0.1171
C30_7 C 0.6039(6) 0.1301(10) 0.0960(3)
H22_7 H 0.6197 0.1602 0.1121
C31_7 C 0.5993(4) 0.1797(9) 0.0704(3)
C32_7 C 0.5760(5) 0.1343(10) 0.0469(3)
H23_7 H 0.5711 0.1681 0.0290
C33_7 C 0.5597(5) 0.0372(11) 0.0500(4)
H24_7 H 0.5459 0.0032 0.0339
C34_7 C 0.6122(5) 0.4199(9) 0.0413(3)
C35_7 C 0.6465(4) 0.4200(9) 0.0849(2)
C36_7 C 0.6136(5) 0.2836(9) 0.0668(3)
N1_7 N 0.7339(4) 0.5717(7) 0.2256(2)
N2_7 N 0.5320(4) 0.3919(7) 0.3949(3)
N3_7 N 0.8855(3) 0.3896(7) 0.40339(18)
N4_7 N 0.6704(3) 0.4609(6) 0.3239(2)
N5_7 N 0.7093(3) 0.4235(7) 0.3692(2)
N6_7 N 0.7579(3) 0.4633(6) 0.3275(2)
N8_7 N 0.7108(6) 0.5748(8) 0.1562(3)
N10_7 N 0.6357(4) 0.4709(7) 0.0614(2)
N11_7 N 0.6367(4) 0.3256(7) 0.0891(2)
N12_7 N 0.6011(4) 0.3285(7) 0.0421(2)
N14_4 N 0.4357(3) 0.4919(8) 0.4224(3)
C19_6 C 0.5597(6) 0.4806(11) 0.9672(3)
H13_6 H 0.5462 0.4470 0.9510
C20_6 C 0.5718(6) 0.4266(10) 0.9915(3)
H14_6 H 0.5646 0.3593 0.9925
C23_7 C 0.5859(5) 0.6211(10) 0.9872(2)
H16_7 H 0.5908 0.6892 0.9858
N9_4 N 0.5643(3) 0.9919(8) 0.0776(3)
Zn4_4 Zn 0.53271(6) 0.85688(11) 0.08311(5)
C23_8 C 0.0859(5) 0.8789(10) 0.0128(2)
H16_8 H 0.0908 0.8108 0.0142
N7_4 N 0.0654(4) 0.9239(8) 0.0352(2)
Zn5_4 Zn 0.05103(5) 0.85381(11) 0.07401(3)
I3_8 I 0.58519(5) 0.76389(10) 0.11872(5)
I4_8 I 0.50860(4) 0.78958(9) 0.03317(3)
I6_8 I 0.05542(5) 0.67235(8) 0.06485(3)
H2_8 H 0.2028 0.9995 0.2181
C6_8 C 0.4666(4) 0.8999(9) 0.1337(4)
H5_8 H 0.4965 0.8939 0.1444
C7_8 C 0.4220(5) 0.9172(9) 0.1489(3)
H6_8 H 0.4219 0.9239 0.1695
C8_8 C 0.3791(4) 0.9240(7) 0.1333(3)
C9_8 C 0.3823(5) 0.9163(10) 0.1037(3)
H7_8 H 0.3531 0.9226 0.0924
C10_8 C 0.4261(5) 0.8998(10) 0.0897(3)
H8_8 H 0.4268 0.8940 0.0690
C11_8 C 0.1593(5) 0.8844(9) 0.0837(2)
H9_8 H 0.1601 0.8698 0.0634
C12_8 C 0.2025(4) 0.8980(8) 0.0971(2)
H10_8 H 0.2329 0.8915 0.0870
C13_8 C 0.2007(4) 0.9230(7) 0.1273(2)
C14_8 C 0.1551(4) 0.9315(7) 0.1411(2)
H11_8 H 0.1522 0.9496 0.1610
C15_8 C 0.1149(4) 0.9121(7) 0.1241(2)
H12_8 H 0.0837 0.9155 0.1335
C16_8 C 0.2842(4) 0.9725(7) 0.1869(2)
C17_8 C 0.3297(4) 0.9382(7) 0.1480(3)
C18_8 C 0.2467(4) 0.9388(7) 0.1440(2)
C19_7 C 0.4403(6) 0.9806(11) 0.5328(3)
H13_7 H 0.4538 0.9470 0.5490
C20_7 C 0.4282(6) 0.9266(10) 0.5085(3)
H14_7 H 0.4354 0.8593 0.5075
C21_8 C 0.4049(4) 0.9745(9) 0.4853(2)
C26_8 C 0.3305(5) 0.9723(9) 0.3892(3)
C27_8 C 0.3149(8) 0.9258(11) 0.3655(3)
H19_8 H 0.3178 0.8572 0.3645
C28_8 C 0.2946(7) 0.9761(10) 0.3427(4)
H20_8 H 0.2840 0.9419 0.3258
C29_8 C 0.4142(6) 0.5370(10) 0.4011(3)
H21_8 H 0.4107 0.5049 0.3829
C30_8 C 0.3961(6) 0.6301(10) 0.4040(3)
H22_8 H 0.3803 0.6602 0.3879
C31_8 C 0.4007(4) 0.6797(9) 0.4296(3)
C32_8 C 0.4240(5) 0.6343(10) 0.4531(3)
H23_8 H 0.4289 0.6681 0.4710
C33_8 C 0.4403(5) 0.5372(11) 0.4500(4)
H24_8 H 0.4541 0.5032 0.4661
C34_8 C 0.3878(5) 0.9199(9) 0.4587(3)
C35_8 C 0.3535(4) 0.9200(9) 0.4151(2)
C36_8 C 0.3864(5) 0.7836(9) 0.4332(3)
N2_8 N 0.4680(4) 0.8919(7) 0.1051(3)
N3_8 N 0.1145(3) 0.8896(7) 0.09661(18)
N4_8 N 0.3296(3) 0.9609(6) 0.1761(2)
N5_8 N 0.2907(3) 0.9235(7) 0.1308(2)
N6_8 N 0.2421(3) 0.9633(6) 0.1725(2)
N10_8 N 0.3643(4) 0.9709(7) 0.4386(2)
N11_8 N 0.3633(4) 0.8256(7) 0.4109(2)
N12_8 N 0.3989(4) 0.8285(7) 0.4579(2)
I5_7 I 0.01659(3) 0.44655(8) 0.39930(2)
C19_8 C 0.0597(6) 0.0194(11) 0.0328(3)
H13_8 H 0.0462 0.0530 0.0490
C20_8 C 0.0718(6) 0.0734(10) 0.0085(3)
H14_8 H 0.0646 0.1407 0.0075
Zn1_8 Zn 0.24344(8) 0.84558(11) 0.81134(4)
I1_8 I 0.33636(6) 0.82820(11) 0.82062(3)
I2_8 I 0.19083(6) 0.69127(7) 0.80503(3)
C1_8 C 0.2726(5) 0.9511(9) 0.7583(3)
H1_8 H 0.3046 0.9438 0.7666
C2_8 C 0.2688(5) 0.9857(8) 0.7295(3)
C3_8 C 0.2213(4) 0.9974(7) 0.7183(3)
C4_8 C 0.1812(5) 0.9771(9) 0.7353(3)
H3_8 H 0.1489 0.9895 0.7282
C5_8 C 0.1881(6) 0.9396(10) 0.7619(3)
H4_8 H 0.1600 0.9197 0.7727
C22_8 C 0.1008(6) 0.9254(10) 0.9871(3)
H15_8 H 0.1144 0.8895 0.9714
C24_8 C 0.1985(6) 0.8804(10) 0.8678(3)
H17_8 H 0.2038 0.8125 0.8693
C25_8 C 0.1776(7) 0.9310(10) 0.8917(3)
H18_8 H 0.1694 0.8978 0.9092
N1_8 N 0.2339(4) 0.9283(7) 0.7744(2)
N8_8 N 0.2108(6) 0.9252(8) 0.8438(3)
I5_8 I 0.98341(3) 0.94655(8) 0.10070(2)
loop_
_geom_bond_atom_site_label_1
_geom_bond_atom_site_label_2
_geom_bond_site_symmetry_1
_geom_bond_site_symmetry_2
Zn1 I1 1_555 1_555
Zn3 I5 1_555 1_555
I2 Zn1 1_555 1_555
I6 Zn3 1_555 1_555
C1 H1 1_555 1_555
C2 C1 1_555 1_555
H2 C2 1_555 1_555
C3 C2 1_555 1_555
C4 C3 1_555 1_555
H3 C4 1_555 1_555
C5 C4 1_555 1_555
H4 C5 1_555 1_555
C6 H5 1_555 1_555
C7 C6 1_555 1_555
H6 C7 1_555 1_555
C8 C7 1_555 1_555
C9 C8 1_555 1_555
H7 C9 1_555 1_555
C10 C9 1_555 1_555
H8 C10 1_555 1_555
C11 H9 1_555 1_555
C12 C11 1_555 1_555
H10 C12 1_555 1_555
C13 C12 1_555 1_555
C14 C13 1_555 1_555
H11 C14 1_555 1_555
C15 C14 1_555 1_555
H12 C15 1_555 1_555
C16 C3 1_555 1_555
C17 C8 1_555 1_555
C18 C13 1_555 1_555
C19 H13 1_555 1_555
C20 C19 1_555 1_555
H14 C20 1_555 1_555
C21 C20 1_555 1_555
C22 C21 1_555 1_555
H15 C22 1_555 1_555
C23 C22 1_555 1_555
H16 C23 1_555 1_555
C24 H17 1_555 1_555
C25 C24 1_555 1_555
H18 C25 1_555 1_555
C26 C25 1_555 1_555
C27 C26 1_555 1_555
H19 C27 1_555 1_555
C28 C27 1_555 1_555
H20 C28 1_555 1_555
C29 H21 1_555 1_555
C30 C29 1_555 1_555
H22 C30 1_555 1_555
C31 C30 1_555 1_555
C32 C31 1_555 1_555
H23 C32 1_555 1_555
C33 C32 1_555 1_555
H24 C33 1_555 1_555
C34 C21 1_555 1_555
C35 C26 1_555 1_555
C36 C31 1_555 1_555
N1 Zn1 1_555 1_555
N3 Zn3 1_555 1_555
N4 C16 1_555 1_555
N5 C17 1_555 1_555
N6 C16 1_555 1_555
N7 C19 1_555 1_555
N8 Zn1 1_555 1_555
N10 C34 1_555 1_555
N11 C35 1_555 1_555
N12 C34 1_555 1_555
Zn5 N7 1_555 1_555
N13 Zn3 1_555 1_555
C1 N1 1_555 1_555
C5 N1 1_555 1_555
C6 N2 1_555 1_555
C10 N2 1_555 1_555
C11 N3 1_555 1_555
C15 N3 1_555 1_555
C17 N4 1_555 1_555
C18 N5 1_555 1_555
C18 N6 1_555 1_555
C23 N7 1_555 1_555
C24 N8 1_555 1_555
C28 N8 1_555 1_555
C35 N10 1_555 1_555
C36 N11 1_555 1_555
C36 N12 1_555 1_555
Zn4 N9 1_555 1_555
C19_2 H13_2 1_555 1_555
C20_2 C19_2 1_555 1_555
H14_2 C20_2 1_555 1_555
H16_2 C23_2 1_555 1_555
N13 C19_2 1_555 1_555
C23_2 N13 1_555 1_555
Zn1_2 I1_2 1_555 1_555
Zn2 I3 1_555 1_555
I2_2 Zn1_2 1_555 1_555
I4 Zn2 1_555 1_555
I6_2 Zn5 1_555 1_555
C1_2 H1_2 1_555 1_555
C2_2 C1_2 1_555 1_555
H2_2 C2_2 1_555 1_555
C3_2 C2_2 1_555 1_555
C4_2 C3_2 1_555 1_555
H3_2 C4_2 1_555 1_555
C5_2 C4_2 1_555 1_555
H4_2 C5_2 1_555 1_555
C6_2 H5_2 1_555 1_555
C7_2 C6_2 1_555 1_555
H6_2 C7_2 1_555 1_555
C8_2 C7_2 1_555 1_555
C9_2 C8_2 1_555 1_555
H7_2 C9_2 1_555 1_555
C10_2 C9_2 1_555 1_555
H8_2 C10_2 1_555 1_555
C11_2 H9_2 1_555 1_555
C12_2 C11_2 1_555 1_555
H10_2 C12_2 1_555 1_555
C13_2 C12_2 1_555 1_555
C14_2 C13_2 1_555 1_555
H11_2 C14_2 1_555 1_555
C15_2 C14_2 1_555 1_555
H12_2 C15_2 1_555 1_555
C16_2 C3_2 1_555 1_555
C17_2 C8_2 1_555 1_555
C18_2 C13_2 1_555 1_555
C22_2 C21_2 1_555 1_555
H15_2 C22_2 1_555 1_555
C24_2 H17_2 1_555 1_555
C25_2 C24_2 1_555 1_555
H18_2 C25_2 1_555 1_555
C26_2 C25_2 1_555 1_555
C27_2 C26_2 1_555 1_555
H19_2 C27_2 1_555 1_555
C28_2 C27_2 1_555 1_555
H20_2 C28_2 1_555 1_555
C29_2 H21_2 1_555 1_555
C30_2 C29_2 1_555 1_555
H22_2 C30_2 1_555 1_555
C31_2 C30_2 1_555 1_555
C32_2 C31_2 1_555 1_555
H23_2 C32_2 1_555 1_555
C33_2 C32_2 1_555 1_555
H24_2 C33_2 1_555 1_555
C34_2 C21_2 1_555 1_555
C35_2 C26_2 1_555 1_555
C36_2 C31_2 1_555 1_555
N1_2 Zn1_2 1_555 1_555
N2_2 Zn2 1_555 1_555
N3_2 Zn5 1_555 1_555
N4_2 C16_2 1_555 1_555
N5_2 C17_2 1_555 1_555
N6_2 C16_2 1_555 1_555
N8_2 Zn1_2 1_555 1_555
N10_2 C34_2 1_555 1_555
N11_2 C35_2 1_555 1_555
N12_2 C34_2 1_555 1_555
N14 Zn2 1_555 1_555
C1_2 N1_2 1_555 1_555
C5_2 N1_2 1_555 1_555
C6_2 N2_2 1_555 1_555
C10_2 N2_2 1_555 1_555
C11_2 N3_2 1_555 1_555
C15_2 N3_2 1_555 1_555
C17_2 N4_2 1_555 1_555
C18_2 N5_2 1_555 1_555
C18_2 N6_2 1_555 1_555
C24_2 N8_2 1_555 1_555
C28_2 N8_2 1_555 1_555
C35_2 N10_2 1_555 1_555
C36_2 N11_2 1_555 1_555
C36_2 N12_2 1_555 1_555
H16_3 C23_3 1_555 1_555
Zn5_2 N7_2 1_555 1_555
C23_3 N7_2 1_555 1_555
Zn4 I3_2 1_555 1_555
I4_2 Zn4 1_555 1_555
I6_3 Zn5_2 1_555 1_555
C6_3 H5_3 1_555 1_555
C7_3 C6_3 1_555 1_555
H6_3 C7_3 1_555 1_555
C8_3 C7_3 1_555 1_555
C9_3 C8_3 1_555 1_555
H7_3 C9_3 1_555 1_555
C10_3 C9_3 1_555 1_555
H8_3 C10_3 1_555 1_555
C11_3 H9_3 1_555 1_555
C12_3 C11_3 1_555 1_555
H10_3 C12_3 1_555 1_555
C13_3 C12_3 1_555 1_555
C14_3 C13_3 1_555 1_555
H11_3 C14_3 1_555 1_555
C15_3 C14_3 1_555 1_555
H12_3 C15_3 1_555 1_555
C17_3 C8_3 1_555 1_555
C18_3 C13_3 1_555 1_555
C19_3 H13_3 1_555 1_555
C20_3 C19_3 1_555 1_555
H14_3 C20_3 1_555 1_555
C21_3 C20_3 1_555 1_555
C27_3 C26_3 1_555 1_555
H19_3 C27_3 1_555 1_555
C28_3 C27_3 1_555 1_555
H20_3 C28_3 1_555 1_555
C29_3 H21_3 1_555 1_555
C30_3 C29_3 1_555 1_555
H22_3 C30_3 1_555 1_555
C31_3 C30_3 1_555 1_555
C32_3 C31_3 1_555 1_555
H23_3 C32_3 1_555 1_555
C33_3 C32_3 1_555 1_555
H24_3 C33_3 1_555 1_555
C34_3 C21_3 1_555 1_555
C35_3 C26_3 1_555 1_555
C36_3 C31_3 1_555 1_555
N2_3 Zn4 1_555 1_555
N3_3 Zn5_2 1_555 1_555
N4_3 C16_3 1_555 1_555
N5_3 C17_3 1_555 1_555
N6_3 C16_3 1_555 1_555
N14 C29_3 1_555 1_555
N10_3 C34_3 1_555 1_555
N11_3 C35_3 1_555 1_555
N12_3 C34_3 1_555 1_555
C6_3 N2_3 1_555 1_555
C10_3 N2_3 1_555 1_555
C11_3 N3_3 1_555 1_555
C15_3 N3_3 1_555 1_555
C17_3 N4_3 1_555 1_555
C18_3 N5_3 1_555 1_555
C18_3 N6_3 1_555 1_555
C33_3 N14 1_555 1_555
C35_3 N10_3 1_555 1_555
C36_3 N11_3 1_555 1_555
C36_3 N12_3 1_555 1_555
Zn4_2 N9_2 1_555 1_555
Zn4_2 I3_3 1_555 1_555
I4_3 Zn4_2 1_555 1_555
Zn2_2 I3_4 1_555 1_555
I4_4 Zn2_2 1_555 1_555
N14_2 Zn2_2 1_555 1_555
Zn3_2 I5_2 1_555 1_555
I6_4 Zn3_2 1_555 1_555
C6_4 H5_4 1_555 1_555
C7_4 C6_4 1_555 1_555
H6_4 C7_4 1_555 1_555
C8_4 C7_4 1_555 1_555
C9_4 C8_4 1_555 1_555
H7_4 C9_4 1_555 1_555
C10_4 C9_4 1_555 1_555
H8_4 C10_4 1_555 1_555
C11_4 H9_4 1_555 1_555
C12_4 C11_4 1_555 1_555
H10_4 C12_4 1_555 1_555
C13_4 C12_4 1_555 1_555
C14_4 C13_4 1_555 1_555
H11_4 C14_4 1_555 1_555
C15_4 C14_4 1_555 1_555
H12_4 C15_4 1_555 1_555
C17_4 C8_4 1_555 1_555
C18_4 C13_4 1_555 1_555
C27_4 C26_4 1_555 1_555
H19_4 C27_4 1_555 1_555
C28_4 C27_4 1_555 1_555
H20_4 C28_4 1_555 1_555
C29_4 H21_4 1_555 1_555
C30_4 C29_4 1_555 1_555
H22_4 C30_4 1_555 1_555
C31_4 C30_4 1_555 1_555
C32_4 C31_4 1_555 1_555
H23_4 C32_4 1_555 1_555
C33_4 C32_4 1_555 1_555
H24_4 C33_4 1_555 1_555
C34_4 C21_4 1_555 1_555
C35_4 C26_4 1_555 1_555
C36_4 C31_4 1_555 1_555
N3_4 Zn3_2 1_555 1_555
N4_4 C16_4 1_555 1_555
N5_4 C17_4 1_555 1_555
N6_4 C16_4 1_555 1_555
N14_2 C29_4 1_555 1_555
N10_4 C34_4 1_555 1_555
N11_4 C35_4 1_555 1_555
N12_4 C34_4 1_555 1_555
N13_2 Zn3_2 1_555 1_555
C6_4 N2_4 1_555 1_555
C10_4 N2_4 1_555 1_555
C11_4 N3_4 1_555 1_555
C15_4 N3_4 1_555 1_555
C17_4 N4_4 1_555 1_555
C18_4 N5_4 1_555 1_555
C18_4 N6_4 1_555 1_555
C33_4 N14_2 1_555 1_555
C35_4 N10_4 1_555 1_555
C36_4 N11_4 1_555 1_555
C36_4 N12_4 1_555 1_555
Zn1_3 I1_3 1_555 1_555
I2_3 Zn1_3 1_555 1_555
C1_3 H1_3 1_555 1_555
C2_3 C1_3 1_555 1_555
C3_3 C2_3 1_555 1_555
C4_3 C3_3 1_555 1_555
H3_3 C4_3 1_555 1_555
C5_3 C4_3 1_555 1_555
H4_3 C5_3 1_555 1_555
H15_3 C22_3 1_555 1_555
C23_4 C22_3 1_555 1_555
H16_4 C23_4 1_555 1_555
C24_3 H17_3 1_555 1_555
C25_3 C24_3 1_555 1_555
H18_3 C25_3 1_555 1_555
N1_3 Zn1_3 1_555 1_555
N8_3 Zn1_3 1_555 1_555
C1_3 N1_3 1_555 1_555
C5_3 N1_3 1_555 1_555
C23_4 N13_2 1_555 1_555
C24_3 N8_3 1_555 1_555
Zn1_4 I1_4 1_555 1_555
I2_4 Zn1_4 1_555 1_555
C1_4 H1_4 1_555 1_555
C2_4 C1_4 1_555 1_555
C3_4 C2_4 1_555 1_555
C4_4 C3_4 1_555 1_555
H3_4 C4_4 1_555 1_555
C5_4 C4_4 1_555 1_555
H4_4 C5_4 1_555 1_555
H15_4 C22_4 1_555 1_555
C24_4 H17_4 1_555 1_555
C25_4 C24_4 1_555 1_555
H18_4 C25_4 1_555 1_555
N1_4 Zn1_4 1_555 1_555
N8_4 Zn1_4 1_555 1_555
C1_4 N1_4 1_555 1_555
C5_4 N1_4 1_555 1_555
C24_4 N8_4 1_555 1_555
C19_4 H13_4 1_555 1_555
C20_4 C19_4 1_555 1_555
H14_4 C20_4 1_555 1_555
Zn2_3 I3_5 1_555 1_555
I4_5 Zn2_3 1_555 1_555
N14_3 Zn2_3 1_555 1_555
Zn3_3 I5_5 1_555 1_555
I6_5 Zn3_3 1_555 1_555
C6_5 H5_5 1_555 1_555
C7_5 C6_5 1_555 1_555
H6_5 C7_5 1_555 1_555
C8_5 C7_5 1_555 1_555
C9_5 C8_5 1_555 1_555
H7_5 C9_5 1_555 1_555
C10_5 C9_5 1_555 1_555
H8_5 C10_5 1_555 1_555
C11_5 H9_5 1_555 1_555
C12_5 C11_5 1_555 1_555
H10_5 C12_5 1_555 1_555
C13_5 C12_5 1_555 1_555
C14_5 C13_5 1_555 1_555
H11_5 C14_5 1_555 1_555
C15_5 C14_5 1_555 1_555
H12_5 C15_5 1_555 1_555
C17_5 C8_5 1_555 1_555
C18_5 C13_5 1_555 1_555
C27_5 C26_5 1_555 1_555
H19_5 C27_5 1_555 1_555
C28_5 C27_5 1_555 1_555
H20_5 C28_5 1_555 1_555
C29_5 H21_5 1_555 1_555
C30_5 C29_5 1_555 1_555
H22_5 C30_5 1_555 1_555
C31_5 C30_5 1_555 1_555
C32_5 C31_5 1_555 1_555
H23_5 C32_5 1_555 1_555
C33_5 C32_5 1_555 1_555
H24_5 C33_5 1_555 1_555
C34_5 C21_5 1_555 1_555
C35_5 C26_5 1_555 1_555
C36_5 C31_5 1_555 1_555
N3_5 Zn3_3 1_555 1_555
N4_5 C16_5 1_555 1_555
N5_5 C17_5 1_555 1_555
N6_5 C16_5 1_555 1_555
N14_3 C29_5 1_555 1_555
N10_5 C34_5 1_555 1_555
N11_5 C35_5 1_555 1_555
N12_5 C34_5 1_555 1_555
N13_3 Zn3_3 1_555 1_555
C6_5 N2_5 1_555 1_555
C10_5 N2_5 1_555 1_555
C11_5 N3_5 1_555 1_555
C15_5 N3_5 1_555 1_555
C17_5 N4_5 1_555 1_555
C18_5 N5_5 1_555 1_555
C18_5 N6_5 1_555 1_555
C33_5 N14_3 1_555 1_555
C35_5 N10_5 1_555 1_555
C36_5 N11_5 1_555 1_555
C36_5 N12_5 1_555 1_555
Zn1_5 I1_5 1_555 1_555
I2_5 Zn1_5 1_555 1_555
C1_5 H1_5 1_555 1_555
C2_5 C1_5 1_555 1_555
C3_5 C2_5 1_555 1_555
C4_5 C3_5 1_555 1_555
H3_5 C4_5 1_555 1_555
C5_5 C4_5 1_555 1_555
H4_5 C5_5 1_555 1_555
H15_5 C22_5 1_555 1_555
C23_5 C22_5 1_555 1_555
H16_5 C23_5 1_555 1_555
C24_5 H17_5 1_555 1_555
C25_5 C24_5 1_555 1_555
H18_5 C25_5 1_555 1_555
N1_5 Zn1_5 1_555 1_555
N8_5 Zn1_5 1_555 1_555
C1_5 N1_5 1_555 1_555
C5_5 N1_5 1_555 1_555
C23_5 N13_3 1_555 1_555
C24_5 N8_5 1_555 1_555
Zn4_3 N9_3 1_555 1_555
Zn4_3 I3_6 1_555 1_555
I4_6 Zn4_3 1_555 1_555
Zn1_6 I1_6 1_555 1_555
Zn3_4 I5_6 1_555 1_555
I2_6 Zn1_6 1_555 1_555
I6_6 Zn3_4 1_555 1_555
C1_6 H1_6 1_555 1_555
C2_6 C1_6 1_555 1_555
H2_6 C2_6 1_555 1_555
C3_6 C2_6 1_555 1_555
C4_6 C3_6 1_555 1_555
H3_6 C4_6 1_555 1_555
C5_6 C4_6 1_555 1_555
H4_6 C5_6 1_555 1_555
C6_6 H5_6 1_555 1_555
C7_6 C6_6 1_555 1_555
H6_6 C7_6 1_555 1_555
C8_6 C7_6 1_555 1_555
C9_6 C8_6 1_555 1_555
H7_6 C9_6 1_555 1_555
C10_6 C9_6 1_555 1_555
H8_6 C10_6 1_555 1_555
C11_6 H9_6 1_555 1_555
C12_6 C11_6 1_555 1_555
H10_6 C12_6 1_555 1_555
C13_6 C12_6 1_555 1_555
C14_6 C13_6 1_555 1_555
H11_6 C14_6 1_555 1_555
C15_6 C14_6 1_555 1_555
H12_6 C15_6 1_555 1_555
C16_6 C3_6 1_555 1_555
C17_6 C8_6 1_555 1_555
C18_6 C13_6 1_555 1_555
C19_5 H13_5 1_555 1_555
C20_5 C19_5 1_555 1_555
H14_5 C20_5 1_555 1_555
C21_6 C20_5 1_555 1_555
C22_6 C21_6 1_555 1_555
H15_6 C22_6 1_555 1_555
C23_6 C22_6 1_555 1_555
H16_6 C23_6 1_555 1_555
C24_6 H17_6 1_555 1_555
C25_6 C24_6 1_555 1_555
H18_6 C25_6 1_555 1_555
C26_6 C25_6 1_555 1_555
C27_6 C26_6 1_555 1_555
H19_6 C27_6 1_555 1_555
C28_6 C27_6 1_555 1_555
H20_6 C28_6 1_555 1_555
C29_6 H21_6 1_555 1_555
C30_6 C29_6 1_555 1_555
H22_6 C30_6 1_555 1_555
C31_6 C30_6 1_555 1_555
C32_6 C31_6 1_555 1_555
H23_6 C32_6 1_555 1_555
C33_6 C32_6 1_555 1_555
H24_6 C33_6 1_555 1_555
C34_6 C21_6 1_555 1_555
C35_6 C26_6 1_555 1_555
C36_6 C31_6 1_555 1_555
N1_6 Zn1_6 1_555 1_555
N3_6 Zn3_4 1_555 1_555
N4_6 C16_6 1_555 1_555
N5_6 C17_6 1_555 1_555
N6_6 C16_6 1_555 1_555
N7_3 C19_5 1_555 1_555
N8_6 Zn1_6 1_555 1_555
N10_6 C34_6 1_555 1_555
N11_6 C35_6 1_555 1_555
N12_6 C34_6 1_555 1_555
Zn5_3 N7_3 1_555 1_555
N13_4 Zn3_4 1_555 1_555
C1_6 N1_6 1_555 1_555
C5_6 N1_6 1_555 1_555
C6_6 N2_6 1_555 1_555
C10_6 N2_6 1_555 1_555
C11_6 N3_6 1_555 1_555
C15_6 N3_6 1_555 1_555
C17_6 N4_6 1_555 1_555
C18_6 N5_6 1_555 1_555
C18_6 N6_6 1_555 1_555
C23_6 N7_3 1_555 1_555
C24_6 N8_6 1_555 1_555
C28_6 N8_6 1_555 1_555
C35_6 N10_6 1_555 1_555
C36_6 N11_6 1_555 1_555
C36_6 N12_6 1_555 1_555
Zn1_7 I1_7 1_555 1_555
Zn2_4 I3_7 1_555 1_555
I2_7 Zn1_7 1_555 1_555
I4_7 Zn2_4 1_555 1_555
I6_7 Zn5_3 1_555 1_555
C1_7 H1_7 1_555 1_555
C2_7 C1_7 1_555 1_555
H2_7 C2_7 1_555 1_555
C3_7 C2_7 1_555 1_555
C4_7 C3_7 1_555 1_555
H3_7 C4_7 1_555 1_555
C5_7 C4_7 1_555 1_555
H4_7 C5_7 1_555 1_555
C6_7 H5_7 1_555 1_555
C7_7 C6_7 1_555 1_555
H6_7 C7_7 1_555 1_555
C8_7 C7_7 1_555 1_555
C9_7 C8_7 1_555 1_555
H7_7 C9_7 1_555 1_555
C10_7 C9_7 1_555 1_555
H8_7 C10_7 1_555 1_555
C11_7 H9_7 1_555 1_555
C12_7 C11_7 1_555 1_555
H10_7 C12_7 1_555 1_555
C13_7 C12_7 1_555 1_555
C14_7 C13_7 1_555 1_555
H11_7 C14_7 1_555 1_555
C15_7 C14_7 1_555 1_555
H12_7 C15_7 1_555 1_555
C16_7 C3_7 1_555 1_555
C17_7 C8_7 1_555 1_555
C18_7 C13_7 1_555 1_555
C22_7 C21_7 1_555 1_555
H15_7 C22_7 1_555 1_555
C24_7 H17_7 1_555 1_555
C25_7 C24_7 1_555 1_555
H18_7 C25_7 1_555 1_555
C26_7 C25_7 1_555 1_555
C27_7 C26_7 1_555 1_555
H19_7 C27_7 1_555 1_555
C28_7 C27_7 1_555 1_555
H20_7 C28_7 1_555 1_555
C29_7 H21_7 1_555 1_555
C30_7 C29_7 1_555 1_555
H22_7 C30_7 1_555 1_555
C31_7 C30_7 1_555 1_555
C32_7 C31_7 1_555 1_555
H23_7 C32_7 1_555 1_555
C33_7 C32_7 1_555 1_555
H24_7 C33_7 1_555 1_555
C34_7 C21_7 1_555 1_555
C35_7 C26_7 1_555 1_555
C36_7 C31_7 1_555 1_555
N1_7 Zn1_7 1_555 1_555
N2_7 Zn2_4 1_555 1_555
N3_7 Zn5_3 1_555 1_555
N4_7 C16_7 1_555 1_555
N5_7 C17_7 1_555 1_555
N6_7 C16_7 1_555 1_555
N8_7 Zn1_7 1_555 1_555
N10_7 C34_7 1_555 1_555
N11_7 C35_7 1_555 1_555
N12_7 C34_7 1_555 1_555
N14_4 Zn2_4 1_555 1_555
C1_7 N1_7 1_555 1_555
C5_7 N1_7 1_555 1_555
C6_7 N2_7 1_555 1_555
C10_7 N2_7 1_555 1_555
C11_7 N3_7 1_555 1_555
C15_7 N3_7 1_555 1_555
C17_7 N4_7 1_555 1_555
C18_7 N5_7 1_555 1_555
C18_7 N6_7 1_555 1_555
C24_7 N8_7 1_555 1_555
C28_7 N8_7 1_555 1_555
C35_7 N10_7 1_555 1_555
C36_7 N11_7 1_555 1_555
C36_7 N12_7 1_555 1_555
C19_6 H13_6 1_555 1_555
C20_6 C19_6 1_555 1_555
H14_6 C20_6 1_555 1_555
H16_7 C23_7 1_555 1_555
N13_4 C19_6 1_555 1_555
C23_7 N13_4 1_555 1_555
Zn4_4 N9_4 1_555 1_555
H16_8 C23_8 1_555 1_555
Zn5_4 N7_4 1_555 1_555
C23_8 N7_4 1_555 1_555
Zn4_4 I3_8 1_555 1_555
I4_8 Zn4_4 1_555 1_555
I6_8 Zn5_4 1_555 1_555
C6_8 H5_8 1_555 1_555
C7_8 C6_8 1_555 1_555
H6_8 C7_8 1_555 1_555
C8_8 C7_8 1_555 1_555
C9_8 C8_8 1_555 1_555
H7_8 C9_8 1_555 1_555
C10_8 C9_8 1_555 1_555
H8_8 C10_8 1_555 1_555
C11_8 H9_8 1_555 1_555
C12_8 C11_8 1_555 1_555
H10_8 C12_8 1_555 1_555
C13_8 C12_8 1_555 1_555
C14_8 C13_8 1_555 1_555
H11_8 C14_8 1_555 1_555
C15_8 C14_8 1_555 1_555
H12_8 C15_8 1_555 1_555
C17_8 C8_8 1_555 1_555
C18_8 C13_8 1_555 1_555
C19_7 H13_7 1_555 1_555
C20_7 C19_7 1_555 1_555
H14_7 C20_7 1_555 1_555
C21_8 C20_7 1_555 1_555
C27_8 C26_8 1_555 1_555
H19_8 C27_8 1_555 1_555
C28_8 C27_8 1_555 1_555
H20_8 C28_8 1_555 1_555
C29_8 H21_8 1_555 1_555
C30_8 C29_8 1_555 1_555
H22_8 C30_8 1_555 1_555
C31_8 C30_8 1_555 1_555
C32_8 C31_8 1_555 1_555
H23_8 C32_8 1_555 1_555
C33_8 C32_8 1_555 1_555
H24_8 C33_8 1_555 1_555
C34_8 C21_8 1_555 1_555
C35_8 C26_8 1_555 1_555
C36_8 C31_8 1_555 1_555
N2_8 Zn4_4 1_555 1_555
N3_8 Zn5_4 1_555 1_555
N4_8 C16_8 1_555 1_555
N5_8 C17_8 1_555 1_555
N6_8 C16_8 1_555 1_555
N14_4 C29_8 1_555 1_555
N10_8 C34_8 1_555 1_555
N11_8 C35_8 1_555 1_555
N12_8 C34_8 1_555 1_555
C6_8 N2_8 1_555 1_555
C10_8 N2_8 1_555 1_555
C11_8 N3_8 1_555 1_555
C15_8 N3_8 1_555 1_555
C17_8 N4_8 1_555 1_555
C18_8 N5_8 1_555 1_555
C18_8 N6_8 1_555 1_555
C33_8 N14_4 1_555 1_555
C35_8 N10_8 1_555 1_555
C36_8 N11_8 1_555 1_555
C36_8 N12_8 1_555 1_555
C19_8 H13_8 1_555 1_555
C20_8 C19_8 1_555 1_555
H14_8 C20_8 1_555 1_555
Zn1_8 I1_8 1_555 1_555
I2_8 Zn1_8 1_555 1_555
C1_8 H1_8 1_555 1_555
C2_8 C1_8 1_555 1_555
C3_8 C2_8 1_555 1_555
C4_8 C3_8 1_555 1_555
H3_8 C4_8 1_555 1_555
C5_8 C4_8 1_555 1_555
H4_8 C5_8 1_555 1_555
H15_8 C22_8 1_555 1_555
C24_8 H17_8 1_555 1_555
C25_8 C24_8 1_555 1_555
H18_8 C25_8 1_555 1_555
N1_8 Zn1_8 1_555 1_555
N8_8 Zn1_8 1_555 1_555
C1_8 N1_8 1_555 1_555
C5_8 N1_8 1_555 1_555
C24_8 N8_8 1_555 1_555

#END
