
###############################################################################
#
# This file contains modified crystal structure data generated from the
# MOF subset of the Cambridge Structural Database (CSD) v543 
# hosted by the Cambridge Crystallographic Data Centre (CCDC).
#
# This work is licensed under the Creative Commons
# Attribution-NonCommercial-ShareAlike 4.0 International License.
# To view a copy of this license, visit
# http://creativecommons.org/licenses/by-nc-sa/4.0/
# or send a letter to
# Creative Commons, PO Box 1866, Mountain View, CA 94042, USA.
#
# CIF created using the CSD Python API on 29 September 2022
# The structure has been converted into the P1 space group
# The structure has a 3D framework
# The original CSD entry UCOXOZ is in the monoclinic crystal system
# The framework has been calculated to contain at least 10.0% void space
# The void calculation uses a probe of radius 1.32A, grid spacing 0.4
# H atom positions have been added when not included in the experimental data
# Generated hydrogen atom positions removed from atoms on special positions
#
###############################################################################

data_UCOXOZ
_chemical_formula_moiety         '(C360 H368 Cu24 N72 O76)n'
_symmetry_cell_setting           triclinic
_symmetry_space_group_name_H-M   'P 1'
_symmetry_Int_Tables_number      1
_space_group_name_Hall           'P 1'
loop_
_symmetry_equiv_pos_site_id
_symmetry_equiv_pos_as_xyz
1 x,y,z
_cell_length_a                   40.889(7)
_cell_length_b                   19.545(4)
_cell_length_c                   16.642(4)
_cell_angle_alpha                90
_cell_angle_beta                 90.717(6)
_cell_angle_gamma                90
_cell_volume                     13298.8
loop_
_atom_site_label
_atom_site_type_symbol
_atom_site_fract_x
_atom_site_fract_y
_atom_site_fract_z
C34 C 0.0325(2) 0.1989(6) 0.0176(5)
H27 H 0.0309 0.1984 0.0733
H28 H 0.0806 0.2047 0.0162
H86 H 0.140521 0.222144 0.0130973
Cu1 Cu 0.112637(18) 0.21081(4) 0.85764(5)
Cu2 Cu 0.135020(19) 0.22512(4) 0.37981(5)
Cu3 Cu 0.129228(19) 0.03405(4) 0.59742(4)
O1 O 0.13329(12) 0.1103(3) 0.5185(3)
O2 O 0.16154(11) 0.2056(2) 0.4970(3)
O7 O 0.11744(12) 0.1095(2) 0.7006(3)
O8 O 0.11220(11) 0.1112(2) 0.8343(3)
O9 O 0.13624(12) 0.1803(3) 0.9808(3)
O10 O 0.08824(14) 0.2340(3) 0.7213(3)
N1 N 0.31923(14) 0.2605(3) 0.6660(3)
N2 N 0.15870(14) 0.2223(3) 0.8112(3)
N3 N 0.12789(13) 0.6716(3) 0.8914(4)
N4 N 0.11229(15) 0.3130(3) 0.8822(4)
N6 N 0.08244(14) 0.0176(3) 0.5660(3)
N7 N 0.06714(18) 0.2008(3) 0.9042(4)
N8 N 0.17743(14) 0.0556(3) 0.6133(3)
C1 C 0.3091(2) 0.2022(4) 0.6985(6)
H1 H 0.3236 0.1656 0.7016
C2 C 0.2781(2) 0.1938(4) 0.7277(6)
H2 H 0.2720 0.1521 0.7498
C3 C 0.25601(17) 0.2468(4) 0.7243(4)
C4 C 0.26634(17) 0.3078(4) 0.6902(5)
H3 H 0.2523 0.3451 0.6861
C5 C 0.29830(18) 0.3118(4) 0.6625(5)
H4 H 0.3053 0.3529 0.6403
C6 C 0.18251(19) 0.1821(4) 0.8360(4)
H5 H 0.1777 0.1476 0.8726
C7 C 0.21424(18) 0.1884(4) 0.8105(4)
H6 H 0.2304 0.1587 0.8295
C8 C 0.22200(17) 0.2401(4) 0.7556(4)
C9 C 0.19640(19) 0.2813(4) 0.7283(4)
H7 H 0.2001 0.3152 0.6902
C10 C 0.16583(17) 0.2714(4) 0.7581(4)
H8 H 0.1491 0.3003 0.7407
C11 C 0.1114(2) 0.6403(4) 0.8344(5)
H9 H 0.1024 0.6667 0.7933
C12 C 0.1066(2) 0.5705(4) 0.8317(5)
H10 H 0.0947 0.5506 0.7899
C13 C 0.11999(17) 0.5303(4) 0.8927(4)
C14 C 0.1373(2) 0.5639(4) 0.9535(5)
H11 H 0.1464 0.5389 0.9958
C15 C 0.1411(2) 0.6331(4) 0.9515(5)
H12 H 0.1530 0.6546 0.9923
C16 C 0.0880(2) 0.3525(4) 0.8504(5)
H13 H 0.0698 0.3322 0.8263
C17 C 0.0904(2) 0.4237(4) 0.8542(6)
H14 H 0.0739 0.4501 0.8312
C18 C 0.11636(19) 0.4556(3) 0.8908(4)
C19 C 0.1407(2) 0.4126(4) 0.9258(5)
H15 H 0.1587 0.4315 0.9523
C20 C 0.1375(2) 0.3437(4) 0.9200(5)
H16 H 0.1536 0.3162 0.9435
C28 C 0.0174(2) 0.0037(4) 0.5135(5)
C29 C 0.0256(2) 0.0273(5) 0.5888(5)
H23 H 0.0092 0.0389 0.6246
C30 C 0.0571(2) 0.0336(5) 0.6111(5)
H24 H 0.0615 0.0507 0.6623
C31 C 0.0404(2) 0.1978(5) 0.8574(5)
H25 H 0.0430 0.1971 0.8020
C32 C 0.0093(2) 0.1956(5) 0.8881(5)
C33 C 0.0043(2) 0.1966(4) 0.9691(5)
C35 C 0.0623(2) 0.2018(6) 0.9826(5)
C37 C 0.18641(17) 0.0313(4) 0.6946(4)
H31 H 0.1797 0.0647 0.7342
H32 H 0.2100 0.0261 0.6989
C38 C 0.17978(18) 0.1301(4) 0.6023(4)
H33 H 0.2021 0.1428 0.5896
H34 H 0.1736 0.1535 0.6512
C39 C 0.15681(17) 0.1503(3) 0.5337(4)
C40 C 0.19690(18) 0.0203(4) 0.5482(5)
H35 H 0.2068 0.0550 0.5146
C44 C 0.1195(2) 0.0041(4) 0.7749(4)
C45 C 0.11654(16) 0.0816(3) 0.7683(4)
O13 O 0.14911(13) 0.0451(3) 0.0160(3)
O15 O 0.13287(11) 0.1377(2) 0.3183(3)
O16 O 0.11406(17) 0.2112(3) 0.2295(3)
N12 N 0.13374(13) 0.0291(3) 0.2026(3)
C51 C 0.17018(18) 0.0359(4) 0.2109(4)
H45 H 0.1758 0.0510 0.2648
H46 H 0.1780 0.0700 0.1733
H52 H 0.2145 0.0055 0.0735
C57 C 0.11897(17) 0.0964(3) 0.1865(4)
H53 H 0.1280 0.1133 0.1367
H54 H 0.0958 0.0893 0.1770
C58 C 0.12247(16) 0.1531(4) 0.2485(4)
H55 H 0.1330 0.0069 0.3214
H56 H 0.0979 0.0150 0.2839
N13 N 0.18077(14) 0.2395(3) 0.3340(3)
N14 N 0.34130(14) 0.2777(3) 0.1888(3)
C61 C 0.1909(2) 0.2978(4) 0.3015(6)
H57 H 0.1764 0.3344 0.2984
C62 C 0.2219(2) 0.3062(4) 0.2723(6)
H58 H 0.2280 0.3479 0.2502
C63 C 0.24399(17) 0.2532(4) 0.2757(4)
C64 C 0.23366(17) 0.1922(4) 0.3098(5)
H59 H 0.2477 0.1549 0.3139
C65 C 0.20170(18) 0.1882(4) 0.3375(5)
H60 H 0.1947 0.1471 0.3597
C66 C 0.31749(19) 0.3179(4) 0.1640(4)
H61 H 0.3223 0.3524 0.1274
C67 C 0.28576(18) 0.3116(4) 0.1895(4)
H62 H 0.2696 0.3413 0.1705
C68 C 0.27800(17) 0.2599(4) 0.2444(4)
C69 C 0.30360(19) 0.2187(4) 0.2717(4)
H63 H 0.2999 0.1848 0.3098
C70 C 0.33417(17) 0.2286(4) 0.2419(4)
H64 H 0.3509 0.1997 0.2593
N15 N 0.12789(13) 0.3284(3) 0.3914(4)
N16 N 0.11229(15) 0.6870(3) 0.3822(4)
C71 C 0.1114(2) 0.3597(4) 0.3344(5)
H65 H 0.1024 0.3333 0.2933
C72 C 0.1066(2) 0.4295(4) 0.3317(5)
H66 H 0.0947 0.4494 0.2899
C73 C 0.11999(17) 0.4697(4) 0.3927(4)
C74 C 0.1373(2) 0.4361(4) 0.4535(5)
H67 H 0.1464 0.4611 0.4958
C75 C 0.1411(2) 0.3669(4) 0.4515(5)
H68 H 0.1530 0.3454 0.4923
C76 C 0.0880(2) 0.6475(4) 0.3504(5)
H69 H 0.0698 0.6678 0.3263
C77 C 0.0904(2) 0.5763(4) 0.3542(6)
H70 H 0.0739 0.5499 0.3312
C78 C 0.11636(19) 0.5444(3) 0.3908(4)
C79 C 0.1407(2) 0.5874(4) 0.4258(5)
H71 H 0.1587 0.5685 0.4523
C80 C 0.1375(2) 0.6563(4) 0.4200(5)
H72 H 0.1536 0.6838 0.4435
N17 N 0.08998(14) 0.2098(3) 0.4271(3)
C81 C 0.08425(18) 0.2372(4) 0.4978(5)
H73 H 0.1010 0.2602 0.5247
C82 C 0.0530(2) 0.2324(5) 0.5341(5)
H74 H 0.0495 0.2525 0.5839
C83 C 0.02850(18) 0.1987(4) 0.4960(4)
C84 C 0.0350(2) 0.1689(4) 0.4206(5)
H75 H 0.0189 0.1454 0.3920
C85 C 0.0663(2) 0.1758(4) 0.3906(5)
H76 H 0.0708 0.1552 0.3416
H78 H 0.0086 0.1935 0.6469
Cu7 Cu 0.364980(19) 0.27488(4) 0.62019(5)
Cu8 Cu 0.135020(19) 0.77488(4) 0.87981(5)
Cu12 Cu 0.387363(18) 0.28919(4) 0.14236(5)
Cu13 Cu 0.112637(18) 0.78919(4) 0.35764(5)
H85 H 0.15716 0.155922 0.971486
O14 O 0.1900(3) 0.0434(7) 0.9312(8)
C56 C 0.1772(2) 0.0272(5) 0.9956(6)
O3 O 0.14911(13) 0.9549(3) 0.5160(3)
O4 O 0.1900(3) 0.9566(7) 0.4312(8)
O5 O 0.13287(11) 0.8623(2) 0.8183(3)
O6 O 0.11406(17) 0.7888(3) 0.7295(3)
N9 N 0.13374(13) 0.9709(3) 0.7026(3)
C26 C 0.0751(2) 0.9924(5) 0.4946(5)
H21 H 0.0921 0.9782 0.4620
C27 C 0.0435(2) 0.9859(5) 0.4657(5)
H22 H 0.0397 0.9694 0.4139
C36 C 0.17018(18) 0.9641(4) 0.7109(4)
H29 H 0.1758 0.9490 0.7648
H30 H 0.1780 0.9300 0.6733
H36 H 0.2145 0.9945 0.5735
C41 C 0.1772(2) 0.9728(5) 0.4956(6)
C42 C 0.11897(17) 0.9036(3) 0.6865(4)
H37 H 0.1280 0.8867 0.6367
H38 H 0.0958 0.9107 0.6770
C43 C 0.12247(16) 0.8469(4) 0.7485(4)
H39 H 0.1330 0.9931 0.8214
H40 H 0.0979 0.9850 0.7839
O11 O 0.13329(12) 0.8897(3) 0.0185(3)
O17 O 0.11744(12) 0.8905(2) 0.2006(3)
O18 O 0.11220(11) 0.8888(2) 0.3343(3)
N11 N 0.17743(14) 0.9444(3) 0.1133(3)
C52 C 0.18641(17) 0.9687(4) 0.1946(4)
H47 H 0.1797 0.9353 0.2342
H48 H 0.2100 0.9739 0.1989
C53 C 0.17978(18) 0.8699(4) 0.1023(4)
H49 H 0.2021 0.8572 0.0896
H50 H 0.1736 0.8465 0.1512
C54 C 0.15681(17) 0.8497(3) 0.0337(4)
C55 C 0.19690(18) 0.9797(4) 0.0482(5)
H51 H 0.2068 0.9450 0.0146
C59 C 0.1195(2) 0.9959(4) 0.2749(4)
C60 C 0.11654(16) 0.9184(3) 0.2683(4)
Cu6 Cu 0.129228(19) 0.96595(4) 0.09742(4)
O19 O 0.16154(11) 0.7944(2) 0.9970(3)
N19 N 0.18077(14) 0.7605(3) 0.8340(3)
N21 N 0.08998(14) 0.7902(3) 0.9271(3)
O20 O 0.13624(12) 0.8197(3) 0.4808(3)
O21 O 0.08824(14) 0.7660(3) 0.2213(3)
N22 N 0.15870(14) 0.7777(3) 0.3112(3)
N24 N 0.06714(18) 0.7992(3) 0.4042(4)
N25 N 0.08244(14) 0.9824(3) 0.0660(3)
N5 N 0.91002(14) 0.2098(3) 0.0729(3)
C21 C 0.91575(18) 0.2372(4) 0.0022(5)
C23 C 0.97150(18) 0.1987(4) 0.0040(4)
C24 C 0.9650(2) 0.1689(4) 0.0794(5)
H19 H 0.9811 0.1454 0.1080
C25 C 0.9337(2) 0.1758(4) 0.1094(5)
H20 H 0.9292 0.1552 0.1584
Cu9 Cu 0.864980(19) 0.22512(4) 0.12019(5)
H17 H 0.8990 0.2602 0.9753
C22 C 0.9470(2) 0.2324(5) 0.9659(5)
H18 H 0.9505 0.2525 0.9161
H26 H 0.9914 0.1935 0.8531
C47 C 0.9565(2) 0.0141(5) 0.5343(5)
C48 C 0.9249(2) 0.0076(5) 0.5054(5)
H43 H 0.9079 0.0218 0.5380
H44 H 0.9603 0.0306 0.5861
N18 N 0.93286(18) 0.2008(3) 0.5958(4)
C86 C 0.9596(2) 0.1978(5) 0.6426(5)
H77 H 0.9570 0.1971 0.6980
C87 C 0.9907(2) 0.1956(5) 0.6119(5)
C88 C 0.9957(2) 0.1966(4) 0.5309(5)
C89 C 0.9675(2) 0.1989(6) 0.4824(5)
H79 H 0.9691 0.1984 0.4267
C90 C 0.9377(2) 0.2018(6) 0.5174(5)
H80 H 0.9194 0.2047 0.4838
Cu14 Cu 0.887363(18) 0.21081(4) 0.64236(5)
C46 C 0.9826(2) 0.9963(4) 0.4865(5)
N10 N 0.91756(14) 0.9824(3) 0.4340(3)
C49 C 0.9429(2) 0.9664(5) 0.3889(5)
C50 C 0.9744(2) 0.9727(5) 0.4112(5)
H41 H 0.9908 0.9611 0.3754
H42 H 0.9385 0.9493 0.3377
Cu10 Cu 0.870772(19) 0.96595(4) 0.40258(4)
N3_2 N 0.62789(13) 0.1716(3) 0.8914(4)
C11_2 C 0.6114(2) 0.1403(4) 0.8344(5)
H9_2 H 0.6024 0.1667 0.7933
C12_2 C 0.6066(2) 0.0705(4) 0.8317(5)
H10_2 H 0.5947 0.0506 0.7899
C13_2 C 0.61999(17) 0.0303(4) 0.8927(4)
C14_2 C 0.6373(2) 0.0639(4) 0.9535(5)
H11_2 H 0.6464 0.0389 0.9958
C15_2 C 0.6411(2) 0.1331(4) 0.9515(5)
H12_2 H 0.6530 0.1546 0.9923
N16_2 N 0.61229(15) 0.1870(3) 0.3822(4)
C76_2 C 0.5880(2) 0.1475(4) 0.3504(5)
H69_2 H 0.5698 0.1678 0.3263
C77_2 C 0.5904(2) 0.0763(4) 0.3542(6)
H70_2 H 0.5739 0.0499 0.3312
C78_2 C 0.61636(19) 0.0444(3) 0.3908(4)
C79_2 C 0.6407(2) 0.0874(4) 0.4258(5)
H71_2 H 0.6587 0.0685 0.4523
C80_2 C 0.6375(2) 0.1563(4) 0.4200(5)
H72_2 H 0.6536 0.1838 0.4435
Cu8_2 Cu 0.635020(19) 0.27488(4) 0.87981(5)
Cu13_2 Cu 0.612637(18) 0.28919(4) 0.35764(5)
N5_2 N 0.41002(14) 0.7098(3) 0.0729(3)
C21_2 C 0.41575(18) 0.7372(4) 0.0022(5)
C23_2 C 0.47150(18) 0.6987(4) 0.0040(4)
C24_2 C 0.4650(2) 0.6689(4) 0.0794(5)
H19_2 H 0.4811 0.6454 0.1080
C25_2 C 0.4337(2) 0.6758(4) 0.1094(5)
H20_2 H 0.4292 0.6552 0.1584
C34_2 C 0.5325(2) 0.6989(6) 0.0176(5)
H27_2 H 0.5309 0.6984 0.0733
H28_2 H 0.5806 0.7047 0.0162
Cu9_2 Cu 0.364980(19) 0.72512(4) 0.12019(5)
H86_2 H 0.640521 0.722144 0.0130973
Cu1_2 Cu 0.612637(18) 0.71081(4) 0.85764(5)
Cu2_2 Cu 0.635020(19) 0.72512(4) 0.37981(5)
Cu3_2 Cu 0.629228(19) 0.53405(4) 0.59742(4)
O1_2 O 0.63329(12) 0.6103(3) 0.5185(3)
O2_2 O 0.66154(11) 0.7056(2) 0.4970(3)
O3_2 O 0.64911(13) 0.4549(3) 0.5160(3)
O4_2 O 0.6900(3) 0.4566(7) 0.4312(8)
O5_2 O 0.63287(11) 0.3623(2) 0.8183(3)
O6_2 O 0.61406(17) 0.2888(3) 0.7295(3)
O7_2 O 0.61744(12) 0.6095(2) 0.7006(3)
O8_2 O 0.61220(11) 0.6112(2) 0.8343(3)
O9_2 O 0.63624(12) 0.6803(3) 0.9808(3)
O10_2 O 0.58824(14) 0.7340(3) 0.7213(3)
N1_2 N 0.81923(14) 0.7605(3) 0.6660(3)
N2_2 N 0.65870(14) 0.7223(3) 0.8112(3)
N4_2 N 0.61229(15) 0.8130(3) 0.8822(4)
N6_2 N 0.58244(14) 0.5176(3) 0.5660(3)
N7_2 N 0.56714(18) 0.7008(3) 0.9042(4)
N8_2 N 0.67743(14) 0.5556(3) 0.6133(3)
N9_2 N 0.63374(13) 0.4709(3) 0.7026(3)
C1_2 C 0.8091(2) 0.7022(4) 0.6985(6)
H1_2 H 0.8236 0.6656 0.7016
C2_2 C 0.7781(2) 0.6938(4) 0.7277(6)
H2_2 H 0.7720 0.6521 0.7498
C3_2 C 0.75601(17) 0.7468(4) 0.7243(4)
C4_2 C 0.76634(17) 0.8078(4) 0.6902(5)
H3_2 H 0.7523 0.8451 0.6861
C5_2 C 0.79830(18) 0.8118(4) 0.6625(5)
H4_2 H 0.8053 0.8529 0.6403
C6_2 C 0.68251(19) 0.6821(4) 0.8360(4)
H5_2 H 0.6777 0.6476 0.8726
C7_2 C 0.71424(18) 0.6884(4) 0.8105(4)
H6_2 H 0.7304 0.6587 0.8295
C8_2 C 0.72200(17) 0.7401(4) 0.7556(4)
C9_2 C 0.69640(19) 0.7813(4) 0.7283(4)
H7_2 H 0.7001 0.8152 0.6902
C10_2 C 0.66583(17) 0.7714(4) 0.7581(4)
H8_2 H 0.6491 0.8003 0.7407
C16_2 C 0.5880(2) 0.8525(4) 0.8504(5)
H13_2 H 0.5698 0.8322 0.8263
C17_2 C 0.5904(2) 0.9237(4) 0.8542(6)
H14_2 H 0.5739 0.9501 0.8312
C18_2 C 0.61636(19) 0.9556(3) 0.8908(4)
C19_2 C 0.6407(2) 0.9126(4) 0.9258(5)
H15_2 H 0.6587 0.9315 0.9523
C20_2 C 0.6375(2) 0.8437(4) 0.9200(5)
H16_2 H 0.6536 0.8162 0.9435
H17_2 H 0.3990 0.7602 0.9753
C22_2 C 0.4470(2) 0.7324(5) 0.9659(5)
H18_2 H 0.4505 0.7525 0.9161
C26_2 C 0.5751(2) 0.4924(5) 0.4946(5)
H21_2 H 0.5921 0.4782 0.4620
C27_2 C 0.5435(2) 0.4859(5) 0.4657(5)
H22_2 H 0.5397 0.4694 0.4139
C28_2 C 0.5174(2) 0.5037(4) 0.5135(5)
C29_2 C 0.5256(2) 0.5273(5) 0.5888(5)
H23_2 H 0.5092 0.5389 0.6246
C30_2 C 0.5571(2) 0.5336(5) 0.6111(5)
H24_2 H 0.5615 0.5507 0.6623
C31_2 C 0.5404(2) 0.6978(5) 0.8574(5)
H25_2 H 0.5430 0.6971 0.8020
C32_2 C 0.5093(2) 0.6956(5) 0.8881(5)
H26_2 H 0.4914 0.6935 0.8531
C33_2 C 0.5043(2) 0.6966(4) 0.9691(5)
C35_2 C 0.5623(2) 0.7018(6) 0.9826(5)
C36_2 C 0.67018(18) 0.4641(4) 0.7109(4)
H29_2 H 0.6758 0.4490 0.7648
H30_2 H 0.6780 0.4300 0.6733
C37_2 C 0.68641(17) 0.5313(4) 0.6946(4)
H31_2 H 0.6797 0.5647 0.7342
H32_2 H 0.7100 0.5261 0.6989
C38_2 C 0.67978(18) 0.6301(4) 0.6023(4)
H33_2 H 0.7021 0.6428 0.5896
H34_2 H 0.6736 0.6535 0.6512
C39_2 C 0.65681(17) 0.6503(3) 0.5337(4)
C40_2 C 0.69690(18) 0.5203(4) 0.5482(5)
H35_2 H 0.7068 0.5550 0.5146
H36_2 H 0.7145 0.4945 0.5735
C41_2 C 0.6772(2) 0.4728(5) 0.4956(6)
C42_2 C 0.61897(17) 0.4036(3) 0.6865(4)
H37_2 H 0.6280 0.3867 0.6367
H38_2 H 0.5958 0.4107 0.6770
C43_2 C 0.62247(16) 0.3469(4) 0.7485(4)
C44_2 C 0.6195(2) 0.5041(4) 0.7749(4)
H39_2 H 0.6330 0.4931 0.8214
H40_2 H 0.5979 0.4850 0.7839
C45_2 C 0.61654(16) 0.5816(3) 0.7683(4)
C46_2 C 0.4826(2) 0.4963(4) 0.4865(5)
C47_2 C 0.4565(2) 0.5141(5) 0.5343(5)
C48_2 C 0.4249(2) 0.5076(5) 0.5054(5)
N10_2 N 0.41756(14) 0.4824(3) 0.4340(3)
C49_2 C 0.4429(2) 0.4664(5) 0.3889(5)
C50_2 C 0.4744(2) 0.4727(5) 0.4112(5)
H41_2 H 0.4908 0.4611 0.3754
H42_2 H 0.4385 0.4493 0.3377
H43_2 H 0.4079 0.5218 0.5380
H44_2 H 0.4603 0.5306 0.5861
O11_2 O 0.63329(12) 0.3897(3) 0.0185(3)
O13_2 O 0.64911(13) 0.5451(3) 0.0160(3)
O15_2 O 0.63287(11) 0.6377(2) 0.3183(3)
O16_2 O 0.61406(17) 0.7112(3) 0.2295(3)
O17_2 O 0.61744(12) 0.3905(2) 0.2006(3)
O18_2 O 0.61220(11) 0.3888(2) 0.3343(3)
N11_2 N 0.67743(14) 0.4444(3) 0.1133(3)
N12_2 N 0.63374(13) 0.5291(3) 0.2026(3)
C51_2 C 0.67018(18) 0.5359(4) 0.2109(4)
H45_2 H 0.6758 0.5510 0.2648
H46_2 H 0.6780 0.5700 0.1733
C52_2 C 0.68641(17) 0.4687(4) 0.1946(4)
H47_2 H 0.6797 0.4353 0.2342
H48_2 H 0.7100 0.4739 0.1989
C53_2 C 0.67978(18) 0.3699(4) 0.1023(4)
H49_2 H 0.7021 0.3572 0.0896
H50_2 H 0.6736 0.3465 0.1512
C54_2 C 0.65681(17) 0.3497(3) 0.0337(4)
C55_2 C 0.69690(18) 0.4797(4) 0.0482(5)
H51_2 H 0.7068 0.4450 0.0146
H52_2 H 0.7145 0.5055 0.0735
C57_2 C 0.61897(17) 0.5964(3) 0.1865(4)
H53_2 H 0.6280 0.6133 0.1367
H54_2 H 0.5958 0.5893 0.1770
C58_2 C 0.62247(16) 0.6531(4) 0.2485(4)
C59_2 C 0.6195(2) 0.4959(4) 0.2749(4)
H55_2 H 0.6330 0.5069 0.3214
H56_2 H 0.5979 0.5150 0.2839
C60_2 C 0.61654(16) 0.4184(3) 0.2683(4)
N13_2 N 0.68077(14) 0.7395(3) 0.3340(3)
N14_2 N 0.84130(14) 0.7777(3) 0.1888(3)
C61_2 C 0.6909(2) 0.7978(4) 0.3015(6)
H57_2 H 0.6764 0.8344 0.2984
C62_2 C 0.7219(2) 0.8062(4) 0.2723(6)
H58_2 H 0.7280 0.8479 0.2502
C63_2 C 0.74399(17) 0.7532(4) 0.2757(4)
C64_2 C 0.73366(17) 0.6922(4) 0.3098(5)
H59_2 H 0.7477 0.6549 0.3139
C65_2 C 0.70170(18) 0.6882(4) 0.3375(5)
H60_2 H 0.6947 0.6471 0.3597
C66_2 C 0.81749(19) 0.8179(4) 0.1640(4)
H61_2 H 0.8223 0.8524 0.1274
C67_2 C 0.78576(18) 0.8116(4) 0.1895(4)
H62_2 H 0.7696 0.8413 0.1705
C68_2 C 0.77800(17) 0.7599(4) 0.2444(4)
C69_2 C 0.80360(19) 0.7187(4) 0.2717(4)
H63_2 H 0.7999 0.6848 0.3098
C70_2 C 0.83417(17) 0.7286(4) 0.2419(4)
H64_2 H 0.8509 0.6997 0.2593
N15_2 N 0.62789(13) 0.8284(3) 0.3914(4)
C71_2 C 0.6114(2) 0.8597(4) 0.3344(5)
H65_2 H 0.6024 0.8333 0.2933
C72_2 C 0.6066(2) 0.9295(4) 0.3317(5)
H66_2 H 0.5947 0.9494 0.2899
C73_2 C 0.61999(17) 0.9697(4) 0.3927(4)
C74_2 C 0.6373(2) 0.9361(4) 0.4535(5)
H67_2 H 0.6464 0.9611 0.4958
C75_2 C 0.6411(2) 0.8669(4) 0.4515(5)
H68_2 H 0.6530 0.8454 0.4923
N17_2 N 0.58998(14) 0.7098(3) 0.4271(3)
N18_2 N 0.43286(18) 0.7008(3) 0.5958(4)
C81_2 C 0.58425(18) 0.7372(4) 0.4978(5)
H73_2 H 0.6010 0.7602 0.5247
C82_2 C 0.5530(2) 0.7324(5) 0.5341(5)
H74_2 H 0.5495 0.7525 0.5839
C83_2 C 0.52850(18) 0.6987(4) 0.4960(4)
C84_2 C 0.5350(2) 0.6689(4) 0.4206(5)
H75_2 H 0.5189 0.6454 0.3920
C85_2 C 0.5663(2) 0.6758(4) 0.3906(5)
H76_2 H 0.5708 0.6552 0.3416
C86_2 C 0.4596(2) 0.6978(5) 0.6426(5)
H77_2 H 0.4570 0.6971 0.6980
C87_2 C 0.4907(2) 0.6956(5) 0.6119(5)
H78_2 H 0.5086 0.6935 0.6469
C88_2 C 0.4957(2) 0.6966(4) 0.5309(5)
C89_2 C 0.4675(2) 0.6989(6) 0.4824(5)
H79_2 H 0.4691 0.6984 0.4267
C90_2 C 0.4377(2) 0.7018(6) 0.5174(5)
H80_2 H 0.4194 0.7047 0.4838
Cu6_2 Cu 0.629228(19) 0.46595(4) 0.09742(4)
Cu7_2 Cu 0.864980(19) 0.77488(4) 0.62019(5)
Cu10_2 Cu 0.370772(19) 0.46595(4) 0.40258(4)
O19_2 O 0.66154(11) 0.2944(2) 0.9970(3)
N19_2 N 0.68077(14) 0.2605(3) 0.8340(3)
N21_2 N 0.58998(14) 0.2902(3) 0.9271(3)
Cu12_2 Cu 0.887363(18) 0.78919(4) 0.14236(5)
Cu14_2 Cu 0.387363(18) 0.71081(4) 0.64236(5)
O20_2 O 0.63624(12) 0.3197(3) 0.4808(3)
O21_2 O 0.58824(14) 0.2660(3) 0.2213(3)
N22_2 N 0.65870(14) 0.2777(3) 0.3112(3)
N24_2 N 0.56714(18) 0.2992(3) 0.4042(4)
N25_2 N 0.58244(14) 0.4824(3) 0.0660(3)
H85_2 H 0.65716 0.655922 0.971486
O14_2 O 0.6900(3) 0.5434(7) 0.9312(8)
C56_2 C 0.6772(2) 0.5272(5) 0.9956(6)
H83 H 0.12109 0.149843 0.0102583
C26_3 C 0.0751(2) 0.0076(5) 0.9946(5)
H21_3 H 0.0921 0.0218 0.9620
C27_3 C 0.0435(2) 0.0141(5) 0.9657(5)
H22_3 H 0.0397 0.0306 0.9139
N1_3 N 0.31923(14) 0.7395(3) 0.1660(3)
C1_3 C 0.3091(2) 0.7978(4) 0.1985(6)
H1_3 H 0.3236 0.8344 0.2016
C2_3 C 0.2781(2) 0.8062(4) 0.2277(6)
H2_3 H 0.2720 0.8479 0.2498
C3_3 C 0.25601(17) 0.7532(4) 0.2243(4)
C4_3 C 0.26634(17) 0.6922(4) 0.1902(5)
H3_3 H 0.2523 0.6549 0.1861
C5_3 C 0.29830(18) 0.6882(4) 0.1625(5)
H4_3 H 0.3053 0.6471 0.1403
C6_3 C 0.18251(19) 0.8179(4) 0.3360(4)
H5_3 H 0.1777 0.8524 0.3726
C7_3 C 0.21424(18) 0.8116(4) 0.3105(4)
H6_3 H 0.2304 0.8413 0.3295
C8_3 C 0.22200(17) 0.7599(4) 0.2556(4)
C9_3 C 0.19640(19) 0.7187(4) 0.2283(4)
H7_3 H 0.2001 0.6848 0.1902
C10_3 C 0.16583(17) 0.7286(4) 0.2581(4)
H8_3 H 0.1491 0.6997 0.2407
C28_3 C 0.0174(2) 0.9963(4) 0.0135(5)
C29_3 C 0.0256(2) 0.9727(5) 0.0888(5)
H23_3 H 0.0092 0.9611 0.1246
C30_3 C 0.0571(2) 0.9664(5) 0.1111(5)
H24_3 H 0.0615 0.9493 0.1623
C31_3 C 0.0404(2) 0.8022(5) 0.3574(5)
H25_3 H 0.0430 0.8029 0.3020
C32_3 C 0.0093(2) 0.8044(5) 0.3881(5)
C33_3 C 0.0043(2) 0.8034(4) 0.4691(5)
C34_3 C 0.0325(2) 0.8011(6) 0.5176(5)
H27_3 H 0.0309 0.8016 0.5733
C35_3 C 0.0623(2) 0.7982(6) 0.4826(5)
H28_3 H 0.0806 0.7953 0.5162
H73_3 H 0.1010 0.7398 0.0247
C82_3 C 0.0530(2) 0.7676(5) 0.0341(5)
H74_3 H 0.0495 0.7475 0.0839
H78_3 H 0.0086 0.8065 0.1469
N14_3 N 0.34130(14) 0.7223(3) 0.6888(3)
C61_3 C 0.1909(2) 0.7022(4) 0.8015(6)
H57_3 H 0.1764 0.6656 0.7984
C62_3 C 0.2219(2) 0.6938(4) 0.7723(6)
H58_3 H 0.2280 0.6521 0.7502
C63_3 C 0.24399(17) 0.7468(4) 0.7757(4)
C64_3 C 0.23366(17) 0.8078(4) 0.8098(5)
H59_3 H 0.2477 0.8451 0.8139
C65_3 C 0.20170(18) 0.8118(4) 0.8375(5)
H60_3 H 0.1947 0.8529 0.8597
C66_3 C 0.31749(19) 0.6821(4) 0.6640(4)
H61_3 H 0.3223 0.6476 0.6274
C67_3 C 0.28576(18) 0.6884(4) 0.6895(4)
H62_3 H 0.2696 0.6587 0.6705
C68_3 C 0.27800(17) 0.7401(4) 0.7444(4)
C69_3 C 0.30360(19) 0.7813(4) 0.7717(4)
H63_3 H 0.2999 0.8152 0.8098
C70_3 C 0.33417(17) 0.7714(4) 0.7419(4)
H64_3 H 0.3509 0.8003 0.7593
C81_3 C 0.08425(18) 0.7628(4) 0.9978(5)
C83_3 C 0.02850(18) 0.8013(4) 0.9960(4)
C84_3 C 0.0350(2) 0.8311(4) 0.9206(5)
H75_3 H 0.0189 0.8546 0.8920
C85_3 C 0.0663(2) 0.8242(4) 0.8906(5)
H76_3 H 0.0708 0.8448 0.8416
C46_3 C 0.9826(2) 0.0037(4) 0.9865(5)
N10_3 N 0.91756(14) 0.0176(3) 0.9340(3)
C49_3 C 0.9429(2) 0.0336(5) 0.8889(5)
C50_3 C 0.9744(2) 0.0273(5) 0.9112(5)
H41_3 H 0.9908 0.0389 0.8754
H42_3 H 0.9385 0.0507 0.8377
Cu10_3 Cu 0.870772(19) 0.03405(4) 0.90258(4)
N5_3 N 0.91002(14) 0.7902(3) 0.5729(3)
C21_3 C 0.91575(18) 0.7628(4) 0.5022(5)
H17_3 H 0.8990 0.7398 0.4753
C22_3 C 0.9470(2) 0.7676(5) 0.4659(5)
H18_3 H 0.9505 0.7475 0.4161
C23_3 C 0.97150(18) 0.8013(4) 0.5040(4)
C24_3 C 0.9650(2) 0.8311(4) 0.5794(5)
H19_3 H 0.9811 0.8546 0.6080
C25_3 C 0.9337(2) 0.8242(4) 0.6094(5)
H20_3 H 0.9292 0.8448 0.6584
H26_3 H 0.9914 0.8065 0.3531
C47_3 C 0.9565(2) 0.9859(5) 0.0343(5)
C48_3 C 0.9249(2) 0.9924(5) 0.0054(5)
H43_3 H 0.9079 0.9782 0.0380
H44_3 H 0.9603 0.9694 0.0861
N18_3 N 0.93286(18) 0.7992(3) 0.0958(4)
C86_3 C 0.9596(2) 0.8022(5) 0.1426(5)
H77_3 H 0.9570 0.8029 0.1980
C87_3 C 0.9907(2) 0.8044(5) 0.1119(5)
C88_3 C 0.9957(2) 0.8034(4) 0.0309(5)
C90_3 C 0.9377(2) 0.7982(6) 0.0174(5)
C89_3 C 0.9675(2) 0.8011(6) 0.9824(5)
H79_3 H 0.9691 0.8016 0.9267
H80_3 H 0.9194 0.7953 0.9838
N1_4 N 0.81923(14) 0.2395(3) 0.1660(3)
N5_4 N 0.41002(14) 0.2902(3) 0.5729(3)
C1_4 C 0.8091(2) 0.2978(4) 0.1985(6)
H1_4 H 0.8236 0.3344 0.2016
C2_4 C 0.7781(2) 0.3062(4) 0.2277(6)
H2_4 H 0.7720 0.3479 0.2498
C3_4 C 0.75601(17) 0.2532(4) 0.2243(4)
C4_4 C 0.76634(17) 0.1922(4) 0.1902(5)
H3_4 H 0.7523 0.1549 0.1861
C5_4 C 0.79830(18) 0.1882(4) 0.1625(5)
H4_4 H 0.8053 0.1471 0.1403
C6_4 C 0.68251(19) 0.3179(4) 0.3360(4)
H5_4 H 0.6777 0.3524 0.3726
C7_4 C 0.71424(18) 0.3116(4) 0.3105(4)
H6_4 H 0.7304 0.3413 0.3295
C8_4 C 0.72200(17) 0.2599(4) 0.2556(4)
C9_4 C 0.69640(19) 0.2187(4) 0.2283(4)
H7_4 H 0.7001 0.1848 0.1902
C10_4 C 0.66583(17) 0.2286(4) 0.2581(4)
H8_4 H 0.6491 0.1997 0.2407
C21_4 C 0.41575(18) 0.2628(4) 0.5022(5)
H17_4 H 0.3990 0.2398 0.4753
C22_4 C 0.4470(2) 0.2676(5) 0.4659(5)
H18_4 H 0.4505 0.2475 0.4161
C23_4 C 0.47150(18) 0.3013(4) 0.5040(4)
C24_4 C 0.4650(2) 0.3311(4) 0.5794(5)
H19_4 H 0.4811 0.3546 0.6080
C25_4 C 0.4337(2) 0.3242(4) 0.6094(5)
H20_4 H 0.4292 0.3448 0.6584
C28_4 C 0.5174(2) 0.4963(4) 0.0135(5)
C29_4 C 0.5256(2) 0.4727(5) 0.0888(5)
H23_4 H 0.5092 0.4611 0.1246
C30_4 C 0.5571(2) 0.4664(5) 0.1111(5)
H24_4 H 0.5615 0.4493 0.1623
C31_4 C 0.5404(2) 0.3022(5) 0.3574(5)
H25_4 H 0.5430 0.3029 0.3020
C32_4 C 0.5093(2) 0.3044(5) 0.3881(5)
H26_4 H 0.4914 0.3065 0.3531
C33_4 C 0.5043(2) 0.3034(4) 0.4691(5)
C34_4 C 0.5325(2) 0.3011(6) 0.5176(5)
H27_4 H 0.5309 0.3016 0.5733
C35_4 C 0.5623(2) 0.2982(6) 0.4826(5)
H28_4 H 0.5806 0.2953 0.5162
C47_4 C 0.4565(2) 0.4859(5) 0.0343(5)
C48_4 C 0.4249(2) 0.4924(5) 0.0054(5)
H43_4 H 0.4079 0.4782 0.0380
H44_4 H 0.4603 0.4694 0.0861
N18_4 N 0.43286(18) 0.2992(3) 0.0958(4)
H73_4 H 0.6010 0.2398 0.0247
C82_4 C 0.5530(2) 0.2676(5) 0.0341(5)
H74_4 H 0.5495 0.2475 0.0839
C86_4 C 0.4596(2) 0.3022(5) 0.1426(5)
H77_4 H 0.4570 0.3029 0.1980
C87_4 C 0.4907(2) 0.3044(5) 0.1119(5)
H78_4 H 0.5086 0.3065 0.1469
C88_4 C 0.4957(2) 0.3034(4) 0.0309(5)
C90_4 C 0.4377(2) 0.2982(6) 0.0174(5)
H83_2 H 0.62109 0.649843 0.0102583
C26_4 C 0.5751(2) 0.5076(5) 0.9946(5)
H21_4 H 0.5921 0.5218 0.9620
C27_4 C 0.5435(2) 0.5141(5) 0.9657(5)
H22_4 H 0.5397 0.5306 0.9139
C46_4 C 0.4826(2) 0.5037(4) 0.9865(5)
N10_4 N 0.41756(14) 0.5176(3) 0.9340(3)
C49_4 C 0.4429(2) 0.5336(5) 0.8889(5)
C50_4 C 0.4744(2) 0.5273(5) 0.9112(5)
H41_4 H 0.4908 0.5389 0.8754
H42_4 H 0.4385 0.5507 0.8377
N14_4 N 0.84130(14) 0.2223(3) 0.6888(3)
C61_4 C 0.6909(2) 0.2022(4) 0.8015(6)
H57_4 H 0.6764 0.1656 0.7984
C62_4 C 0.7219(2) 0.1938(4) 0.7723(6)
H58_4 H 0.7280 0.1521 0.7502
C63_4 C 0.74399(17) 0.2468(4) 0.7757(4)
C64_4 C 0.73366(17) 0.3078(4) 0.8098(5)
H59_4 H 0.7477 0.3451 0.8139
C65_4 C 0.70170(18) 0.3118(4) 0.8375(5)
H60_4 H 0.6947 0.3529 0.8597
C66_4 C 0.81749(19) 0.1821(4) 0.6640(4)
H61_4 H 0.8223 0.1476 0.6274
C67_4 C 0.78576(18) 0.1884(4) 0.6895(4)
H62_4 H 0.7696 0.1587 0.6705
C68_4 C 0.77800(17) 0.2401(4) 0.7444(4)
C69_4 C 0.80360(19) 0.2813(4) 0.7717(4)
H63_4 H 0.7999 0.3152 0.8098
C70_4 C 0.83417(17) 0.2714(4) 0.7419(4)
H64_4 H 0.8509 0.3003 0.7593
C81_4 C 0.58425(18) 0.2628(4) 0.9978(5)
C83_4 C 0.52850(18) 0.3013(4) 0.9960(4)
C84_4 C 0.5350(2) 0.3311(4) 0.9206(5)
H75_4 H 0.5189 0.3546 0.8920
C85_4 C 0.5663(2) 0.3242(4) 0.8906(5)
H76_4 H 0.5708 0.3448 0.8416
C89_4 C 0.4675(2) 0.3011(6) 0.9824(5)
H79_4 H 0.4691 0.3016 0.9267
H80_4 H 0.4194 0.2953 0.9838
Cu10_4 Cu 0.370772(19) 0.53405(4) 0.90258(4)
O12 O 0.83846(11) 0.2056(2) 0.0030(3)
O3_3 O 0.85089(13) 0.0451(3) 0.4840(3)
O4_3 O 0.8100(3) 0.0434(7) 0.5688(8)
O5_3 O 0.86713(11) 0.1377(2) 0.1817(3)
O6_3 O 0.88594(17) 0.2112(3) 0.2705(3)
N9_3 N 0.86626(13) 0.0291(3) 0.2974(3)
C36_3 C 0.82982(18) 0.0359(4) 0.2891(4)
H29_3 H 0.8242 0.0510 0.2352
H30_3 H 0.8220 0.0700 0.3267
H36_3 H 0.7855 0.0055 0.4265
C41_3 C 0.8228(2) 0.0272(5) 0.5044(6)
C42_3 C 0.88103(17) 0.0964(3) 0.3135(4)
H37_3 H 0.8720 0.1133 0.3633
H38_3 H 0.9042 0.0893 0.3230
C43_3 C 0.87753(16) 0.1531(4) 0.2515(4)
H39_3 H 0.8670 0.0069 0.1786
H40_3 H 0.9021 0.0150 0.2161
O11_3 O 0.86671(12) 0.1103(3) 0.9815(3)
O17_3 O 0.88256(12) 0.1095(2) 0.7994(3)
O18_3 O 0.88780(11) 0.1112(2) 0.6657(3)
N11_3 N 0.82257(14) 0.0556(3) 0.8867(3)
C52_3 C 0.81359(17) 0.0313(4) 0.8054(4)
H47_3 H 0.8203 0.0647 0.7658
H48_3 H 0.7900 0.0261 0.8011
C53_3 C 0.82022(18) 0.1301(4) 0.8977(4)
H49_3 H 0.7979 0.1428 0.9104
H50_3 H 0.8264 0.1535 0.8488
C54_3 C 0.84319(17) 0.1503(3) 0.9663(4)
C55_3 C 0.80310(18) 0.0203(4) 0.9518(5)
H51_3 H 0.7932 0.0550 0.9854
C59_3 C 0.8805(2) 0.0041(4) 0.7251(4)
C60_3 C 0.88346(16) 0.0816(3) 0.7317(4)
N20 N 0.87211(13) 0.3284(3) 0.1086(4)
O20_3 O 0.86376(12) 0.1803(3) 0.5192(3)
O21_3 O 0.91176(14) 0.2340(3) 0.7787(3)
N23 N 0.88771(15) 0.3130(3) 0.6178(4)
O14_3 O 0.8100(3) 0.9566(7) 0.0688(8)
C56_3 C 0.8228(2) 0.9728(5) 0.0044(6)
O1_3 O 0.86671(12) 0.8897(3) 0.4815(3)
O2_3 O 0.83846(11) 0.7944(2) 0.5030(3)
O7_3 O 0.88256(12) 0.8905(2) 0.2994(3)
O8_3 O 0.88780(11) 0.8888(2) 0.1657(3)
O9_3 O 0.86376(12) 0.8197(3) 0.0192(3)
O10_3 O 0.91176(14) 0.7660(3) 0.2787(3)
N4_3 N 0.88771(15) 0.6870(3) 0.1178(4)
N8_3 N 0.82257(14) 0.9444(3) 0.3867(3)
C11_3 C 0.8886(2) 0.3597(4) 0.1656(5)
H9_3 H 0.8976 0.3333 0.2067
C12_3 C 0.8934(2) 0.4295(4) 0.1683(5)
H10_3 H 0.9053 0.4494 0.2101
C13_3 C 0.88001(17) 0.4697(4) 0.1073(4)
C14_3 C 0.8627(2) 0.4361(4) 0.0465(5)
H11_3 H 0.8536 0.4611 0.0042
C15_3 C 0.8589(2) 0.3669(4) 0.0485(5)
H12_3 H 0.8470 0.3454 0.0077
C16_3 C 0.9120(2) 0.6475(4) 0.1496(5)
H13_3 H 0.9302 0.6678 0.1737
C17_3 C 0.9096(2) 0.5763(4) 0.1458(6)
H14_3 H 0.9261 0.5499 0.1688
C18_3 C 0.88364(19) 0.5444(3) 0.1092(4)
C19_3 C 0.8593(2) 0.5874(4) 0.0742(5)
H15_3 H 0.8413 0.5685 0.0477
C20_3 C 0.8625(2) 0.6563(4) 0.0800(5)
H16_3 H 0.8464 0.6838 0.0565
C37_3 C 0.81359(17) 0.9687(4) 0.3054(4)
H31_3 H 0.8203 0.9353 0.2658
H32_3 H 0.7900 0.9739 0.3011
C38_3 C 0.82022(18) 0.8699(4) 0.3977(4)
H33_3 H 0.7979 0.8572 0.4104
H34_3 H 0.8264 0.8465 0.3488
C39_3 C 0.84319(17) 0.8497(3) 0.4663(4)
C40_3 C 0.80310(18) 0.9797(4) 0.4518(5)
H35_3 H 0.7932 0.9450 0.4854
C44_3 C 0.8805(2) 0.9959(4) 0.2251(4)
C45_3 C 0.88346(16) 0.9184(3) 0.2317(4)
O13_3 O 0.85089(13) 0.9549(3) 0.9840(3)
O15_3 O 0.86713(11) 0.8623(2) 0.6817(3)
O16_3 O 0.88594(17) 0.7888(3) 0.7705(3)
N12_3 N 0.86626(13) 0.9709(3) 0.7974(3)
C51_3 C 0.82982(18) 0.9641(4) 0.7891(4)
H45_3 H 0.8242 0.9490 0.7352
H46_3 H 0.8220 0.9300 0.8267
H52_3 H 0.7855 0.9945 0.9265
C57_3 C 0.88103(17) 0.9036(3) 0.8135(4)
H53_3 H 0.8720 0.8867 0.8633
H54_3 H 0.9042 0.9107 0.8230
C58_3 C 0.87753(16) 0.8469(4) 0.7515(4)
H55_3 H 0.8670 0.9931 0.6786
H56_3 H 0.9021 0.9850 0.7161
N15_3 N 0.87211(13) 0.6716(3) 0.6086(4)
C71_3 C 0.8886(2) 0.6403(4) 0.6656(5)
H65_3 H 0.8976 0.6667 0.7067
C72_3 C 0.8934(2) 0.5705(4) 0.6683(5)
H66_3 H 0.9053 0.5506 0.7101
C73_3 C 0.88001(17) 0.5303(4) 0.6073(4)
C74_3 C 0.8627(2) 0.5639(4) 0.5465(5)
H67_3 H 0.8536 0.5389 0.5042
C75_3 C 0.8589(2) 0.6331(4) 0.5485(5)
H68_3 H 0.8470 0.6546 0.5077
C76_3 C 0.9120(2) 0.3525(4) 0.6496(5)
H69_3 H 0.9302 0.3322 0.6737
C77_3 C 0.9096(2) 0.4237(4) 0.6458(6)
H70_3 H 0.9261 0.4501 0.6688
C78_3 C 0.88364(19) 0.4556(3) 0.6092(4)
C79_3 C 0.8593(2) 0.4126(4) 0.5742(5)
H71_3 H 0.8413 0.4315 0.5477
C80_3 C 0.8625(2) 0.3437(4) 0.5800(5)
H72_3 H 0.8464 0.3162 0.5565
H85_3 H 0.84284 0.844078 0.0285136
H86_3 H 0.859479 0.777856 0.986903
O12_2 O 0.33846(11) 0.7056(2) 0.0030(3)
O14_4 O 0.3100(3) 0.4566(7) 0.0688(8)
C56_4 C 0.3228(2) 0.4728(5) 0.0044(6)
O1_4 O 0.36671(12) 0.3897(3) 0.4815(3)
O2_4 O 0.33846(11) 0.2944(2) 0.5030(3)
O3_4 O 0.35089(13) 0.5451(3) 0.4840(3)
O4_4 O 0.3100(3) 0.5434(7) 0.5688(8)
O5_4 O 0.36713(11) 0.6377(2) 0.1817(3)
O6_4 O 0.38594(17) 0.7112(3) 0.2705(3)
O7_4 O 0.38256(12) 0.3905(2) 0.2994(3)
O8_4 O 0.38780(11) 0.3888(2) 0.1657(3)
O9_4 O 0.36376(12) 0.3197(3) 0.0192(3)
O10_4 O 0.41176(14) 0.2660(3) 0.2787(3)
N4_4 N 0.38771(15) 0.1870(3) 0.1178(4)
N8_4 N 0.32257(14) 0.4444(3) 0.3867(3)
N9_4 N 0.36626(13) 0.5291(3) 0.2974(3)
C16_4 C 0.4120(2) 0.1475(4) 0.1496(5)
H13_4 H 0.4302 0.1678 0.1737
C17_4 C 0.4096(2) 0.0763(4) 0.1458(6)
H14_4 H 0.4261 0.0499 0.1688
C18_4 C 0.38364(19) 0.0444(3) 0.1092(4)
C19_4 C 0.3593(2) 0.0874(4) 0.0742(5)
H15_4 H 0.3413 0.0685 0.0477
C20_4 C 0.3625(2) 0.1563(4) 0.0800(5)
H16_4 H 0.3464 0.1838 0.0565
C36_4 C 0.32982(18) 0.5359(4) 0.2891(4)
H29_4 H 0.3242 0.5510 0.2352
H30_4 H 0.3220 0.5700 0.3267
C37_4 C 0.31359(17) 0.4687(4) 0.3054(4)
H31_4 H 0.3203 0.4353 0.2658
H32_4 H 0.2900 0.4739 0.3011
C38_4 C 0.32022(18) 0.3699(4) 0.3977(4)
H33_4 H 0.2979 0.3572 0.4104
H34_4 H 0.3264 0.3465 0.3488
C39_4 C 0.34319(17) 0.3497(3) 0.4663(4)
C40_4 C 0.30310(18) 0.4797(4) 0.4518(5)
H35_4 H 0.2932 0.4450 0.4854
H36_4 H 0.2855 0.5055 0.4265
C41_4 C 0.3228(2) 0.5272(5) 0.5044(6)
C42_4 C 0.38103(17) 0.5964(3) 0.3135(4)
H37_4 H 0.3720 0.6133 0.3633
H38_4 H 0.4042 0.5893 0.3230
C43_4 C 0.37753(16) 0.6531(4) 0.2515(4)
C44_4 C 0.3805(2) 0.4959(4) 0.2251(4)
H39_4 H 0.3670 0.5069 0.1786
H40_4 H 0.4021 0.5150 0.2161
C45_4 C 0.38346(16) 0.4184(3) 0.2317(4)
O11_4 O 0.36671(12) 0.6103(3) 0.9815(3)
O13_4 O 0.35089(13) 0.4549(3) 0.9840(3)
O15_4 O 0.36713(11) 0.3623(2) 0.6817(3)
O16_4 O 0.38594(17) 0.2888(3) 0.7705(3)
O17_4 O 0.38256(12) 0.6095(2) 0.7994(3)
O18_4 O 0.38780(11) 0.6112(2) 0.6657(3)
N11_4 N 0.32257(14) 0.5556(3) 0.8867(3)
N12_4 N 0.36626(13) 0.4709(3) 0.7974(3)
C51_4 C 0.32982(18) 0.4641(4) 0.7891(4)
H45_4 H 0.3242 0.4490 0.7352
H46_4 H 0.3220 0.4300 0.8267
C52_4 C 0.31359(17) 0.5313(4) 0.8054(4)
H47_4 H 0.3203 0.5647 0.7658
H48_4 H 0.2900 0.5261 0.8011
C53_4 C 0.32022(18) 0.6301(4) 0.8977(4)
H49_4 H 0.2979 0.6428 0.9104
H50_4 H 0.3264 0.6535 0.8488
C54_4 C 0.34319(17) 0.6503(3) 0.9663(4)
C55_4 C 0.30310(18) 0.5203(4) 0.9518(5)
H51_4 H 0.2932 0.5550 0.9854
H52_4 H 0.2855 0.4945 0.9265
C57_4 C 0.38103(17) 0.4036(3) 0.8135(4)
H53_4 H 0.3720 0.3867 0.8633
H54_4 H 0.4042 0.4107 0.8230
C58_4 C 0.37753(16) 0.3469(4) 0.7515(4)
C59_4 C 0.3805(2) 0.5041(4) 0.7251(4)
H55_4 H 0.3670 0.4931 0.6786
H56_4 H 0.4021 0.4850 0.7161
C60_4 C 0.38346(16) 0.5816(3) 0.7317(4)
N15_4 N 0.37211(13) 0.1716(3) 0.6086(4)
C71_4 C 0.3886(2) 0.1403(4) 0.6656(5)
H65_4 H 0.3976 0.1667 0.7067
C72_4 C 0.3934(2) 0.0705(4) 0.6683(5)
H66_4 H 0.4053 0.0506 0.7101
C73_4 C 0.38001(17) 0.0303(4) 0.6073(4)
C74_4 C 0.3627(2) 0.0639(4) 0.5465(5)
H67_4 H 0.3536 0.0389 0.5042
C75_4 C 0.3589(2) 0.1331(4) 0.5485(5)
H68_4 H 0.3470 0.1546 0.5077
N20_2 N 0.37211(13) 0.8284(3) 0.1086(4)
O20_4 O 0.36376(12) 0.6803(3) 0.5192(3)
O21_4 O 0.41176(14) 0.7340(3) 0.7787(3)
N23_2 N 0.38771(15) 0.8130(3) 0.6178(4)
H85_4 H 0.34284 0.344078 0.0285136
H86_4 H 0.359479 0.277856 0.986903
C11_4 C 0.3886(2) 0.8597(4) 0.1656(5)
H9_4 H 0.3976 0.8333 0.2067
C12_4 C 0.3934(2) 0.9295(4) 0.1683(5)
H10_4 H 0.4053 0.9494 0.2101
C13_4 C 0.38001(17) 0.9697(4) 0.1073(4)
C14_4 C 0.3627(2) 0.9361(4) 0.0465(5)
H11_4 H 0.3536 0.9611 0.0042
C15_4 C 0.3589(2) 0.8669(4) 0.0485(5)
H12_4 H 0.3470 0.8454 0.0077
C76_4 C 0.4120(2) 0.8525(4) 0.6496(5)
H69_4 H 0.4302 0.8322 0.6737
C77_4 C 0.4096(2) 0.9237(4) 0.6458(6)
H70_4 H 0.4261 0.9501 0.6688
C78_4 C 0.38364(19) 0.9556(3) 0.6092(4)
C79_4 C 0.3593(2) 0.9126(4) 0.5742(5)
H71_4 H 0.3413 0.9315 0.5477
C80_4 C 0.3625(2) 0.8437(4) 0.5800(5)
H72_4 H 0.3464 0.8162 0.5565
H83_3 H 0.87891 0.850157 0.989742
H83_4 H 0.37891 0.350157 0.989742
loop_
_geom_bond_atom_site_label_1
_geom_bond_atom_site_label_2
_geom_bond_site_symmetry_1
_geom_bond_site_symmetry_2
H27 C34 1_555 1_555
Cu1 O8 1_555 1_555
Cu2 O2 1_555 1_555
Cu3 O1 1_555 1_555
O1 C39 1_555 1_555
O2 C39 1_555 1_555
O7 Cu3 1_555 1_555
O8 C45 1_555 1_555
O9 Cu1 1_555 1_555
O10 Cu1 1_555 1_555
N1 C1 1_555 1_555
N2 Cu1 1_555 1_555
N3 C11 1_555 1_555
N4 Cu1 1_555 1_555
N6 Cu3 1_555 1_555
N7 Cu1 1_555 1_555
N8 Cu3 1_555 1_555
C1 H1 1_555 1_555
C2 C1 1_555 1_555
H2 C2 1_555 1_555
C3 C2 1_555 1_555
C4 C3 1_555 1_555
H3 C4 1_555 1_555
C5 N1 1_555 1_555
H4 C5 1_555 1_555
C6 N2 1_555 1_555
H5 C6 1_555 1_555
C7 C6 1_555 1_555
H6 C7 1_555 1_555
C8 C3 1_555 1_555
C9 C8 1_555 1_555
H7 C9 1_555 1_555
C10 N2 1_555 1_555
H8 C10 1_555 1_555
C11 H9 1_555 1_555
C12 C11 1_555 1_555
H10 C12 1_555 1_555
C13 C12 1_555 1_555
C14 C13 1_555 1_555
H11 C14 1_555 1_555
C15 N3 1_555 1_555
H12 C15 1_555 1_555
C16 N4 1_555 1_555
H13 C16 1_555 1_555
C17 C16 1_555 1_555
H14 C17 1_555 1_555
C18 C13 1_555 1_555
C19 C18 1_555 1_555
H15 C19 1_555 1_555
C20 N4 1_555 1_555
H16 C20 1_555 1_555
C29 C28 1_555 1_555
H23 C29 1_555 1_555
C30 N6 1_555 1_555
H24 C30 1_555 1_555
C31 N7 1_555 1_555
H25 C31 1_555 1_555
C32 C31 1_555 1_555
C35 N7 1_555 1_555
C37 N8 1_555 1_555
H31 C37 1_555 1_555
H32 C37 1_555 1_555
C38 N8 1_555 1_555
H33 C38 1_555 1_555
H34 C38 1_555 1_555
C39 C38 1_555 1_555
C40 N8 1_555 1_555
H35 C40 1_555 1_555
C45 O7 1_555 1_555
O15 Cu2 1_555 1_555
O16 C58 1_555 1_555
N12 C51 1_555 1_555
C51 H45 1_555 1_555
H46 C51 1_555 1_555
C57 N12 1_555 1_555
H53 C57 1_555 1_555
H54 C57 1_555 1_555
C58 O15 1_555 1_555
N13 Cu2 1_555 1_555
N14 C66 1_555 1_555
C61 N13 1_555 1_555
H57 C61 1_555 1_555
C62 C61 1_555 1_555
H58 C62 1_555 1_555
C63 C62 1_555 1_555
C64 C63 1_555 1_555
H59 C64 1_555 1_555
C65 N13 1_555 1_555
H60 C65 1_555 1_555
C66 H61 1_555 1_555
C67 C66 1_555 1_555
H62 C67 1_555 1_555
C68 C63 1_555 1_555
C69 C68 1_555 1_555
H63 C69 1_555 1_555
C70 N14 1_555 1_555
H64 C70 1_555 1_555
N15 Cu2 1_555 1_555
N16 C76 1_555 1_555
C71 N15 1_555 1_555
H65 C71 1_555 1_555
C72 C71 1_555 1_555
H66 C72 1_555 1_555
C73 C72 1_555 1_555
C74 C73 1_555 1_555
H67 C74 1_555 1_555
C75 N15 1_555 1_555
H68 C75 1_555 1_555
C76 H69 1_555 1_555
C77 C76 1_555 1_555
H70 C77 1_555 1_555
C78 C73 1_555 1_555
C79 C78 1_555 1_555
H71 C79 1_555 1_555
C80 N16 1_555 1_555
H72 C80 1_555 1_555
N17 Cu2 1_555 1_555
C81 N17 1_555 1_555
H73 C81 1_555 1_555
C82 C81 1_555 1_555
H74 C82 1_555 1_555
C83 C82 1_555 1_555
C84 C83 1_555 1_555
H75 C84 1_555 1_555
C85 N17 1_555 1_555
H76 C85 1_555 1_555
Cu7 N1 1_555 1_555
Cu8 N3 1_555 1_555
Cu12 N14 1_555 1_555
Cu13 N16 1_555 1_555
C4 C5 1_555 1_555
C7 C8 1_555 1_555
C9 C10 1_555 1_555
C14 C15 1_555 1_555
C17 C18 1_555 1_555
C19 C20 1_555 1_555
C29 C30 1_555 1_555
C32 C33 1_555 1_555
C44 C45 1_555 1_555
C57 C58 1_555 1_555
C64 C65 1_555 1_555
C67 C68 1_555 1_555
C69 C70 1_555 1_555
C74 C75 1_555 1_555
C77 C78 1_555 1_555
C79 C80 1_555 1_555
C84 C85 1_555 1_555
O9 H85 1_555 1_555
O14 C56 1_555 1_555
O4 C41 1_555 1_555
O5 C43 1_555 1_555
O6 C43 1_555 1_555
H21 C26 1_555 1_555
C27 C26 1_555 1_555
H22 C27 1_555 1_555
C36 N9 1_555 1_555
H29 C36 1_555 1_555
H30 C36 1_555 1_555
C41 O3 1_555 1_555
C42 N9 1_555 1_555
H37 C42 1_555 1_555
H38 C42 1_555 1_555
C43 C42 1_555 1_555
Cu8 O5 1_555 1_555
O11 C54 1_555 1_555
O17 C60 1_555 1_555
O18 C60 1_555 1_555
N11 C52 1_555 1_555
H47 C52 1_555 1_555
H48 C52 1_555 1_555
C53 N11 1_555 1_555
H49 C53 1_555 1_555
H50 C53 1_555 1_555
C54 C53 1_555 1_555
C55 N11 1_555 1_555
H51 C55 1_555 1_555
C60 C59 1_555 1_555
Cu13 O18 1_555 1_555
Cu6 O11 1_555 1_555
O19 Cu8 1_555 1_555
N19 Cu8 1_555 1_555
N21 Cu8 1_555 1_555
O20 Cu13 1_555 1_555
O21 Cu13 1_555 1_555
N22 Cu13 1_555 1_555
N24 Cu13 1_555 1_555
N25 Cu6 1_555 1_555
O17 Cu6 1_555 1_555
N11 Cu6 1_555 1_555
N5 C21 1_555 1_555
C24 C23 1_555 1_555
H19 C24 1_555 1_555
C25 N5 1_555 1_555
H20 C25 1_555 1_555
Cu9 N5 1_555 1_555
C24 C25 1_555 1_555
H18 C22 1_555 1_555
C48 C47 1_555 1_555
H43 C48 1_555 1_555
H44 C47 1_555 1_555
N18 C86 1_555 1_555
C86 H77 1_555 1_555
C87 C86 1_555 1_555
C89 C88 1_555 1_555
H79 C89 1_555 1_555
C90 N18 1_555 1_555
H80 C90 1_555 1_555
Cu14 N18 1_555 1_555
C87 C88 1_555 1_555
C89 C90 1_555 1_555
C49 N10 1_555 1_555
C50 C46 1_555 1_555
H41 C50 1_555 1_555
H42 C49 1_555 1_555
Cu10 N10 1_555 1_555
C49 C50 1_555 1_555
N3_2 C11_2 1_555 1_555
C11_2 H9_2 1_555 1_555
C12_2 C11_2 1_555 1_555
H10_2 C12_2 1_555 1_555
C13_2 C12_2 1_555 1_555
C14_2 C13_2 1_555 1_555
H11_2 C14_2 1_555 1_555
C15_2 N3_2 1_555 1_555
H12_2 C15_2 1_555 1_555
N16_2 C76_2 1_555 1_555
C76_2 H69_2 1_555 1_555
C77_2 C76_2 1_555 1_555
H70_2 C77_2 1_555 1_555
C79_2 C78_2 1_555 1_555
H71_2 C79_2 1_555 1_555
C80_2 N16_2 1_555 1_555
H72_2 C80_2 1_555 1_555
Cu8_2 N3_2 1_555 1_555
Cu13_2 N16_2 1_555 1_555
C14_2 C15_2 1_555 1_555
C77_2 C78_2 1_555 1_555
C79_2 C80_2 1_555 1_555
N5_2 C21_2 1_555 1_555
C24_2 C23_2 1_555 1_555
H19_2 C24_2 1_555 1_555
C25_2 N5_2 1_555 1_555
H20_2 C25_2 1_555 1_555
H27_2 C34_2 1_555 1_555
Cu9_2 N5_2 1_555 1_555
C24_2 C25_2 1_555 1_555
Cu1_2 O8_2 1_555 1_555
Cu2_2 O2_2 1_555 1_555
Cu3_2 O1_2 1_555 1_555
O1_2 C39_2 1_555 1_555
O2_2 C39_2 1_555 1_555
O3_2 Cu3_2 1_555 1_555
O4_2 C41_2 1_555 1_555
O5_2 C43_2 1_555 1_555
O6_2 C43_2 1_555 1_555
O7_2 Cu3_2 1_555 1_555
O8_2 C45_2 1_555 1_555
O9_2 Cu1_2 1_555 1_555
O10_2 Cu1_2 1_555 1_555
N1_2 C1_2 1_555 1_555
N2_2 Cu1_2 1_555 1_555
N4_2 Cu1_2 1_555 1_555
N6_2 Cu3_2 1_555 1_555
N7_2 Cu1_2 1_555 1_555
N8_2 Cu3_2 1_555 1_555
N9_2 Cu3_2 1_555 1_555
C1_2 H1_2 1_555 1_555
C2_2 C1_2 1_555 1_555
H2_2 C2_2 1_555 1_555
C3_2 C2_2 1_555 1_555
C4_2 C3_2 1_555 1_555
H3_2 C4_2 1_555 1_555
C5_2 N1_2 1_555 1_555
H4_2 C5_2 1_555 1_555
C6_2 N2_2 1_555 1_555
H5_2 C6_2 1_555 1_555
C7_2 C6_2 1_555 1_555
H6_2 C7_2 1_555 1_555
C8_2 C3_2 1_555 1_555
C9_2 C8_2 1_555 1_555
H7_2 C9_2 1_555 1_555
C10_2 N2_2 1_555 1_555
H8_2 C10_2 1_555 1_555
C16_2 N4_2 1_555 1_555
H13_2 C16_2 1_555 1_555
C17_2 C16_2 1_555 1_555
H14_2 C17_2 1_555 1_555
C19_2 C18_2 1_555 1_555
H15_2 C19_2 1_555 1_555
C20_2 N4_2 1_555 1_555
H16_2 C20_2 1_555 1_555
H18_2 C22_2 1_555 1_555
C26_2 N6_2 1_555 1_555
H21_2 C26_2 1_555 1_555
C27_2 C26_2 1_555 1_555
H22_2 C27_2 1_555 1_555
C28_2 C27_2 1_555 1_555
C29_2 C28_2 1_555 1_555
H23_2 C29_2 1_555 1_555
C30_2 N6_2 1_555 1_555
H24_2 C30_2 1_555 1_555
C31_2 N7_2 1_555 1_555
H25_2 C31_2 1_555 1_555
C32_2 C31_2 1_555 1_555
H26_2 C32_2 1_555 1_555
C35_2 N7_2 1_555 1_555
C36_2 N9_2 1_555 1_555
H29_2 C36_2 1_555 1_555
H30_2 C36_2 1_555 1_555
C37_2 N8_2 1_555 1_555
H31_2 C37_2 1_555 1_555
H32_2 C37_2 1_555 1_555
C38_2 N8_2 1_555 1_555
H33_2 C38_2 1_555 1_555
H34_2 C38_2 1_555 1_555
C39_2 C38_2 1_555 1_555
C40_2 N8_2 1_555 1_555
H35_2 C40_2 1_555 1_555
H36_2 C40_2 1_555 1_555
C41_2 O3_2 1_555 1_555
C42_2 N9_2 1_555 1_555
H37_2 C42_2 1_555 1_555
H38_2 C42_2 1_555 1_555
C43_2 C42_2 1_555 1_555
C44_2 N9_2 1_555 1_555
H39_2 C44_2 1_555 1_555
H40_2 C44_2 1_555 1_555
C45_2 O7_2 1_555 1_555
C46_2 C28_2 1_555 1_555
C47_2 C46_2 1_555 1_555
C48_2 C47_2 1_555 1_555
N10_2 C48_2 1_555 1_555
C49_2 N10_2 1_555 1_555
C50_2 C46_2 1_555 1_555
H41_2 C50_2 1_555 1_555
H42_2 C49_2 1_555 1_555
H43_2 C48_2 1_555 1_555
H44_2 C47_2 1_555 1_555
Cu8_2 O5_2 1_555 1_555
O11_2 C54_2 1_555 1_555
O15_2 Cu2_2 1_555 1_555
O16_2 C58_2 1_555 1_555
O17_2 C60_2 1_555 1_555
O18_2 C60_2 1_555 1_555
N11_2 C52_2 1_555 1_555
N12_2 C51_2 1_555 1_555
C51_2 H45_2 1_555 1_555
H46_2 C51_2 1_555 1_555
C52_2 C51_2 1_555 1_555
H47_2 C52_2 1_555 1_555
H48_2 C52_2 1_555 1_555
C53_2 N11_2 1_555 1_555
H49_2 C53_2 1_555 1_555
H50_2 C53_2 1_555 1_555
C54_2 C53_2 1_555 1_555
C55_2 N11_2 1_555 1_555
H51_2 C55_2 1_555 1_555
H52_2 C55_2 1_555 1_555
C57_2 N12_2 1_555 1_555
H53_2 C57_2 1_555 1_555
H54_2 C57_2 1_555 1_555
C58_2 O15_2 1_555 1_555
C59_2 N12_2 1_555 1_555
H55_2 C59_2 1_555 1_555
H56_2 C59_2 1_555 1_555
C60_2 C59_2 1_555 1_555
N13_2 Cu2_2 1_555 1_555
N14_2 C66_2 1_555 1_555
C61_2 N13_2 1_555 1_555
H57_2 C61_2 1_555 1_555
C62_2 C61_2 1_555 1_555
H58_2 C62_2 1_555 1_555
C63_2 C62_2 1_555 1_555
C64_2 C63_2 1_555 1_555
H59_2 C64_2 1_555 1_555
C65_2 N13_2 1_555 1_555
H60_2 C65_2 1_555 1_555
C66_2 H61_2 1_555 1_555
C67_2 C66_2 1_555 1_555
H62_2 C67_2 1_555 1_555
C68_2 C63_2 1_555 1_555
C69_2 C68_2 1_555 1_555
H63_2 C69_2 1_555 1_555
C70_2 N14_2 1_555 1_555
H64_2 C70_2 1_555 1_555
N15_2 Cu2_2 1_555 1_555
C71_2 N15_2 1_555 1_555
H65_2 C71_2 1_555 1_555
C72_2 C71_2 1_555 1_555
H66_2 C72_2 1_555 1_555
C73_2 C72_2 1_555 1_555
C74_2 C73_2 1_555 1_555
H67_2 C74_2 1_555 1_555
C75_2 N15_2 1_555 1_555
H68_2 C75_2 1_555 1_555
N17_2 Cu2_2 1_555 1_555
N18_2 C86_2 1_555 1_555
C81_2 N17_2 1_555 1_555
H73_2 C81_2 1_555 1_555
C82_2 C81_2 1_555 1_555
H74_2 C82_2 1_555 1_555
C83_2 C82_2 1_555 1_555
C84_2 C83_2 1_555 1_555
H75_2 C84_2 1_555 1_555
C85_2 N17_2 1_555 1_555
H76_2 C85_2 1_555 1_555
C86_2 H77_2 1_555 1_555
C87_2 C86_2 1_555 1_555
H78_2 C87_2 1_555 1_555
C88_2 C83_2 1_555 1_555
C89_2 C88_2 1_555 1_555
H79_2 C89_2 1_555 1_555
C90_2 N18_2 1_555 1_555
H80_2 C90_2 1_555 1_555
Cu13_2 O18_2 1_555 1_555
Cu6_2 O11_2 1_555 1_555
Cu7_2 N1_2 1_555 1_555
Cu10_2 N10_2 1_555 1_555
O19_2 Cu8_2 1_555 1_555
N19_2 Cu8_2 1_555 1_555
N21_2 Cu8_2 1_555 1_555
Cu12_2 N14_2 1_555 1_555
Cu14_2 N18_2 1_555 1_555
O20_2 Cu13_2 1_555 1_555
O21_2 Cu13_2 1_555 1_555
N22_2 Cu13_2 1_555 1_555
N24_2 Cu13_2 1_555 1_555
N25_2 Cu6_2 1_555 1_555
C4_2 C5_2 1_555 1_555
C7_2 C8_2 1_555 1_555
C9_2 C10_2 1_555 1_555
C17_2 C18_2 1_555 1_555
C19_2 C20_2 1_555 1_555
C29_2 C30_2 1_555 1_555
C32_2 C33_2 1_555 1_555
C36_2 C37_2 1_555 1_555
C40_2 C41_2 1_555 1_555
C44_2 C45_2 1_555 1_555
C49_2 C50_2 1_555 1_555
O13_2 Cu6_2 1_555 1_555
O17_2 Cu6_2 1_555 1_555
N11_2 Cu6_2 1_555 1_555
N12_2 Cu6_2 1_555 1_555
C57_2 C58_2 1_555 1_555
C64_2 C65_2 1_555 1_555
C67_2 C68_2 1_555 1_555
C69_2 C70_2 1_555 1_555
C74_2 C75_2 1_555 1_555
C84_2 C85_2 1_555 1_555
C87_2 C88_2 1_555 1_555
C89_2 C90_2 1_555 1_555
O9_2 H85_2 1_555 1_555
O14_2 C56_2 1_555 1_555
H21_3 C26_3 1_555 1_555
C27_3 C26_3 1_555 1_555
H22_3 C27_3 1_555 1_555
N1_3 C1_3 1_555 1_555
C1_3 H1_3 1_555 1_555
C2_3 C1_3 1_555 1_555
H2_3 C2_3 1_555 1_555
C3_3 C2_3 1_555 1_555
C4_3 C3_3 1_555 1_555
H3_3 C4_3 1_555 1_555
C5_3 N1_3 1_555 1_555
H4_3 C5_3 1_555 1_555
C6_3 N22 1_555 1_555
H5_3 C6_3 1_555 1_555
C7_3 C6_3 1_555 1_555
H6_3 C7_3 1_555 1_555
C8_3 C3_3 1_555 1_555
C9_3 C8_3 1_555 1_555
H7_3 C9_3 1_555 1_555
C10_3 N22 1_555 1_555
H8_3 C10_3 1_555 1_555
C29_3 C28_3 1_555 1_555
H23_3 C29_3 1_555 1_555
C30_3 N25 1_555 1_555
H24_3 C30_3 1_555 1_555
C31_3 N24 1_555 1_555
H25_3 C31_3 1_555 1_555
C32_3 C31_3 1_555 1_555
C34_3 C33_3 1_555 1_555
H27_3 C34_3 1_555 1_555
C35_3 N24 1_555 1_555
H28_3 C35_3 1_555 1_555
H74_3 C82_3 1_555 1_555
Cu9_2 N1_3 1_555 1_555
C4_3 C5_3 1_555 1_555
C7_3 C8_3 1_555 1_555
C9_3 C10_3 1_555 1_555
C29_3 C30_3 1_555 1_555
C32_3 C33_3 1_555 1_555
C34_3 C35_3 1_555 1_555
N14_3 C66_3 1_555 1_555
C61_3 N19 1_555 1_555
H57_3 C61_3 1_555 1_555
C62_3 C61_3 1_555 1_555
H58_3 C62_3 1_555 1_555
C63_3 C62_3 1_555 1_555
C64_3 C63_3 1_555 1_555
H59_3 C64_3 1_555 1_555
C65_3 N19 1_555 1_555
H60_3 C65_3 1_555 1_555
C66_3 H61_3 1_555 1_555
C67_3 C66_3 1_555 1_555
H62_3 C67_3 1_555 1_555
C68_3 C63_3 1_555 1_555
C69_3 C68_3 1_555 1_555
H63_3 C69_3 1_555 1_555
C70_3 N14_3 1_555 1_555
H64_3 C70_3 1_555 1_555
C81_3 N21 1_555 1_555
C84_3 C83_3 1_555 1_555
H75_3 C84_3 1_555 1_555
C85_3 N21 1_555 1_555
H76_3 C85_3 1_555 1_555
Cu14_2 N14_3 1_555 1_555
C64_3 C65_3 1_555 1_555
C67_3 C68_3 1_555 1_555
C69_3 C70_3 1_555 1_555
C84_3 C85_3 1_555 1_555
C49_3 N10_3 1_555 1_555
C50_3 C46_3 1_555 1_555
H41_3 C50_3 1_555 1_555
H42_3 C49_3 1_555 1_555
Cu10_3 N10_3 1_555 1_555
C49_3 C50_3 1_555 1_555
N5_3 C21_3 1_555 1_555
C21_3 H17_3 1_555 1_555
C22_3 C21_3 1_555 1_555
H18_3 C22_3 1_555 1_555
C23_3 C22_3 1_555 1_555
C24_3 C23_3 1_555 1_555
H19_3 C24_3 1_555 1_555
C25_3 N5_3 1_555 1_555
H20_3 C25_3 1_555 1_555
C48_3 C47_3 1_555 1_555
H43_3 C48_3 1_555 1_555
H44_3 C47_3 1_555 1_555
N18_3 C86_3 1_555 1_555
C86_3 H77_3 1_555 1_555
C87_3 C86_3 1_555 1_555
C90_3 N18_3 1_555 1_555
Cu7_2 N5_3 1_555 1_555
Cu12_2 N18_3 1_555 1_555
C24_3 C25_3 1_555 1_555
C87_3 C88_3 1_555 1_555
H79_3 C89_3 1_555 1_555
N1_4 C1_4 1_555 1_555
N5_4 C21_4 1_555 1_555
C1_4 H1_4 1_555 1_555
C2_4 C1_4 1_555 1_555
H2_4 C2_4 1_555 1_555
C3_4 C2_4 1_555 1_555
C4_4 C3_4 1_555 1_555
H3_4 C4_4 1_555 1_555
C5_4 N1_4 1_555 1_555
H4_4 C5_4 1_555 1_555
C6_4 N22_2 1_555 1_555
H5_4 C6_4 1_555 1_555
C7_4 C6_4 1_555 1_555
H6_4 C7_4 1_555 1_555
C8_4 C3_4 1_555 1_555
C9_4 C8_4 1_555 1_555
H7_4 C9_4 1_555 1_555
C10_4 N22_2 1_555 1_555
H8_4 C10_4 1_555 1_555
C21_4 H17_4 1_555 1_555
C22_4 C21_4 1_555 1_555
H18_4 C22_4 1_555 1_555
C23_4 C22_4 1_555 1_555
C24_4 C23_4 1_555 1_555
H19_4 C24_4 1_555 1_555
C25_4 N5_4 1_555 1_555
H20_4 C25_4 1_555 1_555
C29_4 C28_4 1_555 1_555
H23_4 C29_4 1_555 1_555
C30_4 N25_2 1_555 1_555
H24_4 C30_4 1_555 1_555
C31_4 N24_2 1_555 1_555
H25_4 C31_4 1_555 1_555
C32_4 C31_4 1_555 1_555
H26_4 C32_4 1_555 1_555
C33_4 C23_4 1_555 1_555
C34_4 C33_4 1_555 1_555
H27_4 C34_4 1_555 1_555
C35_4 N24_2 1_555 1_555
H28_4 C35_4 1_555 1_555
C48_4 C47_4 1_555 1_555
H43_4 C48_4 1_555 1_555
H44_4 C47_4 1_555 1_555
N18_4 C86_4 1_555 1_555
H74_4 C82_4 1_555 1_555
C86_4 H77_4 1_555 1_555
C87_4 C86_4 1_555 1_555
H78_4 C87_4 1_555 1_555
C90_4 N18_4 1_555 1_555
Cu9 N1_4 1_555 1_555
Cu7 N5_4 1_555 1_555
Cu12 N18_4 1_555 1_555
C4_4 C5_4 1_555 1_555
C7_4 C8_4 1_555 1_555
C9_4 C10_4 1_555 1_555
C24_4 C25_4 1_555 1_555
C29_4 C30_4 1_555 1_555
C32_4 C33_4 1_555 1_555
C34_4 C35_4 1_555 1_555
C87_4 C88_4 1_555 1_555
H21_4 C26_4 1_555 1_555
C27_4 C26_4 1_555 1_555
H22_4 C27_4 1_555 1_555
C49_4 N10_4 1_555 1_555
C50_4 C46_4 1_555 1_555
H41_4 C50_4 1_555 1_555
H42_4 C49_4 1_555 1_555
N14_4 C66_4 1_555 1_555
C61_4 N19_2 1_555 1_555
H57_4 C61_4 1_555 1_555
C62_4 C61_4 1_555 1_555
H58_4 C62_4 1_555 1_555
C63_4 C62_4 1_555 1_555
C64_4 C63_4 1_555 1_555
H59_4 C64_4 1_555 1_555
C65_4 N19_2 1_555 1_555
H60_4 C65_4 1_555 1_555
C66_4 H61_4 1_555 1_555
C67_4 C66_4 1_555 1_555
H62_4 C67_4 1_555 1_555
C68_4 C63_4 1_555 1_555
C69_4 C68_4 1_555 1_555
H63_4 C69_4 1_555 1_555
C70_4 N14_4 1_555 1_555
H64_4 C70_4 1_555 1_555
C81_4 N21_2 1_555 1_555
C84_4 C83_4 1_555 1_555
H75_4 C84_4 1_555 1_555
C85_4 N21_2 1_555 1_555
H76_4 C85_4 1_555 1_555
H79_4 C89_4 1_555 1_555
Cu10_4 N10_4 1_555 1_555
Cu14 N14_4 1_555 1_555
C49_4 C50_4 1_555 1_555
C64_4 C65_4 1_555 1_555
C67_4 C68_4 1_555 1_555
C69_4 C70_4 1_555 1_555
C84_4 C85_4 1_555 1_555
Cu9 O12 1_555 1_555
O4_3 C41_3 1_555 1_555
O5_3 C43_3 1_555 1_555
O6_3 C43_3 1_555 1_555
C36_3 N9_3 1_555 1_555
H29_3 C36_3 1_555 1_555
H30_3 C36_3 1_555 1_555
C41_3 O3_3 1_555 1_555
C42_3 N9_3 1_555 1_555
H37_3 C42_3 1_555 1_555
H38_3 C42_3 1_555 1_555
C43_3 C42_3 1_555 1_555
Cu9 O5_3 1_555 1_555
O11_3 C54_3 1_555 1_555
O17_3 C60_3 1_555 1_555
O18_3 C60_3 1_555 1_555
N11_3 C52_3 1_555 1_555
H47_3 C52_3 1_555 1_555
H48_3 C52_3 1_555 1_555
C53_3 N11_3 1_555 1_555
H49_3 C53_3 1_555 1_555
H50_3 C53_3 1_555 1_555
C54_3 C53_3 1_555 1_555
C55_3 N11_3 1_555 1_555
H51_3 C55_3 1_555 1_555
C60_3 C59_3 1_555 1_555
Cu14 O18_3 1_555 1_555
Cu10_3 O11_3 1_555 1_555
N20 Cu9 1_555 1_555
O20_3 Cu14 1_555 1_555
O21_3 Cu14 1_555 1_555
N23 Cu14 1_555 1_555
O17_3 Cu10_3 1_555 1_555
N11_3 Cu10_3 1_555 1_555
O14_3 C56_3 1_555 1_555
Cu12_2 O8_3 1_555 1_555
Cu7_2 O2_3 1_555 1_555
Cu10 O1_3 1_555 1_555
O1_3 C39_3 1_555 1_555
O2_3 C39_3 1_555 1_555
O7_3 Cu10 1_555 1_555
O8_3 C45_3 1_555 1_555
O9_3 Cu12_2 1_555 1_555
O10_3 Cu12_2 1_555 1_555
N20 C11_3 1_555 1_555
N4_3 Cu12_2 1_555 1_555
N8_3 Cu10 1_555 1_555
C11_3 H9_3 1_555 1_555
C12_3 C11_3 1_555 1_555
H10_3 C12_3 1_555 1_555
C13_3 C12_3 1_555 1_555
C14_3 C13_3 1_555 1_555
H11_3 C14_3 1_555 1_555
C15_3 N20 1_555 1_555
H12_3 C15_3 1_555 1_555
C16_3 N4_3 1_555 1_555
H13_3 C16_3 1_555 1_555
C17_3 C16_3 1_555 1_555
H14_3 C17_3 1_555 1_555
C18_3 C13_3 1_555 1_555
C19_3 C18_3 1_555 1_555
H15_3 C19_3 1_555 1_555
C20_3 N4_3 1_555 1_555
H16_3 C20_3 1_555 1_555
C37_3 N8_3 1_555 1_555
H31_3 C37_3 1_555 1_555
H32_3 C37_3 1_555 1_555
C38_3 N8_3 1_555 1_555
H33_3 C38_3 1_555 1_555
H34_3 C38_3 1_555 1_555
C39_3 C38_3 1_555 1_555
C40_3 N8_3 1_555 1_555
H35_3 C40_3 1_555 1_555
C45_3 O7_3 1_555 1_555
O15_3 Cu7_2 1_555 1_555
O16_3 C58_3 1_555 1_555
N12_3 C51_3 1_555 1_555
C51_3 H45_3 1_555 1_555
H46_3 C51_3 1_555 1_555
C57_3 N12_3 1_555 1_555
H53_3 C57_3 1_555 1_555
H54_3 C57_3 1_555 1_555
C58_3 O15_3 1_555 1_555
N15_3 Cu7_2 1_555 1_555
N23 C76_3 1_555 1_555
C71_3 N15_3 1_555 1_555
H65_3 C71_3 1_555 1_555
C72_3 C71_3 1_555 1_555
H66_3 C72_3 1_555 1_555
C73_3 C72_3 1_555 1_555
C74_3 C73_3 1_555 1_555
H67_3 C74_3 1_555 1_555
C75_3 N15_3 1_555 1_555
H68_3 C75_3 1_555 1_555
C76_3 H69_3 1_555 1_555
C77_3 C76_3 1_555 1_555
H70_3 C77_3 1_555 1_555
C78_3 C73_3 1_555 1_555
C79_3 C78_3 1_555 1_555
H71_3 C79_3 1_555 1_555
C80_3 N23 1_555 1_555
H72_3 C80_3 1_555 1_555
C14_3 C15_3 1_555 1_555
C17_3 C18_3 1_555 1_555
C19_3 C20_3 1_555 1_555
C44_3 C45_3 1_555 1_555
C57_3 C58_3 1_555 1_555
C74_3 C75_3 1_555 1_555
C77_3 C78_3 1_555 1_555
C79_3 C80_3 1_555 1_555
O9_3 H85_3 1_555 1_555
O14_4 C56_4 1_555 1_555
Cu9_2 O12_2 1_555 1_555
Cu12 O8_4 1_555 1_555
Cu7 O2_4 1_555 1_555
Cu10_2 O1_4 1_555 1_555
O1_4 C39_4 1_555 1_555
O2_4 C39_4 1_555 1_555
O3_4 Cu10_2 1_555 1_555
O4_4 C41_4 1_555 1_555
O5_4 C43_4 1_555 1_555
O6_4 C43_4 1_555 1_555
O7_4 Cu10_2 1_555 1_555
O8_4 C45_4 1_555 1_555
O9_4 Cu12 1_555 1_555
O10_4 Cu12 1_555 1_555
N4_4 Cu12 1_555 1_555
N8_4 Cu10_2 1_555 1_555
N9_4 Cu10_2 1_555 1_555
C16_4 N4_4 1_555 1_555
H13_4 C16_4 1_555 1_555
C17_4 C16_4 1_555 1_555
H14_4 C17_4 1_555 1_555
C19_4 C18_4 1_555 1_555
H15_4 C19_4 1_555 1_555
C20_4 N4_4 1_555 1_555
H16_4 C20_4 1_555 1_555
C36_4 N9_4 1_555 1_555
H29_4 C36_4 1_555 1_555
H30_4 C36_4 1_555 1_555
C37_4 N8_4 1_555 1_555
H31_4 C37_4 1_555 1_555
H32_4 C37_4 1_555 1_555
C38_4 N8_4 1_555 1_555
H33_4 C38_4 1_555 1_555
H34_4 C38_4 1_555 1_555
C39_4 C38_4 1_555 1_555
C40_4 N8_4 1_555 1_555
H35_4 C40_4 1_555 1_555
H36_4 C40_4 1_555 1_555
C41_4 O3_4 1_555 1_555
C42_4 N9_4 1_555 1_555
H37_4 C42_4 1_555 1_555
H38_4 C42_4 1_555 1_555
C43_4 C42_4 1_555 1_555
C44_4 N9_4 1_555 1_555
H39_4 C44_4 1_555 1_555
H40_4 C44_4 1_555 1_555
C45_4 O7_4 1_555 1_555
Cu9_2 O5_4 1_555 1_555
O11_4 C54_4 1_555 1_555
O15_4 Cu7 1_555 1_555
O16_4 C58_4 1_555 1_555
O17_4 C60_4 1_555 1_555
O18_4 C60_4 1_555 1_555
N11_4 C52_4 1_555 1_555
N12_4 C51_4 1_555 1_555
C51_4 H45_4 1_555 1_555
H46_4 C51_4 1_555 1_555
C52_4 C51_4 1_555 1_555
H47_4 C52_4 1_555 1_555
H48_4 C52_4 1_555 1_555
C53_4 N11_4 1_555 1_555
H49_4 C53_4 1_555 1_555
H50_4 C53_4 1_555 1_555
C54_4 C53_4 1_555 1_555
C55_4 N11_4 1_555 1_555
H51_4 C55_4 1_555 1_555
H52_4 C55_4 1_555 1_555
C57_4 N12_4 1_555 1_555
H53_4 C57_4 1_555 1_555
H54_4 C57_4 1_555 1_555
C58_4 O15_4 1_555 1_555
C59_4 N12_4 1_555 1_555
H55_4 C59_4 1_555 1_555
H56_4 C59_4 1_555 1_555
C60_4 C59_4 1_555 1_555
N15_4 Cu7 1_555 1_555
C71_4 N15_4 1_555 1_555
H65_4 C71_4 1_555 1_555
C72_4 C71_4 1_555 1_555
H66_4 C72_4 1_555 1_555
C73_4 C72_4 1_555 1_555
C74_4 C73_4 1_555 1_555
H67_4 C74_4 1_555 1_555
C75_4 N15_4 1_555 1_555
H68_4 C75_4 1_555 1_555
Cu14_2 O18_4 1_555 1_555
Cu10_4 O11_4 1_555 1_555
N20_2 Cu9_2 1_555 1_555
O20_4 Cu14_2 1_555 1_555
O21_4 Cu14_2 1_555 1_555
N23_2 Cu14_2 1_555 1_555
C17_4 C18_4 1_555 1_555
C19_4 C20_4 1_555 1_555
C36_4 C37_4 1_555 1_555
C40_4 C41_4 1_555 1_555
C44_4 C45_4 1_555 1_555
O13_4 Cu10_4 1_555 1_555
O17_4 Cu10_4 1_555 1_555
N11_4 Cu10_4 1_555 1_555
N12_4 Cu10_4 1_555 1_555
C57_4 C58_4 1_555 1_555
C74_4 C75_4 1_555 1_555
O9_4 H85_4 1_555 1_555
N20_2 C11_4 1_555 1_555
C11_4 H9_4 1_555 1_555
C12_4 C11_4 1_555 1_555
H10_4 C12_4 1_555 1_555
C13_4 C12_4 1_555 1_555
C14_4 C13_4 1_555 1_555
H11_4 C14_4 1_555 1_555
C15_4 N20_2 1_555 1_555
H12_4 C15_4 1_555 1_555
N23_2 C76_4 1_555 1_555
C76_4 H69_4 1_555 1_555
C77_4 C76_4 1_555 1_555
H70_4 C77_4 1_555 1_555
C79_4 C78_4 1_555 1_555
H71_4 C79_4 1_555 1_555
C80_4 N23_2 1_555 1_555
H72_4 C80_4 1_555 1_555
C14_4 C15_4 1_555 1_555
C77_4 C78_4 1_555 1_555
C79_4 C80_4 1_555 1_555

#END
