
###############################################################################
#
# This file contains modified crystal structure data generated from the
# MOF subset of the Cambridge Structural Database (CSD) v543 
# hosted by the Cambridge Crystallographic Data Centre (CCDC).
#
# This work is licensed under the Creative Commons
# Attribution-NonCommercial-ShareAlike 4.0 International License.
# To view a copy of this license, visit
# http://creativecommons.org/licenses/by-nc-sa/4.0/
# or send a letter to
# Creative Commons, PO Box 1866, Mountain View, CA 94042, USA.
#
# CIF created using the CSD Python API on 29 September 2022
# The structure has been converted into the P1 space group
# The structure has a 3D framework
# The original CSD entry UCUHIM is in the triclinic crystal system
# The framework has been calculated to contain at least 10.0% void space
# The void calculation uses a probe of radius 1.32A, grid spacing 0.4
# The framework is charged, counterions have been retained in the structure
#
###############################################################################

data_UCUHIM
_chemical_formula_moiety         '(C46 H36 N10 O20 2-)n'
_symmetry_cell_setting           triclinic
_symmetry_space_group_name_H-M   'P 1'
_symmetry_Int_Tables_number      1
_space_group_name_Hall           'P 1'
loop_
_symmetry_equiv_pos_site_id
_symmetry_equiv_pos_as_xyz
1 x,y,z
_cell_length_a                   10.225(2)
_cell_length_b                   10.243(2)
_cell_length_c                   17.912(4)
_cell_angle_alpha                99.21(3)
_cell_angle_beta                 101.53(3)
_cell_angle_gamma                104.25(3)
_cell_volume                     1737.8
loop_
_atom_site_label
_atom_site_type_symbol
_atom_site_fract_x
_atom_site_fract_y
_atom_site_fract_z
Cd1 Cd 0.03049(9) 0.04377(7) 0.31317(4)
O14 O 0.2871(8) 0.0408(7) 0.2918(4)
O15 O 0.2448(7) 0.1278(7) 0.4021(4)
O1 O 0.0408(8) 0.8078(7) 0.3209(4)
O3 O 0.0403(12) 0.3291(9) 0.3359(5)
H4 H 0.0097 0.5533 0.3061
C5 C 0.0046(15) 0.2919(11) 0.2648(8)
O11 O 0.9925(11) 0.1741(8) 0.2283(5)
O12 O 0.9335(9) 0.0876(8) 0.4144(4)
O13 O 0.7717(8) 0.0076(9) 0.3044(4)
N1 N 0.8421(11) 0.4019(8) 0.0096(5)
O2 O 0.9444(8) 0.8507(7) 0.2074(4)
C1 C 0.9813(11) 0.7694(10) 0.2494(6)
C2 C 0.9548(11) 0.6219(10) 0.2081(5)
C3 C 0.9816(12) 0.5261(11) 0.2519(6)
C4 C 0.9669(12) 0.3898(9) 0.2157(6)
C6 C 0.9217(12) 0.3535(9) 0.1350(6)
H5 H 0.9148 0.2650 0.1089
C7 C 0.8869(11) 0.4465(10) 0.0928(6)
C8 C 0.9076(10) 0.5824(9) 0.1289(5)
H6 H 0.8896 0.6459 0.0995
H1 H 0.8497 0.3221 0.9909
N2 N 0.7573(10) 0.2563(9) 0.8576(5)
N3 N 0.7117(10) 0.2159(9) 0.7779(5)
H2 H 0.7029 0.1348 0.7517
N4 N 0.6875(8) 0.2287(8) 0.6148(4)
H3 H 0.7570 0.2058 0.6391
O5 O 0.7800(13) 0.5796(9) 0.9697(4)
O6 O 0.5405(10) 0.3569(9) 0.6343(4)
C9 C 0.7901(16) 0.4663(12) 0.9563(6)
C10 C 0.7509(12) 0.3878(11) 0.8730(6)
C11 C 0.6817(12) 0.3207(11) 0.7450(6)
C12 C 0.7015(12) 0.4262(11) 0.8044(6)
H7 H 0.6850 0.5105 0.8005
C13 C 0.6297(12) 0.3028(11) 0.6597(6)
C14 C 0.6491(9) 0.1830(9) 0.5327(5)
C15 C 0.7465(12) 0.1475(10) 0.4949(6)
H8 H 0.8365 0.1580 0.5235
C16 C 0.7092(10) 0.0973(10) 0.4160(5)
C17 C 0.8080(11) 0.0617(10) 0.3759(6)
C18 C 0.5702(9) 0.0814(9) 0.3726(5)
H9 H 0.5435 0.0444 0.3191
C19 C 0.4775(10) 0.1200(9) 0.4093(6)
C20 C 0.3256(10) 0.0900(9) 0.3634(6)
C21 C 0.5154(10) 0.1686(10) 0.4904(6)
H10 H 0.4507 0.1913 0.5160
H1_2 H 0.1503 0.6779 0.0091
N2_2 N 0.2427(10) 0.7437(9) 0.1424(5)
N3_2 N 0.2883(10) 0.7841(9) 0.2221(5)
H2_2 H 0.2971 0.8652 0.2483
N4_2 N 0.3125(8) 0.7713(8) 0.3852(4)
H3_2 H 0.2430 0.7942 0.3609
O5_2 O 0.2200(13) 0.4204(9) 0.0303(4)
O6_2 O 0.4595(10) 0.6431(9) 0.3657(4)
O7 O 0.0665(9) 0.9124(8) 0.5856(4)
O8 O 0.2283(8) 0.9924(9) 0.6956(4)
O9 O 0.7129(8) 0.9592(7) 0.7082(4)
O10 O 0.7552(7) 0.8722(7) 0.5979(4)
C9_2 C 0.2099(16) 0.5337(12) 0.0437(6)
C10_2 C 0.2491(12) 0.6122(11) 0.1270(6)
C11_2 C 0.3183(12) 0.6793(11) 0.2550(6)
C12_2 C 0.2985(12) 0.5738(11) 0.1956(6)
H7_2 H 0.3150 0.4895 0.1995
C13_2 C 0.3703(12) 0.6972(11) 0.3403(6)
C14_2 C 0.3509(9) 0.8170(9) 0.4673(5)
C15_2 C 0.2535(12) 0.8525(10) 0.5051(6)
H8_2 H 0.1635 0.8420 0.4765
C16_2 C 0.2908(10) 0.9027(10) 0.5840(5)
C17_2 C 0.1920(11) 0.9383(10) 0.6241(6)
C18_2 C 0.4298(9) 0.9186(9) 0.6274(5)
H9_2 H 0.4565 0.9556 0.6809
C19_2 C 0.5225(10) 0.8800(9) 0.5907(6)
C20_2 C 0.6744(10) 0.9100(9) 0.6366(6)
C21_2 C 0.4846(10) 0.8314(10) 0.5096(6)
H10_2 H 0.5493 0.8087 0.4840
Cd2 Cd 0.96951(9) 0.95623(7) 0.68683(4)
N1_2 N 0.1579(11) 0.5981(8) 0.9904(5)
O2_2 O 0.0556(8) 0.1493(7) 0.7926(4)
O4 O 0.0075(11) 0.8259(8) 0.7717(5)
C1_2 C 0.0187(11) 0.2306(10) 0.7506(6)
C2_2 C 0.0452(11) 0.3781(10) 0.7919(5)
C3_2 C 0.0184(12) 0.4739(11) 0.7481(6)
C4_2 C 0.0331(12) 0.6102(9) 0.7843(6)
C6_2 C 0.0783(12) 0.6465(9) 0.8650(6)
H5_2 H 0.0852 0.7350 0.8911
C7_2 C 0.1131(11) 0.5535(10) 0.9072(6)
C8_2 C 0.0924(10) 0.4176(9) 0.8711(5)
H6_2 H 0.1104 0.3541 0.9005
O1_2 O 0.9592(8) 0.1922(7) 0.6791(4)
O3_2 O 0.9597(12) 0.6709(9) 0.6641(5)
H4_2 H 0.9903 0.4467 0.6939
C5_2 C 0.9954(15) 0.7081(11) 0.7352(8)
N5 N 0.1855(15) 0.3341(12) 0.4980(6)
H11 H 0.1039 0.3496 0.4809
H12 H 0.1894 0.2646 0.4625
C22 C 0.1766(17) 0.2804(18) 0.5685(8)
H13 H 0.2688 0.2932 0.5996
H14 H 0.1271 0.1837 0.5539
H15 H 0.1280 0.3290 0.5983
C23 C 0.2948(19) 0.4588(17) 0.4935(11)
H16 H 0.2785 0.5407 0.5193
H17 H 0.2907 0.4614 0.4398
H18 H 0.3852 0.4541 0.5186
N5_2 N 0.8145(15) 0.6659(12) 0.5020(6)
H11_2 H 0.8961 0.6504 0.5191
H12_2 H 0.8106 0.7354 0.5375
C22_2 C 0.8234(17) 0.7196(18) 0.4315(8)
H13_2 H 0.7312 0.7068 0.4004
H14_2 H 0.8729 0.8163 0.4461
H15_2 H 0.8720 0.6710 0.4017
C23_2 C 0.7052(19) 0.5412(17) 0.5065(11)
H16_2 H 0.7215 0.4593 0.4807
H17_2 H 0.7093 0.5386 0.5602
H18_2 H 0.6148 0.5459 0.4814
loop_
_geom_bond_atom_site_label_1
_geom_bond_atom_site_label_2
_geom_bond_site_symmetry_1
_geom_bond_site_symmetry_2
O14 Cd1 1_555 1_555
O15 Cd1 1_555 1_555
O3 C5 1_555 1_555
C1 O2 1_555 1_555
C2 C1 1_555 1_555
C3 C2 1_555 1_555
C4 C3 1_555 1_555
C6 C4 1_555 1_555
H5 C6 1_555 1_555
C7 N1 1_555 1_555
C8 C2 1_555 1_555
H6 C8 1_555 1_555
C6 C7 1_555 1_555
C7 C8 1_555 1_555
N2 N3 1_555 1_555
N3 H2 1_555 1_555
N4 H3 1_555 1_555
O5 C9 1_555 1_555
O6 C13 1_555 1_555
O12 C17 1_555 1_555
O13 C17 1_555 1_555
O14 C20 1_555 1_555
O15 C20 1_555 1_555
C10 N2 1_555 1_555
C11 N3 1_555 1_555
C12 C10 1_555 1_555
H7 C12 1_555 1_555
C13 N4 1_555 1_555
C14 N4 1_555 1_555
C15 C14 1_555 1_555
H8 C15 1_555 1_555
C16 C15 1_555 1_555
C17 C16 1_555 1_555
C18 C16 1_555 1_555
H9 C18 1_555 1_555
C19 C18 1_555 1_555
C20 C19 1_555 1_555
C21 C14 1_555 1_555
H10 C21 1_555 1_555
C9 C10 1_555 1_555
C11 C12 1_555 1_555
C11 C13 1_555 1_555
C19 C21 1_555 1_555
N2_2 N3_2 1_555 1_555
N3_2 H2_2 1_555 1_555
N4_2 H3_2 1_555 1_555
O5_2 C9_2 1_555 1_555
O6_2 C13_2 1_555 1_555
O7 C17_2 1_555 1_555
O8 C17_2 1_555 1_555
O9 C20_2 1_555 1_555
O10 C20_2 1_555 1_555
C10_2 N2_2 1_555 1_555
C11_2 N3_2 1_555 1_555
C12_2 C10_2 1_555 1_555
H7_2 C12_2 1_555 1_555
C13_2 N4_2 1_555 1_555
C14_2 N4_2 1_555 1_555
C15_2 C14_2 1_555 1_555
H8_2 C15_2 1_555 1_555
C16_2 C15_2 1_555 1_555
C17_2 C16_2 1_555 1_555
C18_2 C16_2 1_555 1_555
H9_2 C18_2 1_555 1_555
C19_2 C18_2 1_555 1_555
C20_2 C19_2 1_555 1_555
C21_2 C14_2 1_555 1_555
H10_2 C21_2 1_555 1_555
Cd2 O9 1_555 1_555
O10 Cd2 1_555 1_555
C9_2 C10_2 1_555 1_555
C11_2 C12_2 1_555 1_555
C11_2 C13_2 1_555 1_555
C19_2 C21_2 1_555 1_555
C1_2 O2_2 1_555 1_555
C2_2 C1_2 1_555 1_555
C3_2 C2_2 1_555 1_555
C4_2 C3_2 1_555 1_555
C6_2 C4_2 1_555 1_555
H5_2 C6_2 1_555 1_555
C7_2 N1_2 1_555 1_555
C8_2 C2_2 1_555 1_555
H6_2 C8_2 1_555 1_555
C6_2 C7_2 1_555 1_555
C7_2 C8_2 1_555 1_555
O3_2 C5_2 1_555 1_555
N5 H11 1_555 1_555
H12 N5 1_555 1_555
C22 N5 1_555 1_555
H13 C22 1_555 1_555
H14 C22 1_555 1_555
H15 C22 1_555 1_555
C23 N5 1_555 1_555
H16 C23 1_555 1_555
H17 C23 1_555 1_555
H18 C23 1_555 1_555
N5_2 H11_2 1_555 1_555
H12_2 N5_2 1_555 1_555
C22_2 N5_2 1_555 1_555
H13_2 C22_2 1_555 1_555
H14_2 C22_2 1_555 1_555
H15_2 C22_2 1_555 1_555
C23_2 N5_2 1_555 1_555
H16_2 C23_2 1_555 1_555
H17_2 C23_2 1_555 1_555
H18_2 C23_2 1_555 1_555

#END
