
###############################################################################
#
# This file contains modified crystal structure data generated from the
# MOF subset of the Cambridge Structural Database (CSD) v543 
# hosted by the Cambridge Crystallographic Data Centre (CCDC).
#
# This work is licensed under the Creative Commons
# Attribution-NonCommercial-ShareAlike 4.0 International License.
# To view a copy of this license, visit
# http://creativecommons.org/licenses/by-nc-sa/4.0/
# or send a letter to
# Creative Commons, PO Box 1866, Mountain View, CA 94042, USA.
#
# CIF created using the CSD Python API on 29 September 2022
# The structure has been converted into the P1 space group
# The structure has a 3D framework
# The original CSD entry UCUJUB is in the monoclinic crystal system
# The framework has been calculated to contain at least 10.0% void space
# The void calculation uses a probe of radius 1.32A, grid spacing 0.4
#
###############################################################################

data_UCUJUB
_chemical_formula_moiety         '(C288 H192 Cu13 I8 N24 S16 W6)n'
_symmetry_cell_setting           triclinic
_symmetry_space_group_name_H-M   'P 1'
_symmetry_Int_Tables_number      1
_space_group_name_Hall           'P 1'
loop_
_symmetry_equiv_pos_site_id
_symmetry_equiv_pos_as_xyz
1 x,y,z
_cell_length_a                   41.445(2)
_cell_length_b                   7.9345(5)
_cell_length_c                   30.9922(16)
_cell_angle_alpha                90
_cell_angle_beta                 129.3930(10)
_cell_angle_gamma                90
_cell_volume                     7876.21
loop_
_atom_site_label
_atom_site_type_symbol
_atom_site_fract_x
_atom_site_fract_y
_atom_site_fract_z
C37 C 0.40997(15) 0.5152(6) 0.0258(2)
C38 C 0.44542(19) 0.3217(7) 0.0961(2)
H25 H 0.398099 0.621645 0.013013
H26 H 0.458766 0.291678 0.132946
C42 C 0.44206(18) 0.2034(7) 0.0606(2)
C45 C 0.42286(15) 0.2458(6) 0.00593(19)
H30 H 0.452739 0.095436 0.073554
H34 H 0.484073 0.342792 0.011373
N5 N 0.43010(12) 0.4777(5) 0.07916(16)
Cu6 Cu 0.43940(2) 0.64325(7) 0.13795(2)
N1 N 0.56990(12) 0.4777(5) 0.42084(16)
C1 C 0.59003(15) 0.5152(6) 0.4742(2)
C2 C 0.55458(19) 0.3217(7) 0.4039(2)
C7 C 0.59410(15) 0.4042(7) 0.51131(19)
H1 H 0.601901 0.621645 0.486987
H2 H 0.541234 0.291678 0.367054
C8 C 0.55794(18) 0.2034(7) 0.4394(2)
C13 C 0.57714(15) 0.2458(6) 0.49407(19)
H7 H 0.608374 0.436314 0.548226
H8 H 0.547261 0.095436 0.426446
C16 C 0.57844(16) 0.1242(6) 0.5326(2)
C20 C 0.55026(16) 0.1468(6) 0.5425(2)
C24 C 0.55127(15) 0.0337(6) 0.58028(19)
C26 C 0.51798(16) 0.2719(6) 0.5142(2)
C30 C 0.52098(16) 0.0609(7) 0.5875(2)
H13 H 0.636531 0.042389 0.525412
C32 C 0.49059(16) 0.2899(7) 0.5235(2)
H14 H 0.515927 0.342792 0.488627
C36 C 0.49240(17) 0.1830(7) 0.5610(2)
H20 H 0.470326 0.373684 0.504943
H24 H 0.473498 0.197237 0.567404
C41 C 0.40590(15) 0.4042(7) 0.98869(19)
H29 H 0.391626 0.436314 0.951774
C47 C 0.42156(16) 0.1242(6) 0.9674(2)
C50 C 0.44974(16) 0.1468(6) 0.9575(2)
C52 C 0.44873(15) 0.0337(6) 0.91972(19)
C54 C 0.48202(16) 0.2719(6) 0.9858(2)
C56 C 0.47902(16) 0.0609(7) 0.9125(2)
H33 H 0.363469 0.042389 0.974588
C58 C 0.50941(16) 0.2899(7) 0.9765(2)
C60 C 0.50760(17) 0.1830(7) 0.9390(2)
H38 H 0.529674 0.373684 0.995057
H40 H 0.526502 0.197237 0.932596
Cu5 Cu 0.56060(2) 0.64325(7) 0.36205(2)
N6 N 0.61125(12) 0.8087(5) 0.40557(16)
C61 C 0.60597(16) 0.9674(7) 0.3899(2)
C62 C 0.64981(16) 0.7550(7) 0.4437(2)
C64 C 0.68413(16) 0.8577(7) 0.4678(2)
H42 H 0.654035 0.642846 0.454841
H44 H 0.710804 0.814406 0.494667
C70 C 0.73460(16) 0.9899(7) 0.4254(2)
H46 H 0.712024 0.917231 0.409474
C72 C 0.75917(16) 0.9738(8) 0.4117(2)
H48 H 0.753524 0.890412 0.386659
N6_2 N 0.38875(12) 0.8087(5) 0.09443(16)
C61_2 C 0.39403(16) 0.9674(7) 0.1101(2)
C62_2 C 0.35019(16) 0.7550(7) 0.0563(2)
C64_2 C 0.31587(16) 0.8577(7) 0.0322(2)
H42_2 H 0.345965 0.642846 0.045159
H44_2 H 0.289196 0.814406 0.005333
C70_2 C 0.26540(16) 0.9899(7) 0.0746(2)
H46_2 H 0.287976 0.917231 0.090526
C72_2 C 0.24083(16) 0.9738(8) 0.0883(2)
H48_2 H 0.246476 0.890412 0.113341
W1 W 0.500000 0.63644(3) 0.250000
S1 S 0.49962(4) 0.79553(16) 0.30934(5)
S2 S 0.44283(4) 0.47443(16) 0.20072(5)
Cu2 Cu 0.43948(2) 0.63482(8) 0.25945(2)
I1 I 0.37539(2) 0.82966(5) 0.20944(2)
N3 N 0.43271(13) 0.4595(5) 0.30250(16)
C5 C 0.43281(16) 0.5069(6) 0.3445(2)
C6 C 0.42557(17) 0.2964(7) 0.2888(2)
H5 H 0.436354 0.620537 0.353918
C11 C 0.42797(17) 0.3965(7) 0.3739(2)
C12 C 0.42002(18) 0.1791(7) 0.3160(2)
H6 H 0.424293 0.260575 0.259171
H11 H 0.428940 0.435552 0.402956
C15 C 0.42160(15) 0.2264(6) 0.36045(19)
H12 H 0.415160 0.067037 0.304575
C18 C 0.41974(16) 0.0994(6) 0.3950(2)
C19 C 0.39253(15) 0.0063(6) 0.44157(19)
C23 C 0.39130(16) 0.1204(6) 0.4046(2)
C25 C 0.36295(16) 0.0296(7) 0.4505(2)
C29 C 0.35958(16) 0.2461(7) 0.3774(2)
C31 C 0.33445(18) 0.1534(7) 0.4248(2)
H17 H 0.357841 0.319615 0.352608
C35 C 0.33198(16) 0.2617(7) 0.3866(2)
H18 H 0.478859 0.009104 0.388292
H19 H 0.316104 0.167982 0.432133
H23 H 0.311302 0.343830 0.367788
S3 S 0.50038(4) 0.79553(16) 0.19066(5)
S4 S 0.55717(4) 0.47443(16) 0.29928(5)
Cu3 Cu 0.56052(2) 0.63482(8) 0.24055(2)
I2 I 0.62461(2) 0.82966(5) 0.29056(2)
N4 N 0.56729(13) 0.4595(5) 0.19750(16)
C39 C 0.56719(16) 0.5069(6) 0.1555(2)
C40 C 0.57443(17) 0.2964(7) 0.2112(2)
H27 H 0.563646 0.620537 0.146082
C43 C 0.57203(17) 0.3965(7) 0.1261(2)
C44 C 0.57998(18) 0.1791(7) 0.1840(2)
H28 H 0.575707 0.260575 0.240829
H31 H 0.571060 0.435552 0.097044
C46 C 0.57840(15) 0.2264(6) 0.13955(19)
H32 H 0.584840 0.067037 0.195425
C48 C 0.58026(16) 0.0994(6) 0.1050(2)
C49 C 0.60747(15) 0.0063(6) 0.05843(19)
C51 C 0.60870(16) 0.1204(6) 0.0954(2)
C53 C 0.63705(16) 0.0296(7) 0.0495(2)
C55 C 0.64042(16) 0.2461(7) 0.1226(2)
C57 C 0.66555(18) 0.1534(7) 0.0752(2)
H35 H 0.642159 0.319615 0.147392
C59 C 0.66802(16) 0.2617(7) 0.1134(2)
H36 H 0.521141 0.009104 0.111708
H37 H 0.683896 0.167982 0.067867
H39 H 0.688698 0.343830 0.132212
W1_2 W 0.500000 0.36356(3) 0.750000
S1_2 S 0.50038(4) 0.20447(16) 0.69066(5)
S2_2 S 0.55717(4) 0.52557(16) 0.79928(5)
Cu1 Cu 0.43940(2) 0.35675(7) 0.63795(2)
Cu2_2 Cu 0.56052(2) 0.36518(8) 0.74055(2)
N2 N 0.38875(12) 0.1913(5) 0.59443(16)
I1_2 I 0.62461(2) 0.17034(5) 0.79056(2)
N3_2 N 0.56729(13) 0.5405(5) 0.69750(16)
C3 C 0.39403(16) 0.0326(7) 0.6101(2)
C4 C 0.35019(16) 0.2450(7) 0.5563(2)
C5_2 C 0.56719(16) 0.4931(6) 0.6555(2)
C6_2 C 0.57443(17) 0.7036(7) 0.7112(2)
C10 C 0.31587(16) 0.1423(7) 0.5322(2)
H4 H 0.345965 0.357154 0.545159
H5_2 H 0.563646 0.379463 0.646082
C11_2 C 0.57203(17) 0.6035(7) 0.6261(2)
C12_2 C 0.57998(18) 0.8209(7) 0.6840(2)
H6_2 H 0.575707 0.739425 0.740829
H10 H 0.289196 0.185594 0.505333
H11_2 H 0.571060 0.564448 0.597044
C15_2 C 0.57840(15) 0.7736(6) 0.63955(19)
H12_2 H 0.584840 0.932963 0.695425
C18_2 C 0.58026(16) 0.9006(6) 0.6050(2)
C19_2 C 0.60747(15) 0.9937(6) 0.55843(19)
C23_2 C 0.60870(16) 0.8796(6) 0.5954(2)
C25_2 C 0.63705(16) 0.9704(7) 0.5495(2)
C28 C 0.26540(16) 0.0101(7) 0.5746(2)
C29_2 C 0.64042(16) 0.7539(7) 0.6226(2)
C31_2 C 0.66555(18) 0.8466(7) 0.5752(2)
H16 H 0.287976 0.082769 0.590526
C34 C 0.24083(16) 0.0262(8) 0.5883(2)
H17_2 H 0.642159 0.680385 0.647392
C35_2 C 0.66802(16) 0.7383(7) 0.6134(2)
H18_2 H 0.521141 0.990896 0.611708
H19_2 H 0.683896 0.832018 0.567867
H22 H 0.246476 0.109588 0.613341
H23_2 H 0.688698 0.656170 0.632212
S3_2 S 0.49962(4) 0.20447(16) 0.80934(5)
S4_2 S 0.44283(4) 0.52557(16) 0.70072(5)
Cu3_2 Cu 0.43948(2) 0.36518(8) 0.75945(2)
I2_2 I 0.37539(2) 0.17034(5) 0.70944(2)
N4_2 N 0.43271(13) 0.5405(5) 0.80250(16)
C39_2 C 0.43281(16) 0.4931(6) 0.8445(2)
C40_2 C 0.42557(17) 0.7036(7) 0.7888(2)
H27_2 H 0.436354 0.379463 0.853918
C43_2 C 0.42797(17) 0.6035(7) 0.8739(2)
C44_2 C 0.42002(18) 0.8209(7) 0.8160(2)
H28_2 H 0.424293 0.739425 0.759171
H31_2 H 0.428940 0.564448 0.902956
C46_2 C 0.42160(15) 0.7736(6) 0.86045(19)
H32_2 H 0.415160 0.932963 0.804575
C48_2 C 0.41974(16) 0.9006(6) 0.8950(2)
C49_2 C 0.39253(15) 0.9937(6) 0.94157(19)
C51_2 C 0.39130(16) 0.8796(6) 0.9046(2)
C53_2 C 0.36295(16) 0.9704(7) 0.9505(2)
C55_2 C 0.35958(16) 0.7539(7) 0.8774(2)
C57_2 C 0.33445(18) 0.8466(7) 0.9248(2)
H35_2 H 0.357841 0.680385 0.852608
C59_2 C 0.33198(16) 0.7383(7) 0.8866(2)
H36_2 H 0.478859 0.990896 0.888292
H37_2 H 0.316104 0.832018 0.932133
H39_2 H 0.311302 0.656170 0.867788
Cu4 Cu 0.56060(2) 0.35675(7) 0.86205(2)
N7 N 0.43010(12) 0.5223(5) 0.57916(16)
N8 N 0.56990(12) 0.5223(5) 0.92084(16)
N9 N 0.61125(12) 0.1913(5) 0.90557(16)
C3_2 C 0.60597(16) 0.0326(7) 0.8899(2)
C4_2 C 0.64981(16) 0.2450(7) 0.9437(2)
C10_2 C 0.68413(16) 0.1423(7) 0.9678(2)
H4_2 H 0.654035 0.357154 0.954841
H10_2 H 0.710804 0.185594 0.994667
C28_2 C 0.73460(16) 0.0101(7) 0.9254(2)
H16_2 H 0.712024 0.082769 0.909474
C34_2 C 0.75917(16) 0.0262(8) 0.9117(2)
H22_2 H 0.753524 0.109588 0.886659
C1_2 C 0.40997(15) 0.4848(6) 0.5258(2)
C2_2 C 0.44542(19) 0.6783(7) 0.5961(2)
C7_2 C 0.40590(15) 0.5958(7) 0.48869(19)
H1_2 H 0.398099 0.378355 0.513013
H2_2 H 0.458766 0.708322 0.632946
C8_2 C 0.44206(18) 0.7966(7) 0.5606(2)
C13_2 C 0.42286(15) 0.7542(6) 0.50593(19)
H7_2 H 0.391626 0.563686 0.451774
H8_2 H 0.452739 0.904564 0.573554
C16_2 C 0.42156(16) 0.8758(6) 0.4674(2)
C20_2 C 0.44974(16) 0.8532(6) 0.4575(2)
C24_2 C 0.44873(15) 0.9663(6) 0.41972(19)
C26_2 C 0.48202(16) 0.7281(6) 0.4858(2)
C30_2 C 0.47902(16) 0.9391(7) 0.4125(2)
H13_2 H 0.363469 0.957611 0.474588
C32_2 C 0.50941(16) 0.7101(7) 0.4765(2)
H14_2 H 0.484073 0.657208 0.511373
C36_2 C 0.50760(17) 0.8170(7) 0.4390(2)
H20_2 H 0.529674 0.626316 0.495057
H24_2 H 0.526502 0.802763 0.432596
C41_2 C 0.59410(15) 0.5958(7) 0.01131(19)
H29_2 H 0.608374 0.563686 0.048226
C47_2 C 0.57844(16) 0.8758(6) 0.0326(2)
C50_2 C 0.55026(16) 0.8532(6) 0.0425(2)
C52_2 C 0.55127(15) 0.9663(6) 0.08028(19)
C54_2 C 0.51798(16) 0.7281(6) 0.0142(2)
C56_2 C 0.52098(16) 0.9391(7) 0.0875(2)
H33_2 H 0.636531 0.957611 0.025412
C58_2 C 0.49059(16) 0.7101(7) 0.0235(2)
C60_2 C 0.49240(17) 0.8170(7) 0.0610(2)
H38_2 H 0.470326 0.626316 0.004943
H40_2 H 0.473498 0.802763 0.067404
C37_2 C 0.59003(15) 0.4848(6) 0.9742(2)
C38_2 C 0.55458(19) 0.6783(7) 0.9039(2)
H25_2 H 0.601901 0.378355 0.986987
H26_2 H 0.541234 0.708322 0.867054
C42_2 C 0.55794(18) 0.7966(7) 0.9394(2)
C45_2 C 0.57714(15) 0.7542(6) 0.99407(19)
H30_2 H 0.547261 0.904564 0.926446
H34_2 H 0.515927 0.657208 0.988627
H3 H 0.421078 0.994135 0.637703
C9 C 0.36141(16) 0.9204(7) 0.5875(2)
H9 H 0.366724 0.808535 0.599007
C14 C 0.32099(15) 0.9755(7) 0.5477(2)
C17 C 0.28452(16) 0.8613(6) 0.5235(2)
C21 C 0.27742(14) 0.7280(7) 0.4876(2)
C22 C 0.25796(15) 0.8840(6) 0.5362(2)
C27 C 0.30250(17) 0.7056(8) 0.4717(2)
C33 C 0.29414(18) 0.5834(8) 0.4353(3)
H15 H 0.325240 0.776415 0.486552
H21 H 0.311142 0.570828 0.425580
N6_3 N 0.11125(12) 0.3087(5) 0.40557(16)
C61_3 C 0.10597(16) 0.4674(7) 0.3899(2)
C62_3 C 0.14981(16) 0.2550(7) 0.4437(2)
H41 H 0.078922 0.505865 0.362297
C63 C 0.13859(16) 0.5796(7) 0.4125(2)
C64_3 C 0.18413(16) 0.3577(7) 0.4678(2)
H42_3 H 0.154035 0.142846 0.454841
H43 H 0.133276 0.691465 0.400993
C65 C 0.17901(15) 0.5245(7) 0.4523(2)
H44_3 H 0.210804 0.314406 0.494667
C66 C 0.21548(16) 0.6387(6) 0.4765(2)
C67 C 0.22258(14) 0.7720(7) 0.5124(2)
C68 C 0.24204(15) 0.6160(6) 0.4638(2)
C69 C 0.19750(17) 0.7944(8) 0.5283(2)
C70_3 C 0.23460(16) 0.4899(7) 0.4254(2)
C71 C 0.20586(18) 0.9166(8) 0.5647(3)
H45 H 0.174760 0.723585 0.513448
H46_3 H 0.212024 0.417231 0.409474
C72_3 C 0.25917(16) 0.4738(8) 0.4117(2)
H47 H 0.188858 0.929172 0.574420
H48_3 H 0.253524 0.390412 0.386659
Cu7 Cu 0.06060(2) 0.14325(7) 0.36205(2)
C1_3 C 0.09003(15) 0.0152(6) 0.4742(2)
H1_3 H 0.101901 0.121645 0.486987
W1_3 W -0.000000 0.13644(3) 0.250000
S3_3 S 0.00038(4) 0.29553(16) 0.19066(5)
Cu3_3 Cu 0.06052(2) 0.13482(8) 0.24055(2)
I2_3 I 0.12461(2) 0.32966(5) 0.29056(2)
C39_3 C 0.06719(16) 0.0069(6) 0.1555(2)
H27_3 H 0.063646 0.120537 0.146082
C21_2 C 0.72258(14) 0.7280(7) 0.0124(2)
C27_2 C 0.69750(17) 0.7056(8) 0.0283(2)
C33_2 C 0.70586(18) 0.5834(8) 0.0647(3)
H15_2 H 0.674760 0.776415 0.013448
H21_2 H 0.688858 0.570828 0.074420
N6_4 N 0.88875(12) 0.3087(5) 0.09443(16)
C61_4 C 0.89403(16) 0.4674(7) 0.1101(2)
C62_4 C 0.85019(16) 0.2550(7) 0.0563(2)
H41_2 H 0.921078 0.505865 0.137703
C63_2 C 0.86141(16) 0.5796(7) 0.0875(2)
C64_4 C 0.81587(16) 0.3577(7) 0.0322(2)
H42_4 H 0.845965 0.142846 0.045159
H43_2 H 0.866724 0.691465 0.099007
C65_2 C 0.82099(15) 0.5245(7) 0.0477(2)
H44_4 H 0.789196 0.314406 0.005333
C66_2 C 0.78452(16) 0.6387(6) 0.0235(2)
C68_2 C 0.75796(15) 0.6160(6) 0.0362(2)
C70_4 C 0.76540(16) 0.4899(7) 0.0746(2)
H46_4 H 0.787976 0.417231 0.090526
C72_4 C 0.74083(16) 0.4738(8) 0.0883(2)
H48_4 H 0.746476 0.390412 0.113341
Cu7_2 Cu 0.93940(2) 0.14325(7) 0.13795(2)
C37_3 C 0.90997(15) 0.0152(6) 0.0258(2)
H25_3 H 0.898099 0.121645 0.013013
W1_4 W 1.000000 0.13644(3) 0.250000
S1_3 S 0.99962(4) 0.29553(16) 0.30934(5)
Cu2_3 Cu 0.93948(2) 0.13482(8) 0.25945(2)
I1_3 I 0.87539(2) 0.32966(5) 0.20944(2)
C5_3 C 0.93281(16) 0.0069(6) 0.3445(2)
H5_3 H 0.936354 0.120537 0.353918
H3_2 H 0.578922 0.994135 0.862297
C9_2 C 0.63859(16) 0.9204(7) 0.9125(2)
H9_2 H 0.633276 0.808535 0.900993
C14_2 C 0.67901(15) 0.9755(7) 0.9523(2)
C17_2 C 0.71548(16) 0.8613(6) 0.9765(2)
C22_2 C 0.74204(15) 0.8840(6) 0.9638(2)
C67_2 C 0.77742(14) 0.7720(7) 0.9876(2)
C69_2 C 0.80250(17) 0.7944(8) 0.9717(2)
C71_2 C 0.79414(18) 0.9166(8) 0.9353(3)
H45_2 H 0.825240 0.723585 0.986552
H47_2 H 0.811142 0.929172 0.925580
S2_3 S 0.05717(4) 0.02557(16) 0.79928(5)
N1_2 N 0.06990(12) 0.9777(5) 0.42084(16)
N3_3 N 0.06729(13) 0.0405(5) 0.69750(16)
C2_3 C 0.05458(19) 0.8217(7) 0.4039(2)
C6_3 C 0.07443(17) 0.2036(7) 0.7112(2)
C7_3 C 0.09410(15) 0.9042(7) 0.51131(19)
H2_3 H 0.041234 0.791678 0.367054
C8_3 C 0.05794(18) 0.7034(7) 0.4394(2)
C11_3 C 0.07203(17) 0.1035(7) 0.6261(2)
C12_3 C 0.07998(18) 0.3209(7) 0.6840(2)
H6_3 H 0.075707 0.239425 0.740829
C13_3 C 0.07714(15) 0.7458(6) 0.49407(19)
H7_3 H 0.108374 0.936314 0.548226
H8_3 H 0.047261 0.595436 0.426446
H11_3 H 0.071060 0.064448 0.597044
C15_3 C 0.07840(15) 0.2736(6) 0.63955(19)
H12_3 H 0.084840 0.432963 0.695425
C16_3 C 0.07844(16) 0.6242(6) 0.5326(2)
C18_3 C 0.08026(16) 0.4006(6) 0.6050(2)
C19_3 C 0.10747(15) 0.4937(6) 0.55843(19)
C20_3 C 0.05026(16) 0.6468(6) 0.5425(2)
C23_3 C 0.10870(16) 0.3796(6) 0.5954(2)
C24_3 C 0.05127(15) 0.5337(6) 0.58028(19)
C25_3 C 0.13705(16) 0.4704(7) 0.5495(2)
C26_3 C 0.01798(16) 0.7719(6) 0.5142(2)
C29_3 C 0.14042(16) 0.2539(7) 0.6226(2)
C30_3 C 0.02098(16) 0.5609(7) 0.5875(2)
C31_3 C 0.16555(18) 0.3466(7) 0.5752(2)
H13_3 H 0.136531 0.542389 0.525412
H14_3 H 0.015927 0.842792 0.488627
H17_3 H 0.142159 0.180385 0.647392
C35_3 C 0.16802(16) 0.2383(7) 0.6134(2)
H18_3 H 0.021141 0.490896 0.611708
H19_3 H 0.183896 0.332018 0.567867
H23_3 H 0.188698 0.156170 0.632212
C58_3 C 0.00941(16) 0.7899(7) 0.9765(2)
C60_3 C 0.00760(17) 0.6830(7) 0.9390(2)
H38_3 H 0.029674 0.873684 0.995057
H40_3 H 0.026502 0.697237 0.932596
N8_2 N 0.06990(12) 0.0223(5) 0.92084(16)
C32_3 C 0.00941(16) 0.2101(7) 0.4765(2)
C36_3 C 0.00760(17) 0.3170(7) 0.4390(2)
H20_3 H 0.029674 0.126316 0.495057
H24_3 H 0.026502 0.302763 0.432596
S4_3 S 0.05717(4) 0.97443(16) 0.29928(5)
N4_3 N 0.06729(13) 0.9595(5) 0.19750(16)
C40_3 C 0.07443(17) 0.7964(7) 0.2112(2)
C41_3 C 0.09410(15) 0.0958(7) 0.01131(19)
C43_3 C 0.07203(17) 0.8965(7) 0.1261(2)
C44_3 C 0.07998(18) 0.6791(7) 0.1840(2)
H28_3 H 0.075707 0.760575 0.240829
H29_3 H 0.108374 0.063686 0.048226
H31_3 H 0.071060 0.935552 0.097044
C46_3 C 0.07840(15) 0.7264(6) 0.13955(19)
H32_3 H 0.084840 0.567037 0.195425
C47_3 C 0.07844(16) 0.3758(6) 0.0326(2)
C48_3 C 0.08026(16) 0.5994(6) 0.1050(2)
C49_3 C 0.10747(15) 0.5063(6) 0.05843(19)
C50_3 C 0.05026(16) 0.3532(6) 0.0425(2)
C51_3 C 0.10870(16) 0.6204(6) 0.0954(2)
C52_3 C 0.05127(15) 0.4663(6) 0.08028(19)
C53_3 C 0.13705(16) 0.5296(7) 0.0495(2)
C54_3 C 0.01798(16) 0.2281(6) 0.0142(2)
C55_3 C 0.14042(16) 0.7461(7) 0.1226(2)
C56_3 C 0.02098(16) 0.4391(7) 0.0875(2)
C57_3 C 0.16555(18) 0.6534(7) 0.0752(2)
H33_3 H 0.136531 0.457611 0.025412
H35_3 H 0.142159 0.819615 0.147392
C59_3 C 0.16802(16) 0.7617(7) 0.1134(2)
H36_3 H 0.021141 0.509104 0.111708
H37_3 H 0.183896 0.667982 0.067867
H39_3 H 0.188698 0.843830 0.132212
C38_3 C 0.05458(19) 0.1783(7) 0.9039(2)
H26_3 H 0.041234 0.208322 0.867054
C42_3 C 0.05794(18) 0.2966(7) 0.9394(2)
C45_3 C 0.07714(15) 0.2542(6) 0.99407(19)
H30_3 H 0.047261 0.404564 0.926446
H34_3 H 0.015927 0.157208 0.988627
W1_5 W -0.000000 0.86356(3) 0.750000
S1_4 S 0.00038(4) 0.70447(16) 0.69066(5)
Cu2_4 Cu 0.06052(2) 0.86518(8) 0.74055(2)
I1_4 I 0.12461(2) 0.67034(5) 0.79056(2)
C5_4 C 0.06719(16) 0.9931(6) 0.6555(2)
H5_4 H 0.063646 0.879463 0.646082
Cu4_2 Cu 0.06060(2) 0.85675(7) 0.86205(2)
N9_2 N 0.11125(12) 0.6913(5) 0.90557(16)
C3_3 C 0.10597(16) 0.5326(7) 0.8899(2)
C4_3 C 0.14981(16) 0.7450(7) 0.9437(2)
H3_3 H 0.078922 0.494135 0.862297
C9_3 C 0.13859(16) 0.4204(7) 0.9125(2)
C10_3 C 0.18413(16) 0.6423(7) 0.9678(2)
H4_3 H 0.154035 0.857154 0.954841
H9_3 H 0.133276 0.308535 0.900993
C14_3 C 0.17901(15) 0.4755(7) 0.9523(2)
H10_3 H 0.210804 0.685594 0.994667
C17_3 C 0.21548(16) 0.3613(6) 0.9765(2)
C22_3 C 0.24204(15) 0.3840(6) 0.9638(2)
C28_3 C 0.23460(16) 0.5101(7) 0.9254(2)
H16_3 H 0.212024 0.582769 0.909474
C34_3 C 0.25917(16) 0.5262(8) 0.9117(2)
H22_3 H 0.253524 0.609588 0.886659
C67_3 C 0.27742(14) 0.2720(7) 0.9876(2)
C69_3 C 0.30250(17) 0.2944(8) 0.9717(2)
C71_3 C 0.29414(18) 0.4166(8) 0.9353(3)
H45_3 H 0.325240 0.223585 0.986552
H47_3 H 0.311142 0.429172 0.925580
C37_4 C 0.09003(15) 0.9848(6) 0.9742(2)
H25_4 H 0.101901 0.878355 0.986987
C38_4 C 0.94542(19) 0.8217(7) 0.0961(2)
H26_4 H 0.958766 0.791678 0.132946
C42_4 C 0.94206(18) 0.7034(7) 0.0606(2)
C45_4 C 0.92286(15) 0.7458(6) 0.00593(19)
H30_4 H 0.952739 0.595436 0.073554
H34_4 H 0.984073 0.842792 0.011373
N5_2 N 0.93010(12) 0.9777(5) 0.07916(16)
C32_4 C 0.99059(16) 0.7899(7) 0.5235(2)
C36_4 C 0.99240(17) 0.6830(7) 0.5610(2)
H20_4 H 0.970326 0.873684 0.504943
H24_4 H 0.973498 0.697237 0.567404
S4_4 S 0.94283(4) 0.02557(16) 0.70072(5)
N4_4 N 0.93271(13) 0.0405(5) 0.80250(16)
C40_4 C 0.92557(17) 0.2036(7) 0.7888(2)
C41_4 C 0.90590(15) 0.9042(7) 0.98869(19)
C43_4 C 0.92797(17) 0.1035(7) 0.8739(2)
C44_4 C 0.92002(18) 0.3209(7) 0.8160(2)
H28_4 H 0.924293 0.239425 0.759171
H29_4 H 0.891626 0.936314 0.951774
H31_4 H 0.928940 0.064448 0.902956
C46_4 C 0.92160(15) 0.2736(6) 0.86045(19)
H32_4 H 0.915160 0.432963 0.804575
C47_4 C 0.92156(16) 0.6242(6) 0.9674(2)
C48_4 C 0.91974(16) 0.4006(6) 0.8950(2)
C49_4 C 0.89253(15) 0.4937(6) 0.94157(19)
C50_4 C 0.94974(16) 0.6468(6) 0.9575(2)
C51_4 C 0.89130(16) 0.3796(6) 0.9046(2)
C52_4 C 0.94873(15) 0.5337(6) 0.91972(19)
C53_4 C 0.86295(16) 0.4704(7) 0.9505(2)
C54_4 C 0.98202(16) 0.7719(6) 0.9858(2)
C55_4 C 0.85958(16) 0.2539(7) 0.8774(2)
C56_4 C 0.97902(16) 0.5609(7) 0.9125(2)
C57_4 C 0.83445(18) 0.3466(7) 0.9248(2)
H33_4 H 0.863469 0.542389 0.974588
H35_4 H 0.857841 0.180385 0.852608
C59_4 C 0.83198(16) 0.2383(7) 0.8866(2)
H36_4 H 0.978859 0.490896 0.888292
H37_4 H 0.816104 0.332018 0.932133
H39_4 H 0.811302 0.156170 0.867788
N7_2 N 0.93010(12) 0.0223(5) 0.57916(16)
S2_4 S 0.94283(4) 0.97443(16) 0.20072(5)
N3_4 N 0.93271(13) 0.9595(5) 0.30250(16)
C2_4 C 0.94542(19) 0.1783(7) 0.5961(2)
C6_4 C 0.92557(17) 0.7964(7) 0.2888(2)
C7_4 C 0.90590(15) 0.0958(7) 0.48869(19)
H2_4 H 0.958766 0.208322 0.632946
C8_4 C 0.94206(18) 0.2966(7) 0.5606(2)
C11_4 C 0.92797(17) 0.8965(7) 0.3739(2)
C12_4 C 0.92002(18) 0.6791(7) 0.3160(2)
H6_4 H 0.924293 0.760575 0.259171
C13_4 C 0.92286(15) 0.2542(6) 0.50593(19)
H7_4 H 0.891626 0.063686 0.451774
H8_4 H 0.952739 0.404564 0.573554
H11_4 H 0.928940 0.935552 0.402956
C15_4 C 0.92160(15) 0.7264(6) 0.36045(19)
H12_4 H 0.915160 0.567037 0.304575
C16_4 C 0.92156(16) 0.3758(6) 0.4674(2)
C18_4 C 0.91974(16) 0.5994(6) 0.3950(2)
C19_4 C 0.89253(15) 0.5063(6) 0.44157(19)
C20_4 C 0.94974(16) 0.3532(6) 0.4575(2)
C23_4 C 0.89130(16) 0.6204(6) 0.4046(2)
C24_4 C 0.94873(15) 0.4663(6) 0.41972(19)
C25_4 C 0.86295(16) 0.5296(7) 0.4505(2)
C26_4 C 0.98202(16) 0.2281(6) 0.4858(2)
C29_4 C 0.85958(16) 0.7461(7) 0.3774(2)
C30_4 C 0.97902(16) 0.4391(7) 0.4125(2)
C31_4 C 0.83445(18) 0.6534(7) 0.4248(2)
H13_4 H 0.863469 0.457611 0.474588
H14_4 H 0.984073 0.157208 0.511373
H17_4 H 0.857841 0.819615 0.352608
C35_4 C 0.83198(16) 0.7617(7) 0.3866(2)
H18_4 H 0.978859 0.509104 0.388292
H19_4 H 0.816104 0.667982 0.432133
H23_4 H 0.811302 0.843830 0.367788
C58_4 C 0.99059(16) 0.2101(7) 0.0235(2)
C60_4 C 0.99240(17) 0.3170(7) 0.0610(2)
H38_4 H 0.970326 0.126316 0.004943
H40_4 H 0.973498 0.302763 0.067404
W1_6 W 1.000000 0.86356(3) 0.750000
Cu1_2 Cu 0.93940(2) 0.85675(7) 0.63795(2)
N2_2 N 0.88875(12) 0.6913(5) 0.59443(16)
C3_4 C 0.89403(16) 0.5326(7) 0.6101(2)
C4_4 C 0.85019(16) 0.7450(7) 0.5563(2)
H3_4 H 0.921078 0.494135 0.637703
C9_4 C 0.86141(16) 0.4204(7) 0.5875(2)
C10_4 C 0.81587(16) 0.6423(7) 0.5322(2)
H4_4 H 0.845965 0.857154 0.545159
H9_4 H 0.866724 0.308535 0.599007
C14_4 C 0.82099(15) 0.4755(7) 0.5477(2)
H10_4 H 0.789196 0.685594 0.505333
C17_4 C 0.78452(16) 0.3613(6) 0.5235(2)
C21_3 C 0.77742(14) 0.2280(7) 0.4876(2)
C22_4 C 0.75796(15) 0.3840(6) 0.5362(2)
C27_3 C 0.80250(17) 0.2056(8) 0.4717(2)
C28_4 C 0.76540(16) 0.5101(7) 0.5746(2)
C33_3 C 0.79414(18) 0.0834(8) 0.4353(3)
H15_3 H 0.825240 0.276415 0.486552
H16_4 H 0.787976 0.582769 0.590526
C34_4 C 0.74083(16) 0.5262(8) 0.5883(2)
H21_3 H 0.811142 0.070828 0.425580
H22_4 H 0.746476 0.609588 0.613341
S3_4 S 0.99962(4) 0.70447(16) 0.80934(5)
Cu3_4 Cu 0.93948(2) 0.86518(8) 0.75945(2)
I2_4 I 0.87539(2) 0.67034(5) 0.70944(2)
C39_4 C 0.93281(16) 0.9931(6) 0.8445(2)
H27_4 H 0.936354 0.879463 0.853918
H41_3 H 0.578922 0.005865 0.362297
C63_3 C 0.63859(16) 0.0796(7) 0.4125(2)
H43_3 H 0.633276 0.191465 0.400993
C65_3 C 0.67901(15) 0.0245(7) 0.4523(2)
C66_3 C 0.71548(16) 0.1387(6) 0.4765(2)
C67_4 C 0.72258(14) 0.2720(7) 0.5124(2)
C68_3 C 0.74204(15) 0.1160(6) 0.4638(2)
C69_4 C 0.69750(17) 0.2944(8) 0.5283(2)
C71_4 C 0.70586(18) 0.4166(8) 0.5647(3)
H45_4 H 0.674760 0.223585 0.513448
H47_4 H 0.688858 0.429172 0.574420
C1_4 C 0.90997(15) 0.9848(6) 0.5258(2)
H1_4 H 0.898099 0.878355 0.513013
C21_4 C 0.22258(14) 0.2280(7) 0.0124(2)
C27_4 C 0.19750(17) 0.2056(8) 0.0283(2)
C33_4 C 0.20586(18) 0.0834(8) 0.0647(3)
H15_4 H 0.174760 0.276415 0.013448
H21_4 H 0.188858 0.070828 0.074420
H41_4 H 0.421078 0.005865 0.137703
C63_4 C 0.36141(16) 0.0796(7) 0.0875(2)
H43_4 H 0.366724 0.191465 0.099007
C65_4 C 0.32099(15) 0.0245(7) 0.0477(2)
C66_4 C 0.28452(16) 0.1387(6) 0.0235(2)
C68_4 C 0.25796(15) 0.1160(6) 0.0362(2)
loop_
_geom_bond_atom_site_label_1
_geom_bond_atom_site_label_2
_geom_bond_site_symmetry_1
_geom_bond_site_symmetry_2
C38 H26 1_555 1_555
H25 C37 1_555 1_555
C42 C38 1_555 1_555
C45 C42 1_555 1_555
H30 C42 1_555 1_555
N5 C37 1_555 1_555
Cu6 N5 1_555 1_555
C38 N5 1_555 1_555
N1 C1 1_555 1_555
C1 C7 1_555 1_555
C2 N1 1_555 1_555
C7 C13 1_555 1_555
H1 C1 1_555 1_555
H2 C2 1_555 1_555
C8 C2 1_555 1_555
C13 C8 1_555 1_555
H7 C7 1_555 1_555
H8 C8 1_555 1_555
C16 C13 1_555 1_555
C20 C16 1_555 1_555
C26 C20 1_555 1_555
C30 C24 1_555 1_555
C32 C26 1_555 1_555
H14 C26 1_555 1_555
C36 C30 1_555 1_555
H20 C32 1_555 1_555
H24 C36 1_555 1_555
H29 C41 1_555 1_555
C50 C47 1_555 1_555
C54 C50 1_555 1_555
C56 C52 1_555 1_555
C58 C54 1_555 1_555
C60 C56 1_555 1_555
H38 C58 1_555 1_555
H40 C60 1_555 1_555
Cu5 N1 1_555 1_555
C20 C24 1_555 1_555
C32 C36 1_555 1_555
C50 C52 1_555 1_555
C58 C60 1_555 1_555
N6 C61 1_555 1_555
C62 N6 1_555 1_555
C64 C62 1_555 1_555
H42 C62 1_555 1_555
H44 C64 1_555 1_555
H46 C70 1_555 1_555
H48 C72 1_555 1_555
Cu5 N6 1_555 1_555
C70 C72 1_555 1_555
N6_2 C61_2 1_555 1_555
C62_2 N6_2 1_555 1_555
C64_2 C62_2 1_555 1_555
H42_2 C62_2 1_555 1_555
H44_2 C64_2 1_555 1_555
H46_2 C70_2 1_555 1_555
H48_2 C72_2 1_555 1_555
Cu6 N6_2 1_555 1_555
C70_2 C72_2 1_555 1_555
W1 S1 1_555 1_555
S1 Cu5 1_555 1_555
S2 W1 1_555 1_555
Cu2 S1 1_555 1_555
I1 Cu2 1_555 1_555
N3 Cu2 1_555 1_555
C5 N3 1_555 1_555
C6 N3 1_555 1_555
H5 C5 1_555 1_555
C11 C5 1_555 1_555
C12 C6 1_555 1_555
H6 C6 1_555 1_555
H11 C11 1_555 1_555
C15 C11 1_555 1_555
H12 C12 1_555 1_555
C18 C15 1_555 1_555
C23 C18 1_555 1_555
C25 C19 1_555 1_555
C29 C23 1_555 1_555
C31 C25 1_555 1_555
H17 C29 1_555 1_555
C35 C29 1_555 1_555
H19 C31 1_555 1_555
H23 C35 1_555 1_555
S3 W1 1_555 1_555
S4 W1 1_555 1_555
Cu3 S3 1_555 1_555
I2 Cu3 1_555 1_555
N4 Cu3 1_555 1_555
C39 N4 1_555 1_555
C40 N4 1_555 1_555
H27 C39 1_555 1_555
C43 C39 1_555 1_555
C44 C40 1_555 1_555
H28 C40 1_555 1_555
H31 C43 1_555 1_555
C46 C43 1_555 1_555
H32 C44 1_555 1_555
C48 C46 1_555 1_555
C51 C48 1_555 1_555
C53 C49 1_555 1_555
C55 C51 1_555 1_555
C57 C53 1_555 1_555
H35 C55 1_555 1_555
C59 C55 1_555 1_555
H37 C57 1_555 1_555
H39 C59 1_555 1_555
Cu6 S2 1_555 1_555
S2 Cu2 1_555 1_555
Cu5 S4 1_555 1_555
C12 C15 1_555 1_555
C19 C23 1_555 1_555
C31 C35 1_555 1_555
S3 Cu6 1_555 1_555
S4 Cu3 1_555 1_555
C44 C46 1_555 1_555
C49 C51 1_555 1_555
C57 C59 1_555 1_555
W1_2 S1_2 1_555 1_555
S1_2 Cu1 1_555 1_555
S2_2 W1_2 1_555 1_555
Cu1 N2 1_555 1_555
Cu2_2 S1_2 1_555 1_555
N2 C3 1_555 1_555
I1_2 Cu2_2 1_555 1_555
N3_2 Cu2_2 1_555 1_555
C4 N2 1_555 1_555
C5_2 N3_2 1_555 1_555
C6_2 N3_2 1_555 1_555
C10 C4 1_555 1_555
H4 C4 1_555 1_555
H5_2 C5_2 1_555 1_555
C11_2 C5_2 1_555 1_555
C12_2 C6_2 1_555 1_555
H6_2 C6_2 1_555 1_555
H10 C10 1_555 1_555
H11_2 C11_2 1_555 1_555
C15_2 C11_2 1_555 1_555
H12_2 C12_2 1_555 1_555
C18_2 C15_2 1_555 1_555
C23_2 C18_2 1_555 1_555
C25_2 C19_2 1_555 1_555
C29_2 C23_2 1_555 1_555
C31_2 C25_2 1_555 1_555
H16 C28 1_555 1_555
C34 C28 1_555 1_555
H17_2 C29_2 1_555 1_555
C35_2 C29_2 1_555 1_555
H19_2 C31_2 1_555 1_555
H22 C34 1_555 1_555
H23_2 C35_2 1_555 1_555
S3_2 W1_2 1_555 1_555
S4_2 W1_2 1_555 1_555
Cu3_2 S3_2 1_555 1_555
I2_2 Cu3_2 1_555 1_555
N4_2 Cu3_2 1_555 1_555
C39_2 N4_2 1_555 1_555
C40_2 N4_2 1_555 1_555
H27_2 C39_2 1_555 1_555
C43_2 C39_2 1_555 1_555
C44_2 C40_2 1_555 1_555
H28_2 C40_2 1_555 1_555
H31_2 C43_2 1_555 1_555
C46_2 C43_2 1_555 1_555
H32_2 C44_2 1_555 1_555
C48_2 C46_2 1_555 1_555
C51_2 C48_2 1_555 1_555
C53_2 C49_2 1_555 1_555
C55_2 C51_2 1_555 1_555
C57_2 C53_2 1_555 1_555
H35_2 C55_2 1_555 1_555
C59_2 C55_2 1_555 1_555
H37_2 C57_2 1_555 1_555
H39_2 C59_2 1_555 1_555
Cu4 S2_2 1_555 1_555
N7 Cu1 1_555 1_555
N8 Cu4 1_555 1_555
N9 Cu4 1_555 1_555
S2_2 Cu2_2 1_555 1_555
Cu1 S4_2 1_555 1_555
C12_2 C15_2 1_555 1_555
C19_2 C23_2 1_555 1_555
C31_2 C35_2 1_555 1_555
S3_2 Cu4 1_555 1_555
S4_2 Cu3_2 1_555 1_555
C44_2 C46_2 1_555 1_555
C49_2 C51_2 1_555 1_555
C57_2 C59_2 1_555 1_555
N9 C3_2 1_555 1_555
C4_2 N9 1_555 1_555
C10_2 C4_2 1_555 1_555
H4_2 C4_2 1_555 1_555
H10_2 C10_2 1_555 1_555
H16_2 C28_2 1_555 1_555
C34_2 C28_2 1_555 1_555
H22_2 C34_2 1_555 1_555
N7 C1_2 1_555 1_555
C1_2 C7_2 1_555 1_555
C2_2 N7 1_555 1_555
C7_2 C13_2 1_555 1_555
H1_2 C1_2 1_555 1_555
H2_2 C2_2 1_555 1_555
C8_2 C2_2 1_555 1_555
C13_2 C8_2 1_555 1_555
H7_2 C7_2 1_555 1_555
H8_2 C8_2 1_555 1_555
C16_2 C13_2 1_555 1_555
C20_2 C16_2 1_555 1_555
C26_2 C20_2 1_555 1_555
C30_2 C24_2 1_555 1_555
C32_2 C26_2 1_555 1_555
H14_2 C26_2 1_555 1_555
C36_2 C30_2 1_555 1_555
H20_2 C32_2 1_555 1_555
H24_2 C36_2 1_555 1_555
H29_2 C41_2 1_555 1_555
C50_2 C47_2 1_555 1_555
C54_2 C50_2 1_555 1_555
C56_2 C52_2 1_555 1_555
C58_2 C54_2 1_555 1_555
C60_2 C56_2 1_555 1_555
H38_2 C58_2 1_555 1_555
H40_2 C60_2 1_555 1_555
C20_2 C24_2 1_555 1_555
C32_2 C36_2 1_555 1_555
C50_2 C52_2 1_555 1_555
C58_2 C60_2 1_555 1_555
C38_2 H26_2 1_555 1_555
H25_2 C37_2 1_555 1_555
C42_2 C38_2 1_555 1_555
C45_2 C42_2 1_555 1_555
H30_2 C42_2 1_555 1_555
N8 C37_2 1_555 1_555
C38_2 N8 1_555 1_555
H9 C9 1_555 1_555
C14 C9 1_555 1_555
C17 C14 1_555 1_555
C21 C17 1_555 1_555
C22 C17 1_555 1_555
C27 C21 1_555 1_555
C33 C27 1_555 1_555
H15 C27 1_555 1_555
H21 C33 1_555 1_555
N6_3 C61_3 1_555 1_555
C61_3 H41 1_555 1_555
C62_3 N6_3 1_555 1_555
C63 C61_3 1_555 1_555
C64_3 C62_3 1_555 1_555
H42_3 C62_3 1_555 1_555
H43 C63 1_555 1_555
C65 C63 1_555 1_555
H44_3 C64_3 1_555 1_555
C66 C65 1_555 1_555
C67 C22 1_555 1_555
C68 C21 1_555 1_555
C69 C67 1_555 1_555
C70_3 C68 1_555 1_555
H45 C69 1_555 1_555
H46_3 C70_3 1_555 1_555
C72_3 C33 1_555 1_555
H47 C71 1_555 1_555
H48_3 C72_3 1_555 1_555
Cu7 N6_3 1_555 1_555
C64_3 C65 1_555 1_555
C66 C67 1_555 1_555
C66 C68 1_555 1_555
C69 C71 1_555 1_555
C70_3 C72_3 1_555 1_555
H1_3 C1_3 1_555 1_555
S3_3 W1_3 1_555 1_555
Cu3_3 S3_3 1_555 1_555
I2_3 Cu3_3 1_555 1_555
H27_3 C39_3 1_555 1_555
C27_2 C21_2 1_555 1_555
C33_2 C27_2 1_555 1_555
H15_2 C27_2 1_555 1_555
H21_2 C33_2 1_555 1_555
N6_4 C61_4 1_555 1_555
C61_4 H41_2 1_555 1_555
C62_4 N6_4 1_555 1_555
C63_2 C61_4 1_555 1_555
C64_4 C62_4 1_555 1_555
H42_4 C62_4 1_555 1_555
H43_2 C63_2 1_555 1_555
C65_2 C63_2 1_555 1_555
H44_4 C64_4 1_555 1_555
C66_2 C65_2 1_555 1_555
C68_2 C21_2 1_555 1_555
C70_4 C68_2 1_555 1_555
H46_4 C70_4 1_555 1_555
C72_4 C33_2 1_555 1_555
H48_4 C72_4 1_555 1_555
Cu7_2 N6_4 1_555 1_555
C64_4 C65_2 1_555 1_555
C66_2 C68_2 1_555 1_555
C70_4 C72_4 1_555 1_555
H25_3 C37_3 1_555 1_555
W1_4 S1_3 1_555 1_555
Cu2_3 S1_3 1_555 1_555
I1_3 Cu2_3 1_555 1_555
H5_3 C5_3 1_555 1_555
H9_2 C9_2 1_555 1_555
C14_2 C9_2 1_555 1_555
C17_2 C14_2 1_555 1_555
C22_2 C17_2 1_555 1_555
C67_2 C22_2 1_555 1_555
C69_2 C67_2 1_555 1_555
H45_2 C69_2 1_555 1_555
H47_2 C71_2 1_555 1_555
C69_2 C71_2 1_555 1_555
C2_3 N1_2 1_555 1_555
C6_3 N3_3 1_555 1_555
C7_3 C13_3 1_555 1_555
H2_3 C2_3 1_555 1_555
C8_3 C2_3 1_555 1_555
C12_3 C6_3 1_555 1_555
H6_3 C6_3 1_555 1_555
C13_3 C8_3 1_555 1_555
H7_3 C7_3 1_555 1_555
H8_3 C8_3 1_555 1_555
H11_3 C11_3 1_555 1_555
C15_3 C11_3 1_555 1_555
H12_3 C12_3 1_555 1_555
C16_3 C13_3 1_555 1_555
C18_3 C15_3 1_555 1_555
C19_3 C16_3 1_555 1_555
C20_3 C16_3 1_555 1_555
C23_3 C18_3 1_555 1_555
C24_3 C18_3 1_555 1_555
C25_3 C19_3 1_555 1_555
C26_3 C20_3 1_555 1_555
C29_3 C23_3 1_555 1_555
C30_3 C24_3 1_555 1_555
C31_3 C25_3 1_555 1_555
H13_3 C25_3 1_555 1_555
H14_3 C26_3 1_555 1_555
H17_3 C29_3 1_555 1_555
C35_3 C29_3 1_555 1_555
H18_3 C30_3 1_555 1_555
H19_3 C31_3 1_555 1_555
H23_3 C35_3 1_555 1_555
H38_3 C58_3 1_555 1_555
H40_3 C60_3 1_555 1_555
C12_3 C15_3 1_555 1_555
C19_3 C23_3 1_555 1_555
C20_3 C24_3 1_555 1_555
C31_3 C35_3 1_555 1_555
C58_3 C60_3 1_555 1_555
H20_3 C32_3 1_555 1_555
H24_3 C36_3 1_555 1_555
C40_3 N4_3 1_555 1_555
C44_3 C40_3 1_555 1_555
H28_3 C40_3 1_555 1_555
H29_3 C41_3 1_555 1_555
H31_3 C43_3 1_555 1_555
C46_3 C43_3 1_555 1_555
H32_3 C44_3 1_555 1_555
C48_3 C46_3 1_555 1_555
C49_3 C47_3 1_555 1_555
C50_3 C47_3 1_555 1_555
C51_3 C48_3 1_555 1_555
C52_3 C48_3 1_555 1_555
C53_3 C49_3 1_555 1_555
C54_3 C50_3 1_555 1_555
C55_3 C51_3 1_555 1_555
C56_3 C52_3 1_555 1_555
C57_3 C53_3 1_555 1_555
H33_3 C53_3 1_555 1_555
H35_3 C55_3 1_555 1_555
C59_3 C55_3 1_555 1_555
H36_3 C56_3 1_555 1_555
H37_3 C57_3 1_555 1_555
H39_3 C59_3 1_555 1_555
C32_3 C36_3 1_555 1_555
C44_3 C46_3 1_555 1_555
C49_3 C51_3 1_555 1_555
C50_3 C52_3 1_555 1_555
C57_3 C59_3 1_555 1_555
C38_3 H26_3 1_555 1_555
C42_3 C38_3 1_555 1_555
C45_3 C42_3 1_555 1_555
H30_3 C42_3 1_555 1_555
C38_3 N8_2 1_555 1_555
W1_5 S1_4 1_555 1_555
Cu2_4 S1_4 1_555 1_555
I1_4 Cu2_4 1_555 1_555
H5_4 C5_4 1_555 1_555
N9_2 Cu4_2 1_555 1_555
N9_2 C3_3 1_555 1_555
C3_3 H3_3 1_555 1_555
C4_3 N9_2 1_555 1_555
C9_3 C3_3 1_555 1_555
C10_3 C4_3 1_555 1_555
H4_3 C4_3 1_555 1_555
H9_3 C9_3 1_555 1_555
C14_3 C9_3 1_555 1_555
H10_3 C10_3 1_555 1_555
C17_3 C14_3 1_555 1_555
C22_3 C17_3 1_555 1_555
C28_3 C22_3 1_555 1_555
H16_3 C28_3 1_555 1_555
C34_3 C28_3 1_555 1_555
H22_3 C34_3 1_555 1_555
C67_3 C22_3 1_555 1_555
C69_3 C67_3 1_555 1_555
C71_3 C34_3 1_555 1_555
H45_3 C69_3 1_555 1_555
H47_3 C71_3 1_555 1_555
C10_3 C14_3 1_555 1_555
C69_3 C71_3 1_555 1_555
H25_4 C37_4 1_555 1_555
C38_4 H26_4 1_555 1_555
C42_4 C38_4 1_555 1_555
C45_4 C42_4 1_555 1_555
H30_4 C42_4 1_555 1_555
C38_4 N5_2 1_555 1_555
H20_4 C32_4 1_555 1_555
H24_4 C36_4 1_555 1_555
C40_4 N4_4 1_555 1_555
C44_4 C40_4 1_555 1_555
H28_4 C40_4 1_555 1_555
H29_4 C41_4 1_555 1_555
H31_4 C43_4 1_555 1_555
C46_4 C43_4 1_555 1_555
H32_4 C44_4 1_555 1_555
C48_4 C46_4 1_555 1_555
C49_4 C47_4 1_555 1_555
C50_4 C47_4 1_555 1_555
C51_4 C48_4 1_555 1_555
C52_4 C48_4 1_555 1_555
C53_4 C49_4 1_555 1_555
C54_4 C50_4 1_555 1_555
C55_4 C51_4 1_555 1_555
C56_4 C52_4 1_555 1_555
C57_4 C53_4 1_555 1_555
H33_4 C53_4 1_555 1_555
H35_4 C55_4 1_555 1_555
C59_4 C55_4 1_555 1_555
H36_4 C56_4 1_555 1_555
H37_4 C57_4 1_555 1_555
H39_4 C59_4 1_555 1_555
C32_4 C36_4 1_555 1_555
C44_4 C46_4 1_555 1_555
C49_4 C51_4 1_555 1_555
C50_4 C52_4 1_555 1_555
C57_4 C59_4 1_555 1_555
C2_4 N7_2 1_555 1_555
C6_4 N3_4 1_555 1_555
C7_4 C13_4 1_555 1_555
H2_4 C2_4 1_555 1_555
C8_4 C2_4 1_555 1_555
C12_4 C6_4 1_555 1_555
H6_4 C6_4 1_555 1_555
C13_4 C8_4 1_555 1_555
H7_4 C7_4 1_555 1_555
H8_4 C8_4 1_555 1_555
H11_4 C11_4 1_555 1_555
C15_4 C11_4 1_555 1_555
H12_4 C12_4 1_555 1_555
C16_4 C13_4 1_555 1_555
C18_4 C15_4 1_555 1_555
C19_4 C16_4 1_555 1_555
C20_4 C16_4 1_555 1_555
C23_4 C18_4 1_555 1_555
C24_4 C18_4 1_555 1_555
C25_4 C19_4 1_555 1_555
C26_4 C20_4 1_555 1_555
C29_4 C23_4 1_555 1_555
C30_4 C24_4 1_555 1_555
C31_4 C25_4 1_555 1_555
H13_4 C25_4 1_555 1_555
H14_4 C26_4 1_555 1_555
H17_4 C29_4 1_555 1_555
C35_4 C29_4 1_555 1_555
H18_4 C30_4 1_555 1_555
H19_4 C31_4 1_555 1_555
H23_4 C35_4 1_555 1_555
H38_4 C58_4 1_555 1_555
H40_4 C60_4 1_555 1_555
C12_4 C15_4 1_555 1_555
C19_4 C23_4 1_555 1_555
C20_4 C24_4 1_555 1_555
C31_4 C35_4 1_555 1_555
C58_4 C60_4 1_555 1_555
Cu1_2 N2_2 1_555 1_555
N2_2 C3_4 1_555 1_555
C3_4 H3_4 1_555 1_555
C4_4 N2_2 1_555 1_555
C9_4 C3_4 1_555 1_555
C10_4 C4_4 1_555 1_555
H4_4 C4_4 1_555 1_555
H9_4 C9_4 1_555 1_555
C14_4 C9_4 1_555 1_555
H10_4 C10_4 1_555 1_555
C17_4 C14_4 1_555 1_555
C21_3 C17_4 1_555 1_555
C22_4 C17_4 1_555 1_555
C27_3 C21_3 1_555 1_555
C28_4 C22_4 1_555 1_555
C33_3 C27_3 1_555 1_555
H15_3 C27_3 1_555 1_555
H16_4 C28_4 1_555 1_555
C34_4 C28_4 1_555 1_555
H21_3 C33_3 1_555 1_555
H22_4 C34_4 1_555 1_555
S3_4 W1_6 1_555 1_555
Cu3_4 S3_4 1_555 1_555
I2_4 Cu3_4 1_555 1_555
H27_4 C39_4 1_555 1_555
H43_3 C63_3 1_555 1_555
C65_3 C63_3 1_555 1_555
C66_3 C65_3 1_555 1_555
C67_4 C22_4 1_555 1_555
C68_3 C21_3 1_555 1_555
C69_4 C67_4 1_555 1_555
C71_4 C34_4 1_555 1_555
H45_4 C69_4 1_555 1_555
H47_4 C71_4 1_555 1_555
C10_4 C14_4 1_555 1_555
C66_3 C67_4 1_555 1_555
C66_3 C68_3 1_555 1_555
C69_4 C71_4 1_555 1_555
H1_4 C1_4 1_555 1_555
C27_4 C21_4 1_555 1_555
C33_4 C27_4 1_555 1_555
H15_4 C27_4 1_555 1_555
H21_4 C33_4 1_555 1_555
H43_4 C63_4 1_555 1_555
C65_4 C63_4 1_555 1_555
C66_4 C65_4 1_555 1_555
C68_4 C21_4 1_555 1_555
C66_4 C68_4 1_555 1_555

#END
