
###############################################################################
#
# This file contains modified crystal structure data generated from the
# MOF subset of the Cambridge Structural Database (CSD) v543 
# hosted by the Cambridge Crystallographic Data Centre (CCDC).
#
# This work is licensed under the Creative Commons
# Attribution-NonCommercial-ShareAlike 4.0 International License.
# To view a copy of this license, visit
# http://creativecommons.org/licenses/by-nc-sa/4.0/
# or send a letter to
# Creative Commons, PO Box 1866, Mountain View, CA 94042, USA.
#
# CIF created using the CSD Python API on 29 September 2022
# The structure has been converted into the P1 space group
# The structure has a 3D framework
# The original CSD entry UCUJOU is in the monoclinic crystal system
# The framework has been calculated to contain at least 10.0% void space
# The void calculation uses a probe of radius 1.32A, grid spacing 0.4
#
###############################################################################

data_UCUJOU
_chemical_formula_moiety         '(C256 H144 Mo96 N48 O384 P8 Zn32)n'
_symmetry_cell_setting           triclinic
_symmetry_space_group_name_H-M   'P 1'
_symmetry_Int_Tables_number      1
_space_group_name_Hall           'P 1'
loop_
_symmetry_equiv_pos_site_id
_symmetry_equiv_pos_as_xyz
1 x,y,z
_cell_length_a                   54.438(2)
_cell_length_b                   14.5003(6)
_cell_length_c                   39.5817(17)
_cell_angle_alpha                90
_cell_angle_beta                 128.0100(10)
_cell_angle_gamma                90
_cell_volume                     24617.6
loop_
_atom_site_label
_atom_site_type_symbol
_atom_site_fract_x
_atom_site_fract_y
_atom_site_fract_z
N1 N 0.1200(4) 0.4055(11) 0.3628(5)
H1 H 0.1228 0.4297 0.3848
N2 N 0.1103(4) 0.3063(10) 0.3169(5)
C1 C 0.1148(4) 0.3869(12) 0.3071(5)
O40 O 0.1146(4) 0.3449(11) 0.1464(5)
C2 C 0.1262(4) 0.2429(13) 0.4176(6)
H2 H 0.1391 0.2925 0.4337
N3 N 0.1230(4) 0.4517(11) 0.3362(5)
C3 C 0.1159(4) 0.4006(13) 0.2720(5)
C4 C 0.1124(5) 0.3206(16) 0.2472(6)
H3 H 0.1091 0.2629 0.2541
C5 C 0.1123(5) 0.3179(12) 0.3512(6)
C6 C 0.1090(4) 0.2441(12) 0.3727(5)
C18 C 0.1233(5) 0.4902(14) 0.2267(5)
H9 H 0.1271 0.5472 0.2200
C19 C 0.1217(6) 0.4839(16) 0.2604(6)
H10 H 0.1245 0.5370 0.2756
C20 C 0.1139(5) 0.3281(15) 0.2147(6)
H11 H 0.1113 0.2757 0.1992
C21 C 0.1064(4) 0.0905(12) 0.4129(6)
C23 C 0.1063(5) 0.0081(15) 0.4339(9)
C28 C 0.1244(5) 0.1680(12) 0.4385(7)
H16 H 0.1345 0.1690 0.4678
C29 C 0.0915(5) 0.1672(15) 0.3508(6)
H17 H 0.0802 0.1673 0.3212
C30 C 0.1195(6) 0.4147(17) 0.2034(7)
O48 O 0.1298(4) 0.4920(12) 0.1624(5)
C31 C 0.1224(4) 0.4178(13) 0.1704(6)
C32 C 0.0893(6) 0.094(2) 0.3679(8)
H18 H 0.0767 0.0453 0.3508
Zn6 Zn 0.12291(6) 0.34287(15) 0.10630(8)
Mo1 Mo 0.67362(3) 0.98442(9) 0.48721(4)
Mo6 Mo 0.66897(3) 0.87641(9) 0.55285(5)
Mo12 Mo 0.60814(4) 0.93515(11) 0.55294(7)
Zn3 Zn 0.59930(4) 0.94710(14) 0.45615(7)
O7 O 0.6439(2) 0.9166(7) 0.4928(3)
O9 O 0.6965(2) 0.9624(7) 0.5496(3)
O14 O 0.6869(3) 0.8944(10) 0.4741(4)
O15 O 0.5862(2) 0.9636(7) 0.4925(4)
O16 O 0.6930(3) 0.8985(8) 0.6098(4)
O17 O 0.6817(3) 0.7727(9) 0.5495(5)
O23 O 0.6329(3) 0.8509(7) 0.5447(4)
O30 O 0.5862(4) 0.8607(10) 0.5551(7)
O35 O 0.6469(4) 0.9379(10) 0.6177(5)
O42 O 0.7096(4) 0.9602(12) 0.6901(5)
N4 N 0.9285(3) 0.9186(10) 0.7722(5)
C7 C 0.9592(3) 0.9272(11) 0.8014(5)
C8 C 0.9810(3) 0.8498(12) 0.8222(5)
C10 C 0.9883(4) 0.6838(13) 0.8369(6)
H5 H 0.9803 0.6246 0.8329
C11 C 0.9695(4) 0.7579(13) 0.8156(6)
H6 H 0.9481 0.7483 0.7958
C17 C 0.8327(4) 0.9785(14) 0.6855(8)
H8 H 0.8187 0.9303 0.6703
C24 C 0.8646(4) 0.9618(12) 0.7098(7)
H14 H 0.8719 0.9064 0.7072
O49 O 0.5700(3) 0.8611(10) 0.4122(6)
Mo2 Mo 0.19348(3) 0.28714(10) 0.00748(4)
Mo3 Mo 0.15235(4) 0.14868(9) 0.09034(4)
Mo5 Mo 0.08280(3) 0.20638(9) 0.01381(5)
Mo6_2 Mo 0.16897(3) 0.62359(9) 0.05285(5)
Mo8 Mo 0.20620(3) 0.20406(9) 0.07507(4)
Mo9 Mo 0.18709(4) 0.49952(11) 0.13855(5)
Mo10 Mo 0.20280(4) 0.32603(11) 0.15120(4)
Mo11 Mo 0.06708(4) 0.43812(11) 0.00306(6)
Mo12_2 Mo 0.10814(4) 0.56485(11) 0.05294(7)
Zn2 Zn 0.22567(4) 0.44901(13) 0.09381(6)
P1 P 0.14461(8) 0.3756(2) 0.03615(11)
O1 O 0.1657(2) 0.3006(6) 0.0701(3)
O2 O 0.1529(2) 0.3829(6) 0.0048(3)
O3 O 0.2140(3) 0.4299(7) 0.1315(3)
O4 O 0.1097(2) 0.3469(6) 0.0094(3)
O5 O 0.1493(2) 0.4689(7) 0.0581(3)
O6 O 0.2174(2) 0.3252(7) 0.0674(3)
O9_2 O 0.1965(2) 0.5376(7) 0.0496(3)
O10 O 0.1200(2) 0.1472(7) 0.0269(3)
O11 O 0.1722(2) 0.1883(7) 0.0140(3)
O13 O 0.1787(4) 0.2106(8) 0.1407(4)
O16_2 O 0.1930(3) 0.6015(8) 0.1098(4)
O17_2 O 0.1817(3) 0.7273(9) 0.0495(5)
O20 O 0.2692(3) 0.4770(10) 0.1276(4)
O21 O 0.1664(4) 0.3885(8) 0.1376(4)
O23_2 O 0.1329(3) 0.6491(7) 0.0447(4)
O25 O 0.1176(3) 0.2277(9) 0.0765(3)
O26 O 0.1799(2) 0.1175(7) 0.0822(4)
O28 O 0.2274(2) 0.2491(7) 0.1368(3)
O29 O 0.0644(3) 0.1174(8) 0.0161(4)
O30_2 O 0.0862(4) 0.6393(10) 0.0551(7)
O31 O 0.0996(3) 0.4446(9) 0.0651(4)
O33 O 0.0622(3) 0.3094(8) 0.0138(5)
O35_2 O 0.1469(4) 0.5621(10) 0.1177(5)
O37 O 0.2353(3) 0.1334(8) 0.0867(4)
O38 O 0.2183(3) 0.2381(10) 0.0017(5)
O39 O 0.1455(4) 0.0475(8) 0.1042(4)
O42_2 O 0.2096(4) 0.5398(12) 0.1901(5)
O43 O 0.2782(3) 0.3430(11) 0.1605(5)
N4_2 N 0.4285(3) 0.5814(10) 0.2722(5)
O45 O 0.5313(3) 0.9512(11) 0.3899(6)
C7_2 C 0.4592(3) 0.5728(11) 0.3014(5)
C8_2 C 0.4810(3) 0.6502(12) 0.3222(5)
C9 C 0.5327(4) 0.7129(12) 0.3708(6)
H4 H 0.5542 0.7056 0.3874
C10_2 C 0.4883(4) 0.8162(13) 0.3369(6)
H5_2 H 0.4803 0.8754 0.3329
C11_2 C 0.4695(4) 0.7421(13) 0.3156(6)
H6_2 H 0.4481 0.7517 0.2958
C12 C 0.5210(3) 0.7982(12) 0.3656(5)
C13 C 0.5417(4) 0.8750(14) 0.3899(6)
C14 C 0.5138(3) 0.6358(14) 0.3523(6)
H7 H 0.5221 0.5767 0.3593
C15 C 0.4180(4) 0.4955(13) 0.2651(5)
O46 O 0.2291(4) 0.3245(11) 0.2060(4)
C16 C 0.3213(4) 0.4328(14) 0.1835(5)
C17_2 C 0.3327(4) 0.5215(14) 0.1855(8)
H8_2 H 0.3187 0.5697 0.1703
C22 C 0.3429(5) 0.3638(16) 0.2104(7)
H12 H 0.3366 0.3052 0.2117
N5 N 0.4665(3) 0.4827(10) 0.3078(5)
H13 H 0.4852 0.4611 0.3236
N6 N 0.4403(3) 0.4308(12) 0.2858(6)
C24_2 C 0.3646(4) 0.5382(12) 0.2098(7)
H14_2 H 0.3719 0.5936 0.2072
C25 C 0.3746(5) 0.3879(16) 0.2353(8)
H15 H 0.3896 0.3426 0.2518
C26 C 0.2873(4) 0.4176(15) 0.1573(7)
C27 C 0.3840(4) 0.4746(16) 0.2362(6)
Mo1_2 Mo 0.17362(3) 0.48442(9) 0.48721(4)
Mo2_2 Mo 0.19348(3) 0.71286(10) 0.50748(4)
Mo3_2 Mo 0.15235(4) 0.85132(9) 0.59034(4)
Mo4 Mo 0.07250(3) 0.68445(10) 0.42900(4)
Mo5_2 Mo 0.08280(3) 0.79362(9) 0.51381(5)
Mo6_3 Mo 0.16897(3) 0.37641(9) 0.55285(5)
Mo7 Mo 0.11758(3) 0.64848(10) 0.42458(4)
Mo8_2 Mo 0.20620(3) 0.79594(9) 0.57507(4)
Mo9_2 Mo 0.18709(4) 0.50048(11) 0.63855(5)
Mo10_2 Mo 0.20280(4) 0.67397(11) 0.65120(4)
Mo11_2 Mo 0.06708(4) 0.56188(11) 0.50306(6)
Zn1 Zn 0.12910(4) 0.86106(12) 0.48523(5)
Mo12_3 Mo 0.10814(4) 0.43515(11) 0.55294(7)
Zn2_2 Zn 0.22567(4) 0.55099(13) 0.59381(6)
Zn3_2 Zn 0.09930(4) 0.44710(14) 0.45615(7)
Zn4 Zn 0.12291(6) 0.65713(15) 0.60630(8)
P1_2 P 0.14461(8) 0.6244(2) 0.53615(11)
O1_2 O 0.1657(2) 0.6994(6) 0.5701(3)
O2_2 O 0.1529(2) 0.6171(6) 0.5048(3)
O3_2 O 0.2140(3) 0.5701(7) 0.6315(3)
O4_2 O 0.1097(2) 0.6531(6) 0.5094(3)
O5_2 O 0.1493(2) 0.5311(7) 0.5581(3)
O6_2 O 0.2174(2) 0.6748(7) 0.5674(3)
O7_2 O 0.1439(2) 0.4166(7) 0.4928(3)
O8 O 0.0908(2) 0.5701(8) 0.4296(4)
O9_3 O 0.1965(2) 0.4624(7) 0.5496(3)
O10_2 O 0.1200(2) 0.8528(7) 0.5269(3)
O11_2 O 0.1722(2) 0.8117(7) 0.5140(3)
O12 O 0.1085(2) 0.7549(7) 0.4450(3)
O13_2 O 0.1787(4) 0.7894(8) 0.6407(4)
O14_2 O 0.1869(3) 0.3944(10) 0.4741(4)
O15_2 O 0.0862(2) 0.4636(7) 0.4925(4)
O16_3 O 0.1930(3) 0.3985(8) 0.6098(4)
O17_3 O 0.1817(3) 0.2727(9) 0.5495(5)
O18 O 0.1587(3) 0.7053(8) 0.4487(3)
O19 O 0.2001(2) 0.5768(8) 0.4991(3)
O20_2 O 0.2692(3) 0.5230(10) 0.6276(4)
O21_2 O 0.1664(4) 0.6115(8) 0.6376(4)
O22 O 0.0475(2) 0.6014(8) 0.4405(4)
O23_3 O 0.1329(3) 0.3509(7) 0.5447(4)
O24 O 0.0667(2) 0.7851(7) 0.4589(4)
O25_2 O 0.1176(3) 0.7723(9) 0.5765(3)
O26_2 O 0.1799(2) 0.8825(7) 0.5822(4)
O27 O 0.0994(4) 0.6641(12) 0.3725(4)
O28_2 O 0.2274(2) 0.7509(7) 0.6368(3)
O29_2 O 0.0644(3) 0.8826(8) 0.5161(4)
O30_3 O 0.0862(4) 0.3607(10) 0.5551(7)
O31_2 O 0.0996(3) 0.5554(9) 0.5651(4)
O32 O 0.5700(3) 0.1389(10) 0.9122(6)
O33_2 O 0.0622(3) 0.6906(8) 0.5138(5)
O34 O 0.1403(3) 0.5285(9) 0.4353(4)
O35_3 O 0.1469(4) 0.4379(10) 0.6177(5)
O36 O 0.0354(4) 0.5155(11) 0.4924(7)
O37_2 O 0.2353(3) 0.8666(8) 0.5867(4)
O38_2 O 0.2183(3) 0.7619(10) 0.5017(5)
O39_2 O 0.1455(4) 0.9525(8) 0.6042(4)
O41 O 0.0435(3) 0.7099(9) 0.3771(4)
O42_3 O 0.2096(4) 0.4602(12) 0.6901(5)
O43_2 O 0.2782(3) 0.6570(11) 0.6605(5)
O44 O 0.1310(4) 0.9841(8) 0.4699(5)
N4_3 N 0.4285(3) 0.4186(10) 0.7722(5)
O45_2 O 0.5313(3) 0.0488(11) 0.8899(6)
C7_3 C 0.4592(3) 0.4272(11) 0.8014(5)
C8_3 C 0.4810(3) 0.3498(12) 0.8222(5)
C9_2 C 0.5327(4) 0.2871(12) 0.8708(6)
H4_2 H 0.5542 0.2944 0.8874
C10_3 C 0.4883(4) 0.1838(13) 0.8369(6)
H5_3 H 0.4803 0.1246 0.8329
C11_3 C 0.4695(4) 0.2579(13) 0.8156(6)
H6_3 H 0.4481 0.2483 0.7958
C12_2 C 0.5210(3) 0.2018(12) 0.8656(5)
C13_2 C 0.5417(4) 0.1250(14) 0.8899(6)
C14_2 C 0.5138(3) 0.3642(14) 0.8523(6)
H7_2 H 0.5221 0.4233 0.8593
C15_2 C 0.4180(4) 0.5045(13) 0.7651(5)
O46_2 O 0.2291(4) 0.6755(11) 0.7060(4)
C16_2 C 0.3213(4) 0.5672(14) 0.6835(5)
C17_3 C 0.3327(4) 0.4785(14) 0.6855(8)
H8_3 H 0.3187 0.4303 0.6703
C22_2 C 0.3429(5) 0.6362(16) 0.7104(7)
H12_2 H 0.3366 0.6948 0.7117
N5_2 N 0.4665(3) 0.5173(10) 0.8078(5)
H13_2 H 0.4852 0.5389 0.8236
N6_2 N 0.4403(3) 0.5692(12) 0.7858(6)
C24_3 C 0.3646(4) 0.4618(12) 0.7098(7)
H14_3 H 0.3719 0.4064 0.7072
C25_2 C 0.3746(5) 0.6121(16) 0.7353(8)
H15_2 H 0.3896 0.6574 0.7518
C26_2 C 0.2873(4) 0.5824(15) 0.6573(7)
C27_2 C 0.3840(4) 0.5254(16) 0.7362(6)
O47 O 0.0836(4) 0.9564(13) 0.4170(8)
Zn5 Zn 0.59930(4) 0.05290(14) 0.95615(7)
O49_2 O 0.0700(3) 0.3611(10) 0.4122(6)
O50 O 0.1146(4) 0.6551(11) 0.6464(5)
N1_2 N 0.1200(4) 0.5945(11) 0.8628(5)
H1_2 H 0.1228 0.5703 0.8848
N2_2 N 0.1103(4) 0.6937(10) 0.8169(5)
C1_2 C 0.1148(4) 0.6131(12) 0.8071(5)
C2_2 C 0.1262(4) 0.7571(13) 0.9176(6)
H2_2 H 0.1391 0.7075 0.9337
N3_2 N 0.1230(4) 0.5483(11) 0.8362(5)
C3_2 C 0.1159(4) 0.5994(13) 0.7720(5)
C4_2 C 0.1124(5) 0.6794(16) 0.7472(6)
H3_2 H 0.1091 0.7371 0.7541
C5_2 C 0.1123(5) 0.6821(12) 0.8512(6)
C6_2 C 0.1090(4) 0.7559(12) 0.8727(5)
C18_2 C 0.1233(5) 0.5098(14) 0.7267(5)
H9_2 H 0.1271 0.4528 0.7200
C19_2 C 0.1217(6) 0.5161(16) 0.7604(6)
H10_2 H 0.1245 0.4630 0.7756
C20_2 C 0.1139(5) 0.6719(15) 0.7147(6)
H11_2 H 0.1113 0.7243 0.6992
C21_2 C 0.1064(4) 0.9095(12) 0.9129(6)
C23_2 C 0.1063(5) 0.9919(15) 0.9339(9)
C28_2 C 0.1244(5) 0.8320(12) 0.9385(7)
H16_2 H 0.1345 0.8310 0.9678
C29_2 C 0.0915(5) 0.8328(15) 0.8508(6)
H17_2 H 0.0802 0.8327 0.8212
C30_2 C 0.1195(6) 0.5853(17) 0.7034(7)
O48_2 O 0.1298(4) 0.5080(12) 0.6624(5)
C31_2 C 0.1224(4) 0.5822(13) 0.6704(6)
C32_2 C 0.0893(6) 0.906(2) 0.8679(8)
H18_2 H 0.0767 0.9547 0.8508
O45_3 O 0.0313(3) 0.4512(11) 0.3899(6)
C9_3 C 0.0327(4) 0.2129(12) 0.3708(6)
H4_3 H 0.0542 0.2056 0.3874
C12_3 C 0.0210(3) 0.2982(12) 0.3656(5)
C13_3 C 0.0417(4) 0.3750(14) 0.3899(6)
C14_3 C 0.0138(3) 0.1358(14) 0.3523(6)
H7_3 H 0.0221 0.0767 0.3593
Mo1_3 Mo 0.67362(3) 0.01558(9) 0.98721(4)
O7_3 O 0.6439(2) 0.0834(7) 0.9928(3)
O14_3 O 0.6869(3) 0.1056(10) 0.9741(4)
O15_3 O 0.5862(2) 0.0364(7) 0.9925(4)
N1_3 N 0.8800(4) 0.4055(11) 0.1372(5)
H1_3 H 0.8772 0.4297 0.1152
N2_3 N 0.8897(4) 0.3063(10) 0.1831(5)
C1_3 C 0.8852(4) 0.3869(12) 0.1929(5)
O40_2 O 0.8854(4) 0.3449(11) 0.3536(5)
C2_3 C 0.8738(4) 0.2429(13) 0.0824(6)
H2_3 H 0.8609 0.2925 0.0663
N3_3 N 0.8770(4) 0.4517(11) 0.1638(5)
C3_3 C 0.8841(4) 0.4006(13) 0.2280(5)
C4_3 C 0.8876(5) 0.3206(16) 0.2528(6)
H3_3 H 0.8909 0.2629 0.2459
C5_3 C 0.8877(5) 0.3179(12) 0.1488(6)
C6_3 C 0.8910(4) 0.2441(12) 0.1273(5)
C18_3 C 0.8767(5) 0.4902(14) 0.2733(5)
H9_3 H 0.8729 0.5472 0.2800
C19_3 C 0.8783(6) 0.4839(16) 0.2396(6)
H10_3 H 0.8755 0.5370 0.2244
C20_3 C 0.8861(5) 0.3281(15) 0.2853(6)
H11_3 H 0.8887 0.2757 0.3008
C21_3 C 0.8936(4) 0.0905(12) 0.0871(6)
C23_3 C 0.8937(5) 0.0081(15) 0.0661(9)
C28_3 C 0.8756(5) 0.1680(12) 0.0615(7)
H16_3 H 0.8655 0.1690 0.0322
C29_3 C 0.9085(5) 0.1672(15) 0.1492(6)
H17_3 H 0.9198 0.1673 0.1788
C30_3 C 0.8805(6) 0.4147(17) 0.2966(7)
O48_3 O 0.8702(4) 0.4920(12) 0.3376(5)
C31_3 C 0.8776(4) 0.4178(13) 0.3296(6)
C32_3 C 0.9107(6) 0.094(2) 0.1321(8)
H18_3 H 0.9233 0.0453 0.1492
Zn6_2 Zn 0.87709(6) 0.34287(15) 0.39370(8)
Mo1_4 Mo 0.32638(3) 0.98442(9) 0.01279(4)
Zn3_3 Zn 0.40070(4) 0.94710(14) 0.04385(7)
O7_4 O 0.3561(2) 0.9166(7) 0.0072(3)
O14_4 O 0.3131(3) 0.8944(10) 0.0259(4)
O15_4 O 0.4138(2) 0.9636(7) 0.0075(4)
O49_3 O 0.4300(3) 0.8611(10) 0.0878(6)
O32_2 O 0.9300(3) 0.6389(10) 0.5878(6)
O45_4 O 0.9687(3) 0.5488(11) 0.6101(6)
C9_4 C 0.9673(4) 0.7871(12) 0.6292(6)
H4_4 H 0.9458 0.7944 0.6126
C12_4 C 0.9790(3) 0.7018(12) 0.6344(5)
C13_4 C 0.9583(4) 0.6250(14) 0.6101(6)
C14_4 C 0.9862(3) 0.8642(14) 0.6477(6)
H7_4 H 0.9779 0.9233 0.6407
Zn5_2 Zn 0.90070(4) 0.55290(14) 0.54385(7)
Mo1_5 Mo 0.82638(3) 0.51558(9) 0.51279(4)
Mo2_3 Mo 0.80652(3) 0.28714(10) 0.49252(4)
Mo3_3 Mo 0.84765(4) 0.14868(9) 0.40966(4)
Mo4_2 Mo 0.92750(3) 0.31555(10) 0.57100(4)
Mo5_3 Mo 0.91720(3) 0.20638(9) 0.48619(5)
Mo6_4 Mo 0.83103(3) 0.62359(9) 0.44715(5)
Mo7_2 Mo 0.88242(3) 0.35152(10) 0.57542(4)
Mo8_3 Mo 0.79380(3) 0.20406(9) 0.42493(4)
Mo9_3 Mo 0.81291(4) 0.49952(11) 0.36145(5)
Mo10_3 Mo 0.79720(4) 0.32603(11) 0.34880(4)
Mo11_3 Mo 0.93292(4) 0.43812(11) 0.49694(6)
Zn1_2 Zn 0.87090(4) 0.13894(12) 0.51477(5)
Mo12_4 Mo 0.89186(4) 0.56485(11) 0.44706(7)
Zn2_3 Zn 0.77433(4) 0.44901(13) 0.40619(6)
P1_3 P 0.85539(8) 0.3756(2) 0.46385(11)
O1_3 O 0.8343(2) 0.3006(6) 0.4299(3)
O2_3 O 0.8471(2) 0.3829(6) 0.4952(3)
O3_3 O 0.7860(3) 0.4299(7) 0.3685(3)
O4_3 O 0.8903(2) 0.3469(6) 0.4906(3)
O5_3 O 0.8507(2) 0.4689(7) 0.4419(3)
O6_3 O 0.7826(2) 0.3252(7) 0.4326(3)
O7_5 O 0.8561(2) 0.5834(7) 0.5072(3)
O8_2 O 0.9092(2) 0.4299(8) 0.5704(4)
O9_4 O 0.8035(2) 0.5376(7) 0.4504(3)
O10_3 O 0.8800(2) 0.1472(7) 0.4731(3)
O11_3 O 0.8278(2) 0.1883(7) 0.4860(3)
O12_2 O 0.8915(2) 0.2451(7) 0.5550(3)
O13_3 O 0.8213(4) 0.2106(8) 0.3593(4)
O14_5 O 0.8131(3) 0.6056(10) 0.5259(4)
O15_5 O 0.9138(2) 0.5364(7) 0.5075(4)
O16_4 O 0.8070(3) 0.6015(8) 0.3902(4)
O17_4 O 0.8183(3) 0.7273(9) 0.4505(5)
O18_2 O 0.8413(3) 0.2947(8) 0.5513(3)
O19_2 O 0.7999(2) 0.4232(8) 0.5009(3)
O20_3 O 0.7308(3) 0.4770(10) 0.3724(4)
O21_3 O 0.8336(4) 0.3885(8) 0.3624(4)
O22_2 O 0.9525(2) 0.3986(8) 0.5595(4)
O23_4 O 0.8671(3) 0.6491(7) 0.4553(4)
O24_2 O 0.9333(2) 0.2149(7) 0.5411(4)
O25_3 O 0.8824(3) 0.2277(9) 0.4235(3)
O26_3 O 0.8201(2) 0.1175(7) 0.4178(4)
O27_2 O 0.9006(4) 0.3359(12) 0.6275(4)
O28_3 O 0.7726(2) 0.2491(7) 0.3632(3)
O29_3 O 0.9356(3) 0.1174(8) 0.4839(4)
O30_4 O 0.9138(4) 0.6393(10) 0.4449(7)
O31_3 O 0.9004(3) 0.4446(9) 0.4349(4)
O33_3 O 0.9378(3) 0.3094(8) 0.4862(5)
O34_2 O 0.8597(3) 0.4715(9) 0.5647(4)
O35_4 O 0.8531(4) 0.5621(10) 0.3823(5)
O36_2 O 0.9646(4) 0.4845(11) 0.5076(7)
O37_3 O 0.7647(3) 0.1334(8) 0.4133(4)
O38_3 O 0.7817(3) 0.2381(10) 0.4983(5)
O39_3 O 0.8545(4) 0.0475(8) 0.3958(4)
O41_2 O 0.9565(3) 0.2901(9) 0.6229(4)
O42_4 O 0.7904(4) 0.5398(12) 0.3099(5)
O43_3 O 0.7218(3) 0.3430(11) 0.3395(5)
O44_2 O 0.8690(4) 0.0159(8) 0.5301(5)
N4_4 N 0.5715(3) 0.5814(10) 0.2278(5)
O45_5 O 0.4687(3) 0.9512(11) 0.1101(6)
C7_4 C 0.5408(3) 0.5728(11) 0.1986(5)
C8_4 C 0.5190(3) 0.6502(12) 0.1778(5)
C9_5 C 0.4673(4) 0.7129(12) 0.1292(6)
H4_5 H 0.4458 0.7056 0.1126
C10_4 C 0.5117(4) 0.8162(13) 0.1631(6)
H5_4 H 0.5197 0.8754 0.1671
C11_4 C 0.5305(4) 0.7421(13) 0.1844(6)
H6_4 H 0.5519 0.7517 0.2042
C12_5 C 0.4790(3) 0.7982(12) 0.1344(5)
C13_5 C 0.4583(4) 0.8750(14) 0.1101(6)
C14_5 C 0.4862(3) 0.6358(14) 0.1477(6)
H7_5 H 0.4779 0.5767 0.1407
C15_3 C 0.5820(4) 0.4955(13) 0.2349(5)
O46_3 O 0.7709(4) 0.3245(11) 0.2940(4)
C16_3 C 0.6787(4) 0.4328(14) 0.3165(5)
C17_4 C 0.6673(4) 0.5215(14) 0.3145(8)
H8_4 H 0.6813 0.5697 0.3297
C22_3 C 0.6571(5) 0.3638(16) 0.2896(7)
H12_3 H 0.6634 0.3052 0.2883
N5_3 N 0.5335(3) 0.4827(10) 0.1922(5)
H13_3 H 0.5148 0.4611 0.1764
N6_3 N 0.5597(3) 0.4308(12) 0.2142(6)
C24_4 C 0.6354(4) 0.5382(12) 0.2902(7)
H14_4 H 0.6281 0.5936 0.2928
C25_3 C 0.6254(5) 0.3879(16) 0.2647(8)
H15_3 H 0.6104 0.3426 0.2482
C26_3 C 0.7127(4) 0.4176(15) 0.3427(7)
C27_3 C 0.6160(4) 0.4746(16) 0.2638(6)
O47_2 O 0.9164(4) 0.0436(13) 0.5830(8)
Mo1_6 Mo 0.82638(3) 0.48442(9) 0.01279(4)
Mo4_3 Mo 0.92750(3) 0.68445(10) 0.07100(4)
Mo7_3 Mo 0.88242(3) 0.64848(10) 0.07542(4)
Zn1_3 Zn 0.87090(4) 0.86106(12) 0.01477(5)
Zn3_4 Zn 0.90070(4) 0.44710(14) 0.04385(7)
O7_6 O 0.8561(2) 0.4166(7) 0.0072(3)
O8_3 O 0.9092(2) 0.5701(8) 0.0704(4)
O12_3 O 0.8915(2) 0.7549(7) 0.0550(3)
O14_6 O 0.8131(3) 0.3944(10) 0.0259(4)
O15_6 O 0.9138(2) 0.4636(7) 0.0075(4)
O18_3 O 0.8413(3) 0.7053(8) 0.0513(3)
O19_3 O 0.7999(2) 0.5768(8) 0.0009(3)
O22_3 O 0.9525(2) 0.6014(8) 0.0595(4)
O24_3 O 0.9333(2) 0.7851(7) 0.0411(4)
O27_3 O 0.9006(4) 0.6641(12) 0.1275(4)
O34_3 O 0.8597(3) 0.5285(9) 0.0647(4)
O36_3 O 0.9646(4) 0.5155(11) 0.0076(7)
O41_3 O 0.9565(3) 0.7099(9) 0.1229(4)
O44_3 O 0.8690(4) 0.9841(8) 0.0301(5)
O47_3 O 0.9164(4) 0.9564(13) 0.0830(8)
O49_4 O 0.9300(3) 0.3611(10) 0.0878(6)
O45_6 O 0.9687(3) 0.4512(11) 0.1101(6)
C9_6 C 0.9673(4) 0.2129(12) 0.1292(6)
H4_6 H 0.9458 0.2056 0.1126
C12_6 C 0.9790(3) 0.2982(12) 0.1344(5)
C13_6 C 0.9583(4) 0.3750(14) 0.1101(6)
C14_6 C 0.9862(3) 0.1358(14) 0.1477(6)
H7_6 H 0.9779 0.0767 0.1407
Mo2_4 Mo 0.80652(3) 0.71286(10) 0.99252(4)
Mo3_4 Mo 0.84765(4) 0.85132(9) 0.90966(4)
Mo5_4 Mo 0.91720(3) 0.79362(9) 0.98619(5)
Mo6_5 Mo 0.83103(3) 0.37641(9) 0.94715(5)
Mo8_4 Mo 0.79380(3) 0.79594(9) 0.92493(4)
Mo9_4 Mo 0.81291(4) 0.50048(11) 0.86145(5)
Mo10_4 Mo 0.79720(4) 0.67397(11) 0.84880(4)
Mo11_4 Mo 0.93292(4) 0.56188(11) 0.99694(6)
Mo12_5 Mo 0.89186(4) 0.43515(11) 0.94706(7)
Zn2_4 Zn 0.77433(4) 0.55099(13) 0.90619(6)
Zn4_2 Zn 0.87709(6) 0.65713(15) 0.89370(8)
P1_4 P 0.85539(8) 0.6244(2) 0.96385(11)
O1_4 O 0.8343(2) 0.6994(6) 0.9299(3)
O2_4 O 0.8471(2) 0.6171(6) 0.9952(3)
O3_4 O 0.7860(3) 0.5701(7) 0.8685(3)
O4_4 O 0.8903(2) 0.6531(6) 0.9906(3)
O5_4 O 0.8507(2) 0.5311(7) 0.9419(3)
O6_4 O 0.7826(2) 0.6748(7) 0.9326(3)
O9_5 O 0.8035(2) 0.4624(7) 0.9504(3)
O10_4 O 0.8800(2) 0.8528(7) 0.9731(3)
O11_4 O 0.8278(2) 0.8117(7) 0.9860(3)
O13_4 O 0.8213(4) 0.7894(8) 0.8593(4)
O16_5 O 0.8070(3) 0.3985(8) 0.8902(4)
O17_5 O 0.8183(3) 0.2727(9) 0.9505(5)
O20_4 O 0.7308(3) 0.5230(10) 0.8724(4)
O21_4 O 0.8336(4) 0.6115(8) 0.8624(4)
O23_5 O 0.8671(3) 0.3509(7) 0.9553(4)
O25_4 O 0.8824(3) 0.7723(9) 0.9235(3)
O26_4 O 0.8201(2) 0.8825(7) 0.9178(4)
O28_4 O 0.7726(2) 0.7509(7) 0.8632(3)
O29_4 O 0.9356(3) 0.8826(8) 0.9839(4)
O30_5 O 0.9138(4) 0.3607(10) 0.9449(7)
O31_4 O 0.9004(3) 0.5554(9) 0.9349(4)
O32_3 O 0.4300(3) 0.1389(10) 0.5878(6)
O33_4 O 0.9378(3) 0.6906(8) 0.9862(5)
O35_5 O 0.8531(4) 0.4379(10) 0.8823(5)
O37_4 O 0.7647(3) 0.8666(8) 0.9133(4)
O38_4 O 0.7817(3) 0.7619(10) 0.9983(5)
O39_4 O 0.8545(4) 0.9525(8) 0.8958(4)
O42_5 O 0.7904(4) 0.4602(12) 0.8099(5)
O43_4 O 0.7218(3) 0.6570(11) 0.8395(5)
N4_5 N 0.5715(3) 0.4186(10) 0.7278(5)
O45_7 O 0.4687(3) 0.0488(11) 0.6101(6)
C7_5 C 0.5408(3) 0.4272(11) 0.6986(5)
C8_5 C 0.5190(3) 0.3498(12) 0.6778(5)
C9_7 C 0.4673(4) 0.2871(12) 0.6292(6)
H4_7 H 0.4458 0.2944 0.6126
C10_5 C 0.5117(4) 0.1838(13) 0.6631(6)
H5_5 H 0.5197 0.1246 0.6671
C11_5 C 0.5305(4) 0.2579(13) 0.6844(6)
H6_5 H 0.5519 0.2483 0.7042
C12_7 C 0.4790(3) 0.2018(12) 0.6344(5)
C13_7 C 0.4583(4) 0.1250(14) 0.6101(6)
C14_7 C 0.4862(3) 0.3642(14) 0.6477(6)
H7_7 H 0.4779 0.4233 0.6407
C15_4 C 0.5820(4) 0.5045(13) 0.7349(5)
O46_4 O 0.7709(4) 0.6755(11) 0.7940(4)
C16_4 C 0.6787(4) 0.5672(14) 0.8165(5)
C17_5 C 0.6673(4) 0.4785(14) 0.8145(8)
H8_5 H 0.6813 0.4303 0.8297
C22_4 C 0.6571(5) 0.6362(16) 0.7896(7)
H12_4 H 0.6634 0.6948 0.7883
N5_4 N 0.5335(3) 0.5173(10) 0.6922(5)
H13_4 H 0.5148 0.5389 0.6764
N6_4 N 0.5597(3) 0.5692(12) 0.7142(6)
C24_5 C 0.6354(4) 0.4618(12) 0.7902(7)
H14_5 H 0.6281 0.4064 0.7928
C25_4 C 0.6254(5) 0.6121(16) 0.7647(8)
H15_4 H 0.6104 0.6574 0.7482
C26_4 C 0.7127(4) 0.5824(15) 0.8427(7)
C27_4 C 0.6160(4) 0.5254(16) 0.7638(6)
Zn5_3 Zn 0.40070(4) 0.05290(14) 0.54385(7)
O50_2 O 0.8854(4) 0.6551(11) 0.8536(5)
N1_4 N 0.8800(4) 0.5945(11) 0.6372(5)
H1_4 H 0.8772 0.5703 0.6152
N2_4 N 0.8897(4) 0.6937(10) 0.6831(5)
C1_4 C 0.8852(4) 0.6131(12) 0.6929(5)
C2_4 C 0.8738(4) 0.7571(13) 0.5824(6)
H2_4 H 0.8609 0.7075 0.5663
N3_4 N 0.8770(4) 0.5483(11) 0.6638(5)
C3_4 C 0.8841(4) 0.5994(13) 0.7280(5)
C4_4 C 0.8876(5) 0.6794(16) 0.7528(6)
H3_4 H 0.8909 0.7371 0.7459
C5_4 C 0.8877(5) 0.6821(12) 0.6488(6)
C6_4 C 0.8910(4) 0.7559(12) 0.6273(5)
C18_4 C 0.8767(5) 0.5098(14) 0.7733(5)
H9_4 H 0.8729 0.4528 0.7800
C19_4 C 0.8783(6) 0.5161(16) 0.7396(6)
H10_4 H 0.8755 0.4630 0.7244
C20_4 C 0.8861(5) 0.6719(15) 0.7853(6)
H11_4 H 0.8887 0.7243 0.8008
C21_4 C 0.8936(4) 0.9095(12) 0.5871(6)
C23_4 C 0.8937(5) 0.9919(15) 0.5661(9)
C28_4 C 0.8756(5) 0.8320(12) 0.5615(7)
H16_4 H 0.8655 0.8310 0.5322
C29_4 C 0.9085(5) 0.8328(15) 0.6492(6)
H17_4 H 0.9198 0.8327 0.6788
C30_4 C 0.8805(6) 0.5853(17) 0.7966(7)
O48_4 O 0.8702(4) 0.5080(12) 0.8376(5)
C31_4 C 0.8776(4) 0.5822(13) 0.8296(6)
C32_4 C 0.9107(6) 0.906(2) 0.6321(8)
H18_4 H 0.9233 0.9547 0.6492
Mo1_7 Mo 0.32638(3) 0.01558(9) 0.51279(4)
Mo6_6 Mo 0.33103(3) 0.12359(9) 0.44715(5)
Mo12_6 Mo 0.39186(4) 0.06485(11) 0.44706(7)
O7_7 O 0.3561(2) 0.0834(7) 0.5072(3)
O9_6 O 0.3035(2) 0.0376(7) 0.4504(3)
O14_7 O 0.3131(3) 0.1056(10) 0.5259(4)
O15_7 O 0.4138(2) 0.0364(7) 0.5075(4)
O16_6 O 0.3070(3) 0.1015(8) 0.3902(4)
O17_6 O 0.3183(3) 0.2273(9) 0.4505(5)
O23_6 O 0.3671(3) 0.1491(7) 0.4553(4)
O30_6 O 0.4138(4) 0.1393(10) 0.4449(7)
O35_6 O 0.3531(4) 0.0621(10) 0.3823(5)
O42_6 O 0.2904(4) 0.0398(12) 0.3099(5)
N4_6 N 0.0715(3) 0.0814(10) 0.2278(5)
C7_6 C 0.0408(3) 0.0728(11) 0.1986(5)
C8_6 C 0.0190(3) 0.1502(12) 0.1778(5)
C10_6 C 0.0117(4) 0.3162(13) 0.1631(6)
H5_6 H 0.0197 0.3754 0.1671
C11_6 C 0.0305(4) 0.2421(13) 0.1844(6)
H6_6 H 0.0519 0.2517 0.2042
C17_6 C 0.1673(4) 0.0215(14) 0.3145(8)
H8_6 H 0.1813 0.0697 0.3297
C24_6 C 0.1354(4) 0.0382(12) 0.2902(7)
H14_6 H 0.1281 0.0936 0.2928
O32_4 O 0.0700(3) 0.6389(10) 0.9122(6)
O45_8 O 0.0313(3) 0.5488(11) 0.8899(6)
C9_8 C 0.0327(4) 0.7871(12) 0.8708(6)
H4_8 H 0.0542 0.7944 0.8874
C12_8 C 0.0210(3) 0.7018(12) 0.8656(5)
C13_8 C 0.0417(4) 0.6250(14) 0.8899(6)
C14_8 C 0.0138(3) 0.8642(14) 0.8523(6)
H7_8 H 0.0221 0.9233 0.8593
Zn5_4 Zn 0.09930(4) 0.55290(14) 0.95615(7)
Mo1_8 Mo 0.17362(3) 0.51558(9) 0.98721(4)
Mo4_4 Mo 0.07250(3) 0.31555(10) 0.92900(4)
Mo7_4 Mo 0.11758(3) 0.35152(10) 0.92458(4)
Zn1_4 Zn 0.12910(4) 0.13894(12) 0.98523(5)
O7_8 O 0.1439(2) 0.5834(7) 0.9928(3)
O8_4 O 0.0908(2) 0.4299(8) 0.9296(4)
O12_4 O 0.1085(2) 0.2451(7) 0.9450(3)
O14_8 O 0.1869(3) 0.6056(10) 0.9741(4)
O15_8 O 0.0862(2) 0.5364(7) 0.9925(4)
O18_4 O 0.1587(3) 0.2947(8) 0.9487(3)
O19_4 O 0.2001(2) 0.4232(8) 0.9991(3)
O22_4 O 0.0475(2) 0.3986(8) 0.9405(4)
O24_4 O 0.0667(2) 0.2149(7) 0.9589(4)
O27_4 O 0.0994(4) 0.3359(12) 0.8725(4)
O34_4 O 0.1403(3) 0.4715(9) 0.9353(4)
O36_4 O 0.0354(4) 0.4845(11) 0.9924(7)
O41_4 O 0.0435(3) 0.2901(9) 0.8771(4)
O44_4 O 0.1310(4) 0.0159(8) 0.9699(5)
O47_4 O 0.0836(4) 0.0436(13) 0.9170(8)
H9_5 H 0.6271 0.0472 0.2200
H10_5 H 0.6245 0.0370 0.2756
Mo2_5 Mo 0.69348(3) 0.21286(10) 0.50748(4)
Mo3_5 Mo 0.65235(4) 0.35132(9) 0.59034(4)
Mo4_5 Mo 0.57250(3) 0.18445(10) 0.42900(4)
Mo5_5 Mo 0.58280(3) 0.29362(9) 0.51381(5)
Mo7_5 Mo 0.61758(3) 0.14848(10) 0.42458(4)
Mo8_5 Mo 0.70620(3) 0.29594(9) 0.57507(4)
Mo9_5 Mo 0.68709(4) 0.00048(11) 0.63855(5)
Mo10_5 Mo 0.70280(4) 0.17397(11) 0.65120(4)
Mo11_5 Mo 0.56708(4) 0.06188(11) 0.50306(6)
Zn1_5 Zn 0.62910(4) 0.36106(12) 0.48523(5)
Zn2_5 Zn 0.72567(4) 0.05099(13) 0.59381(6)
Zn4_3 Zn 0.62291(6) 0.15713(15) 0.60630(8)
P1_5 P 0.64461(8) 0.1244(2) 0.53615(11)
O1_5 O 0.6657(2) 0.1994(6) 0.5701(3)
O2_5 O 0.6529(2) 0.1171(6) 0.5048(3)
O3_5 O 0.7140(3) 0.0701(7) 0.6315(3)
O4_5 O 0.6097(2) 0.1531(6) 0.5094(3)
O5_5 O 0.6493(2) 0.0311(7) 0.5581(3)
O6_5 O 0.7174(2) 0.1748(7) 0.5674(3)
O8_5 O 0.5908(2) 0.0701(8) 0.4296(4)
O10_5 O 0.6200(2) 0.3528(7) 0.5269(3)
O11_5 O 0.6722(2) 0.3117(7) 0.5140(3)
O12_5 O 0.6085(2) 0.2549(7) 0.4450(3)
O13_5 O 0.6787(4) 0.2894(8) 0.6407(4)
O18_5 O 0.6587(3) 0.2053(8) 0.4487(3)
O19_5 O 0.7001(2) 0.0768(8) 0.4991(3)
O20_5 O 0.7692(3) 0.0230(10) 0.6276(4)
O21_5 O 0.6664(4) 0.1115(8) 0.6376(4)
O22_5 O 0.5475(2) 0.1014(8) 0.4405(4)
O24_5 O 0.5667(2) 0.2851(7) 0.4589(4)
O25_5 O 0.6176(3) 0.2723(9) 0.5765(3)
O26_5 O 0.6799(2) 0.3825(7) 0.5822(4)
O27_5 O 0.5994(4) 0.1641(12) 0.3725(4)
O28_5 O 0.7274(2) 0.2509(7) 0.6368(3)
O29_5 O 0.5644(3) 0.3826(8) 0.5161(4)
O31_5 O 0.5996(3) 0.0554(9) 0.5651(4)
O33_5 O 0.5622(3) 0.1906(8) 0.5138(5)
O34_5 O 0.6403(3) 0.0285(9) 0.4353(4)
N1_5 N 0.6200(4) 0.9055(11) 0.3628(5)
H1_5 H 0.6228 0.9297 0.3848
O36_5 O 0.5354(4) 0.0155(11) 0.4924(7)
O37_5 O 0.7353(3) 0.3666(8) 0.5867(4)
O38_5 O 0.7183(3) 0.2619(10) 0.5017(5)
O39_5 O 0.6455(4) 0.4525(8) 0.6042(4)
N2_5 N 0.6103(4) 0.8063(10) 0.3169(5)
C1_5 C 0.6148(4) 0.8869(12) 0.3071(5)
O40_3 O 0.6146(4) 0.8449(11) 0.1464(5)
O41_5 O 0.5435(3) 0.2099(9) 0.3771(4)
O43_5 O 0.7782(3) 0.1570(11) 0.6605(5)
C2_5 C 0.6262(4) 0.7429(13) 0.4176(6)
H2_5 H 0.6391 0.7925 0.4337
O44_5 O 0.6310(4) 0.4841(8) 0.4699(5)
N3_5 N 0.6230(4) 0.9517(11) 0.3362(5)
C3_5 C 0.6159(4) 0.9006(13) 0.2720(5)
C4_5 C 0.6124(5) 0.8206(16) 0.2472(6)
H3_5 H 0.6091 0.7629 0.2541
C5_5 C 0.6123(5) 0.8179(12) 0.3512(6)
C6_5 C 0.6090(4) 0.7441(12) 0.3727(5)
C15_5 C 0.9180(4) 0.0045(13) 0.7651(5)
O46_5 O 0.7291(4) 0.1755(11) 0.7060(4)
C16_5 C 0.8213(4) 0.0672(14) 0.6835(5)
C18_5 C 0.6233(5) 0.9902(14) 0.2267(5)
C19_5 C 0.6217(6) 0.9839(16) 0.2604(6)
C20_5 C 0.6139(5) 0.8281(15) 0.2147(6)
H11_5 H 0.6113 0.7757 0.1992
C21_5 C 0.6064(4) 0.5905(12) 0.4129(6)
C22_5 C 0.8429(5) 0.1362(16) 0.7104(7)
H12_5 H 0.8366 0.1948 0.7117
C23_5 C 0.6063(5) 0.5081(15) 0.4339(9)
N5_5 N 0.9665(3) 0.0173(10) 0.8078(5)
H13_5 H 0.9852 0.0389 0.8236
N6_5 N 0.9403(3) 0.0692(12) 0.7858(6)
C25_5 C 0.8746(5) 0.1121(16) 0.7353(8)
H15_5 H 0.8896 0.1574 0.7518
C26_5 C 0.7873(4) 0.0824(15) 0.6573(7)
C27_5 C 0.8840(4) 0.0254(16) 0.7362(6)
C28_5 C 0.6244(5) 0.6680(12) 0.4385(7)
H16_5 H 0.6345 0.6690 0.4678
C29_5 C 0.5915(5) 0.6672(15) 0.3508(6)
H17_5 H 0.5802 0.6673 0.3212
O47_5 O 0.5836(4) 0.4564(13) 0.4170(8)
C30_5 C 0.6195(6) 0.9147(17) 0.2034(7)
O48_5 O 0.6298(4) 0.9920(12) 0.1624(5)
C31_5 C 0.6224(4) 0.9178(13) 0.1704(6)
C32_5 C 0.5893(6) 0.594(2) 0.3679(8)
H18_5 H 0.5767 0.5453 0.3508
Zn6_3 Zn 0.62291(6) 0.84287(15) 0.10630(8)
O50_3 O 0.6146(4) 0.1551(11) 0.6464(5)
Mo2_6 Mo 0.69348(3) 0.78714(10) 0.00748(4)
Mo3_6 Mo 0.65235(4) 0.64868(9) 0.09034(4)
Mo5_6 Mo 0.58280(3) 0.70638(9) 0.01381(5)
Mo8_6 Mo 0.70620(3) 0.70406(9) 0.07507(4)
Mo9_6 Mo 0.68709(4) 0.99952(11) 0.13855(5)
Mo10_6 Mo 0.70280(4) 0.82603(11) 0.15120(4)
Mo11_6 Mo 0.56708(4) 0.93812(11) 0.00306(6)
Zn2_6 Zn 0.72567(4) 0.94901(13) 0.09381(6)
P1_6 P 0.64461(8) 0.8756(2) 0.03615(11)
O1_6 O 0.6657(2) 0.8006(6) 0.0701(3)
O2_6 O 0.6529(2) 0.8829(6) 0.0048(3)
O3_6 O 0.7140(3) 0.9299(7) 0.1315(3)
O4_6 O 0.6097(2) 0.8469(6) 0.0094(3)
O5_6 O 0.6493(2) 0.9689(7) 0.0581(3)
O6_6 O 0.7174(2) 0.8252(7) 0.0674(3)
O10_6 O 0.6200(2) 0.6472(7) 0.0269(3)
O11_6 O 0.6722(2) 0.6883(7) 0.0140(3)
O13_6 O 0.6787(4) 0.7106(8) 0.1407(4)
O20_6 O 0.7692(3) 0.9770(10) 0.1276(4)
O21_6 O 0.6664(4) 0.8885(8) 0.1376(4)
O25_6 O 0.6176(3) 0.7277(9) 0.0765(3)
O26_6 O 0.6799(2) 0.6175(7) 0.0822(4)
O28_6 O 0.7274(2) 0.7491(7) 0.1368(3)
O29_6 O 0.5644(3) 0.6174(8) 0.0161(4)
O31_6 O 0.5996(3) 0.9446(9) 0.0651(4)
O33_6 O 0.5622(3) 0.8094(8) 0.0138(5)
O37_6 O 0.7353(3) 0.6334(8) 0.0867(4)
O38_6 O 0.7183(3) 0.7381(10) 0.0017(5)
O39_6 O 0.6455(4) 0.5475(8) 0.1042(4)
O43_6 O 0.7782(3) 0.8430(11) 0.1605(5)
C15_6 C 0.9180(4) 0.9955(13) 0.2651(5)
O46_6 O 0.7291(4) 0.8245(11) 0.2060(4)
C16_6 C 0.8213(4) 0.9328(14) 0.1835(5)
C22_6 C 0.8429(5) 0.8638(16) 0.2104(7)
H12_6 H 0.8366 0.8052 0.2117
N5_6 N 0.9665(3) 0.9827(10) 0.3078(5)
H13_6 H 0.9852 0.9611 0.3236
N6_6 N 0.9403(3) 0.9308(12) 0.2858(6)
C25_6 C 0.8746(5) 0.8879(16) 0.2353(8)
H15_6 H 0.8896 0.8426 0.2518
C26_6 C 0.7873(4) 0.9176(15) 0.1573(7)
C27_6 C 0.8840(4) 0.9746(16) 0.2362(6)
Mo4_6 Mo 0.57250(3) 0.81555(10) 0.92900(4)
Mo7_6 Mo 0.61758(3) 0.85152(10) 0.92458(4)
Zn1_6 Zn 0.62910(4) 0.63894(12) 0.98523(5)
O8_6 O 0.5908(2) 0.9299(8) 0.9296(4)
O12_6 O 0.6085(2) 0.7451(7) 0.9450(3)
O18_6 O 0.6587(3) 0.7947(8) 0.9487(3)
O19_6 O 0.7001(2) 0.9232(8) 0.9991(3)
O22_6 O 0.5475(2) 0.8986(8) 0.9405(4)
O24_6 O 0.5667(2) 0.7149(7) 0.9589(4)
O27_6 O 0.5994(4) 0.8359(12) 0.8725(4)
O34_6 O 0.6403(3) 0.9715(9) 0.9353(4)
N1_6 N 0.6200(4) 0.0945(11) 0.8628(5)
H1_6 H 0.6228 0.0703 0.8848
O36_6 O 0.5354(4) 0.9845(11) 0.9924(7)
N2_6 N 0.6103(4) 0.1937(10) 0.8169(5)
C1_6 C 0.6148(4) 0.1131(12) 0.8071(5)
O41_6 O 0.5435(3) 0.7901(9) 0.8771(4)
C2_6 C 0.6262(4) 0.2571(13) 0.9176(6)
H2_6 H 0.6391 0.2075 0.9337
O44_6 O 0.6310(4) 0.5159(8) 0.9699(5)
N3_6 N 0.6230(4) 0.0483(11) 0.8362(5)
C3_6 C 0.6159(4) 0.0994(13) 0.7720(5)
C4_6 C 0.6124(5) 0.1794(16) 0.7472(6)
H3_6 H 0.6091 0.2371 0.7541
C5_6 C 0.6123(5) 0.1821(12) 0.8512(6)
C6_6 C 0.6090(4) 0.2559(12) 0.8727(5)
C18_6 C 0.6233(5) 0.0098(14) 0.7267(5)
C19_6 C 0.6217(6) 0.0161(16) 0.7604(6)
C20_6 C 0.6139(5) 0.1719(15) 0.7147(6)
H11_6 H 0.6113 0.2243 0.6992
C21_6 C 0.6064(4) 0.4095(12) 0.9129(6)
C23_6 C 0.6063(5) 0.4919(15) 0.9339(9)
C28_6 C 0.6244(5) 0.3320(12) 0.9385(7)
H16_6 H 0.6345 0.3310 0.9678
C29_6 C 0.5915(5) 0.3328(15) 0.8508(6)
H17_6 H 0.5802 0.3327 0.8212
O47_6 O 0.5836(4) 0.5436(13) 0.9170(8)
C30_6 C 0.6195(6) 0.0853(17) 0.7034(7)
O48_6 O 0.6298(4) 0.0080(12) 0.6624(5)
C31_6 C 0.6224(4) 0.0822(13) 0.6704(6)
C32_6 C 0.5893(6) 0.406(2) 0.8679(8)
H18_6 H 0.5767 0.4547 0.8508
H9_6 H 0.3729 0.0472 0.2800
H10_6 H 0.3755 0.0370 0.2244
Mo4_7 Mo 0.42750(3) 0.18445(10) 0.07100(4)
Mo7_7 Mo 0.38242(3) 0.14848(10) 0.07542(4)
Zn1_7 Zn 0.37090(4) 0.36106(12) 0.01477(5)
O8_7 O 0.4092(2) 0.0701(8) 0.0704(4)
O12_7 O 0.3915(2) 0.2549(7) 0.0550(3)
O18_7 O 0.3413(3) 0.2053(8) 0.0513(3)
O19_7 O 0.2999(2) 0.0768(8) 0.0009(3)
O22_7 O 0.4525(2) 0.1014(8) 0.0595(4)
O24_7 O 0.4333(2) 0.2851(7) 0.0411(4)
O27_7 O 0.4006(4) 0.1641(12) 0.1275(4)
O34_7 O 0.3597(3) 0.0285(9) 0.0647(4)
N1_7 N 0.3800(4) 0.9055(11) 0.1372(5)
H1_7 H 0.3772 0.9297 0.1152
O36_7 O 0.4646(4) 0.0155(11) 0.0076(7)
N2_7 N 0.3897(4) 0.8063(10) 0.1831(5)
C1_7 C 0.3852(4) 0.8869(12) 0.1929(5)
O40_4 O 0.3854(4) 0.8449(11) 0.3536(5)
O41_7 O 0.4565(3) 0.2099(9) 0.1229(4)
C2_7 C 0.3738(4) 0.7429(13) 0.0824(6)
H2_7 H 0.3609 0.7925 0.0663
O44_7 O 0.3690(4) 0.4841(8) 0.0301(5)
N3_7 N 0.3770(4) 0.9517(11) 0.1638(5)
C3_7 C 0.3841(4) 0.9006(13) 0.2280(5)
C4_7 C 0.3876(5) 0.8206(16) 0.2528(6)
H3_7 H 0.3909 0.7629 0.2459
C5_7 C 0.3877(5) 0.8179(12) 0.1488(6)
C6_7 C 0.3910(4) 0.7441(12) 0.1273(5)
C18_7 C 0.3767(5) 0.9902(14) 0.2733(5)
C19_7 C 0.3783(6) 0.9839(16) 0.2396(6)
C20_7 C 0.3861(5) 0.8281(15) 0.2853(6)
H11_7 H 0.3887 0.7757 0.3008
C21_7 C 0.3936(4) 0.5905(12) 0.0871(6)
C23_7 C 0.3937(5) 0.5081(15) 0.0661(9)
C28_7 C 0.3756(5) 0.6680(12) 0.0615(7)
H16_7 H 0.3655 0.6690 0.0322
C29_7 C 0.4085(5) 0.6672(15) 0.1492(6)
H17_7 H 0.4198 0.6673 0.1788
O47_7 O 0.4164(4) 0.4564(13) 0.0830(8)
C30_7 C 0.3805(6) 0.9147(17) 0.2966(7)
O48_7 O 0.3702(4) 0.9920(12) 0.3376(5)
C31_7 C 0.3776(4) 0.9178(13) 0.3296(6)
C32_7 C 0.4107(6) 0.594(2) 0.1321(8)
H18_7 H 0.4233 0.5453 0.1492
Zn6_4 Zn 0.37709(6) 0.84287(15) 0.39370(8)
Mo2_7 Mo 0.30652(3) 0.21286(10) 0.99252(4)
Mo3_7 Mo 0.34765(4) 0.35132(9) 0.90966(4)
Mo5_7 Mo 0.41720(3) 0.29362(9) 0.98619(5)
Mo8_7 Mo 0.29380(3) 0.29594(9) 0.92493(4)
Mo9_7 Mo 0.31291(4) 0.00048(11) 0.86145(5)
Mo10_7 Mo 0.29720(4) 0.17397(11) 0.84880(4)
Mo11_7 Mo 0.43292(4) 0.06188(11) 0.99694(6)
Zn2_7 Zn 0.27433(4) 0.05099(13) 0.90619(6)
Zn4_4 Zn 0.37709(6) 0.15713(15) 0.89370(8)
P1_7 P 0.35539(8) 0.1244(2) 0.96385(11)
O1_7 O 0.3343(2) 0.1994(6) 0.9299(3)
O2_7 O 0.3471(2) 0.1171(6) 0.9952(3)
O3_7 O 0.2860(3) 0.0701(7) 0.8685(3)
O4_7 O 0.3903(2) 0.1531(6) 0.9906(3)
O5_7 O 0.3507(2) 0.0311(7) 0.9419(3)
O6_7 O 0.2826(2) 0.1748(7) 0.9326(3)
O10_7 O 0.3800(2) 0.3528(7) 0.9731(3)
O11_7 O 0.3278(2) 0.3117(7) 0.9860(3)
O13_7 O 0.3213(4) 0.2894(8) 0.8593(4)
O20_7 O 0.2308(3) 0.0230(10) 0.8724(4)
O21_7 O 0.3336(4) 0.1115(8) 0.8624(4)
O25_7 O 0.3824(3) 0.2723(9) 0.9235(3)
O26_7 O 0.3201(2) 0.3825(7) 0.9178(4)
O28_7 O 0.2726(2) 0.2509(7) 0.8632(3)
O29_7 O 0.4356(3) 0.3826(8) 0.9839(4)
O31_7 O 0.4004(3) 0.0554(9) 0.9349(4)
O33_7 O 0.4378(3) 0.1906(8) 0.9862(5)
O37_7 O 0.2647(3) 0.3666(8) 0.9133(4)
O38_7 O 0.2817(3) 0.2619(10) 0.9983(5)
O39_7 O 0.3545(4) 0.4525(8) 0.8958(4)
O43_7 O 0.2218(3) 0.1570(11) 0.8395(5)
C15_7 C 0.0820(4) 0.0045(13) 0.7349(5)
O46_7 O 0.2709(4) 0.1755(11) 0.7940(4)
C16_7 C 0.1787(4) 0.0672(14) 0.8165(5)
C22_7 C 0.1571(5) 0.1362(16) 0.7896(7)
H12_7 H 0.1634 0.1948 0.7883
N5_7 N 0.0335(3) 0.0173(10) 0.6922(5)
H13_7 H 0.0148 0.0389 0.6764
N6_7 N 0.0597(3) 0.0692(12) 0.7142(6)
C25_7 C 0.1254(5) 0.1121(16) 0.7647(8)
H15_7 H 0.1104 0.1574 0.7482
C26_7 C 0.2127(4) 0.0824(15) 0.8427(7)
C27_7 C 0.1160(4) 0.0254(16) 0.7638(6)
O50_4 O 0.3854(4) 0.1551(11) 0.8536(5)
Mo2_8 Mo 0.30652(3) 0.78714(10) 0.49252(4)
Mo3_8 Mo 0.34765(4) 0.64868(9) 0.40966(4)
Mo4_8 Mo 0.42750(3) 0.81555(10) 0.57100(4)
Mo5_8 Mo 0.41720(3) 0.70638(9) 0.48619(5)
Mo7_8 Mo 0.38242(3) 0.85152(10) 0.57542(4)
Mo8_8 Mo 0.29380(3) 0.70406(9) 0.42493(4)
Mo9_8 Mo 0.31291(4) 0.99952(11) 0.36145(5)
Mo10_8 Mo 0.29720(4) 0.82603(11) 0.34880(4)
Mo11_8 Mo 0.43292(4) 0.93812(11) 0.49694(6)
Zn1_8 Zn 0.37090(4) 0.63894(12) 0.51477(5)
Zn2_8 Zn 0.27433(4) 0.94901(13) 0.40619(6)
P1_8 P 0.35539(8) 0.8756(2) 0.46385(11)
O1_8 O 0.3343(2) 0.8006(6) 0.4299(3)
O2_8 O 0.3471(2) 0.8829(6) 0.4952(3)
O3_8 O 0.2860(3) 0.9299(7) 0.3685(3)
O4_8 O 0.3903(2) 0.8469(6) 0.4906(3)
O5_8 O 0.3507(2) 0.9689(7) 0.4419(3)
O6_8 O 0.2826(2) 0.8252(7) 0.4326(3)
O8_8 O 0.4092(2) 0.9299(8) 0.5704(4)
O10_8 O 0.3800(2) 0.6472(7) 0.4731(3)
O11_8 O 0.3278(2) 0.6883(7) 0.4860(3)
O12_8 O 0.3915(2) 0.7451(7) 0.5550(3)
O13_8 O 0.3213(4) 0.7106(8) 0.3593(4)
O18_8 O 0.3413(3) 0.7947(8) 0.5513(3)
O19_8 O 0.2999(2) 0.9232(8) 0.5009(3)
O20_8 O 0.2308(3) 0.9770(10) 0.3724(4)
O21_8 O 0.3336(4) 0.8885(8) 0.3624(4)
O22_8 O 0.4525(2) 0.8986(8) 0.5595(4)
O24_8 O 0.4333(2) 0.7149(7) 0.5411(4)
O25_8 O 0.3824(3) 0.7277(9) 0.4235(3)
O26_8 O 0.3201(2) 0.6175(7) 0.4178(4)
O27_8 O 0.4006(4) 0.8359(12) 0.6275(4)
O28_8 O 0.2726(2) 0.7491(7) 0.3632(3)
O29_8 O 0.4356(3) 0.6174(8) 0.4839(4)
O31_8 O 0.4004(3) 0.9446(9) 0.4349(4)
O33_8 O 0.4378(3) 0.8094(8) 0.4862(5)
O34_8 O 0.3597(3) 0.9715(9) 0.5647(4)
N1_8 N 0.3800(4) 0.0945(11) 0.6372(5)
H1_8 H 0.3772 0.0703 0.6152
O36_8 O 0.4646(4) 0.9845(11) 0.5076(7)
O37_8 O 0.2647(3) 0.6334(8) 0.4133(4)
O38_8 O 0.2817(3) 0.7381(10) 0.4983(5)
O39_8 O 0.3545(4) 0.5475(8) 0.3958(4)
N2_8 N 0.3897(4) 0.1937(10) 0.6831(5)
C1_8 C 0.3852(4) 0.1131(12) 0.6929(5)
O41_8 O 0.4565(3) 0.7901(9) 0.6229(4)
O43_8 O 0.2218(3) 0.8430(11) 0.3395(5)
C2_8 C 0.3738(4) 0.2571(13) 0.5824(6)
H2_8 H 0.3609 0.2075 0.5663
O44_8 O 0.3690(4) 0.5159(8) 0.5301(5)
N3_8 N 0.3770(4) 0.0483(11) 0.6638(5)
C3_8 C 0.3841(4) 0.0994(13) 0.7280(5)
C4_8 C 0.3876(5) 0.1794(16) 0.7528(6)
H3_8 H 0.3909 0.2371 0.7459
C5_8 C 0.3877(5) 0.1821(12) 0.6488(6)
C6_8 C 0.3910(4) 0.2559(12) 0.6273(5)
C15_8 C 0.0820(4) 0.9955(13) 0.2349(5)
O46_8 O 0.2709(4) 0.8245(11) 0.2940(4)
C16_8 C 0.1787(4) 0.9328(14) 0.3165(5)
C18_8 C 0.3767(5) 0.0098(14) 0.7733(5)
C19_8 C 0.3783(6) 0.0161(16) 0.7396(6)
C20_8 C 0.3861(5) 0.1719(15) 0.7853(6)
H11_8 H 0.3887 0.2243 0.8008
C21_8 C 0.3936(4) 0.4095(12) 0.5871(6)
C22_8 C 0.1571(5) 0.8638(16) 0.2896(7)
H12_8 H 0.1634 0.8052 0.2883
C23_8 C 0.3937(5) 0.4919(15) 0.5661(9)
N5_8 N 0.0335(3) 0.9827(10) 0.1922(5)
H13_8 H 0.0148 0.9611 0.1764
N6_8 N 0.0597(3) 0.9308(12) 0.2142(6)
C25_8 C 0.1254(5) 0.8879(16) 0.2647(8)
H15_8 H 0.1104 0.8426 0.2482
C26_8 C 0.2127(4) 0.9176(15) 0.3427(7)
C27_8 C 0.1160(4) 0.9746(16) 0.2638(6)
C28_8 C 0.3756(5) 0.3320(12) 0.5615(7)
H16_8 H 0.3655 0.3310 0.5322
C29_8 C 0.4085(5) 0.3328(15) 0.6492(6)
H17_8 H 0.4198 0.3327 0.6788
O47_8 O 0.4164(4) 0.5436(13) 0.5830(8)
C30_8 C 0.3805(6) 0.0853(17) 0.7966(7)
O48_8 O 0.3702(4) 0.0080(12) 0.8376(5)
C31_8 C 0.3776(4) 0.0822(13) 0.8296(6)
C32_8 C 0.4107(6) 0.406(2) 0.6321(8)
H18_8 H 0.4233 0.4547 0.6492
Mo6_7 Mo 0.33103(3) 0.87641(9) 0.94715(5)
Mo12_7 Mo 0.39186(4) 0.93515(11) 0.94706(7)
O9_7 O 0.3035(2) 0.9624(7) 0.9504(3)
O16_7 O 0.3070(3) 0.8985(8) 0.8902(4)
O17_7 O 0.3183(3) 0.7727(9) 0.9505(5)
O23_7 O 0.3671(3) 0.8509(7) 0.9553(4)
O30_7 O 0.4138(4) 0.8607(10) 0.9449(7)
O35_7 O 0.3531(4) 0.9379(10) 0.8823(5)
O42_7 O 0.2904(4) 0.9602(12) 0.8099(5)
N4_7 N 0.0715(3) 0.9186(10) 0.7278(5)
C7_7 C 0.0408(3) 0.9272(11) 0.6986(5)
C8_7 C 0.0190(3) 0.8498(12) 0.6778(5)
C10_7 C 0.0117(4) 0.6838(13) 0.6631(6)
H5_7 H 0.0197 0.6246 0.6671
C11_7 C 0.0305(4) 0.7579(13) 0.6844(6)
H6_7 H 0.0519 0.7483 0.7042
C17_7 C 0.1673(4) 0.9785(14) 0.8145(8)
H8_7 H 0.1813 0.9303 0.8297
C24_7 C 0.1354(4) 0.9618(12) 0.7902(7)
H14_7 H 0.1281 0.9064 0.7928
H9_7 H 0.3729 0.9528 0.7800
H10_7 H 0.3755 0.9630 0.7244
Mo6_8 Mo 0.66897(3) 0.12359(9) 0.05285(5)
Mo12_8 Mo 0.60814(4) 0.06485(11) 0.05294(7)
O9_8 O 0.6965(2) 0.0376(7) 0.0496(3)
O16_8 O 0.6930(3) 0.1015(8) 0.1098(4)
O17_8 O 0.6817(3) 0.2273(9) 0.0495(5)
O23_8 O 0.6329(3) 0.1491(7) 0.0447(4)
O30_8 O 0.5862(4) 0.1393(10) 0.0551(7)
O35_8 O 0.6469(4) 0.0621(10) 0.1177(5)
O42_8 O 0.7096(4) 0.0398(12) 0.1901(5)
N4_8 N 0.9285(3) 0.0814(10) 0.2722(5)
C7_8 C 0.9592(3) 0.0728(11) 0.3014(5)
C8_8 C 0.9810(3) 0.1502(12) 0.3222(5)
C10_8 C 0.9883(4) 0.3162(13) 0.3369(6)
H5_8 H 0.9803 0.3754 0.3329
C11_8 C 0.9695(4) 0.2421(13) 0.3156(6)
H6_8 H 0.9481 0.2517 0.2958
C17_8 C 0.8327(4) 0.0215(14) 0.1855(8)
H8_8 H 0.8187 0.0697 0.1703
C24_8 C 0.8646(4) 0.0382(12) 0.2098(7)
H14_8 H 0.8719 0.0936 0.2072
H9_8 H 0.6271 0.9528 0.7200
H10_8 H 0.6245 0.9630 0.7756
loop_
_geom_bond_atom_site_label_1
_geom_bond_atom_site_label_2
_geom_bond_site_symmetry_1
_geom_bond_site_symmetry_2
N1 H1 1_555 1_555
N2 C1 1_555 1_555
C1 N3 1_555 1_555
O40 C31 1_555 1_555
C2 H2 1_555 1_555
N3 N1 1_555 1_555
C3 C1 1_555 1_555
C4 C3 1_555 1_555
H3 C4 1_555 1_555
C5 N1 1_555 1_555
C6 C2 1_555 1_555
C18 H9 1_555 1_555
C19 C3 1_555 1_555
H10 C19 1_555 1_555
C20 C4 1_555 1_555
H11 C20 1_555 1_555
C21 C23 1_555 1_555
C28 C2 1_555 1_555
H16 C28 1_555 1_555
C29 C6 1_555 1_555
H17 C29 1_555 1_555
C30 C18 1_555 1_555
O48 C31 1_555 1_555
C31 C30 1_555 1_555
C32 C21 1_555 1_555
H18 C32 1_555 1_555
Zn6 O40 1_555 1_555
N2 C5 1_555 1_555
C5 C6 1_555 1_555
C18 C19 1_555 1_555
C20 C30 1_555 1_555
C21 C28 1_555 1_555
C29 C32 1_555 1_555
Zn3 O7 1_555 1_555
O7 Mo1 1_555 1_555
O9 Mo1 1_555 1_555
O14 Mo1 1_555 1_555
O16 Mo6 1_555 1_555
O17 Mo6 1_555 1_555
O23 Mo6 1_555 1_555
O30 Mo12 1_555 1_555
N4 C7 1_555 1_555
C7 C8 1_555 1_555
C8 C11 1_555 1_555
C10 H5 1_555 1_555
C11 C10 1_555 1_555
H6 C11 1_555 1_555
C17 H8 1_555 1_555
C24 C17 1_555 1_555
H14 C24 1_555 1_555
O49 Zn3 1_555 1_555
Mo6 O7 1_555 1_555
Mo6 O9 1_555 1_555
Mo12 O15 1_555 1_555
Mo12 O23 1_555 1_555
Mo12 O35 1_555 1_555
Zn3 O15 1_555 1_555
Mo2 O2 1_555 1_555
Mo3 O1 1_555 1_555
Mo5 O4 1_555 1_555
Mo6_2 O5 1_555 1_555
Mo8 O1 1_555 1_555
Mo9 O3 1_555 1_555
Mo10 O1 1_555 1_555
Mo11 O4 1_555 1_555
Mo12_2 O5 1_555 1_555
Zn2 O3 1_555 1_555
Zn6 O21 1_555 1_555
P1 O1 1_555 1_555
O2 P1 1_555 1_555
O3 Mo10 1_555 1_555
O4 P1 1_555 1_555
O5 Mo9 1_555 1_555
O6 Mo2 1_555 1_555
O10 Mo3 1_555 1_555
O11 Mo2 1_555 1_555
O13 Mo3 1_555 1_555
O16_2 Mo6_2 1_555 1_555
O17_2 Mo6_2 1_555 1_555
O20 Zn2 1_555 1_555
O21 Mo9 1_555 1_555
O23_2 Mo6_2 1_555 1_555
O25 Mo3 1_555 1_555
O26 Mo3 1_555 1_555
O28 Mo8 1_555 1_555
O29 Mo5 1_555 1_555
O30_2 Mo12_2 1_555 1_555
O31 Mo11 1_555 1_555
O49 C13 1_555 1_555
O33 Mo5 1_555 1_555
O35_2 Mo9 1_555 1_555
O37 Mo8 1_555 1_555
O38 Mo2 1_555 1_555
O39 Mo3 1_555 1_555
O42_2 Mo9 1_555 1_555
O43 C26 1_555 1_555
N4_2 C7_2 1_555 1_555
O45 C13 1_555 1_555
C7_2 C8_2 1_555 1_555
C8_2 C11_2 1_555 1_555
C9 H4 1_555 1_555
C10_2 H5_2 1_555 1_555
C11_2 C10_2 1_555 1_555
H6_2 C11_2 1_555 1_555
C12 C9 1_555 1_555
C13 C12 1_555 1_555
C14 C8_2 1_555 1_555
H7 C14 1_555 1_555
C15 N4_2 1_555 1_555
O46 Mo10 1_555 1_555
C16 C17_2 1_555 1_555
C17_2 H8_2 1_555 1_555
C22 C16 1_555 1_555
H12 C22 1_555 1_555
N5 C7_2 1_555 1_555
H13 N5 1_555 1_555
N6 C15 1_555 1_555
C24_2 C17_2 1_555 1_555
H14_2 C24_2 1_555 1_555
C25 C22 1_555 1_555
H15 C25 1_555 1_555
C26 O20 1_555 1_555
C27 C15 1_555 1_555
Mo5 O10 1_555 1_555
Mo5 O25 1_555 1_555
Mo6_2 O9_2 1_555 1_555
Mo8 O6 1_555 1_555
Mo8 O11 1_555 1_555
Mo8 O26 1_555 1_555
Mo9 O16_2 1_555 1_555
Mo10 O13 1_555 1_555
Mo10 O21 1_555 1_555
Mo10 O28 1_555 1_555
Mo11 O33 1_555 1_555
Mo12_2 O23_2 1_555 1_555
Mo12_2 O31 1_555 1_555
Mo12_2 O35_2 1_555 1_555
Zn2 O6 1_555 1_555
Zn2 O9_2 1_555 1_555
Zn6 O25 1_555 1_555
Zn6 O31 1_555 1_555
P1 O5 1_555 1_555
C9 C14 1_555 1_555
C10_2 C12 1_555 1_555
C16 C26 1_555 1_555
N5 N6 1_555 1_555
C24_2 C27 1_555 1_555
C25 C27 1_555 1_555
Mo1_2 O2_2 1_555 1_555
Mo2_2 O2_2 1_555 1_555
Mo3_2 O1_2 1_555 1_555
Mo4 O4_2 1_555 1_555
Mo5_2 O4_2 1_555 1_555
Mo6_3 O5_2 1_555 1_555
Mo7 O2_2 1_555 1_555
Mo8_2 O1_2 1_555 1_555
Mo9_2 O3_2 1_555 1_555
Mo10_2 O1_2 1_555 1_555
Mo11_2 O4_2 1_555 1_555
Zn1 O10_2 1_555 1_555
Mo12_3 O5_2 1_555 1_555
Zn2_2 O3_2 1_555 1_555
Zn3_2 O7_2 1_555 1_555
Zn4 O21_2 1_555 1_555
P1_2 O1_2 1_555 1_555
O2_2 P1_2 1_555 1_555
O3_2 Mo10_2 1_555 1_555
O4_2 P1_2 1_555 1_555
O5_2 Mo9_2 1_555 1_555
O6_2 Mo2_2 1_555 1_555
O7_2 Mo1_2 1_555 1_555
O8 Mo4 1_555 1_555
O9_3 Mo1_2 1_555 1_555
O10_2 Mo3_2 1_555 1_555
O11_2 Mo2_2 1_555 1_555
O12 Mo4 1_555 1_555
O13_2 Mo3_2 1_555 1_555
O14_2 Mo1_2 1_555 1_555
O15_2 Mo11_2 1_555 1_555
O16_3 Mo6_3 1_555 1_555
O17_3 Mo6_3 1_555 1_555
O18 Mo2_2 1_555 1_555
O19 Mo1_2 1_555 1_555
O20_2 Zn2_2 1_555 1_555
O21_2 Mo9_2 1_555 1_555
O22 Mo4 1_555 1_555
O23_3 Mo6_3 1_555 1_555
O24 Mo4 1_555 1_555
O25_2 Mo3_2 1_555 1_555
O26_2 Mo3_2 1_555 1_555
O27 Mo7 1_555 1_555
O28_2 Mo8_2 1_555 1_555
O29_2 Mo5_2 1_555 1_555
O30_3 Mo12_3 1_555 1_555
O31_2 Mo11_2 1_555 1_555
O32 C13_2 1_555 1_555
O33_2 Mo5_2 1_555 1_555
O34 Mo1_2 1_555 1_555
O35_3 Mo9_2 1_555 1_555
O36 Mo11_2 1_555 1_555
O37_2 Mo8_2 1_555 1_555
O38_2 Mo2_2 1_555 1_555
O39_2 Mo3_2 1_555 1_555
O41 Mo4 1_555 1_555
O42_3 Mo9_2 1_555 1_555
O43_2 C26_2 1_555 1_555
O44 Zn1 1_555 1_555
N4_3 C7_3 1_555 1_555
O45_2 C13_2 1_555 1_555
C7_3 C8_3 1_555 1_555
C8_3 C11_3 1_555 1_555
C9_2 H4_2 1_555 1_555
C10_3 H5_3 1_555 1_555
C11_3 C10_3 1_555 1_555
H6_3 C11_3 1_555 1_555
C12_2 C9_2 1_555 1_555
C13_2 C12_2 1_555 1_555
C14_2 C8_3 1_555 1_555
H7_2 C14_2 1_555 1_555
C15_2 N4_3 1_555 1_555
O46_2 Mo10_2 1_555 1_555
C16_2 C17_3 1_555 1_555
C17_3 H8_3 1_555 1_555
C22_2 C16_2 1_555 1_555
H12_2 C22_2 1_555 1_555
N5_2 C7_3 1_555 1_555
H13_2 N5_2 1_555 1_555
N6_2 C15_2 1_555 1_555
C24_3 C17_3 1_555 1_555
H14_3 C24_3 1_555 1_555
C25_2 C22_2 1_555 1_555
H15_2 C25_2 1_555 1_555
C26_2 O20_2 1_555 1_555
C27_2 C15_2 1_555 1_555
Zn5 O32 1_555 1_555
O49_2 Zn3_2 1_555 1_555
O50 Zn4 1_555 1_555
Mo2_2 O19 1_555 1_555
Mo5_2 O10_2 1_555 1_555
Mo5_2 O24 1_555 1_555
Mo5_2 O25_2 1_555 1_555
Mo6_3 O7_2 1_555 1_555
Mo6_3 O9_3 1_555 1_555
Mo7 O8 1_555 1_555
Mo7 O12 1_555 1_555
Mo7 O18 1_555 1_555
Mo7 O34 1_555 1_555
Mo8_2 O6_2 1_555 1_555
Mo8_2 O11_2 1_555 1_555
Mo8_2 O26_2 1_555 1_555
Mo9_2 O16_3 1_555 1_555
Mo10_2 O13_2 1_555 1_555
Mo10_2 O21_2 1_555 1_555
Mo10_2 O28_2 1_555 1_555
Mo11_2 O22 1_555 1_555
Mo11_2 O33_2 1_555 1_555
Zn1 O11_2 1_555 1_555
Zn1 O12 1_555 1_555
Mo12_3 O15_2 1_555 1_555
Mo12_3 O23_3 1_555 1_555
Mo12_3 O31_2 1_555 1_555
Mo12_3 O35_3 1_555 1_555
Zn2_2 O6_2 1_555 1_555
Zn2_2 O9_3 1_555 1_555
Zn3_2 O8 1_555 1_555
Zn3_2 O15_2 1_555 1_555
Zn4 O25_2 1_555 1_555
Zn4 O31_2 1_555 1_555
P1_2 O5_2 1_555 1_555
C9_2 C14_2 1_555 1_555
C10_3 C12_2 1_555 1_555
C16_2 C26_2 1_555 1_555
N5_2 N6_2 1_555 1_555
C24_3 C27_2 1_555 1_555
C25_2 C27_2 1_555 1_555
N1_2 H1_2 1_555 1_555
N2_2 C1_2 1_555 1_555
C1_2 N3_2 1_555 1_555
O50 C31_2 1_555 1_555
C2_2 H2_2 1_555 1_555
N3_2 N1_2 1_555 1_555
C3_2 C1_2 1_555 1_555
C4_2 C3_2 1_555 1_555
H3_2 C4_2 1_555 1_555
C5_2 N1_2 1_555 1_555
C6_2 C2_2 1_555 1_555
C18_2 H9_2 1_555 1_555
C19_2 C3_2 1_555 1_555
H10_2 C19_2 1_555 1_555
C20_2 C4_2 1_555 1_555
H11_2 C20_2 1_555 1_555
C21_2 C23_2 1_555 1_555
C28_2 C2_2 1_555 1_555
H16_2 C28_2 1_555 1_555
C29_2 C6_2 1_555 1_555
H17_2 C29_2 1_555 1_555
C30_2 C18_2 1_555 1_555
O48_2 C31_2 1_555 1_555
C31_2 C30_2 1_555 1_555
C32_2 C21_2 1_555 1_555
H18_2 C32_2 1_555 1_555
N2_2 C5_2 1_555 1_555
C5_2 C6_2 1_555 1_555
C18_2 C19_2 1_555 1_555
C20_2 C30_2 1_555 1_555
C21_2 C28_2 1_555 1_555
C29_2 C32_2 1_555 1_555
O49_2 C13_3 1_555 1_555
O45_3 C13_3 1_555 1_555
C9_3 H4_3 1_555 1_555
C12_3 C9_3 1_555 1_555
C13_3 C12_3 1_555 1_555
H7_3 C14_3 1_555 1_555
C9_3 C14_3 1_555 1_555
Zn5 O7_3 1_555 1_555
O7_3 Mo1_3 1_555 1_555
O14_3 Mo1_3 1_555 1_555
Zn5 O15_3 1_555 1_555
N1_3 H1_3 1_555 1_555
N2_3 C1_3 1_555 1_555
C1_3 N3_3 1_555 1_555
O40_2 C31_3 1_555 1_555
C2_3 H2_3 1_555 1_555
N3_3 N1_3 1_555 1_555
C3_3 C1_3 1_555 1_555
C4_3 C3_3 1_555 1_555
H3_3 C4_3 1_555 1_555
C5_3 N1_3 1_555 1_555
C6_3 C2_3 1_555 1_555
C18_3 H9_3 1_555 1_555
C19_3 C3_3 1_555 1_555
H10_3 C19_3 1_555 1_555
C20_3 C4_3 1_555 1_555
H11_3 C20_3 1_555 1_555
C21_3 C23_3 1_555 1_555
C28_3 C2_3 1_555 1_555
H16_3 C28_3 1_555 1_555
C29_3 C6_3 1_555 1_555
H17_3 C29_3 1_555 1_555
C30_3 C18_3 1_555 1_555
O48_3 C31_3 1_555 1_555
C31_3 C30_3 1_555 1_555
C32_3 C21_3 1_555 1_555
H18_3 C32_3 1_555 1_555
Zn6_2 O40_2 1_555 1_555
N2_3 C5_3 1_555 1_555
C5_3 C6_3 1_555 1_555
C18_3 C19_3 1_555 1_555
C20_3 C30_3 1_555 1_555
C21_3 C28_3 1_555 1_555
C29_3 C32_3 1_555 1_555
Zn3_3 O7_4 1_555 1_555
O7_4 Mo1_4 1_555 1_555
O14_4 Mo1_4 1_555 1_555
O49_3 Zn3_3 1_555 1_555
Zn3_3 O15_4 1_555 1_555
O32_2 C13_4 1_555 1_555
O45_4 C13_4 1_555 1_555
C9_4 H4_4 1_555 1_555
C12_4 C9_4 1_555 1_555
C13_4 C12_4 1_555 1_555
H7_4 C14_4 1_555 1_555
Zn5_2 O32_2 1_555 1_555
C9_4 C14_4 1_555 1_555
Mo1_5 O2_3 1_555 1_555
Mo2_3 O2_3 1_555 1_555
Mo3_3 O1_3 1_555 1_555
Mo4_2 O4_3 1_555 1_555
Mo5_3 O4_3 1_555 1_555
Mo6_4 O5_3 1_555 1_555
Mo7_2 O2_3 1_555 1_555
Mo8_3 O1_3 1_555 1_555
Mo9_3 O3_3 1_555 1_555
Mo10_3 O1_3 1_555 1_555
Mo11_3 O4_3 1_555 1_555
Zn1_2 O10_3 1_555 1_555
Mo12_4 O5_3 1_555 1_555
Zn2_3 O3_3 1_555 1_555
Zn5_2 O7_5 1_555 1_555
Zn6_2 O21_3 1_555 1_555
P1_3 O1_3 1_555 1_555
O2_3 P1_3 1_555 1_555
O3_3 Mo10_3 1_555 1_555
O4_3 P1_3 1_555 1_555
O5_3 Mo9_3 1_555 1_555
O6_3 Mo2_3 1_555 1_555
O7_5 Mo1_5 1_555 1_555
O8_2 Mo4_2 1_555 1_555
O9_4 Mo1_5 1_555 1_555
O10_3 Mo3_3 1_555 1_555
O11_3 Mo2_3 1_555 1_555
O12_2 Mo4_2 1_555 1_555
O13_3 Mo3_3 1_555 1_555
O14_5 Mo1_5 1_555 1_555
O15_5 Mo11_3 1_555 1_555
O16_4 Mo6_4 1_555 1_555
O17_4 Mo6_4 1_555 1_555
O18_2 Mo2_3 1_555 1_555
O19_2 Mo1_5 1_555 1_555
O20_3 Zn2_3 1_555 1_555
O21_3 Mo9_3 1_555 1_555
O22_2 Mo4_2 1_555 1_555
O23_4 Mo6_4 1_555 1_555
O24_2 Mo4_2 1_555 1_555
O25_3 Mo3_3 1_555 1_555
O26_3 Mo3_3 1_555 1_555
O27_2 Mo7_2 1_555 1_555
O28_3 Mo8_3 1_555 1_555
O29_3 Mo5_3 1_555 1_555
O30_4 Mo12_4 1_555 1_555
O31_3 Mo11_3 1_555 1_555
O49_3 C13_5 1_555 1_555
O33_3 Mo5_3 1_555 1_555
O34_2 Mo1_5 1_555 1_555
O35_4 Mo9_3 1_555 1_555
O36_2 Mo11_3 1_555 1_555
O37_3 Mo8_3 1_555 1_555
O38_3 Mo2_3 1_555 1_555
O39_3 Mo3_3 1_555 1_555
O41_2 Mo4_2 1_555 1_555
O42_4 Mo9_3 1_555 1_555
O43_3 C26_3 1_555 1_555
O44_2 Zn1_2 1_555 1_555
N4_4 C7_4 1_555 1_555
O45_5 C13_5 1_555 1_555
C7_4 C8_4 1_555 1_555
C8_4 C11_4 1_555 1_555
C9_5 H4_5 1_555 1_555
C10_4 H5_4 1_555 1_555
C11_4 C10_4 1_555 1_555
H6_4 C11_4 1_555 1_555
C12_5 C9_5 1_555 1_555
C13_5 C12_5 1_555 1_555
C14_5 C8_4 1_555 1_555
H7_5 C14_5 1_555 1_555
C15_3 N4_4 1_555 1_555
O46_3 Mo10_3 1_555 1_555
C16_3 C17_4 1_555 1_555
C17_4 H8_4 1_555 1_555
C22_3 C16_3 1_555 1_555
H12_3 C22_3 1_555 1_555
N5_3 C7_4 1_555 1_555
H13_3 N5_3 1_555 1_555
N6_3 C15_3 1_555 1_555
C24_4 C17_4 1_555 1_555
H14_4 C24_4 1_555 1_555
C25_3 C22_3 1_555 1_555
H15_3 C25_3 1_555 1_555
C26_3 O20_3 1_555 1_555
C27_3 C15_3 1_555 1_555
Mo2_3 O19_2 1_555 1_555
Mo5_3 O10_3 1_555 1_555
Mo5_3 O24_2 1_555 1_555
Mo5_3 O25_3 1_555 1_555
Mo6_4 O7_5 1_555 1_555
Mo6_4 O9_4 1_555 1_555
Mo7_2 O8_2 1_555 1_555
Mo7_2 O12_2 1_555 1_555
Mo7_2 O18_2 1_555 1_555
Mo7_2 O34_2 1_555 1_555
Mo8_3 O6_3 1_555 1_555
Mo8_3 O11_3 1_555 1_555
Mo8_3 O26_3 1_555 1_555
Mo9_3 O16_4 1_555 1_555
Mo10_3 O13_3 1_555 1_555
Mo10_3 O21_3 1_555 1_555
Mo10_3 O28_3 1_555 1_555
Mo11_3 O22_2 1_555 1_555
Mo11_3 O33_3 1_555 1_555
Zn1_2 O11_3 1_555 1_555
Zn1_2 O12_2 1_555 1_555
Mo12_4 O15_5 1_555 1_555
Mo12_4 O23_4 1_555 1_555
Mo12_4 O31_3 1_555 1_555
Mo12_4 O35_4 1_555 1_555
Zn2_3 O6_3 1_555 1_555
Zn2_3 O9_4 1_555 1_555
Zn5_2 O8_2 1_555 1_555
Zn5_2 O15_5 1_555 1_555
Zn6_2 O25_3 1_555 1_555
Zn6_2 O31_3 1_555 1_555
P1_3 O5_3 1_555 1_555
C9_5 C14_5 1_555 1_555
C10_4 C12_5 1_555 1_555
C16_3 C26_3 1_555 1_555
N5_3 N6_3 1_555 1_555
C24_4 C27_3 1_555 1_555
C25_3 C27_3 1_555 1_555
Zn3_4 O7_6 1_555 1_555
O7_6 Mo1_6 1_555 1_555
O8_3 Mo4_3 1_555 1_555
O12_3 Mo4_3 1_555 1_555
O14_6 Mo1_6 1_555 1_555
O19_3 Mo1_6 1_555 1_555
O22_3 Mo4_3 1_555 1_555
O24_3 Mo4_3 1_555 1_555
O27_3 Mo7_3 1_555 1_555
O34_3 Mo1_6 1_555 1_555
O41_3 Mo4_3 1_555 1_555
O44_3 Zn1_3 1_555 1_555
O49_4 Zn3_4 1_555 1_555
Mo7_3 O8_3 1_555 1_555
Mo7_3 O12_3 1_555 1_555
Mo7_3 O18_3 1_555 1_555
Mo7_3 O34_3 1_555 1_555
Zn1_3 O12_3 1_555 1_555
Zn3_4 O8_3 1_555 1_555
Zn3_4 O15_6 1_555 1_555
O49_4 C13_6 1_555 1_555
O45_6 C13_6 1_555 1_555
C9_6 H4_6 1_555 1_555
C12_6 C9_6 1_555 1_555
C13_6 C12_6 1_555 1_555
H7_6 C14_6 1_555 1_555
C9_6 C14_6 1_555 1_555
Mo2_4 O2_4 1_555 1_555
Mo3_4 O1_4 1_555 1_555
Mo5_4 O4_4 1_555 1_555
Mo6_5 O5_4 1_555 1_555
Mo8_4 O1_4 1_555 1_555
Mo9_4 O3_4 1_555 1_555
Mo10_4 O1_4 1_555 1_555
Mo11_4 O4_4 1_555 1_555
Mo12_5 O5_4 1_555 1_555
Zn2_4 O3_4 1_555 1_555
Zn4_2 O21_4 1_555 1_555
P1_4 O1_4 1_555 1_555
O2_4 P1_4 1_555 1_555
O3_4 Mo10_4 1_555 1_555
O4_4 P1_4 1_555 1_555
O5_4 Mo9_4 1_555 1_555
O6_4 Mo2_4 1_555 1_555
O10_4 Mo3_4 1_555 1_555
O11_4 Mo2_4 1_555 1_555
O13_4 Mo3_4 1_555 1_555
O16_5 Mo6_5 1_555 1_555
O17_5 Mo6_5 1_555 1_555
O20_4 Zn2_4 1_555 1_555
O21_4 Mo9_4 1_555 1_555
O23_5 Mo6_5 1_555 1_555
O25_4 Mo3_4 1_555 1_555
O26_4 Mo3_4 1_555 1_555
O28_4 Mo8_4 1_555 1_555
O29_4 Mo5_4 1_555 1_555
O30_5 Mo12_5 1_555 1_555
O31_4 Mo11_4 1_555 1_555
O32_3 C13_7 1_555 1_555
O33_4 Mo5_4 1_555 1_555
O35_5 Mo9_4 1_555 1_555
O37_4 Mo8_4 1_555 1_555
O38_4 Mo2_4 1_555 1_555
O39_4 Mo3_4 1_555 1_555
O42_5 Mo9_4 1_555 1_555
O43_4 C26_4 1_555 1_555
N4_5 C7_5 1_555 1_555
O45_7 C13_7 1_555 1_555
C7_5 C8_5 1_555 1_555
C8_5 C11_5 1_555 1_555
C9_7 H4_7 1_555 1_555
C10_5 H5_5 1_555 1_555
C11_5 C10_5 1_555 1_555
H6_5 C11_5 1_555 1_555
C12_7 C9_7 1_555 1_555
C13_7 C12_7 1_555 1_555
C14_7 C8_5 1_555 1_555
H7_7 C14_7 1_555 1_555
C15_4 N4_5 1_555 1_555
O46_4 Mo10_4 1_555 1_555
C16_4 C17_5 1_555 1_555
C17_5 H8_5 1_555 1_555
C22_4 C16_4 1_555 1_555
H12_4 C22_4 1_555 1_555
N5_4 C7_5 1_555 1_555
H13_4 N5_4 1_555 1_555
N6_4 C15_4 1_555 1_555
C24_5 C17_5 1_555 1_555
H14_5 C24_5 1_555 1_555
C25_4 C22_4 1_555 1_555
H15_4 C25_4 1_555 1_555
C26_4 O20_4 1_555 1_555
C27_4 C15_4 1_555 1_555
Zn5_3 O32_3 1_555 1_555
O50_2 Zn4_2 1_555 1_555
Mo5_4 O10_4 1_555 1_555
Mo5_4 O25_4 1_555 1_555
Mo6_5 O9_5 1_555 1_555
Mo8_4 O6_4 1_555 1_555
Mo8_4 O11_4 1_555 1_555
Mo8_4 O26_4 1_555 1_555
Mo9_4 O16_5 1_555 1_555
Mo10_4 O13_4 1_555 1_555
Mo10_4 O21_4 1_555 1_555
Mo10_4 O28_4 1_555 1_555
Mo11_4 O33_4 1_555 1_555
Mo12_5 O23_5 1_555 1_555
Mo12_5 O31_4 1_555 1_555
Mo12_5 O35_5 1_555 1_555
Zn2_4 O6_4 1_555 1_555
Zn2_4 O9_5 1_555 1_555
Zn4_2 O25_4 1_555 1_555
Zn4_2 O31_4 1_555 1_555
P1_4 O5_4 1_555 1_555
C9_7 C14_7 1_555 1_555
C10_5 C12_7 1_555 1_555
C16_4 C26_4 1_555 1_555
N5_4 N6_4 1_555 1_555
C24_5 C27_4 1_555 1_555
C25_4 C27_4 1_555 1_555
N1_4 H1_4 1_555 1_555
N2_4 C1_4 1_555 1_555
C1_4 N3_4 1_555 1_555
O50_2 C31_4 1_555 1_555
C2_4 H2_4 1_555 1_555
N3_4 N1_4 1_555 1_555
C3_4 C1_4 1_555 1_555
C4_4 C3_4 1_555 1_555
H3_4 C4_4 1_555 1_555
C5_4 N1_4 1_555 1_555
C6_4 C2_4 1_555 1_555
C18_4 H9_4 1_555 1_555
C19_4 C3_4 1_555 1_555
H10_4 C19_4 1_555 1_555
C20_4 C4_4 1_555 1_555
H11_4 C20_4 1_555 1_555
C21_4 C23_4 1_555 1_555
C28_4 C2_4 1_555 1_555
H16_4 C28_4 1_555 1_555
C29_4 C6_4 1_555 1_555
H17_4 C29_4 1_555 1_555
C30_4 C18_4 1_555 1_555
O48_4 C31_4 1_555 1_555
C31_4 C30_4 1_555 1_555
C32_4 C21_4 1_555 1_555
H18_4 C32_4 1_555 1_555
N2_4 C5_4 1_555 1_555
C5_4 C6_4 1_555 1_555
C18_4 C19_4 1_555 1_555
C20_4 C30_4 1_555 1_555
C21_4 C28_4 1_555 1_555
C29_4 C32_4 1_555 1_555
Zn5_3 O7_7 1_555 1_555
O7_7 Mo1_7 1_555 1_555
O9_6 Mo1_7 1_555 1_555
O14_7 Mo1_7 1_555 1_555
O16_6 Mo6_6 1_555 1_555
O17_6 Mo6_6 1_555 1_555
O23_6 Mo6_6 1_555 1_555
O30_6 Mo12_6 1_555 1_555
N4_6 C7_6 1_555 1_555
C7_6 C8_6 1_555 1_555
C8_6 C11_6 1_555 1_555
C10_6 H5_6 1_555 1_555
C11_6 C10_6 1_555 1_555
H6_6 C11_6 1_555 1_555
C17_6 H8_6 1_555 1_555
C24_6 C17_6 1_555 1_555
H14_6 C24_6 1_555 1_555
Mo6_6 O7_7 1_555 1_555
Mo6_6 O9_6 1_555 1_555
Mo12_6 O15_7 1_555 1_555
Mo12_6 O23_6 1_555 1_555
Mo12_6 O35_6 1_555 1_555
Zn5_3 O15_7 1_555 1_555
O32_4 C13_8 1_555 1_555
O45_8 C13_8 1_555 1_555
C9_8 H4_8 1_555 1_555
C12_8 C9_8 1_555 1_555
C13_8 C12_8 1_555 1_555
H7_8 C14_8 1_555 1_555
Zn5_4 O32_4 1_555 1_555
C9_8 C14_8 1_555 1_555
Zn5_4 O7_8 1_555 1_555
O7_8 Mo1_8 1_555 1_555
O8_4 Mo4_4 1_555 1_555
O12_4 Mo4_4 1_555 1_555
O14_8 Mo1_8 1_555 1_555
O19_4 Mo1_8 1_555 1_555
O22_4 Mo4_4 1_555 1_555
O24_4 Mo4_4 1_555 1_555
O27_4 Mo7_4 1_555 1_555
O34_4 Mo1_8 1_555 1_555
O41_4 Mo4_4 1_555 1_555
O44_4 Zn1_4 1_555 1_555
Mo7_4 O8_4 1_555 1_555
Mo7_4 O12_4 1_555 1_555
Mo7_4 O18_4 1_555 1_555
Mo7_4 O34_4 1_555 1_555
Zn1_4 O12_4 1_555 1_555
Zn5_4 O8_4 1_555 1_555
Zn5_4 O15_8 1_555 1_555
Mo2_5 O2_5 1_555 1_555
Mo3_5 O1_5 1_555 1_555
Mo4_5 O4_5 1_555 1_555
Mo5_5 O4_5 1_555 1_555
Mo7_5 O2_5 1_555 1_555
Mo8_5 O1_5 1_555 1_555
Mo9_5 O3_5 1_555 1_555
Mo10_5 O1_5 1_555 1_555
Mo11_5 O4_5 1_555 1_555
Zn1_5 O10_5 1_555 1_555
Zn2_5 O3_5 1_555 1_555
Zn4_3 O21_5 1_555 1_555
P1_5 O1_5 1_555 1_555
O2_5 P1_5 1_555 1_555
O3_5 Mo10_5 1_555 1_555
O4_5 P1_5 1_555 1_555
O5_5 Mo9_5 1_555 1_555
O6_5 Mo2_5 1_555 1_555
O8_5 Mo4_5 1_555 1_555
O10_5 Mo3_5 1_555 1_555
O11_5 Mo2_5 1_555 1_555
O12_5 Mo4_5 1_555 1_555
O13_5 Mo3_5 1_555 1_555
O18_5 Mo2_5 1_555 1_555
O20_5 Zn2_5 1_555 1_555
O21_5 Mo9_5 1_555 1_555
O22_5 Mo4_5 1_555 1_555
O24_5 Mo4_5 1_555 1_555
O25_5 Mo3_5 1_555 1_555
O26_5 Mo3_5 1_555 1_555
O27_5 Mo7_5 1_555 1_555
O28_5 Mo8_5 1_555 1_555
O29_5 Mo5_5 1_555 1_555
O31_5 Mo11_5 1_555 1_555
O33_5 Mo5_5 1_555 1_555
N1_5 H1_5 1_555 1_555
O36_5 Mo11_5 1_555 1_555
O37_5 Mo8_5 1_555 1_555
O38_5 Mo2_5 1_555 1_555
O39_5 Mo3_5 1_555 1_555
N2_5 C1_5 1_555 1_555
C1_5 N3_5 1_555 1_555
O40_3 C31_5 1_555 1_555
O41_5 Mo4_5 1_555 1_555
O43_5 C26_5 1_555 1_555
C2_5 H2_5 1_555 1_555
O44_5 Zn1_5 1_555 1_555
N3_5 N1_5 1_555 1_555
C3_5 C1_5 1_555 1_555
C4_5 C3_5 1_555 1_555
H3_5 C4_5 1_555 1_555
C5_5 N1_5 1_555 1_555
C6_5 C2_5 1_555 1_555
O46_5 Mo10_5 1_555 1_555
C19_5 C3_5 1_555 1_555
C20_5 C4_5 1_555 1_555
H11_5 C20_5 1_555 1_555
C21_5 C23_5 1_555 1_555
C22_5 C16_5 1_555 1_555
H12_5 C22_5 1_555 1_555
C23_5 O44_5 1_555 1_555
H13_5 N5_5 1_555 1_555
N6_5 C15_5 1_555 1_555
C25_5 C22_5 1_555 1_555
H15_5 C25_5 1_555 1_555
C26_5 O20_5 1_555 1_555
C27_5 C15_5 1_555 1_555
C28_5 C2_5 1_555 1_555
H16_5 C28_5 1_555 1_555
C29_5 C6_5 1_555 1_555
H17_5 C29_5 1_555 1_555
O47_5 C23_5 1_555 1_555
C30_5 C18_5 1_555 1_555
O48_5 C31_5 1_555 1_555
C31_5 C30_5 1_555 1_555
C32_5 C21_5 1_555 1_555
H18_5 C32_5 1_555 1_555
Zn6_3 O40_3 1_555 1_555
O50_3 Zn4_3 1_555 1_555
Mo2_5 O19_5 1_555 1_555
Mo5_5 O10_5 1_555 1_555
Mo5_5 O24_5 1_555 1_555
Mo5_5 O25_5 1_555 1_555
Mo7_5 O8_5 1_555 1_555
Mo7_5 O12_5 1_555 1_555
Mo7_5 O18_5 1_555 1_555
Mo7_5 O34_5 1_555 1_555
Mo8_5 O6_5 1_555 1_555
Mo8_5 O11_5 1_555 1_555
Mo8_5 O26_5 1_555 1_555
Mo10_5 O13_5 1_555 1_555
Mo10_5 O21_5 1_555 1_555
Mo10_5 O28_5 1_555 1_555
Mo11_5 O22_5 1_555 1_555
Mo11_5 O33_5 1_555 1_555
Zn1_5 O11_5 1_555 1_555
Zn1_5 O12_5 1_555 1_555
Zn2_5 O6_5 1_555 1_555
Zn4_3 O25_5 1_555 1_555
Zn4_3 O31_5 1_555 1_555
P1_5 O5_5 1_555 1_555
N2_5 C5_5 1_555 1_555
C5_5 C6_5 1_555 1_555
C16_5 C26_5 1_555 1_555
C18_5 C19_5 1_555 1_555
C20_5 C30_5 1_555 1_555
C21_5 C28_5 1_555 1_555
N5_5 N6_5 1_555 1_555
C25_5 C27_5 1_555 1_555
C29_5 C32_5 1_555 1_555
Mo2_6 O2_6 1_555 1_555
Mo3_6 O1_6 1_555 1_555
Mo5_6 O4_6 1_555 1_555
Mo8_6 O1_6 1_555 1_555
Mo9_6 O3_6 1_555 1_555
Mo10_6 O1_6 1_555 1_555
Mo11_6 O4_6 1_555 1_555
Zn2_6 O3_6 1_555 1_555
Zn6_3 O21_6 1_555 1_555
P1_6 O1_6 1_555 1_555
O2_6 P1_6 1_555 1_555
O3_6 Mo10_6 1_555 1_555
O4_6 P1_6 1_555 1_555
O5_6 Mo9_6 1_555 1_555
O6_6 Mo2_6 1_555 1_555
O10_6 Mo3_6 1_555 1_555
O11_6 Mo2_6 1_555 1_555
O13_6 Mo3_6 1_555 1_555
O20_6 Zn2_6 1_555 1_555
O21_6 Mo9_6 1_555 1_555
O25_6 Mo3_6 1_555 1_555
O26_6 Mo3_6 1_555 1_555
O28_6 Mo8_6 1_555 1_555
O29_6 Mo5_6 1_555 1_555
O31_6 Mo11_6 1_555 1_555
O33_6 Mo5_6 1_555 1_555
O37_6 Mo8_6 1_555 1_555
O38_6 Mo2_6 1_555 1_555
O39_6 Mo3_6 1_555 1_555
O43_6 C26_6 1_555 1_555
O46_6 Mo10_6 1_555 1_555
C22_6 C16_6 1_555 1_555
H12_6 C22_6 1_555 1_555
H13_6 N5_6 1_555 1_555
N6_6 C15_6 1_555 1_555
C25_6 C22_6 1_555 1_555
H15_6 C25_6 1_555 1_555
C26_6 O20_6 1_555 1_555
C27_6 C15_6 1_555 1_555
Mo5_6 O10_6 1_555 1_555
Mo5_6 O25_6 1_555 1_555
Mo8_6 O6_6 1_555 1_555
Mo8_6 O11_6 1_555 1_555
Mo8_6 O26_6 1_555 1_555
Mo10_6 O13_6 1_555 1_555
Mo10_6 O21_6 1_555 1_555
Mo10_6 O28_6 1_555 1_555
Mo11_6 O33_6 1_555 1_555
Zn2_6 O6_6 1_555 1_555
Zn6_3 O25_6 1_555 1_555
Zn6_3 O31_6 1_555 1_555
P1_6 O5_6 1_555 1_555
C16_6 C26_6 1_555 1_555
N5_6 N6_6 1_555 1_555
C25_6 C27_6 1_555 1_555
O8_6 Mo4_6 1_555 1_555
O12_6 Mo4_6 1_555 1_555
O22_6 Mo4_6 1_555 1_555
O24_6 Mo4_6 1_555 1_555
O27_6 Mo7_6 1_555 1_555
N1_6 H1_6 1_555 1_555
N2_6 C1_6 1_555 1_555
C1_6 N3_6 1_555 1_555
O50_3 C31_6 1_555 1_555
O41_6 Mo4_6 1_555 1_555
C2_6 H2_6 1_555 1_555
O44_6 Zn1_6 1_555 1_555
N3_6 N1_6 1_555 1_555
C3_6 C1_6 1_555 1_555
C4_6 C3_6 1_555 1_555
H3_6 C4_6 1_555 1_555
C5_6 N1_6 1_555 1_555
C6_6 C2_6 1_555 1_555
C19_6 C3_6 1_555 1_555
C20_6 C4_6 1_555 1_555
H11_6 C20_6 1_555 1_555
C21_6 C23_6 1_555 1_555
C23_6 O44_6 1_555 1_555
C28_6 C2_6 1_555 1_555
H16_6 C28_6 1_555 1_555
C29_6 C6_6 1_555 1_555
H17_6 C29_6 1_555 1_555
O47_6 C23_6 1_555 1_555
C30_6 C18_6 1_555 1_555
O48_6 C31_6 1_555 1_555
C31_6 C30_6 1_555 1_555
C32_6 C21_6 1_555 1_555
H18_6 C32_6 1_555 1_555
Mo7_6 O8_6 1_555 1_555
Mo7_6 O12_6 1_555 1_555
Mo7_6 O18_6 1_555 1_555
Mo7_6 O34_6 1_555 1_555
Zn1_6 O12_6 1_555 1_555
N2_6 C5_6 1_555 1_555
C5_6 C6_6 1_555 1_555
C18_6 C19_6 1_555 1_555
C20_6 C30_6 1_555 1_555
C21_6 C28_6 1_555 1_555
C29_6 C32_6 1_555 1_555
O8_7 Mo4_7 1_555 1_555
O12_7 Mo4_7 1_555 1_555
O22_7 Mo4_7 1_555 1_555
O24_7 Mo4_7 1_555 1_555
O27_7 Mo7_7 1_555 1_555
N1_7 H1_7 1_555 1_555
N2_7 C1_7 1_555 1_555
C1_7 N3_7 1_555 1_555
O40_4 C31_7 1_555 1_555
O41_7 Mo4_7 1_555 1_555
C2_7 H2_7 1_555 1_555
O44_7 Zn1_7 1_555 1_555
N3_7 N1_7 1_555 1_555
C3_7 C1_7 1_555 1_555
C4_7 C3_7 1_555 1_555
H3_7 C4_7 1_555 1_555
C5_7 N1_7 1_555 1_555
C6_7 C2_7 1_555 1_555
C19_7 C3_7 1_555 1_555
C20_7 C4_7 1_555 1_555
H11_7 C20_7 1_555 1_555
C21_7 C23_7 1_555 1_555
C23_7 O44_7 1_555 1_555
C28_7 C2_7 1_555 1_555
H16_7 C28_7 1_555 1_555
C29_7 C6_7 1_555 1_555
H17_7 C29_7 1_555 1_555
O47_7 C23_7 1_555 1_555
C30_7 C18_7 1_555 1_555
O48_7 C31_7 1_555 1_555
C31_7 C30_7 1_555 1_555
C32_7 C21_7 1_555 1_555
H18_7 C32_7 1_555 1_555
Zn6_4 O40_4 1_555 1_555
Mo7_7 O8_7 1_555 1_555
Mo7_7 O12_7 1_555 1_555
Mo7_7 O18_7 1_555 1_555
Mo7_7 O34_7 1_555 1_555
Zn1_7 O12_7 1_555 1_555
N2_7 C5_7 1_555 1_555
C5_7 C6_7 1_555 1_555
C18_7 C19_7 1_555 1_555
C20_7 C30_7 1_555 1_555
C21_7 C28_7 1_555 1_555
C29_7 C32_7 1_555 1_555
Mo2_7 O2_7 1_555 1_555
Mo3_7 O1_7 1_555 1_555
Mo5_7 O4_7 1_555 1_555
Mo8_7 O1_7 1_555 1_555
Mo9_7 O3_7 1_555 1_555
Mo10_7 O1_7 1_555 1_555
Mo11_7 O4_7 1_555 1_555
Zn2_7 O3_7 1_555 1_555
Zn4_4 O21_7 1_555 1_555
P1_7 O1_7 1_555 1_555
O2_7 P1_7 1_555 1_555
O3_7 Mo10_7 1_555 1_555
O4_7 P1_7 1_555 1_555
O5_7 Mo9_7 1_555 1_555
O6_7 Mo2_7 1_555 1_555
O10_7 Mo3_7 1_555 1_555
O11_7 Mo2_7 1_555 1_555
O13_7 Mo3_7 1_555 1_555
O20_7 Zn2_7 1_555 1_555
O21_7 Mo9_7 1_555 1_555
O25_7 Mo3_7 1_555 1_555
O26_7 Mo3_7 1_555 1_555
O28_7 Mo8_7 1_555 1_555
O29_7 Mo5_7 1_555 1_555
O31_7 Mo11_7 1_555 1_555
O33_7 Mo5_7 1_555 1_555
O37_7 Mo8_7 1_555 1_555
O38_7 Mo2_7 1_555 1_555
O39_7 Mo3_7 1_555 1_555
O43_7 C26_7 1_555 1_555
O46_7 Mo10_7 1_555 1_555
C22_7 C16_7 1_555 1_555
H12_7 C22_7 1_555 1_555
H13_7 N5_7 1_555 1_555
N6_7 C15_7 1_555 1_555
C25_7 C22_7 1_555 1_555
H15_7 C25_7 1_555 1_555
C26_7 O20_7 1_555 1_555
C27_7 C15_7 1_555 1_555
O50_4 Zn4_4 1_555 1_555
Mo5_7 O10_7 1_555 1_555
Mo5_7 O25_7 1_555 1_555
Mo8_7 O6_7 1_555 1_555
Mo8_7 O11_7 1_555 1_555
Mo8_7 O26_7 1_555 1_555
Mo10_7 O13_7 1_555 1_555
Mo10_7 O21_7 1_555 1_555
Mo10_7 O28_7 1_555 1_555
Mo11_7 O33_7 1_555 1_555
Zn2_7 O6_7 1_555 1_555
Zn4_4 O25_7 1_555 1_555
Zn4_4 O31_7 1_555 1_555
P1_7 O5_7 1_555 1_555
C16_7 C26_7 1_555 1_555
N5_7 N6_7 1_555 1_555
C25_7 C27_7 1_555 1_555
Mo2_8 O2_8 1_555 1_555
Mo3_8 O1_8 1_555 1_555
Mo4_8 O4_8 1_555 1_555
Mo5_8 O4_8 1_555 1_555
Mo7_8 O2_8 1_555 1_555
Mo8_8 O1_8 1_555 1_555
Mo9_8 O3_8 1_555 1_555
Mo10_8 O1_8 1_555 1_555
Mo11_8 O4_8 1_555 1_555
Zn1_8 O10_8 1_555 1_555
Zn2_8 O3_8 1_555 1_555
Zn6_4 O21_8 1_555 1_555
P1_8 O1_8 1_555 1_555
O2_8 P1_8 1_555 1_555
O3_8 Mo10_8 1_555 1_555
O4_8 P1_8 1_555 1_555
O5_8 Mo9_8 1_555 1_555
O6_8 Mo2_8 1_555 1_555
O8_8 Mo4_8 1_555 1_555
O10_8 Mo3_8 1_555 1_555
O11_8 Mo2_8 1_555 1_555
O12_8 Mo4_8 1_555 1_555
O13_8 Mo3_8 1_555 1_555
O18_8 Mo2_8 1_555 1_555
O20_8 Zn2_8 1_555 1_555
O21_8 Mo9_8 1_555 1_555
O22_8 Mo4_8 1_555 1_555
O24_8 Mo4_8 1_555 1_555
O25_8 Mo3_8 1_555 1_555
O26_8 Mo3_8 1_555 1_555
O27_8 Mo7_8 1_555 1_555
O28_8 Mo8_8 1_555 1_555
O29_8 Mo5_8 1_555 1_555
O31_8 Mo11_8 1_555 1_555
O33_8 Mo5_8 1_555 1_555
N1_8 H1_8 1_555 1_555
O36_8 Mo11_8 1_555 1_555
O37_8 Mo8_8 1_555 1_555
O38_8 Mo2_8 1_555 1_555
O39_8 Mo3_8 1_555 1_555
N2_8 C1_8 1_555 1_555
C1_8 N3_8 1_555 1_555
O50_4 C31_8 1_555 1_555
O41_8 Mo4_8 1_555 1_555
O43_8 C26_8 1_555 1_555
C2_8 H2_8 1_555 1_555
O44_8 Zn1_8 1_555 1_555
N3_8 N1_8 1_555 1_555
C3_8 C1_8 1_555 1_555
C4_8 C3_8 1_555 1_555
H3_8 C4_8 1_555 1_555
C5_8 N1_8 1_555 1_555
C6_8 C2_8 1_555 1_555
O46_8 Mo10_8 1_555 1_555
C19_8 C3_8 1_555 1_555
C20_8 C4_8 1_555 1_555
H11_8 C20_8 1_555 1_555
C21_8 C23_8 1_555 1_555
C22_8 C16_8 1_555 1_555
H12_8 C22_8 1_555 1_555
C23_8 O44_8 1_555 1_555
H13_8 N5_8 1_555 1_555
N6_8 C15_8 1_555 1_555
C25_8 C22_8 1_555 1_555
H15_8 C25_8 1_555 1_555
C26_8 O20_8 1_555 1_555
C27_8 C15_8 1_555 1_555
C28_8 C2_8 1_555 1_555
H16_8 C28_8 1_555 1_555
C29_8 C6_8 1_555 1_555
H17_8 C29_8 1_555 1_555
O47_8 C23_8 1_555 1_555
C30_8 C18_8 1_555 1_555
O48_8 C31_8 1_555 1_555
C31_8 C30_8 1_555 1_555
C32_8 C21_8 1_555 1_555
H18_8 C32_8 1_555 1_555
Mo2_8 O19_8 1_555 1_555
Mo5_8 O10_8 1_555 1_555
Mo5_8 O24_8 1_555 1_555
Mo5_8 O25_8 1_555 1_555
Mo7_8 O8_8 1_555 1_555
Mo7_8 O12_8 1_555 1_555
Mo7_8 O18_8 1_555 1_555
Mo7_8 O34_8 1_555 1_555
Mo8_8 O6_8 1_555 1_555
Mo8_8 O11_8 1_555 1_555
Mo8_8 O26_8 1_555 1_555
Mo10_8 O13_8 1_555 1_555
Mo10_8 O21_8 1_555 1_555
Mo10_8 O28_8 1_555 1_555
Mo11_8 O22_8 1_555 1_555
Mo11_8 O33_8 1_555 1_555
Zn1_8 O11_8 1_555 1_555
Zn1_8 O12_8 1_555 1_555
Zn2_8 O6_8 1_555 1_555
Zn6_4 O25_8 1_555 1_555
Zn6_4 O31_8 1_555 1_555
P1_8 O5_8 1_555 1_555
N2_8 C5_8 1_555 1_555
C5_8 C6_8 1_555 1_555
C16_8 C26_8 1_555 1_555
C18_8 C19_8 1_555 1_555
C20_8 C30_8 1_555 1_555
C21_8 C28_8 1_555 1_555
N5_8 N6_8 1_555 1_555
C25_8 C27_8 1_555 1_555
C29_8 C32_8 1_555 1_555
O16_7 Mo6_7 1_555 1_555
O17_7 Mo6_7 1_555 1_555
O23_7 Mo6_7 1_555 1_555
O30_7 Mo12_7 1_555 1_555
N4_7 C7_7 1_555 1_555
C7_7 C8_7 1_555 1_555
C8_7 C11_7 1_555 1_555
C10_7 H5_7 1_555 1_555
C11_7 C10_7 1_555 1_555
H6_7 C11_7 1_555 1_555
C17_7 H8_7 1_555 1_555
C24_7 C17_7 1_555 1_555
H14_7 C24_7 1_555 1_555
Mo6_7 O9_7 1_555 1_555
Mo12_7 O23_7 1_555 1_555
Mo12_7 O35_7 1_555 1_555
O16_8 Mo6_8 1_555 1_555
O17_8 Mo6_8 1_555 1_555
O23_8 Mo6_8 1_555 1_555
O30_8 Mo12_8 1_555 1_555
N4_8 C7_8 1_555 1_555
C7_8 C8_8 1_555 1_555
C8_8 C11_8 1_555 1_555
C10_8 H5_8 1_555 1_555
C11_8 C10_8 1_555 1_555
H6_8 C11_8 1_555 1_555
C17_8 H8_8 1_555 1_555
C24_8 C17_8 1_555 1_555
H14_8 C24_8 1_555 1_555
Mo6_8 O9_8 1_555 1_555
Mo12_8 O23_8 1_555 1_555
Mo12_8 O35_8 1_555 1_555

#END
