
###############################################################################
#
# This file contains modified crystal structure data generated from the
# MOF subset of the Cambridge Structural Database (CSD) v543 
# hosted by the Cambridge Crystallographic Data Centre (CCDC).
#
# This work is licensed under the Creative Commons
# Attribution-NonCommercial-ShareAlike 4.0 International License.
# To view a copy of this license, visit
# http://creativecommons.org/licenses/by-nc-sa/4.0/
# or send a letter to
# Creative Commons, PO Box 1866, Mountain View, CA 94042, USA.
#
# CIF created using the CSD Python API on 29 September 2022
# The structure has been converted into the P1 space group
# The structure has a 3D framework
# The original CSD entry UCUKEM is in the monoclinic crystal system
# The framework has been calculated to contain at least 10.0% void space
# The void calculation uses a probe of radius 1.32A, grid spacing 0.4
#
###############################################################################

data_UCUKEM
_chemical_formula_moiety         '(C288 H192 Cu13 I8 Mo6 N24 S16)n'
_symmetry_cell_setting           triclinic
_symmetry_space_group_name_H-M   'P 1'
_symmetry_Int_Tables_number      1
_space_group_name_Hall           'P 1'
loop_
_symmetry_equiv_pos_site_id
_symmetry_equiv_pos_as_xyz
1 x,y,z
_cell_length_a                   41.4870(17)
_cell_length_b                   7.9378(4)
_cell_length_c                   30.9981(14)
_cell_angle_alpha                90
_cell_angle_beta                 129.4540(10)
_cell_angle_gamma                90
_cell_volume                     7882.07
loop_
_atom_site_label
_atom_site_type_symbol
_atom_site_fract_x
_atom_site_fract_y
_atom_site_fract_z
Cu1 Cu 0.43968(2) 0.64331(5) 0.63847(2)
N1 N 0.43000(7) 0.4778(3) 0.57959(11)
C1 C 0.41024(9) 0.5156(4) 0.52623(13)
C2 C 0.44565(11) 0.3211(4) 0.59648(15)
C3 C 0.40615(9) 0.4049(4) 0.48876(13)
H1 H 0.398583 0.622413 0.513586
C4 C 0.44253(12) 0.2014(5) 0.56134(15)
H2 H 0.459200 0.291676 0.633437
C5 C 0.42314(10) 0.2445(4) 0.50606(13)
H3 H 0.392006 0.437641 0.451906
H4 H 0.453238 0.093629 0.574488
C6 C 0.42196(10) 0.1242(4) 0.46778(13)
C7 C 0.45019(10) 0.1456(4) 0.45799(13)
C9 C 0.48228(10) 0.2714(4) 0.48628(13)
C10 C 0.44909(9) 0.0336(4) 0.42033(12)
C13 C 0.50967(10) 0.2895(4) 0.47758(14)
H5 H 0.484021 0.342730 0.511499
C14 C 0.47914(10) 0.0593(4) 0.41258(13)
H6 H 0.363904 0.042036 0.475357
C18 C 0.50791(11) 0.1842(4) 0.43913(15)
H7 H 0.530200 0.371986 0.496948
H11 H 0.526422 0.200918 0.432161
C45 C 0.55091(9) 0.0336(4) 0.07967(12)
C50 C 0.54981(10) 0.1456(4) 0.04201(13)
C51 C 0.52086(10) 0.0593(4) 0.08742(13)
C57 C 0.51772(10) 0.2714(4) 0.01372(13)
C58 C 0.57804(10) 0.1242(4) 0.03222(13)
C59 C 0.49209(11) 0.1842(4) 0.06087(15)
C64 C 0.49033(10) 0.2895(4) 0.02242(14)
H36 H 0.473578 0.200918 0.067839
H37 H 0.636096 0.042036 0.024643
H41 H 0.469800 0.371986 0.003052
C70 C 0.59385(9) 0.4049(4) 0.01124(13)
H46 H 0.607994 0.437641 0.048094
H35 H 0.515979 0.342730 0.988501
C65 C 0.57686(10) 0.2445(4) 0.99394(13)
C69 C 0.55747(12) 0.2014(5) 0.93866(15)
C71 C 0.55435(11) 0.3211(4) 0.90352(15)
H45 H 0.546762 0.093629 0.925512
C72 C 0.58976(9) 0.5156(4) 0.97377(13)
N9 N 0.57000(7) 0.4778(3) 0.92041(11)
H47 H 0.540800 0.291676 0.866563
H48 H 0.601417 0.622413 0.986414
Cu7 Cu 0.56032(2) 0.64331(5) 0.86153(2)
C47 C 0.26518(10) 0.9904(5) 0.57434(14)
H29 H 0.287544 0.916980 0.589786
C54 C 0.24087(10) 0.9739(5) 0.58860(15)
H33 H 0.246582 0.890159 0.613598
C62 C 0.31567(10) 0.8565(4) 0.53194(15)
C67 C 0.35007(10) 0.7540(5) 0.55622(13)
H39 H 0.288974 0.813329 0.505090
C68 C 0.39431(10) 0.9674(5) 0.60992(14)
N8 N 0.38913(8) 0.8078(4) 0.59476(11)
H43 H 0.345812 0.641841 0.545156
C47_2 C 0.73482(10) 0.9904(5) 0.92566(14)
H29_2 H 0.712456 0.916980 0.910214
C54_2 C 0.75913(10) 0.9739(5) 0.91140(15)
H33_2 H 0.753418 0.890159 0.886402
C62_2 C 0.68433(10) 0.8565(4) 0.96806(15)
C67_2 C 0.64993(10) 0.7540(5) 0.94378(13)
H39_2 H 0.711026 0.813329 0.994910
C68_2 C 0.60569(10) 0.9674(5) 0.89008(14)
N8_2 N 0.61087(8) 0.8078(4) 0.90524(11)
H43_2 H 0.654188 0.641841 0.954844
C8 C 0.60748(9) 0.0061(4) 0.55821(12)
C11 C 0.63685(10) 0.0296(5) 0.54901(14)
C12 C 0.60859(10) 0.1190(4) 0.59531(13)
C15 C 0.58031(9) 0.0999(4) 0.60557(13)
C16 C 0.66577(11) 0.1541(5) 0.57508(15)
C17 C 0.64047(10) 0.2451(4) 0.62253(13)
H8 H 0.521012 0.011695 0.611404
C19 C 0.57778(9) 0.2257(4) 0.63919(13)
C20 C 0.66777(10) 0.2621(5) 0.61297(14)
H9 H 0.684297 0.168407 0.568025
H10 H 0.642423 0.317732 0.647636
C21 C 0.57999(11) 0.1785(4) 0.68400(14)
C22 C 0.57164(10) 0.3953(4) 0.62568(13)
H12 H 0.688109 0.345541 0.631466
H13 H 0.585426 0.066979 0.695917
C23 C 0.57414(11) 0.2967(5) 0.71086(14)
C24 C 0.56700(9) 0.5078(4) 0.65580(13)
H14 H 0.570618 0.433906 0.596502
S1 S 0.50023(2) 0.79476(11) 0.69024(3)
S2 S 0.44270(2) 0.47637(11) 0.70066(3)
N3 N 0.56723(8) 0.4607(4) 0.69733(11)
H15 H 0.575028 0.260897 0.740160
H16 H 0.563571 0.621519 0.646538
Mo1 Mo 0.500000 0.63666(5) 0.750000
Cu2 Cu 0.55991(2) 0.63491(5) 0.74017(2)
I1 I 0.62426(2) 0.82908(3) 0.79040(2)
Cu4 Cu 0.44009(2) 0.63491(5) 0.75983(2)
S3 S 0.49977(2) 0.79476(11) 0.80976(3)
S4 S 0.55730(2) 0.47637(11) 0.79934(3)
I2 I 0.37574(2) 0.82908(3) 0.70960(2)
N5 N 0.43277(8) 0.4607(4) 0.80267(11)
C37 C 0.43300(9) 0.5078(4) 0.84420(13)
C38 C 0.42586(11) 0.2967(5) 0.78914(14)
C39 C 0.42836(10) 0.3953(4) 0.87432(13)
H25 H 0.436429 0.621519 0.853462
C40 C 0.42001(11) 0.1785(4) 0.81600(14)
H26 H 0.424972 0.260897 0.759840
H27 H 0.429382 0.433906 0.903498
C41 C 0.42222(9) 0.2257(4) 0.86081(13)
H28 H 0.414574 0.066979 0.804083
C42 C 0.41969(9) 0.0999(4) 0.89443(13)
C46 C 0.39141(10) 0.1190(4) 0.90469(13)
C52 C 0.39252(9) 0.0061(4) 0.94179(12)
C53 C 0.35953(10) 0.2451(4) 0.87747(13)
H31 H 0.478988 0.011695 0.888596
C60 C 0.36315(10) 0.0296(5) 0.95099(14)
C61 C 0.33223(10) 0.2621(5) 0.88703(14)
H32 H 0.357577 0.317732 0.852364
C66 C 0.33423(11) 0.1541(5) 0.92492(15)
H38 H 0.311891 0.345541 0.868534
H42 H 0.315703 0.168407 0.931975
C8_2 C 0.39252(9) 0.9939(4) 0.44179(12)
C11_2 C 0.36315(10) 0.9704(5) 0.45099(14)
C12_2 C 0.39141(10) 0.8810(4) 0.40469(13)
C15_2 C 0.41969(9) 0.9001(4) 0.39443(13)
C16_2 C 0.33423(11) 0.8459(5) 0.42492(15)
C17_2 C 0.35953(10) 0.7549(4) 0.37747(13)
H8_2 H 0.478988 0.988305 0.388596
C19_2 C 0.42222(9) 0.7743(4) 0.36081(13)
C20_2 C 0.33223(10) 0.7379(5) 0.38703(14)
H9_2 H 0.315703 0.831593 0.431975
H10_2 H 0.357577 0.682268 0.352364
C21_2 C 0.42001(11) 0.8215(4) 0.31600(14)
C22_2 C 0.42836(10) 0.6047(4) 0.37432(13)
H12_2 H 0.311891 0.654459 0.368534
H13_2 H 0.414574 0.933021 0.304083
C23_2 C 0.42586(11) 0.7033(5) 0.28914(14)
C24_2 C 0.43300(9) 0.4922(4) 0.34420(13)
H14_2 H 0.429382 0.566094 0.403498
S1_2 S 0.49977(2) 0.20524(11) 0.30976(3)
S2_2 S 0.55730(2) 0.52363(11) 0.29934(3)
N2 N 0.61087(8) 0.1922(4) 0.40524(11)
N3_2 N 0.43277(8) 0.5393(4) 0.30267(11)
H15_2 H 0.424972 0.739103 0.259840
H16_2 H 0.436429 0.378481 0.353462
Mo1_2 Mo 0.500000 0.36334(5) 0.250000
Cu2_2 Cu 0.44009(2) 0.36509(5) 0.25983(2)
C25 C 0.64993(10) 0.2460(5) 0.44378(13)
C26 C 0.60569(10) 0.0326(5) 0.39008(14)
I1_2 I 0.37574(2) 0.17092(3) 0.20960(2)
H17 H 0.654188 0.358159 0.454844
C27 C 0.68433(10) 0.1435(4) 0.46806(15)
H19 H 0.711026 0.186671 0.494910
C34 C 0.73482(10) 0.0096(5) 0.42566(14)
H22 H 0.712456 0.083020 0.410214
C36 C 0.75913(10) 0.0261(5) 0.41140(15)
H24 H 0.753418 0.109841 0.386402
N4 N 0.57000(7) 0.5222(3) 0.42041(11)
Cu3 Cu 0.56032(2) 0.35669(5) 0.36153(2)
Cu4_2 Cu 0.55991(2) 0.36509(5) 0.24017(2)
S3_2 S 0.50023(2) 0.20524(11) 0.19024(3)
S4_2 S 0.44270(2) 0.52363(11) 0.20066(3)
I2_2 I 0.62426(2) 0.17092(3) 0.29040(2)
N5_2 N 0.56723(8) 0.5393(4) 0.19733(11)
Cu5 Cu 0.43968(2) 0.35669(5) 0.13847(2)
C37_2 C 0.56700(9) 0.4922(4) 0.15580(13)
C38_2 C 0.57414(11) 0.7033(5) 0.21086(14)
N6 N 0.43000(7) 0.5222(3) 0.07959(11)
N7 N 0.38913(8) 0.1922(4) 0.09476(11)
C39_2 C 0.57164(10) 0.6047(4) 0.12568(13)
H25_2 H 0.563571 0.378481 0.146538
C40_2 C 0.57999(11) 0.8215(4) 0.18400(14)
H26_2 H 0.575028 0.739103 0.240160
H27_2 H 0.570618 0.566094 0.096502
C41_2 C 0.57778(9) 0.7743(4) 0.13919(13)
H28_2 H 0.585426 0.933021 0.195917
C42_2 C 0.58031(9) 0.9001(4) 0.10557(13)
C46_2 C 0.60859(10) 0.8810(4) 0.09531(13)
C52_2 C 0.60748(9) 0.9939(4) 0.05821(12)
C53_2 C 0.64047(10) 0.7549(4) 0.12253(13)
H31_2 H 0.521012 0.988305 0.111404
C60_2 C 0.63685(10) 0.9704(5) 0.04901(14)
C61_2 C 0.66777(10) 0.7379(5) 0.11297(14)
H32_2 H 0.642423 0.682268 0.147636
C66_2 C 0.66577(11) 0.8459(5) 0.07508(15)
H38_2 H 0.688109 0.654459 0.131466
H42_2 H 0.684297 0.831593 0.068025
C25_2 C 0.35007(10) 0.2460(5) 0.05622(13)
C26_2 C 0.39431(10) 0.0326(5) 0.10992(14)
H17_2 H 0.345812 0.358159 0.045156
C27_2 C 0.31567(10) 0.1435(4) 0.03194(15)
H19_2 H 0.288974 0.186671 0.005090
C34_2 C 0.26518(10) 0.0096(5) 0.07434(14)
H22_2 H 0.287544 0.083020 0.089786
C36_2 C 0.24087(10) 0.0261(5) 0.08860(15)
H24_2 H 0.246582 0.109841 0.113598
H35_2 H 0.484021 0.657270 0.011499
C65_2 C 0.42314(10) 0.7555(4) 0.00606(13)
C69_2 C 0.44253(12) 0.7986(5) 0.06134(15)
C71_2 C 0.44565(11) 0.6789(4) 0.09648(15)
H45_2 H 0.453238 0.906371 0.074488
C72_2 C 0.41024(9) 0.4844(4) 0.02623(13)
H47_2 H 0.459200 0.708324 0.133437
H48_2 H 0.398583 0.377587 0.013586
C1_2 C 0.58976(9) 0.4844(4) 0.47377(13)
C2_2 C 0.55435(11) 0.6789(4) 0.40352(15)
C3_2 C 0.59385(9) 0.5951(4) 0.51124(13)
H1_2 H 0.601417 0.377587 0.486414
C4_2 C 0.55747(12) 0.7986(5) 0.43866(15)
H2_2 H 0.540800 0.708324 0.366563
C5_2 C 0.57686(10) 0.7555(4) 0.49394(13)
H3_2 H 0.607994 0.562359 0.548094
H4_2 H 0.546762 0.906371 0.425512
C6_2 C 0.57804(10) 0.8758(4) 0.53222(13)
C7_2 C 0.54981(10) 0.8544(4) 0.54201(13)
C9_2 C 0.51772(10) 0.7286(4) 0.51372(13)
C10_2 C 0.55091(9) 0.9664(4) 0.57967(12)
C13_2 C 0.49033(10) 0.7105(4) 0.52242(14)
H5_2 H 0.515979 0.657270 0.488501
C14_2 C 0.52086(10) 0.9407(4) 0.58742(13)
H6_2 H 0.636096 0.957964 0.524643
C18_2 C 0.49209(11) 0.8158(4) 0.56087(15)
H7_2 H 0.469800 0.628014 0.503052
H11_2 H 0.473578 0.799082 0.567839
C45_2 C 0.44909(9) 0.9664(4) 0.92033(12)
C50_2 C 0.45019(10) 0.8544(4) 0.95799(13)
C51_2 C 0.47914(10) 0.9407(4) 0.91258(13)
C57_2 C 0.48228(10) 0.7286(4) 0.98628(13)
C58_2 C 0.42196(10) 0.8758(4) 0.96778(13)
C59_2 C 0.50791(11) 0.8158(4) 0.93913(15)
C64_2 C 0.50967(10) 0.7105(4) 0.97758(14)
H36_2 H 0.526422 0.799082 0.932161
H37_2 H 0.363904 0.957964 0.975357
H41_2 H 0.530200 0.628014 0.996948
C70_2 C 0.40615(9) 0.5951(4) 0.98876(13)
H46_2 H 0.392006 0.562359 0.951906
C28 C 0.63851(10) 0.9203(5) 0.41239(15)
H18 H 0.578624 0.993209 0.363016
C29 C 0.67898(9) 0.9763(4) 0.45232(13)
H20 H 0.633291 0.808711 0.400574
C30 C 0.71590(9) 0.8605(4) 0.47727(13)
C31 C 0.72292(9) 0.7293(4) 0.51263(13)
C32 C 0.74208(9) 0.8829(4) 0.46389(14)
C33 C 0.69780(11) 0.7062(5) 0.52876(16)
C35 C 0.70615(11) 0.5847(5) 0.56551(16)
H21 H 0.674957 0.776493 0.513635
H23 H 0.689404 0.573605 0.575616
C43 C 0.75792(9) 0.6171(4) 0.53611(14)
C44 C 0.77708(9) 0.7707(4) 0.48737(13)
C47_3 C 0.76518(10) 0.4904(5) 0.57434(14)
C48 C 0.78410(9) 0.6395(4) 0.52273(13)
C49 C 0.80220(11) 0.7938(5) 0.47124(16)
H29_3 H 0.787544 0.416980 0.589786
C54_3 C 0.74087(10) 0.4739(5) 0.58860(15)
C55 C 0.82102(9) 0.5237(4) 0.54768(13)
C56 C 0.79385(11) 0.9153(5) 0.43449(16)
H30 H 0.825043 0.723507 0.486365
H33_3 H 0.746582 0.390159 0.613598
C62_3 C 0.81567(10) 0.3565(4) 0.53194(15)
C63 C 0.86149(10) 0.5797(5) 0.58761(15)
H34 H 0.810596 0.926395 0.424384
C67_3 C 0.85007(10) 0.2540(5) 0.55622(13)
H39_3 H 0.788974 0.313329 0.505090
H40 H 0.866709 0.691289 0.599426
C68_3 C 0.89431(10) 0.4674(5) 0.60992(14)
N8_3 N 0.88913(8) 0.3078(4) 0.59476(11)
H43_3 H 0.845812 0.141841 0.545156
H44 H 0.921376 0.506791 0.636984
Cu6 Cu 0.93968(2) 0.14331(5) 0.63847(2)
C1_3 C 0.91024(9) 0.0156(4) 0.52623(13)
H1_3 H 0.898583 0.122413 0.513586
Mo1_3 Mo 1.000000 0.13666(5) 0.750000
Cu4_3 Cu 0.94009(2) 0.13491(5) 0.75983(2)
S3_3 S 0.99977(2) 0.29476(11) 0.80976(3)
I2_3 I 0.87574(2) 0.32908(3) 0.70960(2)
C37_3 C 0.93300(9) 0.0078(4) 0.84420(13)
H25_3 H 0.936429 0.121519 0.853462
C28_2 C 0.36149(10) 0.9203(5) 0.08761(15)
H18_2 H 0.421376 0.993209 0.136984
C29_2 C 0.32102(9) 0.9763(4) 0.04768(13)
H20_2 H 0.366709 0.808711 0.099426
C30_2 C 0.28410(9) 0.8605(4) 0.02273(13)
C32_2 C 0.25792(9) 0.8829(4) 0.03611(14)
C44_2 C 0.22292(9) 0.7707(4) 0.01263(13)
C49_2 C 0.19780(11) 0.7938(5) 0.02876(16)
C56_2 C 0.20615(11) 0.9153(5) 0.06551(16)
H30_2 H 0.174957 0.723507 0.013635
H34_2 H 0.189404 0.926395 0.075616
C31_2 C 0.27708(9) 0.7293(4) 0.98737(13)
C33_2 C 0.30220(11) 0.7062(5) 0.97124(16)
C35_2 C 0.29385(11) 0.5847(5) 0.93449(16)
H21_2 H 0.325043 0.776493 0.986365
H23_2 H 0.310596 0.573605 0.924384
C43_2 C 0.24208(9) 0.6171(4) 0.96389(14)
C47_4 C 0.23482(10) 0.4904(5) 0.92566(14)
C48_2 C 0.21590(9) 0.6395(4) 0.97727(13)
H29_4 H 0.212456 0.416980 0.910214
C54_4 C 0.25913(10) 0.4739(5) 0.91140(15)
C55_2 C 0.17898(9) 0.5237(4) 0.95232(13)
H33_4 H 0.253418 0.390159 0.886402
C62_4 C 0.18433(10) 0.3565(4) 0.96806(15)
C63_2 C 0.13851(10) 0.5797(5) 0.91239(15)
C67_4 C 0.14993(10) 0.2540(5) 0.94378(13)
H39_4 H 0.211026 0.313329 0.994910
H40_2 H 0.133291 0.691289 0.900574
C68_4 C 0.10569(10) 0.4674(5) 0.89008(14)
N8_4 N 0.11087(8) 0.3078(4) 0.90524(11)
H43_4 H 0.154188 0.141841 0.954844
H44_2 H 0.078624 0.506791 0.863016
Cu6_2 Cu 0.06032(2) 0.14331(5) 0.86153(2)
C72_3 C 0.08976(9) 0.0156(4) 0.97377(13)
H48_3 H 0.101417 0.122413 0.986414
C24_3 C 0.06700(9) 0.0078(4) 0.65580(13)
S1_3 S 0.00023(2) 0.29476(11) 0.69024(3)
H16_3 H 0.063571 0.121519 0.646538
Mo1_4 Mo 0.000000 0.13666(5) 0.750000
Cu2_3 Cu 0.05991(2) 0.13491(5) 0.74017(2)
I1_3 I 0.12426(2) 0.32908(3) 0.79040(2)
C13_3 C 0.00967(10) 0.7895(4) 0.47758(14)
C18_3 C 0.00791(11) 0.6842(4) 0.43913(15)
H7_3 H 0.030200 0.871986 0.496948
H11_3 H 0.026422 0.700918 0.432161
S2_3 S 0.05730(2) 0.02363(11) 0.29934(3)
N4_2 N 0.07000(7) 0.0222(3) 0.42041(11)
N5_3 N 0.06723(8) 0.0393(4) 0.19733(11)
C38_3 C 0.07414(11) 0.2033(5) 0.21086(14)
C39_3 C 0.07164(10) 0.1047(4) 0.12568(13)
C40_3 C 0.07999(11) 0.3215(4) 0.18400(14)
H26_3 H 0.075028 0.239103 0.240160
H27_3 H 0.070618 0.066094 0.096502
C41_3 C 0.07778(9) 0.2743(4) 0.13919(13)
H28_3 H 0.085426 0.433021 0.195917
C42_3 C 0.08031(9) 0.4001(4) 0.10557(13)
C45_3 C 0.05091(9) 0.5336(4) 0.07967(12)
C46_3 C 0.10859(10) 0.3810(4) 0.09531(13)
C50_3 C 0.04981(10) 0.6456(4) 0.04201(13)
C51_3 C 0.02086(10) 0.5593(4) 0.08742(13)
C52_3 C 0.10748(9) 0.4939(4) 0.05821(12)
C53_3 C 0.14047(10) 0.2549(4) 0.12253(13)
C57_3 C 0.01772(10) 0.7714(4) 0.01372(13)
C58_3 C 0.07804(10) 0.6242(4) 0.03222(13)
H31_3 H 0.021012 0.488305 0.111404
C60_3 C 0.13685(10) 0.4704(5) 0.04901(14)
C61_3 C 0.16777(10) 0.2379(5) 0.11297(14)
H32_3 H 0.142423 0.182268 0.147636
C66_3 C 0.16577(11) 0.3459(5) 0.07508(15)
H37_3 H 0.136096 0.542036 0.024643
H38_3 H 0.188109 0.154459 0.131466
C70_3 C 0.09385(9) 0.9049(4) 0.01124(13)
H42_3 H 0.184297 0.331593 0.068025
H46_3 H 0.107994 0.937641 0.048094
H35_3 H 0.015979 0.842730 0.988501
C65_3 C 0.07686(10) 0.7445(4) 0.99394(13)
C69_3 C 0.05747(12) 0.7014(5) 0.93866(15)
C71_3 C 0.05435(11) 0.8211(4) 0.90352(15)
H45_3 H 0.046762 0.593629 0.925512
N9_2 N 0.07000(7) 0.9778(3) 0.92041(11)
H47_3 H 0.040800 0.791676 0.866563
C2_3 C 0.05435(11) 0.1789(4) 0.40352(15)
C3_3 C 0.09385(9) 0.0951(4) 0.51124(13)
C4_3 C 0.05747(12) 0.2986(5) 0.43866(15)
H2_3 H 0.040800 0.208324 0.366563
C5_3 C 0.07686(10) 0.2555(4) 0.49394(13)
H3_3 H 0.107994 0.062359 0.548094
H4_3 H 0.046762 0.406371 0.425512
C6_3 C 0.07804(10) 0.3758(4) 0.53222(13)
C7_3 C 0.04981(10) 0.3544(4) 0.54201(13)
C8_3 C 0.10748(9) 0.5061(4) 0.55821(12)
C9_3 C 0.01772(10) 0.2286(4) 0.51372(13)
C10_3 C 0.05091(9) 0.4664(4) 0.57967(12)
C11_3 C 0.13685(10) 0.5296(5) 0.54901(14)
C12_3 C 0.10859(10) 0.6190(4) 0.59531(13)
H5_3 H 0.015979 0.157270 0.488501
C14_3 C 0.02086(10) 0.4407(4) 0.58742(13)
C15_3 C 0.08031(9) 0.5999(4) 0.60557(13)
C16_3 C 0.16577(11) 0.6541(5) 0.57508(15)
H6_3 H 0.136096 0.457964 0.524643
C17_3 C 0.14047(10) 0.7451(4) 0.62253(13)
H8_3 H 0.021012 0.511695 0.611404
C19_3 C 0.07778(9) 0.7257(4) 0.63919(13)
C20_3 C 0.16777(10) 0.7621(5) 0.61297(14)
H9_3 H 0.184297 0.668407 0.568025
H10_3 H 0.142423 0.817732 0.647636
C21_3 C 0.07999(11) 0.6785(4) 0.68400(14)
C22_3 C 0.07164(10) 0.8953(4) 0.62568(13)
H12_3 H 0.188109 0.845541 0.631466
H13_3 H 0.085426 0.566979 0.695917
C23_3 C 0.07414(11) 0.7967(5) 0.71086(14)
H14_3 H 0.070618 0.933906 0.596502
N3_3 N 0.06723(8) 0.9607(4) 0.69733(11)
H15_3 H 0.075028 0.760897 0.740160
S4_3 S 0.05730(2) 0.97637(11) 0.79934(3)
C59_3 C 0.00791(11) 0.3158(4) 0.93913(15)
C64_3 C 0.00967(10) 0.2105(4) 0.97758(14)
H36_3 H 0.026422 0.299082 0.932161
H41_3 H 0.030200 0.128014 0.996948
N2_2 N 0.11087(8) 0.6922(4) 0.40524(11)
Mo1_5 Mo -0.000000 0.86334(5) 0.250000
C25_3 C 0.14993(10) 0.7460(5) 0.44378(13)
C26_3 C 0.10569(10) 0.5326(5) 0.39008(14)
H17_3 H 0.154188 0.858159 0.454844
C27_3 C 0.18433(10) 0.6435(4) 0.46806(15)
C28_3 C 0.13851(10) 0.4203(5) 0.41239(15)
H18_3 H 0.078624 0.493209 0.363016
H19_3 H 0.211026 0.686671 0.494910
C29_3 C 0.17898(9) 0.4763(4) 0.45232(13)
H20_3 H 0.133291 0.308711 0.400574
C30_3 C 0.21590(9) 0.3605(4) 0.47727(13)
C31_3 C 0.22292(9) 0.2293(4) 0.51263(13)
C32_3 C 0.24208(9) 0.3829(4) 0.46389(14)
C33_3 C 0.19780(11) 0.2062(5) 0.52876(16)
C34_3 C 0.23482(10) 0.5096(5) 0.42566(14)
C35_3 C 0.20615(11) 0.0847(5) 0.56551(16)
H21_3 H 0.174957 0.276493 0.513635
H22_3 H 0.212456 0.583020 0.410214
C36_3 C 0.25913(10) 0.5261(5) 0.41140(15)
H23_3 H 0.189404 0.073605 0.575616
H24_3 H 0.253418 0.609841 0.386402
Cu3_2 Cu 0.06032(2) 0.85669(5) 0.36153(2)
Cu4_4 Cu 0.05991(2) 0.86509(5) 0.24017(2)
S3_4 S 0.00023(2) 0.70524(11) 0.19024(3)
I2_4 I 0.12426(2) 0.67092(3) 0.29040(2)
C37_4 C 0.06700(9) 0.9922(4) 0.15580(13)
H25_4 H 0.063571 0.878481 0.146538
C43_3 C 0.25792(9) 0.1171(4) 0.53611(14)
C44_3 C 0.27708(9) 0.2707(4) 0.48737(13)
C48_3 C 0.28410(9) 0.1395(4) 0.52273(13)
C49_3 C 0.30220(11) 0.2938(5) 0.47124(16)
C55_3 C 0.32102(9) 0.0237(4) 0.54768(13)
C56_3 C 0.29385(11) 0.4153(5) 0.43449(16)
H30_3 H 0.325043 0.223507 0.486365
C63_3 C 0.36149(10) 0.0797(5) 0.58761(15)
H34_3 H 0.310596 0.426395 0.424384
H40_3 H 0.366709 0.191289 0.599426
H44_3 H 0.421376 0.006791 0.636984
C1_4 C 0.08976(9) 0.9844(4) 0.47377(13)
H1_4 H 0.101417 0.877587 0.486414
N1_2 N 0.93000(7) 0.9778(3) 0.57959(11)
C2_4 C 0.94565(11) 0.8211(4) 0.59648(15)
C3_4 C 0.90615(9) 0.9049(4) 0.48876(13)
C4_4 C 0.94253(12) 0.7014(5) 0.56134(15)
H2_4 H 0.959200 0.791676 0.633437
C5_4 C 0.92314(10) 0.7445(4) 0.50606(13)
H3_4 H 0.892006 0.937641 0.451906
H4_4 H 0.953238 0.593629 0.574488
C6_4 C 0.92196(10) 0.6242(4) 0.46778(13)
C7_4 C 0.95019(10) 0.6456(4) 0.45799(13)
C8_4 C 0.89252(9) 0.4939(4) 0.44179(12)
C9_4 C 0.98228(10) 0.7714(4) 0.48628(13)
C10_4 C 0.94909(9) 0.5336(4) 0.42033(12)
C11_4 C 0.86315(10) 0.4704(5) 0.45099(14)
C12_4 C 0.89141(10) 0.3810(4) 0.40469(13)
H5_4 H 0.984021 0.842730 0.511499
C14_4 C 0.97914(10) 0.5593(4) 0.41258(13)
C15_4 C 0.91969(9) 0.4001(4) 0.39443(13)
C16_4 C 0.83423(11) 0.3459(5) 0.42492(15)
H6_4 H 0.863904 0.542036 0.475357
C17_4 C 0.85953(10) 0.2549(4) 0.37747(13)
H8_4 H 0.978988 0.488305 0.388596
C19_4 C 0.92222(9) 0.2743(4) 0.36081(13)
C20_4 C 0.83223(10) 0.2379(5) 0.38703(14)
H9_4 H 0.815703 0.331593 0.431975
H10_4 H 0.857577 0.182268 0.352364
C21_4 C 0.92001(11) 0.3215(4) 0.31600(14)
C22_4 C 0.92836(10) 0.1047(4) 0.37432(13)
H12_4 H 0.811891 0.154459 0.368534
H13_4 H 0.914574 0.433021 0.304083
C23_4 C 0.92586(11) 0.2033(5) 0.28914(14)
H14_4 H 0.929382 0.066094 0.403498
N3_4 N 0.93277(8) 0.0393(4) 0.30267(11)
H15_4 H 0.924972 0.239103 0.259840
S4_4 S 0.94270(2) 0.02363(11) 0.20066(3)
N6_2 N 0.93000(7) 0.0222(3) 0.07959(11)
C59_4 C 0.99209(11) 0.6842(4) 0.06087(15)
C64_4 C 0.99033(10) 0.7895(4) 0.02242(14)
H36_4 H 0.973578 0.700918 0.067839
H41_4 H 0.969800 0.871986 0.003052
H35_4 H 0.984021 0.157270 0.011499
C65_4 C 0.92314(10) 0.2555(4) 0.00606(13)
C69_4 C 0.94253(12) 0.2986(5) 0.06134(15)
C71_4 C 0.94565(11) 0.1789(4) 0.09648(15)
H45_4 H 0.953238 0.406371 0.074488
H47_4 H 0.959200 0.208324 0.133437
C13_4 C 0.99033(10) 0.2105(4) 0.52242(14)
C18_4 C 0.99209(11) 0.3158(4) 0.56087(15)
H7_4 H 0.969800 0.128014 0.503052
H11_4 H 0.973578 0.299082 0.567839
S2_4 S 0.94270(2) 0.97637(11) 0.70066(3)
N5_4 N 0.93277(8) 0.9607(4) 0.80267(11)
C38_4 C 0.92586(11) 0.7967(5) 0.78914(14)
C39_4 C 0.92836(10) 0.8953(4) 0.87432(13)
C40_4 C 0.92001(11) 0.6785(4) 0.81600(14)
H26_4 H 0.924972 0.760897 0.759840
H27_4 H 0.929382 0.933906 0.903498
C41_4 C 0.92222(9) 0.7257(4) 0.86081(13)
H28_4 H 0.914574 0.566979 0.804083
C42_4 C 0.91969(9) 0.5999(4) 0.89443(13)
C45_4 C 0.94909(9) 0.4664(4) 0.92033(12)
C46_4 C 0.89141(10) 0.6190(4) 0.90469(13)
C50_4 C 0.95019(10) 0.3544(4) 0.95799(13)
C51_4 C 0.97914(10) 0.4407(4) 0.91258(13)
C52_4 C 0.89252(9) 0.5061(4) 0.94179(12)
C53_4 C 0.85953(10) 0.7451(4) 0.87747(13)
C57_4 C 0.98228(10) 0.2286(4) 0.98628(13)
C58_4 C 0.92196(10) 0.3758(4) 0.96778(13)
H31_4 H 0.978988 0.511695 0.888596
C60_4 C 0.86315(10) 0.5296(5) 0.95099(14)
C61_4 C 0.83223(10) 0.7621(5) 0.88703(14)
H32_4 H 0.857577 0.817732 0.852364
C66_4 C 0.83423(11) 0.6541(5) 0.92492(15)
H37_4 H 0.863904 0.457964 0.975357
H38_4 H 0.811891 0.845541 0.868534
C70_4 C 0.90615(9) 0.0951(4) 0.98876(13)
H42_4 H 0.815703 0.668407 0.931975
H46_4 H 0.892006 0.062359 0.951906
C24_4 C 0.93300(9) 0.9922(4) 0.34420(13)
S1_4 S 0.99977(2) 0.70524(11) 0.30976(3)
H16_4 H 0.936429 0.878481 0.353462
Mo1_6 Mo 1.000000 0.86334(5) 0.250000
Cu2_4 Cu 0.94009(2) 0.86509(5) 0.25983(2)
I1_4 I 0.87574(2) 0.67092(3) 0.20960(2)
Cu5_2 Cu 0.93968(2) 0.85669(5) 0.13847(2)
N7_2 N 0.88913(8) 0.6922(4) 0.09476(11)
C25_4 C 0.85007(10) 0.7460(5) 0.05622(13)
C26_4 C 0.89431(10) 0.5326(5) 0.10992(14)
H17_4 H 0.845812 0.858159 0.045156
C27_4 C 0.81567(10) 0.6435(4) 0.03194(15)
C28_4 C 0.86149(10) 0.4203(5) 0.08761(15)
H18_4 H 0.921376 0.493209 0.136984
H19_4 H 0.788974 0.686671 0.005090
C29_4 C 0.82102(9) 0.4763(4) 0.04768(13)
H20_4 H 0.866709 0.308711 0.099426
C30_4 C 0.78410(9) 0.3605(4) 0.02273(13)
C32_4 C 0.75792(9) 0.3829(4) 0.03611(14)
C34_4 C 0.76518(10) 0.5096(5) 0.07434(14)
H22_4 H 0.787544 0.583020 0.089786
C36_4 C 0.74087(10) 0.5261(5) 0.08860(15)
H24_4 H 0.746582 0.609841 0.113598
C44_4 C 0.72292(9) 0.2707(4) 0.01263(13)
C49_4 C 0.69780(11) 0.2938(5) 0.02876(16)
C56_4 C 0.70615(11) 0.4153(5) 0.06551(16)
H30_4 H 0.674957 0.223507 0.013635
H34_4 H 0.689404 0.426395 0.075616
C72_4 C 0.91024(9) 0.9844(4) 0.02623(13)
H48_4 H 0.898583 0.877587 0.013586
C31_4 C 0.77708(9) 0.2293(4) 0.98737(13)
C33_4 C 0.80220(11) 0.2062(5) 0.97124(16)
C35_4 C 0.79385(11) 0.0847(5) 0.93449(16)
H21_4 H 0.825043 0.276493 0.986365
H23_4 H 0.810596 0.073605 0.924384
C43_4 C 0.74208(9) 0.1171(4) 0.96389(14)
C48_4 C 0.71590(9) 0.1395(4) 0.97727(13)
C55_4 C 0.67898(9) 0.0237(4) 0.95232(13)
C63_4 C 0.63851(10) 0.0797(5) 0.91239(15)
H40_4 H 0.633291 0.191289 0.900574
H44_4 H 0.578624 0.006791 0.863016
loop_
_geom_bond_atom_site_label_1
_geom_bond_atom_site_label_2
_geom_bond_site_symmetry_1
_geom_bond_site_symmetry_2
Cu1 N1 1_555 1_555
N1 C1 1_555 1_555
C1 C3 1_555 1_555
C2 N1 1_555 1_555
C3 C5 1_555 1_555
H1 C1 1_555 1_555
C4 C2 1_555 1_555
H2 C2 1_555 1_555
C5 C4 1_555 1_555
H3 C3 1_555 1_555
H4 C4 1_555 1_555
C6 C5 1_555 1_555
C7 C6 1_555 1_555
C9 C7 1_555 1_555
C10 C7 1_555 1_555
C13 C9 1_555 1_555
H5 C9 1_555 1_555
C14 C10 1_555 1_555
C18 C13 1_555 1_555
H7 C13 1_555 1_555
H11 C18 1_555 1_555
C50 C45 1_555 1_555
C51 C45 1_555 1_555
C57 C50 1_555 1_555
C58 C50 1_555 1_555
C59 C51 1_555 1_555
C64 C57 1_555 1_555
H36 C59 1_555 1_555
H41 C64 1_555 1_555
H46 C70 1_555 1_555
C14 C18 1_555 1_555
C59 C64 1_555 1_555
C69 C65 1_555 1_555
C71 C69 1_555 1_555
H45 C69 1_555 1_555
N9 C71 1_555 1_555
H47 C71 1_555 1_555
H48 C72 1_555 1_555
Cu7 N9 1_555 1_555
C72 N9 1_555 1_555
H29 C47 1_555 1_555
H33 C54 1_555 1_555
C67 C62 1_555 1_555
H39 C62 1_555 1_555
N8 C67 1_555 1_555
H43 C67 1_555 1_555
Cu1 N8 1_555 1_555
C47 C54 1_555 1_555
C68 N8 1_555 1_555
H29_2 C47_2 1_555 1_555
H33_2 C54_2 1_555 1_555
C67_2 C62_2 1_555 1_555
H39_2 C62_2 1_555 1_555
N8_2 C67_2 1_555 1_555
H43_2 C67_2 1_555 1_555
Cu7 N8_2 1_555 1_555
C47_2 C54_2 1_555 1_555
C68_2 N8_2 1_555 1_555
C11 C8 1_555 1_555
C12 C8 1_555 1_555
C16 C11 1_555 1_555
C17 C12 1_555 1_555
C19 C15 1_555 1_555
C20 C16 1_555 1_555
H9 C16 1_555 1_555
H10 C17 1_555 1_555
C21 C19 1_555 1_555
C22 C19 1_555 1_555
H12 C20 1_555 1_555
H13 C21 1_555 1_555
C23 C21 1_555 1_555
C24 C22 1_555 1_555
H14 C22 1_555 1_555
S1 Mo1 1_555 1_555
S2 Mo1 1_555 1_555
N3 C23 1_555 1_555
H15 C23 1_555 1_555
H16 C24 1_555 1_555
Mo1 S3 1_555 1_555
Cu2 S1 1_555 1_555
I1 Cu2 1_555 1_555
Cu1 S1 1_555 1_555
Cu4 S2 1_555 1_555
S3 Cu4 1_555 1_555
S4 Mo1 1_555 1_555
I2 Cu4 1_555 1_555
N5 Cu4 1_555 1_555
Cu7 S3 1_555 1_555
C37 N5 1_555 1_555
C38 N5 1_555 1_555
C39 C37 1_555 1_555
H25 C37 1_555 1_555
C40 C38 1_555 1_555
H26 C38 1_555 1_555
H27 C39 1_555 1_555
C41 C39 1_555 1_555
H28 C40 1_555 1_555
C42 C41 1_555 1_555
C46 C42 1_555 1_555
C52 C46 1_555 1_555
C53 C46 1_555 1_555
C60 C52 1_555 1_555
C61 C53 1_555 1_555
H32 C53 1_555 1_555
C66 C60 1_555 1_555
H38 C61 1_555 1_555
H42 C66 1_555 1_555
C12 C15 1_555 1_555
C17 C20 1_555 1_555
C24 N3 1_555 1_555
S2 Cu1 1_555 1_555
N3 Cu2 1_555 1_555
Cu2 S4 1_555 1_555
S4 Cu7 1_555 1_555
C40 C41 1_555 1_555
C61 C66 1_555 1_555
C11_2 C8_2 1_555 1_555
C12_2 C8_2 1_555 1_555
C16_2 C11_2 1_555 1_555
C17_2 C12_2 1_555 1_555
C19_2 C15_2 1_555 1_555
C20_2 C16_2 1_555 1_555
H9_2 C16_2 1_555 1_555
H10_2 C17_2 1_555 1_555
C21_2 C19_2 1_555 1_555
C22_2 C19_2 1_555 1_555
H12_2 C20_2 1_555 1_555
H13_2 C21_2 1_555 1_555
C23_2 C21_2 1_555 1_555
C24_2 C22_2 1_555 1_555
H14_2 C22_2 1_555 1_555
S1_2 Mo1_2 1_555 1_555
S2_2 Mo1_2 1_555 1_555
N2 C25 1_555 1_555
N3_2 C23_2 1_555 1_555
H15_2 C23_2 1_555 1_555
H16_2 C24_2 1_555 1_555
Mo1_2 S3_2 1_555 1_555
Cu2_2 S1_2 1_555 1_555
C25 H17 1_555 1_555
C26 N2 1_555 1_555
I1_2 Cu2_2 1_555 1_555
C27 C25 1_555 1_555
H19 C27 1_555 1_555
H22 C34 1_555 1_555
C36 C34 1_555 1_555
H24 C36 1_555 1_555
N4 Cu3 1_555 1_555
Cu3 S1_2 1_555 1_555
Cu4_2 S2_2 1_555 1_555
S3_2 Cu4_2 1_555 1_555
S4_2 Mo1_2 1_555 1_555
I2_2 Cu4_2 1_555 1_555
N5_2 Cu4_2 1_555 1_555
Cu5 S3_2 1_555 1_555
C37_2 N5_2 1_555 1_555
C38_2 N5_2 1_555 1_555
N6 Cu5 1_555 1_555
N7 Cu5 1_555 1_555
C39_2 C37_2 1_555 1_555
H25_2 C37_2 1_555 1_555
C40_2 C38_2 1_555 1_555
H26_2 C38_2 1_555 1_555
H27_2 C39_2 1_555 1_555
C41_2 C39_2 1_555 1_555
H28_2 C40_2 1_555 1_555
C42_2 C41_2 1_555 1_555
C46_2 C42_2 1_555 1_555
C52_2 C46_2 1_555 1_555
C53_2 C46_2 1_555 1_555
C60_2 C52_2 1_555 1_555
C61_2 C53_2 1_555 1_555
H32_2 C53_2 1_555 1_555
C66_2 C60_2 1_555 1_555
H38_2 C61_2 1_555 1_555
H42_2 C66_2 1_555 1_555
C12_2 C15_2 1_555 1_555
C17_2 C20_2 1_555 1_555
C24_2 N3_2 1_555 1_555
S2_2 Cu3 1_555 1_555
N2 Cu3 1_555 1_555
N3_2 Cu2_2 1_555 1_555
Cu2_2 S4_2 1_555 1_555
S4_2 Cu5 1_555 1_555
C40_2 C41_2 1_555 1_555
C61_2 C66_2 1_555 1_555
N7 C25_2 1_555 1_555
C25_2 H17_2 1_555 1_555
C26_2 N7 1_555 1_555
C27_2 C25_2 1_555 1_555
H19_2 C27_2 1_555 1_555
H22_2 C34_2 1_555 1_555
C36_2 C34_2 1_555 1_555
H24_2 C36_2 1_555 1_555
C69_2 C65_2 1_555 1_555
C71_2 C69_2 1_555 1_555
H45_2 C69_2 1_555 1_555
N6 C71_2 1_555 1_555
H47_2 C71_2 1_555 1_555
H48_2 C72_2 1_555 1_555
C72_2 N6 1_555 1_555
N4 C1_2 1_555 1_555
C1_2 C3_2 1_555 1_555
C2_2 N4 1_555 1_555
C3_2 C5_2 1_555 1_555
H1_2 C1_2 1_555 1_555
C4_2 C2_2 1_555 1_555
H2_2 C2_2 1_555 1_555
C5_2 C4_2 1_555 1_555
H3_2 C3_2 1_555 1_555
H4_2 C4_2 1_555 1_555
C6_2 C5_2 1_555 1_555
C7_2 C6_2 1_555 1_555
C9_2 C7_2 1_555 1_555
C10_2 C7_2 1_555 1_555
C13_2 C9_2 1_555 1_555
H5_2 C9_2 1_555 1_555
C14_2 C10_2 1_555 1_555
C18_2 C13_2 1_555 1_555
H7_2 C13_2 1_555 1_555
H11_2 C18_2 1_555 1_555
C50_2 C45_2 1_555 1_555
C51_2 C45_2 1_555 1_555
C57_2 C50_2 1_555 1_555
C58_2 C50_2 1_555 1_555
C59_2 C51_2 1_555 1_555
C64_2 C57_2 1_555 1_555
H36_2 C59_2 1_555 1_555
H41_2 C64_2 1_555 1_555
H46_2 C70_2 1_555 1_555
C14_2 C18_2 1_555 1_555
C59_2 C64_2 1_555 1_555
H20 C28 1_555 1_555
C30 C29 1_555 1_555
C31 C30 1_555 1_555
C32 C30 1_555 1_555
C33 C31 1_555 1_555
C35 C33 1_555 1_555
H21 C33 1_555 1_555
H23 C35 1_555 1_555
C43 C31 1_555 1_555
C44 C32 1_555 1_555
C47_3 C43 1_555 1_555
C48 C43 1_555 1_555
C49 C44 1_555 1_555
H29_3 C47_3 1_555 1_555
C54_3 C35 1_555 1_555
C55 C48 1_555 1_555
H30 C49 1_555 1_555
H33_3 C54_3 1_555 1_555
C62_3 C55 1_555 1_555
C63 C55 1_555 1_555
H34 C56 1_555 1_555
C67_3 C62_3 1_555 1_555
H39_3 C62_3 1_555 1_555
H40 C63 1_555 1_555
C68_3 C63 1_555 1_555
N8_3 C67_3 1_555 1_555
H43_3 C67_3 1_555 1_555
H44 C68_3 1_555 1_555
Cu6 N8_3 1_555 1_555
C28 C29 1_555 1_555
C44 C48 1_555 1_555
C47_3 C54_3 1_555 1_555
C49 C56 1_555 1_555
C68_3 N8_3 1_555 1_555
H1_3 C1_3 1_555 1_555
Mo1_3 S3_3 1_555 1_555
S3_3 Cu4_3 1_555 1_555
I2_3 Cu4_3 1_555 1_555
H25_3 C37_3 1_555 1_555
H20_2 C28_2 1_555 1_555
C30_2 C29_2 1_555 1_555
C32_2 C30_2 1_555 1_555
C44_2 C32_2 1_555 1_555
C49_2 C44_2 1_555 1_555
H30_2 C49_2 1_555 1_555
H34_2 C56_2 1_555 1_555
C28_2 C29_2 1_555 1_555
C49_2 C56_2 1_555 1_555
C33_2 C31_2 1_555 1_555
C35_2 C33_2 1_555 1_555
H21_2 C33_2 1_555 1_555
H23_2 C35_2 1_555 1_555
C43_2 C31_2 1_555 1_555
C47_4 C43_2 1_555 1_555
C48_2 C43_2 1_555 1_555
H29_4 C47_4 1_555 1_555
C54_4 C35_2 1_555 1_555
C55_2 C48_2 1_555 1_555
H33_4 C54_4 1_555 1_555
C62_4 C55_2 1_555 1_555
C63_2 C55_2 1_555 1_555
C67_4 C62_4 1_555 1_555
H39_4 C62_4 1_555 1_555
H40_2 C63_2 1_555 1_555
C68_4 C63_2 1_555 1_555
N8_4 C67_4 1_555 1_555
H43_4 C67_4 1_555 1_555
H44_2 C68_4 1_555 1_555
Cu6_2 N8_4 1_555 1_555
C47_4 C54_4 1_555 1_555
C68_4 N8_4 1_555 1_555
H48_3 C72_3 1_555 1_555
S1_3 Mo1_4 1_555 1_555
H16_3 C24_3 1_555 1_555
Cu2_3 S1_3 1_555 1_555
I1_3 Cu2_3 1_555 1_555
C18_3 C13_3 1_555 1_555
H7_3 C13_3 1_555 1_555
H11_3 C18_3 1_555 1_555
C38_3 N5_3 1_555 1_555
C40_3 C38_3 1_555 1_555
H26_3 C38_3 1_555 1_555
H27_3 C39_3 1_555 1_555
C41_3 C39_3 1_555 1_555
H28_3 C40_3 1_555 1_555
C42_3 C41_3 1_555 1_555
C45_3 C42_3 1_555 1_555
C46_3 C42_3 1_555 1_555
C50_3 C45_3 1_555 1_555
C51_3 C45_3 1_555 1_555
C52_3 C46_3 1_555 1_555
C53_3 C46_3 1_555 1_555
C57_3 C50_3 1_555 1_555
C58_3 C50_3 1_555 1_555
H31_3 C51_3 1_555 1_555
C60_3 C52_3 1_555 1_555
C61_3 C53_3 1_555 1_555
H32_3 C53_3 1_555 1_555
C66_3 C60_3 1_555 1_555
H37_3 C60_3 1_555 1_555
H38_3 C61_3 1_555 1_555
H42_3 C66_3 1_555 1_555
H46_3 C70_3 1_555 1_555
C40_3 C41_3 1_555 1_555
C52_3 C58_3 1_555 1_555
C61_3 C66_3 1_555 1_555
C69_3 C65_3 1_555 1_555
C71_3 C69_3 1_555 1_555
H45_3 C69_3 1_555 1_555
N9_2 C71_3 1_555 1_555
H47_3 C71_3 1_555 1_555
C2_3 N4_2 1_555 1_555
C3_3 C5_3 1_555 1_555
C4_3 C2_3 1_555 1_555
H2_3 C2_3 1_555 1_555
C5_3 C4_3 1_555 1_555
H3_3 C3_3 1_555 1_555
H4_3 C4_3 1_555 1_555
C6_3 C5_3 1_555 1_555
C7_3 C6_3 1_555 1_555
C8_3 C6_3 1_555 1_555
C9_3 C7_3 1_555 1_555
C10_3 C7_3 1_555 1_555
C11_3 C8_3 1_555 1_555
C12_3 C8_3 1_555 1_555
H5_3 C9_3 1_555 1_555
C14_3 C10_3 1_555 1_555
C15_3 C10_3 1_555 1_555
C16_3 C11_3 1_555 1_555
H6_3 C11_3 1_555 1_555
C17_3 C12_3 1_555 1_555
H8_3 C14_3 1_555 1_555
C19_3 C15_3 1_555 1_555
C20_3 C16_3 1_555 1_555
H9_3 C16_3 1_555 1_555
H10_3 C17_3 1_555 1_555
C21_3 C19_3 1_555 1_555
C22_3 C19_3 1_555 1_555
H12_3 C20_3 1_555 1_555
H13_3 C21_3 1_555 1_555
C23_3 C21_3 1_555 1_555
H14_3 C22_3 1_555 1_555
N3_3 C23_3 1_555 1_555
H15_3 C23_3 1_555 1_555
H36_3 C59_3 1_555 1_555
H41_3 C64_3 1_555 1_555
C12_3 C15_3 1_555 1_555
C17_3 C20_3 1_555 1_555
C59_3 C64_3 1_555 1_555
N2_2 C25_3 1_555 1_555
Mo1_5 S3_4 1_555 1_555
C25_3 H17_3 1_555 1_555
C26_3 N2_2 1_555 1_555
C27_3 C25_3 1_555 1_555
C28_3 C26_3 1_555 1_555
H18_3 C26_3 1_555 1_555
H19_3 C27_3 1_555 1_555
C29_3 C27_3 1_555 1_555
H20_3 C28_3 1_555 1_555
C30_3 C29_3 1_555 1_555
C31_3 C30_3 1_555 1_555
C32_3 C30_3 1_555 1_555
C33_3 C31_3 1_555 1_555
C34_3 C32_3 1_555 1_555
C35_3 C33_3 1_555 1_555
H21_3 C33_3 1_555 1_555
H22_3 C34_3 1_555 1_555
C36_3 C34_3 1_555 1_555
H23_3 C35_3 1_555 1_555
H24_3 C36_3 1_555 1_555
S3_4 Cu4_4 1_555 1_555
I2_4 Cu4_4 1_555 1_555
H25_4 C37_4 1_555 1_555
C43_3 C31_3 1_555 1_555
C44_3 C32_3 1_555 1_555
C48_3 C43_3 1_555 1_555
C49_3 C44_3 1_555 1_555
C55_3 C48_3 1_555 1_555
C56_3 C36_3 1_555 1_555
H30_3 C49_3 1_555 1_555
C63_3 C55_3 1_555 1_555
H34_3 C56_3 1_555 1_555
H40_3 C63_3 1_555 1_555
N2_2 Cu3_2 1_555 1_555
C28_3 C29_3 1_555 1_555
C44_3 C48_3 1_555 1_555
C49_3 C56_3 1_555 1_555
H1_4 C1_4 1_555 1_555
C2_4 N1_2 1_555 1_555
C3_4 C5_4 1_555 1_555
C4_4 C2_4 1_555 1_555
H2_4 C2_4 1_555 1_555
C5_4 C4_4 1_555 1_555
H3_4 C3_4 1_555 1_555
H4_4 C4_4 1_555 1_555
C6_4 C5_4 1_555 1_555
C7_4 C6_4 1_555 1_555
C8_4 C6_4 1_555 1_555
C9_4 C7_4 1_555 1_555
C10_4 C7_4 1_555 1_555
C11_4 C8_4 1_555 1_555
C12_4 C8_4 1_555 1_555
H5_4 C9_4 1_555 1_555
C14_4 C10_4 1_555 1_555
C15_4 C10_4 1_555 1_555
C16_4 C11_4 1_555 1_555
H6_4 C11_4 1_555 1_555
C17_4 C12_4 1_555 1_555
H8_4 C14_4 1_555 1_555
C19_4 C15_4 1_555 1_555
C20_4 C16_4 1_555 1_555
H9_4 C16_4 1_555 1_555
H10_4 C17_4 1_555 1_555
C21_4 C19_4 1_555 1_555
C22_4 C19_4 1_555 1_555
H12_4 C20_4 1_555 1_555
H13_4 C21_4 1_555 1_555
C23_4 C21_4 1_555 1_555
H14_4 C22_4 1_555 1_555
N3_4 C23_4 1_555 1_555
H15_4 C23_4 1_555 1_555
H36_4 C59_4 1_555 1_555
H41_4 C64_4 1_555 1_555
C12_4 C15_4 1_555 1_555
C17_4 C20_4 1_555 1_555
C59_4 C64_4 1_555 1_555
C69_4 C65_4 1_555 1_555
C71_4 C69_4 1_555 1_555
H45_4 C69_4 1_555 1_555
N6_2 C71_4 1_555 1_555
H47_4 C71_4 1_555 1_555
C18_4 C13_4 1_555 1_555
H7_4 C13_4 1_555 1_555
H11_4 C18_4 1_555 1_555
C38_4 N5_4 1_555 1_555
C40_4 C38_4 1_555 1_555
H26_4 C38_4 1_555 1_555
H27_4 C39_4 1_555 1_555
C41_4 C39_4 1_555 1_555
H28_4 C40_4 1_555 1_555
C42_4 C41_4 1_555 1_555
C45_4 C42_4 1_555 1_555
C46_4 C42_4 1_555 1_555
C50_4 C45_4 1_555 1_555
C51_4 C45_4 1_555 1_555
C52_4 C46_4 1_555 1_555
C53_4 C46_4 1_555 1_555
C57_4 C50_4 1_555 1_555
C58_4 C50_4 1_555 1_555
H31_4 C51_4 1_555 1_555
C60_4 C52_4 1_555 1_555
C61_4 C53_4 1_555 1_555
H32_4 C53_4 1_555 1_555
C66_4 C60_4 1_555 1_555
H37_4 C60_4 1_555 1_555
H38_4 C61_4 1_555 1_555
H42_4 C66_4 1_555 1_555
H46_4 C70_4 1_555 1_555
C40_4 C41_4 1_555 1_555
C52_4 C58_4 1_555 1_555
C61_4 C66_4 1_555 1_555
S1_4 Mo1_6 1_555 1_555
H16_4 C24_4 1_555 1_555
Cu2_4 S1_4 1_555 1_555
I1_4 Cu2_4 1_555 1_555
N7_2 Cu5_2 1_555 1_555
N7_2 C25_4 1_555 1_555
C25_4 H17_4 1_555 1_555
C26_4 N7_2 1_555 1_555
C27_4 C25_4 1_555 1_555
C28_4 C26_4 1_555 1_555
H18_4 C26_4 1_555 1_555
H19_4 C27_4 1_555 1_555
C29_4 C27_4 1_555 1_555
H20_4 C28_4 1_555 1_555
C30_4 C29_4 1_555 1_555
C32_4 C30_4 1_555 1_555
C34_4 C32_4 1_555 1_555
H22_4 C34_4 1_555 1_555
C36_4 C34_4 1_555 1_555
H24_4 C36_4 1_555 1_555
C44_4 C32_4 1_555 1_555
C49_4 C44_4 1_555 1_555
C56_4 C36_4 1_555 1_555
H30_4 C49_4 1_555 1_555
H34_4 C56_4 1_555 1_555
C28_4 C29_4 1_555 1_555
C49_4 C56_4 1_555 1_555
H48_4 C72_4 1_555 1_555
C33_4 C31_4 1_555 1_555
C35_4 C33_4 1_555 1_555
H21_4 C33_4 1_555 1_555
H23_4 C35_4 1_555 1_555
C43_4 C31_4 1_555 1_555
C48_4 C43_4 1_555 1_555
C55_4 C48_4 1_555 1_555
C63_4 C55_4 1_555 1_555
H40_4 C63_4 1_555 1_555

#END
