
###############################################################################
#
# This file contains modified crystal structure data generated from the
# MOF subset of the Cambridge Structural Database (CSD) v543 
# hosted by the Cambridge Crystallographic Data Centre (CCDC).
#
# This work is licensed under the Creative Commons
# Attribution-NonCommercial-ShareAlike 4.0 International License.
# To view a copy of this license, visit
# http://creativecommons.org/licenses/by-nc-sa/4.0/
# or send a letter to
# Creative Commons, PO Box 1866, Mountain View, CA 94042, USA.
#
# CIF created using the CSD Python API on 29 September 2022
# The structure has been converted into the P1 space group
# The structure has a 3D framework
# The original CSD entry UCUKAI is in the triclinic crystal system
# The framework has been calculated to contain at least 10.0% void space
# The void calculation uses a probe of radius 1.32A, grid spacing 0.4
#
###############################################################################

data_UCUKAI
_chemical_formula_moiety         '(C264 H176 Cu24 I16 N22 S16 W4)n'
_symmetry_cell_setting           triclinic
_symmetry_space_group_name_H-M   'P 1'
_symmetry_Int_Tables_number      1
_space_group_name_Hall           'P 1'
loop_
_symmetry_equiv_pos_site_id
_symmetry_equiv_pos_as_xyz
1 x,y,z
_cell_length_a                   20.1785(10)
_cell_length_b                   20.2003(10)
_cell_length_c                   26.6623(14)
_cell_angle_alpha                109.032(2)
_cell_angle_beta                 103.717(3)
_cell_angle_gamma                100.951(2)
_cell_volume                     9548.67
loop_
_atom_site_label
_atom_site_type_symbol
_atom_site_fract_x
_atom_site_fract_y
_atom_site_fract_z
_atom_site_U_iso_or_equiv
_atom_site_thermal_displace_type
C20 C 0.0354(3) 0.8423(4) 0.1581(2) 0.0767 Uani
H13 H 0.033907 0.803625 0.125483 0.0920 Uiso
C23 C 0.0393(3) 0.9577(3) 0.2545(2) 0.0563 Uani
H15 H 0.041550 0.997599 0.286648 0.0680 Uiso
C24 C 0.0993(3) 0.9406(4) 0.2474(3) 0.0687 Uani
H16 H 0.143309 0.968047 0.276443 0.0820 Uiso
N2 N 0.1004(3) 0.8856(3) 0.2003(3) 0.0657 Uani
Cu31 Cu 0.18850(4) 0.86681(5) 0.18435(4) 0.0509 Uani
H33 H 0.209299 0.731756 0.011925 0.0840 Uiso
C53 C 0.3664(4) 0.7947(4) 0.0137(3) 0.0671 Uani
H36 H 0.410084 0.830162 0.038600 0.0810 Uiso
N5 N 0.3080(3) 0.7939(3) 0.0302(2) 0.0813 Uani
Cu29 Cu 0.31380(5) 0.86351(5) 0.10485(4) 0.0581 Uani
C15 C 0.9334(3) 0.0451(4) 0.2134(2) 0.0638 Uani
H9 H 0.980524 0.043743 0.214694 0.0770 Uiso
C16 C 0.9127(4) 0.1031(3) 0.2079(3) 0.0586 Uani
H10 H 0.942431 0.138727 0.200430 0.0700 Uiso
C17 C 0.8487(3) 0.1090(3) 0.2132(2) 0.0581 Uani
H11 H 0.837652 0.153364 0.215631 0.0700 Uiso
C18 C 0.7972(3) 0.0517(3) 0.2153(2) 0.0565 Uani
H12 H 0.750423 0.055110 0.213377 0.0680 Uiso
C49 C 0.2487(4) 0.7376(4) 0.9984(3) 0.0697 Uani
C50 C 0.2438(3) 0.6890(3) 0.9474(2) 0.0559 Uani
H34 H 0.200000 0.652750 0.924029 0.0670 Uiso
C51 C 0.3028(4) 0.6927(3) 0.9301(2) 0.0654 Uani
C52 C 0.3664(4) 0.7472(3) 0.9630(3) 0.0654 Uani
H35 H 0.407464 0.751560 0.951331 0.0790 Uiso
C54 C 0.3036(4) 0.6412(3) 0.8751(2) 0.0647 Uani
C55 C 0.3127(3) 0.5724(3) 0.8673(3) 0.0563 Uani
C56 C 0.3298(4) 0.5562(3) 0.9143(3) 0.0604 Uani
H37 H 0.334582 0.590790 0.950040 0.0720 Uiso
C57 C 0.3403(3) 0.4855(4) 0.9079(3) 0.0637 Uani
H38 H 0.352037 0.473258 0.939727 0.0760 Uiso
C58 C 0.3333(4) 0.4361(3) 0.8561(3) 0.0688 Uani
H39 H 0.339467 0.389270 0.851444 0.0820 Uiso
C59 C 0.3164(4) 0.4568(4) 0.8092(3) 0.0736 Uani
H40 H 0.312161 0.422935 0.773276 0.0880 Uiso
C60 C 0.3057(3) 0.5255(4) 0.8141(3) 0.0628 Uani
C61 C 0.2892(3) 0.5409(3) 0.7701(3) 0.0508 Uani
C62 C 0.2741(4) 0.6096(4) 0.7773(3) 0.0737 Uani
C63 C 0.2566(4) 0.6270(3) 0.7271(3) 0.0632 Uani
H41 H 0.252327 0.593621 0.691022 0.0760 Uiso
C64 C 0.2468(4) 0.6965(4) 0.7366(3) 0.0735 Uani
H42 H 0.236486 0.711148 0.705832 0.0880 Uiso
C65 C 0.2516(3) 0.7447(4) 0.7891(3) 0.0754 Uani
H43 H 0.241588 0.789924 0.793281 0.0900 Uiso
C66 C 0.2700(3) 0.7278(4) 0.8336(2) 0.0581 Uani
H44 H 0.276255 0.761551 0.870103 0.0700 Uiso
C67 C 0.2803(3) 0.6568(3) 0.8248(3) 0.0566 Uani
C68 C 0.1934(4) 0.3967(4) 0.6260(3) 0.0821 Uani
H45 H 0.146187 0.369720 0.601994 0.0980 Uiso
C69 C 0.2015(4) 0.4452(4) 0.6768(2) 0.0736 Uani
H46 H 0.162000 0.454109 0.688627 0.0880 Uiso
C70 C 0.2744(3) 0.4832(3) 0.7125(3) 0.0528 Uani
C71 C 0.3257(4) 0.4769(3) 0.6920(3) 0.0609 Uani
H47 H 0.372633 0.507560 0.714215 0.0730 Uiso
C72 C 0.3148(4) 0.4272(4) 0.6388(3) 0.0685 Uani
H48 H 0.354368 0.424395 0.625489 0.0820 Uiso
C73 C 0.1761(3) 0.0075(3) 0.4802(3) 0.0642 Uani
H49 H 0.166423 0.037003 0.511994 0.0770 Uiso
H52 H 0.213374 0.012389 0.368560 0.0640 Uiso
C121 C 0.1570(4) 0.0702(3) 0.2029(2) 0.0622 Uani
H81 H 0.191885 0.051103 0.219379 0.0750 Uiso
C122 C 0.1207(4) 0.0376(3) 0.1446(2) 0.0607 Uani
C123 C 0.0713(3) 0.0696(3) 0.1226(2) 0.0496 Uani
C124 C 0.0611(3) 0.1265(3) 0.1547(3) 0.0698 Uani
H83 H 0.030018 0.148669 0.137709 0.0840 Uiso
C125 C 0.0915(3) 0.1580(3) 0.2116(2) 0.0455 Uani
H84 H 0.079177 0.197812 0.234248 0.0550 Uiso
C126 C 0.0367(4) 0.0341(3) 0.0601(2) 0.0696 Uani
Cu1 Cu 0.34309(4) 0.30688(4) 0.44342(4) 0.0495 Uani
Cu2 Cu 0.19079(4) 0.16327(4) 0.31670(4) 0.0502 Uani
Cu3 Cu 0.18541(4) 0.13710(4) 0.45145(3) 0.0490 Uani
Cu4 Cu 0.22932(5) 0.31245(5) 0.52891(4) 0.0585 Uani
Cu5 Cu 0.06391(4) 0.23168(5) 0.39702(4) 0.0534 Uani
Cu6 Cu 0.18082(4) 0.35753(4) 0.38755(4) 0.0515 Uani
Cu10 Cu 0.34713(5) 0.00073(5) 0.31743(4) 0.0609 Uani
Cu12 Cu 0.35364(5) 0.03976(5) 0.18696(4) 0.0524 Uani
I1 I 0.33286(3) 0.42277(2) 0.52700(2) 0.0755 Uani
I2 I 0.04141(2) 0.29277(2) 0.31800(2) 0.0578 Uani
I3 I 0.30356(2) 0.12118(2) 0.36448(2) 0.0586 Uani
I4 I 0.12950(2) 0.20154(2) 0.53324(2) 0.0651 Uani
I8 I 0.43682(2) 0.03292(2) 0.42303(2) 0.0624 Uani
N6 N 0.2498(3) 0.3827(3) 0.60547(19) 0.0578 Uani
N7 N 0.1871(3) 0.0339(2) 0.4398(2) 0.0577 Uani
N11 N 0.1420(3) 0.1277(3) 0.23471(19) 0.0589 Uani
S1 S 0.25285(8) 0.28662(8) 0.36178(6) 0.0471 Uani
S2 S 0.11628(7) 0.14163(8) 0.36856(6) 0.0479 Uani
S3 S 0.29147(8) 0.23782(8) 0.48946(6) 0.0478 Uani
S4 S 0.15366(8) 0.33659(8) 0.46504(6) 0.0491 Uani
S8 S 0.41645(8) 0.02632(8) 0.26596(6) 0.0511 Uani
W1 W 0.20390(2) 0.25014(2) 0.42074(2) 0.0472 Uani
C142 C 0.1699(3) 0.0997(4) 0.0061(3) 0.0588 Uani
H95 H 0.217966 0.129600 0.021071 0.0700 Uiso
C143 C 0.1371(3) 0.0832(3) 0.0427(3) 0.0580 Uani
H96 H 0.161294 0.101331 0.081865 0.0700 Uiso
C144 C 0.0666(3) 0.0385(4) 0.0188(3) 0.0585 Uani
N25 N 0.3315(3) 0.1298(3) 0.1821(2) 0.0732 Uani
N29 N 0.2053(2) 0.4660(3) 0.3974(2) 0.0471 Uani
N31 N 0.4383(3) 0.2898(3) 0.4349(2) 0.0725 Uani
C1 C 0.6135(3) 0.9693(3) 0.2735(3) 0.0548 Uani
H1 H 0.603177 0.986024 0.307637 0.0660 Uiso
C2 C 0.6859(3) 0.9661(3) 0.2734(3) 0.0559 Uani
H2 H 0.723510 0.981609 0.307642 0.0670 Uiso
C3 C 0.6980(3) 0.9409(3) 0.2240(3) 0.0607 Uani
C4 C 0.6443(3) 0.9198(3) 0.1734(3) 0.0607 Uani
H3 H 0.653886 0.901917 0.139047 0.0730 Uiso
C5 C 0.5766(3) 0.9248(3) 0.1734(3) 0.0473 Uani
H4 H 0.539719 0.912586 0.139358 0.0570 Uiso
C6 C 0.7711(3) 0.9384(3) 0.2279(2) 0.0501 Uani
C7 C 0.7925(4) 0.8738(4) 0.2303(4) 0.0739 Uani
C8 C 0.7470(3) 0.8176(3) 0.2369(3) 0.0569 Uani
H5 H 0.701635 0.821854 0.239248 0.0680 Uiso
C9 C 0.7647(3) 0.7601(3) 0.2400(3) 0.0565 Uani
H6 H 0.732065 0.722316 0.243241 0.0680 Uiso
C10 C 0.8343(3) 0.7543(3) 0.2384(3) 0.0574 Uani
H7 H 0.849306 0.713844 0.242000 0.0690 Uiso
C11 C 0.8782(3) 0.8092(3) 0.2315(3) 0.0568 Uani
H8 H 0.923049 0.804243 0.228115 0.0680 Uiso
C12 C 0.8609(3) 0.8707(3) 0.2292(3) 0.0548 Uani
C13 C 0.9045(3) 0.9256(3) 0.2210(3) 0.0545 Uani
C14 C 0.8861(3) 0.9862(4) 0.2172(3) 0.0640 Uani
C19 C 0.8160(3) 0.9908(3) 0.2202(2) 0.0470 Uani
C21 C 0.9715(3) 0.8581(3) 0.1656(3) 0.0526 Uani
H14 H 0.926872 0.829491 0.137692 0.0630 Uiso
C22 C 0.9736(3) 0.9141(3) 0.2126(2) 0.0474 Uani
C25 C 0.2923(3) 0.6530(3) 0.1818(3) 0.0666 Uani
H17 H 0.278601 0.664939 0.149962 0.0800 Uiso
C26 C 0.2868(4) 0.5818(3) 0.1737(3) 0.0627 Uani
H18 H 0.265675 0.544558 0.137080 0.0760 Uiso
C27 C 0.3114(3) 0.5643(3) 0.2177(3) 0.0612 Uani
C28 C 0.3392(3) 0.6190(3) 0.2720(3) 0.0575 Uani
H19 H 0.354395 0.606933 0.303630 0.0690 Uiso
C29 C 0.3441(3) 0.6901(4) 0.2787(3) 0.0582 Uani
H20 H 0.366030 0.728977 0.314452 0.0700 Uiso
C30 C 0.3123(4) 0.4889(3) 0.2096(3) 0.0634 Uani
C31 C 0.2514(3) 0.4340(3) 0.2011(3) 0.0496 Uani
C32 C 0.1846(4) 0.4577(4) 0.2049(3) 0.0644 Uani
H21 H 0.183749 0.506473 0.210775 0.0770 Uiso
C33 C 0.1297(3) 0.4087(4) 0.1997(3) 0.0668 Uani
H22 H 0.088513 0.423479 0.203208 0.0800 Uiso
C34 C 0.1256(3) 0.3319(4) 0.1887(3) 0.0603 Uani
H23 H 0.081741 0.296455 0.179893 0.0720 Uiso
C35 C 0.1880(3) 0.3135(3) 0.1918(3) 0.0612 Uani
H24 H 0.189809 0.267462 0.193279 0.0730 Uiso
C36 C 0.2529(3) 0.3641(3) 0.1929(3) 0.0570 Uani
C37 C 0.3160(4) 0.3439(3) 0.1926(3) 0.0645 Uani
C38 C 0.3758(4) 0.3977(3) 0.2007(3) 0.0582 Uani
C39 C 0.4399(3) 0.3785(3) 0.1994(3) 0.0563 Uani
H25 H 0.441584 0.329833 0.193082 0.0680 Uiso
C40 C 0.5008(3) 0.4333(3) 0.2077(3) 0.0585 Uani
H26 H 0.544258 0.421661 0.207824 0.0700 Uiso
C41 C 0.4985(3) 0.5028(3) 0.2154(3) 0.0559 Uani
H27 H 0.540429 0.538735 0.221009 0.0670 Uiso
C42 C 0.4366(4) 0.5220(3) 0.2153(2) 0.0555 Uani
H28 H 0.435455 0.570481 0.220503 0.0670 Uiso
C43 C 0.3746(3) 0.4677(3) 0.2074(3) 0.0521 Uani
C44 C 0.3374(3) 0.1541(3) 0.1384(3) 0.0559 Uani
H29 H 0.348861 0.125158 0.107549 0.0670 Uiso
C45 C 0.3261(3) 0.2199(3) 0.1417(3) 0.0570 Uani
H30 H 0.324436 0.232467 0.110132 0.0690 Uiso
C46 C 0.3173(3) 0.2676(2) 0.1862(3) 0.0513 Uani
C47 C 0.3087(4) 0.2473(3) 0.2277(3) 0.0624 Uani
H31 H 0.295444 0.278242 0.256587 0.0750 Uiso
C48 C 0.3190(3) 0.1799(3) 0.2296(2) 0.0431 Uani
H32 H 0.317634 0.168269 0.261154 0.0520 Uiso
C74 C 0.1796(3) 0.9357(3) 0.4729(3) 0.0517 Uani
H50 H 0.173876 0.917318 0.500699 0.0620 Uiso
C75 C 0.1912(3) 0.8924(3) 0.4257(2) 0.0498 Uani
C76 C 0.2019(3) 0.9211(3) 0.3862(3) 0.0548 Uani
H51 H 0.209008 0.891226 0.353223 0.0660 Uiso
C77 C 0.2025(3) 0.9923(3) 0.3943(2) 0.0538 Uani
C78 C 0.1901(3) 0.8151(3) 0.4186(2) 0.0549 Uani
C79 C 0.2562(3) 0.7978(3) 0.4194(3) 0.0522 Uani
C80 C 0.3201(3) 0.8513(3) 0.4302(2) 0.0538 Uani
H53 H 0.320213 0.900072 0.435158 0.0650 Uiso
C81 C 0.3821(3) 0.8314(3) 0.4334(2) 0.0444 Uani
H54 H 0.425332 0.866964 0.440934 0.0530 Uiso
C82 C 0.3823(3) 0.7638(3) 0.4262(3) 0.0541 Uani
H55 H 0.426319 0.752480 0.429417 0.0650 Uiso
C83 C 0.3209(4) 0.7078(3) 0.4140(2) 0.0606 Uani
H56 H 0.322541 0.659300 0.408464 0.0730 Uiso
C84 C 0.2589(3) 0.7257(3) 0.4103(2) 0.0498 Uani
C85 C 0.1948(3) 0.6725(3) 0.4006(2) 0.0474 Uani
C86 C 0.1308(3) 0.6920(3) 0.3979(2) 0.0523 Uani
C87 C 0.0718(4) 0.6374(3) 0.3878(2) 0.0635 Uani
H57 H 0.075241 0.589878 0.384162 0.0770 Uiso
C88 C 0.0042(4) 0.6529(3) 0.3826(2) 0.0576 Uani
C89 C 0.0010(4) 0.7239(3) 0.3894(2) 0.0575 Uani
C90 C 0.0646(3) 0.7755(4) 0.3999(3) 0.0560 Uani
H60 H 0.063191 0.823613 0.403794 0.0670 Uiso
C91 C 0.1293(4) 0.7609(3) 0.4050(2) 0.0572 Uani
C92 C 0.2276(4) 0.5194(3) 0.4435(3) 0.0587 Uani
H61 H 0.246548 0.512854 0.477227 0.0700 Uiso
C93 C 0.2243(3) 0.5937(3) 0.4453(3) 0.0621 Uani
H62 H 0.240720 0.634823 0.479920 0.0750 Uiso
C94 C 0.1981(4) 0.6002(3) 0.3979(3) 0.0621 Uani
C95 C 0.1765(3) 0.5388(4) 0.3469(3) 0.0625 Uani
H63 H 0.160388 0.544244 0.312357 0.0750 Uiso
C96 C 0.1786(3) 0.4705(3) 0.3469(3) 0.0652 Uani
H64 H 0.162086 0.428293 0.312894 0.0790 Uiso
H82 H 0.129497 0.995746 0.121126 0.0730 Uiso
Cu9 Cu 0.34460(5) 0.81092(4) 0.24146(4) 0.0512 Uani
Cu11 Cu 0.46603(5) 0.94205(5) 0.23194(4) 0.0555 Uani
I5 I 0.19959(2) 0.75590(2) 0.09588(2) 0.0589 Uani
I6 I 0.48067(3) 0.88579(3) 0.31428(2) 0.0797 Uani
I7 I 0.40945(2) 0.98055(2) 0.10354(2) 0.0593 Uani
N1 N 0.5643(3) 0.9486(3) 0.2255(2) 0.0549 Uani
N3 N 0.3151(2) 0.7039(3) 0.2301(2) 0.0540 Uani
S5 S 0.24879(8) 0.93211(8) 0.13874(6) 0.0487 Uani
S6 S 0.27382(8) 0.87707(8) 0.26449(6) 0.0512 Uani
S7 S 0.37994(8) 0.83449(8) 0.17075(6) 0.0493 Uani
W2 W 0.32927(2) 0.92161(2) 0.21137(2) 0.0477 Uani
C97 C 0.9137(3) 0.1837(3) 0.3555(3) 0.0652 Uani
H65 H 0.921896 0.163042 0.320911 0.0790 Uiso
C98 C 0.8461(3) 0.1929(3) 0.3557(3) 0.0541 Uani
H66 H 0.809639 0.181886 0.321695 0.0650 Uiso
C99 C 0.8347(3) 0.2176(3) 0.4053(2) 0.0496 Uani
C100 C 0.8924(3) 0.2371(3) 0.4573(3) 0.0520 Uani
H67 H 0.884341 0.255347 0.492315 0.0630 Uiso
C101 C 0.9579(3) 0.2294(3) 0.4561(3) 0.0642 Uani
H68 H 0.995080 0.241128 0.489842 0.0770 Uiso
C102 C 0.7667(3) 0.2283(3) 0.4091(2) 0.0479 Uani
C103 C 0.7152(3) 0.1798(3) 0.4151(2) 0.0469 Uani
C104 C 0.7308(3) 0.1154(3) 0.4207(3) 0.0542 Uani
H69 H 0.776560 0.108898 0.422432 0.0650 Uiso
C105 C 0.6773(3) 0.0622(3) 0.4236(2) 0.0520 Uani
H70 H 0.684347 0.017064 0.423737 0.0620 Uiso
C106 C 0.6167(4) 0.0771(3) 0.4261(3) 0.0703 Uani
H71 H 0.583546 0.043466 0.432815 0.0840 Uiso
C107 C 0.5970(4) 0.1356(3) 0.4201(3) 0.0601 Uani
H72 H 0.550260 0.139249 0.417831 0.0720 Uiso
C108 C 0.6486(3) 0.1901(3) 0.4174(2) 0.0487 Uani
C109 C 0.6340(3) 0.2507(3) 0.4117(2) 0.0488 Uani
C110 C 0.6849(4) 0.3047(3) 0.4050(3) 0.0612 Uani
C111 C 0.6664(3) 0.3650(3) 0.4009(2) 0.0491 Uani
H73 H 0.621484 0.372084 0.402059 0.0590 Uiso
C112 C 0.7199(3) 0.4166(4) 0.3947(3) 0.0706 Uani
H74 H 0.710610 0.459178 0.390555 0.0850 Uiso
C113 C 0.7844(3) 0.4045(3) 0.3948(2) 0.0485 Uani
H75 H 0.820045 0.440239 0.392179 0.0580 Uiso
C114 C 0.7986(4) 0.3441(3) 0.3985(2) 0.0543 Uani
H76 H 0.843994 0.337541 0.398310 0.0650 Uiso
C115 C 0.7478(4) 0.2903(4) 0.4026(3) 0.0650 Uani
C116 C 0.4369(3) 0.2291(3) 0.3860(3) 0.0660 Uani
H77 H 0.392815 0.197177 0.358868 0.0790 Uiso
C117 C 0.5002(3) 0.2190(3) 0.3799(3) 0.0500 Uani
H78 H 0.499349 0.179519 0.348157 0.0600 Uiso
C118 C 0.5646(3) 0.2640(3) 0.4181(2) 0.0472 Uani
C119 C 0.5682(4) 0.3234(4) 0.4660(3) 0.0642 Uani
H79 H 0.612966 0.355647 0.491771 0.0770 Uiso
C120 C 0.5049(3) 0.3335(4) 0.4745(3) 0.0506 Uani
H80 H 0.506840 0.370972 0.507991 0.0610 Uiso
N9 N 0.9690(3) 0.2049(3) 0.4062(2) 0.0613 Uani
C139 C 0.0358(3) 0.0181(3) 0.9651(2) 0.0504 Uani
C140 C 0.0622(4) 0.0309(4) 0.9275(3) 0.0710 Uani
H93 H 0.034883 0.012668 0.888983 0.0850 Uiso
C141 C 0.1360(4) 0.0748(3) 0.9493(3) 0.0820 Uani
H94 H 0.160262 0.086099 0.925257 0.0980 Uiso
H154 H 0.037755 0.384599 0.625443 0.0690 Uiso
H155 H 0.042491 0.263758 0.613034 0.0690 Uiso
C241 C 0.0863(3) 0.8163(3) 0.6445(3) 0.0652 Uani
H161 H 0.078104 0.836958 0.679089 0.0790 Uiso
C242 C 0.1539(3) 0.8071(3) 0.6443(3) 0.0541 Uani
H162 H 0.190361 0.818114 0.678305 0.0650 Uiso
C243 C 0.1653(3) 0.7824(3) 0.5947(2) 0.0496 Uani
C244 C 0.1076(3) 0.7629(3) 0.5427(3) 0.0520 Uani
H163 H 0.115659 0.744653 0.507685 0.0630 Uiso
C245 C 0.0421(3) 0.7706(3) 0.5439(3) 0.0642 Uani
H164 H 0.004920 0.758872 0.510158 0.0770 Uiso
C246 C 0.2333(3) 0.7717(3) 0.5909(2) 0.0479 Uani
C247 C 0.2848(3) 0.8202(3) 0.5849(2) 0.0469 Uani
C248 C 0.2692(3) 0.8846(3) 0.5793(3) 0.0542 Uani
H165 H 0.223440 0.891102 0.577568 0.0650 Uiso
C249 C 0.3227(3) 0.9378(3) 0.5764(2) 0.0520 Uani
H166 H 0.315653 0.982936 0.576263 0.0620 Uiso
C250 C 0.3833(4) 0.9229(3) 0.5739(3) 0.0703 Uani
H167 H 0.416454 0.956534 0.567185 0.0840 Uiso
C251 C 0.4030(4) 0.8644(3) 0.5799(3) 0.0601 Uani
H168 H 0.449740 0.860751 0.582169 0.0720 Uiso
C252 C 0.3514(3) 0.8099(3) 0.5826(2) 0.0487 Uani
C253 C 0.3660(3) 0.7493(3) 0.5883(2) 0.0488 Uani
C254 C 0.3151(4) 0.6953(3) 0.5950(3) 0.0612 Uani
C255 C 0.3336(3) 0.6350(3) 0.5991(2) 0.0491 Uani
H169 H 0.378516 0.627916 0.597941 0.0590 Uiso
C256 C 0.2801(3) 0.5834(4) 0.6053(3) 0.0706 Uani
H170 H 0.289390 0.540822 0.609445 0.0850 Uiso
C257 C 0.2156(3) 0.5955(3) 0.6052(2) 0.0485 Uani
H171 H 0.179955 0.559761 0.607821 0.0580 Uiso
C258 C 0.2014(4) 0.6559(3) 0.6015(2) 0.0543 Uani
H172 H 0.156006 0.662459 0.601690 0.0650 Uiso
C259 C 0.2522(4) 0.7097(4) 0.5974(3) 0.0650 Uani
C260 C 0.5631(3) 0.7709(3) 0.6140(3) 0.0660 Uani
H173 H 0.607185 0.802823 0.641132 0.0790 Uiso
C261 C 0.4998(3) 0.7810(3) 0.6201(3) 0.0500 Uani
H174 H 0.500651 0.820481 0.651843 0.0600 Uiso
C262 C 0.4354(3) 0.7360(3) 0.5819(2) 0.0472 Uani
C263 C 0.4318(4) 0.6766(4) 0.5340(3) 0.0642 Uani
H175 H 0.387034 0.644353 0.508229 0.0770 Uiso
C264 C 0.4951(3) 0.6665(4) 0.5255(3) 0.0506 Uani
H176 H 0.493160 0.629028 0.492009 0.0610 Uiso
N21 N 0.0310(3) 0.7951(3) 0.5938(2) 0.0613 Uani
N22 N 0.5617(3) 0.7102(3) 0.5651(2) 0.0725 Uani
Cu26 Cu 0.65691(4) 0.69312(4) 0.55658(4) 0.0495 Uani
H90 H 0.870503 0.004254 0.878874 0.0730 Uiso
C145 C 0.3865(3) 0.0307(3) 0.7265(3) 0.0548 Uani
H97 H 0.396823 0.013976 0.692363 0.0660 Uiso
C146 C 0.3141(3) 0.0339(3) 0.7266(3) 0.0559 Uani
H98 H 0.276490 0.018391 0.692358 0.0670 Uiso
C147 C 0.3020(3) 0.0591(3) 0.7760(3) 0.0607 Uani
C148 C 0.3557(3) 0.0802(3) 0.8266(3) 0.0607 Uani
H99 H 0.346114 0.098083 0.860953 0.0730 Uiso
C149 C 0.4234(3) 0.0752(3) 0.8266(3) 0.0473 Uani
H100 H 0.460281 0.087414 0.860642 0.0570 Uiso
C150 C 0.2289(3) 0.0616(3) 0.7721(2) 0.0501 Uani
C151 C 0.2075(4) 0.1262(4) 0.7697(4) 0.0739 Uani
C152 C 0.2530(3) 0.1824(3) 0.7631(3) 0.0569 Uani
H101 H 0.298365 0.178146 0.760752 0.0680 Uiso
C153 C 0.2353(3) 0.2399(3) 0.7600(3) 0.0565 Uani
H102 H 0.267935 0.277684 0.756759 0.0680 Uiso
C154 C 0.1657(3) 0.2457(3) 0.7616(3) 0.0574 Uani
H103 H 0.150694 0.286156 0.758000 0.0690 Uiso
C155 C 0.1218(3) 0.1908(3) 0.7685(3) 0.0568 Uani
H104 H 0.076951 0.195757 0.771885 0.0680 Uiso
C156 C 0.1391(3) 0.1293(3) 0.7708(3) 0.0548 Uani
C157 C 0.0955(3) 0.0744(3) 0.7790(3) 0.0545 Uani
C158 C 0.1139(3) 0.0138(4) 0.7828(3) 0.0640 Uani
C163 C 0.1840(3) 0.0092(3) 0.7798(2) 0.0470 Uani
C165 C 0.0285(3) 0.1419(3) 0.8344(3) 0.0526 Uani
H110 H 0.073128 0.170509 0.862308 0.0630 Uiso
C166 C 0.0264(3) 0.0859(3) 0.7874(2) 0.0474 Uani
C169 C 0.7077(3) 0.3470(3) 0.8182(3) 0.0666 Uani
H113 H 0.721399 0.335061 0.850038 0.0800 Uiso
C170 C 0.7132(4) 0.4182(3) 0.8263(3) 0.0627 Uani
H114 H 0.734325 0.455442 0.862920 0.0760 Uiso
C171 C 0.6886(3) 0.4357(3) 0.7823(3) 0.0612 Uani
C172 C 0.6608(3) 0.3810(3) 0.7280(3) 0.0575 Uani
H115 H 0.645605 0.393067 0.696370 0.0690 Uiso
C173 C 0.6559(3) 0.3099(4) 0.7213(3) 0.0582 Uani
H116 H 0.633970 0.271023 0.685548 0.0700 Uiso
C174 C 0.6877(4) 0.5111(3) 0.7904(3) 0.0634 Uani
C175 C 0.7486(3) 0.5660(3) 0.7989(3) 0.0496 Uani
C176 C 0.8154(4) 0.5423(4) 0.7951(3) 0.0644 Uani
H117 H 0.816251 0.493527 0.789225 0.0770 Uiso
C177 C 0.8703(3) 0.5913(4) 0.8003(3) 0.0668 Uani
H118 H 0.911487 0.576521 0.796792 0.0800 Uiso
C178 C 0.8744(3) 0.6681(4) 0.8113(3) 0.0603 Uani
H119 H 0.918259 0.703545 0.820107 0.0720 Uiso
C179 C 0.8120(3) 0.6865(3) 0.8082(3) 0.0612 Uani
H120 H 0.810191 0.732538 0.806721 0.0730 Uiso
C180 C 0.7471(3) 0.6359(3) 0.8071(3) 0.0570 Uani
C181 C 0.6840(4) 0.6561(3) 0.8074(3) 0.0645 Uani
C182 C 0.6242(4) 0.6023(3) 0.7993(3) 0.0582 Uani
C183 C 0.5601(3) 0.6215(3) 0.8006(3) 0.0563 Uani
H121 H 0.558416 0.670167 0.806918 0.0680 Uiso
C184 C 0.4992(3) 0.5667(3) 0.7923(3) 0.0585 Uani
H122 H 0.455742 0.578339 0.792176 0.0700 Uiso
C185 C 0.5015(3) 0.4972(3) 0.7846(3) 0.0559 Uani
H123 H 0.459571 0.461265 0.778991 0.0670 Uiso
C186 C 0.5634(4) 0.4780(3) 0.7847(2) 0.0555 Uani
H124 H 0.564545 0.429519 0.779497 0.0670 Uiso
C187 C 0.6254(3) 0.5323(3) 0.7926(3) 0.0521 Uani
C188 C 0.6626(3) 0.8459(3) 0.8616(3) 0.0559 Uani
H125 H 0.651139 0.874842 0.892451 0.0670 Uiso
C189 C 0.6739(3) 0.7801(3) 0.8583(3) 0.0570 Uani
H126 H 0.675564 0.767533 0.889868 0.0690 Uiso
C190 C 0.6827(3) 0.7324(2) 0.8138(3) 0.0513 Uani
C191 C 0.6913(4) 0.7527(3) 0.7723(3) 0.0624 Uani
H127 H 0.704556 0.721758 0.743413 0.0750 Uiso
C192 C 0.6810(3) 0.8201(3) 0.7704(2) 0.0431 Uani
H128 H 0.682366 0.831731 0.738846 0.0520 Uiso
C218 C 0.8204(3) 0.0643(3) 0.5271(3) 0.0517 Uani
H146 H 0.826124 0.082682 0.499301 0.0620 Uiso
C219 C 0.8088(3) 0.1076(3) 0.5743(2) 0.0498 Uani
C220 C 0.7981(3) 0.0789(3) 0.6138(3) 0.0548 Uani
H147 H 0.790992 0.108774 0.646777 0.0660 Uiso
C221 C 0.7975(3) 0.0077(3) 0.6057(2) 0.0538 Uani
C222 C 0.8099(3) 0.1849(3) 0.5814(2) 0.0549 Uani
C223 C 0.7438(3) 0.2022(3) 0.5806(3) 0.0522 Uani
C224 C 0.6799(3) 0.1487(3) 0.5698(2) 0.0538 Uani
H149 H 0.679787 0.099928 0.564842 0.0650 Uiso
C225 C 0.6179(3) 0.1686(3) 0.5666(2) 0.0444 Uani
H150 H 0.574668 0.133036 0.559066 0.0530 Uiso
C226 C 0.6177(3) 0.2362(3) 0.5738(3) 0.0541 Uani
H151 H 0.573681 0.247520 0.570583 0.0650 Uiso
C227 C 0.6791(4) 0.2922(3) 0.5860(2) 0.0606 Uani
H152 H 0.677459 0.340700 0.591536 0.0730 Uiso
C228 C 0.7411(3) 0.2743(3) 0.5897(2) 0.0498 Uani
C229 C 0.8052(3) 0.3275(3) 0.5994(2) 0.0474 Uani
C230 C 0.8692(3) 0.3080(3) 0.6021(2) 0.0523 Uani
C231 C 0.9282(4) 0.3626(3) 0.6122(2) 0.0635 Uani
H153 H 0.924759 0.410122 0.615838 0.0770 Uiso
C232 C 0.9958(4) 0.3471(3) 0.6174(2) 0.0576 Uani
C233 C 0.9990(4) 0.2761(3) 0.6106(2) 0.0575 Uani
C234 C 0.9354(3) 0.2245(4) 0.6001(3) 0.0560 Uani
H156 H 0.936809 0.176387 0.596206 0.0670 Uiso
C235 C 0.8707(4) 0.2391(3) 0.5950(2) 0.0572 Uani
C236 C 0.7724(4) 0.4806(3) 0.5565(3) 0.0587 Uani
H157 H 0.753452 0.487146 0.522773 0.0700 Uiso
C237 C 0.7757(3) 0.4063(3) 0.5547(3) 0.0621 Uani
H158 H 0.759280 0.365177 0.520080 0.0750 Uiso
C238 C 0.8019(4) 0.3998(3) 0.6021(3) 0.0621 Uani
C239 C 0.8235(3) 0.4612(4) 0.6531(3) 0.0625 Uani
H159 H 0.839612 0.455756 0.687643 0.0750 Uiso
C240 C 0.8214(3) 0.5295(3) 0.6531(3) 0.0652 Uani
H160 H 0.837914 0.571707 0.687106 0.0790 Uiso
Cu19 Cu 0.68620(5) 0.13649(5) 0.89515(4) 0.0581 Uani
Cu20 Cu 0.81150(4) 0.13319(5) 0.81565(4) 0.0509 Uani
Cu21 Cu 0.65540(5) 0.18908(4) 0.75854(4) 0.0512 Uani
Cu23 Cu 0.53397(5) 0.05795(5) 0.76806(4) 0.0555 Uani
I13 I 0.80041(2) 0.24410(2) 0.90412(2) 0.0589 Uani
I14 I 0.51933(3) 0.11421(3) 0.68572(2) 0.0797 Uani
I15 I 0.59055(2) 0.01945(2) 0.89646(2) 0.0593 Uani
N13 N 0.4357(3) 0.0514(3) 0.7745(2) 0.0549 Uani
N15 N 0.6849(2) 0.2961(3) 0.7699(2) 0.0540 Uani
N16 N 0.6685(3) 0.8702(3) 0.8179(2) 0.0732 Uani
N20 N 0.7947(2) 0.5340(3) 0.6026(2) 0.0471 Uani
S13 S 0.75121(8) 0.06789(8) 0.86126(6) 0.0487 Uani
S14 S 0.72618(8) 0.12293(8) 0.73551(6) 0.0512 Uani
S15 S 0.62006(8) 0.16551(8) 0.82925(6) 0.0493 Uani
W4 W 0.67073(2) 0.07839(2) 0.78863(2) 0.0477 Uani
Cu28 Cu 0.81918(4) 0.64247(4) 0.61245(4) 0.0515 Uani
Cu34 Cu 0.64636(5) 0.96024(5) 0.81304(4) 0.0524 Uani
N24 N 0.8996(3) 0.1144(3) 0.7997(3) 0.0657 Uani
N28 N 0.6920(3) 0.2061(3) 0.9698(2) 0.0813 Uani
C130 C 0.8301(3) 0.9003(4) 0.9939(3) 0.0588 Uani
H87 H 0.782034 0.870400 0.978929 0.0700 Uiso
C131 C 0.8629(3) 0.9168(3) 0.9573(3) 0.0580 Uani
H88 H 0.838706 0.898669 0.918135 0.0700 Uiso
C132 C 0.9334(3) 0.9615(4) 0.9812(3) 0.0585 Uani
C133 C 0.8430(4) 0.9298(3) 0.7971(2) 0.0622 Uani
H89 H 0.808115 0.948897 0.780621 0.0750 Uiso
C134 C 0.8793(4) 0.9624(3) 0.8554(2) 0.0607 Uani
C135 C 0.9287(3) 0.9304(3) 0.8774(2) 0.0496 Uani
C136 C 0.9389(3) 0.8735(3) 0.8453(3) 0.0698 Uani
H91 H 0.969982 0.851331 0.862291 0.0840 Uiso
C137 C 0.9085(3) 0.8420(3) 0.7884(2) 0.0455 Uani
H92 H 0.920823 0.802188 0.765752 0.0550 Uiso
C138 C 0.9633(4) 0.9659(3) 0.9399(2) 0.0696 Uani
N12 N 0.8580(3) 0.8723(3) 0.76529(19) 0.0589 Uani
C159 C 0.0666(3) 0.9549(4) 0.7866(2) 0.0638 Uani
H105 H 0.019476 0.956257 0.785306 0.0770 Uiso
C160 C 0.0873(4) 0.8969(3) 0.7921(3) 0.0586 Uani
H106 H 0.057569 0.861273 0.799570 0.0700 Uiso
C161 C 0.1513(3) 0.8910(3) 0.7868(2) 0.0581 Uani
H107 H 0.162348 0.846636 0.784369 0.0700 Uiso
C162 C 0.2028(3) 0.9483(3) 0.7847(2) 0.0565 Uani
H108 H 0.249577 0.944890 0.786623 0.0680 Uiso
C193 C 0.7513(4) 0.2624(4) 0.0016(3) 0.0697 Uani
C194 C 0.7562(3) 0.3110(3) 0.0526(2) 0.0559 Uani
H130 H 0.800000 0.347250 0.075971 0.0670 Uiso
C195 C 0.6972(4) 0.3073(3) 0.0699(2) 0.0654 Uani
C196 C 0.6336(4) 0.2528(3) 0.0370(3) 0.0654 Uani
H131 H 0.592536 0.248440 0.048669 0.0790 Uiso
C198 C 0.6964(4) 0.3588(3) 0.1249(2) 0.0647 Uani
C199 C 0.6873(3) 0.4276(3) 0.1327(3) 0.0563 Uani
C200 C 0.6702(4) 0.4438(3) 0.0857(3) 0.0604 Uani
H133 H 0.665418 0.409210 0.049960 0.0720 Uiso
C201 C 0.6597(3) 0.5145(4) 0.0921(3) 0.0637 Uani
H134 H 0.647963 0.526742 0.060273 0.0760 Uiso
C202 C 0.6667(4) 0.5639(3) 0.1439(3) 0.0688 Uani
H135 H 0.660533 0.610730 0.148556 0.0820 Uiso
C203 C 0.6836(4) 0.5432(4) 0.1908(3) 0.0736 Uani
H136 H 0.687839 0.577065 0.226724 0.0880 Uiso
C204 C 0.6943(3) 0.4745(4) 0.1859(3) 0.0628 Uani
C205 C 0.7108(3) 0.4591(3) 0.2299(3) 0.0508 Uani
C206 C 0.7259(4) 0.3904(4) 0.2227(3) 0.0737 Uani
C207 C 0.7434(4) 0.3730(3) 0.2729(3) 0.0632 Uani
H137 H 0.747673 0.406379 0.308978 0.0760 Uiso
C208 C 0.7532(4) 0.3035(4) 0.2634(3) 0.0735 Uani
H138 H 0.763514 0.288852 0.294168 0.0880 Uiso
C209 C 0.7484(3) 0.2553(4) 0.2109(3) 0.0754 Uani
H139 H 0.758412 0.210076 0.206719 0.0900 Uiso
C210 C 0.7300(3) 0.2722(4) 0.1664(2) 0.0581 Uani
H140 H 0.723745 0.238449 0.129897 0.0700 Uiso
C211 C 0.7197(3) 0.3432(3) 0.1752(3) 0.0566 Uani
C212 C 0.8066(4) 0.6033(4) 0.3740(3) 0.0821 Uani
H141 H 0.853813 0.630280 0.398006 0.0980 Uiso
C213 C 0.7985(4) 0.5548(4) 0.3232(2) 0.0736 Uani
H142 H 0.838000 0.545891 0.311373 0.0880 Uiso
C214 C 0.7256(3) 0.5168(3) 0.2875(3) 0.0528 Uani
C215 C 0.6743(4) 0.5231(3) 0.3080(3) 0.0609 Uani
H143 H 0.627367 0.492440 0.285785 0.0730 Uiso
C216 C 0.6852(4) 0.5728(4) 0.3612(3) 0.0685 Uani
H144 H 0.645632 0.575605 0.374511 0.0820 Uiso
C217 C 0.8239(3) 0.9925(3) 0.5198(3) 0.0642 Uani
H145 H 0.833577 0.962997 0.488006 0.0770 Uiso
H148 H 0.786626 0.987611 0.631440 0.0640 Uiso
Cu14 Cu 0.80921(4) 0.83673(4) 0.68330(4) 0.0502 Uani
Cu15 Cu 0.81459(4) 0.86290(4) 0.54855(3) 0.0490 Uani
Cu16 Cu 0.77068(5) 0.68755(5) 0.47109(4) 0.0585 Uani
Cu17 Cu 0.93609(4) 0.76832(5) 0.60298(4) 0.0534 Uani
Cu22 Cu 0.65287(5) 0.99927(5) 0.68257(4) 0.0609 Uani
I9 I 0.66714(3) 0.57723(2) 0.47300(2) 0.0755 Uani
I10 I 0.95859(2) 0.70723(2) 0.68200(2) 0.0578 Uani
I11 I 0.69644(2) 0.87882(2) 0.63552(2) 0.0586 Uani
I12 I 0.87050(2) 0.79846(2) 0.46676(2) 0.0651 Uani
I16 I 0.56318(2) 0.96708(2) 0.57697(2) 0.0624 Uani
N18 N 0.7502(3) 0.6173(3) 0.39453(19) 0.0578 Uani
N19 N 0.8129(3) 0.9661(2) 0.5602(2) 0.0577 Uani
S9 S 0.74715(8) 0.71338(8) 0.63822(6) 0.0471 Uani
S10 S 0.88372(7) 0.85837(8) 0.63144(6) 0.0479 Uani
S11 S 0.70853(8) 0.76218(8) 0.51054(6) 0.0478 Uani
S12 S 0.84634(8) 0.66341(8) 0.53496(6) 0.0491 Uani
S16 S 0.58355(8) 0.97368(8) 0.73404(6) 0.0511 Uani
W3 W 0.79610(2) 0.74986(2) 0.57926(2) 0.0472 Uani
H129 H 0.790701 0.268244 0.988075 0.0840 Uiso
C197 C 0.6336(4) 0.2053(4) 0.9863(3) 0.0671 Uani
H132 H 0.589916 0.169838 0.961400 0.0810 Uiso
C164 C 0.9646(3) 0.1577(4) 0.8419(2) 0.0767 Uani
H109 H 0.966093 0.196375 0.874517 0.0920 Uiso
C167 C 0.9607(3) 0.0423(3) 0.7455(2) 0.0563 Uani
H111 H 0.958450 0.002401 0.713352 0.0680 Uiso
C168 C 0.9007(3) 0.0594(4) 0.7526(3) 0.0687 Uani
H112 H 0.856691 0.031953 0.723557 0.0820 Uiso
H58 H 0.962245 0.615401 0.374557 0.0690 Uiso
H59 H 0.957509 0.736242 0.386966 0.0690 Uiso
C127 C 0.9642(3) 0.9819(3) 0.0349(2) 0.0504 Uani
C128 C 0.9378(4) 0.9691(4) 0.0725(3) 0.0710 Uani
H85 H 0.965117 0.987332 0.111017 0.0850 Uiso
C129 C 0.8640(4) 0.9252(3) 0.0507(3) 0.0820 Uani
H86 H 0.839738 0.913901 0.074743 0.0980 Uiso
loop_
_atom_site_aniso_label
_atom_site_aniso_U_11
_atom_site_aniso_U_22
_atom_site_aniso_U_33
_atom_site_aniso_U_23
_atom_site_aniso_U_13
_atom_site_aniso_U_12
C20 0.044 0.111 0.028 -0.011 0.006 -0.007
C23 0.041 0.047 0.036 -0.006 -0.009 -0.02
C24 0.041 0.065 0.051 -0.023 0.023 -0.022
N2 0.067 0.041 0.087 0.018 0.042 0.002
Cu31 0.0392 0.0526 0.0552 0.0162 0.0118 0.0135
C53 0.093 0.063 0.042 0.014 0.029 0.018
N5 0.072 0.076 0.041 -0.014 0.01 -0.024
Cu29 0.0551 0.0566 0.0526 0.0131 0.0111 0.0166
C15 0.033 0.088 0.038 -0.002 0.007 -0.001
C16 0.056 0.05 0.053 0.014 0.019 -0.013
C17 0.075 0.043 0.044 0.002 0.014 0.023
C18 0.035 0.065 0.049 0.022 -0.002 -0.011
C49 0.086 0.064 0.061 0.017 0.041 0.017
C50 0.043 0.057 0.046 0.006 0.007 0.001
C51 0.065 0.049 0.052 -0.001 0.017 -0.011
C52 0.065 0.049 0.052 -0.001 0.017 -0.011
C54 0.062 0.073 0.063 0.025 0.024 0.026
C55 0.052 0.063 0.056 0.017 0.02 0.029
C56 0.072 0.05 0.051 0.016 0.017 0.01
C57 0.051 0.072 0.045 -0.006 0.014 0.02
C58 0.099 0.045 0.056 0.017 0.024 0.013
C59 0.096 0.063 0.052 0.011 0.003 0.048
C60 0.033 0.07 0.05 -0.006 -0.013 0.022
C61 0.036 0.056 0.058 0.019 0.016 0.013
C62 0.052 0.089 0.059 0.027 -0.01 0.012
C63 0.066 0.045 0.054 0.004 -0.002 0.016
C64 0.069 0.079 0.061 0.008 0.019 0.033
C65 0.05 0.075 0.076 0.029 -0.005 -0.005
C66 0.047 0.075 0.035 0.003 0.008 0.019
C67 0.063 0.036 0.055 -0.006 0.025 0.014
C68 0.053 0.056 0.086 -0.022 0.016 -0.001
C69 0.09 0.064 0.031 0.009 0 -0.015
C70 0.041 0.046 0.056 0.007 0.017 0
C71 0.069 0.059 0.05 0.026 0.019 0
C72 0.068 0.077 0.048 0.016 0.03 -0.006
C73 0.049 0.049 0.044 -0.023 -0.006 0.002
C121 0.058 0.053 0.034 0.001 -0.008 -0.019
C122 0.071 0.055 0.042 0.01 -0.003 0.03
C123 0.039 0.053 0.06 0.015 0.024 0.023
C124 0.045 0.029 0.106 0.021 -0.019 0.01
C125 0.058 0.027 0.054 0.006 0.031 0.019
C126 0.061 0.049 0.065 -0.01 0.011 0.01
Cu1 0.0389 0.0471 0.055 0.0127 0.0129 0.0118
Cu2 0.0426 0.0486 0.0554 0.0153 0.0141 0.0156
Cu3 0.0449 0.0455 0.0518 0.0151 0.0129 0.0128
Cu4 0.0597 0.0584 0.0523 0.0142 0.0134 0.0247
Cu5 0.0421 0.052 0.0596 0.015 0.0136 0.0149
Cu6 0.0467 0.0484 0.0545 0.0155 0.0136 0.0146
Cu10 0.0627 0.0554 0.0585 0.0147 0.0203 0.0162
Cu12 0.0473 0.0493 0.0568 0.0168 0.0145 0.0157
I1 0.0728 0.0548 0.0561 -0.00868 -0.0128 0.0201
I2 0.0634 0.0482 0.0518 0.01395 0.01069 0.01416
I3 0.0699 0.0399 0.0499 -0.00121 0.0197 0.01292
I4 0.0624 0.0487 0.047 0.00218 -0.00641 -0.0063
I8 0.0724 0.0483 0.0608 0.01499 0.0281 0.0074
N6 0.06 0.05 0.029 -0.003 -0.012 0.006
N7 0.08 0.031 0.053 0.002 0.025 0.017
N11 0.05 0.047 0.032 -0.012 -0.007 -0.017
S1 0.0419 0.0469 0.0507 0.0159 0.015 0.0144
S2 0.0368 0.0509 0.0532 0.0168 0.0126 0.0152
S3 0.0482 0.045 0.043 0.0114 0.0114 0.012
S4 0.0452 0.0473 0.0503 0.0144 0.0127 0.015
S8 0.0474 0.0471 0.0535 0.0144 0.0145 0.0135
W1 0.04077 0.04538 0.05052 0.01329 0.01232 0.01402
C142 0.039 0.069 0.062 0.035 0.001 0.004
C143 0.041 0.062 0.043 -0.011 0.008 0.016
C144 0.035 0.067 0.07 0.025 0.013 0.015
N25 0.043 0.065 0.068 -0.009 -0.011 0.018
N29 0.033 0.065 0.058 0.027 0.03 0.022
N31 0.095 0.045 0.031 -0.008 -0.004 -0.011
C1 0.056 0.048 0.056 0.014 0.019 0.015
C2 0.049 0.035 0.062 0.01 0.009 -0.009
C3 0.041 0.059 0.045 -0.015 0.0004 0.012
C4 0.041 0.059 0.045 -0.015 0.0004 0.012
C5 0.033 0.04 0.061 0.012 0.014 0.008
C6 0.04 0.044 0.05 0.014 -0.01 0.015
C7 0.053 0.087 0.114 0.055 0.041 0.046
C8 0.049 0.054 0.07 0.023 0.023 0.017
C9 0.04 0.052 0.052 0.005 0.008 -0.007
C10 0.06 0.054 0.07 0.024 0.033 0.028
C11 0.03 0.051 0.055 0.002 -0.012 0.001
C12 0.049 0.051 0.074 0.026 0.033 0.016
C13 0.031 0.035 0.064 -0.011 0 0.009
C14 0.05 0.067 0.042 -0.018 0.018 0.01
C19 0.034 0.041 0.056 0.014 0.007 0.007
C21 0.056 0.042 0.069 0.019 0.032 0.024
C22 0.028 0.048 0.049 0.006 0.009 0
C25 0.028 0.047 0.092 0 0.019 -0.013
C26 0.067 0.033 0.051 -0.009 -0.006 0.009
C27 0.043 0.058 0.046 -0.009 -0.013 0.02
C28 0.045 0.029 0.059 -0.014 0.007 -0.009
C29 0.05 0.06 0.067 0.03 0.019 0.012
C30 0.06 0.044 0.057 0.015 -0.008 -0.007
C31 0.025 0.055 0.082 0.035 0.018 0.025
C32 0.056 0.068 0.059 0.031 -0.001 0.009
C33 0.031 0.086 0.061 0.01 0.009 0.008
C34 0.043 0.061 0.07 0.014 0.01 0.031
C35 0.052 0.05 0.051 0.003 0.014 -0.02
C36 0.042 0.051 0.05 -0.003 0.006 0.003
C37 0.065 0.053 0.052 0.01 -0.013 0.024
C38 0.066 0.036 0.07 0.015 0.042 -0.006
C39 0.048 0.044 0.06 0.014 0 0.009
C40 0.047 0.049 0.07 0.023 0.022 -0.011
C41 0.033 0.032 0.085 0.012 0.006 0.006
C42 0.071 0.032 0.047 0.004 0.011 0.009
C43 0.04 0.046 0.057 0.003 0.016 0.013
C44 0.054 0.045 0.039 0.01 -0.012 -0.006
C45 0.05 0.057 0.061 0.025 0.014 0.01
C46 0.038 0.051 0.055 0.019 0.015 -0.006
C47 0.079 0.031 0.055 -0.011 0.025 0.012
C48 0.05 0.043 0.035 0.012 0.011 0.02
C74 0.029 0.048 0.07 0.029 0.003 -0.001
C75 0.034 0.065 0.042 0.014 0.01 0.011
C76 0.06 0.043 0.055 0.019 0.001 0.023
C77 0.047 0.051 0.047 -0.002 0.01 0.022
C78 0.056 0.041 0.045 -0.004 0.002 0.019
C79 0.043 0.052 0.063 0.019 0.024 0.014
C80 0.054 0.052 0.038 0.009 0.007 0.002
C81 0.023 0.049 0.047 0.011 0.015 -0.012
C82 0.034 0.059 0.067 0.015 0.018 0.023
C83 0.083 0.035 0.039 0.002 0.021 -0.017
C84 0.043 0.053 0.042 0.015 -0.002 0.015
C85 0.036 0.044 0.048 0.016 0.007 -0.008
C86 0.059 0.05 0.043 0.004 0.018 0.028
C87 0.066 0.049 0.037 -0.013 0.016 -0.015
C88 0.059 0.056 0.04 0 0.019 0.007
C89 0.078 0.041 0.049 0.014 0.016 0.019
C90 0.06 0.06 0.059 0.022 0.034 0.025
C91 0.064 0.045 0.041 -0.007 0.01 0.019
C92 0.071 0.058 0.058 0.026 0.022 0.035
C93 0.052 0.045 0.052 -0.003 -0.002 -0.006
C94 0.052 0.045 0.052 -0.003 -0.002 -0.006
C95 0.056 0.062 0.058 0.005 0.032 0.007
C96 0.034 0.042 0.077 -0.005 -0.005 -0.0042
Cu9 0.0493 0.0457 0.0546 0.0152 0.0151 0.0147
Cu11 0.0467 0.0486 0.0633 0.0128 0.017 0.0131
I5 0.0719 0.03887 0.0479 -0.00226 0.01856 0.01138
I6 0.0645 0.0773 0.042 -0.016 0.0139 -0.0274
I7 0.069 0.0474 0.0584 0.01534 0.028 0.01021
N1 0.036 0.057 0.052 0 0.007 0.017
N3 0.034 0.065 0.063 0.019 0.025 0.013
S5 0.0423 0.0496 0.0501 0.0158 0.0111 0.0153
S6 0.0484 0.0504 0.0534 0.0165 0.0181 0.0157
S7 0.044 0.0473 0.0477 0.0114 0.0099 0.0123
W2 0.04152 0.04527 0.05124 0.0133 0.01274 0.01376
C97 0.034 0.042 0.077 -0.005 -0.005 -0.0042
C98 0.035 0.055 0.059 0.018 0.016 -0.01
C99 0.035 0.048 0.048 0.011 0.008 -0.007
C100 0.057 0.063 0.05 0.023 0.028 0.033
C101 0.053 0.032 0.063 -0.008 -0.021 0.011
C102 0.041 0.044 0.043 0.009 0.012 -0.006
C103 0.038 0.051 0.051 0.017 0.018 0.012
C104 0.045 0.066 0.058 0.029 0.017 0.021
C105 0.059 0.031 0.057 0.008 0.009 0.022
C106 0.055 0.038 0.061 -0.013 -0.016 -0.011
C107 0.054 0.051 0.048 -0.001 0 0.012
C108 0.036 0.054 0.056 0.013 0.014 0.029
C109 0.049 0.045 0.034 0.003 0.007 0.003
C110 0.057 0.043 0.055 -0.007 -0.001 0.022
C111 0.039 0.05 0.054 0.017 0.009 0.017
C112 0.045 0.05 0.095 0.037 -0.007 -0.013
C113 0.056 0.037 0.067 0.019 0.033 0.031
C114 0.059 0.066 0.032 0.013 0.014 0.017
C115 0.066 0.062 0.074 0.028 0.023 0.031
C116 0.049 0.05 0.058 -0.022 0.008 0.012
C117 0.02 0.06 0.078 0.031 0.015 0.023
C118 0.04 0.041 0.047 -0.004 0.016 0.017
C119 0.051 0.068 0.05 0.006 -0.005 0.022
C120 0.042 0.075 0.054 0.029 0.031 0.033
N9 0.053 0.057 0.047 0.013 -0.005 -0.004
C139 0.039 0.061 0.038 0.002 0.018 0.009
C140 0.049 0.067 0.057 -0.008 -0.014 0.025
C141 0.098 0.048 0.048 -0.014 0.023 -0.035
C241 0.034 0.042 0.077 -0.005 -0.005 -0.0042
C242 0.035 0.055 0.059 0.018 0.016 -0.01
C243 0.035 0.048 0.048 0.011 0.008 -0.007
C244 0.057 0.063 0.05 0.023 0.028 0.033
C245 0.053 0.032 0.063 -0.008 -0.021 0.011
C246 0.041 0.044 0.043 0.009 0.012 -0.006
C247 0.038 0.051 0.051 0.017 0.018 0.012
C248 0.045 0.066 0.058 0.029 0.017 0.021
C249 0.059 0.031 0.057 0.008 0.009 0.022
C250 0.055 0.038 0.061 -0.013 -0.016 -0.011
C251 0.054 0.051 0.048 -0.001 0 0.012
C252 0.036 0.054 0.056 0.013 0.014 0.029
C253 0.049 0.045 0.034 0.003 0.007 0.003
C254 0.057 0.043 0.055 -0.007 -0.001 0.022
C255 0.039 0.05 0.054 0.017 0.009 0.017
C256 0.045 0.05 0.095 0.037 -0.007 -0.013
C257 0.056 0.037 0.067 0.019 0.033 0.031
C258 0.059 0.066 0.032 0.013 0.014 0.017
C259 0.066 0.062 0.074 0.028 0.023 0.031
C260 0.049 0.05 0.058 -0.022 0.008 0.012
C261 0.02 0.06 0.078 0.031 0.015 0.023
C262 0.04 0.041 0.047 -0.004 0.016 0.017
C263 0.051 0.068 0.05 0.006 -0.005 0.022
C264 0.042 0.075 0.054 0.029 0.031 0.033
N21 0.053 0.057 0.047 0.013 -0.005 -0.004
N22 0.095 0.045 0.031 -0.008 -0.004 -0.011
Cu26 0.0389 0.0471 0.055 0.0127 0.0129 0.0118
C145 0.056 0.048 0.056 0.014 0.019 0.015
C146 0.049 0.035 0.062 0.01 0.009 -0.009
C147 0.041 0.059 0.045 -0.015 0.0004 0.012
C148 0.041 0.059 0.045 -0.015 0.0004 0.012
C149 0.033 0.04 0.061 0.012 0.014 0.008
C150 0.04 0.044 0.05 0.014 -0.01 0.015
C151 0.053 0.087 0.114 0.055 0.041 0.046
C152 0.049 0.054 0.07 0.023 0.023 0.017
C153 0.04 0.052 0.052 0.005 0.008 -0.007
C154 0.06 0.054 0.07 0.024 0.033 0.028
C155 0.03 0.051 0.055 0.002 -0.012 0.001
C156 0.049 0.051 0.074 0.026 0.033 0.016
C157 0.031 0.035 0.064 -0.011 0 0.009
C158 0.05 0.067 0.042 -0.018 0.018 0.01
C163 0.034 0.041 0.056 0.014 0.007 0.007
C165 0.056 0.042 0.069 0.019 0.032 0.024
C166 0.028 0.048 0.049 0.006 0.009 0
C169 0.028 0.047 0.092 0 0.019 -0.013
C170 0.067 0.033 0.051 -0.009 -0.006 0.009
C171 0.043 0.058 0.046 -0.009 -0.013 0.02
C172 0.045 0.029 0.059 -0.014 0.007 -0.009
C173 0.05 0.06 0.067 0.03 0.019 0.012
C174 0.06 0.044 0.057 0.015 -0.008 -0.007
C175 0.025 0.055 0.082 0.035 0.018 0.025
C176 0.056 0.068 0.059 0.031 -0.001 0.009
C177 0.031 0.086 0.061 0.01 0.009 0.008
C178 0.043 0.061 0.07 0.014 0.01 0.031
C179 0.052 0.05 0.051 0.003 0.014 -0.02
C180 0.042 0.051 0.05 -0.003 0.006 0.003
C181 0.065 0.053 0.052 0.01 -0.013 0.024
C182 0.066 0.036 0.07 0.015 0.042 -0.006
C183 0.048 0.044 0.06 0.014 0 0.009
C184 0.047 0.049 0.07 0.023 0.022 -0.011
C185 0.033 0.032 0.085 0.012 0.006 0.006
C186 0.071 0.032 0.047 0.004 0.011 0.009
C187 0.04 0.046 0.057 0.003 0.016 0.013
C188 0.054 0.045 0.039 0.01 -0.012 -0.006
C189 0.05 0.057 0.061 0.025 0.014 0.01
C190 0.038 0.051 0.055 0.019 0.015 -0.006
C191 0.079 0.031 0.055 -0.011 0.025 0.012
C192 0.05 0.043 0.035 0.012 0.011 0.02
C218 0.029 0.048 0.07 0.029 0.003 -0.001
C219 0.034 0.065 0.042 0.014 0.01 0.011
C220 0.06 0.043 0.055 0.019 0.001 0.023
C221 0.047 0.051 0.047 -0.002 0.01 0.022
C222 0.056 0.041 0.045 -0.004 0.002 0.019
C223 0.043 0.052 0.063 0.019 0.024 0.014
C224 0.054 0.052 0.038 0.009 0.007 0.002
C225 0.023 0.049 0.047 0.011 0.015 -0.012
C226 0.034 0.059 0.067 0.015 0.018 0.023
C227 0.083 0.035 0.039 0.002 0.021 -0.017
C228 0.043 0.053 0.042 0.015 -0.002 0.015
C229 0.036 0.044 0.048 0.016 0.007 -0.008
C230 0.059 0.05 0.043 0.004 0.018 0.028
C231 0.066 0.049 0.037 -0.013 0.016 -0.015
C232 0.059 0.056 0.04 0 0.019 0.007
C233 0.078 0.041 0.049 0.014 0.016 0.019
C234 0.06 0.06 0.059 0.022 0.034 0.025
C235 0.064 0.045 0.041 -0.007 0.01 0.019
C236 0.071 0.058 0.058 0.026 0.022 0.035
C237 0.052 0.045 0.052 -0.003 -0.002 -0.006
C238 0.052 0.045 0.052 -0.003 -0.002 -0.006
C239 0.056 0.062 0.058 0.005 0.032 0.007
C240 0.034 0.042 0.077 -0.005 -0.005 -0.0042
Cu19 0.0551 0.0566 0.0526 0.0131 0.0111 0.0166
Cu20 0.0392 0.0526 0.0552 0.0162 0.0118 0.0135
Cu21 0.0493 0.0457 0.0546 0.0152 0.0151 0.0147
Cu23 0.0467 0.0486 0.0633 0.0128 0.017 0.0131
I13 0.0719 0.03887 0.0479 -0.00226 0.01856 0.01138
I14 0.0645 0.0773 0.042 -0.016 0.0139 -0.0274
I15 0.069 0.0474 0.0584 0.01534 0.028 0.01021
N13 0.036 0.057 0.052 0 0.007 0.017
N15 0.034 0.065 0.063 0.019 0.025 0.013
N16 0.043 0.065 0.068 -0.009 -0.011 0.018
N20 0.033 0.065 0.058 0.027 0.03 0.022
S13 0.0423 0.0496 0.0501 0.0158 0.0111 0.0153
S14 0.0484 0.0504 0.0534 0.0165 0.0181 0.0157
S15 0.044 0.0473 0.0477 0.0114 0.0099 0.0123
W4 0.04152 0.04527 0.05124 0.0133 0.01274 0.01376
Cu28 0.0467 0.0484 0.0545 0.0155 0.0136 0.0146
Cu34 0.0473 0.0493 0.0568 0.0168 0.0145 0.0157
N24 0.067 0.041 0.087 0.018 0.042 0.002
N28 0.072 0.076 0.041 -0.014 0.01 -0.024
C130 0.039 0.069 0.062 0.035 0.001 0.004
C131 0.041 0.062 0.043 -0.011 0.008 0.016
C132 0.035 0.067 0.07 0.025 0.013 0.015
C133 0.058 0.053 0.034 0.001 -0.008 -0.019
C134 0.071 0.055 0.042 0.01 -0.003 0.03
C135 0.039 0.053 0.06 0.015 0.024 0.023
C136 0.045 0.029 0.106 0.021 -0.019 0.01
C137 0.058 0.027 0.054 0.006 0.031 0.019
C138 0.061 0.049 0.065 -0.01 0.011 0.01
N12 0.05 0.047 0.032 -0.012 -0.007 -0.017
C159 0.033 0.088 0.038 -0.002 0.007 -0.001
C160 0.056 0.05 0.053 0.014 0.019 -0.013
C161 0.075 0.043 0.044 0.002 0.014 0.023
C162 0.035 0.065 0.049 0.022 -0.002 -0.011
C193 0.086 0.064 0.061 0.017 0.041 0.017
C194 0.043 0.057 0.046 0.006 0.007 0.001
C195 0.065 0.049 0.052 -0.001 0.017 -0.011
C196 0.065 0.049 0.052 -0.001 0.017 -0.011
C198 0.062 0.073 0.063 0.025 0.024 0.026
C199 0.052 0.063 0.056 0.017 0.02 0.029
C200 0.072 0.05 0.051 0.016 0.017 0.01
C201 0.051 0.072 0.045 -0.006 0.014 0.02
C202 0.099 0.045 0.056 0.017 0.024 0.013
C203 0.096 0.063 0.052 0.011 0.003 0.048
C204 0.033 0.07 0.05 -0.006 -0.013 0.022
C205 0.036 0.056 0.058 0.019 0.016 0.013
C206 0.052 0.089 0.059 0.027 -0.01 0.012
C207 0.066 0.045 0.054 0.004 -0.002 0.016
C208 0.069 0.079 0.061 0.008 0.019 0.033
C209 0.05 0.075 0.076 0.029 -0.005 -0.005
C210 0.047 0.075 0.035 0.003 0.008 0.019
C211 0.063 0.036 0.055 -0.006 0.025 0.014
C212 0.053 0.056 0.086 -0.022 0.016 -0.001
C213 0.09 0.064 0.031 0.009 0 -0.015
C214 0.041 0.046 0.056 0.007 0.017 0
C215 0.069 0.059 0.05 0.026 0.019 0
C216 0.068 0.077 0.048 0.016 0.03 -0.006
C217 0.049 0.049 0.044 -0.023 -0.006 0.002
Cu14 0.0426 0.0486 0.0554 0.0153 0.0141 0.0156
Cu15 0.0449 0.0455 0.0518 0.0151 0.0129 0.0128
Cu16 0.0597 0.0584 0.0523 0.0142 0.0134 0.0247
Cu17 0.0421 0.052 0.0596 0.015 0.0136 0.0149
Cu22 0.0627 0.0554 0.0585 0.0147 0.0203 0.0162
I9 0.0728 0.0548 0.0561 -0.00868 -0.0128 0.0201
I10 0.0634 0.0482 0.0518 0.01395 0.01069 0.01416
I11 0.0699 0.0399 0.0499 -0.00121 0.0197 0.01292
I12 0.0624 0.0487 0.047 0.00218 -0.00641 -0.0063
I16 0.0724 0.0483 0.0608 0.01499 0.0281 0.0074
N18 0.06 0.05 0.029 -0.003 -0.012 0.006
N19 0.08 0.031 0.053 0.002 0.025 0.017
S9 0.0419 0.0469 0.0507 0.0159 0.015 0.0144
S10 0.0368 0.0509 0.0532 0.0168 0.0126 0.0152
S11 0.0482 0.045 0.043 0.0114 0.0114 0.012
S12 0.0452 0.0473 0.0503 0.0144 0.0127 0.015
S16 0.0474 0.0471 0.0535 0.0144 0.0145 0.0135
W3 0.04077 0.04538 0.05052 0.01329 0.01232 0.01402
C197 0.093 0.063 0.042 0.014 0.029 0.018
C164 0.044 0.111 0.028 -0.011 0.006 -0.007
C167 0.041 0.047 0.036 -0.006 -0.009 -0.02
C168 0.041 0.065 0.051 -0.023 0.023 -0.022
C127 0.039 0.061 0.038 0.002 0.018 0.009
C128 0.049 0.067 0.057 -0.008 -0.014 0.025
C129 0.098 0.048 0.048 -0.014 0.023 -0.035
loop_
_geom_bond_atom_site_label_1
_geom_bond_atom_site_label_2
_geom_bond_site_symmetry_1
_geom_bond_site_symmetry_2
C20 H13 1_555 1_555
H15 C23 1_555 1_555
C24 C23 1_555 1_555
H16 C24 1_555 1_555
N2 C20 1_555 1_555
Cu31 N2 1_555 1_555
C24 N2 1_555 1_555
H36 C53 1_555 1_555
Cu29 N5 1_555 1_555
C53 N5 1_555 1_555
H9 C15 1_555 1_555
C16 C15 1_555 1_555
H10 C16 1_555 1_555
C17 C16 1_555 1_555
H11 C17 1_555 1_555
C18 C17 1_555 1_555
H12 C18 1_555 1_555
C50 C49 1_555 1_555
H34 C50 1_555 1_555
C51 C50 1_555 1_555
C52 C51 1_555 1_555
H35 C52 1_555 1_555
C54 C51 1_555 1_555
C55 C54 1_555 1_555
C56 C55 1_555 1_555
H37 C56 1_555 1_555
C57 C56 1_555 1_555
H38 C57 1_555 1_555
C58 C57 1_555 1_555
H39 C58 1_555 1_555
C59 C58 1_555 1_555
H40 C59 1_555 1_555
C60 C55 1_555 1_555
C61 C60 1_555 1_555
C62 C61 1_555 1_555
C63 C62 1_555 1_555
H41 C63 1_555 1_555
C64 C63 1_555 1_555
H42 C64 1_555 1_555
C65 C64 1_555 1_555
H43 C65 1_555 1_555
C66 C65 1_555 1_555
H44 C66 1_555 1_555
C67 C54 1_555 1_555
C68 H45 1_555 1_555
C69 C68 1_555 1_555
H46 C69 1_555 1_555
C70 C61 1_555 1_555
C71 C70 1_555 1_555
H47 C71 1_555 1_555
C72 C71 1_555 1_555
H48 C72 1_555 1_555
C73 H49 1_555 1_555
C121 H81 1_555 1_555
C122 C121 1_555 1_555
C123 C122 1_555 1_555
C124 C123 1_555 1_555
H83 C124 1_555 1_555
C125 C124 1_555 1_555
H84 C125 1_555 1_555
C126 C123 1_555 1_555
Cu1 I1 1_555 1_555
Cu2 I3 1_555 1_555
Cu3 I4 1_555 1_555
Cu4 I1 1_555 1_555
Cu5 I2 1_555 1_555
Cu6 I2 1_555 1_555
Cu10 I3 1_555 1_555
I4 Cu4 1_555 1_555
I8 Cu10 1_555 1_555
N6 C68 1_555 1_555
N7 C73 1_555 1_555
N11 C121 1_555 1_555
S1 Cu1 1_555 1_555
S2 Cu2 1_555 1_555
S3 Cu1 1_555 1_555
S4 Cu4 1_555 1_555
S8 Cu10 1_555 1_555
W1 S1 1_555 1_555
H95 C142 1_555 1_555
C143 C142 1_555 1_555
H96 C143 1_555 1_555
C144 C126 1_555 1_555
N25 Cu12 1_555 1_555
N29 Cu6 1_555 1_555
N31 Cu1 1_555 1_555
C59 C60 1_555 1_555
C62 C67 1_555 1_555
C66 C67 1_555 1_555
C69 C70 1_555 1_555
C72 N6 1_555 1_555
C125 N11 1_555 1_555
Cu2 N11 1_555 1_555
Cu2 S1 1_555 1_555
Cu3 N7 1_555 1_555
Cu3 S2 1_555 1_555
Cu3 S3 1_555 1_555
Cu4 N6 1_555 1_555
Cu4 S3 1_555 1_555
Cu5 S2 1_555 1_555
Cu5 S4 1_555 1_555
Cu6 S1 1_555 1_555
Cu6 S4 1_555 1_555
Cu12 S8 1_555 1_555
S2 W1 1_555 1_555
S3 W1 1_555 1_555
S4 W1 1_555 1_555
C143 C144 1_555 1_555
C1 H1 1_555 1_555
C2 C1 1_555 1_555
H2 C2 1_555 1_555
C3 C2 1_555 1_555
C4 C3 1_555 1_555
H3 C4 1_555 1_555
C5 C4 1_555 1_555
H4 C5 1_555 1_555
C6 C3 1_555 1_555
C7 C6 1_555 1_555
C8 C7 1_555 1_555
H5 C8 1_555 1_555
C9 C8 1_555 1_555
H6 C9 1_555 1_555
C10 C9 1_555 1_555
H7 C10 1_555 1_555
C11 C10 1_555 1_555
H8 C11 1_555 1_555
C12 C7 1_555 1_555
C13 C12 1_555 1_555
C14 C13 1_555 1_555
C19 C6 1_555 1_555
H14 C21 1_555 1_555
C22 C13 1_555 1_555
C25 H17 1_555 1_555
C26 C25 1_555 1_555
H18 C26 1_555 1_555
C27 C26 1_555 1_555
C28 C27 1_555 1_555
H19 C28 1_555 1_555
C29 C28 1_555 1_555
H20 C29 1_555 1_555
C30 C27 1_555 1_555
C31 C30 1_555 1_555
C32 C31 1_555 1_555
H21 C32 1_555 1_555
C33 C32 1_555 1_555
H22 C33 1_555 1_555
C34 C33 1_555 1_555
H23 C34 1_555 1_555
C35 C34 1_555 1_555
H24 C35 1_555 1_555
C36 C31 1_555 1_555
C37 C36 1_555 1_555
C38 C37 1_555 1_555
C39 C38 1_555 1_555
H25 C39 1_555 1_555
C40 C39 1_555 1_555
H26 C40 1_555 1_555
C41 C40 1_555 1_555
H27 C41 1_555 1_555
C42 C41 1_555 1_555
H28 C42 1_555 1_555
C43 C30 1_555 1_555
C44 H29 1_555 1_555
C45 C44 1_555 1_555
H30 C45 1_555 1_555
C46 C37 1_555 1_555
C47 C46 1_555 1_555
H31 C47 1_555 1_555
C48 C47 1_555 1_555
H32 C48 1_555 1_555
H50 C74 1_555 1_555
C75 C74 1_555 1_555
C76 C75 1_555 1_555
H51 C76 1_555 1_555
C77 C76 1_555 1_555
C78 C75 1_555 1_555
C79 C78 1_555 1_555
C80 C79 1_555 1_555
H53 C80 1_555 1_555
C81 C80 1_555 1_555
H54 C81 1_555 1_555
C82 C81 1_555 1_555
H55 C82 1_555 1_555
C83 C82 1_555 1_555
H56 C83 1_555 1_555
C84 C79 1_555 1_555
C85 C84 1_555 1_555
C86 C85 1_555 1_555
C87 C86 1_555 1_555
H57 C87 1_555 1_555
C88 C87 1_555 1_555
C89 C88 1_555 1_555
C90 C89 1_555 1_555
H60 C90 1_555 1_555
C91 C78 1_555 1_555
C92 H61 1_555 1_555
C93 C92 1_555 1_555
H62 C93 1_555 1_555
C94 C85 1_555 1_555
C95 C94 1_555 1_555
H63 C95 1_555 1_555
C96 C95 1_555 1_555
H64 C96 1_555 1_555
Cu29 I5 1_555 1_555
Cu31 I5 1_555 1_555
Cu9 I6 1_555 1_555
Cu11 I6 1_555 1_555
I7 Cu29 1_555 1_555
N1 C1 1_555 1_555
N3 C25 1_555 1_555
N25 C44 1_555 1_555
N29 C92 1_555 1_555
S5 Cu29 1_555 1_555
S6 Cu31 1_555 1_555
S7 Cu29 1_555 1_555
W2 S5 1_555 1_555
C5 N1 1_555 1_555
C11 C12 1_555 1_555
C14 C19 1_555 1_555
C21 C22 1_555 1_555
C29 N3 1_555 1_555
C35 C36 1_555 1_555
C38 C43 1_555 1_555
C42 C43 1_555 1_555
C45 C46 1_555 1_555
C48 N25 1_555 1_555
C83 C84 1_555 1_555
C86 C91 1_555 1_555
C90 C91 1_555 1_555
C93 C94 1_555 1_555
C96 N29 1_555 1_555
Cu31 S5 1_555 1_555
Cu9 N3 1_555 1_555
Cu9 S6 1_555 1_555
Cu9 S7 1_555 1_555
Cu11 N1 1_555 1_555
Cu11 S7 1_555 1_555
S6 W2 1_555 1_555
S7 W2 1_555 1_555
C97 H65 1_555 1_555
C98 C97 1_555 1_555
H66 C98 1_555 1_555
C99 C98 1_555 1_555
C100 C99 1_555 1_555
H67 C100 1_555 1_555
C101 C100 1_555 1_555
H68 C101 1_555 1_555
C102 C99 1_555 1_555
C103 C102 1_555 1_555
C104 C103 1_555 1_555
H69 C104 1_555 1_555
C105 C104 1_555 1_555
H70 C105 1_555 1_555
C106 C105 1_555 1_555
H71 C106 1_555 1_555
C107 C106 1_555 1_555
H72 C107 1_555 1_555
C108 C103 1_555 1_555
C109 C108 1_555 1_555
C110 C109 1_555 1_555
C111 C110 1_555 1_555
H73 C111 1_555 1_555
C112 C111 1_555 1_555
H74 C112 1_555 1_555
C113 C112 1_555 1_555
H75 C113 1_555 1_555
C114 C113 1_555 1_555
H76 C114 1_555 1_555
C115 C102 1_555 1_555
C116 H77 1_555 1_555
C117 C116 1_555 1_555
H78 C117 1_555 1_555
C118 C109 1_555 1_555
C119 C118 1_555 1_555
H79 C119 1_555 1_555
C120 C119 1_555 1_555
H80 C120 1_555 1_555
N9 C97 1_555 1_555
N31 C116 1_555 1_555
C101 N9 1_555 1_555
C107 C108 1_555 1_555
C110 C115 1_555 1_555
C114 C115 1_555 1_555
C117 C118 1_555 1_555
C120 N31 1_555 1_555
C140 C139 1_555 1_555
H93 C140 1_555 1_555
C141 C140 1_555 1_555
H94 C141 1_555 1_555
C241 H161 1_555 1_555
C242 C241 1_555 1_555
H162 C242 1_555 1_555
C243 C242 1_555 1_555
C244 C243 1_555 1_555
H163 C244 1_555 1_555
C245 C244 1_555 1_555
H164 C245 1_555 1_555
C246 C243 1_555 1_555
C247 C246 1_555 1_555
C248 C247 1_555 1_555
H165 C248 1_555 1_555
C249 C248 1_555 1_555
H166 C249 1_555 1_555
C250 C249 1_555 1_555
H167 C250 1_555 1_555
C251 C250 1_555 1_555
H168 C251 1_555 1_555
C252 C247 1_555 1_555
C253 C252 1_555 1_555
C254 C253 1_555 1_555
C255 C254 1_555 1_555
H169 C255 1_555 1_555
C256 C255 1_555 1_555
H170 C256 1_555 1_555
C257 C256 1_555 1_555
H171 C257 1_555 1_555
C258 C257 1_555 1_555
H172 C258 1_555 1_555
C259 C246 1_555 1_555
C260 H173 1_555 1_555
C261 C260 1_555 1_555
H174 C261 1_555 1_555
C262 C253 1_555 1_555
C263 C262 1_555 1_555
H175 C263 1_555 1_555
C264 C263 1_555 1_555
H176 C264 1_555 1_555
N21 C241 1_555 1_555
N22 C260 1_555 1_555
Cu26 N22 1_555 1_555
C245 N21 1_555 1_555
C251 C252 1_555 1_555
C254 C259 1_555 1_555
C258 C259 1_555 1_555
C261 C262 1_555 1_555
C264 N22 1_555 1_555
C145 H97 1_555 1_555
C146 C145 1_555 1_555
H98 C146 1_555 1_555
C147 C146 1_555 1_555
C148 C147 1_555 1_555
H99 C148 1_555 1_555
C149 C148 1_555 1_555
H100 C149 1_555 1_555
C150 C147 1_555 1_555
C151 C150 1_555 1_555
C152 C151 1_555 1_555
H101 C152 1_555 1_555
C153 C152 1_555 1_555
H102 C153 1_555 1_555
C154 C153 1_555 1_555
H103 C154 1_555 1_555
C155 C154 1_555 1_555
H104 C155 1_555 1_555
C156 C151 1_555 1_555
C157 C156 1_555 1_555
C158 C157 1_555 1_555
C163 C150 1_555 1_555
H110 C165 1_555 1_555
C166 C157 1_555 1_555
C169 H113 1_555 1_555
C170 C169 1_555 1_555
H114 C170 1_555 1_555
C171 C170 1_555 1_555
C172 C171 1_555 1_555
H115 C172 1_555 1_555
C173 C172 1_555 1_555
H116 C173 1_555 1_555
C174 C171 1_555 1_555
C175 C174 1_555 1_555
C176 C175 1_555 1_555
H117 C176 1_555 1_555
C177 C176 1_555 1_555
H118 C177 1_555 1_555
C178 C177 1_555 1_555
H119 C178 1_555 1_555
C179 C178 1_555 1_555
H120 C179 1_555 1_555
C180 C175 1_555 1_555
C181 C180 1_555 1_555
C182 C181 1_555 1_555
C183 C182 1_555 1_555
H121 C183 1_555 1_555
C184 C183 1_555 1_555
H122 C184 1_555 1_555
C185 C184 1_555 1_555
H123 C185 1_555 1_555
C186 C185 1_555 1_555
H124 C186 1_555 1_555
C187 C174 1_555 1_555
C188 H125 1_555 1_555
C189 C188 1_555 1_555
H126 C189 1_555 1_555
C190 C181 1_555 1_555
C191 C190 1_555 1_555
H127 C191 1_555 1_555
C192 C191 1_555 1_555
H128 C192 1_555 1_555
H146 C218 1_555 1_555
C219 C218 1_555 1_555
C220 C219 1_555 1_555
H147 C220 1_555 1_555
C221 C220 1_555 1_555
C222 C219 1_555 1_555
C223 C222 1_555 1_555
C224 C223 1_555 1_555
H149 C224 1_555 1_555
C225 C224 1_555 1_555
H150 C225 1_555 1_555
C226 C225 1_555 1_555
H151 C226 1_555 1_555
C227 C226 1_555 1_555
H152 C227 1_555 1_555
C228 C223 1_555 1_555
C229 C228 1_555 1_555
C230 C229 1_555 1_555
C231 C230 1_555 1_555
H153 C231 1_555 1_555
C232 C231 1_555 1_555
C233 C232 1_555 1_555
C234 C233 1_555 1_555
H156 C234 1_555 1_555
C235 C222 1_555 1_555
C236 H157 1_555 1_555
C237 C236 1_555 1_555
H158 C237 1_555 1_555
C238 C229 1_555 1_555
C239 C238 1_555 1_555
H159 C239 1_555 1_555
C240 C239 1_555 1_555
H160 C240 1_555 1_555
Cu19 I13 1_555 1_555
Cu20 I13 1_555 1_555
Cu21 I14 1_555 1_555
Cu23 I14 1_555 1_555
I15 Cu19 1_555 1_555
N13 C145 1_555 1_555
N15 C169 1_555 1_555
N16 C188 1_555 1_555
N20 C236 1_555 1_555
S13 Cu19 1_555 1_555
S14 Cu20 1_555 1_555
S15 Cu19 1_555 1_555
W4 S13 1_555 1_555
Cu28 N20 1_555 1_555
Cu34 N16 1_555 1_555
N24 Cu20 1_555 1_555
N28 Cu19 1_555 1_555
C149 N13 1_555 1_555
C155 C156 1_555 1_555
C158 C163 1_555 1_555
C165 C166 1_555 1_555
C173 N15 1_555 1_555
C179 C180 1_555 1_555
C182 C187 1_555 1_555
C186 C187 1_555 1_555
C189 C190 1_555 1_555
C192 N16 1_555 1_555
C227 C228 1_555 1_555
C230 C235 1_555 1_555
C234 C235 1_555 1_555
C237 C238 1_555 1_555
C240 N20 1_555 1_555
Cu20 S13 1_555 1_555
Cu21 N15 1_555 1_555
Cu21 S14 1_555 1_555
Cu21 S15 1_555 1_555
Cu23 N13 1_555 1_555
Cu23 S15 1_555 1_555
S14 W4 1_555 1_555
S15 W4 1_555 1_555
H87 C130 1_555 1_555
C131 C130 1_555 1_555
H88 C131 1_555 1_555
C133 H89 1_555 1_555
C134 C133 1_555 1_555
C135 C134 1_555 1_555
C136 C135 1_555 1_555
H91 C136 1_555 1_555
C137 C136 1_555 1_555
H92 C137 1_555 1_555
C138 C132 1_555 1_555
N12 C133 1_555 1_555
H105 C159 1_555 1_555
C160 C159 1_555 1_555
H106 C160 1_555 1_555
C161 C160 1_555 1_555
H107 C161 1_555 1_555
C162 C161 1_555 1_555
H108 C162 1_555 1_555
C194 C193 1_555 1_555
H130 C194 1_555 1_555
C195 C194 1_555 1_555
C196 C195 1_555 1_555
H131 C196 1_555 1_555
C198 C195 1_555 1_555
C199 C198 1_555 1_555
C200 C199 1_555 1_555
H133 C200 1_555 1_555
C201 C200 1_555 1_555
H134 C201 1_555 1_555
C202 C201 1_555 1_555
H135 C202 1_555 1_555
C203 C202 1_555 1_555
H136 C203 1_555 1_555
C204 C199 1_555 1_555
C205 C204 1_555 1_555
C206 C205 1_555 1_555
C207 C206 1_555 1_555
H137 C207 1_555 1_555
C208 C207 1_555 1_555
H138 C208 1_555 1_555
C209 C208 1_555 1_555
H139 C209 1_555 1_555
C210 C209 1_555 1_555
H140 C210 1_555 1_555
C211 C198 1_555 1_555
C212 H141 1_555 1_555
C213 C212 1_555 1_555
H142 C213 1_555 1_555
C214 C205 1_555 1_555
C215 C214 1_555 1_555
H143 C215 1_555 1_555
C216 C215 1_555 1_555
H144 C216 1_555 1_555
C217 H145 1_555 1_555
Cu26 I9 1_555 1_555
Cu14 N12 1_555 1_555
Cu15 I12 1_555 1_555
Cu16 I9 1_555 1_555
Cu17 I10 1_555 1_555
Cu28 I10 1_555 1_555
Cu22 I11 1_555 1_555
I11 Cu14 1_555 1_555
I12 Cu16 1_555 1_555
I16 Cu22 1_555 1_555
N18 C212 1_555 1_555
N19 C217 1_555 1_555
S9 Cu26 1_555 1_555
S10 Cu14 1_555 1_555
S11 Cu26 1_555 1_555
S12 Cu16 1_555 1_555
S16 Cu22 1_555 1_555
W3 S9 1_555 1_555
C131 C132 1_555 1_555
C135 C138 1_555 1_555
C137 N12 1_555 1_555
C203 C204 1_555 1_555
C206 C211 1_555 1_555
C210 C211 1_555 1_555
C213 C214 1_555 1_555
C216 N18 1_555 1_555
Cu14 S9 1_555 1_555
Cu15 N19 1_555 1_555
Cu15 S10 1_555 1_555
Cu15 S11 1_555 1_555
Cu16 N18 1_555 1_555
Cu16 S11 1_555 1_555
Cu17 S10 1_555 1_555
Cu17 S12 1_555 1_555
Cu28 S9 1_555 1_555
Cu28 S12 1_555 1_555
Cu34 S16 1_555 1_555
S10 W3 1_555 1_555
S11 W3 1_555 1_555
S12 W3 1_555 1_555
H132 C197 1_555 1_555
C197 N28 1_555 1_555
C164 H109 1_555 1_555
H111 C167 1_555 1_555
C168 C167 1_555 1_555
H112 C168 1_555 1_555
N24 C164 1_555 1_555
C168 N24 1_555 1_555
C128 C127 1_555 1_555
H85 C128 1_555 1_555
C129 C128 1_555 1_555
H86 C129 1_555 1_555

#END
