
###############################################################################
#
# This file contains modified crystal structure data generated from the
# MOF subset of the Cambridge Structural Database (CSD) v543 
# hosted by the Cambridge Crystallographic Data Centre (CCDC).
#
# This work is licensed under the Creative Commons
# Attribution-NonCommercial-ShareAlike 4.0 International License.
# To view a copy of this license, visit
# http://creativecommons.org/licenses/by-nc-sa/4.0/
# or send a letter to
# Creative Commons, PO Box 1866, Mountain View, CA 94042, USA.
#
# CIF created using the CSD Python API on 29 September 2022
# The structure has been converted into the P1 space group
# The structure has a 3D framework
# The original CSD entry UDATIE is in the monoclinic crystal system
# The framework has been calculated to contain at least 10.0% void space
# The void calculation uses a probe of radius 1.32A, grid spacing 0.4
#
###############################################################################

data_UDATIE
_chemical_formula_moiety         '(C64 H32 Cu6 N16 O38)n'
_symmetry_cell_setting           triclinic
_symmetry_space_group_name_H-M   'P 1'
_symmetry_Int_Tables_number      1
_space_group_name_Hall           'P 1'
loop_
_symmetry_equiv_pos_site_id
_symmetry_equiv_pos_as_xyz
1 x,y,z
_cell_length_a                   29.810(4)
_cell_length_b                   9.1745(12)
_cell_length_c                   8.3049(11)
_cell_angle_alpha                90
_cell_angle_beta                 105.891(2)
_cell_angle_gamma                90
_cell_volume                     2184.52
loop_
_atom_site_label
_atom_site_type_symbol
_atom_site_fract_x
_atom_site_fract_y
_atom_site_fract_z
O1 O -0.0000 0.1162(5) 0.2500
O2 O 0.24469(9) 0.1692(3) 0.1856(3)
O3 O 0.27941(9) 0.3761(3) 0.1478(3)
N1 N 0.15087(11) 0.0538(4) 0.0892(4)
N2 N 0.02057(19) 0.3449(6) 0.2236(9)
C1 C 0.07033(15) 0.1506(5) 0.1586(6)
C2 C 0.08197(16) 0.0051(5) 0.1723(6)
C4 C 0.13828(15) 0.1934(5) 0.0687(6)
H3 H 0.1573 0.2575 0.0305
C5 C 0.09889(16) 0.2470(5) 0.1011(7)
H4 H 0.0912 0.3452 0.0852
C6 C 0.03044(17) 0.2098(6) 0.2078(8)
C7 C 0.25714(12) 0.2634(4) 0.0961(4)
Cu3 Cu 0.285235(15) 0.48765(5) 0.41786(6)
O11 O 0.30800(9) 0.7011(3) 0.0246(3)
Cu2 Cu 0.285235(15) 0.51235(5) 0.91786(6)
Cu6 Cu 0.214765(15) 0.01235(5) 0.58214(6)
O6 O 0.25531(9) 0.3308(3) 0.8144(3)
O7 O 0.22059(9) 0.1239(3) 0.8522(3)
O9 O 0.27941(9) 0.6239(3) 0.6478(3)
O13 O 0.22197(9) 0.5917(3) 0.9094(3)
N4 N 0.34913(11) 0.4462(4) 0.9108(4)
C15 C 0.24286(12) 0.2366(4) 0.9039(4)
Cu1 Cu 0.214765(15) 0.98765(5) 0.08214(6)
H1 H 0.0630 0.9379 0.2059
C3 C 0.12211(15) 0.9604(5) 0.1354(6)
H2 H 0.1295 0.8617 0.1428
O8 O 0.22059(9) 0.8761(3) 0.3522(3)
O12 O 0.27803(9) 0.9083(3) 0.0906(3)
C16 C 0.27488(13) 0.7810(4) 0.0333(4)
O4 O 0.19200(9) 0.7989(3) 0.9754(3)
C8 C 0.22512(13) 0.7190(4) 0.9667(4)
O1_2 O 1.0000 0.1162(5) 0.2500
N3 N 0.84913(11) 0.0538(4) 0.4108(4)
N5 N 0.97943(19) 0.3449(6) 0.2764(9)
C9 C 0.92967(15) 0.1506(5) 0.3414(6)
C10 C 0.91803(16) 0.0051(5) 0.3277(6)
C12 C 0.86172(15) 0.1934(5) 0.4313(6)
H7 H 0.8427 0.2575 0.4695
C13 C 0.90111(16) 0.2470(5) 0.3989(7)
H8 H 0.9088 0.3452 0.4148
C14 C 0.96956(17) 0.2098(6) 0.2922(8)
Cu5 Cu 0.785235(15) 0.98765(5) 0.41786(6)
H5 H 0.9370 0.9379 0.2941
C11 C 0.87789(15) 0.9604(5) 0.3646(6)
H6 H 0.8705 0.8617 0.3572
O2_2 O 0.75531(9) 0.1692(3) 0.3144(3)
O3_2 O 0.72059(9) 0.3761(3) 0.3522(3)
C7_2 C 0.74286(12) 0.2634(4) 0.4039(4)
Cu2_2 Cu 0.714765(15) 0.51235(5) 0.58214(6)
Cu3_2 Cu 0.714765(15) 0.48765(5) 0.08214(6)
Cu6_2 Cu 0.785235(15) 0.01235(5) 0.91786(6)
O6_2 O 0.74469(9) 0.3308(3) 0.6856(3)
O7_2 O 0.77941(9) 0.1239(3) 0.6478(3)
O9_2 O 0.72059(9) 0.6239(3) 0.8522(3)
O11_2 O 0.69200(9) 0.7011(3) 0.4754(3)
O13_2 O 0.77803(9) 0.5917(3) 0.5906(3)
N4_2 N 0.65087(11) 0.4462(4) 0.5892(4)
C15_2 C 0.75714(12) 0.2366(4) 0.5961(4)
O4_2 O 0.80800(9) 0.7989(3) 0.5246(3)
C8_2 C 0.77488(13) 0.7190(4) 0.5333(4)
O8_2 O 0.77941(9) 0.8761(3) 0.1478(3)
O12_2 O 0.72197(9) 0.9083(3) 0.4094(3)
C16_2 C 0.72512(13) 0.7810(4) 0.4667(4)
O11_3 O 0.80800(9) 0.2011(3) 0.0246(3)
O13_3 O 0.72197(9) 0.0917(3) 0.9094(3)
O1_3 O 0.5000 0.6162(5) 0.2500
O2_3 O 0.74469(9) 0.6692(3) 0.1856(3)
N1_2 N 0.65087(11) 0.5538(4) 0.0892(4)
N2_2 N 0.52057(19) 0.8449(6) 0.2236(9)
C1_2 C 0.57033(15) 0.6506(5) 0.1586(6)
C2_2 C 0.58197(16) 0.5051(5) 0.1723(6)
H1_2 H 0.5630 0.4379 0.2059
C3_2 C 0.62211(15) 0.4604(5) 0.1354(6)
H2_2 H 0.6295 0.3617 0.1428
C4_2 C 0.63828(15) 0.6934(5) 0.0687(6)
H3_2 H 0.6573 0.7575 0.0305
C5_2 C 0.59889(16) 0.7470(5) 0.1011(7)
H4_2 H 0.5912 0.8452 0.0852
C6_2 C 0.53044(17) 0.7098(6) 0.2078(8)
C7_3 C 0.75714(12) 0.7634(4) 0.0961(4)
O12_3 O 0.77803(9) 0.4083(3) 0.0906(3)
N3_2 N 0.34913(11) 0.5538(4) 0.4108(4)
N5_2 N 0.47943(19) 0.8449(6) 0.2764(9)
C9_2 C 0.42967(15) 0.6506(5) 0.3414(6)
C10_2 C 0.41803(16) 0.5051(5) 0.3277(6)
H5_2 H 0.4370 0.4379 0.2941
C11_2 C 0.37789(15) 0.4604(5) 0.3646(6)
H6_2 H 0.3705 0.3617 0.3572
C12_2 C 0.36172(15) 0.6934(5) 0.4313(6)
H7_2 H 0.3427 0.7575 0.4695
C13_2 C 0.40111(16) 0.7470(5) 0.3989(7)
H8_2 H 0.4088 0.8452 0.4148
C14_2 C 0.46956(17) 0.7098(6) 0.2922(8)
C16_3 C 0.77488(13) 0.2810(4) 0.0333(4)
O4_3 O 0.69200(9) 0.2989(3) 0.9754(3)
C8_3 C 0.72512(13) 0.2190(4) 0.9667(4)
O6_3 O 0.75531(9) 0.8308(3) 0.8144(3)
N4_3 N 0.84913(11) 0.9462(4) 0.9108(4)
C15_3 C 0.74286(12) 0.7366(4) 0.9039(4)
O11_4 O 0.19200(9) 0.2011(3) 0.4754(3)
O13_4 O 0.27803(9) 0.0917(3) 0.5906(3)
O2_4 O 0.25531(9) 0.6692(3) 0.3144(3)
O4_4 O 0.30800(9) 0.2989(3) 0.5246(3)
C7_4 C 0.24286(12) 0.7634(4) 0.4039(4)
C8_4 C 0.27488(13) 0.2190(4) 0.5333(4)
O6_4 O 0.24469(9) 0.8308(3) 0.6856(3)
O12_4 O 0.22197(9) 0.4083(3) 0.4094(3)
N4_4 N 0.15087(11) 0.9462(4) 0.5892(4)
C15_4 C 0.25714(12) 0.7366(4) 0.5961(4)
C16_4 C 0.22512(13) 0.2810(4) 0.4667(4)
H5_3 H 0.0630 0.0621 0.7059
C11_3 C 0.12211(15) 0.0396(5) 0.6354(6)
H6_3 H 0.1295 0.1383 0.6428
O1_4 O 0.0000 0.8838(5) 0.7500
N5_3 N 0.02057(19) 0.6551(6) 0.7236(9)
C9_3 C 0.07033(15) 0.8494(5) 0.6586(6)
C10_3 C 0.08197(16) 0.9949(5) 0.6723(6)
C12_3 C 0.13828(15) 0.8066(5) 0.5687(6)
H7_3 H 0.1573 0.7425 0.5305
C13_3 C 0.09889(16) 0.7530(5) 0.6011(7)
H8_3 H 0.0912 0.6548 0.5852
C14_3 C 0.03044(17) 0.7902(6) 0.7078(8)
H1_3 H 0.9370 0.0621 0.7941
C3_3 C 0.87789(15) 0.0396(5) 0.8646(6)
H2_3 H 0.8705 0.1383 0.8572
O1_5 O 1.0000 0.8838(5) 0.7500
N2_3 N 0.97943(19) 0.6551(6) 0.7764(9)
C1_3 C 0.92967(15) 0.8494(5) 0.8414(6)
C2_3 C 0.91803(16) 0.9949(5) 0.8277(6)
C4_3 C 0.86172(15) 0.8066(5) 0.9313(6)
H3_3 H 0.8427 0.7425 0.9695
C5_3 C 0.90111(16) 0.7530(5) 0.8989(7)
H4_3 H 0.9088 0.6548 0.9148
C6_3 C 0.96956(17) 0.7902(6) 0.7922(8)
O1_6 O 0.5000 0.3838(5) 0.7500
N2_4 N 0.47943(19) 0.1551(6) 0.7764(9)
C1_4 C 0.42967(15) 0.3494(5) 0.8414(6)
C2_4 C 0.41803(16) 0.4949(5) 0.8277(6)
H1_4 H 0.4370 0.5621 0.7941
C3_4 C 0.37789(15) 0.5396(5) 0.8646(6)
H2_4 H 0.3705 0.6383 0.8572
C4_4 C 0.36172(15) 0.3066(5) 0.9313(6)
H3_4 H 0.3427 0.2425 0.9695
C5_4 C 0.40111(16) 0.2530(5) 0.8989(7)
H4_4 H 0.4088 0.1548 0.9148
C6_4 C 0.46956(17) 0.2902(6) 0.7922(8)
N5_4 N 0.52057(19) 0.1551(6) 0.7236(9)
C9_4 C 0.57033(15) 0.3494(5) 0.6586(6)
C10_4 C 0.58197(16) 0.4949(5) 0.6723(6)
H5_4 H 0.5630 0.5621 0.7059
C11_4 C 0.62211(15) 0.5396(5) 0.6354(6)
H6_4 H 0.6295 0.6383 0.6428
C12_4 C 0.63828(15) 0.3066(5) 0.5687(6)
H7_4 H 0.6573 0.2425 0.5305
C13_4 C 0.59889(16) 0.2530(5) 0.6011(7)
H8_4 H 0.5912 0.1548 0.5852
C14_4 C 0.53044(17) 0.2902(6) 0.7078(8)
loop_
_geom_bond_atom_site_label_1
_geom_bond_atom_site_label_2
_geom_bond_site_symmetry_1
_geom_bond_site_symmetry_2
O1 C6 1_555 1_555
O2 C7 1_555 1_555
O3 C7 1_555 1_555
N2 C6 1_555 1_555
C1 C2 1_555 1_555
C4 N1 1_555 1_555
H3 C4 1_555 1_555
C5 C1 1_555 1_555
H4 C5 1_555 1_555
C6 C1 1_555 1_555
Cu3 O3 1_555 1_555
C4 C5 1_555 1_555
Cu6 O7 1_555 1_555
O6 Cu2 1_555 1_555
O9 Cu2 1_555 1_555
O13 Cu2 1_555 1_555
N4 Cu2 1_555 1_555
C15 O6 1_555 1_555
O7 C15 1_555 1_555
H2 C3 1_555 1_555
O8 Cu1 1_555 1_555
O12 Cu1 1_555 1_555
O11 C16 1_555 1_555
O12 C16 1_555 1_555
O13 C8 1_555 1_555
C8 O4 1_555 1_555
C9 C10 1_555 1_555
C12 N3 1_555 1_555
H7 C12 1_555 1_555
C13 C9 1_555 1_555
H8 C13 1_555 1_555
C14 O1_2 1_555 1_555
N5 C14 1_555 1_555
C9 C14 1_555 1_555
C12 C13 1_555 1_555
H6 C11 1_555 1_555
O2_2 C7_2 1_555 1_555
O3_2 C7_2 1_555 1_555
C7_2 C15_2 1_555 1_555
Cu2_2 O3_2 1_555 1_555
Cu3_2 O3_2 1_555 1_555
Cu6_2 O7_2 1_555 1_555
O6_2 Cu2_2 1_555 1_555
O9_2 Cu2_2 1_555 1_555
O11_2 Cu2_2 1_555 1_555
O13_2 Cu2_2 1_555 1_555
N4_2 Cu2_2 1_555 1_555
C15_2 O6_2 1_555 1_555
O7_2 C15_2 1_555 1_555
O4_2 Cu5 1_555 1_555
O13_2 C8_2 1_555 1_555
C8_2 O4_2 1_555 1_555
O8_2 Cu5 1_555 1_555
O12_2 Cu5 1_555 1_555
C16_2 C8_2 1_555 1_555
O11_2 C16_2 1_555 1_555
O12_2 C16_2 1_555 1_555
O13_3 Cu6_2 1_555 1_555
Cu3_2 O2_3 1_555 1_555
O1_3 C6_2 1_555 1_555
O2_3 C7_3 1_555 1_555
O8_2 C7_3 1_555 1_555
N1_2 Cu3_2 1_555 1_555
N2_2 C6_2 1_555 1_555
C1_2 C2_2 1_555 1_555
C2_2 H1_2 1_555 1_555
C3_2 N1_2 1_555 1_555
H2_2 C3_2 1_555 1_555
C4_2 N1_2 1_555 1_555
H3_2 C4_2 1_555 1_555
C5_2 C1_2 1_555 1_555
H4_2 C5_2 1_555 1_555
C6_2 C1_2 1_555 1_555
Cu3 N3_2 1_555 1_555
O12_3 Cu3_2 1_555 1_555
N3_2 C11_2 1_555 1_555
N5_2 N2_2 1_555 1_555
C9_2 C10_2 1_555 1_555
C10_2 H5_2 1_555 1_555
C11_2 C10_2 1_555 1_555
H6_2 C11_2 1_555 1_555
C12_2 N3_2 1_555 1_555
H7_2 C12_2 1_555 1_555
C13_2 C9_2 1_555 1_555
H8_2 C13_2 1_555 1_555
C14_2 O1_3 1_555 1_555
C2_2 C3_2 1_555 1_555
C4_2 C5_2 1_555 1_555
O11_3 C16_3 1_555 1_555
O12_3 C16_3 1_555 1_555
N5_2 C14_2 1_555 1_555
C9_2 C14_2 1_555 1_555
C12_2 C13_2 1_555 1_555
O13_3 C8_3 1_555 1_555
C8_3 O4_3 1_555 1_555
C15_3 O6_3 1_555 1_555
O9_2 C15_3 1_555 1_555
O11_4 Cu6 1_555 1_555
O13_4 Cu6 1_555 1_555
Cu3 O2_4 1_555 1_555
O2_4 C7_4 1_555 1_555
O8 C7_4 1_555 1_555
O4_4 Cu3 1_555 1_555
O13_4 C8_4 1_555 1_555
C7_4 C15_4 1_555 1_555
C8_4 O4_4 1_555 1_555
O9 Cu3 1_555 1_555
O12_4 Cu3 1_555 1_555
C15_4 O6_4 1_555 1_555
C16_4 C8_4 1_555 1_555
O9 C15_4 1_555 1_555
O11_4 C16_4 1_555 1_555
O12_4 C16_4 1_555 1_555
H6_3 C11_3 1_555 1_555
C9_3 C10_3 1_555 1_555
C12_3 N4_4 1_555 1_555
H7_3 C12_3 1_555 1_555
C13_3 C9_3 1_555 1_555
H8_3 C13_3 1_555 1_555
C14_3 O1_4 1_555 1_555
N5_3 C14_3 1_555 1_555
C9_3 C14_3 1_555 1_555
C12_3 C13_3 1_555 1_555
H2_3 C3_3 1_555 1_555
O1_5 C6_3 1_555 1_555
N2_3 C6_3 1_555 1_555
C1_3 C2_3 1_555 1_555
C4_3 N4_3 1_555 1_555
H3_3 C4_3 1_555 1_555
C5_3 C1_3 1_555 1_555
H4_3 C5_3 1_555 1_555
C6_3 C1_3 1_555 1_555
C4_3 C5_3 1_555 1_555
O1_6 C6_4 1_555 1_555
N2_4 C6_4 1_555 1_555
C1_4 C2_4 1_555 1_555
C2_4 H1_4 1_555 1_555
C3_4 N4 1_555 1_555
H2_4 C3_4 1_555 1_555
C4_4 N4 1_555 1_555
H3_4 C4_4 1_555 1_555
C5_4 C1_4 1_555 1_555
H4_4 C5_4 1_555 1_555
C6_4 C1_4 1_555 1_555
N4_2 C11_4 1_555 1_555
N5_4 N2_4 1_555 1_555
C9_4 C10_4 1_555 1_555
C10_4 H5_4 1_555 1_555
C11_4 C10_4 1_555 1_555
H6_4 C11_4 1_555 1_555
C12_4 N4_2 1_555 1_555
H7_4 C12_4 1_555 1_555
C13_4 C9_4 1_555 1_555
H8_4 C13_4 1_555 1_555
C14_4 O1_6 1_555 1_555
C2_4 C3_4 1_555 1_555
C4_4 C5_4 1_555 1_555
N5_4 C14_4 1_555 1_555
C9_4 C14_4 1_555 1_555
C12_4 C13_4 1_555 1_555

#END
