
###############################################################################
#
# This file contains modified crystal structure data generated from the
# MOF subset of the Cambridge Structural Database (CSD) v543 
# hosted by the Cambridge Crystallographic Data Centre (CCDC).
#
# This work is licensed under the Creative Commons
# Attribution-NonCommercial-ShareAlike 4.0 International License.
# To view a copy of this license, visit
# http://creativecommons.org/licenses/by-nc-sa/4.0/
# or send a letter to
# Creative Commons, PO Box 1866, Mountain View, CA 94042, USA.
#
# CIF created using the CSD Python API on 29 September 2022
# The structure has been converted into the P1 space group
# The structure has a 3D framework
# The original CSD entry UDAXEF is in the monoclinic crystal system
# The framework has been calculated to contain at least 10.0% void space
# The void calculation uses a probe of radius 1.32A, grid spacing 0.4
#
###############################################################################

data_UDAXEF
_chemical_formula_moiety         '(C288 H192 I48 N96 Zn24)n'
_symmetry_cell_setting           triclinic
_symmetry_space_group_name_H-M   'P 1'
_symmetry_Int_Tables_number      1
_space_group_name_Hall           'P 1'
loop_
_symmetry_equiv_pos_site_id
_symmetry_equiv_pos_as_xyz
1 x,y,z
_cell_length_a                   35.4076(6)
_cell_length_b                   14.8501(2)
_cell_length_c                   30.9056(6)
_cell_angle_alpha                90
_cell_angle_beta                 101.9719(18)
_cell_angle_gamma                90
_cell_volume                     15896.9
loop_
_atom_site_label
_atom_site_type_symbol
_atom_site_fract_x
_atom_site_fract_y
_atom_site_fract_z
I1 I 0.76774(6) 0.73436(7) 0.70723(8)
I2 I 0.47140(2) 0.65192(4) 0.37040(2)
I3 I 0.87059(2) 0.65295(4) 0.80719(2)
I6 I 0.37808(3) 0.73782(5) 0.44353(2)
Zn1 Zn 0.41438(3) 0.62461(7) 0.40699(3)
Zn3 Zn 0.82820(3) 0.63950(7) 0.73012(4)
N1 N 0.81578(19) 0.5030(4) 0.7208(2)
N2 N 0.81774(17) 0.1740(4) 0.7471(2)
N3 N 0.42848(19) 0.5192(4) 0.4521(2)
N4 N 0.77699(17) 0.0482(4) 0.7260(2)
N6 N 0.47543(17) 0.2309(4) 0.52951(19)
N7 N 0.36203(19) 0.1611(4) 0.6841(2)
N8 N 0.76460(18) 0.1864(4) 0.6866(2)
N10 N 0.42557(17) 0.2794(4) 0.5651(2)
N11 N 0.46138(18) 0.1481(4) 0.5900(2)
C1 C 0.8071(2) 0.0896(5) 0.7517(2)
C2 C 0.4334(2) 0.2071(5) 0.5916(2)
C3 C 0.7575(2) 0.0990(5) 0.6929(2)
C4 C 0.7254(2) 0.0546(5) 0.6618(2)
C5 C 0.4815(2) 0.1641(5) 0.5589(2)
C6 C 0.4414(2) 0.3693(5) 0.5065(2)
C7 C 0.8021(2) 0.3184(5) 0.7145(2)
C8 C 0.7945(2) 0.2200(5) 0.7155(2)
C9 C 0.5626(3) 0.0414(6) 0.5224(3)
H1 H 0.5740 0.0387 0.4972
C10 C 0.6776(2) 0.0498(6) 0.5954(3)
H2 H 0.6653 0.0772 0.5684
C11 C 0.3510(3) 0.2175(7) 0.6491(3)
H3 H 0.3266 0.2466 0.6455
C12 C 0.5143(2) 0.1019(5) 0.5574(2)
C13 C 0.4674(2) 0.3927(6) 0.4807(3)
H4 H 0.4898 0.3573 0.4809
C14 C 0.4089(2) 0.1914(5) 0.6237(2)
C15 C 0.7063(2) 0.0963(5) 0.6236(3)
H5 H 0.7128 0.1559 0.6168
C16 C 0.44762(19) 0.2886(5) 0.5352(2)
C17 C 0.7833(3) 0.4701(6) 0.6959(3)
H6 H 0.7648 0.5112 0.6803
C18 C 0.4031(3) 0.4951(7) 0.4770(3)
H7 H 0.3807 0.5308 0.4758
C20 C 0.4601(2) 0.4687(6) 0.4546(3)
H9 H 0.4784 0.4859 0.4376
C22 C 0.8422(3) 0.4441(6) 0.7421(3)
H11 H 0.8657 0.4666 0.7593
C23 C 0.7756(2) 0.3792(6) 0.6918(3)
H12 H 0.7523 0.3585 0.6736
C24 C 0.3734(3) 0.2340(7) 0.6190(3)
H13 H 0.3648 0.2742 0.5951
C25 C 0.4085(3) 0.4219(6) 0.5039(3)
H14 H 0.3898 0.4066 0.5207
C26 C 0.5317(3) 0.0985(6) 0.5216(3)
H15 H 0.5225 0.1351 0.4964
C27 C 0.8363(3) 0.3522(6) 0.7399(3)
H16 H 0.8553 0.3124 0.7555
C28 C 0.3957(3) 0.1216(8) 0.6882(4)
H17 H 0.4039 0.0827 0.7127
C29 C 0.5298(4) 0.0504(10) 0.5934(4)
H18 H 0.5196 0.0532 0.6195
C30 C 0.4199(3) 0.1335(8) 0.6587(4)
H19 H 0.4438 0.1022 0.6627
C32 C 0.83062(8) 0.03802(19) 0.78878(10)
C34 C 0.86035(8) 0.0800(2) 0.81790(11)
H22 H 0.8658 0.1420 0.8146
C36 C 0.88198(8) 0.0299(2) 0.85186(11)
H24 H 0.9028 0.0585 0.8713
Zn5 Zn 0.32820(3) 0.13950(7) 0.73012(4)
N13 N 0.86203(19) 0.6611(4) 0.6841(2)
N14 N 0.37504(9) 0.5565(2) 0.35858(11)
I1_2 I 0.26774(6) 0.23436(7) 0.70723(8)
I3_2 I 0.37059(2) 0.15295(4) 0.80719(2)
N1_2 N 0.31578(19) 0.0030(4) 0.7208(2)
H6_2 H 0.2648 0.0112 0.6803
N6_2 N 0.97543(17) 0.7309(4) 0.52951(19)
N10_2 N 0.92557(17) 0.7794(4) 0.5651(2)
N11_2 N 0.96138(18) 0.6481(4) 0.5900(2)
C2_2 C 0.9334(2) 0.7071(5) 0.5916(2)
C5_2 C 0.9815(2) 0.6641(5) 0.5589(2)
C6_2 C 0.9414(2) 0.8693(5) 0.5065(2)
C11_2 C 0.8510(3) 0.7175(7) 0.6491(3)
H3_2 H 0.8266 0.7466 0.6455
C13_2 C 0.9674(2) 0.8927(6) 0.4807(3)
H4_2 H 0.9898 0.8573 0.4809
C14_2 C 0.9089(2) 0.6914(5) 0.6237(2)
C16_2 C 0.94762(19) 0.7886(5) 0.5352(2)
C18_2 C 0.9031(3) 0.9951(7) 0.4770(3)
C20_2 C 0.9601(2) 0.9687(6) 0.4546(3)
H9_2 H 0.9784 0.9859 0.4376
C24_2 C 0.8734(3) 0.7340(7) 0.6190(3)
H13_2 H 0.8648 0.7742 0.5951
C25_2 C 0.9085(3) 0.9219(6) 0.5039(3)
H14_2 H 0.8898 0.9066 0.5207
C28_2 C 0.8957(3) 0.6216(8) 0.6882(4)
H17_2 H 0.9039 0.5827 0.7127
C30_2 C 0.9199(3) 0.6335(8) 0.6587(4)
H19_2 H 0.9438 0.6022 0.6627
I5 I 0.10370(11) 0.73719(11) 0.09934(12)
Zn2 Zn 0.12307(3) 0.59620(7) 0.05972(3)
N2_2 N 0.31774(17) 0.3260(4) 0.2471(2)
N4_2 N 0.27699(17) 0.4518(4) 0.2260(2)
N5 N 0.16634(18) 0.5330(4) 0.1049(2)
N8_2 N 0.26460(18) 0.3136(4) 0.1866(2)
N9 N 0.07694(18) 0.5097(4) 0.0571(2)
C1_2 C 0.3071(2) 0.4104(5) 0.2517(2)
C3_2 C 0.2575(2) 0.4010(5) 0.1929(2)
C4_2 C 0.2254(2) 0.4454(5) 0.1618(2)
C7_2 C 0.3021(2) 0.1816(5) 0.2145(2)
C8_2 C 0.2945(2) 0.2800(5) 0.2155(2)
C9_2 C 0.0626(3) 0.4586(6) 0.0224(3)
C10_2 C 0.1776(2) 0.4502(6) 0.0954(3)
H2_2 H 0.1653 0.4228 0.0684
C12_2 C 0.0143(2) 0.3981(5) 0.0574(2)
C15_2 C 0.2063(2) 0.4037(5) 0.1236(3)
H5_2 H 0.2128 0.3441 0.1168
C17_2 C 0.2833(3) 0.0299(6) 0.1959(3)
C19 C 0.2142(2) 0.5319(5) 0.1708(3)
H8 H 0.2269 0.5621 0.1969
C21 C 0.1848(2) 0.5737(5) 0.1419(3)
H10 H 0.1773 0.6328 0.1484
C22_2 C 0.3422(3) 0.0559(6) 0.2421(3)
H11_2 H 0.3657 0.0334 0.2593
C23_2 C 0.2756(2) 0.1208(6) 0.1918(3)
H12_2 H 0.2523 0.1415 0.1736
C26_2 C 0.0317(3) 0.4015(6) 0.0216(3)
C27_2 C 0.3363(3) 0.1478(6) 0.2399(3)
H16_2 H 0.3553 0.1876 0.2555
C29_2 C 0.0298(4) 0.4496(10) 0.0934(4)
H18_2 H 0.0196 0.4468 0.1195
C31 C 0.0601(4) 0.5051(10) 0.0912(4)
H20 H 0.0696 0.5429 0.1158
C32_2 C 0.33062(8) 0.46198(19) 0.28878(10)
C33 C 0.32372(8) 0.55327(19) 0.29517(10)
H21 H 0.3040 0.5844 0.2752
C34_2 C 0.36035(8) 0.4200(2) 0.31790(11)
H22_2 H 0.3658 0.3580 0.3146
C35 C 0.34578(9) 0.5977(2) 0.33078(11)
H23 H 0.3402 0.6589 0.3359
C36_2 C 0.38198(8) 0.4701(2) 0.35186(11)
H24_2 H 0.4028 0.4415 0.3713
I4 I 0.64343(2) 0.90904(6) 0.48596(2)
I5_2 I 0.60370(11) 0.76281(11) 0.59934(12)
Zn2_2 Zn 0.62307(3) 0.90380(7) 0.55972(3)
N5_2 N 0.66634(18) 0.9670(4) 0.6049(2)
N9_2 N 0.57694(18) 0.9903(4) 0.5571(2)
C19_2 C 0.7142(2) 0.9681(5) 0.6708(3)
H8_2 H 0.7269 0.9379 0.6969
C21_2 C 0.6848(2) 0.9263(5) 0.6419(3)
H10_2 H 0.6773 0.8672 0.6484
C31_2 C 0.5601(4) 0.9949(10) 0.5912(4)
H20_2 H 0.5696 0.9571 0.6158
C33_2 C 0.82372(8) 0.94673(19) 0.79517(10)
H21_2 H 0.8040 0.9156 0.7752
C35_2 C 0.84578(9) 0.9023(2) 0.83078(11)
H23_2 H 0.8402 0.8411 0.8359
N12 N 0.87504(9) 0.9435(2) 0.85858(11)
Zn4 Zn 0.91438(3) 0.87539(7) 0.90699(3)
I2_2 I 0.97140(2) 0.84808(4) 0.87040(2)
I6_2 I 0.87808(3) 0.76218(5) 0.94353(2)
N3_2 N 0.92848(19) 0.9808(4) 0.9521(2)
H7_2 H 0.8807 0.9692 0.9758
I2_3 I 0.52860(2) 0.65192(4) 0.12960(2)
I6_3 I 0.62192(3) 0.73782(5) 0.05647(2)
Zn1_2 Zn 0.58562(3) 0.62461(7) 0.09301(3)
N3_3 N 0.57152(19) 0.5192(4) 0.0479(2)
H1_2 H 0.4260 0.0387 0.0028
C13_3 C 0.5326(2) 0.3927(6) 0.0193(3)
H4_3 H 0.5102 0.3573 0.0191
C18_3 C 0.5969(3) 0.4951(7) 0.0230(3)
H7_3 H 0.6193 0.5308 0.0242
C20_3 C 0.5399(2) 0.4687(6) 0.0454(3)
H9_3 H 0.5216 0.4859 0.0624
H15_2 H 0.4775 0.1351 0.0036
N14_2 N 0.62496(9) 0.5565(2) 0.14142(11)
I4_2 I 0.85657(2) 0.59096(6) 0.51404(2)
I5_3 I 0.89630(11) 0.73719(11) 0.40066(12)
Zn2_3 Zn 0.87693(3) 0.59620(7) 0.44028(3)
N2_3 N 0.68226(17) 0.3260(4) 0.2529(2)
N4_3 N 0.72301(17) 0.4518(4) 0.2740(2)
N5_3 N 0.83366(18) 0.5330(4) 0.3951(2)
N8_3 N 0.73540(18) 0.3136(4) 0.3134(2)
N9_3 N 0.92306(18) 0.5097(4) 0.4429(2)
C1_3 C 0.6929(2) 0.4104(5) 0.2483(2)
C3_3 C 0.7425(2) 0.4010(5) 0.3071(2)
C4_3 C 0.7746(2) 0.4454(5) 0.3382(2)
C7_3 C 0.6979(2) 0.1816(5) 0.2855(2)
C8_3 C 0.7055(2) 0.2800(5) 0.2845(2)
C9_3 C 0.9374(3) 0.4586(6) 0.4776(3)
H1_3 H 0.9260 0.4613 0.5028
C10_3 C 0.8224(2) 0.4502(6) 0.4046(3)
H2_3 H 0.8347 0.4228 0.4316
C12_3 C 0.9857(2) 0.3981(5) 0.4426(2)
C15_3 C 0.7937(2) 0.4037(5) 0.3764(3)
H5_3 H 0.7872 0.3441 0.3832
C17_3 C 0.7167(3) 0.0299(6) 0.3041(3)
C19_3 C 0.7858(2) 0.5319(5) 0.3292(3)
H8_3 H 0.7731 0.5621 0.3031
C21_3 C 0.8152(2) 0.5737(5) 0.3581(3)
H10_3 H 0.8227 0.6328 0.3516
C22_3 C 0.6578(3) 0.0559(6) 0.2579(3)
H11_3 H 0.6343 0.0334 0.2407
C23_3 C 0.7244(2) 0.1208(6) 0.3082(3)
H12_3 H 0.7477 0.1415 0.3264
C26_3 C 0.9683(3) 0.4015(6) 0.4784(3)
H15_3 H 0.9775 0.3649 0.5036
C27_3 C 0.6637(3) 0.1478(6) 0.2601(3)
H16_3 H 0.6447 0.1876 0.2445
C29_3 C 0.9702(4) 0.4496(10) 0.4066(4)
H18_3 H 0.9804 0.4468 0.3805
C31_3 C 0.9399(4) 0.5051(10) 0.4088(4)
H20_3 H 0.9304 0.5429 0.3842
C32_3 C 0.66938(8) 0.46198(19) 0.21122(10)
C33_3 C 0.67628(8) 0.55327(19) 0.20483(10)
H21_3 H 0.6960 0.5844 0.2248
C34_3 C 0.63965(8) 0.4200(2) 0.18210(11)
H22_3 H 0.6342 0.3580 0.1854
C35_3 C 0.65422(9) 0.5977(2) 0.16922(11)
H23_3 H 0.6598 0.6589 0.1641
C36_3 C 0.61802(8) 0.4701(2) 0.14814(11)
H24_3 H 0.5972 0.4415 0.1287
I1_3 I 0.23226(6) 0.73436(7) 0.79277(8)
I3_3 I 0.12941(2) 0.65295(4) 0.69281(2)
Zn3_2 Zn 0.17180(3) 0.63950(7) 0.76988(4)
N1_3 N 0.18422(19) 0.5030(4) 0.7792(2)
N2_4 N 0.18226(17) 0.1740(4) 0.7529(2)
N4_4 N 0.22301(17) 0.0482(4) 0.7740(2)
N6_3 N 0.52457(17) 0.2309(4) 0.97049(19)
N7_2 N 0.63797(19) 0.1611(4) 0.8159(2)
N8_4 N 0.23540(18) 0.1864(4) 0.8134(2)
N10_3 N 0.57443(17) 0.2794(4) 0.9349(2)
N11_3 N 0.53862(18) 0.1481(4) 0.9100(2)
C1_4 C 0.1929(2) 0.0896(5) 0.7483(2)
C2_3 C 0.5666(2) 0.2071(5) 0.9084(2)
C3_4 C 0.2425(2) 0.0990(5) 0.8071(2)
C4_4 C 0.2746(2) 0.0546(5) 0.8382(2)
C5_3 C 0.5185(2) 0.1641(5) 0.9411(2)
C6_3 C 0.5586(2) 0.3693(5) 0.9935(2)
C7_4 C 0.1979(2) 0.3184(5) 0.7855(2)
C8_4 C 0.2055(2) 0.2200(5) 0.7845(2)
C9_4 C 0.4374(3) 0.0414(6) 0.9776(3)
C10_4 C 0.3224(2) 0.0498(6) 0.9046(3)
H2_4 H 0.3347 0.0772 0.9316
C11_3 C 0.6490(3) 0.2175(7) 0.8509(3)
H3_3 H 0.6734 0.2466 0.8545
C12_4 C 0.4857(2) 0.1019(5) 0.9426(2)
C14_3 C 0.5911(2) 0.1914(5) 0.8763(2)
C15_4 C 0.2937(2) 0.0963(5) 0.8764(3)
H5_4 H 0.2872 0.1559 0.8832
C16_3 C 0.55238(19) 0.2886(5) 0.9648(2)
C17_4 C 0.2167(3) 0.4701(6) 0.8041(3)
H6_3 H 0.2352 0.5112 0.8197
C22_4 C 0.1578(3) 0.4441(6) 0.7579(3)
H11_4 H 0.1343 0.4666 0.7407
C23_4 C 0.2244(2) 0.3792(6) 0.8082(3)
H12_4 H 0.2477 0.3585 0.8264
C24_3 C 0.6266(3) 0.2340(7) 0.8810(3)
H13_3 H 0.6352 0.2742 0.9049
C25_3 C 0.5915(3) 0.4219(6) 0.9961(3)
H14_3 H 0.6102 0.4066 0.9793
C26_4 C 0.4683(3) 0.0985(6) 0.9784(3)
C27_4 C 0.1637(3) 0.3522(6) 0.7601(3)
H16_4 H 0.1447 0.3124 0.7445
C28_3 C 0.6043(3) 0.1216(8) 0.8118(4)
H17_3 H 0.5961 0.0827 0.7873
C29_4 C 0.4702(4) 0.0504(10) 0.9066(4)
H18_4 H 0.4804 0.0532 0.8805
C30_3 C 0.5801(3) 0.1335(8) 0.8413(4)
H19_3 H 0.5562 0.1022 0.8373
C32_4 C 0.16938(8) 0.03802(19) 0.71122(10)
C34_4 C 0.13965(8) 0.0800(2) 0.68210(11)
H22_4 H 0.1342 0.1420 0.6854
C36_4 C 0.11802(8) 0.0299(2) 0.64814(11)
H24_4 H 0.0972 0.0585 0.6287
Zn5_2 Zn 0.67180(3) 0.13950(7) 0.76988(4)
N13_2 N 0.13797(19) 0.6611(4) 0.8159(2)
N6_4 N 0.02457(17) 0.7309(4) 0.97049(19)
N10_4 N 0.07443(17) 0.7794(4) 0.9349(2)
N11_4 N 0.03862(18) 0.6481(4) 0.9100(2)
C2_4 C 0.0666(2) 0.7071(5) 0.9084(2)
C5_4 C 0.0185(2) 0.6641(5) 0.9411(2)
C6_4 C 0.0586(2) 0.8693(5) 0.9935(2)
C11_4 C 0.1490(3) 0.7175(7) 0.8509(3)
H3_4 H 0.1734 0.7466 0.8545
C14_4 C 0.0911(2) 0.6914(5) 0.8763(2)
C16_4 C 0.05238(19) 0.7886(5) 0.9648(2)
C24_4 C 0.1266(3) 0.7340(7) 0.8810(3)
H13_4 H 0.1352 0.7742 0.9049
C25_4 C 0.0915(3) 0.9219(6) 0.9961(3)
H14_4 H 0.1102 0.9066 0.9793
C28_4 C 0.1043(3) 0.6216(8) 0.8118(4)
H17_4 H 0.0961 0.5827 0.7873
C30_4 C 0.0801(3) 0.6335(8) 0.8413(4)
H19_4 H 0.0562 0.6022 0.8373
I1_4 I 0.73226(6) 0.23436(7) 0.79277(8)
I3_4 I 0.62941(2) 0.15295(4) 0.69281(2)
N1_4 N 0.68422(19) 0.0030(4) 0.7792(2)
H6_4 H 0.7352 0.0112 0.8197
I4_3 I 0.35657(2) 0.90904(6) 0.01404(2)
I5_4 I 0.39630(11) 0.76281(11) 0.90066(12)
Zn2_4 Zn 0.37693(3) 0.90380(7) 0.94028(3)
N5_4 N 0.33366(18) 0.9670(4) 0.8951(2)
N9_4 N 0.42306(18) 0.9903(4) 0.9429(2)
C19_4 C 0.2858(2) 0.9681(5) 0.8292(3)
H8_4 H 0.2731 0.9379 0.8031
C21_4 C 0.3152(2) 0.9263(5) 0.8581(3)
H10_4 H 0.3227 0.8672 0.8516
C31_4 C 0.4399(4) 0.9949(10) 0.9088(4)
H20_4 H 0.4304 0.9571 0.8842
C33_4 C 0.17628(8) 0.94673(19) 0.70483(10)
H21_4 H 0.1960 0.9156 0.7248
C35_4 C 0.15422(9) 0.9023(2) 0.66922(11)
H23_4 H 0.1598 0.8411 0.6641
N12_2 N 0.12496(9) 0.9435(2) 0.64142(11)
Zn4_2 Zn 0.08562(3) 0.87539(7) 0.59301(3)
I2_4 I 0.02860(2) 0.84808(4) 0.62960(2)
I6_4 I 0.12192(3) 0.76218(5) 0.55647(2)
N3_4 N 0.07152(19) 0.9808(4) 0.5479(2)
H7_4 H 0.1193 0.9692 0.5242
I4_4 I 0.14343(2) 0.40904(6) 0.48596(2)
I5_5 I 0.10370(11) 0.26281(11) 0.59934(12)
Zn2_5 Zn 0.12307(3) 0.40380(7) 0.55972(3)
N2_5 N 0.31774(17) 0.6740(4) 0.7471(2)
N4_5 N 0.27699(17) 0.5482(4) 0.7260(2)
N5_5 N 0.16634(18) 0.4670(4) 0.6049(2)
N8_5 N 0.26460(18) 0.6864(4) 0.6866(2)
N9_5 N 0.07694(18) 0.4903(4) 0.5571(2)
C1_5 C 0.3071(2) 0.5896(5) 0.7517(2)
C3_5 C 0.2575(2) 0.5990(5) 0.6929(2)
C4_5 C 0.2254(2) 0.5546(5) 0.6618(2)
C7_5 C 0.3021(2) 0.8184(5) 0.7145(2)
C8_5 C 0.2945(2) 0.7200(5) 0.7155(2)
C9_5 C 0.0626(3) 0.5414(6) 0.5224(3)
H1_4 H 0.0740 0.5387 0.4972
C10_5 C 0.1776(2) 0.5498(6) 0.5954(3)
H2_5 H 0.1653 0.5772 0.5684
C12_5 C 0.0143(2) 0.6019(5) 0.5574(2)
C15_5 C 0.2063(2) 0.5963(5) 0.6236(3)
H5_5 H 0.2128 0.6559 0.6168
C17_5 C 0.2833(3) 0.9701(6) 0.6959(3)
C19_5 C 0.2142(2) 0.4681(5) 0.6708(3)
H8_5 H 0.2269 0.4379 0.6969
C21_5 C 0.1848(2) 0.4263(5) 0.6419(3)
H10_5 H 0.1773 0.3672 0.6484
C22_5 C 0.3422(3) 0.9441(6) 0.7421(3)
H11_5 H 0.3657 0.9666 0.7593
C23_5 C 0.2756(2) 0.8792(6) 0.6918(3)
H12_5 H 0.2523 0.8585 0.6736
C26_5 C 0.0317(3) 0.5985(6) 0.5216(3)
H15_4 H 0.0225 0.6351 0.4964
C27_5 C 0.3363(3) 0.8522(6) 0.7399(3)
H16_5 H 0.3553 0.8124 0.7555
C29_5 C 0.0298(4) 0.5504(10) 0.5934(4)
H18_5 H 0.0196 0.5532 0.6195
C31_5 C 0.0601(4) 0.4949(10) 0.5912(4)
H20_5 H 0.0696 0.4571 0.6158
C32_5 C 0.33062(8) 0.53802(19) 0.78878(10)
C33_5 C 0.32372(8) 0.44673(19) 0.79517(10)
H21_5 H 0.3040 0.4156 0.7752
C34_5 C 0.36035(8) 0.5800(2) 0.81790(11)
H22_5 H 0.3658 0.6420 0.8146
C35_5 C 0.34578(9) 0.4023(2) 0.83078(11)
H23_5 H 0.3402 0.3411 0.8359
C36_5 C 0.38198(8) 0.5299(2) 0.85186(11)
H24_5 H 0.4028 0.5585 0.8713
N12_3 N 0.37504(9) 0.4435(2) 0.85858(11)
Zn4_3 Zn 0.41438(3) 0.37539(7) 0.90699(3)
I2_5 I 0.47140(2) 0.34808(4) 0.87040(2)
I6_5 I 0.37808(3) 0.26218(5) 0.94353(2)
N3_5 N 0.42848(19) 0.4808(4) 0.9521(2)
H1_5 H 0.5740 0.9613 0.9972
C13_4 C 0.4674(2) 0.6073(6) 0.9807(3)
H4_4 H 0.4898 0.6427 0.9809
C18_4 C 0.4031(3) 0.5049(7) 0.9770(3)
H7_5 H 0.3807 0.4692 0.9758
C20_4 C 0.4601(2) 0.5313(6) 0.9546(3)
H9_4 H 0.4784 0.5141 0.9376
H15_5 H 0.5225 0.8649 0.9964
I2_6 I 0.97140(2) 0.15192(4) 0.37040(2)
I6_6 I 0.87808(3) 0.23782(5) 0.44353(2)
Zn1_3 Zn 0.91438(3) 0.12461(7) 0.40699(3)
N3_6 N 0.92848(19) 0.0192(4) 0.4521(2)
H7_6 H 0.8807 0.0308 0.4758
N14_3 N 0.87504(9) 0.0565(2) 0.35858(11)
I5_6 I 0.60370(11) 0.23719(11) 0.09934(12)
Zn2_6 Zn 0.62307(3) 0.09620(7) 0.05972(3)
N5_6 N 0.66634(18) 0.0330(4) 0.1049(2)
N9_6 N 0.57694(18) 0.0097(4) 0.0571(2)
C19_6 C 0.7142(2) 0.0319(5) 0.1708(3)
H8_6 H 0.7269 0.0621 0.1969
C21_6 C 0.6848(2) 0.0737(5) 0.1419(3)
H10_6 H 0.6773 0.1328 0.1484
C31_6 C 0.5601(4) 0.0051(10) 0.0912(4)
H20_6 H 0.5696 0.0429 0.1158
C33_6 C 0.82372(8) 0.05327(19) 0.29517(10)
H21_6 H 0.8040 0.0844 0.2752
C35_6 C 0.84578(9) 0.0977(2) 0.33078(11)
H23_6 H 0.8402 0.1589 0.3359
I2_7 I 0.02860(2) 0.15192(4) 0.12960(2)
I6_7 I 0.12192(3) 0.23782(5) 0.05647(2)
Zn1_4 Zn 0.08562(3) 0.12461(7) 0.09301(3)
N3_7 N 0.07152(19) 0.0192(4) 0.0479(2)
H7_7 H 0.1193 0.0308 0.0242
N14_4 N 0.12496(9) 0.0565(2) 0.14142(11)
I4_5 I 0.35657(2) 0.09096(6) 0.51404(2)
I5_7 I 0.39630(11) 0.23719(11) 0.40066(12)
Zn2_7 Zn 0.37693(3) 0.09620(7) 0.44028(3)
N5_7 N 0.33366(18) 0.0330(4) 0.3951(2)
N9_7 N 0.42306(18) 0.0097(4) 0.4429(2)
C19_7 C 0.2858(2) 0.0319(5) 0.3292(3)
H8_7 H 0.2731 0.0621 0.3031
C21_7 C 0.3152(2) 0.0737(5) 0.3581(3)
H10_7 H 0.3227 0.1328 0.3516
C31_7 C 0.4399(4) 0.0051(10) 0.4088(4)
H20_7 H 0.4304 0.0429 0.3842
C33_7 C 0.17628(8) 0.05327(19) 0.20483(10)
H21_7 H 0.1960 0.0844 0.2248
C35_7 C 0.15422(9) 0.0977(2) 0.16922(11)
H23_7 H 0.1598 0.1589 0.1641
C13_5 C 0.0326(2) 0.8927(6) 0.0193(3)
H4_5 H 0.0102 0.8573 0.0191
C18_5 C 0.0969(3) 0.9951(7) 0.0230(3)
C20_5 C 0.0399(2) 0.9687(6) 0.0454(3)
H9_5 H 0.0216 0.9859 0.0624
I4_6 I 0.85657(2) 0.40904(6) 0.01404(2)
H1_6 H 0.9260 0.5387 0.0028
H15_6 H 0.9775 0.6351 0.0036
I5_8 I 0.89630(11) 0.26281(11) 0.90066(12)
Zn2_8 Zn 0.87693(3) 0.40380(7) 0.94028(3)
N2_6 N 0.68226(17) 0.6740(4) 0.7529(2)
N4_6 N 0.72301(17) 0.5482(4) 0.7740(2)
N5_8 N 0.83366(18) 0.4670(4) 0.8951(2)
N8_6 N 0.73540(18) 0.6864(4) 0.8134(2)
N9_8 N 0.92306(18) 0.4903(4) 0.9429(2)
C1_6 C 0.6929(2) 0.5896(5) 0.7483(2)
C3_6 C 0.7425(2) 0.5990(5) 0.8071(2)
C4_6 C 0.7746(2) 0.5546(5) 0.8382(2)
C7_6 C 0.6979(2) 0.8184(5) 0.7855(2)
C8_6 C 0.7055(2) 0.7200(5) 0.7845(2)
C9_6 C 0.9374(3) 0.5414(6) 0.9776(3)
C10_6 C 0.8224(2) 0.5498(6) 0.9046(3)
H2_6 H 0.8347 0.5772 0.9316
C12_6 C 0.9857(2) 0.6019(5) 0.9426(2)
C15_6 C 0.7937(2) 0.5963(5) 0.8764(3)
H5_6 H 0.7872 0.6559 0.8832
C17_6 C 0.7167(3) 0.9701(6) 0.8041(3)
C19_8 C 0.7858(2) 0.4681(5) 0.8292(3)
H8_8 H 0.7731 0.4379 0.8031
C21_8 C 0.8152(2) 0.4263(5) 0.8581(3)
H10_8 H 0.8227 0.3672 0.8516
C22_6 C 0.6578(3) 0.9441(6) 0.7579(3)
H11_6 H 0.6343 0.9666 0.7407
C23_6 C 0.7244(2) 0.8792(6) 0.8082(3)
H12_6 H 0.7477 0.8585 0.8264
C26_6 C 0.9683(3) 0.5985(6) 0.9784(3)
C27_6 C 0.6637(3) 0.8522(6) 0.7601(3)
H16_6 H 0.6447 0.8124 0.7445
C29_6 C 0.9702(4) 0.5504(10) 0.9066(4)
H18_6 H 0.9804 0.5532 0.8805
C31_8 C 0.9399(4) 0.4949(10) 0.9088(4)
H20_8 H 0.9304 0.4571 0.8842
C32_6 C 0.66938(8) 0.53802(19) 0.71122(10)
C33_8 C 0.67628(8) 0.44673(19) 0.70483(10)
H21_8 H 0.6960 0.4156 0.7248
C34_6 C 0.63965(8) 0.5800(2) 0.68210(11)
H22_6 H 0.6342 0.6420 0.6854
C35_8 C 0.65422(9) 0.4023(2) 0.66922(11)
H23_8 H 0.6598 0.3411 0.6641
C36_6 C 0.61802(8) 0.5299(2) 0.64814(11)
H24_6 H 0.5972 0.5585 0.6287
N12_4 N 0.62496(9) 0.4435(2) 0.64142(11)
Zn4_4 Zn 0.58562(3) 0.37539(7) 0.59301(3)
I1_5 I 0.23226(6) 0.26564(7) 0.29277(8)
I2_8 I 0.52860(2) 0.34808(4) 0.62960(2)
I3_5 I 0.12941(2) 0.34705(4) 0.19281(2)
I6_8 I 0.62192(3) 0.26218(5) 0.55647(2)
Zn3_3 Zn 0.17180(3) 0.36050(7) 0.26988(4)
N1_5 N 0.18422(19) 0.4970(4) 0.2792(2)
N2_7 N 0.18226(17) 0.8260(4) 0.2529(2)
N3_8 N 0.57152(19) 0.4808(4) 0.5479(2)
N4_7 N 0.22301(17) 0.9518(4) 0.2740(2)
N6_5 N 0.52457(17) 0.7691(4) 0.47049(19)
N7_3 N 0.63797(19) 0.8389(4) 0.3159(2)
N8_7 N 0.23540(18) 0.8136(4) 0.3134(2)
N10_5 N 0.57443(17) 0.7206(4) 0.4349(2)
N11_5 N 0.53862(18) 0.8519(4) 0.4100(2)
C1_7 C 0.1929(2) 0.9104(5) 0.2483(2)
C2_5 C 0.5666(2) 0.7929(5) 0.4084(2)
C3_7 C 0.2425(2) 0.9010(5) 0.3071(2)
C4_7 C 0.2746(2) 0.9454(5) 0.3382(2)
C5_5 C 0.5185(2) 0.8359(5) 0.4411(2)
C6_5 C 0.5586(2) 0.6307(5) 0.4935(2)
C7_7 C 0.1979(2) 0.6816(5) 0.2855(2)
C8_7 C 0.2055(2) 0.7800(5) 0.2845(2)
C9_7 C 0.4374(3) 0.9586(6) 0.4776(3)
H1_7 H 0.4260 0.9613 0.5028
C10_7 C 0.3224(2) 0.9502(6) 0.4046(3)
H2_7 H 0.3347 0.9228 0.4316
C11_5 C 0.6490(3) 0.7825(7) 0.3509(3)
H3_5 H 0.6734 0.7534 0.3545
C12_7 C 0.4857(2) 0.8981(5) 0.4426(2)
C13_6 C 0.5326(2) 0.6073(6) 0.5193(3)
H4_6 H 0.5102 0.6427 0.5191
C14_5 C 0.5911(2) 0.8086(5) 0.3763(2)
C15_7 C 0.2937(2) 0.9037(5) 0.3764(3)
H5_7 H 0.2872 0.8441 0.3832
C16_5 C 0.55238(19) 0.7114(5) 0.4648(2)
C17_7 C 0.2167(3) 0.5299(6) 0.3041(3)
H6_5 H 0.2352 0.4888 0.3197
C18_6 C 0.5969(3) 0.5049(7) 0.5230(3)
H7_8 H 0.6193 0.4692 0.5242
C20_6 C 0.5399(2) 0.5313(6) 0.5454(3)
H9_6 H 0.5216 0.5141 0.5624
C22_7 C 0.1578(3) 0.5559(6) 0.2579(3)
H11_7 H 0.1343 0.5334 0.2407
C23_7 C 0.2244(2) 0.6208(6) 0.3082(3)
H12_7 H 0.2477 0.6415 0.3264
C24_5 C 0.6266(3) 0.7660(7) 0.3810(3)
H13_5 H 0.6352 0.7258 0.4049
C25_5 C 0.5915(3) 0.5781(6) 0.4961(3)
H14_5 H 0.6102 0.5934 0.4793
C26_7 C 0.4683(3) 0.9015(6) 0.4784(3)
H15_7 H 0.4775 0.8649 0.5036
C27_7 C 0.1637(3) 0.6478(6) 0.2601(3)
H16_7 H 0.1447 0.6876 0.2445
C28_5 C 0.6043(3) 0.8784(8) 0.3118(4)
H17_5 H 0.5961 0.9173 0.2873
C29_7 C 0.4702(4) 0.9496(10) 0.4066(4)
H18_7 H 0.4804 0.9468 0.3805
C30_5 C 0.5801(3) 0.8665(8) 0.3413(4)
H19_5 H 0.5562 0.8978 0.3373
C32_7 C 0.16938(8) 0.96198(19) 0.21122(10)
C34_7 C 0.13965(8) 0.9200(2) 0.18210(11)
H22_7 H 0.1342 0.8580 0.1854
C36_7 C 0.11802(8) 0.9701(2) 0.14814(11)
H24_7 H 0.0972 0.9415 0.1287
Zn5_3 Zn 0.67180(3) 0.86050(7) 0.26988(4)
N13_3 N 0.13797(19) 0.3389(4) 0.3159(2)
N6_6 N 0.02457(17) 0.2691(4) 0.47049(19)
N10_6 N 0.07443(17) 0.2206(4) 0.4349(2)
N11_6 N 0.03862(18) 0.3519(4) 0.4100(2)
C2_6 C 0.0666(2) 0.2929(5) 0.4084(2)
C5_6 C 0.0185(2) 0.3359(5) 0.4411(2)
C6_6 C 0.0586(2) 0.1307(5) 0.4935(2)
C11_6 C 0.1490(3) 0.2825(7) 0.3509(3)
H3_6 H 0.1734 0.2534 0.3545
C13_7 C 0.0326(2) 0.1073(6) 0.5193(3)
H4_7 H 0.0102 0.1427 0.5191
C14_6 C 0.0911(2) 0.3086(5) 0.3763(2)
C16_6 C 0.05238(19) 0.2114(5) 0.4648(2)
C18_7 C 0.0969(3) 0.0049(7) 0.5230(3)
C20_7 C 0.0399(2) 0.0313(6) 0.5454(3)
H9_7 H 0.0216 0.0141 0.5624
C24_6 C 0.1266(3) 0.2660(7) 0.3810(3)
H13_6 H 0.1352 0.2258 0.4049
C25_6 C 0.0915(3) 0.0781(6) 0.4961(3)
H14_6 H 0.1102 0.0934 0.4793
C28_6 C 0.1043(3) 0.3784(8) 0.3118(4)
H17_6 H 0.0961 0.4173 0.2873
C30_6 C 0.0801(3) 0.3665(8) 0.3413(4)
H19_6 H 0.0562 0.3978 0.3373
I1_6 I 0.73226(6) 0.76564(7) 0.29277(8)
I3_6 I 0.62941(2) 0.84705(4) 0.19281(2)
N1_6 N 0.68422(19) 0.9970(4) 0.2792(2)
H6_6 H 0.7352 0.9888 0.3197
I4_7 I 0.64343(2) 0.09096(6) 0.98596(2)
I1_7 I 0.76774(6) 0.26564(7) 0.20723(8)
I3_7 I 0.87059(2) 0.34705(4) 0.30719(2)
Zn3_4 Zn 0.82820(3) 0.36050(7) 0.23012(4)
N1_7 N 0.81578(19) 0.4970(4) 0.2208(2)
N2_8 N 0.81774(17) 0.8260(4) 0.2471(2)
N4_8 N 0.77699(17) 0.9518(4) 0.2260(2)
N6_7 N 0.47543(17) 0.7691(4) 0.02951(19)
N7_4 N 0.36203(19) 0.8389(4) 0.1841(2)
N8_8 N 0.76460(18) 0.8136(4) 0.1866(2)
N10_7 N 0.42557(17) 0.7206(4) 0.0651(2)
N11_7 N 0.46138(18) 0.8519(4) 0.0900(2)
C1_8 C 0.8071(2) 0.9104(5) 0.2517(2)
C2_7 C 0.4334(2) 0.7929(5) 0.0916(2)
C3_8 C 0.7575(2) 0.9010(5) 0.1929(2)
C4_8 C 0.7254(2) 0.9454(5) 0.1618(2)
C5_7 C 0.4815(2) 0.8359(5) 0.0589(2)
C6_7 C 0.4414(2) 0.6307(5) 0.0065(2)
C7_8 C 0.8021(2) 0.6816(5) 0.2145(2)
C8_8 C 0.7945(2) 0.7800(5) 0.2155(2)
C9_8 C 0.5626(3) 0.9586(6) 0.0224(3)
C10_8 C 0.6776(2) 0.9502(6) 0.0954(3)
H2_8 H 0.6653 0.9228 0.0684
C11_7 C 0.3510(3) 0.7825(7) 0.1491(3)
H3_7 H 0.3266 0.7534 0.1455
C12_8 C 0.5143(2) 0.8981(5) 0.0574(2)
C14_7 C 0.4089(2) 0.8086(5) 0.1237(2)
C15_8 C 0.7063(2) 0.9037(5) 0.1236(3)
H5_8 H 0.7128 0.8441 0.1168
C16_7 C 0.44762(19) 0.7114(5) 0.0352(2)
C17_8 C 0.7833(3) 0.5299(6) 0.1959(3)
H6_7 H 0.7648 0.4888 0.1803
C22_8 C 0.8422(3) 0.5559(6) 0.2421(3)
H11_8 H 0.8657 0.5334 0.2593
C23_8 C 0.7756(2) 0.6208(6) 0.1918(3)
H12_8 H 0.7523 0.6415 0.1736
C24_7 C 0.3734(3) 0.7660(7) 0.1190(3)
H13_7 H 0.3648 0.7258 0.0951
C25_7 C 0.4085(3) 0.5781(6) 0.0039(3)
H14_7 H 0.3898 0.5934 0.0207
C26_8 C 0.5317(3) 0.9015(6) 0.0216(3)
C27_8 C 0.8363(3) 0.6478(6) 0.2399(3)
H16_8 H 0.8553 0.6876 0.2555
C28_7 C 0.3957(3) 0.8784(8) 0.1882(4)
H17_7 H 0.4039 0.9173 0.2127
C29_8 C 0.5298(4) 0.9496(10) 0.0934(4)
H18_8 H 0.5196 0.9468 0.1195
C30_7 C 0.4199(3) 0.8665(8) 0.1587(4)
H19_7 H 0.4438 0.8978 0.1627
C32_8 C 0.83062(8) 0.96198(19) 0.28878(10)
C34_8 C 0.86035(8) 0.9200(2) 0.31790(11)
H22_8 H 0.8658 0.8580 0.3146
C36_8 C 0.88198(8) 0.9701(2) 0.35186(11)
H24_8 H 0.9028 0.9415 0.3713
Zn5_4 Zn 0.32820(3) 0.86050(7) 0.23012(4)
N13_4 N 0.86203(19) 0.3389(4) 0.1841(2)
I1_8 I 0.26774(6) 0.76564(7) 0.20723(8)
I3_8 I 0.37059(2) 0.84705(4) 0.30719(2)
N1_8 N 0.31578(19) 0.9970(4) 0.2208(2)
H6_8 H 0.2648 0.9888 0.1803
N6_8 N 0.97543(17) 0.2691(4) 0.02951(19)
N10_8 N 0.92557(17) 0.2206(4) 0.0651(2)
N11_8 N 0.96138(18) 0.3519(4) 0.0900(2)
C2_8 C 0.9334(2) 0.2929(5) 0.0916(2)
C5_8 C 0.9815(2) 0.3359(5) 0.0589(2)
C6_8 C 0.9414(2) 0.1307(5) 0.0065(2)
C11_8 C 0.8510(3) 0.2825(7) 0.1491(3)
H3_8 H 0.8266 0.2534 0.1455
C14_8 C 0.9089(2) 0.3086(5) 0.1237(2)
C16_8 C 0.94762(19) 0.2114(5) 0.0352(2)
C24_8 C 0.8734(3) 0.2660(7) 0.1190(3)
H13_8 H 0.8648 0.2258 0.0951
C25_8 C 0.9085(3) 0.0781(6) 0.0039(3)
H14_8 H 0.8898 0.0934 0.0207
C28_8 C 0.8957(3) 0.3784(8) 0.1882(4)
H17_8 H 0.9039 0.4173 0.2127
C30_8 C 0.9199(3) 0.3665(8) 0.1587(4)
H19_8 H 0.9438 0.3978 0.1627
I4_8 I 0.14343(2) 0.59096(6) 0.98596(2)
H1_8 H 0.0740 0.4613 0.9972
H15_8 H 0.0225 0.3649 0.9964
C13_8 C 0.9674(2) 0.1073(6) 0.9807(3)
H4_8 H 0.9898 0.1427 0.9809
C18_8 C 0.9031(3) 0.0049(7) 0.9770(3)
C20_8 C 0.9601(2) 0.0313(6) 0.9546(3)
H9_8 H 0.9784 0.0141 0.9376
loop_
_geom_bond_atom_site_label_1
_geom_bond_atom_site_label_2
_geom_bond_site_symmetry_1
_geom_bond_site_symmetry_2
I1 Zn3 1_555 1_555
I2 Zn1 1_555 1_555
I3 Zn3 1_555 1_555
I6 Zn1 1_555 1_555
Zn1 N3 1_555 1_555
Zn3 N1 1_555 1_555
N1 C17 1_555 1_555
N2 C1 1_555 1_555
N3 C18 1_555 1_555
N4 C1 1_555 1_555
N6 C5 1_555 1_555
N7 C11 1_555 1_555
N8 C3 1_555 1_555
N10 C2 1_555 1_555
N11 C2 1_555 1_555
C1 C32 1_555 1_555
C2 C14 1_555 1_555
C3 N4 1_555 1_555
C4 C3 1_555 1_555
C5 N11 1_555 1_555
C6 C13 1_555 1_555
C7 C8 1_555 1_555
C8 N2 1_555 1_555
H1 C9 1_555 1_555
C10 H2 1_555 1_555
C11 H3 1_555 1_555
C12 C5 1_555 1_555
C13 H4 1_555 1_555
C14 C24 1_555 1_555
C15 C4 1_555 1_555
H5 C15 1_555 1_555
C16 N6 1_555 1_555
C17 H6 1_555 1_555
C18 H7 1_555 1_555
C20 N3 1_555 1_555
H9 C20 1_555 1_555
C22 N1 1_555 1_555
H11 C22 1_555 1_555
C23 C7 1_555 1_555
H12 C23 1_555 1_555
C24 C11 1_555 1_555
H13 C24 1_555 1_555
C25 C6 1_555 1_555
H14 C25 1_555 1_555
C26 C9 1_555 1_555
H15 C26 1_555 1_555
C27 C7 1_555 1_555
H16 C27 1_555 1_555
C28 N7 1_555 1_555
H17 C28 1_555 1_555
C29 C12 1_555 1_555
H18 C29 1_555 1_555
C30 C14 1_555 1_555
H19 C30 1_555 1_555
C34 C32 1_555 1_555
H22 C34 1_555 1_555
C36 C34 1_555 1_555
H24 C36 1_555 1_555
Zn5 N7 1_555 1_555
N13 Zn3 1_555 1_555
N14 Zn1 1_555 1_555
N8 C8 1_555 1_555
N10 C16 1_555 1_555
C6 C16 1_555 1_555
C10 C15 1_555 1_555
C12 C26 1_555 1_555
C13 C20 1_555 1_555
C17 C23 1_555 1_555
C18 C25 1_555 1_555
C22 C27 1_555 1_555
C28 C30 1_555 1_555
I1_2 Zn5 1_555 1_555
I3_2 Zn5 1_555 1_555
Zn5 N1_2 1_555 1_555
N6_2 C5_2 1_555 1_555
N13 C11_2 1_555 1_555
N10_2 C2_2 1_555 1_555
N11_2 C2_2 1_555 1_555
C2_2 C14_2 1_555 1_555
C5_2 N11_2 1_555 1_555
C6_2 C13_2 1_555 1_555
C11_2 H3_2 1_555 1_555
C13_2 H4_2 1_555 1_555
C14_2 C24_2 1_555 1_555
C16_2 N6_2 1_555 1_555
H9_2 C20_2 1_555 1_555
C24_2 C11_2 1_555 1_555
H13_2 C24_2 1_555 1_555
C25_2 C6_2 1_555 1_555
H14_2 C25_2 1_555 1_555
C28_2 N13 1_555 1_555
H17_2 C28_2 1_555 1_555
C30_2 C14_2 1_555 1_555
H19_2 C30_2 1_555 1_555
N10_2 C16_2 1_555 1_555
C6_2 C16_2 1_555 1_555
C13_2 C20_2 1_555 1_555
C18_2 C25_2 1_555 1_555
C28_2 C30_2 1_555 1_555
I5 Zn2 1_555 1_555
Zn2 N5 1_555 1_555
N2_2 C1_2 1_555 1_555
N4_2 C1_2 1_555 1_555
N5 C10_2 1_555 1_555
N8_2 C3_2 1_555 1_555
N9 Zn2 1_555 1_555
C1_2 C32_2 1_555 1_555
C3_2 N4_2 1_555 1_555
C4_2 C3_2 1_555 1_555
C7_2 C8_2 1_555 1_555
C8_2 N2_2 1_555 1_555
C9_2 N9 1_555 1_555
C10_2 H2_2 1_555 1_555
C15_2 C4_2 1_555 1_555
H5_2 C15_2 1_555 1_555
C19 C4_2 1_555 1_555
H8 C19 1_555 1_555
C21 N5 1_555 1_555
H10 C21 1_555 1_555
H11_2 C22_2 1_555 1_555
C23_2 C7_2 1_555 1_555
H12_2 C23_2 1_555 1_555
C26_2 C9_2 1_555 1_555
C27_2 C7_2 1_555 1_555
H16_2 C27_2 1_555 1_555
C29_2 C12_2 1_555 1_555
H18_2 C29_2 1_555 1_555
C31 N9 1_555 1_555
H20 C31 1_555 1_555
C32_2 C33 1_555 1_555
C33 H21 1_555 1_555
C34_2 C32_2 1_555 1_555
H22_2 C34_2 1_555 1_555
C35 C33 1_555 1_555
H23 C35 1_555 1_555
C36_2 C34_2 1_555 1_555
H24_2 C36_2 1_555 1_555
N14 C35 1_555 1_555
N8_2 C8_2 1_555 1_555
C10_2 C15_2 1_555 1_555
C12_2 C26_2 1_555 1_555
C17_2 C23_2 1_555 1_555
C19 C21 1_555 1_555
C22_2 C27_2 1_555 1_555
C29_2 C31 1_555 1_555
C36_2 N14 1_555 1_555
I4 Zn2_2 1_555 1_555
I5_2 Zn2_2 1_555 1_555
Zn2_2 N5_2 1_555 1_555
N9_2 Zn2_2 1_555 1_555
H8_2 C19_2 1_555 1_555
C21_2 N5_2 1_555 1_555
H10_2 C21_2 1_555 1_555
C31_2 N9_2 1_555 1_555
H20_2 C31_2 1_555 1_555
C33_2 H21_2 1_555 1_555
C35_2 C33_2 1_555 1_555
H23_2 C35_2 1_555 1_555
N12 C35_2 1_555 1_555
Zn4 N12 1_555 1_555
C19_2 C21_2 1_555 1_555
I2_2 Zn4 1_555 1_555
I6_2 Zn4 1_555 1_555
Zn4 N3_2 1_555 1_555
I2_3 Zn1_2 1_555 1_555
I6_3 Zn1_2 1_555 1_555
Zn1_2 N3_3 1_555 1_555
N3_3 C18_3 1_555 1_555
C13_3 H4_3 1_555 1_555
C18_3 H7_3 1_555 1_555
C20_3 N3_3 1_555 1_555
H9_3 C20_3 1_555 1_555
N14_2 Zn1_2 1_555 1_555
C13_3 C20_3 1_555 1_555
I4_2 Zn2_3 1_555 1_555
I5_3 Zn2_3 1_555 1_555
Zn2_3 N5_3 1_555 1_555
N2_3 C1_3 1_555 1_555
N4_3 C1_3 1_555 1_555
N5_3 C10_3 1_555 1_555
N8_3 C3_3 1_555 1_555
N9_3 Zn2_3 1_555 1_555
C1_3 C32_3 1_555 1_555
C3_3 N4_3 1_555 1_555
C4_3 C3_3 1_555 1_555
C7_3 C8_3 1_555 1_555
C8_3 N2_3 1_555 1_555
C9_3 N9_3 1_555 1_555
H1_3 C9_3 1_555 1_555
C10_3 H2_3 1_555 1_555
C15_3 C4_3 1_555 1_555
H5_3 C15_3 1_555 1_555
C19_3 C4_3 1_555 1_555
H8_3 C19_3 1_555 1_555
C21_3 N5_3 1_555 1_555
H10_3 C21_3 1_555 1_555
H11_3 C22_3 1_555 1_555
C23_3 C7_3 1_555 1_555
H12_3 C23_3 1_555 1_555
C26_3 C9_3 1_555 1_555
H15_3 C26_3 1_555 1_555
C27_3 C7_3 1_555 1_555
H16_3 C27_3 1_555 1_555
C29_3 C12_3 1_555 1_555
H18_3 C29_3 1_555 1_555
C31_3 N9_3 1_555 1_555
H20_3 C31_3 1_555 1_555
C32_3 C33_3 1_555 1_555
C33_3 H21_3 1_555 1_555
C34_3 C32_3 1_555 1_555
H22_3 C34_3 1_555 1_555
C35_3 C33_3 1_555 1_555
H23_3 C35_3 1_555 1_555
C36_3 C34_3 1_555 1_555
H24_3 C36_3 1_555 1_555
N14_2 C35_3 1_555 1_555
N8_3 C8_3 1_555 1_555
C10_3 C15_3 1_555 1_555
C12_3 C26_3 1_555 1_555
C17_3 C23_3 1_555 1_555
C19_3 C21_3 1_555 1_555
C22_3 C27_3 1_555 1_555
C29_3 C31_3 1_555 1_555
C36_3 N14_2 1_555 1_555
I1_3 Zn3_2 1_555 1_555
I3_3 Zn3_2 1_555 1_555
Zn3_2 N1_3 1_555 1_555
N1_3 C17_4 1_555 1_555
N2_4 C1_4 1_555 1_555
N4_4 C1_4 1_555 1_555
N6_3 C5_3 1_555 1_555
N7_2 C11_3 1_555 1_555
N8_4 C3_4 1_555 1_555
N10_3 C2_3 1_555 1_555
N11_3 C2_3 1_555 1_555
C1_4 C32_4 1_555 1_555
C2_3 C14_3 1_555 1_555
C3_4 N4_4 1_555 1_555
C4_4 C3_4 1_555 1_555
C5_3 N11_3 1_555 1_555
C7_4 C8_4 1_555 1_555
C8_4 N2_4 1_555 1_555
C10_4 H2_4 1_555 1_555
C11_3 H3_3 1_555 1_555
C12_4 C5_3 1_555 1_555
C14_3 C24_3 1_555 1_555
C15_4 C4_4 1_555 1_555
H5_4 C15_4 1_555 1_555
C16_3 N6_3 1_555 1_555
C17_4 H6_3 1_555 1_555
C22_4 N1_3 1_555 1_555
H11_4 C22_4 1_555 1_555
C23_4 C7_4 1_555 1_555
H12_4 C23_4 1_555 1_555
C24_3 C11_3 1_555 1_555
H13_3 C24_3 1_555 1_555
C25_3 C6_3 1_555 1_555
H14_3 C25_3 1_555 1_555
C26_4 C9_4 1_555 1_555
C27_4 C7_4 1_555 1_555
H16_4 C27_4 1_555 1_555
C28_3 N7_2 1_555 1_555
H17_3 C28_3 1_555 1_555
C29_4 C12_4 1_555 1_555
H18_4 C29_4 1_555 1_555
C30_3 C14_3 1_555 1_555
H19_3 C30_3 1_555 1_555
C34_4 C32_4 1_555 1_555
H22_4 C34_4 1_555 1_555
C36_4 C34_4 1_555 1_555
H24_4 C36_4 1_555 1_555
Zn5_2 N7_2 1_555 1_555
N13_2 Zn3_2 1_555 1_555
N8_4 C8_4 1_555 1_555
N10_3 C16_3 1_555 1_555
C6_3 C16_3 1_555 1_555
C10_4 C15_4 1_555 1_555
C12_4 C26_4 1_555 1_555
C17_4 C23_4 1_555 1_555
C22_4 C27_4 1_555 1_555
C28_3 C30_3 1_555 1_555
N6_4 C5_4 1_555 1_555
N13_2 C11_4 1_555 1_555
N10_4 C2_4 1_555 1_555
N11_4 C2_4 1_555 1_555
C2_4 C14_4 1_555 1_555
C5_4 N11_4 1_555 1_555
C11_4 H3_4 1_555 1_555
C14_4 C24_4 1_555 1_555
C16_4 N6_4 1_555 1_555
C24_4 C11_4 1_555 1_555
H13_4 C24_4 1_555 1_555
C25_4 C6_4 1_555 1_555
H14_4 C25_4 1_555 1_555
C28_4 N13_2 1_555 1_555
H17_4 C28_4 1_555 1_555
C30_4 C14_4 1_555 1_555
H19_4 C30_4 1_555 1_555
N10_4 C16_4 1_555 1_555
C6_4 C16_4 1_555 1_555
C28_4 C30_4 1_555 1_555
I1_4 Zn5_2 1_555 1_555
I3_4 Zn5_2 1_555 1_555
Zn5_2 N1_4 1_555 1_555
I5_4 Zn2_4 1_555 1_555
Zn2_4 N5_4 1_555 1_555
N9_4 Zn2_4 1_555 1_555
H8_4 C19_4 1_555 1_555
C21_4 N5_4 1_555 1_555
H10_4 C21_4 1_555 1_555
C31_4 N9_4 1_555 1_555
H20_4 C31_4 1_555 1_555
C33_4 H21_4 1_555 1_555
C35_4 C33_4 1_555 1_555
H23_4 C35_4 1_555 1_555
N12_2 C35_4 1_555 1_555
Zn4_2 N12_2 1_555 1_555
C19_4 C21_4 1_555 1_555
I2_4 Zn4_2 1_555 1_555
I6_4 Zn4_2 1_555 1_555
Zn4_2 N3_4 1_555 1_555
I4_4 Zn2_5 1_555 1_555
I5_5 Zn2_5 1_555 1_555
Zn2_5 N5_5 1_555 1_555
N2_5 C1_5 1_555 1_555
N4_5 C1_5 1_555 1_555
N5_5 C10_5 1_555 1_555
N8_5 C3_5 1_555 1_555
N9_5 Zn2_5 1_555 1_555
C1_5 C32_5 1_555 1_555
C3_5 N4_5 1_555 1_555
C4_5 C3_5 1_555 1_555
C7_5 C8_5 1_555 1_555
C8_5 N2_5 1_555 1_555
C9_5 N9_5 1_555 1_555
H1_4 C9_5 1_555 1_555
C10_5 H2_5 1_555 1_555
C15_5 C4_5 1_555 1_555
H5_5 C15_5 1_555 1_555
C19_5 C4_5 1_555 1_555
H8_5 C19_5 1_555 1_555
C21_5 N5_5 1_555 1_555
H10_5 C21_5 1_555 1_555
H11_5 C22_5 1_555 1_555
C23_5 C7_5 1_555 1_555
H12_5 C23_5 1_555 1_555
C26_5 C9_5 1_555 1_555
H15_4 C26_5 1_555 1_555
C27_5 C7_5 1_555 1_555
H16_5 C27_5 1_555 1_555
C29_5 C12_5 1_555 1_555
H18_5 C29_5 1_555 1_555
C31_5 N9_5 1_555 1_555
H20_5 C31_5 1_555 1_555
C32_5 C33_5 1_555 1_555
C33_5 H21_5 1_555 1_555
C34_5 C32_5 1_555 1_555
H22_5 C34_5 1_555 1_555
C35_5 C33_5 1_555 1_555
H23_5 C35_5 1_555 1_555
C36_5 C34_5 1_555 1_555
H24_5 C36_5 1_555 1_555
N12_3 C35_5 1_555 1_555
Zn4_3 N12_3 1_555 1_555
N8_5 C8_5 1_555 1_555
C10_5 C15_5 1_555 1_555
C12_5 C26_5 1_555 1_555
C17_5 C23_5 1_555 1_555
C19_5 C21_5 1_555 1_555
C22_5 C27_5 1_555 1_555
C29_5 C31_5 1_555 1_555
C36_5 N12_3 1_555 1_555
I2_5 Zn4_3 1_555 1_555
I6_5 Zn4_3 1_555 1_555
Zn4_3 N3_5 1_555 1_555
N3_5 C18_4 1_555 1_555
C13_4 H4_4 1_555 1_555
C18_4 H7_5 1_555 1_555
C20_4 N3_5 1_555 1_555
H9_4 C20_4 1_555 1_555
C13_4 C20_4 1_555 1_555
I2_6 Zn1_3 1_555 1_555
I6_6 Zn1_3 1_555 1_555
Zn1_3 N3_6 1_555 1_555
N14_3 Zn1_3 1_555 1_555
I5_6 Zn2_6 1_555 1_555
Zn2_6 N5_6 1_555 1_555
N9_6 Zn2_6 1_555 1_555
H8_6 C19_6 1_555 1_555
C21_6 N5_6 1_555 1_555
H10_6 C21_6 1_555 1_555
C31_6 N9_6 1_555 1_555
H20_6 C31_6 1_555 1_555
C33_6 H21_6 1_555 1_555
C35_6 C33_6 1_555 1_555
H23_6 C35_6 1_555 1_555
N14_3 C35_6 1_555 1_555
C19_6 C21_6 1_555 1_555
I2_7 Zn1_4 1_555 1_555
I6_7 Zn1_4 1_555 1_555
Zn1_4 N3_7 1_555 1_555
N14_4 Zn1_4 1_555 1_555
I4_5 Zn2_7 1_555 1_555
I5_7 Zn2_7 1_555 1_555
Zn2_7 N5_7 1_555 1_555
N9_7 Zn2_7 1_555 1_555
H8_7 C19_7 1_555 1_555
C21_7 N5_7 1_555 1_555
H10_7 C21_7 1_555 1_555
C31_7 N9_7 1_555 1_555
H20_7 C31_7 1_555 1_555
C33_7 H21_7 1_555 1_555
C35_7 C33_7 1_555 1_555
H23_7 C35_7 1_555 1_555
N14_4 C35_7 1_555 1_555
C19_7 C21_7 1_555 1_555
C13_5 H4_5 1_555 1_555
H9_5 C20_5 1_555 1_555
C13_5 C20_5 1_555 1_555
I5_8 Zn2_8 1_555 1_555
Zn2_8 N5_8 1_555 1_555
N2_6 C1_6 1_555 1_555
N4_6 C1_6 1_555 1_555
N5_8 C10_6 1_555 1_555
N8_6 C3_6 1_555 1_555
N9_8 Zn2_8 1_555 1_555
C1_6 C32_6 1_555 1_555
C3_6 N4_6 1_555 1_555
C4_6 C3_6 1_555 1_555
C7_6 C8_6 1_555 1_555
C8_6 N2_6 1_555 1_555
C9_6 N9_8 1_555 1_555
C10_6 H2_6 1_555 1_555
C15_6 C4_6 1_555 1_555
H5_6 C15_6 1_555 1_555
C19_8 C4_6 1_555 1_555
H8_8 C19_8 1_555 1_555
C21_8 N5_8 1_555 1_555
H10_8 C21_8 1_555 1_555
H11_6 C22_6 1_555 1_555
C23_6 C7_6 1_555 1_555
H12_6 C23_6 1_555 1_555
C26_6 C9_6 1_555 1_555
C27_6 C7_6 1_555 1_555
H16_6 C27_6 1_555 1_555
C29_6 C12_6 1_555 1_555
H18_6 C29_6 1_555 1_555
C31_8 N9_8 1_555 1_555
H20_8 C31_8 1_555 1_555
C32_6 C33_8 1_555 1_555
C33_8 H21_8 1_555 1_555
C34_6 C32_6 1_555 1_555
H22_6 C34_6 1_555 1_555
C35_8 C33_8 1_555 1_555
H23_8 C35_8 1_555 1_555
C36_6 C34_6 1_555 1_555
H24_6 C36_6 1_555 1_555
N12_4 C35_8 1_555 1_555
Zn4_4 N12_4 1_555 1_555
N8_6 C8_6 1_555 1_555
C10_6 C15_6 1_555 1_555
C12_6 C26_6 1_555 1_555
C17_6 C23_6 1_555 1_555
C19_8 C21_8 1_555 1_555
C22_6 C27_6 1_555 1_555
C29_6 C31_8 1_555 1_555
C36_6 N12_4 1_555 1_555
I1_5 Zn3_3 1_555 1_555
I2_8 Zn4_4 1_555 1_555
I3_5 Zn3_3 1_555 1_555
I6_8 Zn4_4 1_555 1_555
Zn4_4 N3_8 1_555 1_555
Zn3_3 N1_5 1_555 1_555
N1_5 C17_7 1_555 1_555
N2_7 C1_7 1_555 1_555
N3_8 C18_6 1_555 1_555
N4_7 C1_7 1_555 1_555
N6_5 C5_5 1_555 1_555
N7_3 C11_5 1_555 1_555
N8_7 C3_7 1_555 1_555
N10_5 C2_5 1_555 1_555
N11_5 C2_5 1_555 1_555
C1_7 C32_7 1_555 1_555
C2_5 C14_5 1_555 1_555
C3_7 N4_7 1_555 1_555
C4_7 C3_7 1_555 1_555
C5_5 N11_5 1_555 1_555
C6_5 C13_6 1_555 1_555
C7_7 C8_7 1_555 1_555
C8_7 N2_7 1_555 1_555
H1_7 C9_7 1_555 1_555
C10_7 H2_7 1_555 1_555
C11_5 H3_5 1_555 1_555
C12_7 C5_5 1_555 1_555
C13_6 H4_6 1_555 1_555
C14_5 C24_5 1_555 1_555
C15_7 C4_7 1_555 1_555
H5_7 C15_7 1_555 1_555
C16_5 N6_5 1_555 1_555
C17_7 H6_5 1_555 1_555
C18_6 H7_8 1_555 1_555
C20_6 N3_8 1_555 1_555
H9_6 C20_6 1_555 1_555
C22_7 N1_5 1_555 1_555
H11_7 C22_7 1_555 1_555
C23_7 C7_7 1_555 1_555
H12_7 C23_7 1_555 1_555
C24_5 C11_5 1_555 1_555
H13_5 C24_5 1_555 1_555
C25_5 C6_5 1_555 1_555
H14_5 C25_5 1_555 1_555
C26_7 C9_7 1_555 1_555
H15_7 C26_7 1_555 1_555
C27_7 C7_7 1_555 1_555
H16_7 C27_7 1_555 1_555
C28_5 N7_3 1_555 1_555
H17_5 C28_5 1_555 1_555
C29_7 C12_7 1_555 1_555
H18_7 C29_7 1_555 1_555
C30_5 C14_5 1_555 1_555
H19_5 C30_5 1_555 1_555
C34_7 C32_7 1_555 1_555
H22_7 C34_7 1_555 1_555
C36_7 C34_7 1_555 1_555
H24_7 C36_7 1_555 1_555
Zn5_3 N7_3 1_555 1_555
N13_3 Zn3_3 1_555 1_555
N8_7 C8_7 1_555 1_555
N10_5 C16_5 1_555 1_555
C6_5 C16_5 1_555 1_555
C10_7 C15_7 1_555 1_555
C12_7 C26_7 1_555 1_555
C13_6 C20_6 1_555 1_555
C17_7 C23_7 1_555 1_555
C18_6 C25_5 1_555 1_555
C22_7 C27_7 1_555 1_555
C28_5 C30_5 1_555 1_555
N6_6 C5_6 1_555 1_555
N13_3 C11_6 1_555 1_555
N10_6 C2_6 1_555 1_555
N11_6 C2_6 1_555 1_555
C2_6 C14_6 1_555 1_555
C5_6 N11_6 1_555 1_555
C6_6 C13_7 1_555 1_555
C11_6 H3_6 1_555 1_555
C13_7 H4_7 1_555 1_555
C14_6 C24_6 1_555 1_555
C16_6 N6_6 1_555 1_555
H9_7 C20_7 1_555 1_555
C24_6 C11_6 1_555 1_555
H13_6 C24_6 1_555 1_555
C25_6 C6_6 1_555 1_555
H14_6 C25_6 1_555 1_555
C28_6 N13_3 1_555 1_555
H17_6 C28_6 1_555 1_555
C30_6 C14_6 1_555 1_555
H19_6 C30_6 1_555 1_555
N10_6 C16_6 1_555 1_555
C6_6 C16_6 1_555 1_555
C13_7 C20_7 1_555 1_555
C18_7 C25_6 1_555 1_555
C28_6 C30_6 1_555 1_555
I1_6 Zn5_3 1_555 1_555
I3_6 Zn5_3 1_555 1_555
Zn5_3 N1_6 1_555 1_555
I1_7 Zn3_4 1_555 1_555
I3_7 Zn3_4 1_555 1_555
Zn3_4 N1_7 1_555 1_555
N1_7 C17_8 1_555 1_555
N2_8 C1_8 1_555 1_555
N4_8 C1_8 1_555 1_555
N6_7 C5_7 1_555 1_555
N7_4 C11_7 1_555 1_555
N8_8 C3_8 1_555 1_555
N10_7 C2_7 1_555 1_555
N11_7 C2_7 1_555 1_555
C1_8 C32_8 1_555 1_555
C2_7 C14_7 1_555 1_555
C3_8 N4_8 1_555 1_555
C4_8 C3_8 1_555 1_555
C5_7 N11_7 1_555 1_555
C7_8 C8_8 1_555 1_555
C8_8 N2_8 1_555 1_555
C10_8 H2_8 1_555 1_555
C11_7 H3_7 1_555 1_555
C12_8 C5_7 1_555 1_555
C14_7 C24_7 1_555 1_555
C15_8 C4_8 1_555 1_555
H5_8 C15_8 1_555 1_555
C16_7 N6_7 1_555 1_555
C17_8 H6_7 1_555 1_555
C22_8 N1_7 1_555 1_555
H11_8 C22_8 1_555 1_555
C23_8 C7_8 1_555 1_555
H12_8 C23_8 1_555 1_555
C24_7 C11_7 1_555 1_555
H13_7 C24_7 1_555 1_555
C25_7 C6_7 1_555 1_555
H14_7 C25_7 1_555 1_555
C26_8 C9_8 1_555 1_555
C27_8 C7_8 1_555 1_555
H16_8 C27_8 1_555 1_555
C28_7 N7_4 1_555 1_555
H17_7 C28_7 1_555 1_555
C29_8 C12_8 1_555 1_555
H18_8 C29_8 1_555 1_555
C30_7 C14_7 1_555 1_555
H19_7 C30_7 1_555 1_555
C34_8 C32_8 1_555 1_555
H22_8 C34_8 1_555 1_555
C36_8 C34_8 1_555 1_555
H24_8 C36_8 1_555 1_555
Zn5_4 N7_4 1_555 1_555
N13_4 Zn3_4 1_555 1_555
N8_8 C8_8 1_555 1_555
N10_7 C16_7 1_555 1_555
C6_7 C16_7 1_555 1_555
C10_8 C15_8 1_555 1_555
C12_8 C26_8 1_555 1_555
C17_8 C23_8 1_555 1_555
C22_8 C27_8 1_555 1_555
C28_7 C30_7 1_555 1_555
I1_8 Zn5_4 1_555 1_555
I3_8 Zn5_4 1_555 1_555
Zn5_4 N1_8 1_555 1_555
N6_8 C5_8 1_555 1_555
N13_4 C11_8 1_555 1_555
N10_8 C2_8 1_555 1_555
N11_8 C2_8 1_555 1_555
C2_8 C14_8 1_555 1_555
C5_8 N11_8 1_555 1_555
C11_8 H3_8 1_555 1_555
C14_8 C24_8 1_555 1_555
C16_8 N6_8 1_555 1_555
C24_8 C11_8 1_555 1_555
H13_8 C24_8 1_555 1_555
C25_8 C6_8 1_555 1_555
H14_8 C25_8 1_555 1_555
C28_8 N13_4 1_555 1_555
H17_8 C28_8 1_555 1_555
C30_8 C14_8 1_555 1_555
H19_8 C30_8 1_555 1_555
N10_8 C16_8 1_555 1_555
C6_8 C16_8 1_555 1_555
C28_8 C30_8 1_555 1_555
C13_8 H4_8 1_555 1_555
H9_8 C20_8 1_555 1_555
C13_8 C20_8 1_555 1_555

#END
