
###############################################################################
#
# This file contains modified crystal structure data generated from the
# MOF subset of the Cambridge Structural Database (CSD) v543 
# hosted by the Cambridge Crystallographic Data Centre (CCDC).
#
# This work is licensed under the Creative Commons
# Attribution-NonCommercial-ShareAlike 4.0 International License.
# To view a copy of this license, visit
# http://creativecommons.org/licenses/by-nc-sa/4.0/
# or send a letter to
# Creative Commons, PO Box 1866, Mountain View, CA 94042, USA.
#
# CIF created using the CSD Python API on 29 September 2022
# The structure has been converted into the P1 space group
# The structure has a 3D framework
# The original CSD entry UDEPIE is in the tetragonal crystal system
# The framework has been calculated to contain at least 10.0% void space
# The void calculation uses a probe of radius 1.32A, grid spacing 0.4
#
###############################################################################

data_UDEPIE
_chemical_formula_moiety         '(C160 H64 N44 O60 Pb12)n'
_symmetry_cell_setting           triclinic
_symmetry_space_group_name_H-M   'P 1'
_symmetry_Int_Tables_number      1
_space_group_name_Hall           'P 1'
loop_
_symmetry_equiv_pos_site_id
_symmetry_equiv_pos_as_xyz
1 x,y,z
_cell_length_a                   17.262(8)
_cell_length_b                   17.262(8)
_cell_length_c                   21.956(10)
_cell_angle_alpha                90
_cell_angle_beta                 90
_cell_angle_gamma                90
_cell_volume                     6542.38
loop_
_atom_site_label
_atom_site_type_symbol
_atom_site_fract_x
_atom_site_fract_y
_atom_site_fract_z
Pb1 Pb 0.42030(2) 0.095219(19) 0.426282(15)
C6 C 0.3563(6) 0.0145(6) 0.6199(4)
C7 C 0.3672(10) 0.0933(7) 0.6146(5)
H1 H 0.3796 0.1158 0.5773
C8 C 0.3587(13) 0.1390(8) 0.6682(7)
H2 H 0.3647 0.1925 0.6667
C9 C 0.3414(13) 0.1026(9) 0.7224(6)
H3 H 0.3368 0.1312 0.7581
C10 C 0.3310(10) 0.0242(8) 0.7233(6)
H4 H 0.3178 0.0010 0.7601
N4 N 0.3644(4) 0.1137(4) 0.3303(3)
N5 N 0.2705(5) 0.0885(6) 0.4249(4)
O5 O 0.5167(4) 0.1256(5) 0.3264(3)
O6 O 0.3756(5) 0.2333(4) 0.4236(3)
C1 C 0.4131(8) 0.9026(6) 0.4190(5)
C2 C 0.3933(6) 0.9092(5) 0.4843(4)
C3 C 0.3804(6) 0.8511(5) 0.5263(4)
C4 C 0.3687(5) 0.9612(5) 0.5697(4)
C5 C 0.3866(6) 0.7663(6) 0.5259(5)
N1 N 0.3863(5) 0.9784(4) 0.5114(3)
N2 N 0.3637(4) 0.8856(4) 0.5803(3)
N3 N 0.3385(6) 0.9795(5) 0.6749(4)
O1 O 0.4209(6) 0.9594(4) 0.3873(3)
O2 O 0.4221(7) 0.8326(4) 0.3971(4)
O3 O 0.4033(6) 0.7323(4) 0.4775(3)
O4 O 0.3756(5) 0.7333(4) 0.5764(3)
Pb2 Pb 0.345219(19) 0.82970(2) 0.676282(15)
Pb3 Pb 0.42030(2) 0.595219(19) 0.573718(15)
O3_2 O 0.0177(4) 0.6533(6) 0.7275(3)
O4_2 O 0.0167(4) 0.6256(5) 0.8264(3)
Pb3_2 Pb 0.154781(19) 0.67030(2) 0.823718(15)
Pb1_2 Pb 0.654781(19) 0.67030(2) 0.676282(15)
C1_2 C 0.8474(6) 0.6631(8) 0.6690(5)
C2_2 C 0.8408(5) 0.6433(6) 0.7343(4)
C3_2 C 0.8989(5) 0.6304(6) 0.7763(4)
C4_2 C 0.7888(5) 0.6187(5) 0.8197(4)
C5_2 C 0.9837(6) 0.6366(6) 0.7759(5)
C6_2 C 0.7355(6) 0.6063(6) 0.8699(4)
C7_2 C 0.6567(7) 0.6172(10) 0.8646(5)
H1_2 H 0.6342 0.6296 0.8273
C8_2 C 0.6110(8) 0.6087(13) 0.9182(7)
H2_2 H 0.5575 0.6147 0.9167
C9_2 C 0.6474(9) 0.5914(13) 0.9724(6)
C10_2 C 0.7258(8) 0.5810(10) 0.9733(6)
N1_2 N 0.7716(4) 0.6363(5) 0.7614(3)
N2_2 N 0.8644(4) 0.6137(4) 0.8303(3)
N3_2 N 0.7705(5) 0.5885(6) 0.9249(4)
O1_2 O 0.7906(4) 0.6709(6) 0.6373(3)
O2_2 O 0.9174(4) 0.6721(7) 0.6471(4)
Pb2_2 Pb 0.92030(2) 0.595219(19) 0.926282(15)
N4_2 N 0.6363(4) 0.6144(4) 0.5803(3)
N5_2 N 0.6615(6) 0.5205(5) 0.6749(4)
O5_2 O 0.6244(5) 0.7667(4) 0.5764(3)
O6_2 O 0.5167(4) 0.6256(5) 0.6736(3)
C3_3 C 0.1196(6) 0.1489(5) 0.0263(4)
C4_3 C 0.1313(5) 0.0388(5) 0.0697(4)
C5_3 C 0.1134(6) 0.2337(6) 0.0259(5)
N1_3 N 0.1137(5) 0.0216(4) 0.0114(3)
N2_3 N 0.1363(4) 0.1144(4) 0.0803(3)
N3_3 N 0.1615(6) 0.0205(5) 0.1749(4)
O4_3 O 0.1244(5) 0.2667(4) 0.0764(3)
Pb2_3 Pb 0.154781(19) 0.17030(2) 0.176282(15)
Pb3_3 Pb 0.07970(2) 0.404781(19) 0.073718(15)
Pb1_3 Pb 0.07970(2) 0.904781(19) 0.926282(15)
N4_3 N 0.1356(4) 0.8863(4) 0.8303(3)
N5_3 N 0.2295(5) 0.9115(6) 0.9249(4)
O6_3 O 0.1244(5) 0.7667(4) 0.9236(3)
O5_3 O 0.9833(4) 0.8744(5) 0.8264(3)
Pb1_4 Pb 0.845219(19) 0.32970(2) 0.176282(15)
C1_3 C 0.6526(6) 0.3369(8) 0.1690(5)
C2_3 C 0.6592(5) 0.3567(6) 0.2343(4)
C3_4 C 0.6011(5) 0.3696(6) 0.2763(4)
C4_4 C 0.7112(5) 0.3813(5) 0.3197(4)
C5_4 C 0.5163(6) 0.3634(6) 0.2759(5)
C6_3 C 0.7645(6) 0.3937(6) 0.3699(4)
C7_3 C 0.8433(7) 0.3828(10) 0.3646(5)
H1_3 H 0.8658 0.3704 0.3273
C8_3 C 0.8890(8) 0.3913(13) 0.4182(7)
H2_3 H 0.9425 0.3853 0.4167
C9_3 C 0.8526(9) 0.4086(13) 0.4724(6)
H3_2 H 0.8812 0.4132 0.5081
C10_3 C 0.7742(8) 0.4190(10) 0.4733(6)
H4_2 H 0.7510 0.4322 0.5101
N1_4 N 0.7284(4) 0.3637(5) 0.2614(3)
N2_4 N 0.6356(4) 0.3863(4) 0.3303(3)
N3_4 N 0.7295(5) 0.4115(6) 0.4249(4)
O1_3 O 0.7094(4) 0.3291(6) 0.1373(3)
O2_3 O 0.5826(4) 0.3279(7) 0.1471(4)
O3_3 O 0.4823(4) 0.3467(6) 0.2275(3)
O4_4 O 0.4833(4) 0.3744(5) 0.3264(3)
Pb2_4 Pb 0.57970(2) 0.404781(19) 0.426282(15)
Pb3_4 Pb 0.345219(19) 0.32970(2) 0.323718(15)
N4_4 N 0.8637(4) 0.3856(4) 0.0803(3)
N5_4 N 0.8385(6) 0.4795(5) 0.1749(4)
O5_4 O 0.8756(5) 0.2333(4) 0.0764(3)
O6_4 O 0.9833(4) 0.3744(5) 0.1736(3)
C3_5 C 0.8804(6) 0.3511(5) 0.0263(4)
C4_5 C 0.8687(5) 0.4612(5) 0.0697(4)
C5_5 C 0.8866(6) 0.2663(6) 0.0259(5)
C6_4 C 0.8563(6) 0.5145(6) 0.1199(4)
C7_4 C 0.8672(10) 0.5933(7) 0.1146(5)
H1_4 H 0.8796 0.6158 0.0773
C8_4 C 0.8587(13) 0.6390(8) 0.1682(7)
H2_4 H 0.8647 0.6925 0.1667
C9_4 C 0.8414(13) 0.6026(9) 0.2224(6)
H3_3 H 0.8368 0.6312 0.2581
C10_4 C 0.8310(10) 0.5242(8) 0.2233(6)
H4_3 H 0.8178 0.5010 0.2601
N1_5 N 0.8863(5) 0.4784(4) 0.0114(3)
Pb3_5 Pb 0.92030(2) 0.095219(19) 0.073718(15)
C1_4 C 0.9131(8) 0.4026(6) 0.9190(5)
C2_4 C 0.8933(6) 0.4092(5) 0.9843(4)
O1_4 O 0.9209(6) 0.4594(4) 0.8873(3)
O2_4 O 0.9221(7) 0.3326(4) 0.8971(4)
O3_4 O 0.9033(6) 0.2323(4) 0.9775(3)
O6_5 O 0.8756(5) 0.7333(4) 0.9236(3)
C1_5 C 0.3474(6) 0.1631(8) 0.1690(5)
C2_5 C 0.3408(5) 0.1433(6) 0.2343(4)
C3_6 C 0.3989(5) 0.1304(6) 0.2763(4)
C4_6 C 0.2888(5) 0.1187(5) 0.3197(4)
C5_6 C 0.4837(6) 0.1366(6) 0.2759(5)
C6_5 C 0.2355(6) 0.1063(6) 0.3699(4)
C7_5 C 0.1567(7) 0.1172(10) 0.3646(5)
H1_5 H 0.1342 0.1296 0.3273
C8_5 C 0.1110(8) 0.1087(13) 0.4182(7)
H2_5 H 0.0575 0.1147 0.4167
C9_5 C 0.1474(9) 0.0914(13) 0.4724(6)
H3_4 H 0.1188 0.0868 0.5081
C10_5 C 0.2258(8) 0.0810(10) 0.4733(6)
H4_4 H 0.2490 0.0678 0.5101
N1_6 N 0.2716(4) 0.1363(5) 0.2614(3)
O1_5 O 0.2906(4) 0.1709(6) 0.1373(3)
O2_5 O 0.4174(4) 0.1721(7) 0.1471(4)
O3_5 O 0.5177(4) 0.1533(6) 0.2275(3)
Pb3_6 Pb 0.654781(19) 0.17030(2) 0.323718(15)
O6_6 O 0.0167(4) 0.1256(5) 0.1736(3)
C1_6 C 0.5869(8) 0.5974(6) 0.4190(5)
C2_6 C 0.6067(6) 0.5908(5) 0.4843(4)
C3_7 C 0.6196(6) 0.6489(5) 0.5263(4)
C4_7 C 0.6313(5) 0.5388(5) 0.5697(4)
C5_7 C 0.6134(6) 0.7337(6) 0.5259(5)
C6_6 C 0.6437(6) 0.4855(6) 0.6199(4)
C7_6 C 0.6328(10) 0.4067(7) 0.6146(5)
H1_6 H 0.6204 0.3842 0.5773
C8_6 C 0.6413(13) 0.3610(8) 0.6682(7)
H2_6 H 0.6353 0.3075 0.6667
C9_6 C 0.6586(13) 0.3974(9) 0.7224(6)
H3_5 H 0.6632 0.3688 0.7581
C10_6 C 0.6690(10) 0.4758(8) 0.7233(6)
H4_5 H 0.6822 0.4990 0.7601
N1_7 N 0.6137(5) 0.5216(4) 0.5114(3)
O1_6 O 0.5791(6) 0.5406(4) 0.3873(3)
O2_6 O 0.5779(7) 0.6674(4) 0.3971(4)
O3_6 O 0.5967(6) 0.7677(4) 0.4775(3)
Pb3_7 Pb 0.57970(2) 0.904781(19) 0.573718(15)
O6_7 O 0.6244(5) 0.2667(4) 0.4236(3)
C1_7 C 0.1526(6) 0.8369(8) 0.6690(5)
C2_7 C 0.1592(5) 0.8567(6) 0.7343(4)
C3_8 C 0.1011(5) 0.8696(6) 0.7763(4)
C4_8 C 0.2112(5) 0.8813(5) 0.8197(4)
C5_8 C 0.0163(6) 0.8634(6) 0.7759(5)
C6_7 C 0.2645(6) 0.8937(6) 0.8699(4)
C7_7 C 0.3433(7) 0.8828(10) 0.8646(5)
H1_7 H 0.3658 0.8704 0.8273
C8_7 C 0.3890(8) 0.8913(13) 0.9182(7)
H2_7 H 0.4425 0.8853 0.9167
C9_7 C 0.3526(9) 0.9086(13) 0.9724(6)
C10_7 C 0.2742(8) 0.9190(10) 0.9733(6)
N1_8 N 0.2284(4) 0.8637(5) 0.7614(3)
O1_7 O 0.2094(4) 0.8291(6) 0.6373(3)
O2_7 O 0.0826(4) 0.8279(7) 0.6471(4)
O6_8 O 0.4833(4) 0.8744(5) 0.6736(3)
O3_7 O 0.9823(4) 0.8467(6) 0.7275(3)
Pb3_8 Pb 0.845219(19) 0.82970(2) 0.823718(15)
C1_8 C 0.5869(8) 0.0974(6) 0.5810(5)
C2_8 C 0.6067(6) 0.0908(5) 0.5157(4)
C3_9 C 0.6196(6) 0.1489(5) 0.4737(4)
C4_9 C 0.6313(5) 0.0388(5) 0.4303(4)
C5_9 C 0.6134(6) 0.2337(6) 0.4741(5)
N1_9 N 0.6137(5) 0.0216(4) 0.4886(3)
N2_5 N 0.6363(4) 0.1144(4) 0.4197(3)
N3_5 N 0.6615(6) 0.0205(5) 0.3251(4)
O1_8 O 0.5791(6) 0.0406(4) 0.6127(3)
O2_8 O 0.5779(7) 0.1674(4) 0.6029(4)
O3_8 O 0.5967(6) 0.2677(4) 0.5225(3)
C6_8 C 0.6437(6) 0.9855(6) 0.3801(4)
C7_8 C 0.6328(10) 0.9067(7) 0.3854(5)
H1_8 H 0.6204 0.8842 0.4227
C8_8 C 0.6413(13) 0.8610(8) 0.3318(7)
H2_8 H 0.6353 0.8075 0.3333
C9_8 C 0.6586(13) 0.8974(9) 0.2776(6)
H3_6 H 0.6632 0.8688 0.2419
C10_8 C 0.6690(10) 0.9758(8) 0.2767(6)
H4_6 H 0.6822 0.9990 0.2399
N4_5 N 0.6356(4) 0.8863(4) 0.6697(3)
N5_5 N 0.7295(5) 0.9115(6) 0.5751(4)
C1_9 C 0.1526(6) 0.3369(8) 0.3310(5)
C2_9 C 0.1592(5) 0.3567(6) 0.2657(4)
C3_10 C 0.1011(5) 0.3696(6) 0.2237(4)
C4_10 C 0.2112(5) 0.3813(5) 0.1803(4)
C5_10 C 0.0163(6) 0.3634(6) 0.2241(5)
C6_9 C 0.2645(6) 0.3937(6) 0.1301(4)
C7_9 C 0.3433(7) 0.3828(10) 0.1354(5)
H1_9 H 0.3658 0.3704 0.1727
C8_9 C 0.3890(8) 0.3913(13) 0.0818(7)
H2_9 H 0.4425 0.3853 0.0833
C9_9 C 0.3526(9) 0.4086(13) 0.0276(6)
C10_9 C 0.2742(8) 0.4190(10) 0.0267(6)
N1_10 N 0.2284(4) 0.3637(5) 0.2386(3)
N2_6 N 0.1356(4) 0.3863(4) 0.1697(3)
N3_6 N 0.2295(5) 0.4115(6) 0.0751(4)
O1_9 O 0.2094(4) 0.3291(6) 0.3627(3)
O2_9 O 0.0826(4) 0.3279(7) 0.3529(4)
N4_6 N 0.3637(4) 0.3856(4) 0.4197(3)
N5_6 N 0.3385(6) 0.4795(5) 0.3251(4)
O3_9 O 0.9823(4) 0.3467(6) 0.2725(3)
N4_7 N 0.8644(4) 0.1137(4) 0.1697(3)
N5_7 N 0.7705(5) 0.0885(6) 0.0751(4)
C3_11 C 0.8804(6) 0.8511(5) 0.9737(4)
C4_11 C 0.8687(5) 0.9612(5) 0.9303(4)
C5_11 C 0.8866(6) 0.7663(6) 0.9741(5)
N1_11 N 0.8863(5) 0.9784(4) 0.9886(3)
N2_7 N 0.8637(4) 0.8856(4) 0.9197(3)
N3_7 N 0.8385(6) 0.9795(5) 0.8251(4)
C1_10 C 0.3474(6) 0.6631(8) 0.8310(5)
C2_10 C 0.3408(5) 0.6433(6) 0.7657(4)
C3_12 C 0.3989(5) 0.6304(6) 0.7237(4)
C4_12 C 0.2888(5) 0.6187(5) 0.6803(4)
C5_12 C 0.4837(6) 0.6366(6) 0.7241(5)
C6_10 C 0.2355(6) 0.6063(6) 0.6301(4)
C7_10 C 0.1567(7) 0.6172(10) 0.6354(5)
H1_10 H 0.1342 0.6296 0.6727
C8_10 C 0.1110(8) 0.6087(13) 0.5818(7)
H2_10 H 0.0575 0.6147 0.5833
C9_10 C 0.1474(9) 0.5914(13) 0.5276(6)
H3_7 H 0.1188 0.5868 0.4919
C10_10 C 0.2258(8) 0.5810(10) 0.5267(6)
H4_7 H 0.2490 0.5678 0.4899
N1_12 N 0.2716(4) 0.6363(5) 0.7386(3)
N2_8 N 0.3644(4) 0.6137(4) 0.6697(3)
N3_8 N 0.2705(5) 0.5885(6) 0.5751(4)
O1_10 O 0.2906(4) 0.6709(6) 0.8627(3)
O2_10 O 0.4174(4) 0.6721(7) 0.8529(4)
O3_10 O 0.5177(4) 0.6533(6) 0.7725(3)
N4_8 N 0.1363(4) 0.6144(4) 0.9197(3)
N5_8 N 0.1615(6) 0.5205(5) 0.8251(4)
C1_11 C 0.0869(8) 0.5974(6) 0.0810(5)
C2_11 C 0.1067(6) 0.5908(5) 0.0157(4)
O1_11 O 0.0791(6) 0.5406(4) 0.1127(3)
O2_11 O 0.0779(7) 0.6674(4) 0.1029(4)
O3_11 O 0.0967(6) 0.7677(4) 0.0225(3)
C3_13 C 0.1196(6) 0.6489(5) 0.9737(4)
C4_13 C 0.1313(5) 0.5388(5) 0.9303(4)
C5_13 C 0.1134(6) 0.7337(6) 0.9741(5)
C6_11 C 0.1437(6) 0.4855(6) 0.8801(4)
C7_11 C 0.1328(10) 0.4067(7) 0.8854(5)
H1_11 H 0.1204 0.3842 0.9227
C8_11 C 0.1413(13) 0.3610(8) 0.8318(7)
H2_11 H 0.1353 0.3075 0.8333
C9_11 C 0.1586(13) 0.3974(9) 0.7776(6)
H3_8 H 0.1632 0.3688 0.7419
C10_11 C 0.1690(10) 0.4758(8) 0.7767(6)
H4_8 H 0.1822 0.4990 0.7399
N1_13 N 0.1137(5) 0.5216(4) 0.9886(3)
C1_12 C 0.6526(6) 0.8369(8) 0.8310(5)
C2_12 C 0.6592(5) 0.8567(6) 0.7657(4)
C3_14 C 0.6011(5) 0.8696(6) 0.7237(4)
C4_14 C 0.7112(5) 0.8813(5) 0.6803(4)
C5_14 C 0.5163(6) 0.8634(6) 0.7241(5)
C6_12 C 0.7645(6) 0.8937(6) 0.6301(4)
C7_12 C 0.8433(7) 0.8828(10) 0.6354(5)
H1_12 H 0.8658 0.8704 0.6727
C8_12 C 0.8890(8) 0.8913(13) 0.5818(7)
H2_12 H 0.9425 0.8853 0.5833
C9_12 C 0.8526(9) 0.9086(13) 0.5276(6)
H3_9 H 0.8812 0.9132 0.4919
C10_12 C 0.7742(8) 0.9190(10) 0.5267(6)
H4_9 H 0.7510 0.9322 0.4899
N1_14 N 0.7284(4) 0.8637(5) 0.7386(3)
O1_12 O 0.7094(4) 0.8291(6) 0.8627(3)
O2_12 O 0.5826(4) 0.8279(7) 0.8529(4)
O3_12 O 0.4823(4) 0.8467(6) 0.7725(3)
C1_13 C 0.4131(8) 0.4026(6) 0.5810(5)
C2_13 C 0.3933(6) 0.4092(5) 0.5157(4)
C3_15 C 0.3804(6) 0.3511(5) 0.4737(4)
C4_15 C 0.3687(5) 0.4612(5) 0.4303(4)
C5_15 C 0.3866(6) 0.2663(6) 0.4741(5)
C6_13 C 0.3563(6) 0.5145(6) 0.3801(4)
C7_13 C 0.3672(10) 0.5933(7) 0.3854(5)
H1_13 H 0.3796 0.6158 0.4227
C8_13 C 0.3587(13) 0.6390(8) 0.3318(7)
H2_13 H 0.3647 0.6925 0.3333
C9_13 C 0.3414(13) 0.6026(9) 0.2776(6)
H3_10 H 0.3368 0.6312 0.2419
C10_13 C 0.3310(10) 0.5242(8) 0.2767(6)
H4_10 H 0.3178 0.5010 0.2399
N1_15 N 0.3863(5) 0.4784(4) 0.4886(3)
O1_13 O 0.4209(6) 0.4594(4) 0.6127(3)
O2_13 O 0.4221(7) 0.3326(4) 0.6029(4)
O3_13 O 0.4033(6) 0.2323(4) 0.5225(3)
O3_14 O 0.0177(4) 0.1533(6) 0.2725(3)
C1_14 C 0.8474(6) 0.1631(8) 0.3310(5)
C2_14 C 0.8408(5) 0.1433(6) 0.2657(4)
C3_16 C 0.8989(5) 0.1304(6) 0.2237(4)
C4_16 C 0.7888(5) 0.1187(5) 0.1803(4)
C5_16 C 0.9837(6) 0.1366(6) 0.2241(5)
C6_14 C 0.7355(6) 0.1063(6) 0.1301(4)
C7_14 C 0.6567(7) 0.1172(10) 0.1354(5)
H1_14 H 0.6342 0.1296 0.1727
C8_14 C 0.6110(8) 0.1087(13) 0.0818(7)
H2_14 H 0.5575 0.1147 0.0833
C9_14 C 0.6474(9) 0.0914(13) 0.0276(6)
C10_14 C 0.7258(8) 0.0810(10) 0.0267(6)
N1_16 N 0.7716(4) 0.1363(5) 0.2386(3)
O1_14 O 0.7906(4) 0.1709(6) 0.3627(3)
O2_14 O 0.9174(4) 0.1721(7) 0.3529(4)
H3_11 H 0.6188 0.5868 0.0081
H4_11 H 0.7490 0.5678 0.0101
C1_15 C 0.0869(8) 0.0974(6) 0.9190(5)
C2_15 C 0.1067(6) 0.0908(5) 0.9843(4)
O1_15 O 0.0791(6) 0.0406(4) 0.8873(3)
O2_15 O 0.0779(7) 0.1674(4) 0.8971(4)
O3_15 O 0.0967(6) 0.2677(4) 0.9775(3)
C6_15 C 0.1437(6) 0.9855(6) 0.1199(4)
C7_15 C 0.1328(10) 0.9067(7) 0.1146(5)
H1_15 H 0.1204 0.8842 0.0773
C8_15 C 0.1413(13) 0.8610(8) 0.1682(7)
H2_15 H 0.1353 0.8075 0.1667
C9_15 C 0.1586(13) 0.8974(9) 0.2224(6)
H3_12 H 0.1632 0.8688 0.2581
C10_15 C 0.1690(10) 0.9758(8) 0.2233(6)
H4_12 H 0.1822 0.9990 0.2601
H3_13 H 0.3812 0.9132 0.0081
H4_13 H 0.2510 0.9322 0.0101
H3_14 H 0.3812 0.4132 0.9919
H4_14 H 0.2510 0.4322 0.9899
C6_16 C 0.8563(6) 0.0145(6) 0.8801(4)
C7_16 C 0.8672(10) 0.0933(7) 0.8854(5)
H1_16 H 0.8796 0.1158 0.9227
C8_16 C 0.8587(13) 0.1390(8) 0.8318(7)
H2_16 H 0.8647 0.1925 0.8333
C9_16 C 0.8414(13) 0.1026(9) 0.7776(6)
H3_15 H 0.8368 0.1312 0.7419
C10_16 C 0.8310(10) 0.0242(8) 0.7767(6)
H4_15 H 0.8178 0.0010 0.7399
C1_16 C 0.9131(8) 0.9026(6) 0.0810(5)
C2_16 C 0.8933(6) 0.9092(5) 0.0157(4)
O1_16 O 0.9209(6) 0.9594(4) 0.1127(3)
O2_16 O 0.9221(7) 0.8326(4) 0.1029(4)
O3_16 O 0.9033(6) 0.7323(4) 0.0225(3)
H3_16 H 0.6188 0.0868 0.9919
H4_16 H 0.7490 0.0678 0.9899
loop_
_geom_bond_atom_site_label_1
_geom_bond_atom_site_label_2
_geom_bond_site_symmetry_1
_geom_bond_site_symmetry_2
C6 C7 1_555 1_555
C7 H1 1_555 1_555
C8 C7 1_555 1_555
H2 C8 1_555 1_555
C9 C8 1_555 1_555
H3 C9 1_555 1_555
C10 C9 1_555 1_555
H4 C10 1_555 1_555
N4 Pb1 1_555 1_555
N5 Pb1 1_555 1_555
O5 Pb1 1_555 1_555
O6 Pb1 1_555 1_555
C1 C2 1_555 1_555
C2 C3 1_555 1_555
C3 C5 1_555 1_555
C5 O3 1_555 1_555
N1 C2 1_555 1_555
N2 C3 1_555 1_555
O2 C1 1_555 1_555
O4 C5 1_555 1_555
Pb2 N2 1_555 1_555
Pb3 O4 1_555 1_555
C1 O1 1_555 1_555
C4 N1 1_555 1_555
C4 N2 1_555 1_555
N3 Pb2 1_555 1_555
O4 Pb2 1_555 1_555
Pb3_2 O4_2 1_555 1_555
Pb1_2 N1_2 1_555 1_555
C1_2 C2_2 1_555 1_555
C2_2 C3_2 1_555 1_555
C3_2 C5_2 1_555 1_555
C4_2 C6_2 1_555 1_555
C6_2 C7_2 1_555 1_555
C7_2 H1_2 1_555 1_555
C8_2 C7_2 1_555 1_555
H2_2 C8_2 1_555 1_555
C9_2 C8_2 1_555 1_555
C10_2 C9_2 1_555 1_555
N1_2 C2_2 1_555 1_555
N2_2 C3_2 1_555 1_555
N3_2 C6_2 1_555 1_555
O1_2 Pb1_2 1_555 1_555
O2_2 C1_2 1_555 1_555
Pb2_2 N2_2 1_555 1_555
N4_2 Pb1_2 1_555 1_555
N5_2 Pb1_2 1_555 1_555
O5_2 Pb1_2 1_555 1_555
O6_2 Pb1_2 1_555 1_555
C1_2 O1_2 1_555 1_555
C4_2 N1_2 1_555 1_555
C4_2 N2_2 1_555 1_555
C10_2 N3_2 1_555 1_555
N3_2 Pb2_2 1_555 1_555
C3_3 C5_3 1_555 1_555
N2_3 C3_3 1_555 1_555
O4_3 C5_3 1_555 1_555
Pb2_3 N2_3 1_555 1_555
Pb3_3 O4_3 1_555 1_555
C4_3 N1_3 1_555 1_555
C4_3 N2_3 1_555 1_555
N3_3 Pb2_3 1_555 1_555
O4_3 Pb2_3 1_555 1_555
N4_3 Pb1_3 1_555 1_555
N5_3 Pb1_3 1_555 1_555
O6_3 Pb1_3 1_555 1_555
Pb1_4 N1_4 1_555 1_555
C1_3 C2_3 1_555 1_555
C2_3 C3_4 1_555 1_555
C3_4 C5_4 1_555 1_555
C4_4 C6_3 1_555 1_555
C5_4 O3_3 1_555 1_555
C6_3 C7_3 1_555 1_555
C7_3 H1_3 1_555 1_555
C8_3 C7_3 1_555 1_555
H2_3 C8_3 1_555 1_555
C9_3 C8_3 1_555 1_555
H3_2 C9_3 1_555 1_555
C10_3 C9_3 1_555 1_555
H4_2 C10_3 1_555 1_555
N1_4 C2_3 1_555 1_555
N2_4 C3_4 1_555 1_555
N3_4 C6_3 1_555 1_555
O1_3 Pb1_4 1_555 1_555
O2_3 C1_3 1_555 1_555
O4_4 C5_4 1_555 1_555
Pb2_4 N2_4 1_555 1_555
Pb3_4 O4_4 1_555 1_555
N4_4 Pb1_4 1_555 1_555
N5_4 Pb1_4 1_555 1_555
O5_4 Pb1_4 1_555 1_555
O6_4 Pb1_4 1_555 1_555
C1_3 O1_3 1_555 1_555
C4_4 N1_4 1_555 1_555
C4_4 N2_4 1_555 1_555
C10_3 N3_4 1_555 1_555
N3_4 Pb2_4 1_555 1_555
O4_4 Pb2_4 1_555 1_555
C3_5 C5_5 1_555 1_555
C4_5 C6_4 1_555 1_555
C6_4 C7_4 1_555 1_555
C7_4 H1_4 1_555 1_555
C8_4 C7_4 1_555 1_555
H2_4 C8_4 1_555 1_555
C9_4 C8_4 1_555 1_555
H3_3 C9_4 1_555 1_555
C10_4 C9_4 1_555 1_555
H4_3 C10_4 1_555 1_555
N4_4 C3_5 1_555 1_555
N5_4 C6_4 1_555 1_555
O5_4 C5_5 1_555 1_555
Pb3_5 O5_4 1_555 1_555
C4_5 N1_5 1_555 1_555
C4_5 N4_4 1_555 1_555
C10_4 N5_4 1_555 1_555
C1_4 C2_4 1_555 1_555
O1_4 Pb2_2 1_555 1_555
O2_4 C1_4 1_555 1_555
O6_5 Pb2_2 1_555 1_555
C1_4 O1_4 1_555 1_555
Pb2_3 N1_6 1_555 1_555
C1_5 C2_5 1_555 1_555
C2_5 C3_6 1_555 1_555
C3_6 C5_6 1_555 1_555
C4_6 C6_5 1_555 1_555
C5_6 O3_5 1_555 1_555
C6_5 C7_5 1_555 1_555
C7_5 H1_5 1_555 1_555
C8_5 C7_5 1_555 1_555
H2_5 C8_5 1_555 1_555
C9_5 C8_5 1_555 1_555
H3_4 C9_5 1_555 1_555
C10_5 C9_5 1_555 1_555
H4_4 C10_5 1_555 1_555
N1_6 C2_5 1_555 1_555
N4 C3_6 1_555 1_555
N5 C6_5 1_555 1_555
O1_5 Pb2_3 1_555 1_555
O2_5 C1_5 1_555 1_555
O5 C5_6 1_555 1_555
Pb3_6 O5 1_555 1_555
O6_6 Pb2_3 1_555 1_555
C1_5 O1_5 1_555 1_555
C4_6 N1_6 1_555 1_555
C4_6 N4 1_555 1_555
C10_5 N5 1_555 1_555
Pb2_4 N1_7 1_555 1_555
C1_6 C2_6 1_555 1_555
C2_6 C3_7 1_555 1_555
C3_7 C5_7 1_555 1_555
C4_7 C6_6 1_555 1_555
C5_7 O3_6 1_555 1_555
C6_6 C7_6 1_555 1_555
C7_6 H1_6 1_555 1_555
C8_6 C7_6 1_555 1_555
H2_6 C8_6 1_555 1_555
C9_6 C8_6 1_555 1_555
H3_5 C9_6 1_555 1_555
C10_6 C9_6 1_555 1_555
H4_5 C10_6 1_555 1_555
N1_7 C2_6 1_555 1_555
N4_2 C3_7 1_555 1_555
N5_2 C6_6 1_555 1_555
O1_6 Pb2_4 1_555 1_555
O2_6 C1_6 1_555 1_555
O5_2 C5_7 1_555 1_555
Pb3_7 O5_2 1_555 1_555
O6_7 Pb2_4 1_555 1_555
C1_6 O1_6 1_555 1_555
C4_7 N1_7 1_555 1_555
C4_7 N4_2 1_555 1_555
C10_6 N5_2 1_555 1_555
Pb2 N1_8 1_555 1_555
C1_7 C2_7 1_555 1_555
C2_7 C3_8 1_555 1_555
C3_8 C5_8 1_555 1_555
C4_8 C6_7 1_555 1_555
C6_7 C7_7 1_555 1_555
C7_7 H1_7 1_555 1_555
C8_7 C7_7 1_555 1_555
H2_7 C8_7 1_555 1_555
C9_7 C8_7 1_555 1_555
C10_7 C9_7 1_555 1_555
N1_8 C2_7 1_555 1_555
N4_3 C3_8 1_555 1_555
N5_3 C6_7 1_555 1_555
O1_7 Pb2 1_555 1_555
O2_7 C1_7 1_555 1_555
O6_8 Pb2 1_555 1_555
C1_7 O1_7 1_555 1_555
C4_8 N1_8 1_555 1_555
C4_8 N4_3 1_555 1_555
C10_7 N5_3 1_555 1_555
Pb3_8 O5_3 1_555 1_555
C1_8 C2_8 1_555 1_555
C2_8 C3_9 1_555 1_555
C3_9 C5_9 1_555 1_555
C5_9 O3_8 1_555 1_555
N1_9 C2_8 1_555 1_555
N2_5 C3_9 1_555 1_555
O2_8 C1_8 1_555 1_555
O6_7 C5_9 1_555 1_555
Pb3_6 N2_5 1_555 1_555
C1_8 O1_8 1_555 1_555
C4_9 N1_9 1_555 1_555
C4_9 N2_5 1_555 1_555
N3_5 Pb3_6 1_555 1_555
O6_7 Pb3_6 1_555 1_555
C6_8 C7_8 1_555 1_555
C7_8 H1_8 1_555 1_555
C8_8 C7_8 1_555 1_555
H2_8 C8_8 1_555 1_555
C9_8 C8_8 1_555 1_555
H3_6 C9_8 1_555 1_555
C10_8 C9_8 1_555 1_555
H4_6 C10_8 1_555 1_555
N4_5 Pb3_7 1_555 1_555
N5_5 Pb3_7 1_555 1_555
O6_8 Pb3_7 1_555 1_555
Pb3_4 N1_10 1_555 1_555
C1_9 C2_9 1_555 1_555
C2_9 C3_10 1_555 1_555
C3_10 C5_10 1_555 1_555
C4_10 C6_9 1_555 1_555
C6_9 C7_9 1_555 1_555
C7_9 H1_9 1_555 1_555
C8_9 C7_9 1_555 1_555
H2_9 C8_9 1_555 1_555
C9_9 C8_9 1_555 1_555
C10_9 C9_9 1_555 1_555
N1_10 C2_9 1_555 1_555
N2_6 C3_10 1_555 1_555
N3_6 C6_9 1_555 1_555
O1_9 Pb3_4 1_555 1_555
O2_9 C1_9 1_555 1_555
Pb3_3 N2_6 1_555 1_555
N4_6 Pb3_4 1_555 1_555
N5_6 Pb3_4 1_555 1_555
O6 Pb3_4 1_555 1_555
C1_9 O1_9 1_555 1_555
C4_10 N1_10 1_555 1_555
C4_10 N2_6 1_555 1_555
C10_9 N3_6 1_555 1_555
N3_6 Pb3_3 1_555 1_555
N4_7 Pb3_5 1_555 1_555
N5_7 Pb3_5 1_555 1_555
C3_11 C5_11 1_555 1_555
N2_7 C3_11 1_555 1_555
O6_5 C5_11 1_555 1_555
Pb3_8 N2_7 1_555 1_555
C4_11 N1_11 1_555 1_555
C4_11 N2_7 1_555 1_555
N3_7 Pb3_8 1_555 1_555
O6_5 Pb3_8 1_555 1_555
Pb3_2 N1_12 1_555 1_555
C1_10 C2_10 1_555 1_555
C2_10 C3_12 1_555 1_555
C3_12 C5_12 1_555 1_555
C4_12 C6_10 1_555 1_555
C5_12 O3_10 1_555 1_555
C6_10 C7_10 1_555 1_555
C7_10 H1_10 1_555 1_555
C8_10 C7_10 1_555 1_555
H2_10 C8_10 1_555 1_555
C9_10 C8_10 1_555 1_555
H3_7 C9_10 1_555 1_555
C10_10 C9_10 1_555 1_555
H4_7 C10_10 1_555 1_555
N1_12 C2_10 1_555 1_555
N2_8 C3_12 1_555 1_555
N3_8 C6_10 1_555 1_555
O1_10 Pb3_2 1_555 1_555
O2_10 C1_10 1_555 1_555
O6_2 C5_12 1_555 1_555
Pb3 N2_8 1_555 1_555
N4_8 Pb3_2 1_555 1_555
N5_8 Pb3_2 1_555 1_555
O6_3 Pb3_2 1_555 1_555
C1_10 O1_10 1_555 1_555
C4_12 N1_12 1_555 1_555
C4_12 N2_8 1_555 1_555
C10_10 N3_8 1_555 1_555
N3_8 Pb3 1_555 1_555
O6_2 Pb3 1_555 1_555
C1_11 C2_11 1_555 1_555
O1_11 Pb3_3 1_555 1_555
O2_11 C1_11 1_555 1_555
C1_11 O1_11 1_555 1_555
C3_13 C5_13 1_555 1_555
C4_13 C6_11 1_555 1_555
C6_11 C7_11 1_555 1_555
C7_11 H1_11 1_555 1_555
C8_11 C7_11 1_555 1_555
H2_11 C8_11 1_555 1_555
C9_11 C8_11 1_555 1_555
H3_8 C9_11 1_555 1_555
C10_11 C9_11 1_555 1_555
H4_8 C10_11 1_555 1_555
N4_8 C3_13 1_555 1_555
N5_8 C6_11 1_555 1_555
O6_3 C5_13 1_555 1_555
C4_13 N1_13 1_555 1_555
C4_13 N4_8 1_555 1_555
C10_11 N5_8 1_555 1_555
Pb3_8 N1_14 1_555 1_555
C1_12 C2_12 1_555 1_555
C2_12 C3_14 1_555 1_555
C3_14 C5_14 1_555 1_555
C4_14 C6_12 1_555 1_555
C5_14 O3_12 1_555 1_555
C6_12 C7_12 1_555 1_555
C7_12 H1_12 1_555 1_555
C8_12 C7_12 1_555 1_555
H2_12 C8_12 1_555 1_555
C9_12 C8_12 1_555 1_555
H3_9 C9_12 1_555 1_555
C10_12 C9_12 1_555 1_555
H4_9 C10_12 1_555 1_555
N1_14 C2_12 1_555 1_555
N4_5 C3_14 1_555 1_555
N5_5 C6_12 1_555 1_555
O1_12 Pb3_8 1_555 1_555
O2_12 C1_12 1_555 1_555
O6_8 C5_14 1_555 1_555
C1_12 O1_12 1_555 1_555
C4_14 N1_14 1_555 1_555
C4_14 N4_5 1_555 1_555
C10_12 N5_5 1_555 1_555
Pb3 N1_15 1_555 1_555
C1_13 C2_13 1_555 1_555
C2_13 C3_15 1_555 1_555
C3_15 C5_15 1_555 1_555
C4_15 C6_13 1_555 1_555
C5_15 O3_13 1_555 1_555
C6_13 C7_13 1_555 1_555
C7_13 H1_13 1_555 1_555
C8_13 C7_13 1_555 1_555
H2_13 C8_13 1_555 1_555
C9_13 C8_13 1_555 1_555
H3_10 C9_13 1_555 1_555
C10_13 C9_13 1_555 1_555
H4_10 C10_13 1_555 1_555
N1_15 C2_13 1_555 1_555
N4_6 C3_15 1_555 1_555
N5_6 C6_13 1_555 1_555
O1_13 Pb3 1_555 1_555
O2_13 C1_13 1_555 1_555
O6 C5_15 1_555 1_555
C1_13 O1_13 1_555 1_555
C4_15 N1_15 1_555 1_555
C4_15 N4_6 1_555 1_555
C10_13 N5_6 1_555 1_555
Pb3_6 N1_16 1_555 1_555
C1_14 C2_14 1_555 1_555
C2_14 C3_16 1_555 1_555
C3_16 C5_16 1_555 1_555
C4_16 C6_14 1_555 1_555
C6_14 C7_14 1_555 1_555
C7_14 H1_14 1_555 1_555
C8_14 C7_14 1_555 1_555
H2_14 C8_14 1_555 1_555
C9_14 C8_14 1_555 1_555
C10_14 C9_14 1_555 1_555
N1_16 C2_14 1_555 1_555
N4_7 C3_16 1_555 1_555
N5_7 C6_14 1_555 1_555
O1_14 Pb3_6 1_555 1_555
O2_14 C1_14 1_555 1_555
C1_14 O1_14 1_555 1_555
C4_16 N1_16 1_555 1_555
C4_16 N4_7 1_555 1_555
C10_14 N5_7 1_555 1_555
C1_15 C2_15 1_555 1_555
O2_15 C1_15 1_555 1_555
C1_15 O1_15 1_555 1_555
C6_15 C7_15 1_555 1_555
C7_15 H1_15 1_555 1_555
C8_15 C7_15 1_555 1_555
H2_15 C8_15 1_555 1_555
C9_15 C8_15 1_555 1_555
H3_12 C9_15 1_555 1_555
C10_15 C9_15 1_555 1_555
H4_12 C10_15 1_555 1_555
C6_16 C7_16 1_555 1_555
C7_16 H1_16 1_555 1_555
C8_16 C7_16 1_555 1_555
H2_16 C8_16 1_555 1_555
C9_16 C8_16 1_555 1_555
H3_15 C9_16 1_555 1_555
C10_16 C9_16 1_555 1_555
H4_15 C10_16 1_555 1_555
C1_16 C2_16 1_555 1_555
O2_16 C1_16 1_555 1_555
C1_16 O1_16 1_555 1_555

#END
