
###############################################################################
#
# This file contains modified crystal structure data generated from the
# MOF subset of the Cambridge Structural Database (CSD) v543 
# hosted by the Cambridge Crystallographic Data Centre (CCDC).
#
# This work is licensed under the Creative Commons
# Attribution-NonCommercial-ShareAlike 4.0 International License.
# To view a copy of this license, visit
# http://creativecommons.org/licenses/by-nc-sa/4.0/
# or send a letter to
# Creative Commons, PO Box 1866, Mountain View, CA 94042, USA.
#
# CIF created using the CSD Python API on 29 September 2022
# The structure has been converted into the P1 space group
# The structure has a 3D framework
# The original CSD entry UDICER is in the monoclinic crystal system
# The framework has been calculated to contain at least 10.0% void space
# The void calculation uses a probe of radius 1.32A, grid spacing 0.4
# H atom positions have been added when not included in the experimental data
#
###############################################################################

data_UDICER
_chemical_formula_moiety         '(C36 H20 Bi2 O26)n'
_symmetry_cell_setting           triclinic
_symmetry_space_group_name_H-M   'P 1'
_symmetry_Int_Tables_number      1
_space_group_name_Hall           'P 1'
loop_
_symmetry_equiv_pos_site_id
_symmetry_equiv_pos_as_xyz
1 x,y,z
_cell_length_a                   9.89052(46)
_cell_length_b                   16.88087(77)
_cell_length_c                   7.20308(33)
_cell_angle_alpha                90
_cell_angle_beta                 70.7143(19)
_cell_angle_gamma                90
_cell_volume                     1135.14
loop_
_atom_site_label
_atom_site_type_symbol
_atom_site_fract_x
_atom_site_fract_y
_atom_site_fract_z
_atom_site_U_iso_or_equiv
_atom_site_thermal_displace_type
O8 O 0.1031(19) 0.0220(13) 0.3059(25) 0.0043 Uiso
O9 O 0.1522(28) 0.0817(16) 0.6555(54) 0.0043 Uiso
O10 O 0.3480(33) 0.0840(16) 0.4333(47) 0.0043 Uiso
O1 O 0.0665(22) 0.8748(14) 0.6907(37) 0.0043 Uiso
Bi1 Bi 0.22158(36) 0.95928(18) 0.47356(49) 0.0056 Uiso
O7 O 0.3332(37) 0.9461(26) 0.7292(50) 0.0043 Uiso
O11 O 0.3870(21) 0.8420(12) 0.3797(29) 0.0043 Uiso
O12 O 0.4576(36) 0.9536(15) 0.2111(46) 0.0043 Uiso
H4 H 0.35749 0.889664 0.741007 . .
H5 H 0.421872 0.978535 0.6934 . .
Bi2 Bi 0.77842(36) 0.04072(18) 0.52644(49) 0.0056 Uiso
C3 C 0.611255 0.753876 0.082086 0.0038 Uiso
C4 C 0.600723 0.837780 0.091815 0.0038 Uiso
C8 C 0.474026 0.877168 0.230775 0.0038 Uiso
O4 O 0.6520(33) 0.5840(16) 0.0667(47) 0.0043 Uiso
Bi3 Bi 0.77842(36) 0.45928(18) 0.02644(49) 0.0056 Uiso
H1 H 0.523934 0.717765 0.17542 . .
H2 H 0.715842 0.946404 0.00478351 . .
C1 C 0.839867 0.765126 0.819672 0.0038 Uiso
C2 C 0.735297 0.716770 0.951034 0.0038 Uiso
C5 C 0.715256 0.882874 0.978791 0.0038 Uiso
C6 C 0.829908 0.848538 0.832288 0.0038 Uiso
C7 C 0.937623 0.897541 0.692352 0.0038 Uiso
C9 C 0.745325 0.628112 0.940779 0.0038 Uiso
O2 O 0.8969(19) 0.9780(13) 0.6941(25) 0.0043 Uiso
O3 O 0.8478(28) 0.5817(16) 0.8445(54) 0.0043 Uiso
H3 H 0.929669 0.737794 0.706779 . .
C1_2 C 0.160133 0.265126 0.680328 0.0038 Uiso
C2_2 C 0.264703 0.216770 0.548966 0.0038 Uiso
C3_2 C 0.388745 0.253876 0.417914 0.0038 Uiso
C4_2 C 0.399277 0.337780 0.408185 0.0038 Uiso
C5_2 C 0.284744 0.382874 0.521209 0.0038 Uiso
C6_2 C 0.170092 0.348538 0.667712 0.0038 Uiso
C7_2 C 0.062377 0.397541 0.807648 0.0038 Uiso
C8_2 C 0.525974 0.377168 0.269225 0.0038 Uiso
C9_2 C 0.254675 0.128112 0.559221 0.0038 Uiso
O2_2 O 0.1031(19) 0.4780(13) 0.8059(25) 0.0043 Uiso
O5 O 0.6130(21) 0.3420(12) 0.1203(29) 0.0043 Uiso
O6 O 0.5424(36) 0.4536(15) 0.2889(46) 0.0043 Uiso
Bi2_2 Bi 0.22158(36) 0.54072(18) 0.97356(49) 0.0056 Uiso
H1_2 H 0.476066 0.217765 0.32458 . .
H2_2 H 0.284158 0.446404 0.495216 . .
H3_2 H 0.0703311 0.237794 0.793221 . .
O8_2 O 0.8969(19) 0.5220(13) 0.1941(25) 0.0043 Uiso
O1_2 O 0.9335(22) 0.3748(14) 0.8093(37) 0.0043 Uiso
O7_2 O 0.6668(37) 0.4461(26) 0.7708(50) 0.0043 Uiso
H4_2 H 0.64251 0.389664 0.758993 . .
H5_2 H 0.578128 0.478535 0.8066 . .
C1_3 C 0.160133 0.234874 0.180328 0.0038 Uiso
C2_3 C 0.264703 0.283230 0.048966 0.0038 Uiso
C5_3 C 0.284744 0.117126 0.021209 0.0038 Uiso
C6_3 C 0.170092 0.151462 0.167712 0.0038 Uiso
C7_3 C 0.062377 0.102459 0.307648 0.0038 Uiso
C9_3 C 0.254675 0.371888 0.059221 0.0038 Uiso
O3_2 O 0.1522(28) 0.4183(16) 0.1555(54) 0.0043 Uiso
H3_3 H 0.0703311 0.262206 0.293221 . .
C3_3 C 0.388745 0.246124 0.917914 0.0038 Uiso
C4_3 C 0.399277 0.162220 0.908185 0.0038 Uiso
C8_3 C 0.525974 0.122832 0.769225 0.0038 Uiso
O4_2 O 0.3480(33) 0.4160(16) 0.9333(47) 0.0043 Uiso
O5_2 O 0.6130(21) 0.1580(12) 0.6203(29) 0.0043 Uiso
O6_2 O 0.5424(36) 0.0464(15) 0.7889(46) 0.0043 Uiso
H1_3 H 0.476066 0.282235 0.82458 . .
H2_3 H 0.284158 0.0535964 0.995216 . .
O1_3 O 0.9335(22) 0.1252(14) 0.3093(37) 0.0043 Uiso
O7_3 O 0.6668(37) 0.0539(26) 0.2708(50) 0.0043 Uiso
H4_3 H 0.64251 0.110336 0.258993 . .
H5_3 H 0.578128 0.0214653 0.3066 . .
O9_2 O 0.8478(28) 0.9183(16) 0.3445(54) 0.0043 Uiso
O10_2 O 0.6520(33) 0.9160(16) 0.5667(47) 0.0043 Uiso
O1_4 O 0.0665(22) 0.6252(14) 0.1907(37) 0.0043 Uiso
O7_4 O 0.3332(37) 0.5539(26) 0.2292(50) 0.0043 Uiso
H4_4 H 0.35749 0.610336 0.241007 . .
H5_4 H 0.421872 0.521465 0.1934 . .
O11_2 O 0.3870(21) 0.6580(12) 0.8797(29) 0.0043 Uiso
O12_2 O 0.4576(36) 0.5464(15) 0.7111(46) 0.0043 Uiso
C1_4 C 0.839867 0.734874 0.319672 0.0038 Uiso
C2_4 C 0.735297 0.783230 0.451034 0.0038 Uiso
C3_4 C 0.611255 0.746124 0.582086 0.0038 Uiso
C4_4 C 0.600723 0.662220 0.591815 0.0038 Uiso
C5_4 C 0.715256 0.617126 0.478791 0.0038 Uiso
C6_4 C 0.829908 0.651462 0.332288 0.0038 Uiso
C7_4 C 0.937623 0.602459 0.192352 0.0038 Uiso
C8_4 C 0.474026 0.622832 0.730775 0.0038 Uiso
C9_4 C 0.745325 0.871888 0.440779 0.0038 Uiso
H1_4 H 0.523934 0.782235 0.67542 . .
H2_4 H 0.715842 0.553596 0.504784 . .
H3_4 H 0.929669 0.762206 0.206779 . .
loop_
_geom_bond_atom_site_label_1
_geom_bond_atom_site_label_2
_geom_bond_site_symmetry_1
_geom_bond_site_symmetry_2
Bi1 O1 1_555 1_555
O7 Bi1 1_555 1_555
O11 Bi1 1_555 1_555
O12 Bi1 1_555 1_555
O7 H4 1_555 1_555
O7 H5 1_555 1_555
C3 C4 1_555 1_555
C8 C4 1_555 1_555
O11 C8 1_555 1_555
O12 C8 1_555 1_555
O4 Bi3 1_555 1_555
C3 H1 1_555 1_555
C1 C2 1_555 1_555
C5 C6 1_555 1_555
C6 C1 1_555 1_555
C7 C6 1_555 1_555
C9 C2 1_555 1_555
O2 C7 1_555 1_555
O3 C9 1_555 1_555
C1 H3 1_555 1_555
C1_2 C2_2 1_555 1_555
C2_2 C3_2 1_555 1_555
C3_2 C4_2 1_555 1_555
C4_2 C5_2 1_555 1_555
C5_2 C6_2 1_555 1_555
C6_2 C1_2 1_555 1_555
C7_2 C6_2 1_555 1_555
C8_2 C4_2 1_555 1_555
C9_2 C2_2 1_555 1_555
O2_2 C7_2 1_555 1_555
O9 C9_2 1_555 1_555
O10 C9_2 1_555 1_555
O5 C8_2 1_555 1_555
O6 C8_2 1_555 1_555
Bi2_2 O2_2 1_555 1_555
Bi3 O5 1_555 1_555
O6 Bi3 1_555 1_555
C3_2 H1_2 1_555 1_555
C5_2 H2_2 1_555 1_555
C1_2 H3_2 1_555 1_555
O8_2 Bi3 1_555 1_555
O7_2 H4_2 1_555 1_555
O7_2 H5_2 1_555 1_555
C1_3 C2_3 1_555 1_555
C5_3 C6_3 1_555 1_555
C6_3 C1_3 1_555 1_555
C7_3 C6_3 1_555 1_555
C9_3 C2_3 1_555 1_555
O8 C7_3 1_555 1_555
O3_2 C9_3 1_555 1_555
C1_3 H3_3 1_555 1_555
C3_3 C4_3 1_555 1_555
C8_3 C4_3 1_555 1_555
O5_2 C8_3 1_555 1_555
O6_2 C8_3 1_555 1_555
Bi2 O5_2 1_555 1_555
O4_2 Bi2_2 1_555 1_555
O6_2 Bi2 1_555 1_555
C3_3 H1_3 1_555 1_555
Bi2 O1_3 1_555 1_555
O7_3 Bi2 1_555 1_555
O7_3 H4_3 1_555 1_555
O7_3 H5_3 1_555 1_555
O7_4 H4_4 1_555 1_555
O7_4 H5_4 1_555 1_555
O11_2 Bi2_2 1_555 1_555
O12_2 Bi2_2 1_555 1_555
C1_4 C2_4 1_555 1_555
C2_4 C3_4 1_555 1_555
C3_4 C4_4 1_555 1_555
C4_4 C5_4 1_555 1_555
C5_4 C6_4 1_555 1_555
C6_4 C1_4 1_555 1_555
C7_4 C6_4 1_555 1_555
C8_4 C4_4 1_555 1_555
C9_4 C2_4 1_555 1_555
O8_2 C7_4 1_555 1_555
O9_2 C9_4 1_555 1_555
O10_2 C9_4 1_555 1_555
O11_2 C8_4 1_555 1_555
O12_2 C8_4 1_555 1_555
C3_4 H1_4 1_555 1_555
C5_4 H2_4 1_555 1_555
C1_4 H3_4 1_555 1_555

#END
