
###############################################################################
#
# This file contains modified crystal structure data generated from the
# MOF subset of the Cambridge Structural Database (CSD) v543 
# hosted by the Cambridge Crystallographic Data Centre (CCDC).
#
# This work is licensed under the Creative Commons
# Attribution-NonCommercial-ShareAlike 4.0 International License.
# To view a copy of this license, visit
# http://creativecommons.org/licenses/by-nc-sa/4.0/
# or send a letter to
# Creative Commons, PO Box 1866, Mountain View, CA 94042, USA.
#
# CIF created using the CSD Python API on 29 September 2022
# The structure has been converted into the P1 space group
# The structure has a 3D framework
# The original CSD entry UDIDAO is in the orthorhombic crystal system
# The framework has been calculated to contain at least 10.0% void space
# The void calculation uses a probe of radius 1.32A, grid spacing 0.4
# H atom positions have been added when not included in the experimental data
# Generated hydrogen atom positions removed from atoms on special positions
#
###############################################################################

data_UDIDAO
_chemical_formula_moiety         '(C114 H118 Co32 N68 O92)n'
_symmetry_cell_setting           triclinic
_symmetry_space_group_name_H-M   'P 1'
_symmetry_Int_Tables_number      1
_space_group_name_Hall           'P 1'
loop_
_symmetry_equiv_pos_site_id
_symmetry_equiv_pos_as_xyz
1 x,y,z
_cell_length_a                   13.739(2)
_cell_length_b                   24.301(3)
_cell_length_c                   15.179(2)
_cell_angle_alpha                90
_cell_angle_beta                 90
_cell_angle_gamma                90
_cell_volume                     5067.83
loop_
_atom_site_label
_atom_site_type_symbol
_atom_site_fract_x
_atom_site_fract_y
_atom_site_fract_z
Co1 Co 0.38348(8) 0.24789(5) 0.20791(8)
Co2 Co 0.22504(8) 0.15664(5) 0.30095(8)
Co4 Co 0.3554(2) 0.54169(12) 0.3232(2)
O1 O 0.2896(4) 0.2919(2) 0.2876(4)
O2 O 0.1976(4) 0.2293(2) 0.3594(4)
O3 O 0.2620(7) 0.4869(3) 0.3613(6)
O4 O 0.1542(5) 0.5146(3) 0.4581(5)
O5 O 0.1030(5) 0.4117(3) 0.1116(4)
O6 O 0.1773(4) 0.3364(2) 0.0757(4)
O7 O 0.1915(6) 0.1118(3) 0.4119(5)
O8 O 0.5000 0.3010(4) 0.2500
O9 O 0.2487(5) 0.0769(3) 0.2406(5)
O11 O 0.3541(4) 0.2951(2) 0.1013(4)
N4 N 0.0051(5) 0.3001(3) 0.6375(4)
N5 N 0.0793(5) 0.1511(3) 0.2620(5)
N6 N 0.0467(5) 0.0993(3) 0.2576(6)
N7 N 0.2716(5) 0.1903(3) 0.1839(4)
N8 N 0.2253(6) 0.1814(4) 0.1209(6)
N9 N 0.1761(7) 0.1742(5) 0.0572(7)
C2 C 0.0703(6) 0.3526(3) 0.5090(5)
C3 C 0.1117(6) 0.3101(3) 0.4626(5)
H1 H 0.0945 0.2737 0.4741
C4 C 0.1810(6) 0.3228(4) 0.3973(5)
C5 C 0.2053(6) 0.3774(3) 0.3813(5)
H2 H 0.2502 0.3854 0.3373
C6 C 0.1650(6) 0.4198(3) 0.4285(5)
C7 C 0.0933(6) 0.4079(4) 0.4944(6)
H3 H 0.0633 0.4358 0.5262
C8 C 0.2265(6) 0.2774(4) 0.3438(6)
C9 C 0.1948(7) 0.4789(4) 0.4161(6)
C10 C -0.0000 0.1832(5) 0.2500
C11 C -0.0000 0.2451(5) 0.2500
C12 C 0.0574(6) 0.2731(3) 0.1917(6)
H4 H 0.0962 0.2539 0.1520
C13 C 0.0578(6) 0.3311(3) 0.1916(5)
C14 C -0.0000 0.3597(5) 0.2500
H5 H -0.0000 0.3980 0.2500
C15 C 0.1163(6) 0.3630(4) 0.1242(5)
O12 O 0.4052(13) 0.4754(7) 0.2410(12)
O13 O 0.4794(16) 0.5238(8) 0.4253(13)
O22 O 0.3058(6) 0.4429(4) 0.0824(6)
Co10 Co 0.11652(8) 0.25211(5) 0.70791(8)
Co13 Co 0.61652(8) 0.24789(5) 0.29209(8)
Co17 Co 0.30644(9) 0.09000(5) 0.49538(8)
Co18 Co 0.19356(9) 0.59000(5) 0.49538(8)
Co21 Co 0.1446(2) 0.04169(12) 0.3232(2)
O31 O 0.3085(6) 0.6118(3) 0.4119(5)
O34 O 0.2513(5) 0.5769(3) 0.2406(5)
N20 N 0.3654(5) 0.1601(3) 0.3444(4)
N22 N 0.4226(5) 0.1990(3) 0.3159(4)
N23 N 0.4949(5) 0.1999(3) 0.1375(4)
N26 N 0.4533(5) 0.5993(3) 0.2576(6)
H10 H 0.351613 0.463487 0.201461
H11 H 0.461257 0.488083 0.205043
H14 H 0.501833 0.485181 0.418613
H15 H 0.534755 0.549212 0.414613
H18 H 0.371709 0.333916 0.114102
H19 H 0.392563 0.28176 0.0501965
Co7 Co 0.19356(9) 0.41000(5) 0.99538(8)
N12 N 0.0902(5) 0.3652(3) 0.9141(5)
N13 N 0.1346(5) 0.3399(3) 0.8444(4)
N14 N 0.0774(5) 0.3010(3) 0.8159(4)
C19 C 0.0048(6) 0.3388(3) 0.9221(6)
Co14 Co 0.27496(8) 0.34336(5) 0.80095(8)
O27 O 0.1542(5) 0.4854(3) 0.9581(5)
O28 O 0.3085(6) 0.3882(3) 0.9119(5)
Co3 Co 0.80644(9) 0.41000(5) 0.50462(8)
O10 O 0.6942(6) 0.4429(4) 0.4176(6)
N1 N 0.9098(5) 0.3652(3) 0.5859(5)
N2 N 0.8654(5) 0.3399(3) 0.6556(4)
N3 N 0.9226(5) 0.3010(3) 0.6841(4)
C1 C 0.9952(6) 0.3388(3) 0.5779(6)
C10_2 C 1.0000 0.1832(5) 0.2500
C11_2 C 1.0000 0.2451(5) 0.2500
C14_2 C 1.0000 0.3597(5) 0.2500
H5_2 H 1.0000 0.3980 0.2500
O14 O 0.8970(5) 0.4117(3) 0.3884(4)
O15 O 0.8227(4) 0.3364(2) 0.4243(4)
N10 N 0.9207(5) 0.1511(3) 0.2380(5)
N11 N 0.9533(5) 0.0993(3) 0.2424(6)
C16 C 0.9426(6) 0.2731(3) 0.3083(6)
H6 H 0.9038 0.2539 0.3480
C17 C 0.9422(6) 0.3311(3) 0.3084(5)
C18 C 0.8837(6) 0.3630(4) 0.3758(5)
Co6 Co 0.77496(8) 0.15664(5) 0.19905(8)
Co8 Co 0.6446(2) 0.54169(12) 0.1768(2)
O16 O 0.7104(4) 0.2919(2) 0.2124(4)
O17 O 0.8024(4) 0.2293(2) 0.1406(4)
O18 O 0.7380(7) 0.4869(3) 0.1387(6)
O19 O 0.8458(5) 0.5146(3) 0.0419(5)
O20 O 0.8085(6) 0.1118(3) 0.0881(5)
O21 O 0.7513(5) 0.0769(3) 0.2594(5)
O23 O 0.6459(4) 0.2951(2) 0.3987(4)
N16 N 0.7284(5) 0.1903(3) 0.3161(4)
N17 N 0.7747(6) 0.1814(4) 0.3791(6)
N18 N 0.8239(7) 0.1742(5) 0.4428(7)
C21 C 0.8883(6) 0.3101(3) 0.0374(5)
H7 H 0.9055 0.2737 0.0259
C22 C 0.8190(6) 0.3228(4) 0.1027(5)
C23 C 0.7947(6) 0.3774(3) 0.1187(5)
H8 H 0.7498 0.3854 0.1627
C24 C 0.8350(6) 0.4198(3) 0.0715(5)
C25 C 0.9067(6) 0.4079(4) 0.0056(6)
C26 C 0.7735(6) 0.2774(4) 0.1562(6)
C27 C 0.8052(7) 0.4789(4) 0.0839(6)
O24 O 0.5948(13) 0.4754(7) 0.2590(12)
O25 O 0.5206(16) 0.5238(8) 0.0747(13)
Co12 Co 0.88348(8) 0.25211(5) 0.79209(8)
Co15 Co 0.72504(8) 0.34336(5) 0.69905(8)
Co16 Co 0.69356(9) 0.09000(5) 0.00462(8)
Co19 Co 0.80644(9) 0.59000(5) 0.00462(8)
Co20 Co 0.8554(2) 0.04169(12) 0.1768(2)
O26 O 0.8458(5) 0.4854(3) 0.5419(5)
O29 O 0.6915(6) 0.3882(3) 0.5881(5)
O30 O 0.6915(6) 0.6118(3) 0.0881(5)
O33 O 0.7487(5) 0.5769(3) 0.2594(5)
N19 N 0.6346(5) 0.1601(3) 0.1556(4)
N21 N 0.5774(5) 0.1990(3) 0.1841(4)
N24 N 0.5051(5) 0.1999(3) 0.3625(4)
N25 N 0.5467(5) 0.5993(3) 0.2424(6)
H20 H 0.628291 0.333916 0.385898
H21 H 0.607437 0.28176 0.449803
H22 H 0.648387 0.463487 0.298539
H23 H 0.538743 0.488083 0.294957
H24 H 0.498167 0.485181 0.0813867
H25 H 0.465245 0.549212 0.0853866
N15 N 0.9949(5) 0.3001(3) 0.8625(4)
C20 C 0.9297(6) 0.3526(3) 0.9910(5)
H9 H 0.9367 0.4358 0.9738
O32 O -0.0000 0.1990(4) 0.7500
H24_2 H 0.00183331 0.0148192 0.581387
N1_2 N 0.5902(5) 0.1348(3) 0.0859(5)
C1_2 C 0.5048(6) 0.1612(3) 0.0779(6)
C2_2 C 0.4297(6) 0.1474(3) 0.0090(5)
H3_2 H 0.4367 0.0642 0.0262
O26_2 O 0.6542(5) 0.0146(3) 0.0419(5)
O1_2 O 0.2104(4) 0.2081(2) 0.7876(4)
O2_2 O 0.3024(4) 0.2707(2) 0.8594(4)
O3_2 O 0.2380(7) 0.0131(3) 0.8613(6)
O5_2 O 0.3970(5) 0.0883(3) 0.6116(4)
O6_2 O 0.3227(4) 0.1636(2) 0.5757(4)
O9_2 O 0.2513(5) 0.4231(3) 0.7406(5)
O10_2 O 0.8058(6) 0.0571(4) 0.9176(6)
O11_2 O 0.1459(4) 0.2049(2) 0.6013(4)
N5_2 N 0.4207(5) 0.3489(3) 0.7620(5)
N6_2 N 0.4533(5) 0.4007(3) 0.7576(6)
N7_2 N 0.2284(5) 0.3097(3) 0.6839(4)
N8_2 N 0.2747(6) 0.3186(4) 0.6209(6)
N9_2 N 0.3239(7) 0.3258(5) 0.5572(7)
C3_2 C 0.3883(6) 0.1899(3) 0.9626(5)
H1_2 H 0.4055 0.2263 0.9741
C4_2 C 0.3190(6) 0.1772(4) 0.8973(5)
C5_2 C 0.2947(6) 0.1226(3) 0.8813(5)
H2_2 H 0.2498 0.1146 0.8373
C6_2 C 0.3350(6) 0.0802(3) 0.9285(5)
C7_2 C 0.4067(6) 0.0921(4) 0.9944(6)
C8_2 C 0.2735(6) 0.2226(4) 0.8438(6)
C9_2 C 0.3052(7) 0.0211(4) 0.9161(6)
C10_3 C 0.5000 0.3168(5) 0.7500
C11_3 C 0.5000 0.2549(5) 0.7500
C12_2 C 0.4426(6) 0.2269(3) 0.6917(6)
H4_2 H 0.4038 0.2461 0.6520
C13_2 C 0.4422(6) 0.1689(3) 0.6916(5)
C14_3 C 0.5000 0.1403(5) 0.7500
H5_3 H 0.5000 0.1020 0.7500
C15_2 C 0.3837(6) 0.1370(4) 0.6242(5)
O12_2 O 0.0948(13) 0.0246(7) 0.7410(12)
O14_2 O 0.6030(5) 0.0883(3) 0.8884(4)
O15_2 O 0.6773(4) 0.1636(2) 0.9243(4)
N10_2 N 0.5793(5) 0.3489(3) 0.7380(5)
N11_2 N 0.5467(5) 0.4007(3) 0.7424(6)
C16_2 C 0.5574(6) 0.2269(3) 0.8083(6)
H6_2 H 0.5962 0.2461 0.8480
C17_2 C 0.5578(6) 0.1689(3) 0.8084(5)
C18_2 C 0.6163(6) 0.1370(4) 0.8758(5)
O16_2 O 0.7896(4) 0.2081(2) 0.7124(4)
O17_2 O 0.6976(4) 0.2707(2) 0.6406(4)
O18_2 O 0.7620(7) 0.0131(3) 0.6387(6)
O21_2 O 0.7487(5) 0.4231(3) 0.7594(5)
O22_2 O 0.1942(6) 0.0571(4) 0.5824(6)
O23_2 O 0.8541(4) 0.2049(2) 0.8987(4)
N12_2 N 0.4098(5) 0.1348(3) 0.4141(5)
N16_2 N 0.7716(5) 0.3097(3) 0.8161(4)
N17_2 N 0.7253(6) 0.3186(4) 0.8791(6)
N18_2 N 0.6761(7) 0.3258(5) 0.9428(7)
C19_2 C 0.4952(6) 0.1612(3) 0.4221(6)
C20_2 C 0.5703(6) 0.1474(3) 0.4910(5)
C21_2 C 0.6117(6) 0.1899(3) 0.5374(5)
H7_2 H 0.5945 0.2263 0.5259
C22_2 C 0.6810(6) 0.1772(4) 0.6027(5)
C23_2 C 0.7053(6) 0.1226(3) 0.6187(5)
H8_2 H 0.7502 0.1146 0.6627
C24_2 C 0.6650(6) 0.0802(3) 0.5715(5)
C25_2 C 0.5933(6) 0.0921(4) 0.5056(6)
H9_2 H 0.5633 0.0642 0.4738
C26_2 C 0.7265(6) 0.2226(4) 0.6562(6)
C27_2 C 0.6948(7) 0.0211(4) 0.5839(6)
O24_2 O 0.9052(13) 0.0246(7) 0.7590(12)
Co20_2 Co 0.6446(2) 0.45831(12) 0.6768(2)
Co21_2 Co 0.3554(2) 0.45831(12) 0.8232(2)
O27_2 O 0.3458(5) 0.0146(3) 0.4581(5)
O32_2 O 1.0000 0.1990(4) 0.7500
H10_2 H 0.148387 0.0365129 0.701461
H11_2 H 0.0387427 0.0119171 0.705043
H18_2 H 0.128291 0.166084 0.614102
H19_2 H 0.107437 0.21824 0.550197
H20_2 H 0.871709 0.166084 0.885898
H21_2 H 0.892563 0.21824 0.949803
H22_2 H 0.851613 0.0365129 0.798539
H23_2 H 0.961257 0.0119171 0.794957
Co4_2 Co 0.1446(2) 0.95831(12) 0.8232(2)
O4_2 O 0.3458(5) 0.9854(3) 0.9581(5)
O13_2 O 0.0206(16) 0.9762(8) 0.9253(13)
Co8_2 Co 0.8554(2) 0.95831(12) 0.6768(2)
O19_2 O 0.6542(5) 0.9854(3) 0.5419(5)
O25_2 O 0.9794(16) 0.9762(8) 0.5747(13)
Co18_2 Co 0.30644(9) 0.91000(5) 0.99538(8)
Co19_2 Co 0.69356(9) 0.91000(5) 0.50462(8)
O30_2 O 0.8085(6) 0.8882(3) 0.5881(5)
O31_2 O 0.1915(6) 0.8882(3) 0.9119(5)
O33_2 O 0.7513(5) 0.9231(3) 0.7594(5)
O34_2 O 0.2487(5) 0.9231(3) 0.7406(5)
N25_2 N 0.9533(5) 0.9007(3) 0.7424(6)
N26_2 N 0.0467(5) 0.9007(3) 0.7576(6)
H14_2 H 0.998167 0.0148192 0.918613
N15_2 N 0.0051(5) 0.6999(3) 0.1375(4)
C20_3 C 0.0703(6) 0.6474(3) 0.0090(5)
H9_3 H 0.0633 0.5642 0.0262
Co11 Co 0.11652(8) 0.74789(5) 0.20791(8)
O10_3 O 0.3058(6) 0.5571(4) 0.5824(6)
N1_3 N 0.0902(5) 0.6348(3) 0.4141(5)
N2_2 N 0.1346(5) 0.6601(3) 0.3444(4)
N3_2 N 0.0774(5) 0.6990(3) 0.3159(4)
C1_3 C 0.0048(6) 0.6612(3) 0.4221(6)
C10_4 C -0.0000 0.8168(5) 0.7500
C11_4 C -0.0000 0.7549(5) 0.7500
C14_4 C 0.0000 0.6403(5) 0.7500
H5_4 H -0.0000 0.6020 0.7500
O14_3 O 0.1030(5) 0.5883(3) 0.6116(4)
O15_3 O 0.1773(4) 0.6636(2) 0.5757(4)
N10_3 N 0.0793(5) 0.8489(3) 0.7620(5)
C16_3 C 0.0574(6) 0.7269(3) 0.6917(6)
H6_3 H 0.0962 0.7461 0.6520
C17_3 C 0.0578(6) 0.6689(3) 0.6916(5)
C18_3 C 0.1163(6) 0.6370(4) 0.6242(5)
Co5 Co 0.38348(8) 0.75211(5) 0.70791(8)
Co6_2 Co 0.22504(8) 0.84336(5) 0.80095(8)
O16_3 O 0.2896(4) 0.7081(2) 0.7876(4)
O17_3 O 0.1976(4) 0.7707(2) 0.8594(4)
O18_3 O 0.2620(7) 0.5131(3) 0.8613(6)
O23_3 O 0.3541(4) 0.7049(2) 0.6013(4)
N16_3 N 0.2716(5) 0.8097(3) 0.6839(4)
N17_3 N 0.2253(6) 0.8186(4) 0.6209(6)
N18_3 N 0.1761(7) 0.8258(5) 0.5572(7)
C21_3 C 0.1117(6) 0.6899(3) 0.9626(5)
H7_3 H 0.0945 0.7263 0.9741
C22_3 C 0.1810(6) 0.6772(4) 0.8973(5)
C23_3 C 0.2053(6) 0.6226(3) 0.8813(5)
H8_3 H 0.2502 0.6146 0.8373
C24_3 C 0.1650(6) 0.5802(3) 0.9285(5)
C25_3 C 0.0933(6) 0.5921(4) 0.9944(6)
C26_3 C 0.2265(6) 0.7226(4) 0.8438(6)
C27_3 C 0.1948(7) 0.5211(4) 0.9161(6)
O24_3 O 0.4052(13) 0.5246(7) 0.7410(12)
O25_3 O 0.4794(16) 0.4762(8) 0.9253(13)
Co15_2 Co 0.27496(8) 0.65664(5) 0.30095(8)
O32_3 O 0.5000 0.6990(4) 0.7500
N19_2 N 0.3654(5) 0.8399(3) 0.8444(4)
N21_2 N 0.4226(5) 0.8010(3) 0.8159(4)
N24_2 N 0.4949(5) 0.8001(3) 0.6375(4)
H20_3 H 0.371709 0.666084 0.614102
H21_3 H 0.392563 0.71824 0.550197
H22_3 H 0.351613 0.536513 0.701461
H23_3 H 0.461257 0.511917 0.705043
H24_3 H 0.501833 0.514819 0.918613
H25_2 H 0.534755 0.450788 0.914613
N12_3 N 0.9098(5) 0.6348(3) 0.0859(5)
N13_2 N 0.8654(5) 0.6601(3) 0.1556(4)
N14_2 N 0.9226(5) 0.6990(3) 0.1841(4)
C19_3 C 0.9952(6) 0.6612(3) 0.0779(6)
Co9 Co 0.88348(8) 0.74789(5) 0.29209(8)
Co14_2 Co 0.72504(8) 0.65664(5) 0.19905(8)
Co1_2 Co 0.61652(8) 0.75211(5) 0.79209(8)
Co2_2 Co 0.77496(8) 0.84336(5) 0.69905(8)
O1_3 O 0.7104(4) 0.7081(2) 0.7124(4)
O2_3 O 0.8024(4) 0.7707(2) 0.6406(4)
O3_3 O 0.7380(7) 0.5131(3) 0.6387(6)
O5_3 O 0.8970(5) 0.5883(3) 0.8884(4)
O6_3 O 0.8227(4) 0.6636(2) 0.9243(4)
O11_3 O 0.6459(4) 0.7049(2) 0.8987(4)
N4_2 N 0.9949(5) 0.6999(3) 0.3625(4)
N5_3 N 0.9207(5) 0.8489(3) 0.7380(5)
N7_3 N 0.7284(5) 0.8097(3) 0.8161(4)
N8_3 N 0.7747(6) 0.8186(4) 0.8791(6)
N9_3 N 0.8239(7) 0.8258(5) 0.9428(7)
C2_3 C 0.9297(6) 0.6474(3) 0.4910(5)
C3_3 C 0.8883(6) 0.6899(3) 0.5374(5)
H1_3 H 0.9055 0.7263 0.5259
C4_3 C 0.8190(6) 0.6772(4) 0.6027(5)
C5_3 C 0.7947(6) 0.6226(3) 0.6187(5)
H2_3 H 0.7498 0.6146 0.6627
C6_3 C 0.8350(6) 0.5802(3) 0.5715(5)
C7_3 C 0.9067(6) 0.5921(4) 0.5056(6)
H3_3 H 0.9367 0.5642 0.4738
C8_3 C 0.7735(6) 0.7226(4) 0.6562(6)
C9_3 C 0.8052(7) 0.5211(4) 0.5839(6)
C10_5 C 1.0000 0.8168(5) 0.7500
C11_5 C 1.0000 0.7549(5) 0.7500
C12_3 C 0.9426(6) 0.7269(3) 0.8083(6)
H4_3 H 0.9038 0.7461 0.8480
C13_3 C 0.9422(6) 0.6689(3) 0.8084(5)
C14_5 C 1.0000 0.6403(5) 0.7500
H5_5 H 1.0000 0.6020 0.7500
C15_3 C 0.8837(6) 0.6370(4) 0.8758(5)
O12_3 O 0.5948(13) 0.5246(7) 0.7590(12)
O13_3 O 0.5206(16) 0.4762(8) 0.5747(13)
O22_3 O 0.6942(6) 0.5571(4) 0.9176(6)
N20_2 N 0.6346(5) 0.8399(3) 0.6556(4)
N22_2 N 0.5774(5) 0.8010(3) 0.6841(4)
N23_2 N 0.5051(5) 0.8001(3) 0.8625(4)
H10_3 H 0.648387 0.536513 0.798539
H11_3 H 0.538743 0.511917 0.794957
H14_3 H 0.498167 0.514819 0.581387
H15_2 H 0.465245 0.450788 0.585387
H18_3 H 0.628291 0.666084 0.885898
H19_3 H 0.607437 0.71824 0.949803
O8_2 O 0.0000 0.8010(4) 0.2500
H14_4 H 0.00183331 0.985181 0.0813867
O13_4 O 0.9794(16) 0.0238(8) 0.0747(13)
O25_4 O 0.0206(16) 0.0238(8) 0.4253(13)
O1_4 O 0.7896(4) 0.7919(2) 0.2124(4)
O2_4 O 0.6976(4) 0.7293(2) 0.1406(4)
O3_4 O 0.7620(7) 0.9869(3) 0.1387(6)
O5_4 O 0.6030(5) 0.9117(3) 0.3884(4)
O6_4 O 0.6773(4) 0.8364(2) 0.4243(4)
O8_3 O 1.0000 0.8010(4) 0.2500
O10_4 O 0.1942(6) 0.9429(4) 0.0824(6)
O11_4 O 0.8541(4) 0.7951(2) 0.3987(4)
N5_4 N 0.5793(5) 0.6511(3) 0.2380(5)
N7_4 N 0.7716(5) 0.6903(3) 0.3161(4)
N8_4 N 0.7253(6) 0.6814(4) 0.3791(6)
N9_4 N 0.6761(7) 0.6742(5) 0.4428(7)
C3_4 C 0.6117(6) 0.8101(3) 0.0374(5)
H1_4 H 0.5945 0.7737 0.0259
C4_4 C 0.6810(6) 0.8228(4) 0.1027(5)
C5_4 C 0.7053(6) 0.8774(3) 0.1187(5)
H2_4 H 0.7502 0.8854 0.1627
C6_4 C 0.6650(6) 0.9198(3) 0.0715(5)
C7_4 C 0.5933(6) 0.9079(4) 0.0056(6)
C8_4 C 0.7265(6) 0.7774(4) 0.1562(6)
C9_4 C 0.6948(7) 0.9789(4) 0.0839(6)
C10_6 C 0.5000 0.6832(5) 0.2500
C11_6 C 0.5000 0.7451(5) 0.2500
C12_4 C 0.5574(6) 0.7731(3) 0.3083(6)
H4_4 H 0.5962 0.7539 0.3480
C13_4 C 0.5578(6) 0.8311(3) 0.3084(5)
C14_6 C 0.5000 0.8597(5) 0.2500
H5_6 H 0.5000 0.8980 0.2500
C15_4 C 0.6163(6) 0.8630(4) 0.3758(5)
O12_4 O 0.9052(13) 0.9754(7) 0.2590(12)
O14_4 O 0.3970(5) 0.9117(3) 0.1116(4)
O15_4 O 0.3227(4) 0.8364(2) 0.0757(4)
N10_4 N 0.4207(5) 0.6511(3) 0.2620(5)
C16_4 C 0.4426(6) 0.7731(3) 0.1917(6)
H6_4 H 0.4038 0.7539 0.1520
C17_4 C 0.4422(6) 0.8311(3) 0.1916(5)
C18_4 C 0.3837(6) 0.8630(4) 0.1242(5)
O16_4 O 0.2104(4) 0.7919(2) 0.2876(4)
O17_4 O 0.3024(4) 0.7293(2) 0.3594(4)
O18_4 O 0.2380(7) 0.9869(3) 0.3613(6)
O22_4 O 0.8058(6) 0.9429(4) 0.4176(6)
O23_4 O 0.1459(4) 0.7951(2) 0.1013(4)
N12_4 N 0.5902(5) 0.8652(3) 0.5859(5)
N16_4 N 0.2284(5) 0.6903(3) 0.1839(4)
N17_4 N 0.2747(6) 0.6814(4) 0.1209(6)
N18_4 N 0.3239(7) 0.6742(5) 0.0572(7)
C19_4 C 0.5048(6) 0.8388(3) 0.5779(6)
C20_4 C 0.4297(6) 0.8526(3) 0.5090(5)
C21_4 C 0.3883(6) 0.8101(3) 0.4626(5)
H7_4 H 0.4055 0.7737 0.4741
C22_4 C 0.3190(6) 0.8228(4) 0.3973(5)
C23_4 C 0.2947(6) 0.8774(3) 0.3813(5)
H8_4 H 0.2498 0.8854 0.3373
C24_4 C 0.3350(6) 0.9198(3) 0.4285(5)
C25_4 C 0.4067(6) 0.9079(4) 0.4944(6)
H9_4 H 0.4367 0.9358 0.5262
C26_4 C 0.2735(6) 0.7774(4) 0.3438(6)
C27_4 C 0.3052(7) 0.9789(4) 0.4161(6)
O24_4 O 0.0948(13) 0.9754(7) 0.2410(12)
H10_4 H 0.851613 0.963487 0.298539
H11_4 H 0.961257 0.988083 0.294957
H18_4 H 0.871709 0.833916 0.385898
H19_4 H 0.892563 0.78176 0.449803
H20_4 H 0.128291 0.833916 0.114102
H21_4 H 0.107437 0.78176 0.0501965
H22_4 H 0.148387 0.963487 0.201461
H23_4 H 0.0387427 0.988083 0.205043
N1_4 N 0.4098(5) 0.8652(3) 0.9141(5)
C1_4 C 0.4952(6) 0.8388(3) 0.9221(6)
C2_4 C 0.5703(6) 0.8526(3) 0.9910(5)
H3_4 H 0.5633 0.9358 0.9738
H24_4 H 0.998167 0.985181 0.418613
H25_3 H 0.0347546 0.950788 0.585387
H15_3 H 0.965245 0.950788 0.914613
H15_4 H 0.0347546 0.0492119 0.0853866
H25_4 H 0.965245 0.0492119 0.414613
loop_
_geom_bond_atom_site_label_1
_geom_bond_atom_site_label_2
_geom_bond_site_symmetry_1
_geom_bond_site_symmetry_2
Co1 O1 1_555 1_555
Co2 O2 1_555 1_555
Co4 O3 1_555 1_555
O1 C8 1_555 1_555
O2 C8 1_555 1_555
O3 C9 1_555 1_555
O4 C9 1_555 1_555
O5 C15 1_555 1_555
O6 C15 1_555 1_555
O7 Co2 1_555 1_555
O8 Co1 1_555 1_555
O9 Co2 1_555 1_555
O11 Co1 1_555 1_555
N5 Co2 1_555 1_555
N6 N5 1_555 1_555
N7 Co1 1_555 1_555
N8 N7 1_555 1_555
N9 N8 1_555 1_555
C3 C2 1_555 1_555
H1 C3 1_555 1_555
C4 C3 1_555 1_555
C5 C4 1_555 1_555
H2 C5 1_555 1_555
C6 C5 1_555 1_555
C7 C2 1_555 1_555
H3 C7 1_555 1_555
C8 C4 1_555 1_555
C9 C6 1_555 1_555
C10 N5 1_555 1_555
C11 C10 1_555 1_555
C12 C11 1_555 1_555
H4 C12 1_555 1_555
C13 C12 1_555 1_555
C14 C13 1_555 1_555
H5 C14 1_555 1_555
C15 C13 1_555 1_555
O12 Co4 1_555 1_555
O13 Co4 1_555 1_555
Co10 N4 1_555 1_555
Co13 O8 1_555 1_555
Co17 O7 1_555 1_555
Co18 O4 1_555 1_555
Co21 O7 1_555 1_555
O31 Co4 1_555 1_555
O34 Co4 1_555 1_555
N20 Co2 1_555 1_555
N22 Co1 1_555 1_555
N23 Co1 1_555 1_555
N26 Co4 1_555 1_555
Co2 N7 1_555 1_555
O9 Co21 1_555 1_555
N6 Co21 1_555 1_555
C6 C7 1_555 1_555
Co18 O31 1_555 1_555
N20 N22 1_555 1_555
O12 H10 1_555 1_555
O12 H11 1_555 1_555
O13 H14 1_555 1_555
O13 H15 1_555 1_555
O11 H18 1_555 1_555
O11 H19 1_555 1_555
N12 Co7 1_555 1_555
N13 N12 1_555 1_555
N14 N13 1_555 1_555
C19 N12 1_555 1_555
Co10 N14 1_555 1_555
Co14 N13 1_555 1_555
O27 Co7 1_555 1_555
O28 Co7 1_555 1_555
Co14 O28 1_555 1_555
Co3 O10 1_555 1_555
N1 Co3 1_555 1_555
N2 N1 1_555 1_555
N3 N2 1_555 1_555
C1 N1 1_555 1_555
C11_2 C10_2 1_555 1_555
H5_2 C14_2 1_555 1_555
O14 Co3 1_555 1_555
O15 Co3 1_555 1_555
N10 C10_2 1_555 1_555
C16 C11_2 1_555 1_555
H6 C16 1_555 1_555
C17 C14_2 1_555 1_555
C18 O14 1_555 1_555
Co13 O16 1_555 1_555
Co6 N10 1_555 1_555
Co8 O18 1_555 1_555
O16 C26 1_555 1_555
O17 Co6 1_555 1_555
O18 C27 1_555 1_555
O19 C27 1_555 1_555
O20 Co6 1_555 1_555
O21 Co6 1_555 1_555
O23 Co13 1_555 1_555
N16 Co13 1_555 1_555
N17 N16 1_555 1_555
N18 N17 1_555 1_555
H7 C21 1_555 1_555
C22 C21 1_555 1_555
C23 C22 1_555 1_555
H8 C23 1_555 1_555
C24 C23 1_555 1_555
C26 O17 1_555 1_555
C27 C24 1_555 1_555
O24 Co8 1_555 1_555
O25 Co8 1_555 1_555
Co12 N3 1_555 1_555
Co15 N2 1_555 1_555
Co16 O20 1_555 1_555
Co19 O19 1_555 1_555
Co20 N11 1_555 1_555
O26 Co3 1_555 1_555
O29 Co3 1_555 1_555
O30 Co8 1_555 1_555
O33 Co8 1_555 1_555
N19 Co6 1_555 1_555
N21 Co13 1_555 1_555
N24 Co13 1_555 1_555
N25 Co8 1_555 1_555
O15 C18 1_555 1_555
N10 N11 1_555 1_555
C16 C17 1_555 1_555
C17 C18 1_555 1_555
Co6 N16 1_555 1_555
O20 Co20 1_555 1_555
O21 Co20 1_555 1_555
C22 C26 1_555 1_555
C24 C25 1_555 1_555
Co15 O29 1_555 1_555
Co19 O30 1_555 1_555
N19 N21 1_555 1_555
O23 H20 1_555 1_555
O23 H21 1_555 1_555
O24 H22 1_555 1_555
O24 H23 1_555 1_555
O25 H24 1_555 1_555
O25 H25 1_555 1_555
Co12 N15 1_555 1_555
N1_2 Co16 1_555 1_555
N19 N1_2 1_555 1_555
N23 N21 1_555 1_555
C1_2 N1_2 1_555 1_555
C2_2 C1_2 1_555 1_555
O26_2 Co16 1_555 1_555
N23 C1_2 1_555 1_555
Co10 O1_2 1_555 1_555
Co14 O2_2 1_555 1_555
O1_2 C8_2 1_555 1_555
O2_2 C8_2 1_555 1_555
O3_2 C9_2 1_555 1_555
O5_2 C15_2 1_555 1_555
O6_2 C15_2 1_555 1_555
O32 Co10 1_555 1_555
O9_2 Co14 1_555 1_555
O11_2 Co10 1_555 1_555
N5_2 Co14 1_555 1_555
N6_2 N5_2 1_555 1_555
N7_2 Co10 1_555 1_555
N8_2 N7_2 1_555 1_555
N9_2 N8_2 1_555 1_555
H1_2 C3_2 1_555 1_555
C4_2 C3_2 1_555 1_555
C5_2 C4_2 1_555 1_555
H2_2 C5_2 1_555 1_555
C6_2 C5_2 1_555 1_555
C8_2 C4_2 1_555 1_555
C9_2 C6_2 1_555 1_555
C10_3 N5_2 1_555 1_555
C11_3 C10_3 1_555 1_555
C12_2 C11_3 1_555 1_555
H4_2 C12_2 1_555 1_555
C13_2 C12_2 1_555 1_555
C14_3 C13_2 1_555 1_555
H5_3 C14_3 1_555 1_555
C15_2 C13_2 1_555 1_555
N10_2 C10_3 1_555 1_555
N11_2 N6_2 1_555 1_555
C16_2 C11_3 1_555 1_555
H6_2 C16_2 1_555 1_555
C17_2 C14_3 1_555 1_555
C18_2 O14_2 1_555 1_555
Co12 O16_2 1_555 1_555
Co15 N10_2 1_555 1_555
Co17 O5_2 1_555 1_555
O16_2 C26_2 1_555 1_555
O17_2 Co15 1_555 1_555
O18_2 C27_2 1_555 1_555
O21_2 Co15 1_555 1_555
O22_2 Co17 1_555 1_555
O23_2 Co12 1_555 1_555
N12_2 Co17 1_555 1_555
N20 N12_2 1_555 1_555
N24 N22 1_555 1_555
N16_2 Co12 1_555 1_555
N17_2 N16_2 1_555 1_555
N18_2 N17_2 1_555 1_555
C19_2 N12_2 1_555 1_555
C20_2 C19_2 1_555 1_555
C21_2 C20_2 1_555 1_555
H7_2 C21_2 1_555 1_555
C22_2 C21_2 1_555 1_555
C23_2 C22_2 1_555 1_555
H8_2 C23_2 1_555 1_555
C24_2 C23_2 1_555 1_555
C25_2 C20_2 1_555 1_555
H9_2 C25_2 1_555 1_555
C26_2 O17_2 1_555 1_555
C27_2 C24_2 1_555 1_555
Co20_2 N11_2 1_555 1_555
Co21_2 O28 1_555 1_555
O27_2 Co17 1_555 1_555
O32_2 Co12 1_555 1_555
Co14 N7_2 1_555 1_555
O6_2 Co17 1_555 1_555
O9_2 Co21_2 1_555 1_555
N6_2 Co21_2 1_555 1_555
C6_2 C7_2 1_555 1_555
O15_2 C18_2 1_555 1_555
N10_2 N11_2 1_555 1_555
C16_2 C17_2 1_555 1_555
C17_2 C18_2 1_555 1_555
Co15 N16_2 1_555 1_555
O29 Co20_2 1_555 1_555
O21_2 Co20_2 1_555 1_555
N24 C19_2 1_555 1_555
C22_2 C26_2 1_555 1_555
C24_2 C25_2 1_555 1_555
O12_2 H10_2 1_555 1_555
O12_2 H11_2 1_555 1_555
O11_2 H18_2 1_555 1_555
O11_2 H19_2 1_555 1_555
O23_2 H20_2 1_555 1_555
O23_2 H21_2 1_555 1_555
O24_2 H22_2 1_555 1_555
O24_2 H23_2 1_555 1_555
O13_2 Co4_2 1_555 1_555
O25_2 Co8_2 1_555 1_555
Co18_2 O4_2 1_555 1_555
Co19_2 O19_2 1_555 1_555
O30_2 Co8_2 1_555 1_555
O31_2 Co4_2 1_555 1_555
O33_2 Co8_2 1_555 1_555
O34_2 Co4_2 1_555 1_555
N25_2 Co8_2 1_555 1_555
N26_2 Co4_2 1_555 1_555
Co18_2 O31_2 1_555 1_555
Co19_2 O30_2 1_555 1_555
Co11 N15_2 1_555 1_555
Co18 O10_3 1_555 1_555
N1_3 Co18 1_555 1_555
N2_2 N1_3 1_555 1_555
N3_2 N2_2 1_555 1_555
C1_3 N1_3 1_555 1_555
C11_4 C10_4 1_555 1_555
H5_4 C14_4 1_555 1_555
O14_3 Co18 1_555 1_555
O15_3 Co18 1_555 1_555
N10_3 C10_4 1_555 1_555
C16_3 C11_4 1_555 1_555
H6_3 C16_3 1_555 1_555
C17_3 C14_4 1_555 1_555
C18_3 O14_3 1_555 1_555
Co5 O16_3 1_555 1_555
Co6_2 N10_3 1_555 1_555
Co21_2 O18_3 1_555 1_555
O16_3 C26_3 1_555 1_555
O17_3 Co6_2 1_555 1_555
O18_3 C27_3 1_555 1_555
O27 C27_3 1_555 1_555
O31_2 Co6_2 1_555 1_555
O34_2 Co6_2 1_555 1_555
O23_3 Co5 1_555 1_555
N16_3 Co5 1_555 1_555
N17_3 N16_3 1_555 1_555
N18_3 N17_3 1_555 1_555
H7_3 C21_3 1_555 1_555
C22_3 C21_3 1_555 1_555
C23_3 C22_3 1_555 1_555
H8_3 C23_3 1_555 1_555
C24_3 C23_3 1_555 1_555
C26_3 O17_3 1_555 1_555
C27_3 C24_3 1_555 1_555
O24_3 Co21_2 1_555 1_555
O25_3 Co21_2 1_555 1_555
Co11 N3_2 1_555 1_555
Co15_2 N2_2 1_555 1_555
O32_3 Co5 1_555 1_555
N19_2 Co6_2 1_555 1_555
N21_2 Co5 1_555 1_555
N24_2 Co5 1_555 1_555
O15_3 C18_3 1_555 1_555
N10_3 N26_2 1_555 1_555
C16_3 C17_3 1_555 1_555
C17_3 C18_3 1_555 1_555
Co6_2 N16_3 1_555 1_555
C22_3 C26_3 1_555 1_555
C24_3 C25_3 1_555 1_555
Co15_2 O31 1_555 1_555
N19_2 N21_2 1_555 1_555
O23_3 H20_3 1_555 1_555
O23_3 H21_3 1_555 1_555
O24_3 H22_3 1_555 1_555
O24_3 H23_3 1_555 1_555
O25_3 H24_3 1_555 1_555
O25_3 H25_2 1_555 1_555
N12_3 Co19 1_555 1_555
N13_2 N12_3 1_555 1_555
N14_2 N13_2 1_555 1_555
C19_3 N12_3 1_555 1_555
Co9 N14_2 1_555 1_555
Co14_2 N13_2 1_555 1_555
Co14_2 O30 1_555 1_555
Co1_2 O1_3 1_555 1_555
Co2_2 O2_3 1_555 1_555
Co20_2 O3_3 1_555 1_555
O1_3 C8_3 1_555 1_555
O2_3 C8_3 1_555 1_555
O3_3 C9_3 1_555 1_555
O26 C9_3 1_555 1_555
O5_3 C15_3 1_555 1_555
O6_3 C15_3 1_555 1_555
O30_2 Co2_2 1_555 1_555
O32_3 Co1_2 1_555 1_555
O33_2 Co2_2 1_555 1_555
O11_3 Co1_2 1_555 1_555
N5_3 Co2_2 1_555 1_555
N25_2 N5_3 1_555 1_555
N7_3 Co1_2 1_555 1_555
N8_3 N7_3 1_555 1_555
N9_3 N8_3 1_555 1_555
C3_3 C2_3 1_555 1_555
H1_3 C3_3 1_555 1_555
C4_3 C3_3 1_555 1_555
C5_3 C4_3 1_555 1_555
H2_3 C5_3 1_555 1_555
C6_3 C5_3 1_555 1_555
C7_3 C2_3 1_555 1_555
H3_3 C7_3 1_555 1_555
C8_3 C4_3 1_555 1_555
C9_3 C6_3 1_555 1_555
C10_5 N5_3 1_555 1_555
C11_5 C10_5 1_555 1_555
C12_3 C11_5 1_555 1_555
H4_3 C12_3 1_555 1_555
C13_3 C12_3 1_555 1_555
C14_5 C13_3 1_555 1_555
H5_5 C14_5 1_555 1_555
C15_3 C13_3 1_555 1_555
O12_3 Co20_2 1_555 1_555
O13_3 Co20_2 1_555 1_555
Co9 N4_2 1_555 1_555
N20_2 Co2_2 1_555 1_555
N22_2 Co1_2 1_555 1_555
N23_2 Co1_2 1_555 1_555
Co2_2 N7_3 1_555 1_555
C6_3 C7_3 1_555 1_555
N20_2 N22_2 1_555 1_555
O12_3 H10_3 1_555 1_555
O12_3 H11_3 1_555 1_555
O13_3 H14_3 1_555 1_555
O13_3 H15_2 1_555 1_555
O11_3 H18_3 1_555 1_555
O11_3 H19_3 1_555 1_555
Co11 O8_2 1_555 1_555
O13_4 Co20 1_555 1_555
O25_4 Co21 1_555 1_555
Co9 O1_4 1_555 1_555
Co14_2 O2_4 1_555 1_555
O1_4 C8_4 1_555 1_555
O2_4 C8_4 1_555 1_555
O3_4 C9_4 1_555 1_555
O5_4 C15_4 1_555 1_555
O6_4 C15_4 1_555 1_555
O8_3 Co9 1_555 1_555
O33 Co14_2 1_555 1_555
O11_4 Co9 1_555 1_555
N5_4 Co14_2 1_555 1_555
N25 N5_4 1_555 1_555
N7_4 Co9 1_555 1_555
N8_4 N7_4 1_555 1_555
N9_4 N8_4 1_555 1_555
H1_4 C3_4 1_555 1_555
C4_4 C3_4 1_555 1_555
C5_4 C4_4 1_555 1_555
H2_4 C5_4 1_555 1_555
C6_4 C5_4 1_555 1_555
C8_4 C4_4 1_555 1_555
C9_4 C6_4 1_555 1_555
C10_6 N5_4 1_555 1_555
C11_6 C10_6 1_555 1_555
C12_4 C11_6 1_555 1_555
H4_4 C12_4 1_555 1_555
C13_4 C12_4 1_555 1_555
C14_6 C13_4 1_555 1_555
H5_6 C14_6 1_555 1_555
C15_4 C13_4 1_555 1_555
N10_4 C10_6 1_555 1_555
N26 N25 1_555 1_555
C16_4 C11_6 1_555 1_555
H6_4 C16_4 1_555 1_555
C17_4 C14_6 1_555 1_555
C18_4 O14_4 1_555 1_555
Co11 O16_4 1_555 1_555
Co15_2 N10_4 1_555 1_555
Co19_2 O5_4 1_555 1_555
O16_4 C26_4 1_555 1_555
O17_4 Co15_2 1_555 1_555
O18_4 C27_4 1_555 1_555
O34 Co15_2 1_555 1_555
O22_4 Co19_2 1_555 1_555
O23_4 Co11 1_555 1_555
N12_4 Co19_2 1_555 1_555
N20_2 N12_4 1_555 1_555
N24_2 N22_2 1_555 1_555
N16_4 Co11 1_555 1_555
N17_4 N16_4 1_555 1_555
N18_4 N17_4 1_555 1_555
C19_4 N12_4 1_555 1_555
C20_4 C19_4 1_555 1_555
C21_4 C20_4 1_555 1_555
H7_4 C21_4 1_555 1_555
C22_4 C21_4 1_555 1_555
C23_4 C22_4 1_555 1_555
H8_4 C23_4 1_555 1_555
C24_4 C23_4 1_555 1_555
C25_4 C20_4 1_555 1_555
H9_4 C25_4 1_555 1_555
C26_4 O17_4 1_555 1_555
C27_4 C24_4 1_555 1_555
Co14_2 N7_4 1_555 1_555
O6_4 Co19_2 1_555 1_555
C6_4 C7_4 1_555 1_555
O15_4 C18_4 1_555 1_555
N10_4 N26 1_555 1_555
C16_4 C17_4 1_555 1_555
C17_4 C18_4 1_555 1_555
Co15_2 N16_4 1_555 1_555
N24_2 C19_4 1_555 1_555
C22_4 C26_4 1_555 1_555
C24_4 C25_4 1_555 1_555
O12_4 H10_4 1_555 1_555
O12_4 H11_4 1_555 1_555
O11_4 H18_4 1_555 1_555
O11_4 H19_4 1_555 1_555
O23_4 H20_4 1_555 1_555
O23_4 H21_4 1_555 1_555
O24_4 H22_4 1_555 1_555
O24_4 H23_4 1_555 1_555
N1_4 Co18_2 1_555 1_555
N19_2 N1_4 1_555 1_555
N23_2 N21_2 1_555 1_555
C1_4 N1_4 1_555 1_555
C2_4 C1_4 1_555 1_555
N23_2 C1_4 1_555 1_555

#END
