
###############################################################################
#
# This file contains modified crystal structure data generated from the
# MOF subset of the Cambridge Structural Database (CSD) v543 
# hosted by the Cambridge Crystallographic Data Centre (CCDC).
#
# This work is licensed under the Creative Commons
# Attribution-NonCommercial-ShareAlike 4.0 International License.
# To view a copy of this license, visit
# http://creativecommons.org/licenses/by-nc-sa/4.0/
# or send a letter to
# Creative Commons, PO Box 1866, Mountain View, CA 94042, USA.
#
# CIF created using the CSD Python API on 29 September 2022
# The structure has been converted into the P1 space group
# The structure has a 3D framework
# The original CSD entry UDIHOF is in the monoclinic crystal system
# The framework has been calculated to contain at least 10.0% void space
# The void calculation uses a probe of radius 1.32A, grid spacing 0.4
# The framework is charged, counterions have been retained in the structure
# H atom positions have been added when not included in the experimental data
# Generated hydrogen atom positions removed from atoms on special positions
#
###############################################################################

data_UDIHOF
_chemical_formula_moiety         '(C192 H144 N24 Ni18 O66)n'
_symmetry_cell_setting           triclinic
_symmetry_space_group_name_H-M   'P 1'
_symmetry_Int_Tables_number      1
_space_group_name_Hall           'P 1'
loop_
_symmetry_equiv_pos_site_id
_symmetry_equiv_pos_as_xyz
1 x,y,z
_cell_length_a                   30.175(3)
_cell_length_b                   21.108(3)
_cell_length_c                   16.762(2)
_cell_angle_alpha                90
_cell_angle_beta                 123.188(2)
_cell_angle_gamma                90
_cell_volume                     8934.76
loop_
_atom_site_label
_atom_site_type_symbol
_atom_site_fract_x
_atom_site_fract_y
_atom_site_fract_z
Ni5 Ni 0.600347(15) 0.0000 0.02915(3)
Ni9 Ni 0.601310(17) 0.0000 0.82564(3)
Ni5_2 Ni 0.600347(15) 1.0000 0.02915(3)
Ni6 Ni 0.223086(18) 0.5000 0.04689(3)
Ni1 Ni 0.100347(15) 0.5000 0.02915(3)
O1 O 0.14963(7) 0.43187(10) 0.12656(14)
O2 O 0.55849(14) 0.0000 0.6753(2)
O3 O 0.22715(9) 0.43095(13) 0.13918(16)
O4 O 0.06228(11) 0.5000 0.1045(2)
O5 O 0.54737(7) 0.06862(9) 0.94131(13)
O6 O 0.30810(17) 0.5000 0.1311(3)
O7 O 0.55058(9) 0.07028(13) 0.81197(16)
O8 O 0.14886(8) 0.43214(13) 0.82208(17)
O9 O 0.22728(9) 0.43179(12) 0.96207(15)
N1 N 0.33523(10) 0.27830(12) 0.58743(17)
N2 N 0.33551(10) 0.27920(13) 0.72949(17)
N3 N 0.26692(10) 0.33151(13) 0.59047(18)
C1 C 0.19733(12) 0.41949(14) 0.1680(2)
C2 C 0.22153(11) 0.38826(15) 0.26482(19)
C3 C 0.26934(13) 0.35413(18) 0.3077(2)
H1 H 0.2864 0.3492 0.2758
C4 C 0.29121(13) 0.32761(17) 0.3983(2)
H2 H 0.3218 0.3033 0.4252
C5 C 0.26733(12) 0.33762(15) 0.4476(2)
C6 C 0.21975(14) 0.36988(18) 0.4033(2)
H3 H 0.2027 0.3750 0.4353
C7 C 0.19688(12) 0.39456(17) 0.3132(2)
H4 H 0.1646 0.4156 0.2848
C8 C 0.29119(12) 0.31354(14) 0.5470(2)
C9 C 0.53251(10) 0.08719(14) 0.8602(2)
C10 C 0.26639(13) 0.33640(15) 0.7327(2)
C11 C 0.29411(16) 0.3372(2) 0.8308(2)
H5 H 0.3280 0.3200 0.8664
C12 C 0.42138(14) 0.19558(17) 0.8163(2)
H6 H 0.4055 0.2076 0.8483
C13 C 0.40213(12) 0.21900(16) 0.7264(2)
C14 C 0.42534(15) 0.1990(2) 0.6797(3)
H7 H 0.4123 0.2132 0.6181
C15 C 0.46834(16) 0.1575(2) 0.7236(3)
H8 H 0.4840 0.1449 0.6914
C16 C 0.35499(12) 0.26149(15) 0.6782(2)
C17 C 0.19704(13) 0.42032(16) 0.8749(2)
C18 C 0.22114(13) 0.38866(16) 0.8260(2)
C19 C 0.19318(15) 0.3849(2) 0.7289(3)
H9 H 0.1587 0.4003 0.6934
C20 C 0.27189(15) 0.3636(2) 0.8768(2)
H10 H 0.2914 0.3645 0.9431
C21 C 0.21500(16) 0.3586(3) 0.6816(3)
H11 H 0.1949 0.3561 0.6154
C22 C 0.46355(13) 0.15478(16) 0.8594(2)
H12 H 0.4760 0.1401 0.9205
C23 C 0.48793(10) 0.13496(14) 0.8139(2)
C24 C 0.29020(13) 0.31351(16) 0.6809(2)
Ni7 Ni 0.101310(17) 0.5000 0.82564(3)
Ni9_2 Ni 0.601310(17) 1.0000 0.82564(3)
O11 O 0.14963(7) 0.56813(10) 0.12656(14)
O12 O 0.22715(9) 0.56905(13) 0.13918(16)
O13 O 0.54737(7) 0.93138(9) 0.94131(13)
O16 O 0.55058(9) 0.92972(13) 0.81197(16)
O18 O 0.14886(8) 0.56786(13) 0.82208(17)
O20 O 0.64886(8) 0.06786(13) 0.82208(17)
O21 O 0.22728(9) 0.56821(12) 0.96207(15)
O24 O 0.64273(7) 0.0000 0.96901(13)
N4 N 0.33523(10) 0.72170(12) 0.58743(17)
N5 N 0.33551(10) 0.72080(13) 0.72949(17)
N6 N 0.26692(10) 0.66849(13) 0.59047(18)
C25 C 0.19733(12) 0.58051(14) 0.1680(2)
C26 C 0.22153(11) 0.61174(15) 0.26482(19)
C27 C 0.26934(13) 0.64587(18) 0.3077(2)
H13 H 0.2864 0.6508 0.2758
C28 C 0.29121(13) 0.67239(17) 0.3983(2)
H14 H 0.3218 0.6967 0.4252
C29 C 0.26733(12) 0.66238(15) 0.4476(2)
C30 C 0.21975(14) 0.63012(18) 0.4033(2)
H15 H 0.2027 0.6250 0.4353
C31 C 0.19688(12) 0.60544(17) 0.3132(2)
H16 H 0.1646 0.5844 0.2848
C32 C 0.29119(12) 0.68646(14) 0.5470(2)
C33 C 0.53251(10) 0.91281(14) 0.8602(2)
C34 C 0.26639(13) 0.66360(15) 0.7327(2)
C35 C 0.29411(16) 0.6628(2) 0.8308(2)
H17 H 0.3280 0.6800 0.8664
C36 C 0.42138(14) 0.80442(17) 0.8163(2)
H18 H 0.4055 0.7924 0.8483
C37 C 0.40213(12) 0.78100(16) 0.7264(2)
C38 C 0.42534(15) 0.8010(2) 0.6797(3)
H19 H 0.4123 0.7868 0.6181
C39 C 0.46834(16) 0.8425(2) 0.7236(3)
H20 H 0.4840 0.8551 0.6914
C40 C 0.35499(12) 0.73851(15) 0.6782(2)
C41 C 0.19704(13) 0.57968(16) 0.8749(2)
C42 C 0.22114(13) 0.61134(16) 0.8260(2)
C43 C 0.19318(15) 0.6151(2) 0.7289(3)
H21 H 0.1587 0.5997 0.6934
C44 C 0.27189(15) 0.6364(2) 0.8768(2)
H22 H 0.2914 0.6355 0.9431
C45 C 0.21500(16) 0.6414(3) 0.6816(3)
H23 H 0.1949 0.6439 0.6154
C46 C 0.46355(13) 0.84522(16) 0.8594(2)
H24 H 0.4760 0.8599 0.9205
C47 C 0.48793(10) 0.86504(14) 0.8139(2)
C48 C 0.29020(13) 0.68649(16) 0.6809(2)
H29 H 0.560771 0.042546 0.652504
O10 O 0.14273(7) 0.5000 0.96901(13)
O14 O 0.04737(7) 0.56862(9) 0.94131(13)
O15 O 0.04737(7) 0.43138(9) 0.94131(13)
O2_2 O 0.55849(14) 1.0000 0.6753(2)
O19 O 0.64886(8) 0.93214(13) 0.82208(17)
O24_2 O 0.64273(7) 1.0000 0.96901(13)
H30 H 0.573727 0.967874 0.653628
O16_2 O 0.05058(9) 0.42972(13) 0.81197(16)
C33_2 C 0.03251(10) 0.41281(14) 0.8602(2)
O2_3 O 0.05849(14) 0.5000 0.6753(2)
O7_2 O 0.05058(9) 0.57028(13) 0.81197(16)
C9_2 C 0.03251(10) 0.58719(14) 0.8602(2)
Ni6_2 Ni 0.723086(18) 0.0000 0.04689(3)
O4_2 O 0.56228(11) 0.0000 0.1045(2)
O6_2 O 0.80810(17) 0.0000 0.1311(3)
O11_2 O 0.64963(7) 0.06813(10) 0.12656(14)
O12_2 O 0.72715(9) 0.06905(13) 0.13918(16)
O21_2 O 0.72728(9) 0.06821(12) 0.96207(15)
N4_2 N 0.83523(10) 0.22170(12) 0.58743(17)
N5_2 N 0.83551(10) 0.22080(13) 0.72949(17)
N6_2 N 0.76692(10) 0.16849(13) 0.59047(18)
C25_2 C 0.69733(12) 0.08051(14) 0.1680(2)
C26_2 C 0.72153(11) 0.11174(15) 0.26482(19)
C27_2 C 0.76934(13) 0.14587(18) 0.3077(2)
H13_2 H 0.7864 0.1508 0.2758
C28_2 C 0.79121(13) 0.17239(17) 0.3983(2)
H14_2 H 0.8218 0.1967 0.4252
C29_2 C 0.76733(12) 0.16238(15) 0.4476(2)
C30_2 C 0.71975(14) 0.13012(18) 0.4033(2)
H15_2 H 0.7027 0.1250 0.4353
C31_2 C 0.69688(12) 0.10544(17) 0.3132(2)
H16_2 H 0.6646 0.0844 0.2848
C32_2 C 0.79119(12) 0.18646(14) 0.5470(2)
C34_2 C 0.76639(13) 0.16360(15) 0.7327(2)
C35_2 C 0.79411(16) 0.1628(2) 0.8308(2)
H17_2 H 0.8280 0.1800 0.8664
C36_2 C 0.92138(14) 0.30442(17) 0.8163(2)
H18_2 H 0.9055 0.2924 0.8483
C37_2 C 0.90213(12) 0.28100(16) 0.7264(2)
C38_2 C 0.92534(15) 0.3010(2) 0.6797(3)
H19_2 H 0.9123 0.2868 0.6181
C39_2 C 0.96834(16) 0.3425(2) 0.7236(3)
H20_2 H 0.9840 0.3551 0.6914
C40_2 C 0.85499(12) 0.23851(15) 0.6782(2)
C41_2 C 0.69704(13) 0.07968(16) 0.8749(2)
C42_2 C 0.72114(13) 0.11134(16) 0.8260(2)
C43_2 C 0.69318(15) 0.1151(2) 0.7289(3)
H21_2 H 0.6587 0.0997 0.6934
C44_2 C 0.77189(15) 0.1364(2) 0.8768(2)
H22_2 H 0.7914 0.1355 0.9431
C45_2 C 0.71500(16) 0.1414(3) 0.6816(3)
H23_2 H 0.6949 0.1439 0.6154
C46_2 C 0.96355(13) 0.34522(16) 0.8594(2)
H24_2 H 0.9760 0.3599 0.9205
C47_2 C 0.98793(10) 0.36504(14) 0.8139(2)
C48_2 C 0.79020(13) 0.18649(16) 0.6809(2)
H26 H 0.821297 0.031127 0.104384
H27 H 0.58814 0.0120995 0.171929
H28 H 0.532635 0.0309044 0.0747433
Ni6_3 Ni 0.723086(18) 1.0000 0.04689(3)
O1_2 O 0.64963(7) 0.93187(10) 0.12656(14)
O3_2 O 0.72715(9) 0.93095(13) 0.13918(16)
O4_3 O 0.56228(11) 1.0000 0.1045(2)
O6_3 O 0.80810(17) 1.0000 0.1311(3)
O9_2 O 0.72728(9) 0.93179(12) 0.96207(15)
N1_2 N 0.83523(10) 0.77830(12) 0.58743(17)
N2_2 N 0.83551(10) 0.77920(13) 0.72949(17)
N3_2 N 0.76692(10) 0.83151(13) 0.59047(18)
C1_2 C 0.69733(12) 0.91949(14) 0.1680(2)
C2_2 C 0.72153(11) 0.88826(15) 0.26482(19)
C3_2 C 0.76934(13) 0.85413(18) 0.3077(2)
H1_2 H 0.7864 0.8492 0.2758
C4_2 C 0.79121(13) 0.82761(17) 0.3983(2)
H2_2 H 0.8218 0.8033 0.4252
C5_2 C 0.76733(12) 0.83762(15) 0.4476(2)
C6_2 C 0.71975(14) 0.86988(18) 0.4033(2)
H3_2 H 0.7027 0.8750 0.4353
C7_2 C 0.69688(12) 0.89456(17) 0.3132(2)
H4_2 H 0.6646 0.9156 0.2848
C8_2 C 0.79119(12) 0.81354(14) 0.5470(2)
C10_2 C 0.76639(13) 0.83640(15) 0.7327(2)
C11_2 C 0.79411(16) 0.8372(2) 0.8308(2)
H5_2 H 0.8280 0.8200 0.8664
C12_2 C 0.92138(14) 0.69558(17) 0.8163(2)
H6_2 H 0.9055 0.7076 0.8483
C13_2 C 0.90213(12) 0.71900(16) 0.7264(2)
C14_2 C 0.92534(15) 0.6990(2) 0.6797(3)
H7_2 H 0.9123 0.7132 0.6181
C15_2 C 0.96834(16) 0.6575(2) 0.7236(3)
H8_2 H 0.9840 0.6449 0.6914
C16_2 C 0.85499(12) 0.76149(15) 0.6782(2)
C17_2 C 0.69704(13) 0.92032(16) 0.8749(2)
C18_2 C 0.72114(13) 0.88866(16) 0.8260(2)
C19_2 C 0.69318(15) 0.8849(2) 0.7289(3)
H9_2 H 0.6587 0.9003 0.6934
C20_2 C 0.77189(15) 0.8636(2) 0.8768(2)
H10_2 H 0.7914 0.8645 0.9431
C21_2 C 0.71500(16) 0.8586(3) 0.6816(3)
H11_2 H 0.6949 0.8561 0.6154
C22_2 C 0.96355(13) 0.65478(16) 0.8594(2)
H12_2 H 0.9760 0.6401 0.9205
C23_2 C 0.98793(10) 0.63496(14) 0.8139(2)
C24_2 C 0.79020(13) 0.81351(16) 0.6809(2)
H25 H 0.821239 0.957073 0.130063
H30_2 H 0.573727 0.032126 0.653628
H29_2 H 0.560771 0.957454 0.652504
H25_2 H 0.821239 0.0429267 0.130063
H26_2 H 0.821297 0.968873 0.104384
H27_2 H 0.58814 0.9879 0.171929
H28_2 H 0.532635 0.969096 0.0747433
Ni9_3 Ni 0.398690(17) 0.0000 0.17436(3)
Ni5_3 Ni 0.399653(15) 0.0000 0.97085(3)
O10_2 O 0.85727(7) 0.5000 0.03099(13)
Ni8 Ni 0.898690(17) 0.5000 0.17436(3)
O14_2 O 0.95263(7) 0.56862(9) 0.05869(13)
O15_2 O 0.95263(7) 0.43138(9) 0.05869(13)
O22 O 0.77272(9) 0.43179(12) 0.03793(15)
O23 O 0.77272(9) 0.56821(12) 0.03793(15)
Ni1_2 Ni 0.899653(15) 0.5000 0.97085(3)
Ni2 Ni 0.776914(18) 0.5000 0.95311(3)
O1_3 O 0.85037(7) 0.43187(10) 0.87344(14)
O2_4 O 0.44151(14) 0.0000 0.3247(2)
O3_3 O 0.77285(9) 0.43095(13) 0.86082(16)
O4_4 O 0.93772(11) 0.5000 0.8955(2)
O5_2 O 0.45263(7) 0.06862(9) 0.05869(13)
O6_4 O 0.69190(17) 0.5000 0.8689(3)
O7_3 O 0.44942(9) 0.07028(13) 0.18803(16)
O8_2 O 0.85114(8) 0.43214(13) 0.17792(17)
N1_3 N 0.66477(10) 0.27830(12) 0.41257(17)
N2_3 N 0.66449(10) 0.27920(13) 0.27051(17)
N3_3 N 0.73308(10) 0.33151(13) 0.40953(18)
C1_3 C 0.80267(12) 0.41949(14) 0.8320(2)
C2_3 C 0.77847(11) 0.38826(15) 0.73518(19)
C3_3 C 0.73066(13) 0.35413(18) 0.6923(2)
H1_3 H 0.7136 0.3492 0.7242
C4_3 C 0.70879(13) 0.32761(17) 0.6017(2)
H2_3 H 0.6782 0.3033 0.5748
C5_3 C 0.73267(12) 0.33762(15) 0.5524(2)
C6_3 C 0.78025(14) 0.36988(18) 0.5967(2)
H3_3 H 0.7973 0.3750 0.5647
C7_3 C 0.80312(12) 0.39456(17) 0.6868(2)
H4_3 H 0.8354 0.4156 0.7152
C8_3 C 0.70881(12) 0.31354(14) 0.4530(2)
C9_3 C 0.46749(10) 0.08719(14) 0.1398(2)
C10_3 C 0.73361(13) 0.33640(15) 0.2673(2)
C11_3 C 0.70589(16) 0.3372(2) 0.1692(2)
H5_3 H 0.6720 0.3200 0.1336
C12_3 C 0.57862(14) 0.19558(17) 0.1837(2)
H6_3 H 0.5945 0.2076 0.1517
C13_3 C 0.59787(12) 0.21900(16) 0.2736(2)
C14_3 C 0.57466(15) 0.1990(2) 0.3203(3)
H7_3 H 0.5877 0.2132 0.3819
C15_3 C 0.53166(16) 0.1575(2) 0.2764(3)
H8_3 H 0.5160 0.1449 0.3086
C16_3 C 0.64501(12) 0.26149(15) 0.3218(2)
C17_3 C 0.80296(13) 0.42032(16) 0.1251(2)
C18_3 C 0.77886(13) 0.38866(16) 0.1740(2)
C19_3 C 0.80682(15) 0.3849(2) 0.2711(3)
H9_3 H 0.8413 0.4003 0.3066
C20_3 C 0.72811(15) 0.3636(2) 0.1232(2)
H10_3 H 0.7086 0.3645 0.0569
C21_3 C 0.78500(16) 0.3586(3) 0.3184(3)
H11_3 H 0.8051 0.3561 0.3846
C22_3 C 0.53645(13) 0.15478(16) 0.1406(2)
H12_3 H 0.5240 0.1401 0.0795
C23_3 C 0.51207(10) 0.13496(14) 0.1861(2)
C24_3 C 0.70980(13) 0.31351(16) 0.3191(2)
Ni9_4 Ni 0.398690(17) 1.0000 0.17436(3)
O11_3 O 0.85037(7) 0.56813(10) 0.87344(14)
O12_3 O 0.77285(9) 0.56905(13) 0.86082(16)
O13_2 O 0.45263(7) 0.93138(9) 0.05869(13)
O16_3 O 0.44942(9) 0.92972(13) 0.18803(16)
O18_2 O 0.85114(8) 0.56786(13) 0.17792(17)
O20_2 O 0.35114(8) 0.06786(13) 0.17792(17)
O24_3 O 0.35727(7) 0.0000 0.03099(13)
N4_3 N 0.66477(10) 0.72170(12) 0.41257(17)
N5_3 N 0.66449(10) 0.72080(13) 0.27051(17)
N6_3 N 0.73308(10) 0.66849(13) 0.40953(18)
C25_3 C 0.80267(12) 0.58051(14) 0.8320(2)
C26_3 C 0.77847(11) 0.61174(15) 0.73518(19)
C27_3 C 0.73066(13) 0.64587(18) 0.6923(2)
H13_3 H 0.7136 0.6508 0.7242
C28_3 C 0.70879(13) 0.67239(17) 0.6017(2)
H14_3 H 0.6782 0.6967 0.5748
C29_3 C 0.73267(12) 0.66238(15) 0.5524(2)
C30_3 C 0.78025(14) 0.63012(18) 0.5967(2)
H15_3 H 0.7973 0.6250 0.5647
C31_3 C 0.80312(12) 0.60544(17) 0.6868(2)
H16_3 H 0.8354 0.5844 0.7152
C32_3 C 0.70881(12) 0.68646(14) 0.4530(2)
C33_3 C 0.46749(10) 0.91281(14) 0.1398(2)
C34_3 C 0.73361(13) 0.66360(15) 0.2673(2)
C35_3 C 0.70589(16) 0.6628(2) 0.1692(2)
H17_3 H 0.6720 0.6800 0.1336
C36_3 C 0.57862(14) 0.80442(17) 0.1837(2)
H18_3 H 0.5945 0.7924 0.1517
C37_3 C 0.59787(12) 0.78100(16) 0.2736(2)
C38_3 C 0.57466(15) 0.8010(2) 0.3203(3)
H19_3 H 0.5877 0.7868 0.3819
C39_3 C 0.53166(16) 0.8425(2) 0.2764(3)
H20_3 H 0.5160 0.8551 0.3086
C40_3 C 0.64501(12) 0.73851(15) 0.3218(2)
C41_3 C 0.80296(13) 0.57968(16) 0.1251(2)
C42_3 C 0.77886(13) 0.61134(16) 0.1740(2)
C43_3 C 0.80682(15) 0.6151(2) 0.2711(3)
H21_3 H 0.8413 0.5997 0.3066
C44_3 C 0.72811(15) 0.6364(2) 0.1232(2)
H22_3 H 0.7086 0.6355 0.0569
C45_3 C 0.78500(16) 0.6414(3) 0.3184(3)
H23_3 H 0.8051 0.6439 0.3846
C46_3 C 0.53645(13) 0.84522(16) 0.1406(2)
H24_3 H 0.5240 0.8599 0.0795
C47_3 C 0.51207(10) 0.86504(14) 0.1861(2)
C48_3 C 0.70980(13) 0.68649(16) 0.3191(2)
H29_3 H 0.439229 0.042546 0.347496
Ni5_4 Ni 0.399653(15) 1.0000 0.97085(3)
O2_5 O 0.44151(14) 1.0000 0.3247(2)
O19_2 O 0.35114(8) 0.93214(13) 0.17792(17)
O24_4 O 0.35727(7) 1.0000 0.03099(13)
H30_3 H 0.426273 0.967874 0.346372
O23_2 O 0.27272(9) 0.06821(12) 0.03793(15)
Ni2_2 Ni 0.276914(18) 0.0000 0.95311(3)
O4_5 O 0.43772(11) 0.0000 0.8955(2)
O6_5 O 0.19190(17) 0.0000 0.8689(3)
O11_4 O 0.35037(7) 0.06813(10) 0.87344(14)
O12_4 O 0.27285(9) 0.06905(13) 0.86082(16)
N4_4 N 0.16477(10) 0.22170(12) 0.41257(17)
N5_4 N 0.16449(10) 0.22080(13) 0.27051(17)
N6_4 N 0.23308(10) 0.16849(13) 0.40953(18)
C25_4 C 0.30267(12) 0.08051(14) 0.8320(2)
C26_4 C 0.27847(11) 0.11174(15) 0.73518(19)
C27_4 C 0.23066(13) 0.14587(18) 0.6923(2)
H13_4 H 0.2136 0.1508 0.7242
C28_4 C 0.20879(13) 0.17239(17) 0.6017(2)
H14_4 H 0.1782 0.1967 0.5748
C29_4 C 0.23267(12) 0.16238(15) 0.5524(2)
C30_4 C 0.28025(14) 0.13012(18) 0.5967(2)
H15_4 H 0.2973 0.1250 0.5647
C31_4 C 0.30312(12) 0.10544(17) 0.6868(2)
H16_4 H 0.3354 0.0844 0.7152
C32_4 C 0.20881(12) 0.18646(14) 0.4530(2)
C34_4 C 0.23361(13) 0.16360(15) 0.2673(2)
C35_4 C 0.20589(16) 0.1628(2) 0.1692(2)
H17_4 H 0.1720 0.1800 0.1336
C36_4 C 0.07862(14) 0.30442(17) 0.1837(2)
H18_4 H 0.0945 0.2924 0.1517
C37_4 C 0.09787(12) 0.28100(16) 0.2736(2)
C38_4 C 0.07466(15) 0.3010(2) 0.3203(3)
H19_4 H 0.0877 0.2868 0.3819
C39_4 C 0.03166(16) 0.3425(2) 0.2764(3)
H20_4 H 0.0160 0.3551 0.3086
C40_4 C 0.14501(12) 0.23851(15) 0.3218(2)
C41_4 C 0.30296(13) 0.07968(16) 0.1251(2)
C42_4 C 0.27886(13) 0.11134(16) 0.1740(2)
C43_4 C 0.30682(15) 0.1151(2) 0.2711(3)
H21_4 H 0.3413 0.0997 0.3066
C44_4 C 0.22811(15) 0.1364(2) 0.1232(2)
H22_4 H 0.2086 0.1355 0.0569
C45_4 C 0.28500(16) 0.1414(3) 0.3184(3)
H23_4 H 0.3051 0.1439 0.3846
C46_4 C 0.03645(13) 0.34522(16) 0.1406(2)
H24_4 H 0.0240 0.3599 0.0795
C47_4 C 0.01207(10) 0.36504(14) 0.1861(2)
C48_4 C 0.20980(13) 0.18649(16) 0.3191(2)
H26_3 H 0.178703 0.031127 0.895616
H27_3 H 0.41186 0.0120995 0.828071
H28_3 H 0.467365 0.0309044 0.925257
O22_2 O 0.27272(9) 0.93179(12) 0.03793(15)
Ni2_3 Ni 0.276914(18) 1.0000 0.95311(3)
O1_4 O 0.35037(7) 0.93187(10) 0.87344(14)
O3_4 O 0.27285(9) 0.93095(13) 0.86082(16)
O4_6 O 0.43772(11) 1.0000 0.8955(2)
O6_6 O 0.19190(17) 1.0000 0.8689(3)
N1_4 N 0.16477(10) 0.77830(12) 0.41257(17)
N2_4 N 0.16449(10) 0.77920(13) 0.27051(17)
N3_4 N 0.23308(10) 0.83151(13) 0.40953(18)
C1_4 C 0.30267(12) 0.91949(14) 0.8320(2)
C2_4 C 0.27847(11) 0.88826(15) 0.73518(19)
C3_4 C 0.23066(13) 0.85413(18) 0.6923(2)
H1_4 H 0.2136 0.8492 0.7242
C4_4 C 0.20879(13) 0.82761(17) 0.6017(2)
H2_4 H 0.1782 0.8033 0.5748
C5_4 C 0.23267(12) 0.83762(15) 0.5524(2)
C6_4 C 0.28025(14) 0.86988(18) 0.5967(2)
H3_4 H 0.2973 0.8750 0.5647
C7_4 C 0.30312(12) 0.89456(17) 0.6868(2)
H4_4 H 0.3354 0.9156 0.7152
C8_4 C 0.20881(12) 0.81354(14) 0.4530(2)
C10_4 C 0.23361(13) 0.83640(15) 0.2673(2)
C11_4 C 0.20589(16) 0.8372(2) 0.1692(2)
H5_4 H 0.1720 0.8200 0.1336
C12_4 C 0.07862(14) 0.69558(17) 0.1837(2)
H6_4 H 0.0945 0.7076 0.1517
C13_4 C 0.09787(12) 0.71900(16) 0.2736(2)
C14_4 C 0.07466(15) 0.6990(2) 0.3203(3)
H7_4 H 0.0877 0.7132 0.3819
C15_4 C 0.03166(16) 0.6575(2) 0.2764(3)
H8_4 H 0.0160 0.6449 0.3086
C16_4 C 0.14501(12) 0.76149(15) 0.3218(2)
C17_4 C 0.30296(13) 0.92032(16) 0.1251(2)
C18_4 C 0.27886(13) 0.88866(16) 0.1740(2)
C19_4 C 0.30682(15) 0.8849(2) 0.2711(3)
H9_4 H 0.3413 0.9003 0.3066
C20_4 C 0.22811(15) 0.8636(2) 0.1232(2)
H10_4 H 0.2086 0.8645 0.0569
C21_4 C 0.28500(16) 0.8586(3) 0.3184(3)
H11_4 H 0.3051 0.8561 0.3846
C22_4 C 0.03645(13) 0.65478(16) 0.1406(2)
H12_4 H 0.0240 0.6401 0.0795
C23_4 C 0.01207(10) 0.63496(14) 0.1861(2)
C24_4 C 0.20980(13) 0.81351(16) 0.3191(2)
H25_3 H 0.178761 0.957073 0.869937
O16_4 O 0.94942(9) 0.42972(13) 0.18803(16)
C33_4 C 0.96749(10) 0.41281(14) 0.1398(2)
O2_6 O 0.94151(14) 0.5000 0.3247(2)
O7_4 O 0.94942(9) 0.57028(13) 0.18803(16)
C9_4 C 0.96749(10) 0.58719(14) 0.1398(2)
H30_4 H 0.426273 0.032126 0.346372
H29_4 H 0.439229 0.957454 0.347496
H25_4 H 0.178761 0.0429267 0.869937
H26_4 H 0.178703 0.968873 0.895616
H27_4 H 0.41186 0.9879 0.828071
H28_4 H 0.467365 0.969096 0.925257
loop_
_geom_bond_atom_site_label_1
_geom_bond_atom_site_label_2
_geom_bond_site_symmetry_1
_geom_bond_site_symmetry_2
Ni1 O1 1_555 1_555
Ni6 O3 1_555 1_555
Ni9 O2 1_555 1_555
O1 C1 1_555 1_555
O3 C1 1_555 1_555
O4 Ni1 1_555 1_555
O5 C9 1_555 1_555
O6 Ni6 1_555 1_555
O7 Ni9 1_555 1_555
O8 C17 1_555 1_555
O9 C17 1_555 1_555
N1 C8 1_555 1_555
N2 C16 1_555 1_555
N3 C8 1_555 1_555
C1 C2 1_555 1_555
C2 C3 1_555 1_555
C3 H1 1_555 1_555
C4 C3 1_555 1_555
H2 C4 1_555 1_555
C5 C4 1_555 1_555
C6 C5 1_555 1_555
H3 C6 1_555 1_555
C7 C2 1_555 1_555
H4 C7 1_555 1_555
C8 C5 1_555 1_555
C9 O7 1_555 1_555
C10 C11 1_555 1_555
C11 H5 1_555 1_555
C12 H6 1_555 1_555
C13 C12 1_555 1_555
C14 C13 1_555 1_555
H7 C14 1_555 1_555
C15 C14 1_555 1_555
H8 C15 1_555 1_555
C16 N1 1_555 1_555
C17 C18 1_555 1_555
C18 C19 1_555 1_555
C19 H9 1_555 1_555
C20 C11 1_555 1_555
H10 C20 1_555 1_555
C21 C10 1_555 1_555
H11 C21 1_555 1_555
C22 C12 1_555 1_555
H12 C22 1_555 1_555
C23 C9 1_555 1_555
C24 N2 1_555 1_555
Ni7 O8 1_555 1_555
Ni9_2 O16 1_555 1_555
O11 Ni1 1_555 1_555
O12 Ni6 1_555 1_555
O13 C33 1_555 1_555
O16 C33 1_555 1_555
O18 Ni7 1_555 1_555
O20 Ni9 1_555 1_555
O24 Ni9 1_555 1_555
N4 C32 1_555 1_555
N5 C40 1_555 1_555
N6 C32 1_555 1_555
C25 O11 1_555 1_555
C26 C25 1_555 1_555
C27 C26 1_555 1_555
H13 C27 1_555 1_555
C28 C27 1_555 1_555
H14 C28 1_555 1_555
C29 C28 1_555 1_555
C30 C29 1_555 1_555
H15 C30 1_555 1_555
C31 C26 1_555 1_555
H16 C31 1_555 1_555
C32 C29 1_555 1_555
C33 C47 1_555 1_555
C34 C35 1_555 1_555
C35 H17 1_555 1_555
C36 H18 1_555 1_555
C37 C36 1_555 1_555
C38 C37 1_555 1_555
H19 C38 1_555 1_555
C39 C38 1_555 1_555
H20 C39 1_555 1_555
C40 N4 1_555 1_555
C41 O18 1_555 1_555
C42 C41 1_555 1_555
C43 C42 1_555 1_555
H21 C43 1_555 1_555
C44 C35 1_555 1_555
H22 C44 1_555 1_555
C45 C34 1_555 1_555
H23 C45 1_555 1_555
C46 C36 1_555 1_555
H24 C46 1_555 1_555
C47 C39 1_555 1_555
C48 N5 1_555 1_555
N3 C24 1_555 1_555
C6 C7 1_555 1_555
C10 C24 1_555 1_555
C13 C16 1_555 1_555
C15 C23 1_555 1_555
C18 C20 1_555 1_555
C19 C21 1_555 1_555
C22 C23 1_555 1_555
O12 C25 1_555 1_555
O21 C41 1_555 1_555
N6 C48 1_555 1_555
C30 C31 1_555 1_555
C34 C48 1_555 1_555
C37 C40 1_555 1_555
C42 C44 1_555 1_555
C43 C45 1_555 1_555
C46 C47 1_555 1_555
O2 H29 1_555 1_555
Ni7 O10 1_555 1_555
Ni9_2 O2_2 1_555 1_555
O19 Ni9_2 1_555 1_555
O24_2 Ni9_2 1_555 1_555
O2_2 H30 1_555 1_555
Ni7 O16_2 1_555 1_555
O15 C33_2 1_555 1_555
O16_2 C33_2 1_555 1_555
Ni7 O2_3 1_555 1_555
O14 C9_2 1_555 1_555
O7_2 Ni7 1_555 1_555
C9_2 O7_2 1_555 1_555
O4_2 Ni5 1_555 1_555
O6_2 Ni6_2 1_555 1_555
O11_2 Ni5 1_555 1_555
O12_2 Ni6_2 1_555 1_555
N4_2 C32_2 1_555 1_555
N5_2 C40_2 1_555 1_555
N6_2 C32_2 1_555 1_555
C25_2 O11_2 1_555 1_555
C26_2 C25_2 1_555 1_555
C27_2 C26_2 1_555 1_555
H13_2 C27_2 1_555 1_555
C28_2 C27_2 1_555 1_555
H14_2 C28_2 1_555 1_555
C29_2 C28_2 1_555 1_555
C30_2 C29_2 1_555 1_555
H15_2 C30_2 1_555 1_555
C31_2 C26_2 1_555 1_555
H16_2 C31_2 1_555 1_555
C32_2 C29_2 1_555 1_555
C34_2 C35_2 1_555 1_555
C35_2 H17_2 1_555 1_555
C36_2 H18_2 1_555 1_555
C37_2 C36_2 1_555 1_555
C38_2 C37_2 1_555 1_555
H19_2 C38_2 1_555 1_555
C39_2 C38_2 1_555 1_555
H20_2 C39_2 1_555 1_555
C40_2 N4_2 1_555 1_555
C41_2 O20 1_555 1_555
C42_2 C41_2 1_555 1_555
C43_2 C42_2 1_555 1_555
H21_2 C43_2 1_555 1_555
C44_2 C35_2 1_555 1_555
H22_2 C44_2 1_555 1_555
C45_2 C34_2 1_555 1_555
H23_2 C45_2 1_555 1_555
C46_2 C36_2 1_555 1_555
H24_2 C46_2 1_555 1_555
C47_2 C39_2 1_555 1_555
C48_2 N5_2 1_555 1_555
O12_2 C25_2 1_555 1_555
O21_2 C41_2 1_555 1_555
N6_2 C48_2 1_555 1_555
C30_2 C31_2 1_555 1_555
C34_2 C48_2 1_555 1_555
C37_2 C40_2 1_555 1_555
C42_2 C44_2 1_555 1_555
C43_2 C45_2 1_555 1_555
C46_2 C47_2 1_555 1_555
O6_2 H26 1_555 1_555
O4_2 H27 1_555 1_555
O4_2 H28 1_555 1_555
Ni5_2 O1_2 1_555 1_555
Ni6_3 O3_2 1_555 1_555
O1_2 C1_2 1_555 1_555
O3_2 C1_2 1_555 1_555
O4_3 Ni5_2 1_555 1_555
O6_3 Ni6_3 1_555 1_555
O19 C17_2 1_555 1_555
O9_2 C17_2 1_555 1_555
N1_2 C8_2 1_555 1_555
N2_2 C16_2 1_555 1_555
N3_2 C8_2 1_555 1_555
C1_2 C2_2 1_555 1_555
C2_2 C3_2 1_555 1_555
C3_2 H1_2 1_555 1_555
C4_2 C3_2 1_555 1_555
H2_2 C4_2 1_555 1_555
C5_2 C4_2 1_555 1_555
C6_2 C5_2 1_555 1_555
H3_2 C6_2 1_555 1_555
C7_2 C2_2 1_555 1_555
H4_2 C7_2 1_555 1_555
C8_2 C5_2 1_555 1_555
C10_2 C11_2 1_555 1_555
C11_2 H5_2 1_555 1_555
C12_2 H6_2 1_555 1_555
C13_2 C12_2 1_555 1_555
C14_2 C13_2 1_555 1_555
H7_2 C14_2 1_555 1_555
C15_2 C14_2 1_555 1_555
H8_2 C15_2 1_555 1_555
C16_2 N1_2 1_555 1_555
C17_2 C18_2 1_555 1_555
C18_2 C19_2 1_555 1_555
C19_2 H9_2 1_555 1_555
C20_2 C11_2 1_555 1_555
H10_2 C20_2 1_555 1_555
C21_2 C10_2 1_555 1_555
H11_2 C21_2 1_555 1_555
C22_2 C12_2 1_555 1_555
H12_2 C22_2 1_555 1_555
C24_2 N2_2 1_555 1_555
N3_2 C24_2 1_555 1_555
C6_2 C7_2 1_555 1_555
C10_2 C24_2 1_555 1_555
C13_2 C16_2 1_555 1_555
C15_2 C23_2 1_555 1_555
C18_2 C20_2 1_555 1_555
C19_2 C21_2 1_555 1_555
C22_2 C23_2 1_555 1_555
O6_3 H25 1_555 1_555
O2 H30_2 1_555 1_555
O2_2 H29_2 1_555 1_555
O6_2 H25_2 1_555 1_555
O6_3 H26_2 1_555 1_555
O4_3 H27_2 1_555 1_555
O4_3 H28_2 1_555 1_555
Ni8 O10_2 1_555 1_555
Ni1_2 O1_3 1_555 1_555
Ni2 O3_3 1_555 1_555
Ni9_3 O2_4 1_555 1_555
O1_3 C1_3 1_555 1_555
O3_3 C1_3 1_555 1_555
O4_4 Ni1_2 1_555 1_555
O5_2 C9_3 1_555 1_555
O6_4 Ni2 1_555 1_555
O7_3 Ni9_3 1_555 1_555
O8_2 C17_3 1_555 1_555
O22 C17_3 1_555 1_555
N1_3 C8_3 1_555 1_555
N2_3 C16_3 1_555 1_555
N3_3 C8_3 1_555 1_555
C1_3 C2_3 1_555 1_555
C2_3 C3_3 1_555 1_555
C3_3 H1_3 1_555 1_555
C4_3 C3_3 1_555 1_555
H2_3 C4_3 1_555 1_555
C5_3 C4_3 1_555 1_555
C6_3 C5_3 1_555 1_555
H3_3 C6_3 1_555 1_555
C7_3 C2_3 1_555 1_555
H4_3 C7_3 1_555 1_555
C8_3 C5_3 1_555 1_555
C9_3 O7_3 1_555 1_555
C10_3 C11_3 1_555 1_555
C11_3 H5_3 1_555 1_555
C12_3 H6_3 1_555 1_555
C13_3 C12_3 1_555 1_555
C14_3 C13_3 1_555 1_555
H7_3 C14_3 1_555 1_555
C15_3 C14_3 1_555 1_555
H8_3 C15_3 1_555 1_555
C16_3 N1_3 1_555 1_555
C17_3 C18_3 1_555 1_555
C18_3 C19_3 1_555 1_555
C19_3 H9_3 1_555 1_555
C20_3 C11_3 1_555 1_555
H10_3 C20_3 1_555 1_555
C21_3 C10_3 1_555 1_555
H11_3 C21_3 1_555 1_555
C22_3 C12_3 1_555 1_555
H12_3 C22_3 1_555 1_555
C23_3 C9_3 1_555 1_555
C24_3 N2_3 1_555 1_555
Ni8 O8_2 1_555 1_555
Ni9_4 O16_3 1_555 1_555
O11_3 Ni1_2 1_555 1_555
O12_3 Ni2 1_555 1_555
O13_2 C33_3 1_555 1_555
O16_3 C33_3 1_555 1_555
O18_2 Ni8 1_555 1_555
O20_2 Ni9_3 1_555 1_555
O24_3 Ni9_3 1_555 1_555
N4_3 C32_3 1_555 1_555
N5_3 C40_3 1_555 1_555
N6_3 C32_3 1_555 1_555
C25_3 O11_3 1_555 1_555
C26_3 C25_3 1_555 1_555
C27_3 C26_3 1_555 1_555
H13_3 C27_3 1_555 1_555
C28_3 C27_3 1_555 1_555
H14_3 C28_3 1_555 1_555
C29_3 C28_3 1_555 1_555
C30_3 C29_3 1_555 1_555
H15_3 C30_3 1_555 1_555
C31_3 C26_3 1_555 1_555
H16_3 C31_3 1_555 1_555
C32_3 C29_3 1_555 1_555
C33_3 C47_3 1_555 1_555
C34_3 C35_3 1_555 1_555
C35_3 H17_3 1_555 1_555
C36_3 H18_3 1_555 1_555
C37_3 C36_3 1_555 1_555
C38_3 C37_3 1_555 1_555
H19_3 C38_3 1_555 1_555
C39_3 C38_3 1_555 1_555
H20_3 C39_3 1_555 1_555
C40_3 N4_3 1_555 1_555
C41_3 O18_2 1_555 1_555
C42_3 C41_3 1_555 1_555
C43_3 C42_3 1_555 1_555
H21_3 C43_3 1_555 1_555
C44_3 C35_3 1_555 1_555
H22_3 C44_3 1_555 1_555
C45_3 C34_3 1_555 1_555
H23_3 C45_3 1_555 1_555
C46_3 C36_3 1_555 1_555
H24_3 C46_3 1_555 1_555
C47_3 C39_3 1_555 1_555
C48_3 N5_3 1_555 1_555
N3_3 C24_3 1_555 1_555
C6_3 C7_3 1_555 1_555
C10_3 C24_3 1_555 1_555
C13_3 C16_3 1_555 1_555
C15_3 C23_3 1_555 1_555
C18_3 C20_3 1_555 1_555
C19_3 C21_3 1_555 1_555
C22_3 C23_3 1_555 1_555
O12_3 C25_3 1_555 1_555
O23 C41_3 1_555 1_555
N6_3 C48_3 1_555 1_555
C30_3 C31_3 1_555 1_555
C34_3 C48_3 1_555 1_555
C37_3 C40_3 1_555 1_555
C42_3 C44_3 1_555 1_555
C43_3 C45_3 1_555 1_555
C46_3 C47_3 1_555 1_555
O2_4 H29_3 1_555 1_555
Ni9_4 O2_5 1_555 1_555
O19_2 Ni9_4 1_555 1_555
O24_4 Ni9_4 1_555 1_555
O2_5 H30_3 1_555 1_555
O4_5 Ni5_3 1_555 1_555
O6_5 Ni2_2 1_555 1_555
O11_4 Ni5_3 1_555 1_555
O12_4 Ni2_2 1_555 1_555
N4_4 C32_4 1_555 1_555
N5_4 C40_4 1_555 1_555
N6_4 C32_4 1_555 1_555
C25_4 O11_4 1_555 1_555
C26_4 C25_4 1_555 1_555
C27_4 C26_4 1_555 1_555
H13_4 C27_4 1_555 1_555
C28_4 C27_4 1_555 1_555
H14_4 C28_4 1_555 1_555
C29_4 C28_4 1_555 1_555
C30_4 C29_4 1_555 1_555
H15_4 C30_4 1_555 1_555
C31_4 C26_4 1_555 1_555
H16_4 C31_4 1_555 1_555
C32_4 C29_4 1_555 1_555
C34_4 C35_4 1_555 1_555
C35_4 H17_4 1_555 1_555
C36_4 H18_4 1_555 1_555
C37_4 C36_4 1_555 1_555
C38_4 C37_4 1_555 1_555
H19_4 C38_4 1_555 1_555
C39_4 C38_4 1_555 1_555
H20_4 C39_4 1_555 1_555
C40_4 N4_4 1_555 1_555
C41_4 O20_2 1_555 1_555
C42_4 C41_4 1_555 1_555
C43_4 C42_4 1_555 1_555
H21_4 C43_4 1_555 1_555
C44_4 C35_4 1_555 1_555
H22_4 C44_4 1_555 1_555
C45_4 C34_4 1_555 1_555
H23_4 C45_4 1_555 1_555
C46_4 C36_4 1_555 1_555
H24_4 C46_4 1_555 1_555
C47_4 C39_4 1_555 1_555
C48_4 N5_4 1_555 1_555
O12_4 C25_4 1_555 1_555
O23_2 C41_4 1_555 1_555
N6_4 C48_4 1_555 1_555
C30_4 C31_4 1_555 1_555
C34_4 C48_4 1_555 1_555
C37_4 C40_4 1_555 1_555
C42_4 C44_4 1_555 1_555
C43_4 C45_4 1_555 1_555
C46_4 C47_4 1_555 1_555
O6_5 H26_3 1_555 1_555
O4_5 H27_3 1_555 1_555
O4_5 H28_3 1_555 1_555
Ni5_4 O1_4 1_555 1_555
Ni2_3 O3_4 1_555 1_555
O1_4 C1_4 1_555 1_555
O3_4 C1_4 1_555 1_555
O4_6 Ni5_4 1_555 1_555
O6_6 Ni2_3 1_555 1_555
O19_2 C17_4 1_555 1_555
O22_2 C17_4 1_555 1_555
N1_4 C8_4 1_555 1_555
N2_4 C16_4 1_555 1_555
N3_4 C8_4 1_555 1_555
C1_4 C2_4 1_555 1_555
C2_4 C3_4 1_555 1_555
C3_4 H1_4 1_555 1_555
C4_4 C3_4 1_555 1_555
H2_4 C4_4 1_555 1_555
C5_4 C4_4 1_555 1_555
C6_4 C5_4 1_555 1_555
H3_4 C6_4 1_555 1_555
C7_4 C2_4 1_555 1_555
H4_4 C7_4 1_555 1_555
C8_4 C5_4 1_555 1_555
C10_4 C11_4 1_555 1_555
C11_4 H5_4 1_555 1_555
C12_4 H6_4 1_555 1_555
C13_4 C12_4 1_555 1_555
C14_4 C13_4 1_555 1_555
H7_4 C14_4 1_555 1_555
C15_4 C14_4 1_555 1_555
H8_4 C15_4 1_555 1_555
C16_4 N1_4 1_555 1_555
C17_4 C18_4 1_555 1_555
C18_4 C19_4 1_555 1_555
C19_4 H9_4 1_555 1_555
C20_4 C11_4 1_555 1_555
H10_4 C20_4 1_555 1_555
C21_4 C10_4 1_555 1_555
H11_4 C21_4 1_555 1_555
C22_4 C12_4 1_555 1_555
H12_4 C22_4 1_555 1_555
C24_4 N2_4 1_555 1_555
N3_4 C24_4 1_555 1_555
C6_4 C7_4 1_555 1_555
C10_4 C24_4 1_555 1_555
C13_4 C16_4 1_555 1_555
C15_4 C23_4 1_555 1_555
C18_4 C20_4 1_555 1_555
C19_4 C21_4 1_555 1_555
C22_4 C23_4 1_555 1_555
O6_6 H25_3 1_555 1_555
Ni8 O16_4 1_555 1_555
O15_2 C33_4 1_555 1_555
O16_4 C33_4 1_555 1_555
Ni8 O2_6 1_555 1_555
O14_2 C9_4 1_555 1_555
O7_4 Ni8 1_555 1_555
C9_4 O7_4 1_555 1_555
O2_4 H30_4 1_555 1_555
O2_5 H29_4 1_555 1_555
O6_5 H25_4 1_555 1_555
O6_6 H26_4 1_555 1_555
O4_6 H27_4 1_555 1_555
O4_6 H28_4 1_555 1_555

#END
