
###############################################################################
#
# This file contains modified crystal structure data generated from the
# MOF subset of the Cambridge Structural Database (CSD) v543 
# hosted by the Cambridge Crystallographic Data Centre (CCDC).
#
# This work is licensed under the Creative Commons
# Attribution-NonCommercial-ShareAlike 4.0 International License.
# To view a copy of this license, visit
# http://creativecommons.org/licenses/by-nc-sa/4.0/
# or send a letter to
# Creative Commons, PO Box 1866, Mountain View, CA 94042, USA.
#
# CIF created using the CSD Python API on 29 September 2022
# The structure has been converted into the P1 space group
# The structure has a 3D framework
# The original CSD entry UDISAE is in the hexagonal crystal system
# The framework has been calculated to contain at least 10.0% void space
# The void calculation uses a probe of radius 1.32A, grid spacing 0.4
# The framework is charged, counterions have been retained in the structure
# H atom positions have been added when not included in the experimental data
# Generated hydrogen atom positions removed from atoms on special positions
#
###############################################################################

data_UDISAE
_chemical_formula_moiety         '(C164 H126 N22 O30 Zn11 7+)n'
_symmetry_cell_setting           triclinic
_symmetry_space_group_name_H-M   'P 1'
_symmetry_Int_Tables_number      1
_space_group_name_Hall           'P 1'
loop_
_symmetry_equiv_pos_site_id
_symmetry_equiv_pos_as_xyz
1 x,y,z
_cell_length_a                   18.834(5)
_cell_length_b                   18.834(5)
_cell_length_c                   15.722(5)
_cell_angle_alpha                90
_cell_angle_beta                 90
_cell_angle_gamma                120
_cell_volume                     4829.74
loop_
_atom_site_label
_atom_site_type_symbol
_atom_site_fract_x
_atom_site_fract_y
_atom_site_fract_z
N4 N 0.5000 0.5000 0.3634(11)
C27 C 0.5000 0.5000 0.1851(12)
C28 C 0.5589(9) 0.5627(9) 0.3175(10)
H19 H 0.6008 0.6066 0.3467
C29 C 0.5000 0.5000 0.0857(15)
C30 C 0.4456(11) 0.4296(10) 0.0437(11)
H20 H 0.4094 0.3828 0.0739
C31 C 0.5599(10) 0.5646(9) 0.2308(10)
H21 H 0.6012 0.6097 0.2024
C32 C 0.4411(9) 0.4373(9) 0.3175(10)
H22 H 0.3992 0.3934 0.3467
C33 C 0.5544(11) 0.5704(10) 0.0437(11)
H23 H 0.5906 0.6172 0.0739
C34 C 0.4401(10) 0.4354(9) 0.2308(10)
H24 H 0.3988 0.3903 0.2024
Zn7 Zn 0.5000 0.5000 0.5000
Zn1 Zn 0.47955(14) 0.19681(13) 0.5000
O1 O 0.4083(8) 0.2555(8) 0.5000
O2 O 0.4181(8) 0.3773(8) 0.5000
O3 O 0.5715(9) 0.3272(8) 0.5000
O4 O 0.3620(10) 0.0930(9) 0.5000
O5 O 0.5847(8) 0.4499(8) 0.5000
N1 N 0.4844(8) 0.2002(8) 0.3644(9)
N2 N 0.5000 0.5000 0.6366(11)
C1 C 0.4241(14) 0.2047(17) 0.0441(13)
H1 H 0.3808 0.2038 0.0734
C2 C 0.5503(12) 0.2058(16) 0.0439(12)
H2 H 0.5932 0.2057 0.0730
C3 C 0.5000 0.5000 0.8149(12)
C4 C 0.4165(11) 0.1844(11) 0.3199(12)
H3 H 0.3684 0.1713 0.3488
C5 C 0.4411(9) 0.4373(9) 0.6825(10)
H4 H 0.3992 0.3934 0.6533
C6 C 0.4874(10) 0.2054(9) 0.1853(10)
C7 C 0.5514(10) 0.2172(11) 0.3200(11)
H5 H 0.5990 0.2299 0.3496
C8 C 0.5433(11) 0.3726(11) 0.5000
C9 C 0.4178(11) 0.1875(13) 0.2309(11)
H6 H 0.3706 0.1773 0.2018
C10 C 0.4880(11) 0.2060(10) 0.0889(11)
C11 C 0.5000 0.5000 0.9143(15)
C12 C 0.5538(10) 0.2171(11) 0.2319(10)
H7 H 0.6008 0.2249 0.2042
C13 C 0.5544(11) 0.5704(10) 0.9563(11)
H8 H 0.5906 0.6172 0.9261
C14 C 0.4401(10) 0.4354(9) 0.7692(10)
H9 H 0.3988 0.3903 0.7976
C15 C 0.4488(11) 0.3311(11) 0.5000
C24 C 0.5589(9) 0.5627(9) 0.6825(10)
H16 H 0.6008 0.6066 0.6533
C25 C 0.4456(11) 0.4296(10) 0.9563(11)
H17 H 0.4094 0.3828 0.9261
C26 C 0.5599(10) 0.5646(9) 0.7692(10)
H18 H 0.6012 0.6097 0.7976
Zn3 Zn 0.80319(13) 0.28274(19) 0.5000
O6 O 0.7445(8) 0.1528(11) 0.5000
O7 O 0.6227(8) 0.0408(11) 0.5000
O8 O 0.6728(8) 0.2443(12) 0.5000
O9 O 0.9070(9) 0.2690(13) 0.5000
O10 O 0.5501(8) 0.1348(11) 0.5000
N5 N 0.7998(8) 0.2842(11) 0.3644(9)
C35 C 0.7953(17) 0.2194(22) 0.0441(13)
H25 H 0.7962 0.1770 0.0734
C36 C 0.7942(16) 0.3445(20) 0.0439(12)
H26 H 0.7943 0.3875 0.0730
C37 C 0.8156(11) 0.2321(16) 0.3199(12)
H27 H 0.8287 0.1971 0.3488
C38 C 0.7946(9) 0.2820(13) 0.1853(10)
C39 C 0.7828(11) 0.3342(15) 0.3200(11)
H28 H 0.7701 0.3691 0.3496
C40 C 0.6274(11) 0.1707(16) 0.5000
C41 C 0.8125(13) 0.2303(17) 0.2309(11)
H29 H 0.8227 0.1933 0.2018
C42 C 0.7940(10) 0.2820(15) 0.0889(11)
C43 C 0.7829(11) 0.3367(15) 0.2319(10)
H30 H 0.7751 0.3759 0.2042
C44 C 0.6689(11) 0.1177(16) 0.5000
Zn6 Zn 0.71726(19) 0.52045(14) 0.5000
Zn8 Zn 0.5000 -0.0000 0.5000
O11 O 0.5819(8) 0.6227(8) 0.5000
O12 O 0.4153(8) 0.5501(8) 0.5000
O13 O 0.8652(11) 0.4153(8) 0.5000
N7 N 0.4844(8) 0.2002(8) 0.6356(9)
N8 N 0.7998(8) 0.2842(11) 0.6356(9)
C16 C 0.4241(14) 0.2047(17) 0.9559(13)
H10 H 0.3808 0.2038 0.9266
C17 C 0.5503(12) 0.2058(16) 0.9561(12)
H11 H 0.5932 0.2057 0.9270
C18 C 0.4165(11) 0.1844(11) 0.6801(12)
H12 H 0.3684 0.1713 0.6512
C19 C 0.4874(10) 0.2054(9) 0.8147(10)
C20 C 0.5514(10) 0.2172(11) 0.6800(11)
H13 H 0.5990 0.2299 0.6504
C21 C 0.4178(11) 0.1875(13) 0.7691(11)
H14 H 0.3706 0.1773 0.7982
C22 C 0.4880(11) 0.2060(10) 0.9111(11)
C23 C 0.5538(10) 0.2171(11) 0.7681(10)
H15 H 0.6008 0.2249 0.7958
C45 C 0.7953(17) 0.2194(22) 0.9559(13)
H31 H 0.7962 0.1770 0.9266
C46 C 0.7942(16) 0.3445(20) 0.9561(12)
H32 H 0.7943 0.3875 0.9270
C47 C 0.8156(11) 0.2321(16) 0.6801(12)
H33 H 0.8287 0.1971 0.6512
C48 C 0.7946(9) 0.2820(13) 0.8147(10)
C49 C 0.7828(11) 0.3342(15) 0.6800(11)
H34 H 0.7701 0.3691 0.6504
C50 C 0.8125(13) 0.2303(17) 0.7691(11)
H35 H 0.8227 0.1933 0.7982
C51 C 0.7940(10) 0.2820(15) 0.9111(11)
C52 C 0.7829(11) 0.3367(15) 0.7681(10)
H36 H 0.7751 0.3759 0.7958
Zn8_2 Zn 0.5000 1.0000 0.5000
N4_2 N -0.0000 0.5000 0.3634(11)
C27_2 C -0.0000 0.5000 0.1851(12)
C29_2 C -0.0000 0.5000 0.0857(15)
C30_2 C 0.0160(15) 0.4456(11) 0.0437(11)
H20_2 H 0.0266 0.4094 0.0739
C32_2 C 0.0038(13) 0.4411(9) 0.3175(10)
H22_2 H 0.0058 0.3992 0.3467
C34_2 C 0.0047(13) 0.4401(10) 0.2308(10)
H24_2 H 0.0085 0.3988 0.2024
Zn7_2 Zn -0.0000 0.5000 0.5000
Zn1_2 Zn 0.28274(19) 0.47955(14) 0.5000
O1_2 O 0.1528(11) 0.4083(8) 0.5000
O2_2 O 0.0408(11) 0.4181(8) 0.5000
O3_2 O 0.2443(12) 0.5715(9) 0.5000
O4_2 O 0.2690(13) 0.3620(10) 0.5000
O5_2 O 0.1348(11) 0.5847(8) 0.5000
N1_2 N 0.2842(11) 0.4844(8) 0.3644(9)
N2_2 N -0.0000 0.5000 0.6366(11)
C1_2 C 0.2194(22) 0.4241(14) 0.0441(13)
H1_2 H 0.1770 0.3808 0.0734
C2_2 C 0.3445(20) 0.5503(12) 0.0439(12)
H2_2 H 0.3875 0.5932 0.0730
C3_2 C -0.0000 0.5000 0.8149(12)
C4_2 C 0.2321(16) 0.4165(11) 0.3199(12)
H3_2 H 0.1971 0.3684 0.3488
C5_2 C 0.0038(13) 0.4411(9) 0.6825(10)
H4_2 H 0.0058 0.3992 0.6533
C6_2 C 0.2820(13) 0.4874(10) 0.1853(10)
C7_2 C 0.3342(15) 0.5514(10) 0.3200(11)
H5_2 H 0.3691 0.5990 0.3496
C8_2 C 0.1707(16) 0.5433(11) 0.5000
C9_2 C 0.2303(17) 0.4178(11) 0.2309(11)
H6_2 H 0.1933 0.3706 0.2018
C10_2 C 0.2820(15) 0.4880(11) 0.0889(11)
C11_2 C -0.0000 0.5000 0.9143(15)
C12_2 C 0.3367(15) 0.5538(10) 0.2319(10)
H7_2 H 0.3759 0.6008 0.2042
C14_2 C 0.0047(13) 0.4401(10) 0.7692(10)
H9_2 H 0.0085 0.3988 0.7976
C15_2 C 0.1177(16) 0.4488(11) 0.5000
C25_2 C 0.0160(15) 0.4456(11) 0.9563(11)
H17_2 H 0.0266 0.4094 0.9261
Zn3_2 Zn 0.52045(23) 0.80319(13) 0.5000
O6_2 O 0.5917(14) 0.7445(8) 0.5000
O8_2 O 0.4285(14) 0.6728(8) 0.5000
O9_2 O 0.6380(16) 0.9070(9) 0.5000
N5_2 N 0.5156(14) 0.7998(8) 0.3644(9)
C35_2 C 0.5759(28) 0.7953(17) 0.0441(13)
H25_2 H 0.6192 0.7962 0.0734
C36_2 C 0.4497(26) 0.7942(16) 0.0439(12)
H26_2 H 0.4068 0.7943 0.0730
C37_2 C 0.5835(19) 0.8156(11) 0.3199(12)
H27_2 H 0.6316 0.8287 0.3488
C38_2 C 0.5126(16) 0.7946(9) 0.1853(10)
C39_2 C 0.4486(19) 0.7828(11) 0.3200(11)
H28_2 H 0.4010 0.7701 0.3496
C40_2 C 0.4567(19) 0.6274(11) 0.5000
C41_2 C 0.5822(21) 0.8125(13) 0.2309(11)
H29_2 H 0.6294 0.8227 0.2018
C42_2 C 0.5120(18) 0.7940(10) 0.0889(11)
C43_2 C 0.4462(19) 0.7829(11) 0.2319(10)
H30_2 H 0.3992 0.7751 0.2042
C44_2 C 0.5512(19) 0.6689(11) 0.5000
Zn6_2 Zn 0.19681(24) 0.71726(19) 0.5000
O13_2 O 0.4499(14) 0.8652(11) 0.5000
N7_2 N 0.2842(11) 0.4844(8) 0.6356(9)
N8_2 N 0.5156(14) 0.7998(8) 0.6356(9)
C16_2 C 0.2194(22) 0.4241(14) 0.9559(13)
H10_2 H 0.1770 0.3808 0.9266
C17_2 C 0.3445(20) 0.5503(12) 0.9561(12)
H11_2 H 0.3875 0.5932 0.9270
C18_2 C 0.2321(16) 0.4165(11) 0.6801(12)
H12_2 H 0.1971 0.3684 0.6512
C19_2 C 0.2820(13) 0.4874(10) 0.8147(10)
C20_2 C 0.3342(15) 0.5514(10) 0.6800(11)
H13_2 H 0.3691 0.5990 0.6504
C21_2 C 0.2303(17) 0.4178(11) 0.7691(11)
H14_2 H 0.1933 0.3706 0.7982
C22_2 C 0.2820(15) 0.4880(11) 0.9111(11)
C23_2 C 0.3367(15) 0.5538(10) 0.7681(10)
H15_2 H 0.3759 0.6008 0.7958
C45_2 C 0.5759(28) 0.7953(17) 0.9559(13)
H31_2 H 0.6192 0.7962 0.9266
C46_2 C 0.4497(26) 0.7942(16) 0.9561(12)
H32_2 H 0.4068 0.7943 0.9270
C47_2 C 0.5835(19) 0.8156(11) 0.6801(12)
H33_2 H 0.6316 0.8287 0.6512
C48_2 C 0.5126(16) 0.7946(9) 0.8147(10)
C49_2 C 0.4486(19) 0.7828(11) 0.6800(11)
H34_2 H 0.4010 0.7701 0.6504
C50_2 C 0.5822(21) 0.8125(13) 0.7691(11)
H35_2 H 0.6294 0.8227 0.7982
C51_2 C 0.5120(18) 0.7940(10) 0.9111(11)
C52_2 C 0.4462(19) 0.7829(11) 0.7681(10)
H36_2 H 0.3992 0.7751 0.7958
N4_3 N 1.0000 0.5000 0.3634(11)
C27_3 C 1.0000 0.5000 0.1851(12)
C28_2 C 0.9962(13) 0.5589(9) 0.3175(10)
H19_2 H 0.9942 0.6008 0.3467
C29_3 C 1.0000 0.5000 0.0857(15)
C31_2 C 0.9953(13) 0.5599(10) 0.2308(10)
H21_2 H 0.9915 0.6012 0.2024
C33_2 C 0.9840(15) 0.5544(11) 0.0437(11)
H23_2 H 0.9734 0.5906 0.0739
Zn7_3 Zn 1.0000 0.5000 0.5000
N2_3 N 1.0000 0.5000 0.6366(11)
C3_3 C 1.0000 0.5000 0.8149(12)
C11_3 C 1.0000 0.5000 0.9143(15)
C13_2 C 0.9840(15) 0.5544(11) 0.9563(11)
H8_2 H 0.9734 0.5906 0.9261
C24_2 C 0.9962(13) 0.5589(9) 0.6825(10)
H16_2 H 0.9942 0.6008 0.6533
C26_2 C 0.9953(13) 0.5599(10) 0.7692(10)
H18_2 H 0.9915 0.6012 0.7976
O11_2 O 0.9592(11) 0.5819(8) 0.5000
N4_4 N 0.5000 -0.0000 0.3634(11)
C27_4 C 0.5000 -0.0000 0.1851(12)
C29_4 C 0.5000 -0.0000 0.0857(15)
C30_3 C 0.5704(10) 0.0160(15) 0.0437(11)
H20_3 H 0.6172 0.0266 0.0739
C32_3 C 0.5627(9) 0.0038(13) 0.3175(10)
H22_3 H 0.6066 0.0058 0.3467
C34_3 C 0.5646(9) 0.0047(13) 0.2308(10)
H24_3 H 0.6097 0.0085 0.2024
N2_4 N 0.5000 -0.0000 0.6366(11)
C3_4 C 0.5000 -0.0000 0.8149(12)
C5_3 C 0.5627(9) 0.0038(13) 0.6825(10)
H4_3 H 0.6066 0.0058 0.6533
C11_4 C 0.5000 -0.0000 0.9143(15)
C14_3 C 0.5646(9) 0.0047(13) 0.7692(10)
H9_3 H 0.6097 0.0085 0.7976
C25_3 C 0.5704(10) 0.0160(15) 0.9563(11)
H17_3 H 0.6172 0.0266 0.9261
O6_3 O 0.8472(11) 0.5917(14) 0.5000
O8_3 O 0.7557(12) 0.4285(14) 0.5000
O9_3 O 0.7310(13) 0.6380(16) 0.5000
N5_3 N 0.7158(11) 0.5156(14) 0.3644(9)
C35_3 C 0.7806(22) 0.5759(28) 0.0441(13)
H25_3 H 0.8230 0.6192 0.0734
C36_3 C 0.6555(20) 0.4497(26) 0.0439(12)
H26_3 H 0.6125 0.4068 0.0730
C37_3 C 0.7679(16) 0.5835(19) 0.3199(12)
H27_3 H 0.8029 0.6316 0.3488
C38_3 C 0.7180(13) 0.5126(16) 0.1853(10)
C39_3 C 0.6658(15) 0.4486(19) 0.3200(11)
H28_3 H 0.6309 0.4010 0.3496
C40_3 C 0.8293(16) 0.4567(19) 0.5000
C41_3 C 0.7697(17) 0.5822(21) 0.2309(11)
H29_3 H 0.8067 0.6294 0.2018
C42_3 C 0.7180(15) 0.5120(18) 0.0889(11)
C43_3 C 0.6633(15) 0.4462(19) 0.2319(10)
H30_3 H 0.6241 0.3992 0.2042
C44_3 C 0.8823(16) 0.5512(19) 0.5000
N8_3 N 0.7158(11) 0.5156(14) 0.6356(9)
C45_3 C 0.7806(22) 0.5759(28) 0.9559(13)
H31_3 H 0.8230 0.6192 0.9266
C46_3 C 0.6555(20) 0.4497(26) 0.9561(12)
H32_3 H 0.6125 0.4068 0.9270
C47_3 C 0.7679(16) 0.5835(19) 0.6801(12)
H33_3 H 0.8029 0.6316 0.6512
C48_3 C 0.7180(13) 0.5126(16) 0.8147(10)
C49_3 C 0.6658(15) 0.4486(19) 0.6800(11)
H34_3 H 0.6309 0.4010 0.6504
C50_3 C 0.7697(17) 0.5822(21) 0.7691(11)
H35_3 H 0.8067 0.6294 0.7982
C51_3 C 0.7180(15) 0.5120(18) 0.9111(11)
C52_3 C 0.6633(15) 0.4462(19) 0.7681(10)
H36_3 H 0.6241 0.3992 0.7958
N4_5 N 0.5000 1.0000 0.3634(11)
C27_5 C 0.5000 1.0000 0.1851(12)
C28_3 C 0.4373(9) 0.9962(13) 0.3175(10)
H19_3 H 0.3934 0.9942 0.3467
C29_5 C 0.5000 1.0000 0.0857(15)
C31_3 C 0.4354(9) 0.9953(13) 0.2308(10)
H21_3 H 0.3903 0.9915 0.2024
C33_3 C 0.4296(10) 0.9840(15) 0.0437(11)
H23_3 H 0.3828 0.9734 0.0739
N2_5 N 0.5000 1.0000 0.6366(11)
C3_5 C 0.5000 1.0000 0.8149(12)
C11_5 C 0.5000 1.0000 0.9143(15)
C13_3 C 0.4296(10) 0.9840(15) 0.9563(11)
H8_3 H 0.3828 0.9734 0.9261
C24_3 C 0.4373(9) 0.9962(13) 0.6825(10)
H16_3 H 0.3934 0.9942 0.6533
C26_3 C 0.4354(9) 0.9953(13) 0.7692(10)
H18_3 H 0.3903 0.9915 0.7976
O11_3 O 0.3773(8) 0.9592(11) 0.5000
O6_4 O 0.2555(8) 0.8472(11) 0.5000
O8_4 O 0.3272(8) 0.7557(12) 0.5000
O9_4 O 0.0930(9) 0.7310(13) 0.5000
N5_4 N 0.2002(8) 0.7158(11) 0.3644(9)
C35_4 C 0.2047(17) 0.7806(22) 0.0441(13)
H25_4 H 0.2038 0.8230 0.0734
C36_4 C 0.2058(16) 0.6555(20) 0.0439(12)
H26_4 H 0.2057 0.6125 0.0730
C37_4 C 0.1844(11) 0.7679(16) 0.3199(12)
H27_4 H 0.1713 0.8029 0.3488
C38_4 C 0.2054(9) 0.7180(13) 0.1853(10)
C39_4 C 0.2172(11) 0.6658(15) 0.3200(11)
H28_4 H 0.2299 0.6309 0.3496
C40_4 C 0.3726(11) 0.8293(16) 0.5000
C41_4 C 0.1875(13) 0.7697(17) 0.2309(11)
H29_4 H 0.1773 0.8067 0.2018
C42_4 C 0.2060(10) 0.7180(15) 0.0889(11)
C43_4 C 0.2171(11) 0.6633(15) 0.2319(10)
H30_4 H 0.2249 0.6241 0.2042
C44_4 C 0.3311(11) 0.8823(16) 0.5000
N8_4 N 0.2002(8) 0.7158(11) 0.6356(9)
C45_4 C 0.2047(17) 0.7806(22) 0.9559(13)
H31_4 H 0.2038 0.8230 0.9266
C46_4 C 0.2058(16) 0.6555(20) 0.9561(12)
H32_4 H 0.2057 0.6125 0.9270
C47_4 C 0.1844(11) 0.7679(16) 0.6801(12)
H33_4 H 0.1713 0.8029 0.6512
C48_4 C 0.2054(9) 0.7180(13) 0.8147(10)
C49_4 C 0.2172(11) 0.6658(15) 0.6800(11)
H34_4 H 0.2299 0.6309 0.6504
C50_4 C 0.1875(13) 0.7697(17) 0.7691(11)
H35_4 H 0.1773 0.8067 0.7982
C51_4 C 0.2060(10) 0.7180(15) 0.9111(11)
C52_4 C 0.2171(11) 0.6633(15) 0.7681(10)
H36_4 H 0.2249 0.6241 0.7958
loop_
_geom_bond_atom_site_label_1
_geom_bond_atom_site_label_2
_geom_bond_site_symmetry_1
_geom_bond_site_symmetry_2
N4 C28 1_555 1_555
C27 C29 1_555 1_555
C28 H19 1_555 1_555
C29 C30 1_555 1_555
H20 C30 1_555 1_555
C31 C27 1_555 1_555
H21 C31 1_555 1_555
C32 N4 1_555 1_555
H22 C32 1_555 1_555
H23 C33 1_555 1_555
C34 C27 1_555 1_555
H24 C34 1_555 1_555
Zn7 N4 1_555 1_555
C28 C31 1_555 1_555
C29 C33 1_555 1_555
C32 C34 1_555 1_555
Zn1 O1 1_555 1_555
Zn7 O2 1_555 1_555
O1 C15 1_555 1_555
O2 C15 1_555 1_555
O3 Zn1 1_555 1_555
O4 Zn1 1_555 1_555
O5 Zn7 1_555 1_555
N1 Zn1 1_555 1_555
N2 Zn7 1_555 1_555
C1 H1 1_555 1_555
C2 H2 1_555 1_555
C3 C11 1_555 1_555
C4 N1 1_555 1_555
H3 C4 1_555 1_555
C5 N2 1_555 1_555
H4 C5 1_555 1_555
C6 C9 1_555 1_555
C7 N1 1_555 1_555
H5 C7 1_555 1_555
C8 O3 1_555 1_555
C9 C4 1_555 1_555
H6 C9 1_555 1_555
C10 C1 1_555 1_555
C11 C13 1_555 1_555
C12 C6 1_555 1_555
H7 C12 1_555 1_555
C13 H8 1_555 1_555
C14 C3 1_555 1_555
H9 C14 1_555 1_555
C15 C8 1_555 1_555
C24 N2 1_555 1_555
H16 C24 1_555 1_555
C25 C11 1_555 1_555
H17 C25 1_555 1_555
C26 C3 1_555 1_555
H18 C26 1_555 1_555
Zn3 O6 1_555 1_555
O6 C44 1_555 1_555
O7 C44 1_555 1_555
O8 Zn3 1_555 1_555
O9 Zn3 1_555 1_555
O10 Zn1 1_555 1_555
N5 Zn3 1_555 1_555
C35 H25 1_555 1_555
C36 H26 1_555 1_555
C37 N5 1_555 1_555
H27 C37 1_555 1_555
C38 C41 1_555 1_555
C39 N5 1_555 1_555
H28 C39 1_555 1_555
C40 O8 1_555 1_555
C41 C37 1_555 1_555
H29 C41 1_555 1_555
C42 C35 1_555 1_555
C43 C38 1_555 1_555
H30 C43 1_555 1_555
C44 C40 1_555 1_555
Zn6 O5 1_555 1_555
Zn8 O7 1_555 1_555
O11 Zn7 1_555 1_555
O12 Zn7 1_555 1_555
O13 Zn3 1_555 1_555
N7 Zn1 1_555 1_555
N8 Zn3 1_555 1_555
O5 C8 1_555 1_555
C2 C10 1_555 1_555
C5 C14 1_555 1_555
C6 C10 1_555 1_555
C7 C12 1_555 1_555
C24 C26 1_555 1_555
O10 C40 1_555 1_555
O10 Zn8 1_555 1_555
C36 C42 1_555 1_555
C38 C42 1_555 1_555
C39 C43 1_555 1_555
N7 C18 1_555 1_555
H10 C16 1_555 1_555
H11 C17 1_555 1_555
C18 H12 1_555 1_555
C19 C21 1_555 1_555
C20 N7 1_555 1_555
H13 C20 1_555 1_555
C21 C18 1_555 1_555
H14 C21 1_555 1_555
C22 C16 1_555 1_555
C23 C19 1_555 1_555
H15 C23 1_555 1_555
N8 C47 1_555 1_555
H31 C45 1_555 1_555
H32 C46 1_555 1_555
C47 H33 1_555 1_555
C48 C50 1_555 1_555
C49 N8 1_555 1_555
H34 C49 1_555 1_555
C50 C47 1_555 1_555
H35 C50 1_555 1_555
C51 C45 1_555 1_555
C52 C48 1_555 1_555
H36 C52 1_555 1_555
C17 C22 1_555 1_555
C19 C22 1_555 1_555
C20 C23 1_555 1_555
C46 C51 1_555 1_555
C48 C51 1_555 1_555
C49 C52 1_555 1_555
C27_2 C29_2 1_555 1_555
C29_2 C30_2 1_555 1_555
H20_2 C30_2 1_555 1_555
C32_2 N4_2 1_555 1_555
H22_2 C32_2 1_555 1_555
C34_2 C27_2 1_555 1_555
H24_2 C34_2 1_555 1_555
Zn7_2 N4_2 1_555 1_555
C32_2 C34_2 1_555 1_555
Zn1_2 O1_2 1_555 1_555
Zn7_2 O2_2 1_555 1_555
O1_2 C15_2 1_555 1_555
O2_2 C15_2 1_555 1_555
O3_2 Zn1_2 1_555 1_555
O4_2 Zn1_2 1_555 1_555
O5_2 Zn7_2 1_555 1_555
N1_2 Zn1_2 1_555 1_555
N2_2 Zn7_2 1_555 1_555
C1_2 H1_2 1_555 1_555
C2_2 H2_2 1_555 1_555
C3_2 C11_2 1_555 1_555
C4_2 N1_2 1_555 1_555
H3_2 C4_2 1_555 1_555
C5_2 N2_2 1_555 1_555
H4_2 C5_2 1_555 1_555
C6_2 C9_2 1_555 1_555
C7_2 N1_2 1_555 1_555
H5_2 C7_2 1_555 1_555
C8_2 O3_2 1_555 1_555
C9_2 C4_2 1_555 1_555
H6_2 C9_2 1_555 1_555
C10_2 C1_2 1_555 1_555
C12_2 C6_2 1_555 1_555
H7_2 C12_2 1_555 1_555
C14_2 C3_2 1_555 1_555
H9_2 C14_2 1_555 1_555
C15_2 C8_2 1_555 1_555
C25_2 C11_2 1_555 1_555
H17_2 C25_2 1_555 1_555
Zn3_2 O6_2 1_555 1_555
O6_2 C44_2 1_555 1_555
O11 C44_2 1_555 1_555
O8_2 Zn3_2 1_555 1_555
O9_2 Zn3_2 1_555 1_555
O12 Zn1_2 1_555 1_555
N5_2 Zn3_2 1_555 1_555
C35_2 H25_2 1_555 1_555
C36_2 H26_2 1_555 1_555
C37_2 N5_2 1_555 1_555
H27_2 C37_2 1_555 1_555
C38_2 C41_2 1_555 1_555
C39_2 N5_2 1_555 1_555
H28_2 C39_2 1_555 1_555
C40_2 O8_2 1_555 1_555
C41_2 C37_2 1_555 1_555
H29_2 C41_2 1_555 1_555
C42_2 C35_2 1_555 1_555
C43_2 C38_2 1_555 1_555
H30_2 C43_2 1_555 1_555
C44_2 C40_2 1_555 1_555
Zn6_2 O5_2 1_555 1_555
O13_2 Zn3_2 1_555 1_555
N7_2 Zn1_2 1_555 1_555
N8_2 Zn3_2 1_555 1_555
O5_2 C8_2 1_555 1_555
C2_2 C10_2 1_555 1_555
C5_2 C14_2 1_555 1_555
C6_2 C10_2 1_555 1_555
C7_2 C12_2 1_555 1_555
O12 C40_2 1_555 1_555
C36_2 C42_2 1_555 1_555
C38_2 C42_2 1_555 1_555
C39_2 C43_2 1_555 1_555
N7_2 C18_2 1_555 1_555
H10_2 C16_2 1_555 1_555
H11_2 C17_2 1_555 1_555
C18_2 H12_2 1_555 1_555
C19_2 C21_2 1_555 1_555
C20_2 N7_2 1_555 1_555
H13_2 C20_2 1_555 1_555
C21_2 C18_2 1_555 1_555
H14_2 C21_2 1_555 1_555
C22_2 C16_2 1_555 1_555
C23_2 C19_2 1_555 1_555
H15_2 C23_2 1_555 1_555
N8_2 C47_2 1_555 1_555
H31_2 C45_2 1_555 1_555
H32_2 C46_2 1_555 1_555
C47_2 H33_2 1_555 1_555
C48_2 C50_2 1_555 1_555
C49_2 N8_2 1_555 1_555
H34_2 C49_2 1_555 1_555
C50_2 C47_2 1_555 1_555
H35_2 C50_2 1_555 1_555
C51_2 C45_2 1_555 1_555
C52_2 C48_2 1_555 1_555
H36_2 C52_2 1_555 1_555
C17_2 C22_2 1_555 1_555
C19_2 C22_2 1_555 1_555
C20_2 C23_2 1_555 1_555
C46_2 C51_2 1_555 1_555
C48_2 C51_2 1_555 1_555
C49_2 C52_2 1_555 1_555
N4_3 C28_2 1_555 1_555
C27_3 C29_3 1_555 1_555
C28_2 H19_2 1_555 1_555
C31_2 C27_3 1_555 1_555
H21_2 C31_2 1_555 1_555
H23_2 C33_2 1_555 1_555
Zn7_3 N4_3 1_555 1_555
C28_2 C31_2 1_555 1_555
C29_3 C33_2 1_555 1_555
N2_3 Zn7_3 1_555 1_555
C3_3 C11_3 1_555 1_555
C11_3 C13_2 1_555 1_555
C13_2 H8_2 1_555 1_555
C24_2 N2_3 1_555 1_555
H16_2 C24_2 1_555 1_555
C26_2 C3_3 1_555 1_555
H18_2 C26_2 1_555 1_555
O11_2 Zn7_3 1_555 1_555
O13 Zn7_3 1_555 1_555
C24_2 C26_2 1_555 1_555
C27_4 C29_4 1_555 1_555
C29_4 C30_3 1_555 1_555
H20_3 C30_3 1_555 1_555
C32_3 N4_4 1_555 1_555
H22_3 C32_3 1_555 1_555
C34_3 C27_4 1_555 1_555
H24_3 C34_3 1_555 1_555
Zn8 N4_4 1_555 1_555
C32_3 C34_3 1_555 1_555
N2_4 Zn8 1_555 1_555
C3_4 C11_4 1_555 1_555
C5_3 N2_4 1_555 1_555
H4_3 C5_3 1_555 1_555
C14_3 C3_4 1_555 1_555
H9_3 C14_3 1_555 1_555
C25_3 C11_4 1_555 1_555
H17_3 C25_3 1_555 1_555
Zn6 O6_3 1_555 1_555
O6_3 C44_3 1_555 1_555
O11_2 C44_3 1_555 1_555
O8_3 Zn6 1_555 1_555
O9_3 Zn6 1_555 1_555
N5_3 Zn6 1_555 1_555
C35_3 H25_3 1_555 1_555
C36_3 H26_3 1_555 1_555
C37_3 N5_3 1_555 1_555
H27_3 C37_3 1_555 1_555
C38_3 C41_3 1_555 1_555
C39_3 N5_3 1_555 1_555
H28_3 C39_3 1_555 1_555
C40_3 O8_3 1_555 1_555
C41_3 C37_3 1_555 1_555
H29_3 C41_3 1_555 1_555
C42_3 C35_3 1_555 1_555
C43_3 C38_3 1_555 1_555
H30_3 C43_3 1_555 1_555
C44_3 C40_3 1_555 1_555
N8_3 Zn6 1_555 1_555
C5_3 C14_3 1_555 1_555
O13 C40_3 1_555 1_555
C36_3 C42_3 1_555 1_555
C38_3 C42_3 1_555 1_555
C39_3 C43_3 1_555 1_555
N8_3 C47_3 1_555 1_555
H31_3 C45_3 1_555 1_555
H32_3 C46_3 1_555 1_555
C47_3 H33_3 1_555 1_555
C48_3 C50_3 1_555 1_555
C49_3 N8_3 1_555 1_555
H34_3 C49_3 1_555 1_555
C50_3 C47_3 1_555 1_555
H35_3 C50_3 1_555 1_555
C51_3 C45_3 1_555 1_555
C52_3 C48_3 1_555 1_555
H36_3 C52_3 1_555 1_555
C46_3 C51_3 1_555 1_555
C48_3 C51_3 1_555 1_555
C49_3 C52_3 1_555 1_555
N4_5 C28_3 1_555 1_555
C27_5 C29_5 1_555 1_555
C28_3 H19_3 1_555 1_555
C31_3 C27_5 1_555 1_555
H21_3 C31_3 1_555 1_555
H23_3 C33_3 1_555 1_555
Zn8_2 N4_5 1_555 1_555
C28_3 C31_3 1_555 1_555
C29_5 C33_3 1_555 1_555
N2_5 Zn8_2 1_555 1_555
C3_5 C11_5 1_555 1_555
C11_5 C13_3 1_555 1_555
C13_3 H8_3 1_555 1_555
C24_3 N2_5 1_555 1_555
H16_3 C24_3 1_555 1_555
C26_3 C3_5 1_555 1_555
H18_3 C26_3 1_555 1_555
O11_3 Zn8_2 1_555 1_555
O13_2 Zn8_2 1_555 1_555
C24_3 C26_3 1_555 1_555
Zn6_2 O6_4 1_555 1_555
O6_4 C44_4 1_555 1_555
O11_3 C44_4 1_555 1_555
O8_4 Zn6_2 1_555 1_555
O9_4 Zn6_2 1_555 1_555
N5_4 Zn6_2 1_555 1_555
C35_4 H25_4 1_555 1_555
C36_4 H26_4 1_555 1_555
C37_4 N5_4 1_555 1_555
H27_4 C37_4 1_555 1_555
C38_4 C41_4 1_555 1_555
C39_4 N5_4 1_555 1_555
H28_4 C39_4 1_555 1_555
C40_4 O8_4 1_555 1_555
C41_4 C37_4 1_555 1_555
H29_4 C41_4 1_555 1_555
C42_4 C35_4 1_555 1_555
C43_4 C38_4 1_555 1_555
H30_4 C43_4 1_555 1_555
C44_4 C40_4 1_555 1_555
N8_4 Zn6_2 1_555 1_555
O13_2 C40_4 1_555 1_555
C36_4 C42_4 1_555 1_555
C38_4 C42_4 1_555 1_555
C39_4 C43_4 1_555 1_555
N8_4 C47_4 1_555 1_555
H31_4 C45_4 1_555 1_555
H32_4 C46_4 1_555 1_555
C47_4 H33_4 1_555 1_555
C48_4 C50_4 1_555 1_555
C49_4 N8_4 1_555 1_555
H34_4 C49_4 1_555 1_555
C50_4 C47_4 1_555 1_555
H35_4 C50_4 1_555 1_555
C51_4 C45_4 1_555 1_555
C52_4 C48_4 1_555 1_555
H36_4 C52_4 1_555 1_555
C46_4 C51_4 1_555 1_555
C48_4 C51_4 1_555 1_555
C49_4 C52_4 1_555 1_555

#END
