
###############################################################################
#
# This file contains modified crystal structure data generated from the
# MOF subset of the Cambridge Structural Database (CSD) v543 
# hosted by the Cambridge Crystallographic Data Centre (CCDC).
#
# This work is licensed under the Creative Commons
# Attribution-NonCommercial-ShareAlike 4.0 International License.
# To view a copy of this license, visit
# http://creativecommons.org/licenses/by-nc-sa/4.0/
# or send a letter to
# Creative Commons, PO Box 1866, Mountain View, CA 94042, USA.
#
# CIF created using the CSD Python API on 29 September 2022
# The structure has been converted into the P1 space group
# The structure has a 3D framework
# The original CSD entry UDISUX is in the rhombohedral crystal system
# The framework has been calculated to contain at least 10.0% void space
# The void calculation uses a probe of radius 1.32A, grid spacing 0.4
# Generated hydrogen atom positions removed from atoms on special positions
#
###############################################################################

data_UDISUX
_chemical_formula_moiety         '(C180 H270 O206 Yb30)n'
_symmetry_cell_setting           triclinic
_symmetry_space_group_name_H-M   'P 1'
_symmetry_Int_Tables_number      1
_space_group_name_Hall           'P 1'
loop_
_symmetry_equiv_pos_site_id
_symmetry_equiv_pos_as_xyz
1 x,y,z
_cell_length_a                   19.388(7)
_cell_length_b                   19.388(7)
_cell_length_c                   21.844(8)
_cell_angle_alpha                90
_cell_angle_beta                 90
_cell_angle_gamma                120
_cell_volume                     7110.97
loop_
_atom_site_label
_atom_site_type_symbol
_atom_site_fract_x
_atom_site_fract_y
_atom_site_fract_z
H3 H 0.020(3) 0.288(5) 0.025(2)
Yb4 Yb 0.382914(23) 0.151738(16) 0.045009(12)
O32 O 0.2717(4) 0.1322(3) 0.0940(2)
H31 H 0.257(5) 0.106(3) 0.127(2)
H32 H 0.264(4) 0.173(3) 0.097(3)
O33 O 0.3014(4) 0.0224(3) 0.0090(2)
O36 O 0.3848(3) 0.0816(4) 0.12792(19)
O39 O 0.5009(3) 0.1607(4) 0.0373(2)
O41 O 0.4310(3) 0.2891(3) 0.0316(2)
O44 O 0.4347(3) 0.2534(3) 0.12548(19)
Yb2 Yb -0.0000 0.0000 0.78510(2)
O4 O 0.0302(3) 0.2819(3) 0.79459(19)
O12 O -0.0000 -0.0000 0.6793(4)
H7 H 0.0331 0.0558 0.6798
O24 O 0.3010(4) 0.1687(3) 0.96483(19)
O25 O 0.4049(4) 0.1578(3) 0.93957(19)
O26 O 0.2486(4) 0.0100(3) 0.8896(2)
O28 O 0.1259(4) 0.0680(3) 0.7608(2)
O29 O 0.1726(4) 0.0068(3) 0.7040(2)
O30 O 0.1915(4) 0.2357(3) 0.6983(2)
O31 O 0.1521(4) 0.2320(3) 0.79215(19)
H34 H 0.304(6) 0.025(4) 0.9720(13)
O34 O 0.0420(4) 0.0957(3) 0.8603(2)
H35 H 0.026(6) 0.099(4) 0.896(2)
H36 H 0.077(6) 0.142(3) 0.848(3)
C21 C 0.3347(6) 0.1764(4) 0.8567(3)
H37 H 0.3827 0.2272 0.8439
C22 C 0.3349(6) 0.1099(4) 0.8171(3)
H38 H 0.3880 0.1145 0.8241
C23 C 0.3331(6) 0.1285(4) 0.7493(3)
H39 H 0.3281 0.0835 0.7245
H40 H 0.3841 0.1764 0.7384
C24 C 0.2639(6) 0.1431(4) 0.7333(3)
H41 H 0.2737 0.1645 0.6906
C25 C 0.2635(6) 0.2067(4) 0.7740(3)
H42 H 0.3152 0.2567 0.7665
C26 C 0.2626(6) 0.1870(4) 0.8431(3)
H43 H 0.2656 0.2308 0.8684
H44 H 0.2126 0.1375 0.8533
C27 C 0.3462(6) 0.1665(4) 0.9245(3)
C28 C 0.2729(6) 0.0240(4) 0.8350(3)
C29 C 0.1820(6) 0.0661(4) 0.7328(3)
C30 C 0.1979(6) 0.2239(4) 0.7539(3)
Yb6 Yb 0.102157(16) 0.283753(23) 0.711676(12)
Yb2_2 Yb 0.0000 1.0000 0.78510(2)
O12_2 O -0.0000 1.0000 0.6793(4)
H16 H 0.0227 0.9669 0.6798
O19 O 0.0442(3) 0.8085(4) 0.6983(2)
O20 O 0.0799(3) 0.8479(4) 0.79215(19)
O23 O 0.0537(3) 0.9580(4) 0.8603(2)
H21 H 0.073(5) 0.974(6) 0.896(2)
H22 H 0.065(5) 0.923(6) 0.848(3)
C20 C 0.0260(4) 0.8021(6) 0.7539(3)
O27 O 0.2517(4) 0.9698(3) 0.79459(19)
Yb5 Yb 0.181595(16) 0.897843(16) 0.711676(12)
Yb1 Yb 0.848262(16) 0.231176(16) 0.045009(12)
O9 O 0.8678(3) 0.1395(3) 0.0940(2)
H1 H 0.894(3) 0.151(4) 0.127(2)
H2 H 0.827(3) 0.091(2) 0.097(3)
O10 O 0.9776(3) 0.2790(3) 0.0090(2)
O37 O 0.9184(4) 0.3031(3) 0.12792(19)
O40 O 0.8393(4) 0.3401(3) 0.0373(2)
O42 O 0.7109(3) 0.1418(4) 0.0316(2)
O45 O 0.7466(3) 0.1812(4) 0.12548(19)
Yb3 Yb 0.768824(16) 0.617086(23) 0.045009(12)
O21 O 0.8605(3) 0.7283(4) 0.0940(2)
H17 H 0.849(4) 0.743(5) 0.127(2)
H18 H 0.909(2) 0.736(4) 0.097(3)
O22 O 0.7210(3) 0.6986(4) 0.0090(2)
H19 H 0.712(5) 0.732(6) 0.025(2)
O35 O 0.6969(3) 0.6152(3) 0.12792(19)
O38 O 0.6599(3) 0.4991(3) 0.0373(2)
O43 O 0.8582(4) 0.5690(3) 0.0316(2)
O46 O 0.8188(4) 0.5653(3) 0.12548(19)
Yb2_3 Yb 1.0000 1.0000 0.78510(2)
O7 O 0.7643(3) 0.9558(3) 0.6983(2)
O8 O 0.7680(3) 0.9201(3) 0.79215(19)
O11 O 0.9043(3) 0.9463(3) 0.8603(2)
H5 H 0.901(4) 0.927(5) 0.896(2)
H6 H 0.858(3) 0.935(5) 0.848(3)
O12_3 O 1.0000 1.0000 0.6793(4)
C10 C 0.7761(4) 0.9740(4) 0.7539(3)
O13 O 0.8677(3) 0.6990(4) 0.96483(19)
O14 O 0.7529(3) 0.5951(4) 0.93957(19)
O15 O 0.7614(3) 0.7514(4) 0.8896(2)
O16 O 0.7181(3) 0.7483(4) 0.79459(19)
O17 O 0.9421(3) 0.8741(4) 0.7608(2)
O18 O 0.8342(3) 0.8274(4) 0.7040(2)
H20 H 0.721(5) 0.696(6) 0.9720(13)
C11 C 0.8417(4) 0.6653(6) 0.8567(3)
H23 H 0.8445 0.6173 0.8439
C12 C 0.7750(4) 0.6651(6) 0.8171(3)
H24 H 0.7265 0.6120 0.8241
C13 C 0.7954(4) 0.6669(6) 0.7493(3)
H25 H 0.7554 0.6719 0.7245
H26 H 0.7923 0.6159 0.7384
C14 C 0.8792(4) 0.7361(6) 0.7333(3)
H27 H 0.8908 0.7263 0.6906
C15 C 0.9432(4) 0.7365(6) 0.7740(3)
H28 H 0.9415 0.6848 0.7665
C16 C 0.9244(4) 0.7374(6) 0.8431(3)
H29 H 0.9652 0.7344 0.8684
H30 H 0.9249 0.7874 0.8533
C17 C 0.8203(4) 0.6538(6) 0.9245(3)
C18 C 0.7511(4) 0.7271(6) 0.8350(3)
C19 C 0.8841(4) 0.8180(6) 0.7328(3)
Yb7 Yb 0.716247(23) 0.818405(16) 0.711676(12)
H7_2 H 0.9442 0.9773 0.6798
Yb4_2 Yb 0.049581(23) 0.485071(16) 0.378342(12)
O25_2 O 0.0716(4) 0.4911(3) 0.27290(19)
C21_2 C 0.0014(6) 0.5097(4) 0.1900(3)
H37_2 H 0.0494 0.5605 0.1772
C22_2 C 0.0016(6) 0.4432(4) 0.1504(3)
H38_2 H 0.0547 0.4478 0.1574
H40_2 H 0.0508 0.5097 0.0717
C27_2 C 0.0129(6) 0.4998(4) 0.2578(3)
O36_2 O 0.0514(3) 0.4150(4) 0.46126(19)
O39_2 O 0.1675(3) 0.4941(4) 0.3707(2)
O41_2 O 0.0976(3) 0.6225(3) 0.3650(2)
O44_2 O 0.1013(3) 0.5868(3) 0.45882(19)
Yb1_2 Yb 0.514929(16) 0.564509(16) 0.378342(12)
Yb2_4 Yb 0.6667 0.3333 0.11843(2)
O1 O 0.4980(3) 0.4656(3) 0.29816(19)
O2 O 0.5089(3) 0.5804(3) 0.27290(19)
O3 O 0.6567(3) 0.5719(3) 0.2229(2)
O5 O 0.5987(3) 0.3912(3) 0.0941(2)
O9_2 O 0.5345(3) 0.4728(3) 0.4273(2)
H1_2 H 0.561(3) 0.484(4) 0.460(2)
H2_2 H 0.494(3) 0.424(2) 0.430(3)
O10_2 O 0.6443(3) 0.6123(3) 0.3423(2)
H3_2 H 0.687(3) 0.621(5) 0.358(2)
H4 H 0.642(4) 0.612(5) 0.3053(13)
O11_2 O 0.5710(3) 0.2796(3) 0.1936(2)
H5_2 H 0.568(4) 0.260(5) 0.229(2)
H6_2 H 0.525(3) 0.268(5) 0.181(3)
O12_4 O 0.6667 0.3333 0.0126(4)
C1 C 0.4903(4) 0.4916(4) 0.1900(3)
H8 H 0.4395 0.4888 0.1772
C2 C 0.5568(4) 0.5583(4) 0.1504(3)
H9 H 0.5522 0.6068 0.1574
C3 C 0.5382(4) 0.5379(4) 0.0826(3)
H10 H 0.5832 0.5779 0.0578
H11 H 0.4903 0.5410 0.0717
C4 C 0.5236(4) 0.4541(4) 0.0666(3)
H12 H 0.5022 0.4425 0.0239
C5 C 0.4600(4) 0.3901(4) 0.1073(3)
H13 H 0.4100 0.3918 0.0998
C6 C 0.4797(4) 0.4089(4) 0.1764(3)
H14 H 0.4359 0.3681 0.2017
H15 H 0.5292 0.4084 0.1866
C7 C 0.5002(4) 0.5130(4) 0.2578(3)
C8 C 0.6427(4) 0.5822(4) 0.1683(3)
C9 C 0.6006(4) 0.4492(4) 0.0661(3)
C10_2 C 0.4428(4) 0.3073(4) 0.0872(3)
O13_2 O 0.5344(3) 0.0323(4) 0.29816(19)
O15_2 O 0.4281(3) 0.0847(4) 0.2229(2)
O17_2 O 0.6088(3) 0.2074(4) 0.0941(2)
O21_2 O 0.5272(3) 0.0616(4) 0.4273(2)
H17_2 H 0.516(4) 0.076(5) 0.460(2)
H18_2 H 0.576(2) 0.069(4) 0.430(3)
O22_2 O 0.3877(3) 0.0319(4) 0.3423(2)
H19_2 H 0.379(5) 0.065(6) 0.358(2)
H20_2 H 0.388(5) 0.029(6) 0.3053(13)
O23_2 O 0.7204(3) 0.2913(4) 0.1936(2)
H21_2 H 0.740(5) 0.307(6) 0.229(2)
H22_2 H 0.732(5) 0.256(6) 0.181(3)
C13_2 C 0.4621(4) 0.0002(6) 0.0826(3)
H25_2 H 0.4221 0.0052 0.0578
C14_2 C 0.5459(4) 0.0694(6) 0.0666(3)
H27_2 H 0.5575 0.0596 0.0239
C15_2 C 0.6099(4) 0.0698(6) 0.1073(3)
H28_2 H 0.6082 0.0181 0.0998
C16_2 C 0.5911(4) 0.0707(6) 0.1764(3)
H29_2 H 0.6319 0.0677 0.2017
H30_2 H 0.5916 0.1207 0.1866
C18_2 C 0.4178(4) 0.0604(6) 0.1683(3)
C19_2 C 0.5508(4) 0.1513(6) 0.0661(3)
C20_2 C 0.6927(4) 0.1354(6) 0.0872(3)
O24_2 O 0.9677(4) 0.5020(3) 0.29816(19)
O26_2 O 0.9153(4) 0.3433(3) 0.2229(2)
O28_2 O 0.7926(4) 0.4013(3) 0.0941(2)
O32_2 O 0.9384(4) 0.4655(3) 0.4273(2)
H31_2 H 0.924(5) 0.439(3) 0.460(2)
H32_2 H 0.931(4) 0.506(3) 0.430(3)
O33_2 O 0.9681(4) 0.3557(3) 0.3423(2)
H33 H 0.935(6) 0.313(3) 0.358(2)
H34_2 H 0.971(6) 0.358(4) 0.3053(13)
O34_2 O 0.7087(4) 0.4290(3) 0.1936(2)
H35_2 H 0.693(6) 0.432(4) 0.229(2)
H36_2 H 0.744(6) 0.475(3) 0.181(3)
C23_2 C 0.9998(6) 0.4618(4) 0.0826(3)
H39_2 H 0.9948 0.4168 0.0578
C24_2 C 0.9306(6) 0.4764(4) 0.0666(3)
H41_2 H 0.9404 0.4978 0.0239
C25_2 C 0.9302(6) 0.5400(4) 0.1073(3)
H42_2 H 0.9819 0.5900 0.0998
C26_2 C 0.9293(6) 0.5203(4) 0.1764(3)
H43_2 H 0.9323 0.5641 0.2017
H44_2 H 0.8793 0.4708 0.1866
C28_2 C 0.9396(6) 0.3573(4) 0.1683(3)
C29_2 C 0.8487(6) 0.3994(4) 0.0661(3)
C30_2 C 0.8646(6) 0.5572(4) 0.0872(3)
O37_2 O 0.5850(4) 0.6365(3) 0.46126(19)
O40_2 O 0.5059(4) 0.6735(3) 0.3707(2)
O42_2 O 0.3775(3) 0.4752(4) 0.3650(2)
O45_2 O 0.4132(3) 0.5146(4) 0.45882(19)
Yb3_2 Yb 0.435491(16) 0.950419(23) 0.378342(12)
O14_2 O 0.4196(3) 0.9284(4) 0.27290(19)
C11_2 C 0.5084(4) 0.9986(6) 0.1900(3)
H23_2 H 0.5112 0.9506 0.1772
C12_2 C 0.4417(4) 0.9984(6) 0.1504(3)
H24_2 H 0.3932 0.9453 0.1574
H26_2 H 0.4590 0.9492 0.0717
C17_2 C 0.4870(4) 0.9871(6) 0.2578(3)
O35_2 O 0.3635(3) 0.9486(3) 0.46126(19)
O38_2 O 0.3265(3) 0.8325(3) 0.3707(2)
O43_2 O 0.5248(4) 0.9024(3) 0.3650(2)
O46_2 O 0.4854(4) 0.8987(3) 0.45882(19)
Yb2_5 Yb 0.3333 0.6667 0.45177(2)
O1_2 O 0.1646(3) 0.7990(3) 0.63150(19)
O2_2 O 0.1755(3) 0.9138(3) 0.60624(19)
O3_2 O 0.3233(3) 0.9053(3) 0.5563(2)
O5_2 O 0.2653(3) 0.7246(3) 0.4275(2)
O9_3 O 0.2011(3) 0.8062(3) 0.7607(2)
H1_3 H 0.227(3) 0.818(4) 0.794(2)
H2_3 H 0.160(3) 0.758(2) 0.764(3)
O10_3 O 0.3109(3) 0.9457(3) 0.6757(2)
H3_3 H 0.353(3) 0.955(5) 0.692(2)
H4_2 H 0.308(4) 0.946(5) 0.6387(13)
O11_3 O 0.2376(3) 0.6130(3) 0.5270(2)
H5_3 H 0.234(4) 0.594(5) 0.563(2)
H6_3 H 0.191(3) 0.602(5) 0.515(3)
O12_5 O 0.3333 0.6667 0.3460(4)
C1_2 C 0.1569(4) 0.8250(4) 0.5234(3)
H8_2 H 0.1061 0.8222 0.5106
C2_2 C 0.2234(4) 0.8917(4) 0.4838(3)
H9_2 H 0.2188 0.9402 0.4908
C3_2 C 0.2048(4) 0.8713(4) 0.4160(3)
H10_2 H 0.2498 0.9113 0.3912
H11_2 H 0.1569 0.8744 0.4051
C4_2 C 0.1902(4) 0.7875(4) 0.4000(3)
H12_2 H 0.1688 0.7759 0.3573
C5_2 C 0.1266(4) 0.7235(4) 0.4407(3)
H13_2 H 0.0766 0.7252 0.4332
C6_2 C 0.1463(4) 0.7423(4) 0.5098(3)
H14_2 H 0.1025 0.7015 0.5351
H15_2 H 0.1958 0.7418 0.5200
C7_2 C 0.1668(4) 0.8464(4) 0.5912(3)
C8_2 C 0.3093(4) 0.9156(4) 0.5017(3)
C9_2 C 0.2672(4) 0.7826(4) 0.3995(3)
C10_3 C 0.1094(4) 0.6407(4) 0.4206(3)
O13_3 O 0.2010(3) 0.3657(4) 0.63150(19)
O14_3 O 0.0862(3) 0.2618(4) 0.60624(19)
O15_3 O 0.0947(3) 0.4181(4) 0.5563(2)
O17_3 O 0.2754(3) 0.5408(4) 0.4275(2)
O21_3 O 0.1938(3) 0.3950(4) 0.7607(2)
H17_3 H 0.182(4) 0.410(5) 0.794(2)
H18_3 H 0.242(2) 0.403(4) 0.764(3)
O22_3 O 0.0543(3) 0.3653(4) 0.6757(2)
H19_3 H 0.045(5) 0.399(6) 0.692(2)
H20_3 H 0.054(5) 0.363(6) 0.6387(13)
O23_3 O 0.3870(3) 0.6247(4) 0.5270(2)
H21_3 H 0.406(5) 0.641(6) 0.563(2)
H22_3 H 0.398(5) 0.590(6) 0.515(3)
C11_3 C 0.1750(4) 0.3320(6) 0.5234(3)
H23_3 H 0.1778 0.2840 0.5106
C12_3 C 0.1083(4) 0.3318(6) 0.4838(3)
H24_3 H 0.0598 0.2787 0.4908
C13_3 C 0.1287(4) 0.3336(6) 0.4160(3)
H25_3 H 0.0887 0.3386 0.3912
H26_3 H 0.1256 0.2826 0.4051
C14_3 C 0.2125(4) 0.4028(6) 0.4000(3)
H27_3 H 0.2241 0.3930 0.3573
C15_3 C 0.2765(4) 0.4032(6) 0.4407(3)
H28_3 H 0.2748 0.3515 0.4332
C16_3 C 0.2577(4) 0.4041(6) 0.5098(3)
H29_3 H 0.2985 0.4011 0.5351
H30_3 H 0.2582 0.4541 0.5200
C17_3 C 0.1536(4) 0.3205(6) 0.5912(3)
C18_3 C 0.0844(4) 0.3938(6) 0.5017(3)
C19_3 C 0.2174(4) 0.4847(6) 0.3995(3)
C20_3 C 0.3593(4) 0.4688(6) 0.4206(3)
O24_3 O 0.6343(4) 0.8354(3) 0.63150(19)
O25_3 O 0.7382(4) 0.8245(3) 0.60624(19)
O26_3 O 0.5819(4) 0.6767(3) 0.5563(2)
O28_3 O 0.4592(4) 0.7347(3) 0.4275(2)
O32_3 O 0.6050(4) 0.7989(3) 0.7607(2)
H31_3 H 0.590(5) 0.773(3) 0.794(2)
H32_3 H 0.597(4) 0.840(3) 0.764(3)
O33_3 O 0.6347(4) 0.6891(3) 0.6757(2)
H33_2 H 0.601(6) 0.647(3) 0.692(2)
H34_3 H 0.637(6) 0.692(4) 0.6387(13)
O34_3 O 0.3753(4) 0.7624(3) 0.5270(2)
H35_3 H 0.359(6) 0.766(4) 0.563(2)
H36_3 H 0.410(6) 0.809(3) 0.515(3)
C21_3 C 0.6680(6) 0.8431(4) 0.5234(3)
H37_3 H 0.7160 0.8939 0.5106
C22_3 C 0.6682(6) 0.7766(4) 0.4838(3)
H38_3 H 0.7213 0.7812 0.4908
C23_3 C 0.6664(6) 0.7952(4) 0.4160(3)
H39_3 H 0.6614 0.7502 0.3912
H40_3 H 0.7174 0.8431 0.4051
C24_3 C 0.5972(6) 0.8098(4) 0.4000(3)
H41_3 H 0.6070 0.8312 0.3573
C25_3 C 0.5968(6) 0.8734(4) 0.4407(3)
H42_3 H 0.6485 0.9234 0.4332
C26_3 C 0.5959(6) 0.8537(4) 0.5098(3)
H43_3 H 0.5989 0.8975 0.5351
H44_3 H 0.5459 0.8042 0.5200
C27_3 C 0.6795(6) 0.8332(4) 0.5912(3)
C28_3 C 0.6062(6) 0.6907(4) 0.5017(3)
C29_3 C 0.5153(6) 0.7328(4) 0.3995(3)
C30_3 C 0.5312(6) 0.8906(4) 0.4206(3)
H33_3 H 0.268(6) 0.980(3) 0.025(2)
Yb2_6 Yb 1.0000 0.0000 0.78510(2)
O1_3 O 0.8313(3) 0.1323(3) 0.96483(19)
O2_3 O 0.8422(3) 0.2471(3) 0.93957(19)
O3_3 O 0.9900(3) 0.2386(3) 0.8896(2)
O5_3 O 0.9320(3) 0.0579(3) 0.7608(2)
O6 O 0.9932(3) 0.1658(3) 0.7040(2)
H4_3 H 0.975(4) 0.279(5) 0.9720(13)
O12_6 O 1.0000 -0.0000 0.6793(4)
C1_3 C 0.8236(4) 0.1583(4) 0.8567(3)
H8_3 H 0.7728 0.1555 0.8439
C2_3 C 0.8901(4) 0.2250(4) 0.8171(3)
H9_3 H 0.8855 0.2735 0.8241
C3_3 C 0.8715(4) 0.2046(4) 0.7493(3)
H10_3 H 0.9165 0.2446 0.7245
H11_3 H 0.8236 0.2077 0.7384
C4_3 C 0.8569(4) 0.1208(4) 0.7333(3)
H12_3 H 0.8355 0.1092 0.6906
C5_3 C 0.7933(4) 0.0568(4) 0.7740(3)
H13_3 H 0.7433 0.0585 0.7665
C6_3 C 0.8130(4) 0.0756(4) 0.8431(3)
H14_3 H 0.7692 0.0348 0.8684
H15_3 H 0.8625 0.0751 0.8533
C7_3 C 0.8335(4) 0.1797(4) 0.9245(3)
C8_3 C 0.9760(4) 0.2489(4) 0.8350(3)
C9_3 C 0.9339(4) 0.1159(4) 0.7328(3)
Yb2_7 Yb 0.0000 0.0000 0.21490(2)
O7_2 O 0.2357(3) 0.0442(3) 0.3017(2)
O8_2 O 0.2320(3) 0.0799(3) 0.20785(19)
O11_4 O 0.0957(3) 0.0537(3) 0.1397(2)
H5_4 H 0.099(4) 0.073(5) 0.104(2)
H6_4 H 0.142(3) 0.065(5) 0.152(3)
O12_7 O 0.0000 0.0000 0.3207(4)
C10_4 C 0.2239(4) 0.0260(4) 0.2461(3)
O13_4 O 0.1323(3) 0.3010(4) 0.03517(19)
O14_4 O 0.2471(3) 0.4049(4) 0.06043(19)
O15_4 O 0.2386(3) 0.2486(4) 0.1104(2)
O16_2 O 0.2819(3) 0.2517(4) 0.20541(19)
O17_4 O 0.0579(3) 0.1259(4) 0.2392(2)
O18_2 O 0.1658(3) 0.1726(4) 0.2960(2)
H20_4 H 0.279(5) 0.304(6) 0.0280(13)
C11_4 C 0.1583(4) 0.3347(6) 0.1433(3)
H23_4 H 0.1555 0.3827 0.1561
C12_4 C 0.2250(4) 0.3349(6) 0.1829(3)
H24_4 H 0.2735 0.3880 0.1759
C13_4 C 0.2046(4) 0.3331(6) 0.2507(3)
H25_4 H 0.2446 0.3281 0.2755
H26_4 H 0.2077 0.3841 0.2616
C14_4 C 0.1208(4) 0.2639(6) 0.2667(3)
H27_4 H 0.1092 0.2737 0.3094
C15_4 C 0.0568(4) 0.2635(6) 0.2260(3)
H28_4 H 0.0585 0.3152 0.2335
C16_4 C 0.0756(4) 0.2626(6) 0.1569(3)
H29_4 H 0.0348 0.2656 0.1316
H30_4 H 0.0751 0.2126 0.1467
C17_4 C 0.1797(4) 0.3462(6) 0.0755(3)
C18_4 C 0.2489(4) 0.2729(6) 0.1650(3)
C19_4 C 0.1159(4) 0.1820(6) 0.2672(3)
Yb7_2 Yb 0.283753(23) 0.181595(16) 0.288324(12)
Yb3_3 Yb 0.231176(16) 0.382914(23) 0.954991(12)
O21_4 O 0.1395(3) 0.2717(4) 0.9060(2)
H17_4 H 0.151(4) 0.257(5) 0.873(2)
H18_4 H 0.091(2) 0.264(4) 0.903(3)
O22_4 O 0.2790(3) 0.3014(4) 0.9910(2)
H19_4 H 0.288(5) 0.268(6) 0.975(2)
O35_3 O 0.3031(3) 0.3848(3) 0.87208(19)
O38_3 O 0.3401(3) 0.5009(3) 0.9627(2)
O43_3 O 0.1418(4) 0.4310(3) 0.9684(2)
O46_3 O 0.1812(4) 0.4347(3) 0.87452(19)
Yb1_3 Yb 0.151738(16) 0.768824(16) 0.954991(12)
O9_4 O 0.1322(3) 0.8605(3) 0.9060(2)
H1_4 H 0.106(3) 0.849(4) 0.873(2)
H2_4 H 0.173(3) 0.909(2) 0.903(3)
O10_4 O 0.0224(3) 0.7210(3) 0.9910(2)
O37_3 O 0.0816(4) 0.6969(3) 0.87208(19)
O40_3 O 0.1607(4) 0.6599(3) 0.9627(2)
O42_3 O 0.2891(3) 0.8582(4) 0.9684(2)
O45_3 O 0.2534(3) 0.8188(4) 0.87452(19)
Yb2_8 Yb 1.0000 0.0000 0.21490(2)
O12_8 O 1.0000 0.0000 0.3207(4)
H16_2 H 0.9773 0.0331 0.3202
O19_2 O 0.9558(3) 0.1915(4) 0.3017(2)
O20_2 O 0.9201(3) 0.1521(4) 0.20785(19)
O23_4 O 0.9463(3) 0.0420(4) 0.1397(2)
H21_4 H 0.927(5) 0.026(6) 0.104(2)
H22_4 H 0.935(5) 0.077(6) 0.152(3)
C20_4 C 0.9740(4) 0.1979(6) 0.2461(3)
O27_2 O 0.7483(4) 0.0302(3) 0.20541(19)
Yb5_2 Yb 0.818405(16) 0.102157(16) 0.288324(12)
Yb2_9 Yb 1.0000 1.0000 0.21490(2)
O4_2 O 0.9698(3) 0.7181(3) 0.20541(19)
O12_9 O 1.0000 1.0000 0.3207(4)
H7_3 H 0.9669 0.9442 0.3202
O24_4 O 0.6990(4) 0.8313(3) 0.03517(19)
O25_4 O 0.5951(4) 0.8422(3) 0.06043(19)
O26_4 O 0.7514(4) 0.9900(3) 0.1104(2)
O28_4 O 0.8741(4) 0.9320(3) 0.2392(2)
O29_2 O 0.8274(4) 0.9932(3) 0.2960(2)
O30_2 O 0.8085(4) 0.7643(3) 0.3017(2)
O31_2 O 0.8479(4) 0.7680(3) 0.20785(19)
H34_4 H 0.696(6) 0.975(4) 0.0280(13)
O34_4 O 0.9580(4) 0.9043(3) 0.1397(2)
H35_4 H 0.974(6) 0.901(4) 0.104(2)
H36_4 H 0.923(6) 0.858(3) 0.152(3)
C21_4 C 0.6653(6) 0.8236(4) 0.1433(3)
H37_4 H 0.6173 0.7728 0.1561
C22_4 C 0.6651(6) 0.8901(4) 0.1829(3)
H38_4 H 0.6120 0.8855 0.1759
C23_4 C 0.6669(6) 0.8715(4) 0.2507(3)
H39_4 H 0.6719 0.9165 0.2755
H40_4 H 0.6159 0.8236 0.2616
C24_4 C 0.7361(6) 0.8569(4) 0.2667(3)
H41_4 H 0.7263 0.8355 0.3094
C25_4 C 0.7365(6) 0.7933(4) 0.2260(3)
H42_4 H 0.6848 0.7433 0.2335
C26_4 C 0.7374(6) 0.8130(4) 0.1569(3)
H43_4 H 0.7344 0.7692 0.1316
H44_4 H 0.7874 0.8625 0.1467
C27_4 C 0.6538(6) 0.8335(4) 0.0755(3)
C28_4 C 0.7271(6) 0.9760(4) 0.1650(3)
C29_4 C 0.8180(6) 0.9339(4) 0.2672(3)
C30_4 C 0.8021(6) 0.7761(4) 0.2461(3)
Yb6_2 Yb 0.897843(16) 0.716247(23) 0.288324(12)
H3_4 H 0.980(3) 0.712(5) 0.975(2)
Yb4_3 Yb 0.617086(23) 0.848262(16) 0.954991(12)
O32_4 O 0.7283(4) 0.8678(3) 0.9060(2)
H31_4 H 0.743(5) 0.894(3) 0.873(2)
H32_4 H 0.736(4) 0.827(3) 0.903(3)
O33_4 O 0.6986(4) 0.9776(3) 0.9910(2)
O36_3 O 0.6152(3) 0.9184(4) 0.87208(19)
O39_3 O 0.4991(3) 0.8393(4) 0.9627(2)
O41_3 O 0.5690(3) 0.7109(3) 0.9684(2)
O44_3 O 0.5653(3) 0.7466(3) 0.87452(19)
H7_4 H 0.0558 0.0227 0.3202
Yb3_4 Yb 0.564509(16) 0.049581(23) 0.621658(12)
O14_5 O 0.5804(3) 0.0716(4) 0.72710(19)
C11_5 C 0.4916(4) 0.0014(6) 0.8100(3)
H23_5 H 0.4888 0.0494 0.8228
C12_5 C 0.5583(4) 0.0016(6) 0.8496(3)
H24_5 H 0.6068 0.0547 0.8426
H26_5 H 0.5410 0.0508 0.9283
C17_5 C 0.5130(4) 0.0129(6) 0.7422(3)
O35_4 O 0.6365(3) 0.0514(3) 0.53874(19)
O38_4 O 0.6735(3) 0.1675(3) 0.6293(2)
O43_4 O 0.4752(4) 0.0976(3) 0.6350(2)
O46_4 O 0.5146(4) 0.1013(3) 0.54118(19)
Yb1_4 Yb 0.485071(16) 0.435491(16) 0.621658(12)
Yb2_10 Yb 0.3333 0.6667 0.88157(2)
O1_4 O 0.5020(3) 0.5344(3) 0.70184(19)
O2_4 O 0.4911(3) 0.4196(3) 0.72710(19)
O3_4 O 0.3433(3) 0.4281(3) 0.7771(2)
O5_4 O 0.4013(3) 0.6088(3) 0.9059(2)
O9_5 O 0.4655(3) 0.5272(3) 0.5727(2)
H1_5 H 0.439(3) 0.516(4) 0.540(2)
H2_5 H 0.506(3) 0.576(2) 0.570(3)
O10_5 O 0.3557(3) 0.3877(3) 0.6577(2)
H3_5 H 0.313(3) 0.379(5) 0.642(2)
H4_4 H 0.358(4) 0.388(5) 0.6947(13)
O11_5 O 0.4290(3) 0.7204(3) 0.8064(2)
H5_5 H 0.432(4) 0.740(5) 0.771(2)
H6_5 H 0.475(3) 0.732(5) 0.819(3)
O12_10 O 0.3333 0.6667 0.9874(4)
C1_4 C 0.5097(4) 0.5084(4) 0.8100(3)
H8_4 H 0.5605 0.5112 0.8228
C2_4 C 0.4432(4) 0.4417(4) 0.8496(3)
H9_4 H 0.4478 0.3932 0.8426
C3_4 C 0.4618(4) 0.4621(4) 0.9174(3)
H10_4 H 0.4168 0.4221 0.9422
H11_4 H 0.5097 0.4590 0.9283
C4_4 C 0.4764(4) 0.5459(4) 0.9334(3)
H12_4 H 0.4978 0.5575 0.9761
C5_4 C 0.5400(4) 0.6099(4) 0.8927(3)
H13_4 H 0.5900 0.6082 0.9002
C6_4 C 0.5203(4) 0.5911(4) 0.8236(3)
H14_4 H 0.5641 0.6319 0.7983
H15_4 H 0.4708 0.5916 0.8134
C7_4 C 0.4998(4) 0.4870(4) 0.7422(3)
C8_4 C 0.3573(4) 0.4178(4) 0.8317(3)
C9_4 C 0.3994(4) 0.5508(4) 0.9339(3)
C10_5 C 0.5572(4) 0.6927(4) 0.9128(3)
O13_5 O 0.4656(3) 0.9677(4) 0.70184(19)
O15_5 O 0.5719(3) 0.9153(4) 0.7771(2)
O17_5 O 0.3912(3) 0.7926(4) 0.9059(2)
O21_5 O 0.4728(3) 0.9384(4) 0.5727(2)
H17_5 H 0.484(4) 0.924(5) 0.540(2)
H18_5 H 0.424(2) 0.931(4) 0.570(3)
O22_5 O 0.6123(3) 0.9681(4) 0.6577(2)
H19_5 H 0.621(5) 0.935(6) 0.642(2)
H20_5 H 0.612(5) 0.971(6) 0.6947(13)
O23_5 O 0.2796(3) 0.7087(4) 0.8064(2)
H21_5 H 0.260(5) 0.693(6) 0.771(2)
H22_5 H 0.268(5) 0.744(6) 0.819(3)
C13_5 C 0.5379(4) 0.9998(6) 0.9174(3)
H25_5 H 0.5779 0.9948 0.9422
C14_5 C 0.4541(4) 0.9306(6) 0.9334(3)
H27_5 H 0.4425 0.9404 0.9761
C15_5 C 0.3901(4) 0.9302(6) 0.8927(3)
H28_5 H 0.3918 0.9819 0.9002
C16_5 C 0.4089(4) 0.9293(6) 0.8236(3)
H29_5 H 0.3681 0.9323 0.7983
H30_5 H 0.4084 0.8793 0.8134
C18_5 C 0.5822(4) 0.9396(6) 0.8317(3)
C19_5 C 0.4492(4) 0.8487(6) 0.9339(3)
C20_5 C 0.3073(4) 0.8646(6) 0.9128(3)
O24_5 O 0.0323(4) 0.4980(3) 0.70184(19)
O26_5 O 0.0847(4) 0.6567(3) 0.7771(2)
O28_5 O 0.2074(4) 0.5987(3) 0.9059(2)
O32_5 O 0.0616(4) 0.5345(3) 0.5727(2)
H31_5 H 0.076(5) 0.561(3) 0.540(2)
H32_5 H 0.069(4) 0.494(3) 0.570(3)
O33_5 O 0.0319(4) 0.6443(3) 0.6577(2)
H33_4 H 0.065(6) 0.687(3) 0.642(2)
H34_5 H 0.029(6) 0.642(4) 0.6947(13)
O34_5 O 0.2913(4) 0.5710(3) 0.8064(2)
H35_5 H 0.307(6) 0.568(4) 0.771(2)
H36_5 H 0.256(6) 0.525(3) 0.819(3)
C23_5 C 0.0002(6) 0.5382(4) 0.9174(3)
H39_5 H 0.0052 0.5832 0.9422
C24_5 C 0.0694(6) 0.5236(4) 0.9334(3)
H41_5 H 0.0596 0.5022 0.9761
C25_5 C 0.0698(6) 0.4600(4) 0.8927(3)
H42_5 H 0.0181 0.4100 0.9002
C26_5 C 0.0707(6) 0.4797(4) 0.8236(3)
H43_5 H 0.0677 0.4359 0.7983
H44_5 H 0.1207 0.5292 0.8134
C28_5 C 0.0604(6) 0.6427(4) 0.8317(3)
C29_5 C 0.1513(6) 0.6006(4) 0.9339(3)
C30_5 C 0.1354(6) 0.4428(4) 0.9128(3)
O37_4 O 0.4150(4) 0.3635(3) 0.53874(19)
O40_4 O 0.4941(4) 0.3265(3) 0.6293(2)
O42_4 O 0.6225(3) 0.5248(4) 0.6350(2)
O45_4 O 0.5868(3) 0.4854(4) 0.54118(19)
Yb4_4 Yb 0.950419(23) 0.514929(16) 0.621658(12)
O25_5 O 0.9284(4) 0.5089(3) 0.72710(19)
C21_5 C 0.9986(6) 0.4903(4) 0.8100(3)
H37_5 H 0.9506 0.4395 0.8228
C22_5 C 0.9984(6) 0.5568(4) 0.8496(3)
H38_5 H 0.9453 0.5522 0.8426
H40_5 H 0.9492 0.4903 0.9283
C27_5 C 0.9871(6) 0.5002(4) 0.7422(3)
O36_4 O 0.9486(3) 0.5850(4) 0.53874(19)
O39_4 O 0.8325(3) 0.5059(4) 0.6293(2)
O41_4 O 0.9024(3) 0.3775(3) 0.6350(2)
O44_4 O 0.8987(3) 0.4132(3) 0.54118(19)
Yb2_11 Yb 0.6667 0.3333 0.54823(2)
O1_5 O 0.8354(3) 0.2010(3) 0.36850(19)
O2_5 O 0.8245(3) 0.0862(3) 0.39376(19)
O3_5 O 0.6767(3) 0.0947(3) 0.4437(2)
O5_5 O 0.7347(3) 0.2754(3) 0.5725(2)
O9_6 O 0.7989(3) 0.1938(3) 0.2393(2)
H1_6 H 0.773(3) 0.182(4) 0.206(2)
H2_6 H 0.840(3) 0.242(2) 0.236(3)
O10_6 O 0.6891(3) 0.0543(3) 0.3243(2)
H3_6 H 0.647(3) 0.045(5) 0.308(2)
H4_5 H 0.692(4) 0.054(5) 0.3613(13)
O11_6 O 0.7624(3) 0.3870(3) 0.4730(2)
H5_6 H 0.766(4) 0.406(5) 0.437(2)
H6_6 H 0.809(3) 0.398(5) 0.485(3)
O12_11 O 0.6667 0.3333 0.6540(4)
C1_5 C 0.8431(4) 0.1750(4) 0.4766(3)
H8_5 H 0.8939 0.1778 0.4894
C2_5 C 0.7766(4) 0.1083(4) 0.5162(3)
H9_5 H 0.7812 0.0598 0.5092
C3_5 C 0.7952(4) 0.1287(4) 0.5840(3)
H10_5 H 0.7502 0.0887 0.6088
H11_5 H 0.8431 0.1256 0.5949
C4_5 C 0.8098(4) 0.2125(4) 0.6000(3)
H12_5 H 0.8312 0.2241 0.6427
C5_5 C 0.8734(4) 0.2765(4) 0.5593(3)
H13_5 H 0.9234 0.2748 0.5668
C6_5 C 0.8537(4) 0.2577(4) 0.4902(3)
H14_5 H 0.8975 0.2985 0.4649
H15_5 H 0.8042 0.2582 0.4800
C7_5 C 0.8332(4) 0.1536(4) 0.4088(3)
C8_5 C 0.6907(4) 0.0844(4) 0.4983(3)
C9_5 C 0.7328(4) 0.2174(4) 0.6005(3)
C10_6 C 0.8906(4) 0.3593(4) 0.5794(3)
O13_6 O 0.7990(3) 0.6343(4) 0.36850(19)
O14_6 O 0.9138(3) 0.7382(4) 0.39376(19)
O15_6 O 0.9053(3) 0.5819(4) 0.4437(2)
O17_6 O 0.7246(3) 0.4592(4) 0.5725(2)
O21_6 O 0.8062(3) 0.6050(4) 0.2393(2)
H17_6 H 0.818(4) 0.590(5) 0.206(2)
H18_6 H 0.758(2) 0.597(4) 0.236(3)
O22_6 O 0.9457(3) 0.6347(4) 0.3243(2)
H19_6 H 0.955(5) 0.601(6) 0.308(2)
H20_6 H 0.946(5) 0.637(6) 0.3613(13)
O23_6 O 0.6130(3) 0.3753(4) 0.4730(2)
H21_6 H 0.594(5) 0.359(6) 0.437(2)
H22_6 H 0.602(5) 0.410(6) 0.485(3)
C11_6 C 0.8250(4) 0.6680(6) 0.4766(3)
H23_6 H 0.8222 0.7160 0.4894
C12_6 C 0.8917(4) 0.6682(6) 0.5162(3)
H24_6 H 0.9402 0.7213 0.5092
C13_6 C 0.8713(4) 0.6664(6) 0.5840(3)
H25_6 H 0.9113 0.6614 0.6088
H26_6 H 0.8744 0.7174 0.5949
C14_6 C 0.7875(4) 0.5972(6) 0.6000(3)
H27_6 H 0.7759 0.6070 0.6427
C15_6 C 0.7235(4) 0.5968(6) 0.5593(3)
H28_6 H 0.7252 0.6485 0.5668
C16_6 C 0.7423(4) 0.5959(6) 0.4902(3)
H29_6 H 0.7015 0.5989 0.4649
H30_6 H 0.7418 0.5459 0.4800
C17_6 C 0.8464(4) 0.6795(6) 0.4088(3)
C18_6 C 0.9156(4) 0.6062(6) 0.4983(3)
C19_6 C 0.7826(4) 0.5153(6) 0.6005(3)
C20_6 C 0.6407(4) 0.5312(6) 0.5794(3)
O24_6 O 0.3657(4) 0.1646(3) 0.36850(19)
O25_6 O 0.2618(4) 0.1755(3) 0.39376(19)
O26_6 O 0.4181(4) 0.3233(3) 0.4437(2)
O28_6 O 0.5408(4) 0.2653(3) 0.5725(2)
O32_6 O 0.3950(4) 0.2011(3) 0.2393(2)
H31_6 H 0.410(5) 0.227(3) 0.206(2)
H32_6 H 0.403(4) 0.160(3) 0.236(3)
O33_6 O 0.3653(4) 0.3109(3) 0.3243(2)
H33_5 H 0.399(6) 0.353(3) 0.308(2)
H34_6 H 0.363(6) 0.308(4) 0.3613(13)
O34_6 O 0.6247(4) 0.2376(3) 0.4730(2)
H35_6 H 0.641(6) 0.234(4) 0.437(2)
H36_6 H 0.590(6) 0.191(3) 0.485(3)
C21_6 C 0.3320(6) 0.1569(4) 0.4766(3)
H37_6 H 0.2840 0.1061 0.4894
C22_6 C 0.3318(6) 0.2234(4) 0.5162(3)
H38_6 H 0.2787 0.2188 0.5092
C23_6 C 0.3336(6) 0.2048(4) 0.5840(3)
H39_6 H 0.3386 0.2498 0.6088
H40_6 H 0.2826 0.1569 0.5949
C24_6 C 0.4028(6) 0.1902(4) 0.6000(3)
H41_6 H 0.3930 0.1688 0.6427
C25_6 C 0.4032(6) 0.1266(4) 0.5593(3)
H42_6 H 0.3515 0.0766 0.5668
C26_6 C 0.4041(6) 0.1463(4) 0.4902(3)
H43_6 H 0.4011 0.1025 0.4649
H44_6 H 0.4541 0.1958 0.4800
C27_6 C 0.3205(6) 0.1668(4) 0.4088(3)
C28_6 C 0.3938(6) 0.3093(4) 0.4983(3)
C29_6 C 0.4847(6) 0.2672(4) 0.6005(3)
C30_6 C 0.4688(6) 0.1094(4) 0.5794(3)
Yb2_12 Yb 0.0000 1.0000 0.21490(2)
O1_6 O 0.1687(3) 0.8677(3) 0.03517(19)
O2_6 O 0.1578(3) 0.7529(3) 0.06043(19)
O3_6 O 0.0100(3) 0.7614(3) 0.1104(2)
O5_6 O 0.0680(3) 0.9421(3) 0.2392(2)
O6_2 O 0.0068(3) 0.8342(3) 0.2960(2)
H4_6 H 0.025(4) 0.721(5) 0.0280(13)
O12_12 O 0.0000 1.0000 0.3207(4)
C1_6 C 0.1764(4) 0.8417(4) 0.1433(3)
H8_6 H 0.2272 0.8445 0.1561
C2_6 C 0.1099(4) 0.7750(4) 0.1829(3)
H9_6 H 0.1145 0.7265 0.1759
C3_6 C 0.1285(4) 0.7954(4) 0.2507(3)
H10_6 H 0.0835 0.7554 0.2755
H11_6 H 0.1764 0.7923 0.2616
C4_6 C 0.1431(4) 0.8792(4) 0.2667(3)
H12_6 H 0.1645 0.8908 0.3094
C5_6 C 0.2067(4) 0.9432(4) 0.2260(3)
H13_6 H 0.2567 0.9415 0.2335
C6_6 C 0.1870(4) 0.9244(4) 0.1569(3)
H14_6 H 0.2308 0.9652 0.1316
H15_6 H 0.1375 0.9249 0.1467
C7_6 C 0.1665(4) 0.8203(4) 0.0755(3)
C8_6 C 0.0240(4) 0.7511(4) 0.1650(3)
C9_6 C 0.0661(4) 0.8841(4) 0.2672(3)
H33_6 H 0.732(6) 0.020(3) 0.975(2)
loop_
_geom_bond_atom_site_label_1
_geom_bond_atom_site_label_2
_geom_bond_site_symmetry_1
_geom_bond_site_symmetry_2
O32 Yb4 1_555 1_555
H31 O32 1_555 1_555
H32 O32 1_555 1_555
O33 Yb4 1_555 1_555
O36 Yb4 1_555 1_555
O39 Yb4 1_555 1_555
O41 Yb4 1_555 1_555
O44 Yb4 1_555 1_555
O12 Yb2 1_555 1_555
H7 O12 1_555 1_555
O24 C27 1_555 1_555
O26 C28 1_555 1_555
O28 Yb2 1_555 1_555
O29 C29 1_555 1_555
O30 C30 1_555 1_555
O31 C30 1_555 1_555
O34 Yb2 1_555 1_555
H35 O34 1_555 1_555
H36 O34 1_555 1_555
C21 H37 1_555 1_555
C22 C21 1_555 1_555
H38 C22 1_555 1_555
C23 C22 1_555 1_555
H39 C23 1_555 1_555
H40 C23 1_555 1_555
C24 C23 1_555 1_555
H41 C24 1_555 1_555
C25 C24 1_555 1_555
H42 C25 1_555 1_555
C26 C21 1_555 1_555
H43 C26 1_555 1_555
H44 C26 1_555 1_555
C27 O25 1_555 1_555
C28 C22 1_555 1_555
C29 O28 1_555 1_555
C30 C25 1_555 1_555
Yb6 O4 1_555 1_555
O30 Yb6 1_555 1_555
O31 Yb6 1_555 1_555
C21 C27 1_555 1_555
C24 C29 1_555 1_555
C25 C26 1_555 1_555
O12_2 Yb2_2 1_555 1_555
H16 O12_2 1_555 1_555
O19 C20 1_555 1_555
O20 C20 1_555 1_555
O23 Yb2_2 1_555 1_555
H21 O23 1_555 1_555
H22 O23 1_555 1_555
Yb5 O19 1_555 1_555
O20 Yb5 1_555 1_555
O27 Yb5 1_555 1_555
O9 Yb1 1_555 1_555
H1 O9 1_555 1_555
H2 O9 1_555 1_555
O10 Yb1 1_555 1_555
O37 Yb1 1_555 1_555
O40 Yb1 1_555 1_555
O42 Yb1 1_555 1_555
O45 Yb1 1_555 1_555
O21 Yb3 1_555 1_555
H17 O21 1_555 1_555
H18 O21 1_555 1_555
O22 Yb3 1_555 1_555
H19 O22 1_555 1_555
O35 Yb3 1_555 1_555
O38 Yb3 1_555 1_555
O43 Yb3 1_555 1_555
O46 Yb3 1_555 1_555
O7 C10 1_555 1_555
O8 C10 1_555 1_555
O11 Yb2_3 1_555 1_555
H5 O11 1_555 1_555
H6 O11 1_555 1_555
O12_3 Yb2_3 1_555 1_555
O13 C17 1_555 1_555
O15 C18 1_555 1_555
O16 C18 1_555 1_555
O17 Yb2_3 1_555 1_555
O18 C19 1_555 1_555
C11 H23 1_555 1_555
C12 C11 1_555 1_555
H24 C12 1_555 1_555
C13 C12 1_555 1_555
H25 C13 1_555 1_555
H26 C13 1_555 1_555
C14 C13 1_555 1_555
H27 C14 1_555 1_555
C15 C14 1_555 1_555
H28 C15 1_555 1_555
C16 C11 1_555 1_555
H29 C16 1_555 1_555
H30 C16 1_555 1_555
C17 O14 1_555 1_555
C18 C12 1_555 1_555
C19 O17 1_555 1_555
Yb7 O7 1_555 1_555
O8 Yb7 1_555 1_555
O16 Yb7 1_555 1_555
O18 Yb7 1_555 1_555
C11 C17 1_555 1_555
C14 C19 1_555 1_555
C15 C16 1_555 1_555
H7_2 O12_3 1_555 1_555
O25_2 Yb4_2 1_555 1_555
C21_2 H37_2 1_555 1_555
C22_2 C21_2 1_555 1_555
H38_2 C22_2 1_555 1_555
C27_2 O25_2 1_555 1_555
O36_2 Yb4_2 1_555 1_555
O39_2 Yb4_2 1_555 1_555
O41_2 Yb4_2 1_555 1_555
O44_2 Yb4_2 1_555 1_555
C21_2 C27_2 1_555 1_555
Yb1_2 O1 1_555 1_555
Yb2_4 O5 1_555 1_555
O1 C7 1_555 1_555
O2 Yb1_2 1_555 1_555
O3 C8 1_555 1_555
O35 C8 1_555 1_555
O5 C9 1_555 1_555
O38 C9 1_555 1_555
O41 C10_2 1_555 1_555
O44 C10_2 1_555 1_555
O9_2 Yb1_2 1_555 1_555
H1_2 O9_2 1_555 1_555
H2_2 O9_2 1_555 1_555
O10_2 Yb1_2 1_555 1_555
H3_2 O10_2 1_555 1_555
H4 O10_2 1_555 1_555
O11_2 Yb2_4 1_555 1_555
H5_2 O11_2 1_555 1_555
H6_2 O11_2 1_555 1_555
O12_4 Yb2_4 1_555 1_555
C1 H8 1_555 1_555
C2 C1 1_555 1_555
H9 C2 1_555 1_555
C3 C2 1_555 1_555
H10 C3 1_555 1_555
H11 C3 1_555 1_555
C4 C3 1_555 1_555
H12 C4 1_555 1_555
C5 C4 1_555 1_555
H13 C5 1_555 1_555
C6 C1 1_555 1_555
H14 C6 1_555 1_555
H15 C6 1_555 1_555
C7 O2 1_555 1_555
C8 C2 1_555 1_555
C9 C4 1_555 1_555
C10_2 C5 1_555 1_555
O15_2 C18_2 1_555 1_555
O36 C18_2 1_555 1_555
O17_2 Yb2_4 1_555 1_555
O39 C19_2 1_555 1_555
O42 C20_2 1_555 1_555
O45 C20_2 1_555 1_555
H17_2 O21_2 1_555 1_555
H18_2 O21_2 1_555 1_555
H19_2 O22_2 1_555 1_555
H20_2 O22_2 1_555 1_555
O23_2 Yb2_4 1_555 1_555
H21_2 O23_2 1_555 1_555
H22_2 O23_2 1_555 1_555
H25_2 C13_2 1_555 1_555
C14_2 C13_2 1_555 1_555
H27_2 C14_2 1_555 1_555
C15_2 C14_2 1_555 1_555
H28_2 C15_2 1_555 1_555
H29_2 C16_2 1_555 1_555
H30_2 C16_2 1_555 1_555
C19_2 O17_2 1_555 1_555
C20_2 C15_2 1_555 1_555
O26_2 C28_2 1_555 1_555
O37 C28_2 1_555 1_555
O28_2 Yb2_4 1_555 1_555
O40 C29_2 1_555 1_555
O43 C30_2 1_555 1_555
O46 C30_2 1_555 1_555
H31_2 O32_2 1_555 1_555
H32_2 O32_2 1_555 1_555
H33 O33_2 1_555 1_555
H34_2 O33_2 1_555 1_555
O34_2 Yb2_4 1_555 1_555
H35_2 O34_2 1_555 1_555
H36_2 O34_2 1_555 1_555
H39_2 C23_2 1_555 1_555
C24_2 C23_2 1_555 1_555
H41_2 C24_2 1_555 1_555
C25_2 C24_2 1_555 1_555
H42_2 C25_2 1_555 1_555
H43_2 C26_2 1_555 1_555
H44_2 C26_2 1_555 1_555
C29_2 O28_2 1_555 1_555
C30_2 C25_2 1_555 1_555
O37_2 Yb1_2 1_555 1_555
O40_2 Yb1_2 1_555 1_555
O42_2 Yb1_2 1_555 1_555
O45_2 Yb1_2 1_555 1_555
C1 C7 1_555 1_555
C5 C6 1_555 1_555
C14_2 C19_2 1_555 1_555
C15_2 C16_2 1_555 1_555
C24_2 C29_2 1_555 1_555
C25_2 C26_2 1_555 1_555
O14_2 Yb3_2 1_555 1_555
C11_2 H23_2 1_555 1_555
C12_2 C11_2 1_555 1_555
H24_2 C12_2 1_555 1_555
C17_2 O14_2 1_555 1_555
O35_2 Yb3_2 1_555 1_555
O38_2 Yb3_2 1_555 1_555
O43_2 Yb3_2 1_555 1_555
O46_2 Yb3_2 1_555 1_555
C11_2 C17_2 1_555 1_555
Yb5 O1_2 1_555 1_555
Yb2_5 O5_2 1_555 1_555
O1_2 C7_2 1_555 1_555
O2_2 Yb5 1_555 1_555
O3_2 C8_2 1_555 1_555
O35_2 C8_2 1_555 1_555
O5_2 C9_2 1_555 1_555
O38_2 C9_2 1_555 1_555
O41_2 C10_3 1_555 1_555
O44_2 C10_3 1_555 1_555
O9_3 Yb5 1_555 1_555
H1_3 O9_3 1_555 1_555
H2_3 O9_3 1_555 1_555
O10_3 Yb5 1_555 1_555
H3_3 O10_3 1_555 1_555
H4_2 O10_3 1_555 1_555
O11_3 Yb2_5 1_555 1_555
H5_3 O11_3 1_555 1_555
H6_3 O11_3 1_555 1_555
O12_5 Yb2_5 1_555 1_555
C1_2 H8_2 1_555 1_555
C2_2 C1_2 1_555 1_555
H9_2 C2_2 1_555 1_555
C3_2 C2_2 1_555 1_555
H10_2 C3_2 1_555 1_555
H11_2 C3_2 1_555 1_555
C4_2 C3_2 1_555 1_555
H12_2 C4_2 1_555 1_555
C5_2 C4_2 1_555 1_555
H13_2 C5_2 1_555 1_555
C6_2 C1_2 1_555 1_555
H14_2 C6_2 1_555 1_555
H15_2 C6_2 1_555 1_555
C7_2 O2_2 1_555 1_555
C8_2 C2_2 1_555 1_555
C9_2 C4_2 1_555 1_555
C10_3 C5_2 1_555 1_555
Yb6 O13_3 1_555 1_555
O13_3 C17_3 1_555 1_555
O14_3 Yb6 1_555 1_555
O15_3 C18_3 1_555 1_555
O36_2 C18_3 1_555 1_555
O17_3 Yb2_5 1_555 1_555
O39_2 C19_3 1_555 1_555
O42_2 C20_3 1_555 1_555
O45_2 C20_3 1_555 1_555
O21_3 Yb6 1_555 1_555
H17_3 O21_3 1_555 1_555
H18_3 O21_3 1_555 1_555
O22_3 Yb6 1_555 1_555
H19_3 O22_3 1_555 1_555
H20_3 O22_3 1_555 1_555
O23_3 Yb2_5 1_555 1_555
H21_3 O23_3 1_555 1_555
H22_3 O23_3 1_555 1_555
C11_3 H23_3 1_555 1_555
C12_3 C11_3 1_555 1_555
H24_3 C12_3 1_555 1_555
C13_3 C12_3 1_555 1_555
H25_3 C13_3 1_555 1_555
H26_3 C13_3 1_555 1_555
C14_3 C13_3 1_555 1_555
H27_3 C14_3 1_555 1_555
C15_3 C14_3 1_555 1_555
H28_3 C15_3 1_555 1_555
C16_3 C11_3 1_555 1_555
H29_3 C16_3 1_555 1_555
H30_3 C16_3 1_555 1_555
C17_3 O14_3 1_555 1_555
C18_3 C12_3 1_555 1_555
C19_3 O17_3 1_555 1_555
C20_3 C15_3 1_555 1_555
Yb7 O24_3 1_555 1_555
O24_3 C27_3 1_555 1_555
O25_3 Yb7 1_555 1_555
O26_3 C28_3 1_555 1_555
O37_2 C28_3 1_555 1_555
O28_3 Yb2_5 1_555 1_555
O40_2 C29_3 1_555 1_555
O43_2 C30_3 1_555 1_555
O46_2 C30_3 1_555 1_555
O32_3 Yb7 1_555 1_555
H31_3 O32_3 1_555 1_555
H32_3 O32_3 1_555 1_555
O33_3 Yb7 1_555 1_555
H33_2 O33_3 1_555 1_555
H34_3 O33_3 1_555 1_555
O34_3 Yb2_5 1_555 1_555
H35_3 O34_3 1_555 1_555
H36_3 O34_3 1_555 1_555
C21_3 H37_3 1_555 1_555
C22_3 C21_3 1_555 1_555
H38_3 C22_3 1_555 1_555
C23_3 C22_3 1_555 1_555
H39_3 C23_3 1_555 1_555
H40_3 C23_3 1_555 1_555
C24_3 C23_3 1_555 1_555
H41_3 C24_3 1_555 1_555
C25_3 C24_3 1_555 1_555
H42_3 C25_3 1_555 1_555
C26_3 C21_3 1_555 1_555
H43_3 C26_3 1_555 1_555
H44_3 C26_3 1_555 1_555
C27_3 O25_3 1_555 1_555
C28_3 C22_3 1_555 1_555
C29_3 O28_3 1_555 1_555
C30_3 C25_3 1_555 1_555
C1_2 C7_2 1_555 1_555
C5_2 C6_2 1_555 1_555
C11_3 C17_3 1_555 1_555
C14_3 C19_3 1_555 1_555
C15_3 C16_3 1_555 1_555
C21_3 C27_3 1_555 1_555
C24_3 C29_3 1_555 1_555
C25_3 C26_3 1_555 1_555
Yb2_6 O5_3 1_555 1_555
O1_3 C7_3 1_555 1_555
O3_3 C8_3 1_555 1_555
O5_3 C9_3 1_555 1_555
O6 C9_3 1_555 1_555
O12_6 Yb2_6 1_555 1_555
C1_3 H8_3 1_555 1_555
C2_3 C1_3 1_555 1_555
H9_3 C2_3 1_555 1_555
C3_3 C2_3 1_555 1_555
H10_3 C3_3 1_555 1_555
H11_3 C3_3 1_555 1_555
C4_3 C3_3 1_555 1_555
H12_3 C4_3 1_555 1_555
C5_3 C4_3 1_555 1_555
H13_3 C5_3 1_555 1_555
C6_3 C1_3 1_555 1_555
H14_3 C6_3 1_555 1_555
H15_3 C6_3 1_555 1_555
C7_3 O2_3 1_555 1_555
C8_3 C2_3 1_555 1_555
C9_3 C4_3 1_555 1_555
C1_3 C7_3 1_555 1_555
C5_3 C6_3 1_555 1_555
O7_2 C10_4 1_555 1_555
O8_2 C10_4 1_555 1_555
O11_4 Yb2_7 1_555 1_555
H5_4 O11_4 1_555 1_555
H6_4 O11_4 1_555 1_555
O12_7 Yb2_7 1_555 1_555
O13_4 C17_4 1_555 1_555
O15_4 C18_4 1_555 1_555
O16_2 C18_4 1_555 1_555
O17_4 Yb2_7 1_555 1_555
O18_2 C19_4 1_555 1_555
C11_4 H23_4 1_555 1_555
C12_4 C11_4 1_555 1_555
H24_4 C12_4 1_555 1_555
C13_4 C12_4 1_555 1_555
H25_4 C13_4 1_555 1_555
H26_4 C13_4 1_555 1_555
C14_4 C13_4 1_555 1_555
H27_4 C14_4 1_555 1_555
C15_4 C14_4 1_555 1_555
H28_4 C15_4 1_555 1_555
C16_4 C11_4 1_555 1_555
H29_4 C16_4 1_555 1_555
H30_4 C16_4 1_555 1_555
C17_4 O14_4 1_555 1_555
C18_4 C12_4 1_555 1_555
C19_4 O17_4 1_555 1_555
Yb7_2 O7_2 1_555 1_555
O8_2 Yb7_2 1_555 1_555
O16_2 Yb7_2 1_555 1_555
O18_2 Yb7_2 1_555 1_555
C11_4 C17_4 1_555 1_555
C14_4 C19_4 1_555 1_555
C15_4 C16_4 1_555 1_555
O21_4 Yb3_3 1_555 1_555
H17_4 O21_4 1_555 1_555
H18_4 O21_4 1_555 1_555
O22_4 Yb3_3 1_555 1_555
H19_4 O22_4 1_555 1_555
O35_3 Yb3_3 1_555 1_555
O38_3 Yb3_3 1_555 1_555
O43_3 Yb3_3 1_555 1_555
O46_3 Yb3_3 1_555 1_555
O9_4 Yb1_3 1_555 1_555
H1_4 O9_4 1_555 1_555
H2_4 O9_4 1_555 1_555
O10_4 Yb1_3 1_555 1_555
O37_3 Yb1_3 1_555 1_555
O40_3 Yb1_3 1_555 1_555
O42_3 Yb1_3 1_555 1_555
O45_3 Yb1_3 1_555 1_555
O12_8 Yb2_8 1_555 1_555
H16_2 O12_8 1_555 1_555
O19_2 C20_4 1_555 1_555
O20_2 C20_4 1_555 1_555
O23_4 Yb2_8 1_555 1_555
H21_4 O23_4 1_555 1_555
H22_4 O23_4 1_555 1_555
Yb5_2 O19_2 1_555 1_555
O20_2 Yb5_2 1_555 1_555
O27_2 Yb5_2 1_555 1_555
O12_9 Yb2_9 1_555 1_555
H7_3 O12_9 1_555 1_555
O24_4 C27_4 1_555 1_555
O26_4 C28_4 1_555 1_555
O28_4 Yb2_9 1_555 1_555
O29_2 C29_4 1_555 1_555
O30_2 C30_4 1_555 1_555
O31_2 C30_4 1_555 1_555
O34_4 Yb2_9 1_555 1_555
H35_4 O34_4 1_555 1_555
H36_4 O34_4 1_555 1_555
C21_4 H37_4 1_555 1_555
C22_4 C21_4 1_555 1_555
H38_4 C22_4 1_555 1_555
C23_4 C22_4 1_555 1_555
H39_4 C23_4 1_555 1_555
H40_4 C23_4 1_555 1_555
C24_4 C23_4 1_555 1_555
H41_4 C24_4 1_555 1_555
C25_4 C24_4 1_555 1_555
H42_4 C25_4 1_555 1_555
C26_4 C21_4 1_555 1_555
H43_4 C26_4 1_555 1_555
H44_4 C26_4 1_555 1_555
C27_4 O25_4 1_555 1_555
C28_4 C22_4 1_555 1_555
C29_4 O28_4 1_555 1_555
C30_4 C25_4 1_555 1_555
Yb6_2 O4_2 1_555 1_555
O30_2 Yb6_2 1_555 1_555
O31_2 Yb6_2 1_555 1_555
C21_4 C27_4 1_555 1_555
C24_4 C29_4 1_555 1_555
C25_4 C26_4 1_555 1_555
O32_4 Yb4_3 1_555 1_555
H31_4 O32_4 1_555 1_555
H32_4 O32_4 1_555 1_555
O33_4 Yb4_3 1_555 1_555
O36_3 Yb4_3 1_555 1_555
O39_3 Yb4_3 1_555 1_555
O41_3 Yb4_3 1_555 1_555
O44_3 Yb4_3 1_555 1_555
H7_4 O12_7 1_555 1_555
O14_5 Yb3_4 1_555 1_555
C11_5 H23_5 1_555 1_555
C12_5 C11_5 1_555 1_555
H24_5 C12_5 1_555 1_555
C17_5 O14_5 1_555 1_555
O35_4 Yb3_4 1_555 1_555
O38_4 Yb3_4 1_555 1_555
O43_4 Yb3_4 1_555 1_555
O46_4 Yb3_4 1_555 1_555
C11_5 C17_5 1_555 1_555
Yb1_4 O1_4 1_555 1_555
Yb2_10 O5_4 1_555 1_555
O1_4 C7_4 1_555 1_555
O2_4 Yb1_4 1_555 1_555
O3_4 C8_4 1_555 1_555
O35_3 C8_4 1_555 1_555
O5_4 C9_4 1_555 1_555
O38_3 C9_4 1_555 1_555
O41_3 C10_5 1_555 1_555
O44_3 C10_5 1_555 1_555
O9_5 Yb1_4 1_555 1_555
H1_5 O9_5 1_555 1_555
H2_5 O9_5 1_555 1_555
O10_5 Yb1_4 1_555 1_555
H3_5 O10_5 1_555 1_555
H4_4 O10_5 1_555 1_555
O11_5 Yb2_10 1_555 1_555
H5_5 O11_5 1_555 1_555
H6_5 O11_5 1_555 1_555
O12_10 Yb2_10 1_555 1_555
C1_4 H8_4 1_555 1_555
C2_4 C1_4 1_555 1_555
H9_4 C2_4 1_555 1_555
C3_4 C2_4 1_555 1_555
H10_4 C3_4 1_555 1_555
H11_4 C3_4 1_555 1_555
C4_4 C3_4 1_555 1_555
H12_4 C4_4 1_555 1_555
C5_4 C4_4 1_555 1_555
H13_4 C5_4 1_555 1_555
C6_4 C1_4 1_555 1_555
H14_4 C6_4 1_555 1_555
H15_4 C6_4 1_555 1_555
C7_4 O2_4 1_555 1_555
C8_4 C2_4 1_555 1_555
C9_4 C4_4 1_555 1_555
C10_5 C5_4 1_555 1_555
O15_5 C18_5 1_555 1_555
O36_3 C18_5 1_555 1_555
O17_5 Yb2_10 1_555 1_555
O39_3 C19_5 1_555 1_555
O42_3 C20_5 1_555 1_555
O45_3 C20_5 1_555 1_555
H17_5 O21_5 1_555 1_555
H18_5 O21_5 1_555 1_555
H19_5 O22_5 1_555 1_555
H20_5 O22_5 1_555 1_555
O23_5 Yb2_10 1_555 1_555
H21_5 O23_5 1_555 1_555
H22_5 O23_5 1_555 1_555
H25_5 C13_5 1_555 1_555
C14_5 C13_5 1_555 1_555
H27_5 C14_5 1_555 1_555
C15_5 C14_5 1_555 1_555
H28_5 C15_5 1_555 1_555
H29_5 C16_5 1_555 1_555
H30_5 C16_5 1_555 1_555
C19_5 O17_5 1_555 1_555
C20_5 C15_5 1_555 1_555
O26_5 C28_5 1_555 1_555
O37_3 C28_5 1_555 1_555
O28_5 Yb2_10 1_555 1_555
O40_3 C29_5 1_555 1_555
O43_3 C30_5 1_555 1_555
O46_3 C30_5 1_555 1_555
H31_5 O32_5 1_555 1_555
H32_5 O32_5 1_555 1_555
H33_4 O33_5 1_555 1_555
H34_5 O33_5 1_555 1_555
O34_5 Yb2_10 1_555 1_555
H35_5 O34_5 1_555 1_555
H36_5 O34_5 1_555 1_555
H39_5 C23_5 1_555 1_555
C24_5 C23_5 1_555 1_555
H41_5 C24_5 1_555 1_555
C25_5 C24_5 1_555 1_555
H42_5 C25_5 1_555 1_555
H43_5 C26_5 1_555 1_555
H44_5 C26_5 1_555 1_555
C29_5 O28_5 1_555 1_555
C30_5 C25_5 1_555 1_555
O37_4 Yb1_4 1_555 1_555
O40_4 Yb1_4 1_555 1_555
O42_4 Yb1_4 1_555 1_555
O45_4 Yb1_4 1_555 1_555
C1_4 C7_4 1_555 1_555
C5_4 C6_4 1_555 1_555
C14_5 C19_5 1_555 1_555
C15_5 C16_5 1_555 1_555
C24_5 C29_5 1_555 1_555
C25_5 C26_5 1_555 1_555
O25_5 Yb4_4 1_555 1_555
C21_5 H37_5 1_555 1_555
C22_5 C21_5 1_555 1_555
H38_5 C22_5 1_555 1_555
C27_5 O25_5 1_555 1_555
O36_4 Yb4_4 1_555 1_555
O39_4 Yb4_4 1_555 1_555
O41_4 Yb4_4 1_555 1_555
O44_4 Yb4_4 1_555 1_555
C21_5 C27_5 1_555 1_555
Yb5_2 O1_5 1_555 1_555
Yb2_11 O5_5 1_555 1_555
O1_5 C7_5 1_555 1_555
O2_5 Yb5_2 1_555 1_555
O3_5 C8_5 1_555 1_555
O35_4 C8_5 1_555 1_555
O5_5 C9_5 1_555 1_555
O38_4 C9_5 1_555 1_555
O41_4 C10_6 1_555 1_555
O44_4 C10_6 1_555 1_555
O9_6 Yb5_2 1_555 1_555
H1_6 O9_6 1_555 1_555
H2_6 O9_6 1_555 1_555
O10_6 Yb5_2 1_555 1_555
H3_6 O10_6 1_555 1_555
H4_5 O10_6 1_555 1_555
O11_6 Yb2_11 1_555 1_555
H5_6 O11_6 1_555 1_555
H6_6 O11_6 1_555 1_555
O12_11 Yb2_11 1_555 1_555
C1_5 H8_5 1_555 1_555
C2_5 C1_5 1_555 1_555
H9_5 C2_5 1_555 1_555
C3_5 C2_5 1_555 1_555
H10_5 C3_5 1_555 1_555
H11_5 C3_5 1_555 1_555
C4_5 C3_5 1_555 1_555
H12_5 C4_5 1_555 1_555
C5_5 C4_5 1_555 1_555
H13_5 C5_5 1_555 1_555
C6_5 C1_5 1_555 1_555
H14_5 C6_5 1_555 1_555
H15_5 C6_5 1_555 1_555
C7_5 O2_5 1_555 1_555
C8_5 C2_5 1_555 1_555
C9_5 C4_5 1_555 1_555
C10_6 C5_5 1_555 1_555
Yb6_2 O13_6 1_555 1_555
O13_6 C17_6 1_555 1_555
O14_6 Yb6_2 1_555 1_555
O15_6 C18_6 1_555 1_555
O36_4 C18_6 1_555 1_555
O17_6 Yb2_11 1_555 1_555
O39_4 C19_6 1_555 1_555
O42_4 C20_6 1_555 1_555
O45_4 C20_6 1_555 1_555
O21_6 Yb6_2 1_555 1_555
H17_6 O21_6 1_555 1_555
H18_6 O21_6 1_555 1_555
O22_6 Yb6_2 1_555 1_555
H19_6 O22_6 1_555 1_555
H20_6 O22_6 1_555 1_555
O23_6 Yb2_11 1_555 1_555
H21_6 O23_6 1_555 1_555
H22_6 O23_6 1_555 1_555
C11_6 H23_6 1_555 1_555
C12_6 C11_6 1_555 1_555
H24_6 C12_6 1_555 1_555
C13_6 C12_6 1_555 1_555
H25_6 C13_6 1_555 1_555
H26_6 C13_6 1_555 1_555
C14_6 C13_6 1_555 1_555
H27_6 C14_6 1_555 1_555
C15_6 C14_6 1_555 1_555
H28_6 C15_6 1_555 1_555
C16_6 C11_6 1_555 1_555
H29_6 C16_6 1_555 1_555
H30_6 C16_6 1_555 1_555
C17_6 O14_6 1_555 1_555
C18_6 C12_6 1_555 1_555
C19_6 O17_6 1_555 1_555
C20_6 C15_6 1_555 1_555
Yb7_2 O24_6 1_555 1_555
O24_6 C27_6 1_555 1_555
O25_6 Yb7_2 1_555 1_555
O26_6 C28_6 1_555 1_555
O37_4 C28_6 1_555 1_555
O28_6 Yb2_11 1_555 1_555
O40_4 C29_6 1_555 1_555
O43_4 C30_6 1_555 1_555
O46_4 C30_6 1_555 1_555
O32_6 Yb7_2 1_555 1_555
H31_6 O32_6 1_555 1_555
H32_6 O32_6 1_555 1_555
O33_6 Yb7_2 1_555 1_555
H33_5 O33_6 1_555 1_555
H34_6 O33_6 1_555 1_555
O34_6 Yb2_11 1_555 1_555
H35_6 O34_6 1_555 1_555
H36_6 O34_6 1_555 1_555
C21_6 H37_6 1_555 1_555
C22_6 C21_6 1_555 1_555
H38_6 C22_6 1_555 1_555
C23_6 C22_6 1_555 1_555
H39_6 C23_6 1_555 1_555
H40_6 C23_6 1_555 1_555
C24_6 C23_6 1_555 1_555
H41_6 C24_6 1_555 1_555
C25_6 C24_6 1_555 1_555
H42_6 C25_6 1_555 1_555
C26_6 C21_6 1_555 1_555
H43_6 C26_6 1_555 1_555
H44_6 C26_6 1_555 1_555
C27_6 O25_6 1_555 1_555
C28_6 C22_6 1_555 1_555
C29_6 O28_6 1_555 1_555
C30_6 C25_6 1_555 1_555
C1_5 C7_5 1_555 1_555
C5_5 C6_5 1_555 1_555
C11_6 C17_6 1_555 1_555
C14_6 C19_6 1_555 1_555
C15_6 C16_6 1_555 1_555
C21_6 C27_6 1_555 1_555
C24_6 C29_6 1_555 1_555
C25_6 C26_6 1_555 1_555
Yb2_12 O5_6 1_555 1_555
O1_6 C7_6 1_555 1_555
O3_6 C8_6 1_555 1_555
O5_6 C9_6 1_555 1_555
O6_2 C9_6 1_555 1_555
O12_12 Yb2_12 1_555 1_555
C1_6 H8_6 1_555 1_555
C2_6 C1_6 1_555 1_555
H9_6 C2_6 1_555 1_555
C3_6 C2_6 1_555 1_555
H10_6 C3_6 1_555 1_555
H11_6 C3_6 1_555 1_555
C4_6 C3_6 1_555 1_555
H12_6 C4_6 1_555 1_555
C5_6 C4_6 1_555 1_555
H13_6 C5_6 1_555 1_555
C6_6 C1_6 1_555 1_555
H14_6 C6_6 1_555 1_555
H15_6 C6_6 1_555 1_555
C7_6 O2_6 1_555 1_555
C8_6 C2_6 1_555 1_555
C9_6 C4_6 1_555 1_555
C1_6 C7_6 1_555 1_555
C5_6 C6_6 1_555 1_555

#END
