
###############################################################################
#
# This file contains modified crystal structure data generated from the
# MOF subset of the Cambridge Structural Database (CSD) v543 
# hosted by the Cambridge Crystallographic Data Centre (CCDC).
#
# This work is licensed under the Creative Commons
# Attribution-NonCommercial-ShareAlike 4.0 International License.
# To view a copy of this license, visit
# http://creativecommons.org/licenses/by-nc-sa/4.0/
# or send a letter to
# Creative Commons, PO Box 1866, Mountain View, CA 94042, USA.
#
# CIF created using the CSD Python API on 29 September 2022
# The structure has been converted into the P1 space group
# The structure has a 3D framework
# The original CSD entry UDITAE is in the rhombohedral crystal system
# The framework has been calculated to contain at least 10.0% void space
# The void calculation uses a probe of radius 1.32A, grid spacing 0.4
# Generated hydrogen atom positions removed from atoms on special positions
#
###############################################################################

data_UDITAE
_chemical_formula_moiety         '(C180 H270 O210 Tm30)n'
_symmetry_cell_setting           triclinic
_symmetry_space_group_name_H-M   'P 1'
_symmetry_Int_Tables_number      1
_space_group_name_Hall           'P 1'
loop_
_symmetry_equiv_pos_site_id
_symmetry_equiv_pos_as_xyz
1 x,y,z
_cell_length_a                   19.352(4)
_cell_length_b                   19.352(4)
_cell_length_c                   21.811(6)
_cell_angle_alpha                90
_cell_angle_beta                 90
_cell_angle_gamma                120
_cell_volume                     7073.88
loop_
_atom_site_label
_atom_site_type_symbol
_atom_site_fract_x
_atom_site_fract_y
_atom_site_fract_z
O8 O 0.0710(2) 0.5798(2) 0.27254(16)
H2 H 0.0198(19) 0.734(2) 0.0261(18)
C1 C 0.0016(3) 0.5581(3) 0.1504(2)
H7 H 0.0539 0.6057 0.1572
H8 H 0.0494 0.5391 0.0723
C6 C 0.0007(3) 0.4912(3) 0.1899(2)
H14 H 0.0478 0.4883 0.1774
C10 C 0.0125(3) 0.5125(3) 0.2569(2)
Tm6 Tm 0.049613(13) 0.564481(18) 0.378217(10)
Tm1 Tm 0.848202(13) 0.617054(13) 0.044884(10)
Tm2 Tm 0.6667 0.3333 0.11828(2)
O1 O 0.9187(2) 0.6151(2) 0.12806(15)
O2 O 0.9155(2) 0.5716(2) 0.22264(15)
O3 O 0.8401(2) 0.4993(2) 0.03645(18)
O4 O 0.7935(2) 0.3917(2) 0.09402(19)
O5 O 0.8584(2) 0.2893(2) 0.03128(16)
O6 O 0.8191(2) 0.2539(2) 0.12521(16)
O7 O 0.9675(2) 0.4656(2) 0.29789(15)
O9 O 0.9775(2) 0.6988(2) 0.00858(16)
O10 O 0.8682(2) 0.7290(2) 0.09442(16)
H3 H 0.893(3) 0.738(3) 0.1285(12)
H4 H 0.829(2) 0.738(3) 0.097(2)
O11 O 0.6667 0.3333 0.0122(4)
O12 O 0.5714(2) 0.2922(2) 0.1941(2)
H5 H 0.5230(12) 0.257(3) 0.188(3)
H6 H 0.576(3) 0.320(3) 0.2257(19)
C2 C 0.9996(3) 0.5368(3) 0.0827(2)
H9 H 0.9956 0.5765 0.0581
C3 C 0.9301(3) 0.4539(3) 0.0664(2)
H10 H 0.9397 0.4424 0.0245
C4 C 0.9292(3) 0.3892(3) 0.1076(2)
H11 H 0.9800 0.3908 0.1003
C5 C 0.9290(3) 0.4090(3) 0.1758(2)
H12 H 0.8800 0.4087 0.1857
H13 H 0.9315 0.3688 0.2008
C7 C 0.9396(3) 0.5819(3) 0.1683(2)
C8 C 0.8486(3) 0.4486(3) 0.0661(2)
C9 C 0.8643(3) 0.3068(3) 0.0874(2)
Tm3 Tm 0.382946(13) 0.231148(18) 0.044884(10)
O13 O 0.3849(2) 0.3036(3) 0.12806(15)
O14 O 0.4284(2) 0.3439(3) 0.22264(15)
O15 O 0.5007(2) 0.3408(3) 0.03645(18)
O16 O 0.6083(2) 0.4018(3) 0.09402(19)
O17 O 0.7107(2) 0.5691(3) 0.03128(16)
O18 O 0.7461(2) 0.5652(3) 0.12521(16)
O19 O 0.5344(2) 0.5019(3) 0.29789(15)
O20 O 0.4202(2) 0.4912(3) 0.27254(16)
O21 O 0.3012(2) 0.2787(3) 0.00858(16)
H18 H 0.266(2) 0.2858(28) 0.0261(18)
O22 O 0.2710(2) 0.1392(3) 0.09442(16)
H19 H 0.262(3) 0.155(4) 0.1285(12)
H20 H 0.262(3) 0.091(4) 0.097(2)
O23 O 0.7078(2) 0.2792(3) 0.1941(2)
H21 H 0.743(3) 0.2660(32) 0.188(3)
H22 H 0.680(3) 0.256(4) 0.2257(19)
C11 C 0.4419(3) 0.4435(4) 0.1504(2)
H23 H 0.3943 0.4482 0.1572
C12 C 0.4632(3) 0.4628(4) 0.0827(2)
H24 H 0.4609 0.5103 0.0723
H25 H 0.4235 0.4191 0.0581
C13 C 0.5461(3) 0.4762(4) 0.0664(2)
H26 H 0.5576 0.4973 0.0245
C14 C 0.6108(3) 0.5400(4) 0.1076(2)
H27 H 0.6092 0.5892 0.1003
C15 C 0.5910(3) 0.5200(4) 0.1758(2)
H28 H 0.5913 0.4713 0.1857
H29 H 0.6312 0.5627 0.2008
C16 C 0.5088(3) 0.5095(4) 0.1899(2)
H30 H 0.5117 0.5595 0.1774
C17 C 0.4181(3) 0.3577(4) 0.1683(2)
C18 C 0.5514(3) 0.4000(4) 0.0661(2)
C19 C 0.6932(3) 0.5575(4) 0.0874(2)
C20 C 0.4875(3) 0.5000(4) 0.2569(2)
Tm4 Tm 0.768852(18) 0.151798(13) 0.044884(10)
O24 O 0.6964(3) 0.0813(2) 0.12806(15)
O25 O 0.6561(3) 0.0845(2) 0.22264(15)
O26 O 0.6592(3) 0.1599(2) 0.03645(18)
O27 O 0.5982(3) 0.2065(2) 0.09402(19)
O28 O 0.4309(3) 0.1416(2) 0.03128(16)
O29 O 0.4348(3) 0.1809(2) 0.12521(16)
O30 O 0.4981(3) 0.0325(2) 0.29789(15)
O32 O 0.7213(3) 0.0225(2) 0.00858(16)
O33 O 0.8608(3) 0.1318(2) 0.09442(16)
H33 H 0.845(4) 0.107(3) 0.1285(12)
H34 H 0.909(4) 0.171(2) 0.097(2)
O34 O 0.7208(3) 0.4286(2) 0.1941(2)
H35 H 0.7340(32) 0.4770(12) 0.188(3)
H36 H 0.744(4) 0.424(3) 0.2257(19)
C22 C 0.5372(4) 0.0004(3) 0.0827(2)
H39 H 0.5809 0.0044 0.0581
C23 C 0.5238(4) 0.0699(3) 0.0664(2)
H40 H 0.5027 0.0603 0.0245
C24 C 0.4600(4) 0.0708(3) 0.1076(2)
H41 H 0.4108 0.0200 0.1003
C25 C 0.4800(4) 0.0710(3) 0.1758(2)
H42 H 0.5287 0.1200 0.1857
H43 H 0.4373 0.0685 0.2008
C27 C 0.6423(4) 0.0604(3) 0.1683(2)
C28 C 0.6000(4) 0.1514(3) 0.0661(2)
C29 C 0.4425(4) 0.1357(3) 0.0874(2)
Tm7 Tm 0.435519(18) 0.485131(13) 0.378217(10)
H1 H 0.981(3) 0.707(3) 0.9701(6)
H15 H 0.621(2) 0.306(4) 0.995(3)
H16 H 0.685(4) 0.379(2) 0.995(3)
H17 H 0.293(3) 0.274(4) 0.9701(6)
H31 H 0.726(4) 0.019(3) 0.9701(6)
O35 O 0.3008(2) 0.1323(2) 0.96456(15)
O36 O 0.8677(2) 0.1686(3) 0.96456(15)
O37 O 0.8314(3) 0.6992(2) 0.96456(15)
O38 O 0.4043(2) 0.2465(2) 0.93921(16)
O39 O 0.7535(2) 0.1579(3) 0.93921(16)
O40 O 0.8421(3) 0.5957(2) 0.93921(16)
O31 O 0.5088(3) 0.9290(2) 0.27254(16)
H32 H 0.7142(28) 0.9802(19) 0.0261(18)
C21 C 0.5565(4) 0.9984(3) 0.1504(2)
H37 H 0.5518 0.9461 0.1572
H38 H 0.4897 0.9506 0.0723
C26 C 0.4905(4) 0.9993(3) 0.1899(2)
H44 H 0.4405 0.9522 0.1774
C30 C 0.5000(4) 0.9875(3) 0.2569(2)
Tm5 Tm 0.514869(13) 0.950387(13) 0.378217(10)
H15_2 H 0.694(4) 0.315(4) 0.995(3)
O9_2 O 0.6442(2) 0.0321(2) 0.34191(16)
H1_2 H 0.648(3) 0.040(3) 0.3034(6)
H2_2 H 0.6865(19) 0.067(2) 0.3594(18)
O10_2 O 0.5349(2) 0.0623(2) 0.42775(16)
H3_2 H 0.560(3) 0.071(3) 0.4618(12)
H4_2 H 0.496(2) 0.071(3) 0.430(2)
Tm2_2 Tm 0.3334 0.6666 0.45161(2)
O1_2 O 0.5854(2) 0.9484(2) 0.46139(15)
O2_2 O 0.5822(2) 0.9049(2) 0.55597(15)
O3_2 O 0.5068(2) 0.8326(2) 0.36978(18)
O4_2 O 0.4602(2) 0.7250(2) 0.42735(19)
O5_2 O 0.5251(2) 0.6226(2) 0.36461(16)
O6_2 O 0.4858(2) 0.5872(2) 0.45854(16)
O7_2 O 0.6342(2) 0.7989(2) 0.63122(15)
O8_2 O 0.7377(2) 0.9131(2) 0.60587(16)
O11_2 O 0.3334 0.6666 0.3455(4)
O12_2 O 0.2381(2) 0.6255(2) 0.5274(2)
H5_2 H 0.1897(12) 0.590(3) 0.521(3)
H6_2 H 0.243(3) 0.653(3) 0.5590(19)
C1_2 C 0.6683(3) 0.8914(3) 0.4837(2)
H7_2 H 0.7206 0.9390 0.4905
C2_2 C 0.6663(3) 0.8701(3) 0.4160(2)
H8_2 H 0.7161 0.8724 0.4056
H9_2 H 0.6623 0.9098 0.3914
C3_2 C 0.5968(3) 0.7872(3) 0.3997(2)
H10_2 H 0.6064 0.7757 0.3578
C4_2 C 0.5959(3) 0.7225(3) 0.4409(2)
H11_2 H 0.6467 0.7241 0.4336
C5_2 C 0.5957(3) 0.7423(3) 0.5091(2)
H12_2 H 0.5467 0.7420 0.5190
H13_2 H 0.5982 0.7021 0.5341
C6_2 C 0.6674(3) 0.8245(3) 0.5232(2)
H14_2 H 0.7145 0.8216 0.5107
C7_2 C 0.6063(3) 0.9152(3) 0.5016(2)
C8_2 C 0.5153(3) 0.7819(3) 0.3994(2)
C9_2 C 0.5310(3) 0.6401(3) 0.4207(2)
C10_2 C 0.6792(3) 0.8458(3) 0.5902(2)
O13_2 O 0.0516(2) 0.6369(3) 0.46139(15)
O14_2 O 0.0951(2) 0.6772(3) 0.55597(15)
O15_2 O 0.1674(2) 0.6741(3) 0.36978(18)
O16_2 O 0.2750(2) 0.7351(3) 0.42735(19)
O17_2 O 0.3774(2) 0.9024(3) 0.36461(16)
O18_2 O 0.4128(2) 0.8985(3) 0.45854(16)
O19_2 O 0.2011(2) 0.8352(3) 0.63122(15)
O20_2 O 0.0869(2) 0.8245(3) 0.60587(16)
O23_2 O 0.3745(2) 0.6125(3) 0.5274(2)
H21_2 H 0.410(3) 0.5993(32) 0.521(3)
H22_2 H 0.347(3) 0.589(4) 0.5590(19)
C11_2 C 0.1086(3) 0.7768(4) 0.4837(2)
H23_2 H 0.0610 0.7815 0.4905
C12_2 C 0.1299(3) 0.7961(4) 0.4160(2)
H24_2 H 0.1276 0.8436 0.4056
H25_2 H 0.0902 0.7524 0.3914
C13_2 C 0.2128(3) 0.8095(4) 0.3997(2)
H26_2 H 0.2243 0.8306 0.3578
C14_2 C 0.2775(3) 0.8733(4) 0.4409(2)
H27_2 H 0.2759 0.9225 0.4336
C15_2 C 0.2577(3) 0.8533(4) 0.5091(2)
H28_2 H 0.2580 0.8046 0.5190
H29_2 H 0.2979 0.8960 0.5341
C16_2 C 0.1755(3) 0.8428(4) 0.5232(2)
H30_2 H 0.1784 0.8928 0.5107
C17_2 C 0.0848(3) 0.6910(4) 0.5016(2)
C18_2 C 0.2181(3) 0.7333(4) 0.3994(2)
C19_2 C 0.3599(3) 0.8908(4) 0.4207(2)
C20_2 C 0.1542(3) 0.8333(4) 0.5902(2)
O24_2 O 0.3631(3) 0.4146(2) 0.46139(15)
O25_2 O 0.3228(3) 0.4178(2) 0.55597(15)
O26_2 O 0.3259(3) 0.4932(2) 0.36978(18)
O27_2 O 0.2649(3) 0.5398(2) 0.42735(19)
O28_2 O 0.0976(3) 0.4749(2) 0.36461(16)
O29_2 O 0.1015(3) 0.5142(2) 0.45854(16)
O30_2 O 0.1648(3) 0.3658(2) 0.63122(15)
O31_2 O 0.1755(3) 0.2623(2) 0.60587(16)
O32_2 O 0.3880(3) 0.3558(2) 0.34191(16)
H31_2 H 0.393(4) 0.352(3) 0.3034(6)
H32_2 H 0.3809(28) 0.3135(19) 0.3594(18)
O33_2 O 0.5275(3) 0.4651(2) 0.42775(16)
H33_2 H 0.512(4) 0.440(3) 0.4618(12)
H34_2 H 0.576(4) 0.504(2) 0.430(2)
O34_2 O 0.3875(3) 0.7619(2) 0.5274(2)
H35_2 H 0.4007(32) 0.8103(12) 0.521(3)
H36_2 H 0.411(4) 0.757(3) 0.5590(19)
C21_2 C 0.2232(4) 0.3317(3) 0.4837(2)
H37_2 H 0.2185 0.2794 0.4905
C22_2 C 0.2039(4) 0.3337(3) 0.4160(2)
H38_2 H 0.1564 0.2839 0.4056
H39_2 H 0.2476 0.3377 0.3914
C23_2 C 0.1905(4) 0.4032(3) 0.3997(2)
H40_2 H 0.1694 0.3936 0.3578
C24_2 C 0.1267(4) 0.4041(3) 0.4409(2)
H41_2 H 0.0775 0.3533 0.4336
C25_2 C 0.1467(4) 0.4043(3) 0.5091(2)
H42_2 H 0.1954 0.4533 0.5190
H43_2 H 0.1040 0.4018 0.5341
C26_2 C 0.1572(4) 0.3326(3) 0.5232(2)
H44_2 H 0.1072 0.2855 0.5107
C27_2 C 0.3090(4) 0.3937(3) 0.5016(2)
C28_2 C 0.2667(4) 0.4847(3) 0.3994(2)
C29_2 C 0.1092(4) 0.4690(3) 0.4207(2)
C30_2 C 0.1667(4) 0.3208(3) 0.5902(2)
Tm5_2 Tm 0.181535(13) 0.283721(13) 0.711551(10)
Tm6_2 Tm 0.716279(13) 0.897815(18) 0.711551(10)
Tm7_2 Tm 0.102185(18) 0.818465(13) 0.711551(10)
O21_2 O 0.9679(2) 0.6120(3) 0.34191(16)
H17_2 H 0.960(3) 0.607(4) 0.3034(6)
H18_2 H 0.933(2) 0.6191(28) 0.3594(18)
O22_2 O 0.9377(2) 0.4725(3) 0.42775(16)
H19_2 H 0.929(3) 0.488(4) 0.4618(12)
H20_2 H 0.929(3) 0.424(4) 0.430(2)
Tm2_3 Tm 0.0000 -0.0000 0.78495(2)
O1_3 O 0.2520(2) 0.2818(2) 0.79473(15)
O2_3 O 0.2488(2) 0.2383(2) 0.88931(15)
O3_3 O 0.1734(2) 0.1660(2) 0.70312(18)
O4_3 O 0.1268(2) 0.0584(2) 0.76069(19)
O9_3 O 0.3108(2) 0.3655(2) 0.67525(16)
H1_3 H 0.314(3) 0.374(3) 0.6368(6)
H2_3 H 0.3531(19) 0.401(2) 0.6928(18)
O10_3 O 0.2015(2) 0.3957(2) 0.76109(16)
H3_3 H 0.226(3) 0.405(3) 0.7952(12)
H4_3 H 0.162(2) 0.405(3) 0.764(2)
O11_3 O 0.0000 -0.0000 0.6789(4)
C1_3 C 0.3349(3) 0.2248(3) 0.8171(2)
H7_3 H 0.3872 0.2724 0.8239
C2_3 C 0.3329(3) 0.2035(3) 0.7494(2)
H8_3 H 0.3827 0.2058 0.7390
H9_3 H 0.3289 0.2432 0.7248
C3_3 C 0.2634(3) 0.1206(3) 0.7331(2)
H10_3 H 0.2730 0.1091 0.6912
C4_3 C 0.2625(3) 0.0559(3) 0.7743(2)
H11_3 H 0.3133 0.0575 0.7670
C5_3 C 0.2623(3) 0.0757(3) 0.8425(2)
H12_3 H 0.2133 0.0754 0.8524
H13_3 H 0.2648 0.0355 0.8675
C6_3 C 0.3340(3) 0.1579(3) 0.8566(2)
H14_3 H 0.3811 0.1550 0.8441
C7_3 C 0.2729(3) 0.2486(3) 0.8350(2)
C8_3 C 0.1819(3) 0.1153(3) 0.7328(2)
C10_3 C 0.3458(3) 0.1792(3) 0.9236(2)
H16_2 H 0.018(4) 0.046(2) 0.662(3)
O17_3 O 0.0440(2) 0.2358(3) 0.69795(16)
O18_3 O 0.0794(2) 0.2319(3) 0.79188(16)
C19_3 C 0.0265(3) 0.2242(4) 0.7541(2)
O34_3 O 0.0541(3) 0.0953(2) 0.8608(2)
H35_3 H 0.0673(32) 0.1437(12) 0.855(3)
H36_3 H 0.077(4) 0.091(3) 0.8924(19)
Tm2_4 Tm 0.0000 1.0000 0.78495(2)
O5_3 O 0.1917(2) 0.9560(2) 0.69795(16)
O6_3 O 0.1524(2) 0.9206(2) 0.79188(16)
O11_4 O 0.0000 1.0000 0.6789(4)
C9_3 C 0.1976(3) 0.9735(3) 0.7541(2)
O23_3 O 0.0411(2) 0.9459(3) 0.8608(2)
H21_3 H 0.076(3) 0.9327(32) 0.855(3)
H22_3 H 0.013(3) 0.923(4) 0.8924(19)
O24_3 O 0.0297(3) 0.7480(2) 0.79473(15)
O32_3 O 0.0546(3) 0.6892(2) 0.67525(16)
H31_3 H 0.059(4) 0.686(3) 0.6368(6)
H32_3 H 0.0475(28) 0.6469(19) 0.6928(18)
O33_3 O 0.1941(3) 0.7985(2) 0.76109(16)
H33_3 H 0.178(4) 0.774(3) 0.7952(12)
H34_3 H 0.242(4) 0.838(2) 0.764(2)
Tm2_5 Tm 1.0000 -0.0000 0.78495(2)
O11_5 O 1.0000 -0.0000 0.6789(4)
O14_3 O 0.7617(2) 0.0106(3) 0.88931(15)
O15_3 O 0.8340(2) 0.0075(3) 0.70312(18)
O16_3 O 0.9416(2) 0.0685(3) 0.76069(19)
C11_3 C 0.7752(3) 0.1102(4) 0.8171(2)
H23_3 H 0.7276 0.1149 0.8239
C12_3 C 0.7965(3) 0.1295(4) 0.7494(2)
H24_3 H 0.7942 0.1770 0.7390
H25_3 H 0.7568 0.0858 0.7248
C13_3 C 0.8794(3) 0.1429(4) 0.7331(2)
H26_3 H 0.8909 0.1640 0.6912
C14_3 C 0.9441(3) 0.2067(4) 0.7743(2)
H27_3 H 0.9425 0.2559 0.7670
C15_3 C 0.9243(3) 0.1867(4) 0.8425(2)
H28_3 H 0.9246 0.1380 0.8524
H29_3 H 0.9645 0.2294 0.8675
C16_3 C 0.8421(3) 0.1762(4) 0.8566(2)
H30_3 H 0.8450 0.2262 0.8441
C17_3 C 0.7514(3) 0.0244(4) 0.8350(2)
C18_3 C 0.8847(3) 0.0667(4) 0.7328(2)
C20_3 C 0.8208(3) 0.1667(4) 0.9236(2)
Tm2_6 Tm 1.0000 1.0000 0.78495(2)
O11_6 O 1.0000 1.0000 0.6789(4)
O12_3 O 0.9047(2) 0.9589(2) 0.8608(2)
H5_3 H 0.8563(12) 0.924(3) 0.855(3)
H6_3 H 0.909(3) 0.987(3) 0.8924(19)
H15_3 H 0.954(2) 0.973(4) 0.662(3)
O13_3 O 0.7182(2) 0.9703(3) 0.79473(15)
O21_3 O 0.6345(2) 0.9454(3) 0.67525(16)
H17_3 H 0.626(3) 0.941(4) 0.6368(6)
H18_3 H 0.599(2) 0.9525(28) 0.6928(18)
O22_3 O 0.6043(2) 0.8059(3) 0.76109(16)
H19_3 H 0.595(3) 0.822(4) 0.7952(12)
H20_3 H 0.595(3) 0.758(4) 0.764(2)
O25_3 O 0.9894(3) 0.7512(2) 0.88931(15)
O26_3 O 0.9925(3) 0.8266(2) 0.70312(18)
O27_3 O 0.9315(3) 0.8732(2) 0.76069(19)
O28_3 O 0.7642(3) 0.8083(2) 0.69795(16)
O29_3 O 0.7681(3) 0.8476(2) 0.79188(16)
C21_3 C 0.8898(4) 0.6651(3) 0.8171(2)
H37_3 H 0.8851 0.6128 0.8239
C22_3 C 0.8705(4) 0.6671(3) 0.7494(2)
H38_3 H 0.8230 0.6173 0.7390
H39_3 H 0.9142 0.6711 0.7248
C23_3 C 0.8571(4) 0.7366(3) 0.7331(2)
H40_3 H 0.8360 0.7270 0.6912
C24_3 C 0.7933(4) 0.7375(3) 0.7743(2)
H41_3 H 0.7441 0.6867 0.7670
C25_3 C 0.8133(4) 0.7377(3) 0.8425(2)
H42_3 H 0.8620 0.7867 0.8524
H43_3 H 0.7706 0.7352 0.8675
C26_3 C 0.8238(4) 0.6660(3) 0.8566(2)
H44_3 H 0.7738 0.6189 0.8441
C27_3 C 0.9756(4) 0.7271(3) 0.8350(2)
C28_3 C 0.9333(4) 0.8181(3) 0.7328(2)
C29_3 C 0.7758(4) 0.8024(3) 0.7541(2)
C30_3 C 0.8333(4) 0.6542(3) 0.9236(2)
H15_4 H 0.027(4) 0.982(4) 0.662(3)
O31_3 O 0.4912(3) 0.0710(2) 0.72746(16)
H32_4 H 0.2858(28) 0.0198(19) 0.9739(18)
C21_4 C 0.4435(4) 0.0016(3) 0.8496(2)
H37_4 H 0.4482 0.0539 0.8428
H38_4 H 0.5103 0.0494 0.9277
C26_4 C 0.5095(4) 0.0007(3) 0.8101(2)
H44_4 H 0.5595 0.0478 0.8226
C30_4 C 0.5000(4) 0.0125(3) 0.7431(2)
Tm5_3 Tm 0.485131(13) 0.049613(13) 0.621783(10)
H1_4 H 0.019(3) 0.293(3) 0.0299(6)
H15_5 H 0.379(2) 0.694(4) 0.005(3)
H16_3 H 0.315(4) 0.621(2) 0.005(3)
H17_4 H 0.707(3) 0.726(4) 0.0299(6)
H31_4 H 0.274(4) 0.981(3) 0.0299(6)
O35_2 O 0.6992(2) 0.8677(2) 0.03544(15)
O36_2 O 0.1323(2) 0.8314(3) 0.03544(15)
O37_2 O 0.1686(3) 0.3008(2) 0.03544(15)
O38_2 O 0.5957(2) 0.7535(2) 0.06079(16)
O39_2 O 0.2465(2) 0.8421(3) 0.06079(16)
O40_2 O 0.1579(3) 0.4043(2) 0.06079(16)
Tm1_2 Tm 0.151798(13) 0.382946(13) 0.955116(10)
Tm2_7 Tm 0.3333 0.6667 0.88172(2)
O1_4 O 0.0813(2) 0.3849(2) 0.87194(15)
O2_4 O 0.0845(2) 0.4284(2) 0.77736(15)
O3_4 O 0.1599(2) 0.5007(2) 0.96355(18)
O4_4 O 0.2065(2) 0.6083(2) 0.90598(19)
O5_4 O 0.1416(2) 0.7107(2) 0.96872(16)
O6_4 O 0.1809(2) 0.7461(2) 0.87479(16)
O7_3 O 0.0325(2) 0.5344(2) 0.70211(15)
O9_4 O 0.0225(2) 0.3012(2) 0.99142(16)
O10_4 O 0.1318(2) 0.2710(2) 0.90558(16)
H3_4 H 0.107(3) 0.262(3) 0.8715(12)
H4_4 H 0.171(2) 0.262(3) 0.903(2)
O11_7 O 0.3333 0.6667 0.9878(4)
O12_4 O 0.4286(2) 0.7078(2) 0.8059(2)
H5_4 H 0.4770(12) 0.743(3) 0.812(3)
H6_4 H 0.424(3) 0.680(3) 0.7743(19)
C2_4 C 0.0004(3) 0.4632(3) 0.9173(2)
H9_4 H 0.0044 0.4235 0.9419
C3_4 C 0.0699(3) 0.5461(3) 0.9336(2)
H10_4 H 0.0603 0.5576 0.9755
C4_4 C 0.0708(3) 0.6108(3) 0.8924(2)
H11_4 H 0.0200 0.6092 0.8997
C5_4 C 0.0710(3) 0.5910(3) 0.8242(2)
H12_4 H 0.1200 0.5913 0.8143
H13_4 H 0.0685 0.6312 0.7992
C7_4 C 0.0604(3) 0.4181(3) 0.8317(2)
C8_4 C 0.1514(3) 0.5514(3) 0.9339(2)
C9_4 C 0.1357(3) 0.6932(3) 0.9126(2)
Tm3_2 Tm 0.617054(13) 0.768852(18) 0.955116(10)
O13_4 O 0.6151(2) 0.6964(3) 0.87194(15)
O14_4 O 0.5716(2) 0.6561(3) 0.77736(15)
O15_4 O 0.4993(2) 0.6592(3) 0.96355(18)
O16_4 O 0.3917(2) 0.5982(3) 0.90598(19)
O17_4 O 0.2893(2) 0.4309(3) 0.96872(16)
O18_4 O 0.2539(2) 0.4348(3) 0.87479(16)
O19_3 O 0.4656(2) 0.4981(3) 0.70211(15)
O20_3 O 0.5798(2) 0.5088(3) 0.72746(16)
O21_4 O 0.6988(2) 0.7213(3) 0.99142(16)
H18_4 H 0.734(2) 0.7142(28) 0.9739(18)
O22_4 O 0.7290(2) 0.8608(3) 0.90558(16)
H19_4 H 0.738(3) 0.845(4) 0.8715(12)
H20_4 H 0.738(3) 0.909(4) 0.903(2)
O23_4 O 0.2922(2) 0.7208(3) 0.8059(2)
H21_4 H 0.257(3) 0.7340(32) 0.812(3)
H22_4 H 0.320(3) 0.744(4) 0.7743(19)
C11_4 C 0.5581(3) 0.5565(4) 0.8496(2)
H23_4 H 0.6057 0.5518 0.8428
C12_4 C 0.5368(3) 0.5372(4) 0.9173(2)
H24_4 H 0.5391 0.4897 0.9277
H25_4 H 0.5765 0.5809 0.9419
C13_4 C 0.4539(3) 0.5238(4) 0.9336(2)
H26_4 H 0.4424 0.5027 0.9755
C14_4 C 0.3892(3) 0.4600(4) 0.8924(2)
H27_4 H 0.3908 0.4108 0.8997
C15_4 C 0.4090(3) 0.4800(4) 0.8242(2)
H28_4 H 0.4087 0.5287 0.8143
H29_4 H 0.3688 0.4373 0.7992
C16_4 C 0.4912(3) 0.4905(4) 0.8101(2)
H30_4 H 0.4883 0.4405 0.8226
C17_4 C 0.5819(3) 0.6423(4) 0.8317(2)
C18_4 C 0.4486(3) 0.6000(4) 0.9339(2)
C19_4 C 0.3068(3) 0.4425(4) 0.9126(2)
C20_4 C 0.5125(3) 0.5000(4) 0.7431(2)
Tm4_2 Tm 0.231148(18) 0.848202(13) 0.955116(10)
O24_4 O 0.3036(3) 0.9187(2) 0.87194(15)
O25_4 O 0.3439(3) 0.9155(2) 0.77736(15)
O26_4 O 0.3408(3) 0.8401(2) 0.96355(18)
O27_4 O 0.4018(3) 0.7935(2) 0.90598(19)
O28_4 O 0.5691(3) 0.8584(2) 0.96872(16)
O29_4 O 0.5652(3) 0.8191(2) 0.87479(16)
O30_3 O 0.5019(3) 0.9675(2) 0.70211(15)
O32_4 O 0.2787(3) 0.9775(2) 0.99142(16)
O33_4 O 0.1392(3) 0.8682(2) 0.90558(16)
H33_4 H 0.155(4) 0.893(3) 0.8715(12)
H34_4 H 0.091(4) 0.829(2) 0.903(2)
O34_4 O 0.2792(3) 0.5714(2) 0.8059(2)
H35_4 H 0.2660(32) 0.5230(12) 0.812(3)
H36_4 H 0.256(4) 0.576(3) 0.7743(19)
C22_4 C 0.4628(4) 0.9996(3) 0.9173(2)
H39_4 H 0.4191 0.9956 0.9419
C23_4 C 0.4762(4) 0.9301(3) 0.9336(2)
H40_4 H 0.4973 0.9397 0.9755
C24_4 C 0.5400(4) 0.9292(3) 0.8924(2)
H41_4 H 0.5892 0.9800 0.8997
C25_4 C 0.5200(4) 0.9290(3) 0.8242(2)
H42_4 H 0.4713 0.8800 0.8143
H43_4 H 0.5627 0.9315 0.7992
C27_4 C 0.3577(4) 0.9396(3) 0.8317(2)
C28_4 C 0.4000(4) 0.8486(3) 0.9339(2)
C29_4 C 0.5575(4) 0.8643(3) 0.9126(2)
Tm7_3 Tm 0.564481(18) 0.514869(13) 0.621783(10)
O8_3 O 0.9290(2) 0.4202(2) 0.72746(16)
H2_4 H 0.9802(19) 0.266(2) 0.9739(18)
C1_4 C 0.9984(3) 0.4419(3) 0.8496(2)
H7_4 H 0.9461 0.3943 0.8428
H8_4 H 0.9506 0.4609 0.9277
C6_4 C 0.9993(3) 0.5088(3) 0.8101(2)
H14_4 H 0.9522 0.5117 0.8226
C10_4 C 0.9875(3) 0.4875(3) 0.7431(2)
Tm6_3 Tm 0.950387(13) 0.435519(18) 0.621783(10)
H15_6 H 0.306(4) 0.685(4) 0.005(3)
O21_5 O 0.0321(2) 0.3880(3) 0.65809(16)
H17_5 H 0.040(3) 0.393(4) 0.6966(6)
H18_5 H 0.067(2) 0.3809(28) 0.6406(18)
O22_5 O 0.0623(2) 0.5275(3) 0.57225(16)
H19_5 H 0.071(3) 0.512(4) 0.5382(12)
H20_5 H 0.071(3) 0.576(4) 0.570(2)
Tm2_8 Tm 0.6666 0.3334 0.54839(2)
O1_5 O 0.4146(2) 0.0516(2) 0.53861(15)
O2_5 O 0.4178(2) 0.0951(2) 0.44403(15)
O3_5 O 0.4932(2) 0.1674(2) 0.63022(18)
O4_5 O 0.5398(2) 0.2750(2) 0.57265(19)
O5_5 O 0.4749(2) 0.3774(2) 0.63539(16)
O6_5 O 0.5142(2) 0.4128(2) 0.54146(16)
O7_4 O 0.3658(2) 0.2011(2) 0.36878(15)
O8_4 O 0.2623(2) 0.0869(2) 0.39413(16)
O11_8 O 0.6666 0.3334 0.6545(4)
O12_5 O 0.7619(2) 0.3745(2) 0.4726(2)
H5_5 H 0.8103(12) 0.410(3) 0.479(3)
H6_5 H 0.757(3) 0.347(3) 0.4410(19)
C1_5 C 0.3317(3) 0.1086(3) 0.5163(2)
H7_5 H 0.2794 0.0610 0.5095
C2_5 C 0.3337(3) 0.1299(3) 0.5840(2)
H8_5 H 0.2839 0.1276 0.5944
H9_5 H 0.3377 0.0902 0.6086
C3_5 C 0.4032(3) 0.2128(3) 0.6003(2)
H10_5 H 0.3936 0.2243 0.6422
C4_5 C 0.4041(3) 0.2775(3) 0.5591(2)
H11_5 H 0.3533 0.2759 0.5664
C5_5 C 0.4043(3) 0.2577(3) 0.4909(2)
H12_5 H 0.4533 0.2580 0.4810
H13_5 H 0.4018 0.2979 0.4659
C6_5 C 0.3326(3) 0.1755(3) 0.4768(2)
H14_5 H 0.2855 0.1784 0.4893
C7_5 C 0.3937(3) 0.0848(3) 0.4984(2)
C8_5 C 0.4847(3) 0.2181(3) 0.6006(2)
C9_5 C 0.4690(3) 0.3599(3) 0.5793(2)
C10_5 C 0.3208(3) 0.1542(3) 0.4098(2)
O13_5 O 0.9484(2) 0.3631(3) 0.53861(15)
O14_5 O 0.9049(2) 0.3228(3) 0.44403(15)
O15_5 O 0.8326(2) 0.3259(3) 0.63022(18)
O16_5 O 0.7250(2) 0.2649(3) 0.57265(19)
O17_5 O 0.6226(2) 0.0976(3) 0.63539(16)
O18_5 O 0.5872(2) 0.1015(3) 0.54146(16)
O19_4 O 0.7989(2) 0.1648(3) 0.36878(15)
O20_4 O 0.9131(2) 0.1755(3) 0.39413(16)
O23_5 O 0.6255(2) 0.3875(3) 0.4726(2)
H21_5 H 0.590(3) 0.4007(32) 0.479(3)
H22_5 H 0.653(3) 0.411(4) 0.4410(19)
C11_5 C 0.8914(3) 0.2232(4) 0.5163(2)
H23_5 H 0.9390 0.2185 0.5095
C12_5 C 0.8701(3) 0.2039(4) 0.5840(2)
H24_5 H 0.8724 0.1564 0.5944
H25_5 H 0.9098 0.2476 0.6086
C13_5 C 0.7872(3) 0.1905(4) 0.6003(2)
H26_5 H 0.7757 0.1694 0.6422
C14_5 C 0.7225(3) 0.1267(4) 0.5591(2)
H27_5 H 0.7241 0.0775 0.5664
C15_5 C 0.7423(3) 0.1467(4) 0.4909(2)
H28_5 H 0.7420 0.1954 0.4810
H29_5 H 0.7021 0.1040 0.4659
C16_5 C 0.8245(3) 0.1572(4) 0.4768(2)
H30_5 H 0.8216 0.1072 0.4893
C17_5 C 0.9152(3) 0.3090(4) 0.4984(2)
C18_5 C 0.7819(3) 0.2667(4) 0.6006(2)
C19_5 C 0.6401(3) 0.1092(4) 0.5793(2)
C20_5 C 0.8458(3) 0.1667(4) 0.4098(2)
O24_5 O 0.6369(3) 0.5854(2) 0.53861(15)
O25_5 O 0.6772(3) 0.5822(2) 0.44403(15)
O26_5 O 0.6741(3) 0.5068(2) 0.63022(18)
O27_5 O 0.7351(3) 0.4602(2) 0.57265(19)
O28_5 O 0.9024(3) 0.5251(2) 0.63539(16)
O29_5 O 0.8985(3) 0.4858(2) 0.54146(16)
O30_4 O 0.8352(3) 0.6342(2) 0.36878(15)
O31_4 O 0.8245(3) 0.7377(2) 0.39413(16)
O32_5 O 0.6120(3) 0.6442(2) 0.65809(16)
H31_5 H 0.607(4) 0.648(3) 0.6966(6)
H32_5 H 0.6191(28) 0.6865(19) 0.6406(18)
O33_5 O 0.4725(3) 0.5349(2) 0.57225(16)
H33_5 H 0.488(4) 0.560(3) 0.5382(12)
H34_5 H 0.424(4) 0.496(2) 0.570(2)
O34_5 O 0.6125(3) 0.2381(2) 0.4726(2)
H35_5 H 0.5993(32) 0.1897(12) 0.479(3)
H36_5 H 0.589(4) 0.243(3) 0.4410(19)
C21_5 C 0.7768(4) 0.6683(3) 0.5163(2)
H37_5 H 0.7815 0.7206 0.5095
C22_5 C 0.7961(4) 0.6663(3) 0.5840(2)
H38_5 H 0.8436 0.7161 0.5944
H39_5 H 0.7524 0.6623 0.6086
C23_5 C 0.8095(4) 0.5968(3) 0.6003(2)
H40_5 H 0.8306 0.6064 0.6422
C24_5 C 0.8733(4) 0.5959(3) 0.5591(2)
H41_5 H 0.9225 0.6467 0.5664
C25_5 C 0.8533(4) 0.5957(3) 0.4909(2)
H42_5 H 0.8046 0.5467 0.4810
H43_5 H 0.8960 0.5982 0.4659
C26_5 C 0.8428(4) 0.6674(3) 0.4768(2)
H44_5 H 0.8928 0.7145 0.4893
C27_5 C 0.6910(4) 0.6063(3) 0.4984(2)
C28_5 C 0.7333(4) 0.5153(3) 0.6006(2)
C29_5 C 0.8908(4) 0.5310(3) 0.5793(2)
C30_5 C 0.8333(4) 0.6792(3) 0.4098(2)
Tm5_4 Tm 0.818465(13) 0.716279(13) 0.288449(10)
Tm6_4 Tm 0.283721(13) 0.102185(18) 0.288449(10)
Tm7_4 Tm 0.897815(18) 0.181535(13) 0.288449(10)
O9_5 O 0.3558(2) 0.9679(2) 0.65809(16)
H1_5 H 0.352(3) 0.960(3) 0.6966(6)
H2_5 H 0.3135(19) 0.933(2) 0.6406(18)
O10_5 O 0.4651(2) 0.9377(2) 0.57225(16)
H3_5 H 0.440(3) 0.929(3) 0.5382(12)
H4_5 H 0.504(2) 0.929(3) 0.570(2)
Tm2_9 Tm -0.0000 0.0000 0.21505(2)
O11_9 O -0.0000 0.0000 0.3211(4)
O12_6 O 0.0953(2) 0.0411(2) 0.1392(2)
H5_6 H 0.1437(12) 0.076(3) 0.145(3)
H6_6 H 0.091(3) 0.013(3) 0.1076(19)
H15_7 H 0.046(2) 0.027(4) 0.338(3)
O13_6 O 0.2818(2) 0.0297(3) 0.20527(15)
O21_6 O 0.3655(2) 0.0546(3) 0.32475(16)
H17_6 H 0.374(3) 0.059(4) 0.3632(6)
H18_6 H 0.401(2) 0.0475(28) 0.3072(18)
O22_6 O 0.3957(2) 0.1941(3) 0.23891(16)
H19_6 H 0.405(3) 0.178(4) 0.2048(12)
H20_6 H 0.405(3) 0.242(4) 0.236(2)
O25_6 O 0.0106(3) 0.2488(2) 0.11069(15)
O26_6 O 0.0075(3) 0.1734(2) 0.29688(18)
O27_6 O 0.0685(3) 0.1268(2) 0.23931(19)
O28_6 O 0.2358(3) 0.1917(2) 0.30205(16)
O29_6 O 0.2319(3) 0.1524(2) 0.20812(16)
C21_6 C 0.1102(4) 0.3349(3) 0.1829(2)
H37_6 H 0.1149 0.3872 0.1761
C22_6 C 0.1295(4) 0.3329(3) 0.2506(2)
H38_6 H 0.1770 0.3827 0.2610
H39_6 H 0.0858 0.3289 0.2752
C23_6 C 0.1429(4) 0.2634(3) 0.2669(2)
H40_6 H 0.1640 0.2730 0.3088
C24_6 C 0.2067(4) 0.2625(3) 0.2257(2)
H41_6 H 0.2559 0.3133 0.2330
C25_6 C 0.1867(4) 0.2623(3) 0.1575(2)
H42_6 H 0.1380 0.2133 0.1476
H43_6 H 0.2294 0.2648 0.1325
C26_6 C 0.1762(4) 0.3340(3) 0.1434(2)
H44_6 H 0.2262 0.3811 0.1559
C27_6 C 0.0244(4) 0.2729(3) 0.1650(2)
C28_6 C 0.0667(4) 0.1819(3) 0.2672(2)
C29_6 C 0.2242(4) 0.1976(3) 0.2459(2)
C30_6 C 0.1667(4) 0.3458(3) 0.0764(2)
Tm2_10 Tm -0.0000 1.0000 0.21505(2)
O11_10 O -0.0000 1.0000 0.3211(4)
O14_6 O 0.2383(2) 0.9894(3) 0.11069(15)
O15_6 O 0.1660(2) 0.9925(3) 0.29688(18)
O16_6 O 0.0584(2) 0.9315(3) 0.23931(19)
C11_6 C 0.2248(3) 0.8898(4) 0.1829(2)
H23_6 H 0.2724 0.8851 0.1761
C12_6 C 0.2035(3) 0.8705(4) 0.2506(2)
H24_6 H 0.2058 0.8230 0.2610
H25_6 H 0.2432 0.9142 0.2752
C13_6 C 0.1206(3) 0.8571(4) 0.2669(2)
H26_6 H 0.1091 0.8360 0.3088
C14_6 C 0.0559(3) 0.7933(4) 0.2257(2)
H27_6 H 0.0575 0.7441 0.2330
C15_6 C 0.0757(3) 0.8133(4) 0.1575(2)
H28_6 H 0.0754 0.8620 0.1476
H29_6 H 0.0355 0.7706 0.1325
C16_6 C 0.1579(3) 0.8238(4) 0.1434(2)
H30_6 H 0.1550 0.7738 0.1559
C17_6 C 0.2486(3) 0.9756(4) 0.1650(2)
C18_6 C 0.1153(3) 0.9333(4) 0.2672(2)
C20_6 C 0.1792(3) 0.8333(4) 0.0764(2)
Tm2_11 Tm 1.0000 0.0000 0.21505(2)
O5_6 O 0.8083(2) 0.0440(2) 0.30205(16)
O6_6 O 0.8476(2) 0.0794(2) 0.20812(16)
O11_11 O 1.0000 0.0000 0.3211(4)
C9_6 C 0.8024(3) 0.0265(3) 0.2459(2)
O23_6 O 0.9589(2) 0.0541(3) 0.1392(2)
H21_6 H 0.924(3) 0.0673(32) 0.145(3)
H22_6 H 0.987(3) 0.077(4) 0.1076(19)
O24_6 O 0.9703(3) 0.2520(2) 0.20527(15)
O32_6 O 0.9454(3) 0.3108(2) 0.32475(16)
H31_6 H 0.941(4) 0.314(3) 0.3632(6)
H32_6 H 0.9525(28) 0.3531(19) 0.3072(18)
O33_6 O 0.8059(3) 0.2015(2) 0.23891(16)
H33_6 H 0.822(4) 0.226(3) 0.2048(12)
H34_6 H 0.758(4) 0.162(2) 0.236(2)
Tm2_12 Tm 1.0000 1.0000 0.21505(2)
O1_6 O 0.7480(2) 0.7182(2) 0.20527(15)
O2_6 O 0.7512(2) 0.7617(2) 0.11069(15)
O3_6 O 0.8266(2) 0.8340(2) 0.29688(18)
O4_6 O 0.8732(2) 0.9416(2) 0.23931(19)
O9_6 O 0.6892(2) 0.6345(2) 0.32475(16)
H1_6 H 0.686(3) 0.626(3) 0.3632(6)
H2_6 H 0.6469(19) 0.599(2) 0.3072(18)
O10_6 O 0.7985(2) 0.6043(2) 0.23891(16)
H3_6 H 0.774(3) 0.595(3) 0.2048(12)
H4_6 H 0.838(2) 0.595(3) 0.236(2)
O11_12 O 1.0000 1.0000 0.3211(4)
C1_6 C 0.6651(3) 0.7752(3) 0.1829(2)
H7_6 H 0.6128 0.7276 0.1761
C2_6 C 0.6671(3) 0.7965(3) 0.2506(2)
H8_6 H 0.6173 0.7942 0.2610
H9_6 H 0.6711 0.7568 0.2752
C3_6 C 0.7366(3) 0.8794(3) 0.2669(2)
H10_6 H 0.7270 0.8909 0.3088
C4_6 C 0.7375(3) 0.9441(3) 0.2257(2)
H11_6 H 0.6867 0.9425 0.2330
C5_6 C 0.7377(3) 0.9243(3) 0.1575(2)
H12_6 H 0.7867 0.9246 0.1476
H13_6 H 0.7352 0.9645 0.1325
C6_6 C 0.6660(3) 0.8421(3) 0.1434(2)
H14_6 H 0.6189 0.8450 0.1559
C7_6 C 0.7271(3) 0.7514(3) 0.1650(2)
C8_6 C 0.8181(3) 0.8847(3) 0.2672(2)
C10_6 C 0.6542(3) 0.8208(3) 0.0764(2)
H16_4 H 0.982(4) 0.954(2) 0.338(3)
O17_6 O 0.9560(2) 0.7642(3) 0.30205(16)
O18_6 O 0.9206(2) 0.7681(3) 0.20812(16)
C19_6 C 0.9735(3) 0.7758(4) 0.2459(2)
O34_6 O 0.9459(3) 0.9047(2) 0.1392(2)
H35_6 H 0.9327(32) 0.8563(12) 0.145(3)
H36_6 H 0.923(4) 0.909(3) 0.1076(19)
H15_8 H 0.973(4) 0.018(4) 0.338(3)
loop_
_geom_bond_atom_site_label_1
_geom_bond_atom_site_label_2
_geom_bond_site_symmetry_1
_geom_bond_site_symmetry_2
O8 C10 1_555 1_555
C1 H7 1_555 1_555
C6 C1 1_555 1_555
H14 C6 1_555 1_555
C10 C6 1_555 1_555
O8 Tm6 1_555 1_555
Tm1 O1 1_555 1_555
Tm2 O4 1_555 1_555
O1 C7 1_555 1_555
O2 C7 1_555 1_555
O3 Tm1 1_555 1_555
O4 C8 1_555 1_555
O5 C9 1_555 1_555
O6 C9 1_555 1_555
O9 Tm1 1_555 1_555
O10 Tm1 1_555 1_555
H3 O10 1_555 1_555
H4 O10 1_555 1_555
O11 Tm2 1_555 1_555
O12 Tm2 1_555 1_555
H5 O12 1_555 1_555
H6 O12 1_555 1_555
H9 C2 1_555 1_555
C3 C2 1_555 1_555
H10 C3 1_555 1_555
C4 C3 1_555 1_555
H11 C4 1_555 1_555
C5 C4 1_555 1_555
H12 C5 1_555 1_555
H13 C5 1_555 1_555
C8 O3 1_555 1_555
C9 C4 1_555 1_555
Tm3 O13 1_555 1_555
O13 C17 1_555 1_555
O14 C17 1_555 1_555
O15 Tm3 1_555 1_555
O16 Tm2 1_555 1_555
O17 Tm1 1_555 1_555
O18 Tm1 1_555 1_555
O19 C20 1_555 1_555
O20 C20 1_555 1_555
O21 Tm3 1_555 1_555
H18 O21 1_555 1_555
O22 Tm3 1_555 1_555
H19 O22 1_555 1_555
H20 O22 1_555 1_555
O23 Tm2 1_555 1_555
H21 O23 1_555 1_555
H22 O23 1_555 1_555
C11 H23 1_555 1_555
C12 C11 1_555 1_555
H24 C12 1_555 1_555
H25 C12 1_555 1_555
C13 C12 1_555 1_555
H26 C13 1_555 1_555
C14 C13 1_555 1_555
H27 C14 1_555 1_555
C15 C14 1_555 1_555
H28 C15 1_555 1_555
H29 C15 1_555 1_555
C16 C11 1_555 1_555
H30 C16 1_555 1_555
C17 C11 1_555 1_555
C18 O15 1_555 1_555
C19 O17 1_555 1_555
C20 C16 1_555 1_555
Tm4 O5 1_555 1_555
O24 Tm4 1_555 1_555
O25 C27 1_555 1_555
O26 Tm4 1_555 1_555
O27 Tm2 1_555 1_555
O28 Tm3 1_555 1_555
O29 Tm3 1_555 1_555
O32 Tm4 1_555 1_555
O33 Tm4 1_555 1_555
H33 O33 1_555 1_555
H34 O33 1_555 1_555
O34 Tm2 1_555 1_555
H35 O34 1_555 1_555
H36 O34 1_555 1_555
H39 C22 1_555 1_555
C23 C22 1_555 1_555
H40 C23 1_555 1_555
C24 C23 1_555 1_555
H41 C24 1_555 1_555
C25 C24 1_555 1_555
H42 C25 1_555 1_555
H43 C25 1_555 1_555
C27 O24 1_555 1_555
C28 O26 1_555 1_555
C29 O28 1_555 1_555
Tm7 O19 1_555 1_555
O6 Tm4 1_555 1_555
C3 C8 1_555 1_555
O16 C18 1_555 1_555
O18 C19 1_555 1_555
O20 Tm7 1_555 1_555
C13 C18 1_555 1_555
C14 C19 1_555 1_555
C15 C16 1_555 1_555
O27 C28 1_555 1_555
O29 C29 1_555 1_555
C23 C28 1_555 1_555
C24 C29 1_555 1_555
O31 C30 1_555 1_555
C21 H37 1_555 1_555
C26 C21 1_555 1_555
H44 C26 1_555 1_555
C30 C26 1_555 1_555
O31 Tm5 1_555 1_555
H1_2 O9_2 1_555 1_555
H2_2 O9_2 1_555 1_555
H3_2 O10_2 1_555 1_555
H4_2 O10_2 1_555 1_555
Tm5 O1_2 1_555 1_555
Tm2_2 O4_2 1_555 1_555
O1_2 C7_2 1_555 1_555
O2_2 C7_2 1_555 1_555
O3_2 Tm5 1_555 1_555
O4_2 C8_2 1_555 1_555
O5_2 C9_2 1_555 1_555
O6_2 C9_2 1_555 1_555
O7_2 C10_2 1_555 1_555
O8_2 C10_2 1_555 1_555
O11_2 Tm2_2 1_555 1_555
O12_2 Tm2_2 1_555 1_555
H5_2 O12_2 1_555 1_555
H6_2 O12_2 1_555 1_555
C1_2 H7_2 1_555 1_555
C2_2 C1_2 1_555 1_555
H8_2 C2_2 1_555 1_555
H9_2 C2_2 1_555 1_555
C3_2 C2_2 1_555 1_555
H10_2 C3_2 1_555 1_555
C4_2 C3_2 1_555 1_555
H11_2 C4_2 1_555 1_555
C5_2 C4_2 1_555 1_555
H12_2 C5_2 1_555 1_555
H13_2 C5_2 1_555 1_555
C6_2 C1_2 1_555 1_555
H14_2 C6_2 1_555 1_555
C7_2 C1_2 1_555 1_555
C8_2 O3_2 1_555 1_555
C9_2 C4_2 1_555 1_555
C10_2 C6_2 1_555 1_555
Tm6 O13_2 1_555 1_555
O13_2 C17_2 1_555 1_555
O14_2 C17_2 1_555 1_555
O15_2 Tm6 1_555 1_555
O16_2 Tm2_2 1_555 1_555
O17_2 Tm5 1_555 1_555
O18_2 Tm5 1_555 1_555
O19_2 C20_2 1_555 1_555
O20_2 C20_2 1_555 1_555
O23_2 Tm2_2 1_555 1_555
H21_2 O23_2 1_555 1_555
H22_2 O23_2 1_555 1_555
C11_2 H23_2 1_555 1_555
C12_2 C11_2 1_555 1_555
H24_2 C12_2 1_555 1_555
H25_2 C12_2 1_555 1_555
C13_2 C12_2 1_555 1_555
H26_2 C13_2 1_555 1_555
C14_2 C13_2 1_555 1_555
H27_2 C14_2 1_555 1_555
C15_2 C14_2 1_555 1_555
H28_2 C15_2 1_555 1_555
H29_2 C15_2 1_555 1_555
C16_2 C11_2 1_555 1_555
H30_2 C16_2 1_555 1_555
C17_2 C11_2 1_555 1_555
C18_2 O15_2 1_555 1_555
C19_2 O17_2 1_555 1_555
C20_2 C16_2 1_555 1_555
Tm7 O5_2 1_555 1_555
O24_2 Tm7 1_555 1_555
O25_2 C27_2 1_555 1_555
O26_2 Tm7 1_555 1_555
O27_2 Tm2_2 1_555 1_555
O28_2 Tm6 1_555 1_555
O29_2 Tm6 1_555 1_555
O30_2 C30_2 1_555 1_555
O31_2 C30_2 1_555 1_555
O32_2 Tm7 1_555 1_555
H31_2 O32_2 1_555 1_555
H32_2 O32_2 1_555 1_555
O33_2 Tm7 1_555 1_555
H33_2 O33_2 1_555 1_555
H34_2 O33_2 1_555 1_555
O34_2 Tm2_2 1_555 1_555
H35_2 O34_2 1_555 1_555
H36_2 O34_2 1_555 1_555
C21_2 H37_2 1_555 1_555
C22_2 C21_2 1_555 1_555
H38_2 C22_2 1_555 1_555
H39_2 C22_2 1_555 1_555
C23_2 C22_2 1_555 1_555
H40_2 C23_2 1_555 1_555
C24_2 C23_2 1_555 1_555
H41_2 C24_2 1_555 1_555
C25_2 C24_2 1_555 1_555
H42_2 C25_2 1_555 1_555
H43_2 C25_2 1_555 1_555
C26_2 C21_2 1_555 1_555
H44_2 C26_2 1_555 1_555
C27_2 O24_2 1_555 1_555
C28_2 O26_2 1_555 1_555
C29_2 O28_2 1_555 1_555
C30_2 C26_2 1_555 1_555
Tm5_2 O30_2 1_555 1_555
Tm6_2 O7_2 1_555 1_555
Tm7_2 O19_2 1_555 1_555
O6_2 Tm7 1_555 1_555
O8_2 Tm6_2 1_555 1_555
C3_2 C8_2 1_555 1_555
C5_2 C6_2 1_555 1_555
O16_2 C18_2 1_555 1_555
O18_2 C19_2 1_555 1_555
O20_2 Tm7_2 1_555 1_555
C13_2 C18_2 1_555 1_555
C14_2 C19_2 1_555 1_555
C15_2 C16_2 1_555 1_555
O27_2 C28_2 1_555 1_555
O29_2 C29_2 1_555 1_555
O31_2 Tm5_2 1_555 1_555
C21_2 C27_2 1_555 1_555
C23_2 C28_2 1_555 1_555
C24_2 C29_2 1_555 1_555
C25_2 C26_2 1_555 1_555
H17_2 O21_2 1_555 1_555
H18_2 O21_2 1_555 1_555
H19_2 O22_2 1_555 1_555
H20_2 O22_2 1_555 1_555
Tm5_2 O1_3 1_555 1_555
Tm2_3 O4_3 1_555 1_555
O1_3 C7_3 1_555 1_555
O2_3 C7_3 1_555 1_555
O3_3 Tm5_2 1_555 1_555
O4_3 C8_3 1_555 1_555
O35 C10_3 1_555 1_555
O38 C10_3 1_555 1_555
O9_3 Tm5_2 1_555 1_555
H1_3 O9_3 1_555 1_555
H2_3 O9_3 1_555 1_555
O10_3 Tm5_2 1_555 1_555
H3_3 O10_3 1_555 1_555
H4_3 O10_3 1_555 1_555
O11_3 Tm2_3 1_555 1_555
C1_3 H7_3 1_555 1_555
C2_3 C1_3 1_555 1_555
H8_3 C2_3 1_555 1_555
H9_3 C2_3 1_555 1_555
C3_3 C2_3 1_555 1_555
H10_3 C3_3 1_555 1_555
C4_3 C3_3 1_555 1_555
H11_3 C4_3 1_555 1_555
C5_3 C4_3 1_555 1_555
H12_3 C5_3 1_555 1_555
H13_3 C5_3 1_555 1_555
C6_3 C1_3 1_555 1_555
H14_3 C6_3 1_555 1_555
C7_3 C1_3 1_555 1_555
C8_3 O3_3 1_555 1_555
C10_3 C6_3 1_555 1_555
H16_2 O11_3 1_555 1_555
O17_3 Tm5_2 1_555 1_555
O18_3 Tm5_2 1_555 1_555
C19_3 O17_3 1_555 1_555
O34_3 Tm2_3 1_555 1_555
H35_3 O34_3 1_555 1_555
H36_3 O34_3 1_555 1_555
C3_3 C8_3 1_555 1_555
C5_3 C6_3 1_555 1_555
O18_3 C19_3 1_555 1_555
O5_3 C9_3 1_555 1_555
O6_3 C9_3 1_555 1_555
O11_4 Tm2_4 1_555 1_555
O23_3 Tm2_4 1_555 1_555
H21_3 O23_3 1_555 1_555
H22_3 O23_3 1_555 1_555
Tm7_2 O5_3 1_555 1_555
O24_3 Tm7_2 1_555 1_555
O32_3 Tm7_2 1_555 1_555
H31_3 O32_3 1_555 1_555
H32_3 O32_3 1_555 1_555
O33_3 Tm7_2 1_555 1_555
H33_3 O33_3 1_555 1_555
H34_3 O33_3 1_555 1_555
O6_3 Tm7_2 1_555 1_555
O11_5 Tm2_5 1_555 1_555
O14_3 C17_3 1_555 1_555
O16_3 Tm2_5 1_555 1_555
O36 C20_3 1_555 1_555
O39 C20_3 1_555 1_555
C11_3 H23_3 1_555 1_555
C12_3 C11_3 1_555 1_555
H24_3 C12_3 1_555 1_555
H25_3 C12_3 1_555 1_555
C13_3 C12_3 1_555 1_555
H26_3 C13_3 1_555 1_555
C14_3 C13_3 1_555 1_555
H27_3 C14_3 1_555 1_555
C15_3 C14_3 1_555 1_555
H28_3 C15_3 1_555 1_555
H29_3 C15_3 1_555 1_555
C16_3 C11_3 1_555 1_555
H30_3 C16_3 1_555 1_555
C17_3 C11_3 1_555 1_555
C18_3 O15_3 1_555 1_555
C20_3 C16_3 1_555 1_555
O16_3 C18_3 1_555 1_555
C13_3 C18_3 1_555 1_555
C15_3 C16_3 1_555 1_555
O11_6 Tm2_6 1_555 1_555
O12_3 Tm2_6 1_555 1_555
H5_3 O12_3 1_555 1_555
H6_3 O12_3 1_555 1_555
H15_3 O11_6 1_555 1_555
Tm6_2 O13_3 1_555 1_555
O21_3 Tm6_2 1_555 1_555
H17_3 O21_3 1_555 1_555
H18_3 O21_3 1_555 1_555
O22_3 Tm6_2 1_555 1_555
H19_3 O22_3 1_555 1_555
H20_3 O22_3 1_555 1_555
O25_3 C27_3 1_555 1_555
O27_3 Tm2_6 1_555 1_555
O28_3 Tm6_2 1_555 1_555
O29_3 Tm6_2 1_555 1_555
O37 C30_3 1_555 1_555
O40 C30_3 1_555 1_555
C21_3 H37_3 1_555 1_555
C22_3 C21_3 1_555 1_555
H38_3 C22_3 1_555 1_555
H39_3 C22_3 1_555 1_555
C23_3 C22_3 1_555 1_555
H40_3 C23_3 1_555 1_555
C24_3 C23_3 1_555 1_555
H41_3 C24_3 1_555 1_555
C25_3 C24_3 1_555 1_555
H42_3 C25_3 1_555 1_555
H43_3 C25_3 1_555 1_555
C26_3 C21_3 1_555 1_555
H44_3 C26_3 1_555 1_555
C28_3 O26_3 1_555 1_555
C29_3 O28_3 1_555 1_555
C30_3 C26_3 1_555 1_555
O27_3 C28_3 1_555 1_555
O29_3 C29_3 1_555 1_555
C21_3 C27_3 1_555 1_555
C23_3 C28_3 1_555 1_555
C24_3 C29_3 1_555 1_555
C25_3 C26_3 1_555 1_555
O31_3 C30_4 1_555 1_555
C21_4 H37_4 1_555 1_555
C26_4 C21_4 1_555 1_555
H44_4 C26_4 1_555 1_555
C30_4 C26_4 1_555 1_555
O31_3 Tm5_3 1_555 1_555
Tm1_2 O1_4 1_555 1_555
Tm2_7 O4_4 1_555 1_555
O1_4 C7_4 1_555 1_555
O2_4 C7_4 1_555 1_555
O3_4 Tm1_2 1_555 1_555
O4_4 C8_4 1_555 1_555
O5_4 C9_4 1_555 1_555
O6_4 C9_4 1_555 1_555
O9_4 Tm1_2 1_555 1_555
O10_4 Tm1_2 1_555 1_555
H3_4 O10_4 1_555 1_555
H4_4 O10_4 1_555 1_555
O11_7 Tm2_7 1_555 1_555
O12_4 Tm2_7 1_555 1_555
H5_4 O12_4 1_555 1_555
H6_4 O12_4 1_555 1_555
H9_4 C2_4 1_555 1_555
C3_4 C2_4 1_555 1_555
H10_4 C3_4 1_555 1_555
C4_4 C3_4 1_555 1_555
H11_4 C4_4 1_555 1_555
C5_4 C4_4 1_555 1_555
H12_4 C5_4 1_555 1_555
H13_4 C5_4 1_555 1_555
C8_4 O3_4 1_555 1_555
C9_4 C4_4 1_555 1_555
Tm3_2 O13_4 1_555 1_555
O13_4 C17_4 1_555 1_555
O14_4 C17_4 1_555 1_555
O15_4 Tm3_2 1_555 1_555
O16_4 Tm2_7 1_555 1_555
O17_4 Tm1_2 1_555 1_555
O18_4 Tm1_2 1_555 1_555
O19_3 C20_4 1_555 1_555
O20_3 C20_4 1_555 1_555
O21_4 Tm3_2 1_555 1_555
H18_4 O21_4 1_555 1_555
O22_4 Tm3_2 1_555 1_555
H19_4 O22_4 1_555 1_555
H20_4 O22_4 1_555 1_555
O23_4 Tm2_7 1_555 1_555
H21_4 O23_4 1_555 1_555
H22_4 O23_4 1_555 1_555
C11_4 H23_4 1_555 1_555
C12_4 C11_4 1_555 1_555
H24_4 C12_4 1_555 1_555
H25_4 C12_4 1_555 1_555
C13_4 C12_4 1_555 1_555
H26_4 C13_4 1_555 1_555
C14_4 C13_4 1_555 1_555
H27_4 C14_4 1_555 1_555
C15_4 C14_4 1_555 1_555
H28_4 C15_4 1_555 1_555
H29_4 C15_4 1_555 1_555
C16_4 C11_4 1_555 1_555
H30_4 C16_4 1_555 1_555
C17_4 C11_4 1_555 1_555
C18_4 O15_4 1_555 1_555
C19_4 O17_4 1_555 1_555
C20_4 C16_4 1_555 1_555
Tm4_2 O5_4 1_555 1_555
O24_4 Tm4_2 1_555 1_555
O25_4 C27_4 1_555 1_555
O26_4 Tm4_2 1_555 1_555
O27_4 Tm2_7 1_555 1_555
O28_4 Tm3_2 1_555 1_555
O29_4 Tm3_2 1_555 1_555
O32_4 Tm4_2 1_555 1_555
O33_4 Tm4_2 1_555 1_555
H33_4 O33_4 1_555 1_555
H34_4 O33_4 1_555 1_555
O34_4 Tm2_7 1_555 1_555
H35_4 O34_4 1_555 1_555
H36_4 O34_4 1_555 1_555
H39_4 C22_4 1_555 1_555
C23_4 C22_4 1_555 1_555
H40_4 C23_4 1_555 1_555
C24_4 C23_4 1_555 1_555
H41_4 C24_4 1_555 1_555
C25_4 C24_4 1_555 1_555
H42_4 C25_4 1_555 1_555
H43_4 C25_4 1_555 1_555
C27_4 O24_4 1_555 1_555
C28_4 O26_4 1_555 1_555
C29_4 O28_4 1_555 1_555
Tm7_3 O19_3 1_555 1_555
O6_4 Tm4_2 1_555 1_555
C3_4 C8_4 1_555 1_555
O16_4 C18_4 1_555 1_555
O18_4 C19_4 1_555 1_555
O20_3 Tm7_3 1_555 1_555
C13_4 C18_4 1_555 1_555
C14_4 C19_4 1_555 1_555
C15_4 C16_4 1_555 1_555
O27_4 C28_4 1_555 1_555
O29_4 C29_4 1_555 1_555
C23_4 C28_4 1_555 1_555
C24_4 C29_4 1_555 1_555
O8_3 C10_4 1_555 1_555
C1_4 H7_4 1_555 1_555
C6_4 C1_4 1_555 1_555
H14_4 C6_4 1_555 1_555
C10_4 C6_4 1_555 1_555
O8_3 Tm6_3 1_555 1_555
H17_5 O21_5 1_555 1_555
H18_5 O21_5 1_555 1_555
H19_5 O22_5 1_555 1_555
H20_5 O22_5 1_555 1_555
Tm5_3 O1_5 1_555 1_555
Tm2_8 O4_5 1_555 1_555
O1_5 C7_5 1_555 1_555
O2_5 C7_5 1_555 1_555
O3_5 Tm5_3 1_555 1_555
O4_5 C8_5 1_555 1_555
O5_5 C9_5 1_555 1_555
O6_5 C9_5 1_555 1_555
O7_4 C10_5 1_555 1_555
O8_4 C10_5 1_555 1_555
O11_8 Tm2_8 1_555 1_555
O12_5 Tm2_8 1_555 1_555
H5_5 O12_5 1_555 1_555
H6_5 O12_5 1_555 1_555
C1_5 H7_5 1_555 1_555
C2_5 C1_5 1_555 1_555
H8_5 C2_5 1_555 1_555
H9_5 C2_5 1_555 1_555
C3_5 C2_5 1_555 1_555
H10_5 C3_5 1_555 1_555
C4_5 C3_5 1_555 1_555
H11_5 C4_5 1_555 1_555
C5_5 C4_5 1_555 1_555
H12_5 C5_5 1_555 1_555
H13_5 C5_5 1_555 1_555
C6_5 C1_5 1_555 1_555
H14_5 C6_5 1_555 1_555
C7_5 C1_5 1_555 1_555
C8_5 O3_5 1_555 1_555
C9_5 C4_5 1_555 1_555
C10_5 C6_5 1_555 1_555
Tm6_3 O13_5 1_555 1_555
O13_5 C17_5 1_555 1_555
O14_5 C17_5 1_555 1_555
O15_5 Tm6_3 1_555 1_555
O16_5 Tm2_8 1_555 1_555
O17_5 Tm5_3 1_555 1_555
O18_5 Tm5_3 1_555 1_555
O19_4 C20_5 1_555 1_555
O20_4 C20_5 1_555 1_555
O23_5 Tm2_8 1_555 1_555
H21_5 O23_5 1_555 1_555
H22_5 O23_5 1_555 1_555
C11_5 H23_5 1_555 1_555
C12_5 C11_5 1_555 1_555
H24_5 C12_5 1_555 1_555
H25_5 C12_5 1_555 1_555
C13_5 C12_5 1_555 1_555
H26_5 C13_5 1_555 1_555
C14_5 C13_5 1_555 1_555
H27_5 C14_5 1_555 1_555
C15_5 C14_5 1_555 1_555
H28_5 C15_5 1_555 1_555
H29_5 C15_5 1_555 1_555
C16_5 C11_5 1_555 1_555
H30_5 C16_5 1_555 1_555
C17_5 C11_5 1_555 1_555
C18_5 O15_5 1_555 1_555
C19_5 O17_5 1_555 1_555
C20_5 C16_5 1_555 1_555
Tm7_3 O5_5 1_555 1_555
O24_5 Tm7_3 1_555 1_555
O25_5 C27_5 1_555 1_555
O26_5 Tm7_3 1_555 1_555
O27_5 Tm2_8 1_555 1_555
O28_5 Tm6_3 1_555 1_555
O29_5 Tm6_3 1_555 1_555
O30_4 C30_5 1_555 1_555
O31_4 C30_5 1_555 1_555
O32_5 Tm7_3 1_555 1_555
H31_5 O32_5 1_555 1_555
H32_5 O32_5 1_555 1_555
O33_5 Tm7_3 1_555 1_555
H33_5 O33_5 1_555 1_555
H34_5 O33_5 1_555 1_555
O34_5 Tm2_8 1_555 1_555
H35_5 O34_5 1_555 1_555
H36_5 O34_5 1_555 1_555
C21_5 H37_5 1_555 1_555
C22_5 C21_5 1_555 1_555
H38_5 C22_5 1_555 1_555
H39_5 C22_5 1_555 1_555
C23_5 C22_5 1_555 1_555
H40_5 C23_5 1_555 1_555
C24_5 C23_5 1_555 1_555
H41_5 C24_5 1_555 1_555
C25_5 C24_5 1_555 1_555
H42_5 C25_5 1_555 1_555
H43_5 C25_5 1_555 1_555
C26_5 C21_5 1_555 1_555
H44_5 C26_5 1_555 1_555
C27_5 O24_5 1_555 1_555
C28_5 O26_5 1_555 1_555
C29_5 O28_5 1_555 1_555
C30_5 C26_5 1_555 1_555
Tm5_4 O30_4 1_555 1_555
Tm6_4 O7_4 1_555 1_555
Tm7_4 O19_4 1_555 1_555
O6_5 Tm7_3 1_555 1_555
O8_4 Tm6_4 1_555 1_555
C3_5 C8_5 1_555 1_555
C5_5 C6_5 1_555 1_555
O16_5 C18_5 1_555 1_555
O18_5 C19_5 1_555 1_555
O20_4 Tm7_4 1_555 1_555
C13_5 C18_5 1_555 1_555
C14_5 C19_5 1_555 1_555
C15_5 C16_5 1_555 1_555
O27_5 C28_5 1_555 1_555
O29_5 C29_5 1_555 1_555
O31_4 Tm5_4 1_555 1_555
C21_5 C27_5 1_555 1_555
C23_5 C28_5 1_555 1_555
C24_5 C29_5 1_555 1_555
C25_5 C26_5 1_555 1_555
H1_5 O9_5 1_555 1_555
H2_5 O9_5 1_555 1_555
H3_5 O10_5 1_555 1_555
H4_5 O10_5 1_555 1_555
O11_9 Tm2_9 1_555 1_555
O12_6 Tm2_9 1_555 1_555
H5_6 O12_6 1_555 1_555
H6_6 O12_6 1_555 1_555
H15_7 O11_9 1_555 1_555
Tm6_4 O13_6 1_555 1_555
O21_6 Tm6_4 1_555 1_555
H17_6 O21_6 1_555 1_555
H18_6 O21_6 1_555 1_555
O22_6 Tm6_4 1_555 1_555
H19_6 O22_6 1_555 1_555
H20_6 O22_6 1_555 1_555
O25_6 C27_6 1_555 1_555
O27_6 Tm2_9 1_555 1_555
O28_6 Tm6_4 1_555 1_555
O29_6 Tm6_4 1_555 1_555
O37_2 C30_6 1_555 1_555
O40_2 C30_6 1_555 1_555
C21_6 H37_6 1_555 1_555
C22_6 C21_6 1_555 1_555
H38_6 C22_6 1_555 1_555
H39_6 C22_6 1_555 1_555
C23_6 C22_6 1_555 1_555
H40_6 C23_6 1_555 1_555
C24_6 C23_6 1_555 1_555
H41_6 C24_6 1_555 1_555
C25_6 C24_6 1_555 1_555
H42_6 C25_6 1_555 1_555
H43_6 C25_6 1_555 1_555
C26_6 C21_6 1_555 1_555
H44_6 C26_6 1_555 1_555
C28_6 O26_6 1_555 1_555
C29_6 O28_6 1_555 1_555
C30_6 C26_6 1_555 1_555
O27_6 C28_6 1_555 1_555
O29_6 C29_6 1_555 1_555
C21_6 C27_6 1_555 1_555
C23_6 C28_6 1_555 1_555
C24_6 C29_6 1_555 1_555
C25_6 C26_6 1_555 1_555
O11_10 Tm2_10 1_555 1_555
O14_6 C17_6 1_555 1_555
O16_6 Tm2_10 1_555 1_555
O36_2 C20_6 1_555 1_555
O39_2 C20_6 1_555 1_555
C11_6 H23_6 1_555 1_555
C12_6 C11_6 1_555 1_555
H24_6 C12_6 1_555 1_555
H25_6 C12_6 1_555 1_555
C13_6 C12_6 1_555 1_555
H26_6 C13_6 1_555 1_555
C14_6 C13_6 1_555 1_555
H27_6 C14_6 1_555 1_555
C15_6 C14_6 1_555 1_555
H28_6 C15_6 1_555 1_555
H29_6 C15_6 1_555 1_555
C16_6 C11_6 1_555 1_555
H30_6 C16_6 1_555 1_555
C17_6 C11_6 1_555 1_555
C18_6 O15_6 1_555 1_555
C20_6 C16_6 1_555 1_555
O16_6 C18_6 1_555 1_555
C13_6 C18_6 1_555 1_555
C15_6 C16_6 1_555 1_555
O5_6 C9_6 1_555 1_555
O6_6 C9_6 1_555 1_555
O11_11 Tm2_11 1_555 1_555
O23_6 Tm2_11 1_555 1_555
H21_6 O23_6 1_555 1_555
H22_6 O23_6 1_555 1_555
Tm7_4 O5_6 1_555 1_555
O24_6 Tm7_4 1_555 1_555
O32_6 Tm7_4 1_555 1_555
H31_6 O32_6 1_555 1_555
H32_6 O32_6 1_555 1_555
O33_6 Tm7_4 1_555 1_555
H33_6 O33_6 1_555 1_555
H34_6 O33_6 1_555 1_555
O6_6 Tm7_4 1_555 1_555
Tm5_4 O1_6 1_555 1_555
Tm2_12 O4_6 1_555 1_555
O1_6 C7_6 1_555 1_555
O2_6 C7_6 1_555 1_555
O3_6 Tm5_4 1_555 1_555
O4_6 C8_6 1_555 1_555
O35_2 C10_6 1_555 1_555
O38_2 C10_6 1_555 1_555
O9_6 Tm5_4 1_555 1_555
H1_6 O9_6 1_555 1_555
H2_6 O9_6 1_555 1_555
O10_6 Tm5_4 1_555 1_555
H3_6 O10_6 1_555 1_555
H4_6 O10_6 1_555 1_555
O11_12 Tm2_12 1_555 1_555
C1_6 H7_6 1_555 1_555
C2_6 C1_6 1_555 1_555
H8_6 C2_6 1_555 1_555
H9_6 C2_6 1_555 1_555
C3_6 C2_6 1_555 1_555
H10_6 C3_6 1_555 1_555
C4_6 C3_6 1_555 1_555
H11_6 C4_6 1_555 1_555
C5_6 C4_6 1_555 1_555
H12_6 C5_6 1_555 1_555
H13_6 C5_6 1_555 1_555
C6_6 C1_6 1_555 1_555
H14_6 C6_6 1_555 1_555
C7_6 C1_6 1_555 1_555
C8_6 O3_6 1_555 1_555
C10_6 C6_6 1_555 1_555
H16_4 O11_12 1_555 1_555
O17_6 Tm5_4 1_555 1_555
O18_6 Tm5_4 1_555 1_555
C19_6 O17_6 1_555 1_555
O34_6 Tm2_12 1_555 1_555
H35_6 O34_6 1_555 1_555
H36_6 O34_6 1_555 1_555
C3_6 C8_6 1_555 1_555
C5_6 C6_6 1_555 1_555
O18_6 C19_6 1_555 1_555

#END
