
###############################################################################
#
# This file contains modified crystal structure data generated from the
# MOF subset of the Cambridge Structural Database (CSD) v543 
# hosted by the Cambridge Crystallographic Data Centre (CCDC).
#
# This work is licensed under the Creative Commons
# Attribution-NonCommercial-ShareAlike 4.0 International License.
# To view a copy of this license, visit
# http://creativecommons.org/licenses/by-nc-sa/4.0/
# or send a letter to
# Creative Commons, PO Box 1866, Mountain View, CA 94042, USA.
#
# CIF created using the CSD Python API on 29 September 2022
# The structure has been converted into the P1 space group
# The structure has a 3D framework
# The original CSD entry UDITEI is in the rhombohedral crystal system
# The framework has been calculated to contain at least 10.0% void space
# The void calculation uses a probe of radius 1.32A, grid spacing 0.4
# Generated hydrogen atom positions removed from atoms on special positions
#
###############################################################################

data_UDITEI
_chemical_formula_moiety         '(C180 H270 Ho30 O206)n'
_symmetry_cell_setting           triclinic
_symmetry_space_group_name_H-M   'P 1'
_symmetry_Int_Tables_number      1
_space_group_name_Hall           'P 1'
loop_
_symmetry_equiv_pos_site_id
_symmetry_equiv_pos_as_xyz
1 x,y,z
_cell_length_a                   19.380(3)
_cell_length_b                   19.380(3)
_cell_length_c                   21.892(4)
_cell_angle_alpha                90
_cell_angle_beta                 90
_cell_angle_gamma                120
_cell_volume                     7120.72
loop_
_atom_site_label
_atom_site_type_symbol
_atom_site_fract_x
_atom_site_fract_y
_atom_site_fract_z
H3 H 0.024(2) 0.292(4) 0.024(2)
Ho4 Ho 0.382944(17) 0.151713(12) 0.044889(9)
O32 O 0.2704(3) 0.1324(2) 0.09534(14)
H31 H 0.258(5) 0.103(3) 0.126(2)
H32 H 0.263(3) 0.171(2) 0.099(2)
O33 O 0.29937(28) 0.02177(19) 0.00819(15)
O36 O 0.38529(19) 0.08079(27) 0.12813(14)
O39 O 0.5009(2) 0.1588(3) 0.03570(17)
O41 O 0.4317(2) 0.2903(2) 0.03174(14)
O44 O 0.4352(2) 0.2544(2) 0.12532(14)
Ho2 Ho -0.0000 0.0000 0.786153(19)
O4 O 0.02884(19) 0.28138(19) 0.79480(14)
O12 O -0.0000 0.0000 0.6789(3)
H7 H 0.0331 0.0558 0.6794
O24 O 0.30126(26) 0.16911(18) 0.96426(13)
O25 O 0.40473(27) 0.15834(19) 0.93862(14)
O26 O 0.24905(28) 0.01135(19) 0.88905(14)
O28 O 0.1274(4) 0.0675(2) 0.76152(18)
O29 O 0.1745(3) 0.0087(2) 0.70237(17)
O30 O 0.1920(3) 0.2350(2) 0.69841(14)
O31 O 0.1526(3) 0.2315(2) 0.79199(14)
H34 H 0.294(5) 0.023(3) 0.9705(13)
O34 O 0.0401(3) 0.0958(2) 0.86346(19)
H35 H 0.013(6) 0.093(4) 0.894(3)
H36 H 0.076(6) 0.142(3) 0.854(3)
C21 C 0.3342(4) 0.1767(3) 0.85656(19)
H37 H 0.3822 0.2278 0.8438
C22 C 0.3355(4) 0.1107(3) 0.81695(19)
H38 H 0.3887 0.1155 0.8239
C23 C 0.3330(4) 0.1295(3) 0.74950(19)
H39 H 0.3285 0.0848 0.7246
H40 H 0.3839 0.1777 0.7386
C24 C 0.2640(4) 0.1434(3) 0.73343(19)
H41 H 0.2740 0.1652 0.6909
C25 C 0.2630(4) 0.2069(3) 0.77464(19)
H42 H 0.3147 0.2571 0.7673
C26 C 0.2625(4) 0.1868(3) 0.84249(19)
H43 H 0.2649 0.2302 0.8679
H44 H 0.2127 0.1370 0.8523
C27 C 0.3464(4) 0.1670(3) 0.92335(19)
C28 C 0.2733(4) 0.0253(3) 0.83485(19)
C29 C 0.1838(4) 0.0675(3) 0.7326(2)
C30 C 0.1981(4) 0.2239(3) 0.7542(2)
Ho6 Ho 0.102102(12) 0.283723(17) 0.711556(9)
Ho2_2 Ho -0.0000 1.0000 0.786153(19)
O12_2 O -0.0000 1.0000 0.6789(3)
H16 H 0.0227 0.9669 0.6794
O19 O 0.0430(2) 0.8080(3) 0.69841(14)
O20 O 0.0789(2) 0.8474(3) 0.79199(14)
O23 O 0.0557(2) 0.9599(3) 0.86346(19)
H21 H 0.080(4) 0.987(6) 0.894(3)
H22 H 0.066(5) 0.924(6) 0.854(3)
C20 C 0.0258(3) 0.8019(4) 0.7542(2)
O27 O 0.25254(27) 0.97116(19) 0.79480(14)
Ho5 Ho 0.181620(12) 0.897898(12) 0.711556(9)
Ho1 Ho 0.848287(12) 0.231231(12) 0.044889(9)
O9 O 0.8676(2) 0.1380(2) 0.09534(14)
H1 H 0.897(3) 0.155(4) 0.126(2)
H2 H 0.829(2) 0.092(2) 0.099(2)
O10 O 0.97823(19) 0.2776(2) 0.00819(15)
O37 O 0.91921(27) 0.30449(19) 0.12813(14)
O40 O 0.8412(3) 0.3420(2) 0.03570(17)
O42 O 0.7097(2) 0.1413(3) 0.03174(14)
O45 O 0.7456(2) 0.1807(3) 0.12532(14)
Ho3 Ho 0.768769(12) 0.617056(17) 0.044889(9)
O21 O 0.8620(2) 0.7296(3) 0.09534(14)
H17 H 0.845(4) 0.742(5) 0.126(2)
H18 H 0.908(2) 0.737(3) 0.099(2)
O22 O 0.7224(2) 0.70063(28) 0.00819(15)
H19 H 0.708(4) 0.732(4) 0.024(2)
O35 O 0.69551(19) 0.61471(19) 0.12813(14)
O38 O 0.6580(2) 0.4991(2) 0.03570(17)
O43 O 0.8587(3) 0.5683(2) 0.03174(14)
O46 O 0.8193(3) 0.5648(2) 0.12532(14)
Ho2_3 Ho 1.0000 1.0000 0.786153(19)
O7 O 0.7650(2) 0.9570(2) 0.69841(14)
O8 O 0.7685(2) 0.9211(2) 0.79199(14)
O11 O 0.9042(2) 0.9443(2) 0.86346(19)
H5 H 0.907(4) 0.920(4) 0.894(3)
H6 H 0.858(3) 0.934(5) 0.854(3)
O12_3 O 1.0000 1.0000 0.6789(3)
C10 C 0.7761(3) 0.9742(3) 0.7542(2)
O13 O 0.86785(19) 0.69874(26) 0.96426(13)
O14 O 0.75361(19) 0.59527(27) 0.93862(14)
O15 O 0.7623(2) 0.75095(28) 0.88905(14)
O16 O 0.71862(19) 0.74746(27) 0.79480(14)
O17 O 0.9401(3) 0.8726(4) 0.76152(18)
O18 O 0.8342(2) 0.8255(3) 0.70237(17)
H20 H 0.729(4) 0.706(5) 0.9705(13)
C11 C 0.8425(3) 0.6658(4) 0.85656(19)
H23 H 0.8456 0.6178 0.8438
C12 C 0.7752(3) 0.6645(4) 0.81695(19)
H24 H 0.7268 0.6113 0.8239
C13 C 0.7965(3) 0.6670(4) 0.74950(19)
H25 H 0.7563 0.6715 0.7246
H26 H 0.7938 0.6161 0.7386
C14 C 0.8794(3) 0.7360(4) 0.73343(19)
H27 H 0.8912 0.7260 0.6909
C15 C 0.9439(3) 0.7370(4) 0.77464(19)
H28 H 0.9424 0.6853 0.7673
C16 C 0.9243(3) 0.7375(4) 0.84249(19)
H29 H 0.9653 0.7351 0.8679
H30 H 0.9243 0.7873 0.8523
C17 C 0.8206(3) 0.6536(4) 0.92335(19)
C18 C 0.7520(3) 0.7267(4) 0.83485(19)
C19 C 0.8837(3) 0.8162(4) 0.7326(2)
Ho7 Ho 0.716277(17) 0.818380(12) 0.711556(9)
H7_2 H 0.9442 0.9773 0.6794
Ho4_2 Ho 0.049611(17) 0.485046(12) 0.378222(9)
O25_2 O 0.07140(27) 0.49167(19) 0.27195(14)
C21_2 C 0.0009(4) 0.5100(3) 0.18989(19)
H37_2 H 0.0489 0.5611 0.1771
C22_2 C 0.0022(4) 0.4440(3) 0.15028(19)
H38_2 H 0.0554 0.4488 0.1572
H40_2 H 0.0506 0.5110 0.0719
C27_2 C 0.0131(4) 0.5003(3) 0.25668(19)
O36_2 O 0.05195(19) 0.41413(27) 0.46147(14)
O39_2 O 0.1675(2) 0.4922(3) 0.36904(17)
O41_2 O 0.0983(2) 0.6237(2) 0.36508(14)
O44_2 O 0.1018(2) 0.5878(2) 0.45866(14)
Ho1_2 Ho 0.514954(12) 0.564564(12) 0.378222(9)
Ho2_4 Ho 0.6667 0.3333 0.119486(19)
O1 O 0.49756(18) 0.46548(19) 0.29759(13)
O2 O 0.50833(19) 0.57972(19) 0.27195(14)
O3 O 0.65532(19) 0.5710(2) 0.22238(14)
O5 O 0.5992(2) 0.3932(3) 0.09485(18)
O9_2 O 0.5343(2) 0.4713(2) 0.42867(14)
H1_2 H 0.564(3) 0.488(4) 0.459(2)
H2_2 H 0.496(2) 0.425(2) 0.432(2)
O10_2 O 0.64490(19) 0.6109(2) 0.34152(15)
H3_2 H 0.691(2) 0.625(4) 0.357(2)
H4 H 0.644(3) 0.604(4) 0.3038(13)
O11_2 O 0.5709(2) 0.2776(2) 0.19679(19)
H5_2 H 0.574(4) 0.253(4) 0.227(3)
H6_2 H 0.525(3) 0.267(5) 0.187(3)
O12_4 O 0.6667 0.3333 0.0122(3)
C1 C 0.4900(3) 0.4908(3) 0.18989(19)
H8 H 0.4389 0.4877 0.1771
C2 C 0.5560(3) 0.5581(3) 0.15028(19)
H9 H 0.5512 0.6065 0.1572
C3 C 0.5372(3) 0.5368(3) 0.08283(19)
H10 H 0.5819 0.5770 0.0579
H11 H 0.4890 0.5395 0.0719
C4 C 0.5233(3) 0.4539(3) 0.06676(19)
H12 H 0.5015 0.4421 0.0242
C5 C 0.4598(3) 0.3894(3) 0.10797(19)
H13 H 0.4096 0.3909 0.1006
C6 C 0.4799(3) 0.4090(3) 0.17582(19)
H14 H 0.4365 0.3680 0.2012
H15 H 0.5297 0.4090 0.1856
C7 C 0.4997(3) 0.5127(3) 0.25668(19)
C8 C 0.6414(3) 0.5813(3) 0.16818(19)
C9 C 0.5992(3) 0.4496(3) 0.0659(2)
C10_2 C 0.4428(3) 0.3075(3) 0.0875(2)
O13_2 O 0.53452(19) 0.03207(26) 0.29759(13)
O15_2 O 0.4290(2) 0.08428(28) 0.22238(14)
O17_2 O 0.6068(3) 0.2059(4) 0.09485(18)
O21_2 O 0.5287(2) 0.0629(3) 0.42867(14)
H17_2 H 0.512(4) 0.075(5) 0.459(2)
H18_2 H 0.575(2) 0.070(3) 0.432(2)
O22_2 O 0.3891(2) 0.03396(28) 0.34152(15)
H19_2 H 0.375(4) 0.065(4) 0.357(2)
H20_2 H 0.396(4) 0.039(5) 0.3038(13)
O23_2 O 0.7224(2) 0.2932(3) 0.19679(19)
H21_2 H 0.747(4) 0.320(6) 0.227(3)
H22_2 H 0.733(5) 0.257(6) 0.187(3)
C13_2 C 0.4632(3) 0.0003(4) 0.08283(19)
H25_2 H 0.4230 0.0048 0.0579
C14_2 C 0.5461(3) 0.0693(4) 0.06676(19)
H27_2 H 0.5579 0.0593 0.0242
C15_2 C 0.6106(3) 0.0703(4) 0.10797(19)
H28_2 H 0.6091 0.0186 0.1006
C16_2 C 0.5910(3) 0.0708(4) 0.17582(19)
H29_2 H 0.6320 0.0684 0.2012
H30_2 H 0.5910 0.1206 0.1856
C18_2 C 0.4187(3) 0.0600(4) 0.16818(19)
C19_2 C 0.5504(3) 0.1495(4) 0.0659(2)
C20_2 C 0.6925(3) 0.1352(4) 0.0875(2)
O24_2 O 0.96793(26) 0.50244(18) 0.29759(13)
O26_2 O 0.91572(28) 0.34468(19) 0.22238(14)
O28_2 O 0.7941(4) 0.4008(2) 0.09485(18)
O32_2 O 0.9371(3) 0.4657(2) 0.42867(14)
H31_2 H 0.925(5) 0.436(3) 0.459(2)
H32_2 H 0.930(3) 0.504(2) 0.432(2)
O33_2 O 0.96604(28) 0.35510(19) 0.34152(15)
H33 H 0.935(4) 0.309(2) 0.357(2)
H34_2 H 0.961(5) 0.356(3) 0.3038(13)
O34_2 O 0.7068(3) 0.4291(2) 0.19679(19)
H35_2 H 0.680(6) 0.426(4) 0.227(3)
H36_2 H 0.743(6) 0.475(3) 0.187(3)
C23_2 C 0.9997(4) 0.4628(3) 0.08283(19)
H39_2 H 0.9952 0.4181 0.0579
C24_2 C 0.9307(4) 0.4767(3) 0.06676(19)
H41_2 H 0.9407 0.4985 0.0242
C25_2 C 0.9297(4) 0.5402(3) 0.10797(19)
H42_2 H 0.9814 0.5904 0.1006
C26_2 C 0.9292(4) 0.5201(3) 0.17582(19)
H43_2 H 0.9316 0.5635 0.2012
H44_2 H 0.8794 0.4703 0.1856
C28_2 C 0.9400(4) 0.3586(3) 0.16818(19)
C29_2 C 0.8505(4) 0.4008(3) 0.0659(2)
C30_2 C 0.8648(4) 0.5572(3) 0.0875(2)
O37_2 O 0.58587(27) 0.63783(19) 0.46147(14)
O40_2 O 0.5078(3) 0.6754(2) 0.36904(17)
O42_2 O 0.3763(2) 0.4747(3) 0.36508(14)
O45_2 O 0.4122(2) 0.5141(3) 0.45866(14)
Ho3_2 Ho 0.435436(12) 0.950389(17) 0.378222(9)
O14_2 O 0.42028(19) 0.92860(27) 0.27195(14)
C11_2 C 0.5092(3) 0.9991(4) 0.18989(19)
H23_2 H 0.5123 0.9511 0.1771
C12_2 C 0.4419(3) 0.9978(4) 0.15028(19)
H24_2 H 0.3935 0.9446 0.1572
H26_2 H 0.4605 0.9494 0.0719
C17_2 C 0.4873(3) 0.9869(4) 0.25668(19)
O35_2 O 0.36217(19) 0.94805(19) 0.46147(14)
O38_2 O 0.3246(2) 0.8325(2) 0.36904(17)
O43_2 O 0.5253(3) 0.9017(2) 0.36508(14)
O46_2 O 0.4859(3) 0.8982(2) 0.45866(14)
Ho2_5 Ho 0.3333 0.6667 0.452820(19)
O1_2 O 0.16422(18) 0.79882(19) 0.63093(13)
O2_2 O 0.17499(19) 0.91306(19) 0.60529(14)
O3_2 O 0.32198(19) 0.9044(2) 0.55572(14)
O5_2 O 0.2658(2) 0.7266(3) 0.42819(18)
O9_3 O 0.2009(2) 0.8047(2) 0.76201(14)
H1_3 H 0.230(3) 0.822(4) 0.793(2)
H2_3 H 0.162(2) 0.759(2) 0.766(2)
O10_3 O 0.31156(19) 0.9443(2) 0.67486(15)
H3_3 H 0.357(2) 0.959(4) 0.691(2)
H4_2 H 0.310(3) 0.938(4) 0.6372(13)
O11_3 O 0.2375(2) 0.6110(2) 0.53013(19)
H5_3 H 0.240(4) 0.587(4) 0.561(3)
H6_3 H 0.191(3) 0.601(5) 0.521(3)
O12_5 O 0.3333 0.6667 0.3456(3)
C1_2 C 0.1566(3) 0.8242(3) 0.52323(19)
H8_2 H 0.1055 0.8211 0.5105
C2_2 C 0.2226(3) 0.8915(3) 0.48362(19)
H9_2 H 0.2178 0.9399 0.4906
C3_2 C 0.2038(3) 0.8702(3) 0.41617(19)
H10_2 H 0.2485 0.9104 0.3913
H11_2 H 0.1556 0.8729 0.4053
C4_2 C 0.1899(3) 0.7873(3) 0.40010(19)
H12_2 H 0.1681 0.7755 0.3576
C5_2 C 0.1264(3) 0.7228(3) 0.44131(19)
H13_2 H 0.0762 0.7243 0.4340
C6_2 C 0.1465(3) 0.7424(3) 0.50916(19)
H14_2 H 0.1031 0.7014 0.5346
H15_2 H 0.1963 0.7424 0.5190
C7_2 C 0.1663(3) 0.8461(3) 0.59002(19)
C8_2 C 0.3080(3) 0.9147(3) 0.50152(19)
C9_2 C 0.2658(3) 0.7830(3) 0.3993(2)
C10_3 C 0.1094(3) 0.6409(3) 0.4209(2)
O13_3 O 0.20118(19) 0.36541(26) 0.63093(13)
O14_3 O 0.08694(19) 0.26194(27) 0.60529(14)
O15_3 O 0.0956(2) 0.41762(28) 0.55572(14)
O17_3 O 0.2734(3) 0.5393(4) 0.42819(18)
O21_3 O 0.1953(2) 0.3963(3) 0.76201(14)
H17_3 H 0.178(4) 0.409(5) 0.793(2)
H18_3 H 0.241(2) 0.404(3) 0.766(2)
O22_3 O 0.0557(2) 0.36730(28) 0.67486(15)
H19_3 H 0.041(4) 0.399(4) 0.691(2)
H20_3 H 0.062(4) 0.373(5) 0.6372(13)
O23_3 O 0.3890(2) 0.6266(3) 0.53013(19)
H21_3 H 0.413(4) 0.654(6) 0.561(3)
H22_3 H 0.399(5) 0.591(6) 0.521(3)
C11_3 C 0.1758(3) 0.3325(4) 0.52323(19)
H23_3 H 0.1789 0.2845 0.5105
C12_3 C 0.1085(3) 0.3312(4) 0.48362(19)
H24_3 H 0.0601 0.2780 0.4906
C13_3 C 0.1298(3) 0.3337(4) 0.41617(19)
H25_3 H 0.0896 0.3382 0.3913
H26_3 H 0.1271 0.2828 0.4053
C14_3 C 0.2127(3) 0.4027(4) 0.40010(19)
H27_3 H 0.2245 0.3927 0.3576
C15_3 C 0.2772(3) 0.4037(4) 0.44131(19)
H28_3 H 0.2757 0.3520 0.4340
C16_3 C 0.2576(3) 0.4042(4) 0.50916(19)
H29_3 H 0.2986 0.4018 0.5346
H30_3 H 0.2576 0.4540 0.5190
C17_3 C 0.1539(3) 0.3203(4) 0.59002(19)
C18_3 C 0.0853(3) 0.3934(4) 0.50152(19)
C19_3 C 0.2170(3) 0.4829(4) 0.3993(2)
C20_3 C 0.3591(3) 0.4686(4) 0.4209(2)
O24_3 O 0.63459(26) 0.83578(18) 0.63093(13)
O25_3 O 0.73806(27) 0.82501(19) 0.60529(14)
O26_3 O 0.58238(28) 0.67802(19) 0.55572(14)
O28_3 O 0.4607(4) 0.7342(2) 0.42819(18)
O32_3 O 0.6037(3) 0.7991(2) 0.76201(14)
H31_3 H 0.591(5) 0.770(3) 0.793(2)
H32_3 H 0.596(3) 0.838(2) 0.766(2)
O33_3 O 0.63270(28) 0.68844(19) 0.67486(15)
H33_2 H 0.601(4) 0.643(2) 0.691(2)
H34_3 H 0.627(5) 0.690(3) 0.6372(13)
O34_3 O 0.3734(3) 0.7625(2) 0.53013(19)
H35_3 H 0.346(6) 0.760(4) 0.561(3)
H36_3 H 0.409(6) 0.809(3) 0.521(3)
C21_3 C 0.6675(4) 0.8434(3) 0.52323(19)
H37_3 H 0.7155 0.8945 0.5105
C22_3 C 0.6688(4) 0.7774(3) 0.48362(19)
H38_3 H 0.7220 0.7822 0.4906
C23_3 C 0.6663(4) 0.7962(3) 0.41617(19)
H39_3 H 0.6618 0.7515 0.3913
H40_3 H 0.7172 0.8444 0.4053
C24_3 C 0.5973(4) 0.8101(3) 0.40010(19)
H41_3 H 0.6073 0.8319 0.3576
C25_3 C 0.5963(4) 0.8736(3) 0.44131(19)
H42_3 H 0.6480 0.9238 0.4340
C26_3 C 0.5958(4) 0.8535(3) 0.50916(19)
H43_3 H 0.5982 0.8969 0.5346
H44_3 H 0.5460 0.8037 0.5190
C27_3 C 0.6797(4) 0.8337(3) 0.59002(19)
C28_3 C 0.6066(4) 0.6920(3) 0.50152(19)
C29_3 C 0.5171(4) 0.7342(3) 0.3993(2)
C30_3 C 0.5314(4) 0.8906(3) 0.4209(2)
H33_3 H 0.268(4) 0.976(2) 0.024(2)
Ho2_6 Ho 1.0000 0.0000 0.786153(19)
O1_3 O 0.83089(18) 0.13215(19) 0.96426(13)
O2_3 O 0.84166(19) 0.24639(19) 0.93862(14)
O3_3 O 0.98865(19) 0.2377(2) 0.88905(14)
O5_3 O 0.9325(2) 0.0599(3) 0.76152(18)
O6 O 0.9913(2) 0.1658(2) 0.70237(17)
H4_3 H 0.977(3) 0.271(4) 0.9705(13)
O12_6 O 1.0000 0.0000 0.6789(3)
C1_3 C 0.8233(3) 0.1575(3) 0.85656(19)
H8_3 H 0.7722 0.1544 0.8438
C2_3 C 0.8893(3) 0.2248(3) 0.81695(19)
H9_3 H 0.8845 0.2732 0.8239
C3_3 C 0.8705(3) 0.2035(3) 0.74950(19)
H10_3 H 0.9152 0.2437 0.7246
H11_3 H 0.8223 0.2062 0.7386
C4_3 C 0.8566(3) 0.1206(3) 0.73343(19)
H12_3 H 0.8348 0.1088 0.6909
C5_3 C 0.7931(3) 0.0561(3) 0.77464(19)
H13_3 H 0.7429 0.0576 0.7673
C6_3 C 0.8132(3) 0.0757(3) 0.84249(19)
H14_3 H 0.7698 0.0347 0.8679
H15_3 H 0.8630 0.0757 0.8523
C7_3 C 0.8330(3) 0.1794(3) 0.92335(19)
C8_3 C 0.9747(3) 0.2480(3) 0.83485(19)
C9_3 C 0.9325(3) 0.1163(3) 0.7326(2)
Ho2_7 Ho 0.0000 0.0000 0.213847(19)
O7_2 O 0.2350(2) 0.0430(2) 0.30159(14)
O8_2 O 0.2315(2) 0.0789(2) 0.20801(14)
O11_4 O 0.0958(2) 0.0557(2) 0.13654(19)
H5_4 H 0.093(4) 0.080(4) 0.106(3)
H6_4 H 0.142(3) 0.066(5) 0.146(3)
O12_7 O 0.0000 0.0000 0.3211(3)
C10_4 C 0.2239(3) 0.0258(3) 0.2458(2)
O13_4 O 0.13215(19) 0.30126(26) 0.03574(13)
O14_4 O 0.24639(19) 0.40473(27) 0.06138(14)
O15_4 O 0.2377(2) 0.24905(28) 0.11095(14)
O16_2 O 0.28138(19) 0.25254(27) 0.20520(14)
O17_4 O 0.0599(3) 0.1274(4) 0.23848(18)
O18_2 O 0.1658(2) 0.1745(3) 0.29763(17)
H20_4 H 0.271(4) 0.294(5) 0.0295(13)
C11_4 C 0.1575(3) 0.3342(4) 0.14344(19)
H23_4 H 0.1544 0.3822 0.1562
C12_4 C 0.2248(3) 0.3355(4) 0.18305(19)
H24_4 H 0.2732 0.3887 0.1761
C13_4 C 0.2035(3) 0.3330(4) 0.25050(19)
H25_4 H 0.2437 0.3285 0.2754
H26_4 H 0.2062 0.3839 0.2614
C14_4 C 0.1206(3) 0.2640(4) 0.26657(19)
H27_4 H 0.1088 0.2740 0.3091
C15_4 C 0.0561(3) 0.2630(4) 0.22536(19)
H28_4 H 0.0576 0.3147 0.2327
C16_4 C 0.0757(3) 0.2625(4) 0.15751(19)
H29_4 H 0.0347 0.2649 0.1321
H30_4 H 0.0757 0.2127 0.1477
C17_4 C 0.1794(3) 0.3464(4) 0.07665(19)
C18_4 C 0.2480(3) 0.2733(4) 0.16515(19)
C19_4 C 0.1163(3) 0.1838(4) 0.2674(2)
Ho7_2 Ho 0.283723(17) 0.181620(12) 0.288444(9)
Ho3_3 Ho 0.231231(12) 0.382944(17) 0.955111(9)
O21_4 O 0.1380(2) 0.2704(3) 0.90466(14)
H17_4 H 0.155(4) 0.258(5) 0.874(2)
H18_4 H 0.092(2) 0.263(3) 0.901(2)
O22_4 O 0.2776(2) 0.29937(28) 0.99181(15)
H19_4 H 0.292(4) 0.268(4) 0.976(2)
O35_3 O 0.30449(19) 0.38529(19) 0.87187(14)
O38_3 O 0.3420(2) 0.5009(2) 0.96430(17)
O43_3 O 0.1413(3) 0.4317(2) 0.96826(14)
O46_3 O 0.1807(3) 0.4352(2) 0.87468(14)
Ho1_3 Ho 0.151713(12) 0.768769(12) 0.955111(9)
O9_4 O 0.1324(2) 0.8620(2) 0.90466(14)
H1_4 H 0.103(3) 0.845(4) 0.874(2)
H2_4 H 0.171(2) 0.908(2) 0.901(2)
O10_4 O 0.02177(19) 0.7224(2) 0.99181(15)
O37_3 O 0.08079(27) 0.69551(19) 0.87187(14)
O40_3 O 0.1588(3) 0.6580(2) 0.96430(17)
O42_3 O 0.2903(2) 0.8587(3) 0.96826(14)
O45_3 O 0.2544(2) 0.8193(3) 0.87468(14)
Ho2_8 Ho 1.0000 0.0000 0.213847(19)
O12_8 O 1.0000 0.0000 0.3211(3)
H16_2 H 0.9773 0.0331 0.3206
O19_2 O 0.9570(2) 0.1920(3) 0.30159(14)
O20_2 O 0.9211(2) 0.1526(3) 0.20801(14)
O23_4 O 0.9443(2) 0.0401(3) 0.13654(19)
H21_4 H 0.920(4) 0.013(6) 0.106(3)
H22_4 H 0.934(5) 0.076(6) 0.146(3)
C20_4 C 0.9742(3) 0.1981(4) 0.2458(2)
O27_2 O 0.74746(27) 0.02884(19) 0.20520(14)
Ho5_2 Ho 0.818380(12) 0.102102(12) 0.288444(9)
Ho2_9 Ho 1.0000 1.0000 0.213847(19)
O4_2 O 0.97116(19) 0.71862(19) 0.20520(14)
O12_9 O 1.0000 1.0000 0.3211(3)
H7_3 H 0.9669 0.9442 0.3206
O24_4 O 0.69874(26) 0.83089(18) 0.03574(13)
O25_4 O 0.59527(27) 0.84166(19) 0.06138(14)
O26_4 O 0.75095(28) 0.98865(19) 0.11095(14)
O28_4 O 0.8726(4) 0.9325(2) 0.23848(18)
O29_2 O 0.8255(3) 0.9913(2) 0.29763(17)
O30_2 O 0.8080(3) 0.7650(2) 0.30159(14)
O31_2 O 0.8474(3) 0.7685(2) 0.20801(14)
H34_4 H 0.706(5) 0.977(3) 0.0295(13)
O34_4 O 0.9599(3) 0.9042(2) 0.13654(19)
H35_4 H 0.987(6) 0.907(4) 0.106(3)
H36_4 H 0.924(6) 0.858(3) 0.146(3)
C21_4 C 0.6658(4) 0.8233(3) 0.14344(19)
H37_4 H 0.6178 0.7722 0.1562
C22_4 C 0.6645(4) 0.8893(3) 0.18305(19)
H38_4 H 0.6113 0.8845 0.1761
C23_4 C 0.6670(4) 0.8705(3) 0.25050(19)
H39_4 H 0.6715 0.9152 0.2754
H40_4 H 0.6161 0.8223 0.2614
C24_4 C 0.7360(4) 0.8566(3) 0.26657(19)
H41_4 H 0.7260 0.8348 0.3091
C25_4 C 0.7370(4) 0.7931(3) 0.22536(19)
H42_4 H 0.6853 0.7429 0.2327
C26_4 C 0.7375(4) 0.8132(3) 0.15751(19)
H43_4 H 0.7351 0.7698 0.1321
H44_4 H 0.7873 0.8630 0.1477
C27_4 C 0.6536(4) 0.8330(3) 0.07665(19)
C28_4 C 0.7267(4) 0.9747(3) 0.16515(19)
C29_4 C 0.8162(4) 0.9325(3) 0.2674(2)
C30_4 C 0.8019(4) 0.7761(3) 0.2458(2)
Ho6_2 Ho 0.897898(12) 0.716277(17) 0.288444(9)
H3_4 H 0.976(2) 0.708(4) 0.976(2)
Ho4_3 Ho 0.617056(17) 0.848287(12) 0.955111(9)
O32_4 O 0.7296(3) 0.8676(2) 0.90466(14)
H31_4 H 0.742(5) 0.897(3) 0.874(2)
H32_4 H 0.737(3) 0.829(2) 0.901(2)
O33_4 O 0.70063(28) 0.97823(19) 0.99181(15)
O36_3 O 0.61471(19) 0.91921(27) 0.87187(14)
O39_3 O 0.4991(2) 0.8412(3) 0.96430(17)
O41_3 O 0.5683(2) 0.7097(2) 0.96826(14)
O44_3 O 0.5648(2) 0.7456(2) 0.87468(14)
H7_4 H 0.0558 0.0227 0.3206
Ho3_4 Ho 0.564564(12) 0.049611(17) 0.621778(9)
O14_5 O 0.57972(19) 0.07140(27) 0.72805(14)
C11_5 C 0.4908(3) 0.0009(4) 0.81011(19)
H23_5 H 0.4877 0.0489 0.8229
C12_5 C 0.5581(3) 0.0022(4) 0.84972(19)
H24_5 H 0.6065 0.0554 0.8428
H26_5 H 0.5395 0.0506 0.9281
C17_5 C 0.5127(3) 0.0131(4) 0.74332(19)
O35_4 O 0.63783(19) 0.05195(19) 0.53853(14)
O38_4 O 0.6754(2) 0.1675(2) 0.63096(17)
O43_4 O 0.4747(3) 0.0983(2) 0.63492(14)
O46_4 O 0.5141(3) 0.1018(2) 0.54134(14)
Ho1_4 Ho 0.485046(12) 0.435436(12) 0.621778(9)
Ho2_10 Ho 0.3333 0.6667 0.880514(19)
O1_4 O 0.50244(18) 0.53452(19) 0.70241(13)
O2_4 O 0.49167(19) 0.42028(19) 0.72805(14)
O3_4 O 0.34468(19) 0.4290(2) 0.77762(14)
O5_4 O 0.4008(2) 0.6068(3) 0.90515(18)
O9_5 O 0.4657(2) 0.5287(2) 0.57133(14)
H1_5 H 0.436(3) 0.512(4) 0.541(2)
H2_5 H 0.504(2) 0.575(2) 0.568(2)
O10_5 O 0.35510(19) 0.3891(2) 0.65848(15)
H3_5 H 0.309(2) 0.375(4) 0.643(2)
H4_4 H 0.356(3) 0.396(4) 0.6962(13)
O11_5 O 0.4291(2) 0.7224(2) 0.80321(19)
H5_5 H 0.426(4) 0.747(4) 0.773(3)
H6_5 H 0.475(3) 0.733(5) 0.813(3)
O12_10 O 0.3333 0.6667 0.9878(3)
C1_4 C 0.5100(3) 0.5092(3) 0.81011(19)
H8_4 H 0.5611 0.5123 0.8229
C2_4 C 0.4440(3) 0.4419(3) 0.84972(19)
H9_4 H 0.4488 0.3935 0.8428
C3_4 C 0.4628(3) 0.4632(3) 0.91717(19)
H10_4 H 0.4181 0.4230 0.9421
H11_4 H 0.5110 0.4605 0.9281
C4_4 C 0.4767(3) 0.5461(3) 0.93324(19)
H12_4 H 0.4985 0.5579 0.9758
C5_4 C 0.5402(3) 0.6106(3) 0.89203(19)
H13_4 H 0.5904 0.6091 0.8994
C6_4 C 0.5201(3) 0.5910(3) 0.82418(19)
H14_4 H 0.5635 0.6320 0.7988
H15_4 H 0.4703 0.5910 0.8144
C7_4 C 0.5003(3) 0.4873(3) 0.74332(19)
C8_4 C 0.3586(3) 0.4187(3) 0.83182(19)
C9_4 C 0.4008(3) 0.5504(3) 0.9341(2)
C10_5 C 0.5572(3) 0.6925(3) 0.9125(2)
O13_5 O 0.46548(19) 0.96793(26) 0.70241(13)
O15_5 O 0.5710(2) 0.91572(28) 0.77762(14)
O17_5 O 0.3932(3) 0.7941(4) 0.90515(18)
O21_5 O 0.4713(2) 0.9371(3) 0.57133(14)
H17_5 H 0.488(4) 0.925(5) 0.541(2)
H18_5 H 0.425(2) 0.930(3) 0.568(2)
O22_5 O 0.6109(2) 0.96604(28) 0.65848(15)
H19_5 H 0.625(4) 0.935(4) 0.643(2)
H20_5 H 0.604(4) 0.961(5) 0.6962(13)
O23_5 O 0.2776(2) 0.7068(3) 0.80321(19)
H21_5 H 0.253(4) 0.680(6) 0.773(3)
H22_5 H 0.267(5) 0.743(6) 0.813(3)
C13_5 C 0.5368(3) 0.9997(4) 0.91717(19)
H25_5 H 0.5770 0.9952 0.9421
C14_5 C 0.4539(3) 0.9307(4) 0.93324(19)
H27_5 H 0.4421 0.9407 0.9758
C15_5 C 0.3894(3) 0.9297(4) 0.89203(19)
H28_5 H 0.3909 0.9814 0.8994
C16_5 C 0.4090(3) 0.9292(4) 0.82418(19)
H29_5 H 0.3680 0.9316 0.7988
H30_5 H 0.4090 0.8794 0.8144
C18_5 C 0.5813(3) 0.9400(4) 0.83182(19)
C19_5 C 0.4496(3) 0.8505(4) 0.9341(2)
C20_5 C 0.3075(3) 0.8648(4) 0.9125(2)
O24_5 O 0.03207(26) 0.49756(18) 0.70241(13)
O26_5 O 0.08428(28) 0.65532(19) 0.77762(14)
O28_5 O 0.2059(4) 0.5992(2) 0.90515(18)
O32_5 O 0.0629(3) 0.5343(2) 0.57133(14)
H31_5 H 0.075(5) 0.564(3) 0.541(2)
H32_5 H 0.070(3) 0.496(2) 0.568(2)
O33_5 O 0.03396(28) 0.64490(19) 0.65848(15)
H33_4 H 0.065(4) 0.691(2) 0.643(2)
H34_5 H 0.039(5) 0.644(3) 0.6962(13)
O34_5 O 0.2932(3) 0.5709(2) 0.80321(19)
H35_5 H 0.320(6) 0.574(4) 0.773(3)
H36_5 H 0.257(6) 0.525(3) 0.813(3)
C23_5 C 0.0003(4) 0.5372(3) 0.91717(19)
H39_5 H 0.0048 0.5819 0.9421
C24_5 C 0.0693(4) 0.5233(3) 0.93324(19)
H41_5 H 0.0593 0.5015 0.9758
C25_5 C 0.0703(4) 0.4598(3) 0.89203(19)
H42_5 H 0.0186 0.4096 0.8994
C26_5 C 0.0708(4) 0.4799(3) 0.82418(19)
H43_5 H 0.0684 0.4365 0.7988
H44_5 H 0.1206 0.5297 0.8144
C28_5 C 0.0600(4) 0.6414(3) 0.83182(19)
C29_5 C 0.1495(4) 0.5992(3) 0.9341(2)
C30_5 C 0.1352(4) 0.4428(3) 0.9125(2)
O37_4 O 0.41413(27) 0.36217(19) 0.53853(14)
O40_4 O 0.4922(3) 0.3246(2) 0.63096(17)
O42_4 O 0.6237(2) 0.5253(3) 0.63492(14)
O45_4 O 0.5878(2) 0.4859(3) 0.54134(14)
Ho4_4 Ho 0.950389(17) 0.514954(12) 0.621778(9)
O25_5 O 0.92860(27) 0.50833(19) 0.72805(14)
C21_5 C 0.9991(4) 0.4900(3) 0.81011(19)
H37_5 H 0.9511 0.4389 0.8229
C22_5 C 0.9978(4) 0.5560(3) 0.84972(19)
H38_5 H 0.9446 0.5512 0.8428
H40_5 H 0.9494 0.4890 0.9281
C27_5 C 0.9869(4) 0.4997(3) 0.74332(19)
O36_4 O 0.94805(19) 0.58587(27) 0.53853(14)
O39_4 O 0.8325(2) 0.5078(3) 0.63096(17)
O41_4 O 0.9017(2) 0.3763(2) 0.63492(14)
O44_4 O 0.8982(2) 0.4122(2) 0.54134(14)
Ho2_11 Ho 0.6667 0.3333 0.547180(19)
O1_5 O 0.83578(18) 0.20118(19) 0.36907(13)
O2_5 O 0.82501(19) 0.08694(19) 0.39471(14)
O3_5 O 0.67802(19) 0.0956(2) 0.44428(14)
O5_5 O 0.7342(2) 0.2734(3) 0.57181(18)
O9_6 O 0.7991(2) 0.1953(2) 0.23799(14)
H1_6 H 0.770(3) 0.178(4) 0.207(2)
H2_6 H 0.838(2) 0.241(2) 0.234(2)
O10_6 O 0.68844(19) 0.0557(2) 0.32514(15)
H3_6 H 0.643(2) 0.041(4) 0.309(2)
H4_5 H 0.690(3) 0.062(4) 0.3628(13)
O11_6 O 0.7625(2) 0.3890(2) 0.46987(19)
H5_6 H 0.760(4) 0.413(4) 0.439(3)
H6_6 H 0.809(3) 0.399(5) 0.479(3)
O12_11 O 0.6667 0.3333 0.6544(3)
C1_5 C 0.8434(3) 0.1758(3) 0.47677(19)
H8_5 H 0.8945 0.1789 0.4895
C2_5 C 0.7774(3) 0.1085(3) 0.51638(19)
H9_5 H 0.7822 0.0601 0.5094
C3_5 C 0.7962(3) 0.1298(3) 0.58383(19)
H10_5 H 0.7515 0.0896 0.6087
H11_5 H 0.8444 0.1271 0.5947
C4_5 C 0.8101(3) 0.2127(3) 0.59990(19)
H12_5 H 0.8319 0.2245 0.6424
C5_5 C 0.8736(3) 0.2772(3) 0.55869(19)
H13_5 H 0.9238 0.2757 0.5660
C6_5 C 0.8535(3) 0.2576(3) 0.49084(19)
H14_5 H 0.8969 0.2986 0.4654
H15_5 H 0.8037 0.2576 0.4810
C7_5 C 0.8337(3) 0.1539(3) 0.40998(19)
C8_5 C 0.6920(3) 0.0853(3) 0.49848(19)
C9_5 C 0.7342(3) 0.2170(3) 0.6007(2)
C10_6 C 0.8906(3) 0.3591(3) 0.5791(2)
O13_6 O 0.79882(19) 0.63459(26) 0.36907(13)
O14_6 O 0.91306(19) 0.73806(27) 0.39471(14)
O15_6 O 0.9044(2) 0.58238(28) 0.44428(14)
O17_6 O 0.7266(3) 0.4607(4) 0.57181(18)
O21_6 O 0.8047(2) 0.6037(3) 0.23799(14)
H17_6 H 0.822(4) 0.591(5) 0.207(2)
H18_6 H 0.759(2) 0.596(3) 0.234(2)
O22_6 O 0.9443(2) 0.63270(28) 0.32514(15)
H19_6 H 0.959(4) 0.601(4) 0.309(2)
H20_6 H 0.938(4) 0.627(5) 0.3628(13)
O23_6 O 0.6110(2) 0.3734(3) 0.46987(19)
H21_6 H 0.587(4) 0.346(6) 0.439(3)
H22_6 H 0.601(5) 0.409(6) 0.479(3)
C11_6 C 0.8242(3) 0.6675(4) 0.47677(19)
H23_6 H 0.8211 0.7155 0.4895
C12_6 C 0.8915(3) 0.6688(4) 0.51638(19)
H24_6 H 0.9399 0.7220 0.5094
C13_6 C 0.8702(3) 0.6663(4) 0.58383(19)
H25_6 H 0.9104 0.6618 0.6087
H26_6 H 0.8729 0.7172 0.5947
C14_6 C 0.7873(3) 0.5973(4) 0.59990(19)
H27_6 H 0.7755 0.6073 0.6424
C15_6 C 0.7228(3) 0.5963(4) 0.55869(19)
H28_6 H 0.7243 0.6480 0.5660
C16_6 C 0.7424(3) 0.5958(4) 0.49084(19)
H29_6 H 0.7014 0.5982 0.4654
H30_6 H 0.7424 0.5460 0.4810
C17_6 C 0.8461(3) 0.6797(4) 0.40998(19)
C18_6 C 0.9147(3) 0.6066(4) 0.49848(19)
C19_6 C 0.7830(3) 0.5171(4) 0.6007(2)
C20_6 C 0.6409(3) 0.5314(4) 0.5791(2)
O24_6 O 0.36541(26) 0.16422(18) 0.36907(13)
O25_6 O 0.26194(27) 0.17499(19) 0.39471(14)
O26_6 O 0.41762(28) 0.32198(19) 0.44428(14)
O28_6 O 0.5393(4) 0.2658(2) 0.57181(18)
O32_6 O 0.3963(3) 0.2009(2) 0.23799(14)
H31_6 H 0.409(5) 0.230(3) 0.207(2)
H32_6 H 0.404(3) 0.162(2) 0.234(2)
O33_6 O 0.36730(28) 0.31156(19) 0.32514(15)
H33_5 H 0.399(4) 0.357(2) 0.309(2)
H34_6 H 0.373(5) 0.310(3) 0.3628(13)
O34_6 O 0.6266(3) 0.2375(2) 0.46987(19)
H35_6 H 0.654(6) 0.240(4) 0.439(3)
H36_6 H 0.591(6) 0.191(3) 0.479(3)
C21_6 C 0.3325(4) 0.1566(3) 0.47677(19)
H37_6 H 0.2845 0.1055 0.4895
C22_6 C 0.3312(4) 0.2226(3) 0.51638(19)
H38_6 H 0.2780 0.2178 0.5094
C23_6 C 0.3337(4) 0.2038(3) 0.58383(19)
H39_6 H 0.3382 0.2485 0.6087
H40_6 H 0.2828 0.1556 0.5947
C24_6 C 0.4027(4) 0.1899(3) 0.59990(19)
H41_6 H 0.3927 0.1681 0.6424
C25_6 C 0.4037(4) 0.1264(3) 0.55869(19)
H42_6 H 0.3520 0.0762 0.5660
C26_6 C 0.4042(4) 0.1465(3) 0.49084(19)
H43_6 H 0.4018 0.1031 0.4654
H44_6 H 0.4540 0.1963 0.4810
C27_6 C 0.3203(4) 0.1663(3) 0.40998(19)
C28_6 C 0.3934(4) 0.3080(3) 0.49848(19)
C29_6 C 0.4829(4) 0.2658(3) 0.6007(2)
C30_6 C 0.4686(4) 0.1094(3) 0.5791(2)
Ho2_12 Ho 0.0000 1.0000 0.213847(19)
O1_6 O 0.16911(18) 0.86785(19) 0.03574(13)
O2_6 O 0.15834(19) 0.75361(19) 0.06138(14)
O3_6 O 0.01135(19) 0.7623(2) 0.11095(14)
O5_6 O 0.0675(2) 0.9401(3) 0.23848(18)
O6_2 O 0.0087(2) 0.8342(2) 0.29763(17)
H4_6 H 0.023(3) 0.729(4) 0.0295(13)
O12_12 O 0.0000 1.0000 0.3211(3)
C1_6 C 0.1767(3) 0.8425(3) 0.14344(19)
H8_6 H 0.2278 0.8456 0.1562
C2_6 C 0.1107(3) 0.7752(3) 0.18305(19)
H9_6 H 0.1155 0.7268 0.1761
C3_6 C 0.1295(3) 0.7965(3) 0.25050(19)
H10_6 H 0.0848 0.7563 0.2754
H11_6 H 0.1777 0.7938 0.2614
C4_6 C 0.1434(3) 0.8794(3) 0.26657(19)
H12_6 H 0.1652 0.8912 0.3091
C5_6 C 0.2069(3) 0.9439(3) 0.22536(19)
H13_6 H 0.2571 0.9424 0.2327
C6_6 C 0.1868(3) 0.9243(3) 0.15751(19)
H14_6 H 0.2302 0.9653 0.1321
H15_6 H 0.1370 0.9243 0.1477
C7_6 C 0.1670(3) 0.8206(3) 0.07665(19)
C8_6 C 0.0253(3) 0.7520(3) 0.16515(19)
C9_6 C 0.0675(3) 0.8837(3) 0.2674(2)
H33_6 H 0.732(4) 0.024(2) 0.976(2)
loop_
_geom_bond_atom_site_label_1
_geom_bond_atom_site_label_2
_geom_bond_site_symmetry_1
_geom_bond_site_symmetry_2
O32 Ho4 1_555 1_555
H31 O32 1_555 1_555
H32 O32 1_555 1_555
O33 Ho4 1_555 1_555
O36 Ho4 1_555 1_555
O39 Ho4 1_555 1_555
O41 Ho4 1_555 1_555
O44 Ho4 1_555 1_555
O12 Ho2 1_555 1_555
H7 O12 1_555 1_555
O24 C27 1_555 1_555
O26 C28 1_555 1_555
O28 Ho2 1_555 1_555
O29 C29 1_555 1_555
O30 C30 1_555 1_555
O31 C30 1_555 1_555
O34 Ho2 1_555 1_555
H35 O34 1_555 1_555
H36 O34 1_555 1_555
C21 H37 1_555 1_555
C22 C21 1_555 1_555
H38 C22 1_555 1_555
C23 C22 1_555 1_555
H39 C23 1_555 1_555
H40 C23 1_555 1_555
C24 C23 1_555 1_555
H41 C24 1_555 1_555
C25 C24 1_555 1_555
H42 C25 1_555 1_555
C26 C21 1_555 1_555
H43 C26 1_555 1_555
H44 C26 1_555 1_555
C27 O25 1_555 1_555
C28 C22 1_555 1_555
C29 O28 1_555 1_555
C30 C25 1_555 1_555
Ho6 O4 1_555 1_555
O30 Ho6 1_555 1_555
O31 Ho6 1_555 1_555
C21 C27 1_555 1_555
C24 C29 1_555 1_555
C25 C26 1_555 1_555
O12_2 Ho2_2 1_555 1_555
H16 O12_2 1_555 1_555
O19 C20 1_555 1_555
O20 C20 1_555 1_555
O23 Ho2_2 1_555 1_555
H21 O23 1_555 1_555
H22 O23 1_555 1_555
Ho5 O19 1_555 1_555
O20 Ho5 1_555 1_555
O27 Ho5 1_555 1_555
O9 Ho1 1_555 1_555
H1 O9 1_555 1_555
H2 O9 1_555 1_555
O10 Ho1 1_555 1_555
O37 Ho1 1_555 1_555
O40 Ho1 1_555 1_555
O42 Ho1 1_555 1_555
O45 Ho1 1_555 1_555
O21 Ho3 1_555 1_555
H17 O21 1_555 1_555
H18 O21 1_555 1_555
O22 Ho3 1_555 1_555
H19 O22 1_555 1_555
O35 Ho3 1_555 1_555
O38 Ho3 1_555 1_555
O43 Ho3 1_555 1_555
O46 Ho3 1_555 1_555
O7 C10 1_555 1_555
O8 C10 1_555 1_555
O11 Ho2_3 1_555 1_555
H5 O11 1_555 1_555
H6 O11 1_555 1_555
O12_3 Ho2_3 1_555 1_555
O13 C17 1_555 1_555
O15 C18 1_555 1_555
O16 C18 1_555 1_555
O17 Ho2_3 1_555 1_555
O18 C19 1_555 1_555
C11 H23 1_555 1_555
C12 C11 1_555 1_555
H24 C12 1_555 1_555
C13 C12 1_555 1_555
H25 C13 1_555 1_555
H26 C13 1_555 1_555
C14 C13 1_555 1_555
H27 C14 1_555 1_555
C15 C14 1_555 1_555
H28 C15 1_555 1_555
C16 C11 1_555 1_555
H29 C16 1_555 1_555
H30 C16 1_555 1_555
C17 O14 1_555 1_555
C18 C12 1_555 1_555
C19 O17 1_555 1_555
Ho7 O7 1_555 1_555
O8 Ho7 1_555 1_555
O16 Ho7 1_555 1_555
O18 Ho7 1_555 1_555
C11 C17 1_555 1_555
C14 C19 1_555 1_555
C15 C16 1_555 1_555
H7_2 O12_3 1_555 1_555
O25_2 Ho4_2 1_555 1_555
C21_2 H37_2 1_555 1_555
C22_2 C21_2 1_555 1_555
H38_2 C22_2 1_555 1_555
C27_2 O25_2 1_555 1_555
O36_2 Ho4_2 1_555 1_555
O39_2 Ho4_2 1_555 1_555
O41_2 Ho4_2 1_555 1_555
O44_2 Ho4_2 1_555 1_555
C21_2 C27_2 1_555 1_555
Ho1_2 O1 1_555 1_555
Ho2_4 O5 1_555 1_555
O1 C7 1_555 1_555
O2 Ho1_2 1_555 1_555
O3 C8 1_555 1_555
O35 C8 1_555 1_555
O5 C9 1_555 1_555
O38 C9 1_555 1_555
O41 C10_2 1_555 1_555
O44 C10_2 1_555 1_555
O9_2 Ho1_2 1_555 1_555
H1_2 O9_2 1_555 1_555
H2_2 O9_2 1_555 1_555
O10_2 Ho1_2 1_555 1_555
H3_2 O10_2 1_555 1_555
H4 O10_2 1_555 1_555
O11_2 Ho2_4 1_555 1_555
H5_2 O11_2 1_555 1_555
H6_2 O11_2 1_555 1_555
O12_4 Ho2_4 1_555 1_555
C1 H8 1_555 1_555
C2 C1 1_555 1_555
H9 C2 1_555 1_555
C3 C2 1_555 1_555
H10 C3 1_555 1_555
H11 C3 1_555 1_555
C4 C3 1_555 1_555
H12 C4 1_555 1_555
C5 C4 1_555 1_555
H13 C5 1_555 1_555
C6 C1 1_555 1_555
H14 C6 1_555 1_555
H15 C6 1_555 1_555
C7 O2 1_555 1_555
C8 C2 1_555 1_555
C9 C4 1_555 1_555
C10_2 C5 1_555 1_555
O15_2 C18_2 1_555 1_555
O36 C18_2 1_555 1_555
O17_2 Ho2_4 1_555 1_555
O39 C19_2 1_555 1_555
O42 C20_2 1_555 1_555
O45 C20_2 1_555 1_555
H17_2 O21_2 1_555 1_555
H18_2 O21_2 1_555 1_555
H19_2 O22_2 1_555 1_555
H20_2 O22_2 1_555 1_555
O23_2 Ho2_4 1_555 1_555
H21_2 O23_2 1_555 1_555
H22_2 O23_2 1_555 1_555
H25_2 C13_2 1_555 1_555
C14_2 C13_2 1_555 1_555
H27_2 C14_2 1_555 1_555
C15_2 C14_2 1_555 1_555
H28_2 C15_2 1_555 1_555
H29_2 C16_2 1_555 1_555
H30_2 C16_2 1_555 1_555
C19_2 O17_2 1_555 1_555
C20_2 C15_2 1_555 1_555
O26_2 C28_2 1_555 1_555
O37 C28_2 1_555 1_555
O28_2 Ho2_4 1_555 1_555
O40 C29_2 1_555 1_555
O43 C30_2 1_555 1_555
O46 C30_2 1_555 1_555
H31_2 O32_2 1_555 1_555
H32_2 O32_2 1_555 1_555
H33 O33_2 1_555 1_555
H34_2 O33_2 1_555 1_555
O34_2 Ho2_4 1_555 1_555
H35_2 O34_2 1_555 1_555
H36_2 O34_2 1_555 1_555
H39_2 C23_2 1_555 1_555
C24_2 C23_2 1_555 1_555
H41_2 C24_2 1_555 1_555
C25_2 C24_2 1_555 1_555
H42_2 C25_2 1_555 1_555
H43_2 C26_2 1_555 1_555
H44_2 C26_2 1_555 1_555
C29_2 O28_2 1_555 1_555
C30_2 C25_2 1_555 1_555
O37_2 Ho1_2 1_555 1_555
O40_2 Ho1_2 1_555 1_555
O42_2 Ho1_2 1_555 1_555
O45_2 Ho1_2 1_555 1_555
C1 C7 1_555 1_555
C5 C6 1_555 1_555
C14_2 C19_2 1_555 1_555
C15_2 C16_2 1_555 1_555
C24_2 C29_2 1_555 1_555
C25_2 C26_2 1_555 1_555
O14_2 Ho3_2 1_555 1_555
C11_2 H23_2 1_555 1_555
C12_2 C11_2 1_555 1_555
H24_2 C12_2 1_555 1_555
C17_2 O14_2 1_555 1_555
O35_2 Ho3_2 1_555 1_555
O38_2 Ho3_2 1_555 1_555
O43_2 Ho3_2 1_555 1_555
O46_2 Ho3_2 1_555 1_555
C11_2 C17_2 1_555 1_555
Ho5 O1_2 1_555 1_555
Ho2_5 O5_2 1_555 1_555
O1_2 C7_2 1_555 1_555
O2_2 Ho5 1_555 1_555
O3_2 C8_2 1_555 1_555
O35_2 C8_2 1_555 1_555
O5_2 C9_2 1_555 1_555
O38_2 C9_2 1_555 1_555
O41_2 C10_3 1_555 1_555
O44_2 C10_3 1_555 1_555
O9_3 Ho5 1_555 1_555
H1_3 O9_3 1_555 1_555
H2_3 O9_3 1_555 1_555
O10_3 Ho5 1_555 1_555
H3_3 O10_3 1_555 1_555
H4_2 O10_3 1_555 1_555
O11_3 Ho2_5 1_555 1_555
H5_3 O11_3 1_555 1_555
H6_3 O11_3 1_555 1_555
O12_5 Ho2_5 1_555 1_555
C1_2 H8_2 1_555 1_555
C2_2 C1_2 1_555 1_555
H9_2 C2_2 1_555 1_555
C3_2 C2_2 1_555 1_555
H10_2 C3_2 1_555 1_555
H11_2 C3_2 1_555 1_555
C4_2 C3_2 1_555 1_555
H12_2 C4_2 1_555 1_555
C5_2 C4_2 1_555 1_555
H13_2 C5_2 1_555 1_555
C6_2 C1_2 1_555 1_555
H14_2 C6_2 1_555 1_555
H15_2 C6_2 1_555 1_555
C7_2 O2_2 1_555 1_555
C8_2 C2_2 1_555 1_555
C9_2 C4_2 1_555 1_555
C10_3 C5_2 1_555 1_555
Ho6 O13_3 1_555 1_555
O13_3 C17_3 1_555 1_555
O14_3 Ho6 1_555 1_555
O15_3 C18_3 1_555 1_555
O36_2 C18_3 1_555 1_555
O17_3 Ho2_5 1_555 1_555
O39_2 C19_3 1_555 1_555
O42_2 C20_3 1_555 1_555
O45_2 C20_3 1_555 1_555
O21_3 Ho6 1_555 1_555
H17_3 O21_3 1_555 1_555
H18_3 O21_3 1_555 1_555
O22_3 Ho6 1_555 1_555
H19_3 O22_3 1_555 1_555
H20_3 O22_3 1_555 1_555
O23_3 Ho2_5 1_555 1_555
H21_3 O23_3 1_555 1_555
H22_3 O23_3 1_555 1_555
C11_3 H23_3 1_555 1_555
C12_3 C11_3 1_555 1_555
H24_3 C12_3 1_555 1_555
C13_3 C12_3 1_555 1_555
H25_3 C13_3 1_555 1_555
H26_3 C13_3 1_555 1_555
C14_3 C13_3 1_555 1_555
H27_3 C14_3 1_555 1_555
C15_3 C14_3 1_555 1_555
H28_3 C15_3 1_555 1_555
C16_3 C11_3 1_555 1_555
H29_3 C16_3 1_555 1_555
H30_3 C16_3 1_555 1_555
C17_3 O14_3 1_555 1_555
C18_3 C12_3 1_555 1_555
C19_3 O17_3 1_555 1_555
C20_3 C15_3 1_555 1_555
Ho7 O24_3 1_555 1_555
O24_3 C27_3 1_555 1_555
O25_3 Ho7 1_555 1_555
O26_3 C28_3 1_555 1_555
O37_2 C28_3 1_555 1_555
O28_3 Ho2_5 1_555 1_555
O40_2 C29_3 1_555 1_555
O43_2 C30_3 1_555 1_555
O46_2 C30_3 1_555 1_555
O32_3 Ho7 1_555 1_555
H31_3 O32_3 1_555 1_555
H32_3 O32_3 1_555 1_555
O33_3 Ho7 1_555 1_555
H33_2 O33_3 1_555 1_555
H34_3 O33_3 1_555 1_555
O34_3 Ho2_5 1_555 1_555
H35_3 O34_3 1_555 1_555
H36_3 O34_3 1_555 1_555
C21_3 H37_3 1_555 1_555
C22_3 C21_3 1_555 1_555
H38_3 C22_3 1_555 1_555
C23_3 C22_3 1_555 1_555
H39_3 C23_3 1_555 1_555
H40_3 C23_3 1_555 1_555
C24_3 C23_3 1_555 1_555
H41_3 C24_3 1_555 1_555
C25_3 C24_3 1_555 1_555
H42_3 C25_3 1_555 1_555
C26_3 C21_3 1_555 1_555
H43_3 C26_3 1_555 1_555
H44_3 C26_3 1_555 1_555
C27_3 O25_3 1_555 1_555
C28_3 C22_3 1_555 1_555
C29_3 O28_3 1_555 1_555
C30_3 C25_3 1_555 1_555
C1_2 C7_2 1_555 1_555
C5_2 C6_2 1_555 1_555
C11_3 C17_3 1_555 1_555
C14_3 C19_3 1_555 1_555
C15_3 C16_3 1_555 1_555
C21_3 C27_3 1_555 1_555
C24_3 C29_3 1_555 1_555
C25_3 C26_3 1_555 1_555
Ho2_6 O5_3 1_555 1_555
O1_3 C7_3 1_555 1_555
O3_3 C8_3 1_555 1_555
O5_3 C9_3 1_555 1_555
O6 C9_3 1_555 1_555
O12_6 Ho2_6 1_555 1_555
C1_3 H8_3 1_555 1_555
C2_3 C1_3 1_555 1_555
H9_3 C2_3 1_555 1_555
C3_3 C2_3 1_555 1_555
H10_3 C3_3 1_555 1_555
H11_3 C3_3 1_555 1_555
C4_3 C3_3 1_555 1_555
H12_3 C4_3 1_555 1_555
C5_3 C4_3 1_555 1_555
H13_3 C5_3 1_555 1_555
C6_3 C1_3 1_555 1_555
H14_3 C6_3 1_555 1_555
H15_3 C6_3 1_555 1_555
C7_3 O2_3 1_555 1_555
C8_3 C2_3 1_555 1_555
C9_3 C4_3 1_555 1_555
C1_3 C7_3 1_555 1_555
C5_3 C6_3 1_555 1_555
O7_2 C10_4 1_555 1_555
O8_2 C10_4 1_555 1_555
O11_4 Ho2_7 1_555 1_555
H5_4 O11_4 1_555 1_555
H6_4 O11_4 1_555 1_555
O12_7 Ho2_7 1_555 1_555
O13_4 C17_4 1_555 1_555
O15_4 C18_4 1_555 1_555
O16_2 C18_4 1_555 1_555
O17_4 Ho2_7 1_555 1_555
O18_2 C19_4 1_555 1_555
C11_4 H23_4 1_555 1_555
C12_4 C11_4 1_555 1_555
H24_4 C12_4 1_555 1_555
C13_4 C12_4 1_555 1_555
H25_4 C13_4 1_555 1_555
H26_4 C13_4 1_555 1_555
C14_4 C13_4 1_555 1_555
H27_4 C14_4 1_555 1_555
C15_4 C14_4 1_555 1_555
H28_4 C15_4 1_555 1_555
C16_4 C11_4 1_555 1_555
H29_4 C16_4 1_555 1_555
H30_4 C16_4 1_555 1_555
C17_4 O14_4 1_555 1_555
C18_4 C12_4 1_555 1_555
C19_4 O17_4 1_555 1_555
Ho7_2 O7_2 1_555 1_555
O8_2 Ho7_2 1_555 1_555
O16_2 Ho7_2 1_555 1_555
O18_2 Ho7_2 1_555 1_555
C11_4 C17_4 1_555 1_555
C14_4 C19_4 1_555 1_555
C15_4 C16_4 1_555 1_555
O21_4 Ho3_3 1_555 1_555
H17_4 O21_4 1_555 1_555
H18_4 O21_4 1_555 1_555
O22_4 Ho3_3 1_555 1_555
H19_4 O22_4 1_555 1_555
O35_3 Ho3_3 1_555 1_555
O38_3 Ho3_3 1_555 1_555
O43_3 Ho3_3 1_555 1_555
O46_3 Ho3_3 1_555 1_555
O9_4 Ho1_3 1_555 1_555
H1_4 O9_4 1_555 1_555
H2_4 O9_4 1_555 1_555
O10_4 Ho1_3 1_555 1_555
O37_3 Ho1_3 1_555 1_555
O40_3 Ho1_3 1_555 1_555
O42_3 Ho1_3 1_555 1_555
O45_3 Ho1_3 1_555 1_555
O12_8 Ho2_8 1_555 1_555
H16_2 O12_8 1_555 1_555
O19_2 C20_4 1_555 1_555
O20_2 C20_4 1_555 1_555
O23_4 Ho2_8 1_555 1_555
H21_4 O23_4 1_555 1_555
H22_4 O23_4 1_555 1_555
Ho5_2 O19_2 1_555 1_555
O20_2 Ho5_2 1_555 1_555
O27_2 Ho5_2 1_555 1_555
O12_9 Ho2_9 1_555 1_555
H7_3 O12_9 1_555 1_555
O24_4 C27_4 1_555 1_555
O26_4 C28_4 1_555 1_555
O28_4 Ho2_9 1_555 1_555
O29_2 C29_4 1_555 1_555
O30_2 C30_4 1_555 1_555
O31_2 C30_4 1_555 1_555
O34_4 Ho2_9 1_555 1_555
H35_4 O34_4 1_555 1_555
H36_4 O34_4 1_555 1_555
C21_4 H37_4 1_555 1_555
C22_4 C21_4 1_555 1_555
H38_4 C22_4 1_555 1_555
C23_4 C22_4 1_555 1_555
H39_4 C23_4 1_555 1_555
H40_4 C23_4 1_555 1_555
C24_4 C23_4 1_555 1_555
H41_4 C24_4 1_555 1_555
C25_4 C24_4 1_555 1_555
H42_4 C25_4 1_555 1_555
C26_4 C21_4 1_555 1_555
H43_4 C26_4 1_555 1_555
H44_4 C26_4 1_555 1_555
C27_4 O25_4 1_555 1_555
C28_4 C22_4 1_555 1_555
C29_4 O28_4 1_555 1_555
C30_4 C25_4 1_555 1_555
Ho6_2 O4_2 1_555 1_555
O30_2 Ho6_2 1_555 1_555
O31_2 Ho6_2 1_555 1_555
C21_4 C27_4 1_555 1_555
C24_4 C29_4 1_555 1_555
C25_4 C26_4 1_555 1_555
O32_4 Ho4_3 1_555 1_555
H31_4 O32_4 1_555 1_555
H32_4 O32_4 1_555 1_555
O33_4 Ho4_3 1_555 1_555
O36_3 Ho4_3 1_555 1_555
O39_3 Ho4_3 1_555 1_555
O41_3 Ho4_3 1_555 1_555
O44_3 Ho4_3 1_555 1_555
H7_4 O12_7 1_555 1_555
O14_5 Ho3_4 1_555 1_555
C11_5 H23_5 1_555 1_555
C12_5 C11_5 1_555 1_555
H24_5 C12_5 1_555 1_555
C17_5 O14_5 1_555 1_555
O35_4 Ho3_4 1_555 1_555
O38_4 Ho3_4 1_555 1_555
O43_4 Ho3_4 1_555 1_555
O46_4 Ho3_4 1_555 1_555
C11_5 C17_5 1_555 1_555
Ho1_4 O1_4 1_555 1_555
Ho2_10 O5_4 1_555 1_555
O1_4 C7_4 1_555 1_555
O2_4 Ho1_4 1_555 1_555
O3_4 C8_4 1_555 1_555
O35_3 C8_4 1_555 1_555
O5_4 C9_4 1_555 1_555
O38_3 C9_4 1_555 1_555
O41_3 C10_5 1_555 1_555
O44_3 C10_5 1_555 1_555
O9_5 Ho1_4 1_555 1_555
H1_5 O9_5 1_555 1_555
H2_5 O9_5 1_555 1_555
O10_5 Ho1_4 1_555 1_555
H3_5 O10_5 1_555 1_555
H4_4 O10_5 1_555 1_555
O11_5 Ho2_10 1_555 1_555
H5_5 O11_5 1_555 1_555
H6_5 O11_5 1_555 1_555
O12_10 Ho2_10 1_555 1_555
C1_4 H8_4 1_555 1_555
C2_4 C1_4 1_555 1_555
H9_4 C2_4 1_555 1_555
C3_4 C2_4 1_555 1_555
H10_4 C3_4 1_555 1_555
H11_4 C3_4 1_555 1_555
C4_4 C3_4 1_555 1_555
H12_4 C4_4 1_555 1_555
C5_4 C4_4 1_555 1_555
H13_4 C5_4 1_555 1_555
C6_4 C1_4 1_555 1_555
H14_4 C6_4 1_555 1_555
H15_4 C6_4 1_555 1_555
C7_4 O2_4 1_555 1_555
C8_4 C2_4 1_555 1_555
C9_4 C4_4 1_555 1_555
C10_5 C5_4 1_555 1_555
O15_5 C18_5 1_555 1_555
O36_3 C18_5 1_555 1_555
O17_5 Ho2_10 1_555 1_555
O39_3 C19_5 1_555 1_555
O42_3 C20_5 1_555 1_555
O45_3 C20_5 1_555 1_555
H17_5 O21_5 1_555 1_555
H18_5 O21_5 1_555 1_555
H19_5 O22_5 1_555 1_555
H20_5 O22_5 1_555 1_555
O23_5 Ho2_10 1_555 1_555
H21_5 O23_5 1_555 1_555
H22_5 O23_5 1_555 1_555
H25_5 C13_5 1_555 1_555
C14_5 C13_5 1_555 1_555
H27_5 C14_5 1_555 1_555
C15_5 C14_5 1_555 1_555
H28_5 C15_5 1_555 1_555
H29_5 C16_5 1_555 1_555
H30_5 C16_5 1_555 1_555
C19_5 O17_5 1_555 1_555
C20_5 C15_5 1_555 1_555
O26_5 C28_5 1_555 1_555
O37_3 C28_5 1_555 1_555
O28_5 Ho2_10 1_555 1_555
O40_3 C29_5 1_555 1_555
O43_3 C30_5 1_555 1_555
O46_3 C30_5 1_555 1_555
H31_5 O32_5 1_555 1_555
H32_5 O32_5 1_555 1_555
H33_4 O33_5 1_555 1_555
H34_5 O33_5 1_555 1_555
O34_5 Ho2_10 1_555 1_555
H35_5 O34_5 1_555 1_555
H36_5 O34_5 1_555 1_555
H39_5 C23_5 1_555 1_555
C24_5 C23_5 1_555 1_555
H41_5 C24_5 1_555 1_555
C25_5 C24_5 1_555 1_555
H42_5 C25_5 1_555 1_555
H43_5 C26_5 1_555 1_555
H44_5 C26_5 1_555 1_555
C29_5 O28_5 1_555 1_555
C30_5 C25_5 1_555 1_555
O37_4 Ho1_4 1_555 1_555
O40_4 Ho1_4 1_555 1_555
O42_4 Ho1_4 1_555 1_555
O45_4 Ho1_4 1_555 1_555
C1_4 C7_4 1_555 1_555
C5_4 C6_4 1_555 1_555
C14_5 C19_5 1_555 1_555
C15_5 C16_5 1_555 1_555
C24_5 C29_5 1_555 1_555
C25_5 C26_5 1_555 1_555
O25_5 Ho4_4 1_555 1_555
C21_5 H37_5 1_555 1_555
C22_5 C21_5 1_555 1_555
H38_5 C22_5 1_555 1_555
C27_5 O25_5 1_555 1_555
O36_4 Ho4_4 1_555 1_555
O39_4 Ho4_4 1_555 1_555
O41_4 Ho4_4 1_555 1_555
O44_4 Ho4_4 1_555 1_555
C21_5 C27_5 1_555 1_555
Ho5_2 O1_5 1_555 1_555
Ho2_11 O5_5 1_555 1_555
O1_5 C7_5 1_555 1_555
O2_5 Ho5_2 1_555 1_555
O3_5 C8_5 1_555 1_555
O35_4 C8_5 1_555 1_555
O5_5 C9_5 1_555 1_555
O38_4 C9_5 1_555 1_555
O41_4 C10_6 1_555 1_555
O44_4 C10_6 1_555 1_555
O9_6 Ho5_2 1_555 1_555
H1_6 O9_6 1_555 1_555
H2_6 O9_6 1_555 1_555
O10_6 Ho5_2 1_555 1_555
H3_6 O10_6 1_555 1_555
H4_5 O10_6 1_555 1_555
O11_6 Ho2_11 1_555 1_555
H5_6 O11_6 1_555 1_555
H6_6 O11_6 1_555 1_555
O12_11 Ho2_11 1_555 1_555
C1_5 H8_5 1_555 1_555
C2_5 C1_5 1_555 1_555
H9_5 C2_5 1_555 1_555
C3_5 C2_5 1_555 1_555
H10_5 C3_5 1_555 1_555
H11_5 C3_5 1_555 1_555
C4_5 C3_5 1_555 1_555
H12_5 C4_5 1_555 1_555
C5_5 C4_5 1_555 1_555
H13_5 C5_5 1_555 1_555
C6_5 C1_5 1_555 1_555
H14_5 C6_5 1_555 1_555
H15_5 C6_5 1_555 1_555
C7_5 O2_5 1_555 1_555
C8_5 C2_5 1_555 1_555
C9_5 C4_5 1_555 1_555
C10_6 C5_5 1_555 1_555
Ho6_2 O13_6 1_555 1_555
O13_6 C17_6 1_555 1_555
O14_6 Ho6_2 1_555 1_555
O15_6 C18_6 1_555 1_555
O36_4 C18_6 1_555 1_555
O17_6 Ho2_11 1_555 1_555
O39_4 C19_6 1_555 1_555
O42_4 C20_6 1_555 1_555
O45_4 C20_6 1_555 1_555
O21_6 Ho6_2 1_555 1_555
H17_6 O21_6 1_555 1_555
H18_6 O21_6 1_555 1_555
O22_6 Ho6_2 1_555 1_555
H19_6 O22_6 1_555 1_555
H20_6 O22_6 1_555 1_555
O23_6 Ho2_11 1_555 1_555
H21_6 O23_6 1_555 1_555
H22_6 O23_6 1_555 1_555
C11_6 H23_6 1_555 1_555
C12_6 C11_6 1_555 1_555
H24_6 C12_6 1_555 1_555
C13_6 C12_6 1_555 1_555
H25_6 C13_6 1_555 1_555
H26_6 C13_6 1_555 1_555
C14_6 C13_6 1_555 1_555
H27_6 C14_6 1_555 1_555
C15_6 C14_6 1_555 1_555
H28_6 C15_6 1_555 1_555
C16_6 C11_6 1_555 1_555
H29_6 C16_6 1_555 1_555
H30_6 C16_6 1_555 1_555
C17_6 O14_6 1_555 1_555
C18_6 C12_6 1_555 1_555
C19_6 O17_6 1_555 1_555
C20_6 C15_6 1_555 1_555
Ho7_2 O24_6 1_555 1_555
O24_6 C27_6 1_555 1_555
O25_6 Ho7_2 1_555 1_555
O26_6 C28_6 1_555 1_555
O37_4 C28_6 1_555 1_555
O28_6 Ho2_11 1_555 1_555
O40_4 C29_6 1_555 1_555
O43_4 C30_6 1_555 1_555
O46_4 C30_6 1_555 1_555
O32_6 Ho7_2 1_555 1_555
H31_6 O32_6 1_555 1_555
H32_6 O32_6 1_555 1_555
O33_6 Ho7_2 1_555 1_555
H33_5 O33_6 1_555 1_555
H34_6 O33_6 1_555 1_555
O34_6 Ho2_11 1_555 1_555
H35_6 O34_6 1_555 1_555
H36_6 O34_6 1_555 1_555
C21_6 H37_6 1_555 1_555
C22_6 C21_6 1_555 1_555
H38_6 C22_6 1_555 1_555
C23_6 C22_6 1_555 1_555
H39_6 C23_6 1_555 1_555
H40_6 C23_6 1_555 1_555
C24_6 C23_6 1_555 1_555
H41_6 C24_6 1_555 1_555
C25_6 C24_6 1_555 1_555
H42_6 C25_6 1_555 1_555
C26_6 C21_6 1_555 1_555
H43_6 C26_6 1_555 1_555
H44_6 C26_6 1_555 1_555
C27_6 O25_6 1_555 1_555
C28_6 C22_6 1_555 1_555
C29_6 O28_6 1_555 1_555
C30_6 C25_6 1_555 1_555
C1_5 C7_5 1_555 1_555
C5_5 C6_5 1_555 1_555
C11_6 C17_6 1_555 1_555
C14_6 C19_6 1_555 1_555
C15_6 C16_6 1_555 1_555
C21_6 C27_6 1_555 1_555
C24_6 C29_6 1_555 1_555
C25_6 C26_6 1_555 1_555
Ho2_12 O5_6 1_555 1_555
O1_6 C7_6 1_555 1_555
O3_6 C8_6 1_555 1_555
O5_6 C9_6 1_555 1_555
O6_2 C9_6 1_555 1_555
O12_12 Ho2_12 1_555 1_555
C1_6 H8_6 1_555 1_555
C2_6 C1_6 1_555 1_555
H9_6 C2_6 1_555 1_555
C3_6 C2_6 1_555 1_555
H10_6 C3_6 1_555 1_555
H11_6 C3_6 1_555 1_555
C4_6 C3_6 1_555 1_555
H12_6 C4_6 1_555 1_555
C5_6 C4_6 1_555 1_555
H13_6 C5_6 1_555 1_555
C6_6 C1_6 1_555 1_555
H14_6 C6_6 1_555 1_555
H15_6 C6_6 1_555 1_555
C7_6 O2_6 1_555 1_555
C8_6 C2_6 1_555 1_555
C9_6 C4_6 1_555 1_555
C1_6 C7_6 1_555 1_555
C5_6 C6_6 1_555 1_555

#END
