
###############################################################################
#
# This file contains modified crystal structure data generated from the
# MOF subset of the Cambridge Structural Database (CSD) v543 
# hosted by the Cambridge Crystallographic Data Centre (CCDC).
#
# This work is licensed under the Creative Commons
# Attribution-NonCommercial-ShareAlike 4.0 International License.
# To view a copy of this license, visit
# http://creativecommons.org/licenses/by-nc-sa/4.0/
# or send a letter to
# Creative Commons, PO Box 1866, Mountain View, CA 94042, USA.
#
# CIF created using the CSD Python API on 29 September 2022
# The structure has been converted into the P1 space group
# The structure has a 3D framework
# The original CSD entry UDIWOW is in the monoclinic crystal system
# The framework has been calculated to contain at least 10.0% void space
# The void calculation uses a probe of radius 1.32A, grid spacing 0.4
# The framework is charged, counterions have been retained in the structure
#
###############################################################################

data_UDIWOW
_chemical_formula_moiety         '(C196 H156 Ho8 N12 O104 P12 4-)n'
_symmetry_cell_setting           triclinic
_symmetry_space_group_name_H-M   'P 1'
_symmetry_Int_Tables_number      1
_space_group_name_Hall           'P 1'
loop_
_symmetry_equiv_pos_site_id
_symmetry_equiv_pos_as_xyz
1 x,y,z
_cell_length_a                   14.0524(4)
_cell_length_b                   24.5135(7)
_cell_length_c                   26.5196(8)
_cell_angle_alpha                90
_cell_angle_beta                 101.943(2)
_cell_angle_gamma                90
_cell_volume                     8937.56
loop_
_atom_site_label
_atom_site_type_symbol
_atom_site_fract_x
_atom_site_fract_y
_atom_site_fract_z
O23 O 0.04364(18) 0.36764(11) 0.10731(10)
C40 C 0.0583(4) 0.1199(3) 0.2667(3)
H30 H 0.0960 0.1433 0.2494
H31 H 0.0706 0.1288 0.3027
H32 H 0.0762 0.0826 0.2626
Ho9 Ho 0.07375(2) 0.43185(2) 0.03686(2)
Ho1 Ho 0.37385(2) 0.03019(2) 0.49263(2)
Ho2 Ho 0.07375(2) 0.06815(2) 0.53686(2)
P1 P 0.50335(6) 0.16624(4) 0.20124(3)
P2 P 0.62066(7) 0.24761(4) 0.25390(3)
P3 P 0.69112(6) 0.17749(4) 0.18803(4)
O1 O 0.47921(16) 0.11427(10) 0.23180(9)
O2 O 0.40518(16) 0.16926(10) 0.15933(10)
O3 O 0.6506(2) 0.24989(11) 0.31473(10)
O4 O 0.6136(2) 0.31196(11) 0.24793(9)
O5 O 0.77753(17) 0.13426(11) 0.19942(10)
O6 O 0.70740(18) 0.19882(11) 0.13401(10)
O7 O 0.1847(2) 0.12498(13) 0.38619(11)
O8 O 0.27841(17) 0.05490(11) 0.41687(9)
O9 O 0.5008(2) 0.02818(10) 0.29028(10)
O10 O 0.34141(16) 0.38736(9) 0.02700(9)
O11 O 0.18943(16) 0.36835(9) 0.03485(9)
O12 O 0.2377(2) 0.2124(2) 0.16282(17)
O13 O 0.47448(15) 0.08614(9) 0.45509(8)
O14 O 0.60979(17) 0.04102(10) 0.44859(10)
O15 O 0.4921(3) 0.26025(17) 0.35507(18)
O16 O 0.52926(16) 0.46462(9) 0.05063(8)
O17 O 0.68414(19) 0.44741(11) 0.05583(11)
O18 O 0.7806(3) 0.3591(2) 0.23528(18)
O21 O 0.9562(2) 0.1272(2) 0.24466(17)
O22 O 0.95007(18) 0.36460(10) 0.02935(9)
O24 O 0.6601(2) 0.24880(16) 0.04791(12)
O25 O 0.21702(15) 0.01461(9) 0.51058(8)
O27 O 0.06065(15) 0.08426(9) 0.44689(8)
H1 H 0.0143 0.1064 0.4361
H2 H 0.0482 0.0545 0.4304
N1 N 0.5896(2) 0.14748(12) 0.17518(11)
N2 N 0.5172(2) 0.21985(12) 0.23482(11)
N3 N 0.7073(2) 0.22357(13) 0.23027(12)
C1 C 0.3074(2) 0.09815(15) 0.34186(13)
C2 C 0.3760(2) 0.05885(14) 0.33545(13)
H3 H 0.3847 0.0281 0.3564
C3 C 0.4312(2) 0.06519(14) 0.29817(13)
C4 C 0.4178(2) 0.11141(14) 0.26693(13)
C5 C 0.3494(2) 0.15014(15) 0.27166(14)
H4 H 0.3397 0.1802 0.2498
C6 C 0.2943(2) 0.14397(15) 0.30970(14)
H5 H 0.2490 0.1704 0.3136
C7 C 0.2526(2) 0.09315(16) 0.38481(13)
C9 C 0.3131(2) 0.30581(13) 0.06946(13)
C10 C 0.2554(3) 0.28319(15) 0.10068(15)
H9 H 0.1951 0.2984 0.1015
C11 C 0.2877(3) 0.23795(17) 0.13065(16)
C12 C 0.3779(2) 0.21542(14) 0.12873(14)
C13 C 0.4334(3) 0.23625(16) 0.09629(15)
H10 H 0.4922 0.2200 0.0941
C14 C 0.4005(3) 0.28204(16) 0.06669(16)
H11 H 0.4379 0.2966 0.0449
C15 C 0.2789(2) 0.35734(13) 0.04099(12)
C16 C 0.1428(4) 0.2320(3) 0.1616(3)
H12 H 0.1138 0.2116 0.1854
H13 H 0.1458 0.2699 0.1711
H14 H 0.1042 0.2281 0.1274
C17 C 0.5791(2) 0.12594(13) 0.40668(12)
C18 C 0.5177(2) 0.16979(14) 0.39396(14)
H15 H 0.4604 0.1716 0.4062
C19 C 0.5408(3) 0.21139(15) 0.36287(15)
C20 C 0.6266(3) 0.20731(15) 0.34567(13)
C21 C 0.6876(4) 0.1647(2) 0.3575(2)
H16 H 0.7448 0.1632 0.3451
C22 C 0.6642(3) 0.12266(19) 0.38881(19)
H17 H 0.7056 0.0930 0.3973
C23 C 0.5518(2) 0.08071(13) 0.43928(12)
C24 C 0.4105(5) 0.2688(3) 0.3796(3)
H18 H 0.3835 0.3044 0.3709
H19 H 0.3617 0.2416 0.3679
H20 H 0.4320 0.2661 0.4163
C25 C 0.6073(3) 0.40046(13) 0.11432(12)
C26 C 0.6955(4) 0.3871(2) 0.1461(2)
H21 H 0.7532 0.3979 0.1371
C27 C 0.6987(4) 0.3579(3) 0.1912(3)
C28 C 0.6117(3) 0.33868(14) 0.20118(14)
C29 C 0.5282(4) 0.3499(3) 0.1695(2)
H22 H 0.4703 0.3370 0.1769
C30 C 0.5259(4) 0.3808(3) 0.1254(2)
H23 H 0.4666 0.3879 0.1033
C31 C 0.6072(2) 0.43846(12) 0.07055(12)
C32 C 0.8652(5) 0.3912(4) 0.2316(3)
H24 H 0.9128 0.3881 0.2631
H25 H 0.8923 0.3780 0.2035
H26 H 0.8467 0.4287 0.2256
C33 C 0.8523(2) 0.03145(14) 0.32657(13)
C34 C 0.9223(3) 0.0621(2) 0.30891(16)
H27 H 0.9872 0.0600 0.3257
C35 C 0.8953(3) 0.0959(2) 0.26610(16)
C36 C 0.7981(2) 0.10101(15) 0.24319(13)
C37 C 0.7290(3) 0.07116(17) 0.26085(18)
H28 H 0.6638 0.0741 0.2447
C38 C 0.7565(3) 0.03647(15) 0.30308(16)
H29 H 0.7095 0.0167 0.3153
C41 C 0.9028(2) 0.31038(15) 0.09403(14)
C42 C 0.8142(3) 0.29804(17) 0.06089(15)
H33 H 0.7986 0.3143 0.0285
C43 C 0.7493(3) 0.26175(18) 0.07588(15)
C44 C 0.7763(2) 0.23632(16) 0.12408(14)
C45 C 0.8616(3) 0.24860(17) 0.15744(15)
H34 H 0.8775 0.2320 0.1896
C46 C 0.9243(3) 0.28640(16) 0.14241(15)
H35 H 0.9816 0.2957 0.1652
C47 C 0.9702(2) 0.34971(14) 0.07648(14)
C48 C 0.6257(4) 0.2808(3) 0.00267(18)
H37 H 0.6219 0.3184 0.0122
Ho3 Ho 0.62615(2) 0.53019(2) 0.00737(2)
O28 O 0.34141(16) 0.11264(9) 0.52700(9)
O29 O 0.18943(16) 0.13165(9) 0.53485(9)
O32 O 0.52926(16) 0.03538(9) 0.55063(8)
O34 O 0.18237(16) 0.03472(9) 0.61373(9)
O35 O 0.02991(16) 0.00703(10) 0.60328(9)
O37 O 0.04364(18) 0.13236(11) 0.60731(10)
H36 H 0.5623 0.2682 0.9859
H38 H 0.6697 0.2771 0.9796
Ho5 Ho 0.37385(2) 0.46981(2) 0.99263(2)
O19 O 0.81763(16) 0.96528(9) 0.38627(9)
O20 O 0.97009(16) 0.99297(10) 0.39672(9)
O26 O 0.07851(15) 0.97263(8) 0.50639(8)
C8 C 0.5117(5) 0.9813(2) 0.3193(2)
H6 H 0.5619 0.9592 0.3102
H7 H 0.5291 0.9906 0.3552
H8 H 0.4516 0.9614 0.3128
C39 C 0.8816(2) 0.99425(14) 0.37205(12)
C49 C 0.1655(2) 0.97255(12) 0.50059(12)
H39 H 0.1915 0.9413 0.4889
Ho4 Ho 0.62615(2) 0.96981(2) 0.50737(2)
Ho7 Ho 0.92625(2) 0.93185(2) 0.46314(2)
O30 O 0.39021(17) 0.95898(10) 0.55141(10)
O31 O 0.47074(16) 0.96462(9) 0.44937(8)
O33 O 0.31586(19) 0.94741(11) 0.44417(11)
O36 O 0.95007(18) 0.13540(10) 0.52935(9)
O38 O 0.92149(15) 0.02737(8) 0.49361(8)
O38_2 O 0.07851(15) 0.52737(8) 0.00639(8)
O36_2 O 0.04993(18) 0.63540(10) 0.97065(9)
P1_2 P 0.49665(6) 0.66624(4) 0.29876(3)
P2_2 P 0.37934(7) 0.74761(4) 0.24610(3)
P3_2 P 0.30888(6) 0.67749(4) 0.31197(4)
O1_2 O 0.52079(16) 0.61427(10) 0.26820(9)
O2_2 O 0.59482(16) 0.66926(10) 0.34067(10)
O3_2 O 0.3494(2) 0.74989(11) 0.18527(10)
O4_2 O 0.3864(2) 0.81196(11) 0.25207(9)
O5_2 O 0.22247(17) 0.63426(11) 0.30058(10)
O6_2 O 0.29260(18) 0.69882(11) 0.36599(10)
O7_2 O 0.8153(2) 0.62498(13) 0.11381(11)
O8_2 O 0.72159(17) 0.55490(11) 0.08313(9)
O9_2 O 0.4992(2) 0.52818(10) 0.20972(10)
O10_2 O 0.65859(16) 0.88736(9) 0.47300(9)
O11_2 O 0.81057(16) 0.86835(9) 0.46515(9)
O12_2 O 0.7623(2) 0.7124(2) 0.33718(17)
O13_2 O 0.52552(15) 0.58614(9) 0.04491(8)
O14_2 O 0.39021(17) 0.54102(10) 0.05141(10)
O15_2 O 0.5079(3) 0.76025(17) 0.14493(18)
O18_2 O 0.2194(3) 0.8591(2) 0.26472(18)
O19_2 O 0.18237(16) 0.46528(9) 0.11373(9)
O20_2 O 0.02991(16) 0.49297(10) 0.10328(9)
O21_2 O 0.0438(2) 0.6272(2) 0.25534(17)
O22_2 O 0.04993(18) 0.86460(10) 0.47065(9)
O24_2 O 0.3399(2) 0.74880(16) 0.45209(12)
O27_2 O 0.93935(15) 0.58426(9) 0.05311(8)
H1_2 H 0.9857 0.6064 0.0639
H2_2 H 0.9518 0.5545 0.0696
N1_2 N 0.4104(2) 0.64748(12) 0.32482(11)
N2_2 N 0.4828(2) 0.71985(12) 0.26518(11)
N3_2 N 0.2927(2) 0.72357(13) 0.26973(12)
C1_2 C 0.6926(2) 0.59815(15) 0.15814(13)
C2_2 C 0.6240(2) 0.55885(14) 0.16455(13)
H3_2 H 0.6153 0.5281 0.1436
C3_2 C 0.5688(2) 0.56519(14) 0.20183(13)
C4_2 C 0.5822(2) 0.61141(14) 0.23307(13)
C5_2 C 0.6506(2) 0.65014(15) 0.22834(14)
H4_2 H 0.6603 0.6802 0.2502
C6_2 C 0.7057(2) 0.64397(15) 0.19030(14)
H5_2 H 0.7510 0.6704 0.1864
C7_2 C 0.7474(2) 0.59315(16) 0.11519(13)
C8_2 C 0.4883(5) 0.4813(2) 0.1807(2)
H6_2 H 0.4381 0.4592 0.1898
H7_2 H 0.4709 0.4906 0.1448
H8_2 H 0.5484 0.4614 0.1872
C9_2 C 0.6869(2) 0.80581(13) 0.43054(13)
C10_2 C 0.7446(3) 0.78319(15) 0.39932(15)
H9_2 H 0.8049 0.7984 0.3985
C11_2 C 0.7123(3) 0.73795(17) 0.36935(16)
C12_2 C 0.6221(2) 0.71542(14) 0.37127(14)
C13_2 C 0.5666(3) 0.73625(16) 0.40371(15)
H10_2 H 0.5078 0.7200 0.4059
C14_2 C 0.5995(3) 0.78204(16) 0.43331(16)
H11_2 H 0.5621 0.7966 0.4551
C15_2 C 0.7211(2) 0.85734(13) 0.45901(12)
C16_2 C 0.8572(4) 0.7320(3) 0.3384(3)
H12_2 H 0.8862 0.7116 0.3146
H13_2 H 0.8542 0.7699 0.3289
H14_2 H 0.8958 0.7281 0.3726
C17_2 C 0.4209(2) 0.62594(13) 0.09332(12)
C18_2 C 0.4823(2) 0.66979(14) 0.10604(14)
H15_2 H 0.5396 0.6716 0.0938
C19_2 C 0.4592(3) 0.71139(15) 0.13713(15)
C20_2 C 0.3734(3) 0.70731(15) 0.15433(13)
C21_2 C 0.3124(4) 0.6647(2) 0.1425(2)
H16_2 H 0.2552 0.6632 0.1549
C22_2 C 0.3358(3) 0.62266(19) 0.11119(19)
H17_2 H 0.2944 0.5930 0.1027
C23_2 C 0.4482(2) 0.58071(13) 0.06072(12)
C24_2 C 0.5895(5) 0.7688(3) 0.1204(3)
H18_2 H 0.6165 0.8044 0.1291
H19_2 H 0.6383 0.7416 0.1321
H20_2 H 0.5680 0.7661 0.0837
C25_2 C 0.3927(3) 0.90046(13) 0.38568(12)
C26_2 C 0.3045(4) 0.8871(2) 0.3539(2)
H21_2 H 0.2468 0.8979 0.3629
C27_2 C 0.3013(4) 0.8579(3) 0.3088(3)
C28_2 C 0.3883(3) 0.83868(14) 0.29882(14)
C29_2 C 0.4718(4) 0.8499(3) 0.3305(2)
H22_2 H 0.5297 0.8370 0.3231
C30_2 C 0.4741(4) 0.8808(3) 0.3746(2)
H23_2 H 0.5334 0.8879 0.3967
C31_2 C 0.3928(2) 0.93846(12) 0.42945(12)
C32_2 C 0.1348(5) 0.8912(4) 0.2684(3)
H24_2 H 0.0872 0.8881 0.2369
H25_2 H 0.1077 0.8780 0.2965
H26_2 H 0.1533 0.9287 0.2744
C33_2 C 0.1477(2) 0.53145(14) 0.17343(13)
C34_2 C 0.0777(3) 0.5621(2) 0.19109(16)
H27_2 H 0.0128 0.5600 0.1743
C35_2 C 0.1047(3) 0.5959(2) 0.23390(16)
C36_2 C 0.2019(2) 0.60101(15) 0.25681(13)
C37_2 C 0.2710(3) 0.57116(17) 0.23915(18)
H28_2 H 0.3362 0.5741 0.2553
C38_2 C 0.2435(3) 0.53647(15) 0.19692(16)
H29_2 H 0.2905 0.5167 0.1847
C39_2 C 0.1184(2) 0.49425(14) 0.12795(12)
C41_2 C 0.0972(2) 0.81038(15) 0.40597(14)
C42_2 C 0.1858(3) 0.79804(17) 0.43911(15)
H33_2 H 0.2014 0.8143 0.4715
C43_2 C 0.2507(3) 0.76175(18) 0.42412(15)
C44_2 C 0.2237(2) 0.73632(16) 0.37592(14)
C45_2 C 0.1384(3) 0.74860(17) 0.34256(15)
H34_2 H 0.1225 0.7320 0.3104
C46_2 C 0.0757(3) 0.78640(16) 0.35759(15)
H35_2 H 0.0184 0.7957 0.3348
C47_2 C 0.0298(2) 0.84971(14) 0.42352(14)
C48_2 C 0.3743(4) 0.7808(3) 0.49733(18)
H36_2 H 0.4377 0.7682 0.5141
H37_2 H 0.3781 0.8184 0.4878
H38_2 H 0.3303 0.7771 0.5204
H39_2 H 0.8085 0.4413 0.0111
Ho2_2 Ho 0.92625(2) 0.56815(2) 0.96314(2)
O25_2 O 0.78298(15) 0.51461(9) 0.98942(8)
O26_2 O 0.92149(15) 0.47263(8) 0.99361(8)
C49_2 C 0.8345(2) 0.47255(12) 0.99941(12)
O28_2 O 0.65859(16) 0.61264(9) 0.97300(9)
O29_2 O 0.81057(16) 0.63165(9) 0.96515(9)
O30_2 O 0.60979(17) 0.45898(10) 0.94859(10)
O32_2 O 0.47074(16) 0.53538(9) 0.94937(8)
O34_2 O 0.81763(16) 0.53472(9) 0.88627(9)
O35_2 O 0.97009(16) 0.50703(10) 0.89672(9)
O37_2 O 0.95636(18) 0.63236(11) 0.89269(10)
O23_2 O 0.95636(18) 0.86764(11) 0.39269(10)
C40_2 C 0.9417(4) 0.6199(3) 0.2333(3)
H30_2 H 0.9040 0.6433 0.2506
H31_2 H 0.9294 0.6288 0.1973
H32_2 H 0.9238 0.5826 0.2374
C8_3 C 0.4883(5) 0.0187(2) 0.6807(2)
H6_3 H 0.4381 0.0408 0.6898
H7_3 H 0.4709 0.0094 0.6448
H8_3 H 0.5484 0.0386 0.6872
C39_3 C 0.1184(2) 0.00575(14) 0.62795(12)
C49_3 C 0.8345(2) 0.02745(12) 0.49941(12)
H39_3 H 0.8085 0.0587 0.5111
O33_2 O 0.68414(19) 0.05259(11) 0.55583(11)
H36_3 H 0.4377 0.7318 0.0141
H38_3 H 0.3303 0.7229 0.0204
P1_3 P 0.49665(6) 0.83376(4) 0.79876(3)
P2_3 P 0.37934(7) 0.75239(4) 0.74610(3)
P3_3 P 0.30888(6) 0.82251(4) 0.81197(4)
O1_3 O 0.52079(16) 0.88573(10) 0.76820(9)
O2_3 O 0.59482(16) 0.83074(10) 0.84067(10)
O3_3 O 0.3494(2) 0.75011(11) 0.68527(10)
O4_3 O 0.3864(2) 0.68804(11) 0.75207(9)
O5_3 O 0.22247(17) 0.86574(11) 0.80058(10)
O6_3 O 0.29260(18) 0.80118(11) 0.86599(10)
O7_3 O 0.8153(2) 0.87502(13) 0.61381(11)
O8_3 O 0.72159(17) 0.94510(11) 0.58313(9)
O9_3 O 0.4992(2) 0.97182(10) 0.70972(10)
O12_3 O 0.7623(2) 0.7876(2) 0.83718(17)
O13_3 O 0.52552(15) 0.91386(9) 0.54491(8)
O15_3 O 0.5079(3) 0.73975(17) 0.64493(18)
O17_2 O 0.31586(19) 0.55259(11) 0.94417(11)
O18_3 O 0.2194(3) 0.6409(2) 0.76472(18)
O21_3 O 0.0438(2) 0.8728(2) 0.75534(17)
O24_3 O 0.3399(2) 0.75120(16) 0.95209(12)
O25_3 O 0.78298(15) 0.98539(9) 0.48942(8)
O27_3 O 0.93935(15) 0.91574(9) 0.55311(8)
H1_3 H 0.9857 0.8936 0.5639
H2_3 H 0.9518 0.9455 0.5696
N1_3 N 0.4104(2) 0.85252(12) 0.82482(11)
N2_3 N 0.4828(2) 0.78015(12) 0.76518(11)
N3_3 N 0.2927(2) 0.77643(13) 0.76973(12)
C1_3 C 0.6926(2) 0.90185(15) 0.65814(13)
C2_3 C 0.6240(2) 0.94115(14) 0.66455(13)
H3_3 H 0.6153 0.9719 0.6436
C3_3 C 0.5688(2) 0.93481(14) 0.70183(13)
C4_3 C 0.5822(2) 0.88859(14) 0.73307(13)
C5_3 C 0.6506(2) 0.84986(15) 0.72834(14)
H4_3 H 0.6603 0.8198 0.7502
C6_3 C 0.7057(2) 0.85603(15) 0.69030(14)
H5_3 H 0.7510 0.8296 0.6864
C7_3 C 0.7474(2) 0.90685(16) 0.61519(13)
C9_3 C 0.6869(2) 0.69419(13) 0.93054(13)
C10_3 C 0.7446(3) 0.71681(15) 0.89932(15)
H9_3 H 0.8049 0.7016 0.8985
C11_3 C 0.7123(3) 0.76205(17) 0.86935(16)
C12_3 C 0.6221(2) 0.78458(14) 0.87127(14)
C13_3 C 0.5666(3) 0.76375(16) 0.90371(15)
H10_3 H 0.5078 0.7800 0.9059
C14_3 C 0.5995(3) 0.71796(16) 0.93331(16)
H11_3 H 0.5621 0.7034 0.9551
C15_3 C 0.7211(2) 0.64266(13) 0.95901(12)
C16_3 C 0.8572(4) 0.7680(3) 0.8384(3)
H12_3 H 0.8862 0.7884 0.8146
H13_3 H 0.8542 0.7301 0.8289
H14_3 H 0.8958 0.7719 0.8726
C17_3 C 0.4209(2) 0.87406(13) 0.59332(12)
C18_3 C 0.4823(2) 0.83021(14) 0.60604(14)
H15_3 H 0.5396 0.8284 0.5938
C19_3 C 0.4592(3) 0.78861(15) 0.63713(15)
C20_3 C 0.3734(3) 0.79269(15) 0.65433(13)
C21_3 C 0.3124(4) 0.8353(2) 0.6425(2)
H16_3 H 0.2552 0.8368 0.6549
C22_3 C 0.3358(3) 0.87734(19) 0.61119(19)
H17_3 H 0.2944 0.9070 0.6027
C23_3 C 0.4482(2) 0.91929(13) 0.56072(12)
C24_3 C 0.5895(5) 0.7312(3) 0.6204(3)
H18_3 H 0.6165 0.6956 0.6291
H19_3 H 0.6383 0.7584 0.6321
H20_3 H 0.5680 0.7339 0.5837
C25_3 C 0.3927(3) 0.59954(13) 0.88568(12)
C26_3 C 0.3045(4) 0.6129(2) 0.8539(2)
H21_3 H 0.2468 0.6021 0.8629
C27_3 C 0.3013(4) 0.6421(3) 0.8088(3)
C28_3 C 0.3883(3) 0.66132(14) 0.79882(14)
C29_3 C 0.4718(4) 0.6501(3) 0.8305(2)
H22_3 H 0.5297 0.6630 0.8231
C30_3 C 0.4741(4) 0.6192(3) 0.8746(2)
H23_3 H 0.5334 0.6121 0.8967
C31_3 C 0.3928(2) 0.56154(12) 0.92945(12)
C32_3 C 0.1348(5) 0.6088(4) 0.7684(3)
H24_3 H 0.0872 0.6119 0.7369
H25_3 H 0.1077 0.6220 0.7965
H26_3 H 0.1533 0.5713 0.7744
C33_3 C 0.1477(2) 0.96855(14) 0.67343(13)
C34_3 C 0.0777(3) 0.9379(2) 0.69109(16)
H27_3 H 0.0128 0.9400 0.6743
C35_3 C 0.1047(3) 0.9041(2) 0.73390(16)
C36_3 C 0.2019(2) 0.89899(15) 0.75681(13)
C37_3 C 0.2710(3) 0.92884(17) 0.73915(18)
H28_3 H 0.3362 0.9259 0.7553
C38_3 C 0.2435(3) 0.96353(15) 0.69692(16)
H29_3 H 0.2905 0.9833 0.6847
C41_3 C 0.0972(2) 0.68962(15) 0.90597(14)
C42_3 C 0.1858(3) 0.70196(17) 0.93911(15)
H33_3 H 0.2014 0.6857 0.9715
C43_3 C 0.2507(3) 0.73825(18) 0.92412(15)
C44_3 C 0.2237(2) 0.76368(16) 0.87592(14)
C45_3 C 0.1384(3) 0.75140(17) 0.84256(15)
H34_3 H 0.1225 0.7680 0.8104
C46_3 C 0.0757(3) 0.71360(16) 0.85759(15)
H35_3 H 0.0184 0.7043 0.8348
C47_3 C 0.0298(2) 0.65029(14) 0.92352(14)
C48_3 C 0.3743(4) 0.7192(3) 0.99733(18)
H37_3 H 0.3781 0.6816 0.9878
C40_3 C 0.9417(4) 0.8801(3) 0.7333(3)
H30_3 H 0.9040 0.8567 0.7506
H31_3 H 0.9294 0.8712 0.6973
H32_3 H 0.9238 0.9174 0.7374
C40_4 C 0.0583(4) 0.3801(3) 0.7667(3)
H30_4 H 0.0960 0.3567 0.7494
H31_4 H 0.0706 0.3712 0.8027
H32_4 H 0.0762 0.4174 0.7626
O25_4 O 0.21702(15) 0.48539(9) 0.01058(8)
C49_4 C 0.1655(2) 0.52745(12) 0.00059(12)
P1_4 P 0.50335(6) 0.33376(4) 0.70124(3)
P2_4 P 0.62066(7) 0.25239(4) 0.75390(3)
P3_4 P 0.69112(6) 0.32251(4) 0.68803(4)
O1_4 O 0.47921(16) 0.38573(10) 0.73180(9)
O2_4 O 0.40518(16) 0.33074(10) 0.65933(10)
O3_4 O 0.6506(2) 0.25011(11) 0.81473(10)
O4_4 O 0.6136(2) 0.18804(11) 0.74793(9)
O5_4 O 0.77753(17) 0.36574(11) 0.69942(10)
O6_4 O 0.70740(18) 0.30118(11) 0.63401(10)
O7_4 O 0.1847(2) 0.37502(13) 0.88619(11)
O8_4 O 0.27841(17) 0.44510(11) 0.91687(9)
O9_4 O 0.5008(2) 0.47182(10) 0.79028(10)
O12_4 O 0.2377(2) 0.2876(2) 0.66282(17)
O13_4 O 0.47448(15) 0.41386(9) 0.95509(8)
O15_4 O 0.4921(3) 0.23975(17) 0.85507(18)
O18_4 O 0.7806(3) 0.1409(2) 0.73528(18)
O21_4 O 0.9562(2) 0.3728(2) 0.74466(17)
O24_4 O 0.6601(2) 0.25120(16) 0.54791(12)
O27_4 O 0.06065(15) 0.41574(9) 0.94689(8)
H1_4 H 0.0143 0.3936 0.9361
H2_4 H 0.0482 0.4455 0.9304
N1_4 N 0.5896(2) 0.35252(12) 0.67518(11)
N2_4 N 0.5172(2) 0.28015(12) 0.73482(11)
N3_4 N 0.7073(2) 0.27643(13) 0.73027(12)
C1_4 C 0.3074(2) 0.40185(15) 0.84186(13)
C2_4 C 0.3760(2) 0.44115(14) 0.83545(13)
H3_4 H 0.3847 0.4719 0.8564
C3_4 C 0.4312(2) 0.43481(14) 0.79817(13)
C4_4 C 0.4178(2) 0.38859(14) 0.76693(13)
C5_4 C 0.3494(2) 0.34986(15) 0.77166(14)
H4_4 H 0.3397 0.3198 0.7498
C6_4 C 0.2943(2) 0.35603(15) 0.80970(14)
H5_4 H 0.2490 0.3296 0.8136
C7_4 C 0.2526(2) 0.40685(16) 0.88481(13)
C8_4 C 0.5117(5) 0.5187(2) 0.8193(2)
H6_4 H 0.5619 0.5408 0.8102
H7_4 H 0.5291 0.5094 0.8552
H8_4 H 0.4516 0.5386 0.8128
C9_4 C 0.3131(2) 0.19419(13) 0.56946(13)
C10_4 C 0.2554(3) 0.21681(15) 0.60068(15)
H9_4 H 0.1951 0.2016 0.6015
C11_4 C 0.2877(3) 0.26205(17) 0.63065(16)
C12_4 C 0.3779(2) 0.28458(14) 0.62873(14)
C13_4 C 0.4334(3) 0.26375(16) 0.59629(15)
H10_4 H 0.4922 0.2800 0.5941
C14_4 C 0.4005(3) 0.21796(16) 0.56669(16)
H11_4 H 0.4379 0.2034 0.5449
C15_4 C 0.2789(2) 0.14266(13) 0.54099(12)
C16_4 C 0.1428(4) 0.2680(3) 0.6616(3)
H12_4 H 0.1138 0.2884 0.6854
H13_4 H 0.1458 0.2301 0.6711
H14_4 H 0.1042 0.2719 0.6274
C17_4 C 0.5791(2) 0.37406(13) 0.90668(12)
C18_4 C 0.5177(2) 0.33021(14) 0.89396(14)
H15_4 H 0.4604 0.3284 0.9062
C19_4 C 0.5408(3) 0.28861(15) 0.86287(15)
C20_4 C 0.6266(3) 0.29269(15) 0.84567(13)
C21_4 C 0.6876(4) 0.3353(2) 0.8575(2)
H16_4 H 0.7448 0.3368 0.8451
C22_4 C 0.6642(3) 0.37734(19) 0.88881(19)
H17_4 H 0.7056 0.4070 0.8973
C23_4 C 0.5518(2) 0.41929(13) 0.93928(12)
C24_4 C 0.4105(5) 0.2312(3) 0.8796(3)
H18_4 H 0.3835 0.1956 0.8709
H19_4 H 0.3617 0.2584 0.8679
H20_4 H 0.4320 0.2339 0.9163
C25_4 C 0.6073(3) 0.09954(13) 0.61432(12)
C26_4 C 0.6955(4) 0.1129(2) 0.6461(2)
H21_4 H 0.7532 0.1021 0.6371
C27_4 C 0.6987(4) 0.1421(3) 0.6912(3)
C28_4 C 0.6117(3) 0.16132(14) 0.70118(14)
C29_4 C 0.5282(4) 0.1501(3) 0.6695(2)
H22_4 H 0.4703 0.1630 0.6769
C30_4 C 0.5259(4) 0.1192(3) 0.6254(2)
H23_4 H 0.4666 0.1121 0.6033
C31_4 C 0.6072(2) 0.06154(12) 0.57055(12)
C32_4 C 0.8652(5) 0.1088(4) 0.7316(3)
H24_4 H 0.9128 0.1119 0.7631
H25_4 H 0.8923 0.1220 0.7035
H26_4 H 0.8467 0.0713 0.7256
C33_4 C 0.8523(2) 0.46855(14) 0.82657(13)
C34_4 C 0.9223(3) 0.4379(2) 0.80891(16)
H27_4 H 0.9872 0.4400 0.8257
C35_4 C 0.8953(3) 0.4041(2) 0.76610(16)
C36_4 C 0.7981(2) 0.39899(15) 0.74319(13)
C37_4 C 0.7290(3) 0.42884(17) 0.76085(18)
H28_4 H 0.6638 0.4259 0.7447
C38_4 C 0.7565(3) 0.46353(15) 0.80308(16)
H29_4 H 0.7095 0.4833 0.8153
C39_4 C 0.8816(2) 0.50575(14) 0.87205(12)
C41_4 C 0.9028(2) 0.18962(15) 0.59403(14)
C42_4 C 0.8142(3) 0.20196(17) 0.56089(15)
H33_4 H 0.7986 0.1857 0.5285
C43_4 C 0.7493(3) 0.23825(18) 0.57588(15)
C44_4 C 0.7763(2) 0.26368(16) 0.62408(14)
C45_4 C 0.8616(3) 0.25140(17) 0.65744(15)
H34_4 H 0.8775 0.2680 0.6896
C46_4 C 0.9243(3) 0.21360(16) 0.64241(15)
H35_4 H 0.9816 0.2043 0.6652
C47_4 C 0.9702(2) 0.15029(14) 0.57648(14)
C48_4 C 0.6257(4) 0.2192(3) 0.50267(18)
H36_4 H 0.5623 0.2318 0.4859
H37_4 H 0.6219 0.1816 0.5122
H38_4 H 0.6697 0.2229 0.4796
H39_4 H 0.1915 0.5587 0.9889
loop_
_geom_bond_atom_site_label_1
_geom_bond_atom_site_label_2
_geom_bond_site_symmetry_1
_geom_bond_site_symmetry_2
H30 C40 1_555 1_555
H31 C40 1_555 1_555
H32 C40 1_555 1_555
O23 Ho9 1_555 1_555
Ho1 O8 1_555 1_555
Ho2 O25 1_555 1_555
P1 O1 1_555 1_555
P2 O3 1_555 1_555
P3 O5 1_555 1_555
O1 C4 1_555 1_555
O2 P1 1_555 1_555
O3 C20 1_555 1_555
O4 P2 1_555 1_555
O5 C36 1_555 1_555
O6 P3 1_555 1_555
O7 C7 1_555 1_555
O8 C7 1_555 1_555
O9 C3 1_555 1_555
O10 C15 1_555 1_555
O11 C15 1_555 1_555
O12 C11 1_555 1_555
O13 Ho1 1_555 1_555
O14 C23 1_555 1_555
O15 C19 1_555 1_555
O16 C31 1_555 1_555
O17 C31 1_555 1_555
O18 C27 1_555 1_555
O21 C35 1_555 1_555
O22 C47 1_555 1_555
O24 C43 1_555 1_555
O25 Ho1 1_555 1_555
O27 Ho2 1_555 1_555
H1 O27 1_555 1_555
H2 O27 1_555 1_555
N1 P1 1_555 1_555
N2 P1 1_555 1_555
N3 P2 1_555 1_555
C1 C2 1_555 1_555
C2 H3 1_555 1_555
C3 C2 1_555 1_555
C4 C3 1_555 1_555
C5 C4 1_555 1_555
H4 C5 1_555 1_555
C6 C1 1_555 1_555
H5 C6 1_555 1_555
C7 C1 1_555 1_555
C9 C10 1_555 1_555
C10 H9 1_555 1_555
C11 C10 1_555 1_555
C12 O2 1_555 1_555
C13 C12 1_555 1_555
H10 C13 1_555 1_555
C14 C9 1_555 1_555
H11 C14 1_555 1_555
C15 C9 1_555 1_555
C16 O12 1_555 1_555
H12 C16 1_555 1_555
H13 C16 1_555 1_555
H14 C16 1_555 1_555
C17 C18 1_555 1_555
C18 H15 1_555 1_555
C19 C18 1_555 1_555
C20 C19 1_555 1_555
C21 C20 1_555 1_555
H16 C21 1_555 1_555
C22 C17 1_555 1_555
H17 C22 1_555 1_555
C23 O13 1_555 1_555
C24 O15 1_555 1_555
H18 C24 1_555 1_555
H19 C24 1_555 1_555
H20 C24 1_555 1_555
C25 C26 1_555 1_555
C26 H21 1_555 1_555
C27 C26 1_555 1_555
C28 O4 1_555 1_555
C29 C28 1_555 1_555
H22 C29 1_555 1_555
C30 C25 1_555 1_555
H23 C30 1_555 1_555
C31 C25 1_555 1_555
C32 O18 1_555 1_555
H24 C32 1_555 1_555
H25 C32 1_555 1_555
H26 C32 1_555 1_555
C33 C34 1_555 1_555
C34 H27 1_555 1_555
C35 C34 1_555 1_555
C36 C35 1_555 1_555
C37 C36 1_555 1_555
H28 C37 1_555 1_555
C38 C33 1_555 1_555
H29 C38 1_555 1_555
C41 C42 1_555 1_555
C42 H33 1_555 1_555
C43 C42 1_555 1_555
C44 O6 1_555 1_555
C45 C44 1_555 1_555
H34 C45 1_555 1_555
C46 C41 1_555 1_555
H35 C46 1_555 1_555
C47 C41 1_555 1_555
C48 O24 1_555 1_555
H37 C48 1_555 1_555
Ho3 O16 1_555 1_555
Ho9 O11 1_555 1_555
O28 Ho1 1_555 1_555
O29 Ho2 1_555 1_555
O32 Ho1 1_555 1_555
O34 Ho2 1_555 1_555
O35 Ho2 1_555 1_555
O37 Ho2 1_555 1_555
P2 N2 1_555 1_555
P3 N1 1_555 1_555
P3 N3 1_555 1_555
O17 Ho3 1_555 1_555
C5 C6 1_555 1_555
C11 C12 1_555 1_555
C13 C14 1_555 1_555
C17 C23 1_555 1_555
C21 C22 1_555 1_555
C27 C28 1_555 1_555
C29 C30 1_555 1_555
C37 C38 1_555 1_555
C43 C44 1_555 1_555
C45 C46 1_555 1_555
O19 C39 1_555 1_555
O20 C39 1_555 1_555
H6 C8 1_555 1_555
H7 C8 1_555 1_555
H8 C8 1_555 1_555
H39 C49 1_555 1_555
Ho7 O19 1_555 1_555
O20 Ho7 1_555 1_555
O26 C49 1_555 1_555
Ho4 O31 1_555 1_555
Ho9 O38_2 1_555 1_555
Ho3 O8_2 1_555 1_555
P1_2 O1_2 1_555 1_555
P2_2 O3_2 1_555 1_555
P3_2 O5_2 1_555 1_555
O1_2 C4_2 1_555 1_555
O2_2 P1_2 1_555 1_555
O3_2 C20_2 1_555 1_555
O4_2 P2_2 1_555 1_555
O5_2 C36_2 1_555 1_555
O6_2 P3_2 1_555 1_555
O7_2 C7_2 1_555 1_555
O8_2 C7_2 1_555 1_555
O9_2 C3_2 1_555 1_555
O10_2 C15_2 1_555 1_555
O11_2 C15_2 1_555 1_555
O12_2 C11_2 1_555 1_555
O13_2 Ho3 1_555 1_555
O14_2 C23_2 1_555 1_555
O15_2 C19_2 1_555 1_555
O31 C31_2 1_555 1_555
O33 C31_2 1_555 1_555
O18_2 C27_2 1_555 1_555
O19_2 C39_2 1_555 1_555
O20_2 C39_2 1_555 1_555
O21_2 C35_2 1_555 1_555
O22_2 C47_2 1_555 1_555
O24_2 C43_2 1_555 1_555
H1_2 O27_2 1_555 1_555
H2_2 O27_2 1_555 1_555
N1_2 P1_2 1_555 1_555
N2_2 P1_2 1_555 1_555
N3_2 P2_2 1_555 1_555
C1_2 C2_2 1_555 1_555
C2_2 H3_2 1_555 1_555
C3_2 C2_2 1_555 1_555
C4_2 C3_2 1_555 1_555
C5_2 C4_2 1_555 1_555
H4_2 C5_2 1_555 1_555
C6_2 C1_2 1_555 1_555
H5_2 C6_2 1_555 1_555
C7_2 C1_2 1_555 1_555
C8_2 O9_2 1_555 1_555
H6_2 C8_2 1_555 1_555
H7_2 C8_2 1_555 1_555
H8_2 C8_2 1_555 1_555
C9_2 C10_2 1_555 1_555
C10_2 H9_2 1_555 1_555
C11_2 C10_2 1_555 1_555
C12_2 O2_2 1_555 1_555
C13_2 C12_2 1_555 1_555
H10_2 C13_2 1_555 1_555
C14_2 C9_2 1_555 1_555
H11_2 C14_2 1_555 1_555
C15_2 C9_2 1_555 1_555
C16_2 O12_2 1_555 1_555
H12_2 C16_2 1_555 1_555
H13_2 C16_2 1_555 1_555
H14_2 C16_2 1_555 1_555
C17_2 C18_2 1_555 1_555
C18_2 H15_2 1_555 1_555
C19_2 C18_2 1_555 1_555
C20_2 C19_2 1_555 1_555
C21_2 C20_2 1_555 1_555
H16_2 C21_2 1_555 1_555
C22_2 C17_2 1_555 1_555
H17_2 C22_2 1_555 1_555
C23_2 O13_2 1_555 1_555
C24_2 O15_2 1_555 1_555
H18_2 C24_2 1_555 1_555
H19_2 C24_2 1_555 1_555
H20_2 C24_2 1_555 1_555
C25_2 C26_2 1_555 1_555
C26_2 H21_2 1_555 1_555
C27_2 C26_2 1_555 1_555
C28_2 O4_2 1_555 1_555
C29_2 C28_2 1_555 1_555
H22_2 C29_2 1_555 1_555
C30_2 C25_2 1_555 1_555
H23_2 C30_2 1_555 1_555
C31_2 C25_2 1_555 1_555
C32_2 O18_2 1_555 1_555
H24_2 C32_2 1_555 1_555
H25_2 C32_2 1_555 1_555
H26_2 C32_2 1_555 1_555
C33_2 C34_2 1_555 1_555
C34_2 H27_2 1_555 1_555
C35_2 C34_2 1_555 1_555
C36_2 C35_2 1_555 1_555
C37_2 C36_2 1_555 1_555
H28_2 C37_2 1_555 1_555
C38_2 C33_2 1_555 1_555
H29_2 C38_2 1_555 1_555
C39_2 C33_2 1_555 1_555
C41_2 C42_2 1_555 1_555
C42_2 H33_2 1_555 1_555
C43_2 C42_2 1_555 1_555
C44_2 O6_2 1_555 1_555
C45_2 C44_2 1_555 1_555
H34_2 C45_2 1_555 1_555
C46_2 C41_2 1_555 1_555
H35_2 C46_2 1_555 1_555
C47_2 C41_2 1_555 1_555
C48_2 O24_2 1_555 1_555
H36_2 C48_2 1_555 1_555
H37_2 C48_2 1_555 1_555
H38_2 C48_2 1_555 1_555
Ho4 O10_2 1_555 1_555
Ho9 O19_2 1_555 1_555
Ho7 O11_2 1_555 1_555
P2_2 N2_2 1_555 1_555
P3_2 N1_2 1_555 1_555
P3_2 N3_2 1_555 1_555
O20_2 Ho9 1_555 1_555
C5_2 C6_2 1_555 1_555
C11_2 C12_2 1_555 1_555
C13_2 C14_2 1_555 1_555
C17_2 C23_2 1_555 1_555
C21_2 C22_2 1_555 1_555
C27_2 C28_2 1_555 1_555
C29_2 C30_2 1_555 1_555
C37_2 C38_2 1_555 1_555
C43_2 C44_2 1_555 1_555
C45_2 C46_2 1_555 1_555
Ho2_2 O25_2 1_555 1_555
O26_2 Ho2_2 1_555 1_555
C49_2 O25_2 1_555 1_555
O29_2 Ho2_2 1_555 1_555
O34_2 Ho2_2 1_555 1_555
O35_2 Ho2_2 1_555 1_555
O37_2 Ho2_2 1_555 1_555
O26_2 C49_2 1_555 1_555
Ho5 O32_2 1_555 1_555
H30_2 C40_2 1_555 1_555
H31_2 C40_2 1_555 1_555
H32_2 C40_2 1_555 1_555
O23_2 Ho7 1_555 1_555
O34 C39_3 1_555 1_555
O35 C39_3 1_555 1_555
H6_3 C8_3 1_555 1_555
H7_3 C8_3 1_555 1_555
H8_3 C8_3 1_555 1_555
H39_3 C49_3 1_555 1_555
O38 C49_3 1_555 1_555
Ho4 O8_3 1_555 1_555
Ho7 O25_3 1_555 1_555
P1_3 O1_3 1_555 1_555
P2_3 O3_3 1_555 1_555
P3_3 O5_3 1_555 1_555
O1_3 C4_3 1_555 1_555
O2_3 P1_3 1_555 1_555
O3_3 C20_3 1_555 1_555
O4_3 P2_3 1_555 1_555
O5_3 C36_3 1_555 1_555
O6_3 P3_3 1_555 1_555
O7_3 C7_3 1_555 1_555
O8_3 C7_3 1_555 1_555
O9_3 C3_3 1_555 1_555
O28_2 C15_3 1_555 1_555
O29_2 C15_3 1_555 1_555
O12_3 C11_3 1_555 1_555
O13_3 Ho4 1_555 1_555
O30 C23_3 1_555 1_555
O15_3 C19_3 1_555 1_555
O32_2 C31_3 1_555 1_555
O17_2 C31_3 1_555 1_555
O18_3 C27_3 1_555 1_555
O21_3 C35_3 1_555 1_555
O36_2 C47_3 1_555 1_555
O24_3 C43_3 1_555 1_555
O25_3 Ho4 1_555 1_555
O27_3 Ho7 1_555 1_555
H1_3 O27_3 1_555 1_555
H2_3 O27_3 1_555 1_555
N1_3 P1_3 1_555 1_555
N2_3 P1_3 1_555 1_555
N3_3 P2_3 1_555 1_555
C1_3 C2_3 1_555 1_555
C2_3 H3_3 1_555 1_555
C3_3 C2_3 1_555 1_555
C4_3 C3_3 1_555 1_555
C5_3 C4_3 1_555 1_555
H4_3 C5_3 1_555 1_555
C6_3 C1_3 1_555 1_555
H5_3 C6_3 1_555 1_555
C7_3 C1_3 1_555 1_555
C9_3 C10_3 1_555 1_555
C10_3 H9_3 1_555 1_555
C11_3 C10_3 1_555 1_555
C12_3 O2_3 1_555 1_555
C13_3 C12_3 1_555 1_555
H10_3 C13_3 1_555 1_555
C14_3 C9_3 1_555 1_555
H11_3 C14_3 1_555 1_555
C15_3 C9_3 1_555 1_555
C16_3 O12_3 1_555 1_555
H12_3 C16_3 1_555 1_555
H13_3 C16_3 1_555 1_555
H14_3 C16_3 1_555 1_555
C17_3 C18_3 1_555 1_555
C18_3 H15_3 1_555 1_555
C19_3 C18_3 1_555 1_555
C20_3 C19_3 1_555 1_555
C21_3 C20_3 1_555 1_555
H16_3 C21_3 1_555 1_555
C22_3 C17_3 1_555 1_555
H17_3 C22_3 1_555 1_555
C23_3 O13_3 1_555 1_555
C24_3 O15_3 1_555 1_555
H18_3 C24_3 1_555 1_555
H19_3 C24_3 1_555 1_555
H20_3 C24_3 1_555 1_555
C25_3 C26_3 1_555 1_555
C26_3 H21_3 1_555 1_555
C27_3 C26_3 1_555 1_555
C28_3 O4_3 1_555 1_555
C29_3 C28_3 1_555 1_555
H22_3 C29_3 1_555 1_555
C30_3 C25_3 1_555 1_555
H23_3 C30_3 1_555 1_555
C31_3 C25_3 1_555 1_555
C32_3 O18_3 1_555 1_555
H24_3 C32_3 1_555 1_555
H25_3 C32_3 1_555 1_555
H26_3 C32_3 1_555 1_555
C33_3 C34_3 1_555 1_555
C34_3 H27_3 1_555 1_555
C35_3 C34_3 1_555 1_555
C36_3 C35_3 1_555 1_555
C37_3 C36_3 1_555 1_555
H28_3 C37_3 1_555 1_555
C38_3 C33_3 1_555 1_555
H29_3 C38_3 1_555 1_555
C41_3 C42_3 1_555 1_555
C42_3 H33_3 1_555 1_555
C43_3 C42_3 1_555 1_555
C44_3 O6_3 1_555 1_555
C45_3 C44_3 1_555 1_555
H34_3 C45_3 1_555 1_555
C46_3 C41_3 1_555 1_555
H35_3 C46_3 1_555 1_555
C47_3 C41_3 1_555 1_555
C48_3 O24_3 1_555 1_555
H37_3 C48_3 1_555 1_555
P2_3 N2_3 1_555 1_555
P3_3 N1_3 1_555 1_555
P3_3 N3_3 1_555 1_555
O17_2 Ho5 1_555 1_555
C5_3 C6_3 1_555 1_555
C11_3 C12_3 1_555 1_555
C13_3 C14_3 1_555 1_555
C17_3 C23_3 1_555 1_555
C21_3 C22_3 1_555 1_555
C27_3 C28_3 1_555 1_555
C29_3 C30_3 1_555 1_555
C37_3 C38_3 1_555 1_555
C43_3 C44_3 1_555 1_555
C45_3 C46_3 1_555 1_555
H30_3 C40_3 1_555 1_555
H31_3 C40_3 1_555 1_555
H32_3 C40_3 1_555 1_555
H30_4 C40_4 1_555 1_555
H31_4 C40_4 1_555 1_555
H32_4 C40_4 1_555 1_555
Ho9 O25_4 1_555 1_555
C49_4 O25_4 1_555 1_555
O38_2 C49_4 1_555 1_555
Ho5 O8_4 1_555 1_555
P1_4 O1_4 1_555 1_555
P2_4 O3_4 1_555 1_555
P3_4 O5_4 1_555 1_555
O1_4 C4_4 1_555 1_555
O2_4 P1_4 1_555 1_555
O3_4 C20_4 1_555 1_555
O4_4 P2_4 1_555 1_555
O5_4 C36_4 1_555 1_555
O6_4 P3_4 1_555 1_555
O7_4 C7_4 1_555 1_555
O8_4 C7_4 1_555 1_555
O9_4 C3_4 1_555 1_555
O28 C15_4 1_555 1_555
O29 C15_4 1_555 1_555
O12_4 C11_4 1_555 1_555
O13_4 Ho5 1_555 1_555
O30_2 C23_4 1_555 1_555
O15_4 C19_4 1_555 1_555
O32 C31_4 1_555 1_555
O33_2 C31_4 1_555 1_555
O18_4 C27_4 1_555 1_555
O34_2 C39_4 1_555 1_555
O35_2 C39_4 1_555 1_555
O21_4 C35_4 1_555 1_555
O36 C47_4 1_555 1_555
O24_4 C43_4 1_555 1_555
H1_4 O27_4 1_555 1_555
H2_4 O27_4 1_555 1_555
N1_4 P1_4 1_555 1_555
N2_4 P1_4 1_555 1_555
N3_4 P2_4 1_555 1_555
C1_4 C2_4 1_555 1_555
C2_4 H3_4 1_555 1_555
C3_4 C2_4 1_555 1_555
C4_4 C3_4 1_555 1_555
C5_4 C4_4 1_555 1_555
H4_4 C5_4 1_555 1_555
C6_4 C1_4 1_555 1_555
H5_4 C6_4 1_555 1_555
C7_4 C1_4 1_555 1_555
C8_4 O9_4 1_555 1_555
H6_4 C8_4 1_555 1_555
H7_4 C8_4 1_555 1_555
H8_4 C8_4 1_555 1_555
C9_4 C10_4 1_555 1_555
C10_4 H9_4 1_555 1_555
C11_4 C10_4 1_555 1_555
C12_4 O2_4 1_555 1_555
C13_4 C12_4 1_555 1_555
H10_4 C13_4 1_555 1_555
C14_4 C9_4 1_555 1_555
H11_4 C14_4 1_555 1_555
C15_4 C9_4 1_555 1_555
C16_4 O12_4 1_555 1_555
H12_4 C16_4 1_555 1_555
H13_4 C16_4 1_555 1_555
H14_4 C16_4 1_555 1_555
C17_4 C18_4 1_555 1_555
C18_4 H15_4 1_555 1_555
C19_4 C18_4 1_555 1_555
C20_4 C19_4 1_555 1_555
C21_4 C20_4 1_555 1_555
H16_4 C21_4 1_555 1_555
C22_4 C17_4 1_555 1_555
H17_4 C22_4 1_555 1_555
C23_4 O13_4 1_555 1_555
C24_4 O15_4 1_555 1_555
H18_4 C24_4 1_555 1_555
H19_4 C24_4 1_555 1_555
H20_4 C24_4 1_555 1_555
C25_4 C26_4 1_555 1_555
C26_4 H21_4 1_555 1_555
C27_4 C26_4 1_555 1_555
C28_4 O4_4 1_555 1_555
C29_4 C28_4 1_555 1_555
H22_4 C29_4 1_555 1_555
C30_4 C25_4 1_555 1_555
H23_4 C30_4 1_555 1_555
C31_4 C25_4 1_555 1_555
C32_4 O18_4 1_555 1_555
H24_4 C32_4 1_555 1_555
H25_4 C32_4 1_555 1_555
H26_4 C32_4 1_555 1_555
C33_4 C34_4 1_555 1_555
C34_4 H27_4 1_555 1_555
C35_4 C34_4 1_555 1_555
C36_4 C35_4 1_555 1_555
C37_4 C36_4 1_555 1_555
H28_4 C37_4 1_555 1_555
C38_4 C33_4 1_555 1_555
H29_4 C38_4 1_555 1_555
C39_4 C33_4 1_555 1_555
C41_4 C42_4 1_555 1_555
C42_4 H33_4 1_555 1_555
C43_4 C42_4 1_555 1_555
C44_4 O6_4 1_555 1_555
C45_4 C44_4 1_555 1_555
H34_4 C45_4 1_555 1_555
C46_4 C41_4 1_555 1_555
H35_4 C46_4 1_555 1_555
C47_4 C41_4 1_555 1_555
C48_4 O24_4 1_555 1_555
H36_4 C48_4 1_555 1_555
H37_4 C48_4 1_555 1_555
H38_4 C48_4 1_555 1_555
P2_4 N2_4 1_555 1_555
P3_4 N1_4 1_555 1_555
P3_4 N3_4 1_555 1_555
C5_4 C6_4 1_555 1_555
C11_4 C12_4 1_555 1_555
C13_4 C14_4 1_555 1_555
C17_4 C23_4 1_555 1_555
C21_4 C22_4 1_555 1_555
C27_4 C28_4 1_555 1_555
C29_4 C30_4 1_555 1_555
C37_4 C38_4 1_555 1_555
C43_4 C44_4 1_555 1_555
C45_4 C46_4 1_555 1_555

#END
