
###############################################################################
#
# This file contains modified crystal structure data generated from the
# MOF subset of the Cambridge Structural Database (CSD) v543 
# hosted by the Cambridge Crystallographic Data Centre (CCDC).
#
# This work is licensed under the Creative Commons
# Attribution-NonCommercial-ShareAlike 4.0 International License.
# To view a copy of this license, visit
# http://creativecommons.org/licenses/by-nc-sa/4.0/
# or send a letter to
# Creative Commons, PO Box 1866, Mountain View, CA 94042, USA.
#
# CIF created using the CSD Python API on 29 September 2022
# The structure has been converted into the P1 space group
# The structure has a 3D framework
# The original CSD entry UDIWEM is in the orthorhombic crystal system
# The framework has been calculated to contain at least 10.0% void space
# The void calculation uses a probe of radius 1.32A, grid spacing 0.4
#
###############################################################################

data_UDIWEM
_chemical_formula_moiety         '(C336 H176 Cl48 Ho16 N24 O160 P24)n'
_symmetry_cell_setting           triclinic
_symmetry_space_group_name_H-M   'P 1'
_symmetry_Int_Tables_number      1
_space_group_name_Hall           'P 1'
loop_
_symmetry_equiv_pos_site_id
_symmetry_equiv_pos_as_xyz
1 x,y,z
_cell_length_a                   30.427(6)
_cell_length_b                   18.048(4)
_cell_length_c                   23.107(4)
_cell_angle_alpha                90
_cell_angle_beta                 90
_cell_angle_gamma                90
_cell_volume                     12689.1
loop_
_atom_site_label
_atom_site_type_symbol
_atom_site_fract_x
_atom_site_fract_y
_atom_site_fract_z
Ho1 Ho 0.27476(2) 0.01100(2) 0.53872(2)
Cl2 Cl 0.03815(13) 0.1466(3) 0.7062(2)
Cl6 Cl 0.12414(9) 0.00178(16) 0.76679(11)
O10 O 0.0059(2) 0.0407(6) 0.6229(4)
O11 O 0.2020(2) 0.1528(5) 0.6352(4)
O12 O 0.2094(2) 0.0699(5) 0.5642(4)
O19 O 0.3234(3) 0.0011(5) 0.4595(4)
C8 C 0.0504(3) 0.0526(7) 0.6174(5)
C9 C 0.0707(3) 0.1030(8) 0.6542(5)
C10 C 0.1131(3) 0.1207(6) 0.6474(5)
H8 H 0.1253 0.1574 0.6705
C11 C 0.1390(3) 0.0859(5) 0.6069(4)
C12 C 0.1197(4) 0.0339(8) 0.5713(5)
H9 H 0.1368 0.0081 0.5448
C13 C 0.0752(5) 0.0200(7) 0.5747(5)
C14 C 0.1874(3) 0.1023(5) 0.6005(5)
Ho12 Ho 0.2500 0.2500 0.63032(3)
O42 O 0.2885(4) 0.1274(5) 0.5034(4)
O55 O 0.3123(2) 0.0602(5) 0.6140(4)
Ho3 Ho 0.2500 0.7500 0.50519(3)
Cl4 Cl 0.0542(2) 0.8571(3) 0.4872(2)
P3 P 0.02390(7) 0.87424(16) 0.73365(10)
O5 O 0.1688(2) 0.5792(4) 0.5571(3)
O6 O 0.1893(2) 0.6780(4) 0.5081(3)
O13 O 0.0037(2) 0.8618(4) 0.7964(3)
O16 O 0.0728(2) 0.8624(5) 0.7562(3)
O17 O 0.2314(3) 0.8183(5) 0.5836(4)
O18 O 0.24303(19) 0.9347(4) 0.6075(3)
H1 H 0.3125 0.9718 0.4345
H2 H 0.3478 0.9833 0.4707
O21 O 0.2500 0.7500 0.4021(6)
H4 H 0.2715 0.7756 0.3898
N2 N 0.0106(3) 0.8117(5) 0.6909(4)
N3 N 0.0158(2) 0.9559(5) 0.7130(4)
H10 H 0.0620 0.9884 0.5481
C22 C 0.0408(5) 0.7493(8) 0.5701(6)
C23 C 0.0691(5) 0.7794(9) 0.5308(6)
C24 C 0.1091(5) 0.7442(7) 0.5209(6)
H14 H 0.1295 0.7643 0.4953
C25 C 0.1180(3) 0.6782(6) 0.5501(4)
C26 C 0.0901(3) 0.6497(7) 0.5895(5)
H15 H 0.0973 0.6071 0.6101
C27 C 0.0486(4) 0.6871(9) 0.5990(5)
H16 H 0.0280 0.6680 0.6246
C28 C 0.1628(3) 0.6412(5) 0.5383(4)
C36 C 0.1083(3) 0.8677(6) 0.7181(4)
C37 C 0.1358(3) 0.9293(5) 0.7192(4)
C38 C 0.1726(3) 0.9328(6) 0.6842(4)
H20 H 0.1902 0.9750 0.6843
C39 C 0.1834(3) 0.8730(6) 0.6490(4)
C40 C 0.1557(3) 0.8125(6) 0.6491(5)
H21 H 0.1626 0.7722 0.6257
C41 C 0.1186(3) 0.8092(7) 0.6820(5)
H22 H 0.1004 0.7679 0.6803
C42 C 0.2221(3) 0.8777(6) 0.6100(4)
H24 H 0.2285 0.7244 0.3898
Ho6 Ho 0.22524(2) 0.48900(2) 0.53872(2)
O46 O 0.3312(2) 0.9208(4) 0.5571(3)
O47 O 0.3107(2) 0.8220(4) 0.5081(3)
O48 O 0.2058(4) 0.8410(5) 0.4695(5)
O49 O 0.2942(4) 0.6590(5) 0.4695(5)
O50 O 0.2282(3) 0.9583(5) 0.4741(4)
O56 O 0.2686(3) 0.6817(5) 0.5836(4)
Cl1 Cl 0.92360(17) 0.1727(3) 0.6794(3)
O7 O 0.9421(2) 0.0106(4) 0.6823(3)
O8 O 0.7942(4) 0.1590(5) 0.5305(5)
O9 O 0.7718(3) 0.0417(5) 0.5259(4)
C1 C 0.9058(3) 0.0303(6) 0.6476(5)
C2 C 0.8956(6) 0.1006(8) 0.6415(7)
C3 C 0.8561(5) 0.1235(7) 0.6107(7)
H5 H 0.8464 0.1724 0.6109
C4 C 0.8339(4) 0.0687(5) 0.5814(4)
C7 C 0.7961(4) 0.0910(6) 0.5428(5)
Ho16 Ho 0.7500 0.2500 0.49481(3)
Ho2 Ho 0.7500 0.7500 0.86968(3)
Cl3 Cl 0.9117(3) 0.6355(3) 0.6589(3)
Cl5 Cl 0.98217(13) 0.9973(3) 0.8614(3)
P1 P 0.98589(8) 0.97418(18) 0.65835(12)
P2 P 0.98220(9) 0.82685(19) 0.63379(11)
O1 O 0.9359(3) 0.7859(5) 0.6447(3)
O2 O 0.7885(4) 0.6274(5) 0.4966(4)
O3 O 0.7961(4) 0.7288(5) 0.4470(4)
O4 O 0.9989(3) 0.7815(7) 0.5792(4)
O14 O 0.8123(2) 0.9398(5) 0.8860(4)
O15 O 0.7992(2) 0.8373(4) 0.8371(3)
O20 O 0.7500 0.7500 0.7690(8)
H3 H 0.7318 0.7178 0.7567
N1 N 0.9743(3) 0.9070(6) 0.6163(3)
C5 C 0.8434(4) 0.9962(5) 0.5937(6)
H6 H 0.8261 0.9585 0.5786
C6 C 0.8785(3) 0.9794(6) 0.6283(6)
H7 H 0.8832 0.9302 0.6385
C15 C 0.9066(5) 0.7639(6) 0.6009(5)
C16 C 0.8883(5) 0.6911(9) 0.6065(6)
C17 C 0.8582(6) 0.6679(9) 0.5686(6)
H11 H 0.8493 0.6186 0.5698
C18 C 0.8396(5) 0.7143(6) 0.5275(5)
C19 C 0.8628(5) 0.7794(7) 0.5163(6)
H12 H 0.8561 0.8069 0.4834
C20 C 0.8968(5) 0.8049(7) 0.5547(6)
H13 H 0.9117 0.8490 0.5474
C21 C 0.8046(5) 0.6880(6) 0.4883(5)
C29 C 0.9584(3) 0.8710(6) 0.8058(4)
C30 C 0.9437(3) 0.9326(7) 0.8375(5)
C31 C 0.9005(3) 0.9356(7) 0.8549(5)
H17 H 0.8913 0.9737 0.8791
C32 C 0.8714(3) 0.8834(6) 0.8374(5)
C33 C 0.8854(4) 0.8295(7) 0.7984(6)
H18 H 0.8648 0.7979 0.7819
C34 C 0.9287(4) 0.8221(7) 0.7840(6)
H19 H 0.9377 0.7841 0.7596
C35 C 0.8242(3) 0.8857(6) 0.8558(5)
H23 H 0.7682 0.7822 0.7567
Cl7 Cl 0.57640(17) 0.3273(3) 0.6794(3)
Cl8 Cl 0.46185(13) 0.3534(3) 0.7062(2)
Cl9 Cl 0.5883(3) 0.8645(3) 0.6589(3)
Cl10 Cl 0.4458(2) 0.6429(3) 0.4872(2)
Cl11 Cl 0.51783(13) 0.5027(3) 0.8614(3)
Cl12 Cl 0.37586(9) 0.49822(16) 0.76679(11)
P4 P 0.51411(8) 0.52582(18) 0.65835(12)
P5 P 0.51780(9) 0.67315(19) 0.63379(11)
P6 P 0.47610(7) 0.62576(16) 0.73365(10)
O22 O 0.5641(3) 0.7141(5) 0.6447(3)
O23 O 0.7115(4) 0.8726(5) 0.4966(4)
O24 O 0.7039(4) 0.7712(5) 0.4470(4)
O25 O 0.5011(3) 0.7185(7) 0.5792(4)
O28 O 0.5579(2) 0.4894(4) 0.6823(3)
O29 O 0.7058(4) 0.3410(5) 0.5305(5)
O30 O 0.7282(3) 0.4583(5) 0.5259(4)
O31 O 0.4941(2) 0.4593(6) 0.6229(4)
O32 O 0.2980(2) 0.3472(5) 0.6352(4)
O33 O 0.2906(2) 0.4301(5) 0.5642(4)
O34 O 0.4963(2) 0.6382(4) 0.7964(3)
O35 O 0.6877(2) 0.5602(5) 0.8860(4)
O36 O 0.7008(2) 0.6627(4) 0.8371(3)
O37 O 0.4272(2) 0.6376(5) 0.7562(3)
O39 O 0.25697(19) 0.5653(4) 0.6075(3)
O40 O 0.1766(3) 0.4989(5) 0.4595(4)
H25 H 0.1875 0.5282 0.4345
H26 H 0.1522 0.5167 0.4707
N4 N 0.5257(3) 0.5930(6) 0.6163(3)
N5 N 0.4894(3) 0.6883(5) 0.6909(4)
N6 N 0.4842(2) 0.5441(5) 0.7130(4)
C43 C 0.5942(3) 0.4697(6) 0.6476(5)
C44 C 0.6044(6) 0.3994(8) 0.6415(7)
C45 C 0.6439(5) 0.3765(7) 0.6107(7)
H27 H 0.6536 0.3276 0.6109
C46 C 0.6661(4) 0.4313(5) 0.5814(4)
C47 C 0.6566(4) 0.5038(5) 0.5937(6)
H28 H 0.6739 0.5415 0.5786
C48 C 0.6215(3) 0.5206(6) 0.6283(6)
H29 H 0.6168 0.5698 0.6385
C49 C 0.7039(4) 0.4090(6) 0.5428(5)
C50 C 0.4496(3) 0.4474(7) 0.6174(5)
C51 C 0.4293(3) 0.3970(8) 0.6542(5)
C52 C 0.3869(3) 0.3793(6) 0.6474(5)
H30 H 0.3747 0.3426 0.6705
C53 C 0.3610(3) 0.4141(5) 0.6069(4)
C54 C 0.3803(4) 0.4661(8) 0.5713(5)
H31 H 0.3632 0.4919 0.5448
C55 C 0.4248(5) 0.4800(7) 0.5747(5)
H32 H 0.4380 0.5116 0.5481
C56 C 0.3126(3) 0.3977(5) 0.6005(5)
C57 C 0.5934(5) 0.7361(6) 0.6009(5)
C58 C 0.6117(5) 0.8089(9) 0.6065(6)
C59 C 0.6418(6) 0.8321(9) 0.5686(6)
H33 H 0.6507 0.8814 0.5698
C60 C 0.6604(5) 0.7857(6) 0.5275(5)
C61 C 0.6372(5) 0.7206(7) 0.5163(6)
H34 H 0.6439 0.6931 0.4834
C62 C 0.6032(5) 0.6951(7) 0.5547(6)
H35 H 0.5883 0.6510 0.5474
C63 C 0.6954(5) 0.8120(6) 0.4883(5)
C64 C 0.4592(5) 0.7507(8) 0.5701(6)
C65 C 0.4309(5) 0.7206(9) 0.5308(6)
C66 C 0.3909(5) 0.7558(7) 0.5209(6)
H36 H 0.3705 0.7357 0.4953
C67 C 0.3820(3) 0.8218(6) 0.5501(4)
C68 C 0.4099(3) 0.8503(7) 0.5895(5)
H37 H 0.4027 0.8929 0.6101
C69 C 0.4514(4) 0.8129(9) 0.5990(5)
H38 H 0.4720 0.8320 0.6246
C70 C 0.3372(3) 0.8588(5) 0.5383(4)
C71 C 0.5416(3) 0.6290(6) 0.8058(4)
C72 C 0.5563(3) 0.5674(7) 0.8375(5)
C73 C 0.5995(3) 0.5644(7) 0.8549(5)
H39 H 0.6087 0.5263 0.8791
C74 C 0.6286(3) 0.6166(6) 0.8374(5)
C75 C 0.6146(4) 0.6705(7) 0.7984(6)
H40 H 0.6352 0.7021 0.7819
C76 C 0.5713(4) 0.6779(7) 0.7840(6)
H41 H 0.5623 0.7159 0.7596
C77 C 0.6758(3) 0.6143(6) 0.8558(5)
C78 C 0.3917(3) 0.6323(6) 0.7181(4)
C79 C 0.3642(3) 0.5707(5) 0.7192(4)
C80 C 0.3274(3) 0.5672(6) 0.6842(4)
H42 H 0.3098 0.5250 0.6843
C81 C 0.3166(3) 0.6270(6) 0.6490(4)
C82 C 0.3443(3) 0.6875(6) 0.6491(5)
H43 H 0.3374 0.7278 0.6257
C83 C 0.3814(3) 0.6908(7) 0.6820(5)
H44 H 0.3996 0.7321 0.6803
C84 C 0.2779(3) 0.6223(6) 0.6100(4)
Ho7 Ho 0.72524(2) 0.51100(2) 0.96128(2)
Ho8 Ho 0.77476(2) 0.98900(2) 0.96128(2)
Ho9 Ho 0.72524(2) 0.98900(2) 0.46128(2)
Ho10 Ho 0.77476(2) 0.51100(2) 0.46128(2)
Ho13 Ho 0.7500 0.7500 0.36968(3)
O41 O 0.2115(4) 0.3726(5) 0.5034(4)
O43 O 0.7961(4) 0.7712(5) 0.9470(4)
O44 O 0.7039(4) 0.7288(5) 0.9470(4)
O51 O 0.2718(3) 0.5417(5) 0.4741(4)
O52 O 0.7980(2) 0.6528(5) 0.8648(4)
O53 O 0.7020(2) 0.8472(5) 0.8648(4)
O54 O 0.1877(2) 0.4398(5) 0.6140(4)
O2_2 O 0.2115(4) 0.1274(5) 0.0034(4)
O3_2 O 0.2039(4) 0.2288(5) 0.0530(4)
H12_2 H 0.1439 0.3069 0.0166
C21_2 C 0.1954(5) 0.1880(6) 0.0117(5)
Cl10_2 Cl 0.5542(2) 0.1429(3) 0.0128(2)
O23_2 O 0.2885(4) 0.3726(5) 0.0034(4)
O24_2 O 0.2961(4) 0.2712(5) 0.0530(4)
H25_2 H 0.8125 0.0282 0.0655
H26_2 H 0.8478 0.0167 0.0293
H34_2 H 0.3561 0.1931 0.0166
C63_2 C 0.3046(5) 0.3120(6) 0.0117(5)
H36_2 H 0.6295 0.2357 0.0047
Ho9_2 Ho 0.27476(2) 0.48900(2) 0.03872(2)
Ho10_2 Ho 0.22524(2) 0.01100(2) 0.03872(2)
Ho13_2 Ho 0.2500 0.2500 0.13032(3)
Ho16_2 Ho 0.2500 0.7500 0.00519(3)
O51_2 O 0.7282(3) 0.0417(5) 0.0259(4)
Cl1_2 Cl 0.07640(17) 0.6727(3) 0.8206(3)
Cl3_2 Cl 0.0883(3) 0.1355(3) 0.8411(3)
Cl5_2 Cl 0.01783(13) 0.4973(3) 0.6386(3)
P1_2 P 0.01411(8) 0.47418(18) 0.84165(12)
P2_2 P 0.01780(9) 0.32685(19) 0.86621(11)
O1_2 O 0.0641(3) 0.2859(5) 0.8553(3)
O4_2 O 0.0011(3) 0.2815(7) 0.9208(4)
O7_2 O 0.0579(2) 0.5106(4) 0.8177(3)
O8_2 O 0.2058(4) 0.6590(5) 0.9695(5)
O9_2 O 0.2282(3) 0.5417(5) 0.9741(4)
O15_2 O 0.2008(2) 0.3373(4) 0.6629(3)
O20_2 O 0.2500 0.2500 0.7310(8)
H3_2 H 0.2682 0.2178 0.7433
N1_2 N 0.0257(3) 0.4070(6) 0.8837(3)
C1_2 C 0.0942(3) 0.5303(6) 0.8524(5)
C2_2 C 0.1044(6) 0.6006(8) 0.8585(7)
C3_2 C 0.1439(5) 0.6235(7) 0.8893(7)
H5_2 H 0.1536 0.6724 0.8891
C4_2 C 0.1661(4) 0.5687(5) 0.9186(4)
C5_2 C 0.1566(4) 0.4962(5) 0.9063(6)
H6_2 H 0.1739 0.4585 0.9214
C6_2 C 0.1215(3) 0.4794(6) 0.8717(6)
H7_2 H 0.1168 0.4302 0.8615
C7_2 C 0.2039(4) 0.5910(6) 0.9572(5)
C15_2 C 0.0934(5) 0.2639(6) 0.8991(5)
C16_2 C 0.1117(5) 0.1911(9) 0.8935(6)
C17_2 C 0.1418(6) 0.1679(9) 0.9314(6)
H11_2 H 0.1507 0.1186 0.9302
C18_2 C 0.1604(5) 0.2143(6) 0.9725(5)
C19_2 C 0.1372(5) 0.2794(7) 0.9837(6)
C20_2 C 0.1032(5) 0.3049(7) 0.9453(6)
H13_2 H 0.0883 0.3490 0.9526
C29_2 C 0.0416(3) 0.3710(6) 0.6942(4)
C30_2 C 0.0563(3) 0.4326(7) 0.6625(5)
C31_2 C 0.0995(3) 0.4356(7) 0.6451(5)
H17_2 H 0.1087 0.4737 0.6209
C32_2 C 0.1286(3) 0.3834(6) 0.6626(5)
C33_2 C 0.1146(4) 0.3295(7) 0.7016(6)
H18_2 H 0.1352 0.2979 0.7181
C34_2 C 0.0713(4) 0.3221(7) 0.7160(6)
H19_2 H 0.0623 0.2841 0.7404
C35_2 C 0.1758(3) 0.3857(6) 0.6442(5)
H23_2 H 0.2318 0.2822 0.7433
Cl9_2 Cl 0.4117(3) 0.3645(3) 0.8411(3)
Cl11_2 Cl 0.48217(13) 0.0027(3) 0.6386(3)
P4_2 P 0.48589(8) 0.02582(18) 0.84165(12)
P5_2 P 0.48220(9) 0.17315(19) 0.86621(11)
P6_2 P 0.52390(7) 0.12576(16) 0.76635(10)
O22_2 O 0.4359(3) 0.2141(5) 0.8553(3)
O25_2 O 0.4989(3) 0.2185(7) 0.9208(4)
O26 O 0.6688(2) 0.4208(4) 0.9429(3)
O27 O 0.6893(2) 0.3220(4) 0.9919(3)
O34_2 O 0.5037(2) 0.1382(4) 0.7036(3)
O36_2 O 0.2992(2) 0.1627(4) 0.6629(3)
O37_2 O 0.5728(2) 0.1376(5) 0.7438(3)
O38 O 0.7314(3) 0.1817(5) 0.9164(4)
O39_2 O 0.74303(19) 0.0653(4) 0.8925(3)
N4_2 N 0.4743(3) 0.0930(6) 0.8837(3)
N5_2 N 0.5106(3) 0.1883(5) 0.8091(4)
N6_2 N 0.5158(2) 0.0441(5) 0.7870(4)
C47_2 C 0.3434(4) 0.0038(5) 0.9063(6)
H28_2 H 0.3261 0.0415 0.9214
C48_2 C 0.3785(3) 0.0206(6) 0.8717(6)
H29_2 H 0.3832 0.0698 0.8615
H32_2 H 0.5620 0.0116 0.9519
C57_2 C 0.4066(5) 0.2361(6) 0.8991(5)
C58_2 C 0.3883(5) 0.3089(9) 0.8935(6)
C59_2 C 0.3582(6) 0.3321(9) 0.9314(6)
H33_2 H 0.3493 0.3814 0.9302
C60_2 C 0.3396(5) 0.2857(6) 0.9725(5)
C61_2 C 0.3628(5) 0.2206(7) 0.9837(6)
C62_2 C 0.3968(5) 0.1951(7) 0.9453(6)
H35_2 H 0.4117 0.1510 0.9526
C64_2 C 0.5408(5) 0.2507(8) 0.9299(6)
C65_2 C 0.5691(5) 0.2206(9) 0.9692(6)
C66_2 C 0.6091(5) 0.2558(7) 0.9791(6)
C67_2 C 0.6180(3) 0.3218(6) 0.9499(4)
C68_2 C 0.5901(3) 0.3503(7) 0.9105(5)
H37_2 H 0.5973 0.3929 0.8899
C69_2 C 0.5486(4) 0.3129(9) 0.9010(5)
H38_2 H 0.5280 0.3320 0.8754
C70_2 C 0.6628(3) 0.3588(5) 0.9617(4)
C71_2 C 0.4584(3) 0.1290(6) 0.6942(4)
C72_2 C 0.4437(3) 0.0674(7) 0.6625(5)
C73_2 C 0.4005(3) 0.0644(7) 0.6451(5)
H39_2 H 0.3913 0.0263 0.6209
C74_2 C 0.3714(3) 0.1166(6) 0.6626(5)
C75_2 C 0.3854(4) 0.1705(7) 0.7016(6)
H40_2 H 0.3648 0.2021 0.7181
C76_2 C 0.4287(4) 0.1779(7) 0.7160(6)
H41_2 H 0.4377 0.2159 0.7404
C77_2 C 0.3242(3) 0.1143(6) 0.6442(5)
C78_2 C 0.6083(3) 0.1323(6) 0.7819(4)
C79_2 C 0.6358(3) 0.0707(5) 0.7808(4)
C80_2 C 0.6726(3) 0.0672(6) 0.8158(4)
H42_2 H 0.6902 0.0250 0.8157
C81_2 C 0.6834(3) 0.1270(6) 0.8510(4)
C82_2 C 0.6557(3) 0.1875(6) 0.8509(5)
H43_2 H 0.6626 0.2278 0.8743
C83_2 C 0.6186(3) 0.1908(7) 0.8180(5)
H44_2 H 0.6004 0.2321 0.8197
C84_2 C 0.7221(3) 0.1223(6) 0.8900(4)
Ho14 Ho 0.7500 0.2500 0.99481(3)
O43_2 O 0.2039(4) 0.2712(5) 0.5530(4)
O44_2 O 0.2961(4) 0.2288(5) 0.5530(4)
O45 O 0.8312(2) 0.0792(4) 0.9429(3)
O40_2 O 0.8234(3) 0.9989(5) 0.0405(4)
Cl7_2 Cl 0.42360(17) 0.8273(3) 0.8206(3)
Cl8_2 Cl 0.53815(13) 0.8534(3) 0.7938(2)
Cl12_2 Cl 0.62414(9) 0.99822(16) 0.73321(11)
O28_2 O 0.4421(2) 0.9894(4) 0.8177(3)
O29_2 O 0.2942(4) 0.8410(5) 0.9695(5)
O30_2 O 0.2718(3) 0.9583(5) 0.9741(4)
O31_2 O 0.5059(2) 0.9593(6) 0.8771(4)
O33_2 O 0.7094(2) 0.9301(5) 0.9358(4)
C43_2 C 0.4058(3) 0.9697(6) 0.8524(5)
C44_2 C 0.3956(6) 0.8994(8) 0.8585(7)
C45_2 C 0.3561(5) 0.8765(7) 0.8893(7)
H27_2 H 0.3464 0.8276 0.8891
C46_2 C 0.3339(4) 0.9313(5) 0.9186(4)
C49_2 C 0.2961(4) 0.9090(6) 0.9572(5)
C50_2 C 0.5504(3) 0.9474(7) 0.8826(5)
C51_2 C 0.5707(3) 0.8970(8) 0.8458(5)
C52_2 C 0.6131(3) 0.8793(6) 0.8526(5)
H30_2 H 0.6253 0.8426 0.8295
C53_2 C 0.6390(3) 0.9141(5) 0.8931(4)
C54_2 C 0.6197(4) 0.9661(8) 0.9287(5)
H31_2 H 0.6368 0.9919 0.9552
C55_2 C 0.5752(5) 0.9800(7) 0.9253(5)
C56_2 C 0.6874(3) 0.8977(5) 0.8995(5)
O41_2 O 0.7885(4) 0.8726(5) 0.9966(4)
Cl4_2 Cl 0.9458(2) 0.3571(3) 0.0128(2)
O19_2 O 0.6766(3) 0.5011(5) 0.0405(4)
H1_2 H 0.6875 0.4718 0.0655
H2_2 H 0.6522 0.4833 0.0293
O21_2 O 0.7500 0.2500 0.0979(6)
H4_2 H 0.7285 0.2756 0.1102
H14_2 H 0.8705 0.2643 0.0047
H24_2 H 0.7715 0.2244 0.1102
O48_2 O 0.7942(4) 0.3410(5) 0.0305(5)
O49_2 O 0.7058(4) 0.1590(5) 0.0305(5)
O50_2 O 0.7718(3) 0.4583(5) 0.0259(4)
Cl2_2 Cl 0.96185(13) 0.6466(3) 0.7938(2)
Cl6_2 Cl 0.87586(9) 0.50178(16) 0.73321(11)
P3_2 P 0.97610(7) 0.37424(16) 0.76635(10)
O6_2 O 0.8107(2) 0.1780(4) 0.9919(3)
O10_2 O 0.9941(2) 0.5407(6) 0.8771(4)
O12_2 O 0.7906(2) 0.5699(5) 0.9358(4)
O13_2 O 0.9963(2) 0.3618(4) 0.7036(3)
O16_2 O 0.9272(2) 0.3624(5) 0.7438(3)
O17_2 O 0.7686(3) 0.3183(5) 0.9164(4)
O18_2 O 0.75697(19) 0.4347(4) 0.8925(3)
N2_2 N 0.9894(3) 0.3117(5) 0.8091(4)
N3_2 N 0.9842(2) 0.4559(5) 0.7870(4)
C8_2 C 0.9496(3) 0.5526(7) 0.8826(5)
C9_2 C 0.9293(3) 0.6030(8) 0.8458(5)
C10_2 C 0.8869(3) 0.6207(6) 0.8526(5)
H8_2 H 0.8747 0.6574 0.8295
C11_2 C 0.8610(3) 0.5859(5) 0.8931(4)
C12_2 C 0.8803(4) 0.5339(8) 0.9287(5)
H9_2 H 0.8632 0.5081 0.9552
C13_2 C 0.9248(5) 0.5200(7) 0.9253(5)
H10_2 H 0.9380 0.4884 0.9519
C14_2 C 0.8126(3) 0.6023(5) 0.8995(5)
C22_2 C 0.9592(5) 0.2493(8) 0.9299(6)
C23_2 C 0.9309(5) 0.2794(9) 0.9692(6)
C24_2 C 0.8909(5) 0.2442(7) 0.9791(6)
C25_2 C 0.8820(3) 0.1782(6) 0.9499(4)
C26_2 C 0.9099(3) 0.1497(7) 0.9105(5)
H15_2 H 0.9027 0.1071 0.8899
C27_2 C 0.9514(4) 0.1871(9) 0.9010(5)
H16_2 H 0.9720 0.1680 0.8754
C28_2 C 0.8372(3) 0.1412(5) 0.9617(4)
C36_2 C 0.8917(3) 0.3677(6) 0.7819(4)
C37_2 C 0.8642(3) 0.4293(5) 0.7808(4)
C38_2 C 0.8274(3) 0.4328(6) 0.8158(4)
H20_2 H 0.8098 0.4750 0.8157
C39_2 C 0.8166(3) 0.3730(6) 0.8510(4)
C40_2 C 0.8443(3) 0.3125(6) 0.8509(5)
H21_2 H 0.8374 0.2722 0.8743
C41_2 C 0.8814(3) 0.3092(7) 0.8180(5)
H22_2 H 0.8996 0.2679 0.8197
C42_2 C 0.7779(3) 0.3777(6) 0.8900(4)
O42_2 O 0.7115(4) 0.6274(5) 0.9966(4)
Cl3_3 Cl 0.0883(3) 0.3645(3) 0.3411(3)
Cl5_3 Cl 0.01783(13) 0.0027(3) 0.1386(3)
P1_3 P 0.01411(8) 0.02582(18) 0.34165(12)
P2_3 P 0.01780(9) 0.17315(19) 0.36621(11)
O1_3 O 0.0641(3) 0.2141(5) 0.3553(3)
O4_3 O 0.0011(3) 0.2185(7) 0.4208(4)
O14_2 O 0.1877(2) 0.0602(5) 0.1140(4)
O15_3 O 0.2008(2) 0.1627(4) 0.1629(3)
O20_3 O 0.2500 0.2500 0.2310(8)
H3_3 H 0.2682 0.2822 0.2433
N1_3 N 0.0257(3) 0.0930(6) 0.3837(3)
C5_3 C 0.1566(4) 0.0038(5) 0.4063(6)
H6_3 H 0.1739 0.0415 0.4214
C6_3 C 0.1215(3) 0.0206(6) 0.3717(6)
H7_3 H 0.1168 0.0698 0.3615
C15_3 C 0.0934(5) 0.2361(6) 0.3991(5)
C16_3 C 0.1117(5) 0.3089(9) 0.3935(6)
C17_3 C 0.1418(6) 0.3321(9) 0.4314(6)
H11_3 H 0.1507 0.3814 0.4302
C18_3 C 0.1604(5) 0.2857(6) 0.4725(5)
C19_3 C 0.1372(5) 0.2206(7) 0.4837(6)
H12_3 H 0.1439 0.1931 0.5166
C20_3 C 0.1032(5) 0.1951(7) 0.4453(6)
H13_3 H 0.0883 0.1510 0.4526
C21_3 C 0.1954(5) 0.3120(6) 0.5117(5)
C29_3 C 0.0416(3) 0.1290(6) 0.1942(4)
C30_3 C 0.0563(3) 0.0674(7) 0.1625(5)
C31_3 C 0.0995(3) 0.0644(7) 0.1451(5)
H17_3 H 0.1087 0.0263 0.1209
C32_3 C 0.1286(3) 0.1166(6) 0.1626(5)
C33_3 C 0.1146(4) 0.1705(7) 0.2016(6)
H18_3 H 0.1352 0.2021 0.2181
C34_3 C 0.0713(4) 0.1779(7) 0.2160(6)
H19_3 H 0.0623 0.2159 0.2404
C35_3 C 0.1758(3) 0.1143(6) 0.1442(5)
H23_3 H 0.2318 0.2178 0.2433
Cl7_3 Cl 0.42360(17) 0.6727(3) 0.3206(3)
Cl8_3 Cl 0.53815(13) 0.6466(3) 0.2938(2)
Cl9_3 Cl 0.4117(3) 0.1355(3) 0.3411(3)
Cl10_3 Cl 0.5542(2) 0.3571(3) 0.5128(2)
Cl11_3 Cl 0.48217(13) 0.4973(3) 0.1386(3)
Cl12_3 Cl 0.62414(9) 0.50178(16) 0.23321(11)
P4_3 P 0.48589(8) 0.47418(18) 0.34165(12)
P5_3 P 0.48220(9) 0.32685(19) 0.36621(11)
P6_3 P 0.52390(7) 0.37424(16) 0.26635(10)
O22_3 O 0.4359(3) 0.2859(5) 0.3553(3)
O25_3 O 0.4989(3) 0.2815(7) 0.4208(4)
O26_2 O 0.6688(2) 0.0792(4) 0.4429(3)
O27_2 O 0.6893(2) 0.1780(4) 0.4919(3)
O28_3 O 0.4421(2) 0.5106(4) 0.3177(3)
O31_3 O 0.5059(2) 0.5407(6) 0.3771(4)
O32_2 O 0.7020(2) 0.6528(5) 0.3648(4)
O33_3 O 0.7094(2) 0.5699(5) 0.4358(4)
O34_3 O 0.5037(2) 0.3618(4) 0.2036(3)
O35_2 O 0.3123(2) 0.4398(5) 0.1140(4)
O36_3 O 0.2992(2) 0.3373(4) 0.1629(3)
O37_3 O 0.5728(2) 0.3624(5) 0.2438(3)
O38_2 O 0.7314(3) 0.3183(5) 0.4164(4)
O39_3 O 0.74303(19) 0.4347(4) 0.3925(3)
O40_3 O 0.8234(3) 0.5011(5) 0.5405(4)
H25_3 H 0.8125 0.4718 0.5655
H26_3 H 0.8478 0.4833 0.5293
N4_3 N 0.4743(3) 0.4070(6) 0.3837(3)
N5_3 N 0.5106(3) 0.3117(5) 0.3091(4)
N6_3 N 0.5158(2) 0.4559(5) 0.2870(4)
C43_3 C 0.4058(3) 0.5303(6) 0.3524(5)
C44_3 C 0.3956(6) 0.6006(8) 0.3585(7)
C45_3 C 0.3561(5) 0.6235(7) 0.3893(7)
H27_3 H 0.3464 0.6724 0.3891
C46_3 C 0.3339(4) 0.5687(5) 0.4186(4)
C47_3 C 0.3434(4) 0.4962(5) 0.4063(6)
H28_3 H 0.3261 0.4585 0.4214
C48_3 C 0.3785(3) 0.4794(6) 0.3717(6)
H29_3 H 0.3832 0.4302 0.3615
C49_3 C 0.2961(4) 0.5910(6) 0.4572(5)
C50_3 C 0.5504(3) 0.5526(7) 0.3826(5)
C51_3 C 0.5707(3) 0.6030(8) 0.3458(5)
C52_3 C 0.6131(3) 0.6207(6) 0.3526(5)
H30_3 H 0.6253 0.6574 0.3295
C53_3 C 0.6390(3) 0.5859(5) 0.3931(4)
C54_3 C 0.6197(4) 0.5339(8) 0.4287(5)
H31_3 H 0.6368 0.5081 0.4552
C55_3 C 0.5752(5) 0.5200(7) 0.4253(5)
H32_3 H 0.5620 0.4884 0.4519
C56_3 C 0.6874(3) 0.6023(5) 0.3995(5)
C57_3 C 0.4066(5) 0.2639(6) 0.3991(5)
C58_3 C 0.3883(5) 0.1911(9) 0.3935(6)
C59_3 C 0.3582(6) 0.1679(9) 0.4314(6)
H33_3 H 0.3493 0.1186 0.4302
C60_3 C 0.3396(5) 0.2143(6) 0.4725(5)
C61_3 C 0.3628(5) 0.2794(7) 0.4837(6)
H34_3 H 0.3561 0.3069 0.5166
C62_3 C 0.3968(5) 0.3049(7) 0.4453(6)
H35_3 H 0.4117 0.3490 0.4526
C63_3 C 0.3046(5) 0.1880(6) 0.5117(5)
C64_3 C 0.5408(5) 0.2493(8) 0.4299(6)
C65_3 C 0.5691(5) 0.2794(9) 0.4692(6)
C66_3 C 0.6091(5) 0.2442(7) 0.4791(6)
H36_3 H 0.6295 0.2643 0.5047
C67_3 C 0.6180(3) 0.1782(6) 0.4499(4)
C68_3 C 0.5901(3) 0.1497(7) 0.4105(5)
H37_3 H 0.5973 0.1071 0.3899
C69_3 C 0.5486(4) 0.1871(9) 0.4010(5)
H38_3 H 0.5280 0.1680 0.3754
C70_3 C 0.6628(3) 0.1412(5) 0.4617(4)
C71_3 C 0.4584(3) 0.3710(6) 0.1942(4)
C72_3 C 0.4437(3) 0.4326(7) 0.1625(5)
C73_3 C 0.4005(3) 0.4356(7) 0.1451(5)
H39_3 H 0.3913 0.4737 0.1209
C74_3 C 0.3714(3) 0.3834(6) 0.1626(5)
C75_3 C 0.3854(4) 0.3295(7) 0.2016(6)
H40_3 H 0.3648 0.2979 0.2181
C76_3 C 0.4287(4) 0.3221(7) 0.2160(6)
H41_3 H 0.4377 0.2841 0.2404
C77_3 C 0.3242(3) 0.3857(6) 0.1442(5)
C78_3 C 0.6083(3) 0.3677(6) 0.2819(4)
C79_3 C 0.6358(3) 0.4293(5) 0.2808(4)
C80_3 C 0.6726(3) 0.4328(6) 0.3158(4)
H42_3 H 0.6902 0.4750 0.3157
C81_3 C 0.6834(3) 0.3730(6) 0.3510(4)
C82_3 C 0.6557(3) 0.3125(6) 0.3509(5)
H43_3 H 0.6626 0.2722 0.3743
C83_3 C 0.6186(3) 0.3092(7) 0.3180(5)
H44_3 H 0.6004 0.2679 0.3197
C84_3 C 0.7221(3) 0.3777(6) 0.3900(4)
O45_2 O 0.8312(2) 0.4208(4) 0.4429(3)
O52_2 O 0.2020(2) 0.3472(5) 0.1352(4)
O53_2 O 0.2980(2) 0.1528(5) 0.1352(4)
O54_2 O 0.8123(2) 0.5602(5) 0.3860(4)
Cl1_3 Cl 0.07640(17) 0.8273(3) 0.3206(3)
O7_3 O 0.0579(2) 0.9894(4) 0.3177(3)
C1_3 C 0.0942(3) 0.9697(6) 0.3524(5)
C2_3 C 0.1044(6) 0.8994(8) 0.3585(7)
C3_3 C 0.1439(5) 0.8765(7) 0.3893(7)
H5_3 H 0.1536 0.8276 0.3891
C4_3 C 0.1661(4) 0.9313(5) 0.4186(4)
C7_3 C 0.2039(4) 0.9090(6) 0.4572(5)
Cl4_3 Cl 0.9458(2) 0.1429(3) 0.5128(2)
P3_3 P 0.97610(7) 0.12576(16) 0.26635(10)
O6_3 O 0.8107(2) 0.3220(4) 0.4919(3)
O13_3 O 0.9963(2) 0.1382(4) 0.2036(3)
O16_3 O 0.9272(2) 0.1376(5) 0.2438(3)
O17_3 O 0.7686(3) 0.1817(5) 0.4164(4)
O18_3 O 0.75697(19) 0.0653(4) 0.3925(3)
H1_3 H 0.6875 0.0282 0.5655
H2_3 H 0.6522 0.0167 0.5293
O21_3 O 0.7500 0.2500 0.5979(6)
H4_3 H 0.7285 0.2244 0.6102
N2_3 N 0.9894(3) 0.1883(5) 0.3091(4)
N3_3 N 0.9842(2) 0.0441(5) 0.2870(4)
H10_3 H 0.9380 0.0116 0.4519
C22_3 C 0.9592(5) 0.2507(8) 0.4299(6)
C23_3 C 0.9309(5) 0.2206(9) 0.4692(6)
C24_3 C 0.8909(5) 0.2558(7) 0.4791(6)
H14_3 H 0.8705 0.2357 0.5047
C25_3 C 0.8820(3) 0.3218(6) 0.4499(4)
C26_3 C 0.9099(3) 0.3503(7) 0.4105(5)
H15_3 H 0.9027 0.3929 0.3899
C27_3 C 0.9514(4) 0.3129(9) 0.4010(5)
H16_3 H 0.9720 0.3320 0.3754
C28_3 C 0.8372(3) 0.3588(5) 0.4617(4)
C36_3 C 0.8917(3) 0.1323(6) 0.2819(4)
C37_3 C 0.8642(3) 0.0707(5) 0.2808(4)
C38_3 C 0.8274(3) 0.0672(6) 0.3158(4)
H20_3 H 0.8098 0.0250 0.3157
C39_3 C 0.8166(3) 0.1270(6) 0.3510(4)
C40_3 C 0.8443(3) 0.1875(6) 0.3509(5)
H21_3 H 0.8374 0.2278 0.3743
C41_3 C 0.8814(3) 0.1908(7) 0.3180(5)
H22_3 H 0.8996 0.2321 0.3197
C42_3 C 0.7779(3) 0.1223(6) 0.3900(4)
H24_3 H 0.7715 0.2756 0.6102
Cl2_3 Cl 0.96185(13) 0.8534(3) 0.2938(2)
Cl6_3 Cl 0.87586(9) 0.99822(16) 0.23321(11)
O10_3 O 0.9941(2) 0.9593(6) 0.3771(4)
O11_2 O 0.7980(2) 0.8472(5) 0.3648(4)
O12_3 O 0.7906(2) 0.9301(5) 0.4358(4)
O19_3 O 0.6766(3) 0.9989(5) 0.5405(4)
C8_3 C 0.9496(3) 0.9474(7) 0.3826(5)
C9_3 C 0.9293(3) 0.8970(8) 0.3458(5)
C10_3 C 0.8869(3) 0.8793(6) 0.3526(5)
H8_3 H 0.8747 0.8426 0.3295
C11_3 C 0.8610(3) 0.9141(5) 0.3931(4)
C12_3 C 0.8803(4) 0.9661(8) 0.4287(5)
H9_3 H 0.8632 0.9919 0.4552
C13_3 C 0.9248(5) 0.9800(7) 0.4253(5)
C14_3 C 0.8126(3) 0.8977(5) 0.3995(5)
O55_2 O 0.6877(2) 0.9398(5) 0.3860(4)
Cl2_4 Cl 0.03815(13) 0.3534(3) 0.2062(2)
Cl6_4 Cl 0.12414(9) 0.49822(16) 0.26679(11)
P3_4 P 0.02390(7) 0.62576(16) 0.23365(10)
O5_2 O 0.1688(2) 0.9208(4) 0.0571(3)
O6_4 O 0.1893(2) 0.8220(4) 0.0081(3)
O10_4 O 0.0059(2) 0.4593(6) 0.1229(4)
O12_4 O 0.2094(2) 0.4301(5) 0.0642(4)
O13_4 O 0.0037(2) 0.6382(4) 0.2964(3)
O16_4 O 0.0728(2) 0.6376(5) 0.2562(3)
O17_4 O 0.2314(3) 0.6817(5) 0.0836(4)
O18_4 O 0.24303(19) 0.5653(4) 0.1075(3)
N2_4 N 0.0106(3) 0.6883(5) 0.1909(4)
N3_4 N 0.0158(2) 0.5441(5) 0.2130(4)
C8_4 C 0.0504(3) 0.4474(7) 0.1174(5)
C9_4 C 0.0707(3) 0.3970(8) 0.1542(5)
C10_4 C 0.1131(3) 0.3793(6) 0.1474(5)
H8_4 H 0.1253 0.3426 0.1705
C11_4 C 0.1390(3) 0.4141(5) 0.1069(4)
C12_4 C 0.1197(4) 0.4661(8) 0.0713(5)
H9_4 H 0.1368 0.4919 0.0448
C13_4 C 0.0752(5) 0.4800(7) 0.0747(5)
H10_4 H 0.0620 0.5116 0.0481
C14_4 C 0.1874(3) 0.3977(5) 0.1005(5)
C22_4 C 0.0408(5) 0.7507(8) 0.0701(6)
C23_4 C 0.0691(5) 0.7206(9) 0.0308(6)
C24_4 C 0.1091(5) 0.7558(7) 0.0209(6)
C25_4 C 0.1180(3) 0.8218(6) 0.0501(4)
C26_4 C 0.0901(3) 0.8503(7) 0.0895(5)
H15_4 H 0.0973 0.8929 0.1101
C27_4 C 0.0486(4) 0.8129(9) 0.0990(5)
H16_4 H 0.0280 0.8320 0.1246
C28_4 C 0.1628(3) 0.8588(5) 0.0383(4)
C36_4 C 0.1083(3) 0.6323(6) 0.2181(4)
C37_4 C 0.1358(3) 0.5707(5) 0.2192(4)
C38_4 C 0.1726(3) 0.5672(6) 0.1842(4)
H20_4 H 0.1902 0.5250 0.1843
C39_4 C 0.1834(3) 0.6270(6) 0.1490(4)
C40_4 C 0.1557(3) 0.6875(6) 0.1491(5)
H21_4 H 0.1626 0.7278 0.1257
C41_4 C 0.1186(3) 0.6908(7) 0.1820(5)
H22_4 H 0.1004 0.7321 0.1803
C42_4 C 0.2221(3) 0.6223(6) 0.1100(4)
O46_2 O 0.3312(2) 0.5792(4) 0.0571(3)
O47_2 O 0.3107(2) 0.6780(4) 0.0081(3)
O56_2 O 0.2686(3) 0.8183(5) 0.0836(4)
Cl4_4 Cl 0.0542(2) 0.6429(3) 0.9872(2)
O19_4 O 0.3234(3) 0.4989(5) 0.9595(4)
H1_4 H 0.3125 0.5282 0.9345
H2_4 H 0.3478 0.5167 0.9707
O21_4 O 0.2500 0.7500 0.9021(6)
H4_4 H 0.2715 0.7244 0.8898
H14_4 H 0.1295 0.7357 0.9953
H24_4 H 0.2285 0.7756 0.8898
Cl7_4 Cl 0.57640(17) 0.1727(3) 0.1794(3)
Cl8_4 Cl 0.46185(13) 0.1466(3) 0.2062(2)
Cl12_4 Cl 0.37586(9) 0.00178(16) 0.26679(11)
O28_4 O 0.5579(2) 0.0106(4) 0.1823(3)
O31_4 O 0.4941(2) 0.0407(6) 0.1229(4)
O33_4 O 0.2906(2) 0.0699(5) 0.0642(4)
C43_4 C 0.5942(3) 0.0303(6) 0.1476(5)
C44_4 C 0.6044(6) 0.1006(8) 0.1415(7)
C45_4 C 0.6439(5) 0.1235(7) 0.1107(7)
H27_4 H 0.6536 0.1724 0.1109
C46_4 C 0.6661(4) 0.0687(5) 0.0814(4)
C49_4 C 0.7039(4) 0.0910(6) 0.0428(5)
C50_4 C 0.4496(3) 0.0526(7) 0.1174(5)
C51_4 C 0.4293(3) 0.1030(8) 0.1542(5)
C52_4 C 0.3869(3) 0.1207(6) 0.1474(5)
H30_4 H 0.3747 0.1574 0.1705
C53_4 C 0.3610(3) 0.0859(5) 0.1069(4)
C54_4 C 0.3803(4) 0.0339(8) 0.0713(5)
H31_4 H 0.3632 0.0081 0.0448
C55_4 C 0.4248(5) 0.0200(7) 0.0747(5)
C56_4 C 0.3126(3) 0.1023(5) 0.1005(5)
O40_4 O 0.1766(3) 0.0011(5) 0.9595(4)
Cl1_4 Cl 0.92360(17) 0.3273(3) 0.1794(3)
Cl3_4 Cl 0.9117(3) 0.8645(3) 0.1589(3)
Cl5_4 Cl 0.98217(13) 0.5027(3) 0.3614(3)
P1_4 P 0.98589(8) 0.52582(18) 0.15835(12)
P2_4 P 0.98220(9) 0.67315(19) 0.13379(11)
O1_4 O 0.9359(3) 0.7141(5) 0.1447(3)
O4_4 O 0.9989(3) 0.7185(7) 0.0792(4)
O7_4 O 0.9421(2) 0.4894(4) 0.1823(3)
O15_4 O 0.7992(2) 0.6627(4) 0.3371(3)
O20_4 O 0.7500 0.7500 0.2690(8)
H3_4 H 0.7318 0.7822 0.2567
N1_4 N 0.9743(3) 0.5930(6) 0.1163(3)
C1_4 C 0.9058(3) 0.4697(6) 0.1476(5)
C2_4 C 0.8956(6) 0.3994(8) 0.1415(7)
C3_4 C 0.8561(5) 0.3765(7) 0.1107(7)
H5_4 H 0.8464 0.3276 0.1109
C4_4 C 0.8339(4) 0.4313(5) 0.0814(4)
C5_4 C 0.8434(4) 0.5038(5) 0.0937(6)
H6_4 H 0.8261 0.5415 0.0786
C6_4 C 0.8785(3) 0.5206(6) 0.1283(6)
H7_4 H 0.8832 0.5698 0.1385
C7_4 C 0.7961(4) 0.4090(6) 0.0428(5)
C15_4 C 0.9066(5) 0.7361(6) 0.1009(5)
C16_4 C 0.8883(5) 0.8089(9) 0.1065(6)
C17_4 C 0.8582(6) 0.8321(9) 0.0686(6)
H11_4 H 0.8493 0.8814 0.0698
C18_4 C 0.8396(5) 0.7857(6) 0.0275(5)
C19_4 C 0.8628(5) 0.7206(7) 0.0163(6)
C20_4 C 0.8968(5) 0.6951(7) 0.0547(6)
H13_4 H 0.9117 0.6510 0.0474
C29_4 C 0.9584(3) 0.6290(6) 0.3058(4)
C30_4 C 0.9437(3) 0.5674(7) 0.3375(5)
C31_4 C 0.9005(3) 0.5644(7) 0.3549(5)
H17_4 H 0.8913 0.5263 0.3791
C32_4 C 0.8714(3) 0.6166(6) 0.3374(5)
C33_4 C 0.8854(4) 0.6705(7) 0.2984(6)
H18_4 H 0.8648 0.7021 0.2819
C34_4 C 0.9287(4) 0.6779(7) 0.2840(6)
H19_4 H 0.9377 0.7159 0.2596
C35_4 C 0.8242(3) 0.6143(6) 0.3558(5)
H23_4 H 0.7682 0.7178 0.2567
Cl9_4 Cl 0.5883(3) 0.6355(3) 0.1589(3)
Cl11_4 Cl 0.51783(13) 0.9973(3) 0.3614(3)
P4_4 P 0.51411(8) 0.97418(18) 0.15835(12)
P5_4 P 0.51780(9) 0.82685(19) 0.13379(11)
P6_4 P 0.47610(7) 0.87424(16) 0.23365(10)
O22_4 O 0.5641(3) 0.7859(5) 0.1447(3)
O25_4 O 0.5011(3) 0.7815(7) 0.0792(4)
O34_4 O 0.4963(2) 0.8618(4) 0.2964(3)
O36_4 O 0.7008(2) 0.8373(4) 0.3371(3)
O37_4 O 0.4272(2) 0.8624(5) 0.2562(3)
O39_4 O 0.25697(19) 0.9347(4) 0.1075(3)
N4_4 N 0.5257(3) 0.9070(6) 0.1163(3)
N5_4 N 0.4894(3) 0.8117(5) 0.1909(4)
N6_4 N 0.4842(2) 0.9559(5) 0.2130(4)
C47_4 C 0.6566(4) 0.9962(5) 0.0937(6)
H28_4 H 0.6739 0.9585 0.0786
C48_4 C 0.6215(3) 0.9794(6) 0.1283(6)
H29_4 H 0.6168 0.9302 0.1385
H32_4 H 0.4380 0.9884 0.0481
C57_4 C 0.5934(5) 0.7639(6) 0.1009(5)
C58_4 C 0.6117(5) 0.6911(9) 0.1065(6)
C59_4 C 0.6418(6) 0.6679(9) 0.0686(6)
H33_4 H 0.6507 0.6186 0.0698
C60_4 C 0.6604(5) 0.7143(6) 0.0275(5)
C61_4 C 0.6372(5) 0.7794(7) 0.0163(6)
C62_4 C 0.6032(5) 0.8049(7) 0.0547(6)
H35_4 H 0.5883 0.8490 0.0474
C64_4 C 0.4592(5) 0.7493(8) 0.0701(6)
C65_4 C 0.4309(5) 0.7794(9) 0.0308(6)
C66_4 C 0.3909(5) 0.7442(7) 0.0209(6)
C67_4 C 0.3820(3) 0.6782(6) 0.0501(4)
C68_4 C 0.4099(3) 0.6497(7) 0.0895(5)
H37_4 H 0.4027 0.6071 0.1101
C69_4 C 0.4514(4) 0.6871(9) 0.0990(5)
H38_4 H 0.4720 0.6680 0.1246
C70_4 C 0.3372(3) 0.6412(5) 0.0383(4)
C71_4 C 0.5416(3) 0.8710(6) 0.3058(4)
C72_4 C 0.5563(3) 0.9326(7) 0.3375(5)
C73_4 C 0.5995(3) 0.9356(7) 0.3549(5)
H39_4 H 0.6087 0.9737 0.3791
C74_4 C 0.6286(3) 0.8834(6) 0.3374(5)
C75_4 C 0.6146(4) 0.8295(7) 0.2984(6)
H40_4 H 0.6352 0.7979 0.2819
C76_4 C 0.5713(4) 0.8221(7) 0.2840(6)
H41_4 H 0.5623 0.7841 0.2596
C77_4 C 0.6758(3) 0.8857(6) 0.3558(5)
C78_4 C 0.3917(3) 0.8677(6) 0.2181(4)
C79_4 C 0.3642(3) 0.9293(5) 0.2192(4)
C80_4 C 0.3274(3) 0.9328(6) 0.1842(4)
H42_4 H 0.3098 0.9750 0.1843
C81_4 C 0.3166(3) 0.8730(6) 0.1490(4)
C82_4 C 0.3443(3) 0.8125(6) 0.1491(5)
H43_4 H 0.3374 0.7722 0.1257
C83_4 C 0.3814(3) 0.8092(7) 0.1820(5)
H44_4 H 0.3996 0.7679 0.1803
C84_4 C 0.2779(3) 0.8777(6) 0.1100(4)
H12_4 H 0.8561 0.6931 0.9834
C21_4 C 0.8046(5) 0.8120(6) 0.9883(5)
Cl10_4 Cl 0.4458(2) 0.8571(3) 0.9872(2)
H25_4 H 0.1875 0.9718 0.9345
H26_4 H 0.1522 0.9833 0.9707
H34_4 H 0.6439 0.8069 0.9834
C63_4 C 0.6954(5) 0.6880(6) 0.9883(5)
H36_4 H 0.3705 0.7643 0.9953
loop_
_geom_bond_atom_site_label_1
_geom_bond_atom_site_label_2
_geom_bond_site_symmetry_1
_geom_bond_site_symmetry_2
Ho1 O12 1_555 1_555
Cl2 C9 1_555 1_555
O11 C14 1_555 1_555
O12 C14 1_555 1_555
O19 Ho1 1_555 1_555
C8 O10 1_555 1_555
C9 C8 1_555 1_555
C10 C9 1_555 1_555
H8 C10 1_555 1_555
C11 C10 1_555 1_555
C12 C11 1_555 1_555
H9 C12 1_555 1_555
C13 C8 1_555 1_555
C14 C11 1_555 1_555
Ho12 O11 1_555 1_555
O42 Ho1 1_555 1_555
O55 Ho1 1_555 1_555
C12 C13 1_555 1_555
Ho3 O6 1_555 1_555
Cl4 C23 1_555 1_555
P3 O13 1_555 1_555
O5 C28 1_555 1_555
O6 C28 1_555 1_555
O16 P3 1_555 1_555
O17 Ho3 1_555 1_555
O21 Ho3 1_555 1_555
H4 O21 1_555 1_555
C23 C22 1_555 1_555
C24 C23 1_555 1_555
H14 C24 1_555 1_555
C25 C24 1_555 1_555
C26 C25 1_555 1_555
H15 C26 1_555 1_555
C27 C22 1_555 1_555
H16 C27 1_555 1_555
C28 C25 1_555 1_555
C36 O16 1_555 1_555
C37 C36 1_555 1_555
C38 C37 1_555 1_555
H20 C38 1_555 1_555
C39 C38 1_555 1_555
C40 C39 1_555 1_555
H21 C40 1_555 1_555
C41 C36 1_555 1_555
H22 C41 1_555 1_555
C42 O17 1_555 1_555
H24 O21 1_555 1_555
Ho6 O5 1_555 1_555
O47 Ho3 1_555 1_555
O48 Ho3 1_555 1_555
O49 Ho3 1_555 1_555
O56 Ho3 1_555 1_555
P3 N2 1_555 1_555
P3 N3 1_555 1_555
O18 C42 1_555 1_555
C26 C27 1_555 1_555
C39 C42 1_555 1_555
C40 C41 1_555 1_555
Cl1 C2 1_555 1_555
O7 C1 1_555 1_555
O8 C7 1_555 1_555
O9 C7 1_555 1_555
C1 C2 1_555 1_555
C2 C3 1_555 1_555
C3 H5 1_555 1_555
C4 C3 1_555 1_555
C7 C4 1_555 1_555
Ho16 O8 1_555 1_555
Ho2 O15 1_555 1_555
Cl3 C16 1_555 1_555
Cl5 C30 1_555 1_555
P2 O1 1_555 1_555
O1 C15 1_555 1_555
O2 C21 1_555 1_555
O3 C21 1_555 1_555
O4 P2 1_555 1_555
O14 C35 1_555 1_555
O15 C35 1_555 1_555
O20 Ho2 1_555 1_555
H3 O20 1_555 1_555
N1 P1 1_555 1_555
H6 C5 1_555 1_555
H7 C6 1_555 1_555
C15 C16 1_555 1_555
C16 C17 1_555 1_555
C17 H11 1_555 1_555
C18 C17 1_555 1_555
C19 C18 1_555 1_555
H12 C19 1_555 1_555
C20 C15 1_555 1_555
H13 C20 1_555 1_555
C21 C18 1_555 1_555
C29 C30 1_555 1_555
C30 C31 1_555 1_555
C31 H17 1_555 1_555
C32 C31 1_555 1_555
C33 C32 1_555 1_555
H18 C33 1_555 1_555
C34 C29 1_555 1_555
H19 C34 1_555 1_555
C35 C32 1_555 1_555
H23 O20 1_555 1_555
Ho6 O33 1_555 1_555
Cl7 C44 1_555 1_555
Cl8 C51 1_555 1_555
Cl9 C58 1_555 1_555
Cl10 C65 1_555 1_555
Cl11 C72 1_555 1_555
Cl12 C79 1_555 1_555
P4 O28 1_555 1_555
P5 O22 1_555 1_555
P6 O34 1_555 1_555
O22 C57 1_555 1_555
O23 C63 1_555 1_555
O24 C63 1_555 1_555
O25 P5 1_555 1_555
O46 C70 1_555 1_555
O47 C70 1_555 1_555
O28 C43 1_555 1_555
O29 C49 1_555 1_555
O30 C49 1_555 1_555
O31 P4 1_555 1_555
O32 C56 1_555 1_555
O33 C56 1_555 1_555
O34 C71 1_555 1_555
O35 C77 1_555 1_555
O36 Ho2 1_555 1_555
O37 P6 1_555 1_555
O56 C84 1_555 1_555
O39 Ho6 1_555 1_555
O40 Ho6 1_555 1_555
H25 O40 1_555 1_555
H26 O40 1_555 1_555
N4 P4 1_555 1_555
N5 P5 1_555 1_555
N6 P4 1_555 1_555
C43 C44 1_555 1_555
C44 C45 1_555 1_555
C45 H27 1_555 1_555
C46 C45 1_555 1_555
C47 C46 1_555 1_555
H28 C47 1_555 1_555
C48 C43 1_555 1_555
H29 C48 1_555 1_555
C49 C46 1_555 1_555
C50 O31 1_555 1_555
C51 C50 1_555 1_555
C52 C51 1_555 1_555
H30 C52 1_555 1_555
C53 C52 1_555 1_555
C54 C53 1_555 1_555
H31 C54 1_555 1_555
C55 C50 1_555 1_555
H32 C55 1_555 1_555
C56 C53 1_555 1_555
C57 C58 1_555 1_555
C58 C59 1_555 1_555
C59 H33 1_555 1_555
C60 C59 1_555 1_555
C61 C60 1_555 1_555
H34 C61 1_555 1_555
C62 C57 1_555 1_555
H35 C62 1_555 1_555
C63 C60 1_555 1_555
C64 O25 1_555 1_555
C65 C64 1_555 1_555
C66 C65 1_555 1_555
H36 C66 1_555 1_555
C67 C66 1_555 1_555
C68 C67 1_555 1_555
H37 C68 1_555 1_555
C69 C64 1_555 1_555
H38 C69 1_555 1_555
C70 C67 1_555 1_555
C71 C72 1_555 1_555
C72 C73 1_555 1_555
C73 H39 1_555 1_555
C74 C73 1_555 1_555
C75 C74 1_555 1_555
H40 C75 1_555 1_555
C76 C71 1_555 1_555
H41 C76 1_555 1_555
C77 O36 1_555 1_555
C78 O37 1_555 1_555
C79 C78 1_555 1_555
C80 C79 1_555 1_555
H42 C80 1_555 1_555
C81 C80 1_555 1_555
C82 C81 1_555 1_555
H43 C82 1_555 1_555
C83 C78 1_555 1_555
H44 C83 1_555 1_555
C84 O39 1_555 1_555
Ho7 O35 1_555 1_555
Ho8 O14 1_555 1_555
Ho10 O2 1_555 1_555
Ho12 O32 1_555 1_555
Ho13 O3 1_555 1_555
Ho16 O29 1_555 1_555
O41 Ho6 1_555 1_555
O43 Ho2 1_555 1_555
O44 Ho2 1_555 1_555
O51 Ho6 1_555 1_555
O52 Ho2 1_555 1_555
O53 Ho2 1_555 1_555
O54 Ho6 1_555 1_555
P2 N1 1_555 1_555
C5 C6 1_555 1_555
C19 C20 1_555 1_555
C33 C34 1_555 1_555
P5 N4 1_555 1_555
P6 N5 1_555 1_555
P6 N6 1_555 1_555
O23 Ho9 1_555 1_555
O24 Ho13 1_555 1_555
O30 Ho10 1_555 1_555
C47 C48 1_555 1_555
C54 C55 1_555 1_555
C61 C62 1_555 1_555
C68 C69 1_555 1_555
C74 C77 1_555 1_555
C75 C76 1_555 1_555
C81 C84 1_555 1_555
C82 C83 1_555 1_555
O2_2 C21_2 1_555 1_555
O3_2 C21_2 1_555 1_555
O23_2 C63_2 1_555 1_555
O24_2 C63_2 1_555 1_555
Ho10_2 O2_2 1_555 1_555
Ho13_2 O3_2 1_555 1_555
O23_2 Ho9_2 1_555 1_555
O24_2 Ho13_2 1_555 1_555
Ho12 O15_2 1_555 1_555
Cl1_2 C2_2 1_555 1_555
Cl3_2 C16_2 1_555 1_555
Cl5_2 C30_2 1_555 1_555
P1_2 O7_2 1_555 1_555
P2_2 O1_2 1_555 1_555
O1_2 C15_2 1_555 1_555
O4_2 P2_2 1_555 1_555
O7_2 C1_2 1_555 1_555
O8_2 C7_2 1_555 1_555
O9_2 C7_2 1_555 1_555
O54 C35_2 1_555 1_555
O15_2 C35_2 1_555 1_555
O20_2 Ho12 1_555 1_555
H3_2 O20_2 1_555 1_555
N1_2 P1_2 1_555 1_555
C1_2 C2_2 1_555 1_555
C2_2 C3_2 1_555 1_555
C3_2 H5_2 1_555 1_555
C4_2 C3_2 1_555 1_555
C5_2 C4_2 1_555 1_555
H6_2 C5_2 1_555 1_555
C6_2 C1_2 1_555 1_555
H7_2 C6_2 1_555 1_555
C7_2 C4_2 1_555 1_555
C15_2 C16_2 1_555 1_555
C16_2 C17_2 1_555 1_555
C17_2 H11_2 1_555 1_555
C18_2 C17_2 1_555 1_555
C19_2 C18_2 1_555 1_555
C20_2 C15_2 1_555 1_555
H13_2 C20_2 1_555 1_555
C29_2 C30_2 1_555 1_555
C30_2 C31_2 1_555 1_555
C31_2 H17_2 1_555 1_555
C32_2 C31_2 1_555 1_555
C33_2 C32_2 1_555 1_555
H18_2 C33_2 1_555 1_555
C34_2 C29_2 1_555 1_555
H19_2 C34_2 1_555 1_555
C35_2 C32_2 1_555 1_555
H23_2 O20_2 1_555 1_555
Cl9_2 C58_2 1_555 1_555
Cl11_2 C72_2 1_555 1_555
P5_2 O22_2 1_555 1_555
P6_2 O34_2 1_555 1_555
O22_2 C57_2 1_555 1_555
O25_2 P5_2 1_555 1_555
O26 C70_2 1_555 1_555
O27 C70_2 1_555 1_555
O34_2 C71_2 1_555 1_555
O55 C77_2 1_555 1_555
O36_2 Ho12 1_555 1_555
O37_2 P6_2 1_555 1_555
O38 C84_2 1_555 1_555
N4_2 P4_2 1_555 1_555
N5_2 P5_2 1_555 1_555
N6_2 P4_2 1_555 1_555
H28_2 C47_2 1_555 1_555
H29_2 C48_2 1_555 1_555
C57_2 C58_2 1_555 1_555
C58_2 C59_2 1_555 1_555
C59_2 H33_2 1_555 1_555
C60_2 C59_2 1_555 1_555
C61_2 C60_2 1_555 1_555
C62_2 C57_2 1_555 1_555
H35_2 C62_2 1_555 1_555
C64_2 O25_2 1_555 1_555
C65_2 C64_2 1_555 1_555
C66_2 C65_2 1_555 1_555
C67_2 C66_2 1_555 1_555
C68_2 C67_2 1_555 1_555
H37_2 C68_2 1_555 1_555
C69_2 C64_2 1_555 1_555
H38_2 C69_2 1_555 1_555
C70_2 C67_2 1_555 1_555
C71_2 C72_2 1_555 1_555
C72_2 C73_2 1_555 1_555
C73_2 H39_2 1_555 1_555
C74_2 C73_2 1_555 1_555
C75_2 C74_2 1_555 1_555
H40_2 C75_2 1_555 1_555
C76_2 C71_2 1_555 1_555
H41_2 C76_2 1_555 1_555
C77_2 O36_2 1_555 1_555
C78_2 O37_2 1_555 1_555
C79_2 C78_2 1_555 1_555
C80_2 C79_2 1_555 1_555
H42_2 C80_2 1_555 1_555
C81_2 C80_2 1_555 1_555
C82_2 C81_2 1_555 1_555
H43_2 C82_2 1_555 1_555
C83_2 C78_2 1_555 1_555
H44_2 C83_2 1_555 1_555
C84_2 O39_2 1_555 1_555
Ho7 O26 1_555 1_555
Ho14 O27 1_555 1_555
O43_2 Ho12 1_555 1_555
O44_2 Ho12 1_555 1_555
P2_2 N1_2 1_555 1_555
C5_2 C6_2 1_555 1_555
C19_2 C20_2 1_555 1_555
C33_2 C34_2 1_555 1_555
P5_2 N4_2 1_555 1_555
P6_2 N5_2 1_555 1_555
P6_2 N6_2 1_555 1_555
O38 Ho14 1_555 1_555
C47_2 C48_2 1_555 1_555
C61_2 C62_2 1_555 1_555
C68_2 C69_2 1_555 1_555
C74_2 C77_2 1_555 1_555
C75_2 C76_2 1_555 1_555
C81_2 C84_2 1_555 1_555
C82_2 C83_2 1_555 1_555
Ho8 O33_2 1_555 1_555
Cl7_2 C44_2 1_555 1_555
Cl8_2 C51_2 1_555 1_555
O28_2 C43_2 1_555 1_555
O29_2 C49_2 1_555 1_555
O30_2 C49_2 1_555 1_555
O53 C56_2 1_555 1_555
O33_2 C56_2 1_555 1_555
C43_2 C44_2 1_555 1_555
C44_2 C45_2 1_555 1_555
C45_2 H27_2 1_555 1_555
C46_2 C45_2 1_555 1_555
C49_2 C46_2 1_555 1_555
C50_2 O31_2 1_555 1_555
C51_2 C50_2 1_555 1_555
C52_2 C51_2 1_555 1_555
H30_2 C52_2 1_555 1_555
C53_2 C52_2 1_555 1_555
C54_2 C53_2 1_555 1_555
H31_2 C54_2 1_555 1_555
C55_2 C50_2 1_555 1_555
C56_2 C53_2 1_555 1_555
O41_2 Ho8 1_555 1_555
C54_2 C55_2 1_555 1_555
H1_2 O19_2 1_555 1_555
H2_2 O19_2 1_555 1_555
H4_2 O21_2 1_555 1_555
H24_2 O21_2 1_555 1_555
Ho7 O12_2 1_555 1_555
Ho14 O6_2 1_555 1_555
Cl2_2 C9_2 1_555 1_555
Cl6_2 C37_2 1_555 1_555
P3_2 O13_2 1_555 1_555
O45 C28_2 1_555 1_555
O6_2 C28_2 1_555 1_555
O52 C14_2 1_555 1_555
O12_2 C14_2 1_555 1_555
O16_2 P3_2 1_555 1_555
O17_2 Ho14 1_555 1_555
O18_2 Ho7 1_555 1_555
C8_2 O10_2 1_555 1_555
C9_2 C8_2 1_555 1_555
C10_2 C9_2 1_555 1_555
H8_2 C10_2 1_555 1_555
C11_2 C10_2 1_555 1_555
C12_2 C11_2 1_555 1_555
H9_2 C12_2 1_555 1_555
C13_2 C8_2 1_555 1_555
H10_2 C13_2 1_555 1_555
C14_2 C11_2 1_555 1_555
C23_2 C22_2 1_555 1_555
C24_2 C23_2 1_555 1_555
C25_2 C24_2 1_555 1_555
C26_2 C25_2 1_555 1_555
H15_2 C26_2 1_555 1_555
C27_2 C22_2 1_555 1_555
H16_2 C27_2 1_555 1_555
C28_2 C25_2 1_555 1_555
C36_2 O16_2 1_555 1_555
C37_2 C36_2 1_555 1_555
C38_2 C37_2 1_555 1_555
H20_2 C38_2 1_555 1_555
C39_2 C38_2 1_555 1_555
C40_2 C39_2 1_555 1_555
H21_2 C40_2 1_555 1_555
C41_2 C36_2 1_555 1_555
H22_2 C41_2 1_555 1_555
C42_2 O17_2 1_555 1_555
O42_2 Ho7 1_555 1_555
P3_2 N2_2 1_555 1_555
P3_2 N3_2 1_555 1_555
O18_2 C42_2 1_555 1_555
C12_2 C13_2 1_555 1_555
C26_2 C27_2 1_555 1_555
C39_2 C42_2 1_555 1_555
C40_2 C41_2 1_555 1_555
Ho13_2 O15_3 1_555 1_555
Cl3_3 C16_3 1_555 1_555
Cl5_3 C30_3 1_555 1_555
P2_3 O1_3 1_555 1_555
O1_3 C15_3 1_555 1_555
O41 C21_3 1_555 1_555
O43_2 C21_3 1_555 1_555
O4_3 P2_3 1_555 1_555
O14_2 C35_3 1_555 1_555
O15_3 C35_3 1_555 1_555
O20_3 Ho13_2 1_555 1_555
H3_3 O20_3 1_555 1_555
N1_3 P1_3 1_555 1_555
H6_3 C5_3 1_555 1_555
H7_3 C6_3 1_555 1_555
C15_3 C16_3 1_555 1_555
C16_3 C17_3 1_555 1_555
C17_3 H11_3 1_555 1_555
C18_3 C17_3 1_555 1_555
C19_3 C18_3 1_555 1_555
H12_3 C19_3 1_555 1_555
C20_3 C15_3 1_555 1_555
H13_3 C20_3 1_555 1_555
C21_3 C18_3 1_555 1_555
C29_3 C30_3 1_555 1_555
C30_3 C31_3 1_555 1_555
C31_3 H17_3 1_555 1_555
C32_3 C31_3 1_555 1_555
C33_3 C32_3 1_555 1_555
H18_3 C33_3 1_555 1_555
C34_3 C29_3 1_555 1_555
H19_3 C34_3 1_555 1_555
C35_3 C32_3 1_555 1_555
H23_3 O20_3 1_555 1_555
Ho10 O33_3 1_555 1_555
Cl7_3 C44_3 1_555 1_555
Cl8_3 C51_3 1_555 1_555
Cl9_3 C58_3 1_555 1_555
Cl10_3 C65_3 1_555 1_555
Cl11_3 C72_3 1_555 1_555
Cl12_3 C79_3 1_555 1_555
P4_3 O28_3 1_555 1_555
P5_3 O22_3 1_555 1_555
P6_3 O34_3 1_555 1_555
O22_3 C57_3 1_555 1_555
O42 C63_3 1_555 1_555
O44_2 C63_3 1_555 1_555
O25_3 P5_3 1_555 1_555
O26_2 C70_3 1_555 1_555
O27_2 C70_3 1_555 1_555
O28_3 C43_3 1_555 1_555
O49 C49_3 1_555 1_555
O51 C49_3 1_555 1_555
O31_3 P4_3 1_555 1_555
O32_2 C56_3 1_555 1_555
O33_3 C56_3 1_555 1_555
O34_3 C71_3 1_555 1_555
O35_2 C77_3 1_555 1_555
O36_3 Ho13_2 1_555 1_555
O37_3 P6_3 1_555 1_555
O38_2 C84_3 1_555 1_555
O39_3 Ho10 1_555 1_555
O40_3 Ho10 1_555 1_555
H25_3 O40_3 1_555 1_555
H26_3 O40_3 1_555 1_555
N4_3 P4_3 1_555 1_555
N5_3 P5_3 1_555 1_555
N6_3 P4_3 1_555 1_555
C43_3 C44_3 1_555 1_555
C44_3 C45_3 1_555 1_555
C45_3 H27_3 1_555 1_555
C46_3 C45_3 1_555 1_555
C47_3 C46_3 1_555 1_555
H28_3 C47_3 1_555 1_555
C48_3 C43_3 1_555 1_555
H29_3 C48_3 1_555 1_555
C49_3 C46_3 1_555 1_555
C50_3 O31_3 1_555 1_555
C51_3 C50_3 1_555 1_555
C52_3 C51_3 1_555 1_555
H30_3 C52_3 1_555 1_555
C53_3 C52_3 1_555 1_555
C54_3 C53_3 1_555 1_555
H31_3 C54_3 1_555 1_555
C55_3 C50_3 1_555 1_555
H32_3 C55_3 1_555 1_555
C56_3 C53_3 1_555 1_555
C57_3 C58_3 1_555 1_555
C58_3 C59_3 1_555 1_555
C59_3 H33_3 1_555 1_555
C60_3 C59_3 1_555 1_555
C61_3 C60_3 1_555 1_555
H34_3 C61_3 1_555 1_555
C62_3 C57_3 1_555 1_555
H35_3 C62_3 1_555 1_555
C63_3 C60_3 1_555 1_555
C64_3 O25_3 1_555 1_555
C65_3 C64_3 1_555 1_555
C66_3 C65_3 1_555 1_555
H36_3 C66_3 1_555 1_555
C67_3 C66_3 1_555 1_555
C68_3 C67_3 1_555 1_555
H37_3 C68_3 1_555 1_555
C69_3 C64_3 1_555 1_555
H38_3 C69_3 1_555 1_555
C70_3 C67_3 1_555 1_555
C71_3 C72_3 1_555 1_555
C72_3 C73_3 1_555 1_555
C73_3 H39_3 1_555 1_555
C74_3 C73_3 1_555 1_555
C75_3 C74_3 1_555 1_555
H40_3 C75_3 1_555 1_555
C76_3 C71_3 1_555 1_555
H41_3 C76_3 1_555 1_555
C77_3 O36_3 1_555 1_555
C78_3 O37_3 1_555 1_555
C79_3 C78_3 1_555 1_555
C80_3 C79_3 1_555 1_555
H42_3 C80_3 1_555 1_555
C81_3 C80_3 1_555 1_555
C82_3 C81_3 1_555 1_555
H43_3 C82_3 1_555 1_555
C83_3 C78_3 1_555 1_555
H44_3 C83_3 1_555 1_555
C84_3 O39_3 1_555 1_555
Ho9_2 O35_2 1_555 1_555
Ho10_2 O14_2 1_555 1_555
Ho13 O32_2 1_555 1_555
Ho16 O27_2 1_555 1_555
O45_2 Ho10 1_555 1_555
O52_2 Ho13_2 1_555 1_555
O53_2 Ho13_2 1_555 1_555
O54_2 Ho10 1_555 1_555
P2_3 N1_3 1_555 1_555
C5_3 C6_3 1_555 1_555
C19_3 C20_3 1_555 1_555
C33_3 C34_3 1_555 1_555
P5_3 N4_3 1_555 1_555
P6_3 N5_3 1_555 1_555
P6_3 N6_3 1_555 1_555
O38_2 Ho16 1_555 1_555
C47_3 C48_3 1_555 1_555
C54_3 C55_3 1_555 1_555
C61_3 C62_3 1_555 1_555
C68_3 C69_3 1_555 1_555
C74_3 C77_3 1_555 1_555
C75_3 C76_3 1_555 1_555
C81_3 C84_3 1_555 1_555
C82_3 C83_3 1_555 1_555
Cl1_3 C2_3 1_555 1_555
O7_3 C1_3 1_555 1_555
O48 C7_3 1_555 1_555
O50 C7_3 1_555 1_555
C1_3 C2_3 1_555 1_555
C2_3 C3_3 1_555 1_555
C3_3 H5_3 1_555 1_555
C4_3 C3_3 1_555 1_555
C7_3 C4_3 1_555 1_555
Ho16 O6_3 1_555 1_555
Cl4_3 C23_3 1_555 1_555
P3_3 O13_3 1_555 1_555
O45_2 C28_3 1_555 1_555
O6_3 C28_3 1_555 1_555
O16_3 P3_3 1_555 1_555
O17_3 Ho16 1_555 1_555
O21_3 Ho16 1_555 1_555
H4_3 O21_3 1_555 1_555
C23_3 C22_3 1_555 1_555
C24_3 C23_3 1_555 1_555
H14_3 C24_3 1_555 1_555
C25_3 C24_3 1_555 1_555
C26_3 C25_3 1_555 1_555
H15_3 C26_3 1_555 1_555
C27_3 C22_3 1_555 1_555
H16_3 C27_3 1_555 1_555
C28_3 C25_3 1_555 1_555
C36_3 O16_3 1_555 1_555
C37_3 C36_3 1_555 1_555
C38_3 C37_3 1_555 1_555
H20_3 C38_3 1_555 1_555
C39_3 C38_3 1_555 1_555
C40_3 C39_3 1_555 1_555
H21_3 C40_3 1_555 1_555
C41_3 C36_3 1_555 1_555
H22_3 C41_3 1_555 1_555
C42_3 O17_3 1_555 1_555
H24_3 O21_3 1_555 1_555
P3_3 N2_3 1_555 1_555
P3_3 N3_3 1_555 1_555
O18_3 C42_3 1_555 1_555
C26_3 C27_3 1_555 1_555
C39_3 C42_3 1_555 1_555
C40_3 C41_3 1_555 1_555
Ho9 O12_3 1_555 1_555
Cl2_3 C9_3 1_555 1_555
O11_2 C14_3 1_555 1_555
O12_3 C14_3 1_555 1_555
O19_3 Ho9 1_555 1_555
C8_3 O10_3 1_555 1_555
C9_3 C8_3 1_555 1_555
C10_3 C9_3 1_555 1_555
H8_3 C10_3 1_555 1_555
C11_3 C10_3 1_555 1_555
C12_3 C11_3 1_555 1_555
H9_3 C12_3 1_555 1_555
C13_3 C8_3 1_555 1_555
C14_3 C11_3 1_555 1_555
Ho13 O11_2 1_555 1_555
O55_2 Ho9 1_555 1_555
C12_3 C13_3 1_555 1_555
Ho9_2 O12_4 1_555 1_555
Ho16_2 O6_4 1_555 1_555
Cl2_4 C9_4 1_555 1_555
Cl6_4 C37_4 1_555 1_555
P3_4 O13_4 1_555 1_555
O5_2 C28_4 1_555 1_555
O6_4 C28_4 1_555 1_555
O52_2 C14_4 1_555 1_555
O12_4 C14_4 1_555 1_555
O16_4 P3_4 1_555 1_555
O17_4 Ho16_2 1_555 1_555
O18_4 Ho9_2 1_555 1_555
C8_4 O10_4 1_555 1_555
C9_4 C8_4 1_555 1_555
C10_4 C9_4 1_555 1_555
H8_4 C10_4 1_555 1_555
C11_4 C10_4 1_555 1_555
C12_4 C11_4 1_555 1_555
H9_4 C12_4 1_555 1_555
C13_4 C8_4 1_555 1_555
H10_4 C13_4 1_555 1_555
C14_4 C11_4 1_555 1_555
C23_4 C22_4 1_555 1_555
C24_4 C23_4 1_555 1_555
C25_4 C24_4 1_555 1_555
C26_4 C25_4 1_555 1_555
H15_4 C26_4 1_555 1_555
C27_4 C22_4 1_555 1_555
H16_4 C27_4 1_555 1_555
C28_4 C25_4 1_555 1_555
C36_4 O16_4 1_555 1_555
C37_4 C36_4 1_555 1_555
C38_4 C37_4 1_555 1_555
H20_4 C38_4 1_555 1_555
C39_4 C38_4 1_555 1_555
C40_4 C39_4 1_555 1_555
H21_4 C40_4 1_555 1_555
C41_4 C36_4 1_555 1_555
H22_4 C41_4 1_555 1_555
C42_4 O17_4 1_555 1_555
O46_2 Ho9_2 1_555 1_555
O47_2 Ho16_2 1_555 1_555
O56_2 Ho16_2 1_555 1_555
P3_4 N2_4 1_555 1_555
P3_4 N3_4 1_555 1_555
O18_4 C42_4 1_555 1_555
C12_4 C13_4 1_555 1_555
C26_4 C27_4 1_555 1_555
C39_4 C42_4 1_555 1_555
C40_4 C41_4 1_555 1_555
H1_4 O19_4 1_555 1_555
H2_4 O19_4 1_555 1_555
H4_4 O21_4 1_555 1_555
H24_4 O21_4 1_555 1_555
Ho10_2 O33_4 1_555 1_555
Cl7_4 C44_4 1_555 1_555
Cl8_4 C51_4 1_555 1_555
O28_4 C43_4 1_555 1_555
O49_2 C49_4 1_555 1_555
O51_2 C49_4 1_555 1_555
O53_2 C56_4 1_555 1_555
O33_4 C56_4 1_555 1_555
C43_4 C44_4 1_555 1_555
C44_4 C45_4 1_555 1_555
C45_4 H27_4 1_555 1_555
C46_4 C45_4 1_555 1_555
C49_4 C46_4 1_555 1_555
C50_4 O31_4 1_555 1_555
C51_4 C50_4 1_555 1_555
C52_4 C51_4 1_555 1_555
H30_4 C52_4 1_555 1_555
C53_4 C52_4 1_555 1_555
C54_4 C53_4 1_555 1_555
H31_4 C54_4 1_555 1_555
C55_4 C50_4 1_555 1_555
C56_4 C53_4 1_555 1_555
C54_4 C55_4 1_555 1_555
Ho13 O15_4 1_555 1_555
Cl1_4 C2_4 1_555 1_555
Cl3_4 C16_4 1_555 1_555
Cl5_4 C30_4 1_555 1_555
P1_4 O7_4 1_555 1_555
P2_4 O1_4 1_555 1_555
O1_4 C15_4 1_555 1_555
O4_4 P2_4 1_555 1_555
O7_4 C1_4 1_555 1_555
O48_2 C7_4 1_555 1_555
O50_2 C7_4 1_555 1_555
O54_2 C35_4 1_555 1_555
O15_4 C35_4 1_555 1_555
O20_4 Ho13 1_555 1_555
H3_4 O20_4 1_555 1_555
N1_4 P1_4 1_555 1_555
C1_4 C2_4 1_555 1_555
C2_4 C3_4 1_555 1_555
C3_4 H5_4 1_555 1_555
C4_4 C3_4 1_555 1_555
C5_4 C4_4 1_555 1_555
H6_4 C5_4 1_555 1_555
C6_4 C1_4 1_555 1_555
H7_4 C6_4 1_555 1_555
C7_4 C4_4 1_555 1_555
C15_4 C16_4 1_555 1_555
C16_4 C17_4 1_555 1_555
C17_4 H11_4 1_555 1_555
C18_4 C17_4 1_555 1_555
C19_4 C18_4 1_555 1_555
C20_4 C15_4 1_555 1_555
H13_4 C20_4 1_555 1_555
C29_4 C30_4 1_555 1_555
C30_4 C31_4 1_555 1_555
C31_4 H17_4 1_555 1_555
C32_4 C31_4 1_555 1_555
C33_4 C32_4 1_555 1_555
H18_4 C33_4 1_555 1_555
C34_4 C29_4 1_555 1_555
H19_4 C34_4 1_555 1_555
C35_4 C32_4 1_555 1_555
H23_4 O20_4 1_555 1_555
Cl9_4 C58_4 1_555 1_555
Cl11_4 C72_4 1_555 1_555
P5_4 O22_4 1_555 1_555
P6_4 O34_4 1_555 1_555
O22_4 C57_4 1_555 1_555
O25_4 P5_4 1_555 1_555
O46_2 C70_4 1_555 1_555
O47_2 C70_4 1_555 1_555
O34_4 C71_4 1_555 1_555
O55_2 C77_4 1_555 1_555
O36_4 Ho13 1_555 1_555
O37_4 P6_4 1_555 1_555
O56_2 C84_4 1_555 1_555
N4_4 P4_4 1_555 1_555
N5_4 P5_4 1_555 1_555
N6_4 P4_4 1_555 1_555
H28_4 C47_4 1_555 1_555
H29_4 C48_4 1_555 1_555
C57_4 C58_4 1_555 1_555
C58_4 C59_4 1_555 1_555
C59_4 H33_4 1_555 1_555
C60_4 C59_4 1_555 1_555
C61_4 C60_4 1_555 1_555
C62_4 C57_4 1_555 1_555
H35_4 C62_4 1_555 1_555
C64_4 O25_4 1_555 1_555
C65_4 C64_4 1_555 1_555
C66_4 C65_4 1_555 1_555
C67_4 C66_4 1_555 1_555
C68_4 C67_4 1_555 1_555
H37_4 C68_4 1_555 1_555
C69_4 C64_4 1_555 1_555
H38_4 C69_4 1_555 1_555
C70_4 C67_4 1_555 1_555
C71_4 C72_4 1_555 1_555
C72_4 C73_4 1_555 1_555
C73_4 H39_4 1_555 1_555
C74_4 C73_4 1_555 1_555
C75_4 C74_4 1_555 1_555
H40_4 C75_4 1_555 1_555
C76_4 C71_4 1_555 1_555
H41_4 C76_4 1_555 1_555
C77_4 O36_4 1_555 1_555
C78_4 O37_4 1_555 1_555
C79_4 C78_4 1_555 1_555
C80_4 C79_4 1_555 1_555
H42_4 C80_4 1_555 1_555
C81_4 C80_4 1_555 1_555
C82_4 C81_4 1_555 1_555
H43_4 C82_4 1_555 1_555
C83_4 C78_4 1_555 1_555
H44_4 C83_4 1_555 1_555
C84_4 O39_4 1_555 1_555
P2_4 N1_4 1_555 1_555
C5_4 C6_4 1_555 1_555
C19_4 C20_4 1_555 1_555
C33_4 C34_4 1_555 1_555
P5_4 N4_4 1_555 1_555
P6_4 N5_4 1_555 1_555
P6_4 N6_4 1_555 1_555
C47_4 C48_4 1_555 1_555
C61_4 C62_4 1_555 1_555
C68_4 C69_4 1_555 1_555
C74_4 C77_4 1_555 1_555
C75_4 C76_4 1_555 1_555
C81_4 C84_4 1_555 1_555
C82_4 C83_4 1_555 1_555
O41_2 C21_4 1_555 1_555
O43 C21_4 1_555 1_555
O42_2 C63_4 1_555 1_555
O44 C63_4 1_555 1_555

#END
