
###############################################################################
#
# This file contains modified crystal structure data generated from the
# MOF subset of the Cambridge Structural Database (CSD) v543 
# hosted by the Cambridge Crystallographic Data Centre (CCDC).
#
# This work is licensed under the Creative Commons
# Attribution-NonCommercial-ShareAlike 4.0 International License.
# To view a copy of this license, visit
# http://creativecommons.org/licenses/by-nc-sa/4.0/
# or send a letter to
# Creative Commons, PO Box 1866, Mountain View, CA 94042, USA.
#
# CIF created using the CSD Python API on 29 September 2022
# The structure has been converted into the P1 space group
# The structure has a 3D framework
# The original CSD entry UDONIN is in the monoclinic crystal system
# The framework has been calculated to contain at least 10.0% void space
# The void calculation uses a probe of radius 1.32A, grid spacing 0.4
#
###############################################################################

data_UDONIN
_chemical_formula_moiety         '(C208 H144 N16 O44 Zn16)n'
_symmetry_cell_setting           triclinic
_symmetry_space_group_name_H-M   'P 1'
_symmetry_Int_Tables_number      1
_space_group_name_Hall           'P 1'
loop_
_symmetry_equiv_pos_site_id
_symmetry_equiv_pos_as_xyz
1 x,y,z
_cell_length_a                   26.526(14)
_cell_length_b                   11.786(6)
_cell_length_c                   23.694(12)
_cell_angle_alpha                90
_cell_angle_beta                 121.250(9)
_cell_angle_gamma                90
_cell_volume                     6332.83
loop_
_atom_site_label
_atom_site_type_symbol
_atom_site_fract_x
_atom_site_fract_y
_atom_site_fract_z
Zn1 Zn 0.28223(3) 0.14357(5) 0.24106(3)
O2 O 0.69135(17) 0.3431(3) 0.66766(19)
O3 O 0.64195(19) 0.5028(3) 0.6169(2)
O4 O 0.31007(17) 0.3110(3) 0.26048(19)
N1 N 0.37160(19) 0.0884(4) 0.3172(2)
N2 N 0.3046(2) 0.1801(4) 0.1668(2)
C4 C 0.4853(3) 0.0082(5) 0.3932(3)
C5 C 0.4727(2) 0.1163(5) 0.4062(3)
C6 C 0.4142(2) 0.1524(5) 0.3650(3)
H5 H 0.404197 0.226810 0.371194
C7 C 0.5176(3) 0.1915(5) 0.4611(3)
C8 C 0.5655(3) 0.1420(5) 0.5143(3)
H6 H 0.570230 0.061911 0.515916
C9 C 0.6072(3) 0.2094(5) 0.5660(3)
H7 H 0.640165 0.174084 0.602645
C10 C 0.6019(3) 0.3246(5) 0.5654(3)
C11 C 0.5547(4) 0.3739(6) 0.5096(5)
H8 H 0.550781 0.454097 0.506831
C12 C 0.5130(4) 0.3069(6) 0.4576(4)
H9 H 0.481322 0.341931 0.419593
C13 C 0.6489(3) 0.3959(5) 0.6214(3)
C14 C 0.3449(3) 0.3487(5) 0.2344(3)
H10 H 0.387105 0.345733 0.269592
H11 H 0.334961 0.428689 0.220075
C15 C 0.3354(3) 0.2775(5) 0.1766(3)
C16 C 0.3569(3) 0.3064(5) 0.1347(3)
H12 H 0.378639 0.374614 0.142140
C17 C 0.3466(3) 0.2360(6) 0.0833(3)
H13 H 0.361304 0.254745 0.055488
C18 C 0.3140(3) 0.1364(5) 0.0726(3)
C19 C 0.2938(3) 0.1123(5) 0.1161(3)
H14 H 0.271519 0.045104 0.109188
C20 C 0.3022(3) 0.0531(5) 0.0188(3)
Zn4 Zn 0.78223(3) 0.35643(5) 0.74106(3)
Zn5 Zn 0.29461(3) 0.39462(5) 0.32058(3)
Zn7 Zn 0.70539(3) 0.60538(5) 0.67942(3)
O7 O 0.19135(17) 0.1569(3) 0.16766(19)
O11 O 0.25117(18) 0.1486(4) 0.30778(19)
Zn2 Zn 0.20539(3) 0.89462(5) 0.17942(3)
O1 O 0.28012(15) 0.9738(3) 0.22404(19)
C1 C 0.3340(2) 0.9130(5) 0.2549(3)
H1 H 0.343223 0.889993 0.221029
H2 H 0.329564 0.843278 0.275166
C2 C 0.3848(2) 0.9827(5) 0.3076(3)
C3 C 0.4423(3) 0.9406(5) 0.3446(3)
H3 H 0.451499 0.866788 0.336517
H4 H 0.524553 0.980298 0.418469
C21 C 0.3052(4) 0.9377(6) 0.0299(3)
H15 H 0.312987 0.910402 0.071375
O8 O 0.14195(19) 0.9972(3) 0.1169(2)
O9 O 0.18993(17) 0.8110(3) 0.23952(19)
O10 O 0.20369(19) 0.7829(3) 0.11429(19)
O5 O 0.29631(19) 0.7171(3) 0.88571(19)
O6 O 0.25117(18) 0.8514(4) 0.80778(19)
C22 C 0.2971(4) 0.8602(5) 0.9814(3)
H16 H 0.300888 0.781241 0.990720
C23 C 0.2835(3) 0.8982(5) 0.9189(3)
C26 C 0.2762(2) 0.8172(5) 0.8667(3)
Zn3 Zn 0.28223(3) 0.85643(5) 0.74106(3)
Zn6 Zn 0.29461(3) 0.60538(5) 0.82058(3)
Zn1_2 Zn 0.71777(3) 0.14357(5) 0.25894(3)
O4_2 O 0.68993(17) 0.3110(3) 0.23952(19)
N1_2 N 0.62840(19) 0.0884(4) 0.1828(2)
N2_2 N 0.6954(2) 0.1801(4) 0.3332(2)
C4_2 C 0.5147(3) 0.0082(5) 0.1068(3)
C5_2 C 0.5273(2) 0.1163(5) 0.0938(3)
C6_2 C 0.5858(2) 0.1524(5) 0.1350(3)
H5_2 H 0.595803 0.226810 0.128806
C7_2 C 0.4824(3) 0.1915(5) 0.0389(3)
C12_2 C 0.4870(4) 0.3069(6) 0.0424(4)
H9_2 H 0.518678 0.341931 0.080407
C14_2 C 0.6551(3) 0.3487(5) 0.2656(3)
H10_2 H 0.612895 0.345733 0.230408
H11_2 H 0.665039 0.428689 0.279925
C15_2 C 0.6646(3) 0.2775(5) 0.3234(3)
C16_2 C 0.6431(3) 0.3064(5) 0.3653(3)
H12_2 H 0.621361 0.374614 0.357860
C17_2 C 0.6534(3) 0.2360(6) 0.4167(3)
H13_2 H 0.638696 0.254745 0.444512
C18_2 C 0.6860(3) 0.1364(5) 0.4274(3)
C19_2 C 0.7062(3) 0.1123(5) 0.3839(3)
H14_2 H 0.728481 0.045104 0.390812
C20_2 C 0.6978(3) 0.0531(5) 0.4812(3)
C24 C 0.7216(3) 0.0145(5) 0.5933(3)
H17 H 0.731536 0.041882 0.635597
C25 C 0.7123(3) 0.0914(5) 0.5436(3)
H18 H 0.715765 0.170507 0.552532
Zn5_2 Zn 0.70539(3) 0.39462(5) 0.17942(3)
O7_2 O 0.80865(17) 0.1569(3) 0.33234(19)
O11_2 O 0.74883(18) 0.1486(4) 0.19222(19)
O2_2 O 0.30865(17) 0.3431(3) 0.83234(19)
O3_2 O 0.35805(19) 0.5028(3) 0.8831(2)
C8_2 C 0.4345(3) 0.1420(5) 0.9857(3)
H6_2 H 0.429770 0.061911 0.984084
C9_2 C 0.3928(3) 0.2094(5) 0.9340(3)
H7_2 H 0.359835 0.174084 0.897355
C10_2 C 0.3981(3) 0.3246(5) 0.9346(3)
C11_2 C 0.4453(4) 0.3739(6) 0.9904(5)
H8_2 H 0.449219 0.454097 0.993169
C13_2 C 0.3511(3) 0.3959(5) 0.8786(3)
Zn4_2 Zn 0.21777(3) 0.35643(5) 0.75894(3)
Zn2_2 Zn 0.79461(3) 0.89462(5) 0.32058(3)
O1_2 O 0.71988(15) 0.9738(3) 0.27596(19)
O5_2 O 0.70369(19) 0.7171(3) 0.61429(19)
O6_2 O 0.74883(18) 0.8514(4) 0.69222(19)
C1_2 C 0.6660(2) 0.9130(5) 0.2451(3)
H1_2 H 0.656777 0.889993 0.278971
H2_2 H 0.670436 0.843278 0.224834
C2_2 C 0.6152(2) 0.9827(5) 0.1924(3)
C3_2 C 0.5577(3) 0.9406(5) 0.1554(3)
H3_2 H 0.548501 0.866788 0.163483
H4_2 H 0.475447 0.980298 0.081531
C21_2 C 0.6948(4) 0.9377(6) 0.4701(3)
H15_2 H 0.687013 0.910402 0.428625
C22_2 C 0.7029(4) 0.8602(5) 0.5186(3)
H16_2 H 0.699112 0.781241 0.509280
C23_2 C 0.7165(3) 0.8982(5) 0.5811(3)
C26_2 C 0.7238(2) 0.8172(5) 0.6333(3)
Zn3_2 Zn 0.71777(3) 0.85643(5) 0.75894(3)
O8_2 O 0.85805(19) 0.9972(3) 0.3831(2)
O9_2 O 0.81007(17) 0.8110(3) 0.26048(19)
O10_2 O 0.79631(19) 0.7829(3) 0.38571(19)
O3_3 O 0.14195(19) 0.0028(3) 0.6169(2)
Zn7_2 Zn 0.20539(3) 0.10538(5) 0.67942(3)
O2_3 O 0.19135(17) 0.8431(3) 0.66766(19)
H4_3 H 0.024553 0.480298 0.418469
C7_3 C 0.0176(3) 0.6915(5) 0.4611(3)
C8_3 C 0.0655(3) 0.6420(5) 0.5143(3)
H6_3 H 0.070230 0.561911 0.515916
C9_3 C 0.1072(3) 0.7094(5) 0.5660(3)
H7_3 H 0.140165 0.674084 0.602645
C10_3 C 0.1019(3) 0.8246(5) 0.5654(3)
C11_3 C 0.0547(4) 0.8739(6) 0.5096(5)
H8_3 H 0.050781 0.954097 0.506831
C12_3 C 0.0130(4) 0.8069(6) 0.4576(4)
C13_3 C 0.1489(3) 0.8959(5) 0.6214(3)
Zn1_3 Zn 0.78223(3) 0.64357(5) 0.24106(3)
O1_3 O 0.78012(15) 0.4738(3) 0.22404(19)
N1_3 N 0.87160(19) 0.5884(4) 0.3172(2)
N2_3 N 0.8046(2) 0.6801(4) 0.1668(2)
C1_3 C 0.8340(2) 0.4130(5) 0.2549(3)
H1_3 H 0.843223 0.389993 0.221029
H2_3 H 0.829564 0.343278 0.275166
C2_3 C 0.8848(2) 0.4827(5) 0.3076(3)
C3_3 C 0.9423(3) 0.4406(5) 0.3446(3)
H3_3 H 0.951499 0.366788 0.336517
C4_3 C 0.9853(3) 0.5082(5) 0.3932(3)
C5_3 C 0.9727(2) 0.6163(5) 0.4062(3)
C6_3 C 0.9142(2) 0.6524(5) 0.3650(3)
H5_3 H 0.904197 0.726810 0.371194
H9_3 H 0.981322 0.841931 0.419593
C14_3 C 0.8449(3) 0.8487(5) 0.2344(3)
H10_3 H 0.887105 0.845733 0.269592
H11_3 H 0.834961 0.928689 0.220075
C15_3 C 0.8354(3) 0.7775(5) 0.1766(3)
C16_3 C 0.8569(3) 0.8064(5) 0.1347(3)
H12_3 H 0.878639 0.874614 0.142140
C17_3 C 0.8466(3) 0.7360(6) 0.0833(3)
H13_3 H 0.861304 0.754745 0.055488
C18_3 C 0.8140(3) 0.6364(5) 0.0726(3)
C19_3 C 0.7938(3) 0.6123(5) 0.1161(3)
H14_3 H 0.771519 0.545104 0.109188
C20_3 C 0.8022(3) 0.5531(5) 0.0188(3)
C21_3 C 0.8052(4) 0.4377(6) 0.0299(3)
H15_3 H 0.812987 0.410402 0.071375
O7_3 O 0.69135(17) 0.6569(3) 0.16766(19)
O8_3 O 0.64195(19) 0.4972(3) 0.1169(2)
O10_3 O 0.70369(19) 0.2829(3) 0.11429(19)
O11_3 O 0.75117(18) 0.6486(4) 0.30778(19)
O5_3 O 0.79631(19) 0.2171(3) 0.88571(19)
O6_3 O 0.75117(18) 0.3514(4) 0.80778(19)
C22_3 C 0.7971(4) 0.3602(5) 0.9814(3)
H16_3 H 0.800888 0.281241 0.990720
C23_3 C 0.7835(3) 0.3982(5) 0.9189(3)
C24_2 C 0.7784(3) 0.5145(5) 0.9067(3)
H17_2 H 0.768464 0.541882 0.864403
C25_2 C 0.7877(3) 0.5914(5) 0.9564(3)
H18_2 H 0.784235 0.670507 0.947468
C26_3 C 0.7762(2) 0.3172(5) 0.8667(3)
Zn6_2 Zn 0.79461(3) 0.10538(5) 0.82058(3)
Zn1_4 Zn 0.21777(3) 0.64357(5) 0.25894(3)
O1_4 O 0.21988(15) 0.4738(3) 0.27596(19)
O5_4 O 0.20369(19) 0.2171(3) 0.61429(19)
O6_4 O 0.24883(18) 0.3514(4) 0.69222(19)
N1_4 N 0.12840(19) 0.5884(4) 0.1828(2)
N2_4 N 0.1954(2) 0.6801(4) 0.3332(2)
C1_4 C 0.1660(2) 0.4130(5) 0.2451(3)
H1_4 H 0.156777 0.389993 0.278971
H2_4 H 0.170436 0.343278 0.224834
C2_4 C 0.1152(2) 0.4827(5) 0.1924(3)
C3_4 C 0.0577(3) 0.4406(5) 0.1554(3)
H3_4 H 0.048501 0.366788 0.163483
C4_4 C 0.0147(3) 0.5082(5) 0.1068(3)
C5_4 C 0.0273(2) 0.6163(5) 0.0938(3)
C6_4 C 0.0858(2) 0.6524(5) 0.1350(3)
H5_4 H 0.095803 0.726810 0.128806
H9_4 H 0.018678 0.841931 0.080407
C14_4 C 0.1551(3) 0.8487(5) 0.2656(3)
H10_4 H 0.112895 0.845733 0.230408
H11_4 H 0.165039 0.928689 0.279925
C15_4 C 0.1646(3) 0.7775(5) 0.3234(3)
C16_4 C 0.1431(3) 0.8064(5) 0.3653(3)
H12_4 H 0.121361 0.874614 0.357860
C17_4 C 0.1534(3) 0.7360(6) 0.4167(3)
H13_4 H 0.138696 0.754745 0.444512
C18_4 C 0.1860(3) 0.6364(5) 0.4274(3)
C19_4 C 0.2062(3) 0.6123(5) 0.3839(3)
H14_4 H 0.228481 0.545104 0.390812
C20_4 C 0.1978(3) 0.5531(5) 0.4812(3)
C21_4 C 0.1948(4) 0.4377(6) 0.4701(3)
H15_4 H 0.187013 0.410402 0.428625
C22_4 C 0.2029(4) 0.3602(5) 0.5186(3)
H16_4 H 0.199112 0.281241 0.509280
C23_4 C 0.2165(3) 0.3982(5) 0.5811(3)
C24_3 C 0.2216(3) 0.5145(5) 0.5933(3)
H17_3 H 0.231536 0.541882 0.635597
C25_3 C 0.2123(3) 0.5914(5) 0.5436(3)
H18_3 H 0.215765 0.670507 0.552532
C26_4 C 0.2238(2) 0.3172(5) 0.6333(3)
O7_4 O 0.30865(17) 0.6569(3) 0.33234(19)
O8_4 O 0.35805(19) 0.4972(3) 0.3831(2)
O10_4 O 0.29631(19) 0.2829(3) 0.38571(19)
O11_4 O 0.24883(18) 0.6486(4) 0.19222(19)
O3_4 O 0.85805(19) 0.0028(3) 0.8831(2)
O2_4 O 0.80865(17) 0.8431(3) 0.83234(19)
C8_4 C 0.9345(3) 0.6420(5) 0.9857(3)
H6_4 H 0.929770 0.561911 0.984084
C9_4 C 0.8928(3) 0.7094(5) 0.9340(3)
H7_4 H 0.859835 0.674084 0.897355
C10_4 C 0.8981(3) 0.8246(5) 0.9346(3)
C11_4 C 0.9453(4) 0.8739(6) 0.9904(5)
H8_4 H 0.949219 0.954097 0.993169
C13_4 C 0.8511(3) 0.8959(5) 0.8786(3)
C22_5 C 0.7029(4) 0.1398(5) 0.0186(3)
H16_5 H 0.699112 0.218759 0.009280
C23_5 C 0.7165(3) 0.1018(5) 0.0811(3)
C26_5 C 0.7238(2) 0.1828(5) 0.1333(3)
O1_5 O 0.71988(15) 0.0262(3) 0.77596(19)
C1_5 C 0.6660(2) 0.0870(5) 0.7451(3)
H1_5 H 0.656777 0.110007 0.778971
H2_5 H 0.670436 0.156722 0.724834
C2_5 C 0.6152(2) 0.0173(5) 0.6924(3)
C3_5 C 0.5577(3) 0.0594(5) 0.6554(3)
H3_5 H 0.548501 0.133212 0.663483
H4_4 H 0.475447 0.019702 0.581531
C21_5 C 0.6948(4) 0.0623(6) 0.9701(3)
H15_5 H 0.687013 0.089598 0.928625
O9_3 O 0.81007(17) 0.1890(3) 0.76048(19)
O4_3 O 0.68993(17) 0.6890(3) 0.73952(19)
N1_5 N 0.62840(19) 0.9116(4) 0.6828(2)
N2_5 N 0.6954(2) 0.8199(4) 0.8332(2)
C4_5 C 0.5147(3) 0.9918(5) 0.6068(3)
C5_5 C 0.5273(2) 0.8837(5) 0.5938(3)
C6_5 C 0.5858(2) 0.8476(5) 0.6350(3)
H5_5 H 0.595803 0.773190 0.628806
C7_4 C 0.4824(3) 0.8085(5) 0.5389(3)
C8_5 C 0.4345(3) 0.8580(5) 0.4857(3)
H6_5 H 0.429770 0.938089 0.484084
C9_5 C 0.3928(3) 0.7906(5) 0.4340(3)
H7_5 H 0.359835 0.825916 0.397355
C10_5 C 0.3981(3) 0.6754(5) 0.4346(3)
C11_5 C 0.4453(4) 0.6261(6) 0.4904(5)
H8_5 H 0.449219 0.545903 0.493169
C12_4 C 0.4870(4) 0.6931(6) 0.5424(4)
H9_5 H 0.518678 0.658069 0.580407
C13_5 C 0.3511(3) 0.6041(5) 0.3786(3)
C14_5 C 0.6551(3) 0.6513(5) 0.7656(3)
H10_5 H 0.612895 0.654267 0.730408
H11_5 H 0.665039 0.571311 0.779925
C15_5 C 0.6646(3) 0.7225(5) 0.8234(3)
C16_5 C 0.6431(3) 0.6936(5) 0.8653(3)
H12_5 H 0.621361 0.625386 0.857860
C17_5 C 0.6534(3) 0.7640(6) 0.9167(3)
H13_5 H 0.638696 0.745255 0.944512
C18_5 C 0.6860(3) 0.8636(5) 0.9274(3)
C19_5 C 0.7062(3) 0.8877(5) 0.8839(3)
H14_5 H 0.728481 0.954896 0.890812
C20_5 C 0.6978(3) 0.9469(5) 0.9812(3)
O1_6 O 0.28012(15) 0.0262(3) 0.72404(19)
C1_6 C 0.3340(2) 0.0870(5) 0.7549(3)
H1_6 H 0.343223 0.110007 0.721029
H2_6 H 0.329564 0.156722 0.775166
C2_6 C 0.3848(2) 0.0173(5) 0.8076(3)
C3_6 C 0.4423(3) 0.0594(5) 0.8446(3)
H3_6 H 0.451499 0.133212 0.836517
H4_5 H 0.524553 0.019702 0.918469
C21_6 C 0.3052(4) 0.0623(6) 0.5299(3)
H15_6 H 0.312987 0.089598 0.571375
C22_6 C 0.2971(4) 0.1398(5) 0.4814(3)
H16_6 H 0.300888 0.218759 0.490720
C23_6 C 0.2835(3) 0.1018(5) 0.4189(3)
C26_6 C 0.2762(2) 0.1828(5) 0.3667(3)
O9_4 O 0.18993(17) 0.1890(3) 0.73952(19)
C8_6 C 0.5655(3) 0.8580(5) 0.0143(3)
H6_6 H 0.570230 0.938089 0.015916
C9_6 C 0.6072(3) 0.7906(5) 0.0660(3)
H7_6 H 0.640165 0.825916 0.102645
C10_6 C 0.6019(3) 0.6754(5) 0.0654(3)
C11_6 C 0.5547(4) 0.6261(6) 0.0096(5)
H8_6 H 0.550781 0.545903 0.006831
C13_6 C 0.6489(3) 0.6041(5) 0.1214(3)
O4_4 O 0.31007(17) 0.6890(3) 0.76048(19)
N1_6 N 0.37160(19) 0.9116(4) 0.8172(2)
N2_6 N 0.3046(2) 0.8199(4) 0.6668(2)
C4_6 C 0.4853(3) 0.9918(5) 0.8932(3)
C5_6 C 0.4727(2) 0.8837(5) 0.9062(3)
C6_6 C 0.4142(2) 0.8476(5) 0.8650(3)
H5_6 H 0.404197 0.773190 0.871194
C7_5 C 0.5176(3) 0.8085(5) 0.9611(3)
C12_5 C 0.5130(4) 0.6931(6) 0.9576(4)
H9_6 H 0.481322 0.658069 0.919593
C14_6 C 0.3449(3) 0.6513(5) 0.7344(3)
H10_6 H 0.387105 0.654267 0.769592
H11_6 H 0.334961 0.571311 0.720075
C15_6 C 0.3354(3) 0.7225(5) 0.6766(3)
C16_6 C 0.3569(3) 0.6936(5) 0.6347(3)
H12_6 H 0.378639 0.625386 0.642140
C17_6 C 0.3466(3) 0.7640(6) 0.5833(3)
H13_6 H 0.361304 0.745255 0.555488
C18_6 C 0.3140(3) 0.8636(5) 0.5726(3)
C19_6 C 0.2938(3) 0.8877(5) 0.6161(3)
H14_6 H 0.271519 0.954896 0.609188
C20_6 C 0.3022(3) 0.9469(5) 0.5188(3)
C24_4 C 0.2784(3) 0.9855(5) 0.4067(3)
H17_4 H 0.268464 0.958118 0.364403
C25_4 C 0.2877(3) 0.9086(5) 0.4564(3)
H18_4 H 0.284235 0.829493 0.447468
C22_7 C 0.2029(4) 0.6398(5) 0.0186(3)
H16_7 H 0.199112 0.718759 0.009280
C23_7 C 0.2165(3) 0.6018(5) 0.0811(3)
C24_5 C 0.2216(3) 0.4855(5) 0.0933(3)
H17_5 H 0.231536 0.458118 0.135597
C25_5 C 0.2123(3) 0.4086(5) 0.0436(3)
H18_5 H 0.215765 0.329493 0.052532
C26_7 C 0.2238(2) 0.6828(5) 0.1333(3)
O1_7 O 0.21988(15) 0.5262(3) 0.77596(19)
N1_7 N 0.12840(19) 0.4116(4) 0.6828(2)
N2_7 N 0.1954(2) 0.3199(4) 0.8332(2)
C1_7 C 0.1660(2) 0.5870(5) 0.7451(3)
H1_7 H 0.156777 0.610007 0.778971
H2_7 H 0.170436 0.656722 0.724834
C2_7 C 0.1152(2) 0.5173(5) 0.6924(3)
C3_7 C 0.0577(3) 0.5594(5) 0.6554(3)
H3_7 H 0.048501 0.633212 0.663483
C4_7 C 0.0147(3) 0.4918(5) 0.6068(3)
C5_7 C 0.0273(2) 0.3837(5) 0.5938(3)
C6_7 C 0.0858(2) 0.3476(5) 0.6350(3)
H5_7 H 0.095803 0.273190 0.628806
H9_7 H 0.018678 0.158069 0.580407
C14_7 C 0.1551(3) 0.1513(5) 0.7656(3)
H10_7 H 0.112895 0.154267 0.730408
H11_7 H 0.165039 0.071311 0.779925
C15_7 C 0.1646(3) 0.2225(5) 0.8234(3)
C16_7 C 0.1431(3) 0.1936(5) 0.8653(3)
H12_7 H 0.121361 0.125386 0.857860
C17_7 C 0.1534(3) 0.2640(6) 0.9167(3)
H13_7 H 0.138696 0.245255 0.944512
C18_7 C 0.1860(3) 0.3636(5) 0.9274(3)
C19_7 C 0.2062(3) 0.3877(5) 0.8839(3)
H14_7 H 0.228481 0.454896 0.890812
C20_7 C 0.1978(3) 0.4469(5) 0.9812(3)
C21_7 C 0.1948(4) 0.5623(6) 0.9701(3)
H15_7 H 0.187013 0.589598 0.928625
H4_6 H 0.975447 0.519702 0.581531
C7_6 C 0.9824(3) 0.3085(5) 0.5389(3)
C8_7 C 0.9345(3) 0.3580(5) 0.4857(3)
H6_7 H 0.929770 0.438089 0.484084
C9_7 C 0.8928(3) 0.2906(5) 0.4340(3)
H7_7 H 0.859835 0.325916 0.397355
C10_7 C 0.8981(3) 0.1754(5) 0.4346(3)
C11_7 C 0.9453(4) 0.1261(6) 0.4904(5)
H8_7 H 0.949219 0.045903 0.493169
C12_6 C 0.9870(4) 0.1931(6) 0.5424(4)
C13_7 C 0.8511(3) 0.1041(5) 0.3786(3)
C8_8 C 0.0655(3) 0.3580(5) 0.0143(3)
H6_8 H 0.070230 0.438089 0.015916
C9_8 C 0.1072(3) 0.2906(5) 0.0660(3)
H7_8 H 0.140165 0.325916 0.102645
C10_8 C 0.1019(3) 0.1754(5) 0.0654(3)
C11_8 C 0.0547(4) 0.1261(6) 0.0096(5)
H8_8 H 0.050781 0.045903 0.006831
C13_8 C 0.1489(3) 0.1041(5) 0.1214(3)
O1_8 O 0.78012(15) 0.5262(3) 0.72404(19)
N1_8 N 0.87160(19) 0.4116(4) 0.8172(2)
N2_8 N 0.8046(2) 0.3199(4) 0.6668(2)
C1_8 C 0.8340(2) 0.5870(5) 0.7549(3)
H1_8 H 0.843223 0.610007 0.721029
H2_8 H 0.829564 0.656722 0.775166
C2_8 C 0.8848(2) 0.5173(5) 0.8076(3)
C3_8 C 0.9423(3) 0.5594(5) 0.8446(3)
H3_8 H 0.951499 0.633212 0.836517
C4_8 C 0.9853(3) 0.4918(5) 0.8932(3)
C5_8 C 0.9727(2) 0.3837(5) 0.9062(3)
C6_8 C 0.9142(2) 0.3476(5) 0.8650(3)
H5_8 H 0.904197 0.273190 0.871194
H9_8 H 0.981322 0.158069 0.919593
C14_8 C 0.8449(3) 0.1513(5) 0.7344(3)
H10_8 H 0.887105 0.154267 0.769592
H11_8 H 0.834961 0.071311 0.720075
C15_8 C 0.8354(3) 0.2225(5) 0.6766(3)
C16_8 C 0.8569(3) 0.1936(5) 0.6347(3)
H12_8 H 0.878639 0.125386 0.642140
C17_8 C 0.8466(3) 0.2640(6) 0.5833(3)
H13_8 H 0.861304 0.245255 0.555488
C18_8 C 0.8140(3) 0.3636(5) 0.5726(3)
C19_8 C 0.7938(3) 0.3877(5) 0.6161(3)
H14_8 H 0.771519 0.454896 0.609188
C20_8 C 0.8022(3) 0.4469(5) 0.5188(3)
C21_8 C 0.8052(4) 0.5623(6) 0.5299(3)
H15_8 H 0.812987 0.589598 0.571375
C22_8 C 0.7971(4) 0.6398(5) 0.4814(3)
H16_8 H 0.800888 0.718759 0.490720
C23_8 C 0.7835(3) 0.6018(5) 0.4189(3)
C24_6 C 0.7784(3) 0.4855(5) 0.4067(3)
H17_6 H 0.768464 0.458118 0.364403
C25_6 C 0.7877(3) 0.4086(5) 0.4564(3)
H18_6 H 0.784235 0.329493 0.447468
C26_8 C 0.7762(2) 0.6828(5) 0.3667(3)
C24_7 C 0.2784(3) 0.0145(5) 0.9067(3)
H17_7 H 0.268464 0.041882 0.864403
C25_7 C 0.2877(3) 0.0914(5) 0.9564(3)
H18_7 H 0.284235 0.170507 0.947468
H4_7 H 0.975447 0.480298 0.081531
C7_7 C 0.9824(3) 0.6915(5) 0.0389(3)
C12_7 C 0.9870(4) 0.8069(6) 0.0424(4)
C24_8 C 0.7216(3) 0.9855(5) 0.0933(3)
H17_8 H 0.731536 0.958118 0.135597
C25_8 C 0.7123(3) 0.9086(5) 0.0436(3)
H18_8 H 0.715765 0.829493 0.052532
H4_8 H 0.024553 0.519702 0.918469
C7_8 C 0.0176(3) 0.3085(5) 0.9611(3)
C12_8 C 0.0130(4) 0.1931(6) 0.9576(4)
loop_
_geom_bond_atom_site_label_1
_geom_bond_atom_site_label_2
_geom_bond_site_symmetry_1
_geom_bond_site_symmetry_2
O2 C13 1_555 1_555
O3 C13 1_555 1_555
O4 Zn1 1_555 1_555
N1 Zn1 1_555 1_555
N2 Zn1 1_555 1_555
C5 C4 1_555 1_555
C6 N1 1_555 1_555
H5 C6 1_555 1_555
C7 C5 1_555 1_555
C8 C7 1_555 1_555
H6 C8 1_555 1_555
C9 C8 1_555 1_555
H7 C9 1_555 1_555
C10 C9 1_555 1_555
C11 C10 1_555 1_555
H8 C11 1_555 1_555
C12 C7 1_555 1_555
H9 C12 1_555 1_555
C13 C10 1_555 1_555
C14 O4 1_555 1_555
H10 C14 1_555 1_555
H11 C14 1_555 1_555
C15 N2 1_555 1_555
C16 C15 1_555 1_555
H12 C16 1_555 1_555
C17 C16 1_555 1_555
H13 C17 1_555 1_555
C18 C17 1_555 1_555
C19 N2 1_555 1_555
H14 C19 1_555 1_555
C20 C18 1_555 1_555
Zn4 O2 1_555 1_555
Zn5 O4 1_555 1_555
Zn7 O3 1_555 1_555
O7 Zn1 1_555 1_555
O11 Zn1 1_555 1_555
C5 C6 1_555 1_555
C11 C12 1_555 1_555
C14 C15 1_555 1_555
C18 C19 1_555 1_555
Zn2 O1 1_555 1_555
O1 C1 1_555 1_555
C1 H1 1_555 1_555
H2 C1 1_555 1_555
C3 C2 1_555 1_555
H3 C3 1_555 1_555
H15 C21 1_555 1_555
O8 Zn2 1_555 1_555
O9 Zn2 1_555 1_555
O10 Zn2 1_555 1_555
C1 C2 1_555 1_555
O5 C26 1_555 1_555
O6 C26 1_555 1_555
H16 C22 1_555 1_555
C23 C22 1_555 1_555
C26 C23 1_555 1_555
Zn3 O6 1_555 1_555
Zn6 O5 1_555 1_555
O4_2 Zn1_2 1_555 1_555
N1_2 Zn1_2 1_555 1_555
N2_2 Zn1_2 1_555 1_555
C5_2 C4_2 1_555 1_555
C6_2 N1_2 1_555 1_555
H5_2 C6_2 1_555 1_555
C7_2 C5_2 1_555 1_555
C12_2 C7_2 1_555 1_555
H9_2 C12_2 1_555 1_555
C14_2 O4_2 1_555 1_555
H10_2 C14_2 1_555 1_555
H11_2 C14_2 1_555 1_555
C15_2 N2_2 1_555 1_555
C16_2 C15_2 1_555 1_555
H12_2 C16_2 1_555 1_555
C17_2 C16_2 1_555 1_555
H13_2 C17_2 1_555 1_555
C18_2 C17_2 1_555 1_555
C19_2 N2_2 1_555 1_555
H14_2 C19_2 1_555 1_555
C20_2 C18_2 1_555 1_555
H17 C24 1_555 1_555
C25 C20_2 1_555 1_555
H18 C25 1_555 1_555
Zn5_2 O4_2 1_555 1_555
O7_2 Zn1_2 1_555 1_555
O11_2 Zn1_2 1_555 1_555
C5_2 C6_2 1_555 1_555
C14_2 C15_2 1_555 1_555
C18_2 C19_2 1_555 1_555
C24 C25 1_555 1_555
O2_2 C13_2 1_555 1_555
O3_2 C13_2 1_555 1_555
H6_2 C8_2 1_555 1_555
C9_2 C8_2 1_555 1_555
H7_2 C9_2 1_555 1_555
C10_2 C9_2 1_555 1_555
C11_2 C10_2 1_555 1_555
H8_2 C11_2 1_555 1_555
C13_2 C10_2 1_555 1_555
Zn4_2 O2_2 1_555 1_555
Zn6 O3_2 1_555 1_555
Zn2_2 O1_2 1_555 1_555
O1_2 C1_2 1_555 1_555
O5_2 C26_2 1_555 1_555
O6_2 C26_2 1_555 1_555
C1_2 H1_2 1_555 1_555
H2_2 C1_2 1_555 1_555
C3_2 C2_2 1_555 1_555
H3_2 C3_2 1_555 1_555
H15_2 C21_2 1_555 1_555
C22_2 C21_2 1_555 1_555
H16_2 C22_2 1_555 1_555
C23_2 C22_2 1_555 1_555
C26_2 C23_2 1_555 1_555
Zn3_2 O6_2 1_555 1_555
Zn7 O5_2 1_555 1_555
O8_2 Zn2_2 1_555 1_555
O9_2 Zn2_2 1_555 1_555
O10_2 Zn2_2 1_555 1_555
C1_2 C2_2 1_555 1_555
Zn7_2 O3_3 1_555 1_555
O2_3 C13_3 1_555 1_555
C8_3 C7_3 1_555 1_555
H6_3 C8_3 1_555 1_555
C9_3 C8_3 1_555 1_555
H7_3 C9_3 1_555 1_555
C10_3 C9_3 1_555 1_555
C11_3 C10_3 1_555 1_555
H8_3 C11_3 1_555 1_555
C12_3 C7_3 1_555 1_555
C13_3 C10_3 1_555 1_555
Zn3 O2_3 1_555 1_555
C11_3 C12_3 1_555 1_555
Zn1_3 O1_3 1_555 1_555
Zn5_2 O1_3 1_555 1_555
O1_3 C1_3 1_555 1_555
O9_2 Zn1_3 1_555 1_555
N1_3 Zn1_3 1_555 1_555
N2_3 Zn1_3 1_555 1_555
C1_3 H1_3 1_555 1_555
H2_3 C1_3 1_555 1_555
C2_3 N1_3 1_555 1_555
C3_3 C2_3 1_555 1_555
H3_3 C3_3 1_555 1_555
C4_3 C3_3 1_555 1_555
C5_3 C4_3 1_555 1_555
C6_3 N1_3 1_555 1_555
H5_3 C6_3 1_555 1_555
C14_3 O9_2 1_555 1_555
H10_3 C14_3 1_555 1_555
H11_3 C14_3 1_555 1_555
C15_3 N2_3 1_555 1_555
C16_3 C15_3 1_555 1_555
H12_3 C16_3 1_555 1_555
C17_3 C16_3 1_555 1_555
H13_3 C17_3 1_555 1_555
C18_3 C17_3 1_555 1_555
C19_3 N2_3 1_555 1_555
H14_3 C19_3 1_555 1_555
C20_3 C18_3 1_555 1_555
C21_3 C20_3 1_555 1_555
H15_3 C21_3 1_555 1_555
O7_3 Zn1_3 1_555 1_555
O8_3 Zn5_2 1_555 1_555
O10_3 Zn5_2 1_555 1_555
O11_3 Zn1_3 1_555 1_555
C1_3 C2_3 1_555 1_555
C5_3 C6_3 1_555 1_555
C14_3 C15_3 1_555 1_555
C18_3 C19_3 1_555 1_555
O5_3 C26_3 1_555 1_555
O6_3 C26_3 1_555 1_555
H16_3 C22_3 1_555 1_555
C23_3 C22_3 1_555 1_555
C24_2 C23_3 1_555 1_555
H17_2 C24_2 1_555 1_555
H18_2 C25_2 1_555 1_555
C26_3 C23_3 1_555 1_555
Zn4 O6_3 1_555 1_555
Zn6_2 O5_3 1_555 1_555
C24_2 C25_2 1_555 1_555
Zn1_4 O1_4 1_555 1_555
Zn5 O1_4 1_555 1_555
O1_4 C1_4 1_555 1_555
O9 Zn1_4 1_555 1_555
O5_4 C26_4 1_555 1_555
O6_4 C26_4 1_555 1_555
N1_4 Zn1_4 1_555 1_555
N2_4 Zn1_4 1_555 1_555
C1_4 H1_4 1_555 1_555
H2_4 C1_4 1_555 1_555
C2_4 N1_4 1_555 1_555
C3_4 C2_4 1_555 1_555
H3_4 C3_4 1_555 1_555
C4_4 C3_4 1_555 1_555
C5_4 C4_4 1_555 1_555
C6_4 N1_4 1_555 1_555
H5_4 C6_4 1_555 1_555
C14_4 O9 1_555 1_555
H10_4 C14_4 1_555 1_555
H11_4 C14_4 1_555 1_555
C15_4 N2_4 1_555 1_555
C16_4 C15_4 1_555 1_555
H12_4 C16_4 1_555 1_555
C17_4 C16_4 1_555 1_555
H13_4 C17_4 1_555 1_555
C18_4 C17_4 1_555 1_555
C19_4 N2_4 1_555 1_555
H14_4 C19_4 1_555 1_555
C20_4 C18_4 1_555 1_555
C21_4 C20_4 1_555 1_555
H15_4 C21_4 1_555 1_555
C22_4 C21_4 1_555 1_555
H16_4 C22_4 1_555 1_555
C23_4 C22_4 1_555 1_555
C24_3 C23_4 1_555 1_555
H17_3 C24_3 1_555 1_555
C25_3 C20_4 1_555 1_555
H18_3 C25_3 1_555 1_555
C26_4 C23_4 1_555 1_555
Zn4_2 O6_4 1_555 1_555
Zn7_2 O5_4 1_555 1_555
O7_4 Zn1_4 1_555 1_555
O8_4 Zn5 1_555 1_555
O10_4 Zn5 1_555 1_555
O11_4 Zn1_4 1_555 1_555
C1_4 C2_4 1_555 1_555
C5_4 C6_4 1_555 1_555
C14_4 C15_4 1_555 1_555
C18_4 C19_4 1_555 1_555
C24_3 C25_3 1_555 1_555
Zn6_2 O3_4 1_555 1_555
O2_4 C13_4 1_555 1_555
H6_4 C8_4 1_555 1_555
C9_4 C8_4 1_555 1_555
H7_4 C9_4 1_555 1_555
C10_4 C9_4 1_555 1_555
C11_4 C10_4 1_555 1_555
H8_4 C11_4 1_555 1_555
C13_4 C10_4 1_555 1_555
Zn3_2 O2_4 1_555 1_555
O10_3 C26_5 1_555 1_555
O11_2 C26_5 1_555 1_555
H16_5 C22_5 1_555 1_555
C23_5 C22_5 1_555 1_555
C26_5 C23_5 1_555 1_555
Zn6_2 O1_5 1_555 1_555
O1_5 C1_5 1_555 1_555
C1_5 H1_5 1_555 1_555
H2_5 C1_5 1_555 1_555
C3_5 C2_5 1_555 1_555
H3_5 C3_5 1_555 1_555
H15_5 C21_5 1_555 1_555
O9_3 Zn6_2 1_555 1_555
C1_5 C2_5 1_555 1_555
O7_4 C13_5 1_555 1_555
O8_4 C13_5 1_555 1_555
O4_3 Zn3_2 1_555 1_555
N1_5 Zn3_2 1_555 1_555
N2_5 Zn3_2 1_555 1_555
C5_5 C4_5 1_555 1_555
C6_5 N1_5 1_555 1_555
H5_5 C6_5 1_555 1_555
C7_4 C5_5 1_555 1_555
C8_5 C7_4 1_555 1_555
H6_5 C8_5 1_555 1_555
C9_5 C8_5 1_555 1_555
H7_5 C9_5 1_555 1_555
C10_5 C9_5 1_555 1_555
C11_5 C10_5 1_555 1_555
H8_5 C11_5 1_555 1_555
C12_4 C7_4 1_555 1_555
H9_5 C12_4 1_555 1_555
C13_5 C10_5 1_555 1_555
C14_5 O4_3 1_555 1_555
H10_5 C14_5 1_555 1_555
H11_5 C14_5 1_555 1_555
C15_5 N2_5 1_555 1_555
C16_5 C15_5 1_555 1_555
H12_5 C16_5 1_555 1_555
C17_5 C16_5 1_555 1_555
H13_5 C17_5 1_555 1_555
C18_5 C17_5 1_555 1_555
C19_5 N2_5 1_555 1_555
H14_5 C19_5 1_555 1_555
C20_5 C18_5 1_555 1_555
Zn7 O4_3 1_555 1_555
C5_5 C6_5 1_555 1_555
C11_5 C12_4 1_555 1_555
C14_5 C15_5 1_555 1_555
C18_5 C19_5 1_555 1_555
Zn7_2 O1_6 1_555 1_555
O1_6 C1_6 1_555 1_555
O10_4 C26_6 1_555 1_555
O11 C26_6 1_555 1_555
C1_6 H1_6 1_555 1_555
H2_6 C1_6 1_555 1_555
C3_6 C2_6 1_555 1_555
H3_6 C3_6 1_555 1_555
H15_6 C21_6 1_555 1_555
C22_6 C21_6 1_555 1_555
H16_6 C22_6 1_555 1_555
C23_6 C22_6 1_555 1_555
C26_6 C23_6 1_555 1_555
O9_4 Zn7_2 1_555 1_555
C1_6 C2_6 1_555 1_555
O7_3 C13_6 1_555 1_555
O8_3 C13_6 1_555 1_555
H6_6 C8_6 1_555 1_555
C9_6 C8_6 1_555 1_555
H7_6 C9_6 1_555 1_555
C10_6 C9_6 1_555 1_555
C11_6 C10_6 1_555 1_555
H8_6 C11_6 1_555 1_555
C13_6 C10_6 1_555 1_555
O4_4 Zn3 1_555 1_555
N1_6 Zn3 1_555 1_555
N2_6 Zn3 1_555 1_555
C5_6 C4_6 1_555 1_555
C6_6 N1_6 1_555 1_555
H5_6 C6_6 1_555 1_555
C7_5 C5_6 1_555 1_555
C12_5 C7_5 1_555 1_555
H9_6 C12_5 1_555 1_555
C14_6 O4_4 1_555 1_555
H10_6 C14_6 1_555 1_555
H11_6 C14_6 1_555 1_555
C15_6 N2_6 1_555 1_555
C16_6 C15_6 1_555 1_555
H12_6 C16_6 1_555 1_555
C17_6 C16_6 1_555 1_555
H13_6 C17_6 1_555 1_555
C18_6 C17_6 1_555 1_555
C19_6 N2_6 1_555 1_555
H14_6 C19_6 1_555 1_555
C20_6 C18_6 1_555 1_555
H17_4 C24_4 1_555 1_555
C25_4 C20_6 1_555 1_555
H18_4 C25_4 1_555 1_555
Zn6 O4_4 1_555 1_555
C5_6 C6_6 1_555 1_555
C14_6 C15_6 1_555 1_555
C18_6 C19_6 1_555 1_555
C24_4 C25_4 1_555 1_555
O10 C26_7 1_555 1_555
O11_4 C26_7 1_555 1_555
H16_7 C22_7 1_555 1_555
C23_7 C22_7 1_555 1_555
C24_5 C23_7 1_555 1_555
H17_5 C24_5 1_555 1_555
H18_5 C25_5 1_555 1_555
C26_7 C23_7 1_555 1_555
C24_5 C25_5 1_555 1_555
Zn4_2 O1_7 1_555 1_555
Zn6 O1_7 1_555 1_555
O1_7 C1_7 1_555 1_555
O9_4 Zn4_2 1_555 1_555
N1_7 Zn4_2 1_555 1_555
N2_7 Zn4_2 1_555 1_555
C1_7 H1_7 1_555 1_555
H2_7 C1_7 1_555 1_555
C2_7 N1_7 1_555 1_555
C3_7 C2_7 1_555 1_555
H3_7 C3_7 1_555 1_555
C4_7 C3_7 1_555 1_555
C5_7 C4_7 1_555 1_555
C6_7 N1_7 1_555 1_555
H5_7 C6_7 1_555 1_555
C14_7 O9_4 1_555 1_555
H10_7 C14_7 1_555 1_555
H11_7 C14_7 1_555 1_555
C15_7 N2_7 1_555 1_555
C16_7 C15_7 1_555 1_555
H12_7 C16_7 1_555 1_555
C17_7 C16_7 1_555 1_555
H13_7 C17_7 1_555 1_555
C18_7 C17_7 1_555 1_555
C19_7 N2_7 1_555 1_555
H14_7 C19_7 1_555 1_555
C20_7 C18_7 1_555 1_555
C21_7 C20_7 1_555 1_555
H15_7 C21_7 1_555 1_555
C1_7 C2_7 1_555 1_555
C5_7 C6_7 1_555 1_555
C14_7 C15_7 1_555 1_555
C18_7 C19_7 1_555 1_555
O7_2 C13_7 1_555 1_555
C8_7 C7_6 1_555 1_555
H6_7 C8_7 1_555 1_555
C9_7 C8_7 1_555 1_555
H7_7 C9_7 1_555 1_555
C10_7 C9_7 1_555 1_555
C11_7 C10_7 1_555 1_555
H8_7 C11_7 1_555 1_555
C12_6 C7_6 1_555 1_555
C13_7 C10_7 1_555 1_555
C11_7 C12_6 1_555 1_555
O7 C13_8 1_555 1_555
H6_8 C8_8 1_555 1_555
C9_8 C8_8 1_555 1_555
H7_8 C9_8 1_555 1_555
C10_8 C9_8 1_555 1_555
C11_8 C10_8 1_555 1_555
H8_8 C11_8 1_555 1_555
C13_8 C10_8 1_555 1_555
Zn4 O1_8 1_555 1_555
Zn7 O1_8 1_555 1_555
O1_8 C1_8 1_555 1_555
O9_3 Zn4 1_555 1_555
O10_2 C26_8 1_555 1_555
O11_3 C26_8 1_555 1_555
N1_8 Zn4 1_555 1_555
N2_8 Zn4 1_555 1_555
C1_8 H1_8 1_555 1_555
H2_8 C1_8 1_555 1_555
C2_8 N1_8 1_555 1_555
C3_8 C2_8 1_555 1_555
H3_8 C3_8 1_555 1_555
C4_8 C3_8 1_555 1_555
C5_8 C4_8 1_555 1_555
C6_8 N1_8 1_555 1_555
H5_8 C6_8 1_555 1_555
C14_8 O9_3 1_555 1_555
H10_8 C14_8 1_555 1_555
H11_8 C14_8 1_555 1_555
C15_8 N2_8 1_555 1_555
C16_8 C15_8 1_555 1_555
H12_8 C16_8 1_555 1_555
C17_8 C16_8 1_555 1_555
H13_8 C17_8 1_555 1_555
C18_8 C17_8 1_555 1_555
C19_8 N2_8 1_555 1_555
H14_8 C19_8 1_555 1_555
C20_8 C18_8 1_555 1_555
C21_8 C20_8 1_555 1_555
H15_8 C21_8 1_555 1_555
C22_8 C21_8 1_555 1_555
H16_8 C22_8 1_555 1_555
C23_8 C22_8 1_555 1_555
C24_6 C23_8 1_555 1_555
H17_6 C24_6 1_555 1_555
C25_6 C20_8 1_555 1_555
H18_6 C25_6 1_555 1_555
C26_8 C23_8 1_555 1_555
C1_8 C2_8 1_555 1_555
C5_8 C6_8 1_555 1_555
C14_8 C15_8 1_555 1_555
C18_8 C19_8 1_555 1_555
C24_6 C25_6 1_555 1_555
H17_7 C24_7 1_555 1_555
H18_7 C25_7 1_555 1_555
C24_7 C25_7 1_555 1_555
C12_7 C7_7 1_555 1_555
H17_8 C24_8 1_555 1_555
H18_8 C25_8 1_555 1_555
C24_8 C25_8 1_555 1_555
C12_8 C7_8 1_555 1_555

#END
