
###############################################################################
#
# This file contains modified crystal structure data generated from the
# MOF subset of the Cambridge Structural Database (CSD) v543 
# hosted by the Cambridge Crystallographic Data Centre (CCDC).
#
# This work is licensed under the Creative Commons
# Attribution-NonCommercial-ShareAlike 4.0 International License.
# To view a copy of this license, visit
# http://creativecommons.org/licenses/by-nc-sa/4.0/
# or send a letter to
# Creative Commons, PO Box 1866, Mountain View, CA 94042, USA.
#
# CIF created using the CSD Python API on 29 September 2022
# The structure has been converted into the P1 space group
# The structure has a 3D framework
# The original CSD entry UDOPEL is in the orthorhombic crystal system
# The original CSD entry UDOPEL is in a Sohncke space group
# The framework has been calculated to contain at least 10.0% void space
# The void calculation uses a probe of radius 1.32A, grid spacing 0.4
#
###############################################################################

data_UDOPEL
_chemical_formula_moiety         '(C244 H252 Cd8 Cu4 N20 O50)n'
_symmetry_cell_setting           triclinic
_symmetry_space_group_name_H-M   'P 1'
_symmetry_Int_Tables_number      1
_space_group_name_Hall           'P 1'
loop_
_symmetry_equiv_pos_site_id
_symmetry_equiv_pos_as_xyz
1 x,y,z
_cell_length_a                   12.05026(17)
_cell_length_b                   15.4680(2)
_cell_length_c                   43.6802(5)
_cell_angle_alpha                90
_cell_angle_beta                 90
_cell_angle_gamma                90
_cell_volume                     8141.7
loop_
_atom_site_label
_atom_site_type_symbol
_atom_site_fract_x
_atom_site_fract_y
_atom_site_fract_z
C47 C 0.2128(19) 0.0218(11) 0.2399(5)
H39 H 0.236494 0.079024 0.239506
H40 H 0.097455 0.037159 0.208233
Cd3 Cd 0.14259(3) 0.00322(2) 0.50740(2)
O2 O 0.1744(3) 0.8790(3) 0.43997(9)
C1 C 0.0989(5) 0.7621(4) 0.24403(13)
H1 H 0.158617 0.728006 0.253280
C6 C 0.0102(5) 0.7503(4) 0.29292(12)
H3 H 0.082137 0.753106 0.300588
H5 H 0.026465 0.745441 0.351378
C11 C 0.0114(4) 0.7963(4) 0.44505(11)
C13 C 0.0718(5) 0.7218(4) 0.21237(12)
H6 H 0.113520 0.753452 0.196710
H9 H 0.028846 0.828702 0.399850
C25 C 0.1377(7) 0.8547(5) 0.24212(16)
O10 O 0.0771(4) 0.8866(3) 0.48398(9)
C30 C 0.1071(5) 0.6289(4) 0.21141(14)
C37 C 0.2173(7) 0.6109(6) 0.2103(3)
H27 H 0.267079 0.656753 0.209010
C38 C 0.2269(8) 0.8789(7) 0.2602(3)
H28 H 0.261386 0.838603 0.272782
C40 C 0.0374(8) 0.5592(6) 0.2144(3)
C42 C 0.1854(13) 0.4598(7) 0.2140(3)
H34 H 0.211130 0.403206 0.215256
C43 C 0.0786(12) 0.4763(6) 0.2152(4)
H35 H 0.029072 0.430326 0.216533
C44 C 0.0938(13) 0.9139(6) 0.2235(2)
H36 H 0.035291 0.897217 0.210898
C45 C 0.2589(9) 0.5276(7) 0.2109(3)
H37 H 0.334729 0.517568 0.209217
C46 C 0.2649(12) 0.9647(11) 0.2593(5)
H38 H 0.323901 0.982391 0.271478
C48 C 0.130(2) 0.9981(9) 0.2217(4)
C51 C 0.0942(5) 0.8598(3) 0.45720(12)
N3 N 0.1080(8) 0.3625(6) 0.5410(3)
C53 C 0.0299(8) 0.4179(7) 0.5515(3)
H43 H 0.007903 0.412160 0.571759
C57 C 0.0363(8) 0.8358(6) 0.5648(2)
H51 H 0.058921 0.894784 0.567596
H52 H 0.084009 0.798574 0.576507
H53 H 0.041303 0.820844 0.543536
C58 C 0.1453(15) 0.3699(11) 0.5103(3)
H54 H 0.200270 0.326398 0.506272
H55 H 0.083726 0.362173 0.496584
H56 H 0.177141 0.426103 0.507140
C60 C 0.1572(14) 0.2968(10) 0.5616(5)
H60 H 0.210746 0.263239 0.550470
H61 H 0.192990 0.325139 0.578463
H62 H 0.099780 0.259502 0.569157
Cd7 Cd 0.33774(3) 0.94196(3) 0.45143(2)
O17 O 0.2489(4) 0.0723(3) 0.03772(9)
O19 O 0.4229(4) 0.1134(3) 0.98398(9)
Cd1 Cd 0.35741(3) 0.99678(2) 0.00740(2)
Cu1 Cu 0.86066(7) 0.74781(6) 0.24197(2)
O1 O 0.8517(4) 0.6196(3) 0.50198(8)
O3 O 0.7749(3) 0.5592(3) 0.03577(8)
O4 O 0.7511(4) 0.5723(3) 0.46228(9)
O5 O 0.7742(3) 0.7395(3) 0.27811(9)
C2 C 0.8216(5) 0.6199(4) 0.47444(12)
N1 N 0.9994(4) 0.7530(3) 0.26362(10)
O7 O 0.4605(3) 0.9478(3) 0.04819(9)
C3 C 0.8526(5) 0.6838(4) 0.42261(12)
H2 H 0.798518 0.646240 0.415275
C4 C 0.8769(5) 0.6841(4) 0.45339(13)
C5 C 0.8745(5) 0.7392(4) 0.36886(12)
O8 O 0.7313(4) 0.7663(4) 0.21896(9)
O9 O 0.5061(4) 0.8986(3) 0.00264(9)
C7 C 0.9553(5) 0.7416(4) 0.46473(12)
H4 H 0.970062 0.743302 0.485618
C8 C 0.7406(5) 0.6281(4) 0.02234(12)
C9 C 0.6594(6) 0.7607(4) 0.09164(12)
C10 C 0.9517(5) 0.7430(4) 0.34616(13)
C12 C 0.5830(5) 0.8273(4) 0.04586(13)
C14 C 0.5951(6) 0.7835(5) 0.14552(13)
H7 H 0.525852 0.797719 0.137567
C15 C 0.9217(5) 0.7434(4) 0.31504(12)
C16 C 0.7164(6) 0.7662(5) 0.18943(13)
N2 N 0.9522(4) 0.7338(3) 0.20635(10)
C17 C 0.5991(5) 0.8250(4) 0.07752(13)
H8 H 0.567970 0.868357 0.089493
C18 C 0.9890(5) 0.7936(4) 0.41320(12)
C19 C 0.5119(5) 0.8954(4) 0.03084(12)
C20 C 0.6017(5) 0.7284(5) 0.32315(14)
C21 C 0.8078(5) 0.7380(4) 0.30672(11)
C22 C 0.4893(7) 0.7315(7) 0.22066(16)
H10 H 0.472075 0.680805 0.208894
H11 H 0.554066 0.720836 0.232884
H12 H 0.427837 0.745231 0.233767
C23 C 0.7638(5) 0.7322(4) 0.36034(13)
H13 H 0.711623 0.726546 0.375910
C24 C 0.8041(5) 0.7468(5) 0.16889(13)
C26 C 0.6794(5) 0.7630(4) 0.12530(13)
C27 C 0.7070(5) 0.6972(4) 0.07303(13)
H14 H 0.748657 0.653392 0.081968
C28 C 0.5318(6) 0.7251(6) 0.35248(16)
H15 H 0.454518 0.722308 0.347204
H16 H 0.551682 0.674855 0.364151
H17 H 0.545376 0.776082 0.364443
C29 C 0.7251(5) 0.7329(4) 0.33062(13)
C31 C 0.9078(5) 0.7389(4) 0.40197(12)
C32 C 0.6086(6) 0.7839(5) 0.17731(14)
C33 C 0.5760(6) 0.6475(5) 0.30426(17)
H18 H 0.498100 0.645606 0.299746
H19 H 0.617399 0.649223 0.285489
H20 H 0.596513 0.596983 0.315699
C34 C 0.4046(6) 0.8269(7) 0.18132(17)
H21 H 0.384471 0.777659 0.169175
H22 H 0.345965 0.839735 0.195481
H23 H 0.416580 0.875833 0.168184
C35 C 0.5661(6) 0.8078(5) 0.30478(16)
H24 H 0.488295 0.804014 0.300256
H25 H 0.580245 0.859056 0.316526
H26 H 0.607446 0.810101 0.286010
C36 C 0.5114(6) 0.8072(5) 0.19906(15)
C39 C 0.7825(6) 0.7437(5) 0.13683(13)
H29 H 0.839285 0.728345 0.123467
H30 H 0.961264 0.568187 0.216001
C41 C 0.5385(7) 0.8870(6) 0.21764(16)
H31 H 0.552464 0.934640 0.204086
H32 H 0.477069 0.900702 0.230751
H33 H 0.603297 0.876307 0.229868
C49 C 0.6933(5) 0.6983(4) 0.04148(12)
C50 C 0.6317(5) 0.7641(4) 0.02798(11)
H41 H 0.623287 0.765534 0.006821
C52 C 0.9172(5) 0.7330(4) 0.17844(12)
H42 H 0.969450 0.722625 0.163187
Cd2 Cd 0.83774(3) 0.55804(3) 0.54857(2)
O11 O 0.8486(5) 0.5097(3) 0.59785(9)
O12 O 0.9858(4) 0.4754(4) 0.53627(13)
O13 O 0.9264(4) 0.6810(3) 0.56498(12)
C54 C 0.8779(7) 0.7464(5) 0.57287(19)
H44 H 0.803096 0.741568 0.577842
N4 N 0.9252(7) 0.8257(5) 0.57492(19)
C55 C 0.8618(19) 0.9019(9) 0.5872(3)
H45 H 0.908471 0.952152 0.586899
H46 H 0.797667 0.911903 0.574630
H47 H 0.838797 0.890163 0.607797
C56 C 0.6337(17) 0.5219(12) 0.6527(8)
H48 H 0.620199 0.519049 0.674363
H49 H 0.609485 0.576964 0.645059
H50 H 0.593493 0.476620 0.642614
N5 N 0.7762(17) 0.5095(13) 0.6457(3)
C59 C 0.8670(16) 0.4549(9) 0.6584(2)
H57 H 0.864152 0.456259 0.680357
H58 H 0.858019 0.396432 0.651438
H59 H 0.937367 0.476746 0.651592
C61 C 0.7650(14) 0.5167(12) 0.6144(3)
H63 H 0.695724 0.526662 0.605713
Cd5 Cd 0.64259(3) 0.49678(2) 0.49260(2)
O14 O 0.6744(3) 0.6210(3) 0.56003(9)
O15 O 0.7251(3) 0.4408(3) 0.53577(8)
O18 O 0.2480(4) 0.8628(3) 0.00604(9)
Cd6 Cd 0.66226(3) 0.44196(3) 0.04857(2)
O6 O 0.7480(4) 0.6372(3) 0.99396(9)
Cd4 Cd 0.85741(3) 0.50322(2) 0.99260(2)
O16 O 0.2749(3) 0.9408(3) 0.96423(8)
O7_2 O 0.0395(3) 0.0522(3) 0.54819(9)
C22_2 C 0.0107(7) 0.2685(7) 0.72066(16)
H10_2 H 0.027925 0.319195 0.708894
H12_2 H 0.072163 0.254769 0.733767
H15_2 H 0.045482 0.277692 0.847204
H18_2 H 0.001900 0.354394 0.799746
C34_2 C 0.0954(6) 0.1731(7) 0.68132(17)
H21_2 H 0.115529 0.222341 0.669175
H22_2 H 0.154035 0.160265 0.695481
H23_2 H 0.083420 0.124167 0.668184
H24_2 H 0.011705 0.195986 0.800256
H32_2 H 0.022931 0.099298 0.730751
O16_2 O 0.2251(3) 0.0592(3) 0.46423(8)
O18_2 O 0.2520(4) 0.1372(3) 0.50604(9)
O17_2 O 0.2511(4) 0.9277(3) 0.53772(9)
O1_2 O 0.6483(4) 0.3804(3) 0.00198(8)
O11_2 O 0.6514(5) 0.4903(3) 0.09785(9)
O12_2 O 0.5142(4) 0.5246(4) 0.03627(13)
O13_2 O 0.5736(4) 0.3190(3) 0.06498(12)
N3_2 N 0.3920(8) 0.6375(6) 0.0410(3)
C53_2 C 0.4701(8) 0.5821(7) 0.0515(3)
H43_2 H 0.492097 0.587840 0.071759
C54_2 C 0.6221(7) 0.2536(5) 0.07287(19)
H44_2 H 0.696904 0.258432 0.077842
N4_2 N 0.5748(7) 0.1743(5) 0.07492(19)
C55_2 C 0.6382(19) 0.0981(9) 0.0872(3)
H45_2 H 0.591529 0.047848 0.086899
H46_2 H 0.702333 0.088097 0.074630
H47_2 H 0.661203 0.109837 0.107797
C56_2 C 0.8663(17) 0.4781(12) 0.1527(8)
H48_2 H 0.879801 0.480951 0.174363
H49_2 H 0.890515 0.423036 0.145059
H50_2 H 0.906507 0.523380 0.142614
N5_2 N 0.7238(17) 0.4905(13) 0.1457(3)
C57_2 C 0.4637(8) 0.1642(6) 0.0648(2)
H51_2 H 0.441079 0.105216 0.067596
H52_2 H 0.415991 0.201426 0.076507
H53_2 H 0.458697 0.179156 0.043536
C58_2 C 0.3547(15) 0.6301(11) 0.0103(3)
H54_2 H 0.299730 0.673602 0.006272
H56_2 H 0.322859 0.573897 0.007140
C59_2 C 0.6330(16) 0.5451(9) 0.1584(2)
H57_2 H 0.635848 0.543741 0.180357
H58_2 H 0.641981 0.603568 0.151438
H59_2 H 0.562633 0.523254 0.151592
C60_2 C 0.3428(14) 0.7032(10) 0.0616(5)
H60_2 H 0.289254 0.736761 0.050470
H61_2 H 0.307010 0.674861 0.078463
H62_2 H 0.400220 0.740498 0.069157
C61_2 C 0.7350(14) 0.4833(12) 0.1144(3)
H63_2 H 0.804276 0.473338 0.105713
O14_2 O 0.8256(3) 0.3790(3) 0.06003(9)
Cu1_2 Cu 0.63934(7) 0.25219(6) 0.74197(2)
O2_2 O 0.3256(3) 0.1210(3) 0.93997(9)
O4_2 O 0.7489(4) 0.4277(3) 0.96228(9)
O5_2 O 0.7258(3) 0.2605(3) 0.77811(9)
C1_2 C 0.4011(5) 0.2379(4) 0.74403(13)
H1_2 H 0.341383 0.271994 0.753280
C2_2 C 0.6784(5) 0.3801(4) 0.97444(12)
O6_2 O 0.7520(4) 0.3628(3) 0.49396(9)
N1_2 N 0.5006(4) 0.2470(3) 0.76362(10)
C3_2 C 0.6474(5) 0.3162(4) 0.92261(12)
H2_2 H 0.701482 0.353760 0.915275
C4_2 C 0.6231(5) 0.3159(4) 0.95339(13)
C5_2 C 0.6255(5) 0.2608(4) 0.86886(12)
C6_2 C 0.4898(5) 0.2497(4) 0.79292(12)
H3_2 H 0.417863 0.246894 0.800588
O8_2 O 0.7687(4) 0.2337(4) 0.71896(9)
O9_2 O 0.9939(4) 0.1014(3) 0.50264(9)
C7_2 C 0.5447(5) 0.2584(4) 0.96473(12)
H4_2 H 0.529938 0.256698 0.985618
C8_2 C 0.7594(5) 0.3719(4) 0.52234(12)
C9_2 C 0.8406(6) 0.2393(4) 0.59164(12)
C10_2 C 0.5483(5) 0.2570(4) 0.84616(13)
H5_2 H 0.473535 0.254559 0.851378
C11_2 C 0.4886(4) 0.2037(4) 0.94505(11)
C12_2 C 0.9170(5) 0.1727(4) 0.54586(13)
C13_2 C 0.4282(5) 0.2782(4) 0.71237(12)
H6_2 H 0.386480 0.246548 0.696710
C14_2 C 0.9049(6) 0.2165(5) 0.64552(13)
H7_2 H 0.974148 0.202281 0.637567
C15_2 C 0.5783(5) 0.2566(4) 0.81504(12)
C16_2 C 0.7836(6) 0.2338(5) 0.68943(13)
N2_2 N 0.5478(4) 0.2662(3) 0.70635(10)
C17_2 C 0.9009(5) 0.1750(4) 0.57752(13)
H8_2 H 0.932030 0.131643 0.589493
C18_2 C 0.5110(5) 0.2064(4) 0.91320(12)
H9_2 H 0.471154 0.171298 0.899850
C19_2 C 0.9881(5) 0.1046(4) 0.53084(12)
C20_2 C 0.8983(5) 0.2716(5) 0.82315(14)
C21_2 C 0.6922(5) 0.2620(4) 0.80672(11)
H11_2 H 0.945934 0.279164 0.732884
C23_2 C 0.7362(5) 0.2678(4) 0.86034(13)
H13_2 H 0.788377 0.273454 0.875910
C24_2 C 0.6959(5) 0.2532(5) 0.66889(13)
C25_2 C 0.3623(7) 0.1453(5) 0.74212(16)
C26_2 C 0.8206(5) 0.2370(4) 0.62530(13)
C27_2 C 0.7930(5) 0.3028(4) 0.57303(13)
H14_2 H 0.751343 0.346608 0.581968
C28_2 C 0.9682(6) 0.2749(6) 0.85248(16)
H16_2 H 0.948318 0.325145 0.864151
H17_2 H 0.954624 0.223918 0.864443
C29_2 C 0.7749(5) 0.2671(4) 0.83062(13)
C30_2 C 0.3929(5) 0.3711(4) 0.71141(14)
C31_2 C 0.5922(5) 0.2611(4) 0.90197(12)
C32_2 C 0.8914(6) 0.2161(5) 0.67731(14)
C33_2 C 0.9240(6) 0.3525(5) 0.80426(17)
H19_2 H 0.882601 0.350777 0.785489
H20_2 H 0.903487 0.403017 0.815699
C35_2 C 0.9339(6) 0.1922(5) 0.80478(16)
H25_2 H 0.919755 0.140944 0.816526
H26_2 H 0.892554 0.189899 0.786010
C36_2 C 0.9886(6) 0.1928(5) 0.69906(15)
C37_2 C 0.2827(7) 0.3891(6) 0.7103(3)
H27_2 H 0.232921 0.343247 0.709010
C38_2 C 0.2731(8) 0.1211(7) 0.7602(3)
H28_2 H 0.238614 0.161397 0.772782
C39_2 C 0.7175(6) 0.2563(5) 0.63683(13)
H29_2 H 0.660715 0.271655 0.623467
C40_2 C 0.4626(8) 0.4408(6) 0.7144(3)
H30_2 H 0.538736 0.431813 0.716001
C41_2 C 0.9615(7) 0.1130(6) 0.71764(16)
H31_2 H 0.947536 0.065360 0.704086
H33_2 H 0.896703 0.123693 0.729868
C42_2 C 0.3146(13) 0.5402(7) 0.7140(3)
H34_2 H 0.288870 0.596794 0.715256
C43_2 C 0.4214(12) 0.5237(6) 0.7152(4)
H35_2 H 0.470928 0.569674 0.716533
C44_2 C 0.4062(13) 0.0861(6) 0.7235(2)
H36_2 H 0.464709 0.102783 0.710898
C45_2 C 0.2411(9) 0.4724(7) 0.7109(3)
H37_2 H 0.165271 0.482432 0.709217
C46_2 C 0.2351(12) 0.0353(11) 0.7593(5)
H38_2 H 0.176099 0.017609 0.771478
C48_2 C 0.370(2) 0.0019(9) 0.7217(4)
C49_2 C 0.8067(5) 0.3017(4) 0.54148(12)
C50_2 C 0.8683(5) 0.2359(4) 0.52798(11)
H41_2 H 0.876713 0.234466 0.506821
C51_2 C 0.4058(5) 0.1402(3) 0.95720(12)
C52_2 C 0.5828(5) 0.2670(4) 0.67844(12)
H42_2 H 0.530550 0.277375 0.663187
H55_2 H 0.416274 0.637827 0.996584
Cd7_2 Cd 0.16226(3) 0.05804(3) 0.95143(2)
C42_3 C 0.6854(13) 0.0402(7) 0.7860(3)
H34_3 H 0.711130 0.096794 0.784744
C43_3 C 0.5786(12) 0.0237(6) 0.7848(4)
H35_3 H 0.529072 0.069674 0.783467
O12_3 O 0.4858(4) 0.0246(4) 0.46373(13)
N3_3 N 0.6080(8) 0.1375(6) 0.4590(3)
C53_3 C 0.5299(8) 0.0821(7) 0.4485(3)
H43_3 H 0.507903 0.087840 0.428241
H50_3 H 0.093493 0.023380 0.357386
C58_3 C 0.6453(15) 0.1301(11) 0.4897(3)
H54_3 H 0.700270 0.173602 0.493728
H55_3 H 0.583726 0.137827 0.503416
H56_3 H 0.677141 0.073897 0.492860
C59_3 C 0.3670(16) 0.0451(9) 0.3416(2)
H57_3 H 0.364152 0.043741 0.319643
H58_3 H 0.358019 0.103568 0.348562
H59_3 H 0.437367 0.023254 0.348408
C60_3 C 0.6572(14) 0.2032(10) 0.4384(5)
H60_3 H 0.710746 0.236761 0.449530
H61_3 H 0.692990 0.174861 0.421537
H62_3 H 0.599780 0.240498 0.430843
Cu1_3 Cu 0.36066(7) 0.75219(6) 0.75803(2)
O1_3 O 0.3517(4) 0.8804(3) 0.49802(8)
O5_3 O 0.2742(3) 0.7605(3) 0.72189(9)
C1_3 C 0.5989(5) 0.7379(4) 0.75597(13)
H1_3 H 0.658617 0.771994 0.746720
C2_3 C 0.3216(5) 0.8801(4) 0.52556(12)
N1_3 N 0.4994(4) 0.7470(3) 0.73638(10)
C3_3 C 0.3526(5) 0.8162(4) 0.57739(12)
H2_3 H 0.298518 0.853760 0.584725
C4_3 C 0.3769(5) 0.8159(4) 0.54661(13)
C5_3 C 0.3745(5) 0.7608(4) 0.63114(12)
C6_3 C 0.5102(5) 0.7497(4) 0.70708(12)
H3_3 H 0.582137 0.746894 0.699412
O8_3 O 0.2313(4) 0.7337(4) 0.78104(9)
O9_3 O 0.0061(4) 0.6014(3) 0.99736(9)
C7_3 C 0.4553(5) 0.7584(4) 0.53527(12)
H4_3 H 0.470062 0.756698 0.514382
C8_3 C 0.2406(5) 0.8719(4) 0.97766(12)
C9_3 C 0.1594(6) 0.7393(4) 0.90836(12)
C10_3 C 0.4517(5) 0.7570(4) 0.65384(13)
H5_3 H 0.526465 0.754559 0.648622
C11_3 C 0.5114(4) 0.7037(4) 0.55495(11)
C12_3 C 0.0830(5) 0.6727(4) 0.95414(13)
C13_3 C 0.5718(5) 0.7782(4) 0.78763(12)
H6_3 H 0.613520 0.746548 0.803290
C14_3 C 0.0951(6) 0.7165(5) 0.85448(13)
H7_3 H 0.025852 0.702281 0.862433
C15_3 C 0.4217(5) 0.7566(4) 0.68496(12)
C16_3 C 0.2164(6) 0.7338(5) 0.81057(13)
N2_3 N 0.4522(4) 0.7662(3) 0.79365(10)
C17_3 C 0.0991(5) 0.6750(4) 0.92248(13)
H8_3 H 0.067970 0.631643 0.910507
C18_3 C 0.4890(5) 0.7064(4) 0.58680(12)
H9_3 H 0.528846 0.671298 0.600150
C19_3 C 0.0119(5) 0.6046(4) 0.96916(12)
C20_3 C 0.1017(5) 0.7716(5) 0.67685(14)
C21_3 C 0.3078(5) 0.7620(4) 0.69328(11)
H11_3 H 0.054066 0.779164 0.767116
C23_3 C 0.2638(5) 0.7678(4) 0.63966(13)
H13_3 H 0.211623 0.773454 0.624090
C24_3 C 0.3041(5) 0.7532(5) 0.83111(13)
C25_3 C 0.6377(7) 0.6453(5) 0.75788(16)
O10_2 O 0.5771(4) 0.6134(3) 0.51602(9)
C26_3 C 0.1794(5) 0.7370(4) 0.87470(13)
C27_3 C 0.2070(5) 0.8028(4) 0.92697(13)
H14_3 H 0.248657 0.846608 0.918032
C28_3 C 0.0318(6) 0.7749(6) 0.64752(16)
H16_3 H 0.051682 0.825145 0.635849
H17_3 H 0.045376 0.723918 0.635557
C29_3 C 0.2251(5) 0.7671(4) 0.66938(13)
C30_3 C 0.6071(5) 0.8711(4) 0.78859(14)
C31_3 C 0.4078(5) 0.7611(4) 0.59803(12)
C32_3 C 0.1086(6) 0.7161(5) 0.82269(14)
C33_3 C 0.0760(6) 0.8525(5) 0.69574(17)
H19_3 H 0.117399 0.850777 0.714511
H20_3 H 0.096513 0.903017 0.684301
C35_3 C 0.0661(6) 0.6922(5) 0.69522(16)
H25_3 H 0.080245 0.640944 0.683474
H26_3 H 0.107446 0.689899 0.713990
C36_3 C 0.0114(6) 0.6928(5) 0.80094(15)
C37_3 C 0.7173(7) 0.8891(6) 0.7897(3)
H27_3 H 0.767079 0.843247 0.790990
C38_3 C 0.7269(8) 0.6211(7) 0.7398(3)
H28_3 H 0.761386 0.661397 0.727218
C39_3 C 0.2825(6) 0.7563(5) 0.86317(13)
H29_3 H 0.339285 0.771655 0.876533
C40_3 C 0.5374(8) 0.9408(6) 0.7856(3)
H30_3 H 0.461264 0.931813 0.783999
C41_3 C 0.0385(7) 0.6130(6) 0.78236(16)
H31_3 H 0.052464 0.565360 0.795914
H33_3 H 0.103297 0.623693 0.770132
C44_3 C 0.5938(13) 0.5861(6) 0.7765(2)
H36_3 H 0.535291 0.602783 0.789102
C45_3 C 0.7589(9) 0.9724(7) 0.7891(3)
H37_3 H 0.834729 0.982432 0.790783
C46_3 C 0.7649(12) 0.5353(11) 0.7407(5)
H38_3 H 0.823901 0.517609 0.728522
C47_2 C 0.7128(19) 0.4782(11) 0.7601(5)
H39_2 H 0.736494 0.420976 0.760494
C48_3 C 0.630(2) 0.5019(9) 0.7783(4)
H40_2 H 0.597455 0.462841 0.791767
C49_3 C 0.1933(5) 0.8017(4) 0.95852(12)
C50_3 C 0.1317(5) 0.7359(4) 0.97202(11)
H41_3 H 0.123287 0.734466 0.993179
C51_3 C 0.5942(5) 0.6402(3) 0.54280(12)
C52_3 C 0.4172(5) 0.7670(4) 0.82156(12)
H42_3 H 0.469450 0.777375 0.836813
O11_3 O 0.3486(5) 0.9903(3) 0.40215(9)
O13_3 O 0.4264(4) 0.8190(3) 0.43502(12)
C54_3 C 0.3779(7) 0.7536(5) 0.42713(19)
H44_3 H 0.303096 0.758432 0.422158
N4_3 N 0.4252(7) 0.6743(5) 0.42508(19)
C55_3 C 0.3618(19) 0.5981(9) 0.4128(3)
H45_3 H 0.408471 0.547848 0.413101
H46_3 H 0.297667 0.588097 0.425370
H47_3 H 0.338797 0.609837 0.392203
C56_3 C 0.1337(17) 0.9781(12) 0.3473(8)
H48_3 H 0.120199 0.980951 0.325637
H49_3 H 0.109485 0.923036 0.354941
N5_3 N 0.2762(17) 0.9905(13) 0.3543(3)
C57_3 C 0.5363(8) 0.6642(6) 0.4352(2)
H51_3 H 0.558921 0.605216 0.432404
H52_3 H 0.584009 0.701426 0.423493
H53_3 H 0.541303 0.679156 0.456464
C61_3 C 0.2650(14) 0.9833(12) 0.3856(3)
H63_3 H 0.195724 0.973338 0.394287
O19_2 O 0.9229(4) 0.3866(3) 0.01602(9)
O7_3 O 0.9605(3) 0.5522(3) 0.95181(9)
C22_3 C 0.9893(7) 0.7685(7) 0.77934(16)
H10_3 H 0.972075 0.819195 0.791106
H12_3 H 0.927837 0.754769 0.766233
H15_3 H 0.954518 0.777692 0.652796
H18_3 H 0.998100 0.854394 0.700254
C34_3 C 0.9046(6) 0.6731(7) 0.81868(17)
H21_3 H 0.884471 0.722341 0.830825
H22_3 H 0.845965 0.660265 0.804519
H23_3 H 0.916580 0.624167 0.831816
H24_3 H 0.988295 0.695986 0.699744
H32_3 H 0.977069 0.599298 0.769249
Cu1_4 Cu 0.13934(7) 0.24781(6) 0.25803(2)
O5_4 O 0.2258(3) 0.2395(3) 0.22189(9)
C2_4 C 0.1784(5) 0.1199(4) 0.02556(12)
N1_4 N 0.0006(4) 0.2530(3) 0.23638(10)
O7_4 O 0.5395(3) 0.4478(3) 0.45181(9)
C3_4 C 0.1474(5) 0.1838(4) 0.07739(12)
H2_4 H 0.201482 0.146240 0.084725
C4_4 C 0.1231(5) 0.1841(4) 0.04661(13)
C5_4 C 0.1255(5) 0.2392(4) 0.13114(12)
O8_4 O 0.2687(4) 0.2663(4) 0.28104(9)
O9_4 O 0.4939(4) 0.3986(3) 0.49736(9)
C7_4 C 0.0447(5) 0.2416(4) 0.03527(12)
H4_4 H 0.029938 0.243302 0.014382
C8_4 C 0.2594(5) 0.1281(4) 0.47766(12)
C9_4 C 0.3406(6) 0.2607(4) 0.40836(12)
C10_4 C 0.0483(5) 0.2430(4) 0.15384(13)
C12_4 C 0.4170(5) 0.3273(4) 0.45414(13)
C14_4 C 0.4049(6) 0.2835(5) 0.35448(13)
H7_4 H 0.474148 0.297719 0.362433
C15_4 C 0.0783(5) 0.2434(4) 0.18496(12)
C16_4 C 0.2836(6) 0.2662(5) 0.31057(13)
N2_4 N 0.0478(4) 0.2338(3) 0.29365(10)
C17_4 C 0.4009(5) 0.3250(4) 0.42248(13)
H8_4 H 0.432030 0.368357 0.410507
C18_4 C 0.0110(5) 0.2936(4) 0.08680(12)
C19_4 C 0.4881(5) 0.3954(4) 0.46916(12)
C20_4 C 0.3983(5) 0.2284(5) 0.17685(14)
C21_4 C 0.1922(5) 0.2380(4) 0.19328(11)
C22_4 C 0.5107(7) 0.2315(7) 0.27934(16)
H10_4 H 0.527925 0.180805 0.291106
H11_4 H 0.445934 0.220836 0.267116
H12_4 H 0.572163 0.245231 0.266233
C23_4 C 0.2362(5) 0.2322(4) 0.13966(13)
H13_4 H 0.288377 0.226546 0.124090
C24_4 C 0.1959(5) 0.2468(5) 0.33111(13)
C26_4 C 0.3206(5) 0.2630(4) 0.37470(13)
C27_4 C 0.2930(5) 0.1972(4) 0.42697(13)
H14_4 H 0.251343 0.153392 0.418032
C28_4 C 0.4682(6) 0.2251(6) 0.14752(16)
H15_4 H 0.545482 0.222308 0.152796
H16_4 H 0.448318 0.174855 0.135849
H17_4 H 0.454624 0.276082 0.135557
C29_4 C 0.2749(5) 0.2329(4) 0.16938(13)
C31_4 C 0.0922(5) 0.2389(4) 0.09803(12)
C32_4 C 0.3914(6) 0.2839(5) 0.32269(14)
C33_4 C 0.4240(6) 0.1475(5) 0.19574(17)
H18_4 H 0.501900 0.145606 0.200254
H19_4 H 0.382601 0.149223 0.214511
H20_4 H 0.403487 0.096983 0.184301
C34_4 C 0.5954(6) 0.3269(7) 0.31868(17)
H21_4 H 0.615529 0.277659 0.330825
H22_4 H 0.654035 0.339735 0.304519
H23_4 H 0.583420 0.375833 0.331816
C35_4 C 0.4339(6) 0.3078(5) 0.19522(16)
H24_4 H 0.511705 0.304014 0.199744
H25_4 H 0.419755 0.359056 0.183474
H26_4 H 0.392554 0.310101 0.213990
C36_4 C 0.4886(6) 0.3072(5) 0.30094(15)
C39_4 C 0.2175(6) 0.2437(5) 0.36317(13)
H29_4 H 0.160715 0.228345 0.376533
H30_4 H 0.038736 0.068187 0.283999
C41_4 C 0.4615(7) 0.3870(6) 0.28236(16)
H31_4 H 0.447536 0.434640 0.295914
H32_4 H 0.522931 0.400702 0.269249
H33_4 H 0.396703 0.376307 0.270132
C49_4 C 0.3067(5) 0.1983(4) 0.45852(12)
C50_4 C 0.3683(5) 0.2641(4) 0.47202(11)
H41_4 H 0.376713 0.265534 0.493179
C52_4 C 0.0828(5) 0.2330(4) 0.32156(12)
H42_4 H 0.030550 0.222625 0.336813
O1_4 O 0.1483(4) 0.1196(3) 0.99802(8)
O11_4 O 0.1514(5) 0.0097(3) 0.90215(9)
O13_4 O 0.0736(4) 0.1810(3) 0.93502(12)
C54_4 C 0.1221(7) 0.2464(5) 0.92713(19)
H44_4 H 0.196904 0.241568 0.922158
N4_4 N 0.0748(7) 0.3257(5) 0.92508(19)
C55_4 C 0.1382(19) 0.4019(9) 0.9128(3)
H45_4 H 0.091529 0.452152 0.913101
H46_4 H 0.202333 0.411903 0.925370
H47_4 H 0.161203 0.390163 0.892203
C56_4 C 0.3663(17) 0.0219(12) 0.8473(8)
H48_4 H 0.379801 0.019049 0.825637
H49_4 H 0.390515 0.076964 0.854941
N5_4 N 0.2238(17) 0.0095(13) 0.8543(3)
C61_4 C 0.2350(14) 0.0167(12) 0.8856(3)
H63_4 H 0.304276 0.026662 0.894287
O12_4 O 0.0142(4) 0.9754(4) 0.96373(13)
H50_4 H 0.406507 0.976620 0.857386
C59_4 C 0.1330(16) 0.9549(9) 0.8416(2)
H57_4 H 0.135848 0.956259 0.819643
H58_4 H 0.141981 0.896432 0.848562
H59_4 H 0.062633 0.976746 0.848408
C1_4 C 0.9011(5) 0.2621(4) 0.25597(13)
H1_4 H 0.841383 0.228006 0.246720
C6_4 C 0.9898(5) 0.2503(4) 0.20708(12)
H3_4 H 0.917863 0.253106 0.199412
H5_4 H 0.973535 0.245441 0.148622
C11_4 C 0.9886(4) 0.2963(4) 0.05495(11)
C13_4 C 0.9282(5) 0.2218(4) 0.28763(12)
H6_4 H 0.886480 0.253452 0.303290
H9_4 H 0.971154 0.328702 0.100150
C25_4 C 0.8623(7) 0.3547(5) 0.25788(16)
C30_4 C 0.8929(5) 0.1289(4) 0.28859(14)
C37_4 C 0.7827(7) 0.1109(6) 0.2897(3)
H27_4 H 0.732921 0.156753 0.290990
C38_4 C 0.7731(8) 0.3789(7) 0.2398(3)
H28_4 H 0.738614 0.338603 0.227218
C40_4 C 0.9626(8) 0.0592(6) 0.2856(3)
C44_4 C 0.9062(13) 0.4139(6) 0.2765(2)
H36_4 H 0.964709 0.397217 0.289102
C45_4 C 0.7411(9) 0.0276(7) 0.2891(3)
H37_4 H 0.665271 0.017568 0.290783
C46_4 C 0.7351(12) 0.4647(11) 0.2407(5)
H38_4 H 0.676099 0.482391 0.228522
C47_3 C 0.7872(19) 0.5218(11) 0.2601(5)
H39_3 H 0.763506 0.579024 0.260494
C48_4 C 0.870(2) 0.4981(9) 0.2783(4)
H40_3 H 0.902545 0.537159 0.291767
C51_4 C 0.9058(5) 0.3598(3) 0.04280(12)
C57_4 C 0.9637(8) 0.3358(6) 0.9352(2)
H51_4 H 0.941079 0.394784 0.932404
H52_4 H 0.915991 0.298574 0.923493
H53_4 H 0.958697 0.320844 0.956464
C47_4 C 0.2872(19) 0.9782(11) 0.7399(5)
H39_4 H 0.263506 0.920976 0.739506
H40_4 H 0.402545 0.962841 0.708233
C42_4 C 0.8146(13) 0.9598(7) 0.2860(3)
H34_4 H 0.788870 0.903206 0.284744
C43_4 C 0.9214(12) 0.9763(6) 0.2848(4)
H35_4 H 0.970928 0.930326 0.283467
H55_4 H 0.916274 0.862173 0.003416
N3_4 N 0.8920(8) 0.8625(6) 0.9590(3)
C53_4 C 0.9701(8) 0.9179(7) 0.9485(3)
H43_4 H 0.992097 0.912160 0.928241
C58_4 C 0.8547(15) 0.8699(11) 0.9897(3)
H54_4 H 0.799730 0.826398 0.993728
H56_4 H 0.822859 0.926103 0.992860
C60_4 C 0.8428(14) 0.7968(10) 0.9384(5)
H60_4 H 0.789254 0.763239 0.949530
H61_4 H 0.807010 0.825139 0.921537
H62_4 H 0.900220 0.759502 0.930843
loop_
_geom_bond_atom_site_label_1
_geom_bond_atom_site_label_2
_geom_bond_site_symmetry_1
_geom_bond_site_symmetry_2
H39 C47 1_555 1_555
O2 C51 1_555 1_555
C1 H1 1_555 1_555
H3 C6 1_555 1_555
C13 C1 1_555 1_555
H6 C13 1_555 1_555
C25 C1 1_555 1_555
O10 C51 1_555 1_555
C30 C13 1_555 1_555
C37 C30 1_555 1_555
H27 C37 1_555 1_555
C38 C25 1_555 1_555
H28 C38 1_555 1_555
C40 C30 1_555 1_555
C42 H34 1_555 1_555
C43 C40 1_555 1_555
H35 C43 1_555 1_555
C44 C25 1_555 1_555
H36 C44 1_555 1_555
C45 C37 1_555 1_555
H37 C45 1_555 1_555
C46 C38 1_555 1_555
H38 C46 1_555 1_555
C48 C44 1_555 1_555
C51 C11 1_555 1_555
N3 C53 1_555 1_555
H43 C53 1_555 1_555
H51 C57 1_555 1_555
H52 C57 1_555 1_555
H53 C57 1_555 1_555
C58 N3 1_555 1_555
H54 C58 1_555 1_555
H55 C58 1_555 1_555
H56 C58 1_555 1_555
C60 N3 1_555 1_555
H60 C60 1_555 1_555
H61 C60 1_555 1_555
H62 C60 1_555 1_555
Cd7 O2 1_555 1_555
C42 C43 1_555 1_555
C42 C45 1_555 1_555
Cd1 O7 1_555 1_555
Cu1 O5 1_555 1_555
O1 C2 1_555 1_555
O3 C8 1_555 1_555
O4 C2 1_555 1_555
O5 C21 1_555 1_555
C2 C4 1_555 1_555
N1 Cu1 1_555 1_555
O7 C19 1_555 1_555
C3 H2 1_555 1_555
C4 C3 1_555 1_555
C5 C10 1_555 1_555
O8 Cu1 1_555 1_555
O9 Cd1 1_555 1_555
C7 C4 1_555 1_555
H4 C7 1_555 1_555
C8 C49 1_555 1_555
C9 C17 1_555 1_555
C12 C17 1_555 1_555
C14 H7 1_555 1_555
C16 O8 1_555 1_555
N2 Cu1 1_555 1_555
C17 H8 1_555 1_555
C19 O9 1_555 1_555
C20 C28 1_555 1_555
C21 C15 1_555 1_555
C22 H10 1_555 1_555
H11 C22 1_555 1_555
H12 C22 1_555 1_555
C23 C5 1_555 1_555
H13 C23 1_555 1_555
C24 C16 1_555 1_555
C26 C9 1_555 1_555
C27 C9 1_555 1_555
H14 C27 1_555 1_555
C28 H15 1_555 1_555
H16 C28 1_555 1_555
H17 C28 1_555 1_555
C29 C20 1_555 1_555
C31 C3 1_555 1_555
C32 C14 1_555 1_555
C33 C20 1_555 1_555
H18 C33 1_555 1_555
H19 C33 1_555 1_555
H20 C33 1_555 1_555
C34 H21 1_555 1_555
H22 C34 1_555 1_555
H23 C34 1_555 1_555
C35 C20 1_555 1_555
H24 C35 1_555 1_555
H25 C35 1_555 1_555
H26 C35 1_555 1_555
C36 C22 1_555 1_555
C39 C24 1_555 1_555
H29 C39 1_555 1_555
C41 C36 1_555 1_555
H31 C41 1_555 1_555
H32 C41 1_555 1_555
H33 C41 1_555 1_555
C49 C27 1_555 1_555
C50 C12 1_555 1_555
H41 C50 1_555 1_555
C52 N2 1_555 1_555
H42 C52 1_555 1_555
Cd2 O1 1_555 1_555
O11 Cd2 1_555 1_555
O12 Cd2 1_555 1_555
O13 Cd2 1_555 1_555
C54 O13 1_555 1_555
H44 C54 1_555 1_555
N4 C54 1_555 1_555
C55 N4 1_555 1_555
H45 C55 1_555 1_555
H46 C55 1_555 1_555
H47 C55 1_555 1_555
C56 H48 1_555 1_555
H49 C56 1_555 1_555
H50 C56 1_555 1_555
N5 C56 1_555 1_555
C59 N5 1_555 1_555
H57 C59 1_555 1_555
H58 C59 1_555 1_555
H59 C59 1_555 1_555
C61 O11 1_555 1_555
H63 C61 1_555 1_555
Cd5 O4 1_555 1_555
O14 Cd2 1_555 1_555
O15 Cd2 1_555 1_555
O18 Cd1 1_555 1_555
Cd6 O3 1_555 1_555
C5 C31 1_555 1_555
C10 C15 1_555 1_555
C12 C19 1_555 1_555
C14 C26 1_555 1_555
C16 C32 1_555 1_555
C18 C31 1_555 1_555
C21 C29 1_555 1_555
C23 C29 1_555 1_555
C24 C52 1_555 1_555
C26 C39 1_555 1_555
C32 C36 1_555 1_555
C34 C36 1_555 1_555
C49 C50 1_555 1_555
N5 C61 1_555 1_555
Cd5 O15 1_555 1_555
O6 Cd4 1_555 1_555
Cd3 O7_2 1_555 1_555
C22_2 H10_2 1_555 1_555
H12_2 C22_2 1_555 1_555
C34_2 H21_2 1_555 1_555
H22_2 C34_2 1_555 1_555
H23_2 C34_2 1_555 1_555
O16_2 Cd3 1_555 1_555
O18_2 Cd3 1_555 1_555
Cd6 O1_2 1_555 1_555
O11_2 Cd6 1_555 1_555
O12_2 Cd6 1_555 1_555
O13_2 Cd6 1_555 1_555
N3_2 C53_2 1_555 1_555
C53_2 O12_2 1_555 1_555
H43_2 C53_2 1_555 1_555
C54_2 O13_2 1_555 1_555
H44_2 C54_2 1_555 1_555
N4_2 C54_2 1_555 1_555
C55_2 N4_2 1_555 1_555
H45_2 C55_2 1_555 1_555
H46_2 C55_2 1_555 1_555
H47_2 C55_2 1_555 1_555
C56_2 H48_2 1_555 1_555
H49_2 C56_2 1_555 1_555
H50_2 C56_2 1_555 1_555
N5_2 C56_2 1_555 1_555
C57_2 N4_2 1_555 1_555
H51_2 C57_2 1_555 1_555
H52_2 C57_2 1_555 1_555
H53_2 C57_2 1_555 1_555
C58_2 N3_2 1_555 1_555
H54_2 C58_2 1_555 1_555
H56_2 C58_2 1_555 1_555
C59_2 N5_2 1_555 1_555
H57_2 C59_2 1_555 1_555
H58_2 C59_2 1_555 1_555
H59_2 C59_2 1_555 1_555
C60_2 N3_2 1_555 1_555
H60_2 C60_2 1_555 1_555
H61_2 C60_2 1_555 1_555
H62_2 C60_2 1_555 1_555
C61_2 O11_2 1_555 1_555
H63_2 C61_2 1_555 1_555
O14_2 Cd6 1_555 1_555
N5_2 C61_2 1_555 1_555
Cu1_2 O5_2 1_555 1_555
O2_2 C51_2 1_555 1_555
O15 C8_2 1_555 1_555
O4_2 C2_2 1_555 1_555
O5_2 C21_2 1_555 1_555
C1_2 H1_2 1_555 1_555
C2_2 C4_2 1_555 1_555
O6_2 C8_2 1_555 1_555
N1_2 Cu1_2 1_555 1_555
C3_2 H2_2 1_555 1_555
C4_2 C3_2 1_555 1_555
C5_2 C10_2 1_555 1_555
C6_2 N1_2 1_555 1_555
H3_2 C6_2 1_555 1_555
O8_2 Cu1_2 1_555 1_555
C7_2 C4_2 1_555 1_555
H4_2 C7_2 1_555 1_555
C8_2 C49_2 1_555 1_555
C9_2 C17_2 1_555 1_555
C10_2 H5_2 1_555 1_555
C11_2 C7_2 1_555 1_555
C12_2 C17_2 1_555 1_555
C13_2 C1_2 1_555 1_555
H6_2 C13_2 1_555 1_555
C14_2 H7_2 1_555 1_555
C15_2 C6_2 1_555 1_555
C16_2 O8_2 1_555 1_555
N2_2 Cu1_2 1_555 1_555
C17_2 H8_2 1_555 1_555
C18_2 C11_2 1_555 1_555
H9_2 C18_2 1_555 1_555
C19_2 O9_2 1_555 1_555
C20_2 C28_2 1_555 1_555
C21_2 C15_2 1_555 1_555
C23_2 C5_2 1_555 1_555
H13_2 C23_2 1_555 1_555
C24_2 C16_2 1_555 1_555
C25_2 C1_2 1_555 1_555
O19 C51_2 1_555 1_555
C26_2 C9_2 1_555 1_555
C27_2 C9_2 1_555 1_555
H14_2 C27_2 1_555 1_555
H16_2 C28_2 1_555 1_555
H17_2 C28_2 1_555 1_555
C29_2 C20_2 1_555 1_555
C30_2 C13_2 1_555 1_555
C31_2 C3_2 1_555 1_555
C32_2 C14_2 1_555 1_555
C33_2 C20_2 1_555 1_555
H19_2 C33_2 1_555 1_555
H20_2 C33_2 1_555 1_555
C35_2 C20_2 1_555 1_555
H25_2 C35_2 1_555 1_555
H26_2 C35_2 1_555 1_555
C37_2 C30_2 1_555 1_555
H27_2 C37_2 1_555 1_555
C38_2 C25_2 1_555 1_555
H28_2 C38_2 1_555 1_555
C39_2 C24_2 1_555 1_555
H29_2 C39_2 1_555 1_555
C40_2 C30_2 1_555 1_555
H30_2 C40_2 1_555 1_555
C41_2 C36_2 1_555 1_555
H31_2 C41_2 1_555 1_555
H33_2 C41_2 1_555 1_555
C42_2 H34_2 1_555 1_555
C43_2 C40_2 1_555 1_555
H35_2 C43_2 1_555 1_555
C44_2 C25_2 1_555 1_555
H36_2 C44_2 1_555 1_555
C45_2 C37_2 1_555 1_555
H37_2 C45_2 1_555 1_555
C46_2 C38_2 1_555 1_555
H38_2 C46_2 1_555 1_555
C48_2 C44_2 1_555 1_555
C49_2 C27_2 1_555 1_555
C50_2 C12_2 1_555 1_555
H41_2 C50_2 1_555 1_555
C51_2 C11_2 1_555 1_555
C52_2 N2_2 1_555 1_555
H42_2 C52_2 1_555 1_555
Cd4 O4_2 1_555 1_555
Cd7_2 O2_2 1_555 1_555
C1_2 N1_2 1_555 1_555
O6_2 Cd5 1_555 1_555
C5_2 C31_2 1_555 1_555
C10_2 C15_2 1_555 1_555
C12_2 C19_2 1_555 1_555
C13_2 N2_2 1_555 1_555
C14_2 C26_2 1_555 1_555
C16_2 C32_2 1_555 1_555
C18_2 C31_2 1_555 1_555
C21_2 C29_2 1_555 1_555
C23_2 C29_2 1_555 1_555
C24_2 C52_2 1_555 1_555
C26_2 C39_2 1_555 1_555
C32_2 C36_2 1_555 1_555
C42_2 C43_2 1_555 1_555
C42_2 C45_2 1_555 1_555
C49_2 C50_2 1_555 1_555
C42_3 H34_3 1_555 1_555
H35_3 C43_3 1_555 1_555
N3_3 C53_3 1_555 1_555
C53_3 O12_3 1_555 1_555
H43_3 C53_3 1_555 1_555
C58_3 N3_3 1_555 1_555
H54_3 C58_3 1_555 1_555
H55_3 C58_3 1_555 1_555
H56_3 C58_3 1_555 1_555
H57_3 C59_3 1_555 1_555
H58_3 C59_3 1_555 1_555
H59_3 C59_3 1_555 1_555
C60_3 N3_3 1_555 1_555
H60_3 C60_3 1_555 1_555
H61_3 C60_3 1_555 1_555
H62_3 C60_3 1_555 1_555
C42_3 C43_3 1_555 1_555
Cu1_3 O5_3 1_555 1_555
O1_3 C2_3 1_555 1_555
O14 C51_3 1_555 1_555
O16 C8_3 1_555 1_555
O17_2 C2_3 1_555 1_555
O5_3 C21_3 1_555 1_555
C1_3 H1_3 1_555 1_555
C2_3 C4_3 1_555 1_555
N1_3 Cu1_3 1_555 1_555
C3_3 H2_3 1_555 1_555
C4_3 C3_3 1_555 1_555
C5_3 C10_3 1_555 1_555
C6_3 N1_3 1_555 1_555
H3_3 C6_3 1_555 1_555
O8_3 Cu1_3 1_555 1_555
C7_3 C4_3 1_555 1_555
H4_3 C7_3 1_555 1_555
C8_3 C49_3 1_555 1_555
C9_3 C17_3 1_555 1_555
C10_3 H5_3 1_555 1_555
C11_3 C7_3 1_555 1_555
C12_3 C17_3 1_555 1_555
C13_3 C1_3 1_555 1_555
H6_3 C13_3 1_555 1_555
C14_3 H7_3 1_555 1_555
C15_3 C6_3 1_555 1_555
C16_3 O8_3 1_555 1_555
N2_3 Cu1_3 1_555 1_555
C17_3 H8_3 1_555 1_555
C18_3 C11_3 1_555 1_555
H9_3 C18_3 1_555 1_555
C19_3 O9_3 1_555 1_555
C20_3 C28_3 1_555 1_555
C21_3 C15_3 1_555 1_555
C23_3 C5_3 1_555 1_555
H13_3 C23_3 1_555 1_555
C24_3 C16_3 1_555 1_555
C25_3 C1_3 1_555 1_555
O10_2 C51_3 1_555 1_555
C26_3 C9_3 1_555 1_555
C27_3 C9_3 1_555 1_555
H14_3 C27_3 1_555 1_555
H16_3 C28_3 1_555 1_555
H17_3 C28_3 1_555 1_555
C29_3 C20_3 1_555 1_555
C30_3 C13_3 1_555 1_555
C31_3 C3_3 1_555 1_555
C32_3 C14_3 1_555 1_555
C33_3 C20_3 1_555 1_555
H19_3 C33_3 1_555 1_555
H20_3 C33_3 1_555 1_555
C35_3 C20_3 1_555 1_555
H25_3 C35_3 1_555 1_555
H26_3 C35_3 1_555 1_555
C37_3 C30_3 1_555 1_555
H27_3 C37_3 1_555 1_555
C38_3 C25_3 1_555 1_555
H28_3 C38_3 1_555 1_555
C39_3 C24_3 1_555 1_555
H29_3 C39_3 1_555 1_555
C40_3 C30_3 1_555 1_555
H30_3 C40_3 1_555 1_555
C41_3 C36_3 1_555 1_555
H31_3 C41_3 1_555 1_555
H33_3 C41_3 1_555 1_555
C44_3 C25_3 1_555 1_555
H36_3 C44_3 1_555 1_555
C45_3 C37_3 1_555 1_555
H37_3 C45_3 1_555 1_555
C46_3 C38_3 1_555 1_555
H38_3 C46_3 1_555 1_555
C47_2 C46_3 1_555 1_555
H39_2 C47_2 1_555 1_555
C48_3 C44_3 1_555 1_555
H40_2 C48_3 1_555 1_555
C49_3 C27_3 1_555 1_555
C50_3 C12_3 1_555 1_555
H41_3 C50_3 1_555 1_555
C51_3 C11_3 1_555 1_555
C52_3 N2_3 1_555 1_555
H42_3 C52_3 1_555 1_555
Cd7 O1_3 1_555 1_555
O11_3 Cd7 1_555 1_555
O13_3 Cd7 1_555 1_555
C54_3 O13_3 1_555 1_555
H44_3 C54_3 1_555 1_555
N4_3 C54_3 1_555 1_555
C55_3 N4_3 1_555 1_555
H45_3 C55_3 1_555 1_555
H46_3 C55_3 1_555 1_555
H47_3 C55_3 1_555 1_555
C56_3 H48_3 1_555 1_555
H49_3 C56_3 1_555 1_555
N5_3 C56_3 1_555 1_555
C57_3 N4_3 1_555 1_555
H51_3 C57_3 1_555 1_555
H52_3 C57_3 1_555 1_555
H53_3 C57_3 1_555 1_555
C61_3 O11_3 1_555 1_555
H63_3 C61_3 1_555 1_555
Cd5 O10_2 1_555 1_555
C1_3 N1_3 1_555 1_555
C5_3 C31_3 1_555 1_555
C10_3 C15_3 1_555 1_555
C12_3 C19_3 1_555 1_555
C13_3 N2_3 1_555 1_555
C14_3 C26_3 1_555 1_555
C16_3 C32_3 1_555 1_555
C18_3 C31_3 1_555 1_555
C21_3 C29_3 1_555 1_555
C23_3 C29_3 1_555 1_555
C24_3 C52_3 1_555 1_555
C26_3 C39_3 1_555 1_555
C32_3 C36_3 1_555 1_555
C47_2 C48_3 1_555 1_555
C49_3 C50_3 1_555 1_555
N5_3 C61_3 1_555 1_555
Cd4 O7_3 1_555 1_555
C22_3 H10_3 1_555 1_555
H12_3 C22_3 1_555 1_555
C34_3 H21_3 1_555 1_555
H22_3 C34_3 1_555 1_555
H23_3 C34_3 1_555 1_555
Cd5 O7_4 1_555 1_555
Cu1_4 O5_4 1_555 1_555
O16_2 C8_4 1_555 1_555
O17 C2_4 1_555 1_555
O5_4 C21_4 1_555 1_555
C2_4 C4_4 1_555 1_555
O18_2 C8_4 1_555 1_555
N1_4 Cu1_4 1_555 1_555
O7_4 C19_4 1_555 1_555
C3_4 H2_4 1_555 1_555
C4_4 C3_4 1_555 1_555
C5_4 C10_4 1_555 1_555
O8_4 Cu1_4 1_555 1_555
O9_4 Cd5 1_555 1_555
C7_4 C4_4 1_555 1_555
H4_4 C7_4 1_555 1_555
C8_4 C49_4 1_555 1_555
C9_4 C17_4 1_555 1_555
C12_4 C17_4 1_555 1_555
C14_4 H7_4 1_555 1_555
C16_4 O8_4 1_555 1_555
N2_4 Cu1_4 1_555 1_555
C17_4 H8_4 1_555 1_555
C19_4 O9_4 1_555 1_555
C20_4 C28_4 1_555 1_555
C21_4 C15_4 1_555 1_555
C22_4 H10_4 1_555 1_555
H11_4 C22_4 1_555 1_555
H12_4 C22_4 1_555 1_555
C23_4 C5_4 1_555 1_555
H13_4 C23_4 1_555 1_555
C24_4 C16_4 1_555 1_555
C26_4 C9_4 1_555 1_555
C27_4 C9_4 1_555 1_555
H14_4 C27_4 1_555 1_555
C28_4 H15_4 1_555 1_555
H16_4 C28_4 1_555 1_555
H17_4 C28_4 1_555 1_555
C29_4 C20_4 1_555 1_555
C31_4 C3_4 1_555 1_555
C32_4 C14_4 1_555 1_555
C33_4 C20_4 1_555 1_555
H18_4 C33_4 1_555 1_555
H19_4 C33_4 1_555 1_555
H20_4 C33_4 1_555 1_555
C34_4 H21_4 1_555 1_555
H22_4 C34_4 1_555 1_555
H23_4 C34_4 1_555 1_555
C35_4 C20_4 1_555 1_555
H24_4 C35_4 1_555 1_555
H25_4 C35_4 1_555 1_555
H26_4 C35_4 1_555 1_555
C36_4 C22_4 1_555 1_555
C39_4 C24_4 1_555 1_555
H29_4 C39_4 1_555 1_555
C41_4 C36_4 1_555 1_555
H31_4 C41_4 1_555 1_555
H32_4 C41_4 1_555 1_555
H33_4 C41_4 1_555 1_555
C49_4 C27_4 1_555 1_555
C50_4 C12_4 1_555 1_555
H41_4 C50_4 1_555 1_555
C52_4 N2_4 1_555 1_555
H42_4 C52_4 1_555 1_555
C5_4 C31_4 1_555 1_555
C10_4 C15_4 1_555 1_555
C12_4 C19_4 1_555 1_555
C14_4 C26_4 1_555 1_555
C16_4 C32_4 1_555 1_555
C18_4 C31_4 1_555 1_555
C21_4 C29_4 1_555 1_555
C23_4 C29_4 1_555 1_555
C24_4 C52_4 1_555 1_555
C26_4 C39_4 1_555 1_555
C32_4 C36_4 1_555 1_555
C34_4 C36_4 1_555 1_555
C49_4 C50_4 1_555 1_555
Cd7_2 O1_4 1_555 1_555
O11_4 Cd7_2 1_555 1_555
O13_4 Cd7_2 1_555 1_555
C54_4 O13_4 1_555 1_555
H44_4 C54_4 1_555 1_555
N4_4 C54_4 1_555 1_555
C55_4 N4_4 1_555 1_555
H45_4 C55_4 1_555 1_555
H46_4 C55_4 1_555 1_555
H47_4 C55_4 1_555 1_555
C56_4 H48_4 1_555 1_555
H49_4 C56_4 1_555 1_555
N5_4 C56_4 1_555 1_555
C61_4 O11_4 1_555 1_555
H63_4 C61_4 1_555 1_555
N5_4 C61_4 1_555 1_555
H57_4 C59_4 1_555 1_555
H58_4 C59_4 1_555 1_555
H59_4 C59_4 1_555 1_555
O14_2 C51_4 1_555 1_555
C1_4 H1_4 1_555 1_555
H3_4 C6_4 1_555 1_555
C13_4 C1_4 1_555 1_555
H6_4 C13_4 1_555 1_555
C25_4 C1_4 1_555 1_555
O19_2 C51_4 1_555 1_555
C30_4 C13_4 1_555 1_555
C37_4 C30_4 1_555 1_555
H27_4 C37_4 1_555 1_555
C38_4 C25_4 1_555 1_555
H28_4 C38_4 1_555 1_555
C40_4 C30_4 1_555 1_555
C44_4 C25_4 1_555 1_555
H36_4 C44_4 1_555 1_555
C45_4 C37_4 1_555 1_555
H37_4 C45_4 1_555 1_555
C46_4 C38_4 1_555 1_555
H38_4 C46_4 1_555 1_555
C47_3 C46_4 1_555 1_555
H39_3 C47_3 1_555 1_555
C48_4 C44_4 1_555 1_555
H40_3 C48_4 1_555 1_555
C51_4 C11_4 1_555 1_555
C47_3 C48_4 1_555 1_555
H51_4 C57_4 1_555 1_555
H52_4 C57_4 1_555 1_555
H53_4 C57_4 1_555 1_555
H39_4 C47_4 1_555 1_555
C42_4 H34_4 1_555 1_555
H35_4 C43_4 1_555 1_555
C42_4 C43_4 1_555 1_555
N3_4 C53_4 1_555 1_555
H43_4 C53_4 1_555 1_555
C58_4 N3_4 1_555 1_555
H54_4 C58_4 1_555 1_555
H56_4 C58_4 1_555 1_555
C60_4 N3_4 1_555 1_555
H60_4 C60_4 1_555 1_555
H61_4 C60_4 1_555 1_555
H62_4 C60_4 1_555 1_555

#END
