
###############################################################################
#
# This file contains modified crystal structure data generated from the
# MOF subset of the Cambridge Structural Database (CSD) v543 
# hosted by the Cambridge Crystallographic Data Centre (CCDC).
#
# This work is licensed under the Creative Commons
# Attribution-NonCommercial-ShareAlike 4.0 International License.
# To view a copy of this license, visit
# http://creativecommons.org/licenses/by-nc-sa/4.0/
# or send a letter to
# Creative Commons, PO Box 1866, Mountain View, CA 94042, USA.
#
# CIF created using the CSD Python API on 29 September 2022
# The structure has been converted into the P1 space group
# The structure has a 3D framework
# The original CSD entry UDOVUG is in the tetragonal crystal system
# The framework has been calculated to contain at least 10.0% void space
# The void calculation uses a probe of radius 1.32A, grid spacing 0.4
# H atom positions have been added when not included in the experimental data
# Generated hydrogen atom positions removed from atoms on special positions
#
###############################################################################

data_UDOVUG
_chemical_formula_moiety         '(C112 H112 O92 P16 Zn16)n'
_symmetry_cell_setting           triclinic
_symmetry_space_group_name_H-M   'P 1'
_symmetry_Int_Tables_number      1
_space_group_name_Hall           'P 1'
loop_
_symmetry_equiv_pos_site_id
_symmetry_equiv_pos_as_xyz
1 x,y,z
_cell_length_a                   23.986(6)
_cell_length_b                   23.986(6)
_cell_length_c                   10.481(4)
_cell_angle_alpha                90
_cell_angle_beta                 90
_cell_angle_gamma                90
_cell_volume                     6030.01
loop_
_atom_site_label
_atom_site_type_symbol
_atom_site_fract_x
_atom_site_fract_y
_atom_site_fract_z
Zn1 Zn 0.57915(4) 0.02035(4) 0.61049(10)
P1 P 0.51073(10) 0.08499(9) 0.4110(2)
O1 O 0.5520(3) 0.0850(2) 0.5206(6)
O2 O 0.5430(3) 0.0792(3) 0.2875(7)
O3 O 0.4659(3) 0.0428(3) 0.4260(9)
O4 O 0.5652(4) 0.3029(3) 0.4151(12)
O5 O 0.4876(3) 0.3493(3) 0.4360(8)
C1 C 0.4764(3) 0.1520(3) 0.4114(8)
C2 C 0.4191(4) 0.1554(4) 0.4090(12)
H1 H 0.3980 0.1229 0.4052
C3 C 0.3927(5) 0.2062(5) 0.4121(15)
H2 H 0.3540 0.2080 0.4082
C4 C 0.4238(5) 0.2544(4) 0.4211(13)
H3 H 0.4058 0.2886 0.4277
C5 C 0.4805(4) 0.2526(4) 0.4203(8)
C6 C 0.5066(4) 0.2002(3) 0.4161(8)
H4 H 0.5454 0.1983 0.4165
C7 C 0.5142(5) 0.3054(4) 0.4229(11)
Zn3 Zn 0.52035(4) 0.42085(4) 0.38951(10)
Zn4 Zn 0.52035(4) 0.07915(4) 0.11049(10)
O6 O 0.5792(3) 0.0430(3) 0.7875(7)
Zn2 Zn 0.42085(4) 0.97965(4) 0.38951(10)
O7 O 0.5341(3) 0.9572(3) 0.5740(9)
O8 O 0.6507(3) 0.9876(3) 0.5640(8)
O3_2 O 0.0341(3) 0.4572(3) 0.4260(9)
O5_2 O 0.0124(3) 0.1507(3) 0.4360(8)
C1_2 C 0.0236(3) 0.3480(3) 0.4114(8)
C2_2 C 0.0809(4) 0.3446(4) 0.4090(12)
H1_2 H 0.1020 0.3771 0.4052
C3_2 C 0.1073(5) 0.2938(5) 0.4121(15)
H2_2 H 0.1460 0.2920 0.4082
C4_2 C 0.0762(5) 0.2456(4) 0.4211(13)
H3_2 H 0.0942 0.2114 0.4277
C5_2 C 0.0195(4) 0.2474(4) 0.4203(8)
Zn2_2 Zn 0.07915(4) 0.52035(4) 0.38951(10)
Zn1_2 Zn 0.92085(4) 0.47965(4) 0.61049(10)
P1_2 P 0.98927(10) 0.41501(9) 0.4110(2)
O1_2 O 0.9480(3) 0.4150(2) 0.5206(6)
O2_2 O 0.9570(3) 0.4208(3) 0.2875(7)
O4_2 O 0.9348(4) 0.1971(3) 0.4151(12)
C6_2 C 0.9934(4) 0.2998(3) 0.4161(8)
H4_2 H 0.9546 0.3017 0.4165
C7_2 C 0.9858(5) 0.1946(4) 0.4229(11)
Zn3_2 Zn 0.97965(4) 0.07915(4) 0.38951(10)
Zn4_2 Zn 0.97965(4) 0.42085(4) 0.11049(10)
O6_2 O 0.9208(3) 0.4570(3) 0.7875(7)
O7_2 O 0.9659(3) 0.5428(3) 0.5740(9)
O8_2 O 0.8493(3) 0.5124(3) 0.5640(8)
Zn1_3 Zn 0.47965(4) 0.57915(4) 0.61049(10)
P1_3 P 0.41501(9) 0.51073(10) 0.4110(2)
O1_3 O 0.4150(2) 0.5520(3) 0.5206(6)
O2_3 O 0.4208(3) 0.5430(3) 0.2875(7)
O3_3 O 0.4572(3) 0.4659(3) 0.4260(9)
O4_3 O 0.1971(3) 0.5652(4) 0.4151(12)
O5_3 O 0.1507(3) 0.4876(3) 0.4360(8)
C1_3 C 0.3480(3) 0.4764(3) 0.4114(8)
C2_3 C 0.3446(4) 0.4191(4) 0.4090(12)
H1_3 H 0.3771 0.3980 0.4052
C3_3 C 0.2938(5) 0.3927(5) 0.4121(15)
H2_3 H 0.2920 0.3540 0.4082
C4_3 C 0.2456(4) 0.4238(5) 0.4211(13)
H3_3 H 0.2114 0.4058 0.4277
C5_3 C 0.2474(4) 0.4805(4) 0.4203(8)
C6_3 C 0.2998(3) 0.5066(4) 0.4161(8)
H4_3 H 0.3017 0.5454 0.4165
C7_3 C 0.1946(4) 0.5142(5) 0.4229(11)
Zn4_3 Zn 0.42085(4) 0.52035(4) 0.11049(10)
O6_3 O 0.4570(3) 0.5792(3) 0.7875(7)
O7_3 O 0.5428(3) 0.5341(3) 0.5740(9)
O8_3 O 0.5124(3) 0.6507(3) 0.5640(8)
O3_4 O 0.0428(3) 0.0341(3) 0.4260(9)
O5_4 O 0.3493(3) 0.0124(3) 0.4360(8)
C1_4 C 0.1520(3) 0.0236(3) 0.4114(8)
C2_4 C 0.1554(4) 0.0809(4) 0.4090(12)
H1_4 H 0.1229 0.1020 0.4052
C3_4 C 0.2062(5) 0.1073(5) 0.4121(15)
H2_4 H 0.2080 0.1460 0.4082
C4_4 C 0.2544(4) 0.0762(5) 0.4211(13)
H3_4 H 0.2886 0.0942 0.4277
C5_4 C 0.2526(4) 0.0195(4) 0.4203(8)
Zn1_4 Zn 0.02035(4) 0.92085(4) 0.61049(10)
P1_4 P 0.08499(9) 0.98927(10) 0.4110(2)
O1_4 O 0.0850(2) 0.9480(3) 0.5206(6)
O2_4 O 0.0792(3) 0.9570(3) 0.2875(7)
O4_4 O 0.3029(3) 0.9348(4) 0.4151(12)
C6_4 C 0.2002(3) 0.9934(4) 0.4161(8)
H4_4 H 0.1983 0.9546 0.4165
C7_4 C 0.3054(4) 0.9858(5) 0.4229(11)
Zn4_4 Zn 0.07915(4) 0.97965(4) 0.11049(10)
O6_4 O 0.0430(3) 0.9208(3) 0.7875(7)
O7_4 O 0.9572(3) 0.9659(3) 0.5740(9)
O8_4 O 0.9876(3) 0.8493(3) 0.5640(8)
O3_5 O 0.0341(3) 0.0428(3) 0.0740(9)
O5_5 O 0.0124(3) 0.3493(3) 0.0640(8)
C1_5 C 0.0236(3) 0.1520(3) 0.0886(8)
C2_5 C 0.0809(4) 0.1554(4) 0.0910(12)
H1_5 H 0.1020 0.1229 0.0948
C3_5 C 0.1073(5) 0.2062(5) 0.0879(15)
H2_5 H 0.1460 0.2080 0.0918
C4_5 C 0.0762(5) 0.2544(4) 0.0789(13)
H3_5 H 0.0942 0.2886 0.0723
C5_5 C 0.0195(4) 0.2526(4) 0.0797(8)
P1_5 P 0.98927(10) 0.08499(9) 0.0890(2)
O2_5 O 0.9570(3) 0.0792(3) 0.2125(7)
O4_5 O 0.9348(4) 0.3029(3) 0.0849(12)
C6_5 C 0.9934(4) 0.2002(3) 0.0839(8)
H4_5 H 0.9546 0.1983 0.0835
C7_5 C 0.9858(5) 0.3054(4) 0.0771(11)
Zn1_5 Zn 0.92085(4) 0.02035(4) 0.88951(10)
O1_5 O 0.9480(3) 0.0850(2) 0.9794(6)
O6_5 O 0.9208(3) 0.0430(3) 0.7125(7)
O7_5 O 0.9659(3) 0.9572(3) 0.9260(9)
O8_5 O 0.8493(3) 0.9876(3) 0.9360(8)
P1_6 P 0.51073(10) 0.41501(9) 0.0890(2)
O2_6 O 0.5430(3) 0.4208(3) 0.2125(7)
O3_6 O 0.4659(3) 0.4572(3) 0.0740(9)
O4_6 O 0.5652(4) 0.1971(3) 0.0849(12)
O5_6 O 0.4876(3) 0.1507(3) 0.0640(8)
C1_6 C 0.4764(3) 0.3480(3) 0.0886(8)
C2_6 C 0.4191(4) 0.3446(4) 0.0910(12)
H1_6 H 0.3980 0.3771 0.0948
C3_6 C 0.3927(5) 0.2938(5) 0.0879(15)
H2_6 H 0.3540 0.2920 0.0918
C4_6 C 0.4238(5) 0.2456(4) 0.0789(13)
H3_6 H 0.4058 0.2114 0.0723
C5_6 C 0.4805(4) 0.2474(4) 0.0797(8)
C6_6 C 0.5066(4) 0.2998(3) 0.0839(8)
H4_6 H 0.5454 0.3017 0.0835
C7_6 C 0.5142(5) 0.1946(4) 0.0771(11)
Zn1_6 Zn 0.57915(4) 0.47965(4) 0.88951(10)
O1_6 O 0.5520(3) 0.4150(2) 0.9794(6)
O6_6 O 0.5792(3) 0.4570(3) 0.7125(7)
O7_6 O 0.5341(3) 0.5428(3) 0.9260(9)
O8_6 O 0.6507(3) 0.5124(3) 0.9360(8)
P1_7 P 0.08499(9) 0.51073(10) 0.0890(2)
O2_7 O 0.0792(3) 0.5430(3) 0.2125(7)
O3_7 O 0.0428(3) 0.4659(3) 0.0740(9)
O4_7 O 0.3029(3) 0.5652(4) 0.0849(12)
O5_7 O 0.3493(3) 0.4876(3) 0.0640(8)
C1_7 C 0.1520(3) 0.4764(3) 0.0886(8)
C2_7 C 0.1554(4) 0.4191(4) 0.0910(12)
H1_7 H 0.1229 0.3980 0.0948
C3_7 C 0.2062(5) 0.3927(5) 0.0879(15)
H2_7 H 0.2080 0.3540 0.0918
C4_7 C 0.2544(4) 0.4238(5) 0.0789(13)
H3_7 H 0.2886 0.4058 0.0723
C5_7 C 0.2526(4) 0.4805(4) 0.0797(8)
C6_7 C 0.2002(3) 0.5066(4) 0.0839(8)
H4_7 H 0.1983 0.5454 0.0835
C7_7 C 0.3054(4) 0.5142(5) 0.0771(11)
Zn1_7 Zn 0.02035(4) 0.57915(4) 0.88951(10)
O1_7 O 0.0850(2) 0.5520(3) 0.9794(6)
O6_7 O 0.0430(3) 0.5792(3) 0.7125(7)
O7_7 O 0.9572(3) 0.5341(3) 0.9260(9)
O8_7 O 0.9876(3) 0.6507(3) 0.9360(8)
O3_8 O 0.4572(3) 0.0341(3) 0.0740(9)
O5_8 O 0.1507(3) 0.0124(3) 0.0640(8)
C1_8 C 0.3480(3) 0.0236(3) 0.0886(8)
C2_8 C 0.3446(4) 0.0809(4) 0.0910(12)
H1_8 H 0.3771 0.1020 0.0948
C3_8 C 0.2938(5) 0.1073(5) 0.0879(15)
H2_8 H 0.2920 0.1460 0.0918
C4_8 C 0.2456(4) 0.0762(5) 0.0789(13)
H3_8 H 0.2114 0.0942 0.0723
C5_8 C 0.2474(4) 0.0195(4) 0.0797(8)
P1_8 P 0.41501(9) 0.98927(10) 0.0890(2)
O2_8 O 0.4208(3) 0.9570(3) 0.2125(7)
O4_8 O 0.1971(3) 0.9348(4) 0.0849(12)
C6_8 C 0.2998(3) 0.9934(4) 0.0839(8)
H4_8 H 0.3017 0.9546 0.0835
C7_8 C 0.1946(4) 0.9858(5) 0.0771(11)
Zn1_8 Zn 0.47965(4) 0.92085(4) 0.88951(10)
O1_8 O 0.4150(2) 0.9480(3) 0.9794(6)
O6_8 O 0.4570(3) 0.9208(3) 0.7125(7)
O7_8 O 0.5428(3) 0.9659(3) 0.9260(9)
O8_8 O 0.5124(3) 0.8493(3) 0.9360(8)
P1_9 P 0.48927(10) 0.91501(9) 0.5890(2)
O1_9 O 0.4480(3) 0.9150(2) 0.4794(6)
O4_9 O 0.4348(4) 0.6971(3) 0.5849(12)
C1_9 C 0.5236(3) 0.8480(3) 0.5886(8)
C2_9 C 0.5809(4) 0.8446(4) 0.5910(12)
H1_9 H 0.6020 0.8771 0.5948
C3_9 C 0.6073(5) 0.7938(5) 0.5879(15)
H2_9 H 0.6460 0.7920 0.5918
C4_9 C 0.5762(5) 0.7456(4) 0.5789(13)
H3_9 H 0.5942 0.7114 0.5723
C5_9 C 0.5195(4) 0.7474(4) 0.5797(8)
C6_9 C 0.4934(4) 0.7998(3) 0.5839(8)
H4_9 H 0.4546 0.8017 0.5835
C7_9 C 0.4858(5) 0.6946(4) 0.5771(11)
P1_10 P 0.01073(10) 0.58499(9) 0.5890(2)
O1_10 O 0.0520(3) 0.5850(2) 0.4794(6)
O4_10 O 0.0652(4) 0.8029(3) 0.5849(12)
C6_10 C 0.0066(4) 0.7002(3) 0.5839(8)
H4_10 H 0.0454 0.6983 0.5835
C7_10 C 0.0142(5) 0.8054(4) 0.5771(11)
C1_10 C 0.9764(3) 0.6520(3) 0.5886(8)
C2_10 C 0.9191(4) 0.6554(4) 0.5910(12)
H1_10 H 0.8980 0.6229 0.5948
C3_10 C 0.8927(5) 0.7062(5) 0.5879(15)
H2_10 H 0.8540 0.7080 0.5918
C4_10 C 0.9238(5) 0.7544(4) 0.5789(13)
H3_10 H 0.9058 0.7886 0.5723
C5_10 C 0.9805(4) 0.7526(4) 0.5797(8)
P1_11 P 0.58499(9) 0.48927(10) 0.5890(2)
O1_11 O 0.5850(2) 0.4480(3) 0.4794(6)
O4_11 O 0.8029(3) 0.4348(4) 0.5849(12)
C1_11 C 0.6520(3) 0.5236(3) 0.5886(8)
C2_11 C 0.6554(4) 0.5809(4) 0.5910(12)
H1_11 H 0.6229 0.6020 0.5948
C3_11 C 0.7062(5) 0.6073(5) 0.5879(15)
H2_11 H 0.7080 0.6460 0.5918
C4_11 C 0.7544(4) 0.5762(5) 0.5789(13)
H3_11 H 0.7886 0.5942 0.5723
C5_11 C 0.7526(4) 0.5195(4) 0.5797(8)
C6_11 C 0.7002(3) 0.4934(4) 0.5839(8)
H4_11 H 0.6983 0.4546 0.5835
C7_11 C 0.8054(4) 0.4858(5) 0.5771(11)
P1_12 P 0.91501(9) 0.01073(10) 0.5890(2)
O1_12 O 0.9150(2) 0.0520(3) 0.4794(6)
O4_12 O 0.6971(3) 0.0652(4) 0.5849(12)
C6_12 C 0.7998(3) 0.0066(4) 0.5839(8)
H4_12 H 0.8017 0.0454 0.5835
C7_12 C 0.6946(4) 0.0142(5) 0.5771(11)
C1_12 C 0.8480(3) 0.9764(3) 0.5886(8)
C2_12 C 0.8446(4) 0.9191(4) 0.5910(12)
H1_12 H 0.8771 0.8980 0.5948
C3_12 C 0.7938(5) 0.8927(5) 0.5879(15)
H2_12 H 0.7920 0.8540 0.5918
C4_12 C 0.7456(4) 0.9238(5) 0.5789(13)
H3_12 H 0.7114 0.9058 0.5723
C5_12 C 0.7474(4) 0.9805(4) 0.5797(8)
O1_13 O 0.0520(3) 0.9150(2) 0.0206(6)
P1_13 P 0.01073(10) 0.91501(9) 0.9110(2)
O4_13 O 0.0652(4) 0.6971(3) 0.9151(12)
C6_13 C 0.0066(4) 0.7998(3) 0.9161(8)
H4_13 H 0.0454 0.8017 0.9165
C7_13 C 0.0142(5) 0.6946(4) 0.9229(11)
C1_13 C 0.9764(3) 0.8480(3) 0.9114(8)
C2_13 C 0.9191(4) 0.8446(4) 0.9090(12)
H1_13 H 0.8980 0.8771 0.9052
C3_13 C 0.8927(5) 0.7938(5) 0.9121(15)
H2_13 H 0.8540 0.7920 0.9082
C4_13 C 0.9238(5) 0.7456(4) 0.9211(13)
H3_13 H 0.9058 0.7114 0.9277
C5_13 C 0.9805(4) 0.7474(4) 0.9203(8)
O1_14 O 0.4480(3) 0.5850(2) 0.0206(6)
P1_14 P 0.48927(10) 0.58499(9) 0.9110(2)
O4_14 O 0.4348(4) 0.8029(3) 0.9151(12)
C1_14 C 0.5236(3) 0.6520(3) 0.9114(8)
C2_14 C 0.5809(4) 0.6554(4) 0.9090(12)
H1_14 H 0.6020 0.6229 0.9052
C3_14 C 0.6073(5) 0.7062(5) 0.9121(15)
H2_14 H 0.6460 0.7080 0.9082
C4_14 C 0.5762(5) 0.7544(4) 0.9211(13)
H3_14 H 0.5942 0.7886 0.9277
C5_14 C 0.5195(4) 0.7526(4) 0.9203(8)
C6_14 C 0.4934(4) 0.7002(3) 0.9161(8)
H4_14 H 0.4546 0.6983 0.9165
C7_14 C 0.4858(5) 0.8054(4) 0.9229(11)
O1_15 O 0.9150(2) 0.4480(3) 0.0206(6)
P1_15 P 0.91501(9) 0.48927(10) 0.9110(2)
O4_15 O 0.6971(3) 0.4348(4) 0.9151(12)
C1_15 C 0.8480(3) 0.5236(3) 0.9114(8)
C2_15 C 0.8446(4) 0.5809(4) 0.9090(12)
H1_15 H 0.8771 0.6020 0.9052
C3_15 C 0.7938(5) 0.6073(5) 0.9121(15)
H2_15 H 0.7920 0.6460 0.9082
C4_15 C 0.7456(4) 0.5762(5) 0.9211(13)
H3_15 H 0.7114 0.5942 0.9277
C5_15 C 0.7474(4) 0.5195(4) 0.9203(8)
C6_15 C 0.7998(3) 0.4934(4) 0.9161(8)
H4_15 H 0.8017 0.4546 0.9165
C7_15 C 0.6946(4) 0.4858(5) 0.9229(11)
O1_16 O 0.5850(2) 0.0520(3) 0.0206(6)
P1_16 P 0.58499(9) 0.01073(10) 0.9110(2)
O4_16 O 0.8029(3) 0.0652(4) 0.9151(12)
C6_16 C 0.7002(3) 0.0066(4) 0.9161(8)
H4_16 H 0.6983 0.0454 0.9165
C7_16 C 0.8054(4) 0.0142(5) 0.9229(11)
C1_16 C 0.6520(3) 0.9764(3) 0.9114(8)
C2_16 C 0.6554(4) 0.9191(4) 0.9090(12)
H1_16 H 0.6229 0.8980 0.9052
C3_16 C 0.7062(5) 0.8927(5) 0.9121(15)
H2_16 H 0.7080 0.8540 0.9082
C4_16 C 0.7544(4) 0.9238(5) 0.9211(13)
H3_16 H 0.7886 0.9058 0.9277
C5_16 C 0.7526(4) 0.9805(4) 0.9203(8)
O9 O 0.6597(17) 0.1263(14) 0.319(3)
O9_2 O 0.8403(17) 0.3737(14) 0.319(3)
O9_3 O 0.3737(14) 0.6597(17) 0.319(3)
O9_4 O 0.1263(14) 0.8403(17) 0.319(3)
O9_5 O 0.8403(17) 0.1263(14) 0.181(3)
O9_6 O 0.6597(17) 0.3737(14) 0.181(3)
O9_7 O 0.1263(14) 0.6597(17) 0.181(3)
O9_8 O 0.3737(14) 0.8403(17) 0.181(3)
O9_9 O 0.3403(17) 0.8737(14) 0.681(3)
O9_10 O 0.1597(17) 0.6263(14) 0.681(3)
O9_11 O 0.6263(14) 0.3403(17) 0.681(3)
O9_12 O 0.8737(14) 0.1597(17) 0.681(3)
O9_13 O 0.1597(17) 0.8737(14) 0.819(3)
O9_14 O 0.3403(17) 0.6263(14) 0.819(3)
O9_15 O 0.8737(14) 0.3403(17) 0.819(3)
O9_16 O 0.6263(14) 0.1597(17) 0.819(3)
loop_
_geom_bond_atom_site_label_1
_geom_bond_atom_site_label_2
_geom_bond_site_symmetry_1
_geom_bond_site_symmetry_2
Zn1 O1 1_555 1_555
P1 O1 1_555 1_555
O2 P1 1_555 1_555
O3 P1 1_555 1_555
O4 C7 1_555 1_555
O5 C7 1_555 1_555
C1 P1 1_555 1_555
C2 C1 1_555 1_555
H1 C2 1_555 1_555
C3 C2 1_555 1_555
H2 C3 1_555 1_555
C4 C3 1_555 1_555
H3 C4 1_555 1_555
C5 C4 1_555 1_555
C6 C1 1_555 1_555
H4 C6 1_555 1_555
C7 C5 1_555 1_555
Zn3 O5 1_555 1_555
Zn4 O2 1_555 1_555
O6 Zn1 1_555 1_555
C5 C6 1_555 1_555
C2_2 C1_2 1_555 1_555
H1_2 C2_2 1_555 1_555
C3_2 C2_2 1_555 1_555
H2_2 C3_2 1_555 1_555
C4_2 C3_2 1_555 1_555
H3_2 C4_2 1_555 1_555
C5_2 C4_2 1_555 1_555
Zn2_2 O3_2 1_555 1_555
Zn1_2 O1_2 1_555 1_555
P1_2 O1_2 1_555 1_555
O2_2 P1_2 1_555 1_555
O4_2 C7_2 1_555 1_555
H4_2 C6_2 1_555 1_555
Zn4_2 O2_2 1_555 1_555
O6_2 Zn1_2 1_555 1_555
O7_2 Zn1_2 1_555 1_555
O8_2 Zn1_2 1_555 1_555
Zn1_3 O1_3 1_555 1_555
P1_3 O1_3 1_555 1_555
O2_3 P1_3 1_555 1_555
O3_3 P1_3 1_555 1_555
O4_3 C7_3 1_555 1_555
O5_3 C7_3 1_555 1_555
C1_3 P1_3 1_555 1_555
C2_3 C1_3 1_555 1_555
H1_3 C2_3 1_555 1_555
C3_3 C2_3 1_555 1_555
H2_3 C3_3 1_555 1_555
C4_3 C3_3 1_555 1_555
H3_3 C4_3 1_555 1_555
C5_3 C4_3 1_555 1_555
C6_3 C1_3 1_555 1_555
H4_3 C6_3 1_555 1_555
C7_3 C5_3 1_555 1_555
Zn3 O3_3 1_555 1_555
Zn2_2 O5_3 1_555 1_555
Zn4_3 O2_3 1_555 1_555
O6_3 Zn1_3 1_555 1_555
O7_3 Zn1_3 1_555 1_555
O8_3 Zn1_3 1_555 1_555
C5_3 C6_3 1_555 1_555
C2_4 C1_4 1_555 1_555
H1_4 C2_4 1_555 1_555
C3_4 C2_4 1_555 1_555
H2_4 C3_4 1_555 1_555
C4_4 C3_4 1_555 1_555
H3_4 C4_4 1_555 1_555
C5_4 C4_4 1_555 1_555
Zn1_4 O1_4 1_555 1_555
P1_4 O1_4 1_555 1_555
O2_4 P1_4 1_555 1_555
O4_4 C7_4 1_555 1_555
H4_4 C6_4 1_555 1_555
Zn4_4 O2_4 1_555 1_555
O6_4 Zn1_4 1_555 1_555
C2_5 C1_5 1_555 1_555
H1_5 C2_5 1_555 1_555
C3_5 C2_5 1_555 1_555
H2_5 C3_5 1_555 1_555
C4_5 C3_5 1_555 1_555
H3_5 C4_5 1_555 1_555
C5_5 C4_5 1_555 1_555
O2_5 P1_5 1_555 1_555
O4_5 C7_5 1_555 1_555
H4_5 C6_5 1_555 1_555
Zn3_2 O2_5 1_555 1_555
Zn1_5 O1_5 1_555 1_555
O6_5 Zn1_5 1_555 1_555
O2_6 P1_6 1_555 1_555
O3_6 P1_6 1_555 1_555
O4_6 C7_6 1_555 1_555
O5_6 C7_6 1_555 1_555
C1_6 P1_6 1_555 1_555
C2_6 C1_6 1_555 1_555
H1_6 C2_6 1_555 1_555
C3_6 C2_6 1_555 1_555
H2_6 C3_6 1_555 1_555
C4_6 C3_6 1_555 1_555
H3_6 C4_6 1_555 1_555
C5_6 C4_6 1_555 1_555
C6_6 C1_6 1_555 1_555
H4_6 C6_6 1_555 1_555
C7_6 C5_6 1_555 1_555
Zn4_3 O3_6 1_555 1_555
Zn4 O5_6 1_555 1_555
Zn3 O2_6 1_555 1_555
C5_6 C6_6 1_555 1_555
Zn1_6 O1_6 1_555 1_555
O6_6 Zn1_6 1_555 1_555
O7_6 Zn1_6 1_555 1_555
O8_6 Zn1_6 1_555 1_555
O2_7 P1_7 1_555 1_555
O3_7 P1_7 1_555 1_555
O4_7 C7_7 1_555 1_555
O5_7 C7_7 1_555 1_555
C1_7 P1_7 1_555 1_555
C2_7 C1_7 1_555 1_555
H1_7 C2_7 1_555 1_555
C3_7 C2_7 1_555 1_555
H2_7 C3_7 1_555 1_555
C4_7 C3_7 1_555 1_555
H3_7 C4_7 1_555 1_555
C5_7 C4_7 1_555 1_555
C6_7 C1_7 1_555 1_555
H4_7 C6_7 1_555 1_555
C7_7 C5_7 1_555 1_555
Zn4_3 O5_7 1_555 1_555
Zn2_2 O2_7 1_555 1_555
C5_7 C6_7 1_555 1_555
Zn1_7 O1_7 1_555 1_555
O6_7 Zn1_7 1_555 1_555
C2_8 C1_8 1_555 1_555
H1_8 C2_8 1_555 1_555
C3_8 C2_8 1_555 1_555
H2_8 C3_8 1_555 1_555
C4_8 C3_8 1_555 1_555
H3_8 C4_8 1_555 1_555
C5_8 C4_8 1_555 1_555
Zn4 O3_8 1_555 1_555
O2_8 P1_8 1_555 1_555
O4_8 C7_8 1_555 1_555
H4_8 C6_8 1_555 1_555
Zn2 O2_8 1_555 1_555
Zn1_8 O1_8 1_555 1_555
O6_8 Zn1_8 1_555 1_555
O7_8 Zn1_8 1_555 1_555
O8_8 Zn1_8 1_555 1_555
Zn2 O1_9 1_555 1_555
P1_9 O1_9 1_555 1_555
O6_8 P1_9 1_555 1_555
O7 P1_9 1_555 1_555
O4_9 C7_9 1_555 1_555
O8_3 C7_9 1_555 1_555
C1_9 P1_9 1_555 1_555
C2_9 C1_9 1_555 1_555
H1_9 C2_9 1_555 1_555
C3_9 C2_9 1_555 1_555
H2_9 C3_9 1_555 1_555
C4_9 C3_9 1_555 1_555
H3_9 C4_9 1_555 1_555
C5_9 C4_9 1_555 1_555
C6_9 C1_9 1_555 1_555
H4_9 C6_9 1_555 1_555
C7_9 C5_9 1_555 1_555
C5_9 C6_9 1_555 1_555
Zn2_2 O1_10 1_555 1_555
P1_10 O1_10 1_555 1_555
O6_7 P1_10 1_555 1_555
O4_10 C7_10 1_555 1_555
H4_10 C6_10 1_555 1_555
C2_10 C1_10 1_555 1_555
H1_10 C2_10 1_555 1_555
C3_10 C2_10 1_555 1_555
H2_10 C3_10 1_555 1_555
C4_10 C3_10 1_555 1_555
H3_10 C4_10 1_555 1_555
C5_10 C4_10 1_555 1_555
Zn3 O1_11 1_555 1_555
P1_11 O1_11 1_555 1_555
O6_6 P1_11 1_555 1_555
O7_3 P1_11 1_555 1_555
O4_11 C7_11 1_555 1_555
O8_2 C7_11 1_555 1_555
C1_11 P1_11 1_555 1_555
C2_11 C1_11 1_555 1_555
H1_11 C2_11 1_555 1_555
C3_11 C2_11 1_555 1_555
H2_11 C3_11 1_555 1_555
C4_11 C3_11 1_555 1_555
H3_11 C4_11 1_555 1_555
C5_11 C4_11 1_555 1_555
C6_11 C1_11 1_555 1_555
H4_11 C6_11 1_555 1_555
C7_11 C5_11 1_555 1_555
C5_11 C6_11 1_555 1_555
Zn3_2 O1_12 1_555 1_555
P1_12 O1_12 1_555 1_555
O6_5 P1_12 1_555 1_555
O4_12 C7_12 1_555 1_555
H4_12 C6_12 1_555 1_555
C2_12 C1_12 1_555 1_555
H1_12 C2_12 1_555 1_555
C3_12 C2_12 1_555 1_555
H2_12 C3_12 1_555 1_555
C4_12 C3_12 1_555 1_555
H3_12 C4_12 1_555 1_555
C5_12 C4_12 1_555 1_555
Zn4_4 O1_13 1_555 1_555
O6_4 P1_13 1_555 1_555
O4_13 C7_13 1_555 1_555
H4_13 C6_13 1_555 1_555
C2_13 C1_13 1_555 1_555
H1_13 C2_13 1_555 1_555
C3_13 C2_13 1_555 1_555
H2_13 C3_13 1_555 1_555
C4_13 C3_13 1_555 1_555
H3_13 C4_13 1_555 1_555
C5_13 C4_13 1_555 1_555
Zn4_3 O1_14 1_555 1_555
O6_3 P1_14 1_555 1_555
O7_6 P1_14 1_555 1_555
O4_14 C7_14 1_555 1_555
O8_8 C7_14 1_555 1_555
C1_14 P1_14 1_555 1_555
C2_14 C1_14 1_555 1_555
H1_14 C2_14 1_555 1_555
C3_14 C2_14 1_555 1_555
H2_14 C3_14 1_555 1_555
C4_14 C3_14 1_555 1_555
H3_14 C4_14 1_555 1_555
C5_14 C4_14 1_555 1_555
C6_14 C1_14 1_555 1_555
H4_14 C6_14 1_555 1_555
C7_14 C5_14 1_555 1_555
C5_14 C6_14 1_555 1_555
Zn4_2 O1_15 1_555 1_555
O6_2 P1_15 1_555 1_555
O7_7 P1_15 1_555 1_555
O4_15 C7_15 1_555 1_555
O8_6 C7_15 1_555 1_555
C1_15 P1_15 1_555 1_555
C2_15 C1_15 1_555 1_555
H1_15 C2_15 1_555 1_555
C3_15 C2_15 1_555 1_555
H2_15 C3_15 1_555 1_555
C4_15 C3_15 1_555 1_555
H3_15 C4_15 1_555 1_555
C5_15 C4_15 1_555 1_555
C6_15 C1_15 1_555 1_555
H4_15 C6_15 1_555 1_555
C7_15 C5_15 1_555 1_555
C5_15 C6_15 1_555 1_555
Zn4 O1_16 1_555 1_555
O6 P1_16 1_555 1_555
O4_16 C7_16 1_555 1_555
H4_16 C6_16 1_555 1_555
C2_16 C1_16 1_555 1_555
H1_16 C2_16 1_555 1_555
C3_16 C2_16 1_555 1_555
H2_16 C3_16 1_555 1_555
C4_16 C3_16 1_555 1_555
H3_16 C4_16 1_555 1_555
C5_16 C4_16 1_555 1_555

#END
