
###############################################################################
#
# This file contains modified crystal structure data generated from the
# MOF subset of the Cambridge Structural Database (CSD) v543 
# hosted by the Cambridge Crystallographic Data Centre (CCDC).
#
# This work is licensed under the Creative Commons
# Attribution-NonCommercial-ShareAlike 4.0 International License.
# To view a copy of this license, visit
# http://creativecommons.org/licenses/by-nc-sa/4.0/
# or send a letter to
# Creative Commons, PO Box 1866, Mountain View, CA 94042, USA.
#
# CIF created using the CSD Python API on 29 September 2022
# The structure has been converted into the P1 space group
# The structure has a 3D framework
# The original CSD entry UFALEV is in the orthorhombic crystal system
# The framework has been calculated to contain at least 10.0% void space
# The void calculation uses a probe of radius 1.32A, grid spacing 0.4
#
###############################################################################

data_UFALEV
_chemical_formula_moiety         '(C272 H176 Ag21 Co8 N80 O32)n'
_symmetry_cell_setting           triclinic
_symmetry_space_group_name_H-M   'P 1'
_symmetry_Int_Tables_number      1
_space_group_name_Hall           'P 1'
loop_
_symmetry_equiv_pos_site_id
_symmetry_equiv_pos_as_xyz
1 x,y,z
_cell_length_a                   15.5552(8)
_cell_length_b                   16.0646(8)
_cell_length_c                   31.4260(12)
_cell_angle_alpha                90
_cell_angle_beta                 90
_cell_angle_gamma                90
_cell_volume                     7852.98
loop_
_atom_site_label
_atom_site_type_symbol
_atom_site_fract_x
_atom_site_fract_y
_atom_site_fract_z
O6 O 0.3767(6) 0.0145(5) 0.4725(3)
N17 N 0.4967(7) 0.1340(6) 0.3540(3)
C44 C 0.4825(7) 0.0173(7) 0.4011(3)
C46 C 0.4517(8) 0.0701(7) 0.3695(4)
H25 H 0.3970 0.0604 0.3587
C61 C 0.5653(8) 0.0359(9) 0.4170(4)
H37 H 0.5910 0.0025 0.4375
C65 C 0.5736(9) 0.1490(8) 0.3686(4)
H41 H 0.6066 0.1910 0.3564
C68 C 0.6062(11) 0.1040(11) 0.4015(5)
H44 H 0.6580 0.1204 0.4137
Ag7 Ag 0.44912(7) 0.21874(7) 0.29479(3)
Ag1 Ag 0.44912(7) 0.28126(7) 0.79479(3)
Co1 Co 0.56662(9) 0.15986(8) 0.61526(4)
Ag2 Ag 0.5000 0.5000 0.5000
N1 N 0.6419(5) 0.1141(5) 0.6593(2)
O1 O 0.6391(5) 0.0644(5) 0.7291(2)
N2 N 0.4665(6) 0.2012(6) 0.5843(3)
N3 N 0.6481(5) 0.1833(5) 0.5729(2)
N4 N 0.4832(5) 0.1385(5) 0.6558(3)
N5 N 0.5633(6) 0.0519(5) 0.5857(3)
N6 N 0.5979(6) 0.2742(5) 0.6329(3)
N8 N 0.8647(6) 0.1846(6) 0.6742(3)
O3 O 0.6894(6) 0.3798(5) 0.6146(3)
N9 N 0.4927(7) 0.3351(6) 0.7331(3)
C1 C 0.4696(7) 0.2392(7) 0.5433(3)
C2 C 0.6041(7) 0.0905(7) 0.6961(3)
C3 C 0.7327(6) 0.1183(6) 0.6575(3)
C4 C 0.5518(7) 0.3220(6) 0.6638(3)
C5 C 0.5082(7) 0.1032(6) 0.6934(3)
C6 C 0.7789(7) 0.1769(7) 0.6795(3)
H1 H 0.7506 0.2120 0.6984
N10 N 0.4828(9) 0.3646(7) 0.5024(3)
C7 C 0.7753(7) 0.0668(7) 0.6288(4)
H2 H 0.7454 0.0268 0.6134
C8 C 0.6868(7) 0.2541(7) 0.5731(3)
C9 C 0.6144(7) 0.0482(7) 0.5513(3)
C11 C 0.6628(7) 0.1245(7) 0.5436(3)
C13 C 0.5387(8) 0.2953(7) 0.7045(3)
H4 H 0.5641 0.2454 0.7126
C14 C 0.8638(8) 0.0765(7) 0.6237(4)
H5 H 0.8941 0.0419 0.6053
C15 C 0.4015(7) 0.1607(8) 0.6477(4)
O4 O 0.3234(7) 0.2300(10) 0.5933(4)
C16 C 0.4693(8) 0.1902(9) 0.5070(4)
H6 H 0.4657 0.1325 0.5082
C17 C 0.3906(7) 0.2007(8) 0.6062(4)
C18 C 0.5189(8) 0.3990(7) 0.6529(4)
H7 H 0.5279 0.4208 0.6259
C19 C 0.6569(7) 0.3111(7) 0.6090(4)
C20 C 0.3598(8) 0.1121(9) 0.7165(4)
H8 H 0.3179 0.1033 0.7371
C21 C 0.4464(8) 0.0892(8) 0.7240(4)
H9 H 0.4617 0.0647 0.7498
C22 C 0.4749(10) 0.2336(9) 0.4681(4)
H10 H 0.4751 0.2045 0.4426
C23 C 0.7181(8) 0.1408(8) 0.5103(4)
H11 H 0.7290 0.1010 0.4895
C24 C 0.7564(9) 0.2171(9) 0.5089(4)
H12 H 0.7911 0.2310 0.4859
C25 C 0.4757(9) 0.3240(8) 0.5398(4)
H13 H 0.4750 0.3554 0.5647
C26 C 0.4729(11) 0.4428(8) 0.6826(5)
H14 H 0.4496 0.4945 0.6760
C28 C 0.9052(7) 0.1372(7) 0.6459(4)
H16 H 0.9635 0.1456 0.6412
C29 C 0.7440(8) 0.2745(8) 0.5416(4)
H17 H 0.7735 0.3248 0.5420
C30 C 0.3395(9) 0.1467(9) 0.6791(4)
H18 H 0.2827 0.1617 0.6739
C32 C 0.4617(10) 0.4086(8) 0.7229(5)
H20 H 0.4313 0.4386 0.7432
C33 C 0.4801(10) 0.3176(10) 0.4680(4)
H21 H 0.4820 0.3443 0.4417
Ag3 Ag 0.55088(7) 0.71874(7) 0.20521(3)
Co2 Co 0.43338(9) 0.84014(8) 0.38474(4)
N11 N 0.3581(5) 0.8859(5) 0.3407(2)
O5 O 0.3609(5) 0.9356(5) 0.2709(2)
N12 N 0.5335(6) 0.7988(6) 0.4157(3)
N13 N 0.3519(5) 0.8167(5) 0.4271(2)
N14 N 0.5168(5) 0.8615(5) 0.3442(3)
N15 N 0.4367(6) 0.9481(5) 0.4143(3)
N16 N 0.4021(6) 0.7258(5) 0.3671(3)
N18 N 0.1353(6) 0.8154(6) 0.3258(3)
O7 O 0.3106(6) 0.6202(5) 0.3854(3)
N19 N 0.5073(7) 0.6649(6) 0.2669(3)
C35 C 0.5304(7) 0.7608(7) 0.4567(3)
C36 C 0.3959(7) 0.9095(7) 0.3039(3)
C37 C 0.2673(6) 0.8817(6) 0.3425(3)
C38 C 0.4482(7) 0.6780(6) 0.3362(3)
C39 C 0.4918(7) 0.8968(6) 0.3066(3)
C40 C 0.2211(7) 0.8231(7) 0.3205(3)
H23 H 0.2494 0.7880 0.3016
N20 N 0.5172(9) 0.6354(7) 0.4976(3)
C41 C 0.2247(7) 0.9332(7) 0.3712(4)
H24 H 0.2546 0.9732 0.3866
C42 C 0.3132(7) 0.7459(7) 0.4269(3)
C43 C 0.3856(7) 0.9518(7) 0.4487(3)
C45 C 0.3372(7) 0.8755(7) 0.4564(3)
C47 C 0.4613(8) 0.7047(7) 0.2955(3)
H26 H 0.4359 0.7546 0.2874
C48 C 0.1362(8) 0.9235(7) 0.3763(4)
H27 H 0.1059 0.9581 0.3947
C49 C 0.5985(7) 0.8393(8) 0.3523(4)
O8 O 0.6766(7) 0.7700(10) 0.4067(4)
C50 C 0.5307(8) 0.8098(9) 0.4930(4)
H28 H 0.5343 0.8675 0.4918
C51 C 0.6094(7) 0.7993(8) 0.3938(4)
C52 C 0.4811(8) 0.6010(7) 0.3471(4)
H29 H 0.4721 0.5792 0.3741
C53 C 0.3431(7) 0.6889(7) 0.3910(4)
C54 C 0.6402(8) 0.8879(9) 0.2835(4)
H30 H 0.6821 0.8967 0.2629
C55 C 0.5536(8) 0.9108(8) 0.2760(4)
H31 H 0.5383 0.9353 0.2502
C56 C 0.5251(10) 0.7664(9) 0.5319(4)
H32 H 0.5249 0.7955 0.5574
C57 C 0.2819(8) 0.8592(8) 0.4897(4)
H33 H 0.2710 0.8990 0.5105
C58 C 0.2436(9) 0.7829(9) 0.4911(4)
H34 H 0.2089 0.7690 0.5141
C59 C 0.5243(9) 0.6760(8) 0.4602(4)
H35 H 0.5250 0.6446 0.4353
C60 C 0.5271(11) 0.5572(8) 0.3174(5)
H36 H 0.5504 0.5055 0.3240
C62 C 0.0948(7) 0.8628(7) 0.3541(4)
H38 H 0.0365 0.8544 0.3588
C63 C 0.2560(8) 0.7255(8) 0.4584(4)
H39 H 0.2265 0.6752 0.4580
C64 C 0.6605(9) 0.8533(9) 0.3209(4)
H40 H 0.7173 0.8383 0.3261
C66 C 0.5383(10) 0.5914(8) 0.2771(5)
H42 H 0.5687 0.5614 0.2568
C67 C 0.5199(10) 0.6824(10) 0.5320(4)
H43 H 0.5180 0.6557 0.5583
Ag4 Ag 0.05088(7) 0.71874(7) 0.29479(3)
Ag6 Ag 0.94912(7) 0.28126(7) 0.70521(3)
N21 N 0.4967(7) 0.3660(6) 0.8540(3)
N22 N 0.5033(7) 0.6340(6) 0.1460(3)
N23 N 0.6353(6) 0.8154(6) 0.1742(3)
N24 N 0.3647(6) 0.1846(6) 0.8258(3)
O2 O 0.6233(6) 0.9855(5) 0.5275(3)
N7 N 0.5033(7) 0.8660(6) 0.6460(3)
C10 C 0.5175(7) 0.9827(7) 0.5989(3)
C12 C 0.5483(8) 0.9299(7) 0.6305(4)
H3 H 0.6030 0.9396 0.6413
C27 C 0.4347(8) 0.9641(9) 0.5830(4)
H15 H 0.4090 0.9975 0.5625
C31 C 0.4264(9) 0.8510(8) 0.6314(4)
H19 H 0.3934 0.8090 0.6436
C34 C 0.3938(11) 0.8960(11) 0.5985(5)
H22 H 0.3420 0.8796 0.5863
Ag5 Ag 0.55088(7) 0.78126(7) 0.70521(3)
Ag2_2 Ag 0.0000 0.5000 0.0000
N2_2 N 0.0335(6) 0.7988(6) 0.0843(3)
N4_2 N 0.0168(5) 0.8615(5) 0.1558(3)
N9_2 N 0.0073(7) 0.6649(6) 0.2331(3)
C1_2 C 0.0304(7) 0.7608(7) 0.0433(3)
N10_2 N 0.0172(9) 0.6354(7) 0.0024(3)
C15_2 C 0.0985(7) 0.8393(8) 0.1477(4)
O4_2 O 0.1766(7) 0.7700(10) 0.0933(4)
C16_2 C 0.0307(8) 0.8098(9) 0.0070(4)
H6_2 H 0.0343 0.8675 0.0082
C17_2 C 0.1094(7) 0.7993(8) 0.1062(4)
C20_2 C 0.1402(8) 0.8879(9) 0.2165(4)
H8_2 H 0.1821 0.8967 0.2371
C21_2 C 0.0536(8) 0.9108(8) 0.2240(4)
H9_2 H 0.0383 0.9353 0.2498
C25_2 C 0.0243(9) 0.6760(8) 0.0398(4)
H13_2 H 0.0250 0.6446 0.0647
C26_2 C 0.0271(11) 0.5572(8) 0.1826(5)
H14_2 H 0.0504 0.5055 0.1760
C30_2 C 0.1605(9) 0.8533(9) 0.1791(4)
H18_2 H 0.2173 0.8383 0.1739
C32_2 C 0.0383(10) 0.5914(8) 0.2229(5)
H20_2 H 0.0687 0.5614 0.2432
H33_2 H 0.2290 0.1010 0.0105
H34_2 H 0.2911 0.2310 0.0141
N21_2 N 0.0033(7) 0.6340(6) 0.3540(3)
Ag2_3 Ag 0.0000 0.5000 1.0000
C22_2 C 0.0251(10) 0.7664(9) 0.9681(4)
H10_2 H 0.0249 0.7955 0.9426
C33_2 C 0.0199(10) 0.6824(10) 0.9680(4)
H21_2 H 0.0180 0.6557 0.9417
Co2_2 Co 0.06662(9) 0.15986(8) 0.88474(4)
N11_2 N 0.1419(5) 0.1141(5) 0.8407(2)
O5_2 O 0.1391(5) 0.0644(5) 0.7709(2)
N13_2 N 0.1481(5) 0.1833(5) 0.9271(2)
N15_2 N 0.0633(6) 0.0519(5) 0.9143(3)
N16_2 N 0.0979(6) 0.2742(5) 0.8671(3)
O7_2 O 0.1894(6) 0.3798(5) 0.8854(3)
C36_2 C 0.1041(7) 0.0905(7) 0.8039(3)
C37_2 C 0.2327(6) 0.1183(6) 0.8425(3)
C38_2 C 0.0518(7) 0.3220(6) 0.8362(3)
C39_2 C 0.0082(7) 0.1032(6) 0.8066(3)
C40_2 C 0.2789(7) 0.1769(7) 0.8205(3)
H23_2 H 0.2506 0.2120 0.8016
C41_2 C 0.2753(7) 0.0668(7) 0.8712(4)
H24_2 H 0.2454 0.0268 0.8866
C42_2 C 0.1868(7) 0.2541(7) 0.9269(3)
C43_2 C 0.1144(7) 0.0482(7) 0.9487(3)
C45_2 C 0.1628(7) 0.1245(7) 0.9564(3)
C47_2 C 0.0387(8) 0.2953(7) 0.7955(3)
H26_2 H 0.0641 0.2454 0.7874
C48_2 C 0.3638(8) 0.0765(7) 0.8763(4)
H27_2 H 0.3941 0.0419 0.8947
C52_2 C 0.0189(8) 0.3990(7) 0.8471(4)
H29_2 H 0.0279 0.4208 0.8741
C53_2 C 0.1569(7) 0.3111(7) 0.8910(4)
C57_2 C 0.2181(8) 0.1408(8) 0.9897(4)
C58_2 C 0.2564(9) 0.2171(9) 0.9911(4)
C62_2 C 0.4052(7) 0.1372(7) 0.8541(4)
H38_2 H 0.4635 0.1456 0.8588
C63_2 C 0.2440(8) 0.2745(8) 0.9584(4)
H39_2 H 0.2735 0.3248 0.9580
O6_2 O 0.1233(6) 0.9855(5) 0.9725(3)
N17_2 N 0.0033(7) 0.8660(6) 0.8540(3)
C44_2 C 0.0175(7) 0.9827(7) 0.9011(3)
C46_2 C 0.0483(8) 0.9299(7) 0.8695(4)
H25_2 H 0.1030 0.9396 0.8587
Ag7_2 Ag 0.05088(7) 0.78126(7) 0.79479(3)
O2_2 O 0.8767(6) 0.0145(5) 0.0275(3)
N7_2 N 0.9967(7) 0.1340(6) 0.1460(3)
C10_2 C 0.9825(7) 0.0173(7) 0.0989(3)
C12_2 C 0.9517(8) 0.0701(7) 0.1305(4)
H3_2 H 0.8970 0.0604 0.1413
Ag5_2 Ag 0.94912(7) 0.21874(7) 0.20521(3)
Co1_2 Co 0.93338(9) 0.84014(8) 0.11526(4)
Ag2_4 Ag 1.0000 0.5000 0.0000
N1_2 N 0.8581(5) 0.8859(5) 0.1593(2)
O1_2 O 0.8609(5) 0.9356(5) 0.2291(2)
N3_2 N 0.8519(5) 0.8167(5) 0.0729(2)
N5_2 N 0.9367(6) 0.9481(5) 0.0857(3)
N6_2 N 0.9021(6) 0.7258(5) 0.1329(3)
O3_2 O 0.8106(6) 0.6202(5) 0.1146(3)
C2_2 C 0.8959(7) 0.9095(7) 0.1961(3)
C3_2 C 0.7673(6) 0.8817(6) 0.1575(3)
C4_2 C 0.9482(7) 0.6780(6) 0.1638(3)
C5_2 C 0.9918(7) 0.8968(6) 0.1934(3)
C6_2 C 0.7211(7) 0.8231(7) 0.1795(3)
H1_2 H 0.7494 0.7880 0.1984
C7_2 C 0.7247(7) 0.9332(7) 0.1288(4)
H2_2 H 0.7546 0.9732 0.1134
C8_2 C 0.8132(7) 0.7459(7) 0.0731(3)
C9_2 C 0.8856(7) 0.9518(7) 0.0513(3)
C11_2 C 0.8372(7) 0.8755(7) 0.0436(3)
C13_2 C 0.9613(8) 0.7047(7) 0.2045(3)
H4_2 H 0.9359 0.7546 0.2126
C14_2 C 0.6362(8) 0.9235(7) 0.1237(4)
H5_2 H 0.6059 0.9581 0.1053
C18_2 C 0.9811(8) 0.6010(7) 0.1529(4)
H7_2 H 0.9721 0.5792 0.1259
C19_2 C 0.8431(7) 0.6889(7) 0.1090(4)
C23_2 C 0.7819(8) 0.8592(8) 0.0103(4)
C24_2 C 0.7436(9) 0.7829(9) 0.0089(4)
C28_2 C 0.5948(7) 0.8628(7) 0.1459(4)
H16_2 H 0.5365 0.8544 0.1412
C29_2 C 0.7560(8) 0.7255(8) 0.0416(4)
H17_2 H 0.7265 0.6752 0.0420
C56_2 C 0.9749(10) 0.2336(9) 0.0319(4)
H32_2 H 0.9751 0.2045 0.0574
C67_2 C 0.9801(10) 0.3176(10) 0.0320(4)
H43_2 H 0.9820 0.3443 0.0583
Ag2_5 Ag 1.0000 0.5000 1.0000
H11_2 H 0.7710 0.8990 0.9895
H12_2 H 0.7089 0.7690 0.9859
N12_2 N 0.9665(6) 0.2012(6) 0.9157(3)
N14_2 N 0.9832(5) 0.1385(5) 0.8442(3)
N19_2 N 0.9927(7) 0.3351(6) 0.7669(3)
C35_2 C 0.9696(7) 0.2392(7) 0.9567(3)
N20_2 N 0.9828(9) 0.3646(7) 0.9976(3)
C49_2 C 0.9015(7) 0.1607(8) 0.8523(4)
O8_2 O 0.8234(7) 0.2300(10) 0.9067(4)
C50_2 C 0.9693(8) 0.1902(9) 0.9930(4)
H28_2 H 0.9657 0.1325 0.9918
C51_2 C 0.8906(7) 0.2007(8) 0.8938(4)
C54_2 C 0.8598(8) 0.1121(9) 0.7835(4)
H30_2 H 0.8179 0.1033 0.7629
C55_2 C 0.9464(8) 0.0892(8) 0.7760(4)
H31_2 H 0.9617 0.0647 0.7502
C59_2 C 0.9757(9) 0.3240(8) 0.9602(4)
H35_2 H 0.9750 0.3554 0.9353
C60_2 C 0.9729(11) 0.4428(8) 0.8174(5)
H36_2 H 0.9496 0.4945 0.8240
C64_2 C 0.8395(9) 0.1467(9) 0.8209(4)
H40_2 H 0.7827 0.1617 0.8261
C66_2 C 0.9617(10) 0.4086(8) 0.7771(5)
H42_2 H 0.9313 0.4386 0.7568
N22_2 N 0.9967(7) 0.3660(6) 0.6460(3)
Ag2_6 Ag 0.5000 0.0000 0.0000
Co2_3 Co 0.56662(9) 0.34014(8) 0.11526(4)
N11_3 N 0.6419(5) 0.3859(5) 0.1593(2)
O5_3 O 0.6391(5) 0.4356(5) 0.2291(2)
N12_3 N 0.4665(6) 0.2988(6) 0.0843(3)
O6_3 O 0.6233(6) 0.5145(5) 0.0275(3)
N13_3 N 0.6481(5) 0.3167(5) 0.0729(2)
N14_3 N 0.4832(5) 0.3615(5) 0.1558(3)
N15_3 N 0.5633(6) 0.4481(5) 0.0857(3)
N16_3 N 0.5979(6) 0.2258(5) 0.1329(3)
N18_2 N 0.8647(6) 0.3154(6) 0.1742(3)
O7_3 O 0.6894(6) 0.1202(5) 0.1146(3)
N19_3 N 0.4927(7) 0.1649(6) 0.2331(3)
C35_3 C 0.4696(7) 0.2608(7) 0.0433(3)
C36_3 C 0.6041(7) 0.4095(7) 0.1961(3)
C37_3 C 0.7327(6) 0.3817(6) 0.1575(3)
C38_3 C 0.5518(7) 0.1780(6) 0.1638(3)
C39_3 C 0.5082(7) 0.3968(6) 0.1934(3)
C40_3 C 0.7789(7) 0.3231(7) 0.1795(3)
H23_3 H 0.7506 0.2880 0.1984
N20_3 N 0.4828(9) 0.1354(7) 0.0024(3)
C41_3 C 0.7753(7) 0.4332(7) 0.1288(4)
H24_3 H 0.7454 0.4732 0.1134
C42_3 C 0.6868(7) 0.2459(7) 0.0731(3)
C43_3 C 0.6144(7) 0.4518(7) 0.0513(3)
C44_3 C 0.5175(7) 0.5173(7) 0.0989(3)
C45_3 C 0.6628(7) 0.3755(7) 0.0436(3)
C46_3 C 0.5483(8) 0.5701(7) 0.1305(4)
H25_3 H 0.6030 0.5604 0.1413
C47_3 C 0.5387(8) 0.2047(7) 0.2045(3)
H26_3 H 0.5641 0.2546 0.2126
C48_3 C 0.8638(8) 0.4235(7) 0.1237(4)
H27_3 H 0.8941 0.4581 0.1053
C49_3 C 0.4015(7) 0.3393(8) 0.1477(4)
O8_3 O 0.3234(7) 0.2700(10) 0.0933(4)
C50_3 C 0.4693(8) 0.3098(9) 0.0070(4)
H28_3 H 0.4657 0.3675 0.0082
C51_3 C 0.3906(7) 0.2993(8) 0.1062(4)
C52_3 C 0.5189(8) 0.1010(7) 0.1529(4)
H29_3 H 0.5279 0.0792 0.1259
C53_3 C 0.6569(7) 0.1889(7) 0.1090(4)
C54_3 C 0.3598(8) 0.3879(9) 0.2165(4)
H30_3 H 0.3179 0.3967 0.2371
C55_3 C 0.4464(8) 0.4108(8) 0.2240(4)
H31_3 H 0.4617 0.4353 0.2498
C57_3 C 0.7181(8) 0.3592(8) 0.0103(4)
C58_3 C 0.7564(9) 0.2829(9) 0.0089(4)
C59_3 C 0.4757(9) 0.1760(8) 0.0398(4)
H35_3 H 0.4750 0.1446 0.0647
C60_3 C 0.4729(11) 0.0572(8) 0.1826(5)
H36_3 H 0.4496 0.0055 0.1760
C61_2 C 0.4347(8) 0.5359(9) 0.0830(4)
H37_2 H 0.4090 0.5025 0.0625
C62_3 C 0.9052(7) 0.3628(7) 0.1459(4)
H38_3 H 0.9635 0.3544 0.1412
C63_3 C 0.7440(8) 0.2255(8) 0.0416(4)
H39_3 H 0.7735 0.1752 0.0420
C64_3 C 0.3395(9) 0.3533(9) 0.1791(4)
H40_3 H 0.2827 0.3383 0.1739
C65_2 C 0.4264(9) 0.6490(8) 0.1314(4)
H41_2 H 0.3934 0.6910 0.1436
C66_3 C 0.4617(10) 0.0914(8) 0.2229(5)
H42_3 H 0.4313 0.0614 0.2432
C68_2 C 0.3938(11) 0.6040(11) 0.0985(5)
H44_2 H 0.3420 0.6204 0.0863
N23_2 N 0.3647(6) 0.3154(6) 0.3258(3)
Co1_3 Co 0.43338(9) 0.65986(8) 0.88474(4)
Ag2_7 Ag 0.5000 1.0000 1.0000
N1_3 N 0.3581(5) 0.6141(5) 0.8407(2)
O1_3 O 0.3609(5) 0.5644(5) 0.7709(2)
N2_3 N 0.5335(6) 0.7012(6) 0.9157(3)
O2_3 O 0.3767(6) 0.4855(5) 0.9725(3)
N3_3 N 0.3519(5) 0.6833(5) 0.9271(2)
N4_3 N 0.5168(5) 0.6385(5) 0.8442(3)
N5_3 N 0.4367(6) 0.5519(5) 0.9143(3)
N6_3 N 0.4021(6) 0.7742(5) 0.8671(3)
N8_2 N 0.1353(6) 0.6846(6) 0.8258(3)
O3_3 O 0.3106(6) 0.8798(5) 0.8854(3)
N9_3 N 0.5073(7) 0.8351(6) 0.7669(3)
C1_3 C 0.5304(7) 0.7392(7) 0.9567(3)
C2_3 C 0.3959(7) 0.5905(7) 0.8039(3)
C3_3 C 0.2673(6) 0.6183(6) 0.8425(3)
C4_3 C 0.4482(7) 0.8220(6) 0.8362(3)
C5_3 C 0.4918(7) 0.6032(6) 0.8066(3)
C6_3 C 0.2211(7) 0.6769(7) 0.8205(3)
H1_3 H 0.2494 0.7120 0.8016
N10_3 N 0.5172(9) 0.8646(7) 0.9976(3)
C7_3 C 0.2247(7) 0.5668(7) 0.8712(4)
H2_3 H 0.2546 0.5268 0.8866
C8_3 C 0.3132(7) 0.7541(7) 0.9269(3)
C9_3 C 0.3856(7) 0.5482(7) 0.9487(3)
C10_3 C 0.4825(7) 0.4827(7) 0.9011(3)
C11_3 C 0.3372(7) 0.6245(7) 0.9564(3)
C12_3 C 0.4517(8) 0.4299(7) 0.8695(4)
H3_3 H 0.3970 0.4396 0.8587
C13_3 C 0.4613(8) 0.7953(7) 0.7955(3)
H4_3 H 0.4359 0.7454 0.7874
C14_3 C 0.1362(8) 0.5765(7) 0.8763(4)
H5_3 H 0.1059 0.5419 0.8947
C15_3 C 0.5985(7) 0.6607(8) 0.8523(4)
O4_3 O 0.6766(7) 0.7300(10) 0.9067(4)
C16_3 C 0.5307(8) 0.6902(9) 0.9930(4)
H6_3 H 0.5343 0.6325 0.9918
C17_3 C 0.6094(7) 0.7007(8) 0.8938(4)
C18_3 C 0.4811(8) 0.8990(7) 0.8471(4)
H7_3 H 0.4721 0.9208 0.8741
C19_3 C 0.3431(7) 0.8111(7) 0.8910(4)
C20_3 C 0.6402(8) 0.6121(9) 0.7835(4)
H8_3 H 0.6821 0.6033 0.7629
C21_3 C 0.5536(8) 0.5892(8) 0.7760(4)
H9_3 H 0.5383 0.5647 0.7502
C23_3 C 0.2819(8) 0.6408(8) 0.9897(4)
C24_3 C 0.2436(9) 0.7171(9) 0.9911(4)
C25_3 C 0.5243(9) 0.8240(8) 0.9602(4)
H13_3 H 0.5250 0.8554 0.9353
C26_3 C 0.5271(11) 0.9428(8) 0.8174(5)
H14_3 H 0.5504 0.9945 0.8240
C27_2 C 0.5653(8) 0.4641(9) 0.9170(4)
H15_2 H 0.5910 0.4975 0.9375
C28_3 C 0.0948(7) 0.6372(7) 0.8541(4)
H16_3 H 0.0365 0.6456 0.8588
C29_3 C 0.2560(8) 0.7745(8) 0.9584(4)
H17_3 H 0.2265 0.8248 0.9580
C30_3 C 0.6605(9) 0.6467(9) 0.8209(4)
H18_3 H 0.7173 0.6617 0.8261
C31_2 C 0.5736(9) 0.3510(8) 0.8686(4)
H19_2 H 0.6066 0.3090 0.8564
C32_3 C 0.5383(10) 0.9086(8) 0.7771(5)
H20_3 H 0.5687 0.9386 0.7568
C34_2 C 0.6062(11) 0.3960(11) 0.9015(5)
H22_2 H 0.6580 0.3796 0.9137
N24_2 N 0.6353(6) 0.6846(6) 0.6742(3)
Co1_4 Co 0.06662(9) 0.34014(8) 0.38474(4)
Ag2_8 Ag 0.0000 0.0000 0.5000
N1_4 N 0.1419(5) 0.3859(5) 0.3407(2)
O1_4 O 0.1391(5) 0.4356(5) 0.2709(2)
O2_4 O 0.1233(6) 0.5145(5) 0.4725(3)
N3_4 N 0.1481(5) 0.3167(5) 0.4271(2)
N5_4 N 0.0633(6) 0.4481(5) 0.4143(3)
N6_4 N 0.0979(6) 0.2258(5) 0.3671(3)
O3_4 O 0.1894(6) 0.1202(5) 0.3854(3)
C2_4 C 0.1041(7) 0.4095(7) 0.3039(3)
C3_4 C 0.2327(6) 0.3817(6) 0.3425(3)
C4_4 C 0.0518(7) 0.1780(6) 0.3362(3)
C5_4 C 0.0082(7) 0.3968(6) 0.3066(3)
C6_4 C 0.2789(7) 0.3231(7) 0.3205(3)
H1_4 H 0.2506 0.2880 0.3016
C7_4 C 0.2753(7) 0.4332(7) 0.3712(4)
H2_4 H 0.2454 0.4732 0.3866
C8_4 C 0.1868(7) 0.2459(7) 0.4269(3)
C9_4 C 0.1144(7) 0.4518(7) 0.4487(3)
C10_4 C 0.0175(7) 0.5173(7) 0.4011(3)
C11_4 C 0.1628(7) 0.3755(7) 0.4564(3)
C12_4 C 0.0483(8) 0.5701(7) 0.3695(4)
H3_4 H 0.1030 0.5604 0.3587
C13_4 C 0.0387(8) 0.2047(7) 0.2955(3)
H4_4 H 0.0641 0.2546 0.2874
C14_4 C 0.3638(8) 0.4235(7) 0.3763(4)
H5_4 H 0.3941 0.4581 0.3947
C18_4 C 0.0189(8) 0.1010(7) 0.3471(4)
H7_4 H 0.0279 0.0792 0.3741
C19_4 C 0.1569(7) 0.1889(7) 0.3910(4)
C23_4 C 0.2181(8) 0.3592(8) 0.4897(4)
H11_3 H 0.2290 0.3990 0.5105
C24_4 C 0.2564(9) 0.2829(9) 0.4911(4)
H12_3 H 0.2911 0.2690 0.5141
C28_4 C 0.4052(7) 0.3628(7) 0.3541(4)
H16_4 H 0.4635 0.3544 0.3588
C29_4 C 0.2440(8) 0.2255(8) 0.4584(4)
H17_4 H 0.2735 0.1752 0.4580
Ag2_9 Ag 0.0000 1.0000 0.5000
N12_4 N 0.0335(6) 0.7012(6) 0.5843(3)
N14_4 N 0.0168(5) 0.6385(5) 0.6558(3)
N19_4 N 0.0073(7) 0.8351(6) 0.7331(3)
C35_4 C 0.0304(7) 0.7392(7) 0.5433(3)
N20_4 N 0.0172(9) 0.8646(7) 0.5024(3)
C49_4 C 0.0985(7) 0.6607(8) 0.6477(4)
O8_4 O 0.1766(7) 0.7300(10) 0.5933(4)
C50_4 C 0.0307(8) 0.6902(9) 0.5070(4)
H28_4 H 0.0343 0.6325 0.5082
C51_4 C 0.1094(7) 0.7007(8) 0.6062(4)
C54_4 C 0.1402(8) 0.6121(9) 0.7165(4)
H30_4 H 0.1821 0.6033 0.7371
C55_4 C 0.0536(8) 0.5892(8) 0.7240(4)
H31_4 H 0.0383 0.5647 0.7498
C56_3 C 0.0251(10) 0.7336(9) 0.4681(4)
H32_3 H 0.0249 0.7045 0.4426
C59_4 C 0.0243(9) 0.8240(8) 0.5398(4)
H35_4 H 0.0250 0.8554 0.5647
C60_4 C 0.0271(11) 0.9428(8) 0.6826(5)
H36_4 H 0.0504 0.9945 0.6760
C61_3 C 0.0653(8) 0.4641(9) 0.5830(4)
H37_3 H 0.0910 0.4975 0.5625
C64_4 C 0.1605(9) 0.6467(9) 0.6791(4)
H40_4 H 0.2173 0.6617 0.6739
C65_3 C 0.0736(9) 0.3510(8) 0.6314(4)
H41_3 H 0.1066 0.3090 0.6436
C66_4 C 0.0383(10) 0.9086(8) 0.7229(5)
H42_4 H 0.0687 0.9386 0.7432
C67_3 C 0.0199(10) 0.8176(10) 0.4680(4)
H43_3 H 0.0180 0.8443 0.4417
C68_3 C 0.1062(11) 0.3960(11) 0.5985(5)
H44_3 H 0.1580 0.3796 0.5863
Ag2_10 Ag 1.0000 0.0000 0.5000
N2_4 N 0.9665(6) 0.2988(6) 0.4157(3)
N4_4 N 0.9832(5) 0.3615(5) 0.3442(3)
N9_4 N 0.9927(7) 0.1649(6) 0.2669(3)
C1_4 C 0.9696(7) 0.2608(7) 0.4567(3)
N10_4 N 0.9828(9) 0.1354(7) 0.4976(3)
C15_4 C 0.9015(7) 0.3393(8) 0.3523(4)
O4_4 O 0.8234(7) 0.2700(10) 0.4067(4)
C16_4 C 0.9693(8) 0.3098(9) 0.4930(4)
H6_4 H 0.9657 0.3675 0.4918
C17_4 C 0.8906(7) 0.2993(8) 0.3938(4)
C20_4 C 0.8598(8) 0.3879(9) 0.2835(4)
H8_4 H 0.8179 0.3967 0.2629
C21_4 C 0.9464(8) 0.4108(8) 0.2760(4)
H9_4 H 0.9617 0.4353 0.2502
C22_3 C 0.9749(10) 0.2664(9) 0.5319(4)
H10_3 H 0.9751 0.2955 0.5574
C25_4 C 0.9757(9) 0.1760(8) 0.4602(4)
H13_4 H 0.9750 0.1446 0.4353
C26_4 C 0.9729(11) 0.0572(8) 0.3174(5)
H14_4 H 0.9496 0.0055 0.3240
C27_3 C 0.9347(8) 0.5359(9) 0.4170(4)
H15_3 H 0.9090 0.5025 0.4375
C30_4 C 0.8395(9) 0.3533(9) 0.3209(4)
H18_4 H 0.7827 0.3383 0.3261
C31_3 C 0.9264(9) 0.6490(8) 0.3686(4)
H19_3 H 0.8934 0.6910 0.3564
C32_4 C 0.9617(10) 0.0914(8) 0.2771(5)
H20_4 H 0.9313 0.0614 0.2568
C33_3 C 0.9801(10) 0.1824(10) 0.5320(4)
H21_3 H 0.9820 0.1557 0.5583
C34_3 C 0.8938(11) 0.6040(11) 0.4015(5)
H22_3 H 0.8420 0.6204 0.4137
Ag2_11 Ag 1.0000 1.0000 0.5000
Co2_4 Co 0.93338(9) 0.65986(8) 0.61526(4)
N11_4 N 0.8581(5) 0.6141(5) 0.6593(2)
O5_4 O 0.8609(5) 0.5644(5) 0.7291(2)
O6_4 O 0.8767(6) 0.4855(5) 0.5275(3)
N13_4 N 0.8519(5) 0.6833(5) 0.5729(2)
N15_4 N 0.9367(6) 0.5519(5) 0.5857(3)
N16_4 N 0.9021(6) 0.7742(5) 0.6329(3)
O7_4 O 0.8106(6) 0.8798(5) 0.6146(3)
C36_4 C 0.8959(7) 0.5905(7) 0.6961(3)
C37_4 C 0.7673(6) 0.6183(6) 0.6575(3)
C38_4 C 0.9482(7) 0.8220(6) 0.6638(3)
C39_4 C 0.9918(7) 0.6032(6) 0.6934(3)
C40_4 C 0.7211(7) 0.6769(7) 0.6795(3)
H23_4 H 0.7494 0.7120 0.6984
C41_4 C 0.7247(7) 0.5668(7) 0.6288(4)
H24_4 H 0.7546 0.5268 0.6134
C42_4 C 0.8132(7) 0.7541(7) 0.5731(3)
C43_4 C 0.8856(7) 0.5482(7) 0.5513(3)
C44_4 C 0.9825(7) 0.4827(7) 0.5989(3)
C45_4 C 0.8372(7) 0.6245(7) 0.5436(3)
C46_4 C 0.9517(8) 0.4299(7) 0.6305(4)
H25_4 H 0.8970 0.4396 0.6413
C47_4 C 0.9613(8) 0.7953(7) 0.7045(3)
H26_4 H 0.9359 0.7454 0.7126
C48_4 C 0.6362(8) 0.5765(7) 0.6237(4)
H27_4 H 0.6059 0.5419 0.6053
C52_4 C 0.9811(8) 0.8990(7) 0.6529(4)
H29_4 H 0.9721 0.9208 0.6259
C53_4 C 0.8431(7) 0.8111(7) 0.6090(4)
C57_4 C 0.7819(8) 0.6408(8) 0.5103(4)
H33_3 H 0.7710 0.6010 0.4895
C58_4 C 0.7436(9) 0.7171(9) 0.5089(4)
H34_3 H 0.7089 0.7310 0.4859
C62_4 C 0.5948(7) 0.6372(7) 0.6459(4)
H38_4 H 0.5365 0.6456 0.6412
C63_4 C 0.7560(8) 0.7745(8) 0.5416(4)
H39_4 H 0.7265 0.8248 0.5420
C27_4 C 0.0653(8) 0.0359(9) 0.0830(4)
H15_4 H 0.0910 0.0025 0.0625
C31_4 C 0.0736(9) 0.1490(8) 0.1314(4)
H19_4 H 0.1066 0.1910 0.1436
C34_4 C 0.1062(11) 0.1040(11) 0.0985(5)
H22_4 H 0.1580 0.1204 0.0863
C61_4 C 0.9347(8) 0.9641(9) 0.9170(4)
H37_4 H 0.9090 0.9975 0.9375
C65_4 C 0.9264(9) 0.8510(8) 0.8686(4)
H41_4 H 0.8934 0.8090 0.8564
C68_4 C 0.8938(11) 0.8960(11) 0.9015(5)
H44_4 H 0.8420 0.8796 0.9137
Ag2_12 Ag 0.5000 0.0000 1.0000
C56_4 C 0.4749(10) 0.2664(9) 0.9681(4)
H32_4 H 0.4751 0.2955 0.9426
H33_4 H 0.7290 0.3990 0.9895
H34_4 H 0.7911 0.2690 0.9859
C67_4 C 0.4801(10) 0.1824(10) 0.9680(4)
H43_4 H 0.4820 0.1557 0.9417
Ag2_13 Ag 0.5000 1.0000 0.0000
C22_4 C 0.5251(10) 0.7336(9) 0.0319(4)
H10_4 H 0.5249 0.7045 0.0574
H11_4 H 0.2710 0.6010 0.0105
H12_4 H 0.2089 0.7310 0.0141
C33_4 C 0.5199(10) 0.8176(10) 0.0320(4)
H21_4 H 0.5180 0.8443 0.0583
loop_
_geom_bond_atom_site_label_1
_geom_bond_atom_site_label_2
_geom_bond_site_symmetry_1
_geom_bond_site_symmetry_2
N17 C46 1_555 1_555
C46 C44 1_555 1_555
H25 C46 1_555 1_555
C61 C44 1_555 1_555
H37 C61 1_555 1_555
C65 N17 1_555 1_555
H41 C65 1_555 1_555
C68 C61 1_555 1_555
H44 C68 1_555 1_555
Ag7 N17 1_555 1_555
C65 C68 1_555 1_555
Ag1 N9 1_555 1_555
Co1 N1 1_555 1_555
Ag2 N10 1_555 1_555
N1 C2 1_555 1_555
O1 C2 1_555 1_555
N2 Co1 1_555 1_555
N3 Co1 1_555 1_555
N4 Co1 1_555 1_555
N5 Co1 1_555 1_555
N6 Co1 1_555 1_555
N8 C6 1_555 1_555
O3 C19 1_555 1_555
N9 C13 1_555 1_555
C1 N2 1_555 1_555
C2 C5 1_555 1_555
C3 N1 1_555 1_555
C4 N6 1_555 1_555
C5 N4 1_555 1_555
C6 C3 1_555 1_555
H1 C6 1_555 1_555
N10 C25 1_555 1_555
C7 C3 1_555 1_555
H2 C7 1_555 1_555
C8 N3 1_555 1_555
C9 N5 1_555 1_555
C11 N3 1_555 1_555
C13 C4 1_555 1_555
H4 C13 1_555 1_555
C14 C7 1_555 1_555
H5 C14 1_555 1_555
C15 N4 1_555 1_555
O4 C17 1_555 1_555
C16 C1 1_555 1_555
H6 C16 1_555 1_555
C17 N2 1_555 1_555
C18 C4 1_555 1_555
H7 C18 1_555 1_555
C19 N6 1_555 1_555
C20 H8 1_555 1_555
C21 C5 1_555 1_555
H9 C21 1_555 1_555
C22 C16 1_555 1_555
H10 C22 1_555 1_555
C23 C11 1_555 1_555
H11 C23 1_555 1_555
C24 C23 1_555 1_555
H12 C24 1_555 1_555
C25 C1 1_555 1_555
H13 C25 1_555 1_555
C26 C18 1_555 1_555
H14 C26 1_555 1_555
C28 N8 1_555 1_555
H16 C28 1_555 1_555
C29 C8 1_555 1_555
H17 C29 1_555 1_555
C30 C15 1_555 1_555
H18 C30 1_555 1_555
C32 N9 1_555 1_555
H20 C32 1_555 1_555
C33 N10 1_555 1_555
H21 C33 1_555 1_555
Ag3 N19 1_555 1_555
Co2 N11 1_555 1_555
N11 C36 1_555 1_555
O5 C36 1_555 1_555
N12 Co2 1_555 1_555
N13 Co2 1_555 1_555
N14 Co2 1_555 1_555
N15 Co2 1_555 1_555
N16 Co2 1_555 1_555
N18 C40 1_555 1_555
O7 C53 1_555 1_555
N19 C47 1_555 1_555
C35 N12 1_555 1_555
C36 C39 1_555 1_555
C37 N11 1_555 1_555
C38 N16 1_555 1_555
C39 N14 1_555 1_555
C40 C37 1_555 1_555
H23 C40 1_555 1_555
N20 Ag2 1_555 1_555
C41 C37 1_555 1_555
H24 C41 1_555 1_555
C42 N13 1_555 1_555
C43 N15 1_555 1_555
C45 N13 1_555 1_555
C47 C38 1_555 1_555
H26 C47 1_555 1_555
C48 C41 1_555 1_555
H27 C48 1_555 1_555
C49 N14 1_555 1_555
O8 C51 1_555 1_555
C50 C35 1_555 1_555
H28 C50 1_555 1_555
C51 N12 1_555 1_555
C52 C38 1_555 1_555
H29 C52 1_555 1_555
C53 N16 1_555 1_555
C54 H30 1_555 1_555
C55 C39 1_555 1_555
H31 C55 1_555 1_555
C56 C50 1_555 1_555
H32 C56 1_555 1_555
C57 C45 1_555 1_555
H33 C57 1_555 1_555
C58 C57 1_555 1_555
H34 C58 1_555 1_555
C59 C35 1_555 1_555
H35 C59 1_555 1_555
C60 C52 1_555 1_555
H36 C60 1_555 1_555
C62 N18 1_555 1_555
H38 C62 1_555 1_555
C63 C42 1_555 1_555
H39 C63 1_555 1_555
C64 C49 1_555 1_555
H40 C64 1_555 1_555
C66 N19 1_555 1_555
H42 C66 1_555 1_555
C67 N20 1_555 1_555
H43 C67 1_555 1_555
Ag4 N18 1_555 1_555
Ag6 N8 1_555 1_555
N21 Ag1 1_555 1_555
N22 Ag3 1_555 1_555
N23 Ag3 1_555 1_555
N24 Ag1 1_555 1_555
C8 C19 1_555 1_555
C9 C11 1_555 1_555
C14 C28 1_555 1_555
C15 C17 1_555 1_555
C20 C21 1_555 1_555
C20 C30 1_555 1_555
C22 C33 1_555 1_555
C24 C29 1_555 1_555
C26 C32 1_555 1_555
N20 C59 1_555 1_555
C42 C53 1_555 1_555
C43 C45 1_555 1_555
C48 C62 1_555 1_555
C49 C51 1_555 1_555
C54 C55 1_555 1_555
C54 C64 1_555 1_555
C56 C67 1_555 1_555
C58 C63 1_555 1_555
C60 C66 1_555 1_555
N7 C12 1_555 1_555
C12 C10 1_555 1_555
H3 C12 1_555 1_555
C27 C10 1_555 1_555
H15 C27 1_555 1_555
C31 N7 1_555 1_555
H19 C31 1_555 1_555
C34 C27 1_555 1_555
H22 C34 1_555 1_555
Ag5 N7 1_555 1_555
C31 C34 1_555 1_555
Ag4 N9_2 1_555 1_555
Ag2_2 N10_2 1_555 1_555
C1_2 N2_2 1_555 1_555
N10_2 C25_2 1_555 1_555
C15_2 N4_2 1_555 1_555
O4_2 C17_2 1_555 1_555
C16_2 C1_2 1_555 1_555
H6_2 C16_2 1_555 1_555
C17_2 N2_2 1_555 1_555
C20_2 H8_2 1_555 1_555
H9_2 C21_2 1_555 1_555
C25_2 C1_2 1_555 1_555
H13_2 C25_2 1_555 1_555
H14_2 C26_2 1_555 1_555
C30_2 C15_2 1_555 1_555
H18_2 C30_2 1_555 1_555
C32_2 N9_2 1_555 1_555
H20_2 C32_2 1_555 1_555
N21_2 Ag4 1_555 1_555
C15_2 C17_2 1_555 1_555
C20_2 C21_2 1_555 1_555
C20_2 C30_2 1_555 1_555
C26_2 C32_2 1_555 1_555
H10_2 C22_2 1_555 1_555
H21_2 C33_2 1_555 1_555
Co2_2 N11_2 1_555 1_555
N11_2 C36_2 1_555 1_555
O5_2 C36_2 1_555 1_555
N13_2 Co2_2 1_555 1_555
N15_2 Co2_2 1_555 1_555
N16_2 Co2_2 1_555 1_555
N24 C40_2 1_555 1_555
O7_2 C53_2 1_555 1_555
C36_2 C39_2 1_555 1_555
C37_2 N11_2 1_555 1_555
C38_2 N16_2 1_555 1_555
C40_2 C37_2 1_555 1_555
H23_2 C40_2 1_555 1_555
C41_2 C37_2 1_555 1_555
H24_2 C41_2 1_555 1_555
C42_2 N13_2 1_555 1_555
C43_2 N15_2 1_555 1_555
C45_2 N13_2 1_555 1_555
C47_2 C38_2 1_555 1_555
H26_2 C47_2 1_555 1_555
C48_2 C41_2 1_555 1_555
H27_2 C48_2 1_555 1_555
C52_2 C38_2 1_555 1_555
H29_2 C52_2 1_555 1_555
C53_2 N16_2 1_555 1_555
C57_2 C45_2 1_555 1_555
C58_2 C57_2 1_555 1_555
C62_2 N24 1_555 1_555
H38_2 C62_2 1_555 1_555
C63_2 C42_2 1_555 1_555
H39_2 C63_2 1_555 1_555
C22_2 C33_2 1_555 1_555
C42_2 C53_2 1_555 1_555
C43_2 C45_2 1_555 1_555
C48_2 C62_2 1_555 1_555
C58_2 C63_2 1_555 1_555
N17_2 C46_2 1_555 1_555
C46_2 C44_2 1_555 1_555
H25_2 C46_2 1_555 1_555
Ag7_2 N17_2 1_555 1_555
N7_2 C12_2 1_555 1_555
C12_2 C10_2 1_555 1_555
H3_2 C12_2 1_555 1_555
Ag5_2 N7_2 1_555 1_555
Co1_2 N1_2 1_555 1_555
N1_2 C2_2 1_555 1_555
O1_2 C2_2 1_555 1_555
N3_2 Co1_2 1_555 1_555
N5_2 Co1_2 1_555 1_555
N6_2 Co1_2 1_555 1_555
N23 C6_2 1_555 1_555
O3_2 C19_2 1_555 1_555
C2_2 C5_2 1_555 1_555
C3_2 N1_2 1_555 1_555
C4_2 N6_2 1_555 1_555
C6_2 C3_2 1_555 1_555
H1_2 C6_2 1_555 1_555
C7_2 C3_2 1_555 1_555
H2_2 C7_2 1_555 1_555
C8_2 N3_2 1_555 1_555
C9_2 N5_2 1_555 1_555
C11_2 N3_2 1_555 1_555
C13_2 C4_2 1_555 1_555
H4_2 C13_2 1_555 1_555
C14_2 C7_2 1_555 1_555
H5_2 C14_2 1_555 1_555
C18_2 C4_2 1_555 1_555
H7_2 C18_2 1_555 1_555
C19_2 N6_2 1_555 1_555
C23_2 C11_2 1_555 1_555
C24_2 C23_2 1_555 1_555
C28_2 N23 1_555 1_555
H16_2 C28_2 1_555 1_555
C29_2 C8_2 1_555 1_555
H17_2 C29_2 1_555 1_555
H32_2 C56_2 1_555 1_555
H43_2 C67_2 1_555 1_555
C8_2 C19_2 1_555 1_555
C9_2 C11_2 1_555 1_555
C14_2 C28_2 1_555 1_555
C24_2 C29_2 1_555 1_555
C56_2 C67_2 1_555 1_555
Ag6 N19_2 1_555 1_555
C35_2 N12_2 1_555 1_555
N20_2 Ag2_5 1_555 1_555
C49_2 N14_2 1_555 1_555
O8_2 C51_2 1_555 1_555
C50_2 C35_2 1_555 1_555
H28_2 C50_2 1_555 1_555
C51_2 N12_2 1_555 1_555
C54_2 H30_2 1_555 1_555
H31_2 C55_2 1_555 1_555
C59_2 C35_2 1_555 1_555
H35_2 C59_2 1_555 1_555
H36_2 C60_2 1_555 1_555
C64_2 C49_2 1_555 1_555
H40_2 C64_2 1_555 1_555
C66_2 N19_2 1_555 1_555
H42_2 C66_2 1_555 1_555
N22_2 Ag6 1_555 1_555
N20_2 C59_2 1_555 1_555
C49_2 C51_2 1_555 1_555
C54_2 C55_2 1_555 1_555
C54_2 C64_2 1_555 1_555
C60_2 C66_2 1_555 1_555
Ag7 N19_3 1_555 1_555
Co2_3 N11_3 1_555 1_555
N11_3 C36_3 1_555 1_555
O5_3 C36_3 1_555 1_555
N12_3 Co2_3 1_555 1_555
O6_3 C43_3 1_555 1_555
N13_3 Co2_3 1_555 1_555
N14_3 Co2_3 1_555 1_555
N15_3 Co2_3 1_555 1_555
N16_3 Co2_3 1_555 1_555
N22 C46_3 1_555 1_555
N18_2 C40_3 1_555 1_555
O7_3 C53_3 1_555 1_555
N19_3 C47_3 1_555 1_555
C35_3 N12_3 1_555 1_555
C36_3 C39_3 1_555 1_555
C37_3 N11_3 1_555 1_555
C38_3 N16_3 1_555 1_555
C39_3 N14_3 1_555 1_555
C40_3 C37_3 1_555 1_555
H23_3 C40_3 1_555 1_555
N20_3 Ag2_6 1_555 1_555
C41_3 C37_3 1_555 1_555
H24_3 C41_3 1_555 1_555
C42_3 N13_3 1_555 1_555
C43_3 N15_3 1_555 1_555
C44_3 N15_3 1_555 1_555
C45_3 N13_3 1_555 1_555
C46_3 C44_3 1_555 1_555
H25_3 C46_3 1_555 1_555
C47_3 C38_3 1_555 1_555
H26_3 C47_3 1_555 1_555
C48_3 C41_3 1_555 1_555
H27_3 C48_3 1_555 1_555
C49_3 N14_3 1_555 1_555
O8_3 C51_3 1_555 1_555
C50_3 C35_3 1_555 1_555
H28_3 C50_3 1_555 1_555
C51_3 N12_3 1_555 1_555
C52_3 C38_3 1_555 1_555
H29_3 C52_3 1_555 1_555
C53_3 N16_3 1_555 1_555
C54_3 H30_3 1_555 1_555
C55_3 C39_3 1_555 1_555
H31_3 C55_3 1_555 1_555
C57_3 C45_3 1_555 1_555
C58_3 C57_3 1_555 1_555
C59_3 C35_3 1_555 1_555
H35_3 C59_3 1_555 1_555
C60_3 C52_3 1_555 1_555
H36_3 C60_3 1_555 1_555
C61_2 C44_3 1_555 1_555
H37_2 C61_2 1_555 1_555
C62_3 N18_2 1_555 1_555
H38_3 C62_3 1_555 1_555
C63_3 C42_3 1_555 1_555
H39_3 C63_3 1_555 1_555
C64_3 C49_3 1_555 1_555
H40_3 C64_3 1_555 1_555
C65_2 N22 1_555 1_555
H41_2 C65_2 1_555 1_555
C66_3 N19_3 1_555 1_555
H42_3 C66_3 1_555 1_555
C68_2 C61_2 1_555 1_555
H44_2 C68_2 1_555 1_555
Ag5_2 N18_2 1_555 1_555
N23_2 Ag7 1_555 1_555
N20_3 C59_3 1_555 1_555
C42_3 C53_3 1_555 1_555
C43_3 C45_3 1_555 1_555
C48_3 C62_3 1_555 1_555
C49_3 C51_3 1_555 1_555
C54_3 C55_3 1_555 1_555
C54_3 C64_3 1_555 1_555
C58_3 C63_3 1_555 1_555
C60_3 C66_3 1_555 1_555
C65_2 C68_2 1_555 1_555
Ag5 N9_3 1_555 1_555
Co1_3 N1_3 1_555 1_555
Ag2_7 N10_3 1_555 1_555
N1_3 C2_3 1_555 1_555
O1_3 C2_3 1_555 1_555
N2_3 Co1_3 1_555 1_555
O2_3 C9_3 1_555 1_555
N3_3 Co1_3 1_555 1_555
N4_3 Co1_3 1_555 1_555
N5_3 Co1_3 1_555 1_555
N6_3 Co1_3 1_555 1_555
N21 C12_3 1_555 1_555
N8_2 C6_3 1_555 1_555
O3_3 C19_3 1_555 1_555
N9_3 C13_3 1_555 1_555
C1_3 N2_3 1_555 1_555
C2_3 C5_3 1_555 1_555
C3_3 N1_3 1_555 1_555
C4_3 N6_3 1_555 1_555
C5_3 N4_3 1_555 1_555
C6_3 C3_3 1_555 1_555
H1_3 C6_3 1_555 1_555
N10_3 C25_3 1_555 1_555
C7_3 C3_3 1_555 1_555
H2_3 C7_3 1_555 1_555
C8_3 N3_3 1_555 1_555
C9_3 N5_3 1_555 1_555
C10_3 N5_3 1_555 1_555
C11_3 N3_3 1_555 1_555
C12_3 C10_3 1_555 1_555
H3_3 C12_3 1_555 1_555
C13_3 C4_3 1_555 1_555
H4_3 C13_3 1_555 1_555
C14_3 C7_3 1_555 1_555
H5_3 C14_3 1_555 1_555
C15_3 N4_3 1_555 1_555
O4_3 C17_3 1_555 1_555
C16_3 C1_3 1_555 1_555
H6_3 C16_3 1_555 1_555
C17_3 N2_3 1_555 1_555
C18_3 C4_3 1_555 1_555
H7_3 C18_3 1_555 1_555
C19_3 N6_3 1_555 1_555
C20_3 H8_3 1_555 1_555
C21_3 C5_3 1_555 1_555
H9_3 C21_3 1_555 1_555
C23_3 C11_3 1_555 1_555
C24_3 C23_3 1_555 1_555
C25_3 C1_3 1_555 1_555
H13_3 C25_3 1_555 1_555
C26_3 C18_3 1_555 1_555
H14_3 C26_3 1_555 1_555
C27_2 C10_3 1_555 1_555
H15_2 C27_2 1_555 1_555
C28_3 N8_2 1_555 1_555
H16_3 C28_3 1_555 1_555
C29_3 C8_3 1_555 1_555
H17_3 C29_3 1_555 1_555
C30_3 C15_3 1_555 1_555
H18_3 C30_3 1_555 1_555
C31_2 N21 1_555 1_555
H19_2 C31_2 1_555 1_555
C32_3 N9_3 1_555 1_555
H20_3 C32_3 1_555 1_555
C34_2 C27_2 1_555 1_555
H22_2 C34_2 1_555 1_555
Ag7_2 N8_2 1_555 1_555
N24_2 Ag5 1_555 1_555
C8_3 C19_3 1_555 1_555
C9_3 C11_3 1_555 1_555
C14_3 C28_3 1_555 1_555
C15_3 C17_3 1_555 1_555
C20_3 C21_3 1_555 1_555
C20_3 C30_3 1_555 1_555
C24_3 C29_3 1_555 1_555
C26_3 C32_3 1_555 1_555
C31_2 C34_2 1_555 1_555
Co1_4 N1_4 1_555 1_555
N1_4 C2_4 1_555 1_555
O1_4 C2_4 1_555 1_555
O2_4 C9_4 1_555 1_555
N3_4 Co1_4 1_555 1_555
N5_4 Co1_4 1_555 1_555
N6_4 Co1_4 1_555 1_555
N21_2 C12_4 1_555 1_555
N23_2 C6_4 1_555 1_555
O3_4 C19_4 1_555 1_555
C2_4 C5_4 1_555 1_555
C3_4 N1_4 1_555 1_555
C4_4 N6_4 1_555 1_555
C6_4 C3_4 1_555 1_555
H1_4 C6_4 1_555 1_555
C7_4 C3_4 1_555 1_555
H2_4 C7_4 1_555 1_555
C8_4 N3_4 1_555 1_555
C9_4 N5_4 1_555 1_555
C10_4 N5_4 1_555 1_555
C11_4 N3_4 1_555 1_555
C12_4 C10_4 1_555 1_555
H3_4 C12_4 1_555 1_555
C13_4 C4_4 1_555 1_555
H4_4 C13_4 1_555 1_555
C14_4 C7_4 1_555 1_555
H5_4 C14_4 1_555 1_555
C18_4 C4_4 1_555 1_555
H7_4 C18_4 1_555 1_555
C19_4 N6_4 1_555 1_555
C23_4 C11_4 1_555 1_555
H11_3 C23_4 1_555 1_555
C24_4 C23_4 1_555 1_555
H12_3 C24_4 1_555 1_555
C28_4 N23_2 1_555 1_555
H16_4 C28_4 1_555 1_555
C29_4 C8_4 1_555 1_555
H17_4 C29_4 1_555 1_555
C8_4 C19_4 1_555 1_555
C9_4 C11_4 1_555 1_555
C14_4 C28_4 1_555 1_555
C24_4 C29_4 1_555 1_555
Ag7_2 N19_4 1_555 1_555
C35_4 N12_4 1_555 1_555
N20_4 Ag2_9 1_555 1_555
C49_4 N14_4 1_555 1_555
O8_4 C51_4 1_555 1_555
C50_4 C35_4 1_555 1_555
H28_4 C50_4 1_555 1_555
C51_4 N12_4 1_555 1_555
C54_4 H30_4 1_555 1_555
H31_4 C55_4 1_555 1_555
C56_3 C50_4 1_555 1_555
H32_3 C56_3 1_555 1_555
C59_4 C35_4 1_555 1_555
H35_4 C59_4 1_555 1_555
H36_4 C60_4 1_555 1_555
H37_3 C61_3 1_555 1_555
C64_4 C49_4 1_555 1_555
H40_4 C64_4 1_555 1_555
H41_3 C65_3 1_555 1_555
C66_4 N19_4 1_555 1_555
H42_4 C66_4 1_555 1_555
C67_3 N20_4 1_555 1_555
H43_3 C67_3 1_555 1_555
C68_3 C61_3 1_555 1_555
H44_3 C68_3 1_555 1_555
N20_4 C59_4 1_555 1_555
C49_4 C51_4 1_555 1_555
C54_4 C55_4 1_555 1_555
C54_4 C64_4 1_555 1_555
C56_3 C67_3 1_555 1_555
C60_4 C66_4 1_555 1_555
C65_3 C68_3 1_555 1_555
Ag5_2 N9_4 1_555 1_555
Ag2_10 N10_4 1_555 1_555
C1_4 N2_4 1_555 1_555
N10_4 C25_4 1_555 1_555
C15_4 N4_4 1_555 1_555
O4_4 C17_4 1_555 1_555
C16_4 C1_4 1_555 1_555
H6_4 C16_4 1_555 1_555
C17_4 N2_4 1_555 1_555
C20_4 H8_4 1_555 1_555
H9_4 C21_4 1_555 1_555
C22_3 C16_4 1_555 1_555
H10_3 C22_3 1_555 1_555
C25_4 C1_4 1_555 1_555
H13_4 C25_4 1_555 1_555
H14_4 C26_4 1_555 1_555
H15_3 C27_3 1_555 1_555
C30_4 C15_4 1_555 1_555
H18_4 C30_4 1_555 1_555
H19_3 C31_3 1_555 1_555
C32_4 N9_4 1_555 1_555
H20_4 C32_4 1_555 1_555
C33_3 N10_4 1_555 1_555
H21_3 C33_3 1_555 1_555
C34_3 C27_3 1_555 1_555
H22_3 C34_3 1_555 1_555
C15_4 C17_4 1_555 1_555
C20_4 C21_4 1_555 1_555
C20_4 C30_4 1_555 1_555
C22_3 C33_3 1_555 1_555
C26_4 C32_4 1_555 1_555
C31_3 C34_3 1_555 1_555
Co2_4 N11_4 1_555 1_555
N11_4 C36_4 1_555 1_555
O5_4 C36_4 1_555 1_555
O6_4 C43_4 1_555 1_555
N13_4 Co2_4 1_555 1_555
N15_4 Co2_4 1_555 1_555
N16_4 Co2_4 1_555 1_555
N22_2 C46_4 1_555 1_555
N24_2 C40_4 1_555 1_555
O7_4 C53_4 1_555 1_555
C36_4 C39_4 1_555 1_555
C37_4 N11_4 1_555 1_555
C38_4 N16_4 1_555 1_555
C40_4 C37_4 1_555 1_555
H23_4 C40_4 1_555 1_555
C41_4 C37_4 1_555 1_555
H24_4 C41_4 1_555 1_555
C42_4 N13_4 1_555 1_555
C43_4 N15_4 1_555 1_555
C44_4 N15_4 1_555 1_555
C45_4 N13_4 1_555 1_555
C46_4 C44_4 1_555 1_555
H25_4 C46_4 1_555 1_555
C47_4 C38_4 1_555 1_555
H26_4 C47_4 1_555 1_555
C48_4 C41_4 1_555 1_555
H27_4 C48_4 1_555 1_555
C52_4 C38_4 1_555 1_555
H29_4 C52_4 1_555 1_555
C53_4 N16_4 1_555 1_555
C57_4 C45_4 1_555 1_555
H33_3 C57_4 1_555 1_555
C58_4 C57_4 1_555 1_555
H34_3 C58_4 1_555 1_555
C62_4 N24_2 1_555 1_555
H38_4 C62_4 1_555 1_555
C63_4 C42_4 1_555 1_555
H39_4 C63_4 1_555 1_555
C42_4 C53_4 1_555 1_555
C43_4 C45_4 1_555 1_555
C48_4 C62_4 1_555 1_555
C58_4 C63_4 1_555 1_555
H15_4 C27_4 1_555 1_555
H19_4 C31_4 1_555 1_555
C34_4 C27_4 1_555 1_555
H22_4 C34_4 1_555 1_555
C31_4 C34_4 1_555 1_555
H37_4 C61_4 1_555 1_555
H41_4 C65_4 1_555 1_555
C68_4 C61_4 1_555 1_555
H44_4 C68_4 1_555 1_555
C65_4 C68_4 1_555 1_555
H32_4 C56_4 1_555 1_555
H43_4 C67_4 1_555 1_555
C56_4 C67_4 1_555 1_555
H10_4 C22_4 1_555 1_555
H21_4 C33_4 1_555 1_555
C22_4 C33_4 1_555 1_555

#END
