
###############################################################################
#
# This file contains modified crystal structure data generated from the
# MOF subset of the Cambridge Structural Database (CSD) v543 
# hosted by the Cambridge Crystallographic Data Centre (CCDC).
#
# This work is licensed under the Creative Commons
# Attribution-NonCommercial-ShareAlike 4.0 International License.
# To view a copy of this license, visit
# http://creativecommons.org/licenses/by-nc-sa/4.0/
# or send a letter to
# Creative Commons, PO Box 1866, Mountain View, CA 94042, USA.
#
# CIF created using the CSD Python API on 29 September 2022
# The structure has been converted into the P1 space group
# The structure has a 3D framework
# The original CSD entry UFAMIA is in the rhombohedral crystal system
# The framework has been calculated to contain at least 10.0% void space
# The void calculation uses a probe of radius 1.32A, grid spacing 0.4
#
###############################################################################

data_UFAMIA
_chemical_formula_moiety         '(C144 H90 O90 Zn18)n'
_symmetry_cell_setting           triclinic
_symmetry_space_group_name_H-M   'P 1'
_symmetry_Int_Tables_number      1
_space_group_name_Hall           'P 1'
loop_
_symmetry_equiv_pos_site_id
_symmetry_equiv_pos_as_xyz
1 x,y,z
_cell_length_a                   18.797(2)
_cell_length_b                   18.797(2)
_cell_length_c                   24.928(6)
_cell_angle_alpha                90
_cell_angle_beta                 90
_cell_angle_gamma                120
_cell_volume                     7627.73
loop_
_atom_site_label
_atom_site_type_symbol
_atom_site_fract_x
_atom_site_fract_y
_atom_site_fract_z
O1 O 0.77274(11) 0.07475(10) 0.23647(7)
C1 C 0.78351(14) 0.02490(13) 0.20952(10)
O2 O 0.89464(13) 0.10536(13) 0.05410(14)
H3 H 0.8579 0.0599 0.0447
O3 O 0.81382(11) 0.03703(10) 0.16362(7)
Zn1 Zn 0.85927(2) 0.14073(2) 0.11783(2)
H8 H 0.9401 0.1421 0.0447
O11 O 0.74142(10) 0.10607(11) 0.09686(7)
O13 O 0.89393(11) 0.25858(10) 0.09686(7)
O16 O 0.96297(10) 0.18618(11) 0.16362(7)
Zn4 Zn 0.52594(2) 0.05187(3) 0.45116(2)
Zn5 Zn 0.80740(2) 0.19260(2) 0.21550(2)
C2 C 0.75684(13) 0.94210(13) 0.23449(9)
C3 C 0.7772(2) 0.88860(10) 0.21019(13)
H1 H 0.8046 0.9023 0.1775
C4 C 0.71431(15) 0.92051(14) 0.28265(9)
H2 H 0.7016 0.9573 0.2989
C5 C 0.6899(2) 0.84495(10) 0.30767(12)
O4 O 0.56059(11) 0.96868(15) 0.43020(7)
C6 C 0.54982(14) 0.90806(19) 0.45715(10)
C7 C 0.57649(13) 0.85193(18) 0.43218(9)
C8 C 0.5561(2) 0.77807(22) 0.45648(13)
H4 H 0.5287 0.7644 0.4892
C9 C 0.61902(15) 0.87287(21) 0.38402(9)
H5 H 0.6317 0.9224 0.3678
C10 C 0.6434(2) 0.82172(22) 0.35900(12)
O5 O 0.51951(11) 0.88988(15) 0.50305(7)
O6 O 0.77274(11) 0.69799(15) 0.23647(7)
C11 C 0.78351(14) 0.75861(19) 0.20952(10)
C12 C 0.75684(13) 0.81474(18) 0.23449(9)
C13 C 0.71431(15) 0.79380(21) 0.28265(9)
H6 H 0.7016 0.7443 0.2989
O7 O 0.81382(11) 0.77679(15) 0.16362(7)
O8 O 0.56059(11) 0.59192(10) 0.43020(7)
C14 C 0.54982(14) 0.64177(13) 0.45715(10)
C15 C 0.57649(13) 0.72457(13) 0.43218(9)
C16 C 0.61902(15) 0.74616(14) 0.38402(9)
H7 H 0.6317 0.7094 0.3678
O9 O 0.51951(11) 0.62964(10) 0.50305(7)
O10 O 0.89464(13) 0.78928(18) 0.05410(14)
H9 H 0.9401 0.7980 0.0447
Zn2 Zn 0.85927(2) 0.71854(3) 0.11783(2)
H10 H 0.8579 0.7980 0.0447
O12 O 0.89393(11) 0.63534(15) 0.09686(7)
O14 O 0.74142(10) 0.63534(15) 0.09686(7)
O15 O 0.96297(10) 0.77679(15) 0.16362(7)
Zn3 Zn 0.52594(2) 0.47406(2) 0.45116(2)
Zn6 Zn 0.80740(2) 0.61479(3) 0.21550(2)
Zn7 Zn 0.47406(2) 0.52594(2) 0.54884(2)
Zn8 Zn 0.47406(2) 0.94813(3) 0.54884(2)
O6_2 O 0.30201(15) 0.07475(19) 0.23647(7)
C11_2 C 0.24139(19) 0.02490(24) 0.20952(10)
O7_2 O 0.22321(15) 0.03703(19) 0.16362(7)
O10_2 O 0.21072(18) 0.10536(22) 0.05410(14)
H9_2 H 0.2020 0.1421 0.0447
Zn2_2 Zn 0.28146(3) 0.14073(4) 0.11783(2)
H10_2 H 0.2020 0.0599 0.0447
O12_2 O 0.36466(15) 0.25858(19) 0.09686(7)
O14_2 O 0.36466(15) 0.10607(18) 0.09686(7)
O15_2 O 0.22321(15) 0.18618(18) 0.16362(7)
Zn6_2 Zn 0.38521(3) 0.19260(4) 0.21550(2)
C2_2 C 0.05790(13) 0.81474(18) 0.23449(9)
C3_2 C 0.11140(10) 0.88860(22) 0.21019(13)
H1_2 H 0.0977 0.9023 0.1775
C4_2 C 0.07949(14) 0.79380(21) 0.28265(9)
H2_2 H 0.0427 0.7443 0.2989
C5_2 C 0.15505(10) 0.84495(22) 0.30767(12)
O4_2 O 0.03132(15) 0.59192(19) 0.43020(7)
C6_2 C 0.09194(19) 0.64177(24) 0.45715(10)
C7_2 C 0.14807(18) 0.72457(22) 0.43218(9)
C8_2 C 0.22193(22) 0.77807(30) 0.45648(13)
H4_2 H 0.2356 0.7644 0.4892
C9_2 C 0.12713(21) 0.74616(26) 0.38402(9)
H5_2 H 0.0776 0.7094 0.3678
C10_2 C 0.17828(22) 0.82172(30) 0.35900(12)
O5_2 O 0.11012(15) 0.62964(19) 0.50305(7)
C12_2 C 0.18526(18) 0.94210(22) 0.23449(9)
C13_2 C 0.20620(21) 0.92051(26) 0.28265(9)
H6_2 H 0.2557 0.9573 0.2989
O8_2 O 0.40808(10) 0.96868(15) 0.43020(7)
C14_2 C 0.35823(13) 0.90806(19) 0.45715(10)
C15_2 C 0.27543(13) 0.85193(18) 0.43218(9)
C16_2 C 0.25384(14) 0.87287(21) 0.38402(9)
H7_2 H 0.2906 0.9224 0.3678
O9_2 O 0.37036(10) 0.88988(15) 0.50305(7)
Zn8_2 Zn 0.05187(3) 0.52594(4) 0.54884(2)
O1_2 O 0.92525(10) 0.69799(15) 0.23647(7)
C1_2 C 0.97510(13) 0.75861(19) 0.20952(10)
Zn4_2 Zn 0.94813(3) 0.47406(4) 0.45116(2)
O1_3 O 0.30201(15) 0.22726(11) 0.23647(7)
C1_3 C 0.24139(19) 0.21649(14) 0.20952(10)
C2_3 C 0.18526(18) 0.24316(13) 0.23449(9)
C3_3 C 0.11140(22) 0.2228(2) 0.21019(13)
H1_3 H 0.0977 0.1954 0.1775
C4_3 C 0.20620(21) 0.28569(15) 0.28265(9)
H2_3 H 0.2557 0.2984 0.2989
C5_3 C 0.15505(22) 0.3101(2) 0.30767(12)
O4_3 O 0.40808(19) 0.43941(11) 0.43020(7)
C6_3 C 0.35823(24) 0.45018(14) 0.45715(10)
C7_3 C 0.27543(22) 0.42351(13) 0.43218(9)
C8_3 C 0.22193(30) 0.4439(2) 0.45648(13)
H4_3 H 0.2356 0.4713 0.4892
C9_3 C 0.25384(26) 0.38098(15) 0.38402(9)
H5_3 H 0.2906 0.3683 0.3678
C10_3 C 0.17828(30) 0.3566(2) 0.35900(12)
O5_3 O 0.37036(19) 0.48049(11) 0.50305(7)
C12_3 C 0.05790(22) 0.24316(13) 0.23449(9)
C13_3 C 0.07949(26) 0.28569(15) 0.28265(9)
H6_3 H 0.0427 0.2984 0.2989
O8_3 O 0.03132(15) 0.43941(11) 0.43020(7)
C14_3 C 0.09194(19) 0.45018(14) 0.45715(10)
C15_3 C 0.14807(18) 0.42351(13) 0.43218(9)
C16_3 C 0.12713(21) 0.38098(15) 0.38402(9)
H7_3 H 0.0776 0.3683 0.3678
O9_3 O 0.11012(15) 0.48049(11) 0.50305(7)
O6_3 O 0.92525(19) 0.22726(11) 0.23647(7)
C11_3 C 0.97510(24) 0.21649(14) 0.20952(10)
O1_4 O 0.07475(10) 0.77274(11) 0.76353(7)
C1_4 C 0.02490(13) 0.78351(14) 0.79048(10)
O2_2 O 0.10536(13) 0.89464(13) 0.94590(14)
H3_2 H 0.0599 0.8579 0.9553
O3_2 O 0.03703(10) 0.81382(11) 0.83638(7)
Zn1_2 Zn 0.14073(2) 0.85927(2) 0.88217(2)
H8_2 H 0.1421 0.9401 0.9553
O11_2 O 0.10607(11) 0.74142(10) 0.90314(7)
O13_2 O 0.25858(10) 0.89393(11) 0.90314(7)
O16_2 O 0.18618(11) 0.96297(10) 0.83638(7)
Zn5_2 Zn 0.19260(2) 0.80740(2) 0.78450(2)
C2_4 C 0.94210(13) 0.75684(13) 0.76551(9)
C3_4 C 0.88860(10) 0.7772(2) 0.78981(13)
H1_4 H 0.9023 0.8046 0.8225
C4_4 C 0.92051(14) 0.71431(15) 0.71735(9)
H2_4 H 0.9573 0.7016 0.7011
C5_4 C 0.84495(10) 0.6899(2) 0.69233(12)
O4_4 O 0.96868(15) 0.56059(11) 0.56980(7)
C6_4 C 0.90806(19) 0.54982(14) 0.54285(10)
C7_4 C 0.85193(18) 0.57649(13) 0.56782(9)
C8_4 C 0.77807(22) 0.5561(2) 0.54352(13)
H4_4 H 0.7644 0.5287 0.5108
C9_4 C 0.87287(21) 0.61902(15) 0.61598(9)
H5_4 H 0.9224 0.6317 0.6322
C10_4 C 0.82172(22) 0.6434(2) 0.64100(12)
O5_4 O 0.88988(15) 0.51951(11) 0.49695(7)
O6_4 O 0.69799(15) 0.77274(11) 0.76353(7)
C11_4 C 0.75861(19) 0.78351(14) 0.79048(10)
C12_4 C 0.81474(18) 0.75684(13) 0.76551(9)
C13_4 C 0.79380(21) 0.71431(15) 0.71735(9)
H6_4 H 0.7443 0.7016 0.7011
O7_3 O 0.77679(15) 0.81382(11) 0.83638(7)
O8_4 O 0.59192(10) 0.56059(11) 0.56980(7)
C14_4 C 0.64177(13) 0.54982(14) 0.54285(10)
C15_4 C 0.72457(13) 0.57649(13) 0.56782(9)
C16_4 C 0.74616(14) 0.61902(15) 0.61598(9)
H7_4 H 0.7094 0.6317 0.6322
O9_4 O 0.62964(10) 0.51951(11) 0.49695(7)
O10_3 O 0.78928(18) 0.89464(13) 0.94590(14)
H9_3 H 0.7980 0.9401 0.9553
Zn2_3 Zn 0.71854(3) 0.85927(2) 0.88217(2)
H10_3 H 0.7980 0.8579 0.9553
O12_3 O 0.63534(15) 0.89393(11) 0.90314(7)
O14_3 O 0.63534(15) 0.74142(10) 0.90314(7)
O15_3 O 0.77679(15) 0.96297(10) 0.83638(7)
Zn6_3 Zn 0.61479(3) 0.80740(2) 0.78450(2)
O6_5 O 0.07475(19) 0.30201(15) 0.76353(7)
C11_5 C 0.02490(24) 0.24139(19) 0.79048(10)
O7_4 O 0.03703(19) 0.22321(15) 0.83638(7)
O10_4 O 0.10536(22) 0.21072(18) 0.94590(14)
H9_4 H 0.1421 0.2020 0.9553
Zn2_4 Zn 0.14073(4) 0.28146(3) 0.88217(2)
H10_4 H 0.0599 0.2020 0.9553
O12_4 O 0.25858(19) 0.36466(15) 0.90314(7)
O14_4 O 0.10607(18) 0.36466(15) 0.90314(7)
O15_4 O 0.18618(18) 0.22321(15) 0.83638(7)
Zn6_4 Zn 0.19260(4) 0.38521(3) 0.78450(2)
C2_5 C 0.81474(18) 0.05790(13) 0.76551(9)
C3_5 C 0.88860(22) 0.11140(10) 0.78981(13)
H1_5 H 0.9023 0.0977 0.8225
C4_5 C 0.79380(21) 0.07949(14) 0.71735(9)
H2_5 H 0.7443 0.0427 0.7011
C5_5 C 0.84495(22) 0.15505(10) 0.69233(12)
O4_5 O 0.59192(19) 0.03132(15) 0.56980(7)
C6_5 C 0.64177(24) 0.09194(19) 0.54285(10)
C7_5 C 0.72457(22) 0.14807(18) 0.56782(9)
C8_5 C 0.77807(30) 0.22193(22) 0.54352(13)
H4_5 H 0.7644 0.2356 0.5108
C9_5 C 0.74616(26) 0.12713(21) 0.61598(9)
H5_5 H 0.7094 0.0776 0.6322
C10_5 C 0.82172(30) 0.17828(22) 0.64100(12)
O5_5 O 0.62964(19) 0.11012(15) 0.49695(7)
C12_5 C 0.94210(22) 0.18526(18) 0.76551(9)
C13_5 C 0.92051(26) 0.20620(21) 0.71735(9)
H6_5 H 0.9573 0.2557 0.7011
O8_5 O 0.96868(15) 0.40808(10) 0.56980(7)
C14_5 C 0.90806(19) 0.35823(13) 0.54285(10)
C15_5 C 0.85193(18) 0.27543(13) 0.56782(9)
C16_5 C 0.87287(21) 0.25384(14) 0.61598(9)
H7_5 H 0.9224 0.2906 0.6322
O9_5 O 0.88988(15) 0.37036(10) 0.49695(7)
O1_5 O 0.69799(15) 0.92525(10) 0.76353(7)
C1_5 C 0.75861(19) 0.97510(13) 0.79048(10)
O1_6 O 0.22726(11) 0.30201(15) 0.76353(7)
C1_6 C 0.21649(14) 0.24139(19) 0.79048(10)
C2_6 C 0.24316(13) 0.18526(18) 0.76551(9)
C3_6 C 0.2228(2) 0.11140(22) 0.78981(13)
H1_6 H 0.1954 0.0977 0.8225
C4_6 C 0.28569(15) 0.20620(21) 0.71735(9)
H2_6 H 0.2984 0.2557 0.7011
C5_6 C 0.3101(2) 0.15505(22) 0.69233(12)
O4_6 O 0.43941(11) 0.40808(19) 0.56980(7)
C6_6 C 0.45018(14) 0.35823(24) 0.54285(10)
C7_6 C 0.42351(13) 0.27543(22) 0.56782(9)
C8_6 C 0.4439(2) 0.22193(30) 0.54352(13)
H4_6 H 0.4713 0.2356 0.5108
C9_6 C 0.38098(15) 0.25384(26) 0.61598(9)
H5_6 H 0.3683 0.2906 0.6322
C10_6 C 0.3566(2) 0.17828(30) 0.64100(12)
O5_6 O 0.48049(11) 0.37036(19) 0.49695(7)
C12_6 C 0.24316(13) 0.05790(22) 0.76551(9)
C13_6 C 0.28569(15) 0.07949(26) 0.71735(9)
H6_6 H 0.2984 0.0427 0.7011
O8_6 O 0.43941(11) 0.03132(15) 0.56980(7)
C14_6 C 0.45018(14) 0.09194(19) 0.54285(10)
C15_6 C 0.42351(13) 0.14807(18) 0.56782(9)
C16_6 C 0.38098(15) 0.12713(21) 0.61598(9)
H7_6 H 0.3683 0.0776 0.6322
O9_6 O 0.48049(11) 0.11012(15) 0.49695(7)
O6_6 O 0.22726(11) 0.92525(19) 0.76353(7)
C11_6 C 0.21649(14) 0.97510(24) 0.79048(10)
O2_3 O 0.56131(13) 0.43869(13) 0.38743(14)
H3_3 H 0.5246 0.3932 0.3780
H8_3 H 0.6068 0.4754 0.3780
O10_5 O 0.56131(13) 0.12261(18) 0.38743(14)
H9_5 H 0.6068 0.1313 0.3780
H10_5 H 0.5246 0.1313 0.3780
O10_6 O 0.87739(18) 0.43869(22) 0.38743(14)
H9_6 H 0.8687 0.4754 0.3780
H10_6 H 0.8687 0.3932 0.3780
C1_7 C 0.69157(13) 0.11684(14) 0.12381(10)
C2_7 C 0.60877(13) 0.09017(13) 0.09884(9)
C3_7 C 0.55527(10) 0.1105(2) 0.12314(13)
H1_7 H 0.5690 0.1379 0.1558
C4_7 C 0.58718(14) 0.04764(15) 0.05068(9)
H2_7 H 0.6240 0.0349 0.0344
C5_7 C 0.51162(10) 0.0232(2) 0.02566(12)
O2_4 O 0.77203(13) 0.22797(13) 0.27923(14)
H3_4 H 0.7266 0.1912 0.2886
O3_3 O 0.70370(10) 0.14715(11) 0.16971(7)
C11_7 C 0.42528(19) 0.11684(14) 0.12381(10)
C12_7 C 0.48141(18) 0.09017(13) 0.09884(9)
C13_7 C 0.46047(21) 0.04764(15) 0.05068(9)
H6_7 H 0.4110 0.0349 0.0344
O7_5 O 0.44346(15) 0.14715(11) 0.16971(7)
H8_4 H 0.8088 0.2734 0.2886
O10_7 O 0.45595(18) 0.22797(13) 0.27923(14)
H9_7 H 0.4647 0.2734 0.2886
H10_7 H 0.4647 0.1912 0.2886
O15_5 O 0.44346(15) 0.29630(10) 0.16971(7)
O16_3 O 0.85285(11) 0.29630(10) 0.16971(7)
C6_7 C 0.57472(19) 0.88316(14) 0.87619(10)
C7_7 C 0.51859(18) 0.90983(13) 0.90116(9)
C8_7 C 0.44473(22) 0.8895(2) 0.87686(13)
H4_7 H 0.4310 0.8621 0.8442
C9_7 C 0.53953(21) 0.95236(15) 0.94932(9)
H5_7 H 0.5890 0.9651 0.9656
C10_7 C 0.48838(22) 0.9768(2) 0.97434(12)
O5_7 O 0.55654(15) 0.85285(11) 0.83029(7)
C14_7 C 0.30843(13) 0.88316(14) 0.87619(10)
C15_7 C 0.39123(13) 0.90983(13) 0.90116(9)
C16_7 C 0.41282(14) 0.95236(15) 0.94932(9)
H7_7 H 0.3760 0.9651 0.9656
O9_7 O 0.29630(10) 0.85285(11) 0.83029(7)
C1_8 C 0.42528(19) 0.30843(13) 0.12381(10)
C2_8 C 0.48141(18) 0.39123(13) 0.09884(9)
C3_8 C 0.55527(22) 0.44473(10) 0.12314(13)
H1_8 H 0.5690 0.4310 0.1558
C4_8 C 0.46047(21) 0.41282(14) 0.05068(9)
H2_8 H 0.4110 0.3760 0.0344
C5_8 C 0.51162(22) 0.48838(10) 0.02566(12)
C11_8 C 0.69157(24) 0.57472(19) 0.12381(10)
C12_8 C 0.60877(22) 0.51859(18) 0.09884(9)
C13_8 C 0.58718(26) 0.53953(21) 0.05068(9)
H6_8 H 0.6240 0.5890 0.0344
O7_6 O 0.70370(19) 0.55654(15) 0.16971(7)
O10_8 O 0.77203(22) 0.54405(18) 0.27923(14)
H9_8 H 0.8088 0.5353 0.2886
H10_8 H 0.7266 0.5353 0.2886
O15_6 O 0.85285(18) 0.55654(15) 0.16971(7)
C6_8 C 0.30843(24) 0.42528(19) 0.87619(10)
C7_8 C 0.39123(22) 0.48141(18) 0.90116(9)
C8_8 C 0.44473(30) 0.55527(22) 0.87686(13)
H4_8 H 0.4310 0.5690 0.8442
C9_8 C 0.41282(26) 0.46047(21) 0.94932(9)
H5_8 H 0.3760 0.4110 0.9656
C10_8 C 0.48838(30) 0.51162(22) 0.97434(12)
O5_8 O 0.29630(19) 0.44346(15) 0.83029(7)
C14_8 C 0.57472(19) 0.69157(13) 0.87619(10)
C15_8 C 0.51859(18) 0.60877(13) 0.90116(9)
C16_8 C 0.53953(21) 0.58718(14) 0.94932(9)
H7_8 H 0.5890 0.6240 0.9656
O9_8 O 0.55654(15) 0.70370(10) 0.83029(7)
C6_9 C 0.11684(14) 0.69157(24) 0.87619(10)
C7_9 C 0.09017(13) 0.60877(22) 0.90116(9)
C8_9 C 0.1105(2) 0.55527(30) 0.87686(13)
H4_9 H 0.1379 0.5690 0.8442
C9_9 C 0.04764(15) 0.58718(26) 0.94932(9)
H5_9 H 0.0349 0.6240 0.9656
C10_9 C 0.0232(2) 0.51162(30) 0.97434(12)
O5_9 O 0.14715(11) 0.70370(19) 0.83029(7)
C14_9 C 0.11684(14) 0.42528(19) 0.87619(10)
C15_9 C 0.09017(13) 0.48141(18) 0.90116(9)
C16_9 C 0.04764(15) 0.46047(21) 0.94932(9)
H7_9 H 0.0349 0.4110 0.9656
O9_9 O 0.14715(11) 0.44346(15) 0.83029(7)
C1_9 C 0.88316(14) 0.57472(19) 0.12381(10)
C2_9 C 0.90983(13) 0.51859(18) 0.09884(9)
C3_9 C 0.8895(2) 0.44473(22) 0.12314(13)
H1_9 H 0.8621 0.4310 0.1558
C4_9 C 0.95236(15) 0.53953(21) 0.05068(9)
H2_9 H 0.9651 0.5890 0.0344
C5_9 C 0.9768(2) 0.48838(22) 0.02566(12)
C11_9 C 0.88316(14) 0.30843(24) 0.12381(10)
C12_9 C 0.90983(13) 0.39123(22) 0.09884(9)
C13_9 C 0.95236(15) 0.41282(26) 0.05068(9)
H6_9 H 0.9651 0.3760 0.0344
O2_5 O 0.22797(13) 0.77203(13) 0.72077(14)
H3_5 H 0.1912 0.7266 0.7114
H8_5 H 0.2734 0.8088 0.7114
O10_9 O 0.22797(13) 0.45595(18) 0.72077(14)
H9_9 H 0.2734 0.4647 0.7114
H10_9 H 0.1912 0.4647 0.7114
O10_10 O 0.54405(18) 0.77203(22) 0.72077(14)
H9_10 H 0.5353 0.8088 0.7114
H10_10 H 0.5353 0.7266 0.7114
O2_6 O 0.43869(13) 0.56131(13) 0.61257(14)
H3_6 H 0.3932 0.5246 0.6220
H8_6 H 0.4754 0.6068 0.6220
O10_11 O 0.12261(18) 0.56131(13) 0.61257(14)
H9_11 H 0.1313 0.6068 0.6220
H10_11 H 0.1313 0.5246 0.6220
O10_12 O 0.43869(22) 0.87739(18) 0.61257(14)
H9_12 H 0.4754 0.8687 0.6220
H10_12 H 0.3932 0.8687 0.6220
loop_
_geom_bond_atom_site_label_1
_geom_bond_atom_site_label_2
_geom_bond_site_symmetry_1
_geom_bond_site_symmetry_2
O1 C1 1_555 1_555
O2 H3 1_555 1_555
O3 C1 1_555 1_555
Zn1 O2 1_555 1_555
H8 O2 1_555 1_555
O11 Zn1 1_555 1_555
O13 Zn1 1_555 1_555
O16 Zn1 1_555 1_555
Zn5 O1 1_555 1_555
O3 Zn1 1_555 1_555
C2 C3 1_555 1_555
C3 H1 1_555 1_555
C4 C2 1_555 1_555
H2 C4 1_555 1_555
C5 C4 1_555 1_555
O4 C6 1_555 1_555
C6 C7 1_555 1_555
C7 C8 1_555 1_555
C8 H4 1_555 1_555
C9 C7 1_555 1_555
H5 C9 1_555 1_555
C10 C5 1_555 1_555
O5 C6 1_555 1_555
O6 C11 1_555 1_555
C11 C12 1_555 1_555
C12 C3 1_555 1_555
C13 C5 1_555 1_555
H6 C13 1_555 1_555
O7 C11 1_555 1_555
O8 C14 1_555 1_555
C14 C15 1_555 1_555
C15 C8 1_555 1_555
C16 C10 1_555 1_555
H7 C16 1_555 1_555
O9 C14 1_555 1_555
O10 H9 1_555 1_555
Zn2 O7 1_555 1_555
H10 O10 1_555 1_555
O12 Zn2 1_555 1_555
O14 Zn2 1_555 1_555
O15 Zn2 1_555 1_555
Zn3 O8 1_555 1_555
Zn6 O6 1_555 1_555
Zn7 O9 1_555 1_555
Zn8 O5 1_555 1_555
C9 C10 1_555 1_555
C12 C13 1_555 1_555
C15 C16 1_555 1_555
O10 Zn2 1_555 1_555
O6_2 C11_2 1_555 1_555
O7_2 C11_2 1_555 1_555
O10_2 H9_2 1_555 1_555
Zn2_2 O7_2 1_555 1_555
H10_2 O10_2 1_555 1_555
O12_2 Zn2_2 1_555 1_555
O14_2 Zn2_2 1_555 1_555
O15_2 Zn2_2 1_555 1_555
Zn6_2 O6_2 1_555 1_555
O10_2 Zn2_2 1_555 1_555
C2_2 C3_2 1_555 1_555
C3_2 H1_2 1_555 1_555
C4_2 C2_2 1_555 1_555
H2_2 C4_2 1_555 1_555
C5_2 C4_2 1_555 1_555
O4_2 C6_2 1_555 1_555
C6_2 C7_2 1_555 1_555
C7_2 C8_2 1_555 1_555
C8_2 H4_2 1_555 1_555
C9_2 C7_2 1_555 1_555
H5_2 C9_2 1_555 1_555
C10_2 C5_2 1_555 1_555
O5_2 C6_2 1_555 1_555
C12_2 C3_2 1_555 1_555
C13_2 C5_2 1_555 1_555
H6_2 C13_2 1_555 1_555
O8_2 C14_2 1_555 1_555
C14_2 C15_2 1_555 1_555
C15_2 C8_2 1_555 1_555
C16_2 C10_2 1_555 1_555
H7_2 C16_2 1_555 1_555
O9_2 C14_2 1_555 1_555
Zn8 O9_2 1_555 1_555
Zn8_2 O5_2 1_555 1_555
C9_2 C10_2 1_555 1_555
C12_2 C13_2 1_555 1_555
C15_2 C16_2 1_555 1_555
O1_2 C1_2 1_555 1_555
O15 C1_2 1_555 1_555
Zn6 O1_2 1_555 1_555
O1_3 C1_3 1_555 1_555
C1_3 C2_3 1_555 1_555
C2_3 C3_3 1_555 1_555
C3_3 H1_3 1_555 1_555
C4_3 C2_3 1_555 1_555
H2_3 C4_3 1_555 1_555
C5_3 C4_3 1_555 1_555
O15_2 C1_3 1_555 1_555
O4_3 C6_3 1_555 1_555
C6_3 C7_3 1_555 1_555
C7_3 C8_3 1_555 1_555
C8_3 H4_3 1_555 1_555
C9_3 C7_3 1_555 1_555
H5_3 C9_3 1_555 1_555
C10_3 C5_3 1_555 1_555
O5_3 C6_3 1_555 1_555
C12_3 C3_3 1_555 1_555
C13_3 C5_3 1_555 1_555
H6_3 C13_3 1_555 1_555
O8_3 C14_3 1_555 1_555
C14_3 C15_3 1_555 1_555
C15_3 C8_3 1_555 1_555
C16_3 C10_3 1_555 1_555
H7_3 C16_3 1_555 1_555
O9_3 C14_3 1_555 1_555
Zn3 O4_3 1_555 1_555
Zn6_2 O1_3 1_555 1_555
Zn8_2 O9_3 1_555 1_555
Zn7 O5_3 1_555 1_555
C9_3 C10_3 1_555 1_555
C12_3 C13_3 1_555 1_555
C15_3 C16_3 1_555 1_555
O6_3 C11_3 1_555 1_555
O16 C11_3 1_555 1_555
Zn5 O6_3 1_555 1_555
O1_4 C1_4 1_555 1_555
O2_2 H3_2 1_555 1_555
O3_2 C1_4 1_555 1_555
Zn1_2 O2_2 1_555 1_555
H8_2 O2_2 1_555 1_555
O11_2 Zn1_2 1_555 1_555
O13_2 Zn1_2 1_555 1_555
O16_2 Zn1_2 1_555 1_555
Zn5_2 O1_4 1_555 1_555
O3_2 Zn1_2 1_555 1_555
C2_4 C3_4 1_555 1_555
C3_4 H1_4 1_555 1_555
C4_4 C2_4 1_555 1_555
H2_4 C4_4 1_555 1_555
C5_4 C4_4 1_555 1_555
O4_4 C6_4 1_555 1_555
C6_4 C7_4 1_555 1_555
C7_4 C8_4 1_555 1_555
C8_4 H4_4 1_555 1_555
C9_4 C7_4 1_555 1_555
H5_4 C9_4 1_555 1_555
C10_4 C5_4 1_555 1_555
O5_4 C6_4 1_555 1_555
O6_4 C11_4 1_555 1_555
C11_4 C12_4 1_555 1_555
C12_4 C3_4 1_555 1_555
C13_4 C5_4 1_555 1_555
H6_4 C13_4 1_555 1_555
O7_3 C11_4 1_555 1_555
O8_4 C14_4 1_555 1_555
C14_4 C15_4 1_555 1_555
C15_4 C8_4 1_555 1_555
C16_4 C10_4 1_555 1_555
H7_4 C16_4 1_555 1_555
O9_4 C14_4 1_555 1_555
O10_3 H9_3 1_555 1_555
Zn2_3 O7_3 1_555 1_555
H10_3 O10_3 1_555 1_555
O12_3 Zn2_3 1_555 1_555
O14_3 Zn2_3 1_555 1_555
O15_3 Zn2_3 1_555 1_555
Zn7 O8_4 1_555 1_555
Zn6_3 O6_4 1_555 1_555
Zn3 O9_4 1_555 1_555
Zn4_2 O5_4 1_555 1_555
C9_4 C10_4 1_555 1_555
C12_4 C13_4 1_555 1_555
C15_4 C16_4 1_555 1_555
O10_3 Zn2_3 1_555 1_555
O6_5 C11_5 1_555 1_555
O7_4 C11_5 1_555 1_555
O10_4 H9_4 1_555 1_555
Zn2_4 O7_4 1_555 1_555
H10_4 O10_4 1_555 1_555
O12_4 Zn2_4 1_555 1_555
O14_4 Zn2_4 1_555 1_555
O15_4 Zn2_4 1_555 1_555
Zn6_4 O6_5 1_555 1_555
O10_4 Zn2_4 1_555 1_555
C2_5 C3_5 1_555 1_555
C3_5 H1_5 1_555 1_555
C4_5 C2_5 1_555 1_555
H2_5 C4_5 1_555 1_555
C5_5 C4_5 1_555 1_555
O4_5 C6_5 1_555 1_555
C6_5 C7_5 1_555 1_555
C7_5 C8_5 1_555 1_555
C8_5 H4_5 1_555 1_555
C9_5 C7_5 1_555 1_555
H5_5 C9_5 1_555 1_555
C10_5 C5_5 1_555 1_555
O5_5 C6_5 1_555 1_555
C12_5 C3_5 1_555 1_555
C13_5 C5_5 1_555 1_555
H6_5 C13_5 1_555 1_555
O8_5 C14_5 1_555 1_555
C14_5 C15_5 1_555 1_555
C15_5 C8_5 1_555 1_555
C16_5 C10_5 1_555 1_555
H7_5 C16_5 1_555 1_555
O9_5 C14_5 1_555 1_555
Zn4_2 O9_5 1_555 1_555
Zn4 O5_5 1_555 1_555
C9_5 C10_5 1_555 1_555
C12_5 C13_5 1_555 1_555
C15_5 C16_5 1_555 1_555
O1_5 C1_5 1_555 1_555
O15_3 C1_5 1_555 1_555
Zn6_3 O1_5 1_555 1_555
O1_6 C1_6 1_555 1_555
C1_6 C2_6 1_555 1_555
C2_6 C3_6 1_555 1_555
C3_6 H1_6 1_555 1_555
C4_6 C2_6 1_555 1_555
H2_6 C4_6 1_555 1_555
C5_6 C4_6 1_555 1_555
O15_4 C1_6 1_555 1_555
O4_6 C6_6 1_555 1_555
C6_6 C7_6 1_555 1_555
C7_6 C8_6 1_555 1_555
C8_6 H4_6 1_555 1_555
C9_6 C7_6 1_555 1_555
H5_6 C9_6 1_555 1_555
C10_6 C5_6 1_555 1_555
O5_6 C6_6 1_555 1_555
C12_6 C3_6 1_555 1_555
C13_6 C5_6 1_555 1_555
H6_6 C13_6 1_555 1_555
O8_6 C14_6 1_555 1_555
C14_6 C15_6 1_555 1_555
C15_6 C8_6 1_555 1_555
C16_6 C10_6 1_555 1_555
H7_6 C16_6 1_555 1_555
O9_6 C14_6 1_555 1_555
Zn7 O4_6 1_555 1_555
Zn6_4 O1_6 1_555 1_555
Zn4 O9_6 1_555 1_555
Zn3 O5_6 1_555 1_555
C9_6 C10_6 1_555 1_555
C12_6 C13_6 1_555 1_555
C15_6 C16_6 1_555 1_555
O6_6 C11_6 1_555 1_555
O16_2 C11_6 1_555 1_555
Zn5_2 O6_6 1_555 1_555
O2_3 H3_3 1_555 1_555
Zn3 O2_3 1_555 1_555
H8_3 O2_3 1_555 1_555
O10_5 H9_5 1_555 1_555
H10_5 O10_5 1_555 1_555
O10_5 Zn4 1_555 1_555
O10_6 H9_6 1_555 1_555
H10_6 O10_6 1_555 1_555
O10_6 Zn4_2 1_555 1_555
O11 C1_7 1_555 1_555
C1_7 C2_7 1_555 1_555
C2_7 C3_7 1_555 1_555
C3_7 H1_7 1_555 1_555
C4_7 C2_7 1_555 1_555
H2_7 C4_7 1_555 1_555
C5_7 C4_7 1_555 1_555
O2_4 H3_4 1_555 1_555
O3_3 C1_7 1_555 1_555
Zn5 O2_4 1_555 1_555
O14_2 C11_7 1_555 1_555
C11_7 C12_7 1_555 1_555
C12_7 C3_7 1_555 1_555
C13_7 C5_7 1_555 1_555
H6_7 C13_7 1_555 1_555
O7_5 C11_7 1_555 1_555
H8_4 O2_4 1_555 1_555
O10_7 H9_7 1_555 1_555
Zn6_2 O7_5 1_555 1_555
H10_7 O10_7 1_555 1_555
O15_5 Zn6_2 1_555 1_555
O16_3 Zn5 1_555 1_555
O3_3 Zn5 1_555 1_555
C12_7 C13_7 1_555 1_555
O10_7 Zn6_2 1_555 1_555
O12_3 C6_7 1_555 1_555
C6_7 C7_7 1_555 1_555
C7_7 C8_7 1_555 1_555
C8_7 H4_7 1_555 1_555
C9_7 C7_7 1_555 1_555
H5_7 C9_7 1_555 1_555
O5_7 C6_7 1_555 1_555
O13_2 C14_7 1_555 1_555
C14_7 C15_7 1_555 1_555
C15_7 C8_7 1_555 1_555
C16_7 C10_7 1_555 1_555
H7_7 C16_7 1_555 1_555
O9_7 C14_7 1_555 1_555
Zn5_2 O9_7 1_555 1_555
Zn6_3 O5_7 1_555 1_555
C9_7 C10_7 1_555 1_555
C15_7 C16_7 1_555 1_555
O12_2 C1_8 1_555 1_555
C1_8 C2_8 1_555 1_555
C2_8 C3_8 1_555 1_555
C3_8 H1_8 1_555 1_555
C4_8 C2_8 1_555 1_555
H2_8 C4_8 1_555 1_555
C5_8 C4_8 1_555 1_555
O15_5 C1_8 1_555 1_555
O14 C11_8 1_555 1_555
C11_8 C12_8 1_555 1_555
C12_8 C3_8 1_555 1_555
C13_8 C5_8 1_555 1_555
H6_8 C13_8 1_555 1_555
O7_6 C11_8 1_555 1_555
O10_8 H9_8 1_555 1_555
Zn6 O7_6 1_555 1_555
H10_8 O10_8 1_555 1_555
O15_6 Zn6 1_555 1_555
C12_8 C13_8 1_555 1_555
O10_8 Zn6 1_555 1_555
O12_4 C6_8 1_555 1_555
C6_8 C7_8 1_555 1_555
C7_8 C8_8 1_555 1_555
C8_8 H4_8 1_555 1_555
C9_8 C7_8 1_555 1_555
H5_8 C9_8 1_555 1_555
O5_8 C6_8 1_555 1_555
O14_3 C14_8 1_555 1_555
C14_8 C15_8 1_555 1_555
C15_8 C8_8 1_555 1_555
C16_8 C10_8 1_555 1_555
H7_8 C16_8 1_555 1_555
O9_8 C14_8 1_555 1_555
Zn6_3 O9_8 1_555 1_555
Zn6_4 O5_8 1_555 1_555
C9_8 C10_8 1_555 1_555
C15_8 C16_8 1_555 1_555
O11_2 C6_9 1_555 1_555
C6_9 C7_9 1_555 1_555
C7_9 C8_9 1_555 1_555
C8_9 H4_9 1_555 1_555
C9_9 C7_9 1_555 1_555
H5_9 C9_9 1_555 1_555
O5_9 C6_9 1_555 1_555
O14_4 C14_9 1_555 1_555
C14_9 C15_9 1_555 1_555
C15_9 C8_9 1_555 1_555
C16_9 C10_9 1_555 1_555
H7_9 C16_9 1_555 1_555
O9_9 C14_9 1_555 1_555
Zn6_4 O9_9 1_555 1_555
Zn5_2 O5_9 1_555 1_555
C9_9 C10_9 1_555 1_555
C15_9 C16_9 1_555 1_555
O12 C1_9 1_555 1_555
C1_9 C2_9 1_555 1_555
C2_9 C3_9 1_555 1_555
C3_9 H1_9 1_555 1_555
C4_9 C2_9 1_555 1_555
H2_9 C4_9 1_555 1_555
C5_9 C4_9 1_555 1_555
O15_6 C1_9 1_555 1_555
O13 C11_9 1_555 1_555
C11_9 C12_9 1_555 1_555
C12_9 C3_9 1_555 1_555
C13_9 C5_9 1_555 1_555
H6_9 C13_9 1_555 1_555
O16_3 C11_9 1_555 1_555
C12_9 C13_9 1_555 1_555
O2_5 H3_5 1_555 1_555
Zn5_2 O2_5 1_555 1_555
H8_5 O2_5 1_555 1_555
O10_9 H9_9 1_555 1_555
H10_9 O10_9 1_555 1_555
O10_9 Zn6_4 1_555 1_555
O10_10 H9_10 1_555 1_555
H10_10 O10_10 1_555 1_555
O10_10 Zn6_3 1_555 1_555
O2_6 H3_6 1_555 1_555
Zn7 O2_6 1_555 1_555
H8_6 O2_6 1_555 1_555
O10_11 H9_11 1_555 1_555
H10_11 O10_11 1_555 1_555
O10_11 Zn8_2 1_555 1_555
O10_12 H9_12 1_555 1_555
H10_12 O10_12 1_555 1_555
O10_12 Zn8 1_555 1_555

#END
