
###############################################################################
#
# This file contains modified crystal structure data generated from the
# MOF subset of the Cambridge Structural Database (CSD) v543 
# hosted by the Cambridge Crystallographic Data Centre (CCDC).
#
# This work is licensed under the Creative Commons
# Attribution-NonCommercial-ShareAlike 4.0 International License.
# To view a copy of this license, visit
# http://creativecommons.org/licenses/by-nc-sa/4.0/
# or send a letter to
# Creative Commons, PO Box 1866, Mountain View, CA 94042, USA.
#
# CIF created using the CSD Python API on 29 September 2022
# The structure has been converted into the P1 space group
# The structure has a 3D framework
# The original CSD entry UFANEV is in the tetragonal crystal system
# The original CSD entry UFANEV is in a Sohncke space group
# The framework has been calculated to contain at least 10.0% void space
# The void calculation uses a probe of radius 1.32A, grid spacing 0.4
# The framework is charged, counterions have been retained in the structure
#
###############################################################################

data_UFANEV
_chemical_formula_moiety         '(C176 H112 Ag4 F48 N29 O16 Sb10 6-)n'
_symmetry_cell_setting           triclinic
_symmetry_space_group_name_H-M   'P 1'
_symmetry_Int_Tables_number      1
_space_group_name_Hall           'P 1'
loop_
_symmetry_equiv_pos_site_id
_symmetry_equiv_pos_as_xyz
1 x,y,z
_cell_length_a                   17.0901(9)
_cell_length_b                   17.0901(9)
_cell_length_c                   23.987(2)
_cell_angle_alpha                90
_cell_angle_beta                 90
_cell_angle_gamma                90
_cell_volume                     7005.92
loop_
_atom_site_label
_atom_site_type_symbol
_atom_site_fract_x
_atom_site_fract_y
_atom_site_fract_z
Ag1 Ag 0.11460(5) 0.7500 0.1250
N1 N 0.0365(4) 0.7258(4) 0.0454(3)
N4 N 0.0365(4) 0.7742(4) 0.2046(3)
N6 N 0.1785(5) 0.6414(4) 0.1518(3)
N7 N 0.1785(5) 0.8586(4) 0.0982(3)
N2 N 0.1414(4) 0.8215(5) 0.9018(3)
C8 C 0.0106(5) 0.6674(5) 0.9053(3)
H7 H 0.0237 0.6715 0.8677
C9 C 0.0473(5) 0.7182(5) 0.9395(3)
C10 C 0.0389(4) 0.7210(5) 0.9997(3)
C11 C 0.1005(5) 0.7724(6) 0.9185(3)
Ag2 Ag 0.2500 0.88540(5) 0.8750
H10 H 0.0180 0.6561 0.6475
C15 C 0.0131(7) 0.6522(7) 0.5647(5)
H11 H 0.0529 0.6882 0.5584
Ag1_2 Ag 0.38540(5) 0.7500 0.6250
N1_2 N 0.4635(4) 0.7742(4) 0.5454(3)
N2_2 N 0.3586(4) 0.6785(5) 0.4018(3)
C1 C 0.6002(6) 0.9407(6) 0.2766(3)
H1 H 0.6560 0.9300 0.2775
H2 H 0.5921 0.9969 0.2763
C2 C 0.5815(4) 0.9320(5) 0.3721(3)
C3 C 0.6334(5) 0.9917(5) 0.3824(4)
C5 C 0.6173(8) 0.9752(8) 0.4796(5)
H5 H 0.6307 0.9895 0.5157
C6 C 0.5646(7) 0.9182(7) 0.4717(3)
H6 H 0.5402 0.8958 0.5024
C7 C 0.5456(5) 0.8918(6) 0.4185(3)
C8_2 C 0.4894(5) 0.8326(5) 0.4053(3)
H7_2 H 0.4763 0.8285 0.3677
C9_2 C 0.4527(5) 0.7818(5) 0.4395(3)
C10_2 C 0.4611(4) 0.7790(5) 0.4997(3)
C11_2 C 0.3995(5) 0.7276(6) 0.4185(3)
O1 O 0.5608(4) 0.9048(4) 0.3228(2)
Ag2_2 Ag 0.2500 0.61460(5) 0.3750
N4_2 N 0.4635(4) 0.7258(4) 0.7046(3)
N6_2 N 0.3215(5) 0.8586(4) 0.6518(3)
N7_2 N 0.3215(5) 0.6414(4) 0.5982(3)
C12 C 0.5593(6) 0.8998(6) 0.2234(3)
H8 H 0.5700 0.8440 0.2225
H9 H 0.5031 0.9079 0.2237
C13 C 0.5680(5) 0.9185(4) 0.1279(3)
C14 C 0.5083(5) 0.8666(5) 0.1176(4)
H10_2 H 0.4820 0.8439 0.1475
C15_2 C 0.4869(7) 0.8478(7) 0.0647(5)
H11_2 H 0.4471 0.8118 0.0584
C16 C 0.5248(8) 0.8827(8) 0.0204(5)
C17 C 0.5818(7) 0.9354(7) 0.0283(3)
C18 C 0.6082(6) 0.9544(5) 0.0815(3)
O2 O 0.5952(4) 0.9392(4) 0.1772(2)
N1_3 N 0.2742(4) 0.5365(4) 0.2954(3)
C1_2 C 0.4407(6) 0.3998(6) 0.0266(3)
H1_2 H 0.4300 0.3440 0.0275
H2_2 H 0.4969 0.4079 0.0263
C2_2 C 0.4320(5) 0.4185(4) 0.1221(3)
C3_2 C 0.4917(5) 0.3666(5) 0.1324(4)
H3 H 0.5180 0.3439 0.1025
C4 C 0.5131(7) 0.3478(7) 0.1853(5)
H4 H 0.5529 0.3118 0.1916
C5_2 C 0.4752(8) 0.3827(8) 0.2296(5)
H5_2 H 0.4895 0.3693 0.2657
C6_2 C 0.4182(7) 0.4354(7) 0.2217(3)
H6_2 H 0.3958 0.4598 0.2524
C7_2 C 0.3918(6) 0.4544(5) 0.1685(3)
C8_3 C 0.3326(5) 0.5106(5) 0.1553(3)
H7_3 H 0.3285 0.5237 0.1177
C9_3 C 0.2818(5) 0.5473(5) 0.1895(3)
C10_3 C 0.2790(5) 0.5389(4) 0.2497(3)
C11_3 C 0.2276(6) 0.6005(5) 0.1685(3)
O1_2 O 0.4048(4) 0.4392(4) 0.0728(2)
N4_3 N 0.2258(4) 0.5365(4) 0.4546(3)
N7_3 N 0.1414(4) 0.6785(5) 0.3482(3)
N1_4 N 0.2258(4) 0.9635(4) 0.7954(3)
C8_4 C 0.1674(5) 0.9894(5) 0.6553(3)
H7_4 H 0.1715 0.9763 0.6177
C9_4 C 0.2182(5) 0.9527(5) 0.6895(3)
C10_4 C 0.2210(5) 0.9611(4) 0.7497(3)
C11_4 C 0.2724(6) 0.8995(5) 0.6685(3)
N4_4 N 0.2742(4) 0.9635(4) 0.9546(3)
N7_4 N 0.3586(4) 0.8215(5) 0.8482(3)
H10_3 H 0.1561 0.9820 0.3975
C15_3 C 0.1522(7) 0.9869(7) 0.3147(5)
H11_3 H 0.1882 0.9471 0.3084
C1_3 C 0.6002(6) 0.5593(6) 0.9734(3)
H1_3 H 0.6560 0.5700 0.9725
H2_3 H 0.5921 0.5031 0.9737
C2_3 C 0.5815(4) 0.5680(5) 0.8779(3)
C3_3 C 0.6334(5) 0.5083(5) 0.8676(4)
H3_2 H 0.6561 0.4820 0.8975
C4_2 C 0.6522(7) 0.4869(7) 0.8147(5)
H4_2 H 0.6882 0.4471 0.8084
C5_3 C 0.6173(8) 0.5248(8) 0.7704(5)
H5_3 H 0.6307 0.5105 0.7343
C6_3 C 0.5646(7) 0.5818(7) 0.7783(3)
H6_3 H 0.5402 0.6042 0.7476
C7_3 C 0.5456(5) 0.6082(6) 0.8315(3)
C8_5 C 0.4894(5) 0.6674(5) 0.8447(3)
H7_5 H 0.4763 0.6715 0.8823
C9_5 C 0.4527(5) 0.7182(5) 0.8105(3)
C10_5 C 0.4611(4) 0.7210(5) 0.7503(3)
C11_5 C 0.3995(5) 0.7724(6) 0.8315(3)
O1_3 O 0.5608(4) 0.5952(4) 0.9272(2)
C8_6 C 0.0106(5) 0.8326(5) 0.3447(3)
H7_6 H 0.0237 0.8285 0.3823
C9_6 C 0.0473(5) 0.7818(5) 0.3105(3)
C10_6 C 0.0389(4) 0.7790(5) 0.2503(3)
C11_6 C 0.1005(5) 0.7276(6) 0.3315(3)
H10_4 H 0.0180 0.8439 0.6025
C15_4 C 0.0131(7) 0.8478(7) 0.6853(5)
H11_4 H 0.0529 0.8118 0.6916
C1_4 C 0.0593(6) 0.3998(6) 0.7234(3)
H1_4 H 0.0700 0.3440 0.7225
H2_4 H 0.0031 0.4079 0.7237
C2_4 C 0.0680(5) 0.4185(4) 0.6279(3)
C3_4 C 0.0083(5) 0.3666(5) 0.6176(4)
C5_4 C 0.0248(8) 0.3827(8) 0.5204(5)
H5_4 H 0.0105 0.3693 0.4843
C6_4 C 0.0818(7) 0.4354(7) 0.5283(3)
H6_4 H 0.1042 0.4598 0.4976
C7_4 C 0.1082(6) 0.4544(5) 0.5815(3)
C8_7 C 0.1674(5) 0.5106(5) 0.5947(3)
H7_7 H 0.1715 0.5237 0.6323
C9_7 C 0.2182(5) 0.5473(5) 0.5605(3)
C10_7 C 0.2210(5) 0.5389(4) 0.5003(3)
C11_7 C 0.2724(6) 0.6005(5) 0.5815(3)
O1_4 O 0.0952(4) 0.4392(4) 0.6772(2)
C12_2 C 0.1002(6) 0.4407(6) 0.7766(3)
H8_2 H 0.1560 0.4300 0.7775
H9_2 H 0.0921 0.4969 0.7763
C13_2 C 0.0815(4) 0.4320(5) 0.8721(3)
C14_2 C 0.1334(5) 0.4917(5) 0.8824(4)
H10_5 H 0.1561 0.5180 0.8525
C15_5 C 0.1522(7) 0.5131(7) 0.9353(5)
H11_5 H 0.1882 0.5529 0.9416
C16_2 C 0.1173(8) 0.4752(8) 0.9796(5)
C17_2 C 0.0646(7) 0.4182(7) 0.9717(3)
C18_2 C 0.0456(5) 0.3918(6) 0.9185(3)
O2_2 O 0.0608(4) 0.4048(4) 0.8228(2)
C8_8 C 0.3326(5) 0.9894(5) 0.0947(3)
H7_8 H 0.3285 0.9763 0.1323
C9_8 C 0.2818(5) 0.9527(5) 0.0605(3)
C10_8 C 0.2790(5) 0.9611(4) 0.0003(3)
C11_8 C 0.2276(6) 0.8995(5) 0.0815(3)
H10_6 H 0.3439 0.9820 0.3525
C15_6 C 0.3478(7) 0.9869(7) 0.4353(5)
H11_6 H 0.3118 0.9471 0.4416
H5_5 H 0.8693 0.5105 0.0157
H6_5 H 0.9598 0.6042 0.0024
C1_5 C 0.8998(6) 0.5593(6) 0.7766(3)
H1_5 H 0.8440 0.5700 0.7775
H2_5 H 0.9079 0.5031 0.7763
C2_5 C 0.9185(4) 0.5680(5) 0.8721(3)
C3_5 C 0.8666(5) 0.5083(5) 0.8824(4)
H3_3 H 0.8439 0.4820 0.8525
C4_3 C 0.8478(7) 0.4869(7) 0.9353(5)
H4_3 H 0.8118 0.4471 0.9416
C5_5 C 0.8827(8) 0.5248(8) 0.9796(5)
C6_5 C 0.9354(7) 0.5818(7) 0.9717(3)
C7_5 C 0.9544(5) 0.6082(6) 0.9185(3)
O1_5 O 0.9392(4) 0.5952(4) 0.8228(2)
Ag3 Ag 0.7500 0.38540(5) 0.3750
Ag4 Ag 0.61460(5) 0.2500 0.6250
N3 N 0.7742(4) 0.4635(4) 0.4546(3)
N5 N 0.6785(5) 0.3586(4) 0.5982(3)
C12_3 C 0.9407(6) 0.6002(6) 0.7234(3)
H8_3 H 0.9300 0.6560 0.7225
H9_3 H 0.9969 0.5921 0.7237
C13_3 C 0.9320(5) 0.5815(4) 0.6279(3)
C14_3 C 0.9917(5) 0.6334(5) 0.6176(4)
C16_3 C 0.9752(8) 0.6173(8) 0.5204(5)
H12 H 0.9895 0.6307 0.4843
C17_3 C 0.9182(7) 0.5646(7) 0.5283(3)
H13 H 0.8958 0.5402 0.4976
C18_3 C 0.8918(6) 0.5456(5) 0.5815(3)
C19 C 0.8326(5) 0.4894(5) 0.5947(3)
H14 H 0.8285 0.4763 0.6323
C20 C 0.7818(5) 0.4527(5) 0.5605(3)
C21 C 0.7790(5) 0.4611(4) 0.5003(3)
C22 C 0.7276(6) 0.3995(5) 0.5815(3)
O2_3 O 0.9048(4) 0.5608(4) 0.6772(2)
H3_4 H 0.6561 0.0180 0.3525
C4_4 C 0.6522(7) 0.0131(7) 0.4353(5)
H4_4 H 0.6882 0.0529 0.4416
Ag4_2 Ag 0.88540(5) 0.2500 0.1250
N5_2 N 0.8215(5) 0.1414(4) 0.0982(3)
C19_2 C 0.6674(5) 0.0106(5) 0.0947(3)
H14_2 H 0.6715 0.0237 0.1323
C20_2 C 0.7182(5) 0.0473(5) 0.0605(3)
C21_2 C 0.7210(5) 0.0389(4) 0.0003(3)
C22_2 C 0.7724(6) 0.1005(5) 0.0815(3)
Ag3_2 Ag 0.7500 0.11460(5) 0.8750
N3_2 N 0.7258(4) 0.0365(4) 0.9546(3)
N3_3 N 0.5365(4) 0.2742(4) 0.7046(3)
N5_3 N 0.6414(4) 0.1785(5) 0.8482(3)
C12_4 C 0.3998(6) 0.4407(6) 0.9734(3)
H8_4 H 0.3440 0.4300 0.9725
H9_4 H 0.4079 0.4969 0.9737
C13_4 C 0.4185(4) 0.4320(5) 0.8779(3)
C14_4 C 0.3666(5) 0.4917(5) 0.8676(4)
H10_7 H 0.3439 0.5180 0.8975
C15_7 C 0.3478(7) 0.5131(7) 0.8147(5)
H11_7 H 0.3118 0.5529 0.8084
C16_4 C 0.3827(8) 0.4752(8) 0.7704(5)
H12_2 H 0.3693 0.4895 0.7343
C17_4 C 0.4354(7) 0.4182(7) 0.7783(3)
H13_2 H 0.4598 0.3958 0.7476
C18_4 C 0.4544(5) 0.3918(6) 0.8315(3)
C19_3 C 0.5106(5) 0.3326(5) 0.8447(3)
H14_3 H 0.5237 0.3285 0.8823
C20_3 C 0.5473(5) 0.2818(5) 0.8105(3)
C21_3 C 0.5389(4) 0.2790(5) 0.7503(3)
C22_3 C 0.6005(5) 0.2276(6) 0.8315(3)
O2_4 O 0.4392(4) 0.4048(4) 0.9272(2)
H3_5 H 0.9820 0.1561 0.6025
C4_5 C 0.9869(7) 0.1522(7) 0.6853(5)
H4_5 H 0.9471 0.1882 0.6916
N3_4 N 0.9635(4) 0.2258(4) 0.2046(3)
N5_4 N 0.8586(4) 0.3215(5) 0.3482(3)
C19_4 C 0.9894(5) 0.1674(5) 0.3447(3)
H14_4 H 0.9763 0.1715 0.3823
C20_4 C 0.9527(5) 0.2182(5) 0.3105(3)
C21_4 C 0.9611(4) 0.2210(5) 0.2503(3)
C22_4 C 0.8995(5) 0.2724(6) 0.3315(3)
N3_5 N 0.7258(4) 0.4635(4) 0.2954(3)
N5_5 N 0.8215(5) 0.3586(4) 0.1518(3)
C12_5 C 0.5593(6) 0.6002(6) 0.0266(3)
H8_5 H 0.5700 0.6560 0.0275
H9_5 H 0.5031 0.5921 0.0263
C13_5 C 0.5680(5) 0.5815(4) 0.1221(3)
C14_5 C 0.5083(5) 0.6334(5) 0.1324(4)
H10_8 H 0.4820 0.6561 0.1025
C15_8 C 0.4869(7) 0.6522(7) 0.1853(5)
H11_8 H 0.4471 0.6882 0.1916
C16_5 C 0.5248(8) 0.6173(8) 0.2296(5)
H12_3 H 0.5105 0.6307 0.2657
C17_5 C 0.5818(7) 0.5646(7) 0.2217(3)
H13_3 H 0.6042 0.5402 0.2524
C18_5 C 0.6082(6) 0.5456(5) 0.1685(3)
C19_5 C 0.6674(5) 0.4894(5) 0.1553(3)
H14_5 H 0.6715 0.4763 0.1177
C20_5 C 0.7182(5) 0.4527(5) 0.1895(3)
C21_5 C 0.7210(5) 0.4611(4) 0.2497(3)
C22_5 C 0.7724(6) 0.3995(5) 0.1685(3)
O2_5 O 0.5952(4) 0.5608(4) 0.0728(2)
H3_6 H 0.8439 0.0180 0.3975
C4_6 C 0.8478(7) 0.0131(7) 0.3147(5)
H4_6 H 0.8118 0.0529 0.3084
N3_6 N 0.7742(4) 0.0365(4) 0.7954(3)
N5_6 N 0.6785(5) 0.1414(4) 0.6518(3)
C19_6 C 0.8326(5) 0.0106(5) 0.6553(3)
H14_6 H 0.8285 0.0237 0.6177
C20_6 C 0.7818(5) 0.0473(5) 0.6895(3)
C21_6 C 0.7790(5) 0.0389(4) 0.7497(3)
C22_6 C 0.7276(6) 0.1005(5) 0.6685(3)
N3_7 N 0.9635(4) 0.2742(4) 0.0454(3)
H3_7 H 0.9820 0.3439 0.6475
C4_7 C 0.9869(7) 0.3478(7) 0.5647(5)
H4_7 H 0.9471 0.3118 0.5584
N5_7 N 0.8586(4) 0.1785(5) 0.9018(3)
C19_7 C 0.9894(5) 0.3326(5) 0.9053(3)
H14_7 H 0.9763 0.3285 0.8677
C20_7 C 0.9527(5) 0.2818(5) 0.9395(3)
C21_7 C 0.9611(4) 0.2790(5) 0.9997(3)
C22_7 C 0.8995(5) 0.2276(6) 0.9185(3)
C1_6 C 0.4407(6) 0.1002(6) 0.2234(3)
H1_6 H 0.4300 0.1560 0.2225
H2_6 H 0.4969 0.0921 0.2237
C2_6 C 0.4320(5) 0.0815(4) 0.1279(3)
C3_6 C 0.4917(5) 0.1334(5) 0.1176(4)
H3_8 H 0.5180 0.1561 0.1475
C4_8 C 0.5131(7) 0.1522(7) 0.0647(5)
H4_8 H 0.5529 0.1882 0.0584
C5_6 C 0.4752(8) 0.1173(8) 0.0204(5)
C6_6 C 0.4182(7) 0.0646(7) 0.0283(3)
C7_6 C 0.3918(6) 0.0456(5) 0.0815(3)
O1_6 O 0.4048(4) 0.0608(4) 0.1772(2)
N3_8 N 0.5365(4) 0.2258(4) 0.5454(3)
N5_8 N 0.6414(4) 0.3215(5) 0.4018(3)
C12_6 C 0.3998(6) 0.0593(6) 0.2766(3)
H8_6 H 0.3440 0.0700 0.2775
H9_6 H 0.4079 0.0031 0.2763
C13_6 C 0.4185(4) 0.0680(5) 0.3721(3)
C14_6 C 0.3666(5) 0.0083(5) 0.3824(4)
C16_6 C 0.3827(8) 0.0248(8) 0.4796(5)
H12_4 H 0.3693 0.0105 0.5157
C17_6 C 0.4354(7) 0.0818(7) 0.4717(3)
H13_4 H 0.4598 0.1042 0.5024
C18_6 C 0.4544(5) 0.1082(6) 0.4185(3)
C19_8 C 0.5106(5) 0.1674(5) 0.4053(3)
H14_8 H 0.5237 0.1715 0.3677
C20_8 C 0.5473(5) 0.2182(5) 0.4395(3)
C21_8 C 0.5389(4) 0.2210(5) 0.4997(3)
C22_8 C 0.6005(5) 0.2724(6) 0.4185(3)
O2_6 O 0.4392(4) 0.0952(4) 0.3228(2)
H12_5 H 0.5105 0.8693 0.9843
H13_5 H 0.6042 0.9598 0.9976
C1_7 C 0.0593(6) 0.1002(6) 0.5266(3)
H1_7 H 0.0700 0.1560 0.5275
H2_7 H 0.0031 0.0921 0.5263
C2_7 C 0.0680(5) 0.0815(4) 0.6221(3)
C3_7 C 0.0083(5) 0.1334(5) 0.6324(4)
C5_7 C 0.0248(8) 0.1173(8) 0.7296(5)
H5_6 H 0.0105 0.1307 0.7657
C6_7 C 0.0818(7) 0.0646(7) 0.7217(3)
H6_6 H 0.1042 0.0402 0.7524
C7_7 C 0.1082(6) 0.0456(5) 0.6685(3)
O1_7 O 0.0952(4) 0.0608(4) 0.5728(2)
C12_7 C 0.1002(6) 0.0593(6) 0.4734(3)
H8_7 H 0.1560 0.0700 0.4725
H9_7 H 0.0921 0.0031 0.4737
C13_7 C 0.0815(4) 0.0680(5) 0.3779(3)
C14_7 C 0.1334(5) 0.0083(5) 0.3676(4)
C16_7 C 0.1173(8) 0.0248(8) 0.2704(5)
H12_6 H 0.1307 0.0105 0.2343
C17_7 C 0.0646(7) 0.0818(7) 0.2783(3)
H13_6 H 0.0402 0.1042 0.2476
C18_7 C 0.0456(5) 0.1082(6) 0.3315(3)
O2_7 O 0.0608(4) 0.0952(4) 0.4272(2)
C1_8 C 0.8998(6) 0.9407(6) 0.4734(3)
H1_8 H 0.8440 0.9300 0.4725
H2_8 H 0.9079 0.9969 0.4737
C2_8 C 0.9185(4) 0.9320(5) 0.3779(3)
C3_8 C 0.8666(5) 0.9917(5) 0.3676(4)
C5_8 C 0.8827(8) 0.9752(8) 0.2704(5)
H5_7 H 0.8693 0.9895 0.2343
C6_8 C 0.9354(7) 0.9182(7) 0.2783(3)
H6_7 H 0.9598 0.8958 0.2476
C7_8 C 0.9544(5) 0.8918(6) 0.3315(3)
O1_8 O 0.9392(4) 0.9048(4) 0.4272(2)
C12_8 C 0.9407(6) 0.8998(6) 0.5266(3)
H8_8 H 0.9300 0.8440 0.5275
H9_8 H 0.9969 0.9079 0.5263
C13_8 C 0.9320(5) 0.9185(4) 0.6221(3)
C14_8 C 0.9917(5) 0.8666(5) 0.6324(4)
C16_8 C 0.9752(8) 0.8827(8) 0.7296(5)
H12_7 H 0.9895 0.8693 0.7657
C17_8 C 0.9182(7) 0.9354(7) 0.7217(3)
H13_7 H 0.8958 0.9598 0.7524
C18_8 C 0.8918(6) 0.9544(5) 0.6685(3)
O2_8 O 0.9048(4) 0.9392(4) 0.5728(2)
H12_8 H 0.1307 0.4895 0.0157
H13_8 H 0.0402 0.3958 0.0024
H5_8 H 0.4895 0.1307 0.9843
H6_8 H 0.3958 0.0402 0.9976
F1 F 0.6903(5) 0.4163(3) 0.0193(2)
F2 F 0.6618(4) 0.2887(4) 0.0719(2)
F3 F 0.7947(3) 0.3083(4) 0.0178(2)
Sb1 Sb 0.69019(3) 0.30981(3) 0.0000
Sb1_2 Sb 0.69019(3) 0.30981(3) 1.0000
F4 F 0.5837(3) 0.3097(5) 0.9807(2)
F5 F 0.7113(4) 0.3382(4) 0.9281(2)
F6 F 0.6917(4) 0.2053(3) 0.9822(2)
F1_2 F 0.8097(5) 0.0837(3) 0.5193(2)
F2_2 F 0.8382(4) 0.2113(4) 0.5719(2)
F3_2 F 0.7053(3) 0.1917(4) 0.5178(2)
Sb1_3 Sb 0.80981(3) 0.19019(3) 0.5000
F4_2 F 0.9163(3) 0.1903(5) 0.4807(2)
F5_2 F 0.7887(4) 0.1618(4) 0.4281(2)
F6_2 F 0.8083(4) 0.2947(3) 0.4822(2)
F1_3 F 0.5837(3) 0.1903(5) 0.2693(2)
F2_3 F 0.7113(4) 0.1618(4) 0.3219(2)
F3_3 F 0.6917(4) 0.2947(3) 0.2678(2)
Sb1_4 Sb 0.69019(3) 0.19019(3) 0.2500
F4_3 F 0.6903(5) 0.0837(3) 0.2307(2)
F5_3 F 0.6618(4) 0.2113(4) 0.1781(2)
F6_3 F 0.7947(3) 0.1917(4) 0.2322(2)
F1_4 F 0.9163(3) 0.3097(5) 0.7693(2)
F2_4 F 0.7887(4) 0.3382(4) 0.8219(2)
F3_4 F 0.8083(4) 0.2053(3) 0.7678(2)
Sb1_5 Sb 0.80981(3) 0.30981(3) 0.7500
F4_4 F 0.8097(5) 0.4163(3) 0.7307(2)
F5_4 F 0.8382(4) 0.2887(4) 0.6781(2)
F6_4 F 0.7053(3) 0.3083(4) 0.7322(2)
F1_5 F 0.1903(5) 0.9163(3) 0.5193(2)
F2_5 F 0.1618(4) 0.7887(4) 0.5719(2)
F3_5 F 0.2947(3) 0.8083(4) 0.5178(2)
Sb1_6 Sb 0.19019(3) 0.80981(3) 0.5000
F4_5 F 0.0837(3) 0.8097(5) 0.4807(2)
F5_5 F 0.2113(4) 0.8382(4) 0.4281(2)
F6_5 F 0.1917(4) 0.7053(3) 0.4822(2)
F1_6 F 0.3097(5) 0.5837(3) 0.0193(2)
F2_6 F 0.3382(4) 0.7113(4) 0.0719(2)
F3_6 F 0.2053(3) 0.6917(4) 0.0178(2)
Sb1_7 Sb 0.30981(3) 0.69019(3) 0.0000
Sb1_8 Sb 0.30981(3) 0.69019(3) 1.0000
F4_6 F 0.4163(3) 0.6903(5) 0.9807(2)
F5_6 F 0.2887(4) 0.6618(4) 0.9281(2)
F6_6 F 0.3083(4) 0.7947(3) 0.9822(2)
F1_7 F 0.0837(3) 0.6903(5) 0.7693(2)
F2_7 F 0.2113(4) 0.6618(4) 0.8219(2)
F3_7 F 0.1917(4) 0.7947(3) 0.7678(2)
Sb1_9 Sb 0.19019(3) 0.69019(3) 0.7500
F4_7 F 0.1903(5) 0.5837(3) 0.7307(2)
F5_7 F 0.1618(4) 0.7113(4) 0.6781(2)
F6_7 F 0.2947(3) 0.6917(4) 0.7322(2)
F1_8 F 0.4163(3) 0.8097(5) 0.2693(2)
F2_8 F 0.2887(4) 0.8382(4) 0.3219(2)
F3_8 F 0.3083(4) 0.7053(3) 0.2678(2)
Sb1_10 Sb 0.30981(3) 0.80981(3) 0.2500
F4_8 F 0.3097(5) 0.9163(3) 0.2307(2)
F5_8 F 0.3382(4) 0.7887(4) 0.1781(2)
F6_8 F 0.2053(3) 0.8083(4) 0.2322(2)
loop_
_geom_bond_atom_site_label_1
_geom_bond_atom_site_label_2
_geom_bond_site_symmetry_1
_geom_bond_site_symmetry_2
Ag1 N1 1_555 1_555
N4 Ag1 1_555 1_555
N6 Ag1 1_555 1_555
N7 Ag1 1_555 1_555
N2 C11 1_555 1_555
H7 C8 1_555 1_555
C9 C8 1_555 1_555
C10 C9 1_555 1_555
C11 C9 1_555 1_555
Ag2 N2 1_555 1_555
H11 C15 1_555 1_555
Ag1_2 N1_2 1_555 1_555
N1_2 C10_2 1_555 1_555
N2_2 C11_2 1_555 1_555
C1 H1 1_555 1_555
H2 C1 1_555 1_555
C2 C3 1_555 1_555
H5 C5 1_555 1_555
C6 C5 1_555 1_555
H6 C6 1_555 1_555
C7 C2 1_555 1_555
C8_2 C7 1_555 1_555
H7_2 C8_2 1_555 1_555
C9_2 C8_2 1_555 1_555
C10_2 C9_2 1_555 1_555
C11_2 C9_2 1_555 1_555
O1 C1 1_555 1_555
Ag2_2 N2_2 1_555 1_555
N4_2 Ag1_2 1_555 1_555
N6_2 Ag1_2 1_555 1_555
N7_2 Ag1_2 1_555 1_555
C12 C1 1_555 1_555
H8 C12 1_555 1_555
H9 C12 1_555 1_555
C13 C14 1_555 1_555
C14 H10_2 1_555 1_555
C15_2 C14 1_555 1_555
H11_2 C15_2 1_555 1_555
C16 C15_2 1_555 1_555
C17 C16 1_555 1_555
C18 C13 1_555 1_555
O2 C12 1_555 1_555
C2 O1 1_555 1_555
C6 C7 1_555 1_555
C13 O2 1_555 1_555
C17 C18 1_555 1_555
Ag2_2 N1_3 1_555 1_555
N1_3 C10_3 1_555 1_555
N6 C11_3 1_555 1_555
C1_2 H1_2 1_555 1_555
H2_2 C1_2 1_555 1_555
C2_2 C3_2 1_555 1_555
C3_2 H3 1_555 1_555
C4 C3_2 1_555 1_555
H4 C4 1_555 1_555
C5_2 C4 1_555 1_555
H5_2 C5_2 1_555 1_555
C6_2 C5_2 1_555 1_555
H6_2 C6_2 1_555 1_555
C7_2 C2_2 1_555 1_555
C8_3 C7_2 1_555 1_555
H7_3 C8_3 1_555 1_555
C9_3 C8_3 1_555 1_555
C10_3 C9_3 1_555 1_555
C11_3 C9_3 1_555 1_555
O1_2 C1_2 1_555 1_555
N4_3 Ag2_2 1_555 1_555
N7_3 Ag2_2 1_555 1_555
C2_2 O1_2 1_555 1_555
C6_2 C7_2 1_555 1_555
Ag2 N1_4 1_555 1_555
N1_4 C10_4 1_555 1_555
N6_2 C11_4 1_555 1_555
H7_4 C8_4 1_555 1_555
C9_4 C8_4 1_555 1_555
C10_4 C9_4 1_555 1_555
C11_4 C9_4 1_555 1_555
N4_4 Ag2 1_555 1_555
N7_4 Ag2 1_555 1_555
H11_3 C15_3 1_555 1_555
N4_2 C10_5 1_555 1_555
N7_4 C11_5 1_555 1_555
C1_3 H1_3 1_555 1_555
H2_3 C1_3 1_555 1_555
C2_3 C3_3 1_555 1_555
C3_3 H3_2 1_555 1_555
C4_2 C3_3 1_555 1_555
H4_2 C4_2 1_555 1_555
C5_3 C4_2 1_555 1_555
H5_3 C5_3 1_555 1_555
C6_3 C5_3 1_555 1_555
H6_3 C6_3 1_555 1_555
C7_3 C2_3 1_555 1_555
C8_5 C7_3 1_555 1_555
H7_5 C8_5 1_555 1_555
C9_5 C8_5 1_555 1_555
C10_5 C9_5 1_555 1_555
C11_5 C9_5 1_555 1_555
O1_3 C1_3 1_555 1_555
C2_3 O1_3 1_555 1_555
C6_3 C7_3 1_555 1_555
N4 C10_6 1_555 1_555
N7_3 C11_6 1_555 1_555
H7_6 C8_6 1_555 1_555
C9_6 C8_6 1_555 1_555
C10_6 C9_6 1_555 1_555
C11_6 C9_6 1_555 1_555
H11_4 C15_4 1_555 1_555
N4_3 C10_7 1_555 1_555
N7_2 C11_7 1_555 1_555
C1_4 H1_4 1_555 1_555
H2_4 C1_4 1_555 1_555
C2_4 C3_4 1_555 1_555
H5_4 C5_4 1_555 1_555
C6_4 C5_4 1_555 1_555
H6_4 C6_4 1_555 1_555
C7_4 C2_4 1_555 1_555
C8_7 C7_4 1_555 1_555
H7_7 C8_7 1_555 1_555
C9_7 C8_7 1_555 1_555
C10_7 C9_7 1_555 1_555
C11_7 C9_7 1_555 1_555
O1_4 C1_4 1_555 1_555
C12_2 C1_4 1_555 1_555
H8_2 C12_2 1_555 1_555
H9_2 C12_2 1_555 1_555
C13_2 C14_2 1_555 1_555
C14_2 H10_5 1_555 1_555
C15_5 C14_2 1_555 1_555
H11_5 C15_5 1_555 1_555
C16_2 C15_5 1_555 1_555
C17_2 C16_2 1_555 1_555
C18_2 C13_2 1_555 1_555
O2_2 C12_2 1_555 1_555
C2_4 O1_4 1_555 1_555
C6_4 C7_4 1_555 1_555
C13_2 O2_2 1_555 1_555
C17_2 C18_2 1_555 1_555
N7 C11_8 1_555 1_555
H7_8 C8_8 1_555 1_555
C9_8 C8_8 1_555 1_555
C10_8 C9_8 1_555 1_555
C11_8 C9_8 1_555 1_555
H11_6 C15_6 1_555 1_555
C1_5 H1_5 1_555 1_555
H2_5 C1_5 1_555 1_555
C2_5 C3_5 1_555 1_555
C3_5 H3_3 1_555 1_555
C4_3 C3_5 1_555 1_555
H4_3 C4_3 1_555 1_555
C5_5 C4_3 1_555 1_555
C6_5 C5_5 1_555 1_555
C7_5 C2_5 1_555 1_555
O1_5 C1_5 1_555 1_555
Ag3 N3 1_555 1_555
Ag4 N5 1_555 1_555
N3 C21 1_555 1_555
N5 C22 1_555 1_555
C12_3 C1_5 1_555 1_555
H8_3 C12_3 1_555 1_555
H9_3 C12_3 1_555 1_555
C13_3 C14_3 1_555 1_555
H12 C16_3 1_555 1_555
C17_3 C16_3 1_555 1_555
H13 C17_3 1_555 1_555
C18_3 C13_3 1_555 1_555
C19 C18_3 1_555 1_555
H14 C19 1_555 1_555
C20 C19 1_555 1_555
C21 C20 1_555 1_555
C22 C20 1_555 1_555
O2_3 C12_3 1_555 1_555
C2_5 O1_5 1_555 1_555
C6_5 C7_5 1_555 1_555
C13_3 O2_3 1_555 1_555
C17_3 C18_3 1_555 1_555
H4_4 C4_4 1_555 1_555
Ag4_2 N5_2 1_555 1_555
N5_2 C22_2 1_555 1_555
H14_2 C19_2 1_555 1_555
C20_2 C19_2 1_555 1_555
C21_2 C20_2 1_555 1_555
C22_2 C20_2 1_555 1_555
Ag3_2 N3_2 1_555 1_555
Ag4 N3_3 1_555 1_555
Ag3_2 N5_3 1_555 1_555
N3_3 C21_3 1_555 1_555
N5_3 C22_3 1_555 1_555
H8_4 C12_4 1_555 1_555
H9_4 C12_4 1_555 1_555
C13_4 C14_4 1_555 1_555
C14_4 H10_7 1_555 1_555
C15_7 C14_4 1_555 1_555
H11_7 C15_7 1_555 1_555
C16_4 C15_7 1_555 1_555
H12_2 C16_4 1_555 1_555
C17_4 C16_4 1_555 1_555
H13_2 C17_4 1_555 1_555
C18_4 C13_4 1_555 1_555
C19_3 C18_4 1_555 1_555
H14_3 C19_3 1_555 1_555
C20_3 C19_3 1_555 1_555
C21_3 C20_3 1_555 1_555
C22_3 C20_3 1_555 1_555
O2_4 C12_4 1_555 1_555
C13_4 O2_4 1_555 1_555
C17_4 C18_4 1_555 1_555
H4_5 C4_5 1_555 1_555
Ag4_2 N3_4 1_555 1_555
Ag3 N5_4 1_555 1_555
N3_4 C21_4 1_555 1_555
N5_4 C22_4 1_555 1_555
H14_4 C19_4 1_555 1_555
C20_4 C19_4 1_555 1_555
C21_4 C20_4 1_555 1_555
C22_4 C20_4 1_555 1_555
Ag3 N3_5 1_555 1_555
Ag4_2 N5_5 1_555 1_555
N3_5 C21_5 1_555 1_555
N5_5 C22_5 1_555 1_555
H8_5 C12_5 1_555 1_555
H9_5 C12_5 1_555 1_555
C13_5 C14_5 1_555 1_555
C14_5 H10_8 1_555 1_555
C15_8 C14_5 1_555 1_555
H11_8 C15_8 1_555 1_555
C16_5 C15_8 1_555 1_555
H12_3 C16_5 1_555 1_555
C17_5 C16_5 1_555 1_555
H13_3 C17_5 1_555 1_555
C18_5 C13_5 1_555 1_555
C19_5 C18_5 1_555 1_555
H14_5 C19_5 1_555 1_555
C20_5 C19_5 1_555 1_555
C21_5 C20_5 1_555 1_555
C22_5 C20_5 1_555 1_555
O2_5 C12_5 1_555 1_555
C13_5 O2_5 1_555 1_555
C17_5 C18_5 1_555 1_555
H4_6 C4_6 1_555 1_555
Ag3_2 N3_6 1_555 1_555
Ag4 N5_6 1_555 1_555
N3_6 C21_6 1_555 1_555
N5_6 C22_6 1_555 1_555
H14_6 C19_6 1_555 1_555
C20_6 C19_6 1_555 1_555
C21_6 C20_6 1_555 1_555
C22_6 C20_6 1_555 1_555
Ag4_2 N3_7 1_555 1_555
H4_7 C4_7 1_555 1_555
Ag3_2 N5_7 1_555 1_555
N5_7 C22_7 1_555 1_555
H14_7 C19_7 1_555 1_555
C20_7 C19_7 1_555 1_555
C21_7 C20_7 1_555 1_555
C22_7 C20_7 1_555 1_555
C1_6 H1_6 1_555 1_555
H2_6 C1_6 1_555 1_555
C2_6 C3_6 1_555 1_555
C3_6 H3_8 1_555 1_555
C4_8 C3_6 1_555 1_555
H4_8 C4_8 1_555 1_555
C5_6 C4_8 1_555 1_555
C6_6 C5_6 1_555 1_555
C7_6 C2_6 1_555 1_555
O1_6 C1_6 1_555 1_555
Ag4 N3_8 1_555 1_555
Ag3 N5_8 1_555 1_555
N3_8 C21_8 1_555 1_555
N5_8 C22_8 1_555 1_555
C12_6 C1_6 1_555 1_555
H8_6 C12_6 1_555 1_555
H9_6 C12_6 1_555 1_555
C13_6 C14_6 1_555 1_555
H12_4 C16_6 1_555 1_555
C17_6 C16_6 1_555 1_555
H13_4 C17_6 1_555 1_555
C18_6 C13_6 1_555 1_555
C19_8 C18_6 1_555 1_555
H14_8 C19_8 1_555 1_555
C20_8 C19_8 1_555 1_555
C21_8 C20_8 1_555 1_555
C22_8 C20_8 1_555 1_555
O2_6 C12_6 1_555 1_555
C2_6 O1_6 1_555 1_555
C6_6 C7_6 1_555 1_555
C13_6 O2_6 1_555 1_555
C17_6 C18_6 1_555 1_555
C1_7 H1_7 1_555 1_555
H2_7 C1_7 1_555 1_555
C2_7 C3_7 1_555 1_555
H5_6 C5_7 1_555 1_555
C6_7 C5_7 1_555 1_555
H6_6 C6_7 1_555 1_555
C7_7 C2_7 1_555 1_555
O1_7 C1_7 1_555 1_555
C12_7 C1_7 1_555 1_555
H8_7 C12_7 1_555 1_555
H9_7 C12_7 1_555 1_555
C13_7 C14_7 1_555 1_555
H12_6 C16_7 1_555 1_555
C17_7 C16_7 1_555 1_555
H13_6 C17_7 1_555 1_555
C18_7 C13_7 1_555 1_555
O2_7 C12_7 1_555 1_555
C2_7 O1_7 1_555 1_555
C6_7 C7_7 1_555 1_555
C13_7 O2_7 1_555 1_555
C17_7 C18_7 1_555 1_555
C1_8 H1_8 1_555 1_555
H2_8 C1_8 1_555 1_555
C2_8 C3_8 1_555 1_555
H5_7 C5_8 1_555 1_555
C6_8 C5_8 1_555 1_555
H6_7 C6_8 1_555 1_555
C7_8 C2_8 1_555 1_555
O1_8 C1_8 1_555 1_555
C12_8 C1_8 1_555 1_555
H8_8 C12_8 1_555 1_555
H9_8 C12_8 1_555 1_555
C13_8 C14_8 1_555 1_555
H12_7 C16_8 1_555 1_555
C17_8 C16_8 1_555 1_555
H13_7 C17_8 1_555 1_555
C18_8 C13_8 1_555 1_555
O2_8 C12_8 1_555 1_555
C2_8 O1_8 1_555 1_555
C6_8 C7_8 1_555 1_555
C13_8 O2_8 1_555 1_555
C17_8 C18_8 1_555 1_555
F1 Sb1 1_555 1_555
F2 Sb1 1_555 1_555
F3 Sb1 1_555 1_555
Sb1_2 F4 1_555 1_555
F5 Sb1_2 1_555 1_555
F6 Sb1_2 1_555 1_555
F1_2 Sb1_3 1_555 1_555
F2_2 Sb1_3 1_555 1_555
F3_2 Sb1_3 1_555 1_555
Sb1_3 F4_2 1_555 1_555
F5_2 Sb1_3 1_555 1_555
F6_2 Sb1_3 1_555 1_555
F1_3 Sb1_4 1_555 1_555
F2_3 Sb1_4 1_555 1_555
F3_3 Sb1_4 1_555 1_555
Sb1_4 F4_3 1_555 1_555
F5_3 Sb1_4 1_555 1_555
F6_3 Sb1_4 1_555 1_555
F1_4 Sb1_5 1_555 1_555
F2_4 Sb1_5 1_555 1_555
F3_4 Sb1_5 1_555 1_555
Sb1_5 F4_4 1_555 1_555
F5_4 Sb1_5 1_555 1_555
F6_4 Sb1_5 1_555 1_555
F1_5 Sb1_6 1_555 1_555
F2_5 Sb1_6 1_555 1_555
F3_5 Sb1_6 1_555 1_555
Sb1_6 F4_5 1_555 1_555
F5_5 Sb1_6 1_555 1_555
F6_5 Sb1_6 1_555 1_555
F1_6 Sb1_7 1_555 1_555
F2_6 Sb1_7 1_555 1_555
F3_6 Sb1_7 1_555 1_555
Sb1_8 F4_6 1_555 1_555
F5_6 Sb1_8 1_555 1_555
F6_6 Sb1_8 1_555 1_555
F1_7 Sb1_9 1_555 1_555
F2_7 Sb1_9 1_555 1_555
F3_7 Sb1_9 1_555 1_555
Sb1_9 F4_7 1_555 1_555
F5_7 Sb1_9 1_555 1_555
F6_7 Sb1_9 1_555 1_555
F1_8 Sb1_10 1_555 1_555
F2_8 Sb1_10 1_555 1_555
F3_8 Sb1_10 1_555 1_555
Sb1_10 F4_8 1_555 1_555
F5_8 Sb1_10 1_555 1_555
F6_8 Sb1_10 1_555 1_555

#END
