
###############################################################################
#
# This file contains modified crystal structure data generated from the
# MOF subset of the Cambridge Structural Database (CSD) v543 
# hosted by the Cambridge Crystallographic Data Centre (CCDC).
#
# This work is licensed under the Creative Commons
# Attribution-NonCommercial-ShareAlike 4.0 International License.
# To view a copy of this license, visit
# http://creativecommons.org/licenses/by-nc-sa/4.0/
# or send a letter to
# Creative Commons, PO Box 1866, Mountain View, CA 94042, USA.
#
# CIF created using the CSD Python API on 29 September 2022
# The structure has been converted into the P1 space group
# The structure has a 3D framework
# The original CSD entry UFAQEA is in the hexagonal crystal system
# The original CSD entry UFAQEA is in a Sohncke space group
# The framework has been calculated to contain at least 10.0% void space
# The void calculation uses a probe of radius 1.32A, grid spacing 0.4
#
###############################################################################

data_UFAQEA
_chemical_formula_moiety         '(C84 H120 Cd6 N12 O24)n'
_symmetry_cell_setting           triclinic
_symmetry_space_group_name_H-M   'P 1'
_symmetry_Int_Tables_number      1
_space_group_name_Hall           'P 1'
loop_
_symmetry_equiv_pos_site_id
_symmetry_equiv_pos_as_xyz
1 x,y,z
_cell_length_a                   16.3968(17)
_cell_length_b                   16.3968(17)
_cell_length_c                   14.4171(12)
_cell_angle_alpha                90
_cell_angle_beta                 90
_cell_angle_gamma                120
_cell_volume                     3356.81
loop_
_atom_site_label
_atom_site_type_symbol
_atom_site_fract_x
_atom_site_fract_y
_atom_site_fract_z
C1 C 0.314(3) 0.385(3) 0.385(2)
H1 H 0.365396 0.425821 0.345493
H2 H 0.283854 0.321948 0.360419
H3 H 0.337948 0.384665 0.446089
C2 C 0.2444(19) 0.4185(17) 0.3910(14)
H4 H 0.251571 0.455130 0.334808
C3 C 0.147(2) 0.341(2) 0.394(2)
H5 H 0.128604 0.322361 0.456917
H6 H 0.142234 0.288068 0.359667
H7 H 0.106394 0.360393 0.366241
C4 C 0.2695(15) 0.4855(12) 0.4745(11)
H8 H 0.263809 0.450359 0.530571
H9 H 0.334955 0.534479 0.468840
C5 C 0.2097(10) 0.5322(11) 0.4856(10)
H10 H 0.142492 0.485134 0.486004
H11 H 0.001692 0.596411 0.486737
C7 C 0.0632(12) 0.5620(13) 0.3831(10)
C8 C 0.1667(11) 0.6370(11) 0.4084(12)
H12 H 0.188531 0.688440 0.364303
H13 H 0.166682 0.662246 0.469200
C11 C 0.0429(13) 0.5036(20) 0.3084(12)
H16 H 0.091048 0.502065 0.275744
C12 C 0.5518(14) 0.7424(13) 0.4503(14)
C13 C 0.6539(17) 0.760(2) 0.465(2)
H17 H 0.695819 0.825981 0.476574
H18 H 0.673918 0.741916 0.409911
H19 H 0.654739 0.723964 0.516572
C14 C 0.2394(10) 0.5884(13) 0.5778(8)
Cd1 Cd 0.38407(7) 0.73231(7) 0.43563(12)
N1 N 0.2322(9) 0.6039(10) 0.4092(8)
O1 O 0.3054(8) 0.6712(8) 0.5797(7)
O2 O 0.1951(9) 0.5430(13) 0.6485(7)
O3 O 0.5402(11) 0.7852(11) 0.3808(9)
O4 O 0.4910(11) 0.6957(12) 0.5034(14)
H20 H 0.233(9) 0.582(9) 0.361(5)
Cd2 Cd 0.26769(7) 0.65176(10) 0.76896(12)
N3 N 0.4417(16) 0.8804(9) 0.4996(8)
O5 O 0.3658(11) 0.6946(8) 0.2464(7)
O6 O 0.3479(16) 0.8049(9) 0.3152(7)
C6 C 0.9906(12) 0.5584(14) 0.4350(12)
C9 C 0.9001(14) 0.4948(19) 0.4053(11)
H14 H 0.849936 0.491465 0.438630
C10 C 0.9522(12) 0.4480(18) 0.2826(11)
H15 H 0.939596 0.414870 0.227165
N2 N 0.8804(9) 0.4387(13) 0.3329(8)
Cd3 Cd 0.73231(7) 0.34824(10) 0.26896(12)
C1_2 C 0.929(4) 0.314(3) 0.552(2)
H1_2 H 0.939575 0.365396 0.512160
H2_2 H 0.961906 0.283854 0.527086
H3_2 H 0.953283 0.337948 0.612756
C2_2 C 0.8259(25) 0.2444(19) 0.5577(14)
H4_2 H 0.796441 0.251571 0.501475
C3_2 C 0.806(3) 0.147(2) 0.561(2)
H5_2 H 0.806243 0.128604 0.623584
H6_2 H 0.854166 0.142234 0.526334
H7_2 H 0.746001 0.106394 0.532908
C4_2 C 0.7840(19) 0.2695(15) 0.6412(11)
H8_2 H 0.813450 0.263809 0.697238
H9_2 H 0.800476 0.334955 0.635507
C5_2 C 0.6775(15) 0.2097(10) 0.6523(10)
H10_2 H 0.657358 0.142492 0.652671
H11_2 H 0.405281 0.001692 0.653404
C7_2 C 0.5012(18) 0.0632(12) 0.5498(10)
C8_2 C 0.5297(16) 0.1667(11) 0.5751(12)
H12_2 H 0.500091 0.188531 0.530970
H13_2 H 0.504436 0.166682 0.635867
C11_2 C 0.5393(24) 0.0429(13) 0.4751(12)
H16_2 H 0.588983 0.091048 0.442411
C12_2 C 0.8094(19) 0.5518(14) 0.6170(14)
C13_2 C 0.8939(26) 0.6539(17) 0.632(2)
H17_2 H 0.869838 0.695819 0.643241
H18_2 H 0.932002 0.673918 0.576578
H19_2 H 0.930775 0.654739 0.683239
C14_2 C 0.6510(16) 0.2394(10) 0.7445(8)
Cd1_2 Cd 0.65176(10) 0.38407(7) 0.60230(12)
N1_2 N 0.6283(13) 0.2322(9) 0.5759(8)
O1_2 O 0.6342(11) 0.3054(8) 0.7464(7)
O2_2 O 0.6521(16) 0.1951(9) 0.8152(7)
O3_2 O 0.7550(16) 0.5402(11) 0.5475(9)
O4_2 O 0.7953(16) 0.4910(11) 0.6701(14)
H20_2 H 0.651(13) 0.233(9) 0.528(5)
Cd2_2 Cd 0.61593(12) 0.26769(7) 0.93563(12)
N3_2 N 0.5613(18) 0.4417(16) 0.6662(8)
O5_2 O 0.6712(14) 0.3658(11) 0.4130(7)
O6_2 O 0.5430(18) 0.3479(16) 0.4818(7)
C6_2 C 0.4322(18) 0.9906(12) 0.6017(12)
C9_2 C 0.4053(24) 0.9001(14) 0.5720(11)
H14_2 H 0.358471 0.849936 0.605297
C10_2 C 0.5042(22) 0.9522(12) 0.4493(11)
H15_2 H 0.524726 0.939596 0.393832
Cd2_3 Cd 0.34824(10) 0.61593(12) 0.10230(12)
C1_3 C 0.615(3) 0.929(4) 0.718(2)
H1_3 H 0.574179 0.939575 0.678826
H2_3 H 0.678052 0.961906 0.693752
H3_3 H 0.615335 0.953283 0.779422
C2_3 C 0.5815(17) 0.8259(25) 0.7243(14)
H4_3 H 0.544870 0.796441 0.668141
C3_3 C 0.659(2) 0.806(3) 0.727(2)
H5_3 H 0.677639 0.806243 0.790250
H6_3 H 0.711932 0.854166 0.693000
H7_3 H 0.639607 0.746001 0.699574
C4_3 C 0.5145(12) 0.7840(19) 0.8078(11)
H8_3 H 0.549641 0.813450 0.863904
H9_3 H 0.465521 0.800476 0.802173
C5_3 C 0.4678(11) 0.6775(15) 0.8189(10)
H10_3 H 0.514866 0.657358 0.819337
C6_3 C 0.4416(14) 0.4322(18) 0.7683(12)
H11_3 H 0.403589 0.405281 0.820070
C7_3 C 0.4380(13) 0.5012(18) 0.7164(10)
C8_3 C 0.3630(11) 0.5297(16) 0.7417(12)
H12_3 H 0.311560 0.500091 0.697636
H13_3 H 0.337754 0.504436 0.802533
C9_3 C 0.5052(19) 0.4053(24) 0.7386(11)
H14_3 H 0.508535 0.358471 0.771963
C10_3 C 0.5520(18) 0.5042(22) 0.6159(11)
H15_3 H 0.585130 0.524726 0.560498
C11_3 C 0.4964(20) 0.5393(24) 0.6417(12)
H16_3 H 0.497935 0.588983 0.609077
C12_3 C 0.2576(13) 0.8094(19) 0.7836(14)
C13_3 C 0.240(2) 0.8939(26) 0.798(2)
H17_3 H 0.174019 0.869838 0.809907
H18_3 H 0.258084 0.932002 0.743244
H19_3 H 0.276036 0.930775 0.849905
C14_3 C 0.4116(13) 0.6510(16) 0.9111(8)
N1_3 N 0.3961(10) 0.6283(13) 0.7425(8)
O1_3 O 0.3288(8) 0.6342(11) 0.9130(7)
O2_3 O 0.4570(13) 0.6521(16) 0.9818(7)
O3_3 O 0.2148(11) 0.7550(16) 0.7141(9)
O4_3 O 0.3043(12) 0.7953(16) 0.8367(14)
H20_3 H 0.418(9) 0.651(13) 0.694(5)
N3_3 N 0.1196(9) 0.5613(18) 0.8329(8)
C6_4 C 0.0094(12) 0.4416(14) 0.9350(12)
C9_4 C 0.0999(14) 0.5052(19) 0.9053(11)
H14_4 H 0.150064 0.508535 0.938630
C10_4 C 0.0478(12) 0.5520(18) 0.7826(11)
H15_4 H 0.060404 0.585130 0.727165
H8_4 H 0.736191 0.549641 0.030571
H19_4 H 0.345261 0.276036 0.016572
C14_4 C 0.7606(10) 0.4116(13) 0.0778(8)
O1_4 O 0.6946(8) 0.3288(8) 0.0797(7)
O2_4 O 0.8049(9) 0.4570(13) 0.1485(7)
O4_4 O 0.5090(11) 0.3043(12) 0.0034(14)
C1_4 C 0.686(3) 0.615(3) 0.885(2)
H1_4 H 0.634604 0.574179 0.845493
H2_4 H 0.716146 0.678052 0.860419
H3_4 H 0.662052 0.615335 0.946089
C2_4 C 0.7556(19) 0.5815(17) 0.8910(14)
H4_4 H 0.748429 0.544870 0.834808
C3_4 C 0.853(2) 0.659(2) 0.894(2)
H5_4 H 0.871396 0.677639 0.956917
H6_4 H 0.857766 0.711932 0.859667
H7_4 H 0.893606 0.639607 0.866241
C4_4 C 0.7305(15) 0.5145(12) 0.9745(11)
H9_4 H 0.665045 0.465521 0.968840
C5_4 C 0.7903(10) 0.4678(11) 0.9856(10)
H10_4 H 0.857508 0.514866 0.986004
H11_4 H 0.998308 0.403589 0.986737
C7_4 C 0.9368(12) 0.4380(13) 0.8831(10)
C8_4 C 0.8333(11) 0.3630(11) 0.9084(12)
H12_4 H 0.811469 0.311560 0.864303
H13_4 H 0.833318 0.337754 0.969200
C11_4 C 0.9571(13) 0.4964(20) 0.8084(12)
H16_4 H 0.908952 0.497935 0.775744
C12_4 C 0.4482(14) 0.2576(13) 0.9503(14)
C13_4 C 0.3461(17) 0.240(2) 0.965(2)
H17_4 H 0.304181 0.174019 0.976574
H18_4 H 0.326082 0.258084 0.909911
N1_4 N 0.7678(9) 0.3961(10) 0.9092(8)
O3_4 O 0.4598(11) 0.2148(11) 0.8808(9)
H20_4 H 0.767(9) 0.418(9) 0.861(5)
N3_4 N 0.5583(16) 0.1196(9) 0.9996(8)
C10_5 C 0.4958(22) 0.0478(12) 0.9493(11)
H15_5 H 0.475274 0.060404 0.893832
C1_5 C 0.071(4) 0.686(3) 0.052(2)
H1_5 H 0.060425 0.634604 0.012160
H2_5 H 0.038094 0.716146 0.027086
H3_5 H 0.046717 0.662052 0.112756
C2_5 C 0.1741(25) 0.7556(19) 0.0577(14)
H4_5 H 0.203559 0.748429 0.001475
C3_5 C 0.194(3) 0.853(2) 0.061(2)
H5_5 H 0.193757 0.871396 0.123584
H6_5 H 0.145834 0.857766 0.026334
H7_5 H 0.253999 0.893606 0.032908
C4_5 C 0.2160(19) 0.7305(15) 0.1412(11)
H8_5 H 0.186550 0.736191 0.197238
H9_5 H 0.199524 0.665045 0.135507
C5_5 C 0.3225(15) 0.7903(10) 0.1523(10)
H10_5 H 0.342642 0.857508 0.152671
H11_5 H 0.594719 0.998308 0.153404
C7_5 C 0.4988(18) 0.9368(12) 0.0498(10)
C8_5 C 0.4703(16) 0.8333(11) 0.0751(12)
H12_5 H 0.499909 0.811469 0.030970
H13_5 H 0.495564 0.833318 0.135867
C12_5 C 0.1906(19) 0.4482(14) 0.1170(14)
C13_5 C 0.1061(26) 0.3461(17) 0.132(2)
H17_5 H 0.130162 0.304181 0.143241
H18_5 H 0.067998 0.326082 0.076578
H19_5 H 0.069225 0.345261 0.183239
C14_5 C 0.3490(16) 0.7606(10) 0.2445(8)
N1_5 N 0.3717(13) 0.7678(9) 0.0759(8)
O3_5 O 0.2450(16) 0.4598(11) 0.0475(9)
O4_5 O 0.2047(16) 0.5090(11) 0.1701(14)
H20_5 H 0.349(13) 0.767(9) 0.028(5)
N3_5 N 0.4387(18) 0.5583(16) 0.1662(8)
C11_5 C 0.4607(24) 0.9571(13) 0.9751(12)
H16_5 H 0.411017 0.908952 0.942411
C1_6 C 0.385(3) 0.071(4) 0.218(2)
H1_6 H 0.425821 0.060425 0.178826
H2_6 H 0.321948 0.038094 0.193752
H3_6 H 0.384665 0.046717 0.279422
C2_6 C 0.4185(17) 0.1741(25) 0.2243(14)
H4_6 H 0.455130 0.203559 0.168141
C3_6 C 0.341(2) 0.194(3) 0.227(2)
H5_6 H 0.322361 0.193757 0.290250
H6_6 H 0.288068 0.145834 0.193000
H7_6 H 0.360393 0.253999 0.199574
C4_6 C 0.4855(12) 0.2160(19) 0.3078(11)
H8_6 H 0.450359 0.186550 0.363904
H9_6 H 0.534479 0.199524 0.302173
C5_6 C 0.5322(11) 0.3225(15) 0.3189(10)
H10_6 H 0.485134 0.342642 0.319337
C6_5 C 0.5584(14) 0.5678(18) 0.2683(12)
H11_6 H 0.596411 0.594719 0.320070
C7_6 C 0.5620(13) 0.4988(18) 0.2164(10)
C8_6 C 0.6370(11) 0.4703(16) 0.2417(12)
H12_6 H 0.688440 0.499909 0.197636
H13_6 H 0.662246 0.495564 0.302533
C9_5 C 0.4948(19) 0.5947(24) 0.2386(11)
H14_5 H 0.491465 0.641529 0.271963
C10_6 C 0.4480(18) 0.4958(22) 0.1159(11)
H15_6 H 0.414870 0.475274 0.060498
C11_6 C 0.5036(20) 0.4607(24) 0.1417(12)
H16_6 H 0.502065 0.411017 0.109077
C12_6 C 0.7424(13) 0.1906(19) 0.2836(14)
C13_6 C 0.760(2) 0.1061(26) 0.298(2)
H17_6 H 0.825981 0.130162 0.309907
H18_6 H 0.741916 0.067998 0.243244
H19_6 H 0.723964 0.069225 0.349905
C14_6 C 0.5884(13) 0.3490(16) 0.4111(8)
N1_6 N 0.6039(10) 0.3717(13) 0.2425(8)
O3_6 O 0.7852(11) 0.2450(16) 0.2141(9)
O4_6 O 0.6957(12) 0.2047(16) 0.3367(14)
H20_6 H 0.582(9) 0.349(13) 0.194(5)
C6_6 C 0.5678(18) 0.0094(12) 0.1017(12)
C9_6 C 0.5947(24) 0.0999(14) 0.0720(11)
H14_6 H 0.641529 0.150064 0.105297
loop_
_geom_bond_atom_site_label_1
_geom_bond_atom_site_label_2
_geom_bond_site_symmetry_1
_geom_bond_site_symmetry_2
C1 H1 1_555 1_555
H2 C1 1_555 1_555
H3 C1 1_555 1_555
C2 C1 1_555 1_555
H4 C2 1_555 1_555
C3 C2 1_555 1_555
H5 C3 1_555 1_555
H6 C3 1_555 1_555
H7 C3 1_555 1_555
C4 C2 1_555 1_555
H8 C4 1_555 1_555
H9 C4 1_555 1_555
C5 C4 1_555 1_555
H10 C5 1_555 1_555
C8 C7 1_555 1_555
H12 C8 1_555 1_555
H13 C8 1_555 1_555
C11 C7 1_555 1_555
H16 C11 1_555 1_555
C12 C13 1_555 1_555
C13 H17 1_555 1_555
H18 C13 1_555 1_555
H19 C13 1_555 1_555
C14 C5 1_555 1_555
Cd1 N1 1_555 1_555
N1 C5 1_555 1_555
O1 C14 1_555 1_555
O2 C14 1_555 1_555
O3 C12 1_555 1_555
O4 C12 1_555 1_555
H20 N1 1_555 1_555
Cd2 O1 1_555 1_555
N3 Cd1 1_555 1_555
O5 Cd1 1_555 1_555
O6 Cd1 1_555 1_555
C8 N1 1_555 1_555
Cd1 O1 1_555 1_555
Cd1 O3 1_555 1_555
Cd1 O4 1_555 1_555
O2 Cd2 1_555 1_555
C9 C6 1_555 1_555
H14 C9 1_555 1_555
C10 H15 1_555 1_555
N2 C9 1_555 1_555
Cd3 N2 1_555 1_555
C10 N2 1_555 1_555
C1_2 H1_2 1_555 1_555
H2_2 C1_2 1_555 1_555
H3_2 C1_2 1_555 1_555
C2_2 C1_2 1_555 1_555
H4_2 C2_2 1_555 1_555
C3_2 C2_2 1_555 1_555
H5_2 C3_2 1_555 1_555
H6_2 C3_2 1_555 1_555
H7_2 C3_2 1_555 1_555
C4_2 C2_2 1_555 1_555
H8_2 C4_2 1_555 1_555
H9_2 C4_2 1_555 1_555
C5_2 C4_2 1_555 1_555
H10_2 C5_2 1_555 1_555
C8_2 C7_2 1_555 1_555
H12_2 C8_2 1_555 1_555
H13_2 C8_2 1_555 1_555
C11_2 C7_2 1_555 1_555
H16_2 C11_2 1_555 1_555
C12_2 C13_2 1_555 1_555
C13_2 H17_2 1_555 1_555
H18_2 C13_2 1_555 1_555
H19_2 C13_2 1_555 1_555
C14_2 C5_2 1_555 1_555
Cd1_2 N1_2 1_555 1_555
N1_2 C5_2 1_555 1_555
O1_2 C14_2 1_555 1_555
O2_2 C14_2 1_555 1_555
O3_2 C12_2 1_555 1_555
O4_2 C12_2 1_555 1_555
H20_2 N1_2 1_555 1_555
Cd2_2 O1_2 1_555 1_555
N3_2 Cd1_2 1_555 1_555
O5_2 Cd1_2 1_555 1_555
O6_2 Cd1_2 1_555 1_555
C8_2 N1_2 1_555 1_555
Cd1_2 O1_2 1_555 1_555
Cd1_2 O3_2 1_555 1_555
Cd1_2 O4_2 1_555 1_555
O2_2 Cd2_2 1_555 1_555
C9_2 C6_2 1_555 1_555
H14_2 C9_2 1_555 1_555
C10_2 H15_2 1_555 1_555
N3 C9_2 1_555 1_555
C10_2 N3 1_555 1_555
C1_3 H1_3 1_555 1_555
H2_3 C1_3 1_555 1_555
H3_3 C1_3 1_555 1_555
C2_3 C1_3 1_555 1_555
H4_3 C2_3 1_555 1_555
C3_3 C2_3 1_555 1_555
H5_3 C3_3 1_555 1_555
H6_3 C3_3 1_555 1_555
H7_3 C3_3 1_555 1_555
C4_3 C2_3 1_555 1_555
H8_3 C4_3 1_555 1_555
H9_3 C4_3 1_555 1_555
C5_3 C4_3 1_555 1_555
H10_3 C5_3 1_555 1_555
C6_3 H11_3 1_555 1_555
C7_3 C6_3 1_555 1_555
C8_3 C7_3 1_555 1_555
H12_3 C8_3 1_555 1_555
H13_3 C8_3 1_555 1_555
C9_3 C6_3 1_555 1_555
H14_3 C9_3 1_555 1_555
C10_3 H15_3 1_555 1_555
C11_3 C7_3 1_555 1_555
H16_3 C11_3 1_555 1_555
C12_3 C13_3 1_555 1_555
C13_3 H17_3 1_555 1_555
H18_3 C13_3 1_555 1_555
H19_3 C13_3 1_555 1_555
C14_3 C5_3 1_555 1_555
Cd2 N1_3 1_555 1_555
N1_3 C5_3 1_555 1_555
N3_2 C9_3 1_555 1_555
O1_3 C14_3 1_555 1_555
O2_3 C14_3 1_555 1_555
O3_3 C12_3 1_555 1_555
O4_3 C12_3 1_555 1_555
H20_3 N1_3 1_555 1_555
N3_3 Cd2 1_555 1_555
C8_3 N1_3 1_555 1_555
C10_3 C11_3 1_555 1_555
C10_3 N3_2 1_555 1_555
Cd2 O1_3 1_555 1_555
Cd2 O3_3 1_555 1_555
Cd2 O4_3 1_555 1_555
C9_4 C6_4 1_555 1_555
H14_4 C9_4 1_555 1_555
C10_4 H15_4 1_555 1_555
N3_3 C9_4 1_555 1_555
C10_4 N3_3 1_555 1_555
O1_4 C14_4 1_555 1_555
O2_4 C14_4 1_555 1_555
Cd3 O1_4 1_555 1_555
O2_4 Cd3 1_555 1_555
C1_4 H1_4 1_555 1_555
H2_4 C1_4 1_555 1_555
H3_4 C1_4 1_555 1_555
C2_4 C1_4 1_555 1_555
H4_4 C2_4 1_555 1_555
C3_4 C2_4 1_555 1_555
H5_4 C3_4 1_555 1_555
H6_4 C3_4 1_555 1_555
H7_4 C3_4 1_555 1_555
C4_4 C2_4 1_555 1_555
H9_4 C4_4 1_555 1_555
C5_4 C4_4 1_555 1_555
H10_4 C5_4 1_555 1_555
C8_4 C7_4 1_555 1_555
H12_4 C8_4 1_555 1_555
H13_4 C8_4 1_555 1_555
C11_4 C7_4 1_555 1_555
H16_4 C11_4 1_555 1_555
C12_4 C13_4 1_555 1_555
C13_4 H17_4 1_555 1_555
H18_4 C13_4 1_555 1_555
Cd2_2 N1_4 1_555 1_555
N1_4 C5_4 1_555 1_555
O3_4 C12_4 1_555 1_555
H20_4 N1_4 1_555 1_555
N3_4 Cd2_2 1_555 1_555
C8_4 N1_4 1_555 1_555
Cd2_2 O3_4 1_555 1_555
C10_5 H15_5 1_555 1_555
C10_5 N3_4 1_555 1_555
C1_5 H1_5 1_555 1_555
H2_5 C1_5 1_555 1_555
H3_5 C1_5 1_555 1_555
C2_5 C1_5 1_555 1_555
H4_5 C2_5 1_555 1_555
C3_5 C2_5 1_555 1_555
H5_5 C3_5 1_555 1_555
H6_5 C3_5 1_555 1_555
H7_5 C3_5 1_555 1_555
C4_5 C2_5 1_555 1_555
H8_5 C4_5 1_555 1_555
H9_5 C4_5 1_555 1_555
C5_5 C4_5 1_555 1_555
H10_5 C5_5 1_555 1_555
C8_5 C7_5 1_555 1_555
H12_5 C8_5 1_555 1_555
H13_5 C8_5 1_555 1_555
C12_5 C13_5 1_555 1_555
C13_5 H17_5 1_555 1_555
H18_5 C13_5 1_555 1_555
H19_5 C13_5 1_555 1_555
C14_5 C5_5 1_555 1_555
Cd2_3 N1_5 1_555 1_555
N1_5 C5_5 1_555 1_555
O5 C14_5 1_555 1_555
O6 C14_5 1_555 1_555
O3_5 C12_5 1_555 1_555
O4_5 C12_5 1_555 1_555
H20_5 N1_5 1_555 1_555
N3_5 Cd2_3 1_555 1_555
C8_5 N1_5 1_555 1_555
Cd2_3 O5 1_555 1_555
Cd2_3 O3_5 1_555 1_555
Cd2_3 O4_5 1_555 1_555
H16_5 C11_5 1_555 1_555
C1_6 H1_6 1_555 1_555
H2_6 C1_6 1_555 1_555
H3_6 C1_6 1_555 1_555
C2_6 C1_6 1_555 1_555
H4_6 C2_6 1_555 1_555
C3_6 C2_6 1_555 1_555
H5_6 C3_6 1_555 1_555
H6_6 C3_6 1_555 1_555
H7_6 C3_6 1_555 1_555
C4_6 C2_6 1_555 1_555
H8_6 C4_6 1_555 1_555
H9_6 C4_6 1_555 1_555
C5_6 C4_6 1_555 1_555
H10_6 C5_6 1_555 1_555
C6_5 H11_6 1_555 1_555
C7_6 C6_5 1_555 1_555
C8_6 C7_6 1_555 1_555
H12_6 C8_6 1_555 1_555
H13_6 C8_6 1_555 1_555
C9_5 C6_5 1_555 1_555
H14_5 C9_5 1_555 1_555
C10_6 H15_6 1_555 1_555
C11_6 C7_6 1_555 1_555
H16_6 C11_6 1_555 1_555
C12_6 C13_6 1_555 1_555
C13_6 H17_6 1_555 1_555
H18_6 C13_6 1_555 1_555
H19_6 C13_6 1_555 1_555
C14_6 C5_6 1_555 1_555
Cd3 N1_6 1_555 1_555
N1_6 C5_6 1_555 1_555
N3_5 C9_5 1_555 1_555
O5_2 C14_6 1_555 1_555
O6_2 C14_6 1_555 1_555
O3_6 C12_6 1_555 1_555
O4_6 C12_6 1_555 1_555
H20_6 N1_6 1_555 1_555
C8_6 N1_6 1_555 1_555
C10_6 C11_6 1_555 1_555
C10_6 N3_5 1_555 1_555
Cd3 O5_2 1_555 1_555
Cd3 O3_6 1_555 1_555
Cd3 O4_6 1_555 1_555
C9_6 C6_6 1_555 1_555
H14_6 C9_6 1_555 1_555

#END
