
###############################################################################
#
# This file contains modified crystal structure data generated from the
# MOF subset of the Cambridge Structural Database (CSD) v543 
# hosted by the Cambridge Crystallographic Data Centre (CCDC).
#
# This work is licensed under the Creative Commons
# Attribution-NonCommercial-ShareAlike 4.0 International License.
# To view a copy of this license, visit
# http://creativecommons.org/licenses/by-nc-sa/4.0/
# or send a letter to
# Creative Commons, PO Box 1866, Mountain View, CA 94042, USA.
#
# CIF created using the CSD Python API on 29 September 2022
# The structure has been converted into the P1 space group
# The structure has a 3D framework
# The original CSD entry UFASAW is in the orthorhombic crystal system
# The framework has been calculated to contain at least 10.0% void space
# The void calculation uses a probe of radius 1.32A, grid spacing 0.4
# H atom positions have been added when not included in the experimental data
# Generated hydrogen atom positions removed from atoms on special positions
#
###############################################################################

data_UFASAW
_chemical_formula_moiety         '(C288 H224 Cd44 N92 O150)n'
_symmetry_cell_setting           triclinic
_symmetry_space_group_name_H-M   'P 1'
_symmetry_Int_Tables_number      1
_space_group_name_Hall           'P 1'
loop_
_symmetry_equiv_pos_site_id
_symmetry_equiv_pos_as_xyz
1 x,y,z
_cell_length_a                   16.6207(7)
_cell_length_b                   15.3719(12)
_cell_length_c                   37.354(3)
_cell_angle_alpha                90
_cell_angle_beta                 90
_cell_angle_gamma                90
_cell_volume                     9543.64
loop_
_atom_site_label
_atom_site_type_symbol
_atom_site_fract_x
_atom_site_fract_y
_atom_site_fract_z
C7 C 0.3950(10) 0.1433(11) 0.6470(4)
C8 C 0.4575(10) 0.2080(11) 0.6546(4)
C9 C 0.5000 0.3388(16) 0.6689(6)
H3 H 0.5000 0.3989 0.6748
Cd2 Cd 0.29857(6) 0.31922(7) 0.66431(3)
N3 N 0.4346(8) 0.2884(9) 0.6639(3)
O5 O 0.4086(7) 0.0647(8) 0.6387(3)
O6 O 0.3159(6) 0.1686(7) 0.6485(3)
O8 O 0.5000 0.0033(19) 0.7095(7)
C24 C 0.6050(10) 0.1433(11) 0.6470(4)
C25 C 0.5425(10) 0.2080(11) 0.6546(4)
C26 C 0.2181(12) 0.4028(16) 0.4328(5)
H12 H 0.1695 0.4134 0.4202
C27 C 0.3527(14) 0.3854(19) 0.4332(5)
H13 H 0.4027 0.3821 0.4210
C28 C 0.2822(12) 0.3787(11) 0.4889(5)
C29 C 0.2850(13) 0.3682(17) 0.5288(6)
C30 C 0.2163(13) 0.3914(18) 0.4702(5)
H14 H 0.1660 0.3930 0.4823
C31 C 0.3541(15) 0.375(2) 0.4707(6)
H15 H 0.4034 0.3663 0.4831
C32 C 0.2224(12) 0.3744(16) 0.5867(5)
H16 H 0.1757 0.3866 0.6004
C33 C 0.2179(12) 0.3804(16) 0.5494(5)
H17 H 0.1678 0.3931 0.5383
C34 C 0.3543(13) 0.3390(18) 0.5826(5)
H18 H 0.4040 0.3241 0.5935
C35 C 0.3528(13) 0.3457(18) 0.5457(6)
H19 H 0.4002 0.3343 0.5323
Cd5 Cd 0.20240(6) 0.10438(7) 0.64790(3)
Cd7 Cd 0.79760(6) 0.10438(7) 0.64790(3)
Cd8 Cd 0.29760(6) 0.39562(7) 0.35210(3)
Cd9 Cd 0.70143(6) 0.31922(7) 0.66431(3)
N7 N 0.2693(9) 0.3446(9) 0.7208(4)
N8 N 0.7307(9) 0.3446(9) 0.7208(4)
N10 N 0.5654(8) 0.2884(9) 0.6639(3)
N11 N 0.2899(8) 0.3985(10) 0.4143(4)
N13 N 0.2913(9) 0.3517(9) 0.6039(4)
N14 N 0.7087(9) 0.3517(9) 0.6039(4)
O10 O 0.2925(7) 0.4710(8) 0.6730(3)
O12 O 0.7075(7) 0.4710(8) 0.6730(3)
O16 O 0.1741(6) 0.2465(8) 0.6561(3)
O17 O 0.8259(6) 0.2465(8) 0.6561(3)
O19 O 0.5914(7) 0.0647(8) 0.6387(3)
O20 O 0.6841(6) 0.1686(7) 0.6485(3)
H23 H 0.53893 0.0516045 0.712889
C1 C 0.2774(11) 0.4984(12) 0.7051(4)
C2 C 0.2615(11) 0.4306(12) 0.7328(4)
C3 C 0.2500 0.2966(17) 0.7500
H1 H 0.2500 0.2348 0.7500
C4 C 0.3958(10) 0.7814(12) 0.6566(4)
C5 C 0.4561(9) 0.7131(11) 0.6523(4)
C6 C 0.5000 0.5778(18) 0.6458(7)
H2 H 0.5000 0.5164 0.6428
C10 C 0.2181(12) 0.5972(16) 0.5672(5)
H4 H 0.1695 0.5866 0.5798
C11 C 0.3527(14) 0.6146(19) 0.5668(5)
H5 H 0.4027 0.6179 0.5790
C12 C 0.2822(12) 0.6213(11) 0.5111(5)
C13 C 0.2850(13) 0.6318(17) 0.4712(6)
C14 C 0.2163(13) 0.6086(18) 0.5298(5)
H6 H 0.1660 0.6070 0.5177
C15 C 0.3541(15) 0.625(2) 0.5293(6)
H7 H 0.4034 0.6337 0.5169
C16 C 0.2224(12) 0.6256(16) 0.4133(5)
H8 H 0.1757 0.6134 0.3996
C17 C 0.2179(12) 0.6196(16) 0.4506(5)
H9 H 0.1678 0.6069 0.4617
C18 C 0.3543(13) 0.6610(18) 0.4174(5)
H10 H 0.4040 0.6759 0.4065
C19 C 0.3528(13) 0.6543(18) 0.4543(6)
H11 H 0.4002 0.6657 0.4677
Cd1 Cd 0.29760(6) 0.60438(7) 0.64790(3)
Cd3 Cd 0.5000 0.96158(13) 0.65114(7)
N2 N 0.4324(8) 0.6280(9) 0.6482(3)
N4 N 0.2899(8) 0.6015(10) 0.5857(4)
N5 N 0.2913(9) 0.6483(9) 0.3961(4)
O2 O 0.2716(7) 0.5774(8) 0.7118(3)
O3 O 0.3259(6) 0.7465(8) 0.6561(3)
O4 O 0.4084(7) 0.8601(9) 0.6602(4)
O7 O 0.5000 0.930(2) 0.5925(9)
C20 C 0.2226(11) 0.4984(12) 0.7949(4)
C21 C 0.2385(11) 0.4306(12) 0.7672(4)
C22 C 0.6042(10) 0.7814(12) 0.6566(4)
C23 C 0.5439(9) 0.7131(11) 0.6523(4)
Cd4 Cd 0.70240(6) 0.60438(7) 0.64790(3)
Cd6 Cd 0.20240(6) 0.60438(7) 0.85210(3)
Cd11 Cd 0.29857(6) 0.68078(7) 0.33569(3)
Cd12 Cd 0.20143(6) 0.81922(7) 0.66431(3)
Cd13 Cd 0.20143(6) 0.31922(7) 0.83569(3)
Cd14 Cd 0.79857(6) 0.81922(7) 0.66431(3)
N6 N 0.2307(9) 0.3446(9) 0.7792(4)
N9 N 0.5676(8) 0.6280(9) 0.6482(3)
N12 N 0.7101(8) 0.6015(10) 0.5857(4)
O9 O 0.2075(7) 0.4710(8) 0.8270(3)
O13 O 0.2284(7) 0.5774(8) 0.7882(3)
O14 O 0.7284(7) 0.5774(8) 0.7118(3)
O15 O 0.6741(6) 0.7465(8) 0.6561(3)
O18 O 0.5916(7) 0.8601(9) 0.6602(4)
O21 O 0.1841(6) 0.6686(7) 0.6485(3)
O22 O 0.8159(6) 0.6686(7) 0.6485(3)
H22 H 0.51579 0.953292 0.724791
C6_2 C 0.0000 0.0778(18) 0.6458(7)
H2_2 H 0.0000 0.0164 0.6428
C9_2 C 0.0000 0.8388(16) 0.6689(6)
H3_2 H 0.0000 0.8989 0.6748
Cd3_2 Cd 0.0000 0.46158(13) 0.65114(7)
O7_2 O 0.0000 0.430(2) 0.5925(9)
O8_2 O 0.0000 0.5033(19) 0.7095(7)
C22_2 C 0.1042(10) 0.2814(12) 0.6566(4)
C23_2 C 0.0439(9) 0.2131(11) 0.6523(4)
C24_2 C 0.1050(10) 0.6433(11) 0.6470(4)
C25_2 C 0.0425(10) 0.7080(11) 0.6546(4)
N8_2 N 0.2307(9) 0.8446(9) 0.7208(4)
N9_2 N 0.0676(8) 0.1280(9) 0.6482(3)
N10_2 N 0.0654(8) 0.7884(9) 0.6639(3)
N12_2 N 0.2101(8) 0.1015(10) 0.5857(4)
N14_2 N 0.2087(9) 0.8517(9) 0.6039(4)
O12_2 O 0.2075(7) 0.9710(8) 0.6730(3)
O14_2 O 0.2284(7) 0.0774(8) 0.7118(3)
O18_2 O 0.0916(7) 0.3601(9) 0.6602(4)
O19_2 O 0.0914(7) 0.5647(8) 0.6387(3)
H21 H 0.038877 0.468369 0.579925
H22_2 H 0.0157904 0.453292 0.724791
H23_2 H 0.0389303 0.551604 0.712889
C4_2 C 0.8958(10) 0.2814(12) 0.6566(4)
C5_2 C 0.9561(9) 0.2131(11) 0.6523(4)
C6_3 C 1.0000 0.0778(18) 0.6458(7)
H2_3 H 1.0000 0.0164 0.6428
C7_2 C 0.8950(10) 0.6433(11) 0.6470(4)
C8_2 C 0.9575(10) 0.7080(11) 0.6546(4)
C9_3 C 1.0000 0.8388(16) 0.6689(6)
H3_3 H 1.0000 0.8989 0.6748
C10_2 C 0.7181(12) 0.0972(16) 0.5672(5)
H4_2 H 0.6695 0.0866 0.5798
C11_2 C 0.8527(14) 0.1146(19) 0.5668(5)
H5_2 H 0.9027 0.1179 0.5790
C12_2 C 0.7822(12) 0.1213(11) 0.5111(5)
C13_2 C 0.7850(13) 0.1318(17) 0.4712(6)
C14_2 C 0.7163(13) 0.1086(18) 0.5298(5)
H6_2 H 0.6660 0.1070 0.5177
C15_2 C 0.8541(15) 0.125(2) 0.5293(6)
H7_2 H 0.9034 0.1337 0.5169
C16_2 C 0.7224(12) 0.1256(16) 0.4133(5)
H8_2 H 0.6757 0.1134 0.3996
C17_2 C 0.7179(12) 0.1196(16) 0.4506(5)
H9_2 H 0.6678 0.1069 0.4617
C18_2 C 0.8543(13) 0.1610(18) 0.4174(5)
H10_2 H 0.9040 0.1759 0.4065
C19_2 C 0.8528(13) 0.1543(18) 0.4543(6)
H11_2 H 0.9002 0.1657 0.4677
Cd3_3 Cd 1.0000 0.46158(13) 0.65114(7)
N2_2 N 0.9324(8) 0.1280(9) 0.6482(3)
N3_2 N 0.9346(8) 0.7884(9) 0.6639(3)
N4_2 N 0.7899(8) 0.1015(10) 0.5857(4)
N5_2 N 0.7913(9) 0.1483(9) 0.3961(4)
O2_2 O 0.7716(7) 0.0774(8) 0.7118(3)
O4_2 O 0.9084(7) 0.3601(9) 0.6602(4)
O5_2 O 0.9086(7) 0.5647(8) 0.6387(3)
O7_3 O 1.0000 0.430(2) 0.5925(9)
O8_3 O 1.0000 0.5033(19) 0.7095(7)
C26_2 C 0.7181(12) 0.9028(16) 0.4328(5)
H12_2 H 0.6695 0.9134 0.4202
C27_2 C 0.8527(14) 0.8854(19) 0.4332(5)
H13_2 H 0.9027 0.8821 0.4210
C28_2 C 0.7822(12) 0.8787(11) 0.4889(5)
C29_2 C 0.7850(13) 0.8682(17) 0.5288(6)
C30_2 C 0.7163(13) 0.8914(18) 0.4702(5)
H14_2 H 0.6660 0.8930 0.4823
C31_2 C 0.8541(15) 0.875(2) 0.4707(6)
H15_2 H 0.9034 0.8663 0.4831
C32_2 C 0.7224(12) 0.8744(16) 0.5867(5)
H16_2 H 0.6757 0.8866 0.6004
C33_2 C 0.7179(12) 0.8804(16) 0.5494(5)
H17_2 H 0.6678 0.8931 0.5383
C34_2 C 0.8543(13) 0.8390(18) 0.5826(5)
H18_2 H 0.9040 0.8241 0.5935
C35_2 C 0.8528(13) 0.8457(18) 0.5457(6)
H19_2 H 0.9002 0.8343 0.5323
Cd6_2 Cd 0.70240(6) 0.10438(7) 0.85210(3)
Cd8_2 Cd 0.79760(6) 0.89562(7) 0.35210(3)
Cd11_2 Cd 0.79857(6) 0.18078(7) 0.33569(3)
N7_2 N 0.7693(9) 0.8446(9) 0.7208(4)
N11_2 N 0.7899(8) 0.8985(10) 0.4143(4)
N13_2 N 0.7913(9) 0.8517(9) 0.6039(4)
O10_2 O 0.7925(7) 0.9710(8) 0.6730(3)
O13_2 O 0.7284(7) 0.0774(8) 0.7882(3)
H20 H 0.945262 0.439368 0.582569
C1_2 C 0.7774(11) 0.9984(12) 0.7051(4)
C2_2 C 0.7615(11) 0.9306(12) 0.7328(4)
C3_2 C 0.7500 0.7966(17) 0.7500
H1_2 H 0.7500 0.7348 0.7500
C20_2 C 0.7226(11) 0.9984(12) 0.7949(4)
C21_2 C 0.7385(11) 0.9306(12) 0.7672(4)
Cd13_2 Cd 0.70143(6) 0.81922(7) 0.83569(3)
N6_2 N 0.7307(9) 0.8446(9) 0.7792(4)
O9_2 O 0.7075(7) 0.9710(8) 0.8270(3)
C1_3 C 0.7226(11) 0.0016(12) 0.2051(4)
C2_3 C 0.7385(11) 0.0694(12) 0.2328(4)
C3_3 C 0.7500 0.2034(17) 0.2500
H1_3 H 0.7500 0.2652 0.2500
N1 N 0.7307(9) 0.1554(9) 0.2208(4)
O1 O 0.7075(7) 0.0290(8) 0.1730(3)
C20_3 C 0.7774(11) 0.0016(12) 0.2949(4)
C21_3 C 0.7615(11) 0.0694(12) 0.2672(4)
Cd10 Cd 0.70143(6) 0.18078(7) 0.16431(3)
N6_3 N 0.7693(9) 0.1554(9) 0.2792(4)
O9_3 O 0.7925(7) 0.0290(8) 0.3270(3)
O11 O 0.2925(7) 0.0290(8) 0.1730(3)
C4_3 C 0.6042(10) 0.7186(12) 0.1566(4)
C5_3 C 0.5439(9) 0.7869(11) 0.1523(4)
C6_4 C 0.5000 0.9222(18) 0.1458(7)
H2_4 H 0.5000 0.9836 0.1428
C7_3 C 0.6050(10) 0.3567(11) 0.1470(4)
C8_3 C 0.5425(10) 0.2920(11) 0.1546(4)
C9_4 C 0.5000 0.1612(16) 0.1689(6)
H3_4 H 0.5000 0.1011 0.1748
C10_3 C 0.7819(12) 0.9028(16) 0.0672(5)
H4_3 H 0.8305 0.9134 0.0798
C11_3 C 0.6473(14) 0.8854(19) 0.0668(5)
H5_3 H 0.5973 0.8821 0.0790
C12_3 C 0.7178(12) 0.8787(11) 0.0111(5)
C14_3 C 0.7837(13) 0.8914(18) 0.0298(5)
H6_3 H 0.8340 0.8930 0.0177
C15_3 C 0.6459(15) 0.875(2) 0.0293(6)
H7_3 H 0.5966 0.8663 0.0169
Cd1_2 Cd 0.70240(6) 0.89562(7) 0.14790(3)
Cd3_4 Cd 0.5000 0.53842(13) 0.15114(7)
N2_3 N 0.5676(8) 0.8720(9) 0.1482(3)
N3_3 N 0.5654(8) 0.2116(9) 0.1639(3)
N4_3 N 0.7101(8) 0.8985(10) 0.0857(4)
O2_3 O 0.7284(7) 0.9226(8) 0.2118(3)
O3_2 O 0.6741(6) 0.7535(8) 0.1561(3)
O4_3 O 0.5916(7) 0.6399(9) 0.1602(4)
O5_3 O 0.5914(7) 0.4353(8) 0.1387(3)
O6_2 O 0.6841(6) 0.3314(7) 0.1485(3)
O7_4 O 0.5000 0.570(2) 0.0925(9)
O8_4 O 0.5000 0.4967(19) 0.2095(7)
C22_3 C 0.3958(10) 0.7186(12) 0.1566(4)
C23_3 C 0.4561(9) 0.7869(11) 0.1523(4)
C24_3 C 0.3950(10) 0.3567(11) 0.1470(4)
C25_3 C 0.4575(10) 0.2920(11) 0.1546(4)
C29_3 C 0.7150(13) 0.1318(17) 0.0288(6)
C32_3 C 0.7776(12) 0.1256(16) 0.0867(5)
H16_3 H 0.8243 0.1134 0.1004
C33_3 C 0.7821(12) 0.1196(16) 0.0494(5)
H17_3 H 0.8322 0.1069 0.0383
C34_3 C 0.6457(13) 0.1610(18) 0.0826(5)
H18_3 H 0.5960 0.1759 0.0935
C35_3 C 0.6472(13) 0.1543(18) 0.0457(6)
H19_3 H 0.5998 0.1657 0.0323
Cd4_2 Cd 0.29760(6) 0.89562(7) 0.14790(3)
Cd5_2 Cd 0.79760(6) 0.39562(7) 0.14790(3)
Cd7_2 Cd 0.20240(6) 0.39562(7) 0.14790(3)
Cd9_2 Cd 0.29857(6) 0.18078(7) 0.16431(3)
Cd12_2 Cd 0.79857(6) 0.68078(7) 0.16431(3)
Cd14_2 Cd 0.20143(6) 0.68078(7) 0.16431(3)
N8_3 N 0.2693(9) 0.1554(9) 0.2208(4)
N9_3 N 0.4324(8) 0.8720(9) 0.1482(3)
N10_3 N 0.4346(8) 0.2116(9) 0.1639(3)
N12_3 N 0.2899(8) 0.8985(10) 0.0857(4)
N13_3 N 0.7087(9) 0.1483(9) 0.1039(4)
N14_3 N 0.2913(9) 0.1483(9) 0.1039(4)
O13_3 O 0.7716(7) 0.9226(8) 0.2882(3)
O14_3 O 0.2716(7) 0.9226(8) 0.2118(3)
O15_2 O 0.3259(6) 0.7535(8) 0.1561(3)
O16_2 O 0.8259(6) 0.2535(8) 0.1561(3)
O17_2 O 0.1741(6) 0.2535(8) 0.1561(3)
O18_3 O 0.4084(7) 0.6399(9) 0.1602(4)
O19_3 O 0.4086(7) 0.4353(8) 0.1387(3)
O20_2 O 0.3159(6) 0.3314(7) 0.1485(3)
O21_2 O 0.8159(6) 0.8314(7) 0.1485(3)
O22_2 O 0.1841(6) 0.8314(7) 0.1485(3)
C13_3 C 0.7150(13) 0.8682(17) 0.9712(6)
C16_3 C 0.7776(12) 0.8744(16) 0.9133(5)
H8_3 H 0.8243 0.8866 0.8996
C17_3 C 0.7821(12) 0.8804(16) 0.9506(5)
H9_3 H 0.8322 0.8931 0.9617
C18_3 C 0.6457(13) 0.8390(18) 0.9174(5)
H10_3 H 0.5960 0.8241 0.9065
C19_3 C 0.6472(13) 0.8457(18) 0.9543(6)
H11_3 H 0.5998 0.8343 0.9677
N5_3 N 0.7087(9) 0.8517(9) 0.8961(4)
C26_3 C 0.7819(12) 0.0972(16) 0.9328(5)
H12_3 H 0.8305 0.0866 0.9202
C27_3 C 0.6473(14) 0.1146(19) 0.9332(5)
H13_3 H 0.5973 0.1179 0.9210
C28_3 C 0.7178(12) 0.1213(11) 0.9889(5)
C30_3 C 0.7837(13) 0.1086(18) 0.9702(5)
H14_3 H 0.8340 0.1070 0.9823
C31_3 C 0.6459(15) 0.125(2) 0.9707(6)
H15_3 H 0.5966 0.1337 0.9831
N11_3 N 0.7101(8) 0.1015(10) 0.9143(4)
C4_4 C 0.6042(10) 0.2814(12) 0.8434(4)
C5_4 C 0.5439(9) 0.2131(11) 0.8477(4)
C6_5 C 0.5000 0.0778(18) 0.8542(7)
H2_5 H 0.5000 0.0164 0.8572
C7_4 C 0.6050(10) 0.6433(11) 0.8530(4)
C8_4 C 0.5425(10) 0.7080(11) 0.8454(4)
C9_5 C 0.5000 0.8388(16) 0.8311(6)
H3_5 H 0.5000 0.8989 0.8252
Cd3_5 Cd 0.5000 0.46158(13) 0.84886(7)
N2_4 N 0.5676(8) 0.1280(9) 0.8518(3)
N3_4 N 0.5654(8) 0.7884(9) 0.8361(3)
O3_3 O 0.6741(6) 0.2465(8) 0.8439(3)
O4_4 O 0.5916(7) 0.3601(9) 0.8398(4)
O5_4 O 0.5914(7) 0.5647(8) 0.8613(3)
O6_3 O 0.6841(6) 0.6686(7) 0.8515(3)
O7_5 O 0.5000 0.430(2) 0.9075(9)
O8_5 O 0.5000 0.5033(19) 0.7905(7)
C22_4 C 0.3958(10) 0.2814(12) 0.8434(4)
C23_4 C 0.4561(9) 0.2131(11) 0.8477(4)
C24_4 C 0.3950(10) 0.6433(11) 0.8530(4)
C25_4 C 0.4575(10) 0.7080(11) 0.8454(4)
Cd4_3 Cd 0.29760(6) 0.10438(7) 0.85210(3)
Cd5_3 Cd 0.79760(6) 0.60438(7) 0.85210(3)
Cd9_3 Cd 0.29857(6) 0.81922(7) 0.83569(3)
Cd12_3 Cd 0.79857(6) 0.31922(7) 0.83569(3)
N8_4 N 0.2693(9) 0.8446(9) 0.7792(4)
N9_4 N 0.4324(8) 0.1280(9) 0.8518(3)
N10_4 N 0.4346(8) 0.7884(9) 0.8361(3)
N12_4 N 0.2899(8) 0.1015(10) 0.9143(4)
N14_4 N 0.2913(9) 0.8517(9) 0.8961(4)
O12_3 O 0.2925(7) 0.9710(8) 0.8270(3)
O14_4 O 0.2716(7) 0.0774(8) 0.7882(3)
O15_3 O 0.3259(6) 0.2465(8) 0.8439(3)
O16_3 O 0.8259(6) 0.7465(8) 0.8439(3)
O17_3 O 0.1741(6) 0.7465(8) 0.8439(3)
O18_4 O 0.4084(7) 0.3601(9) 0.8398(4)
O19_4 O 0.4086(7) 0.5647(8) 0.8613(3)
O20_3 O 0.3159(6) 0.6686(7) 0.8515(3)
O21_3 O 0.8159(6) 0.1686(7) 0.8515(3)
O22_3 O 0.1841(6) 0.1686(7) 0.8515(3)
C1_4 C 0.2774(11) 0.5016(12) 0.2949(4)
C2_4 C 0.2615(11) 0.5694(12) 0.2672(4)
C3_4 C 0.2500 0.7034(17) 0.2500
H1_4 H 0.2500 0.7652 0.2500
C4_5 C 0.3958(10) 0.2186(12) 0.3434(4)
C5_5 C 0.4561(9) 0.2869(11) 0.3477(4)
C6_6 C 0.5000 0.4222(18) 0.3542(7)
H2_6 H 0.5000 0.4836 0.3572
Cd3_6 Cd 0.5000 0.03842(13) 0.34886(7)
N1_2 N 0.2693(9) 0.6554(9) 0.2792(4)
N2_5 N 0.4324(8) 0.3720(9) 0.3518(3)
O1_2 O 0.2925(7) 0.5290(8) 0.3270(3)
O2_4 O 0.2716(7) 0.4226(8) 0.2882(3)
O3_4 O 0.3259(6) 0.2535(8) 0.3439(3)
O4_5 O 0.4084(7) 0.1399(9) 0.3398(4)
O7_6 O 0.5000 0.070(2) 0.4075(9)
C20_4 C 0.2226(11) 0.5016(12) 0.2051(4)
C21_4 C 0.2385(11) 0.5694(12) 0.2328(4)
C22_5 C 0.6042(10) 0.2186(12) 0.3434(4)
C23_5 C 0.5439(9) 0.2869(11) 0.3477(4)
Cd4_4 Cd 0.70240(6) 0.39562(7) 0.35210(3)
Cd12_4 Cd 0.20143(6) 0.18078(7) 0.33569(3)
N6_4 N 0.2307(9) 0.6554(9) 0.2208(4)
N9_5 N 0.5676(8) 0.3720(9) 0.3518(3)
N12_5 N 0.7101(8) 0.3985(10) 0.4143(4)
O9_4 O 0.2075(7) 0.5290(8) 0.1730(3)
O11_2 O 0.7075(7) 0.5290(8) 0.3270(3)
O13_4 O 0.2284(7) 0.4226(8) 0.2118(3)
O14_5 O 0.7284(7) 0.4226(8) 0.2882(3)
O15_4 O 0.6741(6) 0.2535(8) 0.3439(3)
O18_5 O 0.5916(7) 0.1399(9) 0.3398(4)
O21_4 O 0.1841(6) 0.3314(7) 0.3515(3)
O22_4 O 0.8159(6) 0.3314(7) 0.3515(3)
H22_3 H 0.51579 0.0467083 0.275209
C7_5 C 0.3950(10) 0.8567(11) 0.3530(4)
C8_5 C 0.4575(10) 0.7920(11) 0.3454(4)
C9_6 C 0.5000 0.6612(16) 0.3311(6)
H3_6 H 0.5000 0.6011 0.3252
N3_5 N 0.4346(8) 0.7116(9) 0.3361(3)
O5_5 O 0.4086(7) 0.9353(8) 0.3613(3)
O6_4 O 0.3159(6) 0.8314(7) 0.3515(3)
O8_6 O 0.5000 0.9967(19) 0.2905(7)
C24_5 C 0.6050(10) 0.8567(11) 0.3530(4)
C25_5 C 0.5425(10) 0.7920(11) 0.3454(4)
Cd5_4 Cd 0.20240(6) 0.89562(7) 0.35210(3)
Cd9_4 Cd 0.70143(6) 0.68078(7) 0.33569(3)
N8_5 N 0.7307(9) 0.6554(9) 0.2792(4)
N10_5 N 0.5654(8) 0.7116(9) 0.3361(3)
N14_5 N 0.7087(9) 0.6483(9) 0.3961(4)
O16_4 O 0.1741(6) 0.7535(8) 0.3439(3)
O17_4 O 0.8259(6) 0.7535(8) 0.3439(3)
O19_5 O 0.5914(7) 0.9353(8) 0.3613(3)
O20_4 O 0.6841(6) 0.8314(7) 0.3515(3)
H23_3 H 0.53893 0.948396 0.287111
C4_6 C 0.1042(10) 0.2186(12) 0.1566(4)
C5_6 C 0.0439(9) 0.2869(11) 0.1523(4)
C6_7 C 0.0000 0.4222(18) 0.1458(7)
H2_7 H 0.0000 0.4836 0.1428
C10_4 C 0.2819(12) 0.4028(16) 0.0672(5)
H4_4 H 0.3305 0.4134 0.0798
C11_4 C 0.1473(14) 0.3854(19) 0.0668(5)
H5_4 H 0.0973 0.3821 0.0790
C12_4 C 0.2178(12) 0.3787(11) 0.0111(5)
C14_4 C 0.2837(13) 0.3914(18) 0.0298(5)
H6_4 H 0.3340 0.3930 0.0177
C15_4 C 0.1459(15) 0.375(2) 0.0293(6)
H7_4 H 0.0966 0.3663 0.0169
Cd3_7 Cd 0.0000 0.03842(13) 0.15114(7)
N2_6 N 0.0676(8) 0.3720(9) 0.1482(3)
N4_4 N 0.2101(8) 0.3985(10) 0.0857(4)
O4_6 O 0.0916(7) 0.1399(9) 0.1602(4)
O7_7 O 0.0000 0.070(2) 0.0925(9)
H20_2 H 0.0547381 0.0606316 0.0825694
C13_4 C 0.2150(13) 0.3682(17) 0.9712(6)
C16_4 C 0.2776(12) 0.3744(16) 0.9133(5)
H8_4 H 0.3243 0.3866 0.8996
C17_4 C 0.2821(12) 0.3804(16) 0.9506(5)
H9_4 H 0.3322 0.3931 0.9617
C18_4 C 0.1457(13) 0.3390(18) 0.9174(5)
H10_4 H 0.0960 0.3241 0.9065
C19_4 C 0.1472(13) 0.3457(18) 0.9543(6)
H11_4 H 0.0998 0.3343 0.9677
N5_4 N 0.2087(9) 0.3517(9) 0.8961(4)
C7_6 C 0.1050(10) 0.8567(11) 0.1470(4)
C8_6 C 0.0425(10) 0.7920(11) 0.1546(4)
C9_7 C 0.0000 0.6612(16) 0.1689(6)
H3_7 H 0.0000 0.6011 0.1748
N3_6 N 0.0654(8) 0.7116(9) 0.1639(3)
O5_6 O 0.0914(7) 0.9353(8) 0.1387(3)
O8_7 O 0.0000 0.9967(19) 0.2095(7)
C29_4 C 0.2150(13) 0.6318(17) 0.0288(6)
C32_4 C 0.2776(12) 0.6256(16) 0.0867(5)
H16_4 H 0.3243 0.6134 0.1004
C33_4 C 0.2821(12) 0.6196(16) 0.0494(5)
H17_4 H 0.3322 0.6069 0.0383
C34_4 C 0.1457(13) 0.6610(18) 0.0826(5)
H18_4 H 0.0960 0.6759 0.0935
C35_4 C 0.1472(13) 0.6543(18) 0.0457(6)
H19_4 H 0.0998 0.6657 0.0323
N13_4 N 0.2087(9) 0.6483(9) 0.1039(4)
C26_4 C 0.2819(12) 0.5972(16) 0.9328(5)
H12_4 H 0.3305 0.5866 0.9202
C27_4 C 0.1473(14) 0.6146(19) 0.9332(5)
H13_4 H 0.0973 0.6179 0.9210
C28_4 C 0.2178(12) 0.6213(11) 0.9889(5)
C30_4 C 0.2837(13) 0.6086(18) 0.9702(5)
H14_4 H 0.3340 0.6070 0.9823
C31_4 C 0.1459(15) 0.625(2) 0.9707(6)
H15_4 H 0.0966 0.6337 0.9831
N11_4 N 0.2101(8) 0.6015(10) 0.9143(4)
C6_8 C 1.0000 0.4222(18) 0.1458(7)
H2_8 H 1.0000 0.4836 0.1428
Cd3_8 Cd 1.0000 0.03842(13) 0.15114(7)
O7_8 O 1.0000 0.070(2) 0.0925(9)
C22_6 C 0.8958(10) 0.2186(12) 0.1566(4)
C23_6 C 0.9561(9) 0.2869(11) 0.1523(4)
N9_6 N 0.9324(8) 0.3720(9) 0.1482(3)
N12_6 N 0.7899(8) 0.3985(10) 0.0857(4)
O11_3 O 0.7925(7) 0.5290(8) 0.1730(3)
O14_6 O 0.7716(7) 0.4226(8) 0.2118(3)
O18_6 O 0.9084(7) 0.1399(9) 0.1602(4)
H21_2 H 0.961123 0.0316313 0.0799246
H22_4 H 0.98421 0.0467083 0.224791
C9_8 C 1.0000 0.6612(16) 0.1689(6)
H3_8 H 1.0000 0.6011 0.1748
O8_8 O 1.0000 0.9967(19) 0.2095(7)
C24_6 C 0.8950(10) 0.8567(11) 0.1470(4)
C25_6 C 0.9575(10) 0.7920(11) 0.1546(4)
N8_6 N 0.7693(9) 0.6554(9) 0.2208(4)
N10_6 N 0.9346(8) 0.7116(9) 0.1639(3)
N14_6 N 0.7913(9) 0.6483(9) 0.1039(4)
O19_6 O 0.9086(7) 0.9353(8) 0.1387(3)
H23_4 H 0.96107 0.948396 0.212889
C7_7 C 0.1050(10) 0.1433(11) 0.8530(4)
C8_7 C 0.0425(10) 0.2080(11) 0.8454(4)
C9_9 C 0.0000 0.3388(16) 0.8311(6)
H3_9 H 0.0000 0.3989 0.8252
N3_7 N 0.0654(8) 0.2884(9) 0.8361(3)
O5_7 O 0.0914(7) 0.0647(8) 0.8613(3)
O8_9 O 0.0000 0.0033(19) 0.7905(7)
C4_7 C 0.1042(10) 0.7814(12) 0.8434(4)
C5_7 C 0.0439(9) 0.7131(11) 0.8477(4)
C6_9 C 0.0000 0.5778(18) 0.8542(7)
H2_9 H 0.0000 0.5164 0.8572
Cd3_9 Cd 0.0000 0.96158(13) 0.84886(7)
N2_7 N 0.0676(8) 0.6280(9) 0.8518(3)
O4_7 O 0.0916(7) 0.8601(9) 0.8398(4)
O7_9 O 0.0000 0.930(2) 0.9075(9)
H20_3 H 0.0547381 0.939368 0.917431
C9_10 C 1.0000 0.3388(16) 0.8311(6)
H3_10 H 1.0000 0.3989 0.8252
O8_10 O 1.0000 0.0033(19) 0.7905(7)
C24_7 C 0.8950(10) 0.1433(11) 0.8530(4)
C25_7 C 0.9575(10) 0.2080(11) 0.8454(4)
N8_7 N 0.7693(9) 0.3446(9) 0.7792(4)
N10_7 N 0.9346(8) 0.2884(9) 0.8361(3)
N14_7 N 0.7913(9) 0.3517(9) 0.8961(4)
O12_4 O 0.7925(7) 0.4710(8) 0.8270(3)
O19_7 O 0.9086(7) 0.0647(8) 0.8613(3)
H23_5 H 0.96107 0.0516045 0.787111
C6_10 C 1.0000 0.5778(18) 0.8542(7)
H2_10 H 1.0000 0.5164 0.8572
Cd3_10 Cd 1.0000 0.96158(13) 0.84886(7)
O7_10 O 1.0000 0.930(2) 0.9075(9)
C22_7 C 0.8958(10) 0.7814(12) 0.8434(4)
C23_7 C 0.9561(9) 0.7131(11) 0.8477(4)
N9_7 N 0.9324(8) 0.6280(9) 0.8518(3)
N12_7 N 0.7899(8) 0.6015(10) 0.9143(4)
O14_7 O 0.7716(7) 0.5774(8) 0.7882(3)
O18_7 O 0.9084(7) 0.8601(9) 0.8398(4)
H21_3 H 0.961123 0.968369 0.920075
H22_5 H 0.98421 0.953292 0.775209
O11_4 O 0.2075(7) 0.0290(8) 0.3270(3)
C6_11 C 0.0000 0.9222(18) 0.3542(7)
H2_11 H 0.0000 0.9836 0.3572
C9_11 C 0.0000 0.1612(16) 0.3311(6)
H3_11 H 0.0000 0.1011 0.3252
Cd3_11 Cd 0.0000 0.53842(13) 0.34886(7)
O7_11 O 0.0000 0.570(2) 0.4075(9)
O8_11 O 0.0000 0.4967(19) 0.2905(7)
C22_8 C 0.1042(10) 0.7186(12) 0.3434(4)
C23_8 C 0.0439(9) 0.7869(11) 0.3477(4)
C24_8 C 0.1050(10) 0.3567(11) 0.3530(4)
C25_8 C 0.0425(10) 0.2920(11) 0.3454(4)
N8_8 N 0.2307(9) 0.1554(9) 0.2792(4)
N9_8 N 0.0676(8) 0.8720(9) 0.3518(3)
N10_8 N 0.0654(8) 0.2116(9) 0.3361(3)
N12_8 N 0.2101(8) 0.8985(10) 0.4143(4)
N14_8 N 0.2087(9) 0.1483(9) 0.3961(4)
O14_8 O 0.2284(7) 0.9226(8) 0.2882(3)
O18_8 O 0.0916(7) 0.6399(9) 0.3398(4)
O19_8 O 0.0914(7) 0.4353(8) 0.3613(3)
H21_4 H 0.038877 0.531631 0.420075
H22_6 H 0.0157904 0.546708 0.275209
H23_6 H 0.0389303 0.448396 0.287111
C4_8 C 0.8958(10) 0.7186(12) 0.3434(4)
C5_8 C 0.9561(9) 0.7869(11) 0.3477(4)
C6_12 C 1.0000 0.9222(18) 0.3542(7)
H2_12 H 1.0000 0.9836 0.3572
C7_8 C 0.8950(10) 0.3567(11) 0.3530(4)
C8_8 C 0.9575(10) 0.2920(11) 0.3454(4)
C9_12 C 1.0000 0.1612(16) 0.3311(6)
H3_12 H 1.0000 0.1011 0.3252
Cd3_12 Cd 1.0000 0.53842(13) 0.34886(7)
N2_8 N 0.9324(8) 0.8720(9) 0.3518(3)
N3_8 N 0.9346(8) 0.2116(9) 0.3361(3)
O4_8 O 0.9084(7) 0.6399(9) 0.3398(4)
O5_8 O 0.9086(7) 0.4353(8) 0.3613(3)
O7_12 O 1.0000 0.570(2) 0.4075(9)
O8_12 O 1.0000 0.4967(19) 0.2905(7)
H20_4 H 0.945262 0.560632 0.417431
C1_5 C 0.7226(11) 0.5016(12) 0.2949(4)
C2_5 C 0.7385(11) 0.5694(12) 0.2672(4)
C3_5 C 0.7500 0.7034(17) 0.2500
H1_5 H 0.7500 0.7652 0.2500
C10_5 C 0.7819(12) 0.4028(16) 0.4328(5)
H4_5 H 0.8305 0.4134 0.4202
C11_5 C 0.6473(14) 0.3854(19) 0.4332(5)
H5_5 H 0.5973 0.3821 0.4210
C12_5 C 0.7178(12) 0.3787(11) 0.4889(5)
C13_5 C 0.7150(13) 0.3682(17) 0.5288(6)
C14_5 C 0.7837(13) 0.3914(18) 0.4702(5)
H6_5 H 0.8340 0.3930 0.4823
C15_5 C 0.6459(15) 0.375(2) 0.4707(6)
H7_5 H 0.5966 0.3663 0.4831
C16_5 C 0.7776(12) 0.3744(16) 0.5867(5)
H8_5 H 0.8243 0.3866 0.6004
C17_5 C 0.7821(12) 0.3804(16) 0.5494(5)
H9_5 H 0.8322 0.3931 0.5383
C18_5 C 0.6457(13) 0.3390(18) 0.5826(5)
H10_5 H 0.5960 0.3241 0.5935
C19_5 C 0.6472(13) 0.3457(18) 0.5457(6)
H11_5 H 0.5998 0.3343 0.5323
C20_5 C 0.7774(11) 0.5016(12) 0.2051(4)
C21_5 C 0.7615(11) 0.5694(12) 0.2328(4)
H22_7 H 0.48421 0.0467083 0.275209
C26_5 C 0.7819(12) 0.5972(16) 0.5672(5)
H12_5 H 0.8305 0.5866 0.5798
C27_5 C 0.6473(14) 0.6146(19) 0.5668(5)
H13_5 H 0.5973 0.6179 0.5790
C28_5 C 0.7178(12) 0.6213(11) 0.5111(5)
C29_5 C 0.7150(13) 0.6318(17) 0.4712(6)
C30_5 C 0.7837(13) 0.6086(18) 0.5298(5)
H14_5 H 0.8340 0.6070 0.5177
C31_5 C 0.6459(15) 0.625(2) 0.5293(6)
H15_5 H 0.5966 0.6337 0.5169
C32_5 C 0.7776(12) 0.6256(16) 0.4133(5)
H16_5 H 0.8243 0.6134 0.3996
C33_5 C 0.7821(12) 0.6196(16) 0.4506(5)
H17_5 H 0.8322 0.6069 0.4617
C34_5 C 0.6457(13) 0.6610(18) 0.4174(5)
H18_5 H 0.5960 0.6759 0.4065
C35_5 C 0.6472(13) 0.6543(18) 0.4543(6)
H19_5 H 0.5998 0.6657 0.4677
H23_7 H 0.46107 0.948396 0.287111
C1_6 C 0.2226(11) 0.0016(12) 0.2949(4)
C2_6 C 0.2385(11) 0.0694(12) 0.2672(4)
C3_6 C 0.2500 0.2034(17) 0.2500
H1_6 H 0.2500 0.2652 0.2500
C20_6 C 0.2774(11) 0.0016(12) 0.2051(4)
C21_6 C 0.2615(11) 0.0694(12) 0.2328(4)
C10_6 C 0.2819(12) 0.9028(16) 0.4328(5)
H4_6 H 0.3305 0.9134 0.4202
C11_6 C 0.1473(14) 0.8854(19) 0.4332(5)
H5_6 H 0.0973 0.8821 0.4210
C12_6 C 0.2178(12) 0.8787(11) 0.4889(5)
C13_6 C 0.2150(13) 0.8682(17) 0.5288(6)
C14_6 C 0.2837(13) 0.8914(18) 0.4702(5)
H6_6 H 0.3340 0.8930 0.4823
C15_6 C 0.1459(15) 0.875(2) 0.4707(6)
H7_6 H 0.0966 0.8663 0.4831
C16_6 C 0.2776(12) 0.8744(16) 0.5867(5)
H8_6 H 0.3243 0.8866 0.6004
C17_6 C 0.2821(12) 0.8804(16) 0.5494(5)
H9_6 H 0.3322 0.8931 0.5383
C18_6 C 0.1457(13) 0.8390(18) 0.5826(5)
H10_6 H 0.0960 0.8241 0.5935
C19_6 C 0.1472(13) 0.8457(18) 0.5457(6)
H11_6 H 0.0998 0.8343 0.5323
C26_6 C 0.2819(12) 0.0972(16) 0.5672(5)
H12_6 H 0.3305 0.0866 0.5798
C27_6 C 0.1473(14) 0.1146(19) 0.5668(5)
H13_6 H 0.0973 0.1179 0.5790
C28_6 C 0.2178(12) 0.1213(11) 0.5111(5)
C29_6 C 0.2150(13) 0.1318(17) 0.4712(6)
C30_6 C 0.2837(13) 0.1086(18) 0.5298(5)
H14_6 H 0.3340 0.1070 0.5177
C31_6 C 0.1459(15) 0.125(2) 0.5293(6)
H15_6 H 0.0966 0.1337 0.5169
C32_6 C 0.2776(12) 0.1256(16) 0.4133(5)
H16_6 H 0.3243 0.1134 0.3996
C33_6 C 0.2821(12) 0.1196(16) 0.4506(5)
H17_6 H 0.3322 0.1069 0.4617
C34_6 C 0.1457(13) 0.1610(18) 0.4174(5)
H18_6 H 0.0960 0.1759 0.4065
C35_6 C 0.1472(13) 0.1543(18) 0.4543(6)
H19_6 H 0.0998 0.1657 0.4677
H20_5 H 0.0547381 0.560632 0.417431
H21_5 H 0.961123 0.531631 0.420075
H22_8 H 0.98421 0.546708 0.275209
H23_8 H 0.96107 0.448396 0.287111
C13_7 C 0.2850(13) 0.1318(17) 0.0288(6)
C16_7 C 0.2224(12) 0.1256(16) 0.0867(5)
H8_7 H 0.1757 0.1134 0.1004
C17_7 C 0.2179(12) 0.1196(16) 0.0494(5)
H9_7 H 0.1678 0.1069 0.0383
C18_7 C 0.3543(13) 0.1610(18) 0.0826(5)
H10_7 H 0.4040 0.1759 0.0935
C19_7 C 0.3528(13) 0.1543(18) 0.0457(6)
H11_7 H 0.4002 0.1657 0.0323
C26_7 C 0.2181(12) 0.9028(16) 0.0672(5)
H12_7 H 0.1695 0.9134 0.0798
C27_7 C 0.3527(14) 0.8854(19) 0.0668(5)
H13_7 H 0.4027 0.8821 0.0790
C28_7 C 0.2822(12) 0.8787(11) 0.0111(5)
C30_7 C 0.2163(13) 0.8914(18) 0.0298(5)
H14_7 H 0.1660 0.8930 0.0177
C31_7 C 0.3541(15) 0.875(2) 0.0293(6)
H15_7 H 0.4034 0.8663 0.0169
C10_7 C 0.2181(12) 0.0972(16) 0.9328(5)
H4_7 H 0.1695 0.0866 0.9202
C11_7 C 0.3527(14) 0.1146(19) 0.9332(5)
H5_7 H 0.4027 0.1179 0.9210
C12_7 C 0.2822(12) 0.1213(11) 0.9889(5)
C14_7 C 0.2163(13) 0.1086(18) 0.9702(5)
H6_7 H 0.1660 0.1070 0.9823
C15_7 C 0.3541(15) 0.125(2) 0.9707(6)
H7_7 H 0.4034 0.1337 0.9831
C29_7 C 0.2850(13) 0.8682(17) 0.9712(6)
C32_7 C 0.2224(12) 0.8744(16) 0.9133(5)
H16_7 H 0.1757 0.8866 0.8996
C33_7 C 0.2179(12) 0.8804(16) 0.9506(5)
H17_7 H 0.1678 0.8931 0.9617
C34_7 C 0.3543(13) 0.8390(18) 0.9174(5)
H18_7 H 0.4040 0.8241 0.9065
C35_7 C 0.3528(13) 0.8457(18) 0.9543(6)
H19_7 H 0.4002 0.8343 0.9677
C1_7 C 0.2774(11) 0.9984(12) 0.7949(4)
C2_7 C 0.2615(11) 0.9306(12) 0.7672(4)
C3_7 C 0.2500 0.7966(17) 0.7500
H1_7 H 0.2500 0.7348 0.7500
C20_7 C 0.2226(11) 0.9984(12) 0.7051(4)
C21_7 C 0.2385(11) 0.9306(12) 0.7328(4)
H23_9 H 0.46107 0.0516045 0.712889
C1_8 C 0.7226(11) 0.4984(12) 0.7051(4)
C2_8 C 0.7385(11) 0.4306(12) 0.7328(4)
C3_8 C 0.7500 0.2966(17) 0.7500
H1_8 H 0.7500 0.2348 0.7500
C20_8 C 0.7774(11) 0.4984(12) 0.7949(4)
C21_8 C 0.7615(11) 0.4306(12) 0.7672(4)
H22_9 H 0.48421 0.953292 0.724791
H23_10 H 0.0389303 0.0516045 0.787111
H21_6 H 0.038877 0.968369 0.920075
H22_10 H 0.0157904 0.953292 0.775209
C26_8 C 0.7181(12) 0.4028(16) 0.0672(5)
H12_8 H 0.6695 0.4134 0.0798
C27_8 C 0.8527(14) 0.3854(19) 0.0668(5)
H13_8 H 0.9027 0.3821 0.0790
C28_8 C 0.7822(12) 0.3787(11) 0.0111(5)
C30_8 C 0.7163(13) 0.3914(18) 0.0298(5)
H14_8 H 0.6660 0.3930 0.0177
C31_8 C 0.8541(15) 0.375(2) 0.0293(6)
H15_8 H 0.9034 0.3663 0.0169
C29_8 C 0.7850(13) 0.3682(17) 0.9712(6)
C32_8 C 0.7224(12) 0.3744(16) 0.9133(5)
H16_8 H 0.6757 0.3866 0.8996
C33_8 C 0.7179(12) 0.3804(16) 0.9506(5)
H17_8 H 0.6678 0.3931 0.9617
C34_8 C 0.8543(13) 0.3390(18) 0.9174(5)
H18_8 H 0.9040 0.3241 0.9065
C35_8 C 0.8528(13) 0.3457(18) 0.9543(6)
H19_8 H 0.9002 0.3343 0.9677
C13_8 C 0.7850(13) 0.6318(17) 0.0288(6)
C16_8 C 0.7224(12) 0.6256(16) 0.0867(5)
H8_8 H 0.6757 0.6134 0.1004
C17_8 C 0.7179(12) 0.6196(16) 0.0494(5)
H9_8 H 0.6678 0.6069 0.0383
C18_8 C 0.8543(13) 0.6610(18) 0.0826(5)
H10_8 H 0.9040 0.6759 0.0935
C19_8 C 0.8528(13) 0.6543(18) 0.0457(6)
H11_8 H 0.9002 0.6657 0.0323
C10_8 C 0.7181(12) 0.5972(16) 0.9328(5)
H4_8 H 0.6695 0.5866 0.9202
C11_8 C 0.8527(14) 0.6146(19) 0.9332(5)
H5_8 H 0.9027 0.6179 0.9210
C12_8 C 0.7822(12) 0.6213(11) 0.9889(5)
C14_8 C 0.7163(13) 0.6086(18) 0.9702(5)
H6_8 H 0.6660 0.6070 0.9823
C15_8 C 0.8541(15) 0.625(2) 0.9707(6)
H7_8 H 0.9034 0.6337 0.9831
H20_6 H 0.945262 0.939368 0.917431
H21_7 H 0.038877 0.0316313 0.0799246
H22_11 H 0.0157904 0.0467083 0.224791
H23_11 H 0.0389303 0.948396 0.212889
H20_7 H 0.945262 0.0606316 0.0825694
H20_8 H 0.0547381 0.439368 0.582569
H21_8 H 0.961123 0.468369 0.579925
H22_12 H 0.98421 0.453292 0.724791
H23_12 H 0.96107 0.551604 0.712889
N15 N 0.0000 0.300(3) 0.5193(8)
O23 O 0.0000 0.3840(19) 0.5138(9)
O24 O 0.0000 0.2539(17) 0.4945(6)
O25 O 0.0000 0.2717(17) 0.5523(8)
N15_2 N 1.0000 0.300(3) 0.5193(8)
O23_2 O 1.0000 0.3840(19) 0.5138(9)
O24_2 O 1.0000 0.2539(17) 0.4945(6)
O25_2 O 1.0000 0.2717(17) 0.5523(8)
N15_3 N 0.5000 0.800(3) 0.5193(8)
O23_3 O 0.5000 0.8840(19) 0.5138(9)
O24_3 O 0.5000 0.7539(17) 0.4945(6)
O25_3 O 0.5000 0.7717(17) 0.5523(8)
N15_4 N -0.0000 0.200(3) 0.0193(8)
O23_4 O -0.0000 0.1160(19) 0.0138(9)
O25_4 O -0.0000 0.2283(17) 0.0523(8)
O24_4 O 0.0000 0.2461(17) 0.9945(6)
N15_5 N 1.0000 0.200(3) 0.0193(8)
O23_5 O 1.0000 0.1160(19) 0.0138(9)
O25_5 O 1.0000 0.2283(17) 0.0523(8)
O24_5 O 1.0000 0.2461(17) 0.9945(6)
O24_6 O 0.0000 0.7539(17) 0.0055(6)
N15_6 N -0.0000 0.800(3) 0.9807(8)
O23_6 O 0.0000 0.8840(19) 0.9862(9)
O25_6 O 0.0000 0.7717(17) 0.9477(8)
O24_7 O 1.0000 0.7539(17) 0.0055(6)
N15_7 N 1.0000 0.800(3) 0.9807(8)
O23_7 O 1.0000 0.8840(19) 0.9862(9)
O25_7 O 1.0000 0.7717(17) 0.9477(8)
N15_8 N 0.0000 0.700(3) 0.4807(8)
O23_8 O 0.0000 0.6160(19) 0.4862(9)
O24_8 O 0.0000 0.7461(17) 0.5055(6)
O25_8 O -0.0000 0.7283(17) 0.4477(8)
N15_9 N 1.0000 0.700(3) 0.4807(8)
O23_9 O 1.0000 0.6160(19) 0.4862(9)
O24_9 O 1.0000 0.7461(17) 0.5055(6)
O25_9 O 1.0000 0.7283(17) 0.4477(8)
N15_10 N 0.5000 0.700(3) 0.0193(8)
O23_10 O 0.5000 0.6160(19) 0.0138(9)
O25_10 O 0.5000 0.7283(17) 0.0523(8)
O24_10 O 0.5000 0.7461(17) 0.9945(6)
O24_11 O 0.5000 0.2539(17) 0.0055(6)
N15_11 N 0.5000 0.300(3) 0.9807(8)
O23_11 O 0.5000 0.3840(19) 0.9862(9)
O25_11 O 0.5000 0.2717(17) 0.9477(8)
N15_12 N 0.5000 0.200(3) 0.4807(8)
O23_12 O 0.5000 0.1160(19) 0.4862(9)
O24_12 O 0.5000 0.2461(17) 0.5055(6)
O25_12 O 0.5000 0.2283(17) 0.4477(8)
loop_
_geom_bond_atom_site_label_1
_geom_bond_atom_site_label_2
_geom_bond_site_symmetry_1
_geom_bond_site_symmetry_2
C7 C8 1_555 1_555
C8 N3 1_555 1_555
C9 H3 1_555 1_555
Cd2 N3 1_555 1_555
N3 C9 1_555 1_555
O5 C7 1_555 1_555
O6 C7 1_555 1_555
C24 C25 1_555 1_555
C25 C8 1_555 1_555
C26 H12 1_555 1_555
C27 H13 1_555 1_555
C28 C29 1_555 1_555
C29 C33 1_555 1_555
C30 C26 1_555 1_555
H14 C30 1_555 1_555
C31 C27 1_555 1_555
H15 C31 1_555 1_555
C32 H16 1_555 1_555
C33 C32 1_555 1_555
H17 C33 1_555 1_555
C34 H18 1_555 1_555
C35 C29 1_555 1_555
H19 C35 1_555 1_555
Cd5 O6 1_555 1_555
Cd7 O17 1_555 1_555
Cd8 N11 1_555 1_555
Cd9 N8 1_555 1_555
N7 Cd2 1_555 1_555
N10 C9 1_555 1_555
N11 C26 1_555 1_555
N13 Cd2 1_555 1_555
N14 Cd9 1_555 1_555
O10 Cd2 1_555 1_555
O12 Cd9 1_555 1_555
O16 Cd2 1_555 1_555
O17 Cd9 1_555 1_555
O20 C24 1_555 1_555
Cd2 O6 1_555 1_555
C24 O19 1_555 1_555
C25 N10 1_555 1_555
C27 N11 1_555 1_555
C28 C30 1_555 1_555
C28 C31 1_555 1_555
C32 N13 1_555 1_555
C34 C35 1_555 1_555
C34 N13 1_555 1_555
Cd5 O16 1_555 1_555
Cd7 O20 1_555 1_555
Cd9 N10 1_555 1_555
Cd9 O20 1_555 1_555
O8 H23 1_555 1_555
C1 C2 1_555 1_555
C2 N7 1_555 1_555
C3 H1 1_555 1_555
C4 C5 1_555 1_555
C5 N2 1_555 1_555
C6 H2 1_555 1_555
C10 H4 1_555 1_555
C11 H5 1_555 1_555
C12 C13 1_555 1_555
C13 C17 1_555 1_555
C14 C10 1_555 1_555
H6 C14 1_555 1_555
C15 C11 1_555 1_555
H7 C15 1_555 1_555
C16 H8 1_555 1_555
C17 C16 1_555 1_555
H9 C17 1_555 1_555
C18 H10 1_555 1_555
C19 C13 1_555 1_555
H11 C19 1_555 1_555
Cd1 N2 1_555 1_555
Cd3 O4 1_555 1_555
N7 C3 1_555 1_555
N2 C6 1_555 1_555
N4 C10 1_555 1_555
N5 C16 1_555 1_555
O10 C1 1_555 1_555
O2 C1 1_555 1_555
O3 C4 1_555 1_555
O4 C4 1_555 1_555
O7 Cd3 1_555 1_555
C20 C21 1_555 1_555
C21 C2 1_555 1_555
C22 C23 1_555 1_555
C23 C5 1_555 1_555
Cd4 N9 1_555 1_555
Cd6 O9 1_555 1_555
Cd11 N5 1_555 1_555
Cd12 O3 1_555 1_555
Cd13 N6 1_555 1_555
Cd14 O15 1_555 1_555
N6 C3 1_555 1_555
N9 C6 1_555 1_555
N12 Cd4 1_555 1_555
O9 C20 1_555 1_555
O12 Cd4 1_555 1_555
O13 C20 1_555 1_555
O14 Cd4 1_555 1_555
O15 C22 1_555 1_555
O18 Cd3 1_555 1_555
O21 Cd1 1_555 1_555
O22 Cd4 1_555 1_555
C11 N4 1_555 1_555
C12 C14 1_555 1_555
C12 C15 1_555 1_555
C18 C19 1_555 1_555
C18 N5 1_555 1_555
Cd1 N4 1_555 1_555
Cd1 O10 1_555 1_555
Cd1 O2 1_555 1_555
Cd1 O3 1_555 1_555
C21 N6 1_555 1_555
C22 O18 1_555 1_555
C23 N9 1_555 1_555
Cd4 O15 1_555 1_555
Cd6 O13 1_555 1_555
Cd12 O21 1_555 1_555
Cd13 O9 1_555 1_555
Cd14 O22 1_555 1_555
C6_2 H2_2 1_555 1_555
C9_2 H3_2 1_555 1_555
O7_2 Cd3_2 1_555 1_555
O8_2 Cd3_2 1_555 1_555
C22_2 C23_2 1_555 1_555
C24_2 C25_2 1_555 1_555
Cd5 N9_2 1_555 1_555
Cd12 N8_2 1_555 1_555
N9_2 C6_2 1_555 1_555
N10_2 C9_2 1_555 1_555
N12_2 Cd5 1_555 1_555
N14_2 Cd12 1_555 1_555
O12_2 Cd12 1_555 1_555
O14_2 Cd5 1_555 1_555
O16 C22_2 1_555 1_555
O18_2 Cd3_2 1_555 1_555
O19_2 Cd3_2 1_555 1_555
O21 C24_2 1_555 1_555
C22_2 O18_2 1_555 1_555
C23_2 N9_2 1_555 1_555
C24_2 O19_2 1_555 1_555
C25_2 N10_2 1_555 1_555
Cd12 N10_2 1_555 1_555
O7_2 H21 1_555 1_555
O8_2 H22_2 1_555 1_555
O8_2 H23_2 1_555 1_555
C4_2 C5_2 1_555 1_555
C5_2 N2_2 1_555 1_555
C6_3 H2_3 1_555 1_555
C7_2 C8_2 1_555 1_555
C8_2 N3_2 1_555 1_555
C9_3 H3_3 1_555 1_555
C10_2 H4_2 1_555 1_555
C11_2 H5_2 1_555 1_555
C12_2 C13_2 1_555 1_555
C13_2 C17_2 1_555 1_555
C14_2 C10_2 1_555 1_555
H6_2 C14_2 1_555 1_555
C15_2 C11_2 1_555 1_555
H7_2 C15_2 1_555 1_555
C16_2 H8_2 1_555 1_555
C17_2 C16_2 1_555 1_555
H9_2 C17_2 1_555 1_555
C18_2 H10_2 1_555 1_555
C19_2 C13_2 1_555 1_555
H11_2 C19_2 1_555 1_555
Cd7 N2_2 1_555 1_555
Cd14 N3_2 1_555 1_555
Cd3_3 O4_2 1_555 1_555
N2_2 C6_3 1_555 1_555
N3_2 C9_3 1_555 1_555
N4_2 C10_2 1_555 1_555
N5_2 C16_2 1_555 1_555
O17 C4_2 1_555 1_555
O4_2 C4_2 1_555 1_555
O5_2 C7_2 1_555 1_555
O22 C7_2 1_555 1_555
O7_3 Cd3_3 1_555 1_555
O8_3 Cd3_3 1_555 1_555
C26_2 H12_2 1_555 1_555
C27_2 H13_2 1_555 1_555
C28_2 C29_2 1_555 1_555
C29_2 C33_2 1_555 1_555
C30_2 C26_2 1_555 1_555
H14_2 C30_2 1_555 1_555
C31_2 C27_2 1_555 1_555
H15_2 C31_2 1_555 1_555
C32_2 H16_2 1_555 1_555
C33_2 C32_2 1_555 1_555
H17_2 C33_2 1_555 1_555
C34_2 H18_2 1_555 1_555
C35_2 C29_2 1_555 1_555
H19_2 C35_2 1_555 1_555
Cd8_2 N11_2 1_555 1_555
Cd11_2 N5_2 1_555 1_555
N7_2 Cd14 1_555 1_555
N11_2 C26_2 1_555 1_555
N13_2 Cd14 1_555 1_555
O10_2 Cd14 1_555 1_555
C11_2 N4_2 1_555 1_555
C12_2 C14_2 1_555 1_555
C12_2 C15_2 1_555 1_555
C18_2 C19_2 1_555 1_555
C18_2 N5_2 1_555 1_555
Cd7 N4_2 1_555 1_555
Cd7 O2_2 1_555 1_555
Cd3_3 O5_2 1_555 1_555
C27_2 N11_2 1_555 1_555
C28_2 C30_2 1_555 1_555
C28_2 C31_2 1_555 1_555
C32_2 N13_2 1_555 1_555
C34_2 C35_2 1_555 1_555
C34_2 N13_2 1_555 1_555
Cd6_2 O13_2 1_555 1_555
O7_3 H20 1_555 1_555
C1_2 C2_2 1_555 1_555
C2_2 N7_2 1_555 1_555
C3_2 H1_2 1_555 1_555
N7_2 C3_2 1_555 1_555
O10_2 C1_2 1_555 1_555
C20_2 C21_2 1_555 1_555
C21_2 C2_2 1_555 1_555
Cd13_2 N6_2 1_555 1_555
N6_2 C3_2 1_555 1_555
O9_2 C20_2 1_555 1_555
C21_2 N6_2 1_555 1_555
Cd13_2 O9_2 1_555 1_555
C1_3 C2_3 1_555 1_555
C2_3 N1 1_555 1_555
C3_3 H1_3 1_555 1_555
N1 C3_3 1_555 1_555
O1 C1_3 1_555 1_555
C20_3 C21_3 1_555 1_555
C21_3 C2_3 1_555 1_555
Cd10 N1 1_555 1_555
Cd11_2 N6_3 1_555 1_555
N6_3 C3_3 1_555 1_555
O9_3 C20_3 1_555 1_555
O1 Cd10 1_555 1_555
C21_3 N6_3 1_555 1_555
Cd11_2 O9_3 1_555 1_555
C4_3 C5_3 1_555 1_555
C5_3 N2_3 1_555 1_555
C6_4 H2_4 1_555 1_555
C7_3 C8_3 1_555 1_555
C8_3 N3_3 1_555 1_555
C9_4 H3_4 1_555 1_555
C10_3 H4_3 1_555 1_555
C11_3 H5_3 1_555 1_555
C14_3 C10_3 1_555 1_555
H6_3 C14_3 1_555 1_555
C15_3 C11_3 1_555 1_555
H7_3 C15_3 1_555 1_555
Cd1_2 N2_3 1_555 1_555
Cd10 N3_3 1_555 1_555
Cd3_4 O4_3 1_555 1_555
N2_3 C6_4 1_555 1_555
N3_3 C9_4 1_555 1_555
N4_3 C10_3 1_555 1_555
O3_2 C4_3 1_555 1_555
O4_3 C4_3 1_555 1_555
O5_3 C7_3 1_555 1_555
O6_2 C7_3 1_555 1_555
O7_4 Cd3_4 1_555 1_555
O8_4 Cd3_4 1_555 1_555
C22_3 C23_3 1_555 1_555
C23_3 C5_3 1_555 1_555
C24_3 C25_3 1_555 1_555
C25_3 C8_3 1_555 1_555
C29_3 C33_3 1_555 1_555
C32_3 H16_3 1_555 1_555
C33_3 C32_3 1_555 1_555
H17_3 C33_3 1_555 1_555
C34_3 H18_3 1_555 1_555
C35_3 C29_3 1_555 1_555
H19_3 C35_3 1_555 1_555
Cd4_2 N9_3 1_555 1_555
Cd5_2 O6_2 1_555 1_555
Cd7_2 O17_2 1_555 1_555
Cd9_2 N8_3 1_555 1_555
Cd12_2 O3_2 1_555 1_555
Cd14_2 O15_2 1_555 1_555
N9_3 C6_4 1_555 1_555
N10_3 C9_4 1_555 1_555
N12_3 Cd4_2 1_555 1_555
N13_3 Cd10 1_555 1_555
N14_3 Cd9_2 1_555 1_555
O11 Cd9_2 1_555 1_555
O14_3 Cd4_2 1_555 1_555
O15_2 C22_3 1_555 1_555
O16_2 Cd10 1_555 1_555
O17_2 Cd9_2 1_555 1_555
O18_3 Cd3_4 1_555 1_555
O19_3 Cd3_4 1_555 1_555
O20_2 C24_3 1_555 1_555
O21_2 Cd1_2 1_555 1_555
O22_2 Cd4_2 1_555 1_555
C11_3 N4_3 1_555 1_555
C12_3 C14_3 1_555 1_555
C12_3 C15_3 1_555 1_555
Cd1_2 N4_3 1_555 1_555
Cd1_2 O2_3 1_555 1_555
Cd1_2 O3_2 1_555 1_555
Cd10 O6_2 1_555 1_555
Cd3_4 O5_3 1_555 1_555
C22_3 O18_3 1_555 1_555
C23_3 N9_3 1_555 1_555
C24_3 O19_3 1_555 1_555
C25_3 N10_3 1_555 1_555
C32_3 N13_3 1_555 1_555
C34_3 C35_3 1_555 1_555
C34_3 N13_3 1_555 1_555
Cd4_2 O15_2 1_555 1_555
Cd5_2 O16_2 1_555 1_555
Cd8_2 O13_3 1_555 1_555
Cd7_2 O20_2 1_555 1_555
Cd9_2 N10_3 1_555 1_555
Cd9_2 O20_2 1_555 1_555
Cd12_2 O21_2 1_555 1_555
Cd14_2 O22_2 1_555 1_555
C13_3 C17_3 1_555 1_555
C16_3 H8_3 1_555 1_555
C17_3 C16_3 1_555 1_555
H9_3 C17_3 1_555 1_555
C18_3 H10_3 1_555 1_555
C19_3 C13_3 1_555 1_555
H11_3 C19_3 1_555 1_555
N5_3 C16_3 1_555 1_555
C26_3 H12_3 1_555 1_555
C27_3 H13_3 1_555 1_555
C30_3 C26_3 1_555 1_555
H14_3 C30_3 1_555 1_555
C31_3 C27_3 1_555 1_555
H15_3 C31_3 1_555 1_555
Cd6_2 N11_3 1_555 1_555
Cd13_2 N5_3 1_555 1_555
N11_3 C26_3 1_555 1_555
C18_3 C19_3 1_555 1_555
C18_3 N5_3 1_555 1_555
C27_3 N11_3 1_555 1_555
C28_3 C30_3 1_555 1_555
C28_3 C31_3 1_555 1_555
C4_4 C5_4 1_555 1_555
C5_4 N2_4 1_555 1_555
C6_5 H2_5 1_555 1_555
C7_4 C8_4 1_555 1_555
C8_4 N3_4 1_555 1_555
C9_5 H3_5 1_555 1_555
Cd6_2 N2_4 1_555 1_555
Cd13_2 N3_4 1_555 1_555
Cd3_5 O4_4 1_555 1_555
N2_4 C6_5 1_555 1_555
N3_4 C9_5 1_555 1_555
O3_3 C4_4 1_555 1_555
O4_4 C4_4 1_555 1_555
O5_4 C7_4 1_555 1_555
O6_3 C7_4 1_555 1_555
O7_5 Cd3_5 1_555 1_555
O8_5 Cd3_5 1_555 1_555
C22_4 C23_4 1_555 1_555
C23_4 C5_4 1_555 1_555
C24_4 C25_4 1_555 1_555
C25_4 C8_4 1_555 1_555
Cd4_3 N9_4 1_555 1_555
Cd5_3 O6_3 1_555 1_555
Cd6 O17_3 1_555 1_555
Cd9_3 N8_4 1_555 1_555
Cd12_3 O3_3 1_555 1_555
Cd13 O15_3 1_555 1_555
N9_4 C6_5 1_555 1_555
N10_4 C9_5 1_555 1_555
N12_4 Cd4_3 1_555 1_555
N14_4 Cd9_3 1_555 1_555
O12_3 Cd9_3 1_555 1_555
O14_4 Cd4_3 1_555 1_555
O15_3 C22_4 1_555 1_555
O16_3 Cd13_2 1_555 1_555
O17_3 Cd9_3 1_555 1_555
O18_4 Cd3_5 1_555 1_555
O19_4 Cd3_5 1_555 1_555
O20_3 C24_4 1_555 1_555
O21_3 Cd6_2 1_555 1_555
O22_3 Cd4_3 1_555 1_555
Cd6_2 O3_3 1_555 1_555
Cd13_2 O6_3 1_555 1_555
Cd3_5 O5_4 1_555 1_555
C22_4 O18_4 1_555 1_555
C23_4 N9_4 1_555 1_555
C24_4 O19_4 1_555 1_555
C25_4 N10_4 1_555 1_555
Cd4_3 O15_3 1_555 1_555
Cd5_3 O16_3 1_555 1_555
Cd6 O20_3 1_555 1_555
Cd9_3 N10_4 1_555 1_555
Cd9_3 O20_3 1_555 1_555
Cd12_3 O21_3 1_555 1_555
Cd13 O22_3 1_555 1_555
C1_4 C2_4 1_555 1_555
C2_4 N1_2 1_555 1_555
C3_4 H1_4 1_555 1_555
C4_5 C5_5 1_555 1_555
C5_5 N2_5 1_555 1_555
C6_6 H2_6 1_555 1_555
Cd8 N2_5 1_555 1_555
Cd3_6 O4_5 1_555 1_555
N1_2 C3_4 1_555 1_555
N2_5 C6_6 1_555 1_555
O1_2 C1_4 1_555 1_555
O2_4 C1_4 1_555 1_555
O3_4 C4_5 1_555 1_555
O4_5 C4_5 1_555 1_555
O7_6 Cd3_6 1_555 1_555
C20_4 C21_4 1_555 1_555
C21_4 C2_4 1_555 1_555
C22_5 C23_5 1_555 1_555
C23_5 C5_5 1_555 1_555
Cd4_4 N9_5 1_555 1_555
Cd7_2 O9_4 1_555 1_555
Cd11 N1_2 1_555 1_555
Cd12_4 O3_4 1_555 1_555
Cd14_2 N6_4 1_555 1_555
Cd11_2 O15_4 1_555 1_555
N6_4 C3_4 1_555 1_555
N9_5 C6_6 1_555 1_555
N12_5 Cd4_4 1_555 1_555
O9_4 C20_4 1_555 1_555
O11_2 Cd4_4 1_555 1_555
O13_4 C20_4 1_555 1_555
O14_5 Cd4_4 1_555 1_555
O15_4 C22_5 1_555 1_555
O18_5 Cd3_6 1_555 1_555
O21_4 Cd8 1_555 1_555
O22_4 Cd4_4 1_555 1_555
Cd8 O1_2 1_555 1_555
Cd8 O2_4 1_555 1_555
Cd8 O3_4 1_555 1_555
O1_2 Cd11 1_555 1_555
C21_4 N6_4 1_555 1_555
C22_5 O18_5 1_555 1_555
C23_5 N9_5 1_555 1_555
Cd4_4 O15_4 1_555 1_555
Cd7_2 O13_4 1_555 1_555
Cd12_4 O21_4 1_555 1_555
Cd14_2 O9_4 1_555 1_555
Cd11_2 O22_4 1_555 1_555
C7_5 C8_5 1_555 1_555
C8_5 N3_5 1_555 1_555
C9_6 H3_6 1_555 1_555
Cd11 N3_5 1_555 1_555
N3_5 C9_6 1_555 1_555
O5_5 C7_5 1_555 1_555
O6_4 C7_5 1_555 1_555
C24_5 C25_5 1_555 1_555
C25_5 C8_5 1_555 1_555
Cd5_4 O6_4 1_555 1_555
Cd8_2 O17_4 1_555 1_555
Cd9_4 N8_5 1_555 1_555
N10_5 C9_6 1_555 1_555
N14_5 Cd9_4 1_555 1_555
O11_2 Cd9_4 1_555 1_555
O16_4 Cd11 1_555 1_555
O17_4 Cd9_4 1_555 1_555
O20_4 C24_5 1_555 1_555
Cd11 O6_4 1_555 1_555
C24_5 O19_5 1_555 1_555
C25_5 N10_5 1_555 1_555
Cd5_4 O16_4 1_555 1_555
Cd8_2 O20_4 1_555 1_555
Cd9_4 N10_5 1_555 1_555
Cd9_4 O20_4 1_555 1_555
O8_6 H23_3 1_555 1_555
C4_6 C5_6 1_555 1_555
C5_6 N2_6 1_555 1_555
C6_7 H2_7 1_555 1_555
C10_4 H4_4 1_555 1_555
C11_4 H5_4 1_555 1_555
C14_4 C10_4 1_555 1_555
H6_4 C14_4 1_555 1_555
C15_4 C11_4 1_555 1_555
H7_4 C15_4 1_555 1_555
Cd7_2 N2_6 1_555 1_555
Cd3_7 O4_6 1_555 1_555
N2_6 C6_7 1_555 1_555
N4_4 C10_4 1_555 1_555
O17_2 C4_6 1_555 1_555
O4_6 C4_6 1_555 1_555
O7_7 Cd3_7 1_555 1_555
C11_4 N4_4 1_555 1_555
C12_4 C14_4 1_555 1_555
C12_4 C15_4 1_555 1_555
Cd7_2 N4_4 1_555 1_555
O7_7 H20_2 1_555 1_555
C13_4 C17_4 1_555 1_555
C16_4 H8_4 1_555 1_555
C17_4 C16_4 1_555 1_555
H9_4 C17_4 1_555 1_555
C18_4 H10_4 1_555 1_555
C19_4 C13_4 1_555 1_555
H11_4 C19_4 1_555 1_555
N5_4 C16_4 1_555 1_555
Cd13 N5_4 1_555 1_555
C18_4 C19_4 1_555 1_555
C18_4 N5_4 1_555 1_555
C7_6 C8_6 1_555 1_555
C8_6 N3_6 1_555 1_555
C9_7 H3_7 1_555 1_555
Cd14_2 N3_6 1_555 1_555
N3_6 C9_7 1_555 1_555
O5_6 C7_6 1_555 1_555
O22_2 C7_6 1_555 1_555
C29_4 C33_4 1_555 1_555
C32_4 H16_4 1_555 1_555
C33_4 C32_4 1_555 1_555
H17_4 C33_4 1_555 1_555
C34_4 H18_4 1_555 1_555
C35_4 C29_4 1_555 1_555
H19_4 C35_4 1_555 1_555
N13_4 Cd14_2 1_555 1_555
C32_4 N13_4 1_555 1_555
C34_4 C35_4 1_555 1_555
C34_4 N13_4 1_555 1_555
C26_4 H12_4 1_555 1_555
C27_4 H13_4 1_555 1_555
C30_4 C26_4 1_555 1_555
H14_4 C30_4 1_555 1_555
C31_4 C27_4 1_555 1_555
H15_4 C31_4 1_555 1_555
Cd6 N11_4 1_555 1_555
N11_4 C26_4 1_555 1_555
C27_4 N11_4 1_555 1_555
C28_4 C30_4 1_555 1_555
C28_4 C31_4 1_555 1_555
C6_8 H2_8 1_555 1_555
O7_8 Cd3_8 1_555 1_555
C22_6 C23_6 1_555 1_555
Cd5_2 N9_6 1_555 1_555
N9_6 C6_8 1_555 1_555
N12_6 Cd5_2 1_555 1_555
O11_3 Cd5_2 1_555 1_555
O14_6 Cd5_2 1_555 1_555
O16_2 C22_6 1_555 1_555
O18_6 Cd3_8 1_555 1_555
C22_6 O18_6 1_555 1_555
C23_6 N9_6 1_555 1_555
O7_8 H21_2 1_555 1_555
C9_8 H3_8 1_555 1_555
C24_6 C25_6 1_555 1_555
Cd12_2 N8_6 1_555 1_555
N10_6 C9_8 1_555 1_555
N14_6 Cd12_2 1_555 1_555
O11_3 Cd12_2 1_555 1_555
O21_2 C24_6 1_555 1_555
C24_6 O19_6 1_555 1_555
C25_6 N10_6 1_555 1_555
Cd12_2 N10_6 1_555 1_555
O8_8 H23_4 1_555 1_555
C7_7 C8_7 1_555 1_555
C8_7 N3_7 1_555 1_555
C9_9 H3_9 1_555 1_555
Cd13 N3_7 1_555 1_555
N3_7 C9_9 1_555 1_555
O5_7 C7_7 1_555 1_555
O22_3 C7_7 1_555 1_555
C4_7 C5_7 1_555 1_555
C5_7 N2_7 1_555 1_555
C6_9 H2_9 1_555 1_555
Cd6 N2_7 1_555 1_555
Cd3_9 O4_7 1_555 1_555
N2_7 C6_9 1_555 1_555
O17_3 C4_7 1_555 1_555
O4_7 C4_7 1_555 1_555
O7_9 Cd3_9 1_555 1_555
O7_9 H20_3 1_555 1_555
C9_10 H3_10 1_555 1_555
C24_7 C25_7 1_555 1_555
Cd12_3 N8_7 1_555 1_555
N10_7 C9_10 1_555 1_555
N14_7 Cd12_3 1_555 1_555
O12_4 Cd12_3 1_555 1_555
O21_3 C24_7 1_555 1_555
C24_7 O19_7 1_555 1_555
C25_7 N10_7 1_555 1_555
Cd12_3 N10_7 1_555 1_555
O8_10 H23_5 1_555 1_555
C6_10 H2_10 1_555 1_555
O7_10 Cd3_10 1_555 1_555
C22_7 C23_7 1_555 1_555
Cd5_3 N9_7 1_555 1_555
N9_7 C6_10 1_555 1_555
N12_7 Cd5_3 1_555 1_555
O12_4 Cd5_3 1_555 1_555
O14_7 Cd5_3 1_555 1_555
O16_3 C22_7 1_555 1_555
O18_7 Cd3_10 1_555 1_555
C22_7 O18_7 1_555 1_555
C23_7 N9_7 1_555 1_555
O7_10 H21_3 1_555 1_555
C6_11 H2_11 1_555 1_555
C9_11 H3_11 1_555 1_555
O7_11 Cd3_11 1_555 1_555
O8_11 Cd3_11 1_555 1_555
C22_8 C23_8 1_555 1_555
C24_8 C25_8 1_555 1_555
Cd5_4 N9_8 1_555 1_555
Cd12_4 N8_8 1_555 1_555
N9_8 C6_11 1_555 1_555
N10_8 C9_11 1_555 1_555
N12_8 Cd5_4 1_555 1_555
N14_8 Cd12_4 1_555 1_555
O11_4 Cd12_4 1_555 1_555
O14_8 Cd5_4 1_555 1_555
O16_4 C22_8 1_555 1_555
O18_8 Cd3_11 1_555 1_555
O19_8 Cd3_11 1_555 1_555
O21_4 C24_8 1_555 1_555
C22_8 O18_8 1_555 1_555
C23_8 N9_8 1_555 1_555
C24_8 O19_8 1_555 1_555
C25_8 N10_8 1_555 1_555
Cd12_4 N10_8 1_555 1_555
O7_11 H21_4 1_555 1_555
O8_11 H22_6 1_555 1_555
O8_11 H23_6 1_555 1_555
C4_8 C5_8 1_555 1_555
C5_8 N2_8 1_555 1_555
C6_12 H2_12 1_555 1_555
C7_8 C8_8 1_555 1_555
C8_8 N3_8 1_555 1_555
C9_12 H3_12 1_555 1_555
Cd8_2 N2_8 1_555 1_555
Cd11_2 N3_8 1_555 1_555
Cd3_12 O4_8 1_555 1_555
N2_8 C6_12 1_555 1_555
N3_8 C9_12 1_555 1_555
O17_4 C4_8 1_555 1_555
O4_8 C4_8 1_555 1_555
O5_8 C7_8 1_555 1_555
O22_4 C7_8 1_555 1_555
O7_12 Cd3_12 1_555 1_555
O8_12 Cd3_12 1_555 1_555
Cd3_12 O5_8 1_555 1_555
O7_12 H20_4 1_555 1_555
C1_5 C2_5 1_555 1_555
C2_5 N8_5 1_555 1_555
C3_5 H1_5 1_555 1_555
C10_5 H4_5 1_555 1_555
C11_5 H5_5 1_555 1_555
C12_5 C13_5 1_555 1_555
C13_5 C17_5 1_555 1_555
C14_5 C10_5 1_555 1_555
H6_5 C14_5 1_555 1_555
C15_5 C11_5 1_555 1_555
H7_5 C15_5 1_555 1_555
C16_5 H8_5 1_555 1_555
C17_5 C16_5 1_555 1_555
H9_5 C17_5 1_555 1_555
C18_5 H10_5 1_555 1_555
C19_5 C13_5 1_555 1_555
H11_5 C19_5 1_555 1_555
N8_5 C3_5 1_555 1_555
N12_5 C10_5 1_555 1_555
N14 C16_5 1_555 1_555
O11_2 C1_5 1_555 1_555
O14_5 C1_5 1_555 1_555
C20_5 C21_5 1_555 1_555
C21_5 C2_5 1_555 1_555
N8_6 C3_5 1_555 1_555
O11_3 C20_5 1_555 1_555
O14_6 C20_5 1_555 1_555
C11_5 N12_5 1_555 1_555
C12_5 C14_5 1_555 1_555
C12_5 C15_5 1_555 1_555
C18_5 C19_5 1_555 1_555
C18_5 N14 1_555 1_555
C21_5 N8_6 1_555 1_555
C26_5 H12_5 1_555 1_555
C27_5 H13_5 1_555 1_555
C28_5 C29_5 1_555 1_555
C29_5 C33_5 1_555 1_555
C30_5 C26_5 1_555 1_555
H14_5 C30_5 1_555 1_555
C31_5 C27_5 1_555 1_555
H15_5 C31_5 1_555 1_555
C32_5 H16_5 1_555 1_555
C33_5 C32_5 1_555 1_555
H17_5 C33_5 1_555 1_555
C34_5 H18_5 1_555 1_555
C35_5 C29_5 1_555 1_555
H19_5 C35_5 1_555 1_555
N12 C26_5 1_555 1_555
C27_5 N12 1_555 1_555
C28_5 C30_5 1_555 1_555
C28_5 C31_5 1_555 1_555
C32_5 N14_5 1_555 1_555
C34_5 C35_5 1_555 1_555
C34_5 N14_5 1_555 1_555
O8_6 H23_7 1_555 1_555
C1_6 C2_6 1_555 1_555
C2_6 N8_8 1_555 1_555
C3_6 H1_6 1_555 1_555
N8_8 C3_6 1_555 1_555
O11_4 C1_6 1_555 1_555
C20_6 C21_6 1_555 1_555
C21_6 C2_6 1_555 1_555
N8_3 C3_6 1_555 1_555
O11 C20_6 1_555 1_555
C21_6 N8_3 1_555 1_555
C10_6 H4_6 1_555 1_555
C11_6 H5_6 1_555 1_555
C12_6 C13_6 1_555 1_555
C13_6 C17_6 1_555 1_555
C14_6 C10_6 1_555 1_555
H6_6 C14_6 1_555 1_555
C15_6 C11_6 1_555 1_555
H7_6 C15_6 1_555 1_555
C16_6 H8_6 1_555 1_555
C17_6 C16_6 1_555 1_555
H9_6 C17_6 1_555 1_555
C18_6 H10_6 1_555 1_555
C19_6 C13_6 1_555 1_555
H11_6 C19_6 1_555 1_555
N12_8 C10_6 1_555 1_555
N14_2 C16_6 1_555 1_555
C26_6 H12_6 1_555 1_555
C27_6 H13_6 1_555 1_555
C28_6 C29_6 1_555 1_555
C29_6 C33_6 1_555 1_555
C30_6 C26_6 1_555 1_555
H14_6 C30_6 1_555 1_555
C31_6 C27_6 1_555 1_555
H15_6 C31_6 1_555 1_555
C32_6 H16_6 1_555 1_555
C33_6 C32_6 1_555 1_555
H17_6 C33_6 1_555 1_555
C34_6 H18_6 1_555 1_555
C35_6 C29_6 1_555 1_555
H19_6 C35_6 1_555 1_555
N12_2 C26_6 1_555 1_555
C11_6 N12_8 1_555 1_555
C12_6 C14_6 1_555 1_555
C12_6 C15_6 1_555 1_555
C18_6 C19_6 1_555 1_555
C18_6 N14_2 1_555 1_555
C27_6 N12_2 1_555 1_555
C28_6 C30_6 1_555 1_555
C28_6 C31_6 1_555 1_555
C32_6 N14_8 1_555 1_555
C34_6 C35_6 1_555 1_555
C34_6 N14_8 1_555 1_555
O7_11 H20_5 1_555 1_555
O7_12 H21_5 1_555 1_555
O8_12 H22_8 1_555 1_555
O8_12 H23_8 1_555 1_555
C13_7 C17_7 1_555 1_555
C16_7 H8_7 1_555 1_555
C17_7 C16_7 1_555 1_555
H9_7 C17_7 1_555 1_555
C18_7 H10_7 1_555 1_555
C19_7 C13_7 1_555 1_555
H11_7 C19_7 1_555 1_555
N14_3 C16_7 1_555 1_555
C26_7 H12_7 1_555 1_555
C27_7 H13_7 1_555 1_555
C30_7 C26_7 1_555 1_555
H14_7 C30_7 1_555 1_555
C31_7 C27_7 1_555 1_555
H15_7 C31_7 1_555 1_555
N12_3 C26_7 1_555 1_555
C18_7 C19_7 1_555 1_555
C18_7 N14_3 1_555 1_555
C27_7 N12_3 1_555 1_555
C28_7 C30_7 1_555 1_555
C28_7 C31_7 1_555 1_555
C10_7 H4_7 1_555 1_555
C11_7 H5_7 1_555 1_555
C14_7 C10_7 1_555 1_555
H6_7 C14_7 1_555 1_555
C15_7 C11_7 1_555 1_555
H7_7 C15_7 1_555 1_555
N12_4 C10_7 1_555 1_555
C29_7 C33_7 1_555 1_555
C32_7 H16_7 1_555 1_555
C33_7 C32_7 1_555 1_555
H17_7 C33_7 1_555 1_555
C34_7 H18_7 1_555 1_555
C35_7 C29_7 1_555 1_555
H19_7 C35_7 1_555 1_555
C11_7 N12_4 1_555 1_555
C12_7 C14_7 1_555 1_555
C12_7 C15_7 1_555 1_555
C32_7 N14_4 1_555 1_555
C34_7 C35_7 1_555 1_555
C34_7 N14_4 1_555 1_555
C1_7 C2_7 1_555 1_555
C2_7 N8_4 1_555 1_555
C3_7 H1_7 1_555 1_555
N8_4 C3_7 1_555 1_555
O12_3 C1_7 1_555 1_555
C20_7 C21_7 1_555 1_555
C21_7 C2_7 1_555 1_555
N8_2 C3_7 1_555 1_555
O12_2 C20_7 1_555 1_555
C21_7 N8_2 1_555 1_555
O8 H23_9 1_555 1_555
C1_8 C2_8 1_555 1_555
C2_8 N8 1_555 1_555
C3_8 H1_8 1_555 1_555
N8 C3_8 1_555 1_555
O12 C1_8 1_555 1_555
O14 C1_8 1_555 1_555
C20_8 C21_8 1_555 1_555
C21_8 C2_8 1_555 1_555
N8_7 C3_8 1_555 1_555
O12_4 C20_8 1_555 1_555
O14_7 C20_8 1_555 1_555
C21_8 N8_7 1_555 1_555
O8_9 H23_10 1_555 1_555
O7_9 H21_6 1_555 1_555
C26_8 H12_8 1_555 1_555
C27_8 H13_8 1_555 1_555
C30_8 C26_8 1_555 1_555
H14_8 C30_8 1_555 1_555
C31_8 C27_8 1_555 1_555
H15_8 C31_8 1_555 1_555
N12_6 C26_8 1_555 1_555
C27_8 N12_6 1_555 1_555
C28_8 C30_8 1_555 1_555
C28_8 C31_8 1_555 1_555
C29_8 C33_8 1_555 1_555
C32_8 H16_8 1_555 1_555
C33_8 C32_8 1_555 1_555
H17_8 C33_8 1_555 1_555
C34_8 H18_8 1_555 1_555
C35_8 C29_8 1_555 1_555
H19_8 C35_8 1_555 1_555
C32_8 N14_7 1_555 1_555
C34_8 C35_8 1_555 1_555
C34_8 N14_7 1_555 1_555
C13_8 C17_8 1_555 1_555
C16_8 H8_8 1_555 1_555
C17_8 C16_8 1_555 1_555
H9_8 C17_8 1_555 1_555
C18_8 H10_8 1_555 1_555
C19_8 C13_8 1_555 1_555
H11_8 C19_8 1_555 1_555
N14_6 C16_8 1_555 1_555
C18_8 C19_8 1_555 1_555
C18_8 N14_6 1_555 1_555
C10_8 H4_8 1_555 1_555
C11_8 H5_8 1_555 1_555
C14_8 C10_8 1_555 1_555
H6_8 C14_8 1_555 1_555
C15_8 C11_8 1_555 1_555
H7_8 C15_8 1_555 1_555
N12_7 C10_8 1_555 1_555
C11_8 N12_7 1_555 1_555
C12_8 C14_8 1_555 1_555
C12_8 C15_8 1_555 1_555
O7_10 H20_6 1_555 1_555
O7_7 H21_7 1_555 1_555
O8_7 H23_11 1_555 1_555
O7_8 H20_7 1_555 1_555
O7_2 H20_8 1_555 1_555
O7_3 H21_8 1_555 1_555
O8_3 H22_12 1_555 1_555
O8_3 H23_12 1_555 1_555
N15 O23 1_555 1_555
O24 N15 1_555 1_555
O25 N15 1_555 1_555
N15_2 O23_2 1_555 1_555
O24_2 N15_2 1_555 1_555
O25_2 N15_2 1_555 1_555
N15_3 O23_3 1_555 1_555
O24_3 N15_3 1_555 1_555
O25_3 N15_3 1_555 1_555
N15_4 O23_4 1_555 1_555
O25_4 N15_4 1_555 1_555
N15_5 O23_5 1_555 1_555
O25_5 N15_5 1_555 1_555
N15_6 O23_6 1_555 1_555
O25_6 N15_6 1_555 1_555
N15_7 O23_7 1_555 1_555
O25_7 N15_7 1_555 1_555
N15_8 O23_8 1_555 1_555
O24_8 N15_8 1_555 1_555
O25_8 N15_8 1_555 1_555
N15_9 O23_9 1_555 1_555
O24_9 N15_9 1_555 1_555
O25_9 N15_9 1_555 1_555
N15_10 O23_10 1_555 1_555
O25_10 N15_10 1_555 1_555
N15_11 O23_11 1_555 1_555
O25_11 N15_11 1_555 1_555
N15_12 O23_12 1_555 1_555
O24_12 N15_12 1_555 1_555
O25_12 N15_12 1_555 1_555

#END
