
###############################################################################
#
# This file contains modified crystal structure data generated from the
# MOF subset of the Cambridge Structural Database (CSD) v543 
# hosted by the Cambridge Crystallographic Data Centre (CCDC).
#
# This work is licensed under the Creative Commons
# Attribution-NonCommercial-ShareAlike 4.0 International License.
# To view a copy of this license, visit
# http://creativecommons.org/licenses/by-nc-sa/4.0/
# or send a letter to
# Creative Commons, PO Box 1866, Mountain View, CA 94042, USA.
#
# CIF created using the CSD Python API on 29 September 2022
# The structure has been converted into the P1 space group
# The structure has a 3D framework
# The original CSD entry UFATEA01 is in the orthorhombic crystal system
# The framework has been calculated to contain at least 10.0% void space
# The void calculation uses a probe of radius 1.32A, grid spacing 0.4
#
###############################################################################

data_UFATEA01
_chemical_formula_moiety         '(C24 H16 N4 Ni2 O6)n'
_symmetry_cell_setting           triclinic
_symmetry_space_group_name_H-M   'P 1'
_symmetry_Int_Tables_number      1
_space_group_name_Hall           'P 1'
loop_
_symmetry_equiv_pos_site_id
_symmetry_equiv_pos_as_xyz
1 x,y,z
_cell_length_a                   12.4966(14)
_cell_length_b                   6.3559(7)
_cell_length_c                   10.3785(12)
_cell_angle_alpha                90
_cell_angle_beta                 90
_cell_angle_gamma                90
_cell_volume                     824.335
loop_
_atom_site_label
_atom_site_type_symbol
_atom_site_fract_x
_atom_site_fract_y
_atom_site_fract_z
Ni3 Ni -0.000 0.5 0.4521(3)
H1 H 0.7501 0.0029 0.3243
H2 H 0.6211 0.1247 0.1907
N2 N 0.3967(6) 0.1274(10) 0.0877(7)
O3 O 0.1055(4) 0.2564(8) 0.4107(5)
O4 O 0.1161(6) 0.5576(10) 0.3069(6)
C7 C 0.1515(6) 0.3714(12) 0.3256(9)
C8 C 0.2377(6) 0.2841(12) 0.2423(8)
C9 C 0.2767(7) 0.0828(13) 0.2592(9)
C10 C 0.3542(7) 0.0122(11) 0.1798(11)
C11 C 0.3614(7) 0.3280(12) 0.0696(8)
H7 H 0.391 0.4099 0.0045
C12 C 0.2821(6) 0.4108(13) 0.1473(9)
H8 H 0.2589 0.5486 0.1361
Ni1 Ni 0.500 1.0 0.9521(3)
O5 O 0.3945(4) 0.7564(8) 0.9107(5)
O8 O 0.6161(6) 0.9424(10) 0.8069(6)
N1 N 0.1033(6) 0.6274(10) 0.5877(7)
C1 C 0.3485(6) 0.8714(12) 0.8256(9)
C2 C 0.2623(6) 0.7841(12) 0.7423(8)
C3 C 0.2233(7) 0.5828(13) 0.7592(9)
H1_2 H 0.2501 0.4971 0.8243
C4 C 0.1458(7) 0.5122(11) 0.6798(11)
H2_2 H 0.1211 0.3753 0.6907
C5 C 0.1386(7) 0.8280(12) 0.5696(8)
H3 H 0.109 0.9099 0.5045
C6 C 0.2179(6) 0.9108(13) 0.6473(9)
H8_2 H 0.7589 0.9514 0.6361
Ni1_2 Ni 0.500 0.0 0.9521(3)
O6 O 0.6055(4) 0.2436(8) 0.9107(5)
O7 O 0.3839(6) 0.0576(10) 0.8069(6)
N1_2 N 0.6033(6) 0.8726(10) 0.0877(7)
O1 O 0.8945(4) 0.7436(8) 0.4107(5)
O2 O 0.8839(6) 0.4424(10) 0.3069(6)
C1_2 C 0.8485(6) 0.6286(12) 0.3256(9)
C2_2 C 0.7623(6) 0.7159(12) 0.2423(8)
C3_2 C 0.7233(7) 0.9172(13) 0.2592(9)
C4_2 C 0.6458(7) 0.9878(11) 0.1798(11)
C5_2 C 0.6386(7) 0.6720(12) 0.0696(8)
H3_2 H 0.609 0.5901 0.0045
C6_2 C 0.7179(6) 0.5892(13) 0.1473(9)
H4 H 0.7411 0.4514 0.1361
H5 H 0.2499 0.9971 0.3243
H6 H 0.3789 0.8753 0.1907
Ni3_2 Ni 1.000 0.5 0.4521(3)
H4_2 H 0.2411 0.0486 0.6361
N2_2 N 0.8967(6) 0.3726(10) 0.5877(7)
C7_2 C 0.6515(6) 0.1286(12) 0.8256(9)
C8_2 C 0.7377(6) 0.2159(12) 0.7423(8)
C9_2 C 0.7767(7) 0.4172(13) 0.7592(9)
H5_2 H 0.7499 0.5029 0.8243
C10_2 C 0.8542(7) 0.4878(11) 0.6798(11)
H6_2 H 0.8789 0.6247 0.6907
C11_2 C 0.8614(7) 0.1720(12) 0.5696(8)
H7_2 H 0.891 0.0901 0.5045
C12_2 C 0.7821(6) 0.0892(13) 0.6473(9)
loop_
_geom_bond_atom_site_label_1
_geom_bond_atom_site_label_2
_geom_bond_site_symmetry_1
_geom_bond_site_symmetry_2
O3 C7 1_555 1_555
O4 C7 1_555 1_555
C7 C8 1_555 1_555
C8 C9 1_555 1_555
C10 N2 1_555 1_555
C11 N2 1_555 1_555
H7 C11 1_555 1_555
C12 C8 1_555 1_555
H8 C12 1_555 1_555
Ni3 O3 1_555 1_555
O4 Ni3 1_555 1_555
C9 C10 1_555 1_555
C11 C12 1_555 1_555
O5 Ni1 1_555 1_555
O8 Ni1 1_555 1_555
Ni3 N1 1_555 1_555
N1 C4 1_555 1_555
O5 C1 1_555 1_555
C1 C2 1_555 1_555
C2 C3 1_555 1_555
C3 H1_2 1_555 1_555
C4 C3 1_555 1_555
H2_2 C4 1_555 1_555
C5 N1 1_555 1_555
H3 C5 1_555 1_555
C6 C2 1_555 1_555
C5 C6 1_555 1_555
O6 Ni1_2 1_555 1_555
O7 Ni1_2 1_555 1_555
N1_2 C4_2 1_555 1_555
O1 C1_2 1_555 1_555
O2 C1_2 1_555 1_555
C1_2 C2_2 1_555 1_555
C2_2 C3_2 1_555 1_555
C4_2 C3_2 1_555 1_555
C5_2 N1_2 1_555 1_555
H3_2 C5_2 1_555 1_555
C6_2 C2_2 1_555 1_555
H4 C6_2 1_555 1_555
Ni3_2 O1 1_555 1_555
O2 Ni3_2 1_555 1_555
C5_2 C6_2 1_555 1_555
N2_2 Ni3_2 1_555 1_555
O6 C7_2 1_555 1_555
C7_2 C8_2 1_555 1_555
C8_2 C9_2 1_555 1_555
C9_2 H5_2 1_555 1_555
C10_2 N2_2 1_555 1_555
H6_2 C10_2 1_555 1_555
C11_2 N2_2 1_555 1_555
H7_2 C11_2 1_555 1_555
C12_2 C8_2 1_555 1_555
C9_2 C10_2 1_555 1_555
C11_2 C12_2 1_555 1_555

#END
