
###############################################################################
#
# This file contains modified crystal structure data generated from the
# MOF subset of the Cambridge Structural Database (CSD) v543 
# hosted by the Cambridge Crystallographic Data Centre (CCDC).
#
# This work is licensed under the Creative Commons
# Attribution-NonCommercial-ShareAlike 4.0 International License.
# To view a copy of this license, visit
# http://creativecommons.org/licenses/by-nc-sa/4.0/
# or send a letter to
# Creative Commons, PO Box 1866, Mountain View, CA 94042, USA.
#
# CIF created using the CSD Python API on 29 September 2022
# The structure has been converted into the P1 space group
# The structure has a 3D framework
# The original CSD entry UFEVIL is in the monoclinic crystal system
# The framework has been calculated to contain at least 10.0% void space
# The void calculation uses a probe of radius 1.32A, grid spacing 0.4
#
###############################################################################

data_UFEVIL
_chemical_formula_moiety         '(C176 H192 Cd8 N48 O32)n'
_symmetry_cell_setting           triclinic
_symmetry_space_group_name_H-M   'P 1'
_symmetry_Int_Tables_number      1
_space_group_name_Hall           'P 1'
loop_
_symmetry_equiv_pos_site_id
_symmetry_equiv_pos_as_xyz
1 x,y,z
_cell_length_a                   14.294(2)
_cell_length_b                   17.334(3)
_cell_length_c                   22.245(2)
_cell_angle_alpha                90
_cell_angle_beta                 99.827(8)
_cell_angle_gamma                90
_cell_volume                     5430.82
loop_
_atom_site_label
_atom_site_type_symbol
_atom_site_fract_x
_atom_site_fract_y
_atom_site_fract_z
O7 O 0.23482(13) 0.02652(11) 0.69980(8)
O8 O 0.08423(15) 0.02891(12) 0.65883(9)
N11 N 0.33304(14) 0.00360(11) 0.58386(9)
C43 C 0.15199(19) 0.05455(14) 0.69513(11)
C44 C 0.1390(2) 0.12241(18) 0.73485(14)
H46 H 0.1474 0.1703 0.7130
H47 H 0.1862 0.1201 0.7724
H48 H 0.0751 0.1211 0.7451
H20 H 0.0014 0.2831 0.6806
Cd2 Cd 0.226030(12) 0.927675(10) 0.632563(7)
O5 O 0.36359(12) 0.86667(10) 0.67540(8)
O6 O 0.31044(15) 0.80986(11) 0.58793(8)
N8 N 0.11480(14) 0.91002(12) 0.55030(9)
N15 N 0.15699(16) 0.84251(13) 0.69417(9)
C30 C 0.02317(17) 0.90615(14) 0.55110(11)
C31 C 0.12370(18) 0.90115(15) 0.49003(11)
H31 H 0.1820 0.9011 0.4749
C32 C 0.03684(18) 0.89255(15) 0.45577(11)
H32 H 0.0227 0.8861 0.4128
H34 H 0.0012 0.6135 0.4703
H37 H 0.0113 0.6133 0.5917
C41 C 0.37010(19) 0.81537(15) 0.63611(12)
C42 C 0.4515(3) 0.7602(2) 0.65013(16)
H43 H 0.4296 0.7121 0.6662
H44 H 0.5014 0.7831 0.6806
H45 H 0.4769 0.7493 0.6128
Cd1 Cd 0.726030(12) 0.427675(10) 0.632563(7)
O1 O 0.86359(12) 0.36667(10) 0.67540(8)
O2 O 0.81044(15) 0.30986(11) 0.58793(8)
O3 O 0.73482(13) 0.52652(11) 0.69980(8)
O4 O 0.58423(15) 0.52891(12) 0.65883(9)
N1 N 0.47307(14) 0.39500(11) 0.49537(9)
N2 N 0.61480(14) 0.41002(12) 0.55030(9)
N3 N 0.41298(14) 0.06474(11) 0.52163(9)
N5 N 0.13950(14) 0.20887(11) 0.28224(9)
N6 N 0.15699(16) 0.15749(13) 0.19417(9)
C1 C 0.34379(16) 0.30490(13) 0.45328(10)
C2 C 0.39990(16) 0.24057(13) 0.46974(10)
H1 H 0.4576 0.2457 0.4978
C3 C 0.37227(16) 0.16829(13) 0.44534(10)
C4 C 0.28743(17) 0.16081(13) 0.40505(11)
H2 H 0.2689 0.1116 0.3883
C5 C 0.22899(16) 0.22430(13) 0.38870(10)
C6 C 0.25843(16) 0.29614(13) 0.41269(10)
H3 H 0.2197 0.3401 0.4012
C7 C 0.37078(17) 0.38434(14) 0.47897(12)
H4 H 0.3449 0.4237 0.4483
H5 H 0.3413 0.3926 0.5156
C8 C 0.52317(17) 0.40615(14) 0.55110(11)
H6 H 0.4959 0.4107 0.5870
C9 C 0.62370(18) 0.40115(15) 0.49003(11)
H7 H 0.6820 0.4011 0.4749
C10 C 0.53684(18) 0.39255(15) 0.45577(11)
H8 H 0.5227 0.3861 0.4128
C11 C 0.43347(18) 0.09841(14) 0.46462(12)
H9 H 0.4223 0.0591 0.4319
H10 H 0.5012 0.1135 0.4703
C12 C 0.33889(17) 0.01830(13) 0.52626(11)
C13 C 0.40775(18) 0.04295(14) 0.61735(12)
H12 H 0.4226 0.0432 0.6606
C14 C 0.45723(18) 0.08139(14) 0.57995(12)
H13 H 0.5113 0.1133 0.5917
C15 C 0.13379(18) 0.21479(15) 0.34727(11)
H14 H 0.1026 0.1678 0.3597
H15 H 0.0931 0.2594 0.3533
C16 C 0.1535(2) 0.14414(15) 0.25206(11)
H16 H 0.1601 0.0944 0.2703
C17 C 0.1431(2) 0.23528(16) 0.18699(12)
H17 H 0.1412 0.2625 0.1497
C18 C 0.1323(2) 0.26773(16) 0.24042(13)
H18 H 0.1219 0.3208 0.2477
C19 C 0.87010(19) 0.31537(15) 0.63611(12)
C20 C 0.9515(3) 0.2602(2) 0.65013(16)
H19 H 0.9296 0.2121 0.6662
H21 H 0.9769 0.2493 0.6128
C21 C 0.65199(19) 0.55455(14) 0.69513(11)
C22 C 0.6390(2) 0.62241(18) 0.73485(14)
H22 H 0.6474 0.6703 0.7130
H23 H 0.6862 0.6201 0.7724
H24 H 0.5751 0.6211 0.7451
Cd4 Cd 0.226030(12) 0.072325(10) 0.132563(7)
Cd5 Cd 0.726030(12) 0.572325(10) 0.132563(7)
N7 N 0.97307(14) 0.89500(11) 0.49537(9)
N9 N 0.91298(14) 0.56474(11) 0.52163(9)
N10 N 0.83304(14) 0.50360(11) 0.58386(9)
N12 N 0.63950(14) 0.70887(11) 0.28224(9)
N13 N 0.65699(16) 0.65749(13) 0.19417(9)
N14 N 0.65699(16) 0.34251(13) 0.69417(9)
C23 C 0.84379(16) 0.80490(13) 0.45328(10)
C24 C 0.89990(16) 0.74057(13) 0.46974(10)
H25 H 0.9576 0.7457 0.4978
C25 C 0.87227(16) 0.66829(13) 0.44534(10)
C26 C 0.78743(17) 0.66081(13) 0.40505(11)
H26 H 0.7689 0.6116 0.3883
C27 C 0.72899(16) 0.72430(13) 0.38870(10)
C28 C 0.75843(16) 0.79614(13) 0.41269(10)
H27 H 0.7197 0.8401 0.4012
C29 C 0.87078(17) 0.88434(14) 0.47897(12)
H28 H 0.8449 0.9237 0.4483
H29 H 0.8413 0.8926 0.5156
H30 H 0.9959 0.9107 0.5870
C33 C 0.93347(18) 0.59841(14) 0.46462(12)
H33 H 0.9223 0.5591 0.4319
C34 C 0.83889(17) 0.51830(13) 0.52626(11)
H35 H 0.7961 0.4986 0.4923
C35 C 0.90775(18) 0.54295(14) 0.61735(12)
H36 H 0.9226 0.5432 0.6606
C36 C 0.95723(18) 0.58139(14) 0.57995(12)
C37 C 0.63379(18) 0.71479(15) 0.34727(11)
H38 H 0.6026 0.6678 0.3597
H39 H 0.5931 0.7594 0.3533
C38 C 0.6535(2) 0.64414(15) 0.25206(11)
H40 H 0.6601 0.5944 0.2703
C39 C 0.6431(2) 0.73528(16) 0.18699(12)
H41 H 0.6412 0.7625 0.1497
C40 C 0.6323(2) 0.76773(16) 0.24042(13)
H42 H 0.6219 0.8208 0.2477
H11 H 0.2961 0.9986 0.4923
H20_2 H 0.0014 0.7169 0.1806
O5_2 O 0.36359(12) 0.13333(10) 0.17540(8)
O6_2 O 0.31044(15) 0.19014(11) 0.08793(8)
N8_2 N 0.11480(14) 0.08998(12) 0.05030(9)
C30_2 C 0.02317(17) 0.09385(14) 0.05110(11)
H37_2 H 0.0113 0.3867 0.0917
C41_2 C 0.37010(19) 0.18463(15) 0.13611(12)
C42_2 C 0.4515(3) 0.2398(2) 0.15013(16)
H43_2 H 0.4296 0.2879 0.1662
H44_2 H 0.5014 0.2169 0.1806
H45_2 H 0.4769 0.2507 0.1128
O7_2 O 0.23482(13) 0.97348(11) 0.19980(8)
O8_2 O 0.08423(15) 0.97109(12) 0.15883(9)
N11_2 N 0.33304(14) 0.99640(11) 0.08386(9)
C43_2 C 0.15199(19) 0.94545(14) 0.19513(11)
C44_2 C 0.1390(2) 0.87759(18) 0.23485(14)
H46_2 H 0.1474 0.8297 0.2130
H47_2 H 0.1862 0.8799 0.2724
H48_2 H 0.0751 0.8789 0.2451
O1_2 O 0.86359(12) 0.63333(10) 0.17540(8)
O2_2 O 0.81044(15) 0.69014(11) 0.08793(8)
O3_2 O 0.73482(13) 0.47348(11) 0.19980(8)
O4_2 O 0.58423(15) 0.47109(12) 0.15883(9)
N2_2 N 0.61480(14) 0.58998(12) 0.05030(9)
N3_2 N 0.41298(14) 0.93526(11) 0.02163(9)
H5_2 H 0.3413 0.6074 0.0156
C8_2 C 0.52317(17) 0.59385(14) 0.05110(11)
H6_2 H 0.4959 0.5893 0.0870
C12_2 C 0.33889(17) 0.98170(13) 0.02626(11)
C13_2 C 0.40775(18) 0.95705(14) 0.11735(12)
H12_2 H 0.4226 0.9568 0.1606
C14_2 C 0.45723(18) 0.91861(14) 0.07995(12)
H13_2 H 0.5113 0.8867 0.0917
C19_2 C 0.87010(19) 0.68463(15) 0.13611(12)
C20_2 C 0.9515(3) 0.7398(2) 0.15013(16)
H19_2 H 0.9296 0.7879 0.1662
H21_2 H 0.9769 0.7507 0.1128
C21_2 C 0.65199(19) 0.44545(14) 0.19513(11)
C22_2 C 0.6390(2) 0.37759(18) 0.23485(14)
H22_2 H 0.6474 0.3297 0.2130
H23_2 H 0.6862 0.3799 0.2724
H24_2 H 0.5751 0.3789 0.2451
N9_2 N 0.91298(14) 0.43526(11) 0.02163(9)
N10_2 N 0.83304(14) 0.49640(11) 0.08386(9)
H29_2 H 0.8413 0.1074 0.0156
H30_2 H 0.9959 0.0893 0.0870
C34_2 C 0.83889(17) 0.48170(13) 0.02626(11)
C35_2 C 0.90775(18) 0.45705(14) 0.11735(12)
H36_2 H 0.9226 0.4568 0.1606
C36_2 C 0.95723(18) 0.41861(14) 0.07995(12)
N1_2 N 0.47307(14) 0.60500(11) 0.99537(9)
N5_2 N 0.13950(14) 0.79113(11) 0.78224(9)
C1_2 C 0.34379(16) 0.69510(13) 0.95328(10)
C2_2 C 0.39990(16) 0.75943(13) 0.96974(10)
H1_2 H 0.4576 0.7543 0.9978
C3_2 C 0.37227(16) 0.83171(13) 0.94534(10)
C4_2 C 0.28743(17) 0.83919(13) 0.90505(11)
H2_2 H 0.2689 0.8884 0.8883
C5_2 C 0.22899(16) 0.77570(13) 0.88870(10)
C6_2 C 0.25843(16) 0.70386(13) 0.91269(10)
H3_2 H 0.2197 0.6599 0.9012
C7_2 C 0.37078(17) 0.61566(14) 0.97897(12)
H4_2 H 0.3449 0.5763 0.9483
C9_2 C 0.62370(18) 0.59885(15) 0.99003(11)
H7_2 H 0.6820 0.5989 0.9749
C10_2 C 0.53684(18) 0.60745(15) 0.95577(11)
H8_2 H 0.5227 0.6139 0.9128
C11_2 C 0.43347(18) 0.90159(14) 0.96462(12)
H9_2 H 0.4223 0.9409 0.9319
H10_2 H 0.5012 0.8865 0.9703
C15_2 C 0.13379(18) 0.78521(15) 0.84727(11)
H14_2 H 0.1026 0.8322 0.8597
H15_2 H 0.0931 0.7406 0.8533
C16_2 C 0.1535(2) 0.85586(15) 0.75206(11)
H16_2 H 0.1601 0.9056 0.7703
C17_2 C 0.1431(2) 0.76472(16) 0.68699(12)
H17_2 H 0.1412 0.7375 0.6497
C18_2 C 0.1323(2) 0.73227(16) 0.74042(13)
H18_2 H 0.1219 0.6792 0.7477
N7_2 N 0.97307(14) 0.10500(11) 0.99537(9)
N12_2 N 0.63950(14) 0.29113(11) 0.78224(9)
C23_2 C 0.84379(16) 0.19510(13) 0.95328(10)
C24_2 C 0.89990(16) 0.25943(13) 0.96974(10)
H25_2 H 0.9576 0.2543 0.9978
C25_2 C 0.87227(16) 0.33171(13) 0.94534(10)
C26_2 C 0.78743(17) 0.33919(13) 0.90505(11)
H26_2 H 0.7689 0.3884 0.8883
C27_2 C 0.72899(16) 0.27570(13) 0.88870(10)
C28_2 C 0.75843(16) 0.20386(13) 0.91269(10)
H27_2 H 0.7197 0.1599 0.9012
C29_2 C 0.87078(17) 0.11566(14) 0.97897(12)
H28_2 H 0.8449 0.0763 0.9483
C33_2 C 0.93347(18) 0.40159(14) 0.96462(12)
H33_2 H 0.9223 0.4409 0.9319
H35_2 H 0.7961 0.5014 0.9923
C37_2 C 0.63379(18) 0.28521(15) 0.84727(11)
H38_2 H 0.6026 0.3322 0.8597
H39_2 H 0.5931 0.2406 0.8533
C38_2 C 0.6535(2) 0.35586(15) 0.75206(11)
H40_2 H 0.6601 0.4056 0.7703
C39_2 C 0.6431(2) 0.26472(16) 0.68699(12)
H41_2 H 0.6412 0.2375 0.6497
C40_2 C 0.6323(2) 0.23227(16) 0.74042(13)
H42_2 H 0.6219 0.1792 0.7477
N1_3 N 0.52693(14) 0.39500(11) 0.00463(9)
N5_3 N 0.86050(14) 0.20887(11) 0.21776(9)
N6_2 N 0.84301(16) 0.15749(13) 0.30583(9)
C1_3 C 0.65621(16) 0.30490(13) 0.04672(10)
C2_3 C 0.60010(16) 0.24057(13) 0.03026(10)
H1_3 H 0.5424 0.2457 0.0022
C3_3 C 0.62773(16) 0.16829(13) 0.05466(10)
C4_3 C 0.71257(17) 0.16081(13) 0.09495(11)
H2_3 H 0.7311 0.1116 0.1117
C5_3 C 0.77101(16) 0.22430(13) 0.11130(10)
C6_3 C 0.74157(16) 0.29614(13) 0.08731(10)
H3_3 H 0.7803 0.3401 0.0988
C7_3 C 0.62922(17) 0.38434(14) 0.02103(12)
H4_3 H 0.6551 0.4237 0.0517
C9_3 C 0.37630(18) 0.40115(15) 0.00997(11)
H7_3 H 0.3180 0.4011 0.0251
C10_3 C 0.46316(18) 0.39255(15) 0.04423(11)
H8_3 H 0.4773 0.3861 0.0872
C11_3 C 0.56653(18) 0.09841(14) 0.03538(12)
H9_3 H 0.5777 0.0591 0.0681
H10_3 H 0.4988 0.1135 0.0297
C15_3 C 0.86621(18) 0.21479(15) 0.15273(11)
H14_3 H 0.8974 0.1678 0.1403
H15_3 H 0.9069 0.2594 0.1467
C16_3 C 0.8465(2) 0.14414(15) 0.24794(11)
H16_3 H 0.8399 0.0944 0.2297
C17_3 C 0.8569(2) 0.23528(16) 0.31301(12)
H17_3 H 0.8588 0.2625 0.3503
C18_3 C 0.8677(2) 0.26773(16) 0.25958(13)
H18_3 H 0.8781 0.3208 0.2523
Cd4_2 Cd 0.773970(12) 0.072325(10) 0.367437(7)
Cd5_2 Cd 0.273970(12) 0.572325(10) 0.367437(7)
N7_3 N 0.02693(14) 0.89500(11) 0.00463(9)
N12_3 N 0.36050(14) 0.70887(11) 0.21776(9)
N13_2 N 0.34301(16) 0.65749(13) 0.30583(9)
C23_3 C 0.15621(16) 0.80490(13) 0.04672(10)
C24_3 C 0.10010(16) 0.74057(13) 0.03026(10)
H25_3 H 0.0424 0.7457 0.0022
C25_3 C 0.12773(16) 0.66829(13) 0.05466(10)
C26_3 C 0.21257(17) 0.66081(13) 0.09495(11)
H26_3 H 0.2311 0.6116 0.1117
C27_3 C 0.27101(16) 0.72430(13) 0.11130(10)
C28_3 C 0.24157(16) 0.79614(13) 0.08731(10)
H27_3 H 0.2803 0.8401 0.0988
C29_3 C 0.12922(17) 0.88434(14) 0.02103(12)
H28_3 H 0.1551 0.9237 0.0517
C33_3 C 0.06653(18) 0.59841(14) 0.03538(12)
H33_3 H 0.0777 0.5591 0.0681
H35_3 H 0.2039 0.4986 0.0077
C37_3 C 0.36621(18) 0.71479(15) 0.15273(11)
H38_3 H 0.3974 0.6678 0.1403
H39_3 H 0.4069 0.7594 0.1467
C38_3 C 0.3465(2) 0.64414(15) 0.24794(11)
H40_3 H 0.3399 0.5944 0.2297
C39_3 C 0.3569(2) 0.73528(16) 0.31301(12)
H41_3 H 0.3588 0.7625 0.3503
C40_3 C 0.3677(2) 0.76773(16) 0.25958(13)
H42_3 H 0.3781 0.8208 0.2523
Cd1_2 Cd 0.273970(12) 0.427675(10) 0.867437(7)
O1_3 O 0.13641(12) 0.36667(10) 0.82460(8)
O2_3 O 0.18956(15) 0.30986(11) 0.91207(8)
O3_3 O 0.26518(13) 0.52652(11) 0.80020(8)
O4_3 O 0.41577(15) 0.52891(12) 0.84117(9)
N2_3 N 0.38520(14) 0.41002(12) 0.94970(9)
N3_3 N 0.58702(14) 0.06474(11) 0.97837(9)
N4 N 0.66696(14) 0.00360(11) 0.91614(9)
H5_3 H 0.6587 0.3926 0.9844
C8_3 C 0.47683(17) 0.40615(14) 0.94890(11)
H6_3 H 0.5041 0.4107 0.9130
C12_3 C 0.66111(17) 0.01830(13) 0.97374(11)
C13_3 C 0.59225(18) 0.04295(14) 0.88265(12)
H12_3 H 0.5774 0.0432 0.8394
C14_3 C 0.54277(18) 0.08139(14) 0.92005(12)
H13_3 H 0.4887 0.1133 0.9083
C19_3 C 0.12990(19) 0.31537(15) 0.86389(12)
C20_3 C 0.0485(3) 0.2602(2) 0.84987(16)
H19_3 H 0.0704 0.2121 0.8338
H21_3 H 0.0231 0.2493 0.8872
C21_3 C 0.34801(19) 0.55455(14) 0.80487(11)
C22_3 C 0.3610(2) 0.62241(18) 0.76515(14)
H22_3 H 0.3526 0.6703 0.7870
H23_3 H 0.3138 0.6201 0.7276
H24_3 H 0.4249 0.6211 0.7549
N9_3 N 0.08702(14) 0.56474(11) 0.97837(9)
N10_3 N 0.16696(14) 0.50360(11) 0.91614(9)
N14_2 N 0.34301(16) 0.34251(13) 0.80583(9)
H29_3 H 0.1587 0.8926 0.9844
H30_3 H 0.0041 0.9107 0.9130
C34_3 C 0.16111(17) 0.51830(13) 0.97374(11)
C35_3 C 0.09225(18) 0.54295(14) 0.88265(12)
H36_3 H 0.0774 0.5432 0.8394
C36_3 C 0.04277(18) 0.58139(14) 0.92005(12)
Cd3 Cd 0.773970(12) 0.927675(10) 0.867437(7)
O7_3 O 0.76518(13) 0.02652(11) 0.80020(8)
O8_3 O 0.91577(15) 0.02891(12) 0.84117(9)
C43_3 C 0.84801(19) 0.05455(14) 0.80487(11)
C44_3 C 0.8610(2) 0.12241(18) 0.76515(14)
H46_3 H 0.8526 0.1703 0.7870
H47_3 H 0.8138 0.1201 0.7276
H48_3 H 0.9249 0.1211 0.7549
H20_3 H 0.9986 0.2831 0.8194
O5_3 O 0.63641(12) 0.86667(10) 0.82460(8)
O6_3 O 0.68956(15) 0.80986(11) 0.91207(8)
N8_3 N 0.88520(14) 0.91002(12) 0.94970(9)
N15_2 N 0.84301(16) 0.84251(13) 0.80583(9)
C30_3 C 0.97683(17) 0.90615(14) 0.94890(11)
H37_3 H 0.9887 0.6133 0.9083
C41_3 C 0.62990(19) 0.81537(15) 0.86389(12)
C42_3 C 0.5485(3) 0.7602(2) 0.84987(16)
H43_3 H 0.5704 0.7121 0.8338
H44_3 H 0.4986 0.7831 0.8194
H45_3 H 0.5231 0.7493 0.8872
H11_2 H 0.7039 0.0014 0.5077
O1_4 O 0.13641(12) 0.63333(10) 0.32460(8)
O2_4 O 0.18956(15) 0.69014(11) 0.41207(8)
O3_4 O 0.26518(13) 0.47348(11) 0.30020(8)
O4_4 O 0.41577(15) 0.47109(12) 0.34117(9)
N1_4 N 0.52693(14) 0.60500(11) 0.50463(9)
N2_4 N 0.38520(14) 0.58998(12) 0.44970(9)
N3_4 N 0.58702(14) 0.93526(11) 0.47837(9)
N4_2 N 0.66696(14) 0.99640(11) 0.41614(9)
N5_4 N 0.86050(14) 0.79113(11) 0.71776(9)
C1_4 C 0.65621(16) 0.69510(13) 0.54672(10)
C2_4 C 0.60010(16) 0.75943(13) 0.53026(10)
H1_4 H 0.5424 0.7543 0.5022
C3_4 C 0.62773(16) 0.83171(13) 0.55466(10)
C4_4 C 0.71257(17) 0.83919(13) 0.59495(11)
H2_4 H 0.7311 0.8884 0.6117
C5_4 C 0.77101(16) 0.77570(13) 0.61130(10)
C6_4 C 0.74157(16) 0.70386(13) 0.58731(10)
H3_4 H 0.7803 0.6599 0.5988
C7_4 C 0.62922(17) 0.61566(14) 0.52103(12)
H4_4 H 0.6551 0.5763 0.5517
H5_4 H 0.6587 0.6074 0.4844
C8_4 C 0.47683(17) 0.59385(14) 0.44890(11)
H6_4 H 0.5041 0.5893 0.4130
C9_4 C 0.37630(18) 0.59885(15) 0.50997(11)
H7_4 H 0.3180 0.5989 0.5251
C10_4 C 0.46316(18) 0.60745(15) 0.54423(11)
H8_4 H 0.4773 0.6139 0.5872
C11_4 C 0.56653(18) 0.90159(14) 0.53538(12)
H9_4 H 0.5777 0.9409 0.5681
H10_4 H 0.4988 0.8865 0.5297
C12_4 C 0.66111(17) 0.98170(13) 0.47374(11)
C13_4 C 0.59225(18) 0.95705(14) 0.38265(12)
H12_4 H 0.5774 0.9568 0.3394
C14_4 C 0.54277(18) 0.91861(14) 0.42005(12)
H13_4 H 0.4887 0.8867 0.4083
C15_4 C 0.86621(18) 0.78521(15) 0.65273(11)
H14_4 H 0.8974 0.8322 0.6403
H15_4 H 0.9069 0.7406 0.6467
C16_4 C 0.8465(2) 0.85586(15) 0.74794(11)
H16_4 H 0.8399 0.9056 0.7297
C17_4 C 0.8569(2) 0.76472(16) 0.81301(12)
H17_4 H 0.8588 0.7375 0.8503
C18_4 C 0.8677(2) 0.73227(16) 0.75958(13)
H18_4 H 0.8781 0.6792 0.7523
C19_4 C 0.12990(19) 0.68463(15) 0.36389(12)
C20_4 C 0.0485(3) 0.7398(2) 0.34987(16)
H19_4 H 0.0704 0.7879 0.3338
H21_4 H 0.0231 0.7507 0.3872
C21_4 C 0.34801(19) 0.44545(14) 0.30487(11)
C22_4 C 0.3610(2) 0.37759(18) 0.26515(14)
H22_4 H 0.3526 0.3297 0.2870
H23_4 H 0.3138 0.3799 0.2276
H24_4 H 0.4249 0.3789 0.2549
N7_4 N 0.02693(14) 0.10500(11) 0.50463(9)
N9_4 N 0.08702(14) 0.43526(11) 0.47837(9)
N10_4 N 0.16696(14) 0.49640(11) 0.41614(9)
N12_4 N 0.36050(14) 0.29113(11) 0.71776(9)
C23_4 C 0.15621(16) 0.19510(13) 0.54672(10)
C24_4 C 0.10010(16) 0.25943(13) 0.53026(10)
H25_4 H 0.0424 0.2543 0.5022
C25_4 C 0.12773(16) 0.33171(13) 0.55466(10)
C26_4 C 0.21257(17) 0.33919(13) 0.59495(11)
H26_4 H 0.2311 0.3884 0.6117
C27_4 C 0.27101(16) 0.27570(13) 0.61130(10)
C28_4 C 0.24157(16) 0.20386(13) 0.58731(10)
H27_4 H 0.2803 0.1599 0.5988
C29_4 C 0.12922(17) 0.11566(14) 0.52103(12)
H28_4 H 0.1551 0.0763 0.5517
H29_4 H 0.1587 0.1074 0.4844
H30_4 H 0.0041 0.0893 0.4130
C33_4 C 0.06653(18) 0.40159(14) 0.53538(12)
H33_4 H 0.0777 0.4409 0.5681
C34_4 C 0.16111(17) 0.48170(13) 0.47374(11)
H35_4 H 0.2039 0.5014 0.5077
C35_4 C 0.09225(18) 0.45705(14) 0.38265(12)
H36_4 H 0.0774 0.4568 0.3394
C36_4 C 0.04277(18) 0.41861(14) 0.42005(12)
C37_4 C 0.36621(18) 0.28521(15) 0.65273(11)
H38_4 H 0.3974 0.3322 0.6403
H39_4 H 0.4069 0.2406 0.6467
C38_4 C 0.3465(2) 0.35586(15) 0.74794(11)
H40_4 H 0.3399 0.4056 0.7297
C39_4 C 0.3569(2) 0.26472(16) 0.81301(12)
H41_4 H 0.3588 0.2375 0.8503
C40_4 C 0.3677(2) 0.23227(16) 0.75958(13)
H42_4 H 0.3781 0.1792 0.7523
H20_4 H 0.9986 0.7169 0.3194
O5_4 O 0.63641(12) 0.13333(10) 0.32460(8)
O6_4 O 0.68956(15) 0.19014(11) 0.41207(8)
N8_4 N 0.88520(14) 0.08998(12) 0.44970(9)
C30_4 C 0.97683(17) 0.09385(14) 0.44890(11)
C31_2 C 0.87630(18) 0.09885(15) 0.50997(11)
H31_2 H 0.8180 0.0989 0.5251
C32_2 C 0.96316(18) 0.10745(15) 0.54423(11)
H32_2 H 0.9773 0.1139 0.5872
H34_2 H 0.9988 0.3865 0.5297
H37_4 H 0.9887 0.3867 0.4083
C41_4 C 0.62990(19) 0.18463(15) 0.36389(12)
C42_4 C 0.5485(3) 0.2398(2) 0.34987(16)
H43_4 H 0.5704 0.2879 0.3338
H44_4 H 0.4986 0.2169 0.3194
H45_4 H 0.5231 0.2507 0.3872
O7_4 O 0.76518(13) 0.97348(11) 0.30020(8)
O8_4 O 0.91577(15) 0.97109(12) 0.34117(9)
C43_4 C 0.84801(19) 0.94545(14) 0.30487(11)
C44_4 C 0.8610(2) 0.87759(18) 0.26515(14)
H46_4 H 0.8526 0.8297 0.2870
H47_4 H 0.8138 0.8799 0.2276
H48_4 H 0.9249 0.8789 0.2549
H11_3 H 0.7039 0.9986 0.0077
C31_3 C 0.87630(18) 0.90115(15) 0.00997(11)
H31_3 H 0.8180 0.9011 0.0251
C32_3 C 0.96316(18) 0.89255(15) 0.04423(11)
H32_3 H 0.9773 0.8861 0.0872
H34_3 H 0.9988 0.6135 0.0297
C31_4 C 0.12370(18) 0.09885(15) 0.99003(11)
H31_4 H 0.1820 0.0989 0.9749
C32_4 C 0.03684(18) 0.10745(15) 0.95577(11)
H32_4 H 0.0227 0.1139 0.9128
H34_4 H 0.0012 0.3865 0.9703
H11_4 H 0.2961 0.0014 0.9923
loop_
_geom_bond_atom_site_label_1
_geom_bond_atom_site_label_2
_geom_bond_site_symmetry_1
_geom_bond_site_symmetry_2
O8 C43 1_555 1_555
C43 O7 1_555 1_555
C44 C43 1_555 1_555
H46 C44 1_555 1_555
H47 C44 1_555 1_555
H48 C44 1_555 1_555
Cd2 O5 1_555 1_555
O5 C41 1_555 1_555
O6 Cd2 1_555 1_555
N8 Cd2 1_555 1_555
N15 Cd2 1_555 1_555
C31 N8 1_555 1_555
H31 C31 1_555 1_555
H32 C32 1_555 1_555
C41 O6 1_555 1_555
C42 C41 1_555 1_555
H43 C42 1_555 1_555
H44 C42 1_555 1_555
H45 C42 1_555 1_555
N8 C30 1_555 1_555
C31 C32 1_555 1_555
Cd1 O1 1_555 1_555
O1 C19 1_555 1_555
O2 Cd1 1_555 1_555
O3 Cd1 1_555 1_555
O4 C21 1_555 1_555
N1 C7 1_555 1_555
N2 Cd1 1_555 1_555
N3 C11 1_555 1_555
N11 C12 1_555 1_555
N5 C15 1_555 1_555
N6 C16 1_555 1_555
C1 C2 1_555 1_555
C2 H1 1_555 1_555
C3 C2 1_555 1_555
C4 C3 1_555 1_555
H2 C4 1_555 1_555
C5 C4 1_555 1_555
C6 C1 1_555 1_555
H3 C6 1_555 1_555
C7 C1 1_555 1_555
H4 C7 1_555 1_555
H5 C7 1_555 1_555
C8 N1 1_555 1_555
H6 C8 1_555 1_555
C9 N2 1_555 1_555
H7 C9 1_555 1_555
C10 N1 1_555 1_555
H8 C10 1_555 1_555
C11 C3 1_555 1_555
H9 C11 1_555 1_555
H10 C11 1_555 1_555
C12 N3 1_555 1_555
C13 N11 1_555 1_555
H12 C13 1_555 1_555
C14 N3 1_555 1_555
H13 C14 1_555 1_555
C15 C5 1_555 1_555
H14 C15 1_555 1_555
H15 C15 1_555 1_555
C16 N5 1_555 1_555
H16 C16 1_555 1_555
C17 N6 1_555 1_555
H17 C17 1_555 1_555
C18 N5 1_555 1_555
H18 C18 1_555 1_555
C19 O2 1_555 1_555
C20 C19 1_555 1_555
H19 C20 1_555 1_555
H21 C20 1_555 1_555
C21 O3 1_555 1_555
C22 C21 1_555 1_555
H22 C22 1_555 1_555
H23 C22 1_555 1_555
H24 C22 1_555 1_555
Cd4 N6 1_555 1_555
Cd5 N13 1_555 1_555
N7 C29 1_555 1_555
N9 C33 1_555 1_555
N10 Cd1 1_555 1_555
N12 C37 1_555 1_555
N13 C38 1_555 1_555
N14 Cd1 1_555 1_555
C23 C24 1_555 1_555
C24 H25 1_555 1_555
C25 C24 1_555 1_555
C26 C25 1_555 1_555
H26 C26 1_555 1_555
C27 C26 1_555 1_555
C28 C23 1_555 1_555
H27 C28 1_555 1_555
C29 C23 1_555 1_555
H28 C29 1_555 1_555
H29 C29 1_555 1_555
C33 C25 1_555 1_555
H33 C33 1_555 1_555
C34 N9 1_555 1_555
H35 C34 1_555 1_555
C35 N10 1_555 1_555
H36 C35 1_555 1_555
C36 N9 1_555 1_555
C37 C27 1_555 1_555
H38 C37 1_555 1_555
H39 C37 1_555 1_555
C38 N12 1_555 1_555
H40 C38 1_555 1_555
C39 N13 1_555 1_555
H41 C39 1_555 1_555
C40 N12 1_555 1_555
H42 C40 1_555 1_555
N2 C8 1_555 1_555
C5 C6 1_555 1_555
C9 C10 1_555 1_555
C13 C14 1_555 1_555
C17 C18 1_555 1_555
N10 C34 1_555 1_555
C27 C28 1_555 1_555
C35 C36 1_555 1_555
C39 C40 1_555 1_555
Cd4 O5_2 1_555 1_555
O5_2 C41_2 1_555 1_555
O6_2 Cd4 1_555 1_555
N8_2 Cd4 1_555 1_555
C41_2 O6_2 1_555 1_555
C42_2 C41_2 1_555 1_555
H43_2 C42_2 1_555 1_555
H44_2 C42_2 1_555 1_555
H45_2 C42_2 1_555 1_555
N8_2 C30_2 1_555 1_555
O8_2 C43_2 1_555 1_555
C43_2 O7_2 1_555 1_555
C44_2 C43_2 1_555 1_555
H46_2 C44_2 1_555 1_555
H47_2 C44_2 1_555 1_555
H48_2 C44_2 1_555 1_555
Cd5 O1_2 1_555 1_555
O1_2 C19_2 1_555 1_555
O2_2 Cd5 1_555 1_555
O3_2 Cd5 1_555 1_555
O4_2 C21_2 1_555 1_555
N2_2 Cd5 1_555 1_555
N11_2 C12_2 1_555 1_555
H6_2 C8_2 1_555 1_555
C12_2 N3_2 1_555 1_555
C13_2 N11_2 1_555 1_555
H12_2 C13_2 1_555 1_555
C14_2 N3_2 1_555 1_555
H13_2 C14_2 1_555 1_555
C19_2 O2_2 1_555 1_555
C20_2 C19_2 1_555 1_555
H19_2 C20_2 1_555 1_555
H21_2 C20_2 1_555 1_555
C21_2 O3_2 1_555 1_555
C22_2 C21_2 1_555 1_555
H22_2 C22_2 1_555 1_555
H23_2 C22_2 1_555 1_555
H24_2 C22_2 1_555 1_555
N10_2 Cd5 1_555 1_555
C34_2 N9_2 1_555 1_555
C35_2 N10_2 1_555 1_555
H36_2 C35_2 1_555 1_555
C36_2 N9_2 1_555 1_555
N2_2 C8_2 1_555 1_555
C13_2 C14_2 1_555 1_555
N10_2 C34_2 1_555 1_555
C35_2 C36_2 1_555 1_555
N1_2 C7_2 1_555 1_555
N5_2 C15_2 1_555 1_555
N15 C16_2 1_555 1_555
C1_2 C2_2 1_555 1_555
C2_2 H1_2 1_555 1_555
C3_2 C2_2 1_555 1_555
C4_2 C3_2 1_555 1_555
H2_2 C4_2 1_555 1_555
C5_2 C4_2 1_555 1_555
C6_2 C1_2 1_555 1_555
H3_2 C6_2 1_555 1_555
C7_2 C1_2 1_555 1_555
H4_2 C7_2 1_555 1_555
H7_2 C9_2 1_555 1_555
C10_2 N1_2 1_555 1_555
H8_2 C10_2 1_555 1_555
C11_2 C3_2 1_555 1_555
H9_2 C11_2 1_555 1_555
H10_2 C11_2 1_555 1_555
C15_2 C5_2 1_555 1_555
H14_2 C15_2 1_555 1_555
H15_2 C15_2 1_555 1_555
C16_2 N5_2 1_555 1_555
H16_2 C16_2 1_555 1_555
C17_2 N15 1_555 1_555
H17_2 C17_2 1_555 1_555
C18_2 N5_2 1_555 1_555
H18_2 C18_2 1_555 1_555
N7_2 C29_2 1_555 1_555
N12_2 C37_2 1_555 1_555
N14 C38_2 1_555 1_555
C23_2 C24_2 1_555 1_555
C24_2 H25_2 1_555 1_555
C25_2 C24_2 1_555 1_555
C26_2 C25_2 1_555 1_555
H26_2 C26_2 1_555 1_555
C27_2 C26_2 1_555 1_555
C28_2 C23_2 1_555 1_555
H27_2 C28_2 1_555 1_555
C29_2 C23_2 1_555 1_555
H28_2 C29_2 1_555 1_555
C33_2 C25_2 1_555 1_555
H33_2 C33_2 1_555 1_555
C37_2 C27_2 1_555 1_555
H38_2 C37_2 1_555 1_555
H39_2 C37_2 1_555 1_555
C38_2 N12_2 1_555 1_555
H40_2 C38_2 1_555 1_555
C39_2 N14 1_555 1_555
H41_2 C39_2 1_555 1_555
C40_2 N12_2 1_555 1_555
H42_2 C40_2 1_555 1_555
C5_2 C6_2 1_555 1_555
C9_2 C10_2 1_555 1_555
C17_2 C18_2 1_555 1_555
C27_2 C28_2 1_555 1_555
C39_2 C40_2 1_555 1_555
N1_3 C7_3 1_555 1_555
N5_3 C15_3 1_555 1_555
N6_2 C16_3 1_555 1_555
C1_3 C2_3 1_555 1_555
C2_3 H1_3 1_555 1_555
C3_3 C2_3 1_555 1_555
C4_3 C3_3 1_555 1_555
H2_3 C4_3 1_555 1_555
C5_3 C4_3 1_555 1_555
C6_3 C1_3 1_555 1_555
H3_3 C6_3 1_555 1_555
C7_3 C1_3 1_555 1_555
H4_3 C7_3 1_555 1_555
H7_3 C9_3 1_555 1_555
C10_3 N1_3 1_555 1_555
H8_3 C10_3 1_555 1_555
C11_3 C3_3 1_555 1_555
H9_3 C11_3 1_555 1_555
H10_3 C11_3 1_555 1_555
C15_3 C5_3 1_555 1_555
H14_3 C15_3 1_555 1_555
H15_3 C15_3 1_555 1_555
C16_3 N5_3 1_555 1_555
H16_3 C16_3 1_555 1_555
C17_3 N6_2 1_555 1_555
H17_3 C17_3 1_555 1_555
C18_3 N5_3 1_555 1_555
H18_3 C18_3 1_555 1_555
Cd4_2 N6_2 1_555 1_555
Cd5_2 N13_2 1_555 1_555
N7_3 C29_3 1_555 1_555
N12_3 C37_3 1_555 1_555
N13_2 C38_3 1_555 1_555
C23_3 C24_3 1_555 1_555
C24_3 H25_3 1_555 1_555
C25_3 C24_3 1_555 1_555
C26_3 C25_3 1_555 1_555
H26_3 C26_3 1_555 1_555
C27_3 C26_3 1_555 1_555
C28_3 C23_3 1_555 1_555
H27_3 C28_3 1_555 1_555
C29_3 C23_3 1_555 1_555
H28_3 C29_3 1_555 1_555
C33_3 C25_3 1_555 1_555
H33_3 C33_3 1_555 1_555
C37_3 C27_3 1_555 1_555
H38_3 C37_3 1_555 1_555
H39_3 C37_3 1_555 1_555
C38_3 N12_3 1_555 1_555
H40_3 C38_3 1_555 1_555
C39_3 N13_2 1_555 1_555
H41_3 C39_3 1_555 1_555
C40_3 N12_3 1_555 1_555
H42_3 C40_3 1_555 1_555
C5_3 C6_3 1_555 1_555
C9_3 C10_3 1_555 1_555
C17_3 C18_3 1_555 1_555
C27_3 C28_3 1_555 1_555
C39_3 C40_3 1_555 1_555
Cd1_2 O1_3 1_555 1_555
O1_3 C19_3 1_555 1_555
O2_3 Cd1_2 1_555 1_555
O3_3 Cd1_2 1_555 1_555
O4_3 C21_3 1_555 1_555
N2_3 Cd1_2 1_555 1_555
N4 C12_3 1_555 1_555
H6_3 C8_3 1_555 1_555
C12_3 N3_3 1_555 1_555
C13_3 N4 1_555 1_555
H12_3 C13_3 1_555 1_555
C14_3 N3_3 1_555 1_555
H13_3 C14_3 1_555 1_555
C19_3 O2_3 1_555 1_555
C20_3 C19_3 1_555 1_555
H19_3 C20_3 1_555 1_555
H21_3 C20_3 1_555 1_555
C21_3 O3_3 1_555 1_555
C22_3 C21_3 1_555 1_555
H22_3 C22_3 1_555 1_555
H23_3 C22_3 1_555 1_555
H24_3 C22_3 1_555 1_555
N10_3 Cd1_2 1_555 1_555
N14_2 Cd1_2 1_555 1_555
C34_3 N9_3 1_555 1_555
C35_3 N10_3 1_555 1_555
H36_3 C35_3 1_555 1_555
C36_3 N9_3 1_555 1_555
N2_3 C8_3 1_555 1_555
C13_3 C14_3 1_555 1_555
N10_3 C34_3 1_555 1_555
C35_3 C36_3 1_555 1_555
O8_3 C43_3 1_555 1_555
C43_3 O7_3 1_555 1_555
C44_3 C43_3 1_555 1_555
H46_3 C44_3 1_555 1_555
H47_3 C44_3 1_555 1_555
H48_3 C44_3 1_555 1_555
Cd3 O5_3 1_555 1_555
O5_3 C41_3 1_555 1_555
O6_3 Cd3 1_555 1_555
N8_3 Cd3 1_555 1_555
N15_2 Cd3 1_555 1_555
C41_3 O6_3 1_555 1_555
C42_3 C41_3 1_555 1_555
H43_3 C42_3 1_555 1_555
H44_3 C42_3 1_555 1_555
H45_3 C42_3 1_555 1_555
N8_3 C30_3 1_555 1_555
Cd5_2 O1_4 1_555 1_555
O1_4 C19_4 1_555 1_555
O2_4 Cd5_2 1_555 1_555
O3_4 Cd5_2 1_555 1_555
O4_4 C21_4 1_555 1_555
N1_4 C7_4 1_555 1_555
N2_4 Cd5_2 1_555 1_555
N3_4 C11_4 1_555 1_555
N4_2 C12_4 1_555 1_555
N5_4 C15_4 1_555 1_555
N15_2 C16_4 1_555 1_555
C1_4 C2_4 1_555 1_555
C2_4 H1_4 1_555 1_555
C3_4 C2_4 1_555 1_555
C4_4 C3_4 1_555 1_555
H2_4 C4_4 1_555 1_555
C5_4 C4_4 1_555 1_555
C6_4 C1_4 1_555 1_555
H3_4 C6_4 1_555 1_555
C7_4 C1_4 1_555 1_555
H4_4 C7_4 1_555 1_555
H5_4 C7_4 1_555 1_555
C8_4 N1_4 1_555 1_555
H6_4 C8_4 1_555 1_555
C9_4 N2_4 1_555 1_555
H7_4 C9_4 1_555 1_555
C10_4 N1_4 1_555 1_555
H8_4 C10_4 1_555 1_555
C11_4 C3_4 1_555 1_555
H9_4 C11_4 1_555 1_555
H10_4 C11_4 1_555 1_555
C12_4 N3_4 1_555 1_555
C13_4 N4_2 1_555 1_555
H12_4 C13_4 1_555 1_555
C14_4 N3_4 1_555 1_555
H13_4 C14_4 1_555 1_555
C15_4 C5_4 1_555 1_555
H14_4 C15_4 1_555 1_555
H15_4 C15_4 1_555 1_555
C16_4 N5_4 1_555 1_555
H16_4 C16_4 1_555 1_555
C17_4 N15_2 1_555 1_555
H17_4 C17_4 1_555 1_555
C18_4 N5_4 1_555 1_555
H18_4 C18_4 1_555 1_555
C19_4 O2_4 1_555 1_555
C20_4 C19_4 1_555 1_555
H19_4 C20_4 1_555 1_555
H21_4 C20_4 1_555 1_555
C21_4 O3_4 1_555 1_555
C22_4 C21_4 1_555 1_555
H22_4 C22_4 1_555 1_555
H23_4 C22_4 1_555 1_555
H24_4 C22_4 1_555 1_555
N7_4 C29_4 1_555 1_555
N9_4 C33_4 1_555 1_555
N10_4 Cd5_2 1_555 1_555
N12_4 C37_4 1_555 1_555
N14_2 C38_4 1_555 1_555
C23_4 C24_4 1_555 1_555
C24_4 H25_4 1_555 1_555
C25_4 C24_4 1_555 1_555
C26_4 C25_4 1_555 1_555
H26_4 C26_4 1_555 1_555
C27_4 C26_4 1_555 1_555
C28_4 C23_4 1_555 1_555
H27_4 C28_4 1_555 1_555
C29_4 C23_4 1_555 1_555
H28_4 C29_4 1_555 1_555
H29_4 C29_4 1_555 1_555
C33_4 C25_4 1_555 1_555
H33_4 C33_4 1_555 1_555
C34_4 N9_4 1_555 1_555
H35_4 C34_4 1_555 1_555
C35_4 N10_4 1_555 1_555
H36_4 C35_4 1_555 1_555
C36_4 N9_4 1_555 1_555
C37_4 C27_4 1_555 1_555
H38_4 C37_4 1_555 1_555
H39_4 C37_4 1_555 1_555
C38_4 N12_4 1_555 1_555
H40_4 C38_4 1_555 1_555
C39_4 N14_2 1_555 1_555
H41_4 C39_4 1_555 1_555
C40_4 N12_4 1_555 1_555
H42_4 C40_4 1_555 1_555
N2_4 C8_4 1_555 1_555
C5_4 C6_4 1_555 1_555
C9_4 C10_4 1_555 1_555
C13_4 C14_4 1_555 1_555
C17_4 C18_4 1_555 1_555
N10_4 C34_4 1_555 1_555
C27_4 C28_4 1_555 1_555
C35_4 C36_4 1_555 1_555
C39_4 C40_4 1_555 1_555
Cd4_2 O5_4 1_555 1_555
O5_4 C41_4 1_555 1_555
O6_4 Cd4_2 1_555 1_555
N8_4 Cd4_2 1_555 1_555
C31_2 N8_4 1_555 1_555
H31_2 C31_2 1_555 1_555
H32_2 C32_2 1_555 1_555
C41_4 O6_4 1_555 1_555
C42_4 C41_4 1_555 1_555
H43_4 C42_4 1_555 1_555
H44_4 C42_4 1_555 1_555
H45_4 C42_4 1_555 1_555
N8_4 C30_4 1_555 1_555
C31_2 C32_2 1_555 1_555
O8_4 C43_4 1_555 1_555
C43_4 O7_4 1_555 1_555
C44_4 C43_4 1_555 1_555
H46_4 C44_4 1_555 1_555
H47_4 C44_4 1_555 1_555
H48_4 C44_4 1_555 1_555
H31_3 C31_3 1_555 1_555
H32_3 C32_3 1_555 1_555
C31_3 C32_3 1_555 1_555
H31_4 C31_4 1_555 1_555
H32_4 C32_4 1_555 1_555
C31_4 C32_4 1_555 1_555

#END
