
###############################################################################
#
# This file contains modified crystal structure data generated from the
# MOF subset of the Cambridge Structural Database (CSD) v543 
# hosted by the Cambridge Crystallographic Data Centre (CCDC).
#
# This work is licensed under the Creative Commons
# Attribution-NonCommercial-ShareAlike 4.0 International License.
# To view a copy of this license, visit
# http://creativecommons.org/licenses/by-nc-sa/4.0/
# or send a letter to
# Creative Commons, PO Box 1866, Mountain View, CA 94042, USA.
#
# CIF created using the CSD Python API on 29 September 2022
# The structure has been converted into the P1 space group
# The structure has a 3D framework
# The original CSD entry UFIREI is in the rhombohedral crystal system
# The framework has been calculated to contain at least 10.0% void space
# The void calculation uses a probe of radius 1.32A, grid spacing 0.4
#
###############################################################################

data_UFIREI
_chemical_formula_moiety         '(C828 H504 O160 Zn60)n'
_symmetry_cell_setting           triclinic
_symmetry_space_group_name_H-M   'P 1'
_symmetry_Int_Tables_number      1
_space_group_name_Hall           'P 1'
loop_
_symmetry_equiv_pos_site_id
_symmetry_equiv_pos_as_xyz
1 x,y,z
_cell_length_a                   19.850(3)
_cell_length_b                   19.850(3)
_cell_length_c                   83.91(3)
_cell_angle_alpha                90
_cell_angle_beta                 90
_cell_angle_gamma                120
_cell_volume                     28632.9
loop_
_atom_site_label
_atom_site_type_symbol
_atom_site_fract_x
_atom_site_fract_y
_atom_site_fract_z
Zn14 Zn -0.0000 0.0000 0.93680(3)
C28 C 0.1104(4) 0.6155(6) 0.04320(8)
C31 C 0.1745(4) 0.6300(6) 0.05429(9)
C33 C 0.0060(5) 0.5268(7) 0.02651(9)
C34 C 0.0430(5) 0.6607(7) 0.02677(8)
H18 H 0.0371 0.7016 0.0231
C36 C 0.0611(4) 0.5409(6) 0.03725(9)
H20 H 0.0668 0.4997 0.0409
C37 C 0.0992(5) 0.6748(7) 0.03791(9)
H21 H 0.1300 0.7248 0.0419
O6 O 0.2211(4) 0.6997(5) 0.05791(7)
O7 O 0.1782(3) 0.5725(4) 0.05915(7)
Zn6 Zn 0.30943(5) 0.74661(6) 0.072663(8)
Zn8 Zn 0.25339(6) 0.56282(4) 0.072663(8)
Zn14_2 Zn -0.0000 1.0000 0.93680(3)
Zn14_3 Zn 1.0000 0.0000 0.93680(3)
C2 C 0.6364(4) 0.1350(4) 0.00899(8)
H2 H 0.6156 0.1468 0.0178
C4 C 0.5915(4) 0.0055(4) 0.02085(8)
C6 C 0.6344(4) 0.0647(4) 0.00853(8)
H3 H 0.5016 0.0252 0.0227
H12 H 0.5137 0.1673 0.0086
C25 C 0.8650(4) 0.5014(6) 0.00899(8)
H16 H 0.8532 0.4688 0.0178
C27 C 0.9945(4) 0.5860(6) 0.02085(8)
C29 C 0.9353(4) 0.5697(6) 0.00853(8)
H17 H 0.9748 0.4764 0.0227
H26 H 0.8327 0.3464 0.0086
C48 C 0.4986(6) 0.3636(4) 0.00899(8)
H30 H 0.5312 0.3844 0.0178
C50 C 0.4140(6) 0.4085(4) 0.02085(8)
C51 C 0.3845(6) 0.4949(4) 0.04320(8)
C52 C 0.4303(6) 0.3656(4) 0.00853(8)
C54 C 0.3700(6) 0.5445(5) 0.05429(9)
C56 C 0.4732(7) 0.4792(5) 0.02651(9)
H31 H 0.5236 0.4984 0.0227
C57 C 0.3393(7) 0.3823(5) 0.02677(8)
H32 H 0.2984 0.3355 0.0231
C59 C 0.4591(6) 0.5202(5) 0.03725(9)
H34 H 0.5003 0.5671 0.0409
C60 C 0.3252(7) 0.4244(5) 0.03791(9)
H35 H 0.2752 0.4052 0.0419
H40 H 0.6536 0.4863 0.0086
O10 O 0.3003(5) 0.5214(3) 0.05791(7)
O11 O 0.4275(4) 0.6057(3) 0.05915(7)
Zn5 Zn 0.43718(4) 0.69057(5) 0.072663(8)
C1 C 0.6988(4) 0.1695(4) 0.98368(8)
H1 H 0.7170 0.2031 0.9750
C3 C 0.6688(4) 0.1889(4) 0.99663(8)
C7 C 0.7029(4) 0.1027(4) 0.98313(8)
C9 C 0.7440(5) 0.0886(5) 0.97014(9)
C12 C 0.7425(5) 0.1090(5) 0.95448(8)
H5 H 0.7137 0.1326 0.9518
C15 C 0.6696(4) 0.0495(4) 0.99556(8)
H8 H 0.6708 0.0032 0.9953
C16 C 0.7823(6) 0.0953(5) 0.94273(10)
H9 H 0.7800 0.1099 0.9323
C17 C 0.8261(7) 0.0601(7) 0.94619(12)
C18 C 0.7879(8) 0.0516(8) 0.97343(12)
H10 H 0.7910 0.0376 0.9839
C19 C 0.8246(8) 0.0366(9) 0.96196(14)
H11 H 0.8502 0.0095 0.9645
C20 C 0.5219(4) 0.1871(4) 0.99794(11)
H13 H 0.5243 0.1504 0.9908
H14 H 0.4797 0.1949 0.9949
C21 C 0.8664(12) 0.0433(9) 0.93383(17)
C22 C 0.5961(4) 0.2622(4) 0.99715(8)
C23 C 0.6677(4) 0.2643(4) 0.99714(7)
O3 O 0.8604(6) 0.0523(4) 0.91990(9)
O4 O 0.9048(14) 0.0105(11) 0.9376(2)
C24 C 0.8305(4) 0.5293(6) 0.98368(8)
H15 H 0.7969 0.5139 0.9750
C26 C 0.8111(4) 0.4799(6) 0.99663(8)
C30 C 0.8973(4) 0.6002(6) 0.98313(8)
C32 C 0.9114(5) 0.6554(7) 0.97014(9)
C35 C 0.8910(5) 0.6335(7) 0.95448(8)
H19 H 0.8674 0.5811 0.9518
C38 C 0.9505(4) 0.6201(6) 0.99556(8)
H22 H 0.9968 0.6676 0.9953
C39 C 0.9047(5) 0.6870(8) 0.94273(10)
H23 H 0.8901 0.6701 0.9323
C40 C 0.9399(7) 0.7660(10) 0.94619(12)
C41 C 0.9484(8) 0.7363(11) 0.97343(12)
H24 H 0.9624 0.7534 0.9839
C42 C 0.9634(9) 0.7880(12) 0.96196(14)
H25 H 0.9905 0.8407 0.9645
C43 C 0.8129(4) 0.3348(6) 0.99794(11)
H27 H 0.8496 0.3739 0.9908
H28 H 0.8051 0.2848 0.9949
C44 C 0.7378(4) 0.3339(6) 0.99715(8)
C45 C 0.7357(4) 0.4034(6) 0.99714(7)
C46 C 0.9567(9) 0.8231(15) 0.93383(17)
O8 O 0.9477(4) 0.8081(7) 0.91990(9)
O9 O 0.9895(11) 0.8943(18) 0.9376(2)
C47 C 0.4707(6) 0.3012(4) 0.98368(8)
H29 H 0.4861 0.2830 0.9750
C49 C 0.5201(6) 0.3312(4) 0.99663(8)
C53 C 0.3998(6) 0.2971(4) 0.98313(8)
C55 C 0.3446(7) 0.2560(5) 0.97014(9)
C58 C 0.3665(7) 0.2575(5) 0.95448(8)
H33 H 0.4189 0.2863 0.9518
C61 C 0.3799(6) 0.3304(4) 0.99556(8)
H36 H 0.3324 0.3292 0.9953
C62 C 0.3130(8) 0.2177(6) 0.94273(10)
H37 H 0.3299 0.2200 0.9323
C63 C 0.2340(10) 0.1739(7) 0.94619(12)
C64 C 0.2637(11) 0.2121(8) 0.97343(12)
H38 H 0.2466 0.2090 0.9839
C65 C 0.2120(12) 0.1754(8) 0.96196(14)
H39 H 0.1593 0.1498 0.9645
C66 C 0.6652(6) 0.4781(4) 0.99794(11)
H41 H 0.6261 0.4757 0.9908
H42 H 0.7152 0.5203 0.9949
C67 C 0.6661(6) 0.4039(4) 0.99715(8)
C68 C 0.5966(6) 0.3323(4) 0.99714(7)
C69 C 0.1769(15) 0.1336(12) 0.93383(17)
O12 O 0.1919(7) 0.1396(6) 0.91990(9)
O13 O 0.1057(18) 0.0952(14) 0.9376(2)
Zn9 Zn 0.97610(5) 0.89615(4) 0.905996(8)
Zn10 Zn 0.92006(6) 0.02390(5) 0.905996(8)
Zn11 Zn 0.10385(4) 0.07994(6) 0.905996(8)
Zn14_4 Zn 1.0000 1.0000 0.93680(3)
C5 C 0.5051(4) 0.8896(4) 0.04320(8)
C8 C 0.4555(5) 0.8255(4) 0.05429(9)
C10 C 0.5208(5) 0.9940(5) 0.02651(9)
C11 C 0.6177(5) 0.9570(5) 0.02677(8)
H4 H 0.6645 0.9629 0.0231
C13 C 0.4798(5) 0.9389(4) 0.03725(9)
H6 H 0.4329 0.9332 0.0409
C14 C 0.5756(5) 0.9008(5) 0.03791(9)
H7 H 0.5948 0.8700 0.0419
O1 O 0.3333 0.6667 0.07937(8)
O2 O 0.4786(3) 0.7789(4) 0.05791(7)
O5 O 0.3943(3) 0.8218(3) 0.05915(7)
Zn2 Zn 0.3333 0.6667 0.10347(3)
O16 O 0.2810(4) 0.8063(6) 0.08657(9)
O17 O 0.5252(7) 0.7190(4) 0.08657(9)
O18 O 0.1937(6) 0.4748(7) 0.08657(9)
O19 O 0.3228(11) 0.7619(14) 0.1043(2)
O20 O 0.4390(18) 0.6772(11) 0.1043(2)
O21 O 0.2381(14) 0.5610(18) 0.1043(2)
H18_2 H 0.7038 0.0349 0.3564
C37_2 C 0.7659(5) 0.0081(7) 0.37124(9)
H21_2 H 0.7967 0.0581 0.3752
H22_2 H 0.6635 0.0009 0.3286
C39_2 C 0.5714(5) 0.0203(8) 0.27606(10)
H23_2 H 0.5568 0.0034 0.2656
C40_2 C 0.6066(7) 0.0993(10) 0.27952(12)
C41_2 C 0.6151(8) 0.0696(11) 0.30676(12)
H24_2 H 0.6291 0.0867 0.3172
C42_2 C 0.6301(9) 0.1213(12) 0.29529(14)
H25_2 H 0.6572 0.1740 0.2978
O6_2 O 0.8878(4) 0.0330(5) 0.39124(7)
C46_2 C 0.6234(9) 0.1564(15) 0.26716(17)
O8_2 O 0.6144(4) 0.1414(7) 0.25323(9)
O9_2 O 0.6562(11) 0.2276(18) 0.2709(2)
Zn5_2 Zn 0.10385(4) 0.02390(5) 0.405996(8)
Zn6_2 Zn 0.97610(5) 0.07994(6) 0.405996(8)
Zn9_2 Zn 0.64276(5) 0.22949(4) 0.239330(8)
Zn14_5 Zn 0.6666 0.3334 0.27014(3)
C1_2 C 0.3655(4) 0.5028(4) 0.31701(8)
H1_2 H 0.3837 0.5364 0.3083
C2_2 C 0.3031(4) 0.4683(4) 0.34232(8)
H2_2 H 0.2823 0.4801 0.3511
C3_2 C 0.3355(4) 0.5222(4) 0.32996(8)
C4_2 C 0.2582(4) 0.3388(4) 0.35418(8)
C5_2 C 0.1718(4) 0.2229(4) 0.37653(8)
C6_2 C 0.3011(4) 0.3980(4) 0.34186(8)
C7_2 C 0.3696(4) 0.4360(4) 0.31646(8)
C8_2 C 0.1222(5) 0.1588(4) 0.38762(9)
C9_2 C 0.4107(5) 0.4219(5) 0.30347(9)
C10_2 C 0.1875(5) 0.3273(5) 0.35984(9)
H3_2 H 0.1683 0.3585 0.3560
C11_2 C 0.2844(5) 0.2903(5) 0.36010(8)
H4_2 H 0.3312 0.2962 0.3564
C12_2 C 0.4092(5) 0.4423(5) 0.28781(8)
H5_2 H 0.3804 0.4659 0.2851
C13_2 C 0.1465(5) 0.2722(4) 0.37058(9)
H6_2 H 0.0996 0.2665 0.3742
C14_2 C 0.2423(5) 0.2341(5) 0.37124(9)
H7_2 H 0.2615 0.2033 0.3752
C15_2 C 0.3363(4) 0.3828(4) 0.32889(8)
H8_2 H 0.3375 0.3365 0.3286
C16_2 C 0.4490(6) 0.4286(5) 0.27606(10)
H9_2 H 0.4467 0.4432 0.2656
C17_2 C 0.4928(7) 0.3934(7) 0.27952(12)
C18_2 C 0.4546(8) 0.3849(8) 0.30676(12)
H10_2 H 0.4577 0.3709 0.3172
C19_2 C 0.4913(8) 0.3699(9) 0.29529(14)
H11_2 H 0.5169 0.3428 0.2978
C20_2 C 0.1886(4) 0.5204(4) 0.33127(11)
H12_2 H 0.1804 0.5006 0.3419
H13_2 H 0.1910 0.4837 0.3241
H14_2 H 0.1464 0.5282 0.3282
C21_2 C 0.5331(12) 0.3766(9) 0.26716(17)
C22_2 C 0.2628(4) 0.5955(4) 0.33048(8)
C23_2 C 0.3344(4) 0.5976(4) 0.33047(7)
O1_2 O -0.0000 0.0000 0.41270(8)
O2_2 O 0.1453(3) 0.1122(4) 0.39124(7)
O3_2 O 0.5271(6) 0.3856(4) 0.25323(9)
O4_2 O 0.5715(14) 0.3438(11) 0.2709(2)
O5_2 O 0.0610(3) 0.1551(3) 0.39248(7)
Zn2_2 Zn -0.0000 0.0000 0.43680(3)
C24_2 C 0.4972(4) 0.8626(6) 0.31701(8)
H15_2 H 0.4636 0.8472 0.3083
C25_2 C 0.5317(4) 0.8347(6) 0.34232(8)
H16_2 H 0.5199 0.8021 0.3511
C26_2 C 0.4778(4) 0.8132(6) 0.32996(8)
C27_2 C 0.6612(4) 0.9193(6) 0.35418(8)
C28_2 C 0.7771(4) 0.9488(6) 0.37653(8)
C29_2 C 0.6020(4) 0.9030(6) 0.34186(8)
C30_2 C 0.5640(4) 0.9335(6) 0.31646(8)
C31_2 C 0.8412(4) 0.9633(6) 0.38762(9)
C32_2 C 0.5781(5) 0.9887(7) 0.30347(9)
C33_2 C 0.6727(5) 0.8601(7) 0.35984(9)
H17_2 H 0.6415 0.8097 0.3560
C34_2 C 0.7097(5) 0.9940(7) 0.36010(8)
C35_2 C 0.5577(5) 0.9668(7) 0.28781(8)
H19_2 H 0.5341 0.9144 0.2851
C36_2 C 0.7278(4) 0.8742(6) 0.37058(9)
H20_2 H 0.7335 0.8330 0.3742
C38_2 C 0.6172(4) 0.9534(6) 0.32889(8)
C43_2 C 0.4796(4) 0.6681(6) 0.33127(11)
H26_2 H 0.4994 0.6797 0.3419
H27_2 H 0.5163 0.7072 0.3241
H28_2 H 0.4718 0.6181 0.3282
C44_2 C 0.4045(4) 0.6672(6) 0.33048(8)
C45_2 C 0.4024(4) 0.7367(6) 0.33047(7)
O7_2 O 0.8449(3) 0.9058(4) 0.39248(7)
C47_2 C 0.1374(6) 0.6345(4) 0.31701(8)
H29_2 H 0.1528 0.6163 0.3083
C48_2 C 0.1653(6) 0.6969(4) 0.34232(8)
H30_2 H 0.1979 0.7177 0.3511
C49_2 C 0.1868(6) 0.6645(4) 0.32996(8)
C50_2 C 0.0807(6) 0.7418(4) 0.35418(8)
C51_2 C 0.0512(6) 0.8282(4) 0.37653(8)
C52_2 C 0.0970(6) 0.6989(4) 0.34186(8)
C53_2 C 0.0665(6) 0.6304(4) 0.31646(8)
C54_2 C 0.0367(6) 0.8778(5) 0.38762(9)
C55_2 C 0.0113(7) 0.5893(5) 0.30347(9)
C56_2 C 0.1399(7) 0.8125(5) 0.35984(9)
H31_2 H 0.1903 0.8317 0.3560
C57_2 C 0.0060(7) 0.7156(5) 0.36010(8)
C58_2 C 0.0332(7) 0.5908(5) 0.28781(8)
H33_2 H 0.0856 0.6196 0.2851
C59_2 C 0.1258(6) 0.8535(5) 0.37058(9)
H34_2 H 0.1670 0.9004 0.3742
C61_2 C 0.0466(6) 0.6637(4) 0.32889(8)
C66_2 C 0.3319(6) 0.8114(4) 0.33127(11)
H40_2 H 0.3203 0.8196 0.3419
H41_2 H 0.2928 0.8090 0.3241
H42_2 H 0.3819 0.8536 0.3282
C67_2 C 0.3328(6) 0.7372(4) 0.33048(8)
C68_2 C 0.2633(6) 0.6656(4) 0.33047(7)
O11_2 O 0.0942(4) 0.9390(3) 0.39248(7)
O17_2 O 0.1919(7) 0.0523(4) 0.41990(9)
O20_2 O 0.1057(18) 0.0105(11) 0.4376(2)
Zn8_2 Zn 0.92006(6) 0.89615(4) 0.405996(8)
Zn10_2 Zn 0.58672(6) 0.35724(5) 0.239330(8)
O1_3 O -0.0000 1.0000 0.41270(8)
Zn2_3 Zn -0.0000 1.0000 0.43680(3)
O1_4 O 1.0000 0.0000 0.41270(8)
Zn2_4 Zn 1.0000 0.0000 0.43680(3)
H32_2 H 0.9651 0.6688 0.3564
C60_2 C 0.9919(7) 0.7577(5) 0.37124(9)
H35_2 H 0.9419 0.7385 0.3752
H36_2 H 0.9991 0.6625 0.3286
C62_2 C 0.9797(8) 0.5510(6) 0.27606(10)
H37_2 H 0.9966 0.5533 0.2656
C63_2 C 0.9007(10) 0.5072(7) 0.27952(12)
C64_2 C 0.9304(11) 0.5454(8) 0.30676(12)
H38_2 H 0.9133 0.5423 0.3172
C65_2 C 0.8787(12) 0.5087(8) 0.29529(14)
H39_2 H 0.8260 0.4831 0.2978
O10_2 O 0.9670(5) 0.8547(3) 0.39124(7)
C69_2 C 0.8436(15) 0.4669(12) 0.26716(17)
O12_2 O 0.8586(7) 0.4729(6) 0.25323(9)
O13_2 O 0.7724(18) 0.4285(14) 0.2709(2)
O16_2 O 0.9477(4) 0.1396(6) 0.41990(9)
O19_2 O 0.9895(11) 0.0952(14) 0.4376(2)
Zn11_2 Zn 0.77051(4) 0.41328(6) 0.239330(8)
O1_5 O 1.0000 1.0000 0.41270(8)
Zn2_5 Zn 1.0000 1.0000 0.43680(3)
O18_2 O 0.8604(6) 0.8081(7) 0.41990(9)
O21_2 O 0.9048(14) 0.8943(18) 0.4376(2)
C24_3 C 0.1638(4) 0.1960(6) 0.65035(8)
H15_3 H 0.1302 0.1806 0.6417
C25_3 C 0.1983(4) 0.1681(6) 0.67566(8)
H16_3 H 0.1865 0.1355 0.6845
C26_3 C 0.1444(4) 0.1466(6) 0.66330(8)
C27_3 C 0.3278(4) 0.2527(6) 0.68752(8)
C28_3 C 0.4437(4) 0.2822(6) 0.70987(8)
C29_3 C 0.2686(4) 0.2364(6) 0.67520(8)
C30_3 C 0.2306(4) 0.2669(6) 0.64980(8)
C31_3 C 0.5078(4) 0.2967(6) 0.72096(9)
C32_3 C 0.2447(5) 0.3221(7) 0.63681(9)
C33_3 C 0.3393(5) 0.1935(7) 0.69318(9)
H17_3 H 0.3081 0.1431 0.6894
C34_3 C 0.3763(5) 0.3274(7) 0.69344(8)
H18_3 H 0.3704 0.3683 0.6898
C35_3 C 0.2243(5) 0.3002(7) 0.62115(8)
H19_3 H 0.2007 0.2478 0.6185
C36_3 C 0.3944(4) 0.2076(6) 0.70392(9)
H20_3 H 0.4001 0.1664 0.7076
C37_3 C 0.4325(5) 0.3415(7) 0.70458(9)
H21_3 H 0.4633 0.3915 0.7086
C38_3 C 0.2838(4) 0.2868(6) 0.66223(8)
H22_3 H 0.3301 0.3343 0.6620
C39_3 C 0.2380(5) 0.3537(8) 0.60940(10)
H23_3 H 0.2234 0.3368 0.5990
C40_3 C 0.2732(7) 0.4327(10) 0.61286(12)
C41_3 C 0.2817(8) 0.4030(11) 0.64010(12)
H24_3 H 0.2957 0.4201 0.6506
C42_3 C 0.2967(9) 0.4547(12) 0.62863(14)
H25_3 H 0.3238 0.5074 0.6312
C43_3 C 0.1462(4) 0.0015(6) 0.66461(11)
H26_3 H 0.1660 0.0131 0.6753
H27_3 H 0.1829 0.0406 0.6575
C44_3 C 0.0711(4) 0.0006(6) 0.66382(8)
C45_3 C 0.0690(4) 0.0701(6) 0.66381(7)
O6_3 O 0.5544(4) 0.3664(5) 0.72458(7)
O7_3 O 0.5115(3) 0.2392(4) 0.72582(7)
C46_3 C 0.2900(9) 0.4898(15) 0.60050(17)
O8_3 O 0.2810(4) 0.4748(7) 0.58657(9)
O9_3 O 0.3228(11) 0.5610(18) 0.6043(2)
H42_3 H 0.0485 0.1870 0.6616
Zn6_3 Zn 0.64276(5) 0.41328(6) 0.739330(8)
Zn8_3 Zn 0.58672(6) 0.22949(4) 0.739330(8)
Zn9_3 Zn 0.30943(5) 0.56282(4) 0.572663(8)
Zn14_6 Zn 0.3333 0.6667 0.60347(3)
C1_3 C 0.0321(4) 0.8362(4) 0.65035(8)
H1_3 H 0.0503 0.8698 0.6417
C3_3 C 0.0021(4) 0.8556(4) 0.66330(8)
C7_3 C 0.0362(4) 0.7694(4) 0.64980(8)
C9_3 C 0.0773(5) 0.7553(5) 0.63681(9)
C12_3 C 0.0758(5) 0.7757(5) 0.62115(8)
H5_3 H 0.0470 0.7993 0.6185
C15_3 C 0.0029(4) 0.7162(4) 0.66223(8)
H8_3 H 0.0041 0.6699 0.6620
C16_3 C 0.1156(6) 0.7620(5) 0.60940(10)
H9_3 H 0.1133 0.7766 0.5990
C17_3 C 0.1594(7) 0.7268(7) 0.61286(12)
C18_3 C 0.1212(8) 0.7183(8) 0.64010(12)
H10_3 H 0.1243 0.7043 0.6506
C19_3 C 0.1579(8) 0.7033(9) 0.62863(14)
H11_3 H 0.1835 0.6762 0.6312
C21_3 C 0.1997(12) 0.7100(9) 0.60050(17)
C23_3 C 0.0010(4) 0.9310(4) 0.66381(7)
O3_3 O 0.1937(6) 0.7190(4) 0.58657(9)
O4_3 O 0.2381(14) 0.6772(11) 0.6043(2)
H28_3 H 0.1384 0.9515 0.6616
Zn10_3 Zn 0.25339(6) 0.69057(5) 0.572663(8)
C48_3 C 0.8319(6) 0.0303(4) 0.67566(8)
H30_3 H 0.8645 0.0511 0.6845
C50_3 C 0.7473(6) 0.0752(4) 0.68752(8)
C51_3 C 0.7178(6) 0.1616(4) 0.70987(8)
C52_3 C 0.7636(6) 0.0323(4) 0.67520(8)
C54_3 C 0.7033(6) 0.2112(5) 0.72096(9)
C56_3 C 0.8065(7) 0.1459(5) 0.69318(9)
H31_3 H 0.8569 0.1651 0.6894
C57_3 C 0.6726(7) 0.0490(5) 0.69344(8)
H32_3 H 0.6317 0.0022 0.6898
C59_3 C 0.7924(6) 0.1869(5) 0.70392(9)
H34_3 H 0.8336 0.2338 0.7076
C60_3 C 0.6585(7) 0.0911(5) 0.70458(9)
H35_3 H 0.6085 0.0719 0.7086
C66_3 C 0.9985(6) 0.1448(4) 0.66461(11)
H40_3 H 0.9869 0.1530 0.6753
H41_3 H 0.9594 0.1424 0.6575
C67_3 C 0.9994(6) 0.0706(4) 0.66382(8)
O10_3 O 0.6336(5) 0.1881(3) 0.72458(7)
O11_3 O 0.7608(4) 0.2724(3) 0.72582(7)
Zn5_3 Zn 0.77051(4) 0.35724(5) 0.739330(8)
C2_3 C 0.9697(4) 0.8017(4) 0.67566(8)
H2_3 H 0.9489 0.8135 0.6845
C4_3 C 0.9248(4) 0.6722(4) 0.68752(8)
C5_3 C 0.8384(4) 0.5563(4) 0.70987(8)
C6_3 C 0.9677(4) 0.7314(4) 0.67520(8)
C8_3 C 0.7888(5) 0.4922(4) 0.72096(9)
C10_3 C 0.8541(5) 0.6607(5) 0.69318(9)
H3_3 H 0.8349 0.6919 0.6894
C11_3 C 0.9510(5) 0.6237(5) 0.69344(8)
H4_3 H 0.9978 0.6296 0.6898
C13_3 C 0.8131(5) 0.6056(4) 0.70392(9)
H6_3 H 0.7662 0.5999 0.7076
C14_3 C 0.9089(5) 0.5675(5) 0.70458(9)
H7_3 H 0.9281 0.5367 0.7086
C20_3 C 0.8552(4) 0.8538(4) 0.66461(11)
H12_3 H 0.8470 0.8340 0.6753
H13_3 H 0.8576 0.8171 0.6575
H14_3 H 0.8130 0.8616 0.6616
C22_3 C 0.9294(4) 0.9289(4) 0.66382(8)
O1_6 O 0.6666 0.3334 0.74604(8)
O2_3 O 0.8119(3) 0.4456(4) 0.72458(7)
O5_3 O 0.7276(3) 0.4885(3) 0.72582(7)
Zn2_6 Zn 0.6666 0.3334 0.77014(3)
C47_3 C 0.8040(6) 0.9679(4) 0.65035(8)
H29_3 H 0.8194 0.9497 0.6417
C49_3 C 0.8534(6) 0.9979(4) 0.66330(8)
C53_3 C 0.7331(6) 0.9638(4) 0.64980(8)
C55_3 C 0.6779(7) 0.9227(5) 0.63681(9)
C58_3 C 0.6998(7) 0.9242(5) 0.62115(8)
H33_3 H 0.7522 0.9530 0.6185
C61_3 C 0.7132(6) 0.9971(4) 0.66223(8)
H36_3 H 0.6657 0.9959 0.6620
C62_3 C 0.6463(8) 0.8844(6) 0.60940(10)
H37_3 H 0.6632 0.8867 0.5990
C63_3 C 0.5673(10) 0.8406(7) 0.61286(12)
C64_3 C 0.5970(11) 0.8788(8) 0.64010(12)
H38_3 H 0.5799 0.8757 0.6506
C65_3 C 0.5453(12) 0.8421(8) 0.62863(14)
H39_3 H 0.4926 0.8165 0.6312
C68_3 C 0.9299(6) 0.9990(4) 0.66381(7)
C69_3 C 0.5102(15) 0.8003(12) 0.60050(17)
O12_3 O 0.5252(7) 0.8063(6) 0.58657(9)
O13_3 O 0.4390(18) 0.7619(14) 0.6043(2)
O16_3 O 0.6144(4) 0.4729(6) 0.75323(9)
O17_3 O 0.8586(7) 0.3856(4) 0.75323(9)
O18_3 O 0.5271(6) 0.1414(7) 0.75323(9)
O19_3 O 0.6562(11) 0.4285(14) 0.7709(2)
O20_3 O 0.7724(18) 0.3438(11) 0.7709(2)
O21_3 O 0.5715(14) 0.2276(18) 0.7709(2)
Zn11_3 Zn 0.43718(4) 0.74661(6) 0.572663(8)
C5_4 C 0.1104(4) 0.4949(4) 0.54320(8)
C8_4 C 0.1745(4) 0.5445(5) 0.55429(9)
C10_4 C 0.0060(5) 0.4792(5) 0.52651(9)
C11_4 C 0.0430(5) 0.3823(5) 0.52677(8)
H4_4 H 0.0371 0.3355 0.5231
C13_4 C 0.0611(4) 0.5202(5) 0.53725(9)
H6_4 H 0.0668 0.5671 0.5409
C14_4 C 0.0992(5) 0.4244(5) 0.53791(9)
H7_4 H 0.1300 0.4052 0.5419
O1_7 O 0.3333 0.6667 0.57937(8)
O2_4 O 0.2211(4) 0.5214(3) 0.55791(7)
O5_4 O 0.1782(3) 0.6057(3) 0.55915(7)
O14 O 0.3003(5) 0.7789(4) 0.55791(7)
O15 O 0.4786(3) 0.6997(5) 0.55791(7)
O22 O 0.4275(4) 0.8218(3) 0.55915(7)
O23 O 0.3943(3) 0.5725(4) 0.55915(7)
C1_4 C 0.8305(4) 0.3012(4) 0.48368(8)
H1_4 H 0.7969 0.2830 0.4750
C2_4 C 0.8650(4) 0.3636(4) 0.50899(8)
H2_4 H 0.8532 0.3844 0.5178
C3_4 C 0.8111(4) 0.3312(4) 0.49663(8)
C4_4 C 0.9945(4) 0.4085(4) 0.52085(8)
C6_4 C 0.9353(4) 0.3656(4) 0.50853(8)
C7_4 C 0.8973(4) 0.2971(4) 0.48313(8)
C9_4 C 0.9114(5) 0.2560(5) 0.47014(9)
H3_4 H 0.9748 0.4984 0.5227
C12_4 C 0.8910(5) 0.2575(5) 0.45448(8)
H5_4 H 0.8674 0.2863 0.4518
C15_4 C 0.9505(4) 0.3304(4) 0.49556(8)
H8_4 H 0.9968 0.3292 0.4953
C16_4 C 0.9047(5) 0.2177(6) 0.44273(10)
H9_4 H 0.8901 0.2200 0.4323
C17_4 C 0.9399(7) 0.1739(7) 0.44619(12)
C18_4 C 0.9484(8) 0.2121(8) 0.47343(12)
H10_4 H 0.9624 0.2090 0.4839
C19_4 C 0.9634(9) 0.1754(8) 0.46196(14)
H11_4 H 0.9905 0.1498 0.4645
C20_4 C 0.8129(4) 0.4781(4) 0.49794(11)
H12_4 H 0.8327 0.4863 0.5086
H13_4 H 0.8496 0.4757 0.4908
H14_4 H 0.8051 0.5203 0.4949
C21_4 C 0.9567(9) 0.1336(12) 0.43383(17)
C22_4 C 0.7378(4) 0.4039(4) 0.49715(8)
C23_4 C 0.7357(4) 0.3323(4) 0.49714(7)
C24_4 C 0.4707(6) 0.1695(4) 0.48368(8)
H15_4 H 0.4861 0.2031 0.4750
C25_4 C 0.4986(6) 0.1350(4) 0.50899(8)
H16_4 H 0.5312 0.1468 0.5178
C26_4 C 0.5201(6) 0.1889(4) 0.49663(8)
C27_4 C 0.4140(6) 0.0055(4) 0.52085(8)
C29_4 C 0.4303(6) 0.0647(4) 0.50853(8)
C30_4 C 0.3998(6) 0.1027(4) 0.48313(8)
C32_4 C 0.3446(7) 0.0886(5) 0.47014(9)
H17_4 H 0.5236 0.0252 0.5227
C35_4 C 0.3665(7) 0.1090(5) 0.45448(8)
H19_4 H 0.4189 0.1326 0.4518
C38_4 C 0.3799(6) 0.0495(4) 0.49556(8)
H22_4 H 0.3324 0.0032 0.4953
C39_4 C 0.3130(8) 0.0953(5) 0.44273(10)
H23_4 H 0.3299 0.1099 0.4323
C40_4 C 0.2340(10) 0.0601(7) 0.44619(12)
C41_4 C 0.2637(11) 0.0516(8) 0.47343(12)
H24_4 H 0.2466 0.0376 0.4839
C42_4 C 0.2120(12) 0.0366(9) 0.46196(14)
H25_4 H 0.1593 0.0095 0.4645
C43_4 C 0.6652(6) 0.1871(4) 0.49794(11)
H26_4 H 0.6536 0.1673 0.5086
H27_4 H 0.6261 0.1504 0.4908
H28_4 H 0.7152 0.1949 0.4949
C44_4 C 0.6661(6) 0.2622(4) 0.49715(8)
C45_4 C 0.5966(6) 0.2643(4) 0.49714(7)
C46_4 C 0.1769(15) 0.0433(9) 0.43383(17)
C47_4 C 0.6988(4) 0.5293(6) 0.48368(8)
H29_4 H 0.7170 0.5139 0.4750
C48_4 C 0.6364(4) 0.5014(6) 0.50899(8)
H30_4 H 0.6156 0.4688 0.5178
C49_4 C 0.6688(4) 0.4799(6) 0.49663(8)
C50_4 C 0.5915(4) 0.5860(6) 0.52085(8)
C51_4 C 0.5051(4) 0.6155(6) 0.54320(8)
C52_4 C 0.6344(4) 0.5697(6) 0.50853(8)
C53_4 C 0.7029(4) 0.6002(6) 0.48313(8)
C54_4 C 0.4555(5) 0.6300(6) 0.55429(9)
C55_4 C 0.7440(5) 0.6554(7) 0.47014(9)
C56_4 C 0.5208(5) 0.5268(7) 0.52651(9)
H31_4 H 0.5016 0.4764 0.5227
C57_4 C 0.6177(5) 0.6607(7) 0.52677(8)
H32_4 H 0.6645 0.7016 0.5231
C58_4 C 0.7425(5) 0.6335(7) 0.45448(8)
H33_4 H 0.7137 0.5811 0.4518
C59_4 C 0.4798(5) 0.5409(6) 0.53725(9)
H34_4 H 0.4329 0.4997 0.5409
C60_4 C 0.5756(5) 0.6748(7) 0.53791(9)
H35_4 H 0.5948 0.7248 0.5419
C61_4 C 0.6696(4) 0.6201(6) 0.49556(8)
H36_4 H 0.6708 0.6676 0.4953
C62_4 C 0.7823(6) 0.6870(8) 0.44273(10)
H37_4 H 0.7800 0.6701 0.4323
C63_4 C 0.8261(7) 0.7660(10) 0.44619(12)
C64_4 C 0.7879(8) 0.7363(11) 0.47343(12)
H38_4 H 0.7910 0.7534 0.4839
C65_4 C 0.8246(8) 0.7880(12) 0.46196(14)
H39_4 H 0.8502 0.8407 0.4645
C66_4 C 0.5219(4) 0.3348(6) 0.49794(11)
H40_4 H 0.5137 0.3464 0.5086
H41_4 H 0.5243 0.3739 0.4908
H42_4 H 0.4797 0.2848 0.4949
C67_4 C 0.5961(4) 0.3339(6) 0.49715(8)
C68_4 C 0.6677(4) 0.4034(6) 0.49714(7)
C69_4 C 0.8664(12) 0.8231(15) 0.43383(17)
C28_4 C 0.3845(6) 0.8896(4) 0.54320(8)
C31_4 C 0.3700(6) 0.8255(4) 0.55429(9)
C33_4 C 0.4732(7) 0.9940(5) 0.52651(9)
C34_4 C 0.3393(7) 0.9570(5) 0.52677(8)
H18_4 H 0.2984 0.9629 0.5231
C36_4 C 0.4591(6) 0.9389(4) 0.53725(9)
H20_4 H 0.5003 0.9332 0.5409
C37_4 C 0.3252(7) 0.9008(5) 0.53791(9)
H21_4 H 0.2752 0.8700 0.5419
C2_5 C 0.1983(4) 0.0303(4) 0.17566(8)
H2_5 H 0.1865 0.0511 0.1845
C4_5 C 0.3278(4) 0.0752(4) 0.18752(8)
C5_5 C 0.4437(4) 0.1616(4) 0.20987(8)
C6_5 C 0.2686(4) 0.0323(4) 0.17520(8)
C8_5 C 0.5078(4) 0.2112(5) 0.22096(9)
C10_5 C 0.3393(5) 0.1459(5) 0.19318(9)
H3_5 H 0.3081 0.1651 0.1894
C11_5 C 0.3763(5) 0.0490(5) 0.19344(8)
H4_5 H 0.3704 0.0022 0.1898
C13_5 C 0.3944(4) 0.1869(5) 0.20392(9)
H6_5 H 0.4001 0.2338 0.2076
C14_5 C 0.4325(5) 0.0911(5) 0.20458(9)
H7_5 H 0.4633 0.0719 0.2086
C20_5 C 0.1462(4) 0.1448(4) 0.16461(11)
H12_5 H 0.1660 0.1530 0.1753
H13_5 H 0.1829 0.1424 0.1575
H14_5 H 0.1384 0.1870 0.1616
C22_5 C 0.0711(4) 0.0706(4) 0.16382(8)
O1_8 O 0.6666 0.3334 0.24604(8)
O2_5 O 0.5544(4) 0.1881(3) 0.22458(7)
O5_5 O 0.5115(3) 0.2724(3) 0.22582(7)
C47_5 C 0.0321(4) 0.1960(6) 0.15035(8)
H29_5 H 0.0503 0.1806 0.1417
C49_5 C 0.0021(4) 0.1466(6) 0.16330(8)
C53_5 C 0.0362(4) 0.2669(6) 0.14980(8)
C55_5 C 0.0773(5) 0.3221(7) 0.13681(9)
C58_5 C 0.0758(5) 0.3002(7) 0.12115(8)
H33_5 H 0.0470 0.2478 0.1185
C61_5 C 0.0029(4) 0.2868(6) 0.16223(8)
H36_5 H 0.0041 0.3343 0.1620
C62_5 C 0.1156(6) 0.3537(8) 0.10940(10)
H37_5 H 0.1133 0.3368 0.0990
C63_5 C 0.1594(7) 0.4327(10) 0.11286(12)
C64_5 C 0.1212(8) 0.4030(11) 0.14010(12)
H38_5 H 0.1243 0.4201 0.1506
C65_5 C 0.1579(8) 0.4547(12) 0.12863(14)
H39_5 H 0.1835 0.5074 0.1312
C68_5 C 0.0010(4) 0.0701(6) 0.16381(7)
C69_5 C 0.1997(12) 0.4898(15) 0.10050(17)
O14_2 O 0.6336(5) 0.4456(4) 0.22458(7)
O15_2 O 0.8119(3) 0.3664(5) 0.22458(7)
O22_2 O 0.7608(4) 0.4885(3) 0.22582(7)
O23_2 O 0.7276(3) 0.2392(4) 0.22582(7)
C1_5 C 0.1638(4) 0.9679(4) 0.15035(8)
H1_5 H 0.1302 0.9497 0.1417
C3_5 C 0.1444(4) 0.9979(4) 0.16330(8)
C7_5 C 0.2306(4) 0.9638(4) 0.14980(8)
C9_5 C 0.2447(5) 0.9227(5) 0.13681(9)
C12_5 C 0.2243(5) 0.9242(5) 0.12115(8)
H5_5 H 0.2007 0.9530 0.1185
C15_5 C 0.2838(4) 0.9971(4) 0.16223(8)
H8_5 H 0.3301 0.9959 0.1620
C16_5 C 0.2380(5) 0.8844(6) 0.10940(10)
H9_5 H 0.2234 0.8867 0.0990
C17_5 C 0.2732(7) 0.8406(7) 0.11286(12)
C18_5 C 0.2817(8) 0.8788(8) 0.14010(12)
H10_5 H 0.2957 0.8757 0.1506
C19_5 C 0.2967(9) 0.8421(8) 0.12863(14)
H11_5 H 0.3238 0.8165 0.1312
C21_5 C 0.2900(9) 0.8003(12) 0.10050(17)
C23_5 C 0.0690(4) 0.9990(4) 0.16381(7)
H28_5 H 0.0485 0.8616 0.1616
C48_5 C 0.9697(4) 0.1681(6) 0.17566(8)
H30_5 H 0.9489 0.1355 0.1845
C50_5 C 0.9248(4) 0.2527(6) 0.18752(8)
C51_5 C 0.8384(4) 0.2822(6) 0.20987(8)
C52_5 C 0.9677(4) 0.2364(6) 0.17520(8)
C54_5 C 0.7888(5) 0.2967(6) 0.22096(9)
C56_5 C 0.8541(5) 0.1935(7) 0.19318(9)
H31_5 H 0.8349 0.1431 0.1894
C57_5 C 0.9510(5) 0.3274(7) 0.19344(8)
H32_5 H 0.9978 0.3683 0.1898
C59_5 C 0.8131(5) 0.2076(6) 0.20392(9)
H34_5 H 0.7662 0.1664 0.2076
C60_5 C 0.9089(5) 0.3415(7) 0.20458(9)
H35_5 H 0.9281 0.3915 0.2086
C66_5 C 0.8552(4) 0.0015(6) 0.16461(11)
H40_5 H 0.8470 0.0131 0.1753
H41_5 H 0.8576 0.0406 0.1575
C67_5 C 0.9294(4) 0.0006(6) 0.16382(8)
C24_5 C 0.8040(6) 0.8362(4) 0.15035(8)
H15_5 H 0.8194 0.8698 0.1417
C25_5 C 0.8319(6) 0.8017(4) 0.17566(8)
H16_5 H 0.8645 0.8135 0.1845
C26_5 C 0.8534(6) 0.8556(4) 0.16330(8)
C27_5 C 0.7473(6) 0.6722(4) 0.18752(8)
C28_5 C 0.7178(6) 0.5563(4) 0.20987(8)
C29_5 C 0.7636(6) 0.7314(4) 0.17520(8)
C30_5 C 0.7331(6) 0.7694(4) 0.14980(8)
C31_5 C 0.7033(6) 0.4922(4) 0.22096(9)
C32_5 C 0.6779(7) 0.7553(5) 0.13681(9)
C33_5 C 0.8065(7) 0.6607(5) 0.19318(9)
H17_5 H 0.8569 0.6919 0.1894
C34_5 C 0.6726(7) 0.6237(5) 0.19344(8)
H18_5 H 0.6317 0.6296 0.1898
C35_5 C 0.6998(7) 0.7757(5) 0.12115(8)
H19_5 H 0.7522 0.7993 0.1185
C36_5 C 0.7924(6) 0.6056(4) 0.20392(9)
H20_5 H 0.8336 0.5999 0.2076
C37_5 C 0.6585(7) 0.5675(5) 0.20458(9)
H21_5 H 0.6085 0.5367 0.2086
C38_5 C 0.7132(6) 0.7162(4) 0.16223(8)
H22_5 H 0.6657 0.6699 0.1620
C39_5 C 0.6463(8) 0.7620(5) 0.10940(10)
H23_5 H 0.6632 0.7766 0.0990
C40_5 C 0.5673(10) 0.7268(7) 0.11286(12)
C41_5 C 0.5970(11) 0.7183(8) 0.14010(12)
H24_5 H 0.5799 0.7043 0.1506
C42_5 C 0.5453(12) 0.7033(9) 0.12863(14)
H25_5 H 0.4926 0.6762 0.1312
C43_5 C 0.9985(6) 0.8538(4) 0.16461(11)
H26_5 H 0.9869 0.8340 0.1753
H27_5 H 0.9594 0.8171 0.1575
C44_5 C 0.9994(6) 0.9289(4) 0.16382(8)
C45_5 C 0.9299(6) 0.9310(4) 0.16381(7)
C46_5 C 0.5102(15) 0.7100(9) 0.10050(17)
H42_5 H 0.8130 0.9515 0.1616
O1_9 O -0.0000 0.0000 0.91270(8)
O15_3 O 0.1453(3) 0.0330(5) 0.89124(7)
O22_3 O 0.0942(4) 0.1551(3) 0.89248(7)
O1_10 O -0.0000 1.0000 0.91270(8)
O23_3 O 0.0610(3) 0.9058(4) 0.89248(7)
O1_11 O 1.0000 0.0000 0.91270(8)
H32_6 H 0.3312 0.0349 0.8564
C60_6 C 0.2423(5) 0.0081(7) 0.87124(9)
H35_6 H 0.2615 0.0581 0.8752
H36_6 H 0.3375 0.0009 0.8286
C62_6 C 0.4490(6) 0.0203(8) 0.77606(10)
H37_6 H 0.4467 0.0034 0.7656
C63_6 C 0.4928(7) 0.0993(10) 0.77952(12)
C64_6 C 0.4546(8) 0.0696(11) 0.80676(12)
H38_6 H 0.4577 0.0867 0.8172
C65_6 C 0.4913(8) 0.1213(12) 0.79529(14)
H39_6 H 0.5169 0.1740 0.7978
C69_6 C 0.5331(12) 0.1564(15) 0.76716(17)
O14_3 O 0.9670(5) 0.1122(4) 0.89124(7)
C1_6 C 0.4972(4) 0.6345(4) 0.81701(8)
H1_6 H 0.4636 0.6163 0.8083
C2_6 C 0.5317(4) 0.6969(4) 0.84232(8)
H2_6 H 0.5199 0.7177 0.8511
C3_6 C 0.4778(4) 0.6645(4) 0.82996(8)
C4_6 C 0.6612(4) 0.7418(4) 0.85418(8)
C5_6 C 0.7771(4) 0.8282(4) 0.87653(8)
C6_6 C 0.6020(4) 0.6989(4) 0.84186(8)
C7_6 C 0.5640(4) 0.6304(4) 0.81646(8)
C8_6 C 0.8412(4) 0.8778(5) 0.88762(9)
C9_6 C 0.5781(5) 0.5893(5) 0.80347(9)
C10_6 C 0.6727(5) 0.8125(5) 0.85984(9)
H3_6 H 0.6415 0.8317 0.8560
C11_6 C 0.7097(5) 0.7156(5) 0.86010(8)
H4_6 H 0.7038 0.6688 0.8564
C12_6 C 0.5577(5) 0.5908(5) 0.78781(8)
H5_6 H 0.5341 0.6196 0.7851
C13_6 C 0.7278(4) 0.8535(5) 0.87058(9)
H6_6 H 0.7335 0.9004 0.8742
C14_6 C 0.7659(5) 0.7577(5) 0.87124(9)
H7_6 H 0.7967 0.7385 0.8752
C15_6 C 0.6172(4) 0.6637(4) 0.82889(8)
H8_6 H 0.6635 0.6625 0.8286
C16_6 C 0.5714(5) 0.5510(6) 0.77606(10)
H9_6 H 0.5568 0.5533 0.7656
C17_6 C 0.6066(7) 0.5072(7) 0.77952(12)
C18_6 C 0.6151(8) 0.5454(8) 0.80676(12)
H10_6 H 0.6291 0.5423 0.8172
C19_6 C 0.6301(9) 0.5087(8) 0.79529(14)
H11_6 H 0.6572 0.4831 0.7978
C20_6 C 0.4796(4) 0.8114(4) 0.83127(11)
H12_6 H 0.4994 0.8196 0.8419
H13_6 H 0.5163 0.8090 0.8241
H14_6 H 0.4718 0.8536 0.8282
C21_6 C 0.6234(9) 0.4669(12) 0.76716(17)
C22_6 C 0.4045(4) 0.7372(4) 0.83048(8)
C23_6 C 0.4024(4) 0.6656(4) 0.83047(7)
O1_12 O 1.0000 1.0000 0.91270(8)
O2_6 O 0.8878(4) 0.8547(3) 0.89124(7)
O5_6 O 0.8449(3) 0.9390(3) 0.89248(7)
C24_6 C 0.1374(6) 0.5028(4) 0.81701(8)
H15_6 H 0.1528 0.5364 0.8083
C25_6 C 0.1653(6) 0.4683(4) 0.84232(8)
H16_6 H 0.1979 0.4801 0.8511
C26_6 C 0.1868(6) 0.5222(4) 0.82996(8)
C27_6 C 0.0807(6) 0.3388(4) 0.85418(8)
C28_6 C 0.0512(6) 0.2229(4) 0.87653(8)
C29_6 C 0.0970(6) 0.3980(4) 0.84186(8)
C30_6 C 0.0665(6) 0.4360(4) 0.81646(8)
C31_6 C 0.0367(6) 0.1588(4) 0.88762(9)
C32_6 C 0.0113(7) 0.4219(5) 0.80347(9)
C33_6 C 0.1399(7) 0.3273(5) 0.85984(9)
H17_6 H 0.1903 0.3585 0.8560
C34_6 C 0.0060(7) 0.2903(5) 0.86010(8)
C35_6 C 0.0332(7) 0.4423(5) 0.78781(8)
H19_6 H 0.0856 0.4659 0.7851
C36_6 C 0.1258(6) 0.2722(4) 0.87058(9)
H20_6 H 0.1670 0.2665 0.8742
C38_6 C 0.0466(6) 0.3828(4) 0.82889(8)
C43_6 C 0.3319(6) 0.5204(4) 0.83127(11)
H26_6 H 0.3203 0.5006 0.8419
H27_6 H 0.2928 0.4837 0.8241
H28_6 H 0.3819 0.5282 0.8282
C44_6 C 0.3328(6) 0.5955(4) 0.83048(8)
C45_6 C 0.2633(6) 0.5976(4) 0.83047(7)
C47_6 C 0.3655(4) 0.8626(6) 0.81701(8)
H29_6 H 0.3837 0.8472 0.8083
C48_6 C 0.3031(4) 0.8347(6) 0.84232(8)
H30_6 H 0.2823 0.8021 0.8511
C49_6 C 0.3355(4) 0.8132(6) 0.82996(8)
C50_6 C 0.2582(4) 0.9193(6) 0.85418(8)
C51_6 C 0.1718(4) 0.9488(6) 0.87653(8)
C52_6 C 0.3011(4) 0.9030(6) 0.84186(8)
C53_6 C 0.3696(4) 0.9335(6) 0.81646(8)
C54_6 C 0.1222(5) 0.9633(6) 0.88762(9)
C55_6 C 0.4107(5) 0.9887(7) 0.80347(9)
C56_6 C 0.1875(5) 0.8601(7) 0.85984(9)
H31_6 H 0.1683 0.8097 0.8560
C57_6 C 0.2844(5) 0.9940(7) 0.86010(8)
C58_6 C 0.4092(5) 0.9668(7) 0.78781(8)
H33_6 H 0.3804 0.9144 0.7851
C59_6 C 0.1465(5) 0.8742(6) 0.87058(9)
H34_6 H 0.0996 0.8330 0.8742
C61_6 C 0.3363(4) 0.9534(6) 0.82889(8)
C66_6 C 0.1886(4) 0.6681(6) 0.83127(11)
H40_6 H 0.1804 0.6797 0.8419
H41_6 H 0.1910 0.7072 0.8241
H42_6 H 0.1464 0.6181 0.8282
C67_6 C 0.2628(4) 0.6672(6) 0.83048(8)
C68_6 C 0.3344(4) 0.7367(6) 0.83047(7)
H18_6 H 0.9651 0.2962 0.8564
C37_6 C 0.9919(7) 0.2341(5) 0.87124(9)
H21_6 H 0.9419 0.2033 0.8752
H22_6 H 0.9991 0.3365 0.8286
C39_6 C 0.9797(8) 0.4286(5) 0.77606(10)
H23_6 H 0.9966 0.4432 0.7656
C40_6 C 0.9007(10) 0.3934(7) 0.77952(12)
C41_6 C 0.9304(11) 0.3849(8) 0.80676(12)
H24_6 H 0.9133 0.3709 0.8172
C42_6 C 0.8787(12) 0.3699(9) 0.79529(14)
H25_6 H 0.8260 0.3428 0.7978
C46_6 C 0.8436(15) 0.3766(9) 0.76716(17)
Zn14_7 Zn 0.0000 -0.0000 0.56320(3)
Zn14_8 Zn 0.0000 1.0000 0.56320(3)
C28_7 C 0.6155(6) 0.1104(4) 0.45680(8)
C31_7 C 0.6300(6) 0.1745(4) 0.44571(9)
C33_7 C 0.5268(7) 0.0060(5) 0.47349(9)
C34_7 C 0.6607(7) 0.0430(5) 0.47323(8)
H18_7 H 0.7016 0.0371 0.4769
C36_7 C 0.5409(6) 0.0611(4) 0.46275(9)
H20_7 H 0.4997 0.0668 0.4591
C37_7 C 0.6748(7) 0.0992(5) 0.46209(9)
H21_7 H 0.7248 0.1300 0.4581
O6_4 O 0.6997(5) 0.2211(4) 0.44209(7)
O7_4 O 0.5725(4) 0.1782(3) 0.44085(7)
Zn6_4 Zn 0.74661(6) 0.30943(5) 0.427337(8)
Zn8_4 Zn 0.56282(4) 0.25339(6) 0.427337(8)
Zn14_9 Zn 1.0000 -0.0000 0.56320(3)
C1_7 C 0.1695(4) 0.6988(4) 0.51632(8)
H1_7 H 0.2031 0.7170 0.5250
C2_7 C 0.1350(4) 0.6364(4) 0.49101(8)
H2_7 H 0.1468 0.6156 0.4822
C3_7 C 0.1889(4) 0.6688(4) 0.50337(8)
C4_7 C 0.0055(4) 0.5915(4) 0.47915(8)
C6_7 C 0.0647(4) 0.6344(4) 0.49147(8)
C7_7 C 0.1027(4) 0.7029(4) 0.51687(8)
C9_7 C 0.0886(5) 0.7440(5) 0.52986(9)
H3_7 H 0.0252 0.5016 0.4773
C12_7 C 0.1090(5) 0.7425(5) 0.54552(8)
H5_7 H 0.1326 0.7137 0.5482
C15_7 C 0.0495(4) 0.6696(4) 0.50444(8)
H8_7 H 0.0032 0.6708 0.5047
C16_7 C 0.0953(5) 0.7823(6) 0.55727(10)
H9_7 H 0.1099 0.7800 0.5677
C17_7 C 0.0601(7) 0.8261(7) 0.55381(12)
C18_7 C 0.0516(8) 0.7879(8) 0.52657(12)
H10_7 H 0.0376 0.7910 0.5161
C19_7 C 0.0366(9) 0.8246(8) 0.53804(14)
H11_7 H 0.0095 0.8502 0.5355
C20_7 C 0.1871(4) 0.5219(4) 0.50206(11)
H12_7 H 0.1673 0.5137 0.4914
H13_7 H 0.1504 0.5243 0.5092
H14_7 H 0.1949 0.4797 0.5051
C21_7 C 0.0433(9) 0.8664(12) 0.56617(17)
C22_7 C 0.2622(4) 0.5961(4) 0.50285(8)
C23_7 C 0.2643(4) 0.6677(4) 0.50286(7)
O3_4 O 0.0523(4) 0.8604(6) 0.58010(9)
O4_4 O 0.0105(11) 0.9048(14) 0.5624(2)
C24_7 C 0.5293(6) 0.8305(4) 0.51632(8)
H15_7 H 0.5139 0.7969 0.5250
C25_7 C 0.5014(6) 0.8650(4) 0.49101(8)
H16_7 H 0.4688 0.8532 0.4822
C26_7 C 0.4799(6) 0.8111(4) 0.50337(8)
C27_7 C 0.5860(6) 0.9945(4) 0.47915(8)
C29_7 C 0.5697(6) 0.9353(4) 0.49147(8)
C30_7 C 0.6002(6) 0.8973(4) 0.51687(8)
C32_7 C 0.6554(7) 0.9114(5) 0.52986(9)
H17_7 H 0.4764 0.9748 0.4773
C35_7 C 0.6335(7) 0.8910(5) 0.54552(8)
H19_7 H 0.5811 0.8674 0.5482
C38_7 C 0.6201(6) 0.9505(4) 0.50444(8)
H22_7 H 0.6676 0.9968 0.5047
C39_7 C 0.6870(8) 0.9047(5) 0.55727(10)
H23_7 H 0.6701 0.8901 0.5677
C40_7 C 0.7660(10) 0.9399(7) 0.55381(12)
C41_7 C 0.7363(11) 0.9484(8) 0.52657(12)
H24_7 H 0.7534 0.9624 0.5161
C42_7 C 0.7880(12) 0.9634(9) 0.53804(14)
H25_7 H 0.8407 0.9905 0.5355
C43_7 C 0.3348(6) 0.8129(4) 0.50206(11)
H26_7 H 0.3464 0.8327 0.4914
H27_7 H 0.3739 0.8496 0.5092
H28_7 H 0.2848 0.8051 0.5051
C44_7 C 0.3339(6) 0.7378(4) 0.50285(8)
C45_7 C 0.4034(6) 0.7357(4) 0.50286(7)
C46_7 C 0.8231(15) 0.9567(9) 0.56617(17)
O8_4 O 0.8081(7) 0.9477(4) 0.58010(9)
O9_4 O 0.8943(18) 0.9895(11) 0.5624(2)
C47_7 C 0.3012(4) 0.4707(6) 0.51632(8)
H29_7 H 0.2830 0.4861 0.5250
C48_7 C 0.3636(4) 0.4986(6) 0.49101(8)
H30_7 H 0.3844 0.5312 0.4822
C49_7 C 0.3312(4) 0.5201(6) 0.50337(8)
C50_7 C 0.4085(4) 0.4140(6) 0.47915(8)
C51_7 C 0.4949(4) 0.3845(6) 0.45680(8)
C52_7 C 0.3656(4) 0.4303(6) 0.49147(8)
C53_7 C 0.2971(4) 0.3998(6) 0.51687(8)
C54_7 C 0.5445(5) 0.3700(6) 0.44571(9)
C55_7 C 0.2560(5) 0.3446(7) 0.52986(9)
C56_7 C 0.4792(5) 0.4732(7) 0.47349(9)
H31_7 H 0.4984 0.5236 0.4773
C57_7 C 0.3823(5) 0.3393(7) 0.47323(8)
H32_7 H 0.3355 0.2984 0.4769
C58_7 C 0.2575(5) 0.3665(7) 0.54552(8)
H33_7 H 0.2863 0.4189 0.5482
C59_7 C 0.5202(5) 0.4591(6) 0.46275(9)
H34_7 H 0.5671 0.5003 0.4591
C60_7 C 0.4244(5) 0.3252(7) 0.46209(9)
H35_7 H 0.4052 0.2752 0.4581
C61_7 C 0.3304(4) 0.3799(6) 0.50444(8)
H36_7 H 0.3292 0.3324 0.5047
C62_7 C 0.2177(6) 0.3130(8) 0.55727(10)
H37_7 H 0.2200 0.3299 0.5677
C63_7 C 0.1739(7) 0.2340(10) 0.55381(12)
C64_7 C 0.2121(8) 0.2637(11) 0.52657(12)
H38_7 H 0.2090 0.2466 0.5161
C65_7 C 0.1754(8) 0.2120(12) 0.53804(14)
H39_7 H 0.1498 0.1593 0.5355
C66_7 C 0.4781(4) 0.6652(6) 0.50206(11)
H40_7 H 0.4863 0.6536 0.4914
H41_7 H 0.4757 0.6261 0.5092
H42_7 H 0.5203 0.7152 0.5051
C67_7 C 0.4039(4) 0.6661(6) 0.50285(8)
C68_7 C 0.3323(4) 0.5966(6) 0.50286(7)
O10_4 O 0.5214(3) 0.3003(5) 0.44209(7)
O11_4 O 0.6057(3) 0.4275(4) 0.44085(7)
C69_7 C 0.1336(12) 0.1769(15) 0.56617(17)
O12_4 O 0.1396(6) 0.1919(7) 0.58010(9)
O13_4 O 0.0952(14) 0.1057(18) 0.5624(2)
Zn5_4 Zn 0.69057(5) 0.43718(4) 0.427337(8)
Zn9_4 Zn 0.89615(4) 0.97610(5) 0.594004(8)
Zn10_4 Zn 0.02390(5) 0.92006(6) 0.594004(8)
Zn11_4 Zn 0.07994(6) 0.10385(4) 0.594004(8)
Zn14_10 Zn 1.0000 1.0000 0.56320(3)
C5_7 C 0.8896(4) 0.5051(4) 0.45680(8)
C8_7 C 0.8255(4) 0.4555(5) 0.44571(9)
C10_7 C 0.9940(5) 0.5208(5) 0.47349(9)
C11_7 C 0.9570(5) 0.6177(5) 0.47323(8)
H4_7 H 0.9629 0.6645 0.4769
C13_7 C 0.9389(4) 0.4798(5) 0.46275(9)
H6_7 H 0.9332 0.4329 0.4591
C14_7 C 0.9008(5) 0.5756(5) 0.46209(9)
H7_7 H 0.8700 0.5948 0.4581
O1_13 O 0.6667 0.3333 0.42063(8)
O2_7 O 0.7789(4) 0.4786(3) 0.44209(7)
O5_7 O 0.8218(3) 0.3943(3) 0.44085(7)
Zn2_7 Zn 0.6667 0.3333 0.39653(3)
O16_4 O 0.8063(6) 0.2810(4) 0.41343(9)
O17_4 O 0.7190(4) 0.5252(7) 0.41343(9)
O18_4 O 0.4748(7) 0.1937(6) 0.41343(9)
O19_4 O 0.7619(14) 0.3228(11) 0.3957(2)
O20_4 O 0.6772(11) 0.4390(18) 0.3957(2)
O21_4 O 0.5610(18) 0.2381(14) 0.3957(2)
C24_8 C 0.1960(6) 0.1638(4) 0.84965(8)
H15_8 H 0.1806 0.1302 0.8583
C25_8 C 0.1681(6) 0.1983(4) 0.82434(8)
H16_8 H 0.1355 0.1865 0.8155
C26_8 C 0.1466(6) 0.1444(4) 0.83670(8)
C27_8 C 0.2527(6) 0.3278(4) 0.81248(8)
C28_8 C 0.2822(6) 0.4437(4) 0.79013(8)
C29_8 C 0.2364(6) 0.2686(4) 0.82480(8)
C30_8 C 0.2669(6) 0.2306(4) 0.85020(8)
C31_8 C 0.2967(6) 0.5078(4) 0.77904(9)
C32_8 C 0.3221(7) 0.2447(5) 0.86319(9)
C33_8 C 0.1935(7) 0.3393(5) 0.80682(9)
H17_8 H 0.1431 0.3081 0.8106
C34_8 C 0.3274(7) 0.3763(5) 0.80656(8)
H18_8 H 0.3683 0.3704 0.8102
C35_8 C 0.3002(7) 0.2243(5) 0.87885(8)
H19_8 H 0.2478 0.2007 0.8815
C36_8 C 0.2076(6) 0.3944(4) 0.79608(9)
H20_8 H 0.1664 0.4001 0.7924
C37_8 C 0.3415(7) 0.4325(5) 0.79542(9)
H21_8 H 0.3915 0.4633 0.7914
C38_8 C 0.2868(6) 0.2838(4) 0.83777(8)
H22_8 H 0.3343 0.3301 0.8380
C39_8 C 0.3537(8) 0.2380(5) 0.89060(10)
H23_8 H 0.3368 0.2234 0.9010
C40_8 C 0.4327(10) 0.2732(7) 0.88714(12)
C41_8 C 0.4030(11) 0.2817(8) 0.85990(12)
H24_8 H 0.4201 0.2957 0.8494
C42_8 C 0.4547(12) 0.2967(9) 0.87137(14)
H25_8 H 0.5074 0.3238 0.8688
C43_8 C 0.0015(6) 0.1462(4) 0.83539(11)
H26_8 H 0.0131 0.1660 0.8247
H27_8 H 0.0406 0.1829 0.8425
C44_8 C 0.0006(6) 0.0711(4) 0.83618(8)
C45_8 C 0.0701(6) 0.0690(4) 0.83619(7)
O6_5 O 0.3664(5) 0.5544(4) 0.77542(7)
O7_5 O 0.2392(4) 0.5115(3) 0.77418(7)
C46_8 C 0.4898(15) 0.2900(9) 0.89950(17)
O8_5 O 0.4748(7) 0.2810(4) 0.91343(9)
O9_5 O 0.5610(18) 0.3228(11) 0.8957(2)
H42_8 H 0.1870 0.0485 0.8384
Zn6_5 Zn 0.41328(6) 0.64276(5) 0.760670(8)
Zn8_5 Zn 0.22949(4) 0.58672(6) 0.760670(8)
Zn9_5 Zn 0.56282(4) 0.30943(5) 0.927337(8)
Zn14_11 Zn 0.6667 0.3333 0.89653(3)
C48_8 C 0.0303(4) 0.8319(6) 0.82434(8)
H30_8 H 0.0511 0.8645 0.8155
C50_8 C 0.0752(4) 0.7473(6) 0.81248(8)
C51_8 C 0.1616(4) 0.7178(6) 0.79013(8)
C52_8 C 0.0323(4) 0.7636(6) 0.82480(8)
C54_8 C 0.2112(5) 0.7033(6) 0.77904(9)
C56_8 C 0.1459(5) 0.8065(7) 0.80682(9)
H31_8 H 0.1651 0.8569 0.8106
C57_8 C 0.0490(5) 0.6726(7) 0.80656(8)
H32_8 H 0.0022 0.6317 0.8102
C59_8 C 0.1869(5) 0.7924(6) 0.79608(9)
H34_8 H 0.2338 0.8336 0.7924
C60_8 C 0.0911(5) 0.6585(7) 0.79542(9)
H35_8 H 0.0719 0.6085 0.7914
C66_8 C 0.1448(4) 0.9985(6) 0.83539(11)
H40_8 H 0.1530 0.9869 0.8247
H41_8 H 0.1424 0.9594 0.8425
C67_8 C 0.0706(4) 0.9994(6) 0.83618(8)
O10_5 O 0.1881(3) 0.6336(5) 0.77542(7)
O11_5 O 0.2724(3) 0.7608(4) 0.77418(7)
Zn5_5 Zn 0.35724(5) 0.77051(4) 0.760670(8)
C1_8 C 0.8362(4) 0.0321(4) 0.84965(8)
H1_8 H 0.8698 0.0503 0.8583
C3_8 C 0.8556(4) 0.0021(4) 0.83670(8)
C7_8 C 0.7694(4) 0.0362(4) 0.85020(8)
C9_8 C 0.7553(5) 0.0773(5) 0.86319(9)
C12_8 C 0.7757(5) 0.0758(5) 0.87885(8)
H5_8 H 0.7993 0.0470 0.8815
C15_8 C 0.7162(4) 0.0029(4) 0.83777(8)
H8_8 H 0.6699 0.0041 0.8380
C16_8 C 0.7620(5) 0.1156(6) 0.89060(10)
H9_8 H 0.7766 0.1133 0.9010
C17_8 C 0.7268(7) 0.1594(7) 0.88714(12)
C18_8 C 0.7183(8) 0.1212(8) 0.85990(12)
H10_8 H 0.7043 0.1243 0.8494
C19_8 C 0.7033(9) 0.1579(8) 0.87137(14)
H11_8 H 0.6762 0.1835 0.8688
C21_8 C 0.7100(9) 0.1997(12) 0.89950(17)
C23_8 C 0.9310(4) 0.0010(4) 0.83619(7)
O3_5 O 0.7190(4) 0.1937(6) 0.91343(9)
O4_5 O 0.6772(11) 0.2381(14) 0.8957(2)
H28_8 H 0.9515 0.1384 0.8384
Zn10_5 Zn 0.69057(5) 0.25339(6) 0.927337(8)
C2_8 C 0.8017(4) 0.9697(4) 0.82434(8)
H2_8 H 0.8135 0.9489 0.8155
C4_8 C 0.6722(4) 0.9248(4) 0.81248(8)
C5_8 C 0.5563(4) 0.8384(4) 0.79013(8)
C6_8 C 0.7314(4) 0.9677(4) 0.82480(8)
C8_8 C 0.4922(4) 0.7888(5) 0.77904(9)
C10_8 C 0.6607(5) 0.8541(5) 0.80682(9)
H3_8 H 0.6919 0.8349 0.8106
C11_8 C 0.6237(5) 0.9510(5) 0.80656(8)
H4_8 H 0.6296 0.9978 0.8102
C13_8 C 0.6056(4) 0.8131(5) 0.79608(9)
H6_8 H 0.5999 0.7662 0.7924
C14_8 C 0.5675(5) 0.9089(5) 0.79542(9)
H7_8 H 0.5367 0.9281 0.7914
C20_8 C 0.8538(4) 0.8552(4) 0.83539(11)
H12_8 H 0.8340 0.8470 0.8247
H13_8 H 0.8171 0.8576 0.8425
H14_8 H 0.8616 0.8130 0.8384
C22_8 C 0.9289(4) 0.9294(4) 0.83618(8)
O1_14 O 0.3334 0.6666 0.75396(8)
O2_8 O 0.4456(4) 0.8119(3) 0.77542(7)
O5_8 O 0.4885(3) 0.7276(3) 0.77418(7)
Zn2_8 Zn 0.3334 0.6666 0.72986(3)
C47_8 C 0.9679(4) 0.8040(6) 0.84965(8)
H29_8 H 0.9497 0.8194 0.8583
C49_8 C 0.9979(4) 0.8534(6) 0.83670(8)
C53_8 C 0.9638(4) 0.7331(6) 0.85020(8)
C55_8 C 0.9227(5) 0.6779(7) 0.86319(9)
C58_8 C 0.9242(5) 0.6998(7) 0.87885(8)
H33_8 H 0.9530 0.7522 0.8815
C61_8 C 0.9971(4) 0.7132(6) 0.83777(8)
H36_8 H 0.9959 0.6657 0.8380
C62_8 C 0.8844(6) 0.6463(8) 0.89060(10)
H37_8 H 0.8867 0.6632 0.9010
C63_8 C 0.8406(7) 0.5673(10) 0.88714(12)
C64_8 C 0.8788(8) 0.5970(11) 0.85990(12)
H38_8 H 0.8757 0.5799 0.8494
C65_8 C 0.8421(8) 0.5453(12) 0.87137(14)
H39_8 H 0.8165 0.4926 0.8688
C68_8 C 0.9990(4) 0.9299(6) 0.83619(7)
C69_8 C 0.8003(12) 0.5102(15) 0.89950(17)
O12_5 O 0.8063(6) 0.5252(7) 0.91343(9)
O13_5 O 0.7619(14) 0.4390(18) 0.8957(2)
O16_5 O 0.4729(6) 0.6144(4) 0.74677(9)
O17_5 O 0.3856(4) 0.8586(7) 0.74677(9)
O18_5 O 0.1414(7) 0.5271(6) 0.74677(9)
O19_5 O 0.4285(14) 0.6562(11) 0.7291(2)
O20_5 O 0.3438(11) 0.7724(18) 0.7291(2)
O21_5 O 0.2276(18) 0.5715(14) 0.7291(2)
Zn11_5 Zn 0.74661(6) 0.43718(4) 0.927337(8)
H18_9 H 0.0349 0.7038 0.1436
C37_9 C 0.0081(7) 0.7659(5) 0.12876(9)
H21_9 H 0.0581 0.7967 0.1248
H22_9 H 0.0009 0.6635 0.1714
C39_9 C 0.0203(8) 0.5714(5) 0.22394(10)
H23_9 H 0.0034 0.5568 0.2344
C40_9 C 0.0993(10) 0.6066(7) 0.22048(12)
C41_9 C 0.0696(11) 0.6151(8) 0.19324(12)
H24_9 H 0.0867 0.6291 0.1828
C42_9 C 0.1213(12) 0.6301(9) 0.20471(14)
H25_9 H 0.1740 0.6572 0.2022
O6_6 O 0.0330(5) 0.8878(4) 0.10876(7)
C46_9 C 0.1564(15) 0.6234(9) 0.23284(17)
O8_6 O 0.1414(7) 0.6144(4) 0.24677(9)
O9_6 O 0.2276(18) 0.6562(11) 0.2291(2)
Zn5_6 Zn 0.02390(5) 0.10385(4) 0.094004(8)
Zn6_6 Zn 0.07994(6) 0.97610(5) 0.094004(8)
Zn9_6 Zn 0.22949(4) 0.64276(5) 0.260670(8)
Zn14_12 Zn 0.3334 0.6666 0.22986(3)
C1_9 C 0.5028(4) 0.3655(4) 0.18299(8)
H1_9 H 0.5364 0.3837 0.1917
C2_9 C 0.4683(4) 0.3031(4) 0.15768(8)
H2_9 H 0.4801 0.2823 0.1489
C3_9 C 0.5222(4) 0.3355(4) 0.17004(8)
C4_9 C 0.3388(4) 0.2582(4) 0.14582(8)
C5_9 C 0.2229(4) 0.1718(4) 0.12347(8)
C6_9 C 0.3980(4) 0.3011(4) 0.15814(8)
C7_9 C 0.4360(4) 0.3696(4) 0.18354(8)
C8_9 C 0.1588(4) 0.1222(5) 0.11238(9)
C9_9 C 0.4219(5) 0.4107(5) 0.19653(9)
C10_9 C 0.3273(5) 0.1875(5) 0.14016(9)
H3_9 H 0.3585 0.1683 0.1440
C11_9 C 0.2903(5) 0.2844(5) 0.13990(8)
H4_9 H 0.2962 0.3312 0.1436
C12_9 C 0.4423(5) 0.4092(5) 0.21219(8)
H5_9 H 0.4659 0.3804 0.2149
C13_9 C 0.2722(4) 0.1465(5) 0.12942(9)
H6_9 H 0.2665 0.0996 0.1258
C14_9 C 0.2341(5) 0.2423(5) 0.12876(9)
H7_9 H 0.2033 0.2615 0.1248
C15_9 C 0.3828(4) 0.3363(4) 0.17111(8)
H8_9 H 0.3365 0.3375 0.1714
C16_9 C 0.4286(5) 0.4490(6) 0.22394(10)
H9_9 H 0.4432 0.4467 0.2344
C17_9 C 0.3934(7) 0.4928(7) 0.22048(12)
C18_9 C 0.3849(8) 0.4546(8) 0.19324(12)
H10_9 H 0.3709 0.4577 0.1828
C19_9 C 0.3699(9) 0.4913(8) 0.20471(14)
H11_9 H 0.3428 0.5169 0.2022
C20_9 C 0.5204(4) 0.1886(4) 0.16873(11)
H12_9 H 0.5006 0.1804 0.1581
H13_9 H 0.4837 0.1910 0.1759
H14_9 H 0.5282 0.1464 0.1718
C21_9 C 0.3766(9) 0.5331(12) 0.23284(17)
C22_9 C 0.5955(4) 0.2628(4) 0.16952(8)
C23_9 C 0.5976(4) 0.3344(4) 0.16953(7)
O1_15 O 0.0000 -0.0000 0.08730(8)
O2_9 O 0.1122(4) 0.1453(3) 0.10876(7)
O3_6 O 0.3856(4) 0.5271(6) 0.24677(9)
O4_6 O 0.3438(11) 0.5715(14) 0.2291(2)
O5_9 O 0.1551(3) 0.0610(3) 0.10752(7)
Zn2_9 Zn 0.0000 -0.0000 0.06320(3)
C24_9 C 0.8626(6) 0.4972(4) 0.18299(8)
H15_9 H 0.8472 0.4636 0.1917
C25_9 C 0.8347(6) 0.5317(4) 0.15768(8)
H16_9 H 0.8021 0.5199 0.1489
C26_9 C 0.8132(6) 0.4778(4) 0.17004(8)
C27_9 C 0.9193(6) 0.6612(4) 0.14582(8)
C28_9 C 0.9488(6) 0.7771(4) 0.12347(8)
C29_9 C 0.9030(6) 0.6020(4) 0.15814(8)
C30_9 C 0.9335(6) 0.5640(4) 0.18354(8)
C31_9 C 0.9633(6) 0.8412(4) 0.11238(9)
C32_9 C 0.9887(7) 0.5781(5) 0.19653(9)
C33_9 C 0.8601(7) 0.6727(5) 0.14016(9)
H17_9 H 0.8097 0.6415 0.1440
C34_9 C 0.9940(7) 0.7097(5) 0.13990(8)
C35_9 C 0.9668(7) 0.5577(5) 0.21219(8)
H19_9 H 0.9144 0.5341 0.2149
C36_9 C 0.8742(6) 0.7278(4) 0.12942(9)
H20_9 H 0.8330 0.7335 0.1258
C38_9 C 0.9534(6) 0.6172(4) 0.17111(8)
C43_9 C 0.6681(6) 0.4796(4) 0.16873(11)
H26_9 H 0.6797 0.4994 0.1581
H27_9 H 0.7072 0.5163 0.1759
H28_9 H 0.6181 0.4718 0.1718
C44_9 C 0.6672(6) 0.4045(4) 0.16952(8)
C45_9 C 0.7367(6) 0.4024(4) 0.16953(7)
O7_6 O 0.9058(4) 0.8449(3) 0.10752(7)
C47_9 C 0.6345(4) 0.1374(6) 0.18299(8)
H29_9 H 0.6163 0.1528 0.1917
C48_9 C 0.6969(4) 0.1653(6) 0.15768(8)
H30_9 H 0.7177 0.1979 0.1489
C49_9 C 0.6645(4) 0.1868(6) 0.17004(8)
C50_9 C 0.7418(4) 0.0807(6) 0.14582(8)
C51_9 C 0.8282(4) 0.0512(6) 0.12347(8)
C52_9 C 0.6989(4) 0.0970(6) 0.15814(8)
C53_9 C 0.6304(4) 0.0665(6) 0.18354(8)
C54_9 C 0.8778(5) 0.0367(6) 0.11238(9)
C55_9 C 0.5893(5) 0.0113(7) 0.19653(9)
C56_9 C 0.8125(5) 0.1399(7) 0.14016(9)
H31_9 H 0.8317 0.1903 0.1440
C57_9 C 0.7156(5) 0.0060(7) 0.13990(8)
C58_9 C 0.5908(5) 0.0332(7) 0.21219(8)
H33_9 H 0.6196 0.0856 0.2149
C59_9 C 0.8535(5) 0.1258(6) 0.12942(9)
H34_9 H 0.9004 0.1670 0.1258
C61_9 C 0.6637(4) 0.0466(6) 0.17111(8)
C66_9 C 0.8114(4) 0.3319(6) 0.16873(11)
H40_9 H 0.8196 0.3203 0.1581
H41_9 H 0.8090 0.2928 0.1759
H42_9 H 0.8536 0.3819 0.1718
C67_9 C 0.7372(4) 0.3328(6) 0.16952(8)
C68_9 C 0.6656(4) 0.2633(6) 0.16953(7)
O11_6 O 0.9390(3) 0.0942(4) 0.10752(7)
O17_6 O 0.0523(4) 0.1919(7) 0.08010(9)
O20_6 O 0.0105(11) 0.1057(18) 0.0624(2)
Zn8_6 Zn 0.89615(4) 0.92006(6) 0.094004(8)
Zn10_6 Zn 0.35724(5) 0.58672(6) 0.260670(8)
O1_16 O 0.0000 1.0000 0.08730(8)
Zn2_10 Zn 0.0000 1.0000 0.06320(3)
H32_9 H 0.6688 0.9651 0.1436
C60_9 C 0.7577(5) 0.9919(7) 0.12876(9)
H35_9 H 0.7385 0.9419 0.1248
H36_9 H 0.6625 0.9991 0.1714
C62_9 C 0.5510(6) 0.9797(8) 0.22394(10)
H37_9 H 0.5533 0.9966 0.2344
C63_9 C 0.5072(7) 0.9007(10) 0.22048(12)
C64_9 C 0.5454(8) 0.9304(11) 0.19324(12)
H38_9 H 0.5423 0.9133 0.1828
C65_9 C 0.5087(8) 0.8787(12) 0.20471(14)
H39_9 H 0.4831 0.8260 0.2022
O10_6 O 0.8547(3) 0.9670(5) 0.10876(7)
C69_9 C 0.4669(12) 0.8436(15) 0.23284(17)
O12_6 O 0.4729(6) 0.8586(7) 0.24677(9)
O13_6 O 0.4285(14) 0.7724(18) 0.2291(2)
O16_6 O 0.1396(6) 0.9477(4) 0.08010(9)
O19_6 O 0.0952(14) 0.9895(11) 0.0624(2)
Zn11_6 Zn 0.41328(6) 0.77051(4) 0.260670(8)
O1_17 O 1.0000 -0.0000 0.08730(8)
Zn2_11 Zn 1.0000 -0.0000 0.06320(3)
O1_18 O 1.0000 1.0000 0.08730(8)
Zn2_12 Zn 1.0000 1.0000 0.06320(3)
O18_6 O 0.8081(7) 0.8604(6) 0.08010(9)
O21_6 O 0.8943(18) 0.9048(14) 0.0624(2)
C5_10 C 0.4949(4) 0.1104(4) 0.95680(8)
C8_10 C 0.5445(5) 0.1745(4) 0.94571(9)
C10_10 C 0.4792(5) 0.0060(5) 0.97349(9)
C11_10 C 0.3823(5) 0.0430(5) 0.97323(8)
H4_10 H 0.3355 0.0371 0.9769
C13_10 C 0.5202(5) 0.0611(4) 0.96275(9)
H6_10 H 0.5671 0.0668 0.9591
C14_10 C 0.4244(5) 0.0992(5) 0.96209(9)
H7_10 H 0.4052 0.1300 0.9581
O1_19 O 0.6667 0.3333 0.92063(8)
O2_10 O 0.5214(3) 0.2211(4) 0.94209(7)
O5_10 O 0.6057(3) 0.1782(3) 0.94085(7)
O14_4 O 0.7789(4) 0.3003(5) 0.94209(7)
O15_4 O 0.6997(5) 0.4786(3) 0.94209(7)
O22_4 O 0.8218(3) 0.4275(4) 0.94085(7)
O23_4 O 0.5725(4) 0.3943(3) 0.94085(7)
C1_10 C 0.3012(4) 0.8305(4) 0.01632(8)
H1_10 H 0.2830 0.7969 0.0250
C3_10 C 0.3312(4) 0.8111(4) 0.00337(8)
C7_10 C 0.2971(4) 0.8973(4) 0.01687(8)
C9_10 C 0.2560(5) 0.9114(5) 0.02986(9)
C12_10 C 0.2575(5) 0.8910(5) 0.04552(8)
H5_10 H 0.2863 0.8674 0.0482
C15_10 C 0.3304(4) 0.9505(4) 0.00444(8)
H8_10 H 0.3292 0.9968 0.0047
C16_10 C 0.2177(6) 0.9047(5) 0.05727(10)
H9_10 H 0.2200 0.8901 0.0677
C17_10 C 0.1739(7) 0.9399(7) 0.05381(12)
C18_10 C 0.2121(8) 0.9484(8) 0.02657(12)
H10_10 H 0.2090 0.9624 0.0161
C19_10 C 0.1754(8) 0.9634(9) 0.03804(14)
H11_10 H 0.1498 0.9905 0.0355
C20_10 C 0.4781(4) 0.8129(4) 0.00206(11)
H13_10 H 0.4757 0.8496 0.0092
H14_10 H 0.5203 0.8051 0.0051
C21_10 C 0.1336(12) 0.9567(9) 0.06617(17)
C22_10 C 0.4039(4) 0.7378(4) 0.00285(8)
C23_10 C 0.3323(4) 0.7357(4) 0.00286(7)
C24_10 C 0.1695(4) 0.4707(6) 0.01632(8)
H15_10 H 0.2031 0.4861 0.0250
C26_10 C 0.1889(4) 0.5201(6) 0.00337(8)
C30_10 C 0.1027(4) 0.3998(6) 0.01687(8)
C32_10 C 0.0886(5) 0.3446(7) 0.02986(9)
C35_10 C 0.1090(5) 0.3665(7) 0.04552(8)
H19_10 H 0.1326 0.4189 0.0482
C38_10 C 0.0495(4) 0.3799(6) 0.00444(8)
H22_10 H 0.0032 0.3324 0.0047
C39_10 C 0.0953(5) 0.3130(8) 0.05727(10)
H23_10 H 0.1099 0.3299 0.0677
C40_10 C 0.0601(7) 0.2340(10) 0.05381(12)
C41_10 C 0.0516(8) 0.2637(11) 0.02657(12)
H24_10 H 0.0376 0.2466 0.0161
C42_10 C 0.0366(9) 0.2120(12) 0.03804(14)
H25_10 H 0.0095 0.1593 0.0355
C43_10 C 0.1871(4) 0.6652(6) 0.00206(11)
H27_10 H 0.1504 0.6261 0.0092
H28_10 H 0.1949 0.7152 0.0051
C44_10 C 0.2622(4) 0.6661(6) 0.00285(8)
C45_10 C 0.2643(4) 0.5966(6) 0.00286(7)
C46_10 C 0.0433(9) 0.1769(15) 0.06617(17)
C47_10 C 0.5293(6) 0.6988(4) 0.01632(8)
H29_10 H 0.5139 0.7170 0.0250
C49_10 C 0.4799(6) 0.6688(4) 0.00337(8)
C53_10 C 0.6002(6) 0.7029(4) 0.01687(8)
C55_10 C 0.6554(7) 0.7440(5) 0.02986(9)
C58_10 C 0.6335(7) 0.7425(5) 0.04552(8)
H33_10 H 0.5811 0.7137 0.0482
C61_10 C 0.6201(6) 0.6696(4) 0.00444(8)
H36_10 H 0.6676 0.6708 0.0047
C62_10 C 0.6870(8) 0.7823(6) 0.05727(10)
H37_10 H 0.6701 0.7800 0.0677
C63_10 C 0.7660(10) 0.8261(7) 0.05381(12)
C64_10 C 0.7363(11) 0.7879(8) 0.02657(12)
H38_10 H 0.7534 0.7910 0.0161
C65_10 C 0.7880(12) 0.8246(8) 0.03804(14)
H39_10 H 0.8407 0.8502 0.0355
C66_10 C 0.3348(6) 0.5219(4) 0.00206(11)
H41_10 H 0.3739 0.5243 0.0092
H42_10 H 0.2848 0.4797 0.0051
C67_10 C 0.3339(6) 0.5961(4) 0.00285(8)
C68_10 C 0.4034(6) 0.6677(4) 0.00286(7)
C69_10 C 0.8231(15) 0.8664(12) 0.06617(17)
C2_10 C 0.3636(4) 0.8650(4) 0.99101(8)
H2_10 H 0.3844 0.8532 0.9822
C4_10 C 0.4085(4) 0.9945(4) 0.97915(8)
C6_10 C 0.3656(4) 0.9353(4) 0.99147(8)
H3_10 H 0.4984 0.9748 0.9773
H12_10 H 0.4863 0.8327 0.9914
C25_10 C 0.1350(4) 0.4986(6) 0.99101(8)
H16_10 H 0.1468 0.5312 0.9822
C27_10 C 0.0055(4) 0.4140(6) 0.97915(8)
C29_10 C 0.0647(4) 0.4303(6) 0.99147(8)
H17_10 H 0.0252 0.5236 0.9773
H26_10 H 0.1673 0.6536 0.9914
C48_10 C 0.5014(6) 0.6364(4) 0.99101(8)
H30_10 H 0.4688 0.6156 0.9822
C50_10 C 0.5860(6) 0.5915(4) 0.97915(8)
C51_10 C 0.6155(6) 0.5051(4) 0.95680(8)
C52_10 C 0.5697(6) 0.6344(4) 0.99147(8)
C54_10 C 0.6300(6) 0.4555(5) 0.94571(9)
C56_10 C 0.5268(7) 0.5208(5) 0.97349(9)
H31_10 H 0.4764 0.5016 0.9773
C57_10 C 0.6607(7) 0.6177(5) 0.97323(8)
H32_10 H 0.7016 0.6645 0.9769
C59_10 C 0.5409(6) 0.4798(5) 0.96275(9)
H34_10 H 0.4997 0.4329 0.9591
C60_10 C 0.6748(7) 0.5756(5) 0.96209(9)
H35_10 H 0.7248 0.5948 0.9581
H40_10 H 0.3464 0.5137 0.9914
C28_10 C 0.8896(4) 0.3845(6) 0.95680(8)
C31_10 C 0.8255(4) 0.3700(6) 0.94571(9)
C33_10 C 0.9940(5) 0.4732(7) 0.97349(9)
C34_10 C 0.9570(5) 0.3393(7) 0.97323(8)
H18_10 H 0.9629 0.2984 0.9769
C36_10 C 0.9389(4) 0.4591(6) 0.96275(9)
H20_10 H 0.9332 0.5003 0.9591
C37_10 C 0.9008(5) 0.3252(7) 0.96209(9)
H21_10 H 0.8700 0.2752 0.9581
O1_20 O 0.0000 -0.0000 0.58730(8)
O15_5 O 0.0330(5) 0.1453(3) 0.60876(7)
O22_5 O 0.1551(3) 0.0942(4) 0.60752(7)
O1_21 O 0.0000 1.0000 0.58730(8)
H32_11 H 0.0349 0.3312 0.6436
C60_11 C 0.0081(7) 0.2423(5) 0.62876(9)
H35_11 H 0.0581 0.2615 0.6248
H36_11 H 0.0009 0.3375 0.6714
C62_11 C 0.0203(8) 0.4490(6) 0.72394(10)
H37_11 H 0.0034 0.4467 0.7344
C63_11 C 0.0993(10) 0.4928(7) 0.72048(12)
C64_11 C 0.0696(11) 0.4546(8) 0.69324(12)
H38_11 H 0.0867 0.4577 0.6828
C65_11 C 0.1213(12) 0.4913(8) 0.70471(14)
H39_11 H 0.1740 0.5169 0.7022
C69_11 C 0.1564(15) 0.5331(12) 0.73284(17)
O14_5 O 0.1122(4) 0.9670(5) 0.60876(7)
O1_22 O 1.0000 -0.0000 0.58730(8)
O23_5 O 0.9058(4) 0.0610(3) 0.60752(7)
C1_11 C 0.6345(4) 0.4972(4) 0.68299(8)
H1_11 H 0.6163 0.4636 0.6917
C2_11 C 0.6969(4) 0.5317(4) 0.65768(8)
H2_11 H 0.7177 0.5199 0.6489
C3_11 C 0.6645(4) 0.4778(4) 0.67004(8)
C4_11 C 0.7418(4) 0.6612(4) 0.64582(8)
C5_11 C 0.8282(4) 0.7771(4) 0.62347(8)
C6_11 C 0.6989(4) 0.6020(4) 0.65814(8)
C7_11 C 0.6304(4) 0.5640(4) 0.68354(8)
C8_11 C 0.8778(5) 0.8412(4) 0.61238(9)
C9_11 C 0.5893(5) 0.5781(5) 0.69653(9)
C10_11 C 0.8125(5) 0.6727(5) 0.64016(9)
H3_11 H 0.8317 0.6415 0.6440
C11_11 C 0.7156(5) 0.7097(5) 0.63990(8)
H4_11 H 0.6688 0.7038 0.6436
C12_11 C 0.5908(5) 0.5577(5) 0.71219(8)
H5_11 H 0.6196 0.5341 0.7149
C13_11 C 0.8535(5) 0.7278(4) 0.62942(9)
H6_11 H 0.9004 0.7335 0.6258
C14_11 C 0.7577(5) 0.7659(5) 0.62876(9)
H7_11 H 0.7385 0.7967 0.6248
C15_11 C 0.6637(4) 0.6172(4) 0.67111(8)
H8_11 H 0.6625 0.6635 0.6714
C16_11 C 0.5510(6) 0.5714(5) 0.72394(10)
H9_11 H 0.5533 0.5568 0.7344
C17_11 C 0.5072(7) 0.6066(7) 0.72048(12)
C18_11 C 0.5454(8) 0.6151(8) 0.69324(12)
H10_11 H 0.5423 0.6291 0.6828
C19_11 C 0.5087(8) 0.6301(9) 0.70471(14)
H11_11 H 0.4831 0.6572 0.7022
C20_11 C 0.8114(4) 0.4796(4) 0.66873(11)
H12_11 H 0.8196 0.4994 0.6581
H13_11 H 0.8090 0.5163 0.6759
H14_11 H 0.8536 0.4718 0.6718
C21_11 C 0.4669(12) 0.6234(9) 0.73284(17)
C22_11 C 0.7372(4) 0.4045(4) 0.66952(8)
C23_11 C 0.6656(4) 0.4024(4) 0.66953(7)
O1_23 O 1.0000 1.0000 0.58730(8)
O2_11 O 0.8547(3) 0.8878(4) 0.60876(7)
O5_11 O 0.9390(3) 0.8449(3) 0.60752(7)
C24_11 C 0.5028(4) 0.1374(6) 0.68299(8)
H15_11 H 0.5364 0.1528 0.6917
C25_11 C 0.4683(4) 0.1653(6) 0.65768(8)
H16_11 H 0.4801 0.1979 0.6489
C26_11 C 0.5222(4) 0.1868(6) 0.67004(8)
C27_11 C 0.3388(4) 0.0807(6) 0.64582(8)
C28_11 C 0.2229(4) 0.0512(6) 0.62347(8)
C29_11 C 0.3980(4) 0.0970(6) 0.65814(8)
C30_11 C 0.4360(4) 0.0665(6) 0.68354(8)
C31_11 C 0.1588(4) 0.0367(6) 0.61238(9)
C32_11 C 0.4219(5) 0.0113(7) 0.69653(9)
C33_11 C 0.3273(5) 0.1399(7) 0.64016(9)
H17_11 H 0.3585 0.1903 0.6440
C34_11 C 0.2903(5) 0.0060(7) 0.63990(8)
C35_11 C 0.4423(5) 0.0332(7) 0.71219(8)
H19_11 H 0.4659 0.0856 0.7149
C36_11 C 0.2722(4) 0.1258(6) 0.62942(9)
H20_11 H 0.2665 0.1670 0.6258
C38_11 C 0.3828(4) 0.0466(6) 0.67111(8)
C43_11 C 0.5204(4) 0.3319(6) 0.66873(11)
H26_11 H 0.5006 0.3203 0.6581
H27_11 H 0.4837 0.2928 0.6759
H28_11 H 0.5282 0.3819 0.6718
C44_11 C 0.5955(4) 0.3328(6) 0.66952(8)
C45_11 C 0.5976(4) 0.2633(6) 0.66953(7)
C47_11 C 0.8626(6) 0.3655(4) 0.68299(8)
H29_11 H 0.8472 0.3837 0.6917
C48_11 C 0.8347(6) 0.3031(4) 0.65768(8)
H30_11 H 0.8021 0.2823 0.6489
C49_11 C 0.8132(6) 0.3355(4) 0.67004(8)
C50_11 C 0.9193(6) 0.2582(4) 0.64582(8)
C51_11 C 0.9488(6) 0.1718(4) 0.62347(8)
C52_11 C 0.9030(6) 0.3011(4) 0.65814(8)
C53_11 C 0.9335(6) 0.3696(4) 0.68354(8)
C54_11 C 0.9633(6) 0.1222(5) 0.61238(9)
C55_11 C 0.9887(7) 0.4107(5) 0.69653(9)
C56_11 C 0.8601(7) 0.1875(5) 0.64016(9)
H31_11 H 0.8097 0.1683 0.6440
C57_11 C 0.9940(7) 0.2844(5) 0.63990(8)
C58_11 C 0.9668(7) 0.4092(5) 0.71219(8)
H33_11 H 0.9144 0.3804 0.7149
C59_11 C 0.8742(6) 0.1465(5) 0.62942(9)
H34_11 H 0.8330 0.0996 0.6258
C61_11 C 0.9534(6) 0.3363(4) 0.67111(8)
C66_11 C 0.6681(6) 0.1886(4) 0.66873(11)
H40_11 H 0.6797 0.1804 0.6581
H41_11 H 0.7072 0.1910 0.6759
H42_11 H 0.6181 0.1464 0.6718
C67_11 C 0.6672(6) 0.2628(4) 0.66952(8)
C68_11 C 0.7367(6) 0.3344(4) 0.66953(7)
H18_11 H 0.2962 0.9651 0.6436
C37_11 C 0.2341(5) 0.9919(7) 0.62876(9)
H21_11 H 0.2033 0.9419 0.6248
H22_11 H 0.3365 0.9991 0.6714
C39_11 C 0.4286(5) 0.9797(8) 0.72394(10)
H23_11 H 0.4432 0.9966 0.7344
C40_11 C 0.3934(7) 0.9007(10) 0.72048(12)
C41_11 C 0.3849(8) 0.9304(11) 0.69324(12)
H24_11 H 0.3709 0.9133 0.6828
C42_11 C 0.3699(9) 0.8787(12) 0.70471(14)
H25_11 H 0.3428 0.8260 0.7022
C46_11 C 0.3766(9) 0.8436(15) 0.73284(17)
C2_12 C 0.0303(4) 0.1983(4) 0.32434(8)
H2_12 H 0.0511 0.1865 0.3155
C4_12 C 0.0752(4) 0.3278(4) 0.31248(8)
C5_12 C 0.1616(4) 0.4437(4) 0.29013(8)
C6_12 C 0.0323(4) 0.2686(4) 0.32480(8)
C8_12 C 0.2112(5) 0.5078(4) 0.27904(9)
C10_12 C 0.1459(5) 0.3393(5) 0.30682(9)
H3_12 H 0.1651 0.3081 0.3106
C11_12 C 0.0490(5) 0.3763(5) 0.30656(8)
H4_12 H 0.0022 0.3704 0.3102
C13_12 C 0.1869(5) 0.3944(4) 0.29608(9)
H6_12 H 0.2338 0.4001 0.2924
C14_12 C 0.0911(5) 0.4325(5) 0.29542(9)
H7_12 H 0.0719 0.4633 0.2914
C20_12 C 0.1448(4) 0.1462(4) 0.33539(11)
H12_12 H 0.1530 0.1660 0.3247
H13_12 H 0.1424 0.1829 0.3425
H14_12 H 0.1870 0.1384 0.3384
C22_12 C 0.0706(4) 0.0711(4) 0.33618(8)
O1_24 O 0.3334 0.6666 0.25396(8)
O2_12 O 0.1881(3) 0.5544(4) 0.27542(7)
O5_12 O 0.2724(3) 0.5115(3) 0.27418(7)
C47_12 C 0.1960(6) 0.0321(4) 0.34965(8)
H29_12 H 0.1806 0.0503 0.3583
C49_12 C 0.1466(6) 0.0021(4) 0.33670(8)
C53_12 C 0.2669(6) 0.0362(4) 0.35020(8)
C55_12 C 0.3221(7) 0.0773(5) 0.36319(9)
C58_12 C 0.3002(7) 0.0758(5) 0.37885(8)
H33_12 H 0.2478 0.0470 0.3815
C61_12 C 0.2868(6) 0.0029(4) 0.33777(8)
H36_12 H 0.3343 0.0041 0.3380
C62_12 C 0.3537(8) 0.1156(6) 0.39060(10)
H37_12 H 0.3368 0.1133 0.4010
C63_12 C 0.4327(10) 0.1594(7) 0.38714(12)
C64_12 C 0.4030(11) 0.1212(8) 0.35990(12)
H38_12 H 0.4201 0.1243 0.3494
C65_12 C 0.4547(12) 0.1579(8) 0.37137(14)
H39_12 H 0.5074 0.1835 0.3688
C68_12 C 0.0701(6) 0.0010(4) 0.33619(7)
C69_12 C 0.4898(15) 0.1997(12) 0.39950(17)
O14_6 O 0.4456(4) 0.6336(5) 0.27542(7)
O15_6 O 0.3664(5) 0.8119(3) 0.27542(7)
O22_6 O 0.4885(3) 0.7608(4) 0.27418(7)
O23_6 O 0.2392(4) 0.7276(3) 0.27418(7)
C48_12 C 0.1681(6) 0.9697(4) 0.32434(8)
H30_12 H 0.1355 0.9489 0.3155
C50_12 C 0.2527(6) 0.9248(4) 0.31248(8)
C51_12 C 0.2822(6) 0.8384(4) 0.29013(8)
C52_12 C 0.2364(6) 0.9677(4) 0.32480(8)
C54_12 C 0.2967(6) 0.7888(5) 0.27904(9)
C56_12 C 0.1935(7) 0.8541(5) 0.30682(9)
H31_12 H 0.1431 0.8349 0.3106
C57_12 C 0.3274(7) 0.9510(5) 0.30656(8)
H32_12 H 0.3683 0.9978 0.3102
C59_12 C 0.2076(6) 0.8131(5) 0.29608(9)
H34_12 H 0.1664 0.7662 0.2924
C60_12 C 0.3415(7) 0.9089(5) 0.29542(9)
H35_12 H 0.3915 0.9281 0.2914
C66_12 C 0.0015(6) 0.8552(4) 0.33539(11)
H40_12 H 0.0131 0.8470 0.3247
H41_12 H 0.0406 0.8576 0.3425
C67_12 C 0.0006(6) 0.9294(4) 0.33618(8)
C1_12 C 0.9679(4) 0.1638(4) 0.34965(8)
H1_12 H 0.9497 0.1302 0.3583
C3_12 C 0.9979(4) 0.1444(4) 0.33670(8)
C7_12 C 0.9638(4) 0.2306(4) 0.35020(8)
C9_12 C 0.9227(5) 0.2447(5) 0.36319(9)
C12_12 C 0.9242(5) 0.2243(5) 0.37885(8)
H5_12 H 0.9530 0.2007 0.3815
C15_12 C 0.9971(4) 0.2838(4) 0.33777(8)
H8_12 H 0.9959 0.3301 0.3380
C16_12 C 0.8844(6) 0.2380(5) 0.39060(10)
H9_12 H 0.8867 0.2234 0.4010
C17_12 C 0.8406(7) 0.2732(7) 0.38714(12)
C18_12 C 0.8788(8) 0.2817(8) 0.35990(12)
H10_12 H 0.8757 0.2957 0.3494
C19_12 C 0.8421(8) 0.2967(9) 0.37137(14)
H11_12 H 0.8165 0.3238 0.3688
C21_12 C 0.8003(12) 0.2900(9) 0.39950(17)
C23_12 C 0.9990(4) 0.0690(4) 0.33619(7)
H28_12 H 0.8616 0.0485 0.3384
C24_12 C 0.8362(4) 0.8040(6) 0.34965(8)
H15_12 H 0.8698 0.8194 0.3583
C25_12 C 0.8017(4) 0.8319(6) 0.32434(8)
H16_12 H 0.8135 0.8645 0.3155
C26_12 C 0.8556(4) 0.8534(6) 0.33670(8)
C27_12 C 0.6722(4) 0.7473(6) 0.31248(8)
C28_12 C 0.5563(4) 0.7178(6) 0.29013(8)
C29_12 C 0.7314(4) 0.7636(6) 0.32480(8)
C30_12 C 0.7694(4) 0.7331(6) 0.35020(8)
C31_12 C 0.4922(4) 0.7033(6) 0.27904(9)
C32_12 C 0.7553(5) 0.6779(7) 0.36319(9)
C33_12 C 0.6607(5) 0.8065(7) 0.30682(9)
H17_12 H 0.6919 0.8569 0.3106
C34_12 C 0.6237(5) 0.6726(7) 0.30656(8)
H18_12 H 0.6296 0.6317 0.3102
C35_12 C 0.7757(5) 0.6998(7) 0.37885(8)
H19_12 H 0.7993 0.7522 0.3815
C36_12 C 0.6056(4) 0.7924(6) 0.29608(9)
H20_12 H 0.5999 0.8336 0.2924
C37_12 C 0.5675(5) 0.6585(7) 0.29542(9)
H21_12 H 0.5367 0.6085 0.2914
C38_12 C 0.7162(4) 0.7132(6) 0.33777(8)
H22_12 H 0.6699 0.6657 0.3380
C39_12 C 0.7620(5) 0.6463(8) 0.39060(10)
H23_12 H 0.7766 0.6632 0.4010
C40_12 C 0.7268(7) 0.5673(10) 0.38714(12)
C41_12 C 0.7183(8) 0.5970(11) 0.35990(12)
H24_12 H 0.7043 0.5799 0.3494
C42_12 C 0.7033(9) 0.5453(12) 0.37137(14)
H25_12 H 0.6762 0.4926 0.3688
C43_12 C 0.8538(4) 0.9985(6) 0.33539(11)
H26_12 H 0.8340 0.9869 0.3247
H27_12 H 0.8171 0.9594 0.3425
C44_12 C 0.9289(4) 0.9994(6) 0.33618(8)
C45_12 C 0.9310(4) 0.9299(6) 0.33619(7)
C46_12 C 0.7100(9) 0.5102(15) 0.39950(17)
H42_12 H 0.9515 0.8130 0.3384
loop_
_geom_bond_atom_site_label_1
_geom_bond_atom_site_label_2
_geom_bond_site_symmetry_1
_geom_bond_site_symmetry_2
C28 C31 1_555 1_555
C31 O6 1_555 1_555
H18 C34 1_555 1_555
C36 C28 1_555 1_555
H20 C36 1_555 1_555
C37 C28 1_555 1_555
H21 C37 1_555 1_555
O6 Zn6 1_555 1_555
O7 C31 1_555 1_555
Zn8 O7 1_555 1_555
C33 C36 1_555 1_555
C34 C37 1_555 1_555
C2 H2 1_555 1_555
C4 C6 1_555 1_555
C6 C2 1_555 1_555
C25 H16 1_555 1_555
C27 C29 1_555 1_555
C29 C25 1_555 1_555
C48 H30 1_555 1_555
C50 C52 1_555 1_555
C51 C54 1_555 1_555
C52 C48 1_555 1_555
C54 O10 1_555 1_555
C56 C50 1_555 1_555
H31 C56 1_555 1_555
C57 C50 1_555 1_555
H32 C57 1_555 1_555
C59 C51 1_555 1_555
H34 C59 1_555 1_555
C60 C51 1_555 1_555
H35 C60 1_555 1_555
O10 Zn8 1_555 1_555
O11 C54 1_555 1_555
Zn5 O11 1_555 1_555
C56 C59 1_555 1_555
C57 C60 1_555 1_555
C1 H1 1_555 1_555
C3 C1 1_555 1_555
C7 C1 1_555 1_555
C9 C7 1_555 1_555
C12 C9 1_555 1_555
H5 C12 1_555 1_555
H8 C15 1_555 1_555
C16 C12 1_555 1_555
H9 C16 1_555 1_555
C17 C16 1_555 1_555
C18 C9 1_555 1_555
H10 C18 1_555 1_555
C19 C17 1_555 1_555
H11 C19 1_555 1_555
H13 C20 1_555 1_555
H14 C20 1_555 1_555
C21 C17 1_555 1_555
C22 C20 1_555 1_555
C23 C3 1_555 1_555
O3 C21 1_555 1_555
O4 C21 1_555 1_555
C24 H15 1_555 1_555
C26 C24 1_555 1_555
C30 C24 1_555 1_555
C32 C30 1_555 1_555
C35 C32 1_555 1_555
H19 C35 1_555 1_555
H22 C38 1_555 1_555
C39 C35 1_555 1_555
H23 C39 1_555 1_555
C40 C39 1_555 1_555
C41 C32 1_555 1_555
H24 C41 1_555 1_555
C42 C40 1_555 1_555
H25 C42 1_555 1_555
H27 C43 1_555 1_555
H28 C43 1_555 1_555
C44 C23 1_555 1_555
C45 C26 1_555 1_555
C46 C40 1_555 1_555
O8 C46 1_555 1_555
O9 C46 1_555 1_555
C47 H29 1_555 1_555
C49 C47 1_555 1_555
C53 C47 1_555 1_555
C55 C53 1_555 1_555
C58 C55 1_555 1_555
H33 C58 1_555 1_555
H36 C61 1_555 1_555
C62 C58 1_555 1_555
H37 C62 1_555 1_555
C63 C62 1_555 1_555
C64 C55 1_555 1_555
H38 C64 1_555 1_555
C65 C63 1_555 1_555
H39 C65 1_555 1_555
H41 C66 1_555 1_555
H42 C66 1_555 1_555
C67 C45 1_555 1_555
C68 C22 1_555 1_555
C69 C63 1_555 1_555
O12 C69 1_555 1_555
O13 C69 1_555 1_555
Zn9 O8 1_555 1_555
Zn10 O3 1_555 1_555
Zn11 O12 1_555 1_555
Zn14 O13 1_555 1_555
Zn14_3 O4 1_555 1_555
Zn14_4 O9 1_555 1_555
C7 C15 1_555 1_555
C18 C19 1_555 1_555
C22 C23 1_555 1_555
C30 C38 1_555 1_555
C41 C42 1_555 1_555
C43 C44 1_555 1_555
C44 C45 1_555 1_555
C49 C68 1_555 1_555
C53 C61 1_555 1_555
C64 C65 1_555 1_555
C66 C67 1_555 1_555
C67 C68 1_555 1_555
C5 C8 1_555 1_555
C8 O2 1_555 1_555
H4 C11 1_555 1_555
C13 C5 1_555 1_555
H6 C13 1_555 1_555
C14 C5 1_555 1_555
H7 C14 1_555 1_555
O1 Zn5 1_555 1_555
O2 Zn5 1_555 1_555
O5 C8 1_555 1_555
Zn5 O17 1_555 1_555
Zn2 O1 1_555 1_555
Zn6 O1 1_555 1_555
Zn8 O1 1_555 1_555
O16 Zn6 1_555 1_555
O18 Zn8 1_555 1_555
O19 Zn2 1_555 1_555
O20 Zn2 1_555 1_555
O21 Zn2 1_555 1_555
C10 C13 1_555 1_555
C11 C14 1_555 1_555
O5 Zn6 1_555 1_555
H21_2 C37_2 1_555 1_555
H23_2 C39_2 1_555 1_555
C40_2 C39_2 1_555 1_555
H24_2 C41_2 1_555 1_555
C42_2 C40_2 1_555 1_555
H25_2 C42_2 1_555 1_555
O6_2 Zn6_2 1_555 1_555
C46_2 C40_2 1_555 1_555
O8_2 C46_2 1_555 1_555
O9_2 C46_2 1_555 1_555
Zn9_2 O8_2 1_555 1_555
Zn14_5 O9_2 1_555 1_555
C41_2 C42_2 1_555 1_555
C1_2 H1_2 1_555 1_555
C2_2 H2_2 1_555 1_555
C3_2 C1_2 1_555 1_555
C4_2 C6_2 1_555 1_555
C5_2 C8_2 1_555 1_555
C6_2 C2_2 1_555 1_555
C7_2 C1_2 1_555 1_555
C8_2 O2_2 1_555 1_555
C9_2 C7_2 1_555 1_555
C10_2 C4_2 1_555 1_555
H3_2 C10_2 1_555 1_555
C11_2 C4_2 1_555 1_555
H4_2 C11_2 1_555 1_555
C12_2 C9_2 1_555 1_555
H5_2 C12_2 1_555 1_555
C13_2 C5_2 1_555 1_555
H6_2 C13_2 1_555 1_555
C14_2 C5_2 1_555 1_555
H7_2 C14_2 1_555 1_555
C15_2 C6_2 1_555 1_555
H8_2 C15_2 1_555 1_555
C16_2 C12_2 1_555 1_555
H9_2 C16_2 1_555 1_555
C17_2 C16_2 1_555 1_555
C18_2 C9_2 1_555 1_555
H10_2 C18_2 1_555 1_555
C19_2 C17_2 1_555 1_555
H11_2 C19_2 1_555 1_555
C20_2 H12_2 1_555 1_555
H13_2 C20_2 1_555 1_555
H14_2 C20_2 1_555 1_555
C21_2 C17_2 1_555 1_555
C22_2 C20_2 1_555 1_555
C23_2 C3_2 1_555 1_555
O1_2 Zn5_2 1_555 1_555
O2_2 Zn5_2 1_555 1_555
O3_2 C21_2 1_555 1_555
O4_2 C21_2 1_555 1_555
O5_2 C8_2 1_555 1_555
Zn5_2 O17_2 1_555 1_555
Zn2_2 O1_2 1_555 1_555
C24_2 H15_2 1_555 1_555
C25_2 H16_2 1_555 1_555
C26_2 C24_2 1_555 1_555
C27_2 C29_2 1_555 1_555
C28_2 C31_2 1_555 1_555
C29_2 C25_2 1_555 1_555
C30_2 C24_2 1_555 1_555
C32_2 C30_2 1_555 1_555
C33_2 C27_2 1_555 1_555
H17_2 C33_2 1_555 1_555
C34_2 C27_2 1_555 1_555
C35_2 C32_2 1_555 1_555
H19_2 C35_2 1_555 1_555
C36_2 C28_2 1_555 1_555
H20_2 C36_2 1_555 1_555
C38_2 C29_2 1_555 1_555
C43_2 H26_2 1_555 1_555
H27_2 C43_2 1_555 1_555
H28_2 C43_2 1_555 1_555
C44_2 C23_2 1_555 1_555
C45_2 C26_2 1_555 1_555
O7_2 C31_2 1_555 1_555
C47_2 H29_2 1_555 1_555
C48_2 H30_2 1_555 1_555
C49_2 C47_2 1_555 1_555
C50_2 C52_2 1_555 1_555
C51_2 C54_2 1_555 1_555
C52_2 C48_2 1_555 1_555
C53_2 C47_2 1_555 1_555
C55_2 C53_2 1_555 1_555
C56_2 C50_2 1_555 1_555
H31_2 C56_2 1_555 1_555
C57_2 C50_2 1_555 1_555
C58_2 C55_2 1_555 1_555
H33_2 C58_2 1_555 1_555
C59_2 C51_2 1_555 1_555
H34_2 C59_2 1_555 1_555
C61_2 C52_2 1_555 1_555
C66_2 H40_2 1_555 1_555
H41_2 C66_2 1_555 1_555
H42_2 C66_2 1_555 1_555
C67_2 C45_2 1_555 1_555
C68_2 C22_2 1_555 1_555
O11_2 C54_2 1_555 1_555
O20_2 Zn2_2 1_555 1_555
Zn8_2 O7_2 1_555 1_555
Zn10_2 O3_2 1_555 1_555
Zn14_5 O4_2 1_555 1_555
C2_2 C3_2 1_555 1_555
C7_2 C15_2 1_555 1_555
C10_2 C13_2 1_555 1_555
C11_2 C14_2 1_555 1_555
C18_2 C19_2 1_555 1_555
C22_2 C23_2 1_555 1_555
C25_2 C26_2 1_555 1_555
C30_2 C38_2 1_555 1_555
C33_2 C36_2 1_555 1_555
C43_2 C44_2 1_555 1_555
C44_2 C45_2 1_555 1_555
C48_2 C49_2 1_555 1_555
C49_2 C68_2 1_555 1_555
C53_2 C61_2 1_555 1_555
C56_2 C59_2 1_555 1_555
C66_2 C67_2 1_555 1_555
C67_2 C68_2 1_555 1_555
Zn2_3 O1_3 1_555 1_555
Zn2_4 O1_4 1_555 1_555
H35_2 C60_2 1_555 1_555
H37_2 C62_2 1_555 1_555
C63_2 C62_2 1_555 1_555
H38_2 C64_2 1_555 1_555
C65_2 C63_2 1_555 1_555
H39_2 C65_2 1_555 1_555
O10_2 Zn8_2 1_555 1_555
C69_2 C63_2 1_555 1_555
O12_2 C69_2 1_555 1_555
O13_2 C69_2 1_555 1_555
Zn6_2 O1_4 1_555 1_555
O16_2 Zn6_2 1_555 1_555
O19_2 Zn2_4 1_555 1_555
Zn11_2 O12_2 1_555 1_555
Zn14_5 O13_2 1_555 1_555
C64_2 C65_2 1_555 1_555
Zn2_5 O1_5 1_555 1_555
Zn8_2 O1_5 1_555 1_555
O18_2 Zn8_2 1_555 1_555
O21_2 Zn2_5 1_555 1_555
C24_3 H15_3 1_555 1_555
C25_3 H16_3 1_555 1_555
C26_3 C24_3 1_555 1_555
C27_3 C29_3 1_555 1_555
C28_3 C31_3 1_555 1_555
C29_3 C25_3 1_555 1_555
C30_3 C24_3 1_555 1_555
C31_3 O6_3 1_555 1_555
C32_3 C30_3 1_555 1_555
C33_3 C27_3 1_555 1_555
H17_3 C33_3 1_555 1_555
C34_3 C27_3 1_555 1_555
H18_3 C34_3 1_555 1_555
C35_3 C32_3 1_555 1_555
H19_3 C35_3 1_555 1_555
C36_3 C28_3 1_555 1_555
H20_3 C36_3 1_555 1_555
C37_3 C28_3 1_555 1_555
H21_3 C37_3 1_555 1_555
C38_3 C29_3 1_555 1_555
H22_3 C38_3 1_555 1_555
C39_3 C35_3 1_555 1_555
H23_3 C39_3 1_555 1_555
C40_3 C39_3 1_555 1_555
C41_3 C32_3 1_555 1_555
H24_3 C41_3 1_555 1_555
C42_3 C40_3 1_555 1_555
H25_3 C42_3 1_555 1_555
C43_3 H26_3 1_555 1_555
H27_3 C43_3 1_555 1_555
C45_3 C26_3 1_555 1_555
O6_3 Zn6_3 1_555 1_555
O7_3 C31_3 1_555 1_555
C46_3 C40_3 1_555 1_555
O8_3 C46_3 1_555 1_555
O9_3 C46_3 1_555 1_555
Zn8_3 O7_3 1_555 1_555
Zn9_3 O8_3 1_555 1_555
Zn14_6 O9_3 1_555 1_555
C25_3 C26_3 1_555 1_555
C30_3 C38_3 1_555 1_555
C33_3 C36_3 1_555 1_555
C34_3 C37_3 1_555 1_555
C41_3 C42_3 1_555 1_555
C43_3 C44_3 1_555 1_555
C44_3 C45_3 1_555 1_555
C1_3 H1_3 1_555 1_555
C3_3 C1_3 1_555 1_555
C7_3 C1_3 1_555 1_555
C9_3 C7_3 1_555 1_555
C12_3 C9_3 1_555 1_555
H5_3 C12_3 1_555 1_555
H8_3 C15_3 1_555 1_555
C16_3 C12_3 1_555 1_555
H9_3 C16_3 1_555 1_555
C17_3 C16_3 1_555 1_555
C18_3 C9_3 1_555 1_555
H10_3 C18_3 1_555 1_555
C19_3 C17_3 1_555 1_555
H11_3 C19_3 1_555 1_555
C21_3 C17_3 1_555 1_555
C23_3 C3_3 1_555 1_555
O3_3 C21_3 1_555 1_555
O4_3 C21_3 1_555 1_555
Zn10_3 O3_3 1_555 1_555
Zn14_6 O4_3 1_555 1_555
C7_3 C15_3 1_555 1_555
C18_3 C19_3 1_555 1_555
C48_3 H30_3 1_555 1_555
C50_3 C52_3 1_555 1_555
C51_3 C54_3 1_555 1_555
C52_3 C48_3 1_555 1_555
C54_3 O10_3 1_555 1_555
C56_3 C50_3 1_555 1_555
H31_3 C56_3 1_555 1_555
C57_3 C50_3 1_555 1_555
H32_3 C57_3 1_555 1_555
C59_3 C51_3 1_555 1_555
H34_3 C59_3 1_555 1_555
C60_3 C51_3 1_555 1_555
H35_3 C60_3 1_555 1_555
C66_3 H40_3 1_555 1_555
H41_3 C66_3 1_555 1_555
O10_3 Zn8_3 1_555 1_555
O11_3 C54_3 1_555 1_555
Zn5_3 O11_3 1_555 1_555
C56_3 C59_3 1_555 1_555
C57_3 C60_3 1_555 1_555
C66_3 C67_3 1_555 1_555
C2_3 H2_3 1_555 1_555
C4_3 C6_3 1_555 1_555
C5_3 C8_3 1_555 1_555
C6_3 C2_3 1_555 1_555
C8_3 O2_3 1_555 1_555
C10_3 C4_3 1_555 1_555
H3_3 C10_3 1_555 1_555
C11_3 C4_3 1_555 1_555
H4_3 C11_3 1_555 1_555
C13_3 C5_3 1_555 1_555
H6_3 C13_3 1_555 1_555
C14_3 C5_3 1_555 1_555
H7_3 C14_3 1_555 1_555
C20_3 H12_3 1_555 1_555
H13_3 C20_3 1_555 1_555
H14_3 C20_3 1_555 1_555
C22_3 C20_3 1_555 1_555
O1_6 Zn5_3 1_555 1_555
O2_3 Zn5_3 1_555 1_555
O5_3 C8_3 1_555 1_555
Zn5_3 O17_3 1_555 1_555
Zn2_6 O1_6 1_555 1_555
C47_3 H29_3 1_555 1_555
C49_3 C47_3 1_555 1_555
C53_3 C47_3 1_555 1_555
C55_3 C53_3 1_555 1_555
C58_3 C55_3 1_555 1_555
H33_3 C58_3 1_555 1_555
H36_3 C61_3 1_555 1_555
C62_3 C58_3 1_555 1_555
H37_3 C62_3 1_555 1_555
C63_3 C62_3 1_555 1_555
C64_3 C55_3 1_555 1_555
H38_3 C64_3 1_555 1_555
C65_3 C63_3 1_555 1_555
H39_3 C65_3 1_555 1_555
C68_3 C22_3 1_555 1_555
C69_3 C63_3 1_555 1_555
O12_3 C69_3 1_555 1_555
O13_3 C69_3 1_555 1_555
Zn6_3 O1_6 1_555 1_555
Zn8_3 O1_6 1_555 1_555
O16_3 Zn6_3 1_555 1_555
O18_3 Zn8_3 1_555 1_555
O19_3 Zn2_6 1_555 1_555
O20_3 Zn2_6 1_555 1_555
O21_3 Zn2_6 1_555 1_555
Zn11_3 O12_3 1_555 1_555
Zn14_6 O13_3 1_555 1_555
C10_3 C13_3 1_555 1_555
C11_3 C14_3 1_555 1_555
O5_3 Zn6_3 1_555 1_555
C49_3 C68_3 1_555 1_555
C53_3 C61_3 1_555 1_555
C64_3 C65_3 1_555 1_555
C5_4 C8_4 1_555 1_555
C8_4 O2_4 1_555 1_555
H4_4 C11_4 1_555 1_555
C13_4 C5_4 1_555 1_555
H6_4 C13_4 1_555 1_555
C14_4 C5_4 1_555 1_555
H7_4 C14_4 1_555 1_555
O1_7 Zn9_3 1_555 1_555
O2_4 Zn9_3 1_555 1_555
O5_4 C8_4 1_555 1_555
Zn14_6 O1_7 1_555 1_555
Zn10_3 O1_7 1_555 1_555
Zn11_3 O1_7 1_555 1_555
O14 Zn10_3 1_555 1_555
O15 Zn11_3 1_555 1_555
O22 Zn11_3 1_555 1_555
O23 Zn9_3 1_555 1_555
C10_4 C13_4 1_555 1_555
C11_4 C14_4 1_555 1_555
O5_4 Zn10_3 1_555 1_555
C1_4 H1_4 1_555 1_555
C2_4 H2_4 1_555 1_555
C3_4 C1_4 1_555 1_555
C4_4 C6_4 1_555 1_555
C6_4 C2_4 1_555 1_555
C7_4 C1_4 1_555 1_555
C9_4 C7_4 1_555 1_555
C12_4 C9_4 1_555 1_555
H5_4 C12_4 1_555 1_555
C15_4 C6_4 1_555 1_555
H8_4 C15_4 1_555 1_555
C16_4 C12_4 1_555 1_555
H9_4 C16_4 1_555 1_555
C17_4 C16_4 1_555 1_555
C18_4 C9_4 1_555 1_555
H10_4 C18_4 1_555 1_555
C19_4 C17_4 1_555 1_555
H11_4 C19_4 1_555 1_555
C20_4 H12_4 1_555 1_555
H13_4 C20_4 1_555 1_555
H14_4 C20_4 1_555 1_555
C21_4 C17_4 1_555 1_555
C22_4 C20_4 1_555 1_555
C23_4 C3_4 1_555 1_555
O16_2 C21_4 1_555 1_555
O19_2 C21_4 1_555 1_555
C24_4 H15_4 1_555 1_555
C25_4 H16_4 1_555 1_555
C26_4 C24_4 1_555 1_555
C27_4 C29_4 1_555 1_555
C29_4 C25_4 1_555 1_555
C30_4 C24_4 1_555 1_555
C32_4 C30_4 1_555 1_555
C35_4 C32_4 1_555 1_555
H19_4 C35_4 1_555 1_555
C38_4 C29_4 1_555 1_555
H22_4 C38_4 1_555 1_555
C39_4 C35_4 1_555 1_555
H23_4 C39_4 1_555 1_555
C40_4 C39_4 1_555 1_555
C41_4 C32_4 1_555 1_555
H24_4 C41_4 1_555 1_555
C42_4 C40_4 1_555 1_555
H25_4 C42_4 1_555 1_555
C43_4 H26_4 1_555 1_555
H27_4 C43_4 1_555 1_555
H28_4 C43_4 1_555 1_555
C44_4 C23_4 1_555 1_555
C45_4 C26_4 1_555 1_555
C46_4 C40_4 1_555 1_555
O17_2 C46_4 1_555 1_555
O20_2 C46_4 1_555 1_555
C47_4 H29_4 1_555 1_555
C48_4 H30_4 1_555 1_555
C49_4 C47_4 1_555 1_555
C50_4 C52_4 1_555 1_555
C51_4 C54_4 1_555 1_555
C52_4 C48_4 1_555 1_555
C53_4 C47_4 1_555 1_555
C54_4 O15 1_555 1_555
C55_4 C53_4 1_555 1_555
C56_4 C50_4 1_555 1_555
H31_4 C56_4 1_555 1_555
C57_4 C50_4 1_555 1_555
H32_4 C57_4 1_555 1_555
C58_4 C55_4 1_555 1_555
H33_4 C58_4 1_555 1_555
C59_4 C51_4 1_555 1_555
H34_4 C59_4 1_555 1_555
C60_4 C51_4 1_555 1_555
H35_4 C60_4 1_555 1_555
C61_4 C52_4 1_555 1_555
H36_4 C61_4 1_555 1_555
C62_4 C58_4 1_555 1_555
H37_4 C62_4 1_555 1_555
C63_4 C62_4 1_555 1_555
C64_4 C55_4 1_555 1_555
H38_4 C64_4 1_555 1_555
C65_4 C63_4 1_555 1_555
H39_4 C65_4 1_555 1_555
C66_4 H40_4 1_555 1_555
H41_4 C66_4 1_555 1_555
H42_4 C66_4 1_555 1_555
C67_4 C45_4 1_555 1_555
C68_4 C22_4 1_555 1_555
O23 C54_4 1_555 1_555
C69_4 C63_4 1_555 1_555
O18_2 C69_4 1_555 1_555
O21_2 C69_4 1_555 1_555
C2_4 C3_4 1_555 1_555
C7_4 C15_4 1_555 1_555
C18_4 C19_4 1_555 1_555
C22_4 C23_4 1_555 1_555
C25_4 C26_4 1_555 1_555
C30_4 C38_4 1_555 1_555
C41_4 C42_4 1_555 1_555
C43_4 C44_4 1_555 1_555
C44_4 C45_4 1_555 1_555
C48_4 C49_4 1_555 1_555
C49_4 C68_4 1_555 1_555
C53_4 C61_4 1_555 1_555
C56_4 C59_4 1_555 1_555
C57_4 C60_4 1_555 1_555
C64_4 C65_4 1_555 1_555
C66_4 C67_4 1_555 1_555
C67_4 C68_4 1_555 1_555
C28_4 C31_4 1_555 1_555
C31_4 O14 1_555 1_555
H18_4 C34_4 1_555 1_555
C36_4 C28_4 1_555 1_555
H20_4 C36_4 1_555 1_555
C37_4 C28_4 1_555 1_555
H21_4 C37_4 1_555 1_555
O22 C31_4 1_555 1_555
C33_4 C36_4 1_555 1_555
C34_4 C37_4 1_555 1_555
C2_5 H2_5 1_555 1_555
C4_5 C6_5 1_555 1_555
C5_5 C8_5 1_555 1_555
C6_5 C2_5 1_555 1_555
C8_5 O2_5 1_555 1_555
C10_5 C4_5 1_555 1_555
H3_5 C10_5 1_555 1_555
C11_5 C4_5 1_555 1_555
H4_5 C11_5 1_555 1_555
C13_5 C5_5 1_555 1_555
H6_5 C13_5 1_555 1_555
C14_5 C5_5 1_555 1_555
H7_5 C14_5 1_555 1_555
C20_5 H12_5 1_555 1_555
H13_5 C20_5 1_555 1_555
H14_5 C20_5 1_555 1_555
C22_5 C20_5 1_555 1_555
O1_8 Zn9_2 1_555 1_555
O2_5 Zn9_2 1_555 1_555
O5_5 C8_5 1_555 1_555
Zn14_5 O1_8 1_555 1_555
C47_5 H29_5 1_555 1_555
C49_5 C47_5 1_555 1_555
C53_5 C47_5 1_555 1_555
C55_5 C53_5 1_555 1_555
C58_5 C55_5 1_555 1_555
H33_5 C58_5 1_555 1_555
H36_5 C61_5 1_555 1_555
C62_5 C58_5 1_555 1_555
H37_5 C62_5 1_555 1_555
C63_5 C62_5 1_555 1_555
C64_5 C55_5 1_555 1_555
H38_5 C64_5 1_555 1_555
C65_5 C63_5 1_555 1_555
H39_5 C65_5 1_555 1_555
C68_5 C22_5 1_555 1_555
C69_5 C63_5 1_555 1_555
O18 C69_5 1_555 1_555
O21 C69_5 1_555 1_555
Zn10_2 O1_8 1_555 1_555
Zn11_2 O1_8 1_555 1_555
O14_2 Zn10_2 1_555 1_555
O15_2 Zn11_2 1_555 1_555
O22_2 Zn11_2 1_555 1_555
O23_2 Zn9_2 1_555 1_555
C10_5 C13_5 1_555 1_555
C11_5 C14_5 1_555 1_555
O5_5 Zn10_2 1_555 1_555
C49_5 C68_5 1_555 1_555
C53_5 C61_5 1_555 1_555
C64_5 C65_5 1_555 1_555
C1_5 H1_5 1_555 1_555
C3_5 C1_5 1_555 1_555
C7_5 C1_5 1_555 1_555
C9_5 C7_5 1_555 1_555
C12_5 C9_5 1_555 1_555
H5_5 C12_5 1_555 1_555
H8_5 C15_5 1_555 1_555
C16_5 C12_5 1_555 1_555
H9_5 C16_5 1_555 1_555
C17_5 C16_5 1_555 1_555
C18_5 C9_5 1_555 1_555
H10_5 C18_5 1_555 1_555
C19_5 C17_5 1_555 1_555
H11_5 C19_5 1_555 1_555
C21_5 C17_5 1_555 1_555
C23_5 C3_5 1_555 1_555
O16 C21_5 1_555 1_555
O19 C21_5 1_555 1_555
C7_5 C15_5 1_555 1_555
C18_5 C19_5 1_555 1_555
C48_5 H30_5 1_555 1_555
C50_5 C52_5 1_555 1_555
C51_5 C54_5 1_555 1_555
C52_5 C48_5 1_555 1_555
C54_5 O15_2 1_555 1_555
C56_5 C50_5 1_555 1_555
H31_5 C56_5 1_555 1_555
C57_5 C50_5 1_555 1_555
H32_5 C57_5 1_555 1_555
C59_5 C51_5 1_555 1_555
H34_5 C59_5 1_555 1_555
C60_5 C51_5 1_555 1_555
H35_5 C60_5 1_555 1_555
C66_5 H40_5 1_555 1_555
H41_5 C66_5 1_555 1_555
O23_2 C54_5 1_555 1_555
C56_5 C59_5 1_555 1_555
C57_5 C60_5 1_555 1_555
C66_5 C67_5 1_555 1_555
C24_5 H15_5 1_555 1_555
C25_5 H16_5 1_555 1_555
C26_5 C24_5 1_555 1_555
C27_5 C29_5 1_555 1_555
C28_5 C31_5 1_555 1_555
C29_5 C25_5 1_555 1_555
C30_5 C24_5 1_555 1_555
C31_5 O14_2 1_555 1_555
C32_5 C30_5 1_555 1_555
C33_5 C27_5 1_555 1_555
H17_5 C33_5 1_555 1_555
C34_5 C27_5 1_555 1_555
H18_5 C34_5 1_555 1_555
C35_5 C32_5 1_555 1_555
H19_5 C35_5 1_555 1_555
C36_5 C28_5 1_555 1_555
H20_5 C36_5 1_555 1_555
C37_5 C28_5 1_555 1_555
H21_5 C37_5 1_555 1_555
C38_5 C29_5 1_555 1_555
H22_5 C38_5 1_555 1_555
C39_5 C35_5 1_555 1_555
H23_5 C39_5 1_555 1_555
C40_5 C39_5 1_555 1_555
C41_5 C32_5 1_555 1_555
H24_5 C41_5 1_555 1_555
C42_5 C40_5 1_555 1_555
H25_5 C42_5 1_555 1_555
C43_5 H26_5 1_555 1_555
H27_5 C43_5 1_555 1_555
C45_5 C26_5 1_555 1_555
O22_2 C31_5 1_555 1_555
C46_5 C40_5 1_555 1_555
O17 C46_5 1_555 1_555
O20 C46_5 1_555 1_555
C25_5 C26_5 1_555 1_555
C30_5 C38_5 1_555 1_555
C33_5 C36_5 1_555 1_555
C34_5 C37_5 1_555 1_555
C41_5 C42_5 1_555 1_555
C43_5 C44_5 1_555 1_555
C44_5 C45_5 1_555 1_555
Zn14 O1_9 1_555 1_555
Zn11 O1_9 1_555 1_555
O15_3 Zn11 1_555 1_555
O22_3 Zn11 1_555 1_555
Zn14_2 O1_10 1_555 1_555
Zn14_3 O1_11 1_555 1_555
H35_6 C60_6 1_555 1_555
H37_6 C62_6 1_555 1_555
C63_6 C62_6 1_555 1_555
H38_6 C64_6 1_555 1_555
C65_6 C63_6 1_555 1_555
H39_6 C65_6 1_555 1_555
C69_6 C63_6 1_555 1_555
O18_3 C69_6 1_555 1_555
O21_3 C69_6 1_555 1_555
Zn10 O1_11 1_555 1_555
O14_3 Zn10 1_555 1_555
C64_6 C65_6 1_555 1_555
C1_6 H1_6 1_555 1_555
C2_6 H2_6 1_555 1_555
C3_6 C1_6 1_555 1_555
C4_6 C6_6 1_555 1_555
C5_6 C8_6 1_555 1_555
C6_6 C2_6 1_555 1_555
C7_6 C1_6 1_555 1_555
C8_6 O2_6 1_555 1_555
C9_6 C7_6 1_555 1_555
C10_6 C4_6 1_555 1_555
H3_6 C10_6 1_555 1_555
C11_6 C4_6 1_555 1_555
H4_6 C11_6 1_555 1_555
C12_6 C9_6 1_555 1_555
H5_6 C12_6 1_555 1_555
C13_6 C5_6 1_555 1_555
H6_6 C13_6 1_555 1_555
C14_6 C5_6 1_555 1_555
H7_6 C14_6 1_555 1_555
C15_6 C6_6 1_555 1_555
H8_6 C15_6 1_555 1_555
C16_6 C12_6 1_555 1_555
H9_6 C16_6 1_555 1_555
C17_6 C16_6 1_555 1_555
C18_6 C9_6 1_555 1_555
H10_6 C18_6 1_555 1_555
C19_6 C17_6 1_555 1_555
H11_6 C19_6 1_555 1_555
C20_6 H12_6 1_555 1_555
H13_6 C20_6 1_555 1_555
H14_6 C20_6 1_555 1_555
C21_6 C17_6 1_555 1_555
C22_6 C20_6 1_555 1_555
C23_6 C3_6 1_555 1_555
O1_12 Zn9 1_555 1_555
O2_6 Zn9 1_555 1_555
O16_3 C21_6 1_555 1_555
O19_3 C21_6 1_555 1_555
O5_6 C8_6 1_555 1_555
Zn14_4 O1_12 1_555 1_555
C24_6 H15_6 1_555 1_555
C25_6 H16_6 1_555 1_555
C26_6 C24_6 1_555 1_555
C27_6 C29_6 1_555 1_555
C28_6 C31_6 1_555 1_555
C29_6 C25_6 1_555 1_555
C30_6 C24_6 1_555 1_555
C32_6 C30_6 1_555 1_555
C33_6 C27_6 1_555 1_555
H17_6 C33_6 1_555 1_555
C34_6 C27_6 1_555 1_555
C35_6 C32_6 1_555 1_555
H19_6 C35_6 1_555 1_555
C36_6 C28_6 1_555 1_555
H20_6 C36_6 1_555 1_555
C38_6 C29_6 1_555 1_555
C43_6 H26_6 1_555 1_555
H27_6 C43_6 1_555 1_555
H28_6 C43_6 1_555 1_555
C44_6 C23_6 1_555 1_555
C45_6 C26_6 1_555 1_555
O22_3 C31_6 1_555 1_555
C47_6 H29_6 1_555 1_555
C48_6 H30_6 1_555 1_555
C49_6 C47_6 1_555 1_555
C50_6 C52_6 1_555 1_555
C51_6 C54_6 1_555 1_555
C52_6 C48_6 1_555 1_555
C53_6 C47_6 1_555 1_555
C55_6 C53_6 1_555 1_555
C56_6 C50_6 1_555 1_555
H31_6 C56_6 1_555 1_555
C57_6 C50_6 1_555 1_555
C58_6 C55_6 1_555 1_555
H33_6 C58_6 1_555 1_555
C59_6 C51_6 1_555 1_555
H34_6 C59_6 1_555 1_555
C61_6 C52_6 1_555 1_555
C66_6 H40_6 1_555 1_555
H41_6 C66_6 1_555 1_555
H42_6 C66_6 1_555 1_555
C67_6 C45_6 1_555 1_555
C68_6 C22_6 1_555 1_555
O23_3 C54_6 1_555 1_555
C2_6 C3_6 1_555 1_555
C7_6 C15_6 1_555 1_555
C10_6 C13_6 1_555 1_555
C11_6 C14_6 1_555 1_555
C18_6 C19_6 1_555 1_555
C22_6 C23_6 1_555 1_555
C25_6 C26_6 1_555 1_555
C30_6 C38_6 1_555 1_555
C33_6 C36_6 1_555 1_555
C43_6 C44_6 1_555 1_555
C44_6 C45_6 1_555 1_555
C48_6 C49_6 1_555 1_555
C49_6 C68_6 1_555 1_555
C53_6 C61_6 1_555 1_555
C56_6 C59_6 1_555 1_555
C66_6 C67_6 1_555 1_555
C67_6 C68_6 1_555 1_555
H21_6 C37_6 1_555 1_555
H23_6 C39_6 1_555 1_555
C40_6 C39_6 1_555 1_555
H24_6 C41_6 1_555 1_555
C42_6 C40_6 1_555 1_555
H25_6 C42_6 1_555 1_555
C46_6 C40_6 1_555 1_555
O17_3 C46_6 1_555 1_555
O20_3 C46_6 1_555 1_555
C41_6 C42_6 1_555 1_555
C28_7 C31_7 1_555 1_555
C31_7 O6_4 1_555 1_555
H18_7 C34_7 1_555 1_555
C36_7 C28_7 1_555 1_555
H20_7 C36_7 1_555 1_555
C37_7 C28_7 1_555 1_555
H21_7 C37_7 1_555 1_555
O6_4 Zn6_4 1_555 1_555
O7_4 C31_7 1_555 1_555
Zn8_4 O7_4 1_555 1_555
C33_7 C36_7 1_555 1_555
C34_7 C37_7 1_555 1_555
C1_7 H1_7 1_555 1_555
C2_7 H2_7 1_555 1_555
C3_7 C1_7 1_555 1_555
C4_7 C6_7 1_555 1_555
C6_7 C2_7 1_555 1_555
C7_7 C1_7 1_555 1_555
C9_7 C7_7 1_555 1_555
C12_7 C9_7 1_555 1_555
H5_7 C12_7 1_555 1_555
C15_7 C6_7 1_555 1_555
H8_7 C15_7 1_555 1_555
C16_7 C12_7 1_555 1_555
H9_7 C16_7 1_555 1_555
C17_7 C16_7 1_555 1_555
C18_7 C9_7 1_555 1_555
H10_7 C18_7 1_555 1_555
C19_7 C17_7 1_555 1_555
H11_7 C19_7 1_555 1_555
C20_7 H12_7 1_555 1_555
H13_7 C20_7 1_555 1_555
H14_7 C20_7 1_555 1_555
C21_7 C17_7 1_555 1_555
C22_7 C20_7 1_555 1_555
C23_7 C3_7 1_555 1_555
O3_4 C21_7 1_555 1_555
O4_4 C21_7 1_555 1_555
C24_7 H15_7 1_555 1_555
C25_7 H16_7 1_555 1_555
C26_7 C24_7 1_555 1_555
C27_7 C29_7 1_555 1_555
C29_7 C25_7 1_555 1_555
C30_7 C24_7 1_555 1_555
C32_7 C30_7 1_555 1_555
C35_7 C32_7 1_555 1_555
H19_7 C35_7 1_555 1_555
C38_7 C29_7 1_555 1_555
H22_7 C38_7 1_555 1_555
C39_7 C35_7 1_555 1_555
H23_7 C39_7 1_555 1_555
C40_7 C39_7 1_555 1_555
C41_7 C32_7 1_555 1_555
H24_7 C41_7 1_555 1_555
C42_7 C40_7 1_555 1_555
H25_7 C42_7 1_555 1_555
C43_7 H26_7 1_555 1_555
H27_7 C43_7 1_555 1_555
H28_7 C43_7 1_555 1_555
C44_7 C23_7 1_555 1_555
C45_7 C26_7 1_555 1_555
C46_7 C40_7 1_555 1_555
O8_4 C46_7 1_555 1_555
O9_4 C46_7 1_555 1_555
C47_7 H29_7 1_555 1_555
C48_7 H30_7 1_555 1_555
C49_7 C47_7 1_555 1_555
C50_7 C52_7 1_555 1_555
C51_7 C54_7 1_555 1_555
C52_7 C48_7 1_555 1_555
C53_7 C47_7 1_555 1_555
C54_7 O10_4 1_555 1_555
C55_7 C53_7 1_555 1_555
C56_7 C50_7 1_555 1_555
H31_7 C56_7 1_555 1_555
C57_7 C50_7 1_555 1_555
H32_7 C57_7 1_555 1_555
C58_7 C55_7 1_555 1_555
H33_7 C58_7 1_555 1_555
C59_7 C51_7 1_555 1_555
H34_7 C59_7 1_555 1_555
C60_7 C51_7 1_555 1_555
H35_7 C60_7 1_555 1_555
C61_7 C52_7 1_555 1_555
H36_7 C61_7 1_555 1_555
C62_7 C58_7 1_555 1_555
H37_7 C62_7 1_555 1_555
C63_7 C62_7 1_555 1_555
C64_7 C55_7 1_555 1_555
H38_7 C64_7 1_555 1_555
C65_7 C63_7 1_555 1_555
H39_7 C65_7 1_555 1_555
C66_7 H40_7 1_555 1_555
H41_7 C66_7 1_555 1_555
H42_7 C66_7 1_555 1_555
C67_7 C45_7 1_555 1_555
C68_7 C22_7 1_555 1_555
O10_4 Zn8_4 1_555 1_555
O11_4 C54_7 1_555 1_555
C69_7 C63_7 1_555 1_555
O12_4 C69_7 1_555 1_555
O13_4 C69_7 1_555 1_555
Zn5_4 O11_4 1_555 1_555
Zn9_4 O8_4 1_555 1_555
Zn10_4 O3_4 1_555 1_555
Zn11_4 O12_4 1_555 1_555
Zn14_7 O13_4 1_555 1_555
Zn14_8 O4_4 1_555 1_555
Zn14_10 O9_4 1_555 1_555
C2_7 C3_7 1_555 1_555
C7_7 C15_7 1_555 1_555
C18_7 C19_7 1_555 1_555
C22_7 C23_7 1_555 1_555
C25_7 C26_7 1_555 1_555
C30_7 C38_7 1_555 1_555
C41_7 C42_7 1_555 1_555
C43_7 C44_7 1_555 1_555
C44_7 C45_7 1_555 1_555
C48_7 C49_7 1_555 1_555
C49_7 C68_7 1_555 1_555
C53_7 C61_7 1_555 1_555
C56_7 C59_7 1_555 1_555
C57_7 C60_7 1_555 1_555
C64_7 C65_7 1_555 1_555
C66_7 C67_7 1_555 1_555
C67_7 C68_7 1_555 1_555
C5_7 C8_7 1_555 1_555
C8_7 O2_7 1_555 1_555
H4_7 C11_7 1_555 1_555
C13_7 C5_7 1_555 1_555
H6_7 C13_7 1_555 1_555
C14_7 C5_7 1_555 1_555
H7_7 C14_7 1_555 1_555
O1_13 Zn5_4 1_555 1_555
O2_7 Zn5_4 1_555 1_555
O5_7 C8_7 1_555 1_555
Zn5_4 O17_4 1_555 1_555
Zn2_7 O1_13 1_555 1_555
Zn6_4 O1_13 1_555 1_555
Zn8_4 O1_13 1_555 1_555
O16_4 Zn6_4 1_555 1_555
O18_4 Zn8_4 1_555 1_555
O19_4 Zn2_7 1_555 1_555
O20_4 Zn2_7 1_555 1_555
O21_4 Zn2_7 1_555 1_555
C10_7 C13_7 1_555 1_555
C11_7 C14_7 1_555 1_555
O5_7 Zn6_4 1_555 1_555
C24_8 H15_8 1_555 1_555
C25_8 H16_8 1_555 1_555
C26_8 C24_8 1_555 1_555
C27_8 C29_8 1_555 1_555
C28_8 C31_8 1_555 1_555
C29_8 C25_8 1_555 1_555
C30_8 C24_8 1_555 1_555
C31_8 O6_5 1_555 1_555
C32_8 C30_8 1_555 1_555
C33_8 C27_8 1_555 1_555
H17_8 C33_8 1_555 1_555
C34_8 C27_8 1_555 1_555
H18_8 C34_8 1_555 1_555
C35_8 C32_8 1_555 1_555
H19_8 C35_8 1_555 1_555
C36_8 C28_8 1_555 1_555
H20_8 C36_8 1_555 1_555
C37_8 C28_8 1_555 1_555
H21_8 C37_8 1_555 1_555
C38_8 C29_8 1_555 1_555
H22_8 C38_8 1_555 1_555
C39_8 C35_8 1_555 1_555
H23_8 C39_8 1_555 1_555
C40_8 C39_8 1_555 1_555
C41_8 C32_8 1_555 1_555
H24_8 C41_8 1_555 1_555
C42_8 C40_8 1_555 1_555
H25_8 C42_8 1_555 1_555
C43_8 H26_8 1_555 1_555
H27_8 C43_8 1_555 1_555
C45_8 C26_8 1_555 1_555
O6_5 Zn6_5 1_555 1_555
O7_5 C31_8 1_555 1_555
C46_8 C40_8 1_555 1_555
O8_5 C46_8 1_555 1_555
O9_5 C46_8 1_555 1_555
Zn8_5 O7_5 1_555 1_555
Zn9_5 O8_5 1_555 1_555
Zn14_11 O9_5 1_555 1_555
C25_8 C26_8 1_555 1_555
C30_8 C38_8 1_555 1_555
C33_8 C36_8 1_555 1_555
C34_8 C37_8 1_555 1_555
C41_8 C42_8 1_555 1_555
C43_8 C44_8 1_555 1_555
C44_8 C45_8 1_555 1_555
C48_8 H30_8 1_555 1_555
C50_8 C52_8 1_555 1_555
C51_8 C54_8 1_555 1_555
C52_8 C48_8 1_555 1_555
C54_8 O10_5 1_555 1_555
C56_8 C50_8 1_555 1_555
H31_8 C56_8 1_555 1_555
C57_8 C50_8 1_555 1_555
H32_8 C57_8 1_555 1_555
C59_8 C51_8 1_555 1_555
H34_8 C59_8 1_555 1_555
C60_8 C51_8 1_555 1_555
H35_8 C60_8 1_555 1_555
C66_8 H40_8 1_555 1_555
H41_8 C66_8 1_555 1_555
O10_5 Zn8_5 1_555 1_555
O11_5 C54_8 1_555 1_555
Zn5_5 O11_5 1_555 1_555
C56_8 C59_8 1_555 1_555
C57_8 C60_8 1_555 1_555
C66_8 C67_8 1_555 1_555
C1_8 H1_8 1_555 1_555
C3_8 C1_8 1_555 1_555
C7_8 C1_8 1_555 1_555
C9_8 C7_8 1_555 1_555
C12_8 C9_8 1_555 1_555
H5_8 C12_8 1_555 1_555
H8_8 C15_8 1_555 1_555
C16_8 C12_8 1_555 1_555
H9_8 C16_8 1_555 1_555
C17_8 C16_8 1_555 1_555
C18_8 C9_8 1_555 1_555
H10_8 C18_8 1_555 1_555
C19_8 C17_8 1_555 1_555
H11_8 C19_8 1_555 1_555
C21_8 C17_8 1_555 1_555
C23_8 C3_8 1_555 1_555
O3_5 C21_8 1_555 1_555
O4_5 C21_8 1_555 1_555
Zn10_5 O3_5 1_555 1_555
Zn14_11 O4_5 1_555 1_555
C7_8 C15_8 1_555 1_555
C18_8 C19_8 1_555 1_555
C2_8 H2_8 1_555 1_555
C4_8 C6_8 1_555 1_555
C5_8 C8_8 1_555 1_555
C6_8 C2_8 1_555 1_555
C8_8 O2_8 1_555 1_555
C10_8 C4_8 1_555 1_555
H3_8 C10_8 1_555 1_555
C11_8 C4_8 1_555 1_555
H4_8 C11_8 1_555 1_555
C13_8 C5_8 1_555 1_555
H6_8 C13_8 1_555 1_555
C14_8 C5_8 1_555 1_555
H7_8 C14_8 1_555 1_555
C20_8 H12_8 1_555 1_555
H13_8 C20_8 1_555 1_555
H14_8 C20_8 1_555 1_555
C22_8 C20_8 1_555 1_555
O1_14 Zn5_5 1_555 1_555
O2_8 Zn5_5 1_555 1_555
O5_8 C8_8 1_555 1_555
Zn5_5 O17_5 1_555 1_555
Zn2_8 O1_14 1_555 1_555
C47_8 H29_8 1_555 1_555
C49_8 C47_8 1_555 1_555
C53_8 C47_8 1_555 1_555
C55_8 C53_8 1_555 1_555
C58_8 C55_8 1_555 1_555
H33_8 C58_8 1_555 1_555
H36_8 C61_8 1_555 1_555
C62_8 C58_8 1_555 1_555
H37_8 C62_8 1_555 1_555
C63_8 C62_8 1_555 1_555
C64_8 C55_8 1_555 1_555
H38_8 C64_8 1_555 1_555
C65_8 C63_8 1_555 1_555
H39_8 C65_8 1_555 1_555
C68_8 C22_8 1_555 1_555
C69_8 C63_8 1_555 1_555
O12_5 C69_8 1_555 1_555
O13_5 C69_8 1_555 1_555
Zn6_5 O1_14 1_555 1_555
Zn8_5 O1_14 1_555 1_555
O16_5 Zn6_5 1_555 1_555
O18_5 Zn8_5 1_555 1_555
O19_5 Zn2_8 1_555 1_555
O20_5 Zn2_8 1_555 1_555
O21_5 Zn2_8 1_555 1_555
Zn11_5 O12_5 1_555 1_555
Zn14_11 O13_5 1_555 1_555
C10_8 C13_8 1_555 1_555
C11_8 C14_8 1_555 1_555
O5_8 Zn6_5 1_555 1_555
C49_8 C68_8 1_555 1_555
C53_8 C61_8 1_555 1_555
C64_8 C65_8 1_555 1_555
H21_9 C37_9 1_555 1_555
H23_9 C39_9 1_555 1_555
C40_9 C39_9 1_555 1_555
H24_9 C41_9 1_555 1_555
C42_9 C40_9 1_555 1_555
H25_9 C42_9 1_555 1_555
O6_6 Zn6_6 1_555 1_555
C46_9 C40_9 1_555 1_555
O8_6 C46_9 1_555 1_555
O9_6 C46_9 1_555 1_555
Zn9_6 O8_6 1_555 1_555
Zn14_12 O9_6 1_555 1_555
C41_9 C42_9 1_555 1_555
C1_9 H1_9 1_555 1_555
C2_9 H2_9 1_555 1_555
C3_9 C1_9 1_555 1_555
C4_9 C6_9 1_555 1_555
C5_9 C8_9 1_555 1_555
C6_9 C2_9 1_555 1_555
C7_9 C1_9 1_555 1_555
C8_9 O2_9 1_555 1_555
C9_9 C7_9 1_555 1_555
C10_9 C4_9 1_555 1_555
H3_9 C10_9 1_555 1_555
C11_9 C4_9 1_555 1_555
H4_9 C11_9 1_555 1_555
C12_9 C9_9 1_555 1_555
H5_9 C12_9 1_555 1_555
C13_9 C5_9 1_555 1_555
H6_9 C13_9 1_555 1_555
C14_9 C5_9 1_555 1_555
H7_9 C14_9 1_555 1_555
C15_9 C6_9 1_555 1_555
H8_9 C15_9 1_555 1_555
C16_9 C12_9 1_555 1_555
H9_9 C16_9 1_555 1_555
C17_9 C16_9 1_555 1_555
C18_9 C9_9 1_555 1_555
H10_9 C18_9 1_555 1_555
C19_9 C17_9 1_555 1_555
H11_9 C19_9 1_555 1_555
C20_9 H12_9 1_555 1_555
H13_9 C20_9 1_555 1_555
H14_9 C20_9 1_555 1_555
C21_9 C17_9 1_555 1_555
C22_9 C20_9 1_555 1_555
C23_9 C3_9 1_555 1_555
O1_15 Zn5_6 1_555 1_555
O2_9 Zn5_6 1_555 1_555
O3_6 C21_9 1_555 1_555
O4_6 C21_9 1_555 1_555
O5_9 C8_9 1_555 1_555
Zn5_6 O17_6 1_555 1_555
Zn2_9 O1_15 1_555 1_555
C24_9 H15_9 1_555 1_555
C25_9 H16_9 1_555 1_555
C26_9 C24_9 1_555 1_555
C27_9 C29_9 1_555 1_555
C28_9 C31_9 1_555 1_555
C29_9 C25_9 1_555 1_555
C30_9 C24_9 1_555 1_555
C32_9 C30_9 1_555 1_555
C33_9 C27_9 1_555 1_555
H17_9 C33_9 1_555 1_555
C34_9 C27_9 1_555 1_555
C35_9 C32_9 1_555 1_555
H19_9 C35_9 1_555 1_555
C36_9 C28_9 1_555 1_555
H20_9 C36_9 1_555 1_555
C38_9 C29_9 1_555 1_555
C43_9 H26_9 1_555 1_555
H27_9 C43_9 1_555 1_555
H28_9 C43_9 1_555 1_555
C44_9 C23_9 1_555 1_555
C45_9 C26_9 1_555 1_555
O7_6 C31_9 1_555 1_555
C47_9 H29_9 1_555 1_555
C48_9 H30_9 1_555 1_555
C49_9 C47_9 1_555 1_555
C50_9 C52_9 1_555 1_555
C51_9 C54_9 1_555 1_555
C52_9 C48_9 1_555 1_555
C53_9 C47_9 1_555 1_555
C55_9 C53_9 1_555 1_555
C56_9 C50_9 1_555 1_555
H31_9 C56_9 1_555 1_555
C57_9 C50_9 1_555 1_555
C58_9 C55_9 1_555 1_555
H33_9 C58_9 1_555 1_555
C59_9 C51_9 1_555 1_555
H34_9 C59_9 1_555 1_555
C61_9 C52_9 1_555 1_555
C66_9 H40_9 1_555 1_555
H41_9 C66_9 1_555 1_555
H42_9 C66_9 1_555 1_555
C67_9 C45_9 1_555 1_555
C68_9 C22_9 1_555 1_555
O11_6 C54_9 1_555 1_555
O20_6 Zn2_9 1_555 1_555
Zn8_6 O7_6 1_555 1_555
Zn10_6 O3_6 1_555 1_555
Zn14_12 O4_6 1_555 1_555
C2_9 C3_9 1_555 1_555
C7_9 C15_9 1_555 1_555
C10_9 C13_9 1_555 1_555
C11_9 C14_9 1_555 1_555
C18_9 C19_9 1_555 1_555
C22_9 C23_9 1_555 1_555
C25_9 C26_9 1_555 1_555
C30_9 C38_9 1_555 1_555
C33_9 C36_9 1_555 1_555
C43_9 C44_9 1_555 1_555
C44_9 C45_9 1_555 1_555
C48_9 C49_9 1_555 1_555
C49_9 C68_9 1_555 1_555
C53_9 C61_9 1_555 1_555
C56_9 C59_9 1_555 1_555
C66_9 C67_9 1_555 1_555
C67_9 C68_9 1_555 1_555
Zn2_10 O1_16 1_555 1_555
H35_9 C60_9 1_555 1_555
H37_9 C62_9 1_555 1_555
C63_9 C62_9 1_555 1_555
H38_9 C64_9 1_555 1_555
C65_9 C63_9 1_555 1_555
H39_9 C65_9 1_555 1_555
O10_6 Zn8_6 1_555 1_555
C69_9 C63_9 1_555 1_555
O12_6 C69_9 1_555 1_555
O13_6 C69_9 1_555 1_555
Zn6_6 O1_16 1_555 1_555
O16_6 Zn6_6 1_555 1_555
O19_6 Zn2_10 1_555 1_555
Zn11_6 O12_6 1_555 1_555
Zn14_12 O13_6 1_555 1_555
C64_9 C65_9 1_555 1_555
Zn2_11 O1_17 1_555 1_555
Zn2_12 O1_18 1_555 1_555
Zn8_6 O1_18 1_555 1_555
O18_6 Zn8_6 1_555 1_555
O21_6 Zn2_12 1_555 1_555
C5_10 C8_10 1_555 1_555
C8_10 O2_10 1_555 1_555
H4_10 C11_10 1_555 1_555
C13_10 C5_10 1_555 1_555
H6_10 C13_10 1_555 1_555
C14_10 C5_10 1_555 1_555
H7_10 C14_10 1_555 1_555
O1_19 Zn9_5 1_555 1_555
O2_10 Zn9_5 1_555 1_555
O5_10 C8_10 1_555 1_555
Zn14_11 O1_19 1_555 1_555
Zn10_5 O1_19 1_555 1_555
Zn11_5 O1_19 1_555 1_555
O14_4 Zn10_5 1_555 1_555
O15_4 Zn11_5 1_555 1_555
O22_4 Zn11_5 1_555 1_555
O23_4 Zn9_5 1_555 1_555
C10_10 C13_10 1_555 1_555
C11_10 C14_10 1_555 1_555
O5_10 Zn10_5 1_555 1_555
C1_10 H1_10 1_555 1_555
C3_10 C1_10 1_555 1_555
C7_10 C1_10 1_555 1_555
C9_10 C7_10 1_555 1_555
C12_10 C9_10 1_555 1_555
H5_10 C12_10 1_555 1_555
H8_10 C15_10 1_555 1_555
C16_10 C12_10 1_555 1_555
H9_10 C16_10 1_555 1_555
C17_10 C16_10 1_555 1_555
C18_10 C9_10 1_555 1_555
H10_10 C18_10 1_555 1_555
C19_10 C17_10 1_555 1_555
H11_10 C19_10 1_555 1_555
H13_10 C20_10 1_555 1_555
H14_10 C20_10 1_555 1_555
C21_10 C17_10 1_555 1_555
C22_10 C20_10 1_555 1_555
C23_10 C3_10 1_555 1_555
O16_6 C21_10 1_555 1_555
O19_6 C21_10 1_555 1_555
C24_10 H15_10 1_555 1_555
C26_10 C24_10 1_555 1_555
C30_10 C24_10 1_555 1_555
C32_10 C30_10 1_555 1_555
C35_10 C32_10 1_555 1_555
H19_10 C35_10 1_555 1_555
H22_10 C38_10 1_555 1_555
C39_10 C35_10 1_555 1_555
H23_10 C39_10 1_555 1_555
C40_10 C39_10 1_555 1_555
C41_10 C32_10 1_555 1_555
H24_10 C41_10 1_555 1_555
C42_10 C40_10 1_555 1_555
H25_10 C42_10 1_555 1_555
H27_10 C43_10 1_555 1_555
H28_10 C43_10 1_555 1_555
C44_10 C23_10 1_555 1_555
C45_10 C26_10 1_555 1_555
C46_10 C40_10 1_555 1_555
O17_6 C46_10 1_555 1_555
O20_6 C46_10 1_555 1_555
C47_10 H29_10 1_555 1_555
C49_10 C47_10 1_555 1_555
C53_10 C47_10 1_555 1_555
C55_10 C53_10 1_555 1_555
C58_10 C55_10 1_555 1_555
H33_10 C58_10 1_555 1_555
H36_10 C61_10 1_555 1_555
C62_10 C58_10 1_555 1_555
H37_10 C62_10 1_555 1_555
C63_10 C62_10 1_555 1_555
C64_10 C55_10 1_555 1_555
H38_10 C64_10 1_555 1_555
C65_10 C63_10 1_555 1_555
H39_10 C65_10 1_555 1_555
H41_10 C66_10 1_555 1_555
H42_10 C66_10 1_555 1_555
C67_10 C45_10 1_555 1_555
C68_10 C22_10 1_555 1_555
C69_10 C63_10 1_555 1_555
O18_6 C69_10 1_555 1_555
O21_6 C69_10 1_555 1_555
C7_10 C15_10 1_555 1_555
C18_10 C19_10 1_555 1_555
C22_10 C23_10 1_555 1_555
C30_10 C38_10 1_555 1_555
C41_10 C42_10 1_555 1_555
C43_10 C44_10 1_555 1_555
C44_10 C45_10 1_555 1_555
C49_10 C68_10 1_555 1_555
C53_10 C61_10 1_555 1_555
C64_10 C65_10 1_555 1_555
C66_10 C67_10 1_555 1_555
C67_10 C68_10 1_555 1_555
C2_10 H2_10 1_555 1_555
C4_10 C6_10 1_555 1_555
C6_10 C2_10 1_555 1_555
C25_10 H16_10 1_555 1_555
C27_10 C29_10 1_555 1_555
C29_10 C25_10 1_555 1_555
C48_10 H30_10 1_555 1_555
C50_10 C52_10 1_555 1_555
C51_10 C54_10 1_555 1_555
C52_10 C48_10 1_555 1_555
C54_10 O15_4 1_555 1_555
C56_10 C50_10 1_555 1_555
H31_10 C56_10 1_555 1_555
C57_10 C50_10 1_555 1_555
H32_10 C57_10 1_555 1_555
C59_10 C51_10 1_555 1_555
H34_10 C59_10 1_555 1_555
C60_10 C51_10 1_555 1_555
H35_10 C60_10 1_555 1_555
O23_4 C54_10 1_555 1_555
C56_10 C59_10 1_555 1_555
C57_10 C60_10 1_555 1_555
C28_10 C31_10 1_555 1_555
C31_10 O14_4 1_555 1_555
H18_10 C34_10 1_555 1_555
C36_10 C28_10 1_555 1_555
H20_10 C36_10 1_555 1_555
C37_10 C28_10 1_555 1_555
H21_10 C37_10 1_555 1_555
O22_4 C31_10 1_555 1_555
C33_10 C36_10 1_555 1_555
C34_10 C37_10 1_555 1_555
Zn14_7 O1_20 1_555 1_555
Zn11_4 O1_20 1_555 1_555
O15_5 Zn11_4 1_555 1_555
O22_5 Zn11_4 1_555 1_555
Zn14_8 O1_21 1_555 1_555
H35_11 C60_11 1_555 1_555
H37_11 C62_11 1_555 1_555
C63_11 C62_11 1_555 1_555
H38_11 C64_11 1_555 1_555
C65_11 C63_11 1_555 1_555
H39_11 C65_11 1_555 1_555
C69_11 C63_11 1_555 1_555
O18_5 C69_11 1_555 1_555
O21_5 C69_11 1_555 1_555
Zn10_4 O1_21 1_555 1_555
O14_5 Zn10_4 1_555 1_555
C64_11 C65_11 1_555 1_555
Zn14_9 O1_22 1_555 1_555
C1_11 H1_11 1_555 1_555
C2_11 H2_11 1_555 1_555
C3_11 C1_11 1_555 1_555
C4_11 C6_11 1_555 1_555
C5_11 C8_11 1_555 1_555
C6_11 C2_11 1_555 1_555
C7_11 C1_11 1_555 1_555
C8_11 O2_11 1_555 1_555
C9_11 C7_11 1_555 1_555
C10_11 C4_11 1_555 1_555
H3_11 C10_11 1_555 1_555
C11_11 C4_11 1_555 1_555
H4_11 C11_11 1_555 1_555
C12_11 C9_11 1_555 1_555
H5_11 C12_11 1_555 1_555
C13_11 C5_11 1_555 1_555
H6_11 C13_11 1_555 1_555
C14_11 C5_11 1_555 1_555
H7_11 C14_11 1_555 1_555
C15_11 C6_11 1_555 1_555
H8_11 C15_11 1_555 1_555
C16_11 C12_11 1_555 1_555
H9_11 C16_11 1_555 1_555
C17_11 C16_11 1_555 1_555
C18_11 C9_11 1_555 1_555
H10_11 C18_11 1_555 1_555
C19_11 C17_11 1_555 1_555
H11_11 C19_11 1_555 1_555
C20_11 H12_11 1_555 1_555
H13_11 C20_11 1_555 1_555
H14_11 C20_11 1_555 1_555
C21_11 C17_11 1_555 1_555
C22_11 C20_11 1_555 1_555
C23_11 C3_11 1_555 1_555
O1_23 Zn9_4 1_555 1_555
O2_11 Zn9_4 1_555 1_555
O16_5 C21_11 1_555 1_555
O19_5 C21_11 1_555 1_555
O5_11 C8_11 1_555 1_555
Zn14_10 O1_23 1_555 1_555
C24_11 H15_11 1_555 1_555
C25_11 H16_11 1_555 1_555
C26_11 C24_11 1_555 1_555
C27_11 C29_11 1_555 1_555
C28_11 C31_11 1_555 1_555
C29_11 C25_11 1_555 1_555
C30_11 C24_11 1_555 1_555
C32_11 C30_11 1_555 1_555
C33_11 C27_11 1_555 1_555
H17_11 C33_11 1_555 1_555
C34_11 C27_11 1_555 1_555
C35_11 C32_11 1_555 1_555
H19_11 C35_11 1_555 1_555
C36_11 C28_11 1_555 1_555
H20_11 C36_11 1_555 1_555
C38_11 C29_11 1_555 1_555
C43_11 H26_11 1_555 1_555
H27_11 C43_11 1_555 1_555
H28_11 C43_11 1_555 1_555
C44_11 C23_11 1_555 1_555
C45_11 C26_11 1_555 1_555
O22_5 C31_11 1_555 1_555
C47_11 H29_11 1_555 1_555
C48_11 H30_11 1_555 1_555
C49_11 C47_11 1_555 1_555
C50_11 C52_11 1_555 1_555
C51_11 C54_11 1_555 1_555
C52_11 C48_11 1_555 1_555
C53_11 C47_11 1_555 1_555
C55_11 C53_11 1_555 1_555
C56_11 C50_11 1_555 1_555
H31_11 C56_11 1_555 1_555
C57_11 C50_11 1_555 1_555
C58_11 C55_11 1_555 1_555
H33_11 C58_11 1_555 1_555
C59_11 C51_11 1_555 1_555
H34_11 C59_11 1_555 1_555
C61_11 C52_11 1_555 1_555
C66_11 H40_11 1_555 1_555
H41_11 C66_11 1_555 1_555
H42_11 C66_11 1_555 1_555
C67_11 C45_11 1_555 1_555
C68_11 C22_11 1_555 1_555
O23_5 C54_11 1_555 1_555
C2_11 C3_11 1_555 1_555
C7_11 C15_11 1_555 1_555
C10_11 C13_11 1_555 1_555
C11_11 C14_11 1_555 1_555
C18_11 C19_11 1_555 1_555
C22_11 C23_11 1_555 1_555
C25_11 C26_11 1_555 1_555
C30_11 C38_11 1_555 1_555
C33_11 C36_11 1_555 1_555
C43_11 C44_11 1_555 1_555
C44_11 C45_11 1_555 1_555
C48_11 C49_11 1_555 1_555
C49_11 C68_11 1_555 1_555
C53_11 C61_11 1_555 1_555
C56_11 C59_11 1_555 1_555
C66_11 C67_11 1_555 1_555
C67_11 C68_11 1_555 1_555
H21_11 C37_11 1_555 1_555
H23_11 C39_11 1_555 1_555
C40_11 C39_11 1_555 1_555
H24_11 C41_11 1_555 1_555
C42_11 C40_11 1_555 1_555
H25_11 C42_11 1_555 1_555
C46_11 C40_11 1_555 1_555
O17_5 C46_11 1_555 1_555
O20_5 C46_11 1_555 1_555
C41_11 C42_11 1_555 1_555
C2_12 H2_12 1_555 1_555
C4_12 C6_12 1_555 1_555
C5_12 C8_12 1_555 1_555
C6_12 C2_12 1_555 1_555
C8_12 O2_12 1_555 1_555
C10_12 C4_12 1_555 1_555
H3_12 C10_12 1_555 1_555
C11_12 C4_12 1_555 1_555
H4_12 C11_12 1_555 1_555
C13_12 C5_12 1_555 1_555
H6_12 C13_12 1_555 1_555
C14_12 C5_12 1_555 1_555
H7_12 C14_12 1_555 1_555
C20_12 H12_12 1_555 1_555
H13_12 C20_12 1_555 1_555
H14_12 C20_12 1_555 1_555
C22_12 C20_12 1_555 1_555
O1_24 Zn9_6 1_555 1_555
O2_12 Zn9_6 1_555 1_555
O5_12 C8_12 1_555 1_555
Zn14_12 O1_24 1_555 1_555
C47_12 H29_12 1_555 1_555
C49_12 C47_12 1_555 1_555
C53_12 C47_12 1_555 1_555
C55_12 C53_12 1_555 1_555
C58_12 C55_12 1_555 1_555
H33_12 C58_12 1_555 1_555
H36_12 C61_12 1_555 1_555
C62_12 C58_12 1_555 1_555
H37_12 C62_12 1_555 1_555
C63_12 C62_12 1_555 1_555
C64_12 C55_12 1_555 1_555
H38_12 C64_12 1_555 1_555
C65_12 C63_12 1_555 1_555
H39_12 C65_12 1_555 1_555
C68_12 C22_12 1_555 1_555
C69_12 C63_12 1_555 1_555
O18_4 C69_12 1_555 1_555
O21_4 C69_12 1_555 1_555
Zn10_6 O1_24 1_555 1_555
Zn11_6 O1_24 1_555 1_555
O14_6 Zn10_6 1_555 1_555
O15_6 Zn11_6 1_555 1_555
O22_6 Zn11_6 1_555 1_555
O23_6 Zn9_6 1_555 1_555
C10_12 C13_12 1_555 1_555
C11_12 C14_12 1_555 1_555
O5_12 Zn10_6 1_555 1_555
C49_12 C68_12 1_555 1_555
C53_12 C61_12 1_555 1_555
C64_12 C65_12 1_555 1_555
C48_12 H30_12 1_555 1_555
C50_12 C52_12 1_555 1_555
C51_12 C54_12 1_555 1_555
C52_12 C48_12 1_555 1_555
C54_12 O15_6 1_555 1_555
C56_12 C50_12 1_555 1_555
H31_12 C56_12 1_555 1_555
C57_12 C50_12 1_555 1_555
H32_12 C57_12 1_555 1_555
C59_12 C51_12 1_555 1_555
H34_12 C59_12 1_555 1_555
C60_12 C51_12 1_555 1_555
H35_12 C60_12 1_555 1_555
C66_12 H40_12 1_555 1_555
H41_12 C66_12 1_555 1_555
O23_6 C54_12 1_555 1_555
C56_12 C59_12 1_555 1_555
C57_12 C60_12 1_555 1_555
C66_12 C67_12 1_555 1_555
C1_12 H1_12 1_555 1_555
C3_12 C1_12 1_555 1_555
C7_12 C1_12 1_555 1_555
C9_12 C7_12 1_555 1_555
C12_12 C9_12 1_555 1_555
H5_12 C12_12 1_555 1_555
H8_12 C15_12 1_555 1_555
C16_12 C12_12 1_555 1_555
H9_12 C16_12 1_555 1_555
C17_12 C16_12 1_555 1_555
C18_12 C9_12 1_555 1_555
H10_12 C18_12 1_555 1_555
C19_12 C17_12 1_555 1_555
H11_12 C19_12 1_555 1_555
C21_12 C17_12 1_555 1_555
C23_12 C3_12 1_555 1_555
O16_4 C21_12 1_555 1_555
O19_4 C21_12 1_555 1_555
C7_12 C15_12 1_555 1_555
C18_12 C19_12 1_555 1_555
C24_12 H15_12 1_555 1_555
C25_12 H16_12 1_555 1_555
C26_12 C24_12 1_555 1_555
C27_12 C29_12 1_555 1_555
C28_12 C31_12 1_555 1_555
C29_12 C25_12 1_555 1_555
C30_12 C24_12 1_555 1_555
C31_12 O14_6 1_555 1_555
C32_12 C30_12 1_555 1_555
C33_12 C27_12 1_555 1_555
H17_12 C33_12 1_555 1_555
C34_12 C27_12 1_555 1_555
H18_12 C34_12 1_555 1_555
C35_12 C32_12 1_555 1_555
H19_12 C35_12 1_555 1_555
C36_12 C28_12 1_555 1_555
H20_12 C36_12 1_555 1_555
C37_12 C28_12 1_555 1_555
H21_12 C37_12 1_555 1_555
C38_12 C29_12 1_555 1_555
H22_12 C38_12 1_555 1_555
C39_12 C35_12 1_555 1_555
H23_12 C39_12 1_555 1_555
C40_12 C39_12 1_555 1_555
C41_12 C32_12 1_555 1_555
H24_12 C41_12 1_555 1_555
C42_12 C40_12 1_555 1_555
H25_12 C42_12 1_555 1_555
C43_12 H26_12 1_555 1_555
H27_12 C43_12 1_555 1_555
C45_12 C26_12 1_555 1_555
O22_6 C31_12 1_555 1_555
C46_12 C40_12 1_555 1_555
O17_4 C46_12 1_555 1_555
O20_4 C46_12 1_555 1_555
C25_12 C26_12 1_555 1_555
C30_12 C38_12 1_555 1_555
C33_12 C36_12 1_555 1_555
C34_12 C37_12 1_555 1_555
C41_12 C42_12 1_555 1_555
C43_12 C44_12 1_555 1_555
C44_12 C45_12 1_555 1_555

#END
