
###############################################################################
#
# This file contains modified crystal structure data generated from the
# MOF subset of the Cambridge Structural Database (CSD) v543 
# hosted by the Cambridge Crystallographic Data Centre (CCDC).
#
# This work is licensed under the Creative Commons
# Attribution-NonCommercial-ShareAlike 4.0 International License.
# To view a copy of this license, visit
# http://creativecommons.org/licenses/by-nc-sa/4.0/
# or send a letter to
# Creative Commons, PO Box 1866, Mountain View, CA 94042, USA.
#
# CIF created using the CSD Python API on 29 September 2022
# The structure has been converted into the P1 space group
# The structure has a 3D framework
# The original CSD entry UFIRIM is in the monoclinic crystal system
# The framework has been calculated to contain at least 10.0% void space
# The void calculation uses a probe of radius 1.32A, grid spacing 0.4
# H atom positions have been added when not included in the experimental data
#
###############################################################################

data_UFIRIM
_chemical_formula_moiety         '(C552 H368 O108 Pb24)n'
_symmetry_cell_setting           triclinic
_symmetry_space_group_name_H-M   'P 1'
_symmetry_Int_Tables_number      1
_space_group_name_Hall           'P 1'
loop_
_symmetry_equiv_pos_site_id
_symmetry_equiv_pos_as_xyz
1 x,y,z
_cell_length_a                   26.4685(12)
_cell_length_b                   22.6646(11)
_cell_length_c                   40.1626(18)
_cell_angle_alpha                90
_cell_angle_beta                 100.1710(10)
_cell_angle_gamma                90
_cell_volume                     23714.8
loop_
_atom_site_label
_atom_site_type_symbol
_atom_site_fract_x
_atom_site_fract_y
_atom_site_fract_z
C1 C 0.4421(3) 0.4019(4) 0.0570(3)
C2 C 0.4308(4) 0.4024(4) 0.0179(2)
C3 C 0.3951(4) 0.3179(5) 0.1272(3)
C4 C 0.4154(4) 0.3615(4) 0.0731(3)
C5 C 0.3942(4) 0.4365(4) 0.0008(3)
H1 H 0.3750 0.4603 0.0128
C6 C 0.4244(4) 0.3601(4) 0.1100(3)
C7 C 0.5227(3) 0.4811(4) 0.1305(3)
C8 C 0.3499(4) 0.3323(5) 0.1376(3)
H2 H 0.3357 0.3694 0.1323
C9 C 0.4609(4) 0.3671(5) 0.0008(3)
H3 H 0.4869 0.3444 0.0132
C10 C 0.5572(4) 0.6719(4) 0.1843(3)
H4 H 0.5917 0.6665 0.1830
C11 C 0.5386(4) 0.5707(4) 0.1616(3)
C13 C 0.7647(4) 0.4550(5) 0.1955(3)
C14 C 0.5227(4) 0.6288(5) 0.1747(3)
C16 C 0.5065(4) 0.5329(4) 0.1419(3)
H6 H 0.4721 0.5429 0.1359
C17 C 0.5738(4) 0.4650(5) 0.1391(3)
H7 H 0.5852 0.4300 0.1309
C18 C 0.4132(4) 0.2599(5) 0.1327(3)
H8 H 0.4428 0.2482 0.1251
C20 C 0.3759(4) 0.3196(5) 0.0537(3)
H9 H 0.3739 0.3258 0.0298
H10 H 0.3430 0.3271 0.0597
H11 H 0.3859 0.2796 0.0592
C22 C 0.5907(4) 0.5546(5) 0.1711(3)
H12 H 0.6136 0.5793 0.1848
C23 C 0.4716(4) 0.6399(5) 0.1750(4)
H13 H 0.4472 0.6117 0.1664
C24 C 0.5399(4) 0.7265(5) 0.1968(3)
H14 H 0.5642 0.7552 0.2046
C25 C 0.8212(4) 0.4392(6) 0.2105(3)
C26 C 0.3865(4) 0.2193(5) 0.1500(3)
C28 C 0.7496(4) 0.5115(6) 0.1947(5)
H15 H 0.7734 0.5400 0.2038
C29 C 0.4042(6) 0.1558(6) 0.1548(4)
C30 C 0.7319(4) 0.4132(5) 0.1803(3)
H16 H 0.7434 0.3749 0.1779
C31 C 0.3243(4) 0.2926(6) 0.1561(3)
C32 C 0.6075(4) 0.5005(5) 0.1596(3)
C33 C 0.4554(4) 0.6936(5) 0.1883(4)
H17 H 0.4212 0.6982 0.1905
C36 C 0.3737(6) 0.1113(7) 0.1575(4)
H18 H 0.3390 0.1192 0.1563
C37 C 0.3434(5) 0.2383(5) 0.1628(3)
H19 H 0.3279 0.2129 0.1762
C38 C 0.1886(5) 0.3479(6) 0.1918(4)
C39 C 0.2789(4) 0.3134(6) 0.1694(3)
C40 C 0.6637(4) 0.4841(5) 0.1720(3)
C41 C 0.1410(5) 0.3628(7) 0.2054(4)
C43 C 0.2427(6) 0.3543(8) 0.1513(4)
H20 H 0.2489 0.3713 0.1313
C44 C 0.4570(5) 0.1463(7) 0.1575(5)
H21 H 0.4793 0.1774 0.1559
C46 C 0.2708(5) 0.2955(7) 0.1998(4)
H22 H 0.2949 0.2715 0.2130
C47 C 0.6794(5) 0.4284(5) 0.1681(4)
H23 H 0.6565 0.4002 0.1575
C48 C 0.4755(6) 0.0879(8) 0.1627(5)
H24 H 0.5105 0.0807 0.1652
C49 C 0.2248(5) 0.3129(8) 0.2128(5)
H25 H 0.2196 0.3012 0.2342
C52 C 0.1998(4) 0.3681(6) 0.1633(4)
H28 H 0.1766 0.3937 0.1506
C53 C 0.3895(6) 0.0535(7) 0.1619(5)
H29 H 0.3657 0.0238 0.1634
C55 C 0.7004(5) 0.5296(7) 0.1810(4)
H31 H 0.6918 0.5693 0.1779
C61 C 0.4409(7) 0.0398(6) 0.1643(4)
C63 C 0.5066(4) 0.4819(5) 0.0567(3)
H37 H 0.4966 0.4774 0.0327
H38 H 0.5427 0.4742 0.0630
H39 H 0.4995 0.5215 0.0630
C64 C 0.4767(3) 0.4387(4) 0.0746(2)
C65 C 0.4726(3) 0.7942(4) 0.2077(2)
C66 C 0.4856(4) 0.4380(4) 0.1091(3)
C67 C 0.4588(4) 0.3992(5) 0.1269(3)
C68 C 0.4891(3) 0.7382(4) 0.1977(2)
C69 C 0.4689(5) 0.3945(6) 0.1666(3)
H40 H 0.4466 0.3653 0.1735
H41 H 0.4623 0.4320 0.1761
H42 H 0.5040 0.3835 0.1745
O3 O 0.1117(3) 0.4009(4) 0.1914(3)
O4 O 0.1336(3) 0.3396(4) 0.2329(3)
O7 O 0.5703(7) 0.9134(11) 0.1056(4)
O8 O 0.4269(2) 0.8016(3) 0.21257(18)
O9 O 0.5040(3) 0.8399(3) 0.21037(18)
O12 O 0.8092(4) 0.2612(5) 0.1669(5)
O13 O 0.8467(3) 0.4719(4) 0.2295(3)
O14 O 0.8384(3) 0.3899(3) 0.2015(2)
Pb1 Pb 0.921314(14) 0.395874(18) 0.239222(11)
Pb2 Pb 0.85873(2) 0.34940(3) 0.143269(15)
Pb3 Pb 0.52705(3) 0.87917(4) 0.154553(17)
O15 O 0.8200(4) 0.4431(6) 0.1187(4)
O16 O 0.7742(5) 0.3613(7) 0.1037(3)
O17 O 0.6117(3) 0.9009(4) 0.1914(3)
O18 O 0.8664(3) 0.3396(4) 0.2671(3)
O19 O 0.9318(4) 0.4383(5) 0.1723(3)
O20 O 0.5111(4) 0.9431(8) 0.1636(3)
O21 O 0.9269(2) 0.3016(3) 0.21257(18)
O22 O 0.9960(3) 0.3399(3) 0.28963(18)
O23 O 0.4490(4) 0.8152(5) 0.1291(3)
O24 O 0.9490(4) 0.3152(5) 0.1291(3)
O25 O 0.8819(5) 0.2957(7) 0.0922(3)
Pb4 Pb 0.078686(14) 0.395874(18) 0.260778(11)
Pb6 Pb 0.421314(14) 0.895874(18) 0.239222(11)
Pb7 Pb 0.578686(14) 0.895874(18) 0.260778(11)
Pb12 Pb 0.02705(3) 0.37917(4) 0.154553(17)
H43 H 0.774451 0.274648 0.169611
H44 H 0.806025 0.22765 0.150763
H45 H 0.589675 0.880042 0.0979058
H46 H 0.543714 0.927106 0.0865667
C12 C 0.4133(4) 0.4028(5) 0.9493(3)
H5 H 0.4070 0.4039 0.9258
C15 C 0.4828(4) 0.3269(6) 0.9474(3)
C19 C 0.4527(4) 0.3652(5) 0.9656(3)
C21 C 0.3837(3) 0.4378(5) 0.9663(3)
C27 C 0.3435(4) 0.4774(5) 0.9475(3)
C34 C 0.2610(5) 0.5460(7) 0.9144(3)
C35 C 0.2202(7) 0.5821(10) 0.8965(4)
C42 C 0.5406(5) 0.2532(7) 0.9129(3)
C45 C 0.5735(7) 0.2096(8) 0.8973(3)
C50 C 0.4964(6) 0.2731(9) 0.8992(3)
H26 H 0.4831 0.2608 0.8773
C51 C 0.4677(6) 0.3107(8) 0.9141(3)
H27 H 0.4374 0.3258 0.9018
C54 C 0.2982(5) 0.5697(8) 0.9400(4)
H30 H 0.2965 0.6091 0.9464
C56 C 0.5647(8) 0.2757(9) 0.9444(5)
H32 H 0.5978 0.2653 0.9545
C58 C 0.3405(5) 0.5309(7) 0.9569(4)
H33 H 0.3648 0.5457 0.9745
C59 C 0.3084(6) 0.4560(8) 0.9204(5)
H34 H 0.3124 0.4178 0.9128
C60 C 0.2678(7) 0.4893(8) 0.9044(4)
H35 H 0.2448 0.4732 0.8865
C62 C 0.5332(7) 0.3168(9) 0.9598(5)
H36 H 0.5484 0.3372 0.9791
O1 O 0.1800(4) 0.5569(6) 0.8813(4)
O2 O 0.2258(5) 0.6387(7) 0.8963(3)
O10 O 0.5510(4) 0.1848(5) 0.8709(3)
O11 O 0.6181(5) 0.2043(7) 0.9078(3)
Pb9 Pb 0.14127(2) 0.65060(3) 0.856731(15)
Pb10 Pb 0.64127(2) 0.15060(3) 0.856731(15)
Pb13 Pb 0.47295(3) 0.12083(4) 0.845447(17)
C57 C 0.4690(7) 0.9786(8) 0.1658(5)
O5 O 0.4318(4) 0.9383(5) 0.1723(3)
Pb8 Pb 0.35873(2) 0.84940(3) 0.143269(15)
C1_2 C 0.5579(3) 0.4019(4) 0.4430(3)
C2_2 C 0.5692(4) 0.4024(4) 0.4821(2)
C3_2 C 0.6049(4) 0.3179(5) 0.3728(3)
C4_2 C 0.5846(4) 0.3615(4) 0.4269(3)
C5_2 C 0.6058(4) 0.4365(4) 0.4992(3)
H1_2 H 0.6250 0.4603 0.4872
C6_2 C 0.5756(4) 0.3601(4) 0.3900(3)
C7_2 C 0.4773(3) 0.4811(4) 0.3695(3)
C8_2 C 0.6501(4) 0.3323(5) 0.3624(3)
H2_2 H 0.6643 0.3694 0.3677
C9_2 C 0.5391(4) 0.3671(5) 0.4992(3)
H3_2 H 0.5131 0.3444 0.4868
C10_2 C 0.4428(4) 0.6719(4) 0.3157(3)
H4_2 H 0.4083 0.6665 0.3170
C11_2 C 0.4614(4) 0.5707(4) 0.3384(3)
C12_2 C 0.5867(4) 0.4028(5) 0.5507(3)
H5_2 H 0.5930 0.4039 0.5742
C13_2 C 0.2353(4) 0.4550(5) 0.3045(3)
C14_2 C 0.4773(4) 0.6288(5) 0.3253(3)
C15_2 C 0.5172(4) 0.3269(6) 0.5526(3)
C16_2 C 0.4935(4) 0.5329(4) 0.3581(3)
H6_2 H 0.5279 0.5429 0.3641
C17_2 C 0.4262(4) 0.4650(5) 0.3609(3)
H7_2 H 0.4148 0.4300 0.3691
C18_2 C 0.5868(4) 0.2599(5) 0.3673(3)
H8_2 H 0.5572 0.2482 0.3749
C19_2 C 0.5473(4) 0.3652(5) 0.5344(3)
C20_2 C 0.6241(4) 0.3196(5) 0.4463(3)
H9_2 H 0.6261 0.3258 0.4702
H10_2 H 0.6570 0.3271 0.4403
H11_2 H 0.6141 0.2796 0.4408
C21_2 C 0.6163(3) 0.4378(5) 0.5337(3)
C22_2 C 0.4093(4) 0.5546(5) 0.3289(3)
H12_2 H 0.3864 0.5793 0.3152
C23_2 C 0.5284(4) 0.6399(5) 0.3250(4)
H13_2 H 0.5528 0.6117 0.3336
C24_2 C 0.4601(4) 0.7265(5) 0.3032(3)
H14_2 H 0.4358 0.7552 0.2954
C25_2 C 0.1788(4) 0.4392(6) 0.2895(3)
C26_2 C 0.6135(4) 0.2193(5) 0.3500(3)
C27_2 C 0.6565(4) 0.4774(5) 0.5525(3)
C28_2 C 0.2504(4) 0.5115(6) 0.3053(5)
H15_2 H 0.2266 0.5400 0.2962
C29_2 C 0.5958(6) 0.1558(6) 0.3452(4)
C30_2 C 0.2681(4) 0.4132(5) 0.3197(3)
H16_2 H 0.2566 0.3749 0.3221
C31_2 C 0.6757(4) 0.2926(6) 0.3439(3)
C32_2 C 0.3925(4) 0.5005(5) 0.3404(3)
C33_2 C 0.5446(4) 0.6936(5) 0.3117(4)
H17_2 H 0.5788 0.6982 0.3095
C34_2 C 0.7390(5) 0.5460(7) 0.5856(3)
C35_2 C 0.7798(7) 0.5821(10) 0.6035(4)
C36_2 C 0.6263(6) 0.1113(7) 0.3425(4)
H18_2 H 0.6610 0.1192 0.3437
C37_2 C 0.6566(5) 0.2383(5) 0.3372(3)
H19_2 H 0.6721 0.2129 0.3238
C38_2 C 0.8114(5) 0.3479(6) 0.3082(4)
C39_2 C 0.7211(4) 0.3134(6) 0.3306(3)
C40_2 C 0.3363(4) 0.4841(5) 0.3280(3)
C41_2 C 0.8590(5) 0.3628(7) 0.2946(4)
C42_2 C 0.4594(5) 0.2532(7) 0.5871(3)
C43_2 C 0.7573(6) 0.3543(8) 0.3487(4)
H20_2 H 0.7511 0.3713 0.3687
C44_2 C 0.5430(5) 0.1463(7) 0.3425(5)
H21_2 H 0.5207 0.1774 0.3441
C45_2 C 0.4265(7) 0.2096(8) 0.6027(3)
C46_2 C 0.7292(5) 0.2955(7) 0.3002(4)
H22_2 H 0.7051 0.2715 0.2870
C47_2 C 0.3206(5) 0.4284(5) 0.3319(4)
H23_2 H 0.3435 0.4002 0.3425
C48_2 C 0.5245(6) 0.0879(8) 0.3373(5)
H24_2 H 0.4895 0.0807 0.3348
C49_2 C 0.7752(5) 0.3129(8) 0.2872(5)
H25_2 H 0.7804 0.3012 0.2658
C50_2 C 0.5036(6) 0.2731(9) 0.6008(3)
H26_2 H 0.5169 0.2608 0.6227
C51_2 C 0.5323(6) 0.3107(8) 0.5859(3)
H27_2 H 0.5626 0.3258 0.5982
C52_2 C 0.8002(4) 0.3681(6) 0.3367(4)
H28_2 H 0.8234 0.3937 0.3494
C53_2 C 0.6105(6) 0.0535(7) 0.3381(5)
H29_2 H 0.6343 0.0238 0.3366
C54_2 C 0.7018(5) 0.5697(8) 0.5600(4)
H30_2 H 0.7035 0.6091 0.5536
C55_2 C 0.2996(5) 0.5296(7) 0.3190(4)
H31_2 H 0.3082 0.5693 0.3221
C56_2 C 0.4353(8) 0.2757(9) 0.5556(5)
H32_2 H 0.4022 0.2653 0.5455
C58_2 C 0.6595(5) 0.5309(7) 0.5431(4)
H33_2 H 0.6352 0.5457 0.5255
C59_2 C 0.6916(6) 0.4560(8) 0.5796(5)
H34_2 H 0.6876 0.4178 0.5872
C60_2 C 0.7322(7) 0.4893(8) 0.5956(4)
H35_2 H 0.7552 0.4732 0.6135
C61_2 C 0.5591(7) 0.0398(6) 0.3357(4)
C62_2 C 0.4668(7) 0.3168(9) 0.5402(5)
H36_2 H 0.4516 0.3372 0.5209
C63_2 C 0.4934(4) 0.4819(5) 0.4433(3)
H37_2 H 0.5034 0.4774 0.4673
H38_2 H 0.4573 0.4742 0.4370
H39_2 H 0.5005 0.5215 0.4370
C64_2 C 0.5233(3) 0.4387(4) 0.4254(2)
C65_2 C 0.5274(3) 0.7942(4) 0.2923(2)
C66_2 C 0.5144(4) 0.4380(4) 0.3909(3)
C67_2 C 0.5412(4) 0.3992(5) 0.3731(3)
C68_2 C 0.5109(3) 0.7382(4) 0.3023(2)
C69_2 C 0.5311(5) 0.3945(6) 0.3334(3)
H40_2 H 0.5534 0.3653 0.3265
H41_2 H 0.5377 0.4320 0.3239
H42_2 H 0.4960 0.3835 0.3255
O1_2 O 0.8200(4) 0.5569(6) 0.6187(4)
O2_2 O 0.7742(5) 0.6387(7) 0.6037(3)
O3_2 O 0.8883(3) 0.4009(4) 0.3086(3)
O7_2 O 0.4297(7) 0.9134(11) 0.3944(4)
O8_2 O 0.5731(2) 0.8016(3) 0.28743(18)
O9_2 O 0.4960(3) 0.8399(3) 0.28963(18)
O10_2 O 0.4490(4) 0.1848(5) 0.6291(3)
O11_2 O 0.3819(5) 0.2043(7) 0.5922(3)
O12_2 O 0.1908(4) 0.2612(5) 0.3331(5)
O13_2 O 0.1533(3) 0.4719(4) 0.2705(3)
O14_2 O 0.1616(3) 0.3899(3) 0.2985(2)
Pb2_2 Pb 0.14127(2) 0.34940(3) 0.356731(15)
Pb3_2 Pb 0.47295(3) 0.87917(4) 0.345447(17)
O15_2 O 0.1800(4) 0.4431(6) 0.3813(4)
O16_2 O 0.2258(5) 0.3613(7) 0.3963(3)
O17_2 O 0.3883(3) 0.9009(4) 0.3086(3)
O19_2 O 0.0682(4) 0.4383(5) 0.3277(3)
O20_2 O 0.4889(4) 0.9431(8) 0.3364(3)
O21_2 O 0.0731(2) 0.3016(3) 0.28743(18)
O22_2 O 0.0040(3) 0.3399(3) 0.21037(18)
O23_2 O 0.5510(4) 0.8152(5) 0.3709(3)
O24_2 O 0.0510(4) 0.3152(5) 0.3709(3)
O25_2 O 0.1181(5) 0.2957(7) 0.4078(3)
Pb9_2 Pb 0.85873(2) 0.65060(3) 0.643269(15)
Pb10_2 Pb 0.35873(2) 0.15060(3) 0.643269(15)
Pb12_2 Pb 0.97295(3) 0.37917(4) 0.345447(17)
Pb13_2 Pb 0.52705(3) 0.12083(4) 0.654553(17)
H43_2 H 0.225549 0.274648 0.330389
H44_2 H 0.193975 0.22765 0.349237
H45_2 H 0.410325 0.880042 0.402094
H46_2 H 0.456286 0.927106 0.413433
C57_2 C 0.5310(7) 0.9786(8) 0.3342(5)
O5_2 O 0.5682(4) 0.9383(5) 0.3277(3)
Pb8_2 Pb 0.64127(2) 0.84940(3) 0.356731(15)
C10_3 C 0.0572(4) 0.1719(4) 0.1843(3)
H4_3 H 0.0917 0.1665 0.1830
C11_3 C 0.0386(4) 0.0707(4) 0.1616(3)
C14_3 C 0.0227(4) 0.1288(5) 0.1747(3)
C16_3 C 0.0065(4) 0.0329(4) 0.1419(3)
C22_3 C 0.0907(4) 0.0546(5) 0.1711(3)
H12_3 H 0.1136 0.0793 0.1848
C24_3 C 0.0399(4) 0.2265(5) 0.1968(3)
H14_3 H 0.0642 0.2552 0.2046
C28_3 C 0.2496(4) 0.0115(6) 0.1947(5)
H15_3 H 0.2734 0.0400 0.2038
C32_3 C 0.1075(4) 0.0005(5) 0.1596(3)
C55_3 C 0.2004(5) 0.0296(7) 0.1810(4)
H31_3 H 0.1918 0.0693 0.1779
O7_3 O 0.0703(7) 0.4134(11) 0.1056(4)
O20_3 O 0.0111(4) 0.4431(8) 0.1636(3)
H45_3 H 0.0896751 0.380042 0.0979058
H46_3 H 0.0437142 0.427106 0.0865667
C7_3 C 0.0227(3) 0.9811(4) 0.1305(3)
C13_3 C 0.2647(4) 0.9550(5) 0.1955(3)
C17_3 C 0.0738(4) 0.9650(5) 0.1391(3)
H7_3 H 0.0852 0.9300 0.1309
C25_3 C 0.3212(4) 0.9392(6) 0.2105(3)
C30_3 C 0.2319(4) 0.9132(5) 0.1803(3)
H16_3 H 0.2434 0.8749 0.1779
C40_3 C 0.1637(4) 0.9841(5) 0.1720(3)
C47_3 C 0.1794(5) 0.9284(5) 0.1681(4)
H23_3 H 0.1565 0.9002 0.1575
H24_3 H 0.0105 0.5807 0.1652
C63_3 C 0.0066(4) 0.9819(5) 0.0567(3)
H38_3 H 0.0427 0.9742 0.0630
H42_3 H 0.0040 0.8835 0.1745
O12_3 O 0.3092(4) 0.7612(5) 0.1669(5)
O13_3 O 0.3467(3) 0.9719(4) 0.2295(3)
O14_3 O 0.3384(3) 0.8899(3) 0.2015(2)
O15_3 O 0.3200(4) 0.9431(6) 0.1187(4)
O16_3 O 0.2742(5) 0.8613(7) 0.1037(3)
O18_2 O 0.3664(3) 0.8396(4) 0.2671(3)
O25_3 O 0.3819(5) 0.7957(7) 0.0922(3)
H43_3 H 0.274451 0.774648 0.169611
H44_3 H 0.306025 0.72765 0.150763
C42_3 C 0.0406(5) 0.7532(7) 0.9129(3)
C45_3 C 0.0735(7) 0.7096(8) 0.8973(3)
C56_3 C 0.0647(8) 0.7757(9) 0.9444(5)
H32_3 H 0.0978 0.7653 0.9545
C62_3 C 0.0332(7) 0.8168(9) 0.9598(5)
H36_3 H 0.0484 0.8372 0.9791
O10_3 O 0.0510(4) 0.6848(5) 0.8709(3)
O11_3 O 0.1181(5) 0.7043(7) 0.9078(3)
H6_3 H 0.9721 0.0429 0.1359
C23_3 C 0.9716(4) 0.1399(5) 0.1750(4)
H13_3 H 0.9472 0.1117 0.1664
C33_3 C 0.9554(4) 0.1936(5) 0.1883(4)
H17_3 H 0.9212 0.1982 0.1905
H39_3 H 0.9995 0.0215 0.0630
C65_3 C 0.9726(3) 0.2942(4) 0.2077(2)
C68_3 C 0.9891(3) 0.2382(4) 0.1977(2)
C34_3 C 0.7610(5) 0.0460(7) 0.9144(3)
C35_3 C 0.7202(7) 0.0821(10) 0.8965(4)
C54_3 C 0.7982(5) 0.0697(8) 0.9400(4)
H30_3 H 0.7965 0.1091 0.9464
C58_3 C 0.8405(5) 0.0309(7) 0.9569(4)
H33_3 H 0.8648 0.0457 0.9745
O1_3 O 0.6800(4) 0.0569(6) 0.8813(4)
O2_3 O 0.7258(5) 0.1387(7) 0.8963(3)
C1_3 C 0.9421(3) 0.9019(4) 0.0570(3)
C2_3 C 0.9308(4) 0.9024(4) 0.0179(2)
C3_3 C 0.8951(4) 0.8179(5) 0.1272(3)
C4_3 C 0.9154(4) 0.8615(4) 0.0731(3)
C5_3 C 0.8942(4) 0.9365(4) 0.0008(3)
H1_3 H 0.8750 0.9603 0.0128
C6_3 C 0.9244(4) 0.8601(4) 0.1100(3)
C8_3 C 0.8499(4) 0.8323(5) 0.1376(3)
H2_3 H 0.8357 0.8694 0.1323
C9_3 C 0.9609(4) 0.8671(5) 0.0008(3)
H3_3 H 0.9869 0.8444 0.0132
C18_3 C 0.9132(4) 0.7599(5) 0.1327(3)
H8_3 H 0.9428 0.7482 0.1251
C20_3 C 0.8759(4) 0.8196(5) 0.0537(3)
H9_3 H 0.8739 0.8258 0.0298
H10_3 H 0.8430 0.8271 0.0597
H11_3 H 0.8859 0.7796 0.0592
C26_3 C 0.8865(4) 0.7193(5) 0.1500(3)
C29_3 C 0.9042(6) 0.6558(6) 0.1548(4)
C31_3 C 0.8243(4) 0.7926(6) 0.1561(3)
C36_3 C 0.8737(6) 0.6113(7) 0.1575(4)
H18_3 H 0.8390 0.6192 0.1563
C37_3 C 0.8434(5) 0.7383(5) 0.1628(3)
H19_3 H 0.8279 0.7129 0.1762
C38_3 C 0.6886(5) 0.8479(6) 0.1918(4)
C39_3 C 0.7789(4) 0.8134(6) 0.1694(3)
C41_3 C 0.6410(5) 0.8628(7) 0.2054(4)
C43_3 C 0.7427(6) 0.8543(8) 0.1513(4)
H20_3 H 0.7489 0.8713 0.1313
C44_3 C 0.9570(5) 0.6463(7) 0.1575(5)
H21_3 H 0.9793 0.6774 0.1559
C46_3 C 0.7708(5) 0.7955(7) 0.1998(4)
H22_3 H 0.7949 0.7715 0.2130
C48_3 C 0.9755(6) 0.5879(8) 0.1627(5)
C49_3 C 0.7248(5) 0.8129(8) 0.2128(5)
H25_3 H 0.7196 0.8012 0.2342
C52_3 C 0.6998(4) 0.8681(6) 0.1633(4)
H28_3 H 0.6766 0.8937 0.1506
C53_3 C 0.8895(6) 0.5535(7) 0.1619(5)
H29_3 H 0.8657 0.5238 0.1634
C57_3 C 0.9690(7) 0.4786(8) 0.1658(5)
C61_3 C 0.9409(7) 0.5398(6) 0.1643(4)
H37_3 H 0.9966 0.9774 0.0327
C64_3 C 0.9767(3) 0.9387(4) 0.0746(2)
C66_3 C 0.9856(4) 0.9380(4) 0.1091(3)
C67_3 C 0.9588(4) 0.8992(5) 0.1269(3)
C69_3 C 0.9689(5) 0.8945(6) 0.1666(3)
H40_3 H 0.9466 0.8653 0.1735
H41_3 H 0.9623 0.9320 0.1761
O4_2 O 0.6336(3) 0.8396(4) 0.2329(3)
C12_3 C 0.9133(4) 0.9028(5) 0.9493(3)
H5_3 H 0.9070 0.9039 0.9258
C15_3 C 0.9828(4) 0.8269(6) 0.9474(3)
C19_3 C 0.9527(4) 0.8652(5) 0.9656(3)
C21_3 C 0.8837(3) 0.9378(5) 0.9663(3)
C27_3 C 0.8435(4) 0.9774(5) 0.9475(3)
C50_3 C 0.9964(6) 0.7731(9) 0.8992(3)
H26_3 H 0.9831 0.7608 0.8773
C51_3 C 0.9677(6) 0.8107(8) 0.9141(3)
H27_3 H 0.9374 0.8258 0.9018
C59_3 C 0.8084(6) 0.9560(8) 0.9204(5)
H34_3 H 0.8124 0.9178 0.9128
C60_3 C 0.7678(7) 0.9893(8) 0.9044(4)
H35_3 H 0.7448 0.9732 0.8865
Pb13_3 Pb 0.97295(3) 0.62083(4) 0.845447(17)
H6_4 H 0.0279 0.0429 0.3641
C23_4 C 0.0284(4) 0.1399(5) 0.3250(4)
H13_4 H 0.0528 0.1117 0.3336
C33_4 C 0.0446(4) 0.1936(5) 0.3117(4)
H17_4 H 0.0788 0.1982 0.3095
C34_4 C 0.2390(5) 0.0460(7) 0.5856(3)
C35_4 C 0.2798(7) 0.0821(10) 0.6035(4)
C54_4 C 0.2018(5) 0.0697(8) 0.5600(4)
H30_4 H 0.2035 0.1091 0.5536
C58_4 C 0.1595(5) 0.0309(7) 0.5431(4)
H33_4 H 0.1352 0.0457 0.5255
H39_4 H 0.0005 0.0215 0.4370
C65_4 C 0.0274(3) 0.2942(4) 0.2923(2)
C68_4 C 0.0109(3) 0.2382(4) 0.3023(2)
O1_4 O 0.3200(4) 0.0569(6) 0.6187(4)
O2_4 O 0.2742(5) 0.1387(7) 0.6037(3)
C1_4 C 0.0579(3) 0.9019(4) 0.4430(3)
C2_4 C 0.0692(4) 0.9024(4) 0.4821(2)
C3_4 C 0.1049(4) 0.8179(5) 0.3728(3)
C4_4 C 0.0846(4) 0.8615(4) 0.4269(3)
C5_4 C 0.1058(4) 0.9365(4) 0.4992(3)
H1_4 H 0.1250 0.9603 0.4872
C6_4 C 0.0756(4) 0.8601(4) 0.3900(3)
C8_4 C 0.1501(4) 0.8323(5) 0.3624(3)
H2_4 H 0.1643 0.8694 0.3677
C9_4 C 0.0391(4) 0.8671(5) 0.4992(3)
H3_4 H 0.0131 0.8444 0.4868
C12_4 C 0.0867(4) 0.9028(5) 0.5507(3)
H5_4 H 0.0930 0.9039 0.5742
C15_4 C 0.0172(4) 0.8269(6) 0.5526(3)
C18_4 C 0.0868(4) 0.7599(5) 0.3673(3)
H8_4 H 0.0572 0.7482 0.3749
C19_4 C 0.0473(4) 0.8652(5) 0.5344(3)
C20_4 C 0.1241(4) 0.8196(5) 0.4463(3)
H9_4 H 0.1261 0.8258 0.4702
H10_4 H 0.1570 0.8271 0.4403
H11_4 H 0.1141 0.7796 0.4408
C21_4 C 0.1163(3) 0.9378(5) 0.5337(3)
C26_4 C 0.1135(4) 0.7193(5) 0.3500(3)
C27_4 C 0.1565(4) 0.9774(5) 0.5525(3)
C29_4 C 0.0958(6) 0.6558(6) 0.3452(4)
C31_4 C 0.1757(4) 0.7926(6) 0.3439(3)
C36_4 C 0.1263(6) 0.6113(7) 0.3425(4)
H18_4 H 0.1610 0.6192 0.3437
C37_4 C 0.1566(5) 0.7383(5) 0.3372(3)
H19_4 H 0.1721 0.7129 0.3238
C38_4 C 0.3114(5) 0.8479(6) 0.3082(4)
C39_4 C 0.2211(4) 0.8134(6) 0.3306(3)
C41_4 C 0.3590(5) 0.8628(7) 0.2946(4)
C43_4 C 0.2573(6) 0.8543(8) 0.3487(4)
H20_4 H 0.2511 0.8713 0.3687
C44_4 C 0.0430(5) 0.6463(7) 0.3425(5)
H21_4 H 0.0207 0.6774 0.3441
C46_4 C 0.2292(5) 0.7955(7) 0.3002(4)
H22_4 H 0.2051 0.7715 0.2870
C48_4 C 0.0245(6) 0.5879(8) 0.3373(5)
C49_4 C 0.2752(5) 0.8129(8) 0.2872(5)
H25_4 H 0.2804 0.8012 0.2658
C50_4 C 0.0036(6) 0.7731(9) 0.6008(3)
H26_4 H 0.0169 0.7608 0.6227
C51_4 C 0.0323(6) 0.8107(8) 0.5859(3)
H27_4 H 0.0626 0.8258 0.5982
C52_4 C 0.3002(4) 0.8681(6) 0.3367(4)
H28_4 H 0.3234 0.8937 0.3494
C53_4 C 0.1105(6) 0.5535(7) 0.3381(5)
H29_4 H 0.1343 0.5238 0.3366
C57_4 C 0.0310(7) 0.4786(8) 0.3342(5)
C59_4 C 0.1916(6) 0.9560(8) 0.5796(5)
H34_4 H 0.1876 0.9178 0.5872
C60_4 C 0.2322(7) 0.9893(8) 0.5956(4)
H35_4 H 0.2552 0.9732 0.6135
C61_4 C 0.0591(7) 0.5398(6) 0.3357(4)
H37_4 H 0.0034 0.9774 0.4673
C64_4 C 0.0233(3) 0.9387(4) 0.4254(2)
C66_4 C 0.0144(4) 0.9380(4) 0.3909(3)
C67_4 C 0.0412(4) 0.8992(5) 0.3731(3)
C69_4 C 0.0311(5) 0.8945(6) 0.3334(3)
H40_4 H 0.0534 0.8653 0.3265
H41_4 H 0.0377 0.9320 0.3239
Pb13_4 Pb 0.02705(3) 0.62083(4) 0.654553(17)
C10_4 C 0.9428(4) 0.1719(4) 0.3157(3)
H4_4 H 0.9083 0.1665 0.3170
C11_4 C 0.9614(4) 0.0707(4) 0.3384(3)
C14_4 C 0.9773(4) 0.1288(5) 0.3253(3)
C16_4 C 0.9935(4) 0.0329(4) 0.3581(3)
C22_4 C 0.9093(4) 0.0546(5) 0.3289(3)
H12_4 H 0.8864 0.0793 0.3152
C24_4 C 0.9601(4) 0.2265(5) 0.3032(3)
H14_4 H 0.9358 0.2552 0.2954
C28_4 C 0.7504(4) 0.0115(6) 0.3053(5)
H15_4 H 0.7266 0.0400 0.2962
C32_4 C 0.8925(4) 0.0005(5) 0.3404(3)
C55_4 C 0.7996(5) 0.0296(7) 0.3190(4)
H31_4 H 0.8082 0.0693 0.3221
O7_4 O 0.9297(7) 0.4134(11) 0.3944(4)
O20_4 O 0.9889(4) 0.4431(8) 0.3364(3)
H45_4 H 0.910325 0.380042 0.402094
H46_4 H 0.956286 0.427106 0.413433
C7_4 C 0.9773(3) 0.9811(4) 0.3695(3)
C13_4 C 0.7353(4) 0.9550(5) 0.3045(3)
C17_4 C 0.9262(4) 0.9650(5) 0.3609(3)
H7_4 H 0.9148 0.9300 0.3691
C25_4 C 0.6788(4) 0.9392(6) 0.2895(3)
C30_4 C 0.7681(4) 0.9132(5) 0.3197(3)
H16_4 H 0.7566 0.8749 0.3221
C40_4 C 0.8363(4) 0.9841(5) 0.3280(3)
C42_4 C 0.9594(5) 0.7532(7) 0.5871(3)
C45_4 C 0.9265(7) 0.7096(8) 0.6027(3)
C47_4 C 0.8206(5) 0.9284(5) 0.3319(4)
H23_4 H 0.8435 0.9002 0.3425
H24_4 H 0.9895 0.5807 0.3348
C56_4 C 0.9353(8) 0.7757(9) 0.5556(5)
H32_4 H 0.9022 0.7653 0.5455
C62_4 C 0.9668(7) 0.8168(9) 0.5402(5)
H36_4 H 0.9516 0.8372 0.5209
C63_4 C 0.9934(4) 0.9819(5) 0.4433(3)
H38_4 H 0.9573 0.9742 0.4370
H42_4 H 0.9960 0.8835 0.3255
O10_4 O 0.9490(4) 0.6848(5) 0.6291(3)
O11_4 O 0.8819(5) 0.7043(7) 0.5922(3)
O12_4 O 0.6908(4) 0.7612(5) 0.3331(5)
O13_4 O 0.6533(3) 0.9719(4) 0.2705(3)
O14_4 O 0.6616(3) 0.8899(3) 0.2985(2)
O15_4 O 0.6800(4) 0.9431(6) 0.3813(4)
O16_4 O 0.7258(5) 0.8613(7) 0.3963(3)
O25_4 O 0.6181(5) 0.7957(7) 0.4078(3)
H43_4 H 0.725549 0.774648 0.330389
H44_4 H 0.693975 0.72765 0.349237
C57_5 C 0.5310(7) 0.0214(8) 0.8342(5)
O5_3 O 0.5682(4) 0.0617(5) 0.8277(3)
O6 O 0.4889(4) 0.0569(8) 0.8364(3)
Pb5 Pb 0.578686(14) 0.104126(18) 0.760778(11)
C12_5 C 0.5867(4) 0.5972(5) 0.0507(3)
H5_5 H 0.5930 0.5961 0.0742
C15_5 C 0.5172(4) 0.6731(6) 0.0526(3)
C19_5 C 0.5473(4) 0.6348(5) 0.0344(3)
C21_5 C 0.6163(3) 0.5622(5) 0.0337(3)
C27_5 C 0.6565(4) 0.5226(5) 0.0525(3)
C34_5 C 0.7390(5) 0.4540(7) 0.0856(3)
C35_5 C 0.7798(7) 0.4179(10) 0.1035(4)
C42_5 C 0.4594(5) 0.7468(7) 0.0871(3)
C45_5 C 0.4265(7) 0.7904(8) 0.1027(3)
C50_5 C 0.5036(6) 0.7269(9) 0.1008(3)
H26_5 H 0.5169 0.7392 0.1227
C51_5 C 0.5323(6) 0.6893(8) 0.0859(3)
H27_5 H 0.5626 0.6742 0.0982
C54_5 C 0.7018(5) 0.4303(8) 0.0600(4)
H30_5 H 0.7035 0.3909 0.0536
C56_5 C 0.4353(8) 0.7243(9) 0.0556(5)
H32_5 H 0.4022 0.7347 0.0455
C58_5 C 0.6595(5) 0.4691(7) 0.0431(4)
H33_5 H 0.6352 0.4543 0.0255
C59_5 C 0.6916(6) 0.5440(8) 0.0796(5)
H34_5 H 0.6876 0.5822 0.0872
C60_5 C 0.7322(7) 0.5107(8) 0.0956(4)
H35_5 H 0.7552 0.5268 0.1135
C62_5 C 0.4668(7) 0.6832(9) 0.0402(5)
H36_5 H 0.4516 0.6628 0.0209
C1_5 C 0.5579(3) 0.5981(4) 0.9430(3)
C2_5 C 0.5692(4) 0.5976(4) 0.9821(2)
C3_5 C 0.6049(4) 0.6821(5) 0.8728(3)
C4_5 C 0.5846(4) 0.6385(4) 0.9269(3)
C5_5 C 0.6058(4) 0.5635(4) 0.9992(3)
H1_5 H 0.6250 0.5397 0.9872
C6_5 C 0.5756(4) 0.6399(4) 0.8900(3)
C7_5 C 0.4773(3) 0.5189(4) 0.8695(3)
C8_5 C 0.6501(4) 0.6677(5) 0.8624(3)
H2_5 H 0.6643 0.6306 0.8677
C9_5 C 0.5391(4) 0.6329(5) 0.9992(3)
H3_5 H 0.5131 0.6556 0.9868
C10_5 C 0.4428(4) 0.3281(4) 0.8157(3)
H4_5 H 0.4083 0.3335 0.8170
C11_5 C 0.4614(4) 0.4293(4) 0.8384(3)
C13_5 C 0.2353(4) 0.5450(5) 0.8045(3)
C14_5 C 0.4773(4) 0.3712(5) 0.8253(3)
C16_5 C 0.4935(4) 0.4671(4) 0.8581(3)
H6_5 H 0.5279 0.4571 0.8641
C17_5 C 0.4262(4) 0.5350(5) 0.8609(3)
H7_5 H 0.4148 0.5700 0.8691
C18_5 C 0.5868(4) 0.7401(5) 0.8673(3)
H8_5 H 0.5572 0.7518 0.8749
C20_5 C 0.6241(4) 0.6804(5) 0.9463(3)
H9_5 H 0.6261 0.6742 0.9702
H10_5 H 0.6570 0.6729 0.9403
H11_5 H 0.6141 0.7204 0.9408
C22_5 C 0.4093(4) 0.4454(5) 0.8289(3)
H12_5 H 0.3864 0.4207 0.8152
C23_5 C 0.5284(4) 0.3601(5) 0.8250(4)
H13_5 H 0.5528 0.3883 0.8336
C24_5 C 0.4601(4) 0.2735(5) 0.8032(3)
H14_5 H 0.4358 0.2448 0.7954
C25_5 C 0.1788(4) 0.5608(6) 0.7895(3)
C26_5 C 0.6135(4) 0.7807(5) 0.8500(3)
C28_5 C 0.2504(4) 0.4885(6) 0.8053(5)
H15_5 H 0.2266 0.4600 0.7962
C29_5 C 0.5958(6) 0.8442(6) 0.8452(4)
C30_5 C 0.2681(4) 0.5868(5) 0.8197(3)
H16_5 H 0.2566 0.6251 0.8221
C31_5 C 0.6757(4) 0.7074(6) 0.8439(3)
C32_5 C 0.3925(4) 0.4995(5) 0.8404(3)
C33_5 C 0.5446(4) 0.3064(5) 0.8117(4)
H17_5 H 0.5788 0.3018 0.8095
C36_5 C 0.6263(6) 0.8887(7) 0.8425(4)
H18_5 H 0.6610 0.8808 0.8437
C37_5 C 0.6566(5) 0.7617(5) 0.8372(3)
H19_5 H 0.6721 0.7871 0.8238
C38_5 C 0.8114(5) 0.6521(6) 0.8082(4)
C39_5 C 0.7211(4) 0.6866(6) 0.8306(3)
C40_5 C 0.3363(4) 0.5159(5) 0.8280(3)
C41_5 C 0.8590(5) 0.6372(7) 0.7946(4)
C43_5 C 0.7573(6) 0.6457(8) 0.8487(4)
H20_5 H 0.7511 0.6287 0.8687
C44_5 C 0.5430(5) 0.8537(7) 0.8425(5)
H21_5 H 0.5207 0.8226 0.8441
C46_5 C 0.7292(5) 0.7045(7) 0.8002(4)
H22_5 H 0.7051 0.7285 0.7870
C47_5 C 0.3206(5) 0.5716(5) 0.8319(4)
H23_5 H 0.3435 0.5998 0.8425
C48_5 C 0.5245(6) 0.9121(8) 0.8373(5)
H24_5 H 0.4895 0.9193 0.8348
C49_5 C 0.7752(5) 0.6871(8) 0.7872(5)
H25_5 H 0.7804 0.6988 0.7658
C52_5 C 0.8002(4) 0.6319(6) 0.8367(4)
H28_5 H 0.8234 0.6063 0.8494
C53_5 C 0.6105(6) 0.9465(7) 0.8381(5)
H29_5 H 0.6343 0.9762 0.8366
C55_5 C 0.2996(5) 0.4704(7) 0.8190(4)
H31_5 H 0.3082 0.4307 0.8221
C61_5 C 0.5591(7) 0.9602(6) 0.8357(4)
C63_5 C 0.4934(4) 0.5181(5) 0.9433(3)
H37_5 H 0.5034 0.5226 0.9673
H38_5 H 0.4573 0.5258 0.9370
H39_5 H 0.5005 0.4785 0.9370
C64_5 C 0.5233(3) 0.5613(4) 0.9254(2)
C65_5 C 0.5274(3) 0.2058(4) 0.7923(2)
C66_5 C 0.5144(4) 0.5620(4) 0.8909(3)
C67_5 C 0.5412(4) 0.6008(5) 0.8731(3)
C68_5 C 0.5109(3) 0.2618(4) 0.8023(2)
C69_5 C 0.5311(5) 0.6055(6) 0.8334(3)
H40_5 H 0.5534 0.6347 0.8265
H41_5 H 0.5377 0.5680 0.8239
H42_5 H 0.4960 0.6165 0.8255
O3_3 O 0.8883(3) 0.5991(4) 0.8086(3)
O4_3 O 0.8664(3) 0.6604(4) 0.7671(3)
O7_5 O 0.4297(7) 0.0866(11) 0.8944(4)
O8_3 O 0.5731(2) 0.1984(3) 0.78743(18)
O9_3 O 0.4960(3) 0.1601(3) 0.78963(18)
O12_5 O 0.1908(4) 0.7388(5) 0.8331(5)
O13_5 O 0.1533(3) 0.5281(4) 0.7705(3)
O14_5 O 0.1616(3) 0.6101(3) 0.7985(2)
Pb1_2 Pb 0.078686(14) 0.604126(18) 0.760778(11)
O17_3 O 0.3883(3) 0.0991(4) 0.8086(3)
O18_3 O 0.1336(3) 0.6604(4) 0.7329(3)
O19_3 O 0.0682(4) 0.5617(5) 0.8277(3)
O21_3 O 0.0731(2) 0.6984(3) 0.78743(18)
O22_3 O 0.0040(3) 0.6601(3) 0.71037(18)
Pb4_2 Pb 0.921314(14) 0.604126(18) 0.739222(11)
Pb7_2 Pb 0.421314(14) 0.104126(18) 0.739222(11)
H43_5 H 0.225549 0.725352 0.830389
H44_5 H 0.193975 0.77235 0.849237
H45_5 H 0.410325 0.119958 0.902094
H46_5 H 0.456286 0.0728938 0.913433
C57_6 C 0.4690(7) 0.0214(8) 0.6658(5)
O5_4 O 0.4318(4) 0.0617(5) 0.6723(3)
O6_2 O 0.5111(4) 0.0569(8) 0.6636(3)
C1_6 C 0.4421(3) 0.5981(4) 0.5570(3)
C2_6 C 0.4308(4) 0.5976(4) 0.5179(2)
C3_6 C 0.3951(4) 0.6821(5) 0.6272(3)
C4_6 C 0.4154(4) 0.6385(4) 0.5731(3)
C5_6 C 0.3942(4) 0.5635(4) 0.5008(3)
H1_6 H 0.3750 0.5397 0.5128
C6_6 C 0.4244(4) 0.6399(4) 0.6100(3)
C7_6 C 0.5227(3) 0.5189(4) 0.6305(3)
C8_6 C 0.3499(4) 0.6677(5) 0.6376(3)
H2_6 H 0.3357 0.6306 0.6323
C9_6 C 0.4609(4) 0.6329(5) 0.5008(3)
H3_6 H 0.4869 0.6556 0.5132
C10_6 C 0.5572(4) 0.3281(4) 0.6843(3)
H4_6 H 0.5917 0.3335 0.6830
C11_6 C 0.5386(4) 0.4293(4) 0.6616(3)
C12_6 C 0.4133(4) 0.5972(5) 0.4493(3)
H5_6 H 0.4070 0.5961 0.4258
C13_6 C 0.7647(4) 0.5450(5) 0.6955(3)
C14_6 C 0.5227(4) 0.3712(5) 0.6747(3)
C15_6 C 0.4828(4) 0.6731(6) 0.4474(3)
C16_6 C 0.5065(4) 0.4671(4) 0.6419(3)
H6_6 H 0.4721 0.4571 0.6359
C17_6 C 0.5738(4) 0.5350(5) 0.6391(3)
H7_6 H 0.5852 0.5700 0.6309
C18_6 C 0.4132(4) 0.7401(5) 0.6327(3)
H8_6 H 0.4428 0.7518 0.6251
C19_6 C 0.4527(4) 0.6348(5) 0.4656(3)
C20_6 C 0.3759(4) 0.6804(5) 0.5537(3)
H9_6 H 0.3739 0.6742 0.5298
H10_6 H 0.3430 0.6729 0.5597
H11_6 H 0.3859 0.7204 0.5592
C21_6 C 0.3837(3) 0.5622(5) 0.4663(3)
C22_6 C 0.5907(4) 0.4454(5) 0.6711(3)
H12_6 H 0.6136 0.4207 0.6848
C23_6 C 0.4716(4) 0.3601(5) 0.6750(4)
H13_6 H 0.4472 0.3883 0.6664
C24_6 C 0.5399(4) 0.2735(5) 0.6968(3)
H14_6 H 0.5642 0.2448 0.7046
C25_6 C 0.8212(4) 0.5608(6) 0.7105(3)
C26_6 C 0.3865(4) 0.7807(5) 0.6500(3)
C27_6 C 0.3435(4) 0.5226(5) 0.4475(3)
C28_6 C 0.7496(4) 0.4885(6) 0.6947(5)
H15_6 H 0.7734 0.4600 0.7038
C29_6 C 0.4042(6) 0.8442(6) 0.6548(4)
C30_6 C 0.7319(4) 0.5868(5) 0.6803(3)
H16_6 H 0.7434 0.6251 0.6779
C31_6 C 0.3243(4) 0.7074(6) 0.6561(3)
C32_6 C 0.6075(4) 0.4995(5) 0.6596(3)
C33_6 C 0.4554(4) 0.3064(5) 0.6883(4)
H17_6 H 0.4212 0.3018 0.6905
C34_6 C 0.2610(5) 0.4540(7) 0.4144(3)
C35_6 C 0.2202(7) 0.4179(10) 0.3965(4)
C36_6 C 0.3737(6) 0.8887(7) 0.6575(4)
H18_6 H 0.3390 0.8808 0.6563
C37_6 C 0.3434(5) 0.7617(5) 0.6628(3)
H19_6 H 0.3279 0.7871 0.6762
C38_6 C 0.1886(5) 0.6521(6) 0.6918(4)
C39_6 C 0.2789(4) 0.6866(6) 0.6694(3)
C40_6 C 0.6637(4) 0.5159(5) 0.6720(3)
C41_6 C 0.1410(5) 0.6372(7) 0.7054(4)
C42_6 C 0.5406(5) 0.7468(7) 0.4129(3)
C43_6 C 0.2427(6) 0.6457(8) 0.6513(4)
H20_6 H 0.2489 0.6287 0.6313
C44_6 C 0.4570(5) 0.8537(7) 0.6575(5)
H21_6 H 0.4793 0.8226 0.6559
C45_6 C 0.5735(7) 0.7904(8) 0.3973(3)
C46_6 C 0.2708(5) 0.7045(7) 0.6998(4)
H22_6 H 0.2949 0.7285 0.7130
C47_6 C 0.6794(5) 0.5716(5) 0.6681(4)
H23_6 H 0.6565 0.5998 0.6575
C48_6 C 0.4755(6) 0.9121(8) 0.6627(5)
H24_6 H 0.5105 0.9193 0.6652
C49_6 C 0.2248(5) 0.6871(8) 0.7128(5)
H25_6 H 0.2196 0.6988 0.7342
C50_6 C 0.4964(6) 0.7269(9) 0.3992(3)
H26_6 H 0.4831 0.7392 0.3773
C51_6 C 0.4677(6) 0.6893(8) 0.4141(3)
H27_6 H 0.4374 0.6742 0.4018
C52_6 C 0.1998(4) 0.6319(6) 0.6633(4)
H28_6 H 0.1766 0.6063 0.6506
C53_6 C 0.3895(6) 0.9465(7) 0.6619(5)
H29_6 H 0.3657 0.9762 0.6634
C54_6 C 0.2982(5) 0.4303(8) 0.4400(4)
H30_6 H 0.2965 0.3909 0.4464
C55_6 C 0.7004(5) 0.4704(7) 0.6810(4)
H31_6 H 0.6918 0.4307 0.6779
C56_6 C 0.5647(8) 0.7243(9) 0.4444(5)
H32_6 H 0.5978 0.7347 0.4545
C58_6 C 0.3405(5) 0.4691(7) 0.4569(4)
H33_6 H 0.3648 0.4543 0.4745
C59_6 C 0.3084(6) 0.5440(8) 0.4204(5)
H34_6 H 0.3124 0.5822 0.4128
C60_6 C 0.2678(7) 0.5107(8) 0.4044(4)
H35_6 H 0.2448 0.5268 0.3865
C61_6 C 0.4409(7) 0.9602(6) 0.6643(4)
C62_6 C 0.5332(7) 0.6832(9) 0.4598(5)
H36_6 H 0.5484 0.6628 0.4791
C63_6 C 0.5066(4) 0.5181(5) 0.5567(3)
H37_6 H 0.4966 0.5226 0.5327
H38_6 H 0.5427 0.5258 0.5630
H39_6 H 0.4995 0.4785 0.5630
C64_6 C 0.4767(3) 0.5613(4) 0.5746(2)
C65_6 C 0.4726(3) 0.2058(4) 0.7077(2)
C66_6 C 0.4856(4) 0.5620(4) 0.6091(3)
C67_6 C 0.4588(4) 0.6008(5) 0.6269(3)
C68_6 C 0.4891(3) 0.2618(4) 0.6977(2)
C69_6 C 0.4689(5) 0.6055(6) 0.6666(3)
H40_6 H 0.4466 0.6347 0.6735
H41_6 H 0.4623 0.5680 0.6761
H42_6 H 0.5040 0.6165 0.6745
O3_4 O 0.1117(3) 0.5991(4) 0.6914(3)
O7_6 O 0.5703(7) 0.0866(11) 0.6056(4)
O8_4 O 0.4269(2) 0.1984(3) 0.71257(18)
O9_4 O 0.5040(3) 0.1601(3) 0.71037(18)
O12_6 O 0.8092(4) 0.7388(5) 0.6669(5)
O13_6 O 0.8467(3) 0.5281(4) 0.7295(3)
O14_6 O 0.8384(3) 0.6101(3) 0.7015(2)
O17_4 O 0.6117(3) 0.0991(4) 0.6914(3)
O19_4 O 0.9318(4) 0.5617(5) 0.6723(3)
O21_4 O 0.9269(2) 0.6984(3) 0.71257(18)
O22_4 O 0.9960(3) 0.6601(3) 0.78963(18)
H43_6 H 0.774451 0.725352 0.669611
H44_6 H 0.806025 0.77235 0.650763
H45_6 H 0.589675 0.119958 0.597906
H46_6 H 0.543714 0.0728938 0.586567
C12_7 C 0.0867(4) 0.0972(5) 0.0507(3)
H5_7 H 0.0930 0.0961 0.0742
C15_7 C 0.0172(4) 0.1731(6) 0.0526(3)
C19_7 C 0.0473(4) 0.1348(5) 0.0344(3)
C21_7 C 0.1163(3) 0.0622(5) 0.0337(3)
C27_7 C 0.1565(4) 0.0226(5) 0.0525(3)
C50_7 C 0.0036(6) 0.2269(9) 0.1008(3)
H26_7 H 0.0169 0.2392 0.1227
C51_7 C 0.0323(6) 0.1893(8) 0.0859(3)
H27_7 H 0.0626 0.1742 0.0982
C59_7 C 0.1916(6) 0.0440(8) 0.0796(5)
H34_7 H 0.1876 0.0822 0.0872
C60_7 C 0.2322(7) 0.0107(8) 0.0956(4)
H35_7 H 0.2552 0.0268 0.1135
C1_7 C 0.0579(3) 0.0981(4) 0.9430(3)
C2_7 C 0.0692(4) 0.0976(4) 0.9821(2)
C3_7 C 0.1049(4) 0.1821(5) 0.8728(3)
C4_7 C 0.0846(4) 0.1385(4) 0.9269(3)
C5_7 C 0.1058(4) 0.0635(4) 0.9992(3)
H1_7 H 0.1250 0.0397 0.9872
C6_7 C 0.0756(4) 0.1399(4) 0.8900(3)
C8_7 C 0.1501(4) 0.1677(5) 0.8624(3)
H2_7 H 0.1643 0.1306 0.8677
C9_7 C 0.0391(4) 0.1329(5) 0.9992(3)
H3_7 H 0.0131 0.1556 0.9868
C18_7 C 0.0868(4) 0.2401(5) 0.8673(3)
H8_7 H 0.0572 0.2518 0.8749
C20_7 C 0.1241(4) 0.1804(5) 0.9463(3)
H9_7 H 0.1261 0.1742 0.9702
H10_7 H 0.1570 0.1729 0.9403
H11_7 H 0.1141 0.2204 0.9408
C26_7 C 0.1135(4) 0.2807(5) 0.8500(3)
C29_7 C 0.0958(6) 0.3442(6) 0.8452(4)
C31_7 C 0.1757(4) 0.2074(6) 0.8439(3)
C36_7 C 0.1263(6) 0.3887(7) 0.8425(4)
H18_7 H 0.1610 0.3808 0.8437
C37_7 C 0.1566(5) 0.2617(5) 0.8372(3)
H19_7 H 0.1721 0.2871 0.8238
C38_7 C 0.3114(5) 0.1521(6) 0.8082(4)
C39_7 C 0.2211(4) 0.1866(6) 0.8306(3)
C41_7 C 0.3590(5) 0.1372(7) 0.7946(4)
C43_7 C 0.2573(6) 0.1457(8) 0.8487(4)
H20_7 H 0.2511 0.1287 0.8687
C44_7 C 0.0430(5) 0.3537(7) 0.8425(5)
H21_7 H 0.0207 0.3226 0.8441
C46_7 C 0.2292(5) 0.2045(7) 0.8002(4)
H22_7 H 0.2051 0.2285 0.7870
C48_7 C 0.0245(6) 0.4121(8) 0.8373(5)
C49_7 C 0.2752(5) 0.1871(8) 0.7872(5)
H25_7 H 0.2804 0.1988 0.7658
C52_7 C 0.3002(4) 0.1319(6) 0.8367(4)
H28_7 H 0.3234 0.1063 0.8494
C53_7 C 0.1105(6) 0.4465(7) 0.8381(5)
H29_7 H 0.1343 0.4762 0.8366
C57_7 C 0.0310(7) 0.5214(8) 0.8342(5)
C61_7 C 0.0591(7) 0.4602(6) 0.8357(4)
H37_7 H 0.0034 0.0226 0.9673
C64_7 C 0.0233(3) 0.0613(4) 0.9254(2)
C66_7 C 0.0144(4) 0.0620(4) 0.8909(3)
C67_7 C 0.0412(4) 0.1008(5) 0.8731(3)
C69_7 C 0.0311(5) 0.1055(6) 0.8334(3)
H40_7 H 0.0534 0.1347 0.8265
H41_7 H 0.0377 0.0680 0.8239
O4_4 O 0.3664(3) 0.1604(4) 0.7671(3)
C34_7 C 0.2390(5) 0.9540(7) 0.0856(3)
C35_7 C 0.2798(7) 0.9179(10) 0.1035(4)
C54_7 C 0.2018(5) 0.9303(8) 0.0600(4)
H30_7 H 0.2035 0.8909 0.0536
C58_7 C 0.1595(5) 0.9691(7) 0.0431(4)
H33_7 H 0.1352 0.9543 0.0255
H6_7 H 0.0279 0.9571 0.8641
C23_7 C 0.0284(4) 0.8601(5) 0.8250(4)
H13_7 H 0.0528 0.8883 0.8336
C33_7 C 0.0446(4) 0.8064(5) 0.8117(4)
H17_7 H 0.0788 0.8018 0.8095
H39_7 H 0.0005 0.9785 0.9370
C65_7 C 0.0274(3) 0.7058(4) 0.7923(2)
C68_7 C 0.0109(3) 0.7618(4) 0.8023(2)
C42_7 C 0.9594(5) 0.2468(7) 0.0871(3)
C45_7 C 0.9265(7) 0.2904(8) 0.1027(3)
C56_7 C 0.9353(8) 0.2243(9) 0.0556(5)
H32_7 H 0.9022 0.2347 0.0455
C62_7 C 0.9668(7) 0.1832(9) 0.0402(5)
H36_7 H 0.9516 0.1628 0.0209
C7_7 C 0.9773(3) 0.0189(4) 0.8695(3)
C13_7 C 0.7353(4) 0.0450(5) 0.8045(3)
C17_7 C 0.9262(4) 0.0350(5) 0.8609(3)
H7_7 H 0.9148 0.0700 0.8691
C25_7 C 0.6788(4) 0.0608(6) 0.7895(3)
C30_7 C 0.7681(4) 0.0868(5) 0.8197(3)
H16_7 H 0.7566 0.1251 0.8221
C40_7 C 0.8363(4) 0.0159(5) 0.8280(3)
C47_7 C 0.8206(5) 0.0716(5) 0.8319(4)
H23_7 H 0.8435 0.0998 0.8425
H24_7 H 0.9895 0.4193 0.8348
C63_7 C 0.9934(4) 0.0181(5) 0.9433(3)
H38_7 H 0.9573 0.0258 0.9370
H42_7 H 0.9960 0.1165 0.8255
O6_3 O 0.9889(4) 0.5569(8) 0.8364(3)
O12_7 O 0.6908(4) 0.2388(5) 0.8331(5)
O13_7 O 0.6533(3) 0.0281(4) 0.7705(3)
O14_7 O 0.6616(3) 0.1101(3) 0.7985(2)
O18_4 O 0.6336(3) 0.1604(4) 0.7329(3)
H43_7 H 0.725549 0.225352 0.830389
H44_7 H 0.693975 0.27235 0.849237
C10_7 C 0.9428(4) 0.8281(4) 0.8157(3)
H4_7 H 0.9083 0.8335 0.8170
C11_7 C 0.9614(4) 0.9293(4) 0.8384(3)
C14_7 C 0.9773(4) 0.8712(5) 0.8253(3)
C16_7 C 0.9935(4) 0.9671(4) 0.8581(3)
C22_7 C 0.9093(4) 0.9454(5) 0.8289(3)
H12_7 H 0.8864 0.9207 0.8152
C24_7 C 0.9601(4) 0.7735(5) 0.8032(3)
H14_7 H 0.9358 0.7448 0.7954
C28_7 C 0.7504(4) 0.9885(6) 0.8053(5)
H15_7 H 0.7266 0.9600 0.7962
C32_7 C 0.8925(4) 0.9995(5) 0.8404(3)
C55_7 C 0.7996(5) 0.9704(7) 0.8190(4)
H31_7 H 0.8082 0.9307 0.8221
O7_7 O 0.9297(7) 0.5866(11) 0.8944(4)
H45_7 H 0.910325 0.619958 0.902094
H46_7 H 0.956286 0.572894 0.913433
C7_8 C 0.0227(3) 0.0189(4) 0.6305(3)
C13_8 C 0.2647(4) 0.0450(5) 0.6955(3)
C17_8 C 0.0738(4) 0.0350(5) 0.6391(3)
H7_8 H 0.0852 0.0700 0.6309
C25_8 C 0.3212(4) 0.0608(6) 0.7105(3)
C30_8 C 0.2319(4) 0.0868(5) 0.6803(3)
H16_8 H 0.2434 0.1251 0.6779
C40_8 C 0.1637(4) 0.0159(5) 0.6720(3)
C42_8 C 0.0406(5) 0.2468(7) 0.4129(3)
C45_8 C 0.0735(7) 0.2904(8) 0.3973(3)
C47_8 C 0.1794(5) 0.0716(5) 0.6681(4)
H23_8 H 0.1565 0.0998 0.6575
H24_8 H 0.0105 0.4193 0.6652
C56_8 C 0.0647(8) 0.2243(9) 0.4444(5)
H32_8 H 0.0978 0.2347 0.4545
C62_8 C 0.0332(7) 0.1832(9) 0.4598(5)
H36_8 H 0.0484 0.1628 0.4791
C63_8 C 0.0066(4) 0.0181(5) 0.5567(3)
H38_8 H 0.0427 0.0258 0.5630
H42_8 H 0.0040 0.1165 0.6745
O6_4 O 0.0111(4) 0.5569(8) 0.6636(3)
O12_8 O 0.3092(4) 0.2388(5) 0.6669(5)
O13_8 O 0.3467(3) 0.0281(4) 0.7295(3)
O14_8 O 0.3384(3) 0.1101(3) 0.7015(2)
H43_8 H 0.274451 0.225352 0.669611
H44_8 H 0.306025 0.27235 0.650763
C10_8 C 0.0572(4) 0.8281(4) 0.6843(3)
H4_8 H 0.0917 0.8335 0.6830
C11_8 C 0.0386(4) 0.9293(4) 0.6616(3)
C14_8 C 0.0227(4) 0.8712(5) 0.6747(3)
C16_8 C 0.0065(4) 0.9671(4) 0.6419(3)
C22_8 C 0.0907(4) 0.9454(5) 0.6711(3)
H12_8 H 0.1136 0.9207 0.6848
C24_8 C 0.0399(4) 0.7735(5) 0.6968(3)
H14_8 H 0.0642 0.7448 0.7046
C28_8 C 0.2496(4) 0.9885(6) 0.6947(5)
H15_8 H 0.2734 0.9600 0.7038
C32_8 C 0.1075(4) 0.9995(5) 0.6596(3)
C55_8 C 0.2004(5) 0.9704(7) 0.6810(4)
H31_8 H 0.1918 0.9307 0.6779
O7_8 O 0.0703(7) 0.5866(11) 0.6056(4)
H45_8 H 0.0896751 0.619958 0.597906
H46_8 H 0.0437142 0.572894 0.586567
C1_8 C 0.9421(3) 0.0981(4) 0.5570(3)
C2_8 C 0.9308(4) 0.0976(4) 0.5179(2)
C3_8 C 0.8951(4) 0.1821(5) 0.6272(3)
C4_8 C 0.9154(4) 0.1385(4) 0.5731(3)
C5_8 C 0.8942(4) 0.0635(4) 0.5008(3)
H1_8 H 0.8750 0.0397 0.5128
C6_8 C 0.9244(4) 0.1399(4) 0.6100(3)
C8_8 C 0.8499(4) 0.1677(5) 0.6376(3)
H2_8 H 0.8357 0.1306 0.6323
C9_8 C 0.9609(4) 0.1329(5) 0.5008(3)
H3_8 H 0.9869 0.1556 0.5132
C12_8 C 0.9133(4) 0.0972(5) 0.4493(3)
H5_8 H 0.9070 0.0961 0.4258
C15_8 C 0.9828(4) 0.1731(6) 0.4474(3)
C18_8 C 0.9132(4) 0.2401(5) 0.6327(3)
H8_8 H 0.9428 0.2518 0.6251
C19_8 C 0.9527(4) 0.1348(5) 0.4656(3)
C20_8 C 0.8759(4) 0.1804(5) 0.5537(3)
H9_8 H 0.8739 0.1742 0.5298
H10_8 H 0.8430 0.1729 0.5597
H11_8 H 0.8859 0.2204 0.5592
C21_8 C 0.8837(3) 0.0622(5) 0.4663(3)
C26_8 C 0.8865(4) 0.2807(5) 0.6500(3)
C27_8 C 0.8435(4) 0.0226(5) 0.4475(3)
C29_8 C 0.9042(6) 0.3442(6) 0.6548(4)
C31_8 C 0.8243(4) 0.2074(6) 0.6561(3)
C36_8 C 0.8737(6) 0.3887(7) 0.6575(4)
H18_8 H 0.8390 0.3808 0.6563
C37_8 C 0.8434(5) 0.2617(5) 0.6628(3)
H19_8 H 0.8279 0.2871 0.6762
C38_8 C 0.6886(5) 0.1521(6) 0.6918(4)
C39_8 C 0.7789(4) 0.1866(6) 0.6694(3)
C41_8 C 0.6410(5) 0.1372(7) 0.7054(4)
C43_8 C 0.7427(6) 0.1457(8) 0.6513(4)
H20_8 H 0.7489 0.1287 0.6313
C44_8 C 0.9570(5) 0.3537(7) 0.6575(5)
H21_8 H 0.9793 0.3226 0.6559
C46_8 C 0.7708(5) 0.2045(7) 0.6998(4)
H22_8 H 0.7949 0.2285 0.7130
C48_8 C 0.9755(6) 0.4121(8) 0.6627(5)
C49_8 C 0.7248(5) 0.1871(8) 0.7128(5)
H25_8 H 0.7196 0.1988 0.7342
C50_8 C 0.9964(6) 0.2269(9) 0.3992(3)
H26_8 H 0.9831 0.2392 0.3773
C51_8 C 0.9677(6) 0.1893(8) 0.4141(3)
H27_8 H 0.9374 0.1742 0.4018
C52_8 C 0.6998(4) 0.1319(6) 0.6633(4)
H28_8 H 0.6766 0.1063 0.6506
C53_8 C 0.8895(6) 0.4465(7) 0.6619(5)
H29_8 H 0.8657 0.4762 0.6634
C57_8 C 0.9690(7) 0.5214(8) 0.6658(5)
C59_8 C 0.8084(6) 0.0440(8) 0.4204(5)
H34_8 H 0.8124 0.0822 0.4128
C60_8 C 0.7678(7) 0.0107(8) 0.4044(4)
H35_8 H 0.7448 0.0268 0.3865
C61_8 C 0.9409(7) 0.4602(6) 0.6643(4)
H37_8 H 0.9966 0.0226 0.5327
C64_8 C 0.9767(3) 0.0613(4) 0.5746(2)
C66_8 C 0.9856(4) 0.0620(4) 0.6091(3)
C67_8 C 0.9588(4) 0.1008(5) 0.6269(3)
C69_8 C 0.9689(5) 0.1055(6) 0.6666(3)
H40_8 H 0.9466 0.1347 0.6735
H41_8 H 0.9623 0.0680 0.6761
H6_8 H 0.9721 0.9571 0.6359
C23_8 C 0.9716(4) 0.8601(5) 0.6750(4)
H13_8 H 0.9472 0.8883 0.6664
C33_8 C 0.9554(4) 0.8064(5) 0.6883(4)
H17_8 H 0.9212 0.8018 0.6905
C34_8 C 0.7610(5) 0.9540(7) 0.4144(3)
C35_8 C 0.7202(7) 0.9179(10) 0.3965(4)
C54_8 C 0.7982(5) 0.9303(8) 0.4400(4)
H30_8 H 0.7965 0.8909 0.4464
C58_8 C 0.8405(5) 0.9691(7) 0.4569(4)
H33_8 H 0.8648 0.9543 0.4745
H39_8 H 0.9995 0.9785 0.5630
C65_8 C 0.9726(3) 0.7058(4) 0.7077(2)
C68_8 C 0.9891(3) 0.7618(4) 0.6977(2)
loop_
_geom_bond_atom_site_label_1
_geom_bond_atom_site_label_2
_geom_bond_site_symmetry_1
_geom_bond_site_symmetry_2
C1 C2 1_555 1_555
C2 C5 1_555 1_555
C3 C6 1_555 1_555
C4 C1 1_555 1_555
C5 H1 1_555 1_555
C6 C4 1_555 1_555
C7 C16 1_555 1_555
C8 C3 1_555 1_555
H2 C8 1_555 1_555
C9 C2 1_555 1_555
H3 C9 1_555 1_555
C10 H4 1_555 1_555
C11 C14 1_555 1_555
C13 C25 1_555 1_555
C14 C10 1_555 1_555
C16 C11 1_555 1_555
H6 C16 1_555 1_555
C17 C7 1_555 1_555
H7 C17 1_555 1_555
C18 C3 1_555 1_555
H8 C18 1_555 1_555
C20 C4 1_555 1_555
H9 C20 1_555 1_555
H10 C20 1_555 1_555
H11 C20 1_555 1_555
C22 C11 1_555 1_555
H12 C22 1_555 1_555
C23 C14 1_555 1_555
H13 C23 1_555 1_555
C24 C10 1_555 1_555
H14 C24 1_555 1_555
C25 O13 1_555 1_555
C26 C18 1_555 1_555
C28 C13 1_555 1_555
H15 C28 1_555 1_555
C29 C26 1_555 1_555
C30 C13 1_555 1_555
H16 C30 1_555 1_555
C31 C8 1_555 1_555
C32 C17 1_555 1_555
C33 C23 1_555 1_555
H17 C33 1_555 1_555
C36 C29 1_555 1_555
H18 C36 1_555 1_555
C37 C26 1_555 1_555
H19 C37 1_555 1_555
C38 C41 1_555 1_555
C39 C31 1_555 1_555
C40 C32 1_555 1_555
C41 O3 1_555 1_555
C43 C39 1_555 1_555
H20 C43 1_555 1_555
C44 C29 1_555 1_555
H21 C44 1_555 1_555
C46 C39 1_555 1_555
H22 C46 1_555 1_555
C47 C30 1_555 1_555
H23 C47 1_555 1_555
C48 C44 1_555 1_555
H24 C48 1_555 1_555
C49 C38 1_555 1_555
H25 C49 1_555 1_555
C52 C38 1_555 1_555
H28 C52 1_555 1_555
C53 C36 1_555 1_555
H29 C53 1_555 1_555
C55 C28 1_555 1_555
H31 C55 1_555 1_555
C61 C48 1_555 1_555
C63 H37 1_555 1_555
H38 C63 1_555 1_555
H39 C63 1_555 1_555
C64 C1 1_555 1_555
C65 C68 1_555 1_555
C66 C7 1_555 1_555
C67 C6 1_555 1_555
C68 C24 1_555 1_555
C69 C67 1_555 1_555
H40 C69 1_555 1_555
H41 C69 1_555 1_555
H42 C69 1_555 1_555
O3 Pb12 1_555 1_555
O4 C41 1_555 1_555
O7 Pb3 1_555 1_555
O8 C65 1_555 1_555
O9 C65 1_555 1_555
O12 Pb2 1_555 1_555
O13 Pb1 1_555 1_555
O14 C25 1_555 1_555
Pb1 O14 1_555 1_555
Pb2 O14 1_555 1_555
Pb3 O9 1_555 1_555
O15 Pb2 1_555 1_555
O16 Pb2 1_555 1_555
O17 Pb3 1_555 1_555
O18 Pb1 1_555 1_555
O19 Pb1 1_555 1_555
O20 Pb3 1_555 1_555
O21 Pb1 1_555 1_555
O22 Pb1 1_555 1_555
O23 Pb3 1_555 1_555
O24 Pb2 1_555 1_555
O25 Pb2 1_555 1_555
Pb4 O4 1_555 1_555
Pb6 O8 1_555 1_555
Pb7 O9 1_555 1_555
C22 C32 1_555 1_555
C31 C37 1_555 1_555
C33 C68 1_555 1_555
C40 C47 1_555 1_555
C40 C55 1_555 1_555
C43 C52 1_555 1_555
C46 C49 1_555 1_555
C53 C61 1_555 1_555
C63 C64 1_555 1_555
C64 C66 1_555 1_555
C66 C67 1_555 1_555
Pb2 O19 1_555 1_555
O12 H43 1_555 1_555
O12 H44 1_555 1_555
O7 H45 1_555 1_555
O7 H46 1_555 1_555
C12 H5 1_555 1_555
C15 C19 1_555 1_555
C27 C21 1_555 1_555
C34 C35 1_555 1_555
C35 O1 1_555 1_555
C42 C45 1_555 1_555
C45 O10 1_555 1_555
C50 C42 1_555 1_555
H26 C50 1_555 1_555
C51 C15 1_555 1_555
H27 C51 1_555 1_555
C54 C34 1_555 1_555
H30 C54 1_555 1_555
C56 C42 1_555 1_555
H32 C56 1_555 1_555
C58 C27 1_555 1_555
H33 C58 1_555 1_555
C59 C27 1_555 1_555
H34 C59 1_555 1_555
C60 C34 1_555 1_555
H35 C60 1_555 1_555
C62 C15 1_555 1_555
H36 C62 1_555 1_555
O1 Pb9 1_555 1_555
O2 C35 1_555 1_555
O10 Pb10 1_555 1_555
O11 C45 1_555 1_555
Pb9 O2 1_555 1_555
Pb10 O11 1_555 1_555
Pb13 O10 1_555 1_555
C12 C19 1_555 1_555
C12 C21 1_555 1_555
C50 C51 1_555 1_555
C54 C58 1_555 1_555
C56 C62 1_555 1_555
C59 C60 1_555 1_555
O5 C57 1_555 1_555
O20 C57 1_555 1_555
Pb6 O5 1_555 1_555
Pb8 O5 1_555 1_555
C1_2 C2_2 1_555 1_555
C2_2 C5_2 1_555 1_555
C3_2 C6_2 1_555 1_555
C4_2 C1_2 1_555 1_555
C5_2 H1_2 1_555 1_555
C6_2 C4_2 1_555 1_555
C7_2 C16_2 1_555 1_555
C8_2 C3_2 1_555 1_555
H2_2 C8_2 1_555 1_555
C9_2 C2_2 1_555 1_555
H3_2 C9_2 1_555 1_555
C10_2 H4_2 1_555 1_555
C11_2 C14_2 1_555 1_555
C12_2 H5_2 1_555 1_555
C13_2 C25_2 1_555 1_555
C14_2 C10_2 1_555 1_555
C15_2 C19_2 1_555 1_555
C16_2 C11_2 1_555 1_555
H6_2 C16_2 1_555 1_555
C17_2 C7_2 1_555 1_555
H7_2 C17_2 1_555 1_555
C18_2 C3_2 1_555 1_555
H8_2 C18_2 1_555 1_555
C19_2 C9_2 1_555 1_555
C20_2 C4_2 1_555 1_555
H9_2 C20_2 1_555 1_555
H10_2 C20_2 1_555 1_555
H11_2 C20_2 1_555 1_555
C21_2 C5_2 1_555 1_555
C22_2 C11_2 1_555 1_555
H12_2 C22_2 1_555 1_555
C23_2 C14_2 1_555 1_555
H13_2 C23_2 1_555 1_555
C24_2 C10_2 1_555 1_555
H14_2 C24_2 1_555 1_555
C25_2 O13_2 1_555 1_555
C26_2 C18_2 1_555 1_555
C27_2 C21_2 1_555 1_555
C28_2 C13_2 1_555 1_555
H15_2 C28_2 1_555 1_555
C29_2 C26_2 1_555 1_555
C30_2 C13_2 1_555 1_555
H16_2 C30_2 1_555 1_555
C31_2 C8_2 1_555 1_555
C32_2 C17_2 1_555 1_555
C33_2 C23_2 1_555 1_555
H17_2 C33_2 1_555 1_555
C34_2 C35_2 1_555 1_555
C35_2 O1_2 1_555 1_555
C36_2 C29_2 1_555 1_555
H18_2 C36_2 1_555 1_555
C37_2 C26_2 1_555 1_555
H19_2 C37_2 1_555 1_555
C38_2 C41_2 1_555 1_555
C39_2 C31_2 1_555 1_555
C40_2 C32_2 1_555 1_555
C41_2 O3_2 1_555 1_555
C42_2 C45_2 1_555 1_555
C43_2 C39_2 1_555 1_555
H20_2 C43_2 1_555 1_555
C44_2 C29_2 1_555 1_555
H21_2 C44_2 1_555 1_555
C45_2 O10_2 1_555 1_555
C46_2 C39_2 1_555 1_555
H22_2 C46_2 1_555 1_555
C47_2 C30_2 1_555 1_555
H23_2 C47_2 1_555 1_555
C48_2 C44_2 1_555 1_555
H24_2 C48_2 1_555 1_555
C49_2 C38_2 1_555 1_555
H25_2 C49_2 1_555 1_555
C50_2 C42_2 1_555 1_555
H26_2 C50_2 1_555 1_555
C51_2 C15_2 1_555 1_555
H27_2 C51_2 1_555 1_555
C52_2 C38_2 1_555 1_555
H28_2 C52_2 1_555 1_555
C53_2 C36_2 1_555 1_555
H29_2 C53_2 1_555 1_555
C54_2 C34_2 1_555 1_555
H30_2 C54_2 1_555 1_555
C55_2 C28_2 1_555 1_555
H31_2 C55_2 1_555 1_555
C56_2 C42_2 1_555 1_555
H32_2 C56_2 1_555 1_555
C58_2 C27_2 1_555 1_555
H33_2 C58_2 1_555 1_555
C59_2 C27_2 1_555 1_555
H34_2 C59_2 1_555 1_555
C60_2 C34_2 1_555 1_555
H35_2 C60_2 1_555 1_555
C61_2 C48_2 1_555 1_555
C62_2 C15_2 1_555 1_555
H36_2 C62_2 1_555 1_555
C63_2 H37_2 1_555 1_555
H38_2 C63_2 1_555 1_555
H39_2 C63_2 1_555 1_555
C64_2 C1_2 1_555 1_555
C65_2 C68_2 1_555 1_555
C66_2 C7_2 1_555 1_555
C67_2 C6_2 1_555 1_555
C68_2 C24_2 1_555 1_555
C69_2 C67_2 1_555 1_555
H40_2 C69_2 1_555 1_555
H41_2 C69_2 1_555 1_555
H42_2 C69_2 1_555 1_555
O1_2 Pb9_2 1_555 1_555
O2_2 C35_2 1_555 1_555
O3_2 Pb12_2 1_555 1_555
O18 C41_2 1_555 1_555
O7_2 Pb3_2 1_555 1_555
O8_2 C65_2 1_555 1_555
O9_2 C65_2 1_555 1_555
O10_2 Pb10_2 1_555 1_555
O11_2 C45_2 1_555 1_555
O12_2 Pb2_2 1_555 1_555
O13_2 Pb4 1_555 1_555
O14_2 C25_2 1_555 1_555
Pb4 O14_2 1_555 1_555
Pb2_2 O14_2 1_555 1_555
Pb3_2 O9_2 1_555 1_555
O15_2 Pb2_2 1_555 1_555
O16_2 Pb2_2 1_555 1_555
O17_2 Pb3_2 1_555 1_555
O19_2 Pb4 1_555 1_555
O20_2 Pb3_2 1_555 1_555
O21_2 Pb4 1_555 1_555
O22_2 Pb4 1_555 1_555
O23_2 Pb3_2 1_555 1_555
O24_2 Pb2_2 1_555 1_555
O25_2 Pb2_2 1_555 1_555
Pb7 O8_2 1_555 1_555
Pb6 O9_2 1_555 1_555
Pb9_2 O2_2 1_555 1_555
Pb10_2 O11_2 1_555 1_555
Pb13_2 O10_2 1_555 1_555
C12_2 C19_2 1_555 1_555
C12_2 C21_2 1_555 1_555
C22_2 C32_2 1_555 1_555
C31_2 C37_2 1_555 1_555
C33_2 C68_2 1_555 1_555
C40_2 C47_2 1_555 1_555
C40_2 C55_2 1_555 1_555
C43_2 C52_2 1_555 1_555
C46_2 C49_2 1_555 1_555
C50_2 C51_2 1_555 1_555
C53_2 C61_2 1_555 1_555
C54_2 C58_2 1_555 1_555
C56_2 C62_2 1_555 1_555
C59_2 C60_2 1_555 1_555
C63_2 C64_2 1_555 1_555
C64_2 C66_2 1_555 1_555
C66_2 C67_2 1_555 1_555
Pb2_2 O19_2 1_555 1_555
O12_2 H43_2 1_555 1_555
O12_2 H44_2 1_555 1_555
O7_2 H45_2 1_555 1_555
O7_2 H46_2 1_555 1_555
O5_2 C57_2 1_555 1_555
O20_2 C57_2 1_555 1_555
Pb7 O5_2 1_555 1_555
Pb8_2 O5_2 1_555 1_555
C10_3 H4_3 1_555 1_555
C11_3 C14_3 1_555 1_555
C14_3 C10_3 1_555 1_555
C16_3 C11_3 1_555 1_555
C22_3 C11_3 1_555 1_555
H12_3 C22_3 1_555 1_555
C24_3 C10_3 1_555 1_555
H14_3 C24_3 1_555 1_555
H15_3 C28_3 1_555 1_555
C55_3 C28_3 1_555 1_555
H31_3 C55_3 1_555 1_555
O7_3 Pb12 1_555 1_555
Pb12 O22_2 1_555 1_555
O20_3 Pb12 1_555 1_555
C22_3 C32_3 1_555 1_555
O7_3 H45_3 1_555 1_555
O7_3 H46_3 1_555 1_555
C13_3 C25_3 1_555 1_555
C17_3 C7_3 1_555 1_555
H7_3 C17_3 1_555 1_555
C25_3 O13_3 1_555 1_555
C30_3 C13_3 1_555 1_555
H16_3 C30_3 1_555 1_555
C47_3 C30_3 1_555 1_555
H23_3 C47_3 1_555 1_555
H38_3 C63_3 1_555 1_555
O12_3 Pb8 1_555 1_555
O13_3 Pb6 1_555 1_555
O14_3 C25_3 1_555 1_555
Pb6 O14_3 1_555 1_555
Pb8 O14_3 1_555 1_555
O15_3 Pb8 1_555 1_555
O16_3 Pb8 1_555 1_555
O18_2 Pb6 1_555 1_555
O23 Pb8 1_555 1_555
O25_3 Pb8 1_555 1_555
C40_3 C47_3 1_555 1_555
O12_3 H43_3 1_555 1_555
O12_3 H44_3 1_555 1_555
C42_3 C45_3 1_555 1_555
C45_3 O10_3 1_555 1_555
C56_3 C42_3 1_555 1_555
H32_3 C56_3 1_555 1_555
H36_3 C62_3 1_555 1_555
O10_3 Pb9 1_555 1_555
O11_3 C45_3 1_555 1_555
Pb9 O11_3 1_555 1_555
C56_3 C62_3 1_555 1_555
H13_3 C23_3 1_555 1_555
C33_3 C23_3 1_555 1_555
H17_3 C33_3 1_555 1_555
C65_3 C68_3 1_555 1_555
O21 C65_3 1_555 1_555
C33_3 C68_3 1_555 1_555
C34_3 C35_3 1_555 1_555
C35_3 O1_3 1_555 1_555
C54_3 C34_3 1_555 1_555
H30_3 C54_3 1_555 1_555
H33_3 C58_3 1_555 1_555
O1_3 Pb10 1_555 1_555
O2_3 C35_3 1_555 1_555
Pb10 O2_3 1_555 1_555
C54_3 C58_3 1_555 1_555
C1_3 C2_3 1_555 1_555
C2_3 C5_3 1_555 1_555
C3_3 C6_3 1_555 1_555
C4_3 C1_3 1_555 1_555
C5_3 H1_3 1_555 1_555
C6_3 C4_3 1_555 1_555
C8_3 C3_3 1_555 1_555
H2_3 C8_3 1_555 1_555
C9_3 C2_3 1_555 1_555
H3_3 C9_3 1_555 1_555
C18_3 C3_3 1_555 1_555
H8_3 C18_3 1_555 1_555
C20_3 C4_3 1_555 1_555
H9_3 C20_3 1_555 1_555
H10_3 C20_3 1_555 1_555
H11_3 C20_3 1_555 1_555
C26_3 C18_3 1_555 1_555
C29_3 C26_3 1_555 1_555
C31_3 C8_3 1_555 1_555
C36_3 C29_3 1_555 1_555
H18_3 C36_3 1_555 1_555
C37_3 C26_3 1_555 1_555
H19_3 C37_3 1_555 1_555
C38_3 C41_3 1_555 1_555
C39_3 C31_3 1_555 1_555
C41_3 O17 1_555 1_555
C43_3 C39_3 1_555 1_555
H20_3 C43_3 1_555 1_555
C44_3 C29_3 1_555 1_555
H21_3 C44_3 1_555 1_555
C46_3 C39_3 1_555 1_555
H22_3 C46_3 1_555 1_555
C48_3 C44_3 1_555 1_555
C49_3 C38_3 1_555 1_555
H25_3 C49_3 1_555 1_555
C52_3 C38_3 1_555 1_555
H28_3 C52_3 1_555 1_555
C53_3 C36_3 1_555 1_555
H29_3 C53_3 1_555 1_555
C57_3 C61_3 1_555 1_555
C61_3 C48_3 1_555 1_555
C64_3 C1_3 1_555 1_555
C67_3 C6_3 1_555 1_555
C69_3 C67_3 1_555 1_555
H40_3 C69_3 1_555 1_555
H41_3 C69_3 1_555 1_555
O4_2 C41_3 1_555 1_555
O19 C57_3 1_555 1_555
Pb7 O4_2 1_555 1_555
C31_3 C37_3 1_555 1_555
C43_3 C52_3 1_555 1_555
C46_3 C49_3 1_555 1_555
C53_3 C61_3 1_555 1_555
C64_3 C66_3 1_555 1_555
C66_3 C67_3 1_555 1_555
C12_3 H5_3 1_555 1_555
C15_3 C19_3 1_555 1_555
C27_3 C21_3 1_555 1_555
H26_3 C50_3 1_555 1_555
C51_3 C15_3 1_555 1_555
H27_3 C51_3 1_555 1_555
C59_3 C27_3 1_555 1_555
H34_3 C59_3 1_555 1_555
H35_3 C60_3 1_555 1_555
C12_3 C19_3 1_555 1_555
C12_3 C21_3 1_555 1_555
C50_3 C51_3 1_555 1_555
C59_3 C60_3 1_555 1_555
H13_4 C23_4 1_555 1_555
C33_4 C23_4 1_555 1_555
H17_4 C33_4 1_555 1_555
C34_4 C35_4 1_555 1_555
C35_4 O1_4 1_555 1_555
C54_4 C34_4 1_555 1_555
H30_4 C54_4 1_555 1_555
H33_4 C58_4 1_555 1_555
C65_4 C68_4 1_555 1_555
O1_4 Pb10_2 1_555 1_555
O2_4 C35_4 1_555 1_555
O21_2 C65_4 1_555 1_555
Pb10_2 O2_4 1_555 1_555
C33_4 C68_4 1_555 1_555
C54_4 C58_4 1_555 1_555
C1_4 C2_4 1_555 1_555
C2_4 C5_4 1_555 1_555
C3_4 C6_4 1_555 1_555
C4_4 C1_4 1_555 1_555
C5_4 H1_4 1_555 1_555
C6_4 C4_4 1_555 1_555
C8_4 C3_4 1_555 1_555
H2_4 C8_4 1_555 1_555
C9_4 C2_4 1_555 1_555
H3_4 C9_4 1_555 1_555
C12_4 H5_4 1_555 1_555
C15_4 C19_4 1_555 1_555
C18_4 C3_4 1_555 1_555
H8_4 C18_4 1_555 1_555
C19_4 C9_4 1_555 1_555
C20_4 C4_4 1_555 1_555
H9_4 C20_4 1_555 1_555
H10_4 C20_4 1_555 1_555
H11_4 C20_4 1_555 1_555
C21_4 C5_4 1_555 1_555
C26_4 C18_4 1_555 1_555
C27_4 C21_4 1_555 1_555
C29_4 C26_4 1_555 1_555
C31_4 C8_4 1_555 1_555
C36_4 C29_4 1_555 1_555
H18_4 C36_4 1_555 1_555
C37_4 C26_4 1_555 1_555
H19_4 C37_4 1_555 1_555
C38_4 C41_4 1_555 1_555
C39_4 C31_4 1_555 1_555
C41_4 O17_2 1_555 1_555
C43_4 C39_4 1_555 1_555
H20_4 C43_4 1_555 1_555
C44_4 C29_4 1_555 1_555
H21_4 C44_4 1_555 1_555
C46_4 C39_4 1_555 1_555
H22_4 C46_4 1_555 1_555
C48_4 C44_4 1_555 1_555
C49_4 C38_4 1_555 1_555
H25_4 C49_4 1_555 1_555
H26_4 C50_4 1_555 1_555
C51_4 C15_4 1_555 1_555
H27_4 C51_4 1_555 1_555
C52_4 C38_4 1_555 1_555
H28_4 C52_4 1_555 1_555
C53_4 C36_4 1_555 1_555
H29_4 C53_4 1_555 1_555
C57_4 C61_4 1_555 1_555
C59_4 C27_4 1_555 1_555
H34_4 C59_4 1_555 1_555
H35_4 C60_4 1_555 1_555
C61_4 C48_4 1_555 1_555
C64_4 C1_4 1_555 1_555
C67_4 C6_4 1_555 1_555
C69_4 C67_4 1_555 1_555
H40_4 C69_4 1_555 1_555
H41_4 C69_4 1_555 1_555
O18_2 C41_4 1_555 1_555
O19_2 C57_4 1_555 1_555
C12_4 C19_4 1_555 1_555
C12_4 C21_4 1_555 1_555
C31_4 C37_4 1_555 1_555
C43_4 C52_4 1_555 1_555
C46_4 C49_4 1_555 1_555
C50_4 C51_4 1_555 1_555
C53_4 C61_4 1_555 1_555
C59_4 C60_4 1_555 1_555
C64_4 C66_4 1_555 1_555
C66_4 C67_4 1_555 1_555
C10_4 H4_4 1_555 1_555
C11_4 C14_4 1_555 1_555
C14_4 C10_4 1_555 1_555
C16_4 C11_4 1_555 1_555
C22_4 C11_4 1_555 1_555
H12_4 C22_4 1_555 1_555
C24_4 C10_4 1_555 1_555
H14_4 C24_4 1_555 1_555
H15_4 C28_4 1_555 1_555
C55_4 C28_4 1_555 1_555
H31_4 C55_4 1_555 1_555
O7_4 Pb12_2 1_555 1_555
Pb12_2 O22 1_555 1_555
O20_4 Pb12_2 1_555 1_555
C22_4 C32_4 1_555 1_555
O7_4 H45_4 1_555 1_555
O7_4 H46_4 1_555 1_555
C13_4 C25_4 1_555 1_555
C17_4 C7_4 1_555 1_555
H7_4 C17_4 1_555 1_555
C25_4 O13_4 1_555 1_555
C30_4 C13_4 1_555 1_555
H16_4 C30_4 1_555 1_555
C42_4 C45_4 1_555 1_555
C45_4 O10_4 1_555 1_555
C47_4 C30_4 1_555 1_555
H23_4 C47_4 1_555 1_555
C56_4 C42_4 1_555 1_555
H32_4 C56_4 1_555 1_555
H36_4 C62_4 1_555 1_555
H38_4 C63_4 1_555 1_555
O10_4 Pb9_2 1_555 1_555
O11_4 C45_4 1_555 1_555
O12_4 Pb8_2 1_555 1_555
O13_4 Pb7 1_555 1_555
O14_4 C25_4 1_555 1_555
Pb7 O14_4 1_555 1_555
Pb8_2 O14_4 1_555 1_555
O15_4 Pb8_2 1_555 1_555
O16_4 Pb8_2 1_555 1_555
O23_2 Pb8_2 1_555 1_555
O25_4 Pb8_2 1_555 1_555
Pb9_2 O11_4 1_555 1_555
C40_4 C47_4 1_555 1_555
C56_4 C62_4 1_555 1_555
O12_4 H43_4 1_555 1_555
O12_4 H44_4 1_555 1_555
O5_3 C57_5 1_555 1_555
O6 C57_5 1_555 1_555
Pb5 O5_3 1_555 1_555
Pb10 O5_3 1_555 1_555
Pb13 O6 1_555 1_555
C12_5 H5_5 1_555 1_555
C15_5 C19_5 1_555 1_555
C27_5 C21_5 1_555 1_555
C34_5 C35_5 1_555 1_555
C35_5 O15 1_555 1_555
C42_5 C45_5 1_555 1_555
C45_5 O23 1_555 1_555
C50_5 C42_5 1_555 1_555
H26_5 C50_5 1_555 1_555
C51_5 C15_5 1_555 1_555
H27_5 C51_5 1_555 1_555
C54_5 C34_5 1_555 1_555
H30_5 C54_5 1_555 1_555
C56_5 C42_5 1_555 1_555
H32_5 C56_5 1_555 1_555
C58_5 C27_5 1_555 1_555
H33_5 C58_5 1_555 1_555
C59_5 C27_5 1_555 1_555
H34_5 C59_5 1_555 1_555
C60_5 C34_5 1_555 1_555
H35_5 C60_5 1_555 1_555
C62_5 C15_5 1_555 1_555
H36_5 C62_5 1_555 1_555
O16 C35_5 1_555 1_555
O25_3 C45_5 1_555 1_555
C12_5 C19_5 1_555 1_555
C12_5 C21_5 1_555 1_555
C50_5 C51_5 1_555 1_555
C54_5 C58_5 1_555 1_555
C56_5 C62_5 1_555 1_555
C59_5 C60_5 1_555 1_555
C1_5 C2_5 1_555 1_555
C2_5 C5_5 1_555 1_555
C3_5 C6_5 1_555 1_555
C4_5 C1_5 1_555 1_555
C5_5 H1_5 1_555 1_555
C6_5 C4_5 1_555 1_555
C7_5 C16_5 1_555 1_555
C8_5 C3_5 1_555 1_555
H2_5 C8_5 1_555 1_555
C9_5 C2_5 1_555 1_555
H3_5 C9_5 1_555 1_555
C10_5 H4_5 1_555 1_555
C11_5 C14_5 1_555 1_555
C13_5 C25_5 1_555 1_555
C14_5 C10_5 1_555 1_555
C16_5 C11_5 1_555 1_555
H6_5 C16_5 1_555 1_555
C17_5 C7_5 1_555 1_555
H7_5 C17_5 1_555 1_555
C18_5 C3_5 1_555 1_555
H8_5 C18_5 1_555 1_555
C20_5 C4_5 1_555 1_555
H9_5 C20_5 1_555 1_555
H10_5 C20_5 1_555 1_555
H11_5 C20_5 1_555 1_555
C22_5 C11_5 1_555 1_555
H12_5 C22_5 1_555 1_555
C23_5 C14_5 1_555 1_555
H13_5 C23_5 1_555 1_555
C24_5 C10_5 1_555 1_555
H14_5 C24_5 1_555 1_555
C25_5 O13_5 1_555 1_555
C26_5 C18_5 1_555 1_555
C28_5 C13_5 1_555 1_555
H15_5 C28_5 1_555 1_555
C29_5 C26_5 1_555 1_555
C30_5 C13_5 1_555 1_555
H16_5 C30_5 1_555 1_555
C31_5 C8_5 1_555 1_555
C32_5 C17_5 1_555 1_555
C33_5 C23_5 1_555 1_555
H17_5 C33_5 1_555 1_555
C36_5 C29_5 1_555 1_555
H18_5 C36_5 1_555 1_555
C37_5 C26_5 1_555 1_555
H19_5 C37_5 1_555 1_555
C38_5 C41_5 1_555 1_555
C39_5 C31_5 1_555 1_555
C40_5 C32_5 1_555 1_555
C41_5 O3_3 1_555 1_555
C43_5 C39_5 1_555 1_555
H20_5 C43_5 1_555 1_555
C44_5 C29_5 1_555 1_555
H21_5 C44_5 1_555 1_555
C46_5 C39_5 1_555 1_555
H22_5 C46_5 1_555 1_555
C47_5 C30_5 1_555 1_555
H23_5 C47_5 1_555 1_555
C48_5 C44_5 1_555 1_555
H24_5 C48_5 1_555 1_555
C49_5 C38_5 1_555 1_555
H25_5 C49_5 1_555 1_555
C52_5 C38_5 1_555 1_555
H28_5 C52_5 1_555 1_555
C53_5 C36_5 1_555 1_555
H29_5 C53_5 1_555 1_555
C55_5 C28_5 1_555 1_555
H31_5 C55_5 1_555 1_555
C61_5 C48_5 1_555 1_555
C63_5 H37_5 1_555 1_555
H38_5 C63_5 1_555 1_555
H39_5 C63_5 1_555 1_555
C64_5 C1_5 1_555 1_555
C65_5 C68_5 1_555 1_555
C66_5 C7_5 1_555 1_555
C67_5 C6_5 1_555 1_555
C68_5 C24_5 1_555 1_555
C69_5 C67_5 1_555 1_555
H40_5 C69_5 1_555 1_555
H41_5 C69_5 1_555 1_555
H42_5 C69_5 1_555 1_555
O3_3 Pb13_3 1_555 1_555
O4_3 C41_5 1_555 1_555
O7_5 Pb13 1_555 1_555
O8_3 C65_5 1_555 1_555
O9_3 C65_5 1_555 1_555
O12_5 Pb9 1_555 1_555
O13_5 Pb1_2 1_555 1_555
O14_5 C25_5 1_555 1_555
Pb1_2 O14_5 1_555 1_555
Pb9 O14_5 1_555 1_555
Pb13 O9_3 1_555 1_555
O17_3 Pb13 1_555 1_555
O18_3 Pb1_2 1_555 1_555
O19_3 Pb1_2 1_555 1_555
O21_3 Pb1_2 1_555 1_555
O22_3 Pb1_2 1_555 1_555
Pb4_2 O4_3 1_555 1_555
Pb5 O8_3 1_555 1_555
Pb7_2 O9_3 1_555 1_555
C22_5 C32_5 1_555 1_555
C31_5 C37_5 1_555 1_555
C33_5 C68_5 1_555 1_555
C40_5 C47_5 1_555 1_555
C40_5 C55_5 1_555 1_555
C43_5 C52_5 1_555 1_555
C46_5 C49_5 1_555 1_555
C53_5 C61_5 1_555 1_555
C63_5 C64_5 1_555 1_555
C64_5 C66_5 1_555 1_555
C66_5 C67_5 1_555 1_555
Pb9 O19_3 1_555 1_555
O12_5 H43_5 1_555 1_555
O12_5 H44_5 1_555 1_555
O7_5 H45_5 1_555 1_555
O7_5 H46_5 1_555 1_555
O5_4 C57_6 1_555 1_555
O6_2 C57_6 1_555 1_555
Pb7_2 O5_4 1_555 1_555
Pb10_2 O5_4 1_555 1_555
Pb13_2 O6_2 1_555 1_555
C1_6 C2_6 1_555 1_555
C2_6 C5_6 1_555 1_555
C3_6 C6_6 1_555 1_555
C4_6 C1_6 1_555 1_555
C5_6 H1_6 1_555 1_555
C6_6 C4_6 1_555 1_555
C7_6 C16_6 1_555 1_555
C8_6 C3_6 1_555 1_555
H2_6 C8_6 1_555 1_555
C9_6 C2_6 1_555 1_555
H3_6 C9_6 1_555 1_555
C10_6 H4_6 1_555 1_555
C11_6 C14_6 1_555 1_555
C12_6 H5_6 1_555 1_555
C13_6 C25_6 1_555 1_555
C14_6 C10_6 1_555 1_555
C15_6 C19_6 1_555 1_555
C16_6 C11_6 1_555 1_555
H6_6 C16_6 1_555 1_555
C17_6 C7_6 1_555 1_555
H7_6 C17_6 1_555 1_555
C18_6 C3_6 1_555 1_555
H8_6 C18_6 1_555 1_555
C19_6 C9_6 1_555 1_555
C20_6 C4_6 1_555 1_555
H9_6 C20_6 1_555 1_555
H10_6 C20_6 1_555 1_555
H11_6 C20_6 1_555 1_555
C21_6 C5_6 1_555 1_555
C22_6 C11_6 1_555 1_555
H12_6 C22_6 1_555 1_555
C23_6 C14_6 1_555 1_555
H13_6 C23_6 1_555 1_555
C24_6 C10_6 1_555 1_555
H14_6 C24_6 1_555 1_555
C25_6 O13_6 1_555 1_555
C26_6 C18_6 1_555 1_555
C27_6 C21_6 1_555 1_555
C28_6 C13_6 1_555 1_555
H15_6 C28_6 1_555 1_555
C29_6 C26_6 1_555 1_555
C30_6 C13_6 1_555 1_555
H16_6 C30_6 1_555 1_555
C31_6 C8_6 1_555 1_555
C32_6 C17_6 1_555 1_555
C33_6 C23_6 1_555 1_555
H17_6 C33_6 1_555 1_555
C34_6 C35_6 1_555 1_555
C35_6 O15_2 1_555 1_555
C36_6 C29_6 1_555 1_555
H18_6 C36_6 1_555 1_555
C37_6 C26_6 1_555 1_555
H19_6 C37_6 1_555 1_555
C38_6 C41_6 1_555 1_555
C39_6 C31_6 1_555 1_555
C40_6 C32_6 1_555 1_555
C41_6 O3_4 1_555 1_555
C42_6 C45_6 1_555 1_555
C43_6 C39_6 1_555 1_555
H20_6 C43_6 1_555 1_555
C44_6 C29_6 1_555 1_555
H21_6 C44_6 1_555 1_555
C45_6 O23_2 1_555 1_555
C46_6 C39_6 1_555 1_555
H22_6 C46_6 1_555 1_555
C47_6 C30_6 1_555 1_555
H23_6 C47_6 1_555 1_555
C48_6 C44_6 1_555 1_555
H24_6 C48_6 1_555 1_555
C49_6 C38_6 1_555 1_555
H25_6 C49_6 1_555 1_555
C50_6 C42_6 1_555 1_555
H26_6 C50_6 1_555 1_555
C51_6 C15_6 1_555 1_555
H27_6 C51_6 1_555 1_555
C52_6 C38_6 1_555 1_555
H28_6 C52_6 1_555 1_555
C53_6 C36_6 1_555 1_555
H29_6 C53_6 1_555 1_555
C54_6 C34_6 1_555 1_555
H30_6 C54_6 1_555 1_555
C55_6 C28_6 1_555 1_555
H31_6 C55_6 1_555 1_555
C56_6 C42_6 1_555 1_555
H32_6 C56_6 1_555 1_555
C58_6 C27_6 1_555 1_555
H33_6 C58_6 1_555 1_555
C59_6 C27_6 1_555 1_555
H34_6 C59_6 1_555 1_555
C60_6 C34_6 1_555 1_555
H35_6 C60_6 1_555 1_555
C61_6 C48_6 1_555 1_555
C62_6 C15_6 1_555 1_555
H36_6 C62_6 1_555 1_555
C63_6 H37_6 1_555 1_555
H38_6 C63_6 1_555 1_555
H39_6 C63_6 1_555 1_555
C64_6 C1_6 1_555 1_555
C65_6 C68_6 1_555 1_555
C66_6 C7_6 1_555 1_555
C67_6 C6_6 1_555 1_555
C68_6 C24_6 1_555 1_555
C69_6 C67_6 1_555 1_555
H40_6 C69_6 1_555 1_555
H41_6 C69_6 1_555 1_555
H42_6 C69_6 1_555 1_555
O16_2 C35_6 1_555 1_555
O3_4 Pb13_4 1_555 1_555
O18_3 C41_6 1_555 1_555
O7_6 Pb13_2 1_555 1_555
O8_4 C65_6 1_555 1_555
O9_4 C65_6 1_555 1_555
O25_4 C45_6 1_555 1_555
O12_6 Pb9_2 1_555 1_555
O13_6 Pb4_2 1_555 1_555
O14_6 C25_6 1_555 1_555
Pb4_2 O14_6 1_555 1_555
Pb9_2 O14_6 1_555 1_555
Pb13_2 O9_4 1_555 1_555
O17_4 Pb13_2 1_555 1_555
O19_4 Pb4_2 1_555 1_555
O21_4 Pb4_2 1_555 1_555
O22_4 Pb4_2 1_555 1_555
Pb7_2 O8_4 1_555 1_555
Pb5 O9_4 1_555 1_555
C12_6 C19_6 1_555 1_555
C12_6 C21_6 1_555 1_555
C22_6 C32_6 1_555 1_555
C31_6 C37_6 1_555 1_555
C33_6 C68_6 1_555 1_555
C40_6 C47_6 1_555 1_555
C40_6 C55_6 1_555 1_555
C43_6 C52_6 1_555 1_555
C46_6 C49_6 1_555 1_555
C50_6 C51_6 1_555 1_555
C53_6 C61_6 1_555 1_555
C54_6 C58_6 1_555 1_555
C56_6 C62_6 1_555 1_555
C59_6 C60_6 1_555 1_555
C63_6 C64_6 1_555 1_555
C64_6 C66_6 1_555 1_555
C66_6 C67_6 1_555 1_555
Pb9_2 O19_4 1_555 1_555
O12_6 H43_6 1_555 1_555
O12_6 H44_6 1_555 1_555
O7_6 H45_6 1_555 1_555
O7_6 H46_6 1_555 1_555
C12_7 H5_7 1_555 1_555
C15_7 C19_7 1_555 1_555
C27_7 C21_7 1_555 1_555
H26_7 C50_7 1_555 1_555
C51_7 C15_7 1_555 1_555
H27_7 C51_7 1_555 1_555
C59_7 C27_7 1_555 1_555
H34_7 C59_7 1_555 1_555
H35_7 C60_7 1_555 1_555
C12_7 C19_7 1_555 1_555
C12_7 C21_7 1_555 1_555
C50_7 C51_7 1_555 1_555
C59_7 C60_7 1_555 1_555
C1_7 C2_7 1_555 1_555
C2_7 C5_7 1_555 1_555
C3_7 C6_7 1_555 1_555
C4_7 C1_7 1_555 1_555
C5_7 H1_7 1_555 1_555
C6_7 C4_7 1_555 1_555
C8_7 C3_7 1_555 1_555
H2_7 C8_7 1_555 1_555
C9_7 C2_7 1_555 1_555
H3_7 C9_7 1_555 1_555
C18_7 C3_7 1_555 1_555
H8_7 C18_7 1_555 1_555
C20_7 C4_7 1_555 1_555
H9_7 C20_7 1_555 1_555
H10_7 C20_7 1_555 1_555
H11_7 C20_7 1_555 1_555
C26_7 C18_7 1_555 1_555
C29_7 C26_7 1_555 1_555
C31_7 C8_7 1_555 1_555
C36_7 C29_7 1_555 1_555
H18_7 C36_7 1_555 1_555
C37_7 C26_7 1_555 1_555
H19_7 C37_7 1_555 1_555
C38_7 C41_7 1_555 1_555
C39_7 C31_7 1_555 1_555
C41_7 O17_3 1_555 1_555
C43_7 C39_7 1_555 1_555
H20_7 C43_7 1_555 1_555
C44_7 C29_7 1_555 1_555
H21_7 C44_7 1_555 1_555
C46_7 C39_7 1_555 1_555
H22_7 C46_7 1_555 1_555
C48_7 C44_7 1_555 1_555
C49_7 C38_7 1_555 1_555
H25_7 C49_7 1_555 1_555
C52_7 C38_7 1_555 1_555
H28_7 C52_7 1_555 1_555
C53_7 C36_7 1_555 1_555
H29_7 C53_7 1_555 1_555
C57_7 C61_7 1_555 1_555
C61_7 C48_7 1_555 1_555
C64_7 C1_7 1_555 1_555
C67_7 C6_7 1_555 1_555
C69_7 C67_7 1_555 1_555
H40_7 C69_7 1_555 1_555
H41_7 C69_7 1_555 1_555
O4_4 C41_7 1_555 1_555
O19_3 C57_7 1_555 1_555
Pb7_2 O4_4 1_555 1_555
C31_7 C37_7 1_555 1_555
C43_7 C52_7 1_555 1_555
C46_7 C49_7 1_555 1_555
C53_7 C61_7 1_555 1_555
C64_7 C66_7 1_555 1_555
C66_7 C67_7 1_555 1_555
C34_7 C35_7 1_555 1_555
C35_7 O15_3 1_555 1_555
C54_7 C34_7 1_555 1_555
H30_7 C54_7 1_555 1_555
H33_7 C58_7 1_555 1_555
O16_3 C35_7 1_555 1_555
C54_7 C58_7 1_555 1_555
H13_7 C23_7 1_555 1_555
C33_7 C23_7 1_555 1_555
H17_7 C33_7 1_555 1_555
C65_7 C68_7 1_555 1_555
O21_3 C65_7 1_555 1_555
C33_7 C68_7 1_555 1_555
C42_7 C45_7 1_555 1_555
C45_7 O24 1_555 1_555
C56_7 C42_7 1_555 1_555
H32_7 C56_7 1_555 1_555
H36_7 C62_7 1_555 1_555
O25 C45_7 1_555 1_555
C56_7 C62_7 1_555 1_555
C13_7 C25_7 1_555 1_555
C17_7 C7_7 1_555 1_555
H7_7 C17_7 1_555 1_555
C25_7 O13_7 1_555 1_555
C30_7 C13_7 1_555 1_555
H16_7 C30_7 1_555 1_555
C47_7 C30_7 1_555 1_555
H23_7 C47_7 1_555 1_555
H38_7 C63_7 1_555 1_555
O12_7 Pb10 1_555 1_555
O13_7 Pb5 1_555 1_555
O14_7 C25_7 1_555 1_555
Pb5 O14_7 1_555 1_555
Pb10 O14_7 1_555 1_555
O18_4 Pb5 1_555 1_555
Pb13_3 O6_3 1_555 1_555
C40_7 C47_7 1_555 1_555
O12_7 H43_7 1_555 1_555
O12_7 H44_7 1_555 1_555
C10_7 H4_7 1_555 1_555
C11_7 C14_7 1_555 1_555
C14_7 C10_7 1_555 1_555
C16_7 C11_7 1_555 1_555
C22_7 C11_7 1_555 1_555
H12_7 C22_7 1_555 1_555
C24_7 C10_7 1_555 1_555
H14_7 C24_7 1_555 1_555
H15_7 C28_7 1_555 1_555
C55_7 C28_7 1_555 1_555
H31_7 C55_7 1_555 1_555
O7_7 Pb13_3 1_555 1_555
Pb13_3 O22_4 1_555 1_555
C22_7 C32_7 1_555 1_555
O7_7 H45_7 1_555 1_555
O7_7 H46_7 1_555 1_555
C13_8 C25_8 1_555 1_555
C17_8 C7_8 1_555 1_555
H7_8 C17_8 1_555 1_555
C25_8 O13_8 1_555 1_555
C30_8 C13_8 1_555 1_555
H16_8 C30_8 1_555 1_555
C42_8 C45_8 1_555 1_555
C45_8 O24_2 1_555 1_555
C47_8 C30_8 1_555 1_555
H23_8 C47_8 1_555 1_555
C56_8 C42_8 1_555 1_555
H32_8 C56_8 1_555 1_555
H36_8 C62_8 1_555 1_555
H38_8 C63_8 1_555 1_555
O25_2 C45_8 1_555 1_555
O12_8 Pb10_2 1_555 1_555
O13_8 Pb7_2 1_555 1_555
O14_8 C25_8 1_555 1_555
Pb7_2 O14_8 1_555 1_555
Pb10_2 O14_8 1_555 1_555
Pb13_4 O6_4 1_555 1_555
C40_8 C47_8 1_555 1_555
C56_8 C62_8 1_555 1_555
O12_8 H43_8 1_555 1_555
O12_8 H44_8 1_555 1_555
C10_8 H4_8 1_555 1_555
C11_8 C14_8 1_555 1_555
C14_8 C10_8 1_555 1_555
C16_8 C11_8 1_555 1_555
C22_8 C11_8 1_555 1_555
H12_8 C22_8 1_555 1_555
C24_8 C10_8 1_555 1_555
H14_8 C24_8 1_555 1_555
H15_8 C28_8 1_555 1_555
C55_8 C28_8 1_555 1_555
H31_8 C55_8 1_555 1_555
O7_8 Pb13_4 1_555 1_555
Pb13_4 O22_3 1_555 1_555
C22_8 C32_8 1_555 1_555
O7_8 H45_8 1_555 1_555
O7_8 H46_8 1_555 1_555
C1_8 C2_8 1_555 1_555
C2_8 C5_8 1_555 1_555
C3_8 C6_8 1_555 1_555
C4_8 C1_8 1_555 1_555
C5_8 H1_8 1_555 1_555
C6_8 C4_8 1_555 1_555
C8_8 C3_8 1_555 1_555
H2_8 C8_8 1_555 1_555
C9_8 C2_8 1_555 1_555
H3_8 C9_8 1_555 1_555
C12_8 H5_8 1_555 1_555
C15_8 C19_8 1_555 1_555
C18_8 C3_8 1_555 1_555
H8_8 C18_8 1_555 1_555
C19_8 C9_8 1_555 1_555
C20_8 C4_8 1_555 1_555
H9_8 C20_8 1_555 1_555
H10_8 C20_8 1_555 1_555
H11_8 C20_8 1_555 1_555
C21_8 C5_8 1_555 1_555
C26_8 C18_8 1_555 1_555
C27_8 C21_8 1_555 1_555
C29_8 C26_8 1_555 1_555
C31_8 C8_8 1_555 1_555
C36_8 C29_8 1_555 1_555
H18_8 C36_8 1_555 1_555
C37_8 C26_8 1_555 1_555
H19_8 C37_8 1_555 1_555
C38_8 C41_8 1_555 1_555
C39_8 C31_8 1_555 1_555
C41_8 O17_4 1_555 1_555
C43_8 C39_8 1_555 1_555
H20_8 C43_8 1_555 1_555
C44_8 C29_8 1_555 1_555
H21_8 C44_8 1_555 1_555
C46_8 C39_8 1_555 1_555
H22_8 C46_8 1_555 1_555
C48_8 C44_8 1_555 1_555
C49_8 C38_8 1_555 1_555
H25_8 C49_8 1_555 1_555
H26_8 C50_8 1_555 1_555
C51_8 C15_8 1_555 1_555
H27_8 C51_8 1_555 1_555
C52_8 C38_8 1_555 1_555
H28_8 C52_8 1_555 1_555
C53_8 C36_8 1_555 1_555
H29_8 C53_8 1_555 1_555
C57_8 C61_8 1_555 1_555
C59_8 C27_8 1_555 1_555
H34_8 C59_8 1_555 1_555
H35_8 C60_8 1_555 1_555
C61_8 C48_8 1_555 1_555
C64_8 C1_8 1_555 1_555
C67_8 C6_8 1_555 1_555
C69_8 C67_8 1_555 1_555
H40_8 C69_8 1_555 1_555
H41_8 C69_8 1_555 1_555
O18_4 C41_8 1_555 1_555
O19_4 C57_8 1_555 1_555
C12_8 C19_8 1_555 1_555
C12_8 C21_8 1_555 1_555
C31_8 C37_8 1_555 1_555
C43_8 C52_8 1_555 1_555
C46_8 C49_8 1_555 1_555
C50_8 C51_8 1_555 1_555
C53_8 C61_8 1_555 1_555
C59_8 C60_8 1_555 1_555
C64_8 C66_8 1_555 1_555
C66_8 C67_8 1_555 1_555
H13_8 C23_8 1_555 1_555
C33_8 C23_8 1_555 1_555
H17_8 C33_8 1_555 1_555
C34_8 C35_8 1_555 1_555
C35_8 O15_4 1_555 1_555
C54_8 C34_8 1_555 1_555
H30_8 C54_8 1_555 1_555
H33_8 C58_8 1_555 1_555
C65_8 C68_8 1_555 1_555
O16_4 C35_8 1_555 1_555
O21_4 C65_8 1_555 1_555
C33_8 C68_8 1_555 1_555
C54_8 C58_8 1_555 1_555

#END
