
###############################################################################
#
# This file contains modified crystal structure data generated from the
# MOF subset of the Cambridge Structural Database (CSD) v543 
# hosted by the Cambridge Crystallographic Data Centre (CCDC).
#
# This work is licensed under the Creative Commons
# Attribution-NonCommercial-ShareAlike 4.0 International License.
# To view a copy of this license, visit
# http://creativecommons.org/licenses/by-nc-sa/4.0/
# or send a letter to
# Creative Commons, PO Box 1866, Mountain View, CA 94042, USA.
#
# CIF created using the CSD Python API on 29 September 2022
# The structure has been converted into the P1 space group
# The structure has a 3D framework
# The original CSD entry UFOBAV is in the cubic crystal system
# The framework has been calculated to contain at least 10.0% void space
# The void calculation uses a probe of radius 1.32A, grid spacing 0.4
#
###############################################################################

data_UFOBAV
_chemical_formula_moiety         '(C96 H96 Fe22 N144)n'
_symmetry_cell_setting           triclinic
_symmetry_space_group_name_H-M   'P 1'
_symmetry_Int_Tables_number      1
_space_group_name_Hall           'P 1'
loop_
_symmetry_equiv_pos_site_id
_symmetry_equiv_pos_as_xyz
1 x,y,z
_cell_length_a                   16.65075(17)
_cell_length_b                   16.65075(17)
_cell_length_c                   16.65075(17)
_cell_angle_alpha                90
_cell_angle_beta                 90
_cell_angle_gamma                90
_cell_volume                     4616.38
loop_
_atom_site_label
_atom_site_type_symbol
_atom_site_fract_x
_atom_site_fract_y
_atom_site_fract_z
_atom_site_U_iso_or_equiv
_atom_site_thermal_displace_type
Fe1 Fe 0.500 0.250 0.250 0.0153 Uiso
Fe2 Fe 0.375 0.375 0.375 0.0129 Uiso
C1 C 0.6176(2) 0.34607(5) 0.34607(5) 0.0127 Uiso
N1 N 0.54041(15) 0.32821(8) 0.32821(8) 0.0131 Uiso
N2 N 0.49371(17) 0.375 0.375 0.0127 Uiso
H1 H 0.6745 0.3140 0.3140 0.0152 Uiso
C2 C 0.6176(2) 0.40393(5) 0.40393(5) 0.0127 Uiso
N3 N 0.54041(15) 0.42179(8) 0.42179(8) 0.0131 Uiso
H2 H 0.6745 0.4360 0.4360 0.0152 Uiso
Fe3 Fe 0.250 0.500 0.250 0.0153 Uiso
C3 C 0.34607(5) 0.6176(2) 0.34607(5) 0.0127 Uiso
N4 N 0.32821(8) 0.54041(15) 0.32821(8) 0.0131 Uiso
N5 N 0.375 0.49371(17) 0.375 0.0127 Uiso
H3 H 0.3140 0.6745 0.3140 0.0152 Uiso
C4 C 0.40393(5) 0.6176(2) 0.40393(5) 0.0127 Uiso
N6 N 0.42179(8) 0.54041(15) 0.42179(8) 0.0131 Uiso
H4 H 0.4360 0.6745 0.4360 0.0152 Uiso
C5 C 0.34607(5) 0.34607(5) 0.6176(2) 0.0127 Uiso
N7 N 0.32821(8) 0.32821(8) 0.54041(15) 0.0131 Uiso
N8 N 0.375 0.375 0.49371(17) 0.0127 Uiso
H5 H 0.3140 0.3140 0.6745 0.0152 Uiso
C6 C 0.40393(5) 0.40393(5) 0.6176(2) 0.0127 Uiso
N9 N 0.42179(8) 0.42179(8) 0.54041(15) 0.0131 Uiso
H6 H 0.4360 0.4360 0.6745 0.0152 Uiso
C7 C 0.1324(2) 0.40393(5) 0.34607(5) 0.0127 Uiso
N10 N 0.20959(15) 0.42179(8) 0.32821(8) 0.0131 Uiso
N11 N 0.25629(17) 0.375 0.375 0.0127 Uiso
H7 H 0.0755 0.4360 0.3140 0.0152 Uiso
C8 C 0.1324(2) 0.34607(5) 0.40393(5) 0.0127 Uiso
N12 N 0.20959(15) 0.32821(8) 0.42179(8) 0.0131 Uiso
H8 H 0.0755 0.3140 0.4360 0.0152 Uiso
C9 C 0.40393(5) 0.1324(2) 0.34607(5) 0.0127 Uiso
N13 N 0.42179(8) 0.20959(15) 0.32821(8) 0.0131 Uiso
N14 N 0.375 0.25629(17) 0.375 0.0127 Uiso
H9 H 0.4360 0.0755 0.3140 0.0152 Uiso
C10 C 0.34607(5) 0.1324(2) 0.40393(5) 0.0127 Uiso
N15 N 0.32821(8) 0.20959(15) 0.42179(8) 0.0131 Uiso
H10 H 0.3140 0.0755 0.4360 0.0152 Uiso
C11 C 0.34607(5) 0.40393(5) 0.1324(2) 0.0127 Uiso
N16 N 0.32821(8) 0.42179(8) 0.20959(15) 0.0131 Uiso
N17 N 0.375 0.375 0.25629(17) 0.0127 Uiso
H11 H 0.3140 0.4360 0.0755 0.0152 Uiso
C12 C 0.40393(5) 0.34607(5) 0.1324(2) 0.0127 Uiso
N18 N 0.42179(8) 0.32821(8) 0.20959(15) 0.0131 Uiso
H12 H 0.4360 0.3140 0.0755 0.0152 Uiso
Fe4 Fe 0.250 0.250 0.500 0.0153 Uiso
Fe5 Fe 0.500 0.500 0.500 0.0153 Uiso
N19 N 0.29041(15) 0.57821(8) 0.17179(8) 0.0131 Uiso
N20 N 0.57821(8) 0.17179(8) 0.29041(15) 0.0131 Uiso
N21 N 0.45959(15) 0.17179(8) 0.17179(8) 0.0131 Uiso
N22 N 0.17179(8) 0.57821(8) 0.29041(15) 0.0131 Uiso
N23 N 0.17179(8) 0.45959(15) 0.17179(8) 0.0131 Uiso
N24 N 0.57821(8) 0.29041(15) 0.17179(8) 0.0131 Uiso
Fe4_2 Fe 0.500 0.000 0.000 0.0153 Uiso
Fe1_2 Fe 0.250 0.000 0.750 0.0153 Uiso
C9_2 C 0.34607(5) 0.1176(2) 0.84607(5) 0.0127 Uiso
N13_2 N 0.32821(8) 0.04041(15) 0.82821(8) 0.0131 Uiso
H9_2 H 0.3140 0.1745 0.8140 0.0152 Uiso
C10_2 C 0.40393(5) 0.1176(2) 0.90393(5) 0.0127 Uiso
N15_2 N 0.42179(8) 0.04041(15) 0.92179(8) 0.0131 Uiso
H10_2 H 0.4360 0.1745 0.9360 0.0152 Uiso
Fe4_3 Fe 0.500 0.000 1.000 0.0153 Uiso
N20_2 N 0.17179(8) 0.07821(8) 0.79041(15) 0.0131 Uiso
N21_2 N 0.29041(15) 0.07821(8) 0.67179(8) 0.0131 Uiso
C5_2 C 0.40393(5) 0.90393(5) 0.1176(2) 0.0127 Uiso
N7_2 N 0.42179(8) 0.92179(8) 0.04041(15) 0.0131 Uiso
H5_2 H 0.4360 0.9360 0.1745 0.0152 Uiso
C6_2 C 0.34607(5) 0.84607(5) 0.1176(2) 0.0127 Uiso
N9_2 N 0.32821(8) 0.82821(8) 0.04041(15) 0.0131 Uiso
H6_2 H 0.3140 0.8140 0.1745 0.0152 Uiso
Fe4_4 Fe 0.500 1.000 0.000 0.0153 Uiso
Fe5_2 Fe 0.250 0.750 0.000 0.0153 Uiso
Fe1_3 Fe 0.250 1.000 0.750 0.0153 Uiso
Fe2_2 Fe 0.375 0.875 0.875 0.0129 Uiso
C1_2 C 0.1324(2) 0.90393(5) 0.84607(5) 0.0127 Uiso
N1_2 N 0.20959(15) 0.92179(8) 0.82821(8) 0.0131 Uiso
N2_2 N 0.25629(17) 0.875 0.875 0.0127 Uiso
H1_2 H 0.0755 0.9360 0.8140 0.0152 Uiso
C2_2 C 0.1324(2) 0.84607(5) 0.90393(5) 0.0127 Uiso
N3_2 N 0.20959(15) 0.82821(8) 0.92179(8) 0.0131 Uiso
H2_2 H 0.0755 0.8140 0.9360 0.0152 Uiso
Fe3_2 Fe 0.500 0.750 0.750 0.0153 Uiso
C3_2 C 0.40393(5) 0.6324(2) 0.84607(5) 0.0127 Uiso
N4_2 N 0.42179(8) 0.70959(15) 0.82821(8) 0.0131 Uiso
N5_2 N 0.375 0.75629(17) 0.875 0.0127 Uiso
H3_2 H 0.4360 0.5755 0.8140 0.0152 Uiso
C4_2 C 0.34607(5) 0.6324(2) 0.90393(5) 0.0127 Uiso
N6_2 N 0.32821(8) 0.70959(15) 0.92179(8) 0.0131 Uiso
H4_2 H 0.3140 0.5755 0.9360 0.0152 Uiso
N8_2 N 0.375 0.875 0.99371(17) 0.0127 Uiso
C7_2 C 0.6176(2) 0.84607(5) 0.84607(5) 0.0127 Uiso
N10_2 N 0.54041(15) 0.82821(8) 0.82821(8) 0.0131 Uiso
N11_2 N 0.49371(17) 0.875 0.875 0.0127 Uiso
H7_2 H 0.6745 0.8140 0.8140 0.0152 Uiso
C8_2 C 0.6176(2) 0.90393(5) 0.90393(5) 0.0127 Uiso
N12_2 N 0.54041(15) 0.92179(8) 0.92179(8) 0.0131 Uiso
H8_2 H 0.6745 0.9360 0.9360 0.0152 Uiso
N14_2 N 0.375 0.99371(17) 0.875 0.0127 Uiso
C11_2 C 0.40393(5) 0.84607(5) 0.6324(2) 0.0127 Uiso
N16_2 N 0.42179(8) 0.82821(8) 0.70959(15) 0.0131 Uiso
N17_2 N 0.375 0.875 0.75629(17) 0.0127 Uiso
H11_2 H 0.4360 0.8140 0.5755 0.0152 Uiso
C12_2 C 0.34607(5) 0.90393(5) 0.6324(2) 0.0127 Uiso
N18_2 N 0.32821(8) 0.92179(8) 0.70959(15) 0.0131 Uiso
H12_2 H 0.3140 0.9360 0.5755 0.0152 Uiso
Fe4_5 Fe 0.500 1.000 1.000 0.0153 Uiso
Fe5_3 Fe 0.250 0.750 1.000 0.0153 Uiso
N19_2 N 0.45959(15) 0.67179(8) 0.67179(8) 0.0131 Uiso
N22_2 N 0.57821(8) 0.67179(8) 0.79041(15) 0.0131 Uiso
N23_2 N 0.57821(8) 0.79041(15) 0.67179(8) 0.0131 Uiso
N24_2 N 0.17179(8) 0.95959(15) 0.67179(8) 0.0131 Uiso
Fe3_3 Fe 0.000 0.000 0.500 0.0153 Uiso
N22_3 N 0.07821(8) 0.07821(8) 0.45959(15) 0.0131 Uiso
Fe3_4 Fe 0.000 1.000 0.500 0.0153 Uiso
C7_3 C 0.1176(2) 0.90393(5) 0.40393(5) 0.0127 Uiso
N10_3 N 0.04041(15) 0.92179(8) 0.42179(8) 0.0131 Uiso
H7_3 H 0.1745 0.9360 0.4360 0.0152 Uiso
C8_3 C 0.1176(2) 0.84607(5) 0.34607(5) 0.0127 Uiso
N12_3 N 0.04041(15) 0.82821(8) 0.32821(8) 0.0131 Uiso
H8_3 H 0.1745 0.8140 0.3140 0.0152 Uiso
Fe4_6 Fe 0.000 0.750 0.250 0.0153 Uiso
N23_3 N 0.07821(8) 0.95959(15) 0.57821(8) 0.0131 Uiso
Fe3_5 Fe 1.000 0.000 0.500 0.0153 Uiso
C3_3 C 0.90393(5) 0.1176(2) 0.40393(5) 0.0127 Uiso
N4_3 N 0.92179(8) 0.04041(15) 0.42179(8) 0.0131 Uiso
H3_3 H 0.9360 0.1745 0.4360 0.0152 Uiso
C4_3 C 0.84607(5) 0.1176(2) 0.34607(5) 0.0127 Uiso
N6_3 N 0.82821(8) 0.04041(15) 0.32821(8) 0.0131 Uiso
H4_3 H 0.8140 0.1745 0.3140 0.0152 Uiso
Fe5_4 Fe 0.750 -0.000 0.250 0.0153 Uiso
N19_3 N 0.95959(15) 0.07821(8) 0.57821(8) 0.0131 Uiso
Fe1_4 Fe 0.750 0.750 0.500 0.0153 Uiso
Fe2_3 Fe 0.875 0.875 0.375 0.0129 Uiso
C1_3 C 0.6324(2) 0.84607(5) 0.40393(5) 0.0127 Uiso
N1_3 N 0.70959(15) 0.82821(8) 0.42179(8) 0.0131 Uiso
N2_3 N 0.75629(17) 0.875 0.375 0.0127 Uiso
H1_3 H 0.5755 0.8140 0.4360 0.0152 Uiso
C2_3 C 0.6324(2) 0.90393(5) 0.34607(5) 0.0127 Uiso
N3_3 N 0.70959(15) 0.92179(8) 0.32821(8) 0.0131 Uiso
H2_3 H 0.5755 0.9360 0.3140 0.0152 Uiso
Fe3_6 Fe 1.000 1.000 0.500 0.0153 Uiso
N5_3 N 0.875 0.99371(17) 0.375 0.0127 Uiso
C5_3 C 0.90393(5) 0.84607(5) 0.1324(2) 0.0127 Uiso
N7_3 N 0.92179(8) 0.82821(8) 0.20959(15) 0.0131 Uiso
N8_3 N 0.875 0.875 0.25629(17) 0.0127 Uiso
H5_3 H 0.9360 0.8140 0.0755 0.0152 Uiso
C6_3 C 0.84607(5) 0.90393(5) 0.1324(2) 0.0127 Uiso
N9_3 N 0.82821(8) 0.92179(8) 0.20959(15) 0.0131 Uiso
H6_3 H 0.8140 0.9360 0.0755 0.0152 Uiso
N11_3 N 0.99371(17) 0.875 0.375 0.0127 Uiso
C9_3 C 0.84607(5) 0.6324(2) 0.40393(5) 0.0127 Uiso
N13_3 N 0.82821(8) 0.70959(15) 0.42179(8) 0.0131 Uiso
N14_3 N 0.875 0.75629(17) 0.375 0.0127 Uiso
H9_3 H 0.8140 0.5755 0.4360 0.0152 Uiso
C10_3 C 0.90393(5) 0.6324(2) 0.34607(5) 0.0127 Uiso
N15_3 N 0.92179(8) 0.70959(15) 0.32821(8) 0.0131 Uiso
H10_3 H 0.9360 0.5755 0.3140 0.0152 Uiso
C11_3 C 0.90393(5) 0.90393(5) 0.6176(2) 0.0127 Uiso
N16_3 N 0.92179(8) 0.92179(8) 0.54041(15) 0.0131 Uiso
N17_3 N 0.875 0.875 0.49371(17) 0.0127 Uiso
H11_3 H 0.9360 0.9360 0.6745 0.0152 Uiso
C12_3 C 0.84607(5) 0.84607(5) 0.6176(2) 0.0127 Uiso
N18_3 N 0.82821(8) 0.82821(8) 0.54041(15) 0.0131 Uiso
H12_3 H 0.8140 0.8140 0.6745 0.0152 Uiso
Fe4_7 Fe 1.000 0.750 0.250 0.0153 Uiso
Fe5_5 Fe 0.750 1.000 0.250 0.0153 Uiso
N20_3 N 0.67179(8) 0.67179(8) 0.45959(15) 0.0131 Uiso
N21_3 N 0.79041(15) 0.67179(8) 0.57821(8) 0.0131 Uiso
N24_3 N 0.67179(8) 0.79041(15) 0.57821(8) 0.0131 Uiso
Fe1_5 Fe 0.000 0.500 0.000 0.0153 Uiso
N24_4 N 0.07821(8) 0.45959(15) 0.07821(8) 0.0131 Uiso
Fe1_6 Fe -0.000 0.500 1.000 0.0153 Uiso
C1_4 C 0.1176(2) 0.40393(5) 0.90393(5) 0.0127 Uiso
N1_4 N 0.04041(15) 0.42179(8) 0.92179(8) 0.0131 Uiso
H1_4 H 0.1745 0.4360 0.9360 0.0152 Uiso
C2_4 C 0.1176(2) 0.34607(5) 0.84607(5) 0.0127 Uiso
N3_4 N 0.04041(15) 0.32821(8) 0.82821(8) 0.0131 Uiso
H2_4 H 0.1745 0.3140 0.8140 0.0152 Uiso
Fe5_6 Fe -0.000 0.250 0.750 0.0153 Uiso
N20_4 N 0.07821(8) 0.57821(8) 0.95959(15) 0.0131 Uiso
Fe1_7 Fe 1.000 0.500 0.000 0.0153 Uiso
Fe3_7 Fe 0.750 0.250 0.000 0.0153 Uiso
C11_4 C 0.84607(5) 0.34607(5) 0.1176(2) 0.0127 Uiso
N16_4 N 0.82821(8) 0.32821(8) 0.04041(15) 0.0131 Uiso
H11_4 H 0.8140 0.3140 0.1745 0.0152 Uiso
C12_4 C 0.90393(5) 0.40393(5) 0.1176(2) 0.0127 Uiso
N18_4 N 0.92179(8) 0.42179(8) 0.04041(15) 0.0131 Uiso
H12_4 H 0.9360 0.4360 0.1745 0.0152 Uiso
N19_4 N 0.79041(15) 0.17179(8) 0.07821(8) 0.0131 Uiso
N21_4 N 0.95959(15) 0.57821(8) 0.07821(8) 0.0131 Uiso
N23_4 N 0.67179(8) 0.29041(15) 0.07821(8) 0.0131 Uiso
Fe1_8 Fe 1.000 0.500 1.000 0.0153 Uiso
Fe2_4 Fe 0.875 0.375 0.875 0.0129 Uiso
N2_4 N 0.99371(17) 0.375 0.875 0.0127 Uiso
Fe3_8 Fe 0.750 0.250 1.000 0.0153 Uiso
C3_4 C 0.84607(5) 0.1324(2) 0.90393(5) 0.0127 Uiso
N4_4 N 0.82821(8) 0.20959(15) 0.92179(8) 0.0131 Uiso
N5_4 N 0.875 0.25629(17) 0.875 0.0127 Uiso
H3_4 H 0.8140 0.0755 0.9360 0.0152 Uiso
C4_4 C 0.90393(5) 0.1324(2) 0.84607(5) 0.0127 Uiso
N6_4 N 0.92179(8) 0.20959(15) 0.82821(8) 0.0131 Uiso
H4_4 H 0.9360 0.0755 0.8140 0.0152 Uiso
C5_4 C 0.84607(5) 0.40393(5) 0.6324(2) 0.0127 Uiso
N7_4 N 0.82821(8) 0.42179(8) 0.70959(15) 0.0131 Uiso
N8_4 N 0.875 0.375 0.75629(17) 0.0127 Uiso
H5_4 H 0.8140 0.4360 0.5755 0.0152 Uiso
C6_4 C 0.90393(5) 0.34607(5) 0.6324(2) 0.0127 Uiso
N9_4 N 0.92179(8) 0.32821(8) 0.70959(15) 0.0131 Uiso
H6_4 H 0.9360 0.3140 0.5755 0.0152 Uiso
C7_4 C 0.6324(2) 0.34607(5) 0.90393(5) 0.0127 Uiso
N10_4 N 0.70959(15) 0.32821(8) 0.92179(8) 0.0131 Uiso
N11_4 N 0.75629(17) 0.375 0.875 0.0127 Uiso
H7_4 H 0.5755 0.3140 0.9360 0.0152 Uiso
C8_4 C 0.6324(2) 0.40393(5) 0.84607(5) 0.0127 Uiso
N12_4 N 0.70959(15) 0.42179(8) 0.82821(8) 0.0131 Uiso
H8_4 H 0.5755 0.4360 0.8140 0.0152 Uiso
C9_4 C 0.90393(5) 0.6176(2) 0.90393(5) 0.0127 Uiso
N13_4 N 0.92179(8) 0.54041(15) 0.92179(8) 0.0131 Uiso
N14_4 N 0.875 0.49371(17) 0.875 0.0127 Uiso
H9_4 H 0.9360 0.6745 0.9360 0.0152 Uiso
C10_4 C 0.84607(5) 0.6176(2) 0.84607(5) 0.0127 Uiso
N15_4 N 0.82821(8) 0.54041(15) 0.82821(8) 0.0131 Uiso
H10_4 H 0.8140 0.6745 0.8140 0.0152 Uiso
N17_4 N 0.875 0.375 0.99371(17) 0.0127 Uiso
Fe4_8 Fe 0.750 0.500 0.750 0.0153 Uiso
Fe5_7 Fe 1.000 0.250 0.750 0.0153 Uiso
N22_4 N 0.67179(8) 0.17179(8) 0.95959(15) 0.0131 Uiso
N19_5 N 0.17179(8) 0.29041(15) 0.57821(8) 0.0131 Uiso
N22_5 N 0.29041(15) 0.17179(8) 0.57821(8) 0.0131 Uiso
N23_5 N 0.17179(8) 0.17179(8) 0.45959(15) 0.0131 Uiso
N19_6 N 0.67179(8) 0.45959(15) 0.67179(8) 0.0131 Uiso
N22_6 N 0.79041(15) 0.57821(8) 0.67179(8) 0.0131 Uiso
N23_6 N 0.67179(8) 0.57821(8) 0.79041(15) 0.0131 Uiso
N22_7 N 0.45959(15) 0.07821(8) 0.07821(8) 0.0131 Uiso
N23_7 N 0.57821(8) 0.07821(8) 0.95959(15) 0.0131 Uiso
N19_7 N 0.57821(8) 0.95959(15) 0.07821(8) 0.0131 Uiso
N19_8 N 0.07821(8) 0.79041(15) 0.17179(8) 0.0131 Uiso
N23_8 N 0.07821(8) 0.67179(8) 0.29041(15) 0.0131 Uiso
N22_8 N 0.95959(15) 0.67179(8) 0.17179(8) 0.0131 Uiso
Fe2_5 Fe 0.125 0.625 0.125 0.0129 Uiso
C1_5 C 0.09607(5) 0.8676(2) 0.15393(5) 0.0127 Uiso
N2_5 N 0.125 0.74371(17) 0.125 0.0127 Uiso
H1_5 H 0.0640 0.9245 0.1860 0.0152 Uiso
C2_5 C 0.15393(5) 0.8676(2) 0.09607(5) 0.0127 Uiso
N3_5 N 0.17179(8) 0.79041(15) 0.07821(8) 0.0131 Uiso
H2_5 H 0.1860 0.9245 0.0640 0.0152 Uiso
C3_5 C 0.3676(2) 0.59607(5) 0.15393(5) 0.0127 Uiso
N5_5 N 0.24371(17) 0.625 0.125 0.0127 Uiso
H3_5 H 0.4245 0.5640 0.1860 0.0152 Uiso
C4_5 C 0.3676(2) 0.65393(5) 0.09607(5) 0.0127 Uiso
N6_5 N 0.29041(15) 0.67179(8) 0.07821(8) 0.0131 Uiso
H4_5 H 0.4245 0.6860 0.0640 0.0152 Uiso
N8_5 N 0.125 0.625 0.00629(17) 0.0127 Uiso
C7_5 C 0.15393(5) 0.3824(2) 0.15393(5) 0.0127 Uiso
N11_5 N 0.125 0.50629(17) 0.125 0.0127 Uiso
H7_5 H 0.1860 0.3255 0.1860 0.0152 Uiso
C8_5 C 0.09607(5) 0.3824(2) 0.09607(5) 0.0127 Uiso
H8_5 H 0.0640 0.3255 0.0640 0.0152 Uiso
N14_5 N 0.00629(17) 0.625 0.125 0.0127 Uiso
C11_5 C 0.15393(5) 0.59607(5) 0.3676(2) 0.0127 Uiso
N17_5 N 0.125 0.625 0.24371(17) 0.0127 Uiso
H11_5 H 0.1860 0.5640 0.4245 0.0152 Uiso
C12_5 C 0.09607(5) 0.65393(5) 0.3676(2) 0.0127 Uiso
H12_5 H 0.0640 0.6860 0.4245 0.0152 Uiso
C5_5 C 0.09607(5) 0.59607(5) 0.8824(2) 0.0127 Uiso
H5_5 H 0.0640 0.5640 0.8255 0.0152 Uiso
C6_5 C 0.15393(5) 0.65393(5) 0.8824(2) 0.0127 Uiso
N9_5 N 0.17179(8) 0.67179(8) 0.95959(15) 0.0131 Uiso
H6_5 H 0.1860 0.6860 0.8255 0.0152 Uiso
C9_5 C 0.8824(2) 0.65393(5) 0.15393(5) 0.0127 Uiso
H9_5 H 0.8255 0.6860 0.1860 0.0152 Uiso
C10_5 C 0.8824(2) 0.59607(5) 0.09607(5) 0.0127 Uiso
H10_5 H 0.8255 0.5640 0.0640 0.0152 Uiso
Fe2_6 Fe 0.625 0.625 0.625 0.0129 Uiso
C1_6 C 0.65393(5) 0.3824(2) 0.65393(5) 0.0127 Uiso
N2_6 N 0.625 0.50629(17) 0.625 0.0127 Uiso
H1_6 H 0.6860 0.3255 0.6860 0.0152 Uiso
C2_6 C 0.59607(5) 0.3824(2) 0.59607(5) 0.0127 Uiso
N3_6 N 0.57821(8) 0.45959(15) 0.57821(8) 0.0131 Uiso
H2_6 H 0.5640 0.3255 0.5640 0.0152 Uiso
C3_6 C 0.3824(2) 0.65393(5) 0.65393(5) 0.0127 Uiso
N5_6 N 0.50629(17) 0.625 0.625 0.0127 Uiso
H3_6 H 0.3255 0.6860 0.6860 0.0152 Uiso
C4_6 C 0.3824(2) 0.59607(5) 0.59607(5) 0.0127 Uiso
N6_6 N 0.45959(15) 0.57821(8) 0.57821(8) 0.0131 Uiso
H4_6 H 0.3255 0.5640 0.5640 0.0152 Uiso
C5_6 C 0.65393(5) 0.65393(5) 0.3824(2) 0.0127 Uiso
N8_6 N 0.625 0.625 0.50629(17) 0.0127 Uiso
H5_6 H 0.6860 0.6860 0.3255 0.0152 Uiso
C6_6 C 0.59607(5) 0.59607(5) 0.3824(2) 0.0127 Uiso
N9_6 N 0.57821(8) 0.57821(8) 0.45959(15) 0.0131 Uiso
H6_6 H 0.5640 0.5640 0.3255 0.0152 Uiso
C7_6 C 0.59607(5) 0.8676(2) 0.65393(5) 0.0127 Uiso
N11_6 N 0.625 0.74371(17) 0.625 0.0127 Uiso
H7_6 H 0.5640 0.9245 0.6860 0.0152 Uiso
C8_6 C 0.65393(5) 0.8676(2) 0.59607(5) 0.0127 Uiso
H8_6 H 0.6860 0.9245 0.5640 0.0152 Uiso
C9_6 C 0.8676(2) 0.59607(5) 0.65393(5) 0.0127 Uiso
N14_6 N 0.74371(17) 0.625 0.625 0.0127 Uiso
H9_6 H 0.9245 0.5640 0.6860 0.0152 Uiso
C10_6 C 0.8676(2) 0.65393(5) 0.59607(5) 0.0127 Uiso
H10_6 H 0.9245 0.6860 0.5640 0.0152 Uiso
C11_6 C 0.59607(5) 0.65393(5) 0.8676(2) 0.0127 Uiso
N17_6 N 0.625 0.625 0.74371(17) 0.0127 Uiso
H11_6 H 0.5640 0.6860 0.9245 0.0152 Uiso
C12_6 C 0.65393(5) 0.59607(5) 0.8676(2) 0.0127 Uiso
H12_6 H 0.6860 0.5640 0.9245 0.0152 Uiso
Fe2_7 Fe 0.625 0.125 0.125 0.0129 Uiso
N2_7 N 0.625 0.00629(17) 0.125 0.0127 Uiso
C3_7 C 0.8676(2) 0.15393(5) 0.09607(5) 0.0127 Uiso
N5_7 N 0.74371(17) 0.125 0.125 0.0127 Uiso
H3_7 H 0.9245 0.1860 0.0640 0.0152 Uiso
C4_7 C 0.8676(2) 0.09607(5) 0.15393(5) 0.0127 Uiso
N6_7 N 0.79041(15) 0.07821(8) 0.17179(8) 0.0131 Uiso
H4_7 H 0.9245 0.0640 0.1860 0.0152 Uiso
C5_7 C 0.59607(5) 0.15393(5) 0.3676(2) 0.0127 Uiso
N8_7 N 0.625 0.125 0.24371(17) 0.0127 Uiso
H5_7 H 0.5640 0.1860 0.4245 0.0152 Uiso
C6_7 C 0.65393(5) 0.09607(5) 0.3676(2) 0.0127 Uiso
N9_7 N 0.67179(8) 0.07821(8) 0.29041(15) 0.0131 Uiso
H6_7 H 0.6860 0.0640 0.4245 0.0152 Uiso
C7_7 C 0.65393(5) 0.3676(2) 0.09607(5) 0.0127 Uiso
N11_7 N 0.625 0.24371(17) 0.125 0.0127 Uiso
H7_7 H 0.6860 0.4245 0.0640 0.0152 Uiso
C8_7 C 0.59607(5) 0.3676(2) 0.15393(5) 0.0127 Uiso
H8_7 H 0.5640 0.4245 0.1860 0.0152 Uiso
C9_7 C 0.3824(2) 0.09607(5) 0.09607(5) 0.0127 Uiso
N14_7 N 0.50629(17) 0.125 0.125 0.0127 Uiso
H9_7 H 0.3255 0.0640 0.0640 0.0152 Uiso
C10_7 C 0.3824(2) 0.15393(5) 0.15393(5) 0.0127 Uiso
H10_7 H 0.3255 0.1860 0.1860 0.0152 Uiso
N17_7 N 0.625 0.125 0.00629(17) 0.0127 Uiso
C11_7 C 0.65393(5) 0.15393(5) 0.8824(2) 0.0127 Uiso
H11_7 H 0.6860 0.1860 0.8255 0.0152 Uiso
C12_7 C 0.59607(5) 0.09607(5) 0.8824(2) 0.0127 Uiso
H12_7 H 0.5640 0.0640 0.8255 0.0152 Uiso
C1_7 C 0.59607(5) 0.8824(2) 0.09607(5) 0.0127 Uiso
H1_7 H 0.5640 0.8255 0.0640 0.0152 Uiso
C2_7 C 0.65393(5) 0.8824(2) 0.15393(5) 0.0127 Uiso
N3_7 N 0.67179(8) 0.95959(15) 0.17179(8) 0.0131 Uiso
H2_7 H 0.6860 0.8255 0.1860 0.0152 Uiso
Fe2_8 Fe 0.125 0.125 0.625 0.0129 Uiso
C1_8 C 0.15393(5) 0.3676(2) 0.59607(5) 0.0127 Uiso
N2_8 N 0.125 0.24371(17) 0.625 0.0127 Uiso
H1_8 H 0.1860 0.4245 0.5640 0.0152 Uiso
C2_8 C 0.09607(5) 0.3676(2) 0.65393(5) 0.0127 Uiso
N3_8 N 0.07821(8) 0.29041(15) 0.67179(8) 0.0131 Uiso
H2_8 H 0.0640 0.4245 0.6860 0.0152 Uiso
N5_8 N 0.00629(17) 0.125 0.625 0.0127 Uiso
C5_8 C 0.15393(5) 0.09607(5) 0.8676(2) 0.0127 Uiso
N8_8 N 0.125 0.125 0.74371(17) 0.0127 Uiso
H5_8 H 0.1860 0.0640 0.9245 0.0152 Uiso
C6_8 C 0.09607(5) 0.15393(5) 0.8676(2) 0.0127 Uiso
N9_8 N 0.07821(8) 0.17179(8) 0.79041(15) 0.0131 Uiso
H6_8 H 0.0640 0.1860 0.9245 0.0152 Uiso
N11_8 N 0.125 0.00629(17) 0.625 0.0127 Uiso
C9_8 C 0.3676(2) 0.15393(5) 0.59607(5) 0.0127 Uiso
N14_8 N 0.24371(17) 0.125 0.625 0.0127 Uiso
H9_8 H 0.4245 0.1860 0.5640 0.0152 Uiso
C10_8 C 0.3676(2) 0.09607(5) 0.65393(5) 0.0127 Uiso
H10_8 H 0.4245 0.0640 0.6860 0.0152 Uiso
C11_8 C 0.09607(5) 0.09607(5) 0.3824(2) 0.0127 Uiso
N17_8 N 0.125 0.125 0.50629(17) 0.0127 Uiso
H11_8 H 0.0640 0.0640 0.3255 0.0152 Uiso
C12_8 C 0.15393(5) 0.15393(5) 0.3824(2) 0.0127 Uiso
H12_8 H 0.1860 0.1860 0.3255 0.0152 Uiso
C7_8 C 0.09607(5) 0.8824(2) 0.59607(5) 0.0127 Uiso
H7_8 H 0.0640 0.8255 0.5640 0.0152 Uiso
C8_8 C 0.15393(5) 0.8824(2) 0.65393(5) 0.0127 Uiso
H8_8 H 0.1860 0.8255 0.6860 0.0152 Uiso
C3_8 C 0.8824(2) 0.09607(5) 0.59607(5) 0.0127 Uiso
H3_8 H 0.8255 0.0640 0.5640 0.0152 Uiso
C4_8 C 0.8824(2) 0.15393(5) 0.65393(5) 0.0127 Uiso
N6_8 N 0.95959(15) 0.17179(8) 0.67179(8) 0.0131 Uiso
H4_8 H 0.8255 0.1860 0.6860 0.0152 Uiso
loop_
_geom_bond_atom_site_label_1
_geom_bond_atom_site_label_2
_geom_bond_site_symmetry_1
_geom_bond_site_symmetry_2
Fe1 N1 1_555 1_555
Fe2 N2 1_555 1_555
C1 N1 1_555 1_555
N1 N2 1_555 1_555
N2 N3 1_555 1_555
H1 C1 1_555 1_555
C2 C1 1_555 1_555
N3 C2 1_555 1_555
H2 C2 1_555 1_555
Fe3 N4 1_555 1_555
C3 N4 1_555 1_555
N4 N5 1_555 1_555
N5 Fe2 1_555 1_555
H3 C3 1_555 1_555
C4 C3 1_555 1_555
N6 N5 1_555 1_555
H4 C4 1_555 1_555
C5 N7 1_555 1_555
N7 N8 1_555 1_555
N8 Fe2 1_555 1_555
H5 C5 1_555 1_555
C6 C5 1_555 1_555
N9 N8 1_555 1_555
H6 C6 1_555 1_555
C7 N10 1_555 1_555
N10 Fe3 1_555 1_555
N11 Fe2 1_555 1_555
H7 C7 1_555 1_555
C8 C7 1_555 1_555
N12 N11 1_555 1_555
H8 C8 1_555 1_555
C9 N13 1_555 1_555
N13 Fe1 1_555 1_555
N14 Fe2 1_555 1_555
H9 C9 1_555 1_555
C10 C9 1_555 1_555
N15 N14 1_555 1_555
H10 C10 1_555 1_555
C11 N16 1_555 1_555
N16 Fe3 1_555 1_555
N17 Fe2 1_555 1_555
H11 C11 1_555 1_555
C12 C11 1_555 1_555
N18 Fe1 1_555 1_555
H12 C12 1_555 1_555
Fe4 N7 1_555 1_555
Fe5 N3 1_555 1_555
N19 Fe3 1_555 1_555
N20 Fe1 1_555 1_555
N21 Fe1 1_555 1_555
N22 Fe3 1_555 1_555
N23 Fe3 1_555 1_555
N24 Fe1 1_555 1_555
C4 N6 1_555 1_555
N6 Fe5 1_555 1_555
C6 N9 1_555 1_555
N9 Fe5 1_555 1_555
N10 N11 1_555 1_555
C8 N12 1_555 1_555
N12 Fe4 1_555 1_555
N13 N14 1_555 1_555
C10 N15 1_555 1_555
N15 Fe4 1_555 1_555
N16 N17 1_555 1_555
N17 N18 1_555 1_555
C12 N18 1_555 1_555
C9_2 N13_2 1_555 1_555
N13_2 Fe1_2 1_555 1_555
H9_2 C9_2 1_555 1_555
C10_2 C9_2 1_555 1_555
H10_2 C10_2 1_555 1_555
N20_2 Fe1_2 1_555 1_555
N21_2 Fe1_2 1_555 1_555
C10_2 N15_2 1_555 1_555
N15_2 Fe4_3 1_555 1_555
C5_2 N7_2 1_555 1_555
H5_2 C5_2 1_555 1_555
C6_2 C5_2 1_555 1_555
H6_2 C6_2 1_555 1_555
Fe4_4 N7_2 1_555 1_555
C6_2 N9_2 1_555 1_555
N9_2 Fe5_2 1_555 1_555
Fe1_3 N1_2 1_555 1_555
Fe2_2 N2_2 1_555 1_555
C1_2 N1_2 1_555 1_555
N1_2 N2_2 1_555 1_555
N2_2 N3_2 1_555 1_555
H1_2 C1_2 1_555 1_555
C2_2 C1_2 1_555 1_555
N3_2 C2_2 1_555 1_555
H2_2 C2_2 1_555 1_555
Fe3_2 N4_2 1_555 1_555
C3_2 N4_2 1_555 1_555
N4_2 N5_2 1_555 1_555
N5_2 Fe2_2 1_555 1_555
H3_2 C3_2 1_555 1_555
C4_2 C3_2 1_555 1_555
N6_2 N5_2 1_555 1_555
H4_2 C4_2 1_555 1_555
N8_2 Fe2_2 1_555 1_555
C7_2 N10_2 1_555 1_555
N10_2 Fe3_2 1_555 1_555
N11_2 Fe2_2 1_555 1_555
H7_2 C7_2 1_555 1_555
C8_2 C7_2 1_555 1_555
N12_2 N11_2 1_555 1_555
H8_2 C8_2 1_555 1_555
N14_2 Fe2_2 1_555 1_555
C11_2 N16_2 1_555 1_555
N16_2 Fe3_2 1_555 1_555
N17_2 Fe2_2 1_555 1_555
H11_2 C11_2 1_555 1_555
C12_2 C11_2 1_555 1_555
N18_2 Fe1_3 1_555 1_555
H12_2 C12_2 1_555 1_555
Fe5_3 N3_2 1_555 1_555
N19_2 Fe3_2 1_555 1_555
N22_2 Fe3_2 1_555 1_555
N23_2 Fe3_2 1_555 1_555
N24_2 Fe1_3 1_555 1_555
C4_2 N6_2 1_555 1_555
N6_2 Fe5_3 1_555 1_555
N10_2 N11_2 1_555 1_555
C8_2 N12_2 1_555 1_555
N12_2 Fe4_5 1_555 1_555
N16_2 N17_2 1_555 1_555
N17_2 N18_2 1_555 1_555
C12_2 N18_2 1_555 1_555
N22_3 Fe3_3 1_555 1_555
C7_3 N10_3 1_555 1_555
N10_3 Fe3_4 1_555 1_555
H7_3 C7_3 1_555 1_555
C8_3 C7_3 1_555 1_555
H8_3 C8_3 1_555 1_555
N23_3 Fe3_4 1_555 1_555
C8_3 N12_3 1_555 1_555
N12_3 Fe4_6 1_555 1_555
Fe3_5 N4_3 1_555 1_555
C3_3 N4_3 1_555 1_555
H3_3 C3_3 1_555 1_555
C4_3 C3_3 1_555 1_555
H4_3 C4_3 1_555 1_555
N19_3 Fe3_5 1_555 1_555
C4_3 N6_3 1_555 1_555
N6_3 Fe5_4 1_555 1_555
Fe1_4 N1_3 1_555 1_555
Fe2_3 N2_3 1_555 1_555
C1_3 N1_3 1_555 1_555
N1_3 N2_3 1_555 1_555
N2_3 N3_3 1_555 1_555
H1_3 C1_3 1_555 1_555
C2_3 C1_3 1_555 1_555
N3_3 C2_3 1_555 1_555
H2_3 C2_3 1_555 1_555
N5_3 Fe2_3 1_555 1_555
C5_3 N7_3 1_555 1_555
N7_3 N8_3 1_555 1_555
N8_3 Fe2_3 1_555 1_555
H5_3 C5_3 1_555 1_555
C6_3 C5_3 1_555 1_555
N9_3 N8_3 1_555 1_555
H6_3 C6_3 1_555 1_555
N11_3 Fe2_3 1_555 1_555
C9_3 N13_3 1_555 1_555
N13_3 Fe1_4 1_555 1_555
N14_3 Fe2_3 1_555 1_555
H9_3 C9_3 1_555 1_555
C10_3 C9_3 1_555 1_555
N15_3 N14_3 1_555 1_555
H10_3 C10_3 1_555 1_555
C11_3 N16_3 1_555 1_555
N16_3 Fe3_6 1_555 1_555
N17_3 Fe2_3 1_555 1_555
H11_3 C11_3 1_555 1_555
C12_3 C11_3 1_555 1_555
N18_3 Fe1_4 1_555 1_555
H12_3 C12_3 1_555 1_555
Fe4_7 N7_3 1_555 1_555
Fe5_5 N3_3 1_555 1_555
N20_3 Fe1_4 1_555 1_555
N21_3 Fe1_4 1_555 1_555
N24_3 Fe1_4 1_555 1_555
C6_3 N9_3 1_555 1_555
N9_3 Fe5_5 1_555 1_555
N13_3 N14_3 1_555 1_555
C10_3 N15_3 1_555 1_555
N15_3 Fe4_7 1_555 1_555
N16_3 N17_3 1_555 1_555
N17_3 N18_3 1_555 1_555
C12_3 N18_3 1_555 1_555
N24_4 Fe1_5 1_555 1_555
Fe1_6 N1_4 1_555 1_555
C1_4 N1_4 1_555 1_555
H1_4 C1_4 1_555 1_555
C2_4 C1_4 1_555 1_555
N3_4 C2_4 1_555 1_555
H2_4 C2_4 1_555 1_555
Fe5_6 N3_4 1_555 1_555
N20_4 Fe1_6 1_555 1_555
C11_4 N16_4 1_555 1_555
N16_4 Fe3_7 1_555 1_555
H11_4 C11_4 1_555 1_555
C12_4 C11_4 1_555 1_555
N18_4 Fe1_7 1_555 1_555
H12_4 C12_4 1_555 1_555
N19_4 Fe3_7 1_555 1_555
N21_4 Fe1_7 1_555 1_555
N23_4 Fe3_7 1_555 1_555
C12_4 N18_4 1_555 1_555
Fe2_4 N2_4 1_555 1_555
Fe3_8 N4_4 1_555 1_555
C3_4 N4_4 1_555 1_555
N4_4 N5_4 1_555 1_555
N5_4 Fe2_4 1_555 1_555
H3_4 C3_4 1_555 1_555
C4_4 C3_4 1_555 1_555
N6_4 N5_4 1_555 1_555
H4_4 C4_4 1_555 1_555
C5_4 N7_4 1_555 1_555
N7_4 N8_4 1_555 1_555
N8_4 Fe2_4 1_555 1_555
H5_4 C5_4 1_555 1_555
C6_4 C5_4 1_555 1_555
N9_4 N8_4 1_555 1_555
H6_4 C6_4 1_555 1_555
C7_4 N10_4 1_555 1_555
N10_4 Fe3_8 1_555 1_555
N11_4 Fe2_4 1_555 1_555
H7_4 C7_4 1_555 1_555
C8_4 C7_4 1_555 1_555
N12_4 N11_4 1_555 1_555
H8_4 C8_4 1_555 1_555
C9_4 N13_4 1_555 1_555
N13_4 Fe1_8 1_555 1_555
N14_4 Fe2_4 1_555 1_555
H9_4 C9_4 1_555 1_555
C10_4 C9_4 1_555 1_555
N15_4 N14_4 1_555 1_555
H10_4 C10_4 1_555 1_555
N17_4 Fe2_4 1_555 1_555
Fe4_8 N7_4 1_555 1_555
N22_4 Fe3_8 1_555 1_555
C4_4 N6_4 1_555 1_555
N6_4 Fe5_7 1_555 1_555
C6_4 N9_4 1_555 1_555
N9_4 Fe5_7 1_555 1_555
N10_4 N11_4 1_555 1_555
C8_4 N12_4 1_555 1_555
N12_4 Fe4_8 1_555 1_555
N13_4 N14_4 1_555 1_555
C10_4 N15_4 1_555 1_555
N15_4 Fe4_8 1_555 1_555
N19_5 Fe4 1_555 1_555
N22_5 Fe4 1_555 1_555
N23_5 Fe4 1_555 1_555
N19_6 Fe4_8 1_555 1_555
N22_6 Fe4_8 1_555 1_555
N23_6 Fe4_8 1_555 1_555
N22_7 Fe4_2 1_555 1_555
N23_7 Fe4_3 1_555 1_555
N19_7 Fe4_4 1_555 1_555
N19_8 Fe4_6 1_555 1_555
N23_8 Fe4_6 1_555 1_555
N22_8 Fe4_7 1_555 1_555
Fe2_5 N2_5 1_555 1_555
C1_5 N19_8 1_555 1_555
N19_8 N2_5 1_555 1_555
N2_5 N3_5 1_555 1_555
H1_5 C1_5 1_555 1_555
C2_5 C1_5 1_555 1_555
N3_5 C2_5 1_555 1_555
H2_5 C2_5 1_555 1_555
C3_5 N19 1_555 1_555
N19 N5_5 1_555 1_555
N5_5 Fe2_5 1_555 1_555
H3_5 C3_5 1_555 1_555
C4_5 C3_5 1_555 1_555
N6_5 N5_5 1_555 1_555
H4_5 C4_5 1_555 1_555
N8_5 Fe2_5 1_555 1_555
C7_5 N23 1_555 1_555
N11_5 Fe2_5 1_555 1_555
H7_5 C7_5 1_555 1_555
C8_5 C7_5 1_555 1_555
N24_4 N11_5 1_555 1_555
H8_5 C8_5 1_555 1_555
N14_5 Fe2_5 1_555 1_555
C11_5 N22 1_555 1_555
N17_5 Fe2_5 1_555 1_555
H11_5 C11_5 1_555 1_555
C12_5 C11_5 1_555 1_555
H12_5 C12_5 1_555 1_555
Fe5_2 N3_5 1_555 1_555
C4_5 N6_5 1_555 1_555
N6_5 Fe5_2 1_555 1_555
N23 N11_5 1_555 1_555
C8_5 N24_4 1_555 1_555
N22 N17_5 1_555 1_555
N17_5 N23_8 1_555 1_555
C12_5 N23_8 1_555 1_555
C5_5 N20_4 1_555 1_555
H5_5 C5_5 1_555 1_555
C6_5 C5_5 1_555 1_555
H6_5 C6_5 1_555 1_555
C6_5 N9_5 1_555 1_555
N9_5 Fe5_3 1_555 1_555
C9_5 N22_8 1_555 1_555
H9_5 C9_5 1_555 1_555
C10_5 C9_5 1_555 1_555
H10_5 C10_5 1_555 1_555
C10_5 N21_4 1_555 1_555
Fe2_6 N2_6 1_555 1_555
C1_6 N19_6 1_555 1_555
N19_6 N2_6 1_555 1_555
N2_6 N3_6 1_555 1_555
H1_6 C1_6 1_555 1_555
C2_6 C1_6 1_555 1_555
N3_6 C2_6 1_555 1_555
H2_6 C2_6 1_555 1_555
C3_6 N19_2 1_555 1_555
N19_2 N5_6 1_555 1_555
N5_6 Fe2_6 1_555 1_555
H3_6 C3_6 1_555 1_555
C4_6 C3_6 1_555 1_555
N6_6 N5_6 1_555 1_555
H4_6 C4_6 1_555 1_555
C5_6 N20_3 1_555 1_555
N20_3 N8_6 1_555 1_555
N8_6 Fe2_6 1_555 1_555
H5_6 C5_6 1_555 1_555
C6_6 C5_6 1_555 1_555
N9_6 N8_6 1_555 1_555
H6_6 C6_6 1_555 1_555
C7_6 N23_2 1_555 1_555
N11_6 Fe2_6 1_555 1_555
H7_6 C7_6 1_555 1_555
C8_6 C7_6 1_555 1_555
N24_3 N11_6 1_555 1_555
H8_6 C8_6 1_555 1_555
C9_6 N22_6 1_555 1_555
N14_6 Fe2_6 1_555 1_555
H9_6 C9_6 1_555 1_555
C10_6 C9_6 1_555 1_555
N21_3 N14_6 1_555 1_555
H10_6 C10_6 1_555 1_555
C11_6 N22_2 1_555 1_555
N17_6 Fe2_6 1_555 1_555
H11_6 C11_6 1_555 1_555
C12_6 C11_6 1_555 1_555
H12_6 C12_6 1_555 1_555
Fe5 N3_6 1_555 1_555
C4_6 N6_6 1_555 1_555
N6_6 Fe5 1_555 1_555
C6_6 N9_6 1_555 1_555
N9_6 Fe5 1_555 1_555
N23_2 N11_6 1_555 1_555
C8_6 N24_3 1_555 1_555
N22_6 N14_6 1_555 1_555
C10_6 N21_3 1_555 1_555
N22_2 N17_6 1_555 1_555
N17_6 N23_6 1_555 1_555
C12_6 N23_6 1_555 1_555
Fe2_7 N2_7 1_555 1_555
C3_7 N19_4 1_555 1_555
N19_4 N5_7 1_555 1_555
N5_7 Fe2_7 1_555 1_555
H3_7 C3_7 1_555 1_555
C4_7 C3_7 1_555 1_555
N6_7 N5_7 1_555 1_555
H4_7 C4_7 1_555 1_555
C5_7 N20 1_555 1_555
N20 N8_7 1_555 1_555
N8_7 Fe2_7 1_555 1_555
H5_7 C5_7 1_555 1_555
C6_7 C5_7 1_555 1_555
N9_7 N8_7 1_555 1_555
H6_7 C6_7 1_555 1_555
C7_7 N23_4 1_555 1_555
N11_7 Fe2_7 1_555 1_555
H7_7 C7_7 1_555 1_555
C8_7 C7_7 1_555 1_555
N24 N11_7 1_555 1_555
H8_7 C8_7 1_555 1_555
C9_7 N22_7 1_555 1_555
N14_7 Fe2_7 1_555 1_555
H9_7 C9_7 1_555 1_555
C10_7 C9_7 1_555 1_555
N21 N14_7 1_555 1_555
H10_7 C10_7 1_555 1_555
N17_7 Fe2_7 1_555 1_555
C4_7 N6_7 1_555 1_555
N6_7 Fe5_4 1_555 1_555
C6_7 N9_7 1_555 1_555
N9_7 Fe5_4 1_555 1_555
N23_4 N11_7 1_555 1_555
C8_7 N24 1_555 1_555
N22_7 N14_7 1_555 1_555
C10_7 N21 1_555 1_555
C11_7 N22_4 1_555 1_555
H11_7 C11_7 1_555 1_555
C12_7 C11_7 1_555 1_555
H12_7 C12_7 1_555 1_555
C12_7 N23_7 1_555 1_555
C1_7 N19_7 1_555 1_555
H1_7 C1_7 1_555 1_555
C2_7 C1_7 1_555 1_555
N3_7 C2_7 1_555 1_555
H2_7 C2_7 1_555 1_555
Fe5_5 N3_7 1_555 1_555
Fe2_8 N2_8 1_555 1_555
C1_8 N19_5 1_555 1_555
N19_5 N2_8 1_555 1_555
N2_8 N3_8 1_555 1_555
H1_8 C1_8 1_555 1_555
C2_8 C1_8 1_555 1_555
N3_8 C2_8 1_555 1_555
H2_8 C2_8 1_555 1_555
N5_8 Fe2_8 1_555 1_555
C5_8 N20_2 1_555 1_555
N20_2 N8_8 1_555 1_555
N8_8 Fe2_8 1_555 1_555
H5_8 C5_8 1_555 1_555
C6_8 C5_8 1_555 1_555
N9_8 N8_8 1_555 1_555
H6_8 C6_8 1_555 1_555
N11_8 Fe2_8 1_555 1_555
C9_8 N22_5 1_555 1_555
N14_8 Fe2_8 1_555 1_555
H9_8 C9_8 1_555 1_555
C10_8 C9_8 1_555 1_555
N21_2 N14_8 1_555 1_555
H10_8 C10_8 1_555 1_555
C11_8 N22_3 1_555 1_555
N17_8 Fe2_8 1_555 1_555
H11_8 C11_8 1_555 1_555
C12_8 C11_8 1_555 1_555
H12_8 C12_8 1_555 1_555
Fe5_6 N3_8 1_555 1_555
C6_8 N9_8 1_555 1_555
N9_8 Fe5_6 1_555 1_555
N22_5 N14_8 1_555 1_555
C10_8 N21_2 1_555 1_555
N22_3 N17_8 1_555 1_555
N17_8 N23_5 1_555 1_555
C12_8 N23_5 1_555 1_555
C7_8 N23_3 1_555 1_555
H7_8 C7_8 1_555 1_555
C8_8 C7_8 1_555 1_555
H8_8 C8_8 1_555 1_555
C8_8 N24_2 1_555 1_555
C3_8 N19_3 1_555 1_555
H3_8 C3_8 1_555 1_555
C4_8 C3_8 1_555 1_555
H4_8 C4_8 1_555 1_555
C4_8 N6_8 1_555 1_555
N6_8 Fe5_7 1_555 1_555

#END
