
###############################################################################
#
# This file contains modified crystal structure data generated from the
# MOF subset of the Cambridge Structural Database (CSD) v543 
# hosted by the Cambridge Crystallographic Data Centre (CCDC).
#
# This work is licensed under the Creative Commons
# Attribution-NonCommercial-ShareAlike 4.0 International License.
# To view a copy of this license, visit
# http://creativecommons.org/licenses/by-nc-sa/4.0/
# or send a letter to
# Creative Commons, PO Box 1866, Mountain View, CA 94042, USA.
#
# CIF created using the CSD Python API on 29 September 2022
# The structure has been converted into the P1 space group
# The structure has a 3D framework
# The original CSD entry UFOFUT is in the tetragonal crystal system
# The framework has been calculated to contain at least 10.0% void space
# The void calculation uses a probe of radius 1.32A, grid spacing 0.4
#
###############################################################################

data_UFOFUT
_chemical_formula_moiety         '(C256 H128 O128 Zn8)n'
_symmetry_cell_setting           triclinic
_symmetry_space_group_name_H-M   'P 1'
_symmetry_Int_Tables_number      1
_space_group_name_Hall           'P 1'
loop_
_symmetry_equiv_pos_site_id
_symmetry_equiv_pos_as_xyz
1 x,y,z
_cell_length_a                   22.535(2)
_cell_length_b                   22.535(2)
_cell_length_c                   30.309(3)
_cell_angle_alpha                90
_cell_angle_beta                 90
_cell_angle_gamma                90
_cell_volume                     15391.7
loop_
_atom_site_label
_atom_site_type_symbol
_atom_site_fract_x
_atom_site_fract_y
_atom_site_fract_z
C1 C 0.4240(4) 0.2394(4) 0.0066(3)
C2 C 0.4801(4) 0.2480(4) 0.0306(3)
C3 C 0.5329(4) 0.2610(4) 0.0090(3)
C4 C 0.5842(4) 0.2709(4) 0.0307(3)
C5 C 0.5842(4) 0.2650(4) 0.0777(3)
H2 H 0.619033 0.270326 0.093633
C6 C 0.5323(4) 0.2514(4) 0.0991(3)
C7 C 0.4806(4) 0.2427(4) 0.0767(3)
H3 H 0.445936 0.233296 0.091874
C9 C 0.6414(4) 0.2855(5) 0.0067(3)
O1 O 0.3771(3) 0.2276(3) 0.02621(18)
O7 O 0.6871(3) 0.2874(3) 0.03053(19)
C19 C 0.4240(4) 0.2606(4) 0.2434(3)
C20 C 0.4801(4) 0.2520(4) 0.2194(3)
C21 C 0.5329(4) 0.2390(4) 0.2410(3)
H10 H 0.532893 0.237025 0.271676
C22 C 0.5842(4) 0.2291(4) 0.2193(3)
C23 C 0.5842(4) 0.2350(4) 0.1723(3)
H11 H 0.619033 0.229674 0.156367
C24 C 0.5323(4) 0.2486(4) 0.1509(3)
C25 C 0.4806(4) 0.2573(4) 0.1733(3)
H12 H 0.445936 0.266704 0.158126
O9 O 0.3771(3) 0.2724(3) 0.22379(18)
O10 O 0.4237(3) 0.2530(4) 0.28415(19)
H13 H 0.390372 0.259728 0.293800
C26 C 0.6414(4) 0.2145(5) 0.2433(3)
O11 O 0.6871(3) 0.2126(3) 0.21947(19)
O12 O 0.6402(3) 0.2073(5) 0.2823(2)
O19 O 0.2506(3) 0.2234(3) 0.04788(19)
Zn3 Zn 0.76440(4) 0.30183(4) 0.00280(3)
Zn6 Zn 0.30183(4) 0.26440(4) 0.25280(3)
Zn7 Zn 0.76440(4) 0.19817(4) 0.24720(3)
H1 H 0.532893 0.262975 0.978324
C10 C 0.2851(5) 0.1260(4) 0.9538(3)
C11 C 0.2677(4) 0.0926(4) 0.9130(3)
C12 C 0.250000 0.1205(5) 0.875000
H4 H 0.250000 0.161730 0.875001
C13 C 0.2657(5) 0.0314(4) 0.9125(3)
H5 H 0.275164 0.010988 0.938248
O2 O 0.4237(3) 0.2470(4) 0.96585(19)
H8 H 0.390372 0.240272 0.956200
O3 O 0.2881(3) 0.1809(3) 0.94877(18)
O4 O 0.2944(3) 0.1009(3) 0.9876(2)
O8 O 0.6402(3) 0.2927(5) 0.9677(2)
Zn1 Zn 0.30183(4) 0.23560(4) 0.99720(3)
C27 C 0.2149(5) 0.1260(4) 0.7962(3)
C28 C 0.2323(4) 0.0926(4) 0.8370(3)
C29 C 0.2343(5) 0.0314(4) 0.8375(3)
H14 H 0.224836 0.010988 0.811752
O13 O 0.2119(3) 0.1809(3) 0.80123(18)
O14 O 0.2056(3) 0.1009(3) 0.7624(2)
O21 O 0.2874(3) 0.3129(3) 0.96947(19)
Zn4 Zn 0.19817(4) 0.23560(4) 0.75280(3)
H9 H 0.257591 0.814280 0.010303
Zn2 Zn 0.23560(4) 0.69817(4) 0.00280(3)
O18 O 0.1809(3) 0.7119(3) 0.05123(18)
O20 O 0.3129(3) 0.7126(3) 0.03053(19)
C8 C 0.2330(5) 0.8049(5) 0.9564(3)
C14 C 0.250000 0.9989(5) 0.875000
C15 C 0.250000 0.9314(5) 0.875000
C16 C 0.2400(5) 0.8996(4) 0.9138(3)
H6 H 0.232294 0.919852 0.939920
C17 C 0.2415(5) 0.8381(4) 0.9139(3)
C18 C 0.250000 0.8101(5) 0.875000
H7 H 0.249998 0.768858 0.874999
O5 O 0.2369(5) 0.8332(3) 0.9930(2)
O6 O 0.2234(3) 0.7494(3) 0.95212(19)
C30 C 0.2600(5) 0.8996(4) 0.8362(3)
H15 H 0.267706 0.919852 0.810080
C31 C 0.2585(5) 0.8381(4) 0.8361(3)
C32 C 0.2670(5) 0.8049(5) 0.7936(3)
O15 O 0.2631(5) 0.8332(3) 0.7570(2)
H16 H 0.242409 0.814280 0.739697
O16 O 0.2766(3) 0.7494(3) 0.79788(19)
O17 O 0.2276(3) 0.6229(3) 0.97379(18)
Zn5 Zn 0.26440(4) 0.69817(4) 0.74720(3)
H9_2 H 0.742409 0.185720 0.010303
O18_2 O 0.8191(3) 0.2881(3) 0.05123(18)
C8_2 C 0.7670(5) 0.1951(5) 0.9564(3)
C14_2 C 0.750000 0.0011(5) 0.875000
C15_2 C 0.750000 0.0686(5) 0.875000
C16_2 C 0.7600(5) 0.1004(4) 0.9138(3)
H6_2 H 0.767706 0.080148 0.939920
C17_2 C 0.7585(5) 0.1619(4) 0.9139(3)
C18_2 C 0.750000 0.1899(5) 0.875000
H7_2 H 0.750002 0.231142 0.874999
O5_2 O 0.7631(5) 0.1668(3) 0.9930(2)
O6_2 O 0.7766(3) 0.2506(3) 0.95212(19)
C30_2 C 0.7400(5) 0.1004(4) 0.8362(3)
H15_2 H 0.732294 0.080148 0.810080
C31_2 C 0.7415(5) 0.1619(4) 0.8361(3)
C32_2 C 0.7330(5) 0.1951(5) 0.7936(3)
O15_2 O 0.7369(5) 0.1668(3) 0.7570(2)
H16_2 H 0.757591 0.185720 0.739697
O16_2 O 0.7234(3) 0.2506(3) 0.79788(19)
O17_2 O 0.7724(3) 0.3771(3) 0.97379(18)
Zn5_2 Zn 0.73560(4) 0.30183(4) 0.74720(3)
C1_2 C 0.5760(4) 0.7606(4) 0.0066(3)
C2_2 C 0.5199(4) 0.7520(4) 0.0306(3)
C3_2 C 0.4671(4) 0.7390(4) 0.0090(3)
C4_2 C 0.4158(4) 0.7291(4) 0.0307(3)
C5_2 C 0.4158(4) 0.7350(4) 0.0777(3)
H2_2 H 0.380967 0.729674 0.093633
C6_2 C 0.4677(4) 0.7486(4) 0.0991(3)
C7_2 C 0.5194(4) 0.7573(4) 0.0767(3)
H3_2 H 0.554064 0.766704 0.091874
C9_2 C 0.3586(4) 0.7145(5) 0.0067(3)
O1_2 O 0.6229(3) 0.7724(3) 0.02621(18)
C19_2 C 0.5760(4) 0.7394(4) 0.2434(3)
C20_2 C 0.5199(4) 0.7480(4) 0.2194(3)
C21_2 C 0.4671(4) 0.7610(4) 0.2410(3)
H10_2 H 0.467107 0.762975 0.271676
C22_2 C 0.4158(4) 0.7709(4) 0.2193(3)
C23_2 C 0.4158(4) 0.7650(4) 0.1723(3)
H11_2 H 0.380967 0.770326 0.156367
C24_2 C 0.4677(4) 0.7514(4) 0.1509(3)
C25_2 C 0.5194(4) 0.7427(4) 0.1733(3)
H12_2 H 0.554064 0.733296 0.158126
O9_2 O 0.6229(3) 0.7276(3) 0.22379(18)
O10_2 O 0.5763(3) 0.7470(4) 0.28415(19)
H13_2 H 0.609628 0.740272 0.293800
C26_2 C 0.3586(4) 0.7855(5) 0.2433(3)
O11_2 O 0.3129(3) 0.7874(3) 0.21947(19)
O12_2 O 0.3598(3) 0.7927(5) 0.2823(2)
O19_2 O 0.7494(3) 0.7766(3) 0.04788(19)
Zn6_2 Zn 0.69817(4) 0.73560(4) 0.25280(3)
Zn7_2 Zn 0.23560(4) 0.80183(4) 0.24720(3)
H1_2 H 0.467107 0.737025 0.978324
C10_2 C 0.7149(5) 0.8740(4) 0.9538(3)
C11_2 C 0.7323(4) 0.9074(4) 0.9130(3)
C12_2 C 0.750000 0.8795(5) 0.875000
H4_2 H 0.750000 0.838270 0.875001
C13_2 C 0.7343(5) 0.9686(4) 0.9125(3)
H5_2 H 0.724836 0.989012 0.938248
O2_2 O 0.5763(3) 0.7530(4) 0.96585(19)
H8_2 H 0.609628 0.759728 0.956200
O3_2 O 0.7119(3) 0.8191(3) 0.94877(18)
O4_2 O 0.7056(3) 0.8991(3) 0.9876(2)
O8_2 O 0.3598(3) 0.7073(5) 0.9677(2)
Zn1_2 Zn 0.69817(4) 0.76440(4) 0.99720(3)
C27_2 C 0.7851(5) 0.8740(4) 0.7962(3)
C28_2 C 0.7677(4) 0.9074(4) 0.8370(3)
C29_2 C 0.7657(5) 0.9686(4) 0.8375(3)
H14_2 H 0.775164 0.989012 0.811752
O13_2 O 0.7881(3) 0.8191(3) 0.80123(18)
O14_2 O 0.7944(3) 0.8991(3) 0.7624(2)
O21_2 O 0.7126(3) 0.6871(3) 0.96947(19)
Zn4_2 Zn 0.80183(4) 0.76440(4) 0.75280(3)
H1_3 H 0.262975 0.467107 0.021676
C10_3 C 0.1260(4) 0.7149(5) 0.0462(3)
C11_3 C 0.0926(4) 0.7323(4) 0.0870(3)
C12_3 C 0.1205(5) 0.750000 0.125000
H4_3 H 0.161730 0.750000 0.124999
C13_3 C 0.0314(4) 0.7343(5) 0.0875(3)
H5_3 H 0.010988 0.724836 0.061752
O2_3 O 0.2470(4) 0.5763(3) 0.03415(19)
H8_3 H 0.240272 0.609628 0.043800
O4_3 O 0.1009(3) 0.7056(3) 0.0124(2)
O8_3 O 0.2927(5) 0.3598(3) 0.0323(2)
C27_3 C 0.1260(4) 0.7851(5) 0.2038(3)
C28_3 C 0.0926(4) 0.7677(4) 0.1630(3)
C29_3 C 0.0314(4) 0.7657(5) 0.1625(3)
H14_3 H 0.010988 0.775164 0.188248
O13_3 O 0.1809(3) 0.7881(3) 0.19877(18)
O14_3 O 0.1009(3) 0.7944(3) 0.2376(2)
C1_3 C 0.2394(4) 0.5760(4) 0.9934(3)
C2_3 C 0.2480(4) 0.5199(4) 0.9694(3)
C3_3 C 0.2610(4) 0.4671(4) 0.9910(3)
C4_3 C 0.2709(4) 0.4158(4) 0.9693(3)
C5_3 C 0.2650(4) 0.4158(4) 0.9223(3)
H2_3 H 0.270326 0.380967 0.906367
C6_3 C 0.2514(4) 0.4677(4) 0.9009(3)
C7_3 C 0.2427(4) 0.5194(4) 0.9233(3)
H3_3 H 0.233296 0.554064 0.908126
C9_3 C 0.2855(5) 0.3586(4) 0.9933(3)
C19_3 C 0.2606(4) 0.5760(4) 0.7566(3)
C20_3 C 0.2520(4) 0.5199(4) 0.7806(3)
C21_3 C 0.2390(4) 0.4671(4) 0.7590(3)
H10_3 H 0.237025 0.467107 0.728324
C22_3 C 0.2291(4) 0.4158(4) 0.7807(3)
C23_3 C 0.2350(4) 0.4158(4) 0.8277(3)
H11_3 H 0.229674 0.380967 0.843633
C24_3 C 0.2486(4) 0.4677(4) 0.8491(3)
C25_3 C 0.2573(4) 0.5194(4) 0.8267(3)
H12_3 H 0.266704 0.554064 0.841874
O9_3 O 0.2724(3) 0.6229(3) 0.77621(18)
O10_3 O 0.2530(4) 0.5763(3) 0.71585(19)
H13_3 H 0.259728 0.609628 0.706200
C26_3 C 0.2145(5) 0.3586(4) 0.7567(3)
O11_3 O 0.2126(3) 0.3129(3) 0.78053(19)
O12_3 O 0.2073(5) 0.3598(3) 0.7177(2)
C8_3 C 0.8049(5) 0.7670(5) 0.0436(3)
C14_3 C 0.9989(5) 0.750000 0.125000
C15_3 C 0.9314(5) 0.750000 0.125000
C16_3 C 0.8996(4) 0.7600(5) 0.0862(3)
H6_3 H 0.919852 0.767706 0.060080
C17_3 C 0.8381(4) 0.7585(5) 0.0861(3)
C18_3 C 0.8101(5) 0.750000 0.125000
H7_3 H 0.768858 0.750002 0.125001
O5_3 O 0.8332(3) 0.7631(5) 0.0070(2)
C30_3 C 0.8996(4) 0.7400(5) 0.1638(3)
H15_3 H 0.919852 0.732294 0.189920
C31_3 C 0.8381(4) 0.7415(5) 0.1639(3)
C32_3 C 0.8049(5) 0.7330(5) 0.2064(3)
O15_3 O 0.8332(3) 0.7369(5) 0.2430(2)
H16_3 H 0.814280 0.757591 0.260303
O16_3 O 0.7494(3) 0.7234(3) 0.20212(19)
H9_3 H 0.814280 0.742409 0.989697
C8_4 C 0.1951(5) 0.2330(5) 0.0436(3)
C14_4 C 0.0011(5) 0.250000 0.125000
C15_4 C 0.0686(5) 0.250000 0.125000
C16_4 C 0.1004(4) 0.2400(5) 0.0862(3)
H6_4 H 0.080148 0.232294 0.060080
C17_4 C 0.1619(4) 0.2415(5) 0.0861(3)
C18_4 C 0.1899(5) 0.250000 0.125000
H7_4 H 0.231142 0.249998 0.125001
O5_4 O 0.1668(3) 0.2369(5) 0.0070(2)
C30_4 C 0.1004(4) 0.2600(5) 0.1638(3)
H15_4 H 0.080148 0.267706 0.189920
C31_4 C 0.1619(4) 0.2585(5) 0.1639(3)
C32_4 C 0.1951(5) 0.2670(5) 0.2064(3)
O15_4 O 0.1668(3) 0.2631(5) 0.2430(2)
H16_4 H 0.185720 0.242409 0.260303
O16_4 O 0.2506(3) 0.2766(3) 0.20212(19)
H9_4 H 0.185720 0.257591 0.989697
H1_4 H 0.737025 0.532893 0.021676
C10_4 C 0.8740(4) 0.2851(5) 0.0462(3)
C11_4 C 0.9074(4) 0.2677(4) 0.0870(3)
C12_4 C 0.8795(5) 0.250000 0.125000
H4_4 H 0.838270 0.250000 0.124999
C13_4 C 0.9686(4) 0.2657(5) 0.0875(3)
H5_4 H 0.989012 0.275164 0.061752
O2_4 O 0.7530(4) 0.4237(3) 0.03415(19)
H8_4 H 0.759728 0.390372 0.043800
O4_4 O 0.8991(3) 0.2944(3) 0.0124(2)
O8_4 O 0.7073(5) 0.6402(3) 0.0323(2)
C27_4 C 0.8740(4) 0.2149(5) 0.2038(3)
C28_4 C 0.9074(4) 0.2323(4) 0.1630(3)
C29_4 C 0.9686(4) 0.2343(5) 0.1625(3)
H14_4 H 0.989012 0.224836 0.188248
O13_4 O 0.8191(3) 0.2119(3) 0.19877(18)
O14_4 O 0.8991(3) 0.2056(3) 0.2376(2)
C1_4 C 0.7606(4) 0.4240(4) 0.9934(3)
C2_4 C 0.7520(4) 0.4801(4) 0.9694(3)
C3_4 C 0.7390(4) 0.5329(4) 0.9910(3)
C4_4 C 0.7291(4) 0.5842(4) 0.9693(3)
C5_4 C 0.7350(4) 0.5842(4) 0.9223(3)
H2_4 H 0.729674 0.619033 0.906367
C6_4 C 0.7486(4) 0.5323(4) 0.9009(3)
C7_4 C 0.7573(4) 0.4806(4) 0.9233(3)
H3_4 H 0.766704 0.445936 0.908126
C9_4 C 0.7145(5) 0.6414(4) 0.9933(3)
C19_4 C 0.7394(4) 0.4240(4) 0.7566(3)
C20_4 C 0.7480(4) 0.4801(4) 0.7806(3)
C21_4 C 0.7610(4) 0.5329(4) 0.7590(3)
H10_4 H 0.762975 0.532893 0.728324
C22_4 C 0.7709(4) 0.5842(4) 0.7807(3)
C23_4 C 0.7650(4) 0.5842(4) 0.8277(3)
H11_4 H 0.770326 0.619033 0.843633
C24_4 C 0.7514(4) 0.5323(4) 0.8491(3)
C25_4 C 0.7427(4) 0.4806(4) 0.8267(3)
H12_4 H 0.733296 0.445936 0.841874
O9_4 O 0.7276(3) 0.3771(3) 0.77621(18)
O10_4 O 0.7470(4) 0.4237(3) 0.71585(19)
H13_4 H 0.740272 0.390372 0.706200
C26_4 C 0.7855(5) 0.6414(4) 0.7567(3)
O11_4 O 0.7874(3) 0.6871(3) 0.78053(19)
O12_4 O 0.7927(5) 0.6402(3) 0.7177(2)
C1_5 C 0.0760(4) 0.2394(4) 0.7434(3)
C2_5 C 0.0199(4) 0.2480(4) 0.7194(3)
C7_5 C 0.0194(4) 0.2427(4) 0.6733(3)
H3_5 H 0.054064 0.233296 0.658126
O1_3 O 0.1229(3) 0.2276(3) 0.72379(18)
O2_5 O 0.0763(3) 0.2470(4) 0.78415(19)
H8_5 H 0.109628 0.240272 0.793800
C19_5 C 0.0760(4) 0.2606(4) 0.5066(3)
C20_5 C 0.0199(4) 0.2520(4) 0.5306(3)
C25_5 C 0.0194(4) 0.2573(4) 0.5767(3)
H12_5 H 0.054064 0.266704 0.591874
O9_5 O 0.1229(3) 0.2724(3) 0.52621(18)
O10_5 O 0.0763(3) 0.2530(4) 0.46585(19)
H13_5 H 0.109628 0.259728 0.456200
O19_3 O 0.2494(3) 0.2234(3) 0.70212(19)
Zn6_3 Zn 0.19817(4) 0.26440(4) 0.49720(3)
O18_3 O 0.3191(3) 0.7119(3) 0.69877(18)
O20_2 O 0.1871(3) 0.7126(3) 0.71947(19)
C3_5 C 0.9671(4) 0.2610(4) 0.7410(3)
H1_5 H 0.967107 0.262975 0.771676
C4_5 C 0.9158(4) 0.2709(4) 0.7193(3)
C5_5 C 0.9158(4) 0.2650(4) 0.6723(3)
H2_5 H 0.880967 0.270326 0.656367
C6_5 C 0.9677(4) 0.2514(4) 0.6509(3)
C9_5 C 0.8586(4) 0.2855(5) 0.7433(3)
O7_2 O 0.8129(3) 0.2874(3) 0.71947(19)
O8_5 O 0.8598(3) 0.2927(5) 0.7823(2)
C21_5 C 0.9671(4) 0.2390(4) 0.5090(3)
H10_5 H 0.967107 0.237025 0.478324
C22_5 C 0.9158(4) 0.2291(4) 0.5307(3)
C23_5 C 0.9158(4) 0.2350(4) 0.5777(3)
H11_5 H 0.880967 0.229674 0.593633
C24_5 C 0.9677(4) 0.2486(4) 0.5991(3)
C26_5 C 0.8586(4) 0.2145(5) 0.5067(3)
O11_5 O 0.8129(3) 0.2126(3) 0.53053(19)
O12_5 O 0.8598(3) 0.2073(5) 0.4677(2)
Zn7_3 Zn 0.73560(4) 0.19817(4) 0.50280(3)
C3_6 C 0.0329(4) 0.7390(4) 0.7410(3)
H1_6 H 0.032893 0.737025 0.771676
C4_6 C 0.0842(4) 0.7291(4) 0.7193(3)
C5_6 C 0.0842(4) 0.7350(4) 0.6723(3)
H2_6 H 0.119033 0.729674 0.656367
C6_6 C 0.0323(4) 0.7486(4) 0.6509(3)
C9_6 C 0.1414(4) 0.7145(5) 0.7433(3)
O8_6 O 0.1402(3) 0.7073(5) 0.7823(2)
C21_6 C 0.0329(4) 0.7610(4) 0.5090(3)
H10_6 H 0.032893 0.762975 0.478324
C22_6 C 0.0842(4) 0.7709(4) 0.5307(3)
C23_6 C 0.0842(4) 0.7650(4) 0.5777(3)
H11_6 H 0.119033 0.770326 0.593633
C24_6 C 0.0323(4) 0.7514(4) 0.5991(3)
C26_6 C 0.1414(4) 0.7855(5) 0.5067(3)
O11_6 O 0.1871(3) 0.7874(3) 0.53053(19)
O12_6 O 0.1402(3) 0.7927(5) 0.4677(2)
Zn7_4 Zn 0.26440(4) 0.80183(4) 0.50280(3)
O18_4 O 0.6809(3) 0.2881(3) 0.69877(18)
C1_6 C 0.9240(4) 0.7606(4) 0.7434(3)
C2_6 C 0.9801(4) 0.7520(4) 0.7194(3)
C7_6 C 0.9806(4) 0.7573(4) 0.6733(3)
H3_6 H 0.945936 0.766704 0.658126
O1_4 O 0.8771(3) 0.7724(3) 0.72379(18)
O2_6 O 0.9237(3) 0.7530(4) 0.78415(19)
H8_6 H 0.890372 0.759728 0.793800
C19_6 C 0.9240(4) 0.7394(4) 0.5066(3)
C20_6 C 0.9801(4) 0.7480(4) 0.5306(3)
C25_6 C 0.9806(4) 0.7427(4) 0.5767(3)
H12_6 H 0.945936 0.733296 0.591874
O9_6 O 0.8771(3) 0.7276(3) 0.52621(18)
O10_6 O 0.9237(3) 0.7470(4) 0.46585(19)
H13_6 H 0.890372 0.740272 0.456200
O19_4 O 0.7506(3) 0.7766(3) 0.70212(19)
Zn6_4 Zn 0.80183(4) 0.73560(4) 0.49720(3)
C8_5 C 0.6951(5) 0.7670(5) 0.7064(3)
C10_5 C 0.3740(4) 0.7149(5) 0.7038(3)
C11_5 C 0.4074(4) 0.7323(4) 0.6630(3)
C12_5 C 0.3795(5) 0.750000 0.625000
H4_5 H 0.338270 0.750000 0.625001
C13_5 C 0.4686(4) 0.7343(5) 0.6625(3)
H5_5 H 0.489012 0.724836 0.688248
C14_5 C 0.5011(5) 0.750000 0.625000
C15_5 C 0.5686(5) 0.750000 0.625000
C16_5 C 0.6004(4) 0.7600(5) 0.6638(3)
H6_5 H 0.580148 0.767706 0.689920
C17_5 C 0.6619(4) 0.7585(5) 0.6639(3)
C18_5 C 0.6899(5) 0.750000 0.625000
H7_5 H 0.731142 0.750002 0.624999
O4_5 O 0.3991(3) 0.7056(3) 0.7376(2)
O5_5 O 0.6668(3) 0.7631(5) 0.7430(2)
H9_5 H 0.685720 0.742409 0.760303
C27_5 C 0.3740(4) 0.7851(5) 0.5462(3)
C28_5 C 0.4074(4) 0.7677(4) 0.5870(3)
C29_5 C 0.4686(4) 0.7657(5) 0.5875(3)
H14_5 H 0.489012 0.775164 0.561752
C30_5 C 0.6004(4) 0.7400(5) 0.5862(3)
H15_5 H 0.580148 0.732294 0.560080
C31_5 C 0.6619(4) 0.7415(5) 0.5861(3)
O13_5 O 0.3191(3) 0.7881(3) 0.55123(18)
O14_5 O 0.3991(3) 0.7944(3) 0.5124(2)
C32_5 C 0.6951(5) 0.7330(5) 0.5436(3)
O15_5 O 0.6668(3) 0.7369(5) 0.5070(2)
H16_5 H 0.685720 0.757591 0.489697
O16_5 O 0.7506(3) 0.7234(3) 0.54788(19)
C8_6 C 0.3049(5) 0.2330(5) 0.7064(3)
C10_6 C 0.6260(4) 0.2851(5) 0.7038(3)
C11_6 C 0.5926(4) 0.2677(4) 0.6630(3)
C12_6 C 0.6205(5) 0.250000 0.625000
H4_6 H 0.661730 0.250000 0.625001
C13_6 C 0.5314(4) 0.2657(5) 0.6625(3)
H5_6 H 0.510988 0.275164 0.688248
C14_6 C 0.4989(5) 0.250000 0.625000
C15_6 C 0.4314(5) 0.250000 0.625000
C16_6 C 0.3996(4) 0.2400(5) 0.6638(3)
H6_6 H 0.419852 0.232294 0.689920
C17_6 C 0.3381(4) 0.2415(5) 0.6639(3)
C18_6 C 0.3101(5) 0.250000 0.625000
H7_6 H 0.268858 0.249998 0.624999
O4_6 O 0.6009(3) 0.2944(3) 0.7376(2)
O5_6 O 0.3332(3) 0.2369(5) 0.7430(2)
H9_6 H 0.314280 0.257591 0.760303
C27_6 C 0.6260(4) 0.2149(5) 0.5462(3)
C28_6 C 0.5926(4) 0.2323(4) 0.5870(3)
C29_6 C 0.5314(4) 0.2343(5) 0.5875(3)
H14_6 H 0.510988 0.224836 0.561752
C30_6 C 0.3996(4) 0.2600(5) 0.5862(3)
H15_6 H 0.419852 0.267706 0.560080
C31_6 C 0.3381(4) 0.2585(5) 0.5861(3)
O13_6 O 0.6809(3) 0.2119(3) 0.55123(18)
O14_6 O 0.6009(3) 0.2056(3) 0.5124(2)
C32_6 C 0.3049(5) 0.2670(5) 0.5436(3)
O15_6 O 0.3332(3) 0.2631(5) 0.5070(2)
H16_6 H 0.314280 0.242409 0.489697
O16_6 O 0.2494(3) 0.2766(3) 0.54788(19)
C8_7 C 0.7330(5) 0.3049(5) 0.4564(3)
C10_7 C 0.7851(5) 0.6260(4) 0.4538(3)
C11_7 C 0.7677(4) 0.5926(4) 0.4130(3)
C12_7 C 0.750000 0.6205(5) 0.375000
H4_7 H 0.750000 0.661730 0.375001
C13_7 C 0.7657(5) 0.5314(4) 0.4125(3)
H5_7 H 0.775164 0.510988 0.438248
C14_7 C 0.750000 0.4989(5) 0.375000
C15_7 C 0.750000 0.4314(5) 0.375000
C16_7 C 0.7400(5) 0.3996(4) 0.4138(3)
H6_7 H 0.732294 0.419852 0.439920
C17_7 C 0.7415(5) 0.3381(4) 0.4139(3)
C18_7 C 0.750000 0.3101(5) 0.375000
H7_7 H 0.749998 0.268858 0.374999
O3_3 O 0.7881(3) 0.6809(3) 0.44877(18)
O4_7 O 0.7944(3) 0.6009(3) 0.4876(2)
O5_7 O 0.7369(5) 0.3332(3) 0.4930(2)
H9_7 H 0.757591 0.314280 0.510303
O6_3 O 0.7234(3) 0.2494(3) 0.45212(19)
C27_7 C 0.7149(5) 0.6260(4) 0.2962(3)
C28_7 C 0.7323(4) 0.5926(4) 0.3370(3)
C29_7 C 0.7343(5) 0.5314(4) 0.3375(3)
H14_7 H 0.724836 0.510988 0.311752
C30_7 C 0.7600(5) 0.3996(4) 0.3362(3)
H15_7 H 0.767706 0.419852 0.310080
C31_7 C 0.7585(5) 0.3381(4) 0.3361(3)
O13_7 O 0.7119(3) 0.6809(3) 0.30123(18)
O14_7 O 0.7056(3) 0.6009(3) 0.2624(2)
C32_7 C 0.7670(5) 0.3049(5) 0.2936(3)
O15_7 O 0.7631(5) 0.3332(3) 0.2570(2)
H16_7 H 0.742409 0.314280 0.239697
O16_7 O 0.7766(3) 0.2494(3) 0.29788(19)
O17_3 O 0.7276(3) 0.1229(3) 0.47379(18)
O21_3 O 0.7874(3) 0.8129(3) 0.46947(19)
C8_8 C 0.2670(5) 0.6951(5) 0.4564(3)
C10_8 C 0.2149(5) 0.3740(4) 0.4538(3)
C11_8 C 0.2323(4) 0.4074(4) 0.4130(3)
C12_8 C 0.250000 0.3795(5) 0.375000
H4_8 H 0.250000 0.338270 0.375001
C13_8 C 0.2343(5) 0.4686(4) 0.4125(3)
H5_8 H 0.224836 0.489012 0.438248
C14_8 C 0.250000 0.5011(5) 0.375000
C15_8 C 0.250000 0.5686(5) 0.375000
C16_8 C 0.2600(5) 0.6004(4) 0.4138(3)
H6_8 H 0.267706 0.580148 0.439920
C17_8 C 0.2585(5) 0.6619(4) 0.4139(3)
C18_8 C 0.250000 0.6899(5) 0.375000
H7_8 H 0.250002 0.731142 0.374999
O3_4 O 0.2119(3) 0.3191(3) 0.44877(18)
O4_8 O 0.2056(3) 0.3991(3) 0.4876(2)
O5_8 O 0.2631(5) 0.6668(3) 0.4930(2)
H9_8 H 0.242409 0.685720 0.510303
O6_4 O 0.2766(3) 0.7506(3) 0.45212(19)
C27_8 C 0.2851(5) 0.3740(4) 0.2962(3)
C28_8 C 0.2677(4) 0.4074(4) 0.3370(3)
C29_8 C 0.2657(5) 0.4686(4) 0.3375(3)
H14_8 H 0.275164 0.489012 0.311752
C30_8 C 0.2400(5) 0.6004(4) 0.3362(3)
H15_8 H 0.232294 0.580148 0.310080
C31_8 C 0.2415(5) 0.6619(4) 0.3361(3)
O13_8 O 0.2881(3) 0.3191(3) 0.30123(18)
O14_8 O 0.2944(3) 0.3991(3) 0.2624(2)
C32_8 C 0.2330(5) 0.6951(5) 0.2936(3)
O15_8 O 0.2369(5) 0.6668(3) 0.2570(2)
H16_8 H 0.257591 0.685720 0.239697
O16_8 O 0.2234(3) 0.7506(3) 0.29788(19)
O17_4 O 0.2724(3) 0.8771(3) 0.47379(18)
O21_4 O 0.2126(3) 0.1871(3) 0.46947(19)
C1_7 C 0.7394(4) 0.0760(4) 0.4934(3)
C2_7 C 0.7480(4) 0.0199(4) 0.4694(3)
C7_7 C 0.7427(4) 0.0194(4) 0.4233(3)
H3_7 H 0.733296 0.054064 0.408126
O2_7 O 0.7470(4) 0.0763(3) 0.53415(19)
H8_7 H 0.740272 0.109628 0.543800
C19_7 C 0.7606(4) 0.0760(4) 0.2566(3)
C20_7 C 0.7520(4) 0.0199(4) 0.2806(3)
C25_7 C 0.7573(4) 0.0194(4) 0.3267(3)
H12_7 H 0.766704 0.054064 0.341874
O9_7 O 0.7724(3) 0.1229(3) 0.27621(18)
O10_7 O 0.7530(4) 0.0763(3) 0.21585(19)
H13_7 H 0.759728 0.109628 0.206200
C3_7 C 0.7610(4) 0.9671(4) 0.4910(3)
H1_7 H 0.762975 0.967107 0.521676
C4_7 C 0.7709(4) 0.9158(4) 0.4693(3)
C5_7 C 0.7650(4) 0.9158(4) 0.4223(3)
H2_7 H 0.770326 0.880967 0.406367
C6_7 C 0.7514(4) 0.9677(4) 0.4009(3)
C9_7 C 0.7855(5) 0.8586(4) 0.4933(3)
O8_7 O 0.7927(5) 0.8598(3) 0.5323(2)
C21_7 C 0.7390(4) 0.9671(4) 0.2590(3)
H10_7 H 0.737025 0.967107 0.228324
C22_7 C 0.7291(4) 0.9158(4) 0.2807(3)
C23_7 C 0.7350(4) 0.9158(4) 0.3277(3)
H11_7 H 0.729674 0.880967 0.343633
C24_7 C 0.7486(4) 0.9677(4) 0.3491(3)
C26_7 C 0.7145(5) 0.8586(4) 0.2567(3)
O11_7 O 0.7126(3) 0.8129(3) 0.28053(19)
O12_7 O 0.7073(5) 0.8598(3) 0.2177(2)
C3_8 C 0.2390(4) 0.0329(4) 0.4910(3)
H1_8 H 0.237025 0.032893 0.521676
C4_8 C 0.2291(4) 0.0842(4) 0.4693(3)
C5_8 C 0.2350(4) 0.0842(4) 0.4223(3)
H2_8 H 0.229674 0.119033 0.406367
C6_8 C 0.2486(4) 0.0323(4) 0.4009(3)
C9_8 C 0.2145(5) 0.1414(4) 0.4933(3)
O8_8 O 0.2073(5) 0.1402(3) 0.5323(2)
C21_8 C 0.2610(4) 0.0329(4) 0.2590(3)
H10_8 H 0.262975 0.032893 0.228324
C22_8 C 0.2709(4) 0.0842(4) 0.2807(3)
C23_8 C 0.2650(4) 0.0842(4) 0.3277(3)
H11_8 H 0.270326 0.119033 0.343633
C24_8 C 0.2514(4) 0.0323(4) 0.3491(3)
C26_8 C 0.2855(5) 0.1414(4) 0.2567(3)
O11_8 O 0.2874(3) 0.1871(3) 0.28053(19)
O12_8 O 0.2927(5) 0.1402(3) 0.2177(2)
C1_8 C 0.2606(4) 0.9240(4) 0.4934(3)
C2_8 C 0.2520(4) 0.9801(4) 0.4694(3)
C7_8 C 0.2573(4) 0.9806(4) 0.4233(3)
H3_8 H 0.266704 0.945936 0.408126
O2_8 O 0.2530(4) 0.9237(3) 0.53415(19)
H8_8 H 0.259728 0.890372 0.543800
C19_8 C 0.2394(4) 0.9240(4) 0.2566(3)
C20_8 C 0.2480(4) 0.9801(4) 0.2806(3)
C25_8 C 0.2427(4) 0.9806(4) 0.3267(3)
H12_8 H 0.233296 0.945936 0.341874
O9_8 O 0.2276(3) 0.8771(3) 0.27621(18)
O10_8 O 0.2470(4) 0.9237(3) 0.21585(19)
H13_8 H 0.240272 0.890372 0.206200
loop_
_geom_bond_atom_site_label_1
_geom_bond_atom_site_label_2
_geom_bond_site_symmetry_1
_geom_bond_site_symmetry_2
C1 C2 1_555 1_555
C2 C3 1_555 1_555
C4 C3 1_555 1_555
C5 C4 1_555 1_555
H2 C5 1_555 1_555
C6 C5 1_555 1_555
C7 C2 1_555 1_555
H3 C7 1_555 1_555
C9 C4 1_555 1_555
O1 C1 1_555 1_555
O7 C9 1_555 1_555
C19 C20 1_555 1_555
C20 C21 1_555 1_555
C21 H10 1_555 1_555
C22 C21 1_555 1_555
C23 C22 1_555 1_555
H11 C23 1_555 1_555
C24 C6 1_555 1_555
C25 C20 1_555 1_555
H12 C25 1_555 1_555
O9 C19 1_555 1_555
O10 C19 1_555 1_555
H13 O10 1_555 1_555
C26 C22 1_555 1_555
O11 C26 1_555 1_555
O12 C26 1_555 1_555
Zn3 O7 1_555 1_555
Zn6 O9 1_555 1_555
Zn7 O11 1_555 1_555
C6 C7 1_555 1_555
C23 C24 1_555 1_555
C24 C25 1_555 1_555
C10 C11 1_555 1_555
C11 C12 1_555 1_555
C12 H4 1_555 1_555
C13 C11 1_555 1_555
H5 C13 1_555 1_555
H8 O2 1_555 1_555
O3 C10 1_555 1_555
O4 C10 1_555 1_555
C27 C28 1_555 1_555
C28 C12 1_555 1_555
H14 C29 1_555 1_555
O13 C27 1_555 1_555
O14 C27 1_555 1_555
O21 Zn1 1_555 1_555
Zn4 O13 1_555 1_555
O3 Zn1 1_555 1_555
C28 C29 1_555 1_555
O18 Zn2 1_555 1_555
O20 Zn2 1_555 1_555
C8 C17 1_555 1_555
C15 C14 1_555 1_555
C16 C15 1_555 1_555
H6 C16 1_555 1_555
C17 C16 1_555 1_555
C18 C17 1_555 1_555
H7 C18 1_555 1_555
O5 C8 1_555 1_555
O6 C8 1_555 1_555
C30 C15 1_555 1_555
H15 C30 1_555 1_555
C31 C18 1_555 1_555
C32 C31 1_555 1_555
O15 C32 1_555 1_555
H16 O15 1_555 1_555
O16 C32 1_555 1_555
Zn5 O16 1_555 1_555
C30 C31 1_555 1_555
O18_2 Zn3 1_555 1_555
C8_2 C17_2 1_555 1_555
C15_2 C14_2 1_555 1_555
C16_2 C15_2 1_555 1_555
H6_2 C16_2 1_555 1_555
C17_2 C16_2 1_555 1_555
C18_2 C17_2 1_555 1_555
H7_2 C18_2 1_555 1_555
O5_2 C8_2 1_555 1_555
O6_2 C8_2 1_555 1_555
C30_2 C15_2 1_555 1_555
H15_2 C30_2 1_555 1_555
C31_2 C18_2 1_555 1_555
C32_2 C31_2 1_555 1_555
O15_2 C32_2 1_555 1_555
H16_2 O15_2 1_555 1_555
O16_2 C32_2 1_555 1_555
Zn5_2 O16_2 1_555 1_555
C30_2 C31_2 1_555 1_555
C1_2 C2_2 1_555 1_555
C2_2 C3_2 1_555 1_555
C4_2 C3_2 1_555 1_555
C5_2 C4_2 1_555 1_555
H2_2 C5_2 1_555 1_555
C6_2 C5_2 1_555 1_555
C7_2 C2_2 1_555 1_555
H3_2 C7_2 1_555 1_555
C9_2 C4_2 1_555 1_555
O1_2 C1_2 1_555 1_555
O20 C9_2 1_555 1_555
C19_2 C20_2 1_555 1_555
C20_2 C21_2 1_555 1_555
C21_2 H10_2 1_555 1_555
C22_2 C21_2 1_555 1_555
C23_2 C22_2 1_555 1_555
H11_2 C23_2 1_555 1_555
C24_2 C6_2 1_555 1_555
C25_2 C20_2 1_555 1_555
H12_2 C25_2 1_555 1_555
O9_2 C19_2 1_555 1_555
O10_2 C19_2 1_555 1_555
H13_2 O10_2 1_555 1_555
C26_2 C22_2 1_555 1_555
O11_2 C26_2 1_555 1_555
O12_2 C26_2 1_555 1_555
Zn6_2 O9_2 1_555 1_555
Zn7_2 O11_2 1_555 1_555
C6_2 C7_2 1_555 1_555
C23_2 C24_2 1_555 1_555
C24_2 C25_2 1_555 1_555
C10_2 C11_2 1_555 1_555
C11_2 C12_2 1_555 1_555
C12_2 H4_2 1_555 1_555
C13_2 C11_2 1_555 1_555
H5_2 C13_2 1_555 1_555
H8_2 O2_2 1_555 1_555
O3_2 C10_2 1_555 1_555
O4_2 C10_2 1_555 1_555
C27_2 C28_2 1_555 1_555
C28_2 C12_2 1_555 1_555
H14_2 C29_2 1_555 1_555
O13_2 C27_2 1_555 1_555
O14_2 C27_2 1_555 1_555
O21_2 Zn1_2 1_555 1_555
Zn4_2 O13_2 1_555 1_555
O3_2 Zn1_2 1_555 1_555
C28_2 C29_2 1_555 1_555
C10_3 C11_3 1_555 1_555
C11_3 C12_3 1_555 1_555
C12_3 H4_3 1_555 1_555
C13_3 C11_3 1_555 1_555
H5_3 C13_3 1_555 1_555
H8_3 O2_3 1_555 1_555
O18 C10_3 1_555 1_555
O4_3 C10_3 1_555 1_555
C27_3 C28_3 1_555 1_555
C28_3 C12_3 1_555 1_555
H14_3 C29_3 1_555 1_555
O13_3 C27_3 1_555 1_555
O14_3 C27_3 1_555 1_555
Zn7_2 O13_3 1_555 1_555
C28_3 C29_3 1_555 1_555
C1_3 C2_3 1_555 1_555
C2_3 C3_3 1_555 1_555
C4_3 C3_3 1_555 1_555
C5_3 C4_3 1_555 1_555
H2_3 C5_3 1_555 1_555
C6_3 C5_3 1_555 1_555
C7_3 C2_3 1_555 1_555
H3_3 C7_3 1_555 1_555
C9_3 C4_3 1_555 1_555
O17 C1_3 1_555 1_555
O21 C9_3 1_555 1_555
C19_3 C20_3 1_555 1_555
C20_3 C21_3 1_555 1_555
C21_3 H10_3 1_555 1_555
C22_3 C21_3 1_555 1_555
C23_3 C22_3 1_555 1_555
H11_3 C23_3 1_555 1_555
C24_3 C6_3 1_555 1_555
C25_3 C20_3 1_555 1_555
H12_3 C25_3 1_555 1_555
O9_3 C19_3 1_555 1_555
O10_3 C19_3 1_555 1_555
H13_3 O10_3 1_555 1_555
C26_3 C22_3 1_555 1_555
O11_3 C26_3 1_555 1_555
O12_3 C26_3 1_555 1_555
Zn5 O9_3 1_555 1_555
Zn4 O11_3 1_555 1_555
C6_3 C7_3 1_555 1_555
C23_3 C24_3 1_555 1_555
C24_3 C25_3 1_555 1_555
C8_3 C17_3 1_555 1_555
C15_3 C14_3 1_555 1_555
C16_3 C15_3 1_555 1_555
H6_3 C16_3 1_555 1_555
C17_3 C16_3 1_555 1_555
C18_3 C17_3 1_555 1_555
H7_3 C18_3 1_555 1_555
O5_3 C8_3 1_555 1_555
O19_2 C8_3 1_555 1_555
C30_3 C15_3 1_555 1_555
H15_3 C30_3 1_555 1_555
C31_3 C18_3 1_555 1_555
C32_3 C31_3 1_555 1_555
O15_3 C32_3 1_555 1_555
H16_3 O15_3 1_555 1_555
O16_3 C32_3 1_555 1_555
Zn6_2 O16_3 1_555 1_555
C30_3 C31_3 1_555 1_555
C8_4 C17_4 1_555 1_555
C15_4 C14_4 1_555 1_555
C16_4 C15_4 1_555 1_555
H6_4 C16_4 1_555 1_555
C17_4 C16_4 1_555 1_555
C18_4 C17_4 1_555 1_555
H7_4 C18_4 1_555 1_555
O5_4 C8_4 1_555 1_555
O19 C8_4 1_555 1_555
C30_4 C15_4 1_555 1_555
H15_4 C30_4 1_555 1_555
C31_4 C18_4 1_555 1_555
C32_4 C31_4 1_555 1_555
O15_4 C32_4 1_555 1_555
H16_4 O15_4 1_555 1_555
O16_4 C32_4 1_555 1_555
Zn6 O16_4 1_555 1_555
C30_4 C31_4 1_555 1_555
C10_4 C11_4 1_555 1_555
C11_4 C12_4 1_555 1_555
C12_4 H4_4 1_555 1_555
C13_4 C11_4 1_555 1_555
H5_4 C13_4 1_555 1_555
H8_4 O2_4 1_555 1_555
O18_2 C10_4 1_555 1_555
O4_4 C10_4 1_555 1_555
C27_4 C28_4 1_555 1_555
C28_4 C12_4 1_555 1_555
H14_4 C29_4 1_555 1_555
O13_4 C27_4 1_555 1_555
O14_4 C27_4 1_555 1_555
Zn7 O13_4 1_555 1_555
C28_4 C29_4 1_555 1_555
C1_4 C2_4 1_555 1_555
C2_4 C3_4 1_555 1_555
C4_4 C3_4 1_555 1_555
C5_4 C4_4 1_555 1_555
H2_4 C5_4 1_555 1_555
C6_4 C5_4 1_555 1_555
C7_4 C2_4 1_555 1_555
H3_4 C7_4 1_555 1_555
C9_4 C4_4 1_555 1_555
O17_2 C1_4 1_555 1_555
O21_2 C9_4 1_555 1_555
C19_4 C20_4 1_555 1_555
C20_4 C21_4 1_555 1_555
C21_4 H10_4 1_555 1_555
C22_4 C21_4 1_555 1_555
C23_4 C22_4 1_555 1_555
H11_4 C23_4 1_555 1_555
C24_4 C6_4 1_555 1_555
C25_4 C20_4 1_555 1_555
H12_4 C25_4 1_555 1_555
O9_4 C19_4 1_555 1_555
O10_4 C19_4 1_555 1_555
H13_4 O10_4 1_555 1_555
C26_4 C22_4 1_555 1_555
O11_4 C26_4 1_555 1_555
O12_4 C26_4 1_555 1_555
Zn5_2 O9_4 1_555 1_555
Zn4_2 O11_4 1_555 1_555
C6_4 C7_4 1_555 1_555
C23_4 C24_4 1_555 1_555
C24_4 C25_4 1_555 1_555
C1_5 C2_5 1_555 1_555
C7_5 C2_5 1_555 1_555
H3_5 C7_5 1_555 1_555
O1_3 C1_5 1_555 1_555
O2_5 C1_5 1_555 1_555
H8_5 O2_5 1_555 1_555
Zn4 O1_3 1_555 1_555
C19_5 C20_5 1_555 1_555
C25_5 C20_5 1_555 1_555
H12_5 C25_5 1_555 1_555
O9_5 C19_5 1_555 1_555
O10_5 C19_5 1_555 1_555
H13_5 O10_5 1_555 1_555
O19_3 Zn4 1_555 1_555
Zn6_3 O9_5 1_555 1_555
O18_3 Zn5 1_555 1_555
O20_2 Zn5 1_555 1_555
C3_5 H1_5 1_555 1_555
C4_5 C3_5 1_555 1_555
C5_5 C4_5 1_555 1_555
H2_5 C5_5 1_555 1_555
C6_5 C5_5 1_555 1_555
C9_5 C4_5 1_555 1_555
O7_2 C9_5 1_555 1_555
O8_5 C9_5 1_555 1_555
C21_5 H10_5 1_555 1_555
C22_5 C21_5 1_555 1_555
C23_5 C22_5 1_555 1_555
H11_5 C23_5 1_555 1_555
C24_5 C6_5 1_555 1_555
C26_5 C22_5 1_555 1_555
O11_5 C26_5 1_555 1_555
O12_5 C26_5 1_555 1_555
Zn5_2 O7_2 1_555 1_555
Zn7_3 O11_5 1_555 1_555
C23_5 C24_5 1_555 1_555
C3_6 H1_6 1_555 1_555
C4_6 C3_6 1_555 1_555
C5_6 C4_6 1_555 1_555
H2_6 C5_6 1_555 1_555
C6_6 C5_6 1_555 1_555
C9_6 C4_6 1_555 1_555
O20_2 C9_6 1_555 1_555
O8_6 C9_6 1_555 1_555
C21_6 H10_6 1_555 1_555
C22_6 C21_6 1_555 1_555
C23_6 C22_6 1_555 1_555
H11_6 C23_6 1_555 1_555
C24_6 C6_6 1_555 1_555
C26_6 C22_6 1_555 1_555
O11_6 C26_6 1_555 1_555
O12_6 C26_6 1_555 1_555
Zn7_4 O11_6 1_555 1_555
C23_6 C24_6 1_555 1_555
O18_4 Zn5_2 1_555 1_555
C1_6 C2_6 1_555 1_555
C7_6 C2_6 1_555 1_555
H3_6 C7_6 1_555 1_555
O1_4 C1_6 1_555 1_555
O2_6 C1_6 1_555 1_555
H8_6 O2_6 1_555 1_555
Zn4_2 O1_4 1_555 1_555
C19_6 C20_6 1_555 1_555
C25_6 C20_6 1_555 1_555
H12_6 C25_6 1_555 1_555
O9_6 C19_6 1_555 1_555
O10_6 C19_6 1_555 1_555
H13_6 O10_6 1_555 1_555
O19_4 Zn4_2 1_555 1_555
Zn6_4 O9_6 1_555 1_555
C8_5 C17_5 1_555 1_555
C10_5 C11_5 1_555 1_555
C11_5 C12_5 1_555 1_555
C12_5 H4_5 1_555 1_555
C13_5 C11_5 1_555 1_555
H5_5 C13_5 1_555 1_555
C14_5 C13_5 1_555 1_555
C15_5 C14_5 1_555 1_555
C16_5 C15_5 1_555 1_555
H6_5 C16_5 1_555 1_555
C17_5 C16_5 1_555 1_555
C18_5 C17_5 1_555 1_555
H7_5 C18_5 1_555 1_555
O18_3 C10_5 1_555 1_555
O4_5 C10_5 1_555 1_555
O5_5 C8_5 1_555 1_555
H9_5 O5_5 1_555 1_555
O19_4 C8_5 1_555 1_555
C27_5 C28_5 1_555 1_555
C28_5 C12_5 1_555 1_555
C29_5 C14_5 1_555 1_555
H14_5 C29_5 1_555 1_555
C30_5 C15_5 1_555 1_555
H15_5 C30_5 1_555 1_555
C31_5 C18_5 1_555 1_555
O13_5 C27_5 1_555 1_555
O14_5 C27_5 1_555 1_555
C32_5 C31_5 1_555 1_555
O15_5 C32_5 1_555 1_555
H16_5 O15_5 1_555 1_555
O16_5 C32_5 1_555 1_555
Zn7_4 O13_5 1_555 1_555
Zn6_4 O16_5 1_555 1_555
C28_5 C29_5 1_555 1_555
C30_5 C31_5 1_555 1_555
C8_6 C17_6 1_555 1_555
C10_6 C11_6 1_555 1_555
C11_6 C12_6 1_555 1_555
C12_6 H4_6 1_555 1_555
C13_6 C11_6 1_555 1_555
H5_6 C13_6 1_555 1_555
C14_6 C13_6 1_555 1_555
C15_6 C14_6 1_555 1_555
C16_6 C15_6 1_555 1_555
H6_6 C16_6 1_555 1_555
C17_6 C16_6 1_555 1_555
C18_6 C17_6 1_555 1_555
H7_6 C18_6 1_555 1_555
O18_4 C10_6 1_555 1_555
O4_6 C10_6 1_555 1_555
O5_6 C8_6 1_555 1_555
H9_6 O5_6 1_555 1_555
O19_3 C8_6 1_555 1_555
C27_6 C28_6 1_555 1_555
C28_6 C12_6 1_555 1_555
C29_6 C14_6 1_555 1_555
H14_6 C29_6 1_555 1_555
C30_6 C15_6 1_555 1_555
H15_6 C30_6 1_555 1_555
C31_6 C18_6 1_555 1_555
O13_6 C27_6 1_555 1_555
O14_6 C27_6 1_555 1_555
C32_6 C31_6 1_555 1_555
O15_6 C32_6 1_555 1_555
H16_6 O15_6 1_555 1_555
O16_6 C32_6 1_555 1_555
Zn7_3 O13_6 1_555 1_555
Zn6_3 O16_6 1_555 1_555
C28_6 C29_6 1_555 1_555
C30_6 C31_6 1_555 1_555
C8_7 C17_7 1_555 1_555
C10_7 C11_7 1_555 1_555
C11_7 C12_7 1_555 1_555
C12_7 H4_7 1_555 1_555
C13_7 C11_7 1_555 1_555
H5_7 C13_7 1_555 1_555
C14_7 C13_7 1_555 1_555
C15_7 C14_7 1_555 1_555
C16_7 C15_7 1_555 1_555
H6_7 C16_7 1_555 1_555
C17_7 C16_7 1_555 1_555
C18_7 C17_7 1_555 1_555
H7_7 C18_7 1_555 1_555
O3_3 C10_7 1_555 1_555
O4_7 C10_7 1_555 1_555
O5_7 C8_7 1_555 1_555
H9_7 O5_7 1_555 1_555
O6_3 C8_7 1_555 1_555
C27_7 C28_7 1_555 1_555
C28_7 C12_7 1_555 1_555
C29_7 C14_7 1_555 1_555
H14_7 C29_7 1_555 1_555
C30_7 C15_7 1_555 1_555
H15_7 C30_7 1_555 1_555
C31_7 C18_7 1_555 1_555
O13_7 C27_7 1_555 1_555
O14_7 C27_7 1_555 1_555
C32_7 C31_7 1_555 1_555
O15_7 C32_7 1_555 1_555
H16_7 O15_7 1_555 1_555
O16_7 C32_7 1_555 1_555
Zn7_3 O6_3 1_555 1_555
O17_3 Zn7_3 1_555 1_555
O21_3 Zn6_4 1_555 1_555
Zn6_2 O13_7 1_555 1_555
Zn7 O16_7 1_555 1_555
O3_3 Zn6_4 1_555 1_555
C28_7 C29_7 1_555 1_555
C30_7 C31_7 1_555 1_555
C8_8 C17_8 1_555 1_555
C10_8 C11_8 1_555 1_555
C11_8 C12_8 1_555 1_555
C12_8 H4_8 1_555 1_555
C13_8 C11_8 1_555 1_555
H5_8 C13_8 1_555 1_555
C14_8 C13_8 1_555 1_555
C15_8 C14_8 1_555 1_555
C16_8 C15_8 1_555 1_555
H6_8 C16_8 1_555 1_555
C17_8 C16_8 1_555 1_555
C18_8 C17_8 1_555 1_555
H7_8 C18_8 1_555 1_555
O3_4 C10_8 1_555 1_555
O4_8 C10_8 1_555 1_555
O5_8 C8_8 1_555 1_555
H9_8 O5_8 1_555 1_555
O6_4 C8_8 1_555 1_555
C27_8 C28_8 1_555 1_555
C28_8 C12_8 1_555 1_555
C29_8 C14_8 1_555 1_555
H14_8 C29_8 1_555 1_555
C30_8 C15_8 1_555 1_555
H15_8 C30_8 1_555 1_555
C31_8 C18_8 1_555 1_555
O13_8 C27_8 1_555 1_555
O14_8 C27_8 1_555 1_555
C32_8 C31_8 1_555 1_555
O15_8 C32_8 1_555 1_555
H16_8 O15_8 1_555 1_555
O16_8 C32_8 1_555 1_555
Zn7_4 O6_4 1_555 1_555
O17_4 Zn7_4 1_555 1_555
O21_4 Zn6_3 1_555 1_555
Zn6 O13_8 1_555 1_555
Zn7_2 O16_8 1_555 1_555
O3_4 Zn6_3 1_555 1_555
C28_8 C29_8 1_555 1_555
C30_8 C31_8 1_555 1_555
C1_7 C2_7 1_555 1_555
C7_7 C2_7 1_555 1_555
H3_7 C7_7 1_555 1_555
O17_3 C1_7 1_555 1_555
O2_7 C1_7 1_555 1_555
H8_7 O2_7 1_555 1_555
C19_7 C20_7 1_555 1_555
C25_7 C20_7 1_555 1_555
H12_7 C25_7 1_555 1_555
O9_7 C19_7 1_555 1_555
O10_7 C19_7 1_555 1_555
H13_7 O10_7 1_555 1_555
Zn7 O9_7 1_555 1_555
C3_7 H1_7 1_555 1_555
C4_7 C3_7 1_555 1_555
C5_7 C4_7 1_555 1_555
H2_7 C5_7 1_555 1_555
C6_7 C5_7 1_555 1_555
C9_7 C4_7 1_555 1_555
O21_3 C9_7 1_555 1_555
O8_7 C9_7 1_555 1_555
C21_7 H10_7 1_555 1_555
C22_7 C21_7 1_555 1_555
C23_7 C22_7 1_555 1_555
H11_7 C23_7 1_555 1_555
C24_7 C6_7 1_555 1_555
C26_7 C22_7 1_555 1_555
O11_7 C26_7 1_555 1_555
O12_7 C26_7 1_555 1_555
Zn6_2 O11_7 1_555 1_555
C23_7 C24_7 1_555 1_555
C3_8 H1_8 1_555 1_555
C4_8 C3_8 1_555 1_555
C5_8 C4_8 1_555 1_555
H2_8 C5_8 1_555 1_555
C6_8 C5_8 1_555 1_555
C9_8 C4_8 1_555 1_555
O21_4 C9_8 1_555 1_555
O8_8 C9_8 1_555 1_555
C21_8 H10_8 1_555 1_555
C22_8 C21_8 1_555 1_555
C23_8 C22_8 1_555 1_555
H11_8 C23_8 1_555 1_555
C24_8 C6_8 1_555 1_555
C26_8 C22_8 1_555 1_555
O11_8 C26_8 1_555 1_555
O12_8 C26_8 1_555 1_555
Zn6 O11_8 1_555 1_555
C23_8 C24_8 1_555 1_555
C1_8 C2_8 1_555 1_555
C7_8 C2_8 1_555 1_555
H3_8 C7_8 1_555 1_555
O17_4 C1_8 1_555 1_555
O2_8 C1_8 1_555 1_555
H8_8 O2_8 1_555 1_555
C19_8 C20_8 1_555 1_555
C25_8 C20_8 1_555 1_555
H12_8 C25_8 1_555 1_555
O9_8 C19_8 1_555 1_555
O10_8 C19_8 1_555 1_555
H13_8 O10_8 1_555 1_555
Zn7_2 O9_8 1_555 1_555

#END
