
###############################################################################
#
# This file contains modified crystal structure data generated from the
# MOF subset of the Cambridge Structural Database (CSD) v543 
# hosted by the Cambridge Crystallographic Data Centre (CCDC).
#
# This work is licensed under the Creative Commons
# Attribution-NonCommercial-ShareAlike 4.0 International License.
# To view a copy of this license, visit
# http://creativecommons.org/licenses/by-nc-sa/4.0/
# or send a letter to
# Creative Commons, PO Box 1866, Mountain View, CA 94042, USA.
#
# CIF created using the CSD Python API on 29 September 2022
# The structure has been converted into the P1 space group
# The structure has a 3D framework
# The original CSD entry UFOFIF is in the monoclinic crystal system
# The original CSD entry UFOFIF is in a Sohncke space group
# The framework has been calculated to contain at least 10.0% void space
# The void calculation uses a probe of radius 1.32A, grid spacing 0.4
# H atom positions have been added when not included in the experimental data
#
###############################################################################

data_UFOFIF
_chemical_formula_moiety         '(C24 H24 Mn5 N20 Nb2 O8)n'
_symmetry_cell_setting           triclinic
_symmetry_space_group_name_H-M   'P 1'
_symmetry_Int_Tables_number      1
_space_group_name_Hall           'P 1'
loop_
_symmetry_equiv_pos_site_id
_symmetry_equiv_pos_as_xyz
1 x,y,z
_cell_length_a                   7.3785(3)
_cell_length_b                   14.4288(7)
_cell_length_c                   11.7625(5)
_cell_angle_alpha                90
_cell_angle_beta                 98.9990(18)
_cell_angle_gamma                90
_cell_volume                     1236.86
loop_
_atom_site_label
_atom_site_type_symbol
_atom_site_fract_x
_atom_site_fract_y
_atom_site_fract_z
Mn7 Mn 0.02896(6) 0.97329(4) 0.02693(4)
N14 N 0.0545(3) 0.0764(2) 0.1588(2)
O4 O 0.0150(3) 0.08863(17) 0.8995(2)
Mn5 Mn 0.50053(7) -0.00002(4) 0.52418(4)
O3 O 0.0492(3) 0.85133(18) 0.1408(2)
N9 N 0.3380(3) 0.97237(19) 0.0257(2)
N10 N 0.7174(3) 0.97582(19) 0.0247(2)
C11 C 0.6458(4) 0.9865(2) 0.1225(2)
C12 C 0.4590(4) 0.9848(2) 0.1230(2)
H3 H 0.7264 0.9951 0.1930
H4 H 0.4140 0.9926 0.1938
H9 H 0.175395 0.825572 0.149262
H10 H 0.0214347 0.869884 0.21753
Nb1 Nb 0.05643(3) 0.74152(3) 0.66021(2)
Mn1 Mn 0.49947(7) 0.49998(4) 0.47582(4)
O1 O 0.6077(3) 0.40392(18) 0.6213(2)
O2 O 0.3867(3) 0.59406(19) 0.3316(2)
N1 N 0.4306(3) 0.7223(2) 0.8710(2)
N2 N 0.0444(4) 0.7862(2) 0.3739(2)
N3 N 0.3212(4) 0.5692(2) 0.5815(2)
N6 N 0.3231(3) 0.92695(19) 0.6288(2)
C1 C 0.3068(4) 0.7275(2) 0.7987(2)
C2 C 0.0517(4) 0.7678(2) 0.4691(2)
C3 C 0.2294(4) 0.6267(2) 0.6076(2)
C6 C 0.2331(4) 0.8644(2) 0.6419(2)
C7 C 0.0069(4) 0.8270(2) 0.8112(2)
C9 C 0.4097(4) 0.9624(2) 0.9289(2)
C10 C 0.5973(4) 0.9646(2) 0.9273(2)
H1 H 0.3290 0.9533 0.8585
H2 H 0.6418 0.9581 0.8561
Mn5_2 Mn 0.50053(7) 0.99998(4) 0.52418(4)
N11 N 0.7238(3) 0.6006(2) 0.5236(2)
N12 N 0.2828(4) 0.3984(2) 0.4194(2)
N13 N 0.6769(3) 0.42695(19) 0.3712(2)
H5 H 0.291522 0.634711 0.356363
H6 H 0.487161 0.632804 0.30993
H11 H 0.584409 0.338712 0.596202
H12 H 0.741734 0.413783 0.643634
H7 H 0.920902 0.0740727 0.83188
H8 H 0.981484 0.147047 0.935718
N5 N 0.7172(4) 0.8984(2) 0.5806(2)
N7 N 0.9895(3) 0.87461(19) 0.8870(2)
N8 N 0.9455(3) 0.5764(2) 0.8412(2)
C4 C 0.8338(4) 0.6508(2) 0.5680(2)
C5 C 0.8271(4) 0.8422(2) 0.6069(2)
C8 C 0.9796(4) 0.6346(2) 0.7818(2)
Mn6 Mn 0.97104(6) 0.47329(4) 0.97307(4)
N4 N 0.2762(3) 0.1006(2) 0.4764(2)
N7_2 N 0.0105(3) 0.37461(19) 0.1130(2)
C4_2 C 0.1662(4) 0.1508(2) 0.4320(2)
C5_2 C 0.1729(4) 0.3422(2) 0.3931(2)
C8_2 C 0.0204(4) 0.1346(2) 0.2182(2)
H7_2 H 0.0790982 0.574073 0.16812
H8_2 H 0.0185161 0.647047 0.0642825
N15 N 0.2826(3) 0.47582(19) 0.9753(2)
Nb1_2 Nb 0.94357(3) 0.24152(3) 0.33979(2)
O2_2 O 0.6133(3) 0.09406(19) 0.6684(2)
O4_2 O 0.9850(3) 0.58863(17) 0.1005(2)
N1_2 N 0.5694(3) 0.2223(2) 0.1290(2)
N2_2 N 0.9556(4) 0.2862(2) 0.6261(2)
N3_2 N 0.6788(4) 0.0692(2) 0.4185(2)
C1_2 C 0.6932(4) 0.2275(2) 0.2013(2)
C2_2 C 0.9483(4) 0.2678(2) 0.5309(2)
C3_2 C 0.7706(4) 0.1267(2) 0.3924(2)
C6_2 C 0.7669(4) 0.3644(2) 0.3581(2)
C7_2 C 0.9931(4) 0.3270(2) 0.1888(2)
C9_2 C 0.5903(4) 0.4624(2) 0.0711(2)
C10_2 C 0.4027(4) 0.4646(2) 0.0727(2)
H1_2 H 0.6710 0.4533 0.1415
H2_2 H 0.3582 0.4581 0.1439
H5_2 H 0.708478 0.134711 0.643637
H6_2 H 0.512839 0.132804 0.69007
O3_2 O 0.9508(3) 0.35133(18) 0.8592(2)
N9_2 N 0.6620(3) 0.47237(19) 0.9743(2)
C11_2 C 0.3542(4) 0.4865(2) 0.8775(2)
C12_2 C 0.5410(4) 0.4848(2) 0.8770(2)
H3_2 H 0.2736 0.4951 0.8070
H4_2 H 0.5860 0.4926 0.8062
H9_2 H 0.824605 0.325572 0.850738
H10_2 H 0.978565 0.369884 0.78247
O1_2 O 0.3923(3) 0.90392(18) 0.3787(2)
H11_2 H 0.415591 0.838712 0.403798
H12_2 H 0.258266 0.913783 0.356366
loop_
_geom_bond_atom_site_label_1
_geom_bond_atom_site_label_2
_geom_bond_site_symmetry_1
_geom_bond_site_symmetry_2
Mn7 O3 1_555 1_555
N9 Mn7 1_555 1_555
C11 N10 1_555 1_555
C12 N9 1_555 1_555
H3 C11 1_555 1_555
H4 C12 1_555 1_555
C11 C12 1_555 1_555
O3 H9 1_555 1_555
O3 H10 1_555 1_555
Nb1 C1 1_555 1_555
Mn1 O1 1_555 1_555
O2 Mn1 1_555 1_555
N1 C1 1_555 1_555
N2 C2 1_555 1_555
N3 Mn1 1_555 1_555
N6 C6 1_555 1_555
C2 Nb1 1_555 1_555
C3 Nb1 1_555 1_555
C6 Nb1 1_555 1_555
C7 Nb1 1_555 1_555
C10 C9 1_555 1_555
H1 C9 1_555 1_555
H2 C10 1_555 1_555
Mn5_2 N6 1_555 1_555
N11 Mn1 1_555 1_555
N12 Mn1 1_555 1_555
N13 Mn1 1_555 1_555
N3 C3 1_555 1_555
O2 H5 1_555 1_555
O2 H6 1_555 1_555
O1 H11 1_555 1_555
O1 H12 1_555 1_555
N11 C4 1_555 1_555
N5 C5 1_555 1_555
N8 C8 1_555 1_555
Mn5_2 N5 1_555 1_555
Mn6 N8 1_555 1_555
N4 C4_2 1_555 1_555
N12 C5_2 1_555 1_555
N14 C8_2 1_555 1_555
Mn5 N4 1_555 1_555
Nb1_2 C1_2 1_555 1_555
O2_2 Mn5 1_555 1_555
N1_2 C1_2 1_555 1_555
N2_2 C2_2 1_555 1_555
N3_2 Mn5 1_555 1_555
N13 C6_2 1_555 1_555
C2_2 Nb1_2 1_555 1_555
C3_2 Nb1_2 1_555 1_555
C6_2 Nb1_2 1_555 1_555
C7_2 Nb1_2 1_555 1_555
C10_2 C9_2 1_555 1_555
H1_2 C9_2 1_555 1_555
H2_2 C10_2 1_555 1_555
N3_2 C3_2 1_555 1_555
O2_2 H5_2 1_555 1_555
O2_2 H6_2 1_555 1_555
Mn6 O3_2 1_555 1_555
N9_2 Mn6 1_555 1_555
C11_2 N15 1_555 1_555
C12_2 N9_2 1_555 1_555
H3_2 C11_2 1_555 1_555
H4_2 C12_2 1_555 1_555
C11_2 C12_2 1_555 1_555
O3_2 H9_2 1_555 1_555
O3_2 H10_2 1_555 1_555
Mn5_2 O1_2 1_555 1_555
O1_2 H11_2 1_555 1_555
O1_2 H12_2 1_555 1_555

#END
