
###############################################################################
#
# This file contains modified crystal structure data generated from the
# MOF subset of the Cambridge Structural Database (CSD) v543 
# hosted by the Cambridge Crystallographic Data Centre (CCDC).
#
# This work is licensed under the Creative Commons
# Attribution-NonCommercial-ShareAlike 4.0 International License.
# To view a copy of this license, visit
# http://creativecommons.org/licenses/by-nc-sa/4.0/
# or send a letter to
# Creative Commons, PO Box 1866, Mountain View, CA 94042, USA.
#
# CIF created using the CSD Python API on 29 September 2022
# The structure has been converted into the P1 space group
# The structure has a 3D framework
# The original CSD entry UFOQUE is in the cubic crystal system
# The framework has been calculated to contain at least 10.0% void space
# The void calculation uses a probe of radius 1.32A, grid spacing 0.4
# The framework is charged, counterions have been retained in the structure
#
###############################################################################

data_UFOQUE
_chemical_formula_moiety         '(C2400 H2440 N192 O472 S96 Tb96 6+)n'
_symmetry_cell_setting           triclinic
_symmetry_space_group_name_H-M   'P 1'
_symmetry_Int_Tables_number      1
_space_group_name_Hall           'P 1'
loop_
_symmetry_equiv_pos_site_id
_symmetry_equiv_pos_as_xyz
1 x,y,z
_cell_length_a                   45.6614(5)
_cell_length_b                   45.6614(5)
_cell_length_c                   45.6614(5)
_cell_angle_alpha                90
_cell_angle_beta                 90
_cell_angle_gamma                90
_cell_volume                     95202.4
loop_
_atom_site_label
_atom_site_type_symbol
_atom_site_fract_x
_atom_site_fract_y
_atom_site_fract_z
Tb1 Tb 0.45392(2) 0.22762(2) 0.28352(2)
O1 O 0.47574(17) 0.27426(17) 0.27426(17)
H1 H 0.4647 0.2853 0.2853
O2 O 0.45483(11) 0.24731(12) 0.23574(12)
H2 H 0.4366 0.2463 0.2304
O3 O 0.4171(2) 0.2593(2) 0.27991(18)
O4 O 0.41945(14) 0.29733(13) 0.24823(14)
C1 C 0.40916(19) 0.2845(2) 0.26966(19)
C2 C 0.3842(2) 0.2969(2) 0.2850(2)
C3 C 0.3716(2) 0.2871(2) 0.3100(2)
H3 H 0.3783 0.2705 0.3205
C4 C 0.3476(2) 0.3043(2) 0.3188(2)
C5 C 0.3422(2) 0.3278(2) 0.3003(2)
S1 S 0.36774(5) 0.32891(5) 0.27180(5)
O5 O 0.42284(17) 0.19752(18) 0.25874(18)
O6 O 0.43565(12) 0.18739(12) 0.21150(14)
C6 C 0.41925(19) 0.1847(2) 0.2333(3)
C7 C 0.39309(13) 0.16491(15) 0.23104(15)
C8 C 0.37208(16) 0.16522(17) 0.25307(15)
H4 H 0.3737 0.1787 0.2688
C9 C 0.34866(15) 0.14580(18) 0.25204(15)
H5 H 0.3343 0.1460 0.2671
C10 C 0.34625(14) 0.12607(16) 0.22897(16)
C11 C 0.36726(16) 0.12577(17) 0.20695(15)
H6 H 0.3656 0.1123 0.1912
C12 C 0.39068(15) 0.14519(17) 0.20798(15)
H7 H 0.4050 0.1450 0.1929
C13 C 0.32033(14) 0.10533(16) 0.22772(14)
C14 C 0.30882(15) 0.09457(18) 0.25377(11)
H8 H 0.3171 0.1004 0.2720
C15 C 0.28520(17) 0.07537(17) 0.25319(11)
H9 H 0.2773 0.0680 0.2710
C16 C 0.27310(14) 0.06692(16) 0.22657(13)
C17 C 0.28462(15) 0.07767(18) 0.20052(11)
H10 H 0.2763 0.0719 0.1823
C18 C 0.30823(16) 0.09687(17) 0.20109(11)
H11 H 0.3161 0.1042 0.1833
C19 C 0.2487(2) 0.0444(2) 0.2261(3)
C20 C 0.2268(3) 0.0452(2) 0.2474(2)
H12 H 0.2265 0.0608 0.2613
O7 O 0.4050(4) 0.2117(4) 0.3115(4)
C21 C 0.3889(5) 0.2007(4) 0.3301(5)
H13 H 0.3941 0.2079 0.3489
N1 N 0.3667(4) 0.1821(3) 0.3327(3)
C22 C 0.3370(4) 0.1921(7) 0.3358(8)
H14 H 0.3358 0.2061 0.3521
H15 H 0.3242 0.1753 0.3400
H16 H 0.3307 0.2016 0.3177
C23 C 0.3682(6) 0.1505(4) 0.3333(7)
H17 H 0.3788 0.1435 0.3159
H18 H 0.3484 0.1424 0.3333
H19 H 0.3786 0.1441 0.3510
O8 O 0.27991(18) 0.4171(2) 0.2593(2)
O9 O 0.24823(14) 0.41945(14) 0.29733(13)
C24 C 0.26966(19) 0.40916(19) 0.2845(2)
C25 C 0.2850(2) 0.3842(2) 0.2969(2)
C26 C 0.3100(2) 0.3716(2) 0.2871(2)
H20 H 0.3205 0.3783 0.2705
C27 C 0.3188(2) 0.3476(2) 0.3043(2)
C28 C 0.3003(2) 0.3422(2) 0.3278(2)
S2 S 0.27180(5) 0.36774(5) 0.32891(5)
O10 O 0.2593(2) 0.27991(18) 0.4171(2)
O11 O 0.29733(13) 0.24823(14) 0.41945(14)
C29 C 0.2845(2) 0.26966(19) 0.40916(19)
C30 C 0.2969(2) 0.2850(2) 0.3842(2)
C31 C 0.2871(2) 0.3100(2) 0.3716(2)
H21 H 0.2705 0.3205 0.3783
C32 C 0.3043(2) 0.3188(2) 0.3476(2)
C33 C 0.3278(2) 0.3003(2) 0.3422(2)
S3 S 0.32891(5) 0.27180(5) 0.36774(5)
O13 O 0.06261(12) 0.03850(14) 0.43565(12)
C34 C 0.0653(2) 0.0167(3) 0.41925(19)
C35 C 0.08509(15) 0.01896(15) 0.39309(13)
C38 C 0.12393(16) 0.02103(16) 0.34625(14)
C39 C 0.12423(17) 0.04305(15) 0.36726(16)
H24 H 0.1377 0.0588 0.3656
C40 C 0.10481(17) 0.04202(15) 0.39068(15)
H25 H 0.1050 0.0571 0.4050
C41 C 0.14467(16) 0.02228(14) 0.32033(14)
C44 C 0.18308(16) 0.02343(13) 0.27310(14)
C45 C 0.17233(18) 0.04948(11) 0.28462(15)
H28 H 0.1781 0.0677 0.2763
C46 C 0.15313(17) 0.04891(11) 0.30823(16)
H29 H 0.1458 0.0667 0.3161
C47 C 0.2056(2) 0.0239(3) 0.2487(2)
C48 C 0.2048(2) 0.0026(2) 0.2268(3)
C62 C 0.2261(3) 0.0013(2) 0.2056(2)
C63 C 0.2474(2) 0.0232(3) 0.2048(2)
H39 H 0.2613 0.0235 0.1892
Tb2 Tb 0.28352(2) 0.45392(2) 0.22762(2)
O16 O 0.23574(12) 0.45483(11) 0.24731(12)
H40 H 0.2304 0.4366 0.2463
O17 O 0.3115(4) 0.4050(4) 0.2117(4)
C64 C 0.3301(5) 0.3889(5) 0.2007(4)
H41 H 0.3489 0.3941 0.2079
N2 N 0.3327(3) 0.3667(4) 0.1821(3)
C65 C 0.3358(8) 0.3370(4) 0.1921(7)
H42 H 0.3521 0.3358 0.2061
H43 H 0.3400 0.3242 0.1753
H44 H 0.3177 0.3307 0.2016
C66 C 0.3333(7) 0.3682(6) 0.1505(4)
H45 H 0.3159 0.3788 0.1435
H46 H 0.3333 0.3484 0.1424
H47 H 0.3510 0.3786 0.1441
Tb3 Tb 0.22762(2) 0.28352(2) 0.45392(2)
O18 O 0.24731(12) 0.23574(12) 0.45483(11)
H48 H 0.2463 0.2304 0.4366
O19 O 0.2117(4) 0.3115(4) 0.4050(4)
C67 C 0.2007(4) 0.3301(5) 0.3889(5)
H49 H 0.2079 0.3489 0.3941
N3 N 0.1821(3) 0.3327(3) 0.3667(4)
C68 C 0.1921(7) 0.3358(8) 0.3370(4)
H50 H 0.2061 0.3521 0.3358
H51 H 0.1753 0.3400 0.3242
H52 H 0.2016 0.3177 0.3307
C69 C 0.1505(4) 0.3333(7) 0.3682(6)
H53 H 0.1435 0.3159 0.3788
H54 H 0.1424 0.3333 0.3484
H55 H 0.1441 0.3510 0.3786
Tb6 Tb 0.22762(2) 0.46648(2) 0.29608(2)
Tb7 Tb 0.52238(2) 0.28352(2) 0.29608(2)
Tb8 Tb 0.29608(2) 0.22762(2) 0.46648(2)
Tb9 Tb 0.46648(2) 0.29608(2) 0.22762(2)
Tb11 Tb 0.03352(2) 0.04608(2) 0.47762(2)
Tb12 Tb 0.20392(2) 0.47762(2) 0.21648(2)
Tb13 Tb 0.21648(2) 0.20392(2) 0.47762(2)
Tb14 Tb 0.47762(2) 0.21648(2) 0.20392(2)
O20 O 0.27426(17) 0.47574(17) 0.27426(17)
O21 O 0.27426(17) 0.27426(17) 0.47574(17)
O22 O 0.23574(12) 0.29517(11) 0.50269(12)
O23 O 0.50269(12) 0.23574(12) 0.29517(11)
O24 O 0.29517(11) 0.50269(12) 0.23574(12)
O25 O 0.20483(11) 0.25269(12) 0.48574(12)
O26 O 0.48574(12) 0.20483(11) 0.25269(12)
O27 O 0.25269(12) 0.48574(12) 0.20483(11)
O28 O 0.24823(14) 0.33055(14) 0.45267(13)
O29 O 0.45267(13) 0.24823(14) 0.33055(14)
O30 O 0.33055(14) 0.45267(13) 0.24823(14)
O31 O 0.25874(18) 0.42284(17) 0.19752(18)
O32 O 0.19752(18) 0.25874(18) 0.42284(17)
O33 O 0.18565(12) 0.31261(12) 0.46150(14)
O34 O 0.46150(14) 0.18565(12) 0.31261(12)
O35 O 0.31261(12) 0.46150(14) 0.18565(12)
O12 O 0.05248(18) 0.99126(18) 0.42284(17)
C36 C 0.08478(17) 0.99693(15) 0.37208(16)
H22 H 0.0713 0.9812 0.3737
C37 C 0.10420(18) 0.99796(15) 0.34866(15)
H23 H 0.1040 0.9829 0.3343
C42 C 0.15543(18) 0.99623(11) 0.30882(15)
H26 H 0.1496 0.9780 0.3171
C43 C 0.17463(17) 0.99681(11) 0.28520(17)
H27 H 0.1820 0.9790 0.2773
H30 H 0.1892 0.9887 0.2265
O14 O 0.25874(18) 0.82716(17) 0.05248(18)
O15 O 0.21150(14) 0.81435(12) 0.06261(12)
C49 C 0.2333(3) 0.83075(19) 0.0653(2)
C50 C 0.23104(15) 0.85691(13) 0.08509(15)
C51 C 0.25307(15) 0.87792(16) 0.08478(17)
H31 H 0.2688 0.8763 0.0713
C52 C 0.25204(15) 0.90134(15) 0.10420(18)
H32 H 0.2671 0.9157 0.1040
C53 C 0.22897(16) 0.90375(14) 0.12393(16)
C54 C 0.20695(15) 0.88274(16) 0.12423(17)
H33 H 0.1912 0.8844 0.1377
C55 C 0.20798(15) 0.85932(15) 0.10481(17)
H34 H 0.1929 0.8450 0.1050
C56 C 0.22772(14) 0.92967(14) 0.14467(16)
C57 C 0.25377(11) 0.94118(15) 0.15543(18)
H35 H 0.2720 0.9329 0.1496
C58 C 0.25319(11) 0.96480(17) 0.17463(17)
H36 H 0.2710 0.9727 0.1820
C59 C 0.22657(13) 0.97690(14) 0.18308(16)
C60 C 0.20052(11) 0.96538(15) 0.17233(18)
H37 H 0.1823 0.9737 0.1781
C61 C 0.20109(11) 0.94177(16) 0.15313(17)
H38 H 0.1833 0.9339 0.1458
Tb4 Tb 0.02238(2) 0.96648(2) 0.45392(2)
Tb5 Tb 0.28352(2) 0.79608(2) 0.02238(2)
Tb10 Tb 0.20392(2) 0.77238(2) 0.03352(2)
H1_2 H 0.2853 0.4647 0.2853
O6_2 O 0.21150(14) 0.43565(12) 0.18739(12)
C6_2 C 0.2333(3) 0.41925(19) 0.1847(2)
C7_2 C 0.23104(15) 0.39309(13) 0.16491(15)
C8_2 C 0.25307(15) 0.37208(16) 0.16522(17)
H4_2 H 0.2688 0.3737 0.1787
C9_2 C 0.25204(15) 0.34866(15) 0.14580(18)
H5_2 H 0.2671 0.3343 0.1460
C10_2 C 0.22897(16) 0.34625(14) 0.12607(16)
C11_2 C 0.20695(15) 0.36726(16) 0.12577(17)
H6_2 H 0.1912 0.3656 0.1123
C12_2 C 0.20798(15) 0.39068(15) 0.14519(17)
H7_2 H 0.1929 0.4050 0.1450
C13_2 C 0.22772(14) 0.32033(14) 0.10533(16)
C14_2 C 0.25377(11) 0.30882(15) 0.09457(18)
H8_2 H 0.2720 0.3171 0.1004
C15_2 C 0.25319(11) 0.28520(17) 0.07537(17)
H9_2 H 0.2710 0.2773 0.0680
C16_2 C 0.22657(13) 0.27310(14) 0.06692(16)
C17_2 C 0.20052(11) 0.28462(15) 0.07767(18)
H10_2 H 0.1823 0.2763 0.0719
C18_2 C 0.20109(11) 0.30823(16) 0.09687(17)
H11_2 H 0.1833 0.3161 0.1042
C19_2 C 0.2261(3) 0.2487(2) 0.0444(2)
C20_2 C 0.2474(2) 0.2268(3) 0.0452(2)
H12_2 H 0.2613 0.2265 0.0608
O13_2 O 0.43565(12) 0.06261(12) 0.03850(14)
C34_2 C 0.41925(19) 0.0653(2) 0.0167(3)
C35_2 C 0.39309(13) 0.08509(15) 0.01896(15)
C38_2 C 0.34625(14) 0.12393(16) 0.02103(16)
C39_2 C 0.36726(16) 0.12423(17) 0.04305(15)
H24_2 H 0.3656 0.1377 0.0588
C40_2 C 0.39068(15) 0.10481(17) 0.04202(15)
H25_2 H 0.4050 0.1050 0.0571
C41_2 C 0.32033(14) 0.14467(16) 0.02228(14)
C44_2 C 0.27310(14) 0.18308(16) 0.02343(13)
C45_2 C 0.28462(15) 0.17233(18) 0.04948(11)
H28_2 H 0.2763 0.1781 0.0677
C46_2 C 0.30823(16) 0.15313(17) 0.04891(11)
H29_2 H 0.3161 0.1458 0.0667
C47_2 C 0.2487(2) 0.2056(2) 0.0239(3)
C48_2 C 0.2268(3) 0.2048(2) 0.0026(2)
C62_2 C 0.2056(2) 0.2261(3) 0.0013(2)
C63_2 C 0.2048(2) 0.2474(2) 0.0232(3)
H39_2 H 0.1892 0.2613 0.0235
Tb7_2 Tb 0.29608(2) 0.52238(2) 0.28352(2)
Tb11_2 Tb 0.47762(2) 0.03352(2) 0.04608(2)
O12_2 O 0.42284(17) 0.05248(18) 0.99126(18)
C36_2 C 0.37208(16) 0.08478(17) 0.99693(15)
H22_2 H 0.3737 0.0713 0.9812
C37_2 C 0.34866(15) 0.10420(18) 0.99796(15)
H23_2 H 0.3343 0.1040 0.9829
C42_2 C 0.30882(15) 0.15543(18) 0.99623(11)
H26_2 H 0.3171 0.1496 0.9780
C43_2 C 0.28520(17) 0.17463(17) 0.99681(11)
H27_2 H 0.2773 0.1820 0.9790
H30_2 H 0.2265 0.1892 0.9887
O14_2 O 0.05248(18) 0.25874(18) 0.82716(17)
O15_2 O 0.06261(12) 0.21150(14) 0.81435(12)
C49_2 C 0.0653(2) 0.2333(3) 0.83075(19)
C50_2 C 0.08509(15) 0.23104(15) 0.85691(13)
C51_2 C 0.08478(17) 0.25307(15) 0.87792(16)
H31_2 H 0.0713 0.2688 0.8763
C52_2 C 0.10420(18) 0.25204(15) 0.90134(15)
H32_2 H 0.1040 0.2671 0.9157
C53_2 C 0.12393(16) 0.22897(16) 0.90375(14)
C54_2 C 0.12423(17) 0.20695(15) 0.88274(16)
H33_2 H 0.1377 0.1912 0.8844
C55_2 C 0.10481(17) 0.20798(15) 0.85932(15)
H34_2 H 0.1050 0.1929 0.8450
C56_2 C 0.14467(16) 0.22772(14) 0.92967(14)
C57_2 C 0.15543(18) 0.25377(11) 0.94118(15)
H35_2 H 0.1496 0.2720 0.9329
C58_2 C 0.17463(17) 0.25319(11) 0.96480(17)
H36_2 H 0.1820 0.2710 0.9727
C59_2 C 0.18308(16) 0.22657(13) 0.97690(14)
C60_2 C 0.17233(18) 0.20052(11) 0.96538(15)
H37_2 H 0.1781 0.1823 0.9737
C61_2 C 0.15313(17) 0.20109(11) 0.94177(16)
H38_2 H 0.1458 0.1833 0.9339
Tb4_2 Tb 0.45392(2) 0.02238(2) 0.96648(2)
Tb5_2 Tb 0.02238(2) 0.28352(2) 0.79608(2)
Tb10_2 Tb 0.03352(2) 0.20392(2) 0.77238(2)
H1_3 H 0.2853 0.2853 0.4647
O6_3 O 0.18739(12) 0.21150(14) 0.43565(12)
C6_3 C 0.1847(2) 0.2333(3) 0.41925(19)
C7_3 C 0.16491(15) 0.23104(15) 0.39309(13)
C8_3 C 0.16522(17) 0.25307(15) 0.37208(16)
H4_3 H 0.1787 0.2688 0.3737
C9_3 C 0.14580(18) 0.25204(15) 0.34866(15)
H5_3 H 0.1460 0.2671 0.3343
C10_3 C 0.12607(16) 0.22897(16) 0.34625(14)
C11_3 C 0.12577(17) 0.20695(15) 0.36726(16)
H6_3 H 0.1123 0.1912 0.3656
C12_3 C 0.14519(17) 0.20798(15) 0.39068(15)
H7_3 H 0.1450 0.1929 0.4050
C13_3 C 0.10533(16) 0.22772(14) 0.32033(14)
C14_3 C 0.09457(18) 0.25377(11) 0.30882(15)
H8_3 H 0.1004 0.2720 0.3171
C15_3 C 0.07537(17) 0.25319(11) 0.28520(17)
H9_3 H 0.0680 0.2710 0.2773
C16_3 C 0.06692(16) 0.22657(13) 0.27310(14)
C17_3 C 0.07767(18) 0.20052(11) 0.28462(15)
H10_3 H 0.0719 0.1823 0.2763
C18_3 C 0.09687(17) 0.20109(11) 0.30823(16)
H11_3 H 0.1042 0.1833 0.3161
C19_3 C 0.0444(2) 0.2261(3) 0.2487(2)
C20_3 C 0.0452(2) 0.2474(2) 0.2268(3)
H12_3 H 0.0608 0.2613 0.2265
O13_3 O 0.03850(14) 0.43565(12) 0.06261(12)
C34_3 C 0.0167(3) 0.41925(19) 0.0653(2)
C35_3 C 0.01896(15) 0.39309(13) 0.08509(15)
C38_3 C 0.02103(16) 0.34625(14) 0.12393(16)
C39_3 C 0.04305(15) 0.36726(16) 0.12423(17)
H24_3 H 0.0588 0.3656 0.1377
C40_3 C 0.04202(15) 0.39068(15) 0.10481(17)
H25_3 H 0.0571 0.4050 0.1050
C41_3 C 0.02228(14) 0.32033(14) 0.14467(16)
C44_3 C 0.02343(13) 0.27310(14) 0.18308(16)
C45_3 C 0.04948(11) 0.28462(15) 0.17233(18)
H28_3 H 0.0677 0.2763 0.1781
C46_3 C 0.04891(11) 0.30823(16) 0.15313(17)
H29_3 H 0.0667 0.3161 0.1458
C47_3 C 0.0239(3) 0.2487(2) 0.2056(2)
C48_3 C 0.0026(2) 0.2268(3) 0.2048(2)
C62_3 C 0.0013(2) 0.2056(2) 0.2261(3)
C63_3 C 0.0232(3) 0.2048(2) 0.2474(2)
H39_3 H 0.0235 0.1892 0.2613
Tb7_3 Tb 0.28352(2) 0.29608(2) 0.52238(2)
Tb11_3 Tb 0.04608(2) 0.47762(2) 0.03352(2)
O12_3 O 0.99126(18) 0.42284(17) 0.05248(18)
C36_3 C 0.99693(15) 0.37208(16) 0.08478(17)
H22_3 H 0.9812 0.3737 0.0713
C37_3 C 0.99796(15) 0.34866(15) 0.10420(18)
H23_3 H 0.9829 0.3343 0.1040
C42_3 C 0.99623(11) 0.30882(15) 0.15543(18)
H26_3 H 0.9780 0.3171 0.1496
C43_3 C 0.99681(11) 0.28520(17) 0.17463(17)
H27_3 H 0.9790 0.2773 0.1820
H30_3 H 0.9887 0.2265 0.1892
O14_3 O 0.82716(17) 0.05248(18) 0.25874(18)
O15_3 O 0.81435(12) 0.06261(12) 0.21150(14)
C49_3 C 0.83075(19) 0.0653(2) 0.2333(3)
C50_3 C 0.85691(13) 0.08509(15) 0.23104(15)
C51_3 C 0.87792(16) 0.08478(17) 0.25307(15)
H31_3 H 0.8763 0.0713 0.2688
C52_3 C 0.90134(15) 0.10420(18) 0.25204(15)
H32_3 H 0.9157 0.1040 0.2671
C53_3 C 0.90375(14) 0.12393(16) 0.22897(16)
C54_3 C 0.88274(16) 0.12423(17) 0.20695(15)
H33_3 H 0.8844 0.1377 0.1912
C55_3 C 0.85932(15) 0.10481(17) 0.20798(15)
H34_3 H 0.8450 0.1050 0.1929
C56_3 C 0.92967(14) 0.14467(16) 0.22772(14)
C57_3 C 0.94118(15) 0.15543(18) 0.25377(11)
H35_3 H 0.9329 0.1496 0.2720
C58_3 C 0.96480(17) 0.17463(17) 0.25319(11)
H36_3 H 0.9727 0.1820 0.2710
C59_3 C 0.97690(14) 0.18308(16) 0.22657(13)
C60_3 C 0.96538(15) 0.17233(18) 0.20052(11)
H37_3 H 0.9737 0.1781 0.1823
C61_3 C 0.94177(16) 0.15313(17) 0.20109(11)
H38_3 H 0.9339 0.1458 0.1833
Tb4_3 Tb 0.96648(2) 0.45392(2) 0.02238(2)
Tb5_3 Tb 0.79608(2) 0.02238(2) 0.28352(2)
Tb10_3 Tb 0.77238(2) 0.03352(2) 0.20392(2)
O2_2 O 0.00269(12) 0.01426(12) 0.45483(11)
H2_2 H 0.0037 0.0196 0.4366
O7_2 O 0.0383(4) 0.9385(4) 0.4050(4)
C21_2 C 0.0493(4) 0.9199(5) 0.3889(5)
H13_2 H 0.0421 0.9011 0.3941
N1_2 N 0.0679(3) 0.9173(3) 0.3667(4)
C22_2 C 0.0579(7) 0.9142(8) 0.3370(4)
H14_2 H 0.0439 0.8979 0.3358
H15_2 H 0.0747 0.9100 0.3242
H16_2 H 0.0484 0.9323 0.3307
C23_2 C 0.0995(4) 0.9167(7) 0.3682(6)
H17_2 H 0.1065 0.9341 0.3788
H18_2 H 0.1076 0.9167 0.3484
H19_2 H 0.1059 0.8990 0.3786
O11_2 O 0.00177(14) 0.83055(14) 0.29733(13)
O18_2 O 0.01426(12) 0.79517(11) 0.24731(12)
H48_2 H 0.0196 0.8134 0.2463
Tb8_2 Tb 0.02238(2) 0.78352(2) 0.29608(2)
Tb13_2 Tb 0.04608(2) 0.77238(2) 0.21648(2)
O23_2 O 0.01426(12) 0.95483(11) 0.50269(12)
O26_2 O 0.04517(11) 0.99731(12) 0.48574(12)
O29_2 O 0.00177(14) 0.91945(14) 0.45267(13)
O34_2 O 0.06435(12) 0.93739(12) 0.46150(14)
O4_2 O 0.95267(13) 0.00177(14) 0.41945(14)
O16_2 O 0.79517(11) 0.00269(12) 0.23574(12)
H40_2 H 0.8134 0.0037 0.2304
O17_2 O 0.8450(4) 0.0383(4) 0.3115(4)
C64_2 C 0.8611(5) 0.0493(4) 0.3301(5)
H41_2 H 0.8559 0.0421 0.3489
N2_2 N 0.8833(4) 0.0679(3) 0.3327(3)
C65_2 C 0.9130(4) 0.0579(7) 0.3358(8)
H42_2 H 0.9142 0.0439 0.3521
H43_2 H 0.9258 0.0747 0.3400
H44_2 H 0.9193 0.0484 0.3177
C66_2 C 0.8818(6) 0.0995(4) 0.3333(7)
H45_2 H 0.8712 0.1065 0.3159
H46_2 H 0.9016 0.1076 0.3333
H47_2 H 0.8714 0.1059 0.3510
Tb9_2 Tb 0.95392(2) 0.02238(2) 0.46648(2)
O24_2 O 0.74731(12) 0.01426(12) 0.29517(11)
O27_2 O 0.76426(12) 0.04517(11) 0.25269(12)
O30_2 O 0.79733(13) 0.00177(14) 0.33055(14)
O35_2 O 0.78850(14) 0.06435(12) 0.31261(12)
O1_2 O 0.97574(17) 0.97574(17) 0.47574(17)
H1_4 H 0.9647 0.9647 0.4647
O3_2 O 0.9907(2) 0.97009(18) 0.4171(2)
C1_2 C 0.9655(2) 0.98034(19) 0.40916(19)
C2_2 C 0.9531(2) 0.9650(2) 0.3842(2)
C3_2 C 0.9629(2) 0.9400(2) 0.3716(2)
H3_2 H 0.9795 0.9295 0.3783
C4_2 C 0.9457(2) 0.9312(2) 0.3476(2)
C5_2 C 0.9222(2) 0.9497(2) 0.3422(2)
S1_2 S 0.92109(5) 0.97820(5) 0.36774(5)
O8_2 O 0.8329(2) 0.9907(2) 0.27991(18)
O9_2 O 0.83055(14) 0.95267(13) 0.24823(14)
C24_2 C 0.84084(19) 0.9655(2) 0.26966(19)
C25_2 C 0.8658(2) 0.9531(2) 0.2850(2)
C26_2 C 0.8784(2) 0.9629(2) 0.3100(2)
H20_2 H 0.8717 0.9795 0.3205
C27_2 C 0.9024(2) 0.9457(2) 0.3188(2)
C28_2 C 0.9078(2) 0.9222(2) 0.3003(2)
S2_2 S 0.88226(5) 0.92109(5) 0.27180(5)
O10_2 O 0.97009(18) 0.8329(2) 0.2593(2)
C29_2 C 0.98034(19) 0.84084(19) 0.2845(2)
C30_2 C 0.9650(2) 0.8658(2) 0.2969(2)
C31_2 C 0.9400(2) 0.8784(2) 0.2871(2)
H21_2 H 0.9295 0.8717 0.2705
C32_2 C 0.9312(2) 0.9024(2) 0.3043(2)
C33_2 C 0.9497(2) 0.9078(2) 0.3278(2)
S3_2 S 0.97820(5) 0.88226(5) 0.32891(5)
Tb3_2 Tb 0.96648(2) 0.79608(2) 0.22762(2)
O19_2 O 0.9385(4) 0.8450(4) 0.2117(4)
C67_2 C 0.9199(5) 0.8611(5) 0.2007(4)
H49_2 H 0.9011 0.8559 0.2079
N3_2 N 0.9173(3) 0.8833(4) 0.1821(3)
C68_2 C 0.9142(8) 0.9130(4) 0.1921(7)
H50_2 H 0.8979 0.9142 0.2061
H51_2 H 0.9100 0.9258 0.1753
H52_2 H 0.9323 0.9193 0.2016
C69_2 C 0.9167(7) 0.8818(6) 0.1505(4)
H53_2 H 0.9341 0.8712 0.1435
H54_2 H 0.9167 0.9016 0.1424
H55_2 H 0.8990 0.8714 0.1441
Tb6_2 Tb 0.78352(2) 0.95392(2) 0.22762(2)
Tb7_4 Tb 0.96648(2) 0.95392(2) 0.52238(2)
O20_2 O 0.77426(17) 0.97574(17) 0.27426(17)
O21_2 O 0.97574(17) 0.77426(17) 0.27426(17)
O22_2 O 0.95483(11) 0.74731(12) 0.23574(12)
O25_2 O 0.99731(12) 0.76426(12) 0.20483(11)
O28_2 O 0.91945(14) 0.79733(13) 0.24823(14)
O32_2 O 0.99126(18) 0.82716(17) 0.19752(18)
O33_2 O 0.93739(12) 0.78850(14) 0.18565(12)
O18_3 O 0.45483(11) 0.00269(12) 0.01426(12)
H48_3 H 0.4366 0.0037 0.0196
O9_3 O 0.29733(13) 0.00177(14) 0.83055(14)
O16_3 O 0.24731(12) 0.01426(12) 0.79517(11)
H40_3 H 0.2463 0.0196 0.8134
O19_3 O 0.4050(4) 0.0383(4) 0.9385(4)
C67_3 C 0.3889(5) 0.0493(4) 0.9199(5)
H49_3 H 0.3941 0.0421 0.9011
N3_3 N 0.3667(4) 0.0679(3) 0.9173(3)
C68_3 C 0.3370(4) 0.0579(7) 0.9142(8)
H50_3 H 0.3358 0.0439 0.8979
H51_3 H 0.3242 0.0747 0.9100
H52_3 H 0.3307 0.0484 0.9323
C69_3 C 0.3682(6) 0.0995(4) 0.9167(7)
H53_3 H 0.3788 0.1065 0.9341
H54_3 H 0.3484 0.1076 0.9167
H55_3 H 0.3786 0.1059 0.8990
Tb6_3 Tb 0.29608(2) 0.02238(2) 0.78352(2)
Tb12_2 Tb 0.21648(2) 0.04608(2) 0.77238(2)
O22_3 O 0.50269(12) 0.01426(12) 0.95483(11)
O25_3 O 0.48574(12) 0.04517(11) 0.99731(12)
O28_3 O 0.45267(13) 0.00177(14) 0.91945(14)
O33_3 O 0.46150(14) 0.06435(12) 0.93739(12)
O2_3 O 0.23574(12) 0.79517(11) 0.00269(12)
H2_3 H 0.2304 0.8134 0.0037
O7_3 O 0.3115(4) 0.8450(4) 0.0383(4)
C21_3 C 0.3301(5) 0.8611(5) 0.0493(4)
H13_3 H 0.3489 0.8559 0.0421
N1_3 N 0.3327(3) 0.8833(4) 0.0679(3)
C22_3 C 0.3358(8) 0.9130(4) 0.0579(7)
H14_3 H 0.3521 0.9142 0.0439
H15_3 H 0.3400 0.9258 0.0747
H16_3 H 0.3177 0.9193 0.0484
C23_3 C 0.3333(7) 0.8818(6) 0.0995(4)
H17_3 H 0.3159 0.8712 0.1065
H18_3 H 0.3333 0.9016 0.1076
H19_3 H 0.3510 0.8714 0.1059
O11_3 O 0.41945(14) 0.95267(13) 0.00177(14)
Tb8_3 Tb 0.46648(2) 0.95392(2) 0.02238(2)
O23_3 O 0.29517(11) 0.74731(12) 0.01426(12)
O26_3 O 0.25269(12) 0.76426(12) 0.04517(11)
O29_3 O 0.33055(14) 0.79733(13) 0.00177(14)
O34_3 O 0.31261(12) 0.78850(14) 0.06435(12)
O1_3 O 0.27426(17) 0.77426(17) 0.97574(17)
H1_5 H 0.2853 0.7853 0.9647
O3_3 O 0.27991(18) 0.8329(2) 0.9907(2)
O4_3 O 0.24823(14) 0.83055(14) 0.95267(13)
C1_3 C 0.26966(19) 0.84084(19) 0.9655(2)
C2_3 C 0.2850(2) 0.8658(2) 0.9531(2)
C3_3 C 0.3100(2) 0.8784(2) 0.9629(2)
H3_3 H 0.3205 0.8717 0.9795
C4_3 C 0.3188(2) 0.9024(2) 0.9457(2)
C5_3 C 0.3003(2) 0.9078(2) 0.9222(2)
S1_3 S 0.27180(5) 0.88226(5) 0.92109(5)
O8_3 O 0.2593(2) 0.97009(18) 0.8329(2)
C24_3 C 0.2845(2) 0.98034(19) 0.84084(19)
C25_3 C 0.2969(2) 0.9650(2) 0.8658(2)
C26_3 C 0.2871(2) 0.9400(2) 0.8784(2)
H20_3 H 0.2705 0.9295 0.8717
C27_3 C 0.3043(2) 0.9312(2) 0.9024(2)
C28_3 C 0.3278(2) 0.9497(2) 0.9078(2)
S2_3 S 0.32891(5) 0.97820(5) 0.88226(5)
O10_3 O 0.4171(2) 0.9907(2) 0.97009(18)
C29_3 C 0.40916(19) 0.9655(2) 0.98034(19)
C30_3 C 0.3842(2) 0.9531(2) 0.9650(2)
C31_3 C 0.3716(2) 0.9629(2) 0.9400(2)
H21_3 H 0.3783 0.9795 0.9295
C32_3 C 0.3476(2) 0.9457(2) 0.9312(2)
C33_3 C 0.3422(2) 0.9222(2) 0.9497(2)
S3_3 S 0.36774(5) 0.92109(5) 0.97820(5)
Tb2_2 Tb 0.22762(2) 0.96648(2) 0.79608(2)
O17_3 O 0.2117(4) 0.9385(4) 0.8450(4)
C64_3 C 0.2007(4) 0.9199(5) 0.8611(5)
H41_3 H 0.2079 0.9011 0.8559
N2_3 N 0.1821(3) 0.9173(3) 0.8833(4)
C65_3 C 0.1921(7) 0.9142(8) 0.9130(4)
H42_3 H 0.2061 0.8979 0.9142
H43_3 H 0.1753 0.9100 0.9258
H44_3 H 0.2016 0.9323 0.9193
C66_3 C 0.1505(4) 0.9167(7) 0.8818(6)
H45_3 H 0.1435 0.9341 0.8712
H46_3 H 0.1424 0.9167 0.9016
H47_3 H 0.1441 0.8990 0.8714
Tb7_5 Tb 0.29608(2) 0.72762(2) 0.96648(2)
Tb9_3 Tb 0.22762(2) 0.78352(2) 0.95392(2)
O20_3 O 0.27426(17) 0.97574(17) 0.77426(17)
O21_3 O 0.47574(17) 0.97574(17) 0.97574(17)
O24_3 O 0.23574(12) 0.95483(11) 0.74731(12)
O27_3 O 0.20483(11) 0.99731(12) 0.76426(12)
O30_3 O 0.24823(14) 0.91945(14) 0.79733(13)
O31_2 O 0.19752(18) 0.99126(18) 0.82716(17)
O35_3 O 0.18565(12) 0.93739(12) 0.78850(14)
O18_4 O 0.01426(12) 0.45483(11) 0.00269(12)
H48_4 H 0.0196 0.4366 0.0037
O2_4 O 0.00269(12) 0.23574(12) 0.79517(11)
H2_4 H 0.0037 0.2304 0.8134
O7_4 O 0.0383(4) 0.3115(4) 0.8450(4)
C21_4 C 0.0493(4) 0.3301(5) 0.8611(5)
H13_4 H 0.0421 0.3489 0.8559
N1_4 N 0.0679(3) 0.3327(3) 0.8833(4)
C22_4 C 0.0579(7) 0.3358(8) 0.9130(4)
H14_4 H 0.0439 0.3521 0.9142
H15_4 H 0.0747 0.3400 0.9258
H16_4 H 0.0484 0.3177 0.9193
C23_4 C 0.0995(4) 0.3333(7) 0.8818(6)
H17_4 H 0.1065 0.3159 0.8712
H18_4 H 0.1076 0.3333 0.9016
H19_4 H 0.1059 0.3510 0.8714
O11_4 O 0.00177(14) 0.41945(14) 0.95267(13)
Tb8_4 Tb 0.02238(2) 0.46648(2) 0.95392(2)
O23_4 O 0.01426(12) 0.29517(11) 0.74731(12)
O26_4 O 0.04517(11) 0.25269(12) 0.76426(12)
O29_4 O 0.00177(14) 0.33055(14) 0.79733(13)
O34_4 O 0.06435(12) 0.31261(12) 0.78850(14)
O9_4 O 0.83055(14) 0.29733(13) 0.00177(14)
O16_4 O 0.79517(11) 0.24731(12) 0.01426(12)
H40_4 H 0.8134 0.2463 0.0196
O19_4 O 0.9385(4) 0.4050(4) 0.0383(4)
C67_4 C 0.9199(5) 0.3889(5) 0.0493(4)
H49_4 H 0.9011 0.3941 0.0421
N3_4 N 0.9173(3) 0.3667(4) 0.0679(3)
C68_4 C 0.9142(8) 0.3370(4) 0.0579(7)
H50_4 H 0.8979 0.3358 0.0439
H51_4 H 0.9100 0.3242 0.0747
H52_4 H 0.9323 0.3307 0.0484
C69_4 C 0.9167(7) 0.3682(6) 0.0995(4)
H53_4 H 0.9341 0.3788 0.1065
H54_4 H 0.9167 0.3484 0.1076
H55_4 H 0.8990 0.3786 0.1059
Tb6_4 Tb 0.78352(2) 0.29608(2) 0.02238(2)
Tb12_3 Tb 0.77238(2) 0.21648(2) 0.04608(2)
O22_4 O 0.95483(11) 0.50269(12) 0.01426(12)
O25_4 O 0.99731(12) 0.48574(12) 0.04517(11)
O28_4 O 0.91945(14) 0.45267(13) 0.00177(14)
O33_4 O 0.93739(12) 0.46150(14) 0.06435(12)
O1_4 O 0.97574(17) 0.27426(17) 0.77426(17)
H1_6 H 0.9647 0.2853 0.7853
O3_4 O 0.9907(2) 0.27991(18) 0.8329(2)
O4_4 O 0.95267(13) 0.24823(14) 0.83055(14)
C1_4 C 0.9655(2) 0.26966(19) 0.84084(19)
C2_4 C 0.9531(2) 0.2850(2) 0.8658(2)
C3_4 C 0.9629(2) 0.3100(2) 0.8784(2)
H3_4 H 0.9795 0.3205 0.8717
C4_4 C 0.9457(2) 0.3188(2) 0.9024(2)
C5_4 C 0.9222(2) 0.3003(2) 0.9078(2)
S1_4 S 0.92109(5) 0.27180(5) 0.88226(5)
O8_4 O 0.8329(2) 0.2593(2) 0.97009(18)
C24_4 C 0.84084(19) 0.2845(2) 0.98034(19)
C25_4 C 0.8658(2) 0.2969(2) 0.9650(2)
C26_4 C 0.8784(2) 0.2871(2) 0.9400(2)
H20_4 H 0.8717 0.2705 0.9295
C27_4 C 0.9024(2) 0.3043(2) 0.9312(2)
C28_4 C 0.9078(2) 0.3278(2) 0.9497(2)
S2_4 S 0.88226(5) 0.32891(5) 0.97820(5)
O10_4 O 0.97009(18) 0.4171(2) 0.9907(2)
C29_4 C 0.98034(19) 0.40916(19) 0.9655(2)
C30_4 C 0.9650(2) 0.3842(2) 0.9531(2)
C31_4 C 0.9400(2) 0.3716(2) 0.9629(2)
H21_4 H 0.9295 0.3783 0.9795
C32_4 C 0.9312(2) 0.3476(2) 0.9457(2)
C33_4 C 0.9497(2) 0.3422(2) 0.9222(2)
S3_4 S 0.97820(5) 0.36774(5) 0.92109(5)
Tb2_3 Tb 0.79608(2) 0.22762(2) 0.96648(2)
O17_4 O 0.8450(4) 0.2117(4) 0.9385(4)
C64_4 C 0.8611(5) 0.2007(4) 0.9199(5)
H41_4 H 0.8559 0.2079 0.9011
N2_4 N 0.8833(4) 0.1821(3) 0.9173(3)
C65_4 C 0.9130(4) 0.1921(7) 0.9142(8)
H42_4 H 0.9142 0.2061 0.8979
H43_4 H 0.9258 0.1753 0.9100
H44_4 H 0.9193 0.2016 0.9323
C66_4 C 0.8818(6) 0.1505(4) 0.9167(7)
H45_4 H 0.8712 0.1435 0.9341
H46_4 H 0.9016 0.1424 0.9167
H47_4 H 0.8714 0.1441 0.8990
Tb7_6 Tb 0.96648(2) 0.29608(2) 0.72762(2)
Tb9_4 Tb 0.95392(2) 0.22762(2) 0.78352(2)
O20_4 O 0.77426(17) 0.27426(17) 0.97574(17)
O21_4 O 0.97574(17) 0.47574(17) 0.97574(17)
O24_4 O 0.74731(12) 0.23574(12) 0.95483(11)
O27_4 O 0.76426(12) 0.20483(11) 0.99731(12)
O30_4 O 0.79733(13) 0.24823(14) 0.91945(14)
O31_3 O 0.82716(17) 0.19752(18) 0.99126(18)
O35_4 O 0.78850(14) 0.18565(12) 0.93739(12)
C19_4 C 0.0239(3) 0.0013(2) 0.0444(2)
C20_4 C 0.0026(2) 0.0232(3) 0.0452(2)
C47_4 C 0.0013(2) 0.0444(2) 0.0239(3)
C48_4 C 0.0232(3) 0.0452(2) 0.0026(2)
C62_4 C 0.0444(2) 0.0239(3) 0.0013(2)
C63_4 C 0.0452(2) 0.0026(2) 0.0232(3)
H30_4 H 0.0235 0.0608 0.9887
O15_4 O 0.18739(12) 0.03850(14) 0.81435(12)
C49_4 C 0.1847(2) 0.0167(3) 0.83075(19)
C50_4 C 0.16491(15) 0.01896(15) 0.85691(13)
C53_4 C 0.12607(16) 0.02103(16) 0.90375(14)
C54_4 C 0.12577(17) 0.04305(15) 0.88274(16)
H33_4 H 0.1123 0.0588 0.8844
C55_4 C 0.14519(17) 0.04202(15) 0.85932(15)
H34_4 H 0.1450 0.0571 0.8450
C56_4 C 0.10533(16) 0.02228(14) 0.92967(14)
C59_4 C 0.06692(16) 0.02343(13) 0.97690(14)
C60_4 C 0.07767(18) 0.04948(11) 0.96538(15)
H37_4 H 0.0719 0.0677 0.9737
C61_4 C 0.09687(17) 0.04891(11) 0.94177(16)
H38_4 H 0.1042 0.0667 0.9339
O6_4 O 0.03850(14) 0.81435(12) 0.18739(12)
C6_4 C 0.0167(3) 0.83075(19) 0.1847(2)
C7_4 C 0.01896(15) 0.85691(13) 0.16491(15)
C10_4 C 0.02103(16) 0.90375(14) 0.12607(16)
C11_4 C 0.04305(15) 0.88274(16) 0.12577(17)
H6_4 H 0.0588 0.8844 0.1123
C12_4 C 0.04202(15) 0.85932(15) 0.14519(17)
H7_4 H 0.0571 0.8450 0.1450
C13_4 C 0.02228(14) 0.92967(14) 0.10533(16)
C16_4 C 0.02343(13) 0.97690(14) 0.06692(16)
C17_4 C 0.04948(11) 0.96538(15) 0.07767(18)
H10_4 H 0.0677 0.9737 0.0719
C18_4 C 0.04891(11) 0.94177(16) 0.09687(17)
H11_4 H 0.0667 0.9339 0.1042
H39_4 H 0.0608 0.9887 0.0235
C51_4 C 0.16522(17) 0.99693(15) 0.87792(16)
H31_4 H 0.1787 0.9812 0.8763
C52_4 C 0.14580(18) 0.99796(15) 0.90134(15)
H32_4 H 0.1460 0.9829 0.9157
C57_4 C 0.09457(18) 0.99623(11) 0.94118(15)
H35_4 H 0.1004 0.9780 0.9329
C58_4 C 0.07537(17) 0.99681(11) 0.96480(17)
H36_4 H 0.0680 0.9790 0.9727
H12_4 H 0.9887 0.0235 0.0608
O13_4 O 0.81435(12) 0.18739(12) 0.03850(14)
C34_4 C 0.83075(19) 0.1847(2) 0.0167(3)
C35_4 C 0.85691(13) 0.16491(15) 0.01896(15)
C38_4 C 0.90375(14) 0.12607(16) 0.02103(16)
C39_4 C 0.88274(16) 0.12577(17) 0.04305(15)
H24_4 H 0.8844 0.1123 0.0588
C40_4 C 0.85932(15) 0.14519(17) 0.04202(15)
H25_4 H 0.8450 0.1450 0.0571
C41_4 C 0.92967(14) 0.10533(16) 0.02228(14)
C44_4 C 0.97690(14) 0.06692(16) 0.02343(13)
C45_4 C 0.96538(15) 0.07767(18) 0.04948(11)
H28_4 H 0.9737 0.0719 0.0677
C46_4 C 0.94177(16) 0.09687(17) 0.04891(11)
H29_4 H 0.9339 0.1042 0.0667
C36_4 C 0.87792(16) 0.16522(17) 0.99693(15)
H22_4 H 0.8763 0.1787 0.9812
C37_4 C 0.90134(15) 0.14580(18) 0.99796(15)
H23_4 H 0.9157 0.1460 0.9829
C42_4 C 0.94118(15) 0.09457(18) 0.99623(11)
H26_4 H 0.9329 0.1004 0.9780
C43_4 C 0.96480(17) 0.07537(17) 0.99681(11)
H27_4 H 0.9727 0.0680 0.9790
H1_7 H 0.9647 0.7853 0.2853
C8_4 C 0.99693(15) 0.87792(16) 0.16522(17)
H4_4 H 0.9812 0.8763 0.1787
C9_4 C 0.99796(15) 0.90134(15) 0.14580(18)
H5_4 H 0.9829 0.9157 0.1460
C14_4 C 0.99623(11) 0.94118(15) 0.09457(18)
H8_4 H 0.9780 0.9329 0.1004
C15_4 C 0.99681(11) 0.96480(17) 0.07537(17)
H9_4 H 0.9790 0.9727 0.0680
Tb7_7 Tb 0.95392(2) 0.72762(2) 0.28352(2)
H1_8 H 0.9647 0.4647 0.9647
Tb7_8 Tb 0.95392(2) 0.52238(2) 0.96648(2)
H1_9 H 0.2853 0.9647 0.7853
Tb7_9 Tb 0.28352(2) 0.95392(2) 0.72762(2)
H1_10 H 0.7853 0.9647 0.2853
Tb7_10 Tb 0.72762(2) 0.96648(2) 0.29608(2)
H1_11 H 0.4647 0.9647 0.9647
Tb7_11 Tb 0.52238(2) 0.96648(2) 0.95392(2)
H1_12 H 0.7853 0.2853 0.9647
Tb7_12 Tb 0.72762(2) 0.28352(2) 0.95392(2)
O24_5 O 0.29517(11) 0.00269(12) 0.73574(12)
Tb1_2 Tb 0.45392(2) 0.72762(2) 0.78352(2)
O1_5 O 0.47574(17) 0.77426(17) 0.77426(17)
H1_13 H 0.4647 0.7853 0.7853
O2_5 O 0.45483(11) 0.74731(12) 0.73574(12)
H2_5 H 0.4366 0.7463 0.7304
O3_5 O 0.4171(2) 0.7593(2) 0.77991(18)
O4_5 O 0.41945(14) 0.79733(13) 0.74823(14)
C1_5 C 0.40916(19) 0.7845(2) 0.76966(19)
C2_5 C 0.3842(2) 0.7969(2) 0.7850(2)
C3_5 C 0.3716(2) 0.7871(2) 0.8100(2)
H3_5 H 0.3783 0.7705 0.8205
C4_5 C 0.3476(2) 0.8043(2) 0.8188(2)
C5_5 C 0.3422(2) 0.8278(2) 0.8003(2)
S1_5 S 0.36774(5) 0.82891(5) 0.77180(5)
O5_2 O 0.42284(17) 0.69752(18) 0.75874(18)
O6_5 O 0.43565(12) 0.68739(12) 0.71150(14)
C6_5 C 0.41925(19) 0.6847(2) 0.7333(3)
C7_5 C 0.39309(13) 0.66491(15) 0.73104(15)
C8_5 C 0.37208(16) 0.66522(17) 0.75307(15)
H4_5 H 0.3737 0.6787 0.7688
C9_5 C 0.34866(15) 0.64580(18) 0.75204(15)
H5_5 H 0.3343 0.6460 0.7671
C10_5 C 0.34625(14) 0.62607(16) 0.72897(16)
C11_5 C 0.36726(16) 0.62577(17) 0.70695(15)
H6_5 H 0.3656 0.6123 0.6912
C12_5 C 0.39068(15) 0.64519(17) 0.70798(15)
H7_5 H 0.4050 0.6450 0.6929
C13_5 C 0.32033(14) 0.60533(16) 0.72772(14)
C14_5 C 0.30882(15) 0.59457(18) 0.75377(11)
H8_5 H 0.3171 0.6004 0.7720
C15_5 C 0.28520(17) 0.57537(17) 0.75319(11)
H9_5 H 0.2773 0.5680 0.7710
C16_5 C 0.27310(14) 0.56692(16) 0.72657(13)
C17_5 C 0.28462(15) 0.57767(18) 0.70052(11)
H10_5 H 0.2763 0.5719 0.6823
C18_5 C 0.30823(16) 0.59687(17) 0.70109(11)
H11_5 H 0.3161 0.6042 0.6833
C19_5 C 0.2487(2) 0.5444(2) 0.7261(3)
C20_5 C 0.2268(3) 0.5452(2) 0.7474(2)
H12_5 H 0.2265 0.5608 0.7613
O7_5 O 0.4050(4) 0.7117(4) 0.8115(4)
C21_5 C 0.3889(5) 0.7007(4) 0.8301(5)
H13_5 H 0.3941 0.7079 0.8489
N1_5 N 0.3667(4) 0.6821(3) 0.8327(3)
C22_5 C 0.3370(4) 0.6921(7) 0.8358(8)
H14_5 H 0.3358 0.7061 0.8521
H15_5 H 0.3242 0.6753 0.8400
H16_5 H 0.3307 0.7016 0.8177
C23_5 C 0.3682(6) 0.6505(4) 0.8333(7)
H17_5 H 0.3788 0.6435 0.8159
H18_5 H 0.3484 0.6424 0.8333
H19_5 H 0.3786 0.6441 0.8510
O8_5 O 0.27991(18) 0.9171(2) 0.7593(2)
C24_5 C 0.26966(19) 0.90916(19) 0.7845(2)
C25_5 C 0.2850(2) 0.8842(2) 0.7969(2)
C26_5 C 0.3100(2) 0.8716(2) 0.7871(2)
H20_5 H 0.3205 0.8783 0.7705
C27_5 C 0.3188(2) 0.8476(2) 0.8043(2)
C28_5 C 0.3003(2) 0.8422(2) 0.8278(2)
S2_5 S 0.27180(5) 0.86774(5) 0.82891(5)
O10_5 O 0.2593(2) 0.77991(18) 0.9171(2)
O11_5 O 0.29733(13) 0.74823(14) 0.91945(14)
C29_5 C 0.2845(2) 0.76966(19) 0.90916(19)
C30_5 C 0.2969(2) 0.7850(2) 0.8842(2)
C31_5 C 0.2871(2) 0.8100(2) 0.8716(2)
H21_5 H 0.2705 0.8205 0.8783
C32_5 C 0.3043(2) 0.8188(2) 0.8476(2)
C33_5 C 0.3278(2) 0.8003(2) 0.8422(2)
S3_5 S 0.32891(5) 0.77180(5) 0.86774(5)
O12_4 O 0.05248(18) 0.49126(18) 0.92284(17)
O13_5 O 0.06261(12) 0.53850(14) 0.93565(12)
C34_5 C 0.0653(2) 0.5167(3) 0.91925(19)
C35_5 C 0.08509(15) 0.51896(15) 0.89309(13)
C36_5 C 0.08478(17) 0.49693(15) 0.87208(16)
H22_5 H 0.0713 0.4812 0.8737
C37_5 C 0.10420(18) 0.49796(15) 0.84866(15)
H23_5 H 0.1040 0.4829 0.8343
C38_5 C 0.12393(16) 0.52103(16) 0.84625(14)
C39_5 C 0.12423(17) 0.54305(15) 0.86726(16)
H24_5 H 0.1377 0.5588 0.8656
C40_5 C 0.10481(17) 0.54202(15) 0.89068(15)
H25_5 H 0.1050 0.5571 0.9050
C41_5 C 0.14467(16) 0.52228(14) 0.82033(14)
C42_5 C 0.15543(18) 0.49623(11) 0.80882(15)
H26_5 H 0.1496 0.4780 0.8171
C43_5 C 0.17463(17) 0.49681(11) 0.78520(17)
H27_5 H 0.1820 0.4790 0.7773
C44_5 C 0.18308(16) 0.52343(13) 0.77310(14)
C45_5 C 0.17233(18) 0.54948(11) 0.78462(15)
H28_5 H 0.1781 0.5677 0.7763
C46_5 C 0.15313(17) 0.54891(11) 0.80823(16)
H29_5 H 0.1458 0.5667 0.8161
C47_5 C 0.2056(2) 0.5239(3) 0.7487(2)
C48_5 C 0.2048(2) 0.5026(2) 0.7268(3)
H30_5 H 0.1892 0.4887 0.7265
O14_4 O 0.25874(18) 0.32716(17) 0.55248(18)
O15_5 O 0.21150(14) 0.31435(12) 0.56261(12)
C49_5 C 0.2333(3) 0.33075(19) 0.5653(2)
C50_5 C 0.23104(15) 0.35691(13) 0.58509(15)
C51_5 C 0.25307(15) 0.37792(16) 0.58478(17)
H31_5 H 0.2688 0.3763 0.5713
C52_5 C 0.25204(15) 0.40134(15) 0.60420(18)
H32_5 H 0.2671 0.4157 0.6040
C53_5 C 0.22897(16) 0.40375(14) 0.62393(16)
C54_5 C 0.20695(15) 0.38274(16) 0.62423(17)
H33_5 H 0.1912 0.3844 0.6377
C55_5 C 0.20798(15) 0.35932(15) 0.60481(17)
H34_5 H 0.1929 0.3450 0.6050
C56_5 C 0.22772(14) 0.42967(14) 0.64467(16)
C57_5 C 0.25377(11) 0.44118(15) 0.65543(18)
H35_5 H 0.2720 0.4329 0.6496
C58_5 C 0.25319(11) 0.46480(17) 0.67463(17)
H36_5 H 0.2710 0.4727 0.6820
C59_5 C 0.22657(13) 0.47690(14) 0.68308(16)
C60_5 C 0.20052(11) 0.46538(15) 0.67233(18)
H37_5 H 0.1823 0.4737 0.6781
C61_5 C 0.20109(11) 0.44177(16) 0.65313(17)
H38_5 H 0.1833 0.4339 0.6458
C62_5 C 0.2261(3) 0.5013(2) 0.7056(2)
C63_5 C 0.2474(2) 0.5232(3) 0.7048(2)
H39_5 H 0.2613 0.5235 0.6892
H40_5 H 0.2304 0.9366 0.7463
O17_5 O 0.3115(4) 0.9050(4) 0.7117(4)
C64_5 C 0.3301(5) 0.8889(5) 0.7007(4)
H41_5 H 0.3489 0.8941 0.7079
N2_5 N 0.3327(3) 0.8667(4) 0.6821(3)
C65_5 C 0.3358(8) 0.8370(4) 0.6921(7)
H42_5 H 0.3521 0.8358 0.7061
H43_5 H 0.3400 0.8242 0.6753
H44_5 H 0.3177 0.8307 0.7016
C66_5 C 0.3333(7) 0.8682(6) 0.6505(4)
H45_5 H 0.3159 0.8788 0.6435
H46_5 H 0.3333 0.8484 0.6424
H47_5 H 0.3510 0.8786 0.6441
O18_5 O 0.24731(12) 0.73574(12) 0.95483(11)
H48_5 H 0.2463 0.7304 0.9366
O19_5 O 0.2117(4) 0.8115(4) 0.9050(4)
C67_5 C 0.2007(4) 0.8301(5) 0.8889(5)
H49_5 H 0.2079 0.8489 0.8941
N3_5 N 0.1821(3) 0.8327(3) 0.8667(4)
C68_5 C 0.1921(7) 0.8358(8) 0.8370(4)
H50_5 H 0.2061 0.8521 0.8358
H51_5 H 0.1753 0.8400 0.8242
H52_5 H 0.2016 0.8177 0.8307
C69_5 C 0.1505(4) 0.8333(7) 0.8682(6)
H53_5 H 0.1435 0.8159 0.8788
H54_5 H 0.1424 0.8333 0.8484
H55_5 H 0.1441 0.8510 0.8786
Tb7_13 Tb 0.52238(2) 0.78352(2) 0.79608(2)
Tb9_5 Tb 0.46648(2) 0.79608(2) 0.72762(2)
Tb10_4 Tb 0.20392(2) 0.27238(2) 0.53352(2)
Tb11_4 Tb 0.03352(2) 0.54608(2) 0.97762(2)
Tb12_4 Tb 0.20392(2) 0.97762(2) 0.71648(2)
Tb13_3 Tb 0.21648(2) 0.70392(2) 0.97762(2)
Tb14_2 Tb 0.47762(2) 0.71648(2) 0.70392(2)
O23_5 O 0.50269(12) 0.73574(12) 0.79517(11)
O25_5 O 0.20483(11) 0.75269(12) 0.98574(12)
O26_5 O 0.48574(12) 0.70483(11) 0.75269(12)
O27_5 O 0.25269(12) 0.98574(12) 0.70483(11)
O29_5 O 0.45267(13) 0.74823(14) 0.83055(14)
O30_5 O 0.33055(14) 0.95267(13) 0.74823(14)
O31_4 O 0.25874(18) 0.92284(17) 0.69752(18)
O32_3 O 0.19752(18) 0.75874(18) 0.92284(17)
O33_5 O 0.18565(12) 0.81261(12) 0.96150(14)
O34_5 O 0.46150(14) 0.68565(12) 0.81261(12)
O35_5 O 0.31261(12) 0.96150(14) 0.68565(12)
O6_6 O 0.21150(14) 0.93565(12) 0.68739(12)
C6_6 C 0.2333(3) 0.91925(19) 0.6847(2)
C7_6 C 0.23104(15) 0.89309(13) 0.66491(15)
C8_6 C 0.25307(15) 0.87208(16) 0.66522(17)
H4_6 H 0.2688 0.8737 0.6787
C9_6 C 0.25204(15) 0.84866(15) 0.64580(18)
H5_6 H 0.2671 0.8343 0.6460
C10_6 C 0.22897(16) 0.84625(14) 0.62607(16)
C11_6 C 0.20695(15) 0.86726(16) 0.62577(17)
H6_6 H 0.1912 0.8656 0.6123
C12_6 C 0.20798(15) 0.89068(15) 0.64519(17)
H7_6 H 0.1929 0.9050 0.6450
C13_6 C 0.22772(14) 0.82033(14) 0.60533(16)
C14_6 C 0.25377(11) 0.80882(15) 0.59457(18)
H8_6 H 0.2720 0.8171 0.6004
C15_6 C 0.25319(11) 0.78520(17) 0.57537(17)
H9_6 H 0.2710 0.7773 0.5680
C16_6 C 0.22657(13) 0.77310(14) 0.56692(16)
C17_6 C 0.20052(11) 0.78462(15) 0.57767(18)
H10_6 H 0.1823 0.7763 0.5719
C18_6 C 0.20109(11) 0.80823(16) 0.59687(17)
H11_6 H 0.1833 0.8161 0.6042
C19_6 C 0.2261(3) 0.7487(2) 0.5444(2)
C20_6 C 0.2474(2) 0.7268(3) 0.5452(2)
H12_6 H 0.2613 0.7265 0.5608
O12_5 O 0.42284(17) 0.55248(18) 0.49126(18)
O13_6 O 0.43565(12) 0.56261(12) 0.53850(14)
C34_6 C 0.41925(19) 0.5653(2) 0.5167(3)
C35_6 C 0.39309(13) 0.58509(15) 0.51896(15)
C36_6 C 0.37208(16) 0.58478(17) 0.49693(15)
H22_6 H 0.3737 0.5713 0.4812
C37_6 C 0.34866(15) 0.60420(18) 0.49796(15)
H23_6 H 0.3343 0.6040 0.4829
C38_6 C 0.34625(14) 0.62393(16) 0.52103(16)
C39_6 C 0.36726(16) 0.62423(17) 0.54305(15)
H24_6 H 0.3656 0.6377 0.5588
C40_6 C 0.39068(15) 0.60481(17) 0.54202(15)
H25_6 H 0.4050 0.6050 0.5571
C41_6 C 0.32033(14) 0.64467(16) 0.52228(14)
C42_6 C 0.30882(15) 0.65543(18) 0.49623(11)
H26_6 H 0.3171 0.6496 0.4780
C43_6 C 0.28520(17) 0.67463(17) 0.49681(11)
H27_6 H 0.2773 0.6820 0.4790
C44_6 C 0.27310(14) 0.68308(16) 0.52343(13)
C45_6 C 0.28462(15) 0.67233(18) 0.54948(11)
H28_6 H 0.2763 0.6781 0.5677
C46_6 C 0.30823(16) 0.65313(17) 0.54891(11)
H29_6 H 0.3161 0.6458 0.5667
C47_6 C 0.2487(2) 0.7056(2) 0.5239(3)
C48_6 C 0.2268(3) 0.7048(2) 0.5026(2)
H30_6 H 0.2265 0.6892 0.4887
O14_5 O 0.05248(18) 0.75874(18) 0.32716(17)
O15_6 O 0.06261(12) 0.71150(14) 0.31435(12)
C49_6 C 0.0653(2) 0.7333(3) 0.33075(19)
C50_6 C 0.08509(15) 0.73104(15) 0.35691(13)
C51_6 C 0.08478(17) 0.75307(15) 0.37792(16)
H31_6 H 0.0713 0.7688 0.3763
C52_6 C 0.10420(18) 0.75204(15) 0.40134(15)
H32_6 H 0.1040 0.7671 0.4157
C53_6 C 0.12393(16) 0.72897(16) 0.40375(14)
C54_6 C 0.12423(17) 0.70695(15) 0.38274(16)
H33_6 H 0.1377 0.6912 0.3844
C55_6 C 0.10481(17) 0.70798(15) 0.35932(15)
H34_6 H 0.1050 0.6929 0.3450
C56_6 C 0.14467(16) 0.72772(14) 0.42967(14)
C57_6 C 0.15543(18) 0.75377(11) 0.44118(15)
H35_6 H 0.1496 0.7720 0.4329
C58_6 C 0.17463(17) 0.75319(11) 0.46480(17)
H36_6 H 0.1820 0.7710 0.4727
C59_6 C 0.18308(16) 0.72657(13) 0.47690(14)
C60_6 C 0.17233(18) 0.70052(11) 0.46538(15)
H37_6 H 0.1781 0.6823 0.4737
C61_6 C 0.15313(17) 0.70109(11) 0.44177(16)
H38_6 H 0.1458 0.6833 0.4339
C62_6 C 0.2056(2) 0.7261(3) 0.5013(2)
C63_6 C 0.2048(2) 0.7474(2) 0.5232(3)
H39_6 H 0.1892 0.7613 0.5235
Tb4_4 Tb 0.45392(2) 0.52238(2) 0.46648(2)
Tb10_5 Tb 0.03352(2) 0.70392(2) 0.27238(2)
Tb11_5 Tb 0.47762(2) 0.53352(2) 0.54608(2)
O6_7 O 0.18739(12) 0.71150(14) 0.93565(12)
C6_7 C 0.1847(2) 0.7333(3) 0.91925(19)
C7_7 C 0.16491(15) 0.73104(15) 0.89309(13)
C8_7 C 0.16522(17) 0.75307(15) 0.87208(16)
H4_7 H 0.1787 0.7688 0.8737
C9_7 C 0.14580(18) 0.75204(15) 0.84866(15)
H5_7 H 0.1460 0.7671 0.8343
C10_7 C 0.12607(16) 0.72897(16) 0.84625(14)
C11_7 C 0.12577(17) 0.70695(15) 0.86726(16)
H6_7 H 0.1123 0.6912 0.8656
C12_7 C 0.14519(17) 0.70798(15) 0.89068(15)
H7_7 H 0.1450 0.6929 0.9050
C13_7 C 0.10533(16) 0.72772(14) 0.82033(14)
C14_7 C 0.09457(18) 0.75377(11) 0.80882(15)
H8_7 H 0.1004 0.7720 0.8171
C15_7 C 0.07537(17) 0.75319(11) 0.78520(17)
H9_7 H 0.0680 0.7710 0.7773
C16_7 C 0.06692(16) 0.72657(13) 0.77310(14)
C17_7 C 0.07767(18) 0.70052(11) 0.78462(15)
H10_7 H 0.0719 0.6823 0.7763
C18_7 C 0.09687(17) 0.70109(11) 0.80823(16)
H11_7 H 0.1042 0.6833 0.8161
C19_7 C 0.0444(2) 0.7261(3) 0.7487(2)
C20_7 C 0.0452(2) 0.7474(2) 0.7268(3)
H12_7 H 0.0608 0.7613 0.7265
O13_7 O 0.03850(14) 0.93565(12) 0.56261(12)
C34_7 C 0.0167(3) 0.91925(19) 0.5653(2)
C35_7 C 0.01896(15) 0.89309(13) 0.58509(15)
C38_7 C 0.02103(16) 0.84625(14) 0.62393(16)
C39_7 C 0.04305(15) 0.86726(16) 0.62423(17)
H24_7 H 0.0588 0.8656 0.6377
C40_7 C 0.04202(15) 0.89068(15) 0.60481(17)
H25_7 H 0.0571 0.9050 0.6050
C41_7 C 0.02228(14) 0.82033(14) 0.64467(16)
C44_7 C 0.02343(13) 0.77310(14) 0.68308(16)
C45_7 C 0.04948(11) 0.78462(15) 0.67233(18)
H28_7 H 0.0677 0.7763 0.6781
C46_7 C 0.04891(11) 0.80823(16) 0.65313(17)
H29_7 H 0.0667 0.8161 0.6458
C47_7 C 0.0239(3) 0.7487(2) 0.7056(2)
C48_7 C 0.0026(2) 0.7268(3) 0.7048(2)
C62_7 C 0.0013(2) 0.7056(2) 0.7261(3)
C63_7 C 0.0232(3) 0.7048(2) 0.7474(2)
H39_7 H 0.0235 0.6892 0.7613
Tb11_6 Tb 0.04608(2) 0.97762(2) 0.53352(2)
O12_6 O 0.99126(18) 0.92284(17) 0.55248(18)
C36_7 C 0.99693(15) 0.87208(16) 0.58478(17)
H22_7 H 0.9812 0.8737 0.5713
C37_7 C 0.99796(15) 0.84866(15) 0.60420(18)
H23_7 H 0.9829 0.8343 0.6040
C42_7 C 0.99623(11) 0.80882(15) 0.65543(18)
H26_7 H 0.9780 0.8171 0.6496
C43_7 C 0.99681(11) 0.78520(17) 0.67463(17)
H27_7 H 0.9790 0.7773 0.6820
H30_7 H 0.9887 0.7265 0.6892
O14_6 O 0.82716(17) 0.55248(18) 0.75874(18)
O15_7 O 0.81435(12) 0.56261(12) 0.71150(14)
C49_7 C 0.83075(19) 0.5653(2) 0.7333(3)
C50_7 C 0.85691(13) 0.58509(15) 0.73104(15)
C51_7 C 0.87792(16) 0.58478(17) 0.75307(15)
H31_7 H 0.8763 0.5713 0.7688
C52_7 C 0.90134(15) 0.60420(18) 0.75204(15)
H32_7 H 0.9157 0.6040 0.7671
C53_7 C 0.90375(14) 0.62393(16) 0.72897(16)
C54_7 C 0.88274(16) 0.62423(17) 0.70695(15)
H33_7 H 0.8844 0.6377 0.6912
C55_7 C 0.85932(15) 0.60481(17) 0.70798(15)
H34_7 H 0.8450 0.6050 0.6929
C56_7 C 0.92967(14) 0.64467(16) 0.72772(14)
C57_7 C 0.94118(15) 0.65543(18) 0.75377(11)
H35_7 H 0.9329 0.6496 0.7720
C58_7 C 0.96480(17) 0.67463(17) 0.75319(11)
H36_7 H 0.9727 0.6820 0.7710
C59_7 C 0.97690(14) 0.68308(16) 0.72657(13)
C60_7 C 0.96538(15) 0.67233(18) 0.70052(11)
H37_7 H 0.9737 0.6781 0.6823
C61_7 C 0.94177(16) 0.65313(17) 0.70109(11)
H38_7 H 0.9339 0.6458 0.6833
Tb5_4 Tb 0.79608(2) 0.52238(2) 0.78352(2)
Tb10_6 Tb 0.77238(2) 0.53352(2) 0.70392(2)
O2_6 O 0.00269(12) 0.51426(12) 0.95483(11)
H2_6 H 0.0037 0.5196 0.9366
O7_6 O 0.0383(4) 0.4385(4) 0.9050(4)
C21_6 C 0.0493(4) 0.4199(5) 0.8889(5)
H13_6 H 0.0421 0.4011 0.8941
N1_6 N 0.0679(3) 0.4173(3) 0.8667(4)
C22_6 C 0.0579(7) 0.4142(8) 0.8370(4)
H14_6 H 0.0439 0.3979 0.8358
H15_6 H 0.0747 0.4100 0.8242
H16_6 H 0.0484 0.4323 0.8307
C23_6 C 0.0995(4) 0.4167(7) 0.8682(6)
H17_6 H 0.1065 0.4341 0.8788
H18_6 H 0.1076 0.4167 0.8484
H19_6 H 0.1059 0.3990 0.8786
H48_6 H 0.0196 0.3134 0.7463
Tb13_4 Tb 0.04608(2) 0.27238(2) 0.71648(2)
O26_6 O 0.04517(11) 0.49731(12) 0.98574(12)
O34_6 O 0.06435(12) 0.43739(12) 0.96150(14)
O3_6 O 0.9907(2) 0.47009(18) 0.9171(2)
O4_6 O 0.95267(13) 0.50177(14) 0.91945(14)
C1_6 C 0.9655(2) 0.48034(19) 0.90916(19)
C2_6 C 0.9531(2) 0.4650(2) 0.8842(2)
C3_6 C 0.9629(2) 0.4400(2) 0.8716(2)
H3_6 H 0.9795 0.4295 0.8783
C4_6 C 0.9457(2) 0.4312(2) 0.8476(2)
C5_6 C 0.9222(2) 0.4497(2) 0.8422(2)
S1_6 S 0.92109(5) 0.47820(5) 0.86774(5)
O8_6 O 0.8329(2) 0.4907(2) 0.77991(18)
O9_5 O 0.83055(14) 0.45267(13) 0.74823(14)
C24_6 C 0.84084(19) 0.4655(2) 0.76966(19)
C25_6 C 0.8658(2) 0.4531(2) 0.7850(2)
C26_6 C 0.8784(2) 0.4629(2) 0.8100(2)
H20_6 H 0.8717 0.4795 0.8205
C27_6 C 0.9024(2) 0.4457(2) 0.8188(2)
C28_6 C 0.9078(2) 0.4222(2) 0.8003(2)
S2_6 S 0.88226(5) 0.42109(5) 0.77180(5)
O10_6 O 0.97009(18) 0.3329(2) 0.7593(2)
C29_6 C 0.98034(19) 0.34084(19) 0.7845(2)
C30_6 C 0.9650(2) 0.3658(2) 0.7969(2)
C31_6 C 0.9400(2) 0.3784(2) 0.7871(2)
H21_6 H 0.9295 0.3717 0.7705
C32_6 C 0.9312(2) 0.4024(2) 0.8043(2)
C33_6 C 0.9497(2) 0.4078(2) 0.8278(2)
S3_6 S 0.97820(5) 0.38226(5) 0.82891(5)
O16_5 O 0.79517(11) 0.50269(12) 0.73574(12)
H40_6 H 0.8134 0.5037 0.7304
O17_6 O 0.8450(4) 0.5383(4) 0.8115(4)
C64_6 C 0.8611(5) 0.5493(4) 0.8301(5)
H41_6 H 0.8559 0.5421 0.8489
N2_6 N 0.8833(4) 0.5679(3) 0.8327(3)
C65_6 C 0.9130(4) 0.5579(7) 0.8358(8)
H42_6 H 0.9142 0.5439 0.8521
H43_6 H 0.9258 0.5747 0.8400
H44_6 H 0.9193 0.5484 0.8177
C66_6 C 0.8818(6) 0.5995(4) 0.8333(7)
H45_6 H 0.8712 0.6065 0.8159
H46_6 H 0.9016 0.6076 0.8333
H47_6 H 0.8714 0.6059 0.8510
O19_6 O 0.9385(4) 0.3450(4) 0.7117(4)
C67_6 C 0.9199(5) 0.3611(5) 0.7007(4)
H49_6 H 0.9011 0.3559 0.7079
N3_6 N 0.9173(3) 0.3833(4) 0.6821(3)
C68_6 C 0.9142(8) 0.4130(4) 0.6921(7)
H50_6 H 0.8979 0.4142 0.7061
H51_6 H 0.9100 0.4258 0.6753
H52_6 H 0.9323 0.4193 0.7016
C69_6 C 0.9167(7) 0.3818(6) 0.6505(4)
H53_6 H 0.9341 0.3712 0.6435
H54_6 H 0.9167 0.4016 0.6424
H55_6 H 0.8990 0.3714 0.6441
Tb6_5 Tb 0.78352(2) 0.45392(2) 0.72762(2)
O20_5 O 0.77426(17) 0.47574(17) 0.77426(17)
O22_5 O 0.95483(11) 0.24731(12) 0.73574(12)
O24_6 O 0.74731(12) 0.51426(12) 0.79517(11)
O25_6 O 0.99731(12) 0.26426(12) 0.70483(11)
O27_6 O 0.76426(12) 0.54517(11) 0.75269(12)
O28_5 O 0.91945(14) 0.29733(13) 0.74823(14)
O30_6 O 0.79733(13) 0.50177(14) 0.83055(14)
O32_4 O 0.99126(18) 0.32716(17) 0.69752(18)
O33_6 O 0.93739(12) 0.28850(14) 0.68565(12)
O35_6 O 0.78850(14) 0.56435(12) 0.81261(12)
H2_7 H 0.2304 0.3134 0.5037
O3_7 O 0.27991(18) 0.3329(2) 0.4907(2)
C1_7 C 0.26966(19) 0.34084(19) 0.4655(2)
C2_7 C 0.2850(2) 0.3658(2) 0.4531(2)
C3_7 C 0.3100(2) 0.3784(2) 0.4629(2)
H3_7 H 0.3205 0.3717 0.4795
C4_7 C 0.3188(2) 0.4024(2) 0.4457(2)
C5_7 C 0.3003(2) 0.4078(2) 0.4222(2)
S1_7 S 0.27180(5) 0.38226(5) 0.42109(5)
O7_7 O 0.3115(4) 0.3450(4) 0.5383(4)
C21_7 C 0.3301(5) 0.3611(5) 0.5493(4)
H13_7 H 0.3489 0.3559 0.5421
N1_7 N 0.3327(3) 0.3833(4) 0.5679(3)
C22_7 C 0.3358(8) 0.4130(4) 0.5579(7)
H14_7 H 0.3521 0.4142 0.5439
H15_7 H 0.3400 0.4258 0.5747
H16_7 H 0.3177 0.4193 0.5484
C23_7 C 0.3333(7) 0.3818(6) 0.5995(4)
H17_7 H 0.3159 0.3712 0.6065
H18_7 H 0.3333 0.4016 0.6076
H19_7 H 0.3510 0.3714 0.6059
O8_7 O 0.2593(2) 0.47009(18) 0.3329(2)
O9_6 O 0.29733(13) 0.50177(14) 0.33055(14)
C24_7 C 0.2845(2) 0.48034(19) 0.34084(19)
C25_7 C 0.2969(2) 0.4650(2) 0.3658(2)
C26_7 C 0.2871(2) 0.4400(2) 0.3784(2)
H20_7 H 0.2705 0.4295 0.3717
C27_7 C 0.3043(2) 0.4312(2) 0.4024(2)
C28_7 C 0.3278(2) 0.4497(2) 0.4078(2)
S2_7 S 0.32891(5) 0.47820(5) 0.38226(5)
O10_7 O 0.4171(2) 0.4907(2) 0.47009(18)
O11_6 O 0.41945(14) 0.45267(13) 0.50177(14)
C29_7 C 0.40916(19) 0.4655(2) 0.48034(19)
C30_7 C 0.3842(2) 0.4531(2) 0.4650(2)
C31_7 C 0.3716(2) 0.4629(2) 0.4400(2)
H21_7 H 0.3783 0.4795 0.4295
C32_7 C 0.3476(2) 0.4457(2) 0.4312(2)
C33_7 C 0.3422(2) 0.4222(2) 0.4497(2)
S3_7 S 0.36774(5) 0.42109(5) 0.47820(5)
O16_6 O 0.24731(12) 0.51426(12) 0.29517(11)
H40_7 H 0.2463 0.5196 0.3134
O17_7 O 0.2117(4) 0.4385(4) 0.3450(4)
C64_7 C 0.2007(4) 0.4199(5) 0.3611(5)
H41_7 H 0.2079 0.4011 0.3559
N2_7 N 0.1821(3) 0.4173(3) 0.3833(4)
C65_7 C 0.1921(7) 0.4142(8) 0.4130(4)
H42_7 H 0.2061 0.3979 0.4142
H43_7 H 0.1753 0.4100 0.4258
H44_7 H 0.2016 0.4323 0.4193
C66_7 C 0.1505(4) 0.4167(7) 0.3818(6)
H45_7 H 0.1435 0.4341 0.3712
H46_7 H 0.1424 0.4167 0.4016
H47_7 H 0.1441 0.3990 0.3714
O18_6 O 0.45483(11) 0.50269(12) 0.51426(12)
H48_7 H 0.4366 0.5037 0.5196
O19_7 O 0.4050(4) 0.5383(4) 0.4385(4)
C67_7 C 0.3889(5) 0.5493(4) 0.4199(5)
H49_7 H 0.3941 0.5421 0.4011
N3_7 N 0.3667(4) 0.5679(3) 0.4173(3)
C68_7 C 0.3370(4) 0.5579(7) 0.4142(8)
H50_7 H 0.3358 0.5439 0.3979
H51_7 H 0.3242 0.5747 0.4100
H52_7 H 0.3307 0.5484 0.4323
C69_7 C 0.3682(6) 0.5995(4) 0.4167(7)
H53_7 H 0.3788 0.6065 0.4341
H54_7 H 0.3484 0.6076 0.4167
H55_7 H 0.3786 0.6059 0.3990
Tb8_5 Tb 0.46648(2) 0.45392(2) 0.52238(2)
Tb12_5 Tb 0.21648(2) 0.54608(2) 0.27238(2)
O21_5 O 0.47574(17) 0.47574(17) 0.47574(17)
O22_6 O 0.50269(12) 0.51426(12) 0.45483(11)
O23_6 O 0.29517(11) 0.24731(12) 0.51426(12)
O25_7 O 0.48574(12) 0.54517(11) 0.49731(12)
O26_7 O 0.25269(12) 0.26426(12) 0.54517(11)
O27_7 O 0.20483(11) 0.49731(12) 0.26426(12)
O28_6 O 0.45267(13) 0.50177(14) 0.41945(14)
O29_6 O 0.33055(14) 0.29733(13) 0.50177(14)
O31_5 O 0.19752(18) 0.49126(18) 0.32716(17)
O33_7 O 0.46150(14) 0.56435(12) 0.43739(12)
O34_7 O 0.31261(12) 0.28850(14) 0.56435(12)
O35_7 O 0.18565(12) 0.43739(12) 0.28850(14)
O2_7 O 0.00269(12) 0.73574(12) 0.29517(11)
H2_8 H 0.0037 0.7304 0.3134
O7_8 O 0.0383(4) 0.8115(4) 0.3450(4)
C21_8 C 0.0493(4) 0.8301(5) 0.3611(5)
H13_8 H 0.0421 0.8489 0.3559
N1_8 N 0.0679(3) 0.8327(3) 0.3833(4)
C22_8 C 0.0579(7) 0.8358(8) 0.4130(4)
H14_8 H 0.0439 0.8521 0.4142
H15_8 H 0.0747 0.8400 0.4258
H16_8 H 0.0484 0.8177 0.4193
C23_8 C 0.0995(4) 0.8333(7) 0.3818(6)
H17_8 H 0.1065 0.8159 0.3712
H18_8 H 0.1076 0.8333 0.4016
H19_8 H 0.1059 0.8510 0.3714
H48_8 H 0.0196 0.9366 0.5037
O26_8 O 0.04517(11) 0.75269(12) 0.26426(12)
O34_8 O 0.06435(12) 0.81261(12) 0.28850(14)
O22_7 O 0.95483(11) 0.00269(12) 0.51426(12)
O3_8 O 0.9907(2) 0.77991(18) 0.3329(2)
O4_7 O 0.95267(13) 0.74823(14) 0.33055(14)
C1_8 C 0.9655(2) 0.76966(19) 0.34084(19)
C2_8 C 0.9531(2) 0.7850(2) 0.3658(2)
C3_8 C 0.9629(2) 0.8100(2) 0.3784(2)
H3_8 H 0.9795 0.8205 0.3717
C4_8 C 0.9457(2) 0.8188(2) 0.4024(2)
C5_8 C 0.9222(2) 0.8003(2) 0.4078(2)
S1_8 S 0.92109(5) 0.77180(5) 0.38226(5)
O8_8 O 0.8329(2) 0.7593(2) 0.47009(18)
O9_7 O 0.83055(14) 0.79733(13) 0.50177(14)
C24_8 C 0.84084(19) 0.7845(2) 0.48034(19)
C25_8 C 0.8658(2) 0.7969(2) 0.4650(2)
C26_8 C 0.8784(2) 0.7871(2) 0.4400(2)
H20_8 H 0.8717 0.7705 0.4295
C27_8 C 0.9024(2) 0.8043(2) 0.4312(2)
C28_8 C 0.9078(2) 0.8278(2) 0.4497(2)
S2_8 S 0.88226(5) 0.82891(5) 0.47820(5)
O10_8 O 0.97009(18) 0.9171(2) 0.4907(2)
C29_8 C 0.98034(19) 0.90916(19) 0.4655(2)
C30_8 C 0.9650(2) 0.8842(2) 0.4531(2)
C31_8 C 0.9400(2) 0.8716(2) 0.4629(2)
H21_8 H 0.9295 0.8783 0.4795
C32_8 C 0.9312(2) 0.8476(2) 0.4457(2)
C33_8 C 0.9497(2) 0.8422(2) 0.4222(2)
S3_8 S 0.97820(5) 0.86774(5) 0.42109(5)
Tb2_4 Tb 0.79608(2) 0.72762(2) 0.46648(2)
O16_7 O 0.79517(11) 0.74731(12) 0.51426(12)
H40_8 H 0.8134 0.7463 0.5196
O17_8 O 0.8450(4) 0.7117(4) 0.4385(4)
C64_8 C 0.8611(5) 0.7007(4) 0.4199(5)
H41_8 H 0.8559 0.7079 0.4011
N2_8 N 0.8833(4) 0.6821(3) 0.4173(3)
C65_8 C 0.9130(4) 0.6921(7) 0.4142(8)
H42_8 H 0.9142 0.7061 0.3979
H43_8 H 0.9258 0.6753 0.4100
H44_8 H 0.9193 0.7016 0.4323
C66_8 C 0.8818(6) 0.6505(4) 0.4167(7)
H45_8 H 0.8712 0.6435 0.4341
H46_8 H 0.9016 0.6424 0.4167
H47_8 H 0.8714 0.6441 0.3990
O19_8 O 0.9385(4) 0.9050(4) 0.5383(4)
C67_8 C 0.9199(5) 0.8889(5) 0.5493(4)
H49_8 H 0.9011 0.8941 0.5421
N3_8 N 0.9173(3) 0.8667(4) 0.5679(3)
C68_8 C 0.9142(8) 0.8370(4) 0.5579(7)
H50_8 H 0.8979 0.8358 0.5439
H51_8 H 0.9100 0.8242 0.5747
H52_8 H 0.9323 0.8307 0.5484
C69_8 C 0.9167(7) 0.8682(6) 0.5995(4)
H53_8 H 0.9341 0.8788 0.6065
H54_8 H 0.9167 0.8484 0.6076
H55_8 H 0.8990 0.8786 0.6059
Tb6_6 Tb 0.78352(2) 0.79608(2) 0.52238(2)
Tb12_6 Tb 0.77238(2) 0.71648(2) 0.54608(2)
O20_6 O 0.77426(17) 0.77426(17) 0.47574(17)
O24_7 O 0.74731(12) 0.73574(12) 0.45483(11)
O25_8 O 0.99731(12) 0.98574(12) 0.54517(11)
O27_8 O 0.76426(12) 0.70483(11) 0.49731(12)
O28_7 O 0.91945(14) 0.95267(13) 0.50177(14)
O30_7 O 0.79733(13) 0.74823(14) 0.41945(14)
O31_6 O 0.82716(17) 0.69752(18) 0.49126(18)
O33_8 O 0.93739(12) 0.96150(14) 0.56435(12)
O35_8 O 0.78850(14) 0.68565(12) 0.43739(12)
O6_8 O 0.03850(14) 0.31435(12) 0.68739(12)
C6_8 C 0.0167(3) 0.33075(19) 0.6847(2)
C7_8 C 0.01896(15) 0.35691(13) 0.66491(15)
C10_8 C 0.02103(16) 0.40375(14) 0.62607(16)
C11_8 C 0.04305(15) 0.38274(16) 0.62577(17)
H6_8 H 0.0588 0.3844 0.6123
C12_8 C 0.04202(15) 0.35932(15) 0.64519(17)
H7_8 H 0.0571 0.3450 0.6450
C13_8 C 0.02228(14) 0.42967(14) 0.60533(16)
C16_8 C 0.02343(13) 0.47690(14) 0.56692(16)
C17_8 C 0.04948(11) 0.46538(15) 0.57767(18)
H10_8 H 0.0677 0.4737 0.5719
C18_8 C 0.04891(11) 0.44177(16) 0.59687(17)
H11_8 H 0.0667 0.4339 0.6042
C19_8 C 0.0239(3) 0.5013(2) 0.5444(2)
C20_8 C 0.0026(2) 0.5232(3) 0.5452(2)
C47_8 C 0.0013(2) 0.5444(2) 0.5239(3)
C48_8 C 0.0232(3) 0.5452(2) 0.5026(2)
H30_8 H 0.0235 0.5608 0.4887
O15_8 O 0.18739(12) 0.53850(14) 0.31435(12)
C49_8 C 0.1847(2) 0.5167(3) 0.33075(19)
C50_8 C 0.16491(15) 0.51896(15) 0.35691(13)
C51_8 C 0.16522(17) 0.49693(15) 0.37792(16)
H31_8 H 0.1787 0.4812 0.3763
C52_8 C 0.14580(18) 0.49796(15) 0.40134(15)
H32_8 H 0.1460 0.4829 0.4157
C53_8 C 0.12607(16) 0.52103(16) 0.40375(14)
C54_8 C 0.12577(17) 0.54305(15) 0.38274(16)
H33_8 H 0.1123 0.5588 0.3844
C55_8 C 0.14519(17) 0.54202(15) 0.35932(15)
H34_8 H 0.1450 0.5571 0.3450
C56_8 C 0.10533(16) 0.52228(14) 0.42967(14)
C57_8 C 0.09457(18) 0.49623(11) 0.44118(15)
H35_8 H 0.1004 0.4780 0.4329
C58_8 C 0.07537(17) 0.49681(11) 0.46480(17)
H36_8 H 0.0680 0.4790 0.4727
C59_8 C 0.06692(16) 0.52343(13) 0.47690(14)
C60_8 C 0.07767(18) 0.54948(11) 0.46538(15)
H37_8 H 0.0719 0.5677 0.4737
C61_8 C 0.09687(17) 0.54891(11) 0.44177(16)
H38_8 H 0.1042 0.5667 0.4339
C62_8 C 0.0444(2) 0.5239(3) 0.5013(2)
C63_8 C 0.0452(2) 0.5026(2) 0.5232(3)
H39_8 H 0.0608 0.4887 0.5235
C8_8 C 0.99693(15) 0.37792(16) 0.66522(17)
H4_8 H 0.9812 0.3763 0.6787
C9_8 C 0.99796(15) 0.40134(15) 0.64580(18)
H5_8 H 0.9829 0.4157 0.6460
C14_8 C 0.99623(11) 0.44118(15) 0.59457(18)
H8_8 H 0.9780 0.4329 0.6004
C15_8 C 0.99681(11) 0.46480(17) 0.57537(17)
H9_8 H 0.9790 0.4727 0.5680
H12_8 H 0.9887 0.5235 0.5608
O13_8 O 0.81435(12) 0.68739(12) 0.53850(14)
C34_8 C 0.83075(19) 0.6847(2) 0.5167(3)
C35_8 C 0.85691(13) 0.66491(15) 0.51896(15)
C36_8 C 0.87792(16) 0.66522(17) 0.49693(15)
H22_8 H 0.8763 0.6787 0.4812
C37_8 C 0.90134(15) 0.64580(18) 0.49796(15)
H23_8 H 0.9157 0.6460 0.4829
C38_8 C 0.90375(14) 0.62607(16) 0.52103(16)
C39_8 C 0.88274(16) 0.62577(17) 0.54305(15)
H24_8 H 0.8844 0.6123 0.5588
C40_8 C 0.85932(15) 0.64519(17) 0.54202(15)
H25_8 H 0.8450 0.6450 0.5571
C41_8 C 0.92967(14) 0.60533(16) 0.52228(14)
C42_8 C 0.94118(15) 0.59457(18) 0.49623(11)
H26_8 H 0.9329 0.6004 0.4780
C43_8 C 0.96480(17) 0.57537(17) 0.49681(11)
H27_8 H 0.9727 0.5680 0.4790
C44_8 C 0.97690(14) 0.56692(16) 0.52343(13)
C45_8 C 0.96538(15) 0.57767(18) 0.54948(11)
H28_8 H 0.9737 0.5719 0.5677
C46_8 C 0.94177(16) 0.59687(17) 0.54891(11)
H29_8 H 0.9339 0.6042 0.5667
H1_14 H 0.7853 0.4647 0.7853
Tb7_14 Tb 0.72762(2) 0.46648(2) 0.79608(2)
H1_15 H 0.4647 0.4647 0.4647
Tb7_15 Tb 0.52238(2) 0.46648(2) 0.45392(2)
H1_16 H 0.7853 0.7853 0.4647
Tb7_16 Tb 0.72762(2) 0.78352(2) 0.45392(2)
O22_8 O 0.73574(12) 0.29517(11) 0.00269(12)
H2_9 H 0.9366 0.2463 0.7304
O3_9 O 0.9171(2) 0.2593(2) 0.77991(18)
C1_9 C 0.90916(19) 0.2845(2) 0.76966(19)
C2_9 C 0.8842(2) 0.2969(2) 0.7850(2)
C3_9 C 0.8716(2) 0.2871(2) 0.8100(2)
H3_9 H 0.8783 0.2705 0.8205
C4_9 C 0.8476(2) 0.3043(2) 0.8188(2)
C5_9 C 0.8422(2) 0.3278(2) 0.8003(2)
S1_9 S 0.86774(5) 0.32891(5) 0.77180(5)
O5_3 O 0.92284(17) 0.19752(18) 0.75874(18)
O6_9 O 0.93565(12) 0.18739(12) 0.71150(14)
C6_9 C 0.91925(19) 0.1847(2) 0.7333(3)
C7_9 C 0.89309(13) 0.16491(15) 0.73104(15)
C8_9 C 0.87208(16) 0.16522(17) 0.75307(15)
H4_9 H 0.8737 0.1787 0.7688
C9_9 C 0.84866(15) 0.14580(18) 0.75204(15)
H5_9 H 0.8343 0.1460 0.7671
C10_9 C 0.84625(14) 0.12607(16) 0.72897(16)
C11_9 C 0.86726(16) 0.12577(17) 0.70695(15)
H6_9 H 0.8656 0.1123 0.6912
C12_9 C 0.89068(15) 0.14519(17) 0.70798(15)
H7_9 H 0.9050 0.1450 0.6929
C13_9 C 0.82033(14) 0.10533(16) 0.72772(14)
C14_9 C 0.80882(15) 0.09457(18) 0.75377(11)
H8_9 H 0.8171 0.1004 0.7720
C15_9 C 0.78520(17) 0.07537(17) 0.75319(11)
H9_9 H 0.7773 0.0680 0.7710
C16_9 C 0.77310(14) 0.06692(16) 0.72657(13)
C17_9 C 0.78462(15) 0.07767(18) 0.70052(11)
H10_9 H 0.7763 0.0719 0.6823
C18_9 C 0.80823(16) 0.09687(17) 0.70109(11)
H11_9 H 0.8161 0.1042 0.6833
C19_9 C 0.7487(2) 0.0444(2) 0.7261(3)
C20_9 C 0.7268(3) 0.0452(2) 0.7474(2)
H12_9 H 0.7265 0.0608 0.7613
O7_9 O 0.9050(4) 0.2117(4) 0.8115(4)
C21_9 C 0.8889(5) 0.2007(4) 0.8301(5)
H13_9 H 0.8941 0.2079 0.8489
N1_9 N 0.8667(4) 0.1821(3) 0.8327(3)
C22_9 C 0.8370(4) 0.1921(7) 0.8358(8)
H14_9 H 0.8358 0.2061 0.8521
H15_9 H 0.8242 0.1753 0.8400
H16_9 H 0.8307 0.2016 0.8177
C23_9 C 0.8682(6) 0.1505(4) 0.8333(7)
H17_9 H 0.8788 0.1435 0.8159
H18_9 H 0.8484 0.1424 0.8333
H19_9 H 0.8786 0.1441 0.8510
O8_9 O 0.77991(18) 0.4171(2) 0.7593(2)
O9_8 O 0.74823(14) 0.41945(14) 0.79733(13)
C24_9 C 0.76966(19) 0.40916(19) 0.7845(2)
C25_9 C 0.7850(2) 0.3842(2) 0.7969(2)
C26_9 C 0.8100(2) 0.3716(2) 0.7871(2)
H20_9 H 0.8205 0.3783 0.7705
C27_9 C 0.8188(2) 0.3476(2) 0.8043(2)
C28_9 C 0.8003(2) 0.3422(2) 0.8278(2)
S2_9 S 0.77180(5) 0.36774(5) 0.82891(5)
O10_9 O 0.7593(2) 0.27991(18) 0.9171(2)
C29_9 C 0.7845(2) 0.26966(19) 0.90916(19)
C30_9 C 0.7969(2) 0.2850(2) 0.8842(2)
C31_9 C 0.7871(2) 0.3100(2) 0.8716(2)
H21_9 H 0.7705 0.3205 0.8783
C32_9 C 0.8043(2) 0.3188(2) 0.8476(2)
C33_9 C 0.8278(2) 0.3003(2) 0.8422(2)
S3_9 S 0.82891(5) 0.27180(5) 0.86774(5)
O13_9 O 0.56261(12) 0.03850(14) 0.93565(12)
C34_9 C 0.5653(2) 0.0167(3) 0.91925(19)
C35_9 C 0.58509(15) 0.01896(15) 0.89309(13)
C38_9 C 0.62393(16) 0.02103(16) 0.84625(14)
C39_9 C 0.62423(17) 0.04305(15) 0.86726(16)
H24_9 H 0.6377 0.0588 0.8656
C40_9 C 0.60481(17) 0.04202(15) 0.89068(15)
H25_9 H 0.6050 0.0571 0.9050
C41_9 C 0.64467(16) 0.02228(14) 0.82033(14)
C44_9 C 0.68308(16) 0.02343(13) 0.77310(14)
C45_9 C 0.67233(18) 0.04948(11) 0.78462(15)
H28_9 H 0.6781 0.0677 0.7763
C46_9 C 0.65313(17) 0.04891(11) 0.80823(16)
H29_9 H 0.6458 0.0667 0.8161
C47_9 C 0.7056(2) 0.0239(3) 0.7487(2)
C48_9 C 0.7048(2) 0.0026(2) 0.7268(3)
C62_9 C 0.7261(3) 0.0013(2) 0.7056(2)
C63_9 C 0.7474(2) 0.0232(3) 0.7048(2)
H39_9 H 0.7613 0.0235 0.6892
O16_8 O 0.73574(12) 0.45483(11) 0.74731(12)
H40_9 H 0.7304 0.4366 0.7463
O17_9 O 0.8115(4) 0.4050(4) 0.7117(4)
C64_9 C 0.8301(5) 0.3889(5) 0.7007(4)
H41_9 H 0.8489 0.3941 0.7079
N2_9 N 0.8327(3) 0.3667(4) 0.6821(3)
C65_9 C 0.8358(8) 0.3370(4) 0.6921(7)
H42_9 H 0.8521 0.3358 0.7061
H43_9 H 0.8400 0.3242 0.6753
H44_9 H 0.8177 0.3307 0.7016
C66_9 C 0.8333(7) 0.3682(6) 0.6505(4)
H45_9 H 0.8159 0.3788 0.6435
H46_9 H 0.8333 0.3484 0.6424
H47_9 H 0.8510 0.3786 0.6441
H48_9 H 0.7463 0.2304 0.9366
O19_9 O 0.7117(4) 0.3115(4) 0.9050(4)
C67_9 C 0.7007(4) 0.3301(5) 0.8889(5)
H49_9 H 0.7079 0.3489 0.8941
N3_9 N 0.6821(3) 0.3327(3) 0.8667(4)
C68_9 C 0.6921(7) 0.3358(8) 0.8370(4)
H50_9 H 0.7061 0.3521 0.8358
H51_9 H 0.6753 0.3400 0.8242
H52_9 H 0.7016 0.3177 0.8307
C69_9 C 0.6505(4) 0.3333(7) 0.8682(6)
H53_9 H 0.6435 0.3159 0.8788
H54_9 H 0.6424 0.3333 0.8484
H55_9 H 0.6441 0.3510 0.8786
Tb11_7 Tb 0.53352(2) 0.04608(2) 0.97762(2)
Tb12_7 Tb 0.70392(2) 0.47762(2) 0.71648(2)
Tb13_5 Tb 0.71648(2) 0.20392(2) 0.97762(2)
Tb14_3 Tb 0.97762(2) 0.21648(2) 0.70392(2)
O25_9 O 0.70483(11) 0.25269(12) 0.98574(12)
O26_9 O 0.98574(12) 0.20483(11) 0.75269(12)
O27_9 O 0.75269(12) 0.48574(12) 0.70483(11)
O28_8 O 0.74823(14) 0.33055(14) 0.95267(13)
O31_7 O 0.75874(18) 0.42284(17) 0.69752(18)
O32_5 O 0.69752(18) 0.25874(18) 0.92284(17)
O33_9 O 0.68565(12) 0.31261(12) 0.96150(14)
O34_9 O 0.96150(14) 0.18565(12) 0.81261(12)
O35_9 O 0.81261(12) 0.46150(14) 0.68565(12)
O12_7 O 0.55248(18) 0.99126(18) 0.92284(17)
C36_9 C 0.58478(17) 0.99693(15) 0.87208(16)
H22_9 H 0.5713 0.9812 0.8737
C37_9 C 0.60420(18) 0.99796(15) 0.84866(15)
H23_9 H 0.6040 0.9829 0.8343
C42_9 C 0.65543(18) 0.99623(11) 0.80882(15)
H26_9 H 0.6496 0.9780 0.8171
C43_9 C 0.67463(17) 0.99681(11) 0.78520(17)
H27_9 H 0.6820 0.9790 0.7773
H30_9 H 0.6892 0.9887 0.7265
O14_7 O 0.75874(18) 0.82716(17) 0.55248(18)
O15_9 O 0.71150(14) 0.81435(12) 0.56261(12)
C49_9 C 0.7333(3) 0.83075(19) 0.5653(2)
C50_9 C 0.73104(15) 0.85691(13) 0.58509(15)
C51_9 C 0.75307(15) 0.87792(16) 0.58478(17)
H31_9 H 0.7688 0.8763 0.5713
C52_9 C 0.75204(15) 0.90134(15) 0.60420(18)
H32_9 H 0.7671 0.9157 0.6040
C53_9 C 0.72897(16) 0.90375(14) 0.62393(16)
C54_9 C 0.70695(15) 0.88274(16) 0.62423(17)
H33_9 H 0.6912 0.8844 0.6377
C55_9 C 0.70798(15) 0.85932(15) 0.60481(17)
H34_9 H 0.6929 0.8450 0.6050
C56_9 C 0.72772(14) 0.92967(14) 0.64467(16)
C57_9 C 0.75377(11) 0.94118(15) 0.65543(18)
H35_9 H 0.7720 0.9329 0.6496
C58_9 C 0.75319(11) 0.96480(17) 0.67463(17)
H36_9 H 0.7710 0.9727 0.6820
C59_9 C 0.72657(13) 0.97690(14) 0.68308(16)
C60_9 C 0.70052(11) 0.96538(15) 0.67233(18)
H37_9 H 0.6823 0.9737 0.6781
C61_9 C 0.70109(11) 0.94177(16) 0.65313(17)
H38_9 H 0.6833 0.9339 0.6458
Tb10_7 Tb 0.70392(2) 0.77238(2) 0.53352(2)
O6_10 O 0.71150(14) 0.43565(12) 0.68739(12)
C6_10 C 0.7333(3) 0.41925(19) 0.6847(2)
C7_10 C 0.73104(15) 0.39309(13) 0.66491(15)
C8_10 C 0.75307(15) 0.37208(16) 0.66522(17)
H4_10 H 0.7688 0.3737 0.6787
C9_10 C 0.75204(15) 0.34866(15) 0.64580(18)
H5_10 H 0.7671 0.3343 0.6460
C10_10 C 0.72897(16) 0.34625(14) 0.62607(16)
C11_10 C 0.70695(15) 0.36726(16) 0.62577(17)
H6_10 H 0.6912 0.3656 0.6123
C12_10 C 0.70798(15) 0.39068(15) 0.64519(17)
H7_10 H 0.6929 0.4050 0.6450
C13_10 C 0.72772(14) 0.32033(14) 0.60533(16)
C14_10 C 0.75377(11) 0.30882(15) 0.59457(18)
H8_10 H 0.7720 0.3171 0.6004
C15_10 C 0.75319(11) 0.28520(17) 0.57537(17)
H9_10 H 0.7710 0.2773 0.5680
C16_10 C 0.72657(13) 0.27310(14) 0.56692(16)
C17_10 C 0.70052(11) 0.28462(15) 0.57767(18)
H10_10 H 0.6823 0.2763 0.5719
C18_10 C 0.70109(11) 0.30823(16) 0.59687(17)
H11_10 H 0.6833 0.3161 0.6042
C19_10 C 0.7261(3) 0.2487(2) 0.5444(2)
C20_10 C 0.7474(2) 0.2268(3) 0.5452(2)
H12_10 H 0.7613 0.2265 0.5608
O12_8 O 0.92284(17) 0.05248(18) 0.49126(18)
O13_10 O 0.93565(12) 0.06261(12) 0.53850(14)
C34_10 C 0.91925(19) 0.0653(2) 0.5167(3)
C35_10 C 0.89309(13) 0.08509(15) 0.51896(15)
C36_10 C 0.87208(16) 0.08478(17) 0.49693(15)
H22_10 H 0.8737 0.0713 0.4812
C37_10 C 0.84866(15) 0.10420(18) 0.49796(15)
H23_10 H 0.8343 0.1040 0.4829
C38_10 C 0.84625(14) 0.12393(16) 0.52103(16)
C39_10 C 0.86726(16) 0.12423(17) 0.54305(15)
H24_10 H 0.8656 0.1377 0.5588
C40_10 C 0.89068(15) 0.10481(17) 0.54202(15)
H25_10 H 0.9050 0.1050 0.5571
C41_10 C 0.82033(14) 0.14467(16) 0.52228(14)
C42_10 C 0.80882(15) 0.15543(18) 0.49623(11)
H26_10 H 0.8171 0.1496 0.4780
C43_10 C 0.78520(17) 0.17463(17) 0.49681(11)
H27_10 H 0.7773 0.1820 0.4790
C44_10 C 0.77310(14) 0.18308(16) 0.52343(13)
C45_10 C 0.78462(15) 0.17233(18) 0.54948(11)
H28_10 H 0.7763 0.1781 0.5677
C46_10 C 0.80823(16) 0.15313(17) 0.54891(11)
H29_10 H 0.8161 0.1458 0.5667
C47_10 C 0.7487(2) 0.2056(2) 0.5239(3)
C48_10 C 0.7268(3) 0.2048(2) 0.5026(2)
H30_10 H 0.7265 0.1892 0.4887
O14_8 O 0.55248(18) 0.25874(18) 0.32716(17)
O15_10 O 0.56261(12) 0.21150(14) 0.31435(12)
C49_10 C 0.5653(2) 0.2333(3) 0.33075(19)
C50_10 C 0.58509(15) 0.23104(15) 0.35691(13)
C51_10 C 0.58478(17) 0.25307(15) 0.37792(16)
H31_10 H 0.5713 0.2688 0.3763
C52_10 C 0.60420(18) 0.25204(15) 0.40134(15)
H32_10 H 0.6040 0.2671 0.4157
C53_10 C 0.62393(16) 0.22897(16) 0.40375(14)
C54_10 C 0.62423(17) 0.20695(15) 0.38274(16)
H33_10 H 0.6377 0.1912 0.3844
C55_10 C 0.60481(17) 0.20798(15) 0.35932(15)
H34_10 H 0.6050 0.1929 0.3450
C56_10 C 0.64467(16) 0.22772(14) 0.42967(14)
C57_10 C 0.65543(18) 0.25377(11) 0.44118(15)
H35_10 H 0.6496 0.2720 0.4329
C58_10 C 0.67463(17) 0.25319(11) 0.46480(17)
H36_10 H 0.6820 0.2710 0.4727
C59_10 C 0.68308(16) 0.22657(13) 0.47690(14)
C60_10 C 0.67233(18) 0.20052(11) 0.46538(15)
H37_10 H 0.6781 0.1823 0.4737
C61_10 C 0.65313(17) 0.20109(11) 0.44177(16)
H38_10 H 0.6458 0.1833 0.4339
C62_10 C 0.7056(2) 0.2261(3) 0.5013(2)
C63_10 C 0.7048(2) 0.2474(2) 0.5232(3)
H39_10 H 0.6892 0.2613 0.5235
Tb10_8 Tb 0.53352(2) 0.20392(2) 0.27238(2)
Tb11_8 Tb 0.97762(2) 0.03352(2) 0.54608(2)
O6_11 O 0.68739(12) 0.21150(14) 0.93565(12)
C6_11 C 0.6847(2) 0.2333(3) 0.91925(19)
C7_11 C 0.66491(15) 0.23104(15) 0.89309(13)
C8_11 C 0.66522(17) 0.25307(15) 0.87208(16)
H4_11 H 0.6787 0.2688 0.8737
C9_11 C 0.64580(18) 0.25204(15) 0.84866(15)
H5_11 H 0.6460 0.2671 0.8343
C10_11 C 0.62607(16) 0.22897(16) 0.84625(14)
C11_11 C 0.62577(17) 0.20695(15) 0.86726(16)
H6_11 H 0.6123 0.1912 0.8656
C12_11 C 0.64519(17) 0.20798(15) 0.89068(15)
H7_11 H 0.6450 0.1929 0.9050
C13_11 C 0.60533(16) 0.22772(14) 0.82033(14)
C14_11 C 0.59457(18) 0.25377(11) 0.80882(15)
H8_11 H 0.6004 0.2720 0.8171
C15_11 C 0.57537(17) 0.25319(11) 0.78520(17)
H9_11 H 0.5680 0.2710 0.7773
C16_11 C 0.56692(16) 0.22657(13) 0.77310(14)
C17_11 C 0.57767(18) 0.20052(11) 0.78462(15)
H10_11 H 0.5719 0.1823 0.7763
C18_11 C 0.59687(17) 0.20109(11) 0.80823(16)
H11_11 H 0.6042 0.1833 0.8161
C19_11 C 0.5444(2) 0.2261(3) 0.7487(2)
C20_11 C 0.5452(2) 0.2474(2) 0.7268(3)
H12_11 H 0.5608 0.2613 0.7265
O12_9 O 0.49126(18) 0.42284(17) 0.55248(18)
O13_11 O 0.53850(14) 0.43565(12) 0.56261(12)
C34_11 C 0.5167(3) 0.41925(19) 0.5653(2)
C35_11 C 0.51896(15) 0.39309(13) 0.58509(15)
C36_11 C 0.49693(15) 0.37208(16) 0.58478(17)
H22_11 H 0.4812 0.3737 0.5713
C37_11 C 0.49796(15) 0.34866(15) 0.60420(18)
H23_11 H 0.4829 0.3343 0.6040
C38_11 C 0.52103(16) 0.34625(14) 0.62393(16)
C39_11 C 0.54305(15) 0.36726(16) 0.62423(17)
H24_11 H 0.5588 0.3656 0.6377
C40_11 C 0.54202(15) 0.39068(15) 0.60481(17)
H25_11 H 0.5571 0.4050 0.6050
C41_11 C 0.52228(14) 0.32033(14) 0.64467(16)
C42_11 C 0.49623(11) 0.30882(15) 0.65543(18)
H26_11 H 0.4780 0.3171 0.6496
C43_11 C 0.49681(11) 0.28520(17) 0.67463(17)
H27_11 H 0.4790 0.2773 0.6820
C44_11 C 0.52343(13) 0.27310(14) 0.68308(16)
C45_11 C 0.54948(11) 0.28462(15) 0.67233(18)
H28_11 H 0.5677 0.2763 0.6781
C46_11 C 0.54891(11) 0.30823(16) 0.65313(17)
H29_11 H 0.5667 0.3161 0.6458
C47_11 C 0.5239(3) 0.2487(2) 0.7056(2)
C48_11 C 0.5026(2) 0.2268(3) 0.7048(2)
H30_11 H 0.4887 0.2265 0.6892
O14_9 O 0.32716(17) 0.05248(18) 0.75874(18)
O15_11 O 0.31435(12) 0.06261(12) 0.71150(14)
C49_11 C 0.33075(19) 0.0653(2) 0.7333(3)
C50_11 C 0.35691(13) 0.08509(15) 0.73104(15)
C51_11 C 0.37792(16) 0.08478(17) 0.75307(15)
H31_11 H 0.3763 0.0713 0.7688
C52_11 C 0.40134(15) 0.10420(18) 0.75204(15)
H32_11 H 0.4157 0.1040 0.7671
C53_11 C 0.40375(14) 0.12393(16) 0.72897(16)
C54_11 C 0.38274(16) 0.12423(17) 0.70695(15)
H33_11 H 0.3844 0.1377 0.6912
C55_11 C 0.35932(15) 0.10481(17) 0.70798(15)
H34_11 H 0.3450 0.1050 0.6929
C56_11 C 0.42967(14) 0.14467(16) 0.72772(14)
C57_11 C 0.44118(15) 0.15543(18) 0.75377(11)
H35_11 H 0.4329 0.1496 0.7720
C58_11 C 0.46480(17) 0.17463(17) 0.75319(11)
H36_11 H 0.4727 0.1820 0.7710
C59_11 C 0.47690(14) 0.18308(16) 0.72657(13)
C60_11 C 0.46538(15) 0.17233(18) 0.70052(11)
H37_11 H 0.4737 0.1781 0.6823
C61_11 C 0.44177(16) 0.15313(17) 0.70109(11)
H38_11 H 0.4339 0.1458 0.6833
C62_11 C 0.5013(2) 0.2056(2) 0.7261(3)
C63_11 C 0.5232(3) 0.2048(2) 0.7474(2)
H39_11 H 0.5235 0.1892 0.7613
Tb10_9 Tb 0.27238(2) 0.03352(2) 0.70392(2)
Tb11_9 Tb 0.54608(2) 0.47762(2) 0.53352(2)
H2_10 H 0.5037 0.0196 0.9366
H40_10 H 0.3134 0.0037 0.7304
O17_10 O 0.3450(4) 0.0383(4) 0.8115(4)
C64_10 C 0.3611(5) 0.0493(4) 0.8301(5)
H41_10 H 0.3559 0.0421 0.8489
N2_10 N 0.3833(4) 0.0679(3) 0.8327(3)
C65_10 C 0.4130(4) 0.0579(7) 0.8358(8)
H42_10 H 0.4142 0.0439 0.8521
H43_10 H 0.4258 0.0747 0.8400
H44_10 H 0.4193 0.0484 0.8177
C66_10 C 0.3818(6) 0.0995(4) 0.8333(7)
H45_10 H 0.3712 0.1065 0.8159
H46_10 H 0.4016 0.1076 0.8333
H47_10 H 0.3714 0.1059 0.8510
O27_10 O 0.26426(12) 0.04517(11) 0.75269(12)
O35_10 O 0.28850(14) 0.06435(12) 0.81261(12)
O23_7 O 0.51426(12) 0.95483(11) 0.00269(12)
O3_10 O 0.4907(2) 0.97009(18) 0.9171(2)
C1_10 C 0.4655(2) 0.98034(19) 0.90916(19)
C2_10 C 0.4531(2) 0.9650(2) 0.8842(2)
C3_10 C 0.4629(2) 0.9400(2) 0.8716(2)
H3_10 H 0.4795 0.9295 0.8783
C4_10 C 0.4457(2) 0.9312(2) 0.8476(2)
C5_10 C 0.4222(2) 0.9497(2) 0.8422(2)
S1_10 S 0.42109(5) 0.97820(5) 0.86774(5)
O7_10 O 0.5383(4) 0.9385(4) 0.9050(4)
C21_10 C 0.5493(4) 0.9199(5) 0.8889(5)
H13_10 H 0.5421 0.9011 0.8941
N1_10 N 0.5679(3) 0.9173(3) 0.8667(4)
C22_10 C 0.5579(7) 0.9142(8) 0.8370(4)
H14_10 H 0.5439 0.8979 0.8358
H15_10 H 0.5747 0.9100 0.8242
H16_10 H 0.5484 0.9323 0.8307
C23_10 C 0.5995(4) 0.9167(7) 0.8682(6)
H17_10 H 0.6065 0.9341 0.8788
H18_10 H 0.6076 0.9167 0.8484
H19_10 H 0.6059 0.8990 0.8786
O8_10 O 0.3329(2) 0.9907(2) 0.77991(18)
C24_10 C 0.34084(19) 0.9655(2) 0.76966(19)
C25_10 C 0.3658(2) 0.9531(2) 0.7850(2)
C26_10 C 0.3784(2) 0.9629(2) 0.8100(2)
H20_10 H 0.3717 0.9795 0.8205
C27_10 C 0.4024(2) 0.9457(2) 0.8188(2)
C28_10 C 0.4078(2) 0.9222(2) 0.8003(2)
S2_10 S 0.38226(5) 0.92109(5) 0.77180(5)
O10_10 O 0.47009(18) 0.8329(2) 0.7593(2)
O11_7 O 0.50177(14) 0.83055(14) 0.79733(13)
C29_10 C 0.48034(19) 0.84084(19) 0.7845(2)
C30_10 C 0.4650(2) 0.8658(2) 0.7969(2)
C31_10 C 0.4400(2) 0.8784(2) 0.7871(2)
H21_10 H 0.4295 0.8717 0.7705
C32_10 C 0.4312(2) 0.9024(2) 0.8043(2)
C33_10 C 0.4497(2) 0.9078(2) 0.8278(2)
S3_10 S 0.47820(5) 0.88226(5) 0.82891(5)
O18_7 O 0.51426(12) 0.79517(11) 0.74731(12)
H48_10 H 0.5196 0.8134 0.7463
O19_10 O 0.4385(4) 0.8450(4) 0.7117(4)
C67_10 C 0.4199(5) 0.8611(5) 0.7007(4)
H49_10 H 0.4011 0.8559 0.7079
N3_10 N 0.4173(3) 0.8833(4) 0.6821(3)
C68_10 C 0.4142(8) 0.9130(4) 0.6921(7)
H50_10 H 0.3979 0.9142 0.7061
H51_10 H 0.4100 0.9258 0.6753
H52_10 H 0.4323 0.9193 0.7016
C69_10 C 0.4167(7) 0.8818(6) 0.6505(4)
H53_10 H 0.4341 0.8712 0.6435
H54_10 H 0.4167 0.9016 0.6424
H55_10 H 0.3990 0.8714 0.6441
Tb13_6 Tb 0.54608(2) 0.77238(2) 0.71648(2)
O25_10 O 0.49731(12) 0.76426(12) 0.70483(11)
O26_10 O 0.54517(11) 0.99731(12) 0.98574(12)
O29_7 O 0.50177(14) 0.91945(14) 0.95267(13)
O32_6 O 0.49126(18) 0.82716(17) 0.69752(18)
O33_10 O 0.43739(12) 0.78850(14) 0.68565(12)
O34_10 O 0.56435(12) 0.93739(12) 0.96150(14)
H40_11 H 0.7463 0.0196 0.3134
H48_11 H 0.9366 0.0037 0.5196
O19_11 O 0.9050(4) 0.0383(4) 0.4385(4)
C67_11 C 0.8889(5) 0.0493(4) 0.4199(5)
H49_11 H 0.8941 0.0421 0.4011
N3_11 N 0.8667(4) 0.0679(3) 0.4173(3)
C68_11 C 0.8370(4) 0.0579(7) 0.4142(8)
H50_11 H 0.8358 0.0439 0.3979
H51_11 H 0.8242 0.0747 0.4100
H52_11 H 0.8307 0.0484 0.4323
C69_11 C 0.8682(6) 0.0995(4) 0.4167(7)
H53_11 H 0.8788 0.1065 0.4341
H54_11 H 0.8484 0.1076 0.4167
H55_11 H 0.8786 0.1059 0.3990
Tb12_8 Tb 0.71648(2) 0.04608(2) 0.27238(2)
O25_11 O 0.98574(12) 0.04517(11) 0.49731(12)
O33_11 O 0.96150(14) 0.06435(12) 0.43739(12)
O2_8 O 0.73574(12) 0.79517(11) 0.50269(12)
H2_11 H 0.7304 0.8134 0.5037
O3_11 O 0.77991(18) 0.8329(2) 0.4907(2)
O4_8 O 0.74823(14) 0.83055(14) 0.45267(13)
C1_11 C 0.76966(19) 0.84084(19) 0.4655(2)
C2_11 C 0.7850(2) 0.8658(2) 0.4531(2)
C3_11 C 0.8100(2) 0.8784(2) 0.4629(2)
H3_11 H 0.8205 0.8717 0.4795
C4_11 C 0.8188(2) 0.9024(2) 0.4457(2)
C5_11 C 0.8003(2) 0.9078(2) 0.4222(2)
S1_11 S 0.77180(5) 0.88226(5) 0.42109(5)
O7_11 O 0.8115(4) 0.8450(4) 0.5383(4)
C21_11 C 0.8301(5) 0.8611(5) 0.5493(4)
H13_11 H 0.8489 0.8559 0.5421
N1_11 N 0.8327(3) 0.8833(4) 0.5679(3)
C22_11 C 0.8358(8) 0.9130(4) 0.5579(7)
H14_11 H 0.8521 0.9142 0.5439
H15_11 H 0.8400 0.9258 0.5747
H16_11 H 0.8177 0.9193 0.5484
C23_11 C 0.8333(7) 0.8818(6) 0.5995(4)
H17_11 H 0.8159 0.8712 0.6065
H18_11 H 0.8333 0.9016 0.6076
H19_11 H 0.8510 0.8714 0.6059
O8_11 O 0.7593(2) 0.97009(18) 0.3329(2)
C24_11 C 0.7845(2) 0.98034(19) 0.34084(19)
C25_11 C 0.7969(2) 0.9650(2) 0.3658(2)
C26_11 C 0.7871(2) 0.9400(2) 0.3784(2)
H20_11 H 0.7705 0.9295 0.3717
C27_11 C 0.8043(2) 0.9312(2) 0.4024(2)
C28_11 C 0.8278(2) 0.9497(2) 0.4078(2)
S2_11 S 0.82891(5) 0.97820(5) 0.38226(5)
O10_11 O 0.9171(2) 0.9907(2) 0.47009(18)
C29_11 C 0.90916(19) 0.9655(2) 0.48034(19)
C30_11 C 0.8842(2) 0.9531(2) 0.4650(2)
C31_11 C 0.8716(2) 0.9629(2) 0.4400(2)
H21_11 H 0.8783 0.9795 0.4295
C32_11 C 0.8476(2) 0.9457(2) 0.4312(2)
C33_11 C 0.8422(2) 0.9222(2) 0.4497(2)
S3_11 S 0.86774(5) 0.92109(5) 0.47820(5)
O17_11 O 0.7117(4) 0.9385(4) 0.3450(4)
C64_11 C 0.7007(4) 0.9199(5) 0.3611(5)
H41_11 H 0.7079 0.9011 0.3559
N2_11 N 0.6821(3) 0.9173(3) 0.3833(4)
C65_11 C 0.6921(7) 0.9142(8) 0.4130(4)
H42_11 H 0.7061 0.8979 0.4142
H43_11 H 0.6753 0.9100 0.4258
H44_11 H 0.7016 0.9323 0.4193
C66_11 C 0.6505(4) 0.9167(7) 0.3818(6)
H45_11 H 0.6435 0.9341 0.3712
H46_11 H 0.6424 0.9167 0.4016
H47_11 H 0.6441 0.8990 0.3714
O24_8 O 0.73574(12) 0.95483(11) 0.24731(12)
O26_11 O 0.75269(12) 0.76426(12) 0.54517(11)
O27_11 O 0.70483(11) 0.99731(12) 0.26426(12)
O30_8 O 0.74823(14) 0.91945(14) 0.29733(13)
O31_8 O 0.69752(18) 0.99126(18) 0.32716(17)
O34_11 O 0.81261(12) 0.78850(14) 0.56435(12)
O35_11 O 0.68565(12) 0.93739(12) 0.28850(14)
H2_12 H 0.5037 0.2304 0.3134
O3_12 O 0.4907(2) 0.27991(18) 0.3329(2)
C1_12 C 0.4655(2) 0.26966(19) 0.34084(19)
C2_12 C 0.4531(2) 0.2850(2) 0.3658(2)
C3_12 C 0.4629(2) 0.3100(2) 0.3784(2)
H3_12 H 0.4795 0.3205 0.3717
C4_12 C 0.4457(2) 0.3188(2) 0.4024(2)
C5_12 C 0.4222(2) 0.3003(2) 0.4078(2)
S1_12 S 0.42109(5) 0.27180(5) 0.38226(5)
O7_12 O 0.5383(4) 0.3115(4) 0.3450(4)
C21_12 C 0.5493(4) 0.3301(5) 0.3611(5)
H13_12 H 0.5421 0.3489 0.3559
N1_12 N 0.5679(3) 0.3327(3) 0.3833(4)
C22_12 C 0.5579(7) 0.3358(8) 0.4130(4)
H14_12 H 0.5439 0.3521 0.4142
H15_12 H 0.5747 0.3400 0.4258
H16_12 H 0.5484 0.3177 0.4193
C23_12 C 0.5995(4) 0.3333(7) 0.3818(6)
H17_12 H 0.6065 0.3159 0.3712
H18_12 H 0.6076 0.3333 0.4016
H19_12 H 0.6059 0.3510 0.3714
O8_12 O 0.3329(2) 0.2593(2) 0.47009(18)
C24_12 C 0.34084(19) 0.2845(2) 0.48034(19)
C25_12 C 0.3658(2) 0.2969(2) 0.4650(2)
C26_12 C 0.3784(2) 0.2871(2) 0.4400(2)
H20_12 H 0.3717 0.2705 0.4295
C27_12 C 0.4024(2) 0.3043(2) 0.4312(2)
C28_12 C 0.4078(2) 0.3278(2) 0.4497(2)
S2_12 S 0.38226(5) 0.32891(5) 0.47820(5)
O10_12 O 0.47009(18) 0.4171(2) 0.4907(2)
O11_8 O 0.50177(14) 0.41945(14) 0.45267(13)
C29_12 C 0.48034(19) 0.40916(19) 0.4655(2)
C30_12 C 0.4650(2) 0.3842(2) 0.4531(2)
C31_12 C 0.4400(2) 0.3716(2) 0.4629(2)
H21_12 H 0.4295 0.3783 0.4795
C32_12 C 0.4312(2) 0.3476(2) 0.4457(2)
C33_12 C 0.4497(2) 0.3422(2) 0.4222(2)
S3_12 S 0.47820(5) 0.36774(5) 0.42109(5)
H40_12 H 0.3134 0.2463 0.5196
O17_12 O 0.3450(4) 0.2117(4) 0.4385(4)
C64_12 C 0.3611(5) 0.2007(4) 0.4199(5)
H41_12 H 0.3559 0.2079 0.4011
N2_12 N 0.3833(4) 0.1821(3) 0.4173(3)
C65_12 C 0.4130(4) 0.1921(7) 0.4142(8)
H42_12 H 0.4142 0.2061 0.3979
H43_12 H 0.4258 0.1753 0.4100
H44_12 H 0.4193 0.2016 0.4323
C66_12 C 0.3818(6) 0.1505(4) 0.4167(7)
H45_12 H 0.3712 0.1435 0.4341
H46_12 H 0.4016 0.1424 0.4167
H47_12 H 0.3714 0.1441 0.3990
O18_8 O 0.51426(12) 0.45483(11) 0.50269(12)
H48_12 H 0.5196 0.4366 0.5037
O19_12 O 0.4385(4) 0.4050(4) 0.5383(4)
C67_12 C 0.4199(5) 0.3889(5) 0.5493(4)
H49_12 H 0.4011 0.3941 0.5421
N3_12 N 0.4173(3) 0.3667(4) 0.5679(3)
C68_12 C 0.4142(8) 0.3370(4) 0.5579(7)
H50_12 H 0.3979 0.3358 0.5439
H51_12 H 0.4100 0.3242 0.5747
H52_12 H 0.4323 0.3307 0.5484
C69_12 C 0.4167(7) 0.3682(6) 0.5995(4)
H53_12 H 0.4341 0.3788 0.6065
H54_12 H 0.4167 0.3484 0.6076
H55_12 H 0.3990 0.3786 0.6059
Tb12_9 Tb 0.27238(2) 0.21648(2) 0.54608(2)
O23_8 O 0.51426(12) 0.29517(11) 0.24731(12)
O25_12 O 0.49731(12) 0.48574(12) 0.54517(11)
O26_12 O 0.54517(11) 0.25269(12) 0.26426(12)
O27_12 O 0.26426(12) 0.20483(11) 0.49731(12)
O29_8 O 0.50177(14) 0.33055(14) 0.29733(13)
O31_9 O 0.32716(17) 0.19752(18) 0.49126(18)
O33_12 O 0.43739(12) 0.46150(14) 0.56435(12)
O34_12 O 0.56435(12) 0.31261(12) 0.28850(14)
O35_12 O 0.28850(14) 0.18565(12) 0.43739(12)
C19_12 C 0.5239(3) 0.0013(2) 0.5444(2)
C20_12 C 0.5026(2) 0.0232(3) 0.5452(2)
H12_12 H 0.4887 0.0235 0.5608
O13_12 O 0.31435(12) 0.18739(12) 0.53850(14)
C34_12 C 0.33075(19) 0.1847(2) 0.5167(3)
C35_12 C 0.35691(13) 0.16491(15) 0.51896(15)
C36_12 C 0.37792(16) 0.16522(17) 0.49693(15)
H22_12 H 0.3763 0.1787 0.4812
C37_12 C 0.40134(15) 0.14580(18) 0.49796(15)
H23_12 H 0.4157 0.1460 0.4829
C38_12 C 0.40375(14) 0.12607(16) 0.52103(16)
C39_12 C 0.38274(16) 0.12577(17) 0.54305(15)
H24_12 H 0.3844 0.1123 0.5588
C40_12 C 0.35932(15) 0.14519(17) 0.54202(15)
H25_12 H 0.3450 0.1450 0.5571
C41_12 C 0.42967(14) 0.10533(16) 0.52228(14)
C42_12 C 0.44118(15) 0.09457(18) 0.49623(11)
H26_12 H 0.4329 0.1004 0.4780
C43_12 C 0.46480(17) 0.07537(17) 0.49681(11)
H27_12 H 0.4727 0.0680 0.4790
C44_12 C 0.47690(14) 0.06692(16) 0.52343(13)
C45_12 C 0.46538(15) 0.07767(18) 0.54948(11)
H28_12 H 0.4737 0.0719 0.5677
C46_12 C 0.44177(16) 0.09687(17) 0.54891(11)
H29_12 H 0.4339 0.1042 0.5667
C47_12 C 0.5013(2) 0.0444(2) 0.5239(3)
C48_12 C 0.5232(3) 0.0452(2) 0.5026(2)
H30_12 H 0.5235 0.0608 0.4887
O15_12 O 0.68739(12) 0.03850(14) 0.31435(12)
C49_12 C 0.6847(2) 0.0167(3) 0.33075(19)
C50_12 C 0.66491(15) 0.01896(15) 0.35691(13)
C53_12 C 0.62607(16) 0.02103(16) 0.40375(14)
C54_12 C 0.62577(17) 0.04305(15) 0.38274(16)
H33_12 H 0.6123 0.0588 0.3844
C55_12 C 0.64519(17) 0.04202(15) 0.35932(15)
H34_12 H 0.6450 0.0571 0.3450
C56_12 C 0.60533(16) 0.02228(14) 0.42967(14)
C59_12 C 0.56692(16) 0.02343(13) 0.47690(14)
C60_12 C 0.57767(18) 0.04948(11) 0.46538(15)
H37_12 H 0.5719 0.0677 0.4737
C61_12 C 0.59687(17) 0.04891(11) 0.44177(16)
H38_12 H 0.6042 0.0667 0.4339
C62_12 C 0.5444(2) 0.0239(3) 0.5013(2)
C63_12 C 0.5452(2) 0.0026(2) 0.5232(3)
O6_12 O 0.53850(14) 0.81435(12) 0.68739(12)
C6_12 C 0.5167(3) 0.83075(19) 0.6847(2)
C7_12 C 0.51896(15) 0.85691(13) 0.66491(15)
C8_12 C 0.49693(15) 0.87792(16) 0.66522(17)
H4_12 H 0.4812 0.8763 0.6787
C9_12 C 0.49796(15) 0.90134(15) 0.64580(18)
H5_12 H 0.4829 0.9157 0.6460
C10_12 C 0.52103(16) 0.90375(14) 0.62607(16)
C11_12 C 0.54305(15) 0.88274(16) 0.62577(17)
H6_12 H 0.5588 0.8844 0.6123
C12_12 C 0.54202(15) 0.85932(15) 0.64519(17)
H7_12 H 0.5571 0.8450 0.6450
C13_12 C 0.52228(14) 0.92967(14) 0.60533(16)
C14_12 C 0.49623(11) 0.94118(15) 0.59457(18)
H8_12 H 0.4780 0.9329 0.6004
C15_12 C 0.49681(11) 0.96480(17) 0.57537(17)
H9_12 H 0.4790 0.9727 0.5680
C16_12 C 0.52343(13) 0.97690(14) 0.56692(16)
C17_12 C 0.54948(11) 0.96538(15) 0.57767(18)
H10_12 H 0.5677 0.9737 0.5719
C18_12 C 0.54891(11) 0.94177(16) 0.59687(17)
H11_12 H 0.5667 0.9339 0.6042
C51_12 C 0.66522(17) 0.99693(15) 0.37792(16)
H31_12 H 0.6787 0.9812 0.3763
C52_12 C 0.64580(18) 0.99796(15) 0.40134(15)
H32_12 H 0.6460 0.9829 0.4157
C57_12 C 0.59457(18) 0.99623(11) 0.44118(15)
H35_12 H 0.6004 0.9780 0.4329
C58_12 C 0.57537(17) 0.99681(11) 0.46480(17)
H36_12 H 0.5680 0.9790 0.4727
H39_12 H 0.5608 0.9887 0.5235
H2_13 H 0.9366 0.7463 0.2304
O3_13 O 0.9171(2) 0.7593(2) 0.27991(18)
C1_13 C 0.90916(19) 0.7845(2) 0.26966(19)
C2_13 C 0.8842(2) 0.7969(2) 0.2850(2)
C3_13 C 0.8716(2) 0.7871(2) 0.3100(2)
H3_13 H 0.8783 0.7705 0.3205
C4_13 C 0.8476(2) 0.8043(2) 0.3188(2)
C5_13 C 0.8422(2) 0.8278(2) 0.3003(2)
S1_13 S 0.86774(5) 0.82891(5) 0.27180(5)
O5_4 O 0.92284(17) 0.69752(18) 0.25874(18)
O6_13 O 0.93565(12) 0.68739(12) 0.21150(14)
C6_13 C 0.91925(19) 0.6847(2) 0.2333(3)
C7_13 C 0.89309(13) 0.66491(15) 0.23104(15)
C8_13 C 0.87208(16) 0.66522(17) 0.25307(15)
H4_13 H 0.8737 0.6787 0.2688
C9_13 C 0.84866(15) 0.64580(18) 0.25204(15)
H5_13 H 0.8343 0.6460 0.2671
C10_13 C 0.84625(14) 0.62607(16) 0.22897(16)
C11_13 C 0.86726(16) 0.62577(17) 0.20695(15)
H6_13 H 0.8656 0.6123 0.1912
C12_13 C 0.89068(15) 0.64519(17) 0.20798(15)
H7_13 H 0.9050 0.6450 0.1929
C13_13 C 0.82033(14) 0.60533(16) 0.22772(14)
C14_13 C 0.80882(15) 0.59457(18) 0.25377(11)
H8_13 H 0.8171 0.6004 0.2720
C15_13 C 0.78520(17) 0.57537(17) 0.25319(11)
H9_13 H 0.7773 0.5680 0.2710
C16_13 C 0.77310(14) 0.56692(16) 0.22657(13)
C17_13 C 0.78462(15) 0.57767(18) 0.20052(11)
H10_13 H 0.7763 0.5719 0.1823
C18_13 C 0.80823(16) 0.59687(17) 0.20109(11)
H11_13 H 0.8161 0.6042 0.1833
C19_13 C 0.7487(2) 0.5444(2) 0.2261(3)
C20_13 C 0.7268(3) 0.5452(2) 0.2474(2)
H12_13 H 0.7265 0.5608 0.2613
O7_13 O 0.9050(4) 0.7117(4) 0.3115(4)
C21_13 C 0.8889(5) 0.7007(4) 0.3301(5)
H13_13 H 0.8941 0.7079 0.3489
N1_13 N 0.8667(4) 0.6821(3) 0.3327(3)
C22_13 C 0.8370(4) 0.6921(7) 0.3358(8)
H14_13 H 0.8358 0.7061 0.3521
H15_13 H 0.8242 0.6753 0.3400
H16_13 H 0.8307 0.7016 0.3177
C23_13 C 0.8682(6) 0.6505(4) 0.3333(7)
H17_13 H 0.8788 0.6435 0.3159
H18_13 H 0.8484 0.6424 0.3333
H19_13 H 0.8786 0.6441 0.3510
O8_13 O 0.77991(18) 0.9171(2) 0.2593(2)
C24_13 C 0.76966(19) 0.90916(19) 0.2845(2)
C25_13 C 0.7850(2) 0.8842(2) 0.2969(2)
C26_13 C 0.8100(2) 0.8716(2) 0.2871(2)
H20_13 H 0.8205 0.8783 0.2705
C27_13 C 0.8188(2) 0.8476(2) 0.3043(2)
C28_13 C 0.8003(2) 0.8422(2) 0.3278(2)
S2_13 S 0.77180(5) 0.86774(5) 0.32891(5)
O10_13 O 0.7593(2) 0.77991(18) 0.4171(2)
C29_13 C 0.7845(2) 0.76966(19) 0.40916(19)
C30_13 C 0.7969(2) 0.7850(2) 0.3842(2)
C31_13 C 0.7871(2) 0.8100(2) 0.3716(2)
H21_13 H 0.7705 0.8205 0.3783
C32_13 C 0.8043(2) 0.8188(2) 0.3476(2)
C33_13 C 0.8278(2) 0.8003(2) 0.3422(2)
S3_13 S 0.82891(5) 0.77180(5) 0.36774(5)
O12_10 O 0.55248(18) 0.49126(18) 0.42284(17)
O13_13 O 0.56261(12) 0.53850(14) 0.43565(12)
C34_13 C 0.5653(2) 0.5167(3) 0.41925(19)
C35_13 C 0.58509(15) 0.51896(15) 0.39309(13)
C36_13 C 0.58478(17) 0.49693(15) 0.37208(16)
H22_13 H 0.5713 0.4812 0.3737
C37_13 C 0.60420(18) 0.49796(15) 0.34866(15)
H23_13 H 0.6040 0.4829 0.3343
C38_13 C 0.62393(16) 0.52103(16) 0.34625(14)
C39_13 C 0.62423(17) 0.54305(15) 0.36726(16)
H24_13 H 0.6377 0.5588 0.3656
C40_13 C 0.60481(17) 0.54202(15) 0.39068(15)
H25_13 H 0.6050 0.5571 0.4050
C41_13 C 0.64467(16) 0.52228(14) 0.32033(14)
C42_13 C 0.65543(18) 0.49623(11) 0.30882(15)
H26_13 H 0.6496 0.4780 0.3171
C43_13 C 0.67463(17) 0.49681(11) 0.28520(17)
H27_13 H 0.6820 0.4790 0.2773
C44_13 C 0.68308(16) 0.52343(13) 0.27310(14)
C45_13 C 0.67233(18) 0.54948(11) 0.28462(15)
H28_13 H 0.6781 0.5677 0.2763
C46_13 C 0.65313(17) 0.54891(11) 0.30823(16)
H29_13 H 0.6458 0.5667 0.3161
C47_13 C 0.7056(2) 0.5239(3) 0.2487(2)
C48_13 C 0.7048(2) 0.5026(2) 0.2268(3)
H30_13 H 0.6892 0.4887 0.2265
O14_10 O 0.75874(18) 0.32716(17) 0.05248(18)
O15_13 O 0.71150(14) 0.31435(12) 0.06261(12)
C49_13 C 0.7333(3) 0.33075(19) 0.0653(2)
C50_13 C 0.73104(15) 0.35691(13) 0.08509(15)
C51_13 C 0.75307(15) 0.37792(16) 0.08478(17)
H31_13 H 0.7688 0.3763 0.0713
C52_13 C 0.75204(15) 0.40134(15) 0.10420(18)
H32_13 H 0.7671 0.4157 0.1040
C53_13 C 0.72897(16) 0.40375(14) 0.12393(16)
C54_13 C 0.70695(15) 0.38274(16) 0.12423(17)
H33_13 H 0.6912 0.3844 0.1377
C55_13 C 0.70798(15) 0.35932(15) 0.10481(17)
H34_13 H 0.6929 0.3450 0.1050
C56_13 C 0.72772(14) 0.42967(14) 0.14467(16)
C57_13 C 0.75377(11) 0.44118(15) 0.15543(18)
H35_13 H 0.7720 0.4329 0.1496
C58_13 C 0.75319(11) 0.46480(17) 0.17463(17)
H36_13 H 0.7710 0.4727 0.1820
C59_13 C 0.72657(13) 0.47690(14) 0.18308(16)
C60_13 C 0.70052(11) 0.46538(15) 0.17233(18)
H37_13 H 0.6823 0.4737 0.1781
C61_13 C 0.70109(11) 0.44177(16) 0.15313(17)
H38_13 H 0.6833 0.4339 0.1458
C62_13 C 0.7261(3) 0.5013(2) 0.2056(2)
C63_13 C 0.7474(2) 0.5232(3) 0.2048(2)
H39_13 H 0.7613 0.5235 0.1892
H40_13 H 0.7304 0.9366 0.2463
O17_13 O 0.8115(4) 0.9050(4) 0.2117(4)
C64_13 C 0.8301(5) 0.8889(5) 0.2007(4)
H41_13 H 0.8489 0.8941 0.2079
N2_13 N 0.8327(3) 0.8667(4) 0.1821(3)
C65_13 C 0.8358(8) 0.8370(4) 0.1921(7)
H42_13 H 0.8521 0.8358 0.2061
H43_13 H 0.8400 0.8242 0.1753
H44_13 H 0.8177 0.8307 0.2016
C66_13 C 0.8333(7) 0.8682(6) 0.1505(4)
H45_13 H 0.8159 0.8788 0.1435
H46_13 H 0.8333 0.8484 0.1424
H47_13 H 0.8510 0.8786 0.1441
H48_13 H 0.7463 0.7304 0.4366
O19_13 O 0.7117(4) 0.8115(4) 0.4050(4)
C67_13 C 0.7007(4) 0.8301(5) 0.3889(5)
H49_13 H 0.7079 0.8489 0.3941
N3_13 N 0.6821(3) 0.8327(3) 0.3667(4)
C68_13 C 0.6921(7) 0.8358(8) 0.3370(4)
H50_13 H 0.7061 0.8521 0.3358
H51_13 H 0.6753 0.8400 0.3242
H52_13 H 0.7016 0.8177 0.3307
C69_13 C 0.6505(4) 0.8333(7) 0.3682(6)
H53_13 H 0.6435 0.8159 0.3788
H54_13 H 0.6424 0.8333 0.3484
H55_13 H 0.6441 0.8510 0.3786
Tb10_10 Tb 0.70392(2) 0.27238(2) 0.03352(2)
Tb11_10 Tb 0.53352(2) 0.54608(2) 0.47762(2)
Tb12_10 Tb 0.70392(2) 0.97762(2) 0.21648(2)
Tb13_7 Tb 0.71648(2) 0.70392(2) 0.47762(2)
Tb14_4 Tb 0.97762(2) 0.71648(2) 0.20392(2)
O25_13 O 0.70483(11) 0.75269(12) 0.48574(12)
O26_13 O 0.98574(12) 0.70483(11) 0.25269(12)
O27_13 O 0.75269(12) 0.98574(12) 0.20483(11)
O31_10 O 0.75874(18) 0.92284(17) 0.19752(18)
O32_7 O 0.69752(18) 0.75874(18) 0.42284(17)
O33_13 O 0.68565(12) 0.81261(12) 0.46150(14)
O34_13 O 0.96150(14) 0.68565(12) 0.31261(12)
O35_13 O 0.81261(12) 0.96150(14) 0.18565(12)
O6_14 O 0.71150(14) 0.93565(12) 0.18739(12)
C6_14 C 0.7333(3) 0.91925(19) 0.1847(2)
C7_14 C 0.73104(15) 0.89309(13) 0.16491(15)
C8_14 C 0.75307(15) 0.87208(16) 0.16522(17)
H4_14 H 0.7688 0.8737 0.1787
C9_14 C 0.75204(15) 0.84866(15) 0.14580(18)
H5_14 H 0.7671 0.8343 0.1460
C10_14 C 0.72897(16) 0.84625(14) 0.12607(16)
C11_14 C 0.70695(15) 0.86726(16) 0.12577(17)
H6_14 H 0.6912 0.8656 0.1123
C12_14 C 0.70798(15) 0.89068(15) 0.14519(17)
H7_14 H 0.6929 0.9050 0.1450
C13_14 C 0.72772(14) 0.82033(14) 0.10533(16)
C14_14 C 0.75377(11) 0.80882(15) 0.09457(18)
H8_14 H 0.7720 0.8171 0.1004
C15_14 C 0.75319(11) 0.78520(17) 0.07537(17)
H9_14 H 0.7710 0.7773 0.0680
C16_14 C 0.72657(13) 0.77310(14) 0.06692(16)
C17_14 C 0.70052(11) 0.78462(15) 0.07767(18)
H10_14 H 0.6823 0.7763 0.0719
C18_14 C 0.70109(11) 0.80823(16) 0.09687(17)
H11_14 H 0.6833 0.8161 0.1042
C19_14 C 0.7261(3) 0.7487(2) 0.0444(2)
C20_14 C 0.7474(2) 0.7268(3) 0.0452(2)
H12_14 H 0.7613 0.7265 0.0608
O13_14 O 0.93565(12) 0.56261(12) 0.03850(14)
C34_14 C 0.91925(19) 0.5653(2) 0.0167(3)
C35_14 C 0.89309(13) 0.58509(15) 0.01896(15)
C38_14 C 0.84625(14) 0.62393(16) 0.02103(16)
C39_14 C 0.86726(16) 0.62423(17) 0.04305(15)
H24_14 H 0.8656 0.6377 0.0588
C40_14 C 0.89068(15) 0.60481(17) 0.04202(15)
H25_14 H 0.9050 0.6050 0.0571
C41_14 C 0.82033(14) 0.64467(16) 0.02228(14)
C44_14 C 0.77310(14) 0.68308(16) 0.02343(13)
C45_14 C 0.78462(15) 0.67233(18) 0.04948(11)
H28_14 H 0.7763 0.6781 0.0677
C46_14 C 0.80823(16) 0.65313(17) 0.04891(11)
H29_14 H 0.8161 0.6458 0.0667
C47_14 C 0.7487(2) 0.7056(2) 0.0239(3)
C48_14 C 0.7268(3) 0.7048(2) 0.0026(2)
C62_14 C 0.7056(2) 0.7261(3) 0.0013(2)
C63_14 C 0.7048(2) 0.7474(2) 0.0232(3)
H39_14 H 0.6892 0.7613 0.0235
Tb11_11 Tb 0.97762(2) 0.53352(2) 0.04608(2)
O12_11 O 0.92284(17) 0.55248(18) 0.99126(18)
C36_14 C 0.87208(16) 0.58478(17) 0.99693(15)
H22_14 H 0.8737 0.5713 0.9812
C37_14 C 0.84866(15) 0.60420(18) 0.99796(15)
H23_14 H 0.8343 0.6040 0.9829
C42_14 C 0.80882(15) 0.65543(18) 0.99623(11)
H26_14 H 0.8171 0.6496 0.9780
C43_14 C 0.78520(17) 0.67463(17) 0.99681(11)
H27_14 H 0.7773 0.6820 0.9790
H30_14 H 0.7265 0.6892 0.9887
O14_11 O 0.55248(18) 0.75874(18) 0.82716(17)
O15_14 O 0.56261(12) 0.71150(14) 0.81435(12)
C49_14 C 0.5653(2) 0.7333(3) 0.83075(19)
C50_14 C 0.58509(15) 0.73104(15) 0.85691(13)
C51_14 C 0.58478(17) 0.75307(15) 0.87792(16)
H31_14 H 0.5713 0.7688 0.8763
C52_14 C 0.60420(18) 0.75204(15) 0.90134(15)
H32_14 H 0.6040 0.7671 0.9157
C53_14 C 0.62393(16) 0.72897(16) 0.90375(14)
C54_14 C 0.62423(17) 0.70695(15) 0.88274(16)
H33_14 H 0.6377 0.6912 0.8844
C55_14 C 0.60481(17) 0.70798(15) 0.85932(15)
H34_14 H 0.6050 0.6929 0.8450
C56_14 C 0.64467(16) 0.72772(14) 0.92967(14)
C57_14 C 0.65543(18) 0.75377(11) 0.94118(15)
H35_14 H 0.6496 0.7720 0.9329
C58_14 C 0.67463(17) 0.75319(11) 0.96480(17)
H36_14 H 0.6820 0.7710 0.9727
C59_14 C 0.68308(16) 0.72657(13) 0.97690(14)
C60_14 C 0.67233(18) 0.70052(11) 0.96538(15)
H37_14 H 0.6781 0.6823 0.9737
C61_14 C 0.65313(17) 0.70109(11) 0.94177(16)
H38_14 H 0.6458 0.6833 0.9339
Tb10_11 Tb 0.53352(2) 0.70392(2) 0.77238(2)
O6_15 O 0.68739(12) 0.71150(14) 0.43565(12)
C6_15 C 0.6847(2) 0.7333(3) 0.41925(19)
C7_15 C 0.66491(15) 0.73104(15) 0.39309(13)
C8_15 C 0.66522(17) 0.75307(15) 0.37208(16)
H4_15 H 0.6787 0.7688 0.3737
C9_15 C 0.64580(18) 0.75204(15) 0.34866(15)
H5_15 H 0.6460 0.7671 0.3343
C10_15 C 0.62607(16) 0.72897(16) 0.34625(14)
C11_15 C 0.62577(17) 0.70695(15) 0.36726(16)
H6_15 H 0.6123 0.6912 0.3656
C12_15 C 0.64519(17) 0.70798(15) 0.39068(15)
H7_15 H 0.6450 0.6929 0.4050
C13_15 C 0.60533(16) 0.72772(14) 0.32033(14)
C14_15 C 0.59457(18) 0.75377(11) 0.30882(15)
H8_15 H 0.6004 0.7720 0.3171
C15_15 C 0.57537(17) 0.75319(11) 0.28520(17)
H9_15 H 0.5680 0.7710 0.2773
C16_15 C 0.56692(16) 0.72657(13) 0.27310(14)
C17_15 C 0.57767(18) 0.70052(11) 0.28462(15)
H10_15 H 0.5719 0.6823 0.2763
C18_15 C 0.59687(17) 0.70109(11) 0.30823(16)
H11_15 H 0.6042 0.6833 0.3161
C19_15 C 0.5444(2) 0.7261(3) 0.2487(2)
C20_15 C 0.5452(2) 0.7474(2) 0.2268(3)
H12_15 H 0.5608 0.7613 0.2265
O12_12 O 0.49126(18) 0.92284(17) 0.05248(18)
O13_15 O 0.53850(14) 0.93565(12) 0.06261(12)
C34_15 C 0.5167(3) 0.91925(19) 0.0653(2)
C35_15 C 0.51896(15) 0.89309(13) 0.08509(15)
C36_15 C 0.49693(15) 0.87208(16) 0.08478(17)
H22_15 H 0.4812 0.8737 0.0713
C37_15 C 0.49796(15) 0.84866(15) 0.10420(18)
H23_15 H 0.4829 0.8343 0.1040
C38_15 C 0.52103(16) 0.84625(14) 0.12393(16)
C39_15 C 0.54305(15) 0.86726(16) 0.12423(17)
H24_15 H 0.5588 0.8656 0.1377
C40_15 C 0.54202(15) 0.89068(15) 0.10481(17)
H25_15 H 0.5571 0.9050 0.1050
C41_15 C 0.52228(14) 0.82033(14) 0.14467(16)
C42_15 C 0.49623(11) 0.80882(15) 0.15543(18)
H26_15 H 0.4780 0.8171 0.1496
C43_15 C 0.49681(11) 0.78520(17) 0.17463(17)
H27_15 H 0.4790 0.7773 0.1820
C44_15 C 0.52343(13) 0.77310(14) 0.18308(16)
C45_15 C 0.54948(11) 0.78462(15) 0.17233(18)
H28_15 H 0.5677 0.7763 0.1781
C46_15 C 0.54891(11) 0.80823(16) 0.15313(17)
H29_15 H 0.5667 0.8161 0.1458
C47_15 C 0.5239(3) 0.7487(2) 0.2056(2)
C48_15 C 0.5026(2) 0.7268(3) 0.2048(2)
H30_15 H 0.4887 0.7265 0.1892
O14_12 O 0.32716(17) 0.55248(18) 0.25874(18)
O15_15 O 0.31435(12) 0.56261(12) 0.21150(14)
C49_15 C 0.33075(19) 0.5653(2) 0.2333(3)
C50_15 C 0.35691(13) 0.58509(15) 0.23104(15)
C51_15 C 0.37792(16) 0.58478(17) 0.25307(15)
H31_15 H 0.3763 0.5713 0.2688
C52_15 C 0.40134(15) 0.60420(18) 0.25204(15)
H32_15 H 0.4157 0.6040 0.2671
C53_15 C 0.40375(14) 0.62393(16) 0.22897(16)
C54_15 C 0.38274(16) 0.62423(17) 0.20695(15)
H33_15 H 0.3844 0.6377 0.1912
C55_15 C 0.35932(15) 0.60481(17) 0.20798(15)
H34_15 H 0.3450 0.6050 0.1929
C56_15 C 0.42967(14) 0.64467(16) 0.22772(14)
C57_15 C 0.44118(15) 0.65543(18) 0.25377(11)
H35_15 H 0.4329 0.6496 0.2720
C58_15 C 0.46480(17) 0.67463(17) 0.25319(11)
H36_15 H 0.4727 0.6820 0.2710
C59_15 C 0.47690(14) 0.68308(16) 0.22657(13)
C60_15 C 0.46538(15) 0.67233(18) 0.20052(11)
H37_15 H 0.4737 0.6781 0.1823
C61_15 C 0.44177(16) 0.65313(17) 0.20109(11)
H38_15 H 0.4339 0.6458 0.1833
C62_15 C 0.5013(2) 0.7056(2) 0.2261(3)
C63_15 C 0.5232(3) 0.7048(2) 0.2474(2)
H39_15 H 0.5235 0.6892 0.2613
Tb10_12 Tb 0.27238(2) 0.53352(2) 0.20392(2)
Tb11_12 Tb 0.54608(2) 0.97762(2) 0.03352(2)
H2_14 H 0.5037 0.5196 0.4366
O3_14 O 0.4907(2) 0.47009(18) 0.4171(2)
C1_14 C 0.4655(2) 0.48034(19) 0.40916(19)
C2_14 C 0.4531(2) 0.4650(2) 0.3842(2)
C3_14 C 0.4629(2) 0.4400(2) 0.3716(2)
H3_14 H 0.4795 0.4295 0.3783
C4_14 C 0.4457(2) 0.4312(2) 0.3476(2)
C5_14 C 0.4222(2) 0.4497(2) 0.3422(2)
S1_14 S 0.42109(5) 0.47820(5) 0.36774(5)
O7_14 O 0.5383(4) 0.4385(4) 0.4050(4)
C21_14 C 0.5493(4) 0.4199(5) 0.3889(5)
H13_14 H 0.5421 0.4011 0.3941
N1_14 N 0.5679(3) 0.4173(3) 0.3667(4)
C22_14 C 0.5579(7) 0.4142(8) 0.3370(4)
H14_14 H 0.5439 0.3979 0.3358
H15_14 H 0.5747 0.4100 0.3242
H16_14 H 0.5484 0.4323 0.3307
C23_14 C 0.5995(4) 0.4167(7) 0.3682(6)
H17_14 H 0.6065 0.4341 0.3788
H18_14 H 0.6076 0.4167 0.3484
H19_14 H 0.6059 0.3990 0.3786
O8_14 O 0.3329(2) 0.4907(2) 0.27991(18)
C24_14 C 0.34084(19) 0.4655(2) 0.26966(19)
C25_14 C 0.3658(2) 0.4531(2) 0.2850(2)
C26_14 C 0.3784(2) 0.4629(2) 0.3100(2)
H20_14 H 0.3717 0.4795 0.3205
C27_14 C 0.4024(2) 0.4457(2) 0.3188(2)
C28_14 C 0.4078(2) 0.4222(2) 0.3003(2)
S2_14 S 0.38226(5) 0.42109(5) 0.27180(5)
O10_14 O 0.47009(18) 0.3329(2) 0.2593(2)
C29_14 C 0.48034(19) 0.34084(19) 0.2845(2)
C30_14 C 0.4650(2) 0.3658(2) 0.2969(2)
C31_14 C 0.4400(2) 0.3784(2) 0.2871(2)
H21_14 H 0.4295 0.3717 0.2705
C32_14 C 0.4312(2) 0.4024(2) 0.3043(2)
C33_14 C 0.4497(2) 0.4078(2) 0.3278(2)
S3_14 S 0.47820(5) 0.38226(5) 0.32891(5)
H40_14 H 0.3134 0.5037 0.2304
O17_14 O 0.3450(4) 0.5383(4) 0.3115(4)
C64_14 C 0.3611(5) 0.5493(4) 0.3301(5)
H41_14 H 0.3559 0.5421 0.3489
N2_14 N 0.3833(4) 0.5679(3) 0.3327(3)
C65_14 C 0.4130(4) 0.5579(7) 0.3358(8)
H42_14 H 0.4142 0.5439 0.3521
H43_14 H 0.4258 0.5747 0.3400
H44_14 H 0.4193 0.5484 0.3177
C66_14 C 0.3818(6) 0.5995(4) 0.3333(7)
H45_14 H 0.3712 0.6065 0.3159
H46_14 H 0.4016 0.6076 0.3333
H47_14 H 0.3714 0.6059 0.3510
H48_14 H 0.5196 0.3134 0.2463
O19_14 O 0.4385(4) 0.3450(4) 0.2117(4)
C67_14 C 0.4199(5) 0.3611(5) 0.2007(4)
H49_14 H 0.4011 0.3559 0.2079
N3_14 N 0.4173(3) 0.3833(4) 0.1821(3)
C68_14 C 0.4142(8) 0.4130(4) 0.1921(7)
H50_14 H 0.3979 0.4142 0.2061
H51_14 H 0.4100 0.4258 0.1753
H52_14 H 0.4323 0.4193 0.2016
C69_14 C 0.4167(7) 0.3818(6) 0.1505(4)
H53_14 H 0.4341 0.3712 0.1435
H54_14 H 0.4167 0.4016 0.1424
H55_14 H 0.3990 0.3714 0.1441
Tb13_8 Tb 0.54608(2) 0.27238(2) 0.21648(2)
O25_14 O 0.49731(12) 0.26426(12) 0.20483(11)
O26_14 O 0.54517(11) 0.49731(12) 0.48574(12)
O27_14 O 0.26426(12) 0.54517(11) 0.25269(12)
O32_8 O 0.49126(18) 0.32716(17) 0.19752(18)
O33_14 O 0.43739(12) 0.28850(14) 0.18565(12)
O34_14 O 0.56435(12) 0.43739(12) 0.46150(14)
O35_14 O 0.28850(14) 0.56435(12) 0.31261(12)
H2_15 H 0.7304 0.3134 0.0037
O7_15 O 0.8115(4) 0.3450(4) 0.0383(4)
C21_15 C 0.8301(5) 0.3611(5) 0.0493(4)
H13_15 H 0.8489 0.3559 0.0421
N1_15 N 0.8327(3) 0.3833(4) 0.0679(3)
C22_15 C 0.8358(8) 0.4130(4) 0.0579(7)
H14_15 H 0.8521 0.4142 0.0439
H15_15 H 0.8400 0.4258 0.0747
H16_15 H 0.8177 0.4193 0.0484
C23_15 C 0.8333(7) 0.3818(6) 0.0995(4)
H17_15 H 0.8159 0.3712 0.1065
H18_15 H 0.8333 0.4016 0.1076
H19_15 H 0.8510 0.3714 0.1059
H48_15 H 0.9366 0.5037 0.0196
O26_15 O 0.75269(12) 0.26426(12) 0.04517(11)
O34_15 O 0.81261(12) 0.28850(14) 0.06435(12)
O3_15 O 0.77991(18) 0.3329(2) 0.9907(2)
C1_15 C 0.76966(19) 0.34084(19) 0.9655(2)
C2_15 C 0.7850(2) 0.3658(2) 0.9531(2)
C3_15 C 0.8100(2) 0.3784(2) 0.9629(2)
H3_15 H 0.8205 0.3717 0.9795
C4_15 C 0.8188(2) 0.4024(2) 0.9457(2)
C5_15 C 0.8003(2) 0.4078(2) 0.9222(2)
S1_15 S 0.77180(5) 0.38226(5) 0.92109(5)
O8_15 O 0.7593(2) 0.47009(18) 0.8329(2)
C24_15 C 0.7845(2) 0.48034(19) 0.84084(19)
C25_15 C 0.7969(2) 0.4650(2) 0.8658(2)
C26_15 C 0.7871(2) 0.4400(2) 0.8784(2)
H20_15 H 0.7705 0.4295 0.8717
C27_15 C 0.8043(2) 0.4312(2) 0.9024(2)
C28_15 C 0.8278(2) 0.4497(2) 0.9078(2)
S2_15 S 0.82891(5) 0.47820(5) 0.88226(5)
O10_15 O 0.9171(2) 0.4907(2) 0.97009(18)
C29_15 C 0.90916(19) 0.4655(2) 0.98034(19)
C30_15 C 0.8842(2) 0.4531(2) 0.9650(2)
C31_15 C 0.8716(2) 0.4629(2) 0.9400(2)
H21_15 H 0.8783 0.4795 0.9295
C32_15 C 0.8476(2) 0.4457(2) 0.9312(2)
C33_15 C 0.8422(2) 0.4222(2) 0.9497(2)
S3_15 S 0.86774(5) 0.42109(5) 0.97820(5)
H40_15 H 0.7463 0.5196 0.8134
O17_15 O 0.7117(4) 0.4385(4) 0.8450(4)
C64_15 C 0.7007(4) 0.4199(5) 0.8611(5)
H41_15 H 0.7079 0.4011 0.8559
N2_15 N 0.6821(3) 0.4173(3) 0.8833(4)
C65_15 C 0.6921(7) 0.4142(8) 0.9130(4)
H42_15 H 0.7061 0.3979 0.9142
H43_15 H 0.6753 0.4100 0.9258
H44_15 H 0.7016 0.4323 0.9193
C66_15 C 0.6505(4) 0.4167(7) 0.8818(6)
H45_15 H 0.6435 0.4341 0.8712
H46_15 H 0.6424 0.4167 0.9016
H47_15 H 0.6441 0.3990 0.8714
O19_15 O 0.9050(4) 0.5383(4) 0.9385(4)
C67_15 C 0.8889(5) 0.5493(4) 0.9199(5)
H49_15 H 0.8941 0.5421 0.9011
N3_15 N 0.8667(4) 0.5679(3) 0.9173(3)
C68_15 C 0.8370(4) 0.5579(7) 0.9142(8)
H50_15 H 0.8358 0.5439 0.8979
H51_15 H 0.8242 0.5747 0.9100
H52_15 H 0.8307 0.5484 0.9323
C69_15 C 0.8682(6) 0.5995(4) 0.9167(7)
H53_15 H 0.8788 0.6065 0.9341
H54_15 H 0.8484 0.6076 0.9167
H55_15 H 0.8786 0.6059 0.8990
Tb12_11 Tb 0.71648(2) 0.54608(2) 0.77238(2)
O25_15 O 0.98574(12) 0.54517(11) 0.99731(12)
O27_15 O 0.70483(11) 0.49731(12) 0.76426(12)
O31_11 O 0.69752(18) 0.49126(18) 0.82716(17)
O33_15 O 0.96150(14) 0.56435(12) 0.93739(12)
O35_15 O 0.68565(12) 0.43739(12) 0.78850(14)
H40_16 H 0.3134 0.7463 0.0196
H48_16 H 0.5196 0.9366 0.0037
O19_16 O 0.4385(4) 0.9050(4) 0.0383(4)
C67_16 C 0.4199(5) 0.8889(5) 0.0493(4)
H49_16 H 0.4011 0.8941 0.0421
N3_16 N 0.4173(3) 0.8667(4) 0.0679(3)
C68_16 C 0.4142(8) 0.8370(4) 0.0579(7)
H50_16 H 0.3979 0.8358 0.0439
H51_16 H 0.4100 0.8242 0.0747
H52_16 H 0.4323 0.8307 0.0484
C69_16 C 0.4167(7) 0.8682(6) 0.0995(4)
H53_16 H 0.4341 0.8788 0.1065
H54_16 H 0.4167 0.8484 0.1076
H55_16 H 0.3990 0.8786 0.1059
Tb12_12 Tb 0.27238(2) 0.71648(2) 0.04608(2)
O25_16 O 0.49731(12) 0.98574(12) 0.04517(11)
O33_16 O 0.43739(12) 0.96150(14) 0.06435(12)
H2_16 H 0.5037 0.7304 0.8134
O3_16 O 0.4907(2) 0.77991(18) 0.8329(2)
C1_16 C 0.4655(2) 0.76966(19) 0.84084(19)
C2_16 C 0.4531(2) 0.7850(2) 0.8658(2)
C3_16 C 0.4629(2) 0.8100(2) 0.8784(2)
H3_16 H 0.4795 0.8205 0.8717
C4_16 C 0.4457(2) 0.8188(2) 0.9024(2)
C5_16 C 0.4222(2) 0.8003(2) 0.9078(2)
S1_16 S 0.42109(5) 0.77180(5) 0.88226(5)
O7_16 O 0.5383(4) 0.8115(4) 0.8450(4)
C21_16 C 0.5493(4) 0.8301(5) 0.8611(5)
H13_16 H 0.5421 0.8489 0.8559
N1_16 N 0.5679(3) 0.8327(3) 0.8833(4)
C22_16 C 0.5579(7) 0.8358(8) 0.9130(4)
H14_16 H 0.5439 0.8521 0.9142
H15_16 H 0.5747 0.8400 0.9258
H16_16 H 0.5484 0.8177 0.9193
C23_16 C 0.5995(4) 0.8333(7) 0.8818(6)
H17_16 H 0.6065 0.8159 0.8712
H18_16 H 0.6076 0.8333 0.9016
H19_16 H 0.6059 0.8510 0.8714
O8_16 O 0.3329(2) 0.7593(2) 0.97009(18)
C24_16 C 0.34084(19) 0.7845(2) 0.98034(19)
C25_16 C 0.3658(2) 0.7969(2) 0.9650(2)
C26_16 C 0.3784(2) 0.7871(2) 0.9400(2)
H20_16 H 0.3717 0.7705 0.9295
C27_16 C 0.4024(2) 0.8043(2) 0.9312(2)
C28_16 C 0.4078(2) 0.8278(2) 0.9497(2)
S2_16 S 0.38226(5) 0.82891(5) 0.97820(5)
O10_16 O 0.47009(18) 0.9171(2) 0.9907(2)
C29_16 C 0.48034(19) 0.90916(19) 0.9655(2)
C30_16 C 0.4650(2) 0.8842(2) 0.9531(2)
C31_16 C 0.4400(2) 0.8716(2) 0.9629(2)
H21_16 H 0.4295 0.8783 0.9795
C32_16 C 0.4312(2) 0.8476(2) 0.9457(2)
C33_16 C 0.4497(2) 0.8422(2) 0.9222(2)
S3_16 S 0.47820(5) 0.86774(5) 0.92109(5)
O17_16 O 0.3450(4) 0.7117(4) 0.9385(4)
C64_16 C 0.3611(5) 0.7007(4) 0.9199(5)
H41_16 H 0.3559 0.7079 0.9011
N2_16 N 0.3833(4) 0.6821(3) 0.9173(3)
C65_16 C 0.4130(4) 0.6921(7) 0.9142(8)
H42_16 H 0.4142 0.7061 0.8979
H43_16 H 0.4258 0.6753 0.9100
H44_16 H 0.4193 0.7016 0.9323
C66_16 C 0.3818(6) 0.6505(4) 0.9167(7)
H45_16 H 0.3712 0.6435 0.9341
H46_16 H 0.4016 0.6424 0.9167
H47_16 H 0.3714 0.6441 0.8990
O26_16 O 0.54517(11) 0.75269(12) 0.76426(12)
O27_16 O 0.26426(12) 0.70483(11) 0.99731(12)
O31_12 O 0.32716(17) 0.69752(18) 0.99126(18)
O34_16 O 0.56435(12) 0.81261(12) 0.78850(14)
O35_16 O 0.28850(14) 0.68565(12) 0.93739(12)
O6_16 O 0.53850(14) 0.31435(12) 0.18739(12)
C6_16 C 0.5167(3) 0.33075(19) 0.1847(2)
C7_16 C 0.51896(15) 0.35691(13) 0.16491(15)
C8_16 C 0.49693(15) 0.37792(16) 0.16522(17)
H4_16 H 0.4812 0.3763 0.1787
C9_16 C 0.49796(15) 0.40134(15) 0.14580(18)
H5_16 H 0.4829 0.4157 0.1460
C10_16 C 0.52103(16) 0.40375(14) 0.12607(16)
C11_16 C 0.54305(15) 0.38274(16) 0.12577(17)
H6_16 H 0.5588 0.3844 0.1123
C12_16 C 0.54202(15) 0.35932(15) 0.14519(17)
H7_16 H 0.5571 0.3450 0.1450
C13_16 C 0.52228(14) 0.42967(14) 0.10533(16)
C14_16 C 0.49623(11) 0.44118(15) 0.09457(18)
H8_16 H 0.4780 0.4329 0.1004
C15_16 C 0.49681(11) 0.46480(17) 0.07537(17)
H9_16 H 0.4790 0.4727 0.0680
C16_16 C 0.52343(13) 0.47690(14) 0.06692(16)
C17_16 C 0.54948(11) 0.46538(15) 0.07767(18)
H10_16 H 0.5677 0.4737 0.0719
C18_16 C 0.54891(11) 0.44177(16) 0.09687(17)
H11_16 H 0.5667 0.4339 0.1042
C19_16 C 0.5239(3) 0.5013(2) 0.0444(2)
C20_16 C 0.5026(2) 0.5232(3) 0.0452(2)
H12_16 H 0.4887 0.5235 0.0608
O13_16 O 0.31435(12) 0.68739(12) 0.03850(14)
C34_16 C 0.33075(19) 0.6847(2) 0.0167(3)
C35_16 C 0.35691(13) 0.66491(15) 0.01896(15)
C38_16 C 0.40375(14) 0.62607(16) 0.02103(16)
C39_16 C 0.38274(16) 0.62577(17) 0.04305(15)
H24_16 H 0.3844 0.6123 0.0588
C40_16 C 0.35932(15) 0.64519(17) 0.04202(15)
H25_16 H 0.3450 0.6450 0.0571
C41_16 C 0.42967(14) 0.60533(16) 0.02228(14)
C44_16 C 0.47690(14) 0.56692(16) 0.02343(13)
C45_16 C 0.46538(15) 0.57767(18) 0.04948(11)
H28_16 H 0.4737 0.5719 0.0677
C46_16 C 0.44177(16) 0.59687(17) 0.04891(11)
H29_16 H 0.4339 0.6042 0.0667
C47_16 C 0.5013(2) 0.5444(2) 0.0239(3)
C48_16 C 0.5232(3) 0.5452(2) 0.0026(2)
C62_16 C 0.5444(2) 0.5239(3) 0.0013(2)
C63_16 C 0.5452(2) 0.5026(2) 0.0232(3)
H39_16 H 0.5608 0.4887 0.0235
C36_16 C 0.37792(16) 0.66522(17) 0.99693(15)
H22_16 H 0.3763 0.6787 0.9812
C37_16 C 0.40134(15) 0.64580(18) 0.99796(15)
H23_16 H 0.4157 0.6460 0.9829
C42_16 C 0.44118(15) 0.59457(18) 0.99623(11)
H26_16 H 0.4329 0.6004 0.9780
C43_16 C 0.46480(17) 0.57537(17) 0.99681(11)
H27_16 H 0.4727 0.5680 0.9790
H30_16 H 0.5235 0.5608 0.9887
O15_16 O 0.68739(12) 0.53850(14) 0.81435(12)
C49_16 C 0.6847(2) 0.5167(3) 0.83075(19)
C50_16 C 0.66491(15) 0.51896(15) 0.85691(13)
C51_16 C 0.66522(17) 0.49693(15) 0.87792(16)
H31_16 H 0.6787 0.4812 0.8763
C52_16 C 0.64580(18) 0.49796(15) 0.90134(15)
H32_16 H 0.6460 0.4829 0.9157
C53_16 C 0.62607(16) 0.52103(16) 0.90375(14)
C54_16 C 0.62577(17) 0.54305(15) 0.88274(16)
H33_16 H 0.6123 0.5588 0.8844
C55_16 C 0.64519(17) 0.54202(15) 0.85932(15)
H34_16 H 0.6450 0.5571 0.8450
C56_16 C 0.60533(16) 0.52228(14) 0.92967(14)
C57_16 C 0.59457(18) 0.49623(11) 0.94118(15)
H35_16 H 0.6004 0.4780 0.9329
C58_16 C 0.57537(17) 0.49681(11) 0.96480(17)
H36_16 H 0.5680 0.4790 0.9727
C59_16 C 0.56692(16) 0.52343(13) 0.97690(14)
C60_16 C 0.57767(18) 0.54948(11) 0.96538(15)
H37_16 H 0.5719 0.5677 0.9737
C61_16 C 0.59687(17) 0.54891(11) 0.94177(16)
H38_16 H 0.6042 0.5667 0.9339
O12_13 O 0.94752(18) 0.00874(18) 0.57716(17)
C36_17 C 0.91522(17) 0.00307(15) 0.62792(16)
H22_17 H 0.9287 0.0188 0.6263
C37_17 C 0.89580(18) 0.00204(15) 0.65134(15)
H23_17 H 0.8960 0.0171 0.6657
C42_17 C 0.84457(18) 0.00377(11) 0.69118(15)
H26_17 H 0.8504 0.0220 0.6829
C43_17 C 0.82537(17) 0.00319(11) 0.71480(17)
H27_17 H 0.8180 0.0210 0.7227
H30_17 H 0.8108 0.0113 0.7735
O14_13 O 0.74126(18) 0.17284(17) 0.94752(18)
C49_17 C 0.7667(3) 0.16925(19) 0.9347(2)
C50_17 C 0.76896(15) 0.14309(13) 0.91491(15)
C51_17 C 0.74693(15) 0.12208(16) 0.91522(17)
H31_17 H 0.7312 0.1237 0.9287
C52_17 C 0.74796(15) 0.09866(15) 0.89580(18)
H32_17 H 0.7329 0.0843 0.8960
C53_17 C 0.77103(16) 0.09625(14) 0.87607(16)
C54_17 C 0.79305(15) 0.11726(16) 0.87577(17)
H33_17 H 0.8088 0.1156 0.8623
C55_17 C 0.79202(15) 0.14068(15) 0.89519(17)
H34_17 H 0.8071 0.1550 0.8950
C56_17 C 0.77228(14) 0.07033(14) 0.85533(16)
C57_17 C 0.74623(11) 0.05882(15) 0.84457(18)
H35_17 H 0.7280 0.0671 0.8504
C58_17 C 0.74681(11) 0.03520(17) 0.82537(17)
H36_17 H 0.7290 0.0273 0.8180
C59_17 C 0.77343(13) 0.02310(14) 0.81692(16)
C60_17 C 0.79948(11) 0.03462(15) 0.82767(18)
H37_17 H 0.8177 0.0263 0.8219
C61_17 C 0.79891(11) 0.05823(16) 0.84687(17)
H38_17 H 0.8167 0.0661 0.8542
O1_6 O 0.52426(17) 0.72574(17) 0.72574(17)
H1_17 H 0.5353 0.7147 0.7147
H2_17 H 0.5634 0.7537 0.7696
O3_17 O 0.5829(2) 0.7407(2) 0.72009(18)
O4_9 O 0.58055(14) 0.70267(13) 0.75177(14)
C1_17 C 0.59084(19) 0.7155(2) 0.73034(19)
C2_17 C 0.6158(2) 0.7031(2) 0.7150(2)
C3_17 C 0.6284(2) 0.7129(2) 0.6900(2)
H3_17 H 0.6217 0.7295 0.6795
C4_17 C 0.6524(2) 0.6957(2) 0.6812(2)
C5_17 C 0.6578(2) 0.6722(2) 0.6997(2)
S1_17 S 0.63226(5) 0.67109(5) 0.72820(5)
O5_5 O 0.57716(17) 0.80248(18) 0.74126(18)
C6_17 C 0.58075(19) 0.8153(2) 0.7667(3)
C7_17 C 0.60691(13) 0.83509(15) 0.76896(15)
C8_17 C 0.62792(16) 0.83478(17) 0.74693(15)
H4_17 H 0.6263 0.8213 0.7312
C9_17 C 0.65134(15) 0.85420(18) 0.74796(15)
H5_17 H 0.6657 0.8540 0.7329
C10_17 C 0.65375(14) 0.87393(16) 0.77103(16)
C11_17 C 0.63274(16) 0.87423(17) 0.79305(15)
H6_17 H 0.6344 0.8877 0.8088
C12_17 C 0.60932(15) 0.85481(17) 0.79202(15)
H7_17 H 0.5950 0.8550 0.8071
C13_17 C 0.67967(14) 0.89467(16) 0.77228(14)
C14_17 C 0.69118(15) 0.90543(18) 0.74623(11)
H8_17 H 0.6829 0.8996 0.7280
C15_17 C 0.71480(17) 0.92463(17) 0.74681(11)
H9_17 H 0.7227 0.9320 0.7290
C16_17 C 0.72690(14) 0.93308(16) 0.77343(13)
C17_17 C 0.71538(15) 0.92233(18) 0.79948(11)
H10_17 H 0.7237 0.9281 0.8177
C18_17 C 0.69177(16) 0.90313(17) 0.79891(11)
H11_17 H 0.6839 0.8958 0.8167
C19_17 C 0.7513(2) 0.9556(2) 0.7739(3)
C20_17 C 0.7732(3) 0.9548(2) 0.7526(2)
H12_17 H 0.7735 0.9392 0.7387
O7_17 O 0.5950(4) 0.7883(4) 0.6885(4)
C21_17 C 0.6111(5) 0.7993(4) 0.6699(5)
H13_17 H 0.6059 0.7921 0.6511
N1_17 N 0.6333(4) 0.8179(3) 0.6673(3)
C22_17 C 0.6630(4) 0.8079(7) 0.6642(8)
H14_17 H 0.6642 0.7939 0.6479
H15_17 H 0.6758 0.8247 0.6600
H16_17 H 0.6693 0.7984 0.6823
C23_17 C 0.6318(6) 0.8495(4) 0.6667(7)
H17_17 H 0.6212 0.8565 0.6841
H18_17 H 0.6516 0.8576 0.6667
H19_17 H 0.6214 0.8559 0.6490
O8_17 O 0.72009(18) 0.5829(2) 0.7407(2)
O9_9 O 0.75177(14) 0.58055(14) 0.70267(13)
C24_17 C 0.73034(19) 0.59084(19) 0.7155(2)
C25_17 C 0.7150(2) 0.6158(2) 0.7031(2)
C26_17 C 0.6900(2) 0.6284(2) 0.7129(2)
H20_17 H 0.6795 0.6217 0.7295
C27_17 C 0.6812(2) 0.6524(2) 0.6957(2)
C28_17 C 0.6997(2) 0.6578(2) 0.6722(2)
S2_17 S 0.72820(5) 0.63226(5) 0.67109(5)
O10_17 O 0.7407(2) 0.72009(18) 0.5829(2)
O11_9 O 0.70267(13) 0.75177(14) 0.58055(14)
C29_17 C 0.7155(2) 0.73034(19) 0.59084(19)
C30_17 C 0.7031(2) 0.7150(2) 0.6158(2)
C31_17 C 0.7129(2) 0.6900(2) 0.6284(2)
H21_17 H 0.7295 0.6795 0.6217
C32_17 C 0.6957(2) 0.6812(2) 0.6524(2)
C33_17 C 0.6722(2) 0.6997(2) 0.6578(2)
S3_17 S 0.67109(5) 0.72820(5) 0.63226(5)
C34_17 C 0.9347(2) 0.9833(3) 0.58075(19)
C35_17 C 0.91491(15) 0.98104(15) 0.60691(13)
C38_17 C 0.87607(16) 0.97897(16) 0.65375(14)
C39_17 C 0.87577(17) 0.95695(15) 0.63274(16)
H24_17 H 0.8623 0.9412 0.6344
C40_17 C 0.89519(17) 0.95798(15) 0.60932(15)
H25_17 H 0.8950 0.9429 0.5950
C41_17 C 0.85533(16) 0.97772(14) 0.67967(14)
C44_17 C 0.81692(16) 0.97657(13) 0.72690(14)
C45_17 C 0.82767(18) 0.95052(11) 0.71538(15)
H28_17 H 0.8219 0.9323 0.7237
C46_17 C 0.84687(17) 0.95109(11) 0.69177(16)
H29_17 H 0.8542 0.9333 0.6839
C47_17 C 0.7944(2) 0.9761(3) 0.7513(2)
C48_17 C 0.7952(2) 0.9974(2) 0.7732(3)
C62_17 C 0.7739(3) 0.9987(2) 0.7944(2)
C63_17 C 0.7526(2) 0.9768(3) 0.7952(2)
H39_17 H 0.7387 0.9765 0.8108
H40_17 H 0.7696 0.5634 0.7537
O17_17 O 0.6885(4) 0.5950(4) 0.7883(4)
C64_17 C 0.6699(5) 0.6111(5) 0.7993(4)
H41_17 H 0.6511 0.6059 0.7921
N2_17 N 0.6673(3) 0.6333(4) 0.8179(3)
C65_17 C 0.6642(8) 0.6630(4) 0.8079(7)
H42_17 H 0.6479 0.6642 0.7939
H43_17 H 0.6600 0.6758 0.8247
H44_17 H 0.6823 0.6693 0.7984
C66_17 C 0.6667(7) 0.6318(6) 0.8495(4)
H45_17 H 0.6841 0.6212 0.8565
H46_17 H 0.6667 0.6516 0.8576
H47_17 H 0.6490 0.6214 0.8559
H48_17 H 0.7537 0.7696 0.5634
O19_17 O 0.7883(4) 0.6885(4) 0.5950(4)
C67_17 C 0.7993(4) 0.6699(5) 0.6111(5)
H49_17 H 0.7921 0.6511 0.6059
N3_17 N 0.8179(3) 0.6673(3) 0.6333(4)
C68_17 C 0.8079(7) 0.6642(8) 0.6630(4)
H50_17 H 0.7939 0.6479 0.6642
H51_17 H 0.8247 0.6600 0.6758
H52_17 H 0.7984 0.6823 0.6693
C69_17 C 0.8495(4) 0.6667(7) 0.6318(6)
H53_17 H 0.8565 0.6841 0.6212
H54_17 H 0.8576 0.6667 0.6516
H55_17 H 0.8559 0.6490 0.6214
O20_7 O 0.72574(17) 0.52426(17) 0.72574(17)
O21_6 O 0.72574(17) 0.72574(17) 0.52426(17)
O28_9 O 0.75177(14) 0.66945(14) 0.54733(13)
O29_9 O 0.54733(13) 0.75177(14) 0.66945(14)
O30_9 O 0.66945(14) 0.54733(13) 0.75177(14)
O31_13 O 0.74126(18) 0.57716(17) 0.80248(18)
O32_9 O 0.80248(18) 0.74126(18) 0.57716(17)
O12_14 O 0.57716(17) 0.94752(18) 0.00874(18)
C36_18 C 0.62792(16) 0.91522(17) 0.00307(15)
H22_18 H 0.6263 0.9287 0.0188
C37_18 C 0.65134(15) 0.89580(18) 0.00204(15)
H23_18 H 0.6657 0.8960 0.0171
C42_18 C 0.69118(15) 0.84457(18) 0.00377(11)
H26_18 H 0.6829 0.8504 0.0220
C43_18 C 0.71480(17) 0.82537(17) 0.00319(11)
H27_18 H 0.7227 0.8180 0.0210
H30_18 H 0.7735 0.8108 0.0113
O14_14 O 0.94752(18) 0.74126(18) 0.17284(17)
C49_18 C 0.9347(2) 0.7667(3) 0.16925(19)
C50_18 C 0.91491(15) 0.76896(15) 0.14309(13)
C51_18 C 0.91522(17) 0.74693(15) 0.12208(16)
H31_18 H 0.9287 0.7312 0.1237
C52_18 C 0.89580(18) 0.74796(15) 0.09866(15)
H32_18 H 0.8960 0.7329 0.0843
C53_18 C 0.87607(16) 0.77103(16) 0.09625(14)
C54_18 C 0.87577(17) 0.79305(15) 0.11726(16)
H33_18 H 0.8623 0.8088 0.1156
C55_18 C 0.89519(17) 0.79202(15) 0.14068(15)
H34_18 H 0.8950 0.8071 0.1550
C56_18 C 0.85533(16) 0.77228(14) 0.07033(14)
C57_18 C 0.84457(18) 0.74623(11) 0.05882(15)
H35_18 H 0.8504 0.7280 0.0671
C58_18 C 0.82537(17) 0.74681(11) 0.03520(17)
H36_18 H 0.8180 0.7290 0.0273
C59_18 C 0.81692(16) 0.77343(13) 0.02310(14)
C60_18 C 0.82767(18) 0.79948(11) 0.03462(15)
H37_18 H 0.8219 0.8177 0.0263
C61_18 C 0.84687(17) 0.79891(11) 0.05823(16)
H38_18 H 0.8542 0.8167 0.0661
H1_18 H 0.7147 0.5353 0.7147
C6_18 C 0.7667(3) 0.58075(19) 0.8153(2)
C7_18 C 0.76896(15) 0.60691(13) 0.83509(15)
C8_18 C 0.74693(15) 0.62792(16) 0.83478(17)
H4_18 H 0.7312 0.6263 0.8213
C9_18 C 0.74796(15) 0.65134(15) 0.85420(18)
H5_18 H 0.7329 0.6657 0.8540
C10_18 C 0.77103(16) 0.65375(14) 0.87393(16)
C11_18 C 0.79305(15) 0.63274(16) 0.87423(17)
H6_18 H 0.8088 0.6344 0.8877
C12_18 C 0.79202(15) 0.60932(15) 0.85481(17)
H7_18 H 0.8071 0.5950 0.8550
C13_18 C 0.77228(14) 0.67967(14) 0.89467(16)
C14_18 C 0.74623(11) 0.69118(15) 0.90543(18)
H8_18 H 0.7280 0.6829 0.8996
C15_18 C 0.74681(11) 0.71480(17) 0.92463(17)
H9_18 H 0.7290 0.7227 0.9320
C16_18 C 0.77343(13) 0.72690(14) 0.93308(16)
C17_18 C 0.79948(11) 0.71538(15) 0.92233(18)
H10_18 H 0.8177 0.7237 0.9281
C18_18 C 0.79891(11) 0.69177(16) 0.90313(17)
H11_18 H 0.8167 0.6839 0.8958
C19_18 C 0.7739(3) 0.7513(2) 0.9556(2)
C20_18 C 0.7526(2) 0.7732(3) 0.9548(2)
H12_18 H 0.7387 0.7735 0.9392
C34_18 C 0.58075(19) 0.9347(2) 0.9833(3)
C35_18 C 0.60691(13) 0.91491(15) 0.98104(15)
C38_18 C 0.65375(14) 0.87607(16) 0.97897(16)
C39_18 C 0.63274(16) 0.87577(17) 0.95695(15)
H24_18 H 0.6344 0.8623 0.9412
C40_18 C 0.60932(15) 0.89519(17) 0.95798(15)
H25_18 H 0.5950 0.8950 0.9429
C41_18 C 0.67967(14) 0.85533(16) 0.97772(14)
C44_18 C 0.72690(14) 0.81692(16) 0.97657(13)
C45_18 C 0.71538(15) 0.82767(18) 0.95052(11)
H28_18 H 0.7237 0.8219 0.9323
C46_18 C 0.69177(16) 0.84687(17) 0.95109(11)
H29_18 H 0.6839 0.8542 0.9333
C47_18 C 0.7513(2) 0.7944(2) 0.9761(3)
C48_18 C 0.7732(3) 0.7952(2) 0.9974(2)
C62_18 C 0.7944(2) 0.7739(3) 0.9987(2)
C63_18 C 0.7952(2) 0.7526(2) 0.9768(3)
H39_18 H 0.8108 0.7387 0.9765
O12_15 O 0.00874(18) 0.57716(17) 0.94752(18)
C36_19 C 0.00307(15) 0.62792(16) 0.91522(17)
H22_19 H 0.0188 0.6263 0.9287
C37_19 C 0.00204(15) 0.65134(15) 0.89580(18)
H23_19 H 0.0171 0.6657 0.8960
C42_19 C 0.00377(11) 0.69118(15) 0.84457(18)
H26_19 H 0.0220 0.6829 0.8504
C43_19 C 0.00319(11) 0.71480(17) 0.82537(17)
H27_19 H 0.0210 0.7227 0.8180
H30_19 H 0.0113 0.7735 0.8108
O14_15 O 0.17284(17) 0.94752(18) 0.74126(18)
C49_19 C 0.16925(19) 0.9347(2) 0.7667(3)
C50_19 C 0.14309(13) 0.91491(15) 0.76896(15)
C51_19 C 0.12208(16) 0.91522(17) 0.74693(15)
H31_19 H 0.1237 0.9287 0.7312
C52_19 C 0.09866(15) 0.89580(18) 0.74796(15)
H32_19 H 0.0843 0.8960 0.7329
C53_19 C 0.09625(14) 0.87607(16) 0.77103(16)
C54_19 C 0.11726(16) 0.87577(17) 0.79305(15)
H33_19 H 0.1156 0.8623 0.8088
C55_19 C 0.14068(15) 0.89519(17) 0.79202(15)
H34_19 H 0.1550 0.8950 0.8071
C56_19 C 0.07033(14) 0.85533(16) 0.77228(14)
C57_19 C 0.05882(15) 0.84457(18) 0.74623(11)
H35_19 H 0.0671 0.8504 0.7280
C58_19 C 0.03520(17) 0.82537(17) 0.74681(11)
H36_19 H 0.0273 0.8180 0.7290
C59_19 C 0.02310(14) 0.81692(16) 0.77343(13)
C60_19 C 0.03462(15) 0.82767(18) 0.79948(11)
H37_19 H 0.0263 0.8219 0.8177
C61_19 C 0.05823(16) 0.84687(17) 0.79891(11)
H38_19 H 0.0661 0.8542 0.8167
H1_19 H 0.7147 0.7147 0.5353
C6_19 C 0.8153(2) 0.7667(3) 0.58075(19)
C7_19 C 0.83509(15) 0.76896(15) 0.60691(13)
C8_19 C 0.83478(17) 0.74693(15) 0.62792(16)
H4_19 H 0.8213 0.7312 0.6263
C9_19 C 0.85420(18) 0.74796(15) 0.65134(15)
H5_19 H 0.8540 0.7329 0.6657
C10_19 C 0.87393(16) 0.77103(16) 0.65375(14)
C11_19 C 0.87423(17) 0.79305(15) 0.63274(16)
H6_19 H 0.8877 0.8088 0.6344
C12_19 C 0.85481(17) 0.79202(15) 0.60932(15)
H7_19 H 0.8550 0.8071 0.5950
C13_19 C 0.89467(16) 0.77228(14) 0.67967(14)
C14_19 C 0.90543(18) 0.74623(11) 0.69118(15)
H8_19 H 0.8996 0.7280 0.6829
C15_19 C 0.92463(17) 0.74681(11) 0.71480(17)
H9_19 H 0.9320 0.7290 0.7227
C16_19 C 0.93308(16) 0.77343(13) 0.72690(14)
C17_19 C 0.92233(18) 0.79948(11) 0.71538(15)
H10_19 H 0.9281 0.8177 0.7237
C18_19 C 0.90313(17) 0.79891(11) 0.69177(16)
H11_19 H 0.8958 0.8167 0.6839
C19_19 C 0.9556(2) 0.7739(3) 0.7513(2)
C20_19 C 0.9548(2) 0.7526(2) 0.7732(3)
H12_19 H 0.9392 0.7387 0.7735
C34_19 C 0.9833(3) 0.58075(19) 0.9347(2)
C35_19 C 0.98104(15) 0.60691(13) 0.91491(15)
C38_19 C 0.97897(16) 0.65375(14) 0.87607(16)
C39_19 C 0.95695(15) 0.63274(16) 0.87577(17)
H24_19 H 0.9412 0.6344 0.8623
C40_19 C 0.95798(15) 0.60932(15) 0.89519(17)
H25_19 H 0.9429 0.5950 0.8950
C41_19 C 0.97772(14) 0.67967(14) 0.85533(16)
C44_19 C 0.97657(13) 0.72690(14) 0.81692(16)
C45_19 C 0.95052(11) 0.71538(15) 0.82767(18)
H28_19 H 0.9323 0.7237 0.8219
C46_19 C 0.95109(11) 0.69177(16) 0.84687(17)
H29_19 H 0.9333 0.6839 0.8542
C47_19 C 0.9761(3) 0.7513(2) 0.7944(2)
C48_19 C 0.9974(2) 0.7732(3) 0.7952(2)
C62_19 C 0.9987(2) 0.7944(2) 0.7739(3)
C63_19 C 0.9768(3) 0.7952(2) 0.7526(2)
H39_19 H 0.9765 0.8108 0.7387
O1_7 O 0.02426(17) 0.02426(17) 0.52426(17)
H1_20 H 0.0353 0.0353 0.5353
O3_18 O 0.0093(2) 0.02991(18) 0.5829(2)
C1_18 C 0.0345(2) 0.01966(19) 0.59084(19)
C2_18 C 0.0469(2) 0.0350(2) 0.6158(2)
C3_18 C 0.0371(2) 0.0600(2) 0.6284(2)
H3_18 H 0.0205 0.0705 0.6217
C4_18 C 0.0543(2) 0.0688(2) 0.6524(2)
C5_18 C 0.0778(2) 0.0503(2) 0.6578(2)
S1_18 S 0.07891(5) 0.02180(5) 0.63226(5)
O8_18 O 0.1671(2) 0.0093(2) 0.72009(18)
O9_10 O 0.16945(14) 0.04733(13) 0.75177(14)
C24_18 C 0.15916(19) 0.0345(2) 0.73034(19)
C25_18 C 0.1342(2) 0.0469(2) 0.7150(2)
C26_18 C 0.1216(2) 0.0371(2) 0.6900(2)
H20_18 H 0.1283 0.0205 0.6795
C27_18 C 0.0976(2) 0.0543(2) 0.6812(2)
C28_18 C 0.0922(2) 0.0778(2) 0.6997(2)
S2_18 S 0.11774(5) 0.07891(5) 0.72820(5)
O10_18 O 0.02991(18) 0.1671(2) 0.7407(2)
C29_18 C 0.01966(19) 0.15916(19) 0.7155(2)
C30_18 C 0.0350(2) 0.1342(2) 0.7031(2)
C31_18 C 0.0600(2) 0.1216(2) 0.7129(2)
H21_18 H 0.0705 0.1283 0.7295
C32_18 C 0.0688(2) 0.0976(2) 0.6957(2)
C33_18 C 0.0503(2) 0.0922(2) 0.6722(2)
S3_18 S 0.02180(5) 0.11774(5) 0.67109(5)
O19_18 O 0.0615(4) 0.1550(4) 0.7883(4)
C67_18 C 0.0801(5) 0.1389(5) 0.7993(4)
H49_18 H 0.0989 0.1441 0.7921
N3_18 N 0.0827(3) 0.1167(4) 0.8179(3)
C68_18 C 0.0858(8) 0.0870(4) 0.8079(7)
H50_18 H 0.1021 0.0858 0.7939
H51_18 H 0.0900 0.0742 0.8247
H52_18 H 0.0677 0.0807 0.7984
C69_18 C 0.0833(7) 0.1182(6) 0.8495(4)
H53_18 H 0.0659 0.1288 0.8565
H54_18 H 0.0833 0.0984 0.8576
H55_18 H 0.1010 0.1286 0.8559
O20_8 O 0.22574(17) 0.02426(17) 0.72574(17)
O21_7 O 0.02426(17) 0.22574(17) 0.72574(17)
O28_10 O 0.08055(14) 0.20267(13) 0.75177(14)
O32_10 O 0.00874(18) 0.17284(17) 0.80248(18)
O4_10 O 0.04733(13) 0.99823(14) 0.58055(14)
H40_18 H 0.1866 0.9963 0.7696
O17_18 O 0.1550(4) 0.9617(4) 0.6885(4)
C64_18 C 0.1389(5) 0.9507(4) 0.6699(5)
H41_18 H 0.1441 0.9579 0.6511
N2_18 N 0.1167(4) 0.9321(3) 0.6673(3)
C65_18 C 0.0870(4) 0.9421(7) 0.6642(8)
H42_18 H 0.0858 0.9561 0.6479
H43_18 H 0.0742 0.9253 0.6600
H44_18 H 0.0807 0.9516 0.6823
C66_18 C 0.1182(6) 0.9005(4) 0.6667(7)
H45_18 H 0.1288 0.8935 0.6841
H46_18 H 0.0984 0.8924 0.6667
H47_18 H 0.1286 0.8941 0.6490
O30_10 O 0.20267(13) 0.99823(14) 0.66945(14)
O7_18 O 0.9617(4) 0.0615(4) 0.5950(4)
C21_18 C 0.9507(4) 0.0801(5) 0.6111(5)
H13_18 H 0.9579 0.0989 0.6059
N1_18 N 0.9321(3) 0.0827(3) 0.6333(4)
C22_18 C 0.9421(7) 0.0858(8) 0.6630(4)
H14_18 H 0.9561 0.1021 0.6642
H15_18 H 0.9253 0.0900 0.6758
H16_18 H 0.9516 0.0677 0.6693
C23_18 C 0.9005(4) 0.0833(7) 0.6318(6)
H17_18 H 0.8935 0.0659 0.6212
H18_18 H 0.8924 0.0833 0.6516
H19_18 H 0.8941 0.1010 0.6214
O11_10 O 0.99823(14) 0.16945(14) 0.70267(13)
H48_18 H 0.9804 0.1866 0.7537
O29_10 O 0.99823(14) 0.08055(14) 0.54733(13)
H2_18 H 0.9963 0.9804 0.5634
O1_8 O 0.72574(17) 0.22574(17) 0.02426(17)
H1_21 H 0.7147 0.2147 0.0353
O3_19 O 0.72009(18) 0.1671(2) 0.0093(2)
O4_11 O 0.75177(14) 0.16945(14) 0.04733(13)
C1_19 C 0.73034(19) 0.15916(19) 0.0345(2)
C2_19 C 0.7150(2) 0.1342(2) 0.0469(2)
C3_19 C 0.6900(2) 0.1216(2) 0.0371(2)
H3_19 H 0.6795 0.1283 0.0205
C4_19 C 0.6812(2) 0.0976(2) 0.0543(2)
C5_19 C 0.6997(2) 0.0922(2) 0.0778(2)
S1_19 S 0.72820(5) 0.11774(5) 0.07891(5)
O8_19 O 0.7407(2) 0.02991(18) 0.1671(2)
C24_19 C 0.7155(2) 0.01966(19) 0.15916(19)
C25_19 C 0.7031(2) 0.0350(2) 0.1342(2)
C26_19 C 0.7129(2) 0.0600(2) 0.1216(2)
H20_19 H 0.7295 0.0705 0.1283
C27_19 C 0.6957(2) 0.0688(2) 0.0976(2)
C28_19 C 0.6722(2) 0.0503(2) 0.0922(2)
S2_19 S 0.67109(5) 0.02180(5) 0.11774(5)
O10_19 O 0.5829(2) 0.0093(2) 0.02991(18)
C29_19 C 0.59084(19) 0.0345(2) 0.01966(19)
C30_19 C 0.6158(2) 0.0469(2) 0.0350(2)
C31_19 C 0.6284(2) 0.0371(2) 0.0600(2)
H21_19 H 0.6217 0.0205 0.0705
C32_19 C 0.6524(2) 0.0543(2) 0.0688(2)
C33_19 C 0.6578(2) 0.0778(2) 0.0503(2)
S3_19 S 0.63226(5) 0.07891(5) 0.02180(5)
O17_19 O 0.7883(4) 0.0615(4) 0.1550(4)
C64_19 C 0.7993(4) 0.0801(5) 0.1389(5)
H41_19 H 0.7921 0.0989 0.1441
N2_19 N 0.8179(3) 0.0827(3) 0.1167(4)
C65_19 C 0.8079(7) 0.0858(8) 0.0870(4)
H42_19 H 0.7939 0.1021 0.0858
H43_19 H 0.8247 0.0900 0.0742
H44_19 H 0.7984 0.0677 0.0807
C66_19 C 0.8495(4) 0.0833(7) 0.1182(6)
H45_19 H 0.8565 0.0659 0.1288
H46_19 H 0.8576 0.0833 0.0984
H47_19 H 0.8559 0.1010 0.1286
O20_9 O 0.72574(17) 0.02426(17) 0.22574(17)
O21_8 O 0.52426(17) 0.02426(17) 0.02426(17)
O30_11 O 0.75177(14) 0.08055(14) 0.20267(13)
O31_14 O 0.80248(18) 0.00874(18) 0.17284(17)
H2_19 H 0.7696 0.1866 0.9963
O7_19 O 0.6885(4) 0.1550(4) 0.9617(4)
C21_19 C 0.6699(5) 0.1389(5) 0.9507(4)
H13_19 H 0.6511 0.1441 0.9579
N1_19 N 0.6673(3) 0.1167(4) 0.9321(3)
C22_19 C 0.6642(8) 0.0870(4) 0.9421(7)
H14_19 H 0.6479 0.0858 0.9561
H15_19 H 0.6600 0.0742 0.9253
H16_19 H 0.6823 0.0807 0.9516
C23_19 C 0.6667(7) 0.1182(6) 0.9005(4)
H17_19 H 0.6841 0.1288 0.8935
H18_19 H 0.6667 0.0984 0.8924
H19_19 H 0.6490 0.1286 0.8941
O11_11 O 0.58055(14) 0.04733(13) 0.99823(14)
O29_11 O 0.66945(14) 0.20267(13) 0.99823(14)
O9_11 O 0.70267(13) 0.99823(14) 0.16945(14)
H40_19 H 0.7537 0.9804 0.1866
O19_19 O 0.5950(4) 0.9617(4) 0.0615(4)
C67_19 C 0.6111(5) 0.9507(4) 0.0801(5)
H49_19 H 0.6059 0.9579 0.0989
N3_19 N 0.6333(4) 0.9321(3) 0.0827(3)
C68_19 C 0.6630(4) 0.9421(7) 0.0858(8)
H50_19 H 0.6642 0.9561 0.1021
H51_19 H 0.6758 0.9253 0.0900
H52_19 H 0.6693 0.9516 0.0677
C69_19 C 0.6318(6) 0.9005(4) 0.0833(7)
H53_19 H 0.6212 0.8935 0.0659
H54_19 H 0.6516 0.8924 0.0833
H55_19 H 0.6214 0.8941 0.1010
O28_11 O 0.54733(13) 0.99823(14) 0.08055(14)
H48_19 H 0.5634 0.9963 0.9804
O1_9 O 0.02426(17) 0.72574(17) 0.22574(17)
H1_22 H 0.0353 0.7147 0.2147
O3_20 O 0.0093(2) 0.72009(18) 0.1671(2)
O4_12 O 0.04733(13) 0.75177(14) 0.16945(14)
C1_20 C 0.0345(2) 0.73034(19) 0.15916(19)
C2_20 C 0.0469(2) 0.7150(2) 0.1342(2)
C3_20 C 0.0371(2) 0.6900(2) 0.1216(2)
H3_20 H 0.0205 0.6795 0.1283
C4_20 C 0.0543(2) 0.6812(2) 0.0976(2)
C5_20 C 0.0778(2) 0.6997(2) 0.0922(2)
S1_20 S 0.07891(5) 0.72820(5) 0.11774(5)
O8_20 O 0.1671(2) 0.7407(2) 0.02991(18)
C24_20 C 0.15916(19) 0.7155(2) 0.01966(19)
C25_20 C 0.1342(2) 0.7031(2) 0.0350(2)
C26_20 C 0.1216(2) 0.7129(2) 0.0600(2)
H20_20 H 0.1283 0.7295 0.0705
C27_20 C 0.0976(2) 0.6957(2) 0.0688(2)
C28_20 C 0.0922(2) 0.6722(2) 0.0503(2)
S2_20 S 0.11774(5) 0.67109(5) 0.02180(5)
O10_20 O 0.02991(18) 0.5829(2) 0.0093(2)
C29_20 C 0.01966(19) 0.59084(19) 0.0345(2)
C30_20 C 0.0350(2) 0.6158(2) 0.0469(2)
C31_20 C 0.0600(2) 0.6284(2) 0.0371(2)
H21_20 H 0.0705 0.6217 0.0205
C32_20 C 0.0688(2) 0.6524(2) 0.0543(2)
C33_20 C 0.0503(2) 0.6578(2) 0.0778(2)
S3_20 S 0.02180(5) 0.63226(5) 0.07891(5)
O17_20 O 0.1550(4) 0.7883(4) 0.0615(4)
C64_20 C 0.1389(5) 0.7993(4) 0.0801(5)
H41_20 H 0.1441 0.7921 0.0989
N2_20 N 0.1167(4) 0.8179(3) 0.0827(3)
C65_20 C 0.0870(4) 0.8079(7) 0.0858(8)
H42_20 H 0.0858 0.7939 0.1021
H43_20 H 0.0742 0.8247 0.0900
H44_20 H 0.0807 0.7984 0.0677
C66_20 C 0.1182(6) 0.8495(4) 0.0833(7)
H45_20 H 0.1288 0.8565 0.0659
H46_20 H 0.0984 0.8576 0.0833
H47_20 H 0.1286 0.8559 0.1010
O20_10 O 0.22574(17) 0.72574(17) 0.02426(17)
O21_9 O 0.02426(17) 0.52426(17) 0.02426(17)
O30_12 O 0.20267(13) 0.75177(14) 0.08055(14)
O31_15 O 0.17284(17) 0.80248(18) 0.00874(18)
O9_12 O 0.16945(14) 0.70267(13) 0.99823(14)
H40_20 H 0.1866 0.7537 0.9804
O19_20 O 0.0615(4) 0.5950(4) 0.9617(4)
C67_20 C 0.0801(5) 0.6111(5) 0.9507(4)
H49_20 H 0.0989 0.6059 0.9579
N3_20 N 0.0827(3) 0.6333(4) 0.9321(3)
C68_20 C 0.0858(8) 0.6630(4) 0.9421(7)
H50_20 H 0.1021 0.6642 0.9561
H51_20 H 0.0900 0.6758 0.9253
H52_20 H 0.0677 0.6693 0.9516
C69_20 C 0.0833(7) 0.6318(6) 0.9005(4)
H53_20 H 0.0659 0.6212 0.8935
H54_20 H 0.0833 0.6516 0.8924
H55_20 H 0.1010 0.6214 0.8941
O28_12 O 0.08055(14) 0.54733(13) 0.99823(14)
H2_20 H 0.9963 0.7696 0.1866
O7_20 O 0.9617(4) 0.6885(4) 0.1550(4)
C21_20 C 0.9507(4) 0.6699(5) 0.1389(5)
H13_20 H 0.9579 0.6511 0.1441
N1_20 N 0.9321(3) 0.6673(3) 0.1167(4)
C22_20 C 0.9421(7) 0.6642(8) 0.0870(4)
H14_20 H 0.9561 0.6479 0.0858
H15_20 H 0.9253 0.6600 0.0742
H16_20 H 0.9516 0.6823 0.0807
C23_20 C 0.9005(4) 0.6667(7) 0.1182(6)
H17_20 H 0.8935 0.6841 0.1288
H18_20 H 0.8924 0.6667 0.0984
H19_20 H 0.8941 0.6490 0.1286
O11_12 O 0.99823(14) 0.58055(14) 0.04733(13)
O29_12 O 0.99823(14) 0.66945(14) 0.20267(13)
H48_20 H 0.9804 0.5634 0.9963
H1_23 H 0.0353 0.2147 0.7147
C8_20 C 0.00307(15) 0.12208(16) 0.83478(17)
H4_20 H 0.0188 0.1237 0.8213
C9_20 C 0.00204(15) 0.09866(15) 0.85420(18)
H5_20 H 0.0171 0.0843 0.8540
C14_20 C 0.00377(11) 0.05882(15) 0.90543(18)
H8_20 H 0.0220 0.0671 0.8996
C15_20 C 0.00319(11) 0.03520(17) 0.92463(17)
H9_20 H 0.0210 0.0273 0.9320
C36_20 C 0.12208(16) 0.83478(17) 0.00307(15)
H22_20 H 0.1237 0.8213 0.0188
C37_20 C 0.09866(15) 0.85420(18) 0.00204(15)
H23_20 H 0.0843 0.8540 0.0171
C42_20 C 0.05882(15) 0.90543(18) 0.00377(11)
H26_20 H 0.0671 0.8996 0.0220
C43_20 C 0.03520(17) 0.92463(17) 0.00319(11)
H27_20 H 0.0273 0.9320 0.0210
H12_20 H 0.0113 0.9765 0.9392
C34_20 C 0.16925(19) 0.8153(2) 0.9833(3)
C35_20 C 0.14309(13) 0.83509(15) 0.98104(15)
C38_20 C 0.09625(14) 0.87393(16) 0.97897(16)
C39_20 C 0.11726(16) 0.87423(17) 0.95695(15)
H24_20 H 0.1156 0.8877 0.9412
C40_20 C 0.14068(15) 0.85481(17) 0.95798(15)
H25_20 H 0.1550 0.8550 0.9429
C41_20 C 0.07033(14) 0.89467(16) 0.97772(14)
C44_20 C 0.02310(14) 0.93308(16) 0.97657(13)
C45_20 C 0.03462(15) 0.92233(18) 0.95052(11)
H28_20 H 0.0263 0.9281 0.9323
C46_20 C 0.05823(16) 0.90313(17) 0.95109(11)
H29_20 H 0.0661 0.8958 0.9333
C51_20 C 0.83478(17) 0.00307(15) 0.12208(16)
H31_20 H 0.8213 0.0188 0.1237
C52_20 C 0.85420(18) 0.00204(15) 0.09866(15)
H32_20 H 0.8540 0.0171 0.0843
C57_20 C 0.90543(18) 0.00377(11) 0.05882(15)
H35_20 H 0.8996 0.0220 0.0671
C58_20 C 0.92463(17) 0.00319(11) 0.03520(17)
H36_20 H 0.9320 0.0210 0.0273
C6_20 C 0.9833(3) 0.16925(19) 0.8153(2)
C7_20 C 0.98104(15) 0.14309(13) 0.83509(15)
C10_20 C 0.97897(16) 0.09625(14) 0.87393(16)
C11_20 C 0.95695(15) 0.11726(16) 0.87423(17)
H6_20 H 0.9412 0.1156 0.8877
C12_20 C 0.95798(15) 0.14068(15) 0.85481(17)
H7_20 H 0.9429 0.1550 0.8550
C13_20 C 0.97772(14) 0.07033(14) 0.89467(16)
C16_20 C 0.97657(13) 0.02310(14) 0.93308(16)
C17_20 C 0.95052(11) 0.03462(15) 0.92233(18)
H10_20 H 0.9323 0.0263 0.9281
C18_20 C 0.95109(11) 0.05823(16) 0.90313(17)
H11_20 H 0.9333 0.0661 0.8958
H39_20 H 0.9392 0.0113 0.9765
H30_20 H 0.9765 0.9392 0.0113
C49_20 C 0.8153(2) 0.9833(3) 0.16925(19)
C50_20 C 0.83509(15) 0.98104(15) 0.14309(13)
C53_20 C 0.87393(16) 0.97897(16) 0.09625(14)
C54_20 C 0.87423(17) 0.95695(15) 0.11726(16)
H33_20 H 0.8877 0.9412 0.1156
C55_20 C 0.85481(17) 0.95798(15) 0.14068(15)
H34_20 H 0.8550 0.9429 0.1550
C56_20 C 0.89467(16) 0.97772(14) 0.07033(14)
C59_20 C 0.93308(16) 0.97657(13) 0.02310(14)
C60_20 C 0.92233(18) 0.95052(11) 0.03462(15)
H37_20 H 0.9281 0.9323 0.0263
C61_20 C 0.90313(17) 0.95109(11) 0.05823(16)
H38_20 H 0.8958 0.9333 0.0661
C19_20 C 0.9761(3) 0.9987(2) 0.9556(2)
C20_20 C 0.9974(2) 0.9768(3) 0.9548(2)
C47_20 C 0.9987(2) 0.9556(2) 0.9761(3)
C48_20 C 0.9768(3) 0.9548(2) 0.9974(2)
C62_20 C 0.9556(2) 0.9761(3) 0.9987(2)
C63_20 C 0.9548(2) 0.9974(2) 0.9768(3)
H1_24 H 0.0353 0.5353 0.0353
H1_25 H 0.7147 0.0353 0.2147
H1_26 H 0.2147 0.0353 0.7147
H1_27 H 0.5353 0.0353 0.0353
H1_28 H 0.2147 0.7147 0.0353
O1_10 O 0.52426(17) 0.22574(17) 0.22574(17)
H1_29 H 0.5353 0.2147 0.2147
H2_21 H 0.5634 0.2537 0.2696
O3_21 O 0.5829(2) 0.2407(2) 0.22009(18)
O4_13 O 0.58055(14) 0.20267(13) 0.25177(14)
C1_21 C 0.59084(19) 0.2155(2) 0.23034(19)
C2_21 C 0.6158(2) 0.2031(2) 0.2150(2)
C3_21 C 0.6284(2) 0.2129(2) 0.1900(2)
H3_21 H 0.6217 0.2295 0.1795
C4_21 C 0.6524(2) 0.1957(2) 0.1812(2)
C5_21 C 0.6578(2) 0.1722(2) 0.1997(2)
S1_21 S 0.63226(5) 0.17109(5) 0.22820(5)
O5_6 O 0.57716(17) 0.30248(18) 0.24126(18)
C6_21 C 0.58075(19) 0.3153(2) 0.2667(3)
C7_21 C 0.60691(13) 0.33509(15) 0.26896(15)
C8_21 C 0.62792(16) 0.33478(17) 0.24693(15)
H4_21 H 0.6263 0.3213 0.2312
C9_21 C 0.65134(15) 0.35420(18) 0.24796(15)
H5_21 H 0.6657 0.3540 0.2329
C10_21 C 0.65375(14) 0.37393(16) 0.27103(16)
C11_21 C 0.63274(16) 0.37423(17) 0.29305(15)
H6_21 H 0.6344 0.3877 0.3088
C12_21 C 0.60932(15) 0.35481(17) 0.29202(15)
H7_21 H 0.5950 0.3550 0.3071
C13_21 C 0.67967(14) 0.39467(16) 0.27228(14)
C14_21 C 0.69118(15) 0.40543(18) 0.24623(11)
H8_21 H 0.6829 0.3996 0.2280
C15_21 C 0.71480(17) 0.42463(17) 0.24681(11)
H9_21 H 0.7227 0.4320 0.2290
C16_21 C 0.72690(14) 0.43308(16) 0.27343(13)
C17_21 C 0.71538(15) 0.42233(18) 0.29948(11)
H10_21 H 0.7237 0.4281 0.3177
C18_21 C 0.69177(16) 0.40313(17) 0.29891(11)
H11_21 H 0.6839 0.3958 0.3167
C19_21 C 0.7513(2) 0.4556(2) 0.2739(3)
C20_21 C 0.7732(3) 0.4548(2) 0.2526(2)
H12_21 H 0.7735 0.4392 0.2387
O7_21 O 0.5950(4) 0.2883(4) 0.1885(4)
C21_21 C 0.6111(5) 0.2993(4) 0.1699(5)
H13_21 H 0.6059 0.2921 0.1511
N1_21 N 0.6333(4) 0.3179(3) 0.1673(3)
C22_21 C 0.6630(4) 0.3079(7) 0.1642(8)
H14_21 H 0.6642 0.2939 0.1479
H15_21 H 0.6758 0.3247 0.1600
H16_21 H 0.6693 0.2984 0.1823
C23_21 C 0.6318(6) 0.3495(4) 0.1667(7)
H17_21 H 0.6212 0.3565 0.1841
H18_21 H 0.6516 0.3576 0.1667
H19_21 H 0.6214 0.3559 0.1490
O8_21 O 0.72009(18) 0.0829(2) 0.2407(2)
C24_21 C 0.73034(19) 0.09084(19) 0.2155(2)
C25_21 C 0.7150(2) 0.1158(2) 0.2031(2)
C26_21 C 0.6900(2) 0.1284(2) 0.2129(2)
H20_21 H 0.6795 0.1217 0.2295
C27_21 C 0.6812(2) 0.1524(2) 0.1957(2)
C28_21 C 0.6997(2) 0.1578(2) 0.1722(2)
S2_21 S 0.72820(5) 0.13226(5) 0.17109(5)
O10_21 O 0.7407(2) 0.22009(18) 0.0829(2)
O11_13 O 0.70267(13) 0.25177(14) 0.08055(14)
C29_21 C 0.7155(2) 0.23034(19) 0.09084(19)
C30_21 C 0.7031(2) 0.2150(2) 0.1158(2)
C31_21 C 0.7129(2) 0.1900(2) 0.1284(2)
H21_21 H 0.7295 0.1795 0.1217
C32_21 C 0.6957(2) 0.1812(2) 0.1524(2)
C33_21 C 0.6722(2) 0.1997(2) 0.1578(2)
S3_21 S 0.67109(5) 0.22820(5) 0.13226(5)
O12_16 O 0.94752(18) 0.50874(18) 0.07716(17)
C34_21 C 0.9347(2) 0.4833(3) 0.08075(19)
C35_21 C 0.91491(15) 0.48104(15) 0.10691(13)
C36_21 C 0.91522(17) 0.50307(15) 0.12792(16)
H22_21 H 0.9287 0.5188 0.1263
C37_21 C 0.89580(18) 0.50204(15) 0.15134(15)
H23_21 H 0.8960 0.5171 0.1657
C38_21 C 0.87607(16) 0.47897(16) 0.15375(14)
C39_21 C 0.87577(17) 0.45695(15) 0.13274(16)
H24_21 H 0.8623 0.4412 0.1344
C40_21 C 0.89519(17) 0.45798(15) 0.10932(15)
H25_21 H 0.8950 0.4429 0.0950
C41_21 C 0.85533(16) 0.47772(14) 0.17967(14)
C42_21 C 0.84457(18) 0.50377(11) 0.19118(15)
H26_21 H 0.8504 0.5220 0.1829
C43_21 C 0.82537(17) 0.50319(11) 0.21480(17)
H27_21 H 0.8180 0.5210 0.2227
C44_21 C 0.81692(16) 0.47657(13) 0.22690(14)
C45_21 C 0.82767(18) 0.45052(11) 0.21538(15)
H28_21 H 0.8219 0.4323 0.2237
C46_21 C 0.84687(17) 0.45109(11) 0.19177(16)
H29_21 H 0.8542 0.4333 0.1839
C47_21 C 0.7944(2) 0.4761(3) 0.2513(2)
C48_21 C 0.7952(2) 0.4974(2) 0.2732(3)
H30_21 H 0.8108 0.5113 0.2735
O14_16 O 0.74126(18) 0.67284(17) 0.44752(18)
C49_21 C 0.7667(3) 0.66925(19) 0.4347(2)
C50_21 C 0.76896(15) 0.64309(13) 0.41491(15)
C51_21 C 0.74693(15) 0.62208(16) 0.41522(17)
H31_21 H 0.7312 0.6237 0.4287
C52_21 C 0.74796(15) 0.59866(15) 0.39580(18)
H32_21 H 0.7329 0.5843 0.3960
C53_21 C 0.77103(16) 0.59625(14) 0.37607(16)
C54_21 C 0.79305(15) 0.61726(16) 0.37577(17)
H33_21 H 0.8088 0.6156 0.3623
C55_21 C 0.79202(15) 0.64068(15) 0.39519(17)
H34_21 H 0.8071 0.6550 0.3950
C56_21 C 0.77228(14) 0.57033(14) 0.35533(16)
C57_21 C 0.74623(11) 0.55882(15) 0.34457(18)
H35_21 H 0.7280 0.5671 0.3504
C58_21 C 0.74681(11) 0.53520(17) 0.32537(17)
H36_21 H 0.7290 0.5273 0.3180
C59_21 C 0.77343(13) 0.52310(14) 0.31692(16)
C60_21 C 0.79948(11) 0.53462(15) 0.32767(18)
H37_21 H 0.8177 0.5263 0.3219
C61_21 C 0.79891(11) 0.55823(16) 0.34687(17)
H38_21 H 0.8167 0.5661 0.3542
C62_21 C 0.7739(3) 0.4987(2) 0.2944(2)
C63_21 C 0.7526(2) 0.4768(3) 0.2952(2)
H39_21 H 0.7387 0.4765 0.3108
H40_21 H 0.7696 0.0634 0.2537
O17_21 O 0.6885(4) 0.0950(4) 0.2883(4)
C64_21 C 0.6699(5) 0.1111(5) 0.2993(4)
H41_21 H 0.6511 0.1059 0.2921
N2_21 N 0.6673(3) 0.1333(4) 0.3179(3)
C65_21 C 0.6642(8) 0.1630(4) 0.3079(7)
H42_21 H 0.6479 0.1642 0.2939
H43_21 H 0.6600 0.1758 0.3247
H44_21 H 0.6823 0.1693 0.2984
C66_21 C 0.6667(7) 0.1318(6) 0.3495(4)
H45_21 H 0.6841 0.1212 0.3565
H46_21 H 0.6667 0.1516 0.3576
H47_21 H 0.6490 0.1214 0.3559
H48_21 H 0.7537 0.2696 0.0634
O19_21 O 0.7883(4) 0.1885(4) 0.0950(4)
C67_21 C 0.7993(4) 0.1699(5) 0.1111(5)
H49_21 H 0.7921 0.1511 0.1059
N3_21 N 0.8179(3) 0.1673(3) 0.1333(4)
C68_21 C 0.8079(7) 0.1642(8) 0.1630(4)
H50_21 H 0.7939 0.1479 0.1642
H51_21 H 0.8247 0.1600 0.1758
H52_21 H 0.7984 0.1823 0.1693
C69_21 C 0.8495(4) 0.1667(7) 0.1318(6)
H53_21 H 0.8565 0.1841 0.1212
H54_21 H 0.8576 0.1667 0.1516
H55_21 H 0.8559 0.1490 0.1214
O29_13 O 0.54733(13) 0.25177(14) 0.16945(14)
O30_13 O 0.66945(14) 0.04733(13) 0.25177(14)
O31_16 O 0.74126(18) 0.07716(17) 0.30248(18)
O32_11 O 0.80248(18) 0.24126(18) 0.07716(17)
C6_22 C 0.7667(3) 0.08075(19) 0.3153(2)
C7_22 C 0.76896(15) 0.10691(13) 0.33509(15)
C8_22 C 0.74693(15) 0.12792(16) 0.33478(17)
H4_22 H 0.7312 0.1263 0.3213
C9_22 C 0.74796(15) 0.15134(15) 0.35420(18)
H5_22 H 0.7329 0.1657 0.3540
C10_22 C 0.77103(16) 0.15375(14) 0.37393(16)
C11_22 C 0.79305(15) 0.13274(16) 0.37423(17)
H6_22 H 0.8088 0.1344 0.3877
C12_22 C 0.79202(15) 0.10932(15) 0.35481(17)
H7_22 H 0.8071 0.0950 0.3550
C13_22 C 0.77228(14) 0.17967(14) 0.39467(16)
C14_22 C 0.74623(11) 0.19118(15) 0.40543(18)
H8_22 H 0.7280 0.1829 0.3996
C15_22 C 0.74681(11) 0.21480(17) 0.42463(17)
H9_22 H 0.7290 0.2227 0.4320
C16_22 C 0.77343(13) 0.22690(14) 0.43308(16)
C17_22 C 0.79948(11) 0.21538(15) 0.42233(18)
H10_22 H 0.8177 0.2237 0.4281
C18_22 C 0.79891(11) 0.19177(16) 0.40313(17)
H11_22 H 0.8167 0.1839 0.3958
C19_22 C 0.7739(3) 0.2513(2) 0.4556(2)
C20_22 C 0.7526(2) 0.2732(3) 0.4548(2)
H12_22 H 0.7387 0.2735 0.4392
O12_17 O 0.57716(17) 0.44752(18) 0.50874(18)
C34_22 C 0.58075(19) 0.4347(2) 0.4833(3)
C35_22 C 0.60691(13) 0.41491(15) 0.48104(15)
C36_22 C 0.62792(16) 0.41522(17) 0.50307(15)
H22_22 H 0.6263 0.4287 0.5188
C37_22 C 0.65134(15) 0.39580(18) 0.50204(15)
H23_22 H 0.6657 0.3960 0.5171
C38_22 C 0.65375(14) 0.37607(16) 0.47897(16)
C39_22 C 0.63274(16) 0.37577(17) 0.45695(15)
H24_22 H 0.6344 0.3623 0.4412
C40_22 C 0.60932(15) 0.39519(17) 0.45798(15)
H25_22 H 0.5950 0.3950 0.4429
C41_22 C 0.67967(14) 0.35533(16) 0.47772(14)
C42_22 C 0.69118(15) 0.34457(18) 0.50377(11)
H26_22 H 0.6829 0.3504 0.5220
C43_22 C 0.71480(17) 0.32537(17) 0.50319(11)
H27_22 H 0.7227 0.3180 0.5210
C44_22 C 0.72690(14) 0.31692(16) 0.47657(13)
C45_22 C 0.71538(15) 0.32767(18) 0.45052(11)
H28_22 H 0.7237 0.3219 0.4323
C46_22 C 0.69177(16) 0.34687(17) 0.45109(11)
H29_22 H 0.6839 0.3542 0.4333
C47_22 C 0.7513(2) 0.2944(2) 0.4761(3)
C48_22 C 0.7732(3) 0.2952(2) 0.4974(2)
H30_22 H 0.7735 0.3108 0.5113
O14_17 O 0.94752(18) 0.24126(18) 0.67284(17)
C49_22 C 0.9347(2) 0.2667(3) 0.66925(19)
C50_22 C 0.91491(15) 0.26896(15) 0.64309(13)
C51_22 C 0.91522(17) 0.24693(15) 0.62208(16)
H31_22 H 0.9287 0.2312 0.6237
C52_22 C 0.89580(18) 0.24796(15) 0.59866(15)
H32_22 H 0.8960 0.2329 0.5843
C53_22 C 0.87607(16) 0.27103(16) 0.59625(14)
C54_22 C 0.87577(17) 0.29305(15) 0.61726(16)
H33_22 H 0.8623 0.3088 0.6156
C55_22 C 0.89519(17) 0.29202(15) 0.64068(15)
H34_22 H 0.8950 0.3071 0.6550
C56_22 C 0.85533(16) 0.27228(14) 0.57033(14)
C57_22 C 0.84457(18) 0.24623(11) 0.55882(15)
H35_22 H 0.8504 0.2280 0.5671
C58_22 C 0.82537(17) 0.24681(11) 0.53520(17)
H36_22 H 0.8180 0.2290 0.5273
C59_22 C 0.81692(16) 0.27343(13) 0.52310(14)
C60_22 C 0.82767(18) 0.29948(11) 0.53462(15)
H37_22 H 0.8219 0.3177 0.5263
C61_22 C 0.84687(17) 0.29891(11) 0.55823(16)
H38_22 H 0.8542 0.3167 0.5661
C62_22 C 0.7944(2) 0.2739(3) 0.4987(2)
C63_22 C 0.7952(2) 0.2526(2) 0.4768(3)
H39_22 H 0.8108 0.2387 0.4765
O12_18 O 0.00874(18) 0.07716(17) 0.44752(18)
C36_23 C 0.00307(15) 0.12792(16) 0.41522(17)
H22_23 H 0.0188 0.1263 0.4287
C37_23 C 0.00204(15) 0.15134(15) 0.39580(18)
H23_23 H 0.0171 0.1657 0.3960
C42_23 C 0.00377(11) 0.19118(15) 0.34457(18)
H26_23 H 0.0220 0.1829 0.3504
C43_23 C 0.00319(11) 0.21480(17) 0.32537(17)
H27_23 H 0.0210 0.2227 0.3180
H30_23 H 0.0113 0.2735 0.3108
O14_18 O 0.17284(17) 0.44752(18) 0.24126(18)
C49_23 C 0.16925(19) 0.4347(2) 0.2667(3)
C50_23 C 0.14309(13) 0.41491(15) 0.26896(15)
C51_23 C 0.12208(16) 0.41522(17) 0.24693(15)
H31_23 H 0.1237 0.4287 0.2312
C52_23 C 0.09866(15) 0.39580(18) 0.24796(15)
H32_23 H 0.0843 0.3960 0.2329
C53_23 C 0.09625(14) 0.37607(16) 0.27103(16)
C54_23 C 0.11726(16) 0.37577(17) 0.29305(15)
H33_23 H 0.1156 0.3623 0.3088
C55_23 C 0.14068(15) 0.39519(17) 0.29202(15)
H34_23 H 0.1550 0.3950 0.3071
C56_23 C 0.07033(14) 0.35533(16) 0.27228(14)
C57_23 C 0.05882(15) 0.34457(18) 0.24623(11)
H35_23 H 0.0671 0.3504 0.2280
C58_23 C 0.03520(17) 0.32537(17) 0.24681(11)
H36_23 H 0.0273 0.3180 0.2290
C59_23 C 0.02310(14) 0.31692(16) 0.27343(13)
C60_23 C 0.03462(15) 0.32767(18) 0.29948(11)
H37_23 H 0.0263 0.3219 0.3177
C61_23 C 0.05823(16) 0.34687(17) 0.29891(11)
H38_23 H 0.0661 0.3542 0.3167
C6_23 C 0.8153(2) 0.2667(3) 0.08075(19)
C7_23 C 0.83509(15) 0.26896(15) 0.10691(13)
C8_23 C 0.83478(17) 0.24693(15) 0.12792(16)
H4_23 H 0.8213 0.2312 0.1263
C9_23 C 0.85420(18) 0.24796(15) 0.15134(15)
H5_23 H 0.8540 0.2329 0.1657
C10_23 C 0.87393(16) 0.27103(16) 0.15375(14)
C11_23 C 0.87423(17) 0.29305(15) 0.13274(16)
H6_23 H 0.8877 0.3088 0.1344
C12_23 C 0.85481(17) 0.29202(15) 0.10932(15)
H7_23 H 0.8550 0.3071 0.0950
C13_23 C 0.89467(16) 0.27228(14) 0.17967(14)
C14_23 C 0.90543(18) 0.24623(11) 0.19118(15)
H8_23 H 0.8996 0.2280 0.1829
C15_23 C 0.92463(17) 0.24681(11) 0.21480(17)
H9_23 H 0.9320 0.2290 0.2227
C16_23 C 0.93308(16) 0.27343(13) 0.22690(14)
C17_23 C 0.92233(18) 0.29948(11) 0.21538(15)
H10_23 H 0.9281 0.3177 0.2237
C18_23 C 0.90313(17) 0.29891(11) 0.19177(16)
H11_23 H 0.8958 0.3167 0.1839
C19_23 C 0.9556(2) 0.2739(3) 0.2513(2)
C20_23 C 0.9548(2) 0.2526(2) 0.2732(3)
H12_23 H 0.9392 0.2387 0.2735
C34_23 C 0.9833(3) 0.08075(19) 0.4347(2)
C35_23 C 0.98104(15) 0.10691(13) 0.41491(15)
C38_23 C 0.97897(16) 0.15375(14) 0.37607(16)
C39_23 C 0.95695(15) 0.13274(16) 0.37577(17)
H24_23 H 0.9412 0.1344 0.3623
C40_23 C 0.95798(15) 0.10932(15) 0.39519(17)
H25_23 H 0.9429 0.0950 0.3950
C41_23 C 0.97772(14) 0.17967(14) 0.35533(16)
C44_23 C 0.97657(13) 0.22690(14) 0.31692(16)
C45_23 C 0.95052(11) 0.21538(15) 0.32767(18)
H28_23 H 0.9323 0.2237 0.3219
C46_23 C 0.95109(11) 0.19177(16) 0.34687(17)
H29_23 H 0.9333 0.1839 0.3542
C47_23 C 0.9761(3) 0.2513(2) 0.2944(2)
C48_23 C 0.9974(2) 0.2732(3) 0.2952(2)
C62_23 C 0.9987(2) 0.2944(2) 0.2739(3)
C63_23 C 0.9768(3) 0.2952(2) 0.2526(2)
H39_23 H 0.9765 0.3108 0.2387
O3_22 O 0.0093(2) 0.52991(18) 0.0829(2)
O4_14 O 0.04733(13) 0.49823(14) 0.08055(14)
C1_22 C 0.0345(2) 0.51966(19) 0.09084(19)
C2_22 C 0.0469(2) 0.5350(2) 0.1158(2)
C3_22 C 0.0371(2) 0.5600(2) 0.1284(2)
H3_22 H 0.0205 0.5705 0.1217
C4_22 C 0.0543(2) 0.5688(2) 0.1524(2)
C5_22 C 0.0778(2) 0.5503(2) 0.1578(2)
S1_22 S 0.07891(5) 0.52180(5) 0.13226(5)
O8_22 O 0.1671(2) 0.5093(2) 0.22009(18)
O9_13 O 0.16945(14) 0.54733(13) 0.25177(14)
C24_22 C 0.15916(19) 0.5345(2) 0.23034(19)
C25_22 C 0.1342(2) 0.5469(2) 0.2150(2)
C26_22 C 0.1216(2) 0.5371(2) 0.1900(2)
H20_22 H 0.1283 0.5205 0.1795
C27_22 C 0.0976(2) 0.5543(2) 0.1812(2)
C28_22 C 0.0922(2) 0.5778(2) 0.1997(2)
S2_22 S 0.11774(5) 0.57891(5) 0.22820(5)
O10_22 O 0.02991(18) 0.6671(2) 0.2407(2)
C29_22 C 0.01966(19) 0.65916(19) 0.2155(2)
C30_22 C 0.0350(2) 0.6342(2) 0.2031(2)
C31_22 C 0.0600(2) 0.6216(2) 0.2129(2)
H21_22 H 0.0705 0.6283 0.2295
C32_22 C 0.0688(2) 0.5976(2) 0.1957(2)
C33_22 C 0.0503(2) 0.5922(2) 0.1722(2)
S3_22 S 0.02180(5) 0.61774(5) 0.17109(5)
H40_22 H 0.1866 0.4963 0.2696
O17_22 O 0.1550(4) 0.4617(4) 0.1885(4)
C64_22 C 0.1389(5) 0.4507(4) 0.1699(5)
H41_22 H 0.1441 0.4579 0.1511
N2_22 N 0.1167(4) 0.4321(3) 0.1673(3)
C65_22 C 0.0870(4) 0.4421(7) 0.1642(8)
H42_22 H 0.0858 0.4561 0.1479
H43_22 H 0.0742 0.4253 0.1600
H44_22 H 0.0807 0.4516 0.1823
C66_22 C 0.1182(6) 0.4005(4) 0.1667(7)
H45_22 H 0.1288 0.3935 0.1841
H46_22 H 0.0984 0.3924 0.1667
H47_22 H 0.1286 0.3941 0.1490
O19_22 O 0.0615(4) 0.6550(4) 0.2883(4)
C67_22 C 0.0801(5) 0.6389(5) 0.2993(4)
H49_22 H 0.0989 0.6441 0.2921
N3_22 N 0.0827(3) 0.6167(4) 0.3179(3)
C68_22 C 0.0858(8) 0.5870(4) 0.3079(7)
H50_22 H 0.1021 0.5858 0.2939
H51_22 H 0.0900 0.5742 0.3247
H52_22 H 0.0677 0.5807 0.2984
C69_22 C 0.0833(7) 0.6182(6) 0.3495(4)
H53_22 H 0.0659 0.6288 0.3565
H54_22 H 0.0833 0.5984 0.3576
H55_22 H 0.1010 0.6286 0.3559
O20_11 O 0.22574(17) 0.52426(17) 0.22574(17)
O28_13 O 0.08055(14) 0.70267(13) 0.25177(14)
O30_14 O 0.20267(13) 0.49823(14) 0.16945(14)
O32_12 O 0.00874(18) 0.67284(17) 0.30248(18)
H2_22 H 0.9963 0.4804 0.0634
O7_22 O 0.9617(4) 0.5615(4) 0.0950(4)
C21_22 C 0.9507(4) 0.5801(5) 0.1111(5)
H13_22 H 0.9579 0.5989 0.1059
N1_22 N 0.9321(3) 0.5827(3) 0.1333(4)
C22_22 C 0.9421(7) 0.5858(8) 0.1630(4)
H14_22 H 0.9561 0.6021 0.1642
H15_22 H 0.9253 0.5900 0.1758
H16_22 H 0.9516 0.5677 0.1693
C23_22 C 0.9005(4) 0.5833(7) 0.1318(6)
H17_22 H 0.8935 0.5659 0.1212
H18_22 H 0.8924 0.5833 0.1516
H19_22 H 0.8941 0.6010 0.1214
H48_22 H 0.9804 0.6866 0.2537
H2_23 H 0.7696 0.6866 0.4963
O3_23 O 0.72009(18) 0.6671(2) 0.5093(2)
C1_23 C 0.73034(19) 0.65916(19) 0.5345(2)
C2_23 C 0.7150(2) 0.6342(2) 0.5469(2)
C3_23 C 0.6900(2) 0.6216(2) 0.5371(2)
H3_23 H 0.6795 0.6283 0.5205
C4_23 C 0.6812(2) 0.5976(2) 0.5543(2)
C5_23 C 0.6997(2) 0.5922(2) 0.5778(2)
S1_23 S 0.72820(5) 0.61774(5) 0.57891(5)
O7_23 O 0.6885(4) 0.6550(4) 0.4617(4)
C21_23 C 0.6699(5) 0.6389(5) 0.4507(4)
H13_23 H 0.6511 0.6441 0.4579
N1_23 N 0.6673(3) 0.6167(4) 0.4321(3)
C22_23 C 0.6642(8) 0.5870(4) 0.4421(7)
H14_23 H 0.6479 0.5858 0.4561
H15_23 H 0.6600 0.5742 0.4253
H16_23 H 0.6823 0.5807 0.4516
C23_23 C 0.6667(7) 0.6182(6) 0.4005(4)
H17_23 H 0.6841 0.6288 0.3935
H18_23 H 0.6667 0.5984 0.3924
H19_23 H 0.6490 0.6286 0.3941
O8_23 O 0.7407(2) 0.52991(18) 0.6671(2)
O9_14 O 0.70267(13) 0.49823(14) 0.66945(14)
C24_23 C 0.7155(2) 0.51966(19) 0.65916(19)
C25_23 C 0.7031(2) 0.5350(2) 0.6342(2)
C26_23 C 0.7129(2) 0.5600(2) 0.6216(2)
H20_23 H 0.7295 0.5705 0.6283
C27_23 C 0.6957(2) 0.5688(2) 0.5976(2)
C28_23 C 0.6722(2) 0.5503(2) 0.5922(2)
S2_23 S 0.67109(5) 0.52180(5) 0.61774(5)
O10_23 O 0.5829(2) 0.5093(2) 0.52991(18)
O11_14 O 0.58055(14) 0.54733(13) 0.49823(14)
C29_23 C 0.59084(19) 0.5345(2) 0.51966(19)
C30_23 C 0.6158(2) 0.5469(2) 0.5350(2)
C31_23 C 0.6284(2) 0.5371(2) 0.5600(2)
H21_23 H 0.6217 0.5205 0.5705
C32_23 C 0.6524(2) 0.5543(2) 0.5688(2)
C33_23 C 0.6578(2) 0.5778(2) 0.5503(2)
S3_23 S 0.63226(5) 0.57891(5) 0.52180(5)
H40_23 H 0.7537 0.4804 0.6866
O17_23 O 0.7883(4) 0.5615(4) 0.6550(4)
C64_23 C 0.7993(4) 0.5801(5) 0.6389(5)
H41_23 H 0.7921 0.5989 0.6441
N2_23 N 0.8179(3) 0.5827(3) 0.6167(4)
C65_23 C 0.8079(7) 0.5858(8) 0.5870(4)
H42_23 H 0.7939 0.6021 0.5858
H43_23 H 0.8247 0.5900 0.5742
H44_23 H 0.7984 0.5677 0.5807
C66_23 C 0.8495(4) 0.5833(7) 0.6182(6)
H45_23 H 0.8565 0.5659 0.6288
H46_23 H 0.8576 0.5833 0.5984
H47_23 H 0.8559 0.6010 0.6286
H48_23 H 0.5634 0.4963 0.4804
O19_23 O 0.5950(4) 0.4617(4) 0.5615(4)
C67_23 C 0.6111(5) 0.4507(4) 0.5801(5)
H49_23 H 0.6059 0.4579 0.5989
N3_23 N 0.6333(4) 0.4321(3) 0.5827(3)
C68_23 C 0.6630(4) 0.4421(7) 0.5858(8)
H50_23 H 0.6642 0.4561 0.6021
H51_23 H 0.6758 0.4253 0.5900
H52_23 H 0.6693 0.4516 0.5677
C69_23 C 0.6318(6) 0.4005(4) 0.5833(7)
H53_23 H 0.6212 0.3935 0.5659
H54_23 H 0.6516 0.3924 0.5833
H55_23 H 0.6214 0.3941 0.6010
O21_10 O 0.52426(17) 0.52426(17) 0.52426(17)
O28_14 O 0.54733(13) 0.49823(14) 0.58055(14)
O29_14 O 0.66945(14) 0.70267(13) 0.49823(14)
O31_17 O 0.80248(18) 0.50874(18) 0.67284(17)
O3_24 O 0.0093(2) 0.22009(18) 0.6671(2)
O4_15 O 0.04733(13) 0.25177(14) 0.66945(14)
C1_24 C 0.0345(2) 0.23034(19) 0.65916(19)
C2_24 C 0.0469(2) 0.2150(2) 0.6342(2)
C3_24 C 0.0371(2) 0.1900(2) 0.6216(2)
H3_24 H 0.0205 0.1795 0.6283
C4_24 C 0.0543(2) 0.1812(2) 0.5976(2)
C5_24 C 0.0778(2) 0.1997(2) 0.5922(2)
S1_24 S 0.07891(5) 0.22820(5) 0.61774(5)
O8_24 O 0.1671(2) 0.2407(2) 0.52991(18)
O9_15 O 0.16945(14) 0.20267(13) 0.49823(14)
C24_24 C 0.15916(19) 0.2155(2) 0.51966(19)
C25_24 C 0.1342(2) 0.2031(2) 0.5350(2)
C26_24 C 0.1216(2) 0.2129(2) 0.5600(2)
H20_24 H 0.1283 0.2295 0.5705
C27_24 C 0.0976(2) 0.1957(2) 0.5688(2)
C28_24 C 0.0922(2) 0.1722(2) 0.5503(2)
S2_24 S 0.11774(5) 0.17109(5) 0.52180(5)
O10_24 O 0.02991(18) 0.0829(2) 0.5093(2)
C29_24 C 0.01966(19) 0.09084(19) 0.5345(2)
C30_24 C 0.0350(2) 0.1158(2) 0.5469(2)
C31_24 C 0.0600(2) 0.1284(2) 0.5371(2)
H21_24 H 0.0705 0.1217 0.5205
C32_24 C 0.0688(2) 0.1524(2) 0.5543(2)
C33_24 C 0.0503(2) 0.1578(2) 0.5778(2)
S3_24 S 0.02180(5) 0.13226(5) 0.57891(5)
H40_24 H 0.1866 0.2537 0.4804
O17_24 O 0.1550(4) 0.2883(4) 0.5615(4)
C64_24 C 0.1389(5) 0.2993(4) 0.5801(5)
H41_24 H 0.1441 0.2921 0.5989
N2_24 N 0.1167(4) 0.3179(3) 0.5827(3)
C65_24 C 0.0870(4) 0.3079(7) 0.5858(8)
H42_24 H 0.0858 0.2939 0.6021
H43_24 H 0.0742 0.3247 0.5900
H44_24 H 0.0807 0.2984 0.5677
C66_24 C 0.1182(6) 0.3495(4) 0.5833(7)
H45_24 H 0.1288 0.3565 0.5659
H46_24 H 0.0984 0.3576 0.5833
H47_24 H 0.1286 0.3559 0.6010
O19_24 O 0.0615(4) 0.0950(4) 0.4617(4)
C67_24 C 0.0801(5) 0.1111(5) 0.4507(4)
H49_24 H 0.0989 0.1059 0.4579
N3_24 N 0.0827(3) 0.1333(4) 0.4321(3)
C68_24 C 0.0858(8) 0.1630(4) 0.4421(7)
H50_24 H 0.1021 0.1642 0.4561
H51_24 H 0.0900 0.1758 0.4253
H52_24 H 0.0677 0.1693 0.4516
C69_24 C 0.0833(7) 0.1318(6) 0.4005(4)
H53_24 H 0.0659 0.1212 0.3935
H54_24 H 0.0833 0.1516 0.3924
H55_24 H 0.1010 0.1214 0.3941
O20_12 O 0.22574(17) 0.22574(17) 0.52426(17)
O28_15 O 0.08055(14) 0.04733(13) 0.49823(14)
O30_15 O 0.20267(13) 0.25177(14) 0.58055(14)
O31_18 O 0.17284(17) 0.30248(18) 0.50874(18)
H2_24 H 0.9963 0.2696 0.6866
O7_24 O 0.9617(4) 0.1885(4) 0.6550(4)
C21_24 C 0.9507(4) 0.1699(5) 0.6389(5)
H13_24 H 0.9579 0.1511 0.6441
N1_24 N 0.9321(3) 0.1673(3) 0.6167(4)
C22_24 C 0.9421(7) 0.1642(8) 0.5870(4)
H14_24 H 0.9561 0.1479 0.5858
H15_24 H 0.9253 0.1600 0.5742
H16_24 H 0.9516 0.1823 0.5807
C23_24 C 0.9005(4) 0.1667(7) 0.6182(6)
H17_24 H 0.8935 0.1841 0.6288
H18_24 H 0.8924 0.1667 0.5984
H19_24 H 0.8941 0.1490 0.6286
H48_24 H 0.9804 0.0634 0.4963
C8_24 C 0.00307(15) 0.62208(16) 0.33478(17)
H4_24 H 0.0188 0.6237 0.3213
C9_24 C 0.00204(15) 0.59866(15) 0.35420(18)
H5_24 H 0.0171 0.5843 0.3540
C14_24 C 0.00377(11) 0.55882(15) 0.40543(18)
H8_24 H 0.0220 0.5671 0.3996
C15_24 C 0.00319(11) 0.53520(17) 0.42463(17)
H9_24 H 0.0210 0.5273 0.4320
H12_24 H 0.0113 0.4765 0.4392
C34_24 C 0.16925(19) 0.3153(2) 0.4833(3)
C35_24 C 0.14309(13) 0.33509(15) 0.48104(15)
C36_24 C 0.12208(16) 0.33478(17) 0.50307(15)
H22_24 H 0.1237 0.3213 0.5188
C37_24 C 0.09866(15) 0.35420(18) 0.50204(15)
H23_24 H 0.0843 0.3540 0.5171
C38_24 C 0.09625(14) 0.37393(16) 0.47897(16)
C39_24 C 0.11726(16) 0.37423(17) 0.45695(15)
H24_24 H 0.1156 0.3877 0.4412
C40_24 C 0.14068(15) 0.35481(17) 0.45798(15)
H25_24 H 0.1550 0.3550 0.4429
C41_24 C 0.07033(14) 0.39467(16) 0.47772(14)
C42_24 C 0.05882(15) 0.40543(18) 0.50377(11)
H26_24 H 0.0671 0.3996 0.5220
C43_24 C 0.03520(17) 0.42463(17) 0.50319(11)
H27_24 H 0.0273 0.4320 0.5210
C44_24 C 0.02310(14) 0.43308(16) 0.47657(13)
C45_24 C 0.03462(15) 0.42233(18) 0.45052(11)
H28_24 H 0.0263 0.4281 0.4323
C46_24 C 0.05823(16) 0.40313(17) 0.45109(11)
H29_24 H 0.0661 0.3958 0.4333
C6_24 C 0.9833(3) 0.66925(19) 0.3153(2)
C7_24 C 0.98104(15) 0.64309(13) 0.33509(15)
C10_24 C 0.97897(16) 0.59625(14) 0.37393(16)
C11_24 C 0.95695(15) 0.61726(16) 0.37423(17)
H6_24 H 0.9412 0.6156 0.3877
C12_24 C 0.95798(15) 0.64068(15) 0.35481(17)
H7_24 H 0.9429 0.6550 0.3550
C13_24 C 0.97772(14) 0.57033(14) 0.39467(16)
C16_24 C 0.97657(13) 0.52310(14) 0.43308(16)
C17_24 C 0.95052(11) 0.53462(15) 0.42233(18)
H10_24 H 0.9323 0.5263 0.4281
C18_24 C 0.95109(11) 0.55823(16) 0.40313(17)
H11_24 H 0.9333 0.5661 0.3958
C19_24 C 0.9761(3) 0.4987(2) 0.4556(2)
C20_24 C 0.9974(2) 0.4768(3) 0.4548(2)
C47_24 C 0.9987(2) 0.4556(2) 0.4761(3)
C48_24 C 0.9768(3) 0.4548(2) 0.4974(2)
H30_24 H 0.9765 0.4392 0.5113
C49_24 C 0.8153(2) 0.4833(3) 0.66925(19)
C50_24 C 0.83509(15) 0.48104(15) 0.64309(13)
C51_24 C 0.83478(17) 0.50307(15) 0.62208(16)
H31_24 H 0.8213 0.5188 0.6237
C52_24 C 0.85420(18) 0.50204(15) 0.59866(15)
H32_24 H 0.8540 0.5171 0.5843
C53_24 C 0.87393(16) 0.47897(16) 0.59625(14)
C54_24 C 0.87423(17) 0.45695(15) 0.61726(16)
H33_24 H 0.8877 0.4412 0.6156
C55_24 C 0.85481(17) 0.45798(15) 0.64068(15)
H34_24 H 0.8550 0.4429 0.6550
C56_24 C 0.89467(16) 0.47772(14) 0.57033(14)
C57_24 C 0.90543(18) 0.50377(11) 0.55882(15)
H35_24 H 0.8996 0.5220 0.5671
C58_24 C 0.92463(17) 0.50319(11) 0.53520(17)
H36_24 H 0.9320 0.5210 0.5273
C59_24 C 0.93308(16) 0.47657(13) 0.52310(14)
C60_24 C 0.92233(18) 0.45052(11) 0.53462(15)
H37_24 H 0.9281 0.4323 0.5263
C61_24 C 0.90313(17) 0.45109(11) 0.55823(16)
H38_24 H 0.8958 0.4333 0.5661
C62_24 C 0.9556(2) 0.4761(3) 0.4987(2)
C63_24 C 0.9548(2) 0.4974(2) 0.4768(3)
H39_24 H 0.9392 0.5113 0.4765
H1_30 H 0.2147 0.5353 0.2147
H1_31 H 0.5353 0.5353 0.5353
H1_32 H 0.2147 0.2147 0.5353
O12_19 O 0.44752(18) 0.00874(18) 0.07716(17)
C36_25 C 0.41522(17) 0.00307(15) 0.12792(16)
H22_25 H 0.4287 0.0188 0.1263
C37_25 C 0.39580(18) 0.00204(15) 0.15134(15)
H23_25 H 0.3960 0.0171 0.1657
C42_25 C 0.34457(18) 0.00377(11) 0.19118(15)
H26_25 H 0.3504 0.0220 0.1829
C43_25 C 0.32537(17) 0.00319(11) 0.21480(17)
H27_25 H 0.3180 0.0210 0.2227
H30_25 H 0.3108 0.0113 0.2735
O14_19 O 0.24126(18) 0.17284(17) 0.44752(18)
C49_25 C 0.2667(3) 0.16925(19) 0.4347(2)
C50_25 C 0.26896(15) 0.14309(13) 0.41491(15)
C51_25 C 0.24693(15) 0.12208(16) 0.41522(17)
H31_25 H 0.2312 0.1237 0.4287
C52_25 C 0.24796(15) 0.09866(15) 0.39580(18)
H32_25 H 0.2329 0.0843 0.3960
C53_25 C 0.27103(16) 0.09625(14) 0.37607(16)
C54_25 C 0.29305(15) 0.11726(16) 0.37577(17)
H33_25 H 0.3088 0.1156 0.3623
C55_25 C 0.29202(15) 0.14068(15) 0.39519(17)
H34_25 H 0.3071 0.1550 0.3950
C56_25 C 0.27228(14) 0.07033(14) 0.35533(16)
C57_25 C 0.24623(11) 0.05882(15) 0.34457(18)
H35_25 H 0.2280 0.0671 0.3504
C58_25 C 0.24681(11) 0.03520(17) 0.32537(17)
H36_25 H 0.2290 0.0273 0.3180
C59_25 C 0.27343(13) 0.02310(14) 0.31692(16)
C60_25 C 0.29948(11) 0.03462(15) 0.32767(18)
H37_25 H 0.3177 0.0263 0.3219
C61_25 C 0.29891(11) 0.05823(16) 0.34687(17)
H38_25 H 0.3167 0.0661 0.3542
H2_25 H 0.0634 0.7537 0.2696
O3_25 O 0.0829(2) 0.7407(2) 0.22009(18)
C1_25 C 0.09084(19) 0.7155(2) 0.23034(19)
C2_25 C 0.1158(2) 0.7031(2) 0.2150(2)
C3_25 C 0.1284(2) 0.7129(2) 0.1900(2)
H3_25 H 0.1217 0.7295 0.1795
C4_25 C 0.1524(2) 0.6957(2) 0.1812(2)
C5_25 C 0.1578(2) 0.6722(2) 0.1997(2)
S1_25 S 0.13226(5) 0.67109(5) 0.22820(5)
O5_7 O 0.07716(17) 0.80248(18) 0.24126(18)
C6_25 C 0.08075(19) 0.8153(2) 0.2667(3)
C7_25 C 0.10691(13) 0.83509(15) 0.26896(15)
C8_25 C 0.12792(16) 0.83478(17) 0.24693(15)
H4_25 H 0.1263 0.8213 0.2312
C9_25 C 0.15134(15) 0.85420(18) 0.24796(15)
H5_25 H 0.1657 0.8540 0.2329
C10_25 C 0.15375(14) 0.87393(16) 0.27103(16)
C11_25 C 0.13274(16) 0.87423(17) 0.29305(15)
H6_25 H 0.1344 0.8877 0.3088
C12_25 C 0.10932(15) 0.85481(17) 0.29202(15)
H7_25 H 0.0950 0.8550 0.3071
C13_25 C 0.17967(14) 0.89467(16) 0.27228(14)
C14_25 C 0.19118(15) 0.90543(18) 0.24623(11)
H8_25 H 0.1829 0.8996 0.2280
C15_25 C 0.21480(17) 0.92463(17) 0.24681(11)
H9_25 H 0.2227 0.9320 0.2290
C16_25 C 0.22690(14) 0.93308(16) 0.27343(13)
C17_25 C 0.21538(15) 0.92233(18) 0.29948(11)
H10_25 H 0.2237 0.9281 0.3177
C18_25 C 0.19177(16) 0.90313(17) 0.29891(11)
H11_25 H 0.1839 0.8958 0.3167
C19_25 C 0.2513(2) 0.9556(2) 0.2739(3)
C20_25 C 0.2732(3) 0.9548(2) 0.2526(2)
H12_25 H 0.2735 0.9392 0.2387
O7_25 O 0.0950(4) 0.7883(4) 0.1885(4)
C21_25 C 0.1111(5) 0.7993(4) 0.1699(5)
H13_25 H 0.1059 0.7921 0.1511
N1_25 N 0.1333(4) 0.8179(3) 0.1673(3)
C22_25 C 0.1630(4) 0.8079(7) 0.1642(8)
H14_25 H 0.1642 0.7939 0.1479
H15_25 H 0.1758 0.8247 0.1600
H16_25 H 0.1693 0.7984 0.1823
C23_25 C 0.1318(6) 0.8495(4) 0.1667(7)
H17_25 H 0.1212 0.8565 0.1841
H18_25 H 0.1516 0.8576 0.1667
H19_25 H 0.1214 0.8559 0.1490
O8_25 O 0.22009(18) 0.5829(2) 0.2407(2)
O9_16 O 0.25177(14) 0.58055(14) 0.20267(13)
C24_25 C 0.23034(19) 0.59084(19) 0.2155(2)
C25_25 C 0.2150(2) 0.6158(2) 0.2031(2)
C26_25 C 0.1900(2) 0.6284(2) 0.2129(2)
H20_25 H 0.1795 0.6217 0.2295
C27_25 C 0.1812(2) 0.6524(2) 0.1957(2)
C28_25 C 0.1997(2) 0.6578(2) 0.1722(2)
S2_25 S 0.22820(5) 0.63226(5) 0.17109(5)
O10_25 O 0.2407(2) 0.72009(18) 0.0829(2)
C29_25 C 0.2155(2) 0.73034(19) 0.09084(19)
C30_25 C 0.2031(2) 0.7150(2) 0.1158(2)
C31_25 C 0.2129(2) 0.6900(2) 0.1284(2)
H21_25 H 0.2295 0.6795 0.1217
C32_25 C 0.1957(2) 0.6812(2) 0.1524(2)
C33_25 C 0.1722(2) 0.6997(2) 0.1578(2)
S3_25 S 0.17109(5) 0.72820(5) 0.13226(5)
C34_25 C 0.4347(2) 0.9833(3) 0.08075(19)
C35_25 C 0.41491(15) 0.98104(15) 0.10691(13)
C38_25 C 0.37607(16) 0.97897(16) 0.15375(14)
C39_25 C 0.37577(17) 0.95695(15) 0.13274(16)
H24_25 H 0.3623 0.9412 0.1344
C40_25 C 0.39519(17) 0.95798(15) 0.10932(15)
H25_25 H 0.3950 0.9429 0.0950
C41_25 C 0.35533(16) 0.97772(14) 0.17967(14)
C44_25 C 0.31692(16) 0.97657(13) 0.22690(14)
C45_25 C 0.32767(18) 0.95052(11) 0.21538(15)
H28_25 H 0.3219 0.9323 0.2237
C46_25 C 0.34687(17) 0.95109(11) 0.19177(16)
H29_25 H 0.3542 0.9333 0.1839
C47_25 C 0.2944(2) 0.9761(3) 0.2513(2)
C48_25 C 0.2952(2) 0.9974(2) 0.2732(3)
C62_25 C 0.2739(3) 0.9987(2) 0.2944(2)
C63_25 C 0.2526(2) 0.9768(3) 0.2952(2)
H39_25 H 0.2387 0.9765 0.3108
H40_25 H 0.2696 0.5634 0.2537
O17_25 O 0.1885(4) 0.5950(4) 0.2883(4)
C64_25 C 0.1699(5) 0.6111(5) 0.2993(4)
H41_25 H 0.1511 0.6059 0.2921
N2_25 N 0.1673(3) 0.6333(4) 0.3179(3)
C65_25 C 0.1642(8) 0.6630(4) 0.3079(7)
H42_25 H 0.1479 0.6642 0.2939
H43_25 H 0.1600 0.6758 0.3247
H44_25 H 0.1823 0.6693 0.2984
C66_25 C 0.1667(7) 0.6318(6) 0.3495(4)
H45_25 H 0.1841 0.6212 0.3565
H46_25 H 0.1667 0.6516 0.3576
H47_25 H 0.1490 0.6214 0.3559
H48_25 H 0.2537 0.7696 0.0634
O19_25 O 0.2883(4) 0.6885(4) 0.0950(4)
C67_25 C 0.2993(4) 0.6699(5) 0.1111(5)
H49_25 H 0.2921 0.6511 0.1059
N3_25 N 0.3179(3) 0.6673(3) 0.1333(4)
C68_25 C 0.3079(7) 0.6642(8) 0.1630(4)
H50_25 H 0.2939 0.6479 0.1642
H51_25 H 0.3247 0.6600 0.1758
H52_25 H 0.2984 0.6823 0.1693
C69_25 C 0.3495(4) 0.6667(7) 0.1318(6)
H53_25 H 0.3565 0.6841 0.1212
H54_25 H 0.3576 0.6667 0.1516
H55_25 H 0.3559 0.6490 0.1214
O28_16 O 0.25177(14) 0.66945(14) 0.04733(13)
O31_19 O 0.24126(18) 0.57716(17) 0.30248(18)
O32_13 O 0.30248(18) 0.74126(18) 0.07716(17)
C6_26 C 0.2667(3) 0.58075(19) 0.3153(2)
C7_26 C 0.26896(15) 0.60691(13) 0.33509(15)
C8_26 C 0.24693(15) 0.62792(16) 0.33478(17)
H4_26 H 0.2312 0.6263 0.3213
C9_26 C 0.24796(15) 0.65134(15) 0.35420(18)
H5_26 H 0.2329 0.6657 0.3540
C10_26 C 0.27103(16) 0.65375(14) 0.37393(16)
C11_26 C 0.29305(15) 0.63274(16) 0.37423(17)
H6_26 H 0.3088 0.6344 0.3877
C12_26 C 0.29202(15) 0.60932(15) 0.35481(17)
H7_26 H 0.3071 0.5950 0.3550
C13_26 C 0.27228(14) 0.67967(14) 0.39467(16)
C14_26 C 0.24623(11) 0.69118(15) 0.40543(18)
H8_26 H 0.2280 0.6829 0.3996
C15_26 C 0.24681(11) 0.71480(17) 0.42463(17)
H9_26 H 0.2290 0.7227 0.4320
C16_26 C 0.27343(13) 0.72690(14) 0.43308(16)
C17_26 C 0.29948(11) 0.71538(15) 0.42233(18)
H10_26 H 0.3177 0.7237 0.4281
C18_26 C 0.29891(11) 0.69177(16) 0.40313(17)
H11_26 H 0.3167 0.6839 0.3958
C19_26 C 0.2739(3) 0.7513(2) 0.4556(2)
C20_26 C 0.2526(2) 0.7732(3) 0.4548(2)
H12_26 H 0.2387 0.7735 0.4392
O12_20 O 0.07716(17) 0.94752(18) 0.50874(18)
C34_26 C 0.08075(19) 0.9347(2) 0.4833(3)
C35_26 C 0.10691(13) 0.91491(15) 0.48104(15)
C36_26 C 0.12792(16) 0.91522(17) 0.50307(15)
H22_26 H 0.1263 0.9287 0.5188
C37_26 C 0.15134(15) 0.89580(18) 0.50204(15)
H23_26 H 0.1657 0.8960 0.5171
C38_26 C 0.15375(14) 0.87607(16) 0.47897(16)
C39_26 C 0.13274(16) 0.87577(17) 0.45695(15)
H24_26 H 0.1344 0.8623 0.4412
C40_26 C 0.10932(15) 0.89519(17) 0.45798(15)
H25_26 H 0.0950 0.8950 0.4429
C41_26 C 0.17967(14) 0.85533(16) 0.47772(14)
C42_26 C 0.19118(15) 0.84457(18) 0.50377(11)
H26_26 H 0.1829 0.8504 0.5220
C43_26 C 0.21480(17) 0.82537(17) 0.50319(11)
H27_26 H 0.2227 0.8180 0.5210
C44_26 C 0.22690(14) 0.81692(16) 0.47657(13)
C45_26 C 0.21538(15) 0.82767(18) 0.45052(11)
H28_26 H 0.2237 0.8219 0.4323
C46_26 C 0.19177(16) 0.84687(17) 0.45109(11)
H29_26 H 0.1839 0.8542 0.4333
C47_26 C 0.2513(2) 0.7944(2) 0.4761(3)
C48_26 C 0.2732(3) 0.7952(2) 0.4974(2)
H30_26 H 0.2735 0.8108 0.5113
O14_20 O 0.44752(18) 0.74126(18) 0.67284(17)
C49_26 C 0.4347(2) 0.7667(3) 0.66925(19)
C50_26 C 0.41491(15) 0.76896(15) 0.64309(13)
C51_26 C 0.41522(17) 0.74693(15) 0.62208(16)
H31_26 H 0.4287 0.7312 0.6237
C52_26 C 0.39580(18) 0.74796(15) 0.59866(15)
H32_26 H 0.3960 0.7329 0.5843
C53_26 C 0.37607(16) 0.77103(16) 0.59625(14)
C54_26 C 0.37577(17) 0.79305(15) 0.61726(16)
H33_26 H 0.3623 0.8088 0.6156
C55_26 C 0.39519(17) 0.79202(15) 0.64068(15)
H34_26 H 0.3950 0.8071 0.6550
C56_26 C 0.35533(16) 0.77228(14) 0.57033(14)
C57_26 C 0.34457(18) 0.74623(11) 0.55882(15)
H35_26 H 0.3504 0.7280 0.5671
C58_26 C 0.32537(17) 0.74681(11) 0.53520(17)
H36_26 H 0.3180 0.7290 0.5273
C59_26 C 0.31692(16) 0.77343(13) 0.52310(14)
C60_26 C 0.32767(18) 0.79948(11) 0.53462(15)
H37_26 H 0.3219 0.8177 0.5263
C61_26 C 0.34687(17) 0.79891(11) 0.55823(16)
H38_26 H 0.3542 0.8167 0.5661
C62_26 C 0.2944(2) 0.7739(3) 0.4987(2)
C63_26 C 0.2952(2) 0.7526(2) 0.4768(3)
H39_26 H 0.3108 0.7387 0.4765
C6_27 C 0.3153(2) 0.7667(3) 0.08075(19)
C7_27 C 0.33509(15) 0.76896(15) 0.10691(13)
C8_27 C 0.33478(17) 0.74693(15) 0.12792(16)
H4_27 H 0.3213 0.7312 0.1263
C9_27 C 0.35420(18) 0.74796(15) 0.15134(15)
H5_27 H 0.3540 0.7329 0.1657
C10_27 C 0.37393(16) 0.77103(16) 0.15375(14)
C11_27 C 0.37423(17) 0.79305(15) 0.13274(16)
H6_27 H 0.3877 0.8088 0.1344
C12_27 C 0.35481(17) 0.79202(15) 0.10932(15)
H7_27 H 0.3550 0.8071 0.0950
C13_27 C 0.39467(16) 0.77228(14) 0.17967(14)
C14_27 C 0.40543(18) 0.74623(11) 0.19118(15)
H8_27 H 0.3996 0.7280 0.1829
C15_27 C 0.42463(17) 0.74681(11) 0.21480(17)
H9_27 H 0.4320 0.7290 0.2227
C16_27 C 0.43308(16) 0.77343(13) 0.22690(14)
C17_27 C 0.42233(18) 0.79948(11) 0.21538(15)
H10_27 H 0.4281 0.8177 0.2237
C18_27 C 0.40313(17) 0.79891(11) 0.19177(16)
H11_27 H 0.3958 0.8167 0.1839
C19_27 C 0.4556(2) 0.7739(3) 0.2513(2)
C20_27 C 0.4548(2) 0.7526(2) 0.2732(3)
H12_27 H 0.4392 0.7387 0.2735
O12_21 O 0.50874(18) 0.57716(17) 0.44752(18)
C34_27 C 0.4833(3) 0.58075(19) 0.4347(2)
C35_27 C 0.48104(15) 0.60691(13) 0.41491(15)
C36_27 C 0.50307(15) 0.62792(16) 0.41522(17)
H22_27 H 0.5188 0.6263 0.4287
C37_27 C 0.50204(15) 0.65134(15) 0.39580(18)
H23_27 H 0.5171 0.6657 0.3960
C38_27 C 0.47897(16) 0.65375(14) 0.37607(16)
C39_27 C 0.45695(15) 0.63274(16) 0.37577(17)
H24_27 H 0.4412 0.6344 0.3623
C40_27 C 0.45798(15) 0.60932(15) 0.39519(17)
H25_27 H 0.4429 0.5950 0.3950
C41_27 C 0.47772(14) 0.67967(14) 0.35533(16)
C42_27 C 0.50377(11) 0.69118(15) 0.34457(18)
H26_27 H 0.5220 0.6829 0.3504
C43_27 C 0.50319(11) 0.71480(17) 0.32537(17)
H27_27 H 0.5210 0.7227 0.3180
C44_27 C 0.47657(13) 0.72690(14) 0.31692(16)
C45_27 C 0.45052(11) 0.71538(15) 0.32767(18)
H28_27 H 0.4323 0.7237 0.3219
C46_27 C 0.45109(11) 0.69177(16) 0.34687(17)
H29_27 H 0.4333 0.6839 0.3542
C47_27 C 0.4761(3) 0.7513(2) 0.2944(2)
C48_27 C 0.4974(2) 0.7732(3) 0.2952(2)
H30_27 H 0.5113 0.7735 0.3108
O14_21 O 0.67284(17) 0.94752(18) 0.24126(18)
C49_27 C 0.66925(19) 0.9347(2) 0.2667(3)
C50_27 C 0.64309(13) 0.91491(15) 0.26896(15)
C51_27 C 0.62208(16) 0.91522(17) 0.24693(15)
H31_27 H 0.6237 0.9287 0.2312
C52_27 C 0.59866(15) 0.89580(18) 0.24796(15)
H32_27 H 0.5843 0.8960 0.2329
C53_27 C 0.59625(14) 0.87607(16) 0.27103(16)
C54_27 C 0.61726(16) 0.87577(17) 0.29305(15)
H33_27 H 0.6156 0.8623 0.3088
C55_27 C 0.64068(15) 0.89519(17) 0.29202(15)
H34_27 H 0.6550 0.8950 0.3071
C56_27 C 0.57033(14) 0.85533(16) 0.27228(14)
C57_27 C 0.55882(15) 0.84457(18) 0.24623(11)
H35_27 H 0.5671 0.8504 0.2280
C58_27 C 0.53520(17) 0.82537(17) 0.24681(11)
H36_27 H 0.5273 0.8180 0.2290
C59_27 C 0.52310(14) 0.81692(16) 0.27343(13)
C60_27 C 0.53462(15) 0.82767(18) 0.29948(11)
H37_27 H 0.5263 0.8219 0.3177
C61_27 C 0.55823(16) 0.84687(17) 0.29891(11)
H38_27 H 0.5661 0.8542 0.3167
C62_27 C 0.4987(2) 0.7944(2) 0.2739(3)
C63_27 C 0.4768(3) 0.7952(2) 0.2526(2)
H39_27 H 0.4765 0.8108 0.2387
O3_26 O 0.5093(2) 0.02991(18) 0.0829(2)
C1_26 C 0.5345(2) 0.01966(19) 0.09084(19)
C2_26 C 0.5469(2) 0.0350(2) 0.1158(2)
C3_26 C 0.5371(2) 0.0600(2) 0.1284(2)
H3_26 H 0.5205 0.0705 0.1217
C4_26 C 0.5543(2) 0.0688(2) 0.1524(2)
C5_26 C 0.5778(2) 0.0503(2) 0.1578(2)
S1_26 S 0.57891(5) 0.02180(5) 0.13226(5)
O7_26 O 0.4617(4) 0.0615(4) 0.0950(4)
C21_26 C 0.4507(4) 0.0801(5) 0.1111(5)
H13_26 H 0.4579 0.0989 0.1059
N1_26 N 0.4321(3) 0.0827(3) 0.1333(4)
C22_26 C 0.4421(7) 0.0858(8) 0.1630(4)
H14_26 H 0.4561 0.1021 0.1642
H15_26 H 0.4253 0.0900 0.1758
H16_26 H 0.4516 0.0677 0.1693
C23_26 C 0.4005(4) 0.0833(7) 0.1318(6)
H17_26 H 0.3935 0.0659 0.1212
H18_26 H 0.3924 0.0833 0.1516
H19_26 H 0.3941 0.1010 0.1214
O8_26 O 0.6671(2) 0.0093(2) 0.22009(18)
C24_26 C 0.65916(19) 0.0345(2) 0.23034(19)
C25_26 C 0.6342(2) 0.0469(2) 0.2150(2)
C26_26 C 0.6216(2) 0.0371(2) 0.1900(2)
H20_26 H 0.6283 0.0205 0.1795
C27_26 C 0.5976(2) 0.0543(2) 0.1812(2)
C28_26 C 0.5922(2) 0.0778(2) 0.1997(2)
S2_26 S 0.61774(5) 0.07891(5) 0.22820(5)
O10_26 O 0.52991(18) 0.1671(2) 0.2407(2)
O11_15 O 0.49823(14) 0.16945(14) 0.20267(13)
C29_26 C 0.51966(19) 0.15916(19) 0.2155(2)
C30_26 C 0.5350(2) 0.1342(2) 0.2031(2)
C31_26 C 0.5600(2) 0.1216(2) 0.2129(2)
H21_26 H 0.5705 0.1283 0.2295
C32_26 C 0.5688(2) 0.0976(2) 0.1957(2)
C33_26 C 0.5503(2) 0.0922(2) 0.1722(2)
S3_26 S 0.52180(5) 0.11774(5) 0.17109(5)
H48_26 H 0.4804 0.1866 0.2537
O19_26 O 0.5615(4) 0.1550(4) 0.2883(4)
C67_26 C 0.5801(5) 0.1389(5) 0.2993(4)
H49_26 H 0.5989 0.1441 0.2921
N3_26 N 0.5827(3) 0.1167(4) 0.3179(3)
C68_26 C 0.5858(8) 0.0870(4) 0.3079(7)
H50_26 H 0.6021 0.0858 0.2939
H51_26 H 0.5900 0.0742 0.3247
H52_26 H 0.5677 0.0807 0.2984
C69_26 C 0.5833(7) 0.1182(6) 0.3495(4)
H53_26 H 0.5659 0.1288 0.3565
H54_26 H 0.5833 0.0984 0.3576
H55_26 H 0.6010 0.1286 0.3559
O29_15 O 0.49823(14) 0.08055(14) 0.04733(13)
O32_14 O 0.50874(18) 0.17284(17) 0.30248(18)
H2_26 H 0.4963 0.9804 0.0634
H40_26 H 0.6866 0.9963 0.2696
O17_26 O 0.6550(4) 0.9617(4) 0.1885(4)
C64_26 C 0.6389(5) 0.9507(4) 0.1699(5)
H41_26 H 0.6441 0.9579 0.1511
N2_26 N 0.6167(4) 0.9321(3) 0.1673(3)
C65_26 C 0.5870(4) 0.9421(7) 0.1642(8)
H42_26 H 0.5858 0.9561 0.1479
H43_26 H 0.5742 0.9253 0.1600
H44_26 H 0.5807 0.9516 0.1823
C66_26 C 0.6182(6) 0.9005(4) 0.1667(7)
H45_26 H 0.6288 0.8935 0.1841
H46_26 H 0.5984 0.8924 0.1667
H47_26 H 0.6286 0.8941 0.1490
H2_27 H 0.2696 0.1866 0.4963
O3_27 O 0.22009(18) 0.1671(2) 0.5093(2)
O4_16 O 0.25177(14) 0.16945(14) 0.54733(13)
C1_27 C 0.23034(19) 0.15916(19) 0.5345(2)
C2_27 C 0.2150(2) 0.1342(2) 0.5469(2)
C3_27 C 0.1900(2) 0.1216(2) 0.5371(2)
H3_27 H 0.1795 0.1283 0.5205
C4_27 C 0.1812(2) 0.0976(2) 0.5543(2)
C5_27 C 0.1997(2) 0.0922(2) 0.5778(2)
S1_27 S 0.22820(5) 0.11774(5) 0.57891(5)
O7_27 O 0.1885(4) 0.1550(4) 0.4617(4)
C21_27 C 0.1699(5) 0.1389(5) 0.4507(4)
H13_27 H 0.1511 0.1441 0.4579
N1_27 N 0.1673(3) 0.1167(4) 0.4321(3)
C22_27 C 0.1642(8) 0.0870(4) 0.4421(7)
H14_27 H 0.1479 0.0858 0.4561
H15_27 H 0.1600 0.0742 0.4253
H16_27 H 0.1823 0.0807 0.4516
C23_27 C 0.1667(7) 0.1182(6) 0.4005(4)
H17_27 H 0.1841 0.1288 0.3935
H18_27 H 0.1667 0.0984 0.3924
H19_27 H 0.1490 0.1286 0.3941
O8_27 O 0.2407(2) 0.02991(18) 0.6671(2)
C24_27 C 0.2155(2) 0.01966(19) 0.65916(19)
C25_27 C 0.2031(2) 0.0350(2) 0.6342(2)
C26_27 C 0.2129(2) 0.0600(2) 0.6216(2)
H20_27 H 0.2295 0.0705 0.6283
C27_27 C 0.1957(2) 0.0688(2) 0.5976(2)
C28_27 C 0.1722(2) 0.0503(2) 0.5922(2)
S2_27 S 0.17109(5) 0.02180(5) 0.61774(5)
O10_27 O 0.0829(2) 0.0093(2) 0.52991(18)
C29_27 C 0.09084(19) 0.0345(2) 0.51966(19)
C30_27 C 0.1158(2) 0.0469(2) 0.5350(2)
C31_27 C 0.1284(2) 0.0371(2) 0.5600(2)
H21_27 H 0.1217 0.0205 0.5705
C32_27 C 0.1524(2) 0.0543(2) 0.5688(2)
C33_27 C 0.1578(2) 0.0778(2) 0.5503(2)
S3_27 S 0.13226(5) 0.07891(5) 0.52180(5)
O17_27 O 0.2883(4) 0.0615(4) 0.6550(4)
C64_27 C 0.2993(4) 0.0801(5) 0.6389(5)
H41_27 H 0.2921 0.0989 0.6441
N2_27 N 0.3179(3) 0.0827(3) 0.6167(4)
C65_27 C 0.3079(7) 0.0858(8) 0.5870(4)
H42_27 H 0.2939 0.1021 0.5858
H43_27 H 0.3247 0.0900 0.5742
H44_27 H 0.2984 0.0677 0.5807
C66_27 C 0.3495(4) 0.0833(7) 0.6182(6)
H45_27 H 0.3565 0.0659 0.6288
H46_27 H 0.3576 0.0833 0.5984
H47_27 H 0.3559 0.1010 0.6286
O30_16 O 0.25177(14) 0.08055(14) 0.70267(13)
O31_20 O 0.30248(18) 0.00874(18) 0.67284(17)
H40_27 H 0.2537 0.9804 0.6866
H48_27 H 0.0634 0.9963 0.4804
O19_27 O 0.0950(4) 0.9617(4) 0.5615(4)
C67_27 C 0.1111(5) 0.9507(4) 0.5801(5)
H49_27 H 0.1059 0.9579 0.5989
N3_27 N 0.1333(4) 0.9321(3) 0.5827(3)
C68_27 C 0.1630(4) 0.9421(7) 0.5858(8)
H50_27 H 0.1642 0.9561 0.6021
H51_27 H 0.1758 0.9253 0.5900
H52_27 H 0.1693 0.9516 0.5677
C69_27 C 0.1318(6) 0.9005(4) 0.5833(7)
H53_27 H 0.1212 0.8935 0.5659
H54_27 H 0.1516 0.8924 0.5833
H55_27 H 0.1214 0.8941 0.6010
H2_28 H 0.4963 0.7696 0.6866
O3_28 O 0.5093(2) 0.72009(18) 0.6671(2)
C1_28 C 0.5345(2) 0.73034(19) 0.65916(19)
C2_28 C 0.5469(2) 0.7150(2) 0.6342(2)
C3_28 C 0.5371(2) 0.6900(2) 0.6216(2)
H3_28 H 0.5205 0.6795 0.6283
C4_28 C 0.5543(2) 0.6812(2) 0.5976(2)
C5_28 C 0.5778(2) 0.6997(2) 0.5922(2)
S1_28 S 0.57891(5) 0.72820(5) 0.61774(5)
O7_28 O 0.4617(4) 0.6885(4) 0.6550(4)
C21_28 C 0.4507(4) 0.6699(5) 0.6389(5)
H13_28 H 0.4579 0.6511 0.6441
N1_28 N 0.4321(3) 0.6673(3) 0.6167(4)
C22_28 C 0.4421(7) 0.6642(8) 0.5870(4)
H14_28 H 0.4561 0.6479 0.5858
H15_28 H 0.4253 0.6600 0.5742
H16_28 H 0.4516 0.6823 0.5807
C23_28 C 0.4005(4) 0.6667(7) 0.6182(6)
H17_28 H 0.3935 0.6841 0.6288
H18_28 H 0.3924 0.6667 0.5984
H19_28 H 0.3941 0.6490 0.6286
O8_28 O 0.6671(2) 0.7407(2) 0.52991(18)
C24_28 C 0.65916(19) 0.7155(2) 0.51966(19)
C25_28 C 0.6342(2) 0.7031(2) 0.5350(2)
C26_28 C 0.6216(2) 0.7129(2) 0.5600(2)
H20_28 H 0.6283 0.7295 0.5705
C27_28 C 0.5976(2) 0.6957(2) 0.5688(2)
C28_28 C 0.5922(2) 0.6722(2) 0.5503(2)
S2_28 S 0.61774(5) 0.67109(5) 0.52180(5)
O10_28 O 0.52991(18) 0.5829(2) 0.5093(2)
O11_16 O 0.49823(14) 0.58055(14) 0.54733(13)
C29_28 C 0.51966(19) 0.59084(19) 0.5345(2)
C30_28 C 0.5350(2) 0.6158(2) 0.5469(2)
C31_28 C 0.5600(2) 0.6284(2) 0.5371(2)
H21_28 H 0.5705 0.6217 0.5205
C32_28 C 0.5688(2) 0.6524(2) 0.5543(2)
C33_28 C 0.5503(2) 0.6578(2) 0.5778(2)
S3_28 S 0.52180(5) 0.63226(5) 0.57891(5)
H40_28 H 0.6866 0.7537 0.4804
O17_28 O 0.6550(4) 0.7883(4) 0.5615(4)
C64_28 C 0.6389(5) 0.7993(4) 0.5801(5)
H41_28 H 0.6441 0.7921 0.5989
N2_28 N 0.6167(4) 0.8179(3) 0.5827(3)
C65_28 C 0.5870(4) 0.8079(7) 0.5858(8)
H42_28 H 0.5858 0.7939 0.6021
H43_28 H 0.5742 0.8247 0.5900
H44_28 H 0.5807 0.7984 0.5677
C66_28 C 0.6182(6) 0.8495(4) 0.5833(7)
H45_28 H 0.6288 0.8565 0.5659
H46_28 H 0.5984 0.8576 0.5833
H47_28 H 0.6286 0.8559 0.6010
H48_28 H 0.4804 0.5634 0.4963
O19_28 O 0.5615(4) 0.5950(4) 0.4617(4)
C67_28 C 0.5801(5) 0.6111(5) 0.4507(4)
H49_28 H 0.5989 0.6059 0.4579
N3_28 N 0.5827(3) 0.6333(4) 0.4321(3)
C68_28 C 0.5858(8) 0.6630(4) 0.4421(7)
H50_28 H 0.6021 0.6642 0.4561
H51_28 H 0.5900 0.6758 0.4253
H52_28 H 0.5677 0.6693 0.4516
C69_28 C 0.5833(7) 0.6318(6) 0.4005(4)
H53_28 H 0.5659 0.6212 0.3935
H54_28 H 0.5833 0.6516 0.3924
H55_28 H 0.6010 0.6214 0.3941
O29_16 O 0.49823(14) 0.66945(14) 0.70267(13)
O31_21 O 0.67284(17) 0.80248(18) 0.50874(18)
C6_28 C 0.4833(3) 0.16925(19) 0.3153(2)
C7_28 C 0.48104(15) 0.14309(13) 0.33509(15)
C8_28 C 0.50307(15) 0.12208(16) 0.33478(17)
H4_28 H 0.5188 0.1237 0.3213
C9_28 C 0.50204(15) 0.09866(15) 0.35420(18)
H5_28 H 0.5171 0.0843 0.3540
C10_28 C 0.47897(16) 0.09625(14) 0.37393(16)
C11_28 C 0.45695(15) 0.11726(16) 0.37423(17)
H6_28 H 0.4412 0.1156 0.3877
C12_28 C 0.45798(15) 0.14068(15) 0.35481(17)
H7_28 H 0.4429 0.1550 0.3550
C13_28 C 0.47772(14) 0.07033(14) 0.39467(16)
C14_28 C 0.50377(11) 0.05882(15) 0.40543(18)
H8_28 H 0.5220 0.0671 0.3996
C15_28 C 0.50319(11) 0.03520(17) 0.42463(17)
H9_28 H 0.5210 0.0273 0.4320
C16_28 C 0.47657(13) 0.02310(14) 0.43308(16)
C17_28 C 0.45052(11) 0.03462(15) 0.42233(18)
H10_28 H 0.4323 0.0263 0.4281
C18_28 C 0.45109(11) 0.05823(16) 0.40313(17)
H11_28 H 0.4333 0.0661 0.3958
C51_28 C 0.33478(17) 0.00307(15) 0.62208(16)
H31_28 H 0.3213 0.0188 0.6237
C52_28 C 0.35420(18) 0.00204(15) 0.59866(15)
H32_28 H 0.3540 0.0171 0.5843
C57_28 C 0.40543(18) 0.00377(11) 0.55882(15)
H35_28 H 0.3996 0.0220 0.5671
C58_28 C 0.42463(17) 0.00319(11) 0.53520(17)
H36_28 H 0.4320 0.0210 0.5273
H39_28 H 0.4392 0.0113 0.4765
C19_28 C 0.4761(3) 0.9987(2) 0.4556(2)
C20_28 C 0.4974(2) 0.9768(3) 0.4548(2)
H12_28 H 0.5113 0.9765 0.4392
C34_28 C 0.66925(19) 0.8153(2) 0.4833(3)
C35_28 C 0.64309(13) 0.83509(15) 0.48104(15)
C36_28 C 0.62208(16) 0.83478(17) 0.50307(15)
H22_28 H 0.6237 0.8213 0.5188
C37_28 C 0.59866(15) 0.85420(18) 0.50204(15)
H23_28 H 0.5843 0.8540 0.5171
C38_28 C 0.59625(14) 0.87393(16) 0.47897(16)
C39_28 C 0.61726(16) 0.87423(17) 0.45695(15)
H24_28 H 0.6156 0.8877 0.4412
C40_28 C 0.64068(15) 0.85481(17) 0.45798(15)
H25_28 H 0.6550 0.8550 0.4429
C41_28 C 0.57033(14) 0.89467(16) 0.47772(14)
C42_28 C 0.55882(15) 0.90543(18) 0.50377(11)
H26_28 H 0.5671 0.8996 0.5220
C43_28 C 0.53520(17) 0.92463(17) 0.50319(11)
H27_28 H 0.5273 0.9320 0.5210
C44_28 C 0.52310(14) 0.93308(16) 0.47657(13)
C45_28 C 0.53462(15) 0.92233(18) 0.45052(11)
H28_28 H 0.5263 0.9281 0.4323
C46_28 C 0.55823(16) 0.90313(17) 0.45109(11)
H29_28 H 0.5661 0.8958 0.4333
C47_28 C 0.4987(2) 0.9556(2) 0.4761(3)
C48_28 C 0.4768(3) 0.9548(2) 0.4974(2)
H30_28 H 0.4765 0.9392 0.5113
C49_28 C 0.3153(2) 0.9833(3) 0.66925(19)
C50_28 C 0.33509(15) 0.98104(15) 0.64309(13)
C53_28 C 0.37393(16) 0.97897(16) 0.59625(14)
C54_28 C 0.37423(17) 0.95695(15) 0.61726(16)
H33_28 H 0.3877 0.9412 0.6156
C55_28 C 0.35481(17) 0.95798(15) 0.64068(15)
H34_28 H 0.3550 0.9429 0.6550
C56_28 C 0.39467(16) 0.97772(14) 0.57033(14)
C59_28 C 0.43308(16) 0.97657(13) 0.52310(14)
C60_28 C 0.42233(18) 0.95052(11) 0.53462(15)
H37_28 H 0.4281 0.9323 0.5263
C61_28 C 0.40313(17) 0.95109(11) 0.55823(16)
H38_28 H 0.3958 0.9333 0.5661
C62_28 C 0.4556(2) 0.9761(3) 0.4987(2)
C63_28 C 0.4548(2) 0.9974(2) 0.4768(3)
H2_29 H 0.0634 0.2537 0.7696
O3_29 O 0.0829(2) 0.2407(2) 0.72009(18)
C1_29 C 0.09084(19) 0.2155(2) 0.73034(19)
C2_29 C 0.1158(2) 0.2031(2) 0.7150(2)
C3_29 C 0.1284(2) 0.2129(2) 0.6900(2)
H3_29 H 0.1217 0.2295 0.6795
C4_29 C 0.1524(2) 0.1957(2) 0.6812(2)
C5_29 C 0.1578(2) 0.1722(2) 0.6997(2)
S1_29 S 0.13226(5) 0.17109(5) 0.72820(5)
O5_8 O 0.07716(17) 0.30248(18) 0.74126(18)
C6_29 C 0.08075(19) 0.3153(2) 0.7667(3)
C7_29 C 0.10691(13) 0.33509(15) 0.76896(15)
C8_29 C 0.12792(16) 0.33478(17) 0.74693(15)
H4_29 H 0.1263 0.3213 0.7312
C9_29 C 0.15134(15) 0.35420(18) 0.74796(15)
H5_29 H 0.1657 0.3540 0.7329
C10_29 C 0.15375(14) 0.37393(16) 0.77103(16)
C11_29 C 0.13274(16) 0.37423(17) 0.79305(15)
H6_29 H 0.1344 0.3877 0.8088
C12_29 C 0.10932(15) 0.35481(17) 0.79202(15)
H7_29 H 0.0950 0.3550 0.8071
C13_29 C 0.17967(14) 0.39467(16) 0.77228(14)
C14_29 C 0.19118(15) 0.40543(18) 0.74623(11)
H8_29 H 0.1829 0.3996 0.7280
C15_29 C 0.21480(17) 0.42463(17) 0.74681(11)
H9_29 H 0.2227 0.4320 0.7290
C16_29 C 0.22690(14) 0.43308(16) 0.77343(13)
C17_29 C 0.21538(15) 0.42233(18) 0.79948(11)
H10_29 H 0.2237 0.4281 0.8177
C18_29 C 0.19177(16) 0.40313(17) 0.79891(11)
H11_29 H 0.1839 0.3958 0.8167
C19_29 C 0.2513(2) 0.4556(2) 0.7739(3)
C20_29 C 0.2732(3) 0.4548(2) 0.7526(2)
H12_29 H 0.2735 0.4392 0.7387
O7_29 O 0.0950(4) 0.2883(4) 0.6885(4)
C21_29 C 0.1111(5) 0.2993(4) 0.6699(5)
H13_29 H 0.1059 0.2921 0.6511
N1_29 N 0.1333(4) 0.3179(3) 0.6673(3)
C22_29 C 0.1630(4) 0.3079(7) 0.6642(8)
H14_29 H 0.1642 0.2939 0.6479
H15_29 H 0.1758 0.3247 0.6600
H16_29 H 0.1693 0.2984 0.6823
C23_29 C 0.1318(6) 0.3495(4) 0.6667(7)
H17_29 H 0.1212 0.3565 0.6841
H18_29 H 0.1516 0.3576 0.6667
H19_29 H 0.1214 0.3559 0.6490
O8_29 O 0.22009(18) 0.0829(2) 0.7407(2)
C24_29 C 0.23034(19) 0.09084(19) 0.7155(2)
C25_29 C 0.2150(2) 0.1158(2) 0.7031(2)
C26_29 C 0.1900(2) 0.1284(2) 0.7129(2)
H20_29 H 0.1795 0.1217 0.7295
C27_29 C 0.1812(2) 0.1524(2) 0.6957(2)
C28_29 C 0.1997(2) 0.1578(2) 0.6722(2)
S2_29 S 0.22820(5) 0.13226(5) 0.67109(5)
O10_29 O 0.2407(2) 0.22009(18) 0.5829(2)
C29_29 C 0.2155(2) 0.23034(19) 0.59084(19)
C30_29 C 0.2031(2) 0.2150(2) 0.6158(2)
C31_29 C 0.2129(2) 0.1900(2) 0.6284(2)
H21_29 H 0.2295 0.1795 0.6217
C32_29 C 0.1957(2) 0.1812(2) 0.6524(2)
C33_29 C 0.1722(2) 0.1997(2) 0.6578(2)
S3_29 S 0.17109(5) 0.22820(5) 0.63226(5)
O12_22 O 0.44752(18) 0.50874(18) 0.57716(17)
C34_29 C 0.4347(2) 0.4833(3) 0.58075(19)
C35_29 C 0.41491(15) 0.48104(15) 0.60691(13)
C36_29 C 0.41522(17) 0.50307(15) 0.62792(16)
H22_29 H 0.4287 0.5188 0.6263
C37_29 C 0.39580(18) 0.50204(15) 0.65134(15)
H23_29 H 0.3960 0.5171 0.6657
C38_29 C 0.37607(16) 0.47897(16) 0.65375(14)
C39_29 C 0.37577(17) 0.45695(15) 0.63274(16)
H24_29 H 0.3623 0.4412 0.6344
C40_29 C 0.39519(17) 0.45798(15) 0.60932(15)
H25_29 H 0.3950 0.4429 0.5950
C41_29 C 0.35533(16) 0.47772(14) 0.67967(14)
C42_29 C 0.34457(18) 0.50377(11) 0.69118(15)
H26_29 H 0.3504 0.5220 0.6829
C43_29 C 0.32537(17) 0.50319(11) 0.71480(17)
H27_29 H 0.3180 0.5210 0.7227
C44_29 C 0.31692(16) 0.47657(13) 0.72690(14)
C45_29 C 0.32767(18) 0.45052(11) 0.71538(15)
H28_29 H 0.3219 0.4323 0.7237
C46_29 C 0.34687(17) 0.45109(11) 0.69177(16)
H29_29 H 0.3542 0.4333 0.6839
C47_29 C 0.2944(2) 0.4761(3) 0.7513(2)
C48_29 C 0.2952(2) 0.4974(2) 0.7732(3)
H30_29 H 0.3108 0.5113 0.7735
O14_22 O 0.24126(18) 0.67284(17) 0.94752(18)
C49_29 C 0.2667(3) 0.66925(19) 0.9347(2)
C50_29 C 0.26896(15) 0.64309(13) 0.91491(15)
C51_29 C 0.24693(15) 0.62208(16) 0.91522(17)
H31_29 H 0.2312 0.6237 0.9287
C52_29 C 0.24796(15) 0.59866(15) 0.89580(18)
H32_29 H 0.2329 0.5843 0.8960
C53_29 C 0.27103(16) 0.59625(14) 0.87607(16)
C54_29 C 0.29305(15) 0.61726(16) 0.87577(17)
H33_29 H 0.3088 0.6156 0.8623
C55_29 C 0.29202(15) 0.64068(15) 0.89519(17)
H34_29 H 0.3071 0.6550 0.8950
C56_29 C 0.27228(14) 0.57033(14) 0.85533(16)
C57_29 C 0.24623(11) 0.55882(15) 0.84457(18)
H35_29 H 0.2280 0.5671 0.8504
C58_29 C 0.24681(11) 0.53520(17) 0.82537(17)
H36_29 H 0.2290 0.5273 0.8180
C59_29 C 0.27343(13) 0.52310(14) 0.81692(16)
C60_29 C 0.29948(11) 0.53462(15) 0.82767(18)
H37_29 H 0.3177 0.5263 0.8219
C61_29 C 0.29891(11) 0.55823(16) 0.84687(17)
H38_29 H 0.3167 0.5661 0.8542
C62_29 C 0.2739(3) 0.4987(2) 0.7944(2)
C63_29 C 0.2526(2) 0.4768(3) 0.7952(2)
H39_29 H 0.2387 0.4765 0.8108
H40_29 H 0.2696 0.0634 0.7537
O17_29 O 0.1885(4) 0.0950(4) 0.7883(4)
C64_29 C 0.1699(5) 0.1111(5) 0.7993(4)
H41_29 H 0.1511 0.1059 0.7921
N2_29 N 0.1673(3) 0.1333(4) 0.8179(3)
C65_29 C 0.1642(8) 0.1630(4) 0.8079(7)
H42_29 H 0.1479 0.1642 0.7939
H43_29 H 0.1600 0.1758 0.8247
H44_29 H 0.1823 0.1693 0.7984
C66_29 C 0.1667(7) 0.1318(6) 0.8495(4)
H45_29 H 0.1841 0.1212 0.8565
H46_29 H 0.1667 0.1516 0.8576
H47_29 H 0.1490 0.1214 0.8559
H48_29 H 0.2537 0.2696 0.5634
O19_29 O 0.2883(4) 0.1885(4) 0.5950(4)
C67_29 C 0.2993(4) 0.1699(5) 0.6111(5)
H49_29 H 0.2921 0.1511 0.6059
N3_29 N 0.3179(3) 0.1673(3) 0.6333(4)
C68_29 C 0.3079(7) 0.1642(8) 0.6630(4)
H50_29 H 0.2939 0.1479 0.6642
H51_29 H 0.3247 0.1600 0.6758
H52_29 H 0.2984 0.1823 0.6693
C69_29 C 0.3495(4) 0.1667(7) 0.6318(6)
H53_29 H 0.3565 0.1841 0.6212
H54_29 H 0.3576 0.1667 0.6516
H55_29 H 0.3559 0.1490 0.6214
O31_22 O 0.24126(18) 0.07716(17) 0.80248(18)
O32_15 O 0.30248(18) 0.24126(18) 0.57716(17)
O12_23 O 0.07716(17) 0.44752(18) 0.00874(18)
C36_30 C 0.12792(16) 0.41522(17) 0.00307(15)
H22_30 H 0.1263 0.4287 0.0188
C37_30 C 0.15134(15) 0.39580(18) 0.00204(15)
H23_30 H 0.1657 0.3960 0.0171
C42_30 C 0.19118(15) 0.34457(18) 0.00377(11)
H26_30 H 0.1829 0.3504 0.0220
C43_30 C 0.21480(17) 0.32537(17) 0.00319(11)
H27_30 H 0.2227 0.3180 0.0210
H30_30 H 0.2735 0.3108 0.0113
O14_23 O 0.44752(18) 0.24126(18) 0.17284(17)
C49_30 C 0.4347(2) 0.2667(3) 0.16925(19)
C50_30 C 0.41491(15) 0.26896(15) 0.14309(13)
C51_30 C 0.41522(17) 0.24693(15) 0.12208(16)
H31_30 H 0.4287 0.2312 0.1237
C52_30 C 0.39580(18) 0.24796(15) 0.09866(15)
H32_30 H 0.3960 0.2329 0.0843
C53_30 C 0.37607(16) 0.27103(16) 0.09625(14)
C54_30 C 0.37577(17) 0.29305(15) 0.11726(16)
H33_30 H 0.3623 0.3088 0.1156
C55_30 C 0.39519(17) 0.29202(15) 0.14068(15)
H34_30 H 0.3950 0.3071 0.1550
C56_30 C 0.35533(16) 0.27228(14) 0.07033(14)
C57_30 C 0.34457(18) 0.24623(11) 0.05882(15)
H35_30 H 0.3504 0.2280 0.0671
C58_30 C 0.32537(17) 0.24681(11) 0.03520(17)
H36_30 H 0.3180 0.2290 0.0273
C59_30 C 0.31692(16) 0.27343(13) 0.02310(14)
C60_30 C 0.32767(18) 0.29948(11) 0.03462(15)
H37_30 H 0.3219 0.3177 0.0263
C61_30 C 0.34687(17) 0.29891(11) 0.05823(16)
H38_30 H 0.3542 0.3167 0.0661
C6_30 C 0.2667(3) 0.08075(19) 0.8153(2)
C7_30 C 0.26896(15) 0.10691(13) 0.83509(15)
C8_30 C 0.24693(15) 0.12792(16) 0.83478(17)
H4_30 H 0.2312 0.1263 0.8213
C9_30 C 0.24796(15) 0.15134(15) 0.85420(18)
H5_30 H 0.2329 0.1657 0.8540
C10_30 C 0.27103(16) 0.15375(14) 0.87393(16)
C11_30 C 0.29305(15) 0.13274(16) 0.87423(17)
H6_30 H 0.3088 0.1344 0.8877
C12_30 C 0.29202(15) 0.10932(15) 0.85481(17)
H7_30 H 0.3071 0.0950 0.8550
C13_30 C 0.27228(14) 0.17967(14) 0.89467(16)
C14_30 C 0.24623(11) 0.19118(15) 0.90543(18)
H8_30 H 0.2280 0.1829 0.8996
C15_30 C 0.24681(11) 0.21480(17) 0.92463(17)
H9_30 H 0.2290 0.2227 0.9320
C16_30 C 0.27343(13) 0.22690(14) 0.93308(16)
C17_30 C 0.29948(11) 0.21538(15) 0.92233(18)
H10_30 H 0.3177 0.2237 0.9281
C18_30 C 0.29891(11) 0.19177(16) 0.90313(17)
H11_30 H 0.3167 0.1839 0.8958
C19_30 C 0.2739(3) 0.2513(2) 0.9556(2)
C20_30 C 0.2526(2) 0.2732(3) 0.9548(2)
H12_30 H 0.2387 0.2735 0.9392
C34_30 C 0.08075(19) 0.4347(2) 0.9833(3)
C35_30 C 0.10691(13) 0.41491(15) 0.98104(15)
C38_30 C 0.15375(14) 0.37607(16) 0.97897(16)
C39_30 C 0.13274(16) 0.37577(17) 0.95695(15)
H24_30 H 0.1344 0.3623 0.9412
C40_30 C 0.10932(15) 0.39519(17) 0.95798(15)
H25_30 H 0.0950 0.3950 0.9429
C41_30 C 0.17967(14) 0.35533(16) 0.97772(14)
C44_30 C 0.22690(14) 0.31692(16) 0.97657(13)
C45_30 C 0.21538(15) 0.32767(18) 0.95052(11)
H28_30 H 0.2237 0.3219 0.9323
C46_30 C 0.19177(16) 0.34687(17) 0.95109(11)
H29_30 H 0.1839 0.3542 0.9333
C47_30 C 0.2513(2) 0.2944(2) 0.9761(3)
C48_30 C 0.2732(3) 0.2952(2) 0.9974(2)
C62_30 C 0.2944(2) 0.2739(3) 0.9987(2)
C63_30 C 0.2952(2) 0.2526(2) 0.9768(3)
H39_30 H 0.3108 0.2387 0.9765
C6_31 C 0.3153(2) 0.2667(3) 0.58075(19)
C7_31 C 0.33509(15) 0.26896(15) 0.60691(13)
C8_31 C 0.33478(17) 0.24693(15) 0.62792(16)
H4_31 H 0.3213 0.2312 0.6263
C9_31 C 0.35420(18) 0.24796(15) 0.65134(15)
H5_31 H 0.3540 0.2329 0.6657
C10_31 C 0.37393(16) 0.27103(16) 0.65375(14)
C11_31 C 0.37423(17) 0.29305(15) 0.63274(16)
H6_31 H 0.3877 0.3088 0.6344
C12_31 C 0.35481(17) 0.29202(15) 0.60932(15)
H7_31 H 0.3550 0.3071 0.5950
C13_31 C 0.39467(16) 0.27228(14) 0.67967(14)
C14_31 C 0.40543(18) 0.24623(11) 0.69118(15)
H8_31 H 0.3996 0.2280 0.6829
C15_31 C 0.42463(17) 0.24681(11) 0.71480(17)
H9_31 H 0.4320 0.2290 0.7227
C16_31 C 0.43308(16) 0.27343(13) 0.72690(14)
C17_31 C 0.42233(18) 0.29948(11) 0.71538(15)
H10_31 H 0.4281 0.3177 0.7237
C18_31 C 0.40313(17) 0.29891(11) 0.69177(16)
H11_31 H 0.3958 0.3167 0.6839
C19_31 C 0.4556(2) 0.2739(3) 0.7513(2)
C20_31 C 0.4548(2) 0.2526(2) 0.7732(3)
H12_31 H 0.4392 0.2387 0.7735
O12_24 O 0.50874(18) 0.07716(17) 0.94752(18)
C34_31 C 0.4833(3) 0.08075(19) 0.9347(2)
C35_31 C 0.48104(15) 0.10691(13) 0.91491(15)
C36_31 C 0.50307(15) 0.12792(16) 0.91522(17)
H22_31 H 0.5188 0.1263 0.9287
C37_31 C 0.50204(15) 0.15134(15) 0.89580(18)
H23_31 H 0.5171 0.1657 0.8960
C38_31 C 0.47897(16) 0.15375(14) 0.87607(16)
C39_31 C 0.45695(15) 0.13274(16) 0.87577(17)
H24_31 H 0.4412 0.1344 0.8623
C40_31 C 0.45798(15) 0.10932(15) 0.89519(17)
H25_31 H 0.4429 0.0950 0.8950
C41_31 C 0.47772(14) 0.17967(14) 0.85533(16)
C42_31 C 0.50377(11) 0.19118(15) 0.84457(18)
H26_31 H 0.5220 0.1829 0.8504
C43_31 C 0.50319(11) 0.21480(17) 0.82537(17)
H27_31 H 0.5210 0.2227 0.8180
C44_31 C 0.47657(13) 0.22690(14) 0.81692(16)
C45_31 C 0.45052(11) 0.21538(15) 0.82767(18)
H28_31 H 0.4323 0.2237 0.8219
C46_31 C 0.45109(11) 0.19177(16) 0.84687(17)
H29_31 H 0.4333 0.1839 0.8542
C47_31 C 0.4761(3) 0.2513(2) 0.7944(2)
C48_31 C 0.4974(2) 0.2732(3) 0.7952(2)
H30_31 H 0.5113 0.2735 0.8108
O14_24 O 0.67284(17) 0.44752(18) 0.74126(18)
C49_31 C 0.66925(19) 0.4347(2) 0.7667(3)
C50_31 C 0.64309(13) 0.41491(15) 0.76896(15)
C51_31 C 0.62208(16) 0.41522(17) 0.74693(15)
H31_31 H 0.6237 0.4287 0.7312
C52_31 C 0.59866(15) 0.39580(18) 0.74796(15)
H32_31 H 0.5843 0.3960 0.7329
C53_31 C 0.59625(14) 0.37607(16) 0.77103(16)
C54_31 C 0.61726(16) 0.37577(17) 0.79305(15)
H33_31 H 0.6156 0.3623 0.8088
C55_31 C 0.64068(15) 0.39519(17) 0.79202(15)
H34_31 H 0.6550 0.3950 0.8071
C56_31 C 0.57033(14) 0.35533(16) 0.77228(14)
C57_31 C 0.55882(15) 0.34457(18) 0.74623(11)
H35_31 H 0.5671 0.3504 0.7280
C58_31 C 0.53520(17) 0.32537(17) 0.74681(11)
H36_31 H 0.5273 0.3180 0.7290
C59_31 C 0.52310(14) 0.31692(16) 0.77343(13)
C60_31 C 0.53462(15) 0.32767(18) 0.79948(11)
H37_31 H 0.5263 0.3219 0.8177
C61_31 C 0.55823(16) 0.34687(17) 0.79891(11)
H38_31 H 0.5661 0.3542 0.8167
C62_31 C 0.4987(2) 0.2944(2) 0.7739(3)
C63_31 C 0.4768(3) 0.2952(2) 0.7526(2)
H39_31 H 0.4765 0.3108 0.7387
H2_30 H 0.4963 0.4804 0.5634
O3_30 O 0.5093(2) 0.52991(18) 0.5829(2)
C1_30 C 0.5345(2) 0.51966(19) 0.59084(19)
C2_30 C 0.5469(2) 0.5350(2) 0.6158(2)
C3_30 C 0.5371(2) 0.5600(2) 0.6284(2)
H3_30 H 0.5205 0.5705 0.6217
C4_30 C 0.5543(2) 0.5688(2) 0.6524(2)
C5_30 C 0.5778(2) 0.5503(2) 0.6578(2)
S1_30 S 0.57891(5) 0.52180(5) 0.63226(5)
O7_30 O 0.4617(4) 0.5615(4) 0.5950(4)
C21_30 C 0.4507(4) 0.5801(5) 0.6111(5)
H13_30 H 0.4579 0.5989 0.6059
N1_30 N 0.4321(3) 0.5827(3) 0.6333(4)
C22_30 C 0.4421(7) 0.5858(8) 0.6630(4)
H14_30 H 0.4561 0.6021 0.6642
H15_30 H 0.4253 0.5900 0.6758
H16_30 H 0.4516 0.5677 0.6693
C23_30 C 0.4005(4) 0.5833(7) 0.6318(6)
H17_30 H 0.3935 0.5659 0.6212
H18_30 H 0.3924 0.5833 0.6516
H19_30 H 0.3941 0.6010 0.6214
O8_30 O 0.6671(2) 0.5093(2) 0.72009(18)
C24_30 C 0.65916(19) 0.5345(2) 0.73034(19)
C25_30 C 0.6342(2) 0.5469(2) 0.7150(2)
C26_30 C 0.6216(2) 0.5371(2) 0.6900(2)
H20_30 H 0.6283 0.5205 0.6795
C27_30 C 0.5976(2) 0.5543(2) 0.6812(2)
C28_30 C 0.5922(2) 0.5778(2) 0.6997(2)
S2_30 S 0.61774(5) 0.57891(5) 0.72820(5)
O10_30 O 0.52991(18) 0.6671(2) 0.7407(2)
C29_30 C 0.51966(19) 0.65916(19) 0.7155(2)
C30_30 C 0.5350(2) 0.6342(2) 0.7031(2)
C31_30 C 0.5600(2) 0.6216(2) 0.7129(2)
H21_30 H 0.5705 0.6283 0.7295
C32_30 C 0.5688(2) 0.5976(2) 0.6957(2)
C33_30 C 0.5503(2) 0.5922(2) 0.6722(2)
S3_30 S 0.52180(5) 0.61774(5) 0.67109(5)
H40_30 H 0.6866 0.4963 0.7696
O17_30 O 0.6550(4) 0.4617(4) 0.6885(4)
C64_30 C 0.6389(5) 0.4507(4) 0.6699(5)
H41_30 H 0.6441 0.4579 0.6511
N2_30 N 0.6167(4) 0.4321(3) 0.6673(3)
C65_30 C 0.5870(4) 0.4421(7) 0.6642(8)
H42_30 H 0.5858 0.4561 0.6479
H43_30 H 0.5742 0.4253 0.6600
H44_30 H 0.5807 0.4516 0.6823
C66_30 C 0.6182(6) 0.4005(4) 0.6667(7)
H45_30 H 0.6288 0.3935 0.6841
H46_30 H 0.5984 0.3924 0.6667
H47_30 H 0.6286 0.3941 0.6490
H48_30 H 0.4804 0.6866 0.7537
O19_30 O 0.5615(4) 0.6550(4) 0.7883(4)
C67_30 C 0.5801(5) 0.6389(5) 0.7993(4)
H49_30 H 0.5989 0.6441 0.7921
N3_30 N 0.5827(3) 0.6167(4) 0.8179(3)
C68_30 C 0.5858(8) 0.5870(4) 0.8079(7)
H50_30 H 0.6021 0.5858 0.7939
H51_30 H 0.5900 0.5742 0.8247
H52_30 H 0.5677 0.5807 0.7984
C69_30 C 0.5833(7) 0.6182(6) 0.8495(4)
H53_30 H 0.5659 0.6288 0.8565
H54_30 H 0.5833 0.5984 0.8576
H55_30 H 0.6010 0.6286 0.8559
O32_16 O 0.50874(18) 0.67284(17) 0.80248(18)
O3_31 O 0.22009(18) 0.6671(2) 0.0093(2)
C1_31 C 0.23034(19) 0.65916(19) 0.0345(2)
C2_31 C 0.2150(2) 0.6342(2) 0.0469(2)
C3_31 C 0.1900(2) 0.6216(2) 0.0371(2)
H3_31 H 0.1795 0.6283 0.0205
C4_31 C 0.1812(2) 0.5976(2) 0.0543(2)
C5_31 C 0.1997(2) 0.5922(2) 0.0778(2)
S1_31 S 0.22820(5) 0.61774(5) 0.07891(5)
O8_31 O 0.2407(2) 0.52991(18) 0.1671(2)
C24_31 C 0.2155(2) 0.51966(19) 0.15916(19)
C25_31 C 0.2031(2) 0.5350(2) 0.1342(2)
C26_31 C 0.2129(2) 0.5600(2) 0.1216(2)
H20_31 H 0.2295 0.5705 0.1283
C27_31 C 0.1957(2) 0.5688(2) 0.0976(2)
C28_31 C 0.1722(2) 0.5503(2) 0.0922(2)
S2_31 S 0.17109(5) 0.52180(5) 0.11774(5)
O10_31 O 0.0829(2) 0.5093(2) 0.02991(18)
C29_31 C 0.09084(19) 0.5345(2) 0.01966(19)
C30_31 C 0.1158(2) 0.5469(2) 0.0350(2)
C31_31 C 0.1284(2) 0.5371(2) 0.0600(2)
H21_31 H 0.1217 0.5205 0.0705
C32_31 C 0.1524(2) 0.5543(2) 0.0688(2)
C33_31 C 0.1578(2) 0.5778(2) 0.0503(2)
S3_31 S 0.13226(5) 0.57891(5) 0.02180(5)
H40_31 H 0.2537 0.4804 0.1866
O17_31 O 0.2883(4) 0.5615(4) 0.1550(4)
C64_31 C 0.2993(4) 0.5801(5) 0.1389(5)
H41_31 H 0.2921 0.5989 0.1441
N2_31 N 0.3179(3) 0.5827(3) 0.1167(4)
C65_31 C 0.3079(7) 0.5858(8) 0.0870(4)
H42_31 H 0.2939 0.6021 0.0858
H43_31 H 0.3247 0.5900 0.0742
H44_31 H 0.2984 0.5677 0.0807
C66_31 C 0.3495(4) 0.5833(7) 0.1182(6)
H45_31 H 0.3565 0.5659 0.1288
H46_31 H 0.3576 0.5833 0.0984
H47_31 H 0.3559 0.6010 0.1286
O19_31 O 0.0950(4) 0.4617(4) 0.0615(4)
C67_31 C 0.1111(5) 0.4507(4) 0.0801(5)
H49_31 H 0.1059 0.4579 0.0989
N3_31 N 0.1333(4) 0.4321(3) 0.0827(3)
C68_31 C 0.1630(4) 0.4421(7) 0.0858(8)
H50_31 H 0.1642 0.4561 0.1021
H51_31 H 0.1758 0.4253 0.0900
H52_31 H 0.1693 0.4516 0.0677
C69_31 C 0.1318(6) 0.4005(4) 0.0833(7)
H53_31 H 0.1212 0.3935 0.0659
H54_31 H 0.1516 0.3924 0.0833
H55_31 H 0.1214 0.3941 0.1010
O31_23 O 0.30248(18) 0.50874(18) 0.17284(17)
H2_31 H 0.2696 0.6866 0.9963
O7_31 O 0.1885(4) 0.6550(4) 0.9617(4)
C21_31 C 0.1699(5) 0.6389(5) 0.9507(4)
H13_31 H 0.1511 0.6441 0.9579
N1_31 N 0.1673(3) 0.6167(4) 0.9321(3)
C22_31 C 0.1642(8) 0.5870(4) 0.9421(7)
H14_31 H 0.1479 0.5858 0.9561
H15_31 H 0.1600 0.5742 0.9253
H16_31 H 0.1823 0.5807 0.9516
C23_31 C 0.1667(7) 0.6182(6) 0.9005(4)
H17_31 H 0.1841 0.6288 0.8935
H18_31 H 0.1667 0.5984 0.8924
H19_31 H 0.1490 0.6286 0.8941
H48_31 H 0.0634 0.4963 0.9804
H2_32 H 0.4963 0.2696 0.1866
O3_32 O 0.5093(2) 0.22009(18) 0.1671(2)
C1_32 C 0.5345(2) 0.23034(19) 0.15916(19)
C2_32 C 0.5469(2) 0.2150(2) 0.1342(2)
C3_32 C 0.5371(2) 0.1900(2) 0.1216(2)
H3_32 H 0.5205 0.1795 0.1283
C4_32 C 0.5543(2) 0.1812(2) 0.0976(2)
C5_32 C 0.5778(2) 0.1997(2) 0.0922(2)
S1_32 S 0.57891(5) 0.22820(5) 0.11774(5)
O7_32 O 0.4617(4) 0.1885(4) 0.1550(4)
C21_32 C 0.4507(4) 0.1699(5) 0.1389(5)
H13_32 H 0.4579 0.1511 0.1441
N1_32 N 0.4321(3) 0.1673(3) 0.1167(4)
C22_32 C 0.4421(7) 0.1642(8) 0.0870(4)
H14_32 H 0.4561 0.1479 0.0858
H15_32 H 0.4253 0.1600 0.0742
H16_32 H 0.4516 0.1823 0.0807
C23_32 C 0.4005(4) 0.1667(7) 0.1182(6)
H17_32 H 0.3935 0.1841 0.1288
H18_32 H 0.3924 0.1667 0.0984
H19_32 H 0.3941 0.1490 0.1286
O8_32 O 0.6671(2) 0.2407(2) 0.02991(18)
C24_32 C 0.65916(19) 0.2155(2) 0.01966(19)
C25_32 C 0.6342(2) 0.2031(2) 0.0350(2)
C26_32 C 0.6216(2) 0.2129(2) 0.0600(2)
H20_32 H 0.6283 0.2295 0.0705
C27_32 C 0.5976(2) 0.1957(2) 0.0688(2)
C28_32 C 0.5922(2) 0.1722(2) 0.0503(2)
S2_32 S 0.61774(5) 0.17109(5) 0.02180(5)
O10_32 O 0.52991(18) 0.0829(2) 0.0093(2)
C29_32 C 0.51966(19) 0.09084(19) 0.0345(2)
C30_32 C 0.5350(2) 0.1158(2) 0.0469(2)
C31_32 C 0.5600(2) 0.1284(2) 0.0371(2)
H21_32 H 0.5705 0.1217 0.0205
C32_32 C 0.5688(2) 0.1524(2) 0.0543(2)
C33_32 C 0.5503(2) 0.1578(2) 0.0778(2)
S3_32 S 0.52180(5) 0.13226(5) 0.07891(5)
O17_32 O 0.6550(4) 0.2883(4) 0.0615(4)
C64_32 C 0.6389(5) 0.2993(4) 0.0801(5)
H41_32 H 0.6441 0.2921 0.0989
N2_32 N 0.6167(4) 0.3179(3) 0.0827(3)
C65_32 C 0.5870(4) 0.3079(7) 0.0858(8)
H42_32 H 0.5858 0.2939 0.1021
H43_32 H 0.5742 0.3247 0.0900
H44_32 H 0.5807 0.2984 0.0677
C66_32 C 0.6182(6) 0.3495(4) 0.0833(7)
H45_32 H 0.6288 0.3565 0.0659
H46_32 H 0.5984 0.3576 0.0833
H47_32 H 0.6286 0.3559 0.1010
O31_24 O 0.67284(17) 0.30248(18) 0.00874(18)
H40_32 H 0.6866 0.2537 0.9804
H48_32 H 0.4804 0.0634 0.9963
O19_32 O 0.5615(4) 0.0950(4) 0.9617(4)
C67_32 C 0.5801(5) 0.1111(5) 0.9507(4)
H49_32 H 0.5989 0.1059 0.9579
N3_32 N 0.5827(3) 0.1333(4) 0.9321(3)
C68_32 C 0.5858(8) 0.1630(4) 0.9421(7)
H50_32 H 0.6021 0.1642 0.9561
H51_32 H 0.5900 0.1758 0.9253
H52_32 H 0.5677 0.1693 0.9516
C69_32 C 0.5833(7) 0.1318(6) 0.9005(4)
H53_32 H 0.5659 0.1212 0.8935
H54_32 H 0.5833 0.1516 0.8924
H55_32 H 0.6010 0.1214 0.8941
C36_32 C 0.62208(16) 0.33478(17) 0.00307(15)
H22_32 H 0.6237 0.3213 0.0188
C37_32 C 0.59866(15) 0.35420(18) 0.00204(15)
H23_32 H 0.5843 0.3540 0.0171
C42_32 C 0.55882(15) 0.40543(18) 0.00377(11)
H26_32 H 0.5671 0.3996 0.0220
C43_32 C 0.53520(17) 0.42463(17) 0.00319(11)
H27_32 H 0.5273 0.4320 0.0210
H30_32 H 0.4765 0.4392 0.0113
C49_32 C 0.3153(2) 0.4833(3) 0.16925(19)
C50_32 C 0.33509(15) 0.48104(15) 0.14309(13)
C51_32 C 0.33478(17) 0.50307(15) 0.12208(16)
H31_32 H 0.3213 0.5188 0.1237
C52_32 C 0.35420(18) 0.50204(15) 0.09866(15)
H32_32 H 0.3540 0.5171 0.0843
C53_32 C 0.37393(16) 0.47897(16) 0.09625(14)
C54_32 C 0.37423(17) 0.45695(15) 0.11726(16)
H33_32 H 0.3877 0.4412 0.1156
C55_32 C 0.35481(17) 0.45798(15) 0.14068(15)
H34_32 H 0.3550 0.4429 0.1550
C56_32 C 0.39467(16) 0.47772(14) 0.07033(14)
C57_32 C 0.40543(18) 0.50377(11) 0.05882(15)
H35_32 H 0.3996 0.5220 0.0671
C58_32 C 0.42463(17) 0.50319(11) 0.03520(17)
H36_32 H 0.4320 0.5210 0.0273
C59_32 C 0.43308(16) 0.47657(13) 0.02310(14)
C60_32 C 0.42233(18) 0.45052(11) 0.03462(15)
H37_32 H 0.4281 0.4323 0.0263
C61_32 C 0.40313(17) 0.45109(11) 0.05823(16)
H38_32 H 0.3958 0.4333 0.0661
C6_32 C 0.4833(3) 0.66925(19) 0.8153(2)
C7_32 C 0.48104(15) 0.64309(13) 0.83509(15)
C8_32 C 0.50307(15) 0.62208(16) 0.83478(17)
H4_32 H 0.5188 0.6237 0.8213
C9_32 C 0.50204(15) 0.59866(15) 0.85420(18)
H5_32 H 0.5171 0.5843 0.8540
C10_32 C 0.47897(16) 0.59625(14) 0.87393(16)
C11_32 C 0.45695(15) 0.61726(16) 0.87423(17)
H6_32 H 0.4412 0.6156 0.8877
C12_32 C 0.45798(15) 0.64068(15) 0.85481(17)
H7_32 H 0.4429 0.6550 0.8550
C13_32 C 0.47772(14) 0.57033(14) 0.89467(16)
C14_32 C 0.50377(11) 0.55882(15) 0.90543(18)
H8_32 H 0.5220 0.5671 0.8996
C15_32 C 0.50319(11) 0.53520(17) 0.92463(17)
H9_32 H 0.5210 0.5273 0.9320
C16_32 C 0.47657(13) 0.52310(14) 0.93308(16)
C17_32 C 0.45052(11) 0.53462(15) 0.92233(18)
H10_32 H 0.4323 0.5263 0.9281
C18_32 C 0.45109(11) 0.55823(16) 0.90313(17)
H11_32 H 0.4333 0.5661 0.8958
C19_32 C 0.4761(3) 0.4987(2) 0.9556(2)
C20_32 C 0.4974(2) 0.4768(3) 0.9548(2)
H12_32 H 0.5113 0.4765 0.9392
C34_32 C 0.66925(19) 0.3153(2) 0.9833(3)
C35_32 C 0.64309(13) 0.33509(15) 0.98104(15)
C38_32 C 0.59625(14) 0.37393(16) 0.97897(16)
C39_32 C 0.61726(16) 0.37423(17) 0.95695(15)
H24_32 H 0.6156 0.3877 0.9412
C40_32 C 0.64068(15) 0.35481(17) 0.95798(15)
H25_32 H 0.6550 0.3550 0.9429
C41_32 C 0.57033(14) 0.39467(16) 0.97772(14)
C44_32 C 0.52310(14) 0.43308(16) 0.97657(13)
C45_32 C 0.53462(15) 0.42233(18) 0.95052(11)
H28_32 H 0.5263 0.4281 0.9323
C46_32 C 0.55823(16) 0.40313(17) 0.95109(11)
H29_32 H 0.5661 0.3958 0.9333
C47_32 C 0.4987(2) 0.4556(2) 0.9761(3)
C48_32 C 0.4768(3) 0.4548(2) 0.9974(2)
C62_32 C 0.4556(2) 0.4761(3) 0.9987(2)
C63_32 C 0.4548(2) 0.4974(2) 0.9768(3)
H39_32 H 0.4392 0.5113 0.9765
C70 C 0.3680(11) 0.2080(14) 0.1859(16)
H56 H 0.3719 0.2190 0.1678
H57 H 0.3557 0.1911 0.1815
H58 H 0.3866 0.2014 0.1943
N4 N 0.3533(6) 0.2268(7) 0.2065(8)
H59 H 0.3479 0.2157 0.2222
H60 H 0.3366 0.2335 0.1980
C71 C 0.3698(9) 0.2516(9) 0.2170(10)
H61 H 0.3892 0.2452 0.2234
H62 H 0.3594 0.2607 0.2335
H63 H 0.3719 0.2660 0.2011
C70_2 C 0.1859(16) 0.3680(11) 0.2080(14)
H56_2 H 0.1678 0.3719 0.2190
H57_2 H 0.1815 0.3557 0.1911
H58_2 H 0.1943 0.3866 0.2014
N4_2 N 0.2065(8) 0.3533(6) 0.2268(7)
H59_2 H 0.2222 0.3479 0.2157
H60_2 H 0.1980 0.3366 0.2335
C71_2 C 0.2170(10) 0.3698(9) 0.2516(9)
H61_2 H 0.2234 0.3892 0.2452
H62_2 H 0.2335 0.3594 0.2607
H63_2 H 0.2011 0.3719 0.2660
C70_3 C 0.2080(14) 0.1859(16) 0.3680(11)
H56_3 H 0.2190 0.1678 0.3719
H57_3 H 0.1911 0.1815 0.3557
H58_3 H 0.2014 0.1943 0.3866
N4_3 N 0.2268(7) 0.2065(8) 0.3533(6)
H59_3 H 0.2157 0.2222 0.3479
H60_3 H 0.2335 0.1980 0.3366
C71_3 C 0.2516(9) 0.2170(10) 0.3698(9)
H61_3 H 0.2452 0.2234 0.3892
H62_3 H 0.2607 0.2335 0.3594
H63_3 H 0.2660 0.2011 0.3719
C70_4 C 0.0420(14) 0.0641(16) 0.3680(11)
H56_4 H 0.0310 0.0822 0.3719
H57_4 H 0.0589 0.0685 0.3557
H58_4 H 0.0486 0.0557 0.3866
N4_4 N 0.0232(7) 0.0435(8) 0.3533(6)
H59_4 H 0.0343 0.0278 0.3479
H60_4 H 0.0165 0.0520 0.3366
H61_4 H 0.0048 0.0266 0.3892
C71_4 C 0.9984(9) 0.0330(10) 0.3698(9)
H62_4 H 0.9893 0.0165 0.3594
H63_4 H 0.9840 0.0489 0.3719
C70_5 C 0.1859(16) 0.8820(11) 0.0420(14)
H56_5 H 0.1678 0.8781 0.0310
H57_5 H 0.1815 0.8943 0.0589
H58_5 H 0.1943 0.8634 0.0486
N4_5 N 0.2065(8) 0.8967(6) 0.0232(7)
H59_5 H 0.2222 0.9021 0.0343
H60_5 H 0.1980 0.9134 0.0165
H61_5 H 0.2234 0.8608 0.0048
C71_5 C 0.2170(10) 0.8802(9) 0.9984(9)
H62_5 H 0.2335 0.8906 0.9893
H63_5 H 0.2011 0.8781 0.9840
C70_6 C 0.0420(14) 0.1859(16) 0.8820(11)
H56_6 H 0.0310 0.1678 0.8781
H57_6 H 0.0589 0.1815 0.8943
H58_6 H 0.0486 0.1943 0.8634
N4_6 N 0.0232(7) 0.2065(8) 0.8967(6)
H59_6 H 0.0343 0.2222 0.9021
H60_6 H 0.0165 0.1980 0.9134
H61_6 H 0.0048 0.2234 0.8608
C71_6 C 0.9984(9) 0.2170(10) 0.8802(9)
H62_6 H 0.9893 0.2335 0.8906
H63_6 H 0.9840 0.2011 0.8781
C70_7 C 0.0641(16) 0.8820(11) 0.2080(14)
H56_7 H 0.0822 0.8781 0.2190
H57_7 H 0.0685 0.8943 0.1911
H58_7 H 0.0557 0.8634 0.2014
N4_7 N 0.0435(8) 0.8967(6) 0.2268(7)
H59_7 H 0.0278 0.9021 0.2157
H60_7 H 0.0520 0.9134 0.2335
C71_7 C 0.0330(10) 0.8802(9) 0.2516(9)
H61_7 H 0.0266 0.8608 0.2452
H62_7 H 0.0165 0.8906 0.2607
H63_7 H 0.0489 0.8781 0.2660
C70_8 C 0.0641(16) 0.3680(11) 0.0420(14)
H56_8 H 0.0822 0.3719 0.0310
H57_8 H 0.0685 0.3557 0.0589
H58_8 H 0.0557 0.3866 0.0486
N4_8 N 0.0435(8) 0.3533(6) 0.0232(7)
H59_8 H 0.0278 0.3479 0.0343
H60_8 H 0.0520 0.3366 0.0165
H61_8 H 0.0266 0.3892 0.0048
C71_8 C 0.0330(10) 0.3698(9) 0.9984(9)
H62_8 H 0.0165 0.3594 0.9893
H63_8 H 0.0489 0.3719 0.9840
C70_9 C 0.2080(14) 0.0641(16) 0.8820(11)
H56_9 H 0.2190 0.0822 0.8781
H57_9 H 0.1911 0.0685 0.8943
H58_9 H 0.2014 0.0557 0.8634
N4_9 N 0.2268(7) 0.0435(8) 0.8967(6)
H59_9 H 0.2157 0.0278 0.9021
H60_9 H 0.2335 0.0520 0.9134
C71_9 C 0.2516(9) 0.0330(10) 0.8802(9)
H61_9 H 0.2452 0.0266 0.8608
H62_9 H 0.2607 0.0165 0.8906
H63_9 H 0.2660 0.0489 0.8781
C70_10 C 0.8820(11) 0.0420(14) 0.1859(16)
H56_10 H 0.8781 0.0310 0.1678
H57_10 H 0.8943 0.0589 0.1815
H58_10 H 0.8634 0.0486 0.1943
N4_10 N 0.8967(6) 0.0232(7) 0.2065(8)
H59_10 H 0.9021 0.0343 0.2222
H60_10 H 0.9134 0.0165 0.1980
H61_10 H 0.8608 0.0048 0.2234
C71_10 C 0.8802(9) 0.9984(9) 0.2170(10)
H62_10 H 0.8906 0.9893 0.2335
H63_10 H 0.8781 0.9840 0.2011
C70_11 C 0.3680(11) 0.0420(14) 0.0641(16)
H56_11 H 0.3719 0.0310 0.0822
H57_11 H 0.3557 0.0589 0.0685
H58_11 H 0.3866 0.0486 0.0557
N4_11 N 0.3533(6) 0.0232(7) 0.0435(8)
H59_11 H 0.3479 0.0343 0.0278
H60_11 H 0.3366 0.0165 0.0520
H61_11 H 0.3892 0.0048 0.0266
C71_11 C 0.3698(9) 0.9984(9) 0.0330(10)
H62_11 H 0.3594 0.9893 0.0165
H63_11 H 0.3719 0.9840 0.0489
C70_12 C 0.8820(11) 0.2080(14) 0.0641(16)
H56_12 H 0.8781 0.2190 0.0822
H57_12 H 0.8943 0.1911 0.0685
H58_12 H 0.8634 0.2014 0.0557
N4_12 N 0.8967(6) 0.2268(7) 0.0435(8)
H59_12 H 0.9021 0.2157 0.0278
H60_12 H 0.9134 0.2335 0.0520
C71_12 C 0.8802(9) 0.2516(9) 0.0330(10)
H61_12 H 0.8608 0.2452 0.0266
H62_12 H 0.8906 0.2607 0.0165
H63_12 H 0.8781 0.2660 0.0489
C70_13 C 0.3680(11) 0.7080(14) 0.6859(16)
H56_13 H 0.3719 0.7190 0.6678
H57_13 H 0.3557 0.6911 0.6815
H58_13 H 0.3866 0.7014 0.6943
N4_13 N 0.3533(6) 0.7268(7) 0.7065(8)
H59_13 H 0.3479 0.7157 0.7222
H60_13 H 0.3366 0.7335 0.6980
C71_13 C 0.3698(9) 0.7516(9) 0.7170(10)
H61_13 H 0.3892 0.7452 0.7234
H62_13 H 0.3594 0.7607 0.7335
H63_13 H 0.3719 0.7660 0.7011
C70_14 C 0.1859(16) 0.8680(11) 0.7080(14)
H56_14 H 0.1678 0.8719 0.7190
H57_14 H 0.1815 0.8557 0.6911
H58_14 H 0.1943 0.8866 0.7014
N4_14 N 0.2065(8) 0.8533(6) 0.7268(7)
H59_14 H 0.2222 0.8479 0.7157
H60_14 H 0.1980 0.8366 0.7335
C71_14 C 0.2170(10) 0.8698(9) 0.7516(9)
H61_14 H 0.2234 0.8892 0.7452
H62_14 H 0.2335 0.8594 0.7607
H63_14 H 0.2011 0.8719 0.7660
C70_15 C 0.2080(14) 0.6859(16) 0.8680(11)
H56_15 H 0.2190 0.6678 0.8719
H57_15 H 0.1911 0.6815 0.8557
H58_15 H 0.2014 0.6943 0.8866
N4_15 N 0.2268(7) 0.7065(8) 0.8533(6)
H59_15 H 0.2157 0.7222 0.8479
H60_15 H 0.2335 0.6980 0.8366
C71_15 C 0.2516(9) 0.7170(10) 0.8698(9)
H61_15 H 0.2452 0.7234 0.8892
H62_15 H 0.2607 0.7335 0.8594
H63_15 H 0.2660 0.7011 0.8719
C70_16 C 0.0420(14) 0.5641(16) 0.8680(11)
H56_16 H 0.0310 0.5822 0.8719
H57_16 H 0.0589 0.5685 0.8557
H58_16 H 0.0486 0.5557 0.8866
N4_16 N 0.0232(7) 0.5435(8) 0.8533(6)
H59_16 H 0.0343 0.5278 0.8479
H60_16 H 0.0165 0.5520 0.8366
H61_16 H 0.0048 0.5266 0.8892
C71_16 C 0.9984(9) 0.5330(10) 0.8698(9)
H62_16 H 0.9893 0.5165 0.8594
H63_16 H 0.9840 0.5489 0.8719
C70_17 C 0.1859(16) 0.3820(11) 0.5420(14)
H56_17 H 0.1678 0.3781 0.5310
H57_17 H 0.1815 0.3943 0.5589
H58_17 H 0.1943 0.3634 0.5486
N4_17 N 0.2065(8) 0.3967(6) 0.5232(7)
H59_17 H 0.2222 0.4021 0.5343
H60_17 H 0.1980 0.4134 0.5165
C71_17 C 0.2170(10) 0.3802(9) 0.4984(9)
H61_17 H 0.2234 0.3608 0.5048
H62_17 H 0.2335 0.3906 0.4893
H63_17 H 0.2011 0.3781 0.4840
C70_18 C 0.0420(14) 0.6859(16) 0.3820(11)
H56_18 H 0.0310 0.6678 0.3781
H57_18 H 0.0589 0.6815 0.3943
H58_18 H 0.0486 0.6943 0.3634
N4_18 N 0.0232(7) 0.7065(8) 0.3967(6)
H59_18 H 0.0343 0.7222 0.4021
H60_18 H 0.0165 0.6980 0.4134
H61_18 H 0.0048 0.7234 0.3608
C71_18 C 0.9984(9) 0.7170(10) 0.3802(9)
H62_18 H 0.9893 0.7335 0.3906
H63_18 H 0.9840 0.7011 0.3781
C70_19 C 0.0641(16) 0.3820(11) 0.7080(14)
H56_19 H 0.0822 0.3781 0.7190
H57_19 H 0.0685 0.3943 0.6911
H58_19 H 0.0557 0.3634 0.7014
N4_19 N 0.0435(8) 0.3967(6) 0.7268(7)
H59_19 H 0.0278 0.4021 0.7157
H60_19 H 0.0520 0.4134 0.7335
C71_19 C 0.0330(10) 0.3802(9) 0.7516(9)
H61_19 H 0.0266 0.3608 0.7452
H62_19 H 0.0165 0.3906 0.7607
H63_19 H 0.0489 0.3781 0.7660
C70_20 C 0.0641(16) 0.8680(11) 0.5420(14)
H56_20 H 0.0822 0.8719 0.5310
H57_20 H 0.0685 0.8557 0.5589
H58_20 H 0.0557 0.8866 0.5486
N4_20 N 0.0435(8) 0.8533(6) 0.5232(7)
H59_20 H 0.0278 0.8479 0.5343
H60_20 H 0.0520 0.8366 0.5165
C71_20 C 0.0330(10) 0.8698(9) 0.4984(9)
H61_20 H 0.0266 0.8892 0.5048
H62_20 H 0.0165 0.8594 0.4893
H63_20 H 0.0489 0.8719 0.4840
C70_21 C 0.2080(14) 0.5641(16) 0.3820(11)
H56_21 H 0.2190 0.5822 0.3781
H57_21 H 0.1911 0.5685 0.3943
H58_21 H 0.2014 0.5557 0.3634
N4_21 N 0.2268(7) 0.5435(8) 0.3967(6)
H59_21 H 0.2157 0.5278 0.4021
H60_21 H 0.2335 0.5520 0.4134
C71_21 C 0.2516(9) 0.5330(10) 0.3802(9)
H61_21 H 0.2452 0.5266 0.3608
H62_21 H 0.2607 0.5165 0.3906
H63_21 H 0.2660 0.5489 0.3781
C70_22 C 0.8820(11) 0.5420(14) 0.6859(16)
H56_22 H 0.8781 0.5310 0.6678
H57_22 H 0.8943 0.5589 0.6815
H58_22 H 0.8634 0.5486 0.6943
N4_22 N 0.8967(6) 0.5232(7) 0.7065(8)
H59_22 H 0.9021 0.5343 0.7222
H60_22 H 0.9134 0.5165 0.6980
C71_22 C 0.8802(9) 0.4984(9) 0.7170(10)
H61_22 H 0.8608 0.5048 0.7234
H62_22 H 0.8906 0.4893 0.7335
H63_22 H 0.8781 0.4840 0.7011
C70_23 C 0.3680(11) 0.5420(14) 0.5641(16)
H56_23 H 0.3719 0.5310 0.5822
H57_23 H 0.3557 0.5589 0.5685
H58_23 H 0.3866 0.5486 0.5557
N4_23 N 0.3533(6) 0.5232(7) 0.5435(8)
H59_23 H 0.3479 0.5343 0.5278
H60_23 H 0.3366 0.5165 0.5520
C71_23 C 0.3698(9) 0.4984(9) 0.5330(10)
H61_23 H 0.3892 0.5048 0.5266
H62_23 H 0.3594 0.4893 0.5165
H63_23 H 0.3719 0.4840 0.5489
C70_24 C 0.8820(11) 0.7080(14) 0.5641(16)
H56_24 H 0.8781 0.7190 0.5822
H57_24 H 0.8943 0.6911 0.5685
H58_24 H 0.8634 0.7014 0.5557
N4_24 N 0.8967(6) 0.7268(7) 0.5435(8)
H59_24 H 0.9021 0.7157 0.5278
H60_24 H 0.9134 0.7335 0.5520
C71_24 C 0.8802(9) 0.7516(9) 0.5330(10)
H61_24 H 0.8608 0.7452 0.5266
H62_24 H 0.8906 0.7607 0.5165
H63_24 H 0.8781 0.7660 0.5489
C70_25 C 0.8680(11) 0.2080(14) 0.6859(16)
H56_25 H 0.8719 0.2190 0.6678
H57_25 H 0.8557 0.1911 0.6815
H58_25 H 0.8866 0.2014 0.6943
N4_25 N 0.8533(6) 0.2268(7) 0.7065(8)
H59_25 H 0.8479 0.2157 0.7222
H60_25 H 0.8366 0.2335 0.6980
C71_25 C 0.8698(9) 0.2516(9) 0.7170(10)
H61_25 H 0.8892 0.2452 0.7234
H62_25 H 0.8594 0.2607 0.7335
H63_25 H 0.8719 0.2660 0.7011
C70_26 C 0.6859(16) 0.3680(11) 0.7080(14)
H56_26 H 0.6678 0.3719 0.7190
H57_26 H 0.6815 0.3557 0.6911
H58_26 H 0.6943 0.3866 0.7014
N4_26 N 0.7065(8) 0.3533(6) 0.7268(7)
H59_26 H 0.7222 0.3479 0.7157
H60_26 H 0.6980 0.3366 0.7335
C71_26 C 0.7170(10) 0.3698(9) 0.7516(9)
H61_26 H 0.7234 0.3892 0.7452
H62_26 H 0.7335 0.3594 0.7607
H63_26 H 0.7011 0.3719 0.7660
C70_27 C 0.7080(14) 0.1859(16) 0.8680(11)
H56_27 H 0.7190 0.1678 0.8719
H57_27 H 0.6911 0.1815 0.8557
H58_27 H 0.7014 0.1943 0.8866
N4_27 N 0.7268(7) 0.2065(8) 0.8533(6)
H59_27 H 0.7157 0.2222 0.8479
H60_27 H 0.7335 0.1980 0.8366
C71_27 C 0.7516(9) 0.2170(10) 0.8698(9)
H61_27 H 0.7452 0.2234 0.8892
H62_27 H 0.7607 0.2335 0.8594
H63_27 H 0.7660 0.2011 0.8719
C70_28 C 0.5420(14) 0.0641(16) 0.8680(11)
H56_28 H 0.5310 0.0822 0.8719
H57_28 H 0.5589 0.0685 0.8557
H58_28 H 0.5486 0.0557 0.8866
N4_28 N 0.5232(7) 0.0435(8) 0.8533(6)
H59_28 H 0.5343 0.0278 0.8479
H60_28 H 0.5165 0.0520 0.8366
C71_28 C 0.4984(9) 0.0330(10) 0.8698(9)
H61_28 H 0.5048 0.0266 0.8892
H62_28 H 0.4893 0.0165 0.8594
H63_28 H 0.4840 0.0489 0.8719
C70_29 C 0.6859(16) 0.8820(11) 0.5420(14)
H56_29 H 0.6678 0.8781 0.5310
H57_29 H 0.6815 0.8943 0.5589
H58_29 H 0.6943 0.8634 0.5486
N4_29 N 0.7065(8) 0.8967(6) 0.5232(7)
H59_29 H 0.7222 0.9021 0.5343
H60_29 H 0.6980 0.9134 0.5165
C71_29 C 0.7170(10) 0.8802(9) 0.4984(9)
H61_29 H 0.7234 0.8608 0.5048
H62_29 H 0.7335 0.8906 0.4893
H63_29 H 0.7011 0.8781 0.4840
C70_30 C 0.5420(14) 0.1859(16) 0.3820(11)
H56_30 H 0.5310 0.1678 0.3781
H57_30 H 0.5589 0.1815 0.3943
H58_30 H 0.5486 0.1943 0.3634
N4_30 N 0.5232(7) 0.2065(8) 0.3967(6)
H59_30 H 0.5343 0.2222 0.4021
H60_30 H 0.5165 0.1980 0.4134
C71_30 C 0.4984(9) 0.2170(10) 0.3802(9)
H61_30 H 0.5048 0.2234 0.3608
H62_30 H 0.4893 0.2335 0.3906
H63_30 H 0.4840 0.2011 0.3781
C70_31 C 0.5641(16) 0.8820(11) 0.7080(14)
H56_31 H 0.5822 0.8781 0.7190
H57_31 H 0.5685 0.8943 0.6911
H58_31 H 0.5557 0.8634 0.7014
N4_31 N 0.5435(8) 0.8967(6) 0.7268(7)
H59_31 H 0.5278 0.9021 0.7157
H60_31 H 0.5520 0.9134 0.7335
C71_31 C 0.5330(10) 0.8802(9) 0.7516(9)
H61_31 H 0.5266 0.8608 0.7452
H62_31 H 0.5165 0.8906 0.7607
H63_31 H 0.5489 0.8781 0.7660
C70_32 C 0.5641(16) 0.3680(11) 0.5420(14)
H56_32 H 0.5822 0.3719 0.5310
H57_32 H 0.5685 0.3557 0.5589
H58_32 H 0.5557 0.3866 0.5486
N4_32 N 0.5435(8) 0.3533(6) 0.5232(7)
H59_32 H 0.5278 0.3479 0.5343
H60_32 H 0.5520 0.3366 0.5165
C71_32 C 0.5330(10) 0.3698(9) 0.4984(9)
H61_32 H 0.5266 0.3892 0.5048
H62_32 H 0.5165 0.3594 0.4893
H63_32 H 0.5489 0.3719 0.4840
C70_33 C 0.7080(14) 0.0641(16) 0.3820(11)
H56_33 H 0.7190 0.0822 0.3781
H57_33 H 0.6911 0.0685 0.3943
H58_33 H 0.7014 0.0557 0.3634
N4_33 N 0.7268(7) 0.0435(8) 0.3967(6)
H59_33 H 0.7157 0.0278 0.4021
H60_33 H 0.7335 0.0520 0.4134
C71_33 C 0.7516(9) 0.0330(10) 0.3802(9)
H61_33 H 0.7452 0.0266 0.3608
H62_33 H 0.7607 0.0165 0.3906
H63_33 H 0.7660 0.0489 0.3781
C70_34 C 0.3820(11) 0.0420(14) 0.6859(16)
H56_34 H 0.3781 0.0310 0.6678
H57_34 H 0.3943 0.0589 0.6815
H58_34 H 0.3634 0.0486 0.6943
N4_34 N 0.3967(6) 0.0232(7) 0.7065(8)
H59_34 H 0.4021 0.0343 0.7222
H60_34 H 0.4134 0.0165 0.6980
H61_34 H 0.3608 0.0048 0.7234
C71_34 C 0.3802(9) 0.9984(9) 0.7170(10)
H62_34 H 0.3906 0.9893 0.7335
H63_34 H 0.3781 0.9840 0.7011
C70_35 C 0.8680(11) 0.0420(14) 0.5641(16)
H56_35 H 0.8719 0.0310 0.5822
H57_35 H 0.8557 0.0589 0.5685
H58_35 H 0.8866 0.0486 0.5557
N4_35 N 0.8533(6) 0.0232(7) 0.5435(8)
H59_35 H 0.8479 0.0343 0.5278
H60_35 H 0.8366 0.0165 0.5520
H61_35 H 0.8892 0.0048 0.5266
C71_35 C 0.8698(9) 0.9984(9) 0.5330(10)
H62_35 H 0.8594 0.9893 0.5165
H63_35 H 0.8719 0.9840 0.5489
C70_36 C 0.3820(11) 0.2080(14) 0.5641(16)
H56_36 H 0.3781 0.2190 0.5822
H57_36 H 0.3943 0.1911 0.5685
H58_36 H 0.3634 0.2014 0.5557
N4_36 N 0.3967(6) 0.2268(7) 0.5435(8)
H59_36 H 0.4021 0.2157 0.5278
H60_36 H 0.4134 0.2335 0.5520
C71_36 C 0.3802(9) 0.2516(9) 0.5330(10)
H61_36 H 0.3608 0.2452 0.5266
H62_36 H 0.3906 0.2607 0.5165
H63_36 H 0.3781 0.2660 0.5489
C70_37 C 0.8680(11) 0.7080(14) 0.1859(16)
H56_37 H 0.8719 0.7190 0.1678
H57_37 H 0.8557 0.6911 0.1815
H58_37 H 0.8866 0.7014 0.1943
N4_37 N 0.8533(6) 0.7268(7) 0.2065(8)
H59_37 H 0.8479 0.7157 0.2222
H60_37 H 0.8366 0.7335 0.1980
C71_37 C 0.8698(9) 0.7516(9) 0.2170(10)
H61_37 H 0.8892 0.7452 0.2234
H62_37 H 0.8594 0.7607 0.2335
H63_37 H 0.8719 0.7660 0.2011
C70_38 C 0.6859(16) 0.8680(11) 0.2080(14)
H56_38 H 0.6678 0.8719 0.2190
H57_38 H 0.6815 0.8557 0.1911
H58_38 H 0.6943 0.8866 0.2014
N4_38 N 0.7065(8) 0.8533(6) 0.2268(7)
H59_38 H 0.7222 0.8479 0.2157
H60_38 H 0.6980 0.8366 0.2335
C71_38 C 0.7170(10) 0.8698(9) 0.2516(9)
H61_38 H 0.7234 0.8892 0.2452
H62_38 H 0.7335 0.8594 0.2607
H63_38 H 0.7011 0.8719 0.2660
C70_39 C 0.7080(14) 0.6859(16) 0.3680(11)
H56_39 H 0.7190 0.6678 0.3719
H57_39 H 0.6911 0.6815 0.3557
H58_39 H 0.7014 0.6943 0.3866
N4_39 N 0.7268(7) 0.7065(8) 0.3533(6)
H59_39 H 0.7157 0.7222 0.3479
H60_39 H 0.7335 0.6980 0.3366
C71_39 C 0.7516(9) 0.7170(10) 0.3698(9)
H61_39 H 0.7452 0.7234 0.3892
H62_39 H 0.7607 0.7335 0.3594
H63_39 H 0.7660 0.7011 0.3719
C70_40 C 0.5420(14) 0.5641(16) 0.3680(11)
H56_40 H 0.5310 0.5822 0.3719
H57_40 H 0.5589 0.5685 0.3557
H58_40 H 0.5486 0.5557 0.3866
N4_40 N 0.5232(7) 0.5435(8) 0.3533(6)
H59_40 H 0.5343 0.5278 0.3479
H60_40 H 0.5165 0.5520 0.3366
C71_40 C 0.4984(9) 0.5330(10) 0.3698(9)
H61_40 H 0.5048 0.5266 0.3892
H62_40 H 0.4893 0.5165 0.3594
H63_40 H 0.4840 0.5489 0.3719
C70_41 C 0.6859(16) 0.3820(11) 0.0420(14)
H56_41 H 0.6678 0.3781 0.0310
H57_41 H 0.6815 0.3943 0.0589
H58_41 H 0.6943 0.3634 0.0486
N4_41 N 0.7065(8) 0.3967(6) 0.0232(7)
H59_41 H 0.7222 0.4021 0.0343
H60_41 H 0.6980 0.4134 0.0165
H61_41 H 0.7234 0.3608 0.0048
C71_41 C 0.7170(10) 0.3802(9) 0.9984(9)
H62_41 H 0.7335 0.3906 0.9893
H63_41 H 0.7011 0.3781 0.9840
C70_42 C 0.5420(14) 0.6859(16) 0.8820(11)
H56_42 H 0.5310 0.6678 0.8781
H57_42 H 0.5589 0.6815 0.8943
H58_42 H 0.5486 0.6943 0.8634
N4_42 N 0.5232(7) 0.7065(8) 0.8967(6)
H59_42 H 0.5343 0.7222 0.9021
H60_42 H 0.5165 0.6980 0.9134
C71_42 C 0.4984(9) 0.7170(10) 0.8802(9)
H61_42 H 0.5048 0.7234 0.8608
H62_42 H 0.4893 0.7335 0.8906
H63_42 H 0.4840 0.7011 0.8781
C70_43 C 0.5641(16) 0.3820(11) 0.2080(14)
H56_43 H 0.5822 0.3781 0.2190
H57_43 H 0.5685 0.3943 0.1911
H58_43 H 0.5557 0.3634 0.2014
N4_43 N 0.5435(8) 0.3967(6) 0.2268(7)
H59_43 H 0.5278 0.4021 0.2157
H60_43 H 0.5520 0.4134 0.2335
C71_43 C 0.5330(10) 0.3802(9) 0.2516(9)
H61_43 H 0.5266 0.3608 0.2452
H62_43 H 0.5165 0.3906 0.2607
H63_43 H 0.5489 0.3781 0.2660
C70_44 C 0.5641(16) 0.8680(11) 0.0420(14)
H56_44 H 0.5822 0.8719 0.0310
H57_44 H 0.5685 0.8557 0.0589
H58_44 H 0.5557 0.8866 0.0486
N4_44 N 0.5435(8) 0.8533(6) 0.0232(7)
H59_44 H 0.5278 0.8479 0.0343
H60_44 H 0.5520 0.8366 0.0165
H61_44 H 0.5266 0.8892 0.0048
C71_44 C 0.5330(10) 0.8698(9) 0.9984(9)
H62_44 H 0.5165 0.8594 0.9893
H63_44 H 0.5489 0.8719 0.9840
C70_45 C 0.7080(14) 0.5641(16) 0.8820(11)
H56_45 H 0.7190 0.5822 0.8781
H57_45 H 0.6911 0.5685 0.8943
H58_45 H 0.7014 0.5557 0.8634
N4_45 N 0.7268(7) 0.5435(8) 0.8967(6)
H59_45 H 0.7157 0.5278 0.9021
H60_45 H 0.7335 0.5520 0.9134
C71_45 C 0.7516(9) 0.5330(10) 0.8802(9)
H61_45 H 0.7452 0.5266 0.8608
H62_45 H 0.7607 0.5165 0.8906
H63_45 H 0.7660 0.5489 0.8781
C70_46 C 0.3820(11) 0.5420(14) 0.1859(16)
H56_46 H 0.3781 0.5310 0.1678
H57_46 H 0.3943 0.5589 0.1815
H58_46 H 0.3634 0.5486 0.1943
N4_46 N 0.3967(6) 0.5232(7) 0.2065(8)
H59_46 H 0.4021 0.5343 0.2222
H60_46 H 0.4134 0.5165 0.1980
C71_46 C 0.3802(9) 0.4984(9) 0.2170(10)
H61_46 H 0.3608 0.5048 0.2234
H62_46 H 0.3906 0.4893 0.2335
H63_46 H 0.3781 0.4840 0.2011
C70_47 C 0.8680(11) 0.5420(14) 0.0641(16)
H56_47 H 0.8719 0.5310 0.0822
H57_47 H 0.8557 0.5589 0.0685
H58_47 H 0.8866 0.5486 0.0557
N4_47 N 0.8533(6) 0.5232(7) 0.0435(8)
H59_47 H 0.8479 0.5343 0.0278
H60_47 H 0.8366 0.5165 0.0520
C71_47 C 0.8698(9) 0.4984(9) 0.0330(10)
H61_47 H 0.8892 0.5048 0.0266
H62_47 H 0.8594 0.4893 0.0165
H63_47 H 0.8719 0.4840 0.0489
C70_48 C 0.3820(11) 0.7080(14) 0.0641(16)
H56_48 H 0.3781 0.7190 0.0822
H57_48 H 0.3943 0.6911 0.0685
H58_48 H 0.3634 0.7014 0.0557
N4_48 N 0.3967(6) 0.7268(7) 0.0435(8)
H59_48 H 0.4021 0.7157 0.0278
H60_48 H 0.4134 0.7335 0.0520
C71_48 C 0.3802(9) 0.7516(9) 0.0330(10)
H61_48 H 0.3608 0.7452 0.0266
H62_48 H 0.3906 0.7607 0.0165
H63_48 H 0.3781 0.7660 0.0489
C70_49 C 0.6320(11) 0.7920(14) 0.8141(16)
H56_49 H 0.6281 0.7810 0.8322
H57_49 H 0.6443 0.8089 0.8185
H58_49 H 0.6134 0.7986 0.8057
N4_49 N 0.6467(6) 0.7732(7) 0.7935(8)
H59_49 H 0.6521 0.7843 0.7778
H60_49 H 0.6634 0.7665 0.8020
C71_49 C 0.6302(9) 0.7484(9) 0.7830(10)
H61_49 H 0.6108 0.7548 0.7766
H62_49 H 0.6406 0.7393 0.7665
H63_49 H 0.6281 0.7340 0.7989
C70_50 C 0.8141(16) 0.6320(11) 0.7920(14)
H56_50 H 0.8322 0.6281 0.7810
H57_50 H 0.8185 0.6443 0.8089
H58_50 H 0.8057 0.6134 0.7986
N4_50 N 0.7935(8) 0.6467(6) 0.7732(7)
H59_50 H 0.7778 0.6521 0.7843
H60_50 H 0.8020 0.6634 0.7665
C71_50 C 0.7830(10) 0.6302(9) 0.7484(9)
H61_50 H 0.7766 0.6108 0.7548
H62_50 H 0.7665 0.6406 0.7393
H63_50 H 0.7989 0.6281 0.7340
C70_51 C 0.7920(14) 0.8141(16) 0.6320(11)
H56_51 H 0.7810 0.8322 0.6281
H57_51 H 0.8089 0.8185 0.6443
H58_51 H 0.7986 0.8057 0.6134
N4_51 N 0.7732(7) 0.7935(8) 0.6467(6)
H59_51 H 0.7843 0.7778 0.6521
H60_51 H 0.7665 0.8020 0.6634
C71_51 C 0.7484(9) 0.7830(10) 0.6302(9)
H61_51 H 0.7548 0.7766 0.6108
H62_51 H 0.7393 0.7665 0.6406
H63_51 H 0.7340 0.7989 0.6281
C71_52 C 0.0016(9) 0.9670(10) 0.6302(9)
H62_52 H 0.0107 0.9835 0.6406
H63_52 H 0.0160 0.9511 0.6281
C70_52 C 0.9580(14) 0.9359(16) 0.6320(11)
H56_52 H 0.9690 0.9178 0.6281
H57_52 H 0.9411 0.9315 0.6443
H58_52 H 0.9514 0.9443 0.6134
N4_52 N 0.9768(7) 0.9565(8) 0.6467(6)
H59_52 H 0.9657 0.9722 0.6521
H60_52 H 0.9835 0.9480 0.6634
H61_52 H 0.9952 0.9734 0.6108
C71_53 C 0.7830(10) 0.1198(9) 0.0016(9)
H62_53 H 0.7665 0.1094 0.0107
H63_53 H 0.7989 0.1219 0.0160
C70_53 C 0.8141(16) 0.1180(11) 0.9580(14)
H56_53 H 0.8322 0.1219 0.9690
H57_53 H 0.8185 0.1057 0.9411
H58_53 H 0.8057 0.1366 0.9514
N4_53 N 0.7935(8) 0.1033(6) 0.9768(7)
H59_53 H 0.7778 0.0979 0.9657
H60_53 H 0.8020 0.0866 0.9835
H61_53 H 0.7766 0.1392 0.9952
C71_54 C 0.0016(9) 0.7830(10) 0.1198(9)
H62_54 H 0.0107 0.7665 0.1094
H63_54 H 0.0160 0.7989 0.1219
C70_54 C 0.9580(14) 0.8141(16) 0.1180(11)
H56_54 H 0.9690 0.8322 0.1219
H57_54 H 0.9411 0.8185 0.1057
H58_54 H 0.9514 0.8057 0.1366
N4_54 N 0.9768(7) 0.7935(8) 0.1033(6)
H59_54 H 0.9657 0.7778 0.0979
H60_54 H 0.9835 0.8020 0.0866
H61_54 H 0.9952 0.7766 0.1392
C70_55 C 0.9359(16) 0.1180(11) 0.7920(14)
H56_55 H 0.9178 0.1219 0.7810
H57_55 H 0.9315 0.1057 0.8089
H58_55 H 0.9443 0.1366 0.7986
N4_55 N 0.9565(8) 0.1033(6) 0.7732(7)
H59_55 H 0.9722 0.0979 0.7843
H60_55 H 0.9480 0.0866 0.7665
C71_55 C 0.9670(10) 0.1198(9) 0.7484(9)
H61_55 H 0.9734 0.1392 0.7548
H62_55 H 0.9835 0.1094 0.7393
H63_55 H 0.9511 0.1219 0.7340
C71_56 C 0.9670(10) 0.6302(9) 0.0016(9)
H62_56 H 0.9835 0.6406 0.0107
H63_56 H 0.9511 0.6281 0.0160
C70_56 C 0.9359(16) 0.6320(11) 0.9580(14)
H56_56 H 0.9178 0.6281 0.9690
H57_56 H 0.9315 0.6443 0.9411
H58_56 H 0.9443 0.6134 0.9514
N4_56 N 0.9565(8) 0.6467(6) 0.9768(7)
H59_56 H 0.9722 0.6521 0.9657
H60_56 H 0.9480 0.6634 0.9835
H61_56 H 0.9734 0.6108 0.9952
C70_57 C 0.7920(14) 0.9359(16) 0.1180(11)
H56_57 H 0.7810 0.9178 0.1219
H57_57 H 0.8089 0.9315 0.1057
H58_57 H 0.7986 0.9443 0.1366
N4_57 N 0.7732(7) 0.9565(8) 0.1033(6)
H59_57 H 0.7843 0.9722 0.0979
H60_57 H 0.7665 0.9480 0.0866
C71_57 C 0.7484(9) 0.9670(10) 0.1198(9)
H61_57 H 0.7548 0.9734 0.1392
H62_57 H 0.7393 0.9835 0.1094
H63_57 H 0.7340 0.9511 0.1219
C71_58 C 0.1198(9) 0.0016(9) 0.7830(10)
H62_58 H 0.1094 0.0107 0.7665
H63_58 H 0.1219 0.0160 0.7989
C70_58 C 0.1180(11) 0.9580(14) 0.8141(16)
H56_58 H 0.1219 0.9690 0.8322
H57_58 H 0.1057 0.9411 0.8185
H58_58 H 0.1366 0.9514 0.8057
N4_58 N 0.1033(6) 0.9768(7) 0.7935(8)
H59_58 H 0.0979 0.9657 0.7778
H60_58 H 0.0866 0.9835 0.8020
H61_58 H 0.1392 0.9952 0.7766
C71_59 C 0.6302(9) 0.0016(9) 0.9670(10)
H62_59 H 0.6406 0.0107 0.9835
H63_59 H 0.6281 0.0160 0.9511
C70_59 C 0.6320(11) 0.9580(14) 0.9359(16)
H56_59 H 0.6281 0.9690 0.9178
H57_59 H 0.6443 0.9411 0.9315
H58_59 H 0.6134 0.9514 0.9443
N4_59 N 0.6467(6) 0.9768(7) 0.9565(8)
H59_59 H 0.6521 0.9657 0.9722
H60_59 H 0.6634 0.9835 0.9480
H61_59 H 0.6108 0.9952 0.9734
C70_60 C 0.1180(11) 0.7920(14) 0.9359(16)
H56_60 H 0.1219 0.7810 0.9178
H57_60 H 0.1057 0.8089 0.9315
H58_60 H 0.1366 0.7986 0.9443
N4_60 N 0.1033(6) 0.7732(7) 0.9565(8)
H59_60 H 0.0979 0.7843 0.9722
H60_60 H 0.0866 0.7665 0.9480
C71_60 C 0.1198(9) 0.7484(9) 0.9670(10)
H61_60 H 0.1392 0.7548 0.9734
H62_60 H 0.1094 0.7393 0.9835
H63_60 H 0.1219 0.7340 0.9511
C70_61 C 0.6320(11) 0.2920(14) 0.3141(16)
H56_61 H 0.6281 0.2810 0.3322
H57_61 H 0.6443 0.3089 0.3185
H58_61 H 0.6134 0.2986 0.3057
N4_61 N 0.6467(6) 0.2732(7) 0.2935(8)
H59_61 H 0.6521 0.2843 0.2778
H60_61 H 0.6634 0.2665 0.3020
C71_61 C 0.6302(9) 0.2484(9) 0.2830(10)
H61_61 H 0.6108 0.2548 0.2766
H62_61 H 0.6406 0.2393 0.2665
H63_61 H 0.6281 0.2340 0.2989
C70_62 C 0.8141(16) 0.1320(11) 0.2920(14)
H56_62 H 0.8322 0.1281 0.2810
H57_62 H 0.8185 0.1443 0.3089
H58_62 H 0.8057 0.1134 0.2986
N4_62 N 0.7935(8) 0.1467(6) 0.2732(7)
H59_62 H 0.7778 0.1521 0.2843
H60_62 H 0.8020 0.1634 0.2665
C71_62 C 0.7830(10) 0.1302(9) 0.2484(9)
H61_62 H 0.7766 0.1108 0.2548
H62_62 H 0.7665 0.1406 0.2393
H63_62 H 0.7989 0.1281 0.2340
C70_63 C 0.7920(14) 0.3141(16) 0.1320(11)
H56_63 H 0.7810 0.3322 0.1281
H57_63 H 0.8089 0.3185 0.1443
H58_63 H 0.7986 0.3057 0.1134
N4_63 N 0.7732(7) 0.2935(8) 0.1467(6)
H59_63 H 0.7843 0.2778 0.1521
H60_63 H 0.7665 0.3020 0.1634
C71_63 C 0.7484(9) 0.2830(10) 0.1302(9)
H61_63 H 0.7548 0.2766 0.1108
H62_63 H 0.7393 0.2665 0.1406
H63_63 H 0.7340 0.2989 0.1281
C71_64 C 0.0016(9) 0.4670(10) 0.1302(9)
H62_64 H 0.0107 0.4835 0.1406
H63_64 H 0.0160 0.4511 0.1281
C70_64 C 0.9580(14) 0.4359(16) 0.1320(11)
H56_64 H 0.9690 0.4178 0.1281
H57_64 H 0.9411 0.4315 0.1443
H58_64 H 0.9514 0.4443 0.1134
N4_64 N 0.9768(7) 0.4565(8) 0.1467(6)
H59_64 H 0.9657 0.4722 0.1521
H60_64 H 0.9835 0.4480 0.1634
H61_64 H 0.9952 0.4734 0.1108
C70_65 C 0.8141(16) 0.6180(11) 0.4580(14)
H56_65 H 0.8322 0.6219 0.4690
H57_65 H 0.8185 0.6057 0.4411
H58_65 H 0.8057 0.6366 0.4514
N4_65 N 0.7935(8) 0.6033(6) 0.4768(7)
H59_65 H 0.7778 0.5979 0.4657
H60_65 H 0.8020 0.5866 0.4835
C71_65 C 0.7830(10) 0.6198(9) 0.5016(9)
H61_65 H 0.7766 0.6392 0.4952
H62_65 H 0.7665 0.6094 0.5107
H63_65 H 0.7989 0.6219 0.5160
C71_66 C 0.0016(9) 0.2830(10) 0.6198(9)
H62_66 H 0.0107 0.2665 0.6094
H63_66 H 0.0160 0.2989 0.6219
C70_66 C 0.9580(14) 0.3141(16) 0.6180(11)
H56_66 H 0.9690 0.3322 0.6219
H57_66 H 0.9411 0.3185 0.6057
H58_66 H 0.9514 0.3057 0.6366
N4_66 N 0.9768(7) 0.2935(8) 0.6033(6)
H59_66 H 0.9657 0.2778 0.5979
H60_66 H 0.9835 0.3020 0.5866
H61_66 H 0.9952 0.2766 0.6392
C70_67 C 0.9359(16) 0.6180(11) 0.2920(14)
H56_67 H 0.9178 0.6219 0.2810
H57_67 H 0.9315 0.6057 0.3089
H58_67 H 0.9443 0.6366 0.2986
N4_67 N 0.9565(8) 0.6033(6) 0.2732(7)
H59_67 H 0.9722 0.5979 0.2843
H60_67 H 0.9480 0.5866 0.2665
C71_67 C 0.9670(10) 0.6198(9) 0.2484(9)
H61_67 H 0.9734 0.6392 0.2548
H62_67 H 0.9835 0.6094 0.2393
H63_67 H 0.9511 0.6219 0.2340
C70_68 C 0.9359(16) 0.1320(11) 0.4580(14)
H56_68 H 0.9178 0.1281 0.4690
H57_68 H 0.9315 0.1443 0.4411
H58_68 H 0.9443 0.1134 0.4514
N4_68 N 0.9565(8) 0.1467(6) 0.4768(7)
H59_68 H 0.9722 0.1521 0.4657
H60_68 H 0.9480 0.1634 0.4835
C71_68 C 0.9670(10) 0.1302(9) 0.5016(9)
H61_68 H 0.9734 0.1108 0.4952
H62_68 H 0.9835 0.1406 0.5107
H63_68 H 0.9511 0.1281 0.5160
C70_69 C 0.7920(14) 0.4359(16) 0.6180(11)
H56_69 H 0.7810 0.4178 0.6219
H57_69 H 0.8089 0.4315 0.6057
H58_69 H 0.7986 0.4443 0.6366
N4_69 N 0.7732(7) 0.4565(8) 0.6033(6)
H59_69 H 0.7843 0.4722 0.5979
H60_69 H 0.7665 0.4480 0.5866
C71_69 C 0.7484(9) 0.4670(10) 0.6198(9)
H61_69 H 0.7548 0.4734 0.6392
H62_69 H 0.7393 0.4835 0.6094
H63_69 H 0.7340 0.4511 0.6219
C70_70 C 0.1180(11) 0.4580(14) 0.3141(16)
H56_70 H 0.1219 0.4690 0.3322
H57_70 H 0.1057 0.4411 0.3185
H58_70 H 0.1366 0.4514 0.3057
N4_70 N 0.1033(6) 0.4768(7) 0.2935(8)
H59_70 H 0.0979 0.4657 0.2778
H60_70 H 0.0866 0.4835 0.3020
C71_70 C 0.1198(9) 0.5016(9) 0.2830(10)
H61_70 H 0.1392 0.4952 0.2766
H62_70 H 0.1094 0.5107 0.2665
H63_70 H 0.1219 0.5160 0.2989
C70_71 C 0.6320(11) 0.4580(14) 0.4359(16)
H56_71 H 0.6281 0.4690 0.4178
H57_71 H 0.6443 0.4411 0.4315
H58_71 H 0.6134 0.4514 0.4443
N4_71 N 0.6467(6) 0.4768(7) 0.4565(8)
H59_71 H 0.6521 0.4657 0.4722
H60_71 H 0.6634 0.4835 0.4480
C71_71 C 0.6302(9) 0.5016(9) 0.4670(10)
H61_71 H 0.6108 0.4952 0.4734
H62_71 H 0.6406 0.5107 0.4835
H63_71 H 0.6281 0.5160 0.4511
C70_72 C 0.1180(11) 0.2920(14) 0.4359(16)
H56_72 H 0.1219 0.2810 0.4178
H57_72 H 0.1057 0.3089 0.4315
H58_72 H 0.1366 0.2986 0.4443
N4_72 N 0.1033(6) 0.2732(7) 0.4565(8)
H59_72 H 0.0979 0.2843 0.4722
H60_72 H 0.0866 0.2665 0.4480
C71_72 C 0.1198(9) 0.2484(9) 0.4670(10)
H61_72 H 0.1392 0.2548 0.4734
H62_72 H 0.1094 0.2393 0.4835
H63_72 H 0.1219 0.2340 0.4511
C70_73 C 0.1320(11) 0.7920(14) 0.3141(16)
H56_73 H 0.1281 0.7810 0.3322
H57_73 H 0.1443 0.8089 0.3185
H58_73 H 0.1134 0.7986 0.3057
N4_73 N 0.1467(6) 0.7732(7) 0.2935(8)
H59_73 H 0.1521 0.7843 0.2778
H60_73 H 0.1634 0.7665 0.3020
C71_73 C 0.1302(9) 0.7484(9) 0.2830(10)
H61_73 H 0.1108 0.7548 0.2766
H62_73 H 0.1406 0.7393 0.2665
H63_73 H 0.1281 0.7340 0.2989
C70_74 C 0.3141(16) 0.6320(11) 0.2920(14)
H56_74 H 0.3322 0.6281 0.2810
H57_74 H 0.3185 0.6443 0.3089
H58_74 H 0.3057 0.6134 0.2986
N4_74 N 0.2935(8) 0.6467(6) 0.2732(7)
H59_74 H 0.2778 0.6521 0.2843
H60_74 H 0.3020 0.6634 0.2665
C71_74 C 0.2830(10) 0.6302(9) 0.2484(9)
H61_74 H 0.2766 0.6108 0.2548
H62_74 H 0.2665 0.6406 0.2393
H63_74 H 0.2989 0.6281 0.2340
C70_75 C 0.2920(14) 0.8141(16) 0.1320(11)
H56_75 H 0.2810 0.8322 0.1281
H57_75 H 0.3089 0.8185 0.1443
H58_75 H 0.2986 0.8057 0.1134
N4_75 N 0.2732(7) 0.7935(8) 0.1467(6)
H59_75 H 0.2843 0.7778 0.1521
H60_75 H 0.2665 0.8020 0.1634
C71_75 C 0.2484(9) 0.7830(10) 0.1302(9)
H61_75 H 0.2548 0.7766 0.1108
H62_75 H 0.2393 0.7665 0.1406
H63_75 H 0.2340 0.7989 0.1281
C70_76 C 0.4580(14) 0.9359(16) 0.1320(11)
H56_76 H 0.4690 0.9178 0.1281
H57_76 H 0.4411 0.9315 0.1443
H58_76 H 0.4514 0.9443 0.1134
N4_76 N 0.4768(7) 0.9565(8) 0.1467(6)
H59_76 H 0.4657 0.9722 0.1521
H60_76 H 0.4835 0.9480 0.1634
C71_76 C 0.5016(9) 0.9670(10) 0.1302(9)
H61_76 H 0.4952 0.9734 0.1108
H62_76 H 0.5107 0.9835 0.1406
H63_76 H 0.5160 0.9511 0.1281
C70_77 C 0.3141(16) 0.1180(11) 0.4580(14)
H56_77 H 0.3322 0.1219 0.4690
H57_77 H 0.3185 0.1057 0.4411
H58_77 H 0.3057 0.1366 0.4514
N4_77 N 0.2935(8) 0.1033(6) 0.4768(7)
H59_77 H 0.2778 0.0979 0.4657
H60_77 H 0.3020 0.0866 0.4835
C71_77 C 0.2830(10) 0.1198(9) 0.5016(9)
H61_77 H 0.2766 0.1392 0.4952
H62_77 H 0.2665 0.1094 0.5107
H63_77 H 0.2989 0.1219 0.5160
C70_78 C 0.4580(14) 0.8141(16) 0.6180(11)
H56_78 H 0.4690 0.8322 0.6219
H57_78 H 0.4411 0.8185 0.6057
H58_78 H 0.4514 0.8057 0.6366
N4_78 N 0.4768(7) 0.7935(8) 0.6033(6)
H59_78 H 0.4657 0.7778 0.5979
H60_78 H 0.4835 0.8020 0.5866
C71_78 C 0.5016(9) 0.7830(10) 0.6198(9)
H61_78 H 0.4952 0.7766 0.6392
H62_78 H 0.5107 0.7665 0.6094
H63_78 H 0.5160 0.7989 0.6219
C70_79 C 0.4359(16) 0.1180(11) 0.2920(14)
H56_79 H 0.4178 0.1219 0.2810
H57_79 H 0.4315 0.1057 0.3089
H58_79 H 0.4443 0.1366 0.2986
N4_79 N 0.4565(8) 0.1033(6) 0.2732(7)
H59_79 H 0.4722 0.0979 0.2843
H60_79 H 0.4480 0.0866 0.2665
C71_79 C 0.4670(10) 0.1198(9) 0.2484(9)
H61_79 H 0.4734 0.1392 0.2548
H62_79 H 0.4835 0.1094 0.2393
H63_79 H 0.4511 0.1219 0.2340
C70_80 C 0.4359(16) 0.6320(11) 0.4580(14)
H56_80 H 0.4178 0.6281 0.4690
H57_80 H 0.4315 0.6443 0.4411
H58_80 H 0.4443 0.6134 0.4514
N4_80 N 0.4565(8) 0.6467(6) 0.4768(7)
H59_80 H 0.4722 0.6521 0.4657
H60_80 H 0.4480 0.6634 0.4835
C71_80 C 0.4670(10) 0.6302(9) 0.5016(9)
H61_80 H 0.4734 0.6108 0.4952
H62_80 H 0.4835 0.6406 0.5107
H63_80 H 0.4511 0.6281 0.5160
C70_81 C 0.2920(14) 0.9359(16) 0.6180(11)
H56_81 H 0.2810 0.9178 0.6219
H57_81 H 0.3089 0.9315 0.6057
H58_81 H 0.2986 0.9443 0.6366
N4_81 N 0.2732(7) 0.9565(8) 0.6033(6)
H59_81 H 0.2843 0.9722 0.5979
H60_81 H 0.2665 0.9480 0.5866
C71_81 C 0.2484(9) 0.9670(10) 0.6198(9)
H61_81 H 0.2548 0.9734 0.6392
H62_81 H 0.2393 0.9835 0.6094
H63_81 H 0.2340 0.9511 0.6219
C71_82 C 0.6198(9) 0.0016(9) 0.2830(10)
H62_82 H 0.6094 0.0107 0.2665
H63_82 H 0.6219 0.0160 0.2989
C70_82 C 0.6180(11) 0.9580(14) 0.3141(16)
H56_82 H 0.6219 0.9690 0.3322
H57_82 H 0.6057 0.9411 0.3185
H58_82 H 0.6366 0.9514 0.3057
N4_82 N 0.6033(6) 0.9768(7) 0.2935(8)
H59_82 H 0.5979 0.9657 0.2778
H60_82 H 0.5866 0.9835 0.3020
H61_82 H 0.6392 0.9952 0.2766
C71_83 C 0.1302(9) 0.0016(9) 0.4670(10)
H62_83 H 0.1406 0.0107 0.4835
H63_83 H 0.1281 0.0160 0.4511
C70_83 C 0.1320(11) 0.9580(14) 0.4359(16)
H56_83 H 0.1281 0.9690 0.4178
H57_83 H 0.1443 0.9411 0.4315
H58_83 H 0.1134 0.9514 0.4443
N4_83 N 0.1467(6) 0.9768(7) 0.4565(8)
H59_83 H 0.1521 0.9657 0.4722
H60_83 H 0.1634 0.9835 0.4480
H61_83 H 0.1108 0.9952 0.4734
C70_84 C 0.6180(11) 0.7920(14) 0.4359(16)
H56_84 H 0.6219 0.7810 0.4178
H57_84 H 0.6057 0.8089 0.4315
H58_84 H 0.6366 0.7986 0.4443
N4_84 N 0.6033(6) 0.7732(7) 0.4565(8)
H59_84 H 0.5979 0.7843 0.4722
H60_84 H 0.5866 0.7665 0.4480
C71_84 C 0.6198(9) 0.7484(9) 0.4670(10)
H61_84 H 0.6392 0.7548 0.4734
H62_84 H 0.6094 0.7393 0.4835
H63_84 H 0.6219 0.7340 0.4511
C70_85 C 0.1320(11) 0.2920(14) 0.8141(16)
H56_85 H 0.1281 0.2810 0.8322
H57_85 H 0.1443 0.3089 0.8185
H58_85 H 0.1134 0.2986 0.8057
N4_85 N 0.1467(6) 0.2732(7) 0.7935(8)
H59_85 H 0.1521 0.2843 0.7778
H60_85 H 0.1634 0.2665 0.8020
C71_85 C 0.1302(9) 0.2484(9) 0.7830(10)
H61_85 H 0.1108 0.2548 0.7766
H62_85 H 0.1406 0.2393 0.7665
H63_85 H 0.1281 0.2340 0.7989
C70_86 C 0.3141(16) 0.1320(11) 0.7920(14)
H56_86 H 0.3322 0.1281 0.7810
H57_86 H 0.3185 0.1443 0.8089
H58_86 H 0.3057 0.1134 0.7986
N4_86 N 0.2935(8) 0.1467(6) 0.7732(7)
H59_86 H 0.2778 0.1521 0.7843
H60_86 H 0.3020 0.1634 0.7665
C71_86 C 0.2830(10) 0.1302(9) 0.7484(9)
H61_86 H 0.2766 0.1108 0.7548
H62_86 H 0.2665 0.1406 0.7393
H63_86 H 0.2989 0.1281 0.7340
C70_87 C 0.2920(14) 0.3141(16) 0.6320(11)
H56_87 H 0.2810 0.3322 0.6281
H57_87 H 0.3089 0.3185 0.6443
H58_87 H 0.2986 0.3057 0.6134
N4_87 N 0.2732(7) 0.2935(8) 0.6467(6)
H59_87 H 0.2843 0.2778 0.6521
H60_87 H 0.2665 0.3020 0.6634
C71_87 C 0.2484(9) 0.2830(10) 0.6302(9)
H61_87 H 0.2548 0.2766 0.6108
H62_87 H 0.2393 0.2665 0.6406
H63_87 H 0.2340 0.2989 0.6281
C70_88 C 0.4580(14) 0.4359(16) 0.6320(11)
H56_88 H 0.4690 0.4178 0.6281
H57_88 H 0.4411 0.4315 0.6443
H58_88 H 0.4514 0.4443 0.6134
N4_88 N 0.4768(7) 0.4565(8) 0.6467(6)
H59_88 H 0.4657 0.4722 0.6521
H60_88 H 0.4835 0.4480 0.6634
C71_88 C 0.5016(9) 0.4670(10) 0.6302(9)
H61_88 H 0.4952 0.4734 0.6108
H62_88 H 0.5107 0.4835 0.6406
H63_88 H 0.5160 0.4511 0.6281
C71_89 C 0.2830(10) 0.6198(9) 0.0016(9)
H62_89 H 0.2665 0.6094 0.0107
H63_89 H 0.2989 0.6219 0.0160
C70_89 C 0.3141(16) 0.6180(11) 0.9580(14)
H56_89 H 0.3322 0.6219 0.9690
H57_89 H 0.3185 0.6057 0.9411
H58_89 H 0.3057 0.6366 0.9514
N4_89 N 0.2935(8) 0.6033(6) 0.9768(7)
H59_89 H 0.2778 0.5979 0.9657
H60_89 H 0.3020 0.5866 0.9835
H61_89 H 0.2766 0.6392 0.9952
C70_90 C 0.4580(14) 0.3141(16) 0.1180(11)
H56_90 H 0.4690 0.3322 0.1219
H57_90 H 0.4411 0.3185 0.1057
H58_90 H 0.4514 0.3057 0.1366
N4_90 N 0.4768(7) 0.2935(8) 0.1033(6)
H59_90 H 0.4657 0.2778 0.0979
H60_90 H 0.4835 0.3020 0.0866
C71_90 C 0.5016(9) 0.2830(10) 0.1198(9)
H61_90 H 0.4952 0.2766 0.1392
H62_90 H 0.5107 0.2665 0.1094
H63_90 H 0.5160 0.2989 0.1219
C70_91 C 0.4359(16) 0.6180(11) 0.7920(14)
H56_91 H 0.4178 0.6219 0.7810
H57_91 H 0.4315 0.6057 0.8089
H58_91 H 0.4443 0.6366 0.7986
N4_91 N 0.4565(8) 0.6033(6) 0.7732(7)
H59_91 H 0.4722 0.5979 0.7843
H60_91 H 0.4480 0.5866 0.7665
C71_91 C 0.4670(10) 0.6198(9) 0.7484(9)
H61_91 H 0.4734 0.6392 0.7548
H62_91 H 0.4835 0.6094 0.7393
H63_91 H 0.4511 0.6219 0.7340
C71_92 C 0.4670(10) 0.1302(9) 0.0016(9)
H62_92 H 0.4835 0.1406 0.0107
H63_92 H 0.4511 0.1281 0.0160
C70_92 C 0.4359(16) 0.1320(11) 0.9580(14)
H56_92 H 0.4178 0.1281 0.9690
H57_92 H 0.4315 0.1443 0.9411
H58_92 H 0.4443 0.1134 0.9514
N4_92 N 0.4565(8) 0.1467(6) 0.9768(7)
H59_92 H 0.4722 0.1521 0.9657
H60_92 H 0.4480 0.1634 0.9835
H61_92 H 0.4734 0.1108 0.9952
C70_93 C 0.2920(14) 0.4359(16) 0.1180(11)
H56_93 H 0.2810 0.4178 0.1219
H57_93 H 0.3089 0.4315 0.1057
H58_93 H 0.2986 0.4443 0.1366
N4_93 N 0.2732(7) 0.4565(8) 0.1033(6)
H59_93 H 0.2843 0.4722 0.0979
H60_93 H 0.2665 0.4480 0.0866
C71_93 C 0.2484(9) 0.4670(10) 0.1198(9)
H61_93 H 0.2548 0.4734 0.1392
H62_93 H 0.2393 0.4835 0.1094
H63_93 H 0.2340 0.4511 0.1219
C70_94 C 0.6180(11) 0.4580(14) 0.8141(16)
H56_94 H 0.6219 0.4690 0.8322
H57_94 H 0.6057 0.4411 0.8185
H58_94 H 0.6366 0.4514 0.8057
N4_94 N 0.6033(6) 0.4768(7) 0.7935(8)
H59_94 H 0.5979 0.4657 0.7778
H60_94 H 0.5866 0.4835 0.8020
C71_94 C 0.6198(9) 0.5016(9) 0.7830(10)
H61_94 H 0.6392 0.4952 0.7766
H62_94 H 0.6094 0.5107 0.7665
H63_94 H 0.6219 0.5160 0.7989
C70_95 C 0.1320(11) 0.4580(14) 0.9359(16)
H56_95 H 0.1281 0.4690 0.9178
H57_95 H 0.1443 0.4411 0.9315
H58_95 H 0.1134 0.4514 0.9443
N4_95 N 0.1467(6) 0.4768(7) 0.9565(8)
H59_95 H 0.1521 0.4657 0.9722
H60_95 H 0.1634 0.4835 0.9480
C71_95 C 0.1302(9) 0.5016(9) 0.9670(10)
H61_95 H 0.1108 0.4952 0.9734
H62_95 H 0.1406 0.5107 0.9835
H63_95 H 0.1281 0.5160 0.9511
C70_96 C 0.6180(11) 0.2920(14) 0.9359(16)
H56_96 H 0.6219 0.2810 0.9178
H57_96 H 0.6057 0.3089 0.9315
H58_96 H 0.6366 0.2986 0.9443
N4_96 N 0.6033(6) 0.2732(7) 0.9565(8)
H59_96 H 0.5979 0.2843 0.9722
H60_96 H 0.5866 0.2665 0.9480
C71_96 C 0.6198(9) 0.2484(9) 0.9670(10)
H61_96 H 0.6392 0.2548 0.9734
H62_96 H 0.6094 0.2393 0.9835
H63_96 H 0.6219 0.2340 0.9511
loop_
_geom_bond_atom_site_label_1
_geom_bond_atom_site_label_2
_geom_bond_site_symmetry_1
_geom_bond_site_symmetry_2
Tb1 O1 1_555 1_555
O1 H1 1_555 1_555
O2 Tb1 1_555 1_555
H2 O2 1_555 1_555
O3 Tb1 1_555 1_555
O4 C1 1_555 1_555
C1 O3 1_555 1_555
C2 C1 1_555 1_555
C3 C2 1_555 1_555
H3 C3 1_555 1_555
C4 C3 1_555 1_555
C5 C4 1_555 1_555
S1 C2 1_555 1_555
O5 Tb1 1_555 1_555
O6 C6 1_555 1_555
C6 O5 1_555 1_555
C7 C6 1_555 1_555
C8 C7 1_555 1_555
H4 C8 1_555 1_555
C9 C8 1_555 1_555
H5 C9 1_555 1_555
C10 C9 1_555 1_555
C11 C10 1_555 1_555
H6 C11 1_555 1_555
C12 C7 1_555 1_555
H7 C12 1_555 1_555
C13 C10 1_555 1_555
C14 C13 1_555 1_555
H8 C14 1_555 1_555
C15 C14 1_555 1_555
H9 C15 1_555 1_555
C16 C15 1_555 1_555
C17 C16 1_555 1_555
H10 C17 1_555 1_555
C18 C13 1_555 1_555
H11 C18 1_555 1_555
C19 C16 1_555 1_555
C20 C19 1_555 1_555
H12 C20 1_555 1_555
O7 Tb1 1_555 1_555
C21 O7 1_555 1_555
H13 C21 1_555 1_555
N1 C21 1_555 1_555
C22 N1 1_555 1_555
H14 C22 1_555 1_555
H15 C22 1_555 1_555
H16 C22 1_555 1_555
C23 N1 1_555 1_555
H17 C23 1_555 1_555
H18 C23 1_555 1_555
H19 C23 1_555 1_555
O8 C24 1_555 1_555
O9 C24 1_555 1_555
C24 C25 1_555 1_555
C25 C26 1_555 1_555
C26 H20 1_555 1_555
C27 C5 1_555 1_555
C28 C27 1_555 1_555
S2 C25 1_555 1_555
O10 C29 1_555 1_555
O11 C29 1_555 1_555
C29 C30 1_555 1_555
C30 C31 1_555 1_555
C31 H21 1_555 1_555
C32 C28 1_555 1_555
C33 C4 1_555 1_555
S3 C30 1_555 1_555
O13 C34 1_555 1_555
C34 C35 1_555 1_555
C39 C38 1_555 1_555
H24 C39 1_555 1_555
C40 C35 1_555 1_555
H25 C40 1_555 1_555
C41 C38 1_555 1_555
C45 C44 1_555 1_555
H28 C45 1_555 1_555
C46 C41 1_555 1_555
H29 C46 1_555 1_555
C47 C20 1_555 1_555
C48 C47 1_555 1_555
C62 C48 1_555 1_555
C63 C19 1_555 1_555
H39 C63 1_555 1_555
Tb2 O8 1_555 1_555
O16 Tb2 1_555 1_555
H40 O16 1_555 1_555
O17 Tb2 1_555 1_555
C64 O17 1_555 1_555
H41 C64 1_555 1_555
N2 C64 1_555 1_555
C65 N2 1_555 1_555
H42 C65 1_555 1_555
H43 C65 1_555 1_555
H44 C65 1_555 1_555
C66 N2 1_555 1_555
H45 C66 1_555 1_555
H46 C66 1_555 1_555
H47 C66 1_555 1_555
Tb3 O10 1_555 1_555
O18 Tb3 1_555 1_555
H48 O18 1_555 1_555
O19 Tb3 1_555 1_555
C67 O19 1_555 1_555
H49 C67 1_555 1_555
N3 C67 1_555 1_555
C68 N3 1_555 1_555
H50 C68 1_555 1_555
H51 C68 1_555 1_555
H52 C68 1_555 1_555
C69 N3 1_555 1_555
H53 C69 1_555 1_555
H54 C69 1_555 1_555
H55 C69 1_555 1_555
Tb6 O9 1_555 1_555
Tb7 O1 1_555 1_555
Tb8 O11 1_555 1_555
Tb9 O1 1_555 1_555
Tb11 O13 1_555 1_555
Tb12 O16 1_555 1_555
Tb13 O18 1_555 1_555
Tb14 O2 1_555 1_555
O20 Tb2 1_555 1_555
O21 Tb3 1_555 1_555
O22 Tb3 1_555 1_555
O23 Tb1 1_555 1_555
O24 Tb2 1_555 1_555
O25 Tb3 1_555 1_555
O26 Tb1 1_555 1_555
O27 Tb2 1_555 1_555
O28 Tb3 1_555 1_555
O29 Tb1 1_555 1_555
O30 Tb2 1_555 1_555
O31 Tb2 1_555 1_555
O32 Tb3 1_555 1_555
O33 Tb3 1_555 1_555
O34 Tb1 1_555 1_555
O35 Tb2 1_555 1_555
O2 Tb9 1_555 1_555
O4 Tb9 1_555 1_555
C5 S1 1_555 1_555
O6 Tb14 1_555 1_555
C11 C12 1_555 1_555
C17 C18 1_555 1_555
C26 C27 1_555 1_555
C28 S2 1_555 1_555
C31 C32 1_555 1_555
C32 C33 1_555 1_555
C33 S3 1_555 1_555
C39 C40 1_555 1_555
C44 C47 1_555 1_555
C45 C46 1_555 1_555
C62 C63 1_555 1_555
O16 Tb6 1_555 1_555
O18 Tb8 1_555 1_555
Tb6 O20 1_555 1_555
Tb7 O23 1_555 1_555
Tb8 O21 1_555 1_555
Tb12 O27 1_555 1_555
Tb13 O25 1_555 1_555
Tb14 O26 1_555 1_555
C36 H22 1_555 1_555
C37 C36 1_555 1_555
H23 C37 1_555 1_555
H26 C42 1_555 1_555
C43 C42 1_555 1_555
H27 C43 1_555 1_555
O14 C49 1_555 1_555
O15 C49 1_555 1_555
C49 C50 1_555 1_555
C50 C51 1_555 1_555
C51 H31 1_555 1_555
C52 C51 1_555 1_555
H32 C52 1_555 1_555
C53 C52 1_555 1_555
C54 C53 1_555 1_555
H33 C54 1_555 1_555
C55 C50 1_555 1_555
H34 C55 1_555 1_555
C56 C53 1_555 1_555
C57 C56 1_555 1_555
H35 C57 1_555 1_555
C58 C57 1_555 1_555
H36 C58 1_555 1_555
C59 C58 1_555 1_555
C60 C59 1_555 1_555
H37 C60 1_555 1_555
C61 C56 1_555 1_555
H38 C61 1_555 1_555
Tb4 O12 1_555 1_555
Tb5 O14 1_555 1_555
Tb10 O15 1_555 1_555
C54 C55 1_555 1_555
C60 C61 1_555 1_555
O20 H1_2 1_555 1_555
O6_2 C6_2 1_555 1_555
C6_2 O31 1_555 1_555
C7_2 C6_2 1_555 1_555
C8_2 C7_2 1_555 1_555
H4_2 C8_2 1_555 1_555
C9_2 C8_2 1_555 1_555
H5_2 C9_2 1_555 1_555
C10_2 C9_2 1_555 1_555
C11_2 C10_2 1_555 1_555
H6_2 C11_2 1_555 1_555
C12_2 C7_2 1_555 1_555
H7_2 C12_2 1_555 1_555
C13_2 C10_2 1_555 1_555
C14_2 C13_2 1_555 1_555
H8_2 C14_2 1_555 1_555
C15_2 C14_2 1_555 1_555
H9_2 C15_2 1_555 1_555
C16_2 C15_2 1_555 1_555
C17_2 C16_2 1_555 1_555
H10_2 C17_2 1_555 1_555
C18_2 C13_2 1_555 1_555
H11_2 C18_2 1_555 1_555
C19_2 C16_2 1_555 1_555
C20_2 C19_2 1_555 1_555
H12_2 C20_2 1_555 1_555
O13_2 C34_2 1_555 1_555
C34_2 C35_2 1_555 1_555
C39_2 C38_2 1_555 1_555
H24_2 C39_2 1_555 1_555
C40_2 C35_2 1_555 1_555
H25_2 C40_2 1_555 1_555
C41_2 C38_2 1_555 1_555
C45_2 C44_2 1_555 1_555
H28_2 C45_2 1_555 1_555
C46_2 C41_2 1_555 1_555
H29_2 C46_2 1_555 1_555
C47_2 C20_2 1_555 1_555
C48_2 C47_2 1_555 1_555
C62_2 C48_2 1_555 1_555
C63_2 C19_2 1_555 1_555
H39_2 C63_2 1_555 1_555
Tb7_2 O20 1_555 1_555
Tb11_2 O13_2 1_555 1_555
O6_2 Tb12 1_555 1_555
C11_2 C12_2 1_555 1_555
C17_2 C18_2 1_555 1_555
C39_2 C40_2 1_555 1_555
C44_2 C47_2 1_555 1_555
C45_2 C46_2 1_555 1_555
C62_2 C63_2 1_555 1_555
Tb7_2 O24 1_555 1_555
C36_2 H22_2 1_555 1_555
C37_2 C36_2 1_555 1_555
H23_2 C37_2 1_555 1_555
H26_2 C42_2 1_555 1_555
C43_2 C42_2 1_555 1_555
H27_2 C43_2 1_555 1_555
O14_2 C49_2 1_555 1_555
O15_2 C49_2 1_555 1_555
C49_2 C50_2 1_555 1_555
C50_2 C51_2 1_555 1_555
C51_2 H31_2 1_555 1_555
C52_2 C51_2 1_555 1_555
H32_2 C52_2 1_555 1_555
C53_2 C52_2 1_555 1_555
C54_2 C53_2 1_555 1_555
H33_2 C54_2 1_555 1_555
C55_2 C50_2 1_555 1_555
H34_2 C55_2 1_555 1_555
C56_2 C53_2 1_555 1_555
C57_2 C56_2 1_555 1_555
H35_2 C57_2 1_555 1_555
C58_2 C57_2 1_555 1_555
H36_2 C58_2 1_555 1_555
C59_2 C58_2 1_555 1_555
C60_2 C59_2 1_555 1_555
H37_2 C60_2 1_555 1_555
C61_2 C56_2 1_555 1_555
H38_2 C61_2 1_555 1_555
Tb4_2 O12_2 1_555 1_555
Tb5_2 O14_2 1_555 1_555
Tb10_2 O15_2 1_555 1_555
C54_2 C55_2 1_555 1_555
C60_2 C61_2 1_555 1_555
O21 H1_3 1_555 1_555
O6_3 C6_3 1_555 1_555
C6_3 O32 1_555 1_555
C7_3 C6_3 1_555 1_555
C8_3 C7_3 1_555 1_555
H4_3 C8_3 1_555 1_555
C9_3 C8_3 1_555 1_555
H5_3 C9_3 1_555 1_555
C10_3 C9_3 1_555 1_555
C11_3 C10_3 1_555 1_555
H6_3 C11_3 1_555 1_555
C12_3 C7_3 1_555 1_555
H7_3 C12_3 1_555 1_555
C13_3 C10_3 1_555 1_555
C14_3 C13_3 1_555 1_555
H8_3 C14_3 1_555 1_555
C15_3 C14_3 1_555 1_555
H9_3 C15_3 1_555 1_555
C16_3 C15_3 1_555 1_555
C17_3 C16_3 1_555 1_555
H10_3 C17_3 1_555 1_555
C18_3 C13_3 1_555 1_555
H11_3 C18_3 1_555 1_555
C19_3 C16_3 1_555 1_555
C20_3 C19_3 1_555 1_555
H12_3 C20_3 1_555 1_555
O13_3 C34_3 1_555 1_555
C34_3 C35_3 1_555 1_555
C39_3 C38_3 1_555 1_555
H24_3 C39_3 1_555 1_555
C40_3 C35_3 1_555 1_555
H25_3 C40_3 1_555 1_555
C41_3 C38_3 1_555 1_555
C45_3 C44_3 1_555 1_555
H28_3 C45_3 1_555 1_555
C46_3 C41_3 1_555 1_555
H29_3 C46_3 1_555 1_555
C47_3 C20_3 1_555 1_555
C48_3 C47_3 1_555 1_555
C62_3 C48_3 1_555 1_555
C63_3 C19_3 1_555 1_555
H39_3 C63_3 1_555 1_555
Tb7_3 O21 1_555 1_555
Tb11_3 O13_3 1_555 1_555
O6_3 Tb13 1_555 1_555
C11_3 C12_3 1_555 1_555
C17_3 C18_3 1_555 1_555
C39_3 C40_3 1_555 1_555
C44_3 C47_3 1_555 1_555
C45_3 C46_3 1_555 1_555
C62_3 C63_3 1_555 1_555
Tb7_3 O22 1_555 1_555
C36_3 H22_3 1_555 1_555
C37_3 C36_3 1_555 1_555
H23_3 C37_3 1_555 1_555
H26_3 C42_3 1_555 1_555
C43_3 C42_3 1_555 1_555
H27_3 C43_3 1_555 1_555
O14_3 C49_3 1_555 1_555
O15_3 C49_3 1_555 1_555
C49_3 C50_3 1_555 1_555
C50_3 C51_3 1_555 1_555
C51_3 H31_3 1_555 1_555
C52_3 C51_3 1_555 1_555
H32_3 C52_3 1_555 1_555
C53_3 C52_3 1_555 1_555
C54_3 C53_3 1_555 1_555
H33_3 C54_3 1_555 1_555
C55_3 C50_3 1_555 1_555
H34_3 C55_3 1_555 1_555
C56_3 C53_3 1_555 1_555
C57_3 C56_3 1_555 1_555
H35_3 C57_3 1_555 1_555
C58_3 C57_3 1_555 1_555
H36_3 C58_3 1_555 1_555
C59_3 C58_3 1_555 1_555
C60_3 C59_3 1_555 1_555
H37_3 C60_3 1_555 1_555
C61_3 C56_3 1_555 1_555
H38_3 C61_3 1_555 1_555
Tb4_3 O12_3 1_555 1_555
Tb5_3 O14_3 1_555 1_555
Tb10_3 O15_3 1_555 1_555
C54_3 C55_3 1_555 1_555
C60_3 C61_3 1_555 1_555
H2_2 O2_2 1_555 1_555
Tb11 O2_2 1_555 1_555
O7_2 Tb4 1_555 1_555
C21_2 O7_2 1_555 1_555
H13_2 C21_2 1_555 1_555
N1_2 C21_2 1_555 1_555
C22_2 N1_2 1_555 1_555
H14_2 C22_2 1_555 1_555
H15_2 C22_2 1_555 1_555
H16_2 C22_2 1_555 1_555
C23_2 N1_2 1_555 1_555
H17_2 C23_2 1_555 1_555
H18_2 C23_2 1_555 1_555
H19_2 C23_2 1_555 1_555
H48_2 O18_2 1_555 1_555
Tb8_2 O11_2 1_555 1_555
Tb13_2 O18_2 1_555 1_555
O23_2 Tb4 1_555 1_555
O26_2 Tb4 1_555 1_555
O29_2 Tb4 1_555 1_555
O34_2 Tb4 1_555 1_555
O18_2 Tb8_2 1_555 1_555
O16_2 Tb5_3 1_555 1_555
H40_2 O16_2 1_555 1_555
O17_2 Tb5_3 1_555 1_555
C64_2 O17_2 1_555 1_555
H41_2 C64_2 1_555 1_555
N2_2 C64_2 1_555 1_555
C65_2 N2_2 1_555 1_555
H42_2 C65_2 1_555 1_555
H43_2 C65_2 1_555 1_555
H44_2 C65_2 1_555 1_555
C66_2 N2_2 1_555 1_555
H45_2 C66_2 1_555 1_555
H46_2 C66_2 1_555 1_555
H47_2 C66_2 1_555 1_555
Tb10_3 O16_2 1_555 1_555
O24_2 Tb5_3 1_555 1_555
O27_2 Tb5_3 1_555 1_555
O30_2 Tb5_3 1_555 1_555
O35_2 Tb5_3 1_555 1_555
O4_2 Tb9_2 1_555 1_555
Tb10_3 O27_2 1_555 1_555
O1_2 H1_4 1_555 1_555
C1_2 O3_2 1_555 1_555
C2_2 C1_2 1_555 1_555
C3_2 C2_2 1_555 1_555
H3_2 C3_2 1_555 1_555
C4_2 C3_2 1_555 1_555
C5_2 C4_2 1_555 1_555
S1_2 C2_2 1_555 1_555
O8_2 C24_2 1_555 1_555
O9_2 C24_2 1_555 1_555
C24_2 C25_2 1_555 1_555
C25_2 C26_2 1_555 1_555
C26_2 H20_2 1_555 1_555
C27_2 C5_2 1_555 1_555
C28_2 C27_2 1_555 1_555
S2_2 C25_2 1_555 1_555
O10_2 C29_2 1_555 1_555
C29_2 C30_2 1_555 1_555
C30_2 C31_2 1_555 1_555
C31_2 H21_2 1_555 1_555
C32_2 C28_2 1_555 1_555
C33_2 C4_2 1_555 1_555
S3_2 C30_2 1_555 1_555
Tb3_2 O10_2 1_555 1_555
O19_2 Tb3_2 1_555 1_555
C67_2 O19_2 1_555 1_555
H49_2 C67_2 1_555 1_555
N3_2 C67_2 1_555 1_555
C68_2 N3_2 1_555 1_555
H50_2 C68_2 1_555 1_555
H51_2 C68_2 1_555 1_555
H52_2 C68_2 1_555 1_555
C69_2 N3_2 1_555 1_555
H53_2 C69_2 1_555 1_555
H54_2 C69_2 1_555 1_555
H55_2 C69_2 1_555 1_555
Tb6_2 O9_2 1_555 1_555
Tb7_4 O1_2 1_555 1_555
O21_2 Tb3_2 1_555 1_555
O22_2 Tb3_2 1_555 1_555
O25_2 Tb3_2 1_555 1_555
O28_2 Tb3_2 1_555 1_555
O32_2 Tb3_2 1_555 1_555
O33_2 Tb3_2 1_555 1_555
C5_2 S1_2 1_555 1_555
C26_2 C27_2 1_555 1_555
C28_2 S2_2 1_555 1_555
C31_2 C32_2 1_555 1_555
C32_2 C33_2 1_555 1_555
C33_2 S3_2 1_555 1_555
Tb6_2 O20_2 1_555 1_555
H48_3 O18_3 1_555 1_555
Tb11_2 O18_3 1_555 1_555
H40_3 O16_3 1_555 1_555
O19_3 Tb4_2 1_555 1_555
C67_3 O19_3 1_555 1_555
H49_3 C67_3 1_555 1_555
N3_3 C67_3 1_555 1_555
C68_3 N3_3 1_555 1_555
H50_3 C68_3 1_555 1_555
H51_3 C68_3 1_555 1_555
H52_3 C68_3 1_555 1_555
C69_3 N3_3 1_555 1_555
H53_3 C69_3 1_555 1_555
H54_3 C69_3 1_555 1_555
H55_3 C69_3 1_555 1_555
Tb6_3 O9_3 1_555 1_555
Tb12_2 O16_3 1_555 1_555
O22_3 Tb4_2 1_555 1_555
O25_3 Tb4_2 1_555 1_555
O28_3 Tb4_2 1_555 1_555
O33_3 Tb4_2 1_555 1_555
O16_3 Tb6_3 1_555 1_555
O2_3 Tb5 1_555 1_555
H2_3 O2_3 1_555 1_555
O7_3 Tb5 1_555 1_555
C21_3 O7_3 1_555 1_555
H13_3 C21_3 1_555 1_555
N1_3 C21_3 1_555 1_555
C22_3 N1_3 1_555 1_555
H14_3 C22_3 1_555 1_555
H15_3 C22_3 1_555 1_555
H16_3 C22_3 1_555 1_555
C23_3 N1_3 1_555 1_555
H17_3 C23_3 1_555 1_555
H18_3 C23_3 1_555 1_555
H19_3 C23_3 1_555 1_555
Tb8_3 O11_3 1_555 1_555
Tb10 O2_3 1_555 1_555
O23_3 Tb5 1_555 1_555
O26_3 Tb5 1_555 1_555
O29_3 Tb5 1_555 1_555
O34_3 Tb5 1_555 1_555
Tb10 O26_3 1_555 1_555
O1_3 H1_5 1_555 1_555
O4_3 C1_3 1_555 1_555
C1_3 O3_3 1_555 1_555
C2_3 C1_3 1_555 1_555
C3_3 C2_3 1_555 1_555
H3_3 C3_3 1_555 1_555
C4_3 C3_3 1_555 1_555
C5_3 C4_3 1_555 1_555
S1_3 C2_3 1_555 1_555
O8_3 C24_3 1_555 1_555
C24_3 C25_3 1_555 1_555
C25_3 C26_3 1_555 1_555
C26_3 H20_3 1_555 1_555
C27_3 C5_3 1_555 1_555
C28_3 C27_3 1_555 1_555
S2_3 C25_3 1_555 1_555
O10_3 C29_3 1_555 1_555
C29_3 C30_3 1_555 1_555
C30_3 C31_3 1_555 1_555
C31_3 H21_3 1_555 1_555
C32_3 C28_3 1_555 1_555
C33_3 C4_3 1_555 1_555
S3_3 C30_3 1_555 1_555
Tb2_2 O8_3 1_555 1_555
O17_3 Tb2_2 1_555 1_555
C64_3 O17_3 1_555 1_555
H41_3 C64_3 1_555 1_555
N2_3 C64_3 1_555 1_555
C65_3 N2_3 1_555 1_555
H42_3 C65_3 1_555 1_555
H43_3 C65_3 1_555 1_555
H44_3 C65_3 1_555 1_555
C66_3 N2_3 1_555 1_555
H45_3 C66_3 1_555 1_555
H46_3 C66_3 1_555 1_555
H47_3 C66_3 1_555 1_555
Tb7_5 O1_3 1_555 1_555
Tb9_3 O1_3 1_555 1_555
O20_3 Tb2_2 1_555 1_555
O24_3 Tb2_2 1_555 1_555
O27_3 Tb2_2 1_555 1_555
O30_3 Tb2_2 1_555 1_555
O31_2 Tb2_2 1_555 1_555
O35_3 Tb2_2 1_555 1_555
O4_3 Tb9_3 1_555 1_555
C5_3 S1_3 1_555 1_555
C26_3 C27_3 1_555 1_555
C28_3 S2_3 1_555 1_555
C31_3 C32_3 1_555 1_555
C32_3 C33_3 1_555 1_555
C33_3 S3_3 1_555 1_555
H48_4 O18_4 1_555 1_555
Tb11_3 O18_4 1_555 1_555
O2_4 Tb5_2 1_555 1_555
H2_4 O2_4 1_555 1_555
O7_4 Tb5_2 1_555 1_555
C21_4 O7_4 1_555 1_555
H13_4 C21_4 1_555 1_555
N1_4 C21_4 1_555 1_555
C22_4 N1_4 1_555 1_555
H14_4 C22_4 1_555 1_555
H15_4 C22_4 1_555 1_555
H16_4 C22_4 1_555 1_555
C23_4 N1_4 1_555 1_555
H17_4 C23_4 1_555 1_555
H18_4 C23_4 1_555 1_555
H19_4 C23_4 1_555 1_555
Tb8_4 O11_4 1_555 1_555
Tb10_2 O2_4 1_555 1_555
O23_4 Tb5_2 1_555 1_555
O26_4 Tb5_2 1_555 1_555
O29_4 Tb5_2 1_555 1_555
O34_4 Tb5_2 1_555 1_555
Tb10_2 O26_4 1_555 1_555
H40_4 O16_4 1_555 1_555
O19_4 Tb4_3 1_555 1_555
C67_4 O19_4 1_555 1_555
H49_4 C67_4 1_555 1_555
N3_4 C67_4 1_555 1_555
C68_4 N3_4 1_555 1_555
H50_4 C68_4 1_555 1_555
H51_4 C68_4 1_555 1_555
H52_4 C68_4 1_555 1_555
C69_4 N3_4 1_555 1_555
H53_4 C69_4 1_555 1_555
H54_4 C69_4 1_555 1_555
H55_4 C69_4 1_555 1_555
Tb6_4 O9_4 1_555 1_555
Tb12_3 O16_4 1_555 1_555
O22_4 Tb4_3 1_555 1_555
O25_4 Tb4_3 1_555 1_555
O28_4 Tb4_3 1_555 1_555
O33_4 Tb4_3 1_555 1_555
O16_4 Tb6_4 1_555 1_555
O1_4 H1_6 1_555 1_555
O4_4 C1_4 1_555 1_555
C1_4 O3_4 1_555 1_555
C2_4 C1_4 1_555 1_555
C3_4 C2_4 1_555 1_555
H3_4 C3_4 1_555 1_555
C4_4 C3_4 1_555 1_555
C5_4 C4_4 1_555 1_555
S1_4 C2_4 1_555 1_555
O8_4 C24_4 1_555 1_555
C24_4 C25_4 1_555 1_555
C25_4 C26_4 1_555 1_555
C26_4 H20_4 1_555 1_555
C27_4 C5_4 1_555 1_555
C28_4 C27_4 1_555 1_555
S2_4 C25_4 1_555 1_555
O10_4 C29_4 1_555 1_555
C29_4 C30_4 1_555 1_555
C30_4 C31_4 1_555 1_555
C31_4 H21_4 1_555 1_555
C32_4 C28_4 1_555 1_555
C33_4 C4_4 1_555 1_555
S3_4 C30_4 1_555 1_555
Tb2_3 O8_4 1_555 1_555
O17_4 Tb2_3 1_555 1_555
C64_4 O17_4 1_555 1_555
H41_4 C64_4 1_555 1_555
N2_4 C64_4 1_555 1_555
C65_4 N2_4 1_555 1_555
H42_4 C65_4 1_555 1_555
H43_4 C65_4 1_555 1_555
H44_4 C65_4 1_555 1_555
C66_4 N2_4 1_555 1_555
H45_4 C66_4 1_555 1_555
H46_4 C66_4 1_555 1_555
H47_4 C66_4 1_555 1_555
Tb7_6 O1_4 1_555 1_555
Tb9_4 O1_4 1_555 1_555
O20_4 Tb2_3 1_555 1_555
O24_4 Tb2_3 1_555 1_555
O27_4 Tb2_3 1_555 1_555
O30_4 Tb2_3 1_555 1_555
O31_3 Tb2_3 1_555 1_555
O35_4 Tb2_3 1_555 1_555
O4_4 Tb9_4 1_555 1_555
C5_4 S1_4 1_555 1_555
C26_4 C27_4 1_555 1_555
C28_4 S2_4 1_555 1_555
C31_4 C32_4 1_555 1_555
C32_4 C33_4 1_555 1_555
C33_4 S3_4 1_555 1_555
C20_4 C19_4 1_555 1_555
C47_4 C20_4 1_555 1_555
C48_4 C47_4 1_555 1_555
C62_4 C48_4 1_555 1_555
C63_4 C19_4 1_555 1_555
C62_4 C63_4 1_555 1_555
O15_4 C49_4 1_555 1_555
C49_4 C50_4 1_555 1_555
C54_4 C53_4 1_555 1_555
H33_4 C54_4 1_555 1_555
C55_4 C50_4 1_555 1_555
H34_4 C55_4 1_555 1_555
C56_4 C53_4 1_555 1_555
C60_4 C59_4 1_555 1_555
H37_4 C60_4 1_555 1_555
C61_4 C56_4 1_555 1_555
H38_4 C61_4 1_555 1_555
Tb12_2 O15_4 1_555 1_555
C54_4 C55_4 1_555 1_555
C60_4 C61_4 1_555 1_555
O6_4 C6_4 1_555 1_555
C7_4 C6_4 1_555 1_555
C11_4 C10_4 1_555 1_555
H6_4 C11_4 1_555 1_555
C12_4 C7_4 1_555 1_555
H7_4 C12_4 1_555 1_555
C13_4 C10_4 1_555 1_555
C17_4 C16_4 1_555 1_555
H10_4 C17_4 1_555 1_555
C18_4 C13_4 1_555 1_555
H11_4 C18_4 1_555 1_555
O6_4 Tb13_2 1_555 1_555
C11_4 C12_4 1_555 1_555
C17_4 C18_4 1_555 1_555
C51_4 H31_4 1_555 1_555
C52_4 C51_4 1_555 1_555
H32_4 C52_4 1_555 1_555
H35_4 C57_4 1_555 1_555
C58_4 C57_4 1_555 1_555
H36_4 C58_4 1_555 1_555
O13_4 C34_4 1_555 1_555
C34_4 C35_4 1_555 1_555
C39_4 C38_4 1_555 1_555
H24_4 C39_4 1_555 1_555
C40_4 C35_4 1_555 1_555
H25_4 C40_4 1_555 1_555
C41_4 C38_4 1_555 1_555
C45_4 C44_4 1_555 1_555
H28_4 C45_4 1_555 1_555
C46_4 C41_4 1_555 1_555
H29_4 C46_4 1_555 1_555
Tb12_3 O13_4 1_555 1_555
C39_4 C40_4 1_555 1_555
C45_4 C46_4 1_555 1_555
C36_4 H22_4 1_555 1_555
C37_4 C36_4 1_555 1_555
H23_4 C37_4 1_555 1_555
H26_4 C42_4 1_555 1_555
C43_4 C42_4 1_555 1_555
H27_4 C43_4 1_555 1_555
O21_2 H1_7 1_555 1_555
H4_4 C8_4 1_555 1_555
C9_4 C8_4 1_555 1_555
H5_4 C9_4 1_555 1_555
H8_4 C14_4 1_555 1_555
C15_4 C14_4 1_555 1_555
H9_4 C15_4 1_555 1_555
Tb7_7 O21_2 1_555 1_555
Tb7_7 O22_2 1_555 1_555
O21_4 H1_8 1_555 1_555
Tb7_8 O21_4 1_555 1_555
O20_3 H1_9 1_555 1_555
Tb7_9 O20_3 1_555 1_555
Tb7_9 O24_3 1_555 1_555
O20_2 H1_10 1_555 1_555
Tb7_10 O20_2 1_555 1_555
O21_3 H1_11 1_555 1_555
Tb7_11 O21_3 1_555 1_555
O20_4 H1_12 1_555 1_555
Tb7_12 O20_4 1_555 1_555
Tb7_12 O24_4 1_555 1_555
Tb1_2 O1_5 1_555 1_555
O1_5 H1_13 1_555 1_555
O2_5 Tb1_2 1_555 1_555
H2_5 O2_5 1_555 1_555
O3_5 Tb1_2 1_555 1_555
O4_5 C1_5 1_555 1_555
C1_5 O3_5 1_555 1_555
C2_5 C1_5 1_555 1_555
C3_5 C2_5 1_555 1_555
H3_5 C3_5 1_555 1_555
C4_5 C3_5 1_555 1_555
C5_5 C4_5 1_555 1_555
S1_5 C2_5 1_555 1_555
O5_2 Tb1_2 1_555 1_555
O6_5 C6_5 1_555 1_555
C6_5 O5_2 1_555 1_555
C7_5 C6_5 1_555 1_555
C8_5 C7_5 1_555 1_555
H4_5 C8_5 1_555 1_555
C9_5 C8_5 1_555 1_555
H5_5 C9_5 1_555 1_555
C10_5 C9_5 1_555 1_555
C11_5 C10_5 1_555 1_555
H6_5 C11_5 1_555 1_555
C12_5 C7_5 1_555 1_555
H7_5 C12_5 1_555 1_555
C13_5 C10_5 1_555 1_555
C14_5 C13_5 1_555 1_555
H8_5 C14_5 1_555 1_555
C15_5 C14_5 1_555 1_555
H9_5 C15_5 1_555 1_555
C16_5 C15_5 1_555 1_555
C17_5 C16_5 1_555 1_555
H10_5 C17_5 1_555 1_555
C18_5 C13_5 1_555 1_555
H11_5 C18_5 1_555 1_555
C19_5 C16_5 1_555 1_555
C20_5 C19_5 1_555 1_555
H12_5 C20_5 1_555 1_555
O7_5 Tb1_2 1_555 1_555
C21_5 O7_5 1_555 1_555
H13_5 C21_5 1_555 1_555
N1_5 C21_5 1_555 1_555
C22_5 N1_5 1_555 1_555
H14_5 C22_5 1_555 1_555
H15_5 C22_5 1_555 1_555
H16_5 C22_5 1_555 1_555
C23_5 N1_5 1_555 1_555
H17_5 C23_5 1_555 1_555
H18_5 C23_5 1_555 1_555
H19_5 C23_5 1_555 1_555
O8_5 C24_5 1_555 1_555
O30_3 C24_5 1_555 1_555
C24_5 C25_5 1_555 1_555
C25_5 C26_5 1_555 1_555
C26_5 H20_5 1_555 1_555
C27_5 C5_5 1_555 1_555
C28_5 C27_5 1_555 1_555
S2_5 C25_5 1_555 1_555
O10_5 C29_5 1_555 1_555
O11_5 C29_5 1_555 1_555
C29_5 C30_5 1_555 1_555
C30_5 C31_5 1_555 1_555
C31_5 H21_5 1_555 1_555
C32_5 C28_5 1_555 1_555
C33_5 C4_5 1_555 1_555
S3_5 C30_5 1_555 1_555
O12_4 C34_5 1_555 1_555
O13_5 C34_5 1_555 1_555
C34_5 C35_5 1_555 1_555
C35_5 C36_5 1_555 1_555
C36_5 H22_5 1_555 1_555
C37_5 C36_5 1_555 1_555
H23_5 C37_5 1_555 1_555
C38_5 C37_5 1_555 1_555
C39_5 C38_5 1_555 1_555
H24_5 C39_5 1_555 1_555
C40_5 C35_5 1_555 1_555
H25_5 C40_5 1_555 1_555
C41_5 C38_5 1_555 1_555
C42_5 C41_5 1_555 1_555
H26_5 C42_5 1_555 1_555
C43_5 C42_5 1_555 1_555
H27_5 C43_5 1_555 1_555
C44_5 C43_5 1_555 1_555
C45_5 C44_5 1_555 1_555
H28_5 C45_5 1_555 1_555
C46_5 C41_5 1_555 1_555
H29_5 C46_5 1_555 1_555
C47_5 C20_5 1_555 1_555
C48_5 C47_5 1_555 1_555
H30_5 C48_5 1_555 1_555
O14_4 C49_5 1_555 1_555
O15_5 C49_5 1_555 1_555
C49_5 C50_5 1_555 1_555
C50_5 C51_5 1_555 1_555
C51_5 H31_5 1_555 1_555
C52_5 C51_5 1_555 1_555
H32_5 C52_5 1_555 1_555
C53_5 C52_5 1_555 1_555
C54_5 C53_5 1_555 1_555
H33_5 C54_5 1_555 1_555
C55_5 C50_5 1_555 1_555
H34_5 C55_5 1_555 1_555
C56_5 C53_5 1_555 1_555
C57_5 C56_5 1_555 1_555
H35_5 C57_5 1_555 1_555
C58_5 C57_5 1_555 1_555
H36_5 C58_5 1_555 1_555
C59_5 C58_5 1_555 1_555
C60_5 C59_5 1_555 1_555
H37_5 C60_5 1_555 1_555
C61_5 C56_5 1_555 1_555
H38_5 C61_5 1_555 1_555
C62_5 C48_5 1_555 1_555
C63_5 C19_5 1_555 1_555
H39_5 C63_5 1_555 1_555
Tb7_9 O8_5 1_555 1_555
H40_5 O24_3 1_555 1_555
O17_5 Tb7_9 1_555 1_555
C64_5 O17_5 1_555 1_555
H41_5 C64_5 1_555 1_555
N2_5 C64_5 1_555 1_555
C65_5 N2_5 1_555 1_555
H42_5 C65_5 1_555 1_555
H43_5 C65_5 1_555 1_555
H44_5 C65_5 1_555 1_555
C66_5 N2_5 1_555 1_555
H45_5 C66_5 1_555 1_555
H46_5 C66_5 1_555 1_555
H47_5 C66_5 1_555 1_555
Tb9_3 O10_5 1_555 1_555
O18_5 Tb9_3 1_555 1_555
H48_5 O18_5 1_555 1_555
O19_5 Tb9_3 1_555 1_555
C67_5 O19_5 1_555 1_555
H49_5 C67_5 1_555 1_555
N3_5 C67_5 1_555 1_555
C68_5 N3_5 1_555 1_555
H50_5 C68_5 1_555 1_555
H51_5 C68_5 1_555 1_555
H52_5 C68_5 1_555 1_555
C69_5 N3_5 1_555 1_555
H53_5 C69_5 1_555 1_555
H54_5 C69_5 1_555 1_555
H55_5 C69_5 1_555 1_555
Tb8_4 O12_4 1_555 1_555
Tb7_3 O14_4 1_555 1_555
Tb7_13 O1_5 1_555 1_555
Tb7_5 O11_5 1_555 1_555
Tb9_5 O1_5 1_555 1_555
Tb10_4 O15_5 1_555 1_555
Tb11_4 O13_5 1_555 1_555
Tb12_4 O24_3 1_555 1_555
Tb13_3 O18_5 1_555 1_555
Tb14_2 O2_5 1_555 1_555
O23_5 Tb1_2 1_555 1_555
O25_5 Tb9_3 1_555 1_555
O26_5 Tb1_2 1_555 1_555
O27_5 Tb7_9 1_555 1_555
O29_5 Tb1_2 1_555 1_555
O30_5 Tb7_9 1_555 1_555
O31_4 Tb7_9 1_555 1_555
O32_3 Tb9_3 1_555 1_555
O33_5 Tb9_3 1_555 1_555
O34_5 Tb1_2 1_555 1_555
O35_5 Tb7_9 1_555 1_555
O2_5 Tb9_5 1_555 1_555
O4_5 Tb9_5 1_555 1_555
C5_5 S1_5 1_555 1_555
O6_5 Tb14_2 1_555 1_555
C11_5 C12_5 1_555 1_555
C17_5 C18_5 1_555 1_555
C26_5 C27_5 1_555 1_555
C28_5 S2_5 1_555 1_555
C31_5 C32_5 1_555 1_555
C32_5 C33_5 1_555 1_555
C33_5 S3_5 1_555 1_555
C39_5 C40_5 1_555 1_555
C44_5 C47_5 1_555 1_555
C45_5 C46_5 1_555 1_555
C54_5 C55_5 1_555 1_555
C59_5 C62_5 1_555 1_555
C60_5 C61_5 1_555 1_555
C62_5 C63_5 1_555 1_555
O18_5 Tb7_5 1_555 1_555
Tb7_13 O23_5 1_555 1_555
Tb12_4 O27_5 1_555 1_555
Tb13_3 O25_5 1_555 1_555
Tb14_2 O26_5 1_555 1_555
Tb6_3 O24_5 1_555 1_555
O6_6 C6_6 1_555 1_555
C6_6 O31_4 1_555 1_555
C7_6 C6_6 1_555 1_555
C8_6 C7_6 1_555 1_555
H4_6 C8_6 1_555 1_555
C9_6 C8_6 1_555 1_555
H5_6 C9_6 1_555 1_555
C10_6 C9_6 1_555 1_555
C11_6 C10_6 1_555 1_555
H6_6 C11_6 1_555 1_555
C12_6 C7_6 1_555 1_555
H7_6 C12_6 1_555 1_555
C13_6 C10_6 1_555 1_555
C14_6 C13_6 1_555 1_555
H8_6 C14_6 1_555 1_555
C15_6 C14_6 1_555 1_555
H9_6 C15_6 1_555 1_555
C16_6 C15_6 1_555 1_555
C17_6 C16_6 1_555 1_555
H10_6 C17_6 1_555 1_555
C18_6 C13_6 1_555 1_555
H11_6 C18_6 1_555 1_555
C19_6 C16_6 1_555 1_555
C20_6 C19_6 1_555 1_555
H12_6 C20_6 1_555 1_555
O12_5 C34_6 1_555 1_555
O13_6 C34_6 1_555 1_555
C34_6 C35_6 1_555 1_555
C35_6 C36_6 1_555 1_555
C36_6 H22_6 1_555 1_555
C37_6 C36_6 1_555 1_555
H23_6 C37_6 1_555 1_555
C38_6 C37_6 1_555 1_555
C39_6 C38_6 1_555 1_555
H24_6 C39_6 1_555 1_555
C40_6 C35_6 1_555 1_555
H25_6 C40_6 1_555 1_555
C41_6 C38_6 1_555 1_555
C42_6 C41_6 1_555 1_555
H26_6 C42_6 1_555 1_555
C43_6 C42_6 1_555 1_555
H27_6 C43_6 1_555 1_555
C44_6 C43_6 1_555 1_555
C45_6 C44_6 1_555 1_555
H28_6 C45_6 1_555 1_555
C46_6 C41_6 1_555 1_555
H29_6 C46_6 1_555 1_555
C47_6 C20_6 1_555 1_555
C48_6 C47_6 1_555 1_555
H30_6 C48_6 1_555 1_555
O14_5 C49_6 1_555 1_555
O15_6 C49_6 1_555 1_555
C49_6 C50_6 1_555 1_555
C50_6 C51_6 1_555 1_555
C51_6 H31_6 1_555 1_555
C52_6 C51_6 1_555 1_555
H32_6 C52_6 1_555 1_555
C53_6 C52_6 1_555 1_555
C54_6 C53_6 1_555 1_555
H33_6 C54_6 1_555 1_555
C55_6 C50_6 1_555 1_555
H34_6 C55_6 1_555 1_555
C56_6 C53_6 1_555 1_555
C57_6 C56_6 1_555 1_555
H35_6 C57_6 1_555 1_555
C58_6 C57_6 1_555 1_555
H36_6 C58_6 1_555 1_555
C59_6 C58_6 1_555 1_555
C60_6 C59_6 1_555 1_555
H37_6 C60_6 1_555 1_555
C61_6 C56_6 1_555 1_555
H38_6 C61_6 1_555 1_555
C62_6 C48_6 1_555 1_555
C63_6 C19_6 1_555 1_555
H39_6 C63_6 1_555 1_555
Tb4_4 O12_5 1_555 1_555
Tb8_2 O14_5 1_555 1_555
Tb10_5 O15_6 1_555 1_555
Tb11_5 O13_6 1_555 1_555
O6_6 Tb12_4 1_555 1_555
C11_6 C12_6 1_555 1_555
C17_6 C18_6 1_555 1_555
C39_6 C40_6 1_555 1_555
C44_6 C47_6 1_555 1_555
C45_6 C46_6 1_555 1_555
C54_6 C55_6 1_555 1_555
C59_6 C62_6 1_555 1_555
C60_6 C61_6 1_555 1_555
C62_6 C63_6 1_555 1_555
O6_7 C6_7 1_555 1_555
C6_7 O32_3 1_555 1_555
C7_7 C6_7 1_555 1_555
C8_7 C7_7 1_555 1_555
H4_7 C8_7 1_555 1_555
C9_7 C8_7 1_555 1_555
H5_7 C9_7 1_555 1_555
C10_7 C9_7 1_555 1_555
C11_7 C10_7 1_555 1_555
H6_7 C11_7 1_555 1_555
C12_7 C7_7 1_555 1_555
H7_7 C12_7 1_555 1_555
C13_7 C10_7 1_555 1_555
C14_7 C13_7 1_555 1_555
H8_7 C14_7 1_555 1_555
C15_7 C14_7 1_555 1_555
H9_7 C15_7 1_555 1_555
C16_7 C15_7 1_555 1_555
C17_7 C16_7 1_555 1_555
H10_7 C17_7 1_555 1_555
C18_7 C13_7 1_555 1_555
H11_7 C18_7 1_555 1_555
C19_7 C16_7 1_555 1_555
C20_7 C19_7 1_555 1_555
H12_7 C20_7 1_555 1_555
O13_7 C34_7 1_555 1_555
C34_7 C35_7 1_555 1_555
C39_7 C38_7 1_555 1_555
H24_7 C39_7 1_555 1_555
C40_7 C35_7 1_555 1_555
H25_7 C40_7 1_555 1_555
C41_7 C38_7 1_555 1_555
C45_7 C44_7 1_555 1_555
H28_7 C45_7 1_555 1_555
C46_7 C41_7 1_555 1_555
H29_7 C46_7 1_555 1_555
C47_7 C20_7 1_555 1_555
C48_7 C47_7 1_555 1_555
C62_7 C48_7 1_555 1_555
C63_7 C19_7 1_555 1_555
H39_7 C63_7 1_555 1_555
Tb11_6 O13_7 1_555 1_555
O6_7 Tb13_3 1_555 1_555
C11_7 C12_7 1_555 1_555
C17_7 C18_7 1_555 1_555
C39_7 C40_7 1_555 1_555
C44_7 C47_7 1_555 1_555
C45_7 C46_7 1_555 1_555
C62_7 C63_7 1_555 1_555
C36_7 H22_7 1_555 1_555
C37_7 C36_7 1_555 1_555
H23_7 C37_7 1_555 1_555
H26_7 C42_7 1_555 1_555
C43_7 C42_7 1_555 1_555
H27_7 C43_7 1_555 1_555
O14_6 C49_7 1_555 1_555
O15_7 C49_7 1_555 1_555
C49_7 C50_7 1_555 1_555
C50_7 C51_7 1_555 1_555
C51_7 H31_7 1_555 1_555
C52_7 C51_7 1_555 1_555
H32_7 C52_7 1_555 1_555
C53_7 C52_7 1_555 1_555
C54_7 C53_7 1_555 1_555
H33_7 C54_7 1_555 1_555
C55_7 C50_7 1_555 1_555
H34_7 C55_7 1_555 1_555
C56_7 C53_7 1_555 1_555
C57_7 C56_7 1_555 1_555
H35_7 C57_7 1_555 1_555
C58_7 C57_7 1_555 1_555
H36_7 C58_7 1_555 1_555
C59_7 C58_7 1_555 1_555
C60_7 C59_7 1_555 1_555
H37_7 C60_7 1_555 1_555
C61_7 C56_7 1_555 1_555
H38_7 C61_7 1_555 1_555
Tb7_4 O12_6 1_555 1_555
Tb5_4 O14_6 1_555 1_555
Tb10_6 O15_7 1_555 1_555
C54_7 C55_7 1_555 1_555
C60_7 C61_7 1_555 1_555
O2_6 Tb8_4 1_555 1_555
H2_6 O2_6 1_555 1_555
O7_6 Tb8_4 1_555 1_555
C21_6 O7_6 1_555 1_555
H13_6 C21_6 1_555 1_555
N1_6 C21_6 1_555 1_555
C22_6 N1_6 1_555 1_555
H14_6 C22_6 1_555 1_555
H15_6 C22_6 1_555 1_555
H16_6 C22_6 1_555 1_555
C23_6 N1_6 1_555 1_555
H17_6 C23_6 1_555 1_555
H18_6 C23_6 1_555 1_555
H19_6 C23_6 1_555 1_555
H48_6 O23_4 1_555 1_555
Tb13_4 O23_4 1_555 1_555
Tb11_4 O2_6 1_555 1_555
O26_6 Tb8_4 1_555 1_555
O34_6 Tb8_4 1_555 1_555
Tb11_4 O26_6 1_555 1_555
O4_6 C1_6 1_555 1_555
C1_6 O3_6 1_555 1_555
C2_6 C1_6 1_555 1_555
C3_6 C2_6 1_555 1_555
H3_6 C3_6 1_555 1_555
C4_6 C3_6 1_555 1_555
C5_6 C4_6 1_555 1_555
S1_6 C2_6 1_555 1_555
O8_6 C24_6 1_555 1_555
O9_5 C24_6 1_555 1_555
C24_6 C25_6 1_555 1_555
C25_6 C26_6 1_555 1_555
C26_6 H20_6 1_555 1_555
C27_6 C5_6 1_555 1_555
C28_6 C27_6 1_555 1_555
S2_6 C25_6 1_555 1_555
O10_6 C29_6 1_555 1_555
C29_6 C30_6 1_555 1_555
C30_6 C31_6 1_555 1_555
C31_6 H21_6 1_555 1_555
C32_6 C28_6 1_555 1_555
C33_6 C4_6 1_555 1_555
S3_6 C30_6 1_555 1_555
Tb5_4 O8_6 1_555 1_555
O16_5 Tb5_4 1_555 1_555
H40_6 O16_5 1_555 1_555
O17_6 Tb5_4 1_555 1_555
C64_6 O17_6 1_555 1_555
H41_6 C64_6 1_555 1_555
N2_6 C64_6 1_555 1_555
C65_6 N2_6 1_555 1_555
H42_6 C65_6 1_555 1_555
H43_6 C65_6 1_555 1_555
H44_6 C65_6 1_555 1_555
C66_6 N2_6 1_555 1_555
H45_6 C66_6 1_555 1_555
H46_6 C66_6 1_555 1_555
H47_6 C66_6 1_555 1_555
Tb7_6 O10_6 1_555 1_555
O19_6 Tb7_6 1_555 1_555
C67_6 O19_6 1_555 1_555
H49_6 C67_6 1_555 1_555
N3_6 C67_6 1_555 1_555
C68_6 N3_6 1_555 1_555
H50_6 C68_6 1_555 1_555
H51_6 C68_6 1_555 1_555
H52_6 C68_6 1_555 1_555
C69_6 N3_6 1_555 1_555
H53_6 C69_6 1_555 1_555
H54_6 C69_6 1_555 1_555
H55_6 C69_6 1_555 1_555
Tb6_5 O9_5 1_555 1_555
Tb10_6 O16_5 1_555 1_555
O20_5 Tb5_4 1_555 1_555
O22_5 Tb7_6 1_555 1_555
O24_6 Tb5_4 1_555 1_555
O25_6 Tb7_6 1_555 1_555
O27_6 Tb5_4 1_555 1_555
O28_5 Tb7_6 1_555 1_555
O30_6 Tb5_4 1_555 1_555
O32_4 Tb7_6 1_555 1_555
O33_6 Tb7_6 1_555 1_555
O35_6 Tb5_4 1_555 1_555
O4_6 Tb7_8 1_555 1_555
C5_6 S1_6 1_555 1_555
C26_6 C27_6 1_555 1_555
C28_6 S2_6 1_555 1_555
C31_6 C32_6 1_555 1_555
C32_6 C33_6 1_555 1_555
C33_6 S3_6 1_555 1_555
O16_5 Tb6_5 1_555 1_555
Tb6_5 O20_5 1_555 1_555
Tb10_6 O27_6 1_555 1_555
H2_7 O22 1_555 1_555
O3_7 Tb7_3 1_555 1_555
O28 C1_7 1_555 1_555
C1_7 O3_7 1_555 1_555
C2_7 C1_7 1_555 1_555
C3_7 C2_7 1_555 1_555
H3_7 C3_7 1_555 1_555
C4_7 C3_7 1_555 1_555
C5_7 C4_7 1_555 1_555
S1_7 C2_7 1_555 1_555
O7_7 Tb7_3 1_555 1_555
C21_7 O7_7 1_555 1_555
H13_7 C21_7 1_555 1_555
N1_7 C21_7 1_555 1_555
C22_7 N1_7 1_555 1_555
H14_7 C22_7 1_555 1_555
H15_7 C22_7 1_555 1_555
H16_7 C22_7 1_555 1_555
C23_7 N1_7 1_555 1_555
H17_7 C23_7 1_555 1_555
H18_7 C23_7 1_555 1_555
H19_7 C23_7 1_555 1_555
O8_7 C24_7 1_555 1_555
O9_6 C24_7 1_555 1_555
C24_7 C25_7 1_555 1_555
C25_7 C26_7 1_555 1_555
C26_7 H20_7 1_555 1_555
C27_7 C5_7 1_555 1_555
C28_7 C27_7 1_555 1_555
S2_7 C25_7 1_555 1_555
O10_7 C29_7 1_555 1_555
O11_6 C29_7 1_555 1_555
C29_7 C30_7 1_555 1_555
C30_7 C31_7 1_555 1_555
C31_7 H21_7 1_555 1_555
C32_7 C28_7 1_555 1_555
C33_7 C4_7 1_555 1_555
S3_7 C30_7 1_555 1_555
Tb6 O8_7 1_555 1_555
O16_6 Tb6 1_555 1_555
H40_7 O16_6 1_555 1_555
O17_7 Tb6 1_555 1_555
C64_7 O17_7 1_555 1_555
H41_7 C64_7 1_555 1_555
N2_7 C64_7 1_555 1_555
C65_7 N2_7 1_555 1_555
H42_7 C65_7 1_555 1_555
H43_7 C65_7 1_555 1_555
H44_7 C65_7 1_555 1_555
C66_7 N2_7 1_555 1_555
H45_7 C66_7 1_555 1_555
H46_7 C66_7 1_555 1_555
H47_7 C66_7 1_555 1_555
Tb4_4 O10_7 1_555 1_555
O18_6 Tb4_4 1_555 1_555
H48_7 O18_6 1_555 1_555
O19_7 Tb4_4 1_555 1_555
C67_7 O19_7 1_555 1_555
H49_7 C67_7 1_555 1_555
N3_7 C67_7 1_555 1_555
C68_7 N3_7 1_555 1_555
H50_7 C68_7 1_555 1_555
H51_7 C68_7 1_555 1_555
H52_7 C68_7 1_555 1_555
C69_7 N3_7 1_555 1_555
H53_7 C69_7 1_555 1_555
H54_7 C69_7 1_555 1_555
H55_7 C69_7 1_555 1_555
Tb7_2 O9_6 1_555 1_555
Tb8_5 O11_6 1_555 1_555
Tb12_5 O16_6 1_555 1_555
Tb11_5 O18_6 1_555 1_555
Tb10_4 O22 1_555 1_555
O21_5 Tb4_4 1_555 1_555
O22_6 Tb4_4 1_555 1_555
O23_6 Tb7_3 1_555 1_555
O25_7 Tb4_4 1_555 1_555
O26_7 Tb7_3 1_555 1_555
O27_7 Tb6 1_555 1_555
O28_6 Tb4_4 1_555 1_555
O29_6 Tb7_3 1_555 1_555
O31_5 Tb6 1_555 1_555
O33_7 Tb4_4 1_555 1_555
O34_7 Tb7_3 1_555 1_555
O35_7 Tb6 1_555 1_555
C5_7 S1_7 1_555 1_555
C26_7 C27_7 1_555 1_555
C28_7 S2_7 1_555 1_555
C31_7 C32_7 1_555 1_555
C32_7 C33_7 1_555 1_555
C33_7 S3_7 1_555 1_555
O16_6 Tb7_2 1_555 1_555
O18_6 Tb8_5 1_555 1_555
Tb8 O23_6 1_555 1_555
Tb8_5 O21_5 1_555 1_555
Tb12_5 O27_7 1_555 1_555
Tb11_5 O25_7 1_555 1_555
Tb10_4 O26_7 1_555 1_555
O2_7 Tb8_2 1_555 1_555
H2_8 O2_7 1_555 1_555
O7_8 Tb8_2 1_555 1_555
C21_8 O7_8 1_555 1_555
H13_8 C21_8 1_555 1_555
N1_8 C21_8 1_555 1_555
C22_8 N1_8 1_555 1_555
H14_8 C22_8 1_555 1_555
H15_8 C22_8 1_555 1_555
H16_8 C22_8 1_555 1_555
C23_8 N1_8 1_555 1_555
H17_8 C23_8 1_555 1_555
H18_8 C23_8 1_555 1_555
H19_8 C23_8 1_555 1_555
H48_8 O23_2 1_555 1_555
Tb11_6 O23_2 1_555 1_555
Tb10_5 O2_7 1_555 1_555
O26_8 Tb8_2 1_555 1_555
O34_8 Tb8_2 1_555 1_555
Tb10_5 O26_8 1_555 1_555
O4_7 C1_8 1_555 1_555
C1_8 O3_8 1_555 1_555
C2_8 C1_8 1_555 1_555
C3_8 C2_8 1_555 1_555
H3_8 C3_8 1_555 1_555
C4_8 C3_8 1_555 1_555
C5_8 C4_8 1_555 1_555
S1_8 C2_8 1_555 1_555
O8_8 C24_8 1_555 1_555
O9_7 C24_8 1_555 1_555
C24_8 C25_8 1_555 1_555
C25_8 C26_8 1_555 1_555
C26_8 H20_8 1_555 1_555
C27_8 C5_8 1_555 1_555
C28_8 C27_8 1_555 1_555
S2_8 C25_8 1_555 1_555
O10_8 C29_8 1_555 1_555
C29_8 C30_8 1_555 1_555
C30_8 C31_8 1_555 1_555
C31_8 H21_8 1_555 1_555
C32_8 C28_8 1_555 1_555
C33_8 C4_8 1_555 1_555
S3_8 C30_8 1_555 1_555
Tb2_4 O8_8 1_555 1_555
O16_7 Tb2_4 1_555 1_555
H40_8 O16_7 1_555 1_555
O17_8 Tb2_4 1_555 1_555
C64_8 O17_8 1_555 1_555
H41_8 C64_8 1_555 1_555
N2_8 C64_8 1_555 1_555
C65_8 N2_8 1_555 1_555
H42_8 C65_8 1_555 1_555
H43_8 C65_8 1_555 1_555
H44_8 C65_8 1_555 1_555
C66_8 N2_8 1_555 1_555
H45_8 C66_8 1_555 1_555
H46_8 C66_8 1_555 1_555
H47_8 C66_8 1_555 1_555
Tb7_4 O10_8 1_555 1_555
O19_8 Tb7_4 1_555 1_555
C67_8 O19_8 1_555 1_555
H49_8 C67_8 1_555 1_555
N3_8 C67_8 1_555 1_555
C68_8 N3_8 1_555 1_555
H50_8 C68_8 1_555 1_555
H51_8 C68_8 1_555 1_555
H52_8 C68_8 1_555 1_555
C69_8 N3_8 1_555 1_555
H53_8 C69_8 1_555 1_555
H54_8 C69_8 1_555 1_555
H55_8 C69_8 1_555 1_555
Tb6_6 O9_7 1_555 1_555
Tb12_6 O16_7 1_555 1_555
O20_6 Tb2_4 1_555 1_555
O24_7 Tb2_4 1_555 1_555
O25_8 Tb7_4 1_555 1_555
O27_8 Tb2_4 1_555 1_555
O28_7 Tb7_4 1_555 1_555
O30_7 Tb2_4 1_555 1_555
O31_6 Tb2_4 1_555 1_555
O33_8 Tb7_4 1_555 1_555
O35_8 Tb2_4 1_555 1_555
O4_7 Tb7_7 1_555 1_555
C5_8 S1_8 1_555 1_555
C26_8 C27_8 1_555 1_555
C28_8 S2_8 1_555 1_555
C31_8 C32_8 1_555 1_555
C32_8 C33_8 1_555 1_555
C33_8 S3_8 1_555 1_555
O16_7 Tb6_6 1_555 1_555
Tb6_6 O20_6 1_555 1_555
Tb12_6 O27_8 1_555 1_555
O6_8 C6_8 1_555 1_555
C7_8 C6_8 1_555 1_555
C11_8 C10_8 1_555 1_555
H6_8 C11_8 1_555 1_555
C12_8 C7_8 1_555 1_555
H7_8 C12_8 1_555 1_555
C13_8 C10_8 1_555 1_555
C17_8 C16_8 1_555 1_555
H10_8 C17_8 1_555 1_555
C18_8 C13_8 1_555 1_555
H11_8 C18_8 1_555 1_555
C19_8 C16_8 1_555 1_555
C20_8 C19_8 1_555 1_555
C47_8 C20_8 1_555 1_555
C48_8 C47_8 1_555 1_555
H30_8 C48_8 1_555 1_555
O31_5 C49_8 1_555 1_555
O15_8 C49_8 1_555 1_555
C49_8 C50_8 1_555 1_555
C50_8 C51_8 1_555 1_555
C51_8 H31_8 1_555 1_555
C52_8 C51_8 1_555 1_555
H32_8 C52_8 1_555 1_555
C53_8 C52_8 1_555 1_555
C54_8 C53_8 1_555 1_555
H33_8 C54_8 1_555 1_555
C55_8 C50_8 1_555 1_555
H34_8 C55_8 1_555 1_555
C56_8 C53_8 1_555 1_555
C57_8 C56_8 1_555 1_555
H35_8 C57_8 1_555 1_555
C58_8 C57_8 1_555 1_555
H36_8 C58_8 1_555 1_555
C59_8 C58_8 1_555 1_555
C60_8 C59_8 1_555 1_555
H37_8 C60_8 1_555 1_555
C61_8 C56_8 1_555 1_555
H38_8 C61_8 1_555 1_555
C62_8 C48_8 1_555 1_555
C63_8 C19_8 1_555 1_555
H39_8 C63_8 1_555 1_555
Tb12_5 O15_8 1_555 1_555
O6_8 Tb13_4 1_555 1_555
C11_8 C12_8 1_555 1_555
C17_8 C18_8 1_555 1_555
C54_8 C55_8 1_555 1_555
C59_8 C62_8 1_555 1_555
C60_8 C61_8 1_555 1_555
C62_8 C63_8 1_555 1_555
H4_8 C8_8 1_555 1_555
C9_8 C8_8 1_555 1_555
H5_8 C9_8 1_555 1_555
H8_8 C14_8 1_555 1_555
C15_8 C14_8 1_555 1_555
H9_8 C15_8 1_555 1_555
O31_6 C34_8 1_555 1_555
O13_8 C34_8 1_555 1_555
C34_8 C35_8 1_555 1_555
C35_8 C36_8 1_555 1_555
C36_8 H22_8 1_555 1_555
C37_8 C36_8 1_555 1_555
H23_8 C37_8 1_555 1_555
C38_8 C37_8 1_555 1_555
C39_8 C38_8 1_555 1_555
H24_8 C39_8 1_555 1_555
C40_8 C35_8 1_555 1_555
H25_8 C40_8 1_555 1_555
C41_8 C38_8 1_555 1_555
C42_8 C41_8 1_555 1_555
H26_8 C42_8 1_555 1_555
C43_8 C42_8 1_555 1_555
H27_8 C43_8 1_555 1_555
C44_8 C43_8 1_555 1_555
C45_8 C44_8 1_555 1_555
H28_8 C45_8 1_555 1_555
C46_8 C41_8 1_555 1_555
H29_8 C46_8 1_555 1_555
Tb12_6 O13_8 1_555 1_555
C39_8 C40_8 1_555 1_555
C45_8 C46_8 1_555 1_555
Tb9_4 O22_5 1_555 1_555
Tb9_2 O22_7 1_555 1_555
O20_5 H1_14 1_555 1_555
Tb7_14 O20_5 1_555 1_555
Tb7_14 O24_6 1_555 1_555
O21_5 H1_15 1_555 1_555
Tb7_15 O21_5 1_555 1_555
Tb7_15 O22_6 1_555 1_555
O20_6 H1_16 1_555 1_555
Tb7_16 O20_6 1_555 1_555
Tb7_16 O24_7 1_555 1_555
H2_9 O22_5 1_555 1_555
O3_9 Tb9_4 1_555 1_555
O28_5 C1_9 1_555 1_555
C1_9 O3_9 1_555 1_555
C2_9 C1_9 1_555 1_555
C3_9 C2_9 1_555 1_555
H3_9 C3_9 1_555 1_555
C4_9 C3_9 1_555 1_555
C5_9 C4_9 1_555 1_555
S1_9 C2_9 1_555 1_555
O5_3 Tb9_4 1_555 1_555
O6_9 C6_9 1_555 1_555
C6_9 O5_3 1_555 1_555
C7_9 C6_9 1_555 1_555
C8_9 C7_9 1_555 1_555
H4_9 C8_9 1_555 1_555
C9_9 C8_9 1_555 1_555
H5_9 C9_9 1_555 1_555
C10_9 C9_9 1_555 1_555
C11_9 C10_9 1_555 1_555
H6_9 C11_9 1_555 1_555
C12_9 C7_9 1_555 1_555
H7_9 C12_9 1_555 1_555
C13_9 C10_9 1_555 1_555
C14_9 C13_9 1_555 1_555
H8_9 C14_9 1_555 1_555
C15_9 C14_9 1_555 1_555
H9_9 C15_9 1_555 1_555
C16_9 C15_9 1_555 1_555
C17_9 C16_9 1_555 1_555
H10_9 C17_9 1_555 1_555
C18_9 C13_9 1_555 1_555
H11_9 C18_9 1_555 1_555
C19_9 C16_9 1_555 1_555
C20_9 C19_9 1_555 1_555
H12_9 C20_9 1_555 1_555
O7_9 Tb9_4 1_555 1_555
C21_9 O7_9 1_555 1_555
H13_9 C21_9 1_555 1_555
N1_9 C21_9 1_555 1_555
C22_9 N1_9 1_555 1_555
H14_9 C22_9 1_555 1_555
H15_9 C22_9 1_555 1_555
H16_9 C22_9 1_555 1_555
C23_9 N1_9 1_555 1_555
H17_9 C23_9 1_555 1_555
H18_9 C23_9 1_555 1_555
H19_9 C23_9 1_555 1_555
O8_9 C24_9 1_555 1_555
O9_8 C24_9 1_555 1_555
C24_9 C25_9 1_555 1_555
C25_9 C26_9 1_555 1_555
C26_9 H20_9 1_555 1_555
C27_9 C5_9 1_555 1_555
C28_9 C27_9 1_555 1_555
S2_9 C25_9 1_555 1_555
O10_9 C29_9 1_555 1_555
O30_4 C29_9 1_555 1_555
C29_9 C30_9 1_555 1_555
C30_9 C31_9 1_555 1_555
C31_9 H21_9 1_555 1_555
C32_9 C28_9 1_555 1_555
C33_9 C4_9 1_555 1_555
S3_9 C30_9 1_555 1_555
O13_9 C34_9 1_555 1_555
C34_9 C35_9 1_555 1_555
C39_9 C38_9 1_555 1_555
H24_9 C39_9 1_555 1_555
C40_9 C35_9 1_555 1_555
H25_9 C40_9 1_555 1_555
C41_9 C38_9 1_555 1_555
C45_9 C44_9 1_555 1_555
H28_9 C45_9 1_555 1_555
C46_9 C41_9 1_555 1_555
H29_9 C46_9 1_555 1_555
C47_9 C20_9 1_555 1_555
C48_9 C47_9 1_555 1_555
C62_9 C48_9 1_555 1_555
C63_9 C19_9 1_555 1_555
H39_9 C63_9 1_555 1_555
Tb6_5 O8_9 1_555 1_555
O16_8 Tb6_5 1_555 1_555
H40_9 O16_8 1_555 1_555
O17_9 Tb6_5 1_555 1_555
C64_9 O17_9 1_555 1_555
H41_9 C64_9 1_555 1_555
N2_9 C64_9 1_555 1_555
C65_9 N2_9 1_555 1_555
H42_9 C65_9 1_555 1_555
H43_9 C65_9 1_555 1_555
H44_9 C65_9 1_555 1_555
C66_9 N2_9 1_555 1_555
H45_9 C66_9 1_555 1_555
H46_9 C66_9 1_555 1_555
H47_9 C66_9 1_555 1_555
Tb7_12 O10_9 1_555 1_555
H48_9 O24_4 1_555 1_555
O19_9 Tb7_12 1_555 1_555
C67_9 O19_9 1_555 1_555
H49_9 C67_9 1_555 1_555
N3_9 C67_9 1_555 1_555
C68_9 N3_9 1_555 1_555
H50_9 C68_9 1_555 1_555
H51_9 C68_9 1_555 1_555
H52_9 C68_9 1_555 1_555
C69_9 N3_9 1_555 1_555
H53_9 C69_9 1_555 1_555
H54_9 C69_9 1_555 1_555
H55_9 C69_9 1_555 1_555
Tb7_14 O9_8 1_555 1_555
Tb11_7 O13_9 1_555 1_555
Tb12_7 O16_8 1_555 1_555
Tb13_5 O24_4 1_555 1_555
Tb14_3 O22_5 1_555 1_555
O25_9 Tb7_12 1_555 1_555
O26_9 Tb9_4 1_555 1_555
O27_9 Tb6_5 1_555 1_555
O28_8 Tb7_12 1_555 1_555
O31_7 Tb6_5 1_555 1_555
O32_5 Tb7_12 1_555 1_555
O33_9 Tb7_12 1_555 1_555
O34_9 Tb9_4 1_555 1_555
O35_9 Tb6_5 1_555 1_555
C5_9 S1_9 1_555 1_555
O6_9 Tb14_3 1_555 1_555
C11_9 C12_9 1_555 1_555
C17_9 C18_9 1_555 1_555
C26_9 C27_9 1_555 1_555
C28_9 S2_9 1_555 1_555
C31_9 C32_9 1_555 1_555
C32_9 C33_9 1_555 1_555
C33_9 S3_9 1_555 1_555
C39_9 C40_9 1_555 1_555
C44_9 C47_9 1_555 1_555
C45_9 C46_9 1_555 1_555
C62_9 C63_9 1_555 1_555
O16_8 Tb7_14 1_555 1_555
Tb12_7 O27_9 1_555 1_555
Tb13_5 O25_9 1_555 1_555
Tb14_3 O26_9 1_555 1_555
C36_9 H22_9 1_555 1_555
C37_9 C36_9 1_555 1_555
H23_9 C37_9 1_555 1_555
H26_9 C42_9 1_555 1_555
C43_9 C42_9 1_555 1_555
H27_9 C43_9 1_555 1_555
O14_7 C49_9 1_555 1_555
O15_9 C49_9 1_555 1_555
C49_9 C50_9 1_555 1_555
C50_9 C51_9 1_555 1_555
C51_9 H31_9 1_555 1_555
C52_9 C51_9 1_555 1_555
H32_9 C52_9 1_555 1_555
C53_9 C52_9 1_555 1_555
C54_9 C53_9 1_555 1_555
H33_9 C54_9 1_555 1_555
C55_9 C50_9 1_555 1_555
H34_9 C55_9 1_555 1_555
C56_9 C53_9 1_555 1_555
C57_9 C56_9 1_555 1_555
H35_9 C57_9 1_555 1_555
C58_9 C57_9 1_555 1_555
H36_9 C58_9 1_555 1_555
C59_9 C58_9 1_555 1_555
C60_9 C59_9 1_555 1_555
H37_9 C60_9 1_555 1_555
C61_9 C56_9 1_555 1_555
H38_9 C61_9 1_555 1_555
Tb7_11 O12_7 1_555 1_555
Tb6_6 O14_7 1_555 1_555
Tb10_7 O15_9 1_555 1_555
C54_9 C55_9 1_555 1_555
C60_9 C61_9 1_555 1_555
O6_10 C6_10 1_555 1_555
C6_10 O31_7 1_555 1_555
C7_10 C6_10 1_555 1_555
C8_10 C7_10 1_555 1_555
H4_10 C8_10 1_555 1_555
C9_10 C8_10 1_555 1_555
H5_10 C9_10 1_555 1_555
C10_10 C9_10 1_555 1_555
C11_10 C10_10 1_555 1_555
H6_10 C11_10 1_555 1_555
C12_10 C7_10 1_555 1_555
H7_10 C12_10 1_555 1_555
C13_10 C10_10 1_555 1_555
C14_10 C13_10 1_555 1_555
H8_10 C14_10 1_555 1_555
C15_10 C14_10 1_555 1_555
H9_10 C15_10 1_555 1_555
C16_10 C15_10 1_555 1_555
C17_10 C16_10 1_555 1_555
H10_10 C17_10 1_555 1_555
C18_10 C13_10 1_555 1_555
H11_10 C18_10 1_555 1_555
C19_10 C16_10 1_555 1_555
C20_10 C19_10 1_555 1_555
H12_10 C20_10 1_555 1_555
O12_8 C34_10 1_555 1_555
O13_10 C34_10 1_555 1_555
C34_10 C35_10 1_555 1_555
C35_10 C36_10 1_555 1_555
C36_10 H22_10 1_555 1_555
C37_10 C36_10 1_555 1_555
H23_10 C37_10 1_555 1_555
C38_10 C37_10 1_555 1_555
C39_10 C38_10 1_555 1_555
H24_10 C39_10 1_555 1_555
C40_10 C35_10 1_555 1_555
H25_10 C40_10 1_555 1_555
C41_10 C38_10 1_555 1_555
C42_10 C41_10 1_555 1_555
H26_10 C42_10 1_555 1_555
C43_10 C42_10 1_555 1_555
H27_10 C43_10 1_555 1_555
C44_10 C43_10 1_555 1_555
C45_10 C44_10 1_555 1_555
H28_10 C45_10 1_555 1_555
C46_10 C41_10 1_555 1_555
H29_10 C46_10 1_555 1_555
C47_10 C20_10 1_555 1_555
C48_10 C47_10 1_555 1_555
H30_10 C48_10 1_555 1_555
O14_8 C49_10 1_555 1_555
O15_10 C49_10 1_555 1_555
C49_10 C50_10 1_555 1_555
C50_10 C51_10 1_555 1_555
C51_10 H31_10 1_555 1_555
C52_10 C51_10 1_555 1_555
H32_10 C52_10 1_555 1_555
C53_10 C52_10 1_555 1_555
C54_10 C53_10 1_555 1_555
H33_10 C54_10 1_555 1_555
C55_10 C50_10 1_555 1_555
H34_10 C55_10 1_555 1_555
C56_10 C53_10 1_555 1_555
C57_10 C56_10 1_555 1_555
H35_10 C57_10 1_555 1_555
C58_10 C57_10 1_555 1_555
H36_10 C58_10 1_555 1_555
C59_10 C58_10 1_555 1_555
C60_10 C59_10 1_555 1_555
H37_10 C60_10 1_555 1_555
C61_10 C56_10 1_555 1_555
H38_10 C61_10 1_555 1_555
C62_10 C48_10 1_555 1_555
C63_10 C19_10 1_555 1_555
H39_10 C63_10 1_555 1_555
Tb9_2 O12_8 1_555 1_555
Tb7 O14_8 1_555 1_555
Tb10_8 O15_10 1_555 1_555
Tb11_8 O13_10 1_555 1_555
O6_10 Tb12_7 1_555 1_555
C11_10 C12_10 1_555 1_555
C17_10 C18_10 1_555 1_555
C39_10 C40_10 1_555 1_555
C44_10 C47_10 1_555 1_555
C45_10 C46_10 1_555 1_555
C54_10 C55_10 1_555 1_555
C59_10 C62_10 1_555 1_555
C60_10 C61_10 1_555 1_555
C62_10 C63_10 1_555 1_555
Tb6_4 O22_8 1_555 1_555
O6_11 C6_11 1_555 1_555
C6_11 O32_5 1_555 1_555
C7_11 C6_11 1_555 1_555
C8_11 C7_11 1_555 1_555
H4_11 C8_11 1_555 1_555
C9_11 C8_11 1_555 1_555
H5_11 C9_11 1_555 1_555
C10_11 C9_11 1_555 1_555
C11_11 C10_11 1_555 1_555
H6_11 C11_11 1_555 1_555
C12_11 C7_11 1_555 1_555
H7_11 C12_11 1_555 1_555
C13_11 C10_11 1_555 1_555
C14_11 C13_11 1_555 1_555
H8_11 C14_11 1_555 1_555
C15_11 C14_11 1_555 1_555
H9_11 C15_11 1_555 1_555
C16_11 C15_11 1_555 1_555
C17_11 C16_11 1_555 1_555
H10_11 C17_11 1_555 1_555
C18_11 C13_11 1_555 1_555
H11_11 C18_11 1_555 1_555
C19_11 C16_11 1_555 1_555
C20_11 C19_11 1_555 1_555
H12_11 C20_11 1_555 1_555
O12_9 C34_11 1_555 1_555
O13_11 C34_11 1_555 1_555
C34_11 C35_11 1_555 1_555
C35_11 C36_11 1_555 1_555
C36_11 H22_11 1_555 1_555
C37_11 C36_11 1_555 1_555
H23_11 C37_11 1_555 1_555
C38_11 C37_11 1_555 1_555
C39_11 C38_11 1_555 1_555
H24_11 C39_11 1_555 1_555
C40_11 C35_11 1_555 1_555
H25_11 C40_11 1_555 1_555
C41_11 C38_11 1_555 1_555
C42_11 C41_11 1_555 1_555
H26_11 C42_11 1_555 1_555
C43_11 C42_11 1_555 1_555
H27_11 C43_11 1_555 1_555
C44_11 C43_11 1_555 1_555
C45_11 C44_11 1_555 1_555
H28_11 C45_11 1_555 1_555
C46_11 C41_11 1_555 1_555
H29_11 C46_11 1_555 1_555
C47_11 C20_11 1_555 1_555
C48_11 C47_11 1_555 1_555
H30_11 C48_11 1_555 1_555
O14_9 C49_11 1_555 1_555
O15_11 C49_11 1_555 1_555
C49_11 C50_11 1_555 1_555
C50_11 C51_11 1_555 1_555
C51_11 H31_11 1_555 1_555
C52_11 C51_11 1_555 1_555
H32_11 C52_11 1_555 1_555
C53_11 C52_11 1_555 1_555
C54_11 C53_11 1_555 1_555
H33_11 C54_11 1_555 1_555
C55_11 C50_11 1_555 1_555
H34_11 C55_11 1_555 1_555
C56_11 C53_11 1_555 1_555
C57_11 C56_11 1_555 1_555
H35_11 C57_11 1_555 1_555
C58_11 C57_11 1_555 1_555
H36_11 C58_11 1_555 1_555
C59_11 C58_11 1_555 1_555
C60_11 C59_11 1_555 1_555
H37_11 C60_11 1_555 1_555
C61_11 C56_11 1_555 1_555
H38_11 C61_11 1_555 1_555
C62_11 C48_11 1_555 1_555
C63_11 C19_11 1_555 1_555
H39_11 C63_11 1_555 1_555
Tb8_5 O12_9 1_555 1_555
Tb6_3 O14_9 1_555 1_555
Tb10_9 O15_11 1_555 1_555
Tb11_9 O13_11 1_555 1_555
O6_11 Tb13_5 1_555 1_555
C11_11 C12_11 1_555 1_555
C17_11 C18_11 1_555 1_555
C39_11 C40_11 1_555 1_555
C44_11 C47_11 1_555 1_555
C45_11 C46_11 1_555 1_555
C54_11 C55_11 1_555 1_555
C59_11 C62_11 1_555 1_555
C60_11 C61_11 1_555 1_555
C62_11 C63_11 1_555 1_555
H2_10 O22_3 1_555 1_555
H40_10 O24_5 1_555 1_555
O17_10 Tb6_3 1_555 1_555
C64_10 O17_10 1_555 1_555
H41_10 C64_10 1_555 1_555
N2_10 C64_10 1_555 1_555
C65_10 N2_10 1_555 1_555
H42_10 C65_10 1_555 1_555
H43_10 C65_10 1_555 1_555
H44_10 C65_10 1_555 1_555
C66_10 N2_10 1_555 1_555
H45_10 C66_10 1_555 1_555
H46_10 C66_10 1_555 1_555
H47_10 C66_10 1_555 1_555
Tb10_9 O24_5 1_555 1_555
Tb11_7 O22_3 1_555 1_555
O27_10 Tb6_3 1_555 1_555
O35_10 Tb6_3 1_555 1_555
Tb10_9 O27_10 1_555 1_555
Tb8_3 O23_7 1_555 1_555
O3_10 Tb7_11 1_555 1_555
C1_10 O3_10 1_555 1_555
C2_10 C1_10 1_555 1_555
C3_10 C2_10 1_555 1_555
H3_10 C3_10 1_555 1_555
C4_10 C3_10 1_555 1_555
C5_10 C4_10 1_555 1_555
S1_10 C2_10 1_555 1_555
O7_10 Tb7_11 1_555 1_555
C21_10 O7_10 1_555 1_555
H13_10 C21_10 1_555 1_555
N1_10 C21_10 1_555 1_555
C22_10 N1_10 1_555 1_555
H14_10 C22_10 1_555 1_555
H15_10 C22_10 1_555 1_555
H16_10 C22_10 1_555 1_555
C23_10 N1_10 1_555 1_555
H17_10 C23_10 1_555 1_555
H18_10 C23_10 1_555 1_555
H19_10 C23_10 1_555 1_555
O8_10 C24_10 1_555 1_555
O30_5 C24_10 1_555 1_555
C24_10 C25_10 1_555 1_555
C25_10 C26_10 1_555 1_555
C26_10 H20_10 1_555 1_555
C27_10 C5_10 1_555 1_555
C28_10 C27_10 1_555 1_555
S2_10 C25_10 1_555 1_555
O10_10 C29_10 1_555 1_555
O11_7 C29_10 1_555 1_555
C29_10 C30_10 1_555 1_555
C30_10 C31_10 1_555 1_555
C31_10 H21_10 1_555 1_555
C32_10 C28_10 1_555 1_555
C33_10 C4_10 1_555 1_555
S3_10 C30_10 1_555 1_555
Tb9_5 O10_10 1_555 1_555
O18_7 Tb9_5 1_555 1_555
H48_10 O18_7 1_555 1_555
O19_10 Tb9_5 1_555 1_555
C67_10 O19_10 1_555 1_555
H49_10 C67_10 1_555 1_555
N3_10 C67_10 1_555 1_555
C68_10 N3_10 1_555 1_555
H50_10 C68_10 1_555 1_555
H51_10 C68_10 1_555 1_555
H52_10 C68_10 1_555 1_555
C69_10 N3_10 1_555 1_555
H53_10 C69_10 1_555 1_555
H54_10 C69_10 1_555 1_555
H55_10 C69_10 1_555 1_555
Tb7_13 O11_7 1_555 1_555
Tb13_6 O18_7 1_555 1_555
O25_10 Tb9_5 1_555 1_555
O26_10 Tb7_11 1_555 1_555
O29_7 Tb7_11 1_555 1_555
O32_6 Tb9_5 1_555 1_555
O33_10 Tb9_5 1_555 1_555
O34_10 Tb7_11 1_555 1_555
C5_10 S1_10 1_555 1_555
C26_10 C27_10 1_555 1_555
C28_10 S2_10 1_555 1_555
C31_10 C32_10 1_555 1_555
C32_10 C33_10 1_555 1_555
C33_10 S3_10 1_555 1_555
O18_7 Tb7_13 1_555 1_555
Tb13_6 O25_10 1_555 1_555
H40_11 O24_2 1_555 1_555
H48_11 O22_7 1_555 1_555
O19_11 Tb9_2 1_555 1_555
C67_11 O19_11 1_555 1_555
H49_11 C67_11 1_555 1_555
N3_11 C67_11 1_555 1_555
C68_11 N3_11 1_555 1_555
H50_11 C68_11 1_555 1_555
H51_11 C68_11 1_555 1_555
H52_11 C68_11 1_555 1_555
C69_11 N3_11 1_555 1_555
H53_11 C69_11 1_555 1_555
H54_11 C69_11 1_555 1_555
H55_11 C69_11 1_555 1_555
Tb12_8 O24_2 1_555 1_555
Tb11_8 O22_7 1_555 1_555
O25_11 Tb9_2 1_555 1_555
O33_11 Tb9_2 1_555 1_555
Tb11_8 O25_11 1_555 1_555
O2_8 Tb6_6 1_555 1_555
H2_11 O2_8 1_555 1_555
O3_11 Tb6_6 1_555 1_555
O4_8 C1_11 1_555 1_555
C1_11 O3_11 1_555 1_555
C2_11 C1_11 1_555 1_555
C3_11 C2_11 1_555 1_555
H3_11 C3_11 1_555 1_555
C4_11 C3_11 1_555 1_555
C5_11 C4_11 1_555 1_555
S1_11 C2_11 1_555 1_555
O7_11 Tb6_6 1_555 1_555
C21_11 O7_11 1_555 1_555
H13_11 C21_11 1_555 1_555
N1_11 C21_11 1_555 1_555
C22_11 N1_11 1_555 1_555
H14_11 C22_11 1_555 1_555
H15_11 C22_11 1_555 1_555
H16_11 C22_11 1_555 1_555
C23_11 N1_11 1_555 1_555
H17_11 C23_11 1_555 1_555
H18_11 C23_11 1_555 1_555
H19_11 C23_11 1_555 1_555
O8_11 C24_11 1_555 1_555
C24_11 C25_11 1_555 1_555
C25_11 C26_11 1_555 1_555
C26_11 H20_11 1_555 1_555
C27_11 C5_11 1_555 1_555
C28_11 C27_11 1_555 1_555
S2_11 C25_11 1_555 1_555
O10_11 C29_11 1_555 1_555
O28_7 C29_11 1_555 1_555
C29_11 C30_11 1_555 1_555
C30_11 C31_11 1_555 1_555
C31_11 H21_11 1_555 1_555
C32_11 C28_11 1_555 1_555
C33_11 C4_11 1_555 1_555
S3_11 C30_11 1_555 1_555
Tb7_10 O8_11 1_555 1_555
O17_11 Tb7_10 1_555 1_555
C64_11 O17_11 1_555 1_555
H41_11 C64_11 1_555 1_555
N2_11 C64_11 1_555 1_555
C65_11 N2_11 1_555 1_555
H42_11 C65_11 1_555 1_555
H43_11 C65_11 1_555 1_555
H44_11 C65_11 1_555 1_555
C66_11 N2_11 1_555 1_555
H45_11 C66_11 1_555 1_555
H46_11 C66_11 1_555 1_555
H47_11 C66_11 1_555 1_555
Tb10_7 O2_8 1_555 1_555
O24_8 Tb7_10 1_555 1_555
O26_11 Tb6_6 1_555 1_555
O27_11 Tb7_10 1_555 1_555
O30_8 Tb7_10 1_555 1_555
O31_8 Tb7_10 1_555 1_555
O34_11 Tb6_6 1_555 1_555
O35_11 Tb7_10 1_555 1_555
O2_8 Tb7_16 1_555 1_555
O4_8 Tb7_16 1_555 1_555
C5_11 S1_11 1_555 1_555
C26_11 C27_11 1_555 1_555
C28_11 S2_11 1_555 1_555
C31_11 C32_11 1_555 1_555
C32_11 C33_11 1_555 1_555
C33_11 S3_11 1_555 1_555
Tb10_7 O26_11 1_555 1_555
H2_12 O23 1_555 1_555
O3_12 Tb7 1_555 1_555
O29 C1_12 1_555 1_555
C1_12 O3_12 1_555 1_555
C2_12 C1_12 1_555 1_555
C3_12 C2_12 1_555 1_555
H3_12 C3_12 1_555 1_555
C4_12 C3_12 1_555 1_555
C5_12 C4_12 1_555 1_555
S1_12 C2_12 1_555 1_555
O7_12 Tb7 1_555 1_555
C21_12 O7_12 1_555 1_555
H13_12 C21_12 1_555 1_555
N1_12 C21_12 1_555 1_555
C22_12 N1_12 1_555 1_555
H14_12 C22_12 1_555 1_555
H15_12 C22_12 1_555 1_555
H16_12 C22_12 1_555 1_555
C23_12 N1_12 1_555 1_555
H17_12 C23_12 1_555 1_555
H18_12 C23_12 1_555 1_555
H19_12 C23_12 1_555 1_555
O8_12 C24_12 1_555 1_555
O29_6 C24_12 1_555 1_555
C24_12 C25_12 1_555 1_555
C25_12 C26_12 1_555 1_555
C26_12 H20_12 1_555 1_555
C27_12 C5_12 1_555 1_555
C28_12 C27_12 1_555 1_555
S2_12 C25_12 1_555 1_555
O10_12 C29_12 1_555 1_555
O11_8 C29_12 1_555 1_555
C29_12 C30_12 1_555 1_555
C30_12 C31_12 1_555 1_555
C31_12 H21_12 1_555 1_555
C32_12 C28_12 1_555 1_555
C33_12 C4_12 1_555 1_555
S3_12 C30_12 1_555 1_555
Tb8 O8_12 1_555 1_555
H40_12 O23_6 1_555 1_555
O17_12 Tb8 1_555 1_555
C64_12 O17_12 1_555 1_555
H41_12 C64_12 1_555 1_555
N2_12 C64_12 1_555 1_555
C65_12 N2_12 1_555 1_555
H42_12 C65_12 1_555 1_555
H43_12 C65_12 1_555 1_555
H44_12 C65_12 1_555 1_555
C66_12 N2_12 1_555 1_555
H45_12 C66_12 1_555 1_555
H46_12 C66_12 1_555 1_555
H47_12 C66_12 1_555 1_555
Tb8_5 O10_12 1_555 1_555
O18_8 Tb8_5 1_555 1_555
H48_12 O18_8 1_555 1_555
O19_12 Tb8_5 1_555 1_555
C67_12 O19_12 1_555 1_555
H49_12 C67_12 1_555 1_555
N3_12 C67_12 1_555 1_555
C68_12 N3_12 1_555 1_555
H50_12 C68_12 1_555 1_555
H51_12 C68_12 1_555 1_555
H52_12 C68_12 1_555 1_555
C69_12 N3_12 1_555 1_555
H53_12 C69_12 1_555 1_555
H54_12 C69_12 1_555 1_555
H55_12 C69_12 1_555 1_555
Tb7_15 O11_8 1_555 1_555
Tb12_9 O23_6 1_555 1_555
Tb11_9 O18_8 1_555 1_555
Tb10_8 O23 1_555 1_555
O23_8 Tb7 1_555 1_555
O25_12 Tb8_5 1_555 1_555
O26_12 Tb7 1_555 1_555
O27_12 Tb8 1_555 1_555
O29_8 Tb7 1_555 1_555
O31_9 Tb8 1_555 1_555
O33_12 Tb8_5 1_555 1_555
O34_12 Tb7 1_555 1_555
O35_12 Tb8 1_555 1_555
C5_12 S1_12 1_555 1_555
C26_12 C27_12 1_555 1_555
C28_12 S2_12 1_555 1_555
C31_12 C32_12 1_555 1_555
C32_12 C33_12 1_555 1_555
C33_12 S3_12 1_555 1_555
O18_8 Tb7_15 1_555 1_555
Tb9 O23_8 1_555 1_555
Tb12_9 O27_12 1_555 1_555
Tb11_9 O25_12 1_555 1_555
Tb10_8 O26_12 1_555 1_555
C20_12 C19_12 1_555 1_555
H12_12 C20_12 1_555 1_555
O31_9 C34_12 1_555 1_555
O13_12 C34_12 1_555 1_555
C34_12 C35_12 1_555 1_555
C35_12 C36_12 1_555 1_555
C36_12 H22_12 1_555 1_555
C37_12 C36_12 1_555 1_555
H23_12 C37_12 1_555 1_555
C38_12 C37_12 1_555 1_555
C39_12 C38_12 1_555 1_555
H24_12 C39_12 1_555 1_555
C40_12 C35_12 1_555 1_555
H25_12 C40_12 1_555 1_555
C41_12 C38_12 1_555 1_555
C42_12 C41_12 1_555 1_555
H26_12 C42_12 1_555 1_555
C43_12 C42_12 1_555 1_555
H27_12 C43_12 1_555 1_555
C44_12 C43_12 1_555 1_555
C45_12 C44_12 1_555 1_555
H28_12 C45_12 1_555 1_555
C46_12 C41_12 1_555 1_555
H29_12 C46_12 1_555 1_555
C47_12 C20_12 1_555 1_555
C48_12 C47_12 1_555 1_555
H30_12 C48_12 1_555 1_555
O15_12 C49_12 1_555 1_555
C49_12 C50_12 1_555 1_555
C54_12 C53_12 1_555 1_555
H33_12 C54_12 1_555 1_555
C55_12 C50_12 1_555 1_555
H34_12 C55_12 1_555 1_555
C56_12 C53_12 1_555 1_555
C60_12 C59_12 1_555 1_555
H37_12 C60_12 1_555 1_555
C61_12 C56_12 1_555 1_555
H38_12 C61_12 1_555 1_555
C62_12 C48_12 1_555 1_555
C63_12 C19_12 1_555 1_555
Tb12_8 O15_12 1_555 1_555
Tb12_9 O13_12 1_555 1_555
C39_12 C40_12 1_555 1_555
C44_12 C47_12 1_555 1_555
C45_12 C46_12 1_555 1_555
C54_12 C55_12 1_555 1_555
C59_12 C62_12 1_555 1_555
C60_12 C61_12 1_555 1_555
C62_12 C63_12 1_555 1_555
O6_12 C6_12 1_555 1_555
C6_12 O32_6 1_555 1_555
C7_12 C6_12 1_555 1_555
C8_12 C7_12 1_555 1_555
H4_12 C8_12 1_555 1_555
C9_12 C8_12 1_555 1_555
H5_12 C9_12 1_555 1_555
C10_12 C9_12 1_555 1_555
C11_12 C10_12 1_555 1_555
H6_12 C11_12 1_555 1_555
C12_12 C7_12 1_555 1_555
H7_12 C12_12 1_555 1_555
C13_12 C10_12 1_555 1_555
C14_12 C13_12 1_555 1_555
H8_12 C14_12 1_555 1_555
C15_12 C14_12 1_555 1_555
H9_12 C15_12 1_555 1_555
C16_12 C15_12 1_555 1_555
C17_12 C16_12 1_555 1_555
H10_12 C17_12 1_555 1_555
C18_12 C13_12 1_555 1_555
H11_12 C18_12 1_555 1_555
C51_12 H31_12 1_555 1_555
C52_12 C51_12 1_555 1_555
H32_12 C52_12 1_555 1_555
H35_12 C57_12 1_555 1_555
C58_12 C57_12 1_555 1_555
H36_12 C58_12 1_555 1_555
O6_12 Tb13_6 1_555 1_555
C11_12 C12_12 1_555 1_555
C17_12 C18_12 1_555 1_555
Tb6_2 O24_8 1_555 1_555
H2_13 O22_2 1_555 1_555
O3_13 Tb7_7 1_555 1_555
O28_2 C1_13 1_555 1_555
C1_13 O3_13 1_555 1_555
C2_13 C1_13 1_555 1_555
C3_13 C2_13 1_555 1_555
H3_13 C3_13 1_555 1_555
C4_13 C3_13 1_555 1_555
C5_13 C4_13 1_555 1_555
S1_13 C2_13 1_555 1_555
O5_4 Tb7_7 1_555 1_555
O6_13 C6_13 1_555 1_555
C6_13 O5_4 1_555 1_555
C7_13 C6_13 1_555 1_555
C8_13 C7_13 1_555 1_555
H4_13 C8_13 1_555 1_555
C9_13 C8_13 1_555 1_555
H5_13 C9_13 1_555 1_555
C10_13 C9_13 1_555 1_555
C11_13 C10_13 1_555 1_555
H6_13 C11_13 1_555 1_555
C12_13 C7_13 1_555 1_555
H7_13 C12_13 1_555 1_555
C13_13 C10_13 1_555 1_555
C14_13 C13_13 1_555 1_555
H8_13 C14_13 1_555 1_555
C15_13 C14_13 1_555 1_555
H9_13 C15_13 1_555 1_555
C16_13 C15_13 1_555 1_555
C17_13 C16_13 1_555 1_555
H10_13 C17_13 1_555 1_555
C18_13 C13_13 1_555 1_555
H11_13 C18_13 1_555 1_555
C19_13 C16_13 1_555 1_555
C20_13 C19_13 1_555 1_555
H12_13 C20_13 1_555 1_555
O7_13 Tb7_7 1_555 1_555
C21_13 O7_13 1_555 1_555
H13_13 C21_13 1_555 1_555
N1_13 C21_13 1_555 1_555
C22_13 N1_13 1_555 1_555
H14_13 C22_13 1_555 1_555
H15_13 C22_13 1_555 1_555
H16_13 C22_13 1_555 1_555
C23_13 N1_13 1_555 1_555
H17_13 C23_13 1_555 1_555
H18_13 C23_13 1_555 1_555
H19_13 C23_13 1_555 1_555
O8_13 C24_13 1_555 1_555
O30_8 C24_13 1_555 1_555
C24_13 C25_13 1_555 1_555
C25_13 C26_13 1_555 1_555
C26_13 H20_13 1_555 1_555
C27_13 C5_13 1_555 1_555
C28_13 C27_13 1_555 1_555
S2_13 C25_13 1_555 1_555
O10_13 C29_13 1_555 1_555
O30_7 C29_13 1_555 1_555
C29_13 C30_13 1_555 1_555
C30_13 C31_13 1_555 1_555
C31_13 H21_13 1_555 1_555
C32_13 C28_13 1_555 1_555
C33_13 C4_13 1_555 1_555
S3_13 C30_13 1_555 1_555
O12_10 C34_13 1_555 1_555
O13_13 C34_13 1_555 1_555
C34_13 C35_13 1_555 1_555
C35_13 C36_13 1_555 1_555
C36_13 H22_13 1_555 1_555
C37_13 C36_13 1_555 1_555
H23_13 C37_13 1_555 1_555
C38_13 C37_13 1_555 1_555
C39_13 C38_13 1_555 1_555
H24_13 C39_13 1_555 1_555
C40_13 C35_13 1_555 1_555
H25_13 C40_13 1_555 1_555
C41_13 C38_13 1_555 1_555
C42_13 C41_13 1_555 1_555
H26_13 C42_13 1_555 1_555
C43_13 C42_13 1_555 1_555
H27_13 C43_13 1_555 1_555
C44_13 C43_13 1_555 1_555
C45_13 C44_13 1_555 1_555
H28_13 C45_13 1_555 1_555
C46_13 C41_13 1_555 1_555
H29_13 C46_13 1_555 1_555
C47_13 C20_13 1_555 1_555
C48_13 C47_13 1_555 1_555
H30_13 C48_13 1_555 1_555
O14_10 C49_13 1_555 1_555
O15_13 C49_13 1_555 1_555
C49_13 C50_13 1_555 1_555
C50_13 C51_13 1_555 1_555
C51_13 H31_13 1_555 1_555
C52_13 C51_13 1_555 1_555
H32_13 C52_13 1_555 1_555
C53_13 C52_13 1_555 1_555
C54_13 C53_13 1_555 1_555
H33_13 C54_13 1_555 1_555
C55_13 C50_13 1_555 1_555
H34_13 C55_13 1_555 1_555
C56_13 C53_13 1_555 1_555
C57_13 C56_13 1_555 1_555
H35_13 C57_13 1_555 1_555
C58_13 C57_13 1_555 1_555
H36_13 C58_13 1_555 1_555
C59_13 C58_13 1_555 1_555
C60_13 C59_13 1_555 1_555
H37_13 C60_13 1_555 1_555
C61_13 C56_13 1_555 1_555
H38_13 C61_13 1_555 1_555
C62_13 C48_13 1_555 1_555
C63_13 C19_13 1_555 1_555
H39_13 C63_13 1_555 1_555
Tb6_2 O8_13 1_555 1_555
H40_13 O24_8 1_555 1_555
O17_13 Tb6_2 1_555 1_555
C64_13 O17_13 1_555 1_555
H41_13 C64_13 1_555 1_555
N2_13 C64_13 1_555 1_555
C65_13 N2_13 1_555 1_555
H42_13 C65_13 1_555 1_555
H43_13 C65_13 1_555 1_555
H44_13 C65_13 1_555 1_555
C66_13 N2_13 1_555 1_555
H45_13 C66_13 1_555 1_555
H46_13 C66_13 1_555 1_555
H47_13 C66_13 1_555 1_555
Tb7_16 O10_13 1_555 1_555
H48_13 O24_7 1_555 1_555
O19_13 Tb7_16 1_555 1_555
C67_13 O19_13 1_555 1_555
H49_13 C67_13 1_555 1_555
N3_13 C67_13 1_555 1_555
C68_13 N3_13 1_555 1_555
H50_13 C68_13 1_555 1_555
H51_13 C68_13 1_555 1_555
H52_13 C68_13 1_555 1_555
C69_13 N3_13 1_555 1_555
H53_13 C69_13 1_555 1_555
H54_13 C69_13 1_555 1_555
H55_13 C69_13 1_555 1_555
Tb7_15 O12_10 1_555 1_555
Tb6_4 O14_10 1_555 1_555
Tb10_10 O15_13 1_555 1_555
Tb11_10 O13_13 1_555 1_555
Tb12_10 O24_8 1_555 1_555
Tb13_7 O24_7 1_555 1_555
Tb14_4 O22_2 1_555 1_555
O25_13 Tb7_16 1_555 1_555
O26_13 Tb7_7 1_555 1_555
O27_13 Tb6_2 1_555 1_555
O31_10 Tb6_2 1_555 1_555
O32_7 Tb7_16 1_555 1_555
O33_13 Tb7_16 1_555 1_555
O34_13 Tb7_7 1_555 1_555
O35_13 Tb6_2 1_555 1_555
C5_13 S1_13 1_555 1_555
O6_13 Tb14_4 1_555 1_555
C11_13 C12_13 1_555 1_555
C17_13 C18_13 1_555 1_555
C26_13 C27_13 1_555 1_555
C28_13 S2_13 1_555 1_555
C31_13 C32_13 1_555 1_555
C32_13 C33_13 1_555 1_555
C33_13 S3_13 1_555 1_555
C39_13 C40_13 1_555 1_555
C44_13 C47_13 1_555 1_555
C45_13 C46_13 1_555 1_555
C54_13 C55_13 1_555 1_555
C59_13 C62_13 1_555 1_555
C60_13 C61_13 1_555 1_555
C62_13 C63_13 1_555 1_555
Tb12_10 O27_13 1_555 1_555
Tb13_7 O25_13 1_555 1_555
Tb14_4 O26_13 1_555 1_555
O6_14 C6_14 1_555 1_555
C6_14 O31_10 1_555 1_555
C7_14 C6_14 1_555 1_555
C8_14 C7_14 1_555 1_555
H4_14 C8_14 1_555 1_555
C9_14 C8_14 1_555 1_555
H5_14 C9_14 1_555 1_555
C10_14 C9_14 1_555 1_555
C11_14 C10_14 1_555 1_555
H6_14 C11_14 1_555 1_555
C12_14 C7_14 1_555 1_555
H7_14 C12_14 1_555 1_555
C13_14 C10_14 1_555 1_555
C14_14 C13_14 1_555 1_555
H8_14 C14_14 1_555 1_555
C15_14 C14_14 1_555 1_555
H9_14 C15_14 1_555 1_555
C16_14 C15_14 1_555 1_555
C17_14 C16_14 1_555 1_555
H10_14 C17_14 1_555 1_555
C18_14 C13_14 1_555 1_555
H11_14 C18_14 1_555 1_555
C19_14 C16_14 1_555 1_555
C20_14 C19_14 1_555 1_555
H12_14 C20_14 1_555 1_555
O13_14 C34_14 1_555 1_555
C34_14 C35_14 1_555 1_555
C39_14 C38_14 1_555 1_555
H24_14 C39_14 1_555 1_555
C40_14 C35_14 1_555 1_555
H25_14 C40_14 1_555 1_555
C41_14 C38_14 1_555 1_555
C45_14 C44_14 1_555 1_555
H28_14 C45_14 1_555 1_555
C46_14 C41_14 1_555 1_555
H29_14 C46_14 1_555 1_555
C47_14 C20_14 1_555 1_555
C48_14 C47_14 1_555 1_555
C62_14 C48_14 1_555 1_555
C63_14 C19_14 1_555 1_555
H39_14 C63_14 1_555 1_555
Tb11_11 O13_14 1_555 1_555
O6_14 Tb12_10 1_555 1_555
C11_14 C12_14 1_555 1_555
C17_14 C18_14 1_555 1_555
C39_14 C40_14 1_555 1_555
C44_14 C47_14 1_555 1_555
C45_14 C46_14 1_555 1_555
C62_14 C63_14 1_555 1_555
C36_14 H22_14 1_555 1_555
C37_14 C36_14 1_555 1_555
H23_14 C37_14 1_555 1_555
H26_14 C42_14 1_555 1_555
C43_14 C42_14 1_555 1_555
H27_14 C43_14 1_555 1_555
O14_11 C49_14 1_555 1_555
O15_14 C49_14 1_555 1_555
C49_14 C50_14 1_555 1_555
C50_14 C51_14 1_555 1_555
C51_14 H31_14 1_555 1_555
C52_14 C51_14 1_555 1_555
H32_14 C52_14 1_555 1_555
C53_14 C52_14 1_555 1_555
C54_14 C53_14 1_555 1_555
H33_14 C54_14 1_555 1_555
C55_14 C50_14 1_555 1_555
H34_14 C55_14 1_555 1_555
C56_14 C53_14 1_555 1_555
C57_14 C56_14 1_555 1_555
H35_14 C57_14 1_555 1_555
C58_14 C57_14 1_555 1_555
H36_14 C58_14 1_555 1_555
C59_14 C58_14 1_555 1_555
C60_14 C59_14 1_555 1_555
H37_14 C60_14 1_555 1_555
C61_14 C56_14 1_555 1_555
H38_14 C61_14 1_555 1_555
Tb7_8 O12_11 1_555 1_555
Tb7_13 O14_11 1_555 1_555
Tb10_11 O15_14 1_555 1_555
C54_14 C55_14 1_555 1_555
C60_14 C61_14 1_555 1_555
O6_15 C6_15 1_555 1_555
C6_15 O32_7 1_555 1_555
C7_15 C6_15 1_555 1_555
C8_15 C7_15 1_555 1_555
H4_15 C8_15 1_555 1_555
C9_15 C8_15 1_555 1_555
H5_15 C9_15 1_555 1_555
C10_15 C9_15 1_555 1_555
C11_15 C10_15 1_555 1_555
H6_15 C11_15 1_555 1_555
C12_15 C7_15 1_555 1_555
H7_15 C12_15 1_555 1_555
C13_15 C10_15 1_555 1_555
C14_15 C13_15 1_555 1_555
H8_15 C14_15 1_555 1_555
C15_15 C14_15 1_555 1_555
H9_15 C15_15 1_555 1_555
C16_15 C15_15 1_555 1_555
C17_15 C16_15 1_555 1_555
H10_15 C17_15 1_555 1_555
C18_15 C13_15 1_555 1_555
H11_15 C18_15 1_555 1_555
C19_15 C16_15 1_555 1_555
C20_15 C19_15 1_555 1_555
H12_15 C20_15 1_555 1_555
O12_12 C34_15 1_555 1_555
O13_15 C34_15 1_555 1_555
C34_15 C35_15 1_555 1_555
C35_15 C36_15 1_555 1_555
C36_15 H22_15 1_555 1_555
C37_15 C36_15 1_555 1_555
H23_15 C37_15 1_555 1_555
C38_15 C37_15 1_555 1_555
C39_15 C38_15 1_555 1_555
H24_15 C39_15 1_555 1_555
C40_15 C35_15 1_555 1_555
H25_15 C40_15 1_555 1_555
C41_15 C38_15 1_555 1_555
C42_15 C41_15 1_555 1_555
H26_15 C42_15 1_555 1_555
C43_15 C42_15 1_555 1_555
H27_15 C43_15 1_555 1_555
C44_15 C43_15 1_555 1_555
C45_15 C44_15 1_555 1_555
H28_15 C45_15 1_555 1_555
C46_15 C41_15 1_555 1_555
H29_15 C46_15 1_555 1_555
C47_15 C20_15 1_555 1_555
C48_15 C47_15 1_555 1_555
H30_15 C48_15 1_555 1_555
O14_12 C49_15 1_555 1_555
O15_15 C49_15 1_555 1_555
C49_15 C50_15 1_555 1_555
C50_15 C51_15 1_555 1_555
C51_15 H31_15 1_555 1_555
C52_15 C51_15 1_555 1_555
H32_15 C52_15 1_555 1_555
C53_15 C52_15 1_555 1_555
C54_15 C53_15 1_555 1_555
H33_15 C54_15 1_555 1_555
C55_15 C50_15 1_555 1_555
H34_15 C55_15 1_555 1_555
C56_15 C53_15 1_555 1_555
C57_15 C56_15 1_555 1_555
H35_15 C57_15 1_555 1_555
C58_15 C57_15 1_555 1_555
H36_15 C58_15 1_555 1_555
C59_15 C58_15 1_555 1_555
C60_15 C59_15 1_555 1_555
H37_15 C60_15 1_555 1_555
C61_15 C56_15 1_555 1_555
H38_15 C61_15 1_555 1_555
C62_15 C48_15 1_555 1_555
C63_15 C19_15 1_555 1_555
H39_15 C63_15 1_555 1_555
Tb8_3 O12_12 1_555 1_555
Tb7_2 O14_12 1_555 1_555
Tb10_12 O15_15 1_555 1_555
Tb11_12 O13_15 1_555 1_555
O6_15 Tb13_7 1_555 1_555
C11_15 C12_15 1_555 1_555
C17_15 C18_15 1_555 1_555
C39_15 C40_15 1_555 1_555
C44_15 C47_15 1_555 1_555
C45_15 C46_15 1_555 1_555
C54_15 C55_15 1_555 1_555
C59_15 C62_15 1_555 1_555
C60_15 C61_15 1_555 1_555
C62_15 C63_15 1_555 1_555
H2_14 O22_6 1_555 1_555
O3_14 Tb7_15 1_555 1_555
O28_6 C1_14 1_555 1_555
C1_14 O3_14 1_555 1_555
C2_14 C1_14 1_555 1_555
C3_14 C2_14 1_555 1_555
H3_14 C3_14 1_555 1_555
C4_14 C3_14 1_555 1_555
C5_14 C4_14 1_555 1_555
S1_14 C2_14 1_555 1_555
O7_14 Tb7_15 1_555 1_555
C21_14 O7_14 1_555 1_555
H13_14 C21_14 1_555 1_555
N1_14 C21_14 1_555 1_555
C22_14 N1_14 1_555 1_555
H14_14 C22_14 1_555 1_555
H15_14 C22_14 1_555 1_555
H16_14 C22_14 1_555 1_555
C23_14 N1_14 1_555 1_555
H17_14 C23_14 1_555 1_555
H18_14 C23_14 1_555 1_555
H19_14 C23_14 1_555 1_555
O8_14 C24_14 1_555 1_555
O30 C24_14 1_555 1_555
C24_14 C25_14 1_555 1_555
C25_14 C26_14 1_555 1_555
C26_14 H20_14 1_555 1_555
C27_14 C5_14 1_555 1_555
C28_14 C27_14 1_555 1_555
S2_14 C25_14 1_555 1_555
O10_14 C29_14 1_555 1_555
O29_8 C29_14 1_555 1_555
C29_14 C30_14 1_555 1_555
C30_14 C31_14 1_555 1_555
C31_14 H21_14 1_555 1_555
C32_14 C28_14 1_555 1_555
C33_14 C4_14 1_555 1_555
S3_14 C30_14 1_555 1_555
Tb7_2 O8_14 1_555 1_555
H40_14 O24 1_555 1_555
O17_14 Tb7_2 1_555 1_555
C64_14 O17_14 1_555 1_555
H41_14 C64_14 1_555 1_555
N2_14 C64_14 1_555 1_555
C65_14 N2_14 1_555 1_555
H42_14 C65_14 1_555 1_555
H43_14 C65_14 1_555 1_555
H44_14 C65_14 1_555 1_555
C66_14 N2_14 1_555 1_555
H45_14 C66_14 1_555 1_555
H46_14 C66_14 1_555 1_555
H47_14 C66_14 1_555 1_555
Tb9 O10_14 1_555 1_555
H48_14 O23_8 1_555 1_555
O19_14 Tb9 1_555 1_555
C67_14 O19_14 1_555 1_555
H49_14 C67_14 1_555 1_555
N3_14 C67_14 1_555 1_555
C68_14 N3_14 1_555 1_555
H50_14 C68_14 1_555 1_555
H51_14 C68_14 1_555 1_555
H52_14 C68_14 1_555 1_555
C69_14 N3_14 1_555 1_555
H53_14 C69_14 1_555 1_555
H54_14 C69_14 1_555 1_555
H55_14 C69_14 1_555 1_555
Tb10_12 O24 1_555 1_555
Tb13_8 O23_8 1_555 1_555
Tb11_10 O22_6 1_555 1_555
O25_14 Tb9 1_555 1_555
O26_14 Tb7_15 1_555 1_555
O27_14 Tb7_2 1_555 1_555
O32_8 Tb9 1_555 1_555
O33_14 Tb9 1_555 1_555
O34_14 Tb7_15 1_555 1_555
O35_14 Tb7_2 1_555 1_555
C5_14 S1_14 1_555 1_555
C26_14 C27_14 1_555 1_555
C28_14 S2_14 1_555 1_555
C31_14 C32_14 1_555 1_555
C32_14 C33_14 1_555 1_555
C33_14 S3_14 1_555 1_555
Tb10_12 O27_14 1_555 1_555
Tb13_8 O25_14 1_555 1_555
Tb11_10 O26_14 1_555 1_555
H2_15 O22_8 1_555 1_555
O7_15 Tb6_4 1_555 1_555
C21_15 O7_15 1_555 1_555
H13_15 C21_15 1_555 1_555
N1_15 C21_15 1_555 1_555
C22_15 N1_15 1_555 1_555
H14_15 C22_15 1_555 1_555
H15_15 C22_15 1_555 1_555
H16_15 C22_15 1_555 1_555
C23_15 N1_15 1_555 1_555
H17_15 C23_15 1_555 1_555
H18_15 C23_15 1_555 1_555
H19_15 C23_15 1_555 1_555
H48_15 O22_4 1_555 1_555
Tb11_11 O22_4 1_555 1_555
Tb10_10 O22_8 1_555 1_555
O26_15 Tb6_4 1_555 1_555
O34_15 Tb6_4 1_555 1_555
Tb10_10 O26_15 1_555 1_555
O28_8 C1_15 1_555 1_555
C1_15 O3_15 1_555 1_555
C2_15 C1_15 1_555 1_555
C3_15 C2_15 1_555 1_555
H3_15 C3_15 1_555 1_555
C4_15 C3_15 1_555 1_555
C5_15 C4_15 1_555 1_555
S1_15 C2_15 1_555 1_555
O8_15 C24_15 1_555 1_555
O30_6 C24_15 1_555 1_555
C24_15 C25_15 1_555 1_555
C25_15 C26_15 1_555 1_555
C26_15 H20_15 1_555 1_555
C27_15 C5_15 1_555 1_555
C28_15 C27_15 1_555 1_555
S2_15 C25_15 1_555 1_555
O10_15 C29_15 1_555 1_555
C29_15 C30_15 1_555 1_555
C30_15 C31_15 1_555 1_555
C31_15 H21_15 1_555 1_555
C32_15 C28_15 1_555 1_555
C33_15 C4_15 1_555 1_555
S3_15 C30_15 1_555 1_555
Tb7_14 O8_15 1_555 1_555
H40_15 O24_6 1_555 1_555
O17_15 Tb7_14 1_555 1_555
C64_15 O17_15 1_555 1_555
H41_15 C64_15 1_555 1_555
N2_15 C64_15 1_555 1_555
C65_15 N2_15 1_555 1_555
H42_15 C65_15 1_555 1_555
H43_15 C65_15 1_555 1_555
H44_15 C65_15 1_555 1_555
C66_15 N2_15 1_555 1_555
H45_15 C66_15 1_555 1_555
H46_15 C66_15 1_555 1_555
H47_15 C66_15 1_555 1_555
Tb7_8 O10_15 1_555 1_555
O19_15 Tb7_8 1_555 1_555
C67_15 O19_15 1_555 1_555
H49_15 C67_15 1_555 1_555
N3_15 C67_15 1_555 1_555
C68_15 N3_15 1_555 1_555
H50_15 C68_15 1_555 1_555
H51_15 C68_15 1_555 1_555
H52_15 C68_15 1_555 1_555
C69_15 N3_15 1_555 1_555
H53_15 C69_15 1_555 1_555
H54_15 C69_15 1_555 1_555
H55_15 C69_15 1_555 1_555
Tb12_11 O24_6 1_555 1_555
O25_15 Tb7_8 1_555 1_555
O27_15 Tb7_14 1_555 1_555
O31_11 Tb7_14 1_555 1_555
O33_15 Tb7_8 1_555 1_555
O35_15 Tb7_14 1_555 1_555
C5_15 S1_15 1_555 1_555
C26_15 C27_15 1_555 1_555
C28_15 S2_15 1_555 1_555
C31_15 C32_15 1_555 1_555
C32_15 C33_15 1_555 1_555
C33_15 S3_15 1_555 1_555
Tb12_11 O27_15 1_555 1_555
H40_16 O23_3 1_555 1_555
H48_16 O23_7 1_555 1_555
O19_16 Tb8_3 1_555 1_555
C67_16 O19_16 1_555 1_555
H49_16 C67_16 1_555 1_555
N3_16 C67_16 1_555 1_555
C68_16 N3_16 1_555 1_555
H50_16 C68_16 1_555 1_555
H51_16 C68_16 1_555 1_555
H52_16 C68_16 1_555 1_555
C69_16 N3_16 1_555 1_555
H53_16 C69_16 1_555 1_555
H54_16 C69_16 1_555 1_555
H55_16 C69_16 1_555 1_555
Tb12_12 O23_3 1_555 1_555
Tb11_12 O23_7 1_555 1_555
O25_16 Tb8_3 1_555 1_555
O33_16 Tb8_3 1_555 1_555
Tb11_12 O25_16 1_555 1_555
H2_16 O23_5 1_555 1_555
O3_16 Tb7_13 1_555 1_555
O29_5 C1_16 1_555 1_555
C1_16 O3_16 1_555 1_555
C2_16 C1_16 1_555 1_555
C3_16 C2_16 1_555 1_555
H3_16 C3_16 1_555 1_555
C4_16 C3_16 1_555 1_555
C5_16 C4_16 1_555 1_555
S1_16 C2_16 1_555 1_555
O7_16 Tb7_13 1_555 1_555
C21_16 O7_16 1_555 1_555
H13_16 C21_16 1_555 1_555
N1_16 C21_16 1_555 1_555
C22_16 N1_16 1_555 1_555
H14_16 C22_16 1_555 1_555
H15_16 C22_16 1_555 1_555
H16_16 C22_16 1_555 1_555
C23_16 N1_16 1_555 1_555
H17_16 C23_16 1_555 1_555
H18_16 C23_16 1_555 1_555
H19_16 C23_16 1_555 1_555
O8_16 C24_16 1_555 1_555
C24_16 C25_16 1_555 1_555
C25_16 C26_16 1_555 1_555
C26_16 H20_16 1_555 1_555
C27_16 C5_16 1_555 1_555
C28_16 C27_16 1_555 1_555
S2_16 C25_16 1_555 1_555
O10_16 C29_16 1_555 1_555
O29_7 C29_16 1_555 1_555
C29_16 C30_16 1_555 1_555
C30_16 C31_16 1_555 1_555
C31_16 H21_16 1_555 1_555
C32_16 C28_16 1_555 1_555
C33_16 C4_16 1_555 1_555
S3_16 C30_16 1_555 1_555
Tb7_5 O8_16 1_555 1_555
O17_16 Tb7_5 1_555 1_555
C64_16 O17_16 1_555 1_555
H41_16 C64_16 1_555 1_555
N2_16 C64_16 1_555 1_555
C65_16 N2_16 1_555 1_555
H42_16 C65_16 1_555 1_555
H43_16 C65_16 1_555 1_555
H44_16 C65_16 1_555 1_555
C66_16 N2_16 1_555 1_555
H45_16 C66_16 1_555 1_555
H46_16 C66_16 1_555 1_555
H47_16 C66_16 1_555 1_555
Tb10_11 O23_5 1_555 1_555
O26_16 Tb7_13 1_555 1_555
O27_16 Tb7_5 1_555 1_555
O31_12 Tb7_5 1_555 1_555
O34_16 Tb7_13 1_555 1_555
O35_16 Tb7_5 1_555 1_555
C5_16 S1_16 1_555 1_555
C26_16 C27_16 1_555 1_555
C28_16 S2_16 1_555 1_555
C31_16 C32_16 1_555 1_555
C32_16 C33_16 1_555 1_555
C33_16 S3_16 1_555 1_555
Tb10_11 O26_16 1_555 1_555
O6_16 C6_16 1_555 1_555
C6_16 O32_8 1_555 1_555
C7_16 C6_16 1_555 1_555
C8_16 C7_16 1_555 1_555
H4_16 C8_16 1_555 1_555
C9_16 C8_16 1_555 1_555
H5_16 C9_16 1_555 1_555
C10_16 C9_16 1_555 1_555
C11_16 C10_16 1_555 1_555
H6_16 C11_16 1_555 1_555
C12_16 C7_16 1_555 1_555
H7_16 C12_16 1_555 1_555
C13_16 C10_16 1_555 1_555
C14_16 C13_16 1_555 1_555
H8_16 C14_16 1_555 1_555
C15_16 C14_16 1_555 1_555
H9_16 C15_16 1_555 1_555
C16_16 C15_16 1_555 1_555
C17_16 C16_16 1_555 1_555
H10_16 C17_16 1_555 1_555
C18_16 C13_16 1_555 1_555
H11_16 C18_16 1_555 1_555
C19_16 C16_16 1_555 1_555
C20_16 C19_16 1_555 1_555
H12_16 C20_16 1_555 1_555
O13_16 C34_16 1_555 1_555
C34_16 C35_16 1_555 1_555
C39_16 C38_16 1_555 1_555
H24_16 C39_16 1_555 1_555
C40_16 C35_16 1_555 1_555
H25_16 C40_16 1_555 1_555
C41_16 C38_16 1_555 1_555
C45_16 C44_16 1_555 1_555
H28_16 C45_16 1_555 1_555
C46_16 C41_16 1_555 1_555
H29_16 C46_16 1_555 1_555
C47_16 C20_16 1_555 1_555
C48_16 C47_16 1_555 1_555
C62_16 C48_16 1_555 1_555
C63_16 C19_16 1_555 1_555
H39_16 C63_16 1_555 1_555
Tb12_12 O13_16 1_555 1_555
O6_16 Tb13_8 1_555 1_555
C11_16 C12_16 1_555 1_555
C17_16 C18_16 1_555 1_555
C39_16 C40_16 1_555 1_555
C44_16 C47_16 1_555 1_555
C45_16 C46_16 1_555 1_555
C62_16 C63_16 1_555 1_555
C36_16 H22_16 1_555 1_555
C37_16 C36_16 1_555 1_555
H23_16 C37_16 1_555 1_555
H26_16 C42_16 1_555 1_555
C43_16 C42_16 1_555 1_555
H27_16 C43_16 1_555 1_555
O31_11 C49_16 1_555 1_555
O15_16 C49_16 1_555 1_555
C49_16 C50_16 1_555 1_555
C50_16 C51_16 1_555 1_555
C51_16 H31_16 1_555 1_555
C52_16 C51_16 1_555 1_555
H32_16 C52_16 1_555 1_555
C53_16 C52_16 1_555 1_555
C54_16 C53_16 1_555 1_555
H33_16 C54_16 1_555 1_555
C55_16 C50_16 1_555 1_555
H34_16 C55_16 1_555 1_555
C56_16 C53_16 1_555 1_555
C57_16 C56_16 1_555 1_555
H35_16 C57_16 1_555 1_555
C58_16 C57_16 1_555 1_555
H36_16 C58_16 1_555 1_555
C59_16 C58_16 1_555 1_555
C60_16 C59_16 1_555 1_555
H37_16 C60_16 1_555 1_555
C61_16 C56_16 1_555 1_555
H38_16 C61_16 1_555 1_555
Tb12_11 O15_16 1_555 1_555
C54_16 C55_16 1_555 1_555
C60_16 C61_16 1_555 1_555
C36_17 H22_17 1_555 1_555
C37_17 C36_17 1_555 1_555
H23_17 C37_17 1_555 1_555
H26_17 C42_17 1_555 1_555
C43_17 C42_17 1_555 1_555
H27_17 C43_17 1_555 1_555
O14_13 C49_17 1_555 1_555
O35_4 C49_17 1_555 1_555
C49_17 C50_17 1_555 1_555
C50_17 C51_17 1_555 1_555
C51_17 H31_17 1_555 1_555
C52_17 C51_17 1_555 1_555
H32_17 C52_17 1_555 1_555
C53_17 C52_17 1_555 1_555
C54_17 C53_17 1_555 1_555
H33_17 C54_17 1_555 1_555
C55_17 C50_17 1_555 1_555
H34_17 C55_17 1_555 1_555
C56_17 C53_17 1_555 1_555
C57_17 C56_17 1_555 1_555
H35_17 C57_17 1_555 1_555
C58_17 C57_17 1_555 1_555
H36_17 C58_17 1_555 1_555
C59_17 C58_17 1_555 1_555
C60_17 C59_17 1_555 1_555
H37_17 C60_17 1_555 1_555
C61_17 C56_17 1_555 1_555
H38_17 C61_17 1_555 1_555
Tb11_8 O12_13 1_555 1_555
Tb13_5 O14_13 1_555 1_555
C54_17 C55_17 1_555 1_555
C60_17 C61_17 1_555 1_555
Tb13_6 O1_6 1_555 1_555
O1_6 H1_17 1_555 1_555
O26_16 Tb13_6 1_555 1_555
H2_17 O26_16 1_555 1_555
O3_17 Tb13_6 1_555 1_555
O4_9 C1_17 1_555 1_555
C1_17 O3_17 1_555 1_555
C2_17 C1_17 1_555 1_555
C3_17 C2_17 1_555 1_555
H3_17 C3_17 1_555 1_555
C4_17 C3_17 1_555 1_555
C5_17 C4_17 1_555 1_555
S1_17 C2_17 1_555 1_555
O5_5 Tb13_6 1_555 1_555
O34_16 C6_17 1_555 1_555
C6_17 O5_5 1_555 1_555
C7_17 C6_17 1_555 1_555
C8_17 C7_17 1_555 1_555
H4_17 C8_17 1_555 1_555
C9_17 C8_17 1_555 1_555
H5_17 C9_17 1_555 1_555
C10_17 C9_17 1_555 1_555
C11_17 C10_17 1_555 1_555
H6_17 C11_17 1_555 1_555
C12_17 C7_17 1_555 1_555
H7_17 C12_17 1_555 1_555
C13_17 C10_17 1_555 1_555
C14_17 C13_17 1_555 1_555
H8_17 C14_17 1_555 1_555
C15_17 C14_17 1_555 1_555
H9_17 C15_17 1_555 1_555
C16_17 C15_17 1_555 1_555
C17_17 C16_17 1_555 1_555
H10_17 C17_17 1_555 1_555
C18_17 C13_17 1_555 1_555
H11_17 C18_17 1_555 1_555
C19_17 C16_17 1_555 1_555
C20_17 C19_17 1_555 1_555
H12_17 C20_17 1_555 1_555
O7_17 Tb13_6 1_555 1_555
C21_17 O7_17 1_555 1_555
H13_17 C21_17 1_555 1_555
N1_17 C21_17 1_555 1_555
C22_17 N1_17 1_555 1_555
H14_17 C22_17 1_555 1_555
H15_17 C22_17 1_555 1_555
H16_17 C22_17 1_555 1_555
C23_17 N1_17 1_555 1_555
H17_17 C23_17 1_555 1_555
H18_17 C23_17 1_555 1_555
H19_17 C23_17 1_555 1_555
O8_17 C24_17 1_555 1_555
O9_9 C24_17 1_555 1_555
C24_17 C25_17 1_555 1_555
C25_17 C26_17 1_555 1_555
C26_17 H20_17 1_555 1_555
C27_17 C5_17 1_555 1_555
C28_17 C27_17 1_555 1_555
S2_17 C25_17 1_555 1_555
O10_17 C29_17 1_555 1_555
O11_9 C29_17 1_555 1_555
C29_17 C30_17 1_555 1_555
C30_17 C31_17 1_555 1_555
C31_17 H21_17 1_555 1_555
C32_17 C28_17 1_555 1_555
C33_17 C4_17 1_555 1_555
S3_17 C30_17 1_555 1_555
O33_8 C34_17 1_555 1_555
C34_17 C35_17 1_555 1_555
C39_17 C38_17 1_555 1_555
H24_17 C39_17 1_555 1_555
C40_17 C35_17 1_555 1_555
H25_17 C40_17 1_555 1_555
C41_17 C38_17 1_555 1_555
C45_17 C44_17 1_555 1_555
H28_17 C45_17 1_555 1_555
C46_17 C41_17 1_555 1_555
H29_17 C46_17 1_555 1_555
C47_17 C20_17 1_555 1_555
C48_17 C47_17 1_555 1_555
C62_17 C48_17 1_555 1_555
C63_17 C19_17 1_555 1_555
H39_17 C63_17 1_555 1_555
Tb12_11 O8_17 1_555 1_555
O27_6 Tb12_11 1_555 1_555
H40_17 O27_6 1_555 1_555
O17_17 Tb12_11 1_555 1_555
C64_17 O17_17 1_555 1_555
H41_17 C64_17 1_555 1_555
N2_17 C64_17 1_555 1_555
C65_17 N2_17 1_555 1_555
H42_17 C65_17 1_555 1_555
H43_17 C65_17 1_555 1_555
H44_17 C65_17 1_555 1_555
C66_17 N2_17 1_555 1_555
H45_17 C66_17 1_555 1_555
H46_17 C66_17 1_555 1_555
H47_17 C66_17 1_555 1_555
Tb12_6 O10_17 1_555 1_555
O26_11 Tb12_6 1_555 1_555
H48_17 O26_11 1_555 1_555
O19_17 Tb12_6 1_555 1_555
C67_17 O19_17 1_555 1_555
H49_17 C67_17 1_555 1_555
N3_17 C67_17 1_555 1_555
C68_17 N3_17 1_555 1_555
H50_17 C68_17 1_555 1_555
H51_17 C68_17 1_555 1_555
H52_17 C68_17 1_555 1_555
C69_17 N3_17 1_555 1_555
H53_17 C69_17 1_555 1_555
H54_17 C69_17 1_555 1_555
H55_17 C69_17 1_555 1_555
Tb10_6 O9_9 1_555 1_555
Tb14_2 O1_6 1_555 1_555
Tb10_7 O11_9 1_555 1_555
Tb10_11 O1_6 1_555 1_555
O20_7 Tb12_11 1_555 1_555
O21_6 Tb12_6 1_555 1_555
O28_9 Tb12_6 1_555 1_555
O29_9 Tb13_6 1_555 1_555
O30_9 Tb12_11 1_555 1_555
O31_13 Tb12_11 1_555 1_555
O32_9 Tb12_6 1_555 1_555
O4_9 Tb10_11 1_555 1_555
C5_17 S1_17 1_555 1_555
C11_17 C12_17 1_555 1_555
C17_17 C18_17 1_555 1_555
C26_17 C27_17 1_555 1_555
C28_17 S2_17 1_555 1_555
C31_17 C32_17 1_555 1_555
C32_17 C33_17 1_555 1_555
C33_17 S3_17 1_555 1_555
C39_17 C40_17 1_555 1_555
C44_17 C47_17 1_555 1_555
C45_17 C46_17 1_555 1_555
C62_17 C63_17 1_555 1_555
Tb10_6 O20_7 1_555 1_555
Tb14_2 O25_10 1_555 1_555
Tb10_7 O21_6 1_555 1_555
C36_18 H22_18 1_555 1_555
C37_18 C36_18 1_555 1_555
H23_18 C37_18 1_555 1_555
H26_18 C42_18 1_555 1_555
C43_18 C42_18 1_555 1_555
H27_18 C43_18 1_555 1_555
O14_14 C49_18 1_555 1_555
O33_2 C49_18 1_555 1_555
C49_18 C50_18 1_555 1_555
C50_18 C51_18 1_555 1_555
C51_18 H31_18 1_555 1_555
C52_18 C51_18 1_555 1_555
H32_18 C52_18 1_555 1_555
C53_18 C52_18 1_555 1_555
C54_18 C53_18 1_555 1_555
H33_18 C54_18 1_555 1_555
C55_18 C50_18 1_555 1_555
H34_18 C55_18 1_555 1_555
C56_18 C53_18 1_555 1_555
C57_18 C56_18 1_555 1_555
H35_18 C57_18 1_555 1_555
C58_18 C57_18 1_555 1_555
H36_18 C58_18 1_555 1_555
C59_18 C58_18 1_555 1_555
C60_18 C59_18 1_555 1_555
H37_18 C60_18 1_555 1_555
C61_18 C56_18 1_555 1_555
H38_18 C61_18 1_555 1_555
Tb11_12 O12_14 1_555 1_555
Tb14_4 O14_14 1_555 1_555
C54_18 C55_18 1_555 1_555
C60_18 C61_18 1_555 1_555
O20_7 H1_18 1_555 1_555
O35_6 C6_18 1_555 1_555
C6_18 O31_13 1_555 1_555
C7_18 C6_18 1_555 1_555
C8_18 C7_18 1_555 1_555
H4_18 C8_18 1_555 1_555
C9_18 C8_18 1_555 1_555
H5_18 C9_18 1_555 1_555
C10_18 C9_18 1_555 1_555
C11_18 C10_18 1_555 1_555
H6_18 C11_18 1_555 1_555
C12_18 C7_18 1_555 1_555
H7_18 C12_18 1_555 1_555
C13_18 C10_18 1_555 1_555
C14_18 C13_18 1_555 1_555
H8_18 C14_18 1_555 1_555
C15_18 C14_18 1_555 1_555
H9_18 C15_18 1_555 1_555
C16_18 C15_18 1_555 1_555
C17_18 C16_18 1_555 1_555
H10_18 C17_18 1_555 1_555
C18_18 C13_18 1_555 1_555
H11_18 C18_18 1_555 1_555
C19_18 C16_18 1_555 1_555
C20_18 C19_18 1_555 1_555
H12_18 C20_18 1_555 1_555
O34_10 C34_18 1_555 1_555
C34_18 C35_18 1_555 1_555
C39_18 C38_18 1_555 1_555
H24_18 C39_18 1_555 1_555
C40_18 C35_18 1_555 1_555
H25_18 C40_18 1_555 1_555
C41_18 C38_18 1_555 1_555
C45_18 C44_18 1_555 1_555
H28_18 C45_18 1_555 1_555
C46_18 C41_18 1_555 1_555
H29_18 C46_18 1_555 1_555
C47_18 C20_18 1_555 1_555
C48_18 C47_18 1_555 1_555
C62_18 C48_18 1_555 1_555
C63_18 C19_18 1_555 1_555
H39_18 C63_18 1_555 1_555
Tb12_7 O20_7 1_555 1_555
C11_18 C12_18 1_555 1_555
C17_18 C18_18 1_555 1_555
C39_18 C40_18 1_555 1_555
C44_18 C47_18 1_555 1_555
C45_18 C46_18 1_555 1_555
C62_18 C63_18 1_555 1_555
Tb12_7 O27_15 1_555 1_555
C36_19 H22_19 1_555 1_555
C37_19 C36_19 1_555 1_555
H23_19 C37_19 1_555 1_555
H26_19 C42_19 1_555 1_555
C43_19 C42_19 1_555 1_555
H27_19 C43_19 1_555 1_555
O14_15 C49_19 1_555 1_555
O35_3 C49_19 1_555 1_555
C49_19 C50_19 1_555 1_555
C50_19 C51_19 1_555 1_555
C51_19 H31_19 1_555 1_555
C52_19 C51_19 1_555 1_555
H32_19 C52_19 1_555 1_555
C53_19 C52_19 1_555 1_555
C54_19 C53_19 1_555 1_555
H33_19 C54_19 1_555 1_555
C55_19 C50_19 1_555 1_555
H34_19 C55_19 1_555 1_555
C56_19 C53_19 1_555 1_555
C57_19 C56_19 1_555 1_555
H35_19 C57_19 1_555 1_555
C58_19 C57_19 1_555 1_555
H36_19 C58_19 1_555 1_555
C59_19 C58_19 1_555 1_555
C60_19 C59_19 1_555 1_555
H37_19 C60_19 1_555 1_555
C61_19 C56_19 1_555 1_555
H38_19 C61_19 1_555 1_555
Tb11_4 O12_15 1_555 1_555
Tb12_4 O14_15 1_555 1_555
C54_19 C55_19 1_555 1_555
C60_19 C61_19 1_555 1_555
O21_6 H1_19 1_555 1_555
O34_11 C6_19 1_555 1_555
C6_19 O32_9 1_555 1_555
C7_19 C6_19 1_555 1_555
C8_19 C7_19 1_555 1_555
H4_19 C8_19 1_555 1_555
C9_19 C8_19 1_555 1_555
H5_19 C9_19 1_555 1_555
C10_19 C9_19 1_555 1_555
C11_19 C10_19 1_555 1_555
H6_19 C11_19 1_555 1_555
C12_19 C7_19 1_555 1_555
H7_19 C12_19 1_555 1_555
C13_19 C10_19 1_555 1_555
C14_19 C13_19 1_555 1_555
H8_19 C14_19 1_555 1_555
C15_19 C14_19 1_555 1_555
H9_19 C15_19 1_555 1_555
C16_19 C15_19 1_555 1_555
C17_19 C16_19 1_555 1_555
H10_19 C17_19 1_555 1_555
C18_19 C13_19 1_555 1_555
H11_19 C18_19 1_555 1_555
C19_19 C16_19 1_555 1_555
C20_19 C19_19 1_555 1_555
H12_19 C20_19 1_555 1_555
O33_15 C34_19 1_555 1_555
C34_19 C35_19 1_555 1_555
C39_19 C38_19 1_555 1_555
H24_19 C39_19 1_555 1_555
C40_19 C35_19 1_555 1_555
H25_19 C40_19 1_555 1_555
C41_19 C38_19 1_555 1_555
C45_19 C44_19 1_555 1_555
H28_19 C45_19 1_555 1_555
C46_19 C41_19 1_555 1_555
H29_19 C46_19 1_555 1_555
C47_19 C20_19 1_555 1_555
C48_19 C47_19 1_555 1_555
C62_19 C48_19 1_555 1_555
C63_19 C19_19 1_555 1_555
H39_19 C63_19 1_555 1_555
Tb13_7 O21_6 1_555 1_555
C11_19 C12_19 1_555 1_555
C17_19 C18_19 1_555 1_555
C39_19 C40_19 1_555 1_555
C44_19 C47_19 1_555 1_555
C45_19 C46_19 1_555 1_555
C62_19 C63_19 1_555 1_555
Tb13_7 O27_8 1_555 1_555
O1_7 H1_20 1_555 1_555
C1_18 O3_18 1_555 1_555
C2_18 C1_18 1_555 1_555
C3_18 C2_18 1_555 1_555
H3_18 C3_18 1_555 1_555
C4_18 C3_18 1_555 1_555
C5_18 C4_18 1_555 1_555
S1_18 C2_18 1_555 1_555
O8_18 C24_18 1_555 1_555
O9_10 C24_18 1_555 1_555
C24_18 C25_18 1_555 1_555
C25_18 C26_18 1_555 1_555
C26_18 H20_18 1_555 1_555
C27_18 C5_18 1_555 1_555
C28_18 C27_18 1_555 1_555
S2_18 C25_18 1_555 1_555
O10_18 C29_18 1_555 1_555
C29_18 C30_18 1_555 1_555
C30_18 C31_18 1_555 1_555
C31_18 H21_18 1_555 1_555
C32_18 C28_18 1_555 1_555
C33_18 C4_18 1_555 1_555
S3_18 C30_18 1_555 1_555
Tb10_2 O10_18 1_555 1_555
O19_18 Tb10_2 1_555 1_555
C67_18 O19_18 1_555 1_555
H49_18 C67_18 1_555 1_555
N3_18 C67_18 1_555 1_555
C68_18 N3_18 1_555 1_555
H50_18 C68_18 1_555 1_555
H51_18 C68_18 1_555 1_555
H52_18 C68_18 1_555 1_555
C69_18 N3_18 1_555 1_555
H53_18 C69_18 1_555 1_555
H54_18 C69_18 1_555 1_555
H55_18 C69_18 1_555 1_555
Tb12_2 O9_10 1_555 1_555
Tb11 O1_7 1_555 1_555
O21_7 Tb10_2 1_555 1_555
O28_10 Tb10_2 1_555 1_555
O32_10 Tb10_2 1_555 1_555
C5_18 S1_18 1_555 1_555
C26_18 C27_18 1_555 1_555
C28_18 S2_18 1_555 1_555
C31_18 C32_18 1_555 1_555
C32_18 C33_18 1_555 1_555
C33_18 S3_18 1_555 1_555
Tb12_2 O20_8 1_555 1_555
O27_3 Tb12_4 1_555 1_555
H40_18 O27_3 1_555 1_555
O17_18 Tb12_4 1_555 1_555
C64_18 O17_18 1_555 1_555
H41_18 C64_18 1_555 1_555
N2_18 C64_18 1_555 1_555
C65_18 N2_18 1_555 1_555
H42_18 C65_18 1_555 1_555
H43_18 C65_18 1_555 1_555
H44_18 C65_18 1_555 1_555
C66_18 N2_18 1_555 1_555
H45_18 C66_18 1_555 1_555
H46_18 C66_18 1_555 1_555
H47_18 C66_18 1_555 1_555
O30_10 Tb12_4 1_555 1_555
O4_10 Tb11_6 1_555 1_555
O7_18 Tb11_8 1_555 1_555
C21_18 O7_18 1_555 1_555
H13_18 C21_18 1_555 1_555
N1_18 C21_18 1_555 1_555
C22_18 N1_18 1_555 1_555
H14_18 C22_18 1_555 1_555
H15_18 C22_18 1_555 1_555
H16_18 C22_18 1_555 1_555
C23_18 N1_18 1_555 1_555
H17_18 C23_18 1_555 1_555
H18_18 C23_18 1_555 1_555
H19_18 C23_18 1_555 1_555
H48_18 O26_9 1_555 1_555
Tb14_3 O11_10 1_555 1_555
O29_10 Tb11_8 1_555 1_555
H2_18 O25_8 1_555 1_555
O1_8 H1_21 1_555 1_555
O4_11 C1_19 1_555 1_555
C1_19 O3_19 1_555 1_555
C2_19 C1_19 1_555 1_555
C3_19 C2_19 1_555 1_555
H3_19 C3_19 1_555 1_555
C4_19 C3_19 1_555 1_555
C5_19 C4_19 1_555 1_555
S1_19 C2_19 1_555 1_555
O8_19 C24_19 1_555 1_555
C24_19 C25_19 1_555 1_555
C25_19 C26_19 1_555 1_555
C26_19 H20_19 1_555 1_555
C27_19 C5_19 1_555 1_555
C28_19 C27_19 1_555 1_555
S2_19 C25_19 1_555 1_555
O10_19 C29_19 1_555 1_555
C29_19 C30_19 1_555 1_555
C30_19 C31_19 1_555 1_555
C31_19 H21_19 1_555 1_555
C32_19 C28_19 1_555 1_555
C33_19 C4_19 1_555 1_555
S3_19 C30_19 1_555 1_555
Tb10_3 O8_19 1_555 1_555
O17_19 Tb10_3 1_555 1_555
C64_19 O17_19 1_555 1_555
H41_19 C64_19 1_555 1_555
N2_19 C64_19 1_555 1_555
C65_19 N2_19 1_555 1_555
H42_19 C65_19 1_555 1_555
H43_19 C65_19 1_555 1_555
H44_19 C65_19 1_555 1_555
C66_19 N2_19 1_555 1_555
H45_19 C66_19 1_555 1_555
H46_19 C66_19 1_555 1_555
H47_19 C66_19 1_555 1_555
Tb10_10 O1_8 1_555 1_555
Tb12_3 O1_8 1_555 1_555
O20_9 Tb10_3 1_555 1_555
O30_11 Tb10_3 1_555 1_555
O31_14 Tb10_3 1_555 1_555
O4_11 Tb12_3 1_555 1_555
C5_19 S1_19 1_555 1_555
C26_19 C27_19 1_555 1_555
C28_19 S2_19 1_555 1_555
C31_19 C32_19 1_555 1_555
C32_19 C33_19 1_555 1_555
C33_19 S3_19 1_555 1_555
O27_4 Tb13_5 1_555 1_555
H2_19 O27_4 1_555 1_555
O7_19 Tb13_5 1_555 1_555
C21_19 O7_19 1_555 1_555
H13_19 C21_19 1_555 1_555
N1_19 C21_19 1_555 1_555
C22_19 N1_19 1_555 1_555
H14_19 C22_19 1_555 1_555
H15_19 C22_19 1_555 1_555
H16_19 C22_19 1_555 1_555
C23_19 N1_19 1_555 1_555
H17_19 C23_19 1_555 1_555
H18_19 C23_19 1_555 1_555
H19_19 C23_19 1_555 1_555
Tb11_7 O11_11 1_555 1_555
O29_11 Tb13_5 1_555 1_555
H40_19 O27_13 1_555 1_555
O19_19 Tb11_12 1_555 1_555
C67_19 O19_19 1_555 1_555
H49_19 C67_19 1_555 1_555
N3_19 C67_19 1_555 1_555
C68_19 N3_19 1_555 1_555
H50_19 C68_19 1_555 1_555
H51_19 C68_19 1_555 1_555
H52_19 C68_19 1_555 1_555
C69_19 N3_19 1_555 1_555
H53_19 C69_19 1_555 1_555
H54_19 C69_19 1_555 1_555
H55_19 C69_19 1_555 1_555
Tb12_10 O9_11 1_555 1_555
O28_11 Tb11_12 1_555 1_555
H48_19 O26_10 1_555 1_555
O1_9 H1_22 1_555 1_555
O4_12 C1_20 1_555 1_555
C1_20 O3_20 1_555 1_555
C2_20 C1_20 1_555 1_555
C3_20 C2_20 1_555 1_555
H3_20 C3_20 1_555 1_555
C4_20 C3_20 1_555 1_555
C5_20 C4_20 1_555 1_555
S1_20 C2_20 1_555 1_555
O8_20 C24_20 1_555 1_555
C24_20 C25_20 1_555 1_555
C25_20 C26_20 1_555 1_555
C26_20 H20_20 1_555 1_555
C27_20 C5_20 1_555 1_555
C28_20 C27_20 1_555 1_555
S2_20 C25_20 1_555 1_555
O10_20 C29_20 1_555 1_555
C29_20 C30_20 1_555 1_555
C30_20 C31_20 1_555 1_555
C31_20 H21_20 1_555 1_555
C32_20 C28_20 1_555 1_555
C33_20 C4_20 1_555 1_555
S3_20 C30_20 1_555 1_555
Tb10 O8_20 1_555 1_555
O17_20 Tb10 1_555 1_555
C64_20 O17_20 1_555 1_555
H41_20 C64_20 1_555 1_555
N2_20 C64_20 1_555 1_555
C65_20 N2_20 1_555 1_555
H42_20 C65_20 1_555 1_555
H43_20 C65_20 1_555 1_555
H44_20 C65_20 1_555 1_555
C66_20 N2_20 1_555 1_555
H45_20 C66_20 1_555 1_555
H46_20 C66_20 1_555 1_555
H47_20 C66_20 1_555 1_555
Tb10_5 O1_9 1_555 1_555
Tb13_2 O1_9 1_555 1_555
O20_10 Tb10 1_555 1_555
O30_12 Tb10 1_555 1_555
O31_15 Tb10 1_555 1_555
O4_12 Tb13_2 1_555 1_555
C5_20 S1_20 1_555 1_555
C26_20 C27_20 1_555 1_555
C28_20 S2_20 1_555 1_555
C31_20 C32_20 1_555 1_555
C32_20 C33_20 1_555 1_555
C33_20 S3_20 1_555 1_555
H40_20 O25_5 1_555 1_555
O19_20 Tb11_4 1_555 1_555
C67_20 O19_20 1_555 1_555
H49_20 C67_20 1_555 1_555
N3_20 C67_20 1_555 1_555
C68_20 N3_20 1_555 1_555
H50_20 C68_20 1_555 1_555
H51_20 C68_20 1_555 1_555
H52_20 C68_20 1_555 1_555
C69_20 N3_20 1_555 1_555
H53_20 C69_20 1_555 1_555
H54_20 C69_20 1_555 1_555
H55_20 C69_20 1_555 1_555
Tb13_3 O9_12 1_555 1_555
O28_12 Tb11_4 1_555 1_555
O25_2 Tb14_4 1_555 1_555
H2_20 O25_2 1_555 1_555
O7_20 Tb14_4 1_555 1_555
C21_20 O7_20 1_555 1_555
H13_20 C21_20 1_555 1_555
N1_20 C21_20 1_555 1_555
C22_20 N1_20 1_555 1_555
H14_20 C22_20 1_555 1_555
H15_20 C22_20 1_555 1_555
H16_20 C22_20 1_555 1_555
C23_20 N1_20 1_555 1_555
H17_20 C23_20 1_555 1_555
H18_20 C23_20 1_555 1_555
H19_20 C23_20 1_555 1_555
Tb11_11 O11_12 1_555 1_555
O29_12 Tb14_4 1_555 1_555
H48_20 O25_15 1_555 1_555
O21_7 H1_23 1_555 1_555
H4_20 C8_20 1_555 1_555
C9_20 C8_20 1_555 1_555
H5_20 C9_20 1_555 1_555
H8_20 C14_20 1_555 1_555
C15_20 C14_20 1_555 1_555
H9_20 C15_20 1_555 1_555
Tb13_4 O21_7 1_555 1_555
Tb13_4 O26_4 1_555 1_555
C36_20 H22_20 1_555 1_555
C37_20 C36_20 1_555 1_555
H23_20 C37_20 1_555 1_555
H26_20 C42_20 1_555 1_555
C43_20 C42_20 1_555 1_555
H27_20 C43_20 1_555 1_555
O33_5 C34_20 1_555 1_555
C34_20 C35_20 1_555 1_555
C39_20 C38_20 1_555 1_555
H24_20 C39_20 1_555 1_555
C40_20 C35_20 1_555 1_555
H25_20 C40_20 1_555 1_555
C41_20 C38_20 1_555 1_555
C45_20 C44_20 1_555 1_555
H28_20 C45_20 1_555 1_555
C46_20 C41_20 1_555 1_555
H29_20 C46_20 1_555 1_555
C39_20 C40_20 1_555 1_555
C45_20 C46_20 1_555 1_555
C51_20 H31_20 1_555 1_555
C52_20 C51_20 1_555 1_555
H32_20 C52_20 1_555 1_555
H35_20 C57_20 1_555 1_555
C58_20 C57_20 1_555 1_555
H36_20 C58_20 1_555 1_555
O34_9 C6_20 1_555 1_555
C7_20 C6_20 1_555 1_555
C11_20 C10_20 1_555 1_555
H6_20 C11_20 1_555 1_555
C12_20 C7_20 1_555 1_555
H7_20 C12_20 1_555 1_555
C13_20 C10_20 1_555 1_555
C17_20 C16_20 1_555 1_555
H10_20 C17_20 1_555 1_555
C18_20 C13_20 1_555 1_555
H11_20 C18_20 1_555 1_555
C11_20 C12_20 1_555 1_555
C17_20 C18_20 1_555 1_555
O35_13 C49_20 1_555 1_555
C49_20 C50_20 1_555 1_555
C54_20 C53_20 1_555 1_555
H33_20 C54_20 1_555 1_555
C55_20 C50_20 1_555 1_555
H34_20 C55_20 1_555 1_555
C56_20 C53_20 1_555 1_555
C60_20 C59_20 1_555 1_555
H37_20 C60_20 1_555 1_555
C61_20 C56_20 1_555 1_555
H38_20 C61_20 1_555 1_555
C54_20 C55_20 1_555 1_555
C60_20 C61_20 1_555 1_555
C20_20 C19_20 1_555 1_555
C47_20 C20_20 1_555 1_555
C48_20 C47_20 1_555 1_555
C62_20 C48_20 1_555 1_555
C63_20 C19_20 1_555 1_555
C62_20 C63_20 1_555 1_555
O21_9 H1_24 1_555 1_555
Tb11_3 O21_9 1_555 1_555
O20_9 H1_25 1_555 1_555
Tb12_8 O20_9 1_555 1_555
Tb12_8 O27_2 1_555 1_555
O20_8 H1_26 1_555 1_555
Tb10_9 O20_8 1_555 1_555
O21_8 H1_27 1_555 1_555
Tb11_2 O21_8 1_555 1_555
O20_10 H1_28 1_555 1_555
Tb12_12 O20_10 1_555 1_555
Tb12_12 O26_3 1_555 1_555
Tb13_8 O1_10 1_555 1_555
O1_10 H1_29 1_555 1_555
O26_12 Tb13_8 1_555 1_555
H2_21 O26_12 1_555 1_555
O3_21 Tb13_8 1_555 1_555
O4_13 C1_21 1_555 1_555
C1_21 O3_21 1_555 1_555
C2_21 C1_21 1_555 1_555
C3_21 C2_21 1_555 1_555
H3_21 C3_21 1_555 1_555
C4_21 C3_21 1_555 1_555
C5_21 C4_21 1_555 1_555
S1_21 C2_21 1_555 1_555
O5_6 Tb13_8 1_555 1_555
O34_12 C6_21 1_555 1_555
C6_21 O5_6 1_555 1_555
C7_21 C6_21 1_555 1_555
C8_21 C7_21 1_555 1_555
H4_21 C8_21 1_555 1_555
C9_21 C8_21 1_555 1_555
H5_21 C9_21 1_555 1_555
C10_21 C9_21 1_555 1_555
C11_21 C10_21 1_555 1_555
H6_21 C11_21 1_555 1_555
C12_21 C7_21 1_555 1_555
H7_21 C12_21 1_555 1_555
C13_21 C10_21 1_555 1_555
C14_21 C13_21 1_555 1_555
H8_21 C14_21 1_555 1_555
C15_21 C14_21 1_555 1_555
H9_21 C15_21 1_555 1_555
C16_21 C15_21 1_555 1_555
C17_21 C16_21 1_555 1_555
H10_21 C17_21 1_555 1_555
C18_21 C13_21 1_555 1_555
H11_21 C18_21 1_555 1_555
C19_21 C16_21 1_555 1_555
C20_21 C19_21 1_555 1_555
H12_21 C20_21 1_555 1_555
O7_21 Tb13_8 1_555 1_555
C21_21 O7_21 1_555 1_555
H13_21 C21_21 1_555 1_555
N1_21 C21_21 1_555 1_555
C22_21 N1_21 1_555 1_555
H14_21 C22_21 1_555 1_555
H15_21 C22_21 1_555 1_555
H16_21 C22_21 1_555 1_555
C23_21 N1_21 1_555 1_555
H17_21 C23_21 1_555 1_555
H18_21 C23_21 1_555 1_555
H19_21 C23_21 1_555 1_555
O8_21 C24_21 1_555 1_555
O30_11 C24_21 1_555 1_555
C24_21 C25_21 1_555 1_555
C25_21 C26_21 1_555 1_555
C26_21 H20_21 1_555 1_555
C27_21 C5_21 1_555 1_555
C28_21 C27_21 1_555 1_555
S2_21 C25_21 1_555 1_555
O10_21 C29_21 1_555 1_555
O11_13 C29_21 1_555 1_555
C29_21 C30_21 1_555 1_555
C30_21 C31_21 1_555 1_555
C31_21 H21_21 1_555 1_555
C32_21 C28_21 1_555 1_555
C33_21 C4_21 1_555 1_555
S3_21 C30_21 1_555 1_555
O12_16 C34_21 1_555 1_555
O33_4 C34_21 1_555 1_555
C34_21 C35_21 1_555 1_555
C35_21 C36_21 1_555 1_555
C36_21 H22_21 1_555 1_555
C37_21 C36_21 1_555 1_555
H23_21 C37_21 1_555 1_555
C38_21 C37_21 1_555 1_555
C39_21 C38_21 1_555 1_555
H24_21 C39_21 1_555 1_555
C40_21 C35_21 1_555 1_555
H25_21 C40_21 1_555 1_555
C41_21 C38_21 1_555 1_555
C42_21 C41_21 1_555 1_555
H26_21 C42_21 1_555 1_555
C43_21 C42_21 1_555 1_555
H27_21 C43_21 1_555 1_555
C44_21 C43_21 1_555 1_555
C45_21 C44_21 1_555 1_555
H28_21 C45_21 1_555 1_555
C46_21 C41_21 1_555 1_555
H29_21 C46_21 1_555 1_555
C47_21 C20_21 1_555 1_555
C48_21 C47_21 1_555 1_555
H30_21 C48_21 1_555 1_555
O14_16 C49_21 1_555 1_555
O35_8 C49_21 1_555 1_555
C49_21 C50_21 1_555 1_555
C50_21 C51_21 1_555 1_555
C51_21 H31_21 1_555 1_555
C52_21 C51_21 1_555 1_555
H32_21 C52_21 1_555 1_555
C53_21 C52_21 1_555 1_555
C54_21 C53_21 1_555 1_555
H33_21 C54_21 1_555 1_555
C55_21 C50_21 1_555 1_555
H34_21 C55_21 1_555 1_555
C56_21 C53_21 1_555 1_555
C57_21 C56_21 1_555 1_555
H35_21 C57_21 1_555 1_555
C58_21 C57_21 1_555 1_555
H36_21 C58_21 1_555 1_555
C59_21 C58_21 1_555 1_555
C60_21 C59_21 1_555 1_555
H37_21 C60_21 1_555 1_555
C61_21 C56_21 1_555 1_555
H38_21 C61_21 1_555 1_555
C62_21 C48_21 1_555 1_555
C63_21 C19_21 1_555 1_555
H39_21 C63_21 1_555 1_555
Tb12_8 O8_21 1_555 1_555
H40_21 O27_2 1_555 1_555
O17_21 Tb12_8 1_555 1_555
C64_21 O17_21 1_555 1_555
H41_21 C64_21 1_555 1_555
N2_21 C64_21 1_555 1_555
C65_21 N2_21 1_555 1_555
H42_21 C65_21 1_555 1_555
H43_21 C65_21 1_555 1_555
H44_21 C65_21 1_555 1_555
C66_21 N2_21 1_555 1_555
H45_21 C66_21 1_555 1_555
H46_21 C66_21 1_555 1_555
H47_21 C66_21 1_555 1_555
Tb12_3 O10_21 1_555 1_555
O26_15 Tb12_3 1_555 1_555
H48_21 O26_15 1_555 1_555
O19_21 Tb12_3 1_555 1_555
C67_21 O19_21 1_555 1_555
H49_21 C67_21 1_555 1_555
N3_21 C67_21 1_555 1_555
C68_21 N3_21 1_555 1_555
H50_21 C68_21 1_555 1_555
H51_21 C68_21 1_555 1_555
H52_21 C68_21 1_555 1_555
C69_21 N3_21 1_555 1_555
H53_21 C69_21 1_555 1_555
H54_21 C69_21 1_555 1_555
H55_21 C69_21 1_555 1_555
Tb11_11 O12_16 1_555 1_555
Tb13_7 O14_16 1_555 1_555
Tb14 O1_10 1_555 1_555
Tb10_10 O11_13 1_555 1_555
Tb10_8 O1_10 1_555 1_555
O29_13 Tb13_8 1_555 1_555
O30_13 Tb12_8 1_555 1_555
O31_16 Tb12_8 1_555 1_555
O32_11 Tb12_3 1_555 1_555
O4_13 Tb10_8 1_555 1_555
C5_21 S1_21 1_555 1_555
C11_21 C12_21 1_555 1_555
C17_21 C18_21 1_555 1_555
C26_21 C27_21 1_555 1_555
C28_21 S2_21 1_555 1_555
C31_21 C32_21 1_555 1_555
C32_21 C33_21 1_555 1_555
C33_21 S3_21 1_555 1_555
C39_21 C40_21 1_555 1_555
C44_21 C47_21 1_555 1_555
C45_21 C46_21 1_555 1_555
C54_21 C55_21 1_555 1_555
C59_21 C62_21 1_555 1_555
C60_21 C61_21 1_555 1_555
C62_21 C63_21 1_555 1_555
Tb14 O25_14 1_555 1_555
O35_2 C6_22 1_555 1_555
C6_22 O31_16 1_555 1_555
C7_22 C6_22 1_555 1_555
C8_22 C7_22 1_555 1_555
H4_22 C8_22 1_555 1_555
C9_22 C8_22 1_555 1_555
H5_22 C9_22 1_555 1_555
C10_22 C9_22 1_555 1_555
C11_22 C10_22 1_555 1_555
H6_22 C11_22 1_555 1_555
C12_22 C7_22 1_555 1_555
H7_22 C12_22 1_555 1_555
C13_22 C10_22 1_555 1_555
C14_22 C13_22 1_555 1_555
H8_22 C14_22 1_555 1_555
C15_22 C14_22 1_555 1_555
H9_22 C15_22 1_555 1_555
C16_22 C15_22 1_555 1_555
C17_22 C16_22 1_555 1_555
H10_22 C17_22 1_555 1_555
C18_22 C13_22 1_555 1_555
H11_22 C18_22 1_555 1_555
C19_22 C16_22 1_555 1_555
C20_22 C19_22 1_555 1_555
H12_22 C20_22 1_555 1_555
O12_17 C34_22 1_555 1_555
O34_14 C34_22 1_555 1_555
C34_22 C35_22 1_555 1_555
C35_22 C36_22 1_555 1_555
C36_22 H22_22 1_555 1_555
C37_22 C36_22 1_555 1_555
H23_22 C37_22 1_555 1_555
C38_22 C37_22 1_555 1_555
C39_22 C38_22 1_555 1_555
H24_22 C39_22 1_555 1_555
C40_22 C35_22 1_555 1_555
H25_22 C40_22 1_555 1_555
C41_22 C38_22 1_555 1_555
C42_22 C41_22 1_555 1_555
H26_22 C42_22 1_555 1_555
C43_22 C42_22 1_555 1_555
H27_22 C43_22 1_555 1_555
C44_22 C43_22 1_555 1_555
C45_22 C44_22 1_555 1_555
H28_22 C45_22 1_555 1_555
C46_22 C41_22 1_555 1_555
H29_22 C46_22 1_555 1_555
C47_22 C20_22 1_555 1_555
C48_22 C47_22 1_555 1_555
H30_22 C48_22 1_555 1_555
O14_17 C49_22 1_555 1_555
O33_6 C49_22 1_555 1_555
C49_22 C50_22 1_555 1_555
C50_22 C51_22 1_555 1_555
C51_22 H31_22 1_555 1_555
C52_22 C51_22 1_555 1_555
H32_22 C52_22 1_555 1_555
C53_22 C52_22 1_555 1_555
C54_22 C53_22 1_555 1_555
H33_22 C54_22 1_555 1_555
C55_22 C50_22 1_555 1_555
H34_22 C55_22 1_555 1_555
C56_22 C53_22 1_555 1_555
C57_22 C56_22 1_555 1_555
H35_22 C57_22 1_555 1_555
C58_22 C57_22 1_555 1_555
H36_22 C58_22 1_555 1_555
C59_22 C58_22 1_555 1_555
C60_22 C59_22 1_555 1_555
H37_22 C60_22 1_555 1_555
C61_22 C56_22 1_555 1_555
H38_22 C61_22 1_555 1_555
C62_22 C48_22 1_555 1_555
C63_22 C19_22 1_555 1_555
H39_22 C63_22 1_555 1_555
Tb11_9 O12_17 1_555 1_555
Tb14_3 O14_17 1_555 1_555
C11_22 C12_22 1_555 1_555
C17_22 C18_22 1_555 1_555
C39_22 C40_22 1_555 1_555
C44_22 C47_22 1_555 1_555
C45_22 C46_22 1_555 1_555
C54_22 C55_22 1_555 1_555
C59_22 C62_22 1_555 1_555
C60_22 C61_22 1_555 1_555
C62_22 C63_22 1_555 1_555
Tb12_10 O27_11 1_555 1_555
C36_23 H22_23 1_555 1_555
C37_23 C36_23 1_555 1_555
H23_23 C37_23 1_555 1_555
H26_23 C42_23 1_555 1_555
C43_23 C42_23 1_555 1_555
H27_23 C43_23 1_555 1_555
O14_18 C49_23 1_555 1_555
O35_7 C49_23 1_555 1_555
C49_23 C50_23 1_555 1_555
C50_23 C51_23 1_555 1_555
C51_23 H31_23 1_555 1_555
C52_23 C51_23 1_555 1_555
H32_23 C52_23 1_555 1_555
C53_23 C52_23 1_555 1_555
C54_23 C53_23 1_555 1_555
H33_23 C54_23 1_555 1_555
C55_23 C50_23 1_555 1_555
H34_23 C55_23 1_555 1_555
C56_23 C53_23 1_555 1_555
C57_23 C56_23 1_555 1_555
H35_23 C57_23 1_555 1_555
C58_23 C57_23 1_555 1_555
H36_23 C58_23 1_555 1_555
C59_23 C58_23 1_555 1_555
C60_23 C59_23 1_555 1_555
H37_23 C60_23 1_555 1_555
C61_23 C56_23 1_555 1_555
H38_23 C61_23 1_555 1_555
Tb11 O12_18 1_555 1_555
Tb12 O14_18 1_555 1_555
C54_23 C55_23 1_555 1_555
C60_23 C61_23 1_555 1_555
O34_15 C6_23 1_555 1_555
C6_23 O32_11 1_555 1_555
C7_23 C6_23 1_555 1_555
C8_23 C7_23 1_555 1_555
H4_23 C8_23 1_555 1_555
C9_23 C8_23 1_555 1_555
H5_23 C9_23 1_555 1_555
C10_23 C9_23 1_555 1_555
C11_23 C10_23 1_555 1_555
H6_23 C11_23 1_555 1_555
C12_23 C7_23 1_555 1_555
H7_23 C12_23 1_555 1_555
C13_23 C10_23 1_555 1_555
C14_23 C13_23 1_555 1_555
H8_23 C14_23 1_555 1_555
C15_23 C14_23 1_555 1_555
H9_23 C15_23 1_555 1_555
C16_23 C15_23 1_555 1_555
C17_23 C16_23 1_555 1_555
H10_23 C17_23 1_555 1_555
C18_23 C13_23 1_555 1_555
H11_23 C18_23 1_555 1_555
C19_23 C16_23 1_555 1_555
C20_23 C19_23 1_555 1_555
H12_23 C20_23 1_555 1_555
O33_11 C34_23 1_555 1_555
C34_23 C35_23 1_555 1_555
C39_23 C38_23 1_555 1_555
H24_23 C39_23 1_555 1_555
C40_23 C35_23 1_555 1_555
H25_23 C40_23 1_555 1_555
C41_23 C38_23 1_555 1_555
C45_23 C44_23 1_555 1_555
H28_23 C45_23 1_555 1_555
C46_23 C41_23 1_555 1_555
H29_23 C46_23 1_555 1_555
C47_23 C20_23 1_555 1_555
C48_23 C47_23 1_555 1_555
C62_23 C48_23 1_555 1_555
C63_23 C19_23 1_555 1_555
H39_23 C63_23 1_555 1_555
C11_23 C12_23 1_555 1_555
C17_23 C18_23 1_555 1_555
C39_23 C40_23 1_555 1_555
C44_23 C47_23 1_555 1_555
C45_23 C46_23 1_555 1_555
C62_23 C63_23 1_555 1_555
O4_14 C1_22 1_555 1_555
C1_22 O3_22 1_555 1_555
C2_22 C1_22 1_555 1_555
C3_22 C2_22 1_555 1_555
H3_22 C3_22 1_555 1_555
C4_22 C3_22 1_555 1_555
C5_22 C4_22 1_555 1_555
S1_22 C2_22 1_555 1_555
O8_22 C24_22 1_555 1_555
O9_13 C24_22 1_555 1_555
C24_22 C25_22 1_555 1_555
C25_22 C26_22 1_555 1_555
C26_22 H20_22 1_555 1_555
C27_22 C5_22 1_555 1_555
C28_22 C27_22 1_555 1_555
S2_22 C25_22 1_555 1_555
O10_22 C29_22 1_555 1_555
C29_22 C30_22 1_555 1_555
C30_22 C31_22 1_555 1_555
C31_22 H21_22 1_555 1_555
C32_22 C28_22 1_555 1_555
C33_22 C4_22 1_555 1_555
S3_22 C30_22 1_555 1_555
Tb12 O8_22 1_555 1_555
O27_7 Tb12 1_555 1_555
H40_22 O27_7 1_555 1_555
O17_22 Tb12 1_555 1_555
C64_22 O17_22 1_555 1_555
H41_22 C64_22 1_555 1_555
N2_22 C64_22 1_555 1_555
C65_22 N2_22 1_555 1_555
H42_22 C65_22 1_555 1_555
H43_22 C65_22 1_555 1_555
H44_22 C65_22 1_555 1_555
C66_22 N2_22 1_555 1_555
H45_22 C66_22 1_555 1_555
H46_22 C66_22 1_555 1_555
H47_22 C66_22 1_555 1_555
Tb10_5 O10_22 1_555 1_555
O19_22 Tb10_5 1_555 1_555
C67_22 O19_22 1_555 1_555
H49_22 C67_22 1_555 1_555
N3_22 C67_22 1_555 1_555
C68_22 N3_22 1_555 1_555
H50_22 C68_22 1_555 1_555
H51_22 C68_22 1_555 1_555
H52_22 C68_22 1_555 1_555
C69_22 N3_22 1_555 1_555
H53_22 C69_22 1_555 1_555
H54_22 C69_22 1_555 1_555
H55_22 C69_22 1_555 1_555
Tb12_5 O9_13 1_555 1_555
O20_11 Tb12 1_555 1_555
O28_13 Tb10_5 1_555 1_555
O30_14 Tb12 1_555 1_555
O32_12 Tb10_5 1_555 1_555
O4_14 Tb11_3 1_555 1_555
C5_22 S1_22 1_555 1_555
C26_22 C27_22 1_555 1_555
C28_22 S2_22 1_555 1_555
C31_22 C32_22 1_555 1_555
C32_22 C33_22 1_555 1_555
C33_22 S3_22 1_555 1_555
Tb12_5 O20_11 1_555 1_555
O25_4 Tb11_11 1_555 1_555
H2_22 O25_4 1_555 1_555
O7_22 Tb11_11 1_555 1_555
C21_22 O7_22 1_555 1_555
H13_22 C21_22 1_555 1_555
N1_22 C21_22 1_555 1_555
C22_22 N1_22 1_555 1_555
H14_22 C22_22 1_555 1_555
H15_22 C22_22 1_555 1_555
H16_22 C22_22 1_555 1_555
C23_22 N1_22 1_555 1_555
H17_22 C23_22 1_555 1_555
H18_22 C23_22 1_555 1_555
H19_22 C23_22 1_555 1_555
H48_22 O26_13 1_555 1_555
H2_23 O27_8 1_555 1_555
O3_23 Tb13_7 1_555 1_555
O28_9 C1_23 1_555 1_555
C1_23 O3_23 1_555 1_555
C2_23 C1_23 1_555 1_555
C3_23 C2_23 1_555 1_555
H3_23 C3_23 1_555 1_555
C4_23 C3_23 1_555 1_555
C5_23 C4_23 1_555 1_555
S1_23 C2_23 1_555 1_555
O7_23 Tb13_7 1_555 1_555
C21_23 O7_23 1_555 1_555
H13_23 C21_23 1_555 1_555
N1_23 C21_23 1_555 1_555
C22_23 N1_23 1_555 1_555
H14_23 C22_23 1_555 1_555
H15_23 C22_23 1_555 1_555
H16_23 C22_23 1_555 1_555
C23_23 N1_23 1_555 1_555
H17_23 C23_23 1_555 1_555
H18_23 C23_23 1_555 1_555
H19_23 C23_23 1_555 1_555
O8_23 C24_23 1_555 1_555
O9_14 C24_23 1_555 1_555
C24_23 C25_23 1_555 1_555
C25_23 C26_23 1_555 1_555
C26_23 H20_23 1_555 1_555
C27_23 C5_23 1_555 1_555
C28_23 C27_23 1_555 1_555
S2_23 C25_23 1_555 1_555
O10_23 C29_23 1_555 1_555
O11_14 C29_23 1_555 1_555
C29_23 C30_23 1_555 1_555
C30_23 C31_23 1_555 1_555
C31_23 H21_23 1_555 1_555
C32_23 C28_23 1_555 1_555
C33_23 C4_23 1_555 1_555
S3_23 C30_23 1_555 1_555
Tb10_6 O8_23 1_555 1_555
O27_9 Tb10_6 1_555 1_555
H40_23 O27_9 1_555 1_555
O17_23 Tb10_6 1_555 1_555
C64_23 O17_23 1_555 1_555
H41_23 C64_23 1_555 1_555
N2_23 C64_23 1_555 1_555
C65_23 N2_23 1_555 1_555
H42_23 C65_23 1_555 1_555
H43_23 C65_23 1_555 1_555
H44_23 C65_23 1_555 1_555
C66_23 N2_23 1_555 1_555
H45_23 C66_23 1_555 1_555
H46_23 C66_23 1_555 1_555
H47_23 C66_23 1_555 1_555
Tb11_9 O10_23 1_555 1_555
O26_14 Tb11_9 1_555 1_555
H48_23 O26_14 1_555 1_555
O19_23 Tb11_9 1_555 1_555
C67_23 O19_23 1_555 1_555
H49_23 C67_23 1_555 1_555
N3_23 C67_23 1_555 1_555
C68_23 N3_23 1_555 1_555
H50_23 C68_23 1_555 1_555
H51_23 C68_23 1_555 1_555
H52_23 C68_23 1_555 1_555
C69_23 N3_23 1_555 1_555
H53_23 C69_23 1_555 1_555
H54_23 C69_23 1_555 1_555
H55_23 C69_23 1_555 1_555
Tb12_7 O9_14 1_555 1_555
Tb11_10 O11_14 1_555 1_555
O21_10 Tb11_9 1_555 1_555
O28_14 Tb11_9 1_555 1_555
O29_14 Tb13_7 1_555 1_555
O31_17 Tb10_6 1_555 1_555
C5_23 S1_23 1_555 1_555
C26_23 C27_23 1_555 1_555
C28_23 S2_23 1_555 1_555
C31_23 C32_23 1_555 1_555
C32_23 C33_23 1_555 1_555
C33_23 S3_23 1_555 1_555
Tb10_7 O25_13 1_555 1_555
Tb11_10 O21_10 1_555 1_555
O4_15 C1_24 1_555 1_555
C1_24 O3_24 1_555 1_555
C2_24 C1_24 1_555 1_555
C3_24 C2_24 1_555 1_555
H3_24 C3_24 1_555 1_555
C4_24 C3_24 1_555 1_555
C5_24 C4_24 1_555 1_555
S1_24 C2_24 1_555 1_555
O8_24 C24_24 1_555 1_555
O9_15 C24_24 1_555 1_555
C24_24 C25_24 1_555 1_555
C25_24 C26_24 1_555 1_555
C26_24 H20_24 1_555 1_555
C27_24 C5_24 1_555 1_555
C28_24 C27_24 1_555 1_555
S2_24 C25_24 1_555 1_555
O10_24 C29_24 1_555 1_555
C29_24 C30_24 1_555 1_555
C30_24 C31_24 1_555 1_555
C31_24 H21_24 1_555 1_555
C32_24 C28_24 1_555 1_555
C33_24 C4_24 1_555 1_555
S3_24 C30_24 1_555 1_555
Tb10_4 O8_24 1_555 1_555
O25 Tb10_4 1_555 1_555
H40_24 O25 1_555 1_555
O17_24 Tb10_4 1_555 1_555
C64_24 O17_24 1_555 1_555
H41_24 C64_24 1_555 1_555
N2_24 C64_24 1_555 1_555
C65_24 N2_24 1_555 1_555
H42_24 C65_24 1_555 1_555
H43_24 C65_24 1_555 1_555
H44_24 C65_24 1_555 1_555
C66_24 N2_24 1_555 1_555
H45_24 C66_24 1_555 1_555
H46_24 C66_24 1_555 1_555
H47_24 C66_24 1_555 1_555
Tb11 O10_24 1_555 1_555
O19_24 Tb11 1_555 1_555
C67_24 O19_24 1_555 1_555
H49_24 C67_24 1_555 1_555
N3_24 C67_24 1_555 1_555
C68_24 N3_24 1_555 1_555
H50_24 C68_24 1_555 1_555
H51_24 C68_24 1_555 1_555
H52_24 C68_24 1_555 1_555
C69_24 N3_24 1_555 1_555
H53_24 C69_24 1_555 1_555
H54_24 C69_24 1_555 1_555
H55_24 C69_24 1_555 1_555
Tb13 O9_15 1_555 1_555
O20_12 Tb10_4 1_555 1_555
O28_15 Tb11 1_555 1_555
O30_15 Tb10_4 1_555 1_555
O31_18 Tb10_4 1_555 1_555
O4_15 Tb13_4 1_555 1_555
C5_24 S1_24 1_555 1_555
C26_24 C27_24 1_555 1_555
C28_24 S2_24 1_555 1_555
C31_24 C32_24 1_555 1_555
C32_24 C33_24 1_555 1_555
C33_24 S3_24 1_555 1_555
Tb13 O20_12 1_555 1_555
O25_6 Tb14_3 1_555 1_555
H2_24 O25_6 1_555 1_555
O7_24 Tb14_3 1_555 1_555
C21_24 O7_24 1_555 1_555
H13_24 C21_24 1_555 1_555
N1_24 C21_24 1_555 1_555
C22_24 N1_24 1_555 1_555
H14_24 C22_24 1_555 1_555
H15_24 C22_24 1_555 1_555
H16_24 C22_24 1_555 1_555
C23_24 N1_24 1_555 1_555
H17_24 C23_24 1_555 1_555
H18_24 C23_24 1_555 1_555
H19_24 C23_24 1_555 1_555
H48_24 O25_11 1_555 1_555
H4_24 C8_24 1_555 1_555
C9_24 C8_24 1_555 1_555
H5_24 C9_24 1_555 1_555
H8_24 C14_24 1_555 1_555
C15_24 C14_24 1_555 1_555
H9_24 C15_24 1_555 1_555
O31_18 C34_24 1_555 1_555
O33 C34_24 1_555 1_555
C34_24 C35_24 1_555 1_555
C35_24 C36_24 1_555 1_555
C36_24 H22_24 1_555 1_555
C37_24 C36_24 1_555 1_555
H23_24 C37_24 1_555 1_555
C38_24 C37_24 1_555 1_555
C39_24 C38_24 1_555 1_555
H24_24 C39_24 1_555 1_555
C40_24 C35_24 1_555 1_555
H25_24 C40_24 1_555 1_555
C41_24 C38_24 1_555 1_555
C42_24 C41_24 1_555 1_555
H26_24 C42_24 1_555 1_555
C43_24 C42_24 1_555 1_555
H27_24 C43_24 1_555 1_555
C44_24 C43_24 1_555 1_555
C45_24 C44_24 1_555 1_555
H28_24 C45_24 1_555 1_555
C46_24 C41_24 1_555 1_555
H29_24 C46_24 1_555 1_555
C39_24 C40_24 1_555 1_555
C45_24 C46_24 1_555 1_555
Tb13_2 O26_8 1_555 1_555
O34_13 C6_24 1_555 1_555
C7_24 C6_24 1_555 1_555
C11_24 C10_24 1_555 1_555
H6_24 C11_24 1_555 1_555
C12_24 C7_24 1_555 1_555
H7_24 C12_24 1_555 1_555
C13_24 C10_24 1_555 1_555
C17_24 C16_24 1_555 1_555
H10_24 C17_24 1_555 1_555
C18_24 C13_24 1_555 1_555
H11_24 C18_24 1_555 1_555
C19_24 C16_24 1_555 1_555
C20_24 C19_24 1_555 1_555
C47_24 C20_24 1_555 1_555
C48_24 C47_24 1_555 1_555
H30_24 C48_24 1_555 1_555
O31_17 C49_24 1_555 1_555
O35_9 C49_24 1_555 1_555
C49_24 C50_24 1_555 1_555
C50_24 C51_24 1_555 1_555
C51_24 H31_24 1_555 1_555
C52_24 C51_24 1_555 1_555
H32_24 C52_24 1_555 1_555
C53_24 C52_24 1_555 1_555
C54_24 C53_24 1_555 1_555
H33_24 C54_24 1_555 1_555
C55_24 C50_24 1_555 1_555
H34_24 C55_24 1_555 1_555
C56_24 C53_24 1_555 1_555
C57_24 C56_24 1_555 1_555
H35_24 C57_24 1_555 1_555
C58_24 C57_24 1_555 1_555
H36_24 C58_24 1_555 1_555
C59_24 C58_24 1_555 1_555
C60_24 C59_24 1_555 1_555
H37_24 C60_24 1_555 1_555
C61_24 C56_24 1_555 1_555
H38_24 C61_24 1_555 1_555
C62_24 C48_24 1_555 1_555
C63_24 C19_24 1_555 1_555
H39_24 C63_24 1_555 1_555
C11_24 C12_24 1_555 1_555
C17_24 C18_24 1_555 1_555
C54_24 C55_24 1_555 1_555
C59_24 C62_24 1_555 1_555
C60_24 C61_24 1_555 1_555
C62_24 C63_24 1_555 1_555
Tb11_6 O26_2 1_555 1_555
O20_11 H1_30 1_555 1_555
Tb10_12 O20_11 1_555 1_555
Tb10_12 O27 1_555 1_555
O21_10 H1_31 1_555 1_555
Tb11_5 O21_10 1_555 1_555
Tb11_5 O25_12 1_555 1_555
O20_12 H1_32 1_555 1_555
Tb12_9 O20_12 1_555 1_555
Tb12_9 O26_7 1_555 1_555
C36_25 H22_25 1_555 1_555
C37_25 C36_25 1_555 1_555
H23_25 C37_25 1_555 1_555
H26_25 C42_25 1_555 1_555
C43_25 C42_25 1_555 1_555
H27_25 C43_25 1_555 1_555
O14_19 C49_25 1_555 1_555
O35_12 C49_25 1_555 1_555
C49_25 C50_25 1_555 1_555
C50_25 C51_25 1_555 1_555
C51_25 H31_25 1_555 1_555
C52_25 C51_25 1_555 1_555
H32_25 C52_25 1_555 1_555
C53_25 C52_25 1_555 1_555
C54_25 C53_25 1_555 1_555
H33_25 C54_25 1_555 1_555
C55_25 C50_25 1_555 1_555
H34_25 C55_25 1_555 1_555
C56_25 C53_25 1_555 1_555
C57_25 C56_25 1_555 1_555
H35_25 C57_25 1_555 1_555
C58_25 C57_25 1_555 1_555
H36_25 C58_25 1_555 1_555
C59_25 C58_25 1_555 1_555
C60_25 C59_25 1_555 1_555
H37_25 C60_25 1_555 1_555
C61_25 C56_25 1_555 1_555
H38_25 C61_25 1_555 1_555
Tb11_2 O12_19 1_555 1_555
Tb13 O14_19 1_555 1_555
C54_25 C55_25 1_555 1_555
C60_25 C61_25 1_555 1_555
H2_25 O26_8 1_555 1_555
O3_25 Tb13_2 1_555 1_555
O28_13 C1_25 1_555 1_555
C1_25 O3_25 1_555 1_555
C2_25 C1_25 1_555 1_555
C3_25 C2_25 1_555 1_555
H3_25 C3_25 1_555 1_555
C4_25 C3_25 1_555 1_555
C5_25 C4_25 1_555 1_555
S1_25 C2_25 1_555 1_555
O5_7 Tb13_2 1_555 1_555
O34_8 C6_25 1_555 1_555
C6_25 O5_7 1_555 1_555
C7_25 C6_25 1_555 1_555
C8_25 C7_25 1_555 1_555
H4_25 C8_25 1_555 1_555
C9_25 C8_25 1_555 1_555
H5_25 C9_25 1_555 1_555
C10_25 C9_25 1_555 1_555
C11_25 C10_25 1_555 1_555
H6_25 C11_25 1_555 1_555
C12_25 C7_25 1_555 1_555
H7_25 C12_25 1_555 1_555
C13_25 C10_25 1_555 1_555
C14_25 C13_25 1_555 1_555
H8_25 C14_25 1_555 1_555
C15_25 C14_25 1_555 1_555
H9_25 C15_25 1_555 1_555
C16_25 C15_25 1_555 1_555
C17_25 C16_25 1_555 1_555
H10_25 C17_25 1_555 1_555
C18_25 C13_25 1_555 1_555
H11_25 C18_25 1_555 1_555
C19_25 C16_25 1_555 1_555
C20_25 C19_25 1_555 1_555
H12_25 C20_25 1_555 1_555
O7_25 Tb13_2 1_555 1_555
C21_25 O7_25 1_555 1_555
H13_25 C21_25 1_555 1_555
N1_25 C21_25 1_555 1_555
C22_25 N1_25 1_555 1_555
H14_25 C22_25 1_555 1_555
H15_25 C22_25 1_555 1_555
H16_25 C22_25 1_555 1_555
C23_25 N1_25 1_555 1_555
H17_25 C23_25 1_555 1_555
H18_25 C23_25 1_555 1_555
H19_25 C23_25 1_555 1_555
O8_25 C24_25 1_555 1_555
O9_16 C24_25 1_555 1_555
C24_25 C25_25 1_555 1_555
C25_25 C26_25 1_555 1_555
C26_25 H20_25 1_555 1_555
C27_25 C5_25 1_555 1_555
C28_25 C27_25 1_555 1_555
S2_25 C25_25 1_555 1_555
O10_25 C29_25 1_555 1_555
O30_12 C29_25 1_555 1_555
C29_25 C30_25 1_555 1_555
C30_25 C31_25 1_555 1_555
C31_25 H21_25 1_555 1_555
C32_25 C28_25 1_555 1_555
C33_25 C4_25 1_555 1_555
S3_25 C30_25 1_555 1_555
O33_16 C34_25 1_555 1_555
C34_25 C35_25 1_555 1_555
C39_25 C38_25 1_555 1_555
H24_25 C39_25 1_555 1_555
C40_25 C35_25 1_555 1_555
H25_25 C40_25 1_555 1_555
C41_25 C38_25 1_555 1_555
C45_25 C44_25 1_555 1_555
H28_25 C45_25 1_555 1_555
C46_25 C41_25 1_555 1_555
H29_25 C46_25 1_555 1_555
C47_25 C20_25 1_555 1_555
C48_25 C47_25 1_555 1_555
C62_25 C48_25 1_555 1_555
C63_25 C19_25 1_555 1_555
H39_25 C63_25 1_555 1_555
Tb12_5 O8_25 1_555 1_555
O27_14 Tb12_5 1_555 1_555
H40_25 O27_14 1_555 1_555
O17_25 Tb12_5 1_555 1_555
C64_25 O17_25 1_555 1_555
H41_25 C64_25 1_555 1_555
N2_25 C64_25 1_555 1_555
C65_25 N2_25 1_555 1_555
H42_25 C65_25 1_555 1_555
H43_25 C65_25 1_555 1_555
H44_25 C65_25 1_555 1_555
C66_25 N2_25 1_555 1_555
H45_25 C66_25 1_555 1_555
H46_25 C66_25 1_555 1_555
H47_25 C66_25 1_555 1_555
Tb12_12 O10_25 1_555 1_555
H48_25 O26_3 1_555 1_555
O19_25 Tb12_12 1_555 1_555
C67_25 O19_25 1_555 1_555
H49_25 C67_25 1_555 1_555
N3_25 C67_25 1_555 1_555
C68_25 N3_25 1_555 1_555
H50_25 C68_25 1_555 1_555
H51_25 C68_25 1_555 1_555
H52_25 C68_25 1_555 1_555
C69_25 N3_25 1_555 1_555
H53_25 C69_25 1_555 1_555
H54_25 C69_25 1_555 1_555
H55_25 C69_25 1_555 1_555
Tb10_12 O9_16 1_555 1_555
O28_16 Tb12_12 1_555 1_555
O31_19 Tb12_5 1_555 1_555
O32_13 Tb12_12 1_555 1_555
C5_25 S1_25 1_555 1_555
C11_25 C12_25 1_555 1_555
C17_25 C18_25 1_555 1_555
C26_25 C27_25 1_555 1_555
C28_25 S2_25 1_555 1_555
C31_25 C32_25 1_555 1_555
C32_25 C33_25 1_555 1_555
C33_25 S3_25 1_555 1_555
C39_25 C40_25 1_555 1_555
C44_25 C47_25 1_555 1_555
C45_25 C46_25 1_555 1_555
C62_25 C63_25 1_555 1_555
O35_14 C6_26 1_555 1_555
C6_26 O31_19 1_555 1_555
C7_26 C6_26 1_555 1_555
C8_26 C7_26 1_555 1_555
H4_26 C8_26 1_555 1_555
C9_26 C8_26 1_555 1_555
H5_26 C9_26 1_555 1_555
C10_26 C9_26 1_555 1_555
C11_26 C10_26 1_555 1_555
H6_26 C11_26 1_555 1_555
C12_26 C7_26 1_555 1_555
H7_26 C12_26 1_555 1_555
C13_26 C10_26 1_555 1_555
C14_26 C13_26 1_555 1_555
H8_26 C14_26 1_555 1_555
C15_26 C14_26 1_555 1_555
H9_26 C15_26 1_555 1_555
C16_26 C15_26 1_555 1_555
C17_26 C16_26 1_555 1_555
H10_26 C17_26 1_555 1_555
C18_26 C13_26 1_555 1_555
H11_26 C18_26 1_555 1_555
C19_26 C16_26 1_555 1_555
C20_26 C19_26 1_555 1_555
H12_26 C20_26 1_555 1_555
O12_20 C34_26 1_555 1_555
O34_2 C34_26 1_555 1_555
C34_26 C35_26 1_555 1_555
C35_26 C36_26 1_555 1_555
C36_26 H22_26 1_555 1_555
C37_26 C36_26 1_555 1_555
H23_26 C37_26 1_555 1_555
C38_26 C37_26 1_555 1_555
C39_26 C38_26 1_555 1_555
H24_26 C39_26 1_555 1_555
C40_26 C35_26 1_555 1_555
H25_26 C40_26 1_555 1_555
C41_26 C38_26 1_555 1_555
C42_26 C41_26 1_555 1_555
H26_26 C42_26 1_555 1_555
C43_26 C42_26 1_555 1_555
H27_26 C43_26 1_555 1_555
C44_26 C43_26 1_555 1_555
C45_26 C44_26 1_555 1_555
H28_26 C45_26 1_555 1_555
C46_26 C41_26 1_555 1_555
H29_26 C46_26 1_555 1_555
C47_26 C20_26 1_555 1_555
C48_26 C47_26 1_555 1_555
H30_26 C48_26 1_555 1_555
O14_20 C49_26 1_555 1_555
O33_10 C49_26 1_555 1_555
C49_26 C50_26 1_555 1_555
C50_26 C51_26 1_555 1_555
C51_26 H31_26 1_555 1_555
C52_26 C51_26 1_555 1_555
H32_26 C52_26 1_555 1_555
C53_26 C52_26 1_555 1_555
C54_26 C53_26 1_555 1_555
H33_26 C54_26 1_555 1_555
C55_26 C50_26 1_555 1_555
H34_26 C55_26 1_555 1_555
C56_26 C53_26 1_555 1_555
C57_26 C56_26 1_555 1_555
H35_26 C57_26 1_555 1_555
C58_26 C57_26 1_555 1_555
H36_26 C58_26 1_555 1_555
C59_26 C58_26 1_555 1_555
C60_26 C59_26 1_555 1_555
H37_26 C60_26 1_555 1_555
C61_26 C56_26 1_555 1_555
H38_26 C61_26 1_555 1_555
C62_26 C48_26 1_555 1_555
C63_26 C19_26 1_555 1_555
H39_26 C63_26 1_555 1_555
Tb11_6 O12_20 1_555 1_555
Tb14_2 O14_20 1_555 1_555
C11_26 C12_26 1_555 1_555
C17_26 C18_26 1_555 1_555
C39_26 C40_26 1_555 1_555
C44_26 C47_26 1_555 1_555
C45_26 C46_26 1_555 1_555
C54_26 C55_26 1_555 1_555
C59_26 C62_26 1_555 1_555
C60_26 C61_26 1_555 1_555
C62_26 C63_26 1_555 1_555
O34_3 C6_27 1_555 1_555
C6_27 O32_13 1_555 1_555
C7_27 C6_27 1_555 1_555
C8_27 C7_27 1_555 1_555
H4_27 C8_27 1_555 1_555
C9_27 C8_27 1_555 1_555
H5_27 C9_27 1_555 1_555
C10_27 C9_27 1_555 1_555
C11_27 C10_27 1_555 1_555
H6_27 C11_27 1_555 1_555
C12_27 C7_27 1_555 1_555
H7_27 C12_27 1_555 1_555
C13_27 C10_27 1_555 1_555
C14_27 C13_27 1_555 1_555
H8_27 C14_27 1_555 1_555
C15_27 C14_27 1_555 1_555
H9_27 C15_27 1_555 1_555
C16_27 C15_27 1_555 1_555
C17_27 C16_27 1_555 1_555
H10_27 C17_27 1_555 1_555
C18_27 C13_27 1_555 1_555
H11_27 C18_27 1_555 1_555
C19_27 C16_27 1_555 1_555
C20_27 C19_27 1_555 1_555
H12_27 C20_27 1_555 1_555
O12_21 C34_27 1_555 1_555
O33_7 C34_27 1_555 1_555
C34_27 C35_27 1_555 1_555
C35_27 C36_27 1_555 1_555
C36_27 H22_27 1_555 1_555
C37_27 C36_27 1_555 1_555
H23_27 C37_27 1_555 1_555
C38_27 C37_27 1_555 1_555
C39_27 C38_27 1_555 1_555
H24_27 C39_27 1_555 1_555
C40_27 C35_27 1_555 1_555
H25_27 C40_27 1_555 1_555
C41_27 C38_27 1_555 1_555
C42_27 C41_27 1_555 1_555
H26_27 C42_27 1_555 1_555
C43_27 C42_27 1_555 1_555
H27_27 C43_27 1_555 1_555
C44_27 C43_27 1_555 1_555
C45_27 C44_27 1_555 1_555
H28_27 C45_27 1_555 1_555
C46_27 C41_27 1_555 1_555
H29_27 C46_27 1_555 1_555
C47_27 C20_27 1_555 1_555
C48_27 C47_27 1_555 1_555
H30_27 C48_27 1_555 1_555
O14_21 C49_27 1_555 1_555
O35_11 C49_27 1_555 1_555
C49_27 C50_27 1_555 1_555
C50_27 C51_27 1_555 1_555
C51_27 H31_27 1_555 1_555
C52_27 C51_27 1_555 1_555
H32_27 C52_27 1_555 1_555
C53_27 C52_27 1_555 1_555
C54_27 C53_27 1_555 1_555
H33_27 C54_27 1_555 1_555
C55_27 C50_27 1_555 1_555
H34_27 C55_27 1_555 1_555
C56_27 C53_27 1_555 1_555
C57_27 C56_27 1_555 1_555
H35_27 C57_27 1_555 1_555
C58_27 C57_27 1_555 1_555
H36_27 C58_27 1_555 1_555
C59_27 C58_27 1_555 1_555
C60_27 C59_27 1_555 1_555
H37_27 C60_27 1_555 1_555
C61_27 C56_27 1_555 1_555
H38_27 C61_27 1_555 1_555
C62_27 C48_27 1_555 1_555
C63_27 C19_27 1_555 1_555
H39_27 C63_27 1_555 1_555
Tb11_10 O12_21 1_555 1_555
Tb12_10 O14_21 1_555 1_555
C11_27 C12_27 1_555 1_555
C17_27 C18_27 1_555 1_555
C39_27 C40_27 1_555 1_555
C44_27 C47_27 1_555 1_555
C45_27 C46_27 1_555 1_555
C54_27 C55_27 1_555 1_555
C59_27 C62_27 1_555 1_555
C60_27 C61_27 1_555 1_555
C62_27 C63_27 1_555 1_555
Tb13_3 O27_16 1_555 1_555
O3_26 Tb11_2 1_555 1_555
C1_26 O3_26 1_555 1_555
C2_26 C1_26 1_555 1_555
C3_26 C2_26 1_555 1_555
H3_26 C3_26 1_555 1_555
C4_26 C3_26 1_555 1_555
C5_26 C4_26 1_555 1_555
S1_26 C2_26 1_555 1_555
O7_26 Tb11_2 1_555 1_555
C21_26 O7_26 1_555 1_555
H13_26 C21_26 1_555 1_555
N1_26 C21_26 1_555 1_555
C22_26 N1_26 1_555 1_555
H14_26 C22_26 1_555 1_555
H15_26 C22_26 1_555 1_555
H16_26 C22_26 1_555 1_555
C23_26 N1_26 1_555 1_555
H17_26 C23_26 1_555 1_555
H18_26 C23_26 1_555 1_555
H19_26 C23_26 1_555 1_555
O8_26 C24_26 1_555 1_555
O30_13 C24_26 1_555 1_555
C24_26 C25_26 1_555 1_555
C25_26 C26_26 1_555 1_555
C26_26 H20_26 1_555 1_555
C27_26 C5_26 1_555 1_555
C28_26 C27_26 1_555 1_555
S2_26 C25_26 1_555 1_555
O10_26 C29_26 1_555 1_555
O11_15 C29_26 1_555 1_555
C29_26 C30_26 1_555 1_555
C30_26 C31_26 1_555 1_555
C31_26 H21_26 1_555 1_555
C32_26 C28_26 1_555 1_555
C33_26 C4_26 1_555 1_555
S3_26 C30_26 1_555 1_555
Tb10_8 O10_26 1_555 1_555
O26 Tb10_8 1_555 1_555
H48_26 O26 1_555 1_555
O19_26 Tb10_8 1_555 1_555
C67_26 O19_26 1_555 1_555
H49_26 C67_26 1_555 1_555
N3_26 C67_26 1_555 1_555
C68_26 N3_26 1_555 1_555
H50_26 C68_26 1_555 1_555
H51_26 C68_26 1_555 1_555
H52_26 C68_26 1_555 1_555
C69_26 N3_26 1_555 1_555
H53_26 C69_26 1_555 1_555
H54_26 C69_26 1_555 1_555
H55_26 C69_26 1_555 1_555
Tb14 O11_15 1_555 1_555
O29_15 Tb11_2 1_555 1_555
O32_14 Tb10_8 1_555 1_555
C5_26 S1_26 1_555 1_555
C26_26 C27_26 1_555 1_555
C28_26 S2_26 1_555 1_555
C31_26 C32_26 1_555 1_555
C32_26 C33_26 1_555 1_555
C33_26 S3_26 1_555 1_555
Tb11_7 O25_3 1_555 1_555
H2_26 O25_16 1_555 1_555
H40_26 O27_11 1_555 1_555
O17_26 Tb12_10 1_555 1_555
C64_26 O17_26 1_555 1_555
H41_26 C64_26 1_555 1_555
N2_26 C64_26 1_555 1_555
C65_26 N2_26 1_555 1_555
H42_26 C65_26 1_555 1_555
H43_26 C65_26 1_555 1_555
H44_26 C65_26 1_555 1_555
C66_26 N2_26 1_555 1_555
H45_26 C66_26 1_555 1_555
H46_26 C66_26 1_555 1_555
H47_26 C66_26 1_555 1_555
O27_12 Tb13 1_555 1_555
H2_27 O27_12 1_555 1_555
O3_27 Tb13 1_555 1_555
O4_16 C1_27 1_555 1_555
C1_27 O3_27 1_555 1_555
C2_27 C1_27 1_555 1_555
C3_27 C2_27 1_555 1_555
H3_27 C3_27 1_555 1_555
C4_27 C3_27 1_555 1_555
C5_27 C4_27 1_555 1_555
S1_27 C2_27 1_555 1_555
O7_27 Tb13 1_555 1_555
C21_27 O7_27 1_555 1_555
H13_27 C21_27 1_555 1_555
N1_27 C21_27 1_555 1_555
C22_27 N1_27 1_555 1_555
H14_27 C22_27 1_555 1_555
H15_27 C22_27 1_555 1_555
H16_27 C22_27 1_555 1_555
C23_27 N1_27 1_555 1_555
H17_27 C23_27 1_555 1_555
H18_27 C23_27 1_555 1_555
H19_27 C23_27 1_555 1_555
O8_27 C24_27 1_555 1_555
C24_27 C25_27 1_555 1_555
C25_27 C26_27 1_555 1_555
C26_27 H20_27 1_555 1_555
C27_27 C5_27 1_555 1_555
C28_27 C27_27 1_555 1_555
S2_27 C25_27 1_555 1_555
O10_27 C29_27 1_555 1_555
O28_15 C29_27 1_555 1_555
C29_27 C30_27 1_555 1_555
C30_27 C31_27 1_555 1_555
C31_27 H21_27 1_555 1_555
C32_27 C28_27 1_555 1_555
C33_27 C4_27 1_555 1_555
S3_27 C30_27 1_555 1_555
Tb10_9 O8_27 1_555 1_555
O17_27 Tb10_9 1_555 1_555
C64_27 O17_27 1_555 1_555
H41_27 C64_27 1_555 1_555
N2_27 C64_27 1_555 1_555
C65_27 N2_27 1_555 1_555
H42_27 C65_27 1_555 1_555
H43_27 C65_27 1_555 1_555
H44_27 C65_27 1_555 1_555
C66_27 N2_27 1_555 1_555
H45_27 C66_27 1_555 1_555
H46_27 C66_27 1_555 1_555
H47_27 C66_27 1_555 1_555
O30_16 Tb10_9 1_555 1_555
O31_20 Tb10_9 1_555 1_555
O4_16 Tb12_9 1_555 1_555
C5_27 S1_27 1_555 1_555
C26_27 C27_27 1_555 1_555
C28_27 S2_27 1_555 1_555
C31_27 C32_27 1_555 1_555
C32_27 C33_27 1_555 1_555
C33_27 S3_27 1_555 1_555
H40_27 O27_5 1_555 1_555
H48_27 O26_2 1_555 1_555
O19_27 Tb11_6 1_555 1_555
C67_27 O19_27 1_555 1_555
H49_27 C67_27 1_555 1_555
N3_27 C67_27 1_555 1_555
C68_27 N3_27 1_555 1_555
H50_27 C68_27 1_555 1_555
H51_27 C68_27 1_555 1_555
H52_27 C68_27 1_555 1_555
C69_27 N3_27 1_555 1_555
H53_27 C69_27 1_555 1_555
H54_27 C69_27 1_555 1_555
H55_27 C69_27 1_555 1_555
H2_28 O25_10 1_555 1_555
O3_28 Tb14_2 1_555 1_555
O29_9 C1_28 1_555 1_555
C1_28 O3_28 1_555 1_555
C2_28 C1_28 1_555 1_555
C3_28 C2_28 1_555 1_555
H3_28 C3_28 1_555 1_555
C4_28 C3_28 1_555 1_555
C5_28 C4_28 1_555 1_555
S1_28 C2_28 1_555 1_555
O7_28 Tb14_2 1_555 1_555
C21_28 O7_28 1_555 1_555
H13_28 C21_28 1_555 1_555
N1_28 C21_28 1_555 1_555
C22_28 N1_28 1_555 1_555
H14_28 C22_28 1_555 1_555
H15_28 C22_28 1_555 1_555
H16_28 C22_28 1_555 1_555
C23_28 N1_28 1_555 1_555
H17_28 C23_28 1_555 1_555
H18_28 C23_28 1_555 1_555
H19_28 C23_28 1_555 1_555
O8_28 C24_28 1_555 1_555
O29_14 C24_28 1_555 1_555
C24_28 C25_28 1_555 1_555
C25_28 C26_28 1_555 1_555
C26_28 H20_28 1_555 1_555
C27_28 C5_28 1_555 1_555
C28_28 C27_28 1_555 1_555
S2_28 C25_28 1_555 1_555
O10_28 C29_28 1_555 1_555
O11_16 C29_28 1_555 1_555
C29_28 C30_28 1_555 1_555
C30_28 C31_28 1_555 1_555
C31_28 H21_28 1_555 1_555
C32_28 C28_28 1_555 1_555
C33_28 C4_28 1_555 1_555
S3_28 C30_28 1_555 1_555
Tb10_7 O8_28 1_555 1_555
H40_28 O25_13 1_555 1_555
O17_28 Tb10_7 1_555 1_555
C64_28 O17_28 1_555 1_555
H41_28 C64_28 1_555 1_555
N2_28 C64_28 1_555 1_555
C65_28 N2_28 1_555 1_555
H42_28 C65_28 1_555 1_555
H43_28 C65_28 1_555 1_555
H44_28 C65_28 1_555 1_555
C66_28 N2_28 1_555 1_555
H45_28 C66_28 1_555 1_555
H46_28 C66_28 1_555 1_555
H47_28 C66_28 1_555 1_555
Tb11_10 O10_28 1_555 1_555
O25_7 Tb11_10 1_555 1_555
H48_28 O25_7 1_555 1_555
O19_28 Tb11_10 1_555 1_555
C67_28 O19_28 1_555 1_555
H49_28 C67_28 1_555 1_555
N3_28 C67_28 1_555 1_555
C68_28 N3_28 1_555 1_555
H50_28 C68_28 1_555 1_555
H51_28 C68_28 1_555 1_555
H52_28 C68_28 1_555 1_555
C69_28 N3_28 1_555 1_555
H53_28 C69_28 1_555 1_555
H54_28 C69_28 1_555 1_555
H55_28 C69_28 1_555 1_555
Tb11_5 O11_16 1_555 1_555
O29_16 Tb14_2 1_555 1_555
O31_21 Tb10_7 1_555 1_555
C5_28 S1_28 1_555 1_555
C26_28 C27_28 1_555 1_555
C28_28 S2_28 1_555 1_555
C31_28 C32_28 1_555 1_555
C32_28 C33_28 1_555 1_555
C33_28 S3_28 1_555 1_555
Tb10_11 O26_5 1_555 1_555
O34 C6_28 1_555 1_555
C6_28 O32_14 1_555 1_555
C7_28 C6_28 1_555 1_555
C8_28 C7_28 1_555 1_555
H4_28 C8_28 1_555 1_555
C9_28 C8_28 1_555 1_555
H5_28 C9_28 1_555 1_555
C10_28 C9_28 1_555 1_555
C11_28 C10_28 1_555 1_555
H6_28 C11_28 1_555 1_555
C12_28 C7_28 1_555 1_555
H7_28 C12_28 1_555 1_555
C13_28 C10_28 1_555 1_555
C14_28 C13_28 1_555 1_555
H8_28 C14_28 1_555 1_555
C15_28 C14_28 1_555 1_555
H9_28 C15_28 1_555 1_555
C16_28 C15_28 1_555 1_555
C17_28 C16_28 1_555 1_555
H10_28 C17_28 1_555 1_555
C18_28 C13_28 1_555 1_555
H11_28 C18_28 1_555 1_555
C51_28 H31_28 1_555 1_555
C52_28 C51_28 1_555 1_555
H32_28 C52_28 1_555 1_555
H35_28 C57_28 1_555 1_555
C58_28 C57_28 1_555 1_555
H36_28 C58_28 1_555 1_555
C11_28 C12_28 1_555 1_555
C17_28 C18_28 1_555 1_555
C20_28 C19_28 1_555 1_555
H12_28 C20_28 1_555 1_555
O31_21 C34_28 1_555 1_555
O33_13 C34_28 1_555 1_555
C34_28 C35_28 1_555 1_555
C35_28 C36_28 1_555 1_555
C36_28 H22_28 1_555 1_555
C37_28 C36_28 1_555 1_555
H23_28 C37_28 1_555 1_555
C38_28 C37_28 1_555 1_555
C39_28 C38_28 1_555 1_555
H24_28 C39_28 1_555 1_555
C40_28 C35_28 1_555 1_555
H25_28 C40_28 1_555 1_555
C41_28 C38_28 1_555 1_555
C42_28 C41_28 1_555 1_555
H26_28 C42_28 1_555 1_555
C43_28 C42_28 1_555 1_555
H27_28 C43_28 1_555 1_555
C44_28 C43_28 1_555 1_555
C45_28 C44_28 1_555 1_555
H28_28 C45_28 1_555 1_555
C46_28 C41_28 1_555 1_555
H29_28 C46_28 1_555 1_555
C47_28 C20_28 1_555 1_555
C48_28 C47_28 1_555 1_555
H30_28 C48_28 1_555 1_555
O35_5 C49_28 1_555 1_555
C49_28 C50_28 1_555 1_555
C54_28 C53_28 1_555 1_555
H33_28 C54_28 1_555 1_555
C55_28 C50_28 1_555 1_555
H34_28 C55_28 1_555 1_555
C56_28 C53_28 1_555 1_555
C60_28 C59_28 1_555 1_555
H37_28 C60_28 1_555 1_555
C61_28 C56_28 1_555 1_555
H38_28 C61_28 1_555 1_555
C62_28 C48_28 1_555 1_555
C63_28 C19_28 1_555 1_555
C39_28 C40_28 1_555 1_555
C44_28 C47_28 1_555 1_555
C45_28 C46_28 1_555 1_555
C54_28 C55_28 1_555 1_555
C59_28 C62_28 1_555 1_555
C60_28 C61_28 1_555 1_555
C62_28 C63_28 1_555 1_555
Tb12_2 O27_10 1_555 1_555
H2_29 O26_4 1_555 1_555
O3_29 Tb13_4 1_555 1_555
O28_10 C1_29 1_555 1_555
C1_29 O3_29 1_555 1_555
C2_29 C1_29 1_555 1_555
C3_29 C2_29 1_555 1_555
H3_29 C3_29 1_555 1_555
C4_29 C3_29 1_555 1_555
C5_29 C4_29 1_555 1_555
S1_29 C2_29 1_555 1_555
O5_8 Tb13_4 1_555 1_555
O34_4 C6_29 1_555 1_555
C6_29 O5_8 1_555 1_555
C7_29 C6_29 1_555 1_555
C8_29 C7_29 1_555 1_555
H4_29 C8_29 1_555 1_555
C9_29 C8_29 1_555 1_555
H5_29 C9_29 1_555 1_555
C10_29 C9_29 1_555 1_555
C11_29 C10_29 1_555 1_555
H6_29 C11_29 1_555 1_555
C12_29 C7_29 1_555 1_555
H7_29 C12_29 1_555 1_555
C13_29 C10_29 1_555 1_555
C14_29 C13_29 1_555 1_555
H8_29 C14_29 1_555 1_555
C15_29 C14_29 1_555 1_555
H9_29 C15_29 1_555 1_555
C16_29 C15_29 1_555 1_555
C17_29 C16_29 1_555 1_555
H10_29 C17_29 1_555 1_555
C18_29 C13_29 1_555 1_555
H11_29 C18_29 1_555 1_555
C19_29 C16_29 1_555 1_555
C20_29 C19_29 1_555 1_555
H12_29 C20_29 1_555 1_555
O7_29 Tb13_4 1_555 1_555
C21_29 O7_29 1_555 1_555
H13_29 C21_29 1_555 1_555
N1_29 C21_29 1_555 1_555
C22_29 N1_29 1_555 1_555
H14_29 C22_29 1_555 1_555
H15_29 C22_29 1_555 1_555
H16_29 C22_29 1_555 1_555
C23_29 N1_29 1_555 1_555
H17_29 C23_29 1_555 1_555
H18_29 C23_29 1_555 1_555
H19_29 C23_29 1_555 1_555
O8_29 C24_29 1_555 1_555
O30_16 C24_29 1_555 1_555
C24_29 C25_29 1_555 1_555
C25_29 C26_29 1_555 1_555
C26_29 H20_29 1_555 1_555
C27_29 C5_29 1_555 1_555
C28_29 C27_29 1_555 1_555
S2_29 C25_29 1_555 1_555
O10_29 C29_29 1_555 1_555
O30_15 C29_29 1_555 1_555
C29_29 C30_29 1_555 1_555
C30_29 C31_29 1_555 1_555
C31_29 H21_29 1_555 1_555
C32_29 C28_29 1_555 1_555
C33_29 C4_29 1_555 1_555
S3_29 C30_29 1_555 1_555
O12_22 C34_29 1_555 1_555
O33_12 C34_29 1_555 1_555
C34_29 C35_29 1_555 1_555
C35_29 C36_29 1_555 1_555
C36_29 H22_29 1_555 1_555
C37_29 C36_29 1_555 1_555
H23_29 C37_29 1_555 1_555
C38_29 C37_29 1_555 1_555
C39_29 C38_29 1_555 1_555
H24_29 C39_29 1_555 1_555
C40_29 C35_29 1_555 1_555
H25_29 C40_29 1_555 1_555
C41_29 C38_29 1_555 1_555
C42_29 C41_29 1_555 1_555
H26_29 C42_29 1_555 1_555
C43_29 C42_29 1_555 1_555
H27_29 C43_29 1_555 1_555
C44_29 C43_29 1_555 1_555
C45_29 C44_29 1_555 1_555
H28_29 C45_29 1_555 1_555
C46_29 C41_29 1_555 1_555
H29_29 C46_29 1_555 1_555
C47_29 C20_29 1_555 1_555
C48_29 C47_29 1_555 1_555
H30_29 C48_29 1_555 1_555
O14_22 C49_29 1_555 1_555
O35_16 C49_29 1_555 1_555
C49_29 C50_29 1_555 1_555
C50_29 C51_29 1_555 1_555
C51_29 H31_29 1_555 1_555
C52_29 C51_29 1_555 1_555
H32_29 C52_29 1_555 1_555
C53_29 C52_29 1_555 1_555
C54_29 C53_29 1_555 1_555
H33_29 C54_29 1_555 1_555
C55_29 C50_29 1_555 1_555
H34_29 C55_29 1_555 1_555
C56_29 C53_29 1_555 1_555
C57_29 C56_29 1_555 1_555
H35_29 C57_29 1_555 1_555
C58_29 C57_29 1_555 1_555
H36_29 C58_29 1_555 1_555
C59_29 C58_29 1_555 1_555
C60_29 C59_29 1_555 1_555
H37_29 C60_29 1_555 1_555
C61_29 C56_29 1_555 1_555
H38_29 C61_29 1_555 1_555
C62_29 C48_29 1_555 1_555
C63_29 C19_29 1_555 1_555
H39_29 C63_29 1_555 1_555
Tb12_2 O8_29 1_555 1_555
H40_29 O27_10 1_555 1_555
O17_29 Tb12_2 1_555 1_555
C64_29 O17_29 1_555 1_555
H41_29 C64_29 1_555 1_555
N2_29 C64_29 1_555 1_555
C65_29 N2_29 1_555 1_555
H42_29 C65_29 1_555 1_555
H43_29 C65_29 1_555 1_555
H44_29 C65_29 1_555 1_555
C66_29 N2_29 1_555 1_555
H45_29 C66_29 1_555 1_555
H46_29 C66_29 1_555 1_555
H47_29 C66_29 1_555 1_555
Tb12_9 O10_29 1_555 1_555
H48_29 O26_7 1_555 1_555
O19_29 Tb12_9 1_555 1_555
C67_29 O19_29 1_555 1_555
H49_29 C67_29 1_555 1_555
N3_29 C67_29 1_555 1_555
C68_29 N3_29 1_555 1_555
H50_29 C68_29 1_555 1_555
H51_29 C68_29 1_555 1_555
H52_29 C68_29 1_555 1_555
C69_29 N3_29 1_555 1_555
H53_29 C69_29 1_555 1_555
H54_29 C69_29 1_555 1_555
H55_29 C69_29 1_555 1_555
Tb11_5 O12_22 1_555 1_555
Tb13_3 O14_22 1_555 1_555
O31_22 Tb12_2 1_555 1_555
O32_15 Tb12_9 1_555 1_555
C5_29 S1_29 1_555 1_555
C11_29 C12_29 1_555 1_555
C17_29 C18_29 1_555 1_555
C26_29 C27_29 1_555 1_555
C28_29 S2_29 1_555 1_555
C31_29 C32_29 1_555 1_555
C32_29 C33_29 1_555 1_555
C33_29 S3_29 1_555 1_555
C39_29 C40_29 1_555 1_555
C44_29 C47_29 1_555 1_555
C45_29 C46_29 1_555 1_555
C54_29 C55_29 1_555 1_555
C59_29 C62_29 1_555 1_555
C60_29 C61_29 1_555 1_555
C62_29 C63_29 1_555 1_555
C36_30 H22_30 1_555 1_555
C37_30 C36_30 1_555 1_555
H23_30 C37_30 1_555 1_555
H26_30 C42_30 1_555 1_555
C43_30 C42_30 1_555 1_555
H27_30 C43_30 1_555 1_555
O14_23 C49_30 1_555 1_555
O33_14 C49_30 1_555 1_555
C49_30 C50_30 1_555 1_555
C50_30 C51_30 1_555 1_555
C51_30 H31_30 1_555 1_555
C52_30 C51_30 1_555 1_555
H32_30 C52_30 1_555 1_555
C53_30 C52_30 1_555 1_555
C54_30 C53_30 1_555 1_555
H33_30 C54_30 1_555 1_555
C55_30 C50_30 1_555 1_555
H34_30 C55_30 1_555 1_555
C56_30 C53_30 1_555 1_555
C57_30 C56_30 1_555 1_555
H35_30 C57_30 1_555 1_555
C58_30 C57_30 1_555 1_555
H36_30 C58_30 1_555 1_555
C59_30 C58_30 1_555 1_555
C60_30 C59_30 1_555 1_555
H37_30 C60_30 1_555 1_555
C61_30 C56_30 1_555 1_555
H38_30 C61_30 1_555 1_555
Tb11_3 O12_23 1_555 1_555
Tb14 O14_23 1_555 1_555
C54_30 C55_30 1_555 1_555
C60_30 C61_30 1_555 1_555
O35_10 C6_30 1_555 1_555
C6_30 O31_22 1_555 1_555
C7_30 C6_30 1_555 1_555
C8_30 C7_30 1_555 1_555
H4_30 C8_30 1_555 1_555
C9_30 C8_30 1_555 1_555
H5_30 C9_30 1_555 1_555
C10_30 C9_30 1_555 1_555
C11_30 C10_30 1_555 1_555
H6_30 C11_30 1_555 1_555
C12_30 C7_30 1_555 1_555
H7_30 C12_30 1_555 1_555
C13_30 C10_30 1_555 1_555
C14_30 C13_30 1_555 1_555
H8_30 C14_30 1_555 1_555
C15_30 C14_30 1_555 1_555
H9_30 C15_30 1_555 1_555
C16_30 C15_30 1_555 1_555
C17_30 C16_30 1_555 1_555
H10_30 C17_30 1_555 1_555
C18_30 C13_30 1_555 1_555
H11_30 C18_30 1_555 1_555
C19_30 C16_30 1_555 1_555
C20_30 C19_30 1_555 1_555
H12_30 C20_30 1_555 1_555
O34_6 C34_30 1_555 1_555
C34_30 C35_30 1_555 1_555
C39_30 C38_30 1_555 1_555
H24_30 C39_30 1_555 1_555
C40_30 C35_30 1_555 1_555
H25_30 C40_30 1_555 1_555
C41_30 C38_30 1_555 1_555
C45_30 C44_30 1_555 1_555
H28_30 C45_30 1_555 1_555
C46_30 C41_30 1_555 1_555
H29_30 C46_30 1_555 1_555
C47_30 C20_30 1_555 1_555
C48_30 C47_30 1_555 1_555
C62_30 C48_30 1_555 1_555
C63_30 C19_30 1_555 1_555
H39_30 C63_30 1_555 1_555
C11_30 C12_30 1_555 1_555
C17_30 C18_30 1_555 1_555
C39_30 C40_30 1_555 1_555
C44_30 C47_30 1_555 1_555
C45_30 C46_30 1_555 1_555
C62_30 C63_30 1_555 1_555
O34_7 C6_31 1_555 1_555
C6_31 O32_15 1_555 1_555
C7_31 C6_31 1_555 1_555
C8_31 C7_31 1_555 1_555
H4_31 C8_31 1_555 1_555
C9_31 C8_31 1_555 1_555
H5_31 C9_31 1_555 1_555
C10_31 C9_31 1_555 1_555
C11_31 C10_31 1_555 1_555
H6_31 C11_31 1_555 1_555
C12_31 C7_31 1_555 1_555
H7_31 C12_31 1_555 1_555
C13_31 C10_31 1_555 1_555
C14_31 C13_31 1_555 1_555
H8_31 C14_31 1_555 1_555
C15_31 C14_31 1_555 1_555
H9_31 C15_31 1_555 1_555
C16_31 C15_31 1_555 1_555
C17_31 C16_31 1_555 1_555
H10_31 C17_31 1_555 1_555
C18_31 C13_31 1_555 1_555
H11_31 C18_31 1_555 1_555
C19_31 C16_31 1_555 1_555
C20_31 C19_31 1_555 1_555
H12_31 C20_31 1_555 1_555
O12_24 C34_31 1_555 1_555
O33_3 C34_31 1_555 1_555
C34_31 C35_31 1_555 1_555
C35_31 C36_31 1_555 1_555
C36_31 H22_31 1_555 1_555
C37_31 C36_31 1_555 1_555
H23_31 C37_31 1_555 1_555
C38_31 C37_31 1_555 1_555
C39_31 C38_31 1_555 1_555
H24_31 C39_31 1_555 1_555
C40_31 C35_31 1_555 1_555
H25_31 C40_31 1_555 1_555
C41_31 C38_31 1_555 1_555
C42_31 C41_31 1_555 1_555
H26_31 C42_31 1_555 1_555
C43_31 C42_31 1_555 1_555
H27_31 C43_31 1_555 1_555
C44_31 C43_31 1_555 1_555
C45_31 C44_31 1_555 1_555
H28_31 C45_31 1_555 1_555
C46_31 C41_31 1_555 1_555
H29_31 C46_31 1_555 1_555
C47_31 C20_31 1_555 1_555
C48_31 C47_31 1_555 1_555
H30_31 C48_31 1_555 1_555
O14_24 C49_31 1_555 1_555
O35_15 C49_31 1_555 1_555
C49_31 C50_31 1_555 1_555
C50_31 C51_31 1_555 1_555
C51_31 H31_31 1_555 1_555
C52_31 C51_31 1_555 1_555
H32_31 C52_31 1_555 1_555
C53_31 C52_31 1_555 1_555
C54_31 C53_31 1_555 1_555
H33_31 C54_31 1_555 1_555
C55_31 C50_31 1_555 1_555
H34_31 C55_31 1_555 1_555
C56_31 C53_31 1_555 1_555
C57_31 C56_31 1_555 1_555
H35_31 C57_31 1_555 1_555
C58_31 C57_31 1_555 1_555
H36_31 C58_31 1_555 1_555
C59_31 C58_31 1_555 1_555
C60_31 C59_31 1_555 1_555
H37_31 C60_31 1_555 1_555
C61_31 C56_31 1_555 1_555
H38_31 C61_31 1_555 1_555
C62_31 C48_31 1_555 1_555
C63_31 C19_31 1_555 1_555
H39_31 C63_31 1_555 1_555
Tb11_7 O12_24 1_555 1_555
Tb12_7 O14_24 1_555 1_555
C11_31 C12_31 1_555 1_555
C17_31 C18_31 1_555 1_555
C39_31 C40_31 1_555 1_555
C44_31 C47_31 1_555 1_555
C45_31 C46_31 1_555 1_555
C54_31 C55_31 1_555 1_555
C59_31 C62_31 1_555 1_555
C60_31 C61_31 1_555 1_555
C62_31 C63_31 1_555 1_555
H2_30 O25_12 1_555 1_555
O3_30 Tb11_5 1_555 1_555
O28_14 C1_30 1_555 1_555
C1_30 O3_30 1_555 1_555
C2_30 C1_30 1_555 1_555
C3_30 C2_30 1_555 1_555
H3_30 C3_30 1_555 1_555
C4_30 C3_30 1_555 1_555
C5_30 C4_30 1_555 1_555
S1_30 C2_30 1_555 1_555
O7_30 Tb11_5 1_555 1_555
C21_30 O7_30 1_555 1_555
H13_30 C21_30 1_555 1_555
N1_30 C21_30 1_555 1_555
C22_30 N1_30 1_555 1_555
H14_30 C22_30 1_555 1_555
H15_30 C22_30 1_555 1_555
H16_30 C22_30 1_555 1_555
C23_30 N1_30 1_555 1_555
H17_30 C23_30 1_555 1_555
H18_30 C23_30 1_555 1_555
H19_30 C23_30 1_555 1_555
O8_30 C24_30 1_555 1_555
O30_9 C24_30 1_555 1_555
C24_30 C25_30 1_555 1_555
C25_30 C26_30 1_555 1_555
C26_30 H20_30 1_555 1_555
C27_30 C5_30 1_555 1_555
C28_30 C27_30 1_555 1_555
S2_30 C25_30 1_555 1_555
O10_30 C29_30 1_555 1_555
O29_16 C29_30 1_555 1_555
C29_30 C30_30 1_555 1_555
C30_30 C31_30 1_555 1_555
C31_30 H21_30 1_555 1_555
C32_30 C28_30 1_555 1_555
C33_30 C4_30 1_555 1_555
S3_30 C30_30 1_555 1_555
Tb12_7 O8_30 1_555 1_555
H40_30 O27_15 1_555 1_555
O17_30 Tb12_7 1_555 1_555
C64_30 O17_30 1_555 1_555
H41_30 C64_30 1_555 1_555
N2_30 C64_30 1_555 1_555
C65_30 N2_30 1_555 1_555
H42_30 C65_30 1_555 1_555
H43_30 C65_30 1_555 1_555
H44_30 C65_30 1_555 1_555
C66_30 N2_30 1_555 1_555
H45_30 C66_30 1_555 1_555
H46_30 C66_30 1_555 1_555
H47_30 C66_30 1_555 1_555
Tb10_11 O10_30 1_555 1_555
H48_30 O26_5 1_555 1_555
O19_30 Tb10_11 1_555 1_555
C67_30 O19_30 1_555 1_555
H49_30 C67_30 1_555 1_555
N3_30 C67_30 1_555 1_555
C68_30 N3_30 1_555 1_555
H50_30 C68_30 1_555 1_555
H51_30 C68_30 1_555 1_555
H52_30 C68_30 1_555 1_555
C69_30 N3_30 1_555 1_555
H53_30 C69_30 1_555 1_555
H54_30 C69_30 1_555 1_555
H55_30 C69_30 1_555 1_555
O32_16 Tb10_11 1_555 1_555
C5_30 S1_30 1_555 1_555
C26_30 C27_30 1_555 1_555
C28_30 S2_30 1_555 1_555
C31_30 C32_30 1_555 1_555
C32_30 C33_30 1_555 1_555
C33_30 S3_30 1_555 1_555
O28_16 C1_31 1_555 1_555
C1_31 O3_31 1_555 1_555
C2_31 C1_31 1_555 1_555
C3_31 C2_31 1_555 1_555
H3_31 C3_31 1_555 1_555
C4_31 C3_31 1_555 1_555
C5_31 C4_31 1_555 1_555
S1_31 C2_31 1_555 1_555
O8_31 C24_31 1_555 1_555
O30_14 C24_31 1_555 1_555
C24_31 C25_31 1_555 1_555
C25_31 C26_31 1_555 1_555
C26_31 H20_31 1_555 1_555
C27_31 C5_31 1_555 1_555
C28_31 C27_31 1_555 1_555
S2_31 C25_31 1_555 1_555
O10_31 C29_31 1_555 1_555
C29_31 C30_31 1_555 1_555
C30_31 C31_31 1_555 1_555
C31_31 H21_31 1_555 1_555
C32_31 C28_31 1_555 1_555
C33_31 C4_31 1_555 1_555
S3_31 C30_31 1_555 1_555
Tb10_12 O8_31 1_555 1_555
H40_31 O27 1_555 1_555
O17_31 Tb10_12 1_555 1_555
C64_31 O17_31 1_555 1_555
H41_31 C64_31 1_555 1_555
N2_31 C64_31 1_555 1_555
C65_31 N2_31 1_555 1_555
H42_31 C65_31 1_555 1_555
H43_31 C65_31 1_555 1_555
H44_31 C65_31 1_555 1_555
C66_31 N2_31 1_555 1_555
H45_31 C66_31 1_555 1_555
H46_31 C66_31 1_555 1_555
H47_31 C66_31 1_555 1_555
Tb11_3 O10_31 1_555 1_555
O19_31 Tb11_3 1_555 1_555
C67_31 O19_31 1_555 1_555
H49_31 C67_31 1_555 1_555
N3_31 C67_31 1_555 1_555
C68_31 N3_31 1_555 1_555
H50_31 C68_31 1_555 1_555
H51_31 C68_31 1_555 1_555
H52_31 C68_31 1_555 1_555
C69_31 N3_31 1_555 1_555
H53_31 C69_31 1_555 1_555
H54_31 C69_31 1_555 1_555
H55_31 C69_31 1_555 1_555
O31_23 Tb10_12 1_555 1_555
C5_31 S1_31 1_555 1_555
C26_31 C27_31 1_555 1_555
C28_31 S2_31 1_555 1_555
C31_31 C32_31 1_555 1_555
C32_31 C33_31 1_555 1_555
C33_31 S3_31 1_555 1_555
H2_31 O27_16 1_555 1_555
O7_31 Tb13_3 1_555 1_555
C21_31 O7_31 1_555 1_555
H13_31 C21_31 1_555 1_555
N1_31 C21_31 1_555 1_555
C22_31 N1_31 1_555 1_555
H14_31 C22_31 1_555 1_555
H15_31 C22_31 1_555 1_555
H16_31 C22_31 1_555 1_555
C23_31 N1_31 1_555 1_555
H17_31 C23_31 1_555 1_555
H18_31 C23_31 1_555 1_555
H19_31 C23_31 1_555 1_555
H48_31 O26_6 1_555 1_555
H2_32 O25_14 1_555 1_555
O3_32 Tb14 1_555 1_555
O29_13 C1_32 1_555 1_555
C1_32 O3_32 1_555 1_555
C2_32 C1_32 1_555 1_555
C3_32 C2_32 1_555 1_555
H3_32 C3_32 1_555 1_555
C4_32 C3_32 1_555 1_555
C5_32 C4_32 1_555 1_555
S1_32 C2_32 1_555 1_555
O7_32 Tb14 1_555 1_555
C21_32 O7_32 1_555 1_555
H13_32 C21_32 1_555 1_555
N1_32 C21_32 1_555 1_555
C22_32 N1_32 1_555 1_555
H14_32 C22_32 1_555 1_555
H15_32 C22_32 1_555 1_555
H16_32 C22_32 1_555 1_555
C23_32 N1_32 1_555 1_555
H17_32 C23_32 1_555 1_555
H18_32 C23_32 1_555 1_555
H19_32 C23_32 1_555 1_555
O8_32 C24_32 1_555 1_555
C24_32 C25_32 1_555 1_555
C25_32 C26_32 1_555 1_555
C26_32 H20_32 1_555 1_555
C27_32 C5_32 1_555 1_555
C28_32 C27_32 1_555 1_555
S2_32 C25_32 1_555 1_555
O10_32 C29_32 1_555 1_555
O29_15 C29_32 1_555 1_555
C29_32 C30_32 1_555 1_555
C30_32 C31_32 1_555 1_555
C31_32 H21_32 1_555 1_555
C32_32 C28_32 1_555 1_555
C33_32 C4_32 1_555 1_555
S3_32 C30_32 1_555 1_555
Tb10_10 O8_32 1_555 1_555
O17_32 Tb10_10 1_555 1_555
C64_32 O17_32 1_555 1_555
H41_32 C64_32 1_555 1_555
N2_32 C64_32 1_555 1_555
C65_32 N2_32 1_555 1_555
H42_32 C65_32 1_555 1_555
H43_32 C65_32 1_555 1_555
H44_32 C65_32 1_555 1_555
C66_32 N2_32 1_555 1_555
H45_32 C66_32 1_555 1_555
H46_32 C66_32 1_555 1_555
H47_32 C66_32 1_555 1_555
O31_24 Tb10_10 1_555 1_555
C5_32 S1_32 1_555 1_555
C26_32 C27_32 1_555 1_555
C28_32 S2_32 1_555 1_555
C31_32 C32_32 1_555 1_555
C32_32 C33_32 1_555 1_555
C33_32 S3_32 1_555 1_555
H40_32 O25_9 1_555 1_555
H48_32 O25_3 1_555 1_555
O19_32 Tb11_7 1_555 1_555
C67_32 O19_32 1_555 1_555
H49_32 C67_32 1_555 1_555
N3_32 C67_32 1_555 1_555
C68_32 N3_32 1_555 1_555
H50_32 C68_32 1_555 1_555
H51_32 C68_32 1_555 1_555
H52_32 C68_32 1_555 1_555
C69_32 N3_32 1_555 1_555
H53_32 C69_32 1_555 1_555
H54_32 C69_32 1_555 1_555
H55_32 C69_32 1_555 1_555
C36_32 H22_32 1_555 1_555
C37_32 C36_32 1_555 1_555
H23_32 C37_32 1_555 1_555
H26_32 C42_32 1_555 1_555
C43_32 C42_32 1_555 1_555
H27_32 C43_32 1_555 1_555
O31_23 C49_32 1_555 1_555
O35 C49_32 1_555 1_555
C49_32 C50_32 1_555 1_555
C50_32 C51_32 1_555 1_555
C51_32 H31_32 1_555 1_555
C52_32 C51_32 1_555 1_555
H32_32 C52_32 1_555 1_555
C53_32 C52_32 1_555 1_555
C54_32 C53_32 1_555 1_555
H33_32 C54_32 1_555 1_555
C55_32 C50_32 1_555 1_555
H34_32 C55_32 1_555 1_555
C56_32 C53_32 1_555 1_555
C57_32 C56_32 1_555 1_555
H35_32 C57_32 1_555 1_555
C58_32 C57_32 1_555 1_555
H36_32 C58_32 1_555 1_555
C59_32 C58_32 1_555 1_555
C60_32 C59_32 1_555 1_555
H37_32 C60_32 1_555 1_555
C61_32 C56_32 1_555 1_555
H38_32 C61_32 1_555 1_555
C54_32 C55_32 1_555 1_555
C60_32 C61_32 1_555 1_555
O34_5 C6_32 1_555 1_555
C6_32 O32_16 1_555 1_555
C7_32 C6_32 1_555 1_555
C8_32 C7_32 1_555 1_555
H4_32 C8_32 1_555 1_555
C9_32 C8_32 1_555 1_555
H5_32 C9_32 1_555 1_555
C10_32 C9_32 1_555 1_555
C11_32 C10_32 1_555 1_555
H6_32 C11_32 1_555 1_555
C12_32 C7_32 1_555 1_555
H7_32 C12_32 1_555 1_555
C13_32 C10_32 1_555 1_555
C14_32 C13_32 1_555 1_555
H8_32 C14_32 1_555 1_555
C15_32 C14_32 1_555 1_555
H9_32 C15_32 1_555 1_555
C16_32 C15_32 1_555 1_555
C17_32 C16_32 1_555 1_555
H10_32 C17_32 1_555 1_555
C18_32 C13_32 1_555 1_555
H11_32 C18_32 1_555 1_555
C19_32 C16_32 1_555 1_555
C20_32 C19_32 1_555 1_555
H12_32 C20_32 1_555 1_555
O33_9 C34_32 1_555 1_555
C34_32 C35_32 1_555 1_555
C39_32 C38_32 1_555 1_555
H24_32 C39_32 1_555 1_555
C40_32 C35_32 1_555 1_555
H25_32 C40_32 1_555 1_555
C41_32 C38_32 1_555 1_555
C45_32 C44_32 1_555 1_555
H28_32 C45_32 1_555 1_555
C46_32 C41_32 1_555 1_555
H29_32 C46_32 1_555 1_555
C47_32 C20_32 1_555 1_555
C48_32 C47_32 1_555 1_555
C62_32 C48_32 1_555 1_555
C63_32 C19_32 1_555 1_555
H39_32 C63_32 1_555 1_555
C11_32 C12_32 1_555 1_555
C17_32 C18_32 1_555 1_555
C39_32 C40_32 1_555 1_555
C44_32 C47_32 1_555 1_555
C45_32 C46_32 1_555 1_555
C62_32 C63_32 1_555 1_555
C70 H56 1_555 1_555
H57 C70 1_555 1_555
H58 C70 1_555 1_555
N4 C70 1_555 1_555
H59 N4 1_555 1_555
H60 N4 1_555 1_555
C71 N4 1_555 1_555
H61 C71 1_555 1_555
H62 C71 1_555 1_555
H63 C71 1_555 1_555
C70_2 H56_2 1_555 1_555
H57_2 C70_2 1_555 1_555
H58_2 C70_2 1_555 1_555
N4_2 C70_2 1_555 1_555
H59_2 N4_2 1_555 1_555
H60_2 N4_2 1_555 1_555
C71_2 N4_2 1_555 1_555
H61_2 C71_2 1_555 1_555
H62_2 C71_2 1_555 1_555
H63_2 C71_2 1_555 1_555
C70_3 H56_3 1_555 1_555
H57_3 C70_3 1_555 1_555
H58_3 C70_3 1_555 1_555
N4_3 C70_3 1_555 1_555
H59_3 N4_3 1_555 1_555
H60_3 N4_3 1_555 1_555
C71_3 N4_3 1_555 1_555
H61_3 C71_3 1_555 1_555
H62_3 C71_3 1_555 1_555
H63_3 C71_3 1_555 1_555
C70_4 H56_4 1_555 1_555
H57_4 C70_4 1_555 1_555
H58_4 C70_4 1_555 1_555
N4_4 C70_4 1_555 1_555
H59_4 N4_4 1_555 1_555
H60_4 N4_4 1_555 1_555
H62_4 C71_4 1_555 1_555
H63_4 C71_4 1_555 1_555
C70_5 H56_5 1_555 1_555
H57_5 C70_5 1_555 1_555
H58_5 C70_5 1_555 1_555
N4_5 C70_5 1_555 1_555
H59_5 N4_5 1_555 1_555
H60_5 N4_5 1_555 1_555
H62_5 C71_5 1_555 1_555
H63_5 C71_5 1_555 1_555
C70_6 H56_6 1_555 1_555
H57_6 C70_6 1_555 1_555
H58_6 C70_6 1_555 1_555
N4_6 C70_6 1_555 1_555
H59_6 N4_6 1_555 1_555
H60_6 N4_6 1_555 1_555
H62_6 C71_6 1_555 1_555
H63_6 C71_6 1_555 1_555
C70_7 H56_7 1_555 1_555
H57_7 C70_7 1_555 1_555
H58_7 C70_7 1_555 1_555
N4_7 C70_7 1_555 1_555
H59_7 N4_7 1_555 1_555
H60_7 N4_7 1_555 1_555
C71_7 N4_7 1_555 1_555
H61_7 C71_7 1_555 1_555
H62_7 C71_7 1_555 1_555
H63_7 C71_7 1_555 1_555
C70_8 H56_8 1_555 1_555
H57_8 C70_8 1_555 1_555
H58_8 C70_8 1_555 1_555
N4_8 C70_8 1_555 1_555
H59_8 N4_8 1_555 1_555
H60_8 N4_8 1_555 1_555
H62_8 C71_8 1_555 1_555
H63_8 C71_8 1_555 1_555
C70_9 H56_9 1_555 1_555
H57_9 C70_9 1_555 1_555
H58_9 C70_9 1_555 1_555
N4_9 C70_9 1_555 1_555
H59_9 N4_9 1_555 1_555
H60_9 N4_9 1_555 1_555
C71_9 N4_9 1_555 1_555
H61_9 C71_9 1_555 1_555
H62_9 C71_9 1_555 1_555
H63_9 C71_9 1_555 1_555
C70_10 H56_10 1_555 1_555
H57_10 C70_10 1_555 1_555
H58_10 C70_10 1_555 1_555
N4_10 C70_10 1_555 1_555
H59_10 N4_10 1_555 1_555
H60_10 N4_10 1_555 1_555
H62_10 C71_10 1_555 1_555
H63_10 C71_10 1_555 1_555
C70_11 H56_11 1_555 1_555
H57_11 C70_11 1_555 1_555
H58_11 C70_11 1_555 1_555
N4_11 C70_11 1_555 1_555
H59_11 N4_11 1_555 1_555
H60_11 N4_11 1_555 1_555
H62_11 C71_11 1_555 1_555
H63_11 C71_11 1_555 1_555
C70_12 H56_12 1_555 1_555
H57_12 C70_12 1_555 1_555
H58_12 C70_12 1_555 1_555
N4_12 C70_12 1_555 1_555
H59_12 N4_12 1_555 1_555
H60_12 N4_12 1_555 1_555
C71_12 N4_12 1_555 1_555
H61_12 C71_12 1_555 1_555
H62_12 C71_12 1_555 1_555
H63_12 C71_12 1_555 1_555
C70_13 H56_13 1_555 1_555
H57_13 C70_13 1_555 1_555
H58_13 C70_13 1_555 1_555
N4_13 C70_13 1_555 1_555
H59_13 N4_13 1_555 1_555
H60_13 N4_13 1_555 1_555
C71_13 N4_13 1_555 1_555
H61_13 C71_13 1_555 1_555
H62_13 C71_13 1_555 1_555
H63_13 C71_13 1_555 1_555
C70_14 H56_14 1_555 1_555
H57_14 C70_14 1_555 1_555
H58_14 C70_14 1_555 1_555
N4_14 C70_14 1_555 1_555
H59_14 N4_14 1_555 1_555
H60_14 N4_14 1_555 1_555
C71_14 N4_14 1_555 1_555
H61_14 C71_14 1_555 1_555
H62_14 C71_14 1_555 1_555
H63_14 C71_14 1_555 1_555
C70_15 H56_15 1_555 1_555
H57_15 C70_15 1_555 1_555
H58_15 C70_15 1_555 1_555
N4_15 C70_15 1_555 1_555
H59_15 N4_15 1_555 1_555
H60_15 N4_15 1_555 1_555
C71_15 N4_15 1_555 1_555
H61_15 C71_15 1_555 1_555
H62_15 C71_15 1_555 1_555
H63_15 C71_15 1_555 1_555
C70_16 H56_16 1_555 1_555
H57_16 C70_16 1_555 1_555
H58_16 C70_16 1_555 1_555
N4_16 C70_16 1_555 1_555
H59_16 N4_16 1_555 1_555
H60_16 N4_16 1_555 1_555
H62_16 C71_16 1_555 1_555
H63_16 C71_16 1_555 1_555
C70_17 H56_17 1_555 1_555
H57_17 C70_17 1_555 1_555
H58_17 C70_17 1_555 1_555
N4_17 C70_17 1_555 1_555
H59_17 N4_17 1_555 1_555
H60_17 N4_17 1_555 1_555
C71_17 N4_17 1_555 1_555
H61_17 C71_17 1_555 1_555
H62_17 C71_17 1_555 1_555
H63_17 C71_17 1_555 1_555
C70_18 H56_18 1_555 1_555
H57_18 C70_18 1_555 1_555
H58_18 C70_18 1_555 1_555
N4_18 C70_18 1_555 1_555
H59_18 N4_18 1_555 1_555
H60_18 N4_18 1_555 1_555
H62_18 C71_18 1_555 1_555
H63_18 C71_18 1_555 1_555
C70_19 H56_19 1_555 1_555
H57_19 C70_19 1_555 1_555
H58_19 C70_19 1_555 1_555
N4_19 C70_19 1_555 1_555
H59_19 N4_19 1_555 1_555
H60_19 N4_19 1_555 1_555
C71_19 N4_19 1_555 1_555
H61_19 C71_19 1_555 1_555
H62_19 C71_19 1_555 1_555
H63_19 C71_19 1_555 1_555
C70_20 H56_20 1_555 1_555
H57_20 C70_20 1_555 1_555
H58_20 C70_20 1_555 1_555
N4_20 C70_20 1_555 1_555
H59_20 N4_20 1_555 1_555
H60_20 N4_20 1_555 1_555
C71_20 N4_20 1_555 1_555
H61_20 C71_20 1_555 1_555
H62_20 C71_20 1_555 1_555
H63_20 C71_20 1_555 1_555
C70_21 H56_21 1_555 1_555
H57_21 C70_21 1_555 1_555
H58_21 C70_21 1_555 1_555
N4_21 C70_21 1_555 1_555
H59_21 N4_21 1_555 1_555
H60_21 N4_21 1_555 1_555
C71_21 N4_21 1_555 1_555
H61_21 C71_21 1_555 1_555
H62_21 C71_21 1_555 1_555
H63_21 C71_21 1_555 1_555
C70_22 H56_22 1_555 1_555
H57_22 C70_22 1_555 1_555
H58_22 C70_22 1_555 1_555
N4_22 C70_22 1_555 1_555
H59_22 N4_22 1_555 1_555
H60_22 N4_22 1_555 1_555
C71_22 N4_22 1_555 1_555
H61_22 C71_22 1_555 1_555
H62_22 C71_22 1_555 1_555
H63_22 C71_22 1_555 1_555
C70_23 H56_23 1_555 1_555
H57_23 C70_23 1_555 1_555
H58_23 C70_23 1_555 1_555
N4_23 C70_23 1_555 1_555
H59_23 N4_23 1_555 1_555
H60_23 N4_23 1_555 1_555
C71_23 N4_23 1_555 1_555
H61_23 C71_23 1_555 1_555
H62_23 C71_23 1_555 1_555
H63_23 C71_23 1_555 1_555
C70_24 H56_24 1_555 1_555
H57_24 C70_24 1_555 1_555
H58_24 C70_24 1_555 1_555
N4_24 C70_24 1_555 1_555
H59_24 N4_24 1_555 1_555
H60_24 N4_24 1_555 1_555
C71_24 N4_24 1_555 1_555
H61_24 C71_24 1_555 1_555
H62_24 C71_24 1_555 1_555
H63_24 C71_24 1_555 1_555
C70_25 H56_25 1_555 1_555
H57_25 C70_25 1_555 1_555
H58_25 C70_25 1_555 1_555
N4_25 C70_25 1_555 1_555
H59_25 N4_25 1_555 1_555
H60_25 N4_25 1_555 1_555
C71_25 N4_25 1_555 1_555
H61_25 C71_25 1_555 1_555
H62_25 C71_25 1_555 1_555
H63_25 C71_25 1_555 1_555
C70_26 H56_26 1_555 1_555
H57_26 C70_26 1_555 1_555
H58_26 C70_26 1_555 1_555
N4_26 C70_26 1_555 1_555
H59_26 N4_26 1_555 1_555
H60_26 N4_26 1_555 1_555
C71_26 N4_26 1_555 1_555
H61_26 C71_26 1_555 1_555
H62_26 C71_26 1_555 1_555
H63_26 C71_26 1_555 1_555
C70_27 H56_27 1_555 1_555
H57_27 C70_27 1_555 1_555
H58_27 C70_27 1_555 1_555
N4_27 C70_27 1_555 1_555
H59_27 N4_27 1_555 1_555
H60_27 N4_27 1_555 1_555
C71_27 N4_27 1_555 1_555
H61_27 C71_27 1_555 1_555
H62_27 C71_27 1_555 1_555
H63_27 C71_27 1_555 1_555
C70_28 H56_28 1_555 1_555
H57_28 C70_28 1_555 1_555
H58_28 C70_28 1_555 1_555
N4_28 C70_28 1_555 1_555
H59_28 N4_28 1_555 1_555
H60_28 N4_28 1_555 1_555
C71_28 N4_28 1_555 1_555
H61_28 C71_28 1_555 1_555
H62_28 C71_28 1_555 1_555
H63_28 C71_28 1_555 1_555
C70_29 H56_29 1_555 1_555
H57_29 C70_29 1_555 1_555
H58_29 C70_29 1_555 1_555
N4_29 C70_29 1_555 1_555
H59_29 N4_29 1_555 1_555
H60_29 N4_29 1_555 1_555
C71_29 N4_29 1_555 1_555
H61_29 C71_29 1_555 1_555
H62_29 C71_29 1_555 1_555
H63_29 C71_29 1_555 1_555
C70_30 H56_30 1_555 1_555
H57_30 C70_30 1_555 1_555
H58_30 C70_30 1_555 1_555
N4_30 C70_30 1_555 1_555
H59_30 N4_30 1_555 1_555
H60_30 N4_30 1_555 1_555
C71_30 N4_30 1_555 1_555
H61_30 C71_30 1_555 1_555
H62_30 C71_30 1_555 1_555
H63_30 C71_30 1_555 1_555
C70_31 H56_31 1_555 1_555
H57_31 C70_31 1_555 1_555
H58_31 C70_31 1_555 1_555
N4_31 C70_31 1_555 1_555
H59_31 N4_31 1_555 1_555
H60_31 N4_31 1_555 1_555
C71_31 N4_31 1_555 1_555
H61_31 C71_31 1_555 1_555
H62_31 C71_31 1_555 1_555
H63_31 C71_31 1_555 1_555
C70_32 H56_32 1_555 1_555
H57_32 C70_32 1_555 1_555
H58_32 C70_32 1_555 1_555
N4_32 C70_32 1_555 1_555
H59_32 N4_32 1_555 1_555
H60_32 N4_32 1_555 1_555
C71_32 N4_32 1_555 1_555
H61_32 C71_32 1_555 1_555
H62_32 C71_32 1_555 1_555
H63_32 C71_32 1_555 1_555
C70_33 H56_33 1_555 1_555
H57_33 C70_33 1_555 1_555
H58_33 C70_33 1_555 1_555
N4_33 C70_33 1_555 1_555
H59_33 N4_33 1_555 1_555
H60_33 N4_33 1_555 1_555
C71_33 N4_33 1_555 1_555
H61_33 C71_33 1_555 1_555
H62_33 C71_33 1_555 1_555
H63_33 C71_33 1_555 1_555
C70_34 H56_34 1_555 1_555
H57_34 C70_34 1_555 1_555
H58_34 C70_34 1_555 1_555
N4_34 C70_34 1_555 1_555
H59_34 N4_34 1_555 1_555
H60_34 N4_34 1_555 1_555
H62_34 C71_34 1_555 1_555
H63_34 C71_34 1_555 1_555
C70_35 H56_35 1_555 1_555
H57_35 C70_35 1_555 1_555
H58_35 C70_35 1_555 1_555
N4_35 C70_35 1_555 1_555
H59_35 N4_35 1_555 1_555
H60_35 N4_35 1_555 1_555
H62_35 C71_35 1_555 1_555
H63_35 C71_35 1_555 1_555
C70_36 H56_36 1_555 1_555
H57_36 C70_36 1_555 1_555
H58_36 C70_36 1_555 1_555
N4_36 C70_36 1_555 1_555
H59_36 N4_36 1_555 1_555
H60_36 N4_36 1_555 1_555
C71_36 N4_36 1_555 1_555
H61_36 C71_36 1_555 1_555
H62_36 C71_36 1_555 1_555
H63_36 C71_36 1_555 1_555
C70_37 H56_37 1_555 1_555
H57_37 C70_37 1_555 1_555
H58_37 C70_37 1_555 1_555
N4_37 C70_37 1_555 1_555
H59_37 N4_37 1_555 1_555
H60_37 N4_37 1_555 1_555
C71_37 N4_37 1_555 1_555
H61_37 C71_37 1_555 1_555
H62_37 C71_37 1_555 1_555
H63_37 C71_37 1_555 1_555
C70_38 H56_38 1_555 1_555
H57_38 C70_38 1_555 1_555
H58_38 C70_38 1_555 1_555
N4_38 C70_38 1_555 1_555
H59_38 N4_38 1_555 1_555
H60_38 N4_38 1_555 1_555
C71_38 N4_38 1_555 1_555
H61_38 C71_38 1_555 1_555
H62_38 C71_38 1_555 1_555
H63_38 C71_38 1_555 1_555
C70_39 H56_39 1_555 1_555
H57_39 C70_39 1_555 1_555
H58_39 C70_39 1_555 1_555
N4_39 C70_39 1_555 1_555
H59_39 N4_39 1_555 1_555
H60_39 N4_39 1_555 1_555
C71_39 N4_39 1_555 1_555
H61_39 C71_39 1_555 1_555
H62_39 C71_39 1_555 1_555
H63_39 C71_39 1_555 1_555
C70_40 H56_40 1_555 1_555
H57_40 C70_40 1_555 1_555
H58_40 C70_40 1_555 1_555
N4_40 C70_40 1_555 1_555
H59_40 N4_40 1_555 1_555
H60_40 N4_40 1_555 1_555
C71_40 N4_40 1_555 1_555
H61_40 C71_40 1_555 1_555
H62_40 C71_40 1_555 1_555
H63_40 C71_40 1_555 1_555
C70_41 H56_41 1_555 1_555
H57_41 C70_41 1_555 1_555
H58_41 C70_41 1_555 1_555
N4_41 C70_41 1_555 1_555
H59_41 N4_41 1_555 1_555
H60_41 N4_41 1_555 1_555
H62_41 C71_41 1_555 1_555
H63_41 C71_41 1_555 1_555
C70_42 H56_42 1_555 1_555
H57_42 C70_42 1_555 1_555
H58_42 C70_42 1_555 1_555
N4_42 C70_42 1_555 1_555
H59_42 N4_42 1_555 1_555
H60_42 N4_42 1_555 1_555
C71_42 N4_42 1_555 1_555
H61_42 C71_42 1_555 1_555
H62_42 C71_42 1_555 1_555
H63_42 C71_42 1_555 1_555
C70_43 H56_43 1_555 1_555
H57_43 C70_43 1_555 1_555
H58_43 C70_43 1_555 1_555
N4_43 C70_43 1_555 1_555
H59_43 N4_43 1_555 1_555
H60_43 N4_43 1_555 1_555
C71_43 N4_43 1_555 1_555
H61_43 C71_43 1_555 1_555
H62_43 C71_43 1_555 1_555
H63_43 C71_43 1_555 1_555
C70_44 H56_44 1_555 1_555
H57_44 C70_44 1_555 1_555
H58_44 C70_44 1_555 1_555
N4_44 C70_44 1_555 1_555
H59_44 N4_44 1_555 1_555
H60_44 N4_44 1_555 1_555
H62_44 C71_44 1_555 1_555
H63_44 C71_44 1_555 1_555
C70_45 H56_45 1_555 1_555
H57_45 C70_45 1_555 1_555
H58_45 C70_45 1_555 1_555
N4_45 C70_45 1_555 1_555
H59_45 N4_45 1_555 1_555
H60_45 N4_45 1_555 1_555
C71_45 N4_45 1_555 1_555
H61_45 C71_45 1_555 1_555
H62_45 C71_45 1_555 1_555
H63_45 C71_45 1_555 1_555
C70_46 H56_46 1_555 1_555
H57_46 C70_46 1_555 1_555
H58_46 C70_46 1_555 1_555
N4_46 C70_46 1_555 1_555
H59_46 N4_46 1_555 1_555
H60_46 N4_46 1_555 1_555
C71_46 N4_46 1_555 1_555
H61_46 C71_46 1_555 1_555
H62_46 C71_46 1_555 1_555
H63_46 C71_46 1_555 1_555
C70_47 H56_47 1_555 1_555
H57_47 C70_47 1_555 1_555
H58_47 C70_47 1_555 1_555
N4_47 C70_47 1_555 1_555
H59_47 N4_47 1_555 1_555
H60_47 N4_47 1_555 1_555
C71_47 N4_47 1_555 1_555
H61_47 C71_47 1_555 1_555
H62_47 C71_47 1_555 1_555
H63_47 C71_47 1_555 1_555
C70_48 H56_48 1_555 1_555
H57_48 C70_48 1_555 1_555
H58_48 C70_48 1_555 1_555
N4_48 C70_48 1_555 1_555
H59_48 N4_48 1_555 1_555
H60_48 N4_48 1_555 1_555
C71_48 N4_48 1_555 1_555
H61_48 C71_48 1_555 1_555
H62_48 C71_48 1_555 1_555
H63_48 C71_48 1_555 1_555
C70_49 H56_49 1_555 1_555
H57_49 C70_49 1_555 1_555
H58_49 C70_49 1_555 1_555
N4_49 C70_49 1_555 1_555
H59_49 N4_49 1_555 1_555
H60_49 N4_49 1_555 1_555
C71_49 N4_49 1_555 1_555
H61_49 C71_49 1_555 1_555
H62_49 C71_49 1_555 1_555
H63_49 C71_49 1_555 1_555
C70_50 H56_50 1_555 1_555
H57_50 C70_50 1_555 1_555
H58_50 C70_50 1_555 1_555
N4_50 C70_50 1_555 1_555
H59_50 N4_50 1_555 1_555
H60_50 N4_50 1_555 1_555
C71_50 N4_50 1_555 1_555
H61_50 C71_50 1_555 1_555
H62_50 C71_50 1_555 1_555
H63_50 C71_50 1_555 1_555
C70_51 H56_51 1_555 1_555
H57_51 C70_51 1_555 1_555
H58_51 C70_51 1_555 1_555
N4_51 C70_51 1_555 1_555
H59_51 N4_51 1_555 1_555
H60_51 N4_51 1_555 1_555
C71_51 N4_51 1_555 1_555
H61_51 C71_51 1_555 1_555
H62_51 C71_51 1_555 1_555
H63_51 C71_51 1_555 1_555
H62_52 C71_52 1_555 1_555
H63_52 C71_52 1_555 1_555
C70_52 H56_52 1_555 1_555
H57_52 C70_52 1_555 1_555
H58_52 C70_52 1_555 1_555
N4_52 C70_52 1_555 1_555
H59_52 N4_52 1_555 1_555
H60_52 N4_52 1_555 1_555
H62_53 C71_53 1_555 1_555
H63_53 C71_53 1_555 1_555
C70_53 H56_53 1_555 1_555
H57_53 C70_53 1_555 1_555
H58_53 C70_53 1_555 1_555
N4_53 C70_53 1_555 1_555
H59_53 N4_53 1_555 1_555
H60_53 N4_53 1_555 1_555
H62_54 C71_54 1_555 1_555
H63_54 C71_54 1_555 1_555
C70_54 H56_54 1_555 1_555
H57_54 C70_54 1_555 1_555
H58_54 C70_54 1_555 1_555
N4_54 C70_54 1_555 1_555
H59_54 N4_54 1_555 1_555
H60_54 N4_54 1_555 1_555
C70_55 H56_55 1_555 1_555
H57_55 C70_55 1_555 1_555
H58_55 C70_55 1_555 1_555
N4_55 C70_55 1_555 1_555
H59_55 N4_55 1_555 1_555
H60_55 N4_55 1_555 1_555
C71_55 N4_55 1_555 1_555
H61_55 C71_55 1_555 1_555
H62_55 C71_55 1_555 1_555
H63_55 C71_55 1_555 1_555
H62_56 C71_56 1_555 1_555
H63_56 C71_56 1_555 1_555
C70_56 H56_56 1_555 1_555
H57_56 C70_56 1_555 1_555
H58_56 C70_56 1_555 1_555
N4_56 C70_56 1_555 1_555
H59_56 N4_56 1_555 1_555
H60_56 N4_56 1_555 1_555
C70_57 H56_57 1_555 1_555
H57_57 C70_57 1_555 1_555
H58_57 C70_57 1_555 1_555
N4_57 C70_57 1_555 1_555
H59_57 N4_57 1_555 1_555
H60_57 N4_57 1_555 1_555
C71_57 N4_57 1_555 1_555
H61_57 C71_57 1_555 1_555
H62_57 C71_57 1_555 1_555
H63_57 C71_57 1_555 1_555
H62_58 C71_58 1_555 1_555
H63_58 C71_58 1_555 1_555
C70_58 H56_58 1_555 1_555
H57_58 C70_58 1_555 1_555
H58_58 C70_58 1_555 1_555
N4_58 C70_58 1_555 1_555
H59_58 N4_58 1_555 1_555
H60_58 N4_58 1_555 1_555
H62_59 C71_59 1_555 1_555
H63_59 C71_59 1_555 1_555
C70_59 H56_59 1_555 1_555
H57_59 C70_59 1_555 1_555
H58_59 C70_59 1_555 1_555
N4_59 C70_59 1_555 1_555
H59_59 N4_59 1_555 1_555
H60_59 N4_59 1_555 1_555
C70_60 H56_60 1_555 1_555
H57_60 C70_60 1_555 1_555
H58_60 C70_60 1_555 1_555
N4_60 C70_60 1_555 1_555
H59_60 N4_60 1_555 1_555
H60_60 N4_60 1_555 1_555
C71_60 N4_60 1_555 1_555
H61_60 C71_60 1_555 1_555
H62_60 C71_60 1_555 1_555
H63_60 C71_60 1_555 1_555
C70_61 H56_61 1_555 1_555
H57_61 C70_61 1_555 1_555
H58_61 C70_61 1_555 1_555
N4_61 C70_61 1_555 1_555
H59_61 N4_61 1_555 1_555
H60_61 N4_61 1_555 1_555
C71_61 N4_61 1_555 1_555
H61_61 C71_61 1_555 1_555
H62_61 C71_61 1_555 1_555
H63_61 C71_61 1_555 1_555
C70_62 H56_62 1_555 1_555
H57_62 C70_62 1_555 1_555
H58_62 C70_62 1_555 1_555
N4_62 C70_62 1_555 1_555
H59_62 N4_62 1_555 1_555
H60_62 N4_62 1_555 1_555
C71_62 N4_62 1_555 1_555
H61_62 C71_62 1_555 1_555
H62_62 C71_62 1_555 1_555
H63_62 C71_62 1_555 1_555
C70_63 H56_63 1_555 1_555
H57_63 C70_63 1_555 1_555
H58_63 C70_63 1_555 1_555
N4_63 C70_63 1_555 1_555
H59_63 N4_63 1_555 1_555
H60_63 N4_63 1_555 1_555
C71_63 N4_63 1_555 1_555
H61_63 C71_63 1_555 1_555
H62_63 C71_63 1_555 1_555
H63_63 C71_63 1_555 1_555
H62_64 C71_64 1_555 1_555
H63_64 C71_64 1_555 1_555
C70_64 H56_64 1_555 1_555
H57_64 C70_64 1_555 1_555
H58_64 C70_64 1_555 1_555
N4_64 C70_64 1_555 1_555
H59_64 N4_64 1_555 1_555
H60_64 N4_64 1_555 1_555
C70_65 H56_65 1_555 1_555
H57_65 C70_65 1_555 1_555
H58_65 C70_65 1_555 1_555
N4_65 C70_65 1_555 1_555
H59_65 N4_65 1_555 1_555
H60_65 N4_65 1_555 1_555
C71_65 N4_65 1_555 1_555
H61_65 C71_65 1_555 1_555
H62_65 C71_65 1_555 1_555
H63_65 C71_65 1_555 1_555
H62_66 C71_66 1_555 1_555
H63_66 C71_66 1_555 1_555
C70_66 H56_66 1_555 1_555
H57_66 C70_66 1_555 1_555
H58_66 C70_66 1_555 1_555
N4_66 C70_66 1_555 1_555
H59_66 N4_66 1_555 1_555
H60_66 N4_66 1_555 1_555
C70_67 H56_67 1_555 1_555
H57_67 C70_67 1_555 1_555
H58_67 C70_67 1_555 1_555
N4_67 C70_67 1_555 1_555
H59_67 N4_67 1_555 1_555
H60_67 N4_67 1_555 1_555
C71_67 N4_67 1_555 1_555
H61_67 C71_67 1_555 1_555
H62_67 C71_67 1_555 1_555
H63_67 C71_67 1_555 1_555
C70_68 H56_68 1_555 1_555
H57_68 C70_68 1_555 1_555
H58_68 C70_68 1_555 1_555
N4_68 C70_68 1_555 1_555
H59_68 N4_68 1_555 1_555
H60_68 N4_68 1_555 1_555
C71_68 N4_68 1_555 1_555
H61_68 C71_68 1_555 1_555
H62_68 C71_68 1_555 1_555
H63_68 C71_68 1_555 1_555
C70_69 H56_69 1_555 1_555
H57_69 C70_69 1_555 1_555
H58_69 C70_69 1_555 1_555
N4_69 C70_69 1_555 1_555
H59_69 N4_69 1_555 1_555
H60_69 N4_69 1_555 1_555
C71_69 N4_69 1_555 1_555
H61_69 C71_69 1_555 1_555
H62_69 C71_69 1_555 1_555
H63_69 C71_69 1_555 1_555
C70_70 H56_70 1_555 1_555
H57_70 C70_70 1_555 1_555
H58_70 C70_70 1_555 1_555
N4_70 C70_70 1_555 1_555
H59_70 N4_70 1_555 1_555
H60_70 N4_70 1_555 1_555
C71_70 N4_70 1_555 1_555
H61_70 C71_70 1_555 1_555
H62_70 C71_70 1_555 1_555
H63_70 C71_70 1_555 1_555
C70_71 H56_71 1_555 1_555
H57_71 C70_71 1_555 1_555
H58_71 C70_71 1_555 1_555
N4_71 C70_71 1_555 1_555
H59_71 N4_71 1_555 1_555
H60_71 N4_71 1_555 1_555
C71_71 N4_71 1_555 1_555
H61_71 C71_71 1_555 1_555
H62_71 C71_71 1_555 1_555
H63_71 C71_71 1_555 1_555
C70_72 H56_72 1_555 1_555
H57_72 C70_72 1_555 1_555
H58_72 C70_72 1_555 1_555
N4_72 C70_72 1_555 1_555
H59_72 N4_72 1_555 1_555
H60_72 N4_72 1_555 1_555
C71_72 N4_72 1_555 1_555
H61_72 C71_72 1_555 1_555
H62_72 C71_72 1_555 1_555
H63_72 C71_72 1_555 1_555
C70_73 H56_73 1_555 1_555
H57_73 C70_73 1_555 1_555
H58_73 C70_73 1_555 1_555
N4_73 C70_73 1_555 1_555
H59_73 N4_73 1_555 1_555
H60_73 N4_73 1_555 1_555
C71_73 N4_73 1_555 1_555
H61_73 C71_73 1_555 1_555
H62_73 C71_73 1_555 1_555
H63_73 C71_73 1_555 1_555
C70_74 H56_74 1_555 1_555
H57_74 C70_74 1_555 1_555
H58_74 C70_74 1_555 1_555
N4_74 C70_74 1_555 1_555
H59_74 N4_74 1_555 1_555
H60_74 N4_74 1_555 1_555
C71_74 N4_74 1_555 1_555
H61_74 C71_74 1_555 1_555
H62_74 C71_74 1_555 1_555
H63_74 C71_74 1_555 1_555
C70_75 H56_75 1_555 1_555
H57_75 C70_75 1_555 1_555
H58_75 C70_75 1_555 1_555
N4_75 C70_75 1_555 1_555
H59_75 N4_75 1_555 1_555
H60_75 N4_75 1_555 1_555
C71_75 N4_75 1_555 1_555
H61_75 C71_75 1_555 1_555
H62_75 C71_75 1_555 1_555
H63_75 C71_75 1_555 1_555
C70_76 H56_76 1_555 1_555
H57_76 C70_76 1_555 1_555
H58_76 C70_76 1_555 1_555
N4_76 C70_76 1_555 1_555
H59_76 N4_76 1_555 1_555
H60_76 N4_76 1_555 1_555
C71_76 N4_76 1_555 1_555
H61_76 C71_76 1_555 1_555
H62_76 C71_76 1_555 1_555
H63_76 C71_76 1_555 1_555
C70_77 H56_77 1_555 1_555
H57_77 C70_77 1_555 1_555
H58_77 C70_77 1_555 1_555
N4_77 C70_77 1_555 1_555
H59_77 N4_77 1_555 1_555
H60_77 N4_77 1_555 1_555
C71_77 N4_77 1_555 1_555
H61_77 C71_77 1_555 1_555
H62_77 C71_77 1_555 1_555
H63_77 C71_77 1_555 1_555
C70_78 H56_78 1_555 1_555
H57_78 C70_78 1_555 1_555
H58_78 C70_78 1_555 1_555
N4_78 C70_78 1_555 1_555
H59_78 N4_78 1_555 1_555
H60_78 N4_78 1_555 1_555
C71_78 N4_78 1_555 1_555
H61_78 C71_78 1_555 1_555
H62_78 C71_78 1_555 1_555
H63_78 C71_78 1_555 1_555
C70_79 H56_79 1_555 1_555
H57_79 C70_79 1_555 1_555
H58_79 C70_79 1_555 1_555
N4_79 C70_79 1_555 1_555
H59_79 N4_79 1_555 1_555
H60_79 N4_79 1_555 1_555
C71_79 N4_79 1_555 1_555
H61_79 C71_79 1_555 1_555
H62_79 C71_79 1_555 1_555
H63_79 C71_79 1_555 1_555
C70_80 H56_80 1_555 1_555
H57_80 C70_80 1_555 1_555
H58_80 C70_80 1_555 1_555
N4_80 C70_80 1_555 1_555
H59_80 N4_80 1_555 1_555
H60_80 N4_80 1_555 1_555
C71_80 N4_80 1_555 1_555
H61_80 C71_80 1_555 1_555
H62_80 C71_80 1_555 1_555
H63_80 C71_80 1_555 1_555
C70_81 H56_81 1_555 1_555
H57_81 C70_81 1_555 1_555
H58_81 C70_81 1_555 1_555
N4_81 C70_81 1_555 1_555
H59_81 N4_81 1_555 1_555
H60_81 N4_81 1_555 1_555
C71_81 N4_81 1_555 1_555
H61_81 C71_81 1_555 1_555
H62_81 C71_81 1_555 1_555
H63_81 C71_81 1_555 1_555
H62_82 C71_82 1_555 1_555
H63_82 C71_82 1_555 1_555
C70_82 H56_82 1_555 1_555
H57_82 C70_82 1_555 1_555
H58_82 C70_82 1_555 1_555
N4_82 C70_82 1_555 1_555
H59_82 N4_82 1_555 1_555
H60_82 N4_82 1_555 1_555
H62_83 C71_83 1_555 1_555
H63_83 C71_83 1_555 1_555
C70_83 H56_83 1_555 1_555
H57_83 C70_83 1_555 1_555
H58_83 C70_83 1_555 1_555
N4_83 C70_83 1_555 1_555
H59_83 N4_83 1_555 1_555
H60_83 N4_83 1_555 1_555
C70_84 H56_84 1_555 1_555
H57_84 C70_84 1_555 1_555
H58_84 C70_84 1_555 1_555
N4_84 C70_84 1_555 1_555
H59_84 N4_84 1_555 1_555
H60_84 N4_84 1_555 1_555
C71_84 N4_84 1_555 1_555
H61_84 C71_84 1_555 1_555
H62_84 C71_84 1_555 1_555
H63_84 C71_84 1_555 1_555
C70_85 H56_85 1_555 1_555
H57_85 C70_85 1_555 1_555
H58_85 C70_85 1_555 1_555
N4_85 C70_85 1_555 1_555
H59_85 N4_85 1_555 1_555
H60_85 N4_85 1_555 1_555
C71_85 N4_85 1_555 1_555
H61_85 C71_85 1_555 1_555
H62_85 C71_85 1_555 1_555
H63_85 C71_85 1_555 1_555
C70_86 H56_86 1_555 1_555
H57_86 C70_86 1_555 1_555
H58_86 C70_86 1_555 1_555
N4_86 C70_86 1_555 1_555
H59_86 N4_86 1_555 1_555
H60_86 N4_86 1_555 1_555
C71_86 N4_86 1_555 1_555
H61_86 C71_86 1_555 1_555
H62_86 C71_86 1_555 1_555
H63_86 C71_86 1_555 1_555
C70_87 H56_87 1_555 1_555
H57_87 C70_87 1_555 1_555
H58_87 C70_87 1_555 1_555
N4_87 C70_87 1_555 1_555
H59_87 N4_87 1_555 1_555
H60_87 N4_87 1_555 1_555
C71_87 N4_87 1_555 1_555
H61_87 C71_87 1_555 1_555
H62_87 C71_87 1_555 1_555
H63_87 C71_87 1_555 1_555
C70_88 H56_88 1_555 1_555
H57_88 C70_88 1_555 1_555
H58_88 C70_88 1_555 1_555
N4_88 C70_88 1_555 1_555
H59_88 N4_88 1_555 1_555
H60_88 N4_88 1_555 1_555
C71_88 N4_88 1_555 1_555
H61_88 C71_88 1_555 1_555
H62_88 C71_88 1_555 1_555
H63_88 C71_88 1_555 1_555
H62_89 C71_89 1_555 1_555
H63_89 C71_89 1_555 1_555
C70_89 H56_89 1_555 1_555
H57_89 C70_89 1_555 1_555
H58_89 C70_89 1_555 1_555
N4_89 C70_89 1_555 1_555
H59_89 N4_89 1_555 1_555
H60_89 N4_89 1_555 1_555
C70_90 H56_90 1_555 1_555
H57_90 C70_90 1_555 1_555
H58_90 C70_90 1_555 1_555
N4_90 C70_90 1_555 1_555
H59_90 N4_90 1_555 1_555
H60_90 N4_90 1_555 1_555
C71_90 N4_90 1_555 1_555
H61_90 C71_90 1_555 1_555
H62_90 C71_90 1_555 1_555
H63_90 C71_90 1_555 1_555
C70_91 H56_91 1_555 1_555
H57_91 C70_91 1_555 1_555
H58_91 C70_91 1_555 1_555
N4_91 C70_91 1_555 1_555
H59_91 N4_91 1_555 1_555
H60_91 N4_91 1_555 1_555
C71_91 N4_91 1_555 1_555
H61_91 C71_91 1_555 1_555
H62_91 C71_91 1_555 1_555
H63_91 C71_91 1_555 1_555
H62_92 C71_92 1_555 1_555
H63_92 C71_92 1_555 1_555
C70_92 H56_92 1_555 1_555
H57_92 C70_92 1_555 1_555
H58_92 C70_92 1_555 1_555
N4_92 C70_92 1_555 1_555
H59_92 N4_92 1_555 1_555
H60_92 N4_92 1_555 1_555
C70_93 H56_93 1_555 1_555
H57_93 C70_93 1_555 1_555
H58_93 C70_93 1_555 1_555
N4_93 C70_93 1_555 1_555
H59_93 N4_93 1_555 1_555
H60_93 N4_93 1_555 1_555
C71_93 N4_93 1_555 1_555
H61_93 C71_93 1_555 1_555
H62_93 C71_93 1_555 1_555
H63_93 C71_93 1_555 1_555
C70_94 H56_94 1_555 1_555
H57_94 C70_94 1_555 1_555
H58_94 C70_94 1_555 1_555
N4_94 C70_94 1_555 1_555
H59_94 N4_94 1_555 1_555
H60_94 N4_94 1_555 1_555
C71_94 N4_94 1_555 1_555
H61_94 C71_94 1_555 1_555
H62_94 C71_94 1_555 1_555
H63_94 C71_94 1_555 1_555
C70_95 H56_95 1_555 1_555
H57_95 C70_95 1_555 1_555
H58_95 C70_95 1_555 1_555
N4_95 C70_95 1_555 1_555
H59_95 N4_95 1_555 1_555
H60_95 N4_95 1_555 1_555
C71_95 N4_95 1_555 1_555
H61_95 C71_95 1_555 1_555
H62_95 C71_95 1_555 1_555
H63_95 C71_95 1_555 1_555
C70_96 H56_96 1_555 1_555
H57_96 C70_96 1_555 1_555
H58_96 C70_96 1_555 1_555
N4_96 C70_96 1_555 1_555
H59_96 N4_96 1_555 1_555
H60_96 N4_96 1_555 1_555
C71_96 N4_96 1_555 1_555
H61_96 C71_96 1_555 1_555
H62_96 C71_96 1_555 1_555
H63_96 C71_96 1_555 1_555

#END
