
###############################################################################
#
# This file contains modified crystal structure data generated from the
# MOF subset of the Cambridge Structural Database (CSD) v543 
# hosted by the Cambridge Crystallographic Data Centre (CCDC).
#
# This work is licensed under the Creative Commons
# Attribution-NonCommercial-ShareAlike 4.0 International License.
# To view a copy of this license, visit
# http://creativecommons.org/licenses/by-nc-sa/4.0/
# or send a letter to
# Creative Commons, PO Box 1866, Mountain View, CA 94042, USA.
#
# CIF created using the CSD Python API on 29 September 2022
# The structure has been converted into the P1 space group
# The structure has a 3D framework
# The original CSD entry UFORIT is in the cubic crystal system
# The framework has been calculated to contain at least 10.0% void space
# The void calculation uses a probe of radius 1.32A, grid spacing 0.4
#
###############################################################################

data_UFORIT
_chemical_formula_moiety         '(C876 H396 O193 Zr42)n'
_symmetry_cell_setting           triclinic
_symmetry_space_group_name_H-M   'P 1'
_symmetry_Int_Tables_number      1
_space_group_name_Hall           'P 1'
loop_
_symmetry_equiv_pos_site_id
_symmetry_equiv_pos_as_xyz
1 x,y,z
_cell_length_a                   41.367(5)
_cell_length_b                   41.367(5)
_cell_length_c                   41.367(5)
_cell_angle_alpha                90
_cell_angle_beta                 90
_cell_angle_gamma                90
_cell_volume                     70788.4
loop_
_atom_site_label
_atom_site_type_symbol
_atom_site_fract_x
_atom_site_fract_y
_atom_site_fract_z
Zr1 Zr 0.04256(2) 0.750000 0.45744(2)
O1 O 0.24741(11) 0.47039(12) 0.09372(12)
O2 O 0.06284(15) 0.70680(12) 0.43778(14)
O3 O 0.03151(12) 0.66282(14) 0.46707(13)
C1 C 0.2444(3) 0.500000 0.1038(4)
C2 C 0.2330(4) 0.500000 0.1362(6)
C3 C 0.0532(3) 0.6779(4) 0.4430(3)
C4 C 0.2248(3) 0.5281(3) 0.1536(3)
H1 H 0.228785 0.547828 0.143525
C5 C 0.1577(5) 0.500000 0.2871(6)
C6 C 0.2042(4) 0.500000 0.2015(4)
C7 C 0.1479(3) 0.5284(3) 0.3016(3)
H2 H 0.153524 0.547755 0.291572
C8 C 0.2111(3) 0.5292(2) 0.1852(4)
H3 H 0.206821 0.548936 0.195016
C9 C 0.1299(3) 0.5301(3) 0.3309(4)
C10 C 0.1220(4) 0.500000 0.3439(4)
H4 H 0.110247 0.499999 0.363041
C11 C 0.1894(5) 0.500000 0.2337(6)
C12 C 0.1754(5) 0.500000 0.2573(6)
C13 C 0.1186(4) 0.5597(3) 0.3488(3)
C14 C 0.1087(4) 0.5820(3) 0.3634(3)
C15 C 0.0742(3) 0.59533(18) 0.4092(3)
H5 H 0.070342 0.573445 0.412605
C16 C 0.0940(2) 0.6051(3) 0.3839(2)
C17 C 0.09981(18) 0.6379(3) 0.3788(2)
H6 H 0.113017 0.644423 0.361841
C18 C 0.0859(2) 0.66073(19) 0.3991(3)
H7 H 0.089817 0.682612 0.395734
C19 C 0.0662(2) 0.6509(3) 0.4245(2)
C20 C 0.06035(19) 0.6182(3) 0.42953(19)
H8 H 0.047143 0.611634 0.446498
Zr2 Zr 0.000000 0.68991(3) 0.500000
O4 O 0.04786(10) 0.71613(11) 0.500000
H9 H 0.067440 0.703030 0.500000
O5 O 0.000000 0.72443(11) 0.46348(11)
O6 O 0.24741(11) 0.52961(12) 0.09372(12)
O7 O 0.06284(15) 0.29320(12) 0.43778(14)
O8 O 0.03151(12) 0.33718(14) 0.46707(13)
C21 C 0.0532(3) 0.3221(4) 0.4430(3)
C22 C 0.2248(3) 0.4719(3) 0.1536(3)
H10 H 0.228785 0.452172 0.143525
C23 C 0.1479(3) 0.4716(3) 0.3016(3)
H11 H 0.153524 0.452245 0.291572
C24 C 0.2111(3) 0.4708(2) 0.1852(4)
H12 H 0.206821 0.451064 0.195016
C25 C 0.1299(3) 0.4699(3) 0.3309(4)
C26 C 0.1186(4) 0.4403(3) 0.3488(3)
C27 C 0.1087(4) 0.4180(3) 0.3634(3)
C28 C 0.0742(3) 0.40467(18) 0.4092(3)
H13 H 0.070342 0.426555 0.412605
C29 C 0.0940(2) 0.3949(3) 0.3839(2)
C30 C 0.09981(18) 0.3621(3) 0.3788(2)
H14 H 0.113017 0.355577 0.361841
C31 C 0.0859(2) 0.33927(19) 0.3991(3)
H15 H 0.089817 0.317388 0.395734
C32 C 0.0662(2) 0.3491(3) 0.4245(2)
C33 C 0.06035(19) 0.3818(3) 0.42953(19)
H16 H 0.047143 0.388366 0.446498
O15 O 0.000000 0.78387(11) 0.45214(10)
H32 H 0.000000 0.796970 0.432560
O16 O 0.03652(11) 0.77557(11) 0.500000
Zr3 Zr 0.250000 0.45744(2) 0.04256(2)
Zr6 Zr 0.250000 0.54256(2) 0.04256(2)
Zr7 Zr 0.04256(2) 0.750000 0.54256(2)
Zr10 Zr 0.04256(2) 0.250000 0.45744(2)
O17 O 0.25259(11) 0.40628(12) 0.02961(12)
O18 O 0.02961(12) 0.74741(11) 0.40628(12)
O19 O 0.09372(12) 0.75259(11) 0.47039(12)
O20 O 0.06222(14) 0.79320(12) 0.43716(15)
O21 O 0.20680(12) 0.43716(15) 0.06222(14)
O22 O 0.29320(12) 0.43778(14) 0.06284(15)
O24 O 0.03151(12) 0.66282(14) 0.53293(13)
Zr11 Zr 0.000000 0.31009(3) 0.500000
Zr12 Zr 0.000000 0.81009(3) 0.500000
O25 O 0.21613(11) 0.45214(10) 0.000000
O27 O 0.28387(11) 0.500000 0.04786(10)
O28 O 0.000000 0.72443(11) 0.53652(11)
O29 O 0.27557(11) 0.46348(11) 0.000000
O30 O 0.22443(11) 0.500000 0.03652(11)
O25_2 O 0.21613(11) 0.45214(10) 1.000000
O29_2 O 0.27557(11) 0.46348(11) 1.000000
Zr2_2 Zr 1.000000 0.68991(3) 0.500000
O5_2 O 1.000000 0.72443(11) 0.46348(11)
O9 O 0.75259(11) 0.52961(12) 0.09372(12)
O10 O 0.93716(15) 0.29320(12) 0.43778(14)
O11 O 0.96849(12) 0.33718(14) 0.46707(13)
C34 C 0.7556(3) 0.500000 0.1038(4)
C35 C 0.7670(4) 0.500000 0.1362(6)
C36 C 0.9468(3) 0.3221(4) 0.4430(3)
C37 C 0.7752(3) 0.4719(3) 0.1536(3)
H17 H 0.771215 0.452172 0.143525
C38 C 0.8423(5) 0.500000 0.2871(6)
C39 C 0.7958(4) 0.500000 0.2015(4)
C40 C 0.8521(3) 0.4716(3) 0.3016(3)
H18 H 0.846476 0.452245 0.291572
C41 C 0.7889(3) 0.4708(2) 0.1852(4)
H19 H 0.793179 0.451064 0.195016
C42 C 0.8701(3) 0.4699(3) 0.3309(4)
C43 C 0.8780(4) 0.500000 0.3439(4)
H20 H 0.889753 0.500001 0.363041
C44 C 0.8106(5) 0.500000 0.2337(6)
C45 C 0.8246(5) 0.500000 0.2573(6)
C46 C 0.8814(4) 0.4403(3) 0.3488(3)
C47 C 0.8913(4) 0.4180(3) 0.3634(3)
C48 C 0.9258(3) 0.40467(18) 0.4092(3)
H21 H 0.929658 0.426555 0.412605
C49 C 0.9060(2) 0.3949(3) 0.3839(2)
C50 C 0.90019(18) 0.3621(3) 0.3788(2)
H22 H 0.886983 0.355577 0.361841
C51 C 0.9141(2) 0.33927(19) 0.3991(3)
H23 H 0.910183 0.317388 0.395734
C52 C 0.9338(2) 0.3491(3) 0.4245(2)
C53 C 0.93965(19) 0.3818(3) 0.42953(19)
H24 H 0.952857 0.388366 0.446498
O12 O 0.75259(11) 0.47039(12) 0.09372(12)
O13 O 0.93716(15) 0.70680(12) 0.43778(14)
O14 O 0.96849(12) 0.66282(14) 0.46707(13)
C54 C 0.9468(3) 0.6779(4) 0.4430(3)
C55 C 0.7752(3) 0.5281(3) 0.1536(3)
H25 H 0.771215 0.547828 0.143525
C56 C 0.8521(3) 0.5284(3) 0.3016(3)
H26 H 0.846476 0.547755 0.291572
C57 C 0.7889(3) 0.5292(2) 0.1852(4)
H27 H 0.793179 0.548936 0.195016
C58 C 0.8701(3) 0.5301(3) 0.3309(4)
C59 C 0.8814(4) 0.5597(3) 0.3488(3)
C60 C 0.8913(4) 0.5820(3) 0.3634(3)
C61 C 0.9258(3) 0.59533(18) 0.4092(3)
H28 H 0.929658 0.573445 0.412605
C62 C 0.9060(2) 0.6051(3) 0.3839(2)
C63 C 0.90019(18) 0.6379(3) 0.3788(2)
H29 H 0.886983 0.644423 0.361841
C64 C 0.9141(2) 0.66073(19) 0.3991(3)
H30 H 0.910183 0.682612 0.395734
C65 C 0.9338(2) 0.6509(3) 0.4245(2)
C66 C 0.93965(19) 0.6182(3) 0.42953(19)
H31 H 0.952857 0.611634 0.446498
O15_2 O 1.000000 0.78387(11) 0.45214(10)
H32_2 H 1.000000 0.796970 0.432560
Zr4 Zr 0.95744(2) 0.250000 0.45744(2)
Zr5 Zr 0.750000 0.45744(2) 0.04256(2)
Zr8 Zr 0.750000 0.54256(2) 0.04256(2)
Zr9 Zr 0.95744(2) 0.750000 0.45744(2)
O23 O 0.96849(12) 0.66282(14) 0.53293(13)
Zr11_2 Zr 1.000000 0.31009(3) 0.500000
Zr12_2 Zr 1.000000 0.81009(3) 0.500000
O26 O 0.95214(10) 0.71613(11) 0.500000
O28_2 O 1.000000 0.72443(11) 0.53652(11)
Zr11_3 Zr 0.18991(3) 0.500000 0.000000
O1_2 O 0.02961(12) 0.74741(11) 0.59372(12)
C1_2 C 0.000000 0.7444(3) 0.6038(4)
C2_2 C -0.000000 0.7330(4) 0.6362(6)
C5_2 C 0.000000 0.6577(5) 0.7871(6)
C6_2 C 0.000000 0.7042(4) 0.7015(4)
C10_2 C 0.000000 0.6220(4) 0.8439(4)
H4_2 H 0.000001 0.610247 0.863041
C11_2 C 0.000000 0.6894(5) 0.7337(6)
C12_2 C 0.000000 0.6754(5) 0.7573(6)
O7_2 O 0.20680(12) 0.56284(15) 0.93778(14)
O8_2 O 0.16282(14) 0.53151(12) 0.96707(13)
C21_2 C 0.1779(4) 0.5532(3) 0.9430(3)
C22_2 C 0.0281(3) 0.7248(3) 0.6536(3)
H10_2 H 0.047828 0.728785 0.643525
C23_2 C 0.0284(3) 0.6479(3) 0.8016(3)
H11_2 H 0.047755 0.653524 0.791572
C24_2 C 0.0292(2) 0.7111(3) 0.6852(4)
H12_2 H 0.048936 0.706821 0.695016
C25_2 C 0.0301(3) 0.6299(3) 0.8309(4)
C26_2 C 0.0597(3) 0.6186(4) 0.8488(3)
C27_2 C 0.0820(3) 0.6087(4) 0.8634(3)
C28_2 C 0.09533(18) 0.5742(3) 0.9092(3)
H13_2 H 0.073445 0.570342 0.912605
C29_2 C 0.1051(3) 0.5940(2) 0.8839(2)
C30_2 C 0.1379(3) 0.59981(18) 0.8788(2)
H14_2 H 0.144423 0.613017 0.861841
C31_2 C 0.16073(19) 0.5859(2) 0.8991(3)
H15_2 H 0.182612 0.589817 0.895734
C32_2 C 0.1509(3) 0.5662(2) 0.9245(2)
C33_2 C 0.1182(3) 0.56035(19) 0.92953(19)
H16_2 H 0.111634 0.547143 0.946498
O10_2 O 0.20680(12) 0.43716(15) 0.93778(14)
O11_2 O 0.16282(14) 0.46849(12) 0.96707(13)
C34_2 C 0.000000 0.2556(3) 0.6038(4)
C35_2 C 0.000000 0.2670(4) 0.6362(6)
C36_2 C 0.1779(4) 0.4468(3) 0.9430(3)
C37_2 C 0.0281(3) 0.2752(3) 0.6536(3)
H17_2 H 0.047828 0.271215 0.643525
C38_2 C 0.000000 0.3423(5) 0.7871(6)
C39_2 C 0.000000 0.2958(4) 0.7015(4)
C40_2 C 0.0284(3) 0.3521(3) 0.8016(3)
H18_2 H 0.047755 0.346476 0.791572
C41_2 C 0.0292(2) 0.2889(3) 0.6852(4)
H19_2 H 0.048936 0.293179 0.695016
C42_2 C 0.0301(3) 0.3701(3) 0.8309(4)
C43_2 C 0.000000 0.3780(4) 0.8439(4)
H20_2 H -0.000001 0.389753 0.863041
C44_2 C 0.000000 0.3106(5) 0.7337(6)
C45_2 C 0.000000 0.3246(5) 0.7573(6)
C46_2 C 0.0597(3) 0.3814(4) 0.8488(3)
C47_2 C 0.0820(3) 0.3913(4) 0.8634(3)
C48_2 C 0.09533(18) 0.4258(3) 0.9092(3)
H21_2 H 0.073445 0.429658 0.912605
C49_2 C 0.1051(3) 0.4060(2) 0.8839(2)
C50_2 C 0.1379(3) 0.40019(18) 0.8788(2)
H22_2 H 0.144423 0.386983 0.861841
C51_2 C 0.16073(19) 0.4141(2) 0.8991(3)
H23_2 H 0.182612 0.410183 0.895734
C52_2 C 0.1509(3) 0.4338(2) 0.9245(2)
C53_2 C 0.1182(3) 0.43965(19) 0.92953(19)
H24_2 H 0.111634 0.452857 0.946498
O12_2 O 0.02961(12) 0.25259(11) 0.59372(12)
Zr4_2 Zr 0.250000 0.45744(2) 0.95744(2)
Zr5_2 Zr 0.04256(2) 0.250000 0.54256(2)
Zr10_2 Zr 0.250000 0.54256(2) 0.95744(2)
O17_2 O 0.09372(12) 0.75259(11) 0.52961(12)
O21_2 O 0.06284(15) 0.70680(12) 0.56222(14)
O22_2 O 0.06222(14) 0.79320(12) 0.56284(15)
Zr11_4 Zr 0.18991(3) 0.500000 1.000000
O27_2 O 0.000000 0.78387(11) 0.54786(10)
Zr2_3 Zr 0.81009(3) 0.500000 0.000000
O4_2 O 0.78387(11) 0.54786(10) 0.000000
H9_2 H 0.796970 0.567440 0.000000
O16_2 O 0.72443(11) 0.53652(11) 0.000000
O23_2 O 0.83718(14) 0.46849(12) 0.03293(13)
O24_2 O 0.83718(14) 0.53151(12) 0.03293(13)
Zr12_3 Zr 0.68991(3) 0.500000 0.000000
O26_2 O 0.78387(11) 0.45214(10) 0.000000
O28_3 O 0.77557(11) 0.500000 0.03652(11)
Zr1_2 Zr 0.750000 0.54256(2) 0.95744(2)
O2_2 O 0.79320(12) 0.56284(15) 0.93778(14)
O3_2 O 0.83718(14) 0.53151(12) 0.96707(13)
C1_3 C 1.000000 0.7444(3) 0.6038(4)
C2_3 C 1.000000 0.7330(4) 0.6362(6)
C3_2 C 0.8221(4) 0.5532(3) 0.9430(3)
C4_2 C 0.9719(3) 0.7248(3) 0.6536(3)
H1_2 H 0.952172 0.728785 0.643525
C5_3 C 1.000000 0.6577(5) 0.7871(6)
C6_3 C 1.000000 0.7042(4) 0.7015(4)
C7_2 C 0.9716(3) 0.6479(3) 0.8016(3)
H2_2 H 0.952245 0.653524 0.791572
C8_2 C 0.9708(2) 0.7111(3) 0.6852(4)
H3_2 H 0.951064 0.706821 0.695016
C9_2 C 0.9699(3) 0.6299(3) 0.8309(4)
C10_3 C 1.000000 0.6220(4) 0.8439(4)
H4_3 H 1.000001 0.610247 0.863041
C11_3 C 1.000000 0.6894(5) 0.7337(6)
C12_3 C 1.000000 0.6754(5) 0.7573(6)
C13_2 C 0.9403(3) 0.6186(4) 0.8488(3)
C14_2 C 0.9180(3) 0.6087(4) 0.8634(3)
C15_2 C 0.90467(18) 0.5742(3) 0.9092(3)
H5_2 H 0.926555 0.570342 0.912605
C16_2 C 0.8949(3) 0.5940(2) 0.8839(2)
C17_2 C 0.8621(3) 0.59981(18) 0.8788(2)
H6_2 H 0.855577 0.613017 0.861841
C18_2 C 0.83927(19) 0.5859(2) 0.8991(3)
H7_2 H 0.817388 0.589817 0.895734
C19_2 C 0.8491(3) 0.5662(2) 0.9245(2)
C20_2 C 0.8818(3) 0.56035(19) 0.92953(19)
H8_2 H 0.888366 0.547143 0.946498
Zr2_4 Zr 0.81009(3) 0.500000 1.000000
O4_3 O 0.78387(11) 0.54786(10) 1.000000
H9_3 H 0.796970 0.567440 1.000000
O5_3 O 0.77557(11) 0.500000 0.96348(11)
O6_2 O 0.97039(12) 0.74741(11) 0.59372(12)
O9_2 O 0.97039(12) 0.25259(11) 0.59372(12)
C34_3 C 1.000000 0.2556(3) 0.6038(4)
C35_3 C 1.000000 0.2670(4) 0.6362(6)
C38_3 C 1.000000 0.3423(5) 0.7871(6)
C39_3 C 1.000000 0.2958(4) 0.7015(4)
C43_3 C 1.000000 0.3780(4) 0.8439(4)
H20_3 H 0.999999 0.389753 0.863041
C44_3 C 1.000000 0.3106(5) 0.7337(6)
C45_3 C 1.000000 0.3246(5) 0.7573(6)
O13_2 O 0.79320(12) 0.43716(15) 0.93778(14)
O14_2 O 0.83718(14) 0.46849(12) 0.96707(13)
C54_2 C 0.8221(4) 0.4468(3) 0.9430(3)
C55_2 C 0.9719(3) 0.2752(3) 0.6536(3)
H25_2 H 0.952172 0.271215 0.643525
C56_2 C 0.9716(3) 0.3521(3) 0.8016(3)
H26_2 H 0.952245 0.346476 0.791572
C57_2 C 0.9708(2) 0.2889(3) 0.6852(4)
H27_2 H 0.951064 0.293179 0.695016
C58_2 C 0.9699(3) 0.3701(3) 0.8309(4)
C59_2 C 0.9403(3) 0.3814(4) 0.8488(3)
C60_2 C 0.9180(3) 0.3913(4) 0.8634(3)
C61_2 C 0.90467(18) 0.4258(3) 0.9092(3)
H28_2 H 0.926555 0.429658 0.912605
C62_2 C 0.8949(3) 0.4060(2) 0.8839(2)
C63_2 C 0.8621(3) 0.40019(18) 0.8788(2)
H29_2 H 0.855577 0.386983 0.861841
C64_2 C 0.83927(19) 0.4141(2) 0.8991(3)
H30_2 H 0.817388 0.410183 0.895734
C65_2 C 0.8491(3) 0.4338(2) 0.9245(2)
C66_2 C 0.8818(3) 0.43965(19) 0.92953(19)
H31_2 H 0.888366 0.452857 0.946498
O15_3 O 0.71613(11) 0.500000 0.95214(10)
H32_3 H 0.703030 0.500000 0.932560
O16_3 O 0.72443(11) 0.53652(11) 1.000000
Zr6_2 Zr 0.95744(2) 0.750000 0.54256(2)
Zr8_2 Zr 0.95744(2) 0.250000 0.54256(2)
Zr9_2 Zr 0.750000 0.45744(2) 0.95744(2)
O18_2 O 0.75259(11) 0.52961(12) 0.90628(12)
O19_2 O 0.74741(11) 0.59372(12) 0.97039(12)
O20_2 O 0.70680(12) 0.56222(14) 0.93716(15)
Zr12_4 Zr 0.68991(3) 0.500000 1.000000
O26_3 O 0.78387(11) 0.45214(10) 1.000000
O27_3 O 1.000000 0.78387(11) 0.54786(10)
O5_4 O -0.000000 0.27557(11) 0.46348(11)
O15_4 O -0.000000 0.21613(11) 0.45214(10)
H32_4 H -0.000000 0.203030 0.432560
O23_3 O 0.03151(12) 0.33718(14) 0.53293(13)
Zr12_5 Zr -0.000000 0.18991(3) 0.500000
O26_4 O 0.04786(10) 0.28387(11) 0.500000
O28_4 O 0.000000 0.27557(11) 0.53652(11)
O4_4 O 0.95214(10) 0.28387(11) 0.500000
H9_4 H 0.932560 0.296970 0.500000
O5_5 O 1.000000 0.27557(11) 0.46348(11)
O15_5 O 1.000000 0.21613(11) 0.45214(10)
H32_5 H 1.000000 0.203030 0.432560
O16_4 O 0.96348(11) 0.22443(11) 0.500000
O17_3 O 0.74741(11) 0.59372(12) 0.02961(12)
O18_3 O 0.97039(12) 0.25259(11) 0.40628(12)
O19_3 O 0.90628(12) 0.24741(11) 0.47039(12)
O20_3 O 0.93778(14) 0.20680(12) 0.43716(15)
O21_3 O 0.79320(12) 0.56284(15) 0.06222(14)
O22_3 O 0.70680(12) 0.56222(14) 0.06284(15)
O24_3 O 0.96849(12) 0.33718(14) 0.53293(13)
Zr12_6 Zr 1.000000 0.18991(3) 0.500000
O27_4 O 0.71613(11) 0.500000 0.04786(10)
O28_5 O 1.000000 0.27557(11) 0.53652(11)
H9_5 H 0.203030 0.432560 0.000000
O23_4 O 0.16282(14) 0.53151(12) 0.03293(13)
O24_4 O 0.16282(14) 0.46849(12) 0.03293(13)
Zr12_7 Zr 0.31009(3) 0.500000 0.000000
O26_5 O 0.21613(11) 0.54786(10) 0.000000
H9_6 H 0.203030 0.432560 1.000000
O5_6 O 0.22443(11) 0.500000 0.96348(11)
O15_6 O 0.28387(11) 0.500000 0.95214(10)
H32_6 H 0.296970 0.500000 0.932560
O18_4 O 0.24741(11) 0.47039(12) 0.90628(12)
O19_4 O 0.25259(11) 0.40628(12) 0.97039(12)
O20_4 O 0.29320(12) 0.43778(14) 0.93716(15)
Zr12_8 Zr 0.31009(3) 0.500000 1.000000
O26_6 O 0.21613(11) 0.54786(10) 1.000000
O27_5 O 0.000000 0.21613(11) 0.54786(10)
O17_4 O 0.90628(12) 0.24741(11) 0.52961(12)
O21_4 O 0.93716(15) 0.29320(12) 0.56222(14)
O22_4 O 0.93778(14) 0.20680(12) 0.56284(15)
O27_6 O 1.000000 0.21613(11) 0.54786(10)
Zr1_3 Zr 0.54256(2) 0.04256(2) 0.250000
O2_3 O 0.56284(15) 0.06222(14) 0.20680(12)
O3_3 O 0.53151(12) 0.03293(13) 0.16282(14)
C1_4 C 0.7444(3) 0.3962(4) 0.000000
C2_4 C 0.7330(4) 0.3638(6) 0.000000
C3_3 C 0.5532(3) 0.0570(3) 0.1779(4)
C4_3 C 0.7248(3) 0.3464(3) 0.0281(3)
H1_3 H 0.728785 0.356475 0.047828
C5_4 C 0.6577(5) 0.2129(6) 0.000000
C6_4 C 0.7042(4) 0.2985(4) 0.000000
C7_3 C 0.6479(3) 0.1984(3) 0.0284(3)
H2_3 H 0.653524 0.208428 0.047755
C8_3 C 0.7111(3) 0.3148(4) 0.0292(2)
H3_3 H 0.706821 0.304984 0.048936
C9_3 C 0.6299(3) 0.1691(4) 0.0301(3)
C10_4 C 0.6220(4) 0.1561(4) 0.000000
H4_4 H 0.610247 0.136959 -0.000001
C11_4 C 0.6894(5) 0.2663(6) 0.000000
C12_4 C 0.6754(5) 0.2427(6) 0.000000
C13_3 C 0.6186(4) 0.1512(3) 0.0597(3)
C14_3 C 0.6087(4) 0.1366(3) 0.0820(3)
C15_3 C 0.5742(3) 0.0908(3) 0.09533(18)
H5_3 H 0.570342 0.087395 0.073445
C16_3 C 0.5940(2) 0.1161(2) 0.1051(3)
C17_3 C 0.59981(18) 0.1212(2) 0.1379(3)
H6_3 H 0.613017 0.138159 0.144423
C18_3 C 0.5859(2) 0.1009(3) 0.16073(19)
H7_3 H 0.589817 0.104266 0.182612
C19_3 C 0.5662(2) 0.0755(2) 0.1509(3)
C20_3 C 0.56035(19) 0.07047(19) 0.1182(3)
H8_3 H 0.547143 0.053502 0.111634
Zr2_5 Zr 0.500000 0.000000 0.18991(3)
O4_5 O 0.54786(10) 0.000000 0.21613(11)
H9_7 H 0.567440 0.000000 0.203030
O5_7 O 0.500000 0.03652(11) 0.22443(11)
O6_3 O 0.74741(11) 0.40628(12) 0.02961(12)
C34_4 C 0.2556(3) 0.3962(4) 0.000000
C35_4 C 0.2670(4) 0.3638(6) 0.000000
C38_4 C 0.3423(5) 0.2129(6) 0.000000
C39_4 C 0.2958(4) 0.2985(4) 0.000000
C43_4 C 0.3780(4) 0.1561(4) 0.000000
H20_4 H 0.389753 0.136959 0.000001
C44_4 C 0.3106(5) 0.2663(6) 0.000000
C45_4 C 0.3246(5) 0.2427(6) 0.000000
O13_3 O 0.43716(15) 0.06222(14) 0.20680(12)
O14_3 O 0.46849(12) 0.03293(13) 0.16282(14)
C54_3 C 0.4468(3) 0.0570(3) 0.1779(4)
C55_3 C 0.2752(3) 0.3464(3) 0.0281(3)
H25_3 H 0.271215 0.356475 0.047828
C56_3 C 0.3521(3) 0.1984(3) 0.0284(3)
H26_3 H 0.346476 0.208428 0.047755
C57_3 C 0.2889(3) 0.3148(4) 0.0292(2)
H27_3 H 0.293179 0.304984 0.048936
C58_3 C 0.3701(3) 0.1691(4) 0.0301(3)
C59_3 C 0.3814(4) 0.1512(3) 0.0597(3)
C60_3 C 0.3913(4) 0.1366(3) 0.0820(3)
C61_3 C 0.4258(3) 0.0908(3) 0.09533(18)
H28_3 H 0.429658 0.087395 0.073445
C62_3 C 0.4060(2) 0.1161(2) 0.1051(3)
C63_3 C 0.40019(18) 0.1212(2) 0.1379(3)
H29_3 H 0.386983 0.138159 0.144423
C64_3 C 0.4141(2) 0.1009(3) 0.16073(19)
H30_3 H 0.410183 0.104266 0.182612
C65_3 C 0.4338(2) 0.0755(2) 0.1509(3)
C66_3 C 0.43965(19) 0.07047(19) 0.1182(3)
H31_3 H 0.452857 0.053502 0.111634
O15_7 O 0.500000 0.04786(10) 0.28387(11)
H32_7 H 0.500000 0.067440 0.296970
O16_5 O 0.53652(11) 0.000000 0.27557(11)
Zr9_3 Zr 0.45744(2) 0.04256(2) 0.250000
O18_5 O 0.52961(12) 0.09372(12) 0.24741(11)
O19_5 O 0.59372(12) 0.02961(12) 0.25259(11)
O20_5 O 0.56222(14) 0.06284(15) 0.29320(12)
Zr12_9 Zr 0.500000 0.000000 0.31009(3)
O26_7 O 0.45214(10) 0.000000 0.21613(11)
O30_2 O 0.72443(11) 0.46348(11) 0.000000
O1_3 O 0.74741(11) 0.40628(12) 0.97039(12)
C1_5 C 0.7444(3) 0.3962(4) 1.000000
C2_5 C 0.7330(4) 0.3638(6) 1.000000
C5_5 C 0.6577(5) 0.2129(6) 1.000000
C6_5 C 0.7042(4) 0.2985(4) 1.000000
C10_5 C 0.6220(4) 0.1561(4) 1.000000
H4_5 H 0.610247 0.136959 0.999999
C11_5 C 0.6894(5) 0.2663(6) 1.000000
C12_5 C 0.6754(5) 0.2427(6) 1.000000
O7_3 O 0.56284(15) 0.06222(14) 0.79320(12)
O8_3 O 0.53151(12) 0.03293(13) 0.83718(14)
C21_3 C 0.5532(3) 0.0570(3) 0.8221(4)
C22_3 C 0.7248(3) 0.3464(3) 0.9719(3)
H10_3 H 0.728785 0.356475 0.952172
C23_3 C 0.6479(3) 0.1984(3) 0.9716(3)
H11_3 H 0.653524 0.208428 0.952245
C24_3 C 0.7111(3) 0.3148(4) 0.9708(2)
H12_3 H 0.706821 0.304984 0.951064
C25_3 C 0.6299(3) 0.1691(4) 0.9699(3)
C26_3 C 0.6186(4) 0.1512(3) 0.9403(3)
C27_3 C 0.6087(4) 0.1366(3) 0.9180(3)
C28_3 C 0.5742(3) 0.0908(3) 0.90467(18)
H13_3 H 0.570342 0.087395 0.926555
C29_3 C 0.5940(2) 0.1161(2) 0.8949(3)
C30_3 C 0.59981(18) 0.1212(2) 0.8621(3)
H14_3 H 0.613017 0.138159 0.855577
C31_3 C 0.5859(2) 0.1009(3) 0.83927(19)
H15_3 H 0.589817 0.104266 0.817388
C32_3 C 0.5662(2) 0.0755(2) 0.8491(3)
C33_3 C 0.56035(19) 0.07047(19) 0.8818(3)
H16_3 H 0.547143 0.053502 0.888366
O10_3 O 0.43716(15) 0.06222(14) 0.79320(12)
O11_3 O 0.46849(12) 0.03293(13) 0.83718(14)
C34_5 C 0.2556(3) 0.3962(4) 1.000000
C35_5 C 0.2670(4) 0.3638(6) 1.000000
C36_3 C 0.4468(3) 0.0570(3) 0.8221(4)
C37_3 C 0.2752(3) 0.3464(3) 0.9719(3)
H17_3 H 0.271215 0.356475 0.952172
C38_5 C 0.3423(5) 0.2129(6) 1.000000
C39_5 C 0.2958(4) 0.2985(4) 1.000000
C40_3 C 0.3521(3) 0.1984(3) 0.9716(3)
H18_3 H 0.346476 0.208428 0.952245
C41_3 C 0.2889(3) 0.3148(4) 0.9708(2)
H19_3 H 0.293179 0.304984 0.951064
C42_3 C 0.3701(3) 0.1691(4) 0.9699(3)
C43_5 C 0.3780(4) 0.1561(4) 1.000000
H20_5 H 0.389753 0.136959 1.000001
C44_5 C 0.3106(5) 0.2663(6) 1.000000
C45_5 C 0.3246(5) 0.2427(6) 1.000000
C46_3 C 0.3814(4) 0.1512(3) 0.9403(3)
C47_3 C 0.3913(4) 0.1366(3) 0.9180(3)
C48_3 C 0.4258(3) 0.0908(3) 0.90467(18)
H21_3 H 0.429658 0.087395 0.926555
C49_3 C 0.4060(2) 0.1161(2) 0.8949(3)
C50_3 C 0.40019(18) 0.1212(2) 0.8621(3)
H22_3 H 0.386983 0.138159 0.855577
C51_3 C 0.4141(2) 0.1009(3) 0.83927(19)
H23_3 H 0.410183 0.104266 0.817388
C52_3 C 0.4338(2) 0.0755(2) 0.8491(3)
C53_3 C 0.43965(19) 0.07047(19) 0.8818(3)
H24_3 H 0.452857 0.053502 0.888366
Zr4_3 Zr 0.45744(2) 0.04256(2) 0.750000
Zr10_3 Zr 0.54256(2) 0.04256(2) 0.750000
O17_5 O 0.75259(11) 0.47039(12) 0.90628(12)
O21_5 O 0.70680(12) 0.43778(14) 0.93716(15)
Zr11_5 Zr 0.500000 0.000000 0.81009(3)
O30_3 O 0.72443(11) 0.46348(11) 1.000000
Zr2_6 Zr 0.500000 1.000000 0.18991(3)
O4_6 O 0.54786(10) 1.000000 0.21613(11)
H9_8 H 0.567440 1.000000 0.203030
O16_6 O 0.53652(11) 1.000000 0.27557(11)
Zr7_2 Zr 0.54256(2) 0.95744(2) 0.250000
O23_5 O 0.46849(12) 0.96707(13) 0.16282(14)
O24_5 O 0.53151(12) 0.96707(13) 0.16282(14)
Zr12_10 Zr 0.500000 1.000000 0.31009(3)
O26_8 O 0.45214(10) 1.000000 0.21613(11)
O28_6 O 0.500000 0.96348(11) 0.22443(11)
Zr11_6 Zr 0.500000 1.000000 0.81009(3)
O29_3 O 0.27557(11) 0.53652(11) 0.000000
O1_4 O 0.24741(11) 0.52961(12) 0.90628(12)
O2_4 O 0.06284(15) 0.29320(12) 0.56222(14)
C1_6 C 0.2444(3) 0.500000 0.8962(4)
C2_6 C 0.2330(4) 0.500000 0.8638(6)
C3_4 C 0.0532(3) 0.3221(4) 0.5570(3)
C4_4 C 0.2248(3) 0.4719(3) 0.8464(3)
H1_4 H 0.228785 0.452172 0.856475
C5_6 C 0.1577(5) 0.500000 0.7129(6)
C6_6 C 0.2042(4) 0.500000 0.7985(4)
C7_4 C 0.1479(3) 0.4716(3) 0.6984(3)
H2_4 H 0.153524 0.452245 0.708428
C8_4 C 0.2111(3) 0.4708(2) 0.8148(4)
H3_4 H 0.206821 0.451064 0.804984
C9_4 C 0.1299(3) 0.4699(3) 0.6691(4)
C10_6 C 0.1220(4) 0.500000 0.6561(4)
H4_6 H 0.110247 0.500001 0.636959
C11_6 C 0.1894(5) 0.500000 0.7663(6)
C12_6 C 0.1754(5) 0.500000 0.7427(6)
C13_4 C 0.1186(4) 0.4403(3) 0.6512(3)
C14_4 C 0.1087(4) 0.4180(3) 0.6366(3)
C15_4 C 0.0742(3) 0.40467(18) 0.5908(3)
H5_4 H 0.070342 0.426555 0.587395
C16_4 C 0.0940(2) 0.3949(3) 0.6161(2)
C17_4 C 0.09981(18) 0.3621(3) 0.6212(2)
H6_4 H 0.113017 0.355577 0.638159
C18_4 C 0.0859(2) 0.33927(19) 0.6009(3)
H7_4 H 0.089817 0.317388 0.604266
C19_4 C 0.0662(2) 0.3491(3) 0.5755(2)
C20_4 C 0.06035(19) 0.3818(3) 0.57047(19)
H8_4 H 0.047143 0.388366 0.553502
H9_9 H 0.067440 0.296970 0.500000
C21_4 C 0.0532(3) 0.6779(4) 0.5570(3)
C22_4 C 0.2248(3) 0.5281(3) 0.8464(3)
H10_4 H 0.228785 0.547828 0.856475
C23_4 C 0.1479(3) 0.5284(3) 0.6984(3)
H11_4 H 0.153524 0.547755 0.708428
C24_4 C 0.2111(3) 0.5292(2) 0.8148(4)
H12_4 H 0.206821 0.548936 0.804984
C25_4 C 0.1299(3) 0.5301(3) 0.6691(4)
C26_4 C 0.1186(4) 0.5597(3) 0.6512(3)
C27_4 C 0.1087(4) 0.5820(3) 0.6366(3)
C28_4 C 0.0742(3) 0.59533(18) 0.5908(3)
H13_4 H 0.070342 0.573445 0.587395
C29_4 C 0.0940(2) 0.6051(3) 0.6161(2)
C30_4 C 0.09981(18) 0.6379(3) 0.6212(2)
H14_4 H 0.113017 0.644423 0.638159
C31_4 C 0.0859(2) 0.66073(19) 0.6009(3)
H15_4 H 0.089817 0.682612 0.604266
C32_4 C 0.0662(2) 0.6509(3) 0.5755(2)
C33_4 C 0.06035(19) 0.6182(3) 0.57047(19)
H16_4 H 0.047143 0.611634 0.553502
H32_8 H 0.000000 0.203030 0.567440
O16_7 O 0.03652(11) 0.22443(11) 0.500000
O17_6 O 0.25259(11) 0.59372(12) 0.97039(12)
O19_6 O 0.09372(12) 0.24741(11) 0.52961(12)
O20_6 O 0.06222(14) 0.20680(12) 0.56284(15)
O22_5 O 0.29320(12) 0.56222(14) 0.93716(15)
O29_4 O 0.27557(11) 0.53652(11) 1.000000
O10_4 O 0.93716(15) 0.70680(12) 0.56222(14)
C34_6 C 0.7556(3) 0.500000 0.8962(4)
C35_6 C 0.7670(4) 0.500000 0.8638(6)
C36_4 C 0.9468(3) 0.6779(4) 0.5570(3)
C37_4 C 0.7752(3) 0.5281(3) 0.8464(3)
H17_4 H 0.771215 0.547828 0.856475
C38_6 C 0.8423(5) 0.500000 0.7129(6)
C39_6 C 0.7958(4) 0.500000 0.7985(4)
C40_4 C 0.8521(3) 0.5284(3) 0.6984(3)
H18_4 H 0.846476 0.547755 0.708428
C41_4 C 0.7889(3) 0.5292(2) 0.8148(4)
H19_4 H 0.793179 0.548936 0.804984
C42_4 C 0.8701(3) 0.5301(3) 0.6691(4)
C43_6 C 0.8780(4) 0.500000 0.6561(4)
H20_6 H 0.889753 0.499999 0.636959
C44_6 C 0.8106(5) 0.500000 0.7663(6)
C45_6 C 0.8246(5) 0.500000 0.7427(6)
C46_4 C 0.8814(4) 0.5597(3) 0.6512(3)
C47_4 C 0.8913(4) 0.5820(3) 0.6366(3)
C48_4 C 0.9258(3) 0.59533(18) 0.5908(3)
H21_4 H 0.929658 0.573445 0.587395
C49_4 C 0.9060(2) 0.6051(3) 0.6161(2)
C50_4 C 0.90019(18) 0.6379(3) 0.6212(2)
H22_4 H 0.886983 0.644423 0.638159
C51_4 C 0.9141(2) 0.66073(19) 0.6009(3)
H23_4 H 0.910183 0.682612 0.604266
C52_4 C 0.9338(2) 0.6509(3) 0.5755(2)
C53_4 C 0.93965(19) 0.6182(3) 0.57047(19)
H24_4 H 0.952857 0.611634 0.553502
C54_4 C 0.9468(3) 0.3221(4) 0.5570(3)
C55_4 C 0.7752(3) 0.4719(3) 0.8464(3)
H25_4 H 0.771215 0.452172 0.856475
C56_4 C 0.8521(3) 0.4716(3) 0.6984(3)
H26_4 H 0.846476 0.452245 0.708428
C57_4 C 0.7889(3) 0.4708(2) 0.8148(4)
H27_4 H 0.793179 0.451064 0.804984
C58_4 C 0.8701(3) 0.4699(3) 0.6691(4)
C59_4 C 0.8814(4) 0.4403(3) 0.6512(3)
C60_4 C 0.8913(4) 0.4180(3) 0.6366(3)
C61_4 C 0.9258(3) 0.40467(18) 0.5908(3)
H28_4 H 0.929658 0.426555 0.587395
C62_4 C 0.9060(2) 0.3949(3) 0.6161(2)
C63_4 C 0.90019(18) 0.3621(3) 0.6212(2)
H29_4 H 0.886983 0.355577 0.638159
C64_4 C 0.9141(2) 0.33927(19) 0.6009(3)
H30_4 H 0.910183 0.317388 0.604266
C65_4 C 0.9338(2) 0.3491(3) 0.5755(2)
C66_4 C 0.93965(19) 0.3818(3) 0.57047(19)
H31_4 H 0.952857 0.388366 0.553502
H32_9 H 1.000000 0.203030 0.567440
O4_7 O 0.54786(10) 0.000000 0.78387(11)
H9_10 H 0.567440 0.000000 0.796970
O16_8 O 0.53652(11) 0.000000 0.72443(11)
Zr12_11 Zr 0.500000 0.000000 0.68991(3)
O26_9 O 0.45214(10) 0.000000 0.78387(11)
O28_7 O 0.500000 0.03652(11) 0.77557(11)
C1_7 C 0.7444(3) 0.6038(4) 0.000000
C2_7 C 0.7330(4) 0.6362(6) 0.000000
C5_7 C 0.6577(5) 0.7871(6) 0.000000
C6_7 C 0.7042(4) 0.7015(4) 0.000000
C10_7 C 0.6220(4) 0.8439(4) 0.000000
H4_7 H 0.610247 0.863041 0.000001
C11_7 C 0.6894(5) 0.7337(6) 0.000000
C12_7 C 0.6754(5) 0.7573(6) 0.000000
O7_4 O 0.56284(15) 0.93778(14) 0.20680(12)
C21_5 C 0.5532(3) 0.9430(3) 0.1779(4)
C22_5 C 0.7248(3) 0.6536(3) 0.0281(3)
H10_5 H 0.728785 0.643525 0.047828
C23_5 C 0.6479(3) 0.8016(3) 0.0284(3)
H11_5 H 0.653524 0.791572 0.047755
C24_5 C 0.7111(3) 0.6852(4) 0.0292(2)
H12_5 H 0.706821 0.695016 0.048936
C25_5 C 0.6299(3) 0.8309(4) 0.0301(3)
C26_5 C 0.6186(4) 0.8488(3) 0.0597(3)
C27_5 C 0.6087(4) 0.8634(3) 0.0820(3)
C28_5 C 0.5742(3) 0.9092(3) 0.09533(18)
H13_5 H 0.570342 0.912605 0.073445
C29_5 C 0.5940(2) 0.8839(2) 0.1051(3)
C30_5 C 0.59981(18) 0.8788(2) 0.1379(3)
H14_5 H 0.613017 0.861841 0.144423
C31_5 C 0.5859(2) 0.8991(3) 0.16073(19)
H15_5 H 0.589817 0.895734 0.182612
C32_5 C 0.5662(2) 0.9245(2) 0.1509(3)
C33_5 C 0.56035(19) 0.92953(19) 0.1182(3)
H16_5 H 0.547143 0.946498 0.111634
O10_5 O 0.43716(15) 0.93778(14) 0.20680(12)
C34_7 C 0.2556(3) 0.6038(4) 0.000000
C35_7 C 0.2670(4) 0.6362(6) 0.000000
C36_5 C 0.4468(3) 0.9430(3) 0.1779(4)
C37_5 C 0.2752(3) 0.6536(3) 0.0281(3)
H17_5 H 0.271215 0.643525 0.047828
C38_7 C 0.3423(5) 0.7871(6) 0.000000
C39_7 C 0.2958(4) 0.7015(4) 0.000000
C40_5 C 0.3521(3) 0.8016(3) 0.0284(3)
H18_5 H 0.346476 0.791572 0.047755
C41_5 C 0.2889(3) 0.6852(4) 0.0292(2)
H19_5 H 0.293179 0.695016 0.048936
C42_5 C 0.3701(3) 0.8309(4) 0.0301(3)
C43_7 C 0.3780(4) 0.8439(4) 0.000000
H20_7 H 0.389753 0.863041 -0.000001
C44_7 C 0.3106(5) 0.7337(6) 0.000000
C45_7 C 0.3246(5) 0.7573(6) 0.000000
C46_5 C 0.3814(4) 0.8488(3) 0.0597(3)
C47_5 C 0.3913(4) 0.8634(3) 0.0820(3)
C48_5 C 0.4258(3) 0.9092(3) 0.09533(18)
H21_5 H 0.429658 0.912605 0.073445
C49_5 C 0.4060(2) 0.8839(2) 0.1051(3)
C50_5 C 0.40019(18) 0.8788(2) 0.1379(3)
H22_5 H 0.386983 0.861841 0.144423
C51_5 C 0.4141(2) 0.8991(3) 0.16073(19)
H23_5 H 0.410183 0.895734 0.182612
C52_5 C 0.4338(2) 0.9245(2) 0.1509(3)
C53_5 C 0.43965(19) 0.92953(19) 0.1182(3)
H24_5 H 0.452857 0.946498 0.111634
O12_3 O 0.25259(11) 0.59372(12) 0.02961(12)
Zr4_4 Zr 0.45744(2) 0.95744(2) 0.250000
Zr1_4 Zr 0.54256(2) 0.95744(2) 0.750000
O2_5 O 0.56284(15) 0.93778(14) 0.79320(12)
O3_4 O 0.53151(12) 0.96707(13) 0.83718(14)
C1_8 C 0.7444(3) 0.6038(4) 1.000000
C2_8 C 0.7330(4) 0.6362(6) 1.000000
C3_5 C 0.5532(3) 0.9430(3) 0.8221(4)
C4_5 C 0.7248(3) 0.6536(3) 0.9719(3)
H1_5 H 0.728785 0.643525 0.952172
C5_8 C 0.6577(5) 0.7871(6) 1.000000
C6_8 C 0.7042(4) 0.7015(4) 1.000000
C7_5 C 0.6479(3) 0.8016(3) 0.9716(3)
H2_5 H 0.653524 0.791572 0.952245
C8_5 C 0.7111(3) 0.6852(4) 0.9708(2)
H3_5 H 0.706821 0.695016 0.951064
C9_5 C 0.6299(3) 0.8309(4) 0.9699(3)
C10_8 C 0.6220(4) 0.8439(4) 1.000000
H4_8 H 0.610247 0.863041 1.000001
C11_8 C 0.6894(5) 0.7337(6) 1.000000
C12_8 C 0.6754(5) 0.7573(6) 1.000000
C13_5 C 0.6186(4) 0.8488(3) 0.9403(3)
C14_5 C 0.6087(4) 0.8634(3) 0.9180(3)
C15_5 C 0.5742(3) 0.9092(3) 0.90467(18)
H5_5 H 0.570342 0.912605 0.926555
C16_5 C 0.5940(2) 0.8839(2) 0.8949(3)
C17_5 C 0.59981(18) 0.8788(2) 0.8621(3)
H6_5 H 0.613017 0.861841 0.855577
C18_5 C 0.5859(2) 0.8991(3) 0.83927(19)
H7_5 H 0.589817 0.895734 0.817388
C19_5 C 0.5662(2) 0.9245(2) 0.8491(3)
C20_5 C 0.56035(19) 0.92953(19) 0.8818(3)
H8_5 H 0.547143 0.946498 0.888366
O4_8 O 0.54786(10) 1.000000 0.78387(11)
H9_11 H 0.567440 1.000000 0.796970
O5_8 O 0.500000 0.96348(11) 0.77557(11)
C34_8 C 0.2556(3) 0.6038(4) 1.000000
C35_8 C 0.2670(4) 0.6362(6) 1.000000
C38_8 C 0.3423(5) 0.7871(6) 1.000000
C39_8 C 0.2958(4) 0.7015(4) 1.000000
C43_8 C 0.3780(4) 0.8439(4) 1.000000
H20_8 H 0.389753 0.863041 0.999999
C44_8 C 0.3106(5) 0.7337(6) 1.000000
C45_8 C 0.3246(5) 0.7573(6) 1.000000
O13_4 O 0.43716(15) 0.93778(14) 0.79320(12)
O14_4 O 0.46849(12) 0.96707(13) 0.83718(14)
C54_5 C 0.4468(3) 0.9430(3) 0.8221(4)
C55_5 C 0.2752(3) 0.6536(3) 0.9719(3)
H25_5 H 0.271215 0.643525 0.952172
C56_5 C 0.3521(3) 0.8016(3) 0.9716(3)
H26_5 H 0.346476 0.791572 0.952245
C57_5 C 0.2889(3) 0.6852(4) 0.9708(2)
H27_5 H 0.293179 0.695016 0.951064
C58_5 C 0.3701(3) 0.8309(4) 0.9699(3)
C59_5 C 0.3814(4) 0.8488(3) 0.9403(3)
C60_5 C 0.3913(4) 0.8634(3) 0.9180(3)
C61_5 C 0.4258(3) 0.9092(3) 0.90467(18)
H28_5 H 0.429658 0.912605 0.926555
C62_5 C 0.4060(2) 0.8839(2) 0.8949(3)
C63_5 C 0.40019(18) 0.8788(2) 0.8621(3)
H29_5 H 0.386983 0.861841 0.855577
C64_5 C 0.4141(2) 0.8991(3) 0.83927(19)
H30_5 H 0.410183 0.895734 0.817388
C65_5 C 0.4338(2) 0.9245(2) 0.8491(3)
C66_5 C 0.43965(19) 0.92953(19) 0.8818(3)
H31_5 H 0.452857 0.946498 0.888366
O15_8 O 0.500000 0.95214(10) 0.71613(11)
H32_10 H 0.500000 0.932560 0.703030
O16_9 O 0.53652(11) 1.000000 0.72443(11)
Zr9_4 Zr 0.45744(2) 0.95744(2) 0.750000
O18_6 O 0.52961(12) 0.90628(12) 0.75259(11)
O19_7 O 0.59372(12) 0.97039(12) 0.74741(11)
O20_7 O 0.56222(14) 0.93716(15) 0.70680(12)
Zr12_12 Zr 0.500000 1.000000 0.68991(3)
O26_10 O 0.45214(10) 1.000000 0.78387(11)
O23_6 O 0.03293(13) 0.16282(14) 0.53151(12)
O24_6 O 0.03293(13) 0.16282(14) 0.46849(12)
O3_5 O 0.96707(13) 0.16282(14) 0.46849(12)
C1_9 C 0.6038(4) 0.000000 0.2556(3)
C2_9 C 0.6362(6) 0.000000 0.2670(4)
C3_6 C 0.9430(3) 0.1779(4) 0.4468(3)
C4_6 C 0.6536(3) 0.0281(3) 0.2752(3)
H1_6 H 0.643525 0.047828 0.271215
C5_9 C 0.7871(6) 0.000000 0.3423(5)
C6_9 C 0.7015(4) 0.000000 0.2958(4)
C7_6 C 0.8016(3) 0.0284(3) 0.3521(3)
H2_6 H 0.791572 0.047755 0.346476
C8_6 C 0.6852(4) 0.0292(2) 0.2889(3)
H3_6 H 0.695016 0.048936 0.293179
C9_6 C 0.8309(4) 0.0301(3) 0.3701(3)
C10_9 C 0.8439(4) 0.000000 0.3780(4)
H4_9 H 0.863041 -0.000001 0.389753
C11_9 C 0.7337(6) 0.000000 0.3106(5)
C12_9 C 0.7573(6) 0.000000 0.3246(5)
C13_6 C 0.8488(3) 0.0597(3) 0.3814(4)
C14_6 C 0.8634(3) 0.0820(3) 0.3913(4)
C15_6 C 0.9092(3) 0.09533(18) 0.4258(3)
H5_6 H 0.912605 0.073445 0.429658
C16_6 C 0.8839(2) 0.1051(3) 0.4060(2)
C17_6 C 0.8788(2) 0.1379(3) 0.40019(18)
H6_6 H 0.861841 0.144423 0.386983
C18_6 C 0.8991(3) 0.16073(19) 0.4141(2)
H7_6 H 0.895734 0.182612 0.410183
C19_6 C 0.9245(2) 0.1509(3) 0.4338(2)
C20_6 C 0.92953(19) 0.1182(3) 0.43965(19)
H8_6 H 0.946498 0.111634 0.452857
O9_3 O 0.59372(12) 0.02961(12) 0.74741(11)
C34_9 C 0.6038(4) 0.000000 0.7444(3)
C35_9 C 0.6362(6) 0.000000 0.7330(4)
C38_9 C 0.7871(6) 0.000000 0.6577(5)
C39_9 C 0.7015(4) 0.000000 0.7042(4)
C43_9 C 0.8439(4) 0.000000 0.6220(4)
H20_9 H 0.863041 0.000001 0.610247
C44_9 C 0.7337(6) 0.000000 0.6894(5)
C45_9 C 0.7573(6) 0.000000 0.6754(5)
O14_5 O 0.96707(13) 0.16282(14) 0.53151(12)
C54_6 C 0.9430(3) 0.1779(4) 0.5532(3)
C55_6 C 0.6536(3) 0.0281(3) 0.7248(3)
H25_6 H 0.643525 0.047828 0.728785
C56_6 C 0.8016(3) 0.0284(3) 0.6479(3)
H26_6 H 0.791572 0.047755 0.653524
C57_6 C 0.6852(4) 0.0292(2) 0.7111(3)
H27_6 H 0.695016 0.048936 0.706821
C58_6 C 0.8309(4) 0.0301(3) 0.6299(3)
C59_6 C 0.8488(3) 0.0597(3) 0.6186(4)
C60_6 C 0.8634(3) 0.0820(3) 0.6087(4)
C61_6 C 0.9092(3) 0.09533(18) 0.5742(3)
H28_6 H 0.912605 0.073445 0.570342
C62_6 C 0.8839(2) 0.1051(3) 0.5940(2)
C63_6 C 0.8788(2) 0.1379(3) 0.59981(18)
H29_6 H 0.861841 0.144423 0.613017
C64_6 C 0.8991(3) 0.16073(19) 0.5859(2)
H30_6 H 0.895734 0.182612 0.589817
C65_6 C 0.9245(2) 0.1509(3) 0.5662(2)
C66_6 C 0.92953(19) 0.1182(3) 0.56035(19)
H31_6 H 0.946498 0.111634 0.547143
O1_5 O 0.59372(12) 0.97039(12) 0.25259(11)
C1_10 C 0.6038(4) 1.000000 0.2556(3)
C2_10 C 0.6362(6) 1.000000 0.2670(4)
C5_10 C 0.7871(6) 1.000000 0.3423(5)
C6_10 C 0.7015(4) 1.000000 0.2958(4)
C10_10 C 0.8439(4) 1.000000 0.3780(4)
H4_10 H 0.863041 0.999999 0.389753
C11_10 C 0.7337(6) 1.000000 0.3106(5)
C12_10 C 0.7573(6) 1.000000 0.3246(5)
O7_5 O 0.93778(14) 0.79320(12) 0.43716(15)
O8_4 O 0.96707(13) 0.83718(14) 0.46849(12)
C21_6 C 0.9430(3) 0.8221(4) 0.4468(3)
C22_6 C 0.6536(3) 0.9719(3) 0.2752(3)
H10_6 H 0.643525 0.952172 0.271215
C23_6 C 0.8016(3) 0.9716(3) 0.3521(3)
H11_6 H 0.791572 0.952245 0.346476
C24_6 C 0.6852(4) 0.9708(2) 0.2889(3)
H12_6 H 0.695016 0.951064 0.293179
C25_6 C 0.8309(4) 0.9699(3) 0.3701(3)
C26_6 C 0.8488(3) 0.9403(3) 0.3814(4)
C27_6 C 0.8634(3) 0.9180(3) 0.3913(4)
C28_6 C 0.9092(3) 0.90467(18) 0.4258(3)
H13_6 H 0.912605 0.926555 0.429658
C29_6 C 0.8839(2) 0.8949(3) 0.4060(2)
C30_6 C 0.8788(2) 0.8621(3) 0.40019(18)
H14_6 H 0.861841 0.855577 0.386983
C31_6 C 0.8991(3) 0.83927(19) 0.4141(2)
H15_6 H 0.895734 0.817388 0.410183
C32_6 C 0.9245(2) 0.8491(3) 0.4338(2)
C33_6 C 0.92953(19) 0.8818(3) 0.43965(19)
H16_6 H 0.946498 0.888366 0.452857
O10_6 O 0.93778(14) 0.79320(12) 0.56284(15)
O11_4 O 0.96707(13) 0.83718(14) 0.53151(12)
C34_10 C 0.6038(4) 1.000000 0.7444(3)
C35_10 C 0.6362(6) 1.000000 0.7330(4)
C36_6 C 0.9430(3) 0.8221(4) 0.5532(3)
C37_6 C 0.6536(3) 0.9719(3) 0.7248(3)
H17_6 H 0.643525 0.952172 0.728785
C38_10 C 0.7871(6) 1.000000 0.6577(5)
C39_10 C 0.7015(4) 1.000000 0.7042(4)
C40_6 C 0.8016(3) 0.9716(3) 0.6479(3)
H18_6 H 0.791572 0.952245 0.653524
C41_6 C 0.6852(4) 0.9708(2) 0.7111(3)
H19_6 H 0.695016 0.951064 0.706821
C42_6 C 0.8309(4) 0.9699(3) 0.6299(3)
C43_10 C 0.8439(4) 1.000000 0.6220(4)
H20_10 H 0.863041 1.000001 0.610247
C44_10 C 0.7337(6) 1.000000 0.6894(5)
C45_10 C 0.7573(6) 1.000000 0.6754(5)
C46_6 C 0.8488(3) 0.9403(3) 0.6186(4)
C47_6 C 0.8634(3) 0.9180(3) 0.6087(4)
C48_6 C 0.9092(3) 0.90467(18) 0.5742(3)
H21_6 H 0.912605 0.926555 0.570342
C49_6 C 0.8839(2) 0.8949(3) 0.5940(2)
C50_6 C 0.8788(2) 0.8621(3) 0.59981(18)
H22_6 H 0.861841 0.855577 0.613017
C51_6 C 0.8991(3) 0.83927(19) 0.5859(2)
H23_6 H 0.895734 0.817388 0.589817
C52_6 C 0.9245(2) 0.8491(3) 0.5662(2)
C53_6 C 0.92953(19) 0.8818(3) 0.56035(19)
H24_6 H 0.946498 0.888366 0.547143
O17_7 O 0.52961(12) 0.90628(12) 0.24741(11)
O21_6 O 0.56222(14) 0.93716(15) 0.29320(12)
O25_3 O 0.500000 0.95214(10) 0.28387(11)
H32_11 H 0.000000 0.796970 0.567440
H9_12 H 0.932560 0.703030 0.500000
H32_12 H 1.000000 0.796970 0.567440
O16_10 O 0.96348(11) 0.77557(11) 0.500000
O19_8 O 0.90628(12) 0.75259(11) 0.52961(12)
C1_11 C 0.3962(4) 0.000000 0.7444(3)
C2_11 C 0.3638(6) 0.000000 0.7330(4)
C3_7 C 0.0570(3) 0.1779(4) 0.5532(3)
C4_7 C 0.3464(3) 0.0281(3) 0.7248(3)
H1_7 H 0.356475 0.047828 0.728785
C5_11 C 0.2129(6) 0.000000 0.6577(5)
C6_11 C 0.2985(4) 0.000000 0.7042(4)
C7_7 C 0.1984(3) 0.0284(3) 0.6479(3)
H2_7 H 0.208428 0.047755 0.653524
C8_7 C 0.3148(4) 0.0292(2) 0.7111(3)
H3_7 H 0.304984 0.048936 0.706821
C9_7 C 0.1691(4) 0.0301(3) 0.6299(3)
C10_11 C 0.1561(4) 0.000000 0.6220(4)
H4_11 H 0.136959 -0.000001 0.610247
C11_11 C 0.2663(6) 0.000000 0.6894(5)
C12_11 C 0.2427(6) 0.000000 0.6754(5)
C13_7 C 0.1512(3) 0.0597(3) 0.6186(4)
C14_7 C 0.1366(3) 0.0820(3) 0.6087(4)
C15_7 C 0.0908(3) 0.09533(18) 0.5742(3)
H5_7 H 0.087395 0.073445 0.570342
C16_7 C 0.1161(2) 0.1051(3) 0.5940(2)
C17_7 C 0.1212(2) 0.1379(3) 0.59981(18)
H6_7 H 0.138159 0.144423 0.613017
C18_7 C 0.1009(3) 0.16073(19) 0.5859(2)
H7_7 H 0.104266 0.182612 0.589817
C19_7 C 0.0755(2) 0.1509(3) 0.5662(2)
C20_7 C 0.07047(19) 0.1182(3) 0.56035(19)
H8_7 H 0.053502 0.111634 0.547143
O6_4 O 0.40628(12) 0.02961(12) 0.74741(11)
O9_4 O 0.40628(12) 0.02961(12) 0.25259(11)
C34_11 C 0.3962(4) 0.000000 0.2556(3)
C35_11 C 0.3638(6) 0.000000 0.2670(4)
C38_11 C 0.2129(6) 0.000000 0.3423(5)
C39_11 C 0.2985(4) 0.000000 0.2958(4)
C43_11 C 0.1561(4) 0.000000 0.3780(4)
H20_11 H 0.136959 0.000001 0.389753
C44_11 C 0.2663(6) 0.000000 0.3106(5)
C45_11 C 0.2427(6) 0.000000 0.3246(5)
O13_5 O 0.06222(14) 0.20680(12) 0.43716(15)
C54_7 C 0.0570(3) 0.1779(4) 0.4468(3)
C55_7 C 0.3464(3) 0.0281(3) 0.2752(3)
H25_7 H 0.356475 0.047828 0.271215
C56_7 C 0.1984(3) 0.0284(3) 0.3521(3)
H26_7 H 0.208428 0.047755 0.346476
C57_7 C 0.3148(4) 0.0292(2) 0.2889(3)
H27_7 H 0.304984 0.048936 0.293179
C58_7 C 0.1691(4) 0.0301(3) 0.3701(3)
C59_7 C 0.1512(3) 0.0597(3) 0.3814(4)
C60_7 C 0.1366(3) 0.0820(3) 0.3913(4)
C61_7 C 0.0908(3) 0.09533(18) 0.4258(3)
H28_7 H 0.087395 0.073445 0.429658
C62_7 C 0.1161(2) 0.1051(3) 0.4060(2)
C63_7 C 0.1212(2) 0.1379(3) 0.40019(18)
H29_7 H 0.138159 0.144423 0.386983
C64_7 C 0.1009(3) 0.16073(19) 0.4141(2)
H30_7 H 0.104266 0.182612 0.410183
C65_7 C 0.0755(2) 0.1509(3) 0.4338(2)
C66_7 C 0.07047(19) 0.1182(3) 0.43965(19)
H31_7 H 0.053502 0.111634 0.452857
O30_4 O 0.46348(11) 0.000000 0.72443(11)
O1_6 O 0.40628(12) 0.97039(12) 0.74741(11)
C1_12 C 0.3962(4) 1.000000 0.7444(3)
C2_12 C 0.3638(6) 1.000000 0.7330(4)
C5_12 C 0.2129(6) 1.000000 0.6577(5)
C6_12 C 0.2985(4) 1.000000 0.7042(4)
C10_12 C 0.1561(4) 1.000000 0.6220(4)
H4_12 H 0.136959 0.999999 0.610247
C11_12 C 0.2663(6) 1.000000 0.6894(5)
C12_12 C 0.2427(6) 1.000000 0.6754(5)
O8_5 O 0.03293(13) 0.83718(14) 0.53151(12)
C21_7 C 0.0570(3) 0.8221(4) 0.5532(3)
C22_7 C 0.3464(3) 0.9719(3) 0.7248(3)
H10_7 H 0.356475 0.952172 0.728785
C23_7 C 0.1984(3) 0.9716(3) 0.6479(3)
H11_7 H 0.208428 0.952245 0.653524
C24_7 C 0.3148(4) 0.9708(2) 0.7111(3)
H12_7 H 0.304984 0.951064 0.706821
C25_7 C 0.1691(4) 0.9699(3) 0.6299(3)
C26_7 C 0.1512(3) 0.9403(3) 0.6186(4)
C27_7 C 0.1366(3) 0.9180(3) 0.6087(4)
C28_7 C 0.0908(3) 0.90467(18) 0.5742(3)
H13_7 H 0.087395 0.926555 0.570342
C29_7 C 0.1161(2) 0.8949(3) 0.5940(2)
C30_7 C 0.1212(2) 0.8621(3) 0.59981(18)
H14_7 H 0.138159 0.855577 0.613017
C31_7 C 0.1009(3) 0.83927(19) 0.5859(2)
H15_7 H 0.104266 0.817388 0.589817
C32_7 C 0.0755(2) 0.8491(3) 0.5662(2)
C33_7 C 0.07047(19) 0.8818(3) 0.56035(19)
H16_7 H 0.053502 0.888366 0.547143
O11_5 O 0.03293(13) 0.83718(14) 0.46849(12)
C34_12 C 0.3962(4) 1.000000 0.2556(3)
C35_12 C 0.3638(6) 1.000000 0.2670(4)
C36_7 C 0.0570(3) 0.8221(4) 0.4468(3)
C37_7 C 0.3464(3) 0.9719(3) 0.2752(3)
H17_7 H 0.356475 0.952172 0.271215
C38_12 C 0.2129(6) 1.000000 0.3423(5)
C39_12 C 0.2985(4) 1.000000 0.2958(4)
C40_7 C 0.1984(3) 0.9716(3) 0.3521(3)
H18_7 H 0.208428 0.952245 0.346476
C41_7 C 0.3148(4) 0.9708(2) 0.2889(3)
H19_7 H 0.304984 0.951064 0.293179
C42_7 C 0.1691(4) 0.9699(3) 0.3701(3)
C43_12 C 0.1561(4) 1.000000 0.3780(4)
H20_12 H 0.136959 1.000001 0.389753
C44_12 C 0.2663(6) 1.000000 0.3106(5)
C45_12 C 0.2427(6) 1.000000 0.3246(5)
C46_7 C 0.1512(3) 0.9403(3) 0.3814(4)
C47_7 C 0.1366(3) 0.9180(3) 0.3913(4)
C48_7 C 0.0908(3) 0.90467(18) 0.4258(3)
H21_7 H 0.087395 0.926555 0.429658
C49_7 C 0.1161(2) 0.8949(3) 0.4060(2)
C50_7 C 0.1212(2) 0.8621(3) 0.40019(18)
H22_7 H 0.138159 0.855577 0.386983
C51_7 C 0.1009(3) 0.83927(19) 0.4141(2)
H23_7 H 0.104266 0.817388 0.410183
C52_7 C 0.0755(2) 0.8491(3) 0.4338(2)
C53_7 C 0.07047(19) 0.8818(3) 0.43965(19)
H24_7 H 0.053502 0.888366 0.452857
O12_4 O 0.40628(12) 0.97039(12) 0.25259(11)
O17_8 O 0.47039(12) 0.90628(12) 0.75259(11)
O21_7 O 0.43778(14) 0.93716(15) 0.70680(12)
O30_5 O 0.46348(11) 1.000000 0.72443(11)
O1_7 O 0.09372(12) 0.24741(11) 0.47039(12)
O2_6 O 0.43778(14) 0.06284(15) 0.70680(12)
O3_6 O 0.46707(13) 0.03151(12) 0.66282(14)
C1_13 C 0.1038(4) 0.2444(3) 0.500000
C2_13 C 0.1362(6) 0.2330(4) 0.500000
C3_8 C 0.4430(3) 0.0532(3) 0.6779(4)
C4_8 C 0.1536(3) 0.2248(3) 0.5281(3)
H1_8 H 0.143525 0.228785 0.547828
C5_13 C 0.2871(6) 0.1577(5) 0.500000
C6_13 C 0.2015(4) 0.2042(4) 0.500000
C7_8 C 0.3016(3) 0.1479(3) 0.5284(3)
H2_8 H 0.291572 0.153524 0.547755
C8_8 C 0.1852(4) 0.2111(3) 0.5292(2)
H3_8 H 0.195016 0.206821 0.548936
C9_8 C 0.3309(4) 0.1299(3) 0.5301(3)
C10_13 C 0.3439(4) 0.1220(4) 0.500000
H4_13 H 0.363041 0.110247 0.499999
C11_13 C 0.2337(6) 0.1894(5) 0.500000
C12_13 C 0.2573(6) 0.1754(5) 0.500000
C13_8 C 0.3488(3) 0.1186(4) 0.5597(3)
C14_8 C 0.3634(3) 0.1087(4) 0.5820(3)
C15_8 C 0.4092(3) 0.0742(3) 0.59533(18)
H5_8 H 0.412605 0.070342 0.573445
C16_8 C 0.3839(2) 0.0940(2) 0.6051(3)
C17_8 C 0.3788(2) 0.09981(18) 0.6379(3)
H6_8 H 0.361841 0.113017 0.644423
C18_8 C 0.3991(3) 0.0859(2) 0.66073(19)
H7_8 H 0.395734 0.089817 0.682612
C19_8 C 0.4245(2) 0.0662(2) 0.6509(3)
C20_8 C 0.42953(19) 0.06035(19) 0.6182(3)
H8_8 H 0.446498 0.047143 0.611634
O4_9 O 0.500000 0.04786(10) 0.71613(11)
H9_13 H 0.500000 0.067440 0.703030
O7_6 O 0.43778(14) 0.06284(15) 0.29320(12)
O8_6 O 0.46707(13) 0.03151(12) 0.33718(14)
C21_8 C 0.4430(3) 0.0532(3) 0.3221(4)
C22_8 C 0.1536(3) 0.2248(3) 0.4719(3)
H10_8 H 0.143525 0.228785 0.452172
C23_8 C 0.3016(3) 0.1479(3) 0.4716(3)
H11_8 H 0.291572 0.153524 0.452245
C24_8 C 0.1852(4) 0.2111(3) 0.4708(2)
H12_8 H 0.195016 0.206821 0.451064
C25_8 C 0.3309(4) 0.1299(3) 0.4699(3)
C26_8 C 0.3488(3) 0.1186(4) 0.4403(3)
C27_8 C 0.3634(3) 0.1087(4) 0.4180(3)
C28_8 C 0.4092(3) 0.0742(3) 0.40467(18)
H13_8 H 0.412605 0.070342 0.426555
C29_8 C 0.3839(2) 0.0940(2) 0.3949(3)
C30_8 C 0.3788(2) 0.09981(18) 0.3621(3)
H14_8 H 0.361841 0.113017 0.355577
C31_8 C 0.3991(3) 0.0859(2) 0.33927(19)
H15_8 H 0.395734 0.089817 0.317388
C32_8 C 0.4245(2) 0.0662(2) 0.3491(3)
C33_8 C 0.42953(19) 0.06035(19) 0.3818(3)
H16_8 H 0.446498 0.047143 0.388366
H32_13 H 0.432560 0.000000 0.796970
O17_9 O 0.02961(12) 0.25259(11) 0.40628(12)
O19_9 O 0.47039(12) 0.09372(12) 0.75259(11)
O24_7 O 0.53293(13) 0.03151(12) 0.66282(14)
O10_7 O 0.43778(14) 0.93716(15) 0.29320(12)
O11_6 O 0.46707(13) 0.96849(12) 0.33718(14)
C34_13 C 0.1038(4) 0.7556(3) 0.500000
C35_13 C 0.1362(6) 0.7670(4) 0.500000
C36_8 C 0.4430(3) 0.9468(3) 0.3221(4)
C37_8 C 0.1536(3) 0.7752(3) 0.4719(3)
H17_8 H 0.143525 0.771215 0.452172
C38_13 C 0.2871(6) 0.8423(5) 0.500000
C39_13 C 0.2015(4) 0.7958(4) 0.500000
C40_8 C 0.3016(3) 0.8521(3) 0.4716(3)
H18_8 H 0.291572 0.846476 0.452245
C41_8 C 0.1852(4) 0.7889(3) 0.4708(2)
H19_8 H 0.195016 0.793179 0.451064
C42_8 C 0.3309(4) 0.8701(3) 0.4699(3)
C43_13 C 0.3439(4) 0.8780(4) 0.500000
H20_13 H 0.363041 0.889753 0.500001
C44_13 C 0.2337(6) 0.8106(5) 0.500000
C45_13 C 0.2573(6) 0.8246(5) 0.500000
C46_8 C 0.3488(3) 0.8814(4) 0.4403(3)
C47_8 C 0.3634(3) 0.8913(4) 0.4180(3)
C48_8 C 0.4092(3) 0.9258(3) 0.40467(18)
H21_8 H 0.412605 0.929658 0.426555
C49_8 C 0.3839(2) 0.9060(2) 0.3949(3)
C50_8 C 0.3788(2) 0.90019(18) 0.3621(3)
H22_8 H 0.361841 0.886983 0.355577
C51_8 C 0.3991(3) 0.9141(2) 0.33927(19)
H23_8 H 0.395734 0.910183 0.317388
C52_8 C 0.4245(2) 0.9338(2) 0.3491(3)
C53_8 C 0.42953(19) 0.93965(19) 0.3818(3)
H24_8 H 0.446498 0.952857 0.388366
O14_6 O 0.46707(13) 0.96849(12) 0.66282(14)
C54_8 C 0.4430(3) 0.9468(3) 0.6779(4)
C55_8 C 0.1536(3) 0.7752(3) 0.5281(3)
H25_8 H 0.143525 0.771215 0.547828
C56_8 C 0.3016(3) 0.8521(3) 0.5284(3)
H26_8 H 0.291572 0.846476 0.547755
C57_8 C 0.1852(4) 0.7889(3) 0.5292(2)
H27_8 H 0.195016 0.793179 0.548936
C58_8 C 0.3309(4) 0.8701(3) 0.5301(3)
C59_8 C 0.3488(3) 0.8814(4) 0.5597(3)
C60_8 C 0.3634(3) 0.8913(4) 0.5820(3)
C61_8 C 0.4092(3) 0.9258(3) 0.59533(18)
H28_8 H 0.412605 0.929658 0.573445
C62_8 C 0.3839(2) 0.9060(2) 0.6051(3)
C63_8 C 0.3788(2) 0.90019(18) 0.6379(3)
H29_8 H 0.361841 0.886983 0.644423
C64_8 C 0.3991(3) 0.9141(2) 0.66073(19)
H30_8 H 0.395734 0.910183 0.682612
C65_8 C 0.4245(2) 0.9338(2) 0.6509(3)
C66_8 C 0.42953(19) 0.93965(19) 0.6182(3)
H31_8 H 0.446498 0.952857 0.611634
H32_14 H 0.432560 1.000000 0.796970
O23_7 O 0.53293(13) 0.96849(12) 0.66282(14)
O1_8 O 0.47039(12) 0.09372(12) 0.24741(11)
O2_7 O 0.70680(12) 0.43778(14) 0.06284(15)
O3_7 O 0.66282(14) 0.46707(13) 0.03151(12)
C1_14 C 0.500000 0.1038(4) 0.2444(3)
C2_14 C 0.500000 0.1362(6) 0.2330(4)
C3_9 C 0.6779(4) 0.4430(3) 0.0532(3)
C4_9 C 0.5281(3) 0.1536(3) 0.2248(3)
H1_9 H 0.547828 0.143525 0.228785
C5_14 C 0.500000 0.2871(6) 0.1577(5)
C6_14 C 0.500000 0.2015(4) 0.2042(4)
C7_9 C 0.5284(3) 0.3016(3) 0.1479(3)
H2_9 H 0.547755 0.291572 0.153524
C8_9 C 0.5292(2) 0.1852(4) 0.2111(3)
H3_9 H 0.548936 0.195016 0.206821
C9_9 C 0.5301(3) 0.3309(4) 0.1299(3)
C10_14 C 0.500000 0.3439(4) 0.1220(4)
H4_14 H 0.499999 0.363041 0.110247
C11_14 C 0.500000 0.2337(6) 0.1894(5)
C12_14 C 0.500000 0.2573(6) 0.1754(5)
C13_9 C 0.5597(3) 0.3488(3) 0.1186(4)
C14_9 C 0.5820(3) 0.3634(3) 0.1087(4)
C15_9 C 0.59533(18) 0.4092(3) 0.0742(3)
H5_9 H 0.573445 0.412605 0.070342
C16_9 C 0.6051(3) 0.3839(2) 0.0940(2)
C17_9 C 0.6379(3) 0.3788(2) 0.09981(18)
H6_9 H 0.644423 0.361841 0.113017
C18_9 C 0.66073(19) 0.3991(3) 0.0859(2)
H7_9 H 0.682612 0.395734 0.089817
C19_9 C 0.6509(3) 0.4245(2) 0.0662(2)
C20_9 C 0.6182(3) 0.42953(19) 0.06035(19)
H8_9 H 0.611634 0.446498 0.047143
H9_14 H 0.703030 0.500000 0.067440
O8_7 O 0.33718(14) 0.46707(13) 0.03151(12)
C21_9 C 0.3221(4) 0.4430(3) 0.0532(3)
C22_9 C 0.4719(3) 0.1536(3) 0.2248(3)
H10_9 H 0.452172 0.143525 0.228785
C23_9 C 0.4716(3) 0.3016(3) 0.1479(3)
H11_9 H 0.452245 0.291572 0.153524
C24_9 C 0.4708(2) 0.1852(4) 0.2111(3)
H12_9 H 0.451064 0.195016 0.206821
C25_9 C 0.4699(3) 0.3309(4) 0.1299(3)
C26_9 C 0.4403(3) 0.3488(3) 0.1186(4)
C27_9 C 0.4180(3) 0.3634(3) 0.1087(4)
C28_9 C 0.40467(18) 0.4092(3) 0.0742(3)
H13_9 H 0.426555 0.412605 0.070342
C29_9 C 0.3949(3) 0.3839(2) 0.0940(2)
C30_9 C 0.3621(3) 0.3788(2) 0.09981(18)
H14_9 H 0.355577 0.361841 0.113017
C31_9 C 0.33927(19) 0.3991(3) 0.0859(2)
H15_9 H 0.317388 0.395734 0.089817
C32_9 C 0.3491(3) 0.4245(2) 0.0662(2)
C33_9 C 0.3818(3) 0.42953(19) 0.06035(19)
H16_9 H 0.388366 0.446498 0.047143
H32_15 H 0.796970 0.432560 0.000000
O20_8 O 0.79320(12) 0.43716(15) 0.06222(14)
O24_8 O 0.66282(14) 0.53293(13) 0.03151(12)
O29_5 O 0.46348(11) 0.000000 0.27557(11)
O9_5 O 0.52961(12) 0.09372(12) 0.75259(11)
O11_7 O 0.33718(14) 0.46707(13) 0.96849(12)
C34_14 C 0.500000 0.1038(4) 0.7556(3)
C35_14 C 0.500000 0.1362(6) 0.7670(4)
C36_9 C 0.3221(4) 0.4430(3) 0.9468(3)
C37_9 C 0.4719(3) 0.1536(3) 0.7752(3)
H17_9 H 0.452172 0.143525 0.771215
C38_14 C 0.500000 0.2871(6) 0.8423(5)
C39_14 C 0.500000 0.2015(4) 0.7958(4)
C40_9 C 0.4716(3) 0.3016(3) 0.8521(3)
H18_9 H 0.452245 0.291572 0.846476
C41_9 C 0.4708(2) 0.1852(4) 0.7889(3)
H19_9 H 0.451064 0.195016 0.793179
C42_9 C 0.4699(3) 0.3309(4) 0.8701(3)
C43_14 C 0.500000 0.3439(4) 0.8780(4)
H20_14 H 0.500001 0.363041 0.889753
C44_14 C 0.500000 0.2337(6) 0.8106(5)
C45_14 C 0.500000 0.2573(6) 0.8246(5)
C46_9 C 0.4403(3) 0.3488(3) 0.8814(4)
C47_9 C 0.4180(3) 0.3634(3) 0.8913(4)
C48_9 C 0.40467(18) 0.4092(3) 0.9258(3)
H21_9 H 0.426555 0.412605 0.929658
C49_9 C 0.3949(3) 0.3839(2) 0.9060(2)
C50_9 C 0.3621(3) 0.3788(2) 0.90019(18)
H22_9 H 0.355577 0.361841 0.886983
C51_9 C 0.33927(19) 0.3991(3) 0.9141(2)
H23_9 H 0.317388 0.395734 0.910183
C52_9 C 0.3491(3) 0.4245(2) 0.9338(2)
C53_9 C 0.3818(3) 0.42953(19) 0.93965(19)
H24_9 H 0.388366 0.446498 0.952857
O14_7 O 0.66282(14) 0.46707(13) 0.96849(12)
C54_9 C 0.6779(4) 0.4430(3) 0.9468(3)
C55_9 C 0.5281(3) 0.1536(3) 0.7752(3)
H25_9 H 0.547828 0.143525 0.771215
C56_9 C 0.5284(3) 0.3016(3) 0.8521(3)
H26_9 H 0.547755 0.291572 0.846476
C57_9 C 0.5292(2) 0.1852(4) 0.7889(3)
H27_9 H 0.548936 0.195016 0.793179
C58_9 C 0.5301(3) 0.3309(4) 0.8701(3)
C59_9 C 0.5597(3) 0.3488(3) 0.8814(4)
C60_9 C 0.5820(3) 0.3634(3) 0.8913(4)
C61_9 C 0.59533(18) 0.4092(3) 0.9258(3)
H28_9 H 0.573445 0.412605 0.929658
C62_9 C 0.6051(3) 0.3839(2) 0.9060(2)
C63_9 C 0.6379(3) 0.3788(2) 0.90019(18)
H29_9 H 0.644423 0.361841 0.886983
C64_9 C 0.66073(19) 0.3991(3) 0.9141(2)
H30_9 H 0.682612 0.395734 0.910183
C65_9 C 0.6509(3) 0.4245(2) 0.9338(2)
C66_9 C 0.6182(3) 0.42953(19) 0.93965(19)
H31_9 H 0.611634 0.446498 0.952857
H32_16 H 0.796970 0.432560 1.000000
O23_8 O 0.66282(14) 0.53293(13) 0.96849(12)
O29_6 O 0.46348(11) 1.000000 0.27557(11)
O2_8 O 0.29320(12) 0.56222(14) 0.06284(15)
O3_8 O 0.33718(14) 0.53293(13) 0.03151(12)
C1_15 C 0.500000 0.8962(4) 0.2444(3)
C2_15 C 0.500000 0.8638(6) 0.2330(4)
C3_10 C 0.3221(4) 0.5570(3) 0.0532(3)
C4_10 C 0.4719(3) 0.8464(3) 0.2248(3)
H1_10 H 0.452172 0.856475 0.228785
C5_15 C 0.500000 0.7129(6) 0.1577(5)
C6_15 C 0.500000 0.7985(4) 0.2042(4)
C7_10 C 0.4716(3) 0.6984(3) 0.1479(3)
H2_10 H 0.452245 0.708428 0.153524
C8_10 C 0.4708(2) 0.8148(4) 0.2111(3)
H3_10 H 0.451064 0.804984 0.206821
C9_10 C 0.4699(3) 0.6691(4) 0.1299(3)
C10_15 C 0.500000 0.6561(4) 0.1220(4)
H4_15 H 0.500001 0.636959 0.110247
C11_15 C 0.500000 0.7663(6) 0.1894(5)
C12_15 C 0.500000 0.7427(6) 0.1754(5)
C13_10 C 0.4403(3) 0.6512(3) 0.1186(4)
C14_10 C 0.4180(3) 0.6366(3) 0.1087(4)
C15_10 C 0.40467(18) 0.5908(3) 0.0742(3)
H5_10 H 0.426555 0.587395 0.070342
C16_10 C 0.3949(3) 0.6161(2) 0.0940(2)
C17_10 C 0.3621(3) 0.6212(2) 0.09981(18)
H6_10 H 0.355577 0.638159 0.113017
C18_10 C 0.33927(19) 0.6009(3) 0.0859(2)
H7_10 H 0.317388 0.604266 0.089817
C19_10 C 0.3491(3) 0.5755(2) 0.0662(2)
C20_10 C 0.3818(3) 0.57047(19) 0.06035(19)
H8_10 H 0.388366 0.553502 0.047143
H9_15 H 0.296970 0.500000 0.067440
O6_5 O 0.47039(12) 0.90628(12) 0.24741(11)
C21_10 C 0.6779(4) 0.5570(3) 0.0532(3)
C22_10 C 0.5281(3) 0.8464(3) 0.2248(3)
H10_10 H 0.547828 0.856475 0.228785
C23_10 C 0.5284(3) 0.6984(3) 0.1479(3)
H11_10 H 0.547755 0.708428 0.153524
C24_10 C 0.5292(2) 0.8148(4) 0.2111(3)
H12_10 H 0.548936 0.804984 0.206821
C25_10 C 0.5301(3) 0.6691(4) 0.1299(3)
C26_10 C 0.5597(3) 0.6512(3) 0.1186(4)
C27_10 C 0.5820(3) 0.6366(3) 0.1087(4)
C28_10 C 0.59533(18) 0.5908(3) 0.0742(3)
H13_10 H 0.573445 0.587395 0.070342
C29_10 C 0.6051(3) 0.6161(2) 0.0940(2)
C30_10 C 0.6379(3) 0.6212(2) 0.09981(18)
H14_10 H 0.644423 0.638159 0.113017
C31_10 C 0.66073(19) 0.6009(3) 0.0859(2)
H15_10 H 0.682612 0.604266 0.089817
C32_10 C 0.6509(3) 0.5755(2) 0.0662(2)
C33_10 C 0.6182(3) 0.57047(19) 0.06035(19)
H16_10 H 0.611634 0.553502 0.047143
H32_17 H 0.203030 0.567440 0.000000
O20_9 O 0.20680(12) 0.56284(15) 0.06222(14)
C34_15 C 0.500000 0.8962(4) 0.7556(3)
C35_15 C 0.500000 0.8638(6) 0.7670(4)
C36_10 C 0.6779(4) 0.5570(3) 0.9468(3)
C37_10 C 0.5281(3) 0.8464(3) 0.7752(3)
H17_10 H 0.547828 0.856475 0.771215
C38_15 C 0.500000 0.7129(6) 0.8423(5)
C39_15 C 0.500000 0.7985(4) 0.7958(4)
C40_10 C 0.5284(3) 0.6984(3) 0.8521(3)
H18_10 H 0.547755 0.708428 0.846476
C41_10 C 0.5292(2) 0.8148(4) 0.7889(3)
H19_10 H 0.548936 0.804984 0.793179
C42_10 C 0.5301(3) 0.6691(4) 0.8701(3)
C43_15 C 0.500000 0.6561(4) 0.8780(4)
H20_15 H 0.499999 0.636959 0.889753
C44_15 C 0.500000 0.7663(6) 0.8106(5)
C45_15 C 0.500000 0.7427(6) 0.8246(5)
C46_10 C 0.5597(3) 0.6512(3) 0.8814(4)
C47_10 C 0.5820(3) 0.6366(3) 0.8913(4)
C48_10 C 0.59533(18) 0.5908(3) 0.9258(3)
H21_10 H 0.573445 0.587395 0.929658
C49_10 C 0.6051(3) 0.6161(2) 0.9060(2)
C50_10 C 0.6379(3) 0.6212(2) 0.90019(18)
H22_10 H 0.644423 0.638159 0.886983
C51_10 C 0.66073(19) 0.6009(3) 0.9141(2)
H23_10 H 0.682612 0.604266 0.910183
C52_10 C 0.6509(3) 0.5755(2) 0.9338(2)
C53_10 C 0.6182(3) 0.57047(19) 0.93965(19)
H24_10 H 0.611634 0.553502 0.952857
O14_8 O 0.33718(14) 0.53293(13) 0.96849(12)
C54_10 C 0.3221(4) 0.5570(3) 0.9468(3)
C55_10 C 0.4719(3) 0.8464(3) 0.7752(3)
H25_10 H 0.452172 0.856475 0.771215
C56_10 C 0.4716(3) 0.6984(3) 0.8521(3)
H26_10 H 0.452245 0.708428 0.846476
C57_10 C 0.4708(2) 0.8148(4) 0.7889(3)
H27_10 H 0.451064 0.804984 0.793179
C58_10 C 0.4699(3) 0.6691(4) 0.8701(3)
C59_10 C 0.4403(3) 0.6512(3) 0.8814(4)
C60_10 C 0.4180(3) 0.6366(3) 0.8913(4)
C61_10 C 0.40467(18) 0.5908(3) 0.9258(3)
H28_10 H 0.426555 0.587395 0.929658
C62_10 C 0.3949(3) 0.6161(2) 0.9060(2)
C63_10 C 0.3621(3) 0.6212(2) 0.90019(18)
H29_10 H 0.355577 0.638159 0.886983
C64_10 C 0.33927(19) 0.6009(3) 0.9141(2)
H30_10 H 0.317388 0.604266 0.910183
C65_10 C 0.3491(3) 0.5755(2) 0.9338(2)
C66_10 C 0.3818(3) 0.57047(19) 0.93965(19)
H31_10 H 0.388366 0.553502 0.952857
H32_18 H 0.203030 0.567440 1.000000
H32_19 H 0.432560 -0.000000 0.203030
O23_9 O 0.53293(13) 0.03151(12) 0.33718(14)
H9_16 H 0.500000 0.932560 0.296970
H32_20 H 0.432560 1.000000 0.203030
O24_9 O 0.53293(13) 0.96849(12) 0.33718(14)
O22_6 O 0.56222(14) 0.06284(15) 0.70680(12)
C34_16 C 0.8962(4) 0.2444(3) 0.500000
C35_16 C 0.8638(6) 0.2330(4) 0.500000
C36_11 C 0.5570(3) 0.0532(3) 0.3221(4)
C37_11 C 0.8464(3) 0.2248(3) 0.4719(3)
H17_11 H 0.856475 0.228785 0.452172
C38_16 C 0.7129(6) 0.1577(5) 0.500000
C39_16 C 0.7985(4) 0.2042(4) 0.500000
C40_11 C 0.6984(3) 0.1479(3) 0.4716(3)
H18_11 H 0.708428 0.153524 0.452245
C41_11 C 0.8148(4) 0.2111(3) 0.4708(2)
H19_11 H 0.804984 0.206821 0.451064
C42_11 C 0.6691(4) 0.1299(3) 0.4699(3)
C43_16 C 0.6561(4) 0.1220(4) 0.500000
H20_16 H 0.636959 0.110247 0.500001
C44_16 C 0.7663(6) 0.1894(5) 0.500000
C45_16 C 0.7427(6) 0.1754(5) 0.500000
C46_11 C 0.6512(3) 0.1186(4) 0.4403(3)
C47_11 C 0.6366(3) 0.1087(4) 0.4180(3)
C48_11 C 0.5908(3) 0.0742(3) 0.40467(18)
H21_11 H 0.587395 0.070342 0.426555
C49_11 C 0.6161(2) 0.0940(2) 0.3949(3)
C50_11 C 0.6212(2) 0.09981(18) 0.3621(3)
H22_11 H 0.638159 0.113017 0.355577
C51_11 C 0.6009(3) 0.0859(2) 0.33927(19)
H23_11 H 0.604266 0.089817 0.317388
C52_11 C 0.5755(2) 0.0662(2) 0.3491(3)
C53_11 C 0.57047(19) 0.06035(19) 0.3818(3)
H24_11 H 0.553502 0.047143 0.388366
C54_11 C 0.5570(3) 0.0532(3) 0.6779(4)
C55_11 C 0.8464(3) 0.2248(3) 0.5281(3)
H25_11 H 0.856475 0.228785 0.547828
C56_11 C 0.6984(3) 0.1479(3) 0.5284(3)
H26_11 H 0.708428 0.153524 0.547755
C57_11 C 0.8148(4) 0.2111(3) 0.5292(2)
H27_11 H 0.804984 0.206821 0.548936
C58_11 C 0.6691(4) 0.1299(3) 0.5301(3)
C59_11 C 0.6512(3) 0.1186(4) 0.5597(3)
C60_11 C 0.6366(3) 0.1087(4) 0.5820(3)
C61_11 C 0.5908(3) 0.0742(3) 0.59533(18)
H28_11 H 0.587395 0.070342 0.573445
C62_11 C 0.6161(2) 0.0940(2) 0.6051(3)
C63_11 C 0.6212(2) 0.09981(18) 0.6379(3)
H29_11 H 0.638159 0.113017 0.644423
C64_11 C 0.6009(3) 0.0859(2) 0.66073(19)
H30_11 H 0.604266 0.089817 0.682612
C65_11 C 0.5755(2) 0.0662(2) 0.6509(3)
C66_11 C 0.57047(19) 0.06035(19) 0.6182(3)
H31_11 H 0.553502 0.047143 0.611634
O1_9 O 0.90628(12) 0.75259(11) 0.47039(12)
C1_16 C 0.8962(4) 0.7556(3) 0.500000
C2_16 C 0.8638(6) 0.7670(4) 0.500000
C3_11 C 0.5570(3) 0.9468(3) 0.6779(4)
C4_11 C 0.8464(3) 0.7752(3) 0.5281(3)
H1_11 H 0.856475 0.771215 0.547828
C5_16 C 0.7129(6) 0.8423(5) 0.500000
C6_16 C 0.7985(4) 0.7958(4) 0.500000
C7_11 C 0.6984(3) 0.8521(3) 0.5284(3)
H2_11 H 0.708428 0.846476 0.547755
C8_11 C 0.8148(4) 0.7889(3) 0.5292(2)
H3_11 H 0.804984 0.793179 0.548936
C9_11 C 0.6691(4) 0.8701(3) 0.5301(3)
C10_16 C 0.6561(4) 0.8780(4) 0.500000
H4_16 H 0.636959 0.889753 0.499999
C11_16 C 0.7663(6) 0.8106(5) 0.500000
C12_16 C 0.7427(6) 0.8246(5) 0.500000
C13_11 C 0.6512(3) 0.8814(4) 0.5597(3)
C14_11 C 0.6366(3) 0.8913(4) 0.5820(3)
C15_11 C 0.5908(3) 0.9258(3) 0.59533(18)
H5_11 H 0.587395 0.929658 0.573445
C16_11 C 0.6161(2) 0.9060(2) 0.6051(3)
C17_11 C 0.6212(2) 0.90019(18) 0.6379(3)
H6_11 H 0.638159 0.886983 0.644423
C18_11 C 0.6009(3) 0.9141(2) 0.66073(19)
H7_11 H 0.604266 0.910183 0.682612
C19_11 C 0.5755(2) 0.9338(2) 0.6509(3)
C20_11 C 0.57047(19) 0.93965(19) 0.6182(3)
H8_11 H 0.553502 0.952857 0.611634
C21_11 C 0.5570(3) 0.9468(3) 0.3221(4)
C22_11 C 0.8464(3) 0.7752(3) 0.4719(3)
H10_11 H 0.856475 0.771215 0.452172
C23_11 C 0.6984(3) 0.8521(3) 0.4716(3)
H11_11 H 0.708428 0.846476 0.452245
C24_11 C 0.8148(4) 0.7889(3) 0.4708(2)
H12_11 H 0.804984 0.793179 0.451064
C25_11 C 0.6691(4) 0.8701(3) 0.4699(3)
C26_11 C 0.6512(3) 0.8814(4) 0.4403(3)
C27_11 C 0.6366(3) 0.8913(4) 0.4180(3)
C28_11 C 0.5908(3) 0.9258(3) 0.40467(18)
H13_11 H 0.587395 0.929658 0.426555
C29_11 C 0.6161(2) 0.9060(2) 0.3949(3)
C30_11 C 0.6212(2) 0.90019(18) 0.3621(3)
H14_11 H 0.638159 0.886983 0.355577
C31_11 C 0.6009(3) 0.9141(2) 0.33927(19)
H15_11 H 0.604266 0.910183 0.317388
C32_11 C 0.5755(2) 0.9338(2) 0.3491(3)
C33_11 C 0.57047(19) 0.93965(19) 0.3818(3)
H16_11 H 0.553502 0.952857 0.388366
O17_10 O 0.97039(12) 0.74741(11) 0.40628(12)
C1_17 C 0.000000 0.7444(3) 0.3962(4)
C2_17 C -0.000000 0.7330(4) 0.3638(6)
C3_12 C 0.1779(4) 0.5532(3) 0.0570(3)
C4_12 C 0.0281(3) 0.7248(3) 0.3464(3)
H1_12 H 0.047828 0.728785 0.356475
C5_17 C 0.000000 0.6577(5) 0.2129(6)
C6_17 C 0.000000 0.7042(4) 0.2985(4)
C7_12 C 0.0284(3) 0.6479(3) 0.1984(3)
H2_12 H 0.047755 0.653524 0.208428
C8_12 C 0.0292(2) 0.7111(3) 0.3148(4)
H3_12 H 0.048936 0.706821 0.304984
C9_12 C 0.0301(3) 0.6299(3) 0.1691(4)
C10_17 C 0.000000 0.6220(4) 0.1561(4)
H4_17 H -0.000001 0.610247 0.136959
C11_17 C 0.000000 0.6894(5) 0.2663(6)
C12_17 C 0.000000 0.6754(5) 0.2427(6)
C13_12 C 0.0597(3) 0.6186(4) 0.1512(3)
C14_12 C 0.0820(3) 0.6087(4) 0.1366(3)
C15_12 C 0.09533(18) 0.5742(3) 0.0908(3)
H5_12 H 0.073445 0.570342 0.087395
C16_12 C 0.1051(3) 0.5940(2) 0.1161(2)
C17_12 C 0.1379(3) 0.59981(18) 0.1212(2)
H6_12 H 0.144423 0.613017 0.138159
C18_12 C 0.16073(19) 0.5859(2) 0.1009(3)
H7_12 H 0.182612 0.589817 0.104266
C19_12 C 0.1509(3) 0.5662(2) 0.0755(2)
C20_12 C 0.1182(3) 0.56035(19) 0.07047(19)
H8_12 H 0.111634 0.547143 0.053502
C34_17 C 0.000000 0.2556(3) 0.3962(4)
C35_17 C 0.000000 0.2670(4) 0.3638(6)
C38_17 C 0.000000 0.3423(5) 0.2129(6)
C39_17 C 0.000000 0.2958(4) 0.2985(4)
C43_17 C 0.000000 0.3780(4) 0.1561(4)
H20_17 H 0.000001 0.389753 0.136959
C44_17 C 0.000000 0.3106(5) 0.2663(6)
C45_17 C 0.000000 0.3246(5) 0.2427(6)
C54_12 C 0.1779(4) 0.4468(3) 0.0570(3)
C55_12 C 0.0281(3) 0.2752(3) 0.3464(3)
H25_12 H 0.047828 0.271215 0.356475
C56_12 C 0.0284(3) 0.3521(3) 0.1984(3)
H26_12 H 0.047755 0.346476 0.208428
C57_12 C 0.0292(2) 0.2889(3) 0.3148(4)
H27_12 H 0.048936 0.293179 0.304984
C58_12 C 0.0301(3) 0.3701(3) 0.1691(4)
C59_12 C 0.0597(3) 0.3814(4) 0.1512(3)
C60_12 C 0.0820(3) 0.3913(4) 0.1366(3)
C61_12 C 0.09533(18) 0.4258(3) 0.0908(3)
H28_12 H 0.073445 0.429658 0.087395
C62_12 C 0.1051(3) 0.4060(2) 0.1161(2)
C63_12 C 0.1379(3) 0.40019(18) 0.1212(2)
H29_12 H 0.144423 0.386983 0.138159
C64_12 C 0.16073(19) 0.4141(2) 0.1009(3)
H30_12 H 0.182612 0.410183 0.104266
C65_12 C 0.1509(3) 0.4338(2) 0.0755(2)
C66_12 C 0.1182(3) 0.43965(19) 0.07047(19)
H31_12 H 0.111634 0.452857 0.053502
C1_18 C 1.000000 0.7444(3) 0.3962(4)
C2_18 C 1.000000 0.7330(4) 0.3638(6)
C5_18 C 1.000000 0.6577(5) 0.2129(6)
C6_18 C 1.000000 0.7042(4) 0.2985(4)
C10_18 C 1.000000 0.6220(4) 0.1561(4)
H4_18 H 0.999999 0.610247 0.136959
C11_18 C 1.000000 0.6894(5) 0.2663(6)
C12_18 C 1.000000 0.6754(5) 0.2427(6)
C21_12 C 0.8221(4) 0.5532(3) 0.0570(3)
C22_12 C 0.9719(3) 0.7248(3) 0.3464(3)
H10_12 H 0.952172 0.728785 0.356475
C23_12 C 0.9716(3) 0.6479(3) 0.1984(3)
H11_12 H 0.952245 0.653524 0.208428
C24_12 C 0.9708(2) 0.7111(3) 0.3148(4)
H12_12 H 0.951064 0.706821 0.304984
C25_12 C 0.9699(3) 0.6299(3) 0.1691(4)
C26_12 C 0.9403(3) 0.6186(4) 0.1512(3)
C27_12 C 0.9180(3) 0.6087(4) 0.1366(3)
C28_12 C 0.90467(18) 0.5742(3) 0.0908(3)
H13_12 H 0.926555 0.570342 0.087395
C29_12 C 0.8949(3) 0.5940(2) 0.1161(2)
C30_12 C 0.8621(3) 0.59981(18) 0.1212(2)
H14_12 H 0.855577 0.613017 0.138159
C31_12 C 0.83927(19) 0.5859(2) 0.1009(3)
H15_12 H 0.817388 0.589817 0.104266
C32_12 C 0.8491(3) 0.5662(2) 0.0755(2)
C33_12 C 0.8818(3) 0.56035(19) 0.07047(19)
H16_12 H 0.888366 0.547143 0.053502
C34_18 C 1.000000 0.2556(3) 0.3962(4)
C35_18 C 1.000000 0.2670(4) 0.3638(6)
C36_12 C 0.8221(4) 0.4468(3) 0.0570(3)
C37_12 C 0.9719(3) 0.2752(3) 0.3464(3)
H17_12 H 0.952172 0.271215 0.356475
C38_18 C 1.000000 0.3423(5) 0.2129(6)
C39_18 C 1.000000 0.2958(4) 0.2985(4)
C40_12 C 0.9716(3) 0.3521(3) 0.1984(3)
H18_12 H 0.952245 0.346476 0.208428
C41_12 C 0.9708(2) 0.2889(3) 0.3148(4)
H19_12 H 0.951064 0.293179 0.304984
C42_12 C 0.9699(3) 0.3701(3) 0.1691(4)
C43_18 C 1.000000 0.3780(4) 0.1561(4)
H20_18 H 1.000001 0.389753 0.136959
C44_18 C 1.000000 0.3106(5) 0.2663(6)
C45_18 C 1.000000 0.3246(5) 0.2427(6)
C46_12 C 0.9403(3) 0.3814(4) 0.1512(3)
C47_12 C 0.9180(3) 0.3913(4) 0.1366(3)
C48_12 C 0.90467(18) 0.4258(3) 0.0908(3)
H21_12 H 0.926555 0.429658 0.087395
C49_12 C 0.8949(3) 0.4060(2) 0.1161(2)
C50_12 C 0.8621(3) 0.40019(18) 0.1212(2)
H22_12 H 0.855577 0.386983 0.138159
C51_12 C 0.83927(19) 0.4141(2) 0.1009(3)
H23_12 H 0.817388 0.410183 0.104266
C52_12 C 0.8491(3) 0.4338(2) 0.0755(2)
C53_12 C 0.8818(3) 0.43965(19) 0.07047(19)
H24_12 H 0.888366 0.452857 0.053502
loop_
_geom_bond_atom_site_label_1
_geom_bond_atom_site_label_2
_geom_bond_site_symmetry_1
_geom_bond_site_symmetry_2
Zr1 O2 1_555 1_555
O1 C1 1_555 1_555
O2 C3 1_555 1_555
O3 C3 1_555 1_555
C1 C2 1_555 1_555
C2 C4 1_555 1_555
C3 C19 1_555 1_555
C4 H1 1_555 1_555
C5 C7 1_555 1_555
C6 C8 1_555 1_555
C7 H2 1_555 1_555
C8 C4 1_555 1_555
H3 C8 1_555 1_555
C9 C7 1_555 1_555
C10 C9 1_555 1_555
H4 C10 1_555 1_555
C11 C6 1_555 1_555
C12 C5 1_555 1_555
C13 C9 1_555 1_555
C14 C13 1_555 1_555
C15 H5 1_555 1_555
C16 C14 1_555 1_555
C17 C16 1_555 1_555
H6 C17 1_555 1_555
C18 C17 1_555 1_555
H7 C18 1_555 1_555
C19 C18 1_555 1_555
C20 C15 1_555 1_555
H8 C20 1_555 1_555
Zr2 O3 1_555 1_555
O4 Zr1 1_555 1_555
H9 O4 1_555 1_555
O5 Zr1 1_555 1_555
O6 C1 1_555 1_555
O7 C21 1_555 1_555
O8 C21 1_555 1_555
C21 C32 1_555 1_555
C22 C2 1_555 1_555
H10 C22 1_555 1_555
C23 C5 1_555 1_555
H11 C23 1_555 1_555
C24 C6 1_555 1_555
H12 C24 1_555 1_555
C25 C10 1_555 1_555
C26 C25 1_555 1_555
C27 C26 1_555 1_555
C28 H13 1_555 1_555
C29 C27 1_555 1_555
C30 C29 1_555 1_555
H14 C30 1_555 1_555
C31 C30 1_555 1_555
H15 C31 1_555 1_555
C32 C31 1_555 1_555
C33 C28 1_555 1_555
H16 C33 1_555 1_555
O15 Zr1 1_555 1_555
H32 O15 1_555 1_555
O16 Zr1 1_555 1_555
Zr3 O1 1_555 1_555
Zr6 O6 1_555 1_555
Zr7 O4 1_555 1_555
Zr10 O7 1_555 1_555
O17 Zr3 1_555 1_555
O18 Zr1 1_555 1_555
O19 Zr1 1_555 1_555
O20 Zr1 1_555 1_555
O21 Zr3 1_555 1_555
O22 Zr3 1_555 1_555
O24 Zr2 1_555 1_555
Zr11 O8 1_555 1_555
Zr12 O15 1_555 1_555
O25 Zr3 1_555 1_555
O27 Zr3 1_555 1_555
O28 Zr2 1_555 1_555
O29 Zr3 1_555 1_555
O30 Zr3 1_555 1_555
C11 C12 1_555 1_555
C15 C16 1_555 1_555
C19 C20 1_555 1_555
Zr2 O4 1_555 1_555
Zr2 O5 1_555 1_555
C22 C24 1_555 1_555
C23 C25 1_555 1_555
C28 C29 1_555 1_555
C32 C33 1_555 1_555
O16 Zr7 1_555 1_555
O16 Zr12 1_555 1_555
Zr6 O27 1_555 1_555
Zr6 O30 1_555 1_555
Zr7 O28 1_555 1_555
O9 C34 1_555 1_555
O10 C36 1_555 1_555
O11 C36 1_555 1_555
C34 C35 1_555 1_555
C35 C37 1_555 1_555
C36 C52 1_555 1_555
C37 H17 1_555 1_555
C38 C40 1_555 1_555
C39 C41 1_555 1_555
C40 H18 1_555 1_555
C41 C37 1_555 1_555
H19 C41 1_555 1_555
C42 C40 1_555 1_555
C43 C42 1_555 1_555
H20 C43 1_555 1_555
C44 C39 1_555 1_555
C45 C38 1_555 1_555
C46 C42 1_555 1_555
C47 C46 1_555 1_555
C48 H21 1_555 1_555
C49 C47 1_555 1_555
C50 C49 1_555 1_555
H22 C50 1_555 1_555
C51 C50 1_555 1_555
H23 C51 1_555 1_555
C52 C51 1_555 1_555
C53 C48 1_555 1_555
H24 C53 1_555 1_555
O12 C34 1_555 1_555
O13 C54 1_555 1_555
O14 Zr2_2 1_555 1_555
C54 O14 1_555 1_555
C55 C35 1_555 1_555
H25 C55 1_555 1_555
C56 C38 1_555 1_555
H26 C56 1_555 1_555
C57 C39 1_555 1_555
H27 C57 1_555 1_555
C58 C43 1_555 1_555
C59 C58 1_555 1_555
C60 C59 1_555 1_555
C61 H28 1_555 1_555
C62 C60 1_555 1_555
C63 C62 1_555 1_555
H29 C63 1_555 1_555
C64 C63 1_555 1_555
H30 C64 1_555 1_555
C65 C54 1_555 1_555
C66 C61 1_555 1_555
H31 C66 1_555 1_555
H32_2 O15_2 1_555 1_555
Zr4 O10 1_555 1_555
Zr5 O12 1_555 1_555
Zr8 O9 1_555 1_555
Zr9 O5_2 1_555 1_555
O23 Zr2_2 1_555 1_555
Zr12_2 O15_2 1_555 1_555
O26 Zr2_2 1_555 1_555
O28_2 Zr2_2 1_555 1_555
Zr2_2 O5_2 1_555 1_555
O11 Zr11_2 1_555 1_555
C44 C45 1_555 1_555
C48 C49 1_555 1_555
C52 C53 1_555 1_555
O13 Zr9 1_555 1_555
C55 C57 1_555 1_555
C56 C58 1_555 1_555
C61 C62 1_555 1_555
C64 C65 1_555 1_555
C65 C66 1_555 1_555
O15_2 Zr9 1_555 1_555
Zr9 O26 1_555 1_555
O1_2 C1_2 1_555 1_555
C1_2 C2_2 1_555 1_555
H4_2 C10_2 1_555 1_555
C11_2 C6_2 1_555 1_555
C12_2 C5_2 1_555 1_555
O7_2 C21_2 1_555 1_555
O8_2 C21_2 1_555 1_555
C21_2 C32_2 1_555 1_555
C22_2 C2_2 1_555 1_555
H10_2 C22_2 1_555 1_555
C23_2 C5_2 1_555 1_555
H11_2 C23_2 1_555 1_555
C24_2 C6_2 1_555 1_555
H12_2 C24_2 1_555 1_555
C25_2 C10_2 1_555 1_555
C26_2 C25_2 1_555 1_555
C27_2 C26_2 1_555 1_555
C28_2 H13_2 1_555 1_555
C29_2 C27_2 1_555 1_555
C30_2 C29_2 1_555 1_555
H14_2 C30_2 1_555 1_555
C31_2 C30_2 1_555 1_555
H15_2 C31_2 1_555 1_555
C32_2 C31_2 1_555 1_555
C33_2 C28_2 1_555 1_555
H16_2 C33_2 1_555 1_555
O10_2 C36_2 1_555 1_555
O11_2 C36_2 1_555 1_555
C34_2 C35_2 1_555 1_555
C35_2 C37_2 1_555 1_555
C36_2 C52_2 1_555 1_555
C37_2 H17_2 1_555 1_555
C38_2 C40_2 1_555 1_555
C39_2 C41_2 1_555 1_555
C40_2 H18_2 1_555 1_555
C41_2 C37_2 1_555 1_555
H19_2 C41_2 1_555 1_555
C42_2 C40_2 1_555 1_555
C43_2 C42_2 1_555 1_555
H20_2 C43_2 1_555 1_555
C44_2 C39_2 1_555 1_555
C45_2 C38_2 1_555 1_555
C46_2 C42_2 1_555 1_555
C47_2 C46_2 1_555 1_555
C48_2 H21_2 1_555 1_555
C49_2 C47_2 1_555 1_555
C50_2 C49_2 1_555 1_555
H22_2 C50_2 1_555 1_555
C51_2 C50_2 1_555 1_555
H23_2 C51_2 1_555 1_555
C52_2 C51_2 1_555 1_555
C53_2 C48_2 1_555 1_555
H24_2 C53_2 1_555 1_555
O12_2 C34_2 1_555 1_555
Zr7 O1_2 1_555 1_555
Zr4_2 O10_2 1_555 1_555
Zr5_2 O12_2 1_555 1_555
Zr10_2 O7_2 1_555 1_555
O17_2 Zr7 1_555 1_555
O21_2 Zr7 1_555 1_555
O22_2 Zr7 1_555 1_555
Zr11_4 O8_2 1_555 1_555
O27_2 Zr7 1_555 1_555
C11_2 C12_2 1_555 1_555
C22_2 C24_2 1_555 1_555
C23_2 C25_2 1_555 1_555
C28_2 C29_2 1_555 1_555
C32_2 C33_2 1_555 1_555
O11_2 Zr11_4 1_555 1_555
C44_2 C45_2 1_555 1_555
C48_2 C49_2 1_555 1_555
C52_2 C53_2 1_555 1_555
H9_2 O4_2 1_555 1_555
Zr8 O4_2 1_555 1_555
O23_2 Zr2_3 1_555 1_555
O24_2 Zr2_3 1_555 1_555
O26_2 Zr2_3 1_555 1_555
O28_3 Zr2_3 1_555 1_555
Zr2_3 O4_2 1_555 1_555
O16_2 Zr8 1_555 1_555
O16_2 Zr12_3 1_555 1_555
Zr8 O28_3 1_555 1_555
Zr1_2 O2_2 1_555 1_555
O2_2 C3_2 1_555 1_555
O3_2 C3_2 1_555 1_555
C1_3 C2_3 1_555 1_555
C2_3 C4_2 1_555 1_555
C3_2 C19_2 1_555 1_555
C4_2 H1_2 1_555 1_555
C5_3 C7_2 1_555 1_555
C6_3 C8_2 1_555 1_555
C7_2 H2_2 1_555 1_555
C8_2 C4_2 1_555 1_555
H3_2 C8_2 1_555 1_555
C9_2 C7_2 1_555 1_555
C10_3 C9_2 1_555 1_555
H4_3 C10_3 1_555 1_555
C11_3 C6_3 1_555 1_555
C12_3 C5_3 1_555 1_555
C13_2 C9_2 1_555 1_555
C14_2 C13_2 1_555 1_555
C15_2 H5_2 1_555 1_555
C16_2 C14_2 1_555 1_555
C17_2 C16_2 1_555 1_555
H6_2 C17_2 1_555 1_555
C18_2 C17_2 1_555 1_555
H7_2 C18_2 1_555 1_555
C19_2 C18_2 1_555 1_555
C20_2 C15_2 1_555 1_555
H8_2 C20_2 1_555 1_555
Zr2_4 O3_2 1_555 1_555
O4_3 Zr1_2 1_555 1_555
H9_3 O4_3 1_555 1_555
O5_3 Zr1_2 1_555 1_555
O6_2 C1_3 1_555 1_555
O9_2 C34_3 1_555 1_555
C34_3 C35_3 1_555 1_555
H20_3 C43_3 1_555 1_555
C44_3 C39_3 1_555 1_555
C45_3 C38_3 1_555 1_555
O13_2 C54_2 1_555 1_555
O14_2 Zr2_4 1_555 1_555
C54_2 O14_2 1_555 1_555
C55_2 C35_3 1_555 1_555
H25_2 C55_2 1_555 1_555
C56_2 C38_3 1_555 1_555
H26_2 C56_2 1_555 1_555
C57_2 C39_3 1_555 1_555
H27_2 C57_2 1_555 1_555
C58_2 C43_3 1_555 1_555
C59_2 C58_2 1_555 1_555
C60_2 C59_2 1_555 1_555
C61_2 H28_2 1_555 1_555
C62_2 C60_2 1_555 1_555
C63_2 C62_2 1_555 1_555
H29_2 C63_2 1_555 1_555
C64_2 C63_2 1_555 1_555
H30_2 C64_2 1_555 1_555
C65_2 C54_2 1_555 1_555
C66_2 C61_2 1_555 1_555
H31_2 C66_2 1_555 1_555
O15_3 Zr1_2 1_555 1_555
H32_3 O15_3 1_555 1_555
O16_3 Zr1_2 1_555 1_555
Zr6_2 O6_2 1_555 1_555
Zr8_2 O9_2 1_555 1_555
Zr9_2 O5_3 1_555 1_555
O18_2 Zr1_2 1_555 1_555
O19_2 Zr1_2 1_555 1_555
O20_2 Zr1_2 1_555 1_555
Zr12_4 O15_3 1_555 1_555
O26_3 Zr2_4 1_555 1_555
C11_3 C12_3 1_555 1_555
C15_2 C16_2 1_555 1_555
C19_2 C20_2 1_555 1_555
Zr2_4 O4_3 1_555 1_555
Zr2_4 O5_3 1_555 1_555
C44_3 C45_3 1_555 1_555
O13_2 Zr9_2 1_555 1_555
C55_2 C57_2 1_555 1_555
C56_2 C58_2 1_555 1_555
C61_2 C62_2 1_555 1_555
C64_2 C65_2 1_555 1_555
C65_2 C66_2 1_555 1_555
O15_3 Zr9_2 1_555 1_555
O16_3 Zr12_4 1_555 1_555
Zr6_2 O27_3 1_555 1_555
Zr6_2 O28_2 1_555 1_555
Zr9_2 O26_3 1_555 1_555
H32_4 O15_4 1_555 1_555
Zr10 O5_4 1_555 1_555
O23_3 Zr11 1_555 1_555
Zr12_5 O15_4 1_555 1_555
O26_4 Zr11 1_555 1_555
O28_4 Zr11 1_555 1_555
Zr11 O5_4 1_555 1_555
O15_4 Zr10 1_555 1_555
Zr10 O26_4 1_555 1_555
O4_4 Zr4 1_555 1_555
H9_4 O4_4 1_555 1_555
O5_5 Zr4 1_555 1_555
O15_5 Zr4 1_555 1_555
H32_5 O15_5 1_555 1_555
O16_4 Zr4 1_555 1_555
Zr8_2 O4_4 1_555 1_555
O17_3 Zr8 1_555 1_555
O18_3 Zr4 1_555 1_555
O19_3 Zr4 1_555 1_555
O20_3 Zr4 1_555 1_555
O21_3 Zr8 1_555 1_555
O22_3 Zr8 1_555 1_555
O24_3 Zr11_2 1_555 1_555
Zr12_6 O15_5 1_555 1_555
O27_4 Zr8 1_555 1_555
O28_5 Zr11_2 1_555 1_555
Zr11_2 O4_4 1_555 1_555
Zr11_2 O5_5 1_555 1_555
O16_4 Zr8_2 1_555 1_555
O16_4 Zr12_6 1_555 1_555
Zr5 O27_4 1_555 1_555
Zr5 O28_3 1_555 1_555
Zr8_2 O28_5 1_555 1_555
H9_5 O25 1_555 1_555
O23_4 Zr11_3 1_555 1_555
O24_4 Zr11_3 1_555 1_555
O26_5 Zr11_3 1_555 1_555
O30 Zr11_3 1_555 1_555
Zr11_3 O25 1_555 1_555
O29 Zr12_7 1_555 1_555
O25_2 Zr4_2 1_555 1_555
H9_6 O25_2 1_555 1_555
O5_6 Zr4_2 1_555 1_555
O15_6 Zr4_2 1_555 1_555
H32_6 O15_6 1_555 1_555
O29_2 Zr4_2 1_555 1_555
Zr10_2 O5_6 1_555 1_555
O18_4 Zr4_2 1_555 1_555
O19_4 Zr4_2 1_555 1_555
O20_4 Zr4_2 1_555 1_555
Zr12_8 O15_6 1_555 1_555
O26_6 Zr11_4 1_555 1_555
Zr11_4 O25_2 1_555 1_555
Zr11_4 O5_6 1_555 1_555
O15_6 Zr10_2 1_555 1_555
O29_2 Zr12_8 1_555 1_555
Zr5_2 O27_5 1_555 1_555
Zr5_2 O28_4 1_555 1_555
Zr10_2 O26_6 1_555 1_555
O17_4 Zr8_2 1_555 1_555
O21_4 Zr8_2 1_555 1_555
O22_4 Zr8_2 1_555 1_555
O27_6 Zr8_2 1_555 1_555
Zr1_3 O2_3 1_555 1_555
O2_3 C3_3 1_555 1_555
O3_3 C3_3 1_555 1_555
C1_4 C2_4 1_555 1_555
C2_4 C4_3 1_555 1_555
C3_3 C19_3 1_555 1_555
C4_3 H1_3 1_555 1_555
C5_4 C7_3 1_555 1_555
C6_4 C8_3 1_555 1_555
C7_3 H2_3 1_555 1_555
C8_3 C4_3 1_555 1_555
H3_3 C8_3 1_555 1_555
C9_3 C7_3 1_555 1_555
C10_4 C9_3 1_555 1_555
H4_4 C10_4 1_555 1_555
C11_4 C6_4 1_555 1_555
C12_4 C5_4 1_555 1_555
C13_3 C9_3 1_555 1_555
C14_3 C13_3 1_555 1_555
C15_3 H5_3 1_555 1_555
C16_3 C14_3 1_555 1_555
C17_3 C16_3 1_555 1_555
H6_3 C17_3 1_555 1_555
C18_3 C17_3 1_555 1_555
H7_3 C18_3 1_555 1_555
C19_3 C18_3 1_555 1_555
C20_3 C15_3 1_555 1_555
H8_3 C20_3 1_555 1_555
Zr2_5 O3_3 1_555 1_555
O4_5 Zr1_3 1_555 1_555
H9_7 O4_5 1_555 1_555
O5_7 Zr1_3 1_555 1_555
O6_3 C1_4 1_555 1_555
O17 C34_4 1_555 1_555
C34_4 C35_4 1_555 1_555
H20_4 C43_4 1_555 1_555
C44_4 C39_4 1_555 1_555
C45_4 C38_4 1_555 1_555
O13_3 C54_3 1_555 1_555
O14_3 Zr2_5 1_555 1_555
C54_3 O14_3 1_555 1_555
C55_3 C35_4 1_555 1_555
H25_3 C55_3 1_555 1_555
C56_3 C38_4 1_555 1_555
H26_3 C56_3 1_555 1_555
C57_3 C39_4 1_555 1_555
H27_3 C57_3 1_555 1_555
C58_3 C43_4 1_555 1_555
C59_3 C58_3 1_555 1_555
C60_3 C59_3 1_555 1_555
C61_3 H28_3 1_555 1_555
C62_3 C60_3 1_555 1_555
C63_3 C62_3 1_555 1_555
H29_3 C63_3 1_555 1_555
C64_3 C63_3 1_555 1_555
H30_3 C64_3 1_555 1_555
C65_3 C54_3 1_555 1_555
C66_3 C61_3 1_555 1_555
H31_3 C66_3 1_555 1_555
O15_7 Zr1_3 1_555 1_555
H32_7 O15_7 1_555 1_555
O16_5 Zr1_3 1_555 1_555
Zr5 O6_3 1_555 1_555
Zr9_3 O5_7 1_555 1_555
O18_5 Zr1_3 1_555 1_555
O19_5 Zr1_3 1_555 1_555
O20_5 Zr1_3 1_555 1_555
Zr12_9 O15_7 1_555 1_555
O26_7 Zr2_5 1_555 1_555
C11_4 C12_4 1_555 1_555
C15_3 C16_3 1_555 1_555
C19_3 C20_3 1_555 1_555
Zr2_5 O4_5 1_555 1_555
Zr2_5 O5_7 1_555 1_555
C44_4 C45_4 1_555 1_555
O13_3 Zr9_3 1_555 1_555
C55_3 C57_3 1_555 1_555
C56_3 C58_3 1_555 1_555
C61_3 C62_3 1_555 1_555
C64_3 C65_3 1_555 1_555
C65_3 C66_3 1_555 1_555
O15_7 Zr9_3 1_555 1_555
O16_5 Zr12_9 1_555 1_555
Zr5 O26_2 1_555 1_555
Zr5 O30_2 1_555 1_555
Zr9_3 O26_7 1_555 1_555
O1_3 C1_5 1_555 1_555
C1_5 C2_5 1_555 1_555
H4_5 C10_5 1_555 1_555
C11_5 C6_5 1_555 1_555
C12_5 C5_5 1_555 1_555
O7_3 C21_3 1_555 1_555
O8_3 C21_3 1_555 1_555
C21_3 C32_3 1_555 1_555
C22_3 C2_5 1_555 1_555
H10_3 C22_3 1_555 1_555
C23_3 C5_5 1_555 1_555
H11_3 C23_3 1_555 1_555
C24_3 C6_5 1_555 1_555
H12_3 C24_3 1_555 1_555
C25_3 C10_5 1_555 1_555
C26_3 C25_3 1_555 1_555
C27_3 C26_3 1_555 1_555
C28_3 H13_3 1_555 1_555
C29_3 C27_3 1_555 1_555
C30_3 C29_3 1_555 1_555
H14_3 C30_3 1_555 1_555
C31_3 C30_3 1_555 1_555
H15_3 C31_3 1_555 1_555
C32_3 C31_3 1_555 1_555
C33_3 C28_3 1_555 1_555
H16_3 C33_3 1_555 1_555
O10_3 C36_3 1_555 1_555
O11_3 C36_3 1_555 1_555
C34_5 C35_5 1_555 1_555
C35_5 C37_3 1_555 1_555
C36_3 C52_3 1_555 1_555
C37_3 H17_3 1_555 1_555
C38_5 C40_3 1_555 1_555
C39_5 C41_3 1_555 1_555
C40_3 H18_3 1_555 1_555
C41_3 C37_3 1_555 1_555
H19_3 C41_3 1_555 1_555
C42_3 C40_3 1_555 1_555
C43_5 C42_3 1_555 1_555
H20_5 C43_5 1_555 1_555
C44_5 C39_5 1_555 1_555
C45_5 C38_5 1_555 1_555
C46_3 C42_3 1_555 1_555
C47_3 C46_3 1_555 1_555
C48_3 H21_3 1_555 1_555
C49_3 C47_3 1_555 1_555
C50_3 C49_3 1_555 1_555
H22_3 C50_3 1_555 1_555
C51_3 C50_3 1_555 1_555
H23_3 C51_3 1_555 1_555
C52_3 C51_3 1_555 1_555
C53_3 C48_3 1_555 1_555
H24_3 C53_3 1_555 1_555
O19_4 C34_5 1_555 1_555
Zr9_2 O1_3 1_555 1_555
Zr4_3 O10_3 1_555 1_555
Zr10_3 O7_3 1_555 1_555
O17_5 Zr9_2 1_555 1_555
O21_5 Zr9_2 1_555 1_555
Zr11_5 O8_3 1_555 1_555
O30_3 Zr9_2 1_555 1_555
C11_5 C12_5 1_555 1_555
C22_3 C24_3 1_555 1_555
C23_3 C25_3 1_555 1_555
C28_3 C29_3 1_555 1_555
C32_3 C33_3 1_555 1_555
O11_3 Zr11_5 1_555 1_555
C44_5 C45_5 1_555 1_555
C48_3 C49_3 1_555 1_555
C52_3 C53_3 1_555 1_555
H9_8 O4_6 1_555 1_555
Zr7_2 O4_6 1_555 1_555
O23_5 Zr2_6 1_555 1_555
O24_5 Zr2_6 1_555 1_555
O26_8 Zr2_6 1_555 1_555
O28_6 Zr2_6 1_555 1_555
Zr2_6 O4_6 1_555 1_555
O16_6 Zr7_2 1_555 1_555
O16_6 Zr12_10 1_555 1_555
Zr7_2 O28_6 1_555 1_555
Zr5_2 O2_4 1_555 1_555
O1_4 C1_6 1_555 1_555
O2_4 C3_4 1_555 1_555
O23_3 C3_4 1_555 1_555
C1_6 C2_6 1_555 1_555
C2_6 C4_4 1_555 1_555
C3_4 C19_4 1_555 1_555
C4_4 H1_4 1_555 1_555
C5_6 C7_4 1_555 1_555
C6_6 C8_4 1_555 1_555
C7_4 H2_4 1_555 1_555
C8_4 C4_4 1_555 1_555
H3_4 C8_4 1_555 1_555
C9_4 C7_4 1_555 1_555
C10_6 C9_4 1_555 1_555
H4_6 C10_6 1_555 1_555
C11_6 C6_6 1_555 1_555
C12_6 C5_6 1_555 1_555
C13_4 C9_4 1_555 1_555
C14_4 C13_4 1_555 1_555
C15_4 H5_4 1_555 1_555
C16_4 C14_4 1_555 1_555
C17_4 C16_4 1_555 1_555
H6_4 C17_4 1_555 1_555
C18_4 C17_4 1_555 1_555
H7_4 C18_4 1_555 1_555
C19_4 C18_4 1_555 1_555
C20_4 C15_4 1_555 1_555
H8_4 C20_4 1_555 1_555
O26_4 Zr5_2 1_555 1_555
H9_9 O26_4 1_555 1_555
O18_4 C1_6 1_555 1_555
O21_2 C21_4 1_555 1_555
O24 C21_4 1_555 1_555
C21_4 C32_4 1_555 1_555
C22_4 C2_6 1_555 1_555
H10_4 C22_4 1_555 1_555
C23_4 C5_6 1_555 1_555
H11_4 C23_4 1_555 1_555
C24_4 C6_6 1_555 1_555
H12_4 C24_4 1_555 1_555
C25_4 C10_6 1_555 1_555
C26_4 C25_4 1_555 1_555
C27_4 C26_4 1_555 1_555
C28_4 H13_4 1_555 1_555
C29_4 C27_4 1_555 1_555
C30_4 C29_4 1_555 1_555
H14_4 C30_4 1_555 1_555
C31_4 C30_4 1_555 1_555
H15_4 C31_4 1_555 1_555
C32_4 C31_4 1_555 1_555
C33_4 C28_4 1_555 1_555
H16_4 C33_4 1_555 1_555
H32_8 O27_5 1_555 1_555
O16_7 Zr5_2 1_555 1_555
Zr10_2 O1_4 1_555 1_555
O17_6 Zr10_2 1_555 1_555
O19_6 Zr5_2 1_555 1_555
O20_6 Zr5_2 1_555 1_555
O22_5 Zr10_2 1_555 1_555
Zr12_5 O27_5 1_555 1_555
O29_4 Zr10_2 1_555 1_555
C11_6 C12_6 1_555 1_555
C15_4 C16_4 1_555 1_555
C19_4 C20_4 1_555 1_555
C22_4 C24_4 1_555 1_555
C23_4 C25_4 1_555 1_555
C28_4 C29_4 1_555 1_555
C32_4 C33_4 1_555 1_555
O16_7 Zr10 1_555 1_555
O16_7 Zr12_5 1_555 1_555
O17_5 C34_6 1_555 1_555
O10_4 C36_4 1_555 1_555
O23 C36_4 1_555 1_555
C34_6 C35_6 1_555 1_555
C35_6 C37_4 1_555 1_555
C36_4 C52_4 1_555 1_555
C37_4 H17_4 1_555 1_555
C38_6 C40_4 1_555 1_555
C39_6 C41_4 1_555 1_555
C40_4 H18_4 1_555 1_555
C41_4 C37_4 1_555 1_555
H19_4 C41_4 1_555 1_555
C42_4 C40_4 1_555 1_555
C43_6 C42_4 1_555 1_555
H20_6 C43_6 1_555 1_555
C44_6 C39_6 1_555 1_555
C45_6 C38_6 1_555 1_555
C46_4 C42_4 1_555 1_555
C47_4 C46_4 1_555 1_555
C48_4 H21_4 1_555 1_555
C49_4 C47_4 1_555 1_555
C50_4 C49_4 1_555 1_555
H22_4 C50_4 1_555 1_555
C51_4 C50_4 1_555 1_555
H23_4 C51_4 1_555 1_555
C52_4 C51_4 1_555 1_555
C53_4 C48_4 1_555 1_555
H24_4 C53_4 1_555 1_555
O18_2 C34_6 1_555 1_555
O21_4 C54_4 1_555 1_555
C54_4 O24_3 1_555 1_555
C55_4 C35_6 1_555 1_555
H25_4 C55_4 1_555 1_555
C56_4 C38_6 1_555 1_555
H26_4 C56_4 1_555 1_555
C57_4 C39_6 1_555 1_555
H27_4 C57_4 1_555 1_555
C58_4 C43_6 1_555 1_555
C59_4 C58_4 1_555 1_555
C60_4 C59_4 1_555 1_555
C61_4 H28_4 1_555 1_555
C62_4 C60_4 1_555 1_555
C63_4 C62_4 1_555 1_555
H29_4 C63_4 1_555 1_555
C64_4 C63_4 1_555 1_555
H30_4 C64_4 1_555 1_555
C65_4 C54_4 1_555 1_555
C66_4 C61_4 1_555 1_555
H31_4 C66_4 1_555 1_555
H32_9 O27_6 1_555 1_555
Zr6_2 O10_4 1_555 1_555
Zr12_6 O27_6 1_555 1_555
C44_6 C45_6 1_555 1_555
C48_4 C49_4 1_555 1_555
C52_4 C53_4 1_555 1_555
C55_4 C57_4 1_555 1_555
C56_4 C58_4 1_555 1_555
C61_4 C62_4 1_555 1_555
C64_4 C65_4 1_555 1_555
C65_4 C66_4 1_555 1_555
H9_10 O4_7 1_555 1_555
Zr10_3 O4_7 1_555 1_555
O26_9 Zr11_5 1_555 1_555
O28_7 Zr11_5 1_555 1_555
Zr11_5 O4_7 1_555 1_555
O16_8 Zr10_3 1_555 1_555
O16_8 Zr12_11 1_555 1_555
Zr10_3 O28_7 1_555 1_555
O17_3 C1_7 1_555 1_555
C1_7 C2_7 1_555 1_555
H4_7 C10_7 1_555 1_555
C11_7 C6_7 1_555 1_555
C12_7 C5_7 1_555 1_555
O7_4 C21_5 1_555 1_555
O24_5 C21_5 1_555 1_555
C21_5 C32_5 1_555 1_555
C22_5 C2_7 1_555 1_555
H10_5 C22_5 1_555 1_555
C23_5 C5_7 1_555 1_555
H11_5 C23_5 1_555 1_555
C24_5 C6_7 1_555 1_555
H12_5 C24_5 1_555 1_555
C25_5 C10_7 1_555 1_555
C26_5 C25_5 1_555 1_555
C27_5 C26_5 1_555 1_555
C28_5 H13_5 1_555 1_555
C29_5 C27_5 1_555 1_555
C30_5 C29_5 1_555 1_555
H14_5 C30_5 1_555 1_555
C31_5 C30_5 1_555 1_555
H15_5 C31_5 1_555 1_555
C32_5 C31_5 1_555 1_555
C33_5 C28_5 1_555 1_555
H16_5 C33_5 1_555 1_555
O10_5 C36_5 1_555 1_555
O23_5 C36_5 1_555 1_555
C34_7 C35_7 1_555 1_555
C35_7 C37_5 1_555 1_555
C36_5 C52_5 1_555 1_555
C37_5 H17_5 1_555 1_555
C38_7 C40_5 1_555 1_555
C39_7 C41_5 1_555 1_555
C40_5 H18_5 1_555 1_555
C41_5 C37_5 1_555 1_555
H19_5 C41_5 1_555 1_555
C42_5 C40_5 1_555 1_555
C43_7 C42_5 1_555 1_555
H20_7 C43_7 1_555 1_555
C44_7 C39_7 1_555 1_555
C45_7 C38_7 1_555 1_555
C46_5 C42_5 1_555 1_555
C47_5 C46_5 1_555 1_555
C48_5 H21_5 1_555 1_555
C49_5 C47_5 1_555 1_555
C50_5 C49_5 1_555 1_555
H22_5 C50_5 1_555 1_555
C51_5 C50_5 1_555 1_555
H23_5 C51_5 1_555 1_555
C52_5 C51_5 1_555 1_555
C53_5 C48_5 1_555 1_555
H24_5 C53_5 1_555 1_555
O12_3 C34_7 1_555 1_555
Zr4_4 O10_5 1_555 1_555
Zr6 O12_3 1_555 1_555
Zr7_2 O7_4 1_555 1_555
C11_7 C12_7 1_555 1_555
C22_5 C24_5 1_555 1_555
C23_5 C25_5 1_555 1_555
C28_5 C29_5 1_555 1_555
C32_5 C33_5 1_555 1_555
C44_7 C45_7 1_555 1_555
C48_5 C49_5 1_555 1_555
C52_5 C53_5 1_555 1_555
Zr1_4 O2_5 1_555 1_555
O2_5 C3_5 1_555 1_555
O3_4 C3_5 1_555 1_555
C1_8 C2_8 1_555 1_555
C2_8 C4_5 1_555 1_555
C3_5 C19_5 1_555 1_555
C4_5 H1_5 1_555 1_555
C5_8 C7_5 1_555 1_555
C6_8 C8_5 1_555 1_555
C7_5 H2_5 1_555 1_555
C8_5 C4_5 1_555 1_555
H3_5 C8_5 1_555 1_555
C9_5 C7_5 1_555 1_555
C10_8 C9_5 1_555 1_555
H4_8 C10_8 1_555 1_555
C11_8 C6_8 1_555 1_555
C12_8 C5_8 1_555 1_555
C13_5 C9_5 1_555 1_555
C14_5 C13_5 1_555 1_555
C15_5 H5_5 1_555 1_555
C16_5 C14_5 1_555 1_555
C17_5 C16_5 1_555 1_555
H6_5 C17_5 1_555 1_555
C18_5 C17_5 1_555 1_555
H7_5 C18_5 1_555 1_555
C19_5 C18_5 1_555 1_555
C20_5 C15_5 1_555 1_555
H8_5 C20_5 1_555 1_555
Zr11_6 O3_4 1_555 1_555
O4_8 Zr1_4 1_555 1_555
H9_11 O4_8 1_555 1_555
O5_8 Zr1_4 1_555 1_555
O19_2 C1_8 1_555 1_555
O17_6 C34_8 1_555 1_555
C34_8 C35_8 1_555 1_555
H20_8 C43_8 1_555 1_555
C44_8 C39_8 1_555 1_555
C45_8 C38_8 1_555 1_555
O13_4 C54_5 1_555 1_555
O14_4 Zr11_6 1_555 1_555
C54_5 O14_4 1_555 1_555
C55_5 C35_8 1_555 1_555
H25_5 C55_5 1_555 1_555
C56_5 C38_8 1_555 1_555
H26_5 C56_5 1_555 1_555
C57_5 C39_8 1_555 1_555
H27_5 C57_5 1_555 1_555
C58_5 C43_8 1_555 1_555
C59_5 C58_5 1_555 1_555
C60_5 C59_5 1_555 1_555
C61_5 H28_5 1_555 1_555
C62_5 C60_5 1_555 1_555
C63_5 C62_5 1_555 1_555
H29_5 C63_5 1_555 1_555
C64_5 C63_5 1_555 1_555
H30_5 C64_5 1_555 1_555
C65_5 C54_5 1_555 1_555
C66_5 C61_5 1_555 1_555
H31_5 C66_5 1_555 1_555
O15_8 Zr1_4 1_555 1_555
H32_10 O15_8 1_555 1_555
O16_9 Zr1_4 1_555 1_555
Zr9_4 O5_8 1_555 1_555
O18_6 Zr1_4 1_555 1_555
O19_7 Zr1_4 1_555 1_555
O20_7 Zr1_4 1_555 1_555
Zr12_12 O15_8 1_555 1_555
O26_10 Zr11_6 1_555 1_555
C11_8 C12_8 1_555 1_555
C15_5 C16_5 1_555 1_555
C19_5 C20_5 1_555 1_555
Zr11_6 O4_8 1_555 1_555
Zr11_6 O5_8 1_555 1_555
C44_8 C45_8 1_555 1_555
O13_4 Zr9_4 1_555 1_555
C55_5 C57_5 1_555 1_555
C56_5 C58_5 1_555 1_555
C61_5 C62_5 1_555 1_555
C64_5 C65_5 1_555 1_555
C65_5 C66_5 1_555 1_555
O15_8 Zr9_4 1_555 1_555
O16_9 Zr12_12 1_555 1_555
Zr9_4 O26_10 1_555 1_555
O23_6 Zr12_5 1_555 1_555
O24_6 Zr12_5 1_555 1_555
O20_3 C3_6 1_555 1_555
O3_5 C3_6 1_555 1_555
C1_9 C2_9 1_555 1_555
C2_9 C4_6 1_555 1_555
C3_6 C19_6 1_555 1_555
C4_6 H1_6 1_555 1_555
C5_9 C7_6 1_555 1_555
C6_9 C8_6 1_555 1_555
C7_6 H2_6 1_555 1_555
C8_6 C4_6 1_555 1_555
H3_6 C8_6 1_555 1_555
C9_6 C7_6 1_555 1_555
C10_9 C9_6 1_555 1_555
H4_9 C10_9 1_555 1_555
C11_9 C6_9 1_555 1_555
C12_9 C5_9 1_555 1_555
C13_6 C9_6 1_555 1_555
C14_6 C13_6 1_555 1_555
C15_6 H5_6 1_555 1_555
C16_6 C14_6 1_555 1_555
C17_6 C16_6 1_555 1_555
H6_6 C17_6 1_555 1_555
C18_6 C17_6 1_555 1_555
H7_6 C18_6 1_555 1_555
C19_6 C18_6 1_555 1_555
C20_6 C15_6 1_555 1_555
H8_6 C20_6 1_555 1_555
Zr12_6 O3_5 1_555 1_555
O19_5 C1_9 1_555 1_555
O9_3 C34_9 1_555 1_555
C34_9 C35_9 1_555 1_555
H20_9 C43_9 1_555 1_555
C44_9 C39_9 1_555 1_555
C45_9 C38_9 1_555 1_555
O22_4 C54_6 1_555 1_555
O14_5 Zr12_6 1_555 1_555
C54_6 O14_5 1_555 1_555
C55_6 C35_9 1_555 1_555
H25_6 C55_6 1_555 1_555
C56_6 C38_9 1_555 1_555
H26_6 C56_6 1_555 1_555
C57_6 C39_9 1_555 1_555
H27_6 C57_6 1_555 1_555
C58_6 C43_9 1_555 1_555
C59_6 C58_6 1_555 1_555
C60_6 C59_6 1_555 1_555
C61_6 H28_6 1_555 1_555
C62_6 C60_6 1_555 1_555
C63_6 C62_6 1_555 1_555
H29_6 C63_6 1_555 1_555
C64_6 C63_6 1_555 1_555
H30_6 C64_6 1_555 1_555
C65_6 C54_6 1_555 1_555
C66_6 C61_6 1_555 1_555
H31_6 C66_6 1_555 1_555
Zr10_3 O9_3 1_555 1_555
C11_9 C12_9 1_555 1_555
C15_6 C16_6 1_555 1_555
C19_6 C20_6 1_555 1_555
C44_9 C45_9 1_555 1_555
C55_6 C57_6 1_555 1_555
C56_6 C58_6 1_555 1_555
C61_6 C62_6 1_555 1_555
C64_6 C65_6 1_555 1_555
C65_6 C66_6 1_555 1_555
O1_5 C1_10 1_555 1_555
C1_10 C2_10 1_555 1_555
H4_10 C10_10 1_555 1_555
C11_10 C6_10 1_555 1_555
C12_10 C5_10 1_555 1_555
O7_5 C21_6 1_555 1_555
O8_4 C21_6 1_555 1_555
C21_6 C32_6 1_555 1_555
C22_6 C2_10 1_555 1_555
H10_6 C22_6 1_555 1_555
C23_6 C5_10 1_555 1_555
H11_6 C23_6 1_555 1_555
C24_6 C6_10 1_555 1_555
H12_6 C24_6 1_555 1_555
C25_6 C10_10 1_555 1_555
C26_6 C25_6 1_555 1_555
C27_6 C26_6 1_555 1_555
C28_6 H13_6 1_555 1_555
C29_6 C27_6 1_555 1_555
C30_6 C29_6 1_555 1_555
H14_6 C30_6 1_555 1_555
C31_6 C30_6 1_555 1_555
H15_6 C31_6 1_555 1_555
C32_6 C31_6 1_555 1_555
C33_6 C28_6 1_555 1_555
H16_6 C33_6 1_555 1_555
O10_6 C36_6 1_555 1_555
O11_4 C36_6 1_555 1_555
C34_10 C35_10 1_555 1_555
C35_10 C37_6 1_555 1_555
C36_6 C52_6 1_555 1_555
C37_6 H17_6 1_555 1_555
C38_10 C40_6 1_555 1_555
C39_10 C41_6 1_555 1_555
C40_6 H18_6 1_555 1_555
C41_6 C37_6 1_555 1_555
H19_6 C41_6 1_555 1_555
C42_6 C40_6 1_555 1_555
C43_10 C42_6 1_555 1_555
H20_10 C43_10 1_555 1_555
C44_10 C39_10 1_555 1_555
C45_10 C38_10 1_555 1_555
C46_6 C42_6 1_555 1_555
C47_6 C46_6 1_555 1_555
C48_6 H21_6 1_555 1_555
C49_6 C47_6 1_555 1_555
C50_6 C49_6 1_555 1_555
H22_6 C50_6 1_555 1_555
C51_6 C50_6 1_555 1_555
H23_6 C51_6 1_555 1_555
C52_6 C51_6 1_555 1_555
C53_6 C48_6 1_555 1_555
H24_6 C53_6 1_555 1_555
O19_7 C34_10 1_555 1_555
Zr7_2 O1_5 1_555 1_555
Zr6_2 O10_6 1_555 1_555
Zr9 O7_5 1_555 1_555
O17_7 Zr7_2 1_555 1_555
O21_6 Zr7_2 1_555 1_555
Zr12_2 O8_4 1_555 1_555
O25_3 Zr7_2 1_555 1_555
C11_10 C12_10 1_555 1_555
C22_6 C24_6 1_555 1_555
C23_6 C25_6 1_555 1_555
C28_6 C29_6 1_555 1_555
C32_6 C33_6 1_555 1_555
O11_4 Zr12_2 1_555 1_555
C44_10 C45_10 1_555 1_555
C48_6 C49_6 1_555 1_555
C52_6 C53_6 1_555 1_555
H32_11 O27_2 1_555 1_555
Zr12 O27_2 1_555 1_555
O26 Zr6_2 1_555 1_555
H9_12 O26 1_555 1_555
H32_12 O27_3 1_555 1_555
O16_10 Zr6_2 1_555 1_555
O19_8 Zr6_2 1_555 1_555
Zr12_2 O27_3 1_555 1_555
O16_10 Zr9 1_555 1_555
O16_10 Zr12_2 1_555 1_555
O20_6 C3_7 1_555 1_555
O23_6 C3_7 1_555 1_555
C1_11 C2_11 1_555 1_555
C2_11 C4_7 1_555 1_555
C3_7 C19_7 1_555 1_555
C4_7 H1_7 1_555 1_555
C5_11 C7_7 1_555 1_555
C6_11 C8_7 1_555 1_555
C7_7 H2_7 1_555 1_555
C8_7 C4_7 1_555 1_555
H3_7 C8_7 1_555 1_555
C9_7 C7_7 1_555 1_555
C10_11 C9_7 1_555 1_555
H4_11 C10_11 1_555 1_555
C11_11 C6_11 1_555 1_555
C12_11 C5_11 1_555 1_555
C13_7 C9_7 1_555 1_555
C14_7 C13_7 1_555 1_555
C15_7 H5_7 1_555 1_555
C16_7 C14_7 1_555 1_555
C17_7 C16_7 1_555 1_555
H6_7 C17_7 1_555 1_555
C18_7 C17_7 1_555 1_555
H7_7 C18_7 1_555 1_555
C19_7 C18_7 1_555 1_555
C20_7 C15_7 1_555 1_555
H8_7 C20_7 1_555 1_555
O6_4 C1_11 1_555 1_555
O9_4 C34_11 1_555 1_555
C34_11 C35_11 1_555 1_555
H20_11 C43_11 1_555 1_555
C44_11 C39_11 1_555 1_555
C45_11 C38_11 1_555 1_555
O13_5 C54_7 1_555 1_555
C54_7 O24_6 1_555 1_555
C55_7 C35_11 1_555 1_555
H25_7 C55_7 1_555 1_555
C56_7 C38_11 1_555 1_555
H26_7 C56_7 1_555 1_555
C57_7 C39_11 1_555 1_555
H27_7 C57_7 1_555 1_555
C58_7 C43_11 1_555 1_555
C59_7 C58_7 1_555 1_555
C60_7 C59_7 1_555 1_555
C61_7 H28_7 1_555 1_555
C62_7 C60_7 1_555 1_555
C63_7 C62_7 1_555 1_555
H29_7 C63_7 1_555 1_555
C64_7 C63_7 1_555 1_555
H30_7 C64_7 1_555 1_555
C65_7 C54_7 1_555 1_555
C66_7 C61_7 1_555 1_555
H31_7 C66_7 1_555 1_555
Zr4_3 O6_4 1_555 1_555
Zr9_3 O9_4 1_555 1_555
C11_11 C12_11 1_555 1_555
C15_7 C16_7 1_555 1_555
C19_7 C20_7 1_555 1_555
C44_11 C45_11 1_555 1_555
O13_5 Zr10 1_555 1_555
C55_7 C57_7 1_555 1_555
C56_7 C58_7 1_555 1_555
C61_7 C62_7 1_555 1_555
C64_7 C65_7 1_555 1_555
C65_7 C66_7 1_555 1_555
Zr4_3 O26_9 1_555 1_555
Zr4_3 O30_4 1_555 1_555
O1_6 C1_12 1_555 1_555
C1_12 C2_12 1_555 1_555
H4_12 C10_12 1_555 1_555
C11_12 C6_12 1_555 1_555
C12_12 C5_12 1_555 1_555
O22_2 C21_7 1_555 1_555
O8_5 C21_7 1_555 1_555
C21_7 C32_7 1_555 1_555
C22_7 C2_12 1_555 1_555
H10_7 C22_7 1_555 1_555
C23_7 C5_12 1_555 1_555
H11_7 C23_7 1_555 1_555
C24_7 C6_12 1_555 1_555
H12_7 C24_7 1_555 1_555
C25_7 C10_12 1_555 1_555
C26_7 C25_7 1_555 1_555
C27_7 C26_7 1_555 1_555
C28_7 H13_7 1_555 1_555
C29_7 C27_7 1_555 1_555
C30_7 C29_7 1_555 1_555
H14_7 C30_7 1_555 1_555
C31_7 C30_7 1_555 1_555
H15_7 C31_7 1_555 1_555
C32_7 C31_7 1_555 1_555
C33_7 C28_7 1_555 1_555
H16_7 C33_7 1_555 1_555
O20 C36_7 1_555 1_555
O11_5 C36_7 1_555 1_555
C34_12 C35_12 1_555 1_555
C35_12 C37_7 1_555 1_555
C36_7 C52_7 1_555 1_555
C37_7 H17_7 1_555 1_555
C38_12 C40_7 1_555 1_555
C39_12 C41_7 1_555 1_555
C40_7 H18_7 1_555 1_555
C41_7 C37_7 1_555 1_555
H19_7 C41_7 1_555 1_555
C42_7 C40_7 1_555 1_555
C43_12 C42_7 1_555 1_555
H20_12 C43_12 1_555 1_555
C44_12 C39_12 1_555 1_555
C45_12 C38_12 1_555 1_555
C46_7 C42_7 1_555 1_555
C47_7 C46_7 1_555 1_555
C48_7 H21_7 1_555 1_555
C49_7 C47_7 1_555 1_555
C50_7 C49_7 1_555 1_555
H22_7 C50_7 1_555 1_555
C51_7 C50_7 1_555 1_555
H23_7 C51_7 1_555 1_555
C52_7 C51_7 1_555 1_555
C53_7 C48_7 1_555 1_555
H24_7 C53_7 1_555 1_555
O12_4 C34_12 1_555 1_555
Zr9_4 O1_6 1_555 1_555
Zr4_4 O12_4 1_555 1_555
O17_8 Zr9_4 1_555 1_555
O21_7 Zr9_4 1_555 1_555
Zr12 O8_5 1_555 1_555
O30_5 Zr9_4 1_555 1_555
C11_12 C12_12 1_555 1_555
C22_7 C24_7 1_555 1_555
C23_7 C25_7 1_555 1_555
C28_7 C29_7 1_555 1_555
C32_7 C33_7 1_555 1_555
O11_5 Zr12 1_555 1_555
C44_12 C45_12 1_555 1_555
C48_7 C49_7 1_555 1_555
C52_7 C53_7 1_555 1_555
Zr4_3 O2_6 1_555 1_555
O1_7 C1_13 1_555 1_555
O2_6 C3_8 1_555 1_555
O3_6 C3_8 1_555 1_555
C1_13 C2_13 1_555 1_555
C2_13 C4_8 1_555 1_555
C3_8 C19_8 1_555 1_555
C4_8 H1_8 1_555 1_555
C5_13 C7_8 1_555 1_555
C6_13 C8_8 1_555 1_555
C7_8 H2_8 1_555 1_555
C8_8 C4_8 1_555 1_555
H3_8 C8_8 1_555 1_555
C9_8 C7_8 1_555 1_555
C10_13 C9_8 1_555 1_555
H4_13 C10_13 1_555 1_555
C11_13 C6_13 1_555 1_555
C12_13 C5_13 1_555 1_555
C13_8 C9_8 1_555 1_555
C14_8 C13_8 1_555 1_555
C15_8 H5_8 1_555 1_555
C16_8 C14_8 1_555 1_555
C17_8 C16_8 1_555 1_555
H6_8 C17_8 1_555 1_555
C18_8 C17_8 1_555 1_555
H7_8 C18_8 1_555 1_555
C19_8 C18_8 1_555 1_555
C20_8 C15_8 1_555 1_555
H8_8 C20_8 1_555 1_555
Zr12_11 O3_6 1_555 1_555
O4_9 Zr4_3 1_555 1_555
H9_13 O4_9 1_555 1_555
O19_6 C1_13 1_555 1_555
O7_6 C21_8 1_555 1_555
O8_6 C21_8 1_555 1_555
C21_8 C32_8 1_555 1_555
C22_8 C2_13 1_555 1_555
H10_8 C22_8 1_555 1_555
C23_8 C5_13 1_555 1_555
H11_8 C23_8 1_555 1_555
C24_8 C6_13 1_555 1_555
H12_8 C24_8 1_555 1_555
C25_8 C10_13 1_555 1_555
C26_8 C25_8 1_555 1_555
C27_8 C26_8 1_555 1_555
C28_8 H13_8 1_555 1_555
C29_8 C27_8 1_555 1_555
C30_8 C29_8 1_555 1_555
H14_8 C30_8 1_555 1_555
C31_8 C30_8 1_555 1_555
H15_8 C31_8 1_555 1_555
C32_8 C31_8 1_555 1_555
C33_8 C28_8 1_555 1_555
H16_8 C33_8 1_555 1_555
H32_13 O26_9 1_555 1_555
O28_7 Zr4_3 1_555 1_555
Zr10 O1_7 1_555 1_555
Zr10_3 O4_9 1_555 1_555
Zr9_3 O7_6 1_555 1_555
O17_9 Zr10 1_555 1_555
O19_9 Zr4_3 1_555 1_555
O24_7 Zr12_11 1_555 1_555
Zr12_9 O8_6 1_555 1_555
C11_13 C12_13 1_555 1_555
C15_8 C16_8 1_555 1_555
C19_8 C20_8 1_555 1_555
Zr12_11 O4_9 1_555 1_555
Zr12_11 O30_4 1_555 1_555
C22_8 C24_8 1_555 1_555
C23_8 C25_8 1_555 1_555
C28_8 C29_8 1_555 1_555
C32_8 C33_8 1_555 1_555
O17_2 C34_13 1_555 1_555
O10_7 C36_8 1_555 1_555
O11_6 C36_8 1_555 1_555
C34_13 C35_13 1_555 1_555
C35_13 C37_8 1_555 1_555
C36_8 C52_8 1_555 1_555
C37_8 H17_8 1_555 1_555
C38_13 C40_8 1_555 1_555
C39_13 C41_8 1_555 1_555
C40_8 H18_8 1_555 1_555
C41_8 C37_8 1_555 1_555
H19_8 C41_8 1_555 1_555
C42_8 C40_8 1_555 1_555
C43_13 C42_8 1_555 1_555
H20_13 C43_13 1_555 1_555
C44_13 C39_13 1_555 1_555
C45_13 C38_13 1_555 1_555
C46_8 C42_8 1_555 1_555
C47_8 C46_8 1_555 1_555
C48_8 H21_8 1_555 1_555
C49_8 C47_8 1_555 1_555
C50_8 C49_8 1_555 1_555
H22_8 C50_8 1_555 1_555
C51_8 C50_8 1_555 1_555
H23_8 C51_8 1_555 1_555
C52_8 C51_8 1_555 1_555
C53_8 C48_8 1_555 1_555
H24_8 C53_8 1_555 1_555
O19 C34_13 1_555 1_555
O21_7 C54_8 1_555 1_555
O14_6 Zr12_12 1_555 1_555
C54_8 O14_6 1_555 1_555
C55_8 C35_13 1_555 1_555
H25_8 C55_8 1_555 1_555
C56_8 C38_13 1_555 1_555
H26_8 C56_8 1_555 1_555
C57_8 C39_13 1_555 1_555
H27_8 C57_8 1_555 1_555
C58_8 C43_13 1_555 1_555
C59_8 C58_8 1_555 1_555
C60_8 C59_8 1_555 1_555
C61_8 H28_8 1_555 1_555
C62_8 C60_8 1_555 1_555
C63_8 C62_8 1_555 1_555
H29_8 C63_8 1_555 1_555
C64_8 C63_8 1_555 1_555
H30_8 C64_8 1_555 1_555
C65_8 C54_8 1_555 1_555
C66_8 C61_8 1_555 1_555
H31_8 C66_8 1_555 1_555
H32_14 O26_10 1_555 1_555
Zr4_4 O10_7 1_555 1_555
O23_7 Zr12_12 1_555 1_555
Zr12_12 O30_5 1_555 1_555
O11_6 Zr12_10 1_555 1_555
C44_13 C45_13 1_555 1_555
C48_8 C49_8 1_555 1_555
C52_8 C53_8 1_555 1_555
C55_8 C57_8 1_555 1_555
C56_8 C58_8 1_555 1_555
C61_8 C62_8 1_555 1_555
C64_8 C65_8 1_555 1_555
C65_8 C66_8 1_555 1_555
Zr5 O2_7 1_555 1_555
O1_8 C1_14 1_555 1_555
O2_7 C3_9 1_555 1_555
O3_7 C3_9 1_555 1_555
C1_14 C2_14 1_555 1_555
C2_14 C4_9 1_555 1_555
C3_9 C19_9 1_555 1_555
C4_9 H1_9 1_555 1_555
C5_14 C7_9 1_555 1_555
C6_14 C8_9 1_555 1_555
C7_9 H2_9 1_555 1_555
C8_9 C4_9 1_555 1_555
H3_9 C8_9 1_555 1_555
C9_9 C7_9 1_555 1_555
C10_14 C9_9 1_555 1_555
H4_14 C10_14 1_555 1_555
C11_14 C6_14 1_555 1_555
C12_14 C5_14 1_555 1_555
C13_9 C9_9 1_555 1_555
C14_9 C13_9 1_555 1_555
C15_9 H5_9 1_555 1_555
C16_9 C14_9 1_555 1_555
C17_9 C16_9 1_555 1_555
H6_9 C17_9 1_555 1_555
C18_9 C17_9 1_555 1_555
H7_9 C18_9 1_555 1_555
C19_9 C18_9 1_555 1_555
C20_9 C15_9 1_555 1_555
H8_9 C20_9 1_555 1_555
Zr12_3 O3_7 1_555 1_555
H9_14 O27_4 1_555 1_555
O18_5 C1_14 1_555 1_555
O22 C21_9 1_555 1_555
O8_7 C21_9 1_555 1_555
C21_9 C32_9 1_555 1_555
C22_9 C2_14 1_555 1_555
H10_9 C22_9 1_555 1_555
C23_9 C5_14 1_555 1_555
H11_9 C23_9 1_555 1_555
C24_9 C6_14 1_555 1_555
H12_9 C24_9 1_555 1_555
C25_9 C10_14 1_555 1_555
C26_9 C25_9 1_555 1_555
C27_9 C26_9 1_555 1_555
C28_9 H13_9 1_555 1_555
C29_9 C27_9 1_555 1_555
C30_9 C29_9 1_555 1_555
H14_9 C30_9 1_555 1_555
C31_9 C30_9 1_555 1_555
H15_9 C31_9 1_555 1_555
C32_9 C31_9 1_555 1_555
C33_9 C28_9 1_555 1_555
H16_9 C33_9 1_555 1_555
H32_15 O26_2 1_555 1_555
Zr9_3 O1_8 1_555 1_555
O20_8 Zr5 1_555 1_555
O24_8 Zr12_3 1_555 1_555
Zr12_7 O8_7 1_555 1_555
O29_5 Zr9_3 1_555 1_555
C11_14 C12_14 1_555 1_555
C15_9 C16_9 1_555 1_555
C19_9 C20_9 1_555 1_555
Zr12_3 O27_4 1_555 1_555
Zr12_3 O30_2 1_555 1_555
C22_9 C24_9 1_555 1_555
C23_9 C25_9 1_555 1_555
C28_9 C29_9 1_555 1_555
C32_9 C33_9 1_555 1_555
O9_5 C34_14 1_555 1_555
O20_4 C36_9 1_555 1_555
O11_7 C36_9 1_555 1_555
C34_14 C35_14 1_555 1_555
C35_14 C37_9 1_555 1_555
C36_9 C52_9 1_555 1_555
C37_9 H17_9 1_555 1_555
C38_14 C40_9 1_555 1_555
C39_14 C41_9 1_555 1_555
C40_9 H18_9 1_555 1_555
C41_9 C37_9 1_555 1_555
H19_9 C41_9 1_555 1_555
C42_9 C40_9 1_555 1_555
C43_14 C42_9 1_555 1_555
H20_14 C43_14 1_555 1_555
C44_14 C39_14 1_555 1_555
C45_14 C38_14 1_555 1_555
C46_9 C42_9 1_555 1_555
C47_9 C46_9 1_555 1_555
C48_9 H21_9 1_555 1_555
C49_9 C47_9 1_555 1_555
C50_9 C49_9 1_555 1_555
H22_9 C50_9 1_555 1_555
C51_9 C50_9 1_555 1_555
H23_9 C51_9 1_555 1_555
C52_9 C51_9 1_555 1_555
C53_9 C48_9 1_555 1_555
H24_9 C53_9 1_555 1_555
O19_9 C34_14 1_555 1_555
O21_5 C54_9 1_555 1_555
O14_7 Zr12_4 1_555 1_555
C54_9 O14_7 1_555 1_555
C55_9 C35_14 1_555 1_555
H25_9 C55_9 1_555 1_555
C56_9 C38_14 1_555 1_555
H26_9 C56_9 1_555 1_555
C57_9 C39_14 1_555 1_555
H27_9 C57_9 1_555 1_555
C58_9 C43_14 1_555 1_555
C59_9 C58_9 1_555 1_555
C60_9 C59_9 1_555 1_555
C61_9 H28_9 1_555 1_555
C62_9 C60_9 1_555 1_555
C63_9 C62_9 1_555 1_555
H29_9 C63_9 1_555 1_555
C64_9 C63_9 1_555 1_555
H30_9 C64_9 1_555 1_555
C65_9 C54_9 1_555 1_555
C66_9 C61_9 1_555 1_555
H31_9 C66_9 1_555 1_555
H32_16 O26_3 1_555 1_555
Zr10_3 O9_5 1_555 1_555
O23_8 Zr12_4 1_555 1_555
Zr12_4 O30_3 1_555 1_555
O11_7 Zr12_8 1_555 1_555
C44_14 C45_14 1_555 1_555
C48_9 C49_9 1_555 1_555
C52_9 C53_9 1_555 1_555
C55_9 C57_9 1_555 1_555
C56_9 C58_9 1_555 1_555
C61_9 C62_9 1_555 1_555
C64_9 C65_9 1_555 1_555
C65_9 C66_9 1_555 1_555
Zr6 O2_8 1_555 1_555
O17_7 C1_15 1_555 1_555
O2_8 C3_10 1_555 1_555
O3_8 C3_10 1_555 1_555
C1_15 C2_15 1_555 1_555
C2_15 C4_10 1_555 1_555
C3_10 C19_10 1_555 1_555
C4_10 H1_10 1_555 1_555
C5_15 C7_10 1_555 1_555
C6_15 C8_10 1_555 1_555
C7_10 H2_10 1_555 1_555
C8_10 C4_10 1_555 1_555
H3_10 C8_10 1_555 1_555
C9_10 C7_10 1_555 1_555
C10_15 C9_10 1_555 1_555
H4_15 C10_15 1_555 1_555
C11_15 C6_15 1_555 1_555
C12_15 C5_15 1_555 1_555
C13_10 C9_10 1_555 1_555
C14_10 C13_10 1_555 1_555
C15_10 H5_10 1_555 1_555
C16_10 C14_10 1_555 1_555
C17_10 C16_10 1_555 1_555
H6_10 C17_10 1_555 1_555
C18_10 C17_10 1_555 1_555
H7_10 C18_10 1_555 1_555
C19_10 C18_10 1_555 1_555
C20_10 C15_10 1_555 1_555
H8_10 C20_10 1_555 1_555
Zr12_7 O3_8 1_555 1_555
H9_15 O27 1_555 1_555
O29_3 Zr6 1_555 1_555
O6_5 C1_15 1_555 1_555
O22_3 C21_10 1_555 1_555
O24_8 C21_10 1_555 1_555
C21_10 C32_10 1_555 1_555
C22_10 C2_15 1_555 1_555
H10_10 C22_10 1_555 1_555
C23_10 C5_15 1_555 1_555
H11_10 C23_10 1_555 1_555
C24_10 C6_15 1_555 1_555
H12_10 C24_10 1_555 1_555
C25_10 C10_15 1_555 1_555
C26_10 C25_10 1_555 1_555
C27_10 C26_10 1_555 1_555
C28_10 H13_10 1_555 1_555
C29_10 C27_10 1_555 1_555
C30_10 C29_10 1_555 1_555
H14_10 C30_10 1_555 1_555
C31_10 C30_10 1_555 1_555
H15_10 C31_10 1_555 1_555
C32_10 C31_10 1_555 1_555
C33_10 C28_10 1_555 1_555
H16_10 C33_10 1_555 1_555
O26_5 Zr6 1_555 1_555
H32_17 O26_5 1_555 1_555
Zr4_4 O6_5 1_555 1_555
O20_9 Zr6 1_555 1_555
C11_15 C12_15 1_555 1_555
C15_10 C16_10 1_555 1_555
C19_10 C20_10 1_555 1_555
Zr12_7 O27 1_555 1_555
Zr12_7 O29_3 1_555 1_555
C22_10 C24_10 1_555 1_555
C23_10 C25_10 1_555 1_555
C28_10 C29_10 1_555 1_555
C32_10 C33_10 1_555 1_555
Zr4_4 O25_3 1_555 1_555
Zr4_4 O28_6 1_555 1_555
O17_8 C34_15 1_555 1_555
O20_2 C36_10 1_555 1_555
O23_8 C36_10 1_555 1_555
C34_15 C35_15 1_555 1_555
C35_15 C37_10 1_555 1_555
C36_10 C52_10 1_555 1_555
C37_10 H17_10 1_555 1_555
C38_15 C40_10 1_555 1_555
C39_15 C41_10 1_555 1_555
C40_10 H18_10 1_555 1_555
C41_10 C37_10 1_555 1_555
H19_10 C41_10 1_555 1_555
C42_10 C40_10 1_555 1_555
C43_15 C42_10 1_555 1_555
H20_15 C43_15 1_555 1_555
C44_15 C39_15 1_555 1_555
C45_15 C38_15 1_555 1_555
C46_10 C42_10 1_555 1_555
C47_10 C46_10 1_555 1_555
C48_10 H21_10 1_555 1_555
C49_10 C47_10 1_555 1_555
C50_10 C49_10 1_555 1_555
H22_10 C50_10 1_555 1_555
C51_10 C50_10 1_555 1_555
H23_10 C51_10 1_555 1_555
C52_10 C51_10 1_555 1_555
C53_10 C48_10 1_555 1_555
H24_10 C53_10 1_555 1_555
O18_6 C34_15 1_555 1_555
O22_5 C54_10 1_555 1_555
O14_8 Zr12_8 1_555 1_555
C54_10 O14_8 1_555 1_555
C55_10 C35_15 1_555 1_555
H25_10 C55_10 1_555 1_555
C56_10 C38_15 1_555 1_555
H26_10 C56_10 1_555 1_555
C57_10 C39_15 1_555 1_555
H27_10 C57_10 1_555 1_555
C58_10 C43_15 1_555 1_555
C59_10 C58_10 1_555 1_555
C60_10 C59_10 1_555 1_555
C61_10 H28_10 1_555 1_555
C62_10 C60_10 1_555 1_555
C63_10 C62_10 1_555 1_555
H29_10 C63_10 1_555 1_555
C64_10 C63_10 1_555 1_555
H30_10 C64_10 1_555 1_555
C65_10 C54_10 1_555 1_555
C66_10 C61_10 1_555 1_555
H31_10 C66_10 1_555 1_555
H32_18 O26_6 1_555 1_555
Zr12_8 O29_4 1_555 1_555
C44_15 C45_15 1_555 1_555
C48_10 C49_10 1_555 1_555
C52_10 C53_10 1_555 1_555
C55_10 C57_10 1_555 1_555
C56_10 C58_10 1_555 1_555
C61_10 C62_10 1_555 1_555
C64_10 C65_10 1_555 1_555
C65_10 C66_10 1_555 1_555
H32_19 O26_7 1_555 1_555
O23_9 Zr12_9 1_555 1_555
Zr12_9 O29_5 1_555 1_555
H9_16 O25_3 1_555 1_555
O29_6 Zr4_4 1_555 1_555
O26_8 Zr4_4 1_555 1_555
H32_20 O26_8 1_555 1_555
O24_9 Zr12_10 1_555 1_555
Zr12_10 O25_3 1_555 1_555
Zr12_10 O29_6 1_555 1_555
O22_6 Zr10_3 1_555 1_555
O17_4 C34_16 1_555 1_555
O20_5 C36_11 1_555 1_555
O23_9 C36_11 1_555 1_555
C34_16 C35_16 1_555 1_555
C35_16 C37_11 1_555 1_555
C36_11 C52_11 1_555 1_555
C37_11 H17_11 1_555 1_555
C38_16 C40_11 1_555 1_555
C39_16 C41_11 1_555 1_555
C40_11 H18_11 1_555 1_555
C41_11 C37_11 1_555 1_555
H19_11 C41_11 1_555 1_555
C42_11 C40_11 1_555 1_555
C43_16 C42_11 1_555 1_555
H20_16 C43_16 1_555 1_555
C44_16 C39_16 1_555 1_555
C45_16 C38_16 1_555 1_555
C46_11 C42_11 1_555 1_555
C47_11 C46_11 1_555 1_555
C48_11 H21_11 1_555 1_555
C49_11 C47_11 1_555 1_555
C50_11 C49_11 1_555 1_555
H22_11 C50_11 1_555 1_555
C51_11 C50_11 1_555 1_555
H23_11 C51_11 1_555 1_555
C52_11 C51_11 1_555 1_555
C53_11 C48_11 1_555 1_555
H24_11 C53_11 1_555 1_555
O19_3 C34_16 1_555 1_555
O22_6 C54_11 1_555 1_555
C54_11 O24_7 1_555 1_555
C55_11 C35_16 1_555 1_555
H25_11 C55_11 1_555 1_555
C56_11 C38_16 1_555 1_555
H26_11 C56_11 1_555 1_555
C57_11 C39_16 1_555 1_555
H27_11 C57_11 1_555 1_555
C58_11 C43_16 1_555 1_555
C59_11 C58_11 1_555 1_555
C60_11 C59_11 1_555 1_555
C61_11 H28_11 1_555 1_555
C62_11 C60_11 1_555 1_555
C63_11 C62_11 1_555 1_555
H29_11 C63_11 1_555 1_555
C64_11 C63_11 1_555 1_555
H30_11 C64_11 1_555 1_555
C65_11 C54_11 1_555 1_555
C66_11 C61_11 1_555 1_555
H31_11 C66_11 1_555 1_555
C44_16 C45_16 1_555 1_555
C48_11 C49_11 1_555 1_555
C52_11 C53_11 1_555 1_555
C55_11 C57_11 1_555 1_555
C56_11 C58_11 1_555 1_555
C61_11 C62_11 1_555 1_555
C64_11 C65_11 1_555 1_555
C65_11 C66_11 1_555 1_555
O1_9 C1_16 1_555 1_555
O20_7 C3_11 1_555 1_555
O23_7 C3_11 1_555 1_555
C1_16 C2_16 1_555 1_555
C2_16 C4_11 1_555 1_555
C3_11 C19_11 1_555 1_555
C4_11 H1_11 1_555 1_555
C5_16 C7_11 1_555 1_555
C6_16 C8_11 1_555 1_555
C7_11 H2_11 1_555 1_555
C8_11 C4_11 1_555 1_555
H3_11 C8_11 1_555 1_555
C9_11 C7_11 1_555 1_555
C10_16 C9_11 1_555 1_555
H4_16 C10_16 1_555 1_555
C11_16 C6_16 1_555 1_555
C12_16 C5_16 1_555 1_555
C13_11 C9_11 1_555 1_555
C14_11 C13_11 1_555 1_555
C15_11 H5_11 1_555 1_555
C16_11 C14_11 1_555 1_555
C17_11 C16_11 1_555 1_555
H6_11 C17_11 1_555 1_555
C18_11 C17_11 1_555 1_555
H7_11 C18_11 1_555 1_555
C19_11 C18_11 1_555 1_555
C20_11 C15_11 1_555 1_555
H8_11 C20_11 1_555 1_555
O19_8 C1_16 1_555 1_555
O21_6 C21_11 1_555 1_555
O24_9 C21_11 1_555 1_555
C21_11 C32_11 1_555 1_555
C22_11 C2_16 1_555 1_555
H10_11 C22_11 1_555 1_555
C23_11 C5_16 1_555 1_555
H11_11 C23_11 1_555 1_555
C24_11 C6_16 1_555 1_555
H12_11 C24_11 1_555 1_555
C25_11 C10_16 1_555 1_555
C26_11 C25_11 1_555 1_555
C27_11 C26_11 1_555 1_555
C28_11 H13_11 1_555 1_555
C29_11 C27_11 1_555 1_555
C30_11 C29_11 1_555 1_555
H14_11 C30_11 1_555 1_555
C31_11 C30_11 1_555 1_555
H15_11 C31_11 1_555 1_555
C32_11 C31_11 1_555 1_555
C33_11 C28_11 1_555 1_555
H16_11 C33_11 1_555 1_555
Zr9 O1_9 1_555 1_555
O17_10 Zr9 1_555 1_555
C11_16 C12_16 1_555 1_555
C15_11 C16_11 1_555 1_555
C19_11 C20_11 1_555 1_555
C22_11 C24_11 1_555 1_555
C23_11 C25_11 1_555 1_555
C28_11 C29_11 1_555 1_555
C32_11 C33_11 1_555 1_555
O20_9 C3_12 1_555 1_555
O23_4 C3_12 1_555 1_555
C1_17 C2_17 1_555 1_555
C2_17 C4_12 1_555 1_555
C3_12 C19_12 1_555 1_555
C4_12 H1_12 1_555 1_555
C5_17 C7_12 1_555 1_555
C6_17 C8_12 1_555 1_555
C7_12 H2_12 1_555 1_555
C8_12 C4_12 1_555 1_555
H3_12 C8_12 1_555 1_555
C9_12 C7_12 1_555 1_555
C10_17 C9_12 1_555 1_555
H4_17 C10_17 1_555 1_555
C11_17 C6_17 1_555 1_555
C12_17 C5_17 1_555 1_555
C13_12 C9_12 1_555 1_555
C14_12 C13_12 1_555 1_555
C15_12 H5_12 1_555 1_555
C16_12 C14_12 1_555 1_555
C17_12 C16_12 1_555 1_555
H6_12 C17_12 1_555 1_555
C18_12 C17_12 1_555 1_555
H7_12 C18_12 1_555 1_555
C19_12 C18_12 1_555 1_555
C20_12 C15_12 1_555 1_555
H8_12 C20_12 1_555 1_555
O18 C1_17 1_555 1_555
O17_9 C34_17 1_555 1_555
C34_17 C35_17 1_555 1_555
H20_17 C43_17 1_555 1_555
C44_17 C39_17 1_555 1_555
C45_17 C38_17 1_555 1_555
O21 C54_12 1_555 1_555
C54_12 O24_4 1_555 1_555
C55_12 C35_17 1_555 1_555
H25_12 C55_12 1_555 1_555
C56_12 C38_17 1_555 1_555
H26_12 C56_12 1_555 1_555
C57_12 C39_17 1_555 1_555
H27_12 C57_12 1_555 1_555
C58_12 C43_17 1_555 1_555
C59_12 C58_12 1_555 1_555
C60_12 C59_12 1_555 1_555
C61_12 H28_12 1_555 1_555
C62_12 C60_12 1_555 1_555
C63_12 C62_12 1_555 1_555
H29_12 C63_12 1_555 1_555
C64_12 C63_12 1_555 1_555
H30_12 C64_12 1_555 1_555
C65_12 C54_12 1_555 1_555
C66_12 C61_12 1_555 1_555
H31_12 C66_12 1_555 1_555
C11_17 C12_17 1_555 1_555
C15_12 C16_12 1_555 1_555
C19_12 C20_12 1_555 1_555
C44_17 C45_17 1_555 1_555
C55_12 C57_12 1_555 1_555
C56_12 C58_12 1_555 1_555
C61_12 C62_12 1_555 1_555
C64_12 C65_12 1_555 1_555
C65_12 C66_12 1_555 1_555
O17_10 C1_18 1_555 1_555
C1_18 C2_18 1_555 1_555
H4_18 C10_18 1_555 1_555
C11_18 C6_18 1_555 1_555
C12_18 C5_18 1_555 1_555
O21_3 C21_12 1_555 1_555
O24_2 C21_12 1_555 1_555
C21_12 C32_12 1_555 1_555
C22_12 C2_18 1_555 1_555
H10_12 C22_12 1_555 1_555
C23_12 C5_18 1_555 1_555
H11_12 C23_12 1_555 1_555
C24_12 C6_18 1_555 1_555
H12_12 C24_12 1_555 1_555
C25_12 C10_18 1_555 1_555
C26_12 C25_12 1_555 1_555
C27_12 C26_12 1_555 1_555
C28_12 H13_12 1_555 1_555
C29_12 C27_12 1_555 1_555
C30_12 C29_12 1_555 1_555
H14_12 C30_12 1_555 1_555
C31_12 C30_12 1_555 1_555
H15_12 C31_12 1_555 1_555
C32_12 C31_12 1_555 1_555
C33_12 C28_12 1_555 1_555
H16_12 C33_12 1_555 1_555
O20_8 C36_12 1_555 1_555
O23_2 C36_12 1_555 1_555
C34_18 C35_18 1_555 1_555
C35_18 C37_12 1_555 1_555
C36_12 C52_12 1_555 1_555
C37_12 H17_12 1_555 1_555
C38_18 C40_12 1_555 1_555
C39_18 C41_12 1_555 1_555
C40_12 H18_12 1_555 1_555
C41_12 C37_12 1_555 1_555
H19_12 C41_12 1_555 1_555
C42_12 C40_12 1_555 1_555
C43_18 C42_12 1_555 1_555
H20_18 C43_18 1_555 1_555
C44_18 C39_18 1_555 1_555
C45_18 C38_18 1_555 1_555
C46_12 C42_12 1_555 1_555
C47_12 C46_12 1_555 1_555
C48_12 H21_12 1_555 1_555
C49_12 C47_12 1_555 1_555
C50_12 C49_12 1_555 1_555
H22_12 C50_12 1_555 1_555
C51_12 C50_12 1_555 1_555
H23_12 C51_12 1_555 1_555
C52_12 C51_12 1_555 1_555
C53_12 C48_12 1_555 1_555
H24_12 C53_12 1_555 1_555
O18_3 C34_18 1_555 1_555
C11_18 C12_18 1_555 1_555
C22_12 C24_12 1_555 1_555
C23_12 C25_12 1_555 1_555
C28_12 C29_12 1_555 1_555
C32_12 C33_12 1_555 1_555
C44_18 C45_18 1_555 1_555
C48_12 C49_12 1_555 1_555
C52_12 C53_12 1_555 1_555

#END
