
###############################################################################
#
# This file contains modified crystal structure data generated from the
# MOF subset of the Cambridge Structural Database (CSD) v543 
# hosted by the Cambridge Crystallographic Data Centre (CCDC).
#
# This work is licensed under the Creative Commons
# Attribution-NonCommercial-ShareAlike 4.0 International License.
# To view a copy of this license, visit
# http://creativecommons.org/licenses/by-nc-sa/4.0/
# or send a letter to
# Creative Commons, PO Box 1866, Mountain View, CA 94042, USA.
#
# CIF created using the CSD Python API on 29 September 2022
# The structure has been converted into the P1 space group
# The structure has a 3D framework
# The original CSD entry UFUMUD is in the monoclinic crystal system
# The framework has been calculated to contain at least 10.0% void space
# The void calculation uses a probe of radius 1.32A, grid spacing 0.4
#
###############################################################################

data_UFUMUD
_chemical_formula_moiety         '(C48 H32 Cu4 N8 O16)n'
_symmetry_cell_setting           triclinic
_symmetry_space_group_name_H-M   'P 1'
_symmetry_Int_Tables_number      1
_space_group_name_Hall           'P 1'
loop_
_symmetry_equiv_pos_site_id
_symmetry_equiv_pos_as_xyz
1 x,y,z
_cell_length_a                   4.9577(3)
_cell_length_b                   24.6312(15)
_cell_length_c                   11.2322(7)
_cell_angle_alpha                90
_cell_angle_beta                 98.325(1)
_cell_angle_gamma                90
_cell_volume                     1357.16
loop_
_atom_site_label
_atom_site_type_symbol
_atom_site_fract_x
_atom_site_fract_y
_atom_site_fract_z
H8 H 0.1711 0.0008 0.2120
Cu2 Cu 0.05728(4) 0.113878(9) 0.78317(3)
C11 C 0.0086(5) 0.99325(10) 0.1605(3)
Cu4 Cu 0.05728(4) 0.886122(9) 0.28317(3)
O2 O 0.1965(4) 0.15845(9) 0.5652(2)
O3 O 0.2877(4) 0.05965(9) 0.87703(19)
O4 O 0.6906(4) 0.10206(8) 0.88651(19)
H3 H 0.1331 0.2247 0.3895
C12 C 0.5411(5) 0.06530(10) 0.9151(2)
N3 N 0.2114(5) 0.17552(13) 0.8900(3)
N2 N 0.8914(5) 0.94482(11) 0.1691(2)
C7 C 0.6575(6) 0.93516(10) 0.0958(3)
H5 H 0.5725 0.9013 0.1002
C8 C 0.5373(6) 0.97273(11) 0.0146(3)
O1 O 0.8743(5) 0.17143(10) 0.6807(2)
N1 N 0.7114(5) 0.32448(13) 0.3900(3)
C1 C 0.6099(7) 0.31073(13) 0.4899(3)
H1 H 0.4756 0.3330 0.5157
C2 C 0.6945(7) 0.26513(13) 0.5565(3)
H2 H 0.6187 0.2567 0.6262
C3 C 0.8918(6) 0.23199(13) 0.5196(3)
C4 C 0.9981(5) 0.24627(10) 0.4167(3)
C5 C 0.9045(5) 0.29243(10) 0.3544(2)
H4 H 0.9782 0.3018 0.2847
C6 C 0.9988(6) 0.18278(13) 0.5927(3)
N4 N 0.8914(5) 0.05518(11) 0.6691(2)
Cu3 Cu 0.55728(4) 0.386122(9) 0.28317(3)
C11_2 C 0.0086(5) 0.00675(10) 0.6605(3)
H8_2 H 0.1711 0.9992 0.7120
C7_2 C 0.6575(6) 0.06484(10) 0.5958(3)
H5_2 H 0.5725 0.0987 0.6002
C8_2 C 0.5373(6) 0.02727(11) 0.5146(3)
H6 H 0.3712 0.0354 0.4663
O2_2 O 0.1965(4) 0.84155(9) 0.0652(2)
O3_2 O 0.2877(4) 0.94035(9) 0.37703(19)
O4_2 O 0.6906(4) 0.89794(8) 0.38651(19)
C9 C 0.6610(5) 0.97740(11) 0.5041(3)
C10 C 0.9025(6) 0.96732(10) 0.5795(3)
H7 H 0.9932 0.9340 0.5757
C12_2 C 0.5411(5) 0.93470(10) 0.4151(2)
N3_2 N 0.2114(5) 0.82448(13) 0.3900(3)
O1_2 O 0.8743(5) 0.82857(10) 0.1807(2)
H1_2 H 0.4756 0.6670 0.0157
C2_2 C 0.6945(7) 0.73487(13) 0.0565(3)
H2_2 H 0.6187 0.7433 0.1262
C3_2 C 0.8918(6) 0.76801(13) 0.0196(3)
C6_2 C 0.9988(6) 0.81722(13) 0.0927(3)
N1_2 N 0.7114(5) 0.67552(13) 0.8900(3)
C1_2 C 0.6099(7) 0.68927(13) 0.9899(3)
C4_2 C 0.9981(5) 0.75373(10) 0.9167(3)
C5_2 C 0.9045(5) 0.70757(10) 0.8544(2)
H4_2 H 0.9782 0.6982 0.7847
Cu3_2 Cu 0.55728(4) 0.613878(9) 0.78317(3)
N2_2 N 0.3914(5) 0.44482(11) 0.1691(2)
C7_3 C 0.1575(6) 0.43516(10) 0.0958(3)
H5_3 H 0.0725 0.4013 0.1002
C8_3 C 0.0373(6) 0.47273(11) 0.0146(3)
C9_2 C 0.1610(5) 0.52260(11) 0.0041(3)
C10_2 C 0.4025(6) 0.53268(10) 0.0795(3)
H7_2 H 0.4932 0.5660 0.0757
C11_3 C 0.5086(5) 0.49325(10) 0.1605(3)
H8_3 H 0.6711 0.5008 0.2120
O4_3 O 0.1906(4) 0.60206(8) 0.88651(19)
C12_3 C 0.0411(5) 0.56530(10) 0.9151(2)
O1_3 O 0.3743(5) 0.67143(10) 0.6807(2)
O2_3 O 0.6965(4) 0.65845(9) 0.5652(2)
O3_3 O 0.7877(4) 0.55965(9) 0.87703(19)
C1_3 C 0.1099(7) 0.81073(13) 0.4899(3)
C2_3 C 0.1945(7) 0.76513(13) 0.5565(3)
H2_3 H 0.1187 0.7567 0.6262
C3_3 C 0.3918(6) 0.73199(13) 0.5196(3)
C4_3 C 0.4981(5) 0.74627(10) 0.4167(3)
H3_2 H 0.6331 0.7247 0.3895
C5_3 C 0.4045(5) 0.79243(10) 0.3544(2)
H4_3 H 0.4782 0.8018 0.2847
C6_3 C 0.4988(6) 0.68278(13) 0.5927(3)
H6_2 H 0.8712 0.4646 0.9663
N4_2 N 0.3914(5) 0.55518(11) 0.6691(2)
O4_4 O 0.1906(4) 0.39794(8) 0.38651(19)
C7_4 C 0.1575(6) 0.56484(10) 0.5958(3)
H5_4 H 0.0725 0.5987 0.6002
C8_4 C 0.0373(6) 0.52727(11) 0.5146(3)
C9_3 C 0.1610(5) 0.47740(11) 0.5041(3)
C10_3 C 0.4025(6) 0.46732(10) 0.5795(3)
H7_3 H 0.4932 0.4340 0.5757
C11_4 C 0.5086(5) 0.50675(10) 0.6605(3)
H8_4 H 0.6711 0.4992 0.7120
C12_4 C 0.0411(5) 0.43470(10) 0.4151(2)
O1_4 O 0.3743(5) 0.32857(10) 0.1807(2)
O2_4 O 0.6965(4) 0.34155(9) 0.0652(2)
O3_4 O 0.7877(4) 0.44035(9) 0.37703(19)
C2_4 C 0.1945(7) 0.23487(13) 0.0565(3)
H2_4 H 0.1187 0.2433 0.1262
C3_4 C 0.3918(6) 0.26801(13) 0.0196(3)
C6_4 C 0.4988(6) 0.31722(13) 0.0927(3)
H6_3 H 0.8712 0.5354 0.4663
C1_4 C 0.1099(7) 0.18927(13) 0.9899(3)
C4_4 C 0.4981(5) 0.25373(10) 0.9167(3)
H3_3 H 0.6331 0.2753 0.8895
C5_4 C 0.4045(5) 0.20757(10) 0.8544(2)
H4_4 H 0.4782 0.1982 0.7847
C9_4 C 0.6610(5) 0.02260(11) 0.0041(3)
C10_4 C 0.9025(6) 0.03268(10) 0.0795(3)
H7_4 H 0.9932 0.0660 0.0757
H6_4 H 0.3712 0.9646 0.9663
H3_4 H 0.1331 0.7753 0.8895
H1_3 H 0.9756 0.8330 0.5157
H1_4 H 0.9756 0.1670 0.0157
loop_
_geom_bond_atom_site_label_1
_geom_bond_atom_site_label_2
_geom_bond_site_symmetry_1
_geom_bond_site_symmetry_2
O3 Cu2 1_555 1_555
O4 C12 1_555 1_555
C12 O3 1_555 1_555
N3 Cu2 1_555 1_555
N2 C7 1_555 1_555
C7 H5 1_555 1_555
C8 C7 1_555 1_555
O1 C6 1_555 1_555
N1 C1 1_555 1_555
C1 H1 1_555 1_555
C2 C1 1_555 1_555
H2 C2 1_555 1_555
C3 C2 1_555 1_555
C4 C3 1_555 1_555
C5 N1 1_555 1_555
H4 C5 1_555 1_555
C6 C3 1_555 1_555
Cu3 N1 1_555 1_555
C4 C5 1_555 1_555
N4 C7_2 1_555 1_555
C7_2 H5_2 1_555 1_555
C8_2 C7_2 1_555 1_555
H6 C8_2 1_555 1_555
O3_2 Cu4 1_555 1_555
O4_2 C12_2 1_555 1_555
C10 C9 1_555 1_555
H7 C10 1_555 1_555
C12_2 O3_2 1_555 1_555
N3_2 Cu4 1_555 1_555
C9 C12_2 1_555 1_555
O1_2 C6_2 1_555 1_555
H2_2 C2_2 1_555 1_555
C3_2 C2_2 1_555 1_555
C6_2 C3_2 1_555 1_555
N1_2 C1_2 1_555 1_555
C5_2 N1_2 1_555 1_555
H4_2 C5_2 1_555 1_555
Cu3_2 N1_2 1_555 1_555
C4_2 C5_2 1_555 1_555
N2_2 C7_3 1_555 1_555
C7_3 H5_3 1_555 1_555
C8_3 C7_3 1_555 1_555
C9_2 C8_3 1_555 1_555
C10_2 C9_2 1_555 1_555
H7_2 C10_2 1_555 1_555
C11_3 N2_2 1_555 1_555
H8_3 C11_3 1_555 1_555
Cu3 N2_2 1_555 1_555
C10_2 C11_3 1_555 1_555
O4_3 C12_3 1_555 1_555
Cu3_2 O4_3 1_555 1_555
Cu3_2 O1_3 1_555 1_555
O1_3 C6_3 1_555 1_555
O2_3 C6_3 1_555 1_555
O3_3 Cu3_2 1_555 1_555
N3_2 C1_3 1_555 1_555
C2_3 C1_3 1_555 1_555
H2_3 C2_3 1_555 1_555
C3_3 C2_3 1_555 1_555
C4_3 C3_3 1_555 1_555
H3_2 C4_3 1_555 1_555
C5_3 N3_2 1_555 1_555
H4_3 C5_3 1_555 1_555
C6_3 C3_3 1_555 1_555
N4_2 Cu3_2 1_555 1_555
C4_3 C5_3 1_555 1_555
O4_4 C12_4 1_555 1_555
N4_2 C7_4 1_555 1_555
C7_4 H5_4 1_555 1_555
C8_4 C7_4 1_555 1_555
C9_3 C8_4 1_555 1_555
C10_3 C9_3 1_555 1_555
H7_3 C10_3 1_555 1_555
C11_4 N4_2 1_555 1_555
H8_4 C11_4 1_555 1_555
Cu3 O4_4 1_555 1_555
C9_3 C12_4 1_555 1_555
C10_3 C11_4 1_555 1_555
Cu3 O1_4 1_555 1_555
O1_4 C6_4 1_555 1_555
O2_4 C6_4 1_555 1_555
O3_4 Cu3 1_555 1_555
H2_4 C2_4 1_555 1_555
C3_4 C2_4 1_555 1_555
C6_4 C3_4 1_555 1_555
N3 C1_4 1_555 1_555
H3_3 C4_4 1_555 1_555
C5_4 N3 1_555 1_555
H4_4 C5_4 1_555 1_555
C4_4 C5_4 1_555 1_555
C10_4 C9_4 1_555 1_555
H7_4 C10_4 1_555 1_555

#END
