
###############################################################################
#
# This file contains modified crystal structure data generated from the
# MOF subset of the Cambridge Structural Database (CSD) v543 
# hosted by the Cambridge Crystallographic Data Centre (CCDC).
#
# This work is licensed under the Creative Commons
# Attribution-NonCommercial-ShareAlike 4.0 International License.
# To view a copy of this license, visit
# http://creativecommons.org/licenses/by-nc-sa/4.0/
# or send a letter to
# Creative Commons, PO Box 1866, Mountain View, CA 94042, USA.
#
# CIF created using the CSD Python API on 29 September 2022
# The structure has been converted into the P1 space group
# The structure has a 3D framework
# The original CSD entry UFUMUD01 is in the monoclinic crystal system
# The framework has been calculated to contain at least 10.0% void space
# The void calculation uses a probe of radius 1.32A, grid spacing 0.4
#
###############################################################################

data_UFUMUD01
_chemical_formula_moiety         '(C48 H32 Cu4 N8 O12)n'
_symmetry_cell_setting           triclinic
_symmetry_space_group_name_H-M   'P 1'
_symmetry_Int_Tables_number      1
_space_group_name_Hall           'P 1'
loop_
_symmetry_equiv_pos_site_id
_symmetry_equiv_pos_as_xyz
1 x,y,z
_cell_length_a                   4.944(1)
_cell_length_b                   24.815(5)
_cell_length_c                   11.110(2)
_cell_angle_alpha                90
_cell_angle_beta                 98.19(2)
_cell_angle_gamma                90
_cell_volume                     1349.13
loop_
_atom_site_label
_atom_site_type_symbol
_atom_site_fract_x
_atom_site_fract_y
_atom_site_fract_z
O1 O 0.5533(13) 0.4388(2) 0.7086(5)
O2 O 0.1514(11) 0.3966(2) 0.6989(5)
C1 C 0.2966(15) 0.4336(3) 0.6711(6)
C2 C 0.1787(15) 0.4761(3) 0.5827(6)
C5 C 0.1816(17) 0.5639(3) 0.4933(8)
H3 H 0.2657 0.5972 0.4894
C6 C 0.3012(18) 0.5265(3) 0.5750(8)
H4 H 0.4631 0.5347 0.6251
O6 O 0.1514(11) 0.6034(2) 0.1989(5)
Cu2 Cu 0.78732(7) 0.38621(2) 0.80466(6)
Cu1 Cu 0.78732(7) 0.61379(2) 0.30466(6)
N1 N 0.9489(14) 0.5544(3) 0.4189(5)
N2 N 0.6349(15) 0.6752(3) 0.1993(6)
O4 O 0.1602(14) 0.8429(2) 0.0339(7)
C3 C 0.9362(16) 0.4673(3) 0.5035(7)
H1 H 0.8448 0.4345 0.5048
C4 C 0.8338(16) 0.5071(3) 0.4240(7)
H2 H 0.6746 0.5001 0.371
C7 C 0.3491(18) 0.8172(3) 0.0009(8)
C8 C 0.4569(18) 0.7686(3) 0.0720(8)
C9 C 0.647(2) 0.7360(4) 0.0314(8)
C10 C 0.731(2) 0.6888(4) 0.0957(8)
H6 H 0.8562 0.6662 0.066
C11 C 0.4446(16) 0.7068(3) 0.2365(6)
H7 H 0.3728 0.6968 0.3062
C12 C 0.3477(16) 0.7536(3) 0.1775(7)
H8 H 0.2149 0.7745 0.2067
O5 O 0.5533(13) 0.5612(2) 0.2086(5)
O7 O 0.9701(14) 0.6706(3) 0.4110(5)
C1_2 C 0.2966(15) 0.5664(3) 0.1711(6)
C2_2 C 0.1787(15) 0.5239(3) 0.0827(6)
C6_2 C 0.3012(18) 0.4735(3) 0.0750(8)
H4_2 H 0.4631 0.4653 0.1251
C5_2 C 0.1816(17) 0.4361(3) 0.9933(8)
H3_2 H 0.2657 0.4028 0.9894
C3_2 C 0.9362(16) 0.5327(3) 0.0035(7)
H1_2 H 0.8448 0.5655 0.0048
N1_2 N 0.9489(14) 0.4456(3) 0.9189(5)
N2_2 N 0.6349(15) 0.3248(3) 0.6993(6)
O3 O 0.4701(14) 0.1706(3) 0.4110(5)
O4_2 O 0.1602(14) 0.1571(2) 0.5339(7)
C4_2 C 0.8338(16) 0.4929(3) 0.9240(7)
H2_2 H 0.6746 0.4999 0.871
C7_2 C 0.3491(18) 0.1828(3) 0.5009(8)
C8_2 C 0.4569(18) 0.2314(3) 0.5720(8)
C9_2 C 0.647(2) 0.2640(4) 0.5314(8)
H5 H 0.7214 0.2549 0.4616
C10_2 C 0.731(2) 0.3112(4) 0.5957(8)
H6_2 H 0.8562 0.3338 0.566
C11_2 C 0.4446(16) 0.2932(3) 0.7365(6)
H7_2 H 0.3728 0.3032 0.8062
C12_2 C 0.3477(16) 0.2464(3) 0.6775(7)
H8_2 H 0.2149 0.2255 0.7067
O7_2 O 0.9701(14) 0.3294(3) 0.9110(5)
Cu4 Cu 0.28732(7) 0.11379(2) 0.30466(6)
N1_3 N 0.4489(14) 0.0544(3) 0.4189(5)
N2_3 N 0.1349(15) 0.1752(3) 0.1993(6)
C4_3 C 0.3338(16) 0.0071(3) 0.4240(7)
H2_3 H 0.1746 0.0001 0.371
C5_3 C 0.6816(17) 0.0639(3) 0.4933(8)
H3_3 H 0.7657 0.0972 0.4894
C6_3 C 0.8012(18) 0.0265(3) 0.5750(8)
H4_3 H 0.9631 0.0347 0.6251
C9_3 C 0.147(2) 0.2360(4) 0.0314(8)
C10_3 C 0.231(2) 0.1888(4) 0.0957(8)
H6_3 H 0.3562 0.1662 0.066
O5_2 O 0.0533(13) 0.0612(2) 0.2086(5)
O6_2 O 0.6514(11) 0.1034(2) 0.1989(5)
C1_3 C 0.7966(15) 0.0664(3) 0.1711(6)
C2_3 C 0.6787(15) 0.0239(3) 0.0827(6)
C3_3 C 0.4362(16) 0.0327(3) 0.0035(7)
H1_3 H 0.3448 0.0655 0.0048
O4_3 O 0.6602(14) 0.6571(2) 0.5339(7)
C7_3 C 0.8491(18) 0.6828(3) 0.5009(8)
C8_3 C 0.9569(18) 0.7314(3) 0.5720(8)
C11_3 C 0.9446(16) 0.7932(3) 0.7365(6)
H7_3 H 0.8728 0.8032 0.8062
C12_3 C 0.8477(16) 0.7464(3) 0.6775(7)
H8_3 H 0.7149 0.7255 0.7067
O3_2 O 0.4701(14) 0.8294(3) 0.9110(5)
H5_2 H 0.7214 0.7451 0.9616
Cu4_2 Cu 0.28732(7) 0.88621(2) 0.80466(6)
O1_2 O 0.0533(13) 0.9388(2) 0.7086(5)
O2_2 O 0.6514(11) 0.8966(2) 0.6989(5)
C1_4 C 0.7966(15) 0.9336(3) 0.6711(6)
C2_4 C 0.6787(15) 0.9761(3) 0.5827(6)
C3_4 C 0.4362(16) 0.9673(3) 0.5035(7)
H1_4 H 0.3448 0.9345 0.5048
N1_4 N 0.4489(14) 0.9456(3) 0.9189(5)
N2_4 N 0.1349(15) 0.8248(3) 0.6993(6)
C4_4 C 0.3338(16) 0.9929(3) 0.9240(7)
H2_4 H 0.1746 0.9999 0.871
C5_4 C 0.6816(17) 0.9361(3) 0.9933(8)
H3_4 H 0.7657 0.9028 0.9894
C9_4 C 0.147(2) 0.7640(4) 0.5314(8)
H5_3 H 0.2214 0.7549 0.4616
C10_4 C 0.231(2) 0.8112(4) 0.5957(8)
H6_4 H 0.3562 0.8338 0.566
H5_4 H 0.2214 0.2451 0.9616
O4_4 O 0.6602(14) 0.3429(2) 0.0339(7)
C7_4 C 0.8491(18) 0.3172(3) 0.0009(8)
C8_4 C 0.9569(18) 0.2686(3) 0.0720(8)
C11_4 C 0.9446(16) 0.2068(3) 0.2365(6)
H7_4 H 0.8728 0.1968 0.3062
C12_4 C 0.8477(16) 0.2536(3) 0.1775(7)
H8_4 H 0.7149 0.2745 0.2067
C6_4 C 0.8012(18) 0.9735(3) 0.0750(8)
H4_4 H 0.9631 0.9653 0.1251
loop_
_geom_bond_atom_site_label_1
_geom_bond_atom_site_label_2
_geom_bond_site_symmetry_1
_geom_bond_site_symmetry_2
O1 C1 1_555 1_555
O2 C1 1_555 1_555
C1 C2 1_555 1_555
H3 C5 1_555 1_555
C6 C2 1_555 1_555
H4 C6 1_555 1_555
Cu2 O1 1_555 1_555
C5 C6 1_555 1_555
Cu1 N1 1_555 1_555
N1 C4 1_555 1_555
N2 Cu1 1_555 1_555
O4 C7 1_555 1_555
C3 H1 1_555 1_555
C4 C3 1_555 1_555
H2 C4 1_555 1_555
C7 C8 1_555 1_555
C8 C9 1_555 1_555
C10 N2 1_555 1_555
H6 C10 1_555 1_555
C11 N2 1_555 1_555
H7 C11 1_555 1_555
C12 C8 1_555 1_555
H8 C12 1_555 1_555
O5 Cu1 1_555 1_555
O7 Cu1 1_555 1_555
C9 C10 1_555 1_555
C11 C12 1_555 1_555
O5 C1_2 1_555 1_555
O6 C1_2 1_555 1_555
C1_2 C2_2 1_555 1_555
C6_2 C2_2 1_555 1_555
H4_2 C6_2 1_555 1_555
H3_2 C5_2 1_555 1_555
C3_2 H1_2 1_555 1_555
Cu2 N1_2 1_555 1_555
N1_2 C4_2 1_555 1_555
N2_2 Cu2 1_555 1_555
O3 C7_2 1_555 1_555
O4_2 C7_2 1_555 1_555
H2_2 C4_2 1_555 1_555
C7_2 C8_2 1_555 1_555
C8_2 C9_2 1_555 1_555
C9_2 H5 1_555 1_555
C10_2 N2_2 1_555 1_555
H6_2 C10_2 1_555 1_555
C11_2 N2_2 1_555 1_555
H7_2 C11_2 1_555 1_555
C12_2 C8_2 1_555 1_555
H8_2 C12_2 1_555 1_555
O7_2 Cu2 1_555 1_555
Cu4 O3 1_555 1_555
C9_2 C10_2 1_555 1_555
C11_2 C12_2 1_555 1_555
Cu4 N1_3 1_555 1_555
N1_3 C4_3 1_555 1_555
N2_3 Cu4 1_555 1_555
H2_3 C4_3 1_555 1_555
C5_3 N1_3 1_555 1_555
H3_3 C5_3 1_555 1_555
H4_3 C6_3 1_555 1_555
C10_3 N2_3 1_555 1_555
H6_3 C10_3 1_555 1_555
O5_2 Cu4 1_555 1_555
O6_2 Cu4 1_555 1_555
C5_3 C6_3 1_555 1_555
C9_3 C10_3 1_555 1_555
O6_2 C1_3 1_555 1_555
C1_3 C2_3 1_555 1_555
C2_3 C3_3 1_555 1_555
C3_3 H1_3 1_555 1_555
O7 C7_3 1_555 1_555
O4_3 C7_3 1_555 1_555
C7_3 C8_3 1_555 1_555
H7_3 C11_3 1_555 1_555
C12_3 C8_3 1_555 1_555
H8_3 C12_3 1_555 1_555
C11_3 C12_3 1_555 1_555
Cu4_2 O3_2 1_555 1_555
Cu4_2 O1_2 1_555 1_555
O2_2 C1_4 1_555 1_555
C1_4 C2_4 1_555 1_555
C2_4 C3_4 1_555 1_555
C3_4 H1_4 1_555 1_555
Cu4_2 O2_2 1_555 1_555
Cu4_2 N1_4 1_555 1_555
N1_4 C4_4 1_555 1_555
N2_4 Cu4_2 1_555 1_555
H2_4 C4_4 1_555 1_555
C5_4 N1_4 1_555 1_555
H3_4 C5_4 1_555 1_555
C9_4 H5_3 1_555 1_555
C10_4 N2_4 1_555 1_555
H6_4 C10_4 1_555 1_555
C9_4 C10_4 1_555 1_555
O4_4 C7_4 1_555 1_555
C7_4 C8_4 1_555 1_555
H7_4 C11_4 1_555 1_555
C12_4 C8_4 1_555 1_555
H8_4 C12_4 1_555 1_555
C11_4 C12_4 1_555 1_555
H4_4 C6_4 1_555 1_555

#END
