
###############################################################################
#
# This file contains modified crystal structure data generated from the
# MOF subset of the Cambridge Structural Database (CSD) v543 
# hosted by the Cambridge Crystallographic Data Centre (CCDC).
#
# This work is licensed under the Creative Commons
# Attribution-NonCommercial-ShareAlike 4.0 International License.
# To view a copy of this license, visit
# http://creativecommons.org/licenses/by-nc-sa/4.0/
# or send a letter to
# Creative Commons, PO Box 1866, Mountain View, CA 94042, USA.
#
# CIF created using the CSD Python API on 29 September 2022
# The structure has been converted into the P1 space group
# The structure has a 3D framework
# The original CSD entry UGAQEY is in the tetragonal crystal system
# The original CSD entry UGAQEY is in a Sohncke space group
# The framework has been calculated to contain at least 10.0% void space
# The void calculation uses a probe of radius 1.32A, grid spacing 0.4
#
###############################################################################

data_UGAQEY
_chemical_formula_moiety         '(C160 H128 Mo8 N32 Ni8 O32)n'
_symmetry_cell_setting           triclinic
_symmetry_space_group_name_H-M   'P 1'
_symmetry_Int_Tables_number      1
_space_group_name_Hall           'P 1'
loop_
_symmetry_equiv_pos_site_id
_symmetry_equiv_pos_as_xyz
1 x,y,z
_cell_length_a                   13.1866(5)
_cell_length_b                   13.1866(5)
_cell_length_c                   29.4577(15)
_cell_angle_alpha                90
_cell_angle_beta                 90
_cell_angle_gamma                90
_cell_volume                     5122.29
loop_
_atom_site_label
_atom_site_type_symbol
_atom_site_fract_x
_atom_site_fract_y
_atom_site_fract_z
Mo2 Mo 0.11903(7) 0.03629(7) 0.63003(3)
O7 O 0.0833(6) 0.0293(6) 0.6865(2)
O8 O 0.0128(6) 0.0546(7) 0.5947(3)
O9 O 0.2060(5) 0.1375(5) 0.6253(2)
Mo1 Mo 0.38097(7) 0.53629(7) 0.61997(3)
Ni1 Ni 0.26149(10) 0.28031(10) 0.63292(5)
O1 O 0.4167(6) 0.5293(6) 0.5635(2)
O2 O 0.3186(5) 0.4223(5) 0.6369(2)
O3 O 0.4872(6) 0.5546(7) 0.6553(3)
O4 O 0.2940(5) 0.6375(5) 0.6247(2)
N1 N 0.1698(7) 0.3321(7) 0.5801(3)
N2 N 0.3832(7) 0.2396(6) 0.5913(3)
N3 N 0.7395(7) 0.1592(7) 0.4430(3)
C1 C 0.1216(8) 0.4195(8) 0.5834(3)
H1 H 0.1423 0.4639 0.6062
C2 C 0.0416(9) 0.4504(8) 0.5553(3)
H2 H 0.0085 0.5116 0.5605
C3 C 0.0125(8) 0.3878(8) 0.5194(3)
C4 C 0.0675(9) 0.2944(9) 0.5148(4)
H3 H 0.0529 0.2501 0.4911
C5 C 0.1416(8) 0.2715(9) 0.5456(3)
H4 H 0.1748 0.2097 0.5425
C6 C 0.7972(9) 0.0836(10) 0.4568(4)
H5 H 0.8489 0.0609 0.4379
C7 C 0.7832(10) 0.0357(10) 0.4994(4)
C8 C 0.7073(11) 0.0701(10) 0.5283(4)
H7 H 0.6994 0.0422 0.5571
C9 C 0.6428(8) 0.1478(8) 0.5133(3)
C10 C 0.6647(8) 0.1909(8) 0.4704(3)
H8 H 0.6247 0.2446 0.4605
C11 C 0.4119(9) 0.2874(9) 0.5536(3)
H9 H 0.3729 0.3422 0.5441
C12 C 0.4932(9) 0.2624(9) 0.5279(4)
H10 H 0.5083 0.3000 0.5021
C13 C 0.5543(9) 0.1807(9) 0.5401(3)
C14 C 0.5243(9) 0.1289(9) 0.5789(4)
H11 H 0.5613 0.0729 0.5886
C15 C 0.4423(9) 0.1586(9) 0.6026(4)
H12 H 0.4248 0.1216 0.6283
Ni2 Ni 0.23851(10) 0.78031(10) 0.61708(5)
N6 N 0.3408(7) 0.2395(7) 0.6930(3)
C21 C 0.4164(10) 0.2972(9) 0.7068(4)
H17 H 0.4391 0.3489 0.6879
C22 C 0.4643(10) 0.2832(10) 0.7494(4)
H18 H 0.5182 0.3245 0.7580
C23 C 0.4299(10) 0.2073(11) 0.7783(4)
H19 H 0.4578 0.1994 0.8071
C24 C 0.3522(8) 0.1428(8) 0.7633(3)
C25 C 0.3091(8) 0.1647(8) 0.7204(3)
H20 H 0.2554 0.1247 0.7105
H22 H 0.2000 0.0083 0.7521
C28 C 0.3193(9) 0.0543(9) 0.7901(3)
C29 C 0.3711(9) 0.0243(9) 0.8289(4)
H23 H 0.4271 0.0613 0.8386
N7 N 0.1679(7) 0.6698(7) 0.8301(3)
N8 N 0.1416(7) 0.3211(6) 0.6769(3)
C31 C 0.0805(8) 0.6216(8) 0.8334(3)
H25 H 0.0361 0.6423 0.8562
C32 C 0.0496(8) 0.5416(9) 0.8053(3)
C33 C 0.1122(8) 0.5125(8) 0.7694(3)
C34 C 0.2056(9) 0.5675(9) 0.7648(4)
H27 H 0.2499 0.5529 0.7411
C35 C 0.2285(9) 0.6416(8) 0.7956(3)
H28 H 0.2903 0.6748 0.7925
C36 C 0.0459(9) 0.2887(9) 0.6725(3)
H29 H 0.0308 0.2423 0.6497
C39 C 0.0859(8) 0.4321(9) 0.7373(4)
C40 C 0.1589(9) 0.3873(8) 0.7084(3)
H32 H 0.2259 0.4074 0.7124
O6 O 0.1814(5) 0.9223(5) 0.6131(2)
Ni3 Ni 0.78031(10) 0.23851(10) 0.38292(5)
N9 N 0.3302(7) 0.8321(7) 0.6699(3)
N10 N 0.1168(7) 0.7396(6) 0.6587(3)
N11 N 0.1592(7) 0.7395(7) 0.5570(3)
N12 N 0.3584(7) 0.8211(6) 0.5731(3)
Ni6 Ni 0.21969(10) 0.76149(10) 0.88292(5)
H6 H 0.8245 0.9818 0.5080
N5 N 0.2604(6) 0.8832(7) 0.8413(3)
C26 C 0.2126(9) 0.9119(9) 0.8036(3)
H21 H 0.1578 0.8729 0.7941
C27 C 0.2376(9) 0.9932(9) 0.7779(4)
C30 C 0.3414(9) 0.9423(9) 0.8526(4)
H24 H 0.3784 0.9248 0.8783
N4 N 0.8211(6) 0.3584(7) 0.4269(3)
C16 C 0.7887(9) 0.4541(9) 0.4225(3)
H13 H 0.7423 0.4692 0.3997
C17 C 0.8220(9) 0.5325(9) 0.4510(4)
H14 H 0.7954 0.5974 0.4478
C18 C 0.8925(8) 0.5139(9) 0.4830(4)
H15 H 0.9149 0.5656 0.5020
C19 C 0.9321(9) 0.4141(8) 0.4873(4)
C20 C 0.8873(8) 0.3411(9) 0.4584(3)
H16 H 0.9074 0.2741 0.4624
H26 H 0.9884 0.5085 0.8105
C37 C 0.9675(9) 0.3220(9) 0.7010(4)
H30 H 0.9026 0.2954 0.6978
C38 C 0.9861(9) 0.3925(8) 0.7330(4)
H31 H 0.9344 0.4149 0.7520
H15_2 H 0.0851 0.4344 0.0020
H26_2 H 0.0116 0.4915 0.3105
C37_2 C 0.0325(9) 0.6780(9) 0.2010(4)
H30_2 H 0.0974 0.7046 0.1978
C38_2 C 0.0139(9) 0.6075(8) 0.2330(4)
H31_2 H 0.0656 0.5851 0.2520
N4_2 N 0.1789(6) 0.6416(7) 0.9269(3)
C16_2 C 0.2113(9) 0.5459(9) 0.9225(3)
H13_2 H 0.2577 0.5308 0.8997
C17_2 C 0.1780(9) 0.4675(9) 0.9510(4)
H14_2 H 0.2046 0.4026 0.9478
C18_2 C 0.1075(8) 0.4861(9) 0.9830(4)
C19_2 C 0.0679(9) 0.5859(8) 0.9873(4)
C20_2 C 0.1127(8) 0.6589(9) 0.9584(3)
H16_2 H 0.0926 0.7259 0.9624
H6_2 H 0.1755 0.0182 0.0080
N5_2 N 0.7396(6) 0.1168(7) 0.3413(3)
C26_2 C 0.7874(9) 0.0881(9) 0.3036(3)
H21_2 H 0.8422 0.1271 0.2941
C27_2 C 0.7624(9) 0.0068(9) 0.2779(4)
C30_2 C 0.6586(9) 0.0577(9) 0.3526(4)
H24_2 H 0.6216 0.0752 0.3783
Mo1_2 Mo 0.61903(7) 0.46371(7) 0.11997(3)
Ni1_2 Ni 0.73851(10) 0.71969(10) 0.13292(5)
O1_2 O 0.5833(6) 0.4707(6) 0.0635(2)
O2_2 O 0.6814(5) 0.5777(5) 0.1369(2)
O3_2 O 0.5128(6) 0.4454(7) 0.1553(3)
O4_2 O 0.7060(5) 0.3625(5) 0.1247(2)
N1_2 N 0.8302(7) 0.6679(7) 0.0801(3)
N2_2 N 0.6168(7) 0.7604(6) 0.0913(3)
C1_2 C 0.8784(8) 0.5805(8) 0.0834(3)
H1_2 H 0.8577 0.5361 0.1062
C2_2 C 0.9584(9) 0.5496(8) 0.0553(3)
H2_2 H 0.9915 0.4884 0.0605
C3_2 C 0.9875(8) 0.6122(8) 0.0194(3)
C4_2 C 0.9325(9) 0.7056(9) 0.0148(4)
C5_2 C 0.8584(8) 0.7285(9) 0.0456(3)
H4_2 H 0.8252 0.7903 0.0425
C8_2 C 0.2927(11) 0.9299(10) 0.0283(4)
H7_2 H 0.3006 0.9578 0.0571
C9_2 C 0.3572(8) 0.8522(8) 0.0133(3)
C11_2 C 0.5881(9) 0.7126(9) 0.0536(3)
H9_2 H 0.6271 0.6578 0.0441
C12_2 C 0.5068(9) 0.7376(9) 0.0279(4)
H10_2 H 0.4917 0.7000 0.0021
C13_2 C 0.4457(9) 0.8193(9) 0.0401(3)
C14_2 C 0.4757(9) 0.8711(9) 0.0789(4)
H11_2 H 0.4387 0.9271 0.0886
C15_2 C 0.5577(9) 0.8414(9) 0.1026(4)
H12_2 H 0.5752 0.8784 0.1283
Ni2_2 Ni 0.76149(10) 0.21969(10) 0.11708(5)
O5 O 0.7940(5) 0.8625(5) 0.1253(2)
N6_2 N 0.6592(7) 0.7605(7) 0.1930(3)
C21_2 C 0.5836(10) 0.7028(9) 0.2068(4)
H17_2 H 0.5609 0.6511 0.1879
C22_2 C 0.5357(10) 0.7168(10) 0.2494(4)
H18_2 H 0.4818 0.6755 0.2580
C23_2 C 0.5701(10) 0.7927(11) 0.2783(4)
H19_2 H 0.5422 0.8006 0.3071
C24_2 C 0.6478(8) 0.8572(8) 0.2633(3)
C25_2 C 0.6909(8) 0.8353(8) 0.2204(3)
H20_2 H 0.7446 0.8753 0.2105
H22_2 H 0.8000 0.9917 0.2521
C28_2 C 0.6807(9) 0.9457(9) 0.2901(3)
C29_2 C 0.6289(9) 0.9757(9) 0.3289(4)
H23_2 H 0.5729 0.9387 0.3386
N7_2 N 0.8321(7) 0.3302(7) 0.3301(3)
N8_2 N 0.8584(7) 0.6789(6) 0.1769(3)
C31_2 C 0.9195(8) 0.3784(8) 0.3334(3)
H25_2 H 0.9639 0.3577 0.3562
C32_2 C 0.9504(8) 0.4584(9) 0.3053(3)
C33_2 C 0.8878(8) 0.4875(8) 0.2694(3)
C34_2 C 0.7944(9) 0.4325(9) 0.2648(4)
H27_2 H 0.7501 0.4471 0.2411
C35_2 C 0.7715(9) 0.3584(8) 0.2956(3)
H28_2 H 0.7097 0.3252 0.2925
C36_2 C 0.9541(9) 0.7113(9) 0.1725(3)
H29_2 H 0.9692 0.7577 0.1497
C39_2 C 0.9141(8) 0.5679(9) 0.2373(4)
C40_2 C 0.8411(9) 0.6127(8) 0.2084(3)
H32_2 H 0.7741 0.5926 0.2124
O6_2 O 0.8186(5) 0.0777(5) 0.1131(2)
N9_2 N 0.6698(7) 0.1679(7) 0.1699(3)
N10_2 N 0.8832(7) 0.2604(6) 0.1587(3)
N11_2 N 0.8408(7) 0.2605(7) 0.0570(3)
N12_2 N 0.6416(7) 0.1789(6) 0.0731(3)
Mo3 Mo 0.88097(7) 0.96371(7) 0.13003(3)
N3_2 N 0.2605(7) 0.8408(7) 0.9430(3)
H3_2 H 0.9471 0.7499 0.9911
C6_2 C 0.2028(9) 0.9164(10) 0.9568(4)
H5_2 H 0.1511 0.9391 0.9379
C7_2 C 0.2168(10) 0.9643(10) 0.9994(4)
C10_2 C 0.3353(8) 0.8091(8) 0.9704(3)
H8_2 H 0.3753 0.7554 0.9605
O7_2 O 0.9167(6) 0.9707(6) 0.1865(2)
O8_2 O 0.9872(6) 0.9454(7) 0.0947(3)
O2_3 O 0.0777(5) 0.8186(5) 0.8869(2)
O5_2 O 0.3625(5) 0.7060(5) 0.8753(2)
Mo3_2 Mo 0.46371(7) 0.61903(7) 0.88003(3)
Mo1_3 Mo 0.96371(7) 0.88097(7) 0.86997(3)
O1_3 O 0.9707(6) 0.9167(6) 0.8135(2)
O3_3 O 0.9454(7) 0.9872(6) 0.9053(3)
O4_3 O 0.8625(5) 0.7940(5) 0.8747(2)
Ni2_3 Ni 0.71969(10) 0.73851(10) 0.86708(5)
O6_3 O 0.5777(5) 0.6814(5) 0.8631(2)
O7_3 O 0.4707(6) 0.5833(6) 0.9365(2)
O8_3 O 0.4454(7) 0.5128(6) 0.8447(3)
N9_3 N 0.6679(7) 0.8302(7) 0.9199(3)
N10_3 N 0.7604(6) 0.6168(7) 0.9087(3)
N11_3 N 0.7605(7) 0.6592(7) 0.8070(3)
N12_3 N 0.6789(6) 0.8584(7) 0.8231(3)
Mo1_4 Mo 0.03629(7) 0.11903(7) 0.36997(3)
O1_4 O 0.0293(6) 0.0833(6) 0.3135(2)
O3_4 O 0.0546(7) 0.0128(6) 0.4053(3)
O4_4 O 0.1375(5) 0.2060(5) 0.3747(2)
Ni2_4 Ni 0.28031(10) 0.26149(10) 0.36708(5)
O6_4 O 0.4223(5) 0.3186(5) 0.3631(2)
Mo2_2 Mo 0.53629(7) 0.38097(7) 0.38003(3)
O7_4 O 0.5293(6) 0.4167(6) 0.4365(2)
O8_4 O 0.5546(7) 0.4872(6) 0.3447(3)
N9_4 N 0.3321(7) 0.1698(7) 0.4199(3)
N10_4 N 0.2396(6) 0.3832(7) 0.4087(3)
N11_4 N 0.2395(7) 0.3408(7) 0.3070(3)
N12_4 N 0.3211(6) 0.1416(7) 0.3231(3)
O9_2 O 0.6375(5) 0.2940(5) 0.3753(2)
O2_4 O 0.9223(5) 0.1814(5) 0.3869(2)
H2_3 H 0.4915 0.0116 0.6895
C17_3 C 0.6780(9) 0.0325(9) 0.7990(4)
H14_3 H 0.7046 0.0974 0.8022
C18_3 C 0.6075(8) 0.0139(9) 0.7670(4)
H15_3 H 0.5851 0.0656 0.7480
C31_3 C 0.4195(8) 0.1216(8) 0.4166(3)
H25_3 H 0.4639 0.1423 0.3938
C32_3 C 0.4504(8) 0.0416(9) 0.4447(3)
H26_3 H 0.5116 0.0085 0.4395
C33_3 C 0.3878(8) 0.0125(8) 0.4806(3)
C34_3 C 0.2944(9) 0.0675(9) 0.4852(4)
H27_3 H 0.2501 0.0529 0.5089
C35_3 C 0.2715(9) 0.1416(8) 0.4544(3)
H28_3 H 0.2097 0.1748 0.4575
C1_3 C 0.3784(8) 0.9195(8) 0.6666(3)
H1_3 H 0.3577 0.9639 0.6438
C2_3 C 0.4584(9) 0.9504(8) 0.6947(3)
C3_3 C 0.4875(8) 0.8878(8) 0.7306(3)
C4_3 C 0.4325(9) 0.7944(9) 0.7352(4)
H3_3 H 0.4471 0.7501 0.7589
C5_3 C 0.3584(8) 0.7715(9) 0.7044(3)
H4_3 H 0.3252 0.7097 0.7075
C11_3 C 0.0881(9) 0.7874(9) 0.6964(3)
H9_3 H 0.1271 0.8422 0.7059
C12_3 C 0.0068(9) 0.7624(9) 0.7221(4)
C15_3 C 0.0577(9) 0.6586(9) 0.6474(4)
H12_3 H 0.0752 0.6216 0.6217
C16_3 C 0.7113(9) 0.9541(9) 0.8275(3)
H13_3 H 0.7577 0.9692 0.8503
C19_3 C 0.5679(9) 0.9141(8) 0.7627(4)
C20_3 C 0.6127(8) 0.8411(9) 0.7916(3)
H16_3 H 0.5926 0.7741 0.7876
C21_3 C 0.0836(10) 0.7972(9) 0.5432(4)
H17_3 H 0.0609 0.8489 0.5621
C22_3 C 0.0357(10) 0.7832(10) 0.5006(4)
C23_3 C 0.0701(10) 0.7073(11) 0.4717(4)
H19_3 H 0.0422 0.6994 0.4429
C24_3 C 0.1478(8) 0.6428(8) 0.4867(3)
C25_3 C 0.1909(8) 0.6647(8) 0.5296(3)
H20_3 H 0.2446 0.6247 0.5395
C26_3 C 0.2874(9) 0.4119(9) 0.4464(3)
H21_3 H 0.3422 0.3729 0.4559
C27_3 C 0.2624(9) 0.4932(9) 0.4721(4)
H22_3 H 0.3000 0.5083 0.4979
C28_3 C 0.1807(9) 0.5543(9) 0.4599(3)
C29_3 C 0.1289(9) 0.5243(9) 0.4211(4)
H23_3 H 0.0729 0.5613 0.4114
C30_3 C 0.1586(9) 0.4423(9) 0.3974(4)
H24_3 H 0.1216 0.4248 0.3717
C36_3 C 0.4541(9) 0.7887(9) 0.5775(3)
H29_3 H 0.4692 0.7423 0.6003
C37_3 C 0.5325(9) 0.8220(9) 0.5490(4)
H30_3 H 0.5974 0.7954 0.5522
C38_3 C 0.5139(9) 0.8925(8) 0.5170(4)
H31_3 H 0.5656 0.9149 0.4980
C39_3 C 0.4141(8) 0.9321(9) 0.5127(4)
C40_3 C 0.3411(9) 0.8873(8) 0.5416(3)
H32_3 H 0.2741 0.9074 0.5376
C6_3 C 0.7028(9) 0.5836(10) 0.7932(4)
H5_3 H 0.6511 0.5609 0.8121
C7_3 C 0.7168(10) 0.5357(10) 0.7506(4)
H6_3 H 0.6755 0.4818 0.7420
C8_3 C 0.7927(11) 0.5701(10) 0.7217(4)
H7_3 H 0.8006 0.5422 0.6929
C9_3 C 0.8572(8) 0.6478(8) 0.7367(3)
C10_3 C 0.8353(8) 0.6909(8) 0.7796(3)
H8_3 H 0.8753 0.7446 0.7895
H10_3 H 0.9917 0.8000 0.7479
C13_3 C 0.9457(9) 0.6807(9) 0.7099(3)
C14_3 C 0.9757(9) 0.6289(9) 0.6711(4)
H11_3 H 0.9387 0.5729 0.6614
H18_3 H 0.9818 0.8245 0.4920
C6_4 C 0.2972(9) 0.4164(10) 0.2932(4)
H5_4 H 0.3489 0.4391 0.3121
C7_4 C 0.2832(10) 0.4643(10) 0.2506(4)
H6_4 H 0.3245 0.5182 0.2420
C8_4 C 0.2073(11) 0.4299(10) 0.2217(4)
H7_4 H 0.1994 0.4578 0.1929
C9_4 C 0.1428(8) 0.3522(8) 0.2367(3)
C10_4 C 0.1647(8) 0.3091(8) 0.2796(3)
H8_4 H 0.1247 0.2554 0.2895
H10_4 H 0.0083 0.2000 0.2479
C13_4 C 0.0543(9) 0.3193(9) 0.2099(3)
C14_4 C 0.0243(9) 0.3711(9) 0.1711(4)
H11_4 H 0.0613 0.4271 0.1614
H18_4 H 0.0182 0.1755 0.9920
C1_4 C 0.6216(8) 0.0805(8) 0.1666(3)
H1_4 H 0.6423 0.0361 0.1438
C2_4 C 0.5416(9) 0.0496(8) 0.1947(3)
C3_4 C 0.5125(8) 0.1122(8) 0.2306(3)
C4_4 C 0.5675(9) 0.2056(9) 0.2352(4)
H3_4 H 0.5529 0.2499 0.2589
C5_4 C 0.6416(8) 0.2285(9) 0.2044(3)
H4_4 H 0.6748 0.2903 0.2075
C11_4 C 0.9119(9) 0.2126(9) 0.1964(3)
H9_4 H 0.8729 0.1578 0.2059
C12_4 C 0.9932(9) 0.2376(9) 0.2221(4)
C15_4 C 0.9423(9) 0.3414(9) 0.1474(4)
H12_4 H 0.9248 0.3784 0.1217
C16_4 C 0.2887(9) 0.0459(9) 0.3275(3)
H13_4 H 0.2423 0.0308 0.3503
C19_4 C 0.4321(9) 0.0859(8) 0.2627(4)
C20_4 C 0.3873(8) 0.1589(9) 0.2916(3)
H16_4 H 0.4074 0.2259 0.2876
C21_4 C 0.9164(10) 0.2028(9) 0.0432(4)
H17_4 H 0.9391 0.1511 0.0621
C22_4 C 0.9643(10) 0.2168(10) 0.0006(4)
C25_4 C 0.8091(8) 0.3353(8) 0.0296(3)
H20_4 H 0.7554 0.3753 0.0395
C36_4 C 0.5459(9) 0.2113(9) 0.0775(3)
H29_4 H 0.5308 0.2577 0.1003
C37_4 C 0.4675(9) 0.1780(9) 0.0490(4)
H30_4 H 0.4026 0.2046 0.0522
C38_4 C 0.4861(9) 0.1075(8) 0.0170(4)
C39_4 C 0.5859(8) 0.0679(9) 0.0127(4)
C40_4 C 0.6589(9) 0.1127(8) 0.0416(3)
H32_4 H 0.7259 0.0926 0.0376
C23_4 C 0.9299(10) 0.2927(11) 0.9717(4)
H19_4 H 0.9578 0.3006 0.9429
C24_4 C 0.8522(8) 0.3572(8) 0.9867(3)
C26_4 C 0.7126(9) 0.5881(9) 0.9464(3)
H21_4 H 0.6578 0.6271 0.9559
C27_4 C 0.7376(9) 0.5068(9) 0.9721(4)
H22_4 H 0.7000 0.4917 0.9979
C28_4 C 0.8193(9) 0.4457(9) 0.9599(3)
C29_4 C 0.8711(9) 0.4757(9) 0.9211(4)
H23_4 H 0.9271 0.4387 0.9114
C30_4 C 0.8414(9) 0.5577(9) 0.8974(4)
H24_4 H 0.8784 0.5752 0.8717
H31_4 H 0.4344 0.0851 0.9980
H2_4 H 0.5085 0.9884 0.1895
C17_4 C 0.3220(9) 0.9675(9) 0.2990(4)
H14_4 H 0.2954 0.9026 0.3022
C18_4 C 0.3925(8) 0.9861(9) 0.2670(4)
H15_4 H 0.4149 0.9344 0.2480
H27_4 H 0.7499 0.9471 0.0089
C31_4 C 0.5805(8) 0.8784(8) 0.9166(3)
H25_4 H 0.5361 0.8577 0.8938
C32_4 C 0.5496(8) 0.9584(9) 0.9447(3)
H26_4 H 0.4884 0.9915 0.9395
C33_4 C 0.6122(8) 0.9875(8) 0.9806(3)
C34_4 C 0.7056(9) 0.9325(9) 0.9852(4)
C35_4 C 0.7285(9) 0.8584(8) 0.9544(3)
H28_4 H 0.7903 0.8252 0.9575
loop_
_geom_bond_atom_site_label_1
_geom_bond_atom_site_label_2
_geom_bond_site_symmetry_1
_geom_bond_site_symmetry_2
O7 Mo2 1_555 1_555
O8 Mo2 1_555 1_555
O9 Mo2 1_555 1_555
Mo1 O1 1_555 1_555
Ni1 O2 1_555 1_555
O2 Mo1 1_555 1_555
O3 Mo1 1_555 1_555
O4 Mo1 1_555 1_555
N1 Ni1 1_555 1_555
N2 Ni1 1_555 1_555
N3 C6 1_555 1_555
C1 N1 1_555 1_555
H1 C1 1_555 1_555
C2 C1 1_555 1_555
H2 C2 1_555 1_555
C3 C2 1_555 1_555
C4 C3 1_555 1_555
H3 C4 1_555 1_555
C5 N1 1_555 1_555
H4 C5 1_555 1_555
C6 H5 1_555 1_555
C7 C6 1_555 1_555
C8 C7 1_555 1_555
H7 C8 1_555 1_555
C9 C8 1_555 1_555
C10 N3 1_555 1_555
H8 C10 1_555 1_555
C11 N2 1_555 1_555
H9 C11 1_555 1_555
C12 C11 1_555 1_555
H10 C12 1_555 1_555
C13 C9 1_555 1_555
C14 C13 1_555 1_555
H11 C14 1_555 1_555
C15 N2 1_555 1_555
H12 C15 1_555 1_555
Ni2 O4 1_555 1_555
O9 Ni1 1_555 1_555
N6 Ni1 1_555 1_555
C21 N6 1_555 1_555
H17 C21 1_555 1_555
C22 C21 1_555 1_555
H18 C22 1_555 1_555
C23 C22 1_555 1_555
H19 C23 1_555 1_555
C24 C23 1_555 1_555
C25 N6 1_555 1_555
H20 C25 1_555 1_555
C28 C24 1_555 1_555
C29 C28 1_555 1_555
H23 C29 1_555 1_555
N7 C31 1_555 1_555
N8 Ni1 1_555 1_555
C31 H25 1_555 1_555
C32 C31 1_555 1_555
C33 C32 1_555 1_555
C34 C33 1_555 1_555
H27 C34 1_555 1_555
C35 N7 1_555 1_555
H28 C35 1_555 1_555
C36 N8 1_555 1_555
H29 C36 1_555 1_555
C39 C33 1_555 1_555
C40 N8 1_555 1_555
H32 C40 1_555 1_555
O6 Ni2 1_555 1_555
Ni3 N3 1_555 1_555
N9 Ni2 1_555 1_555
N10 Ni2 1_555 1_555
N11 Ni2 1_555 1_555
N12 Ni2 1_555 1_555
Ni6 N7 1_555 1_555
C4 C5 1_555 1_555
C9 C10 1_555 1_555
C12 C13 1_555 1_555
C14 C15 1_555 1_555
C24 C25 1_555 1_555
C34 C35 1_555 1_555
C39 C40 1_555 1_555
N5 C26 1_555 1_555
C26 H21 1_555 1_555
C27 C26 1_555 1_555
C30 N5 1_555 1_555
H24 C30 1_555 1_555
Ni6 N5 1_555 1_555
N4 C16 1_555 1_555
C16 H13 1_555 1_555
C17 C16 1_555 1_555
H14 C17 1_555 1_555
C18 C17 1_555 1_555
H15 C18 1_555 1_555
C20 N4 1_555 1_555
H16 C20 1_555 1_555
H30 C37 1_555 1_555
C38 C37 1_555 1_555
H31 C38 1_555 1_555
Ni3 N4 1_555 1_555
C18 C19 1_555 1_555
C19 C20 1_555 1_555
H30_2 C37_2 1_555 1_555
C38_2 C37_2 1_555 1_555
H31_2 C38_2 1_555 1_555
N4_2 C16_2 1_555 1_555
C16_2 H13_2 1_555 1_555
C17_2 C16_2 1_555 1_555
H14_2 C17_2 1_555 1_555
C18_2 C17_2 1_555 1_555
C20_2 N4_2 1_555 1_555
H16_2 C20_2 1_555 1_555
Ni6 N4_2 1_555 1_555
C18_2 C19_2 1_555 1_555
C19_2 C20_2 1_555 1_555
N5_2 C26_2 1_555 1_555
C26_2 H21_2 1_555 1_555
C27_2 C26_2 1_555 1_555
C30_2 N5_2 1_555 1_555
H24_2 C30_2 1_555 1_555
Ni3 N5_2 1_555 1_555
Mo1_2 O1_2 1_555 1_555
Ni1_2 O2_2 1_555 1_555
O2_2 Mo1_2 1_555 1_555
O3_2 Mo1_2 1_555 1_555
O4_2 Mo1_2 1_555 1_555
N1_2 Ni1_2 1_555 1_555
N2_2 Ni1_2 1_555 1_555
C1_2 N1_2 1_555 1_555
H1_2 C1_2 1_555 1_555
C2_2 C1_2 1_555 1_555
H2_2 C2_2 1_555 1_555
C3_2 C2_2 1_555 1_555
C4_2 C3_2 1_555 1_555
C5_2 N1_2 1_555 1_555
H4_2 C5_2 1_555 1_555
H7_2 C8_2 1_555 1_555
C9_2 C8_2 1_555 1_555
C11_2 N2_2 1_555 1_555
H9_2 C11_2 1_555 1_555
C12_2 C11_2 1_555 1_555
H10_2 C12_2 1_555 1_555
C13_2 C9_2 1_555 1_555
C14_2 C13_2 1_555 1_555
H11_2 C14_2 1_555 1_555
C15_2 N2_2 1_555 1_555
H12_2 C15_2 1_555 1_555
Ni2_2 O4_2 1_555 1_555
O5 Ni1_2 1_555 1_555
N6_2 Ni1_2 1_555 1_555
C21_2 N6_2 1_555 1_555
H17_2 C21_2 1_555 1_555
C22_2 C21_2 1_555 1_555
H18_2 C22_2 1_555 1_555
C23_2 C22_2 1_555 1_555
H19_2 C23_2 1_555 1_555
C24_2 C23_2 1_555 1_555
C25_2 N6_2 1_555 1_555
H20_2 C25_2 1_555 1_555
C28_2 C24_2 1_555 1_555
C29_2 C28_2 1_555 1_555
H23_2 C29_2 1_555 1_555
N7_2 C31_2 1_555 1_555
N8_2 Ni1_2 1_555 1_555
C31_2 H25_2 1_555 1_555
C32_2 C31_2 1_555 1_555
C33_2 C32_2 1_555 1_555
C34_2 C33_2 1_555 1_555
H27_2 C34_2 1_555 1_555
C35_2 N7_2 1_555 1_555
H28_2 C35_2 1_555 1_555
C36_2 N8_2 1_555 1_555
H29_2 C36_2 1_555 1_555
C39_2 C33_2 1_555 1_555
C40_2 N8_2 1_555 1_555
H32_2 C40_2 1_555 1_555
O6_2 Ni2_2 1_555 1_555
N9_2 Ni2_2 1_555 1_555
N10_2 Ni2_2 1_555 1_555
N11_2 Ni2_2 1_555 1_555
N12_2 Ni2_2 1_555 1_555
Mo3 O5 1_555 1_555
Ni3 N7_2 1_555 1_555
C4_2 C5_2 1_555 1_555
C12_2 C13_2 1_555 1_555
C14_2 C15_2 1_555 1_555
C24_2 C25_2 1_555 1_555
C34_2 C35_2 1_555 1_555
C39_2 C40_2 1_555 1_555
N3_2 C6_2 1_555 1_555
C6_2 H5_2 1_555 1_555
C7_2 C6_2 1_555 1_555
C10_2 N3_2 1_555 1_555
H8_2 C10_2 1_555 1_555
Ni6 N3_2 1_555 1_555
O7_2 Mo3 1_555 1_555
O8_2 Mo3 1_555 1_555
Ni6 O2_3 1_555 1_555
O5_2 Ni6 1_555 1_555
Mo3_2 O5_2 1_555 1_555
Mo1_3 O1_3 1_555 1_555
O3_3 Mo1_3 1_555 1_555
O4_3 Mo1_3 1_555 1_555
Ni2_3 O4_3 1_555 1_555
O6_3 Ni2_3 1_555 1_555
Mo3_2 O6_3 1_555 1_555
O7_3 Mo3_2 1_555 1_555
O8_3 Mo3_2 1_555 1_555
N9_3 Ni2_3 1_555 1_555
N10_3 Ni2_3 1_555 1_555
N11_3 Ni2_3 1_555 1_555
N12_3 Ni2_3 1_555 1_555
Mo1_4 O1_4 1_555 1_555
O3_4 Mo1_4 1_555 1_555
O4_4 Mo1_4 1_555 1_555
Ni2_4 O4_4 1_555 1_555
O6_4 Ni2_4 1_555 1_555
Mo2_2 O6_4 1_555 1_555
O7_4 Mo2_2 1_555 1_555
O8_4 Mo2_2 1_555 1_555
N9_4 Ni2_4 1_555 1_555
N10_4 Ni2_4 1_555 1_555
N11_4 Ni2_4 1_555 1_555
N12_4 Ni2_4 1_555 1_555
O9_2 Mo2_2 1_555 1_555
Ni3 O2_4 1_555 1_555
O9_2 Ni3 1_555 1_555
H14_3 C17_3 1_555 1_555
C18_3 C17_3 1_555 1_555
H15_3 C18_3 1_555 1_555
N9_4 C31_3 1_555 1_555
C31_3 H25_3 1_555 1_555
C32_3 C31_3 1_555 1_555
H26_3 C32_3 1_555 1_555
C33_3 C32_3 1_555 1_555
C34_3 C33_3 1_555 1_555
H27_3 C34_3 1_555 1_555
C35_3 N9_4 1_555 1_555
H28_3 C35_3 1_555 1_555
C34_3 C35_3 1_555 1_555
N12_3 C16_3 1_555 1_555
C1_3 N9 1_555 1_555
H1_3 C1_3 1_555 1_555
C2_3 C1_3 1_555 1_555
C3_3 C2_3 1_555 1_555
C4_3 C3_3 1_555 1_555
H3_3 C4_3 1_555 1_555
C5_3 N9 1_555 1_555
H4_3 C5_3 1_555 1_555
C11_3 N10 1_555 1_555
H9_3 C11_3 1_555 1_555
C12_3 C11_3 1_555 1_555
C15_3 N10 1_555 1_555
H12_3 C15_3 1_555 1_555
C16_3 H13_3 1_555 1_555
C19_3 C3_3 1_555 1_555
C20_3 N12_3 1_555 1_555
H16_3 C20_3 1_555 1_555
N10_4 C26_3 1_555 1_555
C21_3 N11 1_555 1_555
H17_3 C21_3 1_555 1_555
C22_3 C21_3 1_555 1_555
C23_3 C22_3 1_555 1_555
H19_3 C23_3 1_555 1_555
C24_3 C23_3 1_555 1_555
C25_3 N11 1_555 1_555
H20_3 C25_3 1_555 1_555
C26_3 H21_3 1_555 1_555
C27_3 C26_3 1_555 1_555
H22_3 C27_3 1_555 1_555
C28_3 C24_3 1_555 1_555
C29_3 C28_3 1_555 1_555
H23_3 C29_3 1_555 1_555
C30_3 N10_4 1_555 1_555
H24_3 C30_3 1_555 1_555
C36_3 N12 1_555 1_555
H29_3 C36_3 1_555 1_555
C37_3 C36_3 1_555 1_555
H30_3 C37_3 1_555 1_555
C38_3 C37_3 1_555 1_555
H31_3 C38_3 1_555 1_555
C40_3 N12 1_555 1_555
H32_3 C40_3 1_555 1_555
C4_3 C5_3 1_555 1_555
C19_3 C20_3 1_555 1_555
C24_3 C25_3 1_555 1_555
C27_3 C28_3 1_555 1_555
C29_3 C30_3 1_555 1_555
C38_3 C39_3 1_555 1_555
C39_3 C40_3 1_555 1_555
N11_3 C6_3 1_555 1_555
C6_3 H5_3 1_555 1_555
C7_3 C6_3 1_555 1_555
H6_3 C7_3 1_555 1_555
C8_3 C7_3 1_555 1_555
H7_3 C8_3 1_555 1_555
C9_3 C8_3 1_555 1_555
C10_3 N11_3 1_555 1_555
H8_3 C10_3 1_555 1_555
C13_3 C9_3 1_555 1_555
C14_3 C13_3 1_555 1_555
H11_3 C14_3 1_555 1_555
C9_3 C10_3 1_555 1_555
N11_4 C6_4 1_555 1_555
C6_4 H5_4 1_555 1_555
C7_4 C6_4 1_555 1_555
H6_4 C7_4 1_555 1_555
C8_4 C7_4 1_555 1_555
H7_4 C8_4 1_555 1_555
C9_4 C8_4 1_555 1_555
C10_4 N11_4 1_555 1_555
H8_4 C10_4 1_555 1_555
C13_4 C9_4 1_555 1_555
C14_4 C13_4 1_555 1_555
H11_4 C14_4 1_555 1_555
C9_4 C10_4 1_555 1_555
N12_4 C16_4 1_555 1_555
C1_4 N9_2 1_555 1_555
H1_4 C1_4 1_555 1_555
C2_4 C1_4 1_555 1_555
C3_4 C2_4 1_555 1_555
C4_4 C3_4 1_555 1_555
H3_4 C4_4 1_555 1_555
C5_4 N9_2 1_555 1_555
H4_4 C5_4 1_555 1_555
C11_4 N10_2 1_555 1_555
H9_4 C11_4 1_555 1_555
C12_4 C11_4 1_555 1_555
C15_4 N10_2 1_555 1_555
H12_4 C15_4 1_555 1_555
C16_4 H13_4 1_555 1_555
C19_4 C3_4 1_555 1_555
C20_4 N12_4 1_555 1_555
H16_4 C20_4 1_555 1_555
C21_4 N11_2 1_555 1_555
H17_4 C21_4 1_555 1_555
C22_4 C21_4 1_555 1_555
C25_4 N11_2 1_555 1_555
H20_4 C25_4 1_555 1_555
C36_4 N12_2 1_555 1_555
H29_4 C36_4 1_555 1_555
C37_4 C36_4 1_555 1_555
H30_4 C37_4 1_555 1_555
C38_4 C37_4 1_555 1_555
C40_4 N12_2 1_555 1_555
H32_4 C40_4 1_555 1_555
C4_4 C5_4 1_555 1_555
C19_4 C20_4 1_555 1_555
C38_4 C39_4 1_555 1_555
C39_4 C40_4 1_555 1_555
N10_3 C26_4 1_555 1_555
H19_4 C23_4 1_555 1_555
C24_4 C23_4 1_555 1_555
C26_4 H21_4 1_555 1_555
C27_4 C26_4 1_555 1_555
H22_4 C27_4 1_555 1_555
C28_4 C24_4 1_555 1_555
C29_4 C28_4 1_555 1_555
H23_4 C29_4 1_555 1_555
C30_4 N10_3 1_555 1_555
H24_4 C30_4 1_555 1_555
C27_4 C28_4 1_555 1_555
C29_4 C30_4 1_555 1_555
H14_4 C17_4 1_555 1_555
C18_4 C17_4 1_555 1_555
H15_4 C18_4 1_555 1_555
N9_3 C31_4 1_555 1_555
C31_4 H25_4 1_555 1_555
C32_4 C31_4 1_555 1_555
H26_4 C32_4 1_555 1_555
C33_4 C32_4 1_555 1_555
C34_4 C33_4 1_555 1_555
C35_4 N9_3 1_555 1_555
H28_4 C35_4 1_555 1_555
C34_4 C35_4 1_555 1_555

#END
