
###############################################################################
#
# This file contains modified crystal structure data generated from the
# MOF subset of the Cambridge Structural Database (CSD) v543 
# hosted by the Cambridge Crystallographic Data Centre (CCDC).
#
# This work is licensed under the Creative Commons
# Attribution-NonCommercial-ShareAlike 4.0 International License.
# To view a copy of this license, visit
# http://creativecommons.org/licenses/by-nc-sa/4.0/
# or send a letter to
# Creative Commons, PO Box 1866, Mountain View, CA 94042, USA.
#
# CIF created using the CSD Python API on 29 September 2022
# The structure has been converted into the P1 space group
# The structure has a 3D framework
# The original CSD entry UGEPEB is in the monoclinic crystal system
# The framework has been calculated to contain at least 10.0% void space
# The void calculation uses a probe of radius 1.32A, grid spacing 0.4
#
###############################################################################

data_UGEPEB
_chemical_formula_moiety         '(C24 H16 Cu4 N4 O8)n'
_symmetry_cell_setting           triclinic
_symmetry_space_group_name_H-M   'P 1'
_symmetry_Int_Tables_number      1
_space_group_name_Hall           'P 1'
loop_
_symmetry_equiv_pos_site_id
_symmetry_equiv_pos_as_xyz
1 x,y,z
_cell_length_a                   3.53400(10)
_cell_length_b                   15.7680(5)
_cell_length_c                   13.0052(4)
_cell_angle_alpha                90
_cell_angle_beta                 96.8850(13)
_cell_angle_gamma                90
_cell_volume                     719.477
loop_
_atom_site_label
_atom_site_type_symbol
_atom_site_fract_x
_atom_site_fract_y
_atom_site_fract_z
Cu1 Cu 0.26242(9) 0.07802(2) 0.49492(2)
N1 N 0.2571(6) 0.17961(14) 0.4035(2)
C1 C 0.2548(7) 0.1654(2) 0.3011(2)
H2 H 0.1928(7) 0.1115(2) 0.2753(2)
C2 C 0.3414(7) 0.2281(2) 0.2332(2)
H3 H 0.3370(7) 0.2164(2) 0.1630(2)
C3 C 0.4350(7) 0.3086(2) 0.2712(2)
C4 C 0.4260(8) 0.3238(2) 0.3763(2)
H4 H 0.4800(8) 0.3776(2) 0.4037(2)
C5 C 0.3355(7) 0.2580(2) 0.4397(2)
H5 H 0.3290(7) 0.2686(2) 0.5098(2)
C6 C 0.5602(7) 0.3774(2) 0.2010(2)
O2 O 0.5370(6) 0.35786(13) 0.10595(14)
O3 O 0.6811(7) 0.44504(14) 0.2416(2)
O5 O 0.6869(5) 0.02838(12) 0.42949(14)
O6 O 0.0370(6) 0.14214(13) 0.60595(14)
H7 H 0.6498(5) 0.02395(12) 0.36392(14)
Cu4 Cu 0.76242(9) 0.42198(2) 0.99492(2)
O1 O 0.3131(5) 0.97162(12) 0.57051(14)
H1 H 0.3502(5) 0.97605(12) 0.63608(14)
Cu3 Cu 0.73758(9) 0.92198(2) 0.50508(2)
Cu1_2 Cu 0.23758(9) 0.57802(2) 0.00508(2)
N1_2 N 0.2429(6) 0.67961(14) 0.0965(2)
C1_2 C 0.2452(7) 0.6654(2) 0.1989(2)
H2_2 H 0.3072(7) 0.6115(2) 0.2247(2)
C2_2 C 0.1586(7) 0.7281(2) 0.2668(2)
H3_2 H 0.1630(7) 0.7164(2) 0.3370(2)
C3_2 C 0.0650(7) 0.8086(2) 0.2288(2)
C4_2 C 0.0740(8) 0.8238(2) 0.1237(2)
H4_2 H 0.0200(8) 0.8776(2) 0.0963(2)
C5_2 C 0.1645(7) 0.7580(2) 0.0603(2)
O4 O 0.8131(5) 0.52838(12) 0.07051(14)
H6 H 0.8502(5) 0.52395(12) 0.13608(14)
O1_2 O 0.1869(5) 0.47162(12) 0.92949(14)
H1_2 H 0.1498(5) 0.47605(12) 0.86392(14)
H5_2 H 0.1710(7) 0.7686(2) 0.9902(2)
O6_2 O 0.4630(6) 0.64214(13) 0.89405(14)
C6_2 C 0.9398(7) 0.8774(2) 0.2990(2)
O2_2 O 0.9630(6) 0.85786(13) 0.39405(14)
O3_2 O 0.8189(7) 0.94504(14) 0.2584(2)
N1_3 N 0.7429(6) 0.82039(14) 0.5965(2)
C1_3 C 0.7452(7) 0.8346(2) 0.6989(2)
H2_3 H 0.8072(7) 0.8885(2) 0.7247(2)
C2_3 C 0.6586(7) 0.7719(2) 0.7668(2)
H3_3 H 0.6630(7) 0.7836(2) 0.8370(2)
C3_3 C 0.5650(7) 0.6914(2) 0.7288(2)
C4_3 C 0.5740(8) 0.6762(2) 0.6237(2)
H4_3 H 0.5200(8) 0.6224(2) 0.5963(2)
C5_3 C 0.6645(7) 0.7420(2) 0.5603(2)
H5_3 H 0.6710(7) 0.7314(2) 0.4902(2)
C6_3 C 0.4398(7) 0.6226(2) 0.7990(2)
O3_3 O 0.3189(7) 0.55496(14) 0.7584(2)
C6_4 C 0.0602(7) 0.1226(2) 0.7010(2)
O3_4 O 0.1811(7) 0.05496(14) 0.7416(2)
H5_4 H 0.8290(7) 0.2314(2) 0.0098(2)
N1_4 N 0.7571(6) 0.32039(14) 0.9035(2)
C1_4 C 0.7548(7) 0.3346(2) 0.8011(2)
H2_4 H 0.6928(7) 0.3885(2) 0.7753(2)
C2_4 C 0.8414(7) 0.2719(2) 0.7332(2)
H3_4 H 0.8370(7) 0.2836(2) 0.6630(2)
C3_4 C 0.9350(7) 0.1914(2) 0.7712(2)
C4_4 C 0.9260(8) 0.1762(2) 0.8763(2)
H4_4 H 0.9800(8) 0.1224(2) 0.9037(2)
C5_4 C 0.8355(7) 0.2420(2) 0.9397(2)
loop_
_geom_bond_atom_site_label_1
_geom_bond_atom_site_label_2
_geom_bond_site_symmetry_1
_geom_bond_site_symmetry_2
N1 Cu1 1_555 1_555
C1 N1 1_555 1_555
H2 C1 1_555 1_555
C2 C1 1_555 1_555
H3 C2 1_555 1_555
C3 C2 1_555 1_555
C4 C3 1_555 1_555
H4 C4 1_555 1_555
C5 N1 1_555 1_555
H5 C5 1_555 1_555
C6 C3 1_555 1_555
O2 C6 1_555 1_555
O3 C6 1_555 1_555
O5 Cu1 1_555 1_555
O6 Cu1 1_555 1_555
H7 O5 1_555 1_555
C4 C5 1_555 1_555
O1 H1 1_555 1_555
Cu3 O1 1_555 1_555
N1_2 Cu1_2 1_555 1_555
C1_2 N1_2 1_555 1_555
H2_2 C1_2 1_555 1_555
C2_2 C1_2 1_555 1_555
H3_2 C2_2 1_555 1_555
C3_2 C2_2 1_555 1_555
C4_2 C3_2 1_555 1_555
H4_2 C4_2 1_555 1_555
C5_2 N1_2 1_555 1_555
O4 Cu1_2 1_555 1_555
H6 O4 1_555 1_555
C4_2 C5_2 1_555 1_555
O1_2 H1_2 1_555 1_555
Cu4 O1_2 1_555 1_555
O2_2 C6_2 1_555 1_555
O3_2 C6_2 1_555 1_555
Cu3 O2_2 1_555 1_555
N1_3 Cu3 1_555 1_555
C1_3 N1_3 1_555 1_555
H2_3 C1_3 1_555 1_555
C2_3 C1_3 1_555 1_555
H3_3 C2_3 1_555 1_555
C3_3 C2_3 1_555 1_555
C4_3 C3_3 1_555 1_555
H4_3 C4_3 1_555 1_555
C5_3 N1_3 1_555 1_555
H5_3 C5_3 1_555 1_555
C6_3 C3_3 1_555 1_555
O6_2 C6_3 1_555 1_555
O3_3 C6_3 1_555 1_555
C4_3 C5_3 1_555 1_555
O6 C6_4 1_555 1_555
O3_4 C6_4 1_555 1_555
N1_4 Cu4 1_555 1_555
C1_4 N1_4 1_555 1_555
H2_4 C1_4 1_555 1_555
C2_4 C1_4 1_555 1_555
H3_4 C2_4 1_555 1_555
C3_4 C2_4 1_555 1_555
C4_4 C3_4 1_555 1_555
H4_4 C4_4 1_555 1_555
C5_4 N1_4 1_555 1_555
C4_4 C5_4 1_555 1_555

#END
