
###############################################################################
#
# This file contains modified crystal structure data generated from the
# MOF subset of the Cambridge Structural Database (CSD) v543 
# hosted by the Cambridge Crystallographic Data Centre (CCDC).
#
# This work is licensed under the Creative Commons
# Attribution-NonCommercial-ShareAlike 4.0 International License.
# To view a copy of this license, visit
# http://creativecommons.org/licenses/by-nc-sa/4.0/
# or send a letter to
# Creative Commons, PO Box 1866, Mountain View, CA 94042, USA.
#
# CIF created using the CSD Python API on 29 September 2022
# The structure has been converted into the P1 space group
# The structure has a 3D framework
# The original CSD entry UGEPEB01 is in the monoclinic crystal system
# The framework has been calculated to contain at least 10.0% void space
# The void calculation uses a probe of radius 1.32A, grid spacing 0.4
#
###############################################################################

data_UGEPEB01
_chemical_formula_moiety         '(C24 H17 Cu2 N4 O9)n'
_symmetry_cell_setting           triclinic
_symmetry_space_group_name_H-M   'P 1'
_symmetry_Int_Tables_number      1
_space_group_name_Hall           'P 1'
loop_
_symmetry_equiv_pos_site_id
_symmetry_equiv_pos_as_xyz
1 x,y,z
_cell_length_a                   3.5521(2)
_cell_length_b                   15.8665(11)
_cell_length_c                   12.9977(9)
_cell_angle_alpha                90
_cell_angle_beta                 95.285(2)
_cell_angle_gamma                90
_cell_volume                     729.428
loop_
_atom_site_label
_atom_site_type_symbol
_atom_site_fract_x
_atom_site_fract_y
_atom_site_fract_z
Cu1 Cu 0.26556(8) 0.577460(17) 0.49570(2)
O1 O 0.3064(5) 0.47158(10) 0.56988(12)
H1 H 0.310(9) 0.485(2) 0.6325(10)
O2 O 0.0359(5) 0.64127(11) 0.60734(12)
O3 O 0.1631(6) 0.55460(12) 0.74215(14)
C1 C 0.0536(7) 0.62216(16) 0.70236(18)
Cu3 Cu 0.73444(8) 0.422540(17) 0.50430(2)
O5 O 0.6936(5) 0.52842(10) 0.43012(12)
H6 H 0.690(9) 0.515(2) 0.3675(10)
N2 N 0.2659(6) 0.67886(12) 0.40521(15)
C2 C 0.9331(7) 0.69154(16) 0.77283(18)
C3 C 0.9261(7) 0.67750(16) 0.87796(18)
H2 H 0.9773 0.6243 0.9057
C4 C 0.8424(8) 0.77078(16) 0.73527(19)
H3 H 0.8363 0.7819 0.6649
C5 C 0.8421(7) 0.74367(15) 0.94069(18)
C6 C 0.7610(7) 0.83337(16) 0.80288(18)
H5 H 0.6998 0.8866 0.7766
N1 N 0.7659(6) 0.82114(12) 0.90521(15)
Cu4 Cu 0.76556(8) 0.922540(17) 0.99570(2)
Cu1_2 Cu 0.23444(8) 0.077460(17) 0.00430(2)
O4 O 0.8064(5) 0.02842(10) 0.06988(12)
H7 H 0.810(9) 0.015(2) 0.1325(10)
N2_2 N 0.2341(6) 0.17886(12) 0.09479(15)
O2_2 O 0.4641(5) 0.14127(11) 0.89266(12)
O3_2 O 0.3369(6) 0.05460(12) 0.75785(14)
C1_2 C 0.4464(7) 0.12216(16) 0.79764(18)
C2_2 C 0.5669(7) 0.19154(16) 0.72717(18)
C3_2 C 0.5739(7) 0.17750(16) 0.62204(18)
H2_2 H 0.5227 0.1243 0.5943
C4_2 C 0.6576(8) 0.27078(16) 0.76473(19)
H3_2 H 0.6637 0.2819 0.8351
C5_2 C 0.6579(7) 0.24367(15) 0.55931(18)
H4 H 0.6615 0.2337 0.4889
C6_2 C 0.7390(7) 0.33337(16) 0.69712(18)
H5_2 H 0.8002 0.3866 0.7234
N1_2 N 0.7341(6) 0.32114(12) 0.59479(15)
O1_2 O 0.1936(5) 0.97158(10) 0.93012(12)
H1_2 H 0.190(9) 0.985(2) 0.8675(10)
C2_3 C 0.0669(7) 0.30846(16) 0.22717(18)
C3_3 C 0.0739(7) 0.32250(16) 0.12204(18)
H2_3 H 0.0227 0.3757 0.0943
C4_3 C 0.1576(8) 0.22922(16) 0.26473(19)
H3_3 H 0.1637 0.2181 0.3351
C5_3 C 0.1579(7) 0.25633(15) 0.05931(18)
C6_3 C 0.2390(7) 0.16663(16) 0.19712(18)
H5_3 H 0.3002 0.1134 0.2234
O2_3 O 0.9641(5) 0.35873(11) 0.39266(12)
O3_3 O 0.8369(6) 0.44540(12) 0.25785(14)
C1_3 C 0.9464(7) 0.37784(16) 0.29764(18)
O2_4 O 0.5359(5) 0.85873(11) 0.10734(12)
O3_4 O 0.6631(6) 0.94540(12) 0.24215(14)
C1_4 C 0.5536(7) 0.87784(16) 0.20236(18)
C2_4 C 0.4331(7) 0.80846(16) 0.27283(18)
C3_4 C 0.4261(7) 0.82250(16) 0.37796(18)
H2_4 H 0.4773 0.8757 0.4057
C4_4 C 0.3424(8) 0.72922(16) 0.23527(19)
H3_4 H 0.3363 0.7181 0.1649
C5_4 C 0.3421(7) 0.75633(15) 0.44069(18)
H4_2 H 0.3385 0.7663 0.5111
C6_4 C 0.2610(7) 0.66663(16) 0.30288(18)
H5_4 H 0.1998 0.6134 0.2766
H4_3 H 0.8385 0.7337 0.0111
H4_4 H 0.1615 0.2663 0.9889
loop_
_geom_bond_atom_site_label_1
_geom_bond_atom_site_label_2
_geom_bond_site_symmetry_1
_geom_bond_site_symmetry_2
Cu1 O1 1_555 1_555
O1 H1 1_555 1_555
O2 Cu1 1_555 1_555
O3 C1 1_555 1_555
C1 O2 1_555 1_555
Cu3 O1 1_555 1_555
O5 Cu1 1_555 1_555
H6 O5 1_555 1_555
N2 Cu1 1_555 1_555
Cu3 O5 1_555 1_555
C3 C2 1_555 1_555
H2 C3 1_555 1_555
C4 C2 1_555 1_555
H3 C4 1_555 1_555
C5 C3 1_555 1_555
C6 C4 1_555 1_555
H5 C6 1_555 1_555
N1 C5 1_555 1_555
Cu4 N1 1_555 1_555
C6 N1 1_555 1_555
O4 Cu1_2 1_555 1_555
H7 O4 1_555 1_555
N2_2 Cu1_2 1_555 1_555
O3_2 C1_2 1_555 1_555
C1_2 O2_2 1_555 1_555
C2_2 C1_2 1_555 1_555
C3_2 C2_2 1_555 1_555
H2_2 C3_2 1_555 1_555
C4_2 C2_2 1_555 1_555
H3_2 C4_2 1_555 1_555
C5_2 C3_2 1_555 1_555
H4 C5_2 1_555 1_555
C6_2 C4_2 1_555 1_555
H5_2 C6_2 1_555 1_555
N1_2 C5_2 1_555 1_555
Cu3 N1_2 1_555 1_555
C6_2 N1_2 1_555 1_555
O1_2 H1_2 1_555 1_555
Cu4 O1_2 1_555 1_555
C3_3 C2_3 1_555 1_555
H2_3 C3_3 1_555 1_555
C4_3 C2_3 1_555 1_555
H3_3 C4_3 1_555 1_555
C5_3 C3_3 1_555 1_555
C6_3 C4_3 1_555 1_555
H5_3 C6_3 1_555 1_555
N2_2 C5_3 1_555 1_555
C6_3 N2_2 1_555 1_555
O2_3 Cu3 1_555 1_555
O3_3 C1_3 1_555 1_555
C1_3 O2_3 1_555 1_555
O3_4 C1_4 1_555 1_555
C1_4 O2_4 1_555 1_555
C2_4 C1_4 1_555 1_555
C3_4 C2_4 1_555 1_555
H2_4 C3_4 1_555 1_555
C4_4 C2_4 1_555 1_555
H3_4 C4_4 1_555 1_555
C5_4 C3_4 1_555 1_555
H4_2 C5_4 1_555 1_555
C6_4 C4_4 1_555 1_555
H5_4 C6_4 1_555 1_555
N2 C5_4 1_555 1_555
C6_4 N2 1_555 1_555

#END
