
###############################################################################
#
# This file contains modified crystal structure data generated from the
# MOF subset of the Cambridge Structural Database (CSD) v543 
# hosted by the Cambridge Crystallographic Data Centre (CCDC).
#
# This work is licensed under the Creative Commons
# Attribution-NonCommercial-ShareAlike 4.0 International License.
# To view a copy of this license, visit
# http://creativecommons.org/licenses/by-nc-sa/4.0/
# or send a letter to
# Creative Commons, PO Box 1866, Mountain View, CA 94042, USA.
#
# CIF created using the CSD Python API on 29 September 2022
# The structure has been converted into the P1 space group
# The structure has a 3D framework
# The original CSD entry UGEXOU is in the tetragonal crystal system
# The framework has been calculated to contain at least 10.0% void space
# The void calculation uses a probe of radius 1.32A, grid spacing 0.4
#
###############################################################################

data_UGEXOU
_chemical_formula_moiety         '(C224 H176 Co12 N64 S16)n'
_symmetry_cell_setting           triclinic
_symmetry_space_group_name_H-M   'P 1'
_symmetry_Int_Tables_number      1
_space_group_name_Hall           'P 1'
loop_
_symmetry_equiv_pos_site_id
_symmetry_equiv_pos_as_xyz
1 x,y,z
_cell_length_a                   15.1837(11)
_cell_length_b                   15.1837(11)
_cell_length_c                   28.146(4)
_cell_angle_alpha                90
_cell_angle_beta                 90
_cell_angle_gamma                90
_cell_volume                     6488.91
loop_
_atom_site_label
_atom_site_type_symbol
_atom_site_fract_x
_atom_site_fract_y
_atom_site_fract_z
Co3 Co 0.0000 0.2500 0.867776(17)
Co1 Co 0.5000 0.2500 0.117776(17)
S1 S 0.25327(8) 0.45108(9) 0.11947(4)
N1 N 0.54556(13) 0.33770(13) 0.06289(7)
N3 N 0.38002(16) 0.31931(16) 0.11885(8)
N4 N 0.64403(14) 0.40838(14) 0.01825(8)
C1 C 0.50657(17) 0.35925(15) 0.01917(9)
C2 C 0.3262(2) 0.3724(2) 0.11937(9)
C4 C 0.62611(18) 0.36862(17) 0.06006(10)
C5 C 0.42256(19) 0.34314(18) 0.00207(11)
C8 C 0.7264(2) 0.4518(2) 0.00573(13)
H1 H 0.7542(17) 0.4733(17) 0.0353(10)
H5 H 0.6688(15) 0.3654(15) 0.0850(8)
H6 H 0.3813(16) 0.3204(16) 0.0208(9)
S2 S 0.74673(8) 0.04892(9) 0.11947(4)
N5 N 0.45444(13) 0.16230(13) 0.06289(7)
N7 N 0.44579(13) 0.16140(15) 0.17215(8)
N8 N 0.55421(13) 0.33860(15) 0.17215(8)
N9 N 0.61998(16) 0.18069(16) 0.11885(8)
N10 N 0.35597(14) 0.09162(14) 0.01825(8)
C15 C 0.49343(17) 0.14075(15) 0.01917(9)
C16 C 0.6738(2) 0.1276(2) 0.11937(9)
C18 C 0.37389(18) 0.13138(17) 0.06006(10)
C19 C 0.57744(19) 0.15686(18) 0.00207(11)
C22 C 0.2736(2) 0.0482(2) 0.00573(13)
H12 H 0.2458(17) 0.0267(17) 0.0353(10)
H16 H 0.3312(15) 0.1346(15) 0.0850(8)
H17 H 0.6187(16) 0.1796(16) 0.0208(9)
N2 N 0.91140(15) 0.30421(13) 0.92215(8)
C3 C 0.56829(18) 0.40302(16) 0.99099(9)
C6 C 0.4035(2) 0.37015(19) 0.95649(11)
C7 C 0.82681(19) 0.28153(18) 0.92398(11)
C9 C 0.78945(17) 0.39580(17) 0.97809(9)
C10 C 0.9353(2) 0.3713(2) 0.94959(12)
C11 C 0.76528(19) 0.32441(19) 0.95127(11)
C12 C 0.4662(2) 0.4129(2) 0.92838(12)
C13 C 0.5495(2) 0.4303(2) 0.94492(11)
C14 C 0.8776(2) 0.4179(2) 0.97746(12)
H2 H 0.7096(19) 0.5033(19) 0.9885(10)
H3 H 0.8073(17) 0.2351(17) 0.9034(9)
H4 H 0.4518(17) 0.4308(18) 0.8980(11)
H7 H 0.346(2) 0.3627(19) 0.9427(10)
H8 H 0.7080(19) 0.304(2) 0.9511(10)
H9 H 0.897(2) 0.465(2) 0.9982(11)
H10 H 0.5873(18) 0.4609(18) 0.9263(9)
H11 H 0.996(2) 0.385(3) 0.9489(12)
Co3_2 Co 1.0000 0.2500 0.867776(17)
N6 N 0.08860(15) 0.19579(13) 0.92215(8)
C17 C 0.43171(18) 0.09698(16) 0.99099(9)
C20 C 0.5965(2) 0.12985(19) 0.95649(11)
C21 C 0.17319(19) 0.21847(18) 0.92398(11)
C23 C 0.21055(17) 0.10420(17) 0.97809(9)
C24 C 0.0647(2) 0.1287(2) 0.94959(12)
C25 C 0.23472(19) 0.17559(19) 0.95127(11)
C26 C 0.5338(2) 0.0871(2) 0.92838(12)
C27 C 0.4505(2) 0.0697(2) 0.94492(11)
C28 C 0.1224(2) 0.0821(2) 0.97746(12)
H14 H 0.1927(17) 0.2649(17) 0.9034(9)
H15 H 0.5482(17) 0.0692(18) 0.8980(11)
H18 H 0.654(2) 0.1373(19) 0.9427(10)
H19 H 0.2920(19) 0.196(2) 0.9511(10)
H20 H 0.103(2) 0.035(2) 0.9982(11)
H21 H 0.4127(18) 0.0391(18) 0.9263(9)
H22 H 0.004(2) 0.115(3) 0.9489(12)
Co1_2 Co 0.0000 0.7500 0.617776(17)
S1_2 S 0.24673(8) 0.54892(9) 0.61947(4)
N3_2 N 0.11998(16) 0.68069(16) 0.61885(8)
C2_2 C 0.1738(2) 0.6276(2) 0.61937(9)
C5_2 C 0.07744(19) 0.65686(18) 0.50207(11)
C6_2 C 0.0965(2) 0.62985(19) 0.45649(11)
C12_2 C 0.0338(2) 0.5871(2) 0.42838(12)
H4_2 H 0.0482(17) 0.5692(18) 0.3980(11)
H6_2 H 0.1187(16) 0.6796(16) 0.5208(9)
H7_2 H 0.154(2) 0.6373(19) 0.4427(10)
Co2 Co 0.5000 0.7500 0.367776(17)
N5_2 N 0.04556(13) 0.83770(13) 0.56289(7)
N6_2 N 0.41140(15) 0.80421(13) 0.42215(8)
N7_2 N 0.05421(13) 0.83860(15) 0.67215(8)
N10_2 N 0.14403(14) 0.90838(14) 0.51825(8)
C15_2 C 0.00657(17) 0.85925(15) 0.51917(9)
C17_2 C 0.06829(18) 0.90302(16) 0.49099(9)
C18_2 C 0.12611(18) 0.86862(17) 0.56006(10)
C21_2 C 0.32681(19) 0.78153(18) 0.42398(11)
C22_2 C 0.2264(2) 0.9518(2) 0.50573(13)
C23_2 C 0.28945(17) 0.89580(17) 0.47809(9)
C24_2 C 0.4353(2) 0.8713(2) 0.44959(12)
C25_2 C 0.26528(19) 0.82441(19) 0.45127(11)
C27_2 C 0.0495(2) 0.9303(2) 0.44492(11)
C28_2 C 0.3776(2) 0.9179(2) 0.47746(12)
H12_2 H 0.2542(17) 0.9733(17) 0.5353(10)
H14_2 H 0.3073(17) 0.7351(17) 0.4034(9)
H16_2 H 0.1688(15) 0.8654(15) 0.5850(8)
H19_2 H 0.2080(19) 0.804(2) 0.4511(10)
H20_2 H 0.397(2) 0.965(2) 0.4982(11)
H21_2 H 0.0873(18) 0.9609(18) 0.4263(9)
H22_2 H 0.496(2) 0.885(3) 0.4489(12)
Co1_3 Co 1.0000 0.7500 0.617776(17)
N1_2 N 0.95444(13) 0.66230(13) 0.56289(7)
N2_2 N 0.58860(15) 0.69579(13) 0.42215(8)
N4_2 N 0.85597(14) 0.59162(14) 0.51825(8)
C1_2 C 0.99343(17) 0.64075(15) 0.51917(9)
C3_2 C 0.93171(18) 0.59698(16) 0.49099(9)
C4_2 C 0.87389(18) 0.63138(17) 0.56006(10)
C7_2 C 0.67319(19) 0.71847(18) 0.42398(11)
C8_2 C 0.7736(2) 0.5482(2) 0.50573(13)
C9_2 C 0.71055(17) 0.60420(17) 0.47809(9)
C10_2 C 0.5647(2) 0.6287(2) 0.44959(12)
C11_2 C 0.73472(19) 0.67559(19) 0.45127(11)
C13_2 C 0.9505(2) 0.5697(2) 0.44492(11)
C14_2 C 0.6224(2) 0.5821(2) 0.47746(12)
H1_2 H 0.7458(17) 0.5267(17) 0.5353(10)
H2_2 H 0.7904(19) 0.4967(19) 0.4885(10)
H3_2 H 0.6927(17) 0.7649(17) 0.4034(9)
H5_2 H 0.8312(15) 0.6346(15) 0.5850(8)
H8_2 H 0.7920(19) 0.696(2) 0.4511(10)
H9_2 H 0.603(2) 0.535(2) 0.4982(11)
H10_2 H 0.9127(18) 0.5391(18) 0.4263(9)
H11_2 H 0.504(2) 0.615(3) 0.4489(12)
S2_2 S 0.75327(8) 0.95108(9) 0.61947(4)
N8_2 N 0.94579(13) 0.66140(15) 0.67215(8)
N9_2 N 0.88002(16) 0.81931(16) 0.61885(8)
C16_2 C 0.8262(2) 0.8724(2) 0.61937(9)
C19_2 C 0.92256(19) 0.84314(18) 0.50207(11)
C20_2 C 0.9035(2) 0.87015(19) 0.45649(11)
C26_2 C 0.9662(2) 0.9129(2) 0.42838(12)
H15_2 H 0.9518(17) 0.9308(18) 0.3980(11)
H17_2 H 0.8813(16) 0.8204(16) 0.5208(9)
H18_2 H 0.846(2) 0.8627(19) 0.4427(10)
C7_3 C 0.46847(18) 0.07681(19) 0.17398(11)
C9_3 C 0.35420(17) 0.03945(17) 0.22809(9)
C10_3 C 0.3787(2) 0.1853(2) 0.19959(12)
C11_3 C 0.42559(19) 0.01528(19) 0.20127(11)
C14_3 C 0.3321(2) 0.1276(2) 0.22746(12)
H1_3 H 0.2767(17) 0.0042(17) 0.2853(10)
H3_3 H 0.5149(17) 0.0573(17) 0.1534(9)
H9_3 H 0.285(2) 0.147(2) 0.2482(11)
H11_3 H 0.365(3) 0.246(2) 0.1989(12)
S1_3 S 0.29892(9) 0.50327(8) 0.36947(4)
N1_3 N 0.41230(13) 0.79556(13) 0.31289(7)
N3_3 N 0.43069(16) 0.63002(16) 0.36885(8)
N4_3 N 0.34162(14) 0.89403(14) 0.26825(8)
C1_3 C 0.39075(15) 0.75657(17) 0.26917(9)
C2_3 C 0.3776(2) 0.5762(2) 0.36937(9)
C3_3 C 0.34698(16) 0.81829(18) 0.24099(9)
C4_3 C 0.38138(17) 0.87611(18) 0.31006(10)
C5_3 C 0.40686(18) 0.67256(19) 0.25207(11)
C6_3 C 0.37985(19) 0.6535(2) 0.20649(11)
C8_3 C 0.2982(2) 0.9764(2) 0.25573(13)
C12_3 C 0.3371(2) 0.7162(2) 0.17838(12)
C13_3 C 0.3197(2) 0.7995(2) 0.19492(11)
H2_3 H 0.2467(19) 0.9596(19) 0.2385(10)
H4_3 H 0.3192(18) 0.7018(17) 0.1480(11)
H5_3 H 0.3846(15) 0.9188(15) 0.3350(8)
H6_3 H 0.4296(16) 0.6313(16) 0.2708(9)
H7_3 H 0.3873(19) 0.596(2) 0.1927(10)
H8_3 H 0.446(2) 0.9580(19) 0.2011(10)
H10_3 H 0.2891(18) 0.8373(18) 0.1763(9)
S2_3 S 0.70108(9) 0.99673(8) 0.36947(4)
N5_3 N 0.58770(13) 0.70444(13) 0.31289(7)
N9_3 N 0.56931(16) 0.86998(16) 0.36885(8)
N10_3 N 0.65838(14) 0.60597(14) 0.26825(8)
C15_3 C 0.60925(15) 0.74343(17) 0.26917(9)
C16_3 C 0.6224(2) 0.9238(2) 0.36937(9)
C17_3 C 0.65302(16) 0.68171(18) 0.24099(9)
C18_3 C 0.61862(17) 0.62389(18) 0.31006(10)
C19_3 C 0.59314(18) 0.82744(19) 0.25207(11)
C20_3 C 0.62015(19) 0.8465(2) 0.20649(11)
C21_3 C 0.53153(18) 0.42319(19) 0.17398(11)
C22_3 C 0.7018(2) 0.5236(2) 0.25573(13)
C23_3 C 0.64580(17) 0.46055(17) 0.22809(9)
C24_3 C 0.6213(2) 0.3147(2) 0.19959(12)
C25_3 C 0.57441(19) 0.48472(19) 0.20127(11)
C26_3 C 0.6629(2) 0.7838(2) 0.17838(12)
C27_3 C 0.6803(2) 0.7005(2) 0.19492(11)
C28_3 C 0.6679(2) 0.3724(2) 0.22746(12)
H12_3 H 0.7233(17) 0.4958(17) 0.2853(10)
H13 H 0.7533(19) 0.5404(19) 0.2385(10)
H14_3 H 0.4851(17) 0.4427(17) 0.1534(9)
H15_3 H 0.6808(18) 0.7982(17) 0.1480(11)
H16_3 H 0.6154(15) 0.5812(15) 0.3350(8)
H17_3 H 0.5704(16) 0.8687(16) 0.2708(9)
H18_3 H 0.6127(19) 0.904(2) 0.1927(10)
H19_3 H 0.554(2) 0.5420(19) 0.2011(10)
H20_3 H 0.715(2) 0.353(2) 0.2482(11)
H21_3 H 0.7109(18) 0.6627(18) 0.1763(9)
H22_3 H 0.635(3) 0.254(2) 0.1989(12)
S1_4 S 0.20108(9) 0.49673(8) 0.86947(4)
N1_4 N 0.08770(13) 0.20444(13) 0.81289(7)
N3_4 N 0.06931(16) 0.36998(16) 0.86885(8)
N4_4 N 0.15838(14) 0.10597(14) 0.76825(8)
C1_4 C 0.10925(15) 0.24343(17) 0.76917(9)
C2_4 C 0.1224(2) 0.4238(2) 0.86937(9)
C3_4 C 0.15302(16) 0.18171(18) 0.74099(9)
C4_4 C 0.11862(17) 0.12389(18) 0.81006(10)
C5_4 C 0.09314(18) 0.32744(19) 0.75207(11)
C6_4 C 0.12015(19) 0.3465(2) 0.70649(11)
C8_4 C 0.2018(2) 0.0236(2) 0.75573(13)
C12_4 C 0.1629(2) 0.2838(2) 0.67838(12)
C13_4 C 0.1803(2) 0.2005(2) 0.69492(11)
H2_4 H 0.2533(19) 0.0404(19) 0.7385(10)
H4_4 H 0.1808(18) 0.2982(17) 0.6480(11)
H5_4 H 0.1154(15) 0.0812(15) 0.8350(8)
H6_4 H 0.0704(16) 0.3687(16) 0.7708(9)
H7_4 H 0.1127(19) 0.404(2) 0.6927(10)
H8_4 H 0.054(2) 0.0420(19) 0.7011(10)
H10_4 H 0.2109(18) 0.1627(18) 0.6763(9)
H14_4 H 0.0149(17) 0.5573(17) 0.6534(9)
C7_4 C 0.03153(18) 0.92319(19) 0.67398(11)
C9_4 C 0.14580(17) 0.96055(17) 0.72809(9)
C10_4 C 0.1213(2) 0.8147(2) 0.69959(12)
C11_4 C 0.07441(19) 0.98472(19) 0.70127(11)
C14_4 C 0.1679(2) 0.8724(2) 0.72746(12)
H1_4 H 0.2233(17) 0.9958(17) 0.7853(10)
H9_4 H 0.215(2) 0.853(2) 0.7482(11)
H11_4 H 0.135(3) 0.754(2) 0.6989(12)
S2_4 S 0.79892(9) 0.00327(8) 0.86947(4)
N5_4 N 0.91230(13) 0.29556(13) 0.81289(7)
N9_4 N 0.93069(16) 0.13002(16) 0.86885(8)
N10_4 N 0.84162(14) 0.39403(14) 0.76825(8)
C15_4 C 0.89075(15) 0.25657(17) 0.76917(9)
C16_4 C 0.8776(2) 0.0762(2) 0.86937(9)
C17_4 C 0.84698(16) 0.31829(18) 0.74099(9)
C18_4 C 0.88138(17) 0.37611(18) 0.81006(10)
C19_4 C 0.90686(18) 0.17256(19) 0.75207(11)
C20_4 C 0.87985(19) 0.1535(2) 0.70649(11)
C21_4 C 0.96847(18) 0.57681(19) 0.67398(11)
C22_4 C 0.7982(2) 0.4764(2) 0.75573(13)
C23_4 C 0.85420(17) 0.53945(17) 0.72809(9)
C24_4 C 0.8787(2) 0.6853(2) 0.69959(12)
C25_4 C 0.92559(19) 0.51528(19) 0.70127(11)
C26_4 C 0.8371(2) 0.2162(2) 0.67838(12)
C27_4 C 0.8197(2) 0.2995(2) 0.69492(11)
C28_4 C 0.8321(2) 0.6276(2) 0.72746(12)
H12_4 H 0.7767(17) 0.5042(17) 0.7853(10)
H13_2 H 0.7467(19) 0.4596(19) 0.7385(10)
H15_4 H 0.8192(18) 0.2018(17) 0.6480(11)
H16_4 H 0.8846(15) 0.4188(15) 0.8350(8)
H17_4 H 0.9296(16) 0.1313(16) 0.7708(9)
H18_4 H 0.8873(19) 0.096(2) 0.6927(10)
H19_4 H 0.946(2) 0.4580(19) 0.7011(10)
H20_4 H 0.785(2) 0.647(2) 0.7482(11)
H21_4 H 0.7891(18) 0.3373(18) 0.6763(9)
H22_4 H 0.865(3) 0.746(2) 0.6989(12)
H3_4 H 0.9851(17) 0.9427(17) 0.6534(9)
H13_3 H 0.2904(19) 0.9967(19) 0.9885(10)
H13_4 H 0.2096(19) 0.0033(19) 0.4885(10)
Co2_2 Co -0.0000 0.7500 0.132224(17)
N2_3 N 0.08860(15) 0.69579(13) 0.07785(8)
C3_5 C 0.43171(18) 0.59698(16) 0.00901(9)
C6_5 C 0.5965(2) 0.62985(19) 0.04351(11)
C7_5 C 0.17319(19) 0.71847(18) 0.07602(11)
C9_5 C 0.21055(17) 0.60420(17) 0.02191(9)
C10_5 C 0.0647(2) 0.6287(2) 0.05041(12)
C11_5 C 0.23472(19) 0.67559(19) 0.04873(11)
C12_5 C 0.5338(2) 0.5871(2) 0.07162(12)
C13_5 C 0.4505(2) 0.5697(2) 0.05508(11)
C14_5 C 0.1224(2) 0.5821(2) 0.02254(12)
H2_5 H 0.2904(19) 0.4967(19) 0.0115(10)
H3_5 H 0.1927(17) 0.7649(17) 0.0966(9)
H4_5 H 0.5482(17) 0.5692(18) 0.1020(11)
H7_5 H 0.654(2) 0.6373(19) 0.0573(10)
H8_5 H 0.2920(19) 0.696(2) 0.0489(10)
H9_5 H 0.103(2) 0.535(2) 0.0018(11)
H10_5 H 0.4127(18) 0.5391(18) 0.0737(9)
H11_5 H 0.004(2) 0.615(3) 0.0511(12)
Co2_3 Co 1.0000 0.7500 0.132224(17)
N6_3 N 0.91140(15) 0.80421(13) 0.07785(8)
C17_5 C 0.56829(18) 0.90302(16) 0.00901(9)
C20_5 C 0.4035(2) 0.87015(19) 0.04351(11)
C21_5 C 0.82681(19) 0.78153(18) 0.07602(11)
C23_5 C 0.78945(17) 0.89580(17) 0.02191(9)
C24_5 C 0.9353(2) 0.8713(2) 0.05041(12)
C25_5 C 0.76528(19) 0.82441(19) 0.04873(11)
C26_5 C 0.4662(2) 0.9129(2) 0.07162(12)
C27_5 C 0.5495(2) 0.9303(2) 0.05508(11)
C28_5 C 0.8776(2) 0.9179(2) 0.02254(12)
H14_5 H 0.8073(17) 0.7351(17) 0.0966(9)
H15_5 H 0.4518(17) 0.9308(18) 0.1020(11)
H18_5 H 0.346(2) 0.8627(19) 0.0573(10)
H19_5 H 0.7080(19) 0.804(2) 0.0489(10)
H20_5 H 0.897(2) 0.965(2) 0.0018(11)
H21_5 H 0.5873(18) 0.9609(18) 0.0737(9)
H22_5 H 0.996(2) 0.885(3) 0.0511(12)
Co1_4 Co 0.5000 0.7500 0.882224(17)
S1_5 S 0.74673(8) 0.54892(9) 0.88053(4)
N1_5 N 0.45444(13) 0.66230(13) 0.93711(7)
N3_5 N 0.61998(16) 0.68069(16) 0.88115(8)
N4_5 N 0.35597(14) 0.59162(14) 0.98175(8)
C1_5 C 0.49343(17) 0.64075(15) 0.98083(9)
C2_5 C 0.6738(2) 0.6276(2) 0.88063(9)
C4_5 C 0.37389(18) 0.63138(17) 0.93994(10)
C5_5 C 0.57744(19) 0.65686(18) 0.99793(11)
C8_5 C 0.2736(2) 0.5482(2) 0.99427(13)
H1_5 H 0.2458(17) 0.5267(17) 0.9647(10)
H5_5 H 0.3312(15) 0.6346(15) 0.9150(8)
H6_5 H 0.6187(16) 0.6796(16) 0.9792(9)
S2_5 S 0.25327(8) 0.95108(9) 0.88053(4)
N5_5 N 0.54556(13) 0.83770(13) 0.93711(7)
N7_3 N 0.55421(13) 0.83860(15) 0.82785(8)
N8_3 N 0.44579(13) 0.66140(15) 0.82785(8)
N9_5 N 0.38002(16) 0.81931(16) 0.88115(8)
N10_5 N 0.64403(14) 0.90838(14) 0.98175(8)
C15_5 C 0.50657(17) 0.85925(15) 0.98083(9)
C16_5 C 0.3262(2) 0.8724(2) 0.88063(9)
C18_5 C 0.62611(18) 0.86862(17) 0.93994(10)
C19_5 C 0.42256(19) 0.84314(18) 0.99793(11)
C22_5 C 0.7264(2) 0.9518(2) 0.99427(13)
H12_5 H 0.7542(17) 0.9733(17) 0.9647(10)
H16_5 H 0.6688(15) 0.8654(15) 0.9150(8)
H17_5 H 0.3813(16) 0.8204(16) 0.9792(9)
Co1_5 Co 0.0000 0.2500 0.382224(17)
N1_6 N 0.04556(13) 0.33770(13) 0.43711(7)
N2_4 N 0.41140(15) 0.30421(13) 0.57785(8)
N4_6 N 0.14403(14) 0.40838(14) 0.48175(8)
C1_6 C 0.00657(17) 0.35925(15) 0.48083(9)
C3_6 C 0.06829(18) 0.40302(16) 0.50901(9)
C4_6 C 0.12611(18) 0.36862(17) 0.43994(10)
C7_6 C 0.32681(19) 0.28153(18) 0.57602(11)
C8_6 C 0.2264(2) 0.4518(2) 0.49427(13)
C9_6 C 0.28945(17) 0.39580(17) 0.52191(9)
C10_6 C 0.4353(2) 0.3713(2) 0.55041(12)
C11_6 C 0.26528(19) 0.32441(19) 0.54873(11)
C13_6 C 0.0495(2) 0.4303(2) 0.55508(11)
C14_6 C 0.3776(2) 0.4179(2) 0.52254(12)
H1_6 H 0.2542(17) 0.4733(17) 0.4647(10)
H2_6 H 0.2096(19) 0.5033(19) 0.5115(10)
H3_6 H 0.3073(17) 0.2351(17) 0.5966(9)
H5_6 H 0.1688(15) 0.3654(15) 0.4150(8)
H8_6 H 0.2080(19) 0.304(2) 0.5489(10)
H9_6 H 0.397(2) 0.465(2) 0.5018(11)
H10_6 H 0.0873(18) 0.4609(18) 0.5737(9)
H11_6 H 0.496(2) 0.385(3) 0.5511(12)
Co3_3 Co 0.5000 0.2500 0.632224(17)
S2_6 S 0.24673(8) 0.04892(9) 0.38053(4)
N8_4 N 0.05421(13) 0.33860(15) 0.32785(8)
N9_6 N 0.11998(16) 0.18069(16) 0.38115(8)
C16_6 C 0.1738(2) 0.1276(2) 0.38063(9)
C19_6 C 0.07744(19) 0.15686(18) 0.49793(11)
C20_6 C 0.0965(2) 0.12985(19) 0.54351(11)
C26_6 C 0.0338(2) 0.0871(2) 0.57162(12)
H15_6 H 0.0482(17) 0.0692(18) 0.6020(11)
H17_6 H 0.1187(16) 0.1796(16) 0.4792(9)
H18_6 H 0.154(2) 0.1373(19) 0.5573(10)
Co1_6 Co 1.0000 0.2500 0.382224(17)
S1_6 S 0.75327(8) 0.45108(9) 0.38053(4)
N3_6 N 0.88002(16) 0.31931(16) 0.38115(8)
C2_6 C 0.8262(2) 0.3724(2) 0.38063(9)
C5_6 C 0.92256(19) 0.34314(18) 0.49793(11)
C6_6 C 0.9035(2) 0.37015(19) 0.54351(11)
C12_6 C 0.9662(2) 0.4129(2) 0.57162(12)
H4_6 H 0.9518(17) 0.4308(18) 0.6020(11)
H6_6 H 0.8813(16) 0.3204(16) 0.4792(9)
H7_6 H 0.846(2) 0.3627(19) 0.5573(10)
N5_6 N 0.95444(13) 0.16230(13) 0.43711(7)
N6_4 N 0.58860(15) 0.19579(13) 0.57785(8)
N7_4 N 0.94579(13) 0.16140(15) 0.32785(8)
N10_6 N 0.85597(14) 0.09162(14) 0.48175(8)
C15_6 C 0.99343(17) 0.14075(15) 0.48083(9)
C17_6 C 0.93171(18) 0.09698(16) 0.50901(9)
C18_6 C 0.87389(18) 0.13138(17) 0.43994(10)
C21_6 C 0.67319(19) 0.21847(18) 0.57602(11)
C22_6 C 0.7736(2) 0.0482(2) 0.49427(13)
C23_6 C 0.71055(17) 0.10420(17) 0.52191(9)
C24_6 C 0.5647(2) 0.1287(2) 0.55041(12)
C25_6 C 0.73472(19) 0.17559(19) 0.54873(11)
C27_6 C 0.9505(2) 0.0697(2) 0.55508(11)
C28_6 C 0.6224(2) 0.0821(2) 0.52254(12)
H12_6 H 0.7458(17) 0.0267(17) 0.4647(10)
H14_6 H 0.6927(17) 0.2649(17) 0.5966(9)
H16_6 H 0.8312(15) 0.1346(15) 0.4150(8)
H19_6 H 0.7920(19) 0.196(2) 0.5489(10)
H20_6 H 0.603(2) 0.035(2) 0.5018(11)
H21_6 H 0.9127(18) 0.0391(18) 0.5737(9)
H22_6 H 0.504(2) 0.115(3) 0.5511(12)
S1_7 S 0.70108(9) 0.49673(8) 0.63053(4)
N1_7 N 0.58770(13) 0.20444(13) 0.68711(7)
N3_7 N 0.56931(16) 0.36998(16) 0.63115(8)
N4_7 N 0.65838(14) 0.10597(14) 0.73175(8)
C1_7 C 0.60925(15) 0.24343(17) 0.73083(9)
C2_7 C 0.6224(2) 0.4238(2) 0.63063(9)
C3_7 C 0.65302(16) 0.18171(18) 0.75901(9)
C4_7 C 0.61862(17) 0.12389(18) 0.68994(10)
C5_7 C 0.59314(18) 0.32744(19) 0.74793(11)
C6_7 C 0.62015(19) 0.3465(2) 0.79351(11)
C8_7 C 0.7018(2) 0.0236(2) 0.74427(13)
C12_7 C 0.6629(2) 0.2838(2) 0.82162(12)
C13_7 C 0.6803(2) 0.2005(2) 0.80508(11)
H2_7 H 0.7533(19) 0.0404(19) 0.7615(10)
H4_7 H 0.6808(18) 0.2982(17) 0.8520(11)
H5_7 H 0.6154(15) 0.0812(15) 0.6650(8)
H6_7 H 0.5704(16) 0.3687(16) 0.7292(9)
H7_7 H 0.6127(19) 0.404(2) 0.8073(10)
H8_7 H 0.554(2) 0.0420(19) 0.7989(10)
H10_7 H 0.7109(18) 0.1627(18) 0.8237(9)
S2_7 S 0.29892(9) 0.00327(8) 0.63053(4)
N5_7 N 0.41230(13) 0.29556(13) 0.68711(7)
N9_7 N 0.43069(16) 0.13002(16) 0.63115(8)
N10_7 N 0.34162(14) 0.39403(14) 0.73175(8)
C15_7 C 0.39075(15) 0.25657(17) 0.73083(9)
C16_7 C 0.3776(2) 0.0762(2) 0.63063(9)
C17_7 C 0.34698(16) 0.31829(18) 0.75901(9)
C18_7 C 0.38138(17) 0.37611(18) 0.68994(10)
C19_7 C 0.40686(18) 0.17256(19) 0.74793(11)
C20_7 C 0.37985(19) 0.1535(2) 0.79351(11)
C21_7 C 0.46847(18) 0.57681(19) 0.82602(11)
C22_7 C 0.2982(2) 0.4764(2) 0.74427(13)
C23_7 C 0.35420(17) 0.53945(17) 0.77191(9)
C24_7 C 0.3787(2) 0.6853(2) 0.80041(12)
C25_7 C 0.42559(19) 0.51528(19) 0.79873(11)
C26_7 C 0.3371(2) 0.2162(2) 0.82162(12)
C27_7 C 0.3197(2) 0.2995(2) 0.80508(11)
C28_7 C 0.3321(2) 0.6276(2) 0.77254(12)
H12_7 H 0.2767(17) 0.5042(17) 0.7147(10)
H13_5 H 0.2467(19) 0.4596(19) 0.7615(10)
H14_7 H 0.5149(17) 0.5573(17) 0.8466(9)
H15_7 H 0.3192(18) 0.2018(17) 0.8520(11)
H16_7 H 0.3846(15) 0.4188(15) 0.6650(8)
H17_7 H 0.4296(16) 0.1313(16) 0.7292(9)
H18_7 H 0.3873(19) 0.096(2) 0.8073(10)
H19_7 H 0.446(2) 0.4580(19) 0.7989(10)
H20_7 H 0.285(2) 0.647(2) 0.7518(11)
H21_7 H 0.2891(18) 0.3373(18) 0.8237(9)
H22_7 H 0.365(3) 0.746(2) 0.8011(12)
C7_7 C 0.53153(18) 0.92319(19) 0.82602(11)
C9_7 C 0.64580(17) 0.96055(17) 0.77191(9)
C10_7 C 0.6213(2) 0.8147(2) 0.80041(12)
C11_7 C 0.57441(19) 0.98472(19) 0.79873(11)
C14_7 C 0.6679(2) 0.8724(2) 0.77254(12)
H1_7 H 0.7233(17) 0.9958(17) 0.7147(10)
H3_7 H 0.4851(17) 0.9427(17) 0.8466(9)
H9_7 H 0.715(2) 0.853(2) 0.7518(11)
H11_7 H 0.635(3) 0.754(2) 0.8011(12)
H3_8 H 0.0149(17) 0.0573(17) 0.3466(9)
S2_8 S 0.20108(9) 0.99673(8) 0.13053(4)
N5_8 N 0.08770(13) 0.70444(13) 0.18711(7)
N9_8 N 0.06931(16) 0.86998(16) 0.13115(8)
N10_8 N 0.15838(14) 0.60597(14) 0.23175(8)
C15_8 C 0.10925(15) 0.74343(17) 0.23083(9)
C16_8 C 0.1224(2) 0.9238(2) 0.13063(9)
C17_8 C 0.15302(16) 0.68171(18) 0.25901(9)
C18_8 C 0.11862(17) 0.62389(18) 0.18994(10)
C19_8 C 0.09314(18) 0.82744(19) 0.24793(11)
C20_8 C 0.12015(19) 0.8465(2) 0.29351(11)
C21_8 C 0.03153(18) 0.42319(19) 0.32602(11)
C22_8 C 0.2018(2) 0.5236(2) 0.24427(13)
C23_8 C 0.14580(17) 0.46055(17) 0.27191(9)
C24_8 C 0.1213(2) 0.3147(2) 0.30041(12)
C25_8 C 0.07441(19) 0.48472(19) 0.29873(11)
C26_8 C 0.1629(2) 0.7838(2) 0.32162(12)
C27_8 C 0.1803(2) 0.7005(2) 0.30508(11)
C28_8 C 0.1679(2) 0.3724(2) 0.27254(12)
H12_8 H 0.2233(17) 0.4958(17) 0.2147(10)
H13_6 H 0.2533(19) 0.5404(19) 0.2615(10)
H15_8 H 0.1808(18) 0.7982(17) 0.3520(11)
H16_8 H 0.1154(15) 0.5812(15) 0.1650(8)
H17_8 H 0.0704(16) 0.8687(16) 0.2292(9)
H18_8 H 0.1127(19) 0.904(2) 0.3073(10)
H19_8 H 0.054(2) 0.5420(19) 0.2989(10)
H20_8 H 0.215(2) 0.353(2) 0.2518(11)
H21_8 H 0.2109(18) 0.6627(18) 0.3237(9)
H22_8 H 0.135(3) 0.254(2) 0.3011(12)
C7_8 C 0.96847(18) 0.07681(19) 0.32602(11)
C9_8 C 0.85420(17) 0.03945(17) 0.27191(9)
C10_8 C 0.8787(2) 0.1853(2) 0.30041(12)
C11_8 C 0.92559(19) 0.01528(19) 0.29873(11)
C14_8 C 0.8321(2) 0.1276(2) 0.27254(12)
H1_8 H 0.7767(17) 0.0042(17) 0.2147(10)
H9_8 H 0.785(2) 0.147(2) 0.2518(11)
H11_8 H 0.865(3) 0.246(2) 0.3011(12)
S1_8 S 0.79892(9) 0.50327(8) 0.13053(4)
N1_8 N 0.91230(13) 0.79556(13) 0.18711(7)
N3_8 N 0.93069(16) 0.63002(16) 0.13115(8)
N4_8 N 0.84162(14) 0.89403(14) 0.23175(8)
C1_8 C 0.89075(15) 0.75657(17) 0.23083(9)
C2_8 C 0.8776(2) 0.5762(2) 0.13063(9)
C3_8 C 0.84698(16) 0.81829(18) 0.25901(9)
C4_8 C 0.88138(17) 0.87611(18) 0.18994(10)
C5_8 C 0.90686(18) 0.67256(19) 0.24793(11)
C6_8 C 0.87985(19) 0.6535(2) 0.29351(11)
C8_8 C 0.7982(2) 0.9764(2) 0.24427(13)
C12_8 C 0.8371(2) 0.7162(2) 0.32162(12)
C13_8 C 0.8197(2) 0.7995(2) 0.30508(11)
H2_8 H 0.7467(19) 0.9596(19) 0.2615(10)
H4_8 H 0.8192(18) 0.7018(17) 0.3520(11)
H5_8 H 0.8846(15) 0.9188(15) 0.1650(8)
H6_8 H 0.9296(16) 0.6313(16) 0.2292(9)
H7_8 H 0.8873(19) 0.596(2) 0.3073(10)
H8_8 H 0.946(2) 0.9580(19) 0.2989(10)
H10_8 H 0.7891(18) 0.8373(18) 0.3237(9)
H14_8 H 0.9851(17) 0.4427(17) 0.3466(9)
H13_7 H 0.7096(19) 0.0033(19) 0.0115(10)
H13_8 H 0.7904(19) 0.9967(19) 0.5115(10)
loop_
_geom_bond_atom_site_label_1
_geom_bond_atom_site_label_2
_geom_bond_site_symmetry_1
_geom_bond_site_symmetry_2
Co1 N1 1_555 1_555
S1 C2 1_555 1_555
N1 C1 1_555 1_555
N3 Co1 1_555 1_555
C2 N3 1_555 1_555
C4 N1 1_555 1_555
C5 C1 1_555 1_555
C8 N4 1_555 1_555
H1 C8 1_555 1_555
H5 C4 1_555 1_555
H6 C5 1_555 1_555
S2 C16 1_555 1_555
N5 Co1 1_555 1_555
N7 Co1 1_555 1_555
N8 Co1 1_555 1_555
N9 Co1 1_555 1_555
C15 N5 1_555 1_555
C16 N9 1_555 1_555
C18 N5 1_555 1_555
C19 C15 1_555 1_555
C22 N10 1_555 1_555
H12 C22 1_555 1_555
H16 C18 1_555 1_555
H17 C19 1_555 1_555
N4 C4 1_555 1_555
N10 C18 1_555 1_555
N2 C7 1_555 1_555
C3 C13 1_555 1_555
C7 C11 1_555 1_555
C10 N2 1_555 1_555
C11 C9 1_555 1_555
C12 C6 1_555 1_555
C13 C12 1_555 1_555
C14 C9 1_555 1_555
H3 C7 1_555 1_555
H4 C12 1_555 1_555
H7 C6 1_555 1_555
H8 C11 1_555 1_555
H9 C14 1_555 1_555
H10 C13 1_555 1_555
H11 C10 1_555 1_555
Co3 N6 1_555 1_555
Co3_2 N2 1_555 1_555
N6 C21 1_555 1_555
C21 C25 1_555 1_555
C24 N6 1_555 1_555
C25 C23 1_555 1_555
C26 C20 1_555 1_555
C27 C17 1_555 1_555
C28 C23 1_555 1_555
H14 C21 1_555 1_555
H15 C26 1_555 1_555
H18 C20 1_555 1_555
H19 C25 1_555 1_555
H20 C28 1_555 1_555
H21 C27 1_555 1_555
H22 C24 1_555 1_555
C10 C14 1_555 1_555
C24 C28 1_555 1_555
C26 C27 1_555 1_555
S1_2 C2_2 1_555 1_555
N3_2 Co1_2 1_555 1_555
C2_2 N3_2 1_555 1_555
C6_2 C5_2 1_555 1_555
C12_2 C6_2 1_555 1_555
H4_2 C12_2 1_555 1_555
H6_2 C5_2 1_555 1_555
H7_2 C6_2 1_555 1_555
Co2 N6_2 1_555 1_555
N5_2 Co1_2 1_555 1_555
N6_2 C21_2 1_555 1_555
N7_2 Co1_2 1_555 1_555
N10_2 C17_2 1_555 1_555
C15_2 N5_2 1_555 1_555
C17_2 C15_2 1_555 1_555
C18_2 N5_2 1_555 1_555
C21_2 C25_2 1_555 1_555
C22_2 N10_2 1_555 1_555
C23_2 C22_2 1_555 1_555
C24_2 N6_2 1_555 1_555
C25_2 C23_2 1_555 1_555
C27_2 C17_2 1_555 1_555
C28_2 C23_2 1_555 1_555
H12_2 C22_2 1_555 1_555
H14_2 C21_2 1_555 1_555
H16_2 C18_2 1_555 1_555
H19_2 C25_2 1_555 1_555
H20_2 C28_2 1_555 1_555
H21_2 C27_2 1_555 1_555
H22_2 C24_2 1_555 1_555
N10_2 C18_2 1_555 1_555
C24_2 C28_2 1_555 1_555
Co1_3 N1_2 1_555 1_555
N1_2 C1_2 1_555 1_555
N2_2 C7_2 1_555 1_555
N4_2 C3_2 1_555 1_555
C1_2 C3_2 1_555 1_555
C3_2 C13_2 1_555 1_555
C4_2 N1_2 1_555 1_555
C7_2 C11_2 1_555 1_555
C8_2 N4_2 1_555 1_555
C9_2 C8_2 1_555 1_555
C10_2 N2_2 1_555 1_555
C11_2 C9_2 1_555 1_555
C14_2 C9_2 1_555 1_555
H1_2 C8_2 1_555 1_555
H2_2 C8_2 1_555 1_555
H3_2 C7_2 1_555 1_555
H5_2 C4_2 1_555 1_555
H8_2 C11_2 1_555 1_555
H9_2 C14_2 1_555 1_555
H10_2 C13_2 1_555 1_555
H11_2 C10_2 1_555 1_555
Co2 N2_2 1_555 1_555
S2_2 C16_2 1_555 1_555
N8_2 Co1_3 1_555 1_555
N9_2 Co1_3 1_555 1_555
C16_2 N9_2 1_555 1_555
C20_2 C19_2 1_555 1_555
C26_2 C20_2 1_555 1_555
H15_2 C26_2 1_555 1_555
H17_2 C19_2 1_555 1_555
H18_2 C20_2 1_555 1_555
N4_2 C4_2 1_555 1_555
C10_2 C14_2 1_555 1_555
N7 C7_3 1_555 1_555
C7_3 C11_3 1_555 1_555
C10_3 N7 1_555 1_555
C11_3 C9_3 1_555 1_555
C14_3 C9_3 1_555 1_555
H3_3 C7_3 1_555 1_555
H9_3 C14_3 1_555 1_555
H11_3 C10_3 1_555 1_555
C10_3 C14_3 1_555 1_555
Co2 N1_3 1_555 1_555
S1_3 C2_3 1_555 1_555
N1_3 C1_3 1_555 1_555
N3_3 Co2 1_555 1_555
N4_3 C3_3 1_555 1_555
C1_3 C3_3 1_555 1_555
C2_3 N3_3 1_555 1_555
C3_3 C13_3 1_555 1_555
C4_3 N1_3 1_555 1_555
C5_3 C1_3 1_555 1_555
C6_3 C5_3 1_555 1_555
C8_3 N4_3 1_555 1_555
C12_3 C6_3 1_555 1_555
C13_3 C12_3 1_555 1_555
H2_3 C8_3 1_555 1_555
H4_3 C12_3 1_555 1_555
H5_3 C4_3 1_555 1_555
H6_3 C5_3 1_555 1_555
H7_3 C6_3 1_555 1_555
H10_3 C13_3 1_555 1_555
S2_3 C16_3 1_555 1_555
N5_3 Co2 1_555 1_555
N8 C21_3 1_555 1_555
N9_3 Co2 1_555 1_555
N10_3 C17_3 1_555 1_555
C15_3 N5_3 1_555 1_555
C16_3 N9_3 1_555 1_555
C17_3 C15_3 1_555 1_555
C18_3 N5_3 1_555 1_555
C19_3 C15_3 1_555 1_555
C20_3 C19_3 1_555 1_555
C21_3 C25_3 1_555 1_555
C22_3 N10_3 1_555 1_555
C23_3 C22_3 1_555 1_555
C24_3 N8 1_555 1_555
C25_3 C23_3 1_555 1_555
C26_3 C20_3 1_555 1_555
C27_3 C17_3 1_555 1_555
C28_3 C23_3 1_555 1_555
H12_3 C22_3 1_555 1_555
H13 C22_3 1_555 1_555
H14_3 C21_3 1_555 1_555
H15_3 C26_3 1_555 1_555
H16_3 C18_3 1_555 1_555
H17_3 C19_3 1_555 1_555
H18_3 C20_3 1_555 1_555
H19_3 C25_3 1_555 1_555
H20_3 C28_3 1_555 1_555
H21_3 C27_3 1_555 1_555
H22_3 C24_3 1_555 1_555
N4_3 C4_3 1_555 1_555
N10_3 C18_3 1_555 1_555
C24_3 C28_3 1_555 1_555
C26_3 C27_3 1_555 1_555
Co3 N1_4 1_555 1_555
S1_4 C2_4 1_555 1_555
N1_4 C1_4 1_555 1_555
N3_4 Co3 1_555 1_555
N4_4 C3_4 1_555 1_555
C1_4 C3_4 1_555 1_555
C2_4 N3_4 1_555 1_555
C3_4 C13_4 1_555 1_555
C4_4 N1_4 1_555 1_555
C5_4 C1_4 1_555 1_555
C6_4 C5_4 1_555 1_555
C8_4 N4_4 1_555 1_555
C12_4 C6_4 1_555 1_555
C13_4 C12_4 1_555 1_555
H2_4 C8_4 1_555 1_555
H4_4 C12_4 1_555 1_555
H5_4 C4_4 1_555 1_555
H6_4 C5_4 1_555 1_555
H7_4 C6_4 1_555 1_555
H10_4 C13_4 1_555 1_555
N4_4 C4_4 1_555 1_555
N7_2 C7_4 1_555 1_555
C7_4 C11_4 1_555 1_555
C10_4 N7_2 1_555 1_555
C11_4 C9_4 1_555 1_555
C14_4 C9_4 1_555 1_555
H9_4 C14_4 1_555 1_555
H11_4 C10_4 1_555 1_555
C10_4 C14_4 1_555 1_555
S2_4 C16_4 1_555 1_555
N5_4 Co3_2 1_555 1_555
N8_2 C21_4 1_555 1_555
N9_4 Co3_2 1_555 1_555
N10_4 C17_4 1_555 1_555
C15_4 N5_4 1_555 1_555
C16_4 N9_4 1_555 1_555
C17_4 C15_4 1_555 1_555
C18_4 N5_4 1_555 1_555
C19_4 C15_4 1_555 1_555
C20_4 C19_4 1_555 1_555
C21_4 C25_4 1_555 1_555
C22_4 N10_4 1_555 1_555
C23_4 C22_4 1_555 1_555
C24_4 N8_2 1_555 1_555
C25_4 C23_4 1_555 1_555
C26_4 C20_4 1_555 1_555
C27_4 C17_4 1_555 1_555
C28_4 C23_4 1_555 1_555
H12_4 C22_4 1_555 1_555
H13_2 C22_4 1_555 1_555
H15_4 C26_4 1_555 1_555
H16_4 C18_4 1_555 1_555
H17_4 C19_4 1_555 1_555
H18_4 C20_4 1_555 1_555
H19_4 C25_4 1_555 1_555
H20_4 C28_4 1_555 1_555
H21_4 C27_4 1_555 1_555
H22_4 C24_4 1_555 1_555
N10_4 C18_4 1_555 1_555
C24_4 C28_4 1_555 1_555
C26_4 C27_4 1_555 1_555
N2_3 C7_5 1_555 1_555
C3_5 C13_5 1_555 1_555
C7_5 C11_5 1_555 1_555
C10_5 N2_3 1_555 1_555
C11_5 C9_5 1_555 1_555
C12_5 C6_5 1_555 1_555
C13_5 C12_5 1_555 1_555
C14_5 C9_5 1_555 1_555
H3_5 C7_5 1_555 1_555
H4_5 C12_5 1_555 1_555
H7_5 C6_5 1_555 1_555
H8_5 C11_5 1_555 1_555
H9_5 C14_5 1_555 1_555
H10_5 C13_5 1_555 1_555
H11_5 C10_5 1_555 1_555
Co2_3 N6_3 1_555 1_555
Co2_2 N2_3 1_555 1_555
N6_3 C21_5 1_555 1_555
C21_5 C25_5 1_555 1_555
C24_5 N6_3 1_555 1_555
C25_5 C23_5 1_555 1_555
C26_5 C20_5 1_555 1_555
C27_5 C17_5 1_555 1_555
C28_5 C23_5 1_555 1_555
H14_5 C21_5 1_555 1_555
H15_5 C26_5 1_555 1_555
H18_5 C20_5 1_555 1_555
H19_5 C25_5 1_555 1_555
H20_5 C28_5 1_555 1_555
H21_5 C27_5 1_555 1_555
H22_5 C24_5 1_555 1_555
C10_5 C14_5 1_555 1_555
C24_5 C28_5 1_555 1_555
C26_5 C27_5 1_555 1_555
Co1_4 N1_5 1_555 1_555
S1_5 C2_5 1_555 1_555
N1_5 C1_5 1_555 1_555
N3_5 Co1_4 1_555 1_555
C2_5 N3_5 1_555 1_555
C4_5 N1_5 1_555 1_555
C5_5 C1_5 1_555 1_555
C8_5 N4_5 1_555 1_555
H1_5 C8_5 1_555 1_555
H5_5 C4_5 1_555 1_555
H6_5 C5_5 1_555 1_555
S2_5 C16_5 1_555 1_555
N5_5 Co1_4 1_555 1_555
N7_3 Co1_4 1_555 1_555
N8_3 Co1_4 1_555 1_555
N9_5 Co1_4 1_555 1_555
C15_5 N5_5 1_555 1_555
C16_5 N9_5 1_555 1_555
C18_5 N5_5 1_555 1_555
C19_5 C15_5 1_555 1_555
C22_5 N10_5 1_555 1_555
H12_5 C22_5 1_555 1_555
H16_5 C18_5 1_555 1_555
H17_5 C19_5 1_555 1_555
N4_5 C4_5 1_555 1_555
N10_5 C18_5 1_555 1_555
Co1_5 N1_6 1_555 1_555
N1_6 C1_6 1_555 1_555
N2_4 C7_6 1_555 1_555
N4_6 C3_6 1_555 1_555
C1_6 C3_6 1_555 1_555
C3_6 C13_6 1_555 1_555
C4_6 N1_6 1_555 1_555
C7_6 C11_6 1_555 1_555
C8_6 N4_6 1_555 1_555
C9_6 C8_6 1_555 1_555
C10_6 N2_4 1_555 1_555
C11_6 C9_6 1_555 1_555
C14_6 C9_6 1_555 1_555
H1_6 C8_6 1_555 1_555
H2_6 C8_6 1_555 1_555
H3_6 C7_6 1_555 1_555
H5_6 C4_6 1_555 1_555
H8_6 C11_6 1_555 1_555
H9_6 C14_6 1_555 1_555
H10_6 C13_6 1_555 1_555
H11_6 C10_6 1_555 1_555
Co3_3 N2_4 1_555 1_555
S2_6 C16_6 1_555 1_555
N8_4 Co1_5 1_555 1_555
N9_6 Co1_5 1_555 1_555
C16_6 N9_6 1_555 1_555
C20_6 C19_6 1_555 1_555
C26_6 C20_6 1_555 1_555
H15_6 C26_6 1_555 1_555
H17_6 C19_6 1_555 1_555
H18_6 C20_6 1_555 1_555
N4_6 C4_6 1_555 1_555
C10_6 C14_6 1_555 1_555
S1_6 C2_6 1_555 1_555
N3_6 Co1_6 1_555 1_555
C2_6 N3_6 1_555 1_555
C6_6 C5_6 1_555 1_555
C12_6 C6_6 1_555 1_555
H4_6 C12_6 1_555 1_555
H6_6 C5_6 1_555 1_555
H7_6 C6_6 1_555 1_555
Co3_3 N6_4 1_555 1_555
N5_6 Co1_6 1_555 1_555
N6_4 C21_6 1_555 1_555
N7_4 Co1_6 1_555 1_555
N10_6 C17_6 1_555 1_555
C15_6 N5_6 1_555 1_555
C17_6 C15_6 1_555 1_555
C18_6 N5_6 1_555 1_555
C21_6 C25_6 1_555 1_555
C22_6 N10_6 1_555 1_555
C23_6 C22_6 1_555 1_555
C24_6 N6_4 1_555 1_555
C25_6 C23_6 1_555 1_555
C27_6 C17_6 1_555 1_555
C28_6 C23_6 1_555 1_555
H12_6 C22_6 1_555 1_555
H14_6 C21_6 1_555 1_555
H16_6 C18_6 1_555 1_555
H19_6 C25_6 1_555 1_555
H20_6 C28_6 1_555 1_555
H21_6 C27_6 1_555 1_555
H22_6 C24_6 1_555 1_555
N10_6 C18_6 1_555 1_555
C24_6 C28_6 1_555 1_555
Co3_3 N1_7 1_555 1_555
S1_7 C2_7 1_555 1_555
N1_7 C1_7 1_555 1_555
N3_7 Co3_3 1_555 1_555
N4_7 C3_7 1_555 1_555
C1_7 C3_7 1_555 1_555
C2_7 N3_7 1_555 1_555
C3_7 C13_7 1_555 1_555
C4_7 N1_7 1_555 1_555
C5_7 C1_7 1_555 1_555
C6_7 C5_7 1_555 1_555
C8_7 N4_7 1_555 1_555
C12_7 C6_7 1_555 1_555
C13_7 C12_7 1_555 1_555
H2_7 C8_7 1_555 1_555
H4_7 C12_7 1_555 1_555
H5_7 C4_7 1_555 1_555
H6_7 C5_7 1_555 1_555
H7_7 C6_7 1_555 1_555
H10_7 C13_7 1_555 1_555
S2_7 C16_7 1_555 1_555
N5_7 Co3_3 1_555 1_555
N8_3 C21_7 1_555 1_555
N9_7 Co3_3 1_555 1_555
N10_7 C17_7 1_555 1_555
C15_7 N5_7 1_555 1_555
C16_7 N9_7 1_555 1_555
C17_7 C15_7 1_555 1_555
C18_7 N5_7 1_555 1_555
C19_7 C15_7 1_555 1_555
C20_7 C19_7 1_555 1_555
C21_7 C25_7 1_555 1_555
C22_7 N10_7 1_555 1_555
C23_7 C22_7 1_555 1_555
C24_7 N8_3 1_555 1_555
C25_7 C23_7 1_555 1_555
C26_7 C20_7 1_555 1_555
C27_7 C17_7 1_555 1_555
C28_7 C23_7 1_555 1_555
H12_7 C22_7 1_555 1_555
H13_5 C22_7 1_555 1_555
H14_7 C21_7 1_555 1_555
H15_7 C26_7 1_555 1_555
H16_7 C18_7 1_555 1_555
H17_7 C19_7 1_555 1_555
H18_7 C20_7 1_555 1_555
H19_7 C25_7 1_555 1_555
H20_7 C28_7 1_555 1_555
H21_7 C27_7 1_555 1_555
H22_7 C24_7 1_555 1_555
N4_7 C4_7 1_555 1_555
N10_7 C18_7 1_555 1_555
C24_7 C28_7 1_555 1_555
C26_7 C27_7 1_555 1_555
N7_3 C7_7 1_555 1_555
C7_7 C11_7 1_555 1_555
C10_7 N7_3 1_555 1_555
C11_7 C9_7 1_555 1_555
C14_7 C9_7 1_555 1_555
H3_7 C7_7 1_555 1_555
H9_7 C14_7 1_555 1_555
H11_7 C10_7 1_555 1_555
C10_7 C14_7 1_555 1_555
S2_8 C16_8 1_555 1_555
N5_8 Co2_2 1_555 1_555
N8_4 C21_8 1_555 1_555
N9_8 Co2_2 1_555 1_555
N10_8 C17_8 1_555 1_555
C15_8 N5_8 1_555 1_555
C16_8 N9_8 1_555 1_555
C17_8 C15_8 1_555 1_555
C18_8 N5_8 1_555 1_555
C19_8 C15_8 1_555 1_555
C20_8 C19_8 1_555 1_555
C21_8 C25_8 1_555 1_555
C22_8 N10_8 1_555 1_555
C23_8 C22_8 1_555 1_555
C24_8 N8_4 1_555 1_555
C25_8 C23_8 1_555 1_555
C26_8 C20_8 1_555 1_555
C27_8 C17_8 1_555 1_555
C28_8 C23_8 1_555 1_555
H12_8 C22_8 1_555 1_555
H13_6 C22_8 1_555 1_555
H15_8 C26_8 1_555 1_555
H16_8 C18_8 1_555 1_555
H17_8 C19_8 1_555 1_555
H18_8 C20_8 1_555 1_555
H19_8 C25_8 1_555 1_555
H20_8 C28_8 1_555 1_555
H21_8 C27_8 1_555 1_555
H22_8 C24_8 1_555 1_555
N10_8 C18_8 1_555 1_555
C24_8 C28_8 1_555 1_555
C26_8 C27_8 1_555 1_555
N7_4 C7_8 1_555 1_555
C7_8 C11_8 1_555 1_555
C10_8 N7_4 1_555 1_555
C11_8 C9_8 1_555 1_555
C14_8 C9_8 1_555 1_555
H9_8 C14_8 1_555 1_555
H11_8 C10_8 1_555 1_555
C10_8 C14_8 1_555 1_555
Co2_3 N1_8 1_555 1_555
S1_8 C2_8 1_555 1_555
N1_8 C1_8 1_555 1_555
N3_8 Co2_3 1_555 1_555
N4_8 C3_8 1_555 1_555
C1_8 C3_8 1_555 1_555
C2_8 N3_8 1_555 1_555
C3_8 C13_8 1_555 1_555
C4_8 N1_8 1_555 1_555
C5_8 C1_8 1_555 1_555
C6_8 C5_8 1_555 1_555
C8_8 N4_8 1_555 1_555
C12_8 C6_8 1_555 1_555
C13_8 C12_8 1_555 1_555
H2_8 C8_8 1_555 1_555
H4_8 C12_8 1_555 1_555
H5_8 C4_8 1_555 1_555
H6_8 C5_8 1_555 1_555
H7_8 C6_8 1_555 1_555
H10_8 C13_8 1_555 1_555
N4_8 C4_8 1_555 1_555

#END
