
###############################################################################
#
# This file contains modified crystal structure data generated from the
# MOF subset of the Cambridge Structural Database (CSD) v543 
# hosted by the Cambridge Crystallographic Data Centre (CCDC).
#
# This work is licensed under the Creative Commons
# Attribution-NonCommercial-ShareAlike 4.0 International License.
# To view a copy of this license, visit
# http://creativecommons.org/licenses/by-nc-sa/4.0/
# or send a letter to
# Creative Commons, PO Box 1866, Mountain View, CA 94042, USA.
#
# CIF created using the CSD Python API on 29 September 2022
# The structure has been converted into the P1 space group
# The structure has a 3D framework
# The original CSD entry UGIYER is in the monoclinic crystal system
# The framework has been calculated to contain at least 10.0% void space
# The void calculation uses a probe of radius 1.32A, grid spacing 0.4
#
###############################################################################

data_UGIYER
_chemical_formula_moiety         '(C176 H144 Co8 N32 O40)n'
_symmetry_cell_setting           triclinic
_symmetry_space_group_name_H-M   'P 1'
_symmetry_Int_Tables_number      1
_space_group_name_Hall           'P 1'
loop_
_symmetry_equiv_pos_site_id
_symmetry_equiv_pos_as_xyz
1 x,y,z
_cell_length_a                   29.811(6)
_cell_length_b                   11.069(2)
_cell_length_c                   15.255(3)
_cell_angle_alpha                90
_cell_angle_beta                 108.427(4)
_cell_angle_gamma                90
_cell_volume                     4775.72
loop_
_atom_site_label
_atom_site_type_symbol
_atom_site_fract_x
_atom_site_fract_y
_atom_site_fract_z
C20 C 0.47848(12) 0.0823(3) 0.7082(2)
H15 H 0.4883 0.0843 0.6534
H16 H 0.4605 0.1552 0.7085
C24 C 0.52152(12) 0.0823(3) 0.7918(2)
H19 H 0.5117 0.0843 0.8466
H20 H 0.5395 0.1552 0.7915
C10 C 0.68640(14) 0.3992(3) 0.0172(3)
C14 C 0.77014(13) 0.4094(3) 0.0566(3)
H10 H 0.7999 0.4108 0.1010
C15 C 0.73009(13) 0.4047(3) 0.0832(3)
H11 H 0.7327 0.4051 0.1456
H14 H 0.8570 0.5105 0.0382
O3 O 0.64836(9) 0.3880(3) 0.04893(18)
C1 C 0.39476(13) 0.5704(3) 0.7782(2)
H1 H 0.3630 0.5504 0.7531
C2 C 0.45815(13) 0.6721(3) 0.8222(2)
H2 H 0.4795 0.7359 0.8340
C3 C 0.42964(13) 0.4917(3) 0.8141(2)
H3 H 0.4265 0.4085 0.8186
C4 C 0.51678(12) 0.5118(3) 0.8920(2)
C5 C 0.55472(13) 0.5881(3) 0.9115(3)
H4 H 0.5507 0.6673 0.8902
C6 C 0.59910(13) 0.5474(4) 0.9630(3)
H5 H 0.6250 0.5992 0.9778
C7 C 0.60441(14) 0.4288(4) 0.9921(3)
C8 C 0.56671(14) 0.3533(3) 0.9708(3)
H6 H 0.5708 0.2732 0.9901
C9 C 0.52296(13) 0.3941(3) 0.9215(2)
H7 H 0.4972 0.3420 0.9078
C11 C 0.68229(13) 0.4004(3) 0.9254(3)
H8 H 0.6526 0.3959 0.8810
C12 C 0.72241(13) 0.4081(3) 0.8987(3)
H9 H 0.7198 0.4107 0.8363
C13 C 0.76606(12) 0.4120(3) 0.9645(3)
C16 C 0.81148(12) 0.3720(3) 0.8574(2)
H12 H 0.7876 0.3305 0.8135
C17 C 0.87684(13) 0.4536(3) 0.9284(3)
H13 H 0.9080 0.4798 0.9431
C18 C 0.84910(13) 0.4707(3) 0.9816(3)
C19 C 0.44668(14) 0.9738(4) 0.7026(3)
C21 C 0.2961(2) 0.7673(5) 0.6194(4)
Co1 Co 0.377507(17) 0.83932(4) 0.74713(3)
N1 N 0.85291(10) 0.3922(2) 0.84966(19)
N2 N 0.80693(10) 0.4177(2) 0.9359(2)
N3 N 0.47079(10) 0.5561(2) 0.84302(17)
N4 N 0.41284(10) 0.6851(2) 0.78388(18)
O1 O 0.33181(13) 0.8274(3) 0.6260(2)
O2 O 0.28932(14) 0.7172(4) 0.6850(3)
O4 O 0.41977(10) 0.9777(2) 0.75042(19)
O5 O 0.44874(11) 0.8849(3) 0.6540(2)
C22 C 0.2449(6) 0.7507(9) 0.5386(12)
H17 H 0.2300 0.6756 0.5469
H18 H 0.2239 0.8173 0.5395
C23 C 0.55332(14) 0.9738(4) 0.7974(3)
O6 O 0.58023(10) 0.9777(2) 0.74958(19)
O7 O 0.55126(11) 0.8849(3) 0.8460(2)
C25 C 0.2039(2) 0.7327(5) 0.3806(4)
O8 O 0.16819(13) 0.6726(3) 0.3740(2)
O9 O 0.21068(14) 0.7828(4) 0.3150(3)
C26 C 0.2551(6) 0.7493(9) 0.4614(12)
H21 H 0.2700 0.8244 0.4531
H22 H 0.2761 0.6827 0.4605
C27 C 0.60524(13) 0.5704(3) 0.7218(2)
H23 H 0.6370 0.5504 0.7469
C28 C 0.54185(13) 0.6721(3) 0.6778(2)
H24 H 0.5205 0.7359 0.6660
C29 C 0.57036(13) 0.4917(3) 0.6859(2)
H25 H 0.5735 0.4085 0.6814
C30 C 0.48322(12) 0.5118(3) 0.6080(2)
C31 C 0.44528(13) 0.5881(3) 0.5885(3)
H26 H 0.4493 0.6673 0.6098
C32 C 0.40090(13) 0.5474(4) 0.5370(3)
H27 H 0.3750 0.5992 0.5222
C33 C 0.39559(14) 0.4288(4) 0.5079(3)
C34 C 0.43329(14) 0.3533(3) 0.5292(3)
H28 H 0.4292 0.2732 0.5099
C35 C 0.47704(13) 0.3941(3) 0.5785(2)
H29 H 0.5028 0.3420 0.5922
C36 C 0.31360(14) 0.3992(3) 0.4828(3)
C37 C 0.31771(13) 0.4004(3) 0.5746(3)
H30 H 0.3474 0.3959 0.6190
C38 C 0.27759(13) 0.4081(3) 0.6013(3)
H31 H 0.2802 0.4107 0.6637
C39 C 0.23394(12) 0.4120(3) 0.5355(3)
C40 C 0.22986(13) 0.4094(3) 0.4434(3)
H32 H 0.2001 0.4108 0.3990
C41 C 0.26991(13) 0.4047(3) 0.4168(3)
H33 H 0.2673 0.4051 0.3544
C42 C 0.18852(12) 0.3720(3) 0.6426(2)
H34 H 0.2124 0.3305 0.6865
C43 C 0.12316(13) 0.4536(3) 0.5716(3)
H35 H 0.0920 0.4798 0.5569
C44 C 0.15090(13) 0.4707(3) 0.5184(3)
H36 H 0.1430 0.5105 0.4618
Co2 Co 0.622493(17) 0.83932(4) 0.75287(3)
N5 N 0.14709(10) 0.3922(2) 0.65034(19)
N6 N 0.19307(10) 0.4177(2) 0.5641(2)
N7 N 0.52921(10) 0.5561(2) 0.65698(17)
N8 N 0.58716(10) 0.6851(2) 0.71612(18)
O10 O 0.35164(9) 0.3880(3) 0.45107(18)
Co3 Co 0.877507(17) 0.33932(4) 0.74713(3)
Co4 Co 0.122493(17) 0.33932(4) 0.75287(3)
Co5 Co 0.122493(17) 0.66068(4) 0.25287(3)
N9 N 0.35291(10) 0.8922(2) 0.84966(19)
N10 N 0.64709(10) 0.8922(2) 0.65034(19)
O11 O 0.66819(13) 0.8274(3) 0.8740(2)
C25_2 C 0.7961(2) 0.7327(5) 0.1194(4)
O8_2 O 0.83181(13) 0.6726(3) 0.1260(2)
O9_2 O 0.78932(14) 0.7828(4) 0.1850(3)
C26_2 C 0.7449(6) 0.7493(9) 0.0386(12)
H21_2 H 0.7300 0.8244 0.0469
H22_2 H 0.7239 0.6827 0.0395
Co5_2 Co 0.877507(17) 0.66068(4) 0.24713(3)
C21_2 C 0.7039(2) 0.7673(5) 0.8806(4)
O2_2 O 0.71068(14) 0.7172(4) 0.8150(3)
C22_2 C 0.7551(6) 0.7507(9) 0.9614(12)
H17_2 H 0.7700 0.6756 0.9531
H18_2 H 0.7761 0.8173 0.9605
H14_2 H 0.3570 0.0105 0.0382
C4_2 C 0.01678(12) 0.0118(3) 0.8920(2)
C5_2 C 0.05472(13) 0.0881(3) 0.9115(3)
H4_2 H 0.0507 0.1673 0.8902
C6_2 C 0.09910(13) 0.0474(4) 0.9630(3)
H5_2 H 0.1250 0.0992 0.9778
C23_2 C 0.05332(14) 0.4738(4) 0.7974(3)
C24_2 C 0.02152(12) 0.5823(3) 0.7918(2)
H19_2 H 0.0117 0.5843 0.8466
H20_2 H 0.0395 0.6552 0.7915
O6_2 O 0.08023(10) 0.4777(2) 0.74958(19)
O7_2 O 0.05126(11) 0.3849(3) 0.8460(2)
C27_2 C 0.10524(13) 0.0704(3) 0.7218(2)
H23_2 H 0.1370 0.0504 0.7469
C28_2 C 0.04185(13) 0.1721(3) 0.6778(2)
H24_2 H 0.0205 0.2359 0.6660
N7_2 N 0.02921(10) 0.0561(2) 0.65698(17)
N8_2 N 0.08716(10) 0.1851(2) 0.71612(18)
O11_2 O 0.16819(13) 0.3274(3) 0.8740(2)
C7_2 C 0.10441(14) 0.9288(4) 0.9921(3)
C8_2 C 0.06671(14) 0.8533(3) 0.9708(3)
H6_2 H 0.0708 0.7732 0.9901
C9_2 C 0.02296(13) 0.8941(3) 0.9215(2)
C11_2 C 0.18229(13) 0.9004(3) 0.9254(3)
H8_2 H 0.1526 0.8959 0.8810
C12_2 C 0.22241(13) 0.9081(3) 0.8987(3)
H9_2 H 0.2198 0.9107 0.8363
C13_2 C 0.26606(12) 0.9120(3) 0.9645(3)
C16_2 C 0.31148(12) 0.8720(3) 0.8574(2)
H12_2 H 0.2876 0.8305 0.8135
C17_2 C 0.37684(13) 0.9536(3) 0.9284(3)
H13_2 H 0.4080 0.9798 0.9431
C18_2 C 0.34910(13) 0.9707(3) 0.9816(3)
N2_2 N 0.30693(10) 0.9177(2) 0.9359(2)
C29_2 C 0.07036(13) 0.9917(3) 0.6859(2)
H25_2 H 0.0735 0.9085 0.6814
H29_2 H 0.0028 0.8420 0.5922
C1_2 C 0.89476(13) 0.0704(3) 0.7782(2)
H1_2 H 0.8630 0.0504 0.7531
C2_2 C 0.95815(13) 0.1721(3) 0.8222(2)
H2_2 H 0.9795 0.2359 0.8340
C19_2 C 0.94668(14) 0.4738(4) 0.7026(3)
C20_2 C 0.97848(12) 0.5823(3) 0.7082(2)
H15_2 H 0.9883 0.5843 0.6534
H16_2 H 0.9605 0.6552 0.7085
C21_3 C 0.7961(2) 0.2673(5) 0.6194(4)
N3_2 N 0.97079(10) 0.0561(2) 0.84302(17)
N4_2 N 0.91284(10) 0.1851(2) 0.78388(18)
O1_2 O 0.83181(13) 0.3274(3) 0.6260(2)
O2_3 O 0.78932(14) 0.2172(4) 0.6850(3)
O4_2 O 0.91977(10) 0.4777(2) 0.75042(19)
O5_2 O 0.94874(11) 0.3849(3) 0.6540(2)
C22_3 C 0.7449(6) 0.2507(9) 0.5386(12)
H17_3 H 0.7300 0.1756 0.5469
H18_3 H 0.7239 0.3173 0.5395
C25_3 C 0.7039(2) 0.2327(5) 0.3806(4)
O8_3 O 0.66819(13) 0.1726(3) 0.3740(2)
O9_3 O 0.71068(14) 0.2828(4) 0.3150(3)
C26_3 C 0.7551(6) 0.2493(9) 0.4614(12)
H21_3 H 0.7700 0.3244 0.4531
H22_3 H 0.7761 0.1827 0.4605
C30_2 C 0.98322(12) 0.0118(3) 0.6080(2)
C31_2 C 0.94528(13) 0.0881(3) 0.5885(3)
H26_2 H 0.9493 0.1673 0.6098
C32_2 C 0.90090(13) 0.0474(4) 0.5370(3)
H27_2 H 0.8750 0.0992 0.5222
H36_2 H 0.6430 0.0105 0.4618
Co5_3 Co 0.622493(17) 0.16068(4) 0.25287(3)
C3_2 C 0.92964(13) 0.9917(3) 0.8141(2)
H3_2 H 0.9265 0.9085 0.8186
H7_2 H 0.9972 0.8420 0.9078
C33_2 C 0.89559(14) 0.9288(4) 0.5079(3)
C34_2 C 0.93329(14) 0.8533(3) 0.5292(3)
H28_2 H 0.9292 0.7732 0.5099
C35_2 C 0.97704(13) 0.8941(3) 0.5785(2)
C36_2 C 0.81360(14) 0.8992(3) 0.4828(3)
C37_2 C 0.81771(13) 0.9004(3) 0.5746(3)
H30_2 H 0.8474 0.8959 0.6190
C38_2 C 0.77759(13) 0.9081(3) 0.6013(3)
H31_2 H 0.7802 0.9107 0.6637
C39_2 C 0.73394(12) 0.9120(3) 0.5355(3)
C40_2 C 0.72986(13) 0.9094(3) 0.4434(3)
H32_2 H 0.7001 0.9108 0.3990
C41_2 C 0.76991(13) 0.9047(3) 0.4168(3)
H33_2 H 0.7673 0.9051 0.3544
C42_2 C 0.68852(12) 0.8720(3) 0.6426(2)
H34_2 H 0.7124 0.8305 0.6865
C43_2 C 0.62316(13) 0.9536(3) 0.5716(3)
H35_2 H 0.5920 0.9798 0.5569
C44_2 C 0.65090(13) 0.9707(3) 0.5184(3)
N6_2 N 0.69307(10) 0.9177(2) 0.5641(2)
O10_2 O 0.85164(9) 0.8880(3) 0.45107(18)
C25_4 C 0.2961(2) 0.2327(5) 0.1194(4)
O8_4 O 0.33181(13) 0.1726(3) 0.1260(2)
O9_4 O 0.28932(14) 0.2828(4) 0.1850(3)
C26_4 C 0.2449(6) 0.2493(9) 0.0386(12)
H21_4 H 0.2300 0.3244 0.0469
H22_4 H 0.2239 0.1827 0.0395
Co5_4 Co 0.377507(17) 0.16068(4) 0.24713(3)
C21_4 C 0.2039(2) 0.2673(5) 0.8806(4)
O2_4 O 0.21068(14) 0.2172(4) 0.8150(3)
C22_4 C 0.2551(6) 0.2507(9) 0.9614(12)
H17_4 H 0.2700 0.1756 0.9531
H18_4 H 0.2761 0.3173 0.9605
C1_3 C 0.60524(13) 0.4296(3) 0.2218(2)
H1_3 H 0.6370 0.4496 0.2469
C2_3 C 0.54185(13) 0.3279(3) 0.1778(2)
H2_3 H 0.5205 0.2641 0.1660
C3_3 C 0.57036(13) 0.5083(3) 0.1859(2)
H3_3 H 0.5735 0.5915 0.1814
C4_3 C 0.48322(12) 0.4882(3) 0.1080(2)
C5_3 C 0.44528(13) 0.4119(3) 0.0885(3)
H4_3 H 0.4493 0.3327 0.1098
C6_3 C 0.40090(13) 0.4526(4) 0.0370(3)
H5_3 H 0.3750 0.4008 0.0222
C7_3 C 0.39559(14) 0.5712(4) 0.0079(3)
C8_3 C 0.43329(14) 0.6467(3) 0.0292(3)
H6_3 H 0.4292 0.7268 0.0099
C9_3 C 0.47704(13) 0.6059(3) 0.0785(2)
H7_3 H 0.5028 0.6580 0.0922
C11_3 C 0.31771(13) 0.5996(3) 0.0746(3)
H8_3 H 0.3474 0.6041 0.1190
C12_3 C 0.27759(13) 0.5919(3) 0.1013(3)
H9_3 H 0.2802 0.5893 0.1637
C13_3 C 0.23394(12) 0.5880(3) 0.0355(3)
C16_3 C 0.18852(12) 0.6280(3) 0.1426(2)
H12_3 H 0.2124 0.6695 0.1865
C17_3 C 0.12316(13) 0.5464(3) 0.0716(3)
H13_3 H 0.0920 0.5202 0.0569
C18_3 C 0.15090(13) 0.5293(3) 0.0184(3)
C19_3 C 0.55332(14) 0.0262(4) 0.2974(3)
N1_2 N 0.14709(10) 0.6078(2) 0.15034(19)
N2_3 N 0.19307(10) 0.5823(2) 0.0641(2)
N3_3 N 0.52921(10) 0.4439(2) 0.15698(17)
N4_3 N 0.58716(10) 0.3149(2) 0.21612(18)
O4_3 O 0.58023(10) 0.0223(2) 0.24958(19)
O5_3 O 0.55126(11) 0.1151(3) 0.3460(2)
C23_3 C 0.44668(14) 0.0262(4) 0.2026(3)
O6_3 O 0.41977(10) 0.0223(2) 0.25042(19)
O7_3 O 0.44874(11) 0.1151(3) 0.1540(2)
C27_3 C 0.39476(13) 0.4296(3) 0.2782(2)
H23_3 H 0.3630 0.4496 0.2531
C28_3 C 0.45815(13) 0.3279(3) 0.3222(2)
H24_3 H 0.4795 0.2641 0.3340
C29_3 C 0.42964(13) 0.5083(3) 0.3141(2)
H25_3 H 0.4265 0.5915 0.3186
C30_3 C 0.51678(12) 0.4882(3) 0.3920(2)
C31_3 C 0.55472(13) 0.4119(3) 0.4115(3)
H26_3 H 0.5507 0.3327 0.3902
C32_3 C 0.59910(13) 0.4526(4) 0.4630(3)
H27_3 H 0.6250 0.4008 0.4778
C33_3 C 0.60441(14) 0.5712(4) 0.4921(3)
C34_3 C 0.56671(14) 0.6467(3) 0.4708(3)
H28_3 H 0.5708 0.7268 0.4901
C35_3 C 0.52296(13) 0.6059(3) 0.4215(2)
H29_3 H 0.4972 0.6580 0.4078
C36_3 C 0.68640(14) 0.6008(3) 0.5172(3)
C37_3 C 0.68229(13) 0.5996(3) 0.4254(3)
H30_3 H 0.6526 0.6041 0.3810
C38_3 C 0.72241(13) 0.5919(3) 0.3987(3)
H31_3 H 0.7198 0.5893 0.3363
C39_3 C 0.76606(12) 0.5880(3) 0.4645(3)
C40_3 C 0.77014(13) 0.5906(3) 0.5566(3)
H32_3 H 0.7999 0.5892 0.6010
C41_3 C 0.73009(13) 0.5953(3) 0.5832(3)
H33_3 H 0.7327 0.5949 0.6456
C42_3 C 0.81148(12) 0.6280(3) 0.3574(2)
H34_3 H 0.7876 0.6695 0.3135
C43_3 C 0.87684(13) 0.5464(3) 0.4284(3)
H35_3 H 0.9080 0.5202 0.4431
C44_3 C 0.84910(13) 0.5293(3) 0.4816(3)
H36_3 H 0.8570 0.4895 0.5382
N5_2 N 0.85291(10) 0.6078(2) 0.34966(19)
N6_3 N 0.80693(10) 0.5823(2) 0.4359(2)
N7_3 N 0.47079(10) 0.4439(2) 0.34302(17)
N8_3 N 0.41284(10) 0.3149(2) 0.28388(18)
O10_3 O 0.64836(9) 0.6120(3) 0.54893(18)
N9_2 N 0.64709(10) 0.1078(2) 0.15034(19)
N10_2 N 0.35291(10) 0.1078(2) 0.34966(19)
C10_2 C 0.31360(14) 0.6008(3) 0.9828(3)
C14_2 C 0.22986(13) 0.5906(3) 0.9434(3)
H10_2 H 0.2001 0.5892 0.8990
C15_2 C 0.26991(13) 0.5953(3) 0.9168(3)
H11_2 H 0.2673 0.5949 0.8544
H14_3 H 0.1430 0.4895 0.9618
O3_2 O 0.35164(9) 0.6120(3) 0.95107(18)
C3_4 C 0.07036(13) 0.0083(3) 0.1859(2)
H3_4 H 0.0735 0.0915 0.1814
H7_4 H 0.0028 0.1580 0.0922
C33_4 C 0.10441(14) 0.0712(4) 0.4921(3)
C34_4 C 0.06671(14) 0.1467(3) 0.4708(3)
H28_4 H 0.0708 0.2268 0.4901
C35_4 C 0.02296(13) 0.1059(3) 0.4215(2)
C36_4 C 0.18640(14) 0.1008(3) 0.5172(3)
C37_4 C 0.18229(13) 0.0996(3) 0.4254(3)
H30_4 H 0.1526 0.1041 0.3810
C38_4 C 0.22241(13) 0.0919(3) 0.3987(3)
H31_4 H 0.2198 0.0893 0.3363
C39_4 C 0.26606(12) 0.0880(3) 0.4645(3)
C40_4 C 0.27014(13) 0.0906(3) 0.5566(3)
H32_4 H 0.2999 0.0892 0.6010
C41_4 C 0.23009(13) 0.0953(3) 0.5832(3)
H33_4 H 0.2327 0.0949 0.6456
C42_4 C 0.31148(12) 0.1280(3) 0.3574(2)
H34_4 H 0.2876 0.1695 0.3135
C43_4 C 0.37684(13) 0.0464(3) 0.4284(3)
H35_4 H 0.4080 0.0202 0.4431
C44_4 C 0.34910(13) 0.0293(3) 0.4816(3)
N6_4 N 0.30693(10) 0.0823(2) 0.4359(2)
O10_4 O 0.14836(9) 0.1120(3) 0.54893(18)
C1_4 C 0.10524(13) 0.9296(3) 0.2218(2)
H1_4 H 0.1370 0.9496 0.2469
C2_4 C 0.04185(13) 0.8279(3) 0.1778(2)
H2_4 H 0.0205 0.7641 0.1660
C19_4 C 0.05332(14) 0.5262(4) 0.2974(3)
C20_3 C 0.02152(12) 0.4177(3) 0.2918(2)
H15_3 H 0.0117 0.4157 0.3466
H16_3 H 0.0395 0.3448 0.2915
N3_4 N 0.02921(10) 0.9439(2) 0.15698(17)
N4_4 N 0.08716(10) 0.8149(2) 0.21612(18)
O4_4 O 0.08023(10) 0.5223(2) 0.24958(19)
O5_4 O 0.05126(11) 0.6151(3) 0.3460(2)
C30_4 C 0.01678(12) 0.9882(3) 0.3920(2)
C31_4 C 0.05472(13) 0.9119(3) 0.4115(3)
H26_4 H 0.0507 0.8327 0.3902
C32_4 C 0.09910(13) 0.9526(4) 0.4630(3)
H27_4 H 0.1250 0.9008 0.4778
H36_4 H 0.3570 0.9895 0.5382
C7_4 C 0.89559(14) 0.0712(4) 0.0079(3)
C8_4 C 0.93329(14) 0.1467(3) 0.0292(3)
H6_4 H 0.9292 0.2268 0.0099
C9_4 C 0.97704(13) 0.1059(3) 0.0785(2)
C11_4 C 0.81771(13) 0.0996(3) 0.0746(3)
H8_4 H 0.8474 0.1041 0.1190
C12_4 C 0.77759(13) 0.0919(3) 0.1013(3)
H9_4 H 0.7802 0.0893 0.1637
C13_4 C 0.73394(12) 0.0880(3) 0.0355(3)
C16_4 C 0.68852(12) 0.1280(3) 0.1426(2)
H12_4 H 0.7124 0.1695 0.1865
C17_4 C 0.62316(13) 0.0464(3) 0.0716(3)
H13_4 H 0.5920 0.0202 0.0569
C18_4 C 0.65090(13) 0.0293(3) 0.0184(3)
N2_4 N 0.69307(10) 0.0823(2) 0.0641(2)
C29_4 C 0.92964(13) 0.0083(3) 0.3141(2)
H25_4 H 0.9265 0.0915 0.3186
H29_4 H 0.9972 0.1580 0.4078
C4_4 C 0.98322(12) 0.9882(3) 0.1080(2)
C5_4 C 0.94528(13) 0.9119(3) 0.0885(3)
H4_4 H 0.9493 0.8327 0.1098
C6_4 C 0.90090(13) 0.9526(4) 0.0370(3)
H5_4 H 0.8750 0.9008 0.0222
C23_4 C 0.94668(14) 0.5262(4) 0.2026(3)
C24_3 C 0.97848(12) 0.4177(3) 0.2082(2)
H19_3 H 0.9883 0.4157 0.1534
H20_3 H 0.9605 0.3448 0.2085
O6_4 O 0.91977(10) 0.5223(2) 0.25042(19)
O7_4 O 0.94874(11) 0.6151(3) 0.1540(2)
C27_4 C 0.89476(13) 0.9296(3) 0.2782(2)
H23_4 H 0.8630 0.9496 0.2531
C28_4 C 0.95815(13) 0.8279(3) 0.3222(2)
H24_4 H 0.9795 0.7641 0.3340
N7_4 N 0.97079(10) 0.9439(2) 0.34302(17)
N8_4 N 0.91284(10) 0.8149(2) 0.28388(18)
H14_4 H 0.6430 0.9895 0.9618
C10_3 C 0.18640(14) 0.8992(3) 0.0172(3)
C14_3 C 0.27014(13) 0.9094(3) 0.0566(3)
H10_3 H 0.2999 0.9108 0.1010
C15_3 C 0.23009(13) 0.9047(3) 0.0832(3)
H11_3 H 0.2327 0.9051 0.1456
O3_3 O 0.14836(9) 0.8880(3) 0.04893(18)
C20_4 C 0.52152(12) 0.9177(3) 0.2918(2)
H15_4 H 0.5117 0.9157 0.3466
H16_4 H 0.5395 0.8448 0.2915
C24_4 C 0.47848(12) 0.9177(3) 0.2082(2)
H19_4 H 0.4883 0.9157 0.1534
H20_4 H 0.4605 0.8448 0.2085
C10_4 C 0.81360(14) 0.1008(3) 0.9828(3)
C14_4 C 0.72986(13) 0.0906(3) 0.9434(3)
H10_4 H 0.7001 0.0892 0.8990
C15_4 C 0.76991(13) 0.0953(3) 0.9168(3)
H11_4 H 0.7673 0.0949 0.8544
O3_4 O 0.85164(9) 0.1120(3) 0.95107(18)
loop_
_geom_bond_atom_site_label_1
_geom_bond_atom_site_label_2
_geom_bond_site_symmetry_1
_geom_bond_site_symmetry_2
C20 H15 1_555 1_555
H16 C20 1_555 1_555
C24 C20 1_555 1_555
H19 C24 1_555 1_555
H20 C24 1_555 1_555
H10 C14 1_555 1_555
C15 C10 1_555 1_555
H11 C15 1_555 1_555
C10 O3 1_555 1_555
C14 C15 1_555 1_555
C1 H1 1_555 1_555
C2 H2 1_555 1_555
C3 C1 1_555 1_555
H3 C3 1_555 1_555
C4 C5 1_555 1_555
C5 H4 1_555 1_555
C6 C5 1_555 1_555
H5 C6 1_555 1_555
C7 C6 1_555 1_555
C8 C7 1_555 1_555
H6 C8 1_555 1_555
C9 C4 1_555 1_555
H7 C9 1_555 1_555
C11 H8 1_555 1_555
C12 C11 1_555 1_555
H9 C12 1_555 1_555
C13 C12 1_555 1_555
C16 H12 1_555 1_555
C17 H13 1_555 1_555
C18 C17 1_555 1_555
C21 O1 1_555 1_555
Co1 N4 1_555 1_555
N1 C16 1_555 1_555
N2 C13 1_555 1_555
N3 C2 1_555 1_555
N4 C1 1_555 1_555
O1 Co1 1_555 1_555
O2 C21 1_555 1_555
O4 C19 1_555 1_555
O5 C19 1_555 1_555
C22 C21 1_555 1_555
H17 C22 1_555 1_555
H18 C22 1_555 1_555
O6 C23 1_555 1_555
O7 C23 1_555 1_555
C25 O8 1_555 1_555
O8 Co5 1_555 1_555
O9 C25 1_555 1_555
C26 C22 1_555 1_555
H21 C26 1_555 1_555
H22 C26 1_555 1_555
C27 H23 1_555 1_555
C28 H24 1_555 1_555
C29 C27 1_555 1_555
H25 C29 1_555 1_555
C30 C31 1_555 1_555
C31 H26 1_555 1_555
C32 C31 1_555 1_555
H27 C32 1_555 1_555
C33 C32 1_555 1_555
C34 C33 1_555 1_555
H28 C34 1_555 1_555
C35 C30 1_555 1_555
H29 C35 1_555 1_555
C36 C37 1_555 1_555
C37 H30 1_555 1_555
C38 C37 1_555 1_555
H31 C38 1_555 1_555
C39 C38 1_555 1_555
C40 C39 1_555 1_555
H32 C40 1_555 1_555
C41 C36 1_555 1_555
H33 C41 1_555 1_555
C42 H34 1_555 1_555
C43 H35 1_555 1_555
C44 C43 1_555 1_555
H36 C44 1_555 1_555
Co2 O6 1_555 1_555
N5 C42 1_555 1_555
N6 C39 1_555 1_555
N7 C28 1_555 1_555
N8 C27 1_555 1_555
O10 C33 1_555 1_555
Co3 N1 1_555 1_555
Co4 N5 1_555 1_555
N9 Co1 1_555 1_555
N10 Co2 1_555 1_555
O11 Co2 1_555 1_555
C2 N4 1_555 1_555
C3 N3 1_555 1_555
C4 N3 1_555 1_555
C8 C9 1_555 1_555
C16 N2 1_555 1_555
C17 N1 1_555 1_555
C18 N2 1_555 1_555
Co1 O4 1_555 1_555
C25 C26 1_555 1_555
C28 N8 1_555 1_555
C29 N7 1_555 1_555
C30 N7 1_555 1_555
C34 C35 1_555 1_555
C36 O10 1_555 1_555
C40 C41 1_555 1_555
C42 N6 1_555 1_555
C43 N5 1_555 1_555
C44 N6 1_555 1_555
Co2 N8 1_555 1_555
C25_2 O8_2 1_555 1_555
O8_2 Co5_2 1_555 1_555
O9_2 C25_2 1_555 1_555
H21_2 C26_2 1_555 1_555
H22_2 C26_2 1_555 1_555
C25_2 C26_2 1_555 1_555
C21_2 O11 1_555 1_555
O2_2 C21_2 1_555 1_555
C22_2 C21_2 1_555 1_555
H17_2 C22_2 1_555 1_555
H18_2 C22_2 1_555 1_555
C4_2 C5_2 1_555 1_555
C5_2 H4_2 1_555 1_555
C6_2 C5_2 1_555 1_555
H5_2 C6_2 1_555 1_555
C23_2 C24_2 1_555 1_555
H19_2 C24_2 1_555 1_555
H20_2 C24_2 1_555 1_555
O6_2 C23_2 1_555 1_555
O7_2 C23_2 1_555 1_555
C27_2 H23_2 1_555 1_555
C28_2 H24_2 1_555 1_555
Co4 O6_2 1_555 1_555
N7_2 C28_2 1_555 1_555
N8_2 C27_2 1_555 1_555
O11_2 Co4 1_555 1_555
C28_2 N8_2 1_555 1_555
Co4 N8_2 1_555 1_555
C8_2 C7_2 1_555 1_555
H6_2 C8_2 1_555 1_555
C11_2 H8_2 1_555 1_555
C12_2 C11_2 1_555 1_555
H9_2 C12_2 1_555 1_555
C13_2 C12_2 1_555 1_555
C16_2 H12_2 1_555 1_555
C17_2 H13_2 1_555 1_555
C18_2 C17_2 1_555 1_555
N9 C16_2 1_555 1_555
N2_2 C13_2 1_555 1_555
H25_2 C29_2 1_555 1_555
C8_2 C9_2 1_555 1_555
C16_2 N2_2 1_555 1_555
C17_2 N9 1_555 1_555
C18_2 N2_2 1_555 1_555
C1_2 H1_2 1_555 1_555
C2_2 H2_2 1_555 1_555
C19_2 C20_2 1_555 1_555
C20_2 H15_2 1_555 1_555
H16_2 C20_2 1_555 1_555
C21_3 O1_2 1_555 1_555
Co3 N4_2 1_555 1_555
N3_2 C2_2 1_555 1_555
N4_2 C1_2 1_555 1_555
O1_2 Co3 1_555 1_555
O2_3 C21_3 1_555 1_555
O4_2 C19_2 1_555 1_555
O5_2 C19_2 1_555 1_555
C22_3 C21_3 1_555 1_555
H17_3 C22_3 1_555 1_555
H18_3 C22_3 1_555 1_555
C25_3 O8_3 1_555 1_555
O8_3 Co5_3 1_555 1_555
O9_3 C25_3 1_555 1_555
C26_3 C22_3 1_555 1_555
H21_3 C26_3 1_555 1_555
H22_3 C26_3 1_555 1_555
C30_2 C31_2 1_555 1_555
C31_2 H26_2 1_555 1_555
C32_2 C31_2 1_555 1_555
H27_2 C32_2 1_555 1_555
C2_2 N4_2 1_555 1_555
Co3 O4_2 1_555 1_555
C25_3 C26_3 1_555 1_555
H3_2 C3_2 1_555 1_555
C34_2 C33_2 1_555 1_555
H28_2 C34_2 1_555 1_555
C36_2 C37_2 1_555 1_555
C37_2 H30_2 1_555 1_555
C38_2 C37_2 1_555 1_555
H31_2 C38_2 1_555 1_555
C39_2 C38_2 1_555 1_555
C40_2 C39_2 1_555 1_555
H32_2 C40_2 1_555 1_555
C41_2 C36_2 1_555 1_555
H33_2 C41_2 1_555 1_555
C42_2 H34_2 1_555 1_555
C43_2 H35_2 1_555 1_555
C44_2 C43_2 1_555 1_555
N10 C42_2 1_555 1_555
N6_2 C39_2 1_555 1_555
O10_2 C33_2 1_555 1_555
C34_2 C35_2 1_555 1_555
C36_2 O10_2 1_555 1_555
C40_2 C41_2 1_555 1_555
C42_2 N6_2 1_555 1_555
C43_2 N10 1_555 1_555
C44_2 N6_2 1_555 1_555
C25_4 O8_4 1_555 1_555
O8_4 Co5_4 1_555 1_555
O9_4 C25_4 1_555 1_555
H21_4 C26_4 1_555 1_555
H22_4 C26_4 1_555 1_555
C25_4 C26_4 1_555 1_555
C21_4 O11_2 1_555 1_555
O2_4 C21_4 1_555 1_555
C22_4 C21_4 1_555 1_555
H17_4 C22_4 1_555 1_555
H18_4 C22_4 1_555 1_555
C1_3 H1_3 1_555 1_555
C2_3 H2_3 1_555 1_555
C3_3 C1_3 1_555 1_555
H3_3 C3_3 1_555 1_555
C4_3 C5_3 1_555 1_555
C5_3 H4_3 1_555 1_555
C6_3 C5_3 1_555 1_555
H5_3 C6_3 1_555 1_555
C7_3 C6_3 1_555 1_555
C8_3 C7_3 1_555 1_555
H6_3 C8_3 1_555 1_555
C9_3 C4_3 1_555 1_555
H7_3 C9_3 1_555 1_555
C11_3 H8_3 1_555 1_555
C12_3 C11_3 1_555 1_555
H9_3 C12_3 1_555 1_555
C13_3 C12_3 1_555 1_555
C16_3 H12_3 1_555 1_555
C17_3 H13_3 1_555 1_555
C18_3 C17_3 1_555 1_555
Co5_3 N4_3 1_555 1_555
N1_2 C16_3 1_555 1_555
N2_3 C13_3 1_555 1_555
N3_3 C2_3 1_555 1_555
N4_3 C1_3 1_555 1_555
O4_3 C19_3 1_555 1_555
O5_3 C19_3 1_555 1_555
O6_3 C23_3 1_555 1_555
O7_3 C23_3 1_555 1_555
C27_3 H23_3 1_555 1_555
C28_3 H24_3 1_555 1_555
C29_3 C27_3 1_555 1_555
H25_3 C29_3 1_555 1_555
C30_3 C31_3 1_555 1_555
C31_3 H26_3 1_555 1_555
C32_3 C31_3 1_555 1_555
H27_3 C32_3 1_555 1_555
C33_3 C32_3 1_555 1_555
C34_3 C33_3 1_555 1_555
H28_3 C34_3 1_555 1_555
C35_3 C30_3 1_555 1_555
H29_3 C35_3 1_555 1_555
C36_3 C37_3 1_555 1_555
C37_3 H30_3 1_555 1_555
C38_3 C37_3 1_555 1_555
H31_3 C38_3 1_555 1_555
C39_3 C38_3 1_555 1_555
C40_3 C39_3 1_555 1_555
H32_3 C40_3 1_555 1_555
C41_3 C36_3 1_555 1_555
H33_3 C41_3 1_555 1_555
C42_3 H34_3 1_555 1_555
C43_3 H35_3 1_555 1_555
C44_3 C43_3 1_555 1_555
H36_3 C44_3 1_555 1_555
Co5_4 O6_3 1_555 1_555
N5_2 C42_3 1_555 1_555
N6_3 C39_3 1_555 1_555
N7_3 C28_3 1_555 1_555
N8_3 C27_3 1_555 1_555
O10_3 C33_3 1_555 1_555
Co5 N1_2 1_555 1_555
Co5_2 N5_2 1_555 1_555
N9_2 Co5_3 1_555 1_555
N10_2 Co5_4 1_555 1_555
C2_3 N4_3 1_555 1_555
C3_3 N3_3 1_555 1_555
C4_3 N3_3 1_555 1_555
C8_3 C9_3 1_555 1_555
C16_3 N2_3 1_555 1_555
C17_3 N1_2 1_555 1_555
C18_3 N2_3 1_555 1_555
Co5_3 O4_3 1_555 1_555
C28_3 N8_3 1_555 1_555
C29_3 N7_3 1_555 1_555
C30_3 N7_3 1_555 1_555
C34_3 C35_3 1_555 1_555
C36_3 O10_3 1_555 1_555
C40_3 C41_3 1_555 1_555
C42_3 N6_3 1_555 1_555
C43_3 N5_2 1_555 1_555
C44_3 N6_3 1_555 1_555
Co5_4 N8_3 1_555 1_555
H10_2 C14_2 1_555 1_555
C15_2 C10_2 1_555 1_555
H11_2 C15_2 1_555 1_555
C10_2 O3_2 1_555 1_555
C14_2 C15_2 1_555 1_555
H3_4 C3_4 1_555 1_555
C34_4 C33_4 1_555 1_555
H28_4 C34_4 1_555 1_555
C36_4 C37_4 1_555 1_555
C37_4 H30_4 1_555 1_555
C38_4 C37_4 1_555 1_555
H31_4 C38_4 1_555 1_555
C39_4 C38_4 1_555 1_555
C40_4 C39_4 1_555 1_555
H32_4 C40_4 1_555 1_555
C41_4 C36_4 1_555 1_555
H33_4 C41_4 1_555 1_555
C42_4 H34_4 1_555 1_555
C43_4 H35_4 1_555 1_555
C44_4 C43_4 1_555 1_555
N10_2 C42_4 1_555 1_555
N6_4 C39_4 1_555 1_555
O10_4 C33_4 1_555 1_555
C34_4 C35_4 1_555 1_555
C36_4 O10_4 1_555 1_555
C40_4 C41_4 1_555 1_555
C42_4 N6_4 1_555 1_555
C43_4 N10_2 1_555 1_555
C44_4 N6_4 1_555 1_555
C1_4 H1_4 1_555 1_555
C2_4 H2_4 1_555 1_555
C19_4 C20_3 1_555 1_555
C20_3 H15_3 1_555 1_555
H16_3 C20_3 1_555 1_555
Co5 N4_4 1_555 1_555
N3_4 C2_4 1_555 1_555
N4_4 C1_4 1_555 1_555
O4_4 C19_4 1_555 1_555
O5_4 C19_4 1_555 1_555
C30_4 C31_4 1_555 1_555
C31_4 H26_4 1_555 1_555
C32_4 C31_4 1_555 1_555
H27_4 C32_4 1_555 1_555
C2_4 N4_4 1_555 1_555
Co5 O4_4 1_555 1_555
C8_4 C7_4 1_555 1_555
H6_4 C8_4 1_555 1_555
C11_4 H8_4 1_555 1_555
C12_4 C11_4 1_555 1_555
H9_4 C12_4 1_555 1_555
C13_4 C12_4 1_555 1_555
C16_4 H12_4 1_555 1_555
C17_4 H13_4 1_555 1_555
C18_4 C17_4 1_555 1_555
N9_2 C16_4 1_555 1_555
N2_4 C13_4 1_555 1_555
H25_4 C29_4 1_555 1_555
C8_4 C9_4 1_555 1_555
C16_4 N2_4 1_555 1_555
C17_4 N9_2 1_555 1_555
C18_4 N2_4 1_555 1_555
C4_4 C5_4 1_555 1_555
C5_4 H4_4 1_555 1_555
C6_4 C5_4 1_555 1_555
H5_4 C6_4 1_555 1_555
C23_4 C24_3 1_555 1_555
H19_3 C24_3 1_555 1_555
H20_3 C24_3 1_555 1_555
O6_4 C23_4 1_555 1_555
O7_4 C23_4 1_555 1_555
C27_4 H23_4 1_555 1_555
C28_4 H24_4 1_555 1_555
Co5_2 O6_4 1_555 1_555
N7_4 C28_4 1_555 1_555
N8_4 C27_4 1_555 1_555
C28_4 N8_4 1_555 1_555
Co5_2 N8_4 1_555 1_555
H10_3 C14_3 1_555 1_555
C15_3 C10_3 1_555 1_555
H11_3 C15_3 1_555 1_555
C10_3 O3_3 1_555 1_555
C14_3 C15_3 1_555 1_555
C20_4 H15_4 1_555 1_555
H16_4 C20_4 1_555 1_555
C24_4 C20_4 1_555 1_555
H19_4 C24_4 1_555 1_555
H20_4 C24_4 1_555 1_555
H10_4 C14_4 1_555 1_555
C15_4 C10_4 1_555 1_555
H11_4 C15_4 1_555 1_555
C10_4 O3_4 1_555 1_555
C14_4 C15_4 1_555 1_555

#END
