
###############################################################################
#
# This file contains modified crystal structure data generated from the
# MOF subset of the Cambridge Structural Database (CSD) v543 
# hosted by the Cambridge Crystallographic Data Centre (CCDC).
#
# This work is licensed under the Creative Commons
# Attribution-NonCommercial-ShareAlike 4.0 International License.
# To view a copy of this license, visit
# http://creativecommons.org/licenses/by-nc-sa/4.0/
# or send a letter to
# Creative Commons, PO Box 1866, Mountain View, CA 94042, USA.
#
# CIF created using the CSD Python API on 29 September 2022
# The structure has been converted into the P1 space group
# The structure has a 3D framework
# The original CSD entry UGOFED is in the monoclinic crystal system
# The framework has been calculated to contain at least 10.0% void space
# The void calculation uses a probe of radius 1.32A, grid spacing 0.4
#
###############################################################################

data_UGOFED
_chemical_formula_moiety         '(C192 H112 Cs2 Fe14 N16 O36)n'
_symmetry_cell_setting           triclinic
_symmetry_space_group_name_H-M   'P 1'
_symmetry_Int_Tables_number      1
_space_group_name_Hall           'P 1'
loop_
_symmetry_equiv_pos_site_id
_symmetry_equiv_pos_as_xyz
1 x,y,z
_cell_length_a                   7.4416(5)
_cell_length_b                   24.8056(16)
_cell_length_c                   30.314(2)
_cell_angle_alpha                90
_cell_angle_beta                 91.637(6)
_cell_angle_gamma                90
_cell_volume                     5593.48
loop_
_atom_site_label
_atom_site_type_symbol
_atom_site_fract_x
_atom_site_fract_y
_atom_site_fract_z
Cs4 Cs -0.0000 0.75398(3) 0.7500
Fe3 Fe -0.0000 0.66695(4) 0.2500
C9 C 0.1794(7) 0.4930(2) 0.41167(17)
N1 N 0.0475(6) 0.4751(2) 0.43882(15)
Fe2 Fe 0.0000 0.5000 0.5000
C16 C 0.0346(8) 0.4293(3) 0.3720(2)
C17 C 0.1693(8) 0.4651(3) 0.37042(19)
H8 H 0.2456 0.4705 0.3468
O6 O 0.7483(5) 0.64271(17) 0.26544(13)
C25 C 0.8052(7) 0.6110(2) 0.29575(17)
O7 O 0.9708(5) 0.60426(19) 0.29977(15)
C26 C 0.6766(7) 0.5862(2) 0.32609(18)
C27 C 0.7374(8) 0.5551(3) 0.3615(2)
C28 C 0.6178(8) 0.5362(3) 0.3923(2)
C29 C 0.4361(8) 0.5484(3) 0.38749(19)
C30 C 0.3756(7) 0.5775(3) 0.3512(2)
C31 C 0.4948(8) 0.5966(3) 0.3210(2)
C32 C 0.3081(8) 0.5318(3) 0.42232(19)
N4 N 0.2092(7) 0.5495(2) 0.49772(17)
C34 C 0.3182(10) 0.5579(3) 0.4627(2)
C35 C 0.4455(13) 0.5992(4) 0.4731(3)
C36 C 0.4109(14) 0.6173(4) 0.5133(3)
C37 C 0.2655(9) 0.5858(3) 0.5299(2)
C38 C 0.1882(8) 0.5933(3) 0.5704(2)
C39 C 0.0421(8) 0.5640(2) 0.58468(19)
C42 C 0.2684(9) 0.6345(3) 0.6006(2)
C43 C 0.1757(11) 0.6809(3) 0.6111(3)
C44 C 0.2535(13) 0.7183(3) 0.6405(3)
C45 C 0.4173(11) 0.7095(4) 0.6592(3)
C46 C 0.5114(12) 0.6646(4) 0.6481(3)
C47 C 0.4369(11) 0.6268(4) 0.6199(3)
C48 C 0.5054(16) 0.7466(5) 0.6924(4)
O8 O 0.4069(10) 0.7858(2) 0.70501(19)
O9 O 0.6556(13) 0.7394(5) 0.7070(4)
H15 H 0.8602 0.5470 0.3647
H16 H 0.6597 0.5152 0.4157
H17 H 0.2541 0.5849 0.3471
H18 H 0.4535 0.6168 0.2968
H19 H 0.5328 0.6116 0.4546
H20 H 0.4724 0.6442 0.5283
H21 H 0.0036 0.5945 0.6501
H23 H 0.0644 0.6876 0.5980
H24 H 0.1898 0.7494 0.6472
H25 H 0.6269 0.6594 0.6597
H26 H 0.5002 0.5956 0.6132
O10 O 0.1389(7) 0.4356(3) 0.51774(15)
H27 H 0.1765 0.4154 0.4921
H28 H 0.0661 0.4108 0.5346
Cs2 Cs 0.0000 0.24602(3) 0.2500
Cs4_2 Cs 1.0000 0.75398(3) 0.7500
Cs5 Cs 0.5000 0.74602(3) 0.2500
Fe3_2 Fe 1.0000 0.66695(4) 0.2500
Fe4 Fe 0.5000 0.83305(4) 0.7500
Fe1 Fe 0.0000 0.33305(4) 0.7500
O1 O 0.2517(5) 0.35729(17) 0.73456(13)
C1 C 0.1948(7) 0.3890(2) 0.70425(17)
O2 O 0.0292(5) 0.39574(19) 0.70023(15)
C2 C 0.3234(7) 0.4138(2) 0.67391(18)
C3 C 0.2626(8) 0.4449(3) 0.6385(2)
C4 C 0.3822(8) 0.4638(3) 0.6077(2)
C5 C 0.5639(8) 0.4516(3) 0.61251(19)
C6 C 0.6244(7) 0.4225(3) 0.6488(2)
C7 C 0.5052(8) 0.4034(3) 0.6790(2)
C8 C 0.6919(8) 0.4682(3) 0.57768(19)
Fe2_2 Fe 1.0000 0.5000 0.5000
N2 N 0.7908(7) 0.4505(2) 0.50228(17)
C10 C 0.6818(10) 0.4421(3) 0.5373(2)
C11 C 0.5545(13) 0.4008(4) 0.5269(3)
C12 C 0.5891(14) 0.3827(4) 0.4867(3)
C13 C 0.7345(9) 0.4142(3) 0.4701(2)
C14 C 0.8118(8) 0.4067(3) 0.4296(2)
C15 C 0.9579(8) 0.4360(2) 0.41532(19)
C18 C 0.7316(9) 0.3655(3) 0.3994(2)
C19 C 0.8243(11) 0.3191(3) 0.3889(3)
C20 C 0.7465(13) 0.2817(3) 0.3595(3)
C21 C 0.5827(11) 0.2905(4) 0.3408(3)
C22 C 0.4886(12) 0.3354(4) 0.3519(3)
C23 C 0.5631(11) 0.3732(4) 0.3801(3)
C24 C 0.4946(16) 0.2534(5) 0.3076(4)
O3 O 0.5931(10) 0.2142(2) 0.29499(19)
O4 O 0.3444(13) 0.2606(5) 0.2930(4)
O5 O 0.8611(7) 0.5644(3) 0.48226(15)
H1 H 0.1398 0.4530 0.6353
H2 H 0.3403 0.4848 0.5843
H3 H 0.7459 0.4151 0.6529
H4 H 0.5465 0.3832 0.7032
H5 H 0.4672 0.3884 0.5454
H6 H 0.5276 0.3558 0.4717
H7 H 0.9964 0.4055 0.3499
H9 H 0.9356 0.3124 0.4020
H10 H 0.8102 0.2506 0.3528
H11 H 0.3731 0.3406 0.3403
H12 H 0.4998 0.4044 0.3868
H13 H 0.8235 0.5846 0.5079
H14 H 0.9339 0.5892 0.4654
C33 C 0.8206(7) 0.5070(2) 0.58833(17)
N3 N 0.9525(6) 0.5249(2) 0.56118(15)
C40 C 0.9654(8) 0.5707(3) 0.6280(2)
C41 C 0.8307(8) 0.5349(3) 0.62958(19)
H22 H 0.7544 0.5295 0.6532
Cs2_2 Cs 1.0000 0.24602(3) 0.2500
Cs6 Cs 0.5000 0.25398(3) 0.7500
Fe5 Fe 0.5000 0.16695(4) 0.2500
O11 O 0.2483(5) 0.14271(17) 0.26544(13)
O17 O 0.4069(10) 0.2142(2) 0.20501(19)
O18 O 0.0931(10) 0.2858(2) 0.79499(19)
Fe1_2 Fe 1.0000 0.33305(4) 0.7500
O12 O 0.7483(5) 0.35729(17) 0.76544(13)
O13 O 0.7517(5) 0.14271(17) 0.23456(13)
O14 O 0.9708(5) 0.39574(19) 0.79977(15)
O16 O 0.9069(10) 0.2858(2) 0.70501(19)
O19 O 0.6556(13) 0.2606(5) 0.2070(4)
C25_2 C 0.3052(7) 0.1110(2) 0.29575(17)
O7_2 O 0.4708(5) 0.10426(19) 0.29977(15)
C26_2 C 0.1766(7) 0.0862(2) 0.32609(18)
C27_2 C 0.2374(8) 0.0551(3) 0.3615(2)
C28_2 C 0.1178(8) 0.0362(3) 0.3923(2)
C46_2 C 0.0114(12) 0.1646(4) 0.6481(3)
C48_2 C 0.0054(16) 0.2466(5) 0.6924(4)
O9_2 O 0.1556(13) 0.2394(5) 0.7070(4)
H15_2 H 0.3602 0.0470 0.3647
H16_2 H 0.1597 0.0152 0.4157
H19_2 H 0.0328 0.1116 0.4546
H25_2 H 0.1269 0.1594 0.6597
H26_2 H 0.0002 0.0956 0.6132
Fe2_3 Fe 0.5000 0.0000 0.5000
O5_2 O 0.3611(7) 0.0644(3) 0.48226(15)
H13_2 H 0.3235 0.0846 0.5079
H14_2 H 0.4339 0.0892 0.4654
C29_2 C 0.9361(8) 0.0484(3) 0.38749(19)
C30_2 C 0.8756(7) 0.0775(3) 0.3512(2)
C31_2 C 0.9948(8) 0.0966(3) 0.3210(2)
C32_2 C 0.8081(8) 0.0318(3) 0.42232(19)
C33_2 C 0.3206(7) 0.0070(2) 0.58833(17)
N3_2 N 0.4525(6) 0.0249(2) 0.56118(15)
N4_2 N 0.7092(7) 0.0495(2) 0.49772(17)
C34_2 C 0.8182(10) 0.0579(3) 0.4627(2)
C35_2 C 0.9455(13) 0.0992(4) 0.4731(3)
C36_2 C 0.9109(14) 0.1173(4) 0.5133(3)
C37_2 C 0.7655(9) 0.0858(3) 0.5299(2)
C38_2 C 0.6882(8) 0.0933(3) 0.5704(2)
C39_2 C 0.5421(8) 0.0640(2) 0.58468(19)
C40_2 C 0.4654(8) 0.0707(3) 0.6280(2)
C41_2 C 0.3307(8) 0.0349(3) 0.62958(19)
C42_2 C 0.7684(9) 0.1345(3) 0.6006(2)
C43_2 C 0.6757(11) 0.1809(3) 0.6111(3)
C44_2 C 0.7535(13) 0.2183(3) 0.6405(3)
C45_2 C 0.9173(11) 0.2095(4) 0.6592(3)
C47_2 C 0.9369(11) 0.1268(4) 0.6199(3)
H17_2 H 0.7541 0.0849 0.3471
H18_2 H 0.9535 0.1168 0.2968
H20_2 H 0.9724 0.1442 0.5283
H21_2 H 0.5036 0.0945 0.6501
H22_2 H 0.2544 0.0295 0.6532
H23_2 H 0.5644 0.1876 0.5980
H24_2 H 0.6898 0.2494 0.6472
C5_2 C 0.0639(8) 0.9516(3) 0.61251(19)
C6_2 C 0.1244(7) 0.9225(3) 0.6488(2)
C7_2 C 0.0052(8) 0.9034(3) 0.6790(2)
C8_2 C 0.1919(8) 0.9682(3) 0.57768(19)
C9_2 C 0.6794(7) 0.9930(2) 0.41167(17)
N1_2 N 0.5475(6) 0.9751(2) 0.43882(15)
Fe2_4 Fe 0.5000 1.0000 0.5000
N2_2 N 0.2908(7) 0.9505(2) 0.50228(17)
C10_2 C 0.1818(10) 0.9421(3) 0.5373(2)
C11_2 C 0.0545(13) 0.9008(4) 0.5269(3)
C12_2 C 0.0891(14) 0.8827(4) 0.4867(3)
C13_2 C 0.2345(9) 0.9142(3) 0.4701(2)
C14_2 C 0.3118(8) 0.9067(3) 0.4296(2)
C15_2 C 0.4579(8) 0.9360(2) 0.41532(19)
C16_2 C 0.5346(8) 0.9293(3) 0.3720(2)
C17_2 C 0.6693(8) 0.9651(3) 0.37042(19)
C18_2 C 0.2316(9) 0.8655(3) 0.3994(2)
C19_2 C 0.3243(11) 0.8191(3) 0.3889(3)
C20_2 C 0.2465(13) 0.7817(3) 0.3595(3)
C21_2 C 0.0827(11) 0.7905(4) 0.3408(3)
C23_2 C 0.0631(11) 0.8732(4) 0.3801(3)
O3_2 O 0.0931(10) 0.7142(2) 0.29499(19)
H3_2 H 0.2459 0.9151 0.6529
H4_2 H 0.0465 0.8832 0.7032
H6_2 H 0.0276 0.8558 0.4717
H7_2 H 0.4964 0.9055 0.3499
H8_2 H 0.7456 0.9705 0.3468
H9_2 H 0.4356 0.8124 0.4020
H10_2 H 0.3102 0.7506 0.3528
O10_2 O 0.6389(7) 0.9356(3) 0.51774(15)
H27_2 H 0.6765 0.9154 0.4921
H28_2 H 0.5661 0.9108 0.5346
O1_2 O 0.7517(5) 0.85729(17) 0.73456(13)
C1_2 C 0.6948(7) 0.8890(2) 0.70425(17)
O2_2 O 0.5292(5) 0.89574(19) 0.70023(15)
C2_2 C 0.8234(7) 0.9138(2) 0.67391(18)
C3_2 C 0.7626(8) 0.9449(3) 0.6385(2)
C4_2 C 0.8822(8) 0.9638(3) 0.6077(2)
C22_2 C 0.9886(12) 0.8354(4) 0.3519(3)
C24_2 C 0.9946(16) 0.7534(5) 0.3076(4)
O4_2 O 0.8444(13) 0.7606(5) 0.2930(4)
H1_2 H 0.6398 0.9530 0.6353
H2_2 H 0.8403 0.9848 0.5843
H5_2 H 0.9672 0.8884 0.5454
H11_2 H 0.8731 0.8406 0.3403
H12_2 H 0.9998 0.9044 0.3868
O12_2 O 0.2483(5) 0.85729(17) 0.76544(13)
O13_2 O 0.2517(5) 0.64271(17) 0.23456(13)
O14_2 O 0.4708(5) 0.89574(19) 0.79977(15)
O17_2 O 0.9069(10) 0.7142(2) 0.20501(19)
O18_2 O 0.5931(10) 0.7858(2) 0.79499(19)
O19_2 O 0.1556(13) 0.7606(5) 0.2070(4)
Fe2_5 Fe -0.0000 0.5000 -0.0000
C12_3 C 0.4109(14) 0.3827(4) 0.0133(3)
C13_3 C 0.2655(9) 0.4142(3) 0.0299(2)
C14_3 C 0.1882(8) 0.4067(3) 0.0704(2)
C15_3 C 0.0421(8) 0.4360(2) 0.08468(19)
C18_3 C 0.2684(9) 0.3655(3) 0.1006(2)
C19_3 C 0.1757(11) 0.3191(3) 0.1111(3)
C20_3 C 0.2535(13) 0.2817(3) 0.1405(3)
C21_3 C 0.4173(11) 0.2905(4) 0.1592(3)
C22_3 C 0.5114(12) 0.3354(4) 0.1481(3)
C23_3 C 0.4369(11) 0.3732(4) 0.1199(3)
C24_3 C 0.5054(16) 0.2534(5) 0.1924(4)
O5_3 O 0.1389(7) 0.5644(3) 0.01774(15)
H6_3 H 0.4724 0.3558 0.0283
H7_3 H 0.0036 0.4055 0.1501
H9_3 H 0.0644 0.3124 0.0980
H10_3 H 0.1898 0.2506 0.1472
H11_3 H 0.6269 0.3406 0.1597
H12_3 H 0.5002 0.4044 0.1132
H14_3 H 0.0661 0.5892 0.0346
C1_3 C 0.8052(7) 0.3890(2) 0.79575(17)
C2_3 C 0.6766(7) 0.4138(2) 0.82609(18)
C3_3 C 0.7374(8) 0.4449(3) 0.8615(2)
C4_3 C 0.6178(8) 0.4638(3) 0.8923(2)
C5_3 C 0.4361(8) 0.4516(3) 0.88749(19)
C6_3 C 0.3756(7) 0.4225(3) 0.8512(2)
C7_3 C 0.4948(8) 0.4034(3) 0.8210(2)
C8_3 C 0.3081(8) 0.4682(3) 0.92232(19)
Fe2_6 Fe 0.0000 0.5000 1.0000
N2_3 N 0.2092(7) 0.4505(2) 0.99772(17)
C10_3 C 0.3182(10) 0.4421(3) 0.9627(2)
C11_3 C 0.4455(13) 0.4008(4) 0.9731(3)
H1_3 H 0.8602 0.4530 0.8647
H2_3 H 0.6597 0.4848 0.9157
H3_3 H 0.2541 0.4151 0.8471
H4_3 H 0.4535 0.3832 0.7968
H5_3 H 0.5328 0.3884 0.9546
H13_3 H 0.1765 0.5846 0.9921
C33_3 C 0.1794(7) 0.5070(2) 0.91167(17)
N3_3 N 0.0475(6) 0.5249(2) 0.93882(15)
C40_3 C 0.0346(8) 0.5707(3) 0.8720(2)
C41_3 C 0.1693(8) 0.5349(3) 0.87042(19)
H22_3 H 0.2456 0.5295 0.8468
C9_3 C 0.8206(7) 0.4930(2) 0.08833(17)
N1_3 N 0.9525(6) 0.4751(2) 0.06118(15)
Fe2_7 Fe 1.0000 0.5000 -0.0000
C16_3 C 0.9654(8) 0.4293(3) 0.1280(2)
C17_3 C 0.8307(8) 0.4651(3) 0.12958(19)
H8_3 H 0.7544 0.4705 0.1532
C25_3 C 0.1948(7) 0.6110(2) 0.20425(17)
O7_3 O 0.0292(5) 0.60426(19) 0.20023(15)
C26_3 C 0.3234(7) 0.5862(2) 0.17391(18)
C27_3 C 0.2626(8) 0.5551(3) 0.1385(2)
C28_3 C 0.3822(8) 0.5362(3) 0.1077(2)
C29_3 C 0.5639(8) 0.5484(3) 0.11251(19)
C30_3 C 0.6244(7) 0.5775(3) 0.1488(2)
C31_3 C 0.5052(8) 0.5966(3) 0.1790(2)
C32_3 C 0.6919(8) 0.5318(3) 0.07768(19)
N4_3 N 0.7908(7) 0.5495(2) 0.00228(17)
C34_3 C 0.6818(10) 0.5579(3) 0.0373(2)
C35_3 C 0.5545(13) 0.5992(4) 0.0269(3)
H15_3 H 0.1398 0.5470 0.1353
H16_3 H 0.3403 0.5152 0.0843
H17_3 H 0.7459 0.5849 0.1529
H18_3 H 0.5465 0.6168 0.2032
H19_3 H 0.4672 0.6116 0.0454
H27_3 H 0.8235 0.4154 0.0079
Fe2_8 Fe 1.0000 0.5000 1.0000
C36_3 C 0.5891(14) 0.6173(4) 0.9867(3)
C37_3 C 0.7345(9) 0.5858(3) 0.9701(2)
C38_3 C 0.8118(8) 0.5933(3) 0.9296(2)
C39_3 C 0.9579(8) 0.5640(2) 0.91532(19)
C42_3 C 0.7316(9) 0.6345(3) 0.8994(2)
C43_3 C 0.8243(11) 0.6809(3) 0.8889(3)
C44_3 C 0.7465(13) 0.7183(3) 0.8595(3)
C45_3 C 0.5827(11) 0.7095(4) 0.8408(3)
C46_3 C 0.4886(12) 0.6646(4) 0.8519(3)
C47_3 C 0.5631(11) 0.6268(4) 0.8801(3)
C48_3 C 0.4946(16) 0.7466(5) 0.8076(4)
O9_3 O 0.3444(13) 0.7394(5) 0.7930(4)
H20_3 H 0.5276 0.6442 0.9717
H21_3 H 0.9964 0.5945 0.8499
H23_3 H 0.9356 0.6876 0.9020
H24_3 H 0.8102 0.7494 0.8528
H25_3 H 0.3731 0.6594 0.8403
H26_3 H 0.4998 0.5956 0.8868
O10_3 O 0.8611(7) 0.4356(3) 0.98226(15)
H28_3 H 0.9339 0.4108 0.9654
C22_4 C 0.0114(12) 0.8354(4) 0.1481(3)
C24_4 C 0.0054(16) 0.7534(5) 0.1924(4)
H11_4 H 0.1269 0.8406 0.1597
H12_4 H 0.0002 0.9044 0.1132
C1_4 C 0.3052(7) 0.8890(2) 0.79575(17)
C2_4 C 0.1766(7) 0.9138(2) 0.82609(18)
C3_4 C 0.2374(8) 0.9449(3) 0.8615(2)
C4_4 C 0.1178(8) 0.9638(3) 0.8923(2)
H1_4 H 0.3602 0.9530 0.8647
H2_4 H 0.1597 0.9848 0.9157
H5_4 H 0.0328 0.8884 0.9546
Fe2_9 Fe 0.5000 0.0000 -0.0000
O5_4 O 0.6389(7) 0.0644(3) 0.01774(15)
H14_4 H 0.5661 0.0892 0.0346
C29_4 C 0.0639(8) 0.0484(3) 0.11251(19)
C30_4 C 0.1244(7) 0.0775(3) 0.1488(2)
C31_4 C 0.0052(8) 0.0966(3) 0.1790(2)
C32_4 C 0.1919(8) 0.0318(3) 0.07768(19)
N4_4 N 0.2908(7) 0.0495(2) 0.00228(17)
C34_4 C 0.1818(10) 0.0579(3) 0.0373(2)
C35_4 C 0.0545(13) 0.0992(4) 0.0269(3)
H17_4 H 0.2459 0.0849 0.1529
H18_4 H 0.0465 0.1168 0.2032
Fe2_10 Fe 0.5000 0.0000 1.0000
H13_4 H 0.6765 0.0846 0.9921
C33_4 C 0.6794(7) 0.0070(2) 0.91167(17)
N3_4 N 0.5475(6) 0.0249(2) 0.93882(15)
C36_4 C 0.0891(14) 0.1173(4) 0.9867(3)
C37_4 C 0.2345(9) 0.0858(3) 0.9701(2)
C38_4 C 0.3118(8) 0.0933(3) 0.9296(2)
C39_4 C 0.4579(8) 0.0640(2) 0.91532(19)
C40_4 C 0.5346(8) 0.0707(3) 0.8720(2)
C41_4 C 0.6693(8) 0.0349(3) 0.87042(19)
C42_4 C 0.2316(9) 0.1345(3) 0.8994(2)
C43_4 C 0.3243(11) 0.1809(3) 0.8889(3)
C44_4 C 0.2465(13) 0.2183(3) 0.8595(3)
C45_4 C 0.0827(11) 0.2095(4) 0.8408(3)
C47_4 C 0.0631(11) 0.1268(4) 0.8801(3)
H20_4 H 0.0276 0.1442 0.9717
H21_4 H 0.4964 0.0945 0.8499
H22_4 H 0.7456 0.0295 0.8468
H23_4 H 0.4356 0.1876 0.9020
H24_4 H 0.3102 0.2494 0.8528
C9_4 C 0.3206(7) 0.9930(2) 0.08833(17)
N1_4 N 0.4525(6) 0.9751(2) 0.06118(15)
Fe2_11 Fe 0.5000 1.0000 -0.0000
C12_4 C 0.9109(14) 0.8827(4) 0.0133(3)
C13_4 C 0.7655(9) 0.9142(3) 0.0299(2)
C14_4 C 0.6882(8) 0.9067(3) 0.0704(2)
C15_4 C 0.5421(8) 0.9360(2) 0.08468(19)
C16_4 C 0.4654(8) 0.9293(3) 0.1280(2)
C17_4 C 0.3307(8) 0.9651(3) 0.12958(19)
C18_4 C 0.7684(9) 0.8655(3) 0.1006(2)
C19_4 C 0.6757(11) 0.8191(3) 0.1111(3)
C20_4 C 0.7535(13) 0.7817(3) 0.1405(3)
C21_4 C 0.9173(11) 0.7905(4) 0.1592(3)
C23_4 C 0.9369(11) 0.8732(4) 0.1199(3)
H6_4 H 0.9724 0.8558 0.0283
H7_4 H 0.5036 0.9055 0.1501
H8_4 H 0.2544 0.9705 0.1532
H9_4 H 0.5644 0.8124 0.0980
H10_4 H 0.6898 0.7506 0.1472
H27_4 H 0.3235 0.9154 0.0079
C5_4 C 0.9361(8) 0.9516(3) 0.88749(19)
C6_4 C 0.8756(7) 0.9225(3) 0.8512(2)
C7_4 C 0.9948(8) 0.9034(3) 0.8210(2)
C8_4 C 0.8081(8) 0.9682(3) 0.92232(19)
Fe2_12 Fe 0.5000 1.0000 1.0000
N2_4 N 0.7092(7) 0.9505(2) 0.99772(17)
C10_4 C 0.8182(10) 0.9421(3) 0.9627(2)
C11_4 C 0.9455(13) 0.9008(4) 0.9731(3)
H3_4 H 0.7541 0.9151 0.8471
H4_4 H 0.9535 0.8832 0.7968
O10_4 O 0.3611(7) 0.9356(3) 0.98226(15)
H28_4 H 0.4339 0.9108 0.9654
C25_4 C 0.6948(7) 0.1110(2) 0.20425(17)
O7_4 O 0.5292(5) 0.10426(19) 0.20023(15)
C26_4 C 0.8234(7) 0.0862(2) 0.17391(18)
C27_4 C 0.7626(8) 0.0551(3) 0.1385(2)
C28_4 C 0.8822(8) 0.0362(3) 0.1077(2)
H15_4 H 0.6398 0.0470 0.1353
H16_4 H 0.8403 0.0152 0.0843
H19_4 H 0.9672 0.1116 0.0454
C46_4 C 0.9886(12) 0.1646(4) 0.8519(3)
C48_4 C 0.9946(16) 0.2466(5) 0.8076(4)
O9_4 O 0.8444(13) 0.2394(5) 0.7930(4)
H25_4 H 0.8731 0.1594 0.8403
H26_4 H 0.9998 0.0956 0.8868
loop_
_geom_bond_atom_site_label_1
_geom_bond_atom_site_label_2
_geom_bond_site_symmetry_1
_geom_bond_site_symmetry_2
C9 N1 1_555 1_555
N1 Fe2 1_555 1_555
C17 C9 1_555 1_555
H8 C17 1_555 1_555
O6 C25 1_555 1_555
C25 O7 1_555 1_555
O7 Fe3_2 1_555 1_555
C26 C25 1_555 1_555
C27 C26 1_555 1_555
C28 C27 1_555 1_555
C29 C28 1_555 1_555
C30 C29 1_555 1_555
C31 C26 1_555 1_555
C32 C9 1_555 1_555
N4 Fe2 1_555 1_555
C34 C32 1_555 1_555
C35 C34 1_555 1_555
C36 C35 1_555 1_555
C37 N4 1_555 1_555
C38 C37 1_555 1_555
C42 C38 1_555 1_555
C43 C42 1_555 1_555
C44 C43 1_555 1_555
C45 C44 1_555 1_555
C46 C45 1_555 1_555
C47 C42 1_555 1_555
C48 C45 1_555 1_555
O8 C48 1_555 1_555
O9 C48 1_555 1_555
H15 C27 1_555 1_555
H16 C28 1_555 1_555
H17 C30 1_555 1_555
H18 C31 1_555 1_555
H19 C35 1_555 1_555
H20 C36 1_555 1_555
H23 C43 1_555 1_555
H24 C44 1_555 1_555
H25 C46 1_555 1_555
H26 C47 1_555 1_555
O10 Fe2 1_555 1_555
H27 O10 1_555 1_555
H28 O10 1_555 1_555
Cs4 O8 1_555 1_555
Cs4_2 O9 1_555 1_555
Cs5 O6 1_555 1_555
Fe3_2 O6 1_555 1_555
Fe4 O8 1_555 1_555
C16 C17 1_555 1_555
C29 C32 1_555 1_555
C30 C31 1_555 1_555
N4 C34 1_555 1_555
C36 C37 1_555 1_555
C38 C39 1_555 1_555
C46 C47 1_555 1_555
Cs2 O4 1_555 1_555
Fe1 O1 1_555 1_555
O1 C1 1_555 1_555
C1 O2 1_555 1_555
O2 Fe1 1_555 1_555
C2 C1 1_555 1_555
C3 C2 1_555 1_555
C4 C3 1_555 1_555
C5 C4 1_555 1_555
C6 C5 1_555 1_555
C7 C2 1_555 1_555
C8 C5 1_555 1_555
Fe2_2 N2 1_555 1_555
N2 C10 1_555 1_555
C10 C8 1_555 1_555
C11 C10 1_555 1_555
C12 C11 1_555 1_555
C13 N2 1_555 1_555
C14 C13 1_555 1_555
C18 C14 1_555 1_555
C19 C18 1_555 1_555
C20 C19 1_555 1_555
C21 C20 1_555 1_555
C22 C21 1_555 1_555
C23 C18 1_555 1_555
C24 C21 1_555 1_555
O3 C24 1_555 1_555
O4 C24 1_555 1_555
O5 Fe2_2 1_555 1_555
H1 C3 1_555 1_555
H2 C4 1_555 1_555
H3 C6 1_555 1_555
H4 C7 1_555 1_555
H5 C11 1_555 1_555
H6 C12 1_555 1_555
H9 C19 1_555 1_555
H10 C20 1_555 1_555
H11 C22 1_555 1_555
H12 C23 1_555 1_555
H13 O5 1_555 1_555
H14 O5 1_555 1_555
C33 C8 1_555 1_555
N3 Fe2_2 1_555 1_555
C41 C33 1_555 1_555
H22 C41 1_555 1_555
Cs2_2 O3 1_555 1_555
Cs6 O1 1_555 1_555
Fe5 O3 1_555 1_555
O11 Cs2 1_555 1_555
O17 Cs2 1_555 1_555
O18 Fe1 1_555 1_555
C6 C7 1_555 1_555
C12 C13 1_555 1_555
C14 C15 1_555 1_555
C22 C23 1_555 1_555
C33 N3 1_555 1_555
C40 C41 1_555 1_555
Cs6 O18 1_555 1_555
Fe5 O11 1_555 1_555
Fe5 O17 1_555 1_555
O12 Fe1_2 1_555 1_555
O13 Cs2_2 1_555 1_555
O14 Fe1_2 1_555 1_555
O16 Fe1_2 1_555 1_555
O19 Cs2_2 1_555 1_555
O11 C25_2 1_555 1_555
C25_2 O7_2 1_555 1_555
O7_2 Fe5 1_555 1_555
C26_2 C25_2 1_555 1_555
C27_2 C26_2 1_555 1_555
C28_2 C27_2 1_555 1_555
O9_2 C48_2 1_555 1_555
H15_2 C27_2 1_555 1_555
H16_2 C28_2 1_555 1_555
H25_2 C46_2 1_555 1_555
Cs6 O9_2 1_555 1_555
O5_2 Fe2_3 1_555 1_555
H13_2 O5_2 1_555 1_555
H14_2 O5_2 1_555 1_555
C30_2 C29_2 1_555 1_555
N3_2 Fe2_3 1_555 1_555
N4_2 Fe2_3 1_555 1_555
C34_2 C32_2 1_555 1_555
C35_2 C34_2 1_555 1_555
C36_2 C35_2 1_555 1_555
C37_2 N4_2 1_555 1_555
C38_2 C37_2 1_555 1_555
C39_2 N3_2 1_555 1_555
C40_2 C39_2 1_555 1_555
C41_2 C33_2 1_555 1_555
C42_2 C38_2 1_555 1_555
C43_2 C42_2 1_555 1_555
C44_2 C43_2 1_555 1_555
C45_2 C44_2 1_555 1_555
C47_2 C42_2 1_555 1_555
H17_2 C30_2 1_555 1_555
H18_2 C31_2 1_555 1_555
H20_2 C36_2 1_555 1_555
H21_2 C40_2 1_555 1_555
H22_2 C41_2 1_555 1_555
H23_2 C43_2 1_555 1_555
H24_2 C44_2 1_555 1_555
Cs6 O16 1_555 1_555
C29_2 C32_2 1_555 1_555
C30_2 C31_2 1_555 1_555
C33_2 N3_2 1_555 1_555
N4_2 C34_2 1_555 1_555
C36_2 C37_2 1_555 1_555
C38_2 C39_2 1_555 1_555
C40_2 C41_2 1_555 1_555
C6_2 C5_2 1_555 1_555
C8_2 C5_2 1_555 1_555
C9_2 N1_2 1_555 1_555
N1_2 Fe2_4 1_555 1_555
Fe2_4 N2_2 1_555 1_555
N2_2 C10_2 1_555 1_555
C10_2 C8_2 1_555 1_555
C11_2 C10_2 1_555 1_555
C12_2 C11_2 1_555 1_555
C13_2 N2_2 1_555 1_555
C14_2 C13_2 1_555 1_555
C15_2 N1_2 1_555 1_555
C16_2 C15_2 1_555 1_555
C17_2 C9_2 1_555 1_555
C18_2 C14_2 1_555 1_555
C19_2 C18_2 1_555 1_555
C20_2 C19_2 1_555 1_555
C21_2 C20_2 1_555 1_555
C23_2 C18_2 1_555 1_555
H3_2 C6_2 1_555 1_555
H4_2 C7_2 1_555 1_555
H6_2 C12_2 1_555 1_555
H7_2 C16_2 1_555 1_555
H8_2 C17_2 1_555 1_555
H9_2 C19_2 1_555 1_555
H10_2 C20_2 1_555 1_555
O10_2 Fe2_4 1_555 1_555
H27_2 O10_2 1_555 1_555
H28_2 O10_2 1_555 1_555
Cs5 O3_2 1_555 1_555
Fe3 O3_2 1_555 1_555
C6_2 C7_2 1_555 1_555
C12_2 C13_2 1_555 1_555
C14_2 C15_2 1_555 1_555
C16_2 C17_2 1_555 1_555
Cs5 O4_2 1_555 1_555
Fe4 O1_2 1_555 1_555
O1_2 C1_2 1_555 1_555
C1_2 O2_2 1_555 1_555
O2_2 Fe4 1_555 1_555
C2_2 C1_2 1_555 1_555
C3_2 C2_2 1_555 1_555
C4_2 C3_2 1_555 1_555
O4_2 C24_2 1_555 1_555
H1_2 C3_2 1_555 1_555
H2_2 C4_2 1_555 1_555
H11_2 C22_2 1_555 1_555
Cs4_2 O1_2 1_555 1_555
O12_2 Fe4 1_555 1_555
O13_2 Cs5 1_555 1_555
O14_2 Fe4 1_555 1_555
O17_2 Cs5 1_555 1_555
O18_2 Fe4 1_555 1_555
O19_2 Cs5 1_555 1_555
Cs4_2 O18_2 1_555 1_555
Fe3_2 O17_2 1_555 1_555
C14_3 C13_3 1_555 1_555
C18_3 C14_3 1_555 1_555
C19_3 C18_3 1_555 1_555
C20_3 C19_3 1_555 1_555
C21_3 C20_3 1_555 1_555
C22_3 C21_3 1_555 1_555
C23_3 C18_3 1_555 1_555
C24_3 C21_3 1_555 1_555
O17 C24_3 1_555 1_555
O19 C24_3 1_555 1_555
O5_3 Fe2_5 1_555 1_555
H6_3 C12_3 1_555 1_555
H9_3 C19_3 1_555 1_555
H10_3 C20_3 1_555 1_555
H11_3 C22_3 1_555 1_555
H12_3 C23_3 1_555 1_555
H14_3 O5_3 1_555 1_555
C12_3 C13_3 1_555 1_555
C14_3 C15_3 1_555 1_555
C22_3 C23_3 1_555 1_555
Fe5 O13 1_555 1_555
O12 C1_3 1_555 1_555
C1_3 O14 1_555 1_555
C2_3 C1_3 1_555 1_555
C3_3 C2_3 1_555 1_555
C4_3 C3_3 1_555 1_555
C5_3 C4_3 1_555 1_555
C6_3 C5_3 1_555 1_555
C7_3 C2_3 1_555 1_555
C8_3 C5_3 1_555 1_555
Fe2_6 N2_3 1_555 1_555
N2_3 C10_3 1_555 1_555
C10_3 C8_3 1_555 1_555
C11_3 C10_3 1_555 1_555
H1_3 C3_3 1_555 1_555
H2_3 C4_3 1_555 1_555
H3_3 C6_3 1_555 1_555
H4_3 C7_3 1_555 1_555
H5_3 C11_3 1_555 1_555
C33_3 C8_3 1_555 1_555
N3_3 Fe2_6 1_555 1_555
C41_3 C33_3 1_555 1_555
H22_3 C41_3 1_555 1_555
Cs6 O12 1_555 1_555
C6_3 C7_3 1_555 1_555
C33_3 N3_3 1_555 1_555
C40_3 C41_3 1_555 1_555
C9_3 N1_3 1_555 1_555
N1_3 Fe2_7 1_555 1_555
C17_3 C9_3 1_555 1_555
H8_3 C17_3 1_555 1_555
O13_2 C25_3 1_555 1_555
C25_3 O7_3 1_555 1_555
O7_3 Fe3 1_555 1_555
C26_3 C25_3 1_555 1_555
C27_3 C26_3 1_555 1_555
C28_3 C27_3 1_555 1_555
C29_3 C28_3 1_555 1_555
C30_3 C29_3 1_555 1_555
C31_3 C26_3 1_555 1_555
C32_3 C9_3 1_555 1_555
N4_3 Fe2_7 1_555 1_555
C34_3 C32_3 1_555 1_555
C35_3 C34_3 1_555 1_555
H15_3 C27_3 1_555 1_555
H16_3 C28_3 1_555 1_555
H17_3 C30_3 1_555 1_555
H18_3 C31_3 1_555 1_555
H19_3 C35_3 1_555 1_555
Fe3 O13_2 1_555 1_555
C16_3 C17_3 1_555 1_555
C29_3 C32_3 1_555 1_555
C30_3 C31_3 1_555 1_555
N4_3 C34_3 1_555 1_555
C38_3 C37_3 1_555 1_555
C42_3 C38_3 1_555 1_555
C43_3 C42_3 1_555 1_555
C44_3 C43_3 1_555 1_555
C45_3 C44_3 1_555 1_555
C46_3 C45_3 1_555 1_555
C47_3 C42_3 1_555 1_555
C48_3 C45_3 1_555 1_555
O18_2 C48_3 1_555 1_555
O9_3 C48_3 1_555 1_555
H20_3 C36_3 1_555 1_555
H23_3 C43_3 1_555 1_555
H24_3 C44_3 1_555 1_555
H25_3 C46_3 1_555 1_555
H26_3 C47_3 1_555 1_555
O10_3 Fe2_8 1_555 1_555
H28_3 O10_3 1_555 1_555
Cs4 O9_3 1_555 1_555
C36_3 C37_3 1_555 1_555
C38_3 C39_3 1_555 1_555
C46_3 C47_3 1_555 1_555
O19_2 C24_4 1_555 1_555
H11_4 C22_4 1_555 1_555
O12_2 C1_4 1_555 1_555
C1_4 O14_2 1_555 1_555
C2_4 C1_4 1_555 1_555
C3_4 C2_4 1_555 1_555
C4_4 C3_4 1_555 1_555
H1_4 C3_4 1_555 1_555
H2_4 C4_4 1_555 1_555
Cs4 O12_2 1_555 1_555
O5_4 Fe2_9 1_555 1_555
H14_4 O5_4 1_555 1_555
C30_4 C29_4 1_555 1_555
N4_4 Fe2_9 1_555 1_555
C34_4 C32_4 1_555 1_555
C35_4 C34_4 1_555 1_555
H17_4 C30_4 1_555 1_555
H18_4 C31_4 1_555 1_555
C29_4 C32_4 1_555 1_555
C30_4 C31_4 1_555 1_555
N4_4 C34_4 1_555 1_555
N3_4 Fe2_10 1_555 1_555
C38_4 C37_4 1_555 1_555
C39_4 N3_4 1_555 1_555
C40_4 C39_4 1_555 1_555
C41_4 C33_4 1_555 1_555
C42_4 C38_4 1_555 1_555
C43_4 C42_4 1_555 1_555
C44_4 C43_4 1_555 1_555
C45_4 C44_4 1_555 1_555
C47_4 C42_4 1_555 1_555
H20_4 C36_4 1_555 1_555
H21_4 C40_4 1_555 1_555
H22_4 C41_4 1_555 1_555
H23_4 C43_4 1_555 1_555
H24_4 C44_4 1_555 1_555
C33_4 N3_4 1_555 1_555
C36_4 C37_4 1_555 1_555
C38_4 C39_4 1_555 1_555
C40_4 C41_4 1_555 1_555
C9_4 N1_4 1_555 1_555
N1_4 Fe2_11 1_555 1_555
C14_4 C13_4 1_555 1_555
C15_4 N1_4 1_555 1_555
C16_4 C15_4 1_555 1_555
C17_4 C9_4 1_555 1_555
C18_4 C14_4 1_555 1_555
C19_4 C18_4 1_555 1_555
C20_4 C19_4 1_555 1_555
C21_4 C20_4 1_555 1_555
C23_4 C18_4 1_555 1_555
H6_4 C12_4 1_555 1_555
H7_4 C16_4 1_555 1_555
H8_4 C17_4 1_555 1_555
H9_4 C19_4 1_555 1_555
H10_4 C20_4 1_555 1_555
C12_4 C13_4 1_555 1_555
C14_4 C15_4 1_555 1_555
C16_4 C17_4 1_555 1_555
C6_4 C5_4 1_555 1_555
C8_4 C5_4 1_555 1_555
Fe2_12 N2_4 1_555 1_555
N2_4 C10_4 1_555 1_555
C10_4 C8_4 1_555 1_555
C11_4 C10_4 1_555 1_555
H3_4 C6_4 1_555 1_555
H4_4 C7_4 1_555 1_555
O10_4 Fe2_12 1_555 1_555
H28_4 O10_4 1_555 1_555
C6_4 C7_4 1_555 1_555
O13 C25_4 1_555 1_555
C25_4 O7_4 1_555 1_555
O7_4 Fe5 1_555 1_555
C26_4 C25_4 1_555 1_555
C27_4 C26_4 1_555 1_555
C28_4 C27_4 1_555 1_555
H15_4 C27_4 1_555 1_555
H16_4 C28_4 1_555 1_555
O9_4 C48_4 1_555 1_555
H25_4 C46_4 1_555 1_555
Cs6 O9_4 1_555 1_555

#END
