
###############################################################################
#
# This file contains modified crystal structure data generated from the
# MOF subset of the Cambridge Structural Database (CSD) v543 
# hosted by the Cambridge Crystallographic Data Centre (CCDC).
#
# This work is licensed under the Creative Commons
# Attribution-NonCommercial-ShareAlike 4.0 International License.
# To view a copy of this license, visit
# http://creativecommons.org/licenses/by-nc-sa/4.0/
# or send a letter to
# Creative Commons, PO Box 1866, Mountain View, CA 94042, USA.
#
# CIF created using the CSD Python API on 29 September 2022
# The structure has been converted into the P1 space group
# The structure has a 3D framework
# The original CSD entry UGOSOY is in the tetragonal crystal system
# The framework has been calculated to contain at least 10.0% void space
# The void calculation uses a probe of radius 1.32A, grid spacing 0.4
# The framework is charged, counterions have been retained in the structure
# H atom positions have been added when not included in the experimental data
# Generated hydrogen atom positions removed from atoms on special positions
#
###############################################################################

data_UGOSOY
_chemical_formula_moiety         '(C192 H276 Cl12 Cu12 N64 O102 22-)n'
_symmetry_cell_setting           triclinic
_symmetry_space_group_name_H-M   'P 1'
_symmetry_Int_Tables_number      1
_space_group_name_Hall           'P 1'
loop_
_symmetry_equiv_pos_site_id
_symmetry_equiv_pos_as_xyz
1 x,y,z
_cell_length_a                   13.477(3)
_cell_length_b                   13.477(3)
_cell_length_c                   46.167(13)
_cell_angle_alpha                90
_cell_angle_beta                 90
_cell_angle_gamma                90
_cell_volume                     8385.29
loop_
_atom_site_label
_atom_site_type_symbol
_atom_site_fract_x
_atom_site_fract_y
_atom_site_fract_z
Cu4 Cu -0.0000 0.2500 0.849523(14)
Cu1 Cu 0.5000 0.2500 0.099523(14)
O2 O 0.3612(3) 0.1314(3) 0.10209(7)
N1 N 0.4264(3) 0.3220(3) 0.06746(7)
C1 C 0.3774(5) 0.2669(4) 0.04771(10)
H1 H 0.3678 0.1996 0.0512
C2 C 0.3414(4) 0.3072(4) 0.02267(10)
H2 H 0.3093 0.2667 0.0093
C3 C 0.3516(4) 0.4049(4) 0.01697(9)
C4 C 0.3981(5) 0.4642(4) 0.03757(9)
H3 H 0.4047 0.5322 0.0348
C5 C 0.4338(4) 0.4194(4) 0.06210(9)
H4 H 0.4652 0.4590 0.0758
O3 O 0.6388(3) 0.3686(3) 0.10209(7)
N5 N 0.5736(3) 0.1780(3) 0.06746(7)
C13 C 0.6226(5) 0.2331(4) 0.04771(10)
H9 H 0.6322 0.3004 0.0512
C14 C 0.6586(4) 0.1928(4) 0.02267(10)
H10 H 0.6907 0.2333 0.0093
C15 C 0.6484(4) 0.0951(4) 0.01697(9)
C16 C 0.6019(5) 0.0358(4) 0.03757(9)
C17 C 0.5662(4) 0.0806(4) 0.06210(9)
H12 H 0.5348 0.0410 0.0758
O5 O 0.3644(2) 0.5131(3) 0.22276(6)
N9 N 0.4280(3) 0.6764(3) 0.31746(7)
N10 N 0.2173(4) 0.5766(6) 0.22915(11)
N11 N 0.2203(5) 0.5268(6) 0.20275(12)
N12 N 0.4342(3) 0.3313(3) 0.13077(7)
C25 C 0.4831(4) 0.6274(5) 0.29771(10)
H17 H 0.5504 0.6178 0.3012
C26 C 0.4428(4) 0.5914(4) 0.27267(10)
H18 H 0.4833 0.5593 0.2593
C27 C 0.3451(4) 0.6016(4) 0.26697(9)
C28 C 0.2858(4) 0.6481(5) 0.28757(9)
H19 H 0.2178 0.6547 0.2848
C29 C 0.3306(4) 0.6838(4) 0.31210(9)
H20 H 0.2910 0.7152 0.3258
C30 C 0.3042(4) 0.5648(5) 0.24032(10)
C31 C 0.3040(5) 0.4908(5) 0.19984(11)
C32 C 0.3495(5) 0.4363(4) 0.17592(9)
C33 C 0.4481(5) 0.4198(4) 0.17511(9)
H21 H 0.4881 0.4428 0.1901
C34 C 0.4903(4) 0.3691(4) 0.15222(9)
H22 H 0.5588 0.3609 0.1516
C35 C 0.3371(5) 0.3490(4) 0.13179(10)
H23 H 0.2980 0.3268 0.1165
C36 C 0.2921(4) 0.3977(5) 0.15387(10)
H24 H 0.2235 0.4050 0.1542
N16 N 0.5658(3) 0.1687(3) 0.13077(7)
C43 C 0.6960(5) 0.0092(5) 0.19984(11)
C44 C 0.6505(5) 0.0637(4) 0.17592(9)
C45 C 0.5519(5) 0.0802(4) 0.17511(9)
H29 H 0.5119 0.0572 0.1901
C46 C 0.5097(4) 0.1309(4) 0.15222(9)
H30 H 0.4412 0.1391 0.1516
C47 C 0.6629(5) 0.1510(4) 0.13179(10)
H31 H 0.7020 0.1732 0.1165
C48 C 0.7079(4) 0.1023(5) 0.15387(10)
H32 H 0.7765 0.0950 0.1542
Cu2 Cu 0.5000 0.7500 0.349523(14)
O7 O 0.6186(3) 0.6112(3) 0.35209(7)
O8 O 0.3814(3) 0.8888(3) 0.35209(7)
N17 N 0.5720(3) 0.8236(3) 0.31746(7)
N18 N 0.5813(3) 0.8158(3) 0.38077(7)
N19 N 0.4187(3) 0.6842(3) 0.38077(7)
O1 O 0.2631(3) 0.3856(2) 0.97276(6)
N2 N 0.3266(6) 0.5327(4) 0.97915(11)
N3 N 0.2768(6) 0.5297(5) 0.95275(12)
N4 N 0.0813(3) 0.3158(3) 0.88077(7)
C6 C 0.3148(5) 0.4458(4) 0.99032(10)
C7 C 0.2408(5) 0.4460(5) 0.94984(11)
C8 C 0.1863(4) 0.4005(5) 0.92592(9)
C9 C 0.1698(4) 0.3019(5) 0.92511(9)
H5 H 0.1928 0.2619 0.9401
C10 C 0.1191(4) 0.2597(4) 0.90222(9)
H6 H 0.1109 0.1912 0.9016
C11 C 0.0990(4) 0.4129(5) 0.88179(10)
H7 H 0.0768 0.4520 0.8665
C12 C 0.1477(5) 0.4579(4) 0.90387(10)
H8 H 0.1550 0.5265 0.9042
O4 O 0.7369(3) 0.1144(2) 0.97276(6)
N8 N 0.9187(3) 0.1842(3) 0.88077(7)
C18 C 0.6852(5) 0.0542(4) 0.99032(10)
C19 C 0.7592(5) 0.0540(5) 0.94984(11)
C20 C 0.8137(4) 0.0995(5) 0.92592(9)
C21 C 0.8302(4) 0.1981(5) 0.92511(9)
H13 H 0.8072 0.2381 0.9401
C22 C 0.8809(4) 0.2403(4) 0.90222(9)
H14 H 0.8891 0.3088 0.9016
C23 C 0.9010(4) 0.0871(5) 0.88179(10)
H15 H 0.9232 0.0480 0.8665
C24 C 0.8523(5) 0.0421(4) 0.90387(10)
Cu4_2 Cu 1.0000 0.2500 0.849523(14)
H11 H 0.5953 0.9678 0.0348
O6 O 0.6356(2) 0.9869(3) 0.22276(6)
N14 N 0.7827(4) 0.9234(6) 0.22915(11)
N15 N 0.7797(5) 0.9732(6) 0.20275(12)
C37 C 0.5169(4) 0.8726(5) 0.29771(10)
H25 H 0.4496 0.8822 0.3012
C38 C 0.5572(4) 0.9086(4) 0.27267(10)
H26 H 0.5167 0.9407 0.2593
C39 C 0.6549(4) 0.8984(4) 0.26697(9)
C40 C 0.7142(4) 0.8519(5) 0.28757(9)
H27 H 0.7822 0.8453 0.2848
C41 C 0.6694(4) 0.8162(4) 0.31210(9)
H28 H 0.7090 0.7848 0.3258
C42 C 0.6958(4) 0.9352(5) 0.24032(10)
N6 N 0.6734(6) 0.9673(4) 0.97915(11)
N7 N 0.7232(6) 0.9703(5) 0.95275(12)
H16 H 0.8450 0.9735 0.9042
Cu5 Cu -0.0000 0.7500 0.599523(14)
N14_2 N 0.8266(6) 0.0327(4) 0.47915(11)
N15_2 N 0.7768(6) 0.0297(5) 0.45275(12)
H27_2 H 0.9047 0.0322 0.5348
H32_2 H 0.6550 0.0265 0.4042
O5_2 O 0.2369(3) 0.6144(2) 0.47276(6)
N9_2 N 0.0736(3) 0.6780(3) 0.56746(7)
N10_2 N 0.1734(6) 0.4673(4) 0.47915(11)
N11_2 N 0.2232(6) 0.4703(5) 0.45275(12)
C25_2 C 0.1226(5) 0.7331(4) 0.54771(10)
H17_2 H 0.1322 0.8004 0.5512
C26_2 C 0.1586(4) 0.6928(4) 0.52267(10)
H18_2 H 0.1907 0.7333 0.5093
C27_2 C 0.1484(4) 0.5951(4) 0.51697(9)
C28_2 C 0.1019(5) 0.5358(4) 0.53757(9)
H19_2 H 0.0953 0.4678 0.5348
C29_2 C 0.0662(4) 0.5806(4) 0.56210(9)
H20_2 H 0.0348 0.5410 0.5758
C30_2 C 0.1852(5) 0.5542(4) 0.49032(10)
C31_2 C 0.2592(5) 0.5540(5) 0.44984(11)
C32_2 C 0.3137(4) 0.5995(5) 0.42592(9)
C33_2 C 0.3302(4) 0.6981(5) 0.42511(9)
H21_2 H 0.3072 0.7381 0.4401
C34_2 C 0.3809(4) 0.7403(4) 0.40222(9)
H22_2 H 0.3891 0.8088 0.4016
C35_2 C 0.4010(4) 0.5871(5) 0.38179(10)
H23_2 H 0.4232 0.5480 0.3665
C36_2 C 0.3523(5) 0.5421(4) 0.40387(10)
H24_2 H 0.3450 0.4735 0.4042
O6_2 O 0.7631(3) 0.8856(2) 0.47276(6)
N13 N 0.9264(3) 0.8220(3) 0.56746(7)
C37_2 C 0.8774(5) 0.7669(4) 0.54771(10)
H25_2 H 0.8678 0.6996 0.5512
C38_2 C 0.8414(4) 0.8072(4) 0.52267(10)
H26_2 H 0.8093 0.7667 0.5093
C39_2 C 0.8516(4) 0.9049(4) 0.51697(9)
C40_2 C 0.8981(5) 0.9642(4) 0.53757(9)
C41_2 C 0.9338(4) 0.9194(4) 0.56210(9)
H28_2 H 0.9652 0.9590 0.5758
C42_2 C 0.8148(5) 0.9458(4) 0.49032(10)
C43_2 C 0.7408(5) 0.9460(5) 0.44984(11)
C44_2 C 0.6863(4) 0.9005(5) 0.42592(9)
C45_2 C 0.6698(4) 0.8019(5) 0.42511(9)
H29_2 H 0.6928 0.7619 0.4401
C46_2 C 0.6191(4) 0.7597(4) 0.40222(9)
H30_2 H 0.6109 0.6912 0.4016
C47_2 C 0.5990(4) 0.9129(5) 0.38179(10)
H31_2 H 0.5768 0.9520 0.3665
C48_2 C 0.6477(5) 0.9579(4) 0.40387(10)
O7_2 O 0.1388(3) 0.8686(3) 0.60209(7)
Cu5_2 Cu 1.0000 0.7500 0.599523(14)
N19_2 N 0.0658(3) 0.6687(3) 0.63077(7)
O8_2 O 0.8612(3) 0.6314(3) 0.60209(7)
N18_2 N 0.9342(3) 0.8313(3) 0.63077(7)
H17_3 H 0.0504 0.1178 0.8012
O7_3 O 0.1186(3) 0.1112(3) 0.85209(7)
N17_2 N 0.0720(3) 0.3236(3) 0.81746(7)
H22_3 H 0.0588 0.8609 0.6516
O6_3 O 0.1356(2) 0.4869(3) 0.72276(6)
N14_3 N 0.2827(4) 0.4234(6) 0.72915(11)
N15_3 N 0.2797(5) 0.4732(6) 0.70275(12)
C37_3 C 0.0169(4) 0.3726(5) 0.79771(10)
C38_3 C 0.0572(4) 0.4086(4) 0.77267(10)
H26_3 H 0.0167 0.4407 0.7593
C39_3 C 0.1549(4) 0.3984(4) 0.76697(9)
C40_3 C 0.2142(4) 0.3519(5) 0.78757(9)
H27_3 H 0.2822 0.3453 0.7848
C41_3 C 0.1694(4) 0.3162(4) 0.81210(9)
H28_3 H 0.2090 0.2848 0.8258
C42_3 C 0.1958(4) 0.4352(5) 0.74032(10)
C43_3 C 0.1960(5) 0.5092(5) 0.69984(11)
C44_3 C 0.1505(5) 0.5637(4) 0.67592(9)
C45_3 C 0.0519(5) 0.5802(4) 0.67511(9)
H29_3 H 0.0119 0.5572 0.6901
C46_3 C 0.0097(4) 0.6309(4) 0.65222(9)
C47_3 C 0.1629(5) 0.6510(4) 0.63179(10)
H31_3 H 0.2020 0.6732 0.6165
C48_3 C 0.2079(4) 0.6023(5) 0.65387(10)
H32_3 H 0.2765 0.5950 0.6542
O5_3 O 0.8644(2) 0.0131(3) 0.72276(6)
N9_3 N 0.9280(3) 0.1764(3) 0.81746(7)
N10_3 N 0.7173(4) 0.0766(6) 0.72915(11)
N11_3 N 0.7203(5) 0.0268(6) 0.70275(12)
C25_3 C 0.9831(4) 0.1274(5) 0.79771(10)
C26_3 C 0.9428(4) 0.0914(4) 0.77267(10)
H18_3 H 0.9833 0.0593 0.7593
C27_3 C 0.8451(4) 0.1016(4) 0.76697(9)
C28_3 C 0.7858(4) 0.1481(5) 0.78757(9)
H19_3 H 0.7178 0.1547 0.7848
C29_3 C 0.8306(4) 0.1838(4) 0.81210(9)
H20_3 H 0.7910 0.2152 0.8258
C30_3 C 0.8042(4) 0.0648(5) 0.74032(10)
O8_3 O 0.8814(3) 0.3888(3) 0.85209(7)
C31_3 C 0.8040(5) 0.9908(5) 0.69984(11)
C32_3 C 0.8495(5) 0.9363(4) 0.67592(9)
C33_3 C 0.9481(5) 0.9198(4) 0.67511(9)
H21_3 H 0.9881 0.9428 0.6901
C34_3 C 0.9903(4) 0.8691(4) 0.65222(9)
C35_3 C 0.8371(5) 0.8490(4) 0.63179(10)
H23_3 H 0.7980 0.8268 0.6165
C36_3 C 0.7921(4) 0.8977(5) 0.65387(10)
H24_3 H 0.7235 0.9050 0.6542
H25_3 H 0.9496 0.3822 0.8012
H30_3 H 0.9412 0.6391 0.6516
Cu3 Cu -0.0000 0.7500 0.150477(14)
N6_2 N 0.3266(6) 0.0327(4) 0.02085(11)
N7_2 N 0.2768(6) 0.0297(5) 0.04725(12)
H16_2 H 0.1550 0.0265 0.0958
H11_2 H 0.4047 0.0322 0.9652
O6_4 O 0.3644(2) 0.0131(3) 0.77724(6)
N13_2 N 0.4280(3) 0.1764(3) 0.68254(7)
N14_4 N 0.2173(4) 0.0766(6) 0.77085(11)
N15_4 N 0.2203(5) 0.0268(6) 0.79725(12)
C37_4 C 0.4831(4) 0.1274(5) 0.70229(10)
H25_4 H 0.5504 0.1178 0.6988
C38_4 C 0.4428(4) 0.0914(4) 0.72733(10)
H26_4 H 0.4833 0.0593 0.7407
C39_4 C 0.3451(4) 0.1016(4) 0.73303(9)
C40_4 C 0.2858(4) 0.1481(5) 0.71243(9)
H27_4 H 0.2178 0.1547 0.7152
C41_4 C 0.3306(4) 0.1838(4) 0.68790(9)
H28_4 H 0.2910 0.2152 0.6742
C42_4 C 0.3042(4) 0.0648(5) 0.75968(10)
Cu5_3 Cu 0.5000 0.2500 0.650477(14)
O1_2 O 0.7369(3) 0.6144(2) 0.02724(6)
N2_2 N 0.6734(6) 0.4673(4) 0.02085(11)
N3_2 N 0.7232(6) 0.4703(5) 0.04725(12)
N4_2 N 0.9187(3) 0.6842(3) 0.11923(7)
C6_2 C 0.6852(5) 0.5542(4) 0.00968(10)
C7_2 C 0.7592(5) 0.5540(5) 0.05016(11)
C8_2 C 0.8137(4) 0.5995(5) 0.07408(9)
C9_2 C 0.8302(4) 0.6981(5) 0.07489(9)
H5_2 H 0.8072 0.7381 0.0599
C10_2 C 0.8809(4) 0.7403(4) 0.09778(9)
H6_2 H 0.8891 0.8088 0.0984
C11_2 C 0.9010(4) 0.5871(5) 0.11821(10)
H7_2 H 0.9232 0.5480 0.1335
C12_2 C 0.8523(5) 0.5421(4) 0.09613(10)
H8_2 H 0.8450 0.4735 0.0958
O4_2 O 0.2631(3) 0.8856(2) 0.02724(6)
N8_2 N 0.0813(3) 0.8158(3) 0.11923(7)
C18_2 C 0.3148(5) 0.9458(4) 0.00968(10)
C19_2 C 0.2408(5) 0.9460(5) 0.05016(11)
C20_2 C 0.1863(4) 0.9005(5) 0.07408(9)
C21_2 C 0.1698(4) 0.8019(5) 0.07489(9)
H13_2 H 0.1928 0.7619 0.0599
C22_2 C 0.1191(4) 0.7597(4) 0.09778(9)
H14_2 H 0.1109 0.6912 0.0984
C23_2 C 0.0990(4) 0.9129(5) 0.11821(10)
H15_2 H 0.0768 0.9520 0.1335
C24_2 C 0.1477(5) 0.9579(4) 0.09613(10)
Cu3_2 Cu 1.0000 0.7500 0.150477(14)
Cu1_2 Cu 0.5000 0.7500 0.900477(14)
O2_2 O 0.6388(3) 0.8686(3) 0.89791(7)
N1_2 N 0.5736(3) 0.6780(3) 0.93254(7)
C1_2 C 0.6226(5) 0.7331(4) 0.95229(10)
H1_2 H 0.6322 0.8004 0.9488
C2_2 C 0.6586(4) 0.6928(4) 0.97733(10)
H2_2 H 0.6907 0.7333 0.9907
C3_2 C 0.6484(4) 0.5951(4) 0.98303(9)
C4_2 C 0.6019(5) 0.5358(4) 0.96243(9)
H3_2 H 0.5953 0.4678 0.9652
C5_2 C 0.5662(4) 0.5806(4) 0.93790(9)
H4_2 H 0.5348 0.5410 0.9242
O3_2 O 0.3612(3) 0.6314(3) 0.89791(7)
N5_2 N 0.4264(3) 0.8220(3) 0.93254(7)
C13_2 C 0.3774(5) 0.7669(4) 0.95229(10)
H9_2 H 0.3678 0.6996 0.9488
C14_2 C 0.3414(4) 0.8072(4) 0.97733(10)
H10_2 H 0.3093 0.7667 0.9907
C15_2 C 0.3516(4) 0.9049(4) 0.98303(9)
C16_2 C 0.3981(5) 0.9642(4) 0.96243(9)
C17_2 C 0.4338(4) 0.9194(4) 0.93790(9)
H12_2 H 0.4652 0.9590 0.9242
O5_4 O 0.6356(2) 0.4869(3) 0.77724(6)
N9_4 N 0.5720(3) 0.3236(3) 0.68254(7)
N10_4 N 0.7827(4) 0.4234(6) 0.77085(11)
N11_4 N 0.7797(5) 0.4732(6) 0.79725(12)
N12_2 N 0.5658(3) 0.6687(3) 0.86923(7)
C25_4 C 0.5169(4) 0.3726(5) 0.70229(10)
H17_4 H 0.4496 0.3822 0.6988
C26_4 C 0.5572(4) 0.4086(4) 0.72733(10)
H18_4 H 0.5167 0.4407 0.7407
C27_4 C 0.6549(4) 0.3984(4) 0.73303(9)
C28_4 C 0.7142(4) 0.3519(5) 0.71243(9)
H19_4 H 0.7822 0.3453 0.7152
C29_4 C 0.6694(4) 0.3162(4) 0.68790(9)
H20_4 H 0.7090 0.2848 0.6742
C30_4 C 0.6958(4) 0.4352(5) 0.75968(10)
C31_4 C 0.6960(5) 0.5092(5) 0.80016(11)
C32_4 C 0.6505(5) 0.5637(4) 0.82408(9)
C33_4 C 0.5519(5) 0.5802(4) 0.82489(9)
H21_4 H 0.5119 0.5572 0.8099
C34_4 C 0.5097(4) 0.6309(4) 0.84778(9)
H22_4 H 0.4412 0.6391 0.8484
C35_4 C 0.6629(5) 0.6510(4) 0.86821(10)
H23_4 H 0.7020 0.6732 0.8835
C36_4 C 0.7079(4) 0.6023(5) 0.84613(10)
H24_4 H 0.7765 0.5950 0.8458
N16_2 N 0.4342(3) 0.8313(3) 0.86923(7)
C43_4 C 0.3040(5) 0.9908(5) 0.80016(11)
C44_4 C 0.3495(5) 0.9363(4) 0.82408(9)
C45_4 C 0.4481(5) 0.9198(4) 0.82489(9)
H29_4 H 0.4881 0.9428 0.8099
C46_4 C 0.4903(4) 0.8691(4) 0.84778(9)
H30_4 H 0.5588 0.8609 0.8484
C47_4 C 0.3371(5) 0.8490(4) 0.86821(10)
H31_4 H 0.2980 0.8268 0.8835
C48_4 C 0.2921(4) 0.8977(5) 0.84613(10)
H32_4 H 0.2235 0.9050 0.8458
O7_4 O 0.3814(3) 0.3888(3) 0.64791(7)
O8_4 O 0.6186(3) 0.1112(3) 0.64791(7)
N18_3 N 0.4187(3) 0.1842(3) 0.61923(7)
N19_3 N 0.5813(3) 0.3158(3) 0.61923(7)
Cu2_2 Cu -0.0000 0.2500 0.400477(14)
O8_5 O 0.1388(3) 0.3686(3) 0.39791(7)
N17_3 N 0.0736(3) 0.1780(3) 0.43254(7)
N18_4 N 0.0658(3) 0.1687(3) 0.36923(7)
O5_5 O 0.7631(3) 0.3856(2) 0.52724(6)
N9_5 N 0.9264(3) 0.3220(3) 0.43254(7)
N10_5 N 0.8266(6) 0.5327(4) 0.52085(11)
N11_5 N 0.7768(6) 0.5297(5) 0.54725(12)
C25_5 C 0.8774(5) 0.2669(4) 0.45229(10)
H17_5 H 0.8678 0.1996 0.4488
C26_5 C 0.8414(4) 0.3072(4) 0.47733(10)
H18_5 H 0.8093 0.2667 0.4907
C27_5 C 0.8516(4) 0.4049(4) 0.48303(9)
C28_5 C 0.8981(5) 0.4642(4) 0.46243(9)
H19_5 H 0.9047 0.5322 0.4652
C29_5 C 0.9338(4) 0.4194(4) 0.43790(9)
H20_5 H 0.9652 0.4590 0.4242
C30_5 C 0.8148(5) 0.4458(4) 0.50968(10)
C31_5 C 0.7408(5) 0.4460(5) 0.55016(11)
C32_5 C 0.6863(4) 0.4005(5) 0.57408(9)
C33_5 C 0.6698(4) 0.3019(5) 0.57489(9)
H21_5 H 0.6928 0.2619 0.5599
C34_5 C 0.6191(4) 0.2597(4) 0.59778(9)
H22_5 H 0.6109 0.1912 0.5984
C35_5 C 0.5990(4) 0.4129(5) 0.61821(10)
H23_5 H 0.5768 0.4520 0.6335
C36_5 C 0.6477(5) 0.4579(4) 0.59613(10)
H24_5 H 0.6550 0.5265 0.5958
O6_5 O 0.2369(3) 0.1144(2) 0.52724(6)
C37_5 C 0.1226(5) 0.2331(4) 0.45229(10)
H25_5 H 0.1322 0.3004 0.4488
C38_5 C 0.1586(4) 0.1928(4) 0.47733(10)
H26_5 H 0.1907 0.2333 0.4907
C39_5 C 0.1484(4) 0.0951(4) 0.48303(9)
C40_5 C 0.1019(5) 0.0358(4) 0.46243(9)
C41_5 C 0.0662(4) 0.0806(4) 0.43790(9)
H28_5 H 0.0348 0.0410 0.4242
C42_5 C 0.1852(5) 0.0542(4) 0.50968(10)
C43_5 C 0.2592(5) 0.0540(5) 0.55016(11)
C44_5 C 0.3137(4) 0.0995(5) 0.57408(9)
C45_5 C 0.3302(4) 0.1981(5) 0.57489(9)
H29_5 H 0.3072 0.2381 0.5599
C46_5 C 0.3809(4) 0.2403(4) 0.59778(9)
H30_5 H 0.3891 0.3088 0.5984
C47_5 C 0.4010(4) 0.0871(5) 0.61821(10)
H31_5 H 0.4232 0.0480 0.6335
C48_5 C 0.3523(5) 0.0421(4) 0.59613(10)
Cu2_3 Cu 1.0000 0.2500 0.400477(14)
O7_5 O 0.8612(3) 0.1314(3) 0.39791(7)
N19_4 N 0.9342(3) 0.3313(3) 0.36923(7)
N14_5 N 0.1734(6) 0.9673(4) 0.52085(11)
N15_5 N 0.2232(6) 0.9703(5) 0.54725(12)
H27_5 H 0.0953 0.9678 0.4652
H32_5 H 0.3450 0.9735 0.5958
C31_6 C 0.1960(5) 0.0092(5) 0.30016(11)
C32_6 C 0.1505(5) 0.0637(4) 0.32408(9)
C33_6 C 0.0519(5) 0.0802(4) 0.32489(9)
H21_6 H 0.0119 0.0572 0.3099
C34_6 C 0.0097(4) 0.1309(4) 0.34778(9)
C35_6 C 0.1629(5) 0.1510(4) 0.36821(10)
H23_6 H 0.2020 0.1732 0.3835
C36_6 C 0.2079(4) 0.1023(5) 0.34613(10)
H24_6 H 0.2765 0.0950 0.3458
H25_6 H 0.0504 0.6178 0.1988
H30_6 H 0.0588 0.3609 0.3484
O5_6 O 0.1356(2) 0.9869(3) 0.27724(6)
N9_6 N 0.0720(3) 0.8236(3) 0.18254(7)
N10_6 N 0.2827(4) 0.9234(6) 0.27085(11)
N11_6 N 0.2797(5) 0.9732(6) 0.29725(12)
C25_6 C 0.0169(4) 0.8726(5) 0.20229(10)
C26_6 C 0.0572(4) 0.9086(4) 0.22733(10)
H18_6 H 0.0167 0.9407 0.2407
C27_6 C 0.1549(4) 0.8984(4) 0.23303(9)
C28_6 C 0.2142(4) 0.8519(5) 0.21243(9)
H19_6 H 0.2822 0.8453 0.2152
C29_6 C 0.1694(4) 0.8162(4) 0.18790(9)
H20_6 H 0.2090 0.7848 0.1742
C30_6 C 0.1958(4) 0.9352(5) 0.25968(10)
O8_6 O 0.1186(3) 0.6112(3) 0.14791(7)
H22_6 H 0.9412 0.1391 0.3484
O6_6 O 0.8644(2) 0.5131(3) 0.27724(6)
N13_3 N 0.9280(3) 0.6764(3) 0.18254(7)
N14_6 N 0.7173(4) 0.5766(6) 0.27085(11)
N15_6 N 0.7203(5) 0.5268(6) 0.29725(12)
C37_6 C 0.9831(4) 0.6274(5) 0.20229(10)
C38_6 C 0.9428(4) 0.5914(4) 0.22733(10)
H26_6 H 0.9833 0.5593 0.2407
C39_6 C 0.8451(4) 0.6016(4) 0.23303(9)
C40_6 C 0.7858(4) 0.6481(5) 0.21243(9)
H27_6 H 0.7178 0.6547 0.2152
C41_6 C 0.8306(4) 0.6838(4) 0.18790(9)
H28_6 H 0.7910 0.7152 0.1742
C42_6 C 0.8042(4) 0.5648(5) 0.25968(10)
C43_6 C 0.8040(5) 0.4908(5) 0.30016(11)
C44_6 C 0.8495(5) 0.4363(4) 0.32408(9)
C45_6 C 0.9481(5) 0.4198(4) 0.32489(9)
H29_6 H 0.9881 0.4428 0.3099
C46_6 C 0.9903(4) 0.3691(4) 0.34778(9)
C47_6 C 0.8371(5) 0.3490(4) 0.36821(10)
H31_6 H 0.7980 0.3268 0.3835
C48_6 C 0.7921(4) 0.3977(5) 0.34613(10)
H32_6 H 0.7235 0.4050 0.3458
H17_6 H 0.9496 0.8822 0.1988
O7_6 O 0.8814(3) 0.8888(3) 0.14791(7)
Cl1 Cl 0.5000 0.2500 0.94056(8)
O9 O 0.5436(11) 0.1583(13) 0.9371(3)
O10 O 0.592(2) 0.284(2) 0.9307(5)
O11 O 0.4564(11) 0.3417(13) 0.9371(3)
O12 O 0.408(2) 0.216(2) 0.9307(5)
Cl1_2 Cl 0.5000 0.7500 0.19056(8)
O9_2 O 0.5917(13) 0.7936(11) 0.1871(3)
O10_2 O 0.466(2) 0.842(2) 0.1807(5)
O11_2 O 0.4083(13) 0.7064(11) 0.1871(3)
O12_2 O 0.534(2) 0.658(2) 0.1807(5)
Cl1_3 Cl -0.0000 0.7500 0.44056(8)
O9_3 O 0.0436(11) 0.6583(13) 0.4371(3)
O10_3 O 0.092(2) 0.784(2) 0.4307(5)
Cl1_4 Cl 1.0000 0.7500 0.44056(8)
O11_3 O 0.9564(11) 0.8417(13) 0.4371(3)
O12_3 O 0.908(2) 0.716(2) 0.4307(5)
Cl1_5 Cl 0.0000 0.2500 0.69056(8)
O9_4 O 0.0917(13) 0.2936(11) 0.6871(3)
O12_4 O 0.034(2) 0.158(2) 0.6807(5)
Cl1_6 Cl 1.0000 0.2500 0.69056(8)
O10_4 O 0.966(2) 0.342(2) 0.6807(5)
O11_4 O 0.9083(13) 0.2064(11) 0.6871(3)
Cl1_7 Cl 0.5000 0.7500 0.05944(8)
O9_5 O 0.4564(11) 0.8417(13) 0.0629(3)
O10_5 O 0.408(2) 0.716(2) 0.0693(5)
O11_5 O 0.5436(11) 0.6583(13) 0.0629(3)
O12_5 O 0.592(2) 0.784(2) 0.0693(5)
Cl1_8 Cl 0.5000 0.2500 0.80944(8)
O9_6 O 0.4083(13) 0.2064(11) 0.8129(3)
O10_6 O 0.534(2) 0.158(2) 0.8193(5)
O11_6 O 0.5917(13) 0.2936(11) 0.8129(3)
O12_6 O 0.466(2) 0.342(2) 0.8193(5)
Cl1_9 Cl 0.0000 0.2500 0.55944(8)
O11_7 O 0.0436(11) 0.1583(13) 0.5629(3)
O12_7 O 0.092(2) 0.284(2) 0.5693(5)
Cl1_10 Cl 1.0000 0.2500 0.55944(8)
O9_7 O 0.9564(11) 0.3417(13) 0.5629(3)
O10_7 O 0.908(2) 0.216(2) 0.5693(5)
Cl1_11 Cl -0.0000 0.7500 0.30944(8)
O10_8 O 0.034(2) 0.658(2) 0.3193(5)
O11_8 O 0.0917(13) 0.7936(11) 0.3129(3)
Cl1_12 Cl 1.0000 0.7500 0.30944(8)
O9_8 O 0.9083(13) 0.7064(11) 0.3129(3)
O12_8 O 0.966(2) 0.842(2) 0.3193(5)
O13 O 0.4100(9) 0.9348(8) 0.1166(2)
H41 H 0.483681 0.9348 0.1166
O13_2 O 0.8152(8) 0.6600(9) 0.3666(2)
H41_2 H 0.8152 0.733681 0.3666
O13_3 O 0.9100(9) 0.4348(8) 0.6166(2)
H41_3 H 0.983681 0.4348 0.6166
O13_4 O 0.3152(8) 0.1600(9) 0.8666(2)
H41_4 H 0.3152 0.233681 0.8666
O13_5 O 0.1848(8) 0.8400(9) 0.3666(2)
H41_5 H 0.1848 0.766319 0.3666
O13_6 O 0.0900(9) 0.0652(8) 0.6166(2)
H41_6 H 0.0163189 0.0652 0.6166
O13_7 O 0.6848(8) 0.3400(9) 0.8666(2)
H41_7 H 0.6848 0.266319 0.8666
O13_8 O 0.5900(9) 0.5652(8) 0.1166(2)
H41_8 H 0.516319 0.5652 0.1166
O13_9 O 0.5900(9) 0.0652(8) 0.8834(2)
H41_9 H 0.516319 0.0652 0.8834
O13_10 O 0.1848(8) 0.3400(9) 0.6334(2)
H41_10 H 0.1848 0.266319 0.6334
O13_11 O 0.0900(9) 0.5652(8) 0.3834(2)
H41_11 H 0.0163189 0.5652 0.3834
O13_12 O 0.6848(8) 0.8400(9) 0.1334(2)
H41_12 H 0.6848 0.766319 0.1334
O13_13 O 0.8152(8) 0.1600(9) 0.6334(2)
H41_13 H 0.8152 0.233681 0.6334
O13_14 O 0.9100(9) 0.9348(8) 0.3834(2)
H41_14 H 0.983681 0.9348 0.3834
O13_15 O 0.3152(8) 0.6600(9) 0.1334(2)
H41_15 H 0.3152 0.733681 0.1334
O13_16 O 0.4100(9) 0.4348(8) 0.8834(2)
H41_16 H 0.483681 0.4348 0.8834
O14 O -0.0000 0.7500 0.8750
O14_2 O 1.0000 0.7500 0.8750
O14_3 O 0.0000 0.2500 0.1250
O14_4 O 1.0000 0.2500 0.1250
O14_5 O 0.5000 0.2500 0.3750
O14_6 O 0.5000 0.7500 0.6250
O15 O 0.1745(13) 0.7150(13) 0.9145(4)
H43 H 0.248181 0.715 0.9145
O15_2 O 0.0350(13) 0.4245(13) 0.1645(4)
H43_2 H 0.035 0.498181 0.1645
O15_3 O 0.6745(13) 0.2150(13) 0.4145(4)
H43_3 H 0.748181 0.215 0.4145
O15_4 O 0.5350(13) 0.9245(13) 0.6645(4)
H43_4 H 0.535 0.998181 0.6645
O15_5 O 0.9650(13) 0.0755(13) 0.1645(4)
H43_5 H 0.965 0.00181891 0.1645
O15_6 O 0.3255(13) 0.2850(13) 0.4145(4)
H43_6 H 0.251819 0.285 0.4145
O15_7 O 0.4650(13) 0.5755(13) 0.6645(4)
H43_7 H 0.465 0.501819 0.6645
O15_8 O 0.8255(13) 0.7850(13) 0.9145(4)
H43_8 H 0.751819 0.785 0.9145
O15_9 O 0.8255(13) 0.2850(13) 0.0855(4)
H43_9 H 0.751819 0.285 0.0855
O15_10 O 0.9650(13) 0.5755(13) 0.8355(4)
H43_10 H 0.965 0.501819 0.8355
O15_11 O 0.3255(13) 0.7850(13) 0.5855(4)
H43_11 H 0.251819 0.785 0.5855
O15_12 O 0.4650(13) 0.0755(13) 0.3355(4)
H43_12 H 0.465 0.00181891 0.3355
O15_13 O 0.0350(13) 0.9245(13) 0.8355(4)
H43_13 H 0.035 0.998181 0.8355
O15_14 O 0.6745(13) 0.7150(13) 0.5855(4)
H43_14 H 0.748181 0.715 0.5855
O15_15 O 0.5350(13) 0.4245(13) 0.3355(4)
H43_15 H 0.535 0.498181 0.3355
O15_16 O 0.1745(13) 0.2150(13) 0.0855(4)
H43_16 H 0.248181 0.215 0.0855
loop_
_geom_bond_atom_site_label_1
_geom_bond_atom_site_label_2
_geom_bond_site_symmetry_1
_geom_bond_site_symmetry_2
Cu1 O2 1_555 1_555
N1 Cu1 1_555 1_555
C1 N1 1_555 1_555
H1 C1 1_555 1_555
C2 C1 1_555 1_555
H2 C2 1_555 1_555
C3 C2 1_555 1_555
C4 C3 1_555 1_555
H3 C4 1_555 1_555
C5 N1 1_555 1_555
H4 C5 1_555 1_555
O3 Cu1 1_555 1_555
N5 Cu1 1_555 1_555
C13 N5 1_555 1_555
H9 C13 1_555 1_555
C14 C13 1_555 1_555
H10 C14 1_555 1_555
C15 C14 1_555 1_555
C16 C15 1_555 1_555
C17 N5 1_555 1_555
H12 C17 1_555 1_555
O5 C30 1_555 1_555
N9 C25 1_555 1_555
N10 N11 1_555 1_555
N11 C31 1_555 1_555
N12 Cu1 1_555 1_555
C25 H17 1_555 1_555
C26 C25 1_555 1_555
H18 C26 1_555 1_555
C27 C26 1_555 1_555
C28 C27 1_555 1_555
H19 C28 1_555 1_555
C29 N9 1_555 1_555
H20 C29 1_555 1_555
C30 N10 1_555 1_555
C31 O5 1_555 1_555
C32 C31 1_555 1_555
C33 C32 1_555 1_555
H21 C33 1_555 1_555
C34 N12 1_555 1_555
H22 C34 1_555 1_555
C35 N12 1_555 1_555
H23 C35 1_555 1_555
C36 C32 1_555 1_555
H24 C36 1_555 1_555
N16 Cu1 1_555 1_555
C44 C43 1_555 1_555
C45 C44 1_555 1_555
H29 C45 1_555 1_555
C46 N16 1_555 1_555
H30 C46 1_555 1_555
C47 N16 1_555 1_555
H31 C47 1_555 1_555
C48 C44 1_555 1_555
H32 C48 1_555 1_555
Cu2 N9 1_555 1_555
O7 Cu2 1_555 1_555
O8 Cu2 1_555 1_555
N17 Cu2 1_555 1_555
N18 Cu2 1_555 1_555
N19 Cu2 1_555 1_555
C4 C5 1_555 1_555
C16 C17 1_555 1_555
C27 C30 1_555 1_555
C28 C29 1_555 1_555
C33 C34 1_555 1_555
C35 C36 1_555 1_555
C45 C46 1_555 1_555
C47 C48 1_555 1_555
O1 C6 1_555 1_555
N2 N3 1_555 1_555
N3 C7 1_555 1_555
N4 C10 1_555 1_555
C6 N2 1_555 1_555
C7 O1 1_555 1_555
C8 C7 1_555 1_555
C9 C8 1_555 1_555
H5 C9 1_555 1_555
C10 C9 1_555 1_555
H6 C10 1_555 1_555
C11 N4 1_555 1_555
H7 C11 1_555 1_555
C12 C8 1_555 1_555
H8 C12 1_555 1_555
O4 C18 1_555 1_555
N8 C22 1_555 1_555
C19 O4 1_555 1_555
C20 C19 1_555 1_555
C21 C20 1_555 1_555
H13 C21 1_555 1_555
C22 C21 1_555 1_555
H14 C22 1_555 1_555
C23 N8 1_555 1_555
H15 C23 1_555 1_555
C24 C20 1_555 1_555
Cu4 N4 1_555 1_555
Cu4_2 N8 1_555 1_555
C11 C12 1_555 1_555
C23 C24 1_555 1_555
O6 C42 1_555 1_555
N17 C37 1_555 1_555
N14 N15 1_555 1_555
C37 H25 1_555 1_555
C38 C37 1_555 1_555
H26 C38 1_555 1_555
C39 C38 1_555 1_555
C40 C39 1_555 1_555
H27 C40 1_555 1_555
C41 N17 1_555 1_555
H28 C41 1_555 1_555
C42 N14 1_555 1_555
C39 C42 1_555 1_555
C40 C41 1_555 1_555
N6 N7 1_555 1_555
N14_2 N15_2 1_555 1_555
O5_2 C30_2 1_555 1_555
N9_2 C25_2 1_555 1_555
N10_2 N11_2 1_555 1_555
N11_2 C31_2 1_555 1_555
C25_2 H17_2 1_555 1_555
C26_2 C25_2 1_555 1_555
H18_2 C26_2 1_555 1_555
C27_2 C26_2 1_555 1_555
C28_2 C27_2 1_555 1_555
H19_2 C28_2 1_555 1_555
C29_2 N9_2 1_555 1_555
H20_2 C29_2 1_555 1_555
C30_2 N10_2 1_555 1_555
C31_2 O5_2 1_555 1_555
C32_2 C31_2 1_555 1_555
C33_2 C32_2 1_555 1_555
H21_2 C33_2 1_555 1_555
C34_2 N19 1_555 1_555
H22_2 C34_2 1_555 1_555
C35_2 N19 1_555 1_555
H23_2 C35_2 1_555 1_555
C36_2 C32_2 1_555 1_555
H24_2 C36_2 1_555 1_555
O6_2 C42_2 1_555 1_555
N13 C37_2 1_555 1_555
C37_2 H25_2 1_555 1_555
C38_2 C37_2 1_555 1_555
H26_2 C38_2 1_555 1_555
C39_2 C38_2 1_555 1_555
C40_2 C39_2 1_555 1_555
C41_2 N13 1_555 1_555
H28_2 C41_2 1_555 1_555
C43_2 O6_2 1_555 1_555
C44_2 C43_2 1_555 1_555
C45_2 C44_2 1_555 1_555
H29_2 C45_2 1_555 1_555
C46_2 N18 1_555 1_555
H30_2 C46_2 1_555 1_555
C47_2 N18 1_555 1_555
H31_2 C47_2 1_555 1_555
C48_2 C44_2 1_555 1_555
Cu5 N9_2 1_555 1_555
O7_2 Cu5 1_555 1_555
Cu5_2 N13 1_555 1_555
N19_2 Cu5 1_555 1_555
C27_2 C30_2 1_555 1_555
C28_2 C29_2 1_555 1_555
C33_2 C34_2 1_555 1_555
C35_2 C36_2 1_555 1_555
C39_2 C42_2 1_555 1_555
C40_2 C41_2 1_555 1_555
C45_2 C46_2 1_555 1_555
C47_2 C48_2 1_555 1_555
O8_2 Cu5_2 1_555 1_555
N18_2 Cu5_2 1_555 1_555
O7_3 Cu4 1_555 1_555
N17_2 Cu4 1_555 1_555
O6_3 C42_3 1_555 1_555
N17_2 C37_3 1_555 1_555
N14_3 N15_3 1_555 1_555
N15_3 C43_3 1_555 1_555
C38_3 C37_3 1_555 1_555
H26_3 C38_3 1_555 1_555
C39_3 C38_3 1_555 1_555
C40_3 C39_3 1_555 1_555
H27_3 C40_3 1_555 1_555
C41_3 N17_2 1_555 1_555
H28_3 C41_3 1_555 1_555
C42_3 N14_3 1_555 1_555
C43_3 O6_3 1_555 1_555
C44_3 C43_3 1_555 1_555
C45_3 C44_3 1_555 1_555
H29_3 C45_3 1_555 1_555
C46_3 N19_2 1_555 1_555
C47_3 N19_2 1_555 1_555
H31_3 C47_3 1_555 1_555
C48_3 C44_3 1_555 1_555
H32_3 C48_3 1_555 1_555
C39_3 C42_3 1_555 1_555
C40_3 C41_3 1_555 1_555
C45_3 C46_3 1_555 1_555
C47_3 C48_3 1_555 1_555
O5_3 C30_3 1_555 1_555
N9_3 C25_3 1_555 1_555
N10_3 N11_3 1_555 1_555
C26_3 C25_3 1_555 1_555
H18_3 C26_3 1_555 1_555
C27_3 C26_3 1_555 1_555
C28_3 C27_3 1_555 1_555
H19_3 C28_3 1_555 1_555
C29_3 N9_3 1_555 1_555
H20_3 C29_3 1_555 1_555
C30_3 N10_3 1_555 1_555
Cu4_2 N9_3 1_555 1_555
O8_3 Cu4_2 1_555 1_555
C27_3 C30_3 1_555 1_555
C28_3 C29_3 1_555 1_555
C32_3 C31_3 1_555 1_555
C33_3 C32_3 1_555 1_555
H21_3 C33_3 1_555 1_555
C34_3 N18_2 1_555 1_555
C35_3 N18_2 1_555 1_555
H23_3 C35_3 1_555 1_555
C36_3 C32_3 1_555 1_555
H24_3 C36_3 1_555 1_555
C33_3 C34_3 1_555 1_555
C35_3 C36_3 1_555 1_555
N6_2 N7_2 1_555 1_555
O6_4 C42_4 1_555 1_555
N13_2 C37_4 1_555 1_555
N14_4 N15_4 1_555 1_555
C37_4 H25_4 1_555 1_555
C38_4 C37_4 1_555 1_555
H26_4 C38_4 1_555 1_555
C39_4 C38_4 1_555 1_555
C40_4 C39_4 1_555 1_555
H27_4 C40_4 1_555 1_555
C41_4 N13_2 1_555 1_555
H28_4 C41_4 1_555 1_555
C42_4 N14_4 1_555 1_555
Cu5_3 N13_2 1_555 1_555
C39_4 C42_4 1_555 1_555
C40_4 C41_4 1_555 1_555
O1_2 C6_2 1_555 1_555
N2_2 N3_2 1_555 1_555
N3_2 C7_2 1_555 1_555
N4_2 C10_2 1_555 1_555
C6_2 N2_2 1_555 1_555
C7_2 O1_2 1_555 1_555
C8_2 C7_2 1_555 1_555
C9_2 C8_2 1_555 1_555
H5_2 C9_2 1_555 1_555
C10_2 C9_2 1_555 1_555
H6_2 C10_2 1_555 1_555
C11_2 N4_2 1_555 1_555
H7_2 C11_2 1_555 1_555
C12_2 C8_2 1_555 1_555
H8_2 C12_2 1_555 1_555
O4_2 C18_2 1_555 1_555
N8_2 C22_2 1_555 1_555
C19_2 O4_2 1_555 1_555
C20_2 C19_2 1_555 1_555
C21_2 C20_2 1_555 1_555
H13_2 C21_2 1_555 1_555
C22_2 C21_2 1_555 1_555
H14_2 C22_2 1_555 1_555
C23_2 N8_2 1_555 1_555
H15_2 C23_2 1_555 1_555
C24_2 C20_2 1_555 1_555
Cu3_2 N4_2 1_555 1_555
Cu3 N8_2 1_555 1_555
C11_2 C12_2 1_555 1_555
C23_2 C24_2 1_555 1_555
Cu1_2 O2_2 1_555 1_555
N1_2 Cu1_2 1_555 1_555
C1_2 N1_2 1_555 1_555
H1_2 C1_2 1_555 1_555
C2_2 C1_2 1_555 1_555
H2_2 C2_2 1_555 1_555
C3_2 C2_2 1_555 1_555
C4_2 C3_2 1_555 1_555
H3_2 C4_2 1_555 1_555
C5_2 N1_2 1_555 1_555
H4_2 C5_2 1_555 1_555
O3_2 Cu1_2 1_555 1_555
N5_2 Cu1_2 1_555 1_555
C13_2 N5_2 1_555 1_555
H9_2 C13_2 1_555 1_555
C14_2 C13_2 1_555 1_555
H10_2 C14_2 1_555 1_555
C15_2 C14_2 1_555 1_555
C16_2 C15_2 1_555 1_555
C17_2 N5_2 1_555 1_555
H12_2 C17_2 1_555 1_555
O5_4 C30_4 1_555 1_555
N9_4 C25_4 1_555 1_555
N10_4 N11_4 1_555 1_555
N11_4 C31_4 1_555 1_555
N12_2 Cu1_2 1_555 1_555
C25_4 H17_4 1_555 1_555
C26_4 C25_4 1_555 1_555
H18_4 C26_4 1_555 1_555
C27_4 C26_4 1_555 1_555
C28_4 C27_4 1_555 1_555
H19_4 C28_4 1_555 1_555
C29_4 N9_4 1_555 1_555
H20_4 C29_4 1_555 1_555
C30_4 N10_4 1_555 1_555
C31_4 O5_4 1_555 1_555
C32_4 C31_4 1_555 1_555
C33_4 C32_4 1_555 1_555
H21_4 C33_4 1_555 1_555
C34_4 N12_2 1_555 1_555
H22_4 C34_4 1_555 1_555
C35_4 N12_2 1_555 1_555
H23_4 C35_4 1_555 1_555
C36_4 C32_4 1_555 1_555
H24_4 C36_4 1_555 1_555
N16_2 Cu1_2 1_555 1_555
C44_4 C43_4 1_555 1_555
C45_4 C44_4 1_555 1_555
H29_4 C45_4 1_555 1_555
C46_4 N16_2 1_555 1_555
H30_4 C46_4 1_555 1_555
C47_4 N16_2 1_555 1_555
H31_4 C47_4 1_555 1_555
C48_4 C44_4 1_555 1_555
H32_4 C48_4 1_555 1_555
Cu5_3 N9_4 1_555 1_555
O7_4 Cu5_3 1_555 1_555
O8_4 Cu5_3 1_555 1_555
N18_3 Cu5_3 1_555 1_555
N19_3 Cu5_3 1_555 1_555
C4_2 C5_2 1_555 1_555
C16_2 C17_2 1_555 1_555
C27_4 C30_4 1_555 1_555
C28_4 C29_4 1_555 1_555
C33_4 C34_4 1_555 1_555
C35_4 C36_4 1_555 1_555
C45_4 C46_4 1_555 1_555
C47_4 C48_4 1_555 1_555
O8_5 Cu2_2 1_555 1_555
N17_3 Cu2_2 1_555 1_555
N18_4 Cu2_2 1_555 1_555
O5_5 C30_5 1_555 1_555
N9_5 C25_5 1_555 1_555
N10_5 N11_5 1_555 1_555
N11_5 C31_5 1_555 1_555
C25_5 H17_5 1_555 1_555
C26_5 C25_5 1_555 1_555
H18_5 C26_5 1_555 1_555
C27_5 C26_5 1_555 1_555
C28_5 C27_5 1_555 1_555
H19_5 C28_5 1_555 1_555
C29_5 N9_5 1_555 1_555
H20_5 C29_5 1_555 1_555
C30_5 N10_5 1_555 1_555
C31_5 O5_5 1_555 1_555
C32_5 C31_5 1_555 1_555
C33_5 C32_5 1_555 1_555
H21_5 C33_5 1_555 1_555
C34_5 N19_3 1_555 1_555
H22_5 C34_5 1_555 1_555
C35_5 N19_3 1_555 1_555
H23_5 C35_5 1_555 1_555
C36_5 C32_5 1_555 1_555
H24_5 C36_5 1_555 1_555
O6_5 C42_5 1_555 1_555
N17_3 C37_5 1_555 1_555
C37_5 H25_5 1_555 1_555
C38_5 C37_5 1_555 1_555
H26_5 C38_5 1_555 1_555
C39_5 C38_5 1_555 1_555
C40_5 C39_5 1_555 1_555
C41_5 N17_3 1_555 1_555
H28_5 C41_5 1_555 1_555
C43_5 O6_5 1_555 1_555
C44_5 C43_5 1_555 1_555
C45_5 C44_5 1_555 1_555
H29_5 C45_5 1_555 1_555
C46_5 N18_3 1_555 1_555
H30_5 C46_5 1_555 1_555
C47_5 N18_3 1_555 1_555
H31_5 C47_5 1_555 1_555
C48_5 C44_5 1_555 1_555
Cu2_3 N9_5 1_555 1_555
O7_5 Cu2_3 1_555 1_555
N19_4 Cu2_3 1_555 1_555
C27_5 C30_5 1_555 1_555
C28_5 C29_5 1_555 1_555
C33_5 C34_5 1_555 1_555
C35_5 C36_5 1_555 1_555
C39_5 C42_5 1_555 1_555
C40_5 C41_5 1_555 1_555
C45_5 C46_5 1_555 1_555
C47_5 C48_5 1_555 1_555
N14_5 N15_5 1_555 1_555
C32_6 C31_6 1_555 1_555
C33_6 C32_6 1_555 1_555
H21_6 C33_6 1_555 1_555
C34_6 N18_4 1_555 1_555
C35_6 N18_4 1_555 1_555
H23_6 C35_6 1_555 1_555
C36_6 C32_6 1_555 1_555
H24_6 C36_6 1_555 1_555
C33_6 C34_6 1_555 1_555
C35_6 C36_6 1_555 1_555
O5_6 C30_6 1_555 1_555
N9_6 C25_6 1_555 1_555
N10_6 N11_6 1_555 1_555
C26_6 C25_6 1_555 1_555
H18_6 C26_6 1_555 1_555
C27_6 C26_6 1_555 1_555
C28_6 C27_6 1_555 1_555
H19_6 C28_6 1_555 1_555
C29_6 N9_6 1_555 1_555
H20_6 C29_6 1_555 1_555
C30_6 N10_6 1_555 1_555
Cu3 N9_6 1_555 1_555
O8_6 Cu3 1_555 1_555
C27_6 C30_6 1_555 1_555
C28_6 C29_6 1_555 1_555
O6_6 C42_6 1_555 1_555
N13_3 C37_6 1_555 1_555
N14_6 N15_6 1_555 1_555
N15_6 C43_6 1_555 1_555
C38_6 C37_6 1_555 1_555
H26_6 C38_6 1_555 1_555
C39_6 C38_6 1_555 1_555
C40_6 C39_6 1_555 1_555
H27_6 C40_6 1_555 1_555
C41_6 N13_3 1_555 1_555
H28_6 C41_6 1_555 1_555
C42_6 N14_6 1_555 1_555
C43_6 O6_6 1_555 1_555
C44_6 C43_6 1_555 1_555
C45_6 C44_6 1_555 1_555
H29_6 C45_6 1_555 1_555
C46_6 N19_4 1_555 1_555
C47_6 N19_4 1_555 1_555
H31_6 C47_6 1_555 1_555
C48_6 C44_6 1_555 1_555
H32_6 C48_6 1_555 1_555
Cu3_2 N13_3 1_555 1_555
C39_6 C42_6 1_555 1_555
C40_6 C41_6 1_555 1_555
C45_6 C46_6 1_555 1_555
C47_6 C48_6 1_555 1_555
O7_6 Cu3_2 1_555 1_555
Cl1 O9 1_555 1_555
O10 Cl1 1_555 1_555
O11 Cl1 1_555 1_555
O12 Cl1 1_555 1_555
Cl1_2 O9_2 1_555 1_555
O10_2 Cl1_2 1_555 1_555
O11_2 Cl1_2 1_555 1_555
O12_2 Cl1_2 1_555 1_555
Cl1_3 O9_3 1_555 1_555
O10_3 Cl1_3 1_555 1_555
O11_3 Cl1_4 1_555 1_555
O12_3 Cl1_4 1_555 1_555
Cl1_5 O9_4 1_555 1_555
O12_4 Cl1_5 1_555 1_555
O10_4 Cl1_6 1_555 1_555
O11_4 Cl1_6 1_555 1_555
Cl1_7 O9_5 1_555 1_555
O10_5 Cl1_7 1_555 1_555
O11_5 Cl1_7 1_555 1_555
O12_5 Cl1_7 1_555 1_555
Cl1_8 O9_6 1_555 1_555
O10_6 Cl1_8 1_555 1_555
O11_6 Cl1_8 1_555 1_555
O12_6 Cl1_8 1_555 1_555
O11_7 Cl1_9 1_555 1_555
O12_7 Cl1_9 1_555 1_555
Cl1_10 O9_7 1_555 1_555
O10_7 Cl1_10 1_555 1_555
O10_8 Cl1_11 1_555 1_555
O11_8 Cl1_11 1_555 1_555
Cl1_12 O9_8 1_555 1_555
O12_8 Cl1_12 1_555 1_555
O13 H41 1_555 1_555
O13_2 H41_2 1_555 1_555
O13_3 H41_3 1_555 1_555
O13_4 H41_4 1_555 1_555
O13_5 H41_5 1_555 1_555
O13_6 H41_6 1_555 1_555
O13_7 H41_7 1_555 1_555
O13_8 H41_8 1_555 1_555
O13_9 H41_9 1_555 1_555
O13_10 H41_10 1_555 1_555
O13_11 H41_11 1_555 1_555
O13_12 H41_12 1_555 1_555
O13_13 H41_13 1_555 1_555
O13_14 H41_14 1_555 1_555
O13_15 H41_15 1_555 1_555
O13_16 H41_16 1_555 1_555
O15 H43 1_555 1_555
O15_2 H43_2 1_555 1_555
O15_3 H43_3 1_555 1_555
O15_4 H43_4 1_555 1_555
O15_5 H43_5 1_555 1_555
O15_6 H43_6 1_555 1_555
O15_7 H43_7 1_555 1_555
O15_8 H43_8 1_555 1_555
O15_9 H43_9 1_555 1_555
O15_10 H43_10 1_555 1_555
O15_11 H43_11 1_555 1_555
O15_12 H43_12 1_555 1_555
O15_13 H43_13 1_555 1_555
O15_14 H43_14 1_555 1_555
O15_15 H43_15 1_555 1_555
O15_16 H43_16 1_555 1_555

#END
