
###############################################################################
#
# This file contains modified crystal structure data generated from the
# MOF subset of the Cambridge Structural Database (CSD) v543 
# hosted by the Cambridge Crystallographic Data Centre (CCDC).
#
# This work is licensed under the Creative Commons
# Attribution-NonCommercial-ShareAlike 4.0 International License.
# To view a copy of this license, visit
# http://creativecommons.org/licenses/by-nc-sa/4.0/
# or send a letter to
# Creative Commons, PO Box 1866, Mountain View, CA 94042, USA.
#
# CIF created using the CSD Python API on 29 September 2022
# The structure has been converted into the P1 space group
# The structure has a 3D framework
# The original CSD entry UGUHAG is in the monoclinic crystal system
# The framework has been calculated to contain at least 10.0% void space
# The void calculation uses a probe of radius 1.32A, grid spacing 0.4
#
###############################################################################

data_UGUHAG
_chemical_formula_moiety         '(C48 H48 Lu8 N11 O72)n'
_symmetry_cell_setting           triclinic
_symmetry_space_group_name_H-M   'P 1'
_symmetry_Int_Tables_number      1
_space_group_name_Hall           'P 1'
loop_
_symmetry_equiv_pos_site_id
_symmetry_equiv_pos_as_xyz
1 x,y,z
_cell_length_a                   9.1432(18)
_cell_length_b                   22.304(5)
_cell_length_c                   13.692(3)
_cell_angle_alpha                90
_cell_angle_beta                 90.43(3)
_cell_angle_gamma                90
_cell_volume                     2792.13
loop_
_atom_site_label
_atom_site_type_symbol
_atom_site_fract_x
_atom_site_fract_y
_atom_site_fract_z
Lu1 Lu 0.03682(7) 0.67100(2) 0.02048(4)
O1 O 0.2084(12) 0.7448(4) 0.0034(7)
N3 N 0.0282(14) 0.5589(5) 0.0148(8)
Lu3 Lu 0.03682(7) 0.82900(2) 0.52048(4)
O19 O 0.2084(12) 0.7552(4) 0.5034(7)
O20 O 0.3510(12) 0.6943(4) 0.4132(7)
O21 O 0.2230(13) 0.6055(4) 0.2915(7)
O22 O 0.2045(12) 0.6342(4) 0.1326(7)
O23 O 0.2045(12) 0.8658(4) 0.6326(7)
O36 O 0.2071(12) 0.8743(4) 0.4191(7)
N4 N 0.0348(13) 0.7783(5) 0.3571(8)
N5 N 0.0448(13) 0.7244(5) 0.1792(8)
N6 N 0.0448(13) 0.7756(5) 0.6792(8)
N8 N 0.0282(14) 0.9411(5) 0.5148(8)
C13 C 0.2419(16) 0.7246(6) 0.4258(10)
C14 C 0.1286(17) 0.7332(6) 0.3437(10)
C15 C 0.1237(15) 0.7028(6) 0.2522(9)
C16 C 0.1933(18) 0.6416(6) 0.2246(11)
O2 O 0.3510(12) 0.8057(4) 0.9132(7)
O3 O 0.2230(13) 0.8945(4) 0.7915(7)
N1 N 0.0348(13) 0.7217(5) 0.8571(8)
C1 C 0.2419(16) 0.7754(6) 0.9258(10)
C2 C 0.1286(17) 0.7668(6) 0.8437(10)
C3 C 0.1237(15) 0.7972(6) 0.7522(9)
C4 C 0.1933(18) 0.8584(6) 0.7246(11)
Lu8 Lu 0.53264(7) 0.57534(3) 0.77077(5)
O29 O 0.1370(12) 0.3723(4) 0.8742(7)
O31 O 0.1697(13) 0.4487(4) 0.7697(7)
O32 O 0.3277(11) 0.5446(4) 0.8601(7)
O35 O 0.2071(12) 0.6257(4) 0.9191(7)
C21 C 0.1369(17) 0.4267(6) 0.8489(11)
C22 C 0.0754(16) 0.4674(6) 0.9297(10)
C23 C 0.1052(17) 0.5311(6) 0.9464(10)
C24 C 0.2226(18) 0.5695(6) 0.9055(10)
H17 H 0.7531 0.0078 0.2115
O40 O 0.4326(13) 0.0080(5) 0.1983(8)
H19 H 0.3579 0.0045 0.1614
H20 H 0.4703 0.0424 0.2080
O9 O 0.8630(12) 0.6277(4) 0.1258(7)
O10 O 0.8303(13) 0.5513(4) 0.2303(7)
O11 O 0.6723(11) 0.4554(4) 0.1399(7)
O12 O 0.7929(12) 0.3743(4) 0.0809(7)
C9 C 0.8631(17) 0.5733(6) 0.1511(11)
C10 C 0.9246(16) 0.5326(6) 0.0703(10)
C11 C 0.8948(17) 0.4689(6) 0.0536(10)
C12 C 0.7774(18) 0.4305(6) 0.0945(10)
Lu6 Lu 0.53264(7) 0.92466(3) 0.27077(5)
Lu7 Lu 0.46736(7) 0.42466(3) 0.22923(5)
O24 O 0.8776(13) 0.7535(4) 0.0318(8)
O25 O 0.8776(13) 0.7465(4) 0.5318(8)
O26 O 0.8710(13) 0.8496(5) 0.0828(7)
O27 O 0.7360(12) 0.8607(4) 0.2680(7)
O28 O 0.8541(12) 0.8623(5) 0.4095(7)
O30 O 0.8630(12) 0.8723(4) 0.6258(7)
O34 O 0.3277(11) 0.9554(4) 0.3601(7)
O37 O 0.4680(12) 0.8338(4) 0.3417(8)
H13 H 0.3978 0.8135 0.3177
H14 H 0.5136 0.8211 0.3919
O38 O 0.6162(13) 0.9377(5) 0.4300(7)
H15 H 0.5653 0.9244 0.4770
H16 H 0.6968 0.9554 0.4415
O39 O 0.7333(14) 0.9895(5) 0.2643(9)
H18 H 0.7867 0.9947 0.3147
O41 O 0.6108(14) 0.9140(5) 0.1125(8)
H21 H 0.5543 0.8997 0.0688
H22 H 0.6971 0.9247 0.0978
O42 O 0.3363(15) 0.8836(5) 0.1807(9)
H23 H 0.3453 0.8497 0.1532
H24 H 0.2560 0.9027 0.1762
C17 C 0.8984(16) 0.7952(6) 0.0935(9)
C18 C 0.9554(16) 0.7745(6) 0.1912(10)
C19 C 0.9472(15) 0.7986(6) 0.2844(10)
C20 C 0.8341(17) 0.8439(6) 0.3225(10)
O6 O 0.8710(13) 0.6504(5) 0.5828(7)
O7 O 0.7360(12) 0.6393(4) 0.7680(7)
O8 O 0.8541(12) 0.6377(5) 0.9095(7)
O13 O 0.4680(12) 0.6662(4) 0.8417(8)
H1 H 0.3978 0.6865 0.8177
H2 H 0.5136 0.6789 0.8919
O14 O 0.6162(13) 0.5623(5) 0.9300(7)
H3 H 0.5653 0.5756 0.9770
H4 H 0.6968 0.5446 0.9415
O15 O 0.7333(14) 0.5105(5) 0.7643(9)
H5 H 0.7531 0.4922 0.7115
H6 H 0.7867 0.5053 0.8147
O16 O 0.4326(13) 0.4920(5) 0.6983(8)
H7 H 0.3579 0.4955 0.6614
H8 H 0.4703 0.4576 0.7080
O17 O 0.6108(14) 0.5860(5) 0.6125(8)
H9 H 0.5543 0.6003 0.5688
H10 H 0.6971 0.5753 0.5978
O18 O 0.3363(15) 0.6164(5) 0.6807(9)
H11 H 0.3453 0.6503 0.6532
H12 H 0.2560 0.5973 0.6762
C5 C 0.8984(16) 0.7048(6) 0.5935(9)
C6 C 0.9554(16) 0.7255(6) 0.6912(10)
C7 C 0.9472(15) 0.7014(6) 0.7844(10)
C8 C 0.8341(17) 0.6561(6) 0.8225(10)
Lu5 Lu 0.96318(7) 0.32900(2) 0.97952(4)
N7 N 0.9718(14) 0.4411(5) 0.9852(8)
Lu2 Lu 0.46736(7) 0.07534(3) 0.72923(5)
O5 O 0.1224(13) 0.2465(4) 0.9682(8)
O6_2 O 0.1290(13) 0.1504(5) 0.9172(7)
O7_2 O 0.2640(12) 0.1393(4) 0.7320(7)
O8_2 O 0.1459(12) 0.1377(5) 0.5905(7)
O9_2 O 0.1370(12) 0.1277(4) 0.3742(7)
O10_2 O 0.1697(13) 0.0513(4) 0.2697(7)
O13_2 O 0.5320(12) 0.1662(4) 0.6583(8)
H1_2 H 0.6022 0.1865 0.6823
H2_2 H 0.4864 0.1789 0.6081
O14_2 O 0.3838(13) 0.0623(5) 0.5700(7)
H3_2 H 0.4347 0.0756 0.5230
H4_2 H 0.3032 0.0446 0.5585
O15_2 O 0.2667(14) 0.0105(5) 0.7357(9)
H6_2 H 0.2133 0.0053 0.6853
O17_2 O 0.3892(14) 0.0860(5) 0.8875(8)
H9_2 H 0.4457 0.1003 0.9312
H10_2 H 0.3029 0.0753 0.9022
O18_2 O 0.6637(15) 0.1164(5) 0.8193(9)
H11_2 H 0.6547 0.1503 0.8468
H12_2 H 0.7440 0.0973 0.8238
C5_2 C 0.1016(16) 0.2048(6) 0.9065(9)
C6_2 C 0.0446(16) 0.2255(6) 0.8088(10)
C7_2 C 0.0528(15) 0.2014(6) 0.7156(10)
C8_2 C 0.1659(17) 0.1561(6) 0.6775(10)
C9_2 C 0.1369(17) 0.0733(6) 0.3489(11)
C10_2 C 0.0754(16) 0.0326(6) 0.4297(10)
O24_2 O 0.1224(13) 0.2535(4) 0.4682(8)
O26_2 O 0.1290(13) 0.3496(5) 0.4172(7)
O27_2 O 0.2640(12) 0.3607(4) 0.2320(7)
O28_2 O 0.1459(12) 0.3623(5) 0.0905(7)
O33 O 0.6723(11) 0.0446(4) 0.6399(7)
O37_2 O 0.5320(12) 0.3338(4) 0.1583(8)
H13_2 H 0.6022 0.3135 0.1823
H14_2 H 0.4864 0.3211 0.1081
O38_2 O 0.3838(13) 0.4377(5) 0.0700(7)
H15_2 H 0.4347 0.4244 0.0230
H16_2 H 0.3032 0.4554 0.0585
O39_2 O 0.2667(14) 0.4895(5) 0.2357(9)
H17_2 H 0.2469 0.5078 0.2885
H18_2 H 0.2133 0.4947 0.1853
O40_2 O 0.5674(13) 0.5080(5) 0.3017(8)
H19_2 H 0.6421 0.5045 0.3386
H20_2 H 0.5297 0.5424 0.2920
O41_2 O 0.3892(14) 0.4140(5) 0.3875(8)
H21_2 H 0.4457 0.3997 0.4312
H22_2 H 0.3029 0.4247 0.4022
O42_2 O 0.6637(15) 0.3836(5) 0.3193(9)
H23_2 H 0.6547 0.3497 0.3468
H24_2 H 0.7440 0.4027 0.3238
C17_2 C 0.1016(16) 0.2952(6) 0.4065(9)
C18_2 C 0.0446(16) 0.2745(6) 0.3088(10)
C19_2 C 0.0528(15) 0.2986(6) 0.2156(10)
C20_2 C 0.1659(17) 0.3439(6) 0.1775(10)
H5_2 H 0.2469 0.9922 0.7885
O16_2 O 0.5674(13) 0.9920(5) 0.8017(8)
H7_2 H 0.6421 0.9955 0.8386
H8_2 H 0.5297 0.9576 0.7920
C11_2 C 0.1052(17) 0.9689(6) 0.4464(10)
C12_2 C 0.2226(18) 0.9305(6) 0.4055(10)
Lu1_2 Lu 0.96318(7) 0.17100(2) 0.47952(4)
O1_2 O 0.7916(12) 0.2448(4) 0.4966(7)
O2_2 O 0.6490(12) 0.3057(4) 0.5868(7)
O3_2 O 0.7770(13) 0.3945(4) 0.7085(7)
O4 O 0.7955(12) 0.3658(4) 0.8674(7)
N1_2 N 0.9652(13) 0.2217(5) 0.6429(8)
N2 N 0.9552(13) 0.2756(5) 0.8208(8)
N3_2 N 0.9718(14) 0.0589(5) 0.4852(8)
C1_2 C 0.7581(16) 0.2754(6) 0.5742(10)
C2_2 C 0.8714(17) 0.2668(6) 0.6563(10)
C3_2 C 0.8763(15) 0.2972(6) 0.7478(9)
C4_2 C 0.8067(18) 0.3584(6) 0.7754(11)
O20_2 O 0.6490(12) 0.1943(4) 0.0868(7)
O21_2 O 0.7770(13) 0.1055(4) 0.2085(7)
O22_2 O 0.7955(12) 0.1342(4) 0.3674(7)
O35_2 O 0.7929(12) 0.1257(4) 0.5809(7)
N4_2 N 0.9652(13) 0.2783(5) 0.1429(8)
N5_2 N 0.9552(13) 0.2244(5) 0.3208(8)
C13_2 C 0.7581(16) 0.2246(6) 0.0742(10)
C14_2 C 0.8714(17) 0.2332(6) 0.1563(10)
C15_2 C 0.8763(15) 0.2028(6) 0.2478(9)
C16_2 C 0.8067(18) 0.1416(6) 0.2754(11)
C23_2 C 0.8948(17) 0.0311(6) 0.5536(10)
C24_2 C 0.7774(18) 0.0695(6) 0.5945(10)
O19_2 O 0.7916(12) 0.2552(4) 0.9966(7)
O31_2 O 0.8303(13) 0.9487(4) 0.7303(7)
C21_2 C 0.8631(17) 0.9267(6) 0.6511(11)
C22_2 C 0.9246(16) 0.9674(6) 0.5703(10)
loop_
_geom_bond_atom_site_label_1
_geom_bond_atom_site_label_2
_geom_bond_site_symmetry_1
_geom_bond_site_symmetry_2
Lu1 O1 1_555 1_555
N3 Lu1 1_555 1_555
Lu3 O19 1_555 1_555
O19 C13 1_555 1_555
O20 C13 1_555 1_555
O21 C16 1_555 1_555
O22 Lu1 1_555 1_555
O23 Lu3 1_555 1_555
O36 Lu3 1_555 1_555
N4 Lu3 1_555 1_555
N5 Lu1 1_555 1_555
N6 Lu3 1_555 1_555
N8 Lu3 1_555 1_555
C13 C14 1_555 1_555
C14 N4 1_555 1_555
C15 N5 1_555 1_555
C16 O22 1_555 1_555
C14 C15 1_555 1_555
C15 C16 1_555 1_555
O2 C1 1_555 1_555
O3 C4 1_555 1_555
O23 C4 1_555 1_555
N6 C3 1_555 1_555
C1 C2 1_555 1_555
C2 N1 1_555 1_555
C3 C2 1_555 1_555
C4 C3 1_555 1_555
Lu8 O32 1_555 1_555
O31 C21 1_555 1_555
O32 C24 1_555 1_555
C21 O29 1_555 1_555
C24 O35 1_555 1_555
C21 C22 1_555 1_555
C22 C23 1_555 1_555
C23 C24 1_555 1_555
H19 O40 1_555 1_555
H20 O40 1_555 1_555
O10 C9 1_555 1_555
O11 C12 1_555 1_555
O12 C12 1_555 1_555
C9 O9 1_555 1_555
C11 C10 1_555 1_555
C12 C11 1_555 1_555
Lu6 O27 1_555 1_555
Lu7 O11 1_555 1_555
O26 C17 1_555 1_555
O27 C20 1_555 1_555
O34 Lu6 1_555 1_555
O37 Lu6 1_555 1_555
H13 O37 1_555 1_555
H14 O37 1_555 1_555
O38 Lu6 1_555 1_555
H15 O38 1_555 1_555
H16 O38 1_555 1_555
O39 Lu6 1_555 1_555
H18 O39 1_555 1_555
O41 Lu6 1_555 1_555
H21 O41 1_555 1_555
H22 O41 1_555 1_555
O42 Lu6 1_555 1_555
H23 O42 1_555 1_555
H24 O42 1_555 1_555
C17 O24 1_555 1_555
C20 O28 1_555 1_555
C9 C10 1_555 1_555
C17 C18 1_555 1_555
C18 C19 1_555 1_555
C19 C20 1_555 1_555
Lu8 O7 1_555 1_555
O25 C5 1_555 1_555
O6 C5 1_555 1_555
O7 C8 1_555 1_555
O13 Lu8 1_555 1_555
H1 O13 1_555 1_555
H2 O13 1_555 1_555
O14 Lu8 1_555 1_555
H3 O14 1_555 1_555
H4 O14 1_555 1_555
O15 Lu8 1_555 1_555
H5 O15 1_555 1_555
H6 O15 1_555 1_555
O16 Lu8 1_555 1_555
H7 O16 1_555 1_555
H8 O16 1_555 1_555
O17 Lu8 1_555 1_555
H9 O17 1_555 1_555
H10 O17 1_555 1_555
O18 Lu8 1_555 1_555
H11 O18 1_555 1_555
H12 O18 1_555 1_555
C5 C6 1_555 1_555
C8 O8 1_555 1_555
C6 C7 1_555 1_555
C7 C8 1_555 1_555
Lu5 N7 1_555 1_555
Lu2 O7_2 1_555 1_555
O5 C5_2 1_555 1_555
O6_2 C5_2 1_555 1_555
O7_2 C8_2 1_555 1_555
O10_2 C9_2 1_555 1_555
O13_2 Lu2 1_555 1_555
H1_2 O13_2 1_555 1_555
H2_2 O13_2 1_555 1_555
O14_2 Lu2 1_555 1_555
H3_2 O14_2 1_555 1_555
H4_2 O14_2 1_555 1_555
O15_2 Lu2 1_555 1_555
H6_2 O15_2 1_555 1_555
O17_2 Lu2 1_555 1_555
H9_2 O17_2 1_555 1_555
H10_2 O17_2 1_555 1_555
O18_2 Lu2 1_555 1_555
H11_2 O18_2 1_555 1_555
H12_2 O18_2 1_555 1_555
C5_2 C6_2 1_555 1_555
C8_2 O8_2 1_555 1_555
C9_2 O9_2 1_555 1_555
Lu7 O27_2 1_555 1_555
O26_2 C17_2 1_555 1_555
O27_2 C20_2 1_555 1_555
O33 Lu2 1_555 1_555
O37_2 Lu7 1_555 1_555
H13_2 O37_2 1_555 1_555
H14_2 O37_2 1_555 1_555
O38_2 Lu7 1_555 1_555
H15_2 O38_2 1_555 1_555
H16_2 O38_2 1_555 1_555
O39_2 Lu7 1_555 1_555
H17_2 O39_2 1_555 1_555
H18_2 O39_2 1_555 1_555
O40_2 Lu7 1_555 1_555
H19_2 O40_2 1_555 1_555
H20_2 O40_2 1_555 1_555
O41_2 Lu7 1_555 1_555
H21_2 O41_2 1_555 1_555
H22_2 O41_2 1_555 1_555
O42_2 Lu7 1_555 1_555
H23_2 O42_2 1_555 1_555
H24_2 O42_2 1_555 1_555
C17_2 O24_2 1_555 1_555
C20_2 O28_2 1_555 1_555
C6_2 C7_2 1_555 1_555
C7_2 C8_2 1_555 1_555
C9_2 C10_2 1_555 1_555
C17_2 C18_2 1_555 1_555
C18_2 C19_2 1_555 1_555
C19_2 C20_2 1_555 1_555
O34 C12_2 1_555 1_555
O36 C12_2 1_555 1_555
H7_2 O16_2 1_555 1_555
H8_2 O16_2 1_555 1_555
C12_2 C11_2 1_555 1_555
N8 C11_2 1_555 1_555
Lu1_2 O1_2 1_555 1_555
O1_2 C1_2 1_555 1_555
O2_2 C1_2 1_555 1_555
O3_2 C4_2 1_555 1_555
O4 C4_2 1_555 1_555
N1_2 Lu1_2 1_555 1_555
N2 C3_2 1_555 1_555
N3_2 Lu1_2 1_555 1_555
C1_2 C2_2 1_555 1_555
C2_2 N1_2 1_555 1_555
C3_2 C2_2 1_555 1_555
C4_2 C3_2 1_555 1_555
Lu5 O4 1_555 1_555
O20_2 C13_2 1_555 1_555
O21_2 C16_2 1_555 1_555
O22_2 Lu1_2 1_555 1_555
O33 C24_2 1_555 1_555
O35_2 Lu1_2 1_555 1_555
N5_2 Lu1_2 1_555 1_555
C13_2 C14_2 1_555 1_555
C14_2 N4_2 1_555 1_555
C15_2 N5_2 1_555 1_555
C16_2 O22_2 1_555 1_555
C23_2 N3_2 1_555 1_555
C24_2 O35_2 1_555 1_555
N2 Lu5 1_555 1_555
C14_2 C15_2 1_555 1_555
C15_2 C16_2 1_555 1_555
C23_2 C24_2 1_555 1_555
Lu5 O19_2 1_555 1_555
O31_2 C21_2 1_555 1_555
C21_2 O30 1_555 1_555
C21_2 C22_2 1_555 1_555

#END
