
###############################################################################
#
# This file contains modified crystal structure data generated from the
# MOF subset of the Cambridge Structural Database (CSD) v543 
# hosted by the Cambridge Crystallographic Data Centre (CCDC).
#
# This work is licensed under the Creative Commons
# Attribution-NonCommercial-ShareAlike 4.0 International License.
# To view a copy of this license, visit
# http://creativecommons.org/licenses/by-nc-sa/4.0/
# or send a letter to
# Creative Commons, PO Box 1866, Mountain View, CA 94042, USA.
#
# CIF created using the CSD Python API on 29 September 2022
# The structure has been converted into the P1 space group
# The structure has a 3D framework
# The original CSD entry UGUHEK is in the monoclinic crystal system
# The framework has been calculated to contain at least 10.0% void space
# The void calculation uses a probe of radius 1.32A, grid spacing 0.4
#
###############################################################################

data_UGUHEK
_chemical_formula_moiety         '(C48 H48 Er8 N11 O72)n'
_symmetry_cell_setting           triclinic
_symmetry_space_group_name_H-M   'P 1'
_symmetry_Int_Tables_number      1
_space_group_name_Hall           'P 1'
loop_
_symmetry_equiv_pos_site_id
_symmetry_equiv_pos_as_xyz
1 x,y,z
_cell_length_a                   8.9399(18)
_cell_length_b                   22.103(4)
_cell_length_c                   13.693(3)
_cell_angle_alpha                90
_cell_angle_beta                 95.46(3)
_cell_angle_gamma                90
_cell_volume                     2693.44
loop_
_atom_site_label
_atom_site_type_symbol
_atom_site_fract_x
_atom_site_fract_y
_atom_site_fract_z
Er2 Er 0.54650(3) 0.390913(14) 0.25544(2)
O1 O 0.1707(5) 0.3606(2) 0.0977(3)
O2 O 0.3113(5) 0.3457(2) 0.2403(3)
O3 O 0.1708(5) 0.3476(2) 0.4164(3)
O4 O 0.1541(5) 0.2525(2) 0.4687(3)
O13 O 0.4087(7) 0.4398(3) 0.1219(5)
H1 H 0.3414 0.4206 0.0861
H2 H 0.4261 0.4768 0.1099
O14 O 0.5667(6) 0.3233(3) 0.1302(4)
H3 H 0.5756 0.2855 0.1420
H4 H 0.5655 0.3362 0.0714
O15 O 0.4332(6) 0.4097(2) 0.3967(3)
H5 H 0.4261 0.3816 0.4387
H6 H 0.3985 0.4448 0.4070
O16 O 0.5669(6) 0.2932(2) 0.3361(4)
H7 H 0.4799 0.2786 0.3395
H8 H 0.6292 0.2900 0.3870
O17 O 0.7775(6) 0.3808(2) 0.3429(4)
H9 H 0.8395 0.4068 0.3244
H10 H 0.7801 0.3747 0.4047
O18 O 0.5807(6) 0.4924(2) 0.2967(4)
H11 H 0.6339 0.5200 0.2740
H12 H 0.5499 0.4989 0.3529
C1 C 0.0816(7) 0.2928(3) 0.2116(5)
C2 C 0.0652(7) 0.2717(3) 0.3052(5)
C5 C 0.1983(7) 0.3377(3) 0.1820(5)
C6 C 0.1395(7) 0.2935(3) 0.4034(5)
Er5 Er 0.01716(3) 0.673645(13) 0.02390(2)
O33 O 0.7188(5) 0.4415(2) 0.1592(3)
N7 N 0.0170(5) 0.5591(2) 0.0149(4)
O9 O 0.1507(5) 0.3749(2) 0.8804(3)
O10 O 0.1575(6) 0.4500(2) 0.7722(3)
O11 O 0.2812(5) 0.5585(2) 0.8408(3)
O12 O 0.1767(5) 0.6316(2) 0.9215(3)
C9 C 0.0714(7) 0.4707(3) 0.9297(4)
C10 C 0.0905(7) 0.5329(3) 0.9460(4)
C11 C 0.1352(8) 0.4297(3) 0.8534(5)
C12 C 0.1898(7) 0.5769(3) 0.8965(5)
Er6 Er 0.54650(3) 0.109087(14) 0.75544(2)
Er7 Er 0.45350(3) 0.609087(14) 0.74456(2)
O19 O 0.1707(5) 0.1394(2) 0.5977(3)
O20 O 0.3113(5) 0.1543(2) 0.7403(3)
O21 O 0.1708(5) 0.1524(2) 0.9164(3)
O22 O 0.1541(5) 0.2475(2) 0.9687(3)
O30 O 0.1507(5) 0.1251(2) 0.3804(3)
O34 O 0.7188(5) 0.0585(2) 0.6592(3)
O37 O 0.4087(7) 0.0602(3) 0.6219(5)
H13 H 0.3414 0.0794 0.5861
H14 H 0.4261 0.0232 0.6099
O38 O 0.5667(6) 0.1767(3) 0.6302(4)
H15 H 0.5756 0.2145 0.6420
H16 H 0.5655 0.1638 0.5714
O39 O 0.4332(6) 0.0903(2) 0.8967(3)
H17 H 0.4261 0.1184 0.9387
H18 H 0.3985 0.0552 0.9070
O40 O 0.5669(6) 0.2068(2) 0.8361(4)
H19 H 0.4799 0.2214 0.8395
H20 H 0.6292 0.2100 0.8870
O41 O 0.7775(6) 0.1192(2) 0.8429(4)
H21 H 0.8395 0.0932 0.8244
H22 H 0.7801 0.1253 0.9047
O42 O 0.5807(6) 0.0076(2) 0.7967(4)
H24 H 0.5499 0.0011 0.8529
C13 C 0.0816(7) 0.2072(3) 0.7116(5)
C14 C 0.0652(7) 0.2283(3) 0.8052(5)
C17 C 0.1983(7) 0.1623(3) 0.6820(5)
C18 C 0.1395(7) 0.2065(3) 0.9034(5)
H23 H 0.6339 0.9800 0.7740
O5 O 0.7974(5) 0.1381(2) 0.3591(3)
O6 O 0.6486(5) 0.1505(2) 0.2194(3)
O7 O 0.7893(5) 0.1521(2) 0.0355(3)
N1 N 0.9945(6) 0.2709(2) 0.1357(4)
N2 N 0.9671(6) 0.2272(2) 0.3164(4)
C3 C 0.8807(7) 0.2046(3) 0.2406(5)
C4 C 0.8962(7) 0.2271(3) 0.1467(5)
C7 C 0.7645(7) 0.1595(3) 0.2732(5)
C8 C 0.8189(7) 0.2060(3) 0.0480(5)
Er4 Er 0.98284(3) 0.173645(13) 0.47610(2)
O29 O 0.8493(5) 0.6251(2) 0.1196(3)
O31 O 0.8425(6) 0.5500(2) 0.2278(3)
O35 O 0.8233(5) 0.3684(2) 0.0785(3)
C21 C 0.9286(7) 0.5293(3) 0.0703(4)
C22 C 0.9095(7) 0.4671(3) 0.0540(4)
C23 C 0.8648(8) 0.5703(3) 0.1466(5)
C24 C 0.8102(7) 0.4231(3) 0.1035(5)
Er1 Er 0.98284(3) 0.326355(13) 0.97610(2)
O8 O 0.8035(5) 0.2477(2) 0.9837(3)
N3 N 0.9830(5) 0.4409(2) 0.9851(4)
O24 O 0.7974(5) 0.3619(2) 0.8591(3)
O26 O 0.6486(5) 0.3495(2) 0.7194(3)
O27 O 0.7893(5) 0.3479(2) 0.5355(3)
O28 O 0.8035(5) 0.2523(2) 0.4837(3)
O36 O 0.8233(5) 0.1316(2) 0.5785(3)
N4 N 0.9945(6) 0.2291(2) 0.6357(4)
N5 N 0.9671(6) 0.2728(2) 0.8164(4)
N8 N 0.9830(5) 0.0591(2) 0.4851(4)
C15 C 0.8807(7) 0.2954(3) 0.7406(5)
C16 C 0.8962(7) 0.2729(3) 0.6467(5)
C19 C 0.7645(7) 0.3405(3) 0.7732(5)
C20 C 0.8189(7) 0.2940(3) 0.5480(5)
O31_2 O 0.1575(6) 0.0500(2) 0.2722(3)
C21_2 C 0.0714(7) 0.0293(3) 0.4297(4)
C23_2 C 0.1352(8) 0.0703(3) 0.3534(5)
O25 O 0.2026(5) 0.6381(2) 0.1409(3)
O28_2 O 0.1965(5) 0.7523(2) 0.0163(3)
N6 N 0.0329(6) 0.7272(2) 0.1836(4)
Er1_2 Er 0.01716(3) 0.826355(13) 0.52390(2)
O6_2 O 0.3514(5) 0.6505(2) 0.2806(3)
O7_2 O 0.2107(5) 0.6521(2) 0.4645(3)
O8_2 O 0.1965(5) 0.7477(2) 0.5163(3)
N1_2 N 0.0055(6) 0.7709(2) 0.3643(4)
N3_2 N 0.0170(5) 0.9409(2) 0.5149(4)
C3_2 C 0.1193(7) 0.7046(3) 0.2594(5)
C4_2 C 0.1038(7) 0.7271(3) 0.3533(5)
C7_2 C 0.2355(7) 0.6595(3) 0.2268(5)
C8_2 C 0.1811(7) 0.7060(3) 0.4520(5)
Er8 Er 0.45350(3) 0.890913(14) 0.24456(2)
O24_2 O 0.2026(5) 0.8619(2) 0.6409(3)
O26_2 O 0.3514(5) 0.8495(2) 0.7806(3)
O27_2 O 0.2107(5) 0.8479(2) 0.9645(3)
O32 O 0.2812(5) 0.9415(2) 0.3408(3)
O35_2 O 0.1767(5) 0.8684(2) 0.4215(3)
N4_2 N 0.0055(6) 0.7291(2) 0.8643(4)
N5_2 N 0.0329(6) 0.7728(2) 0.6836(4)
C15_2 C 0.1193(7) 0.7954(3) 0.7594(5)
C16_2 C 0.1038(7) 0.7729(3) 0.8533(5)
C19_2 C 0.2355(7) 0.8405(3) 0.7268(5)
C20_2 C 0.1811(7) 0.7940(3) 0.9520(5)
C22_2 C 0.0905(7) 0.9671(3) 0.4460(4)
C24_2 C 0.1898(7) 0.9231(3) 0.3965(5)
H11_2 H 0.3661 0.0200 0.2260
C10_2 C 0.9095(7) 0.0329(3) 0.5540(4)
C12_2 C 0.8102(7) 0.0769(3) 0.6035(5)
O23 O 0.8459(5) 0.7525(2) 0.0313(3)
O1_2 O 0.8293(5) 0.8606(2) 0.4023(3)
O2_2 O 0.6887(5) 0.8457(2) 0.2597(3)
O3_2 O 0.8292(5) 0.8476(2) 0.0836(3)
O9_2 O 0.8493(5) 0.8749(2) 0.6196(3)
O10_2 O 0.8425(6) 0.9500(2) 0.7278(3)
O13_2 O 0.5913(7) 0.9398(3) 0.3781(5)
H1_2 H 0.6586 0.9206 0.4139
H2_2 H 0.5739 0.9768 0.3901
O14_2 O 0.4333(6) 0.8233(3) 0.3698(4)
H3_2 H 0.4244 0.7855 0.3580
H4_2 H 0.4345 0.8362 0.4286
O15_2 O 0.5668(6) 0.9097(2) 0.1033(3)
H5_2 H 0.5739 0.8816 0.0613
H6_2 H 0.6015 0.9448 0.0930
O16_2 O 0.4331(6) 0.7932(2) 0.1639(4)
H7_2 H 0.5201 0.7786 0.1605
H8_2 H 0.3708 0.7900 0.1130
O17_2 O 0.2225(6) 0.8808(2) 0.1571(4)
H9_2 H 0.1605 0.9068 0.1756
H10_2 H 0.2199 0.8747 0.0953
O18_2 O 0.4193(6) 0.9924(2) 0.2033(4)
H12_2 H 0.4501 0.9989 0.1471
C1_2 C 0.9184(7) 0.7928(3) 0.2884(5)
C2_2 C 0.9348(7) 0.7717(3) 0.1948(5)
C5_2 C 0.8017(7) 0.8377(3) 0.3180(5)
C6_2 C 0.8605(7) 0.7935(3) 0.0966(5)
C9_2 C 0.9286(7) 0.9707(3) 0.5703(4)
C11_2 C 0.8648(8) 0.9297(3) 0.6466(5)
O19_2 O 0.8293(5) 0.6394(2) 0.9023(3)
O20_2 O 0.6887(5) 0.6543(2) 0.7597(3)
O21_2 O 0.8292(5) 0.6524(2) 0.5836(3)
O22_2 O 0.8459(5) 0.7475(2) 0.5313(3)
O37_2 O 0.5913(7) 0.5602(3) 0.8781(5)
H13_2 H 0.6586 0.5794 0.9139
H14_2 H 0.5739 0.5232 0.8901
O38_2 O 0.4333(6) 0.6767(3) 0.8698(4)
H15_2 H 0.4244 0.7145 0.8580
H16_2 H 0.4345 0.6638 0.9286
O39_2 O 0.5668(6) 0.5903(2) 0.6033(3)
H17_2 H 0.5739 0.6184 0.5613
H18_2 H 0.6015 0.5552 0.5930
O40_2 O 0.4331(6) 0.7068(2) 0.6639(4)
H19_2 H 0.5201 0.7214 0.6605
H20_2 H 0.3708 0.7100 0.6130
O41_2 O 0.2225(6) 0.6192(2) 0.6571(4)
H21_2 H 0.1605 0.5932 0.6756
H22_2 H 0.2199 0.6253 0.5953
O42_2 O 0.4193(6) 0.5076(2) 0.7033(4)
H23_2 H 0.3661 0.4800 0.7260
H24_2 H 0.4501 0.5011 0.6471
C13_2 C 0.9184(7) 0.7072(3) 0.7884(5)
C14_2 C 0.9348(7) 0.7283(3) 0.6948(5)
C17_2 C 0.8017(7) 0.6623(3) 0.8180(5)
C18_2 C 0.8605(7) 0.7065(3) 0.5966(5)
loop_
_geom_bond_atom_site_label_1
_geom_bond_atom_site_label_2
_geom_bond_site_symmetry_1
_geom_bond_site_symmetry_2
Er2 O2 1_555 1_555
O1 C5 1_555 1_555
O2 C5 1_555 1_555
O3 C6 1_555 1_555
O4 C6 1_555 1_555
O13 Er2 1_555 1_555
H1 O13 1_555 1_555
H2 O13 1_555 1_555
O14 Er2 1_555 1_555
H3 O14 1_555 1_555
H4 O14 1_555 1_555
O15 Er2 1_555 1_555
H5 O15 1_555 1_555
H6 O15 1_555 1_555
O16 Er2 1_555 1_555
H7 O16 1_555 1_555
H8 O16 1_555 1_555
O17 Er2 1_555 1_555
H9 O17 1_555 1_555
H10 O17 1_555 1_555
O18 Er2 1_555 1_555
H11 O18 1_555 1_555
H12 O18 1_555 1_555
C2 C1 1_555 1_555
C5 C1 1_555 1_555
C6 C2 1_555 1_555
O33 Er2 1_555 1_555
Er5 N7 1_555 1_555
O10 C11 1_555 1_555
O11 C12 1_555 1_555
O12 C12 1_555 1_555
C10 C9 1_555 1_555
C11 O9 1_555 1_555
C12 C10 1_555 1_555
Er6 O20 1_555 1_555
Er7 O11 1_555 1_555
O19 C17 1_555 1_555
O20 C17 1_555 1_555
O21 C18 1_555 1_555
O34 Er6 1_555 1_555
O37 Er6 1_555 1_555
H13 O37 1_555 1_555
H14 O37 1_555 1_555
O38 Er6 1_555 1_555
H15 O38 1_555 1_555
H16 O38 1_555 1_555
O39 Er6 1_555 1_555
H17 O39 1_555 1_555
H18 O39 1_555 1_555
O40 Er6 1_555 1_555
H19 O40 1_555 1_555
H20 O40 1_555 1_555
O41 Er6 1_555 1_555
H21 O41 1_555 1_555
H22 O41 1_555 1_555
O42 Er6 1_555 1_555
H24 O42 1_555 1_555
C17 C13 1_555 1_555
C18 O22 1_555 1_555
C9 C11 1_555 1_555
C13 C14 1_555 1_555
C14 C18 1_555 1_555
O5 C7 1_555 1_555
O6 C7 1_555 1_555
O7 C8 1_555 1_555
C3 N2 1_555 1_555
C4 N1 1_555 1_555
C7 C3 1_555 1_555
O31 C23 1_555 1_555
O33 C24 1_555 1_555
C23 O29 1_555 1_555
C24 O35 1_555 1_555
O5 Er4 1_555 1_555
N2 Er4 1_555 1_555
C3 C4 1_555 1_555
C4 C8 1_555 1_555
C21 C22 1_555 1_555
C21 C23 1_555 1_555
C22 C24 1_555 1_555
O8 Er1 1_555 1_555
N3 Er1 1_555 1_555
O24 Er1 1_555 1_555
O26 C19 1_555 1_555
O27 C20 1_555 1_555
O28 Er4 1_555 1_555
O36 Er4 1_555 1_555
N4 Er4 1_555 1_555
N5 Er1 1_555 1_555
N8 Er4 1_555 1_555
C15 N5 1_555 1_555
C16 N4 1_555 1_555
C19 O24 1_555 1_555
C20 O28 1_555 1_555
C15 C16 1_555 1_555
C15 C19 1_555 1_555
C16 C20 1_555 1_555
O31_2 C23_2 1_555 1_555
C23_2 O30 1_555 1_555
C21_2 C23_2 1_555 1_555
O25 Er5 1_555 1_555
O28_2 Er5 1_555 1_555
N6 Er5 1_555 1_555
O25 C7_2 1_555 1_555
O6_2 C7_2 1_555 1_555
O7_2 C8_2 1_555 1_555
O8_2 Er1_2 1_555 1_555
N1_2 Er1_2 1_555 1_555
N3_2 Er1_2 1_555 1_555
C3_2 N6 1_555 1_555
C4_2 N1_2 1_555 1_555
C7_2 C3_2 1_555 1_555
C8_2 O8_2 1_555 1_555
Er8 O32 1_555 1_555
O24_2 Er1_2 1_555 1_555
O26_2 C19_2 1_555 1_555
O27_2 C20_2 1_555 1_555
O32 C24_2 1_555 1_555
O35_2 Er1_2 1_555 1_555
N5_2 Er1_2 1_555 1_555
C15_2 N5_2 1_555 1_555
C16_2 N4_2 1_555 1_555
C19_2 O24_2 1_555 1_555
C22_2 N3_2 1_555 1_555
C24_2 O35_2 1_555 1_555
C3_2 C4_2 1_555 1_555
C4_2 C8_2 1_555 1_555
C15_2 C16_2 1_555 1_555
C15_2 C19_2 1_555 1_555
C16_2 C20_2 1_555 1_555
C22_2 C24_2 1_555 1_555
O34 C12_2 1_555 1_555
O36 C12_2 1_555 1_555
C12_2 C10_2 1_555 1_555
N8 C10_2 1_555 1_555
Er8 O2_2 1_555 1_555
O1_2 C5_2 1_555 1_555
O2_2 C5_2 1_555 1_555
O3_2 C6_2 1_555 1_555
O23 C6_2 1_555 1_555
O10_2 C11_2 1_555 1_555
O13_2 Er8 1_555 1_555
H1_2 O13_2 1_555 1_555
H2_2 O13_2 1_555 1_555
O14_2 Er8 1_555 1_555
H3_2 O14_2 1_555 1_555
H4_2 O14_2 1_555 1_555
O15_2 Er8 1_555 1_555
H5_2 O15_2 1_555 1_555
H6_2 O15_2 1_555 1_555
O16_2 Er8 1_555 1_555
H7_2 O16_2 1_555 1_555
H8_2 O16_2 1_555 1_555
O17_2 Er8 1_555 1_555
H9_2 O17_2 1_555 1_555
H10_2 O17_2 1_555 1_555
O18_2 Er8 1_555 1_555
H12_2 O18_2 1_555 1_555
C2_2 C1_2 1_555 1_555
C5_2 C1_2 1_555 1_555
C6_2 C2_2 1_555 1_555
C11_2 O9_2 1_555 1_555
Er7 O20_2 1_555 1_555
O19_2 C17_2 1_555 1_555
O20_2 C17_2 1_555 1_555
O21_2 C18_2 1_555 1_555
O37_2 Er7 1_555 1_555
H13_2 O37_2 1_555 1_555
H14_2 O37_2 1_555 1_555
O38_2 Er7 1_555 1_555
H15_2 O38_2 1_555 1_555
H16_2 O38_2 1_555 1_555
O39_2 Er7 1_555 1_555
H17_2 O39_2 1_555 1_555
H18_2 O39_2 1_555 1_555
O40_2 Er7 1_555 1_555
H19_2 O40_2 1_555 1_555
H20_2 O40_2 1_555 1_555
O41_2 Er7 1_555 1_555
H21_2 O41_2 1_555 1_555
H22_2 O41_2 1_555 1_555
O42_2 Er7 1_555 1_555
H23_2 O42_2 1_555 1_555
H24_2 O42_2 1_555 1_555
C17_2 C13_2 1_555 1_555
C18_2 O22_2 1_555 1_555
C9_2 C11_2 1_555 1_555
C13_2 C14_2 1_555 1_555
C14_2 C18_2 1_555 1_555

#END
