
###############################################################################
#
# This file contains modified crystal structure data generated from the
# MOF subset of the Cambridge Structural Database (CSD) v543 
# hosted by the Cambridge Crystallographic Data Centre (CCDC).
#
# This work is licensed under the Creative Commons
# Attribution-NonCommercial-ShareAlike 4.0 International License.
# To view a copy of this license, visit
# http://creativecommons.org/licenses/by-nc-sa/4.0/
# or send a letter to
# Creative Commons, PO Box 1866, Mountain View, CA 94042, USA.
#
# CIF created using the CSD Python API on 29 September 2022
# The structure has been converted into the P1 space group
# The structure has a 3D framework
# The original CSD entry UGUQOC is in the monoclinic crystal system
# The framework has been calculated to contain at least 10.0% void space
# The void calculation uses a probe of radius 1.32A, grid spacing 0.4
# The framework is charged, counterions have been retained in the structure
#
###############################################################################

data_UGUQOC
_chemical_formula_moiety         '(C40 H40 N8 O32 Zn2)n'
_symmetry_cell_setting           triclinic
_symmetry_space_group_name_H-M   'P 1'
_symmetry_Int_Tables_number      1
_space_group_name_Hall           'P 1'
loop_
_symmetry_equiv_pos_site_id
_symmetry_equiv_pos_as_xyz
1 x,y,z
_cell_length_a                   11.555(2)
_cell_length_b                   15.300(3)
_cell_length_c                   11.072(2)
_cell_angle_alpha                90
_cell_angle_beta                 91.97(3)
_cell_angle_gamma                90
_cell_volume                     1956.28
loop_
_atom_site_label
_atom_site_type_symbol
_atom_site_fract_x
_atom_site_fract_y
_atom_site_fract_z
Zn3 Zn 0.0000 0.005050(16) 0.7500
Zn1 Zn 0.5000 0.494950(16) 0.2500
O1 O 0.38370(12) 0.56214(9) 0.15306(13)
O2 O 0.52526(13) 0.65120(11) 0.09969(16)
C1 C 0.42225(17) 0.62977(12) 0.10034(17)
C2 C 0.33176(16) 0.68962(11) 0.04435(17)
C3 C 0.27625(18) 0.74539(13) 0.12211(18)
H1 H 0.302(3) 0.748(2) 0.212(3)
C6 C 0.19476(16) 0.80621(12) 0.07962(17)
C10 C 0.13959(17) 0.86542(13) 0.16921(18)
O7 O 0.1452(2) 0.84669(13) 0.27795(15)
O8 O 0.08978(13) 0.93339(9) 0.12755(14)
O9 O 0.61630(12) 0.56214(9) 0.34694(13)
O10 O 0.41022(13) 0.43339(9) 0.37245(14)
O11 O 0.58978(13) 0.43339(9) 0.12755(14)
Zn4 Zn -0.0000 0.994950(16) 0.2500
O3 O 0.3548(2) 0.65331(13) 0.72205(15)
O4 O 0.41022(13) 0.56661(9) 0.87245(14)
C4 C 0.30524(16) 0.69379(12) 0.92038(17)
C5 C 0.36041(17) 0.63458(13) 0.83079(18)
C7 C 0.16824(16) 0.81038(11) 0.95565(17)
C8 C 0.07775(17) 0.87023(12) 0.89966(17)
O5 O 0.11630(12) 0.93786(9) 0.84694(13)
C9 C 0.22375(18) 0.75461(13) 0.87789(18)
H2 H 0.198(3) 0.752(2) 0.788(3)
Zn2 Zn 0.5000 0.505050(16) 0.7500
Zn3_2 Zn 1.0000 0.005050(16) 0.7500
Zn4_2 Zn 1.0000 0.994950(16) 0.2500
O6 O 0.97474(13) 0.84880(11) 0.90031(16)
O2_2 O 0.02526(13) 0.15120(11) 0.09969(16)
O9_2 O 0.11630(12) 0.06214(9) 0.34694(13)
O1_2 O 0.88370(12) 0.06214(9) 0.15306(13)
C1_2 C 0.92225(17) 0.12977(12) 0.10034(17)
C2_2 C 0.83176(16) 0.18962(11) 0.04435(17)
C3_2 C 0.77625(18) 0.24539(13) 0.12211(18)
H1_2 H 0.802(3) 0.248(2) 0.212(3)
C6_2 C 0.69476(16) 0.30621(12) 0.07962(17)
C10_2 C 0.63959(17) 0.36542(13) 0.16921(18)
O7_2 O 0.6452(2) 0.34669(13) 0.27795(15)
O3_2 O 0.8548(2) 0.15331(13) 0.72205(15)
O4_2 O 0.91022(13) 0.06661(9) 0.87245(14)
C4_2 C 0.80524(16) 0.19379(12) 0.92038(17)
C5_2 C 0.86041(17) 0.13458(13) 0.83079(18)
C7_2 C 0.66824(16) 0.31038(11) 0.95565(17)
C8_2 C 0.57775(17) 0.37023(12) 0.89966(17)
O5_2 O 0.61630(12) 0.43786(9) 0.84694(13)
O6_2 O 0.47474(13) 0.34880(11) 0.90031(16)
C9_2 C 0.72375(18) 0.25461(13) 0.87789(18)
H2_2 H 0.698(3) 0.252(2) 0.788(3)
O10_2 O 0.91022(13) 0.93339(9) 0.37245(14)
O1_3 O 0.38370(12) 0.43786(9) 0.65306(13)
O2_3 O 0.52526(13) 0.34880(11) 0.59969(16)
O3_3 O 0.3548(2) 0.34669(13) 0.22205(15)
C1_3 C 0.42225(17) 0.37023(12) 0.60034(17)
C2_3 C 0.33176(16) 0.31038(11) 0.54435(17)
C3_3 C 0.27625(18) 0.25461(13) 0.62211(18)
C4_3 C 0.30524(16) 0.30621(12) 0.42038(17)
C5_3 C 0.36041(17) 0.36542(13) 0.33079(18)
H1_3 H 0.302(3) 0.252(2) 0.712(3)
C6_3 C 0.19476(16) 0.19379(12) 0.57962(17)
C7_3 C 0.16824(16) 0.18962(11) 0.45565(17)
C8_3 C 0.07775(17) 0.12977(12) 0.39966(17)
C9_3 C 0.22375(18) 0.24539(13) 0.37789(18)
H2_3 H 0.198(3) 0.248(2) 0.288(3)
C10_3 C 0.13959(17) 0.13458(13) 0.66921(18)
O7_3 O 0.1452(2) 0.15331(13) 0.77795(15)
O8_2 O 0.08978(13) 0.06661(9) 0.62755(14)
O11_2 O 0.58978(13) 0.56661(9) 0.62755(14)
O6_3 O 0.97474(13) 0.15120(11) 0.40031(16)
O2_4 O 0.02526(13) 0.84880(11) 0.59969(16)
O1_4 O 0.88370(12) 0.93786(9) 0.65306(13)
O3_4 O 0.8548(2) 0.84669(13) 0.22205(15)
C1_4 C 0.92225(17) 0.87023(12) 0.60034(17)
C2_4 C 0.83176(16) 0.81038(11) 0.54435(17)
C3_4 C 0.77625(18) 0.75461(13) 0.62211(18)
C4_4 C 0.80524(16) 0.80621(12) 0.42038(17)
C5_4 C 0.86041(17) 0.86542(13) 0.33079(18)
H1_4 H 0.802(3) 0.752(2) 0.712(3)
C6_4 C 0.69476(16) 0.69379(12) 0.57962(17)
C7_4 C 0.66824(16) 0.68962(11) 0.45565(17)
C8_4 C 0.57775(17) 0.62977(12) 0.39966(17)
O6_4 O 0.47474(13) 0.65120(11) 0.40031(16)
C9_4 C 0.72375(18) 0.74539(13) 0.37789(18)
H2_4 H 0.698(3) 0.748(2) 0.288(3)
C10_4 C 0.63959(17) 0.63458(13) 0.66921(18)
O7_4 O 0.6452(2) 0.65331(13) 0.77795(15)
N1 N 0.7271(3) 0.5761(2) 0.0020(3)
H3 H 0.774(6) 0.630(5) 0.020(6)
H4 H 0.741(9) 0.520(6) 0.044(11)
H5 H 0.668(7) 0.587(4) 0.046(7)
H6 H 0.695(8) 0.573(5) 0.912(9)
N1_2 N 0.2271(3) 0.0761(2) 0.0020(3)
H3_2 H 0.274(6) 0.130(5) 0.020(6)
H4_2 H 0.241(9) 0.020(6) 0.044(11)
H5_2 H 0.168(7) 0.087(4) 0.046(7)
H6_2 H 0.195(8) 0.073(5) 0.912(9)
N1_3 N 0.7271(3) 0.4239(2) 0.5020(3)
H3_3 H 0.774(6) 0.370(5) 0.520(6)
H4_3 H 0.741(9) 0.480(6) 0.544(11)
H5_3 H 0.668(7) 0.413(4) 0.546(7)
H6_3 H 0.695(8) 0.427(5) 0.412(9)
N1_4 N 0.2271(3) 0.9239(2) 0.5020(3)
H3_4 H 0.274(6) 0.870(5) 0.520(6)
H4_4 H 0.241(9) 0.980(6) 0.544(11)
H5_4 H 0.168(7) 0.913(4) 0.546(7)
H6_4 H 0.195(8) 0.927(5) 0.412(9)
H6_5 H 0.305(8) 0.427(5) 0.088(9)
N1_5 N 0.2729(3) 0.4239(2) 0.9980(3)
H3_5 H 0.226(6) 0.370(5) 0.980(6)
H4_5 H 0.259(9) 0.480(6) 0.956(11)
H5_5 H 0.332(7) 0.413(4) 0.954(7)
H6_6 H 0.805(8) 0.927(5) 0.088(9)
N1_6 N 0.7729(3) 0.9239(2) 0.9980(3)
H3_6 H 0.726(6) 0.870(5) 0.980(6)
H4_6 H 0.759(9) 0.980(6) 0.956(11)
H5_6 H 0.832(7) 0.913(4) 0.954(7)
N1_7 N 0.2729(3) 0.5761(2) 0.4980(3)
H3_7 H 0.226(6) 0.630(5) 0.480(6)
H4_7 H 0.259(9) 0.520(6) 0.456(11)
H5_7 H 0.332(7) 0.587(4) 0.454(7)
H6_7 H 0.305(8) 0.573(5) 0.588(9)
N1_8 N 0.7729(3) 0.0761(2) 0.4980(3)
H3_8 H 0.726(6) 0.130(5) 0.480(6)
H4_8 H 0.759(9) 0.020(6) 0.456(11)
H5_8 H 0.832(7) 0.087(4) 0.454(7)
H6_8 H 0.805(8) 0.073(5) 0.588(9)
loop_
_geom_bond_atom_site_label_1
_geom_bond_atom_site_label_2
_geom_bond_site_symmetry_1
_geom_bond_site_symmetry_2
Zn1 O1 1_555 1_555
O1 C1 1_555 1_555
O2 C1 1_555 1_555
C1 C2 1_555 1_555
C2 C3 1_555 1_555
C3 H1 1_555 1_555
C6 C3 1_555 1_555
C10 C6 1_555 1_555
O7 C10 1_555 1_555
O8 C10 1_555 1_555
O9 Zn1 1_555 1_555
O10 Zn1 1_555 1_555
O11 Zn1 1_555 1_555
Zn4 O8 1_555 1_555
O3 C5 1_555 1_555
O4 C5 1_555 1_555
C5 C4 1_555 1_555
C8 C7 1_555 1_555
O5 C8 1_555 1_555
C9 C4 1_555 1_555
H2 C9 1_555 1_555
Zn2 O4 1_555 1_555
C7 C9 1_555 1_555
O1_2 C1_2 1_555 1_555
C1_2 C2_2 1_555 1_555
C2_2 C3_2 1_555 1_555
C3_2 H1_2 1_555 1_555
C6_2 C3_2 1_555 1_555
C10_2 C6_2 1_555 1_555
O7_2 C10_2 1_555 1_555
O11 C10_2 1_555 1_555
O3_2 C5_2 1_555 1_555
O4_2 C5_2 1_555 1_555
C5_2 C4_2 1_555 1_555
C8_2 C7_2 1_555 1_555
O5_2 C8_2 1_555 1_555
O6_2 C8_2 1_555 1_555
C9_2 C4_2 1_555 1_555
H2_2 C9_2 1_555 1_555
Zn3_2 O4_2 1_555 1_555
Zn2 O5_2 1_555 1_555
C7_2 C9_2 1_555 1_555
O10_2 Zn4_2 1_555 1_555
Zn2 O1_3 1_555 1_555
O1_3 C1_3 1_555 1_555
O2_3 C1_3 1_555 1_555
O3_3 C5_3 1_555 1_555
O10 C5_3 1_555 1_555
C1_3 C2_3 1_555 1_555
C2_3 C3_3 1_555 1_555
C3_3 H1_3 1_555 1_555
C4_3 C2_3 1_555 1_555
C5_3 C4_3 1_555 1_555
C6_3 C3_3 1_555 1_555
C7_3 C6_3 1_555 1_555
C8_3 C7_3 1_555 1_555
O9_2 C8_3 1_555 1_555
C9_3 C4_3 1_555 1_555
H2_3 C9_3 1_555 1_555
C10_3 C6_3 1_555 1_555
O7_3 C10_3 1_555 1_555
O8_2 C10_3 1_555 1_555
O11_2 Zn2 1_555 1_555
Zn3 O8_2 1_555 1_555
C7_3 C9_3 1_555 1_555
O1_4 C1_4 1_555 1_555
O3_4 C5_4 1_555 1_555
O10_2 C5_4 1_555 1_555
C1_4 C2_4 1_555 1_555
C2_4 C3_4 1_555 1_555
C3_4 H1_4 1_555 1_555
C4_4 C2_4 1_555 1_555
C5_4 C4_4 1_555 1_555
C6_4 C3_4 1_555 1_555
C7_4 C6_4 1_555 1_555
C8_4 C7_4 1_555 1_555
O9 C8_4 1_555 1_555
O6_4 C8_4 1_555 1_555
C9_4 C4_4 1_555 1_555
H2_4 C9_4 1_555 1_555
C10_4 C6_4 1_555 1_555
O7_4 C10_4 1_555 1_555
O11_2 C10_4 1_555 1_555
C7_4 C9_4 1_555 1_555
N1 H3 1_555 1_555
H4 N1 1_555 1_555
H5 N1 1_555 1_555
N1_2 H3_2 1_555 1_555
H4_2 N1_2 1_555 1_555
H5_2 N1_2 1_555 1_555
N1_3 H3_3 1_555 1_555
H4_3 N1_3 1_555 1_555
H5_3 N1_3 1_555 1_555
H6_3 N1_3 1_555 1_555
N1_4 H3_4 1_555 1_555
H4_4 N1_4 1_555 1_555
H5_4 N1_4 1_555 1_555
H6_4 N1_4 1_555 1_555
N1_5 H3_5 1_555 1_555
H4_5 N1_5 1_555 1_555
H5_5 N1_5 1_555 1_555
N1_6 H3_6 1_555 1_555
H4_6 N1_6 1_555 1_555
H5_6 N1_6 1_555 1_555
N1_7 H3_7 1_555 1_555
H4_7 N1_7 1_555 1_555
H5_7 N1_7 1_555 1_555
H6_7 N1_7 1_555 1_555
N1_8 H3_8 1_555 1_555
H4_8 N1_8 1_555 1_555
H5_8 N1_8 1_555 1_555
H6_8 N1_8 1_555 1_555

#END
