
###############################################################################
#
# This file contains modified crystal structure data generated from the
# MOF subset of the Cambridge Structural Database (CSD) v543 
# hosted by the Cambridge Crystallographic Data Centre (CCDC).
#
# This work is licensed under the Creative Commons
# Attribution-NonCommercial-ShareAlike 4.0 International License.
# To view a copy of this license, visit
# http://creativecommons.org/licenses/by-nc-sa/4.0/
# or send a letter to
# Creative Commons, PO Box 1866, Mountain View, CA 94042, USA.
#
# CIF created using the CSD Python API on 29 September 2022
# The structure has been converted into the P1 space group
# The structure has a 3D framework
# The original CSD entry UHAJOF is in the monoclinic crystal system
# The framework has been calculated to contain at least 10.0% void space
# The void calculation uses a probe of radius 1.32A, grid spacing 0.4
#
###############################################################################

data_UHAJOF
_chemical_formula_moiety         '(C120 H90 Cl4 Cu35 N60 S30)n'
_symmetry_cell_setting           triclinic
_symmetry_space_group_name_H-M   'P 1'
_symmetry_Int_Tables_number      1
_space_group_name_Hall           'P 1'
loop_
_symmetry_equiv_pos_site_id
_symmetry_equiv_pos_as_xyz
1 x,y,z
_cell_length_a                   6.85630(10)
_cell_length_b                   42.0151(7)
_cell_length_c                   16.3408(3)
_cell_angle_alpha                90
_cell_angle_beta                 98.2350(10)
_cell_angle_gamma                90
_cell_volume                     4658.73
loop_
_atom_site_label
_atom_site_type_symbol
_atom_site_fract_x
_atom_site_fract_y
_atom_site_fract_z
N1 N 0.0220(8) 0.5000 0.8375(3)
C3 C 0.0386(7) 0.5000 0.7570(3)
H3 H 0.1641 0.5000 0.7415
Cu1 Cu 0.45848(8) 0.5000 0.62058(4)
Cu2 Cu 0.70114(5) 0.46381(2) 0.52703(2)
Cu3 Cu 0.54225(5) 0.33682(2) 0.77394(2)
Cu4 Cu 0.69212(5) 0.20929(2) 0.53112(2)
Cu5 Cu 0.60252(5) 0.17358(2) 0.39975(2)
Cl1 Cl 0.19576(8) 0.34027(2) 0.76395(4)
S1 S 0.90670(11) 0.5000 0.59042(5)
S2 S 0.29963(8) 0.45246(2) 0.60680(4)
S3 S 0.26990(8) 0.22498(2) 0.59724(4)
S4 S 0.74955(9) 0.16537(2) 0.60547(4)
N2 N 0.6915(5) 0.5000 0.7153(2)
N3 N 0.6588(3) 0.42736(5) 0.60290(14)
N4 N 0.5927(3) 0.37621(5) 0.70423(14)
N5 N 0.5846(3) 0.29594(5) 0.71169(13)
N6 N 0.6464(3) 0.24534(5) 0.60764(13)
N7 N 0.7080(3) 0.13307(5) 0.46162(13)
N8 N 0.7848(4) 0.07407(6) 0.53990(18)
C1 C 0.6742(8) 0.5000 0.7965(3)
H1 H 0.5497 0.5000 0.8129
C2 C 0.8408(10) 0.5000 0.8558(3)
H2 H 0.8238 0.5000 0.9113
C4 C 0.8746(5) 0.5000 0.6947(2)
C5 C 0.4545(4) 0.39795(6) 0.68115(15)
H4 H 0.3322 0.3957 0.6989
C6 C 0.4857(3) 0.42398(6) 0.63131(15)
C7 C 0.7978(4) 0.40567(7) 0.6268(2)
H5 H 0.9196 0.4076 0.6085
C8 C 0.7671(4) 0.38061(7) 0.6776(2)
H6 H 0.8693 0.3664 0.6939
C9 C 0.4670(3) 0.25042(5) 0.63019(15)
C10 C 0.4402(3) 0.27644(6) 0.68211(15)
H7 H 0.3153 0.2800 0.6961
C11 C 0.7657(4) 0.28952(6) 0.69121(18)
H8 H 0.8727 0.3020 0.7128
C12 C 0.7928(4) 0.26489(6) 0.63931(17)
H9 H 0.9180 0.2615 0.6253
C13 C 0.7945(5) 0.10144(7) 0.58157(19)
H10 H 0.8300 0.1008 0.6387
C14 C 0.7541(4) 0.13111(6) 0.54389(16)
C15 C 0.6992(4) 0.10527(7) 0.41953(18)
H11 H 0.6671 0.1057 0.3623
C16 C 0.7361(5) 0.07648(7) 0.4582(2)
H12 H 0.7268 0.0580 0.4263
Cu6 Cu 0.29886(5) 0.46381(2) 0.47297(2)
Cu7 Cu 0.45775(5) 0.33682(2) 0.22606(2)
Cu8 Cu 0.30788(5) 0.20929(2) 0.46888(2)
Cu9 Cu 0.39748(5) 0.17358(2) 0.60025(2)
Cl2 Cl 0.80424(8) 0.34027(2) 0.23605(4)
S5 S 0.70037(8) 0.45246(2) 0.39320(4)
S6 S 0.73010(8) 0.22498(2) 0.40276(4)
S7 S 0.25045(9) 0.16537(2) 0.39453(4)
N9 N 0.3412(3) 0.42736(5) 0.39710(14)
N10 N 0.4073(3) 0.37621(5) 0.29577(14)
N11 N 0.4154(3) 0.29594(5) 0.28831(13)
N12 N 0.3536(3) 0.24534(5) 0.39236(13)
N13 N 0.2920(3) 0.13307(5) 0.53838(13)
N14 N 0.2152(4) 0.07407(6) 0.46010(18)
C17 C 0.5455(4) 0.39795(6) 0.31885(15)
H13 H 0.6678 0.3957 0.3011
C18 C 0.5143(3) 0.42398(6) 0.36869(15)
C19 C 0.2022(4) 0.40567(7) 0.3732(2)
H14 H 0.0804 0.4076 0.3915
C20 C 0.2329(4) 0.38061(7) 0.3224(2)
H15 H 0.1307 0.3664 0.3061
C21 C 0.5330(3) 0.25042(5) 0.36981(15)
C22 C 0.5598(3) 0.27644(6) 0.31789(15)
H16 H 0.6847 0.2800 0.3039
C23 C 0.2343(4) 0.28952(6) 0.30879(18)
H17 H 0.1273 0.3020 0.2872
C24 C 0.2072(4) 0.26489(6) 0.36069(17)
H18 H 0.0820 0.2615 0.3747
C25 C 0.2055(5) 0.10144(7) 0.41843(19)
H19 H 0.1700 0.1008 0.3613
C26 C 0.2459(4) 0.13111(6) 0.45611(16)
C27 C 0.3008(4) 0.10527(7) 0.58047(18)
H20 H 0.3329 0.1057 0.6377
C28 C 0.2639(5) 0.07648(7) 0.5418(2)
H21 H 0.2732 0.0580 0.5737
Cu10 Cu 0.54152(8) 0.5000 0.37942(4)
Cu11 Cu 0.70114(5) 0.53619(2) 0.52703(2)
Cu12 Cu 0.95775(5) 0.16318(2) 0.72606(2)
Cu13 Cu 0.04225(5) 0.16318(2) 0.27394(2)
Cu14 Cu 0.89748(5) 0.32642(2) 0.10025(2)
Cu15 Cu 0.10252(5) 0.32642(2) 0.89975(2)
Cl3 Cl 0.30424(8) 0.15973(2) 0.73605(4)
Cl4 Cl 0.69576(8) 0.15973(2) 0.26395(4)
S8 S 0.09330(11) 0.5000 0.40958(5)
S9 S 0.29963(8) 0.54754(2) 0.60680(4)
S10 S 0.75045(9) 0.33463(2) 0.89453(4)
S11 S 0.24955(9) 0.33463(2) 0.10547(4)
N2_2 N 0.3085(5) 0.5000 0.2847(2)
C1_2 C 0.3258(8) 0.5000 0.2035(3)
H1_2 H 0.4503 0.5000 0.1871
C2_2 C 0.1592(10) 0.5000 0.1442(3)
H2_2 H 0.1762 0.5000 0.0887
C4_2 C 0.1254(5) 0.5000 0.3053(2)
Cu11_2 Cu 0.29886(5) 0.53619(2) 0.47297(2)
S9_2 S 0.70037(8) 0.54754(2) 0.39320(4)
S1_2 S 0.40670(11) 0.0000 0.09042(5)
N1_2 N 0.5220(8) 0.0000 0.3375(3)
N2_3 N 0.1915(5) 0.0000 0.2153(2)
C1_3 C 0.1742(8) 0.0000 0.2965(3)
H1_3 H 0.0497 0.0000 0.3129
C2_3 C 0.3408(10) 0.0000 0.3558(3)
H2_3 H 0.3238 0.0000 0.4113
C3_2 C 0.5386(7) 0.0000 0.2570(3)
H3_2 H 0.6641 0.0000 0.2415
C4_3 C 0.3746(5) 0.0000 0.1947(2)
Cu11_3 Cu 0.20114(5) 0.03619(2) 0.02703(2)
Cu10_2 Cu 0.04152(8) 0.0000 0.87942(4)
Cu2_2 Cu 0.20114(5) 0.96381(2) 0.02703(2)
Cu3_2 Cu 0.04225(5) 0.83682(2) 0.27394(2)
Cu4_2 Cu 0.19212(5) 0.70929(2) 0.03112(2)
S1_3 S 0.40670(11) 1.0000 0.09042(5)
S4_2 S 0.24955(9) 0.66537(2) 0.10547(4)
N1_3 N 0.5220(8) 1.0000 0.3375(3)
N2_4 N 0.1915(5) 1.0000 0.2153(2)
N3_2 N 0.1588(3) 0.92736(5) 0.10290(14)
N4_2 N 0.0927(3) 0.87621(5) 0.20423(14)
N5_2 N 0.0846(3) 0.79594(5) 0.21169(13)
N6_2 N 0.1464(3) 0.74534(5) 0.10764(13)
N8_2 N 0.2848(4) 0.57407(6) 0.03990(18)
C1_4 C 0.1742(8) 1.0000 0.2965(3)
H1_4 H 0.0497 1.0000 0.3129
C2_4 C 0.3408(10) 1.0000 0.3558(3)
H2_4 H 0.3238 1.0000 0.4113
C3_3 C 0.5386(7) 1.0000 0.2570(3)
H3_3 H 0.6641 1.0000 0.2415
C4_4 C 0.3746(5) 1.0000 0.1947(2)
C7_2 C 0.2978(4) 0.90567(7) 0.1268(2)
H5_2 H 0.4196 0.9076 0.1085
C8_2 C 0.2671(4) 0.88061(7) 0.1776(2)
H6_2 H 0.3693 0.8664 0.1939
C11_2 C 0.2657(4) 0.78952(6) 0.19121(18)
H8_2 H 0.3727 0.8020 0.2128
C12_2 C 0.2928(4) 0.76489(6) 0.13931(17)
H9_2 H 0.4180 0.7615 0.1253
C13_2 C 0.2945(5) 0.60144(7) 0.08157(19)
H10_2 H 0.3300 0.6008 0.1387
C14_2 C 0.2541(4) 0.63111(6) 0.04389(16)
Cu12_2 Cu 0.45775(5) 0.66318(2) 0.22606(2)
S10_2 S 0.25045(9) 0.83463(2) 0.39453(4)
Cu5_2 Cu 0.10252(5) 0.67358(2) 0.89975(2)
N7_2 N 0.2080(3) 0.63307(5) 0.96162(13)
C15_2 C 0.1992(4) 0.60527(7) 0.91953(18)
H11_2 H 0.1671 0.6057 0.8623
C16_2 C 0.2361(5) 0.57648(7) 0.9582(2)
H12_2 H 0.2268 0.5580 0.9263
Cl2_2 Cl 0.30424(8) 0.84027(2) 0.73605(4)
S5_2 S 0.20037(8) 0.95246(2) 0.89320(4)
S6_2 S 0.23010(8) 0.72498(2) 0.90276(4)
C17_2 C 0.0455(4) 0.89795(6) 0.81885(15)
H13_2 H 0.1678 0.8957 0.8011
C18_2 C 0.0143(3) 0.92398(6) 0.86869(15)
C21_2 C 0.0330(3) 0.75042(5) 0.86981(15)
C22_2 C 0.0598(3) 0.77644(6) 0.81789(15)
H16_2 H 0.1847 0.7800 0.8039
Cu10_3 Cu 0.04152(8) 1.0000 0.87942(4)
Cu14_2 Cu 0.39748(5) 0.82642(2) 0.60025(2)
Cl4_2 Cl 0.19576(8) 0.65973(2) 0.76395(4)
Cu1_2 Cu 0.95848(8) 0.0000 0.12058(4)
S9_3 S 0.79963(8) 0.04754(2) 0.10680(4)
S8_2 S 0.59330(11) 0.0000 0.90958(5)
Cu1_3 Cu 0.95848(8) 1.0000 0.12058(4)
Cl1_2 Cl 0.69576(8) 0.84027(2) 0.26395(4)
S2_2 S 0.79963(8) 0.95246(2) 0.10680(4)
S3_2 S 0.76990(8) 0.72498(2) 0.09724(4)
C5_2 C 0.9545(4) 0.89795(6) 0.18115(15)
H4_2 H 0.8322 0.8957 0.1989
C6_2 C 0.9857(3) 0.92398(6) 0.13131(15)
C9_2 C 0.9670(3) 0.75042(5) 0.13019(15)
C10_2 C 0.9402(3) 0.77644(6) 0.18211(15)
H7_2 H 0.8153 0.7800 0.1961
Cu9_2 Cu 0.89748(5) 0.67358(2) 0.10025(2)
N13_2 N 0.7920(3) 0.63307(5) 0.03838(13)
C27_2 C 0.8008(4) 0.60527(7) 0.08047(18)
H20_2 H 0.8329 0.6057 0.1377
C28_2 C 0.7639(5) 0.57648(7) 0.0418(2)
H21_2 H 0.7732 0.5580 0.0737
Cu15_2 Cu 0.60252(5) 0.82642(2) 0.39975(2)
Cl3_2 Cl 0.80424(8) 0.65973(2) 0.23605(4)
Cu6_2 Cu 0.79886(5) 0.96381(2) 0.97297(2)
Cu7_2 Cu 0.95775(5) 0.83682(2) 0.72606(2)
Cu8_2 Cu 0.80788(5) 0.70929(2) 0.96888(2)
S7_2 S 0.75045(9) 0.66537(2) 0.89453(4)
N9_2 N 0.8412(3) 0.92736(5) 0.89710(14)
N10_2 N 0.9073(3) 0.87621(5) 0.79577(14)
N11_2 N 0.9154(3) 0.79594(5) 0.78831(13)
N12_2 N 0.8536(3) 0.74534(5) 0.89236(13)
N14_2 N 0.7152(4) 0.57407(6) 0.96010(18)
C19_2 C 0.7022(4) 0.90567(7) 0.8732(2)
H14_2 H 0.5804 0.9076 0.8915
C20_2 C 0.7329(4) 0.88061(7) 0.8224(2)
H15_2 H 0.6307 0.8664 0.8061
C23_2 C 0.7343(4) 0.78952(6) 0.80879(18)
H17_2 H 0.6273 0.8020 0.7872
C24_2 C 0.7072(4) 0.76489(6) 0.86069(17)
H18_2 H 0.5820 0.7615 0.8747
C25_2 C 0.7055(5) 0.60144(7) 0.91843(19)
H19_2 H 0.6700 0.6008 0.8613
C26_2 C 0.7459(4) 0.63111(6) 0.95611(16)
Cu13_2 Cu 0.54225(5) 0.66318(2) 0.77394(2)
S8_3 S 0.59330(11) 1.0000 0.90958(5)
S11_2 S 0.74955(9) 0.83463(2) 0.60547(4)
S9_4 S 0.20037(8) 0.04754(2) 0.89320(4)
N1_4 N 0.4780(8) 0.0000 0.6625(3)
N2_5 N 0.8085(5) 0.0000 0.7847(2)
C1_5 C 0.8258(8) 0.0000 0.7035(3)
H1_5 H 0.9503 0.0000 0.6871
C2_5 C 0.6592(10) 0.0000 0.6442(3)
H2_5 H 0.6762 0.0000 0.5887
C3_4 C 0.4614(7) 0.0000 0.7430(3)
H3_4 H 0.3359 0.0000 0.7585
C4_5 C 0.6254(5) 0.0000 0.8053(2)
Cu11_4 Cu 0.79886(5) 0.03619(2) 0.97297(2)
N1_5 N 0.4780(8) 1.0000 0.6625(3)
N2_6 N 0.8085(5) 1.0000 0.7847(2)
C1_6 C 0.8258(8) 1.0000 0.7035(3)
H1_6 H 0.9503 1.0000 0.6871
C2_6 C 0.6592(10) 1.0000 0.6442(3)
H2_6 H 0.6762 1.0000 0.5887
C3_5 C 0.4614(7) 1.0000 0.7430(3)
H3_5 H 0.3359 1.0000 0.7585
C4_6 C 0.6254(5) 1.0000 0.8053(2)
Cu4_3 Cu 0.30788(5) 0.79071(2) 0.46888(2)
S3_3 S 0.73010(8) 0.77502(2) 0.40276(4)
N3_3 N 0.3412(3) 0.57264(5) 0.39710(14)
N4_3 N 0.4073(3) 0.62379(5) 0.29577(14)
N5_3 N 0.4154(3) 0.70406(5) 0.28831(13)
N6_3 N 0.3536(3) 0.75466(5) 0.39236(13)
N7_3 N 0.2920(3) 0.86693(5) 0.53838(13)
N8_3 N 0.2152(4) 0.92593(6) 0.46010(18)
C5_3 C 0.5455(4) 0.60205(6) 0.31885(15)
H4_3 H 0.6678 0.6043 0.3011
C6_3 C 0.5143(3) 0.57602(6) 0.36869(15)
C7_3 C 0.2022(4) 0.59433(7) 0.3732(2)
H5_3 H 0.0804 0.5924 0.3915
C8_3 C 0.2329(4) 0.61939(7) 0.3224(2)
H6_3 H 0.1307 0.6336 0.3061
C9_3 C 0.5330(3) 0.74958(5) 0.36981(15)
C10_3 C 0.5598(3) 0.72356(6) 0.31789(15)
H7_3 H 0.6847 0.7200 0.3039
C11_3 C 0.2343(4) 0.71048(6) 0.30879(18)
H8_3 H 0.1273 0.6980 0.2872
C12_3 C 0.2072(4) 0.73511(6) 0.36069(17)
H9_3 H 0.0820 0.7385 0.3747
C13_3 C 0.2055(5) 0.89856(7) 0.41843(19)
H10_3 H 0.1700 0.8992 0.3613
C14_3 C 0.2459(4) 0.86889(6) 0.45611(16)
C15_3 C 0.3008(4) 0.89473(7) 0.58047(18)
H11_3 H 0.3329 0.8943 0.6377
C16_3 C 0.2639(5) 0.92352(7) 0.5418(2)
H12_3 H 0.2732 0.9420 0.5737
Cu8_3 Cu 0.69212(5) 0.79071(2) 0.53112(2)
S6_3 S 0.26990(8) 0.77502(2) 0.59724(4)
N9_3 N 0.6588(3) 0.57264(5) 0.60290(14)
N10_3 N 0.5927(3) 0.62379(5) 0.70423(14)
N11_3 N 0.5846(3) 0.70406(5) 0.71169(13)
N12_3 N 0.6464(3) 0.75466(5) 0.60764(13)
N13_3 N 0.7080(3) 0.86693(5) 0.46162(13)
N14_3 N 0.7848(4) 0.92593(6) 0.53990(18)
C17_3 C 0.4545(4) 0.60205(6) 0.68115(15)
H13_3 H 0.3322 0.6043 0.6989
C18_3 C 0.4857(3) 0.57602(6) 0.63131(15)
C19_3 C 0.7978(4) 0.59433(7) 0.6268(2)
H14_3 H 0.9196 0.5924 0.6085
C20_3 C 0.7671(4) 0.61939(7) 0.6776(2)
H15_3 H 0.8693 0.6336 0.6939
C21_3 C 0.4670(3) 0.74958(5) 0.63019(15)
C22_3 C 0.4402(3) 0.72356(6) 0.68211(15)
H16_3 H 0.3153 0.7200 0.6961
C23_3 C 0.7657(4) 0.71048(6) 0.69121(18)
H17_3 H 0.8727 0.6980 0.7128
C24_3 C 0.7928(4) 0.73511(6) 0.63931(17)
H18_3 H 0.9180 0.7385 0.6253
C25_3 C 0.7945(5) 0.89856(7) 0.58157(19)
H19_3 H 0.8300 0.8992 0.6387
C26_3 C 0.7541(4) 0.86889(6) 0.54389(16)
C27_3 C 0.6992(4) 0.89473(7) 0.41953(18)
H20_3 H 0.6671 0.8943 0.3623
C28_3 C 0.7361(5) 0.92352(7) 0.4582(2)
H21_3 H 0.7268 0.9420 0.4263
Cu8_4 Cu 0.19212(5) 0.29071(2) 0.03112(2)
N9_4 N 0.1588(3) 0.07264(5) 0.10290(14)
N10_4 N 0.0927(3) 0.12379(5) 0.20423(14)
N11_4 N 0.0846(3) 0.20406(5) 0.21169(13)
N12_4 N 0.1464(3) 0.25466(5) 0.10764(13)
N14_4 N 0.2848(4) 0.42593(6) 0.03990(18)
C19_4 C 0.2978(4) 0.09433(7) 0.1268(2)
H14_4 H 0.4196 0.0924 0.1085
C20_4 C 0.2671(4) 0.11939(7) 0.1776(2)
H15_4 H 0.3693 0.1336 0.1939
C23_4 C 0.2657(4) 0.21048(6) 0.19121(18)
H17_4 H 0.3727 0.1980 0.2128
C24_4 C 0.2928(4) 0.23511(6) 0.13931(17)
H18_4 H 0.4180 0.2385 0.1253
C25_4 C 0.2945(5) 0.39856(7) 0.08157(19)
H19_4 H 0.3300 0.3992 0.1387
C26_4 C 0.2541(4) 0.36889(6) 0.04389(16)
S3_4 S 0.23010(8) 0.27502(2) 0.90276(4)
C5_4 C 0.0455(4) 0.10205(6) 0.81885(15)
H4_4 H 0.1678 0.1043 0.8011
C6_4 C 0.0143(3) 0.07602(6) 0.86869(15)
C9_4 C 0.0330(3) 0.24958(5) 0.86981(15)
C10_4 C 0.0598(3) 0.22356(6) 0.81789(15)
H7_4 H 0.1847 0.2200 0.8039
N13_4 N 0.2080(3) 0.36693(5) 0.96162(13)
C27_4 C 0.1992(4) 0.39473(7) 0.91953(18)
H20_4 H 0.1671 0.3943 0.8623
C28_4 C 0.2361(5) 0.42352(7) 0.9582(2)
H21_4 H 0.2268 0.4420 0.9263
N7_4 N 0.7920(3) 0.36693(5) 0.03838(13)
C15_4 C 0.8008(4) 0.39473(7) 0.08047(18)
H11_4 H 0.8329 0.3943 0.1377
C16_4 C 0.7639(5) 0.42352(7) 0.0418(2)
H12_4 H 0.7732 0.4420 0.0737
S6_4 S 0.76990(8) 0.27502(2) 0.09724(4)
C17_4 C 0.9545(4) 0.10205(6) 0.18115(15)
H13_4 H 0.8322 0.1043 0.1989
C18_4 C 0.9857(3) 0.07602(6) 0.13131(15)
C21_4 C 0.9670(3) 0.24958(5) 0.13019(15)
C22_4 C 0.9402(3) 0.22356(6) 0.18211(15)
H16_4 H 0.8153 0.2200 0.1961
Cu4_4 Cu 0.80788(5) 0.29071(2) 0.96888(2)
N3_4 N 0.8412(3) 0.07264(5) 0.89710(14)
N4_4 N 0.9073(3) 0.12379(5) 0.79577(14)
N5_4 N 0.9154(3) 0.20406(5) 0.78831(13)
N6_4 N 0.8536(3) 0.25466(5) 0.89236(13)
N8_4 N 0.7152(4) 0.42593(6) 0.96010(18)
C7_4 C 0.7022(4) 0.09433(7) 0.8732(2)
H5_4 H 0.5804 0.0924 0.8915
C8_4 C 0.7329(4) 0.11939(7) 0.8224(2)
H6_4 H 0.6307 0.1336 0.8061
C11_4 C 0.7343(4) 0.21048(6) 0.80879(18)
H8_4 H 0.6273 0.1980 0.7872
C12_4 C 0.7072(4) 0.23511(6) 0.86069(17)
H9_4 H 0.5820 0.2385 0.8747
C13_4 C 0.7055(5) 0.39856(7) 0.91843(19)
H10_4 H 0.6700 0.3992 0.8613
C14_4 C 0.7459(4) 0.36889(6) 0.95611(16)
N1_6 N 0.9780(8) 0.5000 0.1625(3)
C3_6 C 0.9614(7) 0.5000 0.2430(3)
H3_6 H 0.8359 0.5000 0.2585
loop_
_geom_bond_atom_site_label_1
_geom_bond_atom_site_label_2
_geom_bond_site_symmetry_1
_geom_bond_site_symmetry_2
C3 N1 1_555 1_555
H3 C3 1_555 1_555
Cu1 S2 1_555 1_555
Cu2 S1 1_555 1_555
Cu3 Cl1 1_555 1_555
Cu4 S4 1_555 1_555
Cu5 N7 1_555 1_555
Cl1 Cu15 1_555 1_555
S1 C4 1_555 1_555
S2 C6 1_555 1_555
S3 C9 1_555 1_555
S4 C14 1_555 1_555
N2 Cu1 1_555 1_555
N3 Cu2 1_555 1_555
N4 Cu3 1_555 1_555
N5 Cu3 1_555 1_555
N6 Cu4 1_555 1_555
N7 C14 1_555 1_555
N8 C13 1_555 1_555
C1 N2 1_555 1_555
H1 C1 1_555 1_555
C2 C1 1_555 1_555
H2 C2 1_555 1_555
C4 N2 1_555 1_555
C5 N4 1_555 1_555
H4 C5 1_555 1_555
C6 N3 1_555 1_555
C7 N3 1_555 1_555
H5 C7 1_555 1_555
C8 N4 1_555 1_555
H6 C8 1_555 1_555
C9 N6 1_555 1_555
C10 N5 1_555 1_555
H7 C10 1_555 1_555
C11 N5 1_555 1_555
H8 C11 1_555 1_555
C12 N6 1_555 1_555
H9 C12 1_555 1_555
C13 H10 1_555 1_555
C14 C13 1_555 1_555
C15 N7 1_555 1_555
H11 C15 1_555 1_555
C16 N8 1_555 1_555
H12 C16 1_555 1_555
Cu6 S2 1_555 1_555
Cu7 Cl2 1_555 1_555
Cu8 S3 1_555 1_555
Cu9 S3 1_555 1_555
Cl2 Cu14 1_555 1_555
S5 Cu2 1_555 1_555
S6 Cu4 1_555 1_555
S7 Cu5 1_555 1_555
N9 Cu6 1_555 1_555
N10 Cu7 1_555 1_555
N11 Cu7 1_555 1_555
N12 Cu8 1_555 1_555
N13 Cu9 1_555 1_555
N14 C25 1_555 1_555
C17 N10 1_555 1_555
H13 C17 1_555 1_555
C18 S5 1_555 1_555
C19 N9 1_555 1_555
H14 C19 1_555 1_555
C20 N10 1_555 1_555
H15 C20 1_555 1_555
C21 S6 1_555 1_555
C22 N11 1_555 1_555
H16 C22 1_555 1_555
C23 N11 1_555 1_555
H17 C23 1_555 1_555
C24 N12 1_555 1_555
H18 C24 1_555 1_555
C25 H19 1_555 1_555
C26 S7 1_555 1_555
C27 N13 1_555 1_555
H20 C27 1_555 1_555
C28 N14 1_555 1_555
H21 C28 1_555 1_555
Cu10 S5 1_555 1_555
Cu11 S1 1_555 1_555
Cu12 S4 1_555 1_555
Cu13 S7 1_555 1_555
Cl3 Cu9 1_555 1_555
Cl4 Cu5 1_555 1_555
S8 Cu6 1_555 1_555
S9 Cu1 1_555 1_555
S10 Cu3 1_555 1_555
S11 Cu7 1_555 1_555
Cu5 S6 1_555 1_555
S4 Cu9 1_555 1_555
C5 C6 1_555 1_555
C7 C8 1_555 1_555
C9 C10 1_555 1_555
C11 C12 1_555 1_555
C15 C16 1_555 1_555
Cu8 S7 1_555 1_555
N9 C18 1_555 1_555
N12 C21 1_555 1_555
N13 C26 1_555 1_555
C17 C18 1_555 1_555
C19 C20 1_555 1_555
C21 C22 1_555 1_555
C23 C24 1_555 1_555
C25 C26 1_555 1_555
C27 C28 1_555 1_555
S8 C4_2 1_555 1_555
N2_2 Cu10 1_555 1_555
C1_2 N2_2 1_555 1_555
H1_2 C1_2 1_555 1_555
C2_2 C1_2 1_555 1_555
H2_2 C2_2 1_555 1_555
C4_2 N2_2 1_555 1_555
Cu11_2 S8 1_555 1_555
S9_2 Cu10 1_555 1_555
S1_2 C4_3 1_555 1_555
N1_2 C2_3 1_555 1_555
C1_3 N2_3 1_555 1_555
H1_3 C1_3 1_555 1_555
C2_3 C1_3 1_555 1_555
H2_3 C2_3 1_555 1_555
C3_2 N1_2 1_555 1_555
H3_2 C3_2 1_555 1_555
C4_3 N2_3 1_555 1_555
Cu11_3 S1_2 1_555 1_555
C3_2 C4_3 1_555 1_555
Cu2_2 S1_3 1_555 1_555
Cu4_2 S4_2 1_555 1_555
S1_3 C4_4 1_555 1_555
S4_2 C14_2 1_555 1_555
N1_3 C2_4 1_555 1_555
N3_2 Cu2_2 1_555 1_555
N4_2 Cu3_2 1_555 1_555
N5_2 Cu3_2 1_555 1_555
N6_2 Cu4_2 1_555 1_555
N8_2 C13_2 1_555 1_555
C1_4 N2_4 1_555 1_555
H1_4 C1_4 1_555 1_555
C2_4 C1_4 1_555 1_555
H2_4 C2_4 1_555 1_555
C3_3 N1_3 1_555 1_555
H3_3 C3_3 1_555 1_555
C4_4 N2_4 1_555 1_555
C7_2 N3_2 1_555 1_555
H5_2 C7_2 1_555 1_555
C8_2 N4_2 1_555 1_555
H6_2 C8_2 1_555 1_555
C11_2 N5_2 1_555 1_555
H8_2 C11_2 1_555 1_555
C12_2 N6_2 1_555 1_555
H9_2 C12_2 1_555 1_555
C13_2 H10_2 1_555 1_555
C14_2 C13_2 1_555 1_555
Cu12_2 S4_2 1_555 1_555
S10_2 Cu3_2 1_555 1_555
C3_3 C4_4 1_555 1_555
C7_2 C8_2 1_555 1_555
C11_2 C12_2 1_555 1_555
Cu5_2 N7_2 1_555 1_555
C15_2 N7_2 1_555 1_555
H11_2 C15_2 1_555 1_555
H12_2 C16_2 1_555 1_555
Cl2_2 Cu14_2 1_555 1_555
H13_2 C17_2 1_555 1_555
C18_2 S5_2 1_555 1_555
C21_2 S6_2 1_555 1_555
H16_2 C22_2 1_555 1_555
Cu10_3 S5_2 1_555 1_555
Cl4_2 Cu5_2 1_555 1_555
Cu5_2 S6_2 1_555 1_555
C15_2 C16_2 1_555 1_555
C17_2 C18_2 1_555 1_555
C21_2 C22_2 1_555 1_555
S9_3 Cu1_2 1_555 1_555
Cu1_3 S2_2 1_555 1_555
Cl1_2 Cu15_2 1_555 1_555
S2_2 C6_2 1_555 1_555
S3_2 C9_2 1_555 1_555
H4_2 C5_2 1_555 1_555
H7_2 C10_2 1_555 1_555
Cu9_2 S3_2 1_555 1_555
N13_2 Cu9_2 1_555 1_555
C27_2 N13_2 1_555 1_555
H20_2 C27_2 1_555 1_555
H21_2 C28_2 1_555 1_555
Cl3_2 Cu9_2 1_555 1_555
C5_2 C6_2 1_555 1_555
C9_2 C10_2 1_555 1_555
C27_2 C28_2 1_555 1_555
N9_2 Cu6_2 1_555 1_555
N10_2 Cu7_2 1_555 1_555
N11_2 Cu7_2 1_555 1_555
N12_2 Cu8_2 1_555 1_555
N14_2 C25_2 1_555 1_555
C19_2 N9_2 1_555 1_555
H14_2 C19_2 1_555 1_555
C20_2 N10_2 1_555 1_555
H15_2 C20_2 1_555 1_555
C23_2 N11_2 1_555 1_555
H17_2 C23_2 1_555 1_555
C24_2 N12_2 1_555 1_555
H18_2 C24_2 1_555 1_555
C25_2 H19_2 1_555 1_555
C26_2 S7_2 1_555 1_555
Cu13_2 S7_2 1_555 1_555
S8_3 Cu6_2 1_555 1_555
S11_2 Cu7_2 1_555 1_555
Cu8_2 S7_2 1_555 1_555
C19_2 C20_2 1_555 1_555
C23_2 C24_2 1_555 1_555
C25_2 C26_2 1_555 1_555
S9_4 Cu10_2 1_555 1_555
S8_2 C4_5 1_555 1_555
N1_4 C2_5 1_555 1_555
C1_5 N2_5 1_555 1_555
H1_5 C1_5 1_555 1_555
C2_5 C1_5 1_555 1_555
H2_5 C2_5 1_555 1_555
C3_4 N1_4 1_555 1_555
H3_4 C3_4 1_555 1_555
C4_5 N2_5 1_555 1_555
Cu11_4 S8_2 1_555 1_555
C3_4 C4_5 1_555 1_555
S8_3 C4_6 1_555 1_555
N1_5 C2_6 1_555 1_555
C1_6 N2_6 1_555 1_555
H1_6 C1_6 1_555 1_555
C2_6 C1_6 1_555 1_555
H2_6 C2_6 1_555 1_555
C3_5 N1_5 1_555 1_555
H3_5 C3_5 1_555 1_555
C4_6 N2_6 1_555 1_555
C3_5 C4_6 1_555 1_555
Cu12_2 Cl3_2 1_555 1_555
Cu4_3 S10_2 1_555 1_555
Cu14_2 N7_3 1_555 1_555
S9_2 C6_3 1_555 1_555
S3_3 C9_3 1_555 1_555
S10_2 C14_3 1_555 1_555
N3_3 Cu11_2 1_555 1_555
N4_3 Cu12_2 1_555 1_555
N5_3 Cu12_2 1_555 1_555
N6_3 Cu4_3 1_555 1_555
N7_3 C14_3 1_555 1_555
N8_3 C13_3 1_555 1_555
C5_3 N4_3 1_555 1_555
H4_3 C5_3 1_555 1_555
C6_3 N3_3 1_555 1_555
C7_3 N3_3 1_555 1_555
H5_3 C7_3 1_555 1_555
C8_3 N4_3 1_555 1_555
H6_3 C8_3 1_555 1_555
C9_3 N6_3 1_555 1_555
C10_3 N5_3 1_555 1_555
H7_3 C10_3 1_555 1_555
C11_3 N5_3 1_555 1_555
H8_3 C11_3 1_555 1_555
C12_3 N6_3 1_555 1_555
H9_3 C12_3 1_555 1_555
C13_3 H10_3 1_555 1_555
C14_3 C13_3 1_555 1_555
C15_3 N7_3 1_555 1_555
H11_3 C15_3 1_555 1_555
C16_3 N8_3 1_555 1_555
H12_3 C16_3 1_555 1_555
Cu11 S9_2 1_555 1_555
Cu13_2 Cl4_2 1_555 1_555
Cu8_3 S3_3 1_555 1_555
Cu15_2 S3_3 1_555 1_555
S9 Cu11_2 1_555 1_555
S6_3 Cu4_3 1_555 1_555
S11_2 Cu14_2 1_555 1_555
N9_3 Cu11 1_555 1_555
N10_3 Cu13_2 1_555 1_555
N11_3 Cu13_2 1_555 1_555
N12_3 Cu8_3 1_555 1_555
N13_3 Cu15_2 1_555 1_555
N14_3 C25_3 1_555 1_555
C17_3 N10_3 1_555 1_555
H13_3 C17_3 1_555 1_555
C18_3 S9 1_555 1_555
C19_3 N9_3 1_555 1_555
H14_3 C19_3 1_555 1_555
C20_3 N10_3 1_555 1_555
H15_3 C20_3 1_555 1_555
C21_3 S6_3 1_555 1_555
C22_3 N11_3 1_555 1_555
H16_3 C22_3 1_555 1_555
C23_3 N11_3 1_555 1_555
H17_3 C23_3 1_555 1_555
C24_3 N12_3 1_555 1_555
H18_3 C24_3 1_555 1_555
C25_3 H19_3 1_555 1_555
C26_3 S11_2 1_555 1_555
C27_3 N13_3 1_555 1_555
H20_3 C27_3 1_555 1_555
C28_3 N14_3 1_555 1_555
H21_3 C28_3 1_555 1_555
Cu14_2 S6_3 1_555 1_555
S10_2 Cu15_2 1_555 1_555
C5_3 C6_3 1_555 1_555
C7_3 C8_3 1_555 1_555
C9_3 C10_3 1_555 1_555
C11_3 C12_3 1_555 1_555
C15_3 C16_3 1_555 1_555
Cu8_3 S11_2 1_555 1_555
N9_3 C18_3 1_555 1_555
N12_3 C21_3 1_555 1_555
N13_3 C26_3 1_555 1_555
C17_3 C18_3 1_555 1_555
C19_3 C20_3 1_555 1_555
C21_3 C22_3 1_555 1_555
C23_3 C24_3 1_555 1_555
C25_3 C26_3 1_555 1_555
C27_3 C28_3 1_555 1_555
N9_4 Cu11_3 1_555 1_555
N10_4 Cu13 1_555 1_555
N11_4 Cu13 1_555 1_555
N12_4 Cu8_4 1_555 1_555
N14_4 C25_4 1_555 1_555
C19_4 N9_4 1_555 1_555
H14_4 C19_4 1_555 1_555
C20_4 N10_4 1_555 1_555
H15_4 C20_4 1_555 1_555
C23_4 N11_4 1_555 1_555
H17_4 C23_4 1_555 1_555
C24_4 N12_4 1_555 1_555
H18_4 C24_4 1_555 1_555
C25_4 H19_4 1_555 1_555
C26_4 S11 1_555 1_555
Cu8_4 S11 1_555 1_555
C19_4 C20_4 1_555 1_555
C23_4 C24_4 1_555 1_555
C25_4 C26_4 1_555 1_555
S9_4 C6_4 1_555 1_555
S3_4 C9_4 1_555 1_555
H4_4 C5_4 1_555 1_555
H7_4 C10_4 1_555 1_555
Cu15 S3_4 1_555 1_555
N13_4 Cu15 1_555 1_555
C27_4 N13_4 1_555 1_555
H20_4 C27_4 1_555 1_555
H21_4 C28_4 1_555 1_555
C5_4 C6_4 1_555 1_555
C9_4 C10_4 1_555 1_555
C27_4 C28_4 1_555 1_555
Cu14 N7_4 1_555 1_555
C15_4 N7_4 1_555 1_555
H11_4 C15_4 1_555 1_555
H12_4 C16_4 1_555 1_555
H13_4 C17_4 1_555 1_555
C18_4 S9_3 1_555 1_555
C21_4 S6_4 1_555 1_555
H16_4 C22_4 1_555 1_555
Cu14 S6_4 1_555 1_555
C15_4 C16_4 1_555 1_555
C17_4 C18_4 1_555 1_555
C21_4 C22_4 1_555 1_555
Cu4_4 S10 1_555 1_555
S10 C14_4 1_555 1_555
N3_4 Cu11_4 1_555 1_555
N4_4 Cu12 1_555 1_555
N5_4 Cu12 1_555 1_555
N6_4 Cu4_4 1_555 1_555
N8_4 C13_4 1_555 1_555
C7_4 N3_4 1_555 1_555
H5_4 C7_4 1_555 1_555
C8_4 N4_4 1_555 1_555
H6_4 C8_4 1_555 1_555
C11_4 N5_4 1_555 1_555
H8_4 C11_4 1_555 1_555
C12_4 N6_4 1_555 1_555
H9_4 C12_4 1_555 1_555
C13_4 H10_4 1_555 1_555
C14_4 C13_4 1_555 1_555
C7_4 C8_4 1_555 1_555
C11_4 C12_4 1_555 1_555
C3_6 N1_6 1_555 1_555
H3_6 C3_6 1_555 1_555

#END
