
###############################################################################
#
# This file contains modified crystal structure data generated from the
# MOF subset of the Cambridge Structural Database (CSD) v543 
# hosted by the Cambridge Crystallographic Data Centre (CCDC).
#
# This work is licensed under the Creative Commons
# Attribution-NonCommercial-ShareAlike 4.0 International License.
# To view a copy of this license, visit
# http://creativecommons.org/licenses/by-nc-sa/4.0/
# or send a letter to
# Creative Commons, PO Box 1866, Mountain View, CA 94042, USA.
#
# CIF created using the CSD Python API on 29 September 2022
# The structure has been converted into the P1 space group
# The structure has a 3D framework
# The original CSD entry UHAXUW is in the monoclinic crystal system
# The framework has been calculated to contain at least 10.0% void space
# The void calculation uses a probe of radius 1.32A, grid spacing 0.4
#
###############################################################################

data_UHAXUW
_chemical_formula_moiety         '(C56 H32 Cd4 N20 O4 S8)n'
_symmetry_cell_setting           triclinic
_symmetry_space_group_name_H-M   'P 1'
_symmetry_Int_Tables_number      1
_space_group_name_Hall           'P 1'
loop_
_symmetry_equiv_pos_site_id
_symmetry_equiv_pos_as_xyz
1 x,y,z
_cell_length_a                   7.680(2)
_cell_length_b                   10.029(3)
_cell_length_c                   25.786(7)
_cell_angle_alpha                90
_cell_angle_beta                 93.779(5)
_cell_angle_gamma                90
_cell_volume                     1981.79
loop_
_atom_site_label
_atom_site_type_symbol
_atom_site_fract_x
_atom_site_fract_y
_atom_site_fract_z
N4 N 0.1180(6) 0.6823(4) 0.66091(15)
C10 C 0.0710(7) 0.5547(5) 0.65673(19)
H6 H 0.1049 0.4974 0.6839
C11 C 0.0721(8) 0.7629(5) 0.6213(2)
H7 H 0.1063 0.8518 0.6234
Cd2 Cd 0.26528(5) 0.75815(3) 0.738480(14)
N2 N 0.6650(6) 0.0868(4) 0.97482(15)
H1 H 0.3364 0.0151 0.8111
C2 C 0.4867(7) 0.0035(5) 0.87677(19)
H2 H 0.4719 0.0917 0.8867
N6 N 0.6588(6) 0.0420(4) 0.74161(17)
Cd4 Cd 0.73472(5) 0.25815(3) 0.761520(14)
O1 O 0.7683(5) 0.8832(3) 0.98831(12)
N1 N 0.4222(5) 0.8321(4) 0.81487(15)
C1 C 0.4060(7) 0.9567(5) 0.83138(19)
C3 C 0.5904(7) 0.9183(5) 0.90779(18)
C4 C 0.6125(7) 0.7896(5) 0.8903(2)
H3 H 0.6840 0.7303 0.9095
C5 C 0.5273(7) 0.7501(5) 0.8442(2)
H4 H 0.5429 0.6633 0.8328
C6 C 0.6710(7) 0.9671(5) 0.95620(18)
S2 S 0.5523(2) 0.81494(15) 0.68445(6)
C14 C 0.6178(7) 0.9477(5) 0.71810(19)
N8 N 0.1528(6) 0.9691(4) 0.72373(18)
N9 N 0.3412(6) 0.5420(4) 0.75839(17)
S1 S 0.9808(2) 0.72135(15) 0.79804(8)
C13 C 0.9038(7) 0.5722(5) 0.78545(19)
N5 N 0.8472(6) 0.4691(4) 0.77627(18)
O1_2 O 0.2317(5) 0.3832(3) 0.51169(12)
N1_2 N 0.5778(5) 0.3321(4) 0.68513(15)
N2_2 N 0.3350(6) 0.5868(4) 0.52518(15)
N3 N 0.2383(6) 0.5841(4) 0.47707(15)
C1_2 C 0.5940(7) 0.4567(5) 0.66862(19)
H1_2 H 0.6636 0.5151 0.6889
C2_2 C 0.5133(7) 0.5035(5) 0.62323(19)
H2_2 H 0.5281 0.5917 0.6133
C3_2 C 0.4096(7) 0.4183(5) 0.59221(18)
C4_2 C 0.3875(7) 0.2896(5) 0.6097(2)
H3_2 H 0.3160 0.2303 0.5905
C5_2 C 0.4727(7) 0.2501(5) 0.6558(2)
H4_2 H 0.4571 0.1633 0.6672
C6_2 C 0.3290(7) 0.4671(5) 0.54380(18)
C7 C 0.1798(7) 0.4643(5) 0.47082(19)
C8 C 0.0749(7) 0.4110(5) 0.42609(19)
C9 C 0.0244(7) 0.4967(5) 0.38534(19)
H5 H 0.0547 0.5865 0.3867
C12 C 0.0247(8) 0.2798(5) 0.4230(2)
H8 H 0.0547 0.2209 0.4499
S2_2 S 0.4477(2) 0.31494(15) 0.81555(6)
C14_2 C 0.3822(7) 0.4477(5) 0.78190(19)
N7 N 0.8820(6) 0.1823(4) 0.83909(15)
C10_2 C 0.9290(7) 0.0547(5) 0.84327(19)
C11_2 C 0.9279(8) 0.2629(5) 0.8787(2)
H7_2 H 0.8937 0.3518 0.8766
Cd1 Cd 0.26528(5) 0.74185(3) 0.238480(14)
O1_3 O 0.7683(5) 0.6168(3) 0.48831(12)
N1_3 N 0.4222(5) 0.6679(4) 0.31487(15)
N2_3 N 0.6650(6) 0.4132(4) 0.47482(15)
N3_2 N 0.7617(6) 0.4159(4) 0.52293(15)
C1_3 C 0.4060(7) 0.5433(5) 0.33138(19)
H1_3 H 0.3364 0.4849 0.3111
C2_3 C 0.4867(7) 0.4965(5) 0.37677(19)
H2_3 H 0.4719 0.4083 0.3867
C3_3 C 0.5904(7) 0.5817(5) 0.40779(18)
C4_3 C 0.6125(7) 0.7104(5) 0.3903(2)
H3_3 H 0.6840 0.7697 0.4095
C5_3 C 0.5273(7) 0.7499(5) 0.3442(2)
H4_3 H 0.5429 0.8367 0.3328
C6_3 C 0.6710(7) 0.5329(5) 0.45620(18)
C7_2 C 0.8202(7) 0.5357(5) 0.52918(19)
C8_2 C 0.9251(7) 0.5890(5) 0.57391(19)
C9_2 C 0.9756(7) 0.5033(5) 0.61466(19)
H5_2 H 0.9453 0.4135 0.6133
C12_2 C 0.9753(8) 0.7202(5) 0.5770(2)
H8_2 H 0.9453 0.7791 0.5501
S2_3 S 0.5523(2) 0.68506(15) 0.18445(6)
C14_3 C 0.6178(7) 0.5523(5) 0.21810(19)
N6_2 N 0.6588(6) 0.4580(4) 0.24161(17)
N7_2 N 0.1180(6) 0.8177(4) 0.16091(15)
N8_2 N 0.1528(6) 0.5309(4) 0.22373(18)
N9_2 N 0.3412(6) 0.9580(4) 0.25839(17)
Cd4_2 Cd 0.73472(5) 0.24185(3) 0.261520(14)
N5_2 N 0.8472(6) 0.0309(4) 0.27627(18)
C10_3 C 0.0710(7) 0.9453(5) 0.15673(19)
C11_3 C 0.0721(8) 0.7371(5) 0.1213(2)
H7_3 H 0.1063 0.6482 0.1234
N4_2 N 0.8820(6) 0.3177(4) 0.33909(15)
C10_4 C 0.9290(7) 0.4453(5) 0.34327(19)
H6_2 H 0.8951 0.5026 0.3161
C11_4 C 0.9279(8) 0.2371(5) 0.3787(2)
H7_4 H 0.8937 0.1482 0.3766
S1_2 S 0.0192(2) 0.27865(15) 0.20196(8)
C13_2 C 0.0962(7) 0.4278(5) 0.21455(19)
O1_4 O 0.2317(5) 0.1168(3) 0.01169(12)
N1_4 N 0.5778(5) 0.1679(4) 0.18513(15)
C1_4 C 0.5940(7) 0.0433(5) 0.16862(19)
C3_4 C 0.4096(7) 0.0817(5) 0.09221(18)
C4_4 C 0.3875(7) 0.2104(5) 0.1097(2)
H3_4 H 0.3160 0.2697 0.0905
C5_4 C 0.4727(7) 0.2499(5) 0.1558(2)
H4_4 H 0.4571 0.3367 0.1672
C6_4 C 0.3290(7) 0.0329(5) 0.04380(18)
S2_4 S 0.4477(2) 0.18506(15) 0.31555(6)
C14_4 C 0.3822(7) 0.0523(5) 0.28190(19)
N2_4 N 0.3350(6) 0.9132(4) 0.02518(15)
H1_4 H 0.6636 0.9849 0.1889
C2_4 C 0.5133(7) 0.9965(5) 0.12323(19)
H2_4 H 0.5281 0.9083 0.1133
S1_3 S 0.9808(2) 0.77865(15) 0.29804(8)
C13_3 C 0.9038(7) 0.9278(5) 0.28545(19)
H6_3 H 0.1049 0.0026 0.1839
N3_3 N 0.7617(6) 0.0841(4) 0.02293(15)
H5_3 H 0.9453 0.0865 0.1133
C7_3 C 0.8202(7) 0.9643(5) 0.02918(19)
C8_3 C 0.9251(7) 0.9110(5) 0.07391(19)
C9_3 C 0.9756(7) 0.9967(5) 0.11466(19)
C12_3 C 0.9753(8) 0.7798(5) 0.0770(2)
H8_3 H 0.9453 0.7209 0.0501
S1_4 S 0.0192(2) 0.22135(15) 0.70196(8)
C13_4 C 0.0962(7) 0.0722(5) 0.71455(19)
C7_4 C 0.1798(7) 0.0357(5) 0.97082(19)
C8_4 C 0.0749(7) 0.0890(5) 0.92609(19)
C9_4 C 0.0244(7) 0.0033(5) 0.88534(19)
C12_4 C 0.0247(8) 0.2202(5) 0.9230(2)
H8_4 H 0.0547 0.2791 0.9499
N3_4 N 0.2383(6) 0.9159(4) 0.97707(15)
H5_4 H 0.0547 0.9135 0.8867
H6_4 H 0.8951 0.9974 0.8161
loop_
_geom_bond_atom_site_label_1
_geom_bond_atom_site_label_2
_geom_bond_site_symmetry_1
_geom_bond_site_symmetry_2
N4 C10 1_555 1_555
H6 C10 1_555 1_555
C11 N4 1_555 1_555
H7 C11 1_555 1_555
Cd2 N4 1_555 1_555
H2 C2 1_555 1_555
Cd4 N6 1_555 1_555
Cd2 N1 1_555 1_555
O1 C6 1_555 1_555
N1 C1 1_555 1_555
C4 C3 1_555 1_555
H3 C4 1_555 1_555
C5 N1 1_555 1_555
H4 C5 1_555 1_555
S2 Cd2 1_555 1_555
C14 S2 1_555 1_555
N8 Cd2 1_555 1_555
N9 Cd2 1_555 1_555
C3 C6 1_555 1_555
C4 C5 1_555 1_555
C13 S1 1_555 1_555
N5 C13 1_555 1_555
Cd4 N5 1_555 1_555
Cd4 N1_2 1_555 1_555
O1_2 C6_2 1_555 1_555
N1_2 C1_2 1_555 1_555
N2_2 N3 1_555 1_555
N3 C7 1_555 1_555
C1_2 H1_2 1_555 1_555
C2_2 C1_2 1_555 1_555
H2_2 C2_2 1_555 1_555
C3_2 C2_2 1_555 1_555
C4_2 C3_2 1_555 1_555
H3_2 C4_2 1_555 1_555
C5_2 N1_2 1_555 1_555
H4_2 C5_2 1_555 1_555
C6_2 N2_2 1_555 1_555
C7 O1_2 1_555 1_555
C8 C7 1_555 1_555
C9 C8 1_555 1_555
H5 C9 1_555 1_555
C12 C8 1_555 1_555
H8 C12 1_555 1_555
S2_2 Cd4 1_555 1_555
C14_2 S2_2 1_555 1_555
N9 C14_2 1_555 1_555
N7 Cd4 1_555 1_555
C3_2 C6_2 1_555 1_555
C4_2 C5_2 1_555 1_555
N7 C10_2 1_555 1_555
C11_2 N7 1_555 1_555
H7_2 C11_2 1_555 1_555
Cd1 N1_3 1_555 1_555
O1_3 C6_3 1_555 1_555
N1_3 C1_3 1_555 1_555
N2_3 N3_2 1_555 1_555
N3_2 C7_2 1_555 1_555
C1_3 H1_3 1_555 1_555
C2_3 C1_3 1_555 1_555
H2_3 C2_3 1_555 1_555
C3_3 C2_3 1_555 1_555
C4_3 C3_3 1_555 1_555
H3_3 C4_3 1_555 1_555
C5_3 N1_3 1_555 1_555
H4_3 C5_3 1_555 1_555
C6_3 N2_3 1_555 1_555
C7_2 O1_3 1_555 1_555
C8_2 C7_2 1_555 1_555
C9_2 C8_2 1_555 1_555
H5_2 C9_2 1_555 1_555
C12_2 C8_2 1_555 1_555
H8_2 C12_2 1_555 1_555
S2_3 Cd1 1_555 1_555
C14_3 S2_3 1_555 1_555
N6_2 C14_3 1_555 1_555
N7_2 Cd1 1_555 1_555
N8_2 Cd1 1_555 1_555
N9_2 Cd1 1_555 1_555
Cd4_2 N6_2 1_555 1_555
C3_3 C6_3 1_555 1_555
C4_3 C5_3 1_555 1_555
Cd4_2 N5_2 1_555 1_555
N7_2 C10_3 1_555 1_555
C11_3 N7_2 1_555 1_555
H7_3 C11_3 1_555 1_555
N4_2 C10_4 1_555 1_555
H6_2 C10_4 1_555 1_555
C11_4 N4_2 1_555 1_555
H7_4 C11_4 1_555 1_555
Cd4_2 N4_2 1_555 1_555
C13_2 S1_2 1_555 1_555
N8_2 C13_2 1_555 1_555
Cd4_2 N1_4 1_555 1_555
O1_4 C6_4 1_555 1_555
N1_4 C1_4 1_555 1_555
C4_4 C3_4 1_555 1_555
H3_4 C4_4 1_555 1_555
C5_4 N1_4 1_555 1_555
H4_4 C5_4 1_555 1_555
S2_4 Cd4_2 1_555 1_555
C14_4 S2_4 1_555 1_555
C3_4 C6_4 1_555 1_555
C4_4 C5_4 1_555 1_555
H2_4 C2_4 1_555 1_555
C13_3 S1_3 1_555 1_555
C8_3 C7_3 1_555 1_555
C9_3 C8_3 1_555 1_555
C12_3 C8_3 1_555 1_555
H8_3 C12_3 1_555 1_555
C13_4 S1_4 1_555 1_555
C8_4 C7_4 1_555 1_555
C9_4 C8_4 1_555 1_555
C12_4 C8_4 1_555 1_555
H8_4 C12_4 1_555 1_555

#END
