
###############################################################################
#
# This file contains modified crystal structure data generated from the
# MOF subset of the Cambridge Structural Database (CSD) v543 
# hosted by the Cambridge Crystallographic Data Centre (CCDC).
#
# This work is licensed under the Creative Commons
# Attribution-NonCommercial-ShareAlike 4.0 International License.
# To view a copy of this license, visit
# http://creativecommons.org/licenses/by-nc-sa/4.0/
# or send a letter to
# Creative Commons, PO Box 1866, Mountain View, CA 94042, USA.
#
# CIF created using the CSD Python API on 29 September 2022
# The structure has been converted into the P1 space group
# The structure has a 3D framework
# The original CSD entry UHAXOS is in the monoclinic crystal system
# The framework has been calculated to contain at least 10.0% void space
# The void calculation uses a probe of radius 1.32A, grid spacing 0.4
# The framework is charged, counterions have been retained in the structure
# H atom positions have been added when not included in the experimental data
# Generated hydrogen atom positions removed from atoms on special positions
#
###############################################################################

data_UHAXOS
_chemical_formula_moiety         '(C28 H140 Er48 O206 S28 1-)n'
_symmetry_cell_setting           triclinic
_symmetry_space_group_name_H-M   'P 1'
_symmetry_Int_Tables_number      1
_space_group_name_Hall           'P 1'
loop_
_symmetry_equiv_pos_site_id
_symmetry_equiv_pos_as_xyz
1 x,y,z
_cell_length_a                   14.0296(4)
_cell_length_b                   23.8117(7)
_cell_length_c                   18.3099(5)
_cell_angle_alpha                90
_cell_angle_beta                 100.04
_cell_angle_gamma                90
_cell_volume                     6023.09
loop_
_atom_site_label
_atom_site_type_symbol
_atom_site_fract_x
_atom_site_fract_y
_atom_site_fract_z
O116 O 0.0180(4) 0.6555(3) 0.2728(3)
O125 O 0.0313(5) 0.7738(3) 0.3376(4)
O126 O 0.0546(5) 0.6965(3) 0.4241(4)
Er40 Er 0.15566(3) 0.70871(2) 0.32822(3)
Er42 Er 0.08083(3) 0.789326(19) 0.47172(2)
C6 C 0.0175(8) 0.5243(5) 0.0274(6)
H11 H 0.0848 0.5183 0.0493
H12 H 0.0132 0.5596 0.0004
O71 O 0.1052(4) 0.7398(3) 0.2014(3)
O72 O 0.1208(4) 0.6611(3) 0.0854(3)
Er23 Er 0.24811(3) 0.70965(2) 0.16079(3)
O77 O 0.3980(5) 0.6730(3) 0.2135(4)
O78 O 0.2894(4) 0.7480(3) 0.2896(3)
O79 O 0.2176(6) 0.6491(3) 0.2505(4)
O80 O 0.1782(4) 0.7690(3) 0.0594(3)
O81 O 0.3465(5) 0.7873(3) 0.1559(4)
O82 O 0.3583(5) 0.7067(3) 0.0722(4)
O85 O 0.2868(5) 0.6617(3) 0.4059(4)
O86 O 0.2232(4) 0.7666(3) 0.4299(4)
Er27 Er 0.40955(3) 0.686785(19) 0.33609(2)
Er28 Er 0.49106(3) 0.73906(2) 0.16483(2)
Er30 Er 0.32224(3) 0.708734(19) 0.51822(2)
O87 O 0.4392(4) 0.7386(3) 0.4424(3)
O88 O 0.5052(5) 0.7581(3) 0.2913(3)
O89 O 0.5792(5) 0.6720(3) 0.3903(3)
O90 O 0.4255(5) 0.5909(3) 0.3414(4)
O91 O 0.5946(4) 0.6737(3) 0.2245(3)
O92 O 0.6575(5) 0.7681(3) 0.2038(3)
O93 O 0.4861(4) 0.8098(3) 0.0737(4)
O94 O 0.5791(5) 0.7042(3) 0.0730(4)
O95 O 0.1782(4) 0.7310(3) 0.5594(3)
O96 O 0.1392(5) 0.8785(3) 0.4309(4)
O98 O 0.1208(4) 0.8389(3) 0.5854(3)
O100 O 0.4861(4) 0.6902(3) 0.5737(4)
O101 O 0.3465(5) 0.7127(3) 0.6559(4)
O102 O 0.3583(5) 0.7933(3) 0.5722(4)
O103 O 0.2952(6) 0.6159(3) 0.5537(4)
Er31 Er 0.59523(3) 0.717061(19) 0.50348(2)
Er32 Er 0.66747(3) 0.728739(19) 0.32304(2)
S7 S 0.4872(2) 0.55475(12) 0.39447(17)
Er33 Er 0.72610(3) 0.691278(19) 0.15476(2)
Er34 Er 0.24811(3) 0.79035(2) 0.66079(3)
Er35 Er 0.49106(3) 0.76094(2) 0.66483(2)
O104 O 0.6521(5) 0.7815(3) 0.4272(3)
O105 O 0.6583(5) 0.6263(3) 0.5384(4)
O106 O 0.7467(4) 0.7402(3) 0.5641(4)
O107 O 0.5791(5) 0.7958(3) 0.5730(4)
O108 O 0.8068(5) 0.7060(3) 0.4246(4)
O109 O 0.8084(4) 0.7826(3) 0.3398(4)
O110 O 0.7773(5) 0.6635(3) 0.2759(3)
O111 O 0.5863(6) 0.5555(4) 0.3818(7)
O112 O 0.4795(8) 0.5674(4) 0.4701(5)
C7 C 0.4420(9) 0.4866(5) 0.3738(6)
O113 O 0.8828(4) 0.7302(3) 0.2044(3)
O114 O 0.5946(4) 0.8263(3) 0.7245(3)
O115 O 0.6575(5) 0.7319(3) 0.7038(3)
Er36 Er 0.99036(3) 0.67588(2) 0.14833(2)
Er37 Er 0.81711(3) 0.796368(19) 0.47335(2)
Er38 Er 0.72610(3) 0.808722(19) 0.65476(2)
Er39 Er 0.91318(3) 0.70323(2) 0.33568(3)
H13 H 0.3810 0.4821 0.3912
H14 H 0.4873 0.4592 0.3992
C8 C 0.4266(9) 0.4760(5) 0.2891(6)
O117 O 0.8348(5) 0.8462(3) 0.5860(4)
O118 O 0.9627(4) 0.7638(3) 0.5453(3)
O119 O 0.9468(4) 0.8437(3) 0.4498(4)
O120 O 0.7464(5) 0.8877(3) 0.4412(4)
O121 O 0.6861(5) 0.9023(3) 0.6375(4)
O122 O 0.8828(4) 0.7698(3) 0.7044(3)
O123 O 0.7773(5) 0.8365(3) 0.7759(3)
O124 O 0.9118(5) 0.6093(3) 0.3873(4)
S8 S 0.4014(2) 0.40374(12) 0.27006(15)
H15 H 0.3732 0.4987 0.2644
H16 H 0.4844 0.4868 0.2701
Er41 Er 0.99036(3) 0.82412(2) 0.64833(2)
S9 S 0.6010(2) 0.93790(13) 0.6250(2)
O127 O 0.4896(6) 0.3722(3) 0.2988(4)
O128 O 0.3216(5) 0.3882(3) 0.3103(4)
O129 O 0.3736(6) 0.3993(4) 0.1904(4)
O130 O 0.5551(10) 0.9382(5) 0.6907(8)
O131 O 0.5383(13) 0.9246(5) 0.5613(9)
H48 H 0.263885 0.41172 0.292131
O23 O 0.0373(4) 0.2362(3) 0.4547(3)
O25 O 0.0532(4) 0.1563(3) 0.5502(4)
Er11 Er 0.08682(3) 0.29677(2) 0.66432(3)
Er12 Er 0.00964(3) 0.32412(2) 0.85167(2)
O38 O 0.0105(5) 0.4233(3) 0.8566(4)
S3 S 0.0522(2) 0.47130(11) 0.90198(16)
O42 O 0.0412(6) 0.5235(3) 0.8608(4)
O43 O 0.1505(5) 0.4612(3) 0.9391(5)
O61 O 0.1172(4) 0.2698(3) 0.7956(3)
O62 O 0.1652(5) 0.3462(3) 0.9140(4)
O63 O 0.0373(4) 0.2638(3) 0.9547(3)
Er25 Er 0.08083(3) 0.710674(19) 0.97172(2)
Er15 Er 0.91917(3) 0.289326(19) 0.02828(2)
S6 S 0.9478(2) 0.52870(11) 0.09802(16)
O68 O 0.9895(5) 0.5767(3) 0.1434(4)
O69 O 0.9588(6) 0.4765(3) 0.1392(4)
O70 O 0.8495(5) 0.5388(3) 0.0609(5)
O73 O 0.8348(5) 0.6538(3) 0.0860(4)
O75 O 0.9627(4) 0.7362(3) 0.0453(3)
Er1 Er 0.67776(3) 0.291266(19) 0.48178(2)
O1 O 0.5608(4) 0.2614(3) 0.5576(3)
O2 O 0.5139(4) 0.3098(3) 0.4263(4)
O3 O 0.8218(4) 0.2690(3) 0.4406(3)
O4 O 0.6535(5) 0.2873(3) 0.3441(4)
O5 O 0.6417(5) 0.2067(3) 0.4278(4)
O6 O 0.7132(5) 0.3383(3) 0.5941(4)
O7 O 0.7768(4) 0.2334(3) 0.5701(4)
O8 O 0.7048(6) 0.3841(3) 0.4463(4)
Er2 Er 0.59045(3) 0.313215(19) 0.66391(2)
Er3 Er 0.40477(3) 0.282939(19) 0.49652(2)
Er4 Er 0.50894(3) 0.23906(2) 0.33517(2)
Er5 Er 0.91917(3) 0.210674(19) 0.52828(2)
Er6 Er 0.75189(3) 0.20965(2) 0.33921(3)
Er7 Er 0.84434(3) 0.29129(2) 0.67178(3)
O9 O 0.6020(5) 0.3270(3) 0.7865(4)
O10 O 0.4948(5) 0.2419(3) 0.7087(3)
O11 O 0.4208(5) 0.3280(3) 0.6097(3)
O12 O 0.5745(5) 0.4091(3) 0.6586(4)
O13 O 0.7106(4) 0.2520(3) 0.7104(3)
O14 O 0.3479(5) 0.2185(3) 0.5728(3)
O15 O 0.3417(5) 0.3737(3) 0.4616(4)
O16 O 0.2533(4) 0.2598(3) 0.4359(4)
O17 O 0.4209(5) 0.2042(3) 0.4270(4)
O18 O 0.4054(4) 0.1737(3) 0.2755(3)
O19 O 0.3425(5) 0.2681(3) 0.2962(3)
O20 O 0.9687(5) 0.2262(3) 0.6624(4)
O21 O 0.9454(5) 0.3035(3) 0.5759(4)
O22 O 0.8608(5) 0.1215(3) 0.5691(4)
O24 O 0.8792(4) 0.1611(3) 0.4146(3)
O26 O 0.8948(4) 0.2602(3) 0.7986(3)
O27 O 0.7824(6) 0.3509(3) 0.7495(4)
O28 O 0.9820(4) 0.3445(3) 0.7272(3)
Er8 Er 0.33253(3) 0.271261(19) 0.67696(2)
S1 S 0.5128(2) 0.44525(12) 0.60553(17)
Er9 Er 0.18289(3) 0.203632(19) 0.52665(2)
Er10 Er 0.27390(3) 0.191278(19) 0.34524(2)
O29 O 0.1932(5) 0.2940(3) 0.5754(4)
O30 O 0.1916(4) 0.2174(3) 0.6602(4)
O31 O 0.2227(5) 0.3365(3) 0.7241(3)
O32 O 0.4137(6) 0.4445(4) 0.6182(7)
O33 O 0.5205(8) 0.4326(4) 0.5299(5)
C1 C 0.5580(9) 0.5134(5) 0.6262(6)
O34 O 0.1652(5) 0.1538(3) 0.4140(4)
O35 O 0.2536(5) 0.1123(3) 0.5588(4)
O36 O 0.3139(5) 0.0977(3) 0.3625(4)
O37 O 0.1172(4) 0.2302(3) 0.2956(3)
H1 H 0.6190 0.5179 0.6088
H2 H 0.5127 0.5408 0.6008
C2 C 0.5734(9) 0.5240(5) 0.7109(6)
S2 S 0.3990(2) 0.06210(13) 0.3750(2)
O39 O 0.0882(5) 0.3907(3) 0.6127(4)
S4 S 0.5986(2) 0.59626(12) 0.72994(15)
H3 H 0.6268 0.5013 0.7356
H4 H 0.5156 0.5132 0.7299
O40 O 0.4449(10) 0.0618(5) 0.3093(8)
O41 O 0.4617(13) 0.0754(5) 0.4387(9)
C4 C 0.9825(8) 0.4757(5) 0.9726(6)
O44 O 0.5104(6) 0.6278(3) 0.7012(4)
O45 O 0.6784(5) 0.6118(3) 0.6897(4)
O46 O 0.6264(6) 0.6007(4) 0.8096(4)
H7 H 0.9152 0.4817 0.9507
H8 H 0.9868 0.4404 0.9996
Er13 Er 0.75189(3) 0.29035(2) 0.83921(3)
Er14 Er 0.50894(3) 0.26094(2) 0.83517(2)
O50 O 0.8792(4) 0.3389(3) 0.9146(3)
O51 O 0.8218(4) 0.2310(3) 0.9406(3)
O52 O 0.6535(5) 0.2127(3) 0.8441(4)
O53 O 0.6417(5) 0.2933(3) 0.9278(4)
O54 O 0.4054(4) 0.3263(3) 0.7755(3)
O55 O 0.3425(5) 0.2319(3) 0.7962(3)
O56 O 0.5139(4) 0.1902(3) 0.9263(4)
O57 O 0.4209(5) 0.2958(3) 0.9270(4)
O60 O 0.2227(5) 0.1635(3) 0.2241(3)
Er16 Er 0.27390(3) 0.308722(19) 0.84524(2)
Er18 Er 0.00964(3) 0.17588(2) 0.35167(2)
H35 H 0.657154 0.60545 0.635715
O65 O 0.0180(4) 0.8445(3) 0.7728(3)
O66 O 0.0313(5) 0.7262(3) 0.8376(4)
O67 O 0.0546(5) 0.8035(3) 0.9241(4)
Er21 Er 0.15566(3) 0.79129(2) 0.82822(3)
C1_2 C 0.4420(9) 0.0134(5) 0.8738(6)
H1_2 H 0.3810 0.0179 0.8912
H2_2 H 0.4873 0.0408 0.8992
C2_2 C 0.4266(9) 0.0240(5) 0.7891(6)
S4_2 S 0.4014(2) 0.09626(12) 0.77006(15)
H3_2 H 0.3732 0.0013 0.7644
H4_2 H 0.4844 0.0132 0.7701
O44_2 O 0.4896(6) 0.1278(3) 0.7988(4)
O45_2 O 0.3216(5) 0.1118(3) 0.8103(4)
O46_2 O 0.3736(6) 0.1007(4) 0.6904(4)
S6_2 S 0.0522(2) 0.02870(11) 0.40198(16)
O68_2 O 0.0105(5) 0.0767(3) 0.3566(4)
O70_2 O 0.1505(5) 0.0388(3) 0.4391(5)
Er26 Er 0.08682(3) 0.20323(2) 0.16432(3)
O99 O 0.0532(4) 0.3437(3) 0.0502(4)
H35_2 H 0.342846 0.10545 0.864285
Er1_2 Er 0.32224(3) 0.791266(19) 0.01822(2)
O8_2 O 0.2952(6) 0.8841(3) 0.0537(4)
Er3_2 Er 0.59523(3) 0.782939(19) 0.00348(2)
O15_2 O 0.6583(5) 0.8737(3) 0.0384(4)
O16_2 O 0.7467(4) 0.7598(3) 0.0641(4)
O36_2 O 0.6861(5) 0.5977(3) 0.1375(4)
S2_2 S 0.6010(2) 0.56210(13) 0.1250(2)
O40_2 O 0.5551(10) 0.5618(5) 0.1907(8)
C3 C 0.6450(8) 0.4940(5) 0.1204(8)
O41_2 O 0.5383(13) 0.5754(5) 0.0613(9)
C5 C 0.5644(8) 0.4508(4) 0.1081(7)
H5 H 0.6816 0.4917 0.0802
H6 H 0.6887 0.4855 0.1662
S5 S 0.6060(2) 0.38189(12) 0.10576(19)
H9 H 0.5218 0.4590 0.0617
H10 H 0.5267 0.4541 0.1476
O47 O 0.6658(6) 0.3794(4) 0.0487(5)
O48 O 0.5215(6) 0.3468(3) 0.0879(6)
O49 O 0.6629(8) 0.3688(4) 0.1789(6)
H27 H 0.619491 0.891265 0.0727383
H28 H 0.726708 0.870241 0.0635705
H36 H 0.621357 0.372706 0.217316
O1_2 O 0.4392(4) 0.7614(3) 0.9424(3)
O6_2 O 0.2868(5) 0.8383(3) 0.9059(4)
O7_2 O 0.2232(4) 0.7334(3) 0.9299(4)
Er2_2 Er 0.40955(3) 0.813215(19) 0.83609(2)
O9_2 O 0.3980(5) 0.8270(3) 0.7135(4)
O10_2 O 0.5052(5) 0.7419(3) 0.7913(3)
O11_2 O 0.5792(5) 0.8280(3) 0.8903(3)
O12_2 O 0.4255(5) 0.9091(3) 0.8414(4)
O13_2 O 0.2894(4) 0.7520(3) 0.7896(3)
O14_2 O 0.6521(5) 0.7185(3) 0.9272(3)
O22_2 O 0.1392(5) 0.6215(3) 0.9309(4)
O26_2 O 0.1052(4) 0.7602(3) 0.7014(3)
O27_2 O 0.2176(6) 0.8509(3) 0.7505(4)
Er8_2 Er 0.66747(3) 0.771261(19) 0.82304(2)
S1_2 S 0.4872(2) 0.94525(12) 0.89447(17)
Er9_2 Er 0.81711(3) 0.703632(19) 0.97335(2)
O29_2 O 0.8068(5) 0.7940(3) 0.9246(4)
O30_2 O 0.8084(4) 0.7174(3) 0.8398(4)
O32_2 O 0.5863(6) 0.9445(4) 0.8818(7)
O33_2 O 0.4795(8) 0.9326(4) 0.9701(5)
O35_2 O 0.7464(5) 0.6123(3) 0.9412(4)
O39_2 O 0.9118(5) 0.8907(3) 0.8873(4)
C4_2 C 0.0175(8) 0.9757(5) 0.5274(6)
H7_2 H 0.0848 0.9817 0.5493
H8_2 H 0.0132 0.9404 0.5004
O59 O 0.9468(4) 0.6563(3) 0.9498(4)
Er17 Er 0.91318(3) 0.79677(2) 0.83568(3)
O69_2 O 0.0412(6) 0.9765(3) 0.3608(4)
O42_2 O 0.9588(6) 0.0235(3) 0.6392(4)
C6_2 C 0.9825(8) 0.0243(5) 0.4726(6)
H11_2 H 0.9152 0.0183 0.4507
H12_2 H 0.9868 0.0596 0.4996
O71_2 O 0.8948(4) 0.2398(3) 0.2986(3)
O76 O 0.9820(4) 0.1555(3) 0.2272(3)
Er24 Er 0.84434(3) 0.20871(2) 0.17178(3)
O77_2 O 0.6020(5) 0.1730(3) 0.2865(4)
O78_2 O 0.7106(4) 0.2480(3) 0.2104(3)
O79_2 O 0.7824(6) 0.1491(3) 0.2495(4)
O83 O 0.9687(5) 0.2738(3) 0.1624(4)
O84 O 0.9454(5) 0.1965(3) 0.0759(4)
O85_2 O 0.7132(5) 0.1617(3) 0.0941(4)
O86_2 O 0.7768(4) 0.2666(3) 0.0701(4)
Er27_2 Er 0.59045(3) 0.186785(19) 0.16391(2)
O87_2 O 0.5608(4) 0.2386(3) 0.0576(3)
O88_2 O 0.4948(5) 0.2581(3) 0.2087(3)
O89_2 O 0.4208(5) 0.1720(3) 0.1097(3)
O90_2 O 0.5745(5) 0.0909(3) 0.1586(4)
O96_2 O 0.8608(5) 0.3785(3) 0.0691(4)
Er32_2 Er 0.33253(3) 0.228739(19) 0.17696(2)
S7_2 S 0.5128(2) 0.05475(12) 0.10553(17)
O104_2 O 0.3479(5) 0.2815(3) 0.0728(3)
O108_2 O 0.1932(5) 0.2060(3) 0.0754(4)
O109_2 O 0.1916(4) 0.2826(3) 0.1602(4)
O111_2 O 0.4137(6) 0.0555(4) 0.1182(7)
O112_2 O 0.5205(8) 0.0674(4) 0.0299(5)
Er37_2 Er 0.18289(3) 0.296368(19) 0.02665(2)
O120_2 O 0.2536(5) 0.3877(3) 0.0588(4)
O124_2 O 0.0882(5) 0.1093(3) 0.1127(4)
H43 H 0.344986 0.102541 0.00654025
Er30_2 Er 0.67776(3) 0.208734(19) 0.98178(2)
O103_2 O 0.7048(6) 0.1159(3) 0.9463(4)
Er31_2 Er 0.40477(3) 0.217061(19) 0.99652(2)
O105_2 O 0.3417(5) 0.1263(3) 0.9616(4)
O106_2 O 0.2533(4) 0.2402(3) 0.9359(4)
O121_2 O 0.3139(5) 0.4023(3) 0.8625(4)
S9_2 S 0.3990(2) 0.43790(13) 0.8750(2)
O130_2 O 0.4449(10) 0.4382(5) 0.8093(8)
C9 C 0.3550(8) 0.5060(5) 0.8796(8)
O131_2 O 0.4617(13) 0.4246(5) 0.9387(9)
C10 C 0.4356(8) 0.5492(4) 0.8919(7)
H17 H 0.3184 0.5083 0.9198
H18 H 0.3113 0.5145 0.8338
S10 S 0.3940(2) 0.61811(12) 0.89424(19)
H19 H 0.4782 0.5410 0.9383
H20 H 0.4733 0.5459 0.8524
O132 O 0.3342(6) 0.6206(4) 0.9513(5)
O133 O 0.4785(6) 0.6532(3) 0.9121(6)
O134 O 0.3371(8) 0.6312(4) 0.8211(6)
H44 H 0.273292 0.129759 0.936429
H47 H 0.281604 0.604841 0.810095
O38_2 O 0.9895(5) 0.9233(3) 0.6434(4)
S3_2 S 0.9478(2) 0.97130(11) 0.59802(16)
O43_2 O 0.8495(5) 0.9612(3) 0.5609(5)
C7_2 C 0.5580(9) 0.9866(5) 0.1262(6)
H13_2 H 0.6190 0.9821 0.1088
H14_2 H 0.5127 0.9592 0.1008
C8_2 C 0.5734(9) 0.9760(5) 0.2109(6)
S8_2 S 0.5986(2) 0.90374(12) 0.22994(15)
H15_2 H 0.6268 0.9987 0.2356
H16_2 H 0.5156 0.9868 0.2299
O127_2 O 0.5104(6) 0.8722(3) 0.2012(4)
O128_2 O 0.6784(5) 0.8882(3) 0.1897(4)
O129_2 O 0.6264(6) 0.8993(4) 0.3096(4)
H48_2 H 0.736115 0.91172 0.207869
H35_3 H 0.342846 0.39455 0.364285
H48_3 H 0.736115 0.58828 0.707869
H48_4 H 0.263885 0.0882801 0.792131
H47_2 H 0.718396 0.395159 0.189905
H43_2 H 0.655014 0.897459 0.99346
H27_2 H 0.380509 0.108735 0.927262
H36_2 H 0.378643 0.627294 0.782684
H35_4 H 0.657154 0.89455 0.135715
C9_2 C 0.6450(8) 0.0060(5) 0.6204(8)
C10_2 C 0.5644(8) 0.0492(4) 0.6081(7)
H17_2 H 0.6816 0.0083 0.5802
H18_2 H 0.6887 0.0145 0.6662
S10_2 S 0.6060(2) 0.11811(12) 0.60576(19)
H19_2 H 0.5218 0.0410 0.5617
H20_2 H 0.5267 0.0459 0.6476
O132_2 O 0.6658(6) 0.1206(4) 0.5487(5)
O133_2 O 0.5215(6) 0.1532(3) 0.5879(6)
O134_2 O 0.6629(8) 0.1312(4) 0.6789(6)
H47_3 H 0.718396 0.104841 0.689905
H36_3 H 0.621357 0.127294 0.717316
C3_2 C 0.3550(8) 0.9940(5) 0.3796(8)
C5_2 C 0.4356(8) 0.9508(4) 0.3919(7)
H5_2 H 0.3184 0.9917 0.4198
H6_2 H 0.3113 0.9855 0.3338
S5_2 S 0.3940(2) 0.88189(12) 0.39424(19)
H9_2 H 0.4782 0.9590 0.4383
H10_2 H 0.4733 0.9541 0.3524
O47_2 O 0.3342(6) 0.8794(4) 0.4513(5)
O48_2 O 0.4785(6) 0.8468(3) 0.4121(6)
O49_2 O 0.3371(8) 0.8688(4) 0.3211(6)
H36_4 H 0.378643 0.872706 0.282684
H47_4 H 0.281604 0.895159 0.310095
S12 S 0.0222(3) 0.13047(13) 0.8639(2)
O139 O 0.0804(11) 0.1489(5) 0.8168(11)
O140 O 0.0566(18) 0.1525(5) 0.9332(9)
C11 C 0.0302(9) 0.0569(5) 0.8725(8)
H22 H 0.0082 0.0399 0.8244
C12 C 0.1305(10) 0.0375(5) 0.9017(8)
H23 H 0.1507 0.0527 0.9510
H24 H 0.1736 0.0524 0.8703
S11 S 0.1427(2) 0.96388(12) 0.90575(19)
O135 O 0.2449(6) 0.9550(4) 0.9349(5)
O136 O 0.0790(6) 0.9427(4) 0.9538(5)
O138 O 0.1147(7) 0.9437(4) 0.8295(5)
O137 O 0.9251(9) 0.1445(5) 0.8410(10)
H21 H 0.9876 0.0442 0.9056
O137_2 O 0.0749(9) 0.6445(5) 0.6590(10)
H21_2 H 0.0124 0.5442 0.5944
S11_2 S 0.8573(2) 0.46388(12) 0.59425(19)
S12_2 S 0.9778(3) 0.63047(13) 0.6361(2)
O135_2 O 0.7551(6) 0.4550(4) 0.5651(5)
O136_2 O 0.9210(6) 0.4427(4) 0.5462(5)
O138_2 O 0.8853(7) 0.4437(4) 0.6705(5)
O139_2 O 0.9196(11) 0.6489(5) 0.6832(11)
O140_2 O 0.9434(18) 0.6525(5) 0.5668(9)
C11_2 C 0.9698(9) 0.5569(5) 0.6275(8)
H22_2 H 0.9918 0.5399 0.6756
C12_2 C 0.8695(10) 0.5375(5) 0.5983(8)
H23_2 H 0.8493 0.5527 0.5490
H24_2 H 0.8264 0.5524 0.6297
O137_3 O 0.0749(9) 0.8555(5) 0.1590(10)
H21_3 H 0.0124 0.9558 0.0944
S11_3 S 0.8573(2) 0.03612(12) 0.09425(19)
O135_3 O 0.7551(6) 0.0450(4) 0.0651(5)
O136_3 O 0.9210(6) 0.0573(4) 0.0462(5)
O138_3 O 0.8853(7) 0.0563(4) 0.1705(5)
S12_3 S 0.9778(3) 0.86953(13) 0.1361(2)
O139_3 O 0.9196(11) 0.8511(5) 0.1832(11)
O140_3 O 0.9434(18) 0.8475(5) 0.0668(9)
C11_3 C 0.9698(9) 0.9431(5) 0.1275(8)
H22_3 H 0.9918 0.9601 0.1756
C12_3 C 0.8695(10) 0.9625(5) 0.0983(8)
H23_3 H 0.8493 0.9473 0.0490
H24_3 H 0.8264 0.9476 0.1297
S11_4 S 0.1427(2) 0.53612(12) 0.40575(19)
S12_4 S 0.0222(3) 0.36953(13) 0.3639(2)
O135_4 O 0.2449(6) 0.5450(4) 0.4349(5)
O136_4 O 0.0790(6) 0.5573(4) 0.4538(5)
O138_4 O 0.1147(7) 0.5563(4) 0.3295(5)
O139_4 O 0.0804(11) 0.3511(5) 0.3168(11)
O140_4 O 0.0566(18) 0.3475(5) 0.4332(9)
C11_4 C 0.0302(9) 0.4431(5) 0.3725(8)
H22_4 H 0.0082 0.4601 0.3244
C12_4 C 0.1305(10) 0.4625(5) 0.4017(8)
H23_4 H 0.1507 0.4473 0.4510
H24_4 H 0.1736 0.4476 0.3703
O137_4 O 0.9251(9) 0.3555(5) 0.3410(10)
H21_4 H 0.9876 0.4558 0.4056
loop_
_geom_bond_atom_site_label_1
_geom_bond_atom_site_label_2
_geom_bond_site_symmetry_1
_geom_bond_site_symmetry_2
Er40 O116 1_555 1_555
O125 Er40 1_555 1_555
O125 Er42 1_555 1_555
O126 Er40 1_555 1_555
O126 Er42 1_555 1_555
H11 C6 1_555 1_555
H12 C6 1_555 1_555
Er23 O71 1_555 1_555
Er40 O71 1_555 1_555
O77 Er23 1_555 1_555
O78 Er23 1_555 1_555
O79 Er23 1_555 1_555
O80 Er23 1_555 1_555
O81 Er23 1_555 1_555
O82 Er23 1_555 1_555
O85 Er40 1_555 1_555
O86 Er40 1_555 1_555
Er27 O77 1_555 1_555
Er28 O77 1_555 1_555
Er30 O85 1_555 1_555
O87 Er27 1_555 1_555
O88 Er27 1_555 1_555
O89 Er27 1_555 1_555
O90 Er27 1_555 1_555
O91 Er28 1_555 1_555
O92 Er28 1_555 1_555
O93 Er28 1_555 1_555
O94 Er28 1_555 1_555
O95 Er42 1_555 1_555
O96 Er42 1_555 1_555
O98 Er42 1_555 1_555
O100 Er30 1_555 1_555
O101 Er30 1_555 1_555
O102 Er30 1_555 1_555
O103 Er30 1_555 1_555
Er31 O87 1_555 1_555
Er32 O88 1_555 1_555
S7 O90 1_555 1_555
Er33 O91 1_555 1_555
Er34 O95 1_555 1_555
Er35 O100 1_555 1_555
O104 Er31 1_555 1_555
O105 Er31 1_555 1_555
O106 Er31 1_555 1_555
O107 Er31 1_555 1_555
O108 Er32 1_555 1_555
O109 Er32 1_555 1_555
O110 Er32 1_555 1_555
O111 S7 1_555 1_555
O112 S7 1_555 1_555
C7 S7 1_555 1_555
O113 Er33 1_555 1_555
O114 Er35 1_555 1_555
O115 Er35 1_555 1_555
Er36 O113 1_555 1_555
Er37 O104 1_555 1_555
Er38 O106 1_555 1_555
Er39 O108 1_555 1_555
H13 C7 1_555 1_555
H14 C7 1_555 1_555
C8 C7 1_555 1_555
O117 Er37 1_555 1_555
O118 Er37 1_555 1_555
O119 Er37 1_555 1_555
O120 Er37 1_555 1_555
O121 Er38 1_555 1_555
O122 Er38 1_555 1_555
O123 Er38 1_555 1_555
O124 Er39 1_555 1_555
S8 C8 1_555 1_555
H15 C8 1_555 1_555
H16 C8 1_555 1_555
Er41 O117 1_555 1_555
S9 O121 1_555 1_555
O127 S8 1_555 1_555
O128 S8 1_555 1_555
O129 S8 1_555 1_555
O130 S9 1_555 1_555
O131 S9 1_555 1_555
O72 Er23 1_555 1_555
Er40 O78 1_555 1_555
Er40 O79 1_555 1_555
O78 Er27 1_555 1_555
O81 Er28 1_555 1_555
O82 Er28 1_555 1_555
O85 Er27 1_555 1_555
O86 Er42 1_555 1_555
O86 Er30 1_555 1_555
Er28 O88 1_555 1_555
Er30 O87 1_555 1_555
Er30 O95 1_555 1_555
O89 Er31 1_555 1_555
O89 Er32 1_555 1_555
O91 Er32 1_555 1_555
O92 Er32 1_555 1_555
O92 Er33 1_555 1_555
O94 Er33 1_555 1_555
O98 Er34 1_555 1_555
O100 Er31 1_555 1_555
O101 Er34 1_555 1_555
O101 Er35 1_555 1_555
O102 Er34 1_555 1_555
O102 Er35 1_555 1_555
Er32 O104 1_555 1_555
Er33 O110 1_555 1_555
Er35 O107 1_555 1_555
O106 Er37 1_555 1_555
O107 Er38 1_555 1_555
O108 Er37 1_555 1_555
O109 Er37 1_555 1_555
O109 Er39 1_555 1_555
O110 Er39 1_555 1_555
O113 Er39 1_555 1_555
O114 Er38 1_555 1_555
O115 Er38 1_555 1_555
Er38 O117 1_555 1_555
O118 Er41 1_555 1_555
O122 Er41 1_555 1_555
O128 H48 1_555 1_555
O38 Er12 1_555 1_555
S3 O38 1_555 1_555
O42 S3 1_555 1_555
O43 S3 1_555 1_555
O61 Er11 1_555 1_555
O62 Er12 1_555 1_555
O63 Er12 1_555 1_555
Er12 O61 1_555 1_555
O68 S6 1_555 1_555
O69 S6 1_555 1_555
O70 S6 1_555 1_555
Er36 O68 1_555 1_555
O73 Er36 1_555 1_555
O75 Er36 1_555 1_555
Er1 O1 1_555 1_555
O1 Er2 1_555 1_555
O2 Er1 1_555 1_555
O3 Er1 1_555 1_555
O4 Er1 1_555 1_555
O5 Er1 1_555 1_555
O6 Er1 1_555 1_555
O7 Er1 1_555 1_555
O8 Er1 1_555 1_555
Er2 O6 1_555 1_555
Er3 O1 1_555 1_555
Er4 O2 1_555 1_555
Er5 O3 1_555 1_555
Er6 O3 1_555 1_555
Er7 O6 1_555 1_555
O9 Er2 1_555 1_555
O10 Er2 1_555 1_555
O11 Er2 1_555 1_555
O12 Er2 1_555 1_555
O13 Er2 1_555 1_555
O14 Er3 1_555 1_555
O15 Er3 1_555 1_555
O16 Er3 1_555 1_555
O17 Er3 1_555 1_555
O18 Er4 1_555 1_555
O19 Er4 1_555 1_555
O20 Er5 1_555 1_555
O21 Er5 1_555 1_555
O22 Er5 1_555 1_555
O24 Er5 1_555 1_555
O26 Er7 1_555 1_555
O27 Er7 1_555 1_555
O28 Er7 1_555 1_555
Er8 O10 1_555 1_555
S1 O12 1_555 1_555
Er9 O14 1_555 1_555
Er10 O16 1_555 1_555
O29 Er8 1_555 1_555
O30 Er8 1_555 1_555
O31 Er8 1_555 1_555
O32 S1 1_555 1_555
O33 S1 1_555 1_555
C1 S1 1_555 1_555
O34 Er9 1_555 1_555
O35 Er9 1_555 1_555
O36 Er10 1_555 1_555
O37 Er10 1_555 1_555
H1 C1 1_555 1_555
H2 C1 1_555 1_555
C2 C1 1_555 1_555
S2 O36 1_555 1_555
O39 Er11 1_555 1_555
S4 C2 1_555 1_555
H3 C2 1_555 1_555
H4 C2 1_555 1_555
O40 S2 1_555 1_555
O41 S2 1_555 1_555
O44 S4 1_555 1_555
O45 S4 1_555 1_555
O46 S4 1_555 1_555
H7 C4 1_555 1_555
H8 C4 1_555 1_555
Er13 O9 1_555 1_555
Er14 O9 1_555 1_555
O51 Er13 1_555 1_555
O52 Er13 1_555 1_555
O53 Er13 1_555 1_555
O54 Er8 1_555 1_555
O55 Er8 1_555 1_555
O56 Er14 1_555 1_555
O57 Er14 1_555 1_555
O23 Er9 1_555 1_555
O25 Er9 1_555 1_555
O60 Er10 1_555 1_555
Er16 O31 1_555 1_555
Er11 O29 1_555 1_555
Er18 O34 1_555 1_555
O61 Er16 1_555 1_555
O2 Er3 1_555 1_555
O4 Er4 1_555 1_555
O4 Er6 1_555 1_555
O5 Er4 1_555 1_555
O5 Er6 1_555 1_555
O7 Er5 1_555 1_555
O7 Er7 1_555 1_555
Er3 O11 1_555 1_555
Er4 O17 1_555 1_555
Er6 O24 1_555 1_555
Er7 O13 1_555 1_555
Er7 O20 1_555 1_555
Er7 O21 1_555 1_555
O10 Er14 1_555 1_555
O11 Er8 1_555 1_555
O13 Er13 1_555 1_555
O14 Er8 1_555 1_555
O16 Er9 1_555 1_555
O17 Er10 1_555 1_555
O18 Er10 1_555 1_555
O19 Er10 1_555 1_555
O26 Er13 1_555 1_555
O27 Er13 1_555 1_555
Er9 O29 1_555 1_555
Er9 O30 1_555 1_555
Er10 O34 1_555 1_555
O30 Er11 1_555 1_555
O31 Er11 1_555 1_555
O37 Er18 1_555 1_555
Er13 O50 1_555 1_555
Er14 O52 1_555 1_555
Er14 O53 1_555 1_555
Er14 O54 1_555 1_555
Er14 O55 1_555 1_555
O54 Er16 1_555 1_555
O55 Er16 1_555 1_555
O57 Er16 1_555 1_555
O23 Er18 1_555 1_555
O45 H35 1_555 1_555
Er21 O65 1_555 1_555
Er25 O66 1_555 1_555
Er25 O67 1_555 1_555
O66 Er21 1_555 1_555
O67 Er21 1_555 1_555
H1_2 C1_2 1_555 1_555
H2_2 C1_2 1_555 1_555
C2_2 C1_2 1_555 1_555
S4_2 C2_2 1_555 1_555
H3_2 C2_2 1_555 1_555
H4_2 C2_2 1_555 1_555
O44_2 S4_2 1_555 1_555
O45_2 S4_2 1_555 1_555
O46_2 S4_2 1_555 1_555
O68_2 S6_2 1_555 1_555
O70_2 S6_2 1_555 1_555
Er18 O68_2 1_555 1_555
Er26 O37 1_555 1_555
O45_2 H35_2 1_555 1_555
O93 Er1_2 1_555 1_555
O80 Er1_2 1_555 1_555
O81 Er1_2 1_555 1_555
O82 Er1_2 1_555 1_555
O8_2 Er1_2 1_555 1_555
O15_2 Er3_2 1_555 1_555
O16_2 Er3_2 1_555 1_555
O94 Er3_2 1_555 1_555
Er33 O16_2 1_555 1_555
O36_2 Er33 1_555 1_555
S2_2 O36_2 1_555 1_555
O40_2 S2_2 1_555 1_555
C3 S2_2 1_555 1_555
O41_2 S2_2 1_555 1_555
C5 C3 1_555 1_555
H5 C3 1_555 1_555
H6 C3 1_555 1_555
S5 C5 1_555 1_555
H9 C5 1_555 1_555
H10 C5 1_555 1_555
O47 S5 1_555 1_555
O48 S5 1_555 1_555
O49 S5 1_555 1_555
O93 Er3_2 1_555 1_555
Er33 O73 1_555 1_555
O15_2 H27 1_555 1_555
O15_2 H28 1_555 1_555
O49 H36 1_555 1_555
O1_2 Er2_2 1_555 1_555
Er2_2 O6_2 1_555 1_555
Er21 O6_2 1_555 1_555
O9_2 Er2_2 1_555 1_555
O10_2 Er2_2 1_555 1_555
O11_2 Er2_2 1_555 1_555
O12_2 Er2_2 1_555 1_555
O13_2 Er2_2 1_555 1_555
O22_2 Er25 1_555 1_555
O26_2 Er21 1_555 1_555
O27_2 Er21 1_555 1_555
Er8_2 O10_2 1_555 1_555
S1_2 O12_2 1_555 1_555
Er9_2 O14_2 1_555 1_555
O29_2 Er8_2 1_555 1_555
O30_2 Er8_2 1_555 1_555
O123 Er8_2 1_555 1_555
O32_2 S1_2 1_555 1_555
O33_2 S1_2 1_555 1_555
O35_2 Er9_2 1_555 1_555
O39_2 Er17 1_555 1_555
H7_2 C4_2 1_555 1_555
H8_2 C4_2 1_555 1_555
Er34 O9_2 1_555 1_555
Er35 O9_2 1_555 1_555
O114 Er8_2 1_555 1_555
O115 Er8_2 1_555 1_555
O59 Er9_2 1_555 1_555
Er17 O29_2 1_555 1_555
O7_2 Er25 1_555 1_555
O7_2 Er21 1_555 1_555
Er21 O13_2 1_555 1_555
O10_2 Er35 1_555 1_555
O11_2 Er8_2 1_555 1_555
O13_2 Er34 1_555 1_555
O14_2 Er8_2 1_555 1_555
O26_2 Er34 1_555 1_555
O27_2 Er34 1_555 1_555
Er9_2 O29_2 1_555 1_555
Er9_2 O30_2 1_555 1_555
O30_2 Er17 1_555 1_555
O123 Er17 1_555 1_555
Er17 O122 1_555 1_555
H11_2 C6_2 1_555 1_555
H12_2 C6_2 1_555 1_555
Er6 O71_2 1_555 1_555
Er24 O71_2 1_555 1_555
O77_2 Er6 1_555 1_555
O78_2 Er6 1_555 1_555
O79_2 Er6 1_555 1_555
O83 Er24 1_555 1_555
O84 Er24 1_555 1_555
O85_2 Er24 1_555 1_555
O86_2 Er24 1_555 1_555
Er27_2 O77_2 1_555 1_555
Er4 O77_2 1_555 1_555
Er15 O83 1_555 1_555
O87_2 Er27_2 1_555 1_555
O88_2 Er27_2 1_555 1_555
O89_2 Er27_2 1_555 1_555
O90_2 Er27_2 1_555 1_555
O96_2 Er15 1_555 1_555
Er32_2 O88_2 1_555 1_555
S7_2 O90_2 1_555 1_555
O108_2 Er32_2 1_555 1_555
O109_2 Er32_2 1_555 1_555
O60 Er32_2 1_555 1_555
O111_2 S7_2 1_555 1_555
O112_2 S7_2 1_555 1_555
Er37_2 O104_2 1_555 1_555
Er26 O108_2 1_555 1_555
O99 Er37_2 1_555 1_555
O120_2 Er37_2 1_555 1_555
O124_2 Er26 1_555 1_555
O76 Er24 1_555 1_555
Er24 O78_2 1_555 1_555
Er24 O79_2 1_555 1_555
O78_2 Er27_2 1_555 1_555
O84 Er15 1_555 1_555
O85_2 Er27_2 1_555 1_555
O86_2 Er15 1_555 1_555
Er4 O88_2 1_555 1_555
O89_2 Er32_2 1_555 1_555
O18 Er32_2 1_555 1_555
O19 Er32_2 1_555 1_555
Er32_2 O104_2 1_555 1_555
O108_2 Er37_2 1_555 1_555
O109_2 Er37_2 1_555 1_555
O109_2 Er26 1_555 1_555
O60 Er26 1_555 1_555
O56 Er30_2 1_555 1_555
O52 Er30_2 1_555 1_555
O53 Er30_2 1_555 1_555
O103_2 Er30_2 1_555 1_555
O105_2 Er31_2 1_555 1_555
O106_2 Er31_2 1_555 1_555
O57 Er31_2 1_555 1_555
Er16 O106_2 1_555 1_555
O121_2 Er16 1_555 1_555
S9_2 O121_2 1_555 1_555
O130_2 S9_2 1_555 1_555
C9 S9_2 1_555 1_555
O131_2 S9_2 1_555 1_555
C10 C9 1_555 1_555
H17 C9 1_555 1_555
H18 C9 1_555 1_555
S10 C10 1_555 1_555
H19 C10 1_555 1_555
H20 C10 1_555 1_555
O132 S10 1_555 1_555
O133 S10 1_555 1_555
O134 S10 1_555 1_555
Er30_2 O51 1_555 1_555
O56 Er31_2 1_555 1_555
Er16 O62 1_555 1_555
O105_2 H44 1_555 1_555
O134 H47 1_555 1_555
O38_2 Er41 1_555 1_555
S3_2 O38_2 1_555 1_555
O43_2 S3_2 1_555 1_555
H13_2 C7_2 1_555 1_555
H14_2 C7_2 1_555 1_555
C8_2 C7_2 1_555 1_555
S8_2 C8_2 1_555 1_555
H15_2 C8_2 1_555 1_555
H16_2 C8_2 1_555 1_555
O127_2 S8_2 1_555 1_555
O128_2 S8_2 1_555 1_555
O129_2 S8_2 1_555 1_555
O128_2 H48_2 1_555 1_555
O128 H35_3 1_555 1_555
O45 H48_3 1_555 1_555
O45_2 H48_4 1_555 1_555
O49 H47_2 1_555 1_555
O105_2 H27_2 1_555 1_555
O134 H36_2 1_555 1_555
O128_2 H35_4 1_555 1_555
C10_2 C9_2 1_555 1_555
H17_2 C9_2 1_555 1_555
H18_2 C9_2 1_555 1_555
S10_2 C10_2 1_555 1_555
H19_2 C10_2 1_555 1_555
H20_2 C10_2 1_555 1_555
O132_2 S10_2 1_555 1_555
O133_2 S10_2 1_555 1_555
O134_2 S10_2 1_555 1_555
O134_2 H47_3 1_555 1_555
O134_2 H36_3 1_555 1_555
C5_2 C3_2 1_555 1_555
H5_2 C3_2 1_555 1_555
H6_2 C3_2 1_555 1_555
S5_2 C5_2 1_555 1_555
H9_2 C5_2 1_555 1_555
H10_2 C5_2 1_555 1_555
O47_2 S5_2 1_555 1_555
O48_2 S5_2 1_555 1_555
O49_2 S5_2 1_555 1_555
O49_2 H36_4 1_555 1_555
O49_2 H47_4 1_555 1_555
O139 S12 1_555 1_555
O140 S12 1_555 1_555
C11 S12 1_555 1_555
H22 C11 1_555 1_555
H23 C12 1_555 1_555
H24 C12 1_555 1_555
C11 C12 1_555 1_555
S11 O135 1_555 1_555
O136 S11 1_555 1_555
O138 S11 1_555 1_555
S11_2 O135_2 1_555 1_555
O136_2 S11_2 1_555 1_555
O138_2 S11_2 1_555 1_555
O139_2 S12_2 1_555 1_555
O140_2 S12_2 1_555 1_555
C11_2 S12_2 1_555 1_555
H22_2 C11_2 1_555 1_555
C12_2 S11_2 1_555 1_555
H23_2 C12_2 1_555 1_555
H24_2 C12_2 1_555 1_555
C11_2 C12_2 1_555 1_555
S11_3 O135_3 1_555 1_555
O136_3 S11_3 1_555 1_555
O138_3 S11_3 1_555 1_555
O139_3 S12_3 1_555 1_555
O140_3 S12_3 1_555 1_555
C11_3 S12_3 1_555 1_555
H22_3 C11_3 1_555 1_555
H23_3 C12_3 1_555 1_555
H24_3 C12_3 1_555 1_555
C11_3 C12_3 1_555 1_555
S11_4 O135_4 1_555 1_555
O136_4 S11_4 1_555 1_555
O138_4 S11_4 1_555 1_555
O139_4 S12_4 1_555 1_555
O140_4 S12_4 1_555 1_555
C11_4 S12_4 1_555 1_555
H22_4 C11_4 1_555 1_555
C12_4 S11_4 1_555 1_555
H23_4 C12_4 1_555 1_555
H24_4 C12_4 1_555 1_555
C11_4 C12_4 1_555 1_555

#END
