
###############################################################################
#
# This file contains modified crystal structure data generated from the
# MOF subset of the Cambridge Structural Database (CSD) v543 
# hosted by the Cambridge Crystallographic Data Centre (CCDC).
#
# This work is licensed under the Creative Commons
# Attribution-NonCommercial-ShareAlike 4.0 International License.
# To view a copy of this license, visit
# http://creativecommons.org/licenses/by-nc-sa/4.0/
# or send a letter to
# Creative Commons, PO Box 1866, Mountain View, CA 94042, USA.
#
# CIF created using the CSD Python API on 29 September 2022
# The structure has been converted into the P1 space group
# The structure has a 3D framework
# The original CSD entry UHEBOA is in the tetragonal crystal system
# The framework has been calculated to contain at least 10.0% void space
# The void calculation uses a probe of radius 1.32A, grid spacing 0.4
#
###############################################################################

data_UHEBOA
_chemical_formula_moiety         '(C120 H152 N8 O40 Pb8)n'
_symmetry_cell_setting           triclinic
_symmetry_space_group_name_H-M   'P 1'
_symmetry_Int_Tables_number      1
_space_group_name_Hall           'P 1'
loop_
_symmetry_equiv_pos_site_id
_symmetry_equiv_pos_as_xyz
1 x,y,z
_cell_length_a                   20.7139(3)
_cell_length_b                   20.7139(3)
_cell_length_c                   8.1430(2)
_cell_angle_alpha                90
_cell_angle_beta                 90
_cell_angle_gamma                90
_cell_volume                     3493.88
loop_
_atom_site_label
_atom_site_type_symbol
_atom_site_fract_x
_atom_site_fract_y
_atom_site_fract_z
C14 C 0.6333(5) 0.3697(5) 0.0421(10)
H14 H 0.6253 0.3255 0.0045
H15 H 0.5937 0.3876 0.0897
H16 H 0.6675 0.3694 0.1255
Pb1 Pb 0.73891(2) 0.27275(2) 0.50041(12)
O1 O 0.7861(3) 0.3345(2) 0.2392(7)
O2 O 0.7400(3) 0.3871(3) 0.4438(6)
O3 O 0.7188(3) 0.6266(3) 0.4218(6)
O4 O 0.7797(2) 0.6799(2) 0.2446(7)
O5 O 0.6904(2) 0.3226(2) 0.7584(7)
N1 N 0.6535(3) 0.4094(3) 0.9033(9)
C1 C 0.7677(3) 0.3865(3) 0.3045(8)
C2 C 0.7804(2) 0.44930(16) 0.2178(5)
C3 C 0.8121(2) 0.45036(15) 0.0675(5)
H1 H 0.8252 0.4111 0.0174
C5 C 0.8056(2) 0.56640(15) 0.0639(5)
H2 H 0.8142 0.6064 0.0112
C6 C 0.7738(2) 0.56534(16) 0.2142(5)
C7 C 0.7612(2) 0.5068(2) 0.2912(4)
H3 H 0.7395 0.5061 0.3940
C8 C 0.7558(3) 0.6280(3) 0.2973(8)
C13 C 0.6803(3) 0.3816(4) 0.7749(10)
H13 H 0.6931 0.4090 0.6870
C15 C 0.6455(4) 0.4781(4) 0.9097(12)
H17 H 0.6741 0.4962 0.9937
H18 H 0.6005 0.4883 0.9373
H19 H 0.6561 0.4968 0.8026
Pb2 Pb 0.72725(2) 0.73891(2) 0.50041(12)
Pb3 Pb 0.76109(2) 0.77275(2) 0.00041(12)
Pb4 Pb 0.77275(2) 0.23891(2) 0.00041(12)
O6 O 0.8345(2) 0.2861(3) 0.7392(7)
O7 O 0.6266(3) 0.2812(3) 0.4218(6)
O8 O 0.6799(2) 0.2203(2) 0.2446(7)
O9 O 0.7203(2) 0.1799(2) 0.7446(7)
Pb1_2 Pb 0.26109(2) 0.72725(2) 0.50041(12)
O1_2 O 0.2139(3) 0.6655(2) 0.2392(7)
O2_2 O 0.2600(3) 0.6129(3) 0.4438(6)
O3_2 O 0.2812(3) 0.3734(3) 0.4218(6)
O4_2 O 0.2203(2) 0.3201(2) 0.2446(7)
O5_2 O 0.3096(2) 0.6774(2) 0.7584(7)
N1_2 N 0.3465(3) 0.5906(3) 0.9033(9)
C1_2 C 0.2323(3) 0.6135(3) 0.3045(8)
C2_2 C 0.2196(2) 0.55070(16) 0.2178(5)
C3_2 C 0.1879(2) 0.54964(15) 0.0675(5)
H1_2 H 0.1748 0.5889 0.0174
C5_2 C 0.1944(2) 0.43360(15) 0.0639(5)
H2_2 H 0.1858 0.3936 0.0112
C6_2 C 0.2262(2) 0.43466(16) 0.2142(5)
C7_2 C 0.2388(2) 0.4932(2) 0.2912(4)
H3_2 H 0.2605 0.4939 0.3940
C8_2 C 0.2442(3) 0.3720(3) 0.2973(8)
C13_2 C 0.3197(3) 0.6184(4) 0.7749(10)
H13_2 H 0.3069 0.5910 0.6870
C15_2 C 0.3545(4) 0.5219(4) 0.9097(12)
H17_2 H 0.3259 0.5038 0.9937
H18_2 H 0.3995 0.5117 0.9373
H19_2 H 0.3439 0.5032 0.8026
Pb2_2 Pb 0.27275(2) 0.26109(2) 0.50041(12)
Pb3_2 Pb 0.23891(2) 0.22725(2) 0.00041(12)
Pb4_2 Pb 0.22725(2) 0.76109(2) 0.00041(12)
O6_2 O 0.1655(2) 0.7139(3) 0.7392(7)
O7_2 O 0.3734(3) 0.7188(3) 0.4218(6)
O8_2 O 0.3201(2) 0.7797(2) 0.2446(7)
O9_2 O 0.2797(2) 0.8201(2) 0.7446(7)
O1_3 O 0.6655(2) 0.7861(3) 0.2392(7)
O2_3 O 0.6129(3) 0.7400(3) 0.4438(6)
O5_3 O 0.6774(2) 0.6904(2) 0.7584(7)
N1_3 N 0.5906(3) 0.6535(3) 0.9033(9)
C1_3 C 0.6135(3) 0.7677(3) 0.3045(8)
C2_3 C 0.55070(16) 0.7804(2) 0.2178(5)
C3_3 C 0.54964(15) 0.8121(2) 0.0675(5)
H1_3 H 0.5889 0.8252 0.0174
C5_3 C 0.43360(15) 0.8056(2) 0.0639(5)
H2_3 H 0.3936 0.8142 0.0112
C6_3 C 0.43466(16) 0.7738(2) 0.2142(5)
C7_3 C 0.4932(2) 0.7612(2) 0.2912(4)
H3_3 H 0.4939 0.7395 0.3940
C8_3 C 0.3720(3) 0.7558(3) 0.2973(8)
C13_3 C 0.6184(4) 0.6803(3) 0.7749(10)
H13_3 H 0.5910 0.6931 0.6870
C15_3 C 0.5219(4) 0.6455(4) 0.9097(12)
H17_3 H 0.5038 0.6741 0.9937
H18_3 H 0.5117 0.6005 0.9373
H19_3 H 0.5032 0.6561 0.8026
O6_3 O 0.7139(3) 0.8345(2) 0.7392(7)
O9_3 O 0.8201(2) 0.7203(2) 0.7446(7)
O1_4 O 0.3345(2) 0.2139(3) 0.2392(7)
O2_4 O 0.3871(3) 0.2600(3) 0.4438(6)
O5_4 O 0.3226(2) 0.3096(2) 0.7584(7)
N1_4 N 0.4094(3) 0.3465(3) 0.9033(9)
C1_4 C 0.3865(3) 0.2323(3) 0.3045(8)
C2_4 C 0.44930(16) 0.2196(2) 0.2178(5)
C3_4 C 0.45036(15) 0.1879(2) 0.0675(5)
H1_4 H 0.4111 0.1748 0.0174
C5_4 C 0.56640(15) 0.1944(2) 0.0639(5)
H2_4 H 0.6064 0.1858 0.0112
C6_4 C 0.56534(16) 0.2262(2) 0.2142(5)
C7_4 C 0.5068(2) 0.2388(2) 0.2912(4)
H3_4 H 0.5061 0.2605 0.3940
C8_4 C 0.6280(3) 0.2442(3) 0.2973(8)
C13_4 C 0.3816(4) 0.3197(3) 0.7749(10)
H13_4 H 0.4090 0.3069 0.6870
C15_4 C 0.4781(4) 0.3545(4) 0.9097(12)
H17_4 H 0.4962 0.3259 0.9937
H18_4 H 0.4883 0.3995 0.9373
H19_4 H 0.4968 0.3439 0.8026
O6_4 O 0.2861(3) 0.1655(2) 0.7392(7)
O9_4 O 0.1799(2) 0.2797(2) 0.7446(7)
O5_5 O 0.1904(2) 0.1774(2) 0.2584(7)
N1_5 N 0.1535(3) 0.0906(3) 0.4033(9)
C13_5 C 0.1803(3) 0.1184(4) 0.2749(10)
H13_5 H 0.1931 0.0910 0.1870
C14_2 C 0.1333(5) 0.1303(5) 0.5421(10)
H14_2 H 0.1253 0.1745 0.5045
H15_2 H 0.0937 0.1124 0.5897
H16_2 H 0.1675 0.1306 0.6255
C15_5 C 0.1455(4) 0.0219(4) 0.4097(12)
H17_5 H 0.1741 0.0038 0.4937
H18_5 H 0.1005 0.0117 0.4373
H19_5 H 0.1561 0.0032 0.3026
O2_5 O 0.2400(3) 0.1129(3) 0.9438(6)
C1_5 C 0.2677(3) 0.1135(3) 0.8045(8)
C2_5 C 0.2804(2) 0.05070(16) 0.7178(5)
C3_5 C 0.3121(2) 0.04964(15) 0.5675(5)
H1_5 H 0.3252 0.0889 0.5174
C10 C 0.3765(4) 0.0515(3) 0.2604(10)
H4 H 0.3375 0.0779 0.2476
H5 H 0.4059 0.0725 0.3380
H6 H 0.3979 0.0469 0.1537
O7_3 O 0.1266(3) 0.2188(3) 0.9218(6)
O3_3 O 0.2188(3) 0.8734(3) 0.9218(6)
C4 C 0.3247(2) 0.99109(19) 0.4905(4)
C5_5 C 0.3056(2) 0.93360(15) 0.5639(5)
H2_5 H 0.3142 0.8936 0.5112
C6_5 C 0.2738(2) 0.93466(16) 0.7142(5)
C7_5 C 0.2612(2) 0.9932(2) 0.7912(4)
H3_5 H 0.2395 0.9939 0.8940
C8_5 C 0.2558(3) 0.8720(3) 0.7973(8)
C9 C 0.3585(3) 0.9873(3) 0.3232(8)
C11 C 0.3151(4) 0.9560(4) 0.2025(8)
H7 H 0.2760 0.9822 0.1890
H8 H 0.3373 0.9522 0.0966
H9 H 0.3031 0.9129 0.2420
C12 C 0.4181(3) 0.9482(4) 0.3405(9)
H10 H 0.4409 0.9467 0.2351
H11 H 0.4462 0.9678 0.4237
H12 H 0.4067 0.9042 0.3743
O3_4 O 0.7812(3) 0.1266(3) 0.9218(6)
C4_2 C 0.6753(2) 0.00891(19) 0.4905(4)
C5_6 C 0.6944(2) 0.06640(15) 0.5639(5)
H2_6 H 0.6858 0.1064 0.5112
C6_6 C 0.7262(2) 0.06534(16) 0.7142(5)
C7_6 C 0.7388(2) 0.0068(2) 0.7912(4)
H3_6 H 0.7605 0.0061 0.8940
C8_6 C 0.7442(3) 0.1280(3) 0.7973(8)
C9_2 C 0.6415(3) 0.0127(3) 0.3232(8)
C11_2 C 0.6849(4) 0.0440(4) 0.2025(8)
H7_2 H 0.7240 0.0178 0.1890
H8_2 H 0.6627 0.0478 0.0966
H9_2 H 0.6969 0.0871 0.2420
C12_2 C 0.5819(3) 0.0518(4) 0.3405(9)
H10_2 H 0.5591 0.0533 0.2351
H11_2 H 0.5538 0.0322 0.4237
H12_2 H 0.5933 0.0958 0.3743
O5_6 O 0.8096(2) 0.8226(2) 0.2584(7)
N1_6 N 0.8465(3) 0.9094(3) 0.4033(9)
C13_6 C 0.8197(3) 0.8816(4) 0.2749(10)
H13_6 H 0.8069 0.9090 0.1870
C14_3 C 0.8667(5) 0.8697(5) 0.5421(10)
H14_3 H 0.8747 0.8255 0.5045
H15_3 H 0.9063 0.8876 0.5897
H16_3 H 0.8325 0.8694 0.6255
C15_6 C 0.8545(4) 0.9781(4) 0.4097(12)
H17_6 H 0.8259 0.9962 0.4937
H18_6 H 0.8995 0.9883 0.4373
H19_6 H 0.8439 0.9968 0.3026
O2_6 O 0.7600(3) 0.8871(3) 0.9438(6)
C1_6 C 0.7323(3) 0.8865(3) 0.8045(8)
C2_6 C 0.7196(2) 0.94930(16) 0.7178(5)
C3_6 C 0.6879(2) 0.95036(15) 0.5675(5)
H1_6 H 0.6748 0.9111 0.5174
C10_2 C 0.6235(4) 0.9485(3) 0.2604(10)
H4_2 H 0.6625 0.9221 0.2476
H5_2 H 0.5941 0.9275 0.3380
H6_2 H 0.6021 0.9531 0.1537
O7_4 O 0.8734(3) 0.7812(3) 0.9218(6)
O5_7 O 0.1774(2) 0.8096(2) 0.2584(7)
N1_7 N 0.0906(3) 0.8465(3) 0.4033(9)
C13_7 C 0.1184(4) 0.8197(3) 0.2749(10)
H13_7 H 0.0910 0.8069 0.1870
C14_4 C 0.1303(5) 0.8667(5) 0.5421(10)
H14_4 H 0.1745 0.8747 0.5045
H15_4 H 0.1124 0.9063 0.5897
H16_4 H 0.1306 0.8325 0.6255
C15_7 C 0.0219(4) 0.8545(4) 0.4097(12)
H17_7 H 0.0038 0.8259 0.4937
H18_7 H 0.0117 0.8995 0.4373
H19_7 H 0.0032 0.8439 0.3026
O2_7 O 0.1129(3) 0.7600(3) 0.9438(6)
C1_7 C 0.1135(3) 0.7323(3) 0.8045(8)
C2_7 C 0.05070(16) 0.7196(2) 0.7178(5)
C3_7 C 0.04964(15) 0.6879(2) 0.5675(5)
H1_7 H 0.0889 0.6748 0.5174
C10_3 C 0.0515(3) 0.6235(4) 0.2604(10)
H4_3 H 0.0779 0.6625 0.2476
H5_3 H 0.0725 0.5941 0.3380
H6_3 H 0.0469 0.6021 0.1537
C4_3 C 0.99109(19) 0.6753(2) 0.4905(4)
C5_7 C 0.93360(15) 0.6944(2) 0.5639(5)
H2_7 H 0.8936 0.6858 0.5112
C6_7 C 0.93466(16) 0.7262(2) 0.7142(5)
C7_7 C 0.9932(2) 0.7388(2) 0.7912(4)
H3_7 H 0.9939 0.7605 0.8940
C8_7 C 0.8720(3) 0.7442(3) 0.7973(8)
C9_3 C 0.9873(3) 0.6415(3) 0.3232(8)
C11_3 C 0.9560(4) 0.6849(4) 0.2025(8)
H7_3 H 0.9822 0.7240 0.1890
H8_3 H 0.9522 0.6627 0.0966
H9_3 H 0.9129 0.6969 0.2420
C12_3 C 0.9482(4) 0.5819(3) 0.3405(9)
H10_3 H 0.9467 0.5591 0.2351
H11_3 H 0.9678 0.5538 0.4237
H12_3 H 0.9042 0.5933 0.3743
C4_4 C 0.00891(19) 0.3247(2) 0.4905(4)
C5_8 C 0.06640(15) 0.3056(2) 0.5639(5)
H2_8 H 0.1064 0.3142 0.5112
C6_8 C 0.06534(16) 0.2738(2) 0.7142(5)
C7_8 C 0.0068(2) 0.2612(2) 0.7912(4)
H3_8 H 0.0061 0.2395 0.8940
C8_8 C 0.1280(3) 0.2558(3) 0.7973(8)
C9_4 C 0.0127(3) 0.3585(3) 0.3232(8)
C11_4 C 0.0440(4) 0.3151(4) 0.2025(8)
H7_4 H 0.0178 0.2760 0.1890
H8_4 H 0.0478 0.3373 0.0966
H9_4 H 0.0871 0.3031 0.2420
C12_4 C 0.0518(4) 0.4181(3) 0.3405(9)
H10_4 H 0.0533 0.4409 0.2351
H11_4 H 0.0322 0.4462 0.4237
H12_4 H 0.0958 0.4067 0.3743
O5_8 O 0.8226(2) 0.1904(2) 0.2584(7)
N1_8 N 0.9094(3) 0.1535(3) 0.4033(9)
C13_8 C 0.8816(4) 0.1803(3) 0.2749(10)
H13_8 H 0.9090 0.1931 0.1870
C14_5 C 0.8697(5) 0.1333(5) 0.5421(10)
H14_5 H 0.8255 0.1253 0.5045
H15_5 H 0.8876 0.0937 0.5897
H16_5 H 0.8694 0.1675 0.6255
C15_8 C 0.9781(4) 0.1455(4) 0.4097(12)
H17_8 H 0.9962 0.1741 0.4937
H18_8 H 0.9883 0.1005 0.4373
H19_8 H 0.9968 0.1561 0.3026
O2_8 O 0.8871(3) 0.2400(3) 0.9438(6)
C1_8 C 0.8865(3) 0.2677(3) 0.8045(8)
C2_8 C 0.94930(16) 0.2804(2) 0.7178(5)
C3_8 C 0.95036(15) 0.3121(2) 0.5675(5)
H1_8 H 0.9111 0.3252 0.5174
C10_4 C 0.9485(3) 0.3765(4) 0.2604(10)
H4_4 H 0.9221 0.3375 0.2476
H5_4 H 0.9275 0.4059 0.3380
H6_4 H 0.9531 0.3979 0.1537
C4_5 C 0.8247(2) 0.50891(19) 0.9905(4)
C9_5 C 0.8585(3) 0.5127(3) 0.8232(8)
C10_5 C 0.8765(4) 0.4485(3) 0.7604(10)
H4_5 H 0.8375 0.4221 0.7476
H5_5 H 0.9059 0.4275 0.8380
H6_5 H 0.8979 0.4531 0.6537
C11_5 C 0.8151(4) 0.5440(4) 0.7025(8)
H7_5 H 0.7760 0.5178 0.6890
H8_5 H 0.8373 0.5478 0.5966
H9_5 H 0.8031 0.5871 0.7420
C12_5 C 0.9181(3) 0.5518(4) 0.8405(9)
H10_5 H 0.9409 0.5533 0.7351
H11_5 H 0.9462 0.5322 0.9237
H12_5 H 0.9067 0.5958 0.8743
C14_6 C 0.3667(5) 0.6303(5) 0.0421(10)
H14_6 H 0.3747 0.6745 0.0045
H15_6 H 0.4063 0.6124 0.0897
H16_6 H 0.3325 0.6306 0.1255
C4_6 C 0.1753(2) 0.49109(19) 0.9905(4)
C9_6 C 0.1415(3) 0.4873(3) 0.8232(8)
C10_6 C 0.1235(4) 0.5515(3) 0.7604(10)
H4_6 H 0.1625 0.5779 0.7476
H5_6 H 0.0941 0.5725 0.8380
H6_6 H 0.1021 0.5469 0.6537
C11_6 C 0.1849(4) 0.4560(4) 0.7025(8)
H7_6 H 0.2240 0.4822 0.6890
H8_6 H 0.1627 0.4522 0.5966
H9_6 H 0.1969 0.4129 0.7420
C12_6 C 0.0819(3) 0.4482(4) 0.8405(9)
H10_6 H 0.0591 0.4467 0.7351
H11_6 H 0.0538 0.4678 0.9237
H12_6 H 0.0933 0.4042 0.8743
C14_7 C 0.6303(5) 0.6333(5) 0.0421(10)
H14_7 H 0.6745 0.6253 0.0045
H15_7 H 0.6124 0.5937 0.0897
H16_7 H 0.6306 0.6675 0.1255
C4_7 C 0.49109(19) 0.8247(2) 0.9905(4)
C9_7 C 0.4873(3) 0.8585(3) 0.8232(8)
C10_7 C 0.5515(3) 0.8765(4) 0.7604(10)
H4_7 H 0.5779 0.8375 0.7476
H5_7 H 0.5725 0.9059 0.8380
H6_7 H 0.5469 0.8979 0.6537
C11_7 C 0.4560(4) 0.8151(4) 0.7025(8)
H7_7 H 0.4822 0.7760 0.6890
H8_7 H 0.4522 0.8373 0.5966
H9_7 H 0.4129 0.8031 0.7420
C12_7 C 0.4482(4) 0.9181(3) 0.8405(9)
H10_7 H 0.4467 0.9409 0.7351
H11_7 H 0.4678 0.9462 0.9237
H12_7 H 0.4042 0.9067 0.8743
C14_8 C 0.3697(5) 0.3667(5) 0.0421(10)
H14_8 H 0.3255 0.3747 0.0045
H15_8 H 0.3876 0.4063 0.0897
H16_8 H 0.3694 0.3325 0.1255
C4_8 C 0.50891(19) 0.1753(2) 0.9905(4)
C9_8 C 0.5127(3) 0.1415(3) 0.8232(8)
C10_8 C 0.4485(3) 0.1235(4) 0.7604(10)
H4_8 H 0.4221 0.1625 0.7476
H5_8 H 0.4275 0.0941 0.8380
H6_8 H 0.4531 0.1021 0.6537
C11_8 C 0.5440(4) 0.1849(4) 0.7025(8)
H7_8 H 0.5178 0.2240 0.6890
H8_8 H 0.5478 0.1627 0.5966
H9_8 H 0.5871 0.1969 0.7420
C12_8 C 0.5518(4) 0.0819(3) 0.8405(9)
H10_8 H 0.5533 0.0591 0.7351
H11_8 H 0.5322 0.0538 0.9237
H12_8 H 0.5958 0.0933 0.8743
loop_
_geom_bond_atom_site_label_1
_geom_bond_atom_site_label_2
_geom_bond_site_symmetry_1
_geom_bond_site_symmetry_2
H14 C14 1_555 1_555
H15 C14 1_555 1_555
H16 C14 1_555 1_555
Pb1 O1 1_555 1_555
O1 C1 1_555 1_555
O2 Pb1 1_555 1_555
O3 C8 1_555 1_555
O4 C8 1_555 1_555
O5 Pb1 1_555 1_555
N1 C13 1_555 1_555
C1 O2 1_555 1_555
C2 C1 1_555 1_555
C3 C2 1_555 1_555
H1 C3 1_555 1_555
H2 C5 1_555 1_555
C6 C5 1_555 1_555
C7 C2 1_555 1_555
H3 C7 1_555 1_555
C8 C6 1_555 1_555
C13 O5 1_555 1_555
H13 C13 1_555 1_555
C15 N1 1_555 1_555
H17 C15 1_555 1_555
H18 C15 1_555 1_555
H19 C15 1_555 1_555
Pb2 O3 1_555 1_555
Pb3 O4 1_555 1_555
Pb4 O1 1_555 1_555
O6 Pb1 1_555 1_555
O7 Pb1 1_555 1_555
O8 Pb1 1_555 1_555
O9 Pb1 1_555 1_555
O4 Pb2 1_555 1_555
C6 C7 1_555 1_555
Pb4 O8 1_555 1_555
Pb1_2 O1_2 1_555 1_555
O1_2 C1_2 1_555 1_555
O2_2 Pb1_2 1_555 1_555
O3_2 C8_2 1_555 1_555
O4_2 C8_2 1_555 1_555
O5_2 Pb1_2 1_555 1_555
N1_2 C13_2 1_555 1_555
C1_2 O2_2 1_555 1_555
C2_2 C1_2 1_555 1_555
C3_2 C2_2 1_555 1_555
H1_2 C3_2 1_555 1_555
H2_2 C5_2 1_555 1_555
C6_2 C5_2 1_555 1_555
C7_2 C2_2 1_555 1_555
H3_2 C7_2 1_555 1_555
C8_2 C6_2 1_555 1_555
C13_2 O5_2 1_555 1_555
H13_2 C13_2 1_555 1_555
C15_2 N1_2 1_555 1_555
H17_2 C15_2 1_555 1_555
H18_2 C15_2 1_555 1_555
H19_2 C15_2 1_555 1_555
Pb2_2 O3_2 1_555 1_555
Pb3_2 O4_2 1_555 1_555
Pb4_2 O1_2 1_555 1_555
O6_2 Pb1_2 1_555 1_555
O7_2 Pb1_2 1_555 1_555
O8_2 Pb1_2 1_555 1_555
O9_2 Pb1_2 1_555 1_555
O4_2 Pb2_2 1_555 1_555
C6_2 C7_2 1_555 1_555
Pb4_2 O8_2 1_555 1_555
Pb2 O1_3 1_555 1_555
O1_3 C1_3 1_555 1_555
O2_3 Pb2 1_555 1_555
O7_2 C8_3 1_555 1_555
O8_2 C8_3 1_555 1_555
O5_3 Pb2 1_555 1_555
N1_3 C13_3 1_555 1_555
C1_3 O2_3 1_555 1_555
C2_3 C1_3 1_555 1_555
C3_3 C2_3 1_555 1_555
H1_3 C3_3 1_555 1_555
H2_3 C5_3 1_555 1_555
C6_3 C5_3 1_555 1_555
C7_3 C2_3 1_555 1_555
H3_3 C7_3 1_555 1_555
C8_3 C6_3 1_555 1_555
C13_3 O5_3 1_555 1_555
H13_3 C13_3 1_555 1_555
C15_3 N1_3 1_555 1_555
H17_3 C15_3 1_555 1_555
H18_3 C15_3 1_555 1_555
H19_3 C15_3 1_555 1_555
Pb3 O1_3 1_555 1_555
O6_3 Pb2 1_555 1_555
O9_3 Pb2 1_555 1_555
C6_3 C7_3 1_555 1_555
Pb2_2 O1_4 1_555 1_555
O1_4 C1_4 1_555 1_555
O2_4 Pb2_2 1_555 1_555
O7 C8_4 1_555 1_555
O8 C8_4 1_555 1_555
O5_4 Pb2_2 1_555 1_555
N1_4 C13_4 1_555 1_555
C1_4 O2_4 1_555 1_555
C2_4 C1_4 1_555 1_555
C3_4 C2_4 1_555 1_555
H1_4 C3_4 1_555 1_555
H2_4 C5_4 1_555 1_555
C6_4 C5_4 1_555 1_555
C7_4 C2_4 1_555 1_555
H3_4 C7_4 1_555 1_555
C8_4 C6_4 1_555 1_555
C13_4 O5_4 1_555 1_555
H13_4 C13_4 1_555 1_555
C15_4 N1_4 1_555 1_555
H17_4 C15_4 1_555 1_555
H18_4 C15_4 1_555 1_555
H19_4 C15_4 1_555 1_555
Pb3_2 O1_4 1_555 1_555
O6_4 Pb2_2 1_555 1_555
O9_4 Pb2_2 1_555 1_555
C6_4 C7_4 1_555 1_555
O5_5 Pb3_2 1_555 1_555
N1_5 C13_5 1_555 1_555
C13_5 O5_5 1_555 1_555
H13_5 C13_5 1_555 1_555
C14_2 N1_5 1_555 1_555
H14_2 C14_2 1_555 1_555
H15_2 C14_2 1_555 1_555
H16_2 C14_2 1_555 1_555
C15_5 N1_5 1_555 1_555
H17_5 C15_5 1_555 1_555
H18_5 C15_5 1_555 1_555
H19_5 C15_5 1_555 1_555
O6_4 C1_5 1_555 1_555
C1_5 O2_5 1_555 1_555
C2_5 C1_5 1_555 1_555
C3_5 C2_5 1_555 1_555
H1_5 C3_5 1_555 1_555
H4 C10 1_555 1_555
H5 C10 1_555 1_555
H6 C10 1_555 1_555
O3_3 C8_5 1_555 1_555
O9_2 C8_5 1_555 1_555
C5_5 C4 1_555 1_555
H2_5 C5_5 1_555 1_555
C6_5 C5_5 1_555 1_555
H3_5 C7_5 1_555 1_555
C8_5 C6_5 1_555 1_555
C9 C4 1_555 1_555
C11 C9 1_555 1_555
H7 C11 1_555 1_555
H8 C11 1_555 1_555
H9 C11 1_555 1_555
C12 C9 1_555 1_555
H10 C12 1_555 1_555
H11 C12 1_555 1_555
H12 C12 1_555 1_555
C6_5 C7_5 1_555 1_555
O3_4 C8_6 1_555 1_555
O9 C8_6 1_555 1_555
C5_6 C4_2 1_555 1_555
H2_6 C5_6 1_555 1_555
C6_6 C5_6 1_555 1_555
H3_6 C7_6 1_555 1_555
C8_6 C6_6 1_555 1_555
C9_2 C4_2 1_555 1_555
C11_2 C9_2 1_555 1_555
H7_2 C11_2 1_555 1_555
H8_2 C11_2 1_555 1_555
H9_2 C11_2 1_555 1_555
C12_2 C9_2 1_555 1_555
H10_2 C12_2 1_555 1_555
H11_2 C12_2 1_555 1_555
H12_2 C12_2 1_555 1_555
C6_6 C7_6 1_555 1_555
O5_6 Pb3 1_555 1_555
N1_6 C13_6 1_555 1_555
C13_6 O5_6 1_555 1_555
H13_6 C13_6 1_555 1_555
C14_3 N1_6 1_555 1_555
H14_3 C14_3 1_555 1_555
H15_3 C14_3 1_555 1_555
H16_3 C14_3 1_555 1_555
C15_6 N1_6 1_555 1_555
H17_6 C15_6 1_555 1_555
H18_6 C15_6 1_555 1_555
H19_6 C15_6 1_555 1_555
O6_3 C1_6 1_555 1_555
C1_6 O2_6 1_555 1_555
C2_6 C1_6 1_555 1_555
C3_6 C2_6 1_555 1_555
H1_6 C3_6 1_555 1_555
H4_2 C10_2 1_555 1_555
H5_2 C10_2 1_555 1_555
H6_2 C10_2 1_555 1_555
O5_7 Pb4_2 1_555 1_555
N1_7 C13_7 1_555 1_555
C13_7 O5_7 1_555 1_555
H13_7 C13_7 1_555 1_555
C14_4 N1_7 1_555 1_555
H14_4 C14_4 1_555 1_555
H15_4 C14_4 1_555 1_555
H16_4 C14_4 1_555 1_555
C15_7 N1_7 1_555 1_555
H17_7 C15_7 1_555 1_555
H18_7 C15_7 1_555 1_555
H19_7 C15_7 1_555 1_555
O6_2 C1_7 1_555 1_555
C1_7 O2_7 1_555 1_555
C2_7 C1_7 1_555 1_555
C3_7 C2_7 1_555 1_555
H1_7 C3_7 1_555 1_555
H4_3 C10_3 1_555 1_555
H5_3 C10_3 1_555 1_555
H6_3 C10_3 1_555 1_555
O7_4 C8_7 1_555 1_555
O9_3 C8_7 1_555 1_555
C5_7 C4_3 1_555 1_555
H2_7 C5_7 1_555 1_555
C6_7 C5_7 1_555 1_555
H3_7 C7_7 1_555 1_555
C8_7 C6_7 1_555 1_555
C9_3 C4_3 1_555 1_555
C11_3 C9_3 1_555 1_555
H7_3 C11_3 1_555 1_555
H8_3 C11_3 1_555 1_555
H9_3 C11_3 1_555 1_555
C12_3 C9_3 1_555 1_555
H10_3 C12_3 1_555 1_555
H11_3 C12_3 1_555 1_555
H12_3 C12_3 1_555 1_555
C6_7 C7_7 1_555 1_555
O7_3 C8_8 1_555 1_555
O9_4 C8_8 1_555 1_555
C5_8 C4_4 1_555 1_555
H2_8 C5_8 1_555 1_555
C6_8 C5_8 1_555 1_555
H3_8 C7_8 1_555 1_555
C8_8 C6_8 1_555 1_555
C9_4 C4_4 1_555 1_555
C11_4 C9_4 1_555 1_555
H7_4 C11_4 1_555 1_555
H8_4 C11_4 1_555 1_555
H9_4 C11_4 1_555 1_555
C12_4 C9_4 1_555 1_555
H10_4 C12_4 1_555 1_555
H11_4 C12_4 1_555 1_555
H12_4 C12_4 1_555 1_555
C6_8 C7_8 1_555 1_555
O5_8 Pb4 1_555 1_555
N1_8 C13_8 1_555 1_555
C13_8 O5_8 1_555 1_555
H13_8 C13_8 1_555 1_555
C14_5 N1_8 1_555 1_555
H14_5 C14_5 1_555 1_555
H15_5 C14_5 1_555 1_555
H16_5 C14_5 1_555 1_555
C15_8 N1_8 1_555 1_555
H17_8 C15_8 1_555 1_555
H18_8 C15_8 1_555 1_555
H19_8 C15_8 1_555 1_555
O6 C1_8 1_555 1_555
C1_8 O2_8 1_555 1_555
C2_8 C1_8 1_555 1_555
C3_8 C2_8 1_555 1_555
H1_8 C3_8 1_555 1_555
H4_4 C10_4 1_555 1_555
H5_4 C10_4 1_555 1_555
H6_4 C10_4 1_555 1_555
C9_5 C4_5 1_555 1_555
C10_5 C9_5 1_555 1_555
H4_5 C10_5 1_555 1_555
H5_5 C10_5 1_555 1_555
H6_5 C10_5 1_555 1_555
C11_5 C9_5 1_555 1_555
H7_5 C11_5 1_555 1_555
H8_5 C11_5 1_555 1_555
H9_5 C11_5 1_555 1_555
C12_5 C9_5 1_555 1_555
H10_5 C12_5 1_555 1_555
H11_5 C12_5 1_555 1_555
H12_5 C12_5 1_555 1_555
H14_6 C14_6 1_555 1_555
H15_6 C14_6 1_555 1_555
H16_6 C14_6 1_555 1_555
C9_6 C4_6 1_555 1_555
C10_6 C9_6 1_555 1_555
H4_6 C10_6 1_555 1_555
H5_6 C10_6 1_555 1_555
H6_6 C10_6 1_555 1_555
C11_6 C9_6 1_555 1_555
H7_6 C11_6 1_555 1_555
H8_6 C11_6 1_555 1_555
H9_6 C11_6 1_555 1_555
C12_6 C9_6 1_555 1_555
H10_6 C12_6 1_555 1_555
H11_6 C12_6 1_555 1_555
H12_6 C12_6 1_555 1_555
H14_7 C14_7 1_555 1_555
H15_7 C14_7 1_555 1_555
H16_7 C14_7 1_555 1_555
C9_7 C4_7 1_555 1_555
C10_7 C9_7 1_555 1_555
H4_7 C10_7 1_555 1_555
H5_7 C10_7 1_555 1_555
H6_7 C10_7 1_555 1_555
C11_7 C9_7 1_555 1_555
H7_7 C11_7 1_555 1_555
H8_7 C11_7 1_555 1_555
H9_7 C11_7 1_555 1_555
C12_7 C9_7 1_555 1_555
H10_7 C12_7 1_555 1_555
H11_7 C12_7 1_555 1_555
H12_7 C12_7 1_555 1_555
H14_8 C14_8 1_555 1_555
H15_8 C14_8 1_555 1_555
H16_8 C14_8 1_555 1_555
C9_8 C4_8 1_555 1_555
C10_8 C9_8 1_555 1_555
H4_8 C10_8 1_555 1_555
H5_8 C10_8 1_555 1_555
H6_8 C10_8 1_555 1_555
C11_8 C9_8 1_555 1_555
H7_8 C11_8 1_555 1_555
H8_8 C11_8 1_555 1_555
H9_8 C11_8 1_555 1_555
C12_8 C9_8 1_555 1_555
H10_8 C12_8 1_555 1_555
H11_8 C12_8 1_555 1_555
H12_8 C12_8 1_555 1_555

#END
