
###############################################################################
#
# This file contains modified crystal structure data generated from the
# MOF subset of the Cambridge Structural Database (CSD) v543 
# hosted by the Cambridge Crystallographic Data Centre (CCDC).
#
# This work is licensed under the Creative Commons
# Attribution-NonCommercial-ShareAlike 4.0 International License.
# To view a copy of this license, visit
# http://creativecommons.org/licenses/by-nc-sa/4.0/
# or send a letter to
# Creative Commons, PO Box 1866, Mountain View, CA 94042, USA.
#
# CIF created using the CSD Python API on 29 September 2022
# The structure has been converted into the P1 space group
# The structure has a 3D framework
# The original CSD entry UHISOU is in the triclinic crystal system
# The framework has been calculated to contain at least 10.0% void space
# The void calculation uses a probe of radius 1.32A, grid spacing 0.4
#
###############################################################################

data_UHISOU
_chemical_formula_moiety         '(C10 H10 Mg8 O12)n'
_symmetry_cell_setting           triclinic
_symmetry_space_group_name_H-M   'P 1'
_symmetry_Int_Tables_number      1
_space_group_name_Hall           'P 1'
loop_
_symmetry_equiv_pos_site_id
_symmetry_equiv_pos_as_xyz
1 x,y,z
_cell_length_a                   6.90070(10)
_cell_length_b                   7.47220(10)
_cell_length_c                   8.2521(2)
_cell_angle_alpha                90.2270(10)
_cell_angle_beta                 108.6700(10)
_cell_angle_gamma                93.3320(10)
_cell_volume                     402.319
loop_
_atom_site_label
_atom_site_type_symbol
_atom_site_fract_x
_atom_site_fract_y
_atom_site_fract_z
Mg2 Mg 0.0000 0.0000 0.0000
O13 O 0.16376(10) 0.22634(8) 0.11849(8)
Mg2_2 Mg 0.0000 0.0000 1.0000
O17 O 0.04602(11) 0.09718(13) 0.77108(9)
H9 H 0.1595 0.1468 0.7849
Mg2_3 Mg -0.0000 1.0000 0.0000
H5 H 0.0247 0.8763 0.3321
O15 O 0.26324(10) 0.87625(10) 0.04164(8)
Mg2_4 Mg 0.0000 1.0000 1.0000
Mg2_5 Mg 1.0000 0.0000 0.0000
Mg4 Mg 0.5000 0.5000 0.0000
Mg2_6 Mg 1.0000 0.0000 1.0000
O1 O 0.45067(8) 0.26448(7) 0.85359(7)
O4 O 0.73676(10) 0.12375(10) 0.95836(8)
C1 C 0.57810(11) 0.15637(9) 0.83996(8)
C2 C 0.53660(10) 0.06829(9) 0.66661(8)
C3 C 0.45441(11) 0.17385(9) 0.52441(8)
H1 H 0.4238 0.2907 0.5409
Mg4_2 Mg 0.5000 0.5000 1.0000
O9 O 0.47861(10) 0.35781(8) 0.20938(7)
C9 C 0.41748(10) 0.10773(9) 0.35876(8)
C10 C 0.34670(11) 0.23849(9) 0.21637(8)
H10 H 0.9753 0.1237 0.6679
Mg2_7 Mg 1.0000 1.0000 0.0000
O6 O 0.95398(11) 0.90282(13) 0.22892(9)
H4 H 0.8405 0.8532 0.2151
Mg2_8 Mg 1.0000 1.0000 1.0000
O2 O 0.52139(10) 0.64219(8) 0.79062(7)
O3 O 0.83624(10) 0.77366(8) 0.88151(8)
C4 C 0.58252(10) 0.89227(9) 0.64124(8)
C5 C 0.65330(11) 0.76151(9) 0.78363(8)
O7 O 0.54933(8) 0.73552(7) 0.14641(7)
C6 C 0.42190(11) 0.84363(9) 0.16004(8)
C7 C 0.46340(10) 0.93171(9) 0.33339(8)
C8 C 0.54559(11) 0.82615(9) 0.47559(8)
H6 H 0.5762 0.7093 0.4591
O16 O 0.81558(10) 0.48370(9) 0.09819(9)
H7 H 0.8676 0.5657 0.0473
H8 H 0.8678 0.3945 0.0994
O5 O 0.18442(10) 0.51630(9) 0.90181(9)
H2 H 0.1324 0.4343 0.9527
H3 H 0.1322 0.6055 0.9006
loop_
_geom_bond_atom_site_label_1
_geom_bond_atom_site_label_2
_geom_bond_site_symmetry_1
_geom_bond_site_symmetry_2
O13 Mg2 1_555 1_555
O17 Mg2_2 1_555 1_555
H9 O17 1_555 1_555
O15 Mg2_3 1_555 1_555
O1 C1 1_555 1_555
O4 Mg2_6 1_555 1_555
C1 O4 1_555 1_555
C2 C1 1_555 1_555
C3 C2 1_555 1_555
H1 C3 1_555 1_555
Mg4_2 O1 1_555 1_555
Mg4 O9 1_555 1_555
O9 C10 1_555 1_555
O13 C10 1_555 1_555
C9 C3 1_555 1_555
C10 C9 1_555 1_555
O6 Mg2_7 1_555 1_555
H4 O6 1_555 1_555
Mg2_8 O3 1_555 1_555
O2 C5 1_555 1_555
O3 C5 1_555 1_555
C5 C4 1_555 1_555
Mg4_2 O2 1_555 1_555
O7 Mg4 1_555 1_555
C6 O7 1_555 1_555
C7 C6 1_555 1_555
C8 C4 1_555 1_555
H6 C8 1_555 1_555
O16 Mg4 1_555 1_555
H7 O16 1_555 1_555
H8 O16 1_555 1_555
O15 C6 1_555 1_555
C7 C8 1_555 1_555
Mg4_2 O5 1_555 1_555
O5 H2 1_555 1_555
H3 O5 1_555 1_555

#END
