
###############################################################################
#
# This file contains modified crystal structure data generated from the
# MOF subset of the Cambridge Structural Database (CSD) v543 
# hosted by the Cambridge Crystallographic Data Centre (CCDC).
#
# This work is licensed under the Creative Commons
# Attribution-NonCommercial-ShareAlike 4.0 International License.
# To view a copy of this license, visit
# http://creativecommons.org/licenses/by-nc-sa/4.0/
# or send a letter to
# Creative Commons, PO Box 1866, Mountain View, CA 94042, USA.
#
# CIF created using the CSD Python API on 29 September 2022
# The structure has been converted into the P1 space group
# The structure has a 3D framework
# The original CSD entry UHIYOB is in the triclinic crystal system
# The framework has been calculated to contain at least 10.0% void space
# The void calculation uses a probe of radius 1.32A, grid spacing 0.4
#
###############################################################################

data_UHIYOB
_chemical_formula_moiety         '(C72 H80 Co4 N16 O16)n'
_symmetry_cell_setting           triclinic
_symmetry_space_group_name_H-M   'P 1'
_symmetry_Int_Tables_number      1
_space_group_name_Hall           'P 1'
loop_
_symmetry_equiv_pos_site_id
_symmetry_equiv_pos_as_xyz
1 x,y,z
_cell_length_a                   9.489(2)
_cell_length_b                   13.441(3)
_cell_length_c                   18.529(5)
_cell_angle_alpha                109.804(4)
_cell_angle_beta                 90.008(4)
_cell_angle_gamma                107.135(4)
_cell_volume                     2111.59
loop_
_atom_site_label
_atom_site_type_symbol
_atom_site_fract_x
_atom_site_fract_y
_atom_site_fract_z
_atom_site_U_iso_or_equiv
_atom_site_thermal_displace_type
C36 C 0.1481(16) 0.0102(12) 0.0179(10) 0.0303 Uani
H40 H 0.2339 0.0303 0.0562 0.0370 Uiso
H52 H 0.0549 0.4044 0.0503 0.0350 Uiso
C51 C 0.0961(17) 0.1089(12) 0.0308(9) 0.0324 Uani
H57 H 0.1783 0.1711 0.0261 0.0390 Uiso
H58 H 0.0670 0.1331 0.0837 0.0390 Uiso
N11 N 0.1658(12) 0.4165(9) 0.8880(7) 0.0181 Uani
C45 C 0.1427(15) 0.4472(12) 0.9625(9) 0.0225 Uani
H51 H 0.1807 0.5241 0.9932 0.0270 Uiso
C46 C 0.0689(16) 0.3765(12) 0.9973(9) 0.0289 Uani
C47 C 0.0139(15) 0.2631(12) 0.9556(10) 0.0251 Uani
C48 C 0.0356(16) 0.2288(12) 0.8781(9) 0.0246 Uani
C49 C 0.1121(16) 0.3084(12) 0.8478(9) 0.0248 Uani
H54 H 0.1269 0.2836 0.7948 0.0300 Uiso
Co9 Co 0.2755(2) 0.52340(17) 0.82856(11) 0.0186 Uani
N10 N 0.0654(11) 0.9491(9) 0.5425(6) 0.0169 Uani
C38 C 0.0660(15) 0.6833(12) 0.5515(9) 0.0269 Uani
H42 H 0.1189 0.6609 0.5085 0.0320 Uiso
C39 C 0.0650(15) 0.7917(12) 0.5803(9) 0.0198 Uani
C42 C 0.1478(15) 0.8742(12) 0.5453(9) 0.0228 Uani
H45 H 0.1659 0.8340 0.4923 0.0280 Uiso
H46 H 0.2452 0.9183 0.5761 0.0280 Uiso
H48 H 0.1809 0.9938 0.4595 0.0240 Uiso
O15 O 0.1248(10) 0.4227(8) 0.7281(6) 0.0203 Uani
O16 O 0.1273(10) 0.6116(8) 0.8402(6) 0.0208 Uani
C55 C 0.0215(16) 0.4599(12) 0.7238(9) 0.0190 Uani
C56 C 0.0181(16) 0.5676(12) 0.7908(9) 0.0210 Uani
C19 C 0.8431(14) 0.9675(12) 0.4886(8) 0.0202 Uani
H17 H 0.7487 0.9246 0.4546 0.0240 Uiso
N9 N 0.9117(13) 0.6318(10) 0.6427(7) 0.0239 Uani
C37 C 0.9921(15) 0.6068(12) 0.5834(8) 0.0248 Uani
H41 H 0.9982 0.5333 0.5628 0.0300 Uiso
C40 C 0.9907(16) 0.8166(12) 0.6451(9) 0.0201 Uani
H43 H 0.9929 0.8914 0.6709 0.0240 Uiso
C41 C 0.9156(16) 0.7376(12) 0.6725(9) 0.0201 Uani
H44 H 0.8624 0.7586 0.7155 0.0240 Uiso
C44 C 0.9241(15) 0.8896(11) 0.4935(8) 0.0167 Uani
H49 H 0.9426 0.8478 0.4410 0.0200 Uiso
H50 H 0.8615 0.8352 0.5147 0.0200 Uiso
Co3 Co 0.7699(2) 0.51198(19) 0.68265(11) 0.0200 Uani
O9 O 0.6241(10) 0.6030(8) 0.7070(6) 0.0216 Uani
O10 O 0.6175(10) 0.4192(8) 0.7374(6) 0.0199 Uani
O11 O 0.4159(10) 0.6042(8) 0.7623(6) 0.0217 Uani
O12 O 0.4172(10) 0.4273(7) 0.7987(5) 0.0153 Uani
O13 O 0.9127(10) 0.4158(8) 0.6715(6) 0.0192 Uani
O14 O 0.9078(11) 0.6000(8) 0.7869(6) 0.0208 Uani
N13 N 0.6578(11) 0.4050(9) 0.5719(6) 0.0149 Uani
N14 N 0.4785(13) 0.0956(10) 0.3093(7) 0.0241 Uani
C53 C 0.5192(14) 0.5656(11) 0.7431(8) 0.0109 Uani
C54 C 0.5177(15) 0.4641(11) 0.7616(8) 0.0139 Uani
C57 C 0.6014(16) 0.2938(12) 0.5564(9) 0.0217 Uani
H61 H 0.6149 0.2664 0.5961 0.0260 Uiso
C58 C 0.5264(16) 0.2190(12) 0.4875(9) 0.0231 Uani
H62 H 0.4911 0.1417 0.4791 0.0270 Uiso
C59 C 0.5028(15) 0.2586(13) 0.4300(9) 0.0243 Uani
C60 C 0.5607(15) 0.3682(12) 0.4433(8) 0.0228 Uani
H63 H 0.5506 0.3964 0.4036 0.0270 Uiso
C61 C 0.6349(15) 0.4398(13) 0.5147(9) 0.0275 Uani
H64 H 0.6712 0.5172 0.5235 0.0330 Uiso
C62 C 0.4113(15) 0.1808(11) 0.3536(9) 0.0241 Uani
H65 H 0.4006 0.2253 0.3221 0.0290 Uiso
H66 H 0.3108 0.1433 0.3637 0.0290 Uiso
C63 C 0.6138(15) 0.1488(11) 0.2806(9) 0.0217 Uani
H67 H 0.5888 0.1853 0.2464 0.0260 Uiso
H68 H 0.6843 0.2066 0.3246 0.0260 Uiso
C64 C 0.3759(15) 0.0167(13) 0.2419(8) 0.0281 Uani
H70 H 0.3559 0.0563 0.2087 0.0340 Uiso
C71 C 0.6837(16) 0.0644(12) 0.2375(8) 0.0269 Uani
H77 H 0.7757 0.1015 0.2194 0.0320 Uiso
H78 H 0.7113 0.0299 0.2725 0.0320 Uiso
N18 N 0.4131(13) 0.6459(10) 0.9266(7) 0.0210 Uani
C65 C 0.4173(15) 0.7515(13) 0.9443(9) 0.0216 Uani
H71 H 0.3678 0.7712 0.9092 0.0260 Uiso
C69 C 0.4889(16) 0.6213(13) 0.9746(9) 0.0330 Uani
H74 H 0.4882 0.5463 0.9613 0.0390 Uiso
N8 N 0.0298(13) 0.9169(10) 0.0248(7) 0.0240 Uani
H33 H 0.0010 0.8476 0.1537 0.0290 Uiso
C34 C 0.0814(15) 0.8208(12) 0.0133(10) 0.0295 Uani
H35 H 0.1841 0.8473 0.0387 0.0360 Uiso
H36 H 0.0839 0.7838 0.9573 0.0360 Uiso
H39 H 0.1813 0.9879 0.9658 0.0370 Uiso
N16 N 0.5832(12) 0.9763(9) 0.1701(7) 0.0231 Uani
H69 H 0.2806 0.9819 0.2586 0.0340 Uiso
C66 C 0.4930(15) 0.8334(12) 0.0131(10) 0.0257 Uani
H72 H 0.4928 0.9080 0.0258 0.0310 Uiso
C67 C 0.5676(15) 0.8052(13) 0.0621(8) 0.0218 Uani
C68 C 0.5670(15) 0.6972(12) 0.0412(9) 0.0271 Uani
H73 H 0.6210 0.6759 0.0734 0.0330 Uiso
C70 C 0.6539(16) 0.8898(12) 0.1367(9) 0.0249 Uani
H75 H 0.7562 0.9247 0.1273 0.0300 Uiso
H76 H 0.6600 0.8523 0.1738 0.0300 Uiso
C72 C 0.4422(15) 0.9278(12) 0.1968(9) 0.0298 Uani
H79 H 0.3713 0.8737 0.1517 0.0360 Uiso
H80 H 0.4595 0.8872 0.2299 0.0360 Uiso
N5 N 0.5869(13) 0.3541(10) 0.0734(7) 0.0210 Uani
C21 C 0.5827(15) 0.2485(13) 0.0557(9) 0.0216 Uani
H21 H 0.6322 0.2288 0.0908 0.0260 Uiso
C25 C 0.5111(16) 0.3787(13) 0.0254(9) 0.0330 Uani
H24 H 0.5118 0.4537 0.0387 0.0390 Uiso
Co6 Co 0.7245(2) 0.47660(17) 0.17144(11) 0.0186 Uani
Co1 Co 0.2301(2) 0.48802(19) 0.31735(11) 0.0200 Uani
O1 O 0.3759(10) 0.3970(8) 0.2930(6) 0.0216 Uani
O2 O 0.3825(10) 0.5808(8) 0.2626(6) 0.0199 Uani
O3 O 0.5841(10) 0.3958(8) 0.2377(6) 0.0217 Uani
O4 O 0.5828(10) 0.5727(7) 0.2013(5) 0.0153 Uani
O5 O 0.0873(10) 0.5842(8) 0.3285(6) 0.0192 Uani
O6 O 0.0922(11) 0.4000(8) 0.2131(6) 0.0208 Uani
N1 N 0.3422(11) 0.5950(9) 0.4281(6) 0.0149 Uani
N2 N 0.5215(13) 0.9044(10) 0.6907(7) 0.0241 Uani
N3 N 0.0883(13) 0.3682(10) 0.3573(7) 0.0239 Uani
N7 N 0.8342(12) 0.5835(9) 0.1120(7) 0.0181 Uani
C1 C 0.4808(14) 0.4344(11) 0.2569(8) 0.0109 Uani
C2 C 0.4823(15) 0.5359(11) 0.2384(8) 0.0139 Uani
C5 C 0.3986(16) 0.7062(12) 0.4436(9) 0.0217 Uani
H1 H 0.3851 0.7336 0.4039 0.0260 Uiso
C6 C 0.4736(16) 0.7810(12) 0.5125(9) 0.0231 Uani
H2 H 0.5089 0.8583 0.5209 0.0270 Uiso
C7 C 0.4972(15) 0.7414(13) 0.5700(9) 0.0243 Uani
C8 C 0.4393(15) 0.6318(12) 0.5567(8) 0.0228 Uani
H3 H 0.4494 0.6036 0.5964 0.0270 Uiso
C9 C 0.3651(15) 0.5602(13) 0.4853(9) 0.0275 Uani
H4 H 0.3288 0.4828 0.4765 0.0330 Uiso
C10 C 0.5887(15) 0.8192(11) 0.6464(9) 0.0241 Uani
H5 H 0.5994 0.7747 0.6779 0.0290 Uiso
H6 H 0.6892 0.8567 0.6363 0.0290 Uiso
C11 C 0.3862(15) 0.8512(11) 0.7194(9) 0.0217 Uani
H7 H 0.4112 0.8147 0.7536 0.0260 Uiso
H8 H 0.3157 0.7934 0.6754 0.0260 Uiso
C12 C 0.6241(15) 0.9833(13) 0.7581(8) 0.0281 Uani
H10 H 0.6441 0.9437 0.7913 0.0340 Uiso
C13 C 0.0079(15) 0.3932(12) 0.4166(8) 0.0248 Uani
H11 H 0.0018 0.4667 0.4372 0.0300 Uiso
C16 C 0.0093(16) 0.1834(12) 0.3549(9) 0.0201 Uani
H13 H 0.0071 0.1086 0.3291 0.0240 Uiso
C17 C 0.0844(16) 0.2624(12) 0.3275(9) 0.0201 Uani
H14 H 0.1376 0.2414 0.2845 0.0240 Uiso
C20 C 0.0759(15) 0.1104(11) 0.5065(8) 0.0167 Uani
H19 H 0.0574 0.1522 0.5590 0.0200 Uiso
H20 H 0.1385 0.1648 0.4853 0.0200 Uiso
C27 C 0.3163(16) 0.9356(12) 0.7625(8) 0.0269 Uani
H27 H 0.2243 0.8985 0.7806 0.0320 Uiso
H28 H 0.2887 0.9701 0.7275 0.0320 Uiso
C29 C 0.8573(15) 0.5528(12) 0.0375(9) 0.0225 Uani
H31 H 0.8193 0.4759 0.0068 0.0270 Uiso
C30 C 0.9311(16) 0.6235(12) 0.0027(9) 0.0289 Uani
C31 C 0.9861(15) 0.7369(12) 0.0444(10) 0.0251 Uani
C32 C 0.9644(16) 0.7712(12) 0.1219(9) 0.0246 Uani
C33 C 0.8879(16) 0.6916(12) 0.1522(9) 0.0248 Uani
H34 H 0.8731 0.7164 0.2052 0.0300 Uiso
C43 C 0.1569(14) 0.0325(12) 0.5114(8) 0.0202 Uani
H47 H 0.2513 0.0754 0.5454 0.0240 Uiso
O17 O 0.8752(10) 0.5773(8) 0.2719(6) 0.0203 Uani
O19 O 0.8727(10) 0.3884(8) 0.1598(6) 0.0208 Uani
N4 N 0.9346(11) 0.0509(9) 0.4575(6) 0.0169 Uani
C3 C 0.9785(16) 0.5401(12) 0.2762(9) 0.0190 Uani
C4 C 0.9819(16) 0.4324(12) 0.2092(9) 0.0210 Uani
C14 C 0.9340(15) 0.3167(12) 0.4485(9) 0.0269 Uani
H12 H 0.8811 0.3391 0.4915 0.0320 Uiso
C15 C 0.9350(15) 0.2083(12) 0.4197(9) 0.0198 Uani
C18 C 0.8522(15) 0.1258(12) 0.4547(9) 0.0228 Uani
H15 H 0.8341 0.1660 0.5077 0.0280 Uiso
H16 H 0.7548 0.0817 0.4239 0.0280 Uiso
H18 H 0.8191 0.0062 0.5405 0.0240 Uiso
N6 N 0.4168(12) 0.0237(9) 0.8299(7) 0.0231 Uani
H9 H 0.7194 0.0181 0.7414 0.0340 Uiso
C22 C 0.5070(15) 0.1666(12) 0.9869(10) 0.0257 Uani
H22 H 0.5072 0.0920 0.9742 0.0310 Uiso
C23 C 0.4324(15) 0.1948(13) 0.9379(8) 0.0218 Uani
C24 C 0.4330(15) 0.3028(12) 0.9588(9) 0.0271 Uani
H23 H 0.3790 0.3241 0.9266 0.0330 Uiso
C26 C 0.3461(16) 0.1102(12) 0.8633(9) 0.0249 Uani
H25 H 0.2438 0.0753 0.8727 0.0300 Uiso
H26 H 0.3400 0.1477 0.8262 0.0300 Uiso
C28 C 0.5578(15) 0.0722(12) 0.8032(9) 0.0298 Uani
H29 H 0.6287 0.1263 0.8483 0.0360 Uiso
H30 H 0.5405 0.1128 0.7701 0.0360 Uiso
H56 H 0.9161 0.2162 0.0427 0.0360 Uiso
H59 H 0.8187 0.0121 0.0342 0.0370 Uiso
N12 N 0.9702(13) 0.0831(10) 0.9752(7) 0.0240 Uani
H53 H 0.9990 0.1524 0.8463 0.0290 Uiso
C50 C 0.9186(15) 0.1792(12) 0.9867(10) 0.0295 Uani
H55 H 0.8159 0.1527 0.9613 0.0360 Uiso
H32 H 0.9451 0.5956 0.9497 0.0350 Uiso
C35 C 0.9039(17) 0.8911(12) 0.9692(9) 0.0324 Uani
H37 H 0.8217 0.8289 0.9739 0.0390 Uiso
H38 H 0.9330 0.8669 0.9163 0.0390 Uiso
C52 C 0.8519(16) 0.9898(12) 0.9821(10) 0.0303 Uani
H60 H 0.7661 0.9697 0.9438 0.0370 Uiso
loop_
_atom_site_aniso_label
_atom_site_aniso_U_11
_atom_site_aniso_U_22
_atom_site_aniso_U_33
_atom_site_aniso_U_23
_atom_site_aniso_U_13
_atom_site_aniso_U_12
C36 0.02 0.028 0.048 0.015 -0.012 0.013
C51 0.036 0.018 0.035 0.003 -0.001 0.004
N11 0.018 0.018 0.018 0.0061 0.0022 0.0057
C45 0.023 0.014 0.031 0.004 0 0.011
C46 0.034 0.025 0.027 0.005 0.022 0.013
C47 0.018 0.02 0.048 0.02 0.012 0.012
C48 0.02 0.013 0.04 0.006 0.01 0.008
C49 0.018 0.023 0.024 -0.001 -0.001 0.004
Co9 0.0087 0.0216 0.024 0.007 0.0002 0.004
N10 0.017 0.017 0.017 0.0063 0.0018 0.0053
C38 0.022 0.027 0.037 0.016 0.019 0.01
C39 0.015 0.028 0.02 0.01 -0.008 0.01
C42 0.02 0.023 0.026 0.01 0.003 0.006
O15 0.02 0.02 0.021 0.0068 0.0019 0.0071
O16 0.02 0.021 0.021 0.0067 0.0021 0.0068
C55 0.019 0.019 0.019 0.0067 0.002 0.0059
C56 0.021 0.021 0.021 0.0073 0.0017 0.0068
C19 0.011 0.036 0.026 0.018 0.004 0.017
N9 0.024 0.024 0.024 0.0085 0.0025 0.0078
C37 0.033 0.023 0.02 0.007 0.015 0.012
C40 0.016 0.02 0.022 0.005 -0.005 0.005
C41 0.016 0.02 0.022 0.005 -0.005 0.005
C44 0.023 0.009 0.015 0.003 -0.004 0.002
Co3 0.0113 0.0254 0.0232 0.0065 0.0016 0.0081
O9 0.021 0.022 0.022 0.0079 0.0026 0.0067
O10 0.02 0.02 0.02 0.007 0.0022 0.0067
O11 0.021 0.022 0.022 0.0077 0.0025 0.0069
O12 0.015 0.015 0.016 0.0053 0.0015 0.005
O13 0.019 0.019 0.02 0.006 0.0018 0.0074
O14 0.02 0.021 0.021 0.0063 0.0022 0.0071
N13 0.015 0.015 0.015 0.0055 0.0015 0.0049
N14 0.024 0.024 0.024 0.0077 0.0026 0.0079
C53 0.011 0.011 0.011 0.0041 0.0012 0.0036
C54 0.014 0.014 0.014 0.0049 0.0012 0.0048
C57 0.021 0.022 0.022 0.0077 0.0023 0.0068
C58 0.02 0.021 0.018 -0.003 -0.003 0.003
C59 0.016 0.034 0.019 0.001 -0.007 0.012
C60 0.027 0.027 0.017 0.003 -0.004 0.018
C61 0.028 0.027 0.03 0.005 0.001 0.018
C62 0.024 0.024 0.024 0.0077 0.0026 0.0079
C63 0.025 0.01 0.027 0.004 0.002 0.004
C64 0.014 0.04 0.016 0.002 0.001 -0.003
C71 0.032 0.024 0.018 -0.001 0.002 0.009
N18 0.021 0.021 0.021 0.0071 0.0024 0.0068
C65 0.009 0.035 0.021 0.011 -0.01 0.006
C69 0.034 0.025 0.04 0.009 -0.006 0.012
N8 0.024 0.024 0.024 0.0087 0.0029 0.0075
C34 0.027 0.038 0.042 0.026 0.022 0.023
N16 0.023 0.023 0.023 0.0079 0.0028 0.0069
C66 0.014 0.028 0.039 0.013 0.001 0.011
C67 0.017 0.033 0.015 0.007 -0.005 0.009
C68 0.011 0.024 0.033 -0.005 -0.011 0.004
C70 0.029 0.027 0.028 0.014 0.002 0.017
C72 0.018 0.027 0.034 0.004 -0.007 0
N5 0.021 0.021 0.021 0.0071 0.0024 0.0068
C21 0.009 0.035 0.021 0.011 -0.01 0.006
C25 0.034 0.025 0.04 0.009 -0.006 0.012
Co6 0.0087 0.0216 0.024 0.007 0.0002 0.004
Co1 0.0113 0.0254 0.0232 0.0065 0.0016 0.0081
O1 0.021 0.022 0.022 0.0079 0.0026 0.0067
O2 0.02 0.02 0.02 0.007 0.0022 0.0067
O3 0.021 0.022 0.022 0.0077 0.0025 0.0069
O4 0.015 0.015 0.016 0.0053 0.0015 0.005
O5 0.019 0.019 0.02 0.006 0.0018 0.0074
O6 0.02 0.021 0.021 0.0063 0.0022 0.0071
N1 0.015 0.015 0.015 0.0055 0.0015 0.0049
N2 0.024 0.024 0.024 0.0077 0.0026 0.0079
N3 0.024 0.024 0.024 0.0085 0.0025 0.0078
N7 0.018 0.018 0.018 0.0061 0.0022 0.0057
C1 0.011 0.011 0.011 0.0041 0.0012 0.0036
C2 0.014 0.014 0.014 0.0049 0.0012 0.0048
C5 0.021 0.022 0.022 0.0077 0.0023 0.0068
C6 0.02 0.021 0.018 -0.003 -0.003 0.003
C7 0.016 0.034 0.019 0.001 -0.007 0.012
C8 0.027 0.027 0.017 0.003 -0.004 0.018
C9 0.028 0.027 0.03 0.005 0.001 0.018
C10 0.024 0.024 0.024 0.0077 0.0026 0.0079
C11 0.025 0.01 0.027 0.004 0.002 0.004
C12 0.014 0.04 0.016 0.002 0.001 -0.003
C13 0.033 0.023 0.02 0.007 0.015 0.012
C16 0.016 0.02 0.022 0.005 -0.005 0.005
C17 0.016 0.02 0.022 0.005 -0.005 0.005
C20 0.023 0.009 0.015 0.003 -0.004 0.002
C27 0.032 0.024 0.018 -0.001 0.002 0.009
C29 0.023 0.014 0.031 0.004 0 0.011
C30 0.034 0.025 0.027 0.005 0.022 0.013
C31 0.018 0.02 0.048 0.02 0.012 0.012
C32 0.02 0.013 0.04 0.006 0.01 0.008
C33 0.018 0.023 0.024 -0.001 -0.001 0.004
C43 0.011 0.036 0.026 0.018 0.004 0.017
O17 0.02 0.02 0.021 0.0068 0.0019 0.0071
O19 0.02 0.021 0.021 0.0067 0.0021 0.0068
N4 0.017 0.017 0.017 0.0063 0.0018 0.0053
C3 0.019 0.019 0.019 0.0067 0.002 0.0059
C4 0.021 0.021 0.021 0.0073 0.0017 0.0068
C14 0.022 0.027 0.037 0.016 0.019 0.01
C15 0.015 0.028 0.02 0.01 -0.008 0.01
C18 0.02 0.023 0.026 0.01 0.003 0.006
N6 0.023 0.023 0.023 0.0079 0.0028 0.0069
C22 0.014 0.028 0.039 0.013 0.001 0.011
C23 0.017 0.033 0.015 0.007 -0.005 0.009
C24 0.011 0.024 0.033 -0.005 -0.011 0.004
C26 0.029 0.027 0.028 0.014 0.002 0.017
C28 0.018 0.027 0.034 0.004 -0.007 0
N12 0.024 0.024 0.024 0.0087 0.0029 0.0075
C50 0.027 0.038 0.042 0.026 0.022 0.023
C35 0.036 0.018 0.035 0.003 -0.001 0.004
C52 0.02 0.028 0.048 0.015 -0.012 0.013
loop_
_geom_bond_atom_site_label_1
_geom_bond_atom_site_label_2
_geom_bond_site_symmetry_1
_geom_bond_site_symmetry_2
H40 C36 1_555 1_555
C51 C36 1_555 1_555
H57 C51 1_555 1_555
H58 C51 1_555 1_555
N11 C45 1_555 1_555
C45 H51 1_555 1_555
C46 C45 1_555 1_555
C47 C46 1_555 1_555
C48 C47 1_555 1_555
C49 N11 1_555 1_555
H54 C49 1_555 1_555
Co9 N11 1_555 1_555
C48 C49 1_555 1_555
N10 C42 1_555 1_555
H42 C38 1_555 1_555
C39 C38 1_555 1_555
C42 C39 1_555 1_555
H45 C42 1_555 1_555
H46 C42 1_555 1_555
O15 C55 1_555 1_555
O16 C56 1_555 1_555
Co9 O15 1_555 1_555
O16 Co9 1_555 1_555
C55 C56 1_555 1_555
H17 C19 1_555 1_555
N9 C37 1_555 1_555
C37 H41 1_555 1_555
H43 C40 1_555 1_555
C41 N9 1_555 1_555
H44 C41 1_555 1_555
C44 C19 1_555 1_555
H49 C44 1_555 1_555
H50 C44 1_555 1_555
Co3 N9 1_555 1_555
Co9 O11 1_555 1_555
O9 Co3 1_555 1_555
O10 Co3 1_555 1_555
O11 C53 1_555 1_555
O12 Co9 1_555 1_555
O13 Co3 1_555 1_555
O14 Co3 1_555 1_555
N13 Co3 1_555 1_555
N14 C62 1_555 1_555
C53 O9 1_555 1_555
C54 O10 1_555 1_555
C57 N13 1_555 1_555
H61 C57 1_555 1_555
C58 C57 1_555 1_555
H62 C58 1_555 1_555
C59 C58 1_555 1_555
C60 C59 1_555 1_555
H63 C60 1_555 1_555
C61 N13 1_555 1_555
H64 C61 1_555 1_555
C62 C59 1_555 1_555
H65 C62 1_555 1_555
H66 C62 1_555 1_555
C63 N14 1_555 1_555
H67 C63 1_555 1_555
H68 C63 1_555 1_555
C64 N14 1_555 1_555
H70 C64 1_555 1_555
H77 C71 1_555 1_555
H78 C71 1_555 1_555
N18 Co9 1_555 1_555
C40 C41 1_555 1_555
O12 C54 1_555 1_555
C53 C54 1_555 1_555
C60 C61 1_555 1_555
C63 C71 1_555 1_555
N18 C65 1_555 1_555
C65 H71 1_555 1_555
C69 N18 1_555 1_555
H74 C69 1_555 1_555
N8 C34 1_555 1_555
H35 C34 1_555 1_555
N16 C70 1_555 1_555
H72 C66 1_555 1_555
C67 C66 1_555 1_555
C68 C67 1_555 1_555
H73 C68 1_555 1_555
C70 C67 1_555 1_555
H75 C70 1_555 1_555
H76 C70 1_555 1_555
C72 N16 1_555 1_555
H79 C72 1_555 1_555
H80 C72 1_555 1_555
N5 C21 1_555 1_555
C21 H21 1_555 1_555
C25 N5 1_555 1_555
H24 C25 1_555 1_555
Co6 N5 1_555 1_555
Co1 O1 1_555 1_555
Co6 O3 1_555 1_555
O1 C1 1_555 1_555
O2 Co1 1_555 1_555
O3 C1 1_555 1_555
O4 Co6 1_555 1_555
O5 Co1 1_555 1_555
O6 Co1 1_555 1_555
N1 Co1 1_555 1_555
N2 C10 1_555 1_555
N3 Co1 1_555 1_555
N7 Co6 1_555 1_555
C1 C2 1_555 1_555
C2 O2 1_555 1_555
C5 N1 1_555 1_555
H1 C5 1_555 1_555
C6 C5 1_555 1_555
H2 C6 1_555 1_555
C7 C6 1_555 1_555
C8 C7 1_555 1_555
H3 C8 1_555 1_555
C9 N1 1_555 1_555
H4 C9 1_555 1_555
C10 C7 1_555 1_555
H5 C10 1_555 1_555
H6 C10 1_555 1_555
C11 N2 1_555 1_555
H7 C11 1_555 1_555
H8 C11 1_555 1_555
C12 N2 1_555 1_555
H10 C12 1_555 1_555
C13 N3 1_555 1_555
H11 C13 1_555 1_555
H13 C16 1_555 1_555
C17 N3 1_555 1_555
H14 C17 1_555 1_555
H19 C20 1_555 1_555
H20 C20 1_555 1_555
H27 C27 1_555 1_555
H28 C27 1_555 1_555
C29 N7 1_555 1_555
H31 C29 1_555 1_555
C30 C29 1_555 1_555
C31 C30 1_555 1_555
C32 C31 1_555 1_555
C33 N7 1_555 1_555
H34 C33 1_555 1_555
C43 C20 1_555 1_555
H47 C43 1_555 1_555
O17 Co6 1_555 1_555
O19 Co6 1_555 1_555
O4 C2 1_555 1_555
C8 C9 1_555 1_555
C11 C27 1_555 1_555
C16 C17 1_555 1_555
C32 C33 1_555 1_555
O17 C3 1_555 1_555
O19 C4 1_555 1_555
N4 C18 1_555 1_555
H12 C14 1_555 1_555
C15 C14 1_555 1_555
C18 C15 1_555 1_555
H15 C18 1_555 1_555
H16 C18 1_555 1_555
C3 C4 1_555 1_555
N6 C26 1_555 1_555
H22 C22 1_555 1_555
C23 C22 1_555 1_555
C24 C23 1_555 1_555
H23 C24 1_555 1_555
C26 C23 1_555 1_555
H25 C26 1_555 1_555
H26 C26 1_555 1_555
C28 N6 1_555 1_555
H29 C28 1_555 1_555
H30 C28 1_555 1_555
N12 C50 1_555 1_555
H55 C50 1_555 1_555
H37 C35 1_555 1_555
H38 C35 1_555 1_555
C52 C35 1_555 1_555
H60 C52 1_555 1_555

#END
