
###############################################################################
#
# This file contains modified crystal structure data generated from the
# MOF subset of the Cambridge Structural Database (CSD) v543 
# hosted by the Cambridge Crystallographic Data Centre (CCDC).
#
# This work is licensed under the Creative Commons
# Attribution-NonCommercial-ShareAlike 4.0 International License.
# To view a copy of this license, visit
# http://creativecommons.org/licenses/by-nc-sa/4.0/
# or send a letter to
# Creative Commons, PO Box 1866, Mountain View, CA 94042, USA.
#
# CIF created using the CSD Python API on 29 September 2022
# The structure has been converted into the P1 space group
# The structure has a 3D framework
# The original CSD entry UHIZUI is in the rhombohedral crystal system
# The framework has been calculated to contain at least 10.0% void space
# The void calculation uses a probe of radius 1.32A, grid spacing 0.4
#
###############################################################################

data_UHIZUI
_chemical_formula_moiety         '(C432 H432 B60 Cu36 I14 N288)n'
_symmetry_cell_setting           triclinic
_symmetry_space_group_name_H-M   'P 1'
_symmetry_Int_Tables_number      1
_space_group_name_Hall           'P 1'
loop_
_symmetry_equiv_pos_site_id
_symmetry_equiv_pos_as_xyz
1 x,y,z
_cell_length_a                   20.1157(5)
_cell_length_b                   20.1157(5)
_cell_length_c                   59.6452(18)
_cell_angle_alpha                90
_cell_angle_beta                 90
_cell_angle_gamma                120
_cell_volume                     20901.5
loop_
_atom_site_label
_atom_site_type_symbol
_atom_site_fract_x
_atom_site_fract_y
_atom_site_fract_z
C65 C 0.05167(21) 0.43622(15) 0.10615(6)
H65 H 0.0995 0.4715 0.0995
C66 C 0.03212(21) 0.43286(14) 0.12811(5)
H66 H 0.0661 0.4663 0.1393
C70 C 0.02080(23) 0.63329(16) 0.08487(5)
H70 H 0.0564 0.6363 0.0739
C72 C 0.03212(21) 0.64977(14) 0.10700(6)
H72 H 0.0805 0.6685 0.1141
I6 I 0.027663(13) 0.360084(13) 0.189608(7)
Cu9 Cu 0.117475(19) 0.682855(18) 0.993234(5)
Cu1 Cu 0.650478(18) 0.549192(19) 0.159901(5)
Cu2 Cu 0.430210(18) 0.312571(18) 0.053560(6)
I1 I 0.306583(13) 0.305670(13) 0.022941(7)
B1 B 0.6667 0.3333 0.21669(10)
B2 B 0.6368(2) 0.6259(3) 0.07090(7)
B3 B 0.35626(14) 0.31296(15) 0.14395(6)
B4 B 0.6667 0.3333 0.00144(10)
N1 N 0.67726(11) 0.49816(11) 0.18507(4)
N2 N 0.58470(11) 0.30792(11) 0.00936(4)
N3 N 0.36299(10) 0.33058(11) 0.11815(4)
N4 N 0.72579(11) 0.63990(11) 0.06772(4)
N5 N 0.54020(12) 0.46933(13) 0.16415(4)
N6 N 0.68002(11) 0.41039(11) 0.20676(4)
N7 N 0.41998(12) 0.37494(13) 0.15572(4)
N8 N 0.38956(12) 0.33219(12) 0.08219(4)
N9 N 0.62265(11) 0.58239(12) 0.13241(4)
N10 N 0.35192(12) 0.23431(12) 0.14618(4)
N11 N 0.58739(12) 0.54717(12) 0.05813(4)
N12 N 0.62108(12) 0.61015(12) 0.09564(4)
N13 N 0.82446(12) 0.62357(13) 0.06131(4)
N14 N 0.38435(12) 0.14532(11) 0.15243(4)
N15 N 0.50207(11) 0.42484(11) 0.05007(4)
N16 N 0.48946(12) 0.29286(13) 0.02952(5)
C1 C 0.79012(16) 0.70995(15) 0.07131(6)
H1 H 0.7914 0.7565 0.0751
C2 C 0.40765(14) 0.22306(14) 0.15325(5)
H2 H 0.4566 0.2623 0.1582
C3 C 0.65064(16) 0.58922(16) 0.11139(6)
H3 H 0.6909 0.5789 0.1083
C4 C 0.49473(15) 0.42267(14) 0.14843(6)
H4 H 0.5115 0.4218 0.1336
C5 C 0.74782(16) 0.58985(15) 0.06233(5)
H5 H 0.7136 0.5369 0.0595
C6 C 0.39079(15) 0.30407(17) 0.10156(5)
H6 H 0.4089 0.2691 0.1040
C7 C 0.65240(14) 0.42596(14) 0.18810(5)
H7 H 0.6178 0.3873 0.1781
C8 C 0.85228(18) 0.69985(17) 0.06845(5)
H8 H 0.9045 0.7374 0.0708
C9 C 0.56389(13) 0.32676(14) 0.02765(5)
H9 H 0.5987 0.3612 0.0385
C10 C 0.53475(14) 0.46271(14) 0.03088(5)
H10 H 0.5225 0.4398 0.0164
C11 C 0.72579(16) 0.53241(14) 0.20278(6)
H11 H 0.7462(9) 0.5697(9) 0.2048(3)
C12 C 0.49632(17) 0.44985(17) 0.18317(6)
H12 H 0.5127 0.4720 0.1976
C13 C 0.42607(19) 0.39378(19) 0.17757(6)
H13 H 0.3848 0.3698 0.1879
C14 C 0.56378(15) 0.61545(15) 0.10615(6)
H14 H 0.5285 0.6280 0.0995
C15 C 0.56714(14) 0.59926(16) 0.12811(5)
H15 H 0.5337 0.5998 0.1393
C16 C 0.31178(14) 0.11015(15) 0.14346(5)
H16 H 0.2810 0.0567 0.1406
C17 C 0.72971(15) 0.48201(14) 0.21546(5)
H17 H 0.7611 0.4925 0.2284
C18 C 0.29074(14) 0.16378(14) 0.13930(5)
H18 H 0.2437 0.1549 0.1330
C19 C 0.53631(14) 0.47583(14) 0.06557(5)
H19 H 0.5263 0.4641 0.0811
C21 C 0.36671(16) 0.38751(16) 0.08487(5)
H21 H 0.3637 0.4201 0.0739
C22 C 0.58518(14) 0.53451(14) 0.03457(5)
H22 H 0.6151 0.5717 0.0236
C23 C 0.35023(14) 0.38235(16) 0.10700(6)
H23 H 0.3315 0.4120 0.1141
C24 C 0.45835(16) 0.24683(16) 0.01144(5)
H24 H 0.4054 0.2162 0.0079
N17 N 0.50184(11) 0.17910(16) 0.18507(4)
N18 N 0.58961(11) 0.26963(16) 0.20676(4)
C25 C 0.57404(14) 0.22644(20) 0.18810(5)
H25 H 0.6127 0.2305 0.1781
C26 C 0.46759(14) 0.19338(21) 0.20278(6)
H26 H 0.4303(9) 0.1765(13) 0.2048(3)
C27 C 0.51799(14) 0.24770(21) 0.21546(5)
H27 H 0.5075 0.2686 0.2284
N19 N 0.82090(16) 0.32274(11) 0.18507(4)
N20 N 0.73037(16) 0.31998(11) 0.20676(4)
C28 C 0.77356(20) 0.34760(14) 0.18810(5)
H28 H 0.7695 0.3822 0.1781
C29 C 0.80662(21) 0.27421(16) 0.20278(6)
H29 H 0.8235(13) 0.2538(9) 0.2048(3)
C30 C 0.75230(21) 0.27029(15) 0.21546(5)
H30 H 0.7314 0.2389 0.2284
N21 N 0.69208(11) 0.27678(16) 0.00936(4)
N22 N 0.70714(13) 0.19660(18) 0.02952(5)
C31 C 0.67324(14) 0.23713(19) 0.02765(5)
H31 H 0.6388 0.2375 0.0385
C33 C 0.75317(16) 0.21152(23) 0.01144(5)
H33 H 0.7838 0.1892 0.0079
N23 N 0.72322(16) 0.41530(11) 0.00936(4)
N24 N 0.80340(18) 0.51054(12) 0.02952(5)
C34 C 0.76287(19) 0.43611(13) 0.02765(5)
H34 H 0.7625 0.4013 0.0385
C36 C 0.78848(23) 0.54165(16) 0.01144(5)
H36 H 0.8108 0.5946 0.0079
Cu3 Cu 0.450808(19) 0.101286(26) 0.159901(5)
Cu4 Cu 0.687429(18) 0.117639(25) 0.053560(6)
I2 I 0.694330(13) 0.000913(18) 0.022941(7)
B5 B 0.3741(3) 0.0109(4) 0.07090(7)
B6 B 0.68704(15) 0.04330(21) 0.14395(6)
N25 N 0.66942(11) 0.03241(15) 0.11815(4)
N26 N 0.36010(11) 0.08589(16) 0.06772(4)
N27 N 0.53067(13) 0.07087(18) 0.16415(4)
N28 N 0.62506(13) 0.04504(18) 0.15572(4)
N29 N 0.66781(12) 0.05737(17) 0.08219(4)
N30 N 0.41761(12) 0.04026(16) 0.13241(4)
N31 N 0.76569(12) 0.11761(17) 0.14618(4)
N32 N 0.45283(12) 0.04022(17) 0.05813(4)
N33 N 0.38985(12) 0.01093(17) 0.09564(4)
N34 N 0.37643(13) 0.20089(18) 0.06131(4)
N35 N 0.85468(11) 0.23903(16) 0.15243(4)
N36 N 0.57516(11) 0.07723(16) 0.05007(4)
C37 C 0.29005(15) 0.08017(22) 0.07131(6)
H37 H 0.2435 0.0349 0.0751
C38 C 0.77694(14) 0.18459(20) 0.15325(5)
H38 H 0.7377 0.1943 0.1582
C39 C 0.41078(16) 0.06142(23) 0.11139(6)
H39 H 0.4211 0.1120 0.1083
C40 C 0.57733(14) 0.07206(21) 0.14843(6)
H40 H 0.5782 0.0897 0.1336
C41 C 0.41015(15) 0.15797(22) 0.06233(5)
H41 H 0.4631 0.1767 0.0595
C42 C 0.69593(17) 0.08672(23) 0.10156(5)
H42 H 0.7309 0.1398 0.1040
C43 C 0.30015(17) 0.15243(25) 0.06845(5)
H43 H 0.2626 0.1671 0.0708
C44 C 0.53729(14) 0.07204(20) 0.03088(5)
H44 H 0.5602 0.0827 0.0164
C45 C 0.55015(17) 0.04647(24) 0.18317(6)
H45 H 0.5280 0.0407 0.1976
C46 C 0.60622(19) 0.03229(27) 0.17757(6)
H46 H 0.6302 0.0150 0.1879
C49 C 0.88985(15) 0.20163(21) 0.14346(5)
H49 H 0.9433 0.2243 0.1406
C50 C 0.83622(14) 0.12696(20) 0.13930(5)
H50 H 0.8451 0.0888 0.1330
C51 C 0.52417(14) 0.06048(20) 0.06557(5)
H51 H 0.5359 0.0622 0.0811
C53 C 0.46549(14) 0.05067(20) 0.03457(5)
H53 H 0.4283 0.0434 0.0236
Cu5 Cu 0.898714(26) 0.349522(18) 0.159901(5)
Cu6 Cu 0.882361(25) 0.569790(18) 0.053560(6)
I3 I 0.999087(18) 0.693417(13) 0.022941(7)
B7 B 0.9891(4) 0.3632(2) 0.07090(7)
B8 B 0.95670(21) 0.64374(14) 0.14395(6)
N37 N 0.96759(15) 0.63701(10) 0.11815(4)
N38 N 0.91411(16) 0.27421(11) 0.06772(4)
N39 N 0.92913(18) 0.45980(12) 0.16415(4)
N40 N 0.95496(18) 0.58002(12) 0.15572(4)
N41 N 0.94263(17) 0.61044(12) 0.08219(4)
N42 N 0.95974(16) 0.37735(11) 0.13241(4)
N43 N 0.88239(17) 0.64808(12) 0.14618(4)
N44 N 0.95978(17) 0.41261(12) 0.05813(4)
N45 N 0.98907(17) 0.37892(12) 0.09564(4)
N46 N 0.79911(18) 0.17554(12) 0.06131(4)
N47 N 0.76097(16) 0.61565(12) 0.15243(4)
N48 N 0.92277(16) 0.49793(11) 0.05007(4)
C55 C 0.91983(22) 0.20988(16) 0.07131(6)
H55 H 0.9651 0.2086 0.0751
C56 C 0.81541(20) 0.59235(14) 0.15325(5)
H56 H 0.8057 0.5434 0.1582
C57 C 0.93858(23) 0.34936(16) 0.11139(6)
H57 H 0.8880 0.3091 0.1083
C58 C 0.92794(21) 0.50527(15) 0.14843(6)
H58 H 0.9103 0.4885 0.1336
C59 C 0.84203(22) 0.25218(16) 0.06233(5)
H59 H 0.8233 0.2864 0.0595
C60 C 0.91328(23) 0.60921(15) 0.10156(5)
H60 H 0.8602 0.5911 0.1040
C61 C 0.84757(25) 0.14772(18) 0.06845(5)
H61 H 0.8329 0.0955 0.0708
C62 C 0.92796(20) 0.46525(14) 0.03088(5)
H62 H 0.9173 0.4775 0.0164
C63 C 0.95353(24) 0.50368(17) 0.18317(6)
H63 H 0.9593 0.4873 0.1976
C64 C 0.96771(27) 0.57393(19) 0.17757(6)
H64 H 0.9850 0.6152 0.1879
C67 C 0.79837(21) 0.68822(14) 0.14346(5)
H67 H 0.7757 0.7190 0.1406
C68 C 0.87304(20) 0.70926(14) 0.13930(5)
H68 H 0.9112 0.7563 0.1330
C69 C 0.93952(20) 0.46369(14) 0.06557(5)
H69 H 0.9378 0.4737 0.0811
C71 C 0.94933(20) 0.41482(14) 0.03457(5)
H71 H 0.9566 0.3849 0.0236
I5 I 0.639916(13) 0.667580(18) 0.189608(7)
C20 C 0.51700(16) 0.25359(17) 0.99990(6)
H20 H 0.5131 0.2249 0.9868
C32 C 0.74641(17) 0.26341(23) 0.99990(6)
H32 H 0.7751 0.2882 0.9868
C35 C 0.73659(23) 0.48300(16) 0.99990(6)
H35 H 0.7118 0.4869 0.9868
Cu8 Cu 0.317145(18) 0.434619(26) 0.993234(5)
Cu7 Cu 0.565381(26) 0.882525(19) 0.993234(5)
C14_2 C 0.05167(21) 0.61545(15) 0.60615(6)
H14_2 H 0.0995 0.6280 0.5995
C15_2 C 0.03212(21) 0.59926(16) 0.62811(5)
H15_2 H 0.0661 0.5998 0.6393
C21_2 C 0.02080(23) 0.38751(16) 0.58487(5)
H21_2 H 0.0564 0.4201 0.5739
C23_2 C 0.03212(21) 0.38235(16) 0.60700(6)
H23_2 H 0.0805 0.4120 0.6141
Cu8_2 Cu 0.117475(32) 0.434619(26) 0.493234(5)
I5_2 I 0.027663(22) 0.667580(18) 0.689608(7)
Cu1_2 Cu 0.898714(26) 0.549192(19) 0.659901(5)
Cu2_2 Cu 0.882361(25) 0.312571(18) 0.553560(6)
I1_2 I 0.999087(18) 0.305670(13) 0.522941(7)
B1_2 B 0.6666 0.3333 0.71669(10)
B2_2 B 0.9891(4) 0.6259(3) 0.57090(7)
B3_2 B 0.95670(21) 0.31296(15) 0.64395(6)
B4_2 B 0.6666 0.3333 0.50144(10)
N1_2 N 0.82090(16) 0.49816(11) 0.68507(4)
N2_2 N 0.72322(16) 0.30792(11) 0.50936(4)
N3_2 N 0.96759(15) 0.33058(11) 0.61815(4)
N4_2 N 0.91411(16) 0.63990(11) 0.56772(4)
N5_2 N 0.92913(18) 0.46933(13) 0.66415(4)
N6_2 N 0.73037(16) 0.41039(11) 0.70676(4)
N7_2 N 0.95496(18) 0.37494(13) 0.65572(4)
N8_2 N 0.94263(17) 0.33219(12) 0.58219(4)
N9_2 N 0.95974(16) 0.58239(12) 0.63241(4)
N10_2 N 0.88239(17) 0.23431(12) 0.64618(4)
N11_2 N 0.95978(17) 0.54717(12) 0.55813(4)
N12_2 N 0.98907(17) 0.61015(12) 0.59564(4)
N13_2 N 0.79911(18) 0.62357(13) 0.56131(4)
N14_2 N 0.76097(16) 0.14532(11) 0.65243(4)
N15_2 N 0.92277(16) 0.42484(11) 0.55007(4)
N16_2 N 0.80340(18) 0.29286(13) 0.52952(5)
C1_2 C 0.91983(22) 0.70995(15) 0.57131(6)
H1_2 H 0.9651 0.7565 0.5751
C2_2 C 0.81541(20) 0.22306(14) 0.65325(5)
H2_2 H 0.8057 0.2623 0.6582
C3_2 C 0.93858(23) 0.58922(16) 0.61139(6)
H3_2 H 0.8880 0.5789 0.6083
C4_2 C 0.92794(21) 0.42267(14) 0.64843(6)
H4_2 H 0.9103 0.4218 0.6336
C5_2 C 0.84203(22) 0.58985(15) 0.56233(5)
H5_2 H 0.8233 0.5369 0.5595
C6_2 C 0.91328(23) 0.30407(17) 0.60156(5)
H6_2 H 0.8602 0.2691 0.6040
C7_2 C 0.77356(20) 0.42596(14) 0.68810(5)
H7_2 H 0.7695 0.3873 0.6781
C8_2 C 0.84757(25) 0.69985(17) 0.56845(5)
H8_2 H 0.8329 0.7374 0.5708
C9_2 C 0.76287(19) 0.32676(14) 0.52765(5)
H9_2 H 0.7625 0.3612 0.5385
C10_2 C 0.92796(20) 0.46271(14) 0.53088(5)
H10_2 H 0.9173 0.4398 0.5164
C11_2 C 0.80662(21) 0.53241(14) 0.70278(6)
H11_2 H 0.8235(13) 0.5697(9) 0.7048(3)
C12_2 C 0.95353(24) 0.44985(17) 0.68317(6)
H12_2 H 0.9593 0.4720 0.6976
C13_2 C 0.96771(27) 0.39378(19) 0.67757(6)
H13_2 H 0.9850 0.3698 0.6879
C16_2 C 0.79837(21) 0.11015(15) 0.64346(5)
H16_2 H 0.7757 0.0567 0.6406
C17_2 C 0.75230(21) 0.48201(14) 0.71546(5)
H17_2 H 0.7314 0.4925 0.7284
C18_2 C 0.87304(20) 0.16378(14) 0.63930(5)
H18_2 H 0.9112 0.1549 0.6330
C19_2 C 0.93952(20) 0.47583(14) 0.56557(5)
H19_2 H 0.9378 0.4641 0.5811
C20_2 C 0.73659(23) 0.25359(17) 0.49990(6)
H20_2 H 0.7118 0.2249 0.4868
C22_2 C 0.94933(20) 0.53451(14) 0.53457(5)
H22_2 H 0.9566 0.5717 0.5236
C24_2 C 0.78848(23) 0.24683(16) 0.51144(5)
H24_2 H 0.8108 0.2162 0.5079
N17_2 N 0.67726(19) 0.17910(16) 0.68507(4)
N18_2 N 0.68002(19) 0.26963(16) 0.70676(4)
C25_2 C 0.65240(24) 0.22644(20) 0.68810(5)
H25_2 H 0.6178 0.2305 0.6781
C26_2 C 0.72579(25) 0.19338(21) 0.70278(6)
H26_2 H 0.7462(16) 0.1765(13) 0.7048(3)
C27_2 C 0.72971(25) 0.24770(21) 0.71546(5)
H27_2 H 0.7611 0.2686 0.7284
N19_2 N 0.50184(19) 0.32274(11) 0.68507(4)
N20_2 N 0.58961(19) 0.31998(11) 0.70676(4)
C28_2 C 0.57404(24) 0.34760(14) 0.68810(5)
H28_2 H 0.6127 0.3822 0.6781
C29_2 C 0.46759(26) 0.27421(16) 0.70278(6)
H29_2 H 0.4303(16) 0.2538(9) 0.7048(3)
C30_2 C 0.51799(26) 0.27029(15) 0.71546(5)
H30_2 H 0.5075 0.2389 0.7284
N21_2 N 0.58470(19) 0.27678(16) 0.50936(4)
N22_2 N 0.48946(22) 0.19660(18) 0.52952(5)
C31_2 C 0.56389(24) 0.23713(19) 0.52765(5)
H31_2 H 0.5987 0.2375 0.5385
C32_2 C 0.51700(29) 0.26341(23) 0.49990(6)
H32_2 H 0.5131 0.2882 0.4868
C33_2 C 0.45835(28) 0.21152(23) 0.51144(5)
H33_2 H 0.4054 0.1892 0.5079
N23_2 N 0.69208(19) 0.41530(11) 0.50936(4)
N24_2 N 0.70714(22) 0.51054(12) 0.52952(5)
C34_2 C 0.67324(23) 0.43611(13) 0.52765(5)
H34_2 H 0.6388 0.4013 0.5385
C35_2 C 0.74641(28) 0.48300(16) 0.49990(6)
H35_2 H 0.7751 0.4869 0.4868
C36_2 C 0.75317(28) 0.54165(16) 0.51144(5)
H36_2 H 0.7838 0.5946 0.5079
Cu3_2 Cu 0.650478(32) 0.101286(26) 0.659901(5)
Cu4_2 Cu 0.430210(31) 0.117639(25) 0.553560(6)
I2_2 I 0.306583(22) 0.000913(18) 0.522941(7)
B5_2 B 0.6368(5) 0.0109(4) 0.57090(7)
B6_2 B 0.35626(26) 0.04330(21) 0.64395(6)
N25_2 N 0.36299(19) 0.03241(15) 0.61815(4)
N26_2 N 0.72579(19) 0.08589(16) 0.56772(4)
N27_2 N 0.54020(22) 0.07087(18) 0.66415(4)
N28_2 N 0.41998(22) 0.04504(18) 0.65572(4)
N29_2 N 0.38956(21) 0.05737(17) 0.58219(4)
N30_2 N 0.62265(20) 0.04026(16) 0.63241(4)
N31_2 N 0.35192(21) 0.11761(17) 0.64618(4)
N32_2 N 0.58739(21) 0.04022(17) 0.55813(4)
N33_2 N 0.62108(21) 0.01093(17) 0.59564(4)
N34_2 N 0.82446(22) 0.20089(18) 0.56131(4)
N35_2 N 0.38435(19) 0.23903(16) 0.65243(4)
N36_2 N 0.50207(19) 0.07723(16) 0.55007(4)
C37_2 C 0.79012(27) 0.08017(22) 0.57131(6)
H37_2 H 0.7914 0.0349 0.5751
C38_2 C 0.40765(24) 0.18459(20) 0.65325(5)
H38_2 H 0.4566 0.1943 0.6582
C39_2 C 0.65064(28) 0.06142(23) 0.61139(6)
H39_2 H 0.6909 0.1120 0.6083
C40_2 C 0.49473(25) 0.07206(21) 0.64843(6)
H40_2 H 0.5115 0.0897 0.6336
C41_2 C 0.74782(27) 0.15797(22) 0.56233(5)
H41_2 H 0.7136 0.1767 0.5595
C42_2 C 0.39079(29) 0.08672(23) 0.60156(5)
H42_2 H 0.4089 0.1398 0.6040
C43_2 C 0.85228(30) 0.15243(25) 0.56845(5)
H43_2 H 0.9045 0.1671 0.5708
C44_2 C 0.53475(24) 0.07204(20) 0.53088(5)
H44_2 H 0.5225 0.0827 0.5164
C45_2 C 0.49632(29) 0.04647(24) 0.68317(6)
H45_2 H 0.5127 0.0407 0.6976
C46_2 C 0.42607(33) 0.03229(27) 0.67757(6)
H46_2 H 0.3848 0.0150 0.6879
C49_2 C 0.31178(26) 0.20163(21) 0.64346(5)
H49_2 H 0.2810 0.2243 0.6406
C50_2 C 0.29074(24) 0.12696(20) 0.63930(5)
H50_2 H 0.2437 0.0888 0.6330
C51_2 C 0.53631(24) 0.06048(20) 0.56557(5)
H51_2 H 0.5263 0.0622 0.5811
C53_2 C 0.58518(24) 0.05067(20) 0.53457(5)
H53_2 H 0.6151 0.0434 0.5236
Cu5_2 Cu 0.450808(32) 0.349522(18) 0.659901(5)
Cu6_2 Cu 0.687429(31) 0.569790(18) 0.553560(6)
I3_2 I 0.694330(22) 0.693417(13) 0.522941(7)
B7_2 B 0.3741(4) 0.3632(2) 0.57090(7)
B8_2 B 0.68704(25) 0.64374(14) 0.64395(6)
N37_2 N 0.66942(18) 0.63701(10) 0.61815(4)
N38_2 N 0.36010(19) 0.27421(11) 0.56772(4)
N39_2 N 0.53067(22) 0.45980(12) 0.66415(4)
N40_2 N 0.62506(22) 0.58002(12) 0.65572(4)
N41_2 N 0.66781(21) 0.61044(12) 0.58219(4)
N42_2 N 0.41761(19) 0.37735(11) 0.63241(4)
N43_2 N 0.76569(21) 0.64808(12) 0.64618(4)
N44_2 N 0.45283(21) 0.41261(12) 0.55813(4)
N45_2 N 0.38985(21) 0.37892(12) 0.59564(4)
N46_2 N 0.37643(22) 0.17554(12) 0.56131(4)
N47_2 N 0.85468(20) 0.61565(12) 0.65243(4)
N48_2 N 0.57516(19) 0.49793(11) 0.55007(4)
C55_2 C 0.29005(27) 0.20988(16) 0.57131(6)
H55_2 H 0.2435 0.2086 0.5751
C56_2 C 0.77694(24) 0.59235(14) 0.65325(5)
H56_2 H 0.7377 0.5434 0.6582
C57_2 C 0.41078(28) 0.34936(16) 0.61139(6)
H57_2 H 0.4211 0.3091 0.6083
C58_2 C 0.57733(26) 0.50527(15) 0.64843(6)
H58_2 H 0.5782 0.4885 0.6336
C59_2 C 0.41015(27) 0.25218(16) 0.56233(5)
H59_2 H 0.4631 0.2864 0.5595
C60_2 C 0.69593(27) 0.60921(15) 0.60156(5)
H60_2 H 0.7309 0.5911 0.6040
C61_2 C 0.30015(31) 0.14772(18) 0.56845(5)
H61_2 H 0.2626 0.0955 0.5708
C62_2 C 0.53729(24) 0.46525(14) 0.53088(5)
H62_2 H 0.5602 0.4775 0.5164
C63_2 C 0.55015(29) 0.50368(17) 0.68317(6)
H63_2 H 0.5280 0.4873 0.6976
C64_2 C 0.60622(33) 0.57393(19) 0.67757(6)
H64_2 H 0.6302 0.6152 0.6879
C65_2 C 0.38455(26) 0.43622(15) 0.60615(6)
H65_2 H 0.3720 0.4715 0.5995
C66_2 C 0.40074(25) 0.43286(14) 0.62811(5)
H66_2 H 0.4002 0.4663 0.6393
C67_2 C 0.88985(25) 0.68822(14) 0.64346(5)
H67_2 H 0.9433 0.7190 0.6406
C68_2 C 0.83622(24) 0.70926(14) 0.63930(5)
H68_2 H 0.8451 0.7563 0.6330
C69_2 C 0.52417(24) 0.46369(14) 0.56557(5)
H69_2 H 0.5359 0.4737 0.5811
C70_2 C 0.61249(28) 0.63329(16) 0.58487(5)
H70_2 H 0.5799 0.6363 0.5739
C71_2 C 0.46549(24) 0.41482(14) 0.53457(5)
H71_2 H 0.4283 0.3849 0.5236
C72_2 C 0.61765(25) 0.64977(14) 0.60700(6)
H72_2 H 0.5880 0.6685 0.6141
Cu9_2 Cu 0.565381(26) 0.682855(18) 0.493234(5)
I6_2 I 0.332420(18) 0.360084(13) 0.689608(7)
C47 C 0.56378(26) 0.94833(21) 0.60615(6)
H47 H 0.5285 0.9005 0.5995
C48 C 0.56714(26) 0.96788(21) 0.62811(5)
H48 H 0.5337 0.9339 0.6393
C52 C 0.36671(28) 0.97920(23) 0.58487(5)
H52 H 0.3637 0.9436 0.5739
C54 C 0.35023(26) 0.96788(21) 0.60700(6)
H54 H 0.3315 0.9195 0.6141
Cu7_2 Cu 0.317145(32) 0.882525(19) 0.493234(5)
I4 I 0.639916(22) 0.972337(13) 0.689608(7)
C1_3 C 0.45679(16) 0.04328(15) 0.40464(6)
H1_3 H 0.4581 0.0898 0.4084
C8_3 C 0.51895(18) 0.03318(17) 0.40178(5)
H8_3 H 0.5712 0.0707 0.4041
I3_3 I 0.665754(18) 0.026750(13) 0.356274(7)
C67_3 C 0.46504(21) 0.02155(14) 0.47679(5)
H67_3 H 0.4424 0.0523 0.4739
C68_3 C 0.53971(20) 0.04259(14) 0.47263(5)
H68_3 H 0.5779 0.0896 0.4663
H72_3 H 0.7472 0.0018 0.4474
Cu9_3 Cu 0.784141(19) 0.016189(18) 0.326568(5)
Cu2_3 Cu 0.096877(18) 0.645904(18) 0.386893(6)
B1_3 B 0.3334 0.6666 0.55002(10)
B2_3 B 0.3035(2) 0.9592(3) 0.40423(7)
B3_3 B 0.02293(14) 0.64629(15) 0.47728(6)
B4_3 B 0.3334 0.6666 0.33477(10)
N1_3 N 0.34393(11) 0.83149(11) 0.51840(4)
N2_3 N 0.25137(11) 0.64125(11) 0.34269(4)
N3_3 N 0.02966(10) 0.66391(11) 0.45148(4)
N4_3 N 0.39246(11) 0.97323(11) 0.40105(4)
N5_3 N 0.20687(12) 0.80266(13) 0.49748(4)
N6_3 N 0.34669(11) 0.74372(11) 0.54009(4)
N7_3 N 0.08665(12) 0.70827(13) 0.48905(4)
N8_3 N 0.05623(12) 0.66552(12) 0.41552(4)
N9_3 N 0.28932(11) 0.91572(12) 0.46574(4)
N10_3 N 0.01859(12) 0.56764(12) 0.47951(4)
N11_3 N 0.25406(12) 0.88050(12) 0.39146(4)
N12_3 N 0.28775(12) 0.94348(12) 0.42897(4)
N13_3 N 0.49113(12) 0.95690(13) 0.39464(4)
N14_3 N 0.05102(12) 0.47865(11) 0.48576(4)
N15_3 N 0.16874(11) 0.75817(11) 0.38340(4)
N16_3 N 0.15613(12) 0.62619(13) 0.36285(5)
C2_3 C 0.07432(14) 0.55639(14) 0.48658(5)
H2_3 H 0.1233 0.5956 0.4915
C3_3 C 0.31731(16) 0.92255(16) 0.44472(6)
H3_3 H 0.3576 0.9122 0.4416
C4_3 C 0.16140(15) 0.75600(14) 0.48176(6)
H4_3 H 0.1782 0.7551 0.4669
C5_3 C 0.41449(16) 0.92318(15) 0.39566(5)
H5_3 H 0.3803 0.8702 0.3928
C6_3 C 0.05746(15) 0.63740(17) 0.43489(5)
H6_3 H 0.0756 0.6024 0.4373
C7_3 C 0.31907(14) 0.75929(14) 0.52143(5)
H7_3 H 0.2845 0.7206 0.5114
C9_3 C 0.23056(13) 0.66009(14) 0.36098(5)
H9_3 H 0.2654 0.6945 0.3718
C10_3 C 0.20142(14) 0.79604(14) 0.36421(5)
H10_3 H 0.1892 0.7731 0.3497
C11_3 C 0.39246(16) 0.86574(14) 0.53611(6)
H11_3 H 0.4129(9) 0.9030(9) 0.5381(3)
C12_3 C 0.16299(17) 0.78318(17) 0.51650(6)
H12_3 H 0.1794 0.8053 0.5309
C13_3 C 0.09274(19) 0.72711(19) 0.51090(6)
H13_3 H 0.0515 0.7031 0.5212
C14_3 C 0.23045(15) 0.94878(15) 0.43948(6)
H14_3 H 0.1952 0.9613 0.4328
C15_3 C 0.23381(14) 0.93259(16) 0.46144(5)
H15_3 H 0.2004 0.9331 0.4726
C17_3 C 0.39638(15) 0.81534(14) 0.54879(5)
H17_3 H 0.4278 0.8258 0.5617
C19_3 C 0.20298(14) 0.80916(14) 0.39890(5)
H19_3 H 0.1930 0.7974 0.4144
C20_3 C 0.18367(16) 0.58692(17) 0.33323(6)
H20_3 H 0.1798 0.5582 0.3201
C21_3 C 0.03338(16) 0.72084(16) 0.41820(5)
H21_3 H 0.0304 0.7534 0.4072
C22_3 C 0.25185(14) 0.86784(14) 0.36790(5)
H22_3 H 0.2818 0.9050 0.3569
C23_3 C 0.01690(14) 0.71568(16) 0.44033(6)
C24_3 C 0.12502(16) 0.58016(16) 0.34477(5)
H24_3 H 0.0721 0.5495 0.3412
N17_3 N 0.16851(11) 0.51243(16) 0.51840(4)
N18_3 N 0.25628(11) 0.60296(16) 0.54009(4)
C25_3 C 0.24071(14) 0.55977(20) 0.52143(5)
H25_3 H 0.2794 0.5638 0.5114
C26_3 C 0.13426(14) 0.52671(21) 0.53611(6)
H26_3 H 0.0970(9) 0.5098(13) 0.5381(3)
C27_3 C 0.18466(14) 0.58103(21) 0.54879(5)
H27_3 H 0.1742 0.6019 0.5617
N19_3 N 0.48757(16) 0.65607(11) 0.51840(4)
N20_3 N 0.39704(16) 0.65331(11) 0.54009(4)
C28_3 C 0.44023(20) 0.68093(14) 0.52143(5)
H28_3 H 0.4362 0.7155 0.5114
C29_3 C 0.47329(21) 0.60754(16) 0.53611(6)
H29_3 H 0.4902(13) 0.5871(9) 0.5381(3)
C30_3 C 0.41897(21) 0.60362(15) 0.54879(5)
H30_3 H 0.3981 0.5722 0.5617
N21_3 N 0.35875(11) 0.61011(16) 0.34269(4)
N22_3 N 0.37381(13) 0.52993(18) 0.36285(5)
C31_3 C 0.33991(14) 0.57046(19) 0.36098(5)
H31_3 H 0.3055 0.5708 0.3718
C32_3 C 0.41308(17) 0.59674(23) 0.33323(6)
H32_3 H 0.4418 0.6215 0.3201
C33_3 C 0.41984(16) 0.54485(23) 0.34477(5)
H33_3 H 0.4505 0.5225 0.3412
N23_3 N 0.38989(16) 0.74863(11) 0.34269(4)
N24_3 N 0.47007(18) 0.84387(12) 0.36285(5)
C34_3 C 0.42954(19) 0.76944(13) 0.36098(5)
H34_3 H 0.4292 0.7346 0.3718
C35_3 C 0.40326(23) 0.81633(16) 0.33323(6)
H35_3 H 0.3785 0.8202 0.3201
C36_3 C 0.45515(23) 0.87498(16) 0.34477(5)
H36_3 H 0.4775 0.9279 0.3412
Cu4_3 Cu 0.354096(18) 0.450972(25) 0.386893(6)
I2_3 I 0.360997(13) 0.334246(18) 0.356274(7)
B5_3 B 0.0408(3) 0.3442(4) 0.40423(7)
B6_3 B 0.35371(15) 0.37663(21) 0.47728(6)
N25_3 N 0.33609(11) 0.36574(15) 0.45148(4)
N26_3 N 0.02677(11) 0.41922(16) 0.40105(4)
N27_3 N 0.19734(13) 0.40420(18) 0.49748(4)
N28_3 N 0.29173(13) 0.37837(18) 0.48905(4)
N29_3 N 0.33448(12) 0.39070(17) 0.41552(4)
N30_3 N 0.08428(12) 0.37359(16) 0.46574(4)
N31_3 N 0.43236(12) 0.45094(17) 0.47951(4)
N32_3 N 0.11950(12) 0.37355(17) 0.39146(4)
N33_3 N 0.05652(12) 0.34426(17) 0.42897(4)
N34_3 N 0.04310(13) 0.53422(18) 0.39464(4)
N35_3 N 0.52135(11) 0.57236(16) 0.48576(4)
N36_3 N 0.24183(11) 0.41056(16) 0.38340(4)
C38_3 C 0.44361(14) 0.51792(20) 0.48658(5)
H38_3 H 0.4044 0.5276 0.4915
C39_3 C 0.07745(16) 0.39475(23) 0.44472(6)
H39_3 H 0.0878 0.4453 0.4416
C40_3 C 0.24400(14) 0.40539(21) 0.48176(6)
H40_3 H 0.2449 0.4230 0.4669
C41_3 C 0.07682(15) 0.49130(22) 0.39566(5)
H41_3 H 0.1298 0.5100 0.3928
C42_3 C 0.36260(17) 0.42005(23) 0.43489(5)
H42_3 H 0.3976 0.4731 0.4373
C44_3 C 0.20396(14) 0.40537(20) 0.36421(5)
H44_3 H 0.2269 0.4160 0.3497
C45_3 C 0.21682(17) 0.37980(24) 0.51650(6)
H45_3 H 0.1947 0.3740 0.5309
C46_3 C 0.27289(19) 0.36562(27) 0.51090(6)
H46_3 H 0.2969 0.3483 0.5212
C47_2 C 0.05122(15) 0.28166(21) 0.43948(6)
H47_2 H 0.0387 0.2338 0.4328
C48_2 C 0.06741(16) 0.30121(21) 0.46144(5)
H48_2 H 0.0669 0.2672 0.4726
C49_3 C 0.55652(15) 0.53496(21) 0.47679(5)
H49_3 H 0.6100 0.5576 0.4739
C50_3 C 0.50289(14) 0.46029(20) 0.47263(5)
H50_3 H 0.5118 0.4221 0.4663
C51_3 C 0.19084(14) 0.39381(20) 0.39890(5)
H51_3 H 0.2026 0.3955 0.4144
C52_2 C 0.27916(16) 0.31253(23) 0.41820(5)
H52_2 H 0.2466 0.2769 0.4072
C53_3 C 0.13216(14) 0.38400(20) 0.36790(5)
H53_3 H 0.0950 0.3767 0.3569
C54_2 C 0.28432(16) 0.30121(21) 0.44033(6)
H54_2 H 0.2547 0.2528 0.4474
Cu6_3 Cu 0.549028(25) 0.903123(18) 0.386893(6)
B7_3 B 0.6558(4) 0.6965(2) 0.40423(7)
B8_3 B 0.62337(21) 0.97707(14) 0.47728(6)
N37_3 N 0.63426(15) 0.97034(10) 0.45148(4)
N38_3 N 0.58078(16) 0.60754(11) 0.40105(4)
N39_3 N 0.59580(18) 0.79313(12) 0.49748(4)
N40_3 N 0.62163(18) 0.91335(12) 0.48905(4)
N41_3 N 0.60930(17) 0.94377(12) 0.41552(4)
N42_3 N 0.62641(16) 0.71068(11) 0.46574(4)
N43_3 N 0.54906(17) 0.98141(12) 0.47951(4)
N44_3 N 0.62645(17) 0.74594(12) 0.39146(4)
N45_3 N 0.65574(17) 0.71225(12) 0.42897(4)
N46_3 N 0.46578(18) 0.50887(12) 0.39464(4)
N47_3 N 0.42764(16) 0.94898(12) 0.48576(4)
N48_3 N 0.58944(16) 0.83126(11) 0.38340(4)
C55_3 C 0.58650(22) 0.54321(16) 0.40464(6)
H55_3 H 0.6318 0.5419 0.4084
C56_3 C 0.48208(20) 0.92568(14) 0.48658(5)
H56_3 H 0.4724 0.8767 0.4915
C57_3 C 0.60525(23) 0.68269(16) 0.44472(6)
H57_3 H 0.5547 0.6424 0.4416
C58_3 C 0.59461(21) 0.83860(15) 0.48176(6)
H58_3 H 0.5770 0.8218 0.4669
C59_3 C 0.50870(22) 0.58551(16) 0.39566(5)
H59_3 H 0.4900 0.6197 0.3928
C60_3 C 0.57995(23) 0.94254(15) 0.43489(5)
H60_3 H 0.5269 0.9244 0.4373
C61_3 C 0.51424(25) 0.48105(18) 0.40178(5)
H61_3 H 0.4996 0.4288 0.4041
C62_3 C 0.59463(20) 0.79858(14) 0.36421(5)
H62_3 H 0.5840 0.8108 0.3497
C63_3 C 0.62020(24) 0.83701(17) 0.51650(6)
H63_3 H 0.6260 0.8206 0.5309
C64_3 C 0.63438(27) 0.90726(19) 0.51090(6)
H64_3 H 0.6517 0.9485 0.5212
C65_3 C 0.71834(21) 0.76955(15) 0.43948(6)
H65_3 H 0.7662 0.8048 0.4328
C66_3 C 0.69879(21) 0.76619(14) 0.46144(5)
H66_3 H 0.7328 0.7996 0.4726
C69_3 C 0.60619(20) 0.79702(14) 0.39890(5)
H69_3 H 0.6045 0.8070 0.4144
C70_3 C 0.68747(23) 0.96662(16) 0.41820(5)
H70_3 H 0.7231 0.9696 0.4072
C71_3 C 0.61600(20) 0.74815(14) 0.36790(5)
H71_3 H 0.6233 0.7182 0.3569
C72_3 C 0.69879(21) 0.98310(14) 0.44033(6)
Cu7_3 Cu 0.232047(26) 0.215859(19) 0.326568(5)
I1_3 I 0.973250(13) 0.639003(13) 0.356274(7)
C16_3 C 0.97845(14) 0.44348(15) 0.47679(5)
H16_3 H 0.9477 0.3900 0.4739
C18_3 C 0.95741(14) 0.49711(14) 0.47263(5)
H18_3 H 0.9104 0.4882 0.4663
H23_3 H 0.9982 0.7453 0.4474
C37_3 C 0.95672(15) 0.41350(22) 0.40464(6)
H37_3 H 0.9102 0.3682 0.4084
C43_3 C 0.96682(17) 0.48576(25) 0.40178(5)
H43_3 H 0.9293 0.5004 0.4041
Cu8_3 Cu 0.983811(18) 0.767953(26) 0.326568(5)
C1_4 C 0.58650(22) 0.04328(15) 0.90464(6)
H1_4 H 0.6318 0.0898 0.9084
C8_4 C 0.51424(25) 0.03318(17) 0.90178(5)
H8_4 H 0.4996 0.0707 0.9041
I3_4 I 0.360997(22) 0.026750(13) 0.856274(7)
C67_4 C 0.55652(25) 0.02155(14) 0.97679(5)
H67_4 H 0.6100 0.0523 0.9739
C68_4 C 0.50289(24) 0.04259(14) 0.97263(5)
H68_4 H 0.5118 0.0896 0.9663
H72_4 H 0.2547 0.0018 0.9474
Cu9_4 Cu 0.232047(26) 0.016189(18) 0.826568(5)
B1_4 B 0.3333 0.6666 0.05002(10)
N1_4 N 0.48757(16) 0.83149(11) 0.01840(4)
N6_4 N 0.39704(16) 0.74372(11) 0.04009(4)
C7_4 C 0.44023(20) 0.75929(14) 0.02143(5)
H7_4 H 0.4362 0.7206 0.0114
C11_4 C 0.47329(21) 0.86574(14) 0.03611(6)
H11_4 H 0.4902(13) 0.9030(9) 0.0381(3)
C12_4 C 0.62020(24) 0.78318(17) 0.01650(6)
H12_4 H 0.6260 0.8053 0.0309
C13_4 C 0.63438(27) 0.72711(19) 0.01090(6)
H13_4 H 0.6517 0.7031 0.0212
C17_4 C 0.41897(21) 0.81534(14) 0.04879(5)
H17_4 H 0.3981 0.8258 0.0617
N17_4 N 0.34393(19) 0.51243(16) 0.01840(4)
N18_4 N 0.34669(19) 0.60296(16) 0.04009(4)
C25_4 C 0.31907(24) 0.55977(20) 0.02143(5)
H25_4 H 0.2845 0.5638 0.0114
C26_4 C 0.39246(25) 0.52671(21) 0.03611(6)
H26_4 H 0.4129(16) 0.5098(13) 0.0381(3)
C27_4 C 0.39638(25) 0.58103(21) 0.04879(5)
H27_4 H 0.4278 0.6019 0.0617
N19_4 N 0.16851(19) 0.65607(11) 0.01840(4)
N20_4 N 0.25628(19) 0.65331(11) 0.04009(4)
C28_4 C 0.24071(24) 0.68093(14) 0.02143(5)
H28_4 H 0.2794 0.7155 0.0114
C29_4 C 0.13426(26) 0.60754(16) 0.03611(6)
H29_4 H 0.0970(16) 0.5871(9) 0.0381(3)
C30_4 C 0.18466(26) 0.60362(15) 0.04879(5)
H30_4 H 0.1742 0.5722 0.0617
C45_4 C 0.16299(29) 0.37980(24) 0.01650(6)
H45_4 H 0.1794 0.3740 0.0309
C46_4 C 0.09274(33) 0.36562(27) 0.01090(6)
H46_4 H 0.0515 0.3483 0.0212
C63_4 C 0.21682(29) 0.83701(17) 0.01650(6)
H63_4 H 0.1947 0.8206 0.0309
C64_4 C 0.27289(33) 0.90726(19) 0.01090(6)
H64_4 H 0.2969 0.9485 0.0212
Cu2_4 Cu 0.549028(25) 0.645904(18) 0.886893(6)
I1_4 I 0.665754(18) 0.639003(13) 0.856274(7)
B2_4 B 0.6558(4) 0.9592(3) 0.90423(7)
B3_4 B 0.62337(21) 0.64629(15) 0.97728(6)
B4_4 B 0.3333 0.6666 0.83477(10)
N2_4 N 0.38989(16) 0.64125(11) 0.84269(4)
N3_4 N 0.63426(15) 0.66391(11) 0.95148(4)
N4_4 N 0.58078(16) 0.97323(11) 0.90105(4)
N5_4 N 0.59580(18) 0.80266(13) 0.99748(4)
N7_4 N 0.62163(18) 0.70827(13) 0.98905(4)
N8_4 N 0.60930(17) 0.66552(12) 0.91552(4)
N9_4 N 0.62641(16) 0.91572(12) 0.96574(4)
N10_4 N 0.54906(17) 0.56764(12) 0.97951(4)
N11_4 N 0.62645(17) 0.88050(12) 0.89146(4)
N12_4 N 0.65574(17) 0.94348(12) 0.92897(4)
N13_4 N 0.46578(18) 0.95690(13) 0.89464(4)
N14_4 N 0.42764(16) 0.47865(11) 0.98576(4)
N15_4 N 0.58944(16) 0.75817(11) 0.88340(4)
N16_4 N 0.47007(18) 0.62619(13) 0.86285(5)
C2_4 C 0.48208(20) 0.55639(14) 0.98658(5)
H2_4 H 0.4724 0.5956 0.9915
C3_4 C 0.60525(23) 0.92255(16) 0.94472(6)
H3_4 H 0.5547 0.9122 0.9416
C4_4 C 0.59461(21) 0.75600(14) 0.98176(6)
H4_4 H 0.5770 0.7551 0.9669
C5_4 C 0.50870(22) 0.92318(15) 0.89566(5)
H5_4 H 0.4900 0.8702 0.8928
C6_4 C 0.57995(23) 0.63740(17) 0.93489(5)
H6_4 H 0.5269 0.6024 0.9373
C9_4 C 0.42954(19) 0.66009(14) 0.86098(5)
H9_4 H 0.4292 0.6945 0.8718
C10_4 C 0.59463(20) 0.79604(14) 0.86421(5)
H10_4 H 0.5840 0.7731 0.8497
C14_4 C 0.71834(21) 0.94878(15) 0.93948(6)
H14_4 H 0.7662 0.9613 0.9328
C15_4 C 0.69879(21) 0.93259(16) 0.96144(5)
H15_4 H 0.7328 0.9331 0.9726
C16_4 C 0.46504(21) 0.44348(15) 0.97679(5)
H16_4 H 0.4424 0.3900 0.9739
C18_4 C 0.53971(20) 0.49711(14) 0.97263(5)
H18_4 H 0.5779 0.4882 0.9663
C19_4 C 0.60619(20) 0.80916(14) 0.89890(5)
H19_4 H 0.6045 0.7974 0.9144
C20_4 C 0.40326(23) 0.58692(17) 0.83323(6)
H20_4 H 0.3785 0.5582 0.8201
C21_4 C 0.68747(23) 0.72084(16) 0.91820(5)
H21_4 H 0.7231 0.7534 0.9072
C22_4 C 0.61600(20) 0.86784(14) 0.86790(5)
H22_4 H 0.6233 0.9050 0.8569
C23_4 C 0.69879(21) 0.71568(16) 0.94033(6)
H23_4 H 0.7472 0.7453 0.9474
C24_4 C 0.45515(23) 0.58016(16) 0.84477(5)
H24_4 H 0.4775 0.5495 0.8412
N21_4 N 0.25137(19) 0.61011(16) 0.84269(4)
N22_4 N 0.15613(22) 0.52993(18) 0.86285(5)
C31_4 C 0.23056(24) 0.57046(19) 0.86098(5)
H31_4 H 0.2654 0.5708 0.8718
C32_4 C 0.18367(29) 0.59674(23) 0.83323(6)
H32_4 H 0.1798 0.6215 0.8201
C33_4 C 0.12502(28) 0.54485(23) 0.84477(5)
H33_4 H 0.0721 0.5225 0.8412
N23_4 N 0.35875(19) 0.74863(11) 0.84269(4)
N24_4 N 0.37381(22) 0.84387(12) 0.86285(5)
C34_4 C 0.33991(23) 0.76944(13) 0.86098(5)
H34_4 H 0.3055 0.7346 0.8718
C35_4 C 0.41308(28) 0.81633(16) 0.83323(6)
H35_4 H 0.4418 0.8202 0.8201
C36_4 C 0.41984(28) 0.87498(16) 0.84477(5)
H36_4 H 0.4505 0.9279 0.8412
Cu4_4 Cu 0.096877(31) 0.450972(25) 0.886893(6)
B5_4 B 0.3035(5) 0.3442(4) 0.90423(7)
B6_4 B 0.02293(26) 0.37663(21) 0.97728(6)
N25_4 N 0.02966(19) 0.36574(15) 0.95148(4)
N26_4 N 0.39246(19) 0.41922(16) 0.90105(4)
N27_4 N 0.20687(22) 0.40420(18) 0.99748(4)
N28_4 N 0.08665(22) 0.37837(18) 0.98905(4)
N29_4 N 0.05623(21) 0.39070(17) 0.91552(4)
N30_4 N 0.28932(20) 0.37359(16) 0.96574(4)
N31_4 N 0.01859(21) 0.45094(17) 0.97951(4)
N32_4 N 0.25406(21) 0.37355(17) 0.89146(4)
N33_4 N 0.28775(21) 0.34426(17) 0.92897(4)
N34_4 N 0.49113(22) 0.53422(18) 0.89464(4)
N35_4 N 0.05102(19) 0.57236(16) 0.98576(4)
N36_4 N 0.16874(19) 0.41056(16) 0.88340(4)
C37_4 C 0.45679(27) 0.41350(22) 0.90464(6)
H37_4 H 0.4581 0.3682 0.9084
C38_4 C 0.07432(24) 0.51792(20) 0.98658(5)
H38_4 H 0.1233 0.5276 0.9915
C39_4 C 0.31731(28) 0.39475(23) 0.94472(6)
H39_4 H 0.3576 0.4453 0.9416
C40_4 C 0.16140(25) 0.40539(21) 0.98176(6)
H40_4 H 0.1782 0.4230 0.9669
C41_4 C 0.41449(27) 0.49130(22) 0.89566(5)
H41_4 H 0.3803 0.5100 0.8928
C42_4 C 0.05746(29) 0.42005(23) 0.93489(5)
H42_4 H 0.0756 0.4731 0.9373
C43_4 C 0.51895(30) 0.48576(25) 0.90178(5)
H43_4 H 0.5712 0.5004 0.9041
C44_4 C 0.20142(24) 0.40537(20) 0.86421(5)
H44_4 H 0.1892 0.4160 0.8497
C47_3 C 0.23045(26) 0.28166(21) 0.93948(6)
H47_3 H 0.1952 0.2338 0.9328
C48_3 C 0.23381(26) 0.30121(21) 0.96144(5)
H48_3 H 0.2004 0.2672 0.9726
C51_4 C 0.20298(24) 0.39381(20) 0.89890(5)
H51_4 H 0.1930 0.3955 0.9144
C52_3 C 0.03338(28) 0.31253(23) 0.91820(5)
H52_3 H 0.0304 0.2769 0.9072
C53_4 C 0.25185(24) 0.38400(20) 0.86790(5)
H53_4 H 0.2818 0.3767 0.8569
C54_3 C 0.01690(26) 0.30121(21) 0.94033(6)
Cu6_4 Cu 0.354096(31) 0.903123(18) 0.886893(6)
B7_4 B 0.0408(4) 0.6965(2) 0.90423(7)
B8_4 B 0.35371(25) 0.97707(14) 0.97728(6)
N37_4 N 0.33609(18) 0.97034(10) 0.95148(4)
N38_4 N 0.02677(19) 0.60754(11) 0.90105(4)
N39_4 N 0.19734(22) 0.79313(12) 0.99748(4)
N40_4 N 0.29173(22) 0.91335(12) 0.98905(4)
N41_4 N 0.33448(21) 0.94377(12) 0.91552(4)
N42_4 N 0.08428(19) 0.71068(11) 0.96574(4)
N43_4 N 0.43236(21) 0.98141(12) 0.97951(4)
N44_4 N 0.11950(21) 0.74594(12) 0.89146(4)
N45_4 N 0.05652(21) 0.71225(12) 0.92897(4)
N46_4 N 0.04310(22) 0.50887(12) 0.89464(4)
N47_4 N 0.52135(20) 0.94898(12) 0.98576(4)
N48_4 N 0.24183(19) 0.83126(11) 0.88340(4)
C56_4 C 0.44361(24) 0.92568(14) 0.98658(5)
H56_4 H 0.4044 0.8767 0.9915
C57_4 C 0.07745(28) 0.68269(16) 0.94472(6)
H57_4 H 0.0878 0.6424 0.9416
C58_4 C 0.24400(26) 0.83860(15) 0.98176(6)
H58_4 H 0.2449 0.8218 0.9669
C59_4 C 0.07682(27) 0.58551(16) 0.89566(5)
H59_4 H 0.1298 0.6197 0.8928
C60_4 C 0.36260(27) 0.94254(15) 0.93489(5)
H60_4 H 0.3976 0.9244 0.9373
C62_4 C 0.20396(24) 0.79858(14) 0.86421(5)
H62_4 H 0.2269 0.8108 0.8497
C65_4 C 0.05122(26) 0.76955(15) 0.93948(6)
H65_4 H 0.0387 0.8048 0.9328
C66_4 C 0.06741(25) 0.76619(14) 0.96144(5)
H66_4 H 0.0669 0.7996 0.9726
C69_4 C 0.19084(24) 0.79702(14) 0.89890(5)
H69_4 H 0.2026 0.8070 0.9144
C70_4 C 0.27916(28) 0.96662(16) 0.91820(5)
H70_4 H 0.2466 0.9696 0.9072
C71_4 C 0.13216(24) 0.74815(14) 0.86790(5)
H71_4 H 0.0950 0.7182 0.8569
C72_4 C 0.28432(25) 0.98310(14) 0.94033(6)
Cu8_4 Cu 0.784141(32) 0.767953(26) 0.826568(5)
I2_4 I 0.973250(22) 0.334246(18) 0.856274(7)
C49_4 C 0.97845(26) 0.53496(21) 0.97679(5)
H49_4 H 0.9477 0.5576 0.9739
C50_4 C 0.95741(24) 0.46029(20) 0.97263(5)
H50_4 H 0.9104 0.4221 0.9663
H54_3 H 0.9982 0.2528 0.9474
C55_4 C 0.95672(27) 0.54321(16) 0.90464(6)
H55_4 H 0.9102 0.5419 0.9084
C61_4 C 0.96682(31) 0.48105(18) 0.90178(5)
H61_4 H 0.9293 0.4288 0.9041
Cu7_4 Cu 0.983811(32) 0.215859(19) 0.826568(5)
B1_5 B 0.0000 -0.0000 0.88336(10)
B4_5 B 0.0000 -0.0000 0.66811(10)
N1_5 N 0.01059(11) 0.16483(11) 0.85174(4)
N4_5 N 0.05912(11) 0.30657(11) 0.73439(4)
N6_5 N 0.01335(11) 0.07706(11) 0.87343(4)
N13_5 N 0.15779(12) 0.29024(13) 0.72798(4)
C1_5 C 0.12345(16) 0.37662(15) 0.73798(6)
H1_5 H 0.1247 0.4232 0.7418
H3_5 H 0.0242 0.2456 0.7750
C5_5 C 0.08115(16) 0.25652(15) 0.72900(5)
H5_5 H 0.0469 0.2036 0.7262
C8_5 C 0.18561(18) 0.36652(17) 0.73512(5)
H8_5 H 0.2378 0.4041 0.7375
C11_5 C 0.05912(16) 0.19908(14) 0.86945(6)
H11_5 H 0.0795(9) 0.2364(9) 0.8715(3)
C17_5 C 0.06304(15) 0.14868(14) 0.88213(5)
H17_5 H 0.0944 0.1592 0.8951
C28_5 C 0.10689(20) 0.01427(14) 0.85477(5)
H28_5 H 0.1028 0.0489 0.8448
N23_5 N 0.05655(16) 0.08197(11) 0.67603(4)
N24_5 N 0.13673(18) 0.17721(12) 0.69619(5)
C34_5 C 0.09620(19) 0.10278(13) 0.69432(5)
H34_5 H 0.0958 0.0680 0.7052
C35_5 C 0.06992(23) 0.14967(16) 0.66657(6)
H35_5 H 0.0451 0.1536 0.6535
C36_5 C 0.12181(23) 0.20832(16) 0.67811(5)
H36_5 H 0.1441 0.2613 0.6746
Cu6_5 Cu 0.215694(25) 0.236457(18) 0.720227(6)
B7_5 B 0.3224(4) 0.0299(2) 0.73757(7)
B8_5 B 0.29003(21) 0.31041(14) 0.81062(6)
N37_5 N 0.30092(15) 0.30368(10) 0.78482(4)
N39_5 N 0.26246(18) 0.12647(12) 0.83082(4)
N40_5 N 0.28829(18) 0.24669(12) 0.82239(4)
N41_5 N 0.27596(17) 0.27711(12) 0.74886(4)
N42_5 N 0.29307(16) 0.04402(11) 0.79908(4)
N43_5 N 0.21572(17) 0.31475(12) 0.81285(4)
N44_5 N 0.29311(17) 0.07928(12) 0.72480(4)
N45_5 N 0.32240(17) 0.04559(12) 0.76231(4)
N47_5 N 0.09430(16) 0.28232(12) 0.81910(4)
N48_5 N 0.25610(16) 0.16460(11) 0.71674(4)
C56_5 C 0.14874(20) 0.25902(14) 0.81992(5)
H56_5 H 0.1390 0.2101 0.8249
C57_5 C 0.27191(23) 0.01603(16) 0.77806(6)
C58_5 C 0.26127(21) 0.17194(15) 0.81510(6)
H58_5 H 0.2436 0.1552 0.8003
C60_5 C 0.24661(23) 0.27588(15) 0.76823(5)
H60_5 H 0.1935 0.2578 0.7707
C62_5 C 0.26129(20) 0.13192(14) 0.69755(5)
H62_5 H 0.2506 0.1442 0.6831
C63_5 C 0.28686(24) 0.17035(17) 0.84984(6)
H63_5 H 0.2926 0.1540 0.8643
C64_5 C 0.30104(27) 0.24060(19) 0.84424(6)
H64_5 H 0.3183 0.2819 0.8546
C65_5 C 0.38500(21) 0.10289(15) 0.77282(6)
H65_5 H 0.4328 0.1382 0.7662
C66_5 C 0.36545(21) 0.09953(14) 0.79478(5)
H66_5 H 0.3994 0.1330 0.8060
C67_5 C 0.13170(21) 0.35489(14) 0.81013(5)
H67_5 H 0.1090 0.3857 0.8073
C68_5 C 0.20637(20) 0.37593(14) 0.80597(5)
H68_5 H 0.2445 0.4230 0.7997
C69_5 C 0.27285(20) 0.13036(14) 0.73224(5)
H69_5 H 0.2711 0.1404 0.7478
C70_5 C 0.35413(23) 0.29996(16) 0.75154(5)
H70_5 H 0.3897 0.3030 0.7406
C71_5 C 0.28266(20) 0.08149(14) 0.70124(5)
H71_5 H 0.2899 0.0516 0.6903
C72_5 C 0.36545(21) 0.31644(14) 0.77367(6)
H72_5 H 0.4138 0.3352 0.7808
B1_6 B 0.0000 1.0000 0.88336(10)
B4_6 B 0.0000 1.0000 0.66811(10)
N19_5 N 0.15423(16) 0.98941(11) 0.85174(4)
N20_5 N 0.06370(16) 0.98665(11) 0.87343(4)
C29_5 C 0.13995(21) 0.94088(16) 0.86945(6)
H29_5 H 0.1568(13) 0.9205(9) 0.8715(3)
C30_5 C 0.08563(21) 0.93696(15) 0.88213(5)
H30_5 H 0.0647 0.9056 0.8951
N21_5 N 0.02541(11) 0.94345(16) 0.67603(4)
N22_5 N 0.04047(13) 0.86327(18) 0.69619(5)
C31_5 C 0.00657(14) 0.90380(19) 0.69432(5)
C32_5 C 0.07974(17) 0.93008(23) 0.66657(6)
H32_5 H 0.1084 0.9549 0.6535
C33_5 C 0.08650(16) 0.87819(23) 0.67811(5)
H33_5 H 0.1171 0.8559 0.6746
Cu4_5 Cu 0.020762(18) 0.784306(25) 0.720227(6)
B6_5 B 0.02037(15) 0.70997(21) 0.81062(6)
N25_5 N 0.00275(11) 0.69908(15) 0.78482(4)
N29_5 N 0.00114(12) 0.72404(17) 0.74886(4)
N31_5 N 0.09902(12) 0.78428(17) 0.81285(4)
N35_5 N 0.18801(11) 0.90570(16) 0.81910(4)
C38_5 C 0.11027(14) 0.85126(20) 0.81992(5)
H38_5 H 0.0710 0.8610 0.8249
C42_5 C 0.02926(17) 0.75339(23) 0.76823(5)
H42_5 H 0.0642 0.8065 0.7707
C49_5 C 0.22318(15) 0.86830(21) 0.81013(5)
H49_5 H 0.2766 0.8910 0.8073
C50_5 C 0.16955(14) 0.79363(20) 0.80597(5)
H50_5 H 0.1784 0.7555 0.7997
N38_5 N 0.24744(16) 0.94088(11) 0.73439(4)
N46_5 N 0.13244(18) 0.84221(12) 0.72798(4)
C55_5 C 0.25316(22) 0.87655(16) 0.73798(6)
H55_5 H 0.2984 0.8753 0.7418
H57_5 H 0.2213 0.9758 0.7750
C59_5 C 0.17536(22) 0.91885(16) 0.72900(5)
H59_5 H 0.1566 0.9531 0.7262
C61_5 C 0.18090(25) 0.81439(18) 0.73512(5)
H61_5 H 0.1662 0.7622 0.7375
B1_7 B 1.0000 -0.0000 0.88336(10)
B2_5 B 0.9701(2) 0.2926(3) 0.73757(7)
B4_7 B 1.0000 -0.0000 0.66811(10)
N5_5 N 0.87353(12) 0.13600(13) 0.83082(4)
N7_5 N 0.75331(12) 0.04161(13) 0.82239(4)
N9_5 N 0.95598(11) 0.24906(12) 0.79908(4)
N11_5 N 0.92072(12) 0.21384(12) 0.72480(4)
N12_5 N 0.95441(12) 0.27682(12) 0.76231(4)
N15_5 N 0.83540(11) 0.09151(11) 0.71674(4)
C3_5 C 0.98397(16) 0.25589(16) 0.77806(6)
C4_5 C 0.82806(15) 0.08934(14) 0.81510(6)
H4_5 H 0.8448 0.0885 0.8003
C7_5 C 0.98573(14) 0.09263(14) 0.85477(5)
H7_5 H 0.9511 0.0540 0.8448
H9_5 H 0.9320 0.0279 0.7052
C10_5 C 0.86808(14) 0.12938(14) 0.69755(5)
H10_5 H 0.8558 0.1065 0.6831
C12_5 C 0.82965(17) 0.11652(17) 0.84984(6)
H12_5 H 0.8460 0.1387 0.8643
C13_5 C 0.75940(19) 0.06045(19) 0.84424(6)
H13_5 H 0.7181 0.0365 0.8546
C14_5 C 0.89711(15) 0.28212(15) 0.77282(6)
H14_5 H 0.8618 0.2947 0.7662
C15_5 C 0.90047(14) 0.26593(16) 0.79478(5)
H15_5 H 0.8670 0.2665 0.8060
C19_5 C 0.86964(14) 0.14250(14) 0.73224(5)
H19_5 H 0.8596 0.1308 0.7478
C21_5 C 0.70004(16) 0.05418(16) 0.75154(5)
H21_5 H 0.6970 0.0868 0.7406
C22_5 C 0.91851(14) 0.20118(14) 0.70124(5)
H22_5 H 0.9484 0.2384 0.6903
C23_5 C 0.68356(14) 0.04902(16) 0.77367(6)
H23_5 H 0.6648 0.0787 0.7808
Cu2_5 Cu 0.763543(18) 0.979238(18) 0.720227(6)
B1_8 B 1.0000 1.0000 0.88336(10)
B3_5 B 0.68959(14) 0.97963(15) 0.81062(6)
B4_8 B 1.0000 1.0000 0.66811(10)
N2_5 N 0.91803(11) 0.97459(11) 0.67603(4)
N3_5 N 0.69632(10) 0.99725(11) 0.78482(4)
N8_5 N 0.72289(12) 0.99886(12) 0.74886(4)
N10_5 N 0.68525(12) 0.90098(12) 0.81285(4)
N14_5 N 0.71768(12) 0.81199(11) 0.81910(4)
N16_5 N 0.82279(12) 0.95953(13) 0.69619(5)
C2_5 C 0.74098(14) 0.88973(14) 0.81992(5)
H2_5 H 0.7899 0.9290 0.8249
C6_5 C 0.72412(15) 0.97074(17) 0.76823(5)
H6_5 H 0.7422 0.9358 0.7707
C9_5 C 0.89722(13) 0.99343(14) 0.69432(5)
C16_5 C 0.64511(14) 0.77682(15) 0.81013(5)
H16_5 H 0.6143 0.7234 0.8073
C18_5 C 0.62407(14) 0.83045(14) 0.80597(5)
H18_5 H 0.5770 0.8216 0.7997
C20_5 C 0.85033(16) 0.92026(17) 0.66657(6)
H20_5 H 0.8464 0.8916 0.6535
C24_5 C 0.79168(16) 0.91350(16) 0.67811(5)
H24_5 H 0.7387 0.8829 0.6746
N17_5 N 0.83517(11) 0.84577(16) 0.85174(4)
N18_5 N 0.92294(11) 0.93630(16) 0.87343(4)
C25_5 C 0.90737(14) 0.89311(20) 0.85477(5)
H25_5 H 0.9460 0.8972 0.8448
C26_5 C 0.80092(14) 0.86005(21) 0.86945(6)
H26_5 H 0.7636(9) 0.8432(13) 0.8715(3)
C27_5 C 0.85132(14) 0.91437(21) 0.88213(5)
H27_5 H 0.8408 0.9353 0.8951
H31_5 H 0.9721 0.9042 0.7052
B5_5 B 0.7074(3) 0.6776(4) 0.73757(7)
N26_5 N 0.69343(11) 0.75256(16) 0.73439(4)
N27_5 N 0.86400(13) 0.73754(18) 0.83082(4)
N28_5 N 0.95839(13) 0.71171(18) 0.82239(4)
N30_5 N 0.75094(12) 0.70693(16) 0.79908(4)
N32_5 N 0.78616(12) 0.70689(17) 0.72480(4)
N33_5 N 0.72318(12) 0.67760(17) 0.76231(4)
N34_5 N 0.70976(13) 0.86756(18) 0.72798(4)
N36_5 N 0.90849(11) 0.74390(16) 0.71674(4)
C37_5 C 0.62338(15) 0.74684(22) 0.73798(6)
H37_5 H 0.5768 0.7016 0.7418
C39_5 C 0.74411(16) 0.72809(23) 0.77806(6)
H39_5 H 0.7544 0.7787 0.7750
C40_5 C 0.91066(14) 0.73873(21) 0.81510(6)
H40_5 H 0.9115 0.7564 0.8003
C41_5 C 0.74348(15) 0.82464(22) 0.72900(5)
H41_5 H 0.7964 0.8434 0.7262
C43_5 C 0.63348(17) 0.81910(25) 0.73512(5)
H43_5 H 0.5959 0.8338 0.7375
C44_5 C 0.87062(14) 0.73871(20) 0.69755(5)
H44_5 H 0.8935 0.7494 0.6831
C45_5 C 0.88348(17) 0.71314(24) 0.84984(6)
H45_5 H 0.8613 0.7074 0.8643
C46_5 C 0.93955(19) 0.69896(27) 0.84424(6)
H46_5 H 0.9635 0.6817 0.8546
C47_4 C 0.71788(15) 0.61500(21) 0.77282(6)
H47_4 H 0.7053 0.5672 0.7662
C48_4 C 0.73407(16) 0.63455(21) 0.79478(5)
H48_4 H 0.7335 0.6006 0.8060
C51_5 C 0.85750(14) 0.72715(20) 0.73224(5)
H51_5 H 0.8692 0.7289 0.7478
C52_4 C 0.94582(16) 0.64587(23) 0.75154(5)
H52_4 H 0.9132 0.6103 0.7406
C53_5 C 0.79882(14) 0.71734(20) 0.70124(5)
H53_5 H 0.7616 0.7101 0.6903
C54_4 C 0.95098(16) 0.63455(21) 0.77367(6)
H54_4 H 0.9213 0.5862 0.7808
B2_6 B 0.3224(4) 0.2926(3) 0.23757(7)
N1_6 N 0.15423(16) 0.16483(11) 0.35174(4)
N4_6 N 0.24744(16) 0.30657(11) 0.23439(4)
N5_6 N 0.26246(18) 0.13600(13) 0.33082(4)
N6_6 N 0.06370(16) 0.07706(11) 0.37343(4)
N7_6 N 0.28829(18) 0.04161(13) 0.32239(4)
N9_6 N 0.29307(16) 0.24906(12) 0.29908(4)
N11_6 N 0.29311(17) 0.21384(12) 0.22480(4)
N12_6 N 0.32240(17) 0.27682(12) 0.26231(4)
N13_6 N 0.13244(18) 0.29024(13) 0.22798(4)
N15_6 N 0.25610(16) 0.09151(11) 0.21674(4)
C1_6 C 0.25316(22) 0.37662(15) 0.23798(6)
H1_6 H 0.2984 0.4232 0.2418
C3_6 C 0.27191(23) 0.25589(16) 0.27806(6)
H3_6 H 0.2213 0.2456 0.2750
C4_6 C 0.26127(21) 0.08934(14) 0.31510(6)
H4_6 H 0.2436 0.0885 0.3003
C5_6 C 0.17536(22) 0.25652(15) 0.22900(5)
H5_6 H 0.1566 0.2036 0.2262
C7_6 C 0.10689(20) 0.09263(14) 0.35477(5)
H7_6 H 0.1028 0.0540 0.3448
C8_6 C 0.18090(25) 0.36652(17) 0.23512(5)
H8_6 H 0.1662 0.4041 0.2375
H9_6 H 0.0958 0.0279 0.2052
C10_6 C 0.26129(20) 0.12938(14) 0.19755(5)
H10_6 H 0.2506 0.1065 0.1831
C11_6 C 0.13995(21) 0.19908(14) 0.36945(6)
H11_6 H 0.1568(13) 0.2364(9) 0.3715(3)
C12_6 C 0.28686(24) 0.11652(17) 0.34984(6)
H12_6 H 0.2926 0.1387 0.3643
C13_6 C 0.30104(27) 0.06045(19) 0.34424(6)
H13_6 H 0.3183 0.0365 0.3546
C14_6 C 0.38500(21) 0.28212(15) 0.27282(6)
H14_6 H 0.4328 0.2947 0.2662
C15_6 C 0.36545(21) 0.26593(16) 0.29478(5)
H15_6 H 0.3994 0.2665 0.3060
C17_6 C 0.08563(21) 0.14868(14) 0.38213(5)
H17_6 H 0.0647 0.1592 0.3951
C19_6 C 0.27285(20) 0.14250(14) 0.23224(5)
H19_6 H 0.2711 0.1308 0.2478
C21_6 C 0.35413(23) 0.05418(16) 0.25154(5)
H21_6 H 0.3897 0.0868 0.2406
C22_6 C 0.28266(20) 0.20118(14) 0.20124(5)
H22_6 H 0.2899 0.2384 0.1903
C23_6 C 0.36545(21) 0.04902(16) 0.27367(6)
H23_6 H 0.4138 0.0787 0.2808
N23_6 N 0.02541(19) 0.08197(11) 0.17603(4)
N24_6 N 0.04047(22) 0.17721(12) 0.19619(5)
C34_6 C 0.00657(23) 0.10278(13) 0.19432(5)
C35_6 C 0.07974(28) 0.14967(16) 0.16657(6)
H35_6 H 0.1084 0.1536 0.1535
C36_6 C 0.08650(28) 0.20832(16) 0.17811(5)
H36_6 H 0.1171 0.2613 0.1746
Cu6_6 Cu 0.020762(31) 0.236457(18) 0.220227(6)
B8_6 B 0.02037(25) 0.31041(14) 0.31062(6)
N37_6 N 0.00275(18) 0.30368(10) 0.28482(4)
N41_6 N 0.00114(21) 0.27711(12) 0.24886(4)
N43_6 N 0.09902(21) 0.31475(12) 0.31285(4)
N47_6 N 0.18801(20) 0.28232(12) 0.31910(4)
C56_6 C 0.11027(24) 0.25902(14) 0.31992(5)
H56_6 H 0.0710 0.2101 0.3249
C60_6 C 0.02926(27) 0.27588(15) 0.26823(5)
H60_6 H 0.0642 0.2578 0.2707
C67_6 C 0.22318(25) 0.35489(14) 0.31013(5)
H67_6 H 0.2766 0.3857 0.3073
C68_6 C 0.16955(24) 0.37593(14) 0.30597(5)
H68_6 H 0.1784 0.4230 0.2997
B1_9 B 0.9999 -0.0000 0.38336(10)
B4_9 B 0.9999 -0.0000 0.16811(10)
C28_6 C 0.90737(24) 0.01427(14) 0.35477(5)
H28_6 H 0.9460 0.0489 0.3448
H34_6 H 0.9721 0.0680 0.2052
B7_6 B 0.7074(4) 0.0299(2) 0.23757(7)
N39_6 N 0.86400(22) 0.12647(12) 0.33082(4)
N40_6 N 0.95839(22) 0.24669(12) 0.32239(4)
N42_6 N 0.75094(19) 0.04402(11) 0.29908(4)
N44_6 N 0.78616(21) 0.07928(12) 0.22480(4)
N45_6 N 0.72318(21) 0.04559(12) 0.26231(4)
N48_6 N 0.90849(19) 0.16460(11) 0.21674(4)
C57_6 C 0.74411(28) 0.01603(16) 0.27806(6)
C58_6 C 0.91066(26) 0.17194(15) 0.31510(6)
H58_6 H 0.9115 0.1552 0.3003
C62_6 C 0.87062(24) 0.13192(14) 0.19755(5)
H62_6 H 0.8935 0.1442 0.1831
C63_6 C 0.88348(29) 0.17035(17) 0.34984(6)
H63_6 H 0.8613 0.1540 0.3643
C64_6 C 0.93955(33) 0.24060(19) 0.34424(6)
H64_6 H 0.9635 0.2819 0.3546
C65_6 C 0.71788(26) 0.10289(15) 0.27282(6)
H65_6 H 0.7053 0.1382 0.2662
C66_6 C 0.73407(25) 0.09953(14) 0.29478(5)
H66_6 H 0.7335 0.1330 0.3060
C69_6 C 0.85750(24) 0.13036(14) 0.23224(5)
H69_6 H 0.8692 0.1404 0.2478
C70_6 C 0.94582(28) 0.29996(16) 0.25154(5)
H70_6 H 0.9132 0.3030 0.2406
C71_6 C 0.79882(24) 0.08149(14) 0.20124(5)
H71_6 H 0.7616 0.0516 0.1903
C72_6 C 0.95098(25) 0.31644(14) 0.27367(6)
H72_6 H 0.9213 0.3352 0.2808
B1_10 B 0.9999 1.0000 0.38336(10)
B4_10 B 0.9999 1.0000 0.16811(10)
C25_6 C 0.98573(24) 0.89311(20) 0.35477(5)
H25_6 H 0.9511 0.8972 0.3448
N19_6 N 0.83517(19) 0.98941(11) 0.35174(4)
N20_6 N 0.92294(19) 0.98665(11) 0.37343(4)
C29_6 C 0.80092(26) 0.94088(16) 0.36945(6)
H29_6 H 0.7636(16) 0.9205(9) 0.3715(3)
C30_6 C 0.85132(26) 0.93696(15) 0.38213(5)
H30_6 H 0.8408 0.9056 0.3951
N21_6 N 0.91803(19) 0.94345(16) 0.17603(4)
N22_6 N 0.82279(22) 0.86327(18) 0.19619(5)
C31_6 C 0.89722(24) 0.90380(19) 0.19432(5)
H31_6 H 0.9320 0.9042 0.2052
C32_6 C 0.85033(29) 0.93008(23) 0.16657(6)
H32_6 H 0.8464 0.9549 0.1535
C33_6 C 0.79168(28) 0.87819(23) 0.17811(5)
H33_6 H 0.7387 0.8559 0.1746
Cu4_6 Cu 0.763543(31) 0.784306(25) 0.220227(6)
B5_6 B 0.9701(5) 0.6776(4) 0.23757(7)
B6_6 B 0.68959(26) 0.70997(21) 0.31062(6)
N25_6 N 0.69632(19) 0.69908(15) 0.28482(4)
N27_6 N 0.87353(22) 0.73754(18) 0.33082(4)
N28_6 N 0.75331(22) 0.71171(18) 0.32239(4)
N29_6 N 0.72289(21) 0.72404(17) 0.24886(4)
N30_6 N 0.95598(20) 0.70693(16) 0.29908(4)
N31_6 N 0.68525(21) 0.78428(17) 0.31285(4)
N32_6 N 0.92072(21) 0.70689(17) 0.22480(4)
N33_6 N 0.95441(21) 0.67760(17) 0.26231(4)
N35_6 N 0.71768(19) 0.90570(16) 0.31910(4)
N36_6 N 0.83540(19) 0.74390(16) 0.21674(4)
C38_6 C 0.74098(24) 0.85126(20) 0.31992(5)
H38_6 H 0.7899 0.8610 0.3249
C39_6 C 0.98397(28) 0.72809(23) 0.27806(6)
C40_6 C 0.82806(25) 0.73873(21) 0.31510(6)
H40_6 H 0.8448 0.7564 0.3003
C42_6 C 0.72412(29) 0.75339(23) 0.26823(5)
H42_6 H 0.7422 0.8065 0.2707
C44_6 C 0.86808(24) 0.73871(20) 0.19755(5)
H44_6 H 0.8558 0.7494 0.1831
C45_6 C 0.82965(29) 0.71314(24) 0.34984(6)
H45_6 H 0.8460 0.7074 0.3643
C46_6 C 0.75940(33) 0.69896(27) 0.34424(6)
H46_6 H 0.7181 0.6817 0.3546
C47_5 C 0.89711(26) 0.61500(21) 0.27282(6)
H47_5 H 0.8618 0.5672 0.2662
C48_5 C 0.90047(26) 0.63455(21) 0.29478(5)
H48_5 H 0.8670 0.6006 0.3060
C49_6 C 0.64511(26) 0.86830(21) 0.31013(5)
H49_6 H 0.6143 0.8910 0.3073
C50_6 C 0.62407(24) 0.79363(20) 0.30597(5)
H50_6 H 0.5770 0.7555 0.2997
C51_6 C 0.86964(24) 0.72715(20) 0.23224(5)
H51_6 H 0.8596 0.7289 0.2478
C52_5 C 0.70004(28) 0.64587(23) 0.25154(5)
H52_5 H 0.6970 0.6103 0.2406
C53_6 C 0.91851(24) 0.71734(20) 0.20124(5)
H53_6 H 0.9484 0.7101 0.1903
C54_5 C 0.68356(26) 0.63455(21) 0.27367(6)
H54_5 H 0.6648 0.5862 0.2808
N38_6 N 0.69343(19) 0.94088(11) 0.23439(4)
N46_6 N 0.70976(22) 0.84221(12) 0.22798(4)
C55_6 C 0.62338(27) 0.87655(16) 0.23798(6)
H55_6 H 0.5768 0.8753 0.2418
H57_6 H 0.7544 0.9758 0.2750
C59_6 C 0.74348(27) 0.91885(16) 0.22900(5)
H59_6 H 0.7964 0.9531 0.2262
C61_6 C 0.63348(31) 0.81439(18) 0.23512(5)
H61_6 H 0.5959 0.7622 0.2375
B1_11 B 0.0000 0.0001 0.38336(10)
B4_11 B 0.0000 0.0001 0.16811(10)
C47_6 C 0.38455(15) 0.94833(21) 0.10615(6)
H47_6 H 0.3720 0.9005 0.0995
C48_6 C 0.40074(16) 0.96788(21) 0.12811(5)
H48_6 H 0.4002 0.9339 0.1393
C52_6 C 0.61249(16) 0.97920(23) 0.08487(5)
H52_6 H 0.5799 0.9436 0.0739
C54_6 C 0.61765(16) 0.96788(21) 0.10700(6)
H54_6 H 0.5880 0.9195 0.1141
I4_2 I 0.332420(18) 0.972337(13) 0.189608(7)
Cu2_6 Cu 0.215694(25) 0.979238(18) 0.220227(6)
B3_6 B 0.29003(21) 0.97963(15) 0.31062(6)
N2_6 N 0.05655(16) 0.97459(11) 0.17603(4)
N3_6 N 0.30092(15) 0.99725(11) 0.28482(4)
N8_6 N 0.27596(17) 0.99886(12) 0.24886(4)
N10_6 N 0.21572(17) 0.90098(12) 0.31285(4)
N14_6 N 0.09430(16) 0.81199(11) 0.31910(4)
N16_6 N 0.13673(18) 0.95953(13) 0.19619(5)
C2_6 C 0.14874(20) 0.88973(14) 0.31992(5)
H2_6 H 0.1390 0.9290 0.3249
C6_6 C 0.24661(23) 0.97074(17) 0.26823(5)
H6_6 H 0.1935 0.9358 0.2707
C9_6 C 0.09620(19) 0.99343(14) 0.19432(5)
C16_6 C 0.13170(21) 0.77682(15) 0.31013(5)
H16_6 H 0.1090 0.7234 0.3073
C18_6 C 0.20637(20) 0.83045(14) 0.30597(5)
H18_6 H 0.2445 0.8216 0.2997
C20_6 C 0.06992(23) 0.92026(17) 0.16657(6)
H20_6 H 0.0451 0.8916 0.1535
C24_6 C 0.12181(23) 0.91350(16) 0.17811(5)
H24_6 H 0.1441 0.8829 0.1746
N17_6 N 0.01059(19) 0.84577(16) 0.35174(4)
N18_6 N 0.01335(19) 0.93630(16) 0.37343(4)
C26_6 C 0.05912(25) 0.86005(21) 0.36945(6)
H26_6 H 0.0795(16) 0.8432(13) 0.3715(3)
C27_6 C 0.06304(25) 0.91437(21) 0.38213(5)
H27_6 H 0.0944 0.9353 0.3951
N26_6 N 0.05912(19) 0.75256(16) 0.23439(4)
N34_6 N 0.15779(22) 0.86756(18) 0.22798(4)
C37_6 C 0.12345(27) 0.74684(22) 0.23798(6)
H37_6 H 0.1247 0.7016 0.2418
H39_6 H 0.0242 0.7787 0.2750
C41_6 C 0.08115(27) 0.82464(22) 0.22900(5)
H41_6 H 0.0469 0.8434 0.2262
C43_6 C 0.18561(30) 0.81910(25) 0.23512(5)
H43_6 H 0.2378 0.8338 0.2375
B1_12 B 0.0000 1.0000 0.38336(10)
B4_12 B 0.0000 1.0000 0.16811(10)
loop_
_geom_bond_atom_site_label_1
_geom_bond_atom_site_label_2
_geom_bond_site_symmetry_1
_geom_bond_site_symmetry_2
H65 C65 1_555 1_555
H66 C66 1_555 1_555
H70 C70 1_555 1_555
H72 C72 1_555 1_555
C65 C66 1_555 1_555
C70 C72 1_555 1_555
Cu1 N1 1_555 1_555
Cu2 I1 1_555 1_555
B1 N6 1_555 1_555
B2 N4 1_555 1_555
B3 N3 1_555 1_555
B4 N2 1_555 1_555
N1 C7 1_555 1_555
N2 C9 1_555 1_555
N3 C6 1_555 1_555
N4 C1 1_555 1_555
N5 Cu1 1_555 1_555
N6 C7 1_555 1_555
N7 B3 1_555 1_555
N8 Cu2 1_555 1_555
N9 Cu1 1_555 1_555
N10 B3 1_555 1_555
N11 B2 1_555 1_555
N12 B2 1_555 1_555
N13 C5 1_555 1_555
N14 C2 1_555 1_555
N15 Cu2 1_555 1_555
N16 Cu2 1_555 1_555
C1 H1 1_555 1_555
C2 N10 1_555 1_555
H2 C2 1_555 1_555
C3 N9 1_555 1_555
H3 C3 1_555 1_555
C4 N5 1_555 1_555
H4 C4 1_555 1_555
C5 N4 1_555 1_555
H5 C5 1_555 1_555
C6 N8 1_555 1_555
H6 C6 1_555 1_555
C7 H7 1_555 1_555
C8 N13 1_555 1_555
H8 C8 1_555 1_555
C9 N16 1_555 1_555
H9 C9 1_555 1_555
C10 N15 1_555 1_555
H10 C10 1_555 1_555
C11 N1 1_555 1_555
H11 C11 1_555 1_555
C12 N5 1_555 1_555
H12 C12 1_555 1_555
C13 N7 1_555 1_555
H13 C13 1_555 1_555
C14 N12 1_555 1_555
H14 C14 1_555 1_555
C15 N9 1_555 1_555
H15 C15 1_555 1_555
C16 N14 1_555 1_555
H16 C16 1_555 1_555
C17 N6 1_555 1_555
H17 C17 1_555 1_555
C18 N10 1_555 1_555
H18 C18 1_555 1_555
C19 N11 1_555 1_555
H19 C19 1_555 1_555
C21 N8 1_555 1_555
H21 C21 1_555 1_555
C22 N11 1_555 1_555
H22 C22 1_555 1_555
C23 N3 1_555 1_555
H23 C23 1_555 1_555
C24 N16 1_555 1_555
H24 C24 1_555 1_555
N17 C25 1_555 1_555
N18 B1 1_555 1_555
C25 N18 1_555 1_555
H25 C25 1_555 1_555
C26 N17 1_555 1_555
H26 C26 1_555 1_555
C27 N18 1_555 1_555
H27 C27 1_555 1_555
N19 C28 1_555 1_555
N20 B1 1_555 1_555
C28 N20 1_555 1_555
H28 C28 1_555 1_555
C29 N19 1_555 1_555
H29 C29 1_555 1_555
C30 N20 1_555 1_555
H30 C30 1_555 1_555
N21 B4 1_555 1_555
N22 C31 1_555 1_555
C31 N21 1_555 1_555
H31 C31 1_555 1_555
C33 N22 1_555 1_555
H33 C33 1_555 1_555
N23 B4 1_555 1_555
N24 C34 1_555 1_555
C34 N23 1_555 1_555
H34 C34 1_555 1_555
C36 N24 1_555 1_555
H36 C36 1_555 1_555
Cu3 N14 1_555 1_555
Cu4 N22 1_555 1_555
I2 Cu4 1_555 1_555
B5 N26 1_555 1_555
B6 N25 1_555 1_555
N25 C42 1_555 1_555
N26 C37 1_555 1_555
N27 Cu3 1_555 1_555
N28 B6 1_555 1_555
N29 Cu4 1_555 1_555
N30 Cu3 1_555 1_555
N31 B6 1_555 1_555
N32 B5 1_555 1_555
N33 B5 1_555 1_555
N34 Cu2 1_555 1_555
N35 C38 1_555 1_555
N36 Cu4 1_555 1_555
C37 H37 1_555 1_555
C38 N31 1_555 1_555
H38 C38 1_555 1_555
C39 N30 1_555 1_555
H39 C39 1_555 1_555
C40 N27 1_555 1_555
H40 C40 1_555 1_555
C41 N26 1_555 1_555
H41 C41 1_555 1_555
C42 N29 1_555 1_555
H42 C42 1_555 1_555
C43 N34 1_555 1_555
H43 C43 1_555 1_555
C44 N36 1_555 1_555
H44 C44 1_555 1_555
C45 N27 1_555 1_555
H45 C45 1_555 1_555
C46 N28 1_555 1_555
H46 C46 1_555 1_555
C49 N35 1_555 1_555
H49 C49 1_555 1_555
C50 N31 1_555 1_555
H50 C50 1_555 1_555
C51 N32 1_555 1_555
H51 C51 1_555 1_555
C53 N32 1_555 1_555
H53 C53 1_555 1_555
Cu5 N19 1_555 1_555
Cu6 N13 1_555 1_555
I3 Cu6 1_555 1_555
B7 N38 1_555 1_555
B8 N37 1_555 1_555
N37 C60 1_555 1_555
N38 C55 1_555 1_555
N39 Cu5 1_555 1_555
N40 B8 1_555 1_555
N41 Cu6 1_555 1_555
N42 Cu5 1_555 1_555
N43 B8 1_555 1_555
N44 B7 1_555 1_555
N45 B7 1_555 1_555
N46 Cu4 1_555 1_555
N47 Cu1 1_555 1_555
N48 Cu6 1_555 1_555
C55 H55 1_555 1_555
C56 N43 1_555 1_555
H56 C56 1_555 1_555
C57 N42 1_555 1_555
H57 C57 1_555 1_555
C58 N39 1_555 1_555
H58 C58 1_555 1_555
C59 N38 1_555 1_555
H59 C59 1_555 1_555
C60 N41 1_555 1_555
H60 C60 1_555 1_555
C61 N46 1_555 1_555
H61 C61 1_555 1_555
C62 N48 1_555 1_555
H62 C62 1_555 1_555
C63 N39 1_555 1_555
H63 C63 1_555 1_555
C64 N40 1_555 1_555
H64 C64 1_555 1_555
C67 N47 1_555 1_555
H67 C67 1_555 1_555
C68 N43 1_555 1_555
H68 C68 1_555 1_555
C69 N44 1_555 1_555
H69 C69 1_555 1_555
C71 N44 1_555 1_555
H71 C71 1_555 1_555
I5 Cu1 1_555 1_555
N7 C4 1_555 1_555
N12 C3 1_555 1_555
N15 C19 1_555 1_555
C1 C8 1_555 1_555
C10 C22 1_555 1_555
C11 C17 1_555 1_555
C12 C13 1_555 1_555
C14 C15 1_555 1_555
C16 C18 1_555 1_555
C21 C23 1_555 1_555
N17 Cu3 1_555 1_555
C26 C27 1_555 1_555
C29 C30 1_555 1_555
N24 Cu6 1_555 1_555
N28 C40 1_555 1_555
N33 C39 1_555 1_555
N34 C41 1_555 1_555
N35 Cu5 1_555 1_555
N36 C51 1_555 1_555
C37 C43 1_555 1_555
C44 C53 1_555 1_555
C45 C46 1_555 1_555
C49 C50 1_555 1_555
N40 C58 1_555 1_555
N45 C57 1_555 1_555
N46 C59 1_555 1_555
N47 C56 1_555 1_555
N48 C69 1_555 1_555
C55 C61 1_555 1_555
C62 C71 1_555 1_555
C63 C64 1_555 1_555
C67 C68 1_555 1_555
H20 C20 1_555 1_555
H32 C32 1_555 1_555
H35 C35 1_555 1_555
H14_2 C14_2 1_555 1_555
H15_2 C15_2 1_555 1_555
H21_2 C21_2 1_555 1_555
H23_2 C23_2 1_555 1_555
C14_2 C15_2 1_555 1_555
C21_2 C23_2 1_555 1_555
Cu1_2 N1_2 1_555 1_555
Cu2_2 I1_2 1_555 1_555
B1_2 N6_2 1_555 1_555
B2_2 N4_2 1_555 1_555
B3_2 N3_2 1_555 1_555
B4_2 N2_2 1_555 1_555
N1_2 C7_2 1_555 1_555
N2_2 C9_2 1_555 1_555
N3_2 C6_2 1_555 1_555
N4_2 C1_2 1_555 1_555
N5_2 Cu1_2 1_555 1_555
N6_2 C7_2 1_555 1_555
N7_2 B3_2 1_555 1_555
N8_2 Cu2_2 1_555 1_555
N9_2 Cu1_2 1_555 1_555
N10_2 B3_2 1_555 1_555
N11_2 B2_2 1_555 1_555
N12_2 B2_2 1_555 1_555
N13_2 C5_2 1_555 1_555
N14_2 C2_2 1_555 1_555
N15_2 Cu2_2 1_555 1_555
N16_2 Cu2_2 1_555 1_555
C1_2 H1_2 1_555 1_555
C2_2 N10_2 1_555 1_555
H2_2 C2_2 1_555 1_555
C3_2 N9_2 1_555 1_555
H3_2 C3_2 1_555 1_555
C4_2 N5_2 1_555 1_555
H4_2 C4_2 1_555 1_555
C5_2 N4_2 1_555 1_555
H5_2 C5_2 1_555 1_555
C6_2 N8_2 1_555 1_555
H6_2 C6_2 1_555 1_555
C7_2 H7_2 1_555 1_555
C8_2 N13_2 1_555 1_555
H8_2 C8_2 1_555 1_555
C9_2 N16_2 1_555 1_555
H9_2 C9_2 1_555 1_555
C10_2 N15_2 1_555 1_555
H10_2 C10_2 1_555 1_555
C11_2 N1_2 1_555 1_555
H11_2 C11_2 1_555 1_555
C12_2 N5_2 1_555 1_555
H12_2 C12_2 1_555 1_555
C13_2 N7_2 1_555 1_555
H13_2 C13_2 1_555 1_555
C16_2 N14_2 1_555 1_555
H16_2 C16_2 1_555 1_555
C17_2 N6_2 1_555 1_555
H17_2 C17_2 1_555 1_555
C18_2 N10_2 1_555 1_555
H18_2 C18_2 1_555 1_555
C19_2 N11_2 1_555 1_555
H19_2 C19_2 1_555 1_555
C20_2 N2_2 1_555 1_555
H20_2 C20_2 1_555 1_555
C22_2 N11_2 1_555 1_555
H22_2 C22_2 1_555 1_555
C24_2 N16_2 1_555 1_555
H24_2 C24_2 1_555 1_555
N17_2 C25_2 1_555 1_555
N18_2 B1_2 1_555 1_555
C25_2 N18_2 1_555 1_555
H25_2 C25_2 1_555 1_555
C26_2 N17_2 1_555 1_555
H26_2 C26_2 1_555 1_555
C27_2 N18_2 1_555 1_555
H27_2 C27_2 1_555 1_555
N19_2 C28_2 1_555 1_555
N20_2 B1_2 1_555 1_555
C28_2 N20_2 1_555 1_555
H28_2 C28_2 1_555 1_555
C29_2 N19_2 1_555 1_555
H29_2 C29_2 1_555 1_555
C30_2 N20_2 1_555 1_555
H30_2 C30_2 1_555 1_555
N21_2 B4_2 1_555 1_555
N22_2 C31_2 1_555 1_555
C31_2 N21_2 1_555 1_555
H31_2 C31_2 1_555 1_555
C32_2 N21_2 1_555 1_555
H32_2 C32_2 1_555 1_555
C33_2 N22_2 1_555 1_555
H33_2 C33_2 1_555 1_555
N23_2 B4_2 1_555 1_555
N24_2 C34_2 1_555 1_555
C34_2 N23_2 1_555 1_555
H34_2 C34_2 1_555 1_555
C35_2 N23_2 1_555 1_555
H35_2 C35_2 1_555 1_555
C36_2 N24_2 1_555 1_555
H36_2 C36_2 1_555 1_555
Cu3_2 N14_2 1_555 1_555
Cu4_2 N22_2 1_555 1_555
I2_2 Cu4_2 1_555 1_555
B5_2 N26_2 1_555 1_555
B6_2 N25_2 1_555 1_555
N25_2 C42_2 1_555 1_555
N26_2 C37_2 1_555 1_555
N27_2 Cu3_2 1_555 1_555
N28_2 B6_2 1_555 1_555
N29_2 Cu4_2 1_555 1_555
N30_2 Cu3_2 1_555 1_555
N31_2 B6_2 1_555 1_555
N32_2 B5_2 1_555 1_555
N33_2 B5_2 1_555 1_555
N34_2 Cu2_2 1_555 1_555
N35_2 C38_2 1_555 1_555
N36_2 Cu4_2 1_555 1_555
C37_2 H37_2 1_555 1_555
C38_2 N31_2 1_555 1_555
H38_2 C38_2 1_555 1_555
C39_2 N30_2 1_555 1_555
H39_2 C39_2 1_555 1_555
C40_2 N27_2 1_555 1_555
H40_2 C40_2 1_555 1_555
C41_2 N26_2 1_555 1_555
H41_2 C41_2 1_555 1_555
C42_2 N29_2 1_555 1_555
H42_2 C42_2 1_555 1_555
C43_2 N34_2 1_555 1_555
H43_2 C43_2 1_555 1_555
C44_2 N36_2 1_555 1_555
H44_2 C44_2 1_555 1_555
C45_2 N27_2 1_555 1_555
H45_2 C45_2 1_555 1_555
C46_2 N28_2 1_555 1_555
H46_2 C46_2 1_555 1_555
C49_2 N35_2 1_555 1_555
H49_2 C49_2 1_555 1_555
C50_2 N31_2 1_555 1_555
H50_2 C50_2 1_555 1_555
C51_2 N32_2 1_555 1_555
H51_2 C51_2 1_555 1_555
C53_2 N32_2 1_555 1_555
H53_2 C53_2 1_555 1_555
Cu5_2 N19_2 1_555 1_555
Cu6_2 N13_2 1_555 1_555
I3_2 Cu6_2 1_555 1_555
B7_2 N38_2 1_555 1_555
B8_2 N37_2 1_555 1_555
N37_2 C60_2 1_555 1_555
N38_2 C55_2 1_555 1_555
N39_2 Cu5_2 1_555 1_555
N40_2 B8_2 1_555 1_555
N41_2 Cu6_2 1_555 1_555
N42_2 Cu5_2 1_555 1_555
N43_2 B8_2 1_555 1_555
N44_2 B7_2 1_555 1_555
N45_2 B7_2 1_555 1_555
N46_2 Cu4_2 1_555 1_555
N47_2 Cu1_2 1_555 1_555
N48_2 Cu6_2 1_555 1_555
C55_2 H55_2 1_555 1_555
C56_2 N43_2 1_555 1_555
H56_2 C56_2 1_555 1_555
C57_2 N42_2 1_555 1_555
H57_2 C57_2 1_555 1_555
C58_2 N39_2 1_555 1_555
H58_2 C58_2 1_555 1_555
C59_2 N38_2 1_555 1_555
H59_2 C59_2 1_555 1_555
C60_2 N41_2 1_555 1_555
H60_2 C60_2 1_555 1_555
C61_2 N46_2 1_555 1_555
H61_2 C61_2 1_555 1_555
C62_2 N48_2 1_555 1_555
H62_2 C62_2 1_555 1_555
C63_2 N39_2 1_555 1_555
H63_2 C63_2 1_555 1_555
C64_2 N40_2 1_555 1_555
H64_2 C64_2 1_555 1_555
C65_2 N45_2 1_555 1_555
H65_2 C65_2 1_555 1_555
C66_2 N42_2 1_555 1_555
H66_2 C66_2 1_555 1_555
C67_2 N47_2 1_555 1_555
H67_2 C67_2 1_555 1_555
C68_2 N43_2 1_555 1_555
H68_2 C68_2 1_555 1_555
C69_2 N44_2 1_555 1_555
H69_2 C69_2 1_555 1_555
C70_2 N41_2 1_555 1_555
H70_2 C70_2 1_555 1_555
C71_2 N44_2 1_555 1_555
H71_2 C71_2 1_555 1_555
C72_2 N37_2 1_555 1_555
H72_2 C72_2 1_555 1_555
Cu9_2 I3_2 1_555 1_555
I6_2 Cu5_2 1_555 1_555
N7_2 C4_2 1_555 1_555
N12_2 C3_2 1_555 1_555
N15_2 C19_2 1_555 1_555
C1_2 C8_2 1_555 1_555
C10_2 C22_2 1_555 1_555
C11_2 C17_2 1_555 1_555
C12_2 C13_2 1_555 1_555
C16_2 C18_2 1_555 1_555
C20_2 C24_2 1_555 1_555
N17_2 Cu3_2 1_555 1_555
C26_2 C27_2 1_555 1_555
C29_2 C30_2 1_555 1_555
C32_2 C33_2 1_555 1_555
N24_2 Cu6_2 1_555 1_555
C35_2 C36_2 1_555 1_555
N28_2 C40_2 1_555 1_555
N33_2 C39_2 1_555 1_555
N34_2 C41_2 1_555 1_555
N35_2 Cu5_2 1_555 1_555
N36_2 C51_2 1_555 1_555
C37_2 C43_2 1_555 1_555
C44_2 C53_2 1_555 1_555
C45_2 C46_2 1_555 1_555
C49_2 C50_2 1_555 1_555
N40_2 C58_2 1_555 1_555
N45_2 C57_2 1_555 1_555
N46_2 C59_2 1_555 1_555
N47_2 C56_2 1_555 1_555
N48_2 C69_2 1_555 1_555
C55_2 C61_2 1_555 1_555
C62_2 C71_2 1_555 1_555
C63_2 C64_2 1_555 1_555
C65_2 C66_2 1_555 1_555
C67_2 C68_2 1_555 1_555
C70_2 C72_2 1_555 1_555
H47 C47 1_555 1_555
H48 C48 1_555 1_555
H52 C52 1_555 1_555
H54 C54 1_555 1_555
C47 C48 1_555 1_555
C52 C54 1_555 1_555
C1_3 H1_3 1_555 1_555
H8_3 C8_3 1_555 1_555
H67_3 C67_3 1_555 1_555
H68_3 C68_3 1_555 1_555
Cu9_3 I3_3 1_555 1_555
C1_3 C8_3 1_555 1_555
C67_3 C68_3 1_555 1_555
Cu7_2 N1_3 1_555 1_555
B1_3 N6_3 1_555 1_555
B2_3 N4_3 1_555 1_555
B3_3 N3_3 1_555 1_555
B4_3 N2_3 1_555 1_555
N1_3 C7_3 1_555 1_555
N2_3 C9_3 1_555 1_555
N3_3 C6_3 1_555 1_555
N5_3 Cu7_2 1_555 1_555
N6_3 C7_3 1_555 1_555
N7_3 B3_3 1_555 1_555
N8_3 Cu2_3 1_555 1_555
N9_3 Cu7_2 1_555 1_555
N10_3 B3_3 1_555 1_555
N11_3 B2_3 1_555 1_555
N12_3 B2_3 1_555 1_555
N13_3 C5_3 1_555 1_555
N14_3 C2_3 1_555 1_555
N15_3 Cu2_3 1_555 1_555
N16_3 Cu2_3 1_555 1_555
C2_3 N10_3 1_555 1_555
H2_3 C2_3 1_555 1_555
C3_3 N9_3 1_555 1_555
H3_3 C3_3 1_555 1_555
C4_3 N5_3 1_555 1_555
H4_3 C4_3 1_555 1_555
C5_3 N4_3 1_555 1_555
H5_3 C5_3 1_555 1_555
C6_3 N8_3 1_555 1_555
H6_3 C6_3 1_555 1_555
C7_3 H7_3 1_555 1_555
C9_3 N16_3 1_555 1_555
H9_3 C9_3 1_555 1_555
C10_3 N15_3 1_555 1_555
H10_3 C10_3 1_555 1_555
C11_3 N1_3 1_555 1_555
H11_3 C11_3 1_555 1_555
C12_3 N5_3 1_555 1_555
H12_3 C12_3 1_555 1_555
C13_3 N7_3 1_555 1_555
H13_3 C13_3 1_555 1_555
C14_3 N12_3 1_555 1_555
H14_3 C14_3 1_555 1_555
C15_3 N9_3 1_555 1_555
H15_3 C15_3 1_555 1_555
C17_3 N6_3 1_555 1_555
H17_3 C17_3 1_555 1_555
C19_3 N11_3 1_555 1_555
H19_3 C19_3 1_555 1_555
C20_3 N2_3 1_555 1_555
H20_3 C20_3 1_555 1_555
C21_3 N8_3 1_555 1_555
H21_3 C21_3 1_555 1_555
C22_3 N11_3 1_555 1_555
H22_3 C22_3 1_555 1_555
C23_3 N3_3 1_555 1_555
C24_3 N16_3 1_555 1_555
H24_3 C24_3 1_555 1_555
N17_3 C25_3 1_555 1_555
N18_3 B1_3 1_555 1_555
C25_3 N18_3 1_555 1_555
H25_3 C25_3 1_555 1_555
C26_3 N17_3 1_555 1_555
H26_3 C26_3 1_555 1_555
C27_3 N18_3 1_555 1_555
H27_3 C27_3 1_555 1_555
N19_3 C28_3 1_555 1_555
N20_3 B1_3 1_555 1_555
C28_3 N20_3 1_555 1_555
H28_3 C28_3 1_555 1_555
C29_3 N19_3 1_555 1_555
H29_3 C29_3 1_555 1_555
C30_3 N20_3 1_555 1_555
H30_3 C30_3 1_555 1_555
N21_3 B4_3 1_555 1_555
N22_3 C31_3 1_555 1_555
C31_3 N21_3 1_555 1_555
H31_3 C31_3 1_555 1_555
C32_3 N21_3 1_555 1_555
H32_3 C32_3 1_555 1_555
C33_3 N22_3 1_555 1_555
H33_3 C33_3 1_555 1_555
N23_3 B4_3 1_555 1_555
N24_3 C34_3 1_555 1_555
C34_3 N23_3 1_555 1_555
H34_3 C34_3 1_555 1_555
C35_3 N23_3 1_555 1_555
H35_3 C35_3 1_555 1_555
C36_3 N24_3 1_555 1_555
H36_3 C36_3 1_555 1_555
Cu8_2 N14_3 1_555 1_555
Cu4_3 N22_3 1_555 1_555
I2_3 Cu4_3 1_555 1_555
B5_3 N26_3 1_555 1_555
B6_3 N25_3 1_555 1_555
N25_3 C42_3 1_555 1_555
N27_3 Cu8_2 1_555 1_555
N28_3 B6_3 1_555 1_555
N29_3 Cu4_3 1_555 1_555
N30_3 Cu8_2 1_555 1_555
N31_3 B6_3 1_555 1_555
N32_3 B5_3 1_555 1_555
N33_3 B5_3 1_555 1_555
N34_3 Cu2_3 1_555 1_555
N35_3 C38_3 1_555 1_555
N36_3 Cu4_3 1_555 1_555
C38_3 N31_3 1_555 1_555
H38_3 C38_3 1_555 1_555
C39_3 N30_3 1_555 1_555
H39_3 C39_3 1_555 1_555
C40_3 N27_3 1_555 1_555
H40_3 C40_3 1_555 1_555
C41_3 N26_3 1_555 1_555
H41_3 C41_3 1_555 1_555
C42_3 N29_3 1_555 1_555
H42_3 C42_3 1_555 1_555
C44_3 N36_3 1_555 1_555
H44_3 C44_3 1_555 1_555
C45_3 N27_3 1_555 1_555
H45_3 C45_3 1_555 1_555
C46_3 N28_3 1_555 1_555
H46_3 C46_3 1_555 1_555
C47_2 N33_3 1_555 1_555
H47_2 C47_2 1_555 1_555
C48_2 N30_3 1_555 1_555
H48_2 C48_2 1_555 1_555
C49_3 N35_3 1_555 1_555
H49_3 C49_3 1_555 1_555
C50_3 N31_3 1_555 1_555
H50_3 C50_3 1_555 1_555
C51_3 N32_3 1_555 1_555
H51_3 C51_3 1_555 1_555
C52_2 N29_3 1_555 1_555
H52_2 C52_2 1_555 1_555
C53_3 N32_3 1_555 1_555
H53_3 C53_3 1_555 1_555
C54_2 N25_3 1_555 1_555
H54_2 C54_2 1_555 1_555
Cu9_2 N19_3 1_555 1_555
Cu6_3 N13_3 1_555 1_555
B7_3 N38_3 1_555 1_555
B8_3 N37_3 1_555 1_555
N37_3 C60_3 1_555 1_555
N38_3 C55_3 1_555 1_555
N39_3 Cu9_2 1_555 1_555
N40_3 B8_3 1_555 1_555
N41_3 Cu6_3 1_555 1_555
N42_3 Cu9_2 1_555 1_555
N43_3 B8_3 1_555 1_555
N44_3 B7_3 1_555 1_555
N45_3 B7_3 1_555 1_555
N46_3 Cu4_3 1_555 1_555
N47_3 Cu7_2 1_555 1_555
N48_3 Cu6_3 1_555 1_555
C55_3 H55_3 1_555 1_555
C56_3 N43_3 1_555 1_555
H56_3 C56_3 1_555 1_555
C57_3 N42_3 1_555 1_555
H57_3 C57_3 1_555 1_555
C58_3 N39_3 1_555 1_555
H58_3 C58_3 1_555 1_555
C59_3 N38_3 1_555 1_555
H59_3 C59_3 1_555 1_555
C60_3 N41_3 1_555 1_555
H60_3 C60_3 1_555 1_555
C61_3 N46_3 1_555 1_555
H61_3 C61_3 1_555 1_555
C62_3 N48_3 1_555 1_555
H62_3 C62_3 1_555 1_555
C63_3 N39_3 1_555 1_555
H63_3 C63_3 1_555 1_555
C64_3 N40_3 1_555 1_555
H64_3 C64_3 1_555 1_555
C65_3 N45_3 1_555 1_555
H65_3 C65_3 1_555 1_555
C66_3 N42_3 1_555 1_555
H66_3 C66_3 1_555 1_555
C69_3 N44_3 1_555 1_555
H69_3 C69_3 1_555 1_555
C70_3 N41_3 1_555 1_555
H70_3 C70_3 1_555 1_555
C71_3 N44_3 1_555 1_555
H71_3 C71_3 1_555 1_555
C72_3 N37_3 1_555 1_555
Cu7_3 I2_3 1_555 1_555
N7_3 C4_3 1_555 1_555
N12_3 C3_3 1_555 1_555
N15_3 C19_3 1_555 1_555
C10_3 C22_3 1_555 1_555
C11_3 C17_3 1_555 1_555
C12_3 C13_3 1_555 1_555
C14_3 C15_3 1_555 1_555
C20_3 C24_3 1_555 1_555
C21_3 C23_3 1_555 1_555
N17_3 Cu8_2 1_555 1_555
C26_3 C27_3 1_555 1_555
C29_3 C30_3 1_555 1_555
C32_3 C33_3 1_555 1_555
N24_3 Cu6_3 1_555 1_555
C35_3 C36_3 1_555 1_555
N28_3 C40_3 1_555 1_555
N33_3 C39_3 1_555 1_555
N34_3 C41_3 1_555 1_555
N35_3 Cu9_2 1_555 1_555
N36_3 C51_3 1_555 1_555
C44_3 C53_3 1_555 1_555
C45_3 C46_3 1_555 1_555
C47_2 C48_2 1_555 1_555
C49_3 C50_3 1_555 1_555
C52_2 C54_2 1_555 1_555
N40_3 C58_3 1_555 1_555
N45_3 C57_3 1_555 1_555
N46_3 C59_3 1_555 1_555
N47_3 C56_3 1_555 1_555
N48_3 C69_3 1_555 1_555
C55_3 C61_3 1_555 1_555
C62_3 C71_3 1_555 1_555
C63_3 C64_3 1_555 1_555
C65_3 C66_3 1_555 1_555
C70_3 C72_3 1_555 1_555
I1_3 Cu8_3 1_555 1_555
H16_3 C16_3 1_555 1_555
H18_3 C18_3 1_555 1_555
C37_3 H37_3 1_555 1_555
H43_3 C43_3 1_555 1_555
C16_3 C18_3 1_555 1_555
C37_3 C43_3 1_555 1_555
C1_4 H1_4 1_555 1_555
H8_4 C8_4 1_555 1_555
H67_4 C67_4 1_555 1_555
H68_4 C68_4 1_555 1_555
Cu9_4 I3_4 1_555 1_555
C1_4 C8_4 1_555 1_555
C67_4 C68_4 1_555 1_555
B1_4 N6_4 1_555 1_555
N1_4 C7_4 1_555 1_555
N6_4 C7_4 1_555 1_555
C7_4 H7_4 1_555 1_555
C11_4 N1_4 1_555 1_555
H11_4 C11_4 1_555 1_555
H12_4 C12_4 1_555 1_555
H13_4 C13_4 1_555 1_555
C17_4 N6_4 1_555 1_555
H17_4 C17_4 1_555 1_555
N17_4 C25_4 1_555 1_555
N18_4 B1_4 1_555 1_555
C25_4 N18_4 1_555 1_555
H25_4 C25_4 1_555 1_555
C26_4 N17_4 1_555 1_555
H26_4 C26_4 1_555 1_555
C27_4 N18_4 1_555 1_555
H27_4 C27_4 1_555 1_555
N19_4 C28_4 1_555 1_555
N20_4 B1_4 1_555 1_555
C28_4 N20_4 1_555 1_555
H28_4 C28_4 1_555 1_555
C29_4 N19_4 1_555 1_555
H29_4 C29_4 1_555 1_555
C30_4 N20_4 1_555 1_555
H30_4 C30_4 1_555 1_555
H45_4 C45_4 1_555 1_555
H46_4 C46_4 1_555 1_555
H63_4 C63_4 1_555 1_555
H64_4 C64_4 1_555 1_555
C11_4 C17_4 1_555 1_555
C12_4 C13_4 1_555 1_555
C26_4 C27_4 1_555 1_555
C29_4 C30_4 1_555 1_555
C45_4 C46_4 1_555 1_555
C63_4 C64_4 1_555 1_555
Cu2_4 I1_4 1_555 1_555
I1_4 Cu8_4 1_555 1_555
B2_4 N4_4 1_555 1_555
B3_4 N3_4 1_555 1_555
B4_4 N2_4 1_555 1_555
N2_4 C9_4 1_555 1_555
N3_4 C6_4 1_555 1_555
N5_4 Cu7 1_555 1_555
N7_4 B3_4 1_555 1_555
N8_4 Cu2_4 1_555 1_555
N9_4 Cu7 1_555 1_555
N10_4 B3_4 1_555 1_555
N11_4 B2_4 1_555 1_555
N12_4 B2_4 1_555 1_555
N13_4 C5_4 1_555 1_555
N14_4 C2_4 1_555 1_555
N15_4 Cu2_4 1_555 1_555
N16_4 Cu2_4 1_555 1_555
C2_4 N10_4 1_555 1_555
H2_4 C2_4 1_555 1_555
C3_4 N9_4 1_555 1_555
H3_4 C3_4 1_555 1_555
C4_4 N5_4 1_555 1_555
H4_4 C4_4 1_555 1_555
C5_4 N4_4 1_555 1_555
H5_4 C5_4 1_555 1_555
C6_4 N8_4 1_555 1_555
H6_4 C6_4 1_555 1_555
C9_4 N16_4 1_555 1_555
H9_4 C9_4 1_555 1_555
C10_4 N15_4 1_555 1_555
H10_4 C10_4 1_555 1_555
C14_4 N12_4 1_555 1_555
H14_4 C14_4 1_555 1_555
C15_4 N9_4 1_555 1_555
H15_4 C15_4 1_555 1_555
C16_4 N14_4 1_555 1_555
H16_4 C16_4 1_555 1_555
C18_4 N10_4 1_555 1_555
H18_4 C18_4 1_555 1_555
C19_4 N11_4 1_555 1_555
H19_4 C19_4 1_555 1_555
C20_4 N2_4 1_555 1_555
H20_4 C20_4 1_555 1_555
C21_4 N8_4 1_555 1_555
H21_4 C21_4 1_555 1_555
C22_4 N11_4 1_555 1_555
H22_4 C22_4 1_555 1_555
C23_4 N3_4 1_555 1_555
H23_4 C23_4 1_555 1_555
C24_4 N16_4 1_555 1_555
H24_4 C24_4 1_555 1_555
N21_4 B4_4 1_555 1_555
N22_4 C31_4 1_555 1_555
C31_4 N21_4 1_555 1_555
H31_4 C31_4 1_555 1_555
C32_4 N21_4 1_555 1_555
H32_4 C32_4 1_555 1_555
C33_4 N22_4 1_555 1_555
H33_4 C33_4 1_555 1_555
N23_4 B4_4 1_555 1_555
N24_4 C34_4 1_555 1_555
C34_4 N23_4 1_555 1_555
H34_4 C34_4 1_555 1_555
C35_4 N23_4 1_555 1_555
H35_4 C35_4 1_555 1_555
C36_4 N24_4 1_555 1_555
H36_4 C36_4 1_555 1_555
Cu8 N14_4 1_555 1_555
Cu4_4 N22_4 1_555 1_555
B5_4 N26_4 1_555 1_555
B6_4 N25_4 1_555 1_555
N25_4 C42_4 1_555 1_555
N26_4 C37_4 1_555 1_555
N27_4 Cu8 1_555 1_555
N28_4 B6_4 1_555 1_555
N29_4 Cu4_4 1_555 1_555
N30_4 Cu8 1_555 1_555
N31_4 B6_4 1_555 1_555
N32_4 B5_4 1_555 1_555
N33_4 B5_4 1_555 1_555
N34_4 Cu2_4 1_555 1_555
N35_4 C38_4 1_555 1_555
N36_4 Cu4_4 1_555 1_555
C37_4 H37_4 1_555 1_555
C38_4 N31_4 1_555 1_555
H38_4 C38_4 1_555 1_555
C39_4 N30_4 1_555 1_555
H39_4 C39_4 1_555 1_555
C40_4 N27_4 1_555 1_555
H40_4 C40_4 1_555 1_555
C41_4 N26_4 1_555 1_555
H41_4 C41_4 1_555 1_555
C42_4 N29_4 1_555 1_555
H42_4 C42_4 1_555 1_555
C43_4 N34_4 1_555 1_555
H43_4 C43_4 1_555 1_555
C44_4 N36_4 1_555 1_555
H44_4 C44_4 1_555 1_555
C47_3 N33_4 1_555 1_555
H47_3 C47_3 1_555 1_555
C48_3 N30_4 1_555 1_555
H48_3 C48_3 1_555 1_555
C51_4 N32_4 1_555 1_555
H51_4 C51_4 1_555 1_555
C52_3 N29_4 1_555 1_555
H52_3 C52_3 1_555 1_555
C53_4 N32_4 1_555 1_555
H53_4 C53_4 1_555 1_555
C54_3 N25_4 1_555 1_555
Cu6_4 N13_4 1_555 1_555
B7_4 N38_4 1_555 1_555
B8_4 N37_4 1_555 1_555
N37_4 C60_4 1_555 1_555
N39_4 Cu9 1_555 1_555
N40_4 B8_4 1_555 1_555
N41_4 Cu6_4 1_555 1_555
N42_4 Cu9 1_555 1_555
N43_4 B8_4 1_555 1_555
N44_4 B7_4 1_555 1_555
N45_4 B7_4 1_555 1_555
N46_4 Cu4_4 1_555 1_555
N47_4 Cu7 1_555 1_555
N48_4 Cu6_4 1_555 1_555
C56_4 N43_4 1_555 1_555
H56_4 C56_4 1_555 1_555
C57_4 N42_4 1_555 1_555
H57_4 C57_4 1_555 1_555
C58_4 N39_4 1_555 1_555
H58_4 C58_4 1_555 1_555
C59_4 N38_4 1_555 1_555
H59_4 C59_4 1_555 1_555
C60_4 N41_4 1_555 1_555
H60_4 C60_4 1_555 1_555
C62_4 N48_4 1_555 1_555
H62_4 C62_4 1_555 1_555
C65_4 N45_4 1_555 1_555
H65_4 C65_4 1_555 1_555
C66_4 N42_4 1_555 1_555
H66_4 C66_4 1_555 1_555
C69_4 N44_4 1_555 1_555
H69_4 C69_4 1_555 1_555
C70_4 N41_4 1_555 1_555
H70_4 C70_4 1_555 1_555
C71_4 N44_4 1_555 1_555
H71_4 C71_4 1_555 1_555
C72_4 N37_4 1_555 1_555
N7_4 C4_4 1_555 1_555
N12_4 C3_4 1_555 1_555
N15_4 C19_4 1_555 1_555
C10_4 C22_4 1_555 1_555
C14_4 C15_4 1_555 1_555
C16_4 C18_4 1_555 1_555
C20_4 C24_4 1_555 1_555
C21_4 C23_4 1_555 1_555
C32_4 C33_4 1_555 1_555
N24_4 Cu6_4 1_555 1_555
C35_4 C36_4 1_555 1_555
N28_4 C40_4 1_555 1_555
N33_4 C39_4 1_555 1_555
N34_4 C41_4 1_555 1_555
N35_4 Cu9 1_555 1_555
N36_4 C51_4 1_555 1_555
C37_4 C43_4 1_555 1_555
C44_4 C53_4 1_555 1_555
C47_3 C48_3 1_555 1_555
C52_3 C54_3 1_555 1_555
N40_4 C58_4 1_555 1_555
N45_4 C57_4 1_555 1_555
N46_4 C59_4 1_555 1_555
N47_4 C56_4 1_555 1_555
N48_4 C69_4 1_555 1_555
C62_4 C71_4 1_555 1_555
C65_4 C66_4 1_555 1_555
C70_4 C72_4 1_555 1_555
H49_4 C49_4 1_555 1_555
H50_4 C50_4 1_555 1_555
C55_4 H55_4 1_555 1_555
H61_4 C61_4 1_555 1_555
Cu7_4 I2_4 1_555 1_555
C49_4 C50_4 1_555 1_555
C55_4 C61_4 1_555 1_555
B1_5 N6_5 1_555 1_555
N4_5 C1_5 1_555 1_555
N13_5 C5_5 1_555 1_555
C1_5 H1_5 1_555 1_555
C5_5 N4_5 1_555 1_555
H5_5 C5_5 1_555 1_555
C8_5 N13_5 1_555 1_555
H8_5 C8_5 1_555 1_555
C11_5 N1_5 1_555 1_555
H11_5 C11_5 1_555 1_555
C17_5 N6_5 1_555 1_555
H17_5 C17_5 1_555 1_555
H28_5 C28_5 1_555 1_555
N23_5 B4_5 1_555 1_555
N24_5 C34_5 1_555 1_555
C34_5 N23_5 1_555 1_555
H34_5 C34_5 1_555 1_555
C35_5 N23_5 1_555 1_555
H35_5 C35_5 1_555 1_555
C36_5 N24_5 1_555 1_555
H36_5 C36_5 1_555 1_555
Cu6_5 N13_5 1_555 1_555
I6_2 Cu6_5 1_555 1_555
B8_5 N37_5 1_555 1_555
N37_5 C60_5 1_555 1_555
N39_5 Cu9_4 1_555 1_555
N40_5 B8_5 1_555 1_555
N41_5 Cu6_5 1_555 1_555
N42_5 Cu9_4 1_555 1_555
N43_5 B8_5 1_555 1_555
N44_5 B7_5 1_555 1_555
N45_5 B7_5 1_555 1_555
N48_5 Cu6_5 1_555 1_555
C56_5 N43_5 1_555 1_555
H56_5 C56_5 1_555 1_555
C57_5 N42_5 1_555 1_555
C58_5 N39_5 1_555 1_555
H58_5 C58_5 1_555 1_555
C60_5 N41_5 1_555 1_555
H60_5 C60_5 1_555 1_555
C62_5 N48_5 1_555 1_555
H62_5 C62_5 1_555 1_555
C63_5 N39_5 1_555 1_555
H63_5 C63_5 1_555 1_555
C64_5 N40_5 1_555 1_555
H64_5 C64_5 1_555 1_555
C65_5 N45_5 1_555 1_555
H65_5 C65_5 1_555 1_555
C66_5 N42_5 1_555 1_555
H66_5 C66_5 1_555 1_555
C67_5 N47_5 1_555 1_555
H67_5 C67_5 1_555 1_555
C68_5 N43_5 1_555 1_555
H68_5 C68_5 1_555 1_555
C69_5 N44_5 1_555 1_555
H69_5 C69_5 1_555 1_555
C70_5 N41_5 1_555 1_555
H70_5 C70_5 1_555 1_555
C71_5 N44_5 1_555 1_555
H71_5 C71_5 1_555 1_555
C72_5 N37_5 1_555 1_555
H72_5 C72_5 1_555 1_555
C1_5 C8_5 1_555 1_555
C11_5 C17_5 1_555 1_555
N24_5 Cu6_5 1_555 1_555
C35_5 C36_5 1_555 1_555
N40_5 C58_5 1_555 1_555
N45_5 C57_5 1_555 1_555
N47_5 C56_5 1_555 1_555
N48_5 C69_5 1_555 1_555
C62_5 C71_5 1_555 1_555
C63_5 C64_5 1_555 1_555
C65_5 C66_5 1_555 1_555
C67_5 C68_5 1_555 1_555
C70_5 C72_5 1_555 1_555
N20_5 B1_6 1_555 1_555
C29_5 N19_5 1_555 1_555
H29_5 C29_5 1_555 1_555
C30_5 N20_5 1_555 1_555
H30_5 C30_5 1_555 1_555
N21_5 B4_6 1_555 1_555
N22_5 C31_5 1_555 1_555
C31_5 N21_5 1_555 1_555
C32_5 N21_5 1_555 1_555
H32_5 C32_5 1_555 1_555
C33_5 N22_5 1_555 1_555
H33_5 C33_5 1_555 1_555
Cu4_5 N22_5 1_555 1_555
I5_2 Cu4_5 1_555 1_555
B6_5 N25_5 1_555 1_555
N25_5 C42_5 1_555 1_555
N29_5 Cu4_5 1_555 1_555
N31_5 B6_5 1_555 1_555
N35_5 C38_5 1_555 1_555
C38_5 N31_5 1_555 1_555
H38_5 C38_5 1_555 1_555
C42_5 N29_5 1_555 1_555
H42_5 C42_5 1_555 1_555
C49_5 N35_5 1_555 1_555
H49_5 C49_5 1_555 1_555
C50_5 N31_5 1_555 1_555
H50_5 C50_5 1_555 1_555
N38_5 C55_5 1_555 1_555
N46_5 Cu4_5 1_555 1_555
C55_5 H55_5 1_555 1_555
C59_5 N38_5 1_555 1_555
H59_5 C59_5 1_555 1_555
C61_5 N46_5 1_555 1_555
H61_5 C61_5 1_555 1_555
C29_5 C30_5 1_555 1_555
C32_5 C33_5 1_555 1_555
C49_5 C50_5 1_555 1_555
N46_5 C59_5 1_555 1_555
C55_5 C61_5 1_555 1_555
N5_5 Cu7_4 1_555 1_555
N9_5 Cu7_4 1_555 1_555
N11_5 B2_5 1_555 1_555
N12_5 B2_5 1_555 1_555
C3_5 N9_5 1_555 1_555
C4_5 N5_5 1_555 1_555
H4_5 C4_5 1_555 1_555
C7_5 H7_5 1_555 1_555
C10_5 N15_5 1_555 1_555
H10_5 C10_5 1_555 1_555
C12_5 N5_5 1_555 1_555
H12_5 C12_5 1_555 1_555
C13_5 N7_5 1_555 1_555
H13_5 C13_5 1_555 1_555
C14_5 N12_5 1_555 1_555
H14_5 C14_5 1_555 1_555
C15_5 N9_5 1_555 1_555
H15_5 C15_5 1_555 1_555
C19_5 N11_5 1_555 1_555
H19_5 C19_5 1_555 1_555
H21_5 C21_5 1_555 1_555
C22_5 N11_5 1_555 1_555
H22_5 C22_5 1_555 1_555
H23_5 C23_5 1_555 1_555
N7_5 C4_5 1_555 1_555
N12_5 C3_5 1_555 1_555
N15_5 C19_5 1_555 1_555
C10_5 C22_5 1_555 1_555
C12_5 C13_5 1_555 1_555
C14_5 C15_5 1_555 1_555
C21_5 C23_5 1_555 1_555
Cu2_5 I4 1_555 1_555
B3_5 N3_5 1_555 1_555
B4_8 N2_5 1_555 1_555
N2_5 C9_5 1_555 1_555
N3_5 C6_5 1_555 1_555
N8_5 Cu2_5 1_555 1_555
N10_5 B3_5 1_555 1_555
N14_5 C2_5 1_555 1_555
N16_5 Cu2_5 1_555 1_555
C2_5 N10_5 1_555 1_555
H2_5 C2_5 1_555 1_555
C6_5 N8_5 1_555 1_555
H6_5 C6_5 1_555 1_555
C9_5 N16_5 1_555 1_555
C16_5 N14_5 1_555 1_555
H16_5 C16_5 1_555 1_555
C18_5 N10_5 1_555 1_555
H18_5 C18_5 1_555 1_555
C20_5 N2_5 1_555 1_555
H20_5 C20_5 1_555 1_555
C24_5 N16_5 1_555 1_555
H24_5 C24_5 1_555 1_555
N17_5 C25_5 1_555 1_555
N18_5 B1_8 1_555 1_555
C25_5 N18_5 1_555 1_555
H25_5 C25_5 1_555 1_555
C26_5 N17_5 1_555 1_555
H26_5 C26_5 1_555 1_555
C27_5 N18_5 1_555 1_555
H27_5 C27_5 1_555 1_555
Cu8_4 N14_5 1_555 1_555
B5_5 N26_5 1_555 1_555
N26_5 C37_5 1_555 1_555
N27_5 Cu8_4 1_555 1_555
N30_5 Cu8_4 1_555 1_555
N32_5 B5_5 1_555 1_555
N33_5 B5_5 1_555 1_555
N34_5 Cu2_5 1_555 1_555
C37_5 H37_5 1_555 1_555
C39_5 N30_5 1_555 1_555
H39_5 C39_5 1_555 1_555
C40_5 N27_5 1_555 1_555
H40_5 C40_5 1_555 1_555
C41_5 N26_5 1_555 1_555
H41_5 C41_5 1_555 1_555
C43_5 N34_5 1_555 1_555
H43_5 C43_5 1_555 1_555
C44_5 N36_5 1_555 1_555
H44_5 C44_5 1_555 1_555
C45_5 N27_5 1_555 1_555
H45_5 C45_5 1_555 1_555
C46_5 N28_5 1_555 1_555
H46_5 C46_5 1_555 1_555
C47_4 N33_5 1_555 1_555
H47_4 C47_4 1_555 1_555
C48_4 N30_5 1_555 1_555
H48_4 C48_4 1_555 1_555
C51_5 N32_5 1_555 1_555
H51_5 C51_5 1_555 1_555
H52_4 C52_4 1_555 1_555
C53_5 N32_5 1_555 1_555
H53_5 C53_5 1_555 1_555
H54_4 C54_4 1_555 1_555
C16_5 C18_5 1_555 1_555
C20_5 C24_5 1_555 1_555
N17_5 Cu8_4 1_555 1_555
C26_5 C27_5 1_555 1_555
N28_5 C40_5 1_555 1_555
N33_5 C39_5 1_555 1_555
N34_5 C41_5 1_555 1_555
N36_5 C51_5 1_555 1_555
C37_5 C43_5 1_555 1_555
C44_5 C53_5 1_555 1_555
C45_5 C46_5 1_555 1_555
C47_4 C48_4 1_555 1_555
C52_4 C54_4 1_555 1_555
Cu7_3 N1_6 1_555 1_555
B2_6 N4_6 1_555 1_555
N1_6 C7_6 1_555 1_555
N4_6 C1_6 1_555 1_555
N5_6 Cu7_3 1_555 1_555
N6_6 C7_6 1_555 1_555
N9_6 Cu7_3 1_555 1_555
N11_6 B2_6 1_555 1_555
N12_6 B2_6 1_555 1_555
N13_6 C5_6 1_555 1_555
C1_6 H1_6 1_555 1_555
C3_6 N9_6 1_555 1_555
H3_6 C3_6 1_555 1_555
C4_6 N5_6 1_555 1_555
H4_6 C4_6 1_555 1_555
C5_6 N4_6 1_555 1_555
H5_6 C5_6 1_555 1_555
C7_6 H7_6 1_555 1_555
C8_6 N13_6 1_555 1_555
H8_6 C8_6 1_555 1_555
C10_6 N15_6 1_555 1_555
H10_6 C10_6 1_555 1_555
C11_6 N1_6 1_555 1_555
H11_6 C11_6 1_555 1_555
C12_6 N5_6 1_555 1_555
H12_6 C12_6 1_555 1_555
C13_6 N7_6 1_555 1_555
H13_6 C13_6 1_555 1_555
C14_6 N12_6 1_555 1_555
H14_6 C14_6 1_555 1_555
C15_6 N9_6 1_555 1_555
H15_6 C15_6 1_555 1_555
C17_6 N6_6 1_555 1_555
H17_6 C17_6 1_555 1_555
C19_6 N11_6 1_555 1_555
H19_6 C19_6 1_555 1_555
H21_6 C21_6 1_555 1_555
C22_6 N11_6 1_555 1_555
H22_6 C22_6 1_555 1_555
H23_6 C23_6 1_555 1_555
N24_6 C34_6 1_555 1_555
C34_6 N23_6 1_555 1_555
C35_6 N23_6 1_555 1_555
H35_6 C35_6 1_555 1_555
C36_6 N24_6 1_555 1_555
H36_6 C36_6 1_555 1_555
Cu6_6 N13_6 1_555 1_555
I6 Cu6_6 1_555 1_555
B8_6 N37_6 1_555 1_555
N37_6 C60_6 1_555 1_555
N41_6 Cu6_6 1_555 1_555
N43_6 B8_6 1_555 1_555
N47_6 Cu7_3 1_555 1_555
C56_6 N43_6 1_555 1_555
H56_6 C56_6 1_555 1_555
C60_6 N41_6 1_555 1_555
H60_6 C60_6 1_555 1_555
C67_6 N47_6 1_555 1_555
H67_6 C67_6 1_555 1_555
C68_6 N43_6 1_555 1_555
H68_6 C68_6 1_555 1_555
N7_6 C4_6 1_555 1_555
N12_6 C3_6 1_555 1_555
N15_6 C19_6 1_555 1_555
C1_6 C8_6 1_555 1_555
C10_6 C22_6 1_555 1_555
C11_6 C17_6 1_555 1_555
C12_6 C13_6 1_555 1_555
C14_6 C15_6 1_555 1_555
C21_6 C23_6 1_555 1_555
N24_6 Cu6_6 1_555 1_555
C35_6 C36_6 1_555 1_555
N47_6 C56_6 1_555 1_555
C67_6 C68_6 1_555 1_555
H28_6 C28_6 1_555 1_555
N39_6 Cu9_3 1_555 1_555
N42_6 Cu9_3 1_555 1_555
N44_6 B7_6 1_555 1_555
N45_6 B7_6 1_555 1_555
C57_6 N42_6 1_555 1_555
C58_6 N39_6 1_555 1_555
H58_6 C58_6 1_555 1_555
C62_6 N48_6 1_555 1_555
H62_6 C62_6 1_555 1_555
C63_6 N39_6 1_555 1_555
H63_6 C63_6 1_555 1_555
C64_6 N40_6 1_555 1_555
H64_6 C64_6 1_555 1_555
C65_6 N45_6 1_555 1_555
H65_6 C65_6 1_555 1_555
C66_6 N42_6 1_555 1_555
H66_6 C66_6 1_555 1_555
C69_6 N44_6 1_555 1_555
H69_6 C69_6 1_555 1_555
H70_6 C70_6 1_555 1_555
C71_6 N44_6 1_555 1_555
H71_6 C71_6 1_555 1_555
H72_6 C72_6 1_555 1_555
N40_6 C58_6 1_555 1_555
N45_6 C57_6 1_555 1_555
N48_6 C69_6 1_555 1_555
C62_6 C71_6 1_555 1_555
C63_6 C64_6 1_555 1_555
C65_6 C66_6 1_555 1_555
C70_6 C72_6 1_555 1_555
H25_6 C25_6 1_555 1_555
N20_6 B1_10 1_555 1_555
C29_6 N19_6 1_555 1_555
H29_6 C29_6 1_555 1_555
C30_6 N20_6 1_555 1_555
H30_6 C30_6 1_555 1_555
N21_6 B4_10 1_555 1_555
N22_6 C31_6 1_555 1_555
C31_6 N21_6 1_555 1_555
H31_6 C31_6 1_555 1_555
C32_6 N21_6 1_555 1_555
H32_6 C32_6 1_555 1_555
C33_6 N22_6 1_555 1_555
H33_6 C33_6 1_555 1_555
Cu4_6 N22_6 1_555 1_555
I5 Cu4_6 1_555 1_555
B6_6 N25_6 1_555 1_555
N25_6 C42_6 1_555 1_555
N27_6 Cu8_3 1_555 1_555
N28_6 B6_6 1_555 1_555
N29_6 Cu4_6 1_555 1_555
N30_6 Cu8_3 1_555 1_555
N31_6 B6_6 1_555 1_555
N32_6 B5_6 1_555 1_555
N33_6 B5_6 1_555 1_555
N35_6 C38_6 1_555 1_555
N36_6 Cu4_6 1_555 1_555
C38_6 N31_6 1_555 1_555
H38_6 C38_6 1_555 1_555
C39_6 N30_6 1_555 1_555
C40_6 N27_6 1_555 1_555
H40_6 C40_6 1_555 1_555
C42_6 N29_6 1_555 1_555
H42_6 C42_6 1_555 1_555
C44_6 N36_6 1_555 1_555
H44_6 C44_6 1_555 1_555
C45_6 N27_6 1_555 1_555
H45_6 C45_6 1_555 1_555
C46_6 N28_6 1_555 1_555
H46_6 C46_6 1_555 1_555
C47_5 N33_6 1_555 1_555
H47_5 C47_5 1_555 1_555
C48_5 N30_6 1_555 1_555
H48_5 C48_5 1_555 1_555
C49_6 N35_6 1_555 1_555
H49_6 C49_6 1_555 1_555
C50_6 N31_6 1_555 1_555
H50_6 C50_6 1_555 1_555
C51_6 N32_6 1_555 1_555
H51_6 C51_6 1_555 1_555
C52_5 N29_6 1_555 1_555
H52_5 C52_5 1_555 1_555
C53_6 N32_6 1_555 1_555
H53_6 C53_6 1_555 1_555
C54_5 N25_6 1_555 1_555
H54_5 C54_5 1_555 1_555
N38_6 C55_6 1_555 1_555
N46_6 Cu4_6 1_555 1_555
C55_6 H55_6 1_555 1_555
C59_6 N38_6 1_555 1_555
H59_6 C59_6 1_555 1_555
C61_6 N46_6 1_555 1_555
H61_6 C61_6 1_555 1_555
C29_6 C30_6 1_555 1_555
C32_6 C33_6 1_555 1_555
N28_6 C40_6 1_555 1_555
N33_6 C39_6 1_555 1_555
N36_6 C51_6 1_555 1_555
C44_6 C53_6 1_555 1_555
C45_6 C46_6 1_555 1_555
C47_5 C48_5 1_555 1_555
C49_6 C50_6 1_555 1_555
C52_5 C54_5 1_555 1_555
N46_6 C59_6 1_555 1_555
C55_6 C61_6 1_555 1_555
N6_6 B1_11 1_555 1_555
N23_6 B4_11 1_555 1_555
H47_6 C47_6 1_555 1_555
H48_6 C48_6 1_555 1_555
H52_6 C52_6 1_555 1_555
H54_6 C54_6 1_555 1_555
C47_6 C48_6 1_555 1_555
C52_6 C54_6 1_555 1_555
Cu2_6 I4_2 1_555 1_555
B3_6 N3_6 1_555 1_555
N2_6 C9_6 1_555 1_555
N3_6 C6_6 1_555 1_555
N8_6 Cu2_6 1_555 1_555
N10_6 B3_6 1_555 1_555
N14_6 C2_6 1_555 1_555
N16_6 Cu2_6 1_555 1_555
C2_6 N10_6 1_555 1_555
H2_6 C2_6 1_555 1_555
C6_6 N8_6 1_555 1_555
H6_6 C6_6 1_555 1_555
C9_6 N16_6 1_555 1_555
C16_6 N14_6 1_555 1_555
H16_6 C16_6 1_555 1_555
C18_6 N10_6 1_555 1_555
H18_6 C18_6 1_555 1_555
C20_6 N2_6 1_555 1_555
H20_6 C20_6 1_555 1_555
C24_6 N16_6 1_555 1_555
H24_6 C24_6 1_555 1_555
C26_6 N17_6 1_555 1_555
H26_6 C26_6 1_555 1_555
C27_6 N18_6 1_555 1_555
H27_6 C27_6 1_555 1_555
N26_6 C37_6 1_555 1_555
N34_6 Cu2_6 1_555 1_555
C37_6 H37_6 1_555 1_555
C41_6 N26_6 1_555 1_555
H41_6 C41_6 1_555 1_555
C43_6 N34_6 1_555 1_555
H43_6 C43_6 1_555 1_555
C16_6 C18_6 1_555 1_555
C20_6 C24_6 1_555 1_555
C26_6 C27_6 1_555 1_555
N34_6 C41_6 1_555 1_555
C37_6 C43_6 1_555 1_555
N18_6 B1_12 1_555 1_555
N2_6 B4_12 1_555 1_555

#END
