
###############################################################################
#
# This file contains modified crystal structure data generated from the
# MOF subset of the Cambridge Structural Database (CSD) v543 
# hosted by the Cambridge Crystallographic Data Centre (CCDC).
#
# This work is licensed under the Creative Commons
# Attribution-NonCommercial-ShareAlike 4.0 International License.
# To view a copy of this license, visit
# http://creativecommons.org/licenses/by-nc-sa/4.0/
# or send a letter to
# Creative Commons, PO Box 1866, Mountain View, CA 94042, USA.
#
# CIF created using the CSD Python API on 29 September 2022
# The structure has been converted into the P1 space group
# The structure has a 3D framework
# The original CSD entry UHOYUO is in the hexagonal crystal system
# The framework has been calculated to contain at least 10.0% void space
# The void calculation uses a probe of radius 1.32A, grid spacing 0.4
# The framework is charged, counterions have been retained in the structure
#
###############################################################################

data_UHOYUO
_chemical_formula_moiety         '(C54 H18 K4 N24 Ni6 O24 2-)n'
_symmetry_cell_setting           triclinic
_symmetry_space_group_name_H-M   'P 1'
_symmetry_Int_Tables_number      1
_space_group_name_Hall           'P 1'
loop_
_symmetry_equiv_pos_site_id
_symmetry_equiv_pos_as_xyz
1 x,y,z
_cell_length_a                   19.552(2)
_cell_length_b                   19.552(2)
_cell_length_c                   10.013(4)
_cell_angle_alpha                90
_cell_angle_beta                 90
_cell_angle_gamma                120
_cell_volume                     3314.95
loop_
_atom_site_label
_atom_site_type_symbol
_atom_site_fract_x
_atom_site_fract_y
_atom_site_fract_z
C3 C 0.5867(5) 0.0067(4) 0.6407(11)
H2 H 0.605578 0.034504 0.561159
C4 C 0.6077(6) 0.0462(8) 0.750000
C5 C 0.6557(7) 0.1328(10) 0.750000
N1 N 0.6831(5) 0.2517(7) 0.750000
N2 N 0.7475(5) 0.2528(7) 0.750000
N3 N 0.7329(6) 0.1776(8) 0.750000
N4 N 0.6225(5) 0.1771(5) 0.750000
C8 C 0.5867(5) 0.0067(4) 0.8593(11)
H3 H 0.605578 0.034504 0.938841
Ni3 Ni 0.50964(9) 0.15192(8) 0.750000
Ni4 Ni 0.84808(8) 0.35772(12) 0.750000
C9 C 0.5108(5) 0.8811(5) 0.0028(13)
O3 O 0.5458(4) 0.9181(4) 0.1011(9)
Ni2 Ni 0.49036(9) 0.84808(8) 0.250000
C1 C 0.5356(4) 0.9220(5) 0.6327(13)
C2 C 0.5114(8) 0.8813(7) 0.750000
H1 H 0.478934 0.826739 0.750001
C6 C 0.5108(5) 0.8811(5) 0.4972(13)
O1 O 0.5458(4) 0.9181(4) 0.3989(9)
O2 O 0.4568(4) 0.8104(3) 0.5024(9)
C7 C 0.5356(4) 0.9220(5) 0.8673(13)
O4 O 0.4568(4) 0.8104(3) 0.9976(9)
N5 N 0.4947(9) 0.7475(5) 0.250000
N6 N 0.3775(5) 0.8229(5) 0.250000
C9_2 C 0.1189(5) 0.6297(7) 0.0028(13)
O3_2 O 0.0819(4) 0.6277(6) 0.1011(9)
Ni2_2 Ni 0.15192(8) 0.64228(12) 0.250000
C1_2 C 0.0780(5) 0.6136(6) 0.6327(13)
C2_2 C 0.1187(7) 0.6301(11) 0.750000
H1_2 H 0.173261 0.652195 0.750001
C6_2 C 0.1189(5) 0.6297(7) 0.4972(13)
O1_2 O 0.0819(4) 0.6277(6) 0.3989(9)
O2_2 O 0.1896(3) 0.6464(5) 0.5024(9)
C7_2 C 0.0780(5) 0.6136(6) 0.8673(13)
O4_2 O 0.1896(3) 0.6464(5) 0.9976(9)
N5_2 N 0.2525(5) 0.7472(10) 0.250000
N6_2 N 0.1771(5) 0.5546(7) 0.250000
C3_2 C 0.9933(4) 0.5800(6) 0.6407(11)
H2_2 H 0.965496 0.571074 0.561159
C4_2 C 0.9538(8) 0.5615(10) 0.750000
C5_2 C 0.8672(10) 0.5229(12) 0.750000
N1_2 N 0.7483(7) 0.4314(9) 0.750000
N2_2 N 0.7472(7) 0.4947(9) 0.750000
N3_2 N 0.8224(8) 0.5553(10) 0.750000
N4_2 N 0.8229(5) 0.4454(7) 0.750000
C8_2 C 0.9933(4) 0.5800(6) 0.8593(11)
H3_2 H 0.965496 0.571074 0.938841
Ni4_2 Ni 0.64228(12) 0.49036(14) 0.750000
C9_3 C 0.3703(7) 0.4892(5) 0.0028(13)
O3_3 O 0.3723(6) 0.4542(4) 0.1011(9)
Ni2_3 Ni 0.35772(12) 0.50964(9) 0.250000
C1_3 C 0.3864(6) 0.4644(4) 0.6327(13)
C2_3 C 0.3699(11) 0.4886(8) 0.750000
H1_3 H 0.347805 0.521066 0.750001
C3_3 C 0.4200(6) 0.4133(5) 0.6407(11)
H2_3 H 0.428926 0.394422 0.561159
C4_3 C 0.4385(10) 0.3923(6) 0.750000
C5_3 C 0.4771(12) 0.3443(7) 0.750000
C6_3 C 0.3703(7) 0.4892(5) 0.4972(13)
N1_3 N 0.5686(9) 0.3169(5) 0.750000
N2_3 N 0.5053(9) 0.2525(5) 0.750000
N3_3 N 0.4447(10) 0.2671(6) 0.750000
N4_3 N 0.5546(7) 0.3775(5) 0.750000
O1_3 O 0.3723(6) 0.4542(4) 0.3989(9)
O2_3 O 0.3536(5) 0.5432(4) 0.5024(9)
C7_3 C 0.3864(6) 0.4644(4) 0.8673(13)
C8_3 C 0.4200(6) 0.4133(5) 0.8593(11)
H3_3 H 0.428926 0.394422 0.938841
O4_3 O 0.3536(5) 0.5432(4) 0.9976(9)
N5_3 N 0.2528(10) 0.5053(9) 0.250000
N6_3 N 0.4454(7) 0.6225(5) 0.250000
C1_4 C 0.4644(4) 0.0780(5) 0.1327(13)
C2_4 C 0.4886(8) 0.1187(7) 0.250000
H1_4 H 0.521066 0.173261 0.250001
O2_4 O 0.5432(4) 0.1896(3) 0.0024(9)
C7_4 C 0.4644(4) 0.0780(5) 0.3673(13)
C9_4 C 0.4892(5) 0.1189(5) 0.5028(13)
O3_4 O 0.4542(4) 0.0819(4) 0.6011(9)
O4_4 O 0.5432(4) 0.1896(3) 0.4976(9)
C6_4 C 0.4892(5) 0.1189(5) 0.9972(13)
O1_4 O 0.4542(4) 0.0819(4) 0.8989(9)
C3_4 C 0.4133(5) 0.9933(4) 0.1407(11)
H2_4 H 0.394422 0.965496 0.061159
C4_4 C 0.3923(6) 0.9538(8) 0.250000
C5_4 C 0.3443(7) 0.8672(10) 0.250000
N1_4 N 0.3169(5) 0.7483(7) 0.250000
N3_4 N 0.2671(6) 0.8224(8) 0.250000
C8_4 C 0.4133(5) 0.9933(4) 0.3593(11)
H3_4 H 0.394422 0.965496 0.438841
C3_5 C 0.0067(4) 0.4200(6) 0.1407(11)
H2_5 H 0.034504 0.428926 0.061159
C4_5 C 0.0462(8) 0.4385(10) 0.250000
C5_5 C 0.1328(10) 0.4771(12) 0.250000
N1_5 N 0.2517(7) 0.5686(9) 0.250000
N3_5 N 0.1776(8) 0.4447(10) 0.250000
C8_5 C 0.0067(4) 0.4200(6) 0.3593(11)
H3_5 H 0.034504 0.428926 0.438841
C1_5 C 0.9220(5) 0.3864(6) 0.1327(13)
C2_5 C 0.8813(7) 0.3699(11) 0.250000
H1_5 H 0.826739 0.347805 0.250001
O2_5 O 0.8104(3) 0.3536(5) 0.0024(9)
C7_5 C 0.9220(5) 0.3864(6) 0.3673(13)
C9_5 C 0.8811(5) 0.3703(7) 0.5028(13)
O3_5 O 0.9181(4) 0.3723(6) 0.6011(9)
O4_5 O 0.8104(3) 0.3536(5) 0.4976(9)
C6_5 C 0.8811(5) 0.3703(7) 0.9972(13)
O1_5 O 0.9181(4) 0.3723(6) 0.8989(9)
C1_6 C 0.6136(6) 0.5356(4) 0.1327(13)
C2_6 C 0.6301(11) 0.5114(8) 0.250000
H1_6 H 0.652195 0.478934 0.250001
C3_6 C 0.5800(6) 0.5867(5) 0.1407(11)
H2_6 H 0.571074 0.605578 0.061159
C4_6 C 0.5615(10) 0.6077(6) 0.250000
C5_6 C 0.5229(12) 0.6557(7) 0.250000
N1_6 N 0.4314(9) 0.6831(5) 0.250000
N3_6 N 0.5553(10) 0.7329(6) 0.250000
O2_6 O 0.6464(5) 0.4568(4) 0.0024(9)
C7_6 C 0.6136(6) 0.5356(4) 0.3673(13)
C8_6 C 0.5800(6) 0.5867(5) 0.3593(11)
H3_6 H 0.571074 0.605578 0.438841
C9_6 C 0.6297(7) 0.5108(5) 0.5028(13)
O3_6 O 0.6277(6) 0.5458(4) 0.6011(9)
O4_6 O 0.6464(5) 0.4568(4) 0.4976(9)
C6_6 C 0.6297(7) 0.5108(5) 0.9972(13)
O1_6 O 0.6277(6) 0.5458(4) 0.8989(9)
K1 K 0.333333 0.666667 0.5128(5)
K1_2 K 0.666667 0.333333 0.0128(5)
K1_3 K 0.666667 0.333333 0.4872(5)
K1_4 K 0.333333 0.666667 0.9872(5)
loop_
_geom_bond_atom_site_label_1
_geom_bond_atom_site_label_2
_geom_bond_site_symmetry_1
_geom_bond_site_symmetry_2
H2 C3 1_555 1_555
C4 C3 1_555 1_555
C5 C4 1_555 1_555
N1 N2 1_555 1_555
N2 N3 1_555 1_555
N3 C5 1_555 1_555
N4 C5 1_555 1_555
C8 C4 1_555 1_555
H3 C8 1_555 1_555
Ni3 N4 1_555 1_555
Ni4 N2 1_555 1_555
N1 N4 1_555 1_555
O3 C9 1_555 1_555
Ni2 O3 1_555 1_555
C1 C2 1_555 1_555
C2 H1 1_555 1_555
C6 C1 1_555 1_555
Ni2 O1 1_555 1_555
O1 C6 1_555 1_555
O2 C6 1_555 1_555
C7 C2 1_555 1_555
N5 Ni2 1_555 1_555
N6 Ni2 1_555 1_555
Ni2 O2 1_555 1_555
O3_2 C9_2 1_555 1_555
Ni2_2 O3_2 1_555 1_555
C1_2 C2_2 1_555 1_555
C2_2 H1_2 1_555 1_555
C6_2 C1_2 1_555 1_555
Ni2_2 O1_2 1_555 1_555
O1_2 C6_2 1_555 1_555
O2_2 C6_2 1_555 1_555
C7_2 C2_2 1_555 1_555
N5_2 Ni2_2 1_555 1_555
N6_2 Ni2_2 1_555 1_555
Ni2_2 O2_2 1_555 1_555
H2_2 C3_2 1_555 1_555
C4_2 C3_2 1_555 1_555
C5_2 C4_2 1_555 1_555
N1_2 N2_2 1_555 1_555
N2_2 N3_2 1_555 1_555
N3_2 C5_2 1_555 1_555
N4_2 C5_2 1_555 1_555
C8_2 C4_2 1_555 1_555
H3_2 C8_2 1_555 1_555
Ni4 N4_2 1_555 1_555
Ni4_2 N2_2 1_555 1_555
N1_2 N4_2 1_555 1_555
O3_3 C9_3 1_555 1_555
Ni2_3 O3_3 1_555 1_555
C1_3 C2_3 1_555 1_555
C2_3 H1_3 1_555 1_555
C3_3 C1_3 1_555 1_555
H2_3 C3_3 1_555 1_555
C4_3 C3_3 1_555 1_555
C5_3 C4_3 1_555 1_555
C6_3 C1_3 1_555 1_555
Ni2_3 O1_3 1_555 1_555
N1_3 N2_3 1_555 1_555
N2_3 N3_3 1_555 1_555
N3_3 C5_3 1_555 1_555
N4_3 C5_3 1_555 1_555
O1_3 C6_3 1_555 1_555
O2_3 C6_3 1_555 1_555
C7_3 C2_3 1_555 1_555
C8_3 C4_3 1_555 1_555
H3_3 C8_3 1_555 1_555
Ni4_2 N4_3 1_555 1_555
Ni3 N2_3 1_555 1_555
N5_3 Ni2_3 1_555 1_555
N6_3 Ni2_3 1_555 1_555
Ni2_3 O2_3 1_555 1_555
N1_3 N4_3 1_555 1_555
C7_3 C8_3 1_555 1_555
C1_4 C2_4 1_555 1_555
C2_4 H1_4 1_555 1_555
C7_4 C2_4 1_555 1_555
C9_4 C7_4 1_555 1_555
O3_4 C9_4 1_555 1_555
O4_4 C9_4 1_555 1_555
Ni3 O3_4 1_555 1_555
O4_4 Ni3 1_555 1_555
Ni3 O1_4 1_555 1_555
O1_4 C6_4 1_555 1_555
H2_4 C3_4 1_555 1_555
C4_4 C3_4 1_555 1_555
C5_4 C4_4 1_555 1_555
N1_4 N5_2 1_555 1_555
N5_2 N3_4 1_555 1_555
N3_4 C5_4 1_555 1_555
N6 C5_4 1_555 1_555
C8_4 C4_4 1_555 1_555
H3_4 C8_4 1_555 1_555
N1_4 N6 1_555 1_555
H2_5 C3_5 1_555 1_555
C4_5 C3_5 1_555 1_555
C5_5 C4_5 1_555 1_555
N1_5 N5_3 1_555 1_555
N5_3 N3_5 1_555 1_555
N3_5 C5_5 1_555 1_555
N6_2 C5_5 1_555 1_555
C8_5 C4_5 1_555 1_555
H3_5 C8_5 1_555 1_555
N1_5 N6_2 1_555 1_555
C1_5 C2_5 1_555 1_555
C2_5 H1_5 1_555 1_555
C7_5 C2_5 1_555 1_555
C9_5 C7_5 1_555 1_555
O3_5 C9_5 1_555 1_555
O4_5 C9_5 1_555 1_555
Ni4 O3_5 1_555 1_555
O4_5 Ni4 1_555 1_555
Ni4 O1_5 1_555 1_555
O1_5 C6_5 1_555 1_555
C1_6 C2_6 1_555 1_555
C2_6 H1_6 1_555 1_555
C3_6 C1_6 1_555 1_555
H2_6 C3_6 1_555 1_555
C4_6 C3_6 1_555 1_555
C5_6 C4_6 1_555 1_555
N1_6 N5 1_555 1_555
N5 N3_6 1_555 1_555
N3_6 C5_6 1_555 1_555
N6_3 C5_6 1_555 1_555
C7_6 C2_6 1_555 1_555
C8_6 C4_6 1_555 1_555
H3_6 C8_6 1_555 1_555
C9_6 C7_6 1_555 1_555
O3_6 C9_6 1_555 1_555
O4_6 C9_6 1_555 1_555
Ni4_2 O3_6 1_555 1_555
N1_6 N6_3 1_555 1_555
C7_6 C8_6 1_555 1_555
O4_6 Ni4_2 1_555 1_555
Ni4_2 O1_6 1_555 1_555
O1_6 C6_6 1_555 1_555

#END
