
###############################################################################
#
# This file contains modified crystal structure data generated from the
# MOF subset of the Cambridge Structural Database (CSD) v543 
# hosted by the Cambridge Crystallographic Data Centre (CCDC).
#
# This work is licensed under the Creative Commons
# Attribution-NonCommercial-ShareAlike 4.0 International License.
# To view a copy of this license, visit
# http://creativecommons.org/licenses/by-nc-sa/4.0/
# or send a letter to
# Creative Commons, PO Box 1866, Mountain View, CA 94042, USA.
#
# CIF created using the CSD Python API on 29 September 2022
# The structure has been converted into the P1 space group
# The structure has a 3D framework
# The original CSD entry UJAQAY is in the monoclinic crystal system
# The framework has been calculated to contain at least 10.0% void space
# The void calculation uses a probe of radius 1.32A, grid spacing 0.4
# H atom positions have been added when not included in the experimental data
#
###############################################################################

data_UJAQAY
_chemical_formula_moiety         '(C160 H120 Mn14 N8 O88)n'
_symmetry_cell_setting           triclinic
_symmetry_space_group_name_H-M   'P 1'
_symmetry_Int_Tables_number      1
_space_group_name_Hall           'P 1'
loop_
_symmetry_equiv_pos_site_id
_symmetry_equiv_pos_as_xyz
1 x,y,z
_cell_length_a                   28.0246(6)
_cell_length_b                   12.3747(3)
_cell_length_c                   14.1946(3)
_cell_angle_alpha                90
_cell_angle_beta                 109.4888(11)
_cell_angle_gamma                90
_cell_volume                     4640.6
loop_
_atom_site_label
_atom_site_type_symbol
_atom_site_fract_x
_atom_site_fract_y
_atom_site_fract_z
Mn9 Mn 0.37603(2) 0.39400(4) 0.00360(4)
Mn13 Mn 0.2500 0.2500 -0.0000
N1 N 0.08487(17) 0.0327(3) 0.0979(4)
C19 C 0.05233(16) 0.0395(3) 0.1392(3)
C20 C 0.0240(4) 0.0304(9) 0.2015(8)
Mn7 Mn 0.62397(2) 0.39400(4) 0.49640(4)
Mn13_2 Mn 0.2500 0.2500 1.0000
O12 O 0.37829(9) 0.3309(2) 0.14066(18)
O13 O 0.31395(9) 0.21970(18) 0.13413(17)
C21 C 0.35719(13) 0.2576(2) 0.1756(2)
C22 C 0.38798(12) 0.2145(2) 0.2769(2)
C23 C 0.43812(12) 0.2491(3) 0.3217(2)
H13 H 0.4525 0.2998 0.2887
C24 C 0.46659(12) 0.2085(3) 0.4147(2)
C25 C 0.51983(13) 0.2449(3) 0.4628(3)
O14 O 0.54444(9) 0.19089(18) 0.54341(16)
H14 H 0.5818 0.2077 0.5583
O15 O 0.53863(10) 0.3180(2) 0.4302(2)
O17 O 0.46137(10) 0.3180(2) 0.0698(2)
C26 C 0.44577(12) 0.1332(2) 0.4642(2)
H15 H 0.4652 0.1066 0.5284
C27 C 0.39668(12) 0.0984(2) 0.4180(2)
C28 C 0.36757(13) 0.1389(2) 0.3253(2)
H16 H 0.3337 0.1150 0.2950
O18 O 0.37332(9) 0.02205(17) 0.45891(15)
O19 O 0.39967(8) 0.06273(18) 0.62914(16)
C30 C 0.35609(12) 0.0707(2) 0.6545(2)
C31 C 0.31083(12) 0.0221(2) 0.6012(2)
C32 C 0.26997(12) 0.0298(2) 0.6359(2)
O21 O 0.22054(9) 0.08871(17) 0.00810(18)
O24 O 0.18450(9) 0.01998(19) 0.11100(19)
C34 C 0.27427(12) 0.0872(2) 0.7229(2)
H20 H 0.2464 0.0920 0.7465
C35 C 0.31988(12) 0.1374(2) 0.7744(2)
C36 C 0.32370(12) 0.1973(2) 0.8689(2)
O26 O 0.36406(8) 0.25096(17) 0.91197(15)
O27 O 0.13594(8) 0.24904(17) 0.08803(15)
O29 O 0.28750(9) 0.1911(2) 0.90025(18)
O30 O 0.21250(9) 0.3089(2) 0.09975(18)
C37 C 0.36059(12) 0.1296(2) 0.7408(2)
H21 H 0.3916 0.1644 0.7763
O32 O 0.38880(13) 0.5463(2) 0.08835(18)
C38 C 0.3894(2) 0.6520(3) 0.0465(4)
H22 H 0.3546 0.6756 0.0114
H23 H 0.4058 0.7032 0.1002
H25 H 0.0460775 0.058937 0.275862
Mn1 Mn 0.12397(2) 0.10600(4) 0.99640(4)
O1 O 0.12171(9) 0.1691(2) 0.85934(18)
O2 O 0.18605(9) 0.28030(18) 0.86587(17)
C1 C 0.14281(13) 0.2424(2) 0.8244(2)
C2 C 0.11202(12) 0.2855(2) 0.7231(2)
C3 C 0.06188(12) 0.2509(3) 0.6783(2)
H1 H 0.0475 0.2002 0.7113
C4 C 0.03341(12) 0.2915(3) 0.5853(2)
C6 C 0.05423(12) 0.3668(2) 0.5358(2)
H3 H 0.0348 0.3934 0.4716
C7 C 0.10332(12) 0.4016(2) 0.5820(2)
C8 C 0.13243(13) 0.3611(2) 0.6747(2)
H4 H 0.1663 0.3850 0.7050
O5 O 0.12668(9) 0.47795(17) 0.54109(15)
C9 C 0.10088(14) 0.5149(2) 0.4436(2)
H5 H 0.1174 0.5815 0.4311
H6 H 0.0656 0.5333 0.4377
O6 O 0.10033(8) 0.43727(18) 0.37086(16)
C10 C 0.14391(12) 0.4293(2) 0.3455(2)
C11 C 0.18917(12) 0.4779(2) 0.3988(2)
H7 H 0.1924 0.5163 0.4586
C12 C 0.23003(12) 0.4702(2) 0.3641(2)
C13 C 0.27824(13) 0.5299(3) 0.4187(3)
O7 O 0.27946(9) 0.58871(17) 0.49190(18)
O8 O 0.31550(9) 0.51998(19) 0.38900(19)
C14 C 0.22573(12) 0.4128(2) 0.2771(2)
H8 H 0.2536 0.4080 0.2535
C15 C 0.18012(12) 0.3626(2) 0.2256(2)
C16 C 0.17630(12) 0.3027(2) 0.1311(2)
C17 C 0.13941(12) 0.3704(2) 0.2592(2)
H9 H 0.1084 0.3356 0.2237
Mn5 Mn 0.37603(2) 0.60600(4) 0.50360(4)
Mn10 Mn 0.2500 0.7500 0.5000
O16 O 0.03863(10) 0.1820(2) 0.9302(2)
O22 O 0.27946(9) 0.41129(17) 0.99190(18)
O25 O 0.31550(9) 0.48002(19) 0.88900(19)
H24 H 0.4082 0.6493 0.9994
N2 N 0.41513(17) 0.4673(3) 0.9021(4)
C39 C 0.44767(16) 0.4605(3) 0.8608(3)
C40 C 0.4760(4) 0.4696(9) 0.7985(8)
H28 H 0.486303 0.553881 0.794355
H29 H 0.510194 0.421058 0.827704
H30 H 0.453923 0.441063 0.724138
H12 H 0.0918 0.8507 0.0006
Mn8 Mn 0.12397(2) 0.89400(4) 0.49640(4)
C29 C 0.39912(14) 0.9851(2) 0.5564(2)
H17 H 0.3826 0.9185 0.5689
H18 H 0.4344 0.9667 0.5623
H19 H 0.3076 0.9837 0.5414
C33 C 0.22176(13) 0.9701(3) 0.5813(3)
O20 O 0.22054(9) 0.91129(17) 0.50810(18)
O23 O 0.18450(9) 0.98002(19) 0.61100(19)
H27 H 0.0136966 0.946119 0.205645
C5 C 0.98017(13) 0.2551(3) 0.5372(3)
O3 O 0.95556(9) 0.30911(18) 0.45659(16)
H2 H 0.9182 0.2923 0.4417
O4 O 0.96137(10) 0.1820(2) 0.5698(2)
Mn4 Mn 0.87603(2) 0.10600(4) 0.50360(4)
C5_2 C 0.01983(13) 0.2551(3) 0.9628(3)
H26 H 0.0101943 0.0789422 0.327704
H3_2 H 0.9652 0.3934 0.0284
C9_2 C 0.89912(14) 0.5149(2) 0.0564(2)
H5_2 H 0.8826 0.5815 0.0689
H6_2 H 0.9344 0.5333 0.0623
O6_2 O 0.89967(8) 0.43727(18) 0.12914(16)
C10_2 C 0.85609(12) 0.4293(2) 0.1545(2)
C11_2 C 0.81083(12) 0.4779(2) 0.1012(2)
H7_2 H 0.8076 0.5163 0.0414
C12_2 C 0.76997(12) 0.4702(2) 0.1359(2)
C13_2 C 0.72176(13) 0.5299(3) 0.0813(3)
O7_2 O 0.72054(9) 0.58871(17) 0.00810(18)
O8_2 O 0.68450(9) 0.51998(19) 0.11100(19)
C14_2 C 0.77427(12) 0.4128(2) 0.2229(2)
H8_2 H 0.7464 0.4080 0.2465
C15_2 C 0.81988(12) 0.3626(2) 0.2744(2)
C16_2 C 0.82370(12) 0.3027(2) 0.3689(2)
O9 O 0.86406(8) 0.24904(17) 0.41197(15)
O10 O 0.78750(9) 0.3089(2) 0.40025(18)
C17_2 C 0.86059(12) 0.3704(2) 0.2408(2)
H9_2 H 0.8916 0.3356 0.2763
Mn10_2 Mn 0.7500 0.7500 0.0000
Mn11 Mn 0.7500 0.2500 0.5000
O1_2 O 0.87829(9) 0.1691(2) 0.64066(18)
O2_2 O 0.81395(9) 0.28030(18) 0.63413(17)
C1_2 C 0.85719(13) 0.2424(2) 0.6756(2)
C2_2 C 0.88798(12) 0.2855(2) 0.7769(2)
C3_2 C 0.93812(12) 0.2509(3) 0.8217(2)
H1_2 H 0.9525 0.2002 0.7887
C4_2 C 0.96659(12) 0.2915(3) 0.9147(2)
C6_2 C 0.94577(12) 0.3668(2) 0.9642(2)
C7_2 C 0.89668(12) 0.4016(2) 0.9180(2)
C8_2 C 0.86757(13) 0.3611(2) 0.8253(2)
H4_2 H 0.8337 0.3850 0.7950
O5_2 O 0.87332(9) 0.47795(17) 0.95891(15)
N1_2 N 0.91513(17) 0.0327(3) 0.4021(4)
C19_2 C 0.94767(16) 0.0395(3) 0.3608(3)
C20_2 C 0.9760(4) 0.0304(9) 0.2985(8)
Mn5_2 Mn 0.62397(2) 0.60600(4) 0.99640(4)
Mn10_3 Mn 0.7500 0.7500 1.0000
O12_2 O 0.62171(9) 0.3309(2) 0.35934(18)
O13_2 O 0.68605(9) 0.21970(18) 0.36587(17)
C21_2 C 0.64281(13) 0.2576(2) 0.3244(2)
C22_2 C 0.61202(12) 0.2145(2) 0.2231(2)
C23_2 C 0.56188(12) 0.2491(3) 0.1783(2)
H13_2 H 0.5475 0.2998 0.2113
C24_2 C 0.53341(12) 0.2085(3) 0.0853(2)
C25_2 C 0.48017(13) 0.2449(3) 0.0372(3)
C26_2 C 0.55423(12) 0.1332(2) 0.0358(2)
C27_2 C 0.60332(12) 0.0984(2) 0.0820(2)
C28_2 C 0.63243(13) 0.1389(2) 0.1747(2)
H16_2 H 0.6663 0.1150 0.2050
O18_2 O 0.62668(9) 0.02205(17) 0.04109(15)
O21_2 O 0.77946(9) 0.08871(17) 0.49190(18)
O22_2 O 0.72054(9) 0.41129(17) 0.50810(18)
O24_2 O 0.81550(9) 0.01998(19) 0.38900(19)
O25_2 O 0.68450(9) 0.48002(19) 0.61100(19)
O28 O 0.63594(8) 0.25096(17) 0.58803(15)
O31 O 0.71250(9) 0.1911(2) 0.59975(18)
O32_2 O 0.61120(13) 0.5463(2) 0.41165(18)
C38_2 C 0.6106(2) 0.6520(3) 0.4535(4)
H22_2 H 0.6454 0.6756 0.4886
H23_2 H 0.5942 0.7032 0.3998
H24_2 H 0.5918 0.6493 0.5006
N2_2 N 0.58487(17) 0.4673(3) 0.5979(4)
C39_2 C 0.55233(16) 0.4605(3) 0.6392(3)
C40_2 C 0.5240(4) 0.4696(9) 0.7015(8)
H25_2 H 0.953923 0.058937 0.224138
H28_2 H 0.513697 0.553881 0.705645
H29_2 H 0.489806 0.421058 0.672296
H30_2 H 0.546077 0.441063 0.775862
O14_2 O 0.45556(9) 0.19089(18) 0.95659(16)
H14_2 H 0.4182 0.2077 0.9417
H15_2 H 0.5348 0.1066 0.9716
O19_2 O 0.60033(8) 0.06273(18) 0.87086(16)
C30_2 C 0.64391(12) 0.0707(2) 0.8455(2)
C31_2 C 0.68917(12) 0.0221(2) 0.8988(2)
C32_2 C 0.73003(12) 0.0298(2) 0.8641(2)
C34_2 C 0.72573(12) 0.0872(2) 0.7771(2)
H20_2 H 0.7536 0.0920 0.7535
C35_2 C 0.68012(12) 0.1374(2) 0.7256(2)
C36_2 C 0.67630(12) 0.1973(2) 0.6311(2)
C37_2 C 0.63941(12) 0.1296(2) 0.7592(2)
H21_2 H 0.6084 0.1644 0.7237
O11 O 0.88880(13) 0.9537(2) 0.58835(18)
C18 C 0.8894(2) 0.8480(3) 0.5465(4)
H10 H 0.8546 0.8244 0.5114
H11 H 0.9058 0.7968 0.6002
H12_2 H 0.9082 0.8507 0.4994
Mn8_2 Mn 0.87603(2) 0.89400(4) 0.00360(4)
H27_2 H 0.986303 0.946119 0.294355
C29_2 C 0.60088(14) 0.9851(2) 0.9436(2)
H17_2 H 0.6174 0.9185 0.9311
H18_2 H 0.5656 0.9667 0.9377
H19_2 H 0.6924 0.9837 0.9586
C33_2 C 0.77824(13) 0.9701(3) 0.9187(3)
O20_2 O 0.77946(9) 0.91129(17) 0.99190(18)
O23_2 O 0.81550(9) 0.98002(19) 0.88900(19)
C25_3 C 0.01983(13) 0.7449(3) 0.4628(3)
O14_3 O 0.04444(9) 0.69089(18) 0.54341(16)
H14_3 H 0.0818 0.7077 0.5583
O15_2 O 0.03863(10) 0.8180(2) 0.4302(2)
C9_3 C 0.60088(14) 0.0149(2) 0.4436(2)
H5_3 H 0.6174 0.0815 0.4311
H6_3 H 0.5656 0.0333 0.4377
H7_3 H 0.6924 0.0163 0.4586
C13_3 C 0.77824(13) 0.0299(3) 0.4187(3)
H24_3 H 0.9082 0.1493 0.9994
H28_3 H 0.986303 0.0538809 0.794355
H12_3 H 0.5918 0.3507 0.0006
N1_3 N 0.58487(17) 0.5327(3) 0.0979(4)
C19_3 C 0.55233(16) 0.5395(3) 0.1392(3)
C20_3 C 0.5240(4) 0.5304(9) 0.2015(8)
O12_3 O 0.87829(9) 0.8309(2) 0.14066(18)
O13_3 O 0.81395(9) 0.71970(18) 0.13413(17)
C21_3 C 0.85719(13) 0.7576(2) 0.1756(2)
C22_3 C 0.88798(12) 0.7145(2) 0.2769(2)
C23_3 C 0.93812(12) 0.7491(3) 0.3217(2)
H13_3 H 0.9525 0.7998 0.2887
C24_3 C 0.96659(12) 0.7085(3) 0.4147(2)
O17_2 O 0.96137(10) 0.8180(2) 0.0698(2)
C26_3 C 0.94577(12) 0.6332(2) 0.4642(2)
H15_3 H 0.9652 0.6066 0.5284
C27_3 C 0.89668(12) 0.5984(2) 0.4180(2)
C28_3 C 0.86757(13) 0.6389(2) 0.3253(2)
H16_3 H 0.8337 0.6150 0.2950
O18_3 O 0.87332(9) 0.52205(17) 0.45891(15)
C29_3 C 0.89912(14) 0.4851(2) 0.5564(2)
H17_3 H 0.8826 0.4185 0.5689
H18_3 H 0.9344 0.4667 0.5623
O19_3 O 0.89967(8) 0.56273(18) 0.62914(16)
C30_3 C 0.85609(12) 0.5707(2) 0.6545(2)
C31_3 C 0.81083(12) 0.5221(2) 0.6012(2)
H19_3 H 0.8076 0.4837 0.5414
C32_3 C 0.76997(12) 0.5298(2) 0.6359(2)
C33_3 C 0.72176(13) 0.4701(3) 0.5813(3)
C34_3 C 0.77427(12) 0.5872(2) 0.7229(2)
H20_3 H 0.7464 0.5920 0.7465
C35_3 C 0.81988(12) 0.6374(2) 0.7744(2)
C36_3 C 0.82370(12) 0.6973(2) 0.8689(2)
O26_2 O 0.86406(8) 0.75096(17) 0.91197(15)
O27_2 O 0.63594(8) 0.74904(17) 0.08803(15)
O29_2 O 0.78750(9) 0.6911(2) 0.90025(18)
O30_2 O 0.71250(9) 0.8089(2) 0.09975(18)
C37_3 C 0.86059(12) 0.6296(2) 0.7408(2)
H21_3 H 0.8916 0.6644 0.7763
H25_3 H 0.546077 0.558937 0.275862
H26_2 H 0.489806 0.578942 0.172296
H27_3 H 0.513697 0.446119 0.205645
O1_3 O 0.62171(9) 0.6691(2) 0.85934(18)
O2_3 O 0.68605(9) 0.78030(18) 0.86587(17)
C1_3 C 0.64281(13) 0.7424(2) 0.8244(2)
C2_3 C 0.61202(12) 0.7855(2) 0.7231(2)
C3_3 C 0.56188(12) 0.7509(3) 0.6783(2)
H1_3 H 0.5475 0.7002 0.7113
C4_3 C 0.53341(12) 0.7915(3) 0.5853(2)
C5_3 C 0.48017(13) 0.7551(3) 0.5372(3)
O3_2 O 0.45556(9) 0.80911(18) 0.45659(16)
H2_2 H 0.4182 0.7923 0.4417
O4_2 O 0.46137(10) 0.6820(2) 0.5698(2)
C6_3 C 0.55423(12) 0.8668(2) 0.5358(2)
H3_3 H 0.5348 0.8934 0.4716
C7_3 C 0.60332(12) 0.9016(2) 0.5820(2)
C8_3 C 0.63243(13) 0.8611(2) 0.6747(2)
H4_3 H 0.6663 0.8850 0.7050
O5_3 O 0.62668(9) 0.97795(17) 0.54109(15)
O6_3 O 0.60033(8) 0.93727(18) 0.37086(16)
C10_3 C 0.64391(12) 0.9293(2) 0.3455(2)
C11_3 C 0.68917(12) 0.9779(2) 0.3988(2)
C12_3 C 0.73003(12) 0.9702(2) 0.3641(2)
C14_3 C 0.72573(12) 0.9128(2) 0.2771(2)
H8_3 H 0.7536 0.9080 0.2535
C15_3 C 0.68012(12) 0.8626(2) 0.2256(2)
C16_3 C 0.67630(12) 0.8027(2) 0.1311(2)
C17_3 C 0.63941(12) 0.8704(2) 0.2592(2)
H9_3 H 0.6084 0.8356 0.2237
O11_2 O 0.61120(13) 0.4537(2) 0.91165(18)
C18_2 C 0.6106(2) 0.3480(3) 0.9535(4)
H10_2 H 0.6454 0.3244 0.9886
H11_2 H 0.5942 0.2968 0.8998
O16_2 O 0.53863(10) 0.6820(2) 0.9302(2)
N2_3 N 0.91513(17) 0.9673(3) 0.9021(4)
C39_3 C 0.94767(16) 0.9605(3) 0.8608(3)
C40_3 C 0.9760(4) 0.9696(9) 0.7985(8)
H30_3 H 0.953923 0.941063 0.724138
C9_4 C 0.39912(14) 0.0149(2) 0.0564(2)
H5_4 H 0.3826 0.0815 0.0689
H6_4 H 0.4344 0.0333 0.0623
H7_4 H 0.3076 0.0163 0.0414
C13_4 C 0.22176(13) 0.0299(3) 0.0813(3)
O32_3 O 0.11120(13) 0.0463(2) 0.41165(18)
C38_3 C 0.1106(2) 0.1520(3) 0.4535(4)
H22_3 H 0.1454 0.1756 0.4886
H23_3 H 0.0942 0.2032 0.3998
H24_4 H 0.0918 0.1493 0.5006
H28_4 H 0.0136966 0.0538809 0.705645
O3_3 O 0.54444(9) 0.80911(18) 0.04341(16)
H2_3 H 0.5818 0.7923 0.0583
H3_4 H 0.4652 0.8934 0.0284
O6_4 O 0.39967(8) 0.93727(18) 0.12914(16)
C10_4 C 0.35609(12) 0.9293(2) 0.1545(2)
C11_4 C 0.31083(12) 0.9779(2) 0.1012(2)
C12_4 C 0.26997(12) 0.9702(2) 0.1359(2)
C14_4 C 0.27427(12) 0.9128(2) 0.2229(2)
H8_4 H 0.2464 0.9080 0.2465
C15_4 C 0.31988(12) 0.8626(2) 0.2744(2)
C16_4 C 0.32370(12) 0.8027(2) 0.3689(2)
O9_2 O 0.36406(8) 0.74904(17) 0.41197(15)
O10_2 O 0.28750(9) 0.8089(2) 0.40025(18)
C17_4 C 0.36059(12) 0.8704(2) 0.2408(2)
H9_4 H 0.3916 0.8356 0.2763
O1_4 O 0.37829(9) 0.6691(2) 0.64066(18)
O2_4 O 0.31395(9) 0.78030(18) 0.63413(17)
C1_4 C 0.35719(13) 0.7424(2) 0.6756(2)
C2_4 C 0.38798(12) 0.7855(2) 0.7769(2)
C3_4 C 0.43812(12) 0.7509(3) 0.8217(2)
H1_4 H 0.4525 0.7002 0.7887
C4_4 C 0.46659(12) 0.7915(3) 0.9147(2)
C5_4 C 0.51983(13) 0.7551(3) 0.9628(3)
C6_4 C 0.44577(12) 0.8668(2) 0.9642(2)
C7_4 C 0.39668(12) 0.9016(2) 0.9180(2)
C8_4 C 0.36757(13) 0.8611(2) 0.8253(2)
H4_4 H 0.3337 0.8850 0.7950
O5_4 O 0.37332(9) 0.97795(17) 0.95891(15)
O11_3 O 0.38880(13) 0.4537(2) 0.58835(18)
C18_3 C 0.3894(2) 0.3480(3) 0.5465(4)
H10_3 H 0.3546 0.3244 0.5114
H11_3 H 0.4058 0.2968 0.6002
H12_4 H 0.4082 0.3507 0.4994
N1_4 N 0.41513(17) 0.5327(3) 0.4021(4)
C19_4 C 0.44767(16) 0.5395(3) 0.3608(3)
C20_4 C 0.4760(4) 0.5304(9) 0.2985(8)
O12_4 O 0.12171(9) 0.8309(2) 0.35934(18)
O13_4 O 0.18605(9) 0.71970(18) 0.36587(17)
C21_4 C 0.14281(13) 0.7576(2) 0.3244(2)
C22_4 C 0.11202(12) 0.7145(2) 0.2231(2)
C23_4 C 0.06188(12) 0.7491(3) 0.1783(2)
H13_4 H 0.0475 0.7998 0.2113
C24_4 C 0.03341(12) 0.7085(3) 0.0853(2)
C26_4 C 0.05423(12) 0.6332(2) 0.0358(2)
C27_4 C 0.10332(12) 0.5984(2) 0.0820(2)
C28_4 C 0.13243(13) 0.6389(2) 0.1747(2)
H16_4 H 0.1663 0.6150 0.2050
O18_4 O 0.12668(9) 0.52205(17) 0.04109(15)
O28_2 O 0.13594(8) 0.75096(17) 0.58803(15)
O31_2 O 0.21250(9) 0.6911(2) 0.59975(18)
N2_4 N 0.08487(17) 0.9673(3) 0.5979(4)
C39_4 C 0.05233(16) 0.9605(3) 0.6392(3)
C40_4 C 0.0240(4) 0.9696(9) 0.7015(8)
H25_4 H 0.453923 0.558937 0.224138
H26_3 H 0.510194 0.578942 0.327704
H27_4 H 0.486303 0.446119 0.294355
H30_4 H 0.0460775 0.941063 0.775862
H15_4 H 0.0348 0.6066 0.9716
C29_4 C 0.10088(14) 0.4851(2) 0.9436(2)
H17_4 H 0.1174 0.4185 0.9311
H18_4 H 0.0656 0.4667 0.9377
O19_4 O 0.10033(8) 0.56273(18) 0.87086(16)
C30_4 C 0.14391(12) 0.5707(2) 0.8455(2)
C31_4 C 0.18917(12) 0.5221(2) 0.8988(2)
H19_4 H 0.1924 0.4837 0.9586
C32_4 C 0.23003(12) 0.5298(2) 0.8641(2)
C33_4 C 0.27824(13) 0.4701(3) 0.9187(3)
C34_4 C 0.22573(12) 0.5872(2) 0.7771(2)
H20_4 H 0.2536 0.5920 0.7535
C35_4 C 0.18012(12) 0.6374(2) 0.7256(2)
C36_4 C 0.17630(12) 0.6973(2) 0.6311(2)
C37_4 C 0.13941(12) 0.6296(2) 0.7592(2)
H21_4 H 0.1084 0.6644 0.7237
C25_4 C 0.98017(13) 0.7449(3) 0.0372(3)
H29_3 H 0.989806 0.921058 0.672296
O11_4 O 0.11120(13) 0.9537(2) 0.91165(18)
C18_4 C 0.1106(2) 0.8480(3) 0.9535(4)
H10_4 H 0.1454 0.8244 0.9886
H11_4 H 0.0942 0.7968 0.8998
H26_4 H 0.989806 0.0789422 0.172296
O3_4 O 0.04444(9) 0.30911(18) 0.04341(16)
H2_4 H 0.0818 0.2923 0.0583
H29_4 H 0.0101943 0.921058 0.827704
O32_4 O 0.88880(13) 0.0463(2) 0.08835(18)
C38_4 C 0.8894(2) 0.1520(3) 0.0465(4)
H22_4 H 0.8546 0.1756 0.0114
H23_4 H 0.9058 0.2032 0.1002
O14_4 O 0.95556(9) 0.69089(18) 0.95659(16)
H14_4 H 0.9182 0.7077 0.9417
loop_
_geom_bond_atom_site_label_1
_geom_bond_atom_site_label_2
_geom_bond_site_symmetry_1
_geom_bond_site_symmetry_2
C19 N1 1_555 1_555
C20 C19 1_555 1_555
Mn9 O12 1_555 1_555
Mn7 O15 1_555 1_555
Mn13_2 O29 1_555 1_555
O12 C21 1_555 1_555
O13 Mn13 1_555 1_555
C21 O13 1_555 1_555
C22 C21 1_555 1_555
C23 C22 1_555 1_555
H13 C23 1_555 1_555
C24 C23 1_555 1_555
C25 C24 1_555 1_555
O14 C25 1_555 1_555
H14 O14 1_555 1_555
O15 C25 1_555 1_555
O17 Mn9 1_555 1_555
C26 C24 1_555 1_555
H15 C26 1_555 1_555
C27 C26 1_555 1_555
C28 C22 1_555 1_555
H16 C28 1_555 1_555
O18 C27 1_555 1_555
C30 O19 1_555 1_555
C31 C30 1_555 1_555
C32 C31 1_555 1_555
O21 Mn13 1_555 1_555
C34 C32 1_555 1_555
H20 C34 1_555 1_555
C35 C34 1_555 1_555
C36 C35 1_555 1_555
O26 C36 1_555 1_555
O29 C36 1_555 1_555
O30 Mn13 1_555 1_555
C37 C30 1_555 1_555
H21 C37 1_555 1_555
O32 Mn9 1_555 1_555
C38 O32 1_555 1_555
H22 C38 1_555 1_555
H23 C38 1_555 1_555
C27 C28 1_555 1_555
C35 C37 1_555 1_555
C20 H25 1_555 1_555
Mn1 O1 1_555 1_555
Mn13_2 O2 1_555 1_555
O1 C1 1_555 1_555
O2 C1 1_555 1_555
C1 C2 1_555 1_555
C2 C3 1_555 1_555
C3 H1 1_555 1_555
C4 C3 1_555 1_555
C6 C4 1_555 1_555
H3 C6 1_555 1_555
C7 C6 1_555 1_555
C8 C2 1_555 1_555
H4 C8 1_555 1_555
O5 C7 1_555 1_555
C9 O5 1_555 1_555
H5 C9 1_555 1_555
H6 C9 1_555 1_555
O6 C9 1_555 1_555
C10 O6 1_555 1_555
C11 C10 1_555 1_555
H7 C11 1_555 1_555
C12 C11 1_555 1_555
C13 C12 1_555 1_555
O7 C13 1_555 1_555
O8 C13 1_555 1_555
C14 C12 1_555 1_555
H8 C14 1_555 1_555
C15 C14 1_555 1_555
C16 C15 1_555 1_555
O27 C16 1_555 1_555
O30 C16 1_555 1_555
C17 C10 1_555 1_555
H9 C17 1_555 1_555
Mn5 O8 1_555 1_555
Mn10 O7 1_555 1_555
O16 Mn1 1_555 1_555
O22 Mn13_2 1_555 1_555
C39 N2 1_555 1_555
C40 C39 1_555 1_555
C7 C8 1_555 1_555
C15 C17 1_555 1_555
C40 H28 1_555 1_555
C40 H29 1_555 1_555
C40 H30 1_555 1_555
Mn8 O23 1_555 1_555
Mn10 O20 1_555 1_555
H17 C29 1_555 1_555
H18 C29 1_555 1_555
O20 C33 1_555 1_555
O23 C33 1_555 1_555
O3 C5 1_555 1_555
H2 O3 1_555 1_555
O4 C5 1_555 1_555
Mn4 O4 1_555 1_555
O16 C5_2 1_555 1_555
H5_2 C9_2 1_555 1_555
H6_2 C9_2 1_555 1_555
O6_2 C9_2 1_555 1_555
C10_2 O6_2 1_555 1_555
C11_2 C10_2 1_555 1_555
H7_2 C11_2 1_555 1_555
C12_2 C11_2 1_555 1_555
C13_2 C12_2 1_555 1_555
O7_2 C13_2 1_555 1_555
O8_2 C13_2 1_555 1_555
C14_2 C12_2 1_555 1_555
H8_2 C14_2 1_555 1_555
C15_2 C14_2 1_555 1_555
C16_2 C15_2 1_555 1_555
O9 C16_2 1_555 1_555
O10 C16_2 1_555 1_555
C17_2 C10_2 1_555 1_555
H9_2 C17_2 1_555 1_555
Mn4 O9 1_555 1_555
Mn10_2 O7_2 1_555 1_555
Mn11 O10 1_555 1_555
C15_2 C17_2 1_555 1_555
Mn4 O1_2 1_555 1_555
Mn11 O2_2 1_555 1_555
O1_2 C1_2 1_555 1_555
O2_2 C1_2 1_555 1_555
C1_2 C2_2 1_555 1_555
C2_2 C3_2 1_555 1_555
C3_2 H1_2 1_555 1_555
C4_2 C3_2 1_555 1_555
C6_2 C4_2 1_555 1_555
C7_2 C6_2 1_555 1_555
C8_2 C2_2 1_555 1_555
H4_2 C8_2 1_555 1_555
O5_2 C7_2 1_555 1_555
N1_2 Mn4 1_555 1_555
C19_2 N1_2 1_555 1_555
C20_2 C19_2 1_555 1_555
Mn7 O12_2 1_555 1_555
O12_2 C21_2 1_555 1_555
O13_2 Mn11 1_555 1_555
C21_2 O13_2 1_555 1_555
C22_2 C21_2 1_555 1_555
C23_2 C22_2 1_555 1_555
H13_2 C23_2 1_555 1_555
C24_2 C23_2 1_555 1_555
C25_2 C24_2 1_555 1_555
O17 C25_2 1_555 1_555
C26_2 C24_2 1_555 1_555
C27_2 C26_2 1_555 1_555
C28_2 C22_2 1_555 1_555
H16_2 C28_2 1_555 1_555
O18_2 C27_2 1_555 1_555
O21_2 Mn11 1_555 1_555
O22_2 Mn11 1_555 1_555
O24_2 Mn4 1_555 1_555
O25_2 Mn7 1_555 1_555
O28 Mn7 1_555 1_555
O31 Mn11 1_555 1_555
O32_2 Mn7 1_555 1_555
C38_2 O32_2 1_555 1_555
H22_2 C38_2 1_555 1_555
H23_2 C38_2 1_555 1_555
H24_2 C38_2 1_555 1_555
N2_2 Mn7 1_555 1_555
C39_2 N2_2 1_555 1_555
C40_2 C39_2 1_555 1_555
C7_2 C8_2 1_555 1_555
C27_2 C28_2 1_555 1_555
C20_2 H25_2 1_555 1_555
C40_2 H28_2 1_555 1_555
C40_2 H29_2 1_555 1_555
C40_2 H30_2 1_555 1_555
H14_2 O14_2 1_555 1_555
C30_2 O19_2 1_555 1_555
C31_2 C30_2 1_555 1_555
C32_2 C31_2 1_555 1_555
C34_2 C32_2 1_555 1_555
H20_2 C34_2 1_555 1_555
C35_2 C34_2 1_555 1_555
C36_2 C35_2 1_555 1_555
O28 C36_2 1_555 1_555
O31 C36_2 1_555 1_555
C37_2 C30_2 1_555 1_555
H21_2 C37_2 1_555 1_555
C35_2 C37_2 1_555 1_555
C18 O11 1_555 1_555
H10 C18 1_555 1_555
H11 C18 1_555 1_555
H12_2 C18 1_555 1_555
Mn10_3 O20_2 1_555 1_555
H17_2 C29_2 1_555 1_555
H18_2 C29_2 1_555 1_555
O20_2 C33_2 1_555 1_555
O23_2 C33_2 1_555 1_555
Mn8 O15_2 1_555 1_555
O14_3 C25_3 1_555 1_555
H14_3 O14_3 1_555 1_555
O15_2 C25_3 1_555 1_555
H5_3 C9_3 1_555 1_555
H6_3 C9_3 1_555 1_555
O21_2 C13_3 1_555 1_555
O24_2 C13_3 1_555 1_555
C19_3 N1_3 1_555 1_555
C20_3 C19_3 1_555 1_555
Mn8_2 O12_3 1_555 1_555
Mn10_3 O29_2 1_555 1_555
O12_3 C21_3 1_555 1_555
O13_3 Mn10_2 1_555 1_555
C21_3 O13_3 1_555 1_555
C22_3 C21_3 1_555 1_555
C23_3 C22_3 1_555 1_555
H13_3 C23_3 1_555 1_555
C24_3 C23_3 1_555 1_555
O17_2 Mn8_2 1_555 1_555
C26_3 C24_3 1_555 1_555
H15_3 C26_3 1_555 1_555
C27_3 C26_3 1_555 1_555
C28_3 C22_3 1_555 1_555
H16_3 C28_3 1_555 1_555
O18_3 C27_3 1_555 1_555
C29_3 O18_3 1_555 1_555
H17_3 C29_3 1_555 1_555
H18_3 C29_3 1_555 1_555
O19_3 C29_3 1_555 1_555
C30_3 O19_3 1_555 1_555
C31_3 C30_3 1_555 1_555
H19_3 C31_3 1_555 1_555
C32_3 C31_3 1_555 1_555
C33_3 C32_3 1_555 1_555
O22_2 C33_3 1_555 1_555
O25_2 C33_3 1_555 1_555
C34_3 C32_3 1_555 1_555
H20_3 C34_3 1_555 1_555
C35_3 C34_3 1_555 1_555
C36_3 C35_3 1_555 1_555
O26_2 C36_3 1_555 1_555
O29_2 C36_3 1_555 1_555
O30_2 Mn10_2 1_555 1_555
C37_3 C30_3 1_555 1_555
H21_3 C37_3 1_555 1_555
C27_3 C28_3 1_555 1_555
C35_3 C37_3 1_555 1_555
C20_3 H25_3 1_555 1_555
C20_3 H26_2 1_555 1_555
C20_3 H27_3 1_555 1_555
Mn5_2 O1_3 1_555 1_555
Mn10_3 O2_3 1_555 1_555
O1_3 C1_3 1_555 1_555
O2_3 C1_3 1_555 1_555
C1_3 C2_3 1_555 1_555
C2_3 C3_3 1_555 1_555
C3_3 H1_3 1_555 1_555
C4_3 C3_3 1_555 1_555
C5_3 C4_3 1_555 1_555
O3_2 C5_3 1_555 1_555
H2_2 O3_2 1_555 1_555
O4_2 C5_3 1_555 1_555
C6_3 C4_3 1_555 1_555
H3_3 C6_3 1_555 1_555
C7_3 C6_3 1_555 1_555
C8_3 C2_3 1_555 1_555
H4_3 C8_3 1_555 1_555
O5_3 C7_3 1_555 1_555
C10_3 O6_3 1_555 1_555
C11_3 C10_3 1_555 1_555
C12_3 C11_3 1_555 1_555
C14_3 C12_3 1_555 1_555
H8_3 C14_3 1_555 1_555
C15_3 C14_3 1_555 1_555
C16_3 C15_3 1_555 1_555
O27_2 C16_3 1_555 1_555
O30_2 C16_3 1_555 1_555
C17_3 C10_3 1_555 1_555
H9_3 C17_3 1_555 1_555
O11_2 Mn5_2 1_555 1_555
C18_2 O11_2 1_555 1_555
H10_2 C18_2 1_555 1_555
H11_2 C18_2 1_555 1_555
Mn5 O4_2 1_555 1_555
O16_2 Mn5_2 1_555 1_555
C39_3 N2_3 1_555 1_555
C40_3 C39_3 1_555 1_555
C7_3 C8_3 1_555 1_555
C15_3 C17_3 1_555 1_555
C40_3 H30_3 1_555 1_555
H5_4 C9_4 1_555 1_555
H6_4 C9_4 1_555 1_555
O21 C13_4 1_555 1_555
O24 C13_4 1_555 1_555
C38_3 O32_3 1_555 1_555
H22_3 C38_3 1_555 1_555
H23_3 C38_3 1_555 1_555
H24_4 C38_3 1_555 1_555
H2_3 O3_3 1_555 1_555
C10_4 O6_4 1_555 1_555
C11_4 C10_4 1_555 1_555
C12_4 C11_4 1_555 1_555
C14_4 C12_4 1_555 1_555
H8_4 C14_4 1_555 1_555
C15_4 C14_4 1_555 1_555
C16_4 C15_4 1_555 1_555
O9_2 C16_4 1_555 1_555
O10_2 C16_4 1_555 1_555
C17_4 C10_4 1_555 1_555
H9_4 C17_4 1_555 1_555
Mn5 O9_2 1_555 1_555
Mn10 O10_2 1_555 1_555
C15_4 C17_4 1_555 1_555
Mn5 O1_4 1_555 1_555
Mn10 O2_4 1_555 1_555
O1_4 C1_4 1_555 1_555
O2_4 C1_4 1_555 1_555
C1_4 C2_4 1_555 1_555
C2_4 C3_4 1_555 1_555
C3_4 H1_4 1_555 1_555
C4_4 C3_4 1_555 1_555
C5_4 C4_4 1_555 1_555
O16_2 C5_4 1_555 1_555
C6_4 C4_4 1_555 1_555
C7_4 C6_4 1_555 1_555
C8_4 C2_4 1_555 1_555
H4_4 C8_4 1_555 1_555
O5_4 C7_4 1_555 1_555
O11_3 Mn5 1_555 1_555
C18_3 O11_3 1_555 1_555
H10_3 C18_3 1_555 1_555
H11_3 C18_3 1_555 1_555
H12_4 C18_3 1_555 1_555
N1_4 Mn5 1_555 1_555
C19_4 N1_4 1_555 1_555
C20_4 C19_4 1_555 1_555
Mn8 O12_4 1_555 1_555
O12_4 C21_4 1_555 1_555
O13_4 Mn10 1_555 1_555
C21_4 O13_4 1_555 1_555
C22_4 C21_4 1_555 1_555
C23_4 C22_4 1_555 1_555
H13_4 C23_4 1_555 1_555
C24_4 C23_4 1_555 1_555
C26_4 C24_4 1_555 1_555
C27_4 C26_4 1_555 1_555
C28_4 C22_4 1_555 1_555
H16_4 C28_4 1_555 1_555
O18_4 C27_4 1_555 1_555
O28_2 Mn8 1_555 1_555
O31_2 Mn10 1_555 1_555
N2_4 Mn8 1_555 1_555
C39_4 N2_4 1_555 1_555
C40_4 C39_4 1_555 1_555
C7_4 C8_4 1_555 1_555
C27_4 C28_4 1_555 1_555
C20_4 H25_4 1_555 1_555
C20_4 H26_3 1_555 1_555
C20_4 H27_4 1_555 1_555
C40_4 H30_4 1_555 1_555
H17_4 C29_4 1_555 1_555
H18_4 C29_4 1_555 1_555
O19_4 C29_4 1_555 1_555
C30_4 O19_4 1_555 1_555
C31_4 C30_4 1_555 1_555
H19_4 C31_4 1_555 1_555
C32_4 C31_4 1_555 1_555
C33_4 C32_4 1_555 1_555
O22 C33_4 1_555 1_555
O25 C33_4 1_555 1_555
C34_4 C32_4 1_555 1_555
H20_4 C34_4 1_555 1_555
C35_4 C34_4 1_555 1_555
C36_4 C35_4 1_555 1_555
O28_2 C36_4 1_555 1_555
O31_2 C36_4 1_555 1_555
C37_4 C30_4 1_555 1_555
H21_4 C37_4 1_555 1_555
C35_4 C37_4 1_555 1_555
O17_2 C25_4 1_555 1_555
C18_4 O11_4 1_555 1_555
H10_4 C18_4 1_555 1_555
H11_4 C18_4 1_555 1_555
H2_4 O3_4 1_555 1_555
C38_4 O32_4 1_555 1_555
H22_4 C38_4 1_555 1_555
H23_4 C38_4 1_555 1_555
H14_4 O14_4 1_555 1_555

#END
