
###############################################################################
#
# This file contains modified crystal structure data generated from the
# MOF subset of the Cambridge Structural Database (CSD) v543 
# hosted by the Cambridge Crystallographic Data Centre (CCDC).
#
# This work is licensed under the Creative Commons
# Attribution-NonCommercial-ShareAlike 4.0 International License.
# To view a copy of this license, visit
# http://creativecommons.org/licenses/by-nc-sa/4.0/
# or send a letter to
# Creative Commons, PO Box 1866, Mountain View, CA 94042, USA.
#
# CIF created using the CSD Python API on 29 September 2022
# The structure has been converted into the P1 space group
# The structure has a 3D framework
# The original CSD entry UJAQOM is in the monoclinic crystal system
# The framework has been calculated to contain at least 10.0% void space
# The void calculation uses a probe of radius 1.32A, grid spacing 0.4
# H atom positions have been added when not included in the experimental data
#
###############################################################################

data_UJAQOM
_chemical_formula_moiety         '(C72 H56 Cd2 O40)n'
_symmetry_cell_setting           triclinic
_symmetry_space_group_name_H-M   'P 1'
_symmetry_Int_Tables_number      1
_space_group_name_Hall           'P 1'
loop_
_symmetry_equiv_pos_site_id
_symmetry_equiv_pos_as_xyz
1 x,y,z
_cell_length_a                   13.8667(4)
_cell_length_b                   14.8068(4)
_cell_length_c                   14.6050(4)
_cell_angle_alpha                90
_cell_angle_beta                 114.1755(12)
_cell_angle_gamma                90
_cell_volume                     2735.72
loop_
_atom_site_label
_atom_site_type_symbol
_atom_site_fract_x
_atom_site_fract_y
_atom_site_fract_z
Cd3 Cd -0.0000 0.568598(13) 0.2500
Cd3_2 Cd 1.0000 0.568598(13) 0.2500
Cd4 Cd 0.5000 0.068598(13) 0.2500
O6 O 0.87639(17) 0.45098(15) 0.25486(17)
O8 O 0.86816(14) 0.49622(12) 0.10951(15)
C10 C 0.8367(2) 0.44707(16) 0.1613(2)
C11 C 0.74858(18) 0.38059(16) 0.10911(19)
C12 C 0.71559(18) 0.32196(16) 0.16561(19)
H7 H 0.7476 0.3243 0.2368
C13 C 0.63542(18) 0.26015(15) 0.1166(2)
C14 C 0.59754(18) 0.19693(16) 0.1754(2)
O10 O 0.63290(17) 0.19967(16) 0.26677(17)
O13 O 0.52814(15) 0.13917(12) 0.12484(16)
H8 H 0.4874 0.1546 0.1533
C15 C 0.58949(17) 0.25649(15) 0.0122(2)
C17 C 0.70284(19) 0.37679(16) 0.0050(2)
O1 O 0.12361(17) 0.45098(15) 0.24514(17)
O2 O 0.13184(14) 0.49622(12) 0.39049(15)
C1 C 0.1633(2) 0.44707(16) 0.3387(2)
C2 C 0.25142(18) 0.38059(16) 0.39089(19)
C3 C 0.28441(18) 0.32196(16) 0.33439(19)
H1 H 0.2524 0.3243 0.2632
C4 C 0.36458(18) 0.26015(15) 0.3834(2)
C5 C 0.40246(18) 0.19693(16) 0.3246(2)
O3 O 0.36710(17) 0.19967(16) 0.23323(17)
O4 O 0.47186(15) 0.13917(12) 0.37516(16)
H2 H 0.5126 0.1546 0.3467
C6 C 0.41051(17) 0.25649(15) 0.4878(2)
H3 H 0.4649 0.2139 0.5211
C7 C 0.37744(19) 0.31448(16) 0.54315(19)
C8 C 0.29716(19) 0.37679(16) 0.4950(2)
H4 H 0.2740 0.4163 0.5331
O5 O 0.41851(15) 0.31570(12) 0.64593(14)
C9 C 0.4919(2) 0.24513(19) 0.6947(2)
H5 H 0.5598 0.2561 0.6895
H6 H 0.4635 0.1862 0.6633
O12 O 0.13290(17) 0.69967(16) 0.26677(17)
O15 O 0.02814(15) 0.63917(12) 0.12484(16)
H9 H 0.0126 0.6546 0.3467
H11 H 0.5351 0.2139 0.9789
C16 C 0.62256(19) 0.31448(16) 0.95685(19)
H12 H 0.7260 0.4163 0.9669
O16 O 0.58149(15) 0.31570(12) 0.85407(14)
C18 C 0.5081(2) 0.24513(19) 0.8053(2)
H13 H 0.4402 0.2561 0.8105
H14 H 0.5365 0.1862 0.8367
H15 H 0.00070475 0.614594 0.444494
O11 O 0.86710(17) 0.69967(16) 0.23323(17)
O14 O 0.97186(15) 0.63917(12) 0.37516(16)
H10 H 0.9874 0.6546 0.1533
H16 H 0.999295 0.614594 0.0555063
O6_2 O 0.37639(17) 0.95098(15) 0.25486(17)
O8_2 O 0.36816(14) 0.99622(12) 0.10951(15)
C10_2 C 0.3367(2) 0.94707(16) 0.1613(2)
C11_2 C 0.24858(18) 0.88059(16) 0.10911(19)
C12_2 C 0.21559(18) 0.82196(16) 0.16561(19)
H7_2 H 0.2476 0.8243 0.2368
C13_2 C 0.13542(18) 0.76015(15) 0.1166(2)
C14_2 C 0.09754(18) 0.69693(16) 0.1754(2)
C15_2 C 0.08949(17) 0.75649(15) 0.0122(2)
C17_2 C 0.20284(19) 0.87679(16) 0.0050(2)
H5_2 H 0.0598 0.7561 0.6895
H11_2 H 0.0351 0.7139 0.9789
C16_2 C 0.12256(19) 0.81448(16) 0.95685(19)
H12_2 H 0.2260 0.9163 0.9669
O16_2 O 0.08149(15) 0.81570(12) 0.85407(14)
C18_2 C 0.0081(2) 0.74513(19) 0.8053(2)
H14_2 H 0.0365 0.6862 0.8367
H15_2 H 0.500705 0.114594 0.444494
H16_2 H 0.499295 0.114594 0.0555063
O1_2 O 0.62361(17) 0.95098(15) 0.24514(17)
O2_2 O 0.63184(14) 0.99622(12) 0.39049(15)
C1_2 C 0.6633(2) 0.94707(16) 0.3387(2)
C2_2 C 0.75142(18) 0.88059(16) 0.39089(19)
C3_2 C 0.78441(18) 0.82196(16) 0.33439(19)
H1_2 H 0.7524 0.8243 0.2632
C4_2 C 0.86458(18) 0.76015(15) 0.3834(2)
C5_2 C 0.90246(18) 0.69693(16) 0.3246(2)
C6_2 C 0.91051(17) 0.75649(15) 0.4878(2)
H3_2 H 0.9649 0.7139 0.5211
C7_2 C 0.87744(19) 0.81448(16) 0.54315(19)
C8_2 C 0.79716(19) 0.87679(16) 0.4950(2)
H4_2 H 0.7740 0.9163 0.5331
O5_2 O 0.91851(15) 0.81570(12) 0.64593(14)
C9_2 C 0.9919(2) 0.74513(19) 0.6947(2)
H6_2 H 0.9635 0.6862 0.6633
H13_2 H 0.9402 0.7561 0.8105
Cd1 Cd -0.0000 0.431402(13) 0.7500
O7 O 0.12361(17) 0.54902(15) 0.74514(17)
O9 O 0.13184(14) 0.50378(12) 0.89049(15)
O11_2 O 0.13290(17) 0.30033(16) 0.76677(17)
O14_2 O 0.02814(15) 0.36083(12) 0.62484(16)
H10_2 H 0.0126 0.3454 0.8467
H16_3 H 0.00070475 0.385406 0.944494
Cd1_2 Cd 1.0000 0.431402(13) 0.7500
O1_3 O 0.87639(17) 0.54902(15) 0.75486(17)
O2_3 O 0.86816(14) 0.50378(12) 0.60951(15)
C1_3 C 0.8367(2) 0.55293(16) 0.6613(2)
C2_3 C 0.74858(18) 0.61941(16) 0.60911(19)
C3_3 C 0.71559(18) 0.67804(16) 0.66561(19)
H1_3 H 0.7476 0.6757 0.7368
C4_3 C 0.63542(18) 0.73985(15) 0.6166(2)
C5_3 C 0.59754(18) 0.80307(16) 0.6754(2)
O3_2 O 0.63290(17) 0.80033(16) 0.76677(17)
O4_2 O 0.52814(15) 0.86083(12) 0.62484(16)
H2_2 H 0.4874 0.8454 0.6533
C6_3 C 0.58949(17) 0.74351(15) 0.5122(2)
H3_3 H 0.5351 0.7861 0.4789
C7_3 C 0.62256(19) 0.68552(16) 0.45685(19)
C8_3 C 0.70284(19) 0.62321(16) 0.5050(2)
H4_3 H 0.7260 0.5837 0.4669
O5_3 O 0.58149(15) 0.68430(12) 0.35407(14)
C9_3 C 0.5081(2) 0.75487(19) 0.3053(2)
H5_3 H 0.4402 0.7439 0.3105
H6_3 H 0.5365 0.8138 0.3367
Cd2 Cd 0.5000 0.931402(13) 0.7500
O12_2 O 0.86710(17) 0.30033(16) 0.73323(17)
O15_2 O 0.97186(15) 0.36083(12) 0.87516(16)
H9_2 H 0.9874 0.3454 0.6533
H11_3 H 0.4649 0.7861 0.0211
C16_3 C 0.37744(19) 0.68552(16) 0.04315(19)
H12_3 H 0.2740 0.5837 0.0331
O16_3 O 0.41851(15) 0.68430(12) 0.14593(14)
C18_3 C 0.4919(2) 0.75487(19) 0.1947(2)
H13_3 H 0.5598 0.7439 0.1895
H14_3 H 0.4635 0.8138 0.1633
H15_3 H 0.999295 0.385406 0.555506
C10_3 C 0.1633(2) 0.55293(16) 0.8387(2)
C11_3 C 0.25142(18) 0.61941(16) 0.89089(19)
C12_3 C 0.28441(18) 0.67804(16) 0.83439(19)
H7_3 H 0.2524 0.6757 0.7632
C13_3 C 0.36458(18) 0.73985(15) 0.8834(2)
C14_3 C 0.40246(18) 0.80307(16) 0.8246(2)
O10_2 O 0.36710(17) 0.80033(16) 0.73323(17)
O13_2 O 0.47186(15) 0.86083(12) 0.87516(16)
H8_2 H 0.5126 0.8454 0.8467
C15_3 C 0.41051(17) 0.74351(15) 0.9878(2)
C17_3 C 0.29716(19) 0.62321(16) 0.9950(2)
O1_4 O 0.37639(17) 0.04902(15) 0.75486(17)
O2_4 O 0.36816(14) 0.00378(12) 0.60951(15)
C1_4 C 0.3367(2) 0.05293(16) 0.6613(2)
C2_4 C 0.24858(18) 0.11941(16) 0.60911(19)
C3_4 C 0.21559(18) 0.17804(16) 0.66561(19)
H1_4 H 0.2476 0.1757 0.7368
C4_4 C 0.13542(18) 0.23985(15) 0.6166(2)
C5_4 C 0.09754(18) 0.30307(16) 0.6754(2)
C6_4 C 0.08949(17) 0.24351(15) 0.5122(2)
H3_4 H 0.0351 0.2861 0.4789
C7_4 C 0.12256(19) 0.18552(16) 0.45685(19)
C8_4 C 0.20284(19) 0.12321(16) 0.5050(2)
H4_4 H 0.2260 0.0837 0.4669
O5_4 O 0.08149(15) 0.18430(12) 0.35407(14)
C9_4 C 0.0081(2) 0.25487(19) 0.3053(2)
H6_4 H 0.0365 0.3138 0.3367
O7_2 O 0.62361(17) 0.04902(15) 0.74514(17)
O9_2 O 0.63184(14) 0.00378(12) 0.89049(15)
H13_4 H 0.0598 0.2439 0.1895
H15_4 H 0.499295 0.885406 0.555506
H16_4 H 0.500705 0.885406 0.944494
H5_4 H 0.9402 0.2439 0.3105
H11_4 H 0.9649 0.2861 0.0211
C16_4 C 0.87744(19) 0.18552(16) 0.04315(19)
H12_4 H 0.7740 0.0837 0.0331
O16_4 O 0.91851(15) 0.18430(12) 0.14593(14)
C18_4 C 0.9919(2) 0.25487(19) 0.1947(2)
H14_4 H 0.9635 0.3138 0.1633
C10_4 C 0.6633(2) 0.05293(16) 0.8387(2)
C11_4 C 0.75142(18) 0.11941(16) 0.89089(19)
C12_4 C 0.78441(18) 0.17804(16) 0.83439(19)
H7_4 H 0.7524 0.1757 0.7632
C13_4 C 0.86458(18) 0.23985(15) 0.8834(2)
C14_4 C 0.90246(18) 0.30307(16) 0.8246(2)
C15_4 C 0.91051(17) 0.24351(15) 0.9878(2)
C17_4 C 0.79716(19) 0.12321(16) 0.9950(2)
loop_
_geom_bond_atom_site_label_1
_geom_bond_atom_site_label_2
_geom_bond_site_symmetry_1
_geom_bond_site_symmetry_2
Cd3_2 O6 1_555 1_555
Cd4 O10 1_555 1_555
O6 C10 1_555 1_555
O8 Cd3_2 1_555 1_555
C10 O8 1_555 1_555
C11 C10 1_555 1_555
C12 C11 1_555 1_555
H7 C12 1_555 1_555
C13 C12 1_555 1_555
C14 C13 1_555 1_555
O10 C14 1_555 1_555
O13 Cd4 1_555 1_555
H8 O13 1_555 1_555
C15 C13 1_555 1_555
C17 C11 1_555 1_555
C14 O13 1_555 1_555
Cd3 O1 1_555 1_555
O1 C1 1_555 1_555
O2 Cd3 1_555 1_555
C1 O2 1_555 1_555
C2 C1 1_555 1_555
C3 C2 1_555 1_555
H1 C3 1_555 1_555
C4 C3 1_555 1_555
C5 C4 1_555 1_555
O3 C5 1_555 1_555
O4 C5 1_555 1_555
H2 O4 1_555 1_555
C6 C4 1_555 1_555
H3 C6 1_555 1_555
C7 C6 1_555 1_555
C8 C2 1_555 1_555
H4 C8 1_555 1_555
O5 C7 1_555 1_555
C9 O5 1_555 1_555
H5 C9 1_555 1_555
H6 C9 1_555 1_555
Cd4 O3 1_555 1_555
O12 Cd3 1_555 1_555
O15 Cd3 1_555 1_555
O16 C16 1_555 1_555
C18 C9 1_555 1_555
H13 C18 1_555 1_555
H14 C18 1_555 1_555
O4 Cd4 1_555 1_555
C7 C8 1_555 1_555
O16 C18 1_555 1_555
O11 Cd3_2 1_555 1_555
O14 Cd3_2 1_555 1_555
O6_2 C10_2 1_555 1_555
C10_2 O8_2 1_555 1_555
C11_2 C10_2 1_555 1_555
C12_2 C11_2 1_555 1_555
H7_2 C12_2 1_555 1_555
C13_2 C12_2 1_555 1_555
C14_2 C13_2 1_555 1_555
O12 C14_2 1_555 1_555
C15_2 C13_2 1_555 1_555
C17_2 C11_2 1_555 1_555
C14_2 O15 1_555 1_555
O16_2 C16_2 1_555 1_555
H14_2 C18_2 1_555 1_555
O16_2 C18_2 1_555 1_555
O4 H15_2 1_555 1_555
O13 H16_2 1_555 1_555
O1_2 C1_2 1_555 1_555
C1_2 O2_2 1_555 1_555
C2_2 C1_2 1_555 1_555
C3_2 C2_2 1_555 1_555
H1_2 C3_2 1_555 1_555
C4_2 C3_2 1_555 1_555
C5_2 C4_2 1_555 1_555
O11 C5_2 1_555 1_555
O14 C5_2 1_555 1_555
C6_2 C4_2 1_555 1_555
H3_2 C6_2 1_555 1_555
C7_2 C6_2 1_555 1_555
C8_2 C2_2 1_555 1_555
H4_2 C8_2 1_555 1_555
O5_2 C7_2 1_555 1_555
C9_2 O5_2 1_555 1_555
H6_2 C9_2 1_555 1_555
C7_2 C8_2 1_555 1_555
O7 Cd1 1_555 1_555
O9 Cd1 1_555 1_555
O11_2 Cd1 1_555 1_555
O14_2 Cd1 1_555 1_555
Cd1_2 O1_3 1_555 1_555
O1_3 C1_3 1_555 1_555
O2_3 Cd1_2 1_555 1_555
C1_3 O2_3 1_555 1_555
C2_3 C1_3 1_555 1_555
C3_3 C2_3 1_555 1_555
H1_3 C3_3 1_555 1_555
C4_3 C3_3 1_555 1_555
C5_3 C4_3 1_555 1_555
O3_2 C5_3 1_555 1_555
O4_2 C5_3 1_555 1_555
H2_2 O4_2 1_555 1_555
C6_3 C4_3 1_555 1_555
H3_3 C6_3 1_555 1_555
C7_3 C6_3 1_555 1_555
C8_3 C2_3 1_555 1_555
H4_3 C8_3 1_555 1_555
O5_3 C7_3 1_555 1_555
C9_3 O5_3 1_555 1_555
H5_3 C9_3 1_555 1_555
H6_3 C9_3 1_555 1_555
Cd2 O3_2 1_555 1_555
O12_2 Cd1_2 1_555 1_555
O15_2 Cd1_2 1_555 1_555
O16_3 C16_3 1_555 1_555
C18_3 C9_3 1_555 1_555
H13_3 C18_3 1_555 1_555
H14_3 C18_3 1_555 1_555
O4_2 Cd2 1_555 1_555
C7_3 C8_3 1_555 1_555
O16_3 C18_3 1_555 1_555
Cd2 O10_2 1_555 1_555
O7 C10_3 1_555 1_555
C10_3 O9 1_555 1_555
C11_3 C10_3 1_555 1_555
C12_3 C11_3 1_555 1_555
H7_3 C12_3 1_555 1_555
C13_3 C12_3 1_555 1_555
C14_3 C13_3 1_555 1_555
O10_2 C14_3 1_555 1_555
O13_2 Cd2 1_555 1_555
H8_2 O13_2 1_555 1_555
C15_3 C13_3 1_555 1_555
C17_3 C11_3 1_555 1_555
C14_3 O13_2 1_555 1_555
O1_4 C1_4 1_555 1_555
C1_4 O2_4 1_555 1_555
C2_4 C1_4 1_555 1_555
C3_4 C2_4 1_555 1_555
H1_4 C3_4 1_555 1_555
C4_4 C3_4 1_555 1_555
C5_4 C4_4 1_555 1_555
O11_2 C5_4 1_555 1_555
O14_2 C5_4 1_555 1_555
C6_4 C4_4 1_555 1_555
H3_4 C6_4 1_555 1_555
C7_4 C6_4 1_555 1_555
C8_4 C2_4 1_555 1_555
H4_4 C8_4 1_555 1_555
O5_4 C7_4 1_555 1_555
C9_4 O5_4 1_555 1_555
H6_4 C9_4 1_555 1_555
C7_4 C8_4 1_555 1_555
O4_2 H15_4 1_555 1_555
O13_2 H16_4 1_555 1_555
O16_4 C16_4 1_555 1_555
H14_4 C18_4 1_555 1_555
O16_4 C18_4 1_555 1_555
O7_2 C10_4 1_555 1_555
C10_4 O9_2 1_555 1_555
C11_4 C10_4 1_555 1_555
C12_4 C11_4 1_555 1_555
H7_4 C12_4 1_555 1_555
C13_4 C12_4 1_555 1_555
C14_4 C13_4 1_555 1_555
O12_2 C14_4 1_555 1_555
C15_4 C13_4 1_555 1_555
C17_4 C11_4 1_555 1_555
C14_4 O15_2 1_555 1_555

#END
