
###############################################################################
#
# This file contains modified crystal structure data generated from the
# MOF subset of the Cambridge Structural Database (CSD) v543 
# hosted by the Cambridge Crystallographic Data Centre (CCDC).
#
# This work is licensed under the Creative Commons
# Attribution-NonCommercial-ShareAlike 4.0 International License.
# To view a copy of this license, visit
# http://creativecommons.org/licenses/by-nc-sa/4.0/
# or send a letter to
# Creative Commons, PO Box 1866, Mountain View, CA 94042, USA.
#
# CIF created using the CSD Python API on 29 September 2022
# The structure has been converted into the P1 space group
# The structure has a 3D framework
# The original CSD entry UJAQEC is in the triclinic crystal system
# The framework has been calculated to contain at least 10.0% void space
# The void calculation uses a probe of radius 1.32A, grid spacing 0.4
# H atom positions have been added when not included in the experimental data
#
###############################################################################

data_UJAQEC
_chemical_formula_moiety         '(C34 H20 Co4 O24)n'
_symmetry_cell_setting           triclinic
_symmetry_space_group_name_H-M   'P 1'
_symmetry_Int_Tables_number      1
_space_group_name_Hall           'P 1'
loop_
_symmetry_equiv_pos_site_id
_symmetry_equiv_pos_as_xyz
1 x,y,z
_cell_length_a                   10.2067(4)
_cell_length_b                   11.1297(6)
_cell_length_c                   13.9251(5)
_cell_angle_alpha                112.663(3)
_cell_angle_beta                 104.574(3)
_cell_angle_gamma                94.7960(17)
_cell_volume                     1383.57
loop_
_atom_site_label
_atom_site_type_symbol
_atom_site_fract_x
_atom_site_fract_y
_atom_site_fract_z
O5 O 0.0401(3) 0.4127(2) 0.07443(18)
C4 C 0.0771(4) 0.1651(4) 0.8264(3)
C5 C 0.1927(4) 0.1284(4) 0.7790(3)
O3 O 0.3145(2) 0.1553(2) 0.84112(18)
O4 O 0.1633(3) 0.0693(3) 0.67549(18)
C6 C 0.1072(4) 0.2671(4) 0.9313(3)
H2 H 0.2001 0.3093 0.9743
Co6 Co 0.38618(5) 0.07824(5) 0.69760(4)
C9 C 0.9353(4) 0.4603(4) 0.1195(3)
H4 H 0.8595 0.4700 0.0643
H5 H 0.9729 0.5477 0.1831
O6 O 0.8865(3) 0.3626(3) 0.15274(19)
C10 C 0.7997(4) 0.3972(4) 0.2172(3)
C11 C 0.7595(4) 0.3014(4) 0.2499(3)
H6 H 0.7889 0.2191 0.2260
C12 C 0.6762(3) 0.3250(3) 0.3175(3)
C13 C 0.6290(4) 0.2189(4) 0.3494(3)
O7 O 0.5787(3) 0.2531(3) 0.42769(19)
O8 O 0.6436(3) 0.1036(2) 0.29532(19)
C14 C 0.6373(4) 0.4481(4) 0.3539(3)
H7 H 0.5842 0.4674 0.4031
C15 C 0.6758(4) 0.5424(4) 0.3187(3)
C16 C 0.6277(4) 0.6718(4) 0.3532(3)
O9 O 0.6137(3) 0.7192(2) 0.44884(18)
O10 O 0.6055(3) 0.7264(3) 0.28907(19)
C17 C 0.7555(4) 0.5167(4) 0.2480(3)
H8 H 0.7791 0.5797 0.2215
Co3 Co 0.49430(5) 0.13633(5) 0.49098(4)
Co4 Co 0.50570(5) 0.86367(5) 0.50902(4)
Co8 Co 0.61382(5) 0.92176(5) 0.30240(4)
O2 O 0.5940(3) 0.1212(3) 0.77598(19)
C1 C 0.6877(4) 0.0691(4) 0.7422(3)
C2 C 0.8345(4) 0.1379(4) 0.8086(3)
C3 C 0.9415(4) 0.1016(4) 0.7652(3)
H1 H 0.9215 0.0333 0.6935
C7 C 0.9990(4) 0.3055(4) 0.9714(3)
C8 C 0.8623(4) 0.2421(4) 0.9119(3)
H3 H 0.7894 0.2692 0.9408
O11 O 0.3932(3) 0.0105(2) 0.54354(17)
O18 O 0.3945(3) 0.2736(3) 0.71093(19)
O1 O 0.6695(2) 0.9630(3) 0.65653(19)
O12 O 0.3313(3) 0.7503(3) 0.3620(2)
O15 O 0.4213(3) 0.7469(3) 0.57231(19)
O16 O 0.3564(3) 0.8964(2) 0.70468(19)
O19 O 0.6068(3) 0.9895(2) 0.45646(17)
H9 H 0.243933 0.754411 0.381193
H10 H 0.329282 0.788593 0.308083
O1_2 O 0.3305(2) 0.0370(3) 0.34347(19)
O12_2 O 0.6687(3) 0.2497(3) 0.6380(2)
O17 O 0.3863(3) 0.2808(2) 0.55116(18)
H9_2 H 0.756067 0.245589 0.618807
H10_2 H 0.670718 0.211407 0.691917
O2_2 O 0.4060(3) 0.8788(3) 0.22402(19)
C1_2 C 0.3123(4) 0.9309(4) 0.2578(3)
C2_2 C 0.1655(4) 0.8621(4) 0.1914(3)
C3_2 C 0.0585(4) 0.8984(4) 0.2348(3)
H1_2 H 0.0785 0.9667 0.3065
C7_2 C 0.0010(4) 0.6945(4) 0.0286(3)
C8_2 C 0.1377(4) 0.7579(4) 0.0881(3)
H3_2 H 0.2106 0.7308 0.0592
O13 O 0.6855(2) 0.8447(2) 0.15888(18)
O14 O 0.8367(3) 0.9307(3) 0.32451(18)
C9_2 C 0.0647(4) 0.5397(4) 0.8805(3)
H4_2 H 0.1405 0.5300 0.9357
H5_2 H 0.0271 0.4523 0.8169
O6_2 O 0.1135(3) 0.6374(3) 0.84726(19)
C10_2 C 0.2003(4) 0.6028(4) 0.7828(3)
C11_2 C 0.2405(4) 0.6986(4) 0.7501(3)
H6_2 H 0.2111 0.7809 0.7740
C12_2 C 0.3238(3) 0.6750(3) 0.6825(3)
C13_2 C 0.3710(4) 0.7811(4) 0.6506(3)
C14_2 C 0.3627(4) 0.5519(4) 0.6461(3)
H7_2 H 0.4158 0.5326 0.5969
C15_2 C 0.3242(4) 0.4576(4) 0.6813(3)
C16_2 C 0.3723(4) 0.3282(4) 0.6468(3)
C17_2 C 0.2445(4) 0.4833(4) 0.7520(3)
H8_2 H 0.2209 0.4203 0.7785
C4_2 C 0.9229(4) 0.8349(4) 0.1736(3)
C5_2 C 0.8073(4) 0.8716(4) 0.2210(3)
C6_2 C 0.8928(4) 0.7329(4) 0.0687(3)
H2_2 H 0.7999 0.6907 0.0257
O5_2 O 0.9599(3) 0.5873(2) 0.92557(18)
loop_
_geom_bond_atom_site_label_1
_geom_bond_atom_site_label_2
_geom_bond_site_symmetry_1
_geom_bond_site_symmetry_2
C5 C4 1_555 1_555
O3 C5 1_555 1_555
O4 C5 1_555 1_555
C6 C4 1_555 1_555
H2 C6 1_555 1_555
Co6 O3 1_555 1_555
O4 Co6 1_555 1_555
H4 C9 1_555 1_555
H5 C9 1_555 1_555
O6 C9 1_555 1_555
C10 O6 1_555 1_555
C11 C10 1_555 1_555
H6 C11 1_555 1_555
C12 C11 1_555 1_555
C13 C12 1_555 1_555
O7 C13 1_555 1_555
O8 C13 1_555 1_555
C14 C12 1_555 1_555
H7 C14 1_555 1_555
C15 C14 1_555 1_555
C16 C15 1_555 1_555
O9 C16 1_555 1_555
O10 C16 1_555 1_555
C17 C10 1_555 1_555
H8 C17 1_555 1_555
Co3 O7 1_555 1_555
Co4 O9 1_555 1_555
Co8 O10 1_555 1_555
C15 C17 1_555 1_555
Co6 O2 1_555 1_555
O2 C1 1_555 1_555
C1 C2 1_555 1_555
C2 C3 1_555 1_555
C3 H1 1_555 1_555
C8 C2 1_555 1_555
H3 C8 1_555 1_555
Co3 O11 1_555 1_555
O18 Co6 1_555 1_555
Co6 O11 1_555 1_555
C7 C8 1_555 1_555
Co4 O1 1_555 1_555
O12 Co4 1_555 1_555
O15 Co4 1_555 1_555
O19 Co4 1_555 1_555
O12 H9 1_555 1_555
O12 H10 1_555 1_555
Co3 O1_2 1_555 1_555
O12_2 Co3 1_555 1_555
O17 Co3 1_555 1_555
O12_2 H9_2 1_555 1_555
O12_2 H10_2 1_555 1_555
Co8 O2_2 1_555 1_555
O2_2 C1_2 1_555 1_555
C1_2 C2_2 1_555 1_555
C2_2 C3_2 1_555 1_555
C3_2 H1_2 1_555 1_555
C8_2 C2_2 1_555 1_555
H3_2 C8_2 1_555 1_555
O13 Co8 1_555 1_555
O14 Co8 1_555 1_555
Co8 O19 1_555 1_555
C7_2 C8_2 1_555 1_555
H4_2 C9_2 1_555 1_555
H5_2 C9_2 1_555 1_555
O6_2 C9_2 1_555 1_555
C10_2 O6_2 1_555 1_555
C11_2 C10_2 1_555 1_555
H6_2 C11_2 1_555 1_555
C12_2 C11_2 1_555 1_555
C13_2 C12_2 1_555 1_555
O15 C13_2 1_555 1_555
O16 C13_2 1_555 1_555
C14_2 C12_2 1_555 1_555
H7_2 C14_2 1_555 1_555
C15_2 C14_2 1_555 1_555
C16_2 C15_2 1_555 1_555
O17 C16_2 1_555 1_555
O18 C16_2 1_555 1_555
C17_2 C10_2 1_555 1_555
H8_2 C17_2 1_555 1_555
C15_2 C17_2 1_555 1_555
C5_2 C4_2 1_555 1_555
O13 C5_2 1_555 1_555
O14 C5_2 1_555 1_555
C6_2 C4_2 1_555 1_555
H2_2 C6_2 1_555 1_555

#END
