
###############################################################################
#
# This file contains modified crystal structure data generated from the
# MOF subset of the Cambridge Structural Database (CSD) v543 
# hosted by the Cambridge Crystallographic Data Centre (CCDC).
#
# This work is licensed under the Creative Commons
# Attribution-NonCommercial-ShareAlike 4.0 International License.
# To view a copy of this license, visit
# http://creativecommons.org/licenses/by-nc-sa/4.0/
# or send a letter to
# Creative Commons, PO Box 1866, Mountain View, CA 94042, USA.
#
# CIF created using the CSD Python API on 29 September 2022
# The structure has been converted into the P1 space group
# The structure has a 3D framework
# The original CSD entry UJARIH is in the monoclinic crystal system
# The framework has been calculated to contain at least 10.0% void space
# The void calculation uses a probe of radius 1.32A, grid spacing 0.4
#
###############################################################################

data_UJARIH
_chemical_formula_moiety         '(C148 H104 N16 O44 Zn8)n'
_symmetry_cell_setting           triclinic
_symmetry_space_group_name_H-M   'P 1'
_symmetry_Int_Tables_number      1
_space_group_name_Hall           'P 1'
loop_
_symmetry_equiv_pos_site_id
_symmetry_equiv_pos_as_xyz
1 x,y,z
_cell_length_a                   16.4370(2)
_cell_length_b                   14.6990(2)
_cell_length_c                   17.5061(2)
_cell_angle_alpha                90
_cell_angle_beta                 109.3792(10)
_cell_angle_gamma                90
_cell_volume                     3989.97
loop_
_atom_site_label
_atom_site_type_symbol
_atom_site_fract_x
_atom_site_fract_y
_atom_site_fract_z
Zn6 Zn 0.00351(2) 0.64605(3) 0.82363(2)
C5 C 0.44256(19) 0.2221(2) 0.04630(16)
O3 O 0.42663(14) 0.21354(17) 0.11151(12)
O4 O 0.47427(14) 0.29404(16) 0.02934(12)
C6 C 0.39939(19) 0.0602(2) 0.01272(17)
H2 H 0.4023 0.0519 0.0674
Zn3 Zn 0.47174(2) 0.34835(3) 0.148214(19)
Zn1 Zn 0.47174(2) 0.15165(3) 0.648214(19)
O1 O 0.44417(14) 0.14641(15) 0.75309(11)
O2 O 0.33667(15) 0.04449(17) 0.71425(12)
C1 C 0.39014(19) 0.0923(2) 0.76670(16)
C2 C 0.39194(18) 0.0843(2) 0.85317(15)
C3 C 0.41762(18) 0.1560(2) 0.90714(16)
H1 H 0.4331 0.2127 0.8898
C4 C 0.42052(19) 0.1444(2) 0.98703(17)
C8 C 0.36898(19) 0.0014(2) 0.87822(16)
N1 N 0.53098(18) 0.02279(19) 0.65273(15)
C22 C 0.5752(2) 0.0026(2) 0.60296(18)
H12 H 0.5609 0.0341 0.5528
N3 N 0.59873(16) 0.21085(18) 0.70384(14)
C28 C 0.6595(2) 0.2081(2) 0.66852(17)
H17 H 0.6510 0.1689 0.6234
C29 C 0.73444(19) 0.2598(2) 0.69465(17)
H18 H 0.7762 0.2552 0.6681
C30 C 0.74769(19) 0.3185(2) 0.76019(17)
C31 C 0.6849(2) 0.3195(2) 0.79772(17)
H19 H 0.6922 0.3574 0.8435
C32 C 0.6121(2) 0.2656(2) 0.76844(17)
H20 H 0.5701 0.2674 0.7949
C33 C 0.82162(19) 0.3825(2) 0.78469(17)
C34 C 0.8464(2) 0.4283(2) 0.85866(17)
H21 H 0.8215 0.4124 0.8987
C35 C 0.9067(2) 0.4965(2) 0.87352(17)
H22 H 0.9223 0.5268 0.9243
N4 N 0.94464(17) 0.52242(18) 0.82013(14)
C36 C 0.9259(2) 0.4735(2) 0.75121(19)
H23 H 0.9556 0.4873 0.7144
C37 C 0.8663(2) 0.4050(2) 0.73186(19)
H24 H 0.8552 0.3727 0.6825
O11 O 0.34076(15) 0.10568(19) 0.57689(13)
H25 H 0.3323 0.0799 0.6205
H26 H 0.3055 0.1536 0.5581
O12 O 0.42663(14) 0.28646(17) 0.61151(12)
O13 O 0.47427(14) 0.20596(16) 0.52934(12)
Zn2 Zn 0.00351(2) 0.85395(3) 0.32363(2)
C9 C 0.3724(2) 0.8809(3) 0.05914(18)
H4 H 0.4335 0.8976 0.0868
H5 H 0.3673 0.8142 0.0641
O6 O 0.32075(14) 0.92450(17) 0.09829(12)
C10 C 0.24255(19) 0.8855(2) 0.09060(16)
C11 C 0.2084(2) 0.9059(2) 0.15153(16)
H6 H 0.2382 0.9467 0.1936
C12 C 0.13182(18) 0.8674(2) 0.15126(16)
C13 C 0.0990(2) 0.8889(3) 0.21985(18)
O7 O 0.03211(15) 0.84747(17) 0.22154(13)
O8 O 0.1389(2) 0.9425(3) 0.27202(18)
C14 C 0.08810(18) 0.8076(2) 0.08956(15)
H7 H 0.0369 0.7785 0.0907
C15 C 0.11969(18) 0.7906(2) 0.02608(16)
C17 C 0.19749(19) 0.8291(2) 0.02688(16)
O14 O 0.09004(14) 0.76422(16) 0.39211(11)
O15 O 0.01092(15) 0.81900(17) 0.46103(12)
C7 C 0.37435(19) 0.9893(2) 0.95821(17)
H3 H 0.3496 0.9530 0.8405
O5 O 0.34966(14) 0.90367(16) 0.97680(12)
C16 C 0.07068(19) 0.7313(2) 0.95622(16)
O9 O 0.09004(14) 0.73578(16) 0.89211(11)
O10 O 0.01092(15) 0.68100(17) 0.96103(12)
H8 H 0.2196 0.8168 0.9842
C18 C 0.5502(2) 0.9724(2) 0.72053(19)
H9 H 0.5176 0.9824 0.7555
C19 C 0.6138(2) 0.9075(2) 0.74256(18)
H10 H 0.6245 0.8742 0.7914
C20 C 0.6622(2) 0.8913(2) 0.69229(18)
C21 C 0.6396(2) 0.9394(2) 0.62007(18)
H11 H 0.6690 0.9283 0.5825
C23 C 0.7395(2) 0.8306(2) 0.71893(18)
C24 C 0.7456(2) 0.7612(2) 0.77423(19)
H13 H 0.6990 0.7493 0.7936
C25 C 0.8194(2) 0.7097(3) 0.8008(2)
H14 H 0.8218 0.6620 0.8382
N2 N 0.88852(17) 0.72252(19) 0.77717(15)
C26 C 0.8816(2) 0.7888(3) 0.7225(2)
H15 H 0.9285 0.7988 0.7032
C27 C 0.8096(3) 0.8426(3) 0.6931(2)
H16 H 0.8080 0.8887 0.6546
N5 N 0.88852(17) 0.77748(19) 0.27717(15)
N6 N 0.94464(17) 0.97758(18) 0.32013(14)
O1_2 O 0.44417(14) 0.35359(15) 0.25309(11)
O2_2 O 0.33667(15) 0.45551(17) 0.21425(12)
C1_2 C 0.39014(19) 0.4077(2) 0.26670(16)
C2_2 C 0.39194(18) 0.4157(2) 0.35317(15)
C3_2 C 0.41762(18) 0.3440(2) 0.40714(16)
H1_2 H 0.4331 0.2873 0.3898
C4_2 C 0.42052(19) 0.3556(2) 0.48703(17)
C5_2 C 0.44256(19) 0.2779(2) 0.54630(16)
C6_2 C 0.39939(19) 0.4398(2) 0.51272(17)
H2_2 H 0.4023 0.4481 0.5674
C7_2 C 0.37435(19) 0.5107(2) 0.45821(17)
C8_2 C 0.36898(19) 0.4986(2) 0.37822(16)
H3_2 H 0.3496 0.5470 0.3405
O5_2 O 0.34966(14) 0.59633(16) 0.47680(12)
C9_2 C 0.3724(2) 0.6191(3) 0.55914(18)
H4_2 H 0.4335 0.6024 0.5868
H5_2 H 0.3673 0.6858 0.5641
O6_2 O 0.32075(14) 0.57550(17) 0.59829(12)
C10_2 C 0.24255(19) 0.6145(2) 0.59060(16)
C11_2 C 0.2084(2) 0.5941(2) 0.65153(16)
H6_2 H 0.2382 0.5533 0.6936
C12_2 C 0.13182(18) 0.6326(2) 0.65126(16)
C13_2 C 0.0990(2) 0.6111(3) 0.71985(18)
O7_2 O 0.03211(15) 0.65253(17) 0.72154(13)
O8_2 O 0.1389(2) 0.5575(3) 0.77202(18)
C14_2 C 0.08810(18) 0.6924(2) 0.58956(15)
H7_2 H 0.0369 0.7215 0.5907
C15_2 C 0.11969(18) 0.7094(2) 0.52608(16)
C16_2 C 0.07068(19) 0.7687(2) 0.45622(16)
C17_2 C 0.19749(19) 0.6709(2) 0.52688(16)
H8_2 H 0.2196 0.6832 0.4842
N1_2 N 0.53098(18) 0.47721(19) 0.15273(15)
C18_2 C 0.5502(2) 0.5276(2) 0.22053(19)
H9_2 H 0.5176 0.5176 0.2555
C19_2 C 0.6138(2) 0.5925(2) 0.24256(18)
H10_2 H 0.6245 0.6258 0.2914
C20_2 C 0.6622(2) 0.6087(2) 0.19229(18)
C21_2 C 0.6396(2) 0.5606(2) 0.12007(18)
H11_2 H 0.6690 0.5717 0.0825
C22_2 C 0.5752(2) 0.4974(2) 0.10296(18)
H12_2 H 0.5609 0.4659 0.0528
C23_2 C 0.7395(2) 0.6694(2) 0.21893(18)
C24_2 C 0.7456(2) 0.7388(2) 0.27423(19)
H13_2 H 0.6990 0.7507 0.2936
C25_2 C 0.8194(2) 0.7903(3) 0.3008(2)
H14_2 H 0.8218 0.8380 0.3382
C26_2 C 0.8816(2) 0.7112(3) 0.2225(2)
H15_2 H 0.9285 0.7012 0.2032
C27_2 C 0.8096(3) 0.6574(3) 0.1931(2)
H16_2 H 0.8080 0.6113 0.1546
N3_2 N 0.59873(16) 0.28915(18) 0.20384(14)
C28_2 C 0.6595(2) 0.2919(2) 0.16852(17)
H17_2 H 0.6510 0.3311 0.1234
C29_2 C 0.73444(19) 0.2402(2) 0.19465(17)
H18_2 H 0.7762 0.2448 0.1681
C30_2 C 0.74769(19) 0.1815(2) 0.26019(17)
C31_2 C 0.6849(2) 0.1805(2) 0.29772(17)
H19_2 H 0.6922 0.1426 0.3435
C32_2 C 0.6121(2) 0.2344(2) 0.26844(17)
H20_2 H 0.5701 0.2326 0.2949
C33_2 C 0.82162(19) 0.1175(2) 0.28469(17)
C34_2 C 0.8464(2) 0.0717(2) 0.35866(17)
H21_2 H 0.8215 0.0876 0.3987
C35_2 C 0.9067(2) 0.0035(2) 0.37352(17)
C36_2 C 0.9259(2) 0.0265(2) 0.25121(19)
H23_2 H 0.9556 0.0127 0.2144
C37_2 C 0.8663(2) 0.0950(2) 0.23186(19)
H24_2 H 0.8552 0.1273 0.1825
O11_2 O 0.34076(15) 0.39432(19) 0.07689(13)
H25_2 H 0.3323 0.4201 0.1205
H26_2 H 0.3055 0.3464 0.0581
H22_2 H 0.9223 0.9732 0.4243
N5_2 N 0.11148(17) 0.27748(19) 0.22283(15)
N6_2 N 0.05536(17) 0.47758(18) 0.17987(14)
H22_3 H 0.0777 0.0268 0.5757
N4_2 N 0.05536(17) 0.02242(18) 0.67987(14)
Zn1_2 Zn 0.52826(2) 0.65165(3) 0.851786(19)
Zn2_2 Zn 0.99649(2) 0.35395(3) 0.17637(2)
O1_3 O 0.55583(14) 0.64641(15) 0.74691(11)
O2_3 O 0.66333(15) 0.54449(17) 0.78575(12)
C1_3 C 0.60986(19) 0.5923(2) 0.73330(16)
C2_3 C 0.60806(18) 0.5843(2) 0.64683(15)
C3_3 C 0.58238(18) 0.6560(2) 0.59286(16)
H1_3 H 0.5669 0.7127 0.6102
C4_3 C 0.57948(19) 0.6444(2) 0.51297(17)
C5_3 C 0.55744(19) 0.7221(2) 0.45370(16)
O3_2 O 0.57337(14) 0.71354(17) 0.38849(12)
O4_2 O 0.52573(14) 0.79404(16) 0.47066(12)
C6_3 C 0.60061(19) 0.5602(2) 0.48728(17)
H2_3 H 0.5977 0.5519 0.4326
C7_3 C 0.62565(19) 0.4893(2) 0.54179(17)
C8_3 C 0.63102(19) 0.5014(2) 0.62178(16)
H3_3 H 0.6504 0.4530 0.6595
O5_3 O 0.65034(14) 0.40367(16) 0.52320(12)
C9_3 C 0.6276(2) 0.3809(3) 0.44086(18)
H4_3 H 0.5665 0.3976 0.4132
H5_3 H 0.6327 0.3142 0.4359
O6_3 O 0.67925(14) 0.42450(17) 0.40171(12)
C10_3 C 0.75745(19) 0.3855(2) 0.40940(16)
C11_3 C 0.7916(2) 0.4059(2) 0.34847(16)
H6_3 H 0.7618 0.4467 0.3064
C12_3 C 0.86818(18) 0.3674(2) 0.34874(16)
C13_3 C 0.9010(2) 0.3889(3) 0.28015(18)
O7_3 O 0.96789(15) 0.34747(17) 0.27846(13)
O8_3 O 0.8611(2) 0.4425(3) 0.22798(18)
C14_3 C 0.91190(18) 0.3076(2) 0.41044(15)
H7_3 H 0.9631 0.2785 0.4093
C15_3 C 0.88031(18) 0.2906(2) 0.47392(16)
C16_3 C 0.92932(19) 0.2313(2) 0.54378(16)
O9_2 O 0.90996(14) 0.23578(16) 0.60789(11)
O10_2 O 0.98908(15) 0.18100(17) 0.53897(12)
C17_3 C 0.80251(19) 0.3291(2) 0.47312(16)
H8_3 H 0.7804 0.3168 0.5158
N1_3 N 0.46902(18) 0.52279(19) 0.84727(15)
C18_3 C 0.4498(2) 0.4724(2) 0.77947(19)
H9_3 H 0.4824 0.4824 0.7445
C19_3 C 0.3862(2) 0.4075(2) 0.75744(18)
H10_3 H 0.3755 0.3742 0.7086
C20_3 C 0.3378(2) 0.3913(2) 0.80771(18)
C21_3 C 0.3604(2) 0.4394(2) 0.87993(18)
H11_3 H 0.3310 0.4283 0.9175
C22_3 C 0.4248(2) 0.5026(2) 0.89704(18)
H12_3 H 0.4391 0.5341 0.9472
C23_3 C 0.2605(2) 0.3306(2) 0.78107(18)
C24_3 C 0.2544(2) 0.2612(2) 0.72577(19)
H13_3 H 0.3010 0.2493 0.7064
C25_3 C 0.1806(2) 0.2097(3) 0.6992(2)
H14_3 H 0.1782 0.1620 0.6618
N2_2 N 0.11148(17) 0.22252(19) 0.72283(15)
C26_3 C 0.1184(2) 0.2888(3) 0.7775(2)
H15_3 H 0.0715 0.2988 0.7968
C27_3 C 0.1904(3) 0.3426(3) 0.8069(2)
H16_3 H 0.1920 0.3887 0.8454
N3_3 N 0.40127(16) 0.71085(18) 0.79616(14)
C28_3 C 0.3405(2) 0.7081(2) 0.83148(17)
H17_3 H 0.3490 0.6689 0.8766
C29_3 C 0.26556(19) 0.7598(2) 0.80535(17)
H18_3 H 0.2238 0.7552 0.8319
C30_3 C 0.25231(19) 0.8185(2) 0.73981(17)
C31_3 C 0.3151(2) 0.8195(2) 0.70228(17)
H19_3 H 0.3078 0.8574 0.6565
C32_3 C 0.3879(2) 0.7656(2) 0.73156(17)
H20_3 H 0.4299 0.7674 0.7051
C33_3 C 0.17838(19) 0.8825(2) 0.71531(17)
C34_3 C 0.1536(2) 0.9283(2) 0.64134(17)
H21_3 H 0.1785 0.9124 0.6013
C35_3 C 0.0933(2) 0.9965(2) 0.62648(17)
C36_3 C 0.0741(2) 0.9735(2) 0.74879(19)
H23_3 H 0.0444 0.9873 0.7856
C37_3 C 0.1337(2) 0.9050(2) 0.76814(19)
H24_3 H 0.1448 0.8727 0.8175
O11_3 O 0.65924(15) 0.60568(19) 0.92311(13)
H25_3 H 0.6677 0.5799 0.8795
H26_3 H 0.6945 0.6536 0.9419
Zn3_2 Zn 0.52826(2) 0.84835(3) 0.351786(19)
Zn4 Zn 0.99649(2) 0.14605(3) 0.67637(2)
O12_2 O 0.57337(14) 0.78646(17) 0.88849(12)
O13_2 O 0.52573(14) 0.70596(16) 0.97066(12)
O14_2 O 0.90996(14) 0.26422(16) 0.10789(11)
O15_2 O 0.98908(15) 0.31900(17) 0.03897(12)
C7_4 C 0.62565(19) 0.0107(2) 0.04179(17)
H3_4 H 0.6504 0.0470 0.1595
O5_4 O 0.65034(14) 0.09633(16) 0.02320(12)
C16_4 C 0.92932(19) 0.2687(2) 0.04378(16)
H8_4 H 0.7804 0.1832 0.0158
C18_4 C 0.4498(2) 0.0276(2) 0.27947(19)
H9_4 H 0.4824 0.0176 0.2445
C19_4 C 0.3862(2) 0.0925(2) 0.25744(18)
H10_4 H 0.3755 0.1258 0.2086
C20_4 C 0.3378(2) 0.1087(2) 0.30771(18)
C21_4 C 0.3604(2) 0.0606(2) 0.37993(18)
H11_4 H 0.3310 0.0717 0.4175
C23_4 C 0.2605(2) 0.1694(2) 0.28107(18)
C24_4 C 0.2544(2) 0.2388(2) 0.22577(19)
H13_4 H 0.3010 0.2507 0.2064
C25_4 C 0.1806(2) 0.2903(3) 0.1992(2)
H14_4 H 0.1782 0.3380 0.1618
C26_4 C 0.1184(2) 0.2112(3) 0.2775(2)
H15_4 H 0.0715 0.2012 0.2968
C27_4 C 0.1904(3) 0.1574(3) 0.3069(2)
H16_4 H 0.1920 0.1113 0.3454
C9_4 C 0.6276(2) 0.1191(3) 0.94086(18)
H4_4 H 0.5665 0.1024 0.9132
H5_4 H 0.6327 0.1858 0.9359
O6_4 O 0.67925(14) 0.07550(17) 0.90171(12)
C10_4 C 0.75745(19) 0.1145(2) 0.90940(16)
C11_4 C 0.7916(2) 0.0941(2) 0.84847(16)
H6_4 H 0.7618 0.0533 0.8064
C12_4 C 0.86818(18) 0.1326(2) 0.84874(16)
C13_4 C 0.9010(2) 0.1111(3) 0.78015(18)
O7_4 O 0.96789(15) 0.15253(17) 0.77846(13)
O8_4 O 0.8611(2) 0.0575(3) 0.72798(18)
C14_4 C 0.91190(18) 0.1924(2) 0.91044(15)
H7_4 H 0.9631 0.2215 0.9093
C15_4 C 0.88031(18) 0.2094(2) 0.97392(16)
C17_4 C 0.80251(19) 0.1709(2) 0.97312(16)
O1_4 O 0.55583(14) 0.85359(15) 0.24691(11)
O2_4 O 0.66333(15) 0.95551(17) 0.28575(12)
C1_4 C 0.60986(19) 0.9077(2) 0.23330(16)
C2_4 C 0.60806(18) 0.9157(2) 0.14683(15)
C3_4 C 0.58238(18) 0.8440(2) 0.09286(16)
H1_4 H 0.5669 0.7873 0.1102
C4_4 C 0.57948(19) 0.8556(2) 0.01297(17)
C8_4 C 0.63102(19) 0.9986(2) 0.12178(16)
N1_4 N 0.46902(18) 0.97721(19) 0.34727(15)
C22_4 C 0.4248(2) 0.9974(2) 0.39704(18)
H12_4 H 0.4391 0.9659 0.4472
N3_4 N 0.40127(16) 0.78915(18) 0.29616(14)
C28_4 C 0.3405(2) 0.7919(2) 0.33148(17)
H17_4 H 0.3490 0.8311 0.3766
C29_4 C 0.26556(19) 0.7402(2) 0.30535(17)
H18_4 H 0.2238 0.7448 0.3319
C30_4 C 0.25231(19) 0.6815(2) 0.23981(17)
C31_4 C 0.3151(2) 0.6805(2) 0.20228(17)
H19_4 H 0.3078 0.6426 0.1565
C32_4 C 0.3879(2) 0.7344(2) 0.23156(17)
H20_4 H 0.4299 0.7326 0.2051
C33_4 C 0.17838(19) 0.6175(2) 0.21531(17)
C34_4 C 0.1536(2) 0.5717(2) 0.14134(17)
H21_4 H 0.1785 0.5876 0.1013
C35_4 C 0.0933(2) 0.5035(2) 0.12648(17)
H22_4 H 0.0777 0.4732 0.0757
C36_4 C 0.0741(2) 0.5265(2) 0.24879(19)
H23_4 H 0.0444 0.5127 0.2856
C37_4 C 0.1337(2) 0.5950(2) 0.26814(19)
H24_4 H 0.1448 0.6273 0.3175
O11_4 O 0.65924(15) 0.89432(19) 0.42311(13)
H25_4 H 0.6677 0.9201 0.3795
H26_4 H 0.6945 0.8464 0.4419
C5_4 C 0.55744(19) 0.7779(2) 0.95370(16)
C6_4 C 0.60061(19) 0.9398(2) 0.98728(17)
H2_4 H 0.5977 0.9481 0.9326
loop_
_geom_bond_atom_site_label_1
_geom_bond_atom_site_label_2
_geom_bond_site_symmetry_1
_geom_bond_site_symmetry_2
O3 C5 1_555 1_555
O4 C5 1_555 1_555
H2 C6 1_555 1_555
Zn3 O3 1_555 1_555
O4 Zn3 1_555 1_555
Zn1 O1 1_555 1_555
O1 C1 1_555 1_555
O2 C1 1_555 1_555
C1 C2 1_555 1_555
C2 C3 1_555 1_555
C3 H1 1_555 1_555
C4 C3 1_555 1_555
C8 C2 1_555 1_555
N1 Zn1 1_555 1_555
C22 N1 1_555 1_555
H12 C22 1_555 1_555
N3 Zn1 1_555 1_555
C28 N3 1_555 1_555
H17 C28 1_555 1_555
C29 C28 1_555 1_555
H18 C29 1_555 1_555
C30 C29 1_555 1_555
C31 C30 1_555 1_555
H19 C31 1_555 1_555
C32 N3 1_555 1_555
H20 C32 1_555 1_555
C33 C30 1_555 1_555
C34 C33 1_555 1_555
H21 C34 1_555 1_555
C35 C34 1_555 1_555
H22 C35 1_555 1_555
N4 C35 1_555 1_555
C36 N4 1_555 1_555
H23 C36 1_555 1_555
C37 C33 1_555 1_555
H24 C37 1_555 1_555
O11 Zn1 1_555 1_555
H25 O11 1_555 1_555
H26 O11 1_555 1_555
O12 Zn1 1_555 1_555
O13 Zn1 1_555 1_555
C31 C32 1_555 1_555
C36 C37 1_555 1_555
Zn2 O7 1_555 1_555
H4 C9 1_555 1_555
H5 C9 1_555 1_555
O6 C9 1_555 1_555
C10 O6 1_555 1_555
C11 C10 1_555 1_555
H6 C11 1_555 1_555
C12 C11 1_555 1_555
C13 C12 1_555 1_555
O7 C13 1_555 1_555
O8 C13 1_555 1_555
C14 C12 1_555 1_555
H7 C14 1_555 1_555
C15 C14 1_555 1_555
C17 C10 1_555 1_555
O14 Zn2 1_555 1_555
O15 Zn2 1_555 1_555
C15 C17 1_555 1_555
O5 C7 1_555 1_555
O9 C16 1_555 1_555
O10 C16 1_555 1_555
H9 C18 1_555 1_555
C19 C18 1_555 1_555
H10 C19 1_555 1_555
C20 C19 1_555 1_555
C21 C20 1_555 1_555
H11 C21 1_555 1_555
C23 C20 1_555 1_555
C24 C23 1_555 1_555
H13 C24 1_555 1_555
C25 C24 1_555 1_555
H14 C25 1_555 1_555
N2 C25 1_555 1_555
C26 N2 1_555 1_555
H15 C26 1_555 1_555
C27 C23 1_555 1_555
H16 C27 1_555 1_555
Zn6 O9 1_555 1_555
O10 Zn6 1_555 1_555
C26 C27 1_555 1_555
Zn3 O1_2 1_555 1_555
Zn6 O7_2 1_555 1_555
O1_2 C1_2 1_555 1_555
O2_2 C1_2 1_555 1_555
C1_2 C2_2 1_555 1_555
C2_2 C3_2 1_555 1_555
C3_2 H1_2 1_555 1_555
C4_2 C3_2 1_555 1_555
C5_2 C4_2 1_555 1_555
O12 C5_2 1_555 1_555
O13 C5_2 1_555 1_555
C6_2 C4_2 1_555 1_555
H2_2 C6_2 1_555 1_555
C7_2 C6_2 1_555 1_555
C8_2 C2_2 1_555 1_555
H3_2 C8_2 1_555 1_555
O5_2 C7_2 1_555 1_555
C9_2 O5_2 1_555 1_555
H4_2 C9_2 1_555 1_555
H5_2 C9_2 1_555 1_555
O6_2 C9_2 1_555 1_555
C10_2 O6_2 1_555 1_555
C11_2 C10_2 1_555 1_555
H6_2 C11_2 1_555 1_555
C12_2 C11_2 1_555 1_555
C13_2 C12_2 1_555 1_555
O7_2 C13_2 1_555 1_555
O8_2 C13_2 1_555 1_555
C14_2 C12_2 1_555 1_555
H7_2 C14_2 1_555 1_555
C15_2 C14_2 1_555 1_555
C16_2 C15_2 1_555 1_555
O14 C16_2 1_555 1_555
O15 C16_2 1_555 1_555
C17_2 C10_2 1_555 1_555
H8_2 C17_2 1_555 1_555
N1_2 Zn3 1_555 1_555
C18_2 N1_2 1_555 1_555
H9_2 C18_2 1_555 1_555
C19_2 C18_2 1_555 1_555
H10_2 C19_2 1_555 1_555
C20_2 C19_2 1_555 1_555
C21_2 C20_2 1_555 1_555
H11_2 C21_2 1_555 1_555
C22_2 N1_2 1_555 1_555
H12_2 C22_2 1_555 1_555
C23_2 C20_2 1_555 1_555
C24_2 C23_2 1_555 1_555
H13_2 C24_2 1_555 1_555
C25_2 C24_2 1_555 1_555
H14_2 C25_2 1_555 1_555
N5 C25_2 1_555 1_555
C26_2 N5 1_555 1_555
H15_2 C26_2 1_555 1_555
C27_2 C23_2 1_555 1_555
H16_2 C27_2 1_555 1_555
N3_2 Zn3 1_555 1_555
C28_2 N3_2 1_555 1_555
H17_2 C28_2 1_555 1_555
C29_2 C28_2 1_555 1_555
H18_2 C29_2 1_555 1_555
C30_2 C29_2 1_555 1_555
C31_2 C30_2 1_555 1_555
H19_2 C31_2 1_555 1_555
C32_2 N3_2 1_555 1_555
H20_2 C32_2 1_555 1_555
C33_2 C30_2 1_555 1_555
C34_2 C33_2 1_555 1_555
H21_2 C34_2 1_555 1_555
C35_2 C34_2 1_555 1_555
H23_2 C36_2 1_555 1_555
C37_2 C33_2 1_555 1_555
H24_2 C37_2 1_555 1_555
O11_2 Zn3 1_555 1_555
H25_2 O11_2 1_555 1_555
H26_2 O11_2 1_555 1_555
C7_2 C8_2 1_555 1_555
C15_2 C17_2 1_555 1_555
C21_2 C22_2 1_555 1_555
C26_2 C27_2 1_555 1_555
C31_2 C32_2 1_555 1_555
C36_2 C37_2 1_555 1_555
Zn1_2 O1_3 1_555 1_555
Zn2_2 O7_3 1_555 1_555
O1_3 C1_3 1_555 1_555
O2_3 C1_3 1_555 1_555
C1_3 C2_3 1_555 1_555
C2_3 C3_3 1_555 1_555
C3_3 H1_3 1_555 1_555
C4_3 C3_3 1_555 1_555
C5_3 C4_3 1_555 1_555
O3_2 C5_3 1_555 1_555
O4_2 C5_3 1_555 1_555
C6_3 C4_3 1_555 1_555
H2_3 C6_3 1_555 1_555
C7_3 C6_3 1_555 1_555
C8_3 C2_3 1_555 1_555
H3_3 C8_3 1_555 1_555
O5_3 C7_3 1_555 1_555
C9_3 O5_3 1_555 1_555
H4_3 C9_3 1_555 1_555
H5_3 C9_3 1_555 1_555
O6_3 C9_3 1_555 1_555
C10_3 O6_3 1_555 1_555
C11_3 C10_3 1_555 1_555
H6_3 C11_3 1_555 1_555
C12_3 C11_3 1_555 1_555
C13_3 C12_3 1_555 1_555
O7_3 C13_3 1_555 1_555
O8_3 C13_3 1_555 1_555
C14_3 C12_3 1_555 1_555
H7_3 C14_3 1_555 1_555
C15_3 C14_3 1_555 1_555
C16_3 C15_3 1_555 1_555
O9_2 C16_3 1_555 1_555
O10_2 C16_3 1_555 1_555
C17_3 C10_3 1_555 1_555
H8_3 C17_3 1_555 1_555
N1_3 Zn1_2 1_555 1_555
C18_3 N1_3 1_555 1_555
H9_3 C18_3 1_555 1_555
C19_3 C18_3 1_555 1_555
H10_3 C19_3 1_555 1_555
C20_3 C19_3 1_555 1_555
C21_3 C20_3 1_555 1_555
H11_3 C21_3 1_555 1_555
C22_3 N1_3 1_555 1_555
H12_3 C22_3 1_555 1_555
C23_3 C20_3 1_555 1_555
C24_3 C23_3 1_555 1_555
H13_3 C24_3 1_555 1_555
C25_3 C24_3 1_555 1_555
H14_3 C25_3 1_555 1_555
N2_2 C25_3 1_555 1_555
C26_3 N2_2 1_555 1_555
H15_3 C26_3 1_555 1_555
C27_3 C23_3 1_555 1_555
H16_3 C27_3 1_555 1_555
N3_3 Zn1_2 1_555 1_555
C28_3 N3_3 1_555 1_555
H17_3 C28_3 1_555 1_555
C29_3 C28_3 1_555 1_555
H18_3 C29_3 1_555 1_555
C30_3 C29_3 1_555 1_555
C31_3 C30_3 1_555 1_555
H19_3 C31_3 1_555 1_555
C32_3 N3_3 1_555 1_555
H20_3 C32_3 1_555 1_555
C33_3 C30_3 1_555 1_555
C34_3 C33_3 1_555 1_555
H21_3 C34_3 1_555 1_555
C35_3 C34_3 1_555 1_555
H23_3 C36_3 1_555 1_555
C37_3 C33_3 1_555 1_555
H24_3 C37_3 1_555 1_555
O11_3 Zn1_2 1_555 1_555
H25_3 O11_3 1_555 1_555
H26_3 O11_3 1_555 1_555
Zn3_2 O3_2 1_555 1_555
Zn4 O9_2 1_555 1_555
O12_2 Zn1_2 1_555 1_555
O13_2 Zn1_2 1_555 1_555
O14_2 Zn2_2 1_555 1_555
O15_2 Zn2_2 1_555 1_555
O4_2 Zn3_2 1_555 1_555
C7_3 C8_3 1_555 1_555
C15_3 C17_3 1_555 1_555
O10_2 Zn4 1_555 1_555
C21_3 C22_3 1_555 1_555
C26_3 C27_3 1_555 1_555
C31_3 C32_3 1_555 1_555
C36_3 C37_3 1_555 1_555
O5_4 C7_4 1_555 1_555
O14_2 C16_4 1_555 1_555
O15_2 C16_4 1_555 1_555
H9_4 C18_4 1_555 1_555
C19_4 C18_4 1_555 1_555
H10_4 C19_4 1_555 1_555
C20_4 C19_4 1_555 1_555
C21_4 C20_4 1_555 1_555
H11_4 C21_4 1_555 1_555
C23_4 C20_4 1_555 1_555
C24_4 C23_4 1_555 1_555
H13_4 C24_4 1_555 1_555
C25_4 C24_4 1_555 1_555
H14_4 C25_4 1_555 1_555
N5_2 C25_4 1_555 1_555
C26_4 N5_2 1_555 1_555
H15_4 C26_4 1_555 1_555
C27_4 C23_4 1_555 1_555
H16_4 C27_4 1_555 1_555
C26_4 C27_4 1_555 1_555
Zn4 O7_4 1_555 1_555
H4_4 C9_4 1_555 1_555
H5_4 C9_4 1_555 1_555
O6_4 C9_4 1_555 1_555
C10_4 O6_4 1_555 1_555
C11_4 C10_4 1_555 1_555
H6_4 C11_4 1_555 1_555
C12_4 C11_4 1_555 1_555
C13_4 C12_4 1_555 1_555
O7_4 C13_4 1_555 1_555
O8_4 C13_4 1_555 1_555
C14_4 C12_4 1_555 1_555
H7_4 C14_4 1_555 1_555
C15_4 C14_4 1_555 1_555
C17_4 C10_4 1_555 1_555
C15_4 C17_4 1_555 1_555
Zn3_2 O1_4 1_555 1_555
O1_4 C1_4 1_555 1_555
O2_4 C1_4 1_555 1_555
C1_4 C2_4 1_555 1_555
C2_4 C3_4 1_555 1_555
C3_4 H1_4 1_555 1_555
C4_4 C3_4 1_555 1_555
C8_4 C2_4 1_555 1_555
N1_4 Zn3_2 1_555 1_555
C22_4 N1_4 1_555 1_555
H12_4 C22_4 1_555 1_555
N3_4 Zn3_2 1_555 1_555
C28_4 N3_4 1_555 1_555
H17_4 C28_4 1_555 1_555
C29_4 C28_4 1_555 1_555
H18_4 C29_4 1_555 1_555
C30_4 C29_4 1_555 1_555
C31_4 C30_4 1_555 1_555
H19_4 C31_4 1_555 1_555
C32_4 N3_4 1_555 1_555
H20_4 C32_4 1_555 1_555
C33_4 C30_4 1_555 1_555
C34_4 C33_4 1_555 1_555
H21_4 C34_4 1_555 1_555
C35_4 C34_4 1_555 1_555
H22_4 C35_4 1_555 1_555
N6_2 C35_4 1_555 1_555
C36_4 N6_2 1_555 1_555
H23_4 C36_4 1_555 1_555
C37_4 C33_4 1_555 1_555
H24_4 C37_4 1_555 1_555
O11_4 Zn3_2 1_555 1_555
H25_4 O11_4 1_555 1_555
H26_4 O11_4 1_555 1_555
C31_4 C32_4 1_555 1_555
C36_4 C37_4 1_555 1_555
O12_2 C5_4 1_555 1_555
O13_2 C5_4 1_555 1_555
H2_4 C6_4 1_555 1_555

#END
