
###############################################################################
#
# This file contains modified crystal structure data generated from the
# MOF subset of the Cambridge Structural Database (CSD) v543 
# hosted by the Cambridge Crystallographic Data Centre (CCDC).
#
# This work is licensed under the Creative Commons
# Attribution-NonCommercial-ShareAlike 4.0 International License.
# To view a copy of this license, visit
# http://creativecommons.org/licenses/by-nc-sa/4.0/
# or send a letter to
# Creative Commons, PO Box 1866, Mountain View, CA 94042, USA.
#
# CIF created using the CSD Python API on 29 September 2022
# The structure has been converted into the P1 space group
# The structure has a 3D framework
# The original CSD entry UJARAZ is in the triclinic crystal system
# The framework has been calculated to contain at least 10.0% void space
# The void calculation uses a probe of radius 1.32A, grid spacing 0.4
#
###############################################################################

data_UJARAZ
_chemical_formula_moiety         '(C36 H24 Ni4 O24)n'
_symmetry_cell_setting           triclinic
_symmetry_space_group_name_H-M   'P 1'
_symmetry_Int_Tables_number      1
_space_group_name_Hall           'P 1'
loop_
_symmetry_equiv_pos_site_id
_symmetry_equiv_pos_as_xyz
1 x,y,z
_cell_length_a                   10.0777(2)
_cell_length_b                   11.0012(2)
_cell_length_c                   15.0573(3)
_cell_angle_alpha                72.9490(12)
_cell_angle_beta                 77.0468(11)
_cell_angle_gamma                81.3705(10)
_cell_volume                     1548.98
loop_
_atom_site_label
_atom_site_type_symbol
_atom_site_fract_x
_atom_site_fract_y
_atom_site_fract_z
C3 C 0.3383(2) 0.0751(2) 0.37525(16)
H1 H 0.4009 0.0473 0.4174
C4 C 0.2925(2) 0.2035(2) 0.34739(17)
C5 C 0.3515(2) 0.2993(2) 0.37661(18)
O3 O 0.37719(17) 0.26515(15) 0.45973(12)
O4 O 0.3732(2) 0.40387(15) 0.31654(12)
C6 C 0.1943(3) 0.2445(2) 0.28884(17)
H2 H 0.1621 0.3322 0.2702
C7 C 0.1451(2) 0.1549(2) 0.25873(16)
C8 C 0.1952(3) 0.0287(2) 0.28324(17)
O5 O 0.04759(19) 0.18151(15) 0.20364(13)
H4 H 0.0402 0.3728 0.1749
O6 O 0.06554(19) 0.3328(2) 0.01902(13)
Ni3 Ni 0.49609(3) 0.35831(3) 0.50768(2)
Ni6 Ni 0.36319(3) 0.59119(3) 0.32499(2)
C11 C 0.0653(3) 0.3437(2) 0.92575(17)
C12 C 0.1929(3) 0.3486(2) 0.86783(18)
H8 H 0.2717 0.3441 0.8938
C13 C 0.2069(3) 0.3601(2) 0.77128(17)
C14 C 0.3443(3) 0.3634(2) 0.70831(17)
O7 O 0.35319(17) 0.33552(16) 0.63163(12)
O8 O 0.43953(17) 0.39591(16) 0.73636(12)
C15 C 0.0889(3) 0.3694(2) 0.73416(18)
H9 H 0.0968 0.3784 0.6685
Ni7 Ni 0.63681(3) 0.40881(3) 0.67501(2)
Ni1 Ni 0.50391(3) 0.64169(3) 0.49232(2)
O1 O 0.33188(19) 0.78157(14) 0.31620(12)
O2 O 0.40344(19) 0.81307(15) 0.43859(12)
C1 C 0.3471(2) 0.8492(2) 0.36751(17)
C2 C 0.2924(2) 0.9871(2) 0.34145(16)
H3 H 0.1633 0.9690 0.2603
O11 O 0.38875(16) 0.53181(14) 0.45857(11)
O12 O 0.35506(19) 0.64026(17) 0.61726(13)
H11 H 0.3869 0.5898 0.6678
H12 H 0.3592 0.6034 0.5710
O13 O 0.62281(17) 0.73485(15) 0.54027(12)
O15 O 0.64681(17) 0.66448(16) 0.36837(12)
O16 O 0.56047(17) 0.60409(16) 0.26364(12)
O17 O 0.14896(18) 0.59134(16) 0.33997(12)
O18 O 0.27902(17) 0.63891(15) 0.19753(12)
O19 O 0.61125(16) 0.46819(14) 0.54143(11)
C16 C 0.9620(2) 0.3655(2) 0.79184(16)
C17 C 0.8372(3) 0.3780(2) 0.75017(18)
O9 O 0.85104(18) 0.40866(16) 0.66003(12)
O10 O 0.72098(17) 0.36109(15) 0.80247(12)
C18 C 0.9473(3) 0.3526(2) 0.88936(17)
H10 H 0.8596 0.3499 0.9293
C16_2 C 0.0380(2) 0.6345(2) 0.20816(16)
C17_2 C 0.1628(3) 0.6220(2) 0.24983(18)
C18_2 C 0.0527(3) 0.6474(2) 0.11064(17)
H10_2 H 0.1404 0.6501 0.0707
O1_2 O 0.66812(19) 0.21843(14) 0.68380(12)
O2_2 O 0.59656(19) 0.18693(15) 0.56141(12)
C1_2 C 0.6529(2) 0.1508(2) 0.63249(17)
C2_2 C 0.7076(2) 0.0129(2) 0.65855(16)
H3_2 H 0.8367 0.0310 0.7397
O12_2 O 0.64494(19) 0.35974(17) 0.38274(13)
H11_2 H 0.6131 0.4102 0.3322
H12_2 H 0.6408 0.3966 0.4290
O14 O 0.6268(2) 0.59613(15) 0.68346(12)
C11_2 C 0.9347(3) 0.6563(2) 0.07425(17)
C12_2 C 0.8071(3) 0.6514(2) 0.13217(18)
H8_2 H 0.7283 0.6559 0.1062
C13_2 C 0.7931(3) 0.6399(2) 0.22872(17)
C14_2 C 0.6557(3) 0.6366(2) 0.29169(17)
C15_2 C 0.9111(3) 0.6306(2) 0.26584(18)
H9_2 H 0.9032 0.6216 0.3315
C3_2 C 0.6617(2) 0.9249(2) 0.62475(16)
H1_2 H 0.5991 0.9527 0.5826
C4_2 C 0.7075(2) 0.7965(2) 0.65261(17)
C5_2 C 0.6485(2) 0.7007(2) 0.62339(18)
C6_2 C 0.8057(3) 0.7555(2) 0.71116(17)
H2_2 H 0.8379 0.6678 0.7298
C7_2 C 0.8549(2) 0.8451(2) 0.74127(16)
C8_2 C 0.8048(3) 0.9713(2) 0.71676(17)
O5_2 O 0.95241(19) 0.81849(15) 0.79636(13)
H4_2 H 0.9598 0.6272 0.8251
O6_2 O 0.93446(19) 0.6672(2) 0.98098(13)
C9 C 0.9790(3) 0.3080(2) 0.17930(17)
H5 H 0.8961 0.3166 0.2276
C10 C 0.9412(2) 0.3251(2) 0.08491(17)
H6 H 0.8942 0.2517 0.0860
H7 H 0.8799 0.4041 0.0685
C9_2 C 0.0210(3) 0.6920(2) 0.82070(17)
H5_2 H 0.1039 0.6834 0.7724
C10_2 C 0.0588(2) 0.6749(2) 0.91509(17)
H6_2 H 0.1058 0.7483 0.9140
H7_2 H 0.1201 0.5959 0.9315
loop_
_geom_bond_atom_site_label_1
_geom_bond_atom_site_label_2
_geom_bond_site_symmetry_1
_geom_bond_site_symmetry_2
C3 H1 1_555 1_555
C4 C3 1_555 1_555
C5 C4 1_555 1_555
O3 C5 1_555 1_555
O4 C5 1_555 1_555
C6 C4 1_555 1_555
H2 C6 1_555 1_555
C7 C6 1_555 1_555
O5 C7 1_555 1_555
Ni3 O3 1_555 1_555
Ni6 O4 1_555 1_555
C7 C8 1_555 1_555
C12 C11 1_555 1_555
H8 C12 1_555 1_555
C13 C12 1_555 1_555
C14 C13 1_555 1_555
O7 C14 1_555 1_555
O8 C14 1_555 1_555
C15 C13 1_555 1_555
H9 C15 1_555 1_555
Ni3 O7 1_555 1_555
Ni7 O8 1_555 1_555
Ni1 O2 1_555 1_555
Ni6 O1 1_555 1_555
O1 C1 1_555 1_555
O2 C1 1_555 1_555
C1 C2 1_555 1_555
O11 Ni1 1_555 1_555
O12 Ni1 1_555 1_555
H11 O12 1_555 1_555
H12 O12 1_555 1_555
Ni3 O11 1_555 1_555
O13 Ni1 1_555 1_555
O15 Ni1 1_555 1_555
O16 Ni6 1_555 1_555
O17 Ni6 1_555 1_555
O18 Ni6 1_555 1_555
O19 Ni1 1_555 1_555
Ni6 O11 1_555 1_555
Ni3 O19 1_555 1_555
C17 C16 1_555 1_555
O9 C17 1_555 1_555
O10 C17 1_555 1_555
H10 C18 1_555 1_555
Ni7 O9 1_555 1_555
C16 C18 1_555 1_555
O10 Ni7 1_555 1_555
C17_2 C16_2 1_555 1_555
O17 C17_2 1_555 1_555
O18 C17_2 1_555 1_555
H10_2 C18_2 1_555 1_555
C16_2 C18_2 1_555 1_555
Ni3 O2_2 1_555 1_555
Ni7 O1_2 1_555 1_555
O1_2 C1_2 1_555 1_555
O2_2 C1_2 1_555 1_555
C1_2 C2_2 1_555 1_555
O12_2 Ni3 1_555 1_555
H11_2 O12_2 1_555 1_555
H12_2 O12_2 1_555 1_555
O14 Ni7 1_555 1_555
Ni7 O19 1_555 1_555
C12_2 C11_2 1_555 1_555
H8_2 C12_2 1_555 1_555
C13_2 C12_2 1_555 1_555
C14_2 C13_2 1_555 1_555
O15 C14_2 1_555 1_555
O16 C14_2 1_555 1_555
C15_2 C13_2 1_555 1_555
H9_2 C15_2 1_555 1_555
C3_2 H1_2 1_555 1_555
C4_2 C3_2 1_555 1_555
C5_2 C4_2 1_555 1_555
O13 C5_2 1_555 1_555
O14 C5_2 1_555 1_555
C6_2 C4_2 1_555 1_555
H2_2 C6_2 1_555 1_555
C7_2 C6_2 1_555 1_555
O5_2 C7_2 1_555 1_555
C7_2 C8_2 1_555 1_555
H5 C9 1_555 1_555
C10 C9 1_555 1_555
H6 C10 1_555 1_555
H7 C10 1_555 1_555
H5_2 C9_2 1_555 1_555
C10_2 C9_2 1_555 1_555
H6_2 C10_2 1_555 1_555
H7_2 C10_2 1_555 1_555

#END
