
###############################################################################
#
# This file contains modified crystal structure data generated from the
# MOF subset of the Cambridge Structural Database (CSD) v543 
# hosted by the Cambridge Crystallographic Data Centre (CCDC).
#
# This work is licensed under the Creative Commons
# Attribution-NonCommercial-ShareAlike 4.0 International License.
# To view a copy of this license, visit
# http://creativecommons.org/licenses/by-nc-sa/4.0/
# or send a letter to
# Creative Commons, PO Box 1866, Mountain View, CA 94042, USA.
#
# CIF created using the CSD Python API on 29 September 2022
# The structure has been converted into the P1 space group
# The structure has a 3D framework
# The original CSD entry UJECUI is in the rhombohedral crystal system
# The original CSD entry UJECUI is in a Sohncke space group
# The framework has been calculated to contain at least 10.0% void space
# The void calculation uses a probe of radius 1.32A, grid spacing 0.4
# H atom positions have been added when not included in the experimental data
#
###############################################################################

data_UJECUI
_chemical_formula_moiety         '(C54 H108 Co4 La10 N18 O36 S15)n'
_symmetry_cell_setting           triclinic
_symmetry_space_group_name_H-M   'P 1'
_symmetry_Int_Tables_number      1
_space_group_name_Hall           'P 1'
loop_
_symmetry_equiv_pos_site_id
_symmetry_equiv_pos_as_xyz
1 x,y,z
_cell_length_a                   10.454(2)
_cell_length_b                   10.454(2)
_cell_length_c                   33.383(9)
_cell_angle_alpha                90
_cell_angle_beta                 90
_cell_angle_gamma                120
_cell_volume                     3159.52
loop_
_atom_site_label
_atom_site_type_symbol
_atom_site_fract_x
_atom_site_fract_y
_atom_site_fract_z
La1 La 0.0000 0.0000 0.0000
Co7 Co 0.3333 0.6666 0.081225(12)
Co12 Co 0.3334 0.6667 0.1667
S6 S 0.22891(7) 0.47495(5) 0.123425(13)
O7 O 0.17486(19) 0.15032(19) 0.05847(5)
O12 O 0.1547(3) 0.31024(19) 0.01964(4)
N6 N 0.40050(28) 0.5508(2) 0.04891(5)
H10 H 0.3614 0.5386 0.0236
H19 H 0.5016 0.6052 0.0466
C8 C 0.3511(3) 0.4034(3) 0.11077(7)
H28 H 0.4504 0.4671 0.1224
H33 H 0.3111 0.3021 0.1214
C13 C 0.3599(2) 0.4028(2) 0.06519(7)
H38 H 0.4411 0.3827 0.0580
C18 C 0.2178(2) 0.2807(3) 0.04658(7)
La1_2 La 0.0000 0.0000 1.0000
Co1 Co 0.6666 0.3333 0.918775(12)
Co2 Co 0.6667 0.3334 0.8333
S1 S 0.47495(5) 0.22891(7) 0.876575(13)
O1 O 0.15032(19) 0.17486(19) 0.94153(5)
O2 O 0.31024(19) 0.1547(3) 0.98036(4)
N1 N 0.5508(2) 0.40050(28) 0.95109(5)
H1 H 0.5386 0.3614 0.9764
H2 H 0.6052 0.5016 0.9534
C1 C 0.4034(3) 0.3511(3) 0.88923(7)
H3 H 0.4671 0.4504 0.8776
H4 H 0.3021 0.3111 0.8786
C2 C 0.4028(2) 0.3599(2) 0.93481(7)
H5 H 0.3827 0.4411 0.9420
C3 C 0.2807(3) 0.2178(2) 0.95342(7)
S7 S 0.77109(7) 0.24604(9) 0.876575(13)
S8 S 0.75396(9) 0.52505(5) 0.876575(13)
S9 S 0.57937(9) 0.43776(7) 0.790092(13)
S10 S 0.85838(5) 0.42063(9) 0.790092(13)
S11 S 0.56224(7) 0.14162(5) 0.790092(13)
N7 N 0.59950(28) 0.15030(34) 0.95109(5)
N8 N 0.84970(34) 0.4492(2) 0.95109(5)
H11 H 0.6386 0.1772 0.9764
H12 H 0.8228 0.4614 0.9764
H20 H 0.4984 0.1036 0.9534
H21 H 0.8964 0.3948 0.9534
H40 H 0.917188 0.548442 0.938099
H41 H 0.631255 0.0828134 0.938099
La1_3 La 0.0000 1.0000 0.0000
S4 S 0.24604(9) 0.77109(7) 0.123425(13)
O10 O 0.15554(36) 0.8453(3) 0.01964(4)
N4 N 0.15030(34) 0.59950(28) 0.04891(5)
H8 H 0.1772 0.6386 0.0236
H17 H 0.1036 0.4984 0.0466
C6 C 0.0523(4) 0.6489(3) 0.11077(7)
H26 H 0.0167 0.5496 0.1224
C11 C 0.0429(3) 0.6401(2) 0.06519(7)
C16 C 0.0629(4) 0.7822(2) 0.04658(7)
La1_4 La 1.0000 0.0000 1.0000
O8 O 0.8453(3) 0.15554(36) 0.98036(4)
C4 C 0.6489(3) 0.0523(4) 0.88923(7)
H24 H 0.5496 0.0167 0.8776
C9 C 0.6401(2) 0.0429(3) 0.93481(7)
C14 C 0.7822(2) 0.0629(4) 0.95342(7)
H39 H 0.451558 0.368746 0.938099
La1_5 La 1.0000 1.0000 0.0000
S5 S 0.52505(5) 0.75396(9) 0.123425(13)
O5 O 0.97546(27) 0.82514(19) 0.05847(5)
O11 O 0.68976(19) 0.84446(36) 0.01964(4)
N5 N 0.4492(2) 0.84970(34) 0.04891(5)
H9 H 0.4614 0.8228 0.0236
H18 H 0.3948 0.8964 0.0466
C7 C 0.5966(3) 0.9477(4) 0.11077(7)
H27 H 0.5329 0.9833 0.1224
H31 H 0.9910 0.6889 0.1214
C12 C 0.5972(2) 0.9571(3) 0.06519(7)
H36 H 0.9416 0.5589 0.0580
C17 C 0.7193(3) 0.9371(4) 0.04658(7)
La1_6 La 1.0000 1.0000 1.0000
O3 O 0.82514(19) 0.97546(27) 0.94153(5)
O9 O 0.84446(36) 0.68976(19) 0.98036(4)
C5 C 0.9477(4) 0.5966(3) 0.88923(7)
H25 H 0.9833 0.5329 0.8776
H29 H 0.6889 0.9910 0.8786
C10 C 0.9571(3) 0.5972(2) 0.93481(7)
H34 H 0.5589 0.9416 0.9420
C15 C 0.9371(4) 0.7193(3) 0.95342(7)
S9_2 S 0.14162(11) 0.56224(7) 0.209908(13)
S10_2 S 0.43776(10) 0.57937(9) 0.209908(13)
S11_2 S 0.42063(9) 0.85838(5) 0.209908(13)
H40_2 H 0.368746 0.451558 0.0619006
H41_2 H 0.548442 0.917187 0.061901
H39_2 H 0.0828121 0.631254 0.0619006
Co7_2 Co -0.0000 -0.0001 0.414558(12)
Co12_2 Co 0.0001 0.0000 0.5000
Co1_2 Co 0.3333 0.6666 0.252108(12)
N1_2 N 0.2175(2) 0.73383(28) 0.28442(5)
H1_2 H 0.2053 0.6947 0.3097
H2_2 H 0.2719 0.8349 0.2867
C1_2 C 0.0701(3) 0.6844(3) 0.22256(7)
H3_2 H 0.1338 0.7837 0.2109
C2_2 C 0.0695(2) 0.6932(2) 0.26814(7)
H5_2 H 0.0494 0.7744 0.2753
Co7_3 Co -0.0000 0.9999 0.414558(12)
Co12_3 Co 0.0001 1.0000 0.5000
N6_2 N 0.06717(28) 0.8841(2) 0.38224(5)
N7_2 N 0.26617(28) 0.48363(34) 0.28442(5)
N8_2 N 0.51637(34) 0.7825(2) 0.28442(5)
H10_2 H 0.0281 0.8719 0.3569
H11_2 H 0.3053 0.5105 0.3097
H12_2 H 0.4895 0.7947 0.3097
H19_2 H 0.1683 0.9385 0.3799
H20_2 H 0.1651 0.4369 0.2867
H21_2 H 0.5631 0.7281 0.2867
C8_2 C 0.0178(3) 0.7367(3) 0.44410(7)
H28_2 H 0.1171 0.8004 0.4557
C13_2 C 0.0266(2) 0.7361(2) 0.39852(7)
H38_2 H 0.1078 0.7160 0.3913
H40_3 H 0.583855 0.881776 0.271433
H41_3 H 0.297922 0.416147 0.271432
Co7_4 Co 1.0000 -0.0001 0.414558(12)
Co12_4 Co 1.0001 0.0000 0.5000
La1_7 La 0.6667 0.3333 0.3333
O1_2 O 0.81699(19) 0.50819(19) 0.27486(5)
O2_2 O 0.97691(19) 0.4880(3) 0.31369(4)
H4_2 H 0.9688 0.6444 0.2119
C3_2 C 0.9474(3) 0.5511(2) 0.28675(7)
Co7_5 Co 1.0000 0.9999 0.414558(12)
Co12_5 Co 1.0001 1.0000 0.5000
S4_2 S 0.91271(9) 0.10442(7) 0.456758(13)
S5_2 S 0.19172(5) 0.08729(9) 0.456758(13)
S6_2 S 0.89558(7) 0.80828(5) 0.456758(13)
O3_2 O 0.49181(19) 0.30879(27) 0.27486(5)
O4 O 0.69121(27) 0.18301(19) 0.27486(5)
O5_2 O 0.64213(27) 0.15847(19) 0.39180(5)
O6 O 0.51635(19) 0.35787(27) 0.39180(5)
O7_2 O 0.84153(19) 0.48365(19) 0.39180(5)
O8_2 O 0.5120(3) 0.48887(36) 0.31369(4)
O9_2 O 0.51113(36) 0.02309(19) 0.31369(4)
O10_2 O 0.82221(36) 0.1786(3) 0.35297(4)
O11_2 O 0.35643(19) 0.17779(36) 0.35297(4)
O12_2 O 0.8214(3) 0.64357(19) 0.35297(4)
N5_2 N 0.1159(2) 0.18303(34) 0.38224(5)
H9_2 H 0.1281 0.1561 0.3569
H18_2 H 0.0615 0.2297 0.3799
C4_2 C 0.3156(3) 0.3856(4) 0.22256(7)
C7_2 C 0.2633(3) 0.2810(4) 0.44410(7)
H24_2 H 0.2163 0.3500 0.2109
H27_2 H 0.1996 0.3166 0.4557
H29_2 H 0.3556 0.3243 0.2119
H30 H 0.6757 0.0312 0.2119
H31_2 H 0.6577 0.0222 0.4547
H32 H 0.3646 0.3423 0.4547
H33_2 H 0.9778 0.6354 0.4547
C9_2 C 0.3068(2) 0.3762(3) 0.26814(7)
C12_2 C 0.2639(2) 0.2904(3) 0.39852(7)
H34_2 H 0.2256 0.2749 0.2753
H37 H 0.2840 0.3917 0.3913
C14_2 C 0.4489(2) 0.3962(4) 0.28675(7)
C15_2 C 0.6038(4) 0.0526(3) 0.28675(7)
C16_2 C 0.7296(4) 0.1155(2) 0.37991(7)
C17_2 C 0.3860(3) 0.2704(4) 0.37991(7)
C18_2 C 0.8845(2) 0.6140(3) 0.37991(7)
H39_3 H 0.118224 0.702079 0.271433
N4_2 N 0.81697(34) 0.93283(28) 0.38224(5)
H8_2 H 0.8439 0.9719 0.3569
H17_2 H 0.7703 0.8317 0.3799
C5_2 C 0.6144(4) 0.9299(3) 0.22256(7)
C6_2 C 0.7190(4) 0.9822(3) 0.44410(7)
H25_2 H 0.6500 0.8662 0.2109
H26_2 H 0.6834 0.8829 0.4557
C10_2 C 0.6238(3) 0.9305(2) 0.26814(7)
C11_2 C 0.7096(3) 0.9734(2) 0.39852(7)
H35 H 0.7251 0.9506 0.2753
H36_2 H 0.6083 0.8922 0.3913
S11_3 S 0.08729(9) 0.19172(5) 0.543242(13)
H41_4 H 0.215109 0.25052 0.395234
S10_3 S 0.10442(10) 0.91271(9) 0.543242(13)
H40_4 H 0.0354122 0.784891 0.395234
S9_3 S 0.80828(11) 0.89558(7) 0.543242(13)
H39_4 H 0.749479 0.964588 0.395234
Co1_3 Co -0.0001 -0.0000 0.585442(12)
N8_3 N 0.18303(34) 0.1159(2) 0.61776(5)
H12_3 H 0.1561 0.1281 0.6431
H21_3 H 0.2297 0.0615 0.6201
H40_5 H 0.250521 0.215109 0.604766
Co1_4 Co -0.0001 1.0000 0.585442(12)
Co1_5 Co 0.9999 -0.0000 0.585442(12)
N1_3 N 0.8841(2) 0.06717(28) 0.61776(5)
H1_3 H 0.8719 0.0281 0.6431
H2_3 H 0.9385 0.1683 0.6201
C1_3 C 0.7367(3) 0.0178(3) 0.55590(7)
H3_3 H 0.8004 0.1171 0.5443
C2_3 C 0.7361(2) 0.0266(2) 0.60148(7)
H5_3 H 0.7160 0.1078 0.6087
Co7_6 Co 0.6666 0.3333 0.747892(12)
N6_3 N 0.73383(28) 0.2175(2) 0.71558(5)
H10_3 H 0.6947 0.2053 0.6903
H19_3 H 0.8349 0.2719 0.7133
C8_3 C 0.6844(3) 0.0701(3) 0.77744(7)
H28_3 H 0.7837 0.1338 0.7891
C13_3 C 0.6932(2) 0.0695(2) 0.73186(7)
H38_3 H 0.7744 0.0494 0.7247
La1_8 La 0.3333 0.6667 0.6667
Co1_6 Co 0.9999 1.0000 0.585442(12)
O1_3 O 0.48365(19) 0.84153(19) 0.60820(5)
O2_3 O 0.64357(19) 0.8214(3) 0.64703(4)
H4_3 H 0.6354 0.9778 0.5453
C3_3 C 0.6140(3) 0.8845(2) 0.62009(7)
O3_3 O 0.15847(19) 0.64213(27) 0.60820(5)
O4_2 O 0.35787(27) 0.51635(19) 0.60820(5)
O5_3 O 0.30879(27) 0.49181(19) 0.72514(5)
O6_2 O 0.18301(19) 0.69121(27) 0.72514(5)
O7_3 O 0.50819(19) 0.81699(19) 0.72514(5)
O8_3 O 0.1786(3) 0.82221(36) 0.64703(4)
O9_3 O 0.17779(36) 0.35643(19) 0.64703(4)
O10_3 O 0.48887(36) 0.5120(3) 0.68631(4)
O11_3 O 0.02309(19) 0.51113(36) 0.68631(4)
O12_3 O 0.4880(3) 0.97691(19) 0.68631(4)
N4_3 N 0.48363(34) 0.26617(28) 0.71558(5)
N7_3 N 0.93283(28) 0.81697(34) 0.61776(5)
H8_3 H 0.5105 0.3053 0.6903
H11_3 H 0.9719 0.8439 0.6431
H17_3 H 0.4369 0.1651 0.7133
H20_3 H 0.8317 0.7703 0.6201
C5_3 C 0.2810(4) 0.2633(3) 0.55590(7)
C6_3 C 0.3856(4) 0.3156(3) 0.77744(7)
H25_3 H 0.3166 0.1996 0.5443
H26_3 H 0.3500 0.2163 0.7891
H29_3 H 0.0222 0.6577 0.5453
H30_2 H 0.3423 0.3646 0.5453
H31_3 H 0.3243 0.3556 0.7881
H32_2 H 0.0312 0.6757 0.7881
H33_3 H 0.6444 0.9688 0.7881
C10_3 C 0.2904(3) 0.2639(2) 0.60148(7)
C11_3 C 0.3762(3) 0.3068(2) 0.73186(7)
H35_2 H 0.3917 0.2840 0.6087
H36_3 H 0.2749 0.2256 0.7247
C14_3 C 0.1155(2) 0.7296(4) 0.62009(7)
C15_3 C 0.2704(4) 0.3860(3) 0.62009(7)
C16_3 C 0.3962(4) 0.4489(2) 0.71325(7)
C17_3 C 0.0526(3) 0.6038(4) 0.71325(7)
C18_3 C 0.5511(2) 0.9474(3) 0.71325(7)
H41_5 H 0.964589 0.74948 0.604766
H39_5 H 0.784891 0.0354122 0.604766
N5_3 N 0.7825(2) 0.51637(34) 0.71558(5)
H9_3 H 0.7947 0.4895 0.6903
H18_3 H 0.7281 0.5631 0.7133
C4_3 C 0.9822(3) 0.7190(4) 0.55590(7)
C7_3 C 0.9299(3) 0.6144(4) 0.77744(7)
H24_3 H 0.8829 0.6834 0.5443
H27_3 H 0.8662 0.6500 0.7891
C9_3 C 0.9734(2) 0.7096(3) 0.60148(7)
C12_3 C 0.9305(2) 0.6238(3) 0.73186(7)
H34_3 H 0.8922 0.6083 0.6087
H37_2 H 0.9506 0.7251 0.7247
H40_6 H 0.702079 0.118224 0.728567
H41_6 H 0.881775 0.583853 0.728568
H39_6 H 0.416145 0.297921 0.728567
La1_9 La -0.0000 1.0000 1.0000
O4_3 O 0.02454(27) 0.84968(19) 0.94153(5)
H30_3 H 0.0090 0.6979 0.8786
H35_3 H 0.0584 0.6173 0.9420
La1_10 La 1.0000 0.0000 0.0000
O6_3 O 0.84968(19) 0.02454(27) 0.05847(5)
H32_3 H 0.6979 0.0090 0.1214
H37_3 H 0.6173 0.0584 0.0580
loop_
_geom_bond_atom_site_label_1
_geom_bond_atom_site_label_2
_geom_bond_site_symmetry_1
_geom_bond_site_symmetry_2
Co7 S6 1_555 1_555
Co12 S6 1_555 1_555
S6 C8 1_555 1_555
O7 La1 1_555 1_555
O12 La1 1_555 1_555
N6 Co7 1_555 1_555
H10 N6 1_555 1_555
H19 N6 1_555 1_555
C8 H28 1_555 1_555
H33 C8 1_555 1_555
C13 N6 1_555 1_555
H38 C13 1_555 1_555
C18 O7 1_555 1_555
O12 C18 1_555 1_555
C8 C13 1_555 1_555
C13 C18 1_555 1_555
La1_2 O1 1_555 1_555
Co1 S1 1_555 1_555
Co2 S1 1_555 1_555
S1 C1 1_555 1_555
O1 C3 1_555 1_555
O2 La1_2 1_555 1_555
N1 Co1 1_555 1_555
H1 N1 1_555 1_555
H2 N1 1_555 1_555
C1 H3 1_555 1_555
H4 C1 1_555 1_555
C2 N1 1_555 1_555
H5 C2 1_555 1_555
C3 O2 1_555 1_555
S7 Co1 1_555 1_555
S8 Co1 1_555 1_555
S9 Co2 1_555 1_555
S10 Co2 1_555 1_555
S11 Co2 1_555 1_555
N7 Co1 1_555 1_555
N8 Co1 1_555 1_555
H11 N7 1_555 1_555
H12 N8 1_555 1_555
H20 N7 1_555 1_555
H21 N8 1_555 1_555
Co2 S7 1_555 1_555
Co2 S8 1_555 1_555
C1 C2 1_555 1_555
C2 C3 1_555 1_555
N8 H40 1_555 1_555
N7 H41 1_555 1_555
Co7 S4 1_555 1_555
Co12 S4 1_555 1_555
S4 C6 1_555 1_555
O10 La1_3 1_555 1_555
N4 Co7 1_555 1_555
H8 N4 1_555 1_555
H17 N4 1_555 1_555
C6 H26 1_555 1_555
C11 N4 1_555 1_555
O10 C16 1_555 1_555
C6 C11 1_555 1_555
C11 C16 1_555 1_555
S7 C4 1_555 1_555
O8 La1_4 1_555 1_555
C4 H24 1_555 1_555
C9 N7 1_555 1_555
O8 C14 1_555 1_555
C4 C9 1_555 1_555
C9 C14 1_555 1_555
N1 H39 1_555 1_555
Co7 S5 1_555 1_555
Co12 S5 1_555 1_555
S5 C7 1_555 1_555
O5 La1_5 1_555 1_555
O11 La1_5 1_555 1_555
N5 Co7 1_555 1_555
H9 N5 1_555 1_555
H18 N5 1_555 1_555
C7 H27 1_555 1_555
C12 N5 1_555 1_555
O11 C17 1_555 1_555
C7 C12 1_555 1_555
C12 C17 1_555 1_555
S8 C5 1_555 1_555
O3 La1_6 1_555 1_555
O9 La1_6 1_555 1_555
C5 H25 1_555 1_555
C10 N8 1_555 1_555
O9 C15 1_555 1_555
C5 C10 1_555 1_555
C10 C15 1_555 1_555
S9_2 Co12 1_555 1_555
S10_2 Co12 1_555 1_555
S11_2 Co12 1_555 1_555
N6 H40_2 1_555 1_555
N5 H41_2 1_555 1_555
N4 H39_2 1_555 1_555
Co1_2 S9_2 1_555 1_555
S9_2 C1_2 1_555 1_555
N1_2 Co1_2 1_555 1_555
H1_2 N1_2 1_555 1_555
H2_2 N1_2 1_555 1_555
C1_2 H3_2 1_555 1_555
C2_2 N1_2 1_555 1_555
H5_2 C2_2 1_555 1_555
S10_2 Co1_2 1_555 1_555
S11_2 Co1_2 1_555 1_555
N6_2 Co7_3 1_555 1_555
N7_2 Co1_2 1_555 1_555
N8_2 Co1_2 1_555 1_555
H10_2 N6_2 1_555 1_555
H11_2 N7_2 1_555 1_555
H12_2 N8_2 1_555 1_555
H19_2 N6_2 1_555 1_555
H20_2 N7_2 1_555 1_555
H21_2 N8_2 1_555 1_555
C8_2 H28_2 1_555 1_555
C13_2 N6_2 1_555 1_555
H38_2 C13_2 1_555 1_555
C1_2 C2_2 1_555 1_555
C8_2 C13_2 1_555 1_555
N8_2 H40_3 1_555 1_555
N7_2 H41_3 1_555 1_555
La1_7 O1_2 1_555 1_555
O1_2 C3_2 1_555 1_555
O2_2 La1_7 1_555 1_555
C3_2 O2_2 1_555 1_555
Co7_4 S4_2 1_555 1_555
Co7_2 S5_2 1_555 1_555
Co7_5 S6_2 1_555 1_555
Co12_4 S4_2 1_555 1_555
Co12_2 S5_2 1_555 1_555
Co12_5 S6_2 1_555 1_555
S10_2 C4_2 1_555 1_555
S5_2 C7_2 1_555 1_555
O3_2 La1_7 1_555 1_555
O4 La1_7 1_555 1_555
O5_2 La1_7 1_555 1_555
O6 La1_7 1_555 1_555
O7_2 La1_7 1_555 1_555
O8_2 La1_7 1_555 1_555
O9_2 La1_7 1_555 1_555
O10_2 La1_7 1_555 1_555
O11_2 La1_7 1_555 1_555
O12_2 La1_7 1_555 1_555
N5_2 Co7_2 1_555 1_555
H9_2 N5_2 1_555 1_555
H18_2 N5_2 1_555 1_555
C4_2 H24_2 1_555 1_555
C7_2 H27_2 1_555 1_555
H29_2 C4_2 1_555 1_555
H32 C7_2 1_555 1_555
C9_2 N7_2 1_555 1_555
C12_2 N5_2 1_555 1_555
H34_2 C9_2 1_555 1_555
H37 C12_2 1_555 1_555
C14_2 O3_2 1_555 1_555
C15_2 O4 1_555 1_555
C16_2 O5_2 1_555 1_555
C17_2 O6 1_555 1_555
C18_2 O7_2 1_555 1_555
O8_2 C14_2 1_555 1_555
O9_2 C15_2 1_555 1_555
O10_2 C16_2 1_555 1_555
O11_2 C17_2 1_555 1_555
O12_2 C18_2 1_555 1_555
C4_2 C9_2 1_555 1_555
C7_2 C12_2 1_555 1_555
C9_2 C14_2 1_555 1_555
C12_2 C17_2 1_555 1_555
N1_2 H39_3 1_555 1_555
S11_2 C5_2 1_555 1_555
N4_2 Co7_5 1_555 1_555
H8_2 N4_2 1_555 1_555
H17_2 N4_2 1_555 1_555
C5_2 H25_2 1_555 1_555
C6_2 H26_2 1_555 1_555
C10_2 N8_2 1_555 1_555
C11_2 N4_2 1_555 1_555
H35 C10_2 1_555 1_555
H36_2 C11_2 1_555 1_555
C5_2 C10_2 1_555 1_555
C6_2 C11_2 1_555 1_555
S11_3 Co12_2 1_555 1_555
N5_2 H41_4 1_555 1_555
S10_3 Co12_3 1_555 1_555
N6_2 H40_4 1_555 1_555
S9_3 Co12_5 1_555 1_555
N4_2 H39_4 1_555 1_555
S11_3 Co1_3 1_555 1_555
N8_3 Co1_3 1_555 1_555
H12_3 N8_3 1_555 1_555
H21_3 N8_3 1_555 1_555
N8_3 H40_5 1_555 1_555
S10_3 Co1_4 1_555 1_555
N1_3 Co1_5 1_555 1_555
H1_3 N1_3 1_555 1_555
H2_3 N1_3 1_555 1_555
C1_3 H3_3 1_555 1_555
C2_3 N1_3 1_555 1_555
H5_3 C2_3 1_555 1_555
Co7_6 S11 1_555 1_555
S11 C8_3 1_555 1_555
N6_3 Co7_6 1_555 1_555
H10_3 N6_3 1_555 1_555
H19_3 N6_3 1_555 1_555
C8_3 H28_3 1_555 1_555
C13_3 N6_3 1_555 1_555
H38_3 C13_3 1_555 1_555
C1_3 C2_3 1_555 1_555
C8_3 C13_3 1_555 1_555
La1_8 O1_3 1_555 1_555
Co1_6 S9_3 1_555 1_555
O1_3 C3_3 1_555 1_555
O2_3 La1_8 1_555 1_555
C3_3 O2_3 1_555 1_555
Co7_6 S9 1_555 1_555
S11_3 C5_3 1_555 1_555
S9 C6_3 1_555 1_555
O3_3 La1_8 1_555 1_555
O4_2 La1_8 1_555 1_555
O5_3 La1_8 1_555 1_555
O6_2 La1_8 1_555 1_555
O7_3 La1_8 1_555 1_555
O8_3 La1_8 1_555 1_555
O9_3 La1_8 1_555 1_555
O10_3 La1_8 1_555 1_555
O11_3 La1_8 1_555 1_555
O12_3 La1_8 1_555 1_555
N4_3 Co7_6 1_555 1_555
N7_3 Co1_6 1_555 1_555
H8_3 N4_3 1_555 1_555
H11_3 N7_3 1_555 1_555
H17_3 N4_3 1_555 1_555
H20_3 N7_3 1_555 1_555
C5_3 H25_3 1_555 1_555
C6_3 H26_3 1_555 1_555
H30_2 C5_3 1_555 1_555
H31_3 C6_3 1_555 1_555
C10_3 N8_3 1_555 1_555
C11_3 N4_3 1_555 1_555
H35_2 C10_3 1_555 1_555
H36_3 C11_3 1_555 1_555
C14_3 O3_3 1_555 1_555
C15_3 O4_2 1_555 1_555
C16_3 O5_3 1_555 1_555
C17_3 O6_2 1_555 1_555
C18_3 O7_3 1_555 1_555
O8_3 C14_3 1_555 1_555
O9_3 C15_3 1_555 1_555
O10_3 C16_3 1_555 1_555
O11_3 C17_3 1_555 1_555
O12_3 C18_3 1_555 1_555
C5_3 C10_3 1_555 1_555
C6_3 C11_3 1_555 1_555
C10_3 C15_3 1_555 1_555
C11_3 C16_3 1_555 1_555
N7_3 H41_5 1_555 1_555
N1_3 H39_5 1_555 1_555
Co7_6 S10 1_555 1_555
S10 C7_3 1_555 1_555
N5_3 Co7_6 1_555 1_555
H9_3 N5_3 1_555 1_555
H18_3 N5_3 1_555 1_555
C4_3 H24_3 1_555 1_555
C7_3 H27_3 1_555 1_555
C9_3 N7_3 1_555 1_555
C12_3 N5_3 1_555 1_555
H34_3 C9_3 1_555 1_555
H37_2 C12_3 1_555 1_555
C4_3 C9_3 1_555 1_555
C7_3 C12_3 1_555 1_555
N6_3 H40_6 1_555 1_555
N5_3 H41_6 1_555 1_555
N4_3 H39_6 1_555 1_555
O4_3 La1_9 1_555 1_555
O6_3 La1_10 1_555 1_555

#END
