
###############################################################################
#
# This file contains modified crystal structure data generated from the
# MOF subset of the Cambridge Structural Database (CSD) v543 
# hosted by the Cambridge Crystallographic Data Centre (CCDC).
#
# This work is licensed under the Creative Commons
# Attribution-NonCommercial-ShareAlike 4.0 International License.
# To view a copy of this license, visit
# http://creativecommons.org/licenses/by-nc-sa/4.0/
# or send a letter to
# Creative Commons, PO Box 1866, Mountain View, CA 94042, USA.
#
# CIF created using the CSD Python API on 29 September 2022
# The structure has been converted into the P1 space group
# The structure has a 3D framework
# The original CSD entry UJEDIX is in the trigonal crystal system
# The original CSD entry UJEDIX is in a Sohncke space group
# The framework has been calculated to contain at least 10.0% void space
# The void calculation uses a probe of radius 1.32A, grid spacing 0.4
# H atom positions have been added when not included in the experimental data
# Generated hydrogen atom positions removed from atoms on special positions
#
###############################################################################

data_UJEDIX
_chemical_formula_moiety         '(C54 H134 Co11 N18 O46 S18 Yb6 2+)n'
_symmetry_cell_setting           triclinic
_symmetry_space_group_name_H-M   'P 1'
_symmetry_Int_Tables_number      1
_space_group_name_Hall           'P 1'
loop_
_symmetry_equiv_pos_site_id
_symmetry_equiv_pos_as_xyz
1 x,y,z
_cell_length_a                   13.5451(7)
_cell_length_b                   13.5451(7)
_cell_length_c                   23.0394(14)
_cell_angle_alpha                90
_cell_angle_beta                 90
_cell_angle_gamma                120
_cell_volume                     3660.72
loop_
_atom_site_label
_atom_site_type_symbol
_atom_site_fract_x
_atom_site_fract_y
_atom_site_fract_z
Yb3 Yb 0.60258(2) -0.00000(3) 0.3333
Yb4 Yb 0.39742(2) 0.39742(2) 0.0000
H17 H 0.4283 0.0356 0.1544
N5 N 0.2963(4) 0.0194(6) 0.0658(2)
H18 H 0.3168 0.0886 0.0826
H19 H 0.3617 0.0233 0.0517
O9 O 0.4835(4) 0.0289(5) 0.27431(18)
O11 O 0.4359(4) 0.1507(6) 0.31248(18)
O12 O 0.3226(4) 0.2033(6) 0.01216(18)
C10 C 0.2291(5) 0.0090(7) 0.2410(2)
H22 H 0.2189 0.0620 0.2666
C11 C 0.3536(5) 0.0629(7) 0.2213(3)
H24 H 0.3762 0.1382 0.2030
C12 C 0.4323(5) 0.0837(7) 0.2741(3)
C14 C 0.2195(5) 0.0023(7) 0.0161(2)
Yb4_2 Yb 0.39742(2) 0.39742(2) 1.0000
O15 O 0.2117(4) 0.1105(6) 0.93641(19)
C15 C 0.2533(5) 0.1142(7) 0.9853(2)
Co2 Co 0.0000 0.79653(8) 0.1667
Co3 Co 0.23185(7) 0.90074(10) 0.12637(3)
Yb3_2 Yb 0.60258(2) 1.00000(3) 0.3333
S4 S 0.14424(13) 0.98019(18) 0.17475(6)
S5 S 0.06954(12) 0.81599(18) 0.07540(6)
S6 S 0.13988(12) 0.76040(18) 0.19021(6)
N4 N 0.3666(4) 0.9900(6) 0.1774(2)
H16 H 0.3826 0.9399 0.1964
N6 N 0.2925(5) 0.8052(6) 0.0899(2)
H20 H 0.2615 0.7822 0.0535
H21 H 0.3704 0.8489 0.0859
O16 O 0.3231(5) 0.5634(6) 0.1216(2)
O17 O 0.2418(5) 0.5890(6) 0.0429(2)
H23 H 0.2058 0.9374 0.2625
C13 C 0.0972(5) 0.9455(7) 0.0373(3)
H25 H 0.0443 0.9266 0.0042
H26 H 0.0867 0.9970 0.0639
C16 C 0.1430(6) 0.6505(8) 0.1472(3)
H28 H 0.1226 0.5822 0.1711
H29 H 0.0891 0.6282 0.1143
C17 C 0.2647(6) 0.7035(8) 0.1257(3)
H30 H 0.3162 0.7292 0.1602
C18 C 0.2798(5) 0.6118(7) 0.0937(3)
Co1 Co 0.76815(7) 0.66889(7) 0.20696(3)
Co2_2 Co 1.0000 0.79653(8) 0.1667
S1 S 0.85576(13) 0.83595(13) 0.15858(6)
S2 S 0.93046(12) 0.74645(13) 0.25793(6)
S3 S 0.86012(12) 0.62052(13) 0.14312(6)
N1 N 0.6334(4) 0.6234(4) 0.1559(2)
H1 H 0.6174 0.5573 0.1369
H2 H 0.5717 0.6073 0.1789
N2 N 0.7037(4) 0.7231(4) 0.2675(2)
H3 H 0.6832 0.7718 0.2507
H4 H 0.6383 0.6616 0.2816
N3 N 0.7075(5) 0.5127(4) 0.2434(2)
H5 H 0.7385 0.5207 0.2798
H6 H 0.6296 0.4785 0.2474
O1 O 0.5165(4) 0.5454(3) 0.05902(18)
O2 O 0.5641(4) 0.7148(4) 0.02085(18)
O3 O 0.6774(4) 0.8807(4) 0.32117(18)
O4 O 0.7883(4) 0.8988(4) 0.39692(19)
O5 O 0.6769(5) 0.2403(4) 0.2117(2)
O6 O 0.7582(5) 0.3472(4) 0.2904(2)
C1 C 0.7709(5) 0.7799(5) 0.0923(2)
H7 H 0.7811 0.8431 0.0667
H8 H 0.7942 0.7316 0.0708
C2 C 0.6464(5) 0.7093(5) 0.1120(3)
H9 H 0.6238 0.7620 0.1303
C3 C 0.5677(5) 0.6514(5) 0.0592(3)
C4 C 0.9028(5) 0.8483(5) 0.2960(3)
H10 H 0.9557 0.8823 0.3291
H11 H 0.9133 0.9103 0.2694
C5 C 0.7805(5) 0.7828(5) 0.3172(2)
H12 H 0.7740 0.7240 0.3456
C6 C 0.7467(5) 0.8609(5) 0.3480(2)
C7 C 0.8570(6) 0.5075(5) 0.1861(3)
H13 H 0.8774 0.4596 0.1622
H14 H 0.9109 0.5391 0.2190
C8 C 0.7353(6) 0.4388(5) 0.2076(3)
H15 H 0.6838 0.4130 0.1731
C9 C 0.7202(5) 0.3320(5) 0.2396(3)
O7 O 0.3213(3) 0.3690(4) 0.09463(17)
O8 O 0.5451(4) 0.3655(4) 0.02959(18)
O10 O 0.5454(3) 0.5165(4) 0.94098(18)
O13 O 0.2033(6) 0.3226(4) 0.98784(18)
O18 O 0.3690(4) 0.3213(3) 0.90537(17)
O19 O 0.3655(4) 0.5451(4) 0.97041(18)
Co1_2 Co 0.33111(7) 0.09926(10) 0.54029(3)
Co2_3 Co 0.20347(8) 0.20347(8) 0.5000
S1_2 S 0.16405(13) 0.01981(18) 0.49191(6)
S2_2 S 0.25355(13) 0.18401(18) 0.59126(6)
S3_2 S 0.37948(13) 0.23960(18) 0.47645(6)
N1_2 N 0.3766(4) 0.0100(6) 0.4892(2)
H1_2 H 0.4427 0.0601 0.4702
N3_2 N 0.4873(4) 0.1948(6) 0.5767(2)
H5_2 H 0.4793 0.2178 0.6131
H6_2 H 0.5215 0.1511 0.5807
O5_2 O 0.7597(4) 0.4366(6) 0.5450(2)
O6_2 O 0.6528(4) 0.4110(6) 0.6237(2)
H8_2 H 0.2684 0.0626 0.4041
C4_2 C 0.1517(5) 0.0545(7) 0.6293(3)
H10_2 H 0.1177 0.0734 0.6624
H11_2 H 0.0897 0.0030 0.6027
H12_2 H 0.2760 0.0500 0.6789
C7_2 C 0.4925(5) 0.3495(8) 0.5194(3)
H13_2 H 0.5404 0.4178 0.4955
H14_2 H 0.4609 0.3718 0.5523
C8_2 C 0.5612(5) 0.2965(8) 0.5409(3)
H15_2 H 0.5870 0.2708 0.5064
C9_2 C 0.6680(5) 0.3882(7) 0.5729(3)
O8_2 O 0.6345(4) 0.1796(6) 0.36292(18)
Co3_2 Co 0.09926(10) 0.33111(12) 0.45971(3)
Yb3_3 Yb 0.00000(3) 0.60258(4) 0.6667
S4_2 S 0.01981(18) 0.16405(22) 0.50809(6)
S5_2 S 0.18401(18) 0.25355(22) 0.40874(6)
S6_2 S 0.23960(18) 0.37948(22) 0.52355(6)
N4_2 N 0.0100(6) 0.3766(7) 0.5108(2)
H16_2 H 0.0601 0.4427 0.5298
N6_2 N 0.1948(6) 0.4873(8) 0.4233(2)
H20_2 H 0.2178 0.4793 0.3869
H21_2 H 0.1511 0.5215 0.4193
O14 O 0.7967(6) 0.1193(7) 0.34550(18)
O16_2 O 0.4366(6) 0.7597(8) 0.4550(2)
O17_2 O 0.4110(6) 0.6528(8) 0.3763(2)
H23_2 H 0.0626 0.2684 0.5959
C13_2 C 0.0545(7) 0.1517(9) 0.3707(3)
H25_2 H 0.0734 0.1177 0.3376
H26_2 H 0.0030 0.0897 0.3973
H27 H 0.0500 0.2760 0.3211
C16_2 C 0.3495(8) 0.4925(10) 0.4806(3)
H28_2 H 0.4178 0.5404 0.5045
H29_2 H 0.3718 0.4609 0.4477
C17_2 C 0.2965(8) 0.5612(10) 0.4591(3)
H30_2 H 0.2708 0.5870 0.4936
C18_2 C 0.3882(7) 0.6680(9) 0.4271(3)
O18_2 O 0.6787(3) 0.0477(5) 0.23870(17)
H2_2 H 0.3927 0.9644 0.5122
N2_2 N 0.2769(4) 0.9806(6) 0.6008(2)
H3_2 H 0.2282 0.9114 0.5840
H4_2 H 0.3384 0.9767 0.6149
O1_2 O 0.4546(3) 0.9711(5) 0.39235(18)
O2_2 O 0.2852(4) 0.8493(6) 0.35418(18)
O3_2 O 0.1193(4) 0.7967(6) 0.65450(18)
O4_2 O 0.1012(4) 0.8895(6) 0.73025(19)
C1_2 C 0.2201(5) 0.9910(7) 0.4256(2)
H7_2 H 0.1569 0.9380 0.4000
C2_2 C 0.2907(5) 0.9371(7) 0.4453(3)
H9_2 H 0.2380 0.8618 0.4636
C3_2 C 0.3486(5) 0.9163(7) 0.3925(3)
C5_2 C 0.2172(5) 0.9977(7) 0.6505(2)
C6_2 C 0.1391(5) 0.8858(7) 0.6813(2)
O7_2 O 0.6310(4) 0.9523(5) 0.42796(17)
O19_2 O 0.4549(4) 0.8204(6) 0.30374(18)
Yb3_4 Yb 1.00000(3) 0.60258(4) 0.6667
H17_2 H 0.9644 0.3927 0.4878
N5_2 N 0.9806(6) 0.2769(7) 0.3992(2)
H18_2 H 0.9114 0.2282 0.4160
H19_2 H 0.9767 0.3384 0.3851
O9_2 O 0.9711(5) 0.4546(6) 0.60765(18)
O11_2 O 0.8493(6) 0.2852(7) 0.64582(18)
O15_2 O 0.8895(6) 0.1012(7) 0.26975(19)
C10_2 C 0.9910(7) 0.2201(9) 0.5744(2)
H22_2 H 0.9380 0.1569 0.6000
C11_2 C 0.9371(7) 0.2907(9) 0.5547(3)
H24_2 H 0.8618 0.2380 0.5364
C12_2 C 0.9163(7) 0.3486(9) 0.6075(3)
C14_2 C 0.9977(7) 0.2172(9) 0.3495(2)
C15_2 C 0.8858(7) 0.1391(9) 0.3187(2)
O4_3 O 0.1105(6) 0.2117(4) 0.06359(19)
C6_3 C 0.1142(7) 0.2533(5) 0.0147(2)
H2_3 H 0.0356 0.4283 0.8456
N2_3 N 0.0194(6) 0.2963(4) 0.9342(2)
H3_3 H 0.0886 0.3168 0.9174
H4_3 H 0.0233 0.3617 0.9483
O1_3 O 0.0289(5) 0.4835(4) 0.72569(18)
O2_3 O 0.1507(6) 0.4359(4) 0.68752(18)
C1_3 C 0.0090(7) 0.2291(5) 0.7590(2)
H7_3 H 0.0620 0.2189 0.7334
C2_3 C 0.0629(7) 0.3536(5) 0.7787(3)
H9_3 H 0.1382 0.3762 0.7970
C3_3 C 0.0837(7) 0.4323(5) 0.7259(3)
C5_3 C 0.0023(7) 0.2195(5) 0.9839(2)
O7_3 O 0.0477(5) 0.6787(3) 0.76130(17)
O19_3 O 0.1796(6) 0.6345(4) 0.63708(18)
Co1_3 Co 0.90074(10) 0.23185(7) 0.87363(3)
Co2_4 Co 0.79653(8) -0.0000 0.8334
S1_3 S 0.98019(18) 0.14424(13) 0.82525(6)
S2_3 S 0.81599(18) 0.06954(12) 0.92460(6)
S3_3 S 0.76040(18) 0.13988(12) 0.80979(6)
N1_3 N 0.9900(6) 0.3666(4) 0.8226(2)
H1_3 H 0.9399 0.3826 0.8036
N3_3 N 0.8052(6) 0.2925(5) 0.9101(2)
H5_3 H 0.7822 0.2615 0.9465
H6_3 H 0.8489 0.3704 0.9141
O5_3 O 0.5634(6) 0.3231(5) 0.8784(2)
O6_3 O 0.5890(6) 0.2418(5) 0.9571(2)
H8_3 H 0.9374 0.2058 0.7375
C4_3 C 0.9455(7) 0.0972(5) 0.9627(3)
H10_3 H 0.9266 0.0443 0.9958
H11_3 H 0.9970 0.0867 0.9361
C7_3 C 0.6505(8) 0.1430(6) 0.8528(3)
H13_3 H 0.5822 0.1226 0.8289
H14_3 H 0.6282 0.0891 0.8857
C8_3 C 0.7035(8) 0.2647(6) 0.8743(3)
H15_3 H 0.7292 0.3162 0.8398
C9_3 C 0.6118(7) 0.2798(5) 0.9063(3)
O8_3 O 0.8204(6) 0.4549(4) 0.69626(18)
O14_2 O 0.8807(7) 0.6774(4) 0.67883(18)
O18_3 O 0.9523(5) 0.6310(4) 0.57204(17)
Co2_5 Co 0.79653(8) 1.0000 0.8334
Co3_3 Co 0.66889(12) 0.76815(7) 0.79304(3)
S4_3 S 0.83595(22) 0.85576(13) 0.84142(6)
S5_3 S 0.74645(22) 0.93046(12) 0.74207(6)
S6_3 S 0.62052(22) 0.86012(12) 0.85688(6)
N4_3 N 0.6234(7) 0.6334(4) 0.8441(2)
H16_3 H 0.5573 0.6174 0.8631
H17_3 H 0.6073 0.5717 0.8211
N5_3 N 0.7231(7) 0.7037(4) 0.7325(2)
H18_3 H 0.7718 0.6832 0.7493
H19_3 H 0.6616 0.6383 0.7184
N6_3 N 0.5127(8) 0.7075(5) 0.7566(2)
H20_3 H 0.5207 0.7385 0.7202
H21_3 H 0.4785 0.6296 0.7526
O11_3 O 0.7148(7) 0.5641(4) 0.97915(18)
O15_3 O 0.8988(7) 0.7883(4) 0.60308(19)
O16_3 O 0.2403(8) 0.6769(5) 0.7883(2)
O17_3 O 0.3472(8) 0.7582(5) 0.7096(2)
C10_3 C 0.7799(9) 0.7709(5) 0.9077(2)
H22_3 H 0.8431 0.7811 0.9333
H23_3 H 0.7316 0.7942 0.9292
C11_3 C 0.7093(9) 0.6464(5) 0.8880(3)
H24_3 H 0.7620 0.6238 0.8697
C12_3 C 0.6514(9) 0.5677(5) 0.9408(3)
C13_3 C 0.8483(9) 0.9028(5) 0.7040(3)
H25_3 H 0.8823 0.9557 0.6709
H26_3 H 0.9103 0.9133 0.7306
C14_3 C 0.7828(9) 0.7805(5) 0.6828(2)
H27_2 H 0.7240 0.7740 0.6544
C15_3 C 0.8609(9) 0.7467(5) 0.6520(2)
C16_3 C 0.5075(10) 0.8570(6) 0.8139(3)
H28_3 H 0.4596 0.8774 0.8378
H29_3 H 0.5391 0.9109 0.7810
C17_3 C 0.4388(10) 0.7353(6) 0.7924(3)
H30_3 H 0.4130 0.6838 0.8269
C18_3 C 0.3320(9) 0.7202(5) 0.7604(3)
H27_3 H 0.2260 0.9500 0.9877
H12_3 H 0.9500 0.2260 0.0123
loop_
_geom_bond_atom_site_label_1
_geom_bond_atom_site_label_2
_geom_bond_site_symmetry_1
_geom_bond_site_symmetry_2
Yb3 O9 1_555 1_555
Yb4 O12 1_555 1_555
H18 N5 1_555 1_555
H19 N5 1_555 1_555
O9 C12 1_555 1_555
O11 C12 1_555 1_555
H22 C10 1_555 1_555
H24 C11 1_555 1_555
C12 C11 1_555 1_555
C14 N5 1_555 1_555
C10 C11 1_555 1_555
O15 C15 1_555 1_555
Co3 S4 1_555 1_555
S4 Co2 1_555 1_555
S5 Co2 1_555 1_555
S6 Co2 1_555 1_555
N4 Co3 1_555 1_555
H16 N4 1_555 1_555
N6 Co3 1_555 1_555
H20 N6 1_555 1_555
H21 N6 1_555 1_555
O16 C18 1_555 1_555
O17 C18 1_555 1_555
C13 S5 1_555 1_555
H25 C13 1_555 1_555
H26 C13 1_555 1_555
C16 S6 1_555 1_555
H28 C16 1_555 1_555
H29 C16 1_555 1_555
C17 N6 1_555 1_555
H30 C17 1_555 1_555
C18 C17 1_555 1_555
Co3 S5 1_555 1_555
Co3 S6 1_555 1_555
C16 C17 1_555 1_555
Co1 S1 1_555 1_555
Co2_2 S1 1_555 1_555
Yb4 O1 1_555 1_555
S1 C1 1_555 1_555
S2 Co1 1_555 1_555
S3 Co1 1_555 1_555
N1 Co1 1_555 1_555
H1 N1 1_555 1_555
H2 N1 1_555 1_555
N2 Co1 1_555 1_555
H3 N2 1_555 1_555
H4 N2 1_555 1_555
N3 Co1 1_555 1_555
H5 N3 1_555 1_555
H6 N3 1_555 1_555
O1 C3 1_555 1_555
O2 C3 1_555 1_555
O3 C6 1_555 1_555
O4 C6 1_555 1_555
O5 C9 1_555 1_555
O6 C9 1_555 1_555
C1 H7 1_555 1_555
H8 C1 1_555 1_555
C2 N1 1_555 1_555
H9 C2 1_555 1_555
C3 C2 1_555 1_555
C4 S2 1_555 1_555
H10 C4 1_555 1_555
H11 C4 1_555 1_555
C5 N2 1_555 1_555
H12 C5 1_555 1_555
C6 C5 1_555 1_555
C7 S3 1_555 1_555
H13 C7 1_555 1_555
H14 C7 1_555 1_555
C8 N3 1_555 1_555
H15 C8 1_555 1_555
C9 C8 1_555 1_555
O7 Yb4 1_555 1_555
O8 Yb4 1_555 1_555
Yb3_2 O3 1_555 1_555
Co2_2 S2 1_555 1_555
Co2_2 S3 1_555 1_555
C1 C2 1_555 1_555
C4 C5 1_555 1_555
C7 C8 1_555 1_555
O10 Yb4_2 1_555 1_555
O13 Yb4_2 1_555 1_555
O18 Yb4_2 1_555 1_555
O19 Yb4_2 1_555 1_555
Co1_2 S1_2 1_555 1_555
Co2_3 S1_2 1_555 1_555
S2_2 Co1_2 1_555 1_555
S3_2 Co1_2 1_555 1_555
N1_2 Co1_2 1_555 1_555
H1_2 N1_2 1_555 1_555
N3_2 Co1_2 1_555 1_555
H5_2 N3_2 1_555 1_555
H6_2 N3_2 1_555 1_555
O5_2 C9_2 1_555 1_555
O6_2 C9_2 1_555 1_555
C4_2 S2_2 1_555 1_555
H10_2 C4_2 1_555 1_555
H11_2 C4_2 1_555 1_555
C7_2 S3_2 1_555 1_555
H13_2 C7_2 1_555 1_555
H14_2 C7_2 1_555 1_555
C8_2 N3_2 1_555 1_555
H15_2 C8_2 1_555 1_555
C9_2 C8_2 1_555 1_555
O8_2 Yb3 1_555 1_555
Co3_2 S4_2 1_555 1_555
S4_2 Co2_3 1_555 1_555
S5_2 Co2_3 1_555 1_555
S6_2 Co2_3 1_555 1_555
N4_2 Co3_2 1_555 1_555
H16_2 N4_2 1_555 1_555
N6_2 Co3_2 1_555 1_555
H20_2 N6_2 1_555 1_555
H21_2 N6_2 1_555 1_555
O14 Yb3 1_555 1_555
O16_2 C18_2 1_555 1_555
O17_2 C18_2 1_555 1_555
C13_2 S5_2 1_555 1_555
H25_2 C13_2 1_555 1_555
H26_2 C13_2 1_555 1_555
C16_2 S6_2 1_555 1_555
H28_2 C16_2 1_555 1_555
H29_2 C16_2 1_555 1_555
C17_2 N6_2 1_555 1_555
H30_2 C17_2 1_555 1_555
C18_2 C17_2 1_555 1_555
O18_2 Yb3 1_555 1_555
Co2_3 S2_2 1_555 1_555
Co2_3 S3_2 1_555 1_555
C7_2 C8_2 1_555 1_555
Co3_2 S5_2 1_555 1_555
Co3_2 S6_2 1_555 1_555
C16_2 C17_2 1_555 1_555
Yb3_2 O1_2 1_555 1_555
H3_2 N2_2 1_555 1_555
H4_2 N2_2 1_555 1_555
O1_2 C3_2 1_555 1_555
O2_2 C3_2 1_555 1_555
O3_2 C6_2 1_555 1_555
O4_2 C6_2 1_555 1_555
C1_2 H7_2 1_555 1_555
H9_2 C2_2 1_555 1_555
C3_2 C2_2 1_555 1_555
C5_2 N2_2 1_555 1_555
C6_2 C5_2 1_555 1_555
O7_2 Yb3_2 1_555 1_555
Yb3_3 O3_2 1_555 1_555
O19_2 Yb3_2 1_555 1_555
C1_2 C2_2 1_555 1_555
Yb3_4 O9_2 1_555 1_555
H18_2 N5_2 1_555 1_555
H19_2 N5_2 1_555 1_555
O9_2 C12_2 1_555 1_555
O11_2 C12_2 1_555 1_555
O14 C15_2 1_555 1_555
O15_2 C15_2 1_555 1_555
H22_2 C10_2 1_555 1_555
H24_2 C11_2 1_555 1_555
C12_2 C11_2 1_555 1_555
C14_2 N5_2 1_555 1_555
C15_2 C14_2 1_555 1_555
C10_2 C11_2 1_555 1_555
O4_3 C6_3 1_555 1_555
Yb3_3 O1_3 1_555 1_555
H3_3 N2_3 1_555 1_555
H4_3 N2_3 1_555 1_555
O1_3 C3_3 1_555 1_555
O2_3 C3_3 1_555 1_555
C1_3 H7_3 1_555 1_555
H9_3 C2_3 1_555 1_555
C3_3 C2_3 1_555 1_555
C5_3 N2_3 1_555 1_555
O7_3 Yb3_3 1_555 1_555
O19_3 Yb3_3 1_555 1_555
C1_3 C2_3 1_555 1_555
Co1_3 S1_3 1_555 1_555
Co2_4 S1_3 1_555 1_555
S2_3 Co1_3 1_555 1_555
S3_3 Co1_3 1_555 1_555
N1_3 Co1_3 1_555 1_555
H1_3 N1_3 1_555 1_555
N3_3 Co1_3 1_555 1_555
H5_3 N3_3 1_555 1_555
H6_3 N3_3 1_555 1_555
O5_3 C9_3 1_555 1_555
O6_3 C9_3 1_555 1_555
C4_3 S2_3 1_555 1_555
H10_3 C4_3 1_555 1_555
H11_3 C4_3 1_555 1_555
C7_3 S3_3 1_555 1_555
H13_3 C7_3 1_555 1_555
H14_3 C7_3 1_555 1_555
C8_3 N3_3 1_555 1_555
H15_3 C8_3 1_555 1_555
C9_3 C8_3 1_555 1_555
O8_3 Yb3_4 1_555 1_555
O14_2 Yb3_4 1_555 1_555
O18_3 Yb3_4 1_555 1_555
Co2_4 S2_3 1_555 1_555
Co2_4 S3_3 1_555 1_555
C7_3 C8_3 1_555 1_555
Co3_3 S4_3 1_555 1_555
S4_3 Co2_5 1_555 1_555
S5_3 Co2_5 1_555 1_555
S6_3 Co2_5 1_555 1_555
N4_3 Co3_3 1_555 1_555
H16_3 N4_3 1_555 1_555
H17_3 N4_3 1_555 1_555
N5_3 Co3_3 1_555 1_555
H18_3 N5_3 1_555 1_555
H19_3 N5_3 1_555 1_555
N6_3 Co3_3 1_555 1_555
H20_3 N6_3 1_555 1_555
H21_3 N6_3 1_555 1_555
O10 C12_3 1_555 1_555
O11_3 C12_3 1_555 1_555
O14_2 C15_3 1_555 1_555
O15_3 C15_3 1_555 1_555
O16_3 C18_3 1_555 1_555
O17_3 C18_3 1_555 1_555
C10_3 S4_3 1_555 1_555
H22_3 C10_3 1_555 1_555
H23_3 C10_3 1_555 1_555
C11_3 N4_3 1_555 1_555
H24_3 C11_3 1_555 1_555
C12_3 C11_3 1_555 1_555
C13_3 S5_3 1_555 1_555
H25_3 C13_3 1_555 1_555
H26_3 C13_3 1_555 1_555
C14_3 N5_3 1_555 1_555
H27_2 C14_3 1_555 1_555
C15_3 C14_3 1_555 1_555
C16_3 S6_3 1_555 1_555
H28_3 C16_3 1_555 1_555
H29_3 C16_3 1_555 1_555
C17_3 N6_3 1_555 1_555
H30_3 C17_3 1_555 1_555
C18_3 C17_3 1_555 1_555
Co3_3 S5_3 1_555 1_555
Co3_3 S6_3 1_555 1_555
C10_3 C11_3 1_555 1_555
C13_3 C14_3 1_555 1_555
C16_3 C17_3 1_555 1_555

#END
