
###############################################################################
#
# This file contains modified crystal structure data generated from the
# MOF subset of the Cambridge Structural Database (CSD) v543 
# hosted by the Cambridge Crystallographic Data Centre (CCDC).
#
# This work is licensed under the Creative Commons
# Attribution-NonCommercial-ShareAlike 4.0 International License.
# To view a copy of this license, visit
# http://creativecommons.org/licenses/by-nc-sa/4.0/
# or send a letter to
# Creative Commons, PO Box 1866, Mountain View, CA 94042, USA.
#
# CIF created using the CSD Python API on 29 September 2022
# The structure has been converted into the P1 space group
# The structure has a 3D framework
# The original CSD entry UJEVIQ is in the monoclinic crystal system
# The framework has been calculated to contain at least 10.0% void space
# The void calculation uses a probe of radius 1.32A, grid spacing 0.4
# H atom positions have been added when not included in the experimental data
#
###############################################################################

data_UJEVIQ
_chemical_formula_moiety         '(C184 H136 N16 O52 Zn8)n'
_symmetry_cell_setting           triclinic
_symmetry_space_group_name_H-M   'P 1'
_symmetry_Int_Tables_number      1
_space_group_name_Hall           'P 1'
loop_
_symmetry_equiv_pos_site_id
_symmetry_equiv_pos_as_xyz
1 x,y,z
_cell_length_a                   13.5817(5)
_cell_length_b                   15.1087(6)
_cell_length_c                   23.3531(9)
_cell_angle_alpha                90
_cell_angle_beta                 104.802(2)
_cell_angle_gamma                90
_cell_volume                     4633.07
loop_
_atom_site_label
_atom_site_type_symbol
_atom_site_fract_x
_atom_site_fract_y
_atom_site_fract_z
Zn3 Zn 0.09572(4) 0.05745(4) 0.41462(3)
N1 N 0.9434(3) 0.0748(3) 0.37621(19)
O1 O 0.1443(3) 0.0972(3) 0.34454(19)
O2 O 0.2788(4) 0.0517(3) 0.4095(2)
O3 O 0.2844(3) 0.2039(4) 0.1731(2)
O4 O 0.5672(3) 0.0860(2) 0.31578(16)
C1 C 0.3014(4) 0.1020(3) 0.3181(2)
C2 C 0.2579(4) 0.1415(4) 0.2639(3)
H1 H 0.1883 0.1528 0.2527
C3 C 0.3185(4) 0.1640(4) 0.2268(3)
C4 C 0.4226(4) 0.1461(4) 0.2422(2)
H2 H 0.4627 0.1608 0.2168
C5 C 0.4649(4) 0.1065(3) 0.2956(2)
C6 C 0.4052(4) 0.0837(3) 0.3338(2)
H3 H 0.4348 0.0562 0.3698
C7 C 0.2390(5) 0.0814(4) 0.3602(3)
C8 C 0.8699(4) 0.0240(4) 0.3841(3)
C9 C 0.7686(4) 0.0368(4) 0.3560(3)
C10 C 0.7394(4) 0.1044(3) 0.3166(2)
C11 C 0.8152(5) 0.1573(5) 0.3094(3)
H6 H 0.7996 0.2059 0.2842
C12 C 0.9144(4) 0.1408(5) 0.3382(3)
H7 H 0.9643 0.1779 0.3307
C13 C 0.6320(4) 0.1225(4) 0.2841(2)
H8 H 0.6209 0.1858 0.2798
H9 H 0.6179 0.0965 0.2449
C15 C 0.0669(4) 0.2579(5) 0.0503(3)
H11 H 0.0131 0.2288 0.0602
C16 C 0.1630(4) 0.2547(4) 0.0877(2)
C17 C 0.2395(4) 0.2987(4) 0.0707(3)
H12 H 0.3058 0.2979 0.0945
C18 C 0.2169(4) 0.3433(4) 0.0186(3)
H13 H 0.2694 0.3730 0.0078
C19 C 0.1794(4) 0.2060(5) 0.1465(3)
H14 H 0.1441 0.2364 0.1721
H15 H 0.1528 0.1462 0.1400
N6 N 0.1235(3) 0.1527(3) 0.48157(18)
N2 N 0.1235(3) 0.3473(3) 0.98157(18)
C14 C 0.0508(4) 0.3045(4) 0.9984(3)
Zn4 Zn 0.09572(4) 0.44255(4) 0.91462(3)
N1_2 N 0.9434(3) 0.4252(3) 0.87621(19)
O1_2 O 0.1443(3) 0.4028(3) 0.84454(19)
O2_2 O 0.2788(4) 0.4483(3) 0.9095(2)
O3_2 O 0.2844(3) 0.2961(4) 0.6731(2)
O4_2 O 0.5672(3) 0.4140(2) 0.81578(16)
O10 O 0.0889(4) 0.5961(3) 0.8872(2)
O11 O 0.1361(3) 0.5429(2) 0.9757(2)
O12 O 0.2297(4) 0.8887(3) 0.8428(2)
O13 O 0.3291(3) 0.9610(3) 0.91838(18)
C1_2 C 0.3014(4) 0.3980(3) 0.8181(2)
C2_2 C 0.2579(4) 0.3585(4) 0.7639(3)
H1_2 H 0.1883 0.3472 0.7527
C3_2 C 0.3185(4) 0.3360(4) 0.7268(3)
C4_2 C 0.4226(4) 0.3539(4) 0.7422(2)
H2_2 H 0.4627 0.3392 0.7168
C5_2 C 0.4649(4) 0.3935(3) 0.7956(2)
C6_2 C 0.4052(4) 0.4163(3) 0.8338(2)
H3_2 H 0.4348 0.4438 0.8698
C7_2 C 0.2390(5) 0.4186(4) 0.8602(3)
C8_2 C 0.8699(4) 0.4760(4) 0.8841(3)
H4 H 0.8871 0.5235 0.9101
C9_2 C 0.7686(4) 0.4632(4) 0.8560(3)
H5 H 0.7197 0.5009 0.8640
C10_2 C 0.7394(4) 0.3956(3) 0.8166(2)
C11_2 C 0.8152(5) 0.3427(5) 0.8094(3)
H6_2 H 0.7996 0.2941 0.7842
C12_2 C 0.9144(4) 0.3592(5) 0.8382(3)
H7_2 H 0.9643 0.3221 0.8307
C13_2 C 0.6320(4) 0.3775(4) 0.7841(2)
H8_2 H 0.6209 0.3142 0.7798
H9_2 H 0.6179 0.4035 0.7449
C14_2 C 0.0508(4) 0.1955(4) 0.4984(3)
C15_2 C 0.0669(4) 0.2421(5) 0.5503(3)
H11_2 H 0.0131 0.2712 0.5602
C16_2 C 0.1630(4) 0.2453(4) 0.5877(2)
C17_2 C 0.2395(4) 0.2013(4) 0.5707(3)
H12_2 H 0.3058 0.2021 0.5945
C18_2 C 0.2169(4) 0.1567(4) 0.5186(3)
H13_2 H 0.2694 0.1270 0.5078
C19_2 C 0.1794(4) 0.2940(5) 0.6465(3)
H14_2 H 0.1441 0.2636 0.6721
H15_2 H 0.1528 0.3538 0.6400
C41 C 0.1888(4) 0.6889(3) 0.9614(2)
C42 C 0.1976(4) 0.7541(3) 0.9205(3)
H32 H 0.1652 0.7471 0.8805
C43 C 0.2544(4) 0.8282(3) 0.9396(2)
C44 C 0.3012(4) 0.8402(4) 0.9993(2)
C45 C 0.1329(4) 0.6045(4) 0.9397(3)
C46 C 0.2716(5) 0.8960(4) 0.8957(3)
H10 H 0.9852 0.1940 0.4736
N3 N 0.1944(3) 0.4003(3) 0.3306(2)
C27 C 0.1221(6) 0.3944(7) 0.3598(3)
H19 H 0.1419 0.3949 0.4010
C28 C 0.0176(5) 0.3875(6) 0.3317(3)
C30 C 0.0633(5) 0.3887(6) 0.2408(3)
H21 H 0.0460 0.3862 0.1997
C31 C 0.1652(4) 0.3972(5) 0.2726(3)
H22 H 0.2146 0.4008 0.2516
Zn5 Zn 0.33888(4) 0.43631(4) 0.37173(3)
O5 O 0.5418(3) 0.4341(3) 0.37574(18)
O6 O 0.3991(3) 0.4267(3) 0.30538(16)
O7 O 0.5077(3) 0.3063(3) 0.13205(18)
O8 O 0.8177(3) 0.3961(3) 0.27598(18)
O9 O 0.3376(4) 0.7164(3) 0.59889(17)
O10_2 O 0.0889(4) 0.9039(3) 0.3872(2)
O11_2 O 0.1361(3) 0.9571(2) 0.4757(2)
O12_2 O 0.2297(4) 0.6113(3) 0.3428(2)
O13_2 O 0.3291(3) 0.5390(3) 0.41838(18)
H4_2 H 0.8871 0.9765 0.4101
H5_2 H 0.7197 0.9991 0.3640
C20 C 0.5538(4) 0.4013(3) 0.2782(2)
C21 C 0.5044(4) 0.3675(3) 0.2233(2)
H16 H 0.4341 0.3601 0.2129
C22 C 0.5610(4) 0.3448(4) 0.1843(2)
C23 C 0.6665(4) 0.3547(4) 0.2000(2)
H17 H 0.7044 0.3396 0.1734
C24 C 0.7136(4) 0.3865(4) 0.2546(2)
C25 C 0.6592(4) 0.4117(4) 0.2938(2)
H18 H 0.6922 0.4355 0.3305
C26 C 0.4957(4) 0.4233(3) 0.3234(2)
H20 H 0.9695 0.3851 0.3537
C29 C 0.9888(4) 0.3843(4) 0.2714(3)
C32 C 0.8785(4) 0.3768(5) 0.2372(3)
H23 H 0.8640 0.4181 0.2043
H24 H 0.8643 0.3174 0.2216
C35 C 0.4844(4) 0.2612(4) 0.0327(3)
C36 C 0.4552(5) 0.1748(4) 0.0431(3)
H27 H 0.4656 0.1536 0.0815
H28 H 0.3946 0.0638 0.0028
C38 C 0.5405(6) 0.3223(5) 0.0817(3)
H29 H 0.6133 0.3119 0.0898
H30 H 0.5274 0.3835 0.0696
C39 C 0.2917(4) 0.7249(4) 0.5402(2)
C40 C 0.2357(4) 0.8004(4) 0.5209(2)
H31 H 0.2296 0.8440 0.5479
C41_2 C 0.1888(4) 0.8111(3) 0.4614(2)
C42_2 C 0.1976(4) 0.7459(3) 0.4205(3)
H32_2 H 0.1652 0.7529 0.3805
C43_2 C 0.2544(4) 0.6718(3) 0.4396(2)
C44_2 C 0.3012(4) 0.6598(4) 0.4993(2)
H33 H 0.3387 0.6088 0.5120
C45_2 C 0.1329(4) 0.8955(4) 0.4397(3)
C46_2 C 0.2716(5) 0.6040(4) 0.3957(3)
N8 N 0.3905(3) 0.3499(3) 0.43983(19)
H34 H 0.285227 0.717906 0.621766
N4 N 0.3905(3) 0.1501(3) 0.93983(19)
C33 C 0.4191(5) 0.2324(4) 0.9301(3)
H25 H 0.4072 0.2519 0.8911
C34 C 0.4654(5) 0.2895(4) 0.9747(3)
H26 H 0.4836 0.3463 0.9660
C37 C 0.4109(5) 0.1219(4) 0.9956(3)
Zn6 Zn 0.33888(4) 0.06369(4) 0.87173(3)
N3_2 N 0.1944(3) 0.0997(3) 0.8306(2)
C27_2 C 0.1221(6) 0.1056(7) 0.8598(3)
H19_2 H 0.1419 0.1051 0.9010
C28_2 C 0.0176(5) 0.1125(6) 0.8317(3)
C30_2 C 0.0633(5) 0.1113(6) 0.7408(3)
H21_2 H 0.0460 0.1138 0.6997
C31_2 C 0.1652(4) 0.1028(5) 0.7726(3)
H22_2 H 0.2146 0.0992 0.7516
O5_2 O 0.5418(3) 0.0659(3) 0.87574(18)
O6_2 O 0.3991(3) 0.0733(3) 0.80538(16)
O7_2 O 0.5077(3) 0.1937(3) 0.63205(18)
O8_2 O 0.8177(3) 0.1039(3) 0.77598(18)
C20_2 C 0.5538(4) 0.0987(3) 0.7782(2)
C21_2 C 0.5044(4) 0.1325(3) 0.7233(2)
H16_2 H 0.4341 0.1399 0.7129
C22_2 C 0.5610(4) 0.1552(4) 0.6843(2)
C23_2 C 0.6665(4) 0.1453(4) 0.7000(2)
H17_2 H 0.7044 0.1604 0.6734
C24_2 C 0.7136(4) 0.1135(4) 0.7546(2)
C25_2 C 0.6592(4) 0.0883(4) 0.7938(2)
H18_2 H 0.6922 0.0645 0.8305
C26_2 C 0.4957(4) 0.0767(3) 0.8234(2)
H20_2 H 0.9695 0.1149 0.8537
C29_2 C 0.9888(4) 0.1157(4) 0.7714(3)
C32_2 C 0.8785(4) 0.1232(5) 0.7372(3)
H23_2 H 0.8640 0.0819 0.7043
H24_2 H 0.8643 0.1826 0.7216
C33_2 C 0.4191(5) 0.2676(4) 0.4301(3)
H25_2 H 0.4072 0.2481 0.3911
C34_2 C 0.4654(5) 0.2105(4) 0.4747(3)
H26_2 H 0.4836 0.1537 0.4660
C35_2 C 0.4844(4) 0.2388(4) 0.5327(3)
C36_2 C 0.4552(5) 0.3252(4) 0.5431(3)
H27_2 H 0.4656 0.3464 0.5815
C37_2 C 0.4109(5) 0.3781(4) 0.4956(3)
H28_2 H 0.3946 0.4362 0.5028
C38_2 C 0.5405(6) 0.1777(5) 0.5817(3)
H29_2 H 0.6133 0.1881 0.5898
H30_2 H 0.5274 0.1165 0.5696
H10_2 H 0.9852 0.3060 0.9736
H10_3 H 0.0148 0.8060 0.5264
N5 N 0.0566(3) 0.5748(3) 0.12379(19)
Zn1 Zn 0.90428(4) 0.55745(4) 0.08538(3)
N2_2 N 0.8765(3) 0.8473(3) 0.51843(18)
O1_3 O 0.8557(3) 0.5972(3) 0.15546(19)
O2_3 O 0.7212(4) 0.5517(3) 0.0905(2)
O3_3 O 0.7156(3) 0.7039(4) 0.3269(2)
O4_3 O 0.4328(3) 0.5860(2) 0.18422(16)
O10_3 O 0.9111(4) 0.4039(3) 0.1128(2)
O11_3 O 0.8639(3) 0.4571(2) 0.0243(2)
O12_3 O 0.7703(4) 0.1113(3) 0.1572(2)
O13_3 O 0.6709(3) 0.0390(3) 0.08162(18)
C1_3 C 0.6986(4) 0.6020(3) 0.1819(2)
C2_3 C 0.7421(4) 0.6415(4) 0.2361(3)
H1_3 H 0.8117 0.6528 0.2473
C3_3 C 0.6815(4) 0.6640(4) 0.2732(3)
C4_3 C 0.5774(4) 0.6461(4) 0.2578(2)
H2_3 H 0.5373 0.6608 0.2832
C5_3 C 0.5351(4) 0.6065(3) 0.2044(2)
C6_3 C 0.5948(4) 0.5837(3) 0.1662(2)
H3_3 H 0.5652 0.5562 0.1302
C7_3 C 0.7610(5) 0.5814(4) 0.1398(3)
C8_3 C 0.1301(4) 0.5240(4) 0.1159(3)
H4_3 H 0.1129 0.4765 0.0899
C9_3 C 0.2314(4) 0.5368(4) 0.1440(3)
H5_3 H 0.2803 0.4991 0.1360
C10_3 C 0.2606(4) 0.6044(3) 0.1834(2)
C11_3 C 0.1848(5) 0.6573(5) 0.1906(3)
H6_3 H 0.2004 0.7059 0.2158
C12_3 C 0.0856(4) 0.6408(5) 0.1618(3)
H7_3 H 0.0357 0.6779 0.1693
C13_3 C 0.3680(4) 0.6225(4) 0.2159(2)
H8_3 H 0.3791 0.6858 0.2202
H9_3 H 0.3821 0.5965 0.2551
C14_3 C 0.9492(4) 0.8045(4) 0.5016(3)
C15_3 C 0.9331(4) 0.7579(5) 0.4497(3)
H11_3 H 0.9869 0.7288 0.4398
C16_3 C 0.8370(4) 0.7547(4) 0.4123(2)
C17_3 C 0.7605(4) 0.7987(4) 0.4293(3)
H12_3 H 0.6942 0.7979 0.4055
C18_3 C 0.7831(4) 0.8433(4) 0.4814(3)
H13_3 H 0.7306 0.8730 0.4922
C19_3 C 0.8206(4) 0.7060(5) 0.3535(3)
H14_3 H 0.8559 0.7364 0.3279
H15_3 H 0.8472 0.6462 0.3600
C41_3 C 0.8112(4) 0.3111(3) 0.0386(2)
C42_3 C 0.8024(4) 0.2459(3) 0.0795(3)
H32_3 H 0.8348 0.2529 0.1195
C43_3 C 0.7456(4) 0.1718(3) 0.0604(2)
C44_3 C 0.6988(4) 0.1598(4) 0.0007(2)
C45_3 C 0.8671(4) 0.3955(4) 0.0603(3)
C46_3 C 0.7284(5) 0.1040(4) 0.1043(3)
Zn4_2 Zn 0.90428(4) 0.94255(4) 0.58538(3)
N6_2 N 0.8765(3) 0.6527(3) 0.01843(18)
N5_2 N 0.0566(3) 0.9252(3) 0.62379(19)
C14_4 C 0.9492(4) 0.6955(4) 0.0016(3)
O1_4 O 0.8557(3) 0.9028(3) 0.65546(19)
O2_4 O 0.7212(4) 0.9483(3) 0.5905(2)
O3_4 O 0.7156(3) 0.7961(4) 0.8269(2)
O4_4 O 0.4328(3) 0.9140(2) 0.68422(16)
C1_4 C 0.6986(4) 0.8980(3) 0.6819(2)
C2_4 C 0.7421(4) 0.8585(4) 0.7361(3)
H1_4 H 0.8117 0.8472 0.7473
C3_4 C 0.6815(4) 0.8360(4) 0.7732(3)
C4_4 C 0.5774(4) 0.8539(4) 0.7578(2)
H2_4 H 0.5373 0.8392 0.7832
C5_4 C 0.5351(4) 0.8935(3) 0.7044(2)
C6_4 C 0.5948(4) 0.9163(3) 0.6662(2)
H3_4 H 0.5652 0.9438 0.6302
C7_4 C 0.7610(5) 0.9186(4) 0.6398(3)
C8_4 C 0.1301(4) 0.9760(4) 0.6159(3)
C9_4 C 0.2314(4) 0.9632(4) 0.6440(3)
C10_4 C 0.2606(4) 0.8956(3) 0.6834(2)
C11_4 C 0.1848(5) 0.8427(5) 0.6906(3)
H6_4 H 0.2004 0.7941 0.7158
C12_4 C 0.0856(4) 0.8592(5) 0.6618(3)
H7_4 H 0.0357 0.8221 0.6693
C13_4 C 0.3680(4) 0.8775(4) 0.7159(2)
H8_4 H 0.3791 0.8142 0.7202
H9_4 H 0.3821 0.9035 0.7551
C15_4 C 0.9331(4) 0.7421(5) 0.9497(3)
H11_4 H 0.9869 0.7712 0.9398
C16_4 C 0.8370(4) 0.7453(4) 0.9123(2)
C17_4 C 0.7605(4) 0.7013(4) 0.9293(3)
H12_4 H 0.6942 0.7021 0.9055
C18_4 C 0.7831(4) 0.6567(4) 0.9814(3)
H13_4 H 0.7306 0.6270 0.9922
C19_4 C 0.8206(4) 0.7940(5) 0.8535(3)
H14_4 H 0.8559 0.7636 0.8279
H15_4 H 0.8472 0.8538 0.8600
O9_2 O 0.6624(4) 0.2164(3) 0.90111(17)
C39_2 C 0.7083(4) 0.2249(4) 0.9598(2)
C40_2 C 0.7643(4) 0.3004(4) 0.9791(2)
H31_2 H 0.7704 0.3440 0.9521
H33_2 H 0.6613 0.1088 0.9880
H34_2 H 0.714773 0.217906 0.878234
Zn2 Zn 0.66112(4) 0.93631(4) 0.12827(3)
N4_2 N 0.6095(3) 0.6501(3) 0.56017(19)
O5_3 O 0.4582(3) 0.9341(3) 0.12426(18)
O6_3 O 0.6009(3) 0.9267(3) 0.19462(16)
O7_3 O 0.4923(3) 0.8063(3) 0.36795(18)
O8_3 O 0.1823(3) 0.8961(3) 0.22402(18)
C20_3 C 0.4462(4) 0.9013(3) 0.2218(2)
C21_3 C 0.4956(4) 0.8675(3) 0.2767(2)
H16_3 H 0.5659 0.8601 0.2871
C22_3 C 0.4390(4) 0.8448(4) 0.3157(2)
C23_3 C 0.3335(4) 0.8547(4) 0.3000(2)
H17_3 H 0.2956 0.8396 0.3266
C24_3 C 0.2864(4) 0.8865(4) 0.2454(2)
C25_3 C 0.3408(4) 0.9117(4) 0.2062(2)
H18_3 H 0.3078 0.9355 0.1695
C26_3 C 0.5043(4) 0.9233(3) 0.1766(2)
H20_3 H 0.0305 0.8851 0.1463
C29_3 C 0.0112(4) 0.8843(4) 0.2286(3)
C32_3 C 0.1215(4) 0.8768(5) 0.2628(3)
H23_3 H 0.1360 0.9181 0.2957
H24_3 H 0.1357 0.8174 0.2784
C33_3 C 0.5809(5) 0.7324(4) 0.5699(3)
H25_3 H 0.5928 0.7519 0.6089
C34_3 C 0.5346(5) 0.7895(4) 0.5253(3)
H26_3 H 0.5164 0.8463 0.5340
C35_3 C 0.5156(4) 0.7612(4) 0.4673(3)
C36_3 C 0.5448(5) 0.6748(4) 0.4569(3)
H27_3 H 0.5344 0.6536 0.4185
C37_3 C 0.5891(5) 0.6219(4) 0.5044(3)
H28_3 H 0.6054 0.5638 0.4972
C38_3 C 0.4595(6) 0.8223(5) 0.4183(3)
H29_3 H 0.3867 0.8119 0.4102
H30_3 H 0.4726 0.8835 0.4304
Zn6_2 Zn 0.66112(4) 0.56369(4) 0.62827(3)
N7 N 0.8056(3) 0.9003(3) 0.1694(2)
N8_2 N 0.6095(3) 0.8499(3) 0.06017(19)
C27_3 C 0.8779(6) 0.8944(7) 0.1402(3)
H19_3 H 0.8581 0.8949 0.0990
C28_3 C 0.9824(5) 0.8875(6) 0.1683(3)
C30_3 C 0.9367(5) 0.8887(6) 0.2592(3)
H21_3 H 0.9540 0.8862 0.3003
C31_3 C 0.8348(4) 0.8972(5) 0.2274(3)
H22_3 H 0.7854 0.9008 0.2484
C33_4 C 0.5809(5) 0.7676(4) 0.0699(3)
H25_4 H 0.5928 0.7481 0.1089
C34_4 C 0.5346(5) 0.7105(4) 0.0253(3)
H26_4 H 0.5164 0.6537 0.0340
C37_4 C 0.5891(5) 0.8781(4) 0.0044(3)
O5_4 O 0.4582(3) 0.5659(3) 0.62426(18)
O6_4 O 0.6009(3) 0.5733(3) 0.69462(16)
O7_4 O 0.4923(3) 0.6937(3) 0.86795(18)
O8_4 O 0.1823(3) 0.6039(3) 0.72402(18)
O9_3 O 0.6624(4) 0.2836(3) 0.40111(17)
O10_4 O 0.9111(4) 0.0961(3) 0.6128(2)
O11_4 O 0.8639(3) 0.0429(2) 0.5243(2)
O12_4 O 0.7703(4) 0.3887(3) 0.6572(2)
O13_4 O 0.6709(3) 0.4610(3) 0.58162(18)
H4_4 H 0.1129 0.0235 0.5899
H5_4 H 0.2803 0.0009 0.6360
C20_4 C 0.4462(4) 0.5987(3) 0.7218(2)
C21_4 C 0.4956(4) 0.6325(3) 0.7767(2)
H16_4 H 0.5659 0.6399 0.7871
C22_4 C 0.4390(4) 0.6552(4) 0.8157(2)
C23_4 C 0.3335(4) 0.6453(4) 0.8000(2)
H17_4 H 0.2956 0.6604 0.8266
C24_4 C 0.2864(4) 0.6135(4) 0.7454(2)
C25_4 C 0.3408(4) 0.5883(4) 0.7062(2)
H18_4 H 0.3078 0.5645 0.6695
C26_4 C 0.5043(4) 0.5767(3) 0.6766(2)
H20_4 H 0.0305 0.6149 0.6463
C29_4 C 0.0112(4) 0.6157(4) 0.7286(3)
C32_4 C 0.1215(4) 0.6232(5) 0.7628(3)
H23_4 H 0.1360 0.5819 0.7957
H24_4 H 0.1357 0.6826 0.7784
C35_4 C 0.5156(4) 0.7388(4) 0.9673(3)
C36_4 C 0.5448(5) 0.8252(4) 0.9569(3)
H27_4 H 0.5344 0.8464 0.9185
H28_4 H 0.6054 0.9362 0.9972
C38_4 C 0.4595(6) 0.6777(5) 0.9183(3)
H29_4 H 0.3867 0.6881 0.9102
H30_4 H 0.4726 0.6165 0.9304
C39_3 C 0.7083(4) 0.2751(4) 0.4598(2)
C40_3 C 0.7643(4) 0.1996(4) 0.4791(2)
H31_3 H 0.7704 0.1560 0.4521
C41_4 C 0.8112(4) 0.1889(3) 0.5386(2)
C42_4 C 0.8024(4) 0.2541(3) 0.5795(3)
H32_4 H 0.8348 0.2471 0.6195
C43_4 C 0.7456(4) 0.3282(3) 0.5604(2)
C44_4 C 0.6988(4) 0.3402(4) 0.5007(2)
H33_3 H 0.6613 0.3912 0.4880
C45_4 C 0.8671(4) 0.1045(4) 0.5603(3)
C46_4 C 0.7284(5) 0.3960(4) 0.6043(3)
N7_2 N 0.8056(3) 0.5997(3) 0.6694(2)
H34_3 H 0.714773 0.282094 0.378234
C27_4 C 0.8779(6) 0.6056(7) 0.6402(3)
H19_4 H 0.8581 0.6051 0.5990
C28_4 C 0.9824(5) 0.6125(6) 0.6683(3)
C30_4 C 0.9367(5) 0.6113(6) 0.7592(3)
H21_4 H 0.9540 0.6138 0.8003
C31_4 C 0.8348(4) 0.6028(5) 0.7274(3)
H22_4 H 0.7854 0.5992 0.7484
H10_4 H 0.0148 0.6940 0.0264
O9_4 O 0.3376(4) 0.7836(3) 0.09889(17)
C39_4 C 0.2917(4) 0.7751(4) 0.0402(2)
C40_4 C 0.2357(4) 0.6996(4) 0.0209(2)
H31_4 H 0.2296 0.6560 0.0479
H33_4 H 0.3387 0.8912 0.0120
H34_4 H 0.285227 0.782094 0.121766
loop_
_geom_bond_atom_site_label_1
_geom_bond_atom_site_label_2
_geom_bond_site_symmetry_1
_geom_bond_site_symmetry_2
Zn3 O1 1_555 1_555
N1 C8 1_555 1_555
O1 C7 1_555 1_555
O2 Zn3 1_555 1_555
O3 C3 1_555 1_555
O4 C5 1_555 1_555
C1 C2 1_555 1_555
C2 H1 1_555 1_555
C3 C2 1_555 1_555
C4 C3 1_555 1_555
H2 C4 1_555 1_555
C5 C4 1_555 1_555
C6 C1 1_555 1_555
H3 C6 1_555 1_555
C7 O2 1_555 1_555
C9 C8 1_555 1_555
C10 C9 1_555 1_555
C11 C10 1_555 1_555
H6 C11 1_555 1_555
C12 N1 1_555 1_555
H7 C12 1_555 1_555
C13 O4 1_555 1_555
H8 C13 1_555 1_555
H9 C13 1_555 1_555
H11 C15 1_555 1_555
C16 C15 1_555 1_555
C17 C16 1_555 1_555
H12 C17 1_555 1_555
H13 C18 1_555 1_555
C19 O3 1_555 1_555
H14 C19 1_555 1_555
H15 C19 1_555 1_555
N6 Zn3 1_555 1_555
C1 C7 1_555 1_555
C5 C6 1_555 1_555
C10 C13 1_555 1_555
C11 C12 1_555 1_555
C16 C19 1_555 1_555
C17 C18 1_555 1_555
N2 C14 1_555 1_555
Zn4 N2 1_555 1_555
Zn4 O1_2 1_555 1_555
N1_2 C8_2 1_555 1_555
N6 C14_2 1_555 1_555
O1_2 C7_2 1_555 1_555
O2_2 Zn4 1_555 1_555
O3_2 C3_2 1_555 1_555
O4_2 C5_2 1_555 1_555
O10 Zn4 1_555 1_555
O11 Zn4 1_555 1_555
O12 C46 1_555 1_555
C1_2 C2_2 1_555 1_555
C2_2 H1_2 1_555 1_555
C3_2 C2_2 1_555 1_555
C4_2 C3_2 1_555 1_555
H2_2 C4_2 1_555 1_555
C5_2 C4_2 1_555 1_555
C6_2 C1_2 1_555 1_555
H3_2 C6_2 1_555 1_555
C7_2 O2_2 1_555 1_555
C8_2 H4 1_555 1_555
C9_2 C8_2 1_555 1_555
H5 C9_2 1_555 1_555
C10_2 C9_2 1_555 1_555
C11_2 C10_2 1_555 1_555
H6_2 C11_2 1_555 1_555
C12_2 N1_2 1_555 1_555
H7_2 C12_2 1_555 1_555
C13_2 O4_2 1_555 1_555
H8_2 C13_2 1_555 1_555
H9_2 C13_2 1_555 1_555
C15_2 C14_2 1_555 1_555
H11_2 C15_2 1_555 1_555
C16_2 C15_2 1_555 1_555
C17_2 C16_2 1_555 1_555
H12_2 C17_2 1_555 1_555
C18_2 N6 1_555 1_555
H13_2 C18_2 1_555 1_555
C19_2 O3_2 1_555 1_555
H14_2 C19_2 1_555 1_555
H15_2 C19_2 1_555 1_555
C42 C41 1_555 1_555
H32 C42 1_555 1_555
C43 C42 1_555 1_555
C45 O10 1_555 1_555
C46 O13 1_555 1_555
O11 C45 1_555 1_555
C1_2 C7_2 1_555 1_555
C5_2 C6_2 1_555 1_555
C10_2 C13_2 1_555 1_555
C11_2 C12_2 1_555 1_555
C16_2 C19_2 1_555 1_555
C17_2 C18_2 1_555 1_555
C41 C45 1_555 1_555
C43 C44 1_555 1_555
C43 C46 1_555 1_555
N3 C27 1_555 1_555
C27 H19 1_555 1_555
C28 C27 1_555 1_555
H21 C30 1_555 1_555
C31 N3 1_555 1_555
H22 C31 1_555 1_555
Zn5 N3 1_555 1_555
C30 C31 1_555 1_555
Zn5 O6 1_555 1_555
O5 C26 1_555 1_555
O6 C26 1_555 1_555
O7 C22 1_555 1_555
O8 C24 1_555 1_555
O9 C39 1_555 1_555
O12_2 C46_2 1_555 1_555
O13_2 Zn5 1_555 1_555
C20 C21 1_555 1_555
C21 H16 1_555 1_555
C22 C21 1_555 1_555
C23 C22 1_555 1_555
H17 C23 1_555 1_555
C24 C23 1_555 1_555
C25 C20 1_555 1_555
H18 C25 1_555 1_555
C26 C20 1_555 1_555
C32 O8 1_555 1_555
H23 C32 1_555 1_555
H24 C32 1_555 1_555
C36 C35 1_555 1_555
H27 C36 1_555 1_555
C38 O7 1_555 1_555
H29 C38 1_555 1_555
H30 C38 1_555 1_555
C39 C40 1_555 1_555
C40 H31 1_555 1_555
C41_2 C40 1_555 1_555
C42_2 C41_2 1_555 1_555
H32_2 C42_2 1_555 1_555
C43_2 C42_2 1_555 1_555
C44_2 C39 1_555 1_555
H33 C44_2 1_555 1_555
C45_2 O10_2 1_555 1_555
C46_2 O13_2 1_555 1_555
N8 Zn5 1_555 1_555
O11_2 C45_2 1_555 1_555
C24 C25 1_555 1_555
C29 C32 1_555 1_555
C35 C38 1_555 1_555
C41_2 C45_2 1_555 1_555
C43_2 C44_2 1_555 1_555
C43_2 C46_2 1_555 1_555
O9 H34 1_555 1_555
N4 C33 1_555 1_555
C33 H25 1_555 1_555
C34 C33 1_555 1_555
H26 C34 1_555 1_555
C37 N4 1_555 1_555
Zn6 N4 1_555 1_555
N3_2 C27_2 1_555 1_555
C27_2 H19_2 1_555 1_555
C28_2 C27_2 1_555 1_555
H21_2 C30_2 1_555 1_555
C31_2 N3_2 1_555 1_555
H22_2 C31_2 1_555 1_555
Zn6 N3_2 1_555 1_555
C30_2 C31_2 1_555 1_555
Zn6 O6_2 1_555 1_555
N8 C33_2 1_555 1_555
O5_2 C26_2 1_555 1_555
O6_2 C26_2 1_555 1_555
O7_2 C22_2 1_555 1_555
O8_2 C24_2 1_555 1_555
C20_2 C21_2 1_555 1_555
C21_2 H16_2 1_555 1_555
C22_2 C21_2 1_555 1_555
C23_2 C22_2 1_555 1_555
H17_2 C23_2 1_555 1_555
C24_2 C23_2 1_555 1_555
C25_2 C20_2 1_555 1_555
H18_2 C25_2 1_555 1_555
C26_2 C20_2 1_555 1_555
C32_2 O8_2 1_555 1_555
H23_2 C32_2 1_555 1_555
H24_2 C32_2 1_555 1_555
C33_2 H25_2 1_555 1_555
C34_2 C33_2 1_555 1_555
H26_2 C34_2 1_555 1_555
C35_2 C34_2 1_555 1_555
C36_2 C35_2 1_555 1_555
H27_2 C36_2 1_555 1_555
C37_2 N8 1_555 1_555
H28_2 C37_2 1_555 1_555
C38_2 O7_2 1_555 1_555
H29_2 C38_2 1_555 1_555
H30_2 C38_2 1_555 1_555
C24_2 C25_2 1_555 1_555
C29_2 C32_2 1_555 1_555
C35_2 C38_2 1_555 1_555
C36_2 C37_2 1_555 1_555
Zn1 O1_3 1_555 1_555
N5 C8_3 1_555 1_555
N2_2 C14_3 1_555 1_555
O1_3 C7_3 1_555 1_555
O2_3 Zn1 1_555 1_555
O3_3 C3_3 1_555 1_555
O4_3 C5_3 1_555 1_555
O10_3 Zn1 1_555 1_555
O11_3 Zn1 1_555 1_555
O12_3 C46_3 1_555 1_555
C1_3 C2_3 1_555 1_555
C2_3 H1_3 1_555 1_555
C3_3 C2_3 1_555 1_555
C4_3 C3_3 1_555 1_555
H2_3 C4_3 1_555 1_555
C5_3 C4_3 1_555 1_555
C6_3 C1_3 1_555 1_555
H3_3 C6_3 1_555 1_555
C7_3 O2_3 1_555 1_555
C8_3 H4_3 1_555 1_555
C9_3 C8_3 1_555 1_555
H5_3 C9_3 1_555 1_555
C10_3 C9_3 1_555 1_555
C11_3 C10_3 1_555 1_555
H6_3 C11_3 1_555 1_555
C12_3 N5 1_555 1_555
H7_3 C12_3 1_555 1_555
C13_3 O4_3 1_555 1_555
H8_3 C13_3 1_555 1_555
H9_3 C13_3 1_555 1_555
C15_3 C14_3 1_555 1_555
H11_3 C15_3 1_555 1_555
C16_3 C15_3 1_555 1_555
C17_3 C16_3 1_555 1_555
H12_3 C17_3 1_555 1_555
C18_3 N2_2 1_555 1_555
H13_3 C18_3 1_555 1_555
C19_3 O3_3 1_555 1_555
H14_3 C19_3 1_555 1_555
H15_3 C19_3 1_555 1_555
C42_3 C41_3 1_555 1_555
H32_3 C42_3 1_555 1_555
C43_3 C42_3 1_555 1_555
C45_3 O10_3 1_555 1_555
C46_3 O13_3 1_555 1_555
Zn4_2 N2_2 1_555 1_555
N6_2 Zn1 1_555 1_555
O11_3 C45_3 1_555 1_555
C1_3 C7_3 1_555 1_555
C5_3 C6_3 1_555 1_555
C10_3 C13_3 1_555 1_555
C11_3 C12_3 1_555 1_555
C16_3 C19_3 1_555 1_555
C17_3 C18_3 1_555 1_555
C41_3 C45_3 1_555 1_555
C43_3 C44_3 1_555 1_555
C43_3 C46_3 1_555 1_555
N6_2 C14_4 1_555 1_555
Zn4_2 O1_4 1_555 1_555
N5_2 C8_4 1_555 1_555
O1_4 C7_4 1_555 1_555
O2_4 Zn4_2 1_555 1_555
O3_4 C3_4 1_555 1_555
O4_4 C5_4 1_555 1_555
C1_4 C2_4 1_555 1_555
C2_4 H1_4 1_555 1_555
C3_4 C2_4 1_555 1_555
C4_4 C3_4 1_555 1_555
H2_4 C4_4 1_555 1_555
C5_4 C4_4 1_555 1_555
C6_4 C1_4 1_555 1_555
H3_4 C6_4 1_555 1_555
C7_4 O2_4 1_555 1_555
C9_4 C8_4 1_555 1_555
C10_4 C9_4 1_555 1_555
C11_4 C10_4 1_555 1_555
H6_4 C11_4 1_555 1_555
C12_4 N5_2 1_555 1_555
H7_4 C12_4 1_555 1_555
C13_4 O4_4 1_555 1_555
H8_4 C13_4 1_555 1_555
H9_4 C13_4 1_555 1_555
H11_4 C15_4 1_555 1_555
C16_4 C15_4 1_555 1_555
C17_4 C16_4 1_555 1_555
H12_4 C17_4 1_555 1_555
H13_4 C18_4 1_555 1_555
C19_4 O3_4 1_555 1_555
H14_4 C19_4 1_555 1_555
H15_4 C19_4 1_555 1_555
C1_4 C7_4 1_555 1_555
C5_4 C6_4 1_555 1_555
C10_4 C13_4 1_555 1_555
C11_4 C12_4 1_555 1_555
C16_4 C19_4 1_555 1_555
C17_4 C18_4 1_555 1_555
O9_2 C39_2 1_555 1_555
C39_2 C40_2 1_555 1_555
C40_2 H31_2 1_555 1_555
O9_2 H34_2 1_555 1_555
Zn2 O6_3 1_555 1_555
N4_2 C33_3 1_555 1_555
O5_3 C26_3 1_555 1_555
O6_3 C26_3 1_555 1_555
O7_3 C22_3 1_555 1_555
O8_3 C24_3 1_555 1_555
C20_3 C21_3 1_555 1_555
C21_3 H16_3 1_555 1_555
C22_3 C21_3 1_555 1_555
C23_3 C22_3 1_555 1_555
H17_3 C23_3 1_555 1_555
C24_3 C23_3 1_555 1_555
C25_3 C20_3 1_555 1_555
H18_3 C25_3 1_555 1_555
C26_3 C20_3 1_555 1_555
C32_3 O8_3 1_555 1_555
H23_3 C32_3 1_555 1_555
H24_3 C32_3 1_555 1_555
C33_3 H25_3 1_555 1_555
C34_3 C33_3 1_555 1_555
H26_3 C34_3 1_555 1_555
C35_3 C34_3 1_555 1_555
C36_3 C35_3 1_555 1_555
H27_3 C36_3 1_555 1_555
C37_3 N4_2 1_555 1_555
H28_3 C37_3 1_555 1_555
C38_3 O7_3 1_555 1_555
H29_3 C38_3 1_555 1_555
H30_3 C38_3 1_555 1_555
Zn6_2 N4_2 1_555 1_555
N7 Zn2 1_555 1_555
N8_2 Zn2 1_555 1_555
C24_3 C25_3 1_555 1_555
C29_3 C32_3 1_555 1_555
C35_3 C38_3 1_555 1_555
C36_3 C37_3 1_555 1_555
N7 C27_3 1_555 1_555
C27_3 H19_3 1_555 1_555
C28_3 C27_3 1_555 1_555
H21_3 C30_3 1_555 1_555
C31_3 N7 1_555 1_555
H22_3 C31_3 1_555 1_555
C30_3 C31_3 1_555 1_555
N8_2 C33_4 1_555 1_555
C33_4 H25_4 1_555 1_555
C34_4 C33_4 1_555 1_555
H26_4 C34_4 1_555 1_555
C37_4 N8_2 1_555 1_555
Zn6_2 O6_4 1_555 1_555
O5_4 C26_4 1_555 1_555
O6_4 C26_4 1_555 1_555
O7_4 C22_4 1_555 1_555
O8_4 C24_4 1_555 1_555
O9_3 C39_3 1_555 1_555
O12_4 C46_4 1_555 1_555
O13_4 Zn6_2 1_555 1_555
C20_4 C21_4 1_555 1_555
C21_4 H16_4 1_555 1_555
C22_4 C21_4 1_555 1_555
C23_4 C22_4 1_555 1_555
H17_4 C23_4 1_555 1_555
C24_4 C23_4 1_555 1_555
C25_4 C20_4 1_555 1_555
H18_4 C25_4 1_555 1_555
C26_4 C20_4 1_555 1_555
C32_4 O8_4 1_555 1_555
H23_4 C32_4 1_555 1_555
H24_4 C32_4 1_555 1_555
C36_4 C35_4 1_555 1_555
H27_4 C36_4 1_555 1_555
C38_4 O7_4 1_555 1_555
H29_4 C38_4 1_555 1_555
H30_4 C38_4 1_555 1_555
C39_3 C40_3 1_555 1_555
C40_3 H31_3 1_555 1_555
C41_4 C40_3 1_555 1_555
C42_4 C41_4 1_555 1_555
H32_4 C42_4 1_555 1_555
C43_4 C42_4 1_555 1_555
C44_4 C39_3 1_555 1_555
H33_3 C44_4 1_555 1_555
C45_4 O10_4 1_555 1_555
C46_4 O13_4 1_555 1_555
N7_2 Zn6_2 1_555 1_555
O11_4 C45_4 1_555 1_555
C24_4 C25_4 1_555 1_555
C29_4 C32_4 1_555 1_555
C35_4 C38_4 1_555 1_555
C41_4 C45_4 1_555 1_555
C43_4 C44_4 1_555 1_555
C43_4 C46_4 1_555 1_555
O9_3 H34_3 1_555 1_555
N7_2 C27_4 1_555 1_555
C27_4 H19_4 1_555 1_555
C28_4 C27_4 1_555 1_555
H21_4 C30_4 1_555 1_555
C31_4 N7_2 1_555 1_555
H22_4 C31_4 1_555 1_555
C30_4 C31_4 1_555 1_555
O9_4 C39_4 1_555 1_555
C39_4 C40_4 1_555 1_555
C40_4 H31_4 1_555 1_555
O9_4 H34_4 1_555 1_555

#END
