
###############################################################################
#
# This file contains modified crystal structure data generated from the
# MOF subset of the Cambridge Structural Database (CSD) v543 
# hosted by the Cambridge Crystallographic Data Centre (CCDC).
#
# This work is licensed under the Creative Commons
# Attribution-NonCommercial-ShareAlike 4.0 International License.
# To view a copy of this license, visit
# http://creativecommons.org/licenses/by-nc-sa/4.0/
# or send a letter to
# Creative Commons, PO Box 1866, Mountain View, CA 94042, USA.
#
# CIF created using the CSD Python API on 29 September 2022
# The structure has been converted into the P1 space group
# The structure has a 3D framework
# The original CSD entry UJUPOG is in the orthorhombic crystal system
# The original CSD entry UJUPOG is in a Sohncke space group
# The framework has been calculated to contain at least 10.0% void space
# The void calculation uses a probe of radius 1.32A, grid spacing 0.4
#
###############################################################################

data_UJUPOG
_chemical_formula_moiety         '(C72 H180 N60 O32 S8 Zn8)n'
_symmetry_cell_setting           triclinic
_symmetry_space_group_name_H-M   'P 1'
_symmetry_Int_Tables_number      1
_space_group_name_Hall           'P 1'
loop_
_symmetry_equiv_pos_site_id
_symmetry_equiv_pos_as_xyz
1 x,y,z
_cell_length_a                   15.7886(13)
_cell_length_b                   15.9425(9)
_cell_length_c                   16.3286(7)
_cell_angle_alpha                90
_cell_angle_beta                 90
_cell_angle_gamma                90
_cell_volume                     4110.07
loop_
_atom_site_label
_atom_site_type_symbol
_atom_site_fract_x
_atom_site_fract_y
_atom_site_fract_z
Zn1 Zn 0.29782(9) 0.18239(9) 0.16349(8)
S2 S 0.1925(3) 0.2819(3) 0.2861(2)
N2 N 0.3386(6) 0.0749(7) 0.2141(6)
C1 C 0.3018(8) 0.0140(8) 0.2491(7)
N6 N 0.2529(7) 0.1508(6) 0.0537(6)
N7 N 0.4236(7) 0.0537(9) 0.2066(9)
C4 C 0.2099(8) 0.0072(10) 0.2611(11)
H2 H 0.1904 0.0537 0.2933
H3 H 0.1821 0.0077 0.2088
O5 O 0.2026(8) 0.2329(10) 0.2120(8)
H7 H 0.2292 0.3068 0.0399
N12 N 0.2502(12) 0.0698(8) 0.0341(8)
O6 O 0.1112(9) 0.304(2) 0.2961(12)
O7 O 0.2580(14) 0.3445(14) 0.2927(11)
O8 O 0.215(2) 0.237(2) 0.3529(8)
N14 N 0.4005(7) 0.2531(7) 0.1476(5)
Zn2 Zn 0.35625(8) 0.84386(9) 0.32429(8)
S1 S 0.2438(2) 0.7244(2) 0.2232(2)
N1 N 0.3569(6) 0.9508(6) 0.2637(6)
N4 N 0.5995(7) 0.7531(7) 0.3524(5)
N5 N 0.4758(6) 0.8101(6) 0.3499(5)
C2 C 0.5338(8) 0.7720(7) 0.3057(6)
O1 O 0.3198(8) 0.7460(9) 0.2658(8)
N8 N 0.4347(7) 0.9814(9) 0.2380(8)
N9 N 0.5036(9) 0.8125(9) 0.4284(7)
N10 N 0.5791(8) 0.7769(9) 0.4306(7)
H1 H 0.1972 0.9557 0.2890
O2 O 0.1847(8) 0.7936(8) 0.2207(9)
C5 C 0.5300(9) 0.7588(12) 0.2191(8)
H4 H 0.5799 0.7296 0.2014
H5 H 0.4808 0.7260 0.2060
H6 H 0.5267 0.8120 0.1917
O3 O 0.2070(9) 0.6567(8) 0.2690(9)
O4 O 0.2669(12) 0.6939(9) 0.1464(6)
Zn3 Zn 0.70218(9) 0.68239(9) 0.33651(8)
N13 N 0.2983(7) 0.8581(7) 0.4312(6)
Zn1_2 Zn 0.20218(9) 0.81761(9) 0.66349(8)
S2_2 S 0.3075(3) 0.7181(3) 0.7861(2)
N2_2 N 0.1614(6) 0.9251(7) 0.7141(6)
C1_2 C 0.1982(8) 0.9860(8) 0.7491(7)
N6_2 N 0.2471(7) 0.8492(6) 0.5537(6)
C3 C 0.2782(7) 0.8071(7) 0.4903(7)
N7_2 N 0.0764(7) 0.9463(9) 0.7066(9)
C4_2 C 0.2901(8) 0.9928(10) 0.7611(11)
H2_2 H 0.3096 0.9463 0.7933
H3_2 H 0.3179 0.9923 0.7088
N11 N 0.2778(12) 0.9377(8) 0.4591(9)
O5_2 O 0.2974(8) 0.7671(10) 0.7120(8)
C6 C 0.2907(12) 0.7167(9) 0.4893(8)
H7_2 H 0.2708 0.6932 0.5399
H8 H 0.2596 0.6928 0.4445
H9 H 0.3499 0.7045 0.4828
N12_2 N 0.2498(12) 0.9302(8) 0.5341(8)
O6_2 O 0.3888(9) 0.696(2) 0.7961(12)
O7_2 O 0.2420(14) 0.6555(14) 0.7927(11)
O8_2 O 0.285(2) 0.763(2) 0.8529(8)
N14_2 N 0.0995(7) 0.7469(7) 0.6476(5)
N4_2 N 0.9005(7) 0.2469(7) 0.8524(5)
C2_2 C 0.9662(8) 0.2280(7) 0.8057(6)
N9_2 N 0.9964(9) 0.1875(9) 0.9284(7)
N10_2 N 0.9209(8) 0.2231(9) 0.9306(7)
C5_2 C 0.9700(9) 0.2412(12) 0.7191(8)
H4_2 H 0.9201 0.2704 0.7014
H6_2 H 0.9733 0.1880 0.6917
Zn3_2 Zn 0.79782(9) 0.31761(9) 0.83651(8)
Zn2_2 Zn 0.64375(8) 0.34386(9) 0.17571(8)
S1_2 S 0.7562(2) 0.2244(2) 0.2768(2)
S2_3 S 0.8075(3) 0.7819(3) 0.2139(2)
N1_2 N 0.6431(6) 0.4508(6) 0.2363(6)
N2_3 N 0.6614(6) 0.5749(7) 0.2859(6)
N3 N 0.7983(7) 0.6419(7) 0.5688(6)
C1_3 C 0.6982(8) 0.5140(8) 0.2509(7)
N5_2 N 0.5242(6) 0.3101(6) 0.1501(5)
N6_3 N 0.7471(7) 0.6508(6) 0.4463(6)
C2_3 C 0.4662(8) 0.2720(7) 0.1943(6)
C3_2 C 0.7782(7) 0.6929(7) 0.5097(7)
O1_2 O 0.6802(8) 0.2460(9) 0.2342(8)
N7_3 N 0.5764(7) 0.5537(9) 0.2934(9)
N8_2 N 0.5653(7) 0.4814(9) 0.2620(8)
N9_3 N 0.4964(9) 0.3125(9) 0.0716(7)
N10_3 N 0.4209(8) 0.2769(9) 0.0694(7)
C4_3 C 0.7901(8) 0.5072(10) 0.2389(11)
H1_2 H 0.8028 0.4557 0.2110
H2_3 H 0.8096 0.5537 0.2067
H3_3 H 0.8179 0.5077 0.2912
O2_2 O 0.8153(8) 0.2936(8) 0.2793(9)
C5_3 C 0.4700(9) 0.2588(12) 0.2809(8)
H4_3 H 0.4201 0.2296 0.2986
H5_2 H 0.5192 0.2260 0.2940
H6_3 H 0.4733 0.3120 0.3083
O3_2 O 0.7930(9) 0.1567(8) 0.2310(9)
O4_2 O 0.7331(12) 0.1939(9) 0.3536(6)
N11_2 N 0.7778(12) 0.5623(8) 0.5409(9)
O5_3 O 0.7974(8) 0.7329(10) 0.2880(8)
C6_2 C 0.7907(12) 0.7833(9) 0.5107(8)
H7_3 H 0.7708 0.8068 0.4601
H8_2 H 0.7596 0.8072 0.5555
H9_2 H 0.8499 0.7955 0.5172
N12_3 N 0.7498(12) 0.5698(8) 0.4659(8)
O6_3 O 0.8888(9) 0.804(2) 0.2039(12)
O7_3 O 0.7420(14) 0.8445(14) 0.2073(11)
O8_3 O 0.785(2) 0.737(2) 0.1471(8)
Zn4 Zn 0.85625(8) 0.65614(9) 0.67571(8)
N13_2 N 0.7017(7) 0.3581(7) 0.0688(6)
C2_4 C 0.0338(8) 0.7280(7) 0.6943(6)
N9_4 N 0.0036(9) 0.6875(9) 0.5716(7)
N10_4 N 0.0791(8) 0.7231(9) 0.5694(7)
C5_4 C 0.0300(9) 0.7412(12) 0.7809(8)
H4_4 H 0.0799 0.7704 0.7986
H6_4 H 0.0267 0.6880 0.8083
C3_3 C 0.7218(7) 0.3071(7) 0.0097(7)
N11_3 N 0.7222(12) 0.4377(8) 0.0409(9)
C6_3 C 0.7093(12) 0.2167(9) 0.0107(8)
H8_3 H 0.7404 0.1928 0.0555
H9_3 H 0.6501 0.2045 0.0172
S1_3 S 0.7438(2) 0.7756(2) 0.7768(2)
S2_4 S 0.6925(3) 0.2181(3) 0.7139(2)
N1_3 N 0.8569(6) 0.5492(6) 0.7363(6)
N2_4 N 0.8386(6) 0.4251(7) 0.7859(6)
C1_4 C 0.8018(8) 0.4860(8) 0.7509(7)
N5_3 N 0.9758(6) 0.6899(6) 0.6501(5)
N6_4 N 0.7529(7) 0.3492(6) 0.9463(6)
O1_3 O 0.8198(8) 0.7540(9) 0.7342(8)
N7_4 N 0.9236(7) 0.4463(9) 0.7934(9)
N8_3 N 0.9347(7) 0.5186(9) 0.7620(8)
C4_4 C 0.7099(8) 0.4928(10) 0.7389(11)
H1_3 H 0.6972 0.5443 0.7110
H2_4 H 0.6904 0.4463 0.7067
H3_4 H 0.6821 0.4923 0.7912
O2_3 O 0.6847(8) 0.7064(8) 0.7793(9)
H5_3 H 0.9808 0.7740 0.7940
O3_3 O 0.7070(9) 0.8433(8) 0.7310(9)
O4_3 O 0.7669(12) 0.8061(9) 0.8536(6)
O5_4 O 0.7026(8) 0.2671(10) 0.7880(8)
H7_4 H 0.7292 0.1932 0.9601
N12_4 N 0.7502(12) 0.4302(8) 0.9659(8)
O6_4 O 0.6112(9) 0.196(2) 0.7039(12)
O7_4 O 0.7580(14) 0.1555(14) 0.7073(11)
O8_4 O 0.715(2) 0.263(2) 0.6471(8)
N3_2 N 0.2017(7) 0.1419(7) 0.9312(6)
C3_4 C 0.2218(7) 0.1929(7) 0.9903(7)
N11_4 N 0.2222(12) 0.0623(8) 0.9591(9)
C6_4 C 0.2093(12) 0.2833(9) 0.9893(8)
H8_4 H 0.2404 0.3072 0.9445
H9_4 H 0.1501 0.2955 0.9828
Zn4_2 Zn 0.14375(8) 0.15614(9) 0.82429(8)
S1_4 S 0.2562(2) 0.2756(2) 0.7232(2)
N1_4 N 0.1431(6) 0.0492(6) 0.7637(6)
N5_4 N 0.0242(6) 0.1899(6) 0.8499(5)
O1_4 O 0.1802(8) 0.2540(9) 0.7658(8)
N8_4 N 0.0653(7) 0.0186(9) 0.7380(8)
H1_4 H 0.3028 0.0443 0.7890
O2_4 O 0.3153(8) 0.2064(8) 0.7207(9)
H5_4 H 0.0192 0.2740 0.7060
O3_4 O 0.2930(9) 0.3433(8) 0.7690(9)
O4_4 O 0.2331(12) 0.3061(9) 0.6464(6)
H10 H 0.7456 0.0457 0.2484
C7 C 0.6486(16) 0.0132(12) 0.1441(10)
H12 H 0.5973 0.0175 0.1129
H13 H 0.6819 0.0630 0.1363
C8 C 0.6265(9) 0.004(3) 0.2362(9)
H15 H 0.5970 0.0521 0.2583
H18 H 0.6777 0.0394 0.3761
H21 H 0.8295 0.0440 0.3824
N15 N 0.7175(8) 0.9994(9) 0.2622(9)
H11 H 0.7435 0.9550 0.2409
H14 H 0.6802 0.9652 0.1263
H16 H 0.5953 0.9528 0.2481
C9 C 0.7078(12) 0.992(2) 0.3532(8)
H17 H 0.6787 0.9404 0.3683
C10 C 0.8017(12) 0.990(2) 0.3808(17)
H19 H 0.7833 0.9757 0.4349
H20 H 0.8405 0.9488 0.3610
N15_2 N 0.7825(8) 0.0006(9) 0.7622(9)
H11_2 H 0.7565 0.0450 0.7409
H14_2 H 0.8198 0.0348 0.6263
H16_2 H 0.9047 0.0472 0.7481
C9_2 C 0.7922(12) 0.008(2) 0.8532(8)
H17_2 H 0.8213 0.0596 0.8683
C10_2 C 0.6983(12) 0.010(2) 0.8808(17)
H19_2 H 0.7167 0.0243 0.9349
H20_2 H 0.6595 0.0512 0.8610
H10_2 H 0.7544 0.9543 0.7484
C7_2 C 0.8514(16) 0.9868(12) 0.6441(10)
H12_2 H 0.9027 0.9825 0.6129
H13_2 H 0.8181 0.9370 0.6363
C8_2 C 0.8735(9) 0.996(3) 0.7362(9)
H15_2 H 0.9030 0.9479 0.7583
H18_2 H 0.8223 0.9606 0.8761
H21_2 H 0.6705 0.9560 0.8824
N15_3 N 0.2825(8) 0.4994(9) 0.2378(9)
H10_3 H 0.2544 0.5457 0.2516
H11_3 H 0.2565 0.4550 0.2591
C7_3 C 0.3514(16) 0.5132(12) 0.3559(10)
H12_3 H 0.4027 0.5175 0.3871
H13_3 H 0.3181 0.5630 0.3637
H14_3 H 0.3198 0.4652 0.3737
C8_3 C 0.3735(9) 0.504(3) 0.2638(9)
H15_3 H 0.4030 0.5521 0.2417
H16_3 H 0.4047 0.4528 0.2519
C9_3 C 0.2922(12) 0.492(2) 0.1468(8)
H17_3 H 0.3213 0.4404 0.1317
H18_3 H 0.3223 0.5394 0.1239
C10_3 C 0.1983(12) 0.490(2) 0.1192(17)
H19_3 H 0.2167 0.4757 0.0651
H20_3 H 0.1595 0.4488 0.1390
H21_3 H 0.1705 0.5440 0.1176
N15_4 N 0.2175(8) 0.5006(9) 0.7378(9)
H10_4 H 0.2456 0.4543 0.7516
H11_4 H 0.2435 0.5450 0.7591
C7_4 C 0.1486(16) 0.4868(12) 0.8559(10)
H12_4 H 0.0973 0.4825 0.8871
H13_4 H 0.1819 0.4370 0.8637
H14_4 H 0.1802 0.5348 0.8737
C8_4 C 0.1265(9) 0.496(3) 0.7638(9)
H15_4 H 0.0970 0.4479 0.7417
H16_4 H 0.0953 0.5472 0.7519
C9_4 C 0.2078(12) 0.508(2) 0.6468(8)
H17_4 H 0.1787 0.5596 0.6317
H18_4 H 0.1777 0.4606 0.6239
C10_4 C 0.3017(12) 0.510(2) 0.6192(17)
H19_4 H 0.2833 0.5243 0.5651
H20_4 H 0.3405 0.5512 0.6390
H21_4 H 0.3295 0.4560 0.6176
H23 H 0.0187 0.2575 0.2364
H25 H 0.0359 0.2374 0.0966
H28 H 0.0017 0.3718 0.1540
H29 H 0.0414 0.1232 0.1818
H31 H 0.0037 0.0494 0.3033
H32 H 0.0427 0.1364 0.3273
N16 N 0.9773(10) 0.2310(10) 0.2099(7)
H22 H 0.9276 0.2455 0.2314
C11 C 0.9803(17) 0.2482(11) 0.1196(8)
H24 H 0.9379 0.2165 0.0898
C12 C 0.9594(18) 0.3431(11) 0.1224(15)
H26 H 0.9586 0.3652 0.0678
H27 H 0.9049 0.3511 0.1473
C13 C 0.9898(16) 0.1378(10) 0.2108(11)
H30 H 0.9426 0.1102 0.1839
C14 C 0.996(2) 0.109(3) 0.3013(12)
H33 H 0.9442 0.1235 0.3293
N16_2 N 0.5227(10) 0.7690(10) 0.7099(7)
H22_2 H 0.5724 0.7545 0.7314
H23_2 H 0.4813 0.7425 0.7364
C11_2 C 0.5197(17) 0.7518(11) 0.6196(8)
H24_2 H 0.5621 0.7835 0.5898
H25_2 H 0.4641 0.7626 0.5966
C12_2 C 0.5406(18) 0.6569(11) 0.6224(15)
H26_2 H 0.5414 0.6348 0.5678
H27_2 H 0.5951 0.6489 0.6473
H28_2 H 0.4983 0.6282 0.6540
C13_2 C 0.5102(16) 0.8622(10) 0.7108(11)
H29_2 H 0.4586 0.8768 0.6818
H30_2 H 0.5574 0.8898 0.6839
C14_2 C 0.504(2) 0.891(3) 0.8013(12)
H31_2 H 0.4963 0.9506 0.8033
H32_2 H 0.4573 0.8636 0.8273
H33_2 H 0.5558 0.8765 0.8293
N16_3 N 0.0227(10) 0.7310(10) 0.2901(7)
H22_3 H 0.0724 0.7455 0.2686
C11_3 C 0.0197(17) 0.7482(11) 0.3804(8)
H24_3 H 0.0621 0.7165 0.4102
C12_3 C 0.0406(18) 0.8431(11) 0.3776(15)
H26_3 H 0.0414 0.8652 0.4322
H27_3 H 0.0951 0.8511 0.3527
C13_3 C 0.0102(16) 0.6378(10) 0.2892(11)
H30_3 H 0.0574 0.6102 0.3161
C14_3 C 0.004(2) 0.609(3) 0.1987(12)
H33_3 H 0.0558 0.6235 0.1707
H23_3 H 0.9813 0.7575 0.2636
H25_3 H 0.9641 0.7374 0.4034
H28_3 H 0.9983 0.8718 0.3460
H29_3 H 0.9586 0.6232 0.3182
H31_3 H 0.9963 0.5494 0.1967
H32_3 H 0.9573 0.6364 0.1727
N16_4 N 0.4773(10) 0.2690(10) 0.7901(7)
H22_4 H 0.4276 0.2545 0.7686
H23_4 H 0.5187 0.2425 0.7636
C11_4 C 0.4803(17) 0.2518(11) 0.8804(8)
H24_4 H 0.4379 0.2835 0.9102
H25_4 H 0.5359 0.2626 0.9034
C12_4 C 0.4594(18) 0.1569(11) 0.8776(15)
H26_4 H 0.4586 0.1348 0.9322
H27_4 H 0.4049 0.1489 0.8527
H28_4 H 0.5017 0.1282 0.8460
C13_4 C 0.4898(16) 0.3622(10) 0.7892(11)
H29_4 H 0.5414 0.3768 0.8182
H30_4 H 0.4426 0.3898 0.8161
C14_4 C 0.496(2) 0.391(3) 0.6987(12)
H31_4 H 0.5037 0.4506 0.6967
H32_4 H 0.5427 0.3636 0.6727
H33_4 H 0.4442 0.3765 0.6707
N17 N 0.2506(11) 0.8026(9) 0.0097(7)
H34 H 0.2576 0.7646 0.0491
C15 C 0.1601(10) 0.8305(15) 0.003(3)
H37 H 0.1401 0.8584 0.0526
C16 C 0.2931(11) 0.8840(14) 0.030(3)
H38 H 0.2765 0.9042 0.0840
C17 C 0.3873(13) 0.8564(17) 0.0288(15)
H40 H 0.4227 0.9036 0.0414
H41 H 0.3962 0.8131 0.0687
H45 H 0.1410 0.7079 0.0424
H35 H 0.2693 0.7818 0.9624
H36 H 0.1492 0.8648 0.9556
H39 H 0.2815 0.9268 0.9897
H42 H 0.4012 0.8354 0.9754
C18 C 0.126(2) 0.7398(15) 0.9948(18)
H43 H 0.0652 0.7413 0.9896
H44 H 0.1499 0.7141 0.9470
N17_2 N 0.2494(11) 0.1974(9) 0.5097(7)
H34_2 H 0.2424 0.2354 0.5491
H35_2 H 0.2307 0.2182 0.4624
C15_2 C 0.3399(10) 0.1695(15) 0.503(3)
H36_2 H 0.3508 0.1352 0.4556
H37_2 H 0.3599 0.1416 0.5526
C16_2 C 0.2069(11) 0.1160(14) 0.530(3)
H38_2 H 0.2235 0.0958 0.5840
H39_2 H 0.2185 0.0732 0.4897
C17_2 C 0.1127(13) 0.1436(17) 0.5288(15)
H40_2 H 0.0773 0.0964 0.5414
H41_2 H 0.1038 0.1869 0.5687
H42_2 H 0.0988 0.1646 0.4754
C18_2 C 0.374(2) 0.2602(15) 0.4948(18)
H43_2 H 0.4348 0.2587 0.4896
H44_2 H 0.3501 0.2859 0.4470
H45_2 H 0.3590 0.2921 0.5424
N17_3 N 0.7494(11) 0.3026(9) 0.4903(7)
H34_3 H 0.7424 0.2646 0.4509
H35_3 H 0.7307 0.2818 0.5376
C15_3 C 0.8399(10) 0.3305(15) 0.497(3)
H36_3 H 0.8508 0.3648 0.5444
H37_3 H 0.8599 0.3584 0.4474
C16_3 C 0.7069(11) 0.3840(14) 0.470(3)
H38_3 H 0.7235 0.4042 0.4160
H39_3 H 0.7185 0.4268 0.5103
C17_3 C 0.6127(13) 0.3564(17) 0.4712(15)
H40_3 H 0.5773 0.4036 0.4586
H41_3 H 0.6038 0.3131 0.4313
H42_3 H 0.5988 0.3354 0.5246
C18_3 C 0.874(2) 0.2398(15) 0.5052(18)
H43_3 H 0.9348 0.2413 0.5104
H44_3 H 0.8501 0.2141 0.5530
H45_3 H 0.8590 0.2079 0.4576
H35_4 H 0.7693 0.7182 0.0376
H36_4 H 0.6492 0.6352 0.0444
H39_4 H 0.7815 0.5732 0.0103
H42_4 H 0.9012 0.6646 0.0246
C18_4 C 0.626(2) 0.7602(15) 0.0052(18)
H43_4 H 0.5652 0.7587 0.0104
H44_4 H 0.6499 0.7859 0.0530
N17_4 N 0.7506(11) 0.6974(9) 0.9903(7)
H34_4 H 0.7576 0.7354 0.9509
C15_4 C 0.6601(10) 0.6695(15) 0.997(3)
H37_4 H 0.6401 0.6416 0.9474
C16_4 C 0.7931(11) 0.6160(14) 0.970(3)
H38_4 H 0.7765 0.5958 0.9160
C17_4 C 0.8873(13) 0.6436(17) 0.9712(15)
H40_4 H 0.9227 0.5964 0.9586
H41_4 H 0.8962 0.6869 0.9313
H45_4 H 0.6410 0.7921 0.9576
loop_
_geom_bond_atom_site_label_1
_geom_bond_atom_site_label_2
_geom_bond_site_symmetry_1
_geom_bond_site_symmetry_2
Zn1 N2 1_555 1_555
S2 O5 1_555 1_555
N2 C1 1_555 1_555
C1 C4 1_555 1_555
N6 Zn1 1_555 1_555
N7 N2 1_555 1_555
H2 C4 1_555 1_555
H3 C4 1_555 1_555
O5 Zn1 1_555 1_555
N12 N6 1_555 1_555
O6 S2 1_555 1_555
O7 S2 1_555 1_555
O8 S2 1_555 1_555
N14 Zn1 1_555 1_555
Zn2 N1 1_555 1_555
S1 O1 1_555 1_555
N4 C2 1_555 1_555
N5 Zn2 1_555 1_555
C2 N5 1_555 1_555
O1 Zn2 1_555 1_555
N8 N1 1_555 1_555
N9 N5 1_555 1_555
N10 N4 1_555 1_555
O2 S1 1_555 1_555
C5 C2 1_555 1_555
H4 C5 1_555 1_555
H5 C5 1_555 1_555
H6 C5 1_555 1_555
O3 S1 1_555 1_555
O4 S1 1_555 1_555
Zn3 N4 1_555 1_555
N13 Zn2 1_555 1_555
N9 N10 1_555 1_555
Zn1_2 N2_2 1_555 1_555
S2_2 O5_2 1_555 1_555
N2_2 C1_2 1_555 1_555
N13 C3 1_555 1_555
C1_2 C4_2 1_555 1_555
N6_2 Zn1_2 1_555 1_555
C3 N6_2 1_555 1_555
N7_2 N2_2 1_555 1_555
H2_2 C4_2 1_555 1_555
H3_2 C4_2 1_555 1_555
N11 N13 1_555 1_555
O5_2 Zn1_2 1_555 1_555
C6 C3 1_555 1_555
H7_2 C6 1_555 1_555
H8 C6 1_555 1_555
H9 C6 1_555 1_555
N12_2 N6_2 1_555 1_555
O6_2 S2_2 1_555 1_555
O7_2 S2_2 1_555 1_555
O8_2 S2_2 1_555 1_555
N14_2 Zn1_2 1_555 1_555
N11 N12_2 1_555 1_555
N4_2 C2_2 1_555 1_555
N10_2 N4_2 1_555 1_555
C5_2 C2_2 1_555 1_555
H4_2 C5_2 1_555 1_555
H6_2 C5_2 1_555 1_555
Zn3_2 N4_2 1_555 1_555
N9_2 N10_2 1_555 1_555
Zn3 N2_3 1_555 1_555
Zn2_2 N1_2 1_555 1_555
S1_2 O1_2 1_555 1_555
S2_3 O5_3 1_555 1_555
N1_2 C1_3 1_555 1_555
N2_3 C1_3 1_555 1_555
N3 C3_2 1_555 1_555
C1_3 C4_3 1_555 1_555
N14 C2_3 1_555 1_555
N5_2 Zn2_2 1_555 1_555
N6_3 Zn3 1_555 1_555
C2_3 N5_2 1_555 1_555
C3_2 N6_3 1_555 1_555
O1_2 Zn2_2 1_555 1_555
N7_3 N2_3 1_555 1_555
N8_2 N1_2 1_555 1_555
N9_3 N5_2 1_555 1_555
N10_3 N14 1_555 1_555
C4_3 H1_2 1_555 1_555
H2_3 C4_3 1_555 1_555
H3_3 C4_3 1_555 1_555
O2_2 S1_2 1_555 1_555
C5_3 C2_3 1_555 1_555
H4_3 C5_3 1_555 1_555
H5_2 C5_3 1_555 1_555
H6_3 C5_3 1_555 1_555
O3_2 S1_2 1_555 1_555
O4_2 S1_2 1_555 1_555
N11_2 N3 1_555 1_555
O5_3 Zn3 1_555 1_555
C6_2 C3_2 1_555 1_555
H7_3 C6_2 1_555 1_555
H8_2 C6_2 1_555 1_555
H9_2 C6_2 1_555 1_555
N12_3 N6_3 1_555 1_555
O6_3 S2_3 1_555 1_555
O7_3 S2_3 1_555 1_555
O8_3 S2_3 1_555 1_555
Zn4 N3 1_555 1_555
N13_2 Zn2_2 1_555 1_555
N7_3 N8_2 1_555 1_555
N9_3 N10_3 1_555 1_555
N11_2 N12_3 1_555 1_555
N14_2 C2_4 1_555 1_555
N10_4 N14_2 1_555 1_555
C5_4 C2_4 1_555 1_555
H4_4 C5_4 1_555 1_555
H6_4 C5_4 1_555 1_555
N9_4 N10_4 1_555 1_555
N13_2 C3_3 1_555 1_555
N11_3 N13_2 1_555 1_555
C6_3 C3_3 1_555 1_555
H8_3 C6_3 1_555 1_555
H9_3 C6_3 1_555 1_555
Zn3_2 N2_4 1_555 1_555
Zn4 N1_3 1_555 1_555
S1_3 O1_3 1_555 1_555
S2_4 O5_4 1_555 1_555
N1_3 C1_4 1_555 1_555
N2_4 C1_4 1_555 1_555
C1_4 C4_4 1_555 1_555
N5_3 Zn4 1_555 1_555
N6_4 Zn3_2 1_555 1_555
O1_3 Zn4 1_555 1_555
N7_4 N2_4 1_555 1_555
N8_3 N1_3 1_555 1_555
C4_4 H1_3 1_555 1_555
H2_4 C4_4 1_555 1_555
H3_4 C4_4 1_555 1_555
O2_3 S1_3 1_555 1_555
O3_3 S1_3 1_555 1_555
O4_3 S1_3 1_555 1_555
O5_4 Zn3_2 1_555 1_555
N12_4 N6_4 1_555 1_555
O6_4 S2_4 1_555 1_555
O7_4 S2_4 1_555 1_555
O8_4 S2_4 1_555 1_555
N7_4 N8_3 1_555 1_555
N3_2 C3_4 1_555 1_555
N11_4 N3_2 1_555 1_555
C6_4 C3_4 1_555 1_555
H8_4 C6_4 1_555 1_555
H9_4 C6_4 1_555 1_555
Zn4_2 N3_2 1_555 1_555
Zn4_2 N1_4 1_555 1_555
S1_4 O1_4 1_555 1_555
N5_4 Zn4_2 1_555 1_555
O1_4 Zn4_2 1_555 1_555
N8_4 N1_4 1_555 1_555
O2_4 S1_4 1_555 1_555
O3_4 S1_4 1_555 1_555
O4_4 S1_4 1_555 1_555
C7 H12 1_555 1_555
H13 C7 1_555 1_555
H15 C8 1_555 1_555
C7 C8 1_555 1_555
H11 N15 1_555 1_555
C9 N15 1_555 1_555
H17 C9 1_555 1_555
C10 C9 1_555 1_555
H19 C10 1_555 1_555
H20 C10 1_555 1_555
H11_2 N15_2 1_555 1_555
C9_2 N15_2 1_555 1_555
H17_2 C9_2 1_555 1_555
C10_2 C9_2 1_555 1_555
H19_2 C10_2 1_555 1_555
H20_2 C10_2 1_555 1_555
C7_2 H12_2 1_555 1_555
H13_2 C7_2 1_555 1_555
H15_2 C8_2 1_555 1_555
C7_2 C8_2 1_555 1_555
N15_3 H10_3 1_555 1_555
H11_3 N15_3 1_555 1_555
C7_3 H12_3 1_555 1_555
H13_3 C7_3 1_555 1_555
H14_3 C7_3 1_555 1_555
C8_3 N15_3 1_555 1_555
H15_3 C8_3 1_555 1_555
H16_3 C8_3 1_555 1_555
C9_3 N15_3 1_555 1_555
H17_3 C9_3 1_555 1_555
H18_3 C9_3 1_555 1_555
C10_3 C9_3 1_555 1_555
H19_3 C10_3 1_555 1_555
H20_3 C10_3 1_555 1_555
H21_3 C10_3 1_555 1_555
C7_3 C8_3 1_555 1_555
N15_4 H10_4 1_555 1_555
H11_4 N15_4 1_555 1_555
C7_4 H12_4 1_555 1_555
H13_4 C7_4 1_555 1_555
H14_4 C7_4 1_555 1_555
C8_4 N15_4 1_555 1_555
H15_4 C8_4 1_555 1_555
H16_4 C8_4 1_555 1_555
C9_4 N15_4 1_555 1_555
H17_4 C9_4 1_555 1_555
H18_4 C9_4 1_555 1_555
C10_4 C9_4 1_555 1_555
H19_4 C10_4 1_555 1_555
H20_4 C10_4 1_555 1_555
H21_4 C10_4 1_555 1_555
C7_4 C8_4 1_555 1_555
N16 H22 1_555 1_555
C11 N16 1_555 1_555
H24 C11 1_555 1_555
C12 C11 1_555 1_555
H26 C12 1_555 1_555
H27 C12 1_555 1_555
C13 N16 1_555 1_555
H30 C13 1_555 1_555
C14 C13 1_555 1_555
H33 C14 1_555 1_555
N16_2 H22_2 1_555 1_555
H23_2 N16_2 1_555 1_555
C11_2 N16_2 1_555 1_555
H24_2 C11_2 1_555 1_555
H25_2 C11_2 1_555 1_555
C12_2 C11_2 1_555 1_555
H26_2 C12_2 1_555 1_555
H27_2 C12_2 1_555 1_555
H28_2 C12_2 1_555 1_555
C13_2 N16_2 1_555 1_555
H29_2 C13_2 1_555 1_555
H30_2 C13_2 1_555 1_555
C14_2 C13_2 1_555 1_555
H31_2 C14_2 1_555 1_555
H32_2 C14_2 1_555 1_555
H33_2 C14_2 1_555 1_555
N16_3 H22_3 1_555 1_555
C11_3 N16_3 1_555 1_555
H24_3 C11_3 1_555 1_555
C12_3 C11_3 1_555 1_555
H26_3 C12_3 1_555 1_555
H27_3 C12_3 1_555 1_555
C13_3 N16_3 1_555 1_555
H30_3 C13_3 1_555 1_555
C14_3 C13_3 1_555 1_555
H33_3 C14_3 1_555 1_555
N16_4 H22_4 1_555 1_555
H23_4 N16_4 1_555 1_555
C11_4 N16_4 1_555 1_555
H24_4 C11_4 1_555 1_555
H25_4 C11_4 1_555 1_555
C12_4 C11_4 1_555 1_555
H26_4 C12_4 1_555 1_555
H27_4 C12_4 1_555 1_555
H28_4 C12_4 1_555 1_555
C13_4 N16_4 1_555 1_555
H29_4 C13_4 1_555 1_555
H30_4 C13_4 1_555 1_555
C14_4 C13_4 1_555 1_555
H31_4 C14_4 1_555 1_555
H32_4 C14_4 1_555 1_555
H33_4 C14_4 1_555 1_555
N17 H34 1_555 1_555
C15 N17 1_555 1_555
H37 C15 1_555 1_555
C16 N17 1_555 1_555
H38 C16 1_555 1_555
C17 C16 1_555 1_555
H40 C17 1_555 1_555
H41 C17 1_555 1_555
H43 C18 1_555 1_555
H44 C18 1_555 1_555
N17_2 H34_2 1_555 1_555
H35_2 N17_2 1_555 1_555
C15_2 N17_2 1_555 1_555
H36_2 C15_2 1_555 1_555
H37_2 C15_2 1_555 1_555
C16_2 N17_2 1_555 1_555
H38_2 C16_2 1_555 1_555
H39_2 C16_2 1_555 1_555
C17_2 C16_2 1_555 1_555
H40_2 C17_2 1_555 1_555
H41_2 C17_2 1_555 1_555
H42_2 C17_2 1_555 1_555
C18_2 C15_2 1_555 1_555
H43_2 C18_2 1_555 1_555
H44_2 C18_2 1_555 1_555
H45_2 C18_2 1_555 1_555
N17_3 H34_3 1_555 1_555
H35_3 N17_3 1_555 1_555
C15_3 N17_3 1_555 1_555
H36_3 C15_3 1_555 1_555
H37_3 C15_3 1_555 1_555
C16_3 N17_3 1_555 1_555
H38_3 C16_3 1_555 1_555
H39_3 C16_3 1_555 1_555
C17_3 C16_3 1_555 1_555
H40_3 C17_3 1_555 1_555
H41_3 C17_3 1_555 1_555
H42_3 C17_3 1_555 1_555
C18_3 C15_3 1_555 1_555
H43_3 C18_3 1_555 1_555
H44_3 C18_3 1_555 1_555
H45_3 C18_3 1_555 1_555
H43_4 C18_4 1_555 1_555
H44_4 C18_4 1_555 1_555
N17_4 H34_4 1_555 1_555
C15_4 N17_4 1_555 1_555
H37_4 C15_4 1_555 1_555
C16_4 N17_4 1_555 1_555
H38_4 C16_4 1_555 1_555
C17_4 C16_4 1_555 1_555
H40_4 C17_4 1_555 1_555
H41_4 C17_4 1_555 1_555

#END
