
###############################################################################
#
# This file contains modified crystal structure data generated from the
# MOF subset of the Cambridge Structural Database (CSD) v543 
# hosted by the Cambridge Crystallographic Data Centre (CCDC).
#
# This work is licensed under the Creative Commons
# Attribution-NonCommercial-ShareAlike 4.0 International License.
# To view a copy of this license, visit
# http://creativecommons.org/licenses/by-nc-sa/4.0/
# or send a letter to
# Creative Commons, PO Box 1866, Mountain View, CA 94042, USA.
#
# CIF created using the CSD Python API on 29 September 2022
# The structure has been converted into the P1 space group
# The structure has a 3D framework
# The original CSD entry UJUQIB is in the hexagonal crystal system
# The framework has been calculated to contain at least 10.0% void space
# The void calculation uses a probe of radius 1.32A, grid spacing 0.4
# The framework is charged, counterions have been retained in the structure
#
###############################################################################

data_UJUQIB
_chemical_formula_moiety         '(C90 H60 Co6 N30 O14 6+)n'
_symmetry_cell_setting           triclinic
_symmetry_space_group_name_H-M   'P 1'
_symmetry_Int_Tables_number      1
_space_group_name_Hall           'P 1'
loop_
_symmetry_equiv_pos_site_id
_symmetry_equiv_pos_as_xyz
1 x,y,z
_cell_length_a                   16.679(2)
_cell_length_b                   16.679(2)
_cell_length_c                   19.050(4)
_cell_angle_alpha                90
_cell_angle_beta                 90
_cell_angle_gamma                120
_cell_volume                     4589.5
loop_
_atom_site_label
_atom_site_type_symbol
_atom_site_fract_x
_atom_site_fract_y
_atom_site_fract_z
N7 N 0.0957(5) 0.0479(6) 0.8143(5)
H10 H 0.2274 0.0167 0.8099
N8 N 0.1922(5) 0.3845(5) 0.8051(6)
C18 C 0.0961(7) 0.1921(6) 0.8123(5)
C19 C 0.0989(6) 0.3374(4) 0.8090(4)
H11 H 0.0667 0.3709 0.8107
C20 C 0.0491(6) 0.2423(4) 0.8103(6)
C21 C 0.0444(8) 0.0889(7) 0.8131(7)
C26 C 0.2385(4) 0.3374(4) 0.8090(4)
H17 H 0.3042 0.3709 0.8107
C27 C 0.1932(5) 0.2423(4) 0.8103(6)
H18 H 0.2274 0.2107 0.8099
Co9 Co 0.26453(8) 0.52907(7) 0.79685(11)
N6 N 0.1923(2) 0.8078(5) 0.8051(6)
C14 C 0.0960(3) 0.9039(7) 0.8123(5)
C15 C 0.2385(4) 0.9011(6) 0.8090(4)
H9 H 0.3042 0.9333 0.8107
C16 C 0.1932(5) 0.9509(6) 0.8103(6)
C17 C 0.0445(3) 0.9556(8) 0.8131(7)
C22 C 0.0989(6) 0.7615(4) 0.8090(4)
H13 H 0.0667 0.6958 0.8107
C23 C 0.0491(6) 0.8068(5) 0.8103(6)
Co6 Co 0.26454(3) 0.73547(8) 0.79685(11)
N9 N 0.9521(6) 0.0478(3) 0.8143(5)
H12 H 0.9833 0.2107 0.8099
H16 H 0.7893 0.0167 0.8099
N10 N 0.6347(4) 0.1857(6) 0.3757(3)
N11 N 0.5537(3) 0.1074(4) 0.4664(4)
C29 C 0.6331(5) 0.1377(7) 0.4312(4)
H19 H 0.6814 0.1262 0.4443
C31 C 0.5252(4) 0.0504(6) 0.5296(7)
C32 C 0.5802(6) 0.0194(8) 0.5553(5)
H20 H 0.6389 0.0378 0.5349
C34 C 0.5046(5) 0.1377(7) 0.4312(4)
H22 H 0.4448 0.1262 0.4443
C35 C 0.4392(6) 0.0194(8) 0.5553(5)
H23 H 0.3989 0.0378 0.5349
N12 N 0.5510(4) 0.1857(6) 0.3757(3)
Co8 Co 0.52907(7) 0.26454(3) 0.29685(11)
Co11 Co 0.73546(3) 0.26453(8) 0.29685(11)
Co1 Co 0.47093(7) 0.73546(3) 0.79685(11)
O1 O 0.4837(4) 0.6517(4) 0.7214(3)
O2 O 0.3333 0.6667 0.7766(5)
N1 N 0.6155(5) 0.8077(2) 0.8051(6)
N2 N 0.5510(4) 0.3653(4) 0.3757(3)
C1 C 0.4293(4) 0.5707(4) 0.6995(5)
N3 N 0.9522(3) 0.9043(5) 0.8143(5)
N4 N 0.5537(3) 0.4463(3) 0.4664(4)
C2 C 0.8079(6) 0.9040(3) 0.8123(5)
C3 C 0.5046(5) 0.3669(5) 0.4312(4)
H1 H 0.4448 0.3186 0.4443
C4 C 0.4648(5) 0.5352(5) 0.6411(7)
C5 C 0.6626(4) 0.7615(4) 0.8090(4)
H2 H 0.6291 0.6958 0.8107
C6 C 0.7577(4) 0.8068(5) 0.8103(6)
H3 H 0.7893 0.7726 0.8099
C7 C 0.9111(7) 0.9555(3) 0.8131(7)
C8 C 0.5252(4) 0.4748(4) 0.5296(7)
C9 C 0.4392(6) 0.4198(6) 0.5553(5)
H4 H 0.3989 0.3611 0.5349
C10 C 0.4115(7) 0.4518(6) 0.6126(5)
H5 H 0.3521 0.4126 0.6324
O3 O 0.3483(4) 0.5163(4) 0.7214(3)
C11 C 0.6331(5) 0.4954(5) 0.4312(4)
H6 H 0.6814 0.5552 0.4443
C12 C 0.5802(6) 0.5608(6) 0.5553(5)
H7 H 0.6389 0.6011 0.5349
C13 C 0.5482(6) 0.5885(7) 0.6126(5)
H8 H 0.5874 0.6479 0.6324
N5 N 0.6347(4) 0.4490(4) 0.3757(3)
H14 H 0.9833 0.7726 0.8099
C24 C 0.6626(4) 0.9011(6) 0.8090(4)
H15 H 0.6291 0.9333 0.8107
C25 C 0.7577(4) 0.9509(6) 0.8103(6)
O4 O 0.3483(4) 0.8320(6) 0.7214(3)
C28 C 0.4293(4) 0.8586(6) 0.6995(5)
C30 C 0.4648(5) 0.9296(7) 0.6411(7)
C33 C 0.5482(6) 0.9597(9) 0.6126(5)
H21 H 0.5874 0.9395 0.6324
O5 O 0.4837(4) 0.8320(6) 0.7214(3)
C36 C 0.4115(7) 0.9597(9) 0.6126(5)
H24 H 0.3521 0.9395 0.6324
O6 O 0.1680(6) 0.5163(4) 0.7214(3)
C37 C 0.1414(6) 0.5707(4) 0.6995(5)
C39 C 0.0704(7) 0.5352(5) 0.6411(7)
C42 C 0.0403(9) 0.5885(7) 0.6126(5)
H27 H 0.0605 0.6479 0.6324
O7 O 0.1680(6) 0.6517(4) 0.7214(3)
C45 C 0.0403(9) 0.4518(6) 0.6126(5)
H30 H 0.0605 0.4126 0.6324
Co5 Co 0.73547(8) 0.47093(7) 0.29685(11)
N18 N 0.1857(6) 0.5510(4) 0.8757(3)
N19 N 0.4490(4) 0.6347(4) 0.8757(3)
N20 N 0.3653(4) 0.8143(6) 0.8757(3)
N21 N 0.3653(4) 0.5510(4) 0.8757(3)
N22 N 0.1857(6) 0.6347(4) 0.8757(3)
N23 N 0.4490(4) 0.8143(6) 0.8757(3)
N13 N 0.8143(6) 0.4490(4) 0.3757(3)
N14 N 0.8926(4) 0.4463(3) 0.4664(4)
C38 C 0.8623(7) 0.4954(5) 0.4312(4)
H25 H 0.8738 0.5552 0.4443
C40 C 0.9496(6) 0.4748(4) 0.5296(7)
C41 C 0.9806(8) 0.5608(6) 0.5553(5)
H26 H 0.9622 0.6011 0.5349
C43 C 0.8623(7) 0.3669(5) 0.4312(4)
H28 H 0.8738 0.3186 0.4443
C44 C 0.9806(8) 0.4198(6) 0.5553(5)
H29 H 0.9622 0.3611 0.5349
N15 N 0.8143(6) 0.3653(4) 0.3757(3)
N6_2 N 0.3845(5) 0.1923(2) 0.3051(6)
N7_2 N 0.0478(8) 0.0957(5) 0.3143(5)
C14_2 C 0.1921(8) 0.0960(3) 0.3123(5)
C15_2 C 0.3374(7) 0.2385(4) 0.3090(4)
H9_2 H 0.3709 0.3042 0.3107
C16_2 C 0.2423(8) 0.1932(5) 0.3103(6)
H10_2 H 0.2107 0.2274 0.3099
C17_2 C 0.0889(9) 0.0445(3) 0.3131(7)
C22_2 C 0.3374(7) 0.0989(6) 0.3090(4)
H13_2 H 0.3709 0.0667 0.3107
C23_2 C 0.2423(8) 0.0491(6) 0.3103(6)
H18_2 H 0.0167 0.2274 0.3099
N3_2 N 0.0479(6) 0.9522(3) 0.3143(5)
H3_2 H 0.0167 0.7893 0.3099
C8_2 C 0.0504(6) 0.5252(4) 0.0296(7)
C9_2 C 0.0194(8) 0.4392(6) 0.0553(5)
H4_2 H 0.0378 0.3989 0.0349
C12_2 C 0.0194(8) 0.5802(6) 0.0553(5)
H7_2 H 0.0378 0.6389 0.0349
H14_2 H 0.2107 0.9833 0.3099
N4_2 N 0.1074(4) 0.5537(3) 0.9664(4)
C3_2 C 0.1377(7) 0.5046(5) 0.9312(4)
H1_2 H 0.1262 0.4448 0.9443
C11_2 C 0.1377(7) 0.6331(5) 0.9312(4)
H6_2 H 0.1262 0.6814 0.9443
N8_2 N 0.8077(7) 0.1922(5) 0.3051(6)
C18_2 C 0.9040(9) 0.0961(7) 0.3123(5)
C19_2 C 0.7615(7) 0.0989(6) 0.3090(4)
H11_2 H 0.6958 0.0667 0.3107
C20_2 C 0.8068(7) 0.0491(6) 0.3103(6)
C21_2 C 0.9555(11) 0.0444(8) 0.3131(7)
C26_2 C 0.9011(6) 0.2385(4) 0.3090(4)
H17_2 H 0.9333 0.3042 0.3107
C27_2 C 0.9509(6) 0.1932(5) 0.3103(6)
O1_2 O 0.8320(6) 0.4837(4) 0.2214(3)
O2_2 O 0.6666 0.3333 0.2766(5)
N1_2 N 0.8078(5) 0.6155(5) 0.3051(6)
C1_2 C 0.8586(6) 0.4293(4) 0.1995(5)
C2_2 C 0.9039(7) 0.8079(6) 0.3123(5)
C4_2 C 0.9296(7) 0.4648(5) 0.1411(7)
C5_2 C 0.9011(6) 0.6626(4) 0.3090(4)
H2_2 H 0.9333 0.6291 0.3107
C6_2 C 0.9509(6) 0.7577(4) 0.3103(6)
C7_2 C 0.9556(8) 0.9111(7) 0.3131(7)
C10_2 C 0.9597(9) 0.4115(7) 0.1126(5)
H5_2 H 0.9395 0.3521 0.1324
O3_2 O 0.8320(6) 0.3483(4) 0.2214(3)
C13_2 C 0.9597(9) 0.5482(6) 0.1126(5)
H8_2 H 0.9395 0.5874 0.1324
N9_2 N 0.9043(7) 0.9521(6) 0.3143(5)
H12_2 H 0.7726 0.9833 0.3099
C24_2 C 0.7615(7) 0.6626(4) 0.3090(4)
H15_2 H 0.6958 0.6291 0.3107
C25_2 C 0.8068(7) 0.7577(4) 0.3103(6)
H16_2 H 0.7726 0.7893 0.3099
O4_2 O 0.5163(7) 0.3483(4) 0.2214(3)
C28_2 C 0.5707(7) 0.4293(4) 0.1995(5)
C30_2 C 0.5352(9) 0.4648(5) 0.1411(7)
C31_2 C 0.4748(7) 0.5252(4) 0.0296(7)
C32_2 C 0.5608(10) 0.5802(6) 0.0553(5)
H20_2 H 0.6011 0.6389 0.0349
C33_2 C 0.5885(11) 0.5482(6) 0.1126(5)
H21_2 H 0.6479 0.5874 0.1324
O5_2 O 0.6517(7) 0.4837(4) 0.2214(3)
C35_2 C 0.4198(10) 0.4392(6) 0.0553(5)
H23_2 H 0.3611 0.3989 0.0349
C36_2 C 0.4518(11) 0.4115(7) 0.1126(5)
H24_2 H 0.4126 0.3521 0.1324
O6_2 O 0.6517(7) 0.1680(6) 0.2214(3)
C37_2 C 0.5707(7) 0.1414(6) 0.1995(5)
C39_2 C 0.5352(9) 0.0704(7) 0.1411(7)
C42_2 C 0.4518(11) 0.0403(9) 0.1126(5)
H27_2 H 0.4126 0.0605 0.1324
O7_2 O 0.5163(7) 0.1680(6) 0.2214(3)
C45_2 C 0.5885(11) 0.0403(9) 0.1126(5)
H30_2 H 0.6479 0.0605 0.1324
N11_2 N 0.4463(5) 0.5537(3) 0.9664(4)
C29_2 C 0.4954(9) 0.6331(5) 0.9312(4)
H19_2 H 0.5552 0.6814 0.9443
C34_2 C 0.3669(9) 0.5046(5) 0.9312(4)
H22_2 H 0.3186 0.4448 0.9443
C40_2 C 0.4748(7) 0.9496(6) 0.0296(7)
C41_2 C 0.4198(10) 0.9806(8) 0.0553(5)
H26_2 H 0.3611 0.9622 0.0349
C44_2 C 0.5608(10) 0.9806(8) 0.0553(5)
H29_2 H 0.6011 0.9622 0.0349
N14_2 N 0.4463(5) 0.8926(4) 0.9664(4)
C38_2 C 0.3669(9) 0.8623(7) 0.9312(4)
H25_2 H 0.3186 0.8738 0.9443
C43_2 C 0.4954(9) 0.8623(7) 0.9312(4)
H28_2 H 0.5552 0.8738 0.9443
loop_
_geom_bond_atom_site_label_1
_geom_bond_atom_site_label_2
_geom_bond_site_symmetry_1
_geom_bond_site_symmetry_2
N8 C19 1_555 1_555
C18 C20 1_555 1_555
C19 H11 1_555 1_555
C20 C19 1_555 1_555
C21 N7 1_555 1_555
C26 N8 1_555 1_555
H17 C26 1_555 1_555
C27 C18 1_555 1_555
H18 C27 1_555 1_555
Co9 N8 1_555 1_555
C18 C21 1_555 1_555
C26 C27 1_555 1_555
N6 C15 1_555 1_555
C14 C16 1_555 1_555
C15 H9 1_555 1_555
C16 C15 1_555 1_555
C22 N6 1_555 1_555
H13 C22 1_555 1_555
C23 C14 1_555 1_555
Co6 N6 1_555 1_555
C14 C17 1_555 1_555
C22 C23 1_555 1_555
N10 C29 1_555 1_555
N11 C29 1_555 1_555
C29 H19 1_555 1_555
C31 N11 1_555 1_555
C32 C31 1_555 1_555
H20 C32 1_555 1_555
C34 N11 1_555 1_555
H22 C34 1_555 1_555
C35 C31 1_555 1_555
H23 C35 1_555 1_555
N12 N10 1_555 1_555
Co8 N12 1_555 1_555
Co11 N10 1_555 1_555
C34 N12 1_555 1_555
Co1 O1 1_555 1_555
O1 C1 1_555 1_555
O2 Co1 1_555 1_555
N1 Co1 1_555 1_555
N2 C3 1_555 1_555
C1 C4 1_555 1_555
N3 C7 1_555 1_555
N4 C3 1_555 1_555
C2 C6 1_555 1_555
C3 H1 1_555 1_555
C4 C10 1_555 1_555
C5 N1 1_555 1_555
H2 C5 1_555 1_555
C6 C5 1_555 1_555
H3 C6 1_555 1_555
C7 C2 1_555 1_555
C8 N4 1_555 1_555
C9 C8 1_555 1_555
H4 C9 1_555 1_555
C10 C9 1_555 1_555
H5 C10 1_555 1_555
O3 C1 1_555 1_555
C11 N4 1_555 1_555
H6 C11 1_555 1_555
C12 C8 1_555 1_555
H7 C12 1_555 1_555
C13 C4 1_555 1_555
H8 C13 1_555 1_555
N5 N2 1_555 1_555
C24 N1 1_555 1_555
H15 C24 1_555 1_555
C25 C2 1_555 1_555
Co6 O2 1_555 1_555
O4 Co6 1_555 1_555
C28 O4 1_555 1_555
C30 C28 1_555 1_555
C33 C30 1_555 1_555
H21 C33 1_555 1_555
O5 Co1 1_555 1_555
C36 C30 1_555 1_555
H24 C36 1_555 1_555
Co9 O2 1_555 1_555
O6 Co9 1_555 1_555
C37 O6 1_555 1_555
C39 C37 1_555 1_555
C42 C39 1_555 1_555
H27 C42 1_555 1_555
O7 Co6 1_555 1_555
C45 C39 1_555 1_555
H30 C45 1_555 1_555
Co5 N5 1_555 1_555
Co8 N2 1_555 1_555
N18 Co9 1_555 1_555
N19 Co1 1_555 1_555
N20 Co6 1_555 1_555
N21 Co9 1_555 1_555
N22 Co6 1_555 1_555
N23 Co1 1_555 1_555
O3 Co9 1_555 1_555
C11 N5 1_555 1_555
C12 C13 1_555 1_555
C24 C25 1_555 1_555
C28 O5 1_555 1_555
C37 O7 1_555 1_555
N18 N22 1_555 1_555
N19 N21 1_555 1_555
N20 N23 1_555 1_555
N13 C38 1_555 1_555
N14 C38 1_555 1_555
C38 H25 1_555 1_555
C40 N14 1_555 1_555
C41 C40 1_555 1_555
H26 C41 1_555 1_555
C43 N14 1_555 1_555
H28 C43 1_555 1_555
C44 C40 1_555 1_555
H29 C44 1_555 1_555
N15 N13 1_555 1_555
Co5 N13 1_555 1_555
Co11 N15 1_555 1_555
C43 N15 1_555 1_555
N6_2 C15_2 1_555 1_555
N7_2 C17_2 1_555 1_555
C14_2 C16_2 1_555 1_555
C15_2 H9_2 1_555 1_555
C16_2 C15_2 1_555 1_555
H10_2 C16_2 1_555 1_555
C22_2 N6_2 1_555 1_555
H13_2 C22_2 1_555 1_555
C23_2 C14_2 1_555 1_555
Co8 N6_2 1_555 1_555
C14_2 C17_2 1_555 1_555
C22_2 C23_2 1_555 1_555
C9_2 C8_2 1_555 1_555
H4_2 C9_2 1_555 1_555
C12_2 C8_2 1_555 1_555
H7_2 C12_2 1_555 1_555
N18 C3_2 1_555 1_555
N4_2 C3_2 1_555 1_555
C3_2 H1_2 1_555 1_555
C11_2 N4_2 1_555 1_555
H6_2 C11_2 1_555 1_555
C11_2 N22 1_555 1_555
N8_2 C19_2 1_555 1_555
C18_2 C20_2 1_555 1_555
C19_2 H11_2 1_555 1_555
C20_2 C19_2 1_555 1_555
C26_2 N8_2 1_555 1_555
H17_2 C26_2 1_555 1_555
C27_2 C18_2 1_555 1_555
Co11 N8_2 1_555 1_555
C18_2 C21_2 1_555 1_555
C26_2 C27_2 1_555 1_555
Co5 O1_2 1_555 1_555
O1_2 C1_2 1_555 1_555
O2_2 Co5 1_555 1_555
N1_2 Co5 1_555 1_555
C1_2 C4_2 1_555 1_555
C2_2 C6_2 1_555 1_555
C4_2 C10_2 1_555 1_555
C5_2 N1_2 1_555 1_555
H2_2 C5_2 1_555 1_555
C6_2 C5_2 1_555 1_555
C7_2 C2_2 1_555 1_555
H5_2 C10_2 1_555 1_555
O3_2 C1_2 1_555 1_555
C13_2 C4_2 1_555 1_555
H8_2 C13_2 1_555 1_555
N9_2 C7_2 1_555 1_555
C24_2 N1_2 1_555 1_555
H15_2 C24_2 1_555 1_555
C25_2 C2_2 1_555 1_555
H16_2 C25_2 1_555 1_555
Co8 O2_2 1_555 1_555
O4_2 Co8 1_555 1_555
C28_2 O4_2 1_555 1_555
C30_2 C28_2 1_555 1_555
C32_2 C31_2 1_555 1_555
H20_2 C32_2 1_555 1_555
C33_2 C30_2 1_555 1_555
H21_2 C33_2 1_555 1_555
O5_2 Co5 1_555 1_555
C35_2 C31_2 1_555 1_555
H23_2 C35_2 1_555 1_555
C36_2 C30_2 1_555 1_555
H24_2 C36_2 1_555 1_555
Co11 O2_2 1_555 1_555
O6_2 Co11 1_555 1_555
C37_2 O6_2 1_555 1_555
C39_2 C37_2 1_555 1_555
C42_2 C39_2 1_555 1_555
H27_2 C42_2 1_555 1_555
O7_2 Co8 1_555 1_555
C45_2 C39_2 1_555 1_555
H30_2 C45_2 1_555 1_555
O3_2 Co11 1_555 1_555
C24_2 C25_2 1_555 1_555
C28_2 O5_2 1_555 1_555
C32_2 C33_2 1_555 1_555
C35_2 C36_2 1_555 1_555
C37_2 O7_2 1_555 1_555
N19 C29_2 1_555 1_555
N11_2 C29_2 1_555 1_555
C29_2 H19_2 1_555 1_555
C34_2 N11_2 1_555 1_555
H22_2 C34_2 1_555 1_555
C34_2 N21 1_555 1_555
C41_2 C40_2 1_555 1_555
H26_2 C41_2 1_555 1_555
C44_2 C40_2 1_555 1_555
H29_2 C44_2 1_555 1_555
N20 C38_2 1_555 1_555
N14_2 C38_2 1_555 1_555
C38_2 H25_2 1_555 1_555
C43_2 N14_2 1_555 1_555
H28_2 C43_2 1_555 1_555
C43_2 N23 1_555 1_555

#END
