
###############################################################################
#
# This file contains modified crystal structure data generated from the
# MOF subset of the Cambridge Structural Database (CSD) v543 
# hosted by the Cambridge Crystallographic Data Centre (CCDC).
#
# This work is licensed under the Creative Commons
# Attribution-NonCommercial-ShareAlike 4.0 International License.
# To view a copy of this license, visit
# http://creativecommons.org/licenses/by-nc-sa/4.0/
# or send a letter to
# Creative Commons, PO Box 1866, Mountain View, CA 94042, USA.
#
# CIF created using the CSD Python API on 29 September 2022
# The structure has been converted into the P1 space group
# The structure has a 3D framework
# The original CSD entry UKAHOG is in the rhombohedral crystal system
# The framework has been calculated to contain at least 10.0% void space
# The void calculation uses a probe of radius 1.32A, grid spacing 0.4
# H atom positions have been added when not included in the experimental data
# Generated hydrogen atom positions removed from atoms on special positions
#
###############################################################################

data_UKAHOG
_chemical_formula_moiety         '(C720 H792 N72 O288 Sc54)n'
_symmetry_cell_setting           triclinic
_symmetry_space_group_name_H-M   'P 1'
_symmetry_Int_Tables_number      1
_space_group_name_Hall           'P 1'
loop_
_symmetry_equiv_pos_site_id
_symmetry_equiv_pos_as_xyz
1 x,y,z
_cell_length_a                   28.8613(2)
_cell_length_b                   28.8613(2)
_cell_length_c                   47.8704(4)
_cell_angle_alpha                90
_cell_angle_beta                 90
_cell_angle_gamma                120
_cell_volume                     34532.6
loop_
_atom_site_label
_atom_site_type_symbol
_atom_site_fract_x
_atom_site_fract_y
_atom_site_fract_z
Sc1 Sc 0.20674(2) 0.29190(2) 0.66242(2)
Sc2 Sc 0.12604(2) 0.25208(2) 0.60299(2)
O1 O 0.20380(7) 0.30537(7) 0.58887(4)
O2 O 0.25404(7) 0.32784(7) 0.62723(4)
O3 O 0.42547(9) 0.49700(11) 0.36771(4)
O4 O 0.22203(8) 0.36690(7) 0.67727(4)
O5 O 0.14802(10) 0.19402(7) 0.61057(4)
O6 O 0.13949(4) 0.27898(8) 0.64239(4)
O7 O 0.19333(8) 0.21618(7) 0.65048(4)
O8 O 0.28163(12) 0.30483(10) 0.67951(5)
O9 O 0.11066(6) 0.22132(11) 0.56026(5)
N1 N 0.46577(7) 0.53423(7) 0.55617(6)
N2 N 0.42420(9) 0.49407(10) 0.51318(4)
N3 N 0.36074(5) 0.63926(5) 0.70320(6)
C1 C 0.42686(11) 0.49560(11) 0.54124(5)
C2 C 0.46503(10) 0.53497(10) 0.50025(7)
C3 C 0.38112(11) 0.45208(11) 0.55658(5)
C4 C 0.33318(13) 0.41850(14) 0.54290(6)
H1 H 0.330216 0.422268 0.523366
C5 C 0.29035(12) 0.38013(15) 0.55748(6)
H2 H 0.257577 0.357864 0.548077
C6 C 0.29447(10) 0.37354(10) 0.58579(5)
C7 C 0.34211(10) 0.40608(10) 0.59933(5)
H3 H 0.345285 0.401333 0.618735
C8 C 0.38551(11) 0.44577(10) 0.58479(5)
H4 H 0.418071 0.468454 0.594270
C9 C 0.24747(10) 0.33247(9) 0.60171(5)
C10 C 0.46428(10) 0.53572(10) 0.46918(7)
C11 C 0.42250(13) 0.49453(14) 0.45467(6)
H5 H 0.394016 0.465903 0.464541
C12 C 0.42229(14) 0.49513(15) 0.42589(6)
H6 H 0.394003 0.466443 0.415948
C13 C 0.46289(9) 0.53711(9) 0.41146(7)
C14 C 0.46354(8) 0.53646(8) 0.37988(8)
C15 C 0.30727(6) 0.61455(13) 0.70312(7)
C16 C 0.27787(6) 0.55573(13) 0.70055(7)
C17 C 0.30564(10) 0.52811(10) 0.69806(6)
H7 H 0.343353 0.546447 0.700488
C18 C 0.27840(10) 0.47381(10) 0.69203(6)
H8 H 0.297487 0.455036 0.690258
C19 C 0.22353(6) 0.44706(13) 0.68862(7)
C20 C 0.19456(7) 0.38911(13) 0.68063(7)
C21 C 0.19336(13) 0.12052(11) 0.65211(6)
H9 H 0.210073 0.145315 0.666923
C22 C 0.16903(11) 0.13236(10) 0.63057(5)
C23 C 0.14451(14) 0.09605(11) 0.60934(6)
H10 H 0.127479 0.103919 0.594597
C24 C 0.17036(11) 0.18481(10) 0.63054(5)
O10 O 0.69463(7) 0.79620(7) 0.58887(4)
O11 O 0.67216(7) 0.74596(7) 0.62723(4)
O12 O 0.50300(11) 0.57453(9) 0.36771(4)
N4 N 0.50593(10) 0.57580(9) 0.51318(4)
C25 C 0.50440(11) 0.57314(11) 0.54124(5)
C26 C 0.54792(11) 0.61888(11) 0.55658(5)
C27 C 0.58150(14) 0.66682(13) 0.54290(6)
H11 H 0.577732 0.669784 0.523366
C28 C 0.61987(15) 0.70965(12) 0.55748(6)
H12 H 0.642136 0.742423 0.548077
C29 C 0.62646(10) 0.70553(10) 0.58579(5)
C30 C 0.59392(10) 0.65789(10) 0.59933(5)
H13 H 0.598667 0.654715 0.618735
C31 C 0.55423(10) 0.61449(11) 0.58479(5)
H14 H 0.531546 0.581929 0.594270
C32 C 0.66753(9) 0.75253(10) 0.60171(5)
C33 C 0.50547(14) 0.57750(13) 0.45467(6)
H15 H 0.534097 0.605984 0.464541
C34 C 0.50487(15) 0.57771(14) 0.42589(6)
H16 H 0.533557 0.605997 0.415948
O13 O 0.63310(7) 0.85513(11) 0.67727(4)
N5 N 0.36074(5) 0.72148(7) 0.70320(6)
C35 C 0.38545(13) 0.69272(14) 0.70312(7)
C36 C 0.44427(13) 0.72214(14) 0.70055(7)
C37 C 0.47189(10) 0.77753(14) 0.69806(6)
H17 H 0.453553 0.796906 0.700488
C38 C 0.52619(10) 0.80459(14) 0.69203(6)
H18 H 0.544964 0.842451 0.690258
C39 C 0.55294(13) 0.77647(14) 0.68862(7)
C40 C 0.61089(13) 0.80545(15) 0.68063(7)
O14 O 0.14487(11) 0.77797(8) 0.67727(4)
N6 N 0.27852(7) 0.63926(5) 0.70320(6)
C41 C 0.30728(14) 0.69273(6) 0.70312(7)
C42 C 0.27786(14) 0.72213(6) 0.70055(7)
C43 C 0.22247(14) 0.69436(10) 0.69806(6)
H19 H 0.203094 0.656647 0.700488
C44 C 0.19541(14) 0.72160(10) 0.69203(6)
H20 H 0.157549 0.702513 0.690258
C45 C 0.22353(14) 0.77647(6) 0.68862(7)
C46 C 0.19455(15) 0.80544(7) 0.68063(7)
O15 O 0.63310(7) 0.77797(8) 0.67727(4)
C47 C 0.47189(10) 0.69436(10) 0.69806(6)
H21 H 0.453553 0.656647 0.700488
C48 C 0.52619(10) 0.72160(10) 0.69203(6)
H22 H 0.544964 0.702513 0.690258
O16 O 0.22203(8) 0.85513(11) 0.67727(4)
C49 C 0.30564(10) 0.77753(14) 0.69806(6)
H23 H 0.343353 0.796906 0.700488
C50 C 0.27840(10) 0.80459(14) 0.69203(6)
H24 H 0.297487 0.842451 0.690258
O17 O 0.14487(11) 0.36690(7) 0.67727(4)
C51 C 0.22247(14) 0.52811(10) 0.69806(6)
H25 H 0.203094 0.546447 0.700488
C52 C 0.19541(14) 0.47381(10) 0.69203(6)
H26 H 0.157549 0.455036 0.690258
C53 C 0.19336(13) 0.07284(17) 0.65211(6)
H27 H 0.210073 0.064758 0.666923
C54 C 0.16903(11) 0.03667(15) 0.63057(5)
C55 C 0.14451(14) 0.04846(18) 0.60934(6)
H28 H 0.127479 0.023560 0.594597
O25 O 0.04600(12) 0.19402(7) 0.61057(4)
O26 O 0.02285(11) 0.21618(7) 0.65048(4)
C64 C 0.01445(15) 0.18481(10) 0.63054(5)
Sc9 Sc 0.08516(3) 0.29190(2) 0.66242(2)
O42 O 0.10157(10) 0.30537(7) 0.58887(4)
O43 O 0.07380(10) 0.32784(7) 0.62723(4)
O44 O 0.07153(14) 0.49700(11) 0.36771(4)
O45 O 0.02320(16) 0.30483(10) 0.67951(5)
N10 N 0.06846(10) 0.53423(7) 0.55617(6)
N11 N 0.06987(13) 0.49407(10) 0.51318(4)
C97 C 0.06874(16) 0.49560(11) 0.54124(5)
C98 C 0.06994(14) 0.53497(10) 0.50025(7)
C99 C 0.07096(16) 0.45208(11) 0.55658(5)
C100 C 0.08532(19) 0.41850(14) 0.54290(6)
H49 H 0.092052 0.422268 0.523366
C101 C 0.08978(19) 0.38013(15) 0.55748(6)
H50 H 0.100287 0.357864 0.548077
C102 C 0.07907(14) 0.37354(10) 0.58579(5)
C103 C 0.06397(14) 0.40608(10) 0.59933(5)
H51 H 0.056048 0.401333 0.618735
C104 C 0.06026(15) 0.44577(10) 0.58479(5)
H52 H 0.050383 0.468454 0.594270
C105 C 0.08500(13) 0.33247(9) 0.60171(5)
C106 C 0.07144(14) 0.53572(10) 0.46918(7)
C107 C 0.07203(19) 0.49453(14) 0.45467(6)
H53 H 0.071887 0.465903 0.464541
C108 C 0.07284(21) 0.49513(15) 0.42589(6)
H54 H 0.072440 0.466443 0.415948
C109 C 0.07422(13) 0.53711(9) 0.41146(7)
C110 C 0.07292(11) 0.53646(8) 0.37988(8)
O46 O 0.10157(10) 0.79620(7) 0.58887(4)
O47 O 0.07380(10) 0.74596(7) 0.62723(4)
O48 O 0.07153(14) 0.57453(9) 0.36771(4)
N12 N 0.06987(13) 0.57580(9) 0.51318(4)
C111 C 0.06874(16) 0.57314(11) 0.54124(5)
C112 C 0.07096(16) 0.61888(11) 0.55658(5)
C113 C 0.08532(19) 0.66682(13) 0.54290(6)
H55 H 0.092052 0.669784 0.523366
C114 C 0.08978(19) 0.70965(12) 0.55748(6)
H56 H 0.100287 0.742423 0.548077
C115 C 0.07907(14) 0.70553(10) 0.58579(5)
C116 C 0.06397(14) 0.65789(10) 0.59933(5)
H57 H 0.056048 0.654715 0.618735
C117 C 0.06026(15) 0.61449(11) 0.58479(5)
H58 H 0.050383 0.581929 0.594270
C118 C 0.08500(13) 0.75253(10) 0.60171(5)
C119 C 0.07203(19) 0.57750(13) 0.45467(6)
H59 H 0.071887 0.605984 0.464541
C120 C 0.07284(21) 0.57771(14) 0.42589(6)
H60 H 0.072440 0.605997 0.415948
Sc11 Sc 0.70810(2) 0.91484(3) 0.66242(2)
Sc12 Sc 0.08516(3) 0.79326(2) 0.66242(2)
Sc13 Sc 0.70810(2) 0.79326(2) 0.66242(2)
Sc14 Sc 0.20674(2) 0.91484(3) 0.66242(2)
Sc16 Sc 0.04143(2) 0.58151(3) 0.32909(2)
Sc17 Sc 0.41849(3) 0.45993(2) 0.32909(2)
Sc18 Sc 0.04143(2) 0.45993(2) 0.32909(2)
Sc19 Sc 0.54007(2) 0.58151(3) 0.32909(2)
Sc22 Sc 0.74792(2) 0.87396(3) 0.60299(2)
Sc23 Sc 0.12604(3) 0.87396(2) 0.60299(2)
O56 O 0.16967(11) 0.26180(14) 0.70104(4)
O59 O 0.09214(9) 0.26180(14) 0.70104(4)
O18 O 0.14802(10) 0.95400(12) 0.61057(4)
O19 O 0.19333(8) 0.97715(11) 0.65048(4)
C56 C 0.17036(11) 0.98555(15) 0.63054(5)
O27 O 0.04600(12) 0.85198(10) 0.61057(4)
O28 O 0.13949(9) 0.86051(4) 0.64239(4)
O29 O 0.02285(11) 0.80667(8) 0.65048(4)
O30 O 0.02320(16) 0.71837(12) 0.67951(5)
O31 O 0.11066(13) 0.88934(6) 0.56026(5)
C68 C 0.01445(15) 0.82964(11) 0.63054(5)
O35 O 0.20380(7) 0.89843(10) 0.58887(4)
O36 O 0.25404(7) 0.92620(10) 0.62723(4)
O37 O 0.42547(9) 0.92847(14) 0.36771(4)
O38 O 0.28163(12) 0.97680(16) 0.67951(5)
N7 N 0.46577(7) 0.93154(10) 0.55617(6)
N8 N 0.42420(9) 0.93013(13) 0.51318(4)
C73 C 0.42686(11) 0.93126(16) 0.54124(5)
C74 C 0.46503(10) 0.93006(14) 0.50025(7)
C75 C 0.38112(11) 0.92904(16) 0.55658(5)
C76 C 0.33318(13) 0.91468(19) 0.54290(6)
H37 H 0.330216 0.907948 0.523366
C77 C 0.29035(12) 0.91022(19) 0.55748(6)
H38 H 0.257577 0.899713 0.548077
C78 C 0.29447(10) 0.92093(14) 0.58579(5)
C79 C 0.34211(10) 0.93603(14) 0.59933(5)
H39 H 0.345285 0.943952 0.618735
C80 C 0.38551(11) 0.93974(15) 0.58479(5)
H40 H 0.418071 0.949617 0.594270
C81 C 0.24747(10) 0.91500(13) 0.60171(5)
C82 C 0.46428(10) 0.92856(14) 0.46918(7)
C83 C 0.42250(13) 0.92797(19) 0.45467(6)
H41 H 0.394016 0.928113 0.464541
C84 C 0.42229(14) 0.92716(21) 0.42589(6)
H42 H 0.394003 0.927560 0.415948
C85 C 0.46289(9) 0.92578(13) 0.41146(7)
C86 C 0.46354(8) 0.92708(11) 0.37988(8)
O39 O 0.69463(7) 0.89843(10) 0.58887(4)
O40 O 0.67216(7) 0.92620(10) 0.62723(4)
O41 O 0.50300(11) 0.92847(14) 0.36771(4)
N9 N 0.50593(10) 0.93013(13) 0.51318(4)
C87 C 0.50440(11) 0.93126(16) 0.54124(5)
C88 C 0.54792(11) 0.92904(16) 0.55658(5)
C89 C 0.58150(14) 0.91468(19) 0.54290(6)
H43 H 0.577732 0.907948 0.523366
C90 C 0.61987(15) 0.91022(19) 0.55748(6)
H44 H 0.642136 0.899713 0.548077
C91 C 0.62646(10) 0.92093(14) 0.58579(5)
C92 C 0.59392(10) 0.93603(14) 0.59933(5)
H45 H 0.598667 0.943952 0.618735
C93 C 0.55423(10) 0.93974(15) 0.58479(5)
H46 H 0.531546 0.949617 0.594270
C94 C 0.66753(9) 0.91500(13) 0.60171(5)
C95 C 0.50547(14) 0.92797(19) 0.45467(6)
H47 H 0.534097 0.928113 0.464541
C96 C 0.50487(15) 0.92716(21) 0.42589(6)
H48 H 0.533557 0.927560 0.415948
Sc15 Sc 0.54007(2) 0.95857(2) 0.32909(2)
Sc20 Sc 0.41849(3) 0.95857(2) 0.32909(2)
O55 O 0.09214(9) 0.83033(11) 0.70104(4)
O58 O 0.16967(11) 0.90786(9) 0.70104(4)
O20 O 0.80598(7) 0.95400(12) 0.61057(4)
O21 O 0.72102(8) 0.86051(9) 0.64239(4)
O22 O 0.78382(7) 0.97715(11) 0.65048(4)
O23 O 0.69517(10) 0.97680(16) 0.67951(5)
O24 O 0.77868(11) 0.88934(13) 0.56026(5)
C60 C 0.81519(10) 0.98555(15) 0.63054(5)
C65 C 0.92716(17) 0.80664(13) 0.65211(6)
H33 H 0.935242 0.789927 0.666923
C66 C 0.96333(15) 0.83097(11) 0.63057(5)
C67 C 0.95154(18) 0.85549(14) 0.60934(6)
H34 H 0.976440 0.872521 0.594597
O32 O 0.80598(7) 0.85198(10) 0.61057(4)
O33 O 0.78382(7) 0.80667(8) 0.65048(4)
C69 C 0.87948(11) 0.80664(13) 0.65211(6)
H35 H 0.854685 0.789927 0.666923
C70 C 0.86764(10) 0.83097(11) 0.63057(5)
C71 C 0.90395(11) 0.85549(14) 0.60934(6)
H36 H 0.896081 0.872521 0.594597
C72 C 0.81519(10) 0.82964(11) 0.63054(5)
O34 O 0.69517(10) 0.71837(12) 0.67951(5)
O57 O 0.73820(14) 0.90786(9) 0.70104(4)
O60 O 0.73820(14) 0.83033(11) 0.70104(4)
H75 H 0.285353 0.0123493 0.675769
O13_2 O 0.29977(7) 0.18846(11) 0.01060(4)
N5_2 N 0.02741(5) 0.05481(7) 0.03653(6)
C35_2 C 0.05212(13) 0.02605(14) 0.03645(7)
C36_2 C 0.11094(13) 0.05547(14) 0.03388(7)
C37_2 C 0.13856(10) 0.11086(14) 0.03139(6)
H17_2 H 0.120220 0.130239 0.033821
C38_2 C 0.19286(10) 0.13792(14) 0.02536(6)
H18_2 H 0.211631 0.175784 0.023591
C39_2 C 0.21961(13) 0.10980(14) 0.02195(7)
C40_2 C 0.27756(13) 0.13878(15) 0.01396(7)
O15_2 O 0.29977(7) 0.11130(8) 0.01060(4)
C47_2 C 0.13856(10) 0.02769(10) 0.03139(6)
C48_2 C 0.19286(10) 0.05493(10) 0.02536(6)
H22_2 H 0.211631 0.035846 0.023591
H23_2 H 0.010020 0.130239 0.033821
O10_2 O 0.36130(7) 0.12953(7) 0.92220(4)
O11_2 O 0.33883(7) 0.07929(7) 0.96056(4)
C27_2 C 0.24817(14) 0.00015(13) 0.87623(6)
H11_2 H 0.244399 0.003117 0.856699
C28_2 C 0.28654(15) 0.04298(12) 0.89081(6)
H12_2 H 0.308803 0.075756 0.881410
C29_2 C 0.29313(10) 0.03886(10) 0.91912(5)
C32_2 C 0.33420(9) 0.08586(10) 0.93504(5)
Sc11_2 Sc 0.37477(2) 0.24817(3) 0.99575(2)
Sc13_2 Sc 0.37477(2) 0.12659(2) 0.99575(2)
Sc22_2 Sc 0.41459(2) 0.20729(3) 0.93632(2)
N1_2 N 0.13244(7) 0.86756(7) 0.88950(6)
N2_2 N 0.09087(9) 0.82740(10) 0.84651(4)
C1_2 C 0.09353(11) 0.82893(11) 0.87457(5)
C2_2 C 0.13170(10) 0.86830(10) 0.83358(7)
C3_2 C 0.04779(11) 0.78541(11) 0.88991(5)
C7_2 C 0.00878(10) 0.73941(10) 0.93266(5)
H3_2 H 0.011952 0.734666 0.952068
C8_2 C 0.05218(11) 0.77910(10) 0.91812(5)
H4_2 H 0.084738 0.801787 0.927603
C10_2 C 0.13095(10) 0.86905(10) 0.80251(7)
C11_2 C 0.08917(13) 0.82786(14) 0.78800(6)
H5_2 H 0.060683 0.799236 0.797874
C12_2 C 0.08896(14) 0.82846(15) 0.75922(6)
H6_2 H 0.060670 0.799776 0.749281
C13_2 C 0.12956(9) 0.87044(9) 0.74479(7)
C14_2 C 0.13021(8) 0.86979(8) 0.71321(8)
N4_2 N 0.17260(10) 0.90913(9) 0.84651(4)
C25_2 C 0.17107(11) 0.90647(11) 0.87457(5)
C26_2 C 0.21459(11) 0.95221(11) 0.88991(5)
C30_2 C 0.26059(10) 0.99122(10) 0.93266(5)
H13_2 H 0.265334 0.988048 0.952068
C31_2 C 0.22090(10) 0.94782(11) 0.91812(5)
H14_2 H 0.198213 0.915262 0.927603
C33_2 C 0.17214(14) 0.91083(13) 0.78800(6)
H15_2 H 0.200764 0.939317 0.797874
C34_2 C 0.17154(15) 0.91104(14) 0.75922(6)
H16_2 H 0.200224 0.939330 0.749281
N7_2 N 0.13244(7) 0.26487(10) 0.88950(6)
N8_2 N 0.09087(9) 0.26346(13) 0.84651(4)
C73_2 C 0.09353(11) 0.26459(16) 0.87457(5)
C74_2 C 0.13170(10) 0.26339(14) 0.83358(7)
C75_2 C 0.04779(11) 0.26237(16) 0.88991(5)
C79_2 C 0.00878(10) 0.26936(14) 0.93266(5)
H39_2 H 0.011952 0.277285 0.952068
C80_2 C 0.05218(11) 0.27307(15) 0.91812(5)
H40_2 H 0.084738 0.282950 0.927603
C82_2 C 0.13095(10) 0.26189(14) 0.80251(7)
C83_2 C 0.08917(13) 0.26130(19) 0.78800(6)
H41_2 H 0.060683 0.261446 0.797874
C84_2 C 0.08896(14) 0.26049(21) 0.75922(6)
H42_2 H 0.060670 0.260893 0.749281
C85_2 C 0.12956(9) 0.25911(13) 0.74479(7)
C86_2 C 0.13021(8) 0.26041(11) 0.71321(8)
O39_2 O 0.36130(7) 0.23176(10) 0.92220(4)
O40_2 O 0.33883(7) 0.25953(10) 0.96056(4)
N9_2 N 0.17260(10) 0.26346(13) 0.84651(4)
C87_2 C 0.17107(11) 0.26459(16) 0.87457(5)
C88_2 C 0.21459(11) 0.26237(16) 0.88991(5)
C89_2 C 0.24817(14) 0.24801(19) 0.87623(6)
H43_2 H 0.244399 0.241281 0.856699
C90_2 C 0.28654(15) 0.24355(19) 0.89081(6)
H44_2 H 0.308803 0.233046 0.881410
C91_2 C 0.29313(10) 0.25426(14) 0.91912(5)
C92_2 C 0.26059(10) 0.26936(14) 0.93266(5)
H45_2 H 0.265334 0.277285 0.952068
C93_2 C 0.22090(10) 0.27307(15) 0.91812(5)
H46_2 H 0.198213 0.282950 0.927603
C94_2 C 0.33420(9) 0.24833(13) 0.93504(5)
C95_2 C 0.17214(14) 0.26130(19) 0.78800(6)
H47_2 H 0.200764 0.261446 0.797874
C96_2 C 0.17154(15) 0.26049(21) 0.75922(6)
H48_2 H 0.200224 0.260893 0.749281
O14_2 O 0.81154(11) 0.11130(8) 0.01060(4)
C41_2 C 0.97395(14) 0.02606(6) 0.03645(7)
C42_2 C 0.94453(14) 0.05546(6) 0.03388(7)
C43_2 C 0.88914(14) 0.02769(10) 0.03139(6)
C44_2 C 0.86208(14) 0.05493(10) 0.02536(6)
H20_2 H 0.824216 0.035846 0.023591
C45_2 C 0.89020(14) 0.10980(6) 0.02195(7)
C46_2 C 0.86122(15) 0.13877(7) 0.01396(7)
O16_2 O 0.88870(8) 0.18846(11) 0.01060(4)
C49_2 C 0.97231(10) 0.11086(14) 0.03139(6)
C50_2 C 0.94507(10) 0.13792(14) 0.02536(6)
H24_2 H 0.964154 0.175784 0.023591
O46_2 O 0.76824(10) 0.12953(7) 0.92220(4)
O47_2 O 0.74047(10) 0.07929(7) 0.96056(4)
C113_2 C 0.75199(19) 0.00015(13) 0.87623(6)
H55_2 H 0.758719 0.003117 0.856699
C114_2 C 0.75645(19) 0.04298(12) 0.89081(6)
H56_2 H 0.766954 0.075756 0.881410
C115_2 C 0.74574(14) 0.03886(10) 0.91912(5)
C118_2 C 0.75167(13) 0.08586(10) 0.93504(5)
Sc12_2 Sc 0.75183(3) 0.12659(2) 0.99575(2)
Sc14_2 Sc 0.87341(2) 0.24817(3) 0.99575(2)
Sc23_2 Sc 0.79271(3) 0.20729(2) 0.93632(2)
O4_2 O 0.88870(8) 0.70023(7) 0.01060(4)
O8_2 O 0.94830(12) 0.63816(10) 0.01284(5)
C15_2 C 0.97394(6) 0.94788(13) 0.03645(7)
C16_2 C 0.94454(6) 0.88906(13) 0.03388(7)
C17_2 C 0.97231(10) 0.86144(10) 0.03139(6)
C18_2 C 0.94507(10) 0.80714(10) 0.02536(6)
H8_2 H 0.964154 0.788369 0.023591
C19_2 C 0.89020(6) 0.78039(13) 0.02195(7)
C20_2 C 0.86123(7) 0.72244(13) 0.01396(7)
H9_2 H 0.876740 0.478648 0.000256
N6_2 N 0.94519(7) 0.97259(5) 0.03653(6)
H19_2 H 0.869761 0.989980 0.033821
O17_2 O 0.81154(11) 0.70023(7) 0.01060(4)
C51_2 C 0.88914(14) 0.86144(10) 0.03139(6)
H25_2 H 0.869761 0.879780 0.033821
C52_2 C 0.86208(14) 0.80714(10) 0.02536(6)
H26_2 H 0.824216 0.788369 0.023591
H27_2 H 0.876740 0.398091 0.000256
O23_2 O 0.36184(10) 0.31013(16) 0.01284(5)
H29 H 0.521352 0.398091 0.000256
H31 H 0.601909 0.478648 0.000256
O30_2 O 0.68987(16) 0.05170(12) 0.01284(5)
H33_2 H 0.601909 0.123260 0.000256
H35_2 H 0.521352 0.123260 0.000256
O34_2 O 0.36184(10) 0.05170(12) 0.01284(5)
O38_2 O 0.94830(12) 0.31013(16) 0.01284(5)
O45_2 O 0.68987(16) 0.63816(10) 0.01284(5)
O55_2 O 0.75880(9) 0.16367(11) 0.03438(4)
O56_2 O 0.83633(11) 0.59514(14) 0.03438(4)
O57_2 O 0.40486(14) 0.24120(9) 0.03438(4)
O58_2 O 0.83633(11) 0.24120(9) 0.03438(4)
O59_2 O 0.75880(9) 0.59514(14) 0.03438(4)
O60_2 O 0.40486(14) 0.16367(11) 0.03438(4)
Sc1_2 Sc 0.87341(2) 0.62523(2) 0.99575(2)
Sc2_2 Sc 0.79271(2) 0.58541(2) 0.93632(2)
O1_2 O 0.87047(7) 0.63870(7) 0.92220(4)
O2_2 O 0.92071(7) 0.66117(7) 0.96056(4)
O5_2 O 0.81469(10) 0.52735(7) 0.94390(4)
O6_2 O 0.80616(4) 0.61231(8) 0.97572(4)
O7_2 O 0.86000(8) 0.54951(7) 0.98381(4)
O9_2 O 0.77733(6) 0.55465(11) 0.89359(5)
C4_2 C 0.99985(13) 0.75183(14) 0.87623(6)
H1_2 H 0.996883 0.755601 0.856699
C5_2 C 0.95702(12) 0.71346(15) 0.89081(6)
H2_2 H 0.924244 0.691197 0.881410
C6_2 C 0.96114(10) 0.70687(10) 0.91912(5)
C9_2 C 0.91414(10) 0.66580(9) 0.93504(5)
C21_2 C 0.86003(13) 0.45385(11) 0.98544(6)
C22_2 C 0.83570(11) 0.46569(10) 0.96390(5)
C23_2 C 0.81118(14) 0.42938(11) 0.94267(6)
H10_2 H 0.794146 0.437252 0.927930
C24_2 C 0.83703(11) 0.51814(10) 0.96387(5)
O18_2 O 0.81469(10) 0.28733(12) 0.94390(4)
O19_2 O 0.86000(8) 0.31048(11) 0.98381(4)
C53_2 C 0.86003(13) 0.40617(17) 0.98544(6)
C54_2 C 0.83570(11) 0.37000(15) 0.96390(5)
C55_2 C 0.81118(14) 0.38179(18) 0.94267(6)
H28_2 H 0.794146 0.356893 0.927930
C56_2 C 0.83703(11) 0.31888(15) 0.96387(5)
O20_2 O 0.47265(7) 0.28733(12) 0.94390(4)
O21_2 O 0.38769(8) 0.19384(9) 0.97572(4)
O22_2 O 0.45049(7) 0.31048(11) 0.98381(4)
O24_2 O 0.44535(11) 0.22267(13) 0.89359(5)
C57 C 0.54615(11) 0.40617(17) 0.98544(6)
C58 C 0.53431(10) 0.37000(15) 0.96390(5)
C59 C 0.57062(11) 0.38179(18) 0.94267(6)
H30 H 0.562748 0.356893 0.927930
C60_2 C 0.48186(10) 0.31888(15) 0.96387(5)
O25_2 O 0.71267(12) 0.52735(7) 0.94390(4)
O26_2 O 0.68952(11) 0.54951(7) 0.98381(4)
C61 C 0.59383(17) 0.45385(11) 0.98544(6)
C62 C 0.63000(15) 0.46569(10) 0.96390(5)
C63 C 0.61821(18) 0.42938(11) 0.94267(6)
H32 H 0.643107 0.437252 0.927930
C64_2 C 0.68112(15) 0.51814(10) 0.96387(5)
O27_2 O 0.71267(12) 0.18531(10) 0.94390(4)
O28_2 O 0.80616(9) 0.19384(4) 0.97572(4)
O29_2 O 0.68952(11) 0.14000(8) 0.98381(4)
O31_2 O 0.77733(13) 0.22267(6) 0.89359(5)
C65_2 C 0.59383(17) 0.13997(13) 0.98544(6)
C66_2 C 0.63000(15) 0.16430(11) 0.96390(5)
C67_2 C 0.61821(18) 0.18882(14) 0.94267(6)
H34_2 H 0.643107 0.205854 0.927930
C68_2 C 0.68112(15) 0.16297(11) 0.96387(5)
O32_2 O 0.47265(7) 0.18531(10) 0.94390(4)
O33_2 O 0.45049(7) 0.14000(8) 0.98381(4)
C69_2 C 0.54615(11) 0.13997(13) 0.98544(6)
C70_2 C 0.53431(10) 0.16430(11) 0.96390(5)
C71_2 C 0.57062(11) 0.18882(14) 0.94267(6)
H36_2 H 0.562748 0.205854 0.927930
C72_2 C 0.48186(10) 0.16297(11) 0.96387(5)
O35_2 O 0.87047(7) 0.23176(10) 0.92220(4)
O36_2 O 0.92071(7) 0.25953(10) 0.96056(4)
C76_2 C 0.99985(13) 0.24801(19) 0.87623(6)
H37_2 H 0.996883 0.241281 0.856699
C77_2 C 0.95702(12) 0.24355(19) 0.89081(6)
H38_2 H 0.924244 0.233046 0.881410
C78_2 C 0.96114(10) 0.25426(14) 0.91912(5)
C81_2 C 0.91414(10) 0.24833(13) 0.93504(5)
Sc9_2 Sc 0.75183(3) 0.62523(2) 0.99575(2)
O42_2 O 0.76824(10) 0.63870(7) 0.92220(4)
O43_2 O 0.74047(10) 0.66117(7) 0.96056(4)
N10_2 N 0.73513(10) 0.86756(7) 0.88950(6)
N11_2 N 0.73654(13) 0.82740(10) 0.84651(4)
C97_2 C 0.73541(16) 0.82893(11) 0.87457(5)
C98_2 C 0.73661(14) 0.86830(10) 0.83358(7)
C99_2 C 0.73763(16) 0.78541(11) 0.88991(5)
C100_2 C 0.75199(19) 0.75183(14) 0.87623(6)
H49_2 H 0.758719 0.755601 0.856699
C101_2 C 0.75645(19) 0.71346(15) 0.89081(6)
H50_2 H 0.766954 0.691197 0.881410
C102_2 C 0.74574(14) 0.70687(10) 0.91912(5)
C103_2 C 0.73064(14) 0.73941(10) 0.93266(5)
H51_2 H 0.722715 0.734666 0.952068
C104_2 C 0.72693(15) 0.77910(10) 0.91812(5)
H52_2 H 0.717050 0.801787 0.927603
C105_2 C 0.75167(13) 0.66580(9) 0.93504(5)
C106_2 C 0.73811(14) 0.86905(10) 0.80251(7)
C107_2 C 0.73870(19) 0.82786(14) 0.78800(6)
H53_2 H 0.738554 0.799236 0.797874
C108_2 C 0.73951(21) 0.82846(15) 0.75922(6)
H54_2 H 0.739107 0.799776 0.749281
C109_2 C 0.74089(13) 0.87044(9) 0.74479(7)
C110_2 C 0.73959(11) 0.86979(8) 0.71321(8)
N12_2 N 0.73654(13) 0.90913(9) 0.84651(4)
C111_2 C 0.73541(16) 0.90647(11) 0.87457(5)
C112_2 C 0.73763(16) 0.95221(11) 0.88991(5)
C116_2 C 0.73064(14) 0.99122(10) 0.93266(5)
H57_2 H 0.722715 0.988048 0.952068
C117_2 C 0.72693(15) 0.94782(11) 0.91812(5)
H58_2 H 0.717050 0.915262 0.927603
C119_2 C 0.73870(19) 0.91083(13) 0.78800(6)
H59_2 H 0.738554 0.939317 0.797874
C120_2 C 0.73951(21) 0.91104(14) 0.75922(6)
H60_2 H 0.739107 0.939330 0.749281
O10_3 O 0.02796(7) 0.46287(7) 0.25554(4)
O11_3 O 0.00549(7) 0.41263(7) 0.29390(4)
C32_3 C 0.00086(9) 0.41920(10) 0.26838(5)
Sc22_3 Sc 0.08125(2) 0.54063(3) 0.26966(2)
O39_3 O 0.02796(7) 0.56510(10) 0.25554(4)
O40_3 O 0.00549(7) 0.59287(10) 0.29390(4)
C94_3 C 0.00086(9) 0.58167(13) 0.26838(5)
O4_3 O 0.55536(8) 0.03357(7) 0.34394(4)
N1_3 N 0.79910(7) 0.20090(7) 0.22284(6)
N2_3 N 0.75753(9) 0.16074(10) 0.17985(4)
N3_2 N 0.69407(5) 0.30593(5) 0.36987(6)
C1_3 C 0.76019(11) 0.16227(11) 0.20791(5)
C2_3 C 0.79836(10) 0.20164(10) 0.16692(7)
C3_3 C 0.71445(11) 0.11875(11) 0.22325(5)
C4_3 C 0.66651(13) 0.08517(14) 0.20957(6)
H1_3 H 0.663549 0.088935 0.190033
C5_3 C 0.62368(12) 0.04680(15) 0.22415(6)
H2_3 H 0.590910 0.024531 0.214744
C6_3 C 0.62780(10) 0.04021(10) 0.25246(5)
C7_3 C 0.67544(10) 0.07275(10) 0.26600(5)
H3_3 H 0.678618 0.068000 0.285402
C8_3 C 0.71884(11) 0.11244(10) 0.25146(5)
H4_3 H 0.751404 0.135121 0.260937
C10_3 C 0.79761(10) 0.20239(10) 0.13585(7)
C11_3 C 0.75583(13) 0.16120(14) 0.12134(6)
H5_3 H 0.727349 0.132570 0.131208
C12_3 C 0.75562(14) 0.16180(15) 0.09256(6)
H6_3 H 0.727336 0.133110 0.082615
C13_3 C 0.79622(9) 0.20378(9) 0.07813(7)
C14_3 C 0.79687(8) 0.20313(8) 0.04655(8)
C15_3 C 0.64060(6) 0.28122(13) 0.36979(7)
C16_3 C 0.61120(6) 0.22240(13) 0.36722(7)
C17_3 C 0.63897(10) 0.19478(10) 0.36473(6)
H7_2 H 0.676686 0.213114 0.367155
C18_3 C 0.61173(10) 0.14048(10) 0.35870(6)
H8_3 H 0.630820 0.121703 0.356925
C19_3 C 0.55686(6) 0.11373(13) 0.35529(7)
C20_3 C 0.52789(7) 0.05578(13) 0.34730(7)
N4_3 N 0.83926(10) 0.24247(9) 0.17985(4)
C25_3 C 0.83773(11) 0.23981(11) 0.20791(5)
C26_3 C 0.88125(11) 0.28555(11) 0.22325(5)
C27_3 C 0.91483(14) 0.33349(13) 0.20957(6)
H11_3 H 0.911065 0.336451 0.190033
C28_3 C 0.95320(15) 0.37632(12) 0.22415(6)
H12_3 H 0.975469 0.409090 0.214744
C29_3 C 0.95979(10) 0.37220(10) 0.25246(5)
C30_3 C 0.92725(10) 0.32456(10) 0.26600(5)
H13_3 H 0.932000 0.321382 0.285402
C31_3 C 0.88756(10) 0.28116(11) 0.25146(5)
H14_3 H 0.864879 0.248596 0.260937
C33_3 C 0.83880(14) 0.24417(13) 0.12134(6)
H15_3 H 0.867430 0.272651 0.131208
C34_3 C 0.83820(15) 0.24438(14) 0.09256(6)
H16_3 H 0.866890 0.272664 0.082615
O13_3 O 0.96643(7) 0.52180(11) 0.34394(4)
N5_3 N 0.69407(5) 0.38815(7) 0.36987(6)
C35_3 C 0.71878(13) 0.35939(14) 0.36979(7)
C36_3 C 0.77760(13) 0.38881(14) 0.36722(7)
C37_3 C 0.80522(10) 0.44420(14) 0.36473(6)
H17_3 H 0.786886 0.463573 0.367155
C38_3 C 0.85952(10) 0.47126(14) 0.35870(6)
H18_3 H 0.878297 0.509118 0.356925
C39_3 C 0.88627(13) 0.44314(14) 0.35529(7)
C40_3 C 0.94422(13) 0.47212(15) 0.34730(7)
O14_3 O 0.47820(11) 0.44464(8) 0.34394(4)
N6_3 N 0.61185(7) 0.30593(5) 0.36987(6)
C41_3 C 0.64061(14) 0.35940(6) 0.36979(7)
C42_3 C 0.61119(14) 0.38880(6) 0.36722(7)
C43_3 C 0.55580(14) 0.36103(10) 0.36473(6)
H19_3 H 0.536427 0.323314 0.367155
C44_3 C 0.52874(14) 0.38827(10) 0.35870(6)
H20_3 H 0.490882 0.369180 0.356925
C45_3 C 0.55686(14) 0.44314(6) 0.35529(7)
C46_3 C 0.52788(15) 0.47211(7) 0.34730(7)
O15_3 O 0.96643(7) 0.44464(8) 0.34394(4)
C47_3 C 0.80522(10) 0.36103(10) 0.36473(6)
H21_2 H 0.786886 0.323314 0.367155
C48_3 C 0.85952(10) 0.38827(10) 0.35870(6)
H22_3 H 0.878297 0.369180 0.356925
O16_3 O 0.55536(8) 0.52180(11) 0.34394(4)
C49_3 C 0.63897(10) 0.44420(14) 0.36473(6)
H23_3 H 0.676686 0.463573 0.367155
C50_3 C 0.61173(10) 0.47126(14) 0.35870(6)
H24_3 H 0.630820 0.509118 0.356925
O17_3 O 0.47820(11) 0.03357(7) 0.34394(4)
C51_3 C 0.55580(14) 0.19478(10) 0.36473(6)
H25_3 H 0.536427 0.213114 0.367155
C52_3 C 0.52874(14) 0.14048(10) 0.35870(6)
H26_3 H 0.490882 0.121703 0.356925
N10_3 N 0.40179(10) 0.20090(7) 0.22284(6)
N11_3 N 0.40320(13) 0.16074(10) 0.17985(4)
C97_3 C 0.40207(16) 0.16227(11) 0.20791(5)
C98_3 C 0.40327(14) 0.20164(10) 0.16692(7)
C99_3 C 0.40429(16) 0.11875(11) 0.22325(5)
C100_3 C 0.41865(19) 0.08517(14) 0.20957(6)
H49_3 H 0.425385 0.088935 0.190033
C101_3 C 0.42311(19) 0.04680(15) 0.22415(6)
H50_3 H 0.433620 0.024531 0.214744
C102_3 C 0.41240(14) 0.04021(10) 0.25246(5)
C103_3 C 0.39730(14) 0.07275(10) 0.26600(5)
H51_3 H 0.389381 0.068000 0.285402
C104_3 C 0.39359(15) 0.11244(10) 0.25146(5)
H52_3 H 0.383716 0.135121 0.260937
C106_3 C 0.40477(14) 0.20239(10) 0.13585(7)
C107_3 C 0.40536(19) 0.16120(14) 0.12134(6)
H53_3 H 0.405220 0.132570 0.131208
C108_3 C 0.40617(21) 0.16180(15) 0.09256(6)
H54_3 H 0.405773 0.133110 0.082615
C109_3 C 0.40755(13) 0.20378(9) 0.07813(7)
C110_3 C 0.40625(11) 0.20313(8) 0.04655(8)
O46_3 O 0.43490(10) 0.46287(7) 0.25554(4)
O47_3 O 0.40713(10) 0.41263(7) 0.29390(4)
N12_3 N 0.40320(13) 0.24247(9) 0.17985(4)
C111_3 C 0.40207(16) 0.23981(11) 0.20791(5)
C112_3 C 0.40429(16) 0.28555(11) 0.22325(5)
C113_3 C 0.41865(19) 0.33349(13) 0.20957(6)
H55_3 H 0.425385 0.336451 0.190033
C114_3 C 0.42311(19) 0.37632(12) 0.22415(6)
H56_3 H 0.433620 0.409090 0.214744
C115_3 C 0.41240(14) 0.37220(10) 0.25246(5)
C116_3 C 0.39730(14) 0.32456(10) 0.26600(5)
H57_3 H 0.389381 0.321382 0.285402
C117_3 C 0.39359(15) 0.28116(11) 0.25146(5)
H58_3 H 0.383716 0.248596 0.260937
C118_3 C 0.41833(13) 0.41920(10) 0.26838(5)
C119_3 C 0.40536(19) 0.24417(13) 0.12134(6)
H59_3 H 0.405220 0.272651 0.131208
C120_3 C 0.40617(21) 0.24438(14) 0.09256(6)
H60_3 H 0.405773 0.272664 0.082615
Sc23_3 Sc 0.45937(3) 0.54063(2) 0.26966(2)
H61 H 0.64154 0.0103578 0.346033
Sc2_3 Sc 0.45937(2) 0.91875(2) 0.26966(2)
O1_3 O 0.53713(7) 0.97204(7) 0.25554(4)
O2_3 O 0.58737(7) 0.99451(7) 0.29390(4)
O5_3 O 0.48135(10) 0.86069(7) 0.27724(4)
O6_3 O 0.47282(4) 0.94565(8) 0.30906(4)
O7_3 O 0.52666(8) 0.88285(7) 0.31715(4)
O8_3 O 0.61496(12) 0.97150(10) 0.34618(5)
O9_3 O 0.44399(6) 0.88799(11) 0.22693(5)
C9_3 C 0.58080(10) 0.99914(9) 0.26838(5)
C21_3 C 0.52669(13) 0.78719(11) 0.31878(6)
H9_3 H 0.543406 0.811982 0.333590
C22_3 C 0.50236(11) 0.79903(10) 0.29724(5)
C23_3 C 0.47784(14) 0.76272(11) 0.27601(6)
H10_3 H 0.460812 0.770586 0.261264
C24_3 C 0.50369(11) 0.85148(10) 0.29721(5)
O18_3 O 0.48135(10) 0.62067(12) 0.27724(4)
O19_3 O 0.52666(8) 0.64382(11) 0.31715(4)
C53_3 C 0.52669(13) 0.73951(17) 0.31878(6)
H27_3 H 0.543406 0.731425 0.333590
C54_3 C 0.50236(11) 0.70334(15) 0.29724(5)
C55_3 C 0.47784(14) 0.71513(18) 0.27601(6)
H28_3 H 0.460812 0.690227 0.261264
C56_3 C 0.50369(11) 0.65222(15) 0.29721(5)
O20_3 O 0.13931(7) 0.62067(12) 0.27724(4)
O21_3 O 0.05435(8) 0.52718(9) 0.30906(4)
O22_3 O 0.11715(7) 0.64382(11) 0.31715(4)
O23_3 O 0.02850(10) 0.64347(16) 0.34618(5)
O24_3 O 0.11201(11) 0.55601(13) 0.22693(5)
C57_2 C 0.21281(11) 0.73951(17) 0.31878(6)
H29_2 H 0.188018 0.731425 0.333590
C58_2 C 0.20097(10) 0.70334(15) 0.29724(5)
C59_2 C 0.23728(11) 0.71513(18) 0.27601(6)
H30_2 H 0.229414 0.690227 0.261264
C60_3 C 0.14852(10) 0.65222(15) 0.29721(5)
O25_3 O 0.37933(12) 0.86069(7) 0.27724(4)
O26_3 O 0.35618(11) 0.88285(7) 0.31715(4)
C61_2 C 0.26049(17) 0.78719(11) 0.31878(6)
H31_2 H 0.268575 0.811982 0.333590
C62_2 C 0.29666(15) 0.79903(10) 0.29724(5)
C63_2 C 0.28487(18) 0.76272(11) 0.27601(6)
H32_2 H 0.309773 0.770586 0.261264
C64_3 C 0.34778(15) 0.85148(10) 0.29721(5)
O27_3 O 0.37933(12) 0.51865(10) 0.27724(4)
O28_3 O 0.47282(9) 0.52718(4) 0.30906(4)
O29_3 O 0.35618(11) 0.47334(8) 0.31715(4)
O30_3 O 0.35653(16) 0.38504(12) 0.34618(5)
O31_3 O 0.44399(13) 0.55601(6) 0.22693(5)
C65_3 C 0.26049(17) 0.47331(13) 0.31878(6)
H33_3 H 0.268575 0.456594 0.333590
C66_3 C 0.29666(15) 0.49764(11) 0.29724(5)
C67_3 C 0.28487(18) 0.52216(14) 0.27601(6)
H34_3 H 0.309773 0.539188 0.261264
C68_3 C 0.34778(15) 0.49631(11) 0.29721(5)
O32_3 O 0.13931(7) 0.51865(10) 0.27724(4)
O33_3 O 0.11715(7) 0.47334(8) 0.31715(4)
C69_3 C 0.21281(11) 0.47331(13) 0.31878(6)
H35_3 H 0.188018 0.456594 0.333590
C70_3 C 0.20097(10) 0.49764(11) 0.29724(5)
C71_3 C 0.23728(11) 0.52216(14) 0.27601(6)
H36_3 H 0.229414 0.539188 0.261264
C72_3 C 0.14852(10) 0.49631(11) 0.29721(5)
O34_3 O 0.02850(10) 0.38504(12) 0.34618(5)
O35_3 O 0.53713(7) 0.56510(10) 0.25554(4)
O36_3 O 0.58737(7) 0.59287(10) 0.29390(4)
O38_3 O 0.61496(12) 0.64347(16) 0.34618(5)
N7_3 N 0.79910(7) 0.59821(10) 0.22284(6)
N8_3 N 0.75753(9) 0.59680(13) 0.17985(4)
C73_3 C 0.76019(11) 0.59793(16) 0.20791(5)
C74_3 C 0.79836(10) 0.59673(14) 0.16692(7)
C75_3 C 0.71445(11) 0.59571(16) 0.22325(5)
C76_3 C 0.66651(13) 0.58135(19) 0.20957(6)
H37_3 H 0.663549 0.574615 0.190033
C77_3 C 0.62368(12) 0.57689(19) 0.22415(6)
H38_3 H 0.590910 0.566380 0.214744
C78_3 C 0.62780(10) 0.58760(14) 0.25246(5)
C79_3 C 0.67544(10) 0.60270(14) 0.26600(5)
H39_3 H 0.678618 0.610619 0.285402
C80_3 C 0.71884(11) 0.60641(15) 0.25146(5)
H40_3 H 0.751404 0.616284 0.260937
C81_3 C 0.58080(10) 0.58167(13) 0.26838(5)
C82_3 C 0.79761(10) 0.59523(14) 0.13585(7)
C83_3 C 0.75583(13) 0.59464(19) 0.12134(6)
H41_3 H 0.727349 0.594780 0.131208
C84_3 C 0.75562(14) 0.59383(21) 0.09256(6)
H42_3 H 0.727336 0.594227 0.082615
C85_3 C 0.79622(9) 0.59245(13) 0.07813(7)
C86_3 C 0.79687(8) 0.59375(11) 0.04655(8)
N9_3 N 0.83926(10) 0.59680(13) 0.17985(4)
C87_3 C 0.83773(11) 0.59793(16) 0.20791(5)
C88_3 C 0.88125(11) 0.59571(16) 0.22325(5)
C89_3 C 0.91483(14) 0.58135(19) 0.20957(6)
H43_3 H 0.911065 0.574615 0.190033
C90_3 C 0.95320(15) 0.57689(19) 0.22415(6)
H44_3 H 0.975469 0.566380 0.214744
C91_3 C 0.95979(10) 0.58760(14) 0.25246(5)
C92_3 C 0.92725(10) 0.60270(14) 0.26600(5)
H45_3 H 0.932000 0.610619 0.285402
C93_3 C 0.88756(10) 0.60641(15) 0.25146(5)
H46_3 H 0.864879 0.616284 0.260937
C95_3 C 0.83880(14) 0.59464(19) 0.12134(6)
H47_3 H 0.867430 0.594780 0.131208
C96_3 C 0.83820(15) 0.59383(21) 0.09256(6)
H48_3 H 0.866890 0.594227 0.082615
O42_3 O 0.43490(10) 0.97204(7) 0.25554(4)
O43_3 O 0.40713(10) 0.99451(7) 0.29390(4)
O45_3 O 0.35653(16) 0.97150(10) 0.34618(5)
C105_3 C 0.41833(13) 0.99914(9) 0.26838(5)
H67 H 0.996522 0.641602 0.337293
H69 H 0.64508 0.00347849 0.337293
H74 H 0.37304 0.00771659 0.354645
H61_2 H 0.989642 0.631182 0.346033
H74_2 H 0.992283 0.365324 0.354645
H77 H 0.987651 0.714647 0.675769
H67_2 H 0.358398 0.00347849 0.337293
H61_3 H 0.989642 0.35846 0.346033
H74_3 H 0.634676 0.00771659 0.354645
H67_3 H 0.996522 0.35492 0.337293
H61_4 H 0.368818 0.0103578 0.346033
H74_4 H 0.992283 0.62696 0.354645
C57_3 C 0.87948(11) 0.07284(17) 0.65211(6)
H29_3 H 0.854685 0.064758 0.666923
C58_3 C 0.86764(10) 0.03667(15) 0.63057(5)
C59_3 C 0.90395(11) 0.04846(18) 0.60934(6)
H30_3 H 0.896081 0.023560 0.594597
C61_3 C 0.92716(17) 0.12052(11) 0.65211(6)
H31_3 H 0.935242 0.145315 0.666923
C62_3 C 0.96333(15) 0.13236(10) 0.63057(5)
C63_3 C 0.95154(18) 0.09605(11) 0.60934(6)
H32_3 H 0.976440 0.103919 0.594597
H77_2 H 0.987651 0.273004 0.675769
H77_3 H 0.726996 0.0123493 0.675769
N3_3 N 0.02741(5) 0.97259(5) 0.03653(6)
H7_3 H 0.010020 0.879780 0.033821
H21_3 H 0.120220 0.989980 0.033821
Sc1_3 Sc 0.29190(2) 0.20674(2) 0.33758(2)
Sc2_4 Sc 0.25208(2) 0.12604(2) 0.39701(2)
O1_4 O 0.30537(7) 0.20380(7) 0.41113(4)
O2_4 O 0.32784(7) 0.25404(7) 0.37277(4)
O3_2 O 0.49700(11) 0.42547(9) 0.63229(4)
O4_4 O 0.36690(7) 0.22203(8) 0.32273(4)
O5_4 O 0.19402(7) 0.14802(10) 0.38943(4)
O6_4 O 0.27898(8) 0.13949(4) 0.35761(4)
O7_4 O 0.21618(7) 0.19333(8) 0.34952(4)
O8_4 O 0.30483(10) 0.28163(12) 0.32049(5)
O9_4 O 0.22132(11) 0.11066(6) 0.43974(5)
N1_4 N 0.53423(7) 0.46577(7) 0.44383(6)
N2_4 N 0.49407(10) 0.42420(9) 0.48682(4)
N3_4 N 0.63926(5) 0.36074(5) 0.29680(6)
C1_4 C 0.49560(11) 0.42686(11) 0.45876(5)
C2_4 C 0.53497(10) 0.46503(10) 0.49975(7)
C3_4 C 0.45208(11) 0.38112(11) 0.44342(5)
C4_4 C 0.41850(14) 0.33318(13) 0.45710(6)
H1_4 H 0.422268 0.330216 0.476634
C5_4 C 0.38013(15) 0.29035(12) 0.44252(6)
H2_4 H 0.357864 0.257577 0.451923
C6_4 C 0.37354(10) 0.29447(10) 0.41421(5)
C7_4 C 0.40608(10) 0.34211(10) 0.40067(5)
H3_4 H 0.401333 0.345285 0.381265
C8_4 C 0.44577(10) 0.38551(11) 0.41521(5)
H4_4 H 0.468454 0.418071 0.405730
C9_4 C 0.33247(9) 0.24747(10) 0.39829(5)
C10_4 C 0.53572(10) 0.46428(10) 0.53082(7)
C11_4 C 0.49453(14) 0.42250(13) 0.54533(6)
H5_4 H 0.465903 0.394016 0.535459
C12_4 C 0.49513(15) 0.42229(14) 0.57411(6)
H6_4 H 0.466443 0.394003 0.584052
C13_4 C 0.53711(9) 0.46289(9) 0.58854(7)
C14_4 C 0.53646(8) 0.46354(8) 0.62012(8)
C15_4 C 0.61455(13) 0.30727(6) 0.29688(7)
C16_4 C 0.55573(13) 0.27787(6) 0.29945(7)
C17_4 C 0.52811(10) 0.30564(10) 0.30194(6)
H7_4 H 0.546447 0.343353 0.299512
C18_4 C 0.47381(10) 0.27840(10) 0.30797(6)
H8_4 H 0.455036 0.297487 0.309742
C19_4 C 0.44706(13) 0.22353(6) 0.31138(7)
C20_4 C 0.38911(13) 0.19456(7) 0.31937(7)
C21_4 C 0.12052(11) 0.19336(13) 0.34789(6)
H9_4 H 0.145315 0.210073 0.333077
C22_4 C 0.13236(10) 0.16903(11) 0.36943(5)
C23_4 C 0.09605(11) 0.14451(14) 0.39066(6)
H10_4 H 0.103919 0.127479 0.405403
C24_4 C 0.18481(10) 0.17036(11) 0.36946(5)
O10_4 O 0.79620(7) 0.69463(7) 0.41113(4)
O11_4 O 0.74596(7) 0.67216(7) 0.37277(4)
O12_2 O 0.57453(9) 0.50300(11) 0.63229(4)
N4_4 N 0.57580(9) 0.50593(10) 0.48682(4)
C25_4 C 0.57314(11) 0.50440(11) 0.45876(5)
C26_4 C 0.61888(11) 0.54792(11) 0.44342(5)
C27_4 C 0.66682(13) 0.58150(14) 0.45710(6)
H11_4 H 0.669784 0.577732 0.476634
C28_4 C 0.70965(12) 0.61987(15) 0.44252(6)
H12_4 H 0.742423 0.642136 0.451923
C29_4 C 0.70553(10) 0.62646(10) 0.41421(5)
C30_4 C 0.65789(10) 0.59392(10) 0.40067(5)
H13_4 H 0.654715 0.598667 0.381265
C31_4 C 0.61449(11) 0.55423(10) 0.41521(5)
H14_4 H 0.581929 0.531546 0.405730
C32_4 C 0.75253(10) 0.66753(9) 0.39829(5)
C33_4 C 0.57750(13) 0.50547(14) 0.54533(6)
H15_4 H 0.605984 0.534097 0.535459
C34_4 C 0.57771(14) 0.50487(15) 0.57411(6)
H16_4 H 0.605997 0.533557 0.584052
O13_4 O 0.85513(11) 0.63310(7) 0.32273(4)
N5_4 N 0.72148(7) 0.36074(5) 0.29680(6)
C35_4 C 0.69272(14) 0.38545(13) 0.29688(7)
C36_4 C 0.72214(14) 0.44427(13) 0.29945(7)
C37_4 C 0.77753(14) 0.47189(10) 0.30194(6)
H17_4 H 0.796906 0.453553 0.299512
C38_4 C 0.80459(14) 0.52619(10) 0.30797(6)
H18_4 H 0.842451 0.544964 0.309742
C39_4 C 0.77647(14) 0.55294(13) 0.31138(7)
C40_4 C 0.80545(15) 0.61089(13) 0.31937(7)
O14_4 O 0.77797(8) 0.14487(11) 0.32273(4)
N6_4 N 0.63926(5) 0.27852(7) 0.29680(6)
C41_4 C 0.69273(6) 0.30728(14) 0.29688(7)
C42_4 C 0.72213(6) 0.27786(14) 0.29945(7)
C43_4 C 0.69436(10) 0.22247(14) 0.30194(6)
H19_4 H 0.656647 0.203094 0.299512
C44_4 C 0.72160(10) 0.19541(14) 0.30797(6)
H20_4 H 0.702513 0.157549 0.309742
C45_4 C 0.77647(6) 0.22353(14) 0.31138(7)
C46_4 C 0.80544(7) 0.19455(15) 0.31937(7)
O15_4 O 0.77797(8) 0.63310(7) 0.32273(4)
C47_4 C 0.69436(10) 0.47189(10) 0.30194(6)
H21_4 H 0.656647 0.453553 0.299512
C48_4 C 0.72160(10) 0.52619(10) 0.30797(6)
H22_4 H 0.702513 0.544964 0.309742
O16_4 O 0.85513(11) 0.22203(8) 0.32273(4)
C49_4 C 0.77753(14) 0.30564(10) 0.30194(6)
H23_4 H 0.796906 0.343353 0.299512
C50_4 C 0.80459(14) 0.27840(10) 0.30797(6)
H24_4 H 0.842451 0.297487 0.309742
O17_4 O 0.36690(7) 0.14487(11) 0.32273(4)
C51_4 C 0.52811(10) 0.22247(14) 0.30194(6)
H25_4 H 0.546447 0.203094 0.299512
C52_4 C 0.47381(10) 0.19541(14) 0.30797(6)
H26_4 H 0.455036 0.157549 0.309742
C53_4 C 0.07284(17) 0.19336(13) 0.34789(6)
H27_4 H 0.064758 0.210073 0.333077
C54_4 C 0.03667(15) 0.16903(11) 0.36943(5)
C55_4 C 0.04846(18) 0.14451(14) 0.39066(6)
H28_4 H 0.023560 0.127479 0.405403
O25_4 O 0.19402(7) 0.04600(12) 0.38943(4)
O26_4 O 0.21618(7) 0.02285(11) 0.34952(4)
C64_4 C 0.18481(10) 0.01445(15) 0.36946(5)
Sc9_3 Sc 0.29190(2) 0.08516(3) 0.33758(2)
O42_4 O 0.30537(7) 0.10157(10) 0.41113(4)
O43_4 O 0.32784(7) 0.07380(10) 0.37277(4)
O44_2 O 0.49700(11) 0.07153(14) 0.63229(4)
O45_4 O 0.30483(10) 0.02320(16) 0.32049(5)
N10_4 N 0.53423(7) 0.06846(10) 0.44383(6)
N11_4 N 0.49407(10) 0.06987(13) 0.48682(4)
C97_4 C 0.49560(11) 0.06874(16) 0.45876(5)
C98_4 C 0.53497(10) 0.06994(14) 0.49975(7)
C99_4 C 0.45208(11) 0.07096(16) 0.44342(5)
C100_4 C 0.41850(14) 0.08532(19) 0.45710(6)
H49_4 H 0.422268 0.092052 0.476634
C101_4 C 0.38013(15) 0.08978(19) 0.44252(6)
H50_4 H 0.357864 0.100287 0.451923
C102_4 C 0.37354(10) 0.07907(14) 0.41421(5)
C103_4 C 0.40608(10) 0.06397(14) 0.40067(5)
H51_4 H 0.401333 0.056048 0.381265
C104_4 C 0.44577(10) 0.06026(15) 0.41521(5)
H52_4 H 0.468454 0.050383 0.405730
C105_4 C 0.33247(9) 0.08500(13) 0.39829(5)
C106_4 C 0.53572(10) 0.07144(14) 0.53082(7)
C107_4 C 0.49453(14) 0.07203(19) 0.54533(6)
H53_4 H 0.465903 0.071887 0.535459
C108_4 C 0.49513(15) 0.07284(21) 0.57411(6)
H54_4 H 0.466443 0.072440 0.584052
C109_4 C 0.53711(9) 0.07422(13) 0.58854(7)
C110_4 C 0.53646(8) 0.07292(11) 0.62012(8)
O46_4 O 0.79620(7) 0.10157(10) 0.41113(4)
O47_4 O 0.74596(7) 0.07380(10) 0.37277(4)
O48_2 O 0.57453(9) 0.07153(14) 0.63229(4)
N12_4 N 0.57580(9) 0.06987(13) 0.48682(4)
C111_4 C 0.57314(11) 0.06874(16) 0.45876(5)
C112_4 C 0.61888(11) 0.07096(16) 0.44342(5)
C113_4 C 0.66682(13) 0.08532(19) 0.45710(6)
H55_4 H 0.669784 0.092052 0.476634
C114_4 C 0.70965(12) 0.08978(19) 0.44252(6)
H56_4 H 0.742423 0.100287 0.451923
C115_4 C 0.70553(10) 0.07907(14) 0.41421(5)
C116_4 C 0.65789(10) 0.06397(14) 0.40067(5)
H57_4 H 0.654715 0.056048 0.381265
C117_4 C 0.61449(11) 0.06026(15) 0.41521(5)
H58_4 H 0.581929 0.050383 0.405730
C118_4 C 0.75253(10) 0.08500(13) 0.39829(5)
C119_4 C 0.57750(13) 0.07203(19) 0.54533(6)
H59_4 H 0.605984 0.071887 0.535459
C120_4 C 0.57771(14) 0.07284(21) 0.57411(6)
H60_4 H 0.605997 0.072440 0.584052
Sc11_3 Sc 0.91484(3) 0.70810(2) 0.33758(2)
Sc12_3 Sc 0.79326(2) 0.08516(3) 0.33758(2)
Sc13_3 Sc 0.79326(2) 0.70810(2) 0.33758(2)
Sc14_3 Sc 0.91484(3) 0.20674(2) 0.33758(2)
Sc16_2 Sc 0.58151(3) 0.04143(2) 0.67091(2)
Sc17_2 Sc 0.45993(2) 0.41849(3) 0.67091(2)
Sc18_2 Sc 0.45993(2) 0.04143(2) 0.67091(2)
Sc19_2 Sc 0.58151(3) 0.54007(2) 0.67091(2)
Sc22_4 Sc 0.87396(3) 0.74792(2) 0.39701(2)
Sc23_4 Sc 0.87396(2) 0.12604(3) 0.39701(2)
O56_3 O 0.26180(14) 0.16967(11) 0.29896(4)
O59_3 O 0.26180(14) 0.09214(9) 0.29896(4)
O18_4 O 0.95400(12) 0.14802(10) 0.38943(4)
O19_4 O 0.97715(11) 0.19333(8) 0.34952(4)
C56_4 C 0.98555(15) 0.17036(11) 0.36946(5)
O27_4 O 0.85198(10) 0.04600(12) 0.38943(4)
O28_4 O 0.86051(4) 0.13949(9) 0.35761(4)
O29_4 O 0.80667(8) 0.02285(11) 0.34952(4)
O30_4 O 0.71837(12) 0.02320(16) 0.32049(5)
O31_4 O 0.88934(6) 0.11066(13) 0.43974(5)
C68_4 C 0.82964(11) 0.01445(15) 0.36946(5)
O35_4 O 0.89843(10) 0.20380(7) 0.41113(4)
O36_4 O 0.92620(10) 0.25404(7) 0.37277(4)
O37_2 O 0.92847(14) 0.42547(9) 0.63229(4)
O38_4 O 0.97680(16) 0.28163(12) 0.32049(5)
N7_4 N 0.93154(10) 0.46577(7) 0.44383(6)
N8_4 N 0.93013(13) 0.42420(9) 0.48682(4)
C73_4 C 0.93126(16) 0.42686(11) 0.45876(5)
C74_4 C 0.93006(14) 0.46503(10) 0.49975(7)
C75_4 C 0.92904(16) 0.38112(11) 0.44342(5)
C76_4 C 0.91468(19) 0.33318(13) 0.45710(6)
H37_4 H 0.907948 0.330216 0.476634
C77_4 C 0.91022(19) 0.29035(12) 0.44252(6)
H38_4 H 0.899713 0.257577 0.451923
C78_4 C 0.92093(14) 0.29447(10) 0.41421(5)
C79_4 C 0.93603(14) 0.34211(10) 0.40067(5)
H39_4 H 0.943952 0.345285 0.381265
C80_4 C 0.93974(15) 0.38551(11) 0.41521(5)
H40_4 H 0.949617 0.418071 0.405730
C81_4 C 0.91500(13) 0.24747(10) 0.39829(5)
C82_4 C 0.92856(14) 0.46428(10) 0.53082(7)
C83_4 C 0.92797(19) 0.42250(13) 0.54533(6)
H41_4 H 0.928113 0.394016 0.535459
C84_4 C 0.92716(21) 0.42229(14) 0.57411(6)
H42_4 H 0.927560 0.394003 0.584052
C85_4 C 0.92578(13) 0.46289(9) 0.58854(7)
C86_4 C 0.92708(11) 0.46354(8) 0.62012(8)
O39_4 O 0.89843(10) 0.69463(7) 0.41113(4)
O40_4 O 0.92620(10) 0.67216(7) 0.37277(4)
O41_2 O 0.92847(14) 0.50300(11) 0.63229(4)
N9_4 N 0.93013(13) 0.50593(10) 0.48682(4)
C87_4 C 0.93126(16) 0.50440(11) 0.45876(5)
C88_4 C 0.92904(16) 0.54792(11) 0.44342(5)
C89_4 C 0.91468(19) 0.58150(14) 0.45710(6)
H43_4 H 0.907948 0.577732 0.476634
C90_4 C 0.91022(19) 0.61987(15) 0.44252(6)
H44_4 H 0.899713 0.642136 0.451923
C91_4 C 0.92093(14) 0.62646(10) 0.41421(5)
C92_4 C 0.93603(14) 0.59392(10) 0.40067(5)
H45_4 H 0.943952 0.598667 0.381265
C93_4 C 0.93974(15) 0.55423(10) 0.41521(5)
H46_4 H 0.949617 0.531546 0.405730
C94_4 C 0.91500(13) 0.66753(9) 0.39829(5)
C95_4 C 0.92797(19) 0.50547(14) 0.54533(6)
H47_4 H 0.928113 0.534097 0.535459
C96_4 C 0.92716(21) 0.50487(15) 0.57411(6)
H48_4 H 0.927560 0.533557 0.584052
Sc15_2 Sc 0.95857(2) 0.54007(2) 0.67091(2)
Sc20_2 Sc 0.95857(2) 0.41849(3) 0.67091(2)
O55_3 O 0.83033(11) 0.09214(9) 0.29896(4)
O58_3 O 0.90786(9) 0.16967(11) 0.29896(4)
O20_4 O 0.95400(12) 0.80598(7) 0.38943(4)
O21_4 O 0.86051(9) 0.72102(8) 0.35761(4)
O22_4 O 0.97715(11) 0.78382(7) 0.34952(4)
O23_4 O 0.97680(16) 0.69517(10) 0.32049(5)
O24_4 O 0.88934(13) 0.77868(11) 0.43974(5)
C60_4 C 0.98555(15) 0.81519(10) 0.36946(5)
C65_4 C 0.80664(13) 0.92716(17) 0.34789(6)
H33_4 H 0.789927 0.935242 0.333077
C66_4 C 0.83097(11) 0.96333(15) 0.36943(5)
C67_4 C 0.85549(14) 0.95154(18) 0.39066(6)
H34_4 H 0.872521 0.976440 0.405403
O32_4 O 0.85198(10) 0.80598(7) 0.38943(4)
O33_4 O 0.80667(8) 0.78382(7) 0.34952(4)
C69_4 C 0.80664(13) 0.87948(11) 0.34789(6)
H35_4 H 0.789927 0.854685 0.333077
C70_4 C 0.83097(11) 0.86764(10) 0.36943(5)
C71_4 C 0.85549(14) 0.90395(11) 0.39066(6)
H36_4 H 0.872521 0.896081 0.405403
C72_4 C 0.82964(11) 0.81519(10) 0.36946(5)
O34_4 O 0.71837(12) 0.69517(10) 0.32049(5)
O57_3 O 0.90786(9) 0.73820(14) 0.29896(4)
O60_3 O 0.83033(11) 0.73820(14) 0.29896(4)
H77_4 H 0.0123493 0.285353 0.324231
O10_5 O 0.46287(7) 0.02796(7) 0.74446(4)
O11_5 O 0.41263(7) 0.00549(7) 0.70610(4)
C32_5 C 0.41920(10) 0.00086(9) 0.73162(5)
Sc22_5 Sc 0.54063(3) 0.08125(2) 0.73034(2)
Sc16_3 Sc 0.24817(3) 0.37477(2) 0.00425(2)
Sc17_3 Sc 0.12659(2) 0.75183(3) 0.00425(2)
Sc18_3 Sc 0.12659(2) 0.37477(2) 0.00425(2)
Sc19_3 Sc 0.24817(3) 0.87341(2) 0.00425(2)
O3_3 O 0.16367(11) 0.75880(9) 0.96562(4)
O4_5 O 0.03357(7) 0.55536(8) 0.65606(4)
N1_5 N 0.20090(7) 0.79910(7) 0.77716(6)
N2_5 N 0.16074(10) 0.75753(9) 0.82015(4)
N3_5 N 0.30593(5) 0.69407(5) 0.63013(6)
C1_5 C 0.16227(11) 0.76019(11) 0.79209(5)
C2_5 C 0.20164(10) 0.79836(10) 0.83308(7)
C3_5 C 0.11875(11) 0.71445(11) 0.77675(5)
C4_5 C 0.08517(14) 0.66651(13) 0.79043(6)
H1_5 H 0.088935 0.663549 0.809967
C5_5 C 0.04680(15) 0.62368(12) 0.77585(6)
H2_5 H 0.024531 0.590910 0.785256
C6_5 C 0.04021(10) 0.62780(10) 0.74754(5)
C7_5 C 0.07275(10) 0.67544(10) 0.73400(5)
H3_5 H 0.068000 0.678618 0.714598
C8_5 C 0.11244(10) 0.71884(11) 0.74854(5)
H4_5 H 0.135121 0.751404 0.739063
C10_5 C 0.20239(10) 0.79761(10) 0.86415(7)
C11_5 C 0.16120(14) 0.75583(13) 0.87866(6)
H5_5 H 0.132570 0.727349 0.868792
C12_5 C 0.16180(15) 0.75562(14) 0.90744(6)
H6_5 H 0.133110 0.727336 0.917385
C13_5 C 0.20378(9) 0.79622(9) 0.92187(7)
C14_5 C 0.20313(8) 0.79687(8) 0.95345(8)
C15_5 C 0.28122(13) 0.64060(6) 0.63021(7)
C16_5 C 0.22240(13) 0.61120(6) 0.63278(7)
C17_5 C 0.19478(10) 0.63897(10) 0.63527(6)
H7_5 H 0.213114 0.676686 0.632845
C18_5 C 0.14048(10) 0.61173(10) 0.64130(6)
H8_5 H 0.121703 0.630820 0.643075
C19_5 C 0.11373(13) 0.55686(6) 0.64471(7)
C20_5 C 0.05578(13) 0.52789(7) 0.65270(7)
O12_3 O 0.24120(9) 0.83633(11) 0.96562(4)
N4_5 N 0.24247(9) 0.83926(10) 0.82015(4)
C25_5 C 0.23981(11) 0.83773(11) 0.79209(5)
C26_5 C 0.28555(11) 0.88125(11) 0.77675(5)
C27_5 C 0.33349(13) 0.91483(14) 0.79043(6)
H11_5 H 0.336451 0.911065 0.809967
C28_5 C 0.37632(12) 0.95320(15) 0.77585(6)
H12_5 H 0.409090 0.975469 0.785256
C29_5 C 0.37220(10) 0.95979(10) 0.74754(5)
C30_5 C 0.32456(10) 0.92725(10) 0.73400(5)
H13_5 H 0.321382 0.932000 0.714598
C31_5 C 0.28116(11) 0.88756(10) 0.74854(5)
H14_5 H 0.248596 0.864879 0.739063
C33_5 C 0.24417(13) 0.83880(14) 0.87866(6)
H15_5 H 0.272651 0.867430 0.868792
C34_5 C 0.24438(14) 0.83820(15) 0.90744(6)
H16_5 H 0.272664 0.866890 0.917385
O13_5 O 0.52180(11) 0.96643(7) 0.65606(4)
N5_5 N 0.38815(7) 0.69407(5) 0.63013(6)
C35_5 C 0.35939(14) 0.71878(13) 0.63021(7)
C36_5 C 0.38881(14) 0.77760(13) 0.63278(7)
C37_5 C 0.44420(14) 0.80522(10) 0.63527(6)
H17_5 H 0.463573 0.786886 0.632845
C38_5 C 0.47126(14) 0.85952(10) 0.64130(6)
H18_5 H 0.509118 0.878297 0.643075
C39_5 C 0.44314(14) 0.88627(13) 0.64471(7)
C40_5 C 0.47212(15) 0.94422(13) 0.65270(7)
O14_5 O 0.44464(8) 0.47820(11) 0.65606(4)
N6_5 N 0.30593(5) 0.61185(7) 0.63013(6)
C41_5 C 0.35940(6) 0.64061(14) 0.63021(7)
C42_5 C 0.38880(6) 0.61119(14) 0.63278(7)
C43_5 C 0.36103(10) 0.55580(14) 0.63527(6)
H19_5 H 0.323314 0.536427 0.632845
C44_5 C 0.38827(10) 0.52874(14) 0.64130(6)
H20_5 H 0.369180 0.490882 0.643075
C45_5 C 0.44314(6) 0.55686(14) 0.64471(7)
C46_5 C 0.47211(7) 0.52788(15) 0.65270(7)
O15_5 O 0.44464(8) 0.96643(7) 0.65606(4)
C47_5 C 0.36103(10) 0.80522(10) 0.63527(6)
H21_5 H 0.323314 0.786886 0.632845
C48_5 C 0.38827(10) 0.85952(10) 0.64130(6)
H22_5 H 0.369180 0.878297 0.643075
O16_5 O 0.52180(11) 0.55536(8) 0.65606(4)
C49_5 C 0.44420(14) 0.63897(10) 0.63527(6)
H23_5 H 0.463573 0.676686 0.632845
C50_5 C 0.47126(14) 0.61173(10) 0.64130(6)
H24_5 H 0.509118 0.630820 0.643075
O17_5 O 0.03357(7) 0.47820(11) 0.65606(4)
C51_5 C 0.19478(10) 0.55580(14) 0.63527(6)
H25_5 H 0.213114 0.536427 0.632845
C52_5 C 0.14048(10) 0.52874(14) 0.64130(6)
H26_5 H 0.121703 0.490882 0.643075
O44_3 O 0.16367(11) 0.40486(14) 0.96562(4)
N10_5 N 0.20090(7) 0.40179(10) 0.77716(6)
N11_5 N 0.16074(10) 0.40320(13) 0.82015(4)
C97_5 C 0.16227(11) 0.40207(16) 0.79209(5)
C98_5 C 0.20164(10) 0.40327(14) 0.83308(7)
C99_5 C 0.11875(11) 0.40429(16) 0.77675(5)
C100_5 C 0.08517(14) 0.41865(19) 0.79043(6)
H49_5 H 0.088935 0.425385 0.809967
C101_5 C 0.04680(15) 0.42311(19) 0.77585(6)
H50_5 H 0.024531 0.433620 0.785256
C102_5 C 0.04021(10) 0.41240(14) 0.74754(5)
C103_5 C 0.07275(10) 0.39730(14) 0.73400(5)
H51_5 H 0.068000 0.389381 0.714598
C104_5 C 0.11244(10) 0.39359(15) 0.74854(5)
H52_5 H 0.135121 0.383716 0.739063
C106_5 C 0.20239(10) 0.40477(14) 0.86415(7)
C107_5 C 0.16120(14) 0.40536(19) 0.87866(6)
H53_5 H 0.132570 0.405220 0.868792
C108_5 C 0.16180(15) 0.40617(21) 0.90744(6)
H54_5 H 0.133110 0.405773 0.917385
C109_5 C 0.20378(9) 0.40755(13) 0.92187(7)
C110_5 C 0.20313(8) 0.40625(11) 0.95345(8)
O46_5 O 0.46287(7) 0.43490(10) 0.74446(4)
O47_5 O 0.41263(7) 0.40713(10) 0.70610(4)
O48_3 O 0.24120(9) 0.40486(14) 0.96562(4)
N12_5 N 0.24247(9) 0.40320(13) 0.82015(4)
C111_5 C 0.23981(11) 0.40207(16) 0.79209(5)
C112_5 C 0.28555(11) 0.40429(16) 0.77675(5)
C113_5 C 0.33349(13) 0.41865(19) 0.79043(6)
H55_5 H 0.336451 0.425385 0.809967
C114_5 C 0.37632(12) 0.42311(19) 0.77585(6)
H56_5 H 0.409090 0.433620 0.785256
C115_5 C 0.37220(10) 0.41240(14) 0.74754(5)
C116_5 C 0.32456(10) 0.39730(14) 0.73400(5)
H57_5 H 0.321382 0.389381 0.714598
C117_5 C 0.28116(11) 0.39359(15) 0.74854(5)
H58_5 H 0.248596 0.383716 0.739063
C118_5 C 0.41920(10) 0.41833(13) 0.73162(5)
C119_5 C 0.24417(13) 0.40536(19) 0.87866(6)
H59_5 H 0.272651 0.405220 0.868792
C120_5 C 0.24438(14) 0.40617(21) 0.90744(6)
H60_5 H 0.272664 0.405773 0.917385
Sc23_5 Sc 0.54063(2) 0.45937(3) 0.73034(2)
H61_5 H 0.0103578 0.64154 0.653967
O39_5 O 0.56510(10) 0.02796(7) 0.74446(4)
O40_5 O 0.59287(10) 0.00549(7) 0.70610(4)
C94_5 C 0.58167(13) 0.00086(9) 0.73162(5)
Sc15_3 Sc 0.62523(2) 0.87341(2) 0.00425(2)
Sc20_3 Sc 0.62523(2) 0.75183(3) 0.00425(2)
Sc2_5 Sc 0.91875(2) 0.45937(2) 0.73034(2)
O1_5 O 0.97204(7) 0.53713(7) 0.74446(4)
O2_5 O 0.99451(7) 0.58737(7) 0.70610(4)
O5_5 O 0.86069(7) 0.48135(10) 0.72276(4)
O6_5 O 0.94565(8) 0.47282(4) 0.69094(4)
O7_5 O 0.88285(7) 0.52666(8) 0.68285(4)
O8_5 O 0.97150(10) 0.61496(12) 0.65382(5)
O9_5 O 0.88799(11) 0.44399(6) 0.77307(5)
C9_5 C 0.99914(9) 0.58080(10) 0.73162(5)
C21_5 C 0.78719(11) 0.52669(13) 0.68122(6)
H9_5 H 0.811982 0.543406 0.666410
C22_5 C 0.79903(10) 0.50236(11) 0.70276(5)
C23_5 C 0.76272(11) 0.47784(14) 0.72399(6)
H10_5 H 0.770586 0.460812 0.738736
C24_5 C 0.85148(10) 0.50369(11) 0.70279(5)
O18_5 O 0.62067(12) 0.48135(10) 0.72276(4)
O19_5 O 0.64382(11) 0.52666(8) 0.68285(4)
C53_5 C 0.73951(17) 0.52669(13) 0.68122(6)
H27_5 H 0.731425 0.543406 0.666410
C54_5 C 0.70334(15) 0.50236(11) 0.70276(5)
C55_5 C 0.71513(18) 0.47784(14) 0.72399(6)
H28_5 H 0.690227 0.460812 0.738736
C56_5 C 0.65222(15) 0.50369(11) 0.70279(5)
O20_5 O 0.62067(12) 0.13931(7) 0.72276(4)
O21_5 O 0.52718(9) 0.05435(8) 0.69094(4)
O22_5 O 0.64382(11) 0.11715(7) 0.68285(4)
O23_5 O 0.64347(16) 0.02850(10) 0.65382(5)
O24_5 O 0.55601(13) 0.11201(11) 0.77307(5)
C57_4 C 0.73951(17) 0.21281(11) 0.68122(6)
H29_4 H 0.731425 0.188018 0.666410
C58_4 C 0.70334(15) 0.20097(10) 0.70276(5)
C59_4 C 0.71513(18) 0.23728(11) 0.72399(6)
H30_4 H 0.690227 0.229414 0.738736
C60_5 C 0.65222(15) 0.14852(10) 0.70279(5)
O25_5 O 0.86069(7) 0.37933(12) 0.72276(4)
O26_5 O 0.88285(7) 0.35618(11) 0.68285(4)
C61_4 C 0.78719(11) 0.26049(17) 0.68122(6)
H31_4 H 0.811982 0.268575 0.666410
C62_4 C 0.79903(10) 0.29666(15) 0.70276(5)
C63_4 C 0.76272(11) 0.28487(18) 0.72399(6)
H32_4 H 0.770586 0.309773 0.738736
C64_5 C 0.85148(10) 0.34778(15) 0.70279(5)
O27_5 O 0.51865(10) 0.37933(12) 0.72276(4)
O28_5 O 0.52718(4) 0.47282(9) 0.69094(4)
O29_5 O 0.47334(8) 0.35618(11) 0.68285(4)
O30_5 O 0.38504(12) 0.35653(16) 0.65382(5)
O31_5 O 0.55601(6) 0.44399(13) 0.77307(5)
C65_5 C 0.47331(13) 0.26049(17) 0.68122(6)
H33_5 H 0.456594 0.268575 0.666410
C66_5 C 0.49764(11) 0.29666(15) 0.70276(5)
C67_5 C 0.52216(14) 0.28487(18) 0.72399(6)
H34_5 H 0.539188 0.309773 0.738736
C68_5 C 0.49631(11) 0.34778(15) 0.70279(5)
O32_5 O 0.51865(10) 0.13931(7) 0.72276(4)
O33_5 O 0.47334(8) 0.11715(7) 0.68285(4)
C69_5 C 0.47331(13) 0.21281(11) 0.68122(6)
H35_5 H 0.456594 0.188018 0.666410
C70_5 C 0.49764(11) 0.20097(10) 0.70276(5)
C71_5 C 0.52216(14) 0.23728(11) 0.72399(6)
H36_5 H 0.539188 0.229414 0.738736
C72_5 C 0.49631(11) 0.14852(10) 0.70279(5)
O34_5 O 0.38504(12) 0.02850(10) 0.65382(5)
O35_5 O 0.56510(10) 0.53713(7) 0.74446(4)
O36_5 O 0.59287(10) 0.58737(7) 0.70610(4)
O37_3 O 0.59514(14) 0.75880(9) 0.96562(4)
O38_5 O 0.64347(16) 0.61496(12) 0.65382(5)
N7_5 N 0.59821(10) 0.79910(7) 0.77716(6)
N8_5 N 0.59680(13) 0.75753(9) 0.82015(4)
C73_5 C 0.59793(16) 0.76019(11) 0.79209(5)
C74_5 C 0.59673(14) 0.79836(10) 0.83308(7)
C75_5 C 0.59571(16) 0.71445(11) 0.77675(5)
C76_5 C 0.58135(19) 0.66651(13) 0.79043(6)
H37_5 H 0.574615 0.663549 0.809967
C77_5 C 0.57689(19) 0.62368(12) 0.77585(6)
H38_5 H 0.566380 0.590910 0.785256
C78_5 C 0.58760(14) 0.62780(10) 0.74754(5)
C79_5 C 0.60270(14) 0.67544(10) 0.73400(5)
H39_5 H 0.610619 0.678618 0.714598
C80_5 C 0.60641(15) 0.71884(11) 0.74854(5)
H40_5 H 0.616284 0.751404 0.739063
C81_5 C 0.58167(13) 0.58080(10) 0.73162(5)
C82_5 C 0.59523(14) 0.79761(10) 0.86415(7)
C83_5 C 0.59464(19) 0.75583(13) 0.87866(6)
H41_5 H 0.594780 0.727349 0.868792
C84_5 C 0.59383(21) 0.75562(14) 0.90744(6)
H42_5 H 0.594227 0.727336 0.917385
C85_5 C 0.59245(13) 0.79622(9) 0.92187(7)
C86_5 C 0.59375(11) 0.79687(8) 0.95345(8)
O41_3 O 0.59514(14) 0.83633(11) 0.96562(4)
N9_5 N 0.59680(13) 0.83926(10) 0.82015(4)
C87_5 C 0.59793(16) 0.83773(11) 0.79209(5)
C88_5 C 0.59571(16) 0.88125(11) 0.77675(5)
C89_5 C 0.58135(19) 0.91483(14) 0.79043(6)
H43_5 H 0.574615 0.911065 0.809967
C90_5 C 0.57689(19) 0.95320(15) 0.77585(6)
H44_5 H 0.566380 0.975469 0.785256
C91_5 C 0.58760(14) 0.95979(10) 0.74754(5)
C92_5 C 0.60270(14) 0.92725(10) 0.73400(5)
H45_5 H 0.610619 0.932000 0.714598
C93_5 C 0.60641(15) 0.88756(10) 0.74854(5)
H46_5 H 0.616284 0.864879 0.739063
C95_5 C 0.59464(19) 0.83880(14) 0.87866(6)
H47_5 H 0.594780 0.867430 0.868792
C96_5 C 0.59383(21) 0.83820(15) 0.90744(6)
H48_5 H 0.594227 0.866890 0.917385
O42_5 O 0.97204(7) 0.43490(10) 0.74446(4)
O43_5 O 0.99451(7) 0.40713(10) 0.70610(4)
O45_5 O 0.97150(10) 0.35653(16) 0.65382(5)
C105_5 C 0.99914(9) 0.41833(13) 0.73162(5)
H67_4 H 0.641602 0.996522 0.662707
H67_5 H 0.00347849 0.64508 0.662707
H74_5 H 0.365324 0.992283 0.645355
H74_6 H 0.00771659 0.37304 0.645355
H61_6 H 0.631182 0.989642 0.653967
O10_6 O 0.12953(7) 0.36130(7) 0.07780(4)
O11_6 O 0.07929(7) 0.33883(7) 0.03944(4)
C27_6 C 0.00015(13) 0.24817(14) 0.12377(6)
H11_6 H 0.003117 0.244399 0.143301
C28_6 C 0.04298(12) 0.28654(15) 0.10919(6)
H12_6 H 0.075756 0.308803 0.118590
C29_6 C 0.03886(10) 0.29313(10) 0.08088(5)
C32_6 C 0.08586(10) 0.33420(9) 0.06496(5)
Sc22_6 Sc 0.20729(3) 0.41459(2) 0.06368(2)
O13_6 O 0.18846(11) 0.29977(7) 0.98940(4)
N5_6 N 0.05481(7) 0.02741(5) 0.96347(6)
C35_6 C 0.02605(14) 0.05212(13) 0.96355(7)
C36_6 C 0.05547(14) 0.11094(13) 0.96612(7)
C37_6 C 0.11086(14) 0.13856(10) 0.96861(6)
H17_6 H 0.130239 0.120220 0.966179
C38_6 C 0.13792(14) 0.19286(10) 0.97464(6)
H18_6 H 0.175784 0.211631 0.976409
C39_6 C 0.10980(14) 0.21961(13) 0.97805(7)
C40_6 C 0.13878(15) 0.27756(13) 0.98604(7)
O15_6 O 0.11130(8) 0.29977(7) 0.98940(4)
C47_6 C 0.02769(10) 0.13856(10) 0.96861(6)
C48_6 C 0.05493(10) 0.19286(10) 0.97464(6)
H22_6 H 0.035846 0.211631 0.976409
H23_6 H 0.130239 0.010020 0.966179
O46_6 O 0.12953(7) 0.76824(10) 0.07780(4)
O47_6 O 0.07929(7) 0.74047(10) 0.03944(4)
C113_6 C 0.00015(13) 0.75199(19) 0.12377(6)
H55_6 H 0.003117 0.758719 0.143301
C114_6 C 0.04298(12) 0.75645(19) 0.10919(6)
H56_6 H 0.075756 0.766954 0.118590
C115_6 C 0.03886(10) 0.74574(14) 0.08088(5)
C118_6 C 0.08586(10) 0.75167(13) 0.06496(5)
Sc23_6 Sc 0.20729(2) 0.79271(3) 0.06368(2)
O14_6 O 0.11130(8) 0.81154(11) 0.98940(4)
C41_6 C 0.02606(6) 0.97395(14) 0.96355(7)
C42_6 C 0.05546(6) 0.94453(14) 0.96612(7)
C43_6 C 0.02769(10) 0.88914(14) 0.96861(6)
C44_6 C 0.05493(10) 0.86208(14) 0.97464(6)
H20_6 H 0.035846 0.824216 0.976409
C45_6 C 0.10980(6) 0.89020(14) 0.97805(7)
C46_6 C 0.13877(7) 0.86122(15) 0.98604(7)
O16_6 O 0.18846(11) 0.88870(8) 0.98940(4)
C49_6 C 0.11086(14) 0.97231(10) 0.96861(6)
C50_6 C 0.13792(14) 0.94507(10) 0.97464(6)
H24_6 H 0.175784 0.964154 0.976409
N1_6 N 0.86756(7) 0.13244(7) 0.11050(6)
N2_6 N 0.82740(10) 0.09087(9) 0.15349(4)
C1_6 C 0.82893(11) 0.09353(11) 0.12543(5)
C2_6 C 0.86830(10) 0.13170(10) 0.16642(7)
C3_6 C 0.78541(11) 0.04779(11) 0.11009(5)
C7_6 C 0.73941(10) 0.00878(10) 0.06734(5)
H3_6 H 0.734666 0.011952 0.047932
C8_6 C 0.77910(10) 0.05218(11) 0.08188(5)
H4_6 H 0.801787 0.084738 0.072397
C10_6 C 0.86905(10) 0.13095(10) 0.19749(7)
C11_6 C 0.82786(14) 0.08917(13) 0.21200(6)
H5_6 H 0.799236 0.060683 0.202126
C12_6 C 0.82846(15) 0.08896(14) 0.24078(6)
H6_6 H 0.799776 0.060670 0.250719
C13_6 C 0.87044(9) 0.12956(9) 0.25521(7)
C14_6 C 0.86979(8) 0.13021(8) 0.28679(8)
N4_6 N 0.90913(9) 0.17260(10) 0.15349(4)
C25_6 C 0.90647(11) 0.17107(11) 0.12543(5)
C26_6 C 0.95221(11) 0.21459(11) 0.11009(5)
C30_6 C 0.99122(10) 0.26059(10) 0.06734(5)
H13_6 H 0.988048 0.265334 0.047932
C31_6 C 0.94782(11) 0.22090(10) 0.08188(5)
H14_6 H 0.915262 0.198213 0.072397
C33_6 C 0.91083(13) 0.17214(14) 0.21200(6)
H15_6 H 0.939317 0.200764 0.202126
C34_6 C 0.91104(14) 0.17154(15) 0.24078(6)
H16_6 H 0.939330 0.200224 0.250719
N7_6 N 0.26487(10) 0.13244(7) 0.11050(6)
N8_6 N 0.26346(13) 0.09087(9) 0.15349(4)
C73_6 C 0.26459(16) 0.09353(11) 0.12543(5)
C74_6 C 0.26339(14) 0.13170(10) 0.16642(7)
C75_6 C 0.26237(16) 0.04779(11) 0.11009(5)
C79_6 C 0.26936(14) 0.00878(10) 0.06734(5)
H39_6 H 0.277285 0.011952 0.047932
C80_6 C 0.27307(15) 0.05218(11) 0.08188(5)
H40_6 H 0.282950 0.084738 0.072397
C82_6 C 0.26189(14) 0.13095(10) 0.19749(7)
C83_6 C 0.26130(19) 0.08917(13) 0.21200(6)
H41_6 H 0.261446 0.060683 0.202126
C84_6 C 0.26049(21) 0.08896(14) 0.24078(6)
H42_6 H 0.260893 0.060670 0.250719
C85_6 C 0.25911(13) 0.12956(9) 0.25521(7)
C86_6 C 0.26041(11) 0.13021(8) 0.28679(8)
O39_6 O 0.23176(10) 0.36130(7) 0.07780(4)
O40_6 O 0.25953(10) 0.33883(7) 0.03944(4)
N9_6 N 0.26346(13) 0.17260(10) 0.15349(4)
C87_6 C 0.26459(16) 0.17107(11) 0.12543(5)
C88_6 C 0.26237(16) 0.21459(11) 0.11009(5)
C89_6 C 0.24801(19) 0.24817(14) 0.12377(6)
H43_6 H 0.241281 0.244399 0.143301
C90_6 C 0.24355(19) 0.28654(15) 0.10919(6)
H44_6 H 0.233046 0.308803 0.118590
C91_6 C 0.25426(14) 0.29313(10) 0.08088(5)
C92_6 C 0.26936(14) 0.26059(10) 0.06734(5)
H45_6 H 0.277285 0.265334 0.047932
C93_6 C 0.27307(15) 0.22090(10) 0.08188(5)
H46_6 H 0.282950 0.198213 0.072397
C94_6 C 0.24833(13) 0.33420(9) 0.06496(5)
C95_6 C 0.26130(19) 0.17214(14) 0.21200(6)
H47_6 H 0.261446 0.200764 0.202126
C96_6 C 0.26049(21) 0.17154(15) 0.24078(6)
H48_6 H 0.260893 0.200224 0.250719
Sc2_6 Sc 0.58541(2) 0.79271(2) 0.06368(2)
O1_6 O 0.63870(7) 0.87047(7) 0.07780(4)
O2_6 O 0.66117(7) 0.92071(7) 0.03944(4)
O5_6 O 0.52735(7) 0.81469(10) 0.05610(4)
O6_6 O 0.61231(8) 0.80616(4) 0.02428(4)
O7_6 O 0.54951(7) 0.86000(8) 0.01619(4)
O9_6 O 0.55465(11) 0.77733(6) 0.10641(5)
C4_6 C 0.75183(14) 0.99985(13) 0.12377(6)
H1_6 H 0.755601 0.996883 0.143301
C5_6 C 0.71346(15) 0.95702(12) 0.10919(6)
H2_6 H 0.691197 0.924244 0.118590
C6_6 C 0.70687(10) 0.96114(10) 0.08088(5)
C9_6 C 0.66580(9) 0.91414(10) 0.06496(5)
C21_6 C 0.45385(11) 0.86003(13) 0.01456(6)
C22_6 C 0.46569(10) 0.83570(11) 0.03610(5)
C23_6 C 0.42938(11) 0.81118(14) 0.05733(6)
H10_6 H 0.437252 0.794146 0.072070
C24_6 C 0.51814(10) 0.83703(11) 0.03613(5)
O18_6 O 0.28733(12) 0.81469(10) 0.05610(4)
O19_6 O 0.31048(11) 0.86000(8) 0.01619(4)
C53_6 C 0.40617(17) 0.86003(13) 0.01456(6)
C54_6 C 0.37000(15) 0.83570(11) 0.03610(5)
C55_6 C 0.38179(18) 0.81118(14) 0.05733(6)
H28_6 H 0.356893 0.794146 0.072070
C56_6 C 0.31888(15) 0.83703(11) 0.03613(5)
O20_6 O 0.28733(12) 0.47265(7) 0.05610(4)
O21_6 O 0.19384(9) 0.38769(8) 0.02428(4)
O22_6 O 0.31048(11) 0.45049(7) 0.01619(4)
O24_6 O 0.22267(13) 0.44535(11) 0.10641(5)
C57_5 C 0.40617(17) 0.54615(11) 0.01456(6)
C58_5 C 0.37000(15) 0.53431(10) 0.03610(5)
C59_5 C 0.38179(18) 0.57062(11) 0.05733(6)
H30_5 H 0.356893 0.562748 0.072070
C60_6 C 0.31888(15) 0.48186(10) 0.03613(5)
O25_6 O 0.52735(7) 0.71267(12) 0.05610(4)
O26_6 O 0.54951(7) 0.68952(11) 0.01619(4)
C61_5 C 0.45385(11) 0.59383(17) 0.01456(6)
C62_5 C 0.46569(10) 0.63000(15) 0.03610(5)
C63_5 C 0.42938(11) 0.61821(18) 0.05733(6)
H32_5 H 0.437252 0.643107 0.072070
C64_6 C 0.51814(10) 0.68112(15) 0.03613(5)
O27_6 O 0.18531(10) 0.71267(12) 0.05610(4)
O28_6 O 0.19384(4) 0.80616(9) 0.02428(4)
O29_6 O 0.14000(8) 0.68952(11) 0.01619(4)
O31_6 O 0.22267(6) 0.77733(13) 0.10641(5)
C65_6 C 0.13997(13) 0.59383(17) 0.01456(6)
C66_6 C 0.16430(11) 0.63000(15) 0.03610(5)
C67_6 C 0.18882(14) 0.61821(18) 0.05733(6)
H34_6 H 0.205854 0.643107 0.072070
C68_6 C 0.16297(11) 0.68112(15) 0.03613(5)
O32_6 O 0.18531(10) 0.47265(7) 0.05610(4)
O33_6 O 0.14000(8) 0.45049(7) 0.01619(4)
C69_6 C 0.13997(13) 0.54615(11) 0.01456(6)
C70_6 C 0.16430(11) 0.53431(10) 0.03610(5)
C71_6 C 0.18882(14) 0.57062(11) 0.05733(6)
H36_6 H 0.205854 0.562748 0.072070
C72_6 C 0.16297(11) 0.48186(10) 0.03613(5)
O35_6 O 0.23176(10) 0.87047(7) 0.07780(4)
O36_6 O 0.25953(10) 0.92071(7) 0.03944(4)
C76_6 C 0.24801(19) 0.99985(13) 0.12377(6)
H37_6 H 0.241281 0.996883 0.143301
C77_6 C 0.24355(19) 0.95702(12) 0.10919(6)
H38_6 H 0.233046 0.924244 0.118590
C78_6 C 0.25426(14) 0.96114(10) 0.08088(5)
C81_6 C 0.24833(13) 0.91414(10) 0.06496(5)
O42_6 O 0.63870(7) 0.76824(10) 0.07780(4)
O43_6 O 0.66117(7) 0.74047(10) 0.03944(4)
N10_6 N 0.86756(7) 0.73513(10) 0.11050(6)
N11_6 N 0.82740(10) 0.73654(13) 0.15349(4)
C97_6 C 0.82893(11) 0.73541(16) 0.12543(5)
C98_6 C 0.86830(10) 0.73661(14) 0.16642(7)
C99_6 C 0.78541(11) 0.73763(16) 0.11009(5)
C100_6 C 0.75183(14) 0.75199(19) 0.12377(6)
H49_6 H 0.755601 0.758719 0.143301
C101_6 C 0.71346(15) 0.75645(19) 0.10919(6)
H50_6 H 0.691197 0.766954 0.118590
C102_6 C 0.70687(10) 0.74574(14) 0.08088(5)
C103_6 C 0.73941(10) 0.73064(14) 0.06734(5)
H51_6 H 0.734666 0.722715 0.047932
C104_6 C 0.77910(10) 0.72693(15) 0.08188(5)
H52_6 H 0.801787 0.717050 0.072397
C105_6 C 0.66580(9) 0.75167(13) 0.06496(5)
C106_6 C 0.86905(10) 0.73811(14) 0.19749(7)
C107_6 C 0.82786(14) 0.73870(19) 0.21200(6)
H53_6 H 0.799236 0.738554 0.202126
C108_6 C 0.82846(15) 0.73951(21) 0.24078(6)
H54_6 H 0.799776 0.739107 0.250719
C109_6 C 0.87044(9) 0.74089(13) 0.25521(7)
C110_6 C 0.86979(8) 0.73959(11) 0.28679(8)
N12_6 N 0.90913(9) 0.73654(13) 0.15349(4)
C111_6 C 0.90647(11) 0.73541(16) 0.12543(5)
C112_6 C 0.95221(11) 0.73763(16) 0.11009(5)
C116_6 C 0.99122(10) 0.73064(14) 0.06734(5)
H57_6 H 0.988048 0.722715 0.047932
C117_6 C 0.94782(11) 0.72693(15) 0.08188(5)
H58_6 H 0.915262 0.717050 0.072397
C119_6 C 0.91083(13) 0.73870(19) 0.21200(6)
H59_6 H 0.939317 0.738554 0.202126
C120_6 C 0.91104(14) 0.73951(21) 0.24078(6)
H60_6 H 0.939330 0.739107 0.250719
O4_6 O 0.70023(7) 0.88870(8) 0.98940(4)
O8_6 O 0.63816(10) 0.94830(12) 0.98716(5)
C15_6 C 0.94788(13) 0.97394(6) 0.96355(7)
C16_6 C 0.88906(13) 0.94454(6) 0.96612(7)
C17_6 C 0.86144(10) 0.97231(10) 0.96861(6)
C18_6 C 0.80714(10) 0.94507(10) 0.97464(6)
H8_6 H 0.788369 0.964154 0.976409
C19_6 C 0.78039(13) 0.89020(6) 0.97805(7)
C20_6 C 0.72244(13) 0.86123(7) 0.98604(7)
H9_6 H 0.478648 0.876740 0.999744
N6_6 N 0.97259(5) 0.94519(7) 0.96347(6)
H19_6 H 0.989980 0.869761 0.966179
O17_6 O 0.70023(7) 0.81154(11) 0.98940(4)
C51_6 C 0.86144(10) 0.88914(14) 0.96861(6)
H25_6 H 0.879780 0.869761 0.966179
C52_6 C 0.80714(10) 0.86208(14) 0.97464(6)
H26_6 H 0.788369 0.824216 0.976409
H27_6 H 0.398091 0.876740 0.999744
O23_6 O 0.31013(16) 0.36184(10) 0.98716(5)
H29_5 H 0.398091 0.521352 0.999744
H31_5 H 0.478648 0.601909 0.999744
O30_6 O 0.05170(12) 0.68987(16) 0.98716(5)
H33_6 H 0.123260 0.601909 0.999744
H35_6 H 0.123260 0.521352 0.999744
O34_6 O 0.05170(12) 0.36184(10) 0.98716(5)
O38_6 O 0.31013(16) 0.94830(12) 0.98716(5)
O45_6 O 0.63816(10) 0.68987(16) 0.98716(5)
H75_2 H 0.714647 0.987651 0.324231
H67_6 H 0.00347849 0.358398 0.662707
H61_7 H 0.35846 0.989642 0.653967
H61_8 H 0.0103578 0.368818 0.653967
H69_2 H 0.35492 0.996522 0.662707
H74_7 H 0.62696 0.992283 0.645355
H74_8 H 0.00771659 0.634676 0.645355
C57_6 C 0.07284(17) 0.87948(11) 0.34789(6)
H29_6 H 0.064758 0.854685 0.333077
C58_6 C 0.03667(15) 0.86764(10) 0.36943(5)
C59_6 C 0.04846(18) 0.90395(11) 0.39066(6)
H30_6 H 0.023560 0.896081 0.405403
C61_6 C 0.12052(11) 0.92716(17) 0.34789(6)
H31_6 H 0.145315 0.935242 0.333077
C62_6 C 0.13236(10) 0.96333(15) 0.36943(5)
C63_6 C 0.09605(11) 0.95154(18) 0.39066(6)
H32_6 H 0.103919 0.976440 0.405403
H77_5 H 0.273004 0.987651 0.324231
H77_6 H 0.0123493 0.726996 0.324231
N3_6 N 0.97259(5) 0.02741(5) 0.96347(6)
H7_6 H 0.879780 0.010020 0.966179
H21_6 H 0.989980 0.120220 0.966179
loop_
_geom_bond_atom_site_label_1
_geom_bond_atom_site_label_2
_geom_bond_site_symmetry_1
_geom_bond_site_symmetry_2
Sc1 O2 1_555 1_555
Sc2 O1 1_555 1_555
O1 C9 1_555 1_555
O2 C9 1_555 1_555
O3 C14 1_555 1_555
O4 Sc1 1_555 1_555
O5 Sc2 1_555 1_555
O6 Sc1 1_555 1_555
O7 Sc1 1_555 1_555
O8 Sc1 1_555 1_555
O9 Sc2 1_555 1_555
N1 C1 1_555 1_555
N2 C1 1_555 1_555
N3 C15 1_555 1_555
C1 C3 1_555 1_555
C2 N2 1_555 1_555
C3 C4 1_555 1_555
C4 H1 1_555 1_555
C5 C4 1_555 1_555
H2 C5 1_555 1_555
C6 C5 1_555 1_555
C7 C6 1_555 1_555
H3 C7 1_555 1_555
C8 C3 1_555 1_555
H4 C8 1_555 1_555
C9 C6 1_555 1_555
C10 C2 1_555 1_555
C11 C10 1_555 1_555
H5 C11 1_555 1_555
C12 C11 1_555 1_555
H6 C12 1_555 1_555
C13 C12 1_555 1_555
C14 C13 1_555 1_555
C15 C16 1_555 1_555
C16 C17 1_555 1_555
C17 H7 1_555 1_555
C18 C17 1_555 1_555
H8 C18 1_555 1_555
C19 C18 1_555 1_555
C20 O4 1_555 1_555
C21 H9 1_555 1_555
C22 C21 1_555 1_555
C23 C22 1_555 1_555
H10 C23 1_555 1_555
C24 O5 1_555 1_555
O10 C32 1_555 1_555
O11 C32 1_555 1_555
O12 C14 1_555 1_555
N4 C2 1_555 1_555
C25 N1 1_555 1_555
C26 C25 1_555 1_555
C27 C26 1_555 1_555
H11 C27 1_555 1_555
C28 C27 1_555 1_555
H12 C28 1_555 1_555
C29 C28 1_555 1_555
C30 C29 1_555 1_555
H13 C30 1_555 1_555
C31 C26 1_555 1_555
H14 C31 1_555 1_555
C32 C29 1_555 1_555
C33 C10 1_555 1_555
H15 C33 1_555 1_555
C34 C13 1_555 1_555
H16 C34 1_555 1_555
O13 C40 1_555 1_555
N5 C35 1_555 1_555
C35 N3 1_555 1_555
C36 C35 1_555 1_555
C37 C36 1_555 1_555
H17 C37 1_555 1_555
C38 C37 1_555 1_555
H18 C38 1_555 1_555
C39 C38 1_555 1_555
C40 C39 1_555 1_555
O14 C46 1_555 1_555
N6 C15 1_555 1_555
C41 N5 1_555 1_555
C42 C41 1_555 1_555
C43 C42 1_555 1_555
H19 C43 1_555 1_555
C44 C43 1_555 1_555
H20 C44 1_555 1_555
C45 C44 1_555 1_555
C46 C45 1_555 1_555
O15 C40 1_555 1_555
C47 C36 1_555 1_555
H21 C47 1_555 1_555
C48 C39 1_555 1_555
H22 C48 1_555 1_555
O16 C46 1_555 1_555
C49 C42 1_555 1_555
H23 C49 1_555 1_555
C50 C45 1_555 1_555
H24 C50 1_555 1_555
O17 C20 1_555 1_555
C51 C16 1_555 1_555
H25 C51 1_555 1_555
C52 C19 1_555 1_555
H26 C52 1_555 1_555
C53 C21 1_555 1_555
H27 C53 1_555 1_555
C54 C53 1_555 1_555
C55 C23 1_555 1_555
H28 C55 1_555 1_555
O25 Sc2 1_555 1_555
O26 C64 1_555 1_555
C64 O25 1_555 1_555
Sc9 O6 1_555 1_555
O42 Sc2 1_555 1_555
O43 Sc9 1_555 1_555
O44 C110 1_555 1_555
O45 Sc9 1_555 1_555
N10 C97 1_555 1_555
N11 C97 1_555 1_555
C97 C99 1_555 1_555
C98 N11 1_555 1_555
C99 C100 1_555 1_555
C100 H49 1_555 1_555
C101 C100 1_555 1_555
H50 C101 1_555 1_555
C102 C101 1_555 1_555
C103 C102 1_555 1_555
H51 C103 1_555 1_555
C104 C99 1_555 1_555
H52 C104 1_555 1_555
C105 O42 1_555 1_555
C106 C98 1_555 1_555
C107 C106 1_555 1_555
H53 C107 1_555 1_555
C108 C107 1_555 1_555
H54 C108 1_555 1_555
C109 C108 1_555 1_555
C110 C109 1_555 1_555
O46 C118 1_555 1_555
O47 C118 1_555 1_555
O48 C110 1_555 1_555
N12 C98 1_555 1_555
C111 N10 1_555 1_555
C112 C111 1_555 1_555
C113 C112 1_555 1_555
H55 C113 1_555 1_555
C114 C113 1_555 1_555
H56 C114 1_555 1_555
C115 C114 1_555 1_555
C116 C115 1_555 1_555
H57 C116 1_555 1_555
C117 C112 1_555 1_555
H58 C117 1_555 1_555
C118 C115 1_555 1_555
C119 C106 1_555 1_555
H59 C119 1_555 1_555
C120 C109 1_555 1_555
H60 C120 1_555 1_555
Sc11 O13 1_555 1_555
Sc12 O14 1_555 1_555
Sc13 O11 1_555 1_555
Sc14 O16 1_555 1_555
Sc16 O48 1_555 1_555
Sc17 O3 1_555 1_555
Sc18 O44 1_555 1_555
Sc19 O12 1_555 1_555
Sc22 O10 1_555 1_555
Sc23 O46 1_555 1_555
O56 Sc1 1_555 1_555
O59 Sc9 1_555 1_555
Sc2 O6 1_555 1_555
O7 C24 1_555 1_555
C7 C8 1_555 1_555
C19 C20 1_555 1_555
C22 C24 1_555 1_555
N4 C25 1_555 1_555
C30 C31 1_555 1_555
C33 C34 1_555 1_555
N6 C41 1_555 1_555
O15 Sc13 1_555 1_555
C47 C48 1_555 1_555
C49 C50 1_555 1_555
O17 Sc9 1_555 1_555
C51 C52 1_555 1_555
C54 C55 1_555 1_555
O26 Sc9 1_555 1_555
O43 C105 1_555 1_555
C102 C105 1_555 1_555
C103 C104 1_555 1_555
O47 Sc12 1_555 1_555
N12 C111 1_555 1_555
C116 C117 1_555 1_555
C119 C120 1_555 1_555
O18 C56 1_555 1_555
O19 C56 1_555 1_555
Sc12 O28 1_555 1_555
Sc23 O18 1_555 1_555
O27 Sc23 1_555 1_555
O28 Sc23 1_555 1_555
O29 Sc12 1_555 1_555
O30 Sc12 1_555 1_555
O31 Sc23 1_555 1_555
C68 O27 1_555 1_555
Sc14 O19 1_555 1_555
O35 Sc23 1_555 1_555
O36 Sc14 1_555 1_555
O37 C86 1_555 1_555
O38 Sc14 1_555 1_555
N7 C73 1_555 1_555
N8 C73 1_555 1_555
C73 C75 1_555 1_555
C74 N8 1_555 1_555
C75 C76 1_555 1_555
C76 H37 1_555 1_555
C77 C76 1_555 1_555
H38 C77 1_555 1_555
C78 C77 1_555 1_555
C79 C78 1_555 1_555
H39 C79 1_555 1_555
C80 C75 1_555 1_555
H40 C80 1_555 1_555
C81 O35 1_555 1_555
C82 C74 1_555 1_555
C83 C82 1_555 1_555
H41 C83 1_555 1_555
C84 C83 1_555 1_555
H42 C84 1_555 1_555
C85 C84 1_555 1_555
C86 C85 1_555 1_555
O39 C94 1_555 1_555
O40 C94 1_555 1_555
O41 C86 1_555 1_555
N9 C74 1_555 1_555
C87 N7 1_555 1_555
C88 C87 1_555 1_555
C89 C88 1_555 1_555
H43 C89 1_555 1_555
C90 C89 1_555 1_555
H44 C90 1_555 1_555
C91 C90 1_555 1_555
C92 C91 1_555 1_555
H45 C92 1_555 1_555
C93 C88 1_555 1_555
H46 C93 1_555 1_555
C94 C91 1_555 1_555
C95 C82 1_555 1_555
H47 C95 1_555 1_555
C96 C85 1_555 1_555
H48 C96 1_555 1_555
Sc11 O40 1_555 1_555
Sc15 O41 1_555 1_555
Sc20 O37 1_555 1_555
Sc22 O39 1_555 1_555
O55 Sc12 1_555 1_555
O58 Sc14 1_555 1_555
O28 Sc14 1_555 1_555
O29 C68 1_555 1_555
O36 C81 1_555 1_555
C78 C81 1_555 1_555
C79 C80 1_555 1_555
N9 C87 1_555 1_555
C92 C93 1_555 1_555
C95 C96 1_555 1_555
Sc11 O21 1_555 1_555
Sc22 O20 1_555 1_555
O20 C60 1_555 1_555
O21 Sc22 1_555 1_555
O22 Sc11 1_555 1_555
O23 Sc11 1_555 1_555
O24 Sc22 1_555 1_555
C60 O22 1_555 1_555
C65 H33 1_555 1_555
C66 C65 1_555 1_555
C67 C66 1_555 1_555
H34 C67 1_555 1_555
O32 Sc22 1_555 1_555
O33 C72 1_555 1_555
C69 C65 1_555 1_555
H35 C69 1_555 1_555
C70 C69 1_555 1_555
C71 C67 1_555 1_555
H36 C71 1_555 1_555
C72 O32 1_555 1_555
Sc13 O21 1_555 1_555
O34 Sc13 1_555 1_555
O57 Sc11 1_555 1_555
O60 Sc13 1_555 1_555
O33 Sc13 1_555 1_555
C70 C71 1_555 1_555
C70 C72 1_555 1_555
O13_2 C40_2 1_555 1_555
N5_2 C35_2 1_555 1_555
C36_2 C35_2 1_555 1_555
C37_2 C36_2 1_555 1_555
H17_2 C37_2 1_555 1_555
C38_2 C37_2 1_555 1_555
H18_2 C38_2 1_555 1_555
C39_2 C38_2 1_555 1_555
C40_2 C39_2 1_555 1_555
O15_2 C40_2 1_555 1_555
C47_2 C36_2 1_555 1_555
C48_2 C39_2 1_555 1_555
H22_2 C48_2 1_555 1_555
C47_2 C48_2 1_555 1_555
O10_2 C32_2 1_555 1_555
O11_2 C32_2 1_555 1_555
H11_2 C27_2 1_555 1_555
C28_2 C27_2 1_555 1_555
H12_2 C28_2 1_555 1_555
C29_2 C28_2 1_555 1_555
C32_2 C29_2 1_555 1_555
Sc13_2 O11_2 1_555 1_555
Sc22_2 O10_2 1_555 1_555
O55 C14_2 1_555 1_555
N1_2 C1_2 1_555 1_555
N2_2 C1_2 1_555 1_555
C1_2 C3_2 1_555 1_555
C2_2 N2_2 1_555 1_555
H3_2 C7_2 1_555 1_555
C8_2 C3_2 1_555 1_555
H4_2 C8_2 1_555 1_555
C10_2 C2_2 1_555 1_555
C11_2 C10_2 1_555 1_555
H5_2 C11_2 1_555 1_555
C12_2 C11_2 1_555 1_555
H6_2 C12_2 1_555 1_555
C13_2 C12_2 1_555 1_555
C14_2 C13_2 1_555 1_555
O58 C14_2 1_555 1_555
N4_2 C2_2 1_555 1_555
C25_2 N1_2 1_555 1_555
C26_2 C25_2 1_555 1_555
H13_2 C30_2 1_555 1_555
C31_2 C26_2 1_555 1_555
H14_2 C31_2 1_555 1_555
C33_2 C10_2 1_555 1_555
H15_2 C33_2 1_555 1_555
C34_2 C13_2 1_555 1_555
H16_2 C34_2 1_555 1_555
O59 C86_2 1_555 1_555
N7_2 C73_2 1_555 1_555
N8_2 C73_2 1_555 1_555
C73_2 C75_2 1_555 1_555
C74_2 N8_2 1_555 1_555
H39_2 C79_2 1_555 1_555
C80_2 C75_2 1_555 1_555
H40_2 C80_2 1_555 1_555
C82_2 C74_2 1_555 1_555
C83_2 C82_2 1_555 1_555
H41_2 C83_2 1_555 1_555
C84_2 C83_2 1_555 1_555
H42_2 C84_2 1_555 1_555
C85_2 C84_2 1_555 1_555
C86_2 C85_2 1_555 1_555
O39_2 C94_2 1_555 1_555
O40_2 C94_2 1_555 1_555
O56 C86_2 1_555 1_555
N9_2 C74_2 1_555 1_555
C87_2 N7_2 1_555 1_555
C88_2 C87_2 1_555 1_555
C89_2 C88_2 1_555 1_555
H43_2 C89_2 1_555 1_555
C90_2 C89_2 1_555 1_555
H44_2 C90_2 1_555 1_555
C91_2 C90_2 1_555 1_555
C92_2 C91_2 1_555 1_555
H45_2 C92_2 1_555 1_555
C93_2 C88_2 1_555 1_555
H46_2 C93_2 1_555 1_555
C94_2 C91_2 1_555 1_555
C95_2 C82_2 1_555 1_555
H47_2 C95_2 1_555 1_555
C96_2 C85_2 1_555 1_555
H48_2 C96_2 1_555 1_555
Sc11_2 O40_2 1_555 1_555
Sc22_2 O39_2 1_555 1_555
C7_2 C8_2 1_555 1_555
N4_2 C25_2 1_555 1_555
C30_2 C31_2 1_555 1_555
C33_2 C34_2 1_555 1_555
C79_2 C80_2 1_555 1_555
N9_2 C87_2 1_555 1_555
C92_2 C93_2 1_555 1_555
C95_2 C96_2 1_555 1_555
O14_2 C46_2 1_555 1_555
C42_2 C41_2 1_555 1_555
C43_2 C42_2 1_555 1_555
C44_2 C43_2 1_555 1_555
H20_2 C44_2 1_555 1_555
C45_2 C44_2 1_555 1_555
C46_2 C45_2 1_555 1_555
O16_2 C46_2 1_555 1_555
C49_2 C42_2 1_555 1_555
C50_2 C45_2 1_555 1_555
H24_2 C50_2 1_555 1_555
C49_2 C50_2 1_555 1_555
O46_2 C118_2 1_555 1_555
O47_2 C118_2 1_555 1_555
H55_2 C113_2 1_555 1_555
C114_2 C113_2 1_555 1_555
H56_2 C114_2 1_555 1_555
C115_2 C114_2 1_555 1_555
C118_2 C115_2 1_555 1_555
Sc23_2 O46_2 1_555 1_555
O47_2 Sc12_2 1_555 1_555
C15_2 C16_2 1_555 1_555
C16_2 C17_2 1_555 1_555
C18_2 C17_2 1_555 1_555
H8_2 C18_2 1_555 1_555
C19_2 C18_2 1_555 1_555
C20_2 O4_2 1_555 1_555
N6_2 C15_2 1_555 1_555
O17_2 C20_2 1_555 1_555
C51_2 C16_2 1_555 1_555
H25_2 C51_2 1_555 1_555
C52_2 C19_2 1_555 1_555
H26_2 C52_2 1_555 1_555
C19_2 C20_2 1_555 1_555
C51_2 C52_2 1_555 1_555
Sc1_2 O2_2 1_555 1_555
Sc2_2 O1_2 1_555 1_555
O1_2 C9_2 1_555 1_555
O2_2 C9_2 1_555 1_555
O5_2 Sc2_2 1_555 1_555
O6_2 Sc1_2 1_555 1_555
O7_2 Sc1_2 1_555 1_555
O9_2 Sc2_2 1_555 1_555
C4_2 H1_2 1_555 1_555
C5_2 C4_2 1_555 1_555
H2_2 C5_2 1_555 1_555
C6_2 C5_2 1_555 1_555
C9_2 C6_2 1_555 1_555
C22_2 C21_2 1_555 1_555
C23_2 C22_2 1_555 1_555
H10_2 C23_2 1_555 1_555
C24_2 O5_2 1_555 1_555
O18_2 C56_2 1_555 1_555
O19_2 C56_2 1_555 1_555
C53_2 C21_2 1_555 1_555
C54_2 C53_2 1_555 1_555
C55_2 C23_2 1_555 1_555
H28_2 C55_2 1_555 1_555
C56_2 C54_2 1_555 1_555
Sc11_2 O21_2 1_555 1_555
Sc22_2 O20_2 1_555 1_555
O20_2 C60_2 1_555 1_555
O21_2 Sc22_2 1_555 1_555
O22_2 Sc11_2 1_555 1_555
O24_2 Sc22_2 1_555 1_555
C58 C57 1_555 1_555
C59 C58 1_555 1_555
H30 C59 1_555 1_555
C60_2 O22_2 1_555 1_555
O25_2 Sc2_2 1_555 1_555
O26_2 C64_2 1_555 1_555
C61 C57 1_555 1_555
C62 C61 1_555 1_555
C63 C59 1_555 1_555
H32 C63 1_555 1_555
C64_2 O25_2 1_555 1_555
Sc12_2 O28_2 1_555 1_555
Sc23_2 O18_2 1_555 1_555
O27_2 Sc23_2 1_555 1_555
O28_2 Sc23_2 1_555 1_555
O29_2 Sc12_2 1_555 1_555
O31_2 Sc23_2 1_555 1_555
C66_2 C65_2 1_555 1_555
C67_2 C66_2 1_555 1_555
H34_2 C67_2 1_555 1_555
C68_2 O27_2 1_555 1_555
O32_2 Sc22_2 1_555 1_555
O33_2 C72_2 1_555 1_555
C69_2 C65_2 1_555 1_555
C70_2 C69_2 1_555 1_555
C71_2 C67_2 1_555 1_555
H36_2 C71_2 1_555 1_555
C72_2 O32_2 1_555 1_555
Sc13_2 O21_2 1_555 1_555
Sc14_2 O19_2 1_555 1_555
O35_2 Sc23_2 1_555 1_555
O36_2 Sc14_2 1_555 1_555
C76_2 H37_2 1_555 1_555
C77_2 C76_2 1_555 1_555
H38_2 C77_2 1_555 1_555
C78_2 C77_2 1_555 1_555
C81_2 O35_2 1_555 1_555
Sc9_2 O6_2 1_555 1_555
O42_2 Sc2_2 1_555 1_555
O43_2 Sc9_2 1_555 1_555
O60 C110_2 1_555 1_555
N10_2 C97_2 1_555 1_555
N11_2 C97_2 1_555 1_555
C97_2 C99_2 1_555 1_555
C98_2 N11_2 1_555 1_555
C99_2 C100_2 1_555 1_555
C100_2 H49_2 1_555 1_555
C101_2 C100_2 1_555 1_555
H50_2 C101_2 1_555 1_555
C102_2 C101_2 1_555 1_555
C103_2 C102_2 1_555 1_555
H51_2 C103_2 1_555 1_555
C104_2 C99_2 1_555 1_555
H52_2 C104_2 1_555 1_555
C105_2 O42_2 1_555 1_555
C106_2 C98_2 1_555 1_555
C107_2 C106_2 1_555 1_555
H53_2 C107_2 1_555 1_555
C108_2 C107_2 1_555 1_555
H54_2 C108_2 1_555 1_555
C109_2 C108_2 1_555 1_555
C110_2 C109_2 1_555 1_555
O57 C110_2 1_555 1_555
N12_2 C98_2 1_555 1_555
C111_2 N10_2 1_555 1_555
C112_2 C111_2 1_555 1_555
H57_2 C116_2 1_555 1_555
C117_2 C112_2 1_555 1_555
H58_2 C117_2 1_555 1_555
C119_2 C106_2 1_555 1_555
H59_2 C119_2 1_555 1_555
C120_2 C109_2 1_555 1_555
H60_2 C120_2 1_555 1_555
Sc2_2 O6_2 1_555 1_555
O7_2 C24_2 1_555 1_555
C22_2 C24_2 1_555 1_555
C54_2 C55_2 1_555 1_555
C58 C60_2 1_555 1_555
O26_2 Sc9_2 1_555 1_555
C62 C63 1_555 1_555
C62 C64_2 1_555 1_555
O28_2 Sc14_2 1_555 1_555
O29_2 C68_2 1_555 1_555
C66_2 C68_2 1_555 1_555
O33_2 Sc13_2 1_555 1_555
C70_2 C71_2 1_555 1_555
C70_2 C72_2 1_555 1_555
O36_2 C81_2 1_555 1_555
C78_2 C81_2 1_555 1_555
O43_2 C105_2 1_555 1_555
C102_2 C105_2 1_555 1_555
C103_2 C104_2 1_555 1_555
N12_2 C111_2 1_555 1_555
C116_2 C117_2 1_555 1_555
C119_2 C120_2 1_555 1_555
O10_3 C32_3 1_555 1_555
O11_3 C32_3 1_555 1_555
Sc18 O11_3 1_555 1_555
Sc22_3 O10_3 1_555 1_555
O39_3 C94_3 1_555 1_555
O40_3 C94_3 1_555 1_555
Sc16 O40_3 1_555 1_555
Sc22_3 O39_3 1_555 1_555
O55_2 C14_3 1_555 1_555
N1_3 C1_3 1_555 1_555
N2_3 C1_3 1_555 1_555
N3_2 C15_3 1_555 1_555
C1_3 C3_3 1_555 1_555
C2_3 N2_3 1_555 1_555
C3_3 C4_3 1_555 1_555
C4_3 H1_3 1_555 1_555
C5_3 C4_3 1_555 1_555
H2_3 C5_3 1_555 1_555
C6_3 C5_3 1_555 1_555
C7_3 C6_3 1_555 1_555
H3_3 C7_3 1_555 1_555
C8_3 C3_3 1_555 1_555
H4_3 C8_3 1_555 1_555
C10_3 C2_3 1_555 1_555
C11_3 C10_3 1_555 1_555
H5_3 C11_3 1_555 1_555
C12_3 C11_3 1_555 1_555
H6_3 C12_3 1_555 1_555
C13_3 C12_3 1_555 1_555
C14_3 C13_3 1_555 1_555
C15_3 C16_3 1_555 1_555
C16_3 C17_3 1_555 1_555
C17_3 H7_2 1_555 1_555
C18_3 C17_3 1_555 1_555
H8_3 C18_3 1_555 1_555
C19_3 C18_3 1_555 1_555
C20_3 O4_3 1_555 1_555
O58_2 C14_3 1_555 1_555
N4_3 C2_3 1_555 1_555
C25_3 N1_3 1_555 1_555
C26_3 C25_3 1_555 1_555
C27_3 C26_3 1_555 1_555
H11_3 C27_3 1_555 1_555
C28_3 C27_3 1_555 1_555
H12_3 C28_3 1_555 1_555
C29_3 C28_3 1_555 1_555
C30_3 C29_3 1_555 1_555
H13_3 C30_3 1_555 1_555
C31_3 C26_3 1_555 1_555
H14_3 C31_3 1_555 1_555
C33_3 C10_3 1_555 1_555
H15_3 C33_3 1_555 1_555
C34_3 C13_3 1_555 1_555
H16_3 C34_3 1_555 1_555
O13_3 C40_3 1_555 1_555
N5_3 C35_3 1_555 1_555
C35_3 N3_2 1_555 1_555
C36_3 C35_3 1_555 1_555
C37_3 C36_3 1_555 1_555
H17_3 C37_3 1_555 1_555
C38_3 C37_3 1_555 1_555
H18_3 C38_3 1_555 1_555
C39_3 C38_3 1_555 1_555
C40_3 C39_3 1_555 1_555
O14_3 C46_3 1_555 1_555
N6_3 C15_3 1_555 1_555
C41_3 N5_3 1_555 1_555
C42_3 C41_3 1_555 1_555
C43_3 C42_3 1_555 1_555
H19_3 C43_3 1_555 1_555
C44_3 C43_3 1_555 1_555
H20_3 C44_3 1_555 1_555
C45_3 C44_3 1_555 1_555
C46_3 C45_3 1_555 1_555
O15_3 C40_3 1_555 1_555
C47_3 C36_3 1_555 1_555
H21_2 C47_3 1_555 1_555
C48_3 C39_3 1_555 1_555
H22_3 C48_3 1_555 1_555
O16_3 C46_3 1_555 1_555
C49_3 C42_3 1_555 1_555
H23_3 C49_3 1_555 1_555
C50_3 C45_3 1_555 1_555
H24_3 C50_3 1_555 1_555
O17_3 C20_3 1_555 1_555
C51_3 C16_3 1_555 1_555
H25_3 C51_3 1_555 1_555
C52_3 C19_3 1_555 1_555
H26_3 C52_3 1_555 1_555
O60_2 C110_3 1_555 1_555
N10_3 C97_3 1_555 1_555
N11_3 C97_3 1_555 1_555
C97_3 C99_3 1_555 1_555
C98_3 N11_3 1_555 1_555
C99_3 C100_3 1_555 1_555
C100_3 H49_3 1_555 1_555
C101_3 C100_3 1_555 1_555
H50_3 C101_3 1_555 1_555
C102_3 C101_3 1_555 1_555
C103_3 C102_3 1_555 1_555
H51_3 C103_3 1_555 1_555
C104_3 C99_3 1_555 1_555
H52_3 C104_3 1_555 1_555
C106_3 C98_3 1_555 1_555
C107_3 C106_3 1_555 1_555
H53_3 C107_3 1_555 1_555
C108_3 C107_3 1_555 1_555
H54_3 C108_3 1_555 1_555
C109_3 C108_3 1_555 1_555
C110_3 C109_3 1_555 1_555
O46_3 C118_3 1_555 1_555
O47_3 C118_3 1_555 1_555
O57_2 C110_3 1_555 1_555
N12_3 C98_3 1_555 1_555
C111_3 N10_3 1_555 1_555
C112_3 C111_3 1_555 1_555
C113_3 C112_3 1_555 1_555
H55_3 C113_3 1_555 1_555
C114_3 C113_3 1_555 1_555
H56_3 C114_3 1_555 1_555
C115_3 C114_3 1_555 1_555
C116_3 C115_3 1_555 1_555
H57_3 C116_3 1_555 1_555
C117_3 C112_3 1_555 1_555
H58_3 C117_3 1_555 1_555
C118_3 C115_3 1_555 1_555
C119_3 C106_3 1_555 1_555
H59_3 C119_3 1_555 1_555
C120_3 C109_3 1_555 1_555
H60_3 C120_3 1_555 1_555
Sc17 O14_3 1_555 1_555
Sc19 O16_3 1_555 1_555
Sc23_3 O46_3 1_555 1_555
C7_3 C8_3 1_555 1_555
C19_3 C20_3 1_555 1_555
N4_3 C25_3 1_555 1_555
C30_3 C31_3 1_555 1_555
C33_3 C34_3 1_555 1_555
N6_3 C41_3 1_555 1_555
C47_3 C48_3 1_555 1_555
C49_3 C50_3 1_555 1_555
C51_3 C52_3 1_555 1_555
C103_3 C104_3 1_555 1_555
O47_3 Sc17 1_555 1_555
N12_3 C111_3 1_555 1_555
C116_3 C117_3 1_555 1_555
C119_3 C120_3 1_555 1_555
Sc15 O2_3 1_555 1_555
Sc2_3 O1_3 1_555 1_555
O1_3 C9_3 1_555 1_555
O2_3 C9_3 1_555 1_555
O5_3 Sc2_3 1_555 1_555
O6_3 Sc15 1_555 1_555
O7_3 Sc15 1_555 1_555
O8_3 Sc15 1_555 1_555
O9_3 Sc2_3 1_555 1_555
C21_3 H9_3 1_555 1_555
C22_3 C21_3 1_555 1_555
C23_3 C22_3 1_555 1_555
H10_3 C23_3 1_555 1_555
C24_3 O5_3 1_555 1_555
O18_3 C56_3 1_555 1_555
O19_3 C56_3 1_555 1_555
C53_3 C21_3 1_555 1_555
H27_3 C53_3 1_555 1_555
C54_3 C53_3 1_555 1_555
C55_3 C23_3 1_555 1_555
H28_3 C55_3 1_555 1_555
C56_3 C54_3 1_555 1_555
Sc16 O21_3 1_555 1_555
Sc22_3 O20_3 1_555 1_555
O20_3 C60_3 1_555 1_555
O21_3 Sc22_3 1_555 1_555
O22_3 Sc16 1_555 1_555
O23_3 Sc16 1_555 1_555
O24_3 Sc22_3 1_555 1_555
C57_2 H29_2 1_555 1_555
C58_2 C57_2 1_555 1_555
C59_2 C58_2 1_555 1_555
H30_2 C59_2 1_555 1_555
C60_3 O22_3 1_555 1_555
O25_3 Sc2_3 1_555 1_555
O26_3 C64_3 1_555 1_555
C61_2 C57_2 1_555 1_555
H31_2 C61_2 1_555 1_555
C62_2 C61_2 1_555 1_555
C63_2 C59_2 1_555 1_555
H32_2 C63_2 1_555 1_555
C64_3 O25_3 1_555 1_555
Sc17 O28_3 1_555 1_555
Sc23_3 O18_3 1_555 1_555
O27_3 Sc23_3 1_555 1_555
O28_3 Sc23_3 1_555 1_555
O29_3 Sc17 1_555 1_555
O30_3 Sc17 1_555 1_555
O31_3 Sc23_3 1_555 1_555
C65_3 H33_3 1_555 1_555
C66_3 C65_3 1_555 1_555
C67_3 C66_3 1_555 1_555
H34_3 C67_3 1_555 1_555
C68_3 O27_3 1_555 1_555
O32_3 Sc22_3 1_555 1_555
O33_3 C72_3 1_555 1_555
C69_3 C65_3 1_555 1_555
H35_3 C69_3 1_555 1_555
C70_3 C69_3 1_555 1_555
C71_3 C67_3 1_555 1_555
H36_3 C71_3 1_555 1_555
C72_3 O32_3 1_555 1_555
Sc18 O21_3 1_555 1_555
O34_3 Sc18 1_555 1_555
Sc19 O19_3 1_555 1_555
O35_3 Sc23_3 1_555 1_555
O36_3 Sc19 1_555 1_555
O59_2 C86_3 1_555 1_555
O38_3 Sc19 1_555 1_555
N7_3 C73_3 1_555 1_555
N8_3 C73_3 1_555 1_555
C73_3 C75_3 1_555 1_555
C74_3 N8_3 1_555 1_555
C75_3 C76_3 1_555 1_555
C76_3 H37_3 1_555 1_555
C77_3 C76_3 1_555 1_555
H38_3 C77_3 1_555 1_555
C78_3 C77_3 1_555 1_555
C79_3 C78_3 1_555 1_555
H39_3 C79_3 1_555 1_555
C80_3 C75_3 1_555 1_555
H40_3 C80_3 1_555 1_555
C81_3 O35_3 1_555 1_555
C82_3 C74_3 1_555 1_555
C83_3 C82_3 1_555 1_555
H41_3 C83_3 1_555 1_555
C84_3 C83_3 1_555 1_555
H42_3 C84_3 1_555 1_555
C85_3 C84_3 1_555 1_555
C86_3 C85_3 1_555 1_555
O56_2 C86_3 1_555 1_555
N9_3 C74_3 1_555 1_555
C87_3 N7_3 1_555 1_555
C88_3 C87_3 1_555 1_555
C89_3 C88_3 1_555 1_555
H43_3 C89_3 1_555 1_555
C90_3 C89_3 1_555 1_555
H44_3 C90_3 1_555 1_555
C91_3 C90_3 1_555 1_555
C92_3 C91_3 1_555 1_555
H45_3 C92_3 1_555 1_555
C93_3 C88_3 1_555 1_555
H46_3 C93_3 1_555 1_555
C95_3 C82_3 1_555 1_555
H47_3 C95_3 1_555 1_555
C96_3 C85_3 1_555 1_555
H48_3 C96_3 1_555 1_555
Sc20 O6_3 1_555 1_555
O42_3 Sc2_3 1_555 1_555
O43_3 Sc20 1_555 1_555
O45_3 Sc20 1_555 1_555
C105_3 O42_3 1_555 1_555
Sc2_3 O6_3 1_555 1_555
O7_3 C24_3 1_555 1_555
C22_3 C24_3 1_555 1_555
C54_3 C55_3 1_555 1_555
C58_2 C60_3 1_555 1_555
O26_3 Sc20 1_555 1_555
C62_2 C63_2 1_555 1_555
C62_2 C64_3 1_555 1_555
O28_3 Sc19 1_555 1_555
O29_3 C68_3 1_555 1_555
C66_3 C68_3 1_555 1_555
O33_3 Sc18 1_555 1_555
C70_3 C71_3 1_555 1_555
C70_3 C72_3 1_555 1_555
O36_3 C81_3 1_555 1_555
C78_3 C81_3 1_555 1_555
C79_3 C80_3 1_555 1_555
N9_3 C87_3 1_555 1_555
C92_3 C93_3 1_555 1_555
C95_3 C96_3 1_555 1_555
O43_3 C105_3 1_555 1_555
C57_3 H29_3 1_555 1_555
C58_3 C57_3 1_555 1_555
C59_3 C58_3 1_555 1_555
H30_3 C59_3 1_555 1_555
C61_3 C57_3 1_555 1_555
H31_3 C61_3 1_555 1_555
C62_3 C61_3 1_555 1_555
C63_3 C59_3 1_555 1_555
H32_3 C63_3 1_555 1_555
C62_3 C63_3 1_555 1_555
Sc1_3 O2_4 1_555 1_555
Sc2_4 O1_4 1_555 1_555
O1_4 C9_4 1_555 1_555
O2_4 C9_4 1_555 1_555
O3_2 C14_4 1_555 1_555
O4_4 Sc1_3 1_555 1_555
O5_4 Sc2_4 1_555 1_555
O6_4 Sc1_3 1_555 1_555
O7_4 Sc1_3 1_555 1_555
O8_4 Sc1_3 1_555 1_555
O9_4 Sc2_4 1_555 1_555
N1_4 C1_4 1_555 1_555
N2_4 C1_4 1_555 1_555
N3_4 C15_4 1_555 1_555
C1_4 C3_4 1_555 1_555
C2_4 N2_4 1_555 1_555
C3_4 C4_4 1_555 1_555
C4_4 H1_4 1_555 1_555
C5_4 C4_4 1_555 1_555
H2_4 C5_4 1_555 1_555
C6_4 C5_4 1_555 1_555
C7_4 C6_4 1_555 1_555
H3_4 C7_4 1_555 1_555
C8_4 C3_4 1_555 1_555
H4_4 C8_4 1_555 1_555
C9_4 C6_4 1_555 1_555
C10_4 C2_4 1_555 1_555
C11_4 C10_4 1_555 1_555
H5_4 C11_4 1_555 1_555
C12_4 C11_4 1_555 1_555
H6_4 C12_4 1_555 1_555
C13_4 C12_4 1_555 1_555
C14_4 C13_4 1_555 1_555
C15_4 C16_4 1_555 1_555
C16_4 C17_4 1_555 1_555
C17_4 H7_4 1_555 1_555
C18_4 C17_4 1_555 1_555
H8_4 C18_4 1_555 1_555
C19_4 C18_4 1_555 1_555
C20_4 O4_4 1_555 1_555
C21_4 H9_4 1_555 1_555
C22_4 C21_4 1_555 1_555
C23_4 C22_4 1_555 1_555
H10_4 C23_4 1_555 1_555
C24_4 O5_4 1_555 1_555
O10_4 C32_4 1_555 1_555
O11_4 C32_4 1_555 1_555
O12_2 C14_4 1_555 1_555
N4_4 C2_4 1_555 1_555
C25_4 N1_4 1_555 1_555
C26_4 C25_4 1_555 1_555
C27_4 C26_4 1_555 1_555
H11_4 C27_4 1_555 1_555
C28_4 C27_4 1_555 1_555
H12_4 C28_4 1_555 1_555
C29_4 C28_4 1_555 1_555
C30_4 C29_4 1_555 1_555
H13_4 C30_4 1_555 1_555
C31_4 C26_4 1_555 1_555
H14_4 C31_4 1_555 1_555
C32_4 C29_4 1_555 1_555
C33_4 C10_4 1_555 1_555
H15_4 C33_4 1_555 1_555
C34_4 C13_4 1_555 1_555
H16_4 C34_4 1_555 1_555
O13_4 C40_4 1_555 1_555
N5_4 C35_4 1_555 1_555
C35_4 N3_4 1_555 1_555
C36_4 C35_4 1_555 1_555
C37_4 C36_4 1_555 1_555
H17_4 C37_4 1_555 1_555
C38_4 C37_4 1_555 1_555
H18_4 C38_4 1_555 1_555
C39_4 C38_4 1_555 1_555
C40_4 C39_4 1_555 1_555
O14_4 C46_4 1_555 1_555
N6_4 C15_4 1_555 1_555
C41_4 N5_4 1_555 1_555
C42_4 C41_4 1_555 1_555
C43_4 C42_4 1_555 1_555
H19_4 C43_4 1_555 1_555
C44_4 C43_4 1_555 1_555
H20_4 C44_4 1_555 1_555
C45_4 C44_4 1_555 1_555
C46_4 C45_4 1_555 1_555
O15_4 C40_4 1_555 1_555
C47_4 C36_4 1_555 1_555
H21_4 C47_4 1_555 1_555
C48_4 C39_4 1_555 1_555
H22_4 C48_4 1_555 1_555
O16_4 C46_4 1_555 1_555
C49_4 C42_4 1_555 1_555
H23_4 C49_4 1_555 1_555
C50_4 C45_4 1_555 1_555
H24_4 C50_4 1_555 1_555
O17_4 C20_4 1_555 1_555
C51_4 C16_4 1_555 1_555
H25_4 C51_4 1_555 1_555
C52_4 C19_4 1_555 1_555
H26_4 C52_4 1_555 1_555
C53_4 C21_4 1_555 1_555
H27_4 C53_4 1_555 1_555
C54_4 C53_4 1_555 1_555
C55_4 C23_4 1_555 1_555
H28_4 C55_4 1_555 1_555
O25_4 Sc2_4 1_555 1_555
O26_4 C64_4 1_555 1_555
C64_4 O25_4 1_555 1_555
Sc9_3 O6_4 1_555 1_555
O42_4 Sc2_4 1_555 1_555
O43_4 Sc9_3 1_555 1_555
O44_2 C110_4 1_555 1_555
O45_4 Sc9_3 1_555 1_555
N10_4 C97_4 1_555 1_555
N11_4 C97_4 1_555 1_555
C97_4 C99_4 1_555 1_555
C98_4 N11_4 1_555 1_555
C99_4 C100_4 1_555 1_555
C100_4 H49_4 1_555 1_555
C101_4 C100_4 1_555 1_555
H50_4 C101_4 1_555 1_555
C102_4 C101_4 1_555 1_555
C103_4 C102_4 1_555 1_555
H51_4 C103_4 1_555 1_555
C104_4 C99_4 1_555 1_555
H52_4 C104_4 1_555 1_555
C105_4 O42_4 1_555 1_555
C106_4 C98_4 1_555 1_555
C107_4 C106_4 1_555 1_555
H53_4 C107_4 1_555 1_555
C108_4 C107_4 1_555 1_555
H54_4 C108_4 1_555 1_555
C109_4 C108_4 1_555 1_555
C110_4 C109_4 1_555 1_555
O46_4 C118_4 1_555 1_555
O47_4 C118_4 1_555 1_555
O48_2 C110_4 1_555 1_555
N12_4 C98_4 1_555 1_555
C111_4 N10_4 1_555 1_555
C112_4 C111_4 1_555 1_555
C113_4 C112_4 1_555 1_555
H55_4 C113_4 1_555 1_555
C114_4 C113_4 1_555 1_555
H56_4 C114_4 1_555 1_555
C115_4 C114_4 1_555 1_555
C116_4 C115_4 1_555 1_555
H57_4 C116_4 1_555 1_555
C117_4 C112_4 1_555 1_555
H58_4 C117_4 1_555 1_555
C118_4 C115_4 1_555 1_555
C119_4 C106_4 1_555 1_555
H59_4 C119_4 1_555 1_555
C120_4 C109_4 1_555 1_555
H60_4 C120_4 1_555 1_555
Sc11_3 O13_4 1_555 1_555
Sc12_3 O14_4 1_555 1_555
Sc13_3 O11_4 1_555 1_555
Sc14_3 O16_4 1_555 1_555
Sc16_2 O48_2 1_555 1_555
Sc17_2 O3_2 1_555 1_555
Sc18_2 O44_2 1_555 1_555
Sc19_2 O12_2 1_555 1_555
Sc22_4 O10_4 1_555 1_555
Sc23_4 O46_4 1_555 1_555
O56_3 Sc1_3 1_555 1_555
O59_3 Sc9_3 1_555 1_555
Sc2_4 O6_4 1_555 1_555
O7_4 C24_4 1_555 1_555
C7_4 C8_4 1_555 1_555
C19_4 C20_4 1_555 1_555
C22_4 C24_4 1_555 1_555
N4_4 C25_4 1_555 1_555
C30_4 C31_4 1_555 1_555
C33_4 C34_4 1_555 1_555
N6_4 C41_4 1_555 1_555
O15_4 Sc13_3 1_555 1_555
C47_4 C48_4 1_555 1_555
C49_4 C50_4 1_555 1_555
O17_4 Sc9_3 1_555 1_555
C51_4 C52_4 1_555 1_555
C54_4 C55_4 1_555 1_555
O26_4 Sc9_3 1_555 1_555
O43_4 C105_4 1_555 1_555
C102_4 C105_4 1_555 1_555
C103_4 C104_4 1_555 1_555
O47_4 Sc12_3 1_555 1_555
N12_4 C111_4 1_555 1_555
C116_4 C117_4 1_555 1_555
C119_4 C120_4 1_555 1_555
O18_4 C56_4 1_555 1_555
O19_4 C56_4 1_555 1_555
Sc12_3 O28_4 1_555 1_555
Sc23_4 O18_4 1_555 1_555
O27_4 Sc23_4 1_555 1_555
O28_4 Sc23_4 1_555 1_555
O29_4 Sc12_3 1_555 1_555
O30_4 Sc12_3 1_555 1_555
O31_4 Sc23_4 1_555 1_555
C68_4 O27_4 1_555 1_555
Sc14_3 O19_4 1_555 1_555
O35_4 Sc23_4 1_555 1_555
O36_4 Sc14_3 1_555 1_555
O37_2 C86_4 1_555 1_555
O38_4 Sc14_3 1_555 1_555
N7_4 C73_4 1_555 1_555
N8_4 C73_4 1_555 1_555
C73_4 C75_4 1_555 1_555
C74_4 N8_4 1_555 1_555
C75_4 C76_4 1_555 1_555
C76_4 H37_4 1_555 1_555
C77_4 C76_4 1_555 1_555
H38_4 C77_4 1_555 1_555
C78_4 C77_4 1_555 1_555
C79_4 C78_4 1_555 1_555
H39_4 C79_4 1_555 1_555
C80_4 C75_4 1_555 1_555
H40_4 C80_4 1_555 1_555
C81_4 O35_4 1_555 1_555
C82_4 C74_4 1_555 1_555
C83_4 C82_4 1_555 1_555
H41_4 C83_4 1_555 1_555
C84_4 C83_4 1_555 1_555
H42_4 C84_4 1_555 1_555
C85_4 C84_4 1_555 1_555
C86_4 C85_4 1_555 1_555
O39_4 C94_4 1_555 1_555
O40_4 C94_4 1_555 1_555
O41_2 C86_4 1_555 1_555
N9_4 C74_4 1_555 1_555
C87_4 N7_4 1_555 1_555
C88_4 C87_4 1_555 1_555
C89_4 C88_4 1_555 1_555
H43_4 C89_4 1_555 1_555
C90_4 C89_4 1_555 1_555
H44_4 C90_4 1_555 1_555
C91_4 C90_4 1_555 1_555
C92_4 C91_4 1_555 1_555
H45_4 C92_4 1_555 1_555
C93_4 C88_4 1_555 1_555
H46_4 C93_4 1_555 1_555
C94_4 C91_4 1_555 1_555
C95_4 C82_4 1_555 1_555
H47_4 C95_4 1_555 1_555
C96_4 C85_4 1_555 1_555
H48_4 C96_4 1_555 1_555
Sc11_3 O40_4 1_555 1_555
Sc15_2 O41_2 1_555 1_555
Sc20_2 O37_2 1_555 1_555
Sc22_4 O39_4 1_555 1_555
O55_3 Sc12_3 1_555 1_555
O58_3 Sc14_3 1_555 1_555
O28_4 Sc14_3 1_555 1_555
O29_4 C68_4 1_555 1_555
O36_4 C81_4 1_555 1_555
C78_4 C81_4 1_555 1_555
C79_4 C80_4 1_555 1_555
N9_4 C87_4 1_555 1_555
C92_4 C93_4 1_555 1_555
C95_4 C96_4 1_555 1_555
Sc11_3 O21_4 1_555 1_555
Sc22_4 O20_4 1_555 1_555
O20_4 C60_4 1_555 1_555
O21_4 Sc22_4 1_555 1_555
O22_4 Sc11_3 1_555 1_555
O23_4 Sc11_3 1_555 1_555
O24_4 Sc22_4 1_555 1_555
C60_4 O22_4 1_555 1_555
C65_4 H33_4 1_555 1_555
C66_4 C65_4 1_555 1_555
C67_4 C66_4 1_555 1_555
H34_4 C67_4 1_555 1_555
O32_4 Sc22_4 1_555 1_555
O33_4 C72_4 1_555 1_555
C69_4 C65_4 1_555 1_555
H35_4 C69_4 1_555 1_555
C70_4 C69_4 1_555 1_555
C71_4 C67_4 1_555 1_555
H36_4 C71_4 1_555 1_555
C72_4 O32_4 1_555 1_555
Sc13_3 O21_4 1_555 1_555
O34_4 Sc13_3 1_555 1_555
O57_3 Sc11_3 1_555 1_555
O60_3 Sc13_3 1_555 1_555
O33_4 Sc13_3 1_555 1_555
C70_4 C71_4 1_555 1_555
C70_4 C72_4 1_555 1_555
O10_5 C32_5 1_555 1_555
O11_5 C32_5 1_555 1_555
Sc18_2 O11_5 1_555 1_555
Sc22_5 O10_5 1_555 1_555
O3_3 C14_5 1_555 1_555
N1_5 C1_5 1_555 1_555
N2_5 C1_5 1_555 1_555
N3_5 C15_5 1_555 1_555
C1_5 C3_5 1_555 1_555
C2_5 N2_5 1_555 1_555
C3_5 C4_5 1_555 1_555
C4_5 H1_5 1_555 1_555
C5_5 C4_5 1_555 1_555
H2_5 C5_5 1_555 1_555
C6_5 C5_5 1_555 1_555
C7_5 C6_5 1_555 1_555
H3_5 C7_5 1_555 1_555
C8_5 C3_5 1_555 1_555
H4_5 C8_5 1_555 1_555
C10_5 C2_5 1_555 1_555
C11_5 C10_5 1_555 1_555
H5_5 C11_5 1_555 1_555
C12_5 C11_5 1_555 1_555
H6_5 C12_5 1_555 1_555
C13_5 C12_5 1_555 1_555
C14_5 C13_5 1_555 1_555
C15_5 C16_5 1_555 1_555
C16_5 C17_5 1_555 1_555
C17_5 H7_5 1_555 1_555
C18_5 C17_5 1_555 1_555
H8_5 C18_5 1_555 1_555
C19_5 C18_5 1_555 1_555
C20_5 O4_5 1_555 1_555
O12_3 C14_5 1_555 1_555
N4_5 C2_5 1_555 1_555
C25_5 N1_5 1_555 1_555
C26_5 C25_5 1_555 1_555
C27_5 C26_5 1_555 1_555
H11_5 C27_5 1_555 1_555
C28_5 C27_5 1_555 1_555
H12_5 C28_5 1_555 1_555
C29_5 C28_5 1_555 1_555
C30_5 C29_5 1_555 1_555
H13_5 C30_5 1_555 1_555
C31_5 C26_5 1_555 1_555
H14_5 C31_5 1_555 1_555
C33_5 C10_5 1_555 1_555
H15_5 C33_5 1_555 1_555
C34_5 C13_5 1_555 1_555
H16_5 C34_5 1_555 1_555
O13_5 C40_5 1_555 1_555
N5_5 C35_5 1_555 1_555
C35_5 N3_5 1_555 1_555
C36_5 C35_5 1_555 1_555
C37_5 C36_5 1_555 1_555
H17_5 C37_5 1_555 1_555
C38_5 C37_5 1_555 1_555
H18_5 C38_5 1_555 1_555
C39_5 C38_5 1_555 1_555
C40_5 C39_5 1_555 1_555
O14_5 C46_5 1_555 1_555
N6_5 C15_5 1_555 1_555
C41_5 N5_5 1_555 1_555
C42_5 C41_5 1_555 1_555
C43_5 C42_5 1_555 1_555
H19_5 C43_5 1_555 1_555
C44_5 C43_5 1_555 1_555
H20_5 C44_5 1_555 1_555
C45_5 C44_5 1_555 1_555
C46_5 C45_5 1_555 1_555
O15_5 C40_5 1_555 1_555
C47_5 C36_5 1_555 1_555
H21_5 C47_5 1_555 1_555
C48_5 C39_5 1_555 1_555
H22_5 C48_5 1_555 1_555
O16_5 C46_5 1_555 1_555
C49_5 C42_5 1_555 1_555
H23_5 C49_5 1_555 1_555
C50_5 C45_5 1_555 1_555
H24_5 C50_5 1_555 1_555
O17_5 C20_5 1_555 1_555
C51_5 C16_5 1_555 1_555
H25_5 C51_5 1_555 1_555
C52_5 C19_5 1_555 1_555
H26_5 C52_5 1_555 1_555
O44_3 C110_5 1_555 1_555
N10_5 C97_5 1_555 1_555
N11_5 C97_5 1_555 1_555
C97_5 C99_5 1_555 1_555
C98_5 N11_5 1_555 1_555
C99_5 C100_5 1_555 1_555
C100_5 H49_5 1_555 1_555
C101_5 C100_5 1_555 1_555
H50_5 C101_5 1_555 1_555
C102_5 C101_5 1_555 1_555
C103_5 C102_5 1_555 1_555
H51_5 C103_5 1_555 1_555
C104_5 C99_5 1_555 1_555
H52_5 C104_5 1_555 1_555
C106_5 C98_5 1_555 1_555
C107_5 C106_5 1_555 1_555
H53_5 C107_5 1_555 1_555
C108_5 C107_5 1_555 1_555
H54_5 C108_5 1_555 1_555
C109_5 C108_5 1_555 1_555
C110_5 C109_5 1_555 1_555
O46_5 C118_5 1_555 1_555
O47_5 C118_5 1_555 1_555
O48_3 C110_5 1_555 1_555
N12_5 C98_5 1_555 1_555
C111_5 N10_5 1_555 1_555
C112_5 C111_5 1_555 1_555
C113_5 C112_5 1_555 1_555
H55_5 C113_5 1_555 1_555
C114_5 C113_5 1_555 1_555
H56_5 C114_5 1_555 1_555
C115_5 C114_5 1_555 1_555
C116_5 C115_5 1_555 1_555
H57_5 C116_5 1_555 1_555
C117_5 C112_5 1_555 1_555
H58_5 C117_5 1_555 1_555
C118_5 C115_5 1_555 1_555
C119_5 C106_5 1_555 1_555
H59_5 C119_5 1_555 1_555
C120_5 C109_5 1_555 1_555
H60_5 C120_5 1_555 1_555
Sc17_2 O14_5 1_555 1_555
Sc19_2 O16_5 1_555 1_555
Sc23_5 O46_5 1_555 1_555
C7_5 C8_5 1_555 1_555
C19_5 C20_5 1_555 1_555
N4_5 C25_5 1_555 1_555
C30_5 C31_5 1_555 1_555
C33_5 C34_5 1_555 1_555
N6_5 C41_5 1_555 1_555
C47_5 C48_5 1_555 1_555
C49_5 C50_5 1_555 1_555
C51_5 C52_5 1_555 1_555
C103_5 C104_5 1_555 1_555
O47_5 Sc17_2 1_555 1_555
N12_5 C111_5 1_555 1_555
C116_5 C117_5 1_555 1_555
C119_5 C120_5 1_555 1_555
O39_5 C94_5 1_555 1_555
O40_5 C94_5 1_555 1_555
Sc16_2 O40_5 1_555 1_555
Sc22_5 O39_5 1_555 1_555
Sc15_2 O2_5 1_555 1_555
Sc2_5 O1_5 1_555 1_555
O1_5 C9_5 1_555 1_555
O2_5 C9_5 1_555 1_555
O5_5 Sc2_5 1_555 1_555
O6_5 Sc15_2 1_555 1_555
O7_5 Sc15_2 1_555 1_555
O8_5 Sc15_2 1_555 1_555
O9_5 Sc2_5 1_555 1_555
C21_5 H9_5 1_555 1_555
C22_5 C21_5 1_555 1_555
C23_5 C22_5 1_555 1_555
H10_5 C23_5 1_555 1_555
C24_5 O5_5 1_555 1_555
O18_5 C56_5 1_555 1_555
O19_5 C56_5 1_555 1_555
C53_5 C21_5 1_555 1_555
H27_5 C53_5 1_555 1_555
C54_5 C53_5 1_555 1_555
C55_5 C23_5 1_555 1_555
H28_5 C55_5 1_555 1_555
C56_5 C54_5 1_555 1_555
Sc16_2 O21_5 1_555 1_555
Sc22_5 O20_5 1_555 1_555
O20_5 C60_5 1_555 1_555
O21_5 Sc22_5 1_555 1_555
O22_5 Sc16_2 1_555 1_555
O23_5 Sc16_2 1_555 1_555
O24_5 Sc22_5 1_555 1_555
C57_4 H29_4 1_555 1_555
C58_4 C57_4 1_555 1_555
C59_4 C58_4 1_555 1_555
H30_4 C59_4 1_555 1_555
C60_5 O22_5 1_555 1_555
O25_5 Sc2_5 1_555 1_555
O26_5 C64_5 1_555 1_555
C61_4 C57_4 1_555 1_555
H31_4 C61_4 1_555 1_555
C62_4 C61_4 1_555 1_555
C63_4 C59_4 1_555 1_555
H32_4 C63_4 1_555 1_555
C64_5 O25_5 1_555 1_555
Sc17_2 O28_5 1_555 1_555
Sc23_5 O18_5 1_555 1_555
O27_5 Sc23_5 1_555 1_555
O28_5 Sc23_5 1_555 1_555
O29_5 Sc17_2 1_555 1_555
O30_5 Sc17_2 1_555 1_555
O31_5 Sc23_5 1_555 1_555
C65_5 H33_5 1_555 1_555
C66_5 C65_5 1_555 1_555
C67_5 C66_5 1_555 1_555
H34_5 C67_5 1_555 1_555
C68_5 O27_5 1_555 1_555
O32_5 Sc22_5 1_555 1_555
O33_5 C72_5 1_555 1_555
C69_5 C65_5 1_555 1_555
H35_5 C69_5 1_555 1_555
C70_5 C69_5 1_555 1_555
C71_5 C67_5 1_555 1_555
H36_5 C71_5 1_555 1_555
C72_5 O32_5 1_555 1_555
Sc18_2 O21_5 1_555 1_555
O34_5 Sc18_2 1_555 1_555
Sc19_2 O19_5 1_555 1_555
O35_5 Sc23_5 1_555 1_555
O36_5 Sc19_2 1_555 1_555
O37_3 C86_5 1_555 1_555
O38_5 Sc19_2 1_555 1_555
N7_5 C73_5 1_555 1_555
N8_5 C73_5 1_555 1_555
C73_5 C75_5 1_555 1_555
C74_5 N8_5 1_555 1_555
C75_5 C76_5 1_555 1_555
C76_5 H37_5 1_555 1_555
C77_5 C76_5 1_555 1_555
H38_5 C77_5 1_555 1_555
C78_5 C77_5 1_555 1_555
C79_5 C78_5 1_555 1_555
H39_5 C79_5 1_555 1_555
C80_5 C75_5 1_555 1_555
H40_5 C80_5 1_555 1_555
C81_5 O35_5 1_555 1_555
C82_5 C74_5 1_555 1_555
C83_5 C82_5 1_555 1_555
H41_5 C83_5 1_555 1_555
C84_5 C83_5 1_555 1_555
H42_5 C84_5 1_555 1_555
C85_5 C84_5 1_555 1_555
C86_5 C85_5 1_555 1_555
O41_3 C86_5 1_555 1_555
N9_5 C74_5 1_555 1_555
C87_5 N7_5 1_555 1_555
C88_5 C87_5 1_555 1_555
C89_5 C88_5 1_555 1_555
H43_5 C89_5 1_555 1_555
C90_5 C89_5 1_555 1_555
H44_5 C90_5 1_555 1_555
C91_5 C90_5 1_555 1_555
C92_5 C91_5 1_555 1_555
H45_5 C92_5 1_555 1_555
C93_5 C88_5 1_555 1_555
H46_5 C93_5 1_555 1_555
C95_5 C82_5 1_555 1_555
H47_5 C95_5 1_555 1_555
C96_5 C85_5 1_555 1_555
H48_5 C96_5 1_555 1_555
Sc20_2 O6_5 1_555 1_555
O42_5 Sc2_5 1_555 1_555
O43_5 Sc20_2 1_555 1_555
O45_5 Sc20_2 1_555 1_555
C105_5 O42_5 1_555 1_555
Sc2_5 O6_5 1_555 1_555
O7_5 C24_5 1_555 1_555
C22_5 C24_5 1_555 1_555
C54_5 C55_5 1_555 1_555
C58_4 C60_5 1_555 1_555
O26_5 Sc20_2 1_555 1_555
C62_4 C63_4 1_555 1_555
C62_4 C64_5 1_555 1_555
O28_5 Sc19_2 1_555 1_555
O29_5 C68_5 1_555 1_555
C66_5 C68_5 1_555 1_555
O33_5 Sc18_2 1_555 1_555
C70_5 C71_5 1_555 1_555
C70_5 C72_5 1_555 1_555
O36_5 C81_5 1_555 1_555
C78_5 C81_5 1_555 1_555
C79_5 C80_5 1_555 1_555
N9_5 C87_5 1_555 1_555
C92_5 C93_5 1_555 1_555
C95_5 C96_5 1_555 1_555
O43_5 C105_5 1_555 1_555
O10_6 C32_6 1_555 1_555
O11_6 C32_6 1_555 1_555
H11_6 C27_6 1_555 1_555
C28_6 C27_6 1_555 1_555
H12_6 C28_6 1_555 1_555
C29_6 C28_6 1_555 1_555
C32_6 C29_6 1_555 1_555
Sc18_3 O11_6 1_555 1_555
Sc22_6 O10_6 1_555 1_555
O13_6 C40_6 1_555 1_555
N5_6 C35_6 1_555 1_555
C36_6 C35_6 1_555 1_555
C37_6 C36_6 1_555 1_555
H17_6 C37_6 1_555 1_555
C38_6 C37_6 1_555 1_555
H18_6 C38_6 1_555 1_555
C39_6 C38_6 1_555 1_555
C40_6 C39_6 1_555 1_555
O15_6 C40_6 1_555 1_555
C47_6 C36_6 1_555 1_555
C48_6 C39_6 1_555 1_555
H22_6 C48_6 1_555 1_555
C47_6 C48_6 1_555 1_555
O46_6 C118_6 1_555 1_555
O47_6 C118_6 1_555 1_555
H55_6 C113_6 1_555 1_555
C114_6 C113_6 1_555 1_555
H56_6 C114_6 1_555 1_555
C115_6 C114_6 1_555 1_555
C118_6 C115_6 1_555 1_555
Sc23_6 O46_6 1_555 1_555
O47_6 Sc17_3 1_555 1_555
O14_6 C46_6 1_555 1_555
C42_6 C41_6 1_555 1_555
C43_6 C42_6 1_555 1_555
C44_6 C43_6 1_555 1_555
H20_6 C44_6 1_555 1_555
C45_6 C44_6 1_555 1_555
C46_6 C45_6 1_555 1_555
O16_6 C46_6 1_555 1_555
C49_6 C42_6 1_555 1_555
C50_6 C45_6 1_555 1_555
H24_6 C50_6 1_555 1_555
C49_6 C50_6 1_555 1_555
O55_3 C14_6 1_555 1_555
N1_6 C1_6 1_555 1_555
N2_6 C1_6 1_555 1_555
C1_6 C3_6 1_555 1_555
C2_6 N2_6 1_555 1_555
H3_6 C7_6 1_555 1_555
C8_6 C3_6 1_555 1_555
H4_6 C8_6 1_555 1_555
C10_6 C2_6 1_555 1_555
C11_6 C10_6 1_555 1_555
H5_6 C11_6 1_555 1_555
C12_6 C11_6 1_555 1_555
H6_6 C12_6 1_555 1_555
C13_6 C12_6 1_555 1_555
C14_6 C13_6 1_555 1_555
O58_3 C14_6 1_555 1_555
N4_6 C2_6 1_555 1_555
C25_6 N1_6 1_555 1_555
C26_6 C25_6 1_555 1_555
H13_6 C30_6 1_555 1_555
C31_6 C26_6 1_555 1_555
H14_6 C31_6 1_555 1_555
C33_6 C10_6 1_555 1_555
H15_6 C33_6 1_555 1_555
C34_6 C13_6 1_555 1_555
H16_6 C34_6 1_555 1_555
O59_3 C86_6 1_555 1_555
N7_6 C73_6 1_555 1_555
N8_6 C73_6 1_555 1_555
C73_6 C75_6 1_555 1_555
C74_6 N8_6 1_555 1_555
H39_6 C79_6 1_555 1_555
C80_6 C75_6 1_555 1_555
H40_6 C80_6 1_555 1_555
C82_6 C74_6 1_555 1_555
C83_6 C82_6 1_555 1_555
H41_6 C83_6 1_555 1_555
C84_6 C83_6 1_555 1_555
H42_6 C84_6 1_555 1_555
C85_6 C84_6 1_555 1_555
C86_6 C85_6 1_555 1_555
O39_6 C94_6 1_555 1_555
O40_6 C94_6 1_555 1_555
O56_3 C86_6 1_555 1_555
N9_6 C74_6 1_555 1_555
C87_6 N7_6 1_555 1_555
C88_6 C87_6 1_555 1_555
C89_6 C88_6 1_555 1_555
H43_6 C89_6 1_555 1_555
C90_6 C89_6 1_555 1_555
H44_6 C90_6 1_555 1_555
C91_6 C90_6 1_555 1_555
C92_6 C91_6 1_555 1_555
H45_6 C92_6 1_555 1_555
C93_6 C88_6 1_555 1_555
H46_6 C93_6 1_555 1_555
C94_6 C91_6 1_555 1_555
C95_6 C82_6 1_555 1_555
H47_6 C95_6 1_555 1_555
C96_6 C85_6 1_555 1_555
H48_6 C96_6 1_555 1_555
Sc16_3 O40_6 1_555 1_555
Sc22_6 O39_6 1_555 1_555
C7_6 C8_6 1_555 1_555
N4_6 C25_6 1_555 1_555
C30_6 C31_6 1_555 1_555
C33_6 C34_6 1_555 1_555
C79_6 C80_6 1_555 1_555
N9_6 C87_6 1_555 1_555
C92_6 C93_6 1_555 1_555
C95_6 C96_6 1_555 1_555
Sc15_3 O2_6 1_555 1_555
Sc2_6 O1_6 1_555 1_555
O1_6 C9_6 1_555 1_555
O2_6 C9_6 1_555 1_555
O5_6 Sc2_6 1_555 1_555
O6_6 Sc15_3 1_555 1_555
O7_6 Sc15_3 1_555 1_555
O9_6 Sc2_6 1_555 1_555
C4_6 H1_6 1_555 1_555
C5_6 C4_6 1_555 1_555
H2_6 C5_6 1_555 1_555
C6_6 C5_6 1_555 1_555
C9_6 C6_6 1_555 1_555
C22_6 C21_6 1_555 1_555
C23_6 C22_6 1_555 1_555
H10_6 C23_6 1_555 1_555
C24_6 O5_6 1_555 1_555
O18_6 C56_6 1_555 1_555
O19_6 C56_6 1_555 1_555
C53_6 C21_6 1_555 1_555
C54_6 C53_6 1_555 1_555
C55_6 C23_6 1_555 1_555
H28_6 C55_6 1_555 1_555
C56_6 C54_6 1_555 1_555
Sc16_3 O21_6 1_555 1_555
Sc22_6 O20_6 1_555 1_555
O20_6 C60_6 1_555 1_555
O21_6 Sc22_6 1_555 1_555
O22_6 Sc16_3 1_555 1_555
O24_6 Sc22_6 1_555 1_555
C58_5 C57_5 1_555 1_555
C59_5 C58_5 1_555 1_555
H30_5 C59_5 1_555 1_555
C60_6 O22_6 1_555 1_555
O25_6 Sc2_6 1_555 1_555
O26_6 C64_6 1_555 1_555
C61_5 C57_5 1_555 1_555
C62_5 C61_5 1_555 1_555
C63_5 C59_5 1_555 1_555
H32_5 C63_5 1_555 1_555
C64_6 O25_6 1_555 1_555
Sc17_3 O28_6 1_555 1_555
Sc23_6 O18_6 1_555 1_555
O27_6 Sc23_6 1_555 1_555
O28_6 Sc23_6 1_555 1_555
O29_6 Sc17_3 1_555 1_555
O31_6 Sc23_6 1_555 1_555
C66_6 C65_6 1_555 1_555
C67_6 C66_6 1_555 1_555
H34_6 C67_6 1_555 1_555
C68_6 O27_6 1_555 1_555
O32_6 Sc22_6 1_555 1_555
O33_6 C72_6 1_555 1_555
C69_6 C65_6 1_555 1_555
C70_6 C69_6 1_555 1_555
C71_6 C67_6 1_555 1_555
H36_6 C71_6 1_555 1_555
C72_6 O32_6 1_555 1_555
Sc18_3 O21_6 1_555 1_555
Sc19_3 O19_6 1_555 1_555
O35_6 Sc23_6 1_555 1_555
O36_6 Sc19_3 1_555 1_555
C76_6 H37_6 1_555 1_555
C77_6 C76_6 1_555 1_555
H38_6 C77_6 1_555 1_555
C78_6 C77_6 1_555 1_555
C81_6 O35_6 1_555 1_555
Sc20_3 O6_6 1_555 1_555
O42_6 Sc2_6 1_555 1_555
O43_6 Sc20_3 1_555 1_555
O60_3 C110_6 1_555 1_555
N10_6 C97_6 1_555 1_555
N11_6 C97_6 1_555 1_555
C97_6 C99_6 1_555 1_555
C98_6 N11_6 1_555 1_555
C99_6 C100_6 1_555 1_555
C100_6 H49_6 1_555 1_555
C101_6 C100_6 1_555 1_555
H50_6 C101_6 1_555 1_555
C102_6 C101_6 1_555 1_555
C103_6 C102_6 1_555 1_555
H51_6 C103_6 1_555 1_555
C104_6 C99_6 1_555 1_555
H52_6 C104_6 1_555 1_555
C105_6 O42_6 1_555 1_555
C106_6 C98_6 1_555 1_555
C107_6 C106_6 1_555 1_555
H53_6 C107_6 1_555 1_555
C108_6 C107_6 1_555 1_555
H54_6 C108_6 1_555 1_555
C109_6 C108_6 1_555 1_555
C110_6 C109_6 1_555 1_555
O57_3 C110_6 1_555 1_555
N12_6 C98_6 1_555 1_555
C111_6 N10_6 1_555 1_555
C112_6 C111_6 1_555 1_555
H57_6 C116_6 1_555 1_555
C117_6 C112_6 1_555 1_555
H58_6 C117_6 1_555 1_555
C119_6 C106_6 1_555 1_555
H59_6 C119_6 1_555 1_555
C120_6 C109_6 1_555 1_555
H60_6 C120_6 1_555 1_555
Sc2_6 O6_6 1_555 1_555
O7_6 C24_6 1_555 1_555
C22_6 C24_6 1_555 1_555
C54_6 C55_6 1_555 1_555
C58_5 C60_6 1_555 1_555
O26_6 Sc20_3 1_555 1_555
C62_5 C63_5 1_555 1_555
C62_5 C64_6 1_555 1_555
O28_6 Sc19_3 1_555 1_555
O29_6 C68_6 1_555 1_555
C66_6 C68_6 1_555 1_555
O33_6 Sc18_3 1_555 1_555
C70_6 C71_6 1_555 1_555
C70_6 C72_6 1_555 1_555
O36_6 C81_6 1_555 1_555
C78_6 C81_6 1_555 1_555
O43_6 C105_6 1_555 1_555
C102_6 C105_6 1_555 1_555
C103_6 C104_6 1_555 1_555
N12_6 C111_6 1_555 1_555
C116_6 C117_6 1_555 1_555
C119_6 C120_6 1_555 1_555
C15_6 C16_6 1_555 1_555
C16_6 C17_6 1_555 1_555
C18_6 C17_6 1_555 1_555
H8_6 C18_6 1_555 1_555
C19_6 C18_6 1_555 1_555
C20_6 O4_6 1_555 1_555
N6_6 C15_6 1_555 1_555
O17_6 C20_6 1_555 1_555
C51_6 C16_6 1_555 1_555
H25_6 C51_6 1_555 1_555
C52_6 C19_6 1_555 1_555
H26_6 C52_6 1_555 1_555
C19_6 C20_6 1_555 1_555
C51_6 C52_6 1_555 1_555
C57_6 H29_6 1_555 1_555
C58_6 C57_6 1_555 1_555
C59_6 C58_6 1_555 1_555
H30_6 C59_6 1_555 1_555
C61_6 C57_6 1_555 1_555
H31_6 C61_6 1_555 1_555
C62_6 C61_6 1_555 1_555
C63_6 C59_6 1_555 1_555
H32_6 C63_6 1_555 1_555
C62_6 C63_6 1_555 1_555

#END
