
###############################################################################
#
# This file contains modified crystal structure data generated from the
# MOF subset of the Cambridge Structural Database (CSD) v543 
# hosted by the Cambridge Crystallographic Data Centre (CCDC).
#
# This work is licensed under the Creative Commons
# Attribution-NonCommercial-ShareAlike 4.0 International License.
# To view a copy of this license, visit
# http://creativecommons.org/licenses/by-nc-sa/4.0/
# or send a letter to
# Creative Commons, PO Box 1866, Mountain View, CA 94042, USA.
#
# CIF created using the CSD Python API on 29 September 2022
# The structure has been converted into the P1 space group
# The structure has a 3D framework
# The original CSD entry UKAJOH is in the monoclinic crystal system
# The framework has been calculated to contain at least 10.0% void space
# The void calculation uses a probe of radius 1.32A, grid spacing 0.4
#
###############################################################################

data_UKAJOH
_chemical_formula_moiety         '(C448 H384 N64 O96 S16 Zn20)n'
_symmetry_cell_setting           triclinic
_symmetry_space_group_name_H-M   'P 1'
_symmetry_Int_Tables_number      1
_space_group_name_Hall           'P 1'
loop_
_symmetry_equiv_pos_site_id
_symmetry_equiv_pos_as_xyz
1 x,y,z
_cell_length_a                   47.233(6)
_cell_length_b                   11.4571(17)
_cell_length_c                   25.455(4)
_cell_angle_alpha                90
_cell_angle_beta                 119.856(7)
_cell_angle_gamma                90
_cell_volume                     11946.8
loop_
_atom_site_label
_atom_site_type_symbol
_atom_site_fract_x
_atom_site_fract_y
_atom_site_fract_z
N1 N 0.2241(2) 0.3936(8) 0.6852(4)
N2 N 0.1448(3) 0.2126(9) 0.5495(4)
N3 N 0.1003(3) 0.0626(9) 0.4551(4)
C1 C 0.2111(3) 0.2996(10) 0.6966(4)
H1 H 0.2210 0.2729 0.7373
C2 C 0.1844(3) 0.2389(10) 0.6536(5)
H2 H 0.1761 0.1738 0.6648
C3 C 0.1698(3) 0.2745(10) 0.5937(5)
C4 C 0.1825(3) 0.3754(10) 0.5816(5)
H3 H 0.1723 0.4072 0.5419
C5 C 0.2094(3) 0.4273(10) 0.6270(4)
H4 H 0.2185 0.4917 0.6169
C6 C 0.1261(4) 0.2556(11) 0.4866(5)
H5 H 0.1394 0.3130 0.4792
H6 H 0.1061 0.2954 0.4805
C7 C 0.1279(4) 0.1197(13) 0.5613(6)
H7 H 0.1082 0.1525 0.5604
H8 H 0.1423 0.0886 0.6025
C8 C 0.1179(4) 0.0237(11) 0.5178(5)
C9 C 0.1169(3) 0.1576(12) 0.4425(6)
H11 H 0.1024 0.1875 0.4011
H12 H 0.1369 0.1264 0.4441
C14 C 0.0694(3) 0.0073(11) 0.3494(5)
H16 H 0.0779 0.0709 0.3378
Zn6 Zn 0.26866(3) 0.45430(10) 0.75016(5)
C34 C 0.2301(4) 0.8506(13) 0.9848(6)
H29 H 0.2291 0.9369 0.9832
H30 H 0.2076 0.8207 0.9680
N9 N 0.2593(2) 0.5147(7) 0.8156(4)
N10 N 0.2508(2) 0.6857(8) 0.9531(4)
C57 C 0.2408(3) 0.6091(9) 0.8046(5)
H49 H 0.2288 0.6365 0.7640
C58 C 0.2381(3) 0.6688(10) 0.8481(5)
H50 H 0.2250 0.7373 0.8374
C59 C 0.2541(3) 0.6313(10) 0.9081(5)
C60 C 0.2722(3) 0.5264(9) 0.9190(5)
H51 H 0.2827 0.4923 0.9582
C61 C 0.2746(3) 0.4749(10) 0.8732(5)
H52 H 0.2877 0.4068 0.8823
C63 C 0.2433(5) 0.8098(13) 0.9480(6)
H55 H 0.2275 0.8277 0.9051
H56 H 0.2636 0.8539 0.9591
H62 H 0.0049 0.1238 0.9529
N13 N 0.7759(2) 0.3936(8) 0.8148(4)
N14 N 0.8552(3) 0.2126(9) 0.9505(4)
C71 C 0.7889(3) 0.2996(10) 0.8034(4)
H65 H 0.7790 0.2729 0.7627
C72 C 0.8156(3) 0.2389(10) 0.8464(5)
H66 H 0.8239 0.1738 0.8352
C73 C 0.8302(3) 0.2745(10) 0.9063(5)
C74 C 0.8175(3) 0.3754(10) 0.9184(5)
H67 H 0.8277 0.4072 0.9581
C75 C 0.7906(3) 0.4273(10) 0.8730(4)
H68 H 0.7815 0.4917 0.8831
C77 C 0.8721(4) 0.1197(13) 0.9387(6)
H71 H 0.8918 0.1525 0.9396
H72 H 0.8577 0.0886 0.8975
C78 C 0.8821(4) 0.0237(11) 0.9822(5)
Zn7 Zn 0.73134(3) 0.45430(10) 0.74984(5)
Zn3 Zn 1.0000 0.36504(14) 0.2500
N7 N 0.9955(3) 0.0553(9) 0.0455(4)
N8 N 0.9983(2) 0.2611(8) 0.1831(4)
C52 C 0.9958(3) 0.1169(10) 0.0901(5)
C53 C 0.9754(3) 0.2152(10) 0.0782(5)
H43 H 0.9600 0.2348 0.0375
C54 C 0.9774(3) 0.2835(10) 0.1250(4)
H44 H 0.9633 0.3488 0.1151
S4 S 0.81393(8) 0.6785(3) 0.00936(12)
O20 O 0.77178(19) 0.9016(7) 0.2058(3)
O23 O 0.96141(18) 0.4631(7) 0.2009(3)
O24 O 0.9315(2) 0.3043(7) 0.1912(4)
C99 C 0.7845(3) 0.9535(10) 0.1784(5)
C100 C 0.7924(3) 0.8803(10) 0.1377(4)
C101 C 0.8133(3) 0.9277(10) 0.1198(5)
C102 C 0.8198(3) 0.8646(11) 0.0803(5)
H90 H 0.8343 0.8949 0.0679
C103 C 0.8049(3) 0.7561(11) 0.0588(4)
C104 C 0.7844(3) 0.7108(10) 0.0766(5)
H91 H 0.7742 0.6376 0.0612
C105 C 0.7783(3) 0.7718(10) 0.1175(5)
H92 H 0.7647 0.7390 0.1312
C106 C 0.8497(3) 0.5997(11) 0.0587(4)
C107 C 0.8795(3) 0.6445(11) 0.0744(5)
H93 H 0.8813 0.7169 0.0581
C108 C 0.9072(3) 0.5837(11) 0.1144(5)
H94 H 0.9281 0.6149 0.1256
C109 C 0.9049(3) 0.4787(9) 0.1381(4)
C110 C 0.8738(3) 0.4347(10) 0.1212(5)
H95 H 0.8720 0.3622 0.1374
C111 C 0.8464(3) 0.4930(10) 0.0824(5)
H96 H 0.8254 0.4627 0.0714
C112 C 0.9344(3) 0.4080(11) 0.1798(5)
N19 N 0.7593(2) 0.9853(7) 0.3156(4)
N6 N 0.7508(2) 0.8143(8) 0.4531(4)
C29 C 0.7408(3) 0.8909(9) 0.3046(5)
H25 H 0.7288 0.8635 0.2640
C30 C 0.7381(3) 0.8312(10) 0.3481(5)
H26 H 0.7250 0.7627 0.3374
C31 C 0.7541(3) 0.8687(10) 0.4081(5)
C32 C 0.7722(3) 0.9736(9) 0.4190(5)
C34_2 C 0.7699(4) 0.8506(13) 0.5152(6)
H29_2 H 0.7709 0.9369 0.5168
H30_2 H 0.7924 0.8207 0.5320
C35 C 0.7433(5) 0.6902(13) 0.4480(6)
H31 H 0.7275 0.6723 0.4051
H32 H 0.7636 0.6461 0.4591
C50 C 0.9826(3) 0.1692(9) 0.3047(5)
H41 H 0.9674 0.1525 0.2635
C51 C 0.9833(3) 0.0962(11) 0.3483(5)
H42 H 0.9694 0.0301 0.3361
N9_2 N 0.7407(2) 0.5147(7) 0.6844(4)
N10_2 N 0.7492(2) 0.6857(8) 0.5469(4)
C57_2 C 0.7592(3) 0.6091(9) 0.6954(5)
H49_2 H 0.7712 0.6365 0.7360
C58_2 C 0.7619(3) 0.6688(10) 0.6519(5)
H50_2 H 0.7750 0.7373 0.6626
C59_2 C 0.7459(3) 0.6313(10) 0.5919(5)
C60_2 C 0.7278(3) 0.5264(9) 0.5810(5)
H51_2 H 0.7173 0.4923 0.5418
C61_2 C 0.7254(3) 0.4749(10) 0.6268(5)
H52_2 H 0.7123 0.4068 0.6177
C62 C 0.7301(4) 0.6494(13) 0.4848(6)
H53 H 0.7291 0.5631 0.4832
H54 H 0.7076 0.6793 0.4680
C63_2 C 0.7567(5) 0.8098(13) 0.5520(6)
H55_2 H 0.7725 0.8277 0.5949
H56_2 H 0.7364 0.8539 0.5409
H62_2 H 0.9951 0.1238 0.5471
S1 S 0.44199(8) 0.0811(3) 0.98782(13)
S2 S 0.31393(8) 0.8215(3) 0.50936(12)
O5 O 0.32573(19) 0.4641(7) 0.8185(3)
O6 O 0.2951(2) 0.3062(7) 0.7941(3)
O7 O 0.2903(2) 0.4409(6) 0.6828(3)
O8 O 0.27178(19) 0.5984(7) 0.7058(3)
O9 O 0.2885(2) 0.9071(8) 0.4777(4)
O10 O 0.3219(3) 0.7394(10) 0.4762(4)
H17 H 0.4889 0.0177 0.8629
C18 C 0.4703(3) 0.0495(11) 0.9184(6)
H18 H 0.4800 0.1240 0.9324
C19 C 0.4503(3) 0.0008(10) 0.9373(5)
C22 C 0.4065(3) 0.1597(11) 0.9390(5)
C23 C 0.4098(3) 0.2651(10) 0.9157(5)
H21 H 0.4308 0.2929 0.9256
C24 C 0.3822(3) 0.3294(10) 0.8780(5)
H22 H 0.3841 0.4035 0.8633
C25 C 0.3519(3) 0.2845(9) 0.8622(5)
C26 C 0.3490(3) 0.1780(10) 0.8841(5)
H23 H 0.3279 0.1478 0.8722
C27 C 0.3768(3) 0.1136(11) 0.9236(5)
H24 H 0.3749 0.0404 0.9392
C28 C 0.3223(3) 0.3558(10) 0.8221(5)
C36 C 0.2845(3) 0.5465(10) 0.6784(5)
C37 C 0.2924(3) 0.6197(10) 0.6377(4)
C38 C 0.3133(3) 0.5723(10) 0.6198(5)
H33 H 0.3230 0.4979 0.6342
C39 C 0.3198(3) 0.6354(11) 0.5803(5)
H34 H 0.3343 0.6051 0.5679
C40 C 0.3049(3) 0.7439(11) 0.5588(4)
C41 C 0.2844(3) 0.7892(10) 0.5766(5)
H35 H 0.2742 0.8624 0.5612
C42 C 0.2783(3) 0.7282(10) 0.6175(5)
H36 H 0.2647 0.7610 0.6312
C43 C 0.3497(3) 0.9003(11) 0.5587(4)
C44 C 0.3795(3) 0.8555(11) 0.5744(5)
H37 H 0.3813 0.7831 0.5581
C45 C 0.4072(3) 0.9163(11) 0.6144(5)
H38 H 0.4281 0.8851 0.6256
S3 S 0.55801(8) 0.0811(3) 0.51218(13)
S4_2 S 0.68607(8) 0.8215(3) 0.99064(12)
O16 O 0.5323(2) 0.1661(9) 0.4804(4)
O17 O 0.67427(19) 0.4641(7) 0.6815(3)
O18 O 0.7049(2) 0.3062(7) 0.7059(3)
O19 O 0.7097(2) 0.4409(6) 0.8172(3)
O20_2 O 0.72822(19) 0.5984(7) 0.7942(3)
H81 H 0.5111 0.0177 0.6371
C88 C 0.5297(3) 0.0495(11) 0.5816(6)
H82 H 0.5200 0.1240 0.5676
C89 C 0.5497(3) 0.0008(10) 0.5627(5)
C92 C 0.5935(3) 0.1597(11) 0.5610(5)
C93 C 0.5902(3) 0.2651(10) 0.5843(5)
H85 H 0.5692 0.2929 0.5744
C94 C 0.6178(3) 0.3294(10) 0.6220(5)
H86 H 0.6159 0.4035 0.6367
C95 C 0.6481(3) 0.2845(9) 0.6378(5)
C96 C 0.6510(3) 0.1780(10) 0.6159(5)
H87 H 0.6721 0.1478 0.6278
C97 C 0.6232(3) 0.1136(11) 0.5764(5)
H88 H 0.6251 0.0404 0.5608
C98 C 0.6777(3) 0.3558(10) 0.6779(5)
C99_2 C 0.7155(3) 0.5465(10) 0.8216(5)
C100_2 C 0.7076(3) 0.6197(10) 0.8623(4)
C101_2 C 0.6867(3) 0.5723(10) 0.8802(5)
H89 H 0.6770 0.4979 0.8658
C102_2 C 0.6802(3) 0.6354(11) 0.9197(5)
H90_2 H 0.6657 0.6051 0.9321
C103_2 C 0.6951(3) 0.7439(11) 0.9412(4)
C104_2 C 0.7156(3) 0.7892(10) 0.9234(5)
H91_2 H 0.7258 0.8624 0.9388
C105_2 C 0.7217(3) 0.7282(10) 0.8825(5)
H92_2 H 0.7353 0.7610 0.8688
C106_2 C 0.6503(3) 0.9003(11) 0.9413(4)
C107_2 C 0.6205(3) 0.8555(11) 0.9256(5)
H93_2 H 0.6187 0.7831 0.9419
C108_2 C 0.5928(3) 0.9163(11) 0.8856(5)
H94_2 H 0.5719 0.8851 0.8744
Zn1 Zn 0.0000 0.73920(16) 0.2500
Zn2 Zn 0.23134(3) 0.04570(10) 0.24984(5)
S1_2 S 0.05801(8) 0.4189(3) 0.01218(13)
O1 O 0.01357(19) 0.6453(6) 0.2031(3)
O2 O 0.0378(2) 0.8002(7) 0.1902(4)
O5_2 O 0.17427(19) 0.0359(7) 0.1815(3)
O6_2 O 0.2049(2) 0.1938(7) 0.2059(3)
O7_2 O 0.2097(2) 0.0591(6) 0.3172(3)
N4 N 0.0333(2) 0.8418(8) 0.3170(4)
H9 H 0.1376 0.9803 0.5247
H10 H 0.1040 0.9693 0.5250
C10 C 0.0795(3) 0.9910(10) 0.4102(5)
C11 C 0.0650(3) 0.8927(10) 0.4217(5)
H13 H 0.0713 0.8736 0.4623
C12 C 0.0422(2) 0.8242(10) 0.3754(5)
H14 H 0.0324 0.7618 0.3853
C13 C 0.0474(3) 0.9342(10) 0.3058(5)
H15 H 0.0416 0.9492 0.2649
C15 C 0.0299(3) 0.6978(10) 0.1832(5)
C16 C 0.0373(3) 0.6254(9) 0.1410(4)
C17 C 0.0242(3) 0.5149(9) 0.1221(5)
H17_2 H 0.0111 0.4823 0.1371
C18_2 C 0.0297(3) 0.4505(11) 0.0816(6)
H18_2 H 0.0200 0.3760 0.0676
C19_2 C 0.0497(3) 0.4992(10) 0.0627(5)
C20 C 0.0638(3) 0.6078(10) 0.0812(5)
H19 H 0.0778 0.6379 0.0677
C21 C 0.0570(3) 0.6735(10) 0.1205(5)
H20 H 0.0657 0.7498 0.1327
C22_2 C 0.0935(3) 0.3403(11) 0.0610(5)
C23_2 C 0.0902(3) 0.2349(10) 0.0843(5)
H21_2 H 0.0692 0.2071 0.0744
C24_2 C 0.1178(3) 0.1706(10) 0.1220(5)
H22_2 H 0.1159 0.0965 0.1367
C25_2 C 0.1481(3) 0.2155(9) 0.1378(5)
C26_2 C 0.1510(3) 0.3220(10) 0.1159(5)
H23_2 H 0.1721 0.3522 0.1278
C27_2 C 0.1232(3) 0.3864(11) 0.0764(5)
H24_2 H 0.1251 0.4596 0.0608
C28_2 C 0.1777(3) 0.1442(10) 0.1779(5)
H27 H 0.2173 0.0077 0.0418
C33 C 0.2254(3) 0.0251(10) 0.1268(5)
H28 H 0.2123 0.0932 0.1177
H33_2 H 0.1770 0.0021 0.3658
N17 N 0.2759(2) 0.1064(8) 0.3148(4)
Zn1_2 Zn 1.0000 0.73920(16) 0.2500
Zn4 Zn 0.76866(3) 0.04570(10) 0.25016(5)
S3_2 S 0.94199(8) 0.4189(3) 0.48782(13)
O13 O 0.98643(19) 0.6453(6) 0.2969(3)
O14 O 0.9622(2) 0.8002(7) 0.3098(4)
O15 O 0.9336(3) 0.5005(8) 0.5206(4)
O16_2 O 0.9677(2) 0.3339(9) 0.5196(4)
O17_2 O 0.82573(19) 0.0359(7) 0.3185(3)
O18_2 O 0.7951(2) 0.1938(7) 0.2941(3)
O19_2 O 0.7903(2) 0.0591(6) 0.1828(3)
N16 N 0.9667(2) 0.8418(8) 0.1830(4)
C80 C 0.9205(3) 0.9910(10) 0.0898(5)
C81 C 0.9350(3) 0.8927(10) 0.0783(5)
H77 H 0.9287 0.8736 0.0377
C82 C 0.9578(2) 0.8242(10) 0.1246(5)
H78 H 0.9676 0.7618 0.1147
C83 C 0.9526(3) 0.9342(10) 0.1942(5)
H79 H 0.9584 0.9492 0.2351
C85 C 0.9701(3) 0.6978(10) 0.3168(5)
C86 C 0.9627(3) 0.6254(9) 0.3590(4)
C87 C 0.9758(3) 0.5149(9) 0.3779(5)
H81_2 H 0.9889 0.4823 0.3629
C88_2 C 0.9703(3) 0.4505(11) 0.4184(6)
H82_2 H 0.9800 0.3760 0.4324
C89_2 C 0.9503(3) 0.4992(10) 0.4373(5)
C90 C 0.9362(3) 0.6078(10) 0.4188(5)
H83 H 0.9222 0.6379 0.4323
C91 C 0.9430(3) 0.6735(10) 0.3795(5)
H84 H 0.9343 0.7498 0.3673
C92_2 C 0.9065(3) 0.3403(11) 0.4390(5)
C93_2 C 0.9098(3) 0.2349(10) 0.4157(5)
H85_2 H 0.9308 0.2071 0.4256
C94_2 C 0.8822(3) 0.1706(10) 0.3780(5)
H86_2 H 0.8841 0.0965 0.3633
C95_2 C 0.8519(3) 0.2155(9) 0.3622(5)
C96_2 C 0.8490(3) 0.3220(10) 0.3841(5)
H87_2 H 0.8279 0.3522 0.3722
C97_2 C 0.8768(3) 0.3864(11) 0.4236(5)
H88_2 H 0.8749 0.4596 0.4392
C98_2 C 0.8223(3) 0.1442(10) 0.3221(5)
H89_2 H 0.8230 0.0021 0.1342
N18 N 0.7241(2) 0.1064(8) 0.1852(4)
H27_2 H 0.7827 0.0077 0.4582
C33_2 C 0.7746(3) 0.0251(10) 0.3732(5)
H28_2 H 0.7877 0.0932 0.3823
Zn1_3 Zn 0.5000 0.23920(16) 0.2500
O1_2 O 0.51357(19) 0.1453(6) 0.2031(3)
O2_2 O 0.5378(2) 0.3002(7) 0.1902(4)
N1_2 N 0.7241(2) 0.8936(8) 0.6852(4)
N2_2 N 0.6448(3) 0.7126(9) 0.5495(4)
N3_2 N 0.6003(3) 0.5626(9) 0.4551(4)
N4_2 N 0.5333(2) 0.3418(8) 0.3170(4)
C1_2 C 0.7111(3) 0.7996(10) 0.6966(4)
H1_2 H 0.7210 0.7729 0.7373
C2_2 C 0.6844(3) 0.7389(10) 0.6536(5)
H2_2 H 0.6761 0.6738 0.6648
C3_2 C 0.6698(3) 0.7745(10) 0.5937(5)
C4_2 C 0.6825(3) 0.8754(10) 0.5816(5)
H3_2 H 0.6723 0.9072 0.5419
C5_2 C 0.7094(3) 0.9273(10) 0.6270(4)
H4_2 H 0.7185 0.9917 0.6169
C6_2 C 0.6261(4) 0.7556(11) 0.4866(5)
H5_2 H 0.6394 0.8130 0.4792
H6_2 H 0.6061 0.7954 0.4805
C7_2 C 0.6279(4) 0.6197(13) 0.5613(6)
H7_2 H 0.6082 0.6525 0.5604
H8_2 H 0.6423 0.5886 0.6025
C8_2 C 0.6179(4) 0.5237(11) 0.5178(5)
H9_2 H 0.6376 0.4803 0.5247
H10_2 H 0.6040 0.4693 0.5250
C9_2 C 0.6169(3) 0.6576(12) 0.4425(6)
H11_2 H 0.6024 0.6875 0.4011
H12_2 H 0.6369 0.6264 0.4441
C10_2 C 0.5795(3) 0.4910(10) 0.4102(5)
C11_2 C 0.5650(3) 0.3927(10) 0.4217(5)
H13_2 H 0.5713 0.3736 0.4623
C12_2 C 0.5422(2) 0.3242(10) 0.3754(5)
H14_2 H 0.5324 0.2618 0.3853
C13_2 C 0.5474(3) 0.4342(10) 0.3058(5)
H15_2 H 0.5416 0.4492 0.2649
C14_2 C 0.5694(3) 0.5073(11) 0.3494(5)
H16_2 H 0.5779 0.5709 0.3378
C15_2 C 0.5299(3) 0.1978(10) 0.1832(5)
C16_2 C 0.5373(3) 0.1254(9) 0.1410(4)
C17_2 C 0.5242(3) 0.0149(9) 0.1221(5)
C20_2 C 0.5638(3) 0.1078(10) 0.0812(5)
H19_2 H 0.5778 0.1379 0.0677
C21_2 C 0.5570(3) 0.1735(10) 0.1205(5)
H20_2 H 0.5657 0.2498 0.1327
O13_2 O 0.48643(19) 0.1453(6) 0.2969(3)
O14_2 O 0.4622(2) 0.3002(7) 0.3098(4)
O15_2 O 0.4336(3) 0.0005(8) 0.5206(4)
N15 N 0.3997(3) 0.5626(9) 0.0449(4)
N16_2 N 0.4667(2) 0.3418(8) 0.1830(4)
C76 C 0.3739(4) 0.7556(11) 0.0134(5)
H69 H 0.3606 0.8130 0.0208
H70 H 0.3939 0.7954 0.0195
C79 C 0.3831(3) 0.6576(12) 0.0575(6)
H75 H 0.3976 0.6875 0.0989
H76 H 0.3631 0.6264 0.0559
C80_2 C 0.4205(3) 0.4910(10) 0.0898(5)
C81_2 C 0.4350(3) 0.3927(10) 0.0783(5)
H77_2 H 0.4287 0.3736 0.0377
C82_2 C 0.4578(2) 0.3242(10) 0.1246(5)
H78_2 H 0.4676 0.2618 0.1147
C83_2 C 0.4526(3) 0.4342(10) 0.1942(5)
H79_2 H 0.4584 0.4492 0.2351
C84 C 0.4306(3) 0.5073(11) 0.1506(5)
H80 H 0.4221 0.5709 0.1622
C85_2 C 0.4701(3) 0.1978(10) 0.3168(5)
C86_2 C 0.4627(3) 0.1254(9) 0.3590(4)
C87_2 C 0.4758(3) 0.0149(9) 0.3779(5)
C90_2 C 0.4362(3) 0.1078(10) 0.4188(5)
H83_2 H 0.4222 0.1379 0.4323
C91_2 C 0.4430(3) 0.1735(10) 0.3795(5)
H84_2 H 0.4343 0.2498 0.3673
Zn6_2 Zn 0.76866(3) 0.95430(10) 0.75016(5)
O3 O 0.5664(3) 0.0005(8) 0.9794(4)
N13_2 N 0.2759(2) 0.8936(8) 0.8148(4)
N14_2 N 0.3552(3) 0.7126(9) 0.9505(4)
C71_2 C 0.2889(3) 0.7996(10) 0.8034(4)
H65_2 H 0.2790 0.7729 0.7627
C72_2 C 0.3156(3) 0.7389(10) 0.8464(5)
H66_2 H 0.3239 0.6738 0.8352
C73_2 C 0.3302(3) 0.7745(10) 0.9063(5)
C74_2 C 0.3175(3) 0.8754(10) 0.9184(5)
H67_2 H 0.3277 0.9072 0.9581
C75_2 C 0.2906(3) 0.9273(10) 0.8730(4)
H68_2 H 0.2815 0.9917 0.8831
C77_2 C 0.3721(4) 0.6197(13) 0.9387(6)
H71_2 H 0.3918 0.6525 0.9396
H72_2 H 0.3577 0.5886 0.8975
C78_2 C 0.3821(4) 0.5237(11) 0.9822(5)
H73 H 0.3624 0.4803 0.9753
H74 H 0.3960 0.4693 0.9750
Zn7_2 Zn 0.23134(3) 0.95430(10) 0.74984(5)
Zn3_2 Zn 0.5000 0.86504(14) 0.2500
O11 O 0.53859(18) 0.9631(7) 0.2991(3)
O12 O 0.5685(2) 0.8043(7) 0.3088(4)
N7_2 N 0.4955(3) 0.5553(9) 0.0455(4)
N8_2 N 0.4983(2) 0.7611(8) 0.1831(4)
C46 C 0.5951(3) 0.9787(9) 0.3619(4)
C47 C 0.6262(3) 0.9347(10) 0.3788(5)
H39 H 0.6280 0.8622 0.3626
C48 C 0.6536(3) 0.9930(10) 0.4176(5)
H40 H 0.6746 0.9627 0.4286
C49 C 0.5656(3) 0.9080(11) 0.3202(5)
C50_2 C 0.5174(3) 0.6692(9) 0.1953(5)
H41_2 H 0.5326 0.6525 0.2365
C51_2 C 0.5167(3) 0.5962(11) 0.1517(5)
H42_2 H 0.5306 0.5301 0.1639
C52_2 C 0.4958(3) 0.6169(10) 0.0901(5)
C53_2 C 0.4754(3) 0.7152(10) 0.0782(5)
H43_2 H 0.4600 0.7348 0.0375
C54_2 C 0.4774(3) 0.7835(10) 0.1250(4)
H44_2 H 0.4633 0.8488 0.1151
C55 C 0.5115(4) 0.4383(11) 0.0567(5)
H45 H 0.5284 0.4311 0.0999
H46 H 0.4951 0.3762 0.0471
C70 C 0.5267(4) 0.4242(12) 0.0186(5)
H63 H 0.5355 0.3440 0.0238
H64 H 0.5453 0.4790 0.0328
O23_2 O 0.46141(18) 0.9631(7) 0.2009(3)
O24_2 O 0.4315(2) 0.8043(7) 0.1912(4)
C109_2 C 0.4049(3) 0.9787(9) 0.1381(4)
C110_2 C 0.3738(3) 0.9347(10) 0.1212(5)
H95_2 H 0.3720 0.8622 0.1374
C111_2 C 0.3464(3) 0.9930(10) 0.0824(5)
H96_2 H 0.3254 0.9627 0.0714
C112_2 C 0.4344(3) 0.9080(11) 0.1798(5)
N20 N 0.5017(2) 0.7611(8) 0.3169(4)
C56 C 0.4733(4) 0.5758(12) 0.9814(5)
H47 H 0.4645 0.6560 0.9762
H48 H 0.4547 0.5210 0.9672
H51_3 H 0.7827 0.9923 0.9582
C61_3 C 0.7746(3) 0.9749(10) 0.8732(5)
H52_3 H 0.7877 0.9068 0.8823
N11 N 0.5045(3) 0.4447(9) 0.9545(4)
N12 N 0.5017(2) 0.2389(8) 0.8169(4)
C64 C 0.4826(3) 0.3308(9) 0.8047(5)
H57 H 0.4674 0.3475 0.7635
C65 C 0.4833(3) 0.4038(11) 0.8483(5)
H58 H 0.4694 0.4699 0.8361
C66 C 0.5042(3) 0.3831(10) 0.9099(5)
C67 C 0.5246(3) 0.2848(10) 0.9218(5)
H59 H 0.5400 0.2652 0.9625
C68 C 0.5226(3) 0.2165(10) 0.8750(4)
H60 H 0.5367 0.1512 0.8849
C69 C 0.4885(4) 0.5617(11) 0.9433(5)
H61 H 0.4716 0.5689 0.9001
H62_3 H 0.5049 0.6238 0.9529
Zn8 Zn 0.5000 0.13496(14) 0.7500
N7_3 N 0.5045(3) 0.5553(9) 0.4545(4)
C50_3 C 0.4826(3) 0.6692(9) 0.3047(5)
H41_3 H 0.4674 0.6525 0.2635
C51_3 C 0.4833(3) 0.5962(11) 0.3483(5)
H42_3 H 0.4694 0.5301 0.3361
C52_3 C 0.5042(3) 0.6169(10) 0.4099(5)
C53_3 C 0.5246(3) 0.7152(10) 0.4218(5)
H43_3 H 0.5400 0.7348 0.4625
C54_3 C 0.5226(3) 0.7835(10) 0.3750(4)
H44_3 H 0.5367 0.8488 0.3849
C55_2 C 0.4885(4) 0.4383(11) 0.4433(5)
H45_2 H 0.4716 0.4311 0.4001
H46_2 H 0.5049 0.3762 0.4529
C56_2 C 0.5267(4) 0.5758(12) 0.5186(5)
H47_2 H 0.5355 0.6560 0.5238
H48_2 H 0.5453 0.5210 0.5328
H51_4 H 0.2173 0.9923 0.5418
C61_4 C 0.2254(3) 0.9749(10) 0.6268(5)
H52_4 H 0.2123 0.9068 0.6177
N11_2 N 0.4955(3) 0.4447(9) 0.5455(4)
N12_2 N 0.4983(2) 0.2389(8) 0.6831(4)
C64_2 C 0.5174(3) 0.3308(9) 0.6953(5)
H57_2 H 0.5326 0.3475 0.7365
C65_2 C 0.5167(3) 0.4038(11) 0.6517(5)
H58_2 H 0.5306 0.4699 0.6639
C66_2 C 0.4958(3) 0.3831(10) 0.5901(5)
C67_2 C 0.4754(3) 0.2848(10) 0.5782(5)
H59_2 H 0.4600 0.2652 0.5375
C68_2 C 0.4774(3) 0.2165(10) 0.6250(4)
H60_2 H 0.4633 0.1512 0.6151
C69_2 C 0.5115(4) 0.5617(11) 0.5567(5)
H61_2 H 0.5284 0.5689 0.5999
H62_4 H 0.4951 0.6238 0.5471
C70_2 C 0.4733(4) 0.4242(12) 0.4814(5)
H63_2 H 0.4645 0.3440 0.4762
H64_2 H 0.4547 0.4790 0.4672
Zn1_4 Zn 0.0000 0.26080(16) 0.7500
S3_3 S 0.05801(8) 0.5811(3) 0.51218(13)
O13_3 O 0.01357(19) 0.3547(6) 0.7031(3)
O14_3 O 0.0378(2) 0.1998(7) 0.6902(4)
O15_3 O 0.0664(3) 0.4995(8) 0.4794(4)
O16_3 O 0.0323(2) 0.6661(9) 0.4804(4)
O17_3 O 0.17427(19) 0.9641(7) 0.6815(3)
O18_3 O 0.2049(2) 0.8062(7) 0.7059(3)
O19_3 O 0.2097(2) 0.9409(6) 0.8172(3)
N16_3 N 0.0333(2) 0.1582(8) 0.8170(4)
C80_3 C 0.0795(3) 0.0090(10) 0.9102(5)
C81_3 C 0.0650(3) 0.1073(10) 0.9217(5)
H77_3 H 0.0713 0.1264 0.9623
C82_3 C 0.0422(2) 0.1758(10) 0.8754(5)
H78_3 H 0.0324 0.2382 0.8853
C83_3 C 0.0474(3) 0.0658(10) 0.8058(5)
H79_3 H 0.0416 0.0508 0.7649
C85_3 C 0.0299(3) 0.3022(10) 0.6832(5)
C86_3 C 0.0373(3) 0.3746(9) 0.6410(4)
C87_3 C 0.0242(3) 0.4851(9) 0.6221(5)
H81_3 H 0.0111 0.5177 0.6371
C88_3 C 0.0297(3) 0.5495(11) 0.5816(6)
H82_3 H 0.0200 0.6240 0.5676
C89_3 C 0.0497(3) 0.5008(10) 0.5627(5)
C90_3 C 0.0638(3) 0.3922(10) 0.5812(5)
H83_3 H 0.0778 0.3621 0.5677
C91_3 C 0.0570(3) 0.3265(10) 0.6205(5)
H84_3 H 0.0657 0.2502 0.6327
C92_3 C 0.0935(3) 0.6597(11) 0.5610(5)
C93_3 C 0.0902(3) 0.7651(10) 0.5843(5)
H85_3 H 0.0692 0.7929 0.5744
C94_3 C 0.1178(3) 0.8294(10) 0.6220(5)
H86_3 H 0.1159 0.9035 0.6367
C95_3 C 0.1481(3) 0.7845(9) 0.6378(5)
C96_3 C 0.1510(3) 0.6780(10) 0.6159(5)
H87_3 H 0.1721 0.6478 0.6278
C97_3 C 0.1232(3) 0.6136(11) 0.5764(5)
H88_3 H 0.1251 0.5404 0.5608
C98_3 C 0.1777(3) 0.8558(10) 0.6779(5)
H89_3 H 0.1770 0.9979 0.8658
Zn1_5 Zn 1.0000 0.26080(16) 0.7500
S1_3 S 0.94199(8) 0.5811(3) 0.98782(13)
O1_3 O 0.98643(19) 0.3547(6) 0.7969(3)
O2_3 O 0.9622(2) 0.1998(7) 0.8098(4)
O5_3 O 0.82573(19) 0.9641(7) 0.8185(3)
O6_3 O 0.7951(2) 0.8062(7) 0.7941(3)
O7_3 O 0.7903(2) 0.9409(6) 0.6828(3)
N4_3 N 0.9667(2) 0.1582(8) 0.6830(4)
H9_3 H 0.8624 0.0197 0.4753
H10_3 H 0.8960 0.0307 0.4750
C10_3 C 0.9205(3) 0.0090(10) 0.5898(5)
C11_3 C 0.9350(3) 0.1073(10) 0.5783(5)
H13_3 H 0.9287 0.1264 0.5377
C12_3 C 0.9578(2) 0.1758(10) 0.6246(5)
H14_3 H 0.9676 0.2382 0.6147
C13_3 C 0.9526(3) 0.0658(10) 0.6942(5)
H15_3 H 0.9584 0.0508 0.7351
C15_3 C 0.9701(3) 0.3022(10) 0.8168(5)
C16_3 C 0.9627(3) 0.3746(9) 0.8590(4)
C17_3 C 0.9758(3) 0.4851(9) 0.8779(5)
H17_3 H 0.9889 0.5177 0.8629
C18_3 C 0.9703(3) 0.5495(11) 0.9184(6)
H18_3 H 0.9800 0.6240 0.9324
C19_3 C 0.9503(3) 0.5008(10) 0.9373(5)
C20_3 C 0.9362(3) 0.3922(10) 0.9188(5)
H19_3 H 0.9222 0.3621 0.9323
C21_3 C 0.9430(3) 0.3265(10) 0.8795(5)
H20_3 H 0.9343 0.2502 0.8673
C22_3 C 0.9065(3) 0.6597(11) 0.9390(5)
C23_3 C 0.9098(3) 0.7651(10) 0.9157(5)
H21_3 H 0.9308 0.7929 0.9256
C24_3 C 0.8822(3) 0.8294(10) 0.8780(5)
H22_3 H 0.8841 0.9035 0.8633
C25_3 C 0.8519(3) 0.7845(9) 0.8622(5)
C26_3 C 0.8490(3) 0.6780(10) 0.8841(5)
H23_3 H 0.8279 0.6478 0.8722
C27_3 C 0.8768(3) 0.6136(11) 0.9236(5)
H24_3 H 0.8749 0.5404 0.9392
C28_3 C 0.8223(3) 0.8558(10) 0.8221(5)
H33_3 H 0.8230 0.9979 0.6342
O11_2 O 0.46141(18) 0.0369(7) 0.7009(3)
O12_2 O 0.4315(2) 0.1957(7) 0.6912(4)
C46_2 C 0.4049(3) 0.0213(9) 0.6381(4)
C47_2 C 0.3738(3) 0.0653(10) 0.6212(5)
H39_2 H 0.3720 0.1378 0.6374
C48_2 C 0.3464(3) 0.0070(10) 0.5824(5)
H40_2 H 0.3254 0.0373 0.5714
C49_2 C 0.4344(3) 0.0920(11) 0.6798(5)
O23_3 O 0.53859(18) 0.0369(7) 0.7991(3)
O24_3 O 0.5685(2) 0.1957(7) 0.8088(4)
C109_3 C 0.5951(3) 0.0213(9) 0.8619(4)
C110_3 C 0.6262(3) 0.0653(10) 0.8788(5)
H95_3 H 0.6280 0.1378 0.8626
C111_3 C 0.6536(3) 0.0070(10) 0.9176(5)
H96_3 H 0.6746 0.0373 0.9286
C112_3 C 0.5656(3) 0.0920(11) 0.8202(5)
O3_2 O 0.4336(3) 0.9995(8) 0.0206(4)
N14_3 N 0.6448(3) 0.2874(9) 0.0495(4)
C71_3 C 0.7111(3) 0.2004(10) 0.1966(4)
H65_3 H 0.7210 0.2271 0.2373
C72_3 C 0.6844(3) 0.2611(10) 0.1536(5)
H66_3 H 0.6761 0.3262 0.1648
C73_3 C 0.6698(3) 0.2255(10) 0.0937(5)
C74_3 C 0.6825(3) 0.1246(10) 0.0816(5)
H67_3 H 0.6723 0.0928 0.0419
C75_3 C 0.7094(3) 0.0727(10) 0.1270(4)
H68_3 H 0.7185 0.0083 0.1169
C77_3 C 0.6279(4) 0.3803(13) 0.0613(6)
H71_3 H 0.6082 0.3475 0.0604
H72_3 H 0.6423 0.4114 0.1025
C78_3 C 0.6179(4) 0.4763(11) 0.0178(5)
H73_2 H 0.6376 0.5197 0.0247
H74_2 H 0.6040 0.5307 0.0250
Zn1_6 Zn 0.5000 0.76080(16) 0.7500
O1_4 O 0.48643(19) 0.8547(6) 0.7969(3)
O2_4 O 0.4622(2) 0.6998(7) 0.8098(4)
N2_3 N 0.3552(3) 0.2874(9) 0.4505(4)
N3_3 N 0.3997(3) 0.4374(9) 0.5449(4)
N4_4 N 0.4667(2) 0.6582(8) 0.6830(4)
C1_3 C 0.2889(3) 0.2004(10) 0.3034(4)
H1_3 H 0.2790 0.2271 0.2627
C2_3 C 0.3156(3) 0.2611(10) 0.3464(5)
H2_3 H 0.3239 0.3262 0.3352
C3_3 C 0.3302(3) 0.2255(10) 0.4063(5)
C4_3 C 0.3175(3) 0.1246(10) 0.4184(5)
H3_3 H 0.3277 0.0928 0.4581
C5_3 C 0.2906(3) 0.0727(10) 0.3730(4)
H4_3 H 0.2815 0.0083 0.3831
C6_3 C 0.3739(4) 0.2444(11) 0.5134(5)
H5_3 H 0.3606 0.1870 0.5208
H6_3 H 0.3939 0.2046 0.5195
C7_3 C 0.3721(4) 0.3803(13) 0.4387(6)
H7_3 H 0.3918 0.3475 0.4396
H8_3 H 0.3577 0.4114 0.3975
C8_3 C 0.3821(4) 0.4763(11) 0.4822(5)
H9_4 H 0.3624 0.5197 0.4753
H10_4 H 0.3960 0.5307 0.4750
C9_3 C 0.3831(3) 0.3424(12) 0.5575(6)
H11_3 H 0.3976 0.3125 0.5989
H12_3 H 0.3631 0.3736 0.5559
C10_4 C 0.4205(3) 0.5090(10) 0.5898(5)
C11_4 C 0.4350(3) 0.6073(10) 0.5783(5)
H13_4 H 0.4287 0.6264 0.5377
C12_4 C 0.4578(2) 0.6758(10) 0.6246(5)
H14_4 H 0.4676 0.7382 0.6147
C13_4 C 0.4526(3) 0.5658(10) 0.6942(5)
H15_4 H 0.4584 0.5508 0.7351
C14_3 C 0.4306(3) 0.4927(11) 0.6506(5)
H16_3 H 0.4221 0.4291 0.6622
C15_4 C 0.4701(3) 0.8022(10) 0.8168(5)
C16_4 C 0.4627(3) 0.8746(9) 0.8590(4)
C17_4 C 0.4758(3) 0.9851(9) 0.8779(5)
C20_4 C 0.4362(3) 0.8922(10) 0.9188(5)
H19_4 H 0.4222 0.8621 0.9323
C21_4 C 0.4430(3) 0.8265(10) 0.8795(5)
H20_4 H 0.4343 0.7502 0.8673
O13_4 O 0.51357(19) 0.8547(6) 0.7031(3)
O14_4 O 0.5378(2) 0.6998(7) 0.6902(4)
O15_4 O 0.5664(3) 0.9995(8) 0.4794(4)
N15_2 N 0.6003(3) 0.4374(9) 0.9551(4)
N16_4 N 0.5333(2) 0.6582(8) 0.8170(4)
C76_2 C 0.6261(4) 0.2444(11) 0.9866(5)
H69_2 H 0.6394 0.1870 0.9792
H70_2 H 0.6061 0.2046 0.9805
C79_2 C 0.6169(3) 0.3424(12) 0.9425(6)
H75_2 H 0.6024 0.3125 0.9011
H76_2 H 0.6369 0.3736 0.9441
C80_4 C 0.5795(3) 0.5090(10) 0.9102(5)
C81_4 C 0.5650(3) 0.6073(10) 0.9217(5)
H77_4 H 0.5713 0.6264 0.9623
C82_4 C 0.5422(2) 0.6758(10) 0.8754(5)
H78_4 H 0.5324 0.7382 0.8853
C83_4 C 0.5474(3) 0.5658(10) 0.8058(5)
H79_4 H 0.5416 0.5508 0.7649
C84_2 C 0.5694(3) 0.4927(11) 0.8494(5)
H80_2 H 0.5779 0.4291 0.8378
C85_4 C 0.5299(3) 0.8022(10) 0.6832(5)
C86_4 C 0.5373(3) 0.8746(9) 0.6410(4)
C87_4 C 0.5242(3) 0.9851(9) 0.6221(5)
C90_4 C 0.5638(3) 0.8922(10) 0.5812(5)
H83_4 H 0.5778 0.8621 0.5677
C91_4 C 0.5570(3) 0.8265(10) 0.6205(5)
H84_4 H 0.5657 0.7502 0.6327
O3_3 O 0.0664(3) 0.5005(8) 0.9794(4)
O4 O 0.0323(2) 0.3339(9) 0.9804(4)
Zn3_3 Zn 0.0000 0.36504(14) 0.2500
S2_2 S 0.18607(8) 0.6785(3) 0.49064(12)
O8_2 O 0.22822(19) 0.9016(7) 0.2942(3)
O9_2 O 0.2115(2) 0.5929(8) 0.5223(4)
O10_2 O 0.1781(3) 0.7606(10) 0.5238(4)
O11_3 O 0.03859(18) 0.4631(7) 0.2991(3)
O12_3 O 0.0685(2) 0.3043(7) 0.3088(4)
N5 N 0.2407(2) 0.9853(7) 0.1844(4)
N6_2 N 0.2492(2) 0.8143(8) 0.0469(4)
C29_2 C 0.2592(3) 0.8909(9) 0.1954(5)
H25_2 H 0.2712 0.8635 0.2360
C30_2 C 0.2619(3) 0.8312(10) 0.1519(5)
H26_2 H 0.2750 0.7627 0.1626
C31_2 C 0.2459(3) 0.8687(10) 0.0919(5)
C32_2 C 0.2278(3) 0.9736(9) 0.0810(5)
C35_2 C 0.2567(5) 0.6902(13) 0.0520(6)
H31_2 H 0.2725 0.6723 0.0949
H32_2 H 0.2364 0.6461 0.0409
C36_2 C 0.2155(3) 0.9535(10) 0.3216(5)
C37_2 C 0.2076(3) 0.8803(10) 0.3623(4)
C38_2 C 0.1867(3) 0.9277(10) 0.3802(5)
C39_2 C 0.1802(3) 0.8646(11) 0.4197(5)
H34_2 H 0.1657 0.8949 0.4321
C40_2 C 0.1951(3) 0.7561(11) 0.4412(4)
C41_2 C 0.2156(3) 0.7108(10) 0.4234(5)
H35_2 H 0.2258 0.6376 0.4388
C42_2 C 0.2217(3) 0.7718(10) 0.3825(5)
H36_2 H 0.2353 0.7390 0.3688
C43_2 C 0.1503(3) 0.5997(11) 0.4413(4)
C44_2 C 0.1205(3) 0.6445(11) 0.4256(5)
H37_2 H 0.1187 0.7169 0.4419
C45_2 C 0.0928(3) 0.5837(11) 0.3856(5)
H38_2 H 0.0719 0.6149 0.3744
C46_3 C 0.0951(3) 0.4787(9) 0.3619(4)
C47_3 C 0.1262(3) 0.4347(10) 0.3788(5)
H39_3 H 0.1280 0.3622 0.3626
C48_3 C 0.1536(3) 0.4930(10) 0.4176(5)
H40_3 H 0.1746 0.4627 0.4286
C49_3 C 0.0656(3) 0.4080(11) 0.3202(5)
C50_4 C 0.0174(3) 0.1692(9) 0.1953(5)
H41_4 H 0.0326 0.1525 0.2365
C51_4 C 0.0167(3) 0.0962(11) 0.1517(5)
H42_4 H 0.0306 0.0301 0.1639
C62_2 C 0.2699(4) 0.6494(13) 0.0152(6)
H53_2 H 0.2709 0.5631 0.0168
H54_2 H 0.2924 0.6793 0.0320
N20_2 N 0.0017(2) 0.2611(8) 0.3169(4)
N7_4 N 0.0045(3) 0.0553(9) 0.4545(4)
C52_4 C 0.0042(3) 0.1169(10) 0.4099(5)
C53_4 C 0.0246(3) 0.2152(10) 0.4218(5)
H43_4 H 0.0400 0.2348 0.4625
C54_4 C 0.0226(3) 0.2835(10) 0.3750(4)
H44_4 H 0.0367 0.3488 0.3849
C56_3 C 0.0267(4) 0.0758(12) 0.5186(5)
H47_3 H 0.0355 0.1560 0.5238
H48_3 H 0.0453 0.0210 0.5328
C69_3 C 0.0115(4) 0.0617(11) 0.5567(5)
H61_3 H 0.0284 0.0689 0.5999
O4_2 O 0.4677(2) 0.1661(9) 0.0196(4)
O21 O 0.7115(2) 0.9071(8) 0.0223(4)
O22 O 0.6781(3) 0.7394(10) 0.0238(4)
C55_3 C 0.0115(4) 0.9383(11) 0.0567(5)
H45_3 H 0.0284 0.9311 0.0999
C70_3 C 0.0267(4) 0.9242(12) 0.0186(5)
H63_3 H 0.0355 0.8440 0.0238
H64_3 H 0.0453 0.9790 0.0328
O21_2 O 0.2115(2) 0.4071(8) 0.0223(4)
O22_2 O 0.1781(3) 0.2394(10) 0.0238(4)
N11_3 N 0.0045(3) 0.9447(9) 0.9545(4)
N12_3 N 0.0017(2) 0.7389(8) 0.8169(4)
C66_3 C 0.0042(3) 0.8831(10) 0.9099(5)
C67_3 C 0.0246(3) 0.7848(10) 0.9218(5)
H59_3 H 0.0400 0.7652 0.9625
C68_3 C 0.0226(3) 0.7165(10) 0.8750(4)
H60_3 H 0.0367 0.6512 0.8849
Zn8_2 Zn 0.0000 0.63496(14) 0.7500
H46_3 H 0.9951 0.8762 0.0471
H46_4 H 0.0049 0.8762 0.4529
C64_3 C 0.0174(3) 0.8308(9) 0.6953(5)
H57_3 H 0.0326 0.8475 0.7365
C65_3 C 0.0167(3) 0.9038(11) 0.6517(5)
H58_3 H 0.0306 0.9699 0.6639
Zn2_2 Zn 0.73134(3) 0.54570(10) 0.24984(5)
S1_4 S 0.55801(8) 0.9189(3) 0.01218(13)
S2_3 S 0.68607(8) 0.1785(3) 0.49064(12)
O5_4 O 0.67427(19) 0.5359(7) 0.1815(3)
O6_4 O 0.7049(2) 0.6938(7) 0.2059(3)
O7_4 O 0.7097(2) 0.5591(6) 0.3172(3)
O8_3 O 0.72822(19) 0.4016(7) 0.2942(3)
O9_3 O 0.7115(2) 0.0929(8) 0.5223(4)
O10_3 O 0.6781(3) 0.2606(10) 0.5238(4)
N5_2 N 0.7407(2) 0.4853(7) 0.1844(4)
N6_3 N 0.7492(2) 0.3143(8) 0.0469(4)
H17_4 H 0.5111 0.9823 0.1371
C18_4 C 0.5297(3) 0.9505(11) 0.0816(6)
H18_4 H 0.5200 0.8760 0.0676
C19_4 C 0.5497(3) 0.9992(10) 0.0627(5)
C22_4 C 0.5935(3) 0.8403(11) 0.0610(5)
C23_4 C 0.5902(3) 0.7349(10) 0.0843(5)
H21_4 H 0.5692 0.7071 0.0744
C24_4 C 0.6178(3) 0.6706(10) 0.1220(5)
H22_4 H 0.6159 0.5965 0.1367
C25_4 C 0.6481(3) 0.7155(9) 0.1378(5)
C26_4 C 0.6510(3) 0.8220(10) 0.1159(5)
H23_4 H 0.6721 0.8522 0.1278
C27_4 C 0.6232(3) 0.8864(11) 0.0764(5)
H24_4 H 0.6251 0.9596 0.0608
C28_4 C 0.6777(3) 0.6442(10) 0.1779(5)
C29_3 C 0.7592(3) 0.3909(9) 0.1954(5)
H25_3 H 0.7712 0.3635 0.2360
C30_3 C 0.7619(3) 0.3312(10) 0.1519(5)
H26_3 H 0.7750 0.2627 0.1626
C31_3 C 0.7459(3) 0.3687(10) 0.0919(5)
C32_3 C 0.7278(3) 0.4736(9) 0.0810(5)
H27_3 H 0.7173 0.5077 0.0418
C33_3 C 0.7254(3) 0.5251(10) 0.1268(5)
H28_3 H 0.7123 0.5932 0.1177
C35_3 C 0.7567(5) 0.1902(13) 0.0520(6)
H31_3 H 0.7725 0.1723 0.0949
H32_3 H 0.7364 0.1461 0.0409
C36_3 C 0.7155(3) 0.4535(10) 0.3216(5)
C37_3 C 0.7076(3) 0.3803(10) 0.3623(4)
C38_3 C 0.6867(3) 0.4277(10) 0.3802(5)
H33_4 H 0.6770 0.5021 0.3658
C39_3 C 0.6802(3) 0.3646(11) 0.4197(5)
H34_3 H 0.6657 0.3949 0.4321
C40_3 C 0.6951(3) 0.2561(11) 0.4412(4)
C41_3 C 0.7156(3) 0.2108(10) 0.4234(5)
H35_3 H 0.7258 0.1376 0.4388
C42_3 C 0.7217(3) 0.2718(10) 0.3825(5)
H36_3 H 0.7353 0.2390 0.3688
C43_3 C 0.6503(3) 0.0997(11) 0.4413(4)
C44_3 C 0.6205(3) 0.1445(11) 0.4256(5)
H37_3 H 0.6187 0.2169 0.4419
C45_3 C 0.5928(3) 0.0837(11) 0.3856(5)
H38_3 H 0.5719 0.1149 0.3744
C62_3 C 0.7699(4) 0.1494(13) 0.0152(6)
H53_3 H 0.7709 0.0631 0.0168
H54_3 H 0.7924 0.1793 0.0320
Zn4_2 Zn 0.26866(3) 0.54570(10) 0.25016(5)
S3_4 S 0.44199(8) 0.9189(3) 0.48782(13)
S4_3 S 0.31393(8) 0.1785(3) 0.00936(12)
O16_4 O 0.4677(2) 0.8339(9) 0.5196(4)
O17_4 O 0.32573(19) 0.5359(7) 0.3185(3)
O18_4 O 0.2951(2) 0.6938(7) 0.2941(3)
O19_4 O 0.2903(2) 0.5591(6) 0.1828(3)
O20_3 O 0.27178(19) 0.4016(7) 0.2058(3)
H81_4 H 0.4889 0.9823 0.3629
C88_4 C 0.4703(3) 0.9505(11) 0.4184(6)
H82_4 H 0.4800 0.8760 0.4324
C89_4 C 0.4503(3) 0.9992(10) 0.4373(5)
C92_4 C 0.4065(3) 0.8403(11) 0.4390(5)
C93_4 C 0.4098(3) 0.7349(10) 0.4157(5)
H85_4 H 0.4308 0.7071 0.4256
C94_4 C 0.3822(3) 0.6706(10) 0.3780(5)
H86_4 H 0.3841 0.5965 0.3633
C95_4 C 0.3519(3) 0.7155(9) 0.3622(5)
C96_4 C 0.3490(3) 0.8220(10) 0.3841(5)
H87_4 H 0.3279 0.8522 0.3722
C97_4 C 0.3768(3) 0.8864(11) 0.4236(5)
H88_4 H 0.3749 0.9596 0.4392
C98_4 C 0.3223(3) 0.6442(10) 0.3221(5)
C99_3 C 0.2845(3) 0.4535(10) 0.1784(5)
C100_3 C 0.2924(3) 0.3803(10) 0.1377(4)
C101_3 C 0.3133(3) 0.4277(10) 0.1198(5)
H89_4 H 0.3230 0.5021 0.1342
C102_3 C 0.3198(3) 0.3646(11) 0.0803(5)
H90_3 H 0.3343 0.3949 0.0679
C103_3 C 0.3049(3) 0.2561(11) 0.0588(4)
C104_3 C 0.2844(3) 0.2108(10) 0.0766(5)
H91_3 H 0.2742 0.1376 0.0612
C105_3 C 0.2783(3) 0.2718(10) 0.1175(5)
H92_3 H 0.2647 0.2390 0.1312
C106_3 C 0.3497(3) 0.0997(11) 0.0587(4)
C107_3 C 0.3795(3) 0.1445(11) 0.0744(5)
H93_3 H 0.3813 0.2169 0.0581
C108_3 C 0.4072(3) 0.0837(11) 0.1144(5)
H94_3 H 0.4281 0.1149 0.1256
N17_2 N 0.7759(2) 0.6064(8) 0.3148(4)
N18_2 N 0.2241(2) 0.6064(8) 0.1852(4)
N19_2 N 0.2593(2) 0.4853(7) 0.3156(4)
N6_4 N 0.2508(2) 0.3143(8) 0.4531(4)
C29_4 C 0.2408(3) 0.3909(9) 0.3046(5)
H25_4 H 0.2288 0.3635 0.2640
C30_4 C 0.2381(3) 0.3312(10) 0.3481(5)
H26_4 H 0.2250 0.2627 0.3374
C31_4 C 0.2541(3) 0.3687(10) 0.4081(5)
C32_4 C 0.2722(3) 0.4736(9) 0.4190(5)
H27_4 H 0.2827 0.5077 0.4582
C33_4 C 0.2746(3) 0.5251(10) 0.3732(5)
H28_4 H 0.2877 0.5932 0.3823
C34_3 C 0.2699(4) 0.3506(13) 0.5152(6)
H29_3 H 0.2709 0.4369 0.5168
H30_3 H 0.2924 0.3207 0.5320
C35_4 C 0.2433(5) 0.1902(13) 0.4480(6)
H31_4 H 0.2275 0.1723 0.4051
H32_4 H 0.2636 0.1461 0.4591
N9_3 N 0.2407(2) 0.0147(7) 0.6844(4)
N10_3 N 0.2492(2) 0.1857(8) 0.5469(4)
C57_3 C 0.2592(3) 0.1091(9) 0.6954(5)
H49_3 H 0.2712 0.1365 0.7360
C58_3 C 0.2619(3) 0.1688(10) 0.6519(5)
H50_3 H 0.2750 0.2373 0.6626
C59_3 C 0.2459(3) 0.1313(10) 0.5919(5)
C60_3 C 0.2278(3) 0.0264(9) 0.5810(5)
C62_4 C 0.2301(4) 0.1494(13) 0.4848(6)
H53_4 H 0.2291 0.0631 0.4832
H54_4 H 0.2076 0.1793 0.4680
C63_3 C 0.2567(5) 0.3098(13) 0.5520(6)
H55_3 H 0.2725 0.3277 0.5949
H56_3 H 0.2364 0.3539 0.5409
S4_4 S 0.18607(8) 0.3215(3) 0.99064(12)
O20_4 O 0.22822(19) 0.0984(7) 0.7942(3)
O23_4 O 0.03859(18) 0.5369(7) 0.7991(3)
O24_4 O 0.0685(2) 0.6957(7) 0.8088(4)
C99_4 C 0.2155(3) 0.0465(10) 0.8216(5)
C100_4 C 0.2076(3) 0.1197(10) 0.8623(4)
C101_4 C 0.1867(3) 0.0723(10) 0.8802(5)
C102_4 C 0.1802(3) 0.1354(11) 0.9197(5)
H90_4 H 0.1657 0.1051 0.9321
C103_4 C 0.1951(3) 0.2439(11) 0.9412(4)
C104_4 C 0.2156(3) 0.2892(10) 0.9234(5)
H91_4 H 0.2258 0.3624 0.9388
C105_4 C 0.2217(3) 0.2282(10) 0.8825(5)
H92_4 H 0.2353 0.2610 0.8688
C106_4 C 0.1503(3) 0.4003(11) 0.9413(4)
C107_4 C 0.1205(3) 0.3555(11) 0.9256(5)
H93_4 H 0.1187 0.2831 0.9419
C108_4 C 0.0928(3) 0.4163(11) 0.8856(5)
H94_4 H 0.0719 0.3851 0.8744
C109_4 C 0.0951(3) 0.5213(9) 0.8619(4)
C110_4 C 0.1262(3) 0.5653(10) 0.8788(5)
H95_4 H 0.1280 0.6378 0.8626
C111_4 C 0.1536(3) 0.5070(10) 0.9176(5)
H96_4 H 0.1746 0.5373 0.9286
C112_4 C 0.0656(3) 0.5920(11) 0.8202(5)
N14_4 N 0.1448(3) 0.7874(9) 0.0495(4)
C71_4 C 0.2111(3) 0.7004(10) 0.1966(4)
H65_4 H 0.2210 0.7271 0.2373
C72_4 C 0.1844(3) 0.7611(10) 0.1536(5)
H66_4 H 0.1761 0.8262 0.1648
C73_4 C 0.1698(3) 0.7255(10) 0.0937(5)
C74_4 C 0.1825(3) 0.6246(10) 0.0816(5)
H67_4 H 0.1723 0.5928 0.0419
C75_4 C 0.2094(3) 0.5727(10) 0.1270(4)
H68_4 H 0.2185 0.5083 0.1169
C77_4 C 0.1279(4) 0.8803(13) 0.0613(6)
H71_4 H 0.1082 0.8475 0.0604
H72_4 H 0.1423 0.9114 0.1025
C78_4 C 0.1179(4) 0.9763(11) 0.0178(5)
N2_4 N 0.8552(3) 0.7874(9) 0.4505(4)
N3_4 N 0.8997(3) 0.9374(9) 0.5449(4)
C1_4 C 0.7889(3) 0.7004(10) 0.3034(4)
H1_4 H 0.7790 0.7271 0.2627
C2_4 C 0.8156(3) 0.7611(10) 0.3464(5)
H2_4 H 0.8239 0.8262 0.3352
C3_4 C 0.8302(3) 0.7255(10) 0.4063(5)
C4_4 C 0.8175(3) 0.6246(10) 0.4184(5)
H3_4 H 0.8277 0.5928 0.4581
C5_4 C 0.7906(3) 0.5727(10) 0.3730(4)
H4_4 H 0.7815 0.5083 0.3831
C6_4 C 0.8739(4) 0.7444(11) 0.5134(5)
H5_4 H 0.8606 0.6870 0.5208
H6_4 H 0.8939 0.7046 0.5195
C7_4 C 0.8721(4) 0.8803(13) 0.4387(6)
H7_4 H 0.8918 0.8475 0.4396
H8_4 H 0.8577 0.9114 0.3975
C8_4 C 0.8821(4) 0.9763(11) 0.4822(5)
C9_4 C 0.8831(3) 0.8424(12) 0.5575(6)
H11_4 H 0.8976 0.8125 0.5989
H12_4 H 0.8631 0.8736 0.5559
C14_4 C 0.9306(3) 0.9927(11) 0.6506(5)
H16_4 H 0.9221 0.9291 0.6622
N15_3 N 0.8997(3) 0.0626(9) 0.0449(4)
C76_3 C 0.8739(4) 0.2556(11) 0.0134(5)
H69_3 H 0.8606 0.3130 0.0208
H70_3 H 0.8939 0.2954 0.0195
C79_3 C 0.8831(3) 0.1576(12) 0.0575(6)
H75_3 H 0.8976 0.1875 0.0989
H76_3 H 0.8631 0.1264 0.0559
C84_3 C 0.9306(3) 0.0073(11) 0.1506(5)
H80_3 H 0.9221 0.0709 0.1622
H73_3 H 0.8624 0.9803 0.9753
H74_3 H 0.8960 0.9693 0.9750
C56_4 C 0.9733(4) 0.0758(12) 0.9814(5)
H47_4 H 0.9645 0.1560 0.9762
H48_4 H 0.9547 0.0210 0.9672
C69_4 C 0.9885(4) 0.0617(11) 0.9433(5)
H61_4 H 0.9716 0.0689 0.9001
O21_3 O 0.7885(2) 0.5929(8) 0.9777(4)
O22_3 O 0.8219(3) 0.7606(10) 0.9762(4)
C64_4 C 0.9826(3) 0.8308(9) 0.8047(5)
H57_4 H 0.9674 0.8475 0.7635
C65_4 C 0.9833(3) 0.9038(11) 0.8483(5)
H58_4 H 0.9694 0.9699 0.8361
Zn8_3 Zn 1.0000 0.63496(14) 0.7500
C55_4 C 0.9885(4) 0.9383(11) 0.4433(5)
H45_4 H 0.9716 0.9311 0.4001
N11_4 N 0.9955(3) 0.9447(9) 0.5455(4)
N12_4 N 0.9983(2) 0.7389(8) 0.6831(4)
C66_4 C 0.9958(3) 0.8831(10) 0.5901(5)
C67_4 C 0.9754(3) 0.7848(10) 0.5782(5)
H59_4 H 0.9600 0.7652 0.5375
C68_4 C 0.9774(3) 0.7165(10) 0.6250(4)
H60_4 H 0.9633 0.6512 0.6151
C70_4 C 0.9733(4) 0.9242(12) 0.4814(5)
H63_4 H 0.9645 0.8440 0.4762
H64_4 H 0.9547 0.9790 0.4672
O4_3 O 0.5323(2) 0.8339(9) 0.9804(4)
C34_4 C 0.7301(4) 0.3506(13) 0.9848(6)
H29_4 H 0.7291 0.4369 0.9832
H30_4 H 0.7076 0.3207 0.9680
N9_4 N 0.7593(2) 0.0147(7) 0.8156(4)
N10_4 N 0.7508(2) 0.1857(8) 0.9531(4)
C57_4 C 0.7408(3) 0.1091(9) 0.8046(5)
H49_4 H 0.7288 0.1365 0.7640
C58_4 C 0.7381(3) 0.1688(10) 0.8481(5)
H50_4 H 0.7250 0.2373 0.8374
C59_4 C 0.7541(3) 0.1313(10) 0.9081(5)
C60_4 C 0.7722(3) 0.0264(9) 0.9190(5)
C63_4 C 0.7433(5) 0.3098(13) 0.9480(6)
H55_4 H 0.7275 0.3277 0.9051
H56_4 H 0.7636 0.3539 0.9591
O21_4 O 0.2885(2) 0.0929(8) 0.9777(4)
O22_4 O 0.3219(3) 0.2606(10) 0.9762(4)
S2_4 S 0.81393(8) 0.3215(3) 0.50936(12)
O8_4 O 0.77178(19) 0.0984(7) 0.7058(3)
O9_4 O 0.7885(2) 0.4071(8) 0.4777(4)
O10_4 O 0.8219(3) 0.2394(10) 0.4762(4)
O11_4 O 0.96141(18) 0.5369(7) 0.7009(3)
O12_4 O 0.9315(2) 0.6957(7) 0.6912(4)
C36_4 C 0.7845(3) 0.0465(10) 0.6784(5)
C37_4 C 0.7924(3) 0.1197(10) 0.6377(4)
C38_4 C 0.8133(3) 0.0723(10) 0.6198(5)
C39_4 C 0.8198(3) 0.1354(11) 0.5803(5)
H34_4 H 0.8343 0.1051 0.5679
C40_4 C 0.8049(3) 0.2439(11) 0.5588(4)
C41_4 C 0.7844(3) 0.2892(10) 0.5766(5)
H35_4 H 0.7742 0.3624 0.5612
C42_4 C 0.7783(3) 0.2282(10) 0.6175(5)
H36_4 H 0.7647 0.2610 0.6312
C43_4 C 0.8497(3) 0.4003(11) 0.5587(4)
C44_4 C 0.8795(3) 0.3555(11) 0.5744(5)
H37_4 H 0.8813 0.2831 0.5581
C45_4 C 0.9072(3) 0.4163(11) 0.6144(5)
H38_4 H 0.9281 0.3851 0.6256
C46_4 C 0.9049(3) 0.5213(9) 0.6381(4)
C47_4 C 0.8738(3) 0.5653(10) 0.6212(5)
H39_4 H 0.8720 0.6378 0.6374
C48_4 C 0.8464(3) 0.5070(10) 0.5824(5)
H40_4 H 0.8254 0.5373 0.5714
C49_4 C 0.9344(3) 0.5920(11) 0.6798(5)
H73_4 H 0.1376 0.0197 0.0247
H74_4 H 0.1040 0.0307 0.0250
N15_4 N 0.1003(3) 0.9374(9) 0.9551(4)
C76_4 C 0.1261(4) 0.7444(11) 0.9866(5)
H69_4 H 0.1394 0.6870 0.9792
H70_4 H 0.1061 0.7046 0.9805
C79_4 C 0.1169(3) 0.8424(12) 0.9425(6)
H75_4 H 0.1024 0.8125 0.9011
H76_4 H 0.1369 0.8736 0.9441
C84_4 C 0.0694(3) 0.9927(11) 0.8494(5)
H80_4 H 0.0779 0.9291 0.8378
O3_4 O 0.9336(3) 0.4995(8) 0.0206(4)
O4_4 O 0.9677(2) 0.6661(9) 0.0196(4)
loop_
_geom_bond_atom_site_label_1
_geom_bond_atom_site_label_2
_geom_bond_site_symmetry_1
_geom_bond_site_symmetry_2
N1 C1 1_555 1_555
N2 C3 1_555 1_555
N3 C8 1_555 1_555
C1 H1 1_555 1_555
C2 C1 1_555 1_555
H2 C2 1_555 1_555
C3 C2 1_555 1_555
C4 C3 1_555 1_555
H3 C4 1_555 1_555
C5 N1 1_555 1_555
H4 C5 1_555 1_555
C6 N2 1_555 1_555
H5 C6 1_555 1_555
H6 C6 1_555 1_555
C7 N2 1_555 1_555
H7 C7 1_555 1_555
H8 C7 1_555 1_555
C8 C7 1_555 1_555
C9 N3 1_555 1_555
H11 C9 1_555 1_555
H12 C9 1_555 1_555
H16 C14 1_555 1_555
Zn6 N1 1_555 1_555
C4 C5 1_555 1_555
C6 C9 1_555 1_555
H29 C34 1_555 1_555
H30 C34 1_555 1_555
N9 C57 1_555 1_555
N10 C59 1_555 1_555
C57 H49 1_555 1_555
C58 C57 1_555 1_555
H50 C58 1_555 1_555
C59 C58 1_555 1_555
C60 C59 1_555 1_555
H51 C60 1_555 1_555
C61 N9 1_555 1_555
H52 C61 1_555 1_555
C63 C34 1_555 1_555
H55 C63 1_555 1_555
H56 C63 1_555 1_555
Zn6 N9 1_555 1_555
N10 C63 1_555 1_555
C60 C61 1_555 1_555
N13 C71 1_555 1_555
N14 C73 1_555 1_555
C71 H65 1_555 1_555
C72 C71 1_555 1_555
H66 C72 1_555 1_555
C73 C72 1_555 1_555
C74 C73 1_555 1_555
H67 C74 1_555 1_555
C75 N13 1_555 1_555
H68 C75 1_555 1_555
C77 N14 1_555 1_555
H71 C77 1_555 1_555
H72 C77 1_555 1_555
C78 C77 1_555 1_555
Zn7 N13 1_555 1_555
C74 C75 1_555 1_555
N7 C52 1_555 1_555
N8 Zn3 1_555 1_555
C53 C52 1_555 1_555
H43 C53 1_555 1_555
C54 N8 1_555 1_555
H44 C54 1_555 1_555
O23 Zn3 1_555 1_555
O24 C112 1_555 1_555
C100 C99 1_555 1_555
C101 C100 1_555 1_555
C102 C101 1_555 1_555
H90 C102 1_555 1_555
C103 S4 1_555 1_555
C104 C103 1_555 1_555
H91 C104 1_555 1_555
C105 C100 1_555 1_555
H92 C105 1_555 1_555
C106 S4 1_555 1_555
C107 C106 1_555 1_555
H93 C107 1_555 1_555
C108 C107 1_555 1_555
H94 C108 1_555 1_555
C109 C108 1_555 1_555
C110 C109 1_555 1_555
H95 C110 1_555 1_555
C111 C106 1_555 1_555
H96 C111 1_555 1_555
C112 O23 1_555 1_555
C53 C54 1_555 1_555
O20 C99 1_555 1_555
C102 C103 1_555 1_555
C104 C105 1_555 1_555
C109 C112 1_555 1_555
C110 C111 1_555 1_555
N6 C31 1_555 1_555
C29 N19 1_555 1_555
H25 C29 1_555 1_555
C30 C29 1_555 1_555
H26 C30 1_555 1_555
C31 C30 1_555 1_555
C32 C31 1_555 1_555
C34_2 N6 1_555 1_555
H29_2 C34_2 1_555 1_555
H30_2 C34_2 1_555 1_555
C35 N6 1_555 1_555
H31 C35 1_555 1_555
H32 C35 1_555 1_555
H41 C50 1_555 1_555
C51 C50 1_555 1_555
H42 C51 1_555 1_555
N9_2 C57_2 1_555 1_555
N10_2 C59_2 1_555 1_555
C57_2 H49_2 1_555 1_555
C58_2 C57_2 1_555 1_555
H50_2 C58_2 1_555 1_555
C59_2 C58_2 1_555 1_555
C60_2 C59_2 1_555 1_555
H51_2 C60_2 1_555 1_555
C61_2 N9_2 1_555 1_555
H52_2 C61_2 1_555 1_555
C62 C35 1_555 1_555
H53 C62 1_555 1_555
H54 C62 1_555 1_555
C63_2 C34_2 1_555 1_555
H55_2 C63_2 1_555 1_555
H56_2 C63_2 1_555 1_555
Zn7 N9_2 1_555 1_555
N10_2 C62 1_555 1_555
N10_2 C63_2 1_555 1_555
C60_2 C61_2 1_555 1_555
Zn6 O5 1_555 1_555
S2 O9 1_555 1_555
O5 C28 1_555 1_555
O6 Zn6 1_555 1_555
O7 Zn6 1_555 1_555
O8 Zn6 1_555 1_555
O10 S2 1_555 1_555
H18 C18 1_555 1_555
C19 S1 1_555 1_555
C22 S1 1_555 1_555
C23 C22 1_555 1_555
H21 C23 1_555 1_555
C24 C23 1_555 1_555
H22 C24 1_555 1_555
C25 C24 1_555 1_555
C26 C25 1_555 1_555
H23 C26 1_555 1_555
C27 C22 1_555 1_555
H24 C27 1_555 1_555
C28 O6 1_555 1_555
C36 O7 1_555 1_555
C37 C36 1_555 1_555
C38 C37 1_555 1_555
H33 C38 1_555 1_555
C39 C38 1_555 1_555
H34 C39 1_555 1_555
C40 S2 1_555 1_555
C41 C40 1_555 1_555
H35 C41 1_555 1_555
C42 C37 1_555 1_555
H36 C42 1_555 1_555
C43 S2 1_555 1_555
C44 C43 1_555 1_555
H37 C44 1_555 1_555
C45 C44 1_555 1_555
H38 C45 1_555 1_555
Zn7 O17 1_555 1_555
O16 S3 1_555 1_555
O17 C98 1_555 1_555
O18 Zn7 1_555 1_555
O19 Zn7 1_555 1_555
O20_2 Zn7 1_555 1_555
H82 C88 1_555 1_555
C89 S3 1_555 1_555
C92 S3 1_555 1_555
C93 C92 1_555 1_555
H85 C93 1_555 1_555
C94 C93 1_555 1_555
H86 C94 1_555 1_555
C95 C94 1_555 1_555
C96 C95 1_555 1_555
H87 C96 1_555 1_555
C97 C92 1_555 1_555
H88 C97 1_555 1_555
C98 O18 1_555 1_555
C99_2 O19 1_555 1_555
C100_2 C99_2 1_555 1_555
C101_2 C100_2 1_555 1_555
H89 C101_2 1_555 1_555
C102_2 C101_2 1_555 1_555
H90_2 C102_2 1_555 1_555
C103_2 S4_2 1_555 1_555
C104_2 C103_2 1_555 1_555
H91_2 C104_2 1_555 1_555
C105_2 C100_2 1_555 1_555
H92_2 C105_2 1_555 1_555
C106_2 S4_2 1_555 1_555
C107_2 C106_2 1_555 1_555
H93_2 C107_2 1_555 1_555
C108_2 C107_2 1_555 1_555
H94_2 C108_2 1_555 1_555
O8 C36 1_555 1_555
C18 C19 1_555 1_555
C25 C28 1_555 1_555
C26 C27 1_555 1_555
C39 C40 1_555 1_555
C41 C42 1_555 1_555
O20_2 C99_2 1_555 1_555
C88 C89 1_555 1_555
C95 C98 1_555 1_555
C96 C97 1_555 1_555
C102_2 C103_2 1_555 1_555
C104_2 C105_2 1_555 1_555
Zn1 O1 1_555 1_555
Zn2 O5_2 1_555 1_555
O1 C15 1_555 1_555
O2 C15 1_555 1_555
O5_2 C28_2 1_555 1_555
O6_2 Zn2 1_555 1_555
O7_2 Zn2 1_555 1_555
N4 Zn1 1_555 1_555
C11 C10 1_555 1_555
H13 C11 1_555 1_555
C12 N4 1_555 1_555
H14 C12 1_555 1_555
C13 N4 1_555 1_555
H15 C13 1_555 1_555
C15 C16 1_555 1_555
C16 C17 1_555 1_555
C17 H17_2 1_555 1_555
C18_2 C17 1_555 1_555
H18_2 C18_2 1_555 1_555
C19_2 S1_2 1_555 1_555
C20 C19_2 1_555 1_555
H19 C20 1_555 1_555
C21 C16 1_555 1_555
H20 C21 1_555 1_555
C22_2 S1_2 1_555 1_555
C23_2 C22_2 1_555 1_555
H21_2 C23_2 1_555 1_555
C24_2 C23_2 1_555 1_555
H22_2 C24_2 1_555 1_555
C25_2 C24_2 1_555 1_555
C26_2 C25_2 1_555 1_555
H23_2 C26_2 1_555 1_555
C27_2 C22_2 1_555 1_555
H24_2 C27_2 1_555 1_555
C28_2 O6_2 1_555 1_555
H28 C33 1_555 1_555
N17 Zn2 1_555 1_555
C11 C12 1_555 1_555
C18_2 C19_2 1_555 1_555
C20 C21 1_555 1_555
C25_2 C28_2 1_555 1_555
C26_2 C27_2 1_555 1_555
Zn4 O17_2 1_555 1_555
S3_2 O15 1_555 1_555
O13 Zn1_2 1_555 1_555
O14 C85 1_555 1_555
O16_2 S3_2 1_555 1_555
O17_2 C98_2 1_555 1_555
O18_2 Zn4 1_555 1_555
O19_2 Zn4 1_555 1_555
N16 Zn1_2 1_555 1_555
C81 C80 1_555 1_555
H77 C81 1_555 1_555
C82 N16 1_555 1_555
H78 C82 1_555 1_555
C83 N16 1_555 1_555
H79 C83 1_555 1_555
C85 O13 1_555 1_555
C86 C85 1_555 1_555
C87 C86 1_555 1_555
H81_2 C87 1_555 1_555
C88_2 C87 1_555 1_555
H82_2 C88_2 1_555 1_555
C89_2 S3_2 1_555 1_555
C90 C89_2 1_555 1_555
H83 C90 1_555 1_555
C91 C86 1_555 1_555
H84 C91 1_555 1_555
C92_2 S3_2 1_555 1_555
C93_2 C92_2 1_555 1_555
H85_2 C93_2 1_555 1_555
C94_2 C93_2 1_555 1_555
H86_2 C94_2 1_555 1_555
C95_2 C94_2 1_555 1_555
C96_2 C95_2 1_555 1_555
H87_2 C96_2 1_555 1_555
C97_2 C92_2 1_555 1_555
H88_2 C97_2 1_555 1_555
C98_2 O18_2 1_555 1_555
N18 Zn4 1_555 1_555
C81 C82 1_555 1_555
C88_2 C89_2 1_555 1_555
C90 C91 1_555 1_555
C95_2 C98_2 1_555 1_555
C96_2 C97_2 1_555 1_555
H28_2 C33_2 1_555 1_555
Zn1_3 O1_2 1_555 1_555
O1_2 C15_2 1_555 1_555
O2_2 C15_2 1_555 1_555
N1_2 C1_2 1_555 1_555
N2_2 C3_2 1_555 1_555
N3_2 C8_2 1_555 1_555
N4_2 Zn1_3 1_555 1_555
C1_2 H1_2 1_555 1_555
C2_2 C1_2 1_555 1_555
H2_2 C2_2 1_555 1_555
C3_2 C2_2 1_555 1_555
C4_2 C3_2 1_555 1_555
H3_2 C4_2 1_555 1_555
C5_2 N1_2 1_555 1_555
H4_2 C5_2 1_555 1_555
C6_2 N2_2 1_555 1_555
H5_2 C6_2 1_555 1_555
H6_2 C6_2 1_555 1_555
C7_2 N2_2 1_555 1_555
H7_2 C7_2 1_555 1_555
H8_2 C7_2 1_555 1_555
C8_2 C7_2 1_555 1_555
H9_2 C8_2 1_555 1_555
H10_2 C8_2 1_555 1_555
C9_2 N3_2 1_555 1_555
H11_2 C9_2 1_555 1_555
H12_2 C9_2 1_555 1_555
C10_2 N3_2 1_555 1_555
C11_2 C10_2 1_555 1_555
H13_2 C11_2 1_555 1_555
C12_2 N4_2 1_555 1_555
H14_2 C12_2 1_555 1_555
C13_2 N4_2 1_555 1_555
H15_2 C13_2 1_555 1_555
C14_2 C10_2 1_555 1_555
H16_2 C14_2 1_555 1_555
C15_2 C16_2 1_555 1_555
C16_2 C17_2 1_555 1_555
H19_2 C20_2 1_555 1_555
C21_2 C16_2 1_555 1_555
H20_2 C21_2 1_555 1_555
O13_2 Zn1_3 1_555 1_555
O14_2 C85_2 1_555 1_555
N16_2 Zn1_3 1_555 1_555
H69 C76 1_555 1_555
H70 C76 1_555 1_555
C79 N15 1_555 1_555
H75 C79 1_555 1_555
H76 C79 1_555 1_555
C80_2 N15 1_555 1_555
C81_2 C80_2 1_555 1_555
H77_2 C81_2 1_555 1_555
C82_2 N16_2 1_555 1_555
H78_2 C82_2 1_555 1_555
C83_2 N16_2 1_555 1_555
H79_2 C83_2 1_555 1_555
C84 C80_2 1_555 1_555
H80 C84 1_555 1_555
C85_2 O13_2 1_555 1_555
C86_2 C85_2 1_555 1_555
C87_2 C86_2 1_555 1_555
H83_2 C90_2 1_555 1_555
C91_2 C86_2 1_555 1_555
H84_2 C91_2 1_555 1_555
Zn6_2 N1_2 1_555 1_555
C4_2 C5_2 1_555 1_555
C6_2 C9_2 1_555 1_555
C11_2 C12_2 1_555 1_555
C13_2 C14_2 1_555 1_555
C20_2 C21_2 1_555 1_555
C76 C79 1_555 1_555
C81_2 C82_2 1_555 1_555
C83_2 C84 1_555 1_555
C90_2 C91_2 1_555 1_555
N13_2 C71_2 1_555 1_555
N14_2 C73_2 1_555 1_555
C71_2 H65_2 1_555 1_555
C72_2 C71_2 1_555 1_555
H66_2 C72_2 1_555 1_555
C73_2 C72_2 1_555 1_555
C74_2 C73_2 1_555 1_555
H67_2 C74_2 1_555 1_555
C75_2 N13_2 1_555 1_555
H68_2 C75_2 1_555 1_555
C77_2 N14_2 1_555 1_555
H71_2 C77_2 1_555 1_555
H72_2 C77_2 1_555 1_555
C78_2 C77_2 1_555 1_555
H73 C78_2 1_555 1_555
H74 C78_2 1_555 1_555
Zn7_2 N13_2 1_555 1_555
C74_2 C75_2 1_555 1_555
Zn3_2 O11 1_555 1_555
O11 C49 1_555 1_555
O12 C49 1_555 1_555
N7_2 C52_2 1_555 1_555
N8_2 Zn3_2 1_555 1_555
C47 C46 1_555 1_555
H39 C47 1_555 1_555
H40 C48 1_555 1_555
C49 C46 1_555 1_555
C50_2 N8_2 1_555 1_555
H41_2 C50_2 1_555 1_555
C51_2 C50_2 1_555 1_555
H42_2 C51_2 1_555 1_555
C52_2 C51_2 1_555 1_555
C53_2 C52_2 1_555 1_555
H43_2 C53_2 1_555 1_555
C54_2 N8_2 1_555 1_555
H44_2 C54_2 1_555 1_555
C55 N7_2 1_555 1_555
H45 C55 1_555 1_555
H46 C55 1_555 1_555
C70 C55 1_555 1_555
H63 C70 1_555 1_555
H64 C70 1_555 1_555
O23_2 Zn3_2 1_555 1_555
O24_2 C112_2 1_555 1_555
C110_2 C109_2 1_555 1_555
H95_2 C110_2 1_555 1_555
H96_2 C111_2 1_555 1_555
C112_2 O23_2 1_555 1_555
N20 Zn3_2 1_555 1_555
C47 C48 1_555 1_555
C53_2 C54_2 1_555 1_555
C109_2 C112_2 1_555 1_555
C110_2 C111_2 1_555 1_555
H47 C56 1_555 1_555
H48 C56 1_555 1_555
H52_3 C61_3 1_555 1_555
N11 C66 1_555 1_555
N12 C64 1_555 1_555
C64 H57 1_555 1_555
C65 C64 1_555 1_555
H58 C65 1_555 1_555
C66 C65 1_555 1_555
C67 C66 1_555 1_555
H59 C67 1_555 1_555
C68 N12 1_555 1_555
H60 C68 1_555 1_555
C69 C56 1_555 1_555
H61 C69 1_555 1_555
H62_3 C69 1_555 1_555
Zn8 N12 1_555 1_555
N11 C69 1_555 1_555
C67 C68 1_555 1_555
N7_3 C52_3 1_555 1_555
C50_3 N20 1_555 1_555
H41_3 C50_3 1_555 1_555
C51_3 C50_3 1_555 1_555
H42_3 C51_3 1_555 1_555
C52_3 C51_3 1_555 1_555
C53_3 C52_3 1_555 1_555
H43_3 C53_3 1_555 1_555
C54_3 N20 1_555 1_555
H44_3 C54_3 1_555 1_555
C55_2 N7_3 1_555 1_555
H45_2 C55_2 1_555 1_555
H46_2 C55_2 1_555 1_555
C56_2 N7_3 1_555 1_555
H47_2 C56_2 1_555 1_555
H48_2 C56_2 1_555 1_555
H52_4 C61_4 1_555 1_555
N11_2 C66_2 1_555 1_555
N12_2 C64_2 1_555 1_555
C64_2 H57_2 1_555 1_555
C65_2 C64_2 1_555 1_555
H58_2 C65_2 1_555 1_555
C66_2 C65_2 1_555 1_555
C67_2 C66_2 1_555 1_555
H59_2 C67_2 1_555 1_555
C68_2 N12_2 1_555 1_555
H60_2 C68_2 1_555 1_555
C69_2 C56_2 1_555 1_555
H61_2 C69_2 1_555 1_555
H62_4 C69_2 1_555 1_555
C70_2 C55_2 1_555 1_555
H63_2 C70_2 1_555 1_555
H64_2 C70_2 1_555 1_555
Zn8 N12_2 1_555 1_555
C53_3 C54_3 1_555 1_555
N11_2 C69_2 1_555 1_555
N11_2 C70_2 1_555 1_555
C67_2 C68_2 1_555 1_555
Zn7_2 O17_3 1_555 1_555
S3_3 O15_3 1_555 1_555
O13_3 Zn1_4 1_555 1_555
O14_3 C85_3 1_555 1_555
O16_3 S3_3 1_555 1_555
O17_3 C98_3 1_555 1_555
O18_3 Zn7_2 1_555 1_555
O19_3 Zn7_2 1_555 1_555
N16_3 Zn1_4 1_555 1_555
C81_3 C80_3 1_555 1_555
H77_3 C81_3 1_555 1_555
C82_3 N16_3 1_555 1_555
H78_3 C82_3 1_555 1_555
C83_3 N16_3 1_555 1_555
H79_3 C83_3 1_555 1_555
C85_3 O13_3 1_555 1_555
C86_3 C85_3 1_555 1_555
C87_3 C86_3 1_555 1_555
H81_3 C87_3 1_555 1_555
C88_3 C87_3 1_555 1_555
H82_3 C88_3 1_555 1_555
C89_3 S3_3 1_555 1_555
C90_3 C89_3 1_555 1_555
H83_3 C90_3 1_555 1_555
C91_3 C86_3 1_555 1_555
H84_3 C91_3 1_555 1_555
C92_3 S3_3 1_555 1_555
C93_3 C92_3 1_555 1_555
H85_3 C93_3 1_555 1_555
C94_3 C93_3 1_555 1_555
H86_3 C94_3 1_555 1_555
C95_3 C94_3 1_555 1_555
C96_3 C95_3 1_555 1_555
H87_3 C96_3 1_555 1_555
C97_3 C92_3 1_555 1_555
H88_3 C97_3 1_555 1_555
C98_3 O18_3 1_555 1_555
C81_3 C82_3 1_555 1_555
C88_3 C89_3 1_555 1_555
C90_3 C91_3 1_555 1_555
C95_3 C98_3 1_555 1_555
C96_3 C97_3 1_555 1_555
Zn1_5 O1_3 1_555 1_555
Zn6_2 O5_3 1_555 1_555
O1_3 C15_3 1_555 1_555
O2_3 C15_3 1_555 1_555
O5_3 C28_3 1_555 1_555
O6_3 Zn6_2 1_555 1_555
O7_3 Zn6_2 1_555 1_555
N4_3 Zn1_5 1_555 1_555
C11_3 C10_3 1_555 1_555
H13_3 C11_3 1_555 1_555
C12_3 N4_3 1_555 1_555
H14_3 C12_3 1_555 1_555
C13_3 N4_3 1_555 1_555
H15_3 C13_3 1_555 1_555
C15_3 C16_3 1_555 1_555
C16_3 C17_3 1_555 1_555
C17_3 H17_3 1_555 1_555
C18_3 C17_3 1_555 1_555
H18_3 C18_3 1_555 1_555
C19_3 S1_3 1_555 1_555
C20_3 C19_3 1_555 1_555
H19_3 C20_3 1_555 1_555
C21_3 C16_3 1_555 1_555
H20_3 C21_3 1_555 1_555
C22_3 S1_3 1_555 1_555
C23_3 C22_3 1_555 1_555
H21_3 C23_3 1_555 1_555
C24_3 C23_3 1_555 1_555
H22_3 C24_3 1_555 1_555
C25_3 C24_3 1_555 1_555
C26_3 C25_3 1_555 1_555
H23_3 C26_3 1_555 1_555
C27_3 C22_3 1_555 1_555
H24_3 C27_3 1_555 1_555
C28_3 O6_3 1_555 1_555
C11_3 C12_3 1_555 1_555
C18_3 C19_3 1_555 1_555
C20_3 C21_3 1_555 1_555
C25_3 C28_3 1_555 1_555
C26_3 C27_3 1_555 1_555
Zn8 O11_2 1_555 1_555
O11_2 C49_2 1_555 1_555
O12_2 C49_2 1_555 1_555
C47_2 C46_2 1_555 1_555
H39_2 C47_2 1_555 1_555
H40_2 C48_2 1_555 1_555
C49_2 C46_2 1_555 1_555
O23_3 Zn8 1_555 1_555
O24_3 C112_3 1_555 1_555
C110_3 C109_3 1_555 1_555
H95_3 C110_3 1_555 1_555
H96_3 C111_3 1_555 1_555
C112_3 O23_3 1_555 1_555
C47_2 C48_2 1_555 1_555
C109_3 C112_3 1_555 1_555
C110_3 C111_3 1_555 1_555
N18 C71_3 1_555 1_555
N14_3 C73_3 1_555 1_555
C71_3 H65_3 1_555 1_555
C72_3 C71_3 1_555 1_555
H66_3 C72_3 1_555 1_555
C73_3 C72_3 1_555 1_555
C74_3 C73_3 1_555 1_555
H67_3 C74_3 1_555 1_555
C75_3 N18 1_555 1_555
H68_3 C75_3 1_555 1_555
C77_3 N14_3 1_555 1_555
H71_3 C77_3 1_555 1_555
H72_3 C77_3 1_555 1_555
C78_3 C77_3 1_555 1_555
H73_2 C78_3 1_555 1_555
H74_2 C78_3 1_555 1_555
C74_3 C75_3 1_555 1_555
Zn1_6 O1_4 1_555 1_555
O1_4 C15_4 1_555 1_555
O2_4 C15_4 1_555 1_555
N17 C1_3 1_555 1_555
N2_3 C3_3 1_555 1_555
N3_3 C8_3 1_555 1_555
N4_4 Zn1_6 1_555 1_555
C1_3 H1_3 1_555 1_555
C2_3 C1_3 1_555 1_555
H2_3 C2_3 1_555 1_555
C3_3 C2_3 1_555 1_555
C4_3 C3_3 1_555 1_555
H3_3 C4_3 1_555 1_555
C5_3 N17 1_555 1_555
H4_3 C5_3 1_555 1_555
C6_3 N2_3 1_555 1_555
H5_3 C6_3 1_555 1_555
H6_3 C6_3 1_555 1_555
C7_3 N2_3 1_555 1_555
H7_3 C7_3 1_555 1_555
H8_3 C7_3 1_555 1_555
C8_3 C7_3 1_555 1_555
H9_4 C8_3 1_555 1_555
H10_4 C8_3 1_555 1_555
C9_3 N3_3 1_555 1_555
H11_3 C9_3 1_555 1_555
H12_3 C9_3 1_555 1_555
C10_4 N3_3 1_555 1_555
C11_4 C10_4 1_555 1_555
H13_4 C11_4 1_555 1_555
C12_4 N4_4 1_555 1_555
H14_4 C12_4 1_555 1_555
C13_4 N4_4 1_555 1_555
H15_4 C13_4 1_555 1_555
C14_3 C10_4 1_555 1_555
H16_3 C14_3 1_555 1_555
C15_4 C16_4 1_555 1_555
C16_4 C17_4 1_555 1_555
H19_4 C20_4 1_555 1_555
C21_4 C16_4 1_555 1_555
H20_4 C21_4 1_555 1_555
O13_4 Zn1_6 1_555 1_555
O14_4 C85_4 1_555 1_555
N16_4 Zn1_6 1_555 1_555
H69_2 C76_2 1_555 1_555
H70_2 C76_2 1_555 1_555
C79_2 N15_2 1_555 1_555
H75_2 C79_2 1_555 1_555
H76_2 C79_2 1_555 1_555
C80_4 N15_2 1_555 1_555
C81_4 C80_4 1_555 1_555
H77_4 C81_4 1_555 1_555
C82_4 N16_4 1_555 1_555
H78_4 C82_4 1_555 1_555
C83_4 N16_4 1_555 1_555
H79_4 C83_4 1_555 1_555
C84_2 C80_4 1_555 1_555
H80_2 C84_2 1_555 1_555
C85_4 O13_4 1_555 1_555
C86_4 C85_4 1_555 1_555
C87_4 C86_4 1_555 1_555
H83_4 C90_4 1_555 1_555
C91_4 C86_4 1_555 1_555
H84_4 C91_4 1_555 1_555
C4_3 C5_3 1_555 1_555
C6_3 C9_3 1_555 1_555
C11_4 C12_4 1_555 1_555
C13_4 C14_3 1_555 1_555
C20_4 C21_4 1_555 1_555
C76_2 C79_2 1_555 1_555
C81_4 C82_4 1_555 1_555
C83_4 C84_2 1_555 1_555
C90_4 C91_4 1_555 1_555
Zn3_3 O11_3 1_555 1_555
S2_2 O9_2 1_555 1_555
O10_2 S2_2 1_555 1_555
O11_3 C49_3 1_555 1_555
O12_3 C49_3 1_555 1_555
N6_2 C31_2 1_555 1_555
C29_2 N5 1_555 1_555
H25_2 C29_2 1_555 1_555
C30_2 C29_2 1_555 1_555
H26_2 C30_2 1_555 1_555
C31_2 C30_2 1_555 1_555
C32_2 C31_2 1_555 1_555
C35_2 N6_2 1_555 1_555
H31_2 C35_2 1_555 1_555
H32_2 C35_2 1_555 1_555
C37_2 C36_2 1_555 1_555
C38_2 C37_2 1_555 1_555
C39_2 C38_2 1_555 1_555
H34_2 C39_2 1_555 1_555
C40_2 S2_2 1_555 1_555
C41_2 C40_2 1_555 1_555
H35_2 C41_2 1_555 1_555
C42_2 C37_2 1_555 1_555
H36_2 C42_2 1_555 1_555
C43_2 S2_2 1_555 1_555
C44_2 C43_2 1_555 1_555
H37_2 C44_2 1_555 1_555
C45_2 C44_2 1_555 1_555
H38_2 C45_2 1_555 1_555
C46_3 C45_2 1_555 1_555
C47_3 C46_3 1_555 1_555
H39_3 C47_3 1_555 1_555
C48_3 C43_2 1_555 1_555
H40_3 C48_3 1_555 1_555
C49_3 C46_3 1_555 1_555
H41_4 C50_4 1_555 1_555
C51_4 C50_4 1_555 1_555
H42_4 C51_4 1_555 1_555
C62_2 C35_2 1_555 1_555
H53_2 C62_2 1_555 1_555
H54_2 C62_2 1_555 1_555
N20_2 Zn3_3 1_555 1_555
O8_2 C36_2 1_555 1_555
C39_2 C40_2 1_555 1_555
C41_2 C42_2 1_555 1_555
C47_3 C48_3 1_555 1_555
N7_4 C52_4 1_555 1_555
C53_4 C52_4 1_555 1_555
H43_4 C53_4 1_555 1_555
C54_4 N20_2 1_555 1_555
H44_4 C54_4 1_555 1_555
C56_3 N7_4 1_555 1_555
H47_3 C56_3 1_555 1_555
H48_3 C56_3 1_555 1_555
C69_3 C56_3 1_555 1_555
H61_3 C69_3 1_555 1_555
C53_4 C54_4 1_555 1_555
H45_3 C55_3 1_555 1_555
C70_3 C55_3 1_555 1_555
H63_3 C70_3 1_555 1_555
H64_3 C70_3 1_555 1_555
N11_3 C66_3 1_555 1_555
C67_3 C66_3 1_555 1_555
H59_3 C67_3 1_555 1_555
C68_3 N12_3 1_555 1_555
H60_3 C68_3 1_555 1_555
Zn8_2 N12_3 1_555 1_555
C67_3 C68_3 1_555 1_555
C64_3 H57_3 1_555 1_555
C65_3 C64_3 1_555 1_555
H58_3 C65_3 1_555 1_555
Zn2_2 O5_4 1_555 1_555
S2_3 O9_3 1_555 1_555
O5_4 C28_4 1_555 1_555
O6_4 Zn2_2 1_555 1_555
O7_4 Zn2_2 1_555 1_555
O8_3 Zn2_2 1_555 1_555
O10_3 S2_3 1_555 1_555
N5_2 Zn2_2 1_555 1_555
N6_3 C31_3 1_555 1_555
H18_4 C18_4 1_555 1_555
C19_4 S1_4 1_555 1_555
C22_4 S1_4 1_555 1_555
C23_4 C22_4 1_555 1_555
H21_4 C23_4 1_555 1_555
C24_4 C23_4 1_555 1_555
H22_4 C24_4 1_555 1_555
C25_4 C24_4 1_555 1_555
C26_4 C25_4 1_555 1_555
H23_4 C26_4 1_555 1_555
C27_4 C22_4 1_555 1_555
H24_4 C27_4 1_555 1_555
C28_4 O6_4 1_555 1_555
C29_3 N5_2 1_555 1_555
H25_3 C29_3 1_555 1_555
C30_3 C29_3 1_555 1_555
H26_3 C30_3 1_555 1_555
C31_3 C30_3 1_555 1_555
C32_3 C31_3 1_555 1_555
H27_3 C32_3 1_555 1_555
C33_3 N5_2 1_555 1_555
H28_3 C33_3 1_555 1_555
C35_3 N6_3 1_555 1_555
H31_3 C35_3 1_555 1_555
H32_3 C35_3 1_555 1_555
C36_3 O7_4 1_555 1_555
C37_3 C36_3 1_555 1_555
C38_3 C37_3 1_555 1_555
H33_4 C38_3 1_555 1_555
C39_3 C38_3 1_555 1_555
H34_3 C39_3 1_555 1_555
C40_3 S2_3 1_555 1_555
C41_3 C40_3 1_555 1_555
H35_3 C41_3 1_555 1_555
C42_3 C37_3 1_555 1_555
H36_3 C42_3 1_555 1_555
C43_3 S2_3 1_555 1_555
C44_3 C43_3 1_555 1_555
H37_3 C44_3 1_555 1_555
C45_3 C44_3 1_555 1_555
H38_3 C45_3 1_555 1_555
C62_3 C35_3 1_555 1_555
H53_3 C62_3 1_555 1_555
H54_3 C62_3 1_555 1_555
Zn4_2 O17_4 1_555 1_555
O16_4 S3_4 1_555 1_555
O17_4 C98_4 1_555 1_555
O18_4 Zn4_2 1_555 1_555
O19_4 Zn4_2 1_555 1_555
O20_3 Zn4_2 1_555 1_555
H82_4 C88_4 1_555 1_555
C89_4 S3_4 1_555 1_555
C92_4 S3_4 1_555 1_555
C93_4 C92_4 1_555 1_555
H85_4 C93_4 1_555 1_555
C94_4 C93_4 1_555 1_555
H86_4 C94_4 1_555 1_555
C95_4 C94_4 1_555 1_555
C96_4 C95_4 1_555 1_555
H87_4 C96_4 1_555 1_555
C97_4 C92_4 1_555 1_555
H88_4 C97_4 1_555 1_555
C98_4 O18_4 1_555 1_555
C99_3 O19_4 1_555 1_555
C100_3 C99_3 1_555 1_555
C101_3 C100_3 1_555 1_555
H89_4 C101_3 1_555 1_555
C102_3 C101_3 1_555 1_555
H90_3 C102_3 1_555 1_555
C103_3 S4_3 1_555 1_555
C104_3 C103_3 1_555 1_555
H91_3 C104_3 1_555 1_555
C105_3 C100_3 1_555 1_555
H92_3 C105_3 1_555 1_555
C106_3 S4_3 1_555 1_555
C107_3 C106_3 1_555 1_555
H93_3 C107_3 1_555 1_555
C108_3 C107_3 1_555 1_555
H94_3 C108_3 1_555 1_555
N17_2 Zn2_2 1_555 1_555
N18_2 Zn4_2 1_555 1_555
N19_2 Zn4_2 1_555 1_555
O8_3 C36_3 1_555 1_555
C18_4 C19_4 1_555 1_555
C25_4 C28_4 1_555 1_555
C26_4 C27_4 1_555 1_555
C32_3 C33_3 1_555 1_555
C39_3 C40_3 1_555 1_555
C41_3 C42_3 1_555 1_555
O20_3 C99_3 1_555 1_555
C88_4 C89_4 1_555 1_555
C95_4 C98_4 1_555 1_555
C96_4 C97_4 1_555 1_555
C102_3 C103_3 1_555 1_555
C104_3 C105_3 1_555 1_555
N6_4 C31_4 1_555 1_555
C29_4 N19_2 1_555 1_555
H25_4 C29_4 1_555 1_555
C30_4 C29_4 1_555 1_555
H26_4 C30_4 1_555 1_555
C31_4 C30_4 1_555 1_555
C32_4 C31_4 1_555 1_555
H27_4 C32_4 1_555 1_555
C33_4 N19_2 1_555 1_555
H28_4 C33_4 1_555 1_555
C34_3 N6_4 1_555 1_555
H29_3 C34_3 1_555 1_555
H30_3 C34_3 1_555 1_555
C35_4 N6_4 1_555 1_555
H31_4 C35_4 1_555 1_555
H32_4 C35_4 1_555 1_555
N9_3 C57_3 1_555 1_555
N10_3 C59_3 1_555 1_555
C57_3 H49_3 1_555 1_555
C58_3 C57_3 1_555 1_555
H50_3 C58_3 1_555 1_555
C59_3 C58_3 1_555 1_555
C60_3 C59_3 1_555 1_555
C62_4 C35_4 1_555 1_555
H53_4 C62_4 1_555 1_555
H54_4 C62_4 1_555 1_555
C63_3 C34_3 1_555 1_555
H55_3 C63_3 1_555 1_555
H56_3 C63_3 1_555 1_555
C32_4 C33_4 1_555 1_555
N10_3 C62_4 1_555 1_555
N10_3 C63_3 1_555 1_555
O23_4 Zn8_2 1_555 1_555
O24_4 C112_4 1_555 1_555
C100_4 C99_4 1_555 1_555
C101_4 C100_4 1_555 1_555
C102_4 C101_4 1_555 1_555
H90_4 C102_4 1_555 1_555
C103_4 S4_4 1_555 1_555
C104_4 C103_4 1_555 1_555
H91_4 C104_4 1_555 1_555
C105_4 C100_4 1_555 1_555
H92_4 C105_4 1_555 1_555
C106_4 S4_4 1_555 1_555
C107_4 C106_4 1_555 1_555
H93_4 C107_4 1_555 1_555
C108_4 C107_4 1_555 1_555
H94_4 C108_4 1_555 1_555
C109_4 C108_4 1_555 1_555
C110_4 C109_4 1_555 1_555
H95_4 C110_4 1_555 1_555
C111_4 C106_4 1_555 1_555
H96_4 C111_4 1_555 1_555
C112_4 O23_4 1_555 1_555
O20_4 C99_4 1_555 1_555
C102_4 C103_4 1_555 1_555
C104_4 C105_4 1_555 1_555
C109_4 C112_4 1_555 1_555
C110_4 C111_4 1_555 1_555
N18_2 C71_4 1_555 1_555
N14_4 C73_4 1_555 1_555
C71_4 H65_4 1_555 1_555
C72_4 C71_4 1_555 1_555
H66_4 C72_4 1_555 1_555
C73_4 C72_4 1_555 1_555
C74_4 C73_4 1_555 1_555
H67_4 C74_4 1_555 1_555
C75_4 N18_2 1_555 1_555
H68_4 C75_4 1_555 1_555
C77_4 N14_4 1_555 1_555
H71_4 C77_4 1_555 1_555
H72_4 C77_4 1_555 1_555
C78_4 C77_4 1_555 1_555
C74_4 C75_4 1_555 1_555
N17_2 C1_4 1_555 1_555
N2_4 C3_4 1_555 1_555
N3_4 C8_4 1_555 1_555
C1_4 H1_4 1_555 1_555
C2_4 C1_4 1_555 1_555
H2_4 C2_4 1_555 1_555
C3_4 C2_4 1_555 1_555
C4_4 C3_4 1_555 1_555
H3_4 C4_4 1_555 1_555
C5_4 N17_2 1_555 1_555
H4_4 C5_4 1_555 1_555
C6_4 N2_4 1_555 1_555
H5_4 C6_4 1_555 1_555
H6_4 C6_4 1_555 1_555
C7_4 N2_4 1_555 1_555
H7_4 C7_4 1_555 1_555
H8_4 C7_4 1_555 1_555
C8_4 C7_4 1_555 1_555
C9_4 N3_4 1_555 1_555
H11_4 C9_4 1_555 1_555
H12_4 C9_4 1_555 1_555
H16_4 C14_4 1_555 1_555
C4_4 C5_4 1_555 1_555
C6_4 C9_4 1_555 1_555
H69_3 C76_3 1_555 1_555
H70_3 C76_3 1_555 1_555
C79_3 N15_3 1_555 1_555
H75_3 C79_3 1_555 1_555
H76_3 C79_3 1_555 1_555
H80_3 C84_3 1_555 1_555
C76_3 C79_3 1_555 1_555
H47_4 C56_4 1_555 1_555
H48_4 C56_4 1_555 1_555
C69_4 C56_4 1_555 1_555
H61_4 C69_4 1_555 1_555
C64_4 H57_4 1_555 1_555
C65_4 C64_4 1_555 1_555
H58_4 C65_4 1_555 1_555
H45_4 C55_4 1_555 1_555
N11_4 C66_4 1_555 1_555
C67_4 C66_4 1_555 1_555
H59_4 C67_4 1_555 1_555
C68_4 N12_4 1_555 1_555
H60_4 C68_4 1_555 1_555
C70_4 C55_4 1_555 1_555
H63_4 C70_4 1_555 1_555
H64_4 C70_4 1_555 1_555
Zn8_3 N12_4 1_555 1_555
N11_4 C70_4 1_555 1_555
C67_4 C68_4 1_555 1_555
H29_4 C34_4 1_555 1_555
H30_4 C34_4 1_555 1_555
N9_4 C57_4 1_555 1_555
N10_4 C59_4 1_555 1_555
C57_4 H49_4 1_555 1_555
C58_4 C57_4 1_555 1_555
H50_4 C58_4 1_555 1_555
C59_4 C58_4 1_555 1_555
C60_4 C59_4 1_555 1_555
C63_4 C34_4 1_555 1_555
H55_4 C63_4 1_555 1_555
H56_4 C63_4 1_555 1_555
N10_4 C63_4 1_555 1_555
Zn8_3 O11_4 1_555 1_555
S2_4 O9_4 1_555 1_555
O10_4 S2_4 1_555 1_555
O11_4 C49_4 1_555 1_555
O12_4 C49_4 1_555 1_555
C37_4 C36_4 1_555 1_555
C38_4 C37_4 1_555 1_555
C39_4 C38_4 1_555 1_555
H34_4 C39_4 1_555 1_555
C40_4 S2_4 1_555 1_555
C41_4 C40_4 1_555 1_555
H35_4 C41_4 1_555 1_555
C42_4 C37_4 1_555 1_555
H36_4 C42_4 1_555 1_555
C43_4 S2_4 1_555 1_555
C44_4 C43_4 1_555 1_555
H37_4 C44_4 1_555 1_555
C45_4 C44_4 1_555 1_555
H38_4 C45_4 1_555 1_555
C46_4 C45_4 1_555 1_555
C47_4 C46_4 1_555 1_555
H39_4 C47_4 1_555 1_555
C48_4 C43_4 1_555 1_555
H40_4 C48_4 1_555 1_555
C49_4 C46_4 1_555 1_555
O8_4 C36_4 1_555 1_555
C39_4 C40_4 1_555 1_555
C41_4 C42_4 1_555 1_555
C47_4 C48_4 1_555 1_555
H69_4 C76_4 1_555 1_555
H70_4 C76_4 1_555 1_555
C79_4 N15_4 1_555 1_555
H75_4 C79_4 1_555 1_555
H76_4 C79_4 1_555 1_555
H80_4 C84_4 1_555 1_555
C76_4 C79_4 1_555 1_555

#END
