
###############################################################################
#
# This file contains modified crystal structure data generated from the
# MOF subset of the Cambridge Structural Database (CSD) v543 
# hosted by the Cambridge Crystallographic Data Centre (CCDC).
#
# This work is licensed under the Creative Commons
# Attribution-NonCommercial-ShareAlike 4.0 International License.
# To view a copy of this license, visit
# http://creativecommons.org/licenses/by-nc-sa/4.0/
# or send a letter to
# Creative Commons, PO Box 1866, Mountain View, CA 94042, USA.
#
# CIF created using the CSD Python API on 29 September 2022
# The structure has been converted into the P1 space group
# The structure has a 3D framework
# The original CSD entry UKALAV is in the orthorhombic crystal system
# The framework has been calculated to contain at least 10.0% void space
# The void calculation uses a probe of radius 1.32A, grid spacing 0.4
#
###############################################################################

data_UKALAV
_chemical_formula_moiety         '(C96 H72 Cu4 N24 O32)n'
_symmetry_cell_setting           triclinic
_symmetry_space_group_name_H-M   'P 1'
_symmetry_Int_Tables_number      1
_space_group_name_Hall           'P 1'
loop_
_symmetry_equiv_pos_site_id
_symmetry_equiv_pos_as_xyz
1 x,y,z
_cell_length_a                   13.4006(11)
_cell_length_b                   13.3794(8)
_cell_length_c                   20.2814(12)
_cell_angle_alpha                90
_cell_angle_beta                 90
_cell_angle_gamma                90
_cell_volume                     3636.29
loop_
_atom_site_label
_atom_site_type_symbol
_atom_site_fract_x
_atom_site_fract_y
_atom_site_fract_z
C1 C 0.38905(19) 0.7100(2) 0.69351(11)
C2 C 0.31427(19) 0.6474(2) 0.65519(12)
C3 C 0.24693(18) 0.5866(2) 0.68860(12)
H1 H 0.2507 0.5808 0.7347
C4 C 0.17411(18) 0.5342(2) 0.65400(12)
C5 C 0.16830(19) 0.5431(2) 0.58518(12)
H2 H 0.1192 0.5081 0.5614
C6 C 0.23598(19) 0.6041(2) 0.55274(12)
C7 C 0.30957(19) 0.6564(2) 0.58673(13)
H3 H 0.3553 0.6971 0.5640
C8 C 0.10335(18) 0.46516(19) 0.68986(11)
C9 C 0.1495(2) 0.6542(2) 0.44801(12)
C10 C 0.2957(2) 0.5849(3) 0.43511(13)
C11 C 0.0591(2) 0.6977(4) 0.47878(16)
H4 H 0.0295 0.7460 0.4489
H5 H 0.0773 0.7307 0.5197
H6 H 0.0114 0.6450 0.4879
C12 C 0.3933(3) 0.5366(4) 0.45081(18)
H7 H 0.4106 0.4897 0.4161
H8 H 0.3881 0.5012 0.4924
H9 H 0.4447 0.5874 0.4541
N1 N 0.16776(16) 0.64888(18) 0.38443(10)
N2 N 0.26125(17) 0.6040(2) 0.37591(11)
N3 N 0.22818(15) 0.61434(19) 0.48185(10)
O1 O 0.46870(14) 0.73187(16) 0.66430(9)
O2 O 0.36389(13) 0.73493(15) 0.75082(9)
O3 O 0.02817(14) 0.43517(16) 0.65809(9)
O4 O 0.12606(13) 0.44252(15) 0.74794(9)
Cu1 Cu 0.563441(19) 0.83557(2) 0.696876(13)
N4 N 0.66776(16) 0.85112(18) 0.61557(10)
O5 O 0.63611(13) 0.73493(15) 0.74918(9)
O6 O 0.47183(14) 0.93517(16) 0.65809(9)
O7 O 0.62606(13) 0.94252(15) 0.75206(9)
Cu2 Cu 0.063441(19) 0.66443(2) 0.303124(13)
Cu3 Cu 0.436559(19) 0.83557(2) 0.803124(13)
Cu4 Cu 0.063441(19) 0.33557(2) 0.803124(13)
Cu5 Cu 0.936559(19) 0.33557(2) 0.696876(13)
C8_2 C 0.39665(18) 0.03484(19) 0.18986(11)
O3_2 O 0.47183(14) 0.06483(16) 0.15809(9)
O4_2 O 0.37394(13) 0.05748(15) 0.24794(9)
Cu4_2 Cu 0.436559(19) 0.16443(2) 0.303124(13)
Cu5_2 Cu 0.563441(19) 0.16443(2) 0.196876(13)
C1_2 C 0.11095(19) 0.7900(2) 0.19351(11)
C2_2 C 0.18573(19) 0.8526(2) 0.15519(12)
C3_2 C 0.25307(18) 0.9134(2) 0.18860(12)
H1_2 H 0.2493 0.9192 0.2347
C4_2 C 0.32589(18) 0.9658(2) 0.15400(12)
C5_2 C 0.33170(19) 0.9569(2) 0.08518(12)
H2_2 H 0.3808 0.9919 0.0614
C6_2 C 0.26402(19) 0.8959(2) 0.05274(12)
C7_2 C 0.19043(19) 0.8436(2) 0.08673(13)
H3_2 H 0.1447 0.8029 0.0640
H5_2 H 0.4227 0.7693 0.0197
O1_2 O 0.03130(14) 0.76813(16) 0.16430(9)
O2_2 O 0.13611(13) 0.76507(15) 0.25082(9)
O6_2 O 0.02817(14) 0.56483(16) 0.15809(9)
C9_2 C 0.3505(2) 0.8458(2) 0.94801(12)
C10_2 C 0.2043(2) 0.9151(3) 0.93511(13)
C11_2 C 0.4409(2) 0.8023(4) 0.97878(16)
H4_2 H 0.4705 0.7540 0.9489
H6_2 H 0.4886 0.8550 0.9879
C12_2 C 0.1067(3) 0.9634(4) 0.95081(18)
H8_2 H 0.1119 0.9988 0.9924
H9_2 H 0.0553 0.9126 0.9541
N1_2 N 0.33224(16) 0.85112(18) 0.88443(10)
N2_2 N 0.23875(17) 0.8960(2) 0.87591(11)
N3_2 N 0.27182(15) 0.88566(19) 0.98185(10)
Cu1_2 Cu 0.936559(19) 0.66443(2) 0.196876(13)
N4_2 N 0.83224(16) 0.64888(18) 0.11557(10)
O5_2 O 0.86389(13) 0.76507(15) 0.24918(9)
O7_2 O 0.87394(13) 0.55748(15) 0.25206(9)
O7_3 O 0.12606(13) 0.55748(15) 0.24794(9)
C8_3 C 0.60335(18) 0.03484(19) 0.31014(11)
H7_2 H 0.9106 0.0103 0.5839
O3_3 O 0.52817(14) 0.06483(16) 0.34191(9)
O4_3 O 0.62606(13) 0.05748(15) 0.25206(9)
C1_3 C 0.88905(19) 0.7900(2) 0.30649(11)
C2_3 C 0.81427(19) 0.8526(2) 0.34481(12)
C3_3 C 0.74693(18) 0.9134(2) 0.31140(12)
H1_3 H 0.7507 0.9192 0.2653
C4_3 C 0.67411(18) 0.9658(2) 0.34600(12)
C5_3 C 0.66830(19) 0.9569(2) 0.41482(12)
H2_3 H 0.6192 0.9919 0.4386
C6_3 C 0.73598(19) 0.8959(2) 0.44726(12)
C7_3 C 0.80957(19) 0.8436(2) 0.41327(13)
H3_3 H 0.8553 0.8029 0.4360
C9_3 C 0.6495(2) 0.8458(2) 0.55199(12)
C10_3 C 0.7957(2) 0.9151(3) 0.56489(13)
C11_3 C 0.5591(2) 0.8023(4) 0.52122(16)
H4_3 H 0.5295 0.7540 0.5511
H5_3 H 0.5773 0.7693 0.4803
H6_3 H 0.5114 0.8550 0.5121
C12_3 C 0.8933(3) 0.9634(4) 0.54919(18)
H8_3 H 0.8881 0.9988 0.5076
H9_3 H 0.9447 0.9126 0.5459
N2_3 N 0.76125(17) 0.8960(2) 0.62409(11)
N3_3 N 0.72818(15) 0.88566(19) 0.51815(10)
O1_3 O 0.96870(14) 0.76813(16) 0.33570(9)
O6_3 O 0.97183(14) 0.56483(16) 0.34191(9)
C9_4 C 0.8505(2) 0.6542(2) 0.05199(12)
C10_4 C 0.7043(2) 0.5849(3) 0.06489(13)
C11_4 C 0.9409(2) 0.6977(4) 0.02122(16)
H4_4 H 0.9705 0.7460 0.0511
H6_4 H 0.9886 0.6450 0.0121
C12_4 C 0.6067(3) 0.5366(4) 0.04919(18)
H7_3 H 0.5894 0.4897 0.0839
H8_4 H 0.6119 0.5012 0.0076
H9_4 H 0.5553 0.5874 0.0459
N2_4 N 0.73875(17) 0.6040(2) 0.12409(11)
N3_4 N 0.77182(15) 0.61434(19) 0.01815(10)
C1_4 C 0.61095(19) 0.7100(2) 0.80649(11)
C2_4 C 0.68573(19) 0.6474(2) 0.84481(12)
C3_4 C 0.75307(18) 0.5866(2) 0.81140(12)
H1_4 H 0.7493 0.5808 0.7653
C4_4 C 0.82589(18) 0.5342(2) 0.84600(12)
C5_4 C 0.83170(19) 0.5431(2) 0.91482(12)
H2_4 H 0.8808 0.5081 0.9386
C6_4 C 0.76402(19) 0.6041(2) 0.94726(12)
C7_4 C 0.69043(19) 0.6564(2) 0.91327(13)
H3_4 H 0.6447 0.6971 0.9360
C8_4 C 0.89665(18) 0.46516(19) 0.81014(11)
H5_4 H 0.9227 0.7307 0.9803
O1_4 O 0.53130(14) 0.73187(16) 0.83570(9)
O3_4 O 0.97183(14) 0.43517(16) 0.84191(9)
O4_4 O 0.87394(13) 0.44252(15) 0.75206(9)
O6_4 O 0.52817(14) 0.93517(16) 0.84191(9)
O7_4 O 0.37394(13) 0.94252(15) 0.74794(9)
C1_5 C 0.61095(19) 0.2900(2) 0.30649(11)
C2_5 C 0.68573(19) 0.3526(2) 0.34481(12)
C3_5 C 0.75307(18) 0.4134(2) 0.31140(12)
H1_5 H 0.7493 0.4192 0.2653
C4_5 C 0.82589(18) 0.4658(2) 0.34600(12)
C5_5 C 0.83170(19) 0.4569(2) 0.41482(12)
H2_5 H 0.8808 0.4919 0.4386
C6_5 C 0.76402(19) 0.3959(2) 0.44726(12)
C7_5 C 0.69043(19) 0.3436(2) 0.41327(13)
H3_5 H 0.6447 0.3029 0.4360
C8_5 C 0.89665(18) 0.53484(19) 0.31014(11)
C9_5 C 0.8505(2) 0.3458(2) 0.55199(12)
C10_5 C 0.7043(2) 0.4151(3) 0.56489(13)
C11_5 C 0.9409(2) 0.3023(4) 0.52122(16)
H4_5 H 0.9705 0.2540 0.5511
H5_5 H 0.9227 0.2693 0.4803
H6_5 H 0.9886 0.3550 0.5121
C12_5 C 0.6067(3) 0.4634(4) 0.54919(18)
H7_4 H 0.5894 0.5103 0.5839
H8_5 H 0.6119 0.4988 0.5076
H9_5 H 0.5553 0.4126 0.5459
N1_3 N 0.83224(16) 0.35112(18) 0.61557(10)
N2_5 N 0.73875(17) 0.3960(2) 0.62409(11)
N3_5 N 0.77182(15) 0.38566(19) 0.51815(10)
O1_5 O 0.53130(14) 0.26813(16) 0.33570(9)
O2_3 O 0.63611(13) 0.26507(15) 0.24918(9)
N4_3 N 0.33224(16) 0.14888(18) 0.38443(10)
O5_3 O 0.36389(13) 0.26507(15) 0.25082(9)
N4_4 N 0.16776(16) 0.35112(18) 0.88443(10)
O5_4 O 0.13611(13) 0.23493(15) 0.75082(9)
C9_6 C 0.6495(2) 0.1542(2) 0.05199(12)
C10_6 C 0.7957(2) 0.0849(3) 0.06489(13)
C11_6 C 0.5591(2) 0.1977(4) 0.02122(16)
H4_6 H 0.5295 0.2460 0.0511
H6_6 H 0.5114 0.1450 0.0121
C12_6 C 0.8933(3) 0.0366(4) 0.04919(18)
H8_6 H 0.8881 0.0012 0.0076
H9_6 H 0.9447 0.0874 0.0459
N1_4 N 0.66776(16) 0.14888(18) 0.11557(10)
N2_6 N 0.76125(17) 0.1040(2) 0.12409(11)
N3_6 N 0.72818(15) 0.11434(19) 0.01815(10)
C1_6 C 0.88905(19) 0.2100(2) 0.80649(11)
C2_6 C 0.81427(19) 0.1474(2) 0.84481(12)
C3_6 C 0.74693(18) 0.0866(2) 0.81140(12)
H1_6 H 0.7507 0.0808 0.7653
C4_6 C 0.67411(18) 0.0342(2) 0.84600(12)
C5_6 C 0.66830(19) 0.0431(2) 0.91482(12)
H2_6 H 0.6192 0.0081 0.9386
C6_6 C 0.73598(19) 0.1041(2) 0.94726(12)
C7_6 C 0.80957(19) 0.1564(2) 0.91327(13)
H3_6 H 0.8553 0.1971 0.9360
H5_6 H 0.5773 0.2307 0.9803
O1_6 O 0.96870(14) 0.23187(16) 0.83570(9)
O2_4 O 0.86389(13) 0.23493(15) 0.74918(9)
C8_6 C 0.60335(18) 0.96516(19) 0.81014(11)
C1_7 C 0.11095(19) 0.2100(2) 0.69351(11)
C2_7 C 0.18573(19) 0.1474(2) 0.65519(12)
C3_7 C 0.25307(18) 0.0866(2) 0.68860(12)
H1_7 H 0.2493 0.0808 0.7347
C4_7 C 0.32589(18) 0.0342(2) 0.65400(12)
C5_7 C 0.33170(19) 0.0431(2) 0.58518(12)
H2_7 H 0.3808 0.0081 0.5614
C6_7 C 0.26402(19) 0.1041(2) 0.55274(12)
C7_7 C 0.19043(19) 0.1564(2) 0.58673(13)
H3_7 H 0.1447 0.1971 0.5640
C9_7 C 0.3505(2) 0.1542(2) 0.44801(12)
C10_7 C 0.2043(2) 0.0849(3) 0.43511(13)
C11_7 C 0.4409(2) 0.1977(4) 0.47878(16)
H4_7 H 0.4705 0.2460 0.4489
H5_7 H 0.4227 0.2307 0.5197
H6_7 H 0.4886 0.1450 0.4879
C12_7 C 0.1067(3) 0.0366(4) 0.45081(18)
H8_7 H 0.1119 0.0012 0.4924
H9_7 H 0.0553 0.0874 0.4541
N2_7 N 0.23875(17) 0.1040(2) 0.37591(11)
N3_7 N 0.27182(15) 0.11434(19) 0.48185(10)
O1_7 O 0.03130(14) 0.23187(16) 0.66430(9)
C8_7 C 0.39665(18) 0.96516(19) 0.68986(11)
H7_5 H 0.0894 0.9897 0.4161
C1_8 C 0.38905(19) 0.2900(2) 0.19351(11)
C2_8 C 0.31427(19) 0.3526(2) 0.15519(12)
C3_8 C 0.24693(18) 0.4134(2) 0.18860(12)
H1_8 H 0.2507 0.4192 0.2347
C4_8 C 0.17411(18) 0.4658(2) 0.15400(12)
C5_8 C 0.16830(19) 0.4569(2) 0.08518(12)
H2_8 H 0.1192 0.4919 0.0614
C6_8 C 0.23598(19) 0.3959(2) 0.05274(12)
C7_8 C 0.30957(19) 0.3436(2) 0.08673(13)
H3_8 H 0.3553 0.3029 0.0640
C8_8 C 0.10335(18) 0.53484(19) 0.18986(11)
H5_8 H 0.0773 0.2693 0.0197
O1_8 O 0.46870(14) 0.26813(16) 0.16430(9)
C9_8 C 0.1495(2) 0.3458(2) 0.94801(12)
C10_8 C 0.2957(2) 0.4151(3) 0.93511(13)
C11_8 C 0.0591(2) 0.3023(4) 0.97878(16)
H4_8 H 0.0295 0.2540 0.9489
H6_8 H 0.0114 0.3550 0.9879
C12_8 C 0.3933(3) 0.4634(4) 0.95081(18)
H7_6 H 0.4106 0.5103 0.9161
H8_8 H 0.3881 0.4988 0.9924
H9_8 H 0.4447 0.4126 0.9541
N2_8 N 0.26125(17) 0.3960(2) 0.87591(11)
N3_8 N 0.22818(15) 0.38566(19) 0.98185(10)
H7_7 H 0.0894 0.0103 0.9161
H7_8 H 0.9106 0.9897 0.0839
loop_
_geom_bond_atom_site_label_1
_geom_bond_atom_site_label_2
_geom_bond_site_symmetry_1
_geom_bond_site_symmetry_2
C1 C2 1_555 1_555
C2 C3 1_555 1_555
C3 H1 1_555 1_555
C4 C3 1_555 1_555
C5 C4 1_555 1_555
H2 C5 1_555 1_555
C6 C5 1_555 1_555
C7 C2 1_555 1_555
H3 C7 1_555 1_555
C8 C4 1_555 1_555
C9 C11 1_555 1_555
C10 C12 1_555 1_555
C11 H4 1_555 1_555
H5 C11 1_555 1_555
H6 C11 1_555 1_555
C12 H7 1_555 1_555
H8 C12 1_555 1_555
H9 C12 1_555 1_555
N1 C9 1_555 1_555
N2 C10 1_555 1_555
N3 C6 1_555 1_555
O1 C1 1_555 1_555
O2 C1 1_555 1_555
O3 C8 1_555 1_555
O4 C8 1_555 1_555
Cu1 O1 1_555 1_555
N4 Cu1 1_555 1_555
O5 Cu1 1_555 1_555
O6 Cu1 1_555 1_555
O7 Cu1 1_555 1_555
Cu2 N1 1_555 1_555
Cu3 O2 1_555 1_555
Cu4 O4 1_555 1_555
C6 C7 1_555 1_555
C9 N3 1_555 1_555
C10 N3 1_555 1_555
N1 N2 1_555 1_555
O3_2 C8_2 1_555 1_555
O4_2 C8_2 1_555 1_555
Cu4_2 O4_2 1_555 1_555
Cu5_2 O3_2 1_555 1_555
C1_2 C2_2 1_555 1_555
C2_2 C3_2 1_555 1_555
C3_2 H1_2 1_555 1_555
C4_2 C3_2 1_555 1_555
C5_2 C4_2 1_555 1_555
H2_2 C5_2 1_555 1_555
C6_2 C5_2 1_555 1_555
C7_2 C2_2 1_555 1_555
H3_2 C7_2 1_555 1_555
O1_2 C1_2 1_555 1_555
O2_2 C1_2 1_555 1_555
Cu2 O2_2 1_555 1_555
C6_2 C7_2 1_555 1_555
C9_2 C11_2 1_555 1_555
C10_2 C12_2 1_555 1_555
C11_2 H4_2 1_555 1_555
H6_2 C11_2 1_555 1_555
H8_2 C12_2 1_555 1_555
H9_2 C12_2 1_555 1_555
N1_2 C9_2 1_555 1_555
N2_2 C10_2 1_555 1_555
Cu3 N1_2 1_555 1_555
C9_2 N3_2 1_555 1_555
C10_2 N3_2 1_555 1_555
N1_2 N2_2 1_555 1_555
N4_2 Cu1_2 1_555 1_555
O5_2 Cu1_2 1_555 1_555
O7_2 Cu1_2 1_555 1_555
O7_3 Cu2 1_555 1_555
O3_3 C8_3 1_555 1_555
O4_3 C8_3 1_555 1_555
Cu5_2 O4_3 1_555 1_555
Cu4_2 O3_3 1_555 1_555
C1_3 C2_3 1_555 1_555
C2_3 C3_3 1_555 1_555
C3_3 H1_3 1_555 1_555
C4_3 C3_3 1_555 1_555
C5_3 C4_3 1_555 1_555
H2_3 C5_3 1_555 1_555
C6_3 C5_3 1_555 1_555
C7_3 C2_3 1_555 1_555
H3_3 C7_3 1_555 1_555
C9_3 C11_3 1_555 1_555
C10_3 C12_3 1_555 1_555
C11_3 H4_3 1_555 1_555
H5_3 C11_3 1_555 1_555
H6_3 C11_3 1_555 1_555
H8_3 C12_3 1_555 1_555
H9_3 C12_3 1_555 1_555
N4 C9_3 1_555 1_555
N2_3 C10_3 1_555 1_555
N3_3 C6_3 1_555 1_555
O1_3 C1_3 1_555 1_555
O5_2 C1_3 1_555 1_555
C6_3 C7_3 1_555 1_555
C9_3 N3_3 1_555 1_555
C10_3 N3_3 1_555 1_555
N4 N2_3 1_555 1_555
C9_4 C11_4 1_555 1_555
C10_4 C12_4 1_555 1_555
C11_4 H4_4 1_555 1_555
H6_4 C11_4 1_555 1_555
C12_4 H7_3 1_555 1_555
H8_4 C12_4 1_555 1_555
H9_4 C12_4 1_555 1_555
N4_2 C9_4 1_555 1_555
N2_4 C10_4 1_555 1_555
C9_4 N3_4 1_555 1_555
C10_4 N3_4 1_555 1_555
N4_2 N2_4 1_555 1_555
C1_4 C2_4 1_555 1_555
C2_4 C3_4 1_555 1_555
C3_4 H1_4 1_555 1_555
C4_4 C3_4 1_555 1_555
C5_4 C4_4 1_555 1_555
H2_4 C5_4 1_555 1_555
C6_4 C5_4 1_555 1_555
C7_4 C2_4 1_555 1_555
H3_4 C7_4 1_555 1_555
C8_4 C4_4 1_555 1_555
O1_4 C1_4 1_555 1_555
O5 C1_4 1_555 1_555
O3_4 C8_4 1_555 1_555
O4_4 C8_4 1_555 1_555
Cu3 O1_4 1_555 1_555
O6_4 Cu3 1_555 1_555
O7_4 Cu3 1_555 1_555
Cu5 O4_4 1_555 1_555
C6_4 C7_4 1_555 1_555
C1_5 C2_5 1_555 1_555
C2_5 C3_5 1_555 1_555
C3_5 H1_5 1_555 1_555
C4_5 C3_5 1_555 1_555
C5_5 C4_5 1_555 1_555
H2_5 C5_5 1_555 1_555
C6_5 C5_5 1_555 1_555
C7_5 C2_5 1_555 1_555
H3_5 C7_5 1_555 1_555
C8_5 C4_5 1_555 1_555
C9_5 C11_5 1_555 1_555
C10_5 C12_5 1_555 1_555
C11_5 H4_5 1_555 1_555
H5_5 C11_5 1_555 1_555
H6_5 C11_5 1_555 1_555
C12_5 H7_4 1_555 1_555
H8_5 C12_5 1_555 1_555
H9_5 C12_5 1_555 1_555
N1_3 C9_5 1_555 1_555
N2_5 C10_5 1_555 1_555
N3_5 C6_5 1_555 1_555
O1_5 C1_5 1_555 1_555
O2_3 C1_5 1_555 1_555
O6_3 C8_5 1_555 1_555
O7_2 C8_5 1_555 1_555
Cu4_2 O1_5 1_555 1_555
N4_3 Cu4_2 1_555 1_555
O5_3 Cu4_2 1_555 1_555
Cu5 N1_3 1_555 1_555
Cu5_2 O2_3 1_555 1_555
C6_5 C7_5 1_555 1_555
C9_5 N3_5 1_555 1_555
C10_5 N3_5 1_555 1_555
N1_3 N2_5 1_555 1_555
N4_4 Cu4 1_555 1_555
O5_4 Cu4 1_555 1_555
C9_6 C11_6 1_555 1_555
C10_6 C12_6 1_555 1_555
C11_6 H4_6 1_555 1_555
H6_6 C11_6 1_555 1_555
H8_6 C12_6 1_555 1_555
H9_6 C12_6 1_555 1_555
N1_4 C9_6 1_555 1_555
N2_6 C10_6 1_555 1_555
Cu5_2 N1_4 1_555 1_555
C9_6 N3_6 1_555 1_555
C10_6 N3_6 1_555 1_555
N1_4 N2_6 1_555 1_555
C1_6 C2_6 1_555 1_555
C2_6 C3_6 1_555 1_555
C3_6 H1_6 1_555 1_555
C4_6 C3_6 1_555 1_555
C5_6 C4_6 1_555 1_555
H2_6 C5_6 1_555 1_555
C6_6 C5_6 1_555 1_555
C7_6 C2_6 1_555 1_555
H3_6 C7_6 1_555 1_555
O1_6 C1_6 1_555 1_555
O2_4 C1_6 1_555 1_555
Cu5 O2_4 1_555 1_555
C6_6 C7_6 1_555 1_555
O6_4 C8_6 1_555 1_555
O7 C8_6 1_555 1_555
C1_7 C2_7 1_555 1_555
C2_7 C3_7 1_555 1_555
C3_7 H1_7 1_555 1_555
C4_7 C3_7 1_555 1_555
C5_7 C4_7 1_555 1_555
H2_7 C5_7 1_555 1_555
C6_7 C5_7 1_555 1_555
C7_7 C2_7 1_555 1_555
H3_7 C7_7 1_555 1_555
C9_7 C11_7 1_555 1_555
C10_7 C12_7 1_555 1_555
C11_7 H4_7 1_555 1_555
H5_7 C11_7 1_555 1_555
H6_7 C11_7 1_555 1_555
H8_7 C12_7 1_555 1_555
H9_7 C12_7 1_555 1_555
N4_3 C9_7 1_555 1_555
N2_7 C10_7 1_555 1_555
N3_7 C6_7 1_555 1_555
O1_7 C1_7 1_555 1_555
O5_4 C1_7 1_555 1_555
C6_7 C7_7 1_555 1_555
C9_7 N3_7 1_555 1_555
C10_7 N3_7 1_555 1_555
N4_3 N2_7 1_555 1_555
O6 C8_7 1_555 1_555
O7_4 C8_7 1_555 1_555
C1_8 C2_8 1_555 1_555
C2_8 C3_8 1_555 1_555
C3_8 H1_8 1_555 1_555
C4_8 C3_8 1_555 1_555
C5_8 C4_8 1_555 1_555
H2_8 C5_8 1_555 1_555
C6_8 C5_8 1_555 1_555
C7_8 C2_8 1_555 1_555
H3_8 C7_8 1_555 1_555
C8_8 C4_8 1_555 1_555
O1_8 C1_8 1_555 1_555
O5_3 C1_8 1_555 1_555
O6_2 C8_8 1_555 1_555
O7_3 C8_8 1_555 1_555
Cu5_2 O1_8 1_555 1_555
C6_8 C7_8 1_555 1_555
C9_8 C11_8 1_555 1_555
C10_8 C12_8 1_555 1_555
C11_8 H4_8 1_555 1_555
H6_8 C11_8 1_555 1_555
C12_8 H7_6 1_555 1_555
H8_8 C12_8 1_555 1_555
H9_8 C12_8 1_555 1_555
N4_4 C9_8 1_555 1_555
N2_8 C10_8 1_555 1_555
C9_8 N3_8 1_555 1_555
C10_8 N3_8 1_555 1_555
N4_4 N2_8 1_555 1_555

#END
