
###############################################################################
#
# This file contains modified crystal structure data generated from the
# MOF subset of the Cambridge Structural Database (CSD) v543 
# hosted by the Cambridge Crystallographic Data Centre (CCDC).
#
# This work is licensed under the Creative Commons
# Attribution-NonCommercial-ShareAlike 4.0 International License.
# To view a copy of this license, visit
# http://creativecommons.org/licenses/by-nc-sa/4.0/
# or send a letter to
# Creative Commons, PO Box 1866, Mountain View, CA 94042, USA.
#
# CIF created using the CSD Python API on 29 September 2022
# The structure has been converted into the P1 space group
# The structure has a 3D framework
# The original CSD entry UKAPUS is in the triclinic crystal system
# The framework has been calculated to contain at least 10.0% void space
# The void calculation uses a probe of radius 1.32A, grid spacing 0.4
#
###############################################################################

data_UKAPUS
_chemical_formula_moiety         '(C48 H38 N2 Nd2 O16 P2)n'
_symmetry_cell_setting           triclinic
_symmetry_space_group_name_H-M   'P 1'
_symmetry_Int_Tables_number      1
_space_group_name_Hall           'P 1'
loop_
_symmetry_equiv_pos_site_id
_symmetry_equiv_pos_as_xyz
1 x,y,z
_cell_length_a                   10.7298(3)
_cell_length_b                   11.9079(4)
_cell_length_c                   14.7678(4)
_cell_angle_alpha                73.0570(10)
_cell_angle_beta                 71.5280(10)
_cell_angle_gamma                66.4560(10)
_cell_volume                     1610.92
loop_
_atom_site_label
_atom_site_type_symbol
_atom_site_fract_x
_atom_site_fract_y
_atom_site_fract_z
_atom_site_U_iso_or_equiv
_atom_site_thermal_displace_type
Nd10 Nd 0.014953(18) 0.450550(15) 0.371712(13) 0.0152 Uani
C18 C 0.0771(5) 0.0867(4) 0.7073(3) 0.0274 Uani
H11 H 0.1046 0.1356 0.7328 0.0330 Uiso
O4 O 0.1734(3) 0.4596(3) 0.1997(2) 0.0271 Uani
C12 C 0.0927(4) 0.5798(4) 0.0543(3) 0.0231 Uani
C13 C 0.0702(4) 0.5372(4) 0.1626(3) 0.0239 Uani
H8 H 0.2497 0.4225 0.0166 0.0330 Uiso
C15 C 0.0095(5) 0.6981(4) 0.0174(3) 0.0331 Uani
O19 O 0.0425(3) 0.6515(3) 0.3462(2) 0.0262 Uani
C29 C 0.0151(4) 0.0551(4) 0.3604(3) 0.0243 Uani
H21 H 0.0498 0.1028 0.3814 0.0300 Uiso
H23 H 0.0278 0.1753 0.1075 0.0430 Uiso
O24 O 0.1594(3) 0.4229(3) 0.4775(2) 0.0232 Uani
O26 O 0.2020(3) 0.2417(3) 0.3697(3) 0.0349 Uani
C46 C 0.2983(8) 0.1714(7) 0.3309(7) 0.0791 Uani
H32 H 0.3292 0.1956 0.2628 0.0950 Uiso
N2 N 0.3732(7) 0.0558(6) 0.3738(6) 0.0888 Uani
C47 C 0.3297(10) 0.0117(11) 0.4774(8) 0.1026 Uani
H35 H 0.2795 0.0832 0.5103 0.1540 Uiso
H38 H 0.5171 0.0190 0.2515 0.2860 Uiso
P1 P 0.14072(10) 0.71810(9) 0.72648(7) 0.0170 Uani
O2 O 0.7613(3) 0.5661(3) 0.4053(2) 0.0225 Uani
C1 C 0.1284(4) 0.6657(4) 0.8544(3) 0.0220 Uani
C2 C 0.4839(4) 0.6415(4) 0.5086(3) 0.0212 Uani
H1 H 0.5023 0.6374 0.4422 0.0250 Uiso
C3 C 0.0760(4) 0.8865(3) 0.7013(3) 0.0188 Uani
C4 C 0.3210(4) 0.6750(3) 0.6621(3) 0.0197 Uani
C6 C 0.3481(4) 0.6676(4) 0.5647(3) 0.0197 Uani
H3 H 0.2737 0.6804 0.5368 0.0240 Uiso
C7 C 0.5940(4) 0.6210(3) 0.5500(3) 0.0200 Uani
C8 C 0.0276(5) 0.7430(5) 0.9173(3) 0.0355 Uani
C9 C 0.5664(4) 0.6289(4) 0.6472(3) 0.0262 Uani
H5 H 0.6409 0.6147 0.6754 0.0310 Uiso
C10 C 0.4297(5) 0.6575(5) 0.7032(3) 0.0284 Uani
H6 H 0.4106 0.6651 0.7689 0.0340 Uiso
C11 C 0.1226(5) 0.9563(4) 0.7358(3) 0.0293 Uani
H7 H 0.1848 0.9159 0.7782 0.0350 Uiso
C14 C 0.1926(4) 0.5032(4) 0.9915(3) 0.0276 Uani
O6 O 0.8406(3) 0.5771(3) 0.5225(2) 0.0232 Uani
C20 C 0.7394(4) 0.5873(4) 0.4890(3) 0.0212 Uani
O7 O 0.0609(3) 0.6703(3) 0.6889(2) 0.0225 Uani
C21 C 0.2088(4) 0.5452(4) 0.8910(3) 0.0274 Uani
H12 H 0.2744 0.4918 0.8477 0.0330 Uiso
Nd6 Nd 0.985047(18) 0.549450(15) 0.628288(13) 0.0152 Uani
O9 O 0.0489(3) 0.4187(3) 0.7854(2) 0.0242 Uani
O12 O 0.2387(3) 0.4339(3) 0.5947(2) 0.0225 Uani
O15 O 0.0724(3) 0.6799(3) 0.4807(2) 0.0228 Uani
H28 H 0.0606 0.2509 0.9392 0.0400 Uiso
C40 C 0.0086(4) 0.8563(4) 0.3585(3) 0.0200 Uani
C41 C 0.0554(4) 0.9269(4) 0.3914(3) 0.0236 Uani
H29 H 0.1154 0.8870 0.4353 0.0280 Uiso
C43 C 0.0449(4) 0.7176(3) 0.3978(3) 0.0185 Uani
H33 H 0.2682 0.9642 0.4883 0.1540 Uiso
H34 H 0.4122 0.9579 0.5035 0.1540 Uiso
C48 C 0.4980(15) 0.9762(14) 0.3193(13) 0.1908 Uani
H36 H 0.5771 0.9571 0.3476 0.2860 Uiso
H37 H 0.4845 0.8985 0.3219 0.2860 Uiso
O3 O 0.9276(3) 0.3201(3) 0.5193(2) 0.0228 Uani
O5 O 0.9575(3) 0.3485(3) 0.6538(2) 0.0262 Uani
C16 C 0.9914(4) 0.1437(4) 0.6415(3) 0.0200 Uani
C17 C 0.9446(4) 0.0731(4) 0.6086(3) 0.0236 Uani
H10 H 0.8846 0.1130 0.5647 0.0280 Uiso
C19 C 0.9551(4) 0.2824(3) 0.6022(3) 0.0185 Uani
H14 H 0.7318 0.0358 0.5117 0.1540 Uiso
H15 H 0.5878 0.0421 0.4965 0.1540 Uiso
C24 C 0.5020(15) 0.0238(14) 0.6807(13) 0.1908 Uani
H17 H 0.4229 0.0429 0.6524 0.2860 Uiso
H18 H 0.5155 0.1015 0.6781 0.2860 Uiso
O1 O 0.9511(3) 0.5813(3) 0.2146(2) 0.0242 Uani
H9 H 0.9394 0.7491 0.0608 0.0400 Uiso
P2 P 0.85928(10) 0.28190(9) 0.27352(7) 0.0170 Uani
C25 C 0.8716(4) 0.3343(4) 0.1456(3) 0.0220 Uani
C26 C 0.5161(4) 0.3585(4) 0.4914(3) 0.0212 Uani
H20 H 0.4977 0.3626 0.5578 0.0250 Uiso
C27 C 0.9240(4) 0.1135(3) 0.2987(3) 0.0188 Uani
C28 C 0.6790(4) 0.3250(3) 0.3379(3) 0.0197 Uani
C30 C 0.6519(4) 0.3324(4) 0.4353(3) 0.0197 Uani
H22 H 0.7263 0.3196 0.4632 0.0240 Uiso
C31 C 0.4060(4) 0.3790(3) 0.4500(3) 0.0200 Uani
C32 C 0.9724(5) 0.2570(5) 0.0827(3) 0.0355 Uani
C33 C 0.4336(4) 0.3711(4) 0.3528(3) 0.0262 Uani
H24 H 0.3591 0.3853 0.3246 0.0310 Uiso
C34 C 0.5703(5) 0.3425(5) 0.2968(3) 0.0284 Uani
H25 H 0.5894 0.3349 0.2311 0.0340 Uiso
C35 C 0.8774(5) 0.0437(4) 0.2642(3) 0.0293 Uani
H26 H 0.8152 0.0841 0.2218 0.0350 Uiso
C38 C 0.8074(4) 0.4968(4) 0.0085(3) 0.0276 Uani
C44 C 0.2606(4) 0.4127(4) 0.5110(3) 0.0212 Uani
O25 O 0.9391(3) 0.3297(3) 0.3111(2) 0.0225 Uani
C45 C 0.7912(4) 0.4548(4) 0.1090(3) 0.0274 Uani
H31 H 0.7256 0.5082 0.1523 0.0330 Uiso
C5 C 0.9849(4) 0.9449(4) 0.6396(3) 0.0243 Uani
H2 H 0.9502 0.8972 0.6186 0.0300 Uiso
H4 H 0.9722 0.8247 0.8925 0.0430 Uiso
O8 O 0.7980(3) 0.7583(3) 0.6303(3) 0.0349 Uani
C22 C 0.7017(8) 0.8286(7) 0.6691(7) 0.0791 Uani
H13 H 0.6708 0.8044 0.7372 0.0950 Uiso
N1 N 0.6268(7) 0.9442(6) 0.6262(6) 0.0888 Uani
C23 C 0.6703(10) 0.9883(11) 0.5226(8) 0.1026 Uani
H16 H 0.7205 0.9168 0.4897 0.1540 Uiso
H19 H 0.4829 0.9810 0.7485 0.2860 Uiso
O16 O 0.8266(3) 0.5404(3) 0.8003(2) 0.0271 Uani
C36 C 0.9073(4) 0.4202(4) 0.9457(3) 0.0231 Uani
C37 C 0.9298(4) 0.4628(4) 0.8374(3) 0.0239 Uani
H27 H 0.7503 0.5775 0.9834 0.0330 Uiso
C39 C 0.9905(5) 0.3019(4) 0.9826(3) 0.0331 Uani
C42 C 0.9229(5) 0.9133(4) 0.2927(3) 0.0274 Uani
H30 H 0.8954 0.8644 0.2672 0.0330 Uiso
loop_
_atom_site_aniso_label
_atom_site_aniso_U_11
_atom_site_aniso_U_22
_atom_site_aniso_U_33
_atom_site_aniso_U_23
_atom_site_aniso_U_13
_atom_site_aniso_U_12
Nd10 0.01759 0.01444 0.01348 -0.00243 -0.00288 -0.00602
C18 0.04 0.0186 0.03 -0.001 -0.0159 -0.0127
O4 0.0271 0.0339 0.0184 -0.0033 -0.0029 -0.0112
C12 0.0282 0.025 0.0181 0.0001 -0.0069 -0.0127
C13 0.032 0.0239 0.0189 -0.0024 -0.0034 -0.0155
C15 0.041 0.027 0.018 -0.0076 -0.0013 0.0001
O19 0.0427 0.0228 0.019 -0.002 -0.008 -0.0177
C29 0.029 0.0223 0.027 -0.0043 -0.0113 -0.0106
O24 0.0219 0.0241 0.0246 -0.0042 -0.0094 -0.0059
O26 0.0282 0.0255 0.052 -0.0093 -0.014 -0.005
C46 0.073 0.047 0.091 -0.024 0.028 -0.022
N2 0.053 0.059 0.106 -0.011 0.011 0.004
C47 0.073 0.102 0.097 0.011 -0.015 -0.018
P1 0.0209 0.0171 0.0139 -0.0028 -0.0032 -0.008
O2 0.021 0.0262 0.0196 -0.0068 -0.0039 -0.006
C1 0.0227 0.0257 0.0186 -0.0055 -0.0065 -0.0069
C2 0.0231 0.0257 0.0153 -0.0042 -0.0075 -0.0063
C3 0.0263 0.0167 0.0143 -0.0029 -0.0058 -0.0072
C4 0.0206 0.0179 0.0195 -0.0024 -0.003 -0.0073
C6 0.0231 0.0234 0.0165 -0.0044 -0.0077 -0.009
C7 0.0197 0.0192 0.021 -0.0057 -0.0044 -0.0054
C8 0.036 0.036 0.02 -0.0079 -0.0015 0.0006
C9 0.0233 0.039 0.0193 -0.0055 -0.0066 -0.0122
C10 0.03 0.045 0.0183 -0.0078 -0.0061 -0.0191
C11 0.042 0.023 0.033 0.0032 -0.026 -0.0136
C14 0.0275 0.027 0.024 -0.0001 -0.0053 -0.0086
O6 0.0219 0.0241 0.0246 -0.0042 -0.0094 -0.0059
C20 0.0204 0.0194 0.0231 -0.005 -0.006 -0.0047
O7 0.0255 0.0247 0.0232 -0.0101 -0.0058 -0.0104
C21 0.0257 0.029 0.021 -0.0074 0.001 -0.0058
Nd6 0.01759 0.01444 0.01348 -0.00243 -0.00288 -0.00602
O9 0.0312 0.0231 0.0154 0.0003 -0.0044 -0.0096
O12 0.021 0.0262 0.0196 -0.0068 -0.0039 -0.006
O15 0.0313 0.0203 0.0185 0.0024 -0.008 -0.0128
C40 0.0298 0.018 0.0129 0.0005 -0.0045 -0.0116
C41 0.032 0.0223 0.0226 -0.0007 -0.0142 -0.0116
C43 0.0214 0.0168 0.0188 0.0024 -0.0017 -0.0143
C48 0.149 0.116 0.162 -0.031 0.046 0.042
O3 0.0313 0.0203 0.0185 0.0024 -0.008 -0.0128
O5 0.0427 0.0228 0.019 -0.002 -0.008 -0.0177
C16 0.0298 0.018 0.0129 0.0005 -0.0045 -0.0116
C17 0.032 0.0223 0.0226 -0.0007 -0.0142 -0.0116
C19 0.0214 0.0168 0.0188 0.0024 -0.0017 -0.0143
C24 0.149 0.116 0.162 -0.031 0.046 0.042
O1 0.0312 0.0231 0.0154 0.0003 -0.0044 -0.0096
P2 0.0209 0.0171 0.0139 -0.0028 -0.0032 -0.008
C25 0.0227 0.0257 0.0186 -0.0055 -0.0065 -0.0069
C26 0.0231 0.0257 0.0153 -0.0042 -0.0075 -0.0063
C27 0.0263 0.0167 0.0143 -0.0029 -0.0058 -0.0072
C28 0.0206 0.0179 0.0195 -0.0024 -0.003 -0.0073
C30 0.0231 0.0234 0.0165 -0.0044 -0.0077 -0.009
C31 0.0197 0.0192 0.021 -0.0057 -0.0044 -0.0054
C32 0.036 0.036 0.02 -0.0079 -0.0015 0.0006
C33 0.0233 0.039 0.0193 -0.0055 -0.0066 -0.0122
C34 0.03 0.045 0.0183 -0.0078 -0.0061 -0.0191
C35 0.042 0.023 0.033 0.0032 -0.026 -0.0136
C38 0.0275 0.027 0.024 -0.0001 -0.0053 -0.0086
C44 0.0204 0.0194 0.0231 -0.005 -0.006 -0.0047
O25 0.0255 0.0247 0.0232 -0.0101 -0.0058 -0.0104
C45 0.0257 0.029 0.021 -0.0074 0.001 -0.0058
C5 0.029 0.0223 0.027 -0.0043 -0.0113 -0.0106
O8 0.0282 0.0255 0.052 -0.0093 -0.014 -0.005
C22 0.073 0.047 0.091 -0.024 0.028 -0.022
N1 0.053 0.059 0.106 -0.011 0.011 0.004
C23 0.073 0.102 0.097 0.011 -0.015 -0.018
O16 0.0271 0.0339 0.0184 -0.0033 -0.0029 -0.0112
C36 0.0282 0.025 0.0181 0.0001 -0.0069 -0.0127
C37 0.032 0.0239 0.0189 -0.0024 -0.0034 -0.0155
C39 0.041 0.027 0.018 -0.0076 -0.0013 0.0001
C42 0.04 0.0186 0.03 -0.001 -0.0159 -0.0127
loop_
_geom_bond_atom_site_label_1
_geom_bond_atom_site_label_2
_geom_bond_site_symmetry_1
_geom_bond_site_symmetry_2
H11 C18 1_555 1_555
O4 C13 1_555 1_555
C12 C13 1_555 1_555
O19 Nd10 1_555 1_555
H21 C29 1_555 1_555
O24 Nd10 1_555 1_555
O26 Nd10 1_555 1_555
C46 O26 1_555 1_555
H32 C46 1_555 1_555
N2 C46 1_555 1_555
C47 N2 1_555 1_555
H35 C47 1_555 1_555
O4 Nd10 1_555 1_555
C12 C15 1_555 1_555
P1 C1 1_555 1_555
O2 C20 1_555 1_555
C1 C8 1_555 1_555
C2 H1 1_555 1_555
C3 P1 1_555 1_555
C4 P1 1_555 1_555
C6 C2 1_555 1_555
H3 C6 1_555 1_555
C7 C2 1_555 1_555
C9 C7 1_555 1_555
H5 C9 1_555 1_555
C10 C4 1_555 1_555
H6 C10 1_555 1_555
C11 C3 1_555 1_555
H7 C11 1_555 1_555
O6 C20 1_555 1_555
C20 C7 1_555 1_555
O7 P1 1_555 1_555
C21 C1 1_555 1_555
H12 C21 1_555 1_555
Nd6 O6 1_555 1_555
C4 C6 1_555 1_555
C9 C10 1_555 1_555
C14 C21 1_555 1_555
O15 C43 1_555 1_555
O19 C43 1_555 1_555
C40 C41 1_555 1_555
H29 C41 1_555 1_555
C43 C40 1_555 1_555
H36 C48 1_555 1_555
H37 C48 1_555 1_555
O3 C19 1_555 1_555
O5 C19 1_555 1_555
C16 C17 1_555 1_555
H10 C17 1_555 1_555
C19 C16 1_555 1_555
H17 C24 1_555 1_555
H18 C24 1_555 1_555
Nd6 O5 1_555 1_555
P2 C25 1_555 1_555
O12 C44 1_555 1_555
C25 C32 1_555 1_555
C26 H20 1_555 1_555
C27 P2 1_555 1_555
C28 P2 1_555 1_555
C30 C26 1_555 1_555
H22 C30 1_555 1_555
C31 C26 1_555 1_555
C33 C31 1_555 1_555
H24 C33 1_555 1_555
C34 C28 1_555 1_555
H25 C34 1_555 1_555
C35 C27 1_555 1_555
H26 C35 1_555 1_555
C44 C31 1_555 1_555
C45 C25 1_555 1_555
H31 C45 1_555 1_555
P2 O25 1_555 1_555
C28 C30 1_555 1_555
C33 C34 1_555 1_555
C38 C45 1_555 1_555
O24 C44 1_555 1_555
H2 C5 1_555 1_555
O8 Nd6 1_555 1_555
C22 O8 1_555 1_555
H13 C22 1_555 1_555
N1 C22 1_555 1_555
C23 N1 1_555 1_555
H16 C23 1_555 1_555
O16 Nd6 1_555 1_555
C36 C37 1_555 1_555
O16 C37 1_555 1_555
C36 C39 1_555 1_555
H30 C42 1_555 1_555

#END
