
###############################################################################
#
# This file contains modified crystal structure data generated from the
# MOF subset of the Cambridge Structural Database (CSD) v543 
# hosted by the Cambridge Crystallographic Data Centre (CCDC).
#
# This work is licensed under the Creative Commons
# Attribution-NonCommercial-ShareAlike 4.0 International License.
# To view a copy of this license, visit
# http://creativecommons.org/licenses/by-nc-sa/4.0/
# or send a letter to
# Creative Commons, PO Box 1866, Mountain View, CA 94042, USA.
#
# CIF created using the CSD Python API on 29 September 2022
# The structure has been converted into the P1 space group
# The structure has a 3D framework
# The original CSD entry UKAQAZ is in the triclinic crystal system
# The framework has been calculated to contain at least 10.0% void space
# The void calculation uses a probe of radius 1.32A, grid spacing 0.4
#
###############################################################################

data_UKAQAZ
_chemical_formula_moiety         '(C48 H38 N2 O16 P2 Sm2)n'
_symmetry_cell_setting           triclinic
_symmetry_space_group_name_H-M   'P 1'
_symmetry_Int_Tables_number      1
_space_group_name_Hall           'P 1'
loop_
_symmetry_equiv_pos_site_id
_symmetry_equiv_pos_as_xyz
1 x,y,z
_cell_length_a                   10.7459(5)
_cell_length_b                   11.8655(5)
_cell_length_c                   14.6752(6)
_cell_angle_alpha                73.2670(10)
_cell_angle_beta                 71.8240(10)
_cell_angle_gamma                66.7990(10)
_cell_volume                     1604.59
loop_
_atom_site_label
_atom_site_type_symbol
_atom_site_fract_x
_atom_site_fract_y
_atom_site_fract_z
_atom_site_U_iso_or_equiv
_atom_site_thermal_displace_type
Sm10 Sm 0.012981(15) 0.449686(14) 0.372090(11) 0.0175 Uani
C18 C 0.0815(4) 0.0862(3) 0.7073(3) 0.0306 Uani
H11 H 0.1104 0.1348 0.7325 0.0370 Uiso
O4 O 0.1706(2) 0.4585(2) 0.20203(16) 0.0300 Uani
C12 C 0.0917(3) 0.5794(3) 0.0550(2) 0.0242 Uani
C13 C 0.0698(4) 0.5351(3) 0.1641(2) 0.0261 Uani
H8 H 0.2501 0.4227 0.0167 0.0370 Uiso
C15 C 0.0076(4) 0.6954(3) 0.0182(2) 0.0353 Uani
O19 O 0.0367(3) 0.6504(2) 0.34696(16) 0.0281 Uani
C29 C 0.0121(4) 0.0549(3) 0.3610(2) 0.0267 Uani
H21 H 0.0461 0.1027 0.3831 0.0320 Uiso
H23 H 0.0278 0.1799 0.1068 0.0410 Uiso
O24 O 0.1599(2) 0.4243(2) 0.47326(17) 0.0260 Uani
O26 O 0.1960(3) 0.2421(2) 0.3701(2) 0.0374 Uani
C46 C 0.2907(6) 0.1759(5) 0.3276(5) 0.0889 Uani
H32 H 0.3176 0.2029 0.2591 0.1070 Uiso
N2 N 0.3692(6) 0.0588(5) 0.3686(5) 0.1136 Uani
C47 C 0.3319(8) 0.0111(8) 0.4706(6) 0.1295 Uani
H35 H 0.2717 0.0803 0.5048 0.1940 Uiso
H38 H 0.5033 0.0176 0.2444 0.3970 Uiso
P1 P 0.14337(8) 0.71804(7) 0.72571(6) 0.0194 Uani
O2 O 0.7638(2) 0.5637(2) 0.40789(16) 0.0252 Uani
C1 C 0.1305(3) 0.6659(3) 0.8545(2) 0.0216 Uani
C2 C 0.4870(3) 0.6399(3) 0.5097(2) 0.0225 Uani
H1 H 0.5062 0.6343 0.4431 0.0270 Uiso
C3 C 0.0782(3) 0.8863(3) 0.7014(2) 0.0211 Uani
C4 C 0.3238(3) 0.6761(3) 0.6620(2) 0.0203 Uani
C6 C 0.3521(3) 0.6663(3) 0.5643(2) 0.0224 Uani
H3 H 0.2788 0.6778 0.5357 0.0270 Uiso
C7 C 0.5952(3) 0.6214(3) 0.5513(2) 0.0209 Uani
C8 C 0.0285(4) 0.7390(3) 0.9182(2) 0.0344 Uani
C9 C 0.5678(3) 0.6303(3) 0.6483(2) 0.0286 Uani
H5 H 0.6416 0.6169 0.6770 0.0340 Uiso
C10 C 0.4305(3) 0.6591(3) 0.7039(2) 0.0294 Uani
H6 H 0.4108 0.6668 0.7700 0.0350 Uiso
C11 C 0.1255(4) 0.9574(3) 0.7358(3) 0.0307 Uani
H7 H 0.1875 0.9173 0.7785 0.0370 Uiso
C14 C 0.1931(4) 0.5034(3) 0.9917(2) 0.0312 Uani
O6 O 0.8401(2) 0.5757(2) 0.52674(17) 0.0260 Uani
C20 C 0.7417(3) 0.5865(3) 0.4912(2) 0.0210 Uani
O7 O 0.0649(2) 0.6699(2) 0.68724(15) 0.0229 Uani
C21 C 0.2098(4) 0.5470(3) 0.8919(2) 0.0320 Uani
H12 H 0.2768 0.4945 0.8484 0.0380 Uiso
Sm6 Sm 0.987019(15) 0.550314(14) 0.627910(11) 0.0175 Uani
O9 O 0.0506(2) 0.4229(2) 0.78420(16) 0.0262 Uani
O12 O 0.2362(2) 0.4363(2) 0.59211(16) 0.0252 Uani
O15 O 0.0694(2) 0.6802(2) 0.48127(15) 0.0244 Uani
H28 H 0.0646 0.2546 0.9386 0.0420 Uiso
C40 C 0.0051(3) 0.8554(3) 0.3584(2) 0.0228 Uani
C41 C 0.0528(4) 0.9264(3) 0.3911(2) 0.0266 Uani
H29 H 0.1138 0.8866 0.4346 0.0320 Uiso
C43 C 0.0408(3) 0.7173(3) 0.3978(2) 0.0223 Uani
H33 H 0.2823 0.9531 0.4808 0.1940 Uiso
H34 H 0.4161 0.9671 0.4963 0.1940 Uiso
C48 C 0.4935(13) 0.9812(12) 0.3142(11) 0.2646 Uani
H36 H 0.5741 0.9754 0.3354 0.3970 Uiso
H37 H 0.4880 0.8976 0.3256 0.3970 Uiso
O3 O 0.9306(2) 0.3198(2) 0.51873(15) 0.0244 Uani
O5 O 0.9633(3) 0.3496(2) 0.65304(16) 0.0281 Uani
C16 C 0.9949(3) 0.1446(3) 0.6416(2) 0.0228 Uani
C17 C 0.9472(4) 0.0736(3) 0.6089(2) 0.0266 Uani
H10 H 0.8862 0.1134 0.5654 0.0320 Uiso
C19 C 0.9592(3) 0.2827(3) 0.6022(2) 0.0223 Uani
H14 H 0.7177 0.0469 0.5192 0.1940 Uiso
H15 H 0.5839 0.0329 0.5037 0.1940 Uiso
C24 C 0.5065(13) 0.0188(12) 0.6858(11) 0.2646 Uani
H17 H 0.4259 0.0246 0.6646 0.3970 Uiso
H18 H 0.5120 0.1024 0.6744 0.3970 Uiso
O1 O 0.9494(2) 0.5771(2) 0.21580(16) 0.0262 Uani
H9 H 0.9354 0.7454 0.0614 0.0420 Uiso
P2 P 0.85663(8) 0.28196(7) 0.27429(6) 0.0194 Uani
C25 C 0.8695(3) 0.3341(3) 0.1455(2) 0.0216 Uani
C26 C 0.5130(3) 0.3601(3) 0.4903(2) 0.0225 Uani
H20 H 0.4938 0.3657 0.5569 0.0270 Uiso
C27 C 0.9218(3) 0.1137(3) 0.2986(2) 0.0211 Uani
C28 C 0.6762(3) 0.3239(3) 0.3380(2) 0.0203 Uani
C30 C 0.6479(3) 0.3337(3) 0.4357(2) 0.0224 Uani
H22 H 0.7212 0.3222 0.4643 0.0270 Uiso
C31 C 0.4048(3) 0.3786(3) 0.4487(2) 0.0209 Uani
C32 C 0.9715(4) 0.2610(3) 0.0818(2) 0.0344 Uani
C33 C 0.4322(3) 0.3697(3) 0.3517(2) 0.0286 Uani
H24 H 0.3584 0.3831 0.3230 0.0340 Uiso
C34 C 0.5695(3) 0.3409(3) 0.2961(2) 0.0294 Uani
H25 H 0.5892 0.3332 0.2300 0.0350 Uiso
C35 C 0.8745(4) 0.0426(3) 0.2642(3) 0.0307 Uani
H26 H 0.8125 0.0827 0.2215 0.0370 Uiso
C38 C 0.8069(4) 0.4966(3) 0.0083(2) 0.0312 Uani
C44 C 0.2583(3) 0.4135(3) 0.5088(2) 0.0210 Uani
O25 O 0.9351(2) 0.3301(2) 0.31276(15) 0.0229 Uani
C45 C 0.7902(4) 0.4530(3) 0.1081(2) 0.0320 Uani
H31 H 0.7232 0.5055 0.1516 0.0380 Uiso
C5 C 0.9879(4) 0.9451(3) 0.6390(2) 0.0267 Uani
H2 H 0.9539 0.8973 0.6169 0.0320 Uiso
H4 H 0.9722 0.8201 0.8932 0.0410 Uiso
O8 O 0.8040(3) 0.7579(2) 0.6299(2) 0.0374 Uani
C22 C 0.7093(6) 0.8241(5) 0.6724(5) 0.0889 Uani
H13 H 0.6824 0.7971 0.7409 0.1070 Uiso
N1 N 0.6308(6) 0.9412(5) 0.6314(5) 0.1136 Uani
C23 C 0.6681(8) 0.9889(8) 0.5294(6) 0.1295 Uani
H16 H 0.7283 0.9197 0.4952 0.1940 Uiso
H19 H 0.4967 0.9824 0.7556 0.3970 Uiso
O16 O 0.8294(2) 0.5415(2) 0.79797(16) 0.0300 Uani
C36 C 0.9083(3) 0.4206(3) 0.9450(2) 0.0242 Uani
C37 C 0.9302(4) 0.4649(3) 0.8359(2) 0.0261 Uani
H27 H 0.7499 0.5773 0.9833 0.0370 Uiso
C39 C 0.9924(4) 0.3046(3) 0.9818(2) 0.0353 Uani
C42 C 0.9185(4) 0.9138(3) 0.2927(3) 0.0306 Uani
H30 H 0.8896 0.8652 0.2675 0.0370 Uiso
loop_
_atom_site_aniso_label
_atom_site_aniso_U_11
_atom_site_aniso_U_22
_atom_site_aniso_U_33
_atom_site_aniso_U_23
_atom_site_aniso_U_13
_atom_site_aniso_U_12
Sm10 0.0209 0.0153 0.01473 -0.00471 -0.00027 -0.00589
C18 0.047 0.0215 0.0328 -0.0047 -0.0182 -0.0145
O4 0.0306 0.0345 0.0211 -0.0056 -0.0036 -0.0084
C12 0.0291 0.0264 0.0191 -0.0069 0.0002 -0.0137
C13 0.0354 0.0244 0.0227 -0.0077 -0.0018 -0.0156
C15 0.044 0.0298 0.0209 -0.0091 0.002 -0.0049
O19 0.0446 0.0196 0.0214 -0.002 -0.0069 -0.0138
C29 0.0363 0.0235 0.0253 -0.0058 -0.007 -0.0141
O24 0.0236 0.0228 0.0311 -0.0053 -0.0078 -0.0059
O26 0.0292 0.0266 0.0523 -0.0123 -0.0096 -0.0013
C46 0.081 0.046 0.102 -0.02 0.03 -0.017
N2 0.071 0.054 0.146 -0.006 0.026 0.003
C47 0.08 0.107 0.142 0.027 -0.009 -0.018
P1 0.0233 0.0179 0.0159 -0.0056 -0.0001 -0.0074
O2 0.0235 0.0273 0.0205 -0.0075 0.0011 -0.0067
C1 0.0258 0.0228 0.0157 -0.0044 -0.0015 -0.0094
C2 0.0265 0.0212 0.0175 -0.0079 -0.0003 -0.0061
C3 0.0245 0.0205 0.0174 -0.007 0.0015 -0.009
C4 0.0236 0.0182 0.0151 -0.003 -0.0003 -0.0061
C6 0.0237 0.0215 0.0207 -0.0054 -0.0037 -0.0063
C7 0.0236 0.0171 0.0207 -0.0033 -0.0022 -0.0077
C8 0.043 0.0257 0.0212 -0.0044 -0.0037 -0.0007
C9 0.0294 0.039 0.0214 -0.008 -0.0028 -0.0163
C10 0.0297 0.043 0.0174 -0.0117 -0.0005 -0.0136
C11 0.04 0.0237 0.0332 -0.0029 -0.0202 -0.0081
C14 0.0352 0.0247 0.0239 -0.0034 -0.0021 -0.0043
O6 0.0236 0.0228 0.0311 -0.0053 -0.0078 -0.0059
C20 0.0242 0.0153 0.0216 -0.0011 -0.0036 -0.0075
O7 0.0271 0.0221 0.0213 -0.0087 -0.0013 -0.0101
C21 0.0326 0.0303 0.0241 -0.011 0.0028 -0.0041
Sm6 0.0209 0.0153 0.01473 -0.00471 -0.00027 -0.00589
O9 0.0293 0.0283 0.0192 -0.0054 -0.0003 -0.0112
O12 0.0235 0.0273 0.0205 -0.0075 0.0011 -0.0067
O15 0.0337 0.0215 0.0191 -0.0008 -0.0061 -0.0123
C40 0.0312 0.0198 0.0176 -0.0052 -0.0024 -0.0098
C41 0.037 0.023 0.0237 -0.0026 -0.0133 -0.0105
C43 0.0235 0.0213 0.0202 -0.0059 0.0028 -0.01
C48 0.221 0.15 0.259 -0.08 0.057 0.05
O3 0.0337 0.0215 0.0191 -0.0008 -0.0061 -0.0123
O5 0.0446 0.0196 0.0214 -0.002 -0.0069 -0.0138
C16 0.0312 0.0198 0.0176 -0.0052 -0.0024 -0.0098
C17 0.037 0.023 0.0237 -0.0026 -0.0133 -0.0105
C19 0.0235 0.0213 0.0202 -0.0059 0.0028 -0.01
C24 0.221 0.15 0.259 -0.08 0.057 0.05
O1 0.0293 0.0283 0.0192 -0.0054 -0.0003 -0.0112
P2 0.0233 0.0179 0.0159 -0.0056 -0.0001 -0.0074
C25 0.0258 0.0228 0.0157 -0.0044 -0.0015 -0.0094
C26 0.0265 0.0212 0.0175 -0.0079 -0.0003 -0.0061
C27 0.0245 0.0205 0.0174 -0.007 0.0015 -0.009
C28 0.0236 0.0182 0.0151 -0.003 -0.0003 -0.0061
C30 0.0237 0.0215 0.0207 -0.0054 -0.0037 -0.0063
C31 0.0236 0.0171 0.0207 -0.0033 -0.0022 -0.0077
C32 0.043 0.0257 0.0212 -0.0044 -0.0037 -0.0007
C33 0.0294 0.039 0.0214 -0.008 -0.0028 -0.0163
C34 0.0297 0.043 0.0174 -0.0117 -0.0005 -0.0136
C35 0.04 0.0237 0.0332 -0.0029 -0.0202 -0.0081
C38 0.0352 0.0247 0.0239 -0.0034 -0.0021 -0.0043
C44 0.0242 0.0153 0.0216 -0.0011 -0.0036 -0.0075
O25 0.0271 0.0221 0.0213 -0.0087 -0.0013 -0.0101
C45 0.0326 0.0303 0.0241 -0.011 0.0028 -0.0041
C5 0.0363 0.0235 0.0253 -0.0058 -0.007 -0.0141
O8 0.0292 0.0266 0.0523 -0.0123 -0.0096 -0.0013
C22 0.081 0.046 0.102 -0.02 0.03 -0.017
N1 0.071 0.054 0.146 -0.006 0.026 0.003
C23 0.08 0.107 0.142 0.027 -0.009 -0.018
O16 0.0306 0.0345 0.0211 -0.0056 -0.0036 -0.0084
C36 0.0291 0.0264 0.0191 -0.0069 0.0002 -0.0137
C37 0.0354 0.0244 0.0227 -0.0077 -0.0018 -0.0156
C39 0.044 0.0298 0.0209 -0.0091 0.002 -0.0049
C42 0.047 0.0215 0.0328 -0.0047 -0.0182 -0.0145
loop_
_geom_bond_atom_site_label_1
_geom_bond_atom_site_label_2
_geom_bond_site_symmetry_1
_geom_bond_site_symmetry_2
H11 C18 1_555 1_555
O4 C13 1_555 1_555
C12 C13 1_555 1_555
O19 Sm10 1_555 1_555
H21 C29 1_555 1_555
O24 Sm10 1_555 1_555
O26 Sm10 1_555 1_555
C46 O26 1_555 1_555
H32 C46 1_555 1_555
N2 C46 1_555 1_555
C47 N2 1_555 1_555
H35 C47 1_555 1_555
O4 Sm10 1_555 1_555
C12 C15 1_555 1_555
P1 C1 1_555 1_555
O2 C20 1_555 1_555
C1 C8 1_555 1_555
C2 H1 1_555 1_555
C3 P1 1_555 1_555
C4 P1 1_555 1_555
C6 C2 1_555 1_555
H3 C6 1_555 1_555
C7 C2 1_555 1_555
C9 C7 1_555 1_555
H5 C9 1_555 1_555
C10 C4 1_555 1_555
H6 C10 1_555 1_555
C11 C3 1_555 1_555
H7 C11 1_555 1_555
O6 C20 1_555 1_555
C20 C7 1_555 1_555
O7 P1 1_555 1_555
C21 C1 1_555 1_555
H12 C21 1_555 1_555
Sm6 O6 1_555 1_555
C4 C6 1_555 1_555
C9 C10 1_555 1_555
C14 C21 1_555 1_555
O15 C43 1_555 1_555
O19 C43 1_555 1_555
C40 C41 1_555 1_555
H29 C41 1_555 1_555
C43 C40 1_555 1_555
H36 C48 1_555 1_555
H37 C48 1_555 1_555
O3 C19 1_555 1_555
O5 C19 1_555 1_555
C16 C17 1_555 1_555
H10 C17 1_555 1_555
C19 C16 1_555 1_555
H17 C24 1_555 1_555
H18 C24 1_555 1_555
Sm6 O5 1_555 1_555
P2 C25 1_555 1_555
O12 C44 1_555 1_555
C25 C32 1_555 1_555
C26 H20 1_555 1_555
C27 P2 1_555 1_555
C28 P2 1_555 1_555
C30 C26 1_555 1_555
H22 C30 1_555 1_555
C31 C26 1_555 1_555
C33 C31 1_555 1_555
H24 C33 1_555 1_555
C34 C28 1_555 1_555
H25 C34 1_555 1_555
C35 C27 1_555 1_555
H26 C35 1_555 1_555
C44 C31 1_555 1_555
C45 C25 1_555 1_555
H31 C45 1_555 1_555
P2 O25 1_555 1_555
C28 C30 1_555 1_555
C33 C34 1_555 1_555
C38 C45 1_555 1_555
O24 C44 1_555 1_555
H2 C5 1_555 1_555
O8 Sm6 1_555 1_555
C22 O8 1_555 1_555
H13 C22 1_555 1_555
N1 C22 1_555 1_555
C23 N1 1_555 1_555
H16 C23 1_555 1_555
O16 Sm6 1_555 1_555
C36 C37 1_555 1_555
O16 C37 1_555 1_555
C36 C39 1_555 1_555
H30 C42 1_555 1_555

#END
